# Generated by pormake.
# Topology soc, (4,6)-cn, num edge types: 1
# Building blocks:
#     Node 0, Type 0, BuildingBlock: ESEHIV_clean_sbu_0, # of connection points: 4
#     Node 1, Type 0, BuildingBlock: ESEHIV_clean_sbu_0, # of connection points: 4
#     Node 2, Type 0, BuildingBlock: ESEHIV_clean_sbu_0, # of connection points: 4
#     Node 3, Type 0, BuildingBlock: ESEHIV_clean_sbu_0, # of connection points: 4
#     Node 4, Type 0, BuildingBlock: ESEHIV_clean_sbu_0, # of connection points: 4
#     Node 5, Type 0, BuildingBlock: ESEHIV_clean_sbu_0, # of connection points: 4
#     Node 6, Type 0, BuildingBlock: ESEHIV_clean_sbu_0, # of connection points: 4
#     Node 7, Type 0, BuildingBlock: ESEHIV_clean_sbu_0, # of connection points: 4
#     Node 8, Type 0, BuildingBlock: ESEHIV_clean_sbu_0, # of connection points: 4
#     Node 9, Type 0, BuildingBlock: ESEHIV_clean_sbu_0, # of connection points: 4
#     Node 10, Type 0, BuildingBlock: ESEHIV_clean_sbu_0, # of connection points: 4
#     Node 11, Type 0, BuildingBlock: ESEHIV_clean_sbu_0, # of connection points: 4
#     Node 12, Type 1, BuildingBlock: BETGAK_clean_sbu_0, # of connection points: 6
#     Node 13, Type 1, BuildingBlock: BETGAK_clean_sbu_0, # of connection points: 6
#     Node 14, Type 1, BuildingBlock: BETGAK_clean_sbu_0, # of connection points: 6
#     Node 15, Type 1, BuildingBlock: BETGAK_clean_sbu_0, # of connection points: 6
#     Node 16, Type 1, BuildingBlock: BETGAK_clean_sbu_0, # of connection points: 6
#     Node 17, Type 1, BuildingBlock: BETGAK_clean_sbu_0, # of connection points: 6
#     Node 18, Type 1, BuildingBlock: BETGAK_clean_sbu_0, # of connection points: 6
#     Node 19, Type 1, BuildingBlock: BETGAK_clean_sbu_0, # of connection points: 6
#     Edge 20, Type (0, 1), BuildingBlock: CIFDUS_clean_linker_0, # of connection points: 2
#     Edge 21, Type (0, 1), BuildingBlock: CIFDUS_clean_linker_0, # of connection points: 2
#     Edge 22, Type (0, 1), BuildingBlock: CIFDUS_clean_linker_0, # of connection points: 2
#     Edge 23, Type (0, 1), BuildingBlock: CIFDUS_clean_linker_0, # of connection points: 2
#     Edge 24, Type (0, 1), BuildingBlock: CIFDUS_clean_linker_0, # of connection points: 2
#     Edge 25, Type (0, 1), BuildingBlock: CIFDUS_clean_linker_0, # of connection points: 2
#     Edge 26, Type (0, 1), BuildingBlock: CIFDUS_clean_linker_0, # of connection points: 2
#     Edge 27, Type (0, 1), BuildingBlock: CIFDUS_clean_linker_0, # of connection points: 2
#     Edge 28, Type (0, 1), BuildingBlock: CIFDUS_clean_linker_0, # of connection points: 2
#     Edge 29, Type (0, 1), BuildingBlock: CIFDUS_clean_linker_0, # of connection points: 2
#     Edge 30, Type (0, 1), BuildingBlock: CIFDUS_clean_linker_0, # of connection points: 2
#     Edge 31, Type (0, 1), BuildingBlock: CIFDUS_clean_linker_0, # of connection points: 2
#     Edge 32, Type (0, 1), BuildingBlock: CIFDUS_clean_linker_0, # of connection points: 2
#     Edge 33, Type (0, 1), BuildingBlock: CIFDUS_clean_linker_0, # of connection points: 2
#     Edge 34, Type (0, 1), BuildingBlock: CIFDUS_clean_linker_0, # of connection points: 2
#     Edge 35, Type (0, 1), BuildingBlock: CIFDUS_clean_linker_0, # of connection points: 2
#     Edge 36, Type (0, 1), BuildingBlock: CIFDUS_clean_linker_0, # of connection points: 2
#     Edge 37, Type (0, 1), BuildingBlock: CIFDUS_clean_linker_0, # of connection points: 2
#     Edge 38, Type (0, 1), BuildingBlock: CIFDUS_clean_linker_0, # of connection points: 2
#     Edge 39, Type (0, 1), BuildingBlock: CIFDUS_clean_linker_0, # of connection points: 2
#     Edge 40, Type (0, 1), BuildingBlock: CIFDUS_clean_linker_0, # of connection points: 2
#     Edge 41, Type (0, 1), BuildingBlock: CIFDUS_clean_linker_0, # of connection points: 2
#     Edge 42, Type (0, 1), BuildingBlock: CIFDUS_clean_linker_0, # of connection points: 2
#     Edge 43, Type (0, 1), BuildingBlock: CIFDUS_clean_linker_0, # of connection points: 2
#     Edge 44, Type (0, 1), BuildingBlock: CIFDUS_clean_linker_0, # of connection points: 2
#     Edge 45, Type (0, 1), BuildingBlock: CIFDUS_clean_linker_0, # of connection points: 2
#     Edge 46, Type (0, 1), BuildingBlock: CIFDUS_clean_linker_0, # of connection points: 2
#     Edge 47, Type (0, 1), BuildingBlock: CIFDUS_clean_linker_0, # of connection points: 2
#     Edge 48, Type (0, 1), BuildingBlock: CIFDUS_clean_linker_0, # of connection points: 2
#     Edge 49, Type (0, 1), BuildingBlock: CIFDUS_clean_linker_0, # of connection points: 2
#     Edge 50, Type (0, 1), BuildingBlock: CIFDUS_clean_linker_0, # of connection points: 2
#     Edge 51, Type (0, 1), BuildingBlock: CIFDUS_clean_linker_0, # of connection points: 2
#     Edge 52, Type (0, 1), BuildingBlock: CIFDUS_clean_linker_0, # of connection points: 2
#     Edge 53, Type (0, 1), BuildingBlock: CIFDUS_clean_linker_0, # of connection points: 2
#     Edge 54, Type (0, 1), BuildingBlock: CIFDUS_clean_linker_0, # of connection points: 2
#     Edge 55, Type (0, 1), BuildingBlock: CIFDUS_clean_linker_0, # of connection points: 2
#     Edge 56, Type (0, 1), BuildingBlock: CIFDUS_clean_linker_0, # of connection points: 2
#     Edge 57, Type (0, 1), BuildingBlock: CIFDUS_clean_linker_0, # of connection points: 2
#     Edge 58, Type (0, 1), BuildingBlock: CIFDUS_clean_linker_0, # of connection points: 2
#     Edge 59, Type (0, 1), BuildingBlock: CIFDUS_clean_linker_0, # of connection points: 2
#     Edge 60, Type (0, 1), BuildingBlock: CIFDUS_clean_linker_0, # of connection points: 2
#     Edge 61, Type (0, 1), BuildingBlock: CIFDUS_clean_linker_0, # of connection points: 2
#     Edge 62, Type (0, 1), BuildingBlock: CIFDUS_clean_linker_0, # of connection points: 2
#     Edge 63, Type (0, 1), BuildingBlock: CIFDUS_clean_linker_0, # of connection points: 2
#     Edge 64, Type (0, 1), BuildingBlock: CIFDUS_clean_linker_0, # of connection points: 2
#     Edge 65, Type (0, 1), BuildingBlock: CIFDUS_clean_linker_0, # of connection points: 2
#     Edge 66, Type (0, 1), BuildingBlock: CIFDUS_clean_linker_0, # of connection points: 2
#     Edge 67, Type (0, 1), BuildingBlock: CIFDUS_clean_linker_0, # of connection points: 2
# Relax obj value: 0.202
# Max RMSD: 0.306
# Mean RMSD: 0.181
data_MOF--net-soc--node1-ESEHIV_clean_sbu_0--node2-BETGAK_clean_sbu_0--edge1-CIFDUS_clean_linker_0
_symmetry_space_group_name_H-M    P1
_symmetry_Int_Tables_number       1
_symmetry_cell_setting            triclinic
loop_
_symmetry_equiv_pos_as_xyz
'x, y, z'
_cell_length_a     46.560093
_cell_length_b     44.766777
_cell_length_c     39.060857
_cell_angle_alpha  81.267192
_cell_angle_beta   81.783183
_cell_angle_gamma 68.559051
loop_
_atom_site_label
_atom_site_type_symbol
_atom_site_fract_x
_atom_site_fract_y
_atom_site_fract_z
_atom_type_partial_charge
Cu0 Cu 0.04681 0.04972 0.38527 0.0
N1 N 0.06404 0.0676 0.41301 0.0
N2 N 0.09401 0.09399 0.42287 0.0
C3 C 0.08759 0.07779 0.40034 0.0
C4 C 0.07384 0.09334 0.45134 0.0
C5 C 0.05531 0.07702 0.44514 0.0
O6 O 0.08362 0.02083 0.35818 0.0
C7 C 0.99111 0.10166 0.38134 0.0
O8 O 0.99157 0.09189 0.41478 0.0
H9 H 0.09898 0.07411 0.37441 0.0
H10 H 0.03602 0.07363 0.46214 0.0
N11 N 0.02617 0.02395 0.41088 0.0
N12 N 1.00515 0.98602 0.4152 0.0
C13 C 1.01178 1.01003 0.39459 0.0
C14 C 0.02787 1.00913 0.44362 0.0
C15 C 1.01466 0.9856 0.4464 0.0
C16 C 0.09506 0.99026 0.36732 0.0
O17 O 0.08005 0.97702 0.39219 0.0
H18 H 1.00859 0.01581 0.36714 0.0
H19 H 0.0402 0.01306 0.46296 0.0
O20 O 1.01435 0.08634 0.36098 0.0
H21 H 0.07141 0.1052 0.47428 0.0
H22 H 1.01443 0.96793 0.46859 0.0
Cu23 Cu 0.05152 0.05199 0.75215 0.0
N24 N 0.03582 0.03384 0.7227 0.0
N25 N 1.0054 1.01002 0.70818 0.0
C26 C 1.00748 0.03138 0.7277 0.0
C27 C 0.03344 0.99854 0.69021 0.0
C28 C 0.05216 0.01341 0.69912 0.0
O29 O 1.01443 0.08304 0.77588 0.0
C30 C 0.10999 1.00382 0.77169 0.0
O31 O 0.1222 0.02095 0.74801 0.0
H32 H 0.98984 0.04248 0.74778 0.0
H33 H 0.07665 1.00769 0.69128 0.0
N34 N 0.07418 0.07619 0.72684 0.0
N35 N 0.10518 0.10525 0.71617 0.0
C36 C 0.08904 0.09148 0.74076 0.0
C37 C 0.08058 0.08084 0.6922 0.0
C38 C 0.09978 0.09875 0.68552 0.0
C39 C 0.99903 0.10794 0.75641 0.0
O40 O 1.00894 0.11105 0.72334 0.0
H41 H 0.0892 0.09102 0.76852 0.0
H42 H 0.07235 0.07141 0.67323 0.0
O43 O 0.08041 0.01391 0.77918 0.0
H44 H 0.04047 0.97921 0.67374 0.0
H45 H 0.10925 0.10607 0.66008 0.0
Cu46 Cu 0.2999 0.08041 0.11039 0.0
N47 N 0.3287 0.05185 0.08179 0.0
N48 N 0.33425 0.01782 0.04308 0.0
C49 C 0.32404 0.02543 0.07571 0.0
C50 C 0.34826 0.03904 0.02881 0.0
C51 C 0.34475 0.06008 0.05281 0.0
O52 O 0.2836 0.05267 0.14816 0.0
C53 C 0.27409 0.116 0.0451 0.0
O54 O 0.27432 0.08829 0.03759 0.0
H55 H 0.30892 0.01536 0.09266 0.0
H56 H 0.349 0.0826 0.04741 0.0
N57 N 0.32061 0.0963 0.13616 0.0
N58 N 0.3279 0.12851 0.16998 0.0
C59 C 0.31222 0.12677 0.14415 0.0
C60 C 0.34209 0.07811 0.1576 0.0
C61 C 0.34671 0.09783 0.17838 0.0
C62 C 0.27065 0.03177 0.14815 0.0
O63 O 0.25686 0.03237 0.12082 0.0
H64 H 0.29387 0.14681 0.13246 0.0
H65 H 0.35194 0.05203 0.15971 0.0
O66 O 0.27852 0.11813 0.07631 0.0
H67 H 0.35699 0.04179 1.00177 0.0
H68 H 0.36125 0.0897 0.19966 0.0
Cu69 Cu 0.08654 0.30148 0.13178 0.0
N70 N 0.10343 0.32401 0.09438 0.0
N71 N 0.13262 0.32921 0.04431 0.0
C72 C 0.12577 0.30865 0.07049 0.0
C73 C 0.11383 0.35891 0.05234 0.0
C74 C 0.0958 0.35563 0.08313 0.0
O75 O 0.11982 0.28451 0.16567 0.0
C76 C 0.04982 0.29637 0.08596 0.0
O77 O 0.04464 0.32729 0.08557 0.0
H78 H 0.13645 0.28264 0.07227 0.0
H79 H 0.0778 0.37484 0.09578 0.0
N80 N 0.04962 0.32628 0.15674 0.0
N81 N 1.00131 0.3394 0.18411 0.0
C82 C 0.02479 0.31699 0.16714 0.0
C83 C 0.04171 0.35543 0.16794 0.0
C84 C 1.01209 0.36354 0.18474 0.0
C85 C 0.12937 0.30636 0.17286 0.0
O86 O 0.11647 0.33581 0.15802 0.0
H87 H 0.02378 0.29442 0.16169 0.0
H88 H 0.05632 0.3699 0.16414 0.0
O89 O 0.07012 0.27656 0.1058 0.0
H90 H 0.11235 0.38139 0.03655 0.0
H91 H 0.9996 0.38551 0.19678 0.0
Cu92 Cu 0.79965 0.0104 0.01921 0.0
N93 N 0.81935 0.03008 0.98183 0.0
N94 N 0.827 0.07203 0.94763 0.0
C95 C 0.82057 0.06 0.98037 0.0
C96 C 0.82973 0.04918 0.92737 0.0
C97 C 0.82516 0.0233 0.94849 0.0
O98 O 0.78053 0.04415 0.05056 0.0
C99 C 0.7891 0.96672 0.98494 0.0
O100 O 0.81931 0.95481 0.98579 0.0
H101 H 0.81392 0.07415 1.00215 0.0
H102 H 0.82339 1.0024 0.93961 0.0
N103 N 0.82612 0.97563 0.0463 0.0
N104 N 0.84015 0.93937 0.09282 0.0
C105 C 0.81638 0.96154 0.07639 0.0
C106 C 0.85717 0.96191 0.04319 0.0
C107 C 0.86588 0.93956 0.07178 0.0
C108 C 0.80094 0.04836 0.0661 0.0
O109 O 0.83012 0.03023 0.05988 0.0
H110 H 0.79217 0.96786 0.086 0.0
H111 H 0.87237 0.96844 0.02223 0.0
O112 O 0.77364 0.99257 0.99916 0.0
H113 H 0.83283 0.05188 0.89921 0.0
H114 H 0.88951 0.92521 0.07687 0.0
Cu115 Cu 0.02733 0.77377 1.01435 0.0
N116 N 1.00474 0.78362 0.97382 0.0
N117 N 0.97104 0.79023 0.93413 0.0
C118 C 0.9745 0.79063 0.96827 0.0
C119 C 1.00003 0.78194 0.91825 0.0
C120 C 1.02025 0.77769 0.94224 0.0
O121 O 1.00494 0.75488 0.05594 0.0
C122 C 0.08386 0.77402 0.97519 0.0
O123 O 0.06448 0.80377 0.9694 0.0
H124 H 0.95567 0.79489 0.98879 0.0
H125 H 0.04507 0.76856 0.93688 0.0
N126 N 0.03164 0.80764 0.03361 0.0
N127 N 0.05815 0.82633 0.06307 0.0
C128 C 0.05728 0.80081 0.04978 0.0
C129 C 1.01503 0.8389 0.03742 0.0
C130 C 0.03144 0.85052 0.05591 0.0
C131 C 0.97931 0.7744 0.06983 0.0
O132 O 0.96839 0.80396 0.05453 0.0
H133 H 0.07525 0.77717 0.05178 0.0
H134 H 0.99277 0.85225 0.0276 0.0
O135 O 0.07295 0.7537 0.99487 0.0
H136 H 1.00656 0.77732 0.8913 0.0
H137 H 0.02466 0.87485 0.0628 0.0
Cu138 Cu 0.54958 0.53702 0.89139 0.0
N139 N 0.56634 0.55669 0.91799 0.0
N140 N 0.59064 0.58724 0.93196 0.0
C141 C 0.5856 0.57307 0.90637 0.0
C142 C 0.5739 0.57939 0.96071 0.0
C143 C 0.55885 0.56068 0.95196 0.0
O144 O 0.58335 0.50862 0.8609 0.0
C145 C 0.4999 0.59045 0.84929 0.0
O146 O 0.51615 0.58796 0.8188 0.0
H147 H 0.59452 0.57576 0.87938 0.0
H148 H 0.54271 0.55159 0.96893 0.0
N149 N 0.53468 0.508 0.92024 0.0
N150 N 0.51089 0.47212 0.93327 0.0
C151 C 0.51424 0.49684 0.91077 0.0
C152 C 0.54469 0.48986 0.94991 0.0
C153 C 0.52996 0.46761 0.95806 0.0
C154 C 0.60697 0.48991 0.87663 0.0
O155 O 0.60797 0.49342 0.90914 0.0
H156 H 0.50377 0.50523 0.88644 0.0
H157 H 0.5626 0.49147 0.9636 0.0
O158 O 0.5114 0.57181 0.87595 0.0
H159 H 0.57217 0.58708 0.98612 0.0
H160 H 0.53384 0.44888 0.97977 0.0
Cu161 Cu 0.55852 0.55322 0.2478 0.0
N162 N 0.54214 0.53486 0.22 0.0
N163 N 0.51075 0.5123 0.20566 0.0
C164 C 0.51561 0.52911 0.22872 0.0
C165 C 0.53515 0.50778 0.18116 0.0
C166 C 0.55456 0.52174 0.19016 0.0
O167 O 0.52178 0.5831 0.27416 0.0
C168 C 0.61633 0.50265 0.25592 0.0
O169 O 0.62091 0.51408 0.22341 0.0
H170 H 0.50074 0.53643 0.25216 0.0
H171 H 0.57667 0.52125 0.1767 0.0
N172 N 0.57875 0.57779 0.21934 0.0
N173 N 0.60527 0.61092 0.20659 0.0
C174 C 0.59813 0.58923 0.23059 0.0
C175 C 0.57371 0.59233 0.18681 0.0
C176 C 0.59001 0.61319 0.17892 0.0
C177 C 0.51202 0.61392 0.26632 0.0
O178 O 0.52883 0.62675 0.24337 0.0
H179 H 0.60498 0.58354 0.25685 0.0
H180 H 0.55782 0.58954 0.17094 0.0
O181 O 0.59024 0.51656 0.27309 0.0
H182 H 0.5396 0.49394 0.15932 0.0
H183 H 0.58978 0.62953 0.15541 0.0
Cu184 Cu 0.78786 0.59318 0.61042 0.0
N185 N 0.79259 0.61707 0.56671 0.0
N186 N 0.80442 0.64126 0.51466 0.0
C187 C 0.81572 0.62162 0.54358 0.0
C188 C 0.77343 0.64945 0.52014 0.0
C189 C 0.76636 0.63476 0.55185 0.0
O190 O 0.77423 0.62539 0.64431 0.0
C191 C 0.77393 0.5551 0.57432 0.0
O192 O 0.80067 0.55657 0.55966 0.0
H193 H 0.84006 0.61076 0.54765 0.0
H194 H 0.74333 0.63671 0.56357 0.0
N195 N 0.82078 0.55788 0.6298 0.0
N196 N 0.8369 0.50963 0.66225 0.0
C197 C 0.82097 0.5271 0.63532 0.0
C198 C 0.83725 0.55951 0.6548 0.0
C199 C 0.84704 0.52996 0.67482 0.0
C200 C 0.79152 0.64243 0.64184 0.0
O201 O 0.81508 0.63734 0.61786 0.0
H202 H 0.80658 0.51851 0.6231 0.0
H203 H 0.83878 0.58158 0.66097 0.0
O204 O 0.76069 0.57151 0.60002 0.0
H205 H 0.75689 0.66572 0.50277 0.0
H206 H 0.85848 0.52463 0.69844 0.0
Cu207 Cu 0.57886 0.81627 0.61285 0.0
N208 N 0.61372 0.81044 0.57665 0.0
N209 N 0.64885 0.80915 0.52852 0.0
C210 C 0.63134 0.79325 0.54977 0.0
C211 C 0.6412 0.83708 0.54254 0.0
C212 C 0.62052 0.8376 0.57105 0.0
O213 O 0.59301 0.83583 0.64681 0.0
C214 C 0.54454 0.82095 0.56371 0.0
O215 O 0.56594 0.79197 0.56528 0.0
H216 H 0.63028 0.77055 0.54488 0.0
H217 H 0.60929 0.85806 0.58581 0.0
N218 N 0.55828 0.78902 0.64201 0.0
N219 N 0.51553 0.78339 0.67569 0.0
C220 C 0.52679 0.79585 0.64491 0.0
C221 C 0.56677 0.7714 0.67255 0.0
C222 C 0.54093 0.7679 0.69293 0.0
C223 C 0.61809 0.81677 0.65974 0.0
O224 O 0.63027 0.78734 0.65053 0.0
H225 H 0.51172 0.81247 0.62642 0.0
H226 H 0.58962 0.76402 0.68115 0.0
O227 O 0.54513 0.84054 0.58411 0.0
H228 H 0.64844 0.85723 0.53205 0.0
H229 H 0.54074 0.75607 0.71924 0.0
Cu230 Cu 0.30028 0.51374 0.53743 0.0
N231 N 0.32319 0.53316 0.5019 0.0
N232 N 0.33071 0.57569 0.46725 0.0
C233 C 0.32222 0.56417 0.4997 0.0
C234 C 0.33715 0.55113 0.44794 0.0
C235 C 0.33266 0.52515 0.46914 0.0
O236 O 0.28115 0.54691 0.56829 0.0
C237 C 0.29032 0.47335 0.50063 0.0
O238 O 0.31992 0.46123 0.50533 0.0
H239 H 0.31237 0.57924 0.52041 0.0
H240 H 0.3334 0.50317 0.46023 0.0
N241 N 0.32044 0.4774 0.56911 0.0
N242 N 0.32359 0.44257 0.6178 0.0
C243 C 0.30562 0.46943 0.59955 0.0
C244 C 0.34912 0.45481 0.56823 0.0
C245 C 0.35099 0.43317 0.59803 0.0
C246 C 0.30223 0.54803 0.58511 0.0
O247 O 0.33108 0.52929 0.57814 0.0
H248 H 0.28177 0.48298 0.60792 0.0
H249 H 0.36725 0.45391 0.54732 0.0
O250 O 0.27383 0.49932 0.51393 0.0
H251 H 0.34284 0.55255 0.42002 0.0
H252 H 0.37107 0.41233 0.60477 0.0
Cu253 Cu 0.51709 0.29121 0.52522 0.0
N254 N 0.55098 0.27049 0.49305 0.0
N255 N 0.59394 0.2631 0.45481 0.0
C256 C 0.57725 0.27757 0.48315 0.0
C257 C 0.57706 0.2465 0.44675 0.0
C258 C 0.5509 0.2512 0.46993 0.0
O259 O 0.53726 0.31158 0.55238 0.0
C260 C 0.46722 0.29686 0.48619 0.0
O261 O 0.4737 0.26704 0.5007 0.0
H262 H 0.58314 0.29437 0.49545 0.0
H263 H 0.53235 0.24238 0.4689 0.0
N264 N 0.50244 0.26359 0.55987 0.0
N265 N 0.47532 0.24699 0.6068 0.0
C266 C 0.48085 0.27255 0.58737 0.0
C267 C 0.51106 0.23125 0.56241 0.0
C268 C 0.49443 0.22106 0.59099 0.0
C269 C 0.5589 0.28903 0.56812 0.0
O270 O 0.5619 0.25916 0.56519 0.0
H271 H 0.469 0.2974 0.5926 0.0
H272 H 0.52821 0.21612 0.54458 0.0
O273 O 0.48214 0.31377 0.49424 0.0
H274 H 0.58254 0.23231 0.42509 0.0
H275 H 0.49644 0.19629 0.59962 0.0
La276 La 0.28189 0.29261 0.35905 0.0
La277 La 0.3119 0.32754 0.29788 0.0
C278 C 0.24848 0.26683 0.39916 0.0
C279 C 0.23184 0.24421 0.4021 0.0
C280 C 0.23837 0.21882 0.42902 0.0
C281 C 0.22219 0.19756 0.43447 0.0
C282 C 0.19893 0.2014 0.41323 0.0
C283 C 0.19302 0.22631 0.38549 0.0
C284 C 0.2094 0.24762 0.37994 0.0
C285 C 0.33542 0.29414 0.37731 0.0
C286 C 0.32056 0.25593 0.29429 0.0
C287 C 0.34567 0.35392 0.25944 0.0
C288 C 0.3608 0.37716 0.26072 0.0
C289 C 0.3565 0.40272 0.23413 0.0
C290 C 0.37118 0.42487 0.23327 0.0
C291 C 0.39088 0.42158 0.25875 0.0
C292 C 0.39402 0.39679 0.28642 0.0
C293 C 0.37894 0.37473 0.28749 0.0
C294 C 0.2594 0.32557 0.27819 0.0
C295 C 0.27733 0.36369 0.36451 0.0
O296 O 0.27872 0.25379 0.3941 0.0
O297 O 0.23724 0.29555 0.38167 0.0
O298 O 0.31746 0.28029 0.39546 0.0
O299 O 0.32352 0.30426 0.34847 0.0
O300 O 0.29865 0.25793 0.32043 0.0
O301 O 0.33272 0.27859 0.28413 0.0
O302 O 0.31536 0.36609 0.26245 0.0
O303 O 0.35667 0.32508 0.27657 0.0
O304 O 0.27796 0.33882 0.26049 0.0
O305 O 0.27044 0.31457 0.3075 0.0
O306 O 0.29499 0.36279 0.33479 0.0
O307 O 0.26534 0.34101 0.37667 0.0
H308 H 0.25581 0.21566 0.44623 0.0
H309 H 0.22774 0.17823 0.45554 0.0
H310 H 0.17514 0.22991 0.36873 0.0
H311 H 0.20417 0.26693 0.35883 0.0
H312 H 0.34206 0.40529 0.21363 0.0
H313 H 0.36767 0.44418 0.21214 0.0
H314 H 0.40906 0.39366 0.30644 0.0
H315 H 0.38199 0.35551 0.30868 0.0
La316 La 0.80282 0.32329 0.34738 0.0
La317 La 0.79644 0.27574 0.2966 0.0
C318 C 0.79375 0.37465 0.37277 0.0
C319 C 0.78663 0.38837 0.40624 0.0
C320 C 0.80011 0.37068 0.43636 0.0
C321 C 0.79596 0.38591 0.46641 0.0
C322 C 0.77841 0.41909 0.46677 0.0
C323 C 0.76354 0.43605 0.43709 0.0
C324 C 0.76763 0.42081 0.40718 0.0
C325 C 0.8387 0.26158 0.36271 0.0
C326 C 0.75281 0.28863 0.36873 0.0
C327 C 0.80279 0.22649 0.26848 0.0
C328 C 0.80554 0.21424 0.23459 0.0
C329 C 0.77895 0.21565 0.22029 0.0
C330 C 0.78151 0.19693 0.19366 0.0
C331 C 0.81071 0.17633 0.1809 0.0
C332 C 0.83739 0.17761 0.19271 0.0
C333 C 0.83482 0.19611 0.2195 0.0
C334 C 0.76187 0.33826 0.28185 0.0
C335 C 0.84856 0.3075 0.27735 0.0
O336 O 0.82129 0.35269 0.36696 0.0
O337 O 0.77166 0.36798 0.36176 0.0
O338 O 0.83612 0.28516 0.38017 0.0
O339 O 0.81948 0.27368 0.34027 0.0
O340 O 0.76296 0.31149 0.37446 0.0
O341 O 0.76557 0.26967 0.3433 0.0
O342 O 0.77584 0.24696 0.27938 0.0
O343 O 0.82616 0.23319 0.27614 0.0
O344 O 0.76228 0.31526 0.26488 0.0
O345 O 0.78194 0.32483 0.3028 0.0
O346 O 0.83834 0.28455 0.27221 0.0
O347 O 0.83513 0.32793 0.30134 0.0
H348 H 0.81465 0.34547 0.43632 0.0
H349 H 0.80738 0.37196 0.48897 0.0
H350 H 0.75021 0.46164 0.43611 0.0
H351 H 0.75699 0.43482 0.38418 0.0
H352 H 0.756 0.22941 0.23128 0.0
H353 H 0.76046 0.19664 0.18523 0.0
H354 H 0.8603 0.1627 0.1828 0.0
H355 H 0.85577 0.19454 0.22985 0.0
La356 La 0.80382 0.7716 0.28486 0.0
La357 La 0.83193 0.80855 0.31767 0.0
C358 C 0.77793 0.74015 0.261 0.0
C359 C 0.75444 0.72523 0.26401 0.0
C360 C 0.73558 0.73362 0.23668 0.0
C361 C 0.71531 0.7177 0.23523 0.0
C362 C 0.71322 0.69313 0.26138 0.0
C363 C 0.73116 0.68574 0.28979 0.0
C364 C 0.75186 0.70162 0.29102 0.0
C365 C 0.79772 0.8299 0.25323 0.0
C366 C 0.76894 0.80248 0.35387 0.0
C367 C 0.84971 0.85215 0.33055 0.0
C368 C 0.87584 0.85798 0.34175 0.0
C369 C 0.88925 0.84185 0.37253 0.0
C370 C 0.90979 0.85222 0.38607 0.0
C371 C 0.91733 0.87872 0.36896 0.0
C372 C 0.90507 0.89366 0.33724 0.0
C373 C 0.8845 0.88339 0.32383 0.0
C374 C 0.84257 0.75009 0.35022 0.0
C375 C 0.87012 0.77143 0.25119 0.0
O376 O 0.76759 0.77163 0.25935 0.0
O377 O 0.80298 0.72621 0.27751 0.0
O378 O 0.80372 0.80454 0.23795 0.0
O379 O 0.79511 0.82238 0.28573 0.0
O380 O 0.77422 0.77845 0.33503 0.0
O381 O 0.78508 0.82204 0.34533 0.0
O382 O 0.83534 0.83682 0.35358 0.0
O383 O 0.85253 0.84359 0.29931 0.0
O384 O 0.84461 0.77391 0.36345 0.0
O385 O 0.84032 0.75794 0.31788 0.0
O386 O 0.86821 0.79142 0.27416 0.0
O387 O 0.84872 0.75803 0.25258 0.0
H388 H 0.73746 0.75171 0.21549 0.0
H389 H 0.7025 0.72365 0.21259 0.0
H390 H 0.72974 0.66722 0.3106 0.0
H391 H 0.76622 0.69495 0.31242 0.0
H392 H 0.88292 0.82213 0.38689 0.0
H393 H 0.91916 0.84007 0.41035 0.0
H394 H 0.91008 0.91442 0.32365 0.0
H395 H 0.87416 0.89636 0.30028 0.0
La396 La 0.2885 0.79406 0.29397 0.0
La397 La 0.32075 0.81505 0.33782 0.0
C398 C 0.25544 0.78273 0.25548 0.0
C399 C 0.23252 0.79591 0.2299 0.0
C400 C 0.23185 0.77546 0.20651 0.0
C401 C 0.2079 0.78496 0.18499 0.0
C402 C 0.18411 0.8153 0.18631 0.0
C403 C 0.18562 0.83638 0.20884 0.0
C404 C 0.20964 0.82673 0.23056 0.0
C405 C 0.34779 0.7564 0.2962 0.0
C406 C 0.30306 0.85837 0.26681 0.0
C407 C 0.35447 0.82578 0.37569 0.0
C408 C 0.37677 0.81901 0.40138 0.0
C409 C 0.37773 0.84539 0.41571 0.0
C410 C 0.39997 0.84135 0.43803 0.0
C411 C 0.4217 0.81062 0.44697 0.0
C412 C 0.41992 0.78382 0.43348 0.0
C413 C 0.39769 0.78803 0.41064 0.0
C414 C 0.26134 0.85194 0.33718 0.0
C415 C 0.29995 0.75382 0.36535 0.0
O416 O 0.28366 0.78212 0.24555 0.0
O417 O 0.2463 0.79 0.28738 0.0
O418 O 0.32514 0.74676 0.29497 0.0
O419 O 0.33737 0.78701 0.29451 0.0
O420 O 0.28588 0.84087 0.26508 0.0
O421 O 0.32216 0.85042 0.29162 0.0
O422 O 0.32638 0.82628 0.38625 0.0
O423 O 0.3642 0.81666 0.34447 0.0
O424 O 0.28363 0.86191 0.33926 0.0
O425 O 0.27224 0.82146 0.3378 0.0
O426 O 0.32064 0.76763 0.36688 0.0
O427 O 0.28007 0.76572 0.34165 0.0
H428 H 0.24924 0.75148 0.20587 0.0
H429 H 0.20738 0.76785 0.16846 0.0
H430 H 0.16795 0.8601 0.21013 0.0
H431 H 0.20985 0.84288 0.24849 0.0
H432 H 0.36177 0.86952 0.40873 0.0
H433 H 0.4008 0.8627 0.44703 0.0
H434 H 0.43593 0.75969 0.44015 0.0
H435 H 0.39715 0.76734 0.39987 0.0
La436 La 0.30304 0.80419 0.8556 0.0
La437 La 0.28899 0.77579 0.79281 0.0
C438 C 0.30446 0.84079 0.89706 0.0
C439 C 0.28603 0.86112 0.9242 0.0
C440 C 0.29445 0.85117 0.95826 0.0
C441 C 0.28429 0.87286 0.98307 0.0
C442 C 0.26576 0.9051 0.97412 0.0
C443 C 0.25379 0.91378 0.94144 0.0
C444 C 0.26415 0.89196 0.91639 0.0
C445 C 0.34013 0.74261 0.85089 0.0
C446 C 0.24562 0.77882 0.8655 0.0
C447 C 0.28674 0.74012 0.75087 0.0
C448 C 0.3039 0.72368 0.72071 0.0
C449 C 0.29081 0.7345 0.68897 0.0
C450 C 0.30148 0.71571 0.66157 0.0
C451 C 0.32516 0.68549 0.6657 0.0
C452 C 0.341 0.67662 0.69587 0.0
C453 C 0.33021 0.69556 0.72353 0.0
C454 C 0.25155 0.83736 0.79755 0.0
C455 C 0.34819 0.79895 0.78371 0.0
O456 O 0.31046 0.80972 0.90497 0.0
O457 O 0.29934 0.85075 0.86425 0.0
O458 O 0.3401 0.75972 0.87476 0.0
O459 O 0.31845 0.7604 0.83302 0.0
O460 O 0.25917 0.79679 0.8764 0.0
O461 O 0.25556 0.76551 0.83561 0.0
O462 O 0.27674 0.77165 0.74537 0.0
O463 O 0.29639 0.7288 0.78191 0.0
O464 O 0.25054 0.81954 0.77503 0.0
O465 O 0.2737 0.81992 0.81506 0.0
O466 O 0.33275 0.78398 0.77055 0.0
O467 O 0.33847 0.81129 0.81419 0.0
H468 H 0.31124 0.82744 0.96494 0.0
H469 H 0.29416 0.8652 1.0078 0.0
H470 H 0.23891 0.93832 0.93413 0.0
H471 H 0.25691 0.90002 0.89038 0.0
H472 H 0.27054 0.75624 0.68623 0.0
H473 H 0.28859 0.72323 0.63886 0.0
H474 H 0.35971 0.6536 0.69935 0.0
H475 H 0.341 0.68705 0.74767 0.0
La476 La 0.29266 0.27131 0.81415 0.0
La477 La 0.3274 0.29352 0.85416 0.0
C478 C 0.27119 0.24183 0.7802 0.0
C479 C 0.2481 0.22673 0.77949 0.0
C480 C 0.23641 0.22942 0.74763 0.0
C481 C 0.21542 0.21461 0.74464 0.0
C482 C 0.20569 0.19656 0.7735 0.0
C483 C 0.2168 0.19455 0.80583 0.0
C484 C 0.23796 0.20952 0.80881 0.0
C485 C 0.29353 0.33064 0.78987 0.0
C486 C 0.2572 0.30645 0.87776 0.0
C487 C 0.34826 0.32754 0.88156 0.0
C488 C 0.36742 0.3473 0.88087 0.0
C489 C 0.38313 0.34295 0.91023 0.0
C490 C 0.40062 0.36178 0.91252 0.0
C491 C 0.40311 0.38532 0.88523 0.0
C492 C 0.38751 0.38953 0.85544 0.0
C493 C 0.36967 0.37061 0.85328 0.0
C494 C 0.3209 0.24163 0.89378 0.0
C495 C 0.36429 0.2606 0.78686 0.0
O496 O 0.26069 0.2731 0.78048 0.0
O497 O 0.29416 0.22728 0.79962 0.0
O498 O 0.26948 0.32199 0.79359 0.0
O499 O 0.31484 0.30634 0.80213 0.0
O500 O 0.25954 0.28269 0.86003 0.0
O501 O 0.27917 0.31911 0.87301 0.0
O502 O 0.3628 0.29669 0.8791 0.0
O503 O 0.32216 0.33944 0.86683 0.0
O504 O 0.33838 0.25696 0.89799 0.0
O505 O 0.31024 0.25251 0.86423 0.0
O506 O 0.36449 0.27681 0.81245 0.0
O507 O 0.33942 0.25329 0.78454 0.0
H508 H 0.24379 0.24282 0.72478 0.0
H509 H 0.20682 0.2173 0.71959 0.0
H510 H 0.20973 0.1808 0.82853 0.0
H511 H 0.24662 0.20736 0.83372 0.0
H512 H 0.38141 0.32521 0.93189 0.0
H513 H 0.41156 0.35835 0.93619 0.0
H514 H 0.38912 0.40733 0.83388 0.0
H515 H 0.35763 0.37427 0.83038 0.0
La516 La 0.78376 0.30069 0.79535 0.0
La517 La 0.82905 0.30532 0.84158 0.0
C518 C 0.7432 0.30764 0.75533 0.0
C519 C 0.71916 0.31177 0.73165 0.0
C520 C 0.72716 0.29631 0.70113 0.0
C521 C 0.70472 0.30027 0.67868 0.0
C522 C 0.6734 0.31968 0.68604 0.0
C523 C 0.66563 0.33603 0.71611 0.0
C524 C 0.68819 0.33199 0.73865 0.0
C525 C 0.84104 0.25729 0.78928 0.0
C526 C 0.81504 0.35318 0.77456 0.0
C527 C 0.87673 0.29447 0.87333 0.0
C528 C 0.8924 0.29151 0.90519 0.0
C529 C 0.87926 0.31243 0.93116 0.0
C530 C 0.89685 0.31257 0.95761 0.0
C531 C 0.92832 0.29222 0.95862 0.0
C532 C 0.94079 0.27019 0.9335 0.0
C533 C 0.92308 0.26988 0.90725 0.0
C534 C 0.7725 0.34931 0.85111 0.0
C535 C 0.79527 0.25299 0.86314 0.0
O536 O 0.77295 0.2978 0.74535 0.0
O537 O 0.73645 0.31298 0.78811 0.0
O538 O 0.81604 0.25201 0.78633 0.0
O539 O 0.83376 0.28673 0.79336 0.0
O540 O 0.78922 0.34704 0.77594 0.0
O541 O 0.83789 0.33417 0.79319 0.0
O542 O 0.85899 0.32303 0.86091 0.0
O543 O 0.8666 0.27193 0.86841 0.0
O544 O 0.79784 0.3509 0.85919 0.0
O545 O 0.77863 0.32083 0.8436 0.0
O546 O 0.81786 0.2631 0.86761 0.0
O547 O 0.77575 0.26754 0.83912 0.0
H548 H 0.75084 0.2809 0.69463 0.0
H549 H 0.71205 0.28795 0.65543 0.0
H550 H 0.64195 0.35126 0.72286 0.0
H551 H 0.68136 0.34475 0.76163 0.0
H552 H 0.85572 0.32941 0.93041 0.0
H553 H 0.88586 0.32938 0.97683 0.0
H554 H 0.96477 0.25426 0.93291 0.0
H555 H 0.93396 0.25363 0.88743 0.0
La556 La 0.76519 0.79666 0.83925 0.0
La557 La 0.80456 0.82241 0.77955 0.0
C558 C 0.72104 0.7808 0.87097 0.0
C559 C 0.71276 0.75145 0.87497 0.0
C560 C 0.71384 0.73275 0.9074 0.0
C561 C 0.70437 0.70604 0.91215 0.0
C562 C 0.69385 0.69744 0.88448 0.0
C563 C 0.69383 0.71536 0.85174 0.0
C564 C 0.70297 0.74225 0.84709 0.0
C565 C 0.82222 0.78197 0.85832 0.0
C566 C 0.80234 0.75337 0.77773 0.0
C567 C 0.83917 0.84873 0.74199 0.0
C568 C 0.85689 0.86969 0.74416 0.0
C569 C 0.85721 0.89384 0.71677 0.0
C570 C 0.87603 0.91216 0.71633 0.0
C571 C 0.8951 0.90642 0.74321 0.0
C572 C 0.89356 0.88331 0.77151 0.0
C573 C 0.87449 0.86522 0.77207 0.0
C574 C 0.74917 0.82717 0.76419 0.0
C575 C 0.77471 0.86086 0.84686 0.0
O576 O 0.74549 0.77832 0.88558 0.0
O577 O 0.71986 0.79719 0.84013 0.0
O578 O 0.80015 0.77365 0.87617 0.0
O579 O 0.81202 0.79568 0.8293 0.0
O580 O 0.78182 0.75786 0.80546 0.0
O581 O 0.8173 0.77353 0.76535 0.0
O582 O 0.80891 0.86221 0.74618 0.0
O583 O 0.84928 0.81902 0.75741 0.0
O584 O 0.77328 0.82352 0.7421 0.0
O585 O 0.75613 0.83041 0.79341 0.0
O586 O 0.7953 0.85499 0.81926 0.0
O587 O 0.75692 0.84325 0.85754 0.0
H588 H 0.72137 0.7392 0.92932 0.0
H589 H 0.70466 0.69246 0.93763 0.0
H590 H 0.68542 0.70943 0.83014 0.0
H591 H 0.70157 0.7562 0.82187 0.0
H592 H 0.84359 0.89787 0.6951 0.0
H593 H 0.8768 0.92967 0.69413 0.0
H594 H 0.90767 0.87869 0.79284 0.0
H595 H 0.87416 0.84724 0.79381 0.0
H596 H 0.11636 0.1165 0.46984 0.0
H597 H 0.11974 0.11173 0.35955 0.0
H598 H 0.15358 0.14284 0.3473 0.0
H599 H 0.18074 0.17364 0.36715 0.0
H600 H 0.17525 0.18143 0.47684 0.0
H601 H 0.14376 0.14719 0.48982 0.0
C602 C 0.12428 0.12236 0.44311 0.0
C603 C 0.11521 0.11154 0.41587 0.0
C604 C 0.1434 0.14105 0.43596 0.0
C605 C 0.12638 0.11907 0.38138 0.0
C606 C 0.14568 0.13724 0.37415 0.0
C607 C 0.17247 0.16802 0.39387 0.0
C608 C 0.18028 0.18011 0.42092 0.0
C609 C 0.15404 0.14868 0.40116 0.0
C610 C 0.16985 0.17212 0.4555 0.0
C611 C 0.15169 0.15269 0.46296 0.0
H612 H 0.94115 0.13546 0.42185 0.0
H613 H 0.97826 0.13216 0.3143 0.0
H614 H 0.93265 0.17933 0.29776 0.0
H615 H 0.88264 0.2239 0.3151 0.0
H616 H 0.84926 0.22589 0.42384 0.0
H617 H 0.89251 0.17679 0.43844 0.0
C618 C 0.93949 0.14473 0.39462 0.0
C619 C 0.96352 0.12998 0.36946 0.0
C620 C 0.91341 0.17177 0.38547 0.0
C621 C 0.9604 0.14283 0.33439 0.0
C622 C 0.93417 0.16987 0.32493 0.0
C623 C 0.88449 0.213 0.34181 0.0
C624 C 0.86215 0.22833 0.36838 0.0
C625 C 0.91047 0.18481 0.35034 0.0
C626 C 0.86562 0.21442 0.40292 0.0
C627 C 0.89058 0.18642 0.41134 0.0
H628 H 0.96991 0.95409 0.45257 0.0
H629 H 1.01905 0.96467 0.35179 0.0
H630 H 0.99822 0.92981 0.32949 0.0
H631 H 0.96315 0.89961 0.3371 0.0
H632 H 0.91264 0.88937 0.43704 0.0
H633 H 0.93778 0.91955 0.46153 0.0
C634 C 0.97629 0.94833 0.42593 0.0
C635 C 0.99524 0.96265 0.40366 0.0
C636 C 0.96416 0.92814 0.41313 0.0
C637 C 1.00362 0.95487 0.36918 0.0
C638 C 0.99195 0.93468 0.35642 0.0
C639 C 0.95776 0.90385 0.36429 0.0
C640 C 0.93586 0.89261 0.38508 0.0
C641 C 0.97164 0.92184 0.37791 0.0
C642 C 0.92959 0.89765 0.42048 0.0
C643 C 0.94372 0.91517 0.43444 0.0
H644 H 0.11627 0.92582 0.36187 0.0
H645 H 0.14604 1.00788 0.34676 0.0
H646 H 0.20001 0.97204 0.33613 0.0
H647 H 0.23891 0.91716 0.33377 0.0
H648 H 0.20926 0.83506 0.34773 0.0
H649 H 0.155 0.87112 0.35594 0.0
C650 C 0.13452 0.93596 0.35559 0.0
C651 C 0.12697 0.96967 0.35467 0.0
C652 C 0.16551 0.91513 0.34956 0.0
C653 C 0.15099 0.98227 0.34683 0.0
C654 C 0.18191 0.96168 0.34114 0.0
C655 C 0.22056 0.90712 0.33845 0.0
C656 C 0.22817 0.87334 0.34039 0.0
C657 C 0.18947 0.92806 0.34283 0.0
C658 C 0.20409 0.86084 0.34622 0.0
C659 C 0.17308 0.88151 0.35092 0.0
H660 H 0.1686 0.98569 0.79116 0.0
H661 H 0.0988 0.94735 0.77819 0.0
H662 H 0.13626 0.89229 0.7871 0.0
H663 H 0.19012 0.85521 0.79349 0.0
H664 H 0.2594 0.89265 0.81032 0.0
H665 H 0.22096 0.9478 0.80563 0.0
C666 C 0.16138 0.96523 0.79122 0.0
C667 C 0.1307 0.97075 0.78438 0.0
C668 C 0.18307 0.93348 0.79694 0.0
C669 C 0.12191 0.94393 0.78411 0.0
C670 C 0.14348 0.9124 0.78887 0.0
C671 C 0.19663 0.8754 0.79698 0.0
C672 C 0.22762 0.86978 0.80248 0.0
C673 C 0.17425 0.9069 0.79468 0.0
C674 C 0.2357 0.89619 0.8067 0.0
C675 C 0.21373 0.92776 0.80365 0.0
H676 H 0.10205 0.13689 0.77107 0.0
H677 H 0.15576 0.10837 0.6742 0.0
H678 H 0.19191 0.13338 0.6841 0.0
H679 H 0.20863 0.16283 0.72024 0.0
H680 H 0.15521 0.1921 0.81697 0.0
H681 H 0.11915 0.16631 0.80773 0.0
C682 C 0.12176 0.13597 0.75223 0.0
C683 C 0.12603 0.12084 0.72182 0.0
C684 C 0.14268 0.15024 0.75823 0.0
C685 C 0.15153 0.12027 0.6975 0.0
C686 C 0.1724 0.13434 0.70328 0.0
C687 C 0.18896 0.16382 0.73922 0.0
C688 C 0.18452 0.17959 0.76914 0.0
C689 C 0.16818 0.1494 0.7335 0.0
C690 C 0.15931 0.17994 0.79384 0.0
C691 C 0.13857 0.1654 0.78844 0.0
H692 H 0.9824 0.16317 0.78852 0.0
H693 H 0.94509 0.10416 0.74453 0.0
H694 H 0.89316 0.14501 0.75068 0.0
H695 H 0.85834 0.19826 0.76684 0.0
H696 H 0.89551 0.25992 0.80637 0.0
H697 H 0.94696 0.21739 0.8047 0.0
C698 C 0.96266 0.15892 0.78139 0.0
C699 C 0.96739 0.12997 0.76747 0.0
C700 C 0.93276 0.18316 0.78415 0.0
C701 C 0.94186 0.12554 0.75666 0.0
C702 C 0.91219 0.14912 0.75978 0.0
C703 C 0.87767 0.20241 0.77521 0.0
C704 C 0.87284 0.23219 0.78724 0.0
C705 C 0.90736 0.17812 0.77322 0.0
C706 C 0.89835 0.23719 0.79745 0.0
C707 C 0.92787 0.21282 0.79637 0.0
H708 H 1.01255 0.9481 0.72673 0.0
H709 H 0.94461 0.04167 0.70139 0.0
H710 H 0.90352 0.01816 0.71025 0.0
H711 H 0.88743 0.97028 0.72498 0.0
H712 H 0.95592 0.87742 0.75363 0.0
H713 H 0.99624 0.90123 0.74438 0.0
C714 C 0.98873 0.96314 0.72294 0.0
C715 C 0.98145 0.9963 0.71283 0.0
C716 C 0.96539 0.9496 0.72908 0.0
C717 C 0.95053 0.01598 0.70884 0.0
C718 C 0.92717 1.00254 0.71398 0.0
C719 C 0.91118 0.95536 0.72926 0.0
C720 C 0.91866 0.92211 0.73999 0.0
C721 C 0.93435 0.96931 0.72409 0.0
C722 C 0.94948 0.90311 0.74578 0.0
C723 C 0.97262 0.91665 0.74022 0.0
H724 H 0.36756 0.136 0.20914 0.0
H725 H 0.27712 0.18385 0.17182 0.0
H726 H 0.26756 0.22815 0.20627 0.0
H727 H 0.28356 0.2517 0.25014 0.0
H728 H 0.37351 0.20381 0.28779 0.0
H729 H 0.38438 0.1605 0.25076 0.0
C730 C 0.34564 0.15591 0.20866 0.0
C731 C 0.32301 0.15607 0.18816 0.0
C732 C 0.34005 0.18108 0.22901 0.0
C733 C 0.29511 0.18281 0.18715 0.0
C734 C 0.28947 0.20815 0.20712 0.0
C735 C 0.30547 0.23165 0.25015 0.0
C736 C 0.32762 0.23029 0.27181 0.0
C737 C 0.31153 0.20721 0.22862 0.0
C738 C 0.35619 0.20488 0.27138 0.0
C739 C 0.36234 0.18029 0.25024 0.0
H740 H 0.9852 0.2864 0.20671 0.0
H741 H 0.94799 0.39046 0.19222 0.0
H742 H 0.89742 0.39005 0.21865 0.0
H743 H 0.86387 0.36038 0.24916 0.0
H744 H 0.9 0.25638 0.26091 0.0
H745 H 0.95039 0.25653 0.23278 0.0
C746 C 0.96601 0.30899 0.20904 0.0
C747 C 0.97088 0.33848 0.198 0.0
C748 C 0.9366 0.30863 0.22422 0.0
C749 C 0.94543 0.36742 0.20129 0.0
C750 C 0.9163 0.36723 0.21629 0.0
C751 C 0.88273 0.33779 0.24529 0.0
C752 C 0.87809 0.30843 0.25727 0.0
C753 C 0.91167 0.33804 0.22847 0.0
C754 C 0.90276 0.27935 0.25175 0.0
C755 C 0.93171 0.27941 0.23575 0.0
H756 H 0.79098 0.94777 0.1426 0.0
H757 H 0.88544 0.88534 0.11772 0.0
H758 H 0.88197 0.84959 0.17004 0.0
H759 H 0.85066 0.83228 0.21836 0.0
H760 H 0.75546 0.89098 0.24243 0.0
H761 H 0.76066 0.93222 0.19508 0.0
C762 C 0.81088 0.92642 0.14843 0.0
C763 C 0.83839 0.9194 0.12546 0.0
C764 C 0.80862 0.90534 0.17862 0.0
C765 C 0.86399 0.89179 0.13444 0.0
C766 C 0.86204 0.8711 0.1645 0.0
C767 C 0.83138 0.85457 0.21417 0.0
C768 C 0.80295 0.85885 0.23429 0.0
C769 C 0.83433 0.87726 0.18626 0.0
C770 C 0.77786 0.88758 0.22791 0.0
C771 C 0.78074 0.91085 0.20044 0.0
H772 H 0.05611 0.8499 0.12334 0.0
H773 H 0.11812 0.80195 0.03962 0.0
H774 H 0.16291 0.79602 0.06942 0.0
H775 H 0.1844 0.80237 0.12025 0.0
H776 H 0.12277 0.84676 0.20646 0.0
H777 H 0.07808 0.85688 0.17459 0.0
C778 C 0.07947 0.83878 0.11151 0.0
C779 C 0.08392 0.82662 0.0793 0.0
C780 C 0.10519 0.83477 0.12925 0.0
C781 C 0.11426 0.81153 0.06441 0.0
C782 C 0.13983 0.80809 0.08144 0.0
C783 C 0.16121 0.81421 0.13216 0.0
C784 C 0.15708 0.82381 0.16574 0.0
C785 C 0.13557 0.81921 0.11408 0.0
C786 C 0.12678 0.83958 0.18043 0.0
C787 C 0.10113 0.84514 0.16233 0.0
H788 H 0.31348 0.96979 0.07149 0.0
H789 H 0.32409 0.02768 0.97467 0.0
H790 H 0.29753 1.00194 0.9463 0.0
H791 H 0.2751 0.96048 0.94794 0.0
H792 H 0.26146 0.90472 0.04518 0.0
H793 H 0.28369 0.9341 0.07511 0.0
C794 C 0.30978 0.97712 0.04426 0.0
C795 C 0.32141 1.00035 0.02524 0.0
C796 C 0.29331 0.96325 0.02841 0.0
C797 C 0.31648 1.00918 0.98985 0.0
C798 C 0.3007 0.99492 0.9737 0.0
C799 C 0.27576 0.9555 0.97592 0.0
C800 C 0.26717 0.92999 0.99417 0.0
C801 C 0.2893 0.97175 0.99266 0.0
C802 C 0.26839 0.92393 0.03044 0.0
C803 C 0.28145 0.94041 0.04746 0.0
H804 H 0.16058 0.36696 1.00238 0.0
H805 H 0.15373 0.27219 1.01612 0.0
H806 H 0.19045 0.25739 0.96521 0.0
H807 H 0.22527 0.2708 0.91669 0.0
H808 H 0.2333 0.36489 0.90346 0.0
H809 H 0.19499 0.38063 0.9534 0.0
C810 C 0.1668 0.34319 0.99411 0.0
C811 C 0.15421 0.32082 1.01353 0.0
C812 C 0.18806 0.33472 0.96447 0.0
C813 C 0.16316 0.28992 1.00236 0.0
C814 C 0.18408 0.28142 0.97291 0.0
C815 C 0.21824 0.29493 0.92441 0.0
C816 C 0.23186 0.31677 0.90605 0.0
C817 C 0.19671 0.30358 0.95374 0.0
C818 C 0.22307 0.34766 0.91698 0.0
C819 C 0.20121 0.35666 0.94564 0.0
H820 H 0.78034 0.11821 0.91664 0.0
H821 H 0.86838 0.09912 0.95421 0.0
H822 H 0.86549 0.15482 0.93386 0.0
H823 H 0.83882 0.20806 0.90267 0.0
H824 H 0.7499 0.22721 0.86605 0.0
H825 H 0.75176 0.17286 0.88931 0.0
C826 C 0.79875 0.12649 0.92028 0.0
C827 C 0.82476 0.10482 0.93632 0.0
C828 C 0.79659 0.15859 0.90894 0.0
C829 C 0.84836 0.11557 0.9416 0.0
C830 C 0.84662 0.14733 0.93005 0.0
C831 C 0.81956 0.20061 0.90027 0.0
C832 C 0.79428 0.22189 0.8824 0.0
C833 C 0.82094 0.16902 0.91339 0.0
C834 C 0.76971 0.2115 0.87949 0.0
C835 C 0.7708 0.18028 0.89266 0.0
H836 H 0.91947 0.77607 0.96083 0.0
H837 H 0.96141 0.81355 0.86696 0.0
H838 H 0.92044 0.81391 0.83425 0.0
H839 H 0.87258 0.80163 0.8313 0.0
H840 H 0.83128 0.76438 0.92594 0.0
H841 H 0.87109 0.76612 0.95843 0.0
C842 C 0.91937 0.78484 0.9334 0.0
C843 C 0.94391 0.79449 0.91664 0.0
C844 C 0.89558 0.78482 0.91434 0.0
C845 C 0.94323 0.80548 0.88075 0.0
C846 C 0.91966 0.80575 0.86183 0.0
C847 C 0.87232 0.79405 0.85896 0.0
C848 C 0.84869 0.78285 0.87574 0.0
C849 C 0.89578 0.79503 0.87812 0.0
C850 C 0.84907 0.77293 0.91183 0.0
C851 C 0.87192 0.774 0.93078 0.0
H852 H 0.16287 0.34425 0.17183 0.0
H853 H 0.15252 0.25777 0.22805 0.0
H854 H 0.19 0.25596 0.26811 0.0
H855 H 0.22689 0.2802 0.28712 0.0
H856 H 0.231 0.36909 0.22902 0.0
H857 H 0.1953 0.36842 0.19066 0.0
C858 C 0.16852 0.32481 0.19282 0.0
C859 C 0.15446 0.30123 0.19647 0.0
C860 C 0.18929 0.32447 0.21603 0.0
C861 C 0.16293 0.27621 0.22394 0.0
C862 C 0.18429 0.27539 0.24717 0.0
C863 C 0.2193 0.29981 0.2667 0.0
C864 C 0.23204 0.32491 0.26168 0.0
C865 C 0.19765 0.29967 0.24376 0.0
C866 C 0.22201 0.3495 0.2342 0.0
C867 C 0.20148 0.34917 0.21177 0.0
H868 H 0.1063 0.8158 0.93235 0.0
H869 H 0.13644 0.7164 0.97697 0.0
H870 H 0.18873 0.70822 0.94674 0.0
H871 H 0.22662 0.73029 0.90695 0.0
H872 H 0.19358 0.83068 0.86581 0.0
H873 H 0.14208 0.83717 0.89487 0.0
C874 C 0.12403 0.79207 0.93577 0.0
C875 C 0.1167 0.76675 0.95731 0.0
C876 C 0.15394 0.78771 0.91848 0.0
C877 C 0.14078 0.73647 0.96078 0.0
C878 C 0.17087 0.73183 0.94334 0.0
C879 C 0.20806 0.7535 0.90426 0.0
C880 C 0.21427 0.78006 0.88371 0.0
C881 C 0.17788 0.75734 0.92197 0.0
C882 C 0.18978 0.8099 0.8811 0.0
C883 C 0.16018 0.81364 0.89787 0.0
H884 H 0.30339 0.16025 0.03908 0.0
H885 H 0.24919 0.12828 0.9824 0.0
H886 H 0.25727 0.16396 0.93064 0.0
H887 H 0.28253 0.20327 0.89953 0.0
H888 H 0.33961 0.23059 0.95771 0.0
H889 H 0.3277 0.1985 1.00923 0.0
C890 C 0.29276 0.1615 1.01569 0.0
C891 C 0.27523 0.14169 1.01531 0.0
C892 C 0.2985 0.18128 0.98535 0.0
C893 C 0.26252 0.14333 0.984 0.0
C894 C 0.26735 0.1637 0.95408 0.0
C895 C 0.29245 0.20207 0.92339 0.0
C896 C 0.31232 0.21964 0.92384 0.0
C897 C 0.28583 0.18255 0.95402 0.0
C898 C 0.32451 0.21754 0.95564 0.0
C899 C 0.31762 0.19908 0.98566 0.0
H900 H 0.9996 0.33725 0.05539 0.0
H901 H 0.05555 0.23605 0.06702 0.0
H902 H 0.02295 0.22547 0.02907 0.0
H903 H 0.97819 0.24588 0.9918 0.0
H904 H 0.92517 0.34824 0.98112 0.0
H905 H 0.95689 0.35705 0.01969 0.0
C906 C 1.00502 0.31265 0.04988 0.0
C907 C 0.03035 0.2875 0.06434 0.0
C908 C 0.98638 0.30692 0.02815 0.0
C909 C 0.0363 0.25596 0.05662 0.0
C910 C 1.01763 0.24997 0.03475 0.0
C911 C 0.97355 0.27014 0.99783 0.0
C912 C 0.94848 0.29625 0.98355 0.0
C913 C 0.99253 0.27537 0.02019 0.0
C914 C 0.94326 0.32739 0.99209 0.0
C915 C 0.96175 0.33261 1.01404 0.0
H916 H 0.80509 0.96187 0.91739 0.0
H917 H 0.74522 0.9377 1.00267 0.0
H918 H 0.73344 0.90359 0.96677 0.0
H919 H 0.74472 0.87659 0.91211 0.0
H920 H 0.80527 0.90289 0.82807 0.0
H921 H 0.81212 0.93993 0.86237 0.0
C922 C 0.78877 0.94983 0.9278 0.0
C923 C 0.77566 0.95262 0.96232 0.0
C924 C 0.78259 0.93015 0.90727 0.0
C925 C 0.75502 0.93646 0.97583 0.0
C926 C 0.74863 0.91666 0.9554 0.0
C927 C 0.75891 0.89088 0.90111 0.0
C928 C 0.77452 0.88652 0.86739 0.0
C929 C 0.76289 0.91271 0.9212 0.0
C930 C 0.79298 0.90528 0.85382 0.0
C931 C 0.79701 0.92666 0.87346 0.0
H932 H 0.98918 0.75991 0.14042 0.0
H933 H 0.92171 0.77363 0.0693 0.0
H934 H 0.88273 0.77261 0.11807 0.0
H935 H 0.86609 0.77102 0.18145 0.0
H936 H 0.93181 0.76174 0.25305 0.0
H937 H 0.97259 0.75713 0.20462 0.0
C938 C 0.96631 0.76141 0.13561 0.0
C939 C 0.95914 0.76534 0.10066 0.0
C940 C 0.94326 0.76186 0.16431 0.0
C941 C 0.92858 0.76919 0.0955 0.0
C942 C 0.90599 0.76902 0.12359 0.0
C943 C 0.88947 0.7674 0.18659 0.0
C944 C 0.89569 0.7662 0.22138 0.0
C945 C 0.91281 0.76574 0.15819 0.0
C946 C 0.9261 0.76256 0.22692 0.0
C947 C 0.94955 0.75996 0.19901 0.0
H948 H 0.26518 0.97328 0.14472 0.0
H949 H 0.2919 0.02366 0.21299 0.0
H950 H 0.30573 0.97504 0.25496 0.0
H951 H 0.31044 0.91699 0.27272 0.0
H952 H 0.28399 0.86802 0.20245 0.0
H953 H 0.27062 0.91649 0.16137 0.0
C954 C 0.27369 0.97394 0.16892 0.0
C955 C 0.27696 1.00274 0.17548 0.0
C956 C 0.28221 0.94556 0.19277 0.0
C957 C 0.28874 1.00228 0.20698 0.0
C958 C 0.29686 0.97424 0.23107 0.0
C959 C 0.30213 0.9168 0.24824 0.0
C960 C 0.29845 0.8883 0.24102 0.0
C961 C 0.29391 0.94548 0.22427 0.0
C962 C 0.28715 0.88917 0.20914 0.0
C963 C 0.27932 0.91711 0.18545 0.0
H964 H 0.83148 0.04745 0.11901 0.0
H965 H 0.75758 0.10991 0.05835 0.0
H966 H 0.75527 0.15621 0.08697 0.0
H967 H 0.77591 0.1787 0.12832 0.0
H968 H 0.85007 0.11411 0.18813 0.0
H969 H 0.85143 0.06911 0.15965 0.0
C970 C 0.81452 0.07114 0.11237 0.0
C971 C 0.79444 0.07528 0.08702 0.0
C972 C 0.81396 0.09737 0.12815 0.0
C973 C 0.77273 0.10606 0.07846 0.0
C974 C 0.77179 0.13253 0.09443 0.0
C975 C 0.79235 0.15478 0.13509 0.0
C976 C 0.81307 0.15007 0.16018 0.0
C977 C 0.79256 0.12849 0.11912 0.0
C978 C 0.83439 0.11886 0.16836 0.0
C979 C 0.83489 0.09288 0.15247 0.0
H980 H 0.64013 0.58652 0.88627 0.0
H981 H 0.57969 0.63663 0.96997 0.0
H982 H 0.60789 0.67374 0.96394 0.0
H983 H 0.64837 0.69335 0.93365 0.0
H984 H 0.70754 0.64554 0.8481 0.0
H985 H 0.68126 0.60605 0.856 0.0
C986 C 0.63311 0.60562 0.90308 0.0
C987 C 0.6079 0.60865 0.92864 0.0
C988 C 0.64924 0.62721 0.89919 0.0
C989 C 0.59929 0.63335 0.9505 0.0
C990 C 0.61529 0.65474 0.94694 0.0
C991 C 0.65575 0.67398 0.91709 0.0
C992 C 0.67989 0.67207 0.89055 0.0
C993 C 0.64019 0.65196 0.92134 0.0
C994 C 0.68894 0.64735 0.86872 0.0
C995 C 0.67393 0.62488 0.87321 0.0
H996 H 0.4608 0.62889 0.79953 0.0
H997 H 0.46822 0.61137 0.91034 0.0
H998 H 0.41889 0.6547 0.92013 0.0
H999 H 0.37466 0.69948 0.89786 0.0
H1000 H 0.36456 0.71752 0.78801 0.0
H1001 H 0.41327 0.67213 0.77731 0.0
C1002 C 0.45155 0.63444 0.82582 0.0
C1003 C 0.46867 0.61661 0.8541 0.0
C1004 C 0.42245 0.65951 0.83153 0.0
C1005 C 0.45593 0.6243 0.88796 0.0
C1006 C 0.42756 0.64923 0.89369 0.0
C1007 C 0.38279 0.6931 0.87158 0.0
C1008 C 0.36582 0.71178 0.84382 0.0
C1009 C 0.41074 0.66714 0.86575 0.0
C1010 C 0.37683 0.70331 0.80993 0.0
C1011 C 0.40492 0.67751 0.80382 0.0
H1012 H 0.45849 0.49108 0.90188 0.0
H1013 H 0.5257 0.40809 0.9529 0.0
H1014 H 0.49912 0.37351 0.94049 0.0
H1015 H 0.45759 0.36681 0.91415 0.0
H1016 H 0.38894 0.4501 0.86515 0.0
H1017 H 0.41632 0.48446 0.87616 0.0
C1018 C 0.46734 0.46541 0.91017 0.0
C1019 C 0.494 0.45216 0.92828 0.0
C1020 C 0.45209 0.4457 0.90271 0.0
C1021 C 0.50498 0.41894 0.93937 0.0
C1022 C 0.48999 0.39912 0.93194 0.0
C1023 C 0.44839 0.39253 0.90611 0.0
C1024 C 0.42111 0.40583 0.889 0.0
C1025 C 0.46362 0.41225 0.91352 0.0
C1026 C 0.41007 0.4391 0.87797 0.0
C1027 C 0.4255 0.45884 0.88462 0.0
H1028 H 0.66652 0.48486 0.8676 0.0
H1029 H 0.60691 0.43431 0.85434 0.0
H1030 H 0.65245 0.38535 0.84419 0.0
H1031 H 0.71051 0.35534 0.84401 0.0
H1032 H 0.76733 0.4091 0.85928 0.0
H1033 H 0.72234 0.45753 0.86321 0.0
C1034 C 0.66353 0.46345 0.86131 0.0
C1035 C 0.63338 0.46364 0.86071 0.0
C1036 C 0.68969 0.43538 0.85637 0.0
C1037 C 0.62989 0.43526 0.8537 0.0
C1038 C 0.65602 0.40704 0.84848 0.0
C1039 C 0.71298 0.3777 0.84793 0.0
C1040 C 0.74275 0.37801 0.85157 0.0
C1041 C 0.68625 0.40647 0.8505 0.0
C1042 C 0.74509 0.40751 0.85671 0.0
C1043 C 0.71921 0.4356 0.85887 0.0
H1044 H 0.67733 0.4803 0.23236 0.0
H1045 H 0.61146 0.45722 0.31106 0.0
H1046 H 0.6514 0.40514 0.3281 0.0
H1047 H 0.70442 0.36393 0.317 0.0
H1048 H 0.76918 0.3882 0.23781 0.0
H1049 H 0.73059 0.44189 0.22474 0.0
C1050 C 0.67165 0.46409 0.25353 0.0
C1051 C 0.64114 0.47282 0.2702 0.0
C1052 C 0.69471 0.43419 0.26302 0.0
C1053 C 0.63459 0.4514 0.29779 0.0
C1054 C 0.65747 0.42146 0.30739 0.0
C1055 C 0.71016 0.38131 0.29739 0.0
C1056 C 0.7398 0.37222 0.27855 0.0
C1057 C 0.68751 0.41227 0.28976 0.0
C1058 C 0.74677 0.39472 0.25287 0.0
C1059 C 0.72459 0.42538 0.24528 0.0
H1060 H 0.65733 0.59033 0.23739 0.0
H1061 H 0.58997 0.67518 0.18986 0.0
H1062 H 0.61601 0.70909 0.2059 0.0
H1063 H 0.65752 0.71407 0.2342 0.0
H1064 H 0.72735 0.62811 0.27747 0.0
H1065 H 0.69982 0.59511 0.2639 0.0
C1066 C 0.64861 0.61625 0.23045 0.0
C1067 C 0.62211 0.63042 0.21242 0.0
C1068 C 0.66366 0.63528 0.23969 0.0
C1069 C 0.61075 0.66391 0.20326 0.0
C1070 C 0.62538 0.68321 0.21277 0.0
C1071 C 0.6669 0.6881 0.24047 0.0
C1072 C 0.69451 0.67366 0.25688 0.0
C1073 C 0.6518 0.66909 0.23111 0.0
C1074 C 0.70585 0.64001 0.26552 0.0
C1075 C 0.69039 0.62103 0.25729 0.0
H1076 H 0.49217 0.67887 0.26924 0.0
H1077 H 0.46013 0.59826 0.28974 0.0
H1078 H 0.40687 0.63538 0.30148 0.0
H1079 H 0.36903 0.69097 0.30284 0.0
H1080 H 0.40096 0.77162 0.2831 0.0
H1081 H 0.45467 0.73427 0.2744 0.0
C1082 C 0.47362 0.66931 0.27678 0.0
C1083 C 0.48036 0.6356 0.27877 0.0
C1084 C 0.44298 0.69089 0.2834 0.0
C1085 C 0.45588 0.62384 0.28851 0.0
C1086 C 0.42532 0.64517 0.29492 0.0
C1087 C 0.38775 0.70045 0.2968 0.0
C1088 C 0.38086 0.73423 0.29329 0.0
C1089 C 0.41855 0.67876 0.29199 0.0
C1090 C 0.40549 0.74591 0.28581 0.0
C1091 C 0.43621 0.72449 0.2808 0.0
H1092 H 0.47655 0.5009 0.26483 0.0
H1093 H 0.49105 0.49197 0.15452 0.0
H1094 H 0.4542 0.46388 0.1614 0.0
H1095 H 0.42065 0.43917 0.19907 0.0
H1096 H 0.40455 0.44971 0.30895 0.0
H1097 H 0.43947 0.48035 0.30172 0.0
C1098 C 0.47134 0.49351 0.24204 0.0
C1099 C 0.48691 0.49839 0.20917 0.0
C1100 C 0.45005 0.47753 0.24615 0.0
C1101 C 0.47993 0.48804 0.1802 0.0
C1102 C 0.45875 0.47211 0.18408 0.0
C1103 C 0.4242 0.44874 0.22137 0.0
C1104 C 0.41005 0.44217 0.25451 0.0
C1105 C 0.44409 0.46631 0.217 0.0
C1106 C 0.41549 0.45412 0.28325 0.0
C1107 C 0.43532 0.47172 0.27909 0.0
H1108 H 0.79577 0.63507 0.71198 0.0
H1109 H 0.78014 0.70551 0.62189 0.0
H1110 H 0.7848 0.74539 0.65507 0.0
H1111 H 0.79549 0.75977 0.70915 0.0
H1112 H 0.80967 0.69042 0.80016 0.0
H1113 H 0.80434 0.65043 0.7673 0.0
C1114 C 0.79246 0.65947 0.70006 0.0
C1115 C 0.78678 0.66765 0.66478 0.0
C1116 C 0.79604 0.68213 0.71919 0.0
C1117 C 0.78376 0.69895 0.64922 0.0
C1118 C 0.78687 0.72162 0.66806 0.0
C1119 C 0.79807 0.73565 0.72153 0.0
C1120 C 0.80399 0.72768 0.75674 0.0
C1121 C 0.79367 0.7133 0.70284 0.0
C1122 C 0.8059 0.69682 0.77287 0.0
C1123 C 0.80248 0.6741 0.75417 0.0
H1124 H 0.48795 0.79451 0.74142 0.0
H1125 H 0.46897 0.78342 0.64039 0.0
H1126 H 0.41589 0.78719 0.66356 0.0
H1127 H 0.37462 0.79138 0.71414 0.0
H1128 H 0.39391 0.80709 0.81345 0.0
H1129 H 0.44593 0.80393 0.78959 0.0
C1130 C 0.47227 0.7929 0.72436 0.0
C1131 C 0.48312 0.78808 0.68906 0.0
C1132 C 0.4413 0.79589 0.73778 0.0
C1133 C 0.46174 0.78693 0.66753 0.0
C1134 C 0.43121 0.78901 0.68094 0.0
C1135 C 0.39008 0.79433 0.73056 0.0
C1136 C 0.37959 0.79934 0.76607 0.0
C1137 C 0.42063 0.79313 0.71626 0.0
C1138 C 0.40052 0.80332 0.78627 0.0
C1139 C 0.4307 0.80137 0.7726 0.0
H1140 H 0.34102 0.3787 0.63884 0.0
H1141 H 0.28649 0.47196 0.67217 0.0
H1142 H 0.27181 0.44632 0.7286 0.0
H1143 H 0.27478 0.39653 0.76926 0.0
H1144 H 0.32754 0.30381 0.7333 0.0
H1145 H 0.34256 0.32969 0.6779 0.0
C1146 C 0.32608 0.3934 0.65853 0.0
C1147 C 0.31503 0.42725 0.6512 0.0
C1148 C 0.31738 0.37843 0.69078 0.0
C1149 C 0.2952 0.44588 0.67694 0.0
C1150 C 0.28685 0.43118 0.70932 0.0
C1151 C 0.28952 0.38213 0.74923 0.0
C1152 C 0.30068 0.34816 0.75593 0.0
C1153 C 0.29776 0.39738 0.71666 0.0
C1154 C 0.31942 0.32989 0.72941 0.0
C1155 C 0.32785 0.34472 0.69746 0.0
H1156 H 0.55961 0.34349 0.59656 0.0
H1157 H 0.6134 0.24357 0.58297 0.0
H1158 H 0.65199 0.24438 0.61727 0.0
H1159 H 0.67061 0.27127 0.65344 0.0
H1160 H 0.62068 0.37145 0.6674 0.0
H1161 H 0.58105 0.37236 0.63157 0.0
C1162 C 0.57989 0.32207 0.60085 0.0
C1163 C 0.58285 0.29341 0.58715 0.0
C1164 C 0.60295 0.32243 0.62117 0.0
C1165 C 0.60964 0.26599 0.59325 0.0
C1166 C 0.63212 0.26627 0.61301 0.0
C1167 C 0.65146 0.29364 0.64829 0.0
C1168 C 0.64908 0.32123 0.66331 0.0
C1169 C 0.62896 0.29411 0.62742 0.0
C1170 C 0.62326 0.34957 0.65672 0.0
C1171 C 0.60056 0.35017 0.63594 0.0
H1172 H 0.81171 0.49496 0.56759 0.0
H1173 H 0.71709 0.55781 0.55812 0.0
H1174 H 0.70868 0.51809 0.52717 0.0
H1175 H 0.73115 0.4692 0.49558 0.0
H1176 H 0.82759 0.40998 0.50243 0.0
H1177 H 0.83222 0.44431 0.54216 0.0
C1178 C 0.78894 0.49962 0.5596 0.0
C1179 C 0.76501 0.52917 0.56505 0.0
C1180 C 0.78481 0.47744 0.54096 0.0
C1181 C 0.7357 0.53503 0.55454 0.0
C1182 C 0.7311 0.5125 0.53647 0.0
C1183 C 0.75307 0.46362 0.5061 0.0
C1184 C 0.77901 0.43698 0.49573 0.0
C1185 C 0.75591 0.4842 0.52834 0.0
C1186 C 0.80709 0.42987 0.51013 0.0
C1187 C 0.80989 0.44974 0.53267 0.0
H1188 H 0.68937 0.8388 0.49741 0.0
H1189 H 0.65781 0.76185 0.48555 0.0
H1190 H 0.69164 0.75244 0.43057 0.0
H1191 H 0.73032 0.76727 0.38459 0.0
H1192 H 0.75602 0.84798 0.39813 0.0
H1193 H 0.72342 0.85523 0.45257 0.0
C1194 C 0.68878 0.82032 0.48296 0.0
C1195 C 0.66989 0.80158 0.49636 0.0
C1196 C 0.70741 0.81583 0.45088 0.0
C1197 C 0.67163 0.7769 0.47666 0.0
C1198 C 0.691 0.77165 0.44485 0.0
C1199 C 0.72857 0.78665 0.39927 0.0
C1200 C 0.74612 0.80706 0.38643 0.0
C1201 C 0.70898 0.79116 0.4314 0.0
C1202 C 0.74325 0.8318 0.4065 0.0
C1203 C 0.7245 0.83598 0.43806 0.0
H1204 H 0.29256 0.6152 0.42075 0.0
H1205 H 0.36166 0.61106 0.48513 0.0
H1206 H 0.35874 0.66609 0.46053 0.0
H1207 H 0.33742 0.71539 0.41799 0.0
H1208 H 0.26472 0.71884 0.35823 0.0
H1209 H 0.26804 0.6652 0.38357 0.0
C1210 C 0.30687 0.62646 0.42944 0.0
C1211 C 0.32758 0.60888 0.45441 0.0
C1212 C 0.30442 0.65838 0.41583 0.0
C1213 C 0.34564 0.62401 0.46584 0.0
C1214 C 0.34396 0.65551 0.45167 0.0
C1215 C 0.32206 0.70459 0.41082 0.0
C1216 C 0.301 0.72182 0.38565 0.0
C1217 C 0.32356 0.67304 0.42627 0.0
C1218 C 0.28134 0.70687 0.37716 0.0
C1219 C 0.28319 0.67578 0.39166 0.0
H1220 H 0.40392 0.31837 0.49324 0.0
H1221 H 0.48216 0.29368 0.41631 0.0
H1222 H 0.44863 0.29331 0.37329 0.0
H1223 H 0.39711 0.29342 0.35948 0.0
H1224 H 0.31986 0.31851 0.43827 0.0
H1225 H 0.3522 0.32578 0.47744 0.0
C1226 C 0.41343 0.31434 0.46662 0.0
C1227 C 0.44555 0.30727 0.45794 0.0
C1228 C 0.39392 0.31369 0.44204 0.0
C1229 C 0.45745 0.3005 0.42358 0.0
C1230 C 0.43822 0.29978 0.39899 0.0
C1231 C 0.38715 0.30148 0.38474 0.0
C1232 C 0.3556 0.30556 0.39543 0.0
C1233 C 0.40637 0.3055 0.40805 0.0
C1234 C 0.34378 0.3152 0.42892 0.0
C1235 C 0.36239 0.31931 0.45166 0.0
H1236 H 0.65513 0.77856 0.70866 0.0
H1237 H 0.62204 0.87678 0.66095 0.0
H1238 H 0.65777 0.88966 0.69191 0.0
H1239 H 0.70213 0.87135 0.72882 0.0
H1240 H 0.73453 0.77275 0.77508 0.0
H1241 H 0.69551 0.76176 0.74903 0.0
C1242 C 0.65525 0.80301 0.70545 0.0
C1243 C 0.63565 0.82672 0.68251 0.0
C1244 C 0.67586 0.81016 0.72335 0.0
C1245 C 0.63639 0.85817 0.67872 0.0
C1246 C 0.65708 0.86544 0.69628 0.0
C1247 C 0.69983 0.84781 0.73421 0.0
C1248 C 0.72059 0.82327 0.75543 0.0
C1249 C 0.67732 0.8415 0.71831 0.0
C1250 C 0.71821 0.7925 0.76052 0.0
C1251 C 0.69604 0.78606 0.74503 0.0
H1252 H 0.63392 0.28915 0.47387 0.0
H1253 H 0.61966 0.24362 0.3909 0.0
H1254 H 0.66736 0.24587 0.35919 0.0
H1255 H 0.7135 0.26087 0.35331 0.0
H1256 H 0.72779 0.30925 0.43323 0.0
H1257 H 0.68031 0.30573 0.46712 0.0
C1258 C 0.64101 0.27979 0.44884 0.0
C1259 C 0.62255 0.26577 0.43561 0.0
C1260 C 0.66894 0.28154 0.42982 0.0
C1261 C 0.63287 0.25397 0.4028 0.0
C1262 C 0.66044 0.25536 0.3842 0.0
C1263 C 0.70652 0.2704 0.37832 0.0
C1264 C 0.72469 0.28501 0.39065 0.0
C1265 C 0.67876 0.26893 0.39739 0.0
C1266 C 0.71457 0.29772 0.42292 0.0
C1267 C 0.68726 0.29577 0.44237 0.0
H1268 H 0.78962 0.65382 0.44844 0.0
H1269 H 0.85458 0.65832 0.51404 0.0
H1270 H 0.87506 0.6895 0.46629 0.0
H1271 H 0.86957 0.72138 0.40873 0.0
H1272 H 0.8051 0.71642 0.34287 0.0
H1273 H 0.78913 0.67967 0.38777 0.0
C1274 C 0.80857 0.66127 0.4521 0.0
C1275 C 0.82036 0.65408 0.48495 0.0
C1276 C 0.82 0.67937 0.42458 0.0
C1277 C 0.84523 0.6634 0.4891 0.0
C1278 C 0.85672 0.68146 0.46186 0.0
C1279 C 0.85263 0.71151 0.40384 0.0
C1280 C 0.83849 0.7217 0.37244 0.0
C1281 C 0.84364 0.69038 0.42989 0.0
C1282 C 0.81657 0.70881 0.36648 0.0
C1283 C 0.80723 0.68798 0.3924 0.0
H1284 H 0.54559 0.78848 0.51108 0.0
H1285 H 0.48478 0.86482 0.57088 0.0
H1286 H 0.44071 0.86666 0.54161 0.0
H1287 H 0.41966 0.84492 0.50059 0.0
H1288 H 0.48199 0.76941 0.44021 0.0
H1289 H 0.5251 0.7676 0.46998 0.0
C1290 C 0.52273 0.80579 0.51761 0.0
C1291 C 0.51846 0.82664 0.543 0.0
C1292 C 0.49771 0.80617 0.50133 0.0
C1293 C 0.48875 0.8489 0.55104 0.0
C1294 C 0.46354 0.84961 0.53464 0.0
C1295 C 0.44269 0.82826 0.49358 0.0
C1296 C 0.44734 0.80742 0.46788 0.0
C1297 C 0.46776 0.82811 0.50997 0.0
C1298 C 0.47735 0.7854 0.46012 0.0
C1299 C 0.50221 0.78466 0.47678 0.0
H1300 H 0.32492 0.44018 0.44994 0.0
H1301 H 0.23121 0.47122 0.49835 0.0
H1302 H 0.21774 0.43922 0.461 0.0
H1303 H 0.23451 0.40015 0.41479 0.0
H1304 H 0.32938 0.37377 0.36831 0.0
H1305 H 0.34055 0.4051 0.40562 0.0
C1306 C 0.30141 0.44009 0.45259 0.0
C1307 C 0.2792 0.4578 0.47704 0.0
C1308 C 0.29415 0.42196 0.4315 0.0
C1309 C 0.24876 0.45782 0.47951 0.0
C1310 C 0.24118 0.43932 0.45834 0.0
C1311 C 0.25743 0.4016 0.41285 0.0
C1312 C 0.28089 0.38474 0.3883 0.0
C1313 C 0.2639 0.42092 0.43427 0.0
C1314 C 0.31057 0.3868 0.38626 0.0
C1315 C 0.3172 0.40472 0.40774 0.0
H1316 H 0.45832 0.28552 0.65949 0.0
H1317 H 0.44228 0.20727 0.62326 0.0
H1318 H 0.40703 0.20388 0.67522 0.0
H1319 H 0.38058 0.22273 0.73204 0.0
H1320 H 0.39917 0.29902 0.76956 0.0
H1321 H 0.43275 0.30361 0.71679 0.0
C1322 C 0.44696 0.26788 0.66287 0.0
C1323 C 0.45321 0.24662 0.63723 0.0
C1324 C 0.42707 0.26547 0.69354 0.0
C1325 C 0.43832 0.22374 0.6425 0.0
C1326 C 0.41802 0.2218 0.67232 0.0
C1327 C 0.39237 0.23998 0.72896 0.0
C1328 C 0.3876 0.25989 0.7556 0.0
C1329 C 0.41236 0.2423 0.69832 0.0
C1330 C 0.40281 0.28257 0.75037 0.0
C1331 C 0.42194 0.28552 0.71981 0.0
H1332 H 0.7998 0.49824 0.71815 0.0
H1333 H 0.87252 0.4516 0.64221 0.0
H1334 H 0.87311 0.39833 0.67026 0.0
H1335 H 0.8535 0.3648 0.7179 0.0
H1336 H 0.7773 0.41223 0.79021 0.0
H1337 H 0.77746 0.46505 0.76279 0.0
C1338 C 0.8158 0.4763 0.70801 0.0
C1339 C 0.83663 0.47857 0.67871 0.0
C1340 C 0.81546 0.44587 0.72391 0.0
C1341 C 0.85674 0.45018 0.6651 0.0
C1342 C 0.85701 0.41982 0.68114 0.0
C1343 C 0.8371 0.38676 0.72761 0.0
C1344 C 0.81583 0.38465 0.75656 0.0
C1345 C 0.83669 0.41727 0.71083 0.0
C1346 C 0.79415 0.41327 0.76834 0.0
C1347 C 0.79419 0.44351 0.75259 0.0
H1348 H 0.2944 0.60992 0.56343 0.0
H1349 H 0.30396 0.54042 0.65423 0.0
H1350 H 0.3167 0.57577 0.68682 0.0
H1351 H 0.32688 0.62515 0.68818 0.0
H1352 H 0.32377 0.69155 0.595 0.0
H1353 H 0.30872 0.65727 0.5634 0.0
C1354 C 0.29863 0.60287 0.59051 0.0
C1355 C 0.2974 0.57325 0.6069 0.0
C1356 C 0.30846 0.62192 0.60791 0.0
C1357 C 0.30352 0.56392 0.64178 0.0
C1358 C 0.31162 0.58364 0.66 0.0
C1359 C 0.32397 0.63168 0.66066 0.0
C1360 C 0.32633 0.66087 0.64393 0.0
C1361 C 0.31489 0.61228 0.64299 0.0
C1362 C 0.32198 0.66916 0.60839 0.0
C1363 C 0.31293 0.6499 0.59052 0.0
loop_
_geom_bond_atom_site_label_1
_geom_bond_atom_site_label_2
_geom_bond_distance
_geom_bond_site_symmetry_2
_ccdc_geom_bond_type
Cu0 N1 1.999 . S
Cu0 O6 1.974 1_545 S
Cu0 N11 1.985 1_545 S
Cu0 O20 1.959 1_455 S
N1 Cu0 1.999 . S
N1 C3 1.263 . S
N1 C5 1.389 . S
N2 C3 1.358 . S
N2 C4 1.400 . S
C3 N1 1.263 . S
C3 N2 1.358 . S
C3 H9 0.930 . S
C4 N2 1.400 . S
C4 C5 1.351 . S
C4 H21 0.930 . S
C5 N1 1.389 . S
C5 C4 1.351 . S
C5 H10 0.930 . S
O6 Cu0 1.974 1_565 S
O6 C16 1.282 . S
C7 O8 1.261 1_655 S
C7 O20 1.251 . S
O8 C7 1.261 1_455 S
H9 C3 0.930 . S
H10 C5 0.930 . S
N11 Cu0 1.985 1_565 S
N11 C13 1.335 1_455 S
N11 C14 1.390 . S
N12 C13 1.345 . S
N12 C15 1.336 1_655 S
C13 N11 1.335 1_655 S
C13 N12 1.345 . S
C13 H18 0.930 1_565 S
C14 N11 1.390 . S
C14 C15 1.346 . S
C14 H19 0.930 . S
C15 N12 1.336 1_455 S
C15 C14 1.346 . S
C15 H22 0.929 . S
C16 O6 1.282 . S
C16 O17 1.216 . S
O17 C16 1.216 . S
H18 C13 0.930 1_545 S
H19 C14 0.930 . S
O20 Cu0 1.959 1_655 S
O20 C7 1.251 . S
H21 C4 0.930 . S
H22 C15 0.929 . S
Cu23 N24 1.999 . S
Cu23 O29 1.974 1_455 S
Cu23 N34 1.985 . S
Cu23 O43 1.959 . S
N24 Cu23 1.999 . S
N24 C26 1.263 1_455 S
N24 C28 1.389 1_545 S
N25 C26 1.358 . S
N25 C27 1.400 1_545 S
C26 N24 1.263 1_655 S
C26 N25 1.358 . S
C26 H32 0.930 . S
C27 N25 1.400 1_565 S
C27 C28 1.351 1_655 S
C27 H44 0.930 . S
C28 N24 1.389 1_565 S
C28 C27 1.351 1_455 S
C28 H33 0.930 . S
O29 Cu23 1.974 1_655 S
O29 C39 1.282 . S
C30 O31 1.261 . S
C30 O43 1.251 . S
O31 C30 1.261 . S
H32 C26 0.930 . S
H33 C28 0.930 . S
N34 Cu23 1.985 . S
N34 C36 1.335 . S
N34 C37 1.390 . S
N35 C36 1.345 . S
N35 C38 1.336 . S
C36 N34 1.335 . S
C36 N35 1.345 . S
C36 H41 0.930 . S
C37 N34 1.390 . S
C37 C38 1.346 . S
C37 H42 0.930 . S
C38 N35 1.336 . S
C38 C37 1.346 . S
C38 H45 0.929 . S
C39 O29 1.282 . S
C39 O40 1.216 . S
O40 C39 1.216 . S
H41 C36 0.930 . S
H42 C37 0.930 . S
O43 Cu23 1.959 . S
O43 C30 1.251 . S
H44 C27 0.930 . S
H45 C38 0.929 . S
Cu46 N47 1.999 . S
Cu46 O52 1.974 . S
Cu46 N57 1.985 . S
Cu46 O66 1.959 . S
N47 Cu46 1.999 . S
N47 C49 1.263 . S
N47 C51 1.389 . S
N48 C49 1.358 . S
N48 C50 1.400 . S
C49 N47 1.263 . S
C49 N48 1.358 . S
C49 H55 0.930 . S
C50 N48 1.400 . S
C50 C51 1.351 . S
C50 H67 0.930 1_554 S
C51 N47 1.389 . S
C51 C50 1.351 . S
C51 H56 0.930 . S
O52 Cu46 1.974 . S
O52 C62 1.282 . S
C53 O54 1.261 . S
C53 O66 1.251 . S
O54 C53 1.261 . S
H55 C49 0.930 . S
H56 C51 0.930 . S
N57 Cu46 1.985 . S
N57 C59 1.335 . S
N57 C60 1.390 . S
N58 C59 1.345 . S
N58 C61 1.336 . S
C59 N57 1.335 . S
C59 N58 1.345 . S
C59 H64 0.930 . S
C60 N57 1.390 . S
C60 C61 1.346 . S
C60 H65 0.930 . S
C61 N58 1.336 . S
C61 C60 1.346 . S
C61 H68 0.929 . S
C62 O52 1.282 . S
C62 O63 1.216 . S
O63 C62 1.216 . S
H64 C59 0.930 . S
H65 C60 0.930 . S
O66 Cu46 1.959 . S
O66 C53 1.251 . S
H67 C50 0.930 1_556 S
H68 C61 0.929 . S
Cu69 N70 1.999 . S
Cu69 O75 1.974 . S
Cu69 N80 1.985 . S
Cu69 O89 1.959 . S
N70 Cu69 1.999 . S
N70 C72 1.263 . S
N70 C74 1.389 . S
N71 C72 1.358 . S
N71 C73 1.400 1_554 S
C72 N70 1.263 . S
C72 N71 1.358 . S
C72 H78 0.930 . S
C73 N71 1.400 1_556 S
C73 C74 1.351 1_556 S
C73 H90 0.930 . S
C74 N70 1.389 . S
C74 C73 1.351 1_554 S
C74 H79 0.925 1_554 S
O75 Cu69 1.974 . S
O75 C85 1.282 . S
C76 O77 1.261 . S
C76 O89 1.251 . S
O77 C76 1.261 . S
H78 C72 0.930 . S
H79 C74 0.925 1_556 S
N80 Cu69 1.985 . S
N80 C82 1.335 1_455 S
N80 C83 1.390 . S
N81 C82 1.345 . S
N81 C84 1.336 1_655 S
C82 N80 1.335 1_655 S
C82 N81 1.345 . S
C82 H87 0.930 . S
C83 N80 1.390 . S
C83 C84 1.346 . S
C83 H88 0.930 . S
C84 N81 1.336 1_455 S
C84 C83 1.346 . S
C84 H91 0.929 . S
C85 O75 1.282 . S
C85 O86 1.216 . S
O86 C85 1.216 . S
H87 C82 0.930 . S
H88 C83 0.930 . S
O89 Cu69 1.959 . S
O89 C76 1.251 . S
H90 C73 0.930 . S
H91 C84 0.929 . S
Cu92 N93 1.999 1_554 S
Cu92 O98 1.974 . S
Cu92 N103 1.985 1_545 S
Cu92 O112 1.959 1_544 S
N93 Cu92 1.999 1_556 S
N93 C95 1.263 . S
N93 C97 1.389 . S
N94 C95 1.358 . S
N94 C96 1.400 . S
C95 N93 1.263 . S
C95 N94 1.358 . S
C95 H101 0.930 . S
C96 N94 1.400 . S
C96 C97 1.351 . S
C96 H113 0.930 . S
C97 N93 1.389 . S
C97 C96 1.351 . S
C97 H102 0.930 . S
O98 Cu92 1.974 . S
O98 C108 1.282 . S
C99 O100 1.261 . S
C99 O112 1.251 . S
O100 C99 1.261 . S
H101 C95 0.930 . S
H102 C97 0.930 . S
N103 Cu92 1.985 1_565 S
N103 C105 1.335 . S
N103 C106 1.390 . S
N104 C105 1.345 . S
N104 C107 1.336 . S
C105 N103 1.335 . S
C105 N104 1.345 . S
C105 H110 0.930 . S
C106 N103 1.390 . S
C106 C107 1.346 . S
C106 H111 0.930 . S
C107 N104 1.336 . S
C107 C106 1.346 . S
C107 H114 0.929 . S
C108 O98 1.282 . S
C108 O109 1.216 . S
O109 C108 1.216 . S
H110 C105 0.930 . S
H111 C106 0.930 . S
O112 Cu92 1.959 1_566 S
O112 C99 1.251 . S
H113 C96 0.930 . S
H114 C107 0.929 . S
Cu115 N116 1.999 1_454 S
Cu115 O121 1.974 1_455 S
Cu115 N126 1.985 . S
Cu115 O135 1.959 1_554 S
N116 Cu115 1.999 1_656 S
N116 C118 1.263 . S
N116 C120 1.389 . S
N117 C118 1.358 . S
N117 C119 1.400 . S
C118 N116 1.263 . S
C118 N117 1.358 . S
C118 H124 0.930 . S
C119 N117 1.400 . S
C119 C120 1.351 . S
C119 H136 0.930 . S
C120 N116 1.389 . S
C120 C119 1.351 . S
C120 H125 0.930 1_655 S
O121 Cu115 1.974 1_655 S
O121 C131 1.282 . S
C122 O123 1.261 . S
C122 O135 1.251 . S
O123 C122 1.261 . S
H124 C118 0.930 . S
H125 C120 0.930 1_455 S
N126 Cu115 1.985 . S
N126 C128 1.335 . S
N126 C129 1.390 . S
N127 C128 1.345 . S
N127 C130 1.336 . S
C128 N126 1.335 . S
C128 N127 1.345 . S
C128 H133 0.930 . S
C129 N126 1.390 . S
C129 C130 1.346 . S
C129 H134 0.932 . S
C130 N127 1.336 . S
C130 C129 1.346 . S
C130 H137 0.929 . S
C131 O121 1.282 . S
C131 O132 1.216 . S
O132 C131 1.216 . S
H133 C128 0.930 . S
H134 C129 0.932 . S
O135 Cu115 1.959 1_556 S
O135 C122 1.251 . S
H136 C119 0.930 . S
H137 C130 0.929 . S
Cu138 N139 1.999 . S
Cu138 O144 1.974 . S
Cu138 N149 1.985 . S
Cu138 O158 1.959 . S
N139 Cu138 1.999 . S
N139 C141 1.263 . S
N139 C143 1.389 . S
N140 C141 1.358 . S
N140 C142 1.400 . S
C141 N139 1.263 . S
C141 N140 1.358 . S
C141 H147 0.930 . S
C142 N140 1.400 . S
C142 C143 1.351 . S
C142 H159 0.930 . S
C143 N139 1.389 . S
C143 C142 1.351 . S
C143 H148 0.930 . S
O144 Cu138 1.974 . S
O144 C154 1.282 . S
C145 O146 1.261 . S
C145 O158 1.251 . S
O146 C145 1.261 . S
H147 C141 0.930 . S
H148 C143 0.930 . S
N149 Cu138 1.985 . S
N149 C151 1.335 . S
N149 C152 1.390 . S
N150 C151 1.345 . S
N150 C153 1.336 . S
C151 N149 1.335 . S
C151 N150 1.345 . S
C151 H156 0.930 . S
C152 N149 1.390 . S
C152 C153 1.346 . S
C152 H157 0.930 . S
C153 N150 1.336 . S
C153 C152 1.346 . S
C153 H160 0.929 . S
C154 O144 1.282 . S
C154 O155 1.216 . S
O155 C154 1.216 . S
H156 C151 0.930 . S
H157 C152 0.930 . S
O158 Cu138 1.959 . S
O158 C145 1.251 . S
H159 C142 0.930 . S
H160 C153 0.929 . S
Cu161 N162 1.999 . S
Cu161 O167 1.974 . S
Cu161 N172 1.985 . S
Cu161 O181 1.959 . S
N162 Cu161 1.999 . S
N162 C164 1.263 . S
N162 C166 1.389 . S
N163 C164 1.358 . S
N163 C165 1.400 . S
C164 N162 1.263 . S
C164 N163 1.358 . S
C164 H170 0.930 . S
C165 N163 1.400 . S
C165 C166 1.351 . S
C165 H182 0.930 . S
C166 N162 1.389 . S
C166 C165 1.351 . S
C166 H171 0.930 . S
O167 Cu161 1.974 . S
O167 C177 1.282 . S
C168 O169 1.261 . S
C168 O181 1.251 . S
O169 C168 1.261 . S
H170 C164 0.930 . S
H171 C166 0.930 . S
N172 Cu161 1.985 . S
N172 C174 1.335 . S
N172 C175 1.390 . S
N173 C174 1.345 . S
N173 C176 1.336 . S
C174 N172 1.335 . S
C174 N173 1.345 . S
C174 H179 0.930 . S
C175 N172 1.390 . S
C175 C176 1.346 . S
C175 H180 0.930 . S
C176 N173 1.336 . S
C176 C175 1.346 . S
C176 H183 0.929 . S
C177 O167 1.282 . S
C177 O178 1.216 . S
O178 C177 1.216 . S
H179 C174 0.930 . S
H180 C175 0.930 . S
O181 Cu161 1.959 . S
O181 C168 1.251 . S
H182 C165 0.930 . S
H183 C176 0.929 . S
Cu184 N185 1.999 . S
Cu184 O190 1.974 . S
Cu184 N195 1.985 . S
Cu184 O204 1.959 . S
N185 Cu184 1.999 . S
N185 C187 1.263 . S
N185 C189 1.389 . S
N186 C187 1.358 . S
N186 C188 1.400 . S
C187 N185 1.263 . S
C187 N186 1.358 . S
C187 H193 0.930 . S
C188 N186 1.400 . S
C188 C189 1.351 . S
C188 H205 0.930 . S
C189 N185 1.389 . S
C189 C188 1.351 . S
C189 H194 0.930 . S
O190 Cu184 1.974 . S
O190 C200 1.282 . S
C191 O192 1.261 . S
C191 O204 1.251 . S
O192 C191 1.261 . S
H193 C187 0.930 . S
H194 C189 0.930 . S
N195 Cu184 1.985 . S
N195 C197 1.335 . S
N195 C198 1.390 . S
N196 C197 1.345 . S
N196 C199 1.336 . S
C197 N195 1.335 . S
C197 N196 1.345 . S
C197 H202 0.930 . S
C198 N195 1.390 . S
C198 C199 1.346 . S
C198 H203 0.930 . S
C199 N196 1.336 . S
C199 C198 1.346 . S
C199 H206 0.929 . S
C200 O190 1.282 . S
C200 O201 1.216 . S
O201 C200 1.216 . S
H202 C197 0.930 . S
H203 C198 0.930 . S
O204 Cu184 1.959 . S
O204 C191 1.251 . S
H205 C188 0.930 . S
H206 C199 0.929 . S
Cu207 N208 1.999 . S
Cu207 O213 1.974 . S
Cu207 N218 1.985 . S
Cu207 O227 1.959 . S
N208 Cu207 1.999 . S
N208 C210 1.263 . S
N208 C212 1.389 . S
N209 C210 1.358 . S
N209 C211 1.400 . S
C210 N208 1.263 . S
C210 N209 1.358 . S
C210 H216 0.930 . S
C211 N209 1.400 . S
C211 C212 1.351 . S
C211 H228 0.930 . S
C212 N208 1.389 . S
C212 C211 1.351 . S
C212 H217 0.930 . S
O213 Cu207 1.974 . S
O213 C223 1.282 . S
C214 O215 1.261 . S
C214 O227 1.251 . S
O215 C214 1.261 . S
H216 C210 0.930 . S
H217 C212 0.930 . S
N218 Cu207 1.985 . S
N218 C220 1.335 . S
N218 C221 1.390 . S
N219 C220 1.345 . S
N219 C222 1.336 . S
C220 N218 1.335 . S
C220 N219 1.345 . S
C220 H225 0.930 . S
C221 N218 1.390 . S
C221 C222 1.346 . S
C221 H226 0.930 . S
C222 N219 1.336 . S
C222 C221 1.346 . S
C222 H229 0.929 . S
C223 O213 1.282 . S
C223 O224 1.216 . S
O224 C223 1.216 . S
H225 C220 0.930 . S
H226 C221 0.930 . S
O227 Cu207 1.959 . S
O227 C214 1.251 . S
H228 C211 0.930 . S
H229 C222 0.929 . S
Cu230 N231 1.999 . S
Cu230 O236 1.974 . S
Cu230 N241 1.985 . S
Cu230 O250 1.959 . S
N231 Cu230 1.999 . S
N231 C233 1.263 . S
N231 C235 1.389 . S
N232 C233 1.358 . S
N232 C234 1.400 . S
C233 N231 1.263 . S
C233 N232 1.358 . S
C233 H239 0.930 . S
C234 N232 1.400 . S
C234 C235 1.351 . S
C234 H251 0.930 . S
C235 N231 1.389 . S
C235 C234 1.351 . S
C235 H240 0.930 . S
O236 Cu230 1.974 . S
O236 C246 1.282 . S
C237 O238 1.261 . S
C237 O250 1.251 . S
O238 C237 1.261 . S
H239 C233 0.930 . S
H240 C235 0.930 . S
N241 Cu230 1.985 . S
N241 C243 1.335 . S
N241 C244 1.390 . S
N242 C243 1.345 . S
N242 C245 1.336 . S
C243 N241 1.335 . S
C243 N242 1.345 . S
C243 H248 0.930 . S
C244 N241 1.390 . S
C244 C245 1.346 . S
C244 H249 0.930 . S
C245 N242 1.336 . S
C245 C244 1.346 . S
C245 H252 0.929 . S
C246 O236 1.282 . S
C246 O247 1.216 . S
O247 C246 1.216 . S
H248 C243 0.930 . S
H249 C244 0.930 . S
O250 Cu230 1.959 . S
O250 C237 1.251 . S
H251 C234 0.930 . S
H252 C245 0.929 . S
Cu253 N254 1.999 . S
Cu253 O259 1.974 . S
Cu253 N264 1.985 . S
Cu253 O273 1.959 . S
N254 Cu253 1.999 . S
N254 C256 1.263 . S
N254 C258 1.389 . S
N255 C256 1.358 . S
N255 C257 1.400 . S
C256 N254 1.263 . S
C256 N255 1.358 . S
C256 H262 0.930 . S
C257 N255 1.400 . S
C257 C258 1.351 . S
C257 H274 0.930 . S
C258 N254 1.389 . S
C258 C257 1.351 . S
C258 H263 0.930 . S
O259 Cu253 1.974 . S
O259 C269 1.282 . S
C260 O261 1.261 . S
C260 O273 1.251 . S
O261 C260 1.261 . S
H262 C256 0.930 . S
H263 C258 0.930 . S
N264 Cu253 1.985 . S
N264 C266 1.335 . S
N264 C267 1.390 . S
N265 C266 1.345 . S
N265 C268 1.336 . S
C266 N264 1.335 . S
C266 N265 1.345 . S
C266 H271 0.930 . S
C267 N264 1.390 . S
C267 C268 1.346 . S
C267 H272 0.930 . S
C268 N265 1.336 . S
C268 C267 1.346 . S
C268 H275 0.929 . S
C269 O259 1.282 . S
C269 O270 1.216 . S
O270 C269 1.216 . S
H271 C266 0.930 . S
H272 C267 0.930 . S
O273 Cu253 1.959 . S
O273 C260 1.251 . S
H274 C257 0.930 . S
H275 C268 0.929 . S
La276 C278 2.928 . S
La276 O296 2.521 . S
La276 O297 2.628 . S
La276 O298 2.554 . S
La276 O299 2.757 . S
La276 O300 2.470 . S
La276 O305 2.482 . S
La276 O307 2.503 . S
La277 C287 2.928 . S
La277 O299 2.482 . S
La277 O301 2.503 . S
La277 O302 2.521 . S
La277 O303 2.628 . S
La277 O304 2.554 . S
La277 O305 2.757 . S
La277 O306 2.470 . S
C278 La276 2.928 . S
C278 C279 1.503 . S
C278 O296 1.261 . S
C278 O297 1.243 . S
C279 C278 1.503 . S
C279 C280 1.394 . S
C279 C284 1.373 . S
C280 C279 1.394 . S
C280 C281 1.380 . S
C280 H308 0.930 . S
C281 C280 1.380 . S
C281 C282 1.376 . S
C281 H309 0.930 . S
C282 C281 1.376 . S
C282 C283 1.370 . S
C283 C282 1.370 . S
C283 C284 1.396 . S
C283 H310 0.929 . S
C284 C279 1.373 . S
C284 C283 1.396 . S
C284 H311 0.929 . S
C285 O298 1.240 . S
C285 O299 1.289 . S
C286 O300 1.258 . S
C286 O301 1.256 . S
C287 La277 2.928 . S
C287 C288 1.503 . S
C287 O302 1.261 . S
C287 O303 1.243 . S
C288 C287 1.503 . S
C288 C289 1.394 . S
C288 C293 1.373 . S
C289 C288 1.394 . S
C289 C290 1.380 . S
C289 H312 0.930 . S
C290 C289 1.380 . S
C290 C291 1.376 . S
C290 H313 0.930 . S
C291 C290 1.376 . S
C291 C292 1.370 . S
C292 C291 1.370 . S
C292 C293 1.396 . S
C292 H314 0.929 . S
C293 C288 1.373 . S
C293 C292 1.396 . S
C293 H315 0.929 . S
C294 O304 1.240 . S
C294 O305 1.289 . S
C295 O306 1.258 . S
C295 O307 1.256 . S
O296 La276 2.521 . S
O296 C278 1.261 . S
O297 La276 2.628 . S
O297 C278 1.243 . S
O298 La276 2.554 . S
O298 C285 1.240 . S
O299 La276 2.757 . S
O299 La277 2.482 . S
O299 C285 1.289 . S
O300 La276 2.470 . S
O300 C286 1.258 . S
O301 La277 2.503 . S
O301 C286 1.256 . S
O302 La277 2.521 . S
O302 C287 1.261 . S
O303 La277 2.628 . S
O303 C287 1.243 . S
O304 La277 2.554 . S
O304 C294 1.240 . S
O305 La276 2.482 . S
O305 La277 2.757 . S
O305 C294 1.289 . S
O306 La277 2.470 . S
O306 C295 1.258 . S
O307 La276 2.503 . S
O307 C295 1.256 . S
H308 C280 0.930 . S
H309 C281 0.930 . S
H310 C283 0.929 . S
H311 C284 0.929 . S
H312 C289 0.930 . S
H313 C290 0.930 . S
H314 C292 0.929 . S
H315 C293 0.929 . S
La316 C318 2.928 . S
La316 O336 2.521 . S
La316 O337 2.628 . S
La316 O338 2.554 . S
La316 O339 2.757 . S
La316 O340 2.470 . S
La316 O345 2.482 . S
La316 O347 2.503 . S
La317 C327 2.928 . S
La317 O339 2.482 . S
La317 O341 2.503 . S
La317 O342 2.521 . S
La317 O343 2.628 . S
La317 O344 2.554 . S
La317 O345 2.757 . S
La317 O346 2.470 . S
C318 La316 2.928 . S
C318 C319 1.503 . S
C318 O336 1.261 . S
C318 O337 1.243 . S
C319 C318 1.503 . S
C319 C320 1.394 . S
C319 C324 1.373 . S
C320 C319 1.394 . S
C320 C321 1.380 . S
C320 H348 0.930 . S
C321 C320 1.380 . S
C321 C322 1.376 . S
C321 H349 0.930 . S
C322 C321 1.376 . S
C322 C323 1.370 . S
C323 C322 1.370 . S
C323 C324 1.396 . S
C323 H350 0.929 . S
C324 C319 1.373 . S
C324 C323 1.396 . S
C324 H351 0.929 . S
C325 O338 1.240 . S
C325 O339 1.289 . S
C326 O340 1.258 . S
C326 O341 1.256 . S
C327 La317 2.928 . S
C327 C328 1.503 . S
C327 O342 1.261 . S
C327 O343 1.243 . S
C328 C327 1.503 . S
C328 C329 1.394 . S
C328 C333 1.373 . S
C329 C328 1.394 . S
C329 C330 1.380 . S
C329 H352 0.930 . S
C330 C329 1.380 . S
C330 C331 1.376 . S
C330 H353 0.930 . S
C331 C330 1.376 . S
C331 C332 1.370 . S
C332 C331 1.370 . S
C332 C333 1.396 . S
C332 H354 0.929 . S
C333 C328 1.373 . S
C333 C332 1.396 . S
C333 H355 0.929 . S
C334 O344 1.240 . S
C334 O345 1.289 . S
C335 O346 1.258 . S
C335 O347 1.256 . S
O336 La316 2.521 . S
O336 C318 1.261 . S
O337 La316 2.628 . S
O337 C318 1.243 . S
O338 La316 2.554 . S
O338 C325 1.240 . S
O339 La316 2.757 . S
O339 La317 2.482 . S
O339 C325 1.289 . S
O340 La316 2.470 . S
O340 C326 1.258 . S
O341 La317 2.503 . S
O341 C326 1.256 . S
O342 La317 2.521 . S
O342 C327 1.261 . S
O343 La317 2.628 . S
O343 C327 1.243 . S
O344 La317 2.554 . S
O344 C334 1.240 . S
O345 La316 2.482 . S
O345 La317 2.757 . S
O345 C334 1.289 . S
O346 La317 2.470 . S
O346 C335 1.258 . S
O347 La316 2.503 . S
O347 C335 1.256 . S
H348 C320 0.930 . S
H349 C321 0.930 . S
H350 C323 0.929 . S
H351 C324 0.929 . S
H352 C329 0.930 . S
H353 C330 0.930 . S
H354 C332 0.929 . S
H355 C333 0.929 . S
La356 C358 2.928 . S
La356 O376 2.521 . S
La356 O377 2.628 . S
La356 O378 2.554 . S
La356 O379 2.757 . S
La356 O380 2.470 . S
La356 O385 2.482 . S
La356 O387 2.503 . S
La357 C367 2.928 . S
La357 O379 2.482 . S
La357 O381 2.503 . S
La357 O382 2.521 . S
La357 O383 2.628 . S
La357 O384 2.554 . S
La357 O385 2.757 . S
La357 O386 2.470 . S
C358 La356 2.928 . S
C358 C359 1.503 . S
C358 O376 1.261 . S
C358 O377 1.243 . S
C359 C358 1.503 . S
C359 C360 1.394 . S
C359 C364 1.373 . S
C360 C359 1.394 . S
C360 C361 1.380 . S
C360 H388 0.930 . S
C361 C360 1.380 . S
C361 C362 1.376 . S
C361 H389 0.930 . S
C362 C361 1.376 . S
C362 C363 1.370 . S
C363 C362 1.370 . S
C363 C364 1.396 . S
C363 H390 0.929 . S
C364 C359 1.373 . S
C364 C363 1.396 . S
C364 H391 0.929 . S
C365 O378 1.240 . S
C365 O379 1.289 . S
C366 O380 1.258 . S
C366 O381 1.256 . S
C367 La357 2.928 . S
C367 C368 1.503 . S
C367 O382 1.261 . S
C367 O383 1.243 . S
C368 C367 1.503 . S
C368 C369 1.394 . S
C368 C373 1.373 . S
C369 C368 1.394 . S
C369 C370 1.380 . S
C369 H392 0.930 . S
C370 C369 1.380 . S
C370 C371 1.376 . S
C370 H393 0.930 . S
C371 C370 1.376 . S
C371 C372 1.370 . S
C372 C371 1.370 . S
C372 C373 1.396 . S
C372 H394 0.929 . S
C373 C368 1.373 . S
C373 C372 1.396 . S
C373 H395 0.929 . S
C374 O384 1.240 . S
C374 O385 1.289 . S
C375 O386 1.258 . S
C375 O387 1.256 . S
O376 La356 2.521 . S
O376 C358 1.261 . S
O377 La356 2.628 . S
O377 C358 1.243 . S
O378 La356 2.554 . S
O378 C365 1.240 . S
O379 La356 2.757 . S
O379 La357 2.482 . S
O379 C365 1.289 . S
O380 La356 2.470 . S
O380 C366 1.258 . S
O381 La357 2.503 . S
O381 C366 1.256 . S
O382 La357 2.521 . S
O382 C367 1.261 . S
O383 La357 2.628 . S
O383 C367 1.243 . S
O384 La357 2.554 . S
O384 C374 1.240 . S
O385 La356 2.482 . S
O385 La357 2.757 . S
O385 C374 1.289 . S
O386 La357 2.470 . S
O386 C375 1.258 . S
O387 La356 2.503 . S
O387 C375 1.256 . S
H388 C360 0.930 . S
H389 C361 0.930 . S
H390 C363 0.929 . S
H391 C364 0.929 . S
H392 C369 0.930 . S
H393 C370 0.930 . S
H394 C372 0.929 . S
H395 C373 0.929 . S
La396 C398 2.928 . S
La396 O416 2.521 . S
La396 O417 2.628 . S
La396 O418 2.554 . S
La396 O419 2.757 . S
La396 O420 2.470 . S
La396 O425 2.482 . S
La396 O427 2.503 . S
La397 C407 2.928 . S
La397 O419 2.482 . S
La397 O421 2.503 . S
La397 O422 2.521 . S
La397 O423 2.628 . S
La397 O424 2.554 . S
La397 O425 2.757 . S
La397 O426 2.470 . S
C398 La396 2.928 . S
C398 C399 1.503 . S
C398 O416 1.261 . S
C398 O417 1.243 . S
C399 C398 1.503 . S
C399 C400 1.394 . S
C399 C404 1.373 . S
C400 C399 1.394 . S
C400 C401 1.380 . S
C400 H428 0.930 . S
C401 C400 1.380 . S
C401 C402 1.376 . S
C401 H429 0.930 . S
C402 C401 1.376 . S
C402 C403 1.370 . S
C403 C402 1.370 . S
C403 C404 1.396 . S
C403 H430 0.929 . S
C404 C399 1.373 . S
C404 C403 1.396 . S
C404 H431 0.929 . S
C405 O418 1.240 . S
C405 O419 1.289 . S
C406 O420 1.258 . S
C406 O421 1.256 . S
C407 La397 2.928 . S
C407 C408 1.503 . S
C407 O422 1.261 . S
C407 O423 1.243 . S
C408 C407 1.503 . S
C408 C409 1.394 . S
C408 C413 1.373 . S
C409 C408 1.394 . S
C409 C410 1.380 . S
C409 H432 0.930 . S
C410 C409 1.380 . S
C410 C411 1.376 . S
C410 H433 0.930 . S
C411 C410 1.376 . S
C411 C412 1.370 . S
C412 C411 1.370 . S
C412 C413 1.396 . S
C412 H434 0.929 . S
C413 C408 1.373 . S
C413 C412 1.396 . S
C413 H435 0.929 . S
C414 O424 1.240 . S
C414 O425 1.289 . S
C415 O426 1.258 . S
C415 O427 1.256 . S
O416 La396 2.521 . S
O416 C398 1.261 . S
O417 La396 2.628 . S
O417 C398 1.243 . S
O418 La396 2.554 . S
O418 C405 1.240 . S
O419 La396 2.757 . S
O419 La397 2.482 . S
O419 C405 1.289 . S
O420 La396 2.470 . S
O420 C406 1.258 . S
O421 La397 2.503 . S
O421 C406 1.256 . S
O422 La397 2.521 . S
O422 C407 1.261 . S
O423 La397 2.628 . S
O423 C407 1.243 . S
O424 La397 2.554 . S
O424 C414 1.240 . S
O425 La396 2.482 . S
O425 La397 2.757 . S
O425 C414 1.289 . S
O426 La397 2.470 . S
O426 C415 1.258 . S
O427 La396 2.503 . S
O427 C415 1.256 . S
H428 C400 0.930 . S
H429 C401 0.930 . S
H430 C403 0.929 . S
H431 C404 0.929 . S
H432 C409 0.930 . S
H433 C410 0.930 . S
H434 C412 0.929 . S
H435 C413 0.929 . S
La436 C438 2.928 . S
La436 O456 2.521 . S
La436 O457 2.628 . S
La436 O458 2.554 . S
La436 O459 2.757 . S
La436 O460 2.470 . S
La436 O465 2.482 . S
La436 O467 2.503 . S
La437 C447 2.928 . S
La437 O459 2.482 . S
La437 O461 2.503 . S
La437 O462 2.521 . S
La437 O463 2.628 . S
La437 O464 2.554 . S
La437 O465 2.757 . S
La437 O466 2.470 . S
C438 La436 2.928 . S
C438 C439 1.503 . S
C438 O456 1.261 . S
C438 O457 1.243 . S
C439 C438 1.503 . S
C439 C440 1.394 . S
C439 C444 1.373 . S
C440 C439 1.394 . S
C440 C441 1.380 . S
C440 H468 0.930 . S
C441 C440 1.380 . S
C441 C442 1.376 . S
C441 H469 0.930 . S
C442 C441 1.376 . S
C442 C443 1.370 . S
C443 C442 1.370 . S
C443 C444 1.396 . S
C443 H470 0.929 . S
C444 C439 1.373 . S
C444 C443 1.396 . S
C444 H471 0.929 . S
C445 O458 1.240 . S
C445 O459 1.289 . S
C446 O460 1.258 . S
C446 O461 1.256 . S
C447 La437 2.928 . S
C447 C448 1.503 . S
C447 O462 1.261 . S
C447 O463 1.243 . S
C448 C447 1.503 . S
C448 C449 1.394 . S
C448 C453 1.373 . S
C449 C448 1.394 . S
C449 C450 1.380 . S
C449 H472 0.930 . S
C450 C449 1.380 . S
C450 C451 1.376 . S
C450 H473 0.930 . S
C451 C450 1.376 . S
C451 C452 1.370 . S
C452 C451 1.370 . S
C452 C453 1.396 . S
C452 H474 0.929 . S
C453 C448 1.373 . S
C453 C452 1.396 . S
C453 H475 0.929 . S
C454 O464 1.240 . S
C454 O465 1.289 . S
C455 O466 1.258 . S
C455 O467 1.256 . S
O456 La436 2.521 . S
O456 C438 1.261 . S
O457 La436 2.628 . S
O457 C438 1.243 . S
O458 La436 2.554 . S
O458 C445 1.240 . S
O459 La436 2.757 . S
O459 La437 2.482 . S
O459 C445 1.289 . S
O460 La436 2.470 . S
O460 C446 1.258 . S
O461 La437 2.503 . S
O461 C446 1.256 . S
O462 La437 2.521 . S
O462 C447 1.261 . S
O463 La437 2.628 . S
O463 C447 1.243 . S
O464 La437 2.554 . S
O464 C454 1.240 . S
O465 La436 2.482 . S
O465 La437 2.757 . S
O465 C454 1.289 . S
O466 La437 2.470 . S
O466 C455 1.258 . S
O467 La436 2.503 . S
O467 C455 1.256 . S
H468 C440 0.930 . S
H469 C441 0.930 . S
H470 C443 0.929 . S
H471 C444 0.929 . S
H472 C449 0.930 . S
H473 C450 0.930 . S
H474 C452 0.929 . S
H475 C453 0.929 . S
La476 C478 2.928 . S
La476 O496 2.521 . S
La476 O497 2.628 . S
La476 O498 2.554 . S
La476 O499 2.757 . S
La476 O500 2.470 . S
La476 O505 2.482 . S
La476 O507 2.503 . S
La477 C487 2.928 . S
La477 O499 2.482 . S
La477 O501 2.503 . S
La477 O502 2.521 . S
La477 O503 2.628 . S
La477 O504 2.554 . S
La477 O505 2.757 . S
La477 O506 2.470 . S
C478 La476 2.928 . S
C478 C479 1.503 . S
C478 O496 1.261 . S
C478 O497 1.243 . S
C479 C478 1.503 . S
C479 C480 1.394 . S
C479 C484 1.373 . S
C480 C479 1.394 . S
C480 C481 1.380 . S
C480 H508 0.930 . S
C481 C480 1.380 . S
C481 C482 1.376 . S
C481 H509 0.930 . S
C482 C481 1.376 . S
C482 C483 1.370 . S
C483 C482 1.370 . S
C483 C484 1.396 . S
C483 H510 0.929 . S
C484 C479 1.373 . S
C484 C483 1.396 . S
C484 H511 0.929 . S
C485 O498 1.240 . S
C485 O499 1.289 . S
C486 O500 1.258 . S
C486 O501 1.256 . S
C487 La477 2.928 . S
C487 C488 1.503 . S
C487 O502 1.261 . S
C487 O503 1.243 . S
C488 C487 1.503 . S
C488 C489 1.394 . S
C488 C493 1.373 . S
C489 C488 1.394 . S
C489 C490 1.380 . S
C489 H512 0.930 . S
C490 C489 1.380 . S
C490 C491 1.376 . S
C490 H513 0.930 . S
C491 C490 1.376 . S
C491 C492 1.370 . S
C492 C491 1.370 . S
C492 C493 1.396 . S
C492 H514 0.929 . S
C493 C488 1.373 . S
C493 C492 1.396 . S
C493 H515 0.929 . S
C494 O504 1.240 . S
C494 O505 1.289 . S
C495 O506 1.258 . S
C495 O507 1.256 . S
O496 La476 2.521 . S
O496 C478 1.261 . S
O497 La476 2.628 . S
O497 C478 1.243 . S
O498 La476 2.554 . S
O498 C485 1.240 . S
O499 La476 2.757 . S
O499 La477 2.482 . S
O499 C485 1.289 . S
O500 La476 2.470 . S
O500 C486 1.258 . S
O501 La477 2.503 . S
O501 C486 1.256 . S
O502 La477 2.521 . S
O502 C487 1.261 . S
O503 La477 2.628 . S
O503 C487 1.243 . S
O504 La477 2.554 . S
O504 C494 1.240 . S
O505 La476 2.482 . S
O505 La477 2.757 . S
O505 C494 1.289 . S
O506 La477 2.470 . S
O506 C495 1.258 . S
O507 La476 2.503 . S
O507 C495 1.256 . S
H508 C480 0.930 . S
H509 C481 0.930 . S
H510 C483 0.929 . S
H511 C484 0.929 . S
H512 C489 0.930 . S
H513 C490 0.930 . S
H514 C492 0.929 . S
H515 C493 0.929 . S
La516 C518 2.928 . S
La516 O536 2.521 . S
La516 O537 2.628 . S
La516 O538 2.554 . S
La516 O539 2.757 . S
La516 O540 2.470 . S
La516 O545 2.482 . S
La516 O547 2.503 . S
La517 C527 2.928 . S
La517 O539 2.482 . S
La517 O541 2.503 . S
La517 O542 2.521 . S
La517 O543 2.628 . S
La517 O544 2.554 . S
La517 O545 2.757 . S
La517 O546 2.470 . S
C518 La516 2.928 . S
C518 C519 1.503 . S
C518 O536 1.261 . S
C518 O537 1.243 . S
C519 C518 1.503 . S
C519 C520 1.394 . S
C519 C524 1.373 . S
C520 C519 1.394 . S
C520 C521 1.380 . S
C520 H548 0.930 . S
C521 C520 1.380 . S
C521 C522 1.376 . S
C521 H549 0.930 . S
C522 C521 1.376 . S
C522 C523 1.370 . S
C523 C522 1.370 . S
C523 C524 1.396 . S
C523 H550 0.929 . S
C524 C519 1.373 . S
C524 C523 1.396 . S
C524 H551 0.929 . S
C525 O538 1.240 . S
C525 O539 1.289 . S
C526 O540 1.258 . S
C526 O541 1.256 . S
C527 La517 2.928 . S
C527 C528 1.503 . S
C527 O542 1.261 . S
C527 O543 1.243 . S
C528 C527 1.503 . S
C528 C529 1.394 . S
C528 C533 1.373 . S
C529 C528 1.394 . S
C529 C530 1.380 . S
C529 H552 0.930 . S
C530 C529 1.380 . S
C530 C531 1.376 . S
C530 H553 0.930 . S
C531 C530 1.376 . S
C531 C532 1.370 . S
C532 C531 1.370 . S
C532 C533 1.396 . S
C532 H554 0.929 . S
C533 C528 1.373 . S
C533 C532 1.396 . S
C533 H555 0.929 . S
C534 O544 1.240 . S
C534 O545 1.289 . S
C535 O546 1.258 . S
C535 O547 1.256 . S
O536 La516 2.521 . S
O536 C518 1.261 . S
O537 La516 2.628 . S
O537 C518 1.243 . S
O538 La516 2.554 . S
O538 C525 1.240 . S
O539 La516 2.757 . S
O539 La517 2.482 . S
O539 C525 1.289 . S
O540 La516 2.470 . S
O540 C526 1.258 . S
O541 La517 2.503 . S
O541 C526 1.256 . S
O542 La517 2.521 . S
O542 C527 1.261 . S
O543 La517 2.628 . S
O543 C527 1.243 . S
O544 La517 2.554 . S
O544 C534 1.240 . S
O545 La516 2.482 . S
O545 La517 2.757 . S
O545 C534 1.289 . S
O546 La517 2.470 . S
O546 C535 1.258 . S
O547 La516 2.503 . S
O547 C535 1.256 . S
H548 C520 0.930 . S
H549 C521 0.930 . S
H550 C523 0.929 . S
H551 C524 0.929 . S
H552 C529 0.930 . S
H553 C530 0.930 . S
H554 C532 0.929 . S
H555 C533 0.929 . S
La556 C558 2.928 . S
La556 O576 2.521 . S
La556 O577 2.628 . S
La556 O578 2.554 . S
La556 O579 2.757 . S
La556 O580 2.470 . S
La556 O585 2.482 . S
La556 O587 2.503 . S
La557 C567 2.928 . S
La557 O579 2.482 . S
La557 O581 2.503 . S
La557 O582 2.521 . S
La557 O583 2.628 . S
La557 O584 2.554 . S
La557 O585 2.757 . S
La557 O586 2.470 . S
C558 La556 2.928 . S
C558 C559 1.503 . S
C558 O576 1.261 . S
C558 O577 1.243 . S
C559 C558 1.503 . S
C559 C560 1.394 . S
C559 C564 1.373 . S
C560 C559 1.394 . S
C560 C561 1.380 . S
C560 H588 0.930 . S
C561 C560 1.380 . S
C561 C562 1.376 . S
C561 H589 0.930 . S
C562 C561 1.376 . S
C562 C563 1.370 . S
C563 C562 1.370 . S
C563 C564 1.396 . S
C563 H590 0.929 . S
C564 C559 1.373 . S
C564 C563 1.396 . S
C564 H591 0.929 . S
C565 O578 1.240 . S
C565 O579 1.289 . S
C566 O580 1.258 . S
C566 O581 1.256 . S
C567 La557 2.928 . S
C567 C568 1.503 . S
C567 O582 1.261 . S
C567 O583 1.243 . S
C568 C567 1.503 . S
C568 C569 1.394 . S
C568 C573 1.373 . S
C569 C568 1.394 . S
C569 C570 1.380 . S
C569 H592 0.930 . S
C570 C569 1.380 . S
C570 C571 1.376 . S
C570 H593 0.930 . S
C571 C570 1.376 . S
C571 C572 1.370 . S
C572 C571 1.370 . S
C572 C573 1.396 . S
C572 H594 0.929 . S
C573 C568 1.373 . S
C573 C572 1.396 . S
C573 H595 0.929 . S
C574 O584 1.240 . S
C574 O585 1.289 . S
C575 O586 1.258 . S
C575 O587 1.256 . S
O576 La556 2.521 . S
O576 C558 1.261 . S
O577 La556 2.628 . S
O577 C558 1.243 . S
O578 La556 2.554 . S
O578 C565 1.240 . S
O579 La556 2.757 . S
O579 La557 2.482 . S
O579 C565 1.289 . S
O580 La556 2.470 . S
O580 C566 1.258 . S
O581 La557 2.503 . S
O581 C566 1.256 . S
O582 La557 2.521 . S
O582 C567 1.261 . S
O583 La557 2.628 . S
O583 C567 1.243 . S
O584 La557 2.554 . S
O584 C574 1.240 . S
O585 La556 2.482 . S
O585 La557 2.757 . S
O585 C574 1.289 . S
O586 La557 2.470 . S
O586 C575 1.258 . S
O587 La556 2.503 . S
O587 C575 1.256 . S
H588 C560 0.930 . S
H589 C561 0.930 . S
H590 C563 0.929 . S
H591 C564 0.929 . S
H592 C569 0.930 . S
H593 C570 0.930 . S
H594 C572 0.929 . S
H595 C573 0.929 . S
H596 C602 0.930 . S
H597 C605 0.930 . S
H598 C606 0.930 . S
H599 C607 0.930 . S
H600 C610 0.930 . S
H601 C611 0.930 . S
C602 H596 0.930 . S
C602 C603 1.355 . S
C602 C604 1.415 . S
C603 C602 1.355 . S
C603 C605 1.419 . S
C604 C602 1.415 . S
C604 C609 1.425 . S
C604 C611 1.409 . S
C605 H597 0.930 . S
C605 C603 1.419 . S
C605 C606 1.362 . S
C606 H598 0.930 . S
C606 C605 1.362 . S
C606 C609 1.409 . S
C607 H599 0.930 . S
C607 C608 1.355 . S
C607 C609 1.415 . S
C608 C607 1.355 . S
C608 C610 1.419 . S
C609 C604 1.425 . S
C609 C606 1.409 . S
C609 C607 1.415 . S
C610 H600 0.930 . S
C610 C608 1.419 . S
C610 C611 1.362 . S
C611 H601 0.930 . S
C611 C604 1.409 . S
C611 C610 1.362 . S
H612 C618 0.930 . S
H613 C621 0.930 . S
H614 C622 0.930 . S
H615 C623 0.930 . S
H616 C626 0.930 . S
H617 C627 0.930 . S
C618 H612 0.930 . S
C618 C619 1.355 . S
C618 C620 1.415 . S
C619 C618 1.355 . S
C619 C621 1.419 . S
C620 C618 1.415 . S
C620 C625 1.425 . S
C620 C627 1.409 . S
C621 H613 0.930 . S
C621 C619 1.419 . S
C621 C622 1.362 . S
C622 H614 0.930 . S
C622 C621 1.362 . S
C622 C625 1.409 . S
C623 H615 0.930 . S
C623 C624 1.355 . S
C623 C625 1.415 . S
C624 C623 1.355 . S
C624 C626 1.419 . S
C625 C620 1.425 . S
C625 C622 1.409 . S
C625 C623 1.415 . S
C626 H616 0.930 . S
C626 C624 1.419 . S
C626 C627 1.362 . S
C627 H617 0.930 . S
C627 C620 1.409 . S
C627 C626 1.362 . S
H628 C634 0.930 . S
H629 C637 0.930 . S
H630 C638 0.930 . S
H631 C639 0.930 . S
H632 C642 0.930 . S
H633 C643 0.930 . S
C634 H628 0.930 . S
C634 C635 1.355 . S
C634 C636 1.415 . S
C635 C634 1.355 . S
C635 C637 1.419 . S
C636 C634 1.415 . S
C636 C641 1.425 . S
C636 C643 1.409 . S
C637 H629 0.930 . S
C637 C635 1.419 . S
C637 C638 1.362 . S
C638 H630 0.930 . S
C638 C637 1.362 . S
C638 C641 1.409 . S
C639 H631 0.930 . S
C639 C640 1.355 . S
C639 C641 1.415 . S
C640 C639 1.355 . S
C640 C642 1.419 . S
C641 C636 1.425 . S
C641 C638 1.409 . S
C641 C639 1.415 . S
C642 H632 0.930 . S
C642 C640 1.419 . S
C642 C643 1.362 . S
C643 H633 0.930 . S
C643 C636 1.409 . S
C643 C642 1.362 . S
H644 C650 0.930 . S
H645 C653 0.930 . S
H646 C654 0.930 . S
H647 C655 0.930 . S
H648 C658 0.930 . S
H649 C659 0.930 . S
C650 H644 0.930 . S
C650 C651 1.355 . S
C650 C652 1.415 . S
C651 C650 1.355 . S
C651 C653 1.419 . S
C652 C650 1.415 . S
C652 C657 1.425 . S
C652 C659 1.409 . S
C653 H645 0.930 . S
C653 C651 1.419 . S
C653 C654 1.362 . S
C654 H646 0.930 . S
C654 C653 1.362 . S
C654 C657 1.409 . S
C655 H647 0.930 . S
C655 C656 1.355 . S
C655 C657 1.415 . S
C656 C655 1.355 . S
C656 C658 1.419 . S
C657 C652 1.425 . S
C657 C654 1.409 . S
C657 C655 1.415 . S
C658 H648 0.930 . S
C658 C656 1.419 . S
C658 C659 1.362 . S
C659 H649 0.930 . S
C659 C652 1.409 . S
C659 C658 1.362 . S
H660 C666 0.930 . S
H661 C669 0.930 . S
H662 C670 0.930 . S
H663 C671 0.930 . S
H664 C674 0.930 . S
H665 C675 0.930 . S
C666 H660 0.930 . S
C666 C667 1.355 . S
C666 C668 1.415 . S
C667 C666 1.355 . S
C667 C669 1.419 . S
C668 C666 1.415 . S
C668 C673 1.425 . S
C668 C675 1.409 . S
C669 H661 0.930 . S
C669 C667 1.419 . S
C669 C670 1.362 . S
C670 H662 0.930 . S
C670 C669 1.362 . S
C670 C673 1.409 . S
C671 H663 0.930 . S
C671 C672 1.355 . S
C671 C673 1.415 . S
C672 C671 1.355 . S
C672 C674 1.419 . S
C673 C668 1.425 . S
C673 C670 1.409 . S
C673 C671 1.415 . S
C674 H664 0.930 . S
C674 C672 1.419 . S
C674 C675 1.362 . S
C675 H665 0.930 . S
C675 C668 1.409 . S
C675 C674 1.362 . S
H676 C682 0.930 . S
H677 C685 0.930 . S
H678 C686 0.930 . S
H679 C687 0.930 . S
H680 C690 0.930 . S
H681 C691 0.930 . S
C682 H676 0.930 . S
C682 C683 1.355 . S
C682 C684 1.415 . S
C683 C682 1.355 . S
C683 C685 1.419 . S
C684 C682 1.415 . S
C684 C689 1.425 . S
C684 C691 1.409 . S
C685 H677 0.930 . S
C685 C683 1.419 . S
C685 C686 1.362 . S
C686 H678 0.930 . S
C686 C685 1.362 . S
C686 C689 1.409 . S
C687 H679 0.930 . S
C687 C688 1.355 . S
C687 C689 1.415 . S
C688 C687 1.355 . S
C688 C690 1.419 . S
C689 C684 1.425 . S
C689 C686 1.409 . S
C689 C687 1.415 . S
C690 H680 0.930 . S
C690 C688 1.419 . S
C690 C691 1.362 . S
C691 H681 0.930 . S
C691 C684 1.409 . S
C691 C690 1.362 . S
H692 C698 0.930 . S
H693 C701 0.930 . S
H694 C702 0.930 . S
H695 C703 0.930 . S
H696 C706 0.930 . S
H697 C707 0.930 . S
C698 H692 0.930 . S
C698 C699 1.355 . S
C698 C700 1.415 . S
C699 C698 1.355 . S
C699 C701 1.419 . S
C700 C698 1.415 . S
C700 C705 1.425 . S
C700 C707 1.409 . S
C701 H693 0.930 . S
C701 C699 1.419 . S
C701 C702 1.362 . S
C702 H694 0.930 . S
C702 C701 1.362 . S
C702 C705 1.409 . S
C703 H695 0.930 . S
C703 C704 1.355 . S
C703 C705 1.415 . S
C704 C703 1.355 . S
C704 C706 1.419 . S
C705 C700 1.425 . S
C705 C702 1.409 . S
C705 C703 1.415 . S
C706 H696 0.930 . S
C706 C704 1.419 . S
C706 C707 1.362 . S
C707 H697 0.930 . S
C707 C700 1.409 . S
C707 C706 1.362 . S
H708 C714 0.930 . S
H709 C717 0.930 . S
H710 C718 0.930 . S
H711 C719 0.930 . S
H712 C722 0.930 . S
H713 C723 0.930 . S
C714 H708 0.930 . S
C714 C715 1.355 1_565 S
C714 C716 1.415 . S
C715 C714 1.355 1_545 S
C715 C717 1.419 . S
C716 C714 1.415 . S
C716 C721 1.425 . S
C716 C723 1.409 . S
C717 H709 0.930 . S
C717 C715 1.419 . S
C717 C718 1.362 . S
C718 H710 0.930 . S
C718 C717 1.362 . S
C718 C721 1.409 1_545 S
C719 H711 0.930 . S
C719 C720 1.355 . S
C719 C721 1.415 . S
C720 C719 1.355 . S
C720 C722 1.419 . S
C721 C716 1.425 . S
C721 C718 1.409 1_565 S
C721 C719 1.415 . S
C722 H712 0.930 . S
C722 C720 1.419 . S
C722 C723 1.362 . S
C723 H713 0.930 . S
C723 C716 1.409 . S
C723 C722 1.362 . S
H724 C730 0.930 . S
H725 C733 0.930 . S
H726 C734 0.930 . S
H727 C735 0.930 . S
H728 C738 0.930 . S
H729 C739 0.930 . S
C730 H724 0.930 . S
C730 C731 1.355 . S
C730 C732 1.415 . S
C731 C730 1.355 . S
C731 C733 1.419 . S
C732 C730 1.415 . S
C732 C737 1.425 . S
C732 C739 1.409 . S
C733 H725 0.930 . S
C733 C731 1.419 . S
C733 C734 1.362 . S
C734 H726 0.930 . S
C734 C733 1.362 . S
C734 C737 1.409 . S
C735 H727 0.930 . S
C735 C736 1.355 . S
C735 C737 1.415 . S
C736 C735 1.355 . S
C736 C738 1.419 . S
C737 C732 1.425 . S
C737 C734 1.409 . S
C737 C735 1.415 . S
C738 H728 0.930 . S
C738 C736 1.419 . S
C738 C739 1.362 . S
C739 H729 0.930 . S
C739 C732 1.409 . S
C739 C738 1.362 . S
H740 C746 0.930 . S
H741 C749 0.930 . S
H742 C750 0.930 . S
H743 C751 0.930 . S
H744 C754 0.930 . S
H745 C755 0.930 . S
C746 H740 0.930 . S
C746 C747 1.355 . S
C746 C748 1.415 . S
C747 C746 1.355 . S
C747 C749 1.419 . S
C748 C746 1.415 . S
C748 C753 1.425 . S
C748 C755 1.409 . S
C749 H741 0.930 . S
C749 C747 1.419 . S
C749 C750 1.362 . S
C750 H742 0.930 . S
C750 C749 1.362 . S
C750 C753 1.409 . S
C751 H743 0.930 . S
C751 C752 1.355 . S
C751 C753 1.415 . S
C752 C751 1.355 . S
C752 C754 1.419 . S
C753 C748 1.425 . S
C753 C750 1.409 . S
C753 C751 1.415 . S
C754 H744 0.930 . S
C754 C752 1.419 . S
C754 C755 1.362 . S
C755 H745 0.930 . S
C755 C748 1.409 . S
C755 C754 1.362 . S
H756 C762 0.930 . S
H757 C765 0.930 . S
H758 C766 0.930 . S
H759 C767 0.930 . S
H760 C770 0.930 . S
H761 C771 0.930 . S
C762 H756 0.930 . S
C762 C763 1.355 . S
C762 C764 1.415 . S
C763 C762 1.355 . S
C763 C765 1.419 . S
C764 C762 1.415 . S
C764 C769 1.425 . S
C764 C771 1.409 . S
C765 H757 0.930 . S
C765 C763 1.419 . S
C765 C766 1.362 . S
C766 H758 0.930 . S
C766 C765 1.362 . S
C766 C769 1.409 . S
C767 H759 0.930 . S
C767 C768 1.355 . S
C767 C769 1.415 . S
C768 C767 1.355 . S
C768 C770 1.419 . S
C769 C764 1.425 . S
C769 C766 1.409 . S
C769 C767 1.415 . S
C770 H760 0.930 . S
C770 C768 1.419 . S
C770 C771 1.362 . S
C771 H761 0.930 . S
C771 C764 1.409 . S
C771 C770 1.362 . S
H772 C778 0.930 . S
H773 C781 0.930 . S
H774 C782 0.930 . S
H775 C783 0.930 . S
H776 C786 0.930 . S
H777 C787 0.930 . S
C778 H772 0.930 . S
C778 C779 1.355 . S
C778 C780 1.415 . S
C779 C778 1.355 . S
C779 C781 1.419 . S
C780 C778 1.415 . S
C780 C785 1.425 . S
C780 C787 1.409 . S
C781 H773 0.930 . S
C781 C779 1.419 . S
C781 C782 1.362 . S
C782 H774 0.930 . S
C782 C781 1.362 . S
C782 C785 1.409 . S
C783 H775 0.930 . S
C783 C784 1.355 . S
C783 C785 1.415 . S
C784 C783 1.355 . S
C784 C786 1.419 . S
C785 C780 1.425 . S
C785 C782 1.409 . S
C785 C783 1.415 . S
C786 H776 0.930 . S
C786 C784 1.419 . S
C786 C787 1.362 . S
C787 H777 0.930 . S
C787 C780 1.409 . S
C787 C786 1.362 . S
H788 C794 0.930 . S
H789 C797 0.930 . S
H790 C798 0.930 . S
H791 C799 0.930 . S
H792 C802 0.930 . S
H793 C803 0.930 . S
C794 H788 0.930 . S
C794 C795 1.355 . S
C794 C796 1.415 . S
C795 C794 1.355 . S
C795 C797 1.419 1_564 S
C796 C794 1.415 . S
C796 C801 1.425 1_554 S
C796 C803 1.409 . S
C797 H789 0.930 . S
C797 C795 1.419 1_546 S
C797 C798 1.362 1_545 S
C798 H790 0.930 . S
C798 C797 1.362 1_565 S
C798 C801 1.409 . S
C799 H791 0.930 . S
C799 C800 1.355 . S
C799 C801 1.415 . S
C800 C799 1.355 . S
C800 C802 1.419 1_556 S
C801 C796 1.425 1_556 S
C801 C798 1.409 . S
C801 C799 1.415 . S
C802 H792 0.930 . S
C802 C800 1.419 1_554 S
C802 C803 1.362 . S
C803 H793 0.930 . S
C803 C796 1.409 . S
C803 C802 1.362 . S
H804 C810 0.930 . S
H805 C813 0.930 . S
H806 C814 0.930 . S
H807 C815 0.930 . S
H808 C818 0.930 . S
H809 C819 0.930 . S
C810 H804 0.930 . S
C810 C811 1.355 . S
C810 C812 1.415 . S
C811 C810 1.355 . S
C811 C813 1.419 . S
C812 C810 1.415 . S
C812 C817 1.425 . S
C812 C819 1.409 . S
C813 H805 0.930 . S
C813 C811 1.419 . S
C813 C814 1.362 . S
C814 H806 0.930 . S
C814 C813 1.362 . S
C814 C817 1.409 . S
C815 H807 0.930 . S
C815 C816 1.355 . S
C815 C817 1.415 . S
C816 C815 1.355 . S
C816 C818 1.419 . S
C817 C812 1.425 . S
C817 C814 1.409 . S
C817 C815 1.415 . S
C818 H808 0.930 . S
C818 C816 1.419 . S
C818 C819 1.362 . S
C819 H809 0.930 . S
C819 C812 1.409 . S
C819 C818 1.362 . S
H820 C826 0.930 . S
H821 C829 0.930 . S
H822 C830 0.930 . S
H823 C831 0.930 . S
H824 C834 0.930 . S
H825 C835 0.930 . S
C826 H820 0.930 . S
C826 C827 1.355 . S
C826 C828 1.415 . S
C827 C826 1.355 . S
C827 C829 1.419 . S
C828 C826 1.415 . S
C828 C833 1.425 . S
C828 C835 1.409 . S
C829 H821 0.930 . S
C829 C827 1.419 . S
C829 C830 1.362 . S
C830 H822 0.930 . S
C830 C829 1.362 . S
C830 C833 1.409 . S
C831 H823 0.930 . S
C831 C832 1.355 . S
C831 C833 1.415 . S
C832 C831 1.355 . S
C832 C834 1.419 . S
C833 C828 1.425 . S
C833 C830 1.409 . S
C833 C831 1.415 . S
C834 H824 0.930 . S
C834 C832 1.419 . S
C834 C835 1.362 . S
C835 H825 0.930 . S
C835 C828 1.409 . S
C835 C834 1.362 . S
H836 C842 0.930 . S
H837 C845 0.930 . S
H838 C846 0.930 . S
H839 C847 0.930 . S
H840 C850 0.930 . S
H841 C851 0.930 . S
C842 H836 0.930 . S
C842 C843 1.355 . S
C842 C844 1.415 . S
C843 C842 1.355 . S
C843 C845 1.419 . S
C844 C842 1.415 . S
C844 C849 1.425 . S
C844 C851 1.409 . S
C845 H837 0.930 . S
C845 C843 1.419 . S
C845 C846 1.362 . S
C846 H838 0.930 . S
C846 C845 1.362 . S
C846 C849 1.409 . S
C847 H839 0.930 . S
C847 C848 1.355 . S
C847 C849 1.415 . S
C848 C847 1.355 . S
C848 C850 1.419 . S
C849 C844 1.425 . S
C849 C846 1.409 . S
C849 C847 1.415 . S
C850 H840 0.930 . S
C850 C848 1.419 . S
C850 C851 1.362 . S
C851 H841 0.930 . S
C851 C844 1.409 . S
C851 C850 1.362 . S
H852 C858 0.930 . S
H853 C861 0.930 . S
H854 C862 0.930 . S
H855 C863 0.930 . S
H856 C866 0.930 . S
H857 C867 0.930 . S
C858 H852 0.930 . S
C858 C859 1.355 . S
C858 C860 1.415 . S
C859 C858 1.355 . S
C859 C861 1.419 . S
C860 C858 1.415 . S
C860 C865 1.425 . S
C860 C867 1.409 . S
C861 H853 0.930 . S
C861 C859 1.419 . S
C861 C862 1.362 . S
C862 H854 0.930 . S
C862 C861 1.362 . S
C862 C865 1.409 . S
C863 H855 0.930 . S
C863 C864 1.355 . S
C863 C865 1.415 . S
C864 C863 1.355 . S
C864 C866 1.419 . S
C865 C860 1.425 . S
C865 C862 1.409 . S
C865 C863 1.415 . S
C866 H856 0.930 . S
C866 C864 1.419 . S
C866 C867 1.362 . S
C867 H857 0.930 . S
C867 C860 1.409 . S
C867 C866 1.362 . S
H868 C874 0.930 . S
H869 C877 0.930 . S
H870 C878 0.930 . S
H871 C879 0.930 . S
H872 C882 0.930 . S
H873 C883 0.930 . S
C874 H868 0.930 . S
C874 C875 1.355 . S
C874 C876 1.415 . S
C875 C874 1.355 . S
C875 C877 1.419 . S
C876 C874 1.415 . S
C876 C881 1.425 . S
C876 C883 1.409 . S
C877 H869 0.930 . S
C877 C875 1.419 . S
C877 C878 1.362 . S
C878 H870 0.930 . S
C878 C877 1.362 . S
C878 C881 1.409 . S
C879 H871 0.930 . S
C879 C880 1.355 . S
C879 C881 1.415 . S
C880 C879 1.355 . S
C880 C882 1.419 . S
C881 C876 1.425 . S
C881 C878 1.409 . S
C881 C879 1.415 . S
C882 H872 0.930 . S
C882 C880 1.419 . S
C882 C883 1.362 . S
C883 H873 0.930 . S
C883 C876 1.409 . S
C883 C882 1.362 . S
H884 C890 0.930 . S
H885 C893 0.930 . S
H886 C894 0.930 . S
H887 C895 0.930 . S
H888 C898 0.930 . S
H889 C899 0.930 . S
C890 H884 0.930 . S
C890 C891 1.355 . S
C890 C892 1.415 1_554 S
C891 C890 1.355 . S
C891 C893 1.419 1_554 S
C892 C890 1.415 1_556 S
C892 C897 1.425 . S
C892 C899 1.409 . S
C893 H885 0.930 . S
C893 C891 1.419 1_556 S
C893 C894 1.362 . S
C894 H886 0.930 . S
C894 C893 1.362 . S
C894 C897 1.409 . S
C895 H887 0.930 . S
C895 C896 1.355 . S
C895 C897 1.415 . S
C896 C895 1.355 . S
C896 C898 1.419 . S
C897 C892 1.425 . S
C897 C894 1.409 . S
C897 C895 1.415 . S
C898 H888 0.930 . S
C898 C896 1.419 . S
C898 C899 1.362 . S
C899 H889 0.930 . S
C899 C892 1.409 . S
C899 C898 1.362 . S
H900 C906 0.930 . S
H901 C909 0.930 . S
H902 C910 0.930 . S
H903 C911 0.930 . S
H904 C914 0.930 . S
H905 C915 0.930 . S
C906 H900 0.930 . S
C906 C907 1.381 . S
C906 C908 1.432 . S
C907 C906 1.381 . S
C907 C909 1.420 1_655 S
C908 C906 1.432 . S
C908 C913 1.420 1_554 S
C908 C915 1.397 1_554 S
C909 H901 0.930 . S
C909 C907 1.420 1_455 S
C909 C910 1.362 1_455 S
C910 H902 0.930 . S
C910 C909 1.362 1_655 S
C910 C913 1.405 1_554 S
C911 H903 0.930 . S
C911 C912 1.355 . S
C911 C913 1.421 . S
C912 C911 1.355 . S
C912 C914 1.419 . S
C913 C908 1.420 1_556 S
C913 C910 1.405 1_556 S
C913 C911 1.421 . S
C914 H904 0.930 . S
C914 C912 1.419 . S
C914 C915 1.362 . S
C915 H905 0.930 . S
C915 C908 1.397 1_556 S
C915 C914 1.362 . S
H916 C922 0.930 . S
H917 C925 0.930 . S
H918 C926 0.930 . S
H919 C927 0.930 . S
H920 C930 0.930 . S
H921 C931 0.930 . S
C922 H916 0.930 . S
C922 C923 1.355 . S
C922 C924 1.415 . S
C923 C922 1.355 . S
C923 C925 1.419 . S
C924 C922 1.415 . S
C924 C929 1.425 . S
C924 C931 1.409 . S
C925 H917 0.930 . S
C925 C923 1.419 . S
C925 C926 1.362 . S
C926 H918 0.930 . S
C926 C925 1.362 . S
C926 C929 1.409 . S
C927 H919 0.930 . S
C927 C928 1.355 . S
C927 C929 1.415 . S
C928 C927 1.355 . S
C928 C930 1.419 . S
C929 C924 1.425 . S
C929 C926 1.409 . S
C929 C927 1.415 . S
C930 H920 0.930 . S
C930 C928 1.419 . S
C930 C931 1.362 . S
C931 H921 0.930 . S
C931 C924 1.409 . S
C931 C930 1.362 . S
H932 C938 0.930 . S
H933 C941 0.930 . S
H934 C942 0.930 . S
H935 C943 0.930 . S
H936 C946 0.930 . S
H937 C947 0.930 . S
C938 H932 0.930 . S
C938 C939 1.355 . S
C938 C940 1.415 . S
C939 C938 1.355 . S
C939 C941 1.419 . S
C940 C938 1.415 . S
C940 C945 1.425 . S
C940 C947 1.409 . S
C941 H933 0.930 . S
C941 C939 1.419 . S
C941 C942 1.362 . S
C942 H934 0.930 . S
C942 C941 1.362 . S
C942 C945 1.409 . S
C943 H935 0.930 . S
C943 C944 1.355 . S
C943 C945 1.415 . S
C944 C943 1.355 . S
C944 C946 1.419 . S
C945 C940 1.425 . S
C945 C942 1.409 . S
C945 C943 1.415 . S
C946 H936 0.930 . S
C946 C944 1.419 . S
C946 C947 1.362 . S
C947 H937 0.930 . S
C947 C940 1.409 . S
C947 C946 1.362 . S
H948 C954 0.930 . S
H949 C957 0.930 1_545 S
H950 C958 0.930 . S
H951 C959 0.930 . S
H952 C962 0.930 . S
H953 C963 0.930 . S
C954 H948 0.930 . S
C954 C955 1.355 . S
C954 C956 1.415 . S
C955 C954 1.355 . S
C955 C957 1.419 . S
C956 C954 1.415 . S
C956 C961 1.425 . S
C956 C963 1.409 . S
C957 H949 0.930 1_565 S
C957 C955 1.419 . S
C957 C958 1.362 . S
C958 H950 0.930 . S
C958 C957 1.362 . S
C958 C961 1.409 . S
C959 H951 0.930 . S
C959 C960 1.355 . S
C959 C961 1.415 . S
C960 C959 1.355 . S
C960 C962 1.419 . S
C961 C956 1.425 . S
C961 C958 1.409 . S
C961 C959 1.415 . S
C962 H952 0.930 . S
C962 C960 1.419 . S
C962 C963 1.362 . S
C963 H953 0.930 . S
C963 C956 1.409 . S
C963 C962 1.362 . S
H964 C970 0.930 . S
H965 C973 0.930 . S
H966 C974 0.930 . S
H967 C975 0.930 . S
H968 C978 0.930 . S
H969 C979 0.930 . S
C970 H964 0.930 . S
C970 C971 1.355 . S
C970 C972 1.415 . S
C971 C970 1.355 . S
C971 C973 1.419 . S
C972 C970 1.415 . S
C972 C977 1.425 . S
C972 C979 1.409 . S
C973 H965 0.930 . S
C973 C971 1.419 . S
C973 C974 1.362 . S
C974 H966 0.930 . S
C974 C973 1.362 . S
C974 C977 1.409 . S
C975 H967 0.930 . S
C975 C976 1.355 . S
C975 C977 1.415 . S
C976 C975 1.355 . S
C976 C978 1.419 . S
C977 C972 1.425 . S
C977 C974 1.409 . S
C977 C975 1.415 . S
C978 H968 0.930 . S
C978 C976 1.419 . S
C978 C979 1.362 . S
C979 H969 0.930 . S
C979 C972 1.409 . S
C979 C978 1.362 . S
H980 C986 0.930 . S
H981 C989 0.930 . S
H982 C990 0.930 . S
H983 C991 0.930 . S
H984 C994 0.930 . S
H985 C995 0.930 . S
C986 H980 0.930 . S
C986 C987 1.355 . S
C986 C988 1.415 . S
C987 C986 1.355 . S
C987 C989 1.419 . S
C988 C986 1.415 . S
C988 C993 1.425 . S
C988 C995 1.409 . S
C989 H981 0.930 . S
C989 C987 1.419 . S
C989 C990 1.362 . S
C990 H982 0.930 . S
C990 C989 1.362 . S
C990 C993 1.409 . S
C991 H983 0.930 . S
C991 C992 1.355 . S
C991 C993 1.415 . S
C992 C991 1.355 . S
C992 C994 1.419 . S
C993 C988 1.425 . S
C993 C990 1.409 . S
C993 C991 1.415 . S
C994 H984 0.930 . S
C994 C992 1.419 . S
C994 C995 1.362 . S
C995 H985 0.930 . S
C995 C988 1.409 . S
C995 C994 1.362 . S
H996 C1002 0.930 . S
H997 C1005 0.930 . S
H998 C1006 0.930 . S
H999 C1007 0.930 . S
H1000 C1010 0.930 . S
H1001 C1011 0.930 . S
C1002 H996 0.930 . S
C1002 C1003 1.355 . S
C1002 C1004 1.415 . S
C1003 C1002 1.355 . S
C1003 C1005 1.419 . S
C1004 C1002 1.415 . S
C1004 C1009 1.425 . S
C1004 C1011 1.409 . S
C1005 H997 0.930 . S
C1005 C1003 1.419 . S
C1005 C1006 1.362 . S
C1006 H998 0.930 . S
C1006 C1005 1.362 . S
C1006 C1009 1.409 . S
C1007 H999 0.930 . S
C1007 C1008 1.355 . S
C1007 C1009 1.415 . S
C1008 C1007 1.355 . S
C1008 C1010 1.419 . S
C1009 C1004 1.425 . S
C1009 C1006 1.409 . S
C1009 C1007 1.415 . S
C1010 H1000 0.930 . S
C1010 C1008 1.419 . S
C1010 C1011 1.362 . S
C1011 H1001 0.930 . S
C1011 C1004 1.409 . S
C1011 C1010 1.362 . S
H1012 C1018 0.930 . S
H1013 C1021 0.930 . S
H1014 C1022 0.930 . S
H1015 C1023 0.930 . S
H1016 C1026 0.930 . S
H1017 C1027 0.930 . S
C1018 H1012 0.930 . S
C1018 C1019 1.355 . S
C1018 C1020 1.415 . S
C1019 C1018 1.355 . S
C1019 C1021 1.419 . S
C1020 C1018 1.415 . S
C1020 C1025 1.425 . S
C1020 C1027 1.409 . S
C1021 H1013 0.930 . S
C1021 C1019 1.419 . S
C1021 C1022 1.362 . S
C1022 H1014 0.930 . S
C1022 C1021 1.362 . S
C1022 C1025 1.409 . S
C1023 H1015 0.930 . S
C1023 C1024 1.355 . S
C1023 C1025 1.415 . S
C1024 C1023 1.355 . S
C1024 C1026 1.419 . S
C1025 C1020 1.425 . S
C1025 C1022 1.409 . S
C1025 C1023 1.415 . S
C1026 H1016 0.930 . S
C1026 C1024 1.419 . S
C1026 C1027 1.362 . S
C1027 H1017 0.930 . S
C1027 C1020 1.409 . S
C1027 C1026 1.362 . S
H1028 C1034 0.930 . S
H1029 C1037 0.930 . S
H1030 C1038 0.930 . S
H1031 C1039 0.930 . S
H1032 C1042 0.930 . S
H1033 C1043 0.930 . S
C1034 H1028 0.930 . S
C1034 C1035 1.355 . S
C1034 C1036 1.415 . S
C1035 C1034 1.355 . S
C1035 C1037 1.419 . S
C1036 C1034 1.415 . S
C1036 C1041 1.425 . S
C1036 C1043 1.409 . S
C1037 H1029 0.930 . S
C1037 C1035 1.419 . S
C1037 C1038 1.362 . S
C1038 H1030 0.930 . S
C1038 C1037 1.362 . S
C1038 C1041 1.409 . S
C1039 H1031 0.930 . S
C1039 C1040 1.355 . S
C1039 C1041 1.415 . S
C1040 C1039 1.355 . S
C1040 C1042 1.419 . S
C1041 C1036 1.425 . S
C1041 C1038 1.409 . S
C1041 C1039 1.415 . S
C1042 H1032 0.930 . S
C1042 C1040 1.419 . S
C1042 C1043 1.362 . S
C1043 H1033 0.930 . S
C1043 C1036 1.409 . S
C1043 C1042 1.362 . S
H1044 C1050 0.930 . S
H1045 C1053 0.930 . S
H1046 C1054 0.930 . S
H1047 C1055 0.930 . S
H1048 C1058 0.930 . S
H1049 C1059 0.930 . S
C1050 H1044 0.930 . S
C1050 C1051 1.355 . S
C1050 C1052 1.415 . S
C1051 C1050 1.355 . S
C1051 C1053 1.419 . S
C1052 C1050 1.415 . S
C1052 C1057 1.425 . S
C1052 C1059 1.409 . S
C1053 H1045 0.930 . S
C1053 C1051 1.419 . S
C1053 C1054 1.362 . S
C1054 H1046 0.930 . S
C1054 C1053 1.362 . S
C1054 C1057 1.409 . S
C1055 H1047 0.930 . S
C1055 C1056 1.355 . S
C1055 C1057 1.415 . S
C1056 C1055 1.355 . S
C1056 C1058 1.419 . S
C1057 C1052 1.425 . S
C1057 C1054 1.409 . S
C1057 C1055 1.415 . S
C1058 H1048 0.930 . S
C1058 C1056 1.419 . S
C1058 C1059 1.362 . S
C1059 H1049 0.930 . S
C1059 C1052 1.409 . S
C1059 C1058 1.362 . S
H1060 C1066 0.930 . S
H1061 C1069 0.930 . S
H1062 C1070 0.930 . S
H1063 C1071 0.930 . S
H1064 C1074 0.930 . S
H1065 C1075 0.930 . S
C1066 H1060 0.930 . S
C1066 C1067 1.355 . S
C1066 C1068 1.415 . S
C1067 C1066 1.355 . S
C1067 C1069 1.419 . S
C1068 C1066 1.415 . S
C1068 C1073 1.425 . S
C1068 C1075 1.409 . S
C1069 H1061 0.930 . S
C1069 C1067 1.419 . S
C1069 C1070 1.362 . S
C1070 H1062 0.930 . S
C1070 C1069 1.362 . S
C1070 C1073 1.409 . S
C1071 H1063 0.930 . S
C1071 C1072 1.355 . S
C1071 C1073 1.415 . S
C1072 C1071 1.355 . S
C1072 C1074 1.419 . S
C1073 C1068 1.425 . S
C1073 C1070 1.409 . S
C1073 C1071 1.415 . S
C1074 H1064 0.930 . S
C1074 C1072 1.419 . S
C1074 C1075 1.362 . S
C1075 H1065 0.930 . S
C1075 C1068 1.409 . S
C1075 C1074 1.362 . S
H1076 C1082 0.930 . S
H1077 C1085 0.930 . S
H1078 C1086 0.930 . S
H1079 C1087 0.930 . S
H1080 C1090 0.930 . S
H1081 C1091 0.930 . S
C1082 H1076 0.930 . S
C1082 C1083 1.355 . S
C1082 C1084 1.415 . S
C1083 C1082 1.355 . S
C1083 C1085 1.419 . S
C1084 C1082 1.415 . S
C1084 C1089 1.425 . S
C1084 C1091 1.409 . S
C1085 H1077 0.930 . S
C1085 C1083 1.419 . S
C1085 C1086 1.362 . S
C1086 H1078 0.930 . S
C1086 C1085 1.362 . S
C1086 C1089 1.409 . S
C1087 H1079 0.930 . S
C1087 C1088 1.355 . S
C1087 C1089 1.415 . S
C1088 C1087 1.355 . S
C1088 C1090 1.419 . S
C1089 C1084 1.425 . S
C1089 C1086 1.409 . S
C1089 C1087 1.415 . S
C1090 H1080 0.930 . S
C1090 C1088 1.419 . S
C1090 C1091 1.362 . S
C1091 H1081 0.930 . S
C1091 C1084 1.409 . S
C1091 C1090 1.362 . S
H1092 C1098 0.930 . S
H1093 C1101 0.930 . S
H1094 C1102 0.930 . S
H1095 C1103 0.930 . S
H1096 C1106 0.930 . S
H1097 C1107 0.930 . S
C1098 H1092 0.930 . S
C1098 C1099 1.355 . S
C1098 C1100 1.415 . S
C1099 C1098 1.355 . S
C1099 C1101 1.419 . S
C1100 C1098 1.415 . S
C1100 C1105 1.425 . S
C1100 C1107 1.409 . S
C1101 H1093 0.930 . S
C1101 C1099 1.419 . S
C1101 C1102 1.362 . S
C1102 H1094 0.930 . S
C1102 C1101 1.362 . S
C1102 C1105 1.409 . S
C1103 H1095 0.930 . S
C1103 C1104 1.355 . S
C1103 C1105 1.415 . S
C1104 C1103 1.355 . S
C1104 C1106 1.419 . S
C1105 C1100 1.425 . S
C1105 C1102 1.409 . S
C1105 C1103 1.415 . S
C1106 H1096 0.930 . S
C1106 C1104 1.419 . S
C1106 C1107 1.362 . S
C1107 H1097 0.930 . S
C1107 C1100 1.409 . S
C1107 C1106 1.362 . S
H1108 C1114 0.930 . S
H1109 C1117 0.930 . S
H1110 C1118 0.930 . S
H1111 C1119 0.930 . S
H1112 C1122 0.930 . S
H1113 C1123 0.930 . S
C1114 H1108 0.930 . S
C1114 C1115 1.355 . S
C1114 C1116 1.415 . S
C1115 C1114 1.355 . S
C1115 C1117 1.419 . S
C1116 C1114 1.415 . S
C1116 C1121 1.425 . S
C1116 C1123 1.409 . S
C1117 H1109 0.930 . S
C1117 C1115 1.419 . S
C1117 C1118 1.362 . S
C1118 H1110 0.930 . S
C1118 C1117 1.362 . S
C1118 C1121 1.409 . S
C1119 H1111 0.930 . S
C1119 C1120 1.355 . S
C1119 C1121 1.415 . S
C1120 C1119 1.355 . S
C1120 C1122 1.419 . S
C1121 C1116 1.425 . S
C1121 C1118 1.409 . S
C1121 C1119 1.415 . S
C1122 H1112 0.930 . S
C1122 C1120 1.419 . S
C1122 C1123 1.362 . S
C1123 H1113 0.930 . S
C1123 C1116 1.409 . S
C1123 C1122 1.362 . S
H1124 C1130 0.930 . S
H1125 C1133 0.930 . S
H1126 C1134 0.930 . S
H1127 C1135 0.930 . S
H1128 C1138 0.930 . S
H1129 C1139 0.930 . S
C1130 H1124 0.930 . S
C1130 C1131 1.355 . S
C1130 C1132 1.415 . S
C1131 C1130 1.355 . S
C1131 C1133 1.419 . S
C1132 C1130 1.415 . S
C1132 C1137 1.425 . S
C1132 C1139 1.409 . S
C1133 H1125 0.930 . S
C1133 C1131 1.419 . S
C1133 C1134 1.362 . S
C1134 H1126 0.930 . S
C1134 C1133 1.362 . S
C1134 C1137 1.409 . S
C1135 H1127 0.930 . S
C1135 C1136 1.355 . S
C1135 C1137 1.415 . S
C1136 C1135 1.355 . S
C1136 C1138 1.419 . S
C1137 C1132 1.425 . S
C1137 C1134 1.409 . S
C1137 C1135 1.415 . S
C1138 H1128 0.930 . S
C1138 C1136 1.419 . S
C1138 C1139 1.362 . S
C1139 H1129 0.930 . S
C1139 C1132 1.409 . S
C1139 C1138 1.362 . S
H1140 C1146 0.930 . S
H1141 C1149 0.930 . S
H1142 C1150 0.930 . S
H1143 C1151 0.930 . S
H1144 C1154 0.930 . S
H1145 C1155 0.930 . S
C1146 H1140 0.930 . S
C1146 C1147 1.355 . S
C1146 C1148 1.415 . S
C1147 C1146 1.355 . S
C1147 C1149 1.419 . S
C1148 C1146 1.415 . S
C1148 C1153 1.425 . S
C1148 C1155 1.409 . S
C1149 H1141 0.930 . S
C1149 C1147 1.419 . S
C1149 C1150 1.362 . S
C1150 H1142 0.930 . S
C1150 C1149 1.362 . S
C1150 C1153 1.409 . S
C1151 H1143 0.930 . S
C1151 C1152 1.355 . S
C1151 C1153 1.415 . S
C1152 C1151 1.355 . S
C1152 C1154 1.419 . S
C1153 C1148 1.425 . S
C1153 C1150 1.409 . S
C1153 C1151 1.415 . S
C1154 H1144 0.930 . S
C1154 C1152 1.419 . S
C1154 C1155 1.362 . S
C1155 H1145 0.930 . S
C1155 C1148 1.409 . S
C1155 C1154 1.362 . S
H1156 C1162 0.930 . S
H1157 C1165 0.930 . S
H1158 C1166 0.930 . S
H1159 C1167 0.930 . S
H1160 C1170 0.930 . S
H1161 C1171 0.930 . S
C1162 H1156 0.930 . S
C1162 C1163 1.355 . S
C1162 C1164 1.415 . S
C1163 C1162 1.355 . S
C1163 C1165 1.419 . S
C1164 C1162 1.415 . S
C1164 C1169 1.425 . S
C1164 C1171 1.409 . S
C1165 H1157 0.930 . S
C1165 C1163 1.419 . S
C1165 C1166 1.362 . S
C1166 H1158 0.930 . S
C1166 C1165 1.362 . S
C1166 C1169 1.409 . S
C1167 H1159 0.930 . S
C1167 C1168 1.355 . S
C1167 C1169 1.415 . S
C1168 C1167 1.355 . S
C1168 C1170 1.419 . S
C1169 C1164 1.425 . S
C1169 C1166 1.409 . S
C1169 C1167 1.415 . S
C1170 H1160 0.930 . S
C1170 C1168 1.419 . S
C1170 C1171 1.362 . S
C1171 H1161 0.930 . S
C1171 C1164 1.409 . S
C1171 C1170 1.362 . S
H1172 C1178 0.930 . S
H1173 C1181 0.930 . S
H1174 C1182 0.930 . S
H1175 C1183 0.930 . S
H1176 C1186 0.930 . S
H1177 C1187 0.930 . S
C1178 H1172 0.930 . S
C1178 C1179 1.355 . S
C1178 C1180 1.415 . S
C1179 C1178 1.355 . S
C1179 C1181 1.419 . S
C1180 C1178 1.415 . S
C1180 C1185 1.425 . S
C1180 C1187 1.409 . S
C1181 H1173 0.930 . S
C1181 C1179 1.419 . S
C1181 C1182 1.362 . S
C1182 H1174 0.930 . S
C1182 C1181 1.362 . S
C1182 C1185 1.409 . S
C1183 H1175 0.930 . S
C1183 C1184 1.355 . S
C1183 C1185 1.415 . S
C1184 C1183 1.355 . S
C1184 C1186 1.419 . S
C1185 C1180 1.425 . S
C1185 C1182 1.409 . S
C1185 C1183 1.415 . S
C1186 H1176 0.930 . S
C1186 C1184 1.419 . S
C1186 C1187 1.362 . S
C1187 H1177 0.930 . S
C1187 C1180 1.409 . S
C1187 C1186 1.362 . S
H1188 C1194 0.930 . S
H1189 C1197 0.930 . S
H1190 C1198 0.930 . S
H1191 C1199 0.930 . S
H1192 C1202 0.930 . S
H1193 C1203 0.930 . S
C1194 H1188 0.930 . S
C1194 C1195 1.355 . S
C1194 C1196 1.415 . S
C1195 C1194 1.355 . S
C1195 C1197 1.419 . S
C1196 C1194 1.415 . S
C1196 C1201 1.425 . S
C1196 C1203 1.409 . S
C1197 H1189 0.930 . S
C1197 C1195 1.419 . S
C1197 C1198 1.362 . S
C1198 H1190 0.930 . S
C1198 C1197 1.362 . S
C1198 C1201 1.409 . S
C1199 H1191 0.930 . S
C1199 C1200 1.355 . S
C1199 C1201 1.415 . S
C1200 C1199 1.355 . S
C1200 C1202 1.419 . S
C1201 C1196 1.425 . S
C1201 C1198 1.409 . S
C1201 C1199 1.415 . S
C1202 H1192 0.930 . S
C1202 C1200 1.419 . S
C1202 C1203 1.362 . S
C1203 H1193 0.930 . S
C1203 C1196 1.409 . S
C1203 C1202 1.362 . S
H1204 C1210 0.930 . S
H1205 C1213 0.930 . S
H1206 C1214 0.930 . S
H1207 C1215 0.930 . S
H1208 C1218 0.930 . S
H1209 C1219 0.930 . S
C1210 H1204 0.930 . S
C1210 C1211 1.355 . S
C1210 C1212 1.415 . S
C1211 C1210 1.355 . S
C1211 C1213 1.419 . S
C1212 C1210 1.415 . S
C1212 C1217 1.425 . S
C1212 C1219 1.409 . S
C1213 H1205 0.930 . S
C1213 C1211 1.419 . S
C1213 C1214 1.362 . S
C1214 H1206 0.930 . S
C1214 C1213 1.362 . S
C1214 C1217 1.409 . S
C1215 H1207 0.930 . S
C1215 C1216 1.355 . S
C1215 C1217 1.415 . S
C1216 C1215 1.355 . S
C1216 C1218 1.419 . S
C1217 C1212 1.425 . S
C1217 C1214 1.409 . S
C1217 C1215 1.415 . S
C1218 H1208 0.930 . S
C1218 C1216 1.419 . S
C1218 C1219 1.362 . S
C1219 H1209 0.930 . S
C1219 C1212 1.409 . S
C1219 C1218 1.362 . S
H1220 C1226 0.930 . S
H1221 C1229 0.930 . S
H1222 C1230 0.930 . S
H1223 C1231 0.930 . S
H1224 C1234 0.930 . S
H1225 C1235 0.930 . S
C1226 H1220 0.930 . S
C1226 C1227 1.355 . S
C1226 C1228 1.415 . S
C1227 C1226 1.355 . S
C1227 C1229 1.419 . S
C1228 C1226 1.415 . S
C1228 C1233 1.425 . S
C1228 C1235 1.409 . S
C1229 H1221 0.930 . S
C1229 C1227 1.419 . S
C1229 C1230 1.362 . S
C1230 H1222 0.930 . S
C1230 C1229 1.362 . S
C1230 C1233 1.409 . S
C1231 H1223 0.930 . S
C1231 C1232 1.355 . S
C1231 C1233 1.415 . S
C1232 C1231 1.355 . S
C1232 C1234 1.419 . S
C1233 C1228 1.425 . S
C1233 C1230 1.409 . S
C1233 C1231 1.415 . S
C1234 H1224 0.930 . S
C1234 C1232 1.419 . S
C1234 C1235 1.362 . S
C1235 H1225 0.930 . S
C1235 C1228 1.409 . S
C1235 C1234 1.362 . S
H1236 C1242 0.930 . S
H1237 C1245 0.930 . S
H1238 C1246 0.930 . S
H1239 C1247 0.930 . S
H1240 C1250 0.930 . S
H1241 C1251 0.930 . S
C1242 H1236 0.930 . S
C1242 C1243 1.355 . S
C1242 C1244 1.415 . S
C1243 C1242 1.355 . S
C1243 C1245 1.419 . S
C1244 C1242 1.415 . S
C1244 C1249 1.425 . S
C1244 C1251 1.409 . S
C1245 H1237 0.930 . S
C1245 C1243 1.419 . S
C1245 C1246 1.362 . S
C1246 H1238 0.930 . S
C1246 C1245 1.362 . S
C1246 C1249 1.409 . S
C1247 H1239 0.930 . S
C1247 C1248 1.355 . S
C1247 C1249 1.415 . S
C1248 C1247 1.355 . S
C1248 C1250 1.419 . S
C1249 C1244 1.425 . S
C1249 C1246 1.409 . S
C1249 C1247 1.415 . S
C1250 H1240 0.930 . S
C1250 C1248 1.419 . S
C1250 C1251 1.362 . S
C1251 H1241 0.930 . S
C1251 C1244 1.409 . S
C1251 C1250 1.362 . S
H1252 C1258 0.930 . S
H1253 C1261 0.930 . S
H1254 C1262 0.930 . S
H1255 C1263 0.930 . S
H1256 C1266 0.930 . S
H1257 C1267 0.930 . S
C1258 H1252 0.930 . S
C1258 C1259 1.355 . S
C1258 C1260 1.415 . S
C1259 C1258 1.355 . S
C1259 C1261 1.419 . S
C1260 C1258 1.415 . S
C1260 C1265 1.425 . S
C1260 C1267 1.409 . S
C1261 H1253 0.930 . S
C1261 C1259 1.419 . S
C1261 C1262 1.362 . S
C1262 H1254 0.930 . S
C1262 C1261 1.362 . S
C1262 C1265 1.409 . S
C1263 H1255 0.930 . S
C1263 C1264 1.355 . S
C1263 C1265 1.415 . S
C1264 C1263 1.355 . S
C1264 C1266 1.419 . S
C1265 C1260 1.425 . S
C1265 C1262 1.409 . S
C1265 C1263 1.415 . S
C1266 H1256 0.930 . S
C1266 C1264 1.419 . S
C1266 C1267 1.362 . S
C1267 H1257 0.930 . S
C1267 C1260 1.409 . S
C1267 C1266 1.362 . S
H1268 C1274 0.930 . S
H1269 C1277 0.930 . S
H1270 C1278 0.930 . S
H1271 C1279 0.930 . S
H1272 C1282 0.930 . S
H1273 C1283 0.930 . S
C1274 H1268 0.930 . S
C1274 C1275 1.355 . S
C1274 C1276 1.415 . S
C1275 C1274 1.355 . S
C1275 C1277 1.419 . S
C1276 C1274 1.415 . S
C1276 C1281 1.425 . S
C1276 C1283 1.409 . S
C1277 H1269 0.930 . S
C1277 C1275 1.419 . S
C1277 C1278 1.362 . S
C1278 H1270 0.930 . S
C1278 C1277 1.362 . S
C1278 C1281 1.409 . S
C1279 H1271 0.930 . S
C1279 C1280 1.355 . S
C1279 C1281 1.415 . S
C1280 C1279 1.355 . S
C1280 C1282 1.419 . S
C1281 C1276 1.425 . S
C1281 C1278 1.409 . S
C1281 C1279 1.415 . S
C1282 H1272 0.930 . S
C1282 C1280 1.419 . S
C1282 C1283 1.362 . S
C1283 H1273 0.930 . S
C1283 C1276 1.409 . S
C1283 C1282 1.362 . S
H1284 C1290 0.930 . S
H1285 C1293 0.930 . S
H1286 C1294 0.930 . S
H1287 C1295 0.930 . S
H1288 C1298 0.930 . S
H1289 C1299 0.930 . S
C1290 H1284 0.930 . S
C1290 C1291 1.355 . S
C1290 C1292 1.415 . S
C1291 C1290 1.355 . S
C1291 C1293 1.419 . S
C1292 C1290 1.415 . S
C1292 C1297 1.425 . S
C1292 C1299 1.409 . S
C1293 H1285 0.930 . S
C1293 C1291 1.419 . S
C1293 C1294 1.362 . S
C1294 H1286 0.930 . S
C1294 C1293 1.362 . S
C1294 C1297 1.409 . S
C1295 H1287 0.930 . S
C1295 C1296 1.355 . S
C1295 C1297 1.415 . S
C1296 C1295 1.355 . S
C1296 C1298 1.419 . S
C1297 C1292 1.425 . S
C1297 C1294 1.409 . S
C1297 C1295 1.415 . S
C1298 H1288 0.930 . S
C1298 C1296 1.419 . S
C1298 C1299 1.362 . S
C1299 H1289 0.930 . S
C1299 C1292 1.409 . S
C1299 C1298 1.362 . S
H1300 C1306 0.930 . S
H1301 C1309 0.930 . S
H1302 C1310 0.930 . S
H1303 C1311 0.930 . S
H1304 C1314 0.930 . S
H1305 C1315 0.930 . S
C1306 H1300 0.930 . S
C1306 C1307 1.355 . S
C1306 C1308 1.415 . S
C1307 C1306 1.355 . S
C1307 C1309 1.419 . S
C1308 C1306 1.415 . S
C1308 C1313 1.425 . S
C1308 C1315 1.409 . S
C1309 H1301 0.930 . S
C1309 C1307 1.419 . S
C1309 C1310 1.362 . S
C1310 H1302 0.930 . S
C1310 C1309 1.362 . S
C1310 C1313 1.409 . S
C1311 H1303 0.930 . S
C1311 C1312 1.355 . S
C1311 C1313 1.415 . S
C1312 C1311 1.355 . S
C1312 C1314 1.419 . S
C1313 C1308 1.425 . S
C1313 C1310 1.409 . S
C1313 C1311 1.415 . S
C1314 H1304 0.930 . S
C1314 C1312 1.419 . S
C1314 C1315 1.362 . S
C1315 H1305 0.930 . S
C1315 C1308 1.409 . S
C1315 C1314 1.362 . S
H1316 C1322 0.930 . S
H1317 C1325 0.930 . S
H1318 C1326 0.930 . S
H1319 C1327 0.930 . S
H1320 C1330 0.930 . S
H1321 C1331 0.930 . S
C1322 H1316 0.930 . S
C1322 C1323 1.355 . S
C1322 C1324 1.415 . S
C1323 C1322 1.355 . S
C1323 C1325 1.419 . S
C1324 C1322 1.415 . S
C1324 C1329 1.425 . S
C1324 C1331 1.409 . S
C1325 H1317 0.930 . S
C1325 C1323 1.419 . S
C1325 C1326 1.362 . S
C1326 H1318 0.930 . S
C1326 C1325 1.362 . S
C1326 C1329 1.409 . S
C1327 H1319 0.930 . S
C1327 C1328 1.355 . S
C1327 C1329 1.415 . S
C1328 C1327 1.355 . S
C1328 C1330 1.419 . S
C1329 C1324 1.425 . S
C1329 C1326 1.409 . S
C1329 C1327 1.415 . S
C1330 H1320 0.930 . S
C1330 C1328 1.419 . S
C1330 C1331 1.362 . S
C1331 H1321 0.930 . S
C1331 C1324 1.409 . S
C1331 C1330 1.362 . S
H1332 C1338 0.930 . S
H1333 C1341 0.930 . S
H1334 C1342 0.930 . S
H1335 C1343 0.930 . S
H1336 C1346 0.930 . S
H1337 C1347 0.930 . S
C1338 H1332 0.930 . S
C1338 C1339 1.355 . S
C1338 C1340 1.415 . S
C1339 C1338 1.355 . S
C1339 C1341 1.419 . S
C1340 C1338 1.415 . S
C1340 C1345 1.425 . S
C1340 C1347 1.409 . S
C1341 H1333 0.930 . S
C1341 C1339 1.419 . S
C1341 C1342 1.362 . S
C1342 H1334 0.930 . S
C1342 C1341 1.362 . S
C1342 C1345 1.409 . S
C1343 H1335 0.930 . S
C1343 C1344 1.355 . S
C1343 C1345 1.415 . S
C1344 C1343 1.355 . S
C1344 C1346 1.419 . S
C1345 C1340 1.425 . S
C1345 C1342 1.409 . S
C1345 C1343 1.415 . S
C1346 H1336 0.930 . S
C1346 C1344 1.419 . S
C1346 C1347 1.362 . S
C1347 H1337 0.930 . S
C1347 C1340 1.409 . S
C1347 C1346 1.362 . S
H1348 C1354 0.930 . S
H1349 C1357 0.930 . S
H1350 C1358 0.930 . S
H1351 C1359 0.930 . S
H1352 C1362 0.930 . S
H1353 C1363 0.930 . S
C1354 H1348 0.930 . S
C1354 C1355 1.355 . S
C1354 C1356 1.415 . S
C1355 C1354 1.355 . S
C1355 C1357 1.419 . S
C1356 C1354 1.415 . S
C1356 C1361 1.425 . S
C1356 C1363 1.409 . S
C1357 H1349 0.930 . S
C1357 C1355 1.419 . S
C1357 C1358 1.362 . S
C1358 H1350 0.930 . S
C1358 C1357 1.362 . S
C1358 C1361 1.409 . S
C1359 H1351 0.930 . S
C1359 C1360 1.355 . S
C1359 C1361 1.415 . S
C1360 C1359 1.355 . S
C1360 C1362 1.419 . S
C1361 C1356 1.425 . S
C1361 C1358 1.409 . S
C1361 C1359 1.415 . S
C1362 H1352 0.930 . S
C1362 C1360 1.419 . S
C1362 C1363 1.362 . S
C1363 H1353 0.930 . S
C1363 C1356 1.409 . S
C1363 C1362 1.362 . S
C608 C282 1.295 . S
C603 N2 1.272 . S
C624 C325 2.510 . S
C619 C7 2.541 . S
C640 C371 1.738 . S
C635 N12 1.587 . S
C651 C16 1.874 . S
C656 C414 1.916 . S
C672 C454 2.662 . S
C667 C30 2.644 1_565 S
C688 C482 1.547 . S
C683 N35 1.508 . S
C699 C39 2.109 . S
C704 C525 2.066 . S
C720 C571 1.162 . S
C715 N25 1.182 . S
C736 C286 1.263 . S
C731 N58 1.221 . S
C747 N81 2.059 . S
C752 C335 1.997 . S
C768 C365 1.448 . S
C763 N104 1.425 . S
C779 N127 1.345 . S
C784 C402 1.254 . S
C800 C442 1.053 . S
C795 N48 1.047 1_565 S
C816 C486 1.502 . S
C811 N71 1.471 1_556 S
C827 N94 1.523 . S
C832 C535 1.428 . S
C848 C565 1.844 . S
C843 N117 1.873 . S
C859 C85 2.568 . S
C864 C294 2.450 . S
C875 C122 2.514 . S
C880 C446 2.478 . S
C891 C53 2.151 . S
C896 C494 2.039 . S
C912 C531 1.400 . S
C907 C76 1.447 1_655 S
C928 C575 1.948 . S
C923 C99 1.934 . S
C944 C375 2.024 . S
C939 C131 2.018 . S
C960 C406 1.879 . S
C955 C62 1.914 1_565 S
C971 C108 1.249 . S
C976 C331 1.194 . S
C992 C562 1.391 . S
C987 N140 1.345 . S
C1003 C145 2.564 . S
C1008 C445 2.520 . S
C1024 C491 1.615 . S
C1019 N150 1.464 . S
C1035 C154 1.839 . S
C1040 C534 1.868 . S
C1056 C334 2.660 . S
C1051 C168 2.641 . S
C1067 N173 1.271 . S
C1072 C362 1.341 . S
C1088 C405 2.064 . S
C1083 C177 2.103 . S
C1104 C291 1.262 . S
C1099 N163 1.197 . S
C1120 C566 1.730 . S
C1115 C200 1.722 . S
C1136 C455 2.237 . S
C1131 N219 2.312 . S
C1147 N242 1.647 . S
C1152 C485 1.650 . S
C1168 C522 1.509 . S
C1163 C269 1.608 . S
C1184 C322 1.236 . S
C1179 C191 1.315 . S
C1195 N209 1.691 . S
C1200 C366 1.757 . S
C1211 N232 1.811 . S
C1216 C415 1.701 . S
C1227 C260 2.465 . S
C1232 C285 2.373 . S
C1243 C223 2.270 . S
C1248 C574 2.132 . S
C1259 N255 2.057 . S
C1264 C326 2.051 . S
C1275 N186 1.667 . S
C1280 C374 1.567 . S
C1296 C411 1.169 . S
C1291 C214 1.220 . S
C1312 C295 1.613 . S
C1307 C237 1.595 . S
C1328 C495 1.601 . S
C1323 N265 1.492 . S
C1344 C526 1.506 . S
C1339 N196 1.497 . S
C1360 C451 0.968 . S
C1355 C246 0.960 . S
