# Generated by pormake.
# Topology gar, (4,6)-cn, num edge types: 1
# Building blocks:
#     Node 0, Type 0, BuildingBlock: QUQFOY_clean_sbu_3, # of connection points: 4
#     Node 1, Type 0, BuildingBlock: QUQFOY_clean_sbu_3, # of connection points: 4
#     Node 2, Type 0, BuildingBlock: QUQFOY_clean_sbu_3, # of connection points: 4
#     Node 3, Type 0, BuildingBlock: QUQFOY_clean_sbu_3, # of connection points: 4
#     Node 4, Type 0, BuildingBlock: QUQFOY_clean_sbu_3, # of connection points: 4
#     Node 5, Type 0, BuildingBlock: QUQFOY_clean_sbu_3, # of connection points: 4
#     Node 6, Type 0, BuildingBlock: QUQFOY_clean_sbu_3, # of connection points: 4
#     Node 7, Type 0, BuildingBlock: QUQFOY_clean_sbu_3, # of connection points: 4
#     Node 8, Type 0, BuildingBlock: QUQFOY_clean_sbu_3, # of connection points: 4
#     Node 9, Type 0, BuildingBlock: QUQFOY_clean_sbu_3, # of connection points: 4
#     Node 10, Type 0, BuildingBlock: QUQFOY_clean_sbu_3, # of connection points: 4
#     Node 11, Type 0, BuildingBlock: QUQFOY_clean_sbu_3, # of connection points: 4
#     Node 12, Type 0, BuildingBlock: QUQFOY_clean_sbu_3, # of connection points: 4
#     Node 13, Type 0, BuildingBlock: QUQFOY_clean_sbu_3, # of connection points: 4
#     Node 14, Type 0, BuildingBlock: QUQFOY_clean_sbu_3, # of connection points: 4
#     Node 15, Type 0, BuildingBlock: QUQFOY_clean_sbu_3, # of connection points: 4
#     Node 16, Type 0, BuildingBlock: QUQFOY_clean_sbu_3, # of connection points: 4
#     Node 17, Type 0, BuildingBlock: QUQFOY_clean_sbu_3, # of connection points: 4
#     Node 18, Type 0, BuildingBlock: QUQFOY_clean_sbu_3, # of connection points: 4
#     Node 19, Type 0, BuildingBlock: QUQFOY_clean_sbu_3, # of connection points: 4
#     Node 20, Type 0, BuildingBlock: QUQFOY_clean_sbu_3, # of connection points: 4
#     Node 21, Type 0, BuildingBlock: QUQFOY_clean_sbu_3, # of connection points: 4
#     Node 22, Type 0, BuildingBlock: QUQFOY_clean_sbu_3, # of connection points: 4
#     Node 23, Type 0, BuildingBlock: QUQFOY_clean_sbu_3, # of connection points: 4
#     Node 24, Type 1, BuildingBlock: BETGAK_clean_sbu_0, # of connection points: 6
#     Node 25, Type 1, BuildingBlock: BETGAK_clean_sbu_0, # of connection points: 6
#     Node 26, Type 1, BuildingBlock: BETGAK_clean_sbu_0, # of connection points: 6
#     Node 27, Type 1, BuildingBlock: BETGAK_clean_sbu_0, # of connection points: 6
#     Node 28, Type 1, BuildingBlock: BETGAK_clean_sbu_0, # of connection points: 6
#     Node 29, Type 1, BuildingBlock: BETGAK_clean_sbu_0, # of connection points: 6
#     Node 30, Type 1, BuildingBlock: BETGAK_clean_sbu_0, # of connection points: 6
#     Node 31, Type 1, BuildingBlock: BETGAK_clean_sbu_0, # of connection points: 6
#     Node 32, Type 1, BuildingBlock: BETGAK_clean_sbu_0, # of connection points: 6
#     Node 33, Type 1, BuildingBlock: BETGAK_clean_sbu_0, # of connection points: 6
#     Node 34, Type 1, BuildingBlock: BETGAK_clean_sbu_0, # of connection points: 6
#     Node 35, Type 1, BuildingBlock: BETGAK_clean_sbu_0, # of connection points: 6
#     Node 36, Type 1, BuildingBlock: BETGAK_clean_sbu_0, # of connection points: 6
#     Node 37, Type 1, BuildingBlock: BETGAK_clean_sbu_0, # of connection points: 6
#     Node 38, Type 1, BuildingBlock: BETGAK_clean_sbu_0, # of connection points: 6
#     Node 39, Type 1, BuildingBlock: BETGAK_clean_sbu_0, # of connection points: 6
#     Edge 40, Type (0, 1), BuildingBlock: UVAHIK_clean_linker_0, # of connection points: 2
#     Edge 41, Type (0, 1), BuildingBlock: UVAHIK_clean_linker_0, # of connection points: 2
#     Edge 42, Type (0, 1), BuildingBlock: UVAHIK_clean_linker_0, # of connection points: 2
#     Edge 43, Type (0, 1), BuildingBlock: UVAHIK_clean_linker_0, # of connection points: 2
#     Edge 44, Type (0, 1), BuildingBlock: UVAHIK_clean_linker_0, # of connection points: 2
#     Edge 45, Type (0, 1), BuildingBlock: UVAHIK_clean_linker_0, # of connection points: 2
#     Edge 46, Type (0, 1), BuildingBlock: UVAHIK_clean_linker_0, # of connection points: 2
#     Edge 47, Type (0, 1), BuildingBlock: UVAHIK_clean_linker_0, # of connection points: 2
#     Edge 48, Type (0, 1), BuildingBlock: UVAHIK_clean_linker_0, # of connection points: 2
#     Edge 49, Type (0, 1), BuildingBlock: UVAHIK_clean_linker_0, # of connection points: 2
#     Edge 50, Type (0, 1), BuildingBlock: UVAHIK_clean_linker_0, # of connection points: 2
#     Edge 51, Type (0, 1), BuildingBlock: UVAHIK_clean_linker_0, # of connection points: 2
#     Edge 52, Type (0, 1), BuildingBlock: UVAHIK_clean_linker_0, # of connection points: 2
#     Edge 53, Type (0, 1), BuildingBlock: UVAHIK_clean_linker_0, # of connection points: 2
#     Edge 54, Type (0, 1), BuildingBlock: UVAHIK_clean_linker_0, # of connection points: 2
#     Edge 55, Type (0, 1), BuildingBlock: UVAHIK_clean_linker_0, # of connection points: 2
#     Edge 56, Type (0, 1), BuildingBlock: UVAHIK_clean_linker_0, # of connection points: 2
#     Edge 57, Type (0, 1), BuildingBlock: UVAHIK_clean_linker_0, # of connection points: 2
#     Edge 58, Type (0, 1), BuildingBlock: UVAHIK_clean_linker_0, # of connection points: 2
#     Edge 59, Type (0, 1), BuildingBlock: UVAHIK_clean_linker_0, # of connection points: 2
#     Edge 60, Type (0, 1), BuildingBlock: UVAHIK_clean_linker_0, # of connection points: 2
#     Edge 61, Type (0, 1), BuildingBlock: UVAHIK_clean_linker_0, # of connection points: 2
#     Edge 62, Type (0, 1), BuildingBlock: UVAHIK_clean_linker_0, # of connection points: 2
#     Edge 63, Type (0, 1), BuildingBlock: UVAHIK_clean_linker_0, # of connection points: 2
#     Edge 64, Type (0, 1), BuildingBlock: UVAHIK_clean_linker_0, # of connection points: 2
#     Edge 65, Type (0, 1), BuildingBlock: UVAHIK_clean_linker_0, # of connection points: 2
#     Edge 66, Type (0, 1), BuildingBlock: UVAHIK_clean_linker_0, # of connection points: 2
#     Edge 67, Type (0, 1), BuildingBlock: UVAHIK_clean_linker_0, # of connection points: 2
#     Edge 68, Type (0, 1), BuildingBlock: UVAHIK_clean_linker_0, # of connection points: 2
#     Edge 69, Type (0, 1), BuildingBlock: UVAHIK_clean_linker_0, # of connection points: 2
#     Edge 70, Type (0, 1), BuildingBlock: UVAHIK_clean_linker_0, # of connection points: 2
#     Edge 71, Type (0, 1), BuildingBlock: UVAHIK_clean_linker_0, # of connection points: 2
#     Edge 72, Type (0, 1), BuildingBlock: UVAHIK_clean_linker_0, # of connection points: 2
#     Edge 73, Type (0, 1), BuildingBlock: UVAHIK_clean_linker_0, # of connection points: 2
#     Edge 74, Type (0, 1), BuildingBlock: UVAHIK_clean_linker_0, # of connection points: 2
#     Edge 75, Type (0, 1), BuildingBlock: UVAHIK_clean_linker_0, # of connection points: 2
#     Edge 76, Type (0, 1), BuildingBlock: UVAHIK_clean_linker_0, # of connection points: 2
#     Edge 77, Type (0, 1), BuildingBlock: UVAHIK_clean_linker_0, # of connection points: 2
#     Edge 78, Type (0, 1), BuildingBlock: UVAHIK_clean_linker_0, # of connection points: 2
#     Edge 79, Type (0, 1), BuildingBlock: UVAHIK_clean_linker_0, # of connection points: 2
#     Edge 80, Type (0, 1), BuildingBlock: UVAHIK_clean_linker_0, # of connection points: 2
#     Edge 81, Type (0, 1), BuildingBlock: UVAHIK_clean_linker_0, # of connection points: 2
#     Edge 82, Type (0, 1), BuildingBlock: UVAHIK_clean_linker_0, # of connection points: 2
#     Edge 83, Type (0, 1), BuildingBlock: UVAHIK_clean_linker_0, # of connection points: 2
#     Edge 84, Type (0, 1), BuildingBlock: UVAHIK_clean_linker_0, # of connection points: 2
#     Edge 85, Type (0, 1), BuildingBlock: UVAHIK_clean_linker_0, # of connection points: 2
#     Edge 86, Type (0, 1), BuildingBlock: UVAHIK_clean_linker_0, # of connection points: 2
#     Edge 87, Type (0, 1), BuildingBlock: UVAHIK_clean_linker_0, # of connection points: 2
#     Edge 88, Type (0, 1), BuildingBlock: UVAHIK_clean_linker_0, # of connection points: 2
#     Edge 89, Type (0, 1), BuildingBlock: UVAHIK_clean_linker_0, # of connection points: 2
#     Edge 90, Type (0, 1), BuildingBlock: UVAHIK_clean_linker_0, # of connection points: 2
#     Edge 91, Type (0, 1), BuildingBlock: UVAHIK_clean_linker_0, # of connection points: 2
#     Edge 92, Type (0, 1), BuildingBlock: UVAHIK_clean_linker_0, # of connection points: 2
#     Edge 93, Type (0, 1), BuildingBlock: UVAHIK_clean_linker_0, # of connection points: 2
#     Edge 94, Type (0, 1), BuildingBlock: UVAHIK_clean_linker_0, # of connection points: 2
#     Edge 95, Type (0, 1), BuildingBlock: UVAHIK_clean_linker_0, # of connection points: 2
#     Edge 96, Type (0, 1), BuildingBlock: UVAHIK_clean_linker_0, # of connection points: 2
#     Edge 97, Type (0, 1), BuildingBlock: UVAHIK_clean_linker_0, # of connection points: 2
#     Edge 98, Type (0, 1), BuildingBlock: UVAHIK_clean_linker_0, # of connection points: 2
#     Edge 99, Type (0, 1), BuildingBlock: UVAHIK_clean_linker_0, # of connection points: 2
#     Edge 100, Type (0, 1), BuildingBlock: UVAHIK_clean_linker_0, # of connection points: 2
#     Edge 101, Type (0, 1), BuildingBlock: UVAHIK_clean_linker_0, # of connection points: 2
#     Edge 102, Type (0, 1), BuildingBlock: UVAHIK_clean_linker_0, # of connection points: 2
#     Edge 103, Type (0, 1), BuildingBlock: UVAHIK_clean_linker_0, # of connection points: 2
#     Edge 104, Type (0, 1), BuildingBlock: UVAHIK_clean_linker_0, # of connection points: 2
#     Edge 105, Type (0, 1), BuildingBlock: UVAHIK_clean_linker_0, # of connection points: 2
#     Edge 106, Type (0, 1), BuildingBlock: UVAHIK_clean_linker_0, # of connection points: 2
#     Edge 107, Type (0, 1), BuildingBlock: UVAHIK_clean_linker_0, # of connection points: 2
#     Edge 108, Type (0, 1), BuildingBlock: UVAHIK_clean_linker_0, # of connection points: 2
#     Edge 109, Type (0, 1), BuildingBlock: UVAHIK_clean_linker_0, # of connection points: 2
#     Edge 110, Type (0, 1), BuildingBlock: UVAHIK_clean_linker_0, # of connection points: 2
#     Edge 111, Type (0, 1), BuildingBlock: UVAHIK_clean_linker_0, # of connection points: 2
#     Edge 112, Type (0, 1), BuildingBlock: UVAHIK_clean_linker_0, # of connection points: 2
#     Edge 113, Type (0, 1), BuildingBlock: UVAHIK_clean_linker_0, # of connection points: 2
#     Edge 114, Type (0, 1), BuildingBlock: UVAHIK_clean_linker_0, # of connection points: 2
#     Edge 115, Type (0, 1), BuildingBlock: UVAHIK_clean_linker_0, # of connection points: 2
#     Edge 116, Type (0, 1), BuildingBlock: UVAHIK_clean_linker_0, # of connection points: 2
#     Edge 117, Type (0, 1), BuildingBlock: UVAHIK_clean_linker_0, # of connection points: 2
#     Edge 118, Type (0, 1), BuildingBlock: UVAHIK_clean_linker_0, # of connection points: 2
#     Edge 119, Type (0, 1), BuildingBlock: UVAHIK_clean_linker_0, # of connection points: 2
#     Edge 120, Type (0, 1), BuildingBlock: UVAHIK_clean_linker_0, # of connection points: 2
#     Edge 121, Type (0, 1), BuildingBlock: UVAHIK_clean_linker_0, # of connection points: 2
#     Edge 122, Type (0, 1), BuildingBlock: UVAHIK_clean_linker_0, # of connection points: 2
#     Edge 123, Type (0, 1), BuildingBlock: UVAHIK_clean_linker_0, # of connection points: 2
#     Edge 124, Type (0, 1), BuildingBlock: UVAHIK_clean_linker_0, # of connection points: 2
#     Edge 125, Type (0, 1), BuildingBlock: UVAHIK_clean_linker_0, # of connection points: 2
#     Edge 126, Type (0, 1), BuildingBlock: UVAHIK_clean_linker_0, # of connection points: 2
#     Edge 127, Type (0, 1), BuildingBlock: UVAHIK_clean_linker_0, # of connection points: 2
#     Edge 128, Type (0, 1), BuildingBlock: UVAHIK_clean_linker_0, # of connection points: 2
#     Edge 129, Type (0, 1), BuildingBlock: UVAHIK_clean_linker_0, # of connection points: 2
#     Edge 130, Type (0, 1), BuildingBlock: UVAHIK_clean_linker_0, # of connection points: 2
#     Edge 131, Type (0, 1), BuildingBlock: UVAHIK_clean_linker_0, # of connection points: 2
#     Edge 132, Type (0, 1), BuildingBlock: UVAHIK_clean_linker_0, # of connection points: 2
#     Edge 133, Type (0, 1), BuildingBlock: UVAHIK_clean_linker_0, # of connection points: 2
#     Edge 134, Type (0, 1), BuildingBlock: UVAHIK_clean_linker_0, # of connection points: 2
#     Edge 135, Type (0, 1), BuildingBlock: UVAHIK_clean_linker_0, # of connection points: 2
# Relax obj value: 0.164
# Max RMSD: 0.294
# Mean RMSD: 0.148
data_MOF--net-gar--node1-QUQFOY_clean_sbu_3--node2-BETGAK_clean_sbu_0--edge1-UVAHIK_clean_linker_0
_symmetry_space_group_name_H-M    P1
_symmetry_Int_Tables_number       1
_symmetry_cell_setting            triclinic
loop_
_symmetry_equiv_pos_as_xyz
'x, y, z'
_cell_length_a     78.43797
_cell_length_b     74.086457
_cell_length_c     73.64157
_cell_angle_alpha  99.078976
_cell_angle_beta   94.836418
_cell_angle_gamma 102.50232
loop_
_atom_site_label
_atom_site_type_symbol
_atom_site_fract_x
_atom_site_fract_y
_atom_site_fract_z
_atom_type_partial_charge
C0 C 0.06481 0.31893 0.3532 0.0
O1 O 0.0753 0.32922 0.34468 0.0
Cd2 Cd 0.10661 0.33572 0.34931 0.0
O3 O 0.07047 0.31102 0.36587 0.0
Cd4 Cd 0.09821 0.30821 0.38242 0.0
C5 C 0.111 0.35618 0.39537 0.0
O6 O 0.1105 0.30624 0.3546 0.0
O7 O 0.1286 0.30498 0.37764 0.0
O8 O 0.08218 0.27695 0.38467 0.0
C9 C 0.12585 0.30562 0.36055 0.0
O10 O 0.11331 0.35769 0.3787 0.0
C11 C 0.08642 0.27879 0.40201 0.0
O12 O 0.10512 0.34022 0.39977 0.0
O13 O 0.09657 0.29426 0.41018 0.0
C14 C 0.971 0.73459 0.67592 0.0
O15 O 0.98235 0.72931 0.68587 0.0
Cd16 Cd 0.01328 0.73653 0.68413 0.0
O17 O 0.97552 0.74402 0.66332 0.0
Cd18 Cd 1.00283 0.75572 0.65007 0.0
C19 C 0.01178 0.71245 0.64057 0.0
O20 O 0.01981 0.76859 0.68002 0.0
O21 O 0.03471 0.76895 0.65679 0.0
O22 O 0.99242 0.78289 0.64304 0.0
C23 C 0.03437 0.77383 0.67402 0.0
O24 O 0.01728 0.7143 0.65767 0.0
C25 C 0.99546 0.78065 0.62626 0.0
O26 O 0.00487 0.72476 0.63458 0.0
O27 O 1.00112 0.76628 0.62034 0.0
C28 C 0.55512 0.80247 0.83341 0.0
O29 O 0.56475 0.81474 0.82605 0.0
Cd30 Cd 0.59495 0.82992 0.83634 0.0
O31 O 0.56101 0.79733 0.84795 0.0
Cd32 Cd 0.58792 0.80265 0.86998 0.0
C33 C 0.59155 0.85027 0.88091 0.0
O34 O 0.60461 0.80419 0.84519 0.0
O35 O 0.62034 0.80546 0.87086 0.0
O36 O 0.57656 0.77036 0.87347 0.0
C37 C 0.61971 0.80651 0.85381 0.0
O38 O 0.59497 0.85218 0.86461 0.0
C39 C 0.57867 0.77388 0.89108 0.0
O40 O 0.58793 0.83412 0.8855 0.0
O41 O 0.58558 0.79077 0.89884 0.0
C42 C 0.47076 0.23389 0.17534 0.0
O43 O 0.4819 0.22892 0.18585 0.0
Cd44 Cd 0.51293 0.23693 0.18552 0.0
O45 O 0.47566 0.24362 0.16308 0.0
Cd46 Cd 0.50356 0.25675 0.15142 0.0
C47 C 0.51404 0.21422 0.1418 0.0
O48 O 0.5193 0.26926 0.18205 0.0
O49 O 0.53513 0.27128 0.15965 0.0
O50 O 0.49287 0.28384 0.14457 0.0
C51 C 0.5341 0.27526 0.17685 0.0
O52 O 0.51772 0.21525 0.15915 0.0
C53 C 0.49611 0.28189 0.12786 0.0
O54 O 0.50798 0.22692 0.1355 0.0
O55 O 0.5021 0.26777 0.1219 0.0
C56 C 0.05026 0.80448 0.15597 0.0
O57 O 0.06179 0.79819 0.16452 0.0
Cd58 Cd 0.08941 0.79517 0.15466 0.0
O59 O 0.05325 0.81075 0.14107 0.0
Cd60 Cd 0.07835 0.81528 0.12159 0.0
C61 C 0.07478 0.76818 0.11113 0.0
O62 O 0.10344 0.82364 0.14594 0.0
O63 O 0.10941 0.81396 0.11867 0.0
O64 O 0.07766 0.8479 0.11962 0.0
C65 C 0.115 0.82055 0.13561 0.0
O66 O 0.08248 0.77021 0.12751 0.0
C67 C 0.07362 0.8453 0.1022 0.0
O68 O 0.07015 0.78195 0.10526 0.0
O69 O 0.07155 0.82857 0.0935 0.0
C70 C 0.47124 0.76681 0.37445 0.0
O71 O 0.48227 0.77688 0.36635 0.0
Cd72 Cd 0.51358 0.78331 0.37173 0.0
O73 O 0.47639 0.75885 0.38742 0.0
Cd74 Cd 0.50653 0.75915 0.40372 0.0
C75 C 0.51756 0.80714 0.41633 0.0
O76 O 0.52221 0.75532 0.37621 0.0
O77 O 0.53854 0.76456 0.40239 0.0
O78 O 0.49667 0.72587 0.40723 0.0
C79 C 0.53751 0.75917 0.38505 0.0
O80 O 0.52086 0.80707 0.39969 0.0
C81 C 0.50271 0.72842 0.42423 0.0
O82 O 0.51075 0.79182 0.42159 0.0
O83 O 0.50969 0.7453 0.43196 0.0
C84 C 0.54823 0.30884 0.65617 0.0
O85 O 0.55894 0.30273 0.66609 0.0
Cd86 Cd 0.58558 0.29603 0.6567 0.0
O87 O 0.55212 0.31343 0.64074 0.0
Cd88 Cd 0.57808 0.31603 0.6222 0.0
C89 C 0.56967 0.26833 0.61341 0.0
O90 O 0.60222 0.32324 0.64761 0.0
O91 O 0.60888 0.31344 0.62063 0.0
O92 O 0.57606 0.34828 0.62042 0.0
C93 C 0.61396 0.3196 0.63774 0.0
O94 O 0.57586 0.27019 0.63034 0.0
C95 C 0.57509 0.34658 0.60292 0.0
O96 O 0.56816 0.28267 0.60634 0.0
O97 O 0.57545 0.3305 0.59405 0.0
C98 C 0.97533 0.27004 0.8747 0.0
O99 O 0.98702 0.28169 0.86885 0.0
Cd100 Cd 0.01831 0.28716 0.87487 0.0
O101 O 0.97963 0.25981 0.88596 0.0
Cd102 Cd 0.009 0.25877 0.90297 0.0
C103 C 0.02081 0.30632 0.92024 0.0
O104 O 0.02544 0.25784 0.87605 0.0
O105 O 0.04126 0.26307 0.90242 0.0
O106 O 1.00035 0.22474 0.90347 0.0
C107 C 0.0405 0.25996 0.88492 0.0
O108 O 0.02586 0.30826 0.90454 0.0
C109 C 0.00356 0.22618 0.9209 0.0
O110 O 0.01269 0.29029 0.9231 0.0
O111 O 0.00849 0.24278 0.93019 0.0
C112 C 0.46304 0.05483 0.31367 0.0
O113 O 0.46917 0.04857 0.29918 0.0
Cd114 Cd 0.45246 0.03834 0.2691 0.0
O115 O 0.44708 0.05613 0.31299 0.0
Cd116 Cd 0.42086 0.04987 0.29011 0.0
C117 C 0.42026 1.00361 0.27949 0.0
O118 O 0.43553 0.061 0.26533 0.0
O119 O 0.40875 0.04533 0.25742 0.0
O120 O 0.41275 0.07786 0.30487 0.0
C121 C 0.42263 0.05477 0.25272 0.0
O122 O 0.43295 0.00791 0.27006 0.0
C123 C 0.3971 0.06956 0.30634 0.0
O124 O 0.41447 0.01628 0.28914 0.0
O125 O 0.39274 0.05187 0.30088 0.0
C126 C 0.30008 0.1457 0.49484 0.0
O127 O 0.28831 0.1366 0.5029 0.0
Cd128 Cd 0.2616 0.14491 0.50938 0.0
O129 O 0.29769 0.16019 0.48848 0.0
Cd130 Cd 0.2732 0.17766 0.48621 0.0
C131 C 0.27725 0.19046 0.53324 0.0
O132 O 0.24806 0.15063 0.48134 0.0
O133 O 0.24196 0.17748 0.48954 0.0
O134 O 0.27345 0.17881 0.45305 0.0
C135 C 0.23642 0.15985 0.48427 0.0
O136 O 0.27065 0.17316 0.53316 0.0
C137 C 0.27918 0.19645 0.45489 0.0
O138 O 0.2801 0.19642 0.51816 0.0
O139 O 0.28235 0.20565 0.47138 0.0
C140 C 0.13429 0.01996 0.80822 0.0
O141 O 0.12707 0.02867 0.79741 0.0
Cd142 Cd 0.13463 0.03404 0.767 0.0
O143 O 0.14691 0.01246 0.80261 0.0
Cd144 Cd 0.16304 0.00933 0.76998 0.0
C145 C 0.17765 0.05966 0.77112 0.0
O146 O 0.13537 1.00587 0.74613 0.0
O147 O 0.15975 0.01057 0.73491 0.0
O148 O 0.16537 0.97408 0.7688 0.0
C149 C 0.14314 0.00791 0.73182 0.0
O150 O 0.16124 0.05877 0.76799 0.0
C151 C 0.18201 0.9762 0.76977 0.0
O152 O 0.18274 0.04472 0.77389 0.0
O153 O 0.19018 0.99331 0.77103 0.0
C154 C 0.32269 0.94846 0.00658 0.0
O155 O 0.31444 0.95861 0.99865 0.0
Cd156 Cd 0.28305 0.9484 0.99236 0.0
O157 O 0.31436 0.93403 0.01211 0.0
Cd158 Cd 0.28556 0.91529 0.01557 0.0
C159 C 0.28017 0.90331 0.96904 0.0
O160 O 0.27368 0.94213 0.02157 0.0
O161 O 0.25437 0.91569 0.01726 0.0
O162 O 0.30033 0.91533 0.04555 0.0
C163 C 0.25784 0.93351 0.02128 0.0
O164 O 0.27932 0.92018 0.96836 0.0
C165 C 0.29665 0.8976 0.04423 0.0
O166 O 0.28253 0.89806 0.98449 0.0
O167 O 0.28664 0.88798 0.0299 0.0
C168 C 0.33727 0.42473 0.02485 0.0
O169 O 0.32708 0.43109 0.01453 0.0
Cd170 Cd 0.29568 0.42191 0.00968 0.0
O171 O 0.33113 0.41175 0.03368 0.0
Cd172 Cd 0.30102 0.39218 0.03529 0.0
C173 C 0.29311 0.37691 0.98838 0.0
O174 O 0.28598 0.41786 0.0388 0.0
O175 O 0.26892 0.39013 0.0329 0.0
O176 O 0.30929 0.39232 0.06816 0.0
C177 C 0.2705 0.40773 0.03713 0.0
O178 O 0.28927 0.39262 0.98757 0.0
C179 C 0.3048 0.37464 0.06716 0.0
O180 O 0.29928 0.37339 1.0037 0.0
O181 O 0.29907 0.36488 0.05114 0.0
C182 C 0.78877 0.09461 0.02679 0.0
O183 O 0.77596 0.08931 0.03563 0.0
Cd184 Cd 0.75563 0.10875 0.04206 0.0
O185 O 0.79065 0.11001 0.02078 0.0
Cd186 Cd 0.77568 0.13562 0.01975 0.0
C187 C 0.78221 0.15047 0.06526 0.0
O188 O 0.74518 0.1181 0.01411 0.0
O189 O 0.74982 0.1481 0.02384 0.0
O190 O 0.77836 0.13466 0.98722 0.0
C191 C 0.73907 0.1327 0.01681 0.0
O192 O 0.77023 0.13593 0.0657 0.0
C193 C 0.7865 0.15172 0.98899 0.0
O194 O 0.78797 0.15341 0.05011 0.0
O195 O 0.79052 0.16112 0.00535 0.0
C196 C 0.12056 0.53506 0.25982 0.0
O197 O 0.11166 0.53547 0.24472 0.0
Cd198 Cd 0.12058 0.52875 0.21479 0.0
O199 O 0.13471 0.52922 0.25986 0.0
Cd200 Cd 0.15279 0.51666 0.23721 0.0
C201 C 0.16053 0.56034 0.22643 0.0
O202 O 0.12931 0.49975 0.2139 0.0
O203 O 0.15451 0.50528 0.20401 0.0
O204 O 0.15972 0.49279 0.25427 0.0
C205 C 0.13818 0.4977 0.20049 0.0
O206 O 0.14552 0.55594 0.21666 0.0
C207 C 0.17628 0.49925 0.25566 0.0
O208 O 0.16563 0.54885 0.23553 0.0
O209 O 0.18165 0.51365 0.24851 0.0
C210 C 0.83661 0.92386 0.52487 0.0
O211 O 0.82655 0.93051 0.5147 0.0
Cd212 Cd 0.79514 0.92184 0.51022 0.0
O213 O 0.83026 0.91091 0.53366 0.0
Cd214 Cd 0.79981 0.89191 0.53518 0.0
C215 C 0.79222 0.87708 0.48829 0.0
O216 O 0.78545 0.91831 0.53954 0.0
O217 O 0.76794 0.89088 0.53297 0.0
O218 O 0.81032 0.89031 0.56723 0.0
C219 C 0.76985 0.90846 0.53778 0.0
O220 O 0.78827 0.89277 0.48767 0.0
C221 C 0.80287 0.87312 0.5663 0.0
O222 O 0.79842 0.87345 0.50354 0.0
O223 O 0.79454 0.86444 0.55072 0.0
C224 C 0.9455 0.05092 0.29244 0.0
O225 O 0.95205 0.04131 0.28025 0.0
Cd226 Cd 0.94172 0.0332 0.24776 0.0
O227 O 0.93303 0.05858 0.28692 0.0
Cd228 Cd 0.91531 0.05869 0.2523 0.0
C229 C 0.89962 0.00833 0.24969 0.0
O230 O 0.94174 0.06001 0.23251 0.0
O231 O 0.91677 0.05127 0.21627 0.0
O232 O 0.91301 0.09423 0.26015 0.0
C233 C 0.93337 0.05569 0.21626 0.0
O234 O 0.91521 0.00809 0.24622 0.0
C235 C 0.89659 0.09221 0.25545 0.0
O236 O 0.89536 0.02433 0.25287 0.0
O237 O 0.88855 0.07508 0.24965 0.0
C238 C 0.29526 0.60365 0.52589 0.0
O239 O 0.28141 0.59731 0.53286 0.0
Cd240 Cd 0.25801 0.61318 0.53641 0.0
O241 O 0.29752 0.61931 0.52028 0.0
Cd242 Cd 0.28234 0.64462 0.51768 0.0
C243 C 0.27996 0.65521 0.56352 0.0
O244 O 0.25367 0.62414 0.50795 0.0
O245 O 0.25421 0.65368 0.51333 0.0
O246 O 0.29284 0.64847 0.48821 0.0
C247 C 0.24529 0.63694 0.50809 0.0
O248 O 0.26843 0.63982 0.56185 0.0
C249 C 0.29934 0.66602 0.49299 0.0
O250 O 0.28779 0.65963 0.54986 0.0
O251 O 0.29876 0.67333 0.50965 0.0
C252 C 0.4456 0.55036 0.79169 0.0
O253 O 0.45208 0.54065 0.77951 0.0
Cd254 Cd 0.44195 0.53271 0.74693 0.0
O255 O 0.4332 0.5581 0.7862 0.0
Cd256 Cd 0.41542 0.55813 0.75176 0.0
C257 C 0.39994 0.50759 0.74865 0.0
O258 O 0.44174 0.55955 0.73185 0.0
O259 O 0.41673 0.55078 0.7157 0.0
O260 O 0.41333 0.5937 0.75973 0.0
C261 C 0.43332 0.55522 0.71563 0.0
O262 O 0.41547 0.50746 0.74488 0.0
C263 C 0.39687 0.59179 0.75541 0.0
O264 O 0.39571 0.52358 0.75233 0.0
O265 O 0.38869 0.57468 0.74972 0.0
C266 C 0.62079 0.03665 0.76012 0.0
O267 O 0.61222 0.03798 0.74516 0.0
Cd268 Cd 0.62208 0.03338 0.71556 0.0
O269 O 0.63499 0.03091 0.75998 0.0
Cd270 Cd 0.65352 0.01958 0.73707 0.0
C271 C 0.66228 0.06429 0.72897 0.0
O272 O 0.63018 1.00384 0.71315 0.0
O273 O 0.65563 0.00924 0.70376 0.0
O274 O 0.65982 0.99466 0.75299 0.0
C275 C 0.63927 1.00193 0.69992 0.0
O276 O 0.64712 0.06087 0.71968 0.0
C277 C 0.67641 1.00101 0.75482 0.0
O278 O 0.66722 0.05181 0.73672 0.0
O279 O 0.68208 0.01581 0.74839 0.0
C280 C 0.80002 0.6455 0.99599 0.0
O281 O 0.78769 0.63609 1.00316 0.0
Cd282 Cd 0.76041 0.64372 0.00793 0.0
O283 O 0.79796 0.65999 0.98945 0.0
Cd284 Cd 0.77328 0.67685 0.98543 0.0
C285 C 0.77583 0.68916 0.03228 0.0
O286 O 0.7483 0.64955 0.97924 0.0
O287 O 0.74162 0.67614 0.98684 0.0
O288 O 0.7786 0.67785 0.95317 0.0
C289 C 0.73638 0.6585 0.98152 0.0
O290 O 0.76879 0.67188 0.0318 0.0
C291 C 0.78059 0.69546 0.95425 0.0
O292 O 0.77954 0.69532 0.0175 0.0
O293 O 0.77948 0.70473 0.97001 0.0
C294 C 0.96736 0.55646 0.81627 0.0
O295 O 0.97347 0.54992 0.80187 0.0
Cd296 Cd 0.95734 0.54027 0.77144 0.0
O297 O 0.9516 0.55844 0.81537 0.0
Cd298 Cd 0.92593 0.55299 0.79189 0.0
C299 C 0.92381 0.50639 0.78086 0.0
O300 O 0.94119 0.56342 0.76704 0.0
O301 O 0.91414 0.54856 0.75923 0.0
O302 O 0.91785 0.58138 0.80579 0.0
C303 C 0.92827 0.55738 0.75443 0.0
O304 O 0.9368 0.51033 0.77174 0.0
C305 C 0.90215 0.57322 0.80725 0.0
O306 O 0.91835 0.51931 0.79054 0.0
O307 O 0.8978 0.55547 0.80229 0.0
C308 C 0.82516 0.44589 0.49544 0.0
O309 O 0.81711 0.45642 0.48782 0.0
Cd310 Cd 0.78548 0.44899 0.48471 0.0
O311 O 0.81674 0.43258 0.50248 0.0
Cd312 Cd 0.78828 0.4165 0.50963 0.0
C313 C 0.7782 0.40242 0.46337 0.0
O314 O 0.77868 0.44491 0.51524 0.0
O315 O 0.7588 0.41993 0.51613 0.0
O316 O 0.80546 0.41708 0.53846 0.0
C317 C 0.76309 0.43771 0.51778 0.0
O318 O 0.77839 0.41944 0.46219 0.0
C319 C 0.80067 0.39955 0.53824 0.0
O320 O 0.78138 0.39773 0.47896 0.0
O321 O 0.78924 0.38989 0.52503 0.0
C322 C 0.6349 0.52084 0.30737 0.0
O323 O 0.62766 0.52938 0.29641 0.0
Cd324 Cd 0.63552 0.53426 0.26609 0.0
O325 O 0.64756 0.51339 0.30182 0.0
Cd326 Cd 0.6636 0.51034 0.26901 0.0
C327 C 0.6782 0.56067 0.27039 0.0
O328 O 0.63601 0.50619 0.24479 0.0
O329 O 0.66065 0.51319 0.2344 0.0
O330 O 0.66556 0.47493 0.26725 0.0
C331 C 0.644 0.50922 0.23081 0.0
O332 O 0.66174 0.55955 0.26737 0.0
C333 C 0.68216 0.47683 0.26818 0.0
O334 O 0.68345 0.54575 0.27293 0.0
O335 O 0.69052 0.49391 0.26967 0.0
La336 La 0.0193 0.02443 1.0038 0.0
La337 La 0.05451 0.04908 0.02412 0.0
C338 C 0.98776 0.00624 0.99755 0.0
C339 C 0.97103 0.00999 1.00231 0.0
C340 C 0.95559 0.9958 0.99732 0.0
C341 C 0.93936 0.99973 1.00044 0.0
C342 C 0.93844 0.01794 0.00847 0.0
C343 C 0.95405 0.03195 0.01405 0.0
C344 C 0.97026 0.02798 0.01101 0.0
C345 C 0.04399 0.02525 0.97964 0.0
C346 C 0.02764 0.06839 0.00462 0.0
C347 C 0.08653 0.06574 0.02991 0.0
C348 C 0.10208 0.05932 0.02467 0.0
C349 C 0.11884 0.07142 0.02858 0.0
C350 C 0.13366 0.06457 0.02462 0.0
C351 C 0.13178 0.04553 0.01674 0.0
C352 C 0.11483 0.0337 0.01245 0.0
C353 C 0.10016 0.04054 0.01636 0.0
C354 C 0.02993 0.04876 0.04829 0.0
C355 C 0.04621 1.00485 0.02278 0.0
O356 O 0.99548 0.01654 0.98633 0.0
O357 O 0.99874 1.00497 0.01145 0.0
O358 O 0.02757 0.01648 0.97619 0.0
O359 O 0.04572 0.0329 0.99675 0.0
O360 O 0.01527 0.05264 1.0027 0.0
O361 O 0.04403 0.06973 0.01164 0.0
O362 O 0.07826 0.05681 0.04177 0.0
O363 O 0.07571 0.06746 0.01609 0.0
O364 O 0.04619 0.05812 0.05137 0.0
O365 O 0.02799 0.04061 0.0313 0.0
O366 O 0.05817 0.02098 0.02617 0.0
O367 O 0.03008 1.0032 0.01487 0.0
H368 H 0.95606 0.98184 0.99059 0.0
H369 H 0.92749 0.98875 0.9959 0.0
H370 H 0.95369 0.04604 0.02046 0.0
H371 H 0.98214 0.03905 0.01502 0.0
H372 H 0.12049 0.08599 0.035 0.0
H373 H 0.14655 0.07405 0.02797 0.0
H374 H 0.11287 0.01889 0.00677 0.0
H375 H 0.0873 0.03101 0.01326 0.0
La376 La 0.29409 0.77607 0.24142 0.0
La377 La 0.28099 0.79113 0.27531 0.0
C378 C 0.30417 0.76882 0.21004 0.0
C379 C 0.31613 0.77913 0.19897 0.0
C380 C 0.32421 0.76927 0.18576 0.0
C381 C 0.3345 0.77883 0.1741 0.0
C382 C 0.33686 0.79839 0.17558 0.0
C383 C 0.32946 0.8083 0.18954 0.0
C384 C 0.31915 0.79874 0.20109 0.0
C385 C 0.30856 0.768 0.27217 0.0
C386 C 0.31014 0.81856 0.26098 0.0
C387 C 0.27145 0.79701 0.30709 0.0
C388 C 0.26926 0.78569 0.32162 0.0
C389 C 0.26311 0.7924 0.33807 0.0
C390 C 0.26317 0.78264 0.35283 0.0
C391 C 0.26939 0.76609 0.35123 0.0
C392 C 0.27483 0.75907 0.33437 0.0
C393 C 0.27479 0.76881 0.31971 0.0
C394 C 0.26667 0.79997 0.2451 0.0
C395 C 0.2652 0.74919 0.25544 0.0
O396 O 0.31156 0.76519 0.22515 0.0
O397 O 0.28988 0.77475 0.21273 0.0
O398 O 0.30428 0.75652 0.25645 0.0
O399 O 0.30492 0.78334 0.27013 0.0
O400 O 0.30763 0.80584 0.24565 0.0
O401 O 0.30221 0.81515 0.27555 0.0
O402 O 0.26043 0.79069 0.29193 0.0
O403 O 0.28768 0.80209 0.30359 0.0
O404 O 0.2702 0.81067 0.26124 0.0
O405 O 0.27019 0.7844 0.24657 0.0
O406 O 0.27041 0.76051 0.27163 0.0
O407 O 0.27099 0.75399 0.24025 0.0
H408 H 0.32211 0.75413 0.18409 0.0
H409 H 0.34009 0.77087 0.1635 0.0
H410 H 0.33072 0.82331 0.19082 0.0
H411 H 0.31295 0.80659 0.21115 0.0
H412 H 0.25885 0.80547 0.33971 0.0
H413 H 0.25878 0.78827 0.36563 0.0
H414 H 0.28002 0.74658 0.33279 0.0
H415 H 0.27983 0.76359 0.30718 0.0
La416 La 0.56048 0.04013 0.52124 0.0
La417 La 0.52042 0.03297 0.51353 0.0
C418 C 0.59175 0.04003 0.53256 0.0
C419 C 0.60386 0.02727 0.53189 0.0
C420 C 0.62056 0.03339 0.52654 0.0
C421 C 0.63287 0.02233 0.52691 0.0
C422 C 0.62881 1.00489 0.53278 0.0
C423 C 0.61186 0.99853 0.53772 0.0
C424 C 0.59949 0.00961 0.53729 0.0
C425 C 0.5482 0.0453 0.48882 0.0
C426 C 0.53697 0.99818 0.50599 0.0
C427 C 0.48904 0.03208 0.50154 0.0
C428 C 0.4765 0.04407 0.49982 0.0
C429 C 0.45868 0.03538 0.49448 0.0
C430 C 0.44633 0.04614 0.49228 0.0
C431 C 0.45152 0.06588 0.49541 0.0
C432 C 0.46942 0.07462 0.50098 0.0
C433 C 0.48185 0.06377 0.50307 0.0
C434 C 0.5331 0.02803 0.54607 0.0
C435 C 0.54391 0.07486 0.52877 0.0
O436 O 0.58715 0.04505 0.51696 0.0
O437 O 0.57857 0.03664 0.54228 0.0
O438 O 0.563 0.05507 0.49796 0.0
O439 O 0.54149 0.03255 0.49725 0.0
O440 O 0.55216 0.00915 0.51451 0.0
O441 O 0.52313 1.00504 0.50203 0.0
O442 O 0.49395 0.02969 0.51825 0.0
O443 O 0.50214 0.03435 0.49157 0.0
O444 O 0.51842 0.01784 0.53692 0.0
O445 O 0.53942 0.04066 0.53737 0.0
O446 O 0.52881 0.06394 0.51994 0.0
O447 O 0.55766 0.06796 0.53308 0.0
H448 H 0.62421 0.04693 0.5223 0.0
H449 H 0.64564 0.02752 0.52266 0.0
H450 H 0.60832 0.98523 0.54242 0.0
H451 H 0.58667 1.00452 0.54148 0.0
H452 H 0.4543 0.0202 0.49195 0.0
H453 H 0.43263 0.03896 0.48828 0.0
H454 H 0.47385 0.08979 0.50342 0.0
H455 H 0.49559 0.07071 0.50706 0.0
La456 La 0.27042 0.28471 0.75833 0.0
La457 La 0.3086 0.28105 0.76398 0.0
C458 C 0.23739 0.275 0.75698 0.0
C459 C 0.22278 0.27902 0.76701 0.0
C460 C 0.22572 0.28934 0.78514 0.0
C461 C 0.21152 0.29067 0.79526 0.0
C462 C 0.19415 0.28163 0.78742 0.0
C463 C 0.19135 0.2718 0.76903 0.0
C464 C 0.20551 0.27053 0.75897 0.0
C465 C 0.29235 0.31874 0.75946 0.0
C466 C 0.29145 0.29491 0.79894 0.0
C467 C 0.34116 0.28348 0.76373 0.0
C468 C 0.3553 0.28862 0.75214 0.0
C469 C 0.37166 0.2997 0.76074 0.0
C470 C 0.38574 0.30383 0.75047 0.0
C471 C 0.38379 0.29691 0.7313 0.0
C472 C 0.36725 0.28609 0.72261 0.0
C473 C 0.35312 0.28201 0.73292 0.0
C474 C 0.28428 0.25089 0.76844 0.0
C475 C 0.28894 0.27561 0.72304 0.0
O476 O 0.24542 0.28773 0.74811 0.0
O477 O 0.24838 0.26736 0.76577 0.0
O478 O 0.27526 0.31529 0.75769 0.0
O479 O 0.29603 0.30312 0.76091 0.0
O480 O 0.27605 0.29056 0.78848 0.0
O481 O 0.30632 0.29388 0.79206 0.0
O482 O 0.32907 0.268 0.75747 0.0
O483 O 0.33455 0.29714 0.77153 0.0
O484 O 0.29982 0.257 0.77775 0.0
O485 O 0.28316 0.26144 0.75651 0.0
O486 O 0.30404 0.27913 0.73394 0.0
O487 O 0.27375 0.2755 0.7296 0.0
H488 H 0.239 0.29591 0.79163 0.0
H489 H 0.21418 0.29856 0.80928 0.0
H490 H 0.17826 0.26439 0.76259 0.0
H491 H 0.20299 0.26229 0.74508 0.0
H492 H 0.37366 0.30487 0.77556 0.0
H493 H 0.39832 0.31197 0.75769 0.0
H494 H 0.36525 0.28072 0.70784 0.0
H495 H 0.34061 0.27349 0.72592 0.0
La496 La 0.04008 0.05129 0.52375 0.0
La497 La 0.04382 0.0141 0.50548 0.0
C498 C 0.04085 0.08572 0.53287 0.0
C499 C 0.03976 0.10093 0.52263 0.0
C500 C 0.03553 0.11728 0.53144 0.0
C501 C 0.03487 0.13202 0.52187 0.0
C502 C 0.03832 0.1305 0.50333 0.0
C503 C 0.04228 0.11391 0.4945 0.0
C504 C 0.04304 0.09927 0.50409 0.0
C505 C 0.01551 0.02259 0.52858 0.0
C506 C 0.02659 0.03715 0.4794 0.0
C507 C 0.04126 0.97926 0.49726 0.0
C508 C 0.03747 0.96383 0.50772 0.0
C509 C 0.04442 0.94802 0.50336 0.0
C510 C 0.04044 0.93308 0.51295 0.0
C511 C 0.02933 0.93367 0.52699 0.0
C512 C 0.02255 0.94971 0.53139 0.0
C513 C 0.02668 0.96468 0.52195 0.0
C514 C 0.06861 0.0423 0.50014 0.0
C515 C 0.05725 0.02842 0.54976 0.0
O516 O 0.02653 0.07239 0.53108 0.0
O517 O 0.0549 0.07902 0.53147 0.0
O518 O 0.02184 0.03749 0.54109 0.0
O519 O 0.02226 0.02473 0.51396 0.0
O520 O 0.03098 0.05128 0.49392 0.0
O521 O 0.02949 0.02043 0.48106 0.0
O522 O 0.0563 0.99151 0.5025 0.0
O523 O 0.02828 0.98733 0.49422 0.0
O524 O 0.0626 0.02683 0.48826 0.0
O525 O 0.06183 0.0408 0.51493 0.0
O526 O 0.05185 0.01402 0.53557 0.0
O527 O 0.05532 0.04538 0.54774 0.0
H528 H 0.03291 0.11871 0.54574 0.0
H529 H 0.03168 0.1446 0.52896 0.0
H530 H 0.0453 0.11246 0.48034 0.0
H531 H 0.04649 0.08681 0.49711 0.0
H532 H 0.05288 0.9472 0.49251 0.0
H533 H 0.04616 0.92112 0.50943 0.0
H534 H 0.01376 0.95059 0.5419 0.0
H535 H 0.02123 0.97683 0.52561 0.0
La536 La 0.30676 0.79843 0.76676 0.0
La537 La 0.27298 0.77091 0.76536 0.0
C538 C 0.33786 0.81629 0.77715 0.0
C539 C 0.35431 0.80977 0.77703 0.0
C540 C 0.35961 0.80195 0.76036 0.0
C541 C 0.37391 0.79356 0.76068 0.0
C542 C 0.38295 0.79263 0.77764 0.0
C543 C 0.3779 0.80079 0.79425 0.0
C544 C 0.36377 0.80938 0.79394 0.0
C545 C 0.29162 0.78276 0.7332 0.0
C546 C 0.30684 0.75357 0.76598 0.0
C547 C 0.2418 0.75242 0.75626 0.0
C548 C 0.22503 0.75826 0.75602 0.0
C549 C 0.21183 0.74985 0.7658 0.0
C550 C 0.19634 0.75619 0.76671 0.0
C551 C 0.19383 0.77106 0.75785 0.0
C552 C 0.20704 0.77936 0.74798 0.0
C553 C 0.22248 0.77306 0.74709 0.0
C554 C 0.28859 0.78647 0.79882 0.0
C555 C 0.27295 0.81565 0.76529 0.0
O556 O 0.32948 0.81633 0.76099 0.0
O557 O 0.32724 0.80934 0.78845 0.0
O558 O 0.30108 0.79988 0.73748 0.0
O559 O 0.29222 0.77502 0.74715 0.0
O560 O 0.31586 0.77159 0.76889 0.0
O561 O 0.28932 0.74973 0.76273 0.0
O562 O 0.25035 0.75411 0.77272 0.0
O563 O 0.2522 0.75838 0.74433 0.0
O564 O 0.2797 0.76915 0.79437 0.0
O565 O 0.28749 0.79435 0.78501 0.0
O566 O 0.26395 0.79763 0.76249 0.0
O567 O 0.29044 0.81957 0.7688 0.0
H568 H 0.35248 0.80186 0.74709 0.0
H569 H 0.37765 0.7874 0.74771 0.0
H570 H 0.38492 0.80055 0.80749 0.0
H571 H 0.35989 0.81526 0.80695 0.0
H572 H 0.21361 0.73853 0.77291 0.0
H573 H 0.1864 0.74956 0.77447 0.0
H574 H 0.20535 0.79057 0.74068 0.0
H575 H 0.23244 0.7799 0.73949 0.0
La576 La 0.54535 0.02446 0.02927 0.0
La577 La 0.53107 0.02315 0.98936 0.0
C578 C 0.55026 0.02562 0.06361 0.0
C579 C 0.53794 0.02327 0.07736 0.0
C580 C 0.54372 0.02153 0.09537 0.0
C581 C 0.53181 0.01963 0.10844 0.0
C582 C 0.514 0.01925 0.10348 0.0
C583 C 0.50826 0.02052 0.08528 0.0
C584 C 0.52016 0.02261 0.07239 0.0
C585 C 0.55862 1.00435 1.00382 0.0
C586 C 0.50782 0.99819 0.01268 0.0
C587 C 0.52164 0.01708 0.95522 0.0
C588 C 0.52559 0.02948 0.94177 0.0
C589 C 0.53492 0.04819 0.94797 0.0
C590 C 0.54145 0.05926 0.93534 0.0
C591 C 0.53882 0.05174 0.91633 0.0
C592 C 0.52851 0.03335 0.9101 0.0
C593 C 0.52198 0.02226 0.92279 0.0
C594 C 0.52693 0.05198 0.01311 0.0
C595 C 0.56643 0.05116 0.00639 0.0
O596 O 0.54934 0.01049 0.05132 0.0
O597 O 0.55092 0.04061 0.05603 0.0
O598 O 0.56759 0.01395 0.01914 0.0
O599 O 0.54294 1.00554 1.00374 0.0
O600 O 0.51876 0.00697 0.02766 0.0
O601 O 0.51083 1.00116 0.99593 0.0
O602 O 0.5117 0.02224 0.96759 0.0
O603 O 0.53546 0.01232 0.96263 0.0
O604 O 0.52937 0.05248 0.99605 0.0
O605 O 0.52576 0.03549 0.01597 0.0
O606 O 0.55805 0.03937 0.99131 0.0
O607 O 0.56188 0.04968 0.02307 0.0
H608 H 0.55743 0.02191 0.09938 0.0
H609 H 0.53652 0.01872 0.12245 0.0
H610 H 0.49471 0.02068 0.08118 0.0
H611 H 0.51549 0.02412 0.05863 0.0
H612 H 0.53795 0.05394 0.96263 0.0
H613 H 0.54926 0.0734 0.9405 0.0
H614 H 0.5265 0.02707 0.89554 0.0
H615 H 0.51491 0.0078 0.91783 0.0
La616 La 0.30928 0.30588 0.26864 0.0
La617 La 0.28554 0.26776 0.25541 0.0
C618 C 0.32268 0.34061 0.27403 0.0
C619 C 0.3141 0.35648 0.27519 0.0
C620 C 0.32012 0.37216 0.28943 0.0
C621 C 0.31051 0.38602 0.29224 0.0
C622 C 0.29466 0.38424 0.28093 0.0
C623 C 0.28901 0.36883 0.2663 0.0
C624 C 0.29863 0.3551 0.26344 0.0
C625 C 0.30631 0.28392 0.29377 0.0
C626 C 0.26759 0.30009 0.26684 0.0
C627 C 0.27175 0.23321 0.25144 0.0
C628 C 0.27833 0.21858 0.25911 0.0
C629 C 0.27182 0.19954 0.25139 0.0
C630 C 0.27866 0.18586 0.25868 0.0
C631 C 0.29205 0.19114 0.27381 0.0
C632 C 0.29827 0.21028 0.2816 0.0
C633 C 0.29161 0.22384 0.27419 0.0
C634 C 0.28842 0.28966 0.23032 0.0
C635 C 0.32685 0.27379 0.25603 0.0
O636 O 0.32037 0.33099 0.28741 0.0
O637 O 0.32051 0.32966 0.2578 0.0
O638 O 0.32058 0.29602 0.29236 0.0
O639 O 0.29418 0.28512 0.28196 0.0
O640 O 0.28306 0.31171 0.26739 0.0
O641 O 0.26557 0.28172 0.26419 0.0
O642 O 0.28096 0.24067 0.23934 0.0
O643 O 0.26794 0.24599 0.26379 0.0
O644 O 0.27442 0.27694 0.23112 0.0
O645 O 0.30046 0.28845 0.24216 0.0
O646 O 0.31205 0.26259 0.25873 0.0
O647 O 0.32839 0.29202 0.25711 0.0
H648 H 0.33193 0.37337 0.29875 0.0
H649 H 0.31514 0.39775 0.30363 0.0
H650 H 0.27701 0.36727 0.25717 0.0
H651 H 0.29363 0.34312 0.25237 0.0
H652 H 0.26164 0.19529 0.23964 0.0
H653 H 0.27374 0.17125 0.25224 0.0
H654 H 0.30832 0.21485 0.29345 0.0
H655 H 0.2969 0.23849 0.28024 0.0
La656 La 0.54103 0.55224 0.02276 0.0
La657 La 0.54339 0.51425 0.005 0.0
C658 C 0.5427 0.58695 0.03106 0.0
C659 C 0.54136 0.60164 0.0202 0.0
C660 C 0.53631 0.61781 0.02819 0.0
C661 C 0.5351 0.63191 0.0179 0.0
C662 C 0.53885 0.62993 0.99944 0.0
C663 C 0.54371 0.61355 0.99146 0.0
C664 C 0.54498 0.59955 1.00176 0.0
C665 C 0.51584 0.52448 0.02824 0.0
C666 C 0.52684 0.53748 0.97863 0.0
C667 C 0.5399 0.47923 0.99732 0.0
C668 C 0.53593 0.46401 0.008 0.0
C669 C 0.54276 0.44808 1.00387 0.0
C670 C 0.53868 0.43333 0.01367 0.0
C671 C 0.52758 0.43421 0.02769 0.0
C672 C 0.52092 0.45037 0.03187 0.0
C673 C 0.52516 0.46517 0.02222 0.0
C674 C 0.56879 0.54149 0.99902 0.0
C675 C 0.55762 0.52922 0.04895 0.0
O676 O 0.52828 0.57399 0.03034 0.0
O677 O 0.55646 0.57979 0.02932 0.0
O678 O 0.52266 0.53942 0.04056 0.0
O679 O 0.5225 0.52607 0.01348 0.0
O680 O 0.53183 0.55186 0.99288 0.0
O681 O 0.52912 0.52061 0.98058 0.0
O682 O 0.55517 0.49114 1.00221 0.0
O683 O 0.52717 0.48768 0.99436 0.0
O684 O 0.56233 0.52596 0.98738 0.0
O685 O 0.56209 0.54054 0.01391 0.0
O686 O 0.55116 0.51456 0.03523 0.0
O687 O 0.55668 0.54635 0.04645 0.0
H688 H 0.53339 0.61957 0.04239 0.0
H689 H 0.53121 0.64432 0.02435 0.0
H690 H 0.54698 0.61175 0.97739 0.0
H691 H 0.54901 0.5872 0.99536 0.0
H692 H 0.55121 0.44704 0.99304 0.0
H693 H 0.54432 0.42128 0.01032 0.0
H694 H 0.51215 0.45147 0.04238 0.0
H695 H 0.51982 0.47742 0.02572 0.0
La696 La 0.8049 0.29744 0.26247 0.0
La697 La 0.77127 0.26965 0.26055 0.0
C698 C 0.83531 0.31756 0.27286 0.0
C699 C 0.85263 0.31393 0.2776 0.0
C700 C 0.8672 0.32346 0.2704 0.0
C701 C 0.88391 0.32086 0.27542 0.0
C702 C 0.88633 0.30884 0.28793 0.0
C703 C 0.87157 0.29879 0.29461 0.0
C704 C 0.85484 0.30123 0.28941 0.0
C705 C 0.78985 0.28212 0.22874 0.0
C706 C 0.80545 0.25298 0.26227 0.0
C707 C 0.74028 0.2508 0.251 0.0
C708 C 0.72336 0.25626 0.25168 0.0
C709 C 0.71049 0.24687 0.26122 0.0
C710 C 0.69501 0.253 0.26334 0.0
C711 C 0.69221 0.26866 0.25598 0.0
C712 C 0.70505 0.27788 0.24625 0.0
C713 C 0.72046 0.27176 0.24412 0.0
C714 C 0.78647 0.2848 0.29422 0.0
C715 C 0.77088 0.31436 0.26071 0.0
O716 O 0.82867 0.31231 0.25544 0.0
O717 O 0.82364 0.31336 0.28417 0.0
O718 O 0.79867 0.29946 0.23345 0.0
O719 O 0.79063 0.27413 0.24252 0.0
O720 O 0.81426 0.2711 0.26615 0.0
O721 O 0.78804 0.24892 0.25778 0.0
O722 O 0.74903 0.2516 0.26716 0.0
O723 O 0.75045 0.25787 0.23936 0.0
O724 O 0.77761 0.2675 0.28951 0.0
O725 O 0.7855 0.29288 0.28054 0.0
O726 O 0.76192 0.29636 0.25845 0.0
O727 O 0.78838 0.31832 0.26351 0.0
H728 H 0.86568 0.33311 0.26108 0.0
H729 H 0.89497 0.32848 0.2697 0.0
H730 H 0.87297 0.28956 0.30438 0.0
H731 H 0.84372 0.2935 0.29496 0.0
H732 H 0.71254 0.23498 0.26728 0.0
H733 H 0.68534 0.24564 0.27093 0.0
H734 H 0.70309 0.28972 0.24005 0.0
H735 H 0.73014 0.27934 0.2367 0.0
La736 La 0.04607 0.52504 0.52704 0.0
La737 La 0.03471 0.525 0.48695 0.0
C738 C 0.04892 0.5247 0.56113 0.0
C739 C 0.03609 0.52083 0.57409 0.0
C740 C 0.04148 0.51758 0.59163 0.0
C741 C 0.0294 0.51501 0.60441 0.0
C742 C 0.01181 0.51567 0.59972 0.0
C743 C 0.00632 0.51799 0.58176 0.0
C744 C 0.0184 0.52058 0.56906 0.0
C745 C 0.0628 0.50762 0.50297 0.0
C746 C 0.01036 0.49753 0.50727 0.0
C747 C 0.02717 0.52035 0.45259 0.0
C748 C 0.03113 0.53359 0.43991 0.0
C749 C 0.04032 0.5522 0.44691 0.0
C750 C 0.04638 0.56421 0.43486 0.0
C751 C 0.04341 0.55772 0.41563 0.0
C752 C 0.03327 0.53936 0.4087 0.0
C753 C 0.0272 0.52737 0.42079 0.0
C754 C 0.02779 0.55222 0.51069 0.0
C755 C 0.06851 0.55387 0.5071 0.0
O756 O 0.04939 0.51025 0.54856 0.0
O757 O 0.04908 0.53999 0.55414 0.0
O758 O 0.07005 0.51713 0.51901 0.0
O759 O 0.04669 0.50734 0.50129 0.0
O760 O 0.01996 0.50621 0.5231 0.0
O761 O 0.01462 0.50149 0.49118 0.0
O762 O 0.01624 0.52417 0.46437 0.0
O763 O 0.04106 0.51612 0.46051 0.0
O764 O 0.03207 0.55395 0.4944 0.0
O765 O 0.02668 0.53554 0.51283 0.0
O766 O 0.06129 0.54261 0.49129 0.0
O767 O 0.06266 0.55129 0.52304 0.0
H768 H 0.05508 0.51751 0.59559 0.0
H769 H 0.03391 0.5131 0.61814 0.0
H770 H 0.99293 0.51883 0.57784 0.0
H771 H 0.01404 0.523 0.55551 0.0
H772 H 0.04352 0.55719 0.4617 0.0
H773 H 0.05406 0.57828 0.44058 0.0
H774 H 0.03101 0.53383 0.39396 0.0
H775 H 0.02018 0.51301 0.41522 0.0
La776 La 0.76852 0.78572 0.25836 0.0
La777 La 0.8091 0.78375 0.26306 0.0
C778 C 0.73572 0.77577 0.25852 0.0
C779 C 0.72161 0.77978 0.26955 0.0
C780 C 0.7058 0.78157 0.26044 0.0
C781 C 0.69127 0.78245 0.27008 0.0
C782 C 0.69219 0.78137 0.28906 0.0
C783 C 0.70835 0.78043 0.29833 0.0
C784 C 0.7229 0.77971 0.28871 0.0
C785 C 0.79057 0.81985 0.25966 0.0
C786 C 0.79067 0.79612 0.29847 0.0
C787 C 0.84188 0.79395 0.26301 0.0
C788 C 0.85655 0.78936 0.25337 0.0
C789 C 0.87341 0.79383 0.26327 0.0
C790 C 0.88809 0.79247 0.25408 0.0
C791 C 0.88622 0.78664 0.23473 0.0
C792 C 0.86918 0.78145 0.22492 0.0
C793 C 0.85447 0.78277 0.23415 0.0
C794 C 0.78713 0.74976 0.26233 0.0
C795 C 0.78683 0.77323 0.2229 0.0
O796 O 0.74309 0.78848 0.24923 0.0
O797 O 0.74715 0.76788 0.26626 0.0
O798 O 0.77345 0.81634 0.25749 0.0
O799 O 0.79394 0.80409 0.26118 0.0
O800 O 0.77507 0.79208 0.28834 0.0
O801 O 0.80558 0.79524 0.29139 0.0
O802 O 0.83463 0.78255 0.27364 0.0
O803 O 0.83027 0.80011 0.25333 0.0
O804 O 0.80426 0.7533 0.26468 0.0
O805 O 0.78374 0.76541 0.26037 0.0
O806 O 0.80236 0.77656 0.23308 0.0
O807 O 0.77203 0.77493 0.22986 0.0
H808 H 0.70447 0.78164 0.24569 0.0
H809 H 0.67921 0.78361 0.26254 0.0
H810 H 0.70958 0.7794 0.31286 0.0
H811 H 0.73494 0.77835 0.29615 0.0
H812 H 0.87533 0.79913 0.27806 0.0
H813 H 0.90099 0.7968 0.26207 0.0
H814 H 0.86724 0.77666 0.21006 0.0
H815 H 0.84156 0.77925 0.2262 0.0
La816 La 0.79625 0.27949 0.74221 0.0
La817 La 0.78395 0.29411 0.77672 0.0
C818 C 0.80492 0.27237 0.71014 0.0
C819 C 0.81605 0.28263 0.69836 0.0
C820 C 0.82367 0.2727 0.68476 0.0
C821 C 0.83332 0.28214 0.67258 0.0
C822 C 0.83548 0.30166 0.67392 0.0
C823 C 0.82852 0.31166 0.68819 0.0
C824 C 0.81885 0.30221 0.70029 0.0
C825 C 0.81258 0.27243 0.77243 0.0
C826 C 0.81131 0.32236 0.76105 0.0
C827 C 0.77584 0.29886 0.8091 0.0
C828 C 0.77561 0.28697 0.82333 0.0
C829 C 0.75984 0.28012 0.83029 0.0
C830 C 0.7592 0.2674 0.8425 0.0
C831 C 0.77437 0.26141 0.84794 0.0
C832 C 0.79023 0.26871 0.84132 0.0
C833 C 0.79083 0.28125 0.82907 0.0
C834 C 0.76756 0.30169 0.74703 0.0
C835 C 0.76992 0.25141 0.758 0.0
O836 O 0.81317 0.269 0.72491 0.0
O837 O 0.79068 0.2781 0.71362 0.0
O838 O 0.80828 0.26086 0.75679 0.0
O839 O 0.80813 0.28744 0.77057 0.0
O840 O 0.80887 0.30946 0.74588 0.0
O841 O 0.804 0.3189 0.77597 0.0
O842 O 0.76422 0.29206 0.79446 0.0
O843 O 0.79135 0.30608 0.80471 0.0
O844 O 0.77126 0.31257 0.76308 0.0
O845 O 0.772 0.28651 0.74835 0.0
O846 O 0.77482 0.26339 0.77386 0.0
O847 O 0.77465 0.25618 0.7424 0.0
H848 H 0.82175 0.25758 0.68324 0.0
H849 H 0.83862 0.27411 0.66177 0.0
H850 H 0.82968 0.32665 0.68939 0.0
H851 H 0.81305 0.31012 0.7107 0.0
H852 H 0.74793 0.28427 0.82594 0.0
H853 H 0.74677 0.26193 0.84732 0.0
H854 H 0.80224 0.26473 0.84558 0.0
H855 H 0.80321 0.28619 0.82391 0.0
La856 La 0.80823 0.80642 0.76895 0.0
La857 La 0.78439 0.76833 0.75581 0.0
C858 C 0.82165 0.84117 0.77507 0.0
C859 C 0.81302 0.85699 0.77621 0.0
C860 C 0.81885 0.87259 0.79057 0.0
C861 C 0.80917 0.88638 0.7933 0.0
C862 C 0.79343 0.88461 0.7818 0.0
C863 C 0.78796 0.86927 0.76708 0.0
C864 C 0.79765 0.85561 0.7643 0.0
C865 C 0.80568 0.78408 0.79371 0.0
C866 C 0.76661 0.80068 0.76785 0.0
C867 C 0.77081 0.7338 0.75238 0.0
C868 C 0.77787 0.71935 0.75985 0.0
C869 C 0.77211 0.70034 0.75168 0.0
C870 C 0.77963 0.6869 0.75858 0.0
C871 C 0.79298 0.69238 0.77374 0.0
C872 C 0.79841 0.71146 0.78202 0.0
C873 C 0.79106 0.72479 0.77503 0.0
C874 C 0.78673 0.79018 0.73062 0.0
C875 C 0.82568 0.77447 0.75557 0.0
O876 O 0.81898 0.83128 0.7882 0.0
O877 O 0.81985 0.83047 0.75876 0.0
O878 O 0.81999 0.79601 0.79209 0.0
O879 O 0.79341 0.78559 0.78228 0.0
O880 O 0.78203 0.81227 0.76807 0.0
O881 O 0.76455 0.7823 0.76505 0.0
O882 O 0.77943 0.74116 0.73983 0.0
O883 O 0.7673 0.74666 0.7649 0.0
O884 O 0.77293 0.77725 0.73159 0.0
O885 O 0.79897 0.78918 0.74238 0.0
O886 O 0.81095 0.76318 0.75834 0.0
O887 O 0.82718 0.79271 0.75684 0.0
H888 H 0.83057 0.87379 0.80001 0.0
H889 H 0.81365 0.89807 0.80476 0.0
H890 H 0.77605 0.86773 0.7578 0.0
H891 H 0.7928 0.84369 0.75314 0.0
H892 H 0.76202 0.69595 0.73984 0.0
H893 H 0.7753 0.67233 0.7518 0.0
H894 H 0.80842 0.71614 0.79391 0.0
H895 H 0.7958 0.73942 0.78142 0.0
La896 La 0.52078 0.52462 0.50299 0.0
La897 La 0.55515 0.54996 0.5243 0.0
C898 C 0.48945 0.50591 0.49576 0.0
C899 C 0.47279 0.50986 0.50049 0.0
C900 C 0.45697 0.49661 0.49391 0.0
C901 C 0.44095 0.50116 0.49695 0.0
C902 C 0.44068 0.51907 0.50649 0.0
C903 C 0.45663 0.532 0.5137 0.0
C904 C 0.47258 0.52743 0.51069 0.0
C905 C 0.54623 0.52621 0.47972 0.0
C906 C 0.52795 0.5688 0.50477 0.0
C907 C 0.58685 0.56745 0.53169 0.0
C908 C 0.6029 0.56112 0.52858 0.0
C909 C 0.61895 0.57074 0.53902 0.0
C910 C 0.63352 0.56274 0.53843 0.0
C911 C 0.63207 0.54499 0.52747 0.0
C912 C 0.61616 0.53591 0.51633 0.0
C913 C 0.60166 0.54386 0.51701 0.0
C914 C 0.53005 0.54854 0.54786 0.0
C915 C 0.54789 0.50581 0.52277 0.0
O916 O 0.49736 0.51645 0.48485 0.0
O917 O 0.50026 0.50442 0.5097 0.0
O918 O 0.52994 0.51716 0.47568 0.0
O919 O 0.54737 0.53379 0.49678 0.0
O920 O 0.51615 0.55254 0.5017 0.0
O921 O 0.54423 0.57074 0.51252 0.0
O922 O 0.57787 0.55911 0.54344 0.0
O923 O 0.57681 0.56814 0.51676 0.0
O924 O 0.54618 0.55815 0.55128 0.0
O925 O 0.52844 0.54052 0.53082 0.0
O926 O 0.55969 0.52206 0.52594 0.0
O927 O 0.5317 0.50395 0.51489 0.0
H928 H 0.45701 0.48299 0.48598 0.0
H929 H 0.42881 0.49102 0.49117 0.0
H930 H 0.45674 0.54581 0.5213 0.0
H931 H 0.48474 0.53778 0.51587 0.0
H932 H 0.61998 0.58397 0.54824 0.0
H933 H 0.6456 0.56996 0.54724 0.0
H934 H 0.61474 0.52235 0.50755 0.0
H935 H 0.58923 0.53614 0.50918 0.0
La936 La 0.06051 0.53775 0.02449 0.0
La937 La 0.0207 0.53172 0.01527 0.0
C938 C 0.0909 0.53713 0.03832 0.0
C939 C 0.10348 0.52505 0.0373 0.0
C940 C 0.10141 0.5095 0.023 0.0
C941 C 0.11392 0.49853 0.02233 0.0
C942 C 0.12868 0.50304 0.03593 0.0
C943 C 0.13041 0.51845 0.05037 0.0
C944 C 0.11793 0.52933 0.05103 0.0
C945 C 0.04977 0.5425 0.99135 0.0
C946 C 0.03653 0.49625 0.00828 0.0
C947 C 0.99007 0.53226 1.00211 0.0
C948 C 0.97743 0.5444 1.00271 0.0
C949 C 0.95959 0.53603 1.00249 0.0
C950 C 0.94703 0.54679 1.0025 0.0
C951 C 0.95202 0.56627 1.00278 0.0
C952 C 0.96997 0.57469 1.00299 0.0
C953 C 0.98259 0.56384 1.00299 0.0
C954 C 0.03194 0.52749 0.04867 0.0
C955 C 0.04473 0.57319 0.03116 0.0
O956 O 0.08782 0.5445 0.0237 0.0
O957 O 0.07652 0.53098 0.04545 0.0
O958 O 0.06468 0.55174 1.0007 0.0
O959 O 0.04226 0.53026 0.99991 0.0
O960 O 0.05183 0.50688 0.01689 0.0
O961 O 0.02298 0.50348 0.00404 0.0
O962 O 0.99355 0.52591 0.01727 0.0
O963 O 0.00412 0.5372 0.99395 0.0
O964 O 0.0172 0.51771 0.03937 0.0
O965 O 0.03899 0.53948 0.03967 0.0
O966 O 0.02966 0.56269 0.02185 0.0
O967 O 0.05784 0.56567 0.03622 0.0
H968 H 0.09026 0.50598 0.01231 0.0
H969 H 0.11225 0.48681 0.01099 0.0
H970 H 0.14139 0.52208 0.06126 0.0
H971 H 0.11963 0.54118 0.06226 0.0
H972 H 0.95532 0.52103 1.00211 0.0
H973 H 0.93333 0.53974 1.00195 0.0
H974 H 0.97427 0.58966 1.00332 0.0
H975 H 0.99631 0.5706 1.00312 0.0
C976 C 1.00181 0.19162 0.91889 0.0
C977 C 0.00286 0.20933 0.92977 0.0
C978 C 0.00287 0.17607 0.92719 0.0
C979 C 0.99782 0.15651 0.97007 0.0
H980 H 0.03141 0.12827 0.95282 0.0
C981 C 0.00596 0.08591 0.99262 0.0
C982 C 0.02343 0.08496 0.99763 0.0
C983 C 1.00238 0.1011 0.98492 0.0
C984 C 0.02197 0.136 0.95779 0.0
H985 H 0.00525 0.22434 0.95796 0.0
H986 H 0.00673 0.19703 0.97245 0.0
H987 H 0.02667 0.15441 0.93811 0.0
H988 H 0.05079 0.09948 0.99857 0.0
H989 H 0.04451 0.12556 0.98496 0.0
H990 H 0.99312 0.13792 0.98973 0.0
C991 C 0.00517 0.19526 0.95747 0.0
C992 C 0.01916 0.1509 0.94928 0.0
C993 C 0.00438 0.21092 0.94917 0.0
C994 C 0.03716 0.09968 0.99496 0.0
C995 C 0.03359 0.11463 0.98703 0.0
C996 C 1.00042 0.14134 0.9784 0.0
C997 C 0.00476 0.17772 0.94659 0.0
C998 C 0.00716 0.16145 0.95538 0.0
C999 C 0.01619 0.11546 0.98175 0.0
C1000 C 0.01267 0.13105 0.97248 0.0
H1001 H 1.00067 0.18987 0.90392 0.0
H1002 H 1.00235 0.16272 0.91841 0.0
H1003 H 0.98843 0.1643 0.97504 0.0
H1004 H 0.99506 0.07484 0.99447 0.0
H1005 H 0.98883 0.10133 0.98095 0.0
C1006 C 0.13993 0.8307 0.16136 0.0
C1007 C 0.13287 0.82022 0.1437 0.0
C1008 C 0.15614 0.82923 0.16975 0.0
C1009 C 0.18401 0.79641 0.17236 0.0
H1010 H 0.22063 0.8403 0.19482 0.0
C1011 C 0.24753 0.78928 0.21436 0.0
C1012 C 0.254 0.80291 0.23039 0.0
C1013 C 0.23435 0.79171 0.20145 0.0
C1014 C 0.21049 0.82785 0.18885 0.0
H1015 H 0.13734 0.80004 0.12093 0.0
H1016 H 0.16549 0.7971 0.13588 0.0
H1017 H 0.19437 0.84413 0.17713 0.0
H1018 H 0.2521 0.82994 0.24525 0.0
H1019 H 0.22893 0.83386 0.22341 0.0
H1020 H 0.19951 0.78013 0.18485 0.0
C1021 C 0.15853 0.80662 0.14307 0.0
C1022 C 0.19549 0.8301 0.1786 0.0
C1023 C 0.14249 0.8084 0.1345 0.0
C1024 C 0.24741 0.81918 0.23301 0.0
C1025 C 0.23416 0.8215 0.22032 0.0
C1026 C 0.19887 0.79417 0.18293 0.0
C1027 C 0.16546 0.81694 0.16083 0.0
C1028 C 0.182 0.81443 0.17044 0.0
C1029 C 0.22727 0.80775 0.2044 0.0
C1030 C 0.21223 0.80989 0.1916 0.0
H1031 H 0.13281 0.83988 0.16879 0.0
H1032 H 0.16112 0.83726 0.18349 0.0
H1033 H 0.17373 0.78409 0.16632 0.0
H1034 H 0.25241 0.77661 0.21196 0.0
H1035 H 0.22965 0.78093 0.18924 0.0
C1036 C 0.53115 0.84166 0.4238 0.0
C1037 C 0.52127 0.82556 0.42917 0.0
C1038 C 0.53388 0.85935 0.43494 0.0
C1039 C 0.51469 0.88621 0.47082 0.0
H1040 H 0.55865 0.92309 0.47327 0.0
C1041 C 0.52003 0.96606 0.4899 0.0
C1042 C 0.53558 0.97772 0.50004 0.0
C1043 C 0.51877 0.9469 0.48382 0.0
C1044 C 0.54635 0.91296 0.47299 0.0
H1045 H 0.5068 0.81552 0.45083 0.0
H1046 H 0.5116 0.84663 0.47044 0.0
H1047 H 0.5562 0.8906 0.45876 0.0
H1048 H 0.56191 0.97814 0.51209 0.0
H1049 H 0.55966 0.94467 0.5016 0.0
H1050 H 0.50485 0.90861 0.48505 0.0
C1051 C 0.51714 0.84545 0.45744 0.0
C1052 C 0.54488 0.89433 0.46446 0.0
C1053 C 0.51448 0.82761 0.44627 0.0
C1054 C 0.54976 0.96963 0.50421 0.0
C1055 C 0.54849 0.95043 0.49812 0.0
C1056 C 0.51616 0.90487 0.47936 0.0
C1057 C 0.52679 0.86156 0.45183 0.0
C1058 C 0.52893 0.88079 0.4629 0.0
C1059 C 0.53301 0.93882 0.48772 0.0
C1060 C 0.53191 0.91858 0.48023 0.0
H1061 H 0.53664 0.8407 0.41076 0.0
H1062 H 0.54113 0.87142 0.42999 0.0
H1063 H 0.50218 0.87621 0.4698 0.0
H1064 H 0.50882 0.97175 0.4864 0.0
H1065 H 0.50674 0.93852 0.47561 0.0
C1066 C 0.5175 0.31398 0.65106 0.0
C1067 C 0.531 0.31014 0.66262 0.0
C1068 C 0.50107 0.3143 0.65717 0.0
C1069 C 0.47941 0.31913 0.69995 0.0
H1070 H 0.43655 0.29322 0.66776 0.0
C1071 C 0.41139 0.31791 0.72441 0.0
C1072 C 0.39923 0.30038 0.72073 0.0
C1073 C 0.42672 0.32066 0.71576 0.0
C1074 C 0.4484 0.3005 0.67693 0.0
H1075 H 0.53777 0.30387 0.68977 0.0
H1076 H 0.50936 0.30443 0.70028 0.0
H1077 H 0.465 0.29523 0.65595 0.0
H1078 H 0.39351 0.27215 0.70463 0.0
H1079 H 0.42025 0.27694 0.68958 0.0
H1080 H 0.46299 0.32391 0.7211 0.0
C1081 C 0.51144 0.30734 0.68657 0.0
C1082 C 0.46469 0.30182 0.6701 0.0
C1083 C 0.52774 0.3069 0.68047 0.0
C1084 C 0.40248 0.28589 0.70765 0.0
C1085 C 0.41784 0.28864 0.699 0.0
C1086 C 0.46316 0.31787 0.70675 0.0
C1087 C 0.49786 0.31097 0.67501 0.0
C1088 C 0.48041 0.3109 0.68163 0.0
C1089 C 0.43032 0.30596 0.70321 0.0
C1090 C 0.44745 0.30834 0.69541 0.0
H1091 H 0.51954 0.3165 0.63723 0.0
H1092 H 0.49092 0.31727 0.64797 0.0
H1093 H 0.49124 0.32642 0.70915 0.0
H1094 H 0.40915 0.32949 0.73413 0.0
H1095 H 0.43586 0.33429 0.71906 0.0
C1096 C 0.99714 0.79204 0.59607 0.0
C1097 C 0.9943 0.7951 0.61479 0.0
C1098 C 0.99862 0.80667 0.58597 0.0
C1099 C 0.01324 0.85749 0.59341 0.0
H1100 H 0.99201 0.8529 0.54292 0.0
C1101 C 0.02284 0.9208 0.55591 0.0
C1102 C 0.02466 0.91761 0.53691 0.0
C1103 C 0.01802 0.90575 0.56514 0.0
C1104 C 0.99823 0.85434 0.55693 0.0
H1105 H 0.98989 0.81559 0.63733 0.0
H1106 H 0.99262 0.84113 0.61972 0.0
H1107 H 0.98468 0.82651 0.55925 0.0
H1108 H 0.02274 0.89596 0.51274 0.0
H1109 H 0.01514 0.86976 0.52903 0.0
H1110 H 0.02726 0.88496 0.59107 0.0
C1111 C 0.99379 0.82745 0.61292 0.0
C1112 C 0.99393 0.83926 0.56629 0.0
C1113 C 0.99212 0.8128 0.62295 0.0
C1114 C 0.02169 0.89897 0.52743 0.0
C1115 C 0.01704 0.88391 0.53672 0.0
C1116 C 0.01769 0.87246 0.58402 0.0
C1117 C 0.99746 0.82464 0.59448 0.0
C1118 C 1.00138 0.84073 0.58463 0.0
C1119 C 0.0151 0.88711 0.55569 0.0
C1120 C 0.01024 0.87111 0.56566 0.0
H1121 H 0.99884 0.77855 0.58939 0.0
H1122 H 1.00152 0.80415 0.5718 0.0
H1123 H 0.01944 0.85887 0.60744 0.0
H1124 H 0.02525 0.93495 0.56374 0.0
H1125 H 0.01643 0.90879 0.57969 0.0
C1126 C 0.5259 0.78034 0.83274 0.0
C1127 C 0.53686 0.79387 0.82485 0.0
C1128 C 0.50845 0.77274 0.82499 0.0
C1129 C 0.47677 0.76872 0.78332 0.0
H1130 H 0.44376 0.77333 0.81912 0.0
C1131 C 0.41188 0.78912 0.76786 0.0
C1132 C 0.39804 0.78374 0.77819 0.0
C1133 C 0.42742 0.78315 0.77068 0.0
C1134 C 0.45265 0.77139 0.80888 0.0
H1135 H 0.53831 0.80946 0.80219 0.0
H1136 H 0.50785 0.7965 0.78893 0.0
H1137 H 0.47445 0.77633 0.82987 0.0
H1138 H 0.38866 0.76646 0.79807 0.0
H1139 H 0.41578 0.75575 0.80286 0.0
H1140 H 0.455 0.76471 0.76233 0.0
C1141 C 0.51279 0.79155 0.80094 0.0
C1142 C 0.4703 0.77316 0.81509 0.0
C1143 C 0.5302 0.79916 0.80869 0.0
C1144 C 0.39936 0.77108 0.79024 0.0
C1145 C 0.41484 0.76496 0.79295 0.0
C1146 C 0.45906 0.76689 0.77709 0.0
C1147 C 0.50166 0.7785 0.80917 0.0
C1148 C 0.48265 0.77262 0.8024 0.0
C1149 C 0.4293 0.77158 0.78378 0.0
C1150 C 0.44697 0.76899 0.78985 0.0
H1151 H 0.53068 0.77581 0.84509 0.0
H1152 H 0.50019 0.76261 0.83155 0.0
H1153 H 0.48599 0.7679 0.77324 0.0
H1154 H 0.41114 0.79891 0.7585 0.0
H1155 H 0.43836 0.7887 0.76353 0.0
C1156 C 0.51853 0.18152 0.13555 0.0
C1157 C 0.51634 0.19775 0.1289 0.0
C1158 C 0.52011 0.16569 0.12335 0.0
C1159 C 0.53303 0.1506 0.07809 0.0
H1160 H 0.50325 0.10204 0.08036 0.0
C1161 C 0.52776 0.08598 0.0215 0.0
C1162 C 0.52601 0.06837 0.0268 0.0
C1163 C 0.52694 0.10169 0.03431 0.0
C1164 C 0.51188 0.11542 0.07972 0.0
H1165 H 0.51438 0.21023 0.10428 0.0
H1166 H 0.51744 0.18258 0.08298 0.0
H1167 H 0.50145 0.12976 0.1022 0.0
H1168 H 0.52195 0.05325 0.04946 0.0
H1169 H 0.52117 0.08077 0.07216 0.0
H1170 H 0.54376 0.13636 0.05591 0.0
C1171 C 0.51785 0.18216 0.09765 0.0
C1172 C 0.51077 0.13129 0.09218 0.0
C1173 C 0.51602 0.19792 0.10982 0.0
C1174 C 0.52345 0.0667 0.04511 0.0
C1175 C 0.52283 0.08245 0.05803 0.0
C1176 C 0.5343 0.13471 0.06577 0.0
C1177 C 0.51978 0.16587 0.1043 0.0
C1178 C 0.52125 0.14903 0.09138 0.0
C1179 C 0.52453 0.10016 0.05276 0.0
C1180 C 0.52363 0.11694 0.06633 0.0
H1181 H 0.51877 0.18092 0.15017 0.0
H1182 H 0.52172 0.15334 0.12882 0.0
H1183 H 0.54141 0.16411 0.07736 0.0
H1184 H 0.52967 0.08763 0.0074 0.0
H1185 H 0.52795 0.11499 0.02964 0.0
C1186 C 0.15748 0.3094 0.35548 0.0
C1187 C 0.14031 0.31023 0.34935 0.0
C1188 C 0.17107 0.31437 0.34482 0.0
C1189 C 0.17799 0.31806 0.29666 0.0
H1190 H 0.22627 0.33805 0.31915 0.0
C1191 C 0.23535 0.29602 0.26673 0.0
C1192 C 0.25226 0.30787 0.27051 0.0
C1193 C 0.22107 0.30228 0.273 0.0
C1194 C 0.21283 0.33296 0.31255 0.0
H1195 H 0.1239 0.31728 0.3275 0.0
H1196 H 0.14758 0.32651 0.30938 0.0
H1197 H 0.20251 0.33793 0.33836 0.0
H1198 H 0.26734 0.33611 0.28234 0.0
H1199 H 0.2422 0.34708 0.29342 0.0
H1200 H 0.18834 0.31282 0.27092 0.0
C1201 C 0.15057 0.32162 0.32211 0.0
C1202 C 0.19924 0.33257 0.32363 0.0
C1203 C 0.13699 0.31636 0.33256 0.0
C1204 C 0.25444 0.32663 0.27935 0.0
C1205 C 0.24009 0.33289 0.28573 0.0
C1206 C 0.19155 0.31865 0.28557 0.0
C1207 C 0.16772 0.32049 0.32799 0.0
C1208 C 0.18177 0.32427 0.31593 0.0
C1209 C 0.22341 0.32052 0.28322 0.0
C1210 C 0.20914 0.32517 0.29357 0.0
H1211 H 0.16037 0.30474 0.36837 0.0
H1212 H 0.18408 0.31296 0.34956 0.0
H1213 H 0.16469 0.31155 0.29023 0.0
H1214 H 0.23325 0.28158 0.25971 0.0
H1215 H 0.20843 0.29231 0.271 0.0
C1216 C 0.93288 0.04717 0.18059 0.0
C1217 C 0.94244 0.0546 0.19838 0.0
C1218 C 0.94129 0.04598 0.16411 0.0
C1219 C 0.98443 0.06491 0.14506 0.0
H1220 H 0.96625 0.02486 0.10288 0.0
C1221 C 0.02538 0.05712 0.08204 0.0
C1222 C 0.01787 0.04803 0.06385 0.0
C1223 C 0.01565 0.05739 0.09738 0.0
C1224 C 0.97159 0.03637 0.11431 0.0
H1225 H 0.96896 0.06657 0.21192 0.0
H1226 H 0.98343 0.06471 0.18372 0.0
H1227 H 0.95107 0.02634 0.13064 0.0
H1228 H 0.99322 0.03174 0.04835 0.0
H1229 H 0.97598 0.03251 0.07498 0.0
H1230 H 0.00459 0.07534 0.12889 0.0
C1231 C 0.96926 0.05981 0.18229 0.0
C1232 C 0.96274 0.03722 0.13054 0.0
C1233 C 0.96087 0.06081 0.19876 0.0
C1234 C 0.99976 0.03901 0.06188 0.0
C1235 C 0.98982 0.03941 0.07744 0.0
C1236 C 0.99315 0.06417 0.12886 0.0
C1237 C 0.95976 0.05235 0.16443 0.0
C1238 C 0.96901 0.05143 0.14651 0.0
C1239 C 0.9975 0.04877 0.09572 0.0
C1240 C 0.98721 0.04976 0.11299 0.0
H1241 H 0.91873 0.04215 0.17932 0.0
H1242 H 0.93314 0.04027 0.15099 0.0
H1243 H 0.98979 0.07645 0.15646 0.0
H1244 H 0.03921 0.06413 0.08464 0.0
H1245 H 0.02275 0.0643 0.11076 0.0
C1246 C 0.3014 0.66983 0.46022 0.0
C1247 C 0.30449 0.67783 0.47914 0.0
C1248 C 0.30168 0.68127 0.44689 0.0
C1249 C 0.29227 0.72669 0.44313 0.0
H1250 H 0.30228 0.71402 0.39266 0.0
C1251 C 0.27967 0.76811 0.38471 0.0
C1252 C 0.27199 0.75707 0.36745 0.0
C1253 C 0.28487 0.75966 0.39921 0.0
C1254 C 0.29937 0.71764 0.40671 0.0
H1255 H 0.31235 0.70403 0.49891 0.0
H1256 H 0.31324 0.72404 0.47555 0.0
H1257 H 0.31256 0.6979 0.41633 0.0
H1258 H 0.26254 0.72854 0.35225 0.0
H1259 H 0.27178 0.7138 0.37757 0.0
H1260 H 0.27893 0.74633 0.43339 0.0
C1261 C 0.31006 0.70893 0.47106 0.0
C1262 C 0.3053 0.70848 0.42025 0.0
C1263 C 0.30969 0.69748 0.48442 0.0
C1264 C 0.26873 0.7374 0.3653 0.0
C1265 C 0.27405 0.72898 0.37973 0.0
C1266 C 0.28646 0.73596 0.42961 0.0
C1267 C 0.30519 0.70091 0.45223 0.0
C1268 C 0.30147 0.71261 0.43852 0.0
C1269 C 0.28258 0.74007 0.39662 0.0
C1270 C 0.28962 0.73119 0.41122 0.0
H1271 H 0.29745 0.65473 0.45572 0.0
H1272 H 0.29782 0.67462 0.4325 0.0
H1273 H 0.28881 0.72997 0.45701 0.0
H1274 H 0.28254 0.78331 0.38672 0.0
H1275 H 0.29144 0.76849 0.41213 0.0
C1276 C 0.6381 0.00762 0.66742 0.0
C1277 C 0.63052 0.99792 0.68077 0.0
C1278 C 0.6279 0.00789 0.65103 0.0
C1279 C 0.58981 0.988 0.61793 0.0
H1280 H 0.58088 0.03795 0.6232 0.0
C1281 C 0.53813 1.006 0.56731 0.0
C1282 C 0.54255 0.02379 0.56235 0.0
C1283 C 0.54843 1.00162 0.58169 0.0
C1284 C 0.58342 0.02402 0.62125 0.0
H1285 H 0.60705 0.97942 0.68677 0.0
H1286 H 0.58939 0.97945 0.65772 0.0
H1287 H 0.6014 0.03093 0.6462 0.0
H1288 H 0.56041 0.05128 0.56897 0.0
H1289 H 0.57884 0.04352 0.59329 0.0
H1290 H 0.57233 0.98117 0.59264 0.0
C1291 C 0.60309 0.98697 0.6601 0.0
C1292 C 0.59512 0.02003 0.63449 0.0
C1293 C 0.61317 0.987 0.67667 0.0
C1294 C 0.55688 0.03737 0.57243 0.0
C1295 C 0.56734 0.03294 0.58652 0.0
C1296 C 0.57834 0.9921 0.60439 0.0
C1297 C 0.61018 0.99809 0.64761 0.0
C1298 C 0.59842 1.00205 0.6329 0.0
C1299 C 0.56337 0.01495 0.59125 0.0
C1300 C 0.57503 0.0102 0.60588 0.0
H1301 H 0.6514 0.01625 0.67029 0.0
H1302 H 0.63352 0.01661 0.64152 0.0
H1303 H 0.59214 0.97399 0.61662 0.0
H1304 H 0.52701 0.99534 0.55978 0.0
H1305 H 0.54474 0.98777 0.58521 0.0
C1306 C 0.2787 0.36334 0.95618 0.0
C1307 C 0.29141 0.36342 0.97084 0.0
C1308 C 0.27839 0.35264 0.93871 0.0
C1309 C 0.30753 0.3356 0.90829 0.0
H1310 H 0.26443 0.30627 0.8785 0.0
C1311 C 0.30655 0.30115 0.8316 0.0
C1312 C 0.29186 0.30101 0.81919 0.0
C1313 C 0.30665 0.30656 0.85073 0.0
C1314 C 0.27658 0.31458 0.88652 0.0
H1315 H 0.31352 0.35198 0.97884 0.0
H1316 H 0.31323 0.33349 0.94797 0.0
H1317 H 0.26396 0.31901 0.91101 0.0
H1318 H 0.26588 0.30681 0.8172 0.0
H1319 H 0.26628 0.3168 0.85026 0.0
H1320 H 0.32005 0.33206 0.88369 0.0
C1321 C 0.30341 0.34162 0.95016 0.0
C1322 C 0.2763 0.32173 0.9052 0.0
C1323 C 0.30349 0.35206 0.96782 0.0
C1324 C 0.27736 0.30656 0.82634 0.0
C1325 C 0.27754 0.31217 0.8454 0.0
C1326 C 0.30778 0.32866 0.88951 0.0
C1327 C 0.29099 0.34203 0.93538 0.0
C1328 C 0.29171 0.33255 0.91622 0.0
C1329 C 0.29213 0.31215 0.85791 0.0
C1330 C 0.29223 0.31833 0.87826 0.0
H1331 H 0.26922 0.37195 0.9581 0.0
H1332 H 0.26875 0.35334 0.92756 0.0
H1333 H 0.31957 0.34408 0.91641 0.0
H1334 H 0.31789 0.29682 0.82657 0.0
H1335 H 0.31804 0.30611 0.85989 0.0
C1336 C 0.95115 0.06484 0.32819 0.0
C1337 C 0.9523 0.05123 0.31279 0.0
C1338 C 0.95883 0.06452 0.34649 0.0
C1339 C 0.99091 0.04086 0.37182 0.0
H1340 H 0.97458 0.06252 0.41648 0.0
C1341 C 0.01537 0.02587 0.44471 0.0
C1342 C 0.0181 0.03995 0.46076 0.0
C1343 C 0.00747 0.02816 0.4274 0.0
C1344 C 0.9795 0.05644 0.40422 0.0
H1345 H 0.96208 0.02608 0.30575 0.0
H1346 H 0.97436 0.02516 0.3365 0.0
H1347 H 0.96076 0.06489 0.38607 0.0
H1348 H 0.01409 0.06773 0.47036 0.0
H1349 H 1.00022 0.07162 0.44047 0.0
H1350 H 0.00945 0.03223 0.38983 0.0
C1351 C 0.96837 0.03672 0.33482 0.0
C1352 C 0.97147 0.05785 0.38651 0.0
C1353 C 0.96098 0.03716 0.31677 0.0
C1354 C 0.01237 0.05644 0.45858 0.0
C1355 C 0.00423 0.05864 0.44126 0.0
C1356 C 0.99873 0.03929 0.38941 0.0
C1357 C 0.96788 0.05051 0.35026 0.0
C1358 C 0.97682 0.0499 0.36973 0.0
C1359 C 1.00165 0.04459 0.42514 0.0
C1360 C 0.99321 0.04688 0.40614 0.0
H1361 H 0.94467 0.07598 0.32608 0.0
H1362 H 0.95792 0.07557 0.35762 0.0
H1363 H 0.99625 0.03501 0.35979 0.0
H1364 H 0.0194 0.0129 0.44545 0.0
H1365 H 0.00569 0.01675 0.41574 0.0
C1366 C 0.27608 0.66355 0.59687 0.0
C1367 C 0.28331 0.66875 0.58113 0.0
C1368 C 0.27789 0.67681 0.61303 0.0
C1369 C 0.28392 0.72712 0.62922 0.0
H1370 H 0.29485 0.71459 0.67735 0.0
C1371 C 0.29428 0.77941 0.69929 0.0
C1372 C 0.28784 0.77175 0.71432 0.0
C1373 C 0.29342 0.76776 0.68216 0.0
C1374 C 0.29158 0.71822 0.66401 0.0
H1375 H 0.29849 0.69184 0.57011 0.0
H1376 H 0.30161 0.71499 0.59843 0.0
H1377 H 0.29523 0.69227 0.64943 0.0
H1378 H 0.27445 0.74632 0.72302 0.0
H1379 H 0.27237 0.72624 0.69315 0.0
H1380 H 0.28003 0.75301 0.6439 0.0
C1381 C 0.29447 0.70067 0.59816 0.0
C1382 C 0.29188 0.70548 0.64806 0.0
C1383 C 0.29278 0.68738 0.58202 0.0
C1384 C 0.27952 0.7526 0.71168 0.0
C1385 C 0.27853 0.74105 0.69462 0.0
C1386 C 0.28356 0.73989 0.64524 0.0
C1387 C 0.28688 0.69553 0.61372 0.0
C1388 C 0.28783 0.70969 0.63053 0.0
C1389 C 0.28605 0.74835 0.6799 0.0
C1390 C 0.2871 0.7354 0.66278 0.0
H1391 H 0.26872 0.64933 0.59663 0.0
H1392 H 0.2718 0.67252 0.62481 0.0
H1393 H 0.28062 0.73063 0.61583 0.0
H1394 H 0.30079 0.79415 0.70102 0.0
H1395 H 0.29931 0.77375 0.67103 0.0
C1396 C 0.62647 0.04794 0.7944 0.0
C1397 C 0.61484 0.04329 0.77789 0.0
C1398 C 0.62114 0.05549 0.81097 0.0
C1399 C 0.58581 0.07677 0.82972 0.0
H1400 H 0.59744 0.05565 0.87274 0.0
C1401 C 0.54124 0.06115 0.88529 0.0
C1402 C 0.54891 0.06174 0.90336 0.0
C1403 C 0.55177 0.06649 0.87181 0.0
C1404 C 0.59442 0.06211 0.86103 0.0
H1405 H 0.58848 0.0427 0.7658 0.0
H1406 H 0.57895 0.05506 0.79475 0.0
H1407 H 0.6115 0.04918 0.84516 0.0
H1408 H 0.57339 0.07003 0.92195 0.0
H1409 H 0.59171 0.0794 0.89838 0.0
H1410 H 0.56773 0.08854 0.84537 0.0
C1411 C 0.59237 0.05352 0.79487 0.0
C1412 C 0.60248 0.05837 0.84517 0.0
C1413 C 0.59776 0.04618 0.7783 0.0
C1414 C 0.56706 0.06947 0.90814 0.0
C1415 C 0.57759 0.07473 0.89465 0.0
C1416 C 0.5776 0.08034 0.84556 0.0
C1417 C 0.60401 0.05834 0.81139 0.0
C1418 C 0.59779 0.06507 0.82911 0.0
C1419 C 0.57014 0.07239 0.87619 0.0
C1420 C 0.58142 0.07251 0.86112 0.0
H1421 H 0.6398 0.0461 0.79446 0.0
H1422 H 0.63047 0.0592 0.82343 0.0
H1423 H 0.58226 0.08254 0.81771 0.0
H1424 H 0.52725 0.05547 0.88133 0.0
H1425 H 0.54568 0.06447 0.85765 0.0
C1426 C 0.30899 0.3774 0.10172 0.0
C1427 C 0.3053 0.36601 0.08402 0.0
C1428 C 0.30821 0.36937 0.11769 0.0
C1429 C 0.31334 0.34939 0.15003 0.0
H1430 H 0.27675 0.30456 0.1488 0.0
C1431 C 0.30792 0.3085 0.2113 0.0
C1432 C 0.29099 0.29996 0.21475 0.0
C1433 C 0.31023 0.317 0.19569 0.0
C1434 C 0.28694 0.3172 0.1495 0.0
H1435 H 0.29845 0.33721 0.06927 0.0
H1436 H 0.29756 0.32317 0.0971 0.0
H1437 H 0.27985 0.31834 0.12111 0.0
H1438 H 0.26318 0.29429 0.20511 0.0
H1439 H 0.26708 0.30954 0.17826 0.0
H1440 H 0.31998 0.34861 0.17866 0.0
C1441 C 0.30063 0.33834 0.09868 0.0
C1442 C 0.28892 0.32496 0.13346 0.0
C1443 C 0.30127 0.34639 0.08269 0.0
C1444 C 0.2764 0.3006 0.20267 0.0
C1445 C 0.27867 0.30922 0.18718 0.0
C1446 C 0.31129 0.34169 0.16613 0.0
C1447 C 0.30385 0.34972 0.11642 0.0
C1448 C 0.30212 0.34119 0.13347 0.0
C1449 C 0.29563 0.31727 0.18327 0.0
C1450 C 0.298 0.32551 0.16612 0.0
H1451 H 0.31205 0.39258 0.10326 0.0
H1452 H 0.31053 0.37864 0.13103 0.0
H1453 H 0.32381 0.36175 0.15057 0.0
H1454 H 0.31941 0.30814 0.22037 0.0
H1455 H 0.32349 0.32287 0.19309 0.0
C1456 C 0.22756 0.93695 0.01204 0.0
C1457 C 0.24407 0.94407 0.02258 0.0
C1458 C 0.21559 0.94836 0.01116 0.0
C1459 C 0.2147 0.99891 0.01918 0.0
H1460 H 0.1642 0.97908 0.01315 0.0
C1461 C 0.16163 0.04222 0.02853 0.0
C1462 C 0.14728 0.03736 0.01449 0.0
C1463 C 0.17461 0.03196 0.02816 0.0
C1464 C 0.1783 0.98471 0.01467 0.0
H1465 H 0.26071 0.96799 0.04145 0.0
H1466 H 0.23951 0.98752 0.04084 0.0
H1467 H 0.18373 0.95808 0.01693 0.0
H1468 H 0.13616 0.01911 0.98819 0.0
H1469 H 0.15857 1.0008 0.98798 0.0
H1470 H 0.20906 0.02573 0.0177 0.0
C1471 C 0.236 0.97353 0.03253 0.0
C1472 C 0.18949 0.97271 0.01679 0.0
C1473 C 0.24808 0.9623 0.03307 0.0
C1474 C 0.14683 0.02289 0.99944 0.0
C1475 C 0.15963 0.01246 0.99925 0.0
C1476 C 0.20349 0.01095 0.01742 0.0
C1477 C 0.21984 0.96693 0.02111 0.0
C1478 C 0.20784 0.97966 0.01907 0.0
C1479 C 0.17329 0.01659 0.01388 0.0
C1480 C 0.18524 1.00391 0.01509 0.0
H1481 H 0.22428 0.92296 1.00372 0.0
H1482 H 0.20334 0.94284 1.00208 0.0
H1483 H 0.22875 1.00469 0.02045 0.0
H1484 H 0.1623 0.05316 0.04039 0.0
H1485 H 0.18507 0.03531 0.0396 0.0
C1486 C 0.70683 0.65685 0.99266 0.0
C1487 C 0.71791 0.64853 0.98171 0.0
C1488 C 0.68989 0.6467 0.99414 0.0
C1489 C 0.65365 0.60861 0.97097 0.0
H1490 H 0.64303 0.60043 0.01991 0.0
C1491 C 0.59288 0.55288 0.98061 0.0
C1492 C 0.58477 0.55541 0.99679 0.0
C1493 C 0.60843 0.5654 0.9786 0.0
C1494 C 0.64551 0.60285 0.00615 0.0
H1495 H 0.71975 0.62336 0.96323 0.0
H1496 H 0.68985 0.6059 0.9653 0.0
H1497 H 0.67105 0.62065 0.01635 0.0
H1498 H 0.58655 0.57311 0.02355 0.0
H1499 H 0.61301 0.59569 0.01966 0.0
H1500 H 0.62806 0.59141 0.96066 0.0
C1501 C 0.69441 0.62014 0.97291 0.0
C1502 C 0.66167 0.61437 0.00415 0.0
C1503 C 0.71149 0.63011 0.97178 0.0
C1504 C 0.59236 0.57093 0.01082 0.0
C1505 C 0.60774 0.58372 0.00867 0.0
C1506 C 0.63732 0.59743 0.97298 0.0
C1507 C 0.68357 0.62823 0.98435 0.0
C1508 C 0.66597 0.61712 0.98652 0.0
C1509 C 0.61615 0.58104 0.99259 0.0
C1510 C 0.6331 0.59408 0.99058 0.0
H1511 H 0.71145 0.67095 1.00053 0.0
H1512 H 0.68174 0.65324 1.003 0.0
H1513 H 0.65663 0.61067 0.95723 0.0
H1514 H 0.58741 0.54096 0.96959 0.0
H1515 H 0.61458 0.56246 0.9662 0.0
C1516 C 0.70968 0.46247 0.26859 0.0
C1517 C 0.69117 0.46006 0.26744 0.0
C1518 C 0.71793 0.44698 0.2678 0.0
C1519 C 0.70915 0.39363 0.26968 0.0
H1520 H 0.75526 0.39818 0.25342 0.0
C1521 C 0.74273 0.32786 0.25953 0.0
C1522 C 0.7613 0.33067 0.26105 0.0
C1523 C 0.73417 0.34313 0.26019 0.0
C1524 C 0.74247 0.39642 0.25828 0.0
H1525 H 0.6672 0.43832 0.26442 0.0
H1526 H 0.68121 0.41176 0.26285 0.0
H1527 H 0.74116 0.42445 0.25482 0.0
H1528 H 0.78499 0.35291 0.26468 0.0
H1529 H 0.77048 0.37896 0.26597 0.0
H1530 H 0.71048 0.36554 0.27307 0.0
C1531 C 0.68965 0.42571 0.26466 0.0
C1532 C 0.73418 0.41186 0.2591 0.0
C1533 C 0.68142 0.44121 0.26546 0.0
C1534 C 0.77075 0.34966 0.2633 0.0
C1535 C 0.76223 0.3649 0.26393 0.0
C1536 C 0.71744 0.37816 0.26884 0.0
C1537 C 0.70821 0.42803 0.26579 0.0
C1538 C 0.71724 0.41106 0.26486 0.0
C1539 C 0.74364 0.36221 0.2624 0.0
C1540 C 0.73442 0.37902 0.26315 0.0
H1541 H 0.71796 0.4765 0.27017 0.0
H1542 H 0.73215 0.45008 0.26905 0.0
H1543 H 0.69636 0.39187 0.27451 0.0
H1544 H 0.73467 0.31373 0.25786 0.0
H1545 H 0.71994 0.33979 0.25872 0.0
C1546 C 0.85282 0.43593 0.50334 0.0
C1547 C 0.84444 0.44884 0.49639 0.0
C1548 C 0.87101 0.4385 0.50445 0.0
C1549 C 0.91009 0.45347 0.5158 0.0
H1550 H 0.93465 0.47146 0.47628 0.0
C1551 C 0.98434 0.48677 0.52339 0.0
C1552 C 0.99302 0.48511 0.50751 0.0
C1553 C 0.96643 0.47853 0.5223 0.0
C1554 C 0.92799 0.4661 0.4873 0.0
H1555 H 0.84859 0.4746 0.48518 0.0
H1556 H 0.88054 0.47928 0.48741 0.0
H1557 H 0.90275 0.46539 0.4734 0.0
H1558 H 0.99044 0.47176 0.47868 0.0
H1559 H 0.95931 0.45694 0.47693 0.0
H1560 H 0.93538 0.45407 0.52963 0.0
C1561 C 0.87292 0.467 0.49172 0.0
C1562 C 0.90972 0.46294 0.48578 0.0
C1563 C 0.85466 0.46438 0.49053 0.0
C1564 C 0.98397 0.47355 0.49106 0.0
C1565 C 0.96614 0.46516 0.49002 0.0
C1566 C 0.92839 0.45657 0.5173 0.0
C1567 C 0.88126 0.45407 0.49872 0.0
C1568 C 0.9006 0.45682 0.5001 0.0
C1569 C 0.957 0.46835 0.50537 0.0
C1570 C 0.93754 0.46311 0.50315 0.0
H1571 H 0.84533 0.42372 0.50788 0.0
H1572 H 0.87702 0.42815 0.50963 0.0
H1573 H 0.90342 0.44887 0.52714 0.0
H1574 H 0.99099 0.49556 0.53628 0.0
H1575 H 0.95977 0.48129 0.53438 0.0
C1576 C 0.36617 0.0712 0.31071 0.0
C1577 C 0.38403 0.08029 0.31193 0.0
C1578 C 0.35338 0.08167 0.31231 0.0
C1579 C 0.34701 0.13043 0.32375 0.0
H1580 H 0.31104 0.11375 0.28126 0.0
C1581 C 0.31817 0.18105 0.28694 0.0
C1582 C 0.29997 0.17696 0.28129 0.0
C1583 C 0.32575 0.16812 0.29445 0.0
C1584 C 0.32074 0.11842 0.29342 0.0
H1585 H 0.40264 0.10741 0.31739 0.0
H1586 H 0.38043 0.12562 0.3199 0.0
H1587 H 0.32928 0.09275 0.2893 0.0
H1588 H 0.27547 0.15596 0.27898 0.0
H1589 H 0.28895 0.13299 0.29168 0.0
H1590 H 0.33911 0.15655 0.32709 0.0
C1591 C 0.37621 0.11045 0.31785 0.0
C1592 C 0.33117 0.10638 0.29809 0.0
C1593 C 0.38897 0.09999 0.31628 0.0
C1594 C 0.28955 0.15946 0.28305 0.0
C1595 C 0.29721 0.14638 0.29042 0.0
C1596 C 0.33666 0.1425 0.319 0.0
C1597 C 0.35823 0.1014 0.31517 0.0
C1598 C 0.34485 0.11252 0.31289 0.0
C1599 C 0.31536 0.15069 0.29631 0.0
C1600 C 0.32388 0.13683 0.30339 0.0
H1601 H 0.36198 0.05601 0.30753 0.0
H1602 H 0.33965 0.07432 0.31049 0.0
H1603 H 0.35722 0.13543 0.33543 0.0
H1604 H 0.32666 0.19418 0.28533 0.0
H1605 H 0.33985 0.17159 0.29842 0.0
C1606 C 0.33084 0.14922 0.48555 0.0
C1607 C 0.31666 0.13922 0.49318 0.0
C1608 C 0.34639 0.14281 0.4844 0.0
C1609 C 0.3627 0.09946 0.48387 0.0
H1610 H 0.40891 0.13294 0.49808 0.0
C1611 C 0.4249 0.07124 0.47763 0.0
C1612 C 0.4381 0.07704 0.49288 0.0
C1613 C 0.41122 0.08044 0.47604 0.0
C1614 C 0.39609 0.12341 0.4941 0.0
H1615 H 0.30791 0.11468 0.50573 0.0
H1616 H 0.33473 0.10373 0.50376 0.0
H1617 H 0.38262 0.14579 0.49852 0.0
H1618 H 0.44765 0.09762 0.51803 0.0
H1619 H 0.4236 0.11364 0.51536 0.0
H1620 H 0.3759 0.07703 0.47999 0.0
C1621 C 0.33385 0.11636 0.49844 0.0
C1622 C 0.38105 0.1308 0.49416 0.0
C1623 C 0.31845 0.12275 0.49965 0.0
C1624 C 0.43772 0.09285 0.50608 0.0
C1625 C 0.42394 0.10205 0.50452 0.0
C1626 C 0.37765 0.09211 0.48376 0.0
C1627 C 0.34799 0.1262 0.49072 0.0
C1628 C 0.36416 0.11884 0.4893 0.0
C1629 C 0.41029 0.09567 0.48969 0.0
C1630 C 0.39455 0.10393 0.48902 0.0
H1631 H 0.32994 0.16198 0.4805 0.0
H1632 H 0.35703 0.15067 0.47831 0.0
H1633 H 0.34992 0.08986 0.47982 0.0
H1634 H 0.42501 0.05937 0.46701 0.0
H1635 H 0.40119 0.07542 0.4642 0.0
C1636 C 0.70903 0.58384 0.27419 0.0
C1637 C 0.69051 0.57977 0.27024 0.0
C1638 C 0.71965 0.60198 0.27366 0.0
C1639 C 0.71629 0.65278 0.27179 0.0
H1640 H 0.76385 0.65914 0.25924 0.0
C1641 C 0.75689 0.72577 0.25795 0.0
C1642 C 0.77522 0.73082 0.26342 0.0
C1643 C 0.74665 0.70762 0.25891 0.0
C1644 C 0.75064 0.65783 0.26296 0.0
H1645 H 0.66915 0.59243 0.26225 0.0
H1646 H 0.68711 0.62289 0.26095 0.0
H1647 H 0.74683 0.62789 0.26107 0.0
H1648 H 0.79686 0.71998 0.27397 0.0
H1649 H 0.7794 0.689 0.27565 0.0
H1650 H 0.72006 0.6827 0.2735 0.0
C1651 C 0.69371 0.61251 0.26502 0.0
C1652 C 0.74076 0.63964 0.26406 0.0
C1653 C 0.68323 0.59461 0.26563 0.0
C1654 C 0.78283 0.71691 0.26965 0.0
C1655 C 0.77271 0.69886 0.27049 0.0
C1656 C 0.72612 0.67092 0.27057 0.0
C1657 C 0.7122 0.61683 0.26912 0.0
C1658 C 0.72327 0.63658 0.26845 0.0
C1659 C 0.75436 0.69367 0.26515 0.0
C1660 C 0.74356 0.67395 0.26613 0.0
H1661 H 0.71536 0.57304 0.27778 0.0
H1662 H 0.73374 0.60438 0.27708 0.0
H1663 H 0.70316 0.65162 0.27568 0.0
H1664 H 0.75046 0.73562 0.25248 0.0
H1665 H 0.73268 0.70441 0.25434 0.0
C1666 C 0.91676 0.47256 0.76534 0.0
C1667 C 0.91405 0.48666 0.77922 0.0
C1668 C 0.90617 0.45435 0.76261 0.0
C1669 C 0.86256 0.42927 0.77139 0.0
H1670 H 0.88062 0.38454 0.7601 0.0
C1671 C 0.82287 0.35592 0.776 0.0
C1672 C 0.82286 0.34105 0.76158 0.0
C1673 C 0.83402 0.37352 0.7769 0.0
C1674 C 0.87539 0.39694 0.76302 0.0
H1675 H 0.89877 0.49247 0.80176 0.0
H1676 H 0.88063 0.46069 0.79728 0.0
H1677 H 0.90074 0.41557 0.76478 0.0
H1678 H 0.83457 0.33293 0.7368 0.0
H1679 H 0.85416 0.36386 0.73844 0.0
H1680 H 0.8373 0.41069 0.76997 0.0
C1681 C 0.89058 0.4638 0.78815 0.0
C1682 C 0.88689 0.41468 0.76571 0.0
C1683 C 0.90106 0.48199 0.79081 0.0
C1684 C 0.83421 0.34415 0.74802 0.0
C1685 C 0.8455 0.36178 0.74902 0.0
C1686 C 0.85112 0.4116 0.76881 0.0
C1687 C 0.89274 0.44989 0.77377 0.0
C1688 C 0.88061 0.43102 0.77018 0.0
C1689 C 0.84547 0.37661 0.76347 0.0
C1690 C 0.85746 0.39527 0.76484 0.0
H1691 H 0.92664 0.47573 0.75615 0.0
H1692 H 0.9081 0.44395 0.75136 0.0
H1693 H 0.85723 0.4416 0.77435 0.0
H1694 H 0.81428 0.35399 0.78666 0.0
H1695 H 0.83388 0.38467 0.78831 0.0
C1696 C 0.07852 0.87982 0.10171 0.0
C1697 C 0.07159 0.86112 0.09268 0.0
C1698 C 0.07663 0.89486 0.09294 0.0
C1699 C 0.0483 0.9083 0.0581 0.0
H1700 H 0.08834 0.94935 0.05765 0.0
C1701 C 0.04065 0.96988 0.02105 0.0
C1702 C 0.05074 0.98801 0.02875 0.0
C1703 C 0.04399 0.95407 0.0276 0.0
C1704 C 0.07691 0.9382 0.05786 0.0
H1705 H 0.05714 0.84359 0.06733 0.0
H1706 H 0.05341 0.86994 0.05218 0.0
H1707 H 0.0924 0.92265 0.07168 0.0
H1708 H 0.07244 1.00367 0.04933 0.0
H1709 H 0.07784 0.97633 0.06128 0.0
H1710 H 0.03259 0.924 0.04511 0.0
C1711 C 0.06046 0.8729 0.06601 0.0
C1712 C 0.07931 0.92281 0.06582 0.0
C1713 C 0.06265 0.85782 0.07466 0.0
C1714 C 0.06449 0.9899 0.04297 0.0
C1715 C 0.06763 0.97411 0.04977 0.0
C1716 C 0.04582 0.92383 0.05043 0.0
C1717 C 0.06748 0.89159 0.07505 0.0
C1718 C 0.06503 0.90769 0.06606 0.0
C1719 C 0.05732 0.95592 0.04233 0.0
C1720 C 0.06009 0.93909 0.05018 0.0
H1721 H 0.08551 0.88287 0.11557 0.0
H1722 H 0.08206 0.90908 0.10032 0.0
H1723 H 0.037 0.89697 0.05828 0.0
H1724 H 0.03006 0.96787 0.00995 0.0
H1725 H 0.03602 0.94038 0.02107 0.0
C1726 C 0.95167 0.28606 0.86684 0.0
C1727 C 0.95666 0.26926 0.86855 0.0
C1728 C 0.93474 0.28583 0.85911 0.0
C1729 C 0.88961 0.255 0.8427 0.0
H1730 H 0.88741 0.29362 0.8132 0.0
C1731 C 0.83129 0.25395 0.78719 0.0
C1732 C 0.82631 0.27103 0.7869 0.0
C1733 C 0.84575 0.25312 0.79933 0.0
C1734 C 0.88774 0.28287 0.82156 0.0
H1735 H 0.94766 0.23899 0.864 0.0
H1736 H 0.91813 0.23839 0.8496 0.0
H1737 H 0.91531 0.29301 0.82966 0.0
H1738 H 0.83195 0.30042 0.79975 0.0
H1739 H 0.85739 0.29906 0.82071 0.0
H1740 H 0.86193 0.24444 0.83357 0.0
C1741 C 0.92717 0.25187 0.8547 0.0
C1742 C 0.90378 0.28254 0.83114 0.0
C1743 C 0.94411 0.25215 0.86291 0.0
C1744 C 0.83555 0.28708 0.79958 0.0
C1745 C 0.85014 0.28631 0.81152 0.0
C1746 C 0.87354 0.25517 0.8328 0.0
C1747 C 0.92237 0.26873 0.8523 0.0
C1748 C 0.90501 0.26872 0.84202 0.0
C1749 C 0.85564 0.26942 0.81125 0.0
C1750 C 0.87243 0.2692 0.82222 0.0
H1751 H 0.961 0.29948 0.87133 0.0
H1752 H 0.9315 0.29916 0.85824 0.0
H1753 H 0.88988 0.24423 0.85101 0.0
H1754 H 0.82435 0.24133 0.77762 0.0
H1755 H 0.84969 0.23992 0.79876 0.0
C1756 C 0.56076 0.2335 0.61112 0.0
C1757 C 0.56434 0.24909 0.60216 0.0
C1758 C 0.55671 0.21521 0.601 0.0
C1759 C 0.5642 0.18733 0.55837 0.0
H1760 H 0.52726 0.14885 0.57078 0.0
C1761 C 0.56169 0.10774 0.54083 0.0
C1762 C 0.54522 0.09528 0.53469 0.0
C1763 C 0.56294 0.12693 0.54685 0.0
C1764 C 0.53751 0.15943 0.56699 0.0
H1765 H 0.56629 0.25763 0.57545 0.0
H1766 H 0.55948 0.22541 0.55766 0.0
H1767 H 0.53069 0.18167 0.58511 0.0
H1768 H 0.51716 0.09335 0.52999 0.0
H1769 H 0.51936 0.12678 0.54058 0.0
H1770 H 0.57128 0.16499 0.54056 0.0
C1771 C 0.55974 0.22751 0.57258 0.0
C1772 C 0.53955 0.17822 0.5753 0.0
C1773 C 0.56354 0.24592 0.58274 0.0
C1774 C 0.53006 0.10252 0.53455 0.0
C1775 C 0.5313 0.12168 0.54073 0.0
C1776 C 0.56228 0.16848 0.55019 0.0
C1777 C 0.55634 0.21196 0.58165 0.0
C1778 C 0.55307 0.19235 0.57129 0.0
C1779 C 0.54775 0.1341 0.54704 0.0
C1780 C 0.54905 0.15429 0.5546 0.0
H1781 H 0.5612 0.23541 0.62605 0.0
H1782 H 0.55435 0.20357 0.60842 0.0
H1783 H 0.57481 0.19789 0.5551 0.0
H1784 H 0.57366 0.10269 0.54108 0.0
H1785 H 0.5758 0.13607 0.55181 0.0
C1786 C 0.5521 0.7543 0.35617 0.0
C1787 C 0.55347 0.76054 0.3754 0.0
C1788 C 0.56713 0.75637 0.34697 0.0
C1789 C 0.61251 0.78474 0.35093 0.0
H1790 H 0.61896 0.74416 0.31395 0.0
C1791 C 0.67728 0.78836 0.31762 0.0
C1792 C 0.67615 0.78008 0.29886 0.0
C1793 C 0.66236 0.78617 0.327 0.0
C1794 C 0.61728 0.75576 0.32403 0.0
H1795 H 0.57178 0.77366 0.40007 0.0
H1796 H 0.59796 0.77734 0.384 0.0
H1797 H 0.59292 0.73971 0.3301 0.0
H1798 H 0.65817 0.76301 0.27533 0.0
H1799 H 0.63219 0.75991 0.29137 0.0
H1800 H 0.63668 0.80094 0.3447 0.0
C1801 C 0.58524 0.77094 0.37602 0.0
C1802 C 0.60235 0.75317 0.33334 0.0
C1803 C 0.57024 0.76872 0.38524 0.0
C1804 C 0.6596 0.76985 0.28967 0.0
C1805 C 0.64468 0.76778 0.299 0.0
C1806 C 0.62738 0.78741 0.34151 0.0
C1807 C 0.58386 0.76488 0.35677 0.0
C1808 C 0.59979 0.76761 0.34691 0.0
C1809 C 0.64586 0.77574 0.31785 0.0
C1810 C 0.62999 0.77295 0.32792 0.0
H1811 H 0.53938 0.74796 0.34818 0.0
H1812 H 0.5656 0.75168 0.33211 0.0
H1813 H 0.6108 0.79624 0.36114 0.0
H1814 H 0.68972 0.79652 0.32513 0.0
H1815 H 0.66387 0.79238 0.34154 0.0
C1816 C 0.06801 0.24696 0.40291 0.0
C1817 C 0.07948 0.26377 0.41226 0.0
C1818 C 0.06119 0.23285 0.41261 0.0
C1819 C 0.05323 0.22415 0.4595 0.0
H1820 H 0.0537 0.17283 0.43873 0.0
C1821 C 0.04769 0.16473 0.50216 0.0
C1822 C 0.03881 0.14646 0.49343 0.0
C1823 C 0.05001 0.17943 0.49219 0.0
C1824 C 0.05316 0.18703 0.44457 0.0
H1825 H 0.09275 0.27903 0.4391 0.0
H1826 H 0.08102 0.25426 0.45601 0.0
H1827 H 0.0632 0.19774 0.42133 0.0
H1828 H 0.02439 0.12944 0.46782 0.0
H1829 H 0.02834 0.15516 0.45039 0.0
H1830 H 0.04347 0.21342 0.48292 0.0
C1831 C 0.07712 0.25211 0.44122 0.0
C1832 C 0.05864 0.20131 0.43461 0.0
C1833 C 0.08395 0.26622 0.43151 0.0
C1834 C 0.03155 0.14334 0.4748 0.0
C1835 C 0.03383 0.15804 0.46483 0.0
C1836 C 0.04772 0.20985 0.46947 0.0
C1837 C 0.0657 0.23527 0.43186 0.0
C1838 C 0.05894 0.22004 0.44206 0.0
C1839 C 0.04345 0.17614 0.47331 0.0
C1840 C 0.04782 0.19116 0.4622 0.0
H1841 H 0.06423 0.2447 0.38809 0.0
H1842 H 0.05228 0.2201 0.40506 0.0
H1843 H 0.05306 0.23844 0.46546 0.0
H1844 H 0.05359 0.16751 0.51646 0.0
H1845 H 0.05765 0.19316 0.49905 0.0
C1846 C 0.54841 0.28637 0.2095 0.0
C1847 C 0.54986 0.28349 0.19041 0.0
C1848 C 0.56348 0.29175 0.22242 0.0
C1849 C 0.61237 0.30736 0.2273 0.0
H1850 H 0.61042 0.27262 0.26175 0.0
C1851 C 0.65943 0.26156 0.25385 0.0
C1852 C 0.6756 0.27486 0.25743 0.0
C1853 C 0.64371 0.26736 0.25225 0.0
C1854 C 0.61115 0.28259 0.25238 0.0
H1855 H 0.5681 0.28533 0.16989 0.0
H1856 H 0.59436 0.29428 0.19232 0.0
H1857 H 0.58329 0.27559 0.24521 0.0
H1858 H 0.68798 0.30466 0.26385 0.0
H1859 H 0.6604 0.31482 0.26094 0.0
H1860 H 0.64032 0.31313 0.23327 0.0
C1861 C 0.58164 0.29263 0.19739 0.0
C1862 C 0.59559 0.28445 0.24303 0.0
C1863 C 0.56659 0.28731 0.18449 0.0
C1864 C 0.67569 0.2941 0.2607 0.0
C1865 C 0.65993 0.29992 0.2591 0.0
C1866 C 0.62793 0.30543 0.23659 0.0
C1867 C 0.58025 0.29433 0.21648 0.0
C1868 C 0.59611 0.29615 0.2297 0.0
C1869 C 0.64382 0.28659 0.25423 0.0
C1870 C 0.6275 0.29231 0.24851 0.0
H1871 H 0.53564 0.28376 0.21447 0.0
H1872 H 0.56201 0.29319 0.23702 0.0
H1873 H 0.61314 0.31676 0.21737 0.0
H1874 H 0.65895 0.24665 0.25112 0.0
H1875 H 0.63155 0.25671 0.24821 0.0
C1876 C 0.58777 0.86516 0.91276 0.0
C1877 C 0.59155 0.86705 0.89474 0.0
C1878 C 0.58682 0.88082 0.92555 0.0
C1879 C 0.59812 0.93269 0.93587 0.0
H1880 H 0.55628 0.9257 0.96096 0.0
C1881 C 0.55233 0.97846 0.97665 0.0
C1882 C 0.56457 0.9907 0.99064 0.0
C1883 C 0.55732 0.96426 0.96512 0.0
C1884 C 0.568 0.92787 0.95402 0.0
H1885 H 0.59801 0.88698 0.87626 0.0
H1886 H 0.59611 0.9143 0.8986 0.0
H1887 H 0.56246 0.89902 0.94106 0.0
H1888 H 0.59174 0.99834 1.00316 0.0
H1889 H 0.60055 0.97326 0.98281 0.0
H1890 H 0.60336 0.96177 0.94866 0.0
C1891 C 0.59403 0.90071 0.90283 0.0
C1892 C 0.57165 0.91256 0.94281 0.0
C1893 C 0.59497 0.88503 0.89 0.0
C1894 C 0.58208 0.98899 0.99247 0.0
C1895 C 0.58711 0.97474 0.98083 0.0
C1896 C 0.5945 0.94806 0.94723 0.0
C1897 C 0.58962 0.89868 0.9206 0.0
C1898 C 0.58663 0.91484 0.93346 0.0
C1899 C 0.57464 0.96201 0.96734 0.0
C1900 C 0.57925 0.94579 0.95615 0.0
H1901 H 0.58524 0.85155 0.91694 0.0
H1902 H 0.58363 0.8789 0.93926 0.0
H1903 H 0.60982 0.93478 0.9289 0.0
H1904 H 0.53874 0.9795 0.97495 0.0
H1905 H 0.54753 0.95481 0.95462 0.0
C1906 C 0.94133 0.74173 0.67384 0.0
C1907 C 0.95266 0.73114 0.68014 0.0
C1908 C 0.92496 0.74066 0.68017 0.0
C1909 C 0.90369 0.73012 0.721 0.0
H1910 H 0.86477 0.74292 0.69386 0.0
C1911 C 0.84015 0.74745 0.74984 0.0
C1912 C 0.83984 0.76616 0.74868 0.0
C1913 C 0.85235 0.73899 0.74115 0.0
C1914 C 0.87546 0.73907 0.70149 0.0
H1915 H 0.95515 0.70987 0.6967 0.0
H1916 H 0.9263 0.70759 0.70735 0.0
H1917 H 0.88808 0.73363 0.67729 0.0
H1918 H 0.85224 0.79076 0.73789 0.0
H1919 H 0.87325 0.77582 0.72253 0.0
H1920 H 0.89099 0.73591 0.74524 0.0
C1921 C 0.93029 0.71717 0.69799 0.0
C1922 C 0.88885 0.7339 0.69208 0.0
C1923 C 0.94679 0.71843 0.69183 0.0
C1924 C 0.8522 0.77638 0.73914 0.0
C1925 C 0.86411 0.76782 0.73021 0.0
C1926 C 0.89012 0.735 0.73035 0.0
C1927 C 0.91945 0.72877 0.69275 0.0
C1928 C 0.90351 0.73017 0.70186 0.0
C1929 C 0.86408 0.74903 0.73093 0.0
C1930 C 0.87632 0.74019 0.72073 0.0
H1931 H 0.94548 0.75166 0.66483 0.0
H1932 H 0.9171 0.75 0.67601 0.0
H1933 H 0.91484 0.72755 0.72904 0.0
H1934 H 0.83075 0.73927 0.75712 0.0
H1935 H 0.85228 0.72449 0.74191 0.0
C1936 C 0.10947 0.0208 0.82845 0.0
C1937 C 0.12689 0.01883 0.82695 0.0
C1938 C 0.10214 0.02165 0.84542 0.0
C1939 C 0.10945 0.01626 0.89684 0.0
H1940 H 0.06988 0.03957 0.89983 0.0
C1941 C 0.07464 0.03037 0.96656 0.0
C1942 C 0.05604 0.02704 0.96417 0.0
C1943 C 0.08454 0.02981 0.95101 0.0
C1944 C 0.08081 0.03282 0.89944 0.0
H1945 H 0.15 0.01603 0.84349 0.0
H1946 H 0.13747 0.01789 0.87318 0.0
H1947 H 0.08413 0.03778 0.87197 0.0
H1948 H 0.03383 0.0207 0.94274 0.0
H1949 H 0.05058 0.02033 0.91652 0.0
H1950 H 0.10615 0.01199 0.92493 0.0
C1951 C 0.1292 0.01852 0.86088 0.0
C1952 C 0.08913 0.0316 0.88303 0.0
C1953 C 0.13655 0.01741 0.84362 0.0
C1954 C 0.04802 0.02351 0.9456 0.0
C1955 C 0.05779 0.02333 0.93027 0.0
C1956 C 0.1012 0.01772 0.91348 0.0
C1957 C 0.11178 0.02097 0.86235 0.0
C1958 C 0.10351 0.02296 0.88094 0.0
C1959 C 0.07632 0.02632 0.93238 0.0
C1960 C 0.08642 0.02578 0.91512 0.0
H1961 H 0.10123 0.02176 0.81624 0.0
H1962 H 0.08861 0.02276 0.84498 0.0
H1963 H 0.12032 0.00944 0.89641 0.0
H1964 H 0.08155 0.03295 0.98037 0.0
H1965 H 0.09872 0.03229 0.95363 0.0
C1966 C 0.82157 0.4019 0.56645 0.0
C1967 C 0.80898 0.39074 0.55206 0.0
C1968 C 0.83027 0.39359 0.57893 0.0
C1969 C 0.841 0.34873 0.5853 0.0
H1970 H 0.84108 0.36753 0.6375 0.0
C1971 C 0.83651 0.30308 0.64047 0.0
C1972 C 0.84257 0.31124 0.65906 0.0
C1973 C 0.83923 0.31378 0.62658 0.0
C1974 C 0.84171 0.36237 0.62303 0.0
H1975 H 0.79566 0.36214 0.53939 0.0
H1976 H 0.81068 0.34761 0.5614 0.0
H1977 H 0.83157 0.38473 0.61467 0.0
H1978 H 0.85813 0.3362 0.67747 0.0
H1979 H 0.86302 0.35494 0.6531 0.0
H1980 H 0.85048 0.32594 0.59368 0.0
C1981 C 0.81399 0.36278 0.56283 0.0
C1982 C 0.83613 0.3722 0.60993 0.0
C1983 C 0.80524 0.3711 0.55039 0.0
C1984 C 0.85302 0.32969 0.66327 0.0
C1985 C 0.8558 0.3404 0.64934 0.0
C1986 C 0.84667 0.33893 0.59842 0.0
C1987 C 0.8266 0.37395 0.5772 0.0
C1988 C 0.83512 0.36511 0.59094 0.0
C1989 C 0.8481 0.33284 0.63102 0.0
C1990 C 0.84643 0.34527 0.6174 0.0
H1991 H 0.82481 0.41709 0.56802 0.0
H1992 H 0.83996 0.40252 0.58985 0.0
H1993 H 0.84067 0.34318 0.57072 0.0
H1994 H 0.82831 0.28895 0.63679 0.0
H1995 H 0.83299 0.30753 0.61266 0.0
C1996 C 0.46772 0.06719 0.34773 0.0
C1997 C 0.47405 0.05929 0.33179 0.0
C1998 C 0.47704 0.06919 0.36518 0.0
C1999 C 0.5197 0.06763 0.38986 0.0
H2000 H 0.49041 0.04858 0.42575 0.0
C2001 C 0.52641 0.03497 0.46053 0.0
C2002 C 0.54052 0.0485 0.4711 0.0
C2003 C 0.51886 0.03819 0.44388 0.0
C2004 C 0.49875 0.0539 0.41586 0.0
H2005 H 0.49564 0.04833 0.32155 0.0
H2006 H 0.51176 0.05154 0.35207 0.0
H2007 H 0.47671 0.05188 0.39596 0.0
H2008 H 0.55814 0.07576 0.47261 0.0
H2009 H 0.5449 0.08143 0.44339 0.0
H2010 H 0.54179 0.06897 0.40964 0.0
C2011 C 0.49967 0.05635 0.35105 0.0
C2012 C 0.49091 0.05603 0.3989 0.0
C2013 C 0.49038 0.05441 0.33357 0.0
C2014 C 0.54722 0.06514 0.46465 0.0
C2015 C 0.5397 0.06835 0.44795 0.0
C2016 C 0.52756 0.06551 0.40689 0.0
C2017 C 0.49284 0.06327 0.36706 0.0
C2018 C 0.5013 0.06271 0.38563 0.0
C2019 C 0.52536 0.05496 0.43748 0.0
C2020 C 0.51715 0.05835 0.41992 0.0
H2021 H 0.45529 0.07132 0.34681 0.0
H2022 H 0.47164 0.07491 0.37726 0.0
H2023 H 0.52802 0.07293 0.37994 0.0
H2024 H 0.52125 0.02188 0.46508 0.0
H2025 H 0.50804 0.02746 0.43591 0.0
C2026 C 0.7867 0.6956 0.06591 0.0
C2027 C 0.77969 0.70182 0.05049 0.0
C2028 C 0.78872 0.70639 0.08364 0.0
C2029 C 0.76835 0.73496 0.113 0.0
H2030 H 0.81327 0.75329 0.14385 0.0
C2031 C 0.77286 0.76987 0.19014 0.0
C2032 C 0.78611 0.76695 0.20265 0.0
C2033 C 0.77257 0.76425 0.171 0.0
C2034 C 0.80055 0.74804 0.13558 0.0
H2035 H 0.76939 0.7242 0.04141 0.0
H2036 H 0.77229 0.74287 0.07283 0.0
H2037 H 0.81229 0.73943 0.11135 0.0
H2038 H 0.80922 0.75546 0.20489 0.0
H2039 H 0.80823 0.74483 0.17187 0.0
H2040 H 0.75638 0.74221 0.13728 0.0
C2041 C 0.77655 0.7298 0.07098 0.0
C2042 C 0.80007 0.74034 0.11689 0.0
C2043 C 0.77499 0.71922 0.05308 0.0
C2044 C 0.79892 0.7581 0.19562 0.0
C2045 C 0.79844 0.75215 0.17657 0.0
C2046 C 0.76877 0.74228 0.13182 0.0
C2047 C 0.78333 0.72336 0.08638 0.0
C2048 C 0.78397 0.73357 0.1055 0.0
C2049 C 0.78534 0.75524 0.1639 0.0
C2050 C 0.78488 0.74868 0.14349 0.0
H2051 H 0.79038 0.68221 0.06426 0.0
H2052 H 0.7939 0.70112 0.09533 0.0
H2053 H 0.75576 0.72958 0.10449 0.0
H2054 H 0.76289 0.77681 0.19511 0.0
H2055 H 0.76243 0.76721 0.1618 0.0
C2056 C 0.14271 0.00966 0.69714 0.0
C2057 C 0.13374 0.00897 0.71299 0.0
C2058 C 0.13428 0.01115 0.67975 0.0
C2059 C 0.09452 0.02489 0.65724 0.0
H2060 H 0.10733 1.00073 0.61151 0.0
C2061 C 0.0693 0.04006 0.58423 0.0
C2062 C 0.06558 0.02558 0.56843 0.0
C2063 C 0.07715 0.03769 0.60155 0.0
C2064 C 0.1034 0.00757 0.62404 0.0
H2065 H 0.10834 0.00949 0.72222 0.0
H2066 H 0.09379 0.01223 0.69229 0.0
H2067 H 0.12129 0.9972 0.6413 0.0
H2068 H 0.06765 0.99697 0.55926 0.0
H2069 H 0.08137 0.99291 0.58909 0.0
H2070 H 0.07665 0.03529 0.63999 0.0
C2071 C 0.10749 0.01163 0.69323 0.0
C2072 C 0.11165 1.00568 0.64138 0.0
C2073 C 0.11588 0.0099 0.71058 0.0
C2074 C 0.07018 0.00859 0.57084 0.0
C2075 C 0.07824 0.00628 0.58813 0.0
C2076 C 0.08644 0.02699 0.63991 0.0
C2077 C 0.11645 0.01229 0.67731 0.0
C2078 C 0.10743 0.01426 0.65848 0.0
C2079 C 0.08191 0.02077 0.60399 0.0
C2080 C 0.09063 0.01837 0.6228 0.0
H2081 H 0.15643 0.00909 0.69814 0.0
H2082 H 0.14197 0.0118 0.66824 0.0
H2083 H 0.09077 0.03197 0.66976 0.0
H2084 H 0.06612 0.05342 0.58329 0.0
H2085 H 0.07977 0.04941 0.61301 0.0
C2086 C 0.77521 0.36932 0.44726 0.0
C2087 C 0.77671 0.38841 0.44631 0.0
C2088 C 0.77678 0.3566 0.43169 0.0
C2089 C 0.79837 0.35567 0.38997 0.0
H2090 H 0.76594 0.30738 0.37189 0.0
C2091 C 0.79512 0.3148 0.31677 0.0
C2092 C 0.79005 0.29511 0.31341 0.0
C2093 C 0.79575 0.32497 0.3345 0.0
C2094 C 0.77535 0.32063 0.377 0.0
H2095 H 0.78009 0.40891 0.42805 0.0
H2096 H 0.78288 0.38667 0.40095 0.0
H2097 H 0.761 0.32748 0.39964 0.0
H2098 H 0.78282 0.27047 0.32602 0.0
H2099 H 0.78422 0.2883 0.35728 0.0
H2100 H 0.81276 0.34896 0.36748 0.0
C2101 C 0.78066 0.38165 0.41379 0.0
C2102 C 0.77242 0.33216 0.39279 0.0
C2103 C 0.77889 0.39432 0.42926 0.0
C2104 C 0.78667 0.28567 0.32828 0.0
C2105 C 0.78735 0.29587 0.3461 0.0
C2106 C 0.80141 0.34409 0.37434 0.0
C2107 C 0.78006 0.36281 0.41501 0.0
C2108 C 0.78367 0.34996 0.39911 0.0
C2109 C 0.79141 0.31565 0.34928 0.0
C2110 C 0.78969 0.32664 0.3674 0.0
H2111 H 0.77346 0.36432 0.46018 0.0
H2112 H 0.77622 0.34211 0.43293 0.0
H2113 H 0.80745 0.36919 0.39486 0.0
H2114 H 0.79774 0.32244 0.30553 0.0
H2115 H 0.79871 0.34017 0.33636 0.0
C2116 C 0.44068 0.06502 0.22851 0.0
C2117 C 0.42544 0.05378 0.23314 0.0
C2118 C 0.44546 0.06161 0.21076 0.0
C2119 C 0.44236 0.02185 0.17432 0.0
H2120 H 0.47003 0.06011 0.15147 0.0
C2121 C 0.48436 0.00869 0.11361 0.0
C2122 C 0.5017 0.01972 0.11752 0.0
C2123 C 0.4719 0.01164 0.12553 0.0
C2124 C 0.46223 0.04929 0.15765 0.0
H2125 H 0.40244 0.03119 0.22252 0.0
H2126 H 0.41091 0.02516 0.19131 0.0
H2127 H 0.45174 0.06915 0.17489 0.0
H2128 H 0.51983 0.04182 0.13719 0.0
H2129 H 0.49808 0.04689 0.15802 0.0
H2130 H 0.4534 1.00209 0.15737 0.0
C2131 C 0.41919 0.0365 0.20151 0.0
C2132 C 0.45176 0.05443 0.17098 0.0
C2133 C 0.41432 0.04002 0.21931 0.0
C2134 C 0.5066 0.03304 0.13394 0.0
C2135 C 0.49413 0.03611 0.14571 0.0
C2136 C 0.45275 0.01668 0.16082 0.0
C2137 C 0.43512 0.04685 0.19729 0.0
C2138 C 0.44236 0.04089 0.18004 0.0
C2139 C 0.47661 0.0258 0.14132 0.0
C2140 C 0.46333 0.0305 0.15304 0.0
H2141 H 0.44942 0.07579 0.23889 0.0
H2142 H 0.45792 0.06972 0.20801 0.0
H2143 H 0.43536 0.01111 0.18117 0.0
H2144 H 0.48033 0.99826 0.10103 0.0
H2145 H 0.45845 1.00345 0.122 0.0
C2146 C 0.78446 0.69362 0.92055 0.0
C2147 C 0.78371 0.70453 0.9378 0.0
C2148 C 0.78695 0.70194 0.90487 0.0
C2149 C 0.80309 0.74772 0.89032 0.0
H2150 H 0.77698 0.72189 0.84289 0.0
C2151 C 0.81777 0.77405 0.82206 0.0
C2152 C 0.80328 0.77378 0.80936 0.0
C2153 C 0.81549 0.76515 0.8374 0.0
C2154 C 0.78431 0.72936 0.85604 0.0
H2155 H 0.78508 0.73283 0.95204 0.0
H2156 H 0.78932 0.74735 0.92467 0.0
H2157 H 0.77259 0.70775 0.8704 0.0
H2158 H 0.77504 0.76373 0.80261 0.0
H2159 H 0.771 0.74816 0.82936 0.0
H2160 H 0.81458 0.76948 0.87602 0.0
C2161 C 0.78816 0.73235 0.9233 0.0
C2162 C 0.78193 0.72114 0.87181 0.0
C2163 C 0.78564 0.72401 0.939 0.0
C2164 C 0.78647 0.76412 0.81213 0.0
C2165 C 0.78418 0.75514 0.82744 0.0
C2166 C 0.8055 0.7559 0.87454 0.0
C2167 C 0.78878 0.72141 0.90599 0.0
C2168 C 0.79128 0.73021 0.88918 0.0
C2169 C 0.79864 0.75571 0.84041 0.0
C2170 C 0.79615 0.74684 0.85718 0.0
H2171 H 0.78308 0.67858 0.9191 0.0
H2172 H 0.78761 0.69309 0.89188 0.0
H2173 H 0.81065 0.75504 0.90339 0.0
H2174 H 0.8309 0.78131 0.82024 0.0
H2175 H 0.82696 0.76563 0.8469 0.0
C2176 C 0.81577 0.08911 0.01351 0.0
C2177 C 0.80171 0.08306 0.02341 0.0
C2178 C 0.82832 0.07862 0.01057 0.0
C2179 C 0.84841 0.0447 0.02995 0.0
H2180 H 0.86888 0.0417 0.98373 0.0
C2181 C 0.90762 0.01103 0.01669 0.0
C2182 C 0.92123 0.02271 0.00981 0.0
C2183 C 0.89125 0.01552 0.01746 0.0
C2184 C 0.86324 0.0424 0.99668 0.0
H2185 H 0.78965 0.06108 0.03778 0.0
H2186 H 0.81172 0.04263 0.03254 0.0
H2187 H 0.84278 0.05434 0.98631 0.0
H2188 H 0.92841 0.04794 0.99804 0.0
H2189 H 0.89992 0.05581 0.99944 0.0
H2190 H 0.8692 0.03309 0.04038 0.0
C2191 C 0.813 0.0556 0.02719 0.0
C2192 C 0.84835 0.04964 0.99818 0.0
C2193 C 0.80037 0.06613 0.03013 0.0
C2194 C 0.9182 0.03884 1.00361 0.0
C2195 C 0.90185 0.0432 0.0042 0.0
C2196 C 0.86329 0.03734 0.02841 0.0
C2197 C 0.82712 0.0618 0.01742 0.0
C2198 C 0.84113 0.05142 0.01501 0.0
C2199 C 0.88823 0.03159 0.01109 0.0
C2200 C 0.87112 0.03669 0.01194 0.0
H2201 H 0.81723 0.1021 0.00816 0.0
H2202 H 0.83924 0.08397 1.00331 0.0
H2203 H 0.84319 0.04602 0.04313 0.0
H2204 H 0.90969 0.99854 0.02159 0.0
H2205 H 0.88092 0.00637 0.02282 0.0
C2206 C 0.36777 0.43383 0.04227 0.0
C2207 C 0.35646 0.43235 0.02601 0.0
C2208 C 0.38573 0.44241 0.04343 0.0
C2209 C 0.41634 0.47426 0.01957 0.0
H2210 H 0.45279 0.45987 0.04909 0.0
C2211 C 0.48949 0.49972 0.01303 0.0
C2212 C 0.49931 0.51091 0.02931 0.0
C2213 C 0.47281 0.48857 0.01357 0.0
C2214 C 0.44268 0.46399 0.04084 0.0
H2215 H 0.35515 0.43755 0.99785 0.0
H2216 H 0.38631 0.45141 0.9994 0.0
H2217 H 0.42198 0.44315 0.04785 0.0
H2218 H 0.49997 0.51831 0.05906 0.0
H2219 H 0.47075 0.49831 0.06004 0.0
H2220 H 0.43712 0.49459 0.01208 0.0
C2221 C 0.38141 0.44694 0.01167 0.0
C2222 C 0.42502 0.45453 0.04019 0.0
C2223 C 0.36351 0.43882 0.01069 0.0
C2224 C 0.49259 0.50989 0.04631 0.0
C2225 C 0.47597 0.49843 0.04689 0.0
C2226 C 0.43392 0.48337 0.01993 0.0
C2227 C 0.39275 0.44933 0.02819 0.0
C2228 C 0.4116 0.45947 0.02942 0.0
C2229 C 0.46577 0.4881 0.03044 0.0
C2230 C 0.44723 0.47828 0.03048 0.0
H2231 H 0.36264 0.42896 0.0543 0.0
H2232 H 0.39395 0.44408 0.05643 0.0
H2233 H 0.40646 0.47898 0.01161 0.0
H2234 H 0.49438 0.50019 0.99974 0.0
H2235 H 0.46518 0.48065 1.00073 0.0
C2236 C 0.36936 0.60597 0.75239 0.0
C2237 C 0.38777 0.60854 0.75675 0.0
C2238 C 0.36099 0.62138 0.75348 0.0
C2239 C 0.36898 0.67533 0.77106 0.0
H2240 H 0.3236 0.66898 0.74273 0.0
C2241 C 0.33506 0.74031 0.76853 0.0
C2242 C 0.31648 0.73727 0.76526 0.0
C2243 C 0.34375 0.72512 0.76762 0.0
C2244 C 0.33617 0.67127 0.75105 0.0
H2245 H 0.41146 0.63051 0.76573 0.0
H2246 H 0.39728 0.65695 0.76735 0.0
H2247 H 0.33795 0.6429 0.74097 0.0
H2248 H 0.29295 0.71476 0.75838 0.0
H2249 H 0.3077 0.68885 0.75693 0.0
H2250 H 0.36719 0.70381 0.781 0.0
C2251 C 0.38897 0.64293 0.76332 0.0
C2252 C 0.34461 0.65592 0.75002 0.0
C2253 C 0.39731 0.62749 0.76227 0.0
C2254 C 0.30717 0.71816 0.76102 0.0
C2255 C 0.31584 0.70301 0.76003 0.0
C2256 C 0.36055 0.69071 0.77203 0.0
C2257 C 0.37049 0.64045 0.75895 0.0
C2258 C 0.36131 0.65735 0.76003 0.0
C2259 C 0.33443 0.70592 0.76327 0.0
C2260 C 0.34381 0.68921 0.76211 0.0
H2261 H 0.36123 0.59185 0.74812 0.0
H2262 H 0.34684 0.61812 0.75019 0.0
H2263 H 0.38154 0.67764 0.77938 0.0
H2264 H 0.34303 0.75457 0.77178 0.0
H2265 H 0.35798 0.7286 0.77008 0.0
C2266 C 0.21669 0.64672 0.50605 0.0
C2267 C 0.22595 0.63243 0.50587 0.0
C2268 C 0.19842 0.64248 0.50596 0.0
C2269 C 0.1647 0.60993 0.52201 0.0
H2270 H 0.13075 0.61854 0.48483 0.0
C2271 C 0.09195 0.58129 0.52373 0.0
C2272 C 0.08391 0.56929 0.50709 0.0
C2273 C 0.1078 0.59431 0.52414 0.0
C2274 C 0.14012 0.61629 0.49542 0.0
H2275 H 0.22337 0.60247 0.50461 0.0
H2276 H 0.1916 0.5952 0.50471 0.0
H2277 H 0.16236 0.63055 0.48389 0.0
H2278 H 0.08528 0.56267 0.47753 0.0
H2279 H 0.11315 0.58513 0.47836 0.0
H2280 H 0.14283 0.59505 0.53316 0.0
C2281 C 0.19848 0.60963 0.50498 0.0
C2282 C 0.1581 0.62319 0.4949 0.0
C2283 C 0.21662 0.61379 0.50485 0.0
C2284 C 0.09129 0.57154 0.49062 0.0
C2285 C 0.10716 0.58456 0.49105 0.0
C2286 C 0.14683 0.60324 0.52264 0.0
C2287 C 0.18932 0.62398 0.50592 0.0
C2288 C 0.17046 0.61946 0.50785 0.0
C2289 C 0.11587 0.59555 0.50793 0.0
C2290 C 0.13438 0.60585 0.50904 0.0
H2291 H 0.22359 0.6612 0.50675 0.0
H2292 H 0.19152 0.65371 0.50664 0.0
H2293 H 0.17408 0.60707 0.5322 0.0
H2294 H 0.08641 0.58016 0.5366 0.0
H2295 H 0.11415 0.60282 0.53729 0.0
C2296 C 0.70668 1.00028 0.76756 0.0
C2297 C 0.68874 0.99137 0.76334 0.0
C2298 C 0.71871 0.99072 0.77409 0.0
C2299 C 0.7227 0.94776 0.79268 0.0
H2300 H 0.76508 0.95328 0.76845 0.0
C2301 C 0.76414 0.89237 0.78417 0.0
C2302 C 0.7825 0.89849 0.7851 0.0
C2303 C 0.75358 0.90531 0.78558 0.0
C2304 C 0.7535 0.95183 0.77564 0.0
H2305 H 0.66917 0.96575 0.76337 0.0
H2306 H 0.69025 0.94881 0.77432 0.0
H2307 H 0.74477 0.97298 0.76337 0.0
H2308 H 0.80428 0.92295 0.78909 0.0
H2309 H 0.78577 0.94567 0.79161 0.0
H2310 H 0.73125 0.926 0.80434 0.0
C2311 C 0.69501 0.96331 0.77289 0.0
C2312 C 0.74183 0.96314 0.77274 0.0
C2313 C 0.68294 0.97296 0.76649 0.0
C2314 C 0.79017 0.91786 0.78832 0.0
C2315 C 0.77957 0.93083 0.78964 0.0
C2316 C 0.73437 0.93636 0.79552 0.0
C2317 C 0.71309 0.97196 0.77638 0.0
C2318 C 0.72615 0.96105 0.78098 0.0
C2319 C 0.76115 0.92465 0.78789 0.0
C2320 C 0.74976 0.93809 0.78678 0.0
H2321 H 0.71151 0.01457 0.7655 0.0
H2322 H 0.73248 0.99792 0.77702 0.0
H2323 H 0.71087 0.946 0.79945 0.0
H2324 H 0.75792 0.87751 0.78197 0.0
H2325 H 0.73943 0.9001 0.78404 0.0
C2326 C 0.73729 0.90629 0.53392 0.0
C2327 C 0.75459 0.91725 0.53874 0.0
C2328 C 0.72297 0.91476 0.53412 0.0
C2329 C 0.70998 0.95829 0.55343 0.0
H2330 H 0.67299 0.94308 0.51191 0.0
C2331 C 0.66001 1.00293 0.54095 0.0
C2332 C 0.64244 0.99378 0.53425 0.0
C2333 C 0.67297 0.99274 0.54216 0.0
C2334 C 0.68306 0.94732 0.52376 0.0
H2335 H 0.77039 0.94568 0.54777 0.0
H2336 H 0.74547 0.96042 0.54812 0.0
H2337 H 0.69689 0.9268 0.513 0.0
H2338 H 0.62476 0.9666 0.52363 0.0
H2339 H 0.64736 0.9487 0.5261 0.0
H2340 H 0.69626 0.97882 0.56419 0.0
C2341 C 0.74294 0.94527 0.54431 0.0
C2342 C 0.69677 0.93799 0.52436 0.0
C2343 C 0.75724 0.93682 0.54401 0.0
C2344 C 0.63813 0.97409 0.52897 0.0
C2345 C 0.65113 0.96385 0.5302 0.0
C2346 C 0.69626 0.96756 0.55286 0.0
C2347 C 0.72564 0.93436 0.53927 0.0
C2348 C 0.71052 0.94353 0.5391 0.0
C2349 C 0.66873 0.97307 0.53679 0.0
C2350 C 0.68273 0.96237 0.5379 0.0
H2351 H 0.73481 0.89117 0.52981 0.0
H2352 H 0.7098 0.90595 0.53034 0.0
H2353 H 0.72019 0.96269 0.56514 0.0
H2354 H 0.66379 0.01804 0.54542 0.0
H2355 H 0.6864 1.00035 0.54708 0.0
C2356 C 0.37024 0.48626 0.75368 0.0
C2357 C 0.38778 0.48862 0.74957 0.0
C2358 C 0.35984 0.46821 0.75487 0.0
C2359 C 0.35916 0.41541 0.7436 0.0
H2360 H 0.32208 0.41029 0.77519 0.0
C2361 C 0.32241 0.34094 0.75777 0.0
C2362 C 0.30426 0.33793 0.75942 0.0
C2363 C 0.33264 0.35911 0.75683 0.0
C2364 C 0.33228 0.41129 0.76612 0.0
H2365 H 0.40772 0.47295 0.74375 0.0
H2366 H 0.3903 0.44258 0.74622 0.0
H2367 H 0.33871 0.44152 0.77277 0.0
H2368 H 0.28299 0.35225 0.76148 0.0
H2369 H 0.30047 0.3833 0.76002 0.0
H2370 H 0.35281 0.38515 0.73714 0.0
C2371 C 0.38409 0.45432 0.74805 0.0
C2372 C 0.34192 0.42947 0.76467 0.0
C2373 C 0.39433 0.47215 0.74677 0.0
C2374 C 0.29688 0.35379 0.76031 0.0
C2375 C 0.30705 0.37185 0.75957 0.0
C2376 C 0.34962 0.39725 0.74518 0.0
C2377 C 0.36654 0.45173 0.75206 0.0
C2378 C 0.35567 0.43206 0.75339 0.0
C2379 C 0.32517 0.37503 0.75771 0.0
C2380 C 0.3359 0.39469 0.75644 0.0
H2381 H 0.36452 0.49835 0.75601 0.0
H2382 H 0.34643 0.46723 0.75782 0.0
H2383 H 0.36918 0.41625 0.73434 0.0
H2384 H 0.32869 0.32923 0.75692 0.0
H2385 H 0.34651 0.36067 0.75554 0.0
C2386 C 0.16832 0.59175 0.21667 0.0
C2387 C 0.17159 0.57959 0.22868 0.0
C2388 C 0.17819 0.61032 0.21972 0.0
C2389 C 0.20314 0.64798 0.25624 0.0
H2390 H 0.22596 0.66833 0.21678 0.0
C2391 C 0.25247 0.72065 0.26846 0.0
C2392 C 0.2529 0.73083 0.25392 0.0
C2393 C 0.24191 0.70239 0.26592 0.0
C2394 C 0.21943 0.66303 0.22789 0.0
H2395 H 0.18781 0.57734 0.25327 0.0
H2396 H 0.20479 0.60979 0.25865 0.0
H2397 H 0.20859 0.63606 0.21081 0.0
H2398 H 0.24187 0.73064 0.22587 0.0
H2399 H 0.22294 0.69935 0.22173 0.0
H2400 H 0.21358 0.67501 0.27326 0.0
C2401 C 0.19464 0.60491 0.24689 0.0
C2402 C 0.20956 0.6445 0.22445 0.0
C2403 C 0.18501 0.58631 0.24368 0.0
C2404 C 0.24201 0.72292 0.2372 0.0
C2405 C 0.23126 0.70492 0.23478 0.0
C2406 C 0.2128 0.66663 0.25963 0.0
C2407 C 0.19126 0.61709 0.235 0.0
C2408 C 0.20139 0.63682 0.23859 0.0
C2409 C 0.23141 0.6942 0.2489 0.0
C2410 C 0.22107 0.67439 0.24549 0.0
H2411 H 0.15807 0.58698 0.20501 0.0
H2412 H 0.17535 0.61952 0.21039 0.0
H2413 H 0.19683 0.64233 0.26733 0.0
H2414 H 0.2608 0.72649 0.28148 0.0
H2415 H 0.24244 0.69451 0.27706 0.0
C2416 C 0.4935 0.69402 0.42602 0.0
C2417 C 0.5028 0.71238 0.43415 0.0
C2418 C 0.49482 0.67872 0.43469 0.0
C2419 C 0.52511 0.66375 0.46685 0.0
H2420 H 0.48483 0.62424 0.47058 0.0
C2421 C 0.53355 0.60363 0.50547 0.0
C2422 C 0.52314 0.58545 0.49859 0.0
C2423 C 0.53004 0.61921 0.49859 0.0
C2424 C 0.49629 0.63498 0.46946 0.0
H2425 H 0.52053 0.72902 0.45799 0.0
H2426 H 0.52298 0.70236 0.47296 0.0
H2427 H 0.48054 0.65096 0.45659 0.0
H2428 H 0.50061 0.56951 0.47919 0.0
H2429 H 0.4948 0.5965 0.46675 0.0
H2430 H 0.541 0.6477 0.47903 0.0
C2431 C 0.51467 0.69979 0.45987 0.0
C2432 C 0.49378 0.65037 0.46148 0.0
C2433 C 0.51316 0.7151 0.45134 0.0
C2434 C 0.50884 0.58332 0.48491 0.0
C2435 C 0.50548 0.59889 0.47781 0.0
C2436 C 0.52765 0.64828 0.47458 0.0
C2437 C 0.50567 0.68138 0.45157 0.0
C2438 C 0.50817 0.66499 0.46015 0.0
C2439 C 0.51617 0.61708 0.48436 0.0
C2440 C 0.51329 0.63365 0.47611 0.0
H2441 H 0.48542 0.6914 0.41278 0.0
H2442 H 0.4878 0.66472 0.42786 0.0
H2443 H 0.53652 0.67459 0.46575 0.0
H2444 H 0.54456 0.60587 0.51614 0.0
H2445 H 0.53832 0.63294 0.50444 0.0
C2446 C 0.63825 0.3292 0.6642 0.0
C2447 C 0.63158 0.319 0.64633 0.0
C2448 C 0.65441 0.3278 0.67281 0.0
C2449 C 0.6832 0.29581 0.67532 0.0
H2450 H 0.7191 0.3403 0.69787 0.0
C2451 C 0.74786 0.29034 0.71662 0.0
C2452 C 0.75425 0.30404 0.73263 0.0
C2453 C 0.73427 0.29236 0.70395 0.0
C2454 C 0.70916 0.32769 0.69189 0.0
H2455 H 0.63664 0.2993 0.62346 0.0
H2456 H 0.66469 0.29649 0.63881 0.0
H2457 H 0.69249 0.34355 0.68038 0.0
H2458 H 0.75167 0.33071 0.74772 0.0
H2459 H 0.72782 0.33388 0.72632 0.0
H2460 H 0.6993 0.27993 0.68757 0.0
C2461 C 0.65746 0.30573 0.646 0.0
C2462 C 0.69395 0.3296 0.68176 0.0
C2463 C 0.64148 0.30745 0.63722 0.0
C2464 C 0.74708 0.31991 0.7355 0.0
C2465 C 0.73343 0.32181 0.72304 0.0
C2466 C 0.69828 0.29389 0.68577 0.0
C2467 C 0.66407 0.31587 0.6639 0.0
C2468 C 0.68073 0.31371 0.67355 0.0
C2469 C 0.72669 0.30803 0.70711 0.0
C2470 C 0.71138 0.30984 0.69448 0.0
H2471 H 0.63094 0.33817 0.67158 0.0
H2472 H 0.65914 0.33568 0.68666 0.0
H2473 H 0.67314 0.28332 0.66921 0.0
H2474 H 0.75318 0.27798 0.71404 0.0
H2475 H 0.72967 0.28157 0.69173 0.0
C2476 C 0.01013 0.32631 0.94557 0.0
C2477 C 0.02342 0.32343 0.93456 0.0
C2478 C 0.01139 0.34393 0.95659 0.0
C2479 C 0.04162 0.3883 0.97927 0.0
H2480 H 0.00407 0.41217 0.96638 0.0
C2481 C 0.04976 0.4686 0.99959 0.0
C2482 C 0.03483 0.4758 1.00231 0.0
C2483 C 0.04806 0.44937 0.99333 0.0
C2484 C 0.01453 0.40571 0.97057 0.0
H2485 H 0.04885 0.33626 0.92725 0.0
H2486 H 0.05136 0.3667 0.94705 0.0
H2487 H 1.00168 0.3793 0.95334 0.0
H2488 H 0.00646 0.46838 1.00132 0.0
H2489 H 0.00348 0.43483 0.9913 0.0
H2490 H 0.05442 0.41444 0.99675 0.0
C2491 C 0.03988 0.35549 0.94697 0.0
C2492 C 0.01314 0.38682 0.96299 0.0
C2493 C 0.03843 0.33809 0.93563 0.0
C2494 C 0.0182 0.46329 0.99911 0.0
C2495 C 0.01651 0.444 0.99322 0.0
C2496 C 0.04288 0.40709 0.98718 0.0
C2497 C 0.02617 0.35876 0.95715 0.0
C2498 C 0.0268 0.37803 0.96701 0.0
C2499 C 0.03139 0.43673 0.98999 0.0
C2500 C 0.0295 0.41623 0.98267 0.0
H2501 H 0.99834 0.31531 0.94486 0.0
H2502 H 1.00064 0.34611 0.96435 0.0
H2503 H 0.05231 0.38181 0.98265 0.0
H2504 H 0.06276 0.47789 1.00184 0.0
H2505 H 0.05984 0.44455 0.9907 0.0
C2506 C 0.03026 0.79715 0.17993 0.0
C2507 C 0.0331 0.80387 0.16334 0.0
C2508 C 0.01409 0.79587 0.18683 0.0
C2509 C 0.96701 0.79287 0.17323 0.0
H2510 H 0.96667 0.80531 0.22634 0.0
C2511 C 0.9032 0.794 0.20818 0.0
C2512 C 0.90211 0.78705 0.22487 0.0
C2513 C 0.91873 0.79598 0.19982 0.0
C2514 C 0.96651 0.80157 0.2115 0.0
H2515 H 0.02101 0.8146 0.14104 0.0
H2516 H 0.99267 0.81251 0.15326 0.0
H2517 H 0.99455 0.80986 0.21354 0.0
H2518 H 0.9163 0.77585 0.24531 0.0
H2519 H 0.94331 0.7793 0.23077 0.0
H2520 H 0.93886 0.78458 0.17128 0.0
C2521 C 0.00302 0.80807 0.1608 0.0
C2522 C 0.98252 0.80421 0.20414 0.0
C2523 C 0.01929 0.80938 0.15386 0.0
C2524 C 0.91676 0.78158 0.23266 0.0
C2525 C 0.93227 0.78358 0.22433 0.0
C2526 C 0.95094 0.79026 0.18062 0.0
C2527 C 1.00024 0.8013 0.17739 0.0
C2528 C 0.98302 0.79966 0.18494 0.0
C2529 C 0.93356 0.7911 0.20797 0.0
C2530 C 0.95052 0.79435 0.19987 0.0
H2531 H 0.0405 0.79268 0.18761 0.0
H2532 H 0.01236 0.79028 0.19946 0.0
H2533 H 0.96691 0.78905 0.1584 0.0
H2534 H 0.89226 0.79857 0.20191 0.0
H2535 H 0.91931 0.80195 0.18731 0.0
C2536 C 0.49739 0.29343 0.09773 0.0
C2537 C 0.49467 0.29636 0.11649 0.0
C2538 C 0.49846 0.30804 0.08766 0.0
C2539 C 0.51216 0.35891 0.095 0.0
H2540 H 0.49035 0.35377 0.04464 0.0
C2541 C 0.52102 0.42174 0.0568 0.0
C2542 C 0.5228 0.41833 0.03781 0.0
C2543 C 0.51624 0.40684 0.06624 0.0
C2544 C 0.49672 0.35537 0.05862 0.0
H2545 H 0.49012 0.3166 0.13916 0.0
H2546 H 0.49216 0.34215 0.1216 0.0
H2547 H 0.48361 0.32746 0.06116 0.0
H2548 H 0.52078 0.39642 0.01383 0.0
H2549 H 0.51327 0.37049 0.03046 0.0
H2550 H 0.52578 0.38645 0.09241 0.0
C2551 C 0.49352 0.32857 0.11474 0.0
C2552 C 0.49276 0.34034 0.06809 0.0
C2553 C 0.49225 0.31391 0.12474 0.0
C2554 C 0.51977 0.39961 0.02851 0.0
C2555 C 0.51517 0.3847 0.038 0.0
C2556 C 0.51628 0.37384 0.08549 0.0
C2557 C 0.49702 0.32589 0.09624 0.0
C2558 C 0.50046 0.34198 0.08636 0.0
C2559 C 0.51332 0.38812 0.05698 0.0
C2560 C 0.50864 0.37227 0.06716 0.0
H2561 H 0.49927 0.28003 0.09098 0.0
H2562 H 0.50124 0.30563 0.07344 0.0
H2563 H 0.51852 0.36042 0.10898 0.0
H2564 H 0.52346 0.43596 0.06449 0.0
H2565 H 0.51472 0.41004 0.08079 0.0
C2566 C 0.03924 0.3296 0.34011 0.0
C2567 C 0.04576 0.31623 0.34838 0.0
C2568 C 0.02122 0.32719 0.33553 0.0
C2569 C 0.98098 0.29294 0.32081 0.0
H2570 H 0.9589 0.33338 0.33834 0.0
C2571 C 0.90779 0.29082 0.29861 0.0
C2572 C 0.90426 0.30782 0.29501 0.0
C2573 C 0.92446 0.29035 0.30655 0.0
C2574 C 0.9649 0.32202 0.33321 0.0
H2575 H 0.03868 0.28977 0.35815 0.0
H2576 H 0.00694 0.28532 0.34953 0.0
H2577 H 0.9894 0.33534 0.34991 0.0
H2578 H 0.91554 0.33762 0.29677 0.0
H2579 H 0.94467 0.33661 0.30964 0.0
H2580 H 0.95682 0.28005 0.30333 0.0
C2581 C 0.01588 0.29772 0.34691 0.0
C2582 C 0.98227 0.32311 0.33994 0.0
C2583 C 0.03394 0.30032 0.35186 0.0
C2584 C 0.91784 0.32423 0.29911 0.0
C2585 C 0.93448 0.32372 0.30683 0.0
C2586 C 0.96363 0.29196 0.31383 0.0
C2587 C 0.00945 0.31122 0.33883 0.0
C2588 C 0.99051 0.30878 0.3335 0.0
C2589 C 0.93792 0.30687 0.31092 0.0
C2590 C 0.95557 0.30674 0.31964 0.0
H2591 H 0.04805 0.34202 0.33735 0.0
H2592 H 0.01646 0.33768 0.32916 0.0
H2593 H 0.98722 0.28179 0.31563 0.0
H2594 H 0.89764 0.27789 0.29541 0.0
H2595 H 0.92671 0.27716 0.30956 0.0
C2596 C 1.0028 0.69037 0.61023 0.0
C2597 C 0.01307 0.69557 0.62761 0.0
C2598 C 0.00376 0.67422 0.5981 0.0
C2599 C 0.01922 0.62994 0.59607 0.0
H2600 H 0.01637 0.63149 0.54357 0.0
C2601 C 0.01765 0.56467 0.54039 0.0
C2602 C 0.02631 0.56789 0.52491 0.0
C2603 C 0.01578 0.57983 0.5534 0.0
C2604 C 0.0174 0.63085 0.5582 0.0
H2605 H 0.03249 0.68802 0.64588 0.0
H2606 H 0.03468 0.66025 0.62444 0.0
H2607 H 0.01402 0.6588 0.56525 0.0
H2608 H 0.04045 0.58918 0.51111 0.0
H2609 H 0.03779 0.61557 0.534 0.0
H2610 H 0.02345 0.60224 0.58901 0.0
C2611 C 0.02549 0.66831 0.62036 0.0
C2612 C 0.01574 0.64645 0.57064 0.0
C2613 C 0.02435 0.68432 0.6326 0.0
C2614 C 0.03348 0.58637 0.52283 0.0
C2615 C 0.03185 0.60148 0.5359 0.0
C2616 C 0.0211 0.61438 0.58362 0.0
C2617 C 0.0152 0.66305 0.60295 0.0
C2618 C 0.01666 0.64623 0.58974 0.0
C2619 C 0.02273 0.59844 0.5512 0.0
C2620 C 0.02031 0.6147 0.56453 0.0
H2621 H 0.99383 0.69863 0.60607 0.0
H2622 H 0.99538 0.67043 0.58497 0.0
H2623 H 0.01974 0.62916 0.61066 0.0
H2624 H 0.01194 0.55049 0.54217 0.0
H2625 H 0.00853 0.57696 0.56491 0.0
C2626 C 0.63384 0.82042 0.82871 0.0
C2627 C 0.6355 0.81309 0.84506 0.0
C2628 C 0.64849 0.82616 0.81983 0.0
C2629 C 0.69734 0.83453 0.82427 0.0
H2630 H 0.68835 0.8153 0.77138 0.0
C2631 C 0.75384 0.82719 0.7813 0.0
C2632 C 0.75142 0.80852 0.77211 0.0
C2633 C 0.73963 0.83359 0.78791 0.0
C2634 C 0.69105 0.82098 0.78609 0.0
H2635 H 0.65379 0.80653 0.86531 0.0
H2636 H 0.67941 0.81556 0.84918 0.0
H2637 H 0.6638 0.81547 0.78925 0.0
H2638 H 0.73217 0.78242 0.76125 0.0
H2639 H 0.70753 0.79345 0.77279 0.0
H2640 H 0.72469 0.83846 0.8212 0.0
C2641 C 0.66686 0.81747 0.84355 0.0
C2642 C 0.67698 0.82124 0.79636 0.0
C2643 C 0.65219 0.81208 0.85268 0.0
C2644 C 0.73444 0.79681 0.76846 0.0
C2645 C 0.72028 0.80322 0.77491 0.0
C2646 C 0.71144 0.83412 0.81399 0.0
C2647 C 0.66508 0.82425 0.82682 0.0
C2648 C 0.67997 0.82732 0.81568 0.0
C2649 C 0.72282 0.82145 0.7852 0.0
C2650 C 0.70838 0.82655 0.79495 0.0
H2651 H 0.62118 0.82161 0.82262 0.0
H2652 H 0.64672 0.83168 0.80721 0.0
H2653 H 0.70004 0.83968 0.83907 0.0
H2654 H 0.76681 0.83655 0.78427 0.0
H2655 H 0.74188 0.84774 0.79572 0.0
C2656 C 0.46074 0.56047 0.69803 0.0
C2657 C 0.44233 0.55408 0.69772 0.0
C2658 C 0.46909 0.55942 0.68155 0.0
C2659 C 0.46272 0.53635 0.62998 0.0
H2660 H 0.50393 0.57512 0.62789 0.0
C2661 C 0.49984 0.53811 0.56131 0.0
C2662 C 0.51784 0.54755 0.56329 0.0
C2663 C 0.48982 0.53844 0.57682 0.0
C2664 C 0.49268 0.56376 0.62799 0.0
H2665 H 0.41863 0.54125 0.67876 0.0
H2666 H 0.43298 0.53927 0.65039 0.0
H2667 H 0.48915 0.57622 0.65546 0.0
H2668 H 0.5389 0.56427 0.5841 0.0
H2669 H 0.52236 0.56429 0.61009 0.0
H2670 H 0.46641 0.52381 0.60245 0.0
C2671 C 0.44114 0.54516 0.66347 0.0
C2672 C 0.48398 0.5645 0.64419 0.0
C2673 C 0.43276 0.54642 0.67997 0.0
C2674 C 0.52516 0.55693 0.58145 0.0
C2675 C 0.51537 0.55713 0.59674 0.0
C2676 C 0.47157 0.53549 0.61375 0.0
C2677 C 0.45957 0.55173 0.66373 0.0
C2678 C 0.46878 0.55079 0.6458 0.0
C2679 C 0.49732 0.54814 0.59505 0.0
C2680 C 0.48698 0.54911 0.61228 0.0
H2681 H 0.46884 0.5664 0.71116 0.0
H2682 H 0.48323 0.56448 0.68291 0.0
H2683 H 0.45122 0.5253 0.63022 0.0
H2684 H 0.49345 0.53053 0.54783 0.0
H2685 H 0.47607 0.53121 0.57436 0.0
C2686 C 0.79884 0.17934 0.97471 0.0
C2687 C 0.78895 0.16079 0.97271 0.0
C2688 C 0.79846 0.18906 0.95997 0.0
C2689 C 0.78352 0.18343 0.90959 0.0
H2690 H 0.77997 0.23502 0.92386 0.0
C2691 C 0.78356 0.23375 0.85762 0.0
C2692 C 0.77391 0.24765 0.86053 0.0
C2693 C 0.78474 0.22199 0.87043 0.0
C2694 C 0.78067 0.22055 0.91962 0.0
H2695 H 0.77174 0.13745 0.95349 0.0
H2696 H 0.77063 0.15451 0.92805 0.0
H2697 H 0.7848 0.21685 0.94765 0.0
H2698 H 0.7571 0.25943 0.87863 0.0
H2699 H 0.75853 0.23832 0.90067 0.0
H2700 H 0.77855 0.18691 0.88153 0.0
C2701 C 0.77895 0.16153 0.94079 0.0
C2702 C 0.78382 0.21024 0.93328 0.0
C2703 C 0.77953 0.15175 0.95543 0.0
C2704 C 0.76464 0.24885 0.876 0.0
C2705 C 0.76566 0.23693 0.88875 0.0
C2706 C 0.78014 0.19368 0.89592 0.0
C2707 C 0.78798 0.18048 0.94308 0.0
C2708 C 0.78537 0.19158 0.92844 0.0
C2709 C 0.77608 0.22368 0.88633 0.0
C2710 C 0.77874 0.21239 0.90078 0.0
H2711 H 0.80634 0.18658 0.98784 0.0
H2712 H 0.80596 0.20348 0.96202 0.0
H2713 H 0.78475 0.16914 0.90538 0.0
H2714 H 0.79053 0.2322 0.8456 0.0
H2715 H 0.79297 0.21205 0.86817 0.0
C2716 C 0.13641 0.50369 0.1681 0.0
C2717 C 0.1291 0.49383 0.18147 0.0
C2718 C 0.12589 0.50437 0.15207 0.0
C2719 C 0.08683 0.48542 0.11996 0.0
H2720 H 0.0795 0.53606 0.12604 0.0
C2721 C 0.03576 0.50546 0.07032 0.0
C2722 C 0.04081 0.52314 0.06526 0.0
C2723 C 0.04577 0.50074 0.08473 0.0
C2724 C 0.08157 0.52193 0.12388 0.0
H2725 H 0.10574 0.47541 0.18779 0.0
H2726 H 0.08751 0.47613 0.15935 0.0
H2727 H 0.10012 0.5282 0.14835 0.0
H2728 H 0.05943 0.55017 0.07179 0.0
H2729 H 0.07727 0.54184 0.09622 0.0
H2730 H 0.06881 0.47922 0.09511 0.0
C2731 C 0.10125 0.48349 0.16145 0.0
C2732 C 0.09334 0.51746 0.13672 0.0
C2733 C 0.11166 0.4831 0.17767 0.0
C2734 C 0.05538 0.53636 0.07537 0.0
C2735 C 0.06552 0.53159 0.0895 0.0
C2736 C 0.07529 0.48998 0.10682 0.0
C2737 C 0.10809 0.49483 0.14902 0.0
C2738 C 0.09609 0.49924 0.13481 0.0
C2739 C 0.06102 0.51363 0.09422 0.0
C2740 C 0.07257 0.50835 0.10859 0.0
H2741 H 0.14977 0.51218 0.17073 0.0
H2742 H 0.13134 0.51324 0.1426 0.0
H2743 H 0.08874 0.47123 0.1184 0.0
H2744 H 0.02445 0.49508 0.06277 0.0
H2745 H 0.04166 0.48694 0.08825 0.0
C2746 C 0.77808 0.86378 0.45592 0.0
C2747 C 0.79072 0.8638 0.47064 0.0
C2748 C 0.77792 0.85322 0.43841 0.0
C2749 C 0.8072 0.83653 0.40798 0.0
H2750 H 0.76425 0.80671 0.37828 0.0
C2751 C 0.80613 0.80242 0.33105 0.0
C2752 C 0.7913 0.80215 0.31878 0.0
C2753 C 0.80635 0.80774 0.35022 0.0
C2754 C 0.77635 0.81516 0.38627 0.0
H2755 H 0.81288 0.85245 0.47866 0.0
H2756 H 0.81285 0.83423 0.44772 0.0
H2757 H 0.76373 0.8194 0.41079 0.0
H2758 H 0.76517 0.80763 0.31712 0.0
H2759 H 0.76579 0.81747 0.35019 0.0
H2760 H 0.8197 0.83319 0.38333 0.0
C2761 C 0.80297 0.84228 0.44991 0.0
C2762 C 0.77605 0.82228 0.40495 0.0
C2763 C 0.8029 0.85257 0.46761 0.0
C2764 C 0.77678 0.80749 0.32613 0.0
C2765 C 0.77708 0.813 0.3452 0.0
C2766 C 0.80746 0.82963 0.38919 0.0
C2767 C 0.7906 0.84271 0.4351 0.0
C2768 C 0.7914 0.83329 0.41593 0.0
C2769 C 0.7918 0.8131 0.35758 0.0
C2770 C 0.79196 0.81914 0.37797 0.0
H2771 H 0.76853 0.8723 0.45785 0.0
H2772 H 0.76831 0.85393 0.42724 0.0
H2773 H 0.81919 0.84515 0.41608 0.0
H2774 H 0.8175 0.79827 0.32588 0.0
H2775 H 0.81786 0.80741 0.35927 0.0
C2776 C 0.45162 0.56465 0.82729 0.0
C2777 C 0.45239 0.55073 0.81202 0.0
C2778 C 0.45935 0.56442 0.84559 0.0
C2779 C 0.49087 0.5403 0.87103 0.0
H2780 H 0.47536 0.56321 0.91565 0.0
C2781 C 0.51511 0.52582 0.94413 0.0
C2782 C 0.51837 0.5402 0.95997 0.0
C2783 C 0.50722 0.52803 0.9268 0.0
C2784 C 0.48004 0.55678 0.9034 0.0
H2785 H 0.46151 0.52513 0.80517 0.0
H2786 H 0.47385 0.52435 0.83596 0.0
H2787 H 0.46147 0.5654 0.88521 0.0
H2788 H 0.51531 0.56845 0.96921 0.0
H2789 H 0.50143 0.5722 0.93927 0.0
H2790 H 0.50923 0.53147 0.88908 0.0
C2791 C 0.46814 0.53608 0.83416 0.0
C2792 C 0.47198 0.55808 0.88568 0.0
C2793 C 0.46072 0.53644 0.81611 0.0
C2794 C 0.51317 0.55692 0.95759 0.0
C2795 C 0.50503 0.55905 0.94025 0.0
C2796 C 0.49872 0.53882 0.88863 0.0
C2797 C 0.46805 0.55019 0.84947 0.0
C2798 C 0.47704 0.54968 0.86892 0.0
C2799 C 0.50192 0.54468 0.92434 0.0
C2800 C 0.49348 0.54688 0.90533 0.0
H2801 H 0.44544 0.57597 0.82507 0.0
H2802 H 0.45876 0.57571 0.85662 0.0
H2803 H 0.49598 0.53409 0.85899 0.0
H2804 H 0.51874 0.51267 0.94506 0.0
H2805 H 0.50502 0.51639 0.9153 0.0
C2806 C 0.79687 0.18334 0.08095 0.0
C2807 C 0.78803 0.16497 0.08212 0.0
C2808 C 0.7999 0.19774 0.0964 0.0
C2809 C 0.80041 0.20685 0.14722 0.0
H2810 H 0.78374 0.25108 0.1396 0.0
C2811 C 0.77982 0.25201 0.20675 0.0
C2812 C 0.78735 0.27137 0.20978 0.0
C2813 C 0.78079 0.24066 0.19012 0.0
C2814 C 0.78864 0.23893 0.14186 0.0
H2815 H 0.77643 0.14706 0.10063 0.0
H2816 H 0.78176 0.17208 0.12752 0.0
H2817 H 0.78609 0.22791 0.11281 0.0
H2818 H 0.80058 0.29438 0.19738 0.0
H2819 H 0.80221 0.27433 0.16798 0.0
H2820 H 0.80246 0.21749 0.17621 0.0
C2821 C 0.78635 0.1754 0.11471 0.0
C2822 C 0.79008 0.22573 0.12659 0.0
C2823 C 0.78321 0.16107 0.09926 0.0
C2824 C 0.79468 0.27945 0.19535 0.0
C2825 C 0.79565 0.26802 0.1786 0.0
C2826 C 0.79893 0.21995 0.16242 0.0
C2827 C 0.79433 0.19395 0.11332 0.0
C2828 C 0.79551 0.20932 0.12918 0.0
C2829 C 0.78934 0.24844 0.1762 0.0
C2830 C 0.79255 0.23581 0.15989 0.0
H2831 H 0.80076 0.1868 0.06791 0.0
H2832 H 0.80624 0.2119 0.09503 0.0
H2833 H 0.80494 0.19451 0.14959 0.0
H2834 H 0.774 0.24543 0.21761 0.0
H2835 H 0.77543 0.22564 0.18842 0.0
C2836 C 0.12736 0.54878 0.29359 0.0
C2837 C 0.11522 0.54312 0.27746 0.0
C2838 C 0.12269 0.55776 0.30992 0.0
C2839 C 0.08839 0.58106 0.32823 0.0
H2840 H 0.10112 0.56287 0.37279 0.0
C2841 C 0.04512 0.56838 0.38509 0.0
C2842 C 0.05305 0.56867 0.40298 0.0
C2843 C 0.05543 0.57388 0.37149 0.0
C2844 C 0.09782 0.56858 0.36065 0.0
H2845 H 0.08867 0.54226 0.26577 0.0
H2846 H 0.08028 0.5571 0.29439 0.0
H2847 H 0.11426 0.55437 0.3451 0.0
H2848 H 0.0777 0.57714 0.4213 0.0
H2849 H 0.0956 0.58692 0.39761 0.0
H2850 H 0.0709 0.59411 0.34366 0.0
C2851 C 0.09359 0.55524 0.29434 0.0
C2852 C 0.10535 0.56365 0.3447 0.0
C2853 C 0.09831 0.54647 0.27799 0.0
C2854 C 0.07117 0.57671 0.40762 0.0
C2855 C 0.08147 0.58221 0.39404 0.0
C2856 C 0.08072 0.58586 0.3442 0.0
C2857 C 0.10573 0.56104 0.31049 0.0
C2858 C 0.1002 0.5692 0.32811 0.0
C2859 C 0.07383 0.57972 0.37561 0.0
C2860 C 0.08489 0.57907 0.36034 0.0
H2861 H 0.14059 0.54665 0.29353 0.0
H2862 H 0.13241 0.5622 0.32206 0.0
H2863 H 0.0845 0.58597 0.31578 0.0
H2864 H 0.03113 0.56258 0.38125 0.0
H2865 H 0.04915 0.5718 0.35741 0.0
C2866 C 0.79041 0.84743 0.58324 0.0
C2867 C 0.80298 0.864 0.58284 0.0
C2868 C 0.78956 0.83959 0.59933 0.0
C2869 C 0.80449 0.85143 0.65038 0.0
H2870 H 0.78759 0.79766 0.64693 0.0
C2871 C 0.80528 0.81186 0.71306 0.0
C2872 C 0.78915 0.79978 0.71452 0.0
C2873 C 0.80757 0.82024 0.69736 0.0
C2874 C 0.79228 0.81271 0.64809 0.0
H2875 H 0.82493 0.885 0.59885 0.0
H2876 H 0.82407 0.87089 0.6266 0.0
H2877 H 0.79125 0.81066 0.61875 0.0
H2878 H 0.76278 0.78705 0.70071 0.0
H2879 H 0.76697 0.80123 0.67312 0.0
H2880 H 0.806 0.85318 0.67989 0.0
C2881 C 0.81439 0.86424 0.61475 0.0
C2882 C 0.79428 0.82024 0.63192 0.0
C2883 C 0.81502 0.87227 0.59875 0.0
C2884 C 0.77537 0.79629 0.7 0.0
C2885 C 0.77777 0.80434 0.68418 0.0
C2886 C 0.8028 0.84382 0.66658 0.0
C2887 C 0.80149 0.84789 0.61539 0.0
C2888 C 0.80021 0.83976 0.63276 0.0
C2889 C 0.7939 0.81634 0.68266 0.0
C2890 C 0.79647 0.82442 0.66558 0.0
H2891 H 0.78082 0.84082 0.57128 0.0
H2892 H 0.7792 0.82726 0.59924 0.0
H2893 H 0.80878 0.86653 0.65174 0.0
H2894 H 0.81621 0.8146 0.72388 0.0
H2895 H 0.82018 0.82935 0.69648 0.0
C2896 C 0.75579 0.46903 0.52246 0.0
C2897 C 0.75042 0.44949 0.52131 0.0
C2898 C 0.74378 0.48028 0.52505 0.0
C2899 C 0.70076 0.48154 0.54071 0.0
H2900 H 0.70054 0.51848 0.5088 0.0
C2901 C 0.64288 0.51611 0.52988 0.0
C2902 C 0.64658 0.53525 0.52858 0.0
C2903 C 0.65636 0.50664 0.53071 0.0
C2904 C 0.70063 0.50846 0.51802 0.0
H2905 H 0.72839 0.42638 0.52233 0.0
H2906 H 0.70728 0.4461 0.52671 0.0
H2907 H 0.72255 0.49978 0.50709 0.0
H2908 H 0.66726 0.55961 0.52749 0.0
H2909 H 0.69099 0.54305 0.52915 0.0
H2910 H 0.67869 0.49008 0.55148 0.0
C2911 C 0.72084 0.4527 0.52577 0.0
C2912 C 0.71319 0.49773 0.51702 0.0
C2913 C 0.73288 0.44141 0.52316 0.0
C2914 C 0.66407 0.54486 0.52849 0.0
C2915 C 0.6776 0.53536 0.52931 0.0
C2916 C 0.6882 0.4923 0.54174 0.0
C2917 C 0.72616 0.47221 0.52654 0.0
C2918 C 0.71327 0.48406 0.52823 0.0
C2919 C 0.67383 0.51613 0.53032 0.0
C2920 C 0.68791 0.50572 0.53026 0.0
H2921 H 0.76926 0.47568 0.52119 0.0
H2922 H 0.74828 0.49531 0.52585 0.0
H2923 H 0.7007 0.47128 0.54969 0.0
H2924 H 0.62954 0.50842 0.53032 0.0
H2925 H 0.65303 0.49179 0.53127 0.0
C2926 C 0.20709 0.15844 0.49603 0.0
C2927 C 0.2179 0.15011 0.48472 0.0
C2928 C 0.19006 0.14847 0.49754 0.0
C2929 C 0.15338 0.11096 0.47377 0.0
H2930 H 0.14229 0.10219 0.52241 0.0
C2931 C 0.09284 0.05446 0.48223 0.0
C2932 C 0.08446 0.0566 0.49827 0.0
C2933 C 0.10832 0.06726 0.48054 0.0
C2934 C 0.14491 0.10478 0.50874 0.0
H2935 H 0.21919 0.12505 0.46571 0.0
H2936 H 0.18921 0.10794 0.46785 0.0
H2937 H 0.17045 0.12246 0.51926 0.0
H2938 H 0.08567 0.07398 0.52509 0.0
H2939 H 0.11209 0.09702 0.5218 0.0
H2940 H 0.12784 0.09384 0.46313 0.0
C2941 C 0.19401 0.12207 0.47571 0.0
C2942 C 0.16114 0.11634 0.50697 0.0
C2943 C 0.21115 0.13184 0.47454 0.0
C2944 C 0.09172 0.07206 0.51248 0.0
C2945 C 0.10705 0.08513 0.51066 0.0
C2946 C 0.13701 0.09974 0.47555 0.0
C2947 C 0.18339 0.13018 0.48742 0.0
C2948 C 0.16564 0.11926 0.48944 0.0
C2949 C 0.11572 0.08283 0.49472 0.0
C2950 C 0.13263 0.09613 0.49302 0.0
H2951 H 0.21196 0.17243 0.50411 0.0
H2952 H 0.1821 0.15504 0.50663 0.0
H2953 H 0.15648 0.11316 0.46011 0.0
H2954 H 0.08765 0.04261 0.47106 0.0
H2955 H 0.11467 0.0646 0.46823 0.0
C2956 C 0.20982 0.96237 0.7708 0.0
C2957 C 0.19127 0.95965 0.76934 0.0
C2958 C 0.21833 0.94709 0.77032 0.0
C2959 C 0.21011 0.89379 0.77237 0.0
H2960 H 0.25681 0.89919 0.7575 0.0
C2961 C 0.2447 0.82883 0.76319 0.0
C2962 C 0.2633 0.83188 0.76542 0.0
C2963 C 0.23597 0.84394 0.76359 0.0
C2964 C 0.24385 0.8972 0.76196 0.0
H2965 H 0.16751 0.9376 0.7661 0.0
H2966 H 0.18195 0.9114 0.76501 0.0
H2967 H 0.24229 0.92511 0.75834 0.0
H2968 H 0.28686 0.85436 0.76996 0.0
H2969 H 0.27203 0.88019 0.77077 0.0
H2970 H 0.21169 0.86579 0.77589 0.0
C2971 C 0.19023 0.92543 0.76686 0.0
C2972 C 0.23532 0.91244 0.76246 0.0
C2973 C 0.18174 0.94072 0.76737 0.0
C2974 C 0.27261 0.85095 0.76806 0.0
C2975 C 0.26391 0.86604 0.76841 0.0
C2976 C 0.21864 0.87852 0.77183 0.0
C2977 C 0.20884 0.92805 0.76831 0.0
C2978 C 0.21815 0.91131 0.76771 0.0
C2979 C 0.24528 0.86309 0.7662 0.0
C2980 C 0.23584 0.8797 0.76664 0.0
H2981 H 0.21793 0.97648 0.7724 0.0
H2982 H 0.23255 0.95043 0.77181 0.0
H2983 H 0.19716 0.89178 0.77683 0.0
H2984 H 0.23674 0.81462 0.76118 0.0
H2985 H 0.22173 0.84041 0.76158 0.0
C2986 C 0.35194 0.96862 1.00328 0.0
C2987 C 0.34209 0.95292 0.00922 0.0
C2988 C 0.37027 0.97209 0.00508 0.0
C2989 C 0.40681 0.96792 0.99853 0.0
H2990 H 0.43413 0.96059 0.04207 0.0
C2991 C 0.4802 0.97465 0.99918 0.0
C2992 C 0.49048 0.98677 0.0147 0.0
C2993 C 0.46237 0.96727 0.99967 0.0
C2994 C 0.42666 0.96268 0.02984 0.0
H2995 H 0.34374 0.92879 0.02212 0.0
H2996 H 0.37558 0.93472 0.02493 0.0
H2997 H 0.40229 0.95632 0.04119 0.0
H2998 H 0.49065 0.9992 0.04344 0.0
H2999 H 0.45944 0.98671 0.04418 0.0
H3000 H 0.4311 0.97492 0.98739 0.0
C3001 C 0.36921 0.94447 0.01911 0.0
C3002 C 0.40845 0.96014 0.02928 0.0
C3003 C 0.35093 0.94102 0.01737 0.0
C3004 C 0.48303 0.98998 0.03124 0.0
C3005 C 0.46513 0.98276 0.03167 0.0
C3006 C 0.42497 0.97049 0.9991 0.0
C3007 C 0.37906 0.95991 0.01281 0.0
C3008 C 0.39837 0.96283 0.01364 0.0
C3009 C 0.45449 0.97207 0.01561 0.0
C3010 C 0.4351 0.96793 0.01475 0.0
H3011 H 0.34551 0.97809 0.99706 0.0
H3012 H 0.37757 0.98428 1.00035 0.0
H3013 H 0.39938 0.96981 0.98618 0.0
H3014 H 0.48569 0.97166 0.98633 0.0
H3015 H 0.45458 0.9586 0.98725 0.0
C3016 C 0.87116 0.57497 0.81106 0.0
C3017 C 0.889 0.58408 0.81221 0.0
C3018 C 0.8583 0.58539 0.81208 0.0
C3019 C 0.85156 0.63402 0.82225 0.0
H3020 H 0.81525 0.61609 0.78016 0.0
C3021 C 0.81997 0.68336 0.78614 0.0
C3022 C 0.80171 0.67853 0.78072 0.0
C3023 C 0.8283 0.67077 0.79328 0.0
C3024 C 0.82506 0.62112 0.7922 0.0
H3025 H 0.90751 0.61123 0.81685 0.0
H3026 H 0.88516 0.62935 0.81841 0.0
H3027 H 0.83411 0.59574 0.78838 0.0
H3028 H 0.7779 0.65657 0.77837 0.0
H3029 H 0.79268 0.63424 0.79052 0.0
H3030 H 0.84305 0.65978 0.82539 0.0
C3031 C 0.88102 0.6142 0.81685 0.0
C3032 C 0.83585 0.60945 0.79696 0.0
C3033 C 0.89385 0.60381 0.81584 0.0
C3034 C 0.79201 0.66063 0.78229 0.0
C3035 C 0.80042 0.64792 0.78933 0.0
C3036 C 0.84083 0.6457 0.81743 0.0
C3037 C 0.86307 0.60509 0.8143 0.0
C3038 C 0.84959 0.61601 0.81166 0.0
C3039 C 0.81863 0.65297 0.79503 0.0
C3040 C 0.82788 0.63957 0.80198 0.0
H3041 H 0.86703 0.55977 0.80841 0.0
H3042 H 0.84458 0.578 0.81037 0.0
H3043 H 0.86183 0.63934 0.83384 0.0
H3044 H 0.82791 0.69684 0.78467 0.0
H3045 H 0.84243 0.67484 0.7971 0.0
C3046 C 0.83048 0.64756 0.98615 0.0
C3047 C 0.81686 0.63937 0.99568 0.0
C3048 C 0.84605 0.64108 0.98586 0.0
C3049 C 0.86278 0.59918 0.99296 0.0
H3050 H 0.90919 0.63262 0.99975 0.0
C3051 C 0.92409 0.5735 0.01289 0.0
C3052 C 0.93833 0.57744 1.0026 0.0
C3053 C 0.91024 0.58244 0.0114 0.0
C3054 C 0.8963 0.62313 0.99766 0.0
H3055 H 0.80929 0.61839 0.01287 0.0
H3056 H 0.83616 0.60749 0.01257 0.0
H3057 H 0.88296 0.6456 0.99777 0.0
H3058 H 0.94948 0.59463 0.9833 0.0
H3059 H 0.92523 0.61052 0.9809 0.0
H3060 H 0.87595 0.57679 0.99323 0.0
C3061 C 0.83477 0.61853 0.00491 0.0
C3062 C 0.88128 0.63053 0.99648 0.0
C3063 C 0.81933 0.6249 0.00515 0.0
C3064 C 0.93876 0.59131 0.99147 0.0
C3065 C 0.92487 0.60038 0.99006 0.0
C3066 C 0.87769 0.59185 0.99427 0.0
C3067 C 0.84826 0.62631 0.99507 0.0
C3068 C 0.86434 0.61865 0.99452 0.0
C3069 C 0.91026 0.59568 0.99967 0.0
C3070 C 0.89462 0.60373 0.99701 0.0
H3071 H 0.82904 0.65877 0.97876 0.0
H3072 H 0.85619 0.64736 0.97812 0.0
H3073 H 0.84997 0.58954 0.99092 0.0
H3074 H 0.92353 0.56327 0.02196 0.0
H3075 H 0.89936 0.57884 0.01932 0.0
C3076 C 0.18374 0.09181 0.76182 0.0
C3077 C 0.19015 0.07848 0.77058 0.0
C3078 C 0.1943 0.1097 0.76134 0.0
C3079 C 0.23463 0.14596 0.78477 0.0
H3080 H 0.22913 0.16792 0.74088 0.0
C3081 C 0.27865 0.21992 0.78014 0.0
C3082 C 0.27298 0.23136 0.76838 0.0
C3083 C 0.26894 0.20149 0.78023 0.0
C3084 C 0.23078 0.16237 0.75347 0.0
H3085 H 0.21342 0.07438 0.7858 0.0
H3086 H 0.23188 0.10582 0.78525 0.0
H3087 H 0.21259 0.13621 0.74139 0.0
H3088 H 0.25206 0.23173 0.74746 0.0
H3089 H 0.23477 0.20002 0.748 0.0
H3090 H 0.2524 0.17218 0.79713 0.0
C3091 C 0.21844 0.1022 0.77862 0.0
C3092 C 0.22121 0.14386 0.75372 0.0
C3093 C 0.20784 0.08399 0.77885 0.0
C3094 C 0.25698 0.22356 0.75676 0.0
C3095 C 0.24709 0.20508 0.75699 0.0
C3096 C 0.24405 0.16458 0.78462 0.0
C3097 C 0.21187 0.11546 0.76978 0.0
C3098 C 0.22287 0.13519 0.76938 0.0
C3099 C 0.25285 0.19349 0.76871 0.0
C3100 C 0.24242 0.17334 0.76895 0.0
H3101 H 0.17031 0.08844 0.75518 0.0
H3102 H 0.18843 0.11924 0.75459 0.0
H3103 H 0.23625 0.14019 0.79726 0.0
H3104 H 0.29089 0.22515 0.78927 0.0
H3105 H 0.27442 0.19344 0.78924 0.0
C3106 C 0.39886 0.97875 0.29046 0.0
C3107 C 0.41125 0.9837 0.27834 0.0
C3108 C 0.38895 0.96035 0.28827 0.0
C3109 C 0.38589 0.9113 0.26594 0.0
H3110 H 0.33638 0.90633 0.27126 0.0
C3111 C 0.33358 0.84029 0.24849 0.0
C3112 C 0.3222 0.83707 0.262 0.0
C3113 C 0.34499 0.8579 0.24971 0.0
C3114 C 0.35019 0.90751 0.26983 0.0
H3115 H 0.42349 0.97307 0.25485 0.0
H3116 H 0.40593 0.94088 0.25086 0.0
H3117 H 0.35577 0.93748 0.27528 0.0
H3118 H 0.31386 0.84974 0.28737 0.0
H3119 H 0.33368 0.88033 0.28942 0.0
H3120 H 0.38012 0.88116 0.26038 0.0
C3121 C 0.40402 0.95123 0.26216 0.0
C3122 C 0.36132 0.92533 0.27221 0.0
C3123 C 0.41404 0.96968 0.26442 0.0
C3124 C 0.32245 0.85174 0.27672 0.0
C3125 C 0.33372 0.86931 0.27785 0.0
C3126 C 0.37469 0.8934 0.26347 0.0
C3127 C 0.3911 0.94649 0.27382 0.0
C3128 C 0.37934 0.92744 0.27058 0.0
C3129 C 0.34506 0.87258 0.26435 0.0
C3130 C 0.3568 0.89138 0.26567 0.0
H3131 H 0.39655 0.98916 0.30147 0.0
H3132 H 0.3794 0.95702 0.29777 0.0
H3133 H 0.39973 0.91249 0.26468 0.0
H3134 H 0.33378 0.82921 0.23706 0.0
H3135 H 0.35357 0.86011 0.23908 0.0
C3136 C 0.57229 0.37984 0.60392 0.0
C3137 C 0.57363 0.36268 0.59353 0.0
C3138 C 0.57087 0.39509 0.5953 0.0
C3139 C 0.55887 0.40721 0.54954 0.0
H3140 H 0.58056 0.45797 0.57508 0.0
C3141 C 0.53974 0.47211 0.52689 0.0
C3142 C 0.55259 0.48904 0.52886 0.0
C3143 C 0.54357 0.45662 0.53362 0.0
C3144 C 0.57458 0.44391 0.5676 0.0
H3145 H 0.57467 0.34821 0.56582 0.0
H3146 H 0.57244 0.3749 0.55076 0.0
H3147 H 0.5852 0.43136 0.58886 0.0
H3148 H 0.57982 0.50265 0.53914 0.0
H3149 H 0.5866 0.47548 0.55066 0.0
H3150 H 0.54848 0.41975 0.52814 0.0
C3151 C 0.57222 0.3765 0.5656 0.0
C3152 C 0.57704 0.42859 0.57566 0.0
C3153 C 0.57358 0.36119 0.57424 0.0
C3154 C 0.56955 0.48989 0.53742 0.0
C3155 C 0.57341 0.47432 0.54415 0.0
C3156 C 0.55645 0.42253 0.54146 0.0
C3157 C 0.57083 0.39369 0.57601 0.0
C3158 C 0.56903 0.41 0.56688 0.0
C3159 C 0.56041 0.4575 0.54249 0.0
C3160 C 0.56407 0.44113 0.55048 0.0
H3161 H 0.5722 0.3815 0.61879 0.0
H3162 H 0.56949 0.40791 0.60379 0.0
H3163 H 0.55237 0.39317 0.54238 0.0
H3164 H 0.5265 0.47086 0.52046 0.0
H3165 H 0.53311 0.4441 0.53232 0.0
C3166 C 0.44681 0.78225 0.36836 0.0
C3167 C 0.45237 0.76559 0.36912 0.0
C3168 C 0.42978 0.78173 0.3607 0.0
C3169 C 0.38542 0.74995 0.34236 0.0
H3170 H 0.38267 0.78986 0.31469 0.0
C3171 C 0.32734 0.74929 0.28662 0.0
C3172 C 0.32207 0.76628 0.28674 0.0
C3173 C 0.34175 0.74841 0.29882 0.0
C3174 C 0.38313 0.77873 0.32253 0.0
H3175 H 0.44437 0.73525 0.36294 0.0
H3176 H 0.41463 0.73419 0.34874 0.0
H3177 H 0.41049 0.78961 0.33154 0.0
H3178 H 0.32715 0.79539 0.3004 0.0
H3179 H 0.35241 0.79391 0.32148 0.0
H3180 H 0.35798 0.73873 0.33238 0.0
C3181 C 0.42327 0.74774 0.35455 0.0
C3182 C 0.39913 0.7786 0.33234 0.0
C3183 C 0.44031 0.74829 0.36267 0.0
C3184 C 0.33095 0.78212 0.29989 0.0
C3185 C 0.34547 0.7813 0.31191 0.0
C3186 C 0.36939 0.74994 0.33225 0.0
C3187 C 0.41791 0.76451 0.35301 0.0
C3188 C 0.40056 0.76433 0.34257 0.0
C3189 C 0.3513 0.76455 0.31123 0.0
C3190 C 0.36806 0.76442 0.32233 0.0
H3191 H 0.45585 0.79578 0.37336 0.0
H3192 H 0.42609 0.79496 0.36046 0.0
H3193 H 0.38587 0.73879 0.35014 0.0
H3194 H 0.32069 0.73684 0.27668 0.0
H3195 H 0.34594 0.73532 0.29792 0.0
C3196 C 0.05764 0.74349 0.08437 0.0
C3197 C 0.07137 0.74939 0.09912 0.0
C3198 C 0.05401 0.72512 0.0741 0.0
C3199 C 0.07419 0.68493 0.06205 0.0
H3200 H 0.02708 0.6534 0.0575 0.0
C3201 C 0.06199 0.60464 0.04826 0.0
C3202 C 0.04681 0.59377 0.03683 0.0
C3203 C 0.06427 0.62404 0.05352 0.0
C3204 C 0.04025 0.66206 0.05833 0.0
H3205 H 0.09237 0.74088 0.11422 0.0
H3206 H 0.08627 0.70927 0.09622 0.0
H3207 H 0.03247 0.68701 0.07015 0.0
H3208 H 0.0221 0.59493 0.02197 0.0
H3209 H 0.0262 0.62894 0.03102 0.0
H3210 H 0.08212 0.66018 0.05046 0.0
C3211 C 0.07823 0.71868 0.09261 0.0
C3212 C 0.04332 0.68132 0.06558 0.0
C3213 C 0.08165 0.73679 0.10301 0.0
C3214 C 0.03393 0.60284 0.03083 0.0
C3215 C 0.03625 0.62235 0.03607 0.0
C3216 C 0.07112 0.66579 0.0547 0.0
C3217 C 0.06429 0.71255 0.07816 0.0
C3218 C 0.06042 0.69284 0.06798 0.0
C3219 C 0.05152 0.63321 0.04743 0.0
C3220 C 0.05422 0.65397 0.05324 0.0
H3221 H 0.04946 0.75286 0.08109 0.0
H3222 H 0.0432 0.72076 0.06299 0.0
H3223 H 0.08746 0.69353 0.06346 0.0
H3224 H 0.07216 0.59819 0.05327 0.0
H3225 H 0.07601 0.63183 0.06261 0.0
C3226 C 0.0732 0.26379 0.88528 0.0
C3227 C 0.05657 0.26176 0.87538 0.0
C3228 C 0.08837 0.26608 0.87628 0.0
C3229 C 0.10296 0.25978 0.82922 0.0
H3230 H 0.1463 0.2938 0.85405 0.0
C3231 C 0.16242 0.28217 0.7901 0.0
C3232 C 0.17903 0.28155 0.7985 0.0
C3233 C 0.14785 0.28035 0.79996 0.0
C3234 C 0.13433 0.28415 0.84699 0.0
H3235 H 0.04288 0.2606 0.84826 0.0
H3236 H 0.06919 0.26497 0.83267 0.0
H3237 H 0.1202 0.28907 0.87022 0.0
H3238 H 0.19326 0.27896 0.82418 0.0
H3239 H 0.16787 0.27614 0.84146 0.0
H3240 H 0.11704 0.2551 0.80591 0.0
C3241 C 0.07059 0.2644 0.84731 0.0
C3242 C 0.11936 0.28136 0.85628 0.0
C3243 C 0.05545 0.26199 0.85628 0.0
C3244 C 0.18077 0.27975 0.81728 0.0
C3245 C 0.16619 0.27805 0.8272 0.0
C3246 C 0.11787 0.26269 0.81991 0.0
C3247 C 0.08729 0.26649 0.85716 0.0
C3248 C 0.10343 0.26918 0.84749 0.0
C3249 C 0.14949 0.278 0.81855 0.0
C3250 C 0.13371 0.27495 0.82864 0.0
H3251 H 0.07452 0.26362 0.90005 0.0
H3252 H 0.10093 0.26735 0.88429 0.0
H3253 H 0.0911 0.24998 0.82211 0.0
H3254 H 0.16061 0.28395 0.7758 0.0
H3255 H 0.13524 0.28073 0.793 0.0
C3256 C 0.57607 0.76309 0.92145 0.0
C3257 C 0.57283 0.75912 0.90201 0.0
C3258 C 0.57019 0.74921 0.93179 0.0
C3259 C 0.55675 0.69782 0.92774 0.0
H3260 H 0.53843 0.71006 0.97429 0.0
C3261 C 0.53175 0.6409 0.96985 0.0
C3262 C 0.53855 0.64517 0.9887 0.0
C3263 C 0.53336 0.655 0.95917 0.0
C3264 C 0.54356 0.70647 0.96133 0.0
H3265 H 0.56071 0.73762 0.87816 0.0
H3266 H 0.55029 0.71348 0.89621 0.0
H3267 H 0.54657 0.73436 0.95562 0.0
H3268 H 0.55171 0.66766 0.01131 0.0
H3269 H 0.5545 0.69231 0.99263 0.0
H3270 H 0.55395 0.67003 0.93352 0.0
C3271 C 0.55761 0.72721 0.90346 0.0
C3272 C 0.54827 0.72037 0.95068 0.0
C3273 C 0.56354 0.74105 0.89312 0.0
C3274 C 0.5462 0.66397 0.99686 0.0
C3275 C 0.5478 0.67809 0.98616 0.0
C3276 C 0.55199 0.68393 0.93834 0.0
C3277 C 0.56091 0.73112 0.9229 0.0
C3278 C 0.55509 0.71623 0.93385 0.0
C3279 C 0.54179 0.67366 0.96711 0.0
C3280 C 0.54551 0.68815 0.95533 0.0
H3281 H 0.5832 0.77689 0.92869 0.0
H3282 H 0.57318 0.75259 0.94673 0.0
H3283 H 0.56222 0.69423 0.91501 0.0
H3284 H 0.52548 0.62658 0.96328 0.0
H3285 H 0.52832 0.65125 0.94458 0.0
C3286 C 0.04969 0.78678 0.70602 0.0
C3287 C 0.05057 0.78225 0.6869 0.0
C3288 C 0.06505 0.79248 0.71851 0.0
C3289 C 0.1139 0.80647 0.72188 0.0
H3290 H 0.11192 0.77573 0.76003 0.0
C3291 C 0.161 0.76389 0.75469 0.0
C3292 C 0.17711 0.77726 0.75783 0.0
C3293 C 0.14525 0.76941 0.75176 0.0
C3294 C 0.11266 0.78459 0.7496 0.0
H3295 H 0.06815 0.7814 0.66576 0.0
H3296 H 0.09493 0.79094 0.68753 0.0
H3297 H 0.08477 0.77763 0.74269 0.0
H3298 H 0.18933 0.80706 0.76198 0.0
H3299 H 0.16172 0.81671 0.75665 0.0
H3300 H 0.14187 0.8122 0.7278 0.0
C3301 C 0.08243 0.79033 0.69292 0.0
C3302 C 0.09709 0.78584 0.73978 0.0
C3303 C 0.06708 0.78468 0.68042 0.0
C3304 C 0.1771 0.79641 0.75921 0.0
C3305 C 0.16133 0.80194 0.75623 0.0
C3306 C 0.12947 0.80518 0.73168 0.0
C3307 C 0.08156 0.79374 0.71212 0.0
C3308 C 0.0976 0.79611 0.72524 0.0
C3309 C 0.1453 0.78842 0.7519 0.0
C3310 C 0.12901 0.79352 0.74505 0.0
H3311 H 0.03712 0.78528 0.71139 0.0
H3312 H 0.06398 0.79527 0.73321 0.0
H3313 H 0.11466 0.81475 0.71097 0.0
H3314 H 0.16058 0.74902 0.75336 0.0
H3315 H 0.13316 0.75861 0.74817 0.0
C3316 C 0.1087 0.3722 0.42729 0.0
C3317 C 0.11306 0.37342 0.40933 0.0
C3318 C 0.10719 0.38819 0.43926 0.0
C3319 C 0.11501 0.44008 0.44674 0.0
H3320 H 0.06951 0.43071 0.46498 0.0
C3321 C 0.06072 0.48192 0.47616 0.0
C3322 C 0.07097 0.49501 0.49103 0.0
C3323 C 0.06792 0.46837 0.46625 0.0
C3324 C 0.08222 0.43355 0.45991 0.0
H3325 H 0.12096 0.39268 0.39053 0.0
H3326 H 0.11813 0.42051 0.4114 0.0
H3327 H 0.07995 0.40451 0.44934 0.0
H3328 H 0.09694 0.50511 0.50658 0.0
H3329 H 0.10958 0.48132 0.48917 0.0
H3330 H 0.11698 0.4693 0.45709 0.0
C3331 C 0.11588 0.40721 0.4162 0.0
C3332 C 0.08832 0.41853 0.45122 0.0
C3333 C 0.11739 0.39121 0.40421 0.0
C3334 C 0.08877 0.49504 0.49521 0.0
C3335 C 0.09601 0.48153 0.48523 0.0
C3336 C 0.10893 0.45516 0.45561 0.0
C3337 C 0.11004 0.40569 0.43352 0.0
C3338 C 0.10469 0.42164 0.44438 0.0
C3339 C 0.08549 0.46776 0.47101 0.0
C3340 C 0.09235 0.45201 0.46201 0.0
H3341 H 0.10552 0.35876 0.43177 0.0
H3342 H 0.10299 0.38672 0.4527 0.0
H3343 H 0.12768 0.44283 0.44159 0.0
H3344 H 0.04698 0.4817 0.47261 0.0
H3345 H 0.05962 0.45808 0.45513 0.0
C3346 C 0.44598 0.21656 0.18969 0.0
C3347 C 0.45218 0.2299 0.17873 0.0
C3348 C 0.42937 0.21505 0.19558 0.0
C3349 C 0.38842 0.23292 0.19082 0.0
H3350 H 0.39079 0.2332 0.24374 0.0
C3351 C 0.35336 0.27554 0.2396 0.0
C3352 C 0.34091 0.26534 0.24906 0.0
C3353 C 0.36493 0.2668 0.23027 0.0
C3354 C 0.38984 0.23277 0.22891 0.0
H3355 H 0.4454 0.25116 0.16423 0.0
H3356 H 0.4168 0.24907 0.17498 0.0
H3357 H 0.41414 0.22457 0.2269 0.0
H3358 H 0.33137 0.23828 0.25701 0.0
H3359 H 0.35233 0.22317 0.24111 0.0
H3360 H 0.36481 0.24272 0.19336 0.0
C3361 C 0.42449 0.23944 0.17878 0.0
C3362 C 0.40312 0.22774 0.21919 0.0
C3363 C 0.441 0.24076 0.17269 0.0
C3364 C 0.34085 0.24647 0.24981 0.0
C3365 C 0.35272 0.2378 0.24071 0.0
C3366 C 0.37532 0.23826 0.20062 0.0
C3367 C 0.41874 0.22703 0.19083 0.0
C3368 C 0.40289 0.22842 0.20015 0.0
C3369 C 0.36447 0.24783 0.23049 0.0
C3370 C 0.37628 0.23878 0.21979 0.0
H3371 H 0.45423 0.20777 0.19431 0.0
H3372 H 0.42516 0.20503 0.20448 0.0
H3373 H 0.38761 0.23317 0.17611 0.0
H3374 H 0.35368 0.29006 0.23867 0.0
H3375 H 0.37412 0.27479 0.22263 0.0
C3376 C 0.63613 0.51541 0.34203 0.0
C3377 C 0.62766 0.52016 0.32627 0.0
C3378 C 0.62895 0.51636 0.35939 0.0
C3379 C 0.5938 0.53639 0.38473 0.0
H3380 H 0.60214 0.50574 0.42098 0.0
C3381 C 0.5519 0.5322 0.44745 0.0
C3382 C 0.55867 0.52902 0.46478 0.0
C3383 C 0.56142 0.53177 0.43188 0.0
C3384 C 0.59967 0.51463 0.4112 0.0
H3385 H 0.60417 0.52902 0.31736 0.0
H3386 H 0.59193 0.53013 0.34631 0.0
H3387 H 0.61611 0.50335 0.39235 0.0
H3388 H 0.5812 0.52176 0.47823 0.0
H3389 H 0.59801 0.52139 0.45139 0.0
H3390 H 0.57744 0.54768 0.40332 0.0
C3391 C 0.60443 0.52627 0.34588 0.0
C3392 C 0.60783 0.51324 0.39449 0.0
C3393 C 0.61156 0.52542 0.32881 0.0
C3394 C 0.57562 0.52519 0.46565 0.0
C3395 C 0.58518 0.52456 0.44989 0.0
C3396 C 0.58565 0.53771 0.40126 0.0
C3397 C 0.61294 0.52208 0.36188 0.0
C3398 C 0.60494 0.52391 0.38059 0.0
C3399 C 0.5783 0.52777 0.43247 0.0
C3400 C 0.58812 0.52675 0.41496 0.0
H3401 H 0.64851 0.51131 0.3411 0.0
H3402 H 0.63624 0.51294 0.371 0.0
H3403 H 0.59137 0.54553 0.37522 0.0
H3404 H 0.53878 0.53464 0.44573 0.0
H3405 H 0.55508 0.53397 0.41906 0.0
C3406 C 0.31695 0.89986 0.07286 0.0
C3407 C 0.30505 0.88867 0.05789 0.0
C3408 C 0.32623 0.89159 0.08487 0.0
C3409 C 0.33993 0.84753 0.08883 0.0
H3410 H 0.34036 0.8641 0.14151 0.0
C3411 C 0.33847 0.8002 0.14229 0.0
C3412 C 0.34433 0.80813 0.16098 0.0
C3413 C 0.34087 0.81128 0.12867 0.0
C3414 C 0.34089 0.8596 0.12689 0.0
H3415 H 0.29341 0.86008 0.04384 0.0
H3416 H 0.30934 0.84558 0.06512 0.0
H3417 H 0.32906 0.88133 0.11978 0.0
H3418 H 0.35953 0.833 0.17977 0.0
H3419 H 0.36382 0.85242 0.15587 0.0
H3420 H 0.35105 0.82525 0.09601 0.0
C3421 C 0.31174 0.86077 0.06732 0.0
C3422 C 0.33429 0.86944 0.11441 0.0
C3423 C 0.30244 0.86904 0.0553 0.0
C3424 C 0.35454 0.82667 0.16549 0.0
C3425 C 0.35699 0.83776 0.15183 0.0
C3426 C 0.3466 0.83768 0.10134 0.0
C3427 C 0.3238 0.87197 0.08215 0.0
C3428 C 0.33316 0.86312 0.09526 0.0
C3429 C 0.3492 0.83047 0.1335 0.0
C3430 C 0.34653 0.84322 0.12048 0.0
H3431 H 0.31935 0.91505 0.07513 0.0
H3432 H 0.33548 0.90057 0.09613 0.0
H3433 H 0.33957 0.84261 0.07412 0.0
H3434 H 0.33049 0.78597 0.13836 0.0
H3435 H 0.33464 0.80521 0.1147 0.0
C3436 C 0.99419 0.55502 0.8364 0.0
C3437 C 0.97813 0.56043 0.83451 0.0
C3438 C 0.00323 0.55654 0.85393 0.0
C3439 C 0.99402 0.55634 0.90173 0.0
H3440 H 0.04483 0.56727 0.9125 0.0
C3441 C 0.04997 0.56256 0.96722 0.0
C3442 C 0.04251 0.54612 0.97362 0.0
C3443 C 0.04271 0.56628 0.95063 0.0
C3444 C 0.03063 0.56438 0.90976 0.0
H3445 H 0.95958 0.57292 0.84944 0.0
H3446 H 0.9755 0.5758 0.88 0.0
H3447 H 0.03154 0.57199 0.88292 0.0
H3448 H 0.0221 0.52036 0.96765 0.0
H3449 H 0.00943 0.52675 0.93862 0.0
H3450 H 0.99306 0.54874 0.9285 0.0
C3451 C 0.98088 0.56999 0.86795 0.0
C3452 C 0.02303 0.56693 0.89278 0.0
C3453 C 0.97181 0.5684 0.85043 0.0
C3454 C 0.02791 0.53327 0.96309 0.0
C3455 C 0.02064 0.53698 0.94654 0.0
C3456 C 1.0016 0.5538 0.91866 0.0
C3457 C 0.99642 0.56358 0.86991 0.0
C3458 C 0.00463 0.56268 0.88851 0.0
C3459 C 0.02789 0.55358 0.94021 0.0
C3460 C 0.01997 0.5575 0.92272 0.0
H3461 H 0.99944 0.54886 0.82441 0.0
H3462 H 0.01509 0.55133 0.85499 0.0
H3463 H 0.9798 0.55272 0.89878 0.0
H3464 H 0.06125 0.57267 0.97516 0.0
H3465 H 0.0485 0.57923 0.94614 0.0
C3466 C 0.27718 0.22113 0.55348 0.0
C3467 C 0.2814 0.20348 0.55127 0.0
C3468 C 0.27908 0.23218 0.5712 0.0
C3469 C 0.30285 0.24382 0.61684 0.0
H3470 H 0.25944 0.24582 0.63778 0.0
C3471 C 0.30226 0.26253 0.6957 0.0
C3472 C 0.28906 0.27071 0.70274 0.0
C3473 C 0.30197 0.25687 0.67662 0.0
C3474 C 0.27176 0.24589 0.63216 0.0
H3475 H 0.29162 0.18391 0.56557 0.0
H3476 H 0.2957 0.2036 0.59631 0.0
H3477 H 0.25843 0.23242 0.60516 0.0
H3478 H 0.26549 0.27995 0.69525 0.0
H3479 H 0.26539 0.27098 0.66191 0.0
H3480 H 0.31635 0.25752 0.6435 0.0
C3481 C 0.29064 0.20871 0.58444 0.0
C3482 C 0.27111 0.2381 0.61343 0.0
C3483 C 0.28828 0.19747 0.5669 0.0
C3484 C 0.27578 0.27354 0.69024 0.0
C3485 C 0.27568 0.26825 0.67108 0.0
C3486 C 0.30355 0.252 0.63545 0.0
C3487 C 0.28573 0.22596 0.5868 0.0
C3488 C 0.28662 0.23665 0.60575 0.0
C3489 C 0.28866 0.25959 0.66396 0.0
C3490 C 0.28799 0.25271 0.64357 0.0
H3491 H 0.27169 0.22598 0.54167 0.0
H3492 H 0.27517 0.24544 0.57276 0.0
H3493 H 0.31498 0.24284 0.61116 0.0
H3494 H 0.31254 0.25989 0.70498 0.0
H3495 H 0.31198 0.24987 0.67192 0.0
C3496 C 0.61619 0.50532 0.20767 0.0
C3497 C 0.63471 0.51031 0.21195 0.0
C3498 C 0.60776 0.50681 0.19024 0.0
C3499 C 0.61552 0.53027 0.14811 0.0
H3500 H 0.57236 0.49483 0.12516 0.0
C3501 C 0.57511 0.5421 0.08125 0.0
C3502 C 0.5661 0.52653 0.0676 0.0
C3503 C 0.58321 0.53985 0.09847 0.0
C3504 C 0.58446 0.50489 0.13118 0.0
H3505 H 0.65861 0.52091 0.20043 0.0
H3506 H 0.64419 0.52359 0.17056 0.0
H3507 H 0.58655 0.49143 0.15494 0.0
H3508 H 0.55877 0.49609 0.06224 0.0
H3509 H 0.57263 0.49218 0.09207 0.0
H3510 H 0.6135 0.54373 0.1244 0.0
C3511 C 0.63598 0.51855 0.18066 0.0
C3512 C 0.59261 0.50303 0.14859 0.0
C3513 C 0.64437 0.51687 0.19797 0.0
C3514 C 0.56548 0.50855 0.07213 0.0
C3515 C 0.57345 0.5063 0.08949 0.0
C3516 C 0.60727 0.53226 0.13084 0.0
C3517 C 0.61744 0.5136 0.17629 0.0
C3518 C 0.60841 0.51564 0.15751 0.0
C3519 C 0.58262 0.52191 0.10311 0.0
C3520 C 0.59153 0.51962 0.12185 0.0
H3521 H 0.60809 0.50026 0.21786 0.0
H3522 H 0.59354 0.50294 0.18787 0.0
H3523 H 0.62747 0.54053 0.15422 0.0
H3524 H 0.57602 0.55623 0.07862 0.0
H3525 H 0.58979 0.55239 0.10832 0.0
C3526 C 0.27864 0.87086 0.95214 0.0
C3527 C 0.28014 0.89006 0.9518 0.0
C3528 C 0.28063 0.85865 0.93639 0.0
C3529 C 0.30203 0.85845 0.89431 0.0
H3530 H 0.26912 0.81041 0.87649 0.0
C3531 C 0.29798 0.8167 0.82102 0.0
C3532 C 0.29252 0.79703 0.81791 0.0
C3533 C 0.29887 0.82716 0.83868 0.0
C3534 C 0.27867 0.82358 0.8815 0.0
H3535 H 0.2844 0.91142 0.93453 0.0
H3536 H 0.28791 0.89004 0.90702 0.0
H3537 H 0.26475 0.8305 0.90443 0.0
H3538 H 0.285 0.77271 0.83092 0.0
H3539 H 0.28693 0.79101 0.86203 0.0
H3540 H 0.316 0.85162 0.87146 0.0
C3541 C 0.28532 0.88452 0.91954 0.0
C3542 C 0.27607 0.83513 0.89742 0.0
C3543 C 0.28314 0.8967 0.93523 0.0
C3544 C 0.28911 0.78789 0.83297 0.0
C3545 C 0.29008 0.79837 0.85071 0.0
C3546 C 0.30474 0.84684 0.87849 0.0
C3547 C 0.28434 0.86546 0.92008 0.0
C3548 C 0.28754 0.85281 0.90376 0.0
C3549 C 0.29444 0.81815 0.85364 0.0
C3550 C 0.2929 0.82942 0.8717 0.0
H3551 H 0.27631 0.86531 0.96469 0.0
H3552 H 0.27984 0.84401 0.93716 0.0
H3553 H 0.31126 0.87188 0.89914 0.0
H3554 H 0.30073 0.8241 0.80964 0.0
H3555 H 0.30211 0.84235 0.84036 0.0
C3556 C 0.91883 0.54318 0.72102 0.0
C3557 C 0.93102 0.55593 0.73479 0.0
C3558 C 0.92307 0.53921 0.70301 0.0
C3559 C 0.95547 0.55492 0.67159 0.0
H3560 H 0.95207 0.50163 0.65548 0.0
C3561 C 0.00594 0.52887 0.63107 0.0
C3562 C 0.99984 0.51664 0.61408 0.0
C3563 C 0.99423 0.53261 0.6435 0.0
C3564 C 0.9528 0.51651 0.65963 0.0
H3565 H 0.95649 0.57561 0.74027 0.0
H3566 H 0.96389 0.56874 0.70897 0.0
H3567 H 0.93616 0.51198 0.68085 0.0
H3568 H 0.97695 0.49775 0.59725 0.0
H3569 H 0.95634 0.50419 0.61941 0.0
H3570 H 0.97299 0.55947 0.65118 0.0
C3571 C 0.95107 0.5618 0.71197 0.0
C3572 C 0.94365 0.52244 0.67404 0.0
C3573 C 0.9469 0.56566 0.72995 0.0
C3574 C 0.98193 0.50734 0.61023 0.0
C3575 C 0.97019 0.51097 0.62283 0.0
C3576 C 0.96468 0.549 0.65734 0.0
C3577 C 0.93945 0.5481 0.69848 0.0
C3578 C 0.94551 0.54175 0.68064 0.0
C3579 C 0.97622 0.52412 0.63924 0.0
C3580 C 0.96395 0.52982 0.65178 0.0
H3581 H 0.90645 0.53552 0.72437 0.0
H3582 H 0.91383 0.52872 0.69281 0.0
H3583 H 0.95687 0.56985 0.67619 0.0
H3584 H 0.0196 0.53639 0.63434 0.0
H3585 H 0.99916 0.54257 0.65626 0.0
C3586 C 0.27281 0.19676 0.421 0.0
C3587 C 0.28189 0.20568 0.43851 0.0
C3588 C 0.27529 0.20529 0.40544 0.0
C3589 C 0.30703 0.23652 0.38506 0.0
H3590 H 0.26726 0.24578 0.35609 0.0
C3591 C 0.31702 0.27788 0.32476 0.0
C3592 C 0.30363 0.27425 0.30985 0.0
C3593 C 0.31437 0.26945 0.34036 0.0
C3594 C 0.27853 0.24299 0.3637 0.0
H3595 H 0.30085 0.23049 0.45336 0.0
H3596 H 0.30568 0.2451 0.42594 0.0
H3597 H 0.26267 0.23111 0.38321 0.0
H3598 H 0.277 0.25875 0.29954 0.0
H3599 H 0.2727 0.24302 0.32599 0.0
H3600 H 0.32286 0.24743 0.36528 0.0
C3601 C 0.29644 0.23162 0.4244 0.0
C3602 C 0.27586 0.23472 0.3794 0.0
C3603 C 0.29363 0.22329 0.44008 0.0
C3604 C 0.28761 0.26177 0.31076 0.0
C3605 C 0.28509 0.25294 0.32614 0.0
C3606 C 0.30967 0.24437 0.36911 0.0
C3607 C 0.28723 0.22273 0.40695 0.0
C3608 C 0.29009 0.23152 0.3903 0.0
C3609 C 0.29836 0.25678 0.34134 0.0
C3610 C 0.29548 0.24789 0.35819 0.0
H3611 H 0.26363 0.18321 0.41933 0.0
H3612 H 0.26808 0.19811 0.39215 0.0
H3613 H 0.3182 0.23399 0.39311 0.0
H3614 H 0.32948 0.28758 0.32457 0.0
H3615 H 0.32485 0.27325 0.35178 0.0
C3616 C 0.32402 0.5996 0.51598 0.0
C3617 C 0.3087 0.59256 0.52367 0.0
C3618 C 0.3365 0.58898 0.5132 0.0
C3619 C 0.35313 0.55092 0.52882 0.0
H3620 H 0.3754 0.55119 0.48375 0.0
C3621 C 0.40929 0.5132 0.51306 0.0
C3622 C 0.42392 0.52487 0.50772 0.0
C3623 C 0.3935 0.51894 0.51403 0.0
C3624 C 0.36926 0.55097 0.49638 0.0
H3625 H 0.29454 0.56891 0.53466 0.0
H3626 H 0.31647 0.55029 0.52973 0.0
H3627 H 0.35071 0.56598 0.4874 0.0
H3628 H 0.43349 0.55136 0.49876 0.0
H3629 H 0.40605 0.5614 0.50056 0.0
H3630 H 0.37203 0.53622 0.53791 0.0
C3631 C 0.31877 0.56408 0.52595 0.0
C3632 C 0.35519 0.55946 0.49849 0.0
C3633 C 0.30623 0.57473 0.52872 0.0
C3634 C 0.42247 0.54221 0.50315 0.0
C3635 C 0.40672 0.54784 0.50396 0.0
C3636 C 0.36722 0.54235 0.52667 0.0
C3637 C 0.33394 0.57107 0.51802 0.0
C3638 C 0.34733 0.56 0.51495 0.0
C3639 C 0.3921 0.53628 0.50941 0.0
C3640 C 0.37569 0.5428 0.51065 0.0
H3641 H 0.32639 0.61332 0.51202 0.0
H3642 H 0.34826 0.59488 0.50742 0.0
H3643 H 0.34735 0.55121 0.54168 0.0
H3644 H 0.41015 0.49977 0.51667 0.0
H3645 H 0.38237 0.5098 0.51825 0.0
C3646 C 0.8672 0.93261 0.54209 0.0
C3647 C 0.85584 0.93103 0.52583 0.0
C3648 C 0.88521 0.94085 0.54303 0.0
C3649 C 0.91606 0.9716 0.51836 0.0
H3650 H 0.95223 0.95775 0.54879 0.0
C3651 C 0.9894 0.99775 0.5128 0.0
C3652 C 0.99904 0.00873 0.52927 0.0
C3653 C 0.9727 0.98645 0.51304 0.0
C3654 C 0.94221 0.96171 0.54026 0.0
H3655 H 0.8545 0.93562 0.49747 0.0
H3656 H 0.88574 0.94884 0.49866 0.0
H3657 H 0.92138 0.94126 0.5476 0.0
H3658 H 0.9994 0.01555 0.55903 0.0
H3659 H 0.97021 0.99531 0.55948 0.0
H3660 H 0.93697 0.99158 0.51061 0.0
C3661 C 0.88086 0.94475 0.51108 0.0
C3662 C 0.92452 0.95238 0.53965 0.0
C3663 C 0.8629 0.93699 0.51031 0.0
C3664 C 0.99216 0.0073 0.54614 0.0
C3665 C 0.97555 0.9957 0.54641 0.0
C3666 C 0.93368 0.98057 0.51869 0.0
C3667 C 0.89225 0.9473 0.52758 0.0
C3668 C 0.91118 0.95716 0.5286 0.0
C3669 C 0.96548 0.98562 0.52979 0.0
C3670 C 0.94691 0.9757 0.52958 0.0
H3671 H 0.86206 0.92813 0.55426 0.0
H3672 H 0.89346 0.94265 0.55603 0.0
H3673 H 0.90626 0.97621 0.51017 0.0
H3674 H 0.99441 0.99852 0.49961 0.0
H3675 H 0.9652 0.97871 0.50007 0.0
C3676 C 0.89671 0.12785 0.2624 0.0
C3677 C 0.88737 0.10887 0.25646 0.0
C3678 C 0.88825 0.14319 0.26313 0.0
C3679 C 0.84433 0.15597 0.24778 0.0
H3680 H 0.86529 0.20341 0.28029 0.0
C3681 C 0.8061 0.21765 0.25684 0.0
C3682 C 0.81521 0.23679 0.26201 0.0
C3683 C 0.81485 0.20259 0.25625 0.0
C3684 C 0.85911 0.19045 0.27087 0.0
H3685 H 0.86108 0.09202 0.2467 0.0
H3686 H 0.84649 0.11813 0.24817 0.0
H3687 H 0.87984 0.17741 0.27923 0.0
H3688 H 0.84148 0.25423 0.27064 0.0
H3689 H 0.85659 0.22842 0.26956 0.0
H3690 H 0.82361 0.16898 0.23944 0.0
C3691 C 0.86057 0.12148 0.25207 0.0
C3692 C 0.86766 0.17517 0.27023 0.0
C3693 C 0.86905 0.10616 0.25133 0.0
C3694 C 0.83367 0.23994 0.26662 0.0
C3695 C 0.84245 0.22484 0.26608 0.0
C3696 C 0.83578 0.17121 0.24845 0.0
C3697 C 0.86986 0.14057 0.25797 0.0
C3698 C 0.86056 0.15735 0.25868 0.0
C3699 C 0.83335 0.20561 0.26081 0.0
C3700 C 0.84284 0.189 0.26004 0.0
H3701 H 0.91078 0.13096 0.26645 0.0
H3702 H 0.8964 0.15724 0.26754 0.0
H3703 H 0.83814 0.14306 0.2383 0.0
H3704 H 0.79197 0.21416 0.25317 0.0
H3705 H 0.80685 0.1884 0.25238 0.0
C3706 C 0.70951 0.11631 1.00025 0.0
C3707 C 0.72019 0.13164 0.01274 0.0
C3708 C 0.69146 0.11474 0.997 0.0
C3709 C 0.65668 0.12335 0.0218 0.0
H3710 H 0.6283 0.10596 0.97394 0.0
C3711 C 0.58557 0.08312 0.01788 0.0
C3712 C 0.58114 0.06654 0.00457 0.0
C3713 C 0.60027 0.09722 0.01686 0.0
C3714 C 0.63601 0.11082 0.98742 0.0
H3715 H 0.72064 0.1577 0.03117 0.0
H3716 H 0.68875 0.15448 0.02602 0.0
H3717 H 0.65972 0.11992 0.97554 0.0
H3718 H 0.58784 0.05197 0.97927 0.0
H3719 H 0.61402 0.07597 0.978 0.0
H3720 H 0.63368 0.11271 0.03377 0.0
C3721 C 0.69448 0.14394 0.01853 0.0
C3722 C 0.65392 0.11895 0.98829 0.0
C3723 C 0.71263 0.1457 0.02151 0.0
C3724 C 0.59107 0.06462 0.98975 0.0
C3725 C 0.60597 0.07853 0.98893 0.0
C3726 C 0.63887 0.11493 0.02093 0.0
C3727 C 0.68377 0.12831 0.00642 0.0
C3728 C 0.66448 0.12453 0.00547 0.0
C3729 C 0.61101 0.09481 1.00274 0.0
C3730 C 0.62851 0.10776 1.00369 0.0
H3731 H 0.71507 0.10538 0.9932 0.0
H3732 H 0.6834 0.10241 0.98782 0.0
H3733 H 0.66463 0.12743 0.0352 0.0
H3734 H 0.57781 0.0851 0.02921 0.0
H3735 H 0.60351 0.10976 0.02747 0.0
C3736 C 0.2068 0.49918 0.26822 0.0
C3737 C 0.18889 0.49005 0.26438 0.0
C3738 C 0.21909 0.48992 0.27476 0.0
C3739 C 0.22402 0.44731 0.29363 0.0
H3740 H 0.26577 0.45293 0.26836 0.0
C3741 C 0.26544 0.39201 0.28381 0.0
C3742 C 0.28376 0.39814 0.2844 0.0
C3743 C 0.25488 0.40495 0.28551 0.0
C3744 C 0.25438 0.45146 0.27583 0.0
H3745 H 0.16966 0.46439 0.26513 0.0
H3746 H 0.19119 0.44797 0.27605 0.0
H3747 H 0.24521 0.47248 0.26376 0.0
H3748 H 0.3055 0.42259 0.28804 0.0
H3749 H 0.28699 0.44532 0.29104 0.0
H3750 H 0.23298 0.42564 0.30506 0.0
C3751 C 0.19573 0.46241 0.27434 0.0
C3752 C 0.24257 0.46269 0.27322 0.0
C3753 C 0.18339 0.47176 0.26796 0.0
C3754 C 0.29141 0.4175 0.28753 0.0
C3755 C 0.28082 0.43047 0.28913 0.0
C3756 C 0.23583 0.43598 0.29617 0.0
C3757 C 0.21378 0.47124 0.27741 0.0
C3758 C 0.22709 0.46055 0.28182 0.0
C3759 C 0.26242 0.4243 0.28778 0.0
C3760 C 0.25097 0.43773 0.28704 0.0
H3761 H 0.21139 0.51338 0.26583 0.0
H3762 H 0.23283 0.49728 0.27736 0.0
H3763 H 0.21237 0.44551 0.30069 0.0
H3764 H 0.25923 0.37716 0.28168 0.0
H3765 H 0.24074 0.39975 0.28425 0.0
C3766 C 0.25754 0.43586 0.042 0.0
C3767 C 0.25507 0.41624 0.03771 0.0
C3768 C 0.24313 0.4441 0.04209 0.0
C3769 C 0.19636 0.43564 0.02367 0.0
H3770 H 0.19733 0.47849 0.06185 0.0
C3771 C 0.13794 0.47226 0.03064 0.0
C3772 C 0.14244 0.49201 0.0351 0.0
C3773 C 0.15103 0.46204 0.03086 0.0
C3774 C 0.19691 0.46665 0.05099 0.0
H3775 H 0.2355 0.38984 0.03024 0.0
H3776 H 0.21023 0.40428 0.0305 0.0
H3777 H 0.22122 0.46235 0.06287 0.0
H3778 H 0.16427 0.51651 0.04235 0.0
H3779 H 0.18697 0.49878 0.04272 0.0
H3780 H 0.17205 0.4401 0.01172 0.0
C3781 C 0.22337 0.41328 0.03363 0.0
C3782 C 0.21061 0.45738 0.05158 0.0
C3783 C 0.23783 0.40501 0.0336 0.0
C3784 C 0.16032 0.5013 0.03928 0.0
C3785 C 0.17334 0.49113 0.0395 0.0
C3786 C 0.18261 0.44494 0.02307 0.0
C3787 C 0.22586 0.43293 0.03788 0.0
C3788 C 0.21064 0.44193 0.0378 0.0
C3789 C 0.16887 0.47138 0.03555 0.0
C3790 C 0.18287 0.46073 0.03658 0.0
H3791 H 0.27064 0.44492 0.04517 0.0
H3792 H 0.24554 0.45928 0.04515 0.0
H3793 H 0.19606 0.42388 0.01275 0.0
H3794 H 0.12429 0.46469 0.02748 0.0
H3795 H 0.14714 0.44683 0.02785 0.0
C3796 C 0.89459 0.97359 0.25143 0.0
C3797 C 0.88743 0.9895 0.25095 0.0
C3798 C 0.88419 0.95584 0.25266 0.0
C3799 C 0.83869 0.93044 0.26204 0.0
H3800 H 0.8553 0.88619 0.24362 0.0
C3801 C 0.79477 0.85377 0.25548 0.0
C3802 C 0.8025 0.83896 0.25917 0.0
C3803 C 0.80498 0.87186 0.25487 0.0
C3804 C 0.85044 0.89831 0.24907 0.0
H3805 H 0.86292 0.99837 0.25152 0.0
H3806 H 0.84458 0.96732 0.25307 0.0
H3807 H 0.87212 0.91715 0.24108 0.0
H3808 H 0.82765 0.83258 0.26582 0.0
H3809 H 0.84553 0.86381 0.26417 0.0
H3810 H 0.81667 0.91127 0.26947 0.0
C3811 C 0.85857 0.96868 0.25284 0.0
C3812 C 0.86025 0.9164 0.24769 0.0
C3813 C 0.86914 0.9867 0.25183 0.0
C3814 C 0.82105 0.84316 0.26239 0.0
C3815 C 0.83135 0.86131 0.26154 0.0
C3816 C 0.82876 0.91228 0.2632 0.0
C3817 C 0.86584 0.95271 0.25322 0.0
C3818 C 0.85476 0.93304 0.25426 0.0
C3819 C 0.82353 0.87612 0.2578 0.0
C3820 C 0.83442 0.89576 0.25681 0.0
H3821 H 0.90857 0.97482 0.25108 0.0
H3822 H 0.89084 0.94459 0.25348 0.0
H3823 H 0.83379 0.94247 0.26761 0.0
H3824 H 0.78059 0.85139 0.25296 0.0
H3825 H 0.7982 0.88248 0.25175 0.0
C3826 C 0.69115 0.08661 0.74111 0.0
C3827 C 0.67394 0.08334 0.7321 0.0
C3828 C 0.70182 0.10475 0.74549 0.0
C3829 C 0.72464 0.14242 0.74235 0.0
H3830 H 0.70558 0.18441 0.76257 0.0
C3831 C 0.75828 0.21855 0.74141 0.0
C3832 C 0.7596 0.23212 0.75743 0.0
C3833 C 0.74837 0.20034 0.74028 0.0
C3834 C 0.7111 0.17277 0.75716 0.0
H3835 H 0.65452 0.09657 0.72045 0.0
H3836 H 0.67334 0.12835 0.72797 0.0
H3837 H 0.68682 0.1525 0.75628 0.0
H3838 H 0.75161 0.23726 0.7849 0.0
H3839 H 0.7339 0.20511 0.78277 0.0
H3840 H 0.74882 0.16262 0.74301 0.0
C3841 C 0.67842 0.11682 0.73181 0.0
C3842 C 0.70034 0.15458 0.75334 0.0
C3843 C 0.66773 0.09861 0.72732 0.0
C3844 C 0.75083 0.22706 0.77239 0.0
C3845 C 0.74067 0.20875 0.77116 0.0
C3846 C 0.73533 0.16055 0.74605 0.0
C3847 C 0.69554 0.12005 0.74102 0.0
C3848 C 0.70697 0.13927 0.7457 0.0
C3849 C 0.73943 0.19525 0.75507 0.0
C3850 C 0.72859 0.17592 0.75323 0.0
H3851 H 0.69635 0.07518 0.74503 0.0
H3852 H 0.71492 0.10684 0.7527 0.0
H3853 H 0.73009 0.13091 0.73639 0.0
H3854 H 0.76492 0.22195 0.72964 0.0
H3855 H 0.74745 0.19028 0.72763 0.0
loop_
_geom_bond_atom_site_label_1
_geom_bond_atom_site_label_2
_geom_bond_distance
_geom_bond_site_symmetry_2
_ccdc_geom_bond_type
C0 O1 1.306 . S
C0 O3 1.160 . S
O1 C0 1.306 . S
O1 Cd2 2.228 . S
Cd2 O1 2.228 . S
Cd2 O6 2.273 . S
Cd2 O10 2.277 . S
O3 C0 1.160 . S
O3 Cd4 2.203 . S
Cd4 O3 2.203 . S
Cd4 O6 2.411 . S
Cd4 O7 2.333 . S
Cd4 O8 2.352 . S
Cd4 O12 2.277 . S
Cd4 O13 2.356 . S
C5 O10 1.209 . S
C5 O12 1.226 . S
O6 Cd2 2.273 . S
O6 Cd4 2.411 . S
O6 C9 1.320 . S
O7 Cd4 2.333 . S
O7 C9 1.214 . S
O8 Cd4 2.352 . S
O8 C11 1.258 . S
C9 O6 1.320 . S
C9 O7 1.214 . S
O10 Cd2 2.277 . S
O10 C5 1.209 . S
C11 O8 1.258 . S
C11 O13 1.282 . S
O12 Cd4 2.277 . S
O12 C5 1.226 . S
O13 Cd4 2.356 . S
O13 C11 1.282 . S
C14 O15 1.306 . S
C14 O17 1.160 . S
O15 C14 1.306 . S
O15 Cd16 2.228 1_655 S
Cd16 O15 2.228 1_455 S
Cd16 O20 2.273 . S
Cd16 O24 2.277 1_455 S
O17 C14 1.160 . S
O17 Cd18 2.148 1_655 S
Cd18 O17 2.148 1_455 S
Cd18 O20 2.438 . S
Cd18 O21 2.389 . S
Cd18 O22 2.343 . S
Cd18 O26 2.281 1_455 S
Cd18 O27 2.360 . S
C19 O24 1.209 . S
C19 O26 1.226 . S
O20 Cd16 2.273 . S
O20 Cd18 2.438 . S
O20 C23 1.320 . S
O21 Cd18 2.389 . S
O21 C23 1.214 . S
O22 Cd18 2.343 . S
O22 C25 1.258 . S
C23 O20 1.320 . S
C23 O21 1.214 . S
O24 Cd16 2.277 1_655 S
O24 C19 1.209 . S
C25 O22 1.258 . S
C25 O27 1.282 . S
O26 Cd18 2.281 1_655 S
O26 C19 1.226 . S
O27 Cd18 2.360 . S
O27 C25 1.282 . S
C28 O29 1.306 . S
C28 O31 1.160 . S
O29 C28 1.306 . S
O29 Cd30 2.228 . S
Cd30 O29 2.228 . S
Cd30 O34 2.273 . S
Cd30 O38 2.277 . S
O31 C28 1.160 . S
O31 Cd32 2.203 . S
Cd32 O31 2.203 . S
Cd32 O34 2.411 . S
Cd32 O35 2.333 . S
Cd32 O36 2.352 . S
Cd32 O40 2.277 . S
Cd32 O41 2.356 . S
C33 O38 1.209 . S
C33 O40 1.226 . S
O34 Cd30 2.273 . S
O34 Cd32 2.411 . S
O34 C37 1.320 . S
O35 Cd32 2.333 . S
O35 C37 1.214 . S
O36 Cd32 2.352 . S
O36 C39 1.258 . S
C37 O34 1.320 . S
C37 O35 1.214 . S
O38 Cd30 2.277 . S
O38 C33 1.209 . S
C39 O36 1.258 . S
C39 O41 1.282 . S
O40 Cd32 2.277 . S
O40 C33 1.226 . S
O41 Cd32 2.356 . S
O41 C39 1.282 . S
C42 O43 1.306 . S
C42 O45 1.160 . S
O43 C42 1.306 . S
O43 Cd44 2.228 . S
Cd44 O43 2.228 . S
Cd44 O48 2.273 . S
Cd44 O52 2.277 . S
O45 C42 1.160 . S
O45 Cd46 2.203 . S
Cd46 O45 2.203 . S
Cd46 O48 2.411 . S
Cd46 O49 2.333 . S
Cd46 O50 2.352 . S
Cd46 O54 2.277 . S
Cd46 O55 2.356 . S
C47 O52 1.209 . S
C47 O54 1.226 . S
O48 Cd44 2.273 . S
O48 Cd46 2.411 . S
O48 C51 1.320 . S
O49 Cd46 2.333 . S
O49 C51 1.214 . S
O50 Cd46 2.352 . S
O50 C53 1.258 . S
C51 O48 1.320 . S
C51 O49 1.214 . S
O52 Cd44 2.277 . S
O52 C47 1.209 . S
C53 O50 1.258 . S
C53 O55 1.282 . S
O54 Cd46 2.277 . S
O54 C47 1.226 . S
O55 Cd46 2.356 . S
O55 C53 1.282 . S
C56 O57 1.306 . S
C56 O59 1.160 . S
O57 C56 1.306 . S
O57 Cd58 2.228 . S
Cd58 O57 2.228 . S
Cd58 O62 2.273 . S
Cd58 O66 2.277 . S
O59 C56 1.160 . S
O59 Cd60 2.203 . S
Cd60 O59 2.203 . S
Cd60 O62 2.411 . S
Cd60 O63 2.333 . S
Cd60 O64 2.352 . S
Cd60 O68 2.277 . S
Cd60 O69 2.356 . S
C61 O66 1.209 . S
C61 O68 1.226 . S
O62 Cd58 2.273 . S
O62 Cd60 2.411 . S
O62 C65 1.320 . S
O63 Cd60 2.333 . S
O63 C65 1.214 . S
O64 Cd60 2.352 . S
O64 C67 1.258 . S
C65 O62 1.320 . S
C65 O63 1.214 . S
O66 Cd58 2.277 . S
O66 C61 1.209 . S
C67 O64 1.258 . S
C67 O69 1.282 . S
O68 Cd60 2.277 . S
O68 C61 1.226 . S
O69 Cd60 2.356 . S
O69 C67 1.282 . S
C70 O71 1.306 . S
C70 O73 1.160 . S
O71 C70 1.306 . S
O71 Cd72 2.228 . S
Cd72 O71 2.228 . S
Cd72 O76 2.273 . S
Cd72 O80 2.277 . S
O73 C70 1.160 . S
O73 Cd74 2.203 . S
Cd74 O73 2.203 . S
Cd74 O76 2.411 . S
Cd74 O77 2.333 . S
Cd74 O78 2.352 . S
Cd74 O82 2.277 . S
Cd74 O83 2.356 . S
C75 O80 1.209 . S
C75 O82 1.226 . S
O76 Cd72 2.273 . S
O76 Cd74 2.411 . S
O76 C79 1.320 . S
O77 Cd74 2.333 . S
O77 C79 1.214 . S
O78 Cd74 2.352 . S
O78 C81 1.258 . S
C79 O76 1.320 . S
C79 O77 1.214 . S
O80 Cd72 2.277 . S
O80 C75 1.209 . S
C81 O78 1.258 . S
C81 O83 1.282 . S
O82 Cd74 2.277 . S
O82 C75 1.226 . S
O83 Cd74 2.356 . S
O83 C81 1.282 . S
C84 O85 1.306 . S
C84 O87 1.160 . S
O85 C84 1.306 . S
O85 Cd86 2.228 . S
Cd86 O85 2.228 . S
Cd86 O90 2.273 . S
Cd86 O94 2.277 . S
O87 C84 1.160 . S
O87 Cd88 2.203 . S
Cd88 O87 2.203 . S
Cd88 O90 2.411 . S
Cd88 O91 2.333 . S
Cd88 O92 2.352 . S
Cd88 O96 2.277 . S
Cd88 O97 2.356 . S
C89 O94 1.209 . S
C89 O96 1.226 . S
O90 Cd86 2.273 . S
O90 Cd88 2.411 . S
O90 C93 1.320 . S
O91 Cd88 2.333 . S
O91 C93 1.214 . S
O92 Cd88 2.352 . S
O92 C95 1.258 . S
C93 O90 1.320 . S
C93 O91 1.214 . S
O94 Cd86 2.277 . S
O94 C89 1.209 . S
C95 O92 1.258 . S
C95 O97 1.282 . S
O96 Cd88 2.277 . S
O96 C89 1.226 . S
O97 Cd88 2.356 . S
O97 C95 1.282 . S
C98 O99 1.306 . S
C98 O101 1.160 . S
O99 C98 1.306 . S
O99 Cd100 2.228 1_655 S
Cd100 O99 2.228 1_455 S
Cd100 O104 2.273 . S
Cd100 O108 2.277 . S
O101 C98 1.160 . S
O101 Cd102 2.203 1_655 S
Cd102 O101 2.203 1_455 S
Cd102 O104 2.411 . S
Cd102 O105 2.333 . S
Cd102 O106 2.352 . S
Cd102 O110 2.277 . S
Cd102 O111 2.356 . S
C103 O108 1.209 . S
C103 O110 1.226 . S
O104 Cd100 2.273 . S
O104 Cd102 2.411 . S
O104 C107 1.320 . S
O105 Cd102 2.333 . S
O105 C107 1.214 . S
O106 Cd102 2.352 . S
O106 C109 1.258 . S
C107 O104 1.320 . S
C107 O105 1.214 . S
O108 Cd100 2.277 . S
O108 C103 1.209 . S
C109 O106 1.258 . S
C109 O111 1.282 . S
O110 Cd102 2.277 . S
O110 C103 1.226 . S
O111 Cd102 2.356 . S
O111 C109 1.282 . S
C112 O113 1.320 . S
C112 O115 1.160 . S
O113 C112 1.320 . S
O113 Cd114 2.213 1_545 S
Cd114 O113 2.213 1_565 S
Cd114 O118 2.273 1_565 S
Cd114 O122 2.277 . S
O115 C112 1.160 . S
O115 Cd116 2.203 . S
Cd116 O115 2.203 . S
Cd116 O118 2.411 . S
Cd116 O119 2.333 . S
Cd116 O120 2.352 . S
Cd116 O124 2.277 1_545 S
Cd116 O125 2.356 . S
C117 O122 1.209 . S
C117 O124 1.226 . S
O118 Cd114 2.273 1_545 S
O118 Cd116 2.411 . S
O118 C121 1.320 . S
O119 Cd116 2.333 . S
O119 C121 1.214 . S
O120 Cd116 2.352 . S
O120 C123 1.258 . S
C121 O118 1.320 . S
C121 O119 1.214 . S
O122 Cd114 2.277 . S
O122 C117 1.209 . S
C123 O120 1.258 . S
C123 O125 1.282 . S
O124 Cd116 2.277 1_565 S
O124 C117 1.226 . S
O125 Cd116 2.356 . S
O125 C123 1.282 . S
C126 O127 1.306 . S
C126 O129 1.160 . S
O127 C126 1.306 . S
O127 Cd128 2.228 . S
Cd128 O127 2.228 . S
Cd128 O132 2.273 . S
Cd128 O136 2.277 . S
O129 C126 1.160 . S
O129 Cd130 2.203 . S
Cd130 O129 2.203 . S
Cd130 O132 2.411 . S
Cd130 O133 2.333 . S
Cd130 O134 2.352 . S
Cd130 O138 2.277 . S
Cd130 O139 2.356 . S
C131 O136 1.209 . S
C131 O138 1.226 . S
O132 Cd128 2.273 . S
O132 Cd130 2.411 . S
O132 C135 1.320 . S
O133 Cd130 2.333 . S
O133 C135 1.214 . S
O134 Cd130 2.352 . S
O134 C137 1.258 . S
C135 O132 1.320 . S
C135 O133 1.214 . S
O136 Cd128 2.277 . S
O136 C131 1.209 . S
C137 O134 1.258 . S
C137 O139 1.282 . S
O138 Cd130 2.277 . S
O138 C131 1.226 . S
O139 Cd130 2.356 . S
O139 C137 1.282 . S
C140 O141 1.306 . S
C140 O143 1.160 . S
O141 C140 1.306 . S
O141 Cd142 2.228 . S
Cd142 O141 2.228 . S
Cd142 O146 2.273 1_545 S
Cd142 O150 2.277 . S
O143 C140 1.160 . S
O143 Cd144 2.204 1_545 S
Cd144 O143 2.204 1_565 S
Cd144 O146 2.404 . S
Cd144 O147 2.330 . S
Cd144 O148 2.380 . S
Cd144 O152 2.256 1_565 S
Cd144 O153 2.377 . S
C145 O150 1.209 . S
C145 O152 1.226 . S
O146 Cd142 2.273 1_565 S
O146 Cd144 2.404 . S
O146 C149 1.320 . S
O147 Cd144 2.330 . S
O147 C149 1.214 . S
O148 Cd144 2.380 . S
O148 C151 1.258 . S
C149 O146 1.320 . S
C149 O147 1.214 . S
O150 Cd142 2.277 . S
O150 C145 1.209 . S
C151 O148 1.258 . S
C151 O153 1.282 . S
O152 Cd144 2.256 1_545 S
O152 C145 1.226 . S
O153 Cd144 2.377 . S
O153 C151 1.282 . S
C154 O155 1.306 . S
C154 O157 1.160 . S
O155 C154 1.306 . S
O155 Cd156 2.228 1_554 S
Cd156 O155 2.228 1_556 S
Cd156 O160 2.273 1_556 S
Cd156 O164 2.277 . S
O157 C154 1.160 . S
O157 Cd158 2.203 . S
Cd158 O157 2.203 . S
Cd158 O160 2.411 . S
Cd158 O161 2.333 . S
Cd158 O162 2.352 . S
Cd158 O166 2.277 1_554 S
Cd158 O167 2.356 . S
C159 O164 1.209 . S
C159 O166 1.226 . S
O160 Cd156 2.273 1_554 S
O160 Cd158 2.411 . S
O160 C163 1.320 . S
O161 Cd158 2.333 . S
O161 C163 1.214 . S
O162 Cd158 2.352 . S
O162 C165 1.258 . S
C163 O160 1.320 . S
C163 O161 1.214 . S
O164 Cd156 2.277 . S
O164 C159 1.209 . S
C165 O162 1.258 . S
C165 O167 1.282 . S
O166 Cd158 2.277 1_556 S
O166 C159 1.226 . S
O167 Cd158 2.356 . S
O167 C165 1.282 . S
C168 O169 1.306 . S
C168 O171 1.160 . S
O169 C168 1.306 . S
O169 Cd170 2.228 1_554 S
Cd170 O169 2.228 1_556 S
Cd170 O174 2.273 1_556 S
Cd170 O178 2.277 . S
O171 C168 1.160 . S
O171 Cd172 2.203 . S
Cd172 O171 2.203 . S
Cd172 O174 2.411 . S
Cd172 O175 2.333 . S
Cd172 O176 2.352 . S
Cd172 O180 2.277 1_554 S
Cd172 O181 2.356 . S
C173 O178 1.209 . S
C173 O180 1.226 . S
O174 Cd170 2.273 1_554 S
O174 Cd172 2.411 . S
O174 C177 1.320 . S
O175 Cd172 2.333 . S
O175 C177 1.214 . S
O176 Cd172 2.352 . S
O176 C179 1.258 . S
C177 O174 1.320 . S
C177 O175 1.214 . S
O178 Cd170 2.277 . S
O178 C173 1.209 . S
C179 O176 1.258 . S
C179 O181 1.282 . S
O180 Cd172 2.277 1_556 S
O180 C173 1.226 . S
O181 Cd172 2.356 . S
O181 C179 1.282 . S
C182 O183 1.306 . S
C182 O185 1.160 . S
O183 C182 1.306 . S
O183 Cd184 2.228 . S
Cd184 O183 2.228 . S
Cd184 O188 2.273 . S
Cd184 O192 2.277 . S
O185 C182 1.160 . S
O185 Cd186 2.203 . S
Cd186 O185 2.203 . S
Cd186 O188 2.411 . S
Cd186 O189 2.333 . S
Cd186 O190 2.352 1_554 S
Cd186 O194 2.277 . S
Cd186 O195 2.356 1_554 S
C187 O192 1.209 . S
C187 O194 1.226 . S
O188 Cd184 2.273 . S
O188 Cd186 2.411 . S
O188 C191 1.320 . S
O189 Cd186 2.333 . S
O189 C191 1.214 . S
O190 Cd186 2.352 1_556 S
O190 C193 1.258 . S
C191 O188 1.320 . S
C191 O189 1.214 . S
O192 Cd184 2.277 . S
O192 C187 1.209 . S
C193 O190 1.258 . S
C193 O195 1.282 . S
O194 Cd186 2.277 . S
O194 C187 1.226 . S
O195 Cd186 2.356 1_556 S
O195 C193 1.282 . S
C196 O197 1.306 . S
C196 O199 1.160 . S
O197 C196 1.306 . S
O197 Cd198 2.228 . S
Cd198 O197 2.228 . S
Cd198 O202 2.273 . S
Cd198 O206 2.277 . S
O199 C196 1.160 . S
O199 Cd200 2.203 . S
Cd200 O199 2.203 . S
Cd200 O202 2.411 . S
Cd200 O203 2.333 . S
Cd200 O204 2.352 . S
Cd200 O208 2.277 . S
Cd200 O209 2.356 . S
C201 O206 1.209 . S
C201 O208 1.226 . S
O202 Cd198 2.273 . S
O202 Cd200 2.411 . S
O202 C205 1.320 . S
O203 Cd200 2.333 . S
O203 C205 1.214 . S
O204 Cd200 2.352 . S
O204 C207 1.258 . S
C205 O202 1.320 . S
C205 O203 1.214 . S
O206 Cd198 2.277 . S
O206 C201 1.209 . S
C207 O204 1.258 . S
C207 O209 1.282 . S
O208 Cd200 2.277 . S
O208 C201 1.226 . S
O209 Cd200 2.356 . S
O209 C207 1.282 . S
C210 O211 1.306 . S
C210 O213 1.160 . S
O211 C210 1.306 . S
O211 Cd212 2.228 . S
Cd212 O211 2.228 . S
Cd212 O216 2.273 . S
Cd212 O220 2.277 . S
O213 C210 1.160 . S
O213 Cd214 2.203 . S
Cd214 O213 2.203 . S
Cd214 O216 2.411 . S
Cd214 O217 2.333 . S
Cd214 O218 2.352 . S
Cd214 O222 2.277 . S
Cd214 O223 2.356 . S
C215 O220 1.209 . S
C215 O222 1.226 . S
O216 Cd212 2.273 . S
O216 Cd214 2.411 . S
O216 C219 1.320 . S
O217 Cd214 2.333 . S
O217 C219 1.214 . S
O218 Cd214 2.352 . S
O218 C221 1.258 . S
C219 O216 1.320 . S
C219 O217 1.214 . S
O220 Cd212 2.277 . S
O220 C215 1.209 . S
C221 O218 1.258 . S
C221 O223 1.282 . S
O222 Cd214 2.277 . S
O222 C215 1.226 . S
O223 Cd214 2.356 . S
O223 C221 1.282 . S
C224 O225 1.306 . S
C224 O227 1.160 . S
O225 C224 1.306 . S
O225 Cd226 2.228 . S
Cd226 O225 2.228 . S
Cd226 O230 2.273 . S
Cd226 O234 2.277 . S
O227 C224 1.160 . S
O227 Cd228 2.203 . S
Cd228 O227 2.203 . S
Cd228 O230 2.411 . S
Cd228 O231 2.333 . S
Cd228 O232 2.352 . S
Cd228 O236 2.277 . S
Cd228 O237 2.356 . S
C229 O234 1.209 . S
C229 O236 1.226 . S
O230 Cd226 2.273 . S
O230 Cd228 2.411 . S
O230 C233 1.320 . S
O231 Cd228 2.333 . S
O231 C233 1.214 . S
O232 Cd228 2.352 . S
O232 C235 1.258 . S
C233 O230 1.320 . S
C233 O231 1.214 . S
O234 Cd226 2.277 . S
O234 C229 1.209 . S
C235 O232 1.258 . S
C235 O237 1.282 . S
O236 Cd228 2.277 . S
O236 C229 1.226 . S
O237 Cd228 2.356 . S
O237 C235 1.282 . S
C238 O239 1.306 . S
C238 O241 1.160 . S
O239 C238 1.306 . S
O239 Cd240 2.228 . S
Cd240 O239 2.228 . S
Cd240 O244 2.273 . S
Cd240 O248 2.277 . S
O241 C238 1.160 . S
O241 Cd242 2.203 . S
Cd242 O241 2.203 . S
Cd242 O244 2.411 . S
Cd242 O245 2.333 . S
Cd242 O246 2.352 . S
Cd242 O250 2.277 . S
Cd242 O251 2.356 . S
C243 O248 1.209 . S
C243 O250 1.226 . S
O244 Cd240 2.273 . S
O244 Cd242 2.411 . S
O244 C247 1.320 . S
O245 Cd242 2.333 . S
O245 C247 1.214 . S
O246 Cd242 2.352 . S
O246 C249 1.258 . S
C247 O244 1.320 . S
C247 O245 1.214 . S
O248 Cd240 2.277 . S
O248 C243 1.209 . S
C249 O246 1.258 . S
C249 O251 1.282 . S
O250 Cd242 2.277 . S
O250 C243 1.226 . S
O251 Cd242 2.356 . S
O251 C249 1.282 . S
C252 O253 1.306 . S
C252 O255 1.160 . S
O253 C252 1.306 . S
O253 Cd254 2.228 . S
Cd254 O253 2.228 . S
Cd254 O258 2.273 . S
Cd254 O262 2.277 . S
O255 C252 1.160 . S
O255 Cd256 2.203 . S
Cd256 O255 2.203 . S
Cd256 O258 2.411 . S
Cd256 O259 2.333 . S
Cd256 O260 2.352 . S
Cd256 O264 2.277 . S
Cd256 O265 2.356 . S
C257 O262 1.209 . S
C257 O264 1.226 . S
O258 Cd254 2.273 . S
O258 Cd256 2.411 . S
O258 C261 1.320 . S
O259 Cd256 2.333 . S
O259 C261 1.214 . S
O260 Cd256 2.352 . S
O260 C263 1.258 . S
C261 O258 1.320 . S
C261 O259 1.214 . S
O262 Cd254 2.277 . S
O262 C257 1.209 . S
C263 O260 1.258 . S
C263 O265 1.282 . S
O264 Cd256 2.277 . S
O264 C257 1.226 . S
O265 Cd256 2.356 . S
O265 C263 1.282 . S
C266 O267 1.306 . S
C266 O269 1.160 . S
O267 C266 1.306 . S
O267 Cd268 2.228 . S
Cd268 O267 2.228 . S
Cd268 O272 2.273 . S
Cd268 O276 2.277 . S
O269 C266 1.160 . S
O269 Cd270 2.203 . S
Cd270 O269 2.203 . S
Cd270 O272 2.411 . S
Cd270 O273 2.333 . S
Cd270 O274 2.352 . S
Cd270 O278 2.277 . S
Cd270 O279 2.356 . S
C271 O276 1.209 . S
C271 O278 1.226 . S
O272 Cd268 2.273 . S
O272 Cd270 2.411 . S
O272 C275 1.320 . S
O273 Cd270 2.333 . S
O273 C275 1.214 . S
O274 Cd270 2.352 . S
O274 C277 1.258 . S
C275 O272 1.320 . S
C275 O273 1.214 . S
O276 Cd268 2.277 . S
O276 C271 1.209 . S
C277 O274 1.258 . S
C277 O279 1.282 . S
O278 Cd270 2.277 . S
O278 C271 1.226 . S
O279 Cd270 2.356 . S
O279 C277 1.282 . S
C280 O281 1.306 . S
C280 O283 1.160 . S
O281 C280 1.306 . S
O281 Cd282 2.228 . S
Cd282 O281 2.228 . S
Cd282 O286 2.273 . S
Cd282 O290 2.277 . S
O283 C280 1.160 . S
O283 Cd284 2.203 . S
Cd284 O283 2.203 . S
Cd284 O286 2.411 . S
Cd284 O287 2.332 1_554 S
Cd284 O288 2.352 1_554 S
Cd284 O292 2.277 . S
Cd284 O293 2.356 1_554 S
C285 O290 1.209 . S
C285 O292 1.226 . S
O286 Cd282 2.273 . S
O286 Cd284 2.411 . S
O286 C289 1.323 . S
O287 Cd284 2.332 1_556 S
O287 C289 1.209 1_556 S
O288 Cd284 2.352 1_556 S
O288 C291 1.258 . S
C289 O286 1.323 . S
C289 O287 1.209 1_554 S
O290 Cd282 2.277 . S
O290 C285 1.209 . S
C291 O288 1.258 . S
C291 O293 1.282 . S
O292 Cd284 2.277 . S
O292 C285 1.226 . S
O293 Cd284 2.356 1_556 S
O293 C291 1.282 . S
C294 O295 1.306 . S
C294 O297 1.160 . S
O295 C294 1.306 . S
O295 Cd296 2.228 . S
Cd296 O295 2.228 . S
Cd296 O300 2.273 . S
Cd296 O304 2.277 . S
O297 C294 1.160 . S
O297 Cd298 2.203 . S
Cd298 O297 2.203 . S
Cd298 O300 2.411 . S
Cd298 O301 2.333 . S
Cd298 O302 2.352 . S
Cd298 O306 2.277 . S
Cd298 O307 2.356 . S
C299 O304 1.209 . S
C299 O306 1.226 . S
O300 Cd296 2.273 . S
O300 Cd298 2.411 . S
O300 C303 1.320 . S
O301 Cd298 2.333 . S
O301 C303 1.214 . S
O302 Cd298 2.352 . S
O302 C305 1.258 . S
C303 O300 1.320 . S
C303 O301 1.214 . S
O304 Cd296 2.277 . S
O304 C299 1.209 . S
C305 O302 1.258 . S
C305 O307 1.282 . S
O306 Cd298 2.277 . S
O306 C299 1.226 . S
O307 Cd298 2.356 . S
O307 C305 1.282 . S
C308 O309 1.306 . S
C308 O311 1.160 . S
O309 C308 1.306 . S
O309 Cd310 2.228 . S
Cd310 O309 2.228 . S
Cd310 O314 2.273 . S
Cd310 O318 2.277 . S
O311 C308 1.160 . S
O311 Cd312 2.203 . S
Cd312 O311 2.203 . S
Cd312 O314 2.411 . S
Cd312 O315 2.333 . S
Cd312 O316 2.352 . S
Cd312 O320 2.277 . S
Cd312 O321 2.356 . S
C313 O318 1.209 . S
C313 O320 1.226 . S
O314 Cd310 2.273 . S
O314 Cd312 2.411 . S
O314 C317 1.320 . S
O315 Cd312 2.333 . S
O315 C317 1.214 . S
O316 Cd312 2.352 . S
O316 C319 1.258 . S
C317 O314 1.320 . S
C317 O315 1.214 . S
O318 Cd310 2.277 . S
O318 C313 1.209 . S
C319 O316 1.258 . S
C319 O321 1.282 . S
O320 Cd312 2.277 . S
O320 C313 1.226 . S
O321 Cd312 2.356 . S
O321 C319 1.282 . S
C322 O323 1.306 . S
C322 O325 1.160 . S
O323 C322 1.306 . S
O323 Cd324 2.228 . S
Cd324 O323 2.228 . S
Cd324 O328 2.273 . S
Cd324 O332 2.277 . S
O325 C322 1.160 . S
O325 Cd326 2.203 . S
Cd326 O325 2.203 . S
Cd326 O328 2.411 . S
Cd326 O329 2.333 . S
Cd326 O330 2.352 . S
Cd326 O334 2.277 . S
Cd326 O335 2.356 . S
C327 O332 1.209 . S
C327 O334 1.226 . S
O328 Cd324 2.273 . S
O328 Cd326 2.411 . S
O328 C331 1.320 . S
O329 Cd326 2.333 . S
O329 C331 1.214 . S
O330 Cd326 2.352 . S
O330 C333 1.258 . S
C331 O328 1.320 . S
C331 O329 1.214 . S
O332 Cd324 2.277 . S
O332 C327 1.209 . S
C333 O330 1.258 . S
C333 O335 1.282 . S
O334 Cd326 2.277 . S
O334 C327 1.226 . S
O335 Cd326 2.356 . S
O335 C333 1.282 . S
La336 C338 2.929 1_454 S
La336 O356 2.523 1_454 S
La336 O357 2.627 1_455 S
La336 O358 2.558 1_554 S
La336 O359 2.758 1_554 S
La336 O360 2.472 1_554 S
La336 O365 2.479 . S
La336 O367 2.501 1_545 S
La337 C347 2.928 . S
La337 O359 2.482 1_554 S
La337 O361 2.503 . S
La337 O362 2.521 . S
La337 O363 2.628 . S
La337 O364 2.554 . S
La337 O365 2.757 . S
La337 O366 2.470 . S
C338 La336 2.929 1_656 S
C338 C339 1.503 . S
C338 O356 1.261 . S
C338 O357 1.243 1_556 S
C339 C338 1.503 . S
C339 C340 1.394 . S
C339 C344 1.373 1_556 S
C340 C339 1.394 . S
C340 C341 1.380 . S
C340 H368 0.930 . S
C341 C340 1.380 . S
C341 C342 1.376 . S
C341 H369 0.930 . S
C342 C341 1.376 . S
C342 C343 1.370 . S
C343 C342 1.370 . S
C343 C344 1.396 1_556 S
C343 H370 0.929 1_556 S
C344 C339 1.373 1_554 S
C344 C343 1.396 1_554 S
C344 H371 0.929 . S
C345 O358 1.240 . S
C345 O359 1.289 . S
C346 O360 1.258 1_554 S
C346 O361 1.256 . S
C347 La337 2.928 . S
C347 C348 1.503 . S
C347 O362 1.261 . S
C347 O363 1.243 . S
C348 C347 1.503 . S
C348 C349 1.394 . S
C348 C353 1.373 . S
C349 C348 1.394 . S
C349 C350 1.380 . S
C349 H372 0.930 . S
C350 C349 1.380 . S
C350 C351 1.408 . S
C350 H373 0.930 . S
C351 C350 1.408 . S
C351 C352 1.369 1_545 S
C352 C351 1.369 1_565 S
C352 C353 1.396 1_565 S
C352 H374 0.929 . S
C353 C348 1.373 . S
C353 C352 1.396 1_545 S
C353 H375 0.929 1_545 S
C354 O364 1.240 . S
C354 O365 1.289 . S
C355 O366 1.258 1_565 S
C355 O367 1.256 . S
O356 La336 2.523 1_656 S
O356 C338 1.261 . S
O357 La336 2.627 1_655 S
O357 C338 1.243 1_554 S
O358 La336 2.558 1_556 S
O358 C345 1.240 . S
O359 La336 2.758 1_556 S
O359 La337 2.482 1_556 S
O359 C345 1.289 . S
O360 La336 2.472 1_556 S
O360 C346 1.258 1_556 S
O361 La337 2.503 . S
O361 C346 1.256 . S
O362 La337 2.521 . S
O362 C347 1.261 . S
O363 La337 2.628 . S
O363 C347 1.243 . S
O364 La337 2.554 . S
O364 C354 1.240 . S
O365 La336 2.479 . S
O365 La337 2.757 . S
O365 C354 1.289 . S
O366 La337 2.470 . S
O366 C355 1.258 1_545 S
O367 La336 2.501 1_565 S
O367 C355 1.256 . S
H368 C340 0.930 . S
H369 C341 0.930 . S
H370 C343 0.929 1_554 S
H371 C344 0.929 . S
H372 C349 0.930 . S
H373 C350 0.930 . S
H374 C352 0.929 . S
H375 C353 0.929 1_565 S
La376 C378 2.928 . S
La376 O396 2.521 . S
La376 O397 2.628 . S
La376 O398 2.554 . S
La376 O399 2.757 . S
La376 O400 2.470 . S
La376 O405 2.482 . S
La376 O407 2.503 . S
La377 C387 2.928 . S
La377 O399 2.482 . S
La377 O401 2.503 . S
La377 O402 2.521 . S
La377 O403 2.628 . S
La377 O404 2.554 . S
La377 O405 2.757 . S
La377 O406 2.470 . S
C378 La376 2.928 . S
C378 C379 1.503 . S
C378 O396 1.261 . S
C378 O397 1.243 . S
C379 C378 1.503 . S
C379 C380 1.394 . S
C379 C384 1.373 . S
C380 C379 1.394 . S
C380 C381 1.380 . S
C380 H408 0.930 . S
C381 C380 1.380 . S
C381 C382 1.376 . S
C381 H409 0.930 . S
C382 C381 1.376 . S
C382 C383 1.370 . S
C383 C382 1.370 . S
C383 C384 1.396 . S
C383 H410 0.929 . S
C384 C379 1.373 . S
C384 C383 1.396 . S
C384 H411 0.929 . S
C385 O398 1.240 . S
C385 O399 1.289 . S
C386 O400 1.258 . S
C386 O401 1.256 . S
C387 La377 2.928 . S
C387 C388 1.503 . S
C387 O402 1.261 . S
C387 O403 1.243 . S
C388 C387 1.503 . S
C388 C389 1.394 . S
C388 C393 1.373 . S
C389 C388 1.394 . S
C389 C390 1.380 . S
C389 H412 0.930 . S
C390 C389 1.380 . S
C390 C391 1.376 . S
C390 H413 0.930 . S
C391 C390 1.376 . S
C391 C392 1.370 . S
C392 C391 1.370 . S
C392 C393 1.396 . S
C392 H414 0.929 . S
C393 C388 1.373 . S
C393 C392 1.396 . S
C393 H415 0.929 . S
C394 O404 1.240 . S
C394 O405 1.289 . S
C395 O406 1.258 . S
C395 O407 1.256 . S
O396 La376 2.521 . S
O396 C378 1.261 . S
O397 La376 2.628 . S
O397 C378 1.243 . S
O398 La376 2.554 . S
O398 C385 1.240 . S
O399 La376 2.757 . S
O399 La377 2.482 . S
O399 C385 1.289 . S
O400 La376 2.470 . S
O400 C386 1.258 . S
O401 La377 2.503 . S
O401 C386 1.256 . S
O402 La377 2.521 . S
O402 C387 1.261 . S
O403 La377 2.628 . S
O403 C387 1.243 . S
O404 La377 2.554 . S
O404 C394 1.240 . S
O405 La376 2.482 . S
O405 La377 2.757 . S
O405 C394 1.289 . S
O406 La377 2.470 . S
O406 C395 1.258 . S
O407 La376 2.503 . S
O407 C395 1.256 . S
H408 C380 0.930 . S
H409 C381 0.930 . S
H410 C383 0.929 . S
H411 C384 0.929 . S
H412 C389 0.930 . S
H413 C390 0.930 . S
H414 C392 0.929 . S
H415 C393 0.929 . S
La416 C418 2.928 . S
La416 O436 2.521 . S
La416 O437 2.628 . S
La416 O438 2.554 . S
La416 O439 2.757 . S
La416 O440 2.470 1_545 S
La416 O445 2.482 . S
La416 O447 2.503 . S
La417 C427 2.928 . S
La417 O439 2.482 . S
La417 O441 2.503 1_545 S
La417 O442 2.521 . S
La417 O443 2.628 . S
La417 O444 2.554 . S
La417 O445 2.757 . S
La417 O446 2.470 . S
C418 La416 2.928 . S
C418 C419 1.503 1_545 S
C418 O436 1.261 . S
C418 O437 1.243 . S
C419 C418 1.503 1_565 S
C419 C420 1.394 . S
C419 C424 1.373 . S
C420 C419 1.394 . S
C420 C421 1.380 . S
C420 H448 0.930 1_565 S
C421 C420 1.380 . S
C421 C422 1.376 . S
C421 H449 0.930 . S
C422 C421 1.376 . S
C422 C423 1.370 . S
C423 C422 1.370 . S
C423 C424 1.396 . S
C423 H450 0.929 . S
C424 C419 1.373 . S
C424 C423 1.396 . S
C424 H451 0.929 . S
C425 O438 1.240 . S
C425 O439 1.289 . S
C426 O440 1.258 . S
C426 O441 1.256 . S
C427 La417 2.928 . S
C427 C428 1.503 . S
C427 O442 1.261 . S
C427 O443 1.243 . S
C428 C427 1.503 . S
C428 C429 1.394 . S
C428 C433 1.373 . S
C429 C428 1.394 . S
C429 C430 1.380 . S
C429 H452 0.930 . S
C430 C429 1.380 . S
C430 C431 1.376 . S
C430 H453 0.930 . S
C431 C430 1.376 . S
C431 C432 1.370 . S
C432 C431 1.370 . S
C432 C433 1.396 . S
C432 H454 0.929 . S
C433 C428 1.373 . S
C433 C432 1.396 . S
C433 H455 0.929 . S
C434 O444 1.240 . S
C434 O445 1.289 . S
C435 O446 1.258 . S
C435 O447 1.256 . S
O436 La416 2.521 . S
O436 C418 1.261 . S
O437 La416 2.628 . S
O437 C418 1.243 . S
O438 La416 2.554 . S
O438 C425 1.240 . S
O439 La416 2.757 . S
O439 La417 2.482 . S
O439 C425 1.289 . S
O440 La416 2.470 1_565 S
O440 C426 1.258 . S
O441 La417 2.503 1_565 S
O441 C426 1.256 . S
O442 La417 2.521 . S
O442 C427 1.261 . S
O443 La417 2.628 . S
O443 C427 1.243 . S
O444 La417 2.554 . S
O444 C434 1.240 . S
O445 La416 2.482 . S
O445 La417 2.757 . S
O445 C434 1.289 . S
O446 La417 2.470 . S
O446 C435 1.258 . S
O447 La416 2.503 . S
O447 C435 1.256 . S
H448 C420 0.930 1_545 S
H449 C421 0.930 . S
H450 C423 0.929 . S
H451 C424 0.929 . S
H452 C429 0.930 . S
H453 C430 0.930 . S
H454 C432 0.929 . S
H455 C433 0.929 . S
La456 C458 2.928 . S
La456 O476 2.521 . S
La456 O477 2.628 . S
La456 O478 2.554 . S
La456 O479 2.757 . S
La456 O480 2.470 . S
La456 O485 2.482 . S
La456 O487 2.503 . S
La457 C467 2.928 . S
La457 O479 2.482 . S
La457 O481 2.503 . S
La457 O482 2.521 . S
La457 O483 2.628 . S
La457 O484 2.554 . S
La457 O485 2.757 . S
La457 O486 2.470 . S
C458 La456 2.928 . S
C458 C459 1.503 . S
C458 O476 1.261 . S
C458 O477 1.243 . S
C459 C458 1.503 . S
C459 C460 1.394 . S
C459 C464 1.373 . S
C460 C459 1.394 . S
C460 C461 1.380 . S
C460 H488 0.930 . S
C461 C460 1.380 . S
C461 C462 1.376 . S
C461 H489 0.930 . S
C462 C461 1.376 . S
C462 C463 1.370 . S
C463 C462 1.370 . S
C463 C464 1.396 . S
C463 H490 0.929 . S
C464 C459 1.373 . S
C464 C463 1.396 . S
C464 H491 0.929 . S
C465 O478 1.240 . S
C465 O479 1.289 . S
C466 O480 1.258 . S
C466 O481 1.256 . S
C467 La457 2.928 . S
C467 C468 1.503 . S
C467 O482 1.261 . S
C467 O483 1.243 . S
C468 C467 1.503 . S
C468 C469 1.394 . S
C468 C473 1.373 . S
C469 C468 1.394 . S
C469 C470 1.380 . S
C469 H492 0.930 . S
C470 C469 1.380 . S
C470 C471 1.376 . S
C470 H493 0.930 . S
C471 C470 1.376 . S
C471 C472 1.370 . S
C472 C471 1.370 . S
C472 C473 1.396 . S
C472 H494 0.929 . S
C473 C468 1.373 . S
C473 C472 1.396 . S
C473 H495 0.929 . S
C474 O484 1.240 . S
C474 O485 1.289 . S
C475 O486 1.258 . S
C475 O487 1.256 . S
O476 La456 2.521 . S
O476 C458 1.261 . S
O477 La456 2.628 . S
O477 C458 1.243 . S
O478 La456 2.554 . S
O478 C465 1.240 . S
O479 La456 2.757 . S
O479 La457 2.482 . S
O479 C465 1.289 . S
O480 La456 2.470 . S
O480 C466 1.258 . S
O481 La457 2.503 . S
O481 C466 1.256 . S
O482 La457 2.521 . S
O482 C467 1.261 . S
O483 La457 2.628 . S
O483 C467 1.243 . S
O484 La457 2.554 . S
O484 C474 1.240 . S
O485 La456 2.482 . S
O485 La457 2.757 . S
O485 C474 1.289 . S
O486 La457 2.470 . S
O486 C475 1.258 . S
O487 La456 2.503 . S
O487 C475 1.256 . S
H488 C460 0.930 . S
H489 C461 0.930 . S
H490 C463 0.929 . S
H491 C464 0.929 . S
H492 C469 0.930 . S
H493 C470 0.930 . S
H494 C472 0.929 . S
H495 C473 0.929 . S
La496 C498 2.928 . S
La496 O516 2.521 . S
La496 O517 2.628 . S
La496 O518 2.554 . S
La496 O519 2.757 . S
La496 O520 2.470 . S
La496 O525 2.482 . S
La496 O527 2.503 . S
La497 C507 2.928 1_545 S
La497 O519 2.482 . S
La497 O521 2.503 . S
La497 O522 2.521 1_545 S
La497 O523 2.628 1_545 S
La497 O524 2.554 . S
La497 O525 2.757 . S
La497 O526 2.470 . S
C498 La496 2.928 . S
C498 C499 1.503 . S
C498 O516 1.261 . S
C498 O517 1.243 . S
C499 C498 1.503 . S
C499 C500 1.394 . S
C499 C504 1.373 . S
C500 C499 1.394 . S
C500 C501 1.380 . S
C500 H528 0.930 . S
C501 C500 1.380 . S
C501 C502 1.376 . S
C501 H529 0.930 . S
C502 C501 1.376 . S
C502 C503 1.370 . S
C503 C502 1.370 . S
C503 C504 1.396 . S
C503 H530 0.929 . S
C504 C499 1.373 . S
C504 C503 1.396 . S
C504 H531 0.929 . S
C505 O518 1.240 . S
C505 O519 1.289 . S
C506 O520 1.258 . S
C506 O521 1.256 . S
C507 La497 2.928 1_565 S
C507 C508 1.503 . S
C507 O522 1.261 . S
C507 O523 1.243 . S
C508 C507 1.503 . S
C508 C509 1.394 . S
C508 C513 1.373 . S
C509 C508 1.394 . S
C509 C510 1.380 . S
C509 H532 0.930 . S
C510 C509 1.380 . S
C510 C511 1.376 . S
C510 H533 0.930 . S
C511 C510 1.376 . S
C511 C512 1.370 . S
C512 C511 1.370 . S
C512 C513 1.396 . S
C512 H534 0.929 . S
C513 C508 1.373 . S
C513 C512 1.396 . S
C513 H535 0.929 . S
C514 O524 1.240 . S
C514 O525 1.289 . S
C515 O526 1.258 . S
C515 O527 1.256 . S
O516 La496 2.521 . S
O516 C498 1.261 . S
O517 La496 2.628 . S
O517 C498 1.243 . S
O518 La496 2.554 . S
O518 C505 1.240 . S
O519 La496 2.757 . S
O519 La497 2.482 . S
O519 C505 1.289 . S
O520 La496 2.470 . S
O520 C506 1.258 . S
O521 La497 2.503 . S
O521 C506 1.256 . S
O522 La497 2.521 1_565 S
O522 C507 1.261 . S
O523 La497 2.628 1_565 S
O523 C507 1.243 . S
O524 La497 2.554 . S
O524 C514 1.240 . S
O525 La496 2.482 . S
O525 La497 2.757 . S
O525 C514 1.289 . S
O526 La497 2.470 . S
O526 C515 1.258 . S
O527 La496 2.503 . S
O527 C515 1.256 . S
H528 C500 0.930 . S
H529 C501 0.930 . S
H530 C503 0.929 . S
H531 C504 0.929 . S
H532 C509 0.930 . S
H533 C510 0.930 . S
H534 C512 0.929 . S
H535 C513 0.929 . S
La536 C538 2.928 . S
La536 O556 2.521 . S
La536 O557 2.628 . S
La536 O558 2.554 . S
La536 O559 2.757 . S
La536 O560 2.470 . S
La536 O565 2.482 . S
La536 O567 2.503 . S
La537 C547 2.928 . S
La537 O559 2.482 . S
La537 O561 2.503 . S
La537 O562 2.521 . S
La537 O563 2.628 . S
La537 O564 2.554 . S
La537 O565 2.757 . S
La537 O566 2.470 . S
C538 La536 2.928 . S
C538 C539 1.503 . S
C538 O556 1.261 . S
C538 O557 1.243 . S
C539 C538 1.503 . S
C539 C540 1.394 . S
C539 C544 1.373 . S
C540 C539 1.394 . S
C540 C541 1.380 . S
C540 H568 0.930 . S
C541 C540 1.380 . S
C541 C542 1.376 . S
C541 H569 0.930 . S
C542 C541 1.376 . S
C542 C543 1.370 . S
C543 C542 1.370 . S
C543 C544 1.396 . S
C543 H570 0.929 . S
C544 C539 1.373 . S
C544 C543 1.396 . S
C544 H571 0.929 . S
C545 O558 1.240 . S
C545 O559 1.289 . S
C546 O560 1.258 . S
C546 O561 1.256 . S
C547 La537 2.928 . S
C547 C548 1.503 . S
C547 O562 1.261 . S
C547 O563 1.243 . S
C548 C547 1.503 . S
C548 C549 1.394 . S
C548 C553 1.373 . S
C549 C548 1.394 . S
C549 C550 1.380 . S
C549 H572 0.930 . S
C550 C549 1.380 . S
C550 C551 1.376 . S
C550 H573 0.930 . S
C551 C550 1.376 . S
C551 C552 1.370 . S
C552 C551 1.370 . S
C552 C553 1.396 . S
C552 H574 0.929 . S
C553 C548 1.373 . S
C553 C552 1.396 . S
C553 H575 0.929 . S
C554 O564 1.240 . S
C554 O565 1.289 . S
C555 O566 1.258 . S
C555 O567 1.256 . S
O556 La536 2.521 . S
O556 C538 1.261 . S
O557 La536 2.628 . S
O557 C538 1.243 . S
O558 La536 2.554 . S
O558 C545 1.240 . S
O559 La536 2.757 . S
O559 La537 2.482 . S
O559 C545 1.289 . S
O560 La536 2.470 . S
O560 C546 1.258 . S
O561 La537 2.503 . S
O561 C546 1.256 . S
O562 La537 2.521 . S
O562 C547 1.261 . S
O563 La537 2.628 . S
O563 C547 1.243 . S
O564 La537 2.554 . S
O564 C554 1.240 . S
O565 La536 2.482 . S
O565 La537 2.757 . S
O565 C554 1.289 . S
O566 La537 2.470 . S
O566 C555 1.258 . S
O567 La536 2.503 . S
O567 C555 1.256 . S
H568 C540 0.930 . S
H569 C541 0.930 . S
H570 C543 0.929 . S
H571 C544 0.929 . S
H572 C549 0.930 . S
H573 C550 0.930 . S
H574 C552 0.929 . S
H575 C553 0.929 . S
La576 C578 2.928 . S
La576 O596 2.521 . S
La576 O597 2.628 . S
La576 O598 2.554 1_545 S
La576 O599 2.757 1_554 S
La576 O600 2.470 . S
La576 O605 2.482 . S
La576 O607 2.503 . S
La577 C587 2.928 . S
La577 O599 2.482 . S
La577 O601 2.503 . S
La577 O602 2.521 . S
La577 O603 2.628 . S
La577 O604 2.554 1_556 S
La577 O605 2.757 1_556 S
La577 O606 2.491 . S
C578 La576 2.928 . S
C578 C579 1.503 . S
C578 O596 1.261 . S
C578 O597 1.243 . S
C579 C578 1.503 . S
C579 C580 1.394 1_545 S
C579 C584 1.373 . S
C580 C579 1.394 1_565 S
C580 C581 1.380 . S
C580 H608 0.930 . S
C581 C580 1.380 . S
C581 C582 1.376 . S
C581 H609 0.930 . S
C582 C581 1.376 . S
C582 C583 1.370 1_565 S
C583 C582 1.370 1_545 S
C583 C584 1.396 . S
C583 H610 0.929 . S
C584 C579 1.373 . S
C584 C583 1.396 . S
C584 H611 0.929 . S
C585 O598 1.235 . S
C585 O599 1.291 1_564 S
C586 O600 1.258 . S
C586 O601 1.256 1_554 S
C587 La577 2.928 . S
C587 C588 1.503 . S
C587 O602 1.261 . S
C587 O603 1.243 . S
C588 C587 1.503 . S
C588 C589 1.394 . S
C588 C593 1.373 . S
C589 C588 1.394 . S
C589 C590 1.380 . S
C589 H612 0.930 . S
C590 C589 1.380 . S
C590 C591 1.376 . S
C590 H613 0.930 . S
C591 C590 1.376 . S
C591 C592 1.370 . S
C592 C591 1.370 . S
C592 C593 1.396 . S
C592 H614 0.929 . S
C593 C588 1.373 . S
C593 C592 1.396 . S
C593 H615 0.929 . S
C594 O604 1.240 . S
C594 O605 1.289 . S
C595 O606 1.221 1_554 S
C595 O607 1.256 . S
O596 La576 2.521 . S
O596 C578 1.261 . S
O597 La576 2.628 . S
O597 C578 1.243 . S
O598 La576 2.554 1_565 S
O598 C585 1.235 . S
O599 La576 2.757 1_556 S
O599 La577 2.482 . S
O599 C585 1.291 1_546 S
O600 La576 2.470 . S
O600 C586 1.258 . S
O601 La577 2.503 . S
O601 C586 1.256 1_556 S
O602 La577 2.521 . S
O602 C587 1.261 . S
O603 La577 2.628 . S
O603 C587 1.243 . S
O604 La577 2.554 1_554 S
O604 C594 1.240 . S
O605 La576 2.482 . S
O605 La577 2.757 1_554 S
O605 C594 1.289 . S
O606 La577 2.491 . S
O606 C595 1.221 1_556 S
O607 La576 2.503 . S
O607 C595 1.256 . S
H608 C580 0.930 . S
H609 C581 0.930 . S
H610 C583 0.929 . S
H611 C584 0.929 . S
H612 C589 0.930 . S
H613 C590 0.930 . S
H614 C592 0.929 . S
H615 C593 0.929 . S
La616 C618 2.928 . S
La616 O636 2.521 . S
La616 O637 2.628 . S
La616 O638 2.554 . S
La616 O639 2.757 . S
La616 O640 2.470 . S
La616 O645 2.482 . S
La616 O647 2.503 . S
La617 C627 2.928 . S
La617 O639 2.482 . S
La617 O641 2.503 . S
La617 O642 2.521 . S
La617 O643 2.628 . S
La617 O644 2.554 . S
La617 O645 2.757 . S
La617 O646 2.470 . S
C618 La616 2.928 . S
C618 C619 1.503 . S
C618 O636 1.261 . S
C618 O637 1.243 . S
C619 C618 1.503 . S
C619 C620 1.394 . S
C619 C624 1.373 . S
C620 C619 1.394 . S
C620 C621 1.380 . S
C620 H648 0.930 . S
C621 C620 1.380 . S
C621 C622 1.376 . S
C621 H649 0.930 . S
C622 C621 1.376 . S
C622 C623 1.370 . S
C623 C622 1.370 . S
C623 C624 1.396 . S
C623 H650 0.929 . S
C624 C619 1.373 . S
C624 C623 1.396 . S
C624 H651 0.929 . S
C625 O638 1.240 . S
C625 O639 1.289 . S
C626 O640 1.258 . S
C626 O641 1.256 . S
C627 La617 2.928 . S
C627 C628 1.503 . S
C627 O642 1.261 . S
C627 O643 1.243 . S
C628 C627 1.503 . S
C628 C629 1.394 . S
C628 C633 1.373 . S
C629 C628 1.394 . S
C629 C630 1.380 . S
C629 H652 0.930 . S
C630 C629 1.380 . S
C630 C631 1.376 . S
C630 H653 0.930 . S
C631 C630 1.376 . S
C631 C632 1.370 . S
C632 C631 1.370 . S
C632 C633 1.396 . S
C632 H654 0.929 . S
C633 C628 1.373 . S
C633 C632 1.396 . S
C633 H655 0.929 . S
C634 O644 1.240 . S
C634 O645 1.289 . S
C635 O646 1.258 . S
C635 O647 1.256 . S
O636 La616 2.521 . S
O636 C618 1.261 . S
O637 La616 2.628 . S
O637 C618 1.243 . S
O638 La616 2.554 . S
O638 C625 1.240 . S
O639 La616 2.757 . S
O639 La617 2.482 . S
O639 C625 1.289 . S
O640 La616 2.470 . S
O640 C626 1.258 . S
O641 La617 2.503 . S
O641 C626 1.256 . S
O642 La617 2.521 . S
O642 C627 1.261 . S
O643 La617 2.628 . S
O643 C627 1.243 . S
O644 La617 2.554 . S
O644 C634 1.240 . S
O645 La616 2.482 . S
O645 La617 2.757 . S
O645 C634 1.289 . S
O646 La617 2.470 . S
O646 C635 1.258 . S
O647 La616 2.503 . S
O647 C635 1.256 . S
H648 C620 0.930 . S
H649 C621 0.930 . S
H650 C623 0.929 . S
H651 C624 0.929 . S
H652 C629 0.930 . S
H653 C630 0.930 . S
H654 C632 0.929 . S
H655 C633 0.929 . S
La656 C658 2.928 1_554 S
La656 O676 2.521 . S
La656 O677 2.628 1_554 S
La656 O678 2.554 . S
La656 O679 2.757 . S
La656 O680 2.470 1_554 S
La656 O685 2.482 . S
La656 O687 2.503 . S
La657 C667 2.950 . S
La657 O679 2.496 . S
La657 O681 2.473 1_554 S
La657 O682 2.533 . S
La657 O683 2.654 . S
La657 O684 2.553 . S
La657 O685 2.753 . S
La657 O686 2.502 . S
C658 La656 2.928 1_556 S
C658 C659 1.503 . S
C658 O676 1.261 1_556 S
C658 O677 1.243 . S
C659 C658 1.503 . S
C659 C660 1.394 . S
C659 C664 1.373 . S
C660 C659 1.394 . S
C660 C661 1.380 . S
C660 H688 0.906 1_556 S
C661 C660 1.380 . S
C661 C662 1.376 . S
C661 H689 0.930 . S
C662 C661 1.376 . S
C662 C663 1.370 . S
C663 C662 1.370 . S
C663 C664 1.396 . S
C663 H690 0.929 . S
C664 C659 1.373 . S
C664 C663 1.396 . S
C664 H691 0.929 . S
C665 O678 1.240 . S
C665 O679 1.289 . S
C666 O680 1.258 . S
C666 O681 1.256 . S
C667 La657 2.950 . S
C667 C668 1.503 . S
C667 O682 1.261 . S
C667 O683 1.243 . S
C668 C667 1.503 . S
C668 C669 1.394 . S
C668 C673 1.373 . S
C669 C668 1.394 . S
C669 C670 1.380 . S
C669 H692 0.930 . S
C670 C669 1.380 . S
C670 C671 1.376 . S
C670 H693 0.930 . S
C671 C670 1.376 . S
C671 C672 1.370 . S
C672 C671 1.370 . S
C672 C673 1.396 . S
C672 H694 0.929 . S
C673 C668 1.373 . S
C673 C672 1.396 . S
C673 H695 0.929 . S
C674 O684 1.240 . S
C674 O685 1.289 . S
C675 O686 1.258 . S
C675 O687 1.256 . S
O676 La656 2.521 . S
O676 C658 1.261 1_554 S
O677 La656 2.628 1_556 S
O677 C658 1.243 . S
O678 La656 2.554 . S
O678 C665 1.240 . S
O679 La656 2.757 . S
O679 La657 2.496 . S
O679 C665 1.289 . S
O680 La656 2.470 1_556 S
O680 C666 1.258 . S
O681 La657 2.473 1_556 S
O681 C666 1.256 . S
O682 La657 2.533 . S
O682 C667 1.261 . S
O683 La657 2.654 . S
O683 C667 1.243 . S
O684 La657 2.553 . S
O684 C674 1.240 . S
O685 La656 2.482 . S
O685 La657 2.753 . S
O685 C674 1.289 . S
O686 La657 2.502 . S
O686 C675 1.258 . S
O687 La656 2.503 . S
O687 C675 1.256 . S
H688 C660 0.906 1_554 S
H689 C661 0.930 . S
H690 C663 0.929 . S
H691 C664 0.929 . S
H692 C669 0.930 . S
H693 C670 0.930 . S
H694 C672 0.929 . S
H695 C673 0.929 . S
La696 C698 2.928 . S
La696 O716 2.521 . S
La696 O717 2.628 . S
La696 O718 2.554 . S
La696 O719 2.757 . S
La696 O720 2.470 . S
La696 O725 2.482 . S
La696 O727 2.503 . S
La697 C707 2.928 . S
La697 O719 2.482 . S
La697 O721 2.503 . S
La697 O722 2.521 . S
La697 O723 2.628 . S
La697 O724 2.554 . S
La697 O725 2.757 . S
La697 O726 2.470 . S
C698 La696 2.928 . S
C698 C699 1.503 . S
C698 O716 1.261 . S
C698 O717 1.243 . S
C699 C698 1.503 . S
C699 C700 1.394 . S
C699 C704 1.373 . S
C700 C699 1.394 . S
C700 C701 1.380 . S
C700 H728 0.930 . S
C701 C700 1.380 . S
C701 C702 1.376 . S
C701 H729 0.930 . S
C702 C701 1.376 . S
C702 C703 1.370 . S
C703 C702 1.370 . S
C703 C704 1.396 . S
C703 H730 0.929 . S
C704 C699 1.373 . S
C704 C703 1.396 . S
C704 H731 0.929 . S
C705 O718 1.240 . S
C705 O719 1.289 . S
C706 O720 1.258 . S
C706 O721 1.256 . S
C707 La697 2.928 . S
C707 C708 1.503 . S
C707 O722 1.261 . S
C707 O723 1.243 . S
C708 C707 1.503 . S
C708 C709 1.394 . S
C708 C713 1.373 . S
C709 C708 1.394 . S
C709 C710 1.380 . S
C709 H732 0.930 . S
C710 C709 1.380 . S
C710 C711 1.376 . S
C710 H733 0.930 . S
C711 C710 1.376 . S
C711 C712 1.370 . S
C712 C711 1.370 . S
C712 C713 1.396 . S
C712 H734 0.929 . S
C713 C708 1.373 . S
C713 C712 1.396 . S
C713 H735 0.929 . S
C714 O724 1.240 . S
C714 O725 1.289 . S
C715 O726 1.258 . S
C715 O727 1.256 . S
O716 La696 2.521 . S
O716 C698 1.261 . S
O717 La696 2.628 . S
O717 C698 1.243 . S
O718 La696 2.554 . S
O718 C705 1.240 . S
O719 La696 2.757 . S
O719 La697 2.482 . S
O719 C705 1.289 . S
O720 La696 2.470 . S
O720 C706 1.258 . S
O721 La697 2.503 . S
O721 C706 1.256 . S
O722 La697 2.521 . S
O722 C707 1.261 . S
O723 La697 2.628 . S
O723 C707 1.243 . S
O724 La697 2.554 . S
O724 C714 1.240 . S
O725 La696 2.482 . S
O725 La697 2.757 . S
O725 C714 1.289 . S
O726 La697 2.470 . S
O726 C715 1.258 . S
O727 La696 2.503 . S
O727 C715 1.256 . S
H728 C700 0.930 . S
H729 C701 0.930 . S
H730 C703 0.929 . S
H731 C704 0.929 . S
H732 C709 0.930 . S
H733 C710 0.930 . S
H734 C712 0.929 . S
H735 C713 0.929 . S
La736 C738 2.928 . S
La736 O756 2.521 . S
La736 O757 2.628 . S
La736 O758 2.554 . S
La736 O759 2.757 . S
La736 O760 2.470 . S
La736 O765 2.482 . S
La736 O767 2.503 . S
La737 C747 2.928 . S
La737 O759 2.482 . S
La737 O761 2.503 . S
La737 O762 2.521 . S
La737 O763 2.628 . S
La737 O764 2.554 . S
La737 O765 2.757 . S
La737 O766 2.470 . S
C738 La736 2.928 . S
C738 C739 1.503 . S
C738 O756 1.261 . S
C738 O757 1.243 . S
C739 C738 1.503 . S
C739 C740 1.394 . S
C739 C744 1.373 1_455 S
C740 C739 1.394 . S
C740 C741 1.380 . S
C740 H768 0.930 . S
C741 C740 1.380 . S
C741 C742 1.376 1_455 S
C741 H769 0.930 . S
C742 C741 1.376 1_655 S
C742 C743 1.370 . S
C743 C742 1.370 . S
C743 C744 1.396 . S
C743 H770 0.929 . S
C744 C739 1.373 1_655 S
C744 C743 1.396 . S
C744 H771 0.929 . S
C745 O758 1.240 . S
C745 O759 1.289 . S
C746 O760 1.265 . S
C746 O761 1.258 . S
C747 La737 2.928 . S
C747 C748 1.503 . S
C747 O762 1.261 . S
C747 O763 1.243 . S
C748 C747 1.503 . S
C748 C749 1.394 . S
C748 C753 1.373 . S
C749 C748 1.394 . S
C749 C750 1.380 . S
C749 H772 0.930 . S
C750 C749 1.380 . S
C750 C751 1.376 . S
C750 H773 0.930 . S
C751 C750 1.376 . S
C751 C752 1.370 . S
C752 C751 1.370 . S
C752 C753 1.396 . S
C752 H774 0.929 . S
C753 C748 1.373 . S
C753 C752 1.396 . S
C753 H775 0.929 . S
C754 O764 1.240 . S
C754 O765 1.289 . S
C755 O766 1.258 . S
C755 O767 1.256 . S
O756 La736 2.521 . S
O756 C738 1.261 . S
O757 La736 2.628 . S
O757 C738 1.243 . S
O758 La736 2.554 . S
O758 C745 1.240 . S
O759 La736 2.757 . S
O759 La737 2.482 . S
O759 C745 1.289 . S
O760 La736 2.470 . S
O760 C746 1.265 . S
O761 La737 2.503 . S
O761 C746 1.258 . S
O762 La737 2.521 . S
O762 C747 1.261 . S
O763 La737 2.628 . S
O763 C747 1.243 . S
O764 La737 2.554 . S
O764 C754 1.240 . S
O765 La736 2.482 . S
O765 La737 2.757 . S
O765 C754 1.289 . S
O766 La737 2.470 . S
O766 C755 1.258 . S
O767 La736 2.503 . S
O767 C755 1.256 . S
H768 C740 0.930 . S
H769 C741 0.930 . S
H770 C743 0.929 . S
H771 C744 0.929 . S
H772 C749 0.930 . S
H773 C750 0.930 . S
H774 C752 0.929 . S
H775 C753 0.929 . S
La776 C778 2.928 . S
La776 O796 2.521 . S
La776 O797 2.628 . S
La776 O798 2.554 . S
La776 O799 2.757 . S
La776 O800 2.470 . S
La776 O805 2.482 . S
La776 O807 2.503 . S
La777 C787 2.928 . S
La777 O799 2.482 . S
La777 O801 2.503 . S
La777 O802 2.521 . S
La777 O803 2.628 . S
La777 O804 2.554 . S
La777 O805 2.757 . S
La777 O806 2.470 . S
C778 La776 2.928 . S
C778 C779 1.503 . S
C778 O796 1.261 . S
C778 O797 1.243 . S
C779 C778 1.503 . S
C779 C780 1.394 . S
C779 C784 1.373 . S
C780 C779 1.394 . S
C780 C781 1.380 . S
C780 H808 0.930 . S
C781 C780 1.380 . S
C781 C782 1.376 . S
C781 H809 0.930 . S
C782 C781 1.376 . S
C782 C783 1.370 . S
C783 C782 1.370 . S
C783 C784 1.396 . S
C783 H810 0.929 . S
C784 C779 1.373 . S
C784 C783 1.396 . S
C784 H811 0.929 . S
C785 O798 1.240 . S
C785 O799 1.289 . S
C786 O800 1.258 . S
C786 O801 1.256 . S
C787 La777 2.928 . S
C787 C788 1.503 . S
C787 O802 1.261 . S
C787 O803 1.243 . S
C788 C787 1.503 . S
C788 C789 1.394 . S
C788 C793 1.373 . S
C789 C788 1.394 . S
C789 C790 1.380 . S
C789 H812 0.930 . S
C790 C789 1.380 . S
C790 C791 1.376 . S
C790 H813 0.930 . S
C791 C790 1.376 . S
C791 C792 1.370 . S
C792 C791 1.370 . S
C792 C793 1.396 . S
C792 H814 0.929 . S
C793 C788 1.373 . S
C793 C792 1.396 . S
C793 H815 0.929 . S
C794 O804 1.240 . S
C794 O805 1.289 . S
C795 O806 1.258 . S
C795 O807 1.256 . S
O796 La776 2.521 . S
O796 C778 1.261 . S
O797 La776 2.628 . S
O797 C778 1.243 . S
O798 La776 2.554 . S
O798 C785 1.240 . S
O799 La776 2.757 . S
O799 La777 2.482 . S
O799 C785 1.289 . S
O800 La776 2.470 . S
O800 C786 1.258 . S
O801 La777 2.503 . S
O801 C786 1.256 . S
O802 La777 2.521 . S
O802 C787 1.261 . S
O803 La777 2.628 . S
O803 C787 1.243 . S
O804 La777 2.554 . S
O804 C794 1.240 . S
O805 La776 2.482 . S
O805 La777 2.757 . S
O805 C794 1.289 . S
O806 La777 2.470 . S
O806 C795 1.258 . S
O807 La776 2.503 . S
O807 C795 1.256 . S
H808 C780 0.930 . S
H809 C781 0.930 . S
H810 C783 0.929 . S
H811 C784 0.929 . S
H812 C789 0.930 . S
H813 C790 0.930 . S
H814 C792 0.929 . S
H815 C793 0.929 . S
La816 C818 2.928 . S
La816 O836 2.521 . S
La816 O837 2.628 . S
La816 O838 2.554 . S
La816 O839 2.757 . S
La816 O840 2.470 . S
La816 O845 2.482 . S
La816 O847 2.503 . S
La817 C827 2.928 . S
La817 O839 2.482 . S
La817 O841 2.503 . S
La817 O842 2.521 . S
La817 O843 2.628 . S
La817 O844 2.554 . S
La817 O845 2.757 . S
La817 O846 2.470 . S
C818 La816 2.928 . S
C818 C819 1.503 . S
C818 O836 1.261 . S
C818 O837 1.243 . S
C819 C818 1.503 . S
C819 C820 1.394 . S
C819 C824 1.373 . S
C820 C819 1.394 . S
C820 C821 1.380 . S
C820 H848 0.930 . S
C821 C820 1.380 . S
C821 C822 1.376 . S
C821 H849 0.930 . S
C822 C821 1.376 . S
C822 C823 1.370 . S
C823 C822 1.370 . S
C823 C824 1.396 . S
C823 H850 0.929 . S
C824 C819 1.373 . S
C824 C823 1.396 . S
C824 H851 0.929 . S
C825 O838 1.240 . S
C825 O839 1.289 . S
C826 O840 1.258 . S
C826 O841 1.256 . S
C827 La817 2.928 . S
C827 C828 1.503 . S
C827 O842 1.261 . S
C827 O843 1.243 . S
C828 C827 1.503 . S
C828 C829 1.394 . S
C828 C833 1.373 . S
C829 C828 1.394 . S
C829 C830 1.380 . S
C829 H852 0.930 . S
C830 C829 1.380 . S
C830 C831 1.376 . S
C830 H853 0.930 . S
C831 C830 1.376 . S
C831 C832 1.370 . S
C832 C831 1.370 . S
C832 C833 1.396 . S
C832 H854 0.929 . S
C833 C828 1.373 . S
C833 C832 1.396 . S
C833 H855 0.929 . S
C834 O844 1.240 . S
C834 O845 1.289 . S
C835 O846 1.258 . S
C835 O847 1.256 . S
O836 La816 2.521 . S
O836 C818 1.261 . S
O837 La816 2.628 . S
O837 C818 1.243 . S
O838 La816 2.554 . S
O838 C825 1.240 . S
O839 La816 2.757 . S
O839 La817 2.482 . S
O839 C825 1.289 . S
O840 La816 2.470 . S
O840 C826 1.258 . S
O841 La817 2.503 . S
O841 C826 1.256 . S
O842 La817 2.521 . S
O842 C827 1.261 . S
O843 La817 2.628 . S
O843 C827 1.243 . S
O844 La817 2.554 . S
O844 C834 1.240 . S
O845 La816 2.482 . S
O845 La817 2.757 . S
O845 C834 1.289 . S
O846 La817 2.470 . S
O846 C835 1.258 . S
O847 La816 2.503 . S
O847 C835 1.256 . S
H848 C820 0.930 . S
H849 C821 0.930 . S
H850 C823 0.929 . S
H851 C824 0.929 . S
H852 C829 0.930 . S
H853 C830 0.930 . S
H854 C832 0.929 . S
H855 C833 0.929 . S
La856 C858 2.928 . S
La856 O876 2.521 . S
La856 O877 2.628 . S
La856 O878 2.554 . S
La856 O879 2.757 . S
La856 O880 2.470 . S
La856 O885 2.482 . S
La856 O887 2.503 . S
La857 C867 2.928 . S
La857 O879 2.482 . S
La857 O881 2.503 . S
La857 O882 2.521 . S
La857 O883 2.628 . S
La857 O884 2.554 . S
La857 O885 2.757 . S
La857 O886 2.470 . S
C858 La856 2.928 . S
C858 C859 1.503 . S
C858 O876 1.261 . S
C858 O877 1.243 . S
C859 C858 1.503 . S
C859 C860 1.394 . S
C859 C864 1.373 . S
C860 C859 1.394 . S
C860 C861 1.380 . S
C860 H888 0.930 . S
C861 C860 1.380 . S
C861 C862 1.376 . S
C861 H889 0.930 . S
C862 C861 1.376 . S
C862 C863 1.370 . S
C863 C862 1.370 . S
C863 C864 1.396 . S
C863 H890 0.929 . S
C864 C859 1.373 . S
C864 C863 1.396 . S
C864 H891 0.929 . S
C865 O878 1.240 . S
C865 O879 1.289 . S
C866 O880 1.258 . S
C866 O881 1.256 . S
C867 La857 2.928 . S
C867 C868 1.503 . S
C867 O882 1.261 . S
C867 O883 1.243 . S
C868 C867 1.503 . S
C868 C869 1.394 . S
C868 C873 1.373 . S
C869 C868 1.394 . S
C869 C870 1.380 . S
C869 H892 0.930 . S
C870 C869 1.380 . S
C870 C871 1.376 . S
C870 H893 0.930 . S
C871 C870 1.376 . S
C871 C872 1.370 . S
C872 C871 1.370 . S
C872 C873 1.396 . S
C872 H894 0.929 . S
C873 C868 1.373 . S
C873 C872 1.396 . S
C873 H895 0.929 . S
C874 O884 1.240 . S
C874 O885 1.289 . S
C875 O886 1.258 . S
C875 O887 1.256 . S
O876 La856 2.521 . S
O876 C858 1.261 . S
O877 La856 2.628 . S
O877 C858 1.243 . S
O878 La856 2.554 . S
O878 C865 1.240 . S
O879 La856 2.757 . S
O879 La857 2.482 . S
O879 C865 1.289 . S
O880 La856 2.470 . S
O880 C866 1.258 . S
O881 La857 2.503 . S
O881 C866 1.256 . S
O882 La857 2.521 . S
O882 C867 1.261 . S
O883 La857 2.628 . S
O883 C867 1.243 . S
O884 La857 2.554 . S
O884 C874 1.240 . S
O885 La856 2.482 . S
O885 La857 2.757 . S
O885 C874 1.289 . S
O886 La857 2.470 . S
O886 C875 1.258 . S
O887 La856 2.503 . S
O887 C875 1.256 . S
H888 C860 0.930 . S
H889 C861 0.930 . S
H890 C863 0.929 . S
H891 C864 0.929 . S
H892 C869 0.930 . S
H893 C870 0.930 . S
H894 C872 0.929 . S
H895 C873 0.929 . S
La896 C898 2.928 . S
La896 O916 2.521 . S
La896 O917 2.628 . S
La896 O918 2.554 . S
La896 O919 2.757 . S
La896 O920 2.470 . S
La896 O925 2.482 . S
La896 O927 2.503 . S
La897 C907 2.928 . S
La897 O919 2.482 . S
La897 O921 2.503 . S
La897 O922 2.521 . S
La897 O923 2.628 . S
La897 O924 2.554 . S
La897 O925 2.757 . S
La897 O926 2.470 . S
C898 La896 2.928 . S
C898 C899 1.503 . S
C898 O916 1.261 . S
C898 O917 1.243 . S
C899 C898 1.503 . S
C899 C900 1.394 . S
C899 C904 1.373 . S
C900 C899 1.394 . S
C900 C901 1.380 . S
C900 H928 0.930 . S
C901 C900 1.380 . S
C901 C902 1.376 . S
C901 H929 0.930 . S
C902 C901 1.376 . S
C902 C903 1.370 . S
C903 C902 1.370 . S
C903 C904 1.396 . S
C903 H930 0.929 . S
C904 C899 1.373 . S
C904 C903 1.396 . S
C904 H931 0.929 . S
C905 O918 1.240 . S
C905 O919 1.289 . S
C906 O920 1.258 . S
C906 O921 1.256 . S
C907 La897 2.928 . S
C907 C908 1.503 . S
C907 O922 1.261 . S
C907 O923 1.243 . S
C908 C907 1.503 . S
C908 C909 1.394 . S
C908 C913 1.373 . S
C909 C908 1.394 . S
C909 C910 1.380 . S
C909 H932 0.930 . S
C910 C909 1.380 . S
C910 C911 1.376 . S
C910 H933 0.930 . S
C911 C910 1.376 . S
C911 C912 1.370 . S
C912 C911 1.370 . S
C912 C913 1.396 . S
C912 H934 0.929 . S
C913 C908 1.373 . S
C913 C912 1.396 . S
C913 H935 0.929 . S
C914 O924 1.240 . S
C914 O925 1.289 . S
C915 O926 1.258 . S
C915 O927 1.256 . S
O916 La896 2.521 . S
O916 C898 1.261 . S
O917 La896 2.628 . S
O917 C898 1.243 . S
O918 La896 2.554 . S
O918 C905 1.240 . S
O919 La896 2.757 . S
O919 La897 2.482 . S
O919 C905 1.289 . S
O920 La896 2.470 . S
O920 C906 1.258 . S
O921 La897 2.503 . S
O921 C906 1.256 . S
O922 La897 2.521 . S
O922 C907 1.261 . S
O923 La897 2.628 . S
O923 C907 1.243 . S
O924 La897 2.554 . S
O924 C914 1.240 . S
O925 La896 2.482 . S
O925 La897 2.757 . S
O925 C914 1.289 . S
O926 La897 2.470 . S
O926 C915 1.258 . S
O927 La896 2.503 . S
O927 C915 1.256 . S
H928 C900 0.930 . S
H929 C901 0.930 . S
H930 C903 0.929 . S
H931 C904 0.929 . S
H932 C909 0.930 . S
H933 C910 0.930 . S
H934 C912 0.929 . S
H935 C913 0.929 . S
La936 C938 2.928 1_554 S
La936 O956 2.521 1_554 S
La936 O957 2.628 . S
La936 O958 2.554 1_554 S
La936 O959 2.757 1_554 S
La936 O960 2.470 1_554 S
La936 O965 2.482 . S
La936 O967 2.503 . S
La937 C947 2.928 1_455 S
La937 O959 2.482 1_554 S
La937 O961 2.503 . S
La937 O962 2.521 1_455 S
La937 O963 2.628 1_455 S
La937 O964 2.554 . S
La937 O965 2.757 . S
La937 O966 2.470 . S
C938 La936 2.928 1_556 S
C938 C939 1.503 . S
C938 O956 1.261 . S
C938 O957 1.243 1_556 S
C939 C938 1.503 . S
C939 C940 1.394 . S
C939 C944 1.373 1_556 S
C940 C939 1.394 . S
C940 C941 1.380 . S
C940 H968 0.930 . S
C941 C940 1.380 . S
C941 C942 1.376 . S
C941 H969 0.930 . S
C942 C941 1.376 . S
C942 C943 1.370 1_556 S
C943 C942 1.370 1_554 S
C943 C944 1.396 . S
C943 H970 0.929 . S
C944 C939 1.373 1_554 S
C944 C943 1.396 . S
C944 H971 0.929 . S
C945 O958 1.240 . S
C945 O959 1.289 . S
C946 O960 1.258 1_554 S
C946 O961 1.256 . S
C947 La937 2.928 1_655 S
C947 C948 1.503 . S
C947 O962 1.261 . S
C947 O963 1.243 . S
C948 C947 1.503 . S
C948 C949 1.394 . S
C948 C953 1.373 . S
C949 C948 1.394 . S
C949 C950 1.380 . S
C949 H972 0.930 . S
C950 C949 1.380 . S
C950 C951 1.376 . S
C950 H973 0.930 . S
C951 C950 1.376 . S
C951 C952 1.370 . S
C952 C951 1.370 . S
C952 C953 1.396 . S
C952 H974 0.929 . S
C953 C948 1.373 . S
C953 C952 1.396 . S
C953 H975 0.929 . S
C954 O964 1.240 . S
C954 O965 1.289 . S
C955 O966 1.258 . S
C955 O967 1.256 . S
O956 La936 2.521 1_556 S
O956 C938 1.261 . S
O957 La936 2.628 . S
O957 C938 1.243 1_554 S
O958 La936 2.554 1_556 S
O958 C945 1.240 . S
O959 La936 2.757 1_556 S
O959 La937 2.482 1_556 S
O959 C945 1.289 . S
O960 La936 2.470 1_556 S
O960 C946 1.258 1_556 S
O961 La937 2.503 . S
O961 C946 1.256 . S
O962 La937 2.521 1_655 S
O962 C947 1.261 . S
O963 La937 2.628 1_655 S
O963 C947 1.243 . S
O964 La937 2.554 . S
O964 C954 1.240 . S
O965 La936 2.482 . S
O965 La937 2.757 . S
O965 C954 1.289 . S
O966 La937 2.470 . S
O966 C955 1.258 . S
O967 La936 2.503 . S
O967 C955 1.256 . S
H968 C940 0.930 . S
H969 C941 0.930 . S
H970 C943 0.929 . S
H971 C944 0.929 . S
H972 C949 0.930 . S
H973 C950 0.930 . S
H974 C952 0.929 . S
H975 C953 0.929 . S
C976 C977 1.349 . S
C976 C978 1.327 . S
C976 H1001 0.950 . S
C977 C976 1.349 . S
C977 C993 1.349 . S
C978 C976 1.327 . S
C978 C997 1.429 . S
C978 H1002 0.950 . S
C979 C996 1.574 . S
C979 C998 1.368 . S
C979 H1003 0.949 1_455 S
H980 C984 0.949 . S
C981 C982 1.349 1_554 S
C981 C983 1.327 1_554 S
C981 H1004 0.950 . S
C982 C981 1.349 1_556 S
C982 C994 1.349 . S
C983 C981 1.327 1_556 S
C983 C999 1.429 . S
C983 H1005 0.940 1_556 S
C984 H980 0.949 . S
C984 C992 1.574 . S
C984 C1000 1.368 . S
H985 C993 0.950 1_655 S
H986 C991 0.950 1_655 S
H987 C992 0.949 . S
H988 C994 0.950 . S
H989 C995 0.950 . S
H990 C996 0.949 . S
C991 H986 0.950 1_455 S
C991 C993 1.327 . S
C991 C997 1.429 . S
C992 C984 1.574 . S
C992 H987 0.949 . S
C992 C998 1.368 . S
C993 C977 1.349 . S
C993 H985 0.950 1_455 S
C993 C991 1.327 . S
C994 C982 1.349 . S
C994 H988 0.950 . S
C994 C995 1.327 . S
C995 H989 0.950 . S
C995 C994 1.327 . S
C995 C999 1.429 . S
C996 C979 1.574 . S
C996 H990 0.949 . S
C996 C1000 1.368 . S
C997 C978 1.429 . S
C997 C991 1.429 . S
C997 C998 1.523 . S
C998 C979 1.368 . S
C998 C992 1.368 . S
C998 C997 1.523 . S
C999 C983 1.429 . S
C999 C995 1.429 . S
C999 C1000 1.523 . S
C1000 C984 1.368 . S
C1000 C996 1.368 . S
C1000 C999 1.523 . S
H1001 C976 0.950 . S
H1002 C978 0.950 . S
H1003 C979 0.949 1_655 S
H1004 C981 0.950 . S
H1005 C983 0.940 1_554 S
C1006 C1007 1.349 . S
C1006 C1008 1.327 . S
C1006 H1031 0.950 . S
C1007 C1006 1.349 . S
C1007 C1023 1.349 . S
C1008 C1006 1.327 . S
C1008 C1027 1.429 . S
C1008 H1032 0.950 . S
C1009 C1026 1.574 . S
C1009 C1028 1.368 . S
C1009 H1033 0.949 . S
H1010 C1014 0.949 . S
C1011 C1012 1.349 . S
C1011 C1013 1.327 . S
C1011 H1034 0.950 . S
C1012 C1011 1.349 . S
C1012 C1024 1.349 . S
C1013 C1011 1.327 . S
C1013 C1029 1.429 . S
C1013 H1035 0.950 . S
C1014 H1010 0.949 . S
C1014 C1022 1.574 . S
C1014 C1030 1.368 . S
H1015 C1023 0.950 . S
H1016 C1021 0.950 . S
H1017 C1022 0.949 . S
H1018 C1024 0.950 . S
H1019 C1025 0.950 . S
H1020 C1026 0.949 . S
C1021 H1016 0.950 . S
C1021 C1023 1.327 . S
C1021 C1027 1.429 . S
C1022 C1014 1.574 . S
C1022 H1017 0.949 . S
C1022 C1028 1.368 . S
C1023 C1007 1.349 . S
C1023 H1015 0.950 . S
C1023 C1021 1.327 . S
C1024 C1012 1.349 . S
C1024 H1018 0.950 . S
C1024 C1025 1.327 . S
C1025 H1019 0.950 . S
C1025 C1024 1.327 . S
C1025 C1029 1.429 . S
C1026 C1009 1.574 . S
C1026 H1020 0.949 . S
C1026 C1030 1.368 . S
C1027 C1008 1.429 . S
C1027 C1021 1.429 . S
C1027 C1028 1.523 . S
C1028 C1009 1.368 . S
C1028 C1022 1.368 . S
C1028 C1027 1.523 . S
C1029 C1013 1.429 . S
C1029 C1025 1.429 . S
C1029 C1030 1.523 . S
C1030 C1014 1.368 . S
C1030 C1026 1.368 . S
C1030 C1029 1.523 . S
H1031 C1006 0.950 . S
H1032 C1008 0.950 . S
H1033 C1009 0.949 . S
H1034 C1011 0.950 . S
H1035 C1013 0.950 . S
C1036 C1037 1.349 . S
C1036 C1038 1.327 . S
C1036 H1061 0.950 . S
C1037 C1036 1.349 . S
C1037 C1053 1.349 . S
C1038 C1036 1.327 . S
C1038 C1057 1.429 . S
C1038 H1062 0.950 . S
C1039 C1056 1.574 . S
C1039 C1058 1.368 . S
C1039 H1063 0.949 . S
H1040 C1044 0.949 . S
C1041 C1042 1.349 . S
C1041 C1043 1.327 . S
C1041 H1064 0.950 . S
C1042 C1041 1.349 . S
C1042 C1054 1.349 . S
C1043 C1041 1.327 . S
C1043 C1059 1.429 . S
C1043 H1065 0.950 . S
C1044 H1040 0.949 . S
C1044 C1052 1.574 . S
C1044 C1060 1.368 . S
H1045 C1053 0.950 . S
H1046 C1051 0.950 . S
H1047 C1052 0.949 . S
H1048 C1054 0.950 . S
H1049 C1055 0.950 . S
H1050 C1056 0.949 . S
C1051 H1046 0.950 . S
C1051 C1053 1.327 . S
C1051 C1057 1.429 . S
C1052 C1044 1.574 . S
C1052 H1047 0.949 . S
C1052 C1058 1.368 . S
C1053 C1037 1.349 . S
C1053 H1045 0.950 . S
C1053 C1051 1.327 . S
C1054 C1042 1.349 . S
C1054 H1048 0.950 . S
C1054 C1055 1.327 . S
C1055 H1049 0.950 . S
C1055 C1054 1.327 . S
C1055 C1059 1.429 . S
C1056 C1039 1.574 . S
C1056 H1050 0.949 . S
C1056 C1060 1.368 . S
C1057 C1038 1.429 . S
C1057 C1051 1.429 . S
C1057 C1058 1.523 . S
C1058 C1039 1.368 . S
C1058 C1052 1.368 . S
C1058 C1057 1.523 . S
C1059 C1043 1.429 . S
C1059 C1055 1.429 . S
C1059 C1060 1.523 . S
C1060 C1044 1.368 . S
C1060 C1056 1.368 . S
C1060 C1059 1.523 . S
H1061 C1036 0.950 . S
H1062 C1038 0.950 . S
H1063 C1039 0.949 . S
H1064 C1041 0.950 . S
H1065 C1043 0.950 . S
C1066 C1067 1.349 . S
C1066 C1068 1.327 . S
C1066 H1091 0.950 . S
C1067 C1066 1.349 . S
C1067 C1083 1.349 . S
C1068 C1066 1.327 . S
C1068 C1087 1.429 . S
C1068 H1092 0.950 . S
C1069 C1086 1.574 . S
C1069 C1088 1.368 . S
C1069 H1093 0.949 . S
H1070 C1074 0.949 . S
C1071 C1072 1.349 . S
C1071 C1073 1.327 . S
C1071 H1094 0.950 . S
C1072 C1071 1.349 . S
C1072 C1084 1.349 . S
C1073 C1071 1.327 . S
C1073 C1089 1.429 . S
C1073 H1095 0.950 . S
C1074 H1070 0.949 . S
C1074 C1082 1.574 . S
C1074 C1090 1.368 . S
H1075 C1083 0.950 . S
H1076 C1081 0.950 . S
H1077 C1082 0.949 . S
H1078 C1084 0.950 . S
H1079 C1085 0.950 . S
H1080 C1086 0.949 . S
C1081 H1076 0.950 . S
C1081 C1083 1.327 . S
C1081 C1087 1.429 . S
C1082 C1074 1.574 . S
C1082 H1077 0.949 . S
C1082 C1088 1.368 . S
C1083 C1067 1.349 . S
C1083 H1075 0.950 . S
C1083 C1081 1.327 . S
C1084 C1072 1.349 . S
C1084 H1078 0.950 . S
C1084 C1085 1.327 . S
C1085 H1079 0.950 . S
C1085 C1084 1.327 . S
C1085 C1089 1.429 . S
C1086 C1069 1.574 . S
C1086 H1080 0.949 . S
C1086 C1090 1.368 . S
C1087 C1068 1.429 . S
C1087 C1081 1.429 . S
C1087 C1088 1.523 . S
C1088 C1069 1.368 . S
C1088 C1082 1.368 . S
C1088 C1087 1.523 . S
C1089 C1073 1.429 . S
C1089 C1085 1.429 . S
C1089 C1090 1.523 . S
C1090 C1074 1.368 . S
C1090 C1086 1.368 . S
C1090 C1089 1.523 . S
H1091 C1066 0.950 . S
H1092 C1068 0.950 . S
H1093 C1069 0.949 . S
H1094 C1071 0.950 . S
H1095 C1073 0.950 . S
C1096 C1097 1.349 1_655 S
C1096 C1098 1.327 1_655 S
C1096 H1121 0.950 . S
C1097 C1096 1.349 1_455 S
C1097 C1113 1.349 . S
C1098 C1096 1.327 1_455 S
C1098 C1117 1.429 . S
C1098 H1122 0.950 1_455 S
C1099 C1116 1.574 . S
C1099 C1118 1.368 . S
C1099 H1123 0.949 . S
H1100 C1104 0.949 . S
C1101 C1102 1.349 . S
C1101 C1103 1.327 . S
C1101 H1124 0.950 . S
C1102 C1101 1.349 . S
C1102 C1114 1.349 . S
C1103 C1101 1.327 . S
C1103 C1119 1.429 . S
C1103 H1125 0.950 . S
C1104 H1100 0.949 . S
C1104 C1112 1.574 . S
C1104 C1120 1.368 . S
H1105 C1113 0.950 . S
H1106 C1111 0.950 . S
H1107 C1112 1.006 . S
H1108 C1114 0.950 . S
H1109 C1115 0.950 . S
H1110 C1116 0.949 . S
C1111 H1106 0.950 . S
C1111 C1113 1.327 . S
C1111 C1117 1.429 . S
C1112 C1104 1.574 . S
C1112 H1107 1.006 . S
C1112 C1118 1.368 . S
C1113 C1097 1.349 . S
C1113 H1105 0.950 . S
C1113 C1111 1.327 . S
C1114 C1102 1.349 . S
C1114 H1108 0.950 . S
C1114 C1115 1.327 . S
C1115 H1109 0.950 . S
C1115 C1114 1.327 . S
C1115 C1119 1.429 . S
C1116 C1099 1.574 . S
C1116 H1110 0.949 . S
C1116 C1120 1.368 . S
C1117 C1098 1.429 . S
C1117 C1111 1.429 . S
C1117 C1118 1.523 . S
C1118 C1099 1.368 . S
C1118 C1112 1.368 . S
C1118 C1117 1.523 . S
C1119 C1103 1.429 . S
C1119 C1115 1.429 . S
C1119 C1120 1.523 . S
C1120 C1104 1.368 . S
C1120 C1116 1.368 . S
C1120 C1119 1.523 . S
H1121 C1096 0.950 . S
H1122 C1098 0.950 1_655 S
H1123 C1099 0.949 . S
H1124 C1101 0.950 . S
H1125 C1103 0.950 . S
C1126 C1127 1.349 . S
C1126 C1128 1.327 . S
C1126 H1151 0.950 . S
C1127 C1126 1.349 . S
C1127 C1143 1.349 . S
C1128 C1126 1.327 . S
C1128 C1147 1.429 . S
C1128 H1152 0.950 . S
C1129 C1146 1.574 . S
C1129 C1148 1.368 . S
C1129 H1153 0.949 . S
H1130 C1134 0.949 . S
C1131 C1132 1.349 . S
C1131 C1133 1.327 . S
C1131 H1154 0.950 . S
C1132 C1131 1.349 . S
C1132 C1144 1.349 . S
C1133 C1131 1.327 . S
C1133 C1149 1.429 . S
C1133 H1155 0.950 . S
C1134 H1130 0.949 . S
C1134 C1142 1.574 . S
C1134 C1150 1.368 . S
H1135 C1143 0.950 . S
H1136 C1141 0.950 . S
H1137 C1142 0.949 . S
H1138 C1144 0.950 . S
H1139 C1145 0.950 . S
H1140 C1146 0.949 . S
C1141 H1136 0.950 . S
C1141 C1143 1.327 . S
C1141 C1147 1.429 . S
C1142 C1134 1.574 . S
C1142 H1137 0.949 . S
C1142 C1148 1.368 . S
C1143 C1127 1.349 . S
C1143 H1135 0.950 . S
C1143 C1141 1.327 . S
C1144 C1132 1.349 . S
C1144 H1138 0.950 . S
C1144 C1145 1.327 . S
C1145 H1139 0.950 . S
C1145 C1144 1.327 . S
C1145 C1149 1.429 . S
C1146 C1129 1.574 . S
C1146 H1140 0.949 . S
C1146 C1150 1.368 . S
C1147 C1128 1.429 . S
C1147 C1141 1.429 . S
C1147 C1148 1.523 . S
C1148 C1129 1.368 . S
C1148 C1142 1.368 . S
C1148 C1147 1.523 . S
C1149 C1133 1.429 . S
C1149 C1145 1.429 . S
C1149 C1150 1.523 . S
C1150 C1134 1.368 . S
C1150 C1146 1.368 . S
C1150 C1149 1.523 . S
H1151 C1126 0.950 . S
H1152 C1128 0.950 . S
H1153 C1129 0.949 . S
H1154 C1131 0.950 . S
H1155 C1133 0.950 . S
C1156 C1157 1.349 . S
C1156 C1158 1.327 . S
C1156 H1181 0.950 . S
C1157 C1156 1.349 . S
C1157 C1173 1.349 . S
C1158 C1156 1.327 . S
C1158 C1177 1.429 . S
C1158 H1182 0.950 . S
C1159 C1176 1.574 . S
C1159 C1178 1.368 . S
C1159 H1183 0.949 . S
H1160 C1164 0.949 . S
C1161 C1162 1.349 . S
C1161 C1163 1.327 . S
C1161 H1184 0.950 . S
C1162 C1161 1.349 . S
C1162 C1174 1.349 . S
C1163 C1161 1.327 . S
C1163 C1179 1.429 . S
C1163 H1185 0.950 . S
C1164 H1160 0.949 . S
C1164 C1172 1.574 . S
C1164 C1180 1.368 . S
H1165 C1173 0.950 . S
H1166 C1171 0.950 . S
H1167 C1172 0.949 . S
H1168 C1174 0.950 . S
H1169 C1175 0.950 . S
H1170 C1176 0.949 . S
C1171 H1166 0.950 . S
C1171 C1173 1.327 . S
C1171 C1177 1.429 . S
C1172 C1164 1.574 . S
C1172 H1167 0.949 . S
C1172 C1178 1.368 . S
C1173 C1157 1.349 . S
C1173 H1165 0.950 . S
C1173 C1171 1.327 . S
C1174 C1162 1.349 . S
C1174 H1168 0.950 . S
C1174 C1175 1.327 . S
C1175 H1169 0.950 . S
C1175 C1174 1.327 . S
C1175 C1179 1.429 . S
C1176 C1159 1.574 . S
C1176 H1170 0.949 . S
C1176 C1180 1.368 . S
C1177 C1158 1.429 . S
C1177 C1171 1.429 . S
C1177 C1178 1.523 . S
C1178 C1159 1.368 . S
C1178 C1172 1.368 . S
C1178 C1177 1.523 . S
C1179 C1163 1.429 . S
C1179 C1175 1.429 . S
C1179 C1180 1.523 . S
C1180 C1164 1.368 . S
C1180 C1176 1.368 . S
C1180 C1179 1.523 . S
H1181 C1156 0.950 . S
H1182 C1158 0.950 . S
H1183 C1159 0.949 . S
H1184 C1161 0.950 . S
H1185 C1163 0.950 . S
C1186 C1187 1.349 . S
C1186 C1188 1.327 . S
C1186 H1211 0.950 . S
C1187 C1186 1.349 . S
C1187 C1203 1.349 . S
C1188 C1186 1.327 . S
C1188 C1207 1.429 . S
C1188 H1212 0.950 . S
C1189 C1206 1.574 . S
C1189 C1208 1.368 . S
C1189 H1213 0.949 . S
H1190 C1194 0.949 . S
C1191 C1192 1.349 . S
C1191 C1193 1.327 . S
C1191 H1214 0.950 . S
C1192 C1191 1.349 . S
C1192 C1204 1.349 . S
C1193 C1191 1.327 . S
C1193 C1209 1.429 . S
C1193 H1215 0.950 . S
C1194 H1190 0.949 . S
C1194 C1202 1.574 . S
C1194 C1210 1.368 . S
H1195 C1203 0.950 . S
H1196 C1201 0.950 . S
H1197 C1202 0.949 . S
H1198 C1204 0.950 . S
H1199 C1205 0.950 . S
H1200 C1206 0.949 . S
C1201 H1196 0.950 . S
C1201 C1203 1.327 . S
C1201 C1207 1.429 . S
C1202 C1194 1.574 . S
C1202 H1197 0.949 . S
C1202 C1208 1.368 . S
C1203 C1187 1.349 . S
C1203 H1195 0.950 . S
C1203 C1201 1.327 . S
C1204 C1192 1.349 . S
C1204 H1198 0.950 . S
C1204 C1205 1.327 . S
C1205 H1199 0.950 . S
C1205 C1204 1.327 . S
C1205 C1209 1.429 . S
C1206 C1189 1.574 . S
C1206 H1200 0.949 . S
C1206 C1210 1.368 . S
C1207 C1188 1.429 . S
C1207 C1201 1.429 . S
C1207 C1208 1.523 . S
C1208 C1189 1.368 . S
C1208 C1202 1.368 . S
C1208 C1207 1.523 . S
C1209 C1193 1.429 . S
C1209 C1205 1.429 . S
C1209 C1210 1.523 . S
C1210 C1194 1.368 . S
C1210 C1206 1.368 . S
C1210 C1209 1.523 . S
H1211 C1186 0.950 . S
H1212 C1188 0.950 . S
H1213 C1189 0.949 . S
H1214 C1191 0.950 . S
H1215 C1193 0.950 . S
C1216 C1217 1.349 . S
C1216 C1218 1.327 . S
C1216 H1241 0.950 . S
C1217 C1216 1.349 . S
C1217 C1233 1.349 . S
C1218 C1216 1.327 . S
C1218 C1237 1.429 . S
C1218 H1242 0.950 . S
C1219 C1236 1.574 1_655 S
C1219 C1238 1.368 . S
C1219 H1243 0.949 . S
H1220 C1224 0.949 . S
C1221 C1222 1.349 . S
C1221 C1223 1.327 . S
C1221 H1244 0.950 . S
C1222 C1221 1.349 . S
C1222 C1234 1.349 . S
C1223 C1221 1.327 . S
C1223 C1239 1.429 . S
C1223 H1245 0.950 . S
C1224 H1220 0.949 . S
C1224 C1232 1.574 . S
C1224 C1240 1.368 . S
H1225 C1233 0.950 . S
H1226 C1231 0.950 . S
H1227 C1232 0.949 . S
H1228 C1234 0.950 . S
H1229 C1235 0.950 . S
H1230 C1236 0.949 . S
C1231 H1226 0.950 . S
C1231 C1233 1.327 . S
C1231 C1237 1.429 . S
C1232 C1224 1.574 . S
C1232 H1227 0.949 . S
C1232 C1238 1.368 . S
C1233 C1217 1.349 . S
C1233 H1225 0.950 . S
C1233 C1231 1.327 . S
C1234 C1222 1.349 . S
C1234 H1228 0.950 . S
C1234 C1235 1.327 1_455 S
C1235 H1229 0.950 . S
C1235 C1234 1.327 1_655 S
C1235 C1239 1.429 1_655 S
C1236 C1219 1.574 1_455 S
C1236 H1230 0.949 . S
C1236 C1240 1.368 1_455 S
C1237 C1218 1.429 . S
C1237 C1231 1.429 . S
C1237 C1238 1.523 . S
C1238 C1219 1.368 . S
C1238 C1232 1.368 . S
C1238 C1237 1.523 . S
C1239 C1223 1.429 . S
C1239 C1235 1.429 1_455 S
C1239 C1240 1.523 1_455 S
C1240 C1224 1.368 . S
C1240 C1236 1.368 1_655 S
C1240 C1239 1.523 1_655 S
H1241 C1216 0.950 . S
H1242 C1218 0.950 . S
H1243 C1219 0.949 . S
H1244 C1221 0.950 . S
H1245 C1223 0.950 . S
C1246 C1247 1.349 . S
C1246 C1248 1.327 . S
C1246 H1271 0.950 . S
C1247 C1246 1.349 . S
C1247 C1263 1.349 . S
C1248 C1246 1.327 . S
C1248 C1267 1.429 . S
C1248 H1272 0.950 . S
C1249 C1266 1.574 . S
C1249 C1268 1.368 . S
C1249 H1273 0.949 . S
H1250 C1254 0.949 . S
C1251 C1252 1.349 . S
C1251 C1253 1.327 . S
C1251 H1274 0.950 . S
C1252 C1251 1.349 . S
C1252 C1264 1.349 . S
C1253 C1251 1.327 . S
C1253 C1269 1.429 . S
C1253 H1275 0.950 . S
C1254 H1250 0.949 . S
C1254 C1262 1.574 . S
C1254 C1270 1.368 . S
H1255 C1263 0.950 . S
H1256 C1261 0.950 . S
H1257 C1262 0.949 . S
H1258 C1264 0.950 . S
H1259 C1265 0.950 . S
H1260 C1266 0.949 . S
C1261 H1256 0.950 . S
C1261 C1263 1.327 . S
C1261 C1267 1.429 . S
C1262 C1254 1.574 . S
C1262 H1257 0.949 . S
C1262 C1268 1.368 . S
C1263 C1247 1.349 . S
C1263 H1255 0.950 . S
C1263 C1261 1.327 . S
C1264 C1252 1.349 . S
C1264 H1258 0.950 . S
C1264 C1265 1.327 . S
C1265 H1259 0.950 . S
C1265 C1264 1.327 . S
C1265 C1269 1.429 . S
C1266 C1249 1.574 . S
C1266 H1260 0.949 . S
C1266 C1270 1.368 . S
C1267 C1248 1.429 . S
C1267 C1261 1.429 . S
C1267 C1268 1.523 . S
C1268 C1249 1.368 . S
C1268 C1262 1.368 . S
C1268 C1267 1.523 . S
C1269 C1253 1.429 . S
C1269 C1265 1.429 . S
C1269 C1270 1.523 . S
C1270 C1254 1.368 . S
C1270 C1266 1.368 . S
C1270 C1269 1.523 . S
H1271 C1246 0.950 . S
H1272 C1248 0.950 . S
H1273 C1249 0.949 . S
H1274 C1251 0.950 . S
H1275 C1253 0.950 . S
C1276 C1277 1.349 . S
C1276 C1278 1.327 . S
C1276 H1301 0.950 . S
C1277 C1276 1.349 . S
C1277 C1293 1.349 . S
C1278 C1276 1.327 . S
C1278 C1297 1.429 . S
C1278 H1302 0.950 . S
C1279 C1296 1.574 . S
C1279 C1298 1.368 . S
C1279 H1303 0.949 . S
H1280 C1284 0.949 . S
C1281 C1282 1.349 . S
C1281 C1283 1.327 . S
C1281 H1304 0.950 . S
C1282 C1281 1.349 . S
C1282 C1294 1.349 . S
C1283 C1281 1.327 . S
C1283 C1299 1.429 . S
C1283 H1305 0.950 . S
C1284 H1280 0.949 . S
C1284 C1292 1.574 . S
C1284 C1300 1.368 . S
H1285 C1293 0.950 . S
H1286 C1291 0.950 . S
H1287 C1292 0.949 . S
H1288 C1294 0.950 . S
H1289 C1295 0.950 . S
H1290 C1296 0.949 . S
C1291 H1286 0.950 . S
C1291 C1293 1.327 . S
C1291 C1297 1.429 . S
C1292 C1284 1.574 . S
C1292 H1287 0.949 . S
C1292 C1298 1.368 . S
C1293 C1277 1.349 . S
C1293 H1285 0.950 . S
C1293 C1291 1.327 . S
C1294 C1282 1.349 . S
C1294 H1288 0.950 . S
C1294 C1295 1.327 . S
C1295 H1289 0.950 . S
C1295 C1294 1.327 . S
C1295 C1299 1.429 . S
C1296 C1279 1.574 . S
C1296 H1290 0.949 . S
C1296 C1300 1.368 . S
C1297 C1278 1.429 . S
C1297 C1291 1.429 . S
C1297 C1298 1.523 . S
C1298 C1279 1.368 . S
C1298 C1292 1.368 . S
C1298 C1297 1.523 . S
C1299 C1283 1.429 . S
C1299 C1295 1.429 . S
C1299 C1300 1.523 . S
C1300 C1284 1.368 . S
C1300 C1296 1.368 . S
C1300 C1299 1.523 . S
H1301 C1276 0.950 . S
H1302 C1278 0.950 . S
H1303 C1279 0.949 . S
H1304 C1281 0.950 . S
H1305 C1283 0.950 . S
C1306 C1307 1.349 . S
C1306 C1308 1.327 . S
C1306 H1331 0.950 . S
C1307 C1306 1.349 . S
C1307 C1323 1.349 . S
C1308 C1306 1.327 . S
C1308 C1327 1.429 . S
C1308 H1332 0.950 . S
C1309 C1326 1.574 . S
C1309 C1328 1.368 . S
C1309 H1333 0.949 . S
H1310 C1314 0.949 . S
C1311 C1312 1.349 . S
C1311 C1313 1.327 . S
C1311 H1334 0.950 . S
C1312 C1311 1.349 . S
C1312 C1324 1.349 . S
C1313 C1311 1.327 . S
C1313 C1329 1.429 . S
C1313 H1335 0.950 . S
C1314 H1310 0.949 . S
C1314 C1322 1.574 . S
C1314 C1330 1.368 . S
H1315 C1323 0.950 . S
H1316 C1321 0.950 . S
H1317 C1322 0.949 . S
H1318 C1324 0.950 . S
H1319 C1325 0.950 . S
H1320 C1326 0.949 . S
C1321 H1316 0.950 . S
C1321 C1323 1.327 . S
C1321 C1327 1.429 . S
C1322 C1314 1.574 . S
C1322 H1317 0.949 . S
C1322 C1328 1.368 . S
C1323 C1307 1.349 . S
C1323 H1315 0.950 . S
C1323 C1321 1.327 . S
C1324 C1312 1.349 . S
C1324 H1318 0.950 . S
C1324 C1325 1.327 . S
C1325 H1319 0.950 . S
C1325 C1324 1.327 . S
C1325 C1329 1.429 . S
C1326 C1309 1.574 . S
C1326 H1320 0.949 . S
C1326 C1330 1.368 . S
C1327 C1308 1.429 . S
C1327 C1321 1.429 . S
C1327 C1328 1.523 . S
C1328 C1309 1.368 . S
C1328 C1322 1.368 . S
C1328 C1327 1.523 . S
C1329 C1313 1.429 . S
C1329 C1325 1.429 . S
C1329 C1330 1.523 . S
C1330 C1314 1.368 . S
C1330 C1326 1.368 . S
C1330 C1329 1.523 . S
H1331 C1306 0.950 . S
H1332 C1308 0.950 . S
H1333 C1309 0.949 . S
H1334 C1311 0.950 . S
H1335 C1313 0.950 . S
C1336 C1337 1.349 . S
C1336 C1338 1.327 . S
C1336 H1361 0.950 . S
C1337 C1336 1.349 . S
C1337 C1353 1.349 . S
C1338 C1336 1.327 . S
C1338 C1357 1.429 . S
C1338 H1362 0.950 . S
C1339 C1356 1.589 . S
C1339 C1358 1.368 . S
C1339 H1363 0.949 . S
H1340 C1344 0.949 . S
C1341 C1342 1.349 . S
C1341 C1343 1.327 . S
C1341 H1364 0.950 . S
C1342 C1341 1.349 . S
C1342 C1354 1.349 . S
C1343 C1341 1.327 . S
C1343 C1359 1.429 . S
C1343 H1365 0.950 . S
C1344 H1340 0.949 . S
C1344 C1352 1.574 . S
C1344 C1360 1.368 . S
H1345 C1353 0.950 . S
H1346 C1351 0.950 . S
H1347 C1352 0.949 . S
H1348 C1354 0.950 . S
H1349 C1355 0.950 1_655 S
H1350 C1356 0.924 1_455 S
C1351 H1346 0.950 . S
C1351 C1353 1.327 . S
C1351 C1357 1.429 . S
C1352 C1344 1.574 . S
C1352 H1347 0.949 . S
C1352 C1358 1.368 . S
C1353 C1337 1.349 . S
C1353 H1345 0.950 . S
C1353 C1351 1.327 . S
C1354 C1342 1.349 . S
C1354 H1348 0.950 . S
C1354 C1355 1.327 . S
C1355 H1349 0.950 1_455 S
C1355 C1354 1.327 . S
C1355 C1359 1.429 . S
C1356 C1339 1.589 . S
C1356 H1350 0.924 1_655 S
C1356 C1360 1.382 . S
C1357 C1338 1.429 . S
C1357 C1351 1.429 . S
C1357 C1358 1.523 . S
C1358 C1339 1.368 . S
C1358 C1352 1.368 . S
C1358 C1357 1.523 . S
C1359 C1343 1.429 . S
C1359 C1355 1.429 . S
C1359 C1360 1.523 1_455 S
C1360 C1344 1.368 . S
C1360 C1356 1.382 . S
C1360 C1359 1.523 1_655 S
H1361 C1336 0.950 . S
H1362 C1338 0.950 . S
H1363 C1339 0.949 . S
H1364 C1341 0.950 . S
H1365 C1343 0.950 . S
C1366 C1367 1.349 . S
C1366 C1368 1.327 . S
C1366 H1391 0.950 . S
C1367 C1366 1.349 . S
C1367 C1383 1.349 . S
C1368 C1366 1.327 . S
C1368 C1387 1.429 . S
C1368 H1392 0.950 . S
C1369 C1386 1.574 . S
C1369 C1388 1.368 . S
C1369 H1393 0.949 . S
H1370 C1374 0.949 . S
C1371 C1372 1.349 . S
C1371 C1373 1.327 . S
C1371 H1394 0.950 . S
C1372 C1371 1.349 . S
C1372 C1384 1.349 . S
C1373 C1371 1.327 . S
C1373 C1389 1.429 . S
C1373 H1395 0.950 . S
C1374 H1370 0.949 . S
C1374 C1382 1.574 . S
C1374 C1390 1.368 . S
H1375 C1383 0.950 . S
H1376 C1381 0.950 . S
H1377 C1382 0.949 . S
H1378 C1384 0.950 . S
H1379 C1385 0.950 . S
H1380 C1386 0.949 . S
C1381 H1376 0.950 . S
C1381 C1383 1.327 . S
C1381 C1387 1.429 . S
C1382 C1374 1.574 . S
C1382 H1377 0.949 . S
C1382 C1388 1.368 . S
C1383 C1367 1.349 . S
C1383 H1375 0.950 . S
C1383 C1381 1.327 . S
C1384 C1372 1.349 . S
C1384 H1378 0.950 . S
C1384 C1385 1.327 . S
C1385 H1379 0.950 . S
C1385 C1384 1.327 . S
C1385 C1389 1.429 . S
C1386 C1369 1.574 . S
C1386 H1380 0.949 . S
C1386 C1390 1.368 . S
C1387 C1368 1.429 . S
C1387 C1381 1.429 . S
C1387 C1388 1.523 . S
C1388 C1369 1.368 . S
C1388 C1382 1.368 . S
C1388 C1387 1.523 . S
C1389 C1373 1.429 . S
C1389 C1385 1.429 . S
C1389 C1390 1.523 . S
C1390 C1374 1.368 . S
C1390 C1386 1.368 . S
C1390 C1389 1.523 . S
H1391 C1366 0.950 . S
H1392 C1368 0.950 . S
H1393 C1369 0.949 . S
H1394 C1371 0.950 . S
H1395 C1373 0.950 . S
C1396 C1397 1.349 . S
C1396 C1398 1.327 . S
C1396 H1421 0.950 . S
C1397 C1396 1.349 . S
C1397 C1413 1.349 . S
C1398 C1396 1.327 . S
C1398 C1417 1.429 . S
C1398 H1422 0.950 . S
C1399 C1416 1.574 . S
C1399 C1418 1.368 . S
C1399 H1423 0.949 . S
H1400 C1404 0.949 . S
C1401 C1402 1.349 . S
C1401 C1403 1.327 . S
C1401 H1424 0.950 . S
C1402 C1401 1.349 . S
C1402 C1414 1.349 . S
C1403 C1401 1.327 . S
C1403 C1419 1.429 . S
C1403 H1425 0.950 . S
C1404 H1400 0.949 . S
C1404 C1412 1.574 . S
C1404 C1420 1.368 . S
H1405 C1413 0.950 . S
H1406 C1411 0.950 . S
H1407 C1412 0.949 . S
H1408 C1414 0.950 . S
H1409 C1415 0.950 . S
H1410 C1416 0.949 . S
C1411 H1406 0.950 . S
C1411 C1413 1.327 . S
C1411 C1417 1.429 . S
C1412 C1404 1.574 . S
C1412 H1407 0.949 . S
C1412 C1418 1.368 . S
C1413 C1397 1.349 . S
C1413 H1405 0.950 . S
C1413 C1411 1.327 . S
C1414 C1402 1.349 . S
C1414 H1408 0.950 . S
C1414 C1415 1.327 . S
C1415 H1409 0.950 . S
C1415 C1414 1.327 . S
C1415 C1419 1.429 . S
C1416 C1399 1.574 . S
C1416 H1410 0.949 . S
C1416 C1420 1.368 . S
C1417 C1398 1.429 . S
C1417 C1411 1.429 . S
C1417 C1418 1.523 . S
C1418 C1399 1.368 . S
C1418 C1412 1.368 . S
C1418 C1417 1.523 . S
C1419 C1403 1.429 . S
C1419 C1415 1.429 . S
C1419 C1420 1.523 . S
C1420 C1404 1.368 . S
C1420 C1416 1.368 . S
C1420 C1419 1.523 . S
H1421 C1396 0.950 . S
H1422 C1398 0.950 . S
H1423 C1399 0.949 . S
H1424 C1401 0.950 . S
H1425 C1403 0.950 . S
C1426 C1427 1.349 . S
C1426 C1428 1.327 . S
C1426 H1451 0.950 . S
C1427 C1426 1.349 . S
C1427 C1443 1.349 . S
C1428 C1426 1.327 . S
C1428 C1447 1.429 . S
C1428 H1452 0.950 . S
C1429 C1446 1.574 . S
C1429 C1448 1.368 . S
C1429 H1453 0.949 . S
H1430 C1434 0.949 . S
C1431 C1432 1.349 . S
C1431 C1433 1.327 . S
C1431 H1454 0.950 . S
C1432 C1431 1.349 . S
C1432 C1444 1.349 . S
C1433 C1431 1.327 . S
C1433 C1449 1.429 . S
C1433 H1455 0.950 . S
C1434 H1430 0.949 . S
C1434 C1442 1.574 . S
C1434 C1450 1.368 . S
H1435 C1443 0.950 . S
H1436 C1441 0.950 . S
H1437 C1442 0.949 . S
H1438 C1444 0.950 . S
H1439 C1445 0.950 . S
H1440 C1446 0.949 . S
C1441 H1436 0.950 . S
C1441 C1443 1.327 . S
C1441 C1447 1.429 . S
C1442 C1434 1.574 . S
C1442 H1437 0.949 . S
C1442 C1448 1.368 . S
C1443 C1427 1.349 . S
C1443 H1435 0.950 . S
C1443 C1441 1.327 . S
C1444 C1432 1.349 . S
C1444 H1438 0.950 . S
C1444 C1445 1.327 . S
C1445 H1439 0.950 . S
C1445 C1444 1.327 . S
C1445 C1449 1.429 . S
C1446 C1429 1.574 . S
C1446 H1440 0.949 . S
C1446 C1450 1.368 . S
C1447 C1428 1.429 . S
C1447 C1441 1.429 . S
C1447 C1448 1.523 . S
C1448 C1429 1.368 . S
C1448 C1442 1.368 . S
C1448 C1447 1.523 . S
C1449 C1433 1.429 . S
C1449 C1445 1.429 . S
C1449 C1450 1.523 . S
C1450 C1434 1.368 . S
C1450 C1446 1.368 . S
C1450 C1449 1.523 . S
H1451 C1426 0.950 . S
H1452 C1428 0.950 . S
H1453 C1429 0.949 . S
H1454 C1431 0.950 . S
H1455 C1433 0.950 . S
C1456 C1457 1.349 1_556 S
C1456 C1458 1.326 1_556 S
C1456 H1481 0.950 . S
C1457 C1456 1.349 1_554 S
C1457 C1473 1.349 . S
C1458 C1456 1.326 1_554 S
C1458 C1477 1.434 . S
C1458 H1482 0.945 1_554 S
C1459 C1476 1.574 . S
C1459 C1478 1.368 . S
C1459 H1483 0.949 . S
H1460 C1464 0.949 . S
C1461 C1462 1.349 . S
C1461 C1463 1.327 . S
C1461 H1484 0.949 . S
C1462 C1461 1.349 . S
C1462 C1474 1.349 . S
C1463 C1461 1.327 . S
C1463 C1479 1.429 . S
C1463 H1485 0.950 . S
C1464 H1460 0.949 . S
C1464 C1472 1.574 . S
C1464 C1480 1.368 . S
H1465 C1473 0.950 . S
H1466 C1471 0.950 . S
H1467 C1472 0.949 1_556 S
H1468 C1474 0.950 . S
H1469 C1475 0.950 . S
H1470 C1476 0.949 . S
C1471 H1466 0.950 . S
C1471 C1473 1.327 . S
C1471 C1477 1.429 . S
C1472 C1464 1.574 . S
C1472 H1467 0.949 1_554 S
C1472 C1478 1.368 . S
C1473 C1457 1.349 . S
C1473 H1465 0.950 . S
C1473 C1471 1.327 . S
C1474 C1462 1.349 . S
C1474 H1468 0.950 . S
C1474 C1475 1.327 . S
C1475 H1469 0.950 . S
C1475 C1474 1.327 . S
C1475 C1479 1.429 . S
C1476 C1459 1.574 . S
C1476 H1470 0.949 . S
C1476 C1480 1.368 . S
C1477 C1458 1.434 . S
C1477 C1471 1.429 . S
C1477 C1478 1.523 . S
C1478 C1459 1.368 . S
C1478 C1472 1.368 . S
C1478 C1477 1.523 . S
C1479 C1463 1.429 . S
C1479 C1475 1.429 . S
C1479 C1480 1.523 . S
C1480 C1464 1.368 . S
C1480 C1476 1.368 . S
C1480 C1479 1.523 . S
H1481 C1456 0.950 . S
H1482 C1458 0.945 1_556 S
H1483 C1459 0.949 . S
H1484 C1461 0.949 . S
H1485 C1463 0.950 . S
C1486 C1487 1.378 . S
C1486 C1488 1.327 . S
C1486 H1511 0.950 . S
C1487 C1486 1.378 . S
C1487 C1503 1.329 1_554 S
C1488 C1486 1.327 . S
C1488 C1507 1.429 . S
C1488 H1512 0.950 . S
C1489 C1506 1.574 . S
C1489 C1508 1.368 1_556 S
C1489 H1513 0.949 . S
H1490 C1494 0.949 . S
C1491 C1492 1.349 1_556 S
C1491 C1493 1.327 . S
C1491 H1514 0.950 . S
C1492 C1491 1.349 1_554 S
C1492 C1504 1.349 . S
C1493 C1491 1.327 . S
C1493 C1509 1.429 1_556 S
C1493 H1515 0.950 . S
C1494 H1490 0.949 . S
C1494 C1502 1.574 . S
C1494 C1510 1.368 . S
H1495 C1503 0.950 . S
H1496 C1501 0.950 . S
H1497 C1502 0.949 . S
H1498 C1504 0.950 . S
H1499 C1505 0.950 . S
H1500 C1506 0.949 . S
C1501 H1496 0.950 . S
C1501 C1503 1.327 . S
C1501 C1507 1.429 1_556 S
C1502 C1494 1.574 . S
C1502 H1497 0.949 . S
C1502 C1508 1.368 . S
C1503 C1487 1.329 1_556 S
C1503 H1495 0.950 . S
C1503 C1501 1.327 . S
C1504 C1492 1.349 . S
C1504 H1498 0.950 . S
C1504 C1505 1.327 . S
C1505 H1499 0.950 . S
C1505 C1504 1.327 . S
C1505 C1509 1.429 . S
C1506 C1489 1.574 . S
C1506 H1500 0.949 . S
C1506 C1510 1.368 1_556 S
C1507 C1488 1.429 . S
C1507 C1501 1.429 1_554 S
C1507 C1508 1.523 . S
C1508 C1489 1.368 1_554 S
C1508 C1502 1.368 . S
C1508 C1507 1.523 . S
C1509 C1493 1.429 1_554 S
C1509 C1505 1.429 . S
C1509 C1510 1.523 . S
C1510 C1494 1.368 . S
C1510 C1506 1.368 1_554 S
C1510 C1509 1.523 . S
H1511 C1486 0.950 . S
H1512 C1488 0.950 . S
H1513 C1489 0.949 . S
H1514 C1491 0.950 . S
H1515 C1493 0.950 . S
C1516 C1517 1.349 . S
C1516 C1518 1.327 . S
C1516 H1541 0.950 . S
C1517 C1516 1.349 . S
C1517 C1533 1.349 . S
C1518 C1516 1.327 . S
C1518 C1537 1.429 . S
C1518 H1542 0.950 . S
C1519 C1536 1.574 . S
C1519 C1538 1.368 . S
C1519 H1543 0.949 . S
H1520 C1524 0.949 . S
C1521 C1522 1.349 . S
C1521 C1523 1.327 . S
C1521 H1544 0.950 . S
C1522 C1521 1.349 . S
C1522 C1534 1.349 . S
C1523 C1521 1.327 . S
C1523 C1539 1.429 . S
C1523 H1545 0.950 . S
C1524 H1520 0.949 . S
C1524 C1532 1.574 . S
C1524 C1540 1.368 . S
H1525 C1533 0.950 . S
H1526 C1531 0.950 . S
H1527 C1532 0.949 . S
H1528 C1534 0.950 . S
H1529 C1535 0.950 . S
H1530 C1536 0.949 . S
C1531 H1526 0.950 . S
C1531 C1533 1.327 . S
C1531 C1537 1.429 . S
C1532 C1524 1.574 . S
C1532 H1527 0.949 . S
C1532 C1538 1.368 . S
C1533 C1517 1.349 . S
C1533 H1525 0.950 . S
C1533 C1531 1.327 . S
C1534 C1522 1.349 . S
C1534 H1528 0.950 . S
C1534 C1535 1.327 . S
C1535 H1529 0.950 . S
C1535 C1534 1.327 . S
C1535 C1539 1.429 . S
C1536 C1519 1.574 . S
C1536 H1530 0.949 . S
C1536 C1540 1.368 . S
C1537 C1518 1.429 . S
C1537 C1531 1.429 . S
C1537 C1538 1.523 . S
C1538 C1519 1.368 . S
C1538 C1532 1.368 . S
C1538 C1537 1.523 . S
C1539 C1523 1.429 . S
C1539 C1535 1.429 . S
C1539 C1540 1.523 . S
C1540 C1524 1.368 . S
C1540 C1536 1.368 . S
C1540 C1539 1.523 . S
H1541 C1516 0.950 . S
H1542 C1518 0.950 . S
H1543 C1519 0.949 . S
H1544 C1521 0.950 . S
H1545 C1523 0.950 . S
C1546 C1547 1.349 . S
C1546 C1548 1.327 . S
C1546 H1571 0.950 . S
C1547 C1546 1.349 . S
C1547 C1563 1.349 . S
C1548 C1546 1.327 . S
C1548 C1567 1.429 . S
C1548 H1572 0.950 . S
C1549 C1566 1.574 . S
C1549 C1568 1.368 . S
C1549 H1573 0.949 . S
H1550 C1554 0.949 . S
C1551 C1552 1.349 . S
C1551 C1553 1.327 . S
C1551 H1574 0.950 . S
C1552 C1551 1.349 . S
C1552 C1564 1.349 . S
C1553 C1551 1.327 . S
C1553 C1569 1.429 . S
C1553 H1575 0.950 . S
C1554 H1550 0.949 . S
C1554 C1562 1.574 . S
C1554 C1570 1.368 . S
H1555 C1563 0.950 . S
H1556 C1561 0.950 . S
H1557 C1562 0.949 . S
H1558 C1564 0.950 . S
H1559 C1565 0.950 . S
H1560 C1566 0.949 . S
C1561 H1556 0.950 . S
C1561 C1563 1.327 . S
C1561 C1567 1.429 . S
C1562 C1554 1.574 . S
C1562 H1557 0.949 . S
C1562 C1568 1.368 . S
C1563 C1547 1.349 . S
C1563 H1555 0.950 . S
C1563 C1561 1.327 . S
C1564 C1552 1.349 . S
C1564 H1558 0.950 . S
C1564 C1565 1.327 . S
C1565 H1559 0.950 . S
C1565 C1564 1.327 . S
C1565 C1569 1.429 . S
C1566 C1549 1.574 . S
C1566 H1560 0.949 . S
C1566 C1570 1.368 . S
C1567 C1548 1.429 . S
C1567 C1561 1.429 . S
C1567 C1568 1.523 . S
C1568 C1549 1.368 . S
C1568 C1562 1.368 . S
C1568 C1567 1.523 . S
C1569 C1553 1.429 . S
C1569 C1565 1.429 . S
C1569 C1570 1.523 . S
C1570 C1554 1.368 . S
C1570 C1566 1.368 . S
C1570 C1569 1.523 . S
H1571 C1546 0.950 . S
H1572 C1548 0.950 . S
H1573 C1549 0.949 . S
H1574 C1551 0.950 . S
H1575 C1553 0.950 . S
C1576 C1577 1.349 . S
C1576 C1578 1.327 . S
C1576 H1601 0.950 . S
C1577 C1576 1.349 . S
C1577 C1593 1.349 . S
C1578 C1576 1.327 . S
C1578 C1597 1.429 . S
C1578 H1602 0.950 . S
C1579 C1596 1.574 . S
C1579 C1598 1.368 . S
C1579 H1603 0.949 . S
H1580 C1584 0.949 . S
C1581 C1582 1.349 . S
C1581 C1583 1.327 . S
C1581 H1604 0.950 . S
C1582 C1581 1.349 . S
C1582 C1594 1.349 . S
C1583 C1581 1.327 . S
C1583 C1599 1.429 . S
C1583 H1605 0.950 . S
C1584 H1580 0.949 . S
C1584 C1592 1.574 . S
C1584 C1600 1.368 . S
H1585 C1593 0.950 . S
H1586 C1591 0.950 . S
H1587 C1592 0.949 . S
H1588 C1594 0.950 . S
H1589 C1595 0.950 . S
H1590 C1596 0.949 . S
C1591 H1586 0.950 . S
C1591 C1593 1.327 . S
C1591 C1597 1.429 . S
C1592 C1584 1.574 . S
C1592 H1587 0.949 . S
C1592 C1598 1.368 . S
C1593 C1577 1.349 . S
C1593 H1585 0.950 . S
C1593 C1591 1.327 . S
C1594 C1582 1.349 . S
C1594 H1588 0.950 . S
C1594 C1595 1.327 . S
C1595 H1589 0.950 . S
C1595 C1594 1.327 . S
C1595 C1599 1.429 . S
C1596 C1579 1.574 . S
C1596 H1590 0.949 . S
C1596 C1600 1.368 . S
C1597 C1578 1.429 . S
C1597 C1591 1.429 . S
C1597 C1598 1.523 . S
C1598 C1579 1.368 . S
C1598 C1592 1.368 . S
C1598 C1597 1.523 . S
C1599 C1583 1.429 . S
C1599 C1595 1.429 . S
C1599 C1600 1.523 . S
C1600 C1584 1.368 . S
C1600 C1596 1.368 . S
C1600 C1599 1.523 . S
H1601 C1576 0.950 . S
H1602 C1578 0.950 . S
H1603 C1579 0.949 . S
H1604 C1581 0.950 . S
H1605 C1583 0.950 . S
C1606 C1607 1.349 . S
C1606 C1608 1.327 . S
C1606 H1631 0.950 . S
C1607 C1606 1.349 . S
C1607 C1623 1.349 . S
C1608 C1606 1.327 . S
C1608 C1627 1.429 . S
C1608 H1632 0.950 . S
C1609 C1626 1.574 . S
C1609 C1628 1.368 . S
C1609 H1633 0.949 . S
H1610 C1614 0.949 . S
C1611 C1612 1.349 . S
C1611 C1613 1.327 . S
C1611 H1634 0.950 . S
C1612 C1611 1.349 . S
C1612 C1624 1.349 . S
C1613 C1611 1.327 . S
C1613 C1629 1.429 . S
C1613 H1635 0.950 . S
C1614 H1610 0.949 . S
C1614 C1622 1.574 . S
C1614 C1630 1.368 . S
H1615 C1623 0.950 . S
H1616 C1621 0.950 . S
H1617 C1622 0.949 . S
H1618 C1624 0.950 . S
H1619 C1625 0.950 . S
H1620 C1626 0.949 . S
C1621 H1616 0.950 . S
C1621 C1623 1.327 . S
C1621 C1627 1.429 . S
C1622 C1614 1.574 . S
C1622 H1617 0.949 . S
C1622 C1628 1.368 . S
C1623 C1607 1.349 . S
C1623 H1615 0.950 . S
C1623 C1621 1.327 . S
C1624 C1612 1.349 . S
C1624 H1618 0.950 . S
C1624 C1625 1.327 . S
C1625 H1619 0.950 . S
C1625 C1624 1.327 . S
C1625 C1629 1.429 . S
C1626 C1609 1.574 . S
C1626 H1620 0.949 . S
C1626 C1630 1.368 . S
C1627 C1608 1.429 . S
C1627 C1621 1.429 . S
C1627 C1628 1.523 . S
C1628 C1609 1.368 . S
C1628 C1622 1.368 . S
C1628 C1627 1.523 . S
C1629 C1613 1.429 . S
C1629 C1625 1.429 . S
C1629 C1630 1.523 . S
C1630 C1614 1.368 . S
C1630 C1626 1.368 . S
C1630 C1629 1.523 . S
H1631 C1606 0.950 . S
H1632 C1608 0.950 . S
H1633 C1609 0.949 . S
H1634 C1611 0.950 . S
H1635 C1613 0.950 . S
C1636 C1637 1.349 . S
C1636 C1638 1.327 . S
C1636 H1661 0.950 . S
C1637 C1636 1.349 . S
C1637 C1653 1.349 . S
C1638 C1636 1.327 . S
C1638 C1657 1.429 . S
C1638 H1662 0.950 . S
C1639 C1656 1.574 . S
C1639 C1658 1.368 . S
C1639 H1663 0.949 . S
H1640 C1644 0.949 . S
C1641 C1642 1.349 . S
C1641 C1643 1.327 . S
C1641 H1664 0.950 . S
C1642 C1641 1.349 . S
C1642 C1654 1.349 . S
C1643 C1641 1.327 . S
C1643 C1659 1.429 . S
C1643 H1665 0.950 . S
C1644 H1640 0.949 . S
C1644 C1652 1.574 . S
C1644 C1660 1.368 . S
H1645 C1653 0.950 . S
H1646 C1651 0.950 . S
H1647 C1652 0.949 . S
H1648 C1654 0.950 . S
H1649 C1655 0.950 . S
H1650 C1656 0.949 . S
C1651 H1646 0.950 . S
C1651 C1653 1.327 . S
C1651 C1657 1.429 . S
C1652 C1644 1.574 . S
C1652 H1647 0.949 . S
C1652 C1658 1.368 . S
C1653 C1637 1.349 . S
C1653 H1645 0.950 . S
C1653 C1651 1.327 . S
C1654 C1642 1.349 . S
C1654 H1648 0.950 . S
C1654 C1655 1.327 . S
C1655 H1649 0.950 . S
C1655 C1654 1.327 . S
C1655 C1659 1.429 . S
C1656 C1639 1.574 . S
C1656 H1650 0.949 . S
C1656 C1660 1.368 . S
C1657 C1638 1.429 . S
C1657 C1651 1.429 . S
C1657 C1658 1.523 . S
C1658 C1639 1.368 . S
C1658 C1652 1.368 . S
C1658 C1657 1.523 . S
C1659 C1643 1.429 . S
C1659 C1655 1.429 . S
C1659 C1660 1.523 . S
C1660 C1644 1.368 . S
C1660 C1656 1.368 . S
C1660 C1659 1.523 . S
H1661 C1636 0.950 . S
H1662 C1638 0.950 . S
H1663 C1639 0.949 . S
H1664 C1641 0.950 . S
H1665 C1643 0.950 . S
C1666 C1667 1.349 . S
C1666 C1668 1.327 . S
C1666 H1691 0.950 . S
C1667 C1666 1.349 . S
C1667 C1683 1.349 . S
C1668 C1666 1.327 . S
C1668 C1687 1.429 . S
C1668 H1692 0.950 . S
C1669 C1686 1.574 . S
C1669 C1688 1.368 . S
C1669 H1693 0.949 . S
H1670 C1674 0.949 . S
C1671 C1672 1.349 . S
C1671 C1673 1.327 . S
C1671 H1694 0.950 . S
C1672 C1671 1.349 . S
C1672 C1684 1.349 . S
C1673 C1671 1.327 . S
C1673 C1689 1.429 . S
C1673 H1695 0.950 . S
C1674 H1670 0.949 . S
C1674 C1682 1.574 . S
C1674 C1690 1.368 . S
H1675 C1683 0.950 . S
H1676 C1681 0.950 . S
H1677 C1682 0.949 . S
H1678 C1684 0.950 . S
H1679 C1685 0.950 . S
H1680 C1686 0.949 . S
C1681 H1676 0.950 . S
C1681 C1683 1.327 . S
C1681 C1687 1.429 . S
C1682 C1674 1.574 . S
C1682 H1677 0.949 . S
C1682 C1688 1.368 . S
C1683 C1667 1.349 . S
C1683 H1675 0.950 . S
C1683 C1681 1.327 . S
C1684 C1672 1.349 . S
C1684 H1678 0.950 . S
C1684 C1685 1.327 . S
C1685 H1679 0.950 . S
C1685 C1684 1.327 . S
C1685 C1689 1.429 . S
C1686 C1669 1.574 . S
C1686 H1680 0.949 . S
C1686 C1690 1.368 . S
C1687 C1668 1.429 . S
C1687 C1681 1.429 . S
C1687 C1688 1.523 . S
C1688 C1669 1.368 . S
C1688 C1682 1.368 . S
C1688 C1687 1.523 . S
C1689 C1673 1.429 . S
C1689 C1685 1.429 . S
C1689 C1690 1.523 . S
C1690 C1674 1.368 . S
C1690 C1686 1.368 . S
C1690 C1689 1.523 . S
H1691 C1666 0.950 . S
H1692 C1668 0.950 . S
H1693 C1669 0.949 . S
H1694 C1671 0.950 . S
H1695 C1673 0.950 . S
C1696 C1697 1.349 . S
C1696 C1698 1.327 . S
C1696 H1721 0.950 . S
C1697 C1696 1.349 . S
C1697 C1713 1.349 . S
C1698 C1696 1.327 . S
C1698 C1717 1.429 . S
C1698 H1722 0.950 . S
C1699 C1716 1.574 . S
C1699 C1718 1.368 . S
C1699 H1723 0.949 . S
H1700 C1704 0.949 . S
C1701 C1702 1.349 . S
C1701 C1703 1.327 . S
C1701 H1724 0.950 . S
C1702 C1701 1.349 . S
C1702 C1714 1.349 . S
C1703 C1701 1.327 . S
C1703 C1719 1.429 . S
C1703 H1725 0.950 . S
C1704 H1700 0.949 . S
C1704 C1712 1.574 . S
C1704 C1720 1.368 . S
H1705 C1713 0.950 . S
H1706 C1711 0.950 . S
H1707 C1712 0.949 . S
H1708 C1714 0.950 . S
H1709 C1715 0.950 . S
H1710 C1716 0.949 . S
C1711 H1706 0.950 . S
C1711 C1713 1.327 . S
C1711 C1717 1.429 . S
C1712 C1704 1.574 . S
C1712 H1707 0.949 . S
C1712 C1718 1.368 . S
C1713 C1697 1.349 . S
C1713 H1705 0.950 . S
C1713 C1711 1.327 . S
C1714 C1702 1.349 . S
C1714 H1708 0.950 . S
C1714 C1715 1.327 . S
C1715 H1709 0.950 . S
C1715 C1714 1.327 . S
C1715 C1719 1.429 . S
C1716 C1699 1.574 . S
C1716 H1710 0.949 . S
C1716 C1720 1.368 . S
C1717 C1698 1.429 . S
C1717 C1711 1.429 . S
C1717 C1718 1.523 . S
C1718 C1699 1.368 . S
C1718 C1712 1.368 . S
C1718 C1717 1.523 . S
C1719 C1703 1.429 . S
C1719 C1715 1.429 . S
C1719 C1720 1.523 . S
C1720 C1704 1.368 . S
C1720 C1716 1.368 . S
C1720 C1719 1.523 . S
H1721 C1696 0.950 . S
H1722 C1698 0.950 . S
H1723 C1699 0.949 . S
H1724 C1701 0.950 . S
H1725 C1703 0.950 . S
C1726 C1727 1.349 . S
C1726 C1728 1.327 . S
C1726 H1751 0.950 . S
C1727 C1726 1.349 . S
C1727 C1743 1.349 . S
C1728 C1726 1.327 . S
C1728 C1747 1.429 . S
C1728 H1752 0.950 . S
C1729 C1746 1.574 . S
C1729 C1748 1.368 . S
C1729 H1753 0.949 . S
H1730 C1734 0.949 . S
C1731 C1732 1.349 . S
C1731 C1733 1.327 . S
C1731 H1754 0.950 . S
C1732 C1731 1.349 . S
C1732 C1744 1.349 . S
C1733 C1731 1.327 . S
C1733 C1749 1.429 . S
C1733 H1755 0.950 . S
C1734 H1730 0.949 . S
C1734 C1742 1.574 . S
C1734 C1750 1.368 . S
H1735 C1743 0.950 . S
H1736 C1741 0.950 . S
H1737 C1742 0.949 . S
H1738 C1744 0.950 . S
H1739 C1745 0.950 . S
H1740 C1746 0.949 . S
C1741 H1736 0.950 . S
C1741 C1743 1.327 . S
C1741 C1747 1.429 . S
C1742 C1734 1.574 . S
C1742 H1737 0.949 . S
C1742 C1748 1.368 . S
C1743 C1727 1.349 . S
C1743 H1735 0.950 . S
C1743 C1741 1.327 . S
C1744 C1732 1.349 . S
C1744 H1738 0.950 . S
C1744 C1745 1.327 . S
C1745 H1739 0.950 . S
C1745 C1744 1.327 . S
C1745 C1749 1.429 . S
C1746 C1729 1.574 . S
C1746 H1740 0.949 . S
C1746 C1750 1.368 . S
C1747 C1728 1.429 . S
C1747 C1741 1.429 . S
C1747 C1748 1.523 . S
C1748 C1729 1.368 . S
C1748 C1742 1.368 . S
C1748 C1747 1.523 . S
C1749 C1733 1.429 . S
C1749 C1745 1.429 . S
C1749 C1750 1.523 . S
C1750 C1734 1.368 . S
C1750 C1746 1.368 . S
C1750 C1749 1.523 . S
H1751 C1726 0.950 . S
H1752 C1728 0.950 . S
H1753 C1729 0.949 . S
H1754 C1731 0.950 . S
H1755 C1733 0.950 . S
C1756 C1757 1.349 . S
C1756 C1758 1.327 . S
C1756 H1781 0.950 . S
C1757 C1756 1.349 . S
C1757 C1773 1.349 . S
C1758 C1756 1.327 . S
C1758 C1777 1.429 . S
C1758 H1782 0.950 . S
C1759 C1776 1.574 . S
C1759 C1778 1.368 . S
C1759 H1783 0.949 . S
H1760 C1764 0.949 . S
C1761 C1762 1.349 . S
C1761 C1763 1.327 . S
C1761 H1784 0.950 . S
C1762 C1761 1.349 . S
C1762 C1774 1.349 . S
C1763 C1761 1.327 . S
C1763 C1779 1.429 . S
C1763 H1785 0.950 . S
C1764 H1760 0.949 . S
C1764 C1772 1.574 . S
C1764 C1780 1.368 . S
H1765 C1773 0.950 . S
H1766 C1771 0.950 . S
H1767 C1772 0.949 . S
H1768 C1774 0.950 . S
H1769 C1775 0.950 . S
H1770 C1776 0.949 . S
C1771 H1766 0.950 . S
C1771 C1773 1.327 . S
C1771 C1777 1.429 . S
C1772 C1764 1.574 . S
C1772 H1767 0.949 . S
C1772 C1778 1.368 . S
C1773 C1757 1.349 . S
C1773 H1765 0.950 . S
C1773 C1771 1.327 . S
C1774 C1762 1.349 . S
C1774 H1768 0.950 . S
C1774 C1775 1.327 . S
C1775 H1769 0.950 . S
C1775 C1774 1.327 . S
C1775 C1779 1.429 . S
C1776 C1759 1.574 . S
C1776 H1770 0.949 . S
C1776 C1780 1.368 . S
C1777 C1758 1.429 . S
C1777 C1771 1.429 . S
C1777 C1778 1.523 . S
C1778 C1759 1.368 . S
C1778 C1772 1.368 . S
C1778 C1777 1.523 . S
C1779 C1763 1.429 . S
C1779 C1775 1.429 . S
C1779 C1780 1.523 . S
C1780 C1764 1.368 . S
C1780 C1776 1.368 . S
C1780 C1779 1.523 . S
H1781 C1756 0.950 . S
H1782 C1758 0.950 . S
H1783 C1759 0.949 . S
H1784 C1761 0.950 . S
H1785 C1763 0.950 . S
C1786 C1787 1.349 . S
C1786 C1788 1.327 . S
C1786 H1811 0.950 . S
C1787 C1786 1.349 . S
C1787 C1803 1.349 . S
C1788 C1786 1.327 . S
C1788 C1807 1.429 . S
C1788 H1812 0.950 . S
C1789 C1806 1.574 . S
C1789 C1808 1.368 . S
C1789 H1813 0.949 . S
H1790 C1794 0.949 . S
C1791 C1792 1.349 . S
C1791 C1793 1.327 . S
C1791 H1814 0.950 . S
C1792 C1791 1.349 . S
C1792 C1804 1.349 . S
C1793 C1791 1.327 . S
C1793 C1809 1.429 . S
C1793 H1815 0.950 . S
C1794 H1790 0.949 . S
C1794 C1802 1.574 . S
C1794 C1810 1.368 . S
H1795 C1803 0.950 . S
H1796 C1801 0.950 . S
H1797 C1802 0.949 . S
H1798 C1804 0.950 . S
H1799 C1805 0.950 . S
H1800 C1806 0.949 . S
C1801 H1796 0.950 . S
C1801 C1803 1.327 . S
C1801 C1807 1.429 . S
C1802 C1794 1.574 . S
C1802 H1797 0.949 . S
C1802 C1808 1.368 . S
C1803 C1787 1.349 . S
C1803 H1795 0.950 . S
C1803 C1801 1.327 . S
C1804 C1792 1.349 . S
C1804 H1798 0.950 . S
C1804 C1805 1.327 . S
C1805 H1799 0.950 . S
C1805 C1804 1.327 . S
C1805 C1809 1.429 . S
C1806 C1789 1.574 . S
C1806 H1800 0.949 . S
C1806 C1810 1.368 . S
C1807 C1788 1.429 . S
C1807 C1801 1.429 . S
C1807 C1808 1.523 . S
C1808 C1789 1.368 . S
C1808 C1802 1.368 . S
C1808 C1807 1.523 . S
C1809 C1793 1.429 . S
C1809 C1805 1.429 . S
C1809 C1810 1.523 . S
C1810 C1794 1.368 . S
C1810 C1806 1.368 . S
C1810 C1809 1.523 . S
H1811 C1786 0.950 . S
H1812 C1788 0.950 . S
H1813 C1789 0.949 . S
H1814 C1791 0.950 . S
H1815 C1793 0.950 . S
C1816 C1817 1.349 . S
C1816 C1818 1.327 . S
C1816 H1841 0.950 . S
C1817 C1816 1.349 . S
C1817 C1833 1.349 . S
C1818 C1816 1.327 . S
C1818 C1837 1.429 . S
C1818 H1842 0.950 . S
C1819 C1836 1.574 . S
C1819 C1838 1.368 . S
C1819 H1843 0.949 . S
H1820 C1824 0.949 . S
C1821 C1822 1.349 . S
C1821 C1823 1.327 . S
C1821 H1844 0.950 . S
C1822 C1821 1.349 . S
C1822 C1834 1.349 . S
C1823 C1821 1.327 . S
C1823 C1839 1.429 . S
C1823 H1845 0.950 . S
C1824 H1820 0.949 . S
C1824 C1832 1.574 . S
C1824 C1840 1.368 . S
H1825 C1833 0.950 . S
H1826 C1831 0.950 . S
H1827 C1832 0.949 . S
H1828 C1834 0.950 . S
H1829 C1835 0.950 . S
H1830 C1836 0.949 . S
C1831 H1826 0.950 . S
C1831 C1833 1.327 . S
C1831 C1837 1.429 . S
C1832 C1824 1.574 . S
C1832 H1827 0.949 . S
C1832 C1838 1.368 . S
C1833 C1817 1.349 . S
C1833 H1825 0.950 . S
C1833 C1831 1.327 . S
C1834 C1822 1.349 . S
C1834 H1828 0.950 . S
C1834 C1835 1.327 . S
C1835 H1829 0.950 . S
C1835 C1834 1.327 . S
C1835 C1839 1.429 . S
C1836 C1819 1.574 . S
C1836 H1830 0.949 . S
C1836 C1840 1.368 . S
C1837 C1818 1.429 . S
C1837 C1831 1.429 . S
C1837 C1838 1.523 . S
C1838 C1819 1.368 . S
C1838 C1832 1.368 . S
C1838 C1837 1.523 . S
C1839 C1823 1.429 . S
C1839 C1835 1.429 . S
C1839 C1840 1.523 . S
C1840 C1824 1.368 . S
C1840 C1836 1.368 . S
C1840 C1839 1.523 . S
H1841 C1816 0.950 . S
H1842 C1818 0.950 . S
H1843 C1819 0.949 . S
H1844 C1821 0.950 . S
H1845 C1823 0.950 . S
C1846 C1847 1.349 . S
C1846 C1848 1.327 . S
C1846 H1871 0.950 . S
C1847 C1846 1.349 . S
C1847 C1863 1.349 . S
C1848 C1846 1.327 . S
C1848 C1867 1.429 . S
C1848 H1872 0.950 . S
C1849 C1866 1.574 . S
C1849 C1868 1.368 . S
C1849 H1873 0.949 . S
H1850 C1854 0.949 . S
C1851 C1852 1.349 . S
C1851 C1853 1.327 . S
C1851 H1874 0.950 . S
C1852 C1851 1.349 . S
C1852 C1864 1.349 . S
C1853 C1851 1.327 . S
C1853 C1869 1.429 . S
C1853 H1875 0.950 . S
C1854 H1850 0.949 . S
C1854 C1862 1.574 . S
C1854 C1870 1.368 . S
H1855 C1863 0.950 . S
H1856 C1861 0.950 . S
H1857 C1862 0.949 . S
H1858 C1864 0.950 . S
H1859 C1865 0.950 . S
H1860 C1866 0.949 . S
C1861 H1856 0.950 . S
C1861 C1863 1.327 . S
C1861 C1867 1.429 . S
C1862 C1854 1.574 . S
C1862 H1857 0.949 . S
C1862 C1868 1.368 . S
C1863 C1847 1.349 . S
C1863 H1855 0.950 . S
C1863 C1861 1.327 . S
C1864 C1852 1.349 . S
C1864 H1858 0.950 . S
C1864 C1865 1.327 . S
C1865 H1859 0.950 . S
C1865 C1864 1.327 . S
C1865 C1869 1.429 . S
C1866 C1849 1.574 . S
C1866 H1860 0.949 . S
C1866 C1870 1.368 . S
C1867 C1848 1.429 . S
C1867 C1861 1.429 . S
C1867 C1868 1.523 . S
C1868 C1849 1.368 . S
C1868 C1862 1.368 . S
C1868 C1867 1.523 . S
C1869 C1853 1.429 . S
C1869 C1865 1.429 . S
C1869 C1870 1.523 . S
C1870 C1854 1.368 . S
C1870 C1866 1.368 . S
C1870 C1869 1.523 . S
H1871 C1846 0.950 . S
H1872 C1848 0.950 . S
H1873 C1849 0.949 . S
H1874 C1851 0.950 . S
H1875 C1853 0.950 . S
C1876 C1877 1.349 . S
C1876 C1878 1.327 . S
C1876 H1901 0.950 . S
C1877 C1876 1.349 . S
C1877 C1893 1.349 . S
C1878 C1876 1.327 . S
C1878 C1897 1.429 . S
C1878 H1902 0.950 . S
C1879 C1896 1.574 . S
C1879 C1898 1.368 . S
C1879 H1903 0.949 . S
H1880 C1884 0.949 . S
C1881 C1882 1.349 . S
C1881 C1883 1.327 . S
C1881 H1904 0.950 . S
C1882 C1881 1.349 . S
C1882 C1894 1.349 . S
C1883 C1881 1.327 . S
C1883 C1899 1.429 . S
C1883 H1905 0.950 . S
C1884 H1880 0.949 . S
C1884 C1892 1.574 . S
C1884 C1900 1.368 . S
H1885 C1893 0.950 . S
H1886 C1891 0.950 . S
H1887 C1892 0.949 . S
H1888 C1894 0.950 1_554 S
H1889 C1895 0.950 . S
H1890 C1896 0.949 . S
C1891 H1886 0.950 . S
C1891 C1893 1.327 . S
C1891 C1897 1.429 . S
C1892 C1884 1.574 . S
C1892 H1887 0.949 . S
C1892 C1898 1.368 . S
C1893 C1877 1.349 . S
C1893 H1885 0.950 . S
C1893 C1891 1.327 . S
C1894 C1882 1.349 . S
C1894 H1888 0.950 1_556 S
C1894 C1895 1.327 . S
C1895 H1889 0.950 . S
C1895 C1894 1.327 . S
C1895 C1899 1.429 . S
C1896 C1879 1.574 . S
C1896 H1890 0.949 . S
C1896 C1900 1.368 . S
C1897 C1878 1.429 . S
C1897 C1891 1.429 . S
C1897 C1898 1.523 . S
C1898 C1879 1.368 . S
C1898 C1892 1.368 . S
C1898 C1897 1.523 . S
C1899 C1883 1.429 . S
C1899 C1895 1.429 . S
C1899 C1900 1.523 . S
C1900 C1884 1.368 . S
C1900 C1896 1.368 . S
C1900 C1899 1.523 . S
H1901 C1876 0.950 . S
H1902 C1878 0.950 . S
H1903 C1879 0.949 . S
H1904 C1881 0.950 . S
H1905 C1883 0.950 . S
C1906 C1907 1.349 . S
C1906 C1908 1.327 . S
C1906 H1931 0.950 . S
C1907 C1906 1.349 . S
C1907 C1923 1.349 . S
C1908 C1906 1.327 . S
C1908 C1927 1.429 . S
C1908 H1932 0.950 . S
C1909 C1926 1.574 . S
C1909 C1928 1.368 . S
C1909 H1933 0.949 . S
H1910 C1914 0.949 . S
C1911 C1912 1.349 . S
C1911 C1913 1.327 . S
C1911 H1934 0.950 . S
C1912 C1911 1.349 . S
C1912 C1924 1.349 . S
C1913 C1911 1.327 . S
C1913 C1929 1.429 . S
C1913 H1935 0.950 . S
C1914 H1910 0.949 . S
C1914 C1922 1.574 . S
C1914 C1930 1.368 . S
H1915 C1923 0.950 . S
H1916 C1921 0.950 . S
H1917 C1922 0.949 . S
H1918 C1924 0.950 . S
H1919 C1925 0.950 . S
H1920 C1926 0.949 . S
C1921 H1916 0.950 . S
C1921 C1923 1.327 . S
C1921 C1927 1.429 . S
C1922 C1914 1.574 . S
C1922 H1917 0.949 . S
C1922 C1928 1.368 . S
C1923 C1907 1.349 . S
C1923 H1915 0.950 . S
C1923 C1921 1.327 . S
C1924 C1912 1.349 . S
C1924 H1918 0.950 . S
C1924 C1925 1.327 . S
C1925 H1919 0.950 . S
C1925 C1924 1.327 . S
C1925 C1929 1.429 . S
C1926 C1909 1.574 . S
C1926 H1920 0.949 . S
C1926 C1930 1.368 . S
C1927 C1908 1.429 . S
C1927 C1921 1.429 . S
C1927 C1928 1.523 . S
C1928 C1909 1.368 . S
C1928 C1922 1.368 . S
C1928 C1927 1.523 . S
C1929 C1913 1.429 . S
C1929 C1925 1.429 . S
C1929 C1930 1.523 . S
C1930 C1914 1.368 . S
C1930 C1926 1.368 . S
C1930 C1929 1.523 . S
H1931 C1906 0.950 . S
H1932 C1908 0.950 . S
H1933 C1909 0.949 . S
H1934 C1911 0.950 . S
H1935 C1913 0.950 . S
C1936 C1937 1.349 . S
C1936 C1938 1.327 . S
C1936 H1961 0.950 . S
C1937 C1936 1.349 . S
C1937 C1953 1.349 1_545 S
C1938 C1936 1.327 . S
C1938 C1957 1.429 . S
C1938 H1962 0.950 . S
C1939 C1956 1.574 . S
C1939 C1958 1.368 1_565 S
C1939 H1963 0.949 . S
H1940 C1944 0.949 . S
C1941 C1942 1.349 . S
C1941 C1943 1.327 . S
C1941 H1964 0.950 1_545 S
C1942 C1941 1.349 . S
C1942 C1954 1.349 . S
C1943 C1941 1.327 . S
C1943 C1959 1.429 . S
C1943 H1965 0.950 1_545 S
C1944 H1940 0.949 . S
C1944 C1952 1.574 . S
C1944 C1960 1.368 . S
H1945 C1953 0.950 . S
H1946 C1951 0.950 . S
H1947 C1952 0.949 . S
H1948 C1954 0.950 . S
H1949 C1955 0.950 . S
H1950 C1956 0.949 . S
C1951 H1946 0.950 . S
C1951 C1953 1.327 . S
C1951 C1957 1.429 1_565 S
C1952 C1944 1.574 . S
C1952 H1947 0.949 . S
C1952 C1958 1.368 . S
C1953 C1937 1.349 1_565 S
C1953 H1945 0.950 . S
C1953 C1951 1.327 . S
C1954 C1942 1.349 . S
C1954 H1948 0.950 . S
C1954 C1955 1.327 . S
C1955 H1949 0.950 . S
C1955 C1954 1.327 . S
C1955 C1959 1.429 . S
C1956 C1939 1.574 . S
C1956 H1950 0.949 . S
C1956 C1960 1.368 1_565 S
C1957 C1938 1.429 . S
C1957 C1951 1.429 1_545 S
C1957 C1958 1.523 . S
C1958 C1939 1.368 1_545 S
C1958 C1952 1.368 . S
C1958 C1957 1.523 . S
C1959 C1943 1.429 . S
C1959 C1955 1.429 . S
C1959 C1960 1.523 . S
C1960 C1944 1.368 . S
C1960 C1956 1.368 1_545 S
C1960 C1959 1.523 . S
H1961 C1936 0.950 . S
H1962 C1938 0.950 . S
H1963 C1939 0.949 . S
H1964 C1941 0.950 1_565 S
H1965 C1943 0.950 1_565 S
C1966 C1967 1.349 . S
C1966 C1968 1.327 . S
C1966 H1991 0.950 . S
C1967 C1966 1.349 . S
C1967 C1983 1.349 . S
C1968 C1966 1.327 . S
C1968 C1987 1.429 . S
C1968 H1992 0.950 . S
C1969 C1986 1.574 . S
C1969 C1988 1.368 . S
C1969 H1993 0.949 . S
H1970 C1974 0.949 . S
C1971 C1972 1.349 . S
C1971 C1973 1.327 . S
C1971 H1994 0.950 . S
C1972 C1971 1.349 . S
C1972 C1984 1.349 . S
C1973 C1971 1.327 . S
C1973 C1989 1.429 . S
C1973 H1995 0.950 . S
C1974 H1970 0.949 . S
C1974 C1982 1.574 . S
C1974 C1990 1.368 . S
H1975 C1983 0.950 . S
H1976 C1981 0.950 . S
H1977 C1982 0.949 . S
H1978 C1984 0.950 . S
H1979 C1985 0.950 . S
H1980 C1986 0.949 . S
C1981 H1976 0.950 . S
C1981 C1983 1.327 . S
C1981 C1987 1.429 . S
C1982 C1974 1.574 . S
C1982 H1977 0.949 . S
C1982 C1988 1.368 . S
C1983 C1967 1.349 . S
C1983 H1975 0.950 . S
C1983 C1981 1.327 . S
C1984 C1972 1.349 . S
C1984 H1978 0.950 . S
C1984 C1985 1.327 . S
C1985 H1979 0.950 . S
C1985 C1984 1.327 . S
C1985 C1989 1.429 . S
C1986 C1969 1.574 . S
C1986 H1980 0.949 . S
C1986 C1990 1.368 . S
C1987 C1968 1.429 . S
C1987 C1981 1.429 . S
C1987 C1988 1.523 . S
C1988 C1969 1.368 . S
C1988 C1982 1.368 . S
C1988 C1987 1.523 . S
C1989 C1973 1.429 . S
C1989 C1985 1.429 . S
C1989 C1990 1.523 . S
C1990 C1974 1.368 . S
C1990 C1986 1.368 . S
C1990 C1989 1.523 . S
H1991 C1966 0.950 . S
H1992 C1968 0.950 . S
H1993 C1969 0.949 . S
H1994 C1971 0.950 . S
H1995 C1973 0.950 . S
C1996 C1997 1.349 . S
C1996 C1998 1.327 . S
C1996 H2021 0.950 . S
C1997 C1996 1.349 . S
C1997 C2013 1.341 1_545 S
C1998 C1996 1.327 . S
C1998 C2017 1.429 . S
C1998 H2022 0.950 . S
C1999 C2016 1.574 . S
C1999 C2018 1.368 . S
C1999 H2023 0.949 1_545 S
H2000 C2004 0.949 . S
C2001 C2002 1.349 . S
C2001 C2003 1.327 . S
C2001 H2024 0.950 . S
C2002 C2001 1.349 . S
C2002 C2014 1.349 . S
C2003 C2001 1.327 . S
C2003 C2019 1.429 . S
C2003 H2025 0.950 . S
C2004 H2000 0.949 . S
C2004 C2012 1.574 . S
C2004 C2020 1.368 . S
H2005 C2013 0.956 . S
H2006 C2011 0.950 1_565 S
H2007 C2012 0.949 . S
H2008 C2014 0.950 . S
H2009 C2015 0.950 . S
H2010 C2016 0.928 1_565 S
C2011 H2006 0.950 1_545 S
C2011 C2013 1.329 1_545 S
C2011 C2017 1.429 . S
C2012 C2004 1.574 . S
C2012 H2007 0.949 . S
C2012 C2018 1.368 . S
C2013 C1997 1.341 1_565 S
C2013 H2005 0.956 . S
C2013 C2011 1.329 1_565 S
C2014 C2002 1.349 . S
C2014 H2008 0.950 . S
C2014 C2015 1.327 . S
C2015 H2009 0.950 . S
C2015 C2014 1.327 . S
C2015 C2019 1.429 . S
C2016 C1999 1.574 . S
C2016 H2010 0.928 1_545 S
C2016 C2020 1.368 . S
C2017 C1998 1.429 . S
C2017 C2011 1.429 . S
C2017 C2018 1.523 . S
C2018 C1999 1.368 . S
C2018 C2012 1.368 . S
C2018 C2017 1.523 . S
C2019 C2003 1.429 . S
C2019 C2015 1.429 . S
C2019 C2020 1.523 . S
C2020 C2004 1.368 . S
C2020 C2016 1.368 . S
C2020 C2019 1.523 . S
H2021 C1996 0.950 . S
H2022 C1998 0.950 . S
H2023 C1999 0.949 1_565 S
H2024 C2001 0.950 . S
H2025 C2003 0.950 . S
C2026 C2027 1.349 . S
C2026 C2028 1.327 . S
C2026 H2051 0.950 . S
C2027 C2026 1.349 . S
C2027 C2043 1.349 . S
C2028 C2026 1.327 . S
C2028 C2047 1.429 . S
C2028 H2052 0.950 . S
C2029 C2046 1.574 . S
C2029 C2048 1.368 . S
C2029 H2053 0.949 . S
H2030 C2034 0.949 . S
C2031 C2032 1.349 . S
C2031 C2033 1.327 . S
C2031 H2054 0.950 . S
C2032 C2031 1.349 . S
C2032 C2044 1.349 . S
C2033 C2031 1.327 . S
C2033 C2049 1.429 . S
C2033 H2055 0.950 . S
C2034 H2030 0.949 . S
C2034 C2042 1.574 . S
C2034 C2050 1.368 . S
H2035 C2043 0.950 . S
H2036 C2041 0.950 . S
H2037 C2042 0.949 . S
H2038 C2044 0.950 . S
H2039 C2045 0.950 . S
H2040 C2046 0.949 . S
C2041 H2036 0.950 . S
C2041 C2043 1.327 . S
C2041 C2047 1.429 . S
C2042 C2034 1.574 . S
C2042 H2037 0.949 . S
C2042 C2048 1.368 . S
C2043 C2027 1.349 . S
C2043 H2035 0.950 . S
C2043 C2041 1.327 . S
C2044 C2032 1.349 . S
C2044 H2038 0.950 . S
C2044 C2045 1.327 . S
C2045 H2039 0.950 . S
C2045 C2044 1.327 . S
C2045 C2049 1.429 . S
C2046 C2029 1.574 . S
C2046 H2040 0.949 . S
C2046 C2050 1.368 . S
C2047 C2028 1.429 . S
C2047 C2041 1.429 . S
C2047 C2048 1.523 . S
C2048 C2029 1.368 . S
C2048 C2042 1.368 . S
C2048 C2047 1.523 . S
C2049 C2033 1.429 . S
C2049 C2045 1.429 . S
C2049 C2050 1.523 . S
C2050 C2034 1.368 . S
C2050 C2046 1.368 . S
C2050 C2049 1.523 . S
H2051 C2026 0.950 . S
H2052 C2028 0.950 . S
H2053 C2029 0.949 . S
H2054 C2031 0.950 . S
H2055 C2033 0.950 . S
C2056 C2057 1.349 . S
C2056 C2058 1.327 . S
C2056 H2081 0.950 . S
C2057 C2056 1.349 . S
C2057 C2073 1.349 1_565 S
C2058 C2056 1.327 . S
C2058 C2077 1.429 1_565 S
C2058 H2082 0.950 . S
C2059 C2076 1.574 . S
C2059 C2078 1.368 . S
C2059 H2083 0.949 . S
H2060 C2064 0.949 . S
C2061 C2062 1.349 . S
C2061 C2063 1.327 . S
C2061 H2084 0.950 . S
C2062 C2061 1.349 . S
C2062 C2074 1.349 . S
C2063 C2061 1.327 . S
C2063 C2079 1.429 . S
C2063 H2085 0.950 . S
C2064 H2060 0.949 . S
C2064 C2072 1.574 . S
C2064 C2080 1.368 1_565 S
H2065 C2073 0.950 . S
H2066 C2071 0.950 . S
H2067 C2072 0.949 . S
H2068 C2074 0.950 1_565 S
H2069 C2075 0.900 1_565 S
H2070 C2076 0.949 . S
C2071 H2066 0.950 . S
C2071 C2073 1.327 . S
C2071 C2077 1.429 . S
C2072 C2064 1.574 . S
C2072 H2067 0.949 . S
C2072 C2078 1.368 1_565 S
C2073 C2057 1.349 1_545 S
C2073 H2065 0.950 . S
C2073 C2071 1.327 . S
C2074 C2062 1.349 . S
C2074 H2068 0.950 1_545 S
C2074 C2075 1.349 . S
C2075 H2069 0.900 1_545 S
C2075 C2074 1.349 . S
C2075 C2079 1.457 . S
C2076 C2059 1.574 . S
C2076 H2070 0.949 . S
C2076 C2080 1.368 . S
C2077 C2058 1.429 1_545 S
C2077 C2071 1.429 . S
C2077 C2078 1.523 . S
C2078 C2059 1.368 . S
C2078 C2072 1.368 1_545 S
C2078 C2077 1.523 . S
C2079 C2063 1.429 . S
C2079 C2075 1.457 . S
C2079 C2080 1.523 . S
C2080 C2064 1.368 1_545 S
C2080 C2076 1.368 . S
C2080 C2079 1.523 . S
H2081 C2056 0.950 . S
H2082 C2058 0.950 . S
H2083 C2059 0.949 . S
H2084 C2061 0.950 . S
H2085 C2063 0.950 . S
C2086 C2087 1.349 . S
C2086 C2088 1.327 . S
C2086 H2111 0.950 . S
C2087 C2086 1.349 . S
C2087 C2103 1.349 . S
C2088 C2086 1.327 . S
C2088 C2107 1.429 . S
C2088 H2112 0.950 . S
C2089 C2106 1.574 . S
C2089 C2108 1.368 . S
C2089 H2113 0.949 . S
H2090 C2094 0.949 . S
C2091 C2092 1.349 . S
C2091 C2093 1.327 . S
C2091 H2114 0.950 . S
C2092 C2091 1.349 . S
C2092 C2104 1.349 . S
C2093 C2091 1.327 . S
C2093 C2109 1.429 . S
C2093 H2115 0.950 . S
C2094 H2090 0.949 . S
C2094 C2102 1.574 . S
C2094 C2110 1.368 . S
H2095 C2103 0.950 . S
H2096 C2101 0.950 . S
H2097 C2102 0.949 . S
H2098 C2104 0.950 . S
H2099 C2105 0.950 . S
H2100 C2106 0.949 . S
C2101 H2096 0.950 . S
C2101 C2103 1.327 . S
C2101 C2107 1.429 . S
C2102 C2094 1.574 . S
C2102 H2097 0.949 . S
C2102 C2108 1.368 . S
C2103 C2087 1.349 . S
C2103 H2095 0.950 . S
C2103 C2101 1.327 . S
C2104 C2092 1.349 . S
C2104 H2098 0.950 . S
C2104 C2105 1.327 . S
C2105 H2099 0.950 . S
C2105 C2104 1.327 . S
C2105 C2109 1.429 . S
C2106 C2089 1.574 . S
C2106 H2100 0.949 . S
C2106 C2110 1.368 . S
C2107 C2088 1.429 . S
C2107 C2101 1.429 . S
C2107 C2108 1.523 . S
C2108 C2089 1.368 . S
C2108 C2102 1.368 . S
C2108 C2107 1.523 . S
C2109 C2093 1.429 . S
C2109 C2105 1.429 . S
C2109 C2110 1.523 . S
C2110 C2094 1.368 . S
C2110 C2106 1.368 . S
C2110 C2109 1.523 . S
H2111 C2086 0.950 . S
H2112 C2088 0.950 . S
H2113 C2089 0.949 . S
H2114 C2091 0.950 . S
H2115 C2093 0.950 . S
C2116 C2117 1.349 . S
C2116 C2118 1.327 . S
C2116 H2141 0.950 . S
C2117 C2116 1.349 . S
C2117 C2133 1.349 1_545 S
C2118 C2116 1.327 . S
C2118 C2137 1.455 . S
C2118 H2142 0.950 . S
C2119 C2136 1.574 . S
C2119 C2138 1.414 . S
C2119 H2143 0.949 . S
H2120 C2124 0.949 . S
C2121 C2122 1.349 . S
C2121 C2123 1.327 . S
C2121 H2144 0.950 . S
C2122 C2121 1.349 . S
C2122 C2134 1.349 1_565 S
C2123 C2121 1.327 . S
C2123 C2139 1.429 . S
C2123 H2145 0.950 . S
C2124 H2120 0.949 . S
C2124 C2132 1.574 . S
C2124 C2140 1.368 1_545 S
H2125 C2133 0.950 . S
H2126 C2131 0.950 . S
H2127 C2132 0.949 . S
H2128 C2134 0.950 . S
H2129 C2135 0.950 . S
H2130 C2136 0.949 . S
C2131 H2126 0.950 . S
C2131 C2133 1.327 . S
C2131 C2137 1.404 1_565 S
C2132 C2124 1.574 . S
C2132 H2127 0.949 . S
C2132 C2138 1.326 1_545 S
C2133 C2117 1.349 1_565 S
C2133 H2125 0.950 . S
C2133 C2131 1.327 . S
C2134 C2122 1.349 1_545 S
C2134 H2128 0.950 . S
C2134 C2135 1.327 . S
C2135 H2129 0.950 . S
C2135 C2134 1.327 . S
C2135 C2139 1.429 1_545 S
C2136 C2119 1.574 . S
C2136 H2130 0.949 . S
C2136 C2140 1.368 . S
C2137 C2118 1.455 . S
C2137 C2131 1.404 1_545 S
C2137 C2138 1.523 1_545 S
C2138 C2119 1.414 . S
C2138 C2132 1.326 1_565 S
C2138 C2137 1.523 1_565 S
C2139 C2123 1.429 . S
C2139 C2135 1.429 1_565 S
C2139 C2140 1.523 . S
C2140 C2124 1.368 1_565 S
C2140 C2136 1.368 . S
C2140 C2139 1.523 . S
H2141 C2116 0.950 . S
H2142 C2118 0.950 . S
H2143 C2119 0.949 . S
H2144 C2121 0.950 . S
H2145 C2123 0.950 . S
C2146 C2147 1.349 . S
C2146 C2148 1.327 . S
C2146 H2171 0.950 . S
C2147 C2146 1.349 . S
C2147 C2163 1.349 . S
C2148 C2146 1.327 . S
C2148 C2167 1.429 . S
C2148 H2172 0.950 . S
C2149 C2166 1.574 . S
C2149 C2168 1.368 . S
C2149 H2173 0.949 . S
H2150 C2154 0.949 . S
C2151 C2152 1.349 . S
C2151 C2153 1.327 . S
C2151 H2174 0.950 . S
C2152 C2151 1.349 . S
C2152 C2164 1.349 . S
C2153 C2151 1.327 . S
C2153 C2169 1.429 . S
C2153 H2175 0.950 . S
C2154 H2150 0.949 . S
C2154 C2162 1.574 . S
C2154 C2170 1.368 . S
H2155 C2163 0.950 . S
H2156 C2161 0.950 . S
H2157 C2162 0.949 . S
H2158 C2164 0.950 . S
H2159 C2165 0.950 . S
H2160 C2166 0.949 . S
C2161 H2156 0.950 . S
C2161 C2163 1.327 . S
C2161 C2167 1.429 . S
C2162 C2154 1.574 . S
C2162 H2157 0.949 . S
C2162 C2168 1.368 . S
C2163 C2147 1.349 . S
C2163 H2155 0.950 . S
C2163 C2161 1.327 . S
C2164 C2152 1.349 . S
C2164 H2158 0.950 . S
C2164 C2165 1.327 . S
C2165 H2159 0.950 . S
C2165 C2164 1.327 . S
C2165 C2169 1.429 . S
C2166 C2149 1.574 . S
C2166 H2160 0.949 . S
C2166 C2170 1.368 . S
C2167 C2148 1.429 . S
C2167 C2161 1.429 . S
C2167 C2168 1.523 . S
C2168 C2149 1.368 . S
C2168 C2162 1.368 . S
C2168 C2167 1.523 . S
C2169 C2153 1.429 . S
C2169 C2165 1.429 . S
C2169 C2170 1.523 . S
C2170 C2154 1.368 . S
C2170 C2166 1.368 . S
C2170 C2169 1.523 . S
H2171 C2146 0.950 . S
H2172 C2148 0.950 . S
H2173 C2149 0.949 . S
H2174 C2151 0.950 . S
H2175 C2153 0.950 . S
C2176 C2177 1.349 1_556 S
C2176 C2178 1.327 . S
C2176 H2201 0.950 . S
C2177 C2176 1.349 1_554 S
C2177 C2193 1.349 . S
C2178 C2176 1.327 . S
C2178 C2197 1.429 1_556 S
C2178 H2202 0.950 . S
C2179 C2196 1.574 . S
C2179 C2198 1.368 1_554 S
C2179 H2203 0.949 . S
H2180 C2184 0.949 . S
C2181 C2182 1.349 . S
C2181 C2183 1.327 . S
C2181 H2204 0.950 . S
C2182 C2181 1.349 . S
C2182 C2194 1.349 . S
C2183 C2181 1.327 . S
C2183 C2199 1.429 . S
C2183 H2205 0.940 1_556 S
C2184 H2180 0.949 . S
C2184 C2192 1.574 . S
C2184 C2200 1.368 . S
H2185 C2193 0.950 . S
H2186 C2191 0.950 . S
H2187 C2192 0.949 . S
H2188 C2194 0.950 . S
H2189 C2195 0.950 . S
H2190 C2196 0.949 . S
C2191 H2186 0.950 . S
C2191 C2193 1.327 . S
C2191 C2197 1.429 . S
C2192 C2184 1.574 . S
C2192 H2187 0.949 . S
C2192 C2198 1.368 . S
C2193 C2177 1.349 . S
C2193 H2185 0.950 . S
C2193 C2191 1.327 . S
C2194 C2182 1.349 . S
C2194 H2188 0.950 . S
C2194 C2195 1.327 . S
C2195 H2189 0.950 . S
C2195 C2194 1.327 . S
C2195 C2199 1.429 . S
C2196 C2179 1.574 . S
C2196 H2190 0.949 . S
C2196 C2200 1.368 1_554 S
C2197 C2178 1.429 1_554 S
C2197 C2191 1.429 . S
C2197 C2198 1.523 1_554 S
C2198 C2179 1.368 1_556 S
C2198 C2192 1.368 . S
C2198 C2197 1.523 1_556 S
C2199 C2183 1.429 . S
C2199 C2195 1.429 . S
C2199 C2200 1.523 . S
C2200 C2184 1.368 . S
C2200 C2196 1.368 1_556 S
C2200 C2199 1.523 . S
H2201 C2176 0.950 . S
H2202 C2178 0.950 . S
H2203 C2179 0.949 . S
H2204 C2181 0.950 . S
H2205 C2183 0.940 1_554 S
C2206 C2207 1.349 . S
C2206 C2208 1.327 . S
C2206 H2231 0.950 . S
C2207 C2206 1.349 . S
C2207 C2223 1.349 . S
C2208 C2206 1.327 . S
C2208 C2227 1.429 . S
C2208 H2232 0.950 . S
C2209 C2226 1.574 . S
C2209 C2228 1.368 . S
C2209 H2233 0.949 1_554 S
H2210 C2214 0.949 . S
C2211 C2212 1.349 . S
C2211 C2213 1.327 . S
C2211 H2234 0.950 1_554 S
C2212 C2211 1.349 . S
C2212 C2224 1.349 . S
C2213 C2211 1.327 . S
C2213 C2229 1.429 . S
C2213 H2235 0.950 1_554 S
C2214 H2210 0.949 . S
C2214 C2222 1.574 . S
C2214 C2230 1.368 . S
H2215 C2223 0.950 1_556 S
H2216 C2221 0.950 1_556 S
H2217 C2222 0.949 . S
H2218 C2224 0.950 . S
H2219 C2225 0.950 . S
H2220 C2226 0.949 1_556 S
C2221 H2216 0.950 1_554 S
C2221 C2223 1.327 . S
C2221 C2227 1.429 . S
C2222 C2214 1.574 . S
C2222 H2217 0.949 . S
C2222 C2228 1.368 . S
C2223 C2207 1.349 . S
C2223 H2215 0.950 1_554 S
C2223 C2221 1.327 . S
C2224 C2212 1.349 . S
C2224 H2218 0.950 . S
C2224 C2225 1.327 . S
C2225 H2219 0.950 . S
C2225 C2224 1.327 . S
C2225 C2229 1.429 . S
C2226 C2209 1.574 . S
C2226 H2220 0.949 1_554 S
C2226 C2230 1.368 . S
C2227 C2208 1.429 . S
C2227 C2221 1.429 . S
C2227 C2228 1.523 . S
C2228 C2209 1.368 . S
C2228 C2222 1.368 . S
C2228 C2227 1.523 . S
C2229 C2213 1.429 . S
C2229 C2225 1.429 . S
C2229 C2230 1.523 . S
C2230 C2214 1.368 . S
C2230 C2226 1.368 . S
C2230 C2229 1.523 . S
H2231 C2206 0.950 . S
H2232 C2208 0.950 . S
H2233 C2209 0.949 1_556 S
H2234 C2211 0.950 1_556 S
H2235 C2213 0.950 1_556 S
C2236 C2237 1.349 . S
C2236 C2238 1.327 . S
C2236 H2261 0.950 . S
C2237 C2236 1.349 . S
C2237 C2253 1.349 . S
C2238 C2236 1.327 . S
C2238 C2257 1.429 . S
C2238 H2262 0.950 . S
C2239 C2256 1.574 . S
C2239 C2258 1.368 . S
C2239 H2263 0.949 . S
H2240 C2244 0.949 . S
C2241 C2242 1.349 . S
C2241 C2243 1.327 . S
C2241 H2264 0.950 . S
C2242 C2241 1.349 . S
C2242 C2254 1.349 . S
C2243 C2241 1.327 . S
C2243 C2259 1.429 . S
C2243 H2265 0.950 . S
C2244 H2240 0.949 . S
C2244 C2252 1.574 . S
C2244 C2260 1.368 . S
H2245 C2253 0.950 . S
H2246 C2251 0.950 . S
H2247 C2252 0.949 . S
H2248 C2254 0.950 . S
H2249 C2255 0.950 . S
H2250 C2256 0.949 . S
C2251 H2246 0.950 . S
C2251 C2253 1.327 . S
C2251 C2257 1.429 . S
C2252 C2244 1.574 . S
C2252 H2247 0.949 . S
C2252 C2258 1.368 . S
C2253 C2237 1.349 . S
C2253 H2245 0.950 . S
C2253 C2251 1.327 . S
C2254 C2242 1.349 . S
C2254 H2248 0.950 . S
C2254 C2255 1.327 . S
C2255 H2249 0.950 . S
C2255 C2254 1.327 . S
C2255 C2259 1.429 . S
C2256 C2239 1.574 . S
C2256 H2250 0.949 . S
C2256 C2260 1.368 . S
C2257 C2238 1.429 . S
C2257 C2251 1.429 . S
C2257 C2258 1.523 . S
C2258 C2239 1.368 . S
C2258 C2252 1.368 . S
C2258 C2257 1.523 . S
C2259 C2243 1.429 . S
C2259 C2255 1.429 . S
C2259 C2260 1.523 . S
C2260 C2244 1.368 . S
C2260 C2256 1.368 . S
C2260 C2259 1.523 . S
H2261 C2236 0.950 . S
H2262 C2238 0.950 . S
H2263 C2239 0.949 . S
H2264 C2241 0.950 . S
H2265 C2243 0.950 . S
C2266 C2267 1.349 . S
C2266 C2268 1.327 . S
C2266 H2291 0.950 . S
C2267 C2266 1.349 . S
C2267 C2283 1.349 . S
C2268 C2266 1.327 . S
C2268 C2287 1.429 . S
C2268 H2292 0.950 . S
C2269 C2286 1.574 . S
C2269 C2288 1.368 . S
C2269 H2293 0.949 . S
H2270 C2274 0.949 . S
C2271 C2272 1.349 . S
C2271 C2273 1.327 . S
C2271 H2294 0.950 . S
C2272 C2271 1.349 . S
C2272 C2284 1.349 . S
C2273 C2271 1.327 . S
C2273 C2289 1.429 . S
C2273 H2295 0.950 . S
C2274 H2270 0.949 . S
C2274 C2282 1.574 . S
C2274 C2290 1.368 . S
H2275 C2283 0.950 . S
H2276 C2281 0.950 . S
H2277 C2282 0.949 . S
H2278 C2284 0.950 . S
H2279 C2285 0.950 . S
H2280 C2286 0.949 . S
C2281 H2276 0.950 . S
C2281 C2283 1.327 . S
C2281 C2287 1.429 . S
C2282 C2274 1.574 . S
C2282 H2277 0.949 . S
C2282 C2288 1.368 . S
C2283 C2267 1.349 . S
C2283 H2275 0.950 . S
C2283 C2281 1.327 . S
C2284 C2272 1.349 . S
C2284 H2278 0.950 . S
C2284 C2285 1.327 . S
C2285 H2279 0.950 . S
C2285 C2284 1.327 . S
C2285 C2289 1.429 . S
C2286 C2269 1.574 . S
C2286 H2280 0.949 . S
C2286 C2290 1.368 . S
C2287 C2268 1.429 . S
C2287 C2281 1.429 . S
C2287 C2288 1.523 . S
C2288 C2269 1.368 . S
C2288 C2282 1.368 . S
C2288 C2287 1.523 . S
C2289 C2273 1.429 . S
C2289 C2285 1.429 . S
C2289 C2290 1.523 . S
C2290 C2274 1.368 . S
C2290 C2286 1.368 . S
C2290 C2289 1.523 . S
H2291 C2266 0.950 . S
H2292 C2268 0.950 . S
H2293 C2269 0.949 . S
H2294 C2271 0.950 . S
H2295 C2273 0.950 . S
C2296 C2297 1.349 1_565 S
C2296 C2298 1.327 . S
C2296 H2321 0.950 1_565 S
C2297 C2296 1.349 1_545 S
C2297 C2313 1.349 1_545 S
C2298 C2296 1.327 . S
C2298 C2317 1.429 . S
C2298 H2322 0.950 . S
C2299 C2316 1.574 . S
C2299 C2318 1.368 . S
C2299 H2323 0.949 . S
H2300 C2304 0.949 . S
C2301 C2302 1.349 . S
C2301 C2303 1.327 . S
C2301 H2324 0.950 . S
C2302 C2301 1.349 . S
C2302 C2314 1.349 . S
C2303 C2301 1.327 . S
C2303 C2319 1.429 . S
C2303 H2325 0.950 . S
C2304 H2300 0.949 . S
C2304 C2312 1.574 . S
C2304 C2320 1.368 . S
H2305 C2313 0.959 . S
H2306 C2311 0.950 . S
H2307 C2312 0.949 . S
H2308 C2314 0.950 . S
H2309 C2315 0.950 . S
H2310 C2316 0.949 . S
C2311 H2306 0.950 . S
C2311 C2313 1.327 . S
C2311 C2317 1.429 . S
C2312 C2304 1.574 . S
C2312 H2307 0.949 . S
C2312 C2318 1.368 . S
C2313 C2297 1.349 1_565 S
C2313 H2305 0.959 . S
C2313 C2311 1.327 . S
C2314 C2302 1.349 . S
C2314 H2308 0.950 . S
C2314 C2315 1.327 . S
C2315 H2309 0.950 . S
C2315 C2314 1.327 . S
C2315 C2319 1.429 . S
C2316 C2299 1.574 . S
C2316 H2310 0.949 . S
C2316 C2320 1.368 . S
C2317 C2298 1.429 . S
C2317 C2311 1.429 . S
C2317 C2318 1.523 . S
C2318 C2299 1.368 . S
C2318 C2312 1.368 . S
C2318 C2317 1.523 . S
C2319 C2303 1.429 . S
C2319 C2315 1.429 . S
C2319 C2320 1.523 . S
C2320 C2304 1.368 . S
C2320 C2316 1.368 . S
C2320 C2319 1.523 . S
H2321 C2296 0.950 1_545 S
H2322 C2298 0.950 . S
H2323 C2299 0.949 . S
H2324 C2301 0.950 . S
H2325 C2303 0.950 . S
C2326 C2327 1.349 . S
C2326 C2328 1.327 . S
C2326 H2351 0.950 . S
C2327 C2326 1.349 . S
C2327 C2343 1.349 . S
C2328 C2326 1.327 . S
C2328 C2347 1.429 . S
C2328 H2352 0.950 . S
C2329 C2346 1.574 . S
C2329 C2348 1.368 . S
C2329 H2353 0.949 . S
H2330 C2334 0.949 . S
C2331 C2332 1.349 . S
C2331 C2333 1.327 . S
C2331 H2354 0.950 . S
C2332 C2331 1.349 . S
C2332 C2344 1.349 . S
C2333 C2331 1.327 . S
C2333 C2349 1.429 . S
C2333 H2355 0.950 . S
C2334 H2330 0.949 . S
C2334 C2342 1.574 . S
C2334 C2350 1.368 . S
H2335 C2343 0.950 . S
H2336 C2341 0.950 . S
H2337 C2342 0.949 . S
H2338 C2344 0.950 . S
H2339 C2345 0.950 . S
H2340 C2346 0.949 . S
C2341 H2336 0.950 . S
C2341 C2343 1.327 . S
C2341 C2347 1.429 . S
C2342 C2334 1.574 . S
C2342 H2337 0.949 . S
C2342 C2348 1.368 . S
C2343 C2327 1.349 . S
C2343 H2335 0.950 . S
C2343 C2341 1.327 . S
C2344 C2332 1.349 . S
C2344 H2338 0.950 . S
C2344 C2345 1.327 . S
C2345 H2339 0.950 . S
C2345 C2344 1.327 . S
C2345 C2349 1.429 . S
C2346 C2329 1.574 . S
C2346 H2340 0.949 . S
C2346 C2350 1.368 . S
C2347 C2328 1.429 . S
C2347 C2341 1.429 . S
C2347 C2348 1.523 . S
C2348 C2329 1.368 . S
C2348 C2342 1.368 . S
C2348 C2347 1.523 . S
C2349 C2333 1.429 . S
C2349 C2345 1.429 . S
C2349 C2350 1.523 . S
C2350 C2334 1.368 . S
C2350 C2346 1.368 . S
C2350 C2349 1.523 . S
H2351 C2326 0.950 . S
H2352 C2328 0.950 . S
H2353 C2329 0.949 . S
H2354 C2331 0.950 . S
H2355 C2333 0.950 . S
C2356 C2357 1.349 . S
C2356 C2358 1.327 . S
C2356 H2381 0.950 . S
C2357 C2356 1.349 . S
C2357 C2373 1.349 . S
C2358 C2356 1.327 . S
C2358 C2377 1.429 . S
C2358 H2382 0.950 . S
C2359 C2376 1.574 . S
C2359 C2378 1.368 . S
C2359 H2383 0.949 . S
H2360 C2364 0.949 . S
C2361 C2362 1.349 . S
C2361 C2363 1.327 . S
C2361 H2384 0.950 . S
C2362 C2361 1.349 . S
C2362 C2374 1.349 . S
C2363 C2361 1.327 . S
C2363 C2379 1.429 . S
C2363 H2385 0.950 . S
C2364 H2360 0.949 . S
C2364 C2372 1.574 . S
C2364 C2380 1.368 . S
H2365 C2373 0.950 . S
H2366 C2371 0.950 . S
H2367 C2372 0.949 . S
H2368 C2374 0.950 . S
H2369 C2375 0.950 . S
H2370 C2376 0.949 . S
C2371 H2366 0.950 . S
C2371 C2373 1.327 . S
C2371 C2377 1.429 . S
C2372 C2364 1.574 . S
C2372 H2367 0.949 . S
C2372 C2378 1.368 . S
C2373 C2357 1.349 . S
C2373 H2365 0.950 . S
C2373 C2371 1.327 . S
C2374 C2362 1.349 . S
C2374 H2368 0.950 . S
C2374 C2375 1.327 . S
C2375 H2369 0.950 . S
C2375 C2374 1.327 . S
C2375 C2379 1.429 . S
C2376 C2359 1.574 . S
C2376 H2370 0.949 . S
C2376 C2380 1.368 . S
C2377 C2358 1.429 . S
C2377 C2371 1.429 . S
C2377 C2378 1.523 . S
C2378 C2359 1.368 . S
C2378 C2372 1.368 . S
C2378 C2377 1.523 . S
C2379 C2363 1.429 . S
C2379 C2375 1.429 . S
C2379 C2380 1.523 . S
C2380 C2364 1.368 . S
C2380 C2376 1.368 . S
C2380 C2379 1.523 . S
H2381 C2356 0.950 . S
H2382 C2358 0.950 . S
H2383 C2359 0.949 . S
H2384 C2361 0.950 . S
H2385 C2363 0.950 . S
C2386 C2387 1.349 . S
C2386 C2388 1.327 . S
C2386 H2411 0.950 . S
C2387 C2386 1.349 . S
C2387 C2403 1.349 . S
C2388 C2386 1.327 . S
C2388 C2407 1.429 . S
C2388 H2412 0.950 . S
C2389 C2406 1.574 . S
C2389 C2408 1.368 . S
C2389 H2413 0.949 . S
H2390 C2394 0.949 . S
C2391 C2392 1.349 . S
C2391 C2393 1.327 . S
C2391 H2414 0.950 . S
C2392 C2391 1.349 . S
C2392 C2404 1.349 . S
C2393 C2391 1.327 . S
C2393 C2409 1.429 . S
C2393 H2415 0.950 . S
C2394 H2390 0.949 . S
C2394 C2402 1.574 . S
C2394 C2410 1.368 . S
H2395 C2403 0.950 . S
H2396 C2401 0.950 . S
H2397 C2402 0.949 . S
H2398 C2404 0.950 . S
H2399 C2405 0.950 . S
H2400 C2406 0.949 . S
C2401 H2396 0.950 . S
C2401 C2403 1.327 . S
C2401 C2407 1.429 . S
C2402 C2394 1.574 . S
C2402 H2397 0.949 . S
C2402 C2408 1.368 . S
C2403 C2387 1.349 . S
C2403 H2395 0.950 . S
C2403 C2401 1.327 . S
C2404 C2392 1.349 . S
C2404 H2398 0.950 . S
C2404 C2405 1.327 . S
C2405 H2399 0.950 . S
C2405 C2404 1.327 . S
C2405 C2409 1.429 . S
C2406 C2389 1.574 . S
C2406 H2400 0.949 . S
C2406 C2410 1.368 . S
C2407 C2388 1.429 . S
C2407 C2401 1.429 . S
C2407 C2408 1.523 . S
C2408 C2389 1.368 . S
C2408 C2402 1.368 . S
C2408 C2407 1.523 . S
C2409 C2393 1.429 . S
C2409 C2405 1.429 . S
C2409 C2410 1.523 . S
C2410 C2394 1.368 . S
C2410 C2406 1.368 . S
C2410 C2409 1.523 . S
H2411 C2386 0.950 . S
H2412 C2388 0.950 . S
H2413 C2389 0.949 . S
H2414 C2391 0.950 . S
H2415 C2393 0.950 . S
C2416 C2417 1.349 . S
C2416 C2418 1.327 . S
C2416 H2441 0.950 . S
C2417 C2416 1.349 . S
C2417 C2433 1.349 . S
C2418 C2416 1.327 . S
C2418 C2437 1.429 . S
C2418 H2442 0.950 . S
C2419 C2436 1.574 . S
C2419 C2438 1.368 . S
C2419 H2443 0.949 . S
H2420 C2424 0.949 . S
C2421 C2422 1.349 . S
C2421 C2423 1.327 . S
C2421 H2444 0.950 . S
C2422 C2421 1.349 . S
C2422 C2434 1.349 . S
C2423 C2421 1.327 . S
C2423 C2439 1.429 . S
C2423 H2445 0.950 . S
C2424 H2420 0.949 . S
C2424 C2432 1.574 . S
C2424 C2440 1.368 . S
H2425 C2433 0.950 . S
H2426 C2431 0.950 . S
H2427 C2432 0.949 . S
H2428 C2434 0.950 . S
H2429 C2435 0.950 . S
H2430 C2436 0.949 . S
C2431 H2426 0.950 . S
C2431 C2433 1.327 . S
C2431 C2437 1.429 . S
C2432 C2424 1.574 . S
C2432 H2427 0.949 . S
C2432 C2438 1.368 . S
C2433 C2417 1.349 . S
C2433 H2425 0.950 . S
C2433 C2431 1.327 . S
C2434 C2422 1.349 . S
C2434 H2428 0.950 . S
C2434 C2435 1.327 . S
C2435 H2429 0.950 . S
C2435 C2434 1.327 . S
C2435 C2439 1.429 . S
C2436 C2419 1.574 . S
C2436 H2430 0.949 . S
C2436 C2440 1.368 . S
C2437 C2418 1.429 . S
C2437 C2431 1.429 . S
C2437 C2438 1.523 . S
C2438 C2419 1.368 . S
C2438 C2432 1.368 . S
C2438 C2437 1.523 . S
C2439 C2423 1.429 . S
C2439 C2435 1.429 . S
C2439 C2440 1.523 . S
C2440 C2424 1.368 . S
C2440 C2436 1.368 . S
C2440 C2439 1.523 . S
H2441 C2416 0.950 . S
H2442 C2418 0.950 . S
H2443 C2419 0.949 . S
H2444 C2421 0.950 . S
H2445 C2423 0.950 . S
C2446 C2447 1.349 . S
C2446 C2448 1.327 . S
C2446 H2471 0.950 . S
C2447 C2446 1.349 . S
C2447 C2463 1.349 . S
C2448 C2446 1.327 . S
C2448 C2467 1.429 . S
C2448 H2472 0.950 . S
C2449 C2466 1.574 . S
C2449 C2468 1.368 . S
C2449 H2473 0.949 . S
H2450 C2454 0.949 . S
C2451 C2452 1.349 . S
C2451 C2453 1.327 . S
C2451 H2474 0.950 . S
C2452 C2451 1.349 . S
C2452 C2464 1.349 . S
C2453 C2451 1.327 . S
C2453 C2469 1.429 . S
C2453 H2475 0.950 . S
C2454 H2450 0.949 . S
C2454 C2462 1.574 . S
C2454 C2470 1.368 . S
H2455 C2463 0.950 . S
H2456 C2461 0.950 . S
H2457 C2462 0.949 . S
H2458 C2464 0.950 . S
H2459 C2465 0.950 . S
H2460 C2466 0.949 . S
C2461 H2456 0.950 . S
C2461 C2463 1.327 . S
C2461 C2467 1.429 . S
C2462 C2454 1.574 . S
C2462 H2457 0.949 . S
C2462 C2468 1.368 . S
C2463 C2447 1.349 . S
C2463 H2455 0.950 . S
C2463 C2461 1.327 . S
C2464 C2452 1.349 . S
C2464 H2458 0.950 . S
C2464 C2465 1.327 . S
C2465 H2459 0.950 . S
C2465 C2464 1.327 . S
C2465 C2469 1.429 . S
C2466 C2449 1.574 . S
C2466 H2460 0.949 . S
C2466 C2470 1.368 . S
C2467 C2448 1.429 . S
C2467 C2461 1.429 . S
C2467 C2468 1.523 . S
C2468 C2449 1.368 . S
C2468 C2462 1.368 . S
C2468 C2467 1.523 . S
C2469 C2453 1.429 . S
C2469 C2465 1.429 . S
C2469 C2470 1.523 . S
C2470 C2454 1.368 . S
C2470 C2466 1.368 . S
C2470 C2469 1.523 . S
H2471 C2446 0.950 . S
H2472 C2448 0.950 . S
H2473 C2449 0.949 . S
H2474 C2451 0.950 . S
H2475 C2453 0.950 . S
C2476 C2477 1.349 . S
C2476 C2478 1.327 . S
C2476 H2501 0.950 . S
C2477 C2476 1.349 . S
C2477 C2493 1.349 . S
C2478 C2476 1.327 . S
C2478 C2497 1.429 . S
C2478 H2502 0.950 . S
C2479 C2496 1.574 . S
C2479 C2498 1.368 . S
C2479 H2503 0.949 . S
H2480 C2484 0.949 . S
C2481 C2482 1.377 . S
C2481 C2483 1.327 . S
C2481 H2504 0.950 . S
C2482 C2481 1.377 . S
C2482 C2494 1.310 1_554 S
C2483 C2481 1.327 . S
C2483 C2499 1.429 1_554 S
C2483 H2505 0.950 . S
C2484 H2480 0.949 . S
C2484 C2492 1.574 . S
C2484 C2500 1.368 . S
H2485 C2493 0.950 . S
H2486 C2491 0.950 . S
H2487 C2492 0.949 . S
H2488 C2494 0.950 . S
H2489 C2495 0.950 . S
H2490 C2496 0.982 . S
C2491 H2486 0.950 . S
C2491 C2493 1.327 . S
C2491 C2497 1.429 . S
C2492 C2484 1.574 . S
C2492 H2487 0.949 . S
C2492 C2498 1.368 . S
C2493 C2477 1.349 . S
C2493 H2485 0.950 . S
C2493 C2491 1.327 . S
C2494 C2482 1.310 1_556 S
C2494 H2488 0.950 . S
C2494 C2495 1.327 . S
C2495 H2489 0.950 . S
C2495 C2494 1.327 . S
C2495 C2499 1.429 . S
C2496 C2479 1.574 . S
C2496 H2490 0.982 . S
C2496 C2500 1.368 . S
C2497 C2478 1.429 . S
C2497 C2491 1.429 . S
C2497 C2498 1.523 . S
C2498 C2479 1.368 . S
C2498 C2492 1.368 . S
C2498 C2497 1.523 . S
C2499 C2483 1.429 1_556 S
C2499 C2495 1.429 . S
C2499 C2500 1.523 . S
C2500 C2484 1.368 . S
C2500 C2496 1.368 . S
C2500 C2499 1.523 . S
H2501 C2476 0.950 . S
H2502 C2478 0.950 . S
H2503 C2479 0.949 . S
H2504 C2481 0.950 . S
H2505 C2483 0.950 . S
C2506 C2507 1.349 . S
C2506 C2508 1.327 1_455 S
C2506 H2531 0.950 . S
C2507 C2506 1.349 . S
C2507 C2523 1.349 . S
C2508 C2506 1.327 1_655 S
C2508 C2527 1.429 . S
C2508 H2532 0.950 . S
C2509 C2526 1.574 . S
C2509 C2528 1.368 . S
C2509 H2533 0.949 . S
H2510 C2514 0.949 . S
C2511 C2512 1.349 . S
C2511 C2513 1.327 . S
C2511 H2534 0.950 . S
C2512 C2511 1.349 . S
C2512 C2524 1.349 . S
C2513 C2511 1.327 . S
C2513 C2529 1.429 . S
C2513 H2535 0.950 . S
C2514 H2510 0.949 . S
C2514 C2522 1.574 . S
C2514 C2530 1.368 . S
H2515 C2523 0.950 . S
H2516 C2521 0.950 . S
H2517 C2522 0.949 . S
H2518 C2524 0.950 . S
H2519 C2525 0.950 . S
H2520 C2526 0.949 . S
C2521 H2516 0.950 . S
C2521 C2523 1.327 1_655 S
C2521 C2527 1.429 . S
C2522 C2514 1.574 . S
C2522 H2517 0.949 . S
C2522 C2528 1.368 . S
C2523 C2507 1.349 . S
C2523 H2515 0.950 . S
C2523 C2521 1.327 1_455 S
C2524 C2512 1.349 . S
C2524 H2518 0.950 . S
C2524 C2525 1.327 . S
C2525 H2519 0.950 . S
C2525 C2524 1.327 . S
C2525 C2529 1.429 . S
C2526 C2509 1.574 . S
C2526 H2520 0.949 . S
C2526 C2530 1.368 . S
C2527 C2508 1.429 . S
C2527 C2521 1.429 . S
C2527 C2528 1.523 . S
C2528 C2509 1.368 . S
C2528 C2522 1.368 . S
C2528 C2527 1.523 . S
C2529 C2513 1.429 . S
C2529 C2525 1.429 . S
C2529 C2530 1.523 . S
C2530 C2514 1.368 . S
C2530 C2526 1.368 . S
C2530 C2529 1.523 . S
H2531 C2506 0.950 . S
H2532 C2508 0.950 . S
H2533 C2509 0.949 . S
H2534 C2511 0.950 . S
H2535 C2513 0.950 . S
C2536 C2537 1.349 . S
C2536 C2538 1.327 . S
C2536 H2561 0.950 . S
C2537 C2536 1.349 . S
C2537 C2553 1.349 . S
C2538 C2536 1.327 . S
C2538 C2557 1.429 . S
C2538 H2562 0.950 . S
C2539 C2556 1.574 . S
C2539 C2558 1.368 . S
C2539 H2563 0.949 . S
H2540 C2544 0.949 . S
C2541 C2542 1.349 . S
C2541 C2543 1.327 . S
C2541 H2564 0.950 . S
C2542 C2541 1.349 . S
C2542 C2554 1.349 . S
C2543 C2541 1.327 . S
C2543 C2559 1.429 . S
C2543 H2565 0.950 . S
C2544 H2540 0.949 . S
C2544 C2552 1.574 . S
C2544 C2560 1.368 . S
H2545 C2553 0.950 . S
H2546 C2551 0.950 . S
H2547 C2552 0.949 . S
H2548 C2554 0.950 . S
H2549 C2555 0.950 . S
H2550 C2556 0.949 . S
C2551 H2546 0.950 . S
C2551 C2553 1.327 . S
C2551 C2557 1.429 . S
C2552 C2544 1.574 . S
C2552 H2547 0.949 . S
C2552 C2558 1.368 . S
C2553 C2537 1.349 . S
C2553 H2545 0.950 . S
C2553 C2551 1.327 . S
C2554 C2542 1.349 . S
C2554 H2548 0.950 . S
C2554 C2555 1.327 . S
C2555 H2549 0.950 . S
C2555 C2554 1.327 . S
C2555 C2559 1.429 . S
C2556 C2539 1.574 . S
C2556 H2550 0.949 . S
C2556 C2560 1.368 . S
C2557 C2538 1.429 . S
C2557 C2551 1.429 . S
C2557 C2558 1.523 . S
C2558 C2539 1.368 . S
C2558 C2552 1.368 . S
C2558 C2557 1.523 . S
C2559 C2543 1.429 . S
C2559 C2555 1.429 . S
C2559 C2560 1.523 . S
C2560 C2544 1.368 . S
C2560 C2556 1.368 . S
C2560 C2559 1.523 . S
H2561 C2536 0.950 . S
H2562 C2538 0.950 . S
H2563 C2539 0.949 . S
H2564 C2541 0.950 . S
H2565 C2543 0.950 . S
C2566 C2567 1.349 . S
C2566 C2568 1.327 . S
C2566 H2591 0.950 . S
C2567 C2566 1.349 . S
C2567 C2583 1.349 . S
C2568 C2566 1.327 . S
C2568 C2587 1.429 . S
C2568 H2592 0.950 . S
C2569 C2586 1.574 . S
C2569 C2588 1.368 . S
C2569 H2593 0.949 . S
H2570 C2574 0.949 . S
C2571 C2572 1.349 . S
C2571 C2573 1.327 . S
C2571 H2594 0.950 . S
C2572 C2571 1.349 . S
C2572 C2584 1.349 . S
C2573 C2571 1.327 . S
C2573 C2589 1.429 . S
C2573 H2595 0.950 . S
C2574 H2570 0.949 . S
C2574 C2582 1.574 . S
C2574 C2590 1.368 . S
H2575 C2583 0.950 . S
H2576 C2581 0.950 . S
H2577 C2582 0.949 . S
H2578 C2584 0.950 . S
H2579 C2585 0.950 . S
H2580 C2586 0.949 . S
C2581 H2576 0.950 . S
C2581 C2583 1.327 . S
C2581 C2587 1.429 . S
C2582 C2574 1.574 . S
C2582 H2577 0.949 . S
C2582 C2588 1.368 . S
C2583 C2567 1.349 . S
C2583 H2575 0.950 . S
C2583 C2581 1.327 . S
C2584 C2572 1.349 . S
C2584 H2578 0.950 . S
C2584 C2585 1.327 . S
C2585 H2579 0.950 . S
C2585 C2584 1.327 . S
C2585 C2589 1.429 . S
C2586 C2569 1.574 . S
C2586 H2580 0.949 . S
C2586 C2590 1.368 . S
C2587 C2568 1.429 . S
C2587 C2581 1.429 . S
C2587 C2588 1.523 1_455 S
C2588 C2569 1.368 . S
C2588 C2582 1.368 . S
C2588 C2587 1.523 1_655 S
C2589 C2573 1.429 . S
C2589 C2585 1.429 . S
C2589 C2590 1.523 . S
C2590 C2574 1.368 . S
C2590 C2586 1.368 . S
C2590 C2589 1.523 . S
H2591 C2566 0.950 . S
H2592 C2568 0.950 . S
H2593 C2569 0.949 . S
H2594 C2571 0.950 . S
H2595 C2573 0.950 . S
C2596 C2597 1.349 1_455 S
C2596 C2598 1.327 . S
C2596 H2621 0.950 . S
C2597 C2596 1.349 1_655 S
C2597 C2613 1.349 . S
C2598 C2596 1.327 . S
C2598 C2617 1.429 . S
C2598 H2622 0.950 . S
C2599 C2616 1.593 . S
C2599 C2618 1.377 . S
C2599 H2623 0.925 1_455 S
H2600 C2604 0.949 . S
C2601 C2602 1.349 . S
C2601 C2603 1.327 . S
C2601 H2624 0.950 . S
C2602 C2601 1.349 . S
C2602 C2614 1.349 . S
C2603 C2601 1.327 . S
C2603 C2619 1.429 . S
C2603 H2625 0.950 . S
C2604 H2600 0.949 . S
C2604 C2612 1.574 . S
C2604 C2620 1.368 . S
H2605 C2613 0.950 . S
H2606 C2611 0.950 . S
H2607 C2612 0.949 . S
H2608 C2614 0.950 . S
H2609 C2615 0.950 . S
H2610 C2616 0.949 . S
C2611 H2606 0.950 . S
C2611 C2613 1.327 . S
C2611 C2617 1.429 1_655 S
C2612 C2604 1.574 . S
C2612 H2607 0.949 . S
C2612 C2618 1.368 . S
C2613 C2597 1.349 . S
C2613 H2605 0.950 . S
C2613 C2611 1.327 . S
C2614 C2602 1.349 . S
C2614 H2608 0.950 . S
C2614 C2615 1.327 . S
C2615 H2609 0.950 . S
C2615 C2614 1.327 . S
C2615 C2619 1.429 . S
C2616 C2599 1.593 . S
C2616 H2610 0.949 . S
C2616 C2620 1.368 . S
C2617 C2598 1.429 . S
C2617 C2611 1.429 1_455 S
C2617 C2618 1.523 . S
C2618 C2599 1.377 . S
C2618 C2612 1.368 . S
C2618 C2617 1.523 . S
C2619 C2603 1.429 . S
C2619 C2615 1.429 . S
C2619 C2620 1.523 . S
C2620 C2604 1.368 . S
C2620 C2616 1.368 . S
C2620 C2619 1.523 . S
H2621 C2596 0.950 . S
H2622 C2598 0.950 . S
H2623 C2599 0.925 1_655 S
H2624 C2601 0.950 . S
H2625 C2603 0.950 . S
C2626 C2627 1.349 . S
C2626 C2628 1.327 . S
C2626 H2651 0.950 . S
C2627 C2626 1.349 . S
C2627 C2643 1.349 . S
C2628 C2626 1.327 . S
C2628 C2647 1.429 . S
C2628 H2652 0.950 . S
C2629 C2646 1.574 . S
C2629 C2648 1.368 . S
C2629 H2653 0.949 . S
H2630 C2634 0.949 . S
C2631 C2632 1.349 . S
C2631 C2633 1.327 . S
C2631 H2654 0.950 . S
C2632 C2631 1.349 . S
C2632 C2644 1.349 . S
C2633 C2631 1.327 . S
C2633 C2649 1.429 . S
C2633 H2655 0.950 . S
C2634 H2630 0.949 . S
C2634 C2642 1.574 . S
C2634 C2650 1.368 . S
H2635 C2643 0.950 . S
H2636 C2641 0.950 . S
H2637 C2642 0.949 . S
H2638 C2644 0.950 . S
H2639 C2645 0.950 . S
H2640 C2646 0.949 . S
C2641 H2636 0.950 . S
C2641 C2643 1.327 . S
C2641 C2647 1.429 . S
C2642 C2634 1.574 . S
C2642 H2637 0.949 . S
C2642 C2648 1.368 . S
C2643 C2627 1.349 . S
C2643 H2635 0.950 . S
C2643 C2641 1.327 . S
C2644 C2632 1.349 . S
C2644 H2638 0.950 . S
C2644 C2645 1.327 . S
C2645 H2639 0.950 . S
C2645 C2644 1.327 . S
C2645 C2649 1.429 . S
C2646 C2629 1.574 . S
C2646 H2640 0.949 . S
C2646 C2650 1.368 . S
C2647 C2628 1.429 . S
C2647 C2641 1.429 . S
C2647 C2648 1.523 . S
C2648 C2629 1.368 . S
C2648 C2642 1.368 . S
C2648 C2647 1.523 . S
C2649 C2633 1.429 . S
C2649 C2645 1.429 . S
C2649 C2650 1.523 . S
C2650 C2634 1.368 . S
C2650 C2646 1.368 . S
C2650 C2649 1.523 . S
H2651 C2626 0.950 . S
H2652 C2628 0.950 . S
H2653 C2629 0.949 . S
H2654 C2631 0.950 . S
H2655 C2633 0.950 . S
C2656 C2657 1.349 . S
C2656 C2658 1.327 . S
C2656 H2681 0.950 . S
C2657 C2656 1.349 . S
C2657 C2673 1.349 . S
C2658 C2656 1.327 . S
C2658 C2677 1.429 . S
C2658 H2682 0.950 . S
C2659 C2676 1.574 . S
C2659 C2678 1.368 . S
C2659 H2683 0.949 . S
H2660 C2664 0.949 . S
C2661 C2662 1.349 . S
C2661 C2663 1.327 . S
C2661 H2684 0.950 . S
C2662 C2661 1.349 . S
C2662 C2674 1.349 . S
C2663 C2661 1.327 . S
C2663 C2679 1.429 . S
C2663 H2685 0.950 . S
C2664 H2660 0.949 . S
C2664 C2672 1.574 . S
C2664 C2680 1.368 . S
H2665 C2673 0.950 . S
H2666 C2671 0.950 . S
H2667 C2672 0.949 . S
H2668 C2674 0.950 . S
H2669 C2675 0.950 . S
H2670 C2676 0.949 . S
C2671 H2666 0.950 . S
C2671 C2673 1.327 . S
C2671 C2677 1.429 . S
C2672 C2664 1.574 . S
C2672 H2667 0.949 . S
C2672 C2678 1.368 . S
C2673 C2657 1.349 . S
C2673 H2665 0.950 . S
C2673 C2671 1.327 . S
C2674 C2662 1.349 . S
C2674 H2668 0.950 . S
C2674 C2675 1.327 . S
C2675 H2669 0.950 . S
C2675 C2674 1.327 . S
C2675 C2679 1.429 . S
C2676 C2659 1.574 . S
C2676 H2670 0.949 . S
C2676 C2680 1.368 . S
C2677 C2658 1.429 . S
C2677 C2671 1.429 . S
C2677 C2678 1.523 . S
C2678 C2659 1.368 . S
C2678 C2672 1.368 . S
C2678 C2677 1.523 . S
C2679 C2663 1.429 . S
C2679 C2675 1.429 . S
C2679 C2680 1.523 . S
C2680 C2664 1.368 . S
C2680 C2676 1.368 . S
C2680 C2679 1.523 . S
H2681 C2656 0.950 . S
H2682 C2658 0.950 . S
H2683 C2659 0.949 . S
H2684 C2661 0.950 . S
H2685 C2663 0.950 . S
C2686 C2687 1.349 . S
C2686 C2688 1.327 . S
C2686 H2711 0.950 . S
C2687 C2686 1.349 . S
C2687 C2703 1.349 . S
C2688 C2686 1.327 . S
C2688 C2707 1.429 . S
C2688 H2712 0.950 . S
C2689 C2706 1.574 . S
C2689 C2708 1.368 . S
C2689 H2713 0.949 . S
H2690 C2694 0.949 . S
C2691 C2692 1.349 . S
C2691 C2693 1.327 . S
C2691 H2714 0.950 . S
C2692 C2691 1.349 . S
C2692 C2704 1.349 . S
C2693 C2691 1.327 . S
C2693 C2709 1.429 . S
C2693 H2715 0.950 . S
C2694 H2690 0.949 . S
C2694 C2702 1.574 . S
C2694 C2710 1.368 . S
H2695 C2703 0.950 . S
H2696 C2701 0.950 . S
H2697 C2702 0.949 . S
H2698 C2704 0.950 . S
H2699 C2705 0.950 . S
H2700 C2706 0.949 . S
C2701 H2696 0.950 . S
C2701 C2703 1.327 . S
C2701 C2707 1.429 . S
C2702 C2694 1.574 . S
C2702 H2697 0.949 . S
C2702 C2708 1.368 . S
C2703 C2687 1.349 . S
C2703 H2695 0.950 . S
C2703 C2701 1.327 . S
C2704 C2692 1.349 . S
C2704 H2698 0.950 . S
C2704 C2705 1.327 . S
C2705 H2699 0.950 . S
C2705 C2704 1.327 . S
C2705 C2709 1.429 . S
C2706 C2689 1.574 . S
C2706 H2700 0.949 . S
C2706 C2710 1.368 . S
C2707 C2688 1.429 . S
C2707 C2701 1.429 . S
C2707 C2708 1.523 . S
C2708 C2689 1.368 . S
C2708 C2702 1.368 . S
C2708 C2707 1.523 . S
C2709 C2693 1.429 . S
C2709 C2705 1.429 . S
C2709 C2710 1.523 . S
C2710 C2694 1.368 . S
C2710 C2706 1.368 . S
C2710 C2709 1.523 . S
H2711 C2686 0.950 . S
H2712 C2688 0.950 . S
H2713 C2689 0.949 . S
H2714 C2691 0.950 . S
H2715 C2693 0.950 . S
C2716 C2717 1.349 . S
C2716 C2718 1.327 . S
C2716 H2741 0.950 . S
C2717 C2716 1.349 . S
C2717 C2733 1.349 . S
C2718 C2716 1.327 . S
C2718 C2737 1.429 . S
C2718 H2742 0.950 . S
C2719 C2736 1.574 . S
C2719 C2738 1.368 . S
C2719 H2743 0.949 . S
H2720 C2724 0.949 . S
C2721 C2722 1.349 . S
C2721 C2723 1.327 . S
C2721 H2744 0.950 . S
C2722 C2721 1.349 . S
C2722 C2734 1.349 . S
C2723 C2721 1.327 . S
C2723 C2739 1.429 . S
C2723 H2745 0.950 . S
C2724 H2720 0.949 . S
C2724 C2732 1.574 . S
C2724 C2740 1.368 . S
H2725 C2733 0.950 . S
H2726 C2731 0.950 . S
H2727 C2732 0.949 . S
H2728 C2734 0.950 . S
H2729 C2735 0.950 . S
H2730 C2736 0.949 . S
C2731 H2726 0.950 . S
C2731 C2733 1.327 . S
C2731 C2737 1.429 . S
C2732 C2724 1.574 . S
C2732 H2727 0.949 . S
C2732 C2738 1.368 . S
C2733 C2717 1.349 . S
C2733 H2725 0.950 . S
C2733 C2731 1.327 . S
C2734 C2722 1.349 . S
C2734 H2728 0.950 . S
C2734 C2735 1.327 . S
C2735 H2729 0.950 . S
C2735 C2734 1.327 . S
C2735 C2739 1.429 . S
C2736 C2719 1.574 . S
C2736 H2730 0.949 . S
C2736 C2740 1.368 . S
C2737 C2718 1.429 . S
C2737 C2731 1.429 . S
C2737 C2738 1.523 . S
C2738 C2719 1.368 . S
C2738 C2732 1.368 . S
C2738 C2737 1.523 . S
C2739 C2723 1.429 . S
C2739 C2735 1.429 . S
C2739 C2740 1.523 . S
C2740 C2724 1.368 . S
C2740 C2736 1.368 . S
C2740 C2739 1.523 . S
H2741 C2716 0.950 . S
H2742 C2718 0.950 . S
H2743 C2719 0.949 . S
H2744 C2721 0.950 . S
H2745 C2723 0.950 . S
C2746 C2747 1.349 . S
C2746 C2748 1.327 . S
C2746 H2771 0.950 . S
C2747 C2746 1.349 . S
C2747 C2763 1.349 . S
C2748 C2746 1.327 . S
C2748 C2767 1.429 . S
C2748 H2772 0.950 . S
C2749 C2766 1.574 . S
C2749 C2768 1.368 . S
C2749 H2773 0.949 . S
H2750 C2754 0.949 . S
C2751 C2752 1.349 . S
C2751 C2753 1.327 . S
C2751 H2774 0.950 . S
C2752 C2751 1.349 . S
C2752 C2764 1.349 . S
C2753 C2751 1.327 . S
C2753 C2769 1.429 . S
C2753 H2775 0.950 . S
C2754 H2750 0.949 . S
C2754 C2762 1.574 . S
C2754 C2770 1.368 . S
H2755 C2763 0.950 . S
H2756 C2761 0.950 . S
H2757 C2762 0.949 . S
H2758 C2764 0.950 . S
H2759 C2765 0.950 . S
H2760 C2766 0.949 . S
C2761 H2756 0.950 . S
C2761 C2763 1.327 . S
C2761 C2767 1.429 . S
C2762 C2754 1.574 . S
C2762 H2757 0.949 . S
C2762 C2768 1.368 . S
C2763 C2747 1.349 . S
C2763 H2755 0.950 . S
C2763 C2761 1.327 . S
C2764 C2752 1.349 . S
C2764 H2758 0.950 . S
C2764 C2765 1.327 . S
C2765 H2759 0.950 . S
C2765 C2764 1.327 . S
C2765 C2769 1.429 . S
C2766 C2749 1.574 . S
C2766 H2760 0.949 . S
C2766 C2770 1.368 . S
C2767 C2748 1.429 . S
C2767 C2761 1.429 . S
C2767 C2768 1.523 . S
C2768 C2749 1.368 . S
C2768 C2762 1.368 . S
C2768 C2767 1.523 . S
C2769 C2753 1.429 . S
C2769 C2765 1.429 . S
C2769 C2770 1.523 . S
C2770 C2754 1.368 . S
C2770 C2766 1.368 . S
C2770 C2769 1.523 . S
H2771 C2746 0.950 . S
H2772 C2748 0.950 . S
H2773 C2749 0.949 . S
H2774 C2751 0.950 . S
H2775 C2753 0.950 . S
C2776 C2777 1.349 . S
C2776 C2778 1.327 . S
C2776 H2801 0.950 . S
C2777 C2776 1.349 . S
C2777 C2793 1.349 . S
C2778 C2776 1.327 . S
C2778 C2797 1.429 . S
C2778 H2802 0.950 . S
C2779 C2796 1.574 . S
C2779 C2798 1.368 . S
C2779 H2803 0.949 . S
H2780 C2784 0.949 . S
C2781 C2782 1.349 . S
C2781 C2783 1.327 . S
C2781 H2804 0.950 . S
C2782 C2781 1.349 . S
C2782 C2794 1.349 . S
C2783 C2781 1.327 . S
C2783 C2799 1.429 . S
C2783 H2805 0.950 . S
C2784 H2780 0.949 . S
C2784 C2792 1.574 . S
C2784 C2800 1.368 . S
H2785 C2793 0.950 . S
H2786 C2791 0.950 . S
H2787 C2792 0.949 . S
H2788 C2794 0.950 . S
H2789 C2795 0.950 . S
H2790 C2796 0.949 . S
C2791 H2786 0.950 . S
C2791 C2793 1.327 . S
C2791 C2797 1.429 . S
C2792 C2784 1.574 . S
C2792 H2787 0.949 . S
C2792 C2798 1.368 . S
C2793 C2777 1.349 . S
C2793 H2785 0.950 . S
C2793 C2791 1.327 . S
C2794 C2782 1.349 . S
C2794 H2788 0.950 . S
C2794 C2795 1.327 . S
C2795 H2789 0.950 . S
C2795 C2794 1.327 . S
C2795 C2799 1.429 . S
C2796 C2779 1.574 . S
C2796 H2790 0.949 . S
C2796 C2800 1.368 . S
C2797 C2778 1.429 . S
C2797 C2791 1.429 . S
C2797 C2798 1.523 . S
C2798 C2779 1.368 . S
C2798 C2792 1.368 . S
C2798 C2797 1.523 . S
C2799 C2783 1.429 . S
C2799 C2795 1.429 . S
C2799 C2800 1.523 . S
C2800 C2784 1.368 . S
C2800 C2796 1.368 . S
C2800 C2799 1.523 . S
H2801 C2776 0.950 . S
H2802 C2778 0.950 . S
H2803 C2779 0.949 . S
H2804 C2781 0.950 . S
H2805 C2783 0.950 . S
C2806 C2807 1.349 . S
C2806 C2808 1.327 . S
C2806 H2831 0.950 . S
C2807 C2806 1.349 . S
C2807 C2823 1.349 . S
C2808 C2806 1.327 . S
C2808 C2827 1.429 . S
C2808 H2832 0.950 . S
C2809 C2826 1.574 . S
C2809 C2828 1.368 . S
C2809 H2833 0.949 . S
H2810 C2814 0.949 . S
C2811 C2812 1.349 . S
C2811 C2813 1.327 . S
C2811 H2834 0.950 . S
C2812 C2811 1.349 . S
C2812 C2824 1.349 . S
C2813 C2811 1.327 . S
C2813 C2829 1.429 . S
C2813 H2835 0.950 . S
C2814 H2810 0.949 . S
C2814 C2822 1.574 . S
C2814 C2830 1.368 . S
H2815 C2823 0.950 . S
H2816 C2821 0.950 . S
H2817 C2822 0.949 . S
H2818 C2824 0.950 . S
H2819 C2825 0.950 . S
H2820 C2826 0.949 . S
C2821 H2816 0.950 . S
C2821 C2823 1.327 . S
C2821 C2827 1.429 . S
C2822 C2814 1.574 . S
C2822 H2817 0.949 . S
C2822 C2828 1.368 . S
C2823 C2807 1.349 . S
C2823 H2815 0.950 . S
C2823 C2821 1.327 . S
C2824 C2812 1.349 . S
C2824 H2818 0.950 . S
C2824 C2825 1.327 . S
C2825 H2819 0.950 . S
C2825 C2824 1.327 . S
C2825 C2829 1.429 . S
C2826 C2809 1.574 . S
C2826 H2820 0.949 . S
C2826 C2830 1.368 . S
C2827 C2808 1.429 . S
C2827 C2821 1.429 . S
C2827 C2828 1.523 . S
C2828 C2809 1.368 . S
C2828 C2822 1.368 . S
C2828 C2827 1.523 . S
C2829 C2813 1.429 . S
C2829 C2825 1.429 . S
C2829 C2830 1.523 . S
C2830 C2814 1.368 . S
C2830 C2826 1.368 . S
C2830 C2829 1.523 . S
H2831 C2806 0.950 . S
H2832 C2808 0.950 . S
H2833 C2809 0.949 . S
H2834 C2811 0.950 . S
H2835 C2813 0.950 . S
C2836 C2837 1.349 . S
C2836 C2838 1.327 . S
C2836 H2861 0.950 . S
C2837 C2836 1.349 . S
C2837 C2853 1.349 . S
C2838 C2836 1.327 . S
C2838 C2857 1.429 . S
C2838 H2862 0.950 . S
C2839 C2856 1.574 . S
C2839 C2858 1.368 . S
C2839 H2863 0.949 . S
H2840 C2844 0.949 . S
C2841 C2842 1.349 . S
C2841 C2843 1.327 . S
C2841 H2864 0.950 . S
C2842 C2841 1.349 . S
C2842 C2854 1.349 . S
C2843 C2841 1.327 . S
C2843 C2859 1.429 . S
C2843 H2865 0.950 . S
C2844 H2840 0.949 . S
C2844 C2852 1.574 . S
C2844 C2860 1.368 . S
H2845 C2853 0.950 . S
H2846 C2851 0.950 . S
H2847 C2852 0.949 . S
H2848 C2854 0.950 . S
H2849 C2855 0.950 . S
H2850 C2856 0.949 . S
C2851 H2846 0.950 . S
C2851 C2853 1.327 . S
C2851 C2857 1.429 . S
C2852 C2844 1.574 . S
C2852 H2847 0.949 . S
C2852 C2858 1.368 . S
C2853 C2837 1.349 . S
C2853 H2845 0.950 . S
C2853 C2851 1.327 . S
C2854 C2842 1.349 . S
C2854 H2848 0.950 . S
C2854 C2855 1.327 . S
C2855 H2849 0.950 . S
C2855 C2854 1.327 . S
C2855 C2859 1.429 . S
C2856 C2839 1.574 . S
C2856 H2850 0.949 . S
C2856 C2860 1.368 . S
C2857 C2838 1.429 . S
C2857 C2851 1.429 . S
C2857 C2858 1.523 . S
C2858 C2839 1.368 . S
C2858 C2852 1.368 . S
C2858 C2857 1.523 . S
C2859 C2843 1.429 . S
C2859 C2855 1.429 . S
C2859 C2860 1.523 . S
C2860 C2844 1.368 . S
C2860 C2856 1.368 . S
C2860 C2859 1.523 . S
H2861 C2836 0.950 . S
H2862 C2838 0.950 . S
H2863 C2839 0.949 . S
H2864 C2841 0.950 . S
H2865 C2843 0.950 . S
C2866 C2867 1.349 . S
C2866 C2868 1.327 . S
C2866 H2891 0.950 . S
C2867 C2866 1.349 . S
C2867 C2883 1.349 . S
C2868 C2866 1.327 . S
C2868 C2887 1.429 . S
C2868 H2892 0.950 . S
C2869 C2886 1.574 . S
C2869 C2888 1.368 . S
C2869 H2893 0.949 . S
H2870 C2874 0.949 . S
C2871 C2872 1.349 . S
C2871 C2873 1.327 . S
C2871 H2894 0.950 . S
C2872 C2871 1.349 . S
C2872 C2884 1.349 . S
C2873 C2871 1.327 . S
C2873 C2889 1.429 . S
C2873 H2895 0.950 . S
C2874 H2870 0.949 . S
C2874 C2882 1.574 . S
C2874 C2890 1.368 . S
H2875 C2883 0.950 . S
H2876 C2881 0.950 . S
H2877 C2882 0.949 . S
H2878 C2884 0.950 . S
H2879 C2885 0.950 . S
H2880 C2886 0.949 . S
C2881 H2876 0.950 . S
C2881 C2883 1.327 . S
C2881 C2887 1.429 . S
C2882 C2874 1.574 . S
C2882 H2877 0.949 . S
C2882 C2888 1.368 . S
C2883 C2867 1.349 . S
C2883 H2875 0.950 . S
C2883 C2881 1.327 . S
C2884 C2872 1.349 . S
C2884 H2878 0.950 . S
C2884 C2885 1.327 . S
C2885 H2879 0.950 . S
C2885 C2884 1.327 . S
C2885 C2889 1.429 . S
C2886 C2869 1.574 . S
C2886 H2880 0.949 . S
C2886 C2890 1.368 . S
C2887 C2868 1.429 . S
C2887 C2881 1.429 . S
C2887 C2888 1.523 . S
C2888 C2869 1.368 . S
C2888 C2882 1.368 . S
C2888 C2887 1.523 . S
C2889 C2873 1.429 . S
C2889 C2885 1.429 . S
C2889 C2890 1.523 . S
C2890 C2874 1.368 . S
C2890 C2886 1.368 . S
C2890 C2889 1.523 . S
H2891 C2866 0.950 . S
H2892 C2868 0.950 . S
H2893 C2869 0.949 . S
H2894 C2871 0.950 . S
H2895 C2873 0.950 . S
C2896 C2897 1.349 . S
C2896 C2898 1.327 . S
C2896 H2921 0.950 . S
C2897 C2896 1.349 . S
C2897 C2913 1.349 . S
C2898 C2896 1.327 . S
C2898 C2917 1.429 . S
C2898 H2922 0.950 . S
C2899 C2916 1.574 . S
C2899 C2918 1.368 . S
C2899 H2923 0.949 . S
H2900 C2904 0.949 . S
C2901 C2902 1.349 . S
C2901 C2903 1.327 . S
C2901 H2924 0.950 . S
C2902 C2901 1.349 . S
C2902 C2914 1.349 . S
C2903 C2901 1.327 . S
C2903 C2919 1.429 . S
C2903 H2925 0.950 . S
C2904 H2900 0.949 . S
C2904 C2912 1.574 . S
C2904 C2920 1.368 . S
H2905 C2913 0.950 . S
H2906 C2911 0.950 . S
H2907 C2912 0.949 . S
H2908 C2914 0.950 . S
H2909 C2915 0.950 . S
H2910 C2916 0.949 . S
C2911 H2906 0.950 . S
C2911 C2913 1.327 . S
C2911 C2917 1.429 . S
C2912 C2904 1.574 . S
C2912 H2907 0.949 . S
C2912 C2918 1.368 . S
C2913 C2897 1.349 . S
C2913 H2905 0.950 . S
C2913 C2911 1.327 . S
C2914 C2902 1.349 . S
C2914 H2908 0.950 . S
C2914 C2915 1.327 . S
C2915 H2909 0.950 . S
C2915 C2914 1.327 . S
C2915 C2919 1.429 . S
C2916 C2899 1.574 . S
C2916 H2910 0.949 . S
C2916 C2920 1.368 . S
C2917 C2898 1.429 . S
C2917 C2911 1.429 . S
C2917 C2918 1.523 . S
C2918 C2899 1.368 . S
C2918 C2912 1.368 . S
C2918 C2917 1.523 . S
C2919 C2903 1.429 . S
C2919 C2915 1.429 . S
C2919 C2920 1.523 . S
C2920 C2904 1.368 . S
C2920 C2916 1.368 . S
C2920 C2919 1.523 . S
H2921 C2896 0.950 . S
H2922 C2898 0.950 . S
H2923 C2899 0.949 . S
H2924 C2901 0.950 . S
H2925 C2903 0.950 . S
C2926 C2927 1.349 . S
C2926 C2928 1.327 . S
C2926 H2951 0.950 . S
C2927 C2926 1.349 . S
C2927 C2943 1.349 . S
C2928 C2926 1.327 . S
C2928 C2947 1.429 . S
C2928 H2952 0.950 . S
C2929 C2946 1.574 . S
C2929 C2948 1.368 . S
C2929 H2953 0.949 . S
H2930 C2934 0.949 . S
C2931 C2932 1.349 . S
C2931 C2933 1.327 . S
C2931 H2954 0.950 . S
C2932 C2931 1.349 . S
C2932 C2944 1.349 . S
C2933 C2931 1.327 . S
C2933 C2949 1.429 . S
C2933 H2955 0.950 . S
C2934 H2930 0.949 . S
C2934 C2942 1.574 . S
C2934 C2950 1.368 . S
H2935 C2943 0.950 . S
H2936 C2941 0.950 . S
H2937 C2942 0.949 . S
H2938 C2944 0.950 . S
H2939 C2945 0.950 . S
H2940 C2946 0.949 . S
C2941 H2936 0.950 . S
C2941 C2943 1.327 . S
C2941 C2947 1.429 . S
C2942 C2934 1.574 . S
C2942 H2937 0.949 . S
C2942 C2948 1.368 . S
C2943 C2927 1.349 . S
C2943 H2935 0.950 . S
C2943 C2941 1.327 . S
C2944 C2932 1.349 . S
C2944 H2938 0.950 . S
C2944 C2945 1.327 . S
C2945 H2939 0.950 . S
C2945 C2944 1.327 . S
C2945 C2949 1.429 . S
C2946 C2929 1.574 . S
C2946 H2940 0.949 . S
C2946 C2950 1.368 . S
C2947 C2928 1.429 . S
C2947 C2941 1.429 . S
C2947 C2948 1.523 . S
C2948 C2929 1.368 . S
C2948 C2942 1.368 . S
C2948 C2947 1.523 . S
C2949 C2933 1.429 . S
C2949 C2945 1.429 . S
C2949 C2950 1.523 . S
C2950 C2934 1.368 . S
C2950 C2946 1.368 . S
C2950 C2949 1.523 . S
H2951 C2926 0.950 . S
H2952 C2928 0.950 . S
H2953 C2929 0.949 . S
H2954 C2931 0.950 . S
H2955 C2933 0.950 . S
C2956 C2957 1.349 . S
C2956 C2958 1.327 . S
C2956 H2981 0.950 . S
C2957 C2956 1.349 . S
C2957 C2973 1.349 . S
C2958 C2956 1.327 . S
C2958 C2977 1.429 . S
C2958 H2982 0.950 . S
C2959 C2976 1.574 . S
C2959 C2978 1.368 . S
C2959 H2983 0.949 . S
H2960 C2964 0.949 . S
C2961 C2962 1.349 . S
C2961 C2963 1.327 . S
C2961 H2984 0.950 . S
C2962 C2961 1.349 . S
C2962 C2974 1.349 . S
C2963 C2961 1.327 . S
C2963 C2979 1.429 . S
C2963 H2985 0.950 . S
C2964 H2960 0.949 . S
C2964 C2972 1.574 . S
C2964 C2980 1.368 . S
H2965 C2973 0.950 . S
H2966 C2971 0.950 . S
H2967 C2972 0.949 . S
H2968 C2974 0.950 . S
H2969 C2975 0.950 . S
H2970 C2976 0.949 . S
C2971 H2966 0.950 . S
C2971 C2973 1.327 . S
C2971 C2977 1.429 . S
C2972 C2964 1.574 . S
C2972 H2967 0.949 . S
C2972 C2978 1.368 . S
C2973 C2957 1.349 . S
C2973 H2965 0.950 . S
C2973 C2971 1.327 . S
C2974 C2962 1.349 . S
C2974 H2968 0.950 . S
C2974 C2975 1.327 . S
C2975 H2969 0.950 . S
C2975 C2974 1.327 . S
C2975 C2979 1.429 . S
C2976 C2959 1.574 . S
C2976 H2970 0.949 . S
C2976 C2980 1.368 . S
C2977 C2958 1.429 . S
C2977 C2971 1.429 . S
C2977 C2978 1.523 . S
C2978 C2959 1.368 . S
C2978 C2972 1.368 . S
C2978 C2977 1.523 . S
C2979 C2963 1.429 . S
C2979 C2975 1.429 . S
C2979 C2980 1.523 . S
C2980 C2964 1.368 . S
C2980 C2976 1.368 . S
C2980 C2979 1.523 . S
H2981 C2956 0.950 . S
H2982 C2958 0.950 . S
H2983 C2959 0.949 . S
H2984 C2961 0.950 . S
H2985 C2963 0.950 . S
C2986 C2987 1.349 . S
C2986 C2988 1.327 . S
C2986 H3011 0.950 . S
C2987 C2986 1.349 . S
C2987 C3003 1.301 1_554 S
C2988 C2986 1.327 . S
C2988 C3007 1.429 . S
C2988 H3012 0.950 . S
C2989 C3006 1.574 . S
C2989 C3008 1.368 1_556 S
C2989 H3013 0.949 . S
H2990 C2994 0.949 . S
C2991 C2992 1.349 1_556 S
C2991 C2993 1.327 . S
C2991 H3014 0.950 . S
C2992 C2991 1.349 1_554 S
C2992 C3004 1.349 . S
C2993 C2991 1.327 . S
C2993 C3009 1.429 1_546 S
C2993 H3015 0.950 . S
C2994 H2990 0.949 . S
C2994 C3002 1.574 . S
C2994 C3010 1.368 . S
H2995 C3003 0.988 . S
H2996 C3001 0.950 . S
H2997 C3002 0.949 . S
H2998 C3004 0.950 . S
H2999 C3005 0.950 . S
H3000 C3006 0.949 . S
C3001 H2996 0.950 . S
C3001 C3003 1.340 . S
C3001 C3007 1.429 1_556 S
C3002 C2994 1.574 . S
C3002 H2997 0.949 . S
C3002 C3008 1.368 . S
C3003 C2987 1.301 1_556 S
C3003 H2995 0.988 . S
C3003 C3001 1.340 . S
C3004 C2992 1.349 . S
C3004 H2998 0.950 . S
C3004 C3005 1.327 1_545 S
C3005 H2999 0.950 . S
C3005 C3004 1.327 1_565 S
C3005 C3009 1.429 . S
C3006 C2989 1.574 . S
C3006 H3000 0.949 . S
C3006 C3010 1.368 1_556 S
C3007 C2988 1.429 . S
C3007 C3001 1.429 1_554 S
C3007 C3008 1.523 . S
C3008 C2989 1.368 1_554 S
C3008 C3002 1.368 . S
C3008 C3007 1.523 . S
C3009 C2993 1.429 1_564 S
C3009 C3005 1.429 . S
C3009 C3010 1.523 . S
C3010 C2994 1.368 . S
C3010 C3006 1.368 1_554 S
C3010 C3009 1.523 . S
H3011 C2986 0.950 . S
H3012 C2988 0.950 . S
H3013 C2989 0.949 . S
H3014 C2991 0.950 . S
H3015 C2993 0.950 . S
C3016 C3017 1.349 . S
C3016 C3018 1.327 . S
C3016 H3041 0.950 . S
C3017 C3016 1.349 . S
C3017 C3033 1.349 . S
C3018 C3016 1.327 . S
C3018 C3037 1.429 . S
C3018 H3042 0.950 . S
C3019 C3036 1.574 . S
C3019 C3038 1.368 . S
C3019 H3043 0.949 . S
H3020 C3024 0.949 . S
C3021 C3022 1.349 . S
C3021 C3023 1.327 . S
C3021 H3044 0.950 . S
C3022 C3021 1.349 . S
C3022 C3034 1.349 . S
C3023 C3021 1.327 . S
C3023 C3039 1.429 . S
C3023 H3045 0.950 . S
C3024 H3020 0.949 . S
C3024 C3032 1.574 . S
C3024 C3040 1.368 . S
H3025 C3033 0.950 . S
H3026 C3031 0.950 . S
H3027 C3032 0.949 . S
H3028 C3034 0.950 . S
H3029 C3035 0.950 . S
H3030 C3036 0.949 . S
C3031 H3026 0.950 . S
C3031 C3033 1.327 . S
C3031 C3037 1.429 . S
C3032 C3024 1.574 . S
C3032 H3027 0.949 . S
C3032 C3038 1.368 . S
C3033 C3017 1.349 . S
C3033 H3025 0.950 . S
C3033 C3031 1.327 . S
C3034 C3022 1.349 . S
C3034 H3028 0.950 . S
C3034 C3035 1.327 . S
C3035 H3029 0.950 . S
C3035 C3034 1.327 . S
C3035 C3039 1.429 . S
C3036 C3019 1.574 . S
C3036 H3030 0.949 . S
C3036 C3040 1.368 . S
C3037 C3018 1.429 . S
C3037 C3031 1.429 . S
C3037 C3038 1.523 . S
C3038 C3019 1.368 . S
C3038 C3032 1.368 . S
C3038 C3037 1.523 . S
C3039 C3023 1.429 . S
C3039 C3035 1.429 . S
C3039 C3040 1.523 . S
C3040 C3024 1.368 . S
C3040 C3036 1.368 . S
C3040 C3039 1.523 . S
H3041 C3016 0.950 . S
H3042 C3018 0.950 . S
H3043 C3019 0.949 . S
H3044 C3021 0.950 . S
H3045 C3023 0.950 . S
C3046 C3047 1.349 1_556 S
C3046 C3048 1.327 . S
C3046 H3071 0.950 . S
C3047 C3046 1.349 1_554 S
C3047 C3063 1.349 . S
C3048 C3046 1.327 . S
C3048 C3067 1.429 1_556 S
C3048 H3072 0.950 . S
C3049 C3066 1.574 . S
C3049 C3068 1.368 . S
C3049 H3073 0.949 . S
H3050 C3054 0.949 1_556 S
C3051 C3052 1.349 . S
C3051 C3053 1.327 . S
C3051 H3074 0.950 . S
C3052 C3051 1.349 . S
C3052 C3064 1.349 . S
C3053 C3051 1.327 . S
C3053 C3069 1.429 . S
C3053 H3075 0.950 . S
C3054 H3050 0.949 1_554 S
C3054 C3062 1.574 . S
C3054 C3070 1.368 . S
H3055 C3063 0.950 . S
H3056 C3061 0.950 . S
H3057 C3062 0.949 1_556 S
H3058 C3064 0.950 . S
H3059 C3065 0.950 . S
H3060 C3066 0.949 . S
C3061 H3056 0.950 . S
C3061 C3063 1.327 . S
C3061 C3067 1.429 . S
C3062 C3054 1.574 . S
C3062 H3057 0.949 1_554 S
C3062 C3068 1.368 . S
C3063 C3047 1.349 . S
C3063 H3055 0.950 . S
C3063 C3061 1.327 . S
C3064 C3052 1.349 . S
C3064 H3058 0.950 . S
C3064 C3065 1.327 . S
C3065 H3059 0.950 . S
C3065 C3064 1.327 . S
C3065 C3069 1.429 . S
C3066 C3049 1.574 . S
C3066 H3060 0.949 . S
C3066 C3070 1.368 . S
C3067 C3048 1.429 1_554 S
C3067 C3061 1.429 . S
C3067 C3068 1.523 . S
C3068 C3049 1.368 . S
C3068 C3062 1.368 . S
C3068 C3067 1.523 . S
C3069 C3053 1.429 . S
C3069 C3065 1.429 . S
C3069 C3070 1.523 . S
C3070 C3054 1.368 . S
C3070 C3066 1.368 . S
C3070 C3069 1.523 . S
H3071 C3046 0.950 . S
H3072 C3048 0.950 . S
H3073 C3049 0.949 . S
H3074 C3051 0.950 . S
H3075 C3053 0.950 . S
C3076 C3077 1.349 . S
C3076 C3078 1.327 . S
C3076 H3101 0.950 . S
C3077 C3076 1.349 . S
C3077 C3093 1.349 . S
C3078 C3076 1.327 . S
C3078 C3097 1.429 . S
C3078 H3102 0.950 . S
C3079 C3096 1.574 . S
C3079 C3098 1.368 . S
C3079 H3103 0.949 . S
H3080 C3084 0.949 . S
C3081 C3082 1.349 . S
C3081 C3083 1.327 . S
C3081 H3104 0.950 . S
C3082 C3081 1.349 . S
C3082 C3094 1.349 . S
C3083 C3081 1.327 . S
C3083 C3099 1.429 . S
C3083 H3105 0.950 . S
C3084 H3080 0.949 . S
C3084 C3092 1.574 . S
C3084 C3100 1.368 . S
H3085 C3093 0.950 . S
H3086 C3091 0.950 . S
H3087 C3092 0.949 . S
H3088 C3094 0.950 . S
H3089 C3095 0.950 . S
H3090 C3096 0.949 . S
C3091 H3086 0.950 . S
C3091 C3093 1.327 . S
C3091 C3097 1.429 . S
C3092 C3084 1.574 . S
C3092 H3087 0.949 . S
C3092 C3098 1.368 . S
C3093 C3077 1.349 . S
C3093 H3085 0.950 . S
C3093 C3091 1.327 . S
C3094 C3082 1.349 . S
C3094 H3088 0.950 . S
C3094 C3095 1.327 . S
C3095 H3089 0.950 . S
C3095 C3094 1.327 . S
C3095 C3099 1.429 . S
C3096 C3079 1.574 . S
C3096 H3090 0.949 . S
C3096 C3100 1.368 . S
C3097 C3078 1.429 . S
C3097 C3091 1.429 . S
C3097 C3098 1.523 . S
C3098 C3079 1.368 . S
C3098 C3092 1.368 . S
C3098 C3097 1.523 . S
C3099 C3083 1.429 . S
C3099 C3095 1.429 . S
C3099 C3100 1.523 . S
C3100 C3084 1.368 . S
C3100 C3096 1.368 . S
C3100 C3099 1.523 . S
H3101 C3076 0.950 . S
H3102 C3078 0.950 . S
H3103 C3079 0.949 . S
H3104 C3081 0.950 . S
H3105 C3083 0.950 . S
C3106 C3107 1.349 . S
C3106 C3108 1.327 . S
C3106 H3131 0.950 . S
C3107 C3106 1.349 . S
C3107 C3123 1.349 . S
C3108 C3106 1.327 . S
C3108 C3127 1.429 . S
C3108 H3132 0.950 . S
C3109 C3126 1.574 . S
C3109 C3128 1.368 . S
C3109 H3133 0.949 . S
H3110 C3114 0.949 . S
C3111 C3112 1.349 . S
C3111 C3113 1.327 . S
C3111 H3134 0.950 . S
C3112 C3111 1.349 . S
C3112 C3124 1.349 . S
C3113 C3111 1.327 . S
C3113 C3129 1.429 . S
C3113 H3135 0.950 . S
C3114 H3110 0.949 . S
C3114 C3122 1.574 . S
C3114 C3130 1.368 . S
H3115 C3123 0.950 . S
H3116 C3121 0.950 . S
H3117 C3122 0.949 . S
H3118 C3124 0.950 . S
H3119 C3125 0.950 . S
H3120 C3126 0.949 . S
C3121 H3116 0.950 . S
C3121 C3123 1.327 . S
C3121 C3127 1.429 . S
C3122 C3114 1.574 . S
C3122 H3117 0.949 . S
C3122 C3128 1.368 . S
C3123 C3107 1.349 . S
C3123 H3115 0.950 . S
C3123 C3121 1.327 . S
C3124 C3112 1.349 . S
C3124 H3118 0.950 . S
C3124 C3125 1.327 . S
C3125 H3119 0.950 . S
C3125 C3124 1.327 . S
C3125 C3129 1.429 . S
C3126 C3109 1.574 . S
C3126 H3120 0.949 . S
C3126 C3130 1.368 . S
C3127 C3108 1.429 . S
C3127 C3121 1.429 . S
C3127 C3128 1.523 . S
C3128 C3109 1.368 . S
C3128 C3122 1.368 . S
C3128 C3127 1.523 . S
C3129 C3113 1.429 . S
C3129 C3125 1.429 . S
C3129 C3130 1.523 . S
C3130 C3114 1.368 . S
C3130 C3126 1.368 . S
C3130 C3129 1.523 . S
H3131 C3106 0.950 . S
H3132 C3108 0.950 . S
H3133 C3109 0.949 . S
H3134 C3111 0.950 . S
H3135 C3113 0.950 . S
C3136 C3137 1.349 . S
C3136 C3138 1.327 . S
C3136 H3161 0.950 . S
C3137 C3136 1.349 . S
C3137 C3153 1.349 . S
C3138 C3136 1.327 . S
C3138 C3157 1.429 . S
C3138 H3162 0.950 . S
C3139 C3156 1.574 . S
C3139 C3158 1.368 . S
C3139 H3163 0.949 . S
H3140 C3144 0.949 . S
C3141 C3142 1.349 . S
C3141 C3143 1.327 . S
C3141 H3164 0.950 . S
C3142 C3141 1.349 . S
C3142 C3154 1.349 . S
C3143 C3141 1.327 . S
C3143 C3159 1.429 . S
C3143 H3165 0.950 . S
C3144 H3140 0.949 . S
C3144 C3152 1.574 . S
C3144 C3160 1.368 . S
H3145 C3153 0.950 . S
H3146 C3151 0.950 . S
H3147 C3152 0.949 . S
H3148 C3154 0.950 . S
H3149 C3155 0.950 . S
H3150 C3156 0.949 . S
C3151 H3146 0.950 . S
C3151 C3153 1.327 . S
C3151 C3157 1.429 . S
C3152 C3144 1.574 . S
C3152 H3147 0.949 . S
C3152 C3158 1.368 . S
C3153 C3137 1.349 . S
C3153 H3145 0.950 . S
C3153 C3151 1.327 . S
C3154 C3142 1.349 . S
C3154 H3148 0.950 . S
C3154 C3155 1.327 . S
C3155 H3149 0.950 . S
C3155 C3154 1.327 . S
C3155 C3159 1.429 . S
C3156 C3139 1.574 . S
C3156 H3150 0.949 . S
C3156 C3160 1.368 . S
C3157 C3138 1.429 . S
C3157 C3151 1.429 . S
C3157 C3158 1.523 . S
C3158 C3139 1.368 . S
C3158 C3152 1.368 . S
C3158 C3157 1.523 . S
C3159 C3143 1.429 . S
C3159 C3155 1.429 . S
C3159 C3160 1.523 . S
C3160 C3144 1.368 . S
C3160 C3156 1.368 . S
C3160 C3159 1.523 . S
H3161 C3136 0.950 . S
H3162 C3138 0.950 . S
H3163 C3139 0.949 . S
H3164 C3141 0.950 . S
H3165 C3143 0.950 . S
C3166 C3167 1.349 . S
C3166 C3168 1.327 . S
C3166 H3191 0.950 . S
C3167 C3166 1.349 . S
C3167 C3183 1.349 . S
C3168 C3166 1.327 . S
C3168 C3187 1.429 . S
C3168 H3192 0.950 . S
C3169 C3186 1.574 . S
C3169 C3188 1.368 . S
C3169 H3193 0.949 . S
H3170 C3174 0.949 . S
C3171 C3172 1.349 . S
C3171 C3173 1.327 . S
C3171 H3194 0.950 . S
C3172 C3171 1.349 . S
C3172 C3184 1.349 . S
C3173 C3171 1.327 . S
C3173 C3189 1.429 . S
C3173 H3195 0.950 . S
C3174 H3170 0.949 . S
C3174 C3182 1.574 . S
C3174 C3190 1.368 . S
H3175 C3183 0.950 . S
H3176 C3181 0.950 . S
H3177 C3182 0.949 . S
H3178 C3184 0.950 . S
H3179 C3185 0.950 . S
H3180 C3186 0.949 . S
C3181 H3176 0.950 . S
C3181 C3183 1.327 . S
C3181 C3187 1.429 . S
C3182 C3174 1.574 . S
C3182 H3177 0.949 . S
C3182 C3188 1.368 . S
C3183 C3167 1.349 . S
C3183 H3175 0.950 . S
C3183 C3181 1.327 . S
C3184 C3172 1.349 . S
C3184 H3178 0.950 . S
C3184 C3185 1.327 . S
C3185 H3179 0.950 . S
C3185 C3184 1.327 . S
C3185 C3189 1.429 . S
C3186 C3169 1.574 . S
C3186 H3180 0.949 . S
C3186 C3190 1.368 . S
C3187 C3168 1.429 . S
C3187 C3181 1.429 . S
C3187 C3188 1.523 . S
C3188 C3169 1.368 . S
C3188 C3182 1.368 . S
C3188 C3187 1.523 . S
C3189 C3173 1.429 . S
C3189 C3185 1.429 . S
C3189 C3190 1.523 . S
C3190 C3174 1.368 . S
C3190 C3186 1.368 . S
C3190 C3189 1.523 . S
H3191 C3166 0.950 . S
H3192 C3168 0.950 . S
H3193 C3169 0.949 . S
H3194 C3171 0.950 . S
H3195 C3173 0.950 . S
C3196 C3197 1.349 . S
C3196 C3198 1.327 . S
C3196 H3221 0.950 . S
C3197 C3196 1.349 . S
C3197 C3213 1.349 . S
C3198 C3196 1.327 . S
C3198 C3217 1.429 . S
C3198 H3222 0.950 . S
C3199 C3216 1.574 . S
C3199 C3218 1.368 . S
C3199 H3223 0.949 . S
H3200 C3204 0.949 . S
C3201 C3202 1.349 . S
C3201 C3203 1.327 . S
C3201 H3224 0.950 . S
C3202 C3201 1.349 . S
C3202 C3214 1.349 . S
C3203 C3201 1.327 . S
C3203 C3219 1.429 . S
C3203 H3225 0.950 . S
C3204 H3200 0.949 . S
C3204 C3212 1.574 . S
C3204 C3220 1.368 . S
H3205 C3213 0.950 . S
H3206 C3211 0.950 . S
H3207 C3212 0.949 . S
H3208 C3214 0.950 . S
H3209 C3215 0.950 . S
H3210 C3216 0.949 . S
C3211 H3206 0.950 . S
C3211 C3213 1.327 . S
C3211 C3217 1.429 . S
C3212 C3204 1.574 . S
C3212 H3207 0.949 . S
C3212 C3218 1.368 . S
C3213 C3197 1.349 . S
C3213 H3205 0.950 . S
C3213 C3211 1.327 . S
C3214 C3202 1.349 . S
C3214 H3208 0.950 . S
C3214 C3215 1.327 . S
C3215 H3209 0.950 . S
C3215 C3214 1.327 . S
C3215 C3219 1.429 . S
C3216 C3199 1.574 . S
C3216 H3210 0.949 . S
C3216 C3220 1.368 . S
C3217 C3198 1.429 . S
C3217 C3211 1.429 . S
C3217 C3218 1.523 . S
C3218 C3199 1.368 . S
C3218 C3212 1.368 . S
C3218 C3217 1.523 . S
C3219 C3203 1.429 . S
C3219 C3215 1.429 . S
C3219 C3220 1.523 . S
C3220 C3204 1.368 . S
C3220 C3216 1.368 . S
C3220 C3219 1.523 . S
H3221 C3196 0.950 . S
H3222 C3198 0.950 . S
H3223 C3199 0.949 . S
H3224 C3201 0.950 . S
H3225 C3203 0.950 . S
C3226 C3227 1.349 . S
C3226 C3228 1.327 . S
C3226 H3251 0.950 . S
C3227 C3226 1.349 . S
C3227 C3243 1.349 . S
C3228 C3226 1.327 . S
C3228 C3247 1.429 . S
C3228 H3252 0.950 . S
C3229 C3246 1.574 . S
C3229 C3248 1.368 . S
C3229 H3253 0.949 . S
H3230 C3234 0.949 . S
C3231 C3232 1.349 . S
C3231 C3233 1.327 . S
C3231 H3254 0.950 . S
C3232 C3231 1.349 . S
C3232 C3244 1.349 . S
C3233 C3231 1.327 . S
C3233 C3249 1.429 . S
C3233 H3255 0.950 . S
C3234 H3230 0.949 . S
C3234 C3242 1.574 . S
C3234 C3250 1.368 . S
H3235 C3243 0.950 . S
H3236 C3241 0.950 . S
H3237 C3242 0.949 . S
H3238 C3244 0.950 . S
H3239 C3245 0.950 . S
H3240 C3246 0.949 . S
C3241 H3236 0.950 . S
C3241 C3243 1.327 . S
C3241 C3247 1.429 . S
C3242 C3234 1.574 . S
C3242 H3237 0.949 . S
C3242 C3248 1.368 . S
C3243 C3227 1.349 . S
C3243 H3235 0.950 . S
C3243 C3241 1.327 . S
C3244 C3232 1.349 . S
C3244 H3238 0.950 . S
C3244 C3245 1.327 . S
C3245 H3239 0.950 . S
C3245 C3244 1.327 . S
C3245 C3249 1.429 . S
C3246 C3229 1.574 . S
C3246 H3240 0.949 . S
C3246 C3250 1.368 . S
C3247 C3228 1.429 . S
C3247 C3241 1.429 . S
C3247 C3248 1.523 . S
C3248 C3229 1.368 . S
C3248 C3242 1.368 . S
C3248 C3247 1.523 . S
C3249 C3233 1.429 . S
C3249 C3245 1.429 . S
C3249 C3250 1.523 . S
C3250 C3234 1.368 . S
C3250 C3246 1.368 . S
C3250 C3249 1.523 . S
H3251 C3226 0.950 . S
H3252 C3228 0.950 . S
H3253 C3229 0.949 . S
H3254 C3231 0.950 . S
H3255 C3233 0.950 . S
C3256 C3257 1.349 . S
C3256 C3258 1.327 . S
C3256 H3281 0.950 . S
C3257 C3256 1.349 . S
C3257 C3273 1.349 . S
C3258 C3256 1.327 . S
C3258 C3277 1.429 . S
C3258 H3282 0.950 . S
C3259 C3276 1.574 . S
C3259 C3278 1.368 . S
C3259 H3283 0.949 . S
H3260 C3264 0.949 . S
C3261 C3262 1.349 . S
C3261 C3263 1.327 . S
C3261 H3284 0.950 . S
C3262 C3261 1.349 . S
C3262 C3274 1.349 . S
C3263 C3261 1.327 . S
C3263 C3279 1.429 . S
C3263 H3285 0.950 . S
C3264 H3260 0.949 . S
C3264 C3272 1.574 . S
C3264 C3280 1.368 . S
H3265 C3273 0.950 . S
H3266 C3271 0.950 . S
H3267 C3272 0.949 . S
H3268 C3274 0.950 . S
H3269 C3275 0.950 . S
H3270 C3276 0.949 . S
C3271 H3266 0.950 . S
C3271 C3273 1.327 . S
C3271 C3277 1.429 . S
C3272 C3264 1.574 . S
C3272 H3267 0.949 . S
C3272 C3278 1.368 . S
C3273 C3257 1.349 . S
C3273 H3265 0.950 . S
C3273 C3271 1.327 . S
C3274 C3262 1.349 . S
C3274 H3268 0.950 . S
C3274 C3275 1.327 . S
C3275 H3269 0.950 . S
C3275 C3274 1.327 . S
C3275 C3279 1.429 . S
C3276 C3259 1.574 . S
C3276 H3270 0.949 . S
C3276 C3280 1.368 . S
C3277 C3258 1.429 . S
C3277 C3271 1.429 . S
C3277 C3278 1.523 . S
C3278 C3259 1.368 . S
C3278 C3272 1.368 . S
C3278 C3277 1.523 . S
C3279 C3263 1.429 . S
C3279 C3275 1.429 . S
C3279 C3280 1.523 . S
C3280 C3264 1.368 . S
C3280 C3276 1.368 . S
C3280 C3279 1.523 . S
H3281 C3256 0.950 . S
H3282 C3258 0.950 . S
H3283 C3259 0.949 . S
H3284 C3261 0.950 . S
H3285 C3263 0.950 . S
C3286 C3287 1.349 . S
C3286 C3288 1.327 . S
C3286 H3311 0.950 . S
C3287 C3286 1.349 . S
C3287 C3303 1.349 . S
C3288 C3286 1.327 . S
C3288 C3307 1.429 . S
C3288 H3312 0.950 . S
C3289 C3306 1.574 . S
C3289 C3308 1.368 . S
C3289 H3313 0.949 . S
H3290 C3294 0.949 . S
C3291 C3292 1.349 . S
C3291 C3293 1.327 . S
C3291 H3314 0.950 . S
C3292 C3291 1.349 . S
C3292 C3304 1.349 . S
C3293 C3291 1.327 . S
C3293 C3309 1.429 . S
C3293 H3315 0.950 . S
C3294 H3290 0.949 . S
C3294 C3302 1.574 . S
C3294 C3310 1.368 . S
H3295 C3303 0.950 . S
H3296 C3301 0.950 . S
H3297 C3302 0.949 . S
H3298 C3304 0.950 . S
H3299 C3305 0.950 . S
H3300 C3306 0.949 . S
C3301 H3296 0.950 . S
C3301 C3303 1.327 . S
C3301 C3307 1.429 . S
C3302 C3294 1.574 . S
C3302 H3297 0.949 . S
C3302 C3308 1.368 . S
C3303 C3287 1.349 . S
C3303 H3295 0.950 . S
C3303 C3301 1.327 . S
C3304 C3292 1.349 . S
C3304 H3298 0.950 . S
C3304 C3305 1.327 . S
C3305 H3299 0.950 . S
C3305 C3304 1.327 . S
C3305 C3309 1.429 . S
C3306 C3289 1.574 . S
C3306 H3300 0.949 . S
C3306 C3310 1.368 . S
C3307 C3288 1.429 . S
C3307 C3301 1.429 . S
C3307 C3308 1.523 . S
C3308 C3289 1.368 . S
C3308 C3302 1.368 . S
C3308 C3307 1.523 . S
C3309 C3293 1.429 . S
C3309 C3305 1.429 . S
C3309 C3310 1.523 . S
C3310 C3294 1.368 . S
C3310 C3306 1.368 . S
C3310 C3309 1.523 . S
H3311 C3286 0.950 . S
H3312 C3288 0.950 . S
H3313 C3289 0.949 . S
H3314 C3291 0.950 . S
H3315 C3293 0.950 . S
C3316 C3317 1.349 . S
C3316 C3318 1.327 . S
C3316 H3341 0.950 . S
C3317 C3316 1.349 . S
C3317 C3333 1.349 . S
C3318 C3316 1.327 . S
C3318 C3337 1.429 . S
C3318 H3342 0.950 . S
C3319 C3336 1.574 . S
C3319 C3338 1.368 . S
C3319 H3343 0.949 . S
H3320 C3324 0.949 . S
C3321 C3322 1.349 . S
C3321 C3323 1.327 . S
C3321 H3344 0.950 . S
C3322 C3321 1.349 . S
C3322 C3334 1.349 . S
C3323 C3321 1.327 . S
C3323 C3339 1.429 . S
C3323 H3345 0.950 . S
C3324 H3320 0.949 . S
C3324 C3332 1.574 . S
C3324 C3340 1.368 . S
H3325 C3333 0.950 . S
H3326 C3331 0.950 . S
H3327 C3332 0.949 . S
H3328 C3334 0.950 . S
H3329 C3335 0.950 . S
H3330 C3336 0.949 . S
C3331 H3326 0.950 . S
C3331 C3333 1.327 . S
C3331 C3337 1.429 . S
C3332 C3324 1.574 . S
C3332 H3327 0.949 . S
C3332 C3338 1.368 . S
C3333 C3317 1.349 . S
C3333 H3325 0.950 . S
C3333 C3331 1.327 . S
C3334 C3322 1.349 . S
C3334 H3328 0.950 . S
C3334 C3335 1.327 . S
C3335 H3329 0.950 . S
C3335 C3334 1.327 . S
C3335 C3339 1.429 . S
C3336 C3319 1.574 . S
C3336 H3330 0.949 . S
C3336 C3340 1.368 . S
C3337 C3318 1.429 . S
C3337 C3331 1.429 . S
C3337 C3338 1.523 . S
C3338 C3319 1.368 . S
C3338 C3332 1.368 . S
C3338 C3337 1.523 . S
C3339 C3323 1.429 . S
C3339 C3335 1.429 . S
C3339 C3340 1.523 . S
C3340 C3324 1.368 . S
C3340 C3336 1.368 . S
C3340 C3339 1.523 . S
H3341 C3316 0.950 . S
H3342 C3318 0.950 . S
H3343 C3319 0.949 . S
H3344 C3321 0.950 . S
H3345 C3323 0.950 . S
C3346 C3347 1.349 . S
C3346 C3348 1.327 . S
C3346 H3371 0.950 . S
C3347 C3346 1.349 . S
C3347 C3363 1.349 . S
C3348 C3346 1.327 . S
C3348 C3367 1.429 . S
C3348 H3372 0.950 . S
C3349 C3366 1.574 . S
C3349 C3368 1.368 . S
C3349 H3373 0.949 . S
H3350 C3354 0.949 . S
C3351 C3352 1.349 . S
C3351 C3353 1.327 . S
C3351 H3374 0.950 . S
C3352 C3351 1.349 . S
C3352 C3364 1.349 . S
C3353 C3351 1.327 . S
C3353 C3369 1.429 . S
C3353 H3375 0.950 . S
C3354 H3350 0.949 . S
C3354 C3362 1.574 . S
C3354 C3370 1.368 . S
H3355 C3363 0.950 . S
H3356 C3361 0.950 . S
H3357 C3362 0.949 . S
H3358 C3364 0.950 . S
H3359 C3365 0.950 . S
H3360 C3366 0.949 . S
C3361 H3356 0.950 . S
C3361 C3363 1.327 . S
C3361 C3367 1.429 . S
C3362 C3354 1.574 . S
C3362 H3357 0.949 . S
C3362 C3368 1.368 . S
C3363 C3347 1.349 . S
C3363 H3355 0.950 . S
C3363 C3361 1.327 . S
C3364 C3352 1.349 . S
C3364 H3358 0.950 . S
C3364 C3365 1.327 . S
C3365 H3359 0.950 . S
C3365 C3364 1.327 . S
C3365 C3369 1.429 . S
C3366 C3349 1.574 . S
C3366 H3360 0.949 . S
C3366 C3370 1.368 . S
C3367 C3348 1.429 . S
C3367 C3361 1.429 . S
C3367 C3368 1.523 . S
C3368 C3349 1.368 . S
C3368 C3362 1.368 . S
C3368 C3367 1.523 . S
C3369 C3353 1.429 . S
C3369 C3365 1.429 . S
C3369 C3370 1.523 . S
C3370 C3354 1.368 . S
C3370 C3366 1.368 . S
C3370 C3369 1.523 . S
H3371 C3346 0.950 . S
H3372 C3348 0.950 . S
H3373 C3349 0.949 . S
H3374 C3351 0.950 . S
H3375 C3353 0.950 . S
C3376 C3377 1.349 . S
C3376 C3378 1.327 . S
C3376 H3401 0.950 . S
C3377 C3376 1.349 . S
C3377 C3393 1.349 . S
C3378 C3376 1.327 . S
C3378 C3397 1.429 . S
C3378 H3402 0.950 . S
C3379 C3396 1.574 . S
C3379 C3398 1.368 . S
C3379 H3403 0.949 . S
H3380 C3384 0.949 . S
C3381 C3382 1.349 . S
C3381 C3383 1.327 . S
C3381 H3404 0.950 . S
C3382 C3381 1.349 . S
C3382 C3394 1.349 . S
C3383 C3381 1.327 . S
C3383 C3399 1.429 . S
C3383 H3405 0.950 . S
C3384 H3380 0.949 . S
C3384 C3392 1.574 . S
C3384 C3400 1.368 . S
H3385 C3393 0.950 . S
H3386 C3391 0.950 . S
H3387 C3392 0.949 . S
H3388 C3394 0.950 . S
H3389 C3395 0.950 . S
H3390 C3396 0.949 . S
C3391 H3386 0.950 . S
C3391 C3393 1.327 . S
C3391 C3397 1.429 . S
C3392 C3384 1.574 . S
C3392 H3387 0.949 . S
C3392 C3398 1.368 . S
C3393 C3377 1.349 . S
C3393 H3385 0.950 . S
C3393 C3391 1.327 . S
C3394 C3382 1.349 . S
C3394 H3388 0.950 . S
C3394 C3395 1.327 . S
C3395 H3389 0.950 . S
C3395 C3394 1.327 . S
C3395 C3399 1.429 . S
C3396 C3379 1.574 . S
C3396 H3390 0.949 . S
C3396 C3400 1.368 . S
C3397 C3378 1.429 . S
C3397 C3391 1.429 . S
C3397 C3398 1.523 . S
C3398 C3379 1.368 . S
C3398 C3392 1.368 . S
C3398 C3397 1.523 . S
C3399 C3383 1.429 . S
C3399 C3395 1.429 . S
C3399 C3400 1.523 . S
C3400 C3384 1.368 . S
C3400 C3396 1.368 . S
C3400 C3399 1.523 . S
H3401 C3376 0.950 . S
H3402 C3378 0.950 . S
H3403 C3379 0.949 . S
H3404 C3381 0.950 . S
H3405 C3383 0.950 . S
C3406 C3407 1.349 . S
C3406 C3408 1.327 . S
C3406 H3431 0.950 . S
C3407 C3406 1.349 . S
C3407 C3423 1.349 . S
C3408 C3406 1.327 . S
C3408 C3427 1.429 . S
C3408 H3432 0.950 . S
C3409 C3426 1.574 . S
C3409 C3428 1.368 . S
C3409 H3433 0.949 . S
H3410 C3414 0.949 . S
C3411 C3412 1.349 . S
C3411 C3413 1.327 . S
C3411 H3434 0.950 . S
C3412 C3411 1.349 . S
C3412 C3424 1.349 . S
C3413 C3411 1.327 . S
C3413 C3429 1.429 . S
C3413 H3435 0.950 . S
C3414 H3410 0.949 . S
C3414 C3422 1.574 . S
C3414 C3430 1.368 . S
H3415 C3423 0.950 . S
H3416 C3421 0.950 . S
H3417 C3422 0.949 . S
H3418 C3424 0.950 . S
H3419 C3425 0.950 . S
H3420 C3426 0.949 . S
C3421 H3416 0.950 . S
C3421 C3423 1.327 . S
C3421 C3427 1.429 . S
C3422 C3414 1.574 . S
C3422 H3417 0.949 . S
C3422 C3428 1.368 . S
C3423 C3407 1.349 . S
C3423 H3415 0.950 . S
C3423 C3421 1.327 . S
C3424 C3412 1.349 . S
C3424 H3418 0.950 . S
C3424 C3425 1.327 . S
C3425 H3419 0.950 . S
C3425 C3424 1.327 . S
C3425 C3429 1.429 . S
C3426 C3409 1.574 . S
C3426 H3420 0.949 . S
C3426 C3430 1.368 . S
C3427 C3408 1.429 . S
C3427 C3421 1.429 . S
C3427 C3428 1.523 . S
C3428 C3409 1.368 . S
C3428 C3422 1.368 . S
C3428 C3427 1.523 . S
C3429 C3413 1.429 . S
C3429 C3425 1.429 . S
C3429 C3430 1.523 . S
C3430 C3414 1.368 . S
C3430 C3426 1.368 . S
C3430 C3429 1.523 . S
H3431 C3406 0.950 . S
H3432 C3408 0.950 . S
H3433 C3409 0.949 . S
H3434 C3411 0.950 . S
H3435 C3413 0.950 . S
C3436 C3437 1.349 . S
C3436 C3438 1.327 . S
C3436 H3461 0.950 . S
C3437 C3436 1.349 . S
C3437 C3453 1.349 . S
C3438 C3436 1.327 . S
C3438 C3457 1.429 . S
C3438 H3462 0.950 . S
C3439 C3456 1.574 . S
C3439 C3458 1.368 . S
C3439 H3463 0.949 . S
H3440 C3444 0.949 1_455 S
C3441 C3442 1.349 . S
C3441 C3443 1.327 1_455 S
C3441 H3464 0.950 . S
C3442 C3441 1.349 . S
C3442 C3454 1.349 . S
C3443 C3441 1.327 1_655 S
C3443 C3459 1.426 1_655 S
C3443 H3465 0.950 . S
C3444 H3440 0.949 1_655 S
C3444 C3452 1.574 . S
C3444 C3460 1.368 . S
H3445 C3453 0.950 . S
H3446 C3451 0.950 . S
H3447 C3452 0.949 . S
H3448 C3454 0.950 . S
H3449 C3455 0.950 . S
H3450 C3456 0.949 . S
C3451 H3446 0.950 . S
C3451 C3453 1.327 . S
C3451 C3457 1.429 . S
C3452 C3444 1.574 . S
C3452 H3447 0.949 . S
C3452 C3458 1.368 . S
C3453 C3437 1.349 . S
C3453 H3445 0.950 . S
C3453 C3451 1.327 . S
C3454 C3442 1.349 . S
C3454 H3448 0.950 . S
C3454 C3455 1.327 . S
C3455 H3449 0.950 . S
C3455 C3454 1.327 . S
C3455 C3459 1.435 . S
C3456 C3439 1.574 . S
C3456 H3450 0.949 . S
C3456 C3460 1.368 . S
C3457 C3438 1.429 . S
C3457 C3451 1.429 . S
C3457 C3458 1.523 . S
C3458 C3439 1.368 . S
C3458 C3452 1.368 . S
C3458 C3457 1.523 . S
C3459 C3443 1.426 1_455 S
C3459 C3455 1.435 . S
C3459 C3460 1.519 1_455 S
C3460 C3444 1.368 . S
C3460 C3456 1.368 . S
C3460 C3459 1.519 1_655 S
H3461 C3436 0.950 . S
H3462 C3438 0.950 . S
H3463 C3439 0.949 . S
H3464 C3441 0.950 . S
H3465 C3443 0.950 . S
C3466 C3467 1.349 . S
C3466 C3468 1.327 . S
C3466 H3491 0.950 . S
C3467 C3466 1.349 . S
C3467 C3483 1.349 . S
C3468 C3466 1.327 . S
C3468 C3487 1.429 . S
C3468 H3492 0.950 . S
C3469 C3486 1.574 . S
C3469 C3488 1.368 . S
C3469 H3493 0.949 . S
H3470 C3474 0.949 . S
C3471 C3472 1.349 . S
C3471 C3473 1.327 . S
C3471 H3494 0.950 . S
C3472 C3471 1.349 . S
C3472 C3484 1.349 . S
C3473 C3471 1.327 . S
C3473 C3489 1.429 . S
C3473 H3495 0.950 . S
C3474 H3470 0.949 . S
C3474 C3482 1.574 . S
C3474 C3490 1.368 . S
H3475 C3483 0.950 . S
H3476 C3481 0.950 . S
H3477 C3482 0.949 . S
H3478 C3484 0.950 . S
H3479 C3485 0.950 . S
H3480 C3486 0.949 . S
C3481 H3476 0.950 . S
C3481 C3483 1.327 . S
C3481 C3487 1.429 . S
C3482 C3474 1.574 . S
C3482 H3477 0.949 . S
C3482 C3488 1.368 . S
C3483 C3467 1.349 . S
C3483 H3475 0.950 . S
C3483 C3481 1.327 . S
C3484 C3472 1.349 . S
C3484 H3478 0.950 . S
C3484 C3485 1.327 . S
C3485 H3479 0.950 . S
C3485 C3484 1.327 . S
C3485 C3489 1.429 . S
C3486 C3469 1.574 . S
C3486 H3480 0.949 . S
C3486 C3490 1.368 . S
C3487 C3468 1.429 . S
C3487 C3481 1.429 . S
C3487 C3488 1.523 . S
C3488 C3469 1.368 . S
C3488 C3482 1.368 . S
C3488 C3487 1.523 . S
C3489 C3473 1.429 . S
C3489 C3485 1.429 . S
C3489 C3490 1.523 . S
C3490 C3474 1.368 . S
C3490 C3486 1.368 . S
C3490 C3489 1.523 . S
H3491 C3466 0.950 . S
H3492 C3468 0.950 . S
H3493 C3469 0.949 . S
H3494 C3471 0.950 . S
H3495 C3473 0.950 . S
C3496 C3497 1.349 . S
C3496 C3498 1.327 . S
C3496 H3521 0.950 . S
C3497 C3496 1.349 . S
C3497 C3513 1.349 . S
C3498 C3496 1.327 . S
C3498 C3517 1.429 . S
C3498 H3522 0.950 . S
C3499 C3516 1.574 . S
C3499 C3518 1.368 . S
C3499 H3523 0.949 . S
H3500 C3504 0.949 . S
C3501 C3502 1.349 . S
C3501 C3503 1.327 . S
C3501 H3524 0.950 . S
C3502 C3501 1.349 . S
C3502 C3514 1.349 . S
C3503 C3501 1.327 . S
C3503 C3519 1.429 . S
C3503 H3525 0.950 . S
C3504 H3500 0.949 . S
C3504 C3512 1.574 . S
C3504 C3520 1.368 . S
H3505 C3513 0.950 . S
H3506 C3511 0.950 . S
H3507 C3512 0.949 . S
H3508 C3514 0.950 . S
H3509 C3515 0.950 . S
H3510 C3516 0.949 . S
C3511 H3506 0.950 . S
C3511 C3513 1.327 . S
C3511 C3517 1.429 . S
C3512 C3504 1.574 . S
C3512 H3507 0.949 . S
C3512 C3518 1.368 . S
C3513 C3497 1.349 . S
C3513 H3505 0.950 . S
C3513 C3511 1.327 . S
C3514 C3502 1.349 . S
C3514 H3508 0.950 . S
C3514 C3515 1.327 . S
C3515 H3509 0.950 . S
C3515 C3514 1.327 . S
C3515 C3519 1.429 . S
C3516 C3499 1.574 . S
C3516 H3510 0.949 . S
C3516 C3520 1.368 . S
C3517 C3498 1.429 . S
C3517 C3511 1.429 . S
C3517 C3518 1.523 . S
C3518 C3499 1.368 . S
C3518 C3512 1.368 . S
C3518 C3517 1.523 . S
C3519 C3503 1.429 . S
C3519 C3515 1.429 . S
C3519 C3520 1.523 . S
C3520 C3504 1.368 . S
C3520 C3516 1.368 . S
C3520 C3519 1.523 . S
H3521 C3496 0.950 . S
H3522 C3498 0.950 . S
H3523 C3499 0.949 . S
H3524 C3501 0.950 . S
H3525 C3503 0.950 . S
C3526 C3527 1.349 . S
C3526 C3528 1.327 . S
C3526 H3551 0.950 . S
C3527 C3526 1.349 . S
C3527 C3543 1.349 . S
C3528 C3526 1.327 . S
C3528 C3547 1.429 . S
C3528 H3552 0.950 . S
C3529 C3546 1.574 . S
C3529 C3548 1.368 . S
C3529 H3553 0.949 . S
H3530 C3534 0.949 . S
C3531 C3532 1.349 . S
C3531 C3533 1.327 . S
C3531 H3554 0.950 . S
C3532 C3531 1.349 . S
C3532 C3544 1.349 . S
C3533 C3531 1.327 . S
C3533 C3549 1.429 . S
C3533 H3555 0.950 . S
C3534 H3530 0.949 . S
C3534 C3542 1.574 . S
C3534 C3550 1.368 . S
H3535 C3543 0.950 . S
H3536 C3541 0.950 . S
H3537 C3542 0.949 . S
H3538 C3544 0.950 . S
H3539 C3545 0.950 . S
H3540 C3546 0.949 . S
C3541 H3536 0.950 . S
C3541 C3543 1.327 . S
C3541 C3547 1.429 . S
C3542 C3534 1.574 . S
C3542 H3537 0.949 . S
C3542 C3548 1.368 . S
C3543 C3527 1.349 . S
C3543 H3535 0.950 . S
C3543 C3541 1.327 . S
C3544 C3532 1.349 . S
C3544 H3538 0.950 . S
C3544 C3545 1.327 . S
C3545 H3539 0.950 . S
C3545 C3544 1.327 . S
C3545 C3549 1.429 . S
C3546 C3529 1.574 . S
C3546 H3540 0.949 . S
C3546 C3550 1.368 . S
C3547 C3528 1.429 . S
C3547 C3541 1.429 . S
C3547 C3548 1.523 . S
C3548 C3529 1.368 . S
C3548 C3542 1.368 . S
C3548 C3547 1.523 . S
C3549 C3533 1.429 . S
C3549 C3545 1.429 . S
C3549 C3550 1.523 . S
C3550 C3534 1.368 . S
C3550 C3546 1.368 . S
C3550 C3549 1.523 . S
H3551 C3526 0.950 . S
H3552 C3528 0.950 . S
H3553 C3529 0.949 . S
H3554 C3531 0.950 . S
H3555 C3533 0.950 . S
C3556 C3557 1.349 . S
C3556 C3558 1.327 . S
C3556 H3581 0.950 . S
C3557 C3556 1.349 . S
C3557 C3573 1.349 . S
C3558 C3556 1.327 . S
C3558 C3577 1.429 . S
C3558 H3582 0.950 . S
C3559 C3576 1.574 . S
C3559 C3578 1.368 . S
C3559 H3583 0.949 . S
H3560 C3564 0.949 . S
C3561 C3562 1.349 . S
C3561 C3563 1.327 . S
C3561 H3584 0.950 1_655 S
C3562 C3561 1.349 . S
C3562 C3574 1.349 . S
C3563 C3561 1.327 . S
C3563 C3579 1.429 . S
C3563 H3585 0.950 . S
C3564 H3560 0.949 . S
C3564 C3572 1.574 . S
C3564 C3580 1.368 . S
H3565 C3573 0.950 . S
H3566 C3571 0.950 . S
H3567 C3572 0.949 . S
H3568 C3574 0.950 . S
H3569 C3575 0.950 . S
H3570 C3576 0.949 . S
C3571 H3566 0.950 . S
C3571 C3573 1.327 . S
C3571 C3577 1.429 . S
C3572 C3564 1.574 . S
C3572 H3567 0.949 . S
C3572 C3578 1.368 . S
C3573 C3557 1.349 . S
C3573 H3565 0.950 . S
C3573 C3571 1.327 . S
C3574 C3562 1.349 . S
C3574 H3568 0.950 . S
C3574 C3575 1.327 . S
C3575 H3569 0.950 . S
C3575 C3574 1.327 . S
C3575 C3579 1.429 . S
C3576 C3559 1.574 . S
C3576 H3570 0.949 . S
C3576 C3580 1.368 . S
C3577 C3558 1.429 . S
C3577 C3571 1.429 . S
C3577 C3578 1.523 . S
C3578 C3559 1.368 . S
C3578 C3572 1.368 . S
C3578 C3577 1.523 . S
C3579 C3563 1.429 . S
C3579 C3575 1.429 . S
C3579 C3580 1.523 . S
C3580 C3564 1.368 . S
C3580 C3576 1.368 . S
C3580 C3579 1.523 . S
H3581 C3556 0.950 . S
H3582 C3558 0.950 . S
H3583 C3559 0.949 . S
H3584 C3561 0.950 1_455 S
H3585 C3563 0.950 . S
C3586 C3587 1.349 . S
C3586 C3588 1.327 . S
C3586 H3611 0.950 . S
C3587 C3586 1.349 . S
C3587 C3603 1.349 . S
C3588 C3586 1.327 . S
C3588 C3607 1.429 . S
C3588 H3612 0.950 . S
C3589 C3606 1.574 . S
C3589 C3608 1.368 . S
C3589 H3613 0.949 . S
H3590 C3594 0.949 . S
C3591 C3592 1.349 . S
C3591 C3593 1.327 . S
C3591 H3614 0.950 . S
C3592 C3591 1.349 . S
C3592 C3604 1.349 . S
C3593 C3591 1.327 . S
C3593 C3609 1.429 . S
C3593 H3615 0.950 . S
C3594 H3590 0.949 . S
C3594 C3602 1.574 . S
C3594 C3610 1.368 . S
H3595 C3603 0.950 . S
H3596 C3601 0.950 . S
H3597 C3602 0.949 . S
H3598 C3604 0.950 . S
H3599 C3605 0.950 . S
H3600 C3606 0.949 . S
C3601 H3596 0.950 . S
C3601 C3603 1.327 . S
C3601 C3607 1.429 . S
C3602 C3594 1.574 . S
C3602 H3597 0.949 . S
C3602 C3608 1.368 . S
C3603 C3587 1.349 . S
C3603 H3595 0.950 . S
C3603 C3601 1.327 . S
C3604 C3592 1.349 . S
C3604 H3598 0.950 . S
C3604 C3605 1.327 . S
C3605 H3599 0.950 . S
C3605 C3604 1.327 . S
C3605 C3609 1.429 . S
C3606 C3589 1.574 . S
C3606 H3600 0.949 . S
C3606 C3610 1.368 . S
C3607 C3588 1.429 . S
C3607 C3601 1.429 . S
C3607 C3608 1.523 . S
C3608 C3589 1.368 . S
C3608 C3602 1.368 . S
C3608 C3607 1.523 . S
C3609 C3593 1.429 . S
C3609 C3605 1.429 . S
C3609 C3610 1.523 . S
C3610 C3594 1.368 . S
C3610 C3606 1.368 . S
C3610 C3609 1.523 . S
H3611 C3586 0.950 . S
H3612 C3588 0.950 . S
H3613 C3589 0.949 . S
H3614 C3591 0.950 . S
H3615 C3593 0.950 . S
C3616 C3617 1.349 . S
C3616 C3618 1.327 . S
C3616 H3641 0.950 . S
C3617 C3616 1.349 . S
C3617 C3633 1.349 . S
C3618 C3616 1.327 . S
C3618 C3637 1.429 . S
C3618 H3642 0.950 . S
C3619 C3636 1.574 . S
C3619 C3638 1.368 . S
C3619 H3643 0.949 . S
H3620 C3624 0.949 . S
C3621 C3622 1.349 . S
C3621 C3623 1.327 . S
C3621 H3644 0.950 . S
C3622 C3621 1.349 . S
C3622 C3634 1.349 . S
C3623 C3621 1.327 . S
C3623 C3639 1.429 . S
C3623 H3645 0.950 . S
C3624 H3620 0.949 . S
C3624 C3632 1.574 . S
C3624 C3640 1.368 . S
H3625 C3633 0.950 . S
H3626 C3631 0.950 . S
H3627 C3632 0.949 . S
H3628 C3634 0.950 . S
H3629 C3635 0.950 . S
H3630 C3636 0.949 . S
C3631 H3626 0.950 . S
C3631 C3633 1.327 . S
C3631 C3637 1.429 . S
C3632 C3624 1.574 . S
C3632 H3627 0.949 . S
C3632 C3638 1.368 . S
C3633 C3617 1.349 . S
C3633 H3625 0.950 . S
C3633 C3631 1.327 . S
C3634 C3622 1.349 . S
C3634 H3628 0.950 . S
C3634 C3635 1.327 . S
C3635 H3629 0.950 . S
C3635 C3634 1.327 . S
C3635 C3639 1.429 . S
C3636 C3619 1.574 . S
C3636 H3630 0.949 . S
C3636 C3640 1.368 . S
C3637 C3618 1.429 . S
C3637 C3631 1.429 . S
C3637 C3638 1.523 . S
C3638 C3619 1.368 . S
C3638 C3632 1.368 . S
C3638 C3637 1.523 . S
C3639 C3623 1.429 . S
C3639 C3635 1.429 . S
C3639 C3640 1.523 . S
C3640 C3624 1.368 . S
C3640 C3636 1.368 . S
C3640 C3639 1.523 . S
H3641 C3616 0.950 . S
H3642 C3618 0.950 . S
H3643 C3619 0.949 . S
H3644 C3621 0.950 . S
H3645 C3623 0.950 . S
C3646 C3647 1.349 . S
C3646 C3648 1.327 . S
C3646 H3671 0.950 . S
C3647 C3646 1.349 . S
C3647 C3663 1.349 . S
C3648 C3646 1.327 . S
C3648 C3667 1.429 . S
C3648 H3672 0.950 . S
C3649 C3666 1.574 . S
C3649 C3668 1.368 . S
C3649 H3673 0.949 . S
H3650 C3654 0.949 . S
C3651 C3652 1.362 . S
C3651 C3653 1.327 1_545 S
C3651 H3674 0.950 . S
C3652 C3651 1.362 . S
C3652 C3664 1.320 1_545 S
C3653 C3651 1.327 1_565 S
C3653 C3669 1.429 . S
C3653 H3675 0.950 . S
C3654 H3650 0.949 . S
C3654 C3662 1.574 . S
C3654 C3670 1.368 . S
H3655 C3663 0.950 . S
H3656 C3661 0.950 . S
H3657 C3662 0.949 . S
H3658 C3664 0.950 . S
H3659 C3665 0.950 . S
H3660 C3666 0.949 . S
C3661 H3656 0.950 . S
C3661 C3663 1.327 . S
C3661 C3667 1.429 . S
C3662 C3654 1.574 . S
C3662 H3657 0.949 . S
C3662 C3668 1.368 . S
C3663 C3647 1.349 . S
C3663 H3655 0.950 . S
C3663 C3661 1.327 . S
C3664 C3652 1.320 1_565 S
C3664 H3658 0.950 . S
C3664 C3665 1.327 . S
C3665 H3659 0.950 . S
C3665 C3664 1.327 . S
C3665 C3669 1.429 . S
C3666 C3649 1.574 . S
C3666 H3660 0.949 . S
C3666 C3670 1.368 . S
C3667 C3648 1.429 . S
C3667 C3661 1.429 . S
C3667 C3668 1.523 . S
C3668 C3649 1.368 . S
C3668 C3662 1.368 . S
C3668 C3667 1.523 . S
C3669 C3653 1.429 . S
C3669 C3665 1.429 . S
C3669 C3670 1.523 . S
C3670 C3654 1.368 . S
C3670 C3666 1.368 . S
C3670 C3669 1.523 . S
H3671 C3646 0.950 . S
H3672 C3648 0.950 . S
H3673 C3649 0.949 . S
H3674 C3651 0.950 . S
H3675 C3653 0.950 . S
C3676 C3677 1.349 . S
C3676 C3678 1.327 . S
C3676 H3701 0.950 . S
C3677 C3676 1.349 . S
C3677 C3693 1.349 . S
C3678 C3676 1.327 . S
C3678 C3697 1.429 . S
C3678 H3702 0.950 . S
C3679 C3696 1.574 . S
C3679 C3698 1.368 . S
C3679 H3703 0.949 . S
H3680 C3684 0.949 . S
C3681 C3682 1.349 . S
C3681 C3683 1.327 . S
C3681 H3704 0.950 . S
C3682 C3681 1.349 . S
C3682 C3694 1.349 . S
C3683 C3681 1.327 . S
C3683 C3699 1.429 . S
C3683 H3705 0.950 . S
C3684 H3680 0.949 . S
C3684 C3692 1.574 . S
C3684 C3700 1.368 . S
H3685 C3693 0.950 . S
H3686 C3691 0.950 . S
H3687 C3692 0.949 . S
H3688 C3694 0.950 . S
H3689 C3695 0.950 . S
H3690 C3696 0.949 . S
C3691 H3686 0.950 . S
C3691 C3693 1.327 . S
C3691 C3697 1.429 . S
C3692 C3684 1.574 . S
C3692 H3687 0.949 . S
C3692 C3698 1.368 . S
C3693 C3677 1.349 . S
C3693 H3685 0.950 . S
C3693 C3691 1.327 . S
C3694 C3682 1.349 . S
C3694 H3688 0.950 . S
C3694 C3695 1.327 . S
C3695 H3689 0.950 . S
C3695 C3694 1.327 . S
C3695 C3699 1.429 . S
C3696 C3679 1.574 . S
C3696 H3690 0.949 . S
C3696 C3700 1.368 . S
C3697 C3678 1.429 . S
C3697 C3691 1.429 . S
C3697 C3698 1.523 . S
C3698 C3679 1.368 . S
C3698 C3692 1.368 . S
C3698 C3697 1.523 . S
C3699 C3683 1.429 . S
C3699 C3695 1.429 . S
C3699 C3700 1.523 . S
C3700 C3684 1.368 . S
C3700 C3696 1.368 . S
C3700 C3699 1.523 . S
H3701 C3676 0.950 . S
H3702 C3678 0.950 . S
H3703 C3679 0.949 . S
H3704 C3681 0.950 . S
H3705 C3683 0.950 . S
C3706 C3707 1.349 1_556 S
C3706 C3708 1.327 . S
C3706 H3731 0.950 . S
C3707 C3706 1.349 1_554 S
C3707 C3723 1.349 . S
C3708 C3706 1.327 . S
C3708 C3727 1.429 1_556 S
C3708 H3732 0.950 . S
C3709 C3726 1.574 . S
C3709 C3728 1.368 . S
C3709 H3733 0.949 . S
H3710 C3714 0.949 . S
C3711 C3712 1.349 . S
C3711 C3713 1.327 . S
C3711 H3734 0.950 . S
C3712 C3711 1.349 . S
C3712 C3724 1.349 1_554 S
C3713 C3711 1.327 . S
C3713 C3729 1.429 . S
C3713 H3735 0.950 . S
C3714 H3710 0.949 . S
C3714 C3722 1.574 . S
C3714 C3730 1.368 1_556 S
H3715 C3723 0.950 . S
H3716 C3721 0.950 . S
H3717 C3722 0.949 . S
H3718 C3724 0.950 . S
H3719 C3725 0.950 . S
H3720 C3726 0.949 . S
C3721 H3716 0.950 . S
C3721 C3723 1.327 . S
C3721 C3727 1.429 . S
C3722 C3714 1.574 . S
C3722 H3717 0.949 . S
C3722 C3728 1.368 1_556 S
C3723 C3707 1.349 . S
C3723 H3715 0.950 . S
C3723 C3721 1.327 . S
C3724 C3712 1.349 1_556 S
C3724 H3718 0.950 . S
C3724 C3725 1.327 . S
C3725 H3719 0.950 . S
C3725 C3724 1.327 . S
C3725 C3729 1.429 1_556 S
C3726 C3709 1.574 . S
C3726 H3720 0.949 . S
C3726 C3730 1.368 . S
C3727 C3708 1.429 1_554 S
C3727 C3721 1.429 . S
C3727 C3728 1.523 . S
C3728 C3709 1.368 . S
C3728 C3722 1.368 1_554 S
C3728 C3727 1.523 . S
C3729 C3713 1.429 . S
C3729 C3725 1.429 1_554 S
C3729 C3730 1.523 . S
C3730 C3714 1.368 1_554 S
C3730 C3726 1.368 . S
C3730 C3729 1.523 . S
H3731 C3706 0.950 . S
H3732 C3708 0.950 . S
H3733 C3709 0.949 . S
H3734 C3711 0.950 . S
H3735 C3713 0.950 . S
C3736 C3737 1.349 . S
C3736 C3738 1.327 . S
C3736 H3761 0.950 . S
C3737 C3736 1.349 . S
C3737 C3753 1.349 . S
C3738 C3736 1.327 . S
C3738 C3757 1.429 . S
C3738 H3762 0.950 . S
C3739 C3756 1.574 . S
C3739 C3758 1.368 . S
C3739 H3763 0.949 . S
H3740 C3744 0.949 . S
C3741 C3742 1.349 . S
C3741 C3743 1.327 . S
C3741 H3764 0.950 . S
C3742 C3741 1.349 . S
C3742 C3754 1.349 . S
C3743 C3741 1.327 . S
C3743 C3759 1.429 . S
C3743 H3765 0.950 . S
C3744 H3740 0.949 . S
C3744 C3752 1.574 . S
C3744 C3760 1.368 . S
H3745 C3753 0.950 . S
H3746 C3751 0.950 . S
H3747 C3752 0.949 . S
H3748 C3754 0.950 . S
H3749 C3755 0.950 . S
H3750 C3756 0.949 . S
C3751 H3746 0.950 . S
C3751 C3753 1.327 . S
C3751 C3757 1.429 . S
C3752 C3744 1.574 . S
C3752 H3747 0.949 . S
C3752 C3758 1.368 . S
C3753 C3737 1.349 . S
C3753 H3745 0.950 . S
C3753 C3751 1.327 . S
C3754 C3742 1.349 . S
C3754 H3748 0.950 . S
C3754 C3755 1.327 . S
C3755 H3749 0.950 . S
C3755 C3754 1.327 . S
C3755 C3759 1.429 . S
C3756 C3739 1.574 . S
C3756 H3750 0.949 . S
C3756 C3760 1.368 . S
C3757 C3738 1.429 . S
C3757 C3751 1.429 . S
C3757 C3758 1.523 . S
C3758 C3739 1.368 . S
C3758 C3752 1.368 . S
C3758 C3757 1.523 . S
C3759 C3743 1.429 . S
C3759 C3755 1.429 . S
C3759 C3760 1.523 . S
C3760 C3744 1.368 . S
C3760 C3756 1.368 . S
C3760 C3759 1.523 . S
H3761 C3736 0.950 . S
H3762 C3738 0.950 . S
H3763 C3739 0.949 . S
H3764 C3741 0.950 . S
H3765 C3743 0.950 . S
C3766 C3767 1.349 . S
C3766 C3768 1.327 . S
C3766 H3791 0.950 . S
C3767 C3766 1.349 . S
C3767 C3783 1.349 1_554 S
C3768 C3766 1.327 . S
C3768 C3787 1.429 . S
C3768 H3792 0.950 . S
C3769 C3786 1.574 . S
C3769 C3788 1.368 1_556 S
C3769 H3793 0.949 . S
H3770 C3774 0.949 . S
C3771 C3772 1.349 . S
C3771 C3773 1.327 . S
C3771 H3794 0.950 . S
C3772 C3771 1.349 . S
C3772 C3784 1.360 . S
C3773 C3771 1.327 . S
C3773 C3789 1.429 . S
C3773 H3795 0.950 . S
C3774 H3770 0.949 . S
C3774 C3782 1.574 . S
C3774 C3790 1.368 1_554 S
H3775 C3783 0.950 . S
H3776 C3781 0.950 . S
H3777 C3782 0.949 . S
H3778 C3784 0.942 1_554 S
H3779 C3785 0.950 . S
H3780 C3786 0.949 . S
C3781 H3776 0.950 . S
C3781 C3783 1.327 . S
C3781 C3787 1.429 1_556 S
C3782 C3774 1.574 . S
C3782 H3777 0.949 . S
C3782 C3788 1.368 . S
C3783 C3767 1.349 1_556 S
C3783 H3775 0.950 . S
C3783 C3781 1.327 . S
C3784 C3772 1.360 . S
C3784 H3778 0.942 1_556 S
C3784 C3785 1.324 1_556 S
C3785 H3779 0.950 . S
C3785 C3784 1.324 1_554 S
C3785 C3789 1.429 1_554 S
C3786 C3769 1.574 . S
C3786 H3780 0.949 . S
C3786 C3790 1.368 . S
C3787 C3768 1.429 . S
C3787 C3781 1.429 1_554 S
C3787 C3788 1.523 . S
C3788 C3769 1.368 1_554 S
C3788 C3782 1.368 . S
C3788 C3787 1.523 . S
C3789 C3773 1.429 . S
C3789 C3785 1.429 1_556 S
C3789 C3790 1.523 . S
C3790 C3774 1.368 1_556 S
C3790 C3786 1.368 . S
C3790 C3789 1.523 . S
H3791 C3766 0.950 . S
H3792 C3768 0.950 . S
H3793 C3769 0.949 . S
H3794 C3771 0.950 . S
H3795 C3773 0.950 . S
C3796 C3797 1.349 . S
C3796 C3798 1.327 . S
C3796 H3821 0.950 . S
C3797 C3796 1.349 . S
C3797 C3813 1.349 . S
C3798 C3796 1.327 . S
C3798 C3817 1.429 . S
C3798 H3822 0.950 . S
C3799 C3816 1.574 . S
C3799 C3818 1.368 . S
C3799 H3823 0.949 . S
H3800 C3804 0.949 . S
C3801 C3802 1.349 . S
C3801 C3803 1.327 . S
C3801 H3824 0.950 . S
C3802 C3801 1.349 . S
C3802 C3814 1.349 . S
C3803 C3801 1.327 . S
C3803 C3819 1.429 . S
C3803 H3825 0.950 . S
C3804 H3800 0.949 . S
C3804 C3812 1.574 . S
C3804 C3820 1.368 . S
H3805 C3813 0.950 . S
H3806 C3811 0.950 . S
H3807 C3812 0.949 . S
H3808 C3814 0.950 . S
H3809 C3815 0.950 . S
H3810 C3816 0.949 . S
C3811 H3806 0.950 . S
C3811 C3813 1.327 . S
C3811 C3817 1.429 . S
C3812 C3804 1.574 . S
C3812 H3807 0.949 . S
C3812 C3818 1.368 . S
C3813 C3797 1.349 . S
C3813 H3805 0.950 . S
C3813 C3811 1.327 . S
C3814 C3802 1.349 . S
C3814 H3808 0.950 . S
C3814 C3815 1.327 . S
C3815 H3809 0.950 . S
C3815 C3814 1.327 . S
C3815 C3819 1.429 . S
C3816 C3799 1.574 . S
C3816 H3810 0.949 . S
C3816 C3820 1.368 . S
C3817 C3798 1.429 . S
C3817 C3811 1.429 . S
C3817 C3818 1.523 . S
C3818 C3799 1.368 . S
C3818 C3812 1.368 . S
C3818 C3817 1.523 . S
C3819 C3803 1.429 . S
C3819 C3815 1.429 . S
C3819 C3820 1.523 . S
C3820 C3804 1.368 . S
C3820 C3816 1.368 . S
C3820 C3819 1.523 . S
H3821 C3796 0.950 . S
H3822 C3798 0.950 . S
H3823 C3799 0.949 . S
H3824 C3801 0.950 . S
H3825 C3803 0.950 . S
C3826 C3827 1.349 . S
C3826 C3828 1.327 . S
C3826 H3851 0.950 . S
C3827 C3826 1.349 . S
C3827 C3843 1.349 . S
C3828 C3826 1.327 . S
C3828 C3847 1.429 . S
C3828 H3852 0.950 . S
C3829 C3846 1.574 . S
C3829 C3848 1.368 . S
C3829 H3853 0.949 . S
H3830 C3834 0.949 . S
C3831 C3832 1.349 . S
C3831 C3833 1.327 . S
C3831 H3854 0.950 . S
C3832 C3831 1.349 . S
C3832 C3844 1.349 . S
C3833 C3831 1.327 . S
C3833 C3849 1.429 . S
C3833 H3855 0.950 . S
C3834 H3830 0.949 . S
C3834 C3842 1.574 . S
C3834 C3850 1.368 . S
H3835 C3843 0.950 . S
H3836 C3841 0.950 . S
H3837 C3842 0.949 . S
H3838 C3844 0.950 . S
H3839 C3845 0.950 . S
H3840 C3846 0.949 . S
C3841 H3836 0.950 . S
C3841 C3843 1.327 . S
C3841 C3847 1.429 . S
C3842 C3834 1.574 . S
C3842 H3837 0.949 . S
C3842 C3848 1.368 . S
C3843 C3827 1.349 . S
C3843 H3835 0.950 . S
C3843 C3841 1.327 . S
C3844 C3832 1.349 . S
C3844 H3838 0.950 . S
C3844 C3845 1.327 . S
C3845 H3839 0.950 . S
C3845 C3844 1.327 . S
C3845 C3849 1.429 . S
C3846 C3829 1.574 . S
C3846 H3840 0.949 . S
C3846 C3850 1.368 . S
C3847 C3828 1.429 . S
C3847 C3841 1.429 . S
C3847 C3848 1.523 . S
C3848 C3829 1.368 . S
C3848 C3842 1.368 . S
C3848 C3847 1.523 . S
C3849 C3833 1.429 . S
C3849 C3845 1.429 . S
C3849 C3850 1.523 . S
C3850 C3834 1.368 . S
C3850 C3846 1.368 . S
C3850 C3849 1.523 . S
H3851 C3826 0.950 . S
H3852 C3828 0.950 . S
H3853 C3829 0.949 . S
H3854 C3831 0.950 . S
H3855 C3833 0.950 . S
C977 C109 2.183 . S
C982 C346 2.133 1_556 S
C1007 C65 2.069 . S
C1012 C394 2.060 . S
C1037 C75 1.049 . S
C1042 C426 1.022 . S
C1072 C471 1.412 . S
C1067 C84 1.413 . S
C1097 C25 1.190 . S
C1102 C511 1.176 . S
C1132 C542 0.291 . S
C1127 C28 0.273 . S
C1162 C594 1.194 . S
C1157 C47 1.181 . S
C1187 C9 1.744 . S
C1192 C626 1.676 . S
C1222 C354 2.515 . S
C1217 C233 2.532 . S
C1247 C249 0.303 . S
C1252 C391 0.376 . S
C1282 C434 1.365 . S
C1277 C275 1.378 . S
C1312 C466 1.159 . S
C1307 C173 1.183 . S
C1337 C224 1.805 . S
C1342 C506 1.795 . S
C1372 C545 1.449 . S
C1367 C243 1.475 . S
C1402 C591 0.281 . S
C1397 C266 0.187 . S
C1432 C634 1.933 . S
C1427 C179 1.949 . S
C1462 C351 1.437 1_565 S
C1457 C163 1.478 . S
C1487 C289 1.978 . S
C1492 C674 1.970 . S
C1522 C715 2.533 . S
C1517 C333 2.587 . S
C1552 C746 0.491 1_655 S
C1547 C308 0.481 . S
C1577 C123 1.342 . S
C1582 C631 1.328 . S
C1607 C126 1.549 . S
C1612 C431 1.550 . S
C1637 C327 2.331 . S
C1642 C794 2.307 . S
C1672 C826 0.560 . S
C1667 C299 0.507 . S
C1702 C355 2.145 . S
C1697 C67 2.203 . S
C1732 C825 2.099 . S
C1727 C98 2.070 . S
C1757 C89 1.087 . S
C1762 C435 1.061 . S
C1787 C79 1.474 . S
C1792 C782 1.460 . S
C1822 C502 1.175 . S
C1817 C11 1.197 . S
C1847 C51 0.273 . S
C1852 C711 0.307 . S
C1882 C585 1.271 1_556 S
C1877 C33 1.258 . S
C1912 C875 1.666 . S
C1907 C14 1.750 . S
C1942 C345 2.500 . S
C1937 C140 2.508 . S
C1972 C822 0.364 . S
C1967 C319 0.269 . S
C1997 C112 1.395 . S
C2002 C425 1.389 . S
C2027 C285 1.213 . S
C2032 C795 1.191 . S
C2057 C149 1.863 . S
C2062 C515 1.824 . S
C2092 C714 1.488 . S
C2087 C313 1.516 . S
C2117 C121 0.134 . S
C2122 C582 0.273 . S
C2147 C291 1.989 . S
C2152 C865 1.968 . S
C2177 C182 1.486 . S
C2182 C342 1.453 . S
C2207 C168 1.982 . S
C2212 C665 1.997 . S
C2237 C263 2.641 . S
C2242 C546 2.588 . S
C2267 C247 0.556 . S
C2272 C755 0.571 . S
C2302 C862 1.311 . S
C2297 C277 1.333 . S
C2327 C219 1.596 . S
C2332 C422 1.570 . S
C2362 C465 2.356 . S
C2357 C257 2.382 . S
C2392 C395 0.562 . S
C2387 C201 0.516 . S
C2417 C81 2.183 . S
C2422 C906 2.133 . S
C2452 C834 2.060 . S
C2447 C93 2.069 . S
C2477 C103 1.048 . S
C2482 C946 1.019 . S
C2507 C56 1.413 . S
C2512 C791 1.412 . S
C2537 C53 1.191 . S
C2542 C671 1.175 . S
C2572 C702 0.291 . S
C2567 C0 0.273 . S
C2602 C754 1.194 . S
C2597 C19 1.179 . S
C2632 C866 1.675 . S
C2627 C37 1.744 . S
C2662 C914 2.514 . S
C2657 C261 2.532 . S
C2687 C193 0.303 . S
C2692 C831 0.376 . S
C2722 C954 1.365 . S
C2717 C205 1.379 . S
C2752 C786 1.159 . S
C2747 C215 1.183 . S
C2782 C666 1.795 . S
C2777 C252 1.805 . S
C2807 C187 1.475 . S
C2812 C705 1.449 . S
C2842 C751 0.281 . S
C2837 C196 0.187 . S
C2867 C221 1.949 . S
C2872 C874 1.933 . S
C2902 C911 1.462 . S
C2897 C317 1.478 . S
C2927 C135 1.980 . S
C2932 C514 1.970 . S
C2962 C555 2.533 . S
C2957 C151 2.587 . S
C2992 C586 0.501 . S
C2987 C154 0.481 . S
C3022 C871 1.328 . S
C3017 C305 1.342 . S
C3047 C280 1.549 . S
C3052 C951 1.551 . S
C3082 C474 2.307 . S
C3077 C145 2.331 . S
C3112 C386 0.560 . S
C3107 C117 0.507 . S
C3137 C95 2.203 . S
C3142 C915 2.145 . S
C3172 C385 2.099 . S
C3167 C70 2.070 . S
C3197 C61 1.087 . S
C3202 C955 1.061 . S
C3227 C107 1.474 . S
C3232 C462 1.460 . S
C3257 C39 1.197 . S
C3262 C662 1.175 . S
C3292 C551 0.306 . S
C3287 C23 0.267 . S
C3317 C5 1.257 . S
C3322 C745 1.268 . S
C3347 C42 1.742 . S
C3352 C635 1.666 . S
C3382 C905 2.500 . S
C3377 C322 2.508 . S
C3407 C165 0.269 . S
C3412 C382 0.364 . S
C3442 C945 1.389 . S
C3437 C294 1.395 . S
C3467 C131 1.213 . S
C3472 C475 1.191 . S
C3497 C331 1.863 . S
C3502 C675 1.824 . S
C3532 C554 1.488 . S
C3527 C159 1.516 . S
C3557 C303 0.134 . S
C3562 C742 0.273 . S
C3592 C625 1.968 . S
C3587 C137 1.989 . S
C3622 C902 1.453 . S
C3617 C238 1.486 . S
C3652 C505 2.016 1_655 S
C3647 C210 1.982 . S
C3677 C235 2.642 . S
C3682 C706 2.588 . S
C3712 C595 0.571 . S
C3707 C191 0.556 . S
C3737 C207 1.333 . S
C3742 C622 1.311 . S
C3767 C177 1.596 . S
C3772 C942 1.570 . S
C3802 C785 2.357 . S
C3797 C229 2.382 1_565 S
C3832 C835 0.562 . S
C3827 C271 0.517 . S
