# Generated by pormake.
# Topology ssb, (4,4)-cn, num edge types: 1
# Building blocks:
#     Node 0, Type 0, BuildingBlock: ESEHIV_clean_sbu_0, # of connection points: 4
#     Node 1, Type 0, BuildingBlock: ESEHIV_clean_sbu_0, # of connection points: 4
#     Node 2, Type 0, BuildingBlock: ESEHIV_clean_sbu_0, # of connection points: 4
#     Node 3, Type 0, BuildingBlock: ESEHIV_clean_sbu_0, # of connection points: 4
#     Node 4, Type 0, BuildingBlock: ESEHIV_clean_sbu_0, # of connection points: 4
#     Node 5, Type 0, BuildingBlock: ESEHIV_clean_sbu_0, # of connection points: 4
#     Node 6, Type 0, BuildingBlock: ESEHIV_clean_sbu_0, # of connection points: 4
#     Node 7, Type 0, BuildingBlock: ESEHIV_clean_sbu_0, # of connection points: 4
#     Node 8, Type 1, BuildingBlock: KOZSID_clean_sbu_0, # of connection points: 4
#     Node 9, Type 1, BuildingBlock: KOZSID_clean_sbu_0, # of connection points: 4
#     Node 10, Type 1, BuildingBlock: KOZSID_clean_sbu_0, # of connection points: 4
#     Node 11, Type 1, BuildingBlock: KOZSID_clean_sbu_0, # of connection points: 4
#     Node 12, Type 1, BuildingBlock: KOZSID_clean_sbu_0, # of connection points: 4
#     Node 13, Type 1, BuildingBlock: KOZSID_clean_sbu_0, # of connection points: 4
#     Node 14, Type 1, BuildingBlock: KOZSID_clean_sbu_0, # of connection points: 4
#     Node 15, Type 1, BuildingBlock: KOZSID_clean_sbu_0, # of connection points: 4
#     Edge 16, Type (0, 1), BuildingBlock: KIFKEQ_clean_linker_1, # of connection points: 2
#     Edge 17, Type (0, 1), BuildingBlock: KIFKEQ_clean_linker_1, # of connection points: 2
#     Edge 18, Type (0, 1), BuildingBlock: KIFKEQ_clean_linker_1, # of connection points: 2
#     Edge 19, Type (0, 1), BuildingBlock: KIFKEQ_clean_linker_1, # of connection points: 2
#     Edge 20, Type (0, 1), BuildingBlock: KIFKEQ_clean_linker_1, # of connection points: 2
#     Edge 21, Type (0, 1), BuildingBlock: KIFKEQ_clean_linker_1, # of connection points: 2
#     Edge 22, Type (0, 1), BuildingBlock: KIFKEQ_clean_linker_1, # of connection points: 2
#     Edge 23, Type (0, 1), BuildingBlock: KIFKEQ_clean_linker_1, # of connection points: 2
#     Edge 24, Type (0, 1), BuildingBlock: KIFKEQ_clean_linker_1, # of connection points: 2
#     Edge 25, Type (0, 1), BuildingBlock: KIFKEQ_clean_linker_1, # of connection points: 2
#     Edge 26, Type (0, 1), BuildingBlock: KIFKEQ_clean_linker_1, # of connection points: 2
#     Edge 27, Type (0, 1), BuildingBlock: KIFKEQ_clean_linker_1, # of connection points: 2
#     Edge 28, Type (0, 1), BuildingBlock: KIFKEQ_clean_linker_1, # of connection points: 2
#     Edge 29, Type (0, 1), BuildingBlock: KIFKEQ_clean_linker_1, # of connection points: 2
#     Edge 30, Type (0, 1), BuildingBlock: KIFKEQ_clean_linker_1, # of connection points: 2
#     Edge 31, Type (0, 1), BuildingBlock: KIFKEQ_clean_linker_1, # of connection points: 2
#     Edge 32, Type (0, 1), BuildingBlock: KIFKEQ_clean_linker_1, # of connection points: 2
#     Edge 33, Type (0, 1), BuildingBlock: KIFKEQ_clean_linker_1, # of connection points: 2
#     Edge 34, Type (0, 1), BuildingBlock: KIFKEQ_clean_linker_1, # of connection points: 2
#     Edge 35, Type (0, 1), BuildingBlock: KIFKEQ_clean_linker_1, # of connection points: 2
#     Edge 36, Type (0, 1), BuildingBlock: KIFKEQ_clean_linker_1, # of connection points: 2
#     Edge 37, Type (0, 1), BuildingBlock: KIFKEQ_clean_linker_1, # of connection points: 2
#     Edge 38, Type (0, 1), BuildingBlock: KIFKEQ_clean_linker_1, # of connection points: 2
#     Edge 39, Type (0, 1), BuildingBlock: KIFKEQ_clean_linker_1, # of connection points: 2
#     Edge 40, Type (0, 1), BuildingBlock: KIFKEQ_clean_linker_1, # of connection points: 2
#     Edge 41, Type (0, 1), BuildingBlock: KIFKEQ_clean_linker_1, # of connection points: 2
#     Edge 42, Type (0, 1), BuildingBlock: KIFKEQ_clean_linker_1, # of connection points: 2
#     Edge 43, Type (0, 1), BuildingBlock: KIFKEQ_clean_linker_1, # of connection points: 2
#     Edge 44, Type (0, 1), BuildingBlock: KIFKEQ_clean_linker_1, # of connection points: 2
#     Edge 45, Type (0, 1), BuildingBlock: KIFKEQ_clean_linker_1, # of connection points: 2
#     Edge 46, Type (0, 1), BuildingBlock: KIFKEQ_clean_linker_1, # of connection points: 2
#     Edge 47, Type (0, 1), BuildingBlock: KIFKEQ_clean_linker_1, # of connection points: 2
# Relax obj value: 0.004
# Max RMSD: 0.112
# Mean RMSD: 0.053
data_MOF--net-ssb--node1-ESEHIV_clean_sbu_0--node2-KOZSID_clean_sbu_0--edge1-KIFKEQ_clean_linker_1
_symmetry_space_group_name_H-M    P1
_symmetry_Int_Tables_number       1
_symmetry_cell_setting            triclinic
loop_
_symmetry_equiv_pos_as_xyz
'x, y, z'
_cell_length_a     56.193923
_cell_length_b     56.086274
_cell_length_c     41.176684
_cell_angle_alpha  92.429719
_cell_angle_beta   94.668287
_cell_angle_gamma 89.943547
loop_
_atom_site_label
_atom_site_type_symbol
_atom_site_fract_x
_atom_site_fract_y
_atom_site_fract_z
_atom_type_partial_charge
Cu0 Cu 0.27853 0.26471 0.28129 0.0
N1 N 0.27335 0.23109 0.28395 0.0
N2 N 0.27217 0.19479 0.30631 0.0
C3 C 0.27759 0.2184 0.31128 0.0
C4 C 0.26413 0.19278 0.2744 0.0
C5 C 0.26486 0.21493 0.26086 0.0
O6 O 0.26313 0.27822 0.31932 0.0
C7 C 0.3187 0.26079 0.24943 0.0
O8 O 0.30253 0.24848 0.23095 0.0
H9 H 0.28471 0.22645 0.33437 0.0
H10 H 0.25953 0.21888 0.23585 0.0
N11 N 0.26457 0.28071 0.24406 0.0
N12 N 0.25888 0.30965 0.20727 0.0
C13 C 0.27069 0.30295 0.2356 0.0
C14 C 0.24822 0.27308 0.22022 0.0
C15 C 0.24469 0.29071 0.19777 0.0
C16 C 0.24045 0.27525 0.31594 0.0
O17 O 0.23106 0.26506 0.28856 0.0
H18 H 0.28404 0.31379 0.24973 0.0
H19 H 0.23948 0.25588 0.21909 0.0
O20 O 0.31292 0.26946 0.27697 0.0
H21 H 0.25778 0.17651 0.26153 0.0
H22 H 0.23236 0.28957 0.17617 0.0
Cu23 Cu 0.78796 0.28138 0.27484 0.0
N24 N 0.77116 0.27027 0.23571 0.0
N25 N 0.73993 0.26499 0.19838 0.0
C26 C 0.74798 0.2752 0.22759 0.0
C27 C 0.75898 0.25312 0.18778 0.0
C28 C 0.77817 0.25643 0.21078 0.0
O29 O 0.78084 0.31558 0.27673 0.0
C30 C 0.77886 0.24035 0.30495 0.0
O31 O 0.78706 0.23234 0.27758 0.0
H32 H 0.73717 0.28582 0.24325 0.0
H33 H 0.79588 0.24909 0.20947 0.0
N34 N 0.82122 0.27664 0.27648 0.0
N35 N 0.85908 0.27518 0.29866 0.0
C36 C 0.83569 0.27631 0.30431 0.0
C37 C 0.83589 0.27548 0.25224 0.0
C38 C 0.85919 0.27453 0.2658 0.0
C39 C 0.79689 0.33172 0.27759 0.0
O40 O 0.81931 0.32589 0.28444 0.0
H41 H 0.82911 0.27813 0.32826 0.0
H42 H 0.83015 0.27614 0.22659 0.0
O43 O 0.77693 0.26286 0.30986 0.0
H44 H 0.7592 0.24293 0.16491 0.0
H45 H 0.87495 0.27381 0.25236 0.0
Cu46 Cu 0.77099 0.7926 0.26798 0.0
N47 N 0.78431 0.77541 0.23261 0.0
N48 N 0.79149 0.74387 0.19844 0.0
C49 C 0.77943 0.75216 0.22393 0.0
C50 C 0.80443 0.7629 0.19086 0.0
C51 C 0.79999 0.78214 0.21175 0.0
O52 O 0.73632 0.78828 0.25717 0.0
C53 C 0.80952 0.78585 0.30908 0.0
O54 O 0.81718 0.79728 0.28474 0.0
H55 H 0.76744 0.74144 0.23656 0.0
H56 H 0.80783 0.79974 0.21176 0.0
N57 N 0.77679 0.82636 0.2748 0.0
N58 N 0.78083 0.86249 0.30189 0.0
C59 C 0.77391 0.83929 0.30298 0.0
C60 C 0.78579 0.84203 0.25516 0.0
C61 C 0.78824 0.86407 0.27159 0.0
C62 C 0.72933 0.79889 0.23115 0.0
O63 O 0.74512 0.8116 0.21752 0.0
H64 H 0.76745 0.83155 0.32424 0.0
H65 H 0.79049 0.83774 0.23066 0.0
O66 O 0.78747 0.77981 0.30747 0.0
H67 H 0.81621 0.76313 0.17136 0.0
H68 H 0.79494 0.88008 0.2617 0.0
Cu69 Cu 0.26835 0.77052 0.25918 0.0
N70 N 0.28397 0.78497 0.22601 0.0
N71 N 0.31285 0.7921 0.1927 0.0
C72 C 0.30394 0.77663 0.21309 0.0
C73 C 0.29765 0.81081 0.19269 0.0
C74 C 0.27999 0.80641 0.21319 0.0
O75 O 0.27277 0.73621 0.25155 0.0
C76 C 0.29837 0.79831 0.30606 0.0
O77 O 0.31199 0.80182 0.28226 0.0
H78 H 0.31239 0.76002 0.21984 0.0
H79 H 0.26575 0.81838 0.2192 0.0
N80 N 0.23555 0.77792 0.26 0.0
N81 N 0.19989 0.78207 0.28084 0.0
C82 C 0.22246 0.77373 0.28535 0.0
C83 C 0.22074 0.78949 0.2387 0.0
C84 C 0.19878 0.79211 0.2515 0.0
C85 C 0.25565 0.72126 0.24651 0.0
O86 O 0.23381 0.72815 0.25111 0.0
H87 H 0.22957 0.76505 0.30704 0.0
H88 H 0.22558 0.79582 0.21568 0.0
O89 O 0.28142 0.78317 0.30171 0.0
H90 H 0.29927 0.82679 0.17919 0.0
H91 H 0.18318 0.80061 0.23999 0.0
Cu92 Cu 0.27879 0.77706 0.7516 0.0
N93 N 0.31155 0.76952 0.75326 0.0
N94 N 0.34894 0.76522 0.77597 0.0
C95 C 0.32627 0.77164 0.78083 0.0
C96 C 0.34845 0.75879 0.74392 0.0
C97 C 0.32537 0.76133 0.73003 0.0
O98 O 0.26875 0.76232 0.79209 0.0
C99 C 0.28478 0.81729 0.7155 0.0
O100 O 0.29363 0.7998 0.69805 0.0
H101 H 0.3204 0.77806 0.80401 0.0
H102 H 0.31915 0.75746 0.70481 0.0
N103 N 0.26002 0.76212 0.71638 0.0
N104 N 0.22763 0.75422 0.68199 0.0
C105 C 0.23788 0.76924 0.70561 0.0
C106 C 0.26402 0.74203 0.69857 0.0
C107 C 0.24402 0.73703 0.67754 0.0
C108 C 0.27229 0.73961 0.79229 0.0
O109 O 0.2812 0.7293 0.76678 0.0
H110 H 0.22914 0.78473 0.71575 0.0
H111 H 0.28009 0.73143 0.70116 0.0
O112 O 0.27642 0.81204 0.74254 0.0
H113 H 0.36359 0.75237 0.73147 0.0
H114 H 0.24168 0.72189 0.66039 0.0
Cu115 Cu 0.29126 0.29943 0.76529 0.0
N116 N 0.29525 0.33257 0.76486 0.0
N117 N 0.29471 0.37008 0.78543 0.0
C118 C 0.29222 0.34679 0.79128 0.0
C119 C 0.29945 0.37059 0.75384 0.0
C120 C 0.29988 0.34735 0.7412 0.0
O121 O 0.30867 0.29037 0.80653 0.0
C122 C 0.24958 0.30035 0.72752 0.0
O123 O 0.26556 0.30952 0.71007 0.0
H124 H 0.28759 0.34008 0.81422 0.0
H125 H 0.30291 0.34175 0.71643 0.0
N126 N 0.30519 0.282 0.73209 0.0
N127 N 0.31078 0.25019 0.69899 0.0
C128 C 0.29996 0.25888 0.72503 0.0
C129 C 0.32 0.28832 0.70982 0.0
C130 C 0.32342 0.26869 0.68923 0.0
C131 C 0.33041 0.2975 0.80816 0.0
O132 O 0.33772 0.30818 0.78296 0.0
H133 H 0.2877 0.24887 0.73821 0.0
H134 H 0.32751 0.30594 0.70834 0.0
O135 O 0.25661 0.29378 0.75614 0.0
H136 H 0.30239 0.38656 0.74084 0.0
H137 H 0.33433 0.26809 0.66873 0.0
Cu138 Cu 0.77701 0.28735 0.78141 0.0
N139 N 0.79038 0.30117 0.74623 0.0
N140 N 0.81787 0.30717 0.71071 0.0
C141 C 0.81109 0.29369 0.7348 0.0
C142 C 0.80065 0.3239 0.70687 0.0
C143 C 0.78369 0.32012 0.72875 0.0
O144 O 0.78516 0.25272 0.77464 0.0
C145 C 0.77907 0.32794 0.82457 0.0
O146 O 0.76292 0.3344 0.80179 0.0
H147 H 0.82135 0.27897 0.74474 0.0
H148 H 0.76785 0.33064 0.73198 0.0
N149 N 0.74336 0.28886 0.78048 0.0
N150 N 0.70698 0.28757 0.79932 0.0
C151 C 0.73083 0.28773 0.80706 0.0
C152 C 0.72679 0.28966 0.75501 0.0
C153 C 0.70436 0.28868 0.76654 0.0
C154 C 0.77708 0.24298 0.74702 0.0
O155 O 0.76397 0.25594 0.72671 0.0
H156 H 0.7391 0.28647 0.8316 0.0
H157 H 0.7307 0.29056 0.72981 0.0
O158 O 0.78864 0.30716 0.82145 0.0
H159 H 0.80028 0.33789 0.68952 0.0
H160 H 0.68745 0.28889 0.75196 0.0
Cu161 Cu 0.79069 0.78356 0.79256 0.0
N162 N 0.80767 0.76868 0.82692 0.0
N163 N 0.81763 0.73967 0.86096 0.0
C164 C 0.79958 0.75144 0.84508 0.0
C165 C 0.83784 0.74993 0.85271 0.0
C166 C 0.83163 0.76791 0.83184 0.0
O167 O 0.75645 0.78093 0.79972 0.0
C168 C 0.80286 0.77565 0.72402 0.0
O169 O 0.7852 0.78958 0.71396 0.0
H170 H 0.78106 0.74608 0.84434 0.0
H171 H 0.84372 0.77829 0.81891 0.0
N172 N 0.79712 0.81638 0.79551 0.0
N173 N 0.80041 0.85391 0.77995 0.0
C174 C 0.80245 0.83053 0.7714 0.0
C175 C 0.79193 0.83137 0.82031 0.0
C176 C 0.79387 0.85452 0.81078 0.0
C177 C 0.74298 0.76271 0.80083 0.0
O178 O 0.7505 0.74166 0.7909 0.0
H179 H 0.80602 0.82396 0.74726 0.0
H180 H 0.78559 0.82581 0.84293 0.0
O181 O 0.80503 0.76988 0.75376 0.0
H182 H 0.85576 0.74387 0.85967 0.0
H183 H 0.78969 0.87051 0.82483 0.0
C184 C 0.07548 0.31302 0.59195 0.0
C185 C 0.08307 0.3354 0.60423 0.0
C186 C 0.07069 0.35172 0.58589 0.0
C187 C 0.05634 0.33847 0.56344 0.0
N188 N 0.0585 0.31463 0.56662 0.0
Co189 Co 0.04212 0.2889 0.53749 0.0
N190 N 0.02579 0.31285 0.50837 0.0
C191 C 0.0279 0.33688 0.51161 0.0
C192 C 0.01405 0.34875 0.4886 0.0
C193 C 1.00212 0.3313 0.46974 0.0
C194 C 0.00933 0.30969 0.48244 0.0
N195 N 0.0259 0.26312 0.50834 0.0
C196 C 0.00963 0.26459 0.4822 0.0
C197 C 1.00226 0.24213 0.46986 0.0
C198 C 0.01415 0.22593 0.48886 0.0
C199 C 0.02799 0.23931 0.51172 0.0
N200 N 0.05834 0.26495 0.56665 0.0
C201 C 0.05579 0.24097 0.56393 0.0
C202 C 0.06951 0.22908 0.58705 0.0
C203 C 0.08191 0.24648 0.60536 0.0
C204 C 0.07507 0.26804 0.59218 0.0
N205 N 0.01408 0.28992 0.56463 0.0
C206 C 0.97214 0.29199 0.59903 0.0
C207 C 0.98258 0.27012 0.59051 0.0
C208 C 1.00332 0.2695 0.57354 0.0
C209 C 0.98349 0.31272 0.59044 0.0
C210 C 1.00419 0.3113 0.5737 0.0
N211 N 0.07009 0.28805 0.51028 0.0
C212 C 0.10062 0.26633 0.48268 0.0
C213 C 0.11048 0.28755 0.47283 0.0
C214 C 0.09972 0.30895 0.48241 0.0
C215 C 0.07982 0.30878 0.50076 0.0
C216 C 0.08061 0.26697 0.50116 0.0
H217 H 0.07271 0.32577 0.50706 0.0
H218 H 0.07392 0.25021 0.50779 0.0
H219 H 0.01021 0.25229 0.56765 0.0
H220 H 0.01162 0.32786 0.56795 0.0
C221 C 0.04212 0.34778 0.53753 0.0
C222 C 0.08592 0.29079 0.60383 0.0
C223 C 0.9997 0.28671 0.4693 0.0
C224 C 0.04181 0.23008 0.53793 0.0
H225 H 0.09664 0.33956 0.6238 0.0
H226 H 0.07258 0.37093 0.58791 0.0
H227 H 0.01243 0.36784 0.48625 0.0
H228 H 0.98928 0.33415 0.44921 0.0
H229 H 0.98917 0.23784 0.44974 0.0
H230 H 0.01235 0.2067 0.48688 0.0
H231 H 0.07091 0.20998 0.58961 0.0
H232 H 0.09497 0.24362 0.62562 0.0
H233 H 0.97491 0.25345 0.59698 0.0
H234 H 0.97621 0.33018 0.59587 0.0
H235 H 0.108 0.2492 0.47571 0.0
H236 H 0.10673 0.32596 0.47609 0.0
C237 C 0.76231 0.082 0.58763 0.0
C238 C 0.74042 0.09009 0.59697 0.0
C239 C 0.72328 0.07627 0.58 0.0
C240 C 0.73549 0.0607 0.56098 0.0
N241 N 0.75947 0.06352 0.56492 0.0
Co242 Co 0.78333 0.04567 0.53914 0.0
N243 N 0.75796 0.0255 0.51381 0.0
C244 C 0.73438 0.02605 0.51813 0.0
C245 C 0.72117 0.00975 0.49854 0.0
C246 C 0.73727 0.99782 0.48081 0.0
C247 C 0.75955 0.00751 0.49061 0.0
N248 N 0.80707 0.02865 0.51222 0.0
C249 C 0.80412 0.01116 0.48809 0.0
C250 C 0.82577 1.0048 0.47625 0.0
C251 C 0.8429 0.0186 0.49328 0.0
C252 C 0.83089 0.03262 0.51455 0.0
N253 N 0.8088 0.06504 0.56542 0.0
C254 C 0.83258 0.06269 0.56347 0.0
C255 C 0.846 0.07762 0.58489 0.0
C256 C 0.82984 0.09037 0.60155 0.0
C257 C 0.80733 0.08267 0.58911 0.0
N258 N 0.78669 0.02062 0.5722 0.0
C259 C 0.79111 0.98459 0.61861 0.0
C260 C 0.81041 0.99098 0.6013 0.0
C261 C 0.80791 0.00898 0.57874 0.0
C262 C 0.7696 0.99681 0.61225 0.0
C263 C 0.76774 0.01434 0.58902 0.0
N264 N 0.77995 0.0708 0.5064 0.0
C265 C 0.79734 0.10254 0.47796 0.0
C266 C 0.77485 0.1096 0.46473 0.0
C267 C 0.75503 0.09634 0.47196 0.0
C268 C 0.75797 0.07713 0.49254 0.0
C269 C 0.79948 0.08324 0.49839 0.0
H270 H 0.74213 0.06789 0.49723 0.0
H271 H 0.81712 0.07884 0.50768 0.0
H272 H 0.82344 0.01299 0.56681 0.0
H273 H 0.75071 0.02253 0.58518 0.0
C274 C 0.72509 0.04283 0.53973 0.0
C275 C 0.78519 0.09279 0.60063 0.0
C276 C 0.78151 0.99918 0.47664 0.0
C277 C 0.84161 0.04792 0.53918 0.0
H278 H 0.73707 0.10465 0.61406 0.0
H279 H 0.70415 0.07754 0.58124 0.0
H280 H 0.70204 1.00699 0.49712 0.0
H281 H 0.73307 0.98366 0.46258 0.0
H282 H 0.82897 0.99115 0.45776 0.0
H283 H 0.86196 0.01795 0.49113 0.0
H284 H 0.86524 0.07942 0.58757 0.0
H285 H 0.83419 0.10397 0.62052 0.0
H286 H 0.82742 0.98197 0.60466 0.0
H287 H 0.75414 0.99312 0.62528 0.0
H288 H 0.81336 0.11177 0.47243 0.0
H289 H 0.7372 0.101 0.46235 0.0
C290 C 0.04974 0.78546 0.56307 0.0
C291 C 0.05902 0.80685 0.57683 0.0
C292 C 0.04486 0.82456 0.56434 0.0
C293 C 0.02772 0.81305 0.54388 0.0
N294 N 0.02965 0.78901 0.54314 0.0
Co295 Co 0.00929 0.76572 0.51479 0.0
N296 N 0.98946 0.79189 0.49462 0.0
C297 C 0.9915 0.81549 0.5025 0.0
C298 C 0.97409 0.8291 0.48719 0.0
C299 C 0.95973 0.81322 0.46887 0.0
C300 C 0.96937 0.79072 0.47383 0.0
N301 N 0.98976 0.74246 0.48531 0.0
C302 C 0.97031 0.74594 0.46425 0.0
C303 C 0.96234 0.72471 0.44852 0.0
C304 C 0.97684 0.70713 0.4607 0.0
C305 C 0.99291 0.71859 0.48287 0.0
N306 N 0.02837 0.73949 0.53614 0.0
C307 C 0.02477 0.71579 0.53052 0.0
C308 C 0.0412 0.70196 0.54737 0.0
C309 C 0.05641 0.71772 0.56449 0.0
C310 C 0.0483 0.74045 0.55728 0.0
N311 N 0.98548 0.76387 0.54841 0.0
C312 C 0.94677 0.76327 0.58882 0.0
C313 C 0.95303 0.74289 0.57066 0.0
C314 C 0.97246 0.74345 0.55126 0.0
C315 C 0.96103 0.7836 0.58754 0.0
C316 C 0.98003 0.78355 0.56736 0.0
N317 N 0.03286 0.7677 0.48095 0.0
C318 C 0.06244 0.7491 0.44822 0.0
C319 C 0.06841 0.77098 0.43562 0.0
C320 C 0.05573 0.7911 0.44599 0.0
C321 C 0.0384 0.78912 0.46849 0.0
C322 C 0.04471 0.74784 0.47023 0.0
H323 H 0.02981 0.80527 0.47561 0.0
H324 H 0.04111 0.73056 0.47856 0.0
H325 H 0.97631 0.72721 0.53831 0.0
H326 H 0.98968 0.79986 0.56698 0.0
C327 C 0.00964 0.82424 0.52497 0.0
C328 C 0.06107 0.76235 0.56908 0.0
C329 C 0.95818 0.76872 0.45945 0.0
C330 C 0.00872 0.70724 0.50505 0.0
H331 H 0.07465 0.80942 0.59378 0.0
H332 H 0.04701 0.84359 0.56921 0.0
H333 H 0.97175 0.84822 0.48974 0.0
H334 H 0.94363 0.81772 0.45422 0.0
H335 H 0.94714 0.72211 0.43082 0.0
H336 H 0.97515 0.68814 0.4552 0.0
H337 H 0.04287 0.68272 0.54571 0.0
H338 H 0.07227 0.71283 0.57931 0.0
H339 H 0.94298 0.72648 0.57142 0.0
H340 H 0.95709 0.79984 0.60123 0.0
H341 H 0.07167 0.73287 0.44173 0.0
H342 H 0.05894 0.80848 0.43674 0.0
C343 C 0.30557 0.97909 0.57527 0.0
C344 C 0.32771 0.97076 0.58719 0.0
C345 C 0.34446 0.98293 0.57218 0.0
C346 C 0.33173 0.998 0.55199 0.0
N347 N 0.30785 0.99659 0.55362 0.0
Co348 Co 0.2831 0.0141 0.5257 0.0
N349 N 0.30774 0.03168 0.50292 0.0
C350 C 0.33163 0.03051 0.50988 0.0
C351 C 0.34427 0.04597 0.49292 0.0
C352 C 0.32746 0.05811 0.47436 0.0
C353 C 0.30537 0.0492 0.48078 0.0
N354 N 0.25831 0.03045 0.49645 0.0
C355 C 0.26037 0.04716 0.47368 0.0
C356 C 0.23823 0.05299 0.4587 0.0
C357 C 0.22164 0.0401 0.47298 0.0
C358 C 0.23448 0.02694 0.49557 0.0
N359 N 0.25843 0.99773 0.54986 0.0
C360 C 0.23456 1.00084 0.54527 0.0
C361 C 0.2218 0.98728 0.56469 0.0
C362 C 0.23847 0.97458 0.58268 0.0
C363 C 0.26062 0.98111 0.57321 0.0
N364 N 0.28338 0.0415 0.55803 0.0
C365 C 0.28637 0.08512 0.59487 0.0
C366 C 0.26471 0.07732 0.57878 0.0
C367 C 0.26354 0.05544 0.561 0.0
C368 C 0.30603 0.06994 0.59397 0.0
C369 C 0.30414 0.04839 0.5757 0.0
N370 N 0.28317 0.98671 0.49334 0.0
C371 C 0.26428 0.95127 0.46722 0.0
C372 C 0.28571 0.94398 0.45479 0.0
C373 C 0.3054 0.95922 0.46055 0.0
C374 C 0.30377 0.98022 0.47966 0.0
C375 C 0.26334 0.97264 0.48598 0.0
H376 H 0.31965 0.99064 0.48347 0.0
H377 H 0.24651 0.97712 0.49486 0.0
H378 H 0.24653 0.05046 0.54919 0.0
H379 H 0.32001 0.03803 0.57547 0.0
C380 C 0.34159 0.0143 0.53202 0.0
C381 C 0.28299 0.96977 0.58545 0.0
C382 C 0.28267 0.05854 0.46599 0.0
C383 C 0.22467 0.01379 0.51928 0.0
H384 H 0.33136 0.95722 0.60487 0.0
H385 H 0.36366 0.981 0.57557 0.0
H386 H 0.36344 0.04835 0.49419 0.0
H387 H 0.33111 0.07221 0.45833 0.0
H388 H 0.23439 0.06568 0.43991 0.0
H389 H 0.20243 0.04096 0.46836 0.0
H390 H 0.20258 0.98587 0.5646 0.0
H391 H 0.23463 0.96134 0.59988 0.0
H392 H 0.24879 0.08816 0.57958 0.0
H393 H 0.32318 0.07507 0.60616 0.0
H394 H 0.24839 0.94028 0.46336 0.0
H395 H 0.32221 0.95497 0.45054 0.0
C396 C 0.56907 0.80013 0.06395 0.0
C397 C 0.57703 0.82283 0.07429 0.0
C398 C 0.56504 0.83844 0.05442 0.0
C399 C 0.55041 0.82449 0.0332 0.0
N400 N 0.55203 0.80091 0.03855 0.0
Co401 Co 0.53465 0.77448 0.01203 0.0
N402 N 0.51691 0.79755 0.98287 0.0
C403 C 0.51863 0.82162 0.98518 0.0
C404 C 0.50387 0.83291 0.9626 0.0
C405 C 0.49164 0.815 0.94509 0.0
C406 C 0.49962 0.79372 0.95814 0.0
N407 N 0.51797 0.748 0.98479 0.0
C408 C 0.501 0.7487 0.95932 0.0
C409 C 0.49407 0.72589 0.94791 0.0
C410 C 0.50711 0.71031 0.96667 0.0
C411 C 0.52116 0.72436 0.98849 0.0
N412 N 0.55159 0.75149 0.04219 0.0
C413 C 0.54906 0.72749 0.04071 0.0
C414 C 0.56297 0.71624 0.06426 0.0
C415 C 0.57525 0.73409 0.08184 0.0
C416 C 0.56809 0.75533 0.06796 0.0
N417 N 0.50758 0.77622 0.0409 0.0
C418 C 0.46615 0.779 0.0764 0.0
C419 C 0.47564 0.75698 0.06662 0.0
C420 C 0.49612 0.756 0.04912 0.0
C421 C 0.47841 0.79956 0.06894 0.0
C422 C 0.49889 0.79779 0.05158 0.0
N423 N 0.56162 0.77276 0.98274 0.0
C424 C 0.59385 0.75095 0.95884 0.0
C425 C 0.60001 0.77056 0.94109 0.0
C426 C 0.58625 0.79126 0.94481 0.0
C427 C 0.5677 0.79207 0.96572 0.0
C428 C 0.57473 0.75231 0.97888 0.0
H429 H 0.55853 0.80863 0.96758 0.0
H430 H 0.57101 0.73653 0.99113 0.0
H431 H 0.50213 0.73865 0.04197 0.0
H432 H 0.50724 0.81417 0.0467 0.0
C433 C 0.53465 0.83303 0.00845 0.0
C434 C 0.57851 0.77847 0.07892 0.0
C435 C 0.49014 0.77039 0.94617 0.0
C436 C 0.53534 0.71597 0.01496 0.0
H437 H 0.59026 0.82761 0.09408 0.0
H438 H 0.56681 0.85768 0.05529 0.0
H439 H 0.50217 0.8519 0.95931 0.0
H440 H 0.4783 0.81737 0.92502 0.0
H441 H 0.48054 0.72094 0.92863 0.0
H442 H 0.50581 0.69103 0.96539 0.0
H443 H 0.56462 0.69724 0.06754 0.0
H444 H 0.58847 0.73163 0.10202 0.0
H445 H 0.46696 0.74045 0.0716 0.0
H446 H 0.47229 0.81708 0.07652 0.0
H447 H 0.60385 0.73448 0.95781 0.0
H448 H 0.58943 0.80698 0.93146 0.0
C449 C 0.24289 0.56832 0.07592 0.0
C450 C 0.22038 0.57482 0.08477 0.0
C451 C 0.20424 0.56306 0.06331 0.0
C452 C 0.2177 0.55021 0.04253 0.0
N453 N 0.24152 0.55283 0.04955 0.0
Co454 Co 0.26749 0.53841 0.02429 0.0
N455 N 0.24368 0.52263 0.99127 0.0
C456 C 0.21961 0.52362 0.991 0.0
C457 C 0.20791 0.51091 0.96539 0.0
C458 C 0.22554 0.50104 0.94832 0.0
C459 C 0.24707 0.50828 0.96466 0.0
N460 N 0.2935 0.52424 0.99898 0.0
C461 C 0.29222 0.50991 0.97151 0.0
C462 C 0.31478 0.50374 0.96245 0.0
C463 C 0.33085 0.51461 0.98483 0.0
C464 C 0.3173 0.52665 1.00627 0.0
N465 N 0.29131 0.5541 0.05737 0.0
C466 C 0.31535 0.55232 0.05841 0.0
C467 C 0.32709 0.56496 0.08405 0.0
C468 C 0.30951 0.57571 0.10025 0.0
C469 C 0.28799 0.5691 0.08331 0.0
N470 N 0.26748 0.50895 0.05107 0.0
C471 C 0.26689 0.46599 0.08668 0.0
C472 C 0.28837 0.47706 0.08032 0.0
C473 C 0.28826 0.4982 0.06276 0.0
C474 C 0.24579 0.47734 0.07512 0.0
C475 C 0.24647 0.49838 0.05771 0.0
N476 N 0.26736 0.56769 0.99738 0.0
C477 C 0.28814 0.59908 0.97148 0.0
C478 C 0.26664 0.60861 0.95772 0.0
C479 C 0.24558 0.59726 0.96499 0.0
C480 C 0.24632 0.57719 0.98445 0.0
C481 C 0.2881 0.57891 0.99099 0.0
H482 H 0.22952 0.56963 0.98866 0.0
H483 H 0.3051 0.57256 1.00052 0.0
H484 H 0.30528 0.5054 0.05869 0.0
H485 H 0.22962 0.50571 0.04974 0.0
C486 C 0.20854 0.53657 0.01522 0.0
C487 C 0.26498 0.57809 0.0924 0.0
C488 C 0.2702 0.50094 0.95397 0.0
C489 C 0.32641 0.53965 0.03407 0.0
H490 H 0.216 0.58716 0.10428 0.0
H491 H 0.18497 0.56424 0.06243 0.0
H492 H 0.18883 0.50898 0.95985 0.0
H493 H 0.22286 0.48974 0.92636 0.0
H494 H 0.31925 0.49224 0.94209 0.0
H495 H 0.35012 0.51352 0.98569 0.0
H496 H 0.34617 0.56652 0.0899 0.0
H497 H 0.31225 0.58739 0.12184 0.0
H498 H 0.30536 0.46924 0.08823 0.0
H499 H 0.22854 0.4702 0.07968 0.0
H500 H 0.3051 0.60678 0.96675 0.0
H501 H 0.22831 0.60389 0.95594 0.0
C502 C 0.48059 0.30239 0.99335 0.0
C503 C 0.47263 0.32502 0.98542 0.0
C504 C 0.48746 0.34093 1.00296 0.0
C505 C 0.50358 0.32723 0.0206 0.0
N506 N 0.50001 0.30348 0.01537 0.0
Co507 Co 0.51935 0.27733 0.03644 0.0
N508 N 0.54043 0.30082 0.0635 0.0
C509 C 0.53811 0.32484 0.06479 0.0
C510 C 0.55568 0.3364 0.08446 0.0
C511 C 0.57031 0.31876 0.09616 0.0
C512 C 0.56076 0.29731 0.08297 0.0
N513 N 0.53914 0.2512 0.05672 0.0
C514 C 0.55986 0.25236 0.07621 0.0
C515 C 0.56839 0.22979 0.0834 0.0
C516 C 0.55289 0.21381 0.06726 0.0
C517 C 0.53581 0.22746 0.05128 0.0
N518 N 0.49788 0.25381 0.01006 0.0
C519 C 0.49915 0.22974 0.01063 0.0
C520 C 0.48167 0.21816 0.99084 0.0
C521 C 0.46821 0.23586 0.97697 0.0
C522 C 0.47827 0.25733 0.98922 0.0
N523 N 0.54159 0.2779 1.00092 0.0
C524 C 0.57633 0.27833 0.95483 0.0
C525 C 0.56409 0.25738 0.96026 0.0
C526 C 0.54704 0.2575 0.98344 0.0
C527 C 0.57043 0.29914 0.97208 0.0
C528 C 0.55291 0.29863 0.99438 0.0
N529 N 0.49713 0.27684 0.07218 0.0
C530 C 0.47256 0.25527 0.10716 0.0
C531 C 0.46292 0.27652 0.11947 0.0
C532 C 0.47144 0.29789 0.10841 0.0
C533 C 0.48833 0.29766 0.08517 0.0
C534 C 0.48946 0.25583 0.08381 0.0
H535 H 0.49372 0.31463 0.07784 0.0
H536 H 0.49576 0.239 0.07517 0.0
H537 H 0.53877 0.24082 0.98721 0.0
H538 H 0.54907 0.31522 1.00636 0.0
C539 C 0.52114 0.33609 0.04398 0.0
C540 C 0.46853 0.28052 0.98017 0.0
C541 C 0.57244 0.27427 0.08786 0.0
C542 C 0.51708 0.21856 0.02987 0.0
H543 H 0.45737 0.32958 0.96912 0.0
H544 H 0.48626 0.3602 1.00343 0.0
H545 H 0.55822 0.35545 0.0885 0.0
H546 H 0.58663 0.3215 0.11167 0.0
H547 H 0.58441 0.22536 0.09831 0.0
H548 H 0.55424 0.19455 0.06659 0.0
H549 H 0.47899 0.1991 0.98703 0.0
H550 H 0.45268 0.23325 0.95985 0.0
H551 H 0.5681 0.24084 0.94729 0.0
H552 H 0.57929 0.31583 0.96831 0.0
H553 H 0.46659 0.23816 0.11469 0.0
H554 H 0.46506 0.31492 0.11755 0.0
C555 C 0.76539 0.56472 0.07481 0.0
C556 C 0.74302 0.57377 0.08036 0.0
C557 C 0.72664 0.5571 0.0676 0.0
C558 C 0.7398 0.53889 0.05482 0.0
N559 N 0.76347 0.54298 0.05865 0.0
Co560 Co 0.78857 0.52138 0.04227 0.0
N561 N 0.76502 0.50239 0.01261 0.0
C562 C 0.74112 0.50338 0.01359 0.0
C563 C 0.72903 0.48851 0.99066 0.0
C564 C 0.74632 0.47696 0.97456 0.0
C565 C 0.76818 0.48521 0.98885 0.0
N566 N 0.81385 0.49986 0.02596 0.0
C567 C 0.81298 0.48263 1.00138 0.0
C568 C 0.83479 0.47103 1.00059 0.0
C569 C 0.84959 0.48095 0.02558 0.0
C570 C 0.83615 0.498 0.04036 0.0
N571 N 0.81192 0.54032 0.07213 0.0
C572 C 0.83423 0.5334 0.08172 0.0
C573 C 0.84643 0.55002 0.10213 0.0
C574 C 0.83082 0.56859 0.10569 0.0
C575 C 0.8099 0.56229 0.0871 0.0
N576 N 0.78406 0.49946 0.07734 0.0
C577 C 0.77966 0.46784 0.12781 0.0
C578 C 0.77999 0.49263 0.13412 0.0
C579 C 0.78213 0.50808 0.10862 0.0
C580 C 0.78126 0.45936 0.09556 0.0
C581 C 0.78339 0.47534 0.07088 0.0
N582 N 0.79313 0.54351 1.00777 0.0
C583 C 0.81857 0.57191 0.98516 0.0
C584 C 0.7988 0.58254 0.9684 0.0
C585 C 0.77635 0.57182 0.97 0.0
C586 C 0.77388 0.55258 0.98998 0.0
C587 C 0.8154 0.55224 1.00409 0.0
H588 H 0.75621 0.54575 0.99203 0.0
H589 H 0.8309 0.54494 0.01717 0.0
H590 H 0.78243 0.52702 0.11433 0.0
H591 H 0.78481 0.46795 0.04665 0.0
C592 C 0.73066 0.52008 0.03421 0.0
C593 C 0.78803 0.57684 0.08621 0.0
C594 C 0.79123 0.47434 0.98147 0.0
C595 C 0.84422 0.51345 0.06654 0.0
H596 H 0.73889 0.59072 0.09208 0.0
H597 H 0.70739 0.55865 0.06638 0.0
H598 H 0.70989 0.48649 0.98593 0.0
H599 H 0.74316 0.46354 0.95503 0.0
H600 H 0.83931 0.45627 0.9845 0.0
H601 H 0.86794 0.47614 0.03232 0.0
H602 H 0.86481 0.5492 0.11217 0.0
H603 H 0.83438 0.58486 0.12034 0.0
H604 H 0.77853 0.50011 0.15856 0.0
H605 H 0.7815 0.44041 0.08939 0.0
H606 H 0.83636 0.57925 0.98511 0.0
H607 H 0.76055 0.57854 0.95664 0.0
H608 H 0.24901 0.27555 0.38339 0.0
H609 H 0.19431 0.28817 0.30636 0.0
H610 H 0.21898 0.27999 0.42368 0.0
H611 H 0.1647 0.29229 0.34581 0.0
H612 H 0.1182 0.31704 0.42318 0.0
H613 H 0.15153 0.3174 0.3892 0.0
H614 H 0.18336 0.25806 0.44003 0.0
H615 H 0.15024 0.25828 0.47523 0.0
C616 C 0.23076 0.27976 0.37515 0.0
C617 C 0.2241 0.28163 0.34167 0.0
C618 C 0.21347 0.282 0.39813 0.0
C619 C 0.1893 0.28649 0.3881 0.0
C620 C 0.18306 0.28917 0.3547 0.0
C621 C 0.20012 0.28671 0.33195 0.0
C622 C 0.13243 0.30426 0.42764 0.0
C623 C 0.13132 0.28761 0.45213 0.0
C624 C 0.15153 0.30433 0.40782 0.0
C625 C 0.17021 0.28768 0.41161 0.0
C626 C 0.16945 0.27128 0.43651 0.0
C627 C 0.15023 0.2712 0.45642 0.0
H628 H 0.77105 0.19292 0.29463 0.0
H629 H 0.77551 0.24825 0.37107 0.0
H630 H 0.76745 0.16293 0.33464 0.0
H631 H 0.77154 0.21791 0.41162 0.0
H632 H 0.79882 0.1524 0.47156 0.0
H633 H 0.79643 0.1853 0.43452 0.0
H634 H 0.74178 0.14737 0.37309 0.0
H635 H 0.7448 0.11411 0.40938 0.0
C636 C 0.77093 0.19874 0.32004 0.0
C637 C 0.77369 0.22299 0.32967 0.0
C638 C 0.76868 0.18149 0.34303 0.0
C639 C 0.76921 0.18794 0.37641 0.0
C640 C 0.77127 0.21232 0.3861 0.0
C641 C 0.77334 0.22972 0.3629 0.0
C642 C 0.78635 0.15103 0.45009 0.0
C643 C 0.77221 0.13042 0.44331 0.0
C644 C 0.78473 0.17008 0.42909 0.0
C645 C 0.76898 0.16898 0.40073 0.0
C646 C 0.7543 0.14871 0.39452 0.0
C647 C 0.75589 0.12969 0.41551 0.0
H648 H 0.81884 0.74607 0.34589 0.0
H649 H 0.83956 0.81931 0.33645 0.0
H650 H 0.85414 0.74058 0.38462 0.0
H651 H 0.8742 0.81404 0.37472 0.0
H652 H 0.94949 0.78806 0.40015 0.0
H653 H 0.91136 0.79125 0.36759 0.0
H654 H 0.87624 0.75404 0.44005 0.0
H655 H 0.91474 0.75098 0.47277 0.0
C656 C 0.83047 0.76112 0.35285 0.0
C657 C 0.82656 0.78307 0.33807 0.0
C658 C 0.85075 0.75799 0.37481 0.0
C659 C 0.86731 0.77674 0.38211 0.0
C660 C 0.86222 0.79905 0.36901 0.0
C661 C 0.84222 0.80213 0.34728 0.0
C662 C 0.93361 0.78061 0.40907 0.0
C663 C 0.93493 0.76962 0.4391 0.0
C664 C 0.91175 0.78246 0.39054 0.0
C665 C 0.89064 0.77318 0.40143 0.0
C666 C 0.89212 0.76137 0.43099 0.0
C667 C 0.91408 0.75969 0.44973 0.0
H668 H 0.26416 0.80591 0.34907 0.0
H669 H 0.33306 0.83124 0.32561 0.0
H670 H 0.26138 0.83965 0.38799 0.0
H671 H 0.33022 0.86493 0.36462 0.0
H672 H 0.32397 0.91342 0.45603 0.0
H673 H 0.32812 0.87628 0.4241 0.0
H674 H 0.25619 0.88384 0.3805 0.0
H675 H 0.25215 0.92139 0.41163 0.0
C676 C 0.27897 0.81835 0.35271 0.0
C677 C 0.29882 0.8159 0.33408 0.0
C678 C 0.27723 0.83781 0.37479 0.0
C679 C 0.29543 0.8551 0.37908 0.0
C680 C 0.31592 0.85188 0.36194 0.0
C681 C 0.31754 0.83257 0.33956 0.0
C682 C 0.30907 0.90737 0.4394 0.0
C683 C 0.28777 0.92067 0.43626 0.0
C684 C 0.31145 0.88597 0.42125 0.0
C685 C 0.2925 0.87712 0.3998 0.0
C686 C 0.27101 0.89004 0.39718 0.0
C687 C 0.2687 0.91158 0.41508 0.0
H688 H 0.19712 0.7176 0.66514 0.0
H689 H 0.20406 0.79403 0.66268 0.0
H690 H 0.15657 0.71993 0.63847 0.0
H691 H 0.16367 0.79633 0.63524 0.0
H692 H 0.10244 0.78073 0.54982 0.0
H693 H 0.14274 0.77953 0.57772 0.0
H694 H 0.11554 0.7402 0.65457 0.0
H695 H 0.07508 0.74238 0.62741 0.0
C696 C 0.19002 0.73487 0.65869 0.0
C697 C 0.20379 0.75563 0.66599 0.0
C698 C 0.16677 0.73622 0.64361 0.0
C699 C 0.15693 0.75831 0.63474 0.0
C700 C 0.1708 0.77906 0.64168 0.0
C701 C 0.19384 0.77776 0.65751 0.0
C702 C 0.1051 0.77195 0.57277 0.0
C703 C 0.08568 0.76135 0.58621 0.0
C704 C 0.12812 0.7713 0.58874 0.0
C705 C 0.13233 0.75964 0.61823 0.0
C706 C 0.11289 0.74909 0.63171 0.0
C707 C 0.08978 0.75026 0.61614 0.0
H708 H 0.31357 0.23667 0.63529 0.0
H709 H 0.30199 0.20965 0.72936 0.0
H710 H 0.30743 0.19656 0.61036 0.0
H711 H 0.29526 0.16982 0.70445 0.0
H712 H 0.31041 0.09751 0.65373 0.0
H713 H 0.31711 0.13746 0.67857 0.0
H714 H 0.27463 0.16733 0.59812 0.0
H715 H 0.26843 0.12738 0.57284 0.0
C716 C 0.30986 0.22217 0.65066 0.0
C717 C 0.3082 0.2264 0.6843 0.0
C718 C 0.30606 0.19924 0.63634 0.0
C719 C 0.30074 0.17999 0.65539 0.0
C720 C 0.29948 0.18419 0.68909 0.0
C721 C 0.30312 0.20709 0.70333 0.0
C722 C 0.30252 0.1126 0.64133 0.0
C723 C 0.28889 0.10925 0.6113 0.0
C724 C 0.30622 0.13549 0.65567 0.0
C725 C 0.29648 0.15561 0.64028 0.0
C726 C 0.28262 0.15224 0.61043 0.0
C727 C 0.2788 0.12932 0.59616 0.0
H728 H 0.84257 0.26642 0.69904 0.0
H729 H 0.84247 0.34209 0.68395 0.0
H730 H 0.87978 0.2623 0.67252 0.0
H731 H 0.87948 0.33793 0.65694 0.0
H732 H 0.95934 0.32569 0.64512 0.0
H733 H 0.92197 0.32918 0.67092 0.0
H734 H 0.89605 0.26479 0.61878 0.0
H735 H 0.93328 0.2615 0.59224 0.0
C736 C 0.85047 0.2822 0.6901 0.0
C737 C 0.83948 0.30463 0.69383 0.0
C738 C 0.87173 0.27979 0.67459 0.0
C739 C 0.88277 0.29978 0.66262 0.0
C740 C 0.87168 0.32217 0.66615 0.0
C741 C 0.85029 0.32454 0.68137 0.0
C742 C 0.94565 0.31236 0.63874 0.0
C743 C 0.94952 0.29337 0.61623 0.0
C744 C 0.92414 0.31437 0.65367 0.0
C745 C 0.90584 0.29736 0.64686 0.0
C746 C 0.9098 0.27812 0.62488 0.0
C747 C 0.93127 0.27619 0.60971 0.0
H748 H 0.77063 0.89179 0.77812 0.0
H749 H 0.83031 0.86018 0.73273 0.0
H750 H 0.76908 0.92366 0.73921 0.0
H751 H 0.82902 0.89241 0.694 0.0
H752 H 0.8307 0.97197 0.65846 0.0
H753 H 0.83403 0.94037 0.69752 0.0
H754 H 0.75977 0.92266 0.6746 0.0
H755 H 0.75653 0.95312 0.63411 0.0
C756 C 0.78366 0.89189 0.76015 0.0
C757 C 0.80066 0.87356 0.7585 0.0
C758 C 0.78264 0.90999 0.73774 0.0
C759 C 0.79889 0.91044 0.71361 0.0
C760 C 0.81634 0.89251 0.71247 0.0
C761 C 0.81703 0.87408 0.73448 0.0
C762 C 0.81512 0.96114 0.66114 0.0
C763 C 0.79329 0.96536 0.64288 0.0
C764 C 0.81706 0.94311 0.68375 0.0
C765 C 0.79713 0.9292 0.68917 0.0
C766 C 0.77534 0.93336 0.67117 0.0
C767 C 0.77349 0.951 0.6481 0.0
H768 H 0.80411 0.78187 0.65809 0.0
H769 H 0.84747 0.75834 0.74207 0.0
H770 H 0.83846 0.77761 0.62528 0.0
H771 H 0.8817 0.75438 0.7094 0.0
H772 H 0.9432 0.78162 0.65121 0.0
H773 H 0.90815 0.78273 0.68281 0.0
H774 H 0.86665 0.74677 0.60256 0.0
H775 H 0.90179 0.74558 0.57096 0.0
C776 C 0.82083 0.77551 0.6695 0.0
C777 C 0.82285 0.77042 0.70282 0.0
C778 C 0.84056 0.77305 0.65064 0.0
C779 C 0.86297 0.76583 0.6647 0.0
C780 C 0.86484 0.76026 0.69781 0.0
C781 C 0.84507 0.76234 0.71651 0.0
C782 C 0.92662 0.77394 0.64028 0.0
C783 C 0.92541 0.76347 0.60851 0.0
C784 C 0.90652 0.77442 0.6585 0.0
C785 C 0.88449 0.7648 0.64532 0.0
C786 C 0.88324 0.75445 0.61347 0.0
C787 C 0.90346 0.75359 0.59544 0.0
H788 H 0.31627 0.83401 0.67563 0.0
H789 H 0.25415 0.85642 0.72368 0.0
H790 H 0.31566 0.87066 0.64668 0.0
H791 H 0.25312 0.89362 0.69364 0.0
H792 H 0.27037 0.96703 0.64886 0.0
H793 H 0.27058 0.93194 0.68276 0.0
H794 H 0.29484 0.88858 0.60282 0.0
H795 H 0.29499 0.92365 0.56969 0.0
C796 C 0.30239 0.84686 0.68018 0.0
C797 C 0.28519 0.84193 0.7021 0.0
C798 C 0.3019 0.868 0.66312 0.0
C799 C 0.28401 0.88526 0.66683 0.0
C800 C 0.26725 0.88092 0.68987 0.0
C801 C 0.26784 0.85955 0.70729 0.0
C802 C 0.27573 0.94993 0.63865 0.0
C803 C 0.28276 0.94822 0.60652 0.0
C804 C 0.27575 0.92971 0.65806 0.0
C805 C 0.28293 0.90709 0.64602 0.0
C806 C 0.28968 0.90554 0.61363 0.0
C807 C 0.28966 0.9257 0.59435 0.0
H808 H 0.23386 0.31091 0.66602 0.0
H809 H 0.20849 0.28432 0.75399 0.0
H810 H 0.19432 0.30756 0.639 0.0
H811 H 0.16799 0.28068 0.72604 0.0
H812 H 0.09512 0.30529 0.66838 0.0
H813 H 0.13391 0.30597 0.70091 0.0
H814 H 0.16729 0.27595 0.61765 0.0
H815 H 0.12882 0.27582 0.58542 0.0
C816 C 0.21984 0.30421 0.67976 0.0
C817 C 0.22459 0.29778 0.71236 0.0
C818 C 0.19702 0.30214 0.66398 0.0
C819 C 0.17793 0.29354 0.68006 0.0
C820 C 0.18234 0.28739 0.71291 0.0
C821 C 0.20552 0.28936 0.72889 0.0
C822 C 0.11086 0.29892 0.65723 0.0
C823 C 0.10917 0.29091 0.62429 0.0
C824 C 0.13298 0.29906 0.67588 0.0
C825 C 0.15381 0.29121 0.66187 0.0
C826 C 0.15175 0.28251 0.62914 0.0
C827 C 0.12975 0.28238 0.61063 0.0
H828 H 0.74869 0.20356 0.74598 0.0
H829 H 0.81634 0.22736 0.71729 0.0
H830 H 0.75191 0.1667 0.71267 0.0
H831 H 0.81988 0.19043 0.68397 0.0
H832 H 0.80187 0.13837 0.59424 0.0
H833 H 0.80243 0.17257 0.63335 0.0
H834 H 0.77086 0.12889 0.70234 0.0
H835 H 0.77038 0.09479 0.66299 0.0
C836 C 0.76479 0.20043 0.73364 0.0
C837 C 0.78266 0.21811 0.7354 0.0
C838 C 0.76658 0.17929 0.71417 0.0
C839 C 0.78612 0.17529 0.69513 0.0
C840 C 0.8044 0.19273 0.69781 0.0
C841 C 0.80265 0.21379 0.71753 0.0
C842 C 0.79519 0.13606 0.61785 0.0
C843 C 0.78596 0.11378 0.62529 0.0
C844 C 0.79561 0.15569 0.6405 0.0
C845 C 0.7867 0.15381 0.67142 0.0
C846 C 0.77765 0.13137 0.67885 0.0
C847 C 0.7774 0.1117 0.65626 0.0
H848 H 0.90448 0.28931 0.28994 0.0
H849 H 0.86044 0.26386 0.36249 0.0
H850 H 0.93835 0.29244 0.33066 0.0
H851 H 0.89435 0.26702 0.40321 0.0
H852 H 0.95325 0.29863 0.47603 0.0
H853 H 0.91936 0.29596 0.43464 0.0
H854 H 0.96641 0.26932 0.36353 0.0
H855 H 1.00023 0.2726 0.40499 0.0
C856 C 0.90198 0.28412 0.31443 0.0
C857 C 0.8795 0.27636 0.3227 0.0
C858 C 0.92152 0.28594 0.33791 0.0
C859 C 0.9192 0.28009 0.37042 0.0
C860 C 0.89679 0.27213 0.37864 0.0
C861 C 0.87726 0.27028 0.35516 0.0
C862 C 0.95624 0.29235 0.45146 0.0
C863 C 0.97925 0.28579 0.44362 0.0
C864 C 0.93684 0.29061 0.42778 0.0
C865 C 0.94001 0.28229 0.39562 0.0
C866 C 0.96324 0.27603 0.38784 0.0
C867 C 0.98261 0.27778 0.41156 0.0
H868 H 0.80781 0.90324 0.30782 0.0
H869 H 0.75424 0.86564 0.35498 0.0
H870 H 0.80777 0.93526 0.34937 0.0
H871 H 0.75382 0.89804 0.39653 0.0
H872 H 0.77264 0.95139 0.4836 0.0
H873 H 0.77256 0.91841 0.44258 0.0
H874 H 0.78821 0.96831 0.37005 0.0
H875 H 0.78894 1.0009 0.41152 0.0
C876 C 0.79575 0.9018 0.32682 0.0
C877 C 0.78092 0.88155 0.32746 0.0
C878 C 0.79567 0.92044 0.35091 0.0
C879 C 0.78066 0.9198 0.37676 0.0
C880 C 0.76594 0.89941 0.37757 0.0
C881 C 0.76611 0.88065 0.35348 0.0
C882 C 0.77606 0.95524 0.45884 0.0
C883 C 0.78089 0.97885 0.45098 0.0
C884 C 0.77587 0.93628 0.43507 0.0
C885 C 0.78046 0.94023 0.40244 0.0
C886 C 0.78505 0.96406 0.39472 0.0
C887 C 0.78531 0.98295 0.41853 0.0
H888 H 0.19201 0.74633 0.32112 0.0
H889 H 0.16487 0.81444 0.2905 0.0
H890 H 0.16016 0.7437 0.35808 0.0
H891 H 0.13312 0.81195 0.3277 0.0
H892 H 0.09848 0.80907 0.42733 0.0
H893 H 0.12942 0.8119 0.38951 0.0
H894 H 0.11451 0.73968 0.35376 0.0
H895 H 0.08268 0.73703 0.39021 0.0
C896 C 0.17933 0.7608 0.3224 0.0
C897 C 0.18105 0.78059 0.3028 0.0
C898 C 0.16095 0.75922 0.34341 0.0
C899 C 0.14403 0.77761 0.34591 0.0
C900 C 0.1459 0.79752 0.32655 0.0
C901 C 0.164 0.79888 0.30505 0.0
C902 C 0.10131 0.79384 0.41109 0.0
C903 C 0.08768 0.77279 0.41224 0.0
C904 C 0.11927 0.79548 0.38944 0.0
C905 C 0.12456 0.77601 0.36861 0.0
C906 C 0.11115 0.75494 0.36974 0.0
C907 C 0.09289 0.75342 0.39095 0.0
H908 H 0.27194 0.14647 0.29314 0.0
H909 H 0.27751 0.19883 0.37331 0.0
H910 H 0.27442 0.11466 0.33134 0.0
H911 H 0.28098 0.16679 0.41173 0.0
H912 H 0.26328 0.1033 0.47416 0.0
H913 H 0.26097 0.13606 0.43651 0.0
H914 H 0.29896 0.0931 0.36826 0.0
H915 H 0.30047 0.06027 0.40566 0.0
C916 C 0.2737 0.1514 0.31889 0.0
C917 C 0.27437 0.17567 0.32963 0.0
C918 C 0.27546 0.13289 0.34108 0.0
C919 C 0.27801 0.13774 0.3751 0.0
C920 C 0.27876 0.16201 0.38592 0.0
C921 C 0.27701 0.18059 0.36366 0.0
C922 C 0.27115 0.10092 0.45109 0.0
C923 C 0.28212 0.0791 0.44307 0.0
C924 C 0.26999 0.11983 0.42944 0.0
C925 C 0.27973 0.11761 0.39887 0.0
C926 C 0.29086 0.0957 0.39109 0.0
C927 C 0.29197 0.07681 0.41274 0.0
H928 H 0.73183 0.79718 0.84607 0.0
H929 H 0.70407 0.73254 0.79666 0.0
H930 H 0.69813 0.79873 0.87921 0.0
H931 H 0.66915 0.73485 0.82815 0.0
H932 H 0.61917 0.73122 0.90896 0.0
H933 H 0.65274 0.72962 0.87578 0.0
H934 H 0.65974 0.80636 0.88653 0.0
H935 H 0.6281 0.80764 0.92267 0.0
C936 C 0.71816 0.78355 0.84169 0.0
C937 C 0.72074 0.76478 0.81848 0.0
C938 C 0.69854 0.78448 0.86075 0.0
C939 C 0.68037 0.76696 0.85682 0.0
C940 C 0.68274 0.74849 0.83284 0.0
C941 C 0.70273 0.74726 0.81431 0.0
C942 C 0.62809 0.7478 0.905 0.0
C943 C 0.62046 0.76957 0.91918 0.0
C944 C 0.6473 0.74693 0.8851 0.0
C945 C 0.65944 0.76784 0.87791 0.0
C946 C 0.65154 0.78963 0.89163 0.0
C947 C 0.63272 0.79044 0.91212 0.0
H948 H 0.27885 0.74755 0.86012 0.0
H949 H 0.25528 0.69462 0.78557 0.0
H950 H 0.27656 0.71742 0.90181 0.0
H951 H 0.25337 0.66489 0.82622 0.0
H952 H 0.23469 0.61751 0.90497 0.0
H953 H 0.2332 0.65082 0.86923 0.0
H954 H 0.29614 0.68111 0.92231 0.0
H955 H 0.29702 0.64806 0.95939 0.0
C956 C 0.27262 0.72973 0.85267 0.0
C957 C 0.26695 0.72372 0.81937 0.0
C958 C 0.27166 0.71226 0.87653 0.0
C959 C 0.26475 0.6884 0.86775 0.0
C960 C 0.25839 0.6829 0.83449 0.0
C961 C 0.25955 0.70011 0.81093 0.0
C962 C 0.24808 0.63135 0.90964 0.0
C963 C 0.26598 0.62967 0.93555 0.0
C964 C 0.2474 0.65053 0.88862 0.0
C965 C 0.26465 0.66893 0.89233 0.0
C966 C 0.28237 0.66756 0.91854 0.0
C967 C 0.28307 0.64828 0.93968 0.0
H968 H 0.33242 0.26388 0.85628 0.0
H969 H 0.36803 0.32625 0.8257 0.0
H970 H 0.36513 0.25873 0.89909 0.0
H971 H 0.39986 0.32155 0.86809 0.0
H972 H 0.46748 0.29222 0.9167 0.0
H973 H 0.43287 0.29532 0.87722 0.0
H974 H 0.38655 0.2751 0.95026 0.0
H975 H 0.42164 0.27155 0.98958 0.0
C976 C 0.34695 0.27666 0.859 0.0
C977 C 0.34775 0.29526 0.83724 0.0
C978 C 0.36572 0.27373 0.88347 0.0
C979 C 0.38554 0.2894 0.88664 0.0
C980 C 0.38544 0.30864 0.86587 0.0
C981 C 0.36698 0.31143 0.84158 0.0
C982 C 0.44988 0.28843 0.9242 0.0
C983 C 0.44715 0.28187 0.95614 0.0
C984 C 0.42998 0.2903 0.9017 0.0
C985 C 0.40672 0.28578 0.91056 0.0
C986 C 0.4041 0.27863 0.94247 0.0
C987 C 0.42413 0.27673 0.96503 0.0
H988 H 0.74717 0.34558 0.86509 0.0
H989 H 0.82134 0.35076 0.84712 0.0
H990 H 0.75164 0.37958 0.9041 0.0
H991 H 0.82598 0.38527 0.88625 0.0
H992 H 0.81357 0.46496 0.92483 0.0
H993 H 0.81308 0.42791 0.89059 0.0
H994 H 0.76938 0.3944 0.95715 0.0
H995 H 0.77022 0.43124 0.9913 0.0
C996 C 0.76469 0.35358 0.87024 0.0
C997 C 0.78402 0.34492 0.8535 0.0
C998 C 0.76726 0.37327 0.89261 0.0
C999 C 0.78919 0.38551 0.8986 0.0
C1000 C 0.80875 0.37654 0.88231 0.0
C1001 C 0.80623 0.35645 0.86022 0.0
C1002 C 0.80397 0.44961 0.93217 0.0
C1003 C 0.79162 0.45131 0.96062 0.0
C1004 C 0.80378 0.42825 0.91262 0.0
C1005 C 0.79104 0.40791 0.92072 0.0
C1006 C 0.7791 0.4096 0.9496 0.0
C1007 C 0.77955 0.4308 0.96927 0.0
H1008 H 0.7189 0.23425 0.15156 0.0
H1009 H 0.70625 0.29897 0.20813 0.0
H1010 H 0.67867 0.23643 0.12492 0.0
H1011 H 0.66606 0.30108 0.18158 0.0
H1012 H 0.58706 0.28382 0.1521 0.0
H1013 H 0.62754 0.28143 0.17877 0.0
H1014 H 0.65391 0.25923 0.08655 0.0
H1015 H 0.61328 0.26145 0.06025 0.0
C1016 C 0.7077 0.24907 0.1582 0.0
C1017 C 0.71604 0.26638 0.18222 0.0
C1018 C 0.68453 0.25032 0.14285 0.0
C1019 C 0.66896 0.26891 0.15107 0.0
C1020 C 0.67732 0.28626 0.17497 0.0
C1021 C 0.70048 0.28504 0.19027 0.0
C1022 C 0.6016 0.27854 0.13765 0.0
C1023 C 0.59717 0.27301 0.10414 0.0
C1024 C 0.62481 0.27724 0.15282 0.0
C1025 C 0.64414 0.2702 0.13486 0.0
C1026 C 0.63952 0.26446 0.10129 0.0
C1027 C 0.61631 0.26586 0.08613 0.0
H1028 H 0.75713 0.70929 0.19957 0.0
H1029 H 0.82468 0.72319 0.16113 0.0
H1030 H 0.75612 0.66964 0.17275 0.0
H1031 H 0.82385 0.68358 0.13469 0.0
H1032 H 0.8064 0.61838 0.06552 0.0
H1033 H 0.80696 0.65836 0.092 0.0
H1034 H 0.77177 0.63064 0.17196 0.0
H1035 H 0.77088 0.59092 0.14482 0.0
C1036 C 0.77192 0.70394 0.18568 0.0
C1037 C 0.79095 0.7199 0.18273 0.0
C1038 C 0.77138 0.68097 0.17019 0.0
C1039 C 0.78988 0.67295 0.15117 0.0
C1040 C 0.80895 0.68891 0.1484 0.0
C1041 C 0.80946 0.71187 0.1638 0.0
C1042 C 0.79872 0.62093 0.08871 0.0
C1043 C 0.7883 0.60149 0.10276 0.0
C1044 C 0.79917 0.64389 0.10416 0.0
C1045 C 0.78934 0.64821 0.13442 0.0
C1046 C 0.77913 0.62851 0.14852 0.0
C1047 C 0.77868 0.60558 0.13301 0.0
H1048 H 0.33579 0.75127 0.17486 0.0
H1049 H 0.34021 0.82799 0.17294 0.0
H1050 H 0.3724 0.74775 0.1469 0.0
H1051 H 0.37684 0.82458 0.14556 0.0
H1052 H 0.42956 0.81142 0.06843 0.0
H1053 H 0.39288 0.81413 0.09595 0.0
H1054 H 0.41445 0.75301 0.15149 0.0
H1055 H 0.45107 0.75014 0.12352 0.0
C1056 C 0.34461 0.76742 0.16875 0.0
C1057 C 0.33475 0.78992 0.17616 0.0
C1058 C 0.36576 0.76542 0.1527 0.0
C1059 C 0.37783 0.78586 0.14365 0.0
C1060 C 0.368 0.80834 0.15134 0.0
C1061 C 0.34684 0.81032 0.16721 0.0
C1062 C 0.42665 0.79865 0.08672 0.0
C1063 C 0.44354 0.78061 0.09369 0.0
C1064 C 0.40549 0.80022 0.10264 0.0
C1065 C 0.40044 0.78387 0.12628 0.0
C1066 C 0.41732 0.76576 0.13318 0.0
C1067 C 0.43846 0.76413 0.11711 0.0
H1068 H 0.27642 0.35293 0.23217 0.0
H1069 H 0.24629 0.31768 0.14309 0.0
H1070 H 0.27876 0.39018 0.20387 0.0
H1071 H 0.24883 0.3546 0.11486 0.0
H1072 H 0.23406 0.42896 0.0781 0.0
H1073 H 0.23237 0.39248 0.10753 0.0
H1074 H 0.29734 0.41266 0.16524 0.0
H1075 H 0.29841 0.44988 0.13672 0.0
C1076 C 0.27045 0.35293 0.20652 0.0
C1077 C 0.26096 0.33193 0.19031 0.0
C1078 C 0.27184 0.37447 0.19011 0.0
C1079 C 0.26384 0.37589 0.15679 0.0
C1080 C 0.25469 0.35476 0.14057 0.0
C1081 C 0.25326 0.33331 0.15694 0.0
C1082 C 0.24791 0.42595 0.09731 0.0
C1083 C 0.26633 0.4429 0.10477 0.0
C1084 C 0.24713 0.40459 0.11406 0.0
C1085 C 0.26476 0.3991 0.13903 0.0
C1086 C 0.28321 0.41603 0.14655 0.0
C1087 C 0.284 0.43745 0.12974 0.0
H1088 H 0.36532 0.26381 0.27807 0.0
H1089 H 0.32275 0.27099 0.18702 0.0
H1090 H 0.40187 0.26925 0.24957 0.0
H1091 H 0.35854 0.27641 0.15902 0.0
H1092 H 0.42377 0.30569 0.12001 0.0
H1093 H 0.39109 0.30497 0.15521 0.0
H1094 H 0.42426 0.24623 0.20587 0.0
H1095 H 0.45756 0.2473 0.17095 0.0
C1096 C 0.36375 0.26695 0.25222 0.0
C1097 C 0.34116 0.26697 0.23481 0.0
C1098 C 0.38463 0.26983 0.23582 0.0
C1099 C 0.38319 0.27331 0.20193 0.0
C1100 C 0.36046 0.27407 0.18508 0.0
C1101 C 0.33987 0.27083 0.20119 0.0
C1102 C 0.42445 0.29286 0.13898 0.0
C1103 C 0.44343 0.27652 0.14241 0.0
C1104 C 0.40553 0.29233 0.15908 0.0
C1105 C 0.40491 0.27547 0.18336 0.0
C1106 C 0.42421 0.25957 0.1876 0.0
C1107 C 0.44316 0.26 0.16727 0.0
H1108 H 0.82752 0.36881 0.27195 0.0
H1109 H 0.75375 0.34787 0.25068 0.0
H1110 H 0.82071 0.40371 0.23962 0.0
H1111 H 0.7467 0.38339 0.21902 0.0
H1112 H 0.75506 0.42552 0.12622 0.0
H1113 H 0.75699 0.39541 0.16708 0.0
H1114 H 0.80262 0.44159 0.23164 0.0
H1115 H 0.80167 0.47128 0.18996 0.0
C1116 C 0.80966 0.37195 0.26106 0.0
C1117 C 0.79126 0.35532 0.2637 0.0
C1118 C 0.8057 0.39213 0.24256 0.0
C1119 C 0.7832 0.39634 0.22627 0.0
C1120 C 0.76439 0.3805 0.23064 0.0
C1121 C 0.76837 0.36023 0.24911 0.0
C1122 C 0.76554 0.42929 0.14911 0.0
C1123 C 0.77848 0.45075 0.15451 0.0
C1124 C 0.76637 0.41211 0.17283 0.0
C1125 C 0.78007 0.41592 0.20275 0.0
C1126 C 0.79216 0.43785 0.20874 0.0
C1127 C 0.79139 0.45503 0.18493 0.0
H1128 H 0.6945 0.76423 0.23674 0.0
H1129 H 0.70904 0.82755 0.18558 0.0
H1130 H 0.65728 0.75819 0.20129 0.0
H1131 H 0.67246 0.82168 0.15092 0.0
H1132 H 0.62403 0.78981 0.06753 0.0
H1133 H 0.6591 0.79391 0.10653 0.0
H1134 H 0.61652 0.77479 0.18422 0.0
H1135 H 0.58133 0.77053 0.14466 0.0
C1136 C 0.68962 0.77704 0.21842 0.0
C1137 C 0.70496 0.79624 0.2139 0.0
C1138 C 0.66833 0.77357 0.19802 0.0
C1139 C 0.66205 0.78917 0.17267 0.0
C1140 C 0.67692 0.8089 0.16945 0.0
C1141 C 0.69793 0.81235 0.18963 0.0
C1142 C 0.62222 0.78643 0.09293 0.0
C1143 C 0.59999 0.77995 0.1031 0.0
C1144 C 0.64227 0.78886 0.11538 0.0
C1145 C 0.64069 0.78492 0.14875 0.0
C1146 C 0.61848 0.77785 0.15879 0.0
C1147 C 0.59832 0.7755 0.13621 0.0
H1148 H 0.29528 0.70564 0.21726 0.0
H1149 H 0.22432 0.68395 0.2371 0.0
H1150 H 0.29875 0.66972 0.18231 0.0
H1151 H 0.22777 0.64821 0.20201 0.0
H1152 H 0.24956 0.57694 0.1536 0.0
H1153 H 0.24924 0.60988 0.19479 0.0
H1154 H 0.27933 0.65675 0.12816 0.0
H1155 H 0.27952 0.6238 0.08725 0.0
C1156 C 0.28059 0.69302 0.21468 0.0
C1157 C 0.25946 0.69775 0.22985 0.0
C1158 C 0.2825 0.67255 0.19439 0.0
C1159 C 0.26342 0.65625 0.18908 0.0
C1160 C 0.24283 0.66033 0.20569 0.0
C1161 C 0.24083 0.68088 0.22574 0.0
C1162 C 0.25596 0.59437 0.14791 0.0
C1163 C 0.26433 0.59804 0.11732 0.0
C1164 C 0.25583 0.61317 0.17138 0.0
C1165 C 0.26435 0.63591 0.16479 0.0
C1166 C 0.27297 0.63939 0.1342 0.0
C1167 C 0.2729 0.62066 0.1107 0.0
H1168 H 0.34847 0.75874 0.84087 0.0
H1169 H 0.39566 0.77177 0.76598 0.0
H1170 H 0.3824 0.75924 0.88161 0.0
H1171 H 0.42968 0.77292 0.80677 0.0
H1172 H 0.48912 0.75268 0.88304 0.0
H1173 H 0.45511 0.75046 0.84193 0.0
H1174 H 0.41059 0.78415 0.91136 0.0
H1175 H 0.44446 0.78521 0.95258 0.0
C1176 C 0.36608 0.76197 0.83312 0.0
C1177 C 0.36925 0.76528 0.80007 0.0
C1178 C 0.38564 0.76233 0.85658 0.0
C1179 C 0.409 0.76624 0.84778 0.0
C1180 C 0.41213 0.76946 0.81462 0.0
C1181 C 0.39257 0.76887 0.79111 0.0
C1182 C 0.47195 0.75938 0.88942 0.0
C1183 C 0.46932 0.76891 0.92101 0.0
C1184 C 0.45246 0.75836 0.86581 0.0
C1185 C 0.42987 0.76711 0.87307 0.0
C1186 C 0.42744 0.7768 0.90481 0.0
C1187 C 0.44689 0.77761 0.92845 0.0
H1188 H 0.27835 0.41449 0.7721 0.0
H1189 H 0.30462 0.37055 0.85071 0.0
H1190 H 0.27089 0.4469 0.81165 0.0
H1191 H 0.29749 0.40276 0.89007 0.0
H1192 H 0.25938 0.45389 0.95515 0.0
H1193 H 0.2646 0.42275 0.91296 0.0
H1194 H 0.29036 0.47564 0.85082 0.0
H1195 H 0.28431 0.50678 0.89293 0.0
C1196 C 0.2828 0.41187 0.79776 0.0
C1197 C 0.29184 0.38988 0.80829 0.0
C1198 C 0.2785 0.4304 0.82045 0.0
C1199 C 0.28327 0.42734 0.85412 0.0
C1200 C 0.29297 0.40555 0.86444 0.0
C1201 C 0.29715 0.38708 0.84185 0.0
C1202 C 0.26585 0.45876 0.93224 0.0
C1203 C 0.27153 0.48255 0.92712 0.0
C1204 C 0.26908 0.44098 0.90821 0.0
C1205 C 0.27821 0.44662 0.87861 0.0
C1206 C 0.28316 0.47067 0.87319 0.0
C1207 C 0.27981 0.48847 0.89724 0.0
H1208 H 0.70603 0.30894 0.85935 0.0
H1209 H 0.66562 0.26261 0.7893 0.0
H1210 H 0.67444 0.30695 0.89631 0.0
H1211 H 0.63454 0.25911 0.8268 0.0
H1212 H 0.57177 0.27255 0.88838 0.0
H1213 H 0.6029 0.27535 0.85065 0.0
H1214 H 0.65561 0.28612 0.93267 0.0
H1215 H 0.62398 0.285 0.96975 0.0
C1216 C 0.69045 0.29803 0.8521 0.0
C1217 C 0.68831 0.28599 0.82139 0.0
C1218 C 0.67228 0.29668 0.87342 0.0
C1219 C 0.65158 0.28273 0.86504 0.0
C1220 C 0.64971 0.27049 0.83425 0.0
C1221 C 0.66765 0.27233 0.81265 0.0
C1222 C 0.59007 0.27551 0.89813 0.0
C1223 C 0.59549 0.27859 0.93191 0.0
C1224 C 0.60809 0.27696 0.87653 0.0
C1225 C 0.63217 0.28103 0.88818 0.0
C1226 C 0.63744 0.28359 0.92228 0.0
C1227 C 0.61933 0.28268 0.94375 0.0
H1228 H 0.78958 0.73063 0.90894 0.0
H1229 H 0.84084 0.6988 0.84824 0.0
H1230 H 0.78556 0.69288 0.93542 0.0
H1231 H 0.83568 0.66046 0.87234 0.0
H1232 H 0.83776 0.59868 0.93853 0.0
H1233 H 0.84306 0.63688 0.91514 0.0
H1234 H 0.77017 0.65548 0.93166 0.0
H1235 H 0.76588 0.61862 0.95873 0.0
C1236 C 0.79984 0.71536 0.90123 0.0
C1237 C 0.81568 0.71755 0.87696 0.0
C1238 C 0.79739 0.69358 0.91604 0.0
C1239 C 0.81019 0.67321 0.90614 0.0
C1240 C 0.82591 0.67561 0.88145 0.0
C1241 C 0.82883 0.69757 0.86739 0.0
C1242 C 0.82294 0.61103 0.93786 0.0
C1243 C 0.8014 0.60524 0.95097 0.0
C1244 C 0.82585 0.63298 0.92371 0.0
C1245 C 0.80709 0.64966 0.92128 0.0
C1246 C 0.78533 0.64357 0.93355 0.0
C1247 C 0.78265 0.62192 0.94853 0.0
loop_
_geom_bond_atom_site_label_1
_geom_bond_atom_site_label_2
_geom_bond_distance
_geom_bond_site_symmetry_2
_ccdc_geom_bond_type
Cu0 N1 1.999 . S
Cu0 O6 1.974 . S
Cu0 N11 1.985 . S
Cu0 O20 1.959 . S
N1 Cu0 1.999 . S
N1 C3 1.263 . S
N1 C5 1.389 . S
N2 C3 1.358 . S
N2 C4 1.400 . S
C3 N1 1.263 . S
C3 N2 1.358 . S
C3 H9 0.930 . S
C4 N2 1.400 . S
C4 C5 1.351 . S
C4 H21 0.930 . S
C5 N1 1.389 . S
C5 C4 1.351 . S
C5 H10 0.930 . S
O6 Cu0 1.974 . S
O6 C16 1.282 . S
C7 O8 1.261 . S
C7 O20 1.251 . S
O8 C7 1.261 . S
H9 C3 0.930 . S
H10 C5 0.930 . S
N11 Cu0 1.985 . S
N11 C13 1.335 . S
N11 C14 1.390 . S
N12 C13 1.345 . S
N12 C15 1.336 . S
C13 N11 1.335 . S
C13 N12 1.345 . S
C13 H18 0.930 . S
C14 N11 1.390 . S
C14 C15 1.346 . S
C14 H19 0.930 . S
C15 N12 1.336 . S
C15 C14 1.346 . S
C15 H22 0.929 . S
C16 O6 1.282 . S
C16 O17 1.216 . S
O17 C16 1.216 . S
H18 C13 0.930 . S
H19 C14 0.930 . S
O20 Cu0 1.959 . S
O20 C7 1.251 . S
H21 C4 0.930 . S
H22 C15 0.929 . S
Cu23 N24 1.999 . S
Cu23 O29 1.974 . S
Cu23 N34 1.985 . S
Cu23 O43 1.959 . S
N24 Cu23 1.999 . S
N24 C26 1.263 . S
N24 C28 1.389 . S
N25 C26 1.358 . S
N25 C27 1.400 . S
C26 N24 1.263 . S
C26 N25 1.358 . S
C26 H32 0.930 . S
C27 N25 1.400 . S
C27 C28 1.351 . S
C27 H44 0.930 . S
C28 N24 1.389 . S
C28 C27 1.351 . S
C28 H33 0.930 . S
O29 Cu23 1.974 . S
O29 C39 1.282 . S
C30 O31 1.261 . S
C30 O43 1.251 . S
O31 C30 1.261 . S
H32 C26 0.930 . S
H33 C28 0.930 . S
N34 Cu23 1.985 . S
N34 C36 1.335 . S
N34 C37 1.390 . S
N35 C36 1.345 . S
N35 C38 1.336 . S
C36 N34 1.335 . S
C36 N35 1.345 . S
C36 H41 0.930 . S
C37 N34 1.390 . S
C37 C38 1.346 . S
C37 H42 0.930 . S
C38 N35 1.336 . S
C38 C37 1.346 . S
C38 H45 0.929 . S
C39 O29 1.282 . S
C39 O40 1.216 . S
O40 C39 1.216 . S
H41 C36 0.930 . S
H42 C37 0.930 . S
O43 Cu23 1.959 . S
O43 C30 1.251 . S
H44 C27 0.930 . S
H45 C38 0.929 . S
Cu46 N47 1.999 . S
Cu46 O52 1.974 . S
Cu46 N57 1.985 . S
Cu46 O66 1.959 . S
N47 Cu46 1.999 . S
N47 C49 1.263 . S
N47 C51 1.389 . S
N48 C49 1.358 . S
N48 C50 1.400 . S
C49 N47 1.263 . S
C49 N48 1.358 . S
C49 H55 0.930 . S
C50 N48 1.400 . S
C50 C51 1.351 . S
C50 H67 0.930 . S
C51 N47 1.389 . S
C51 C50 1.351 . S
C51 H56 0.930 . S
O52 Cu46 1.974 . S
O52 C62 1.282 . S
C53 O54 1.261 . S
C53 O66 1.251 . S
O54 C53 1.261 . S
H55 C49 0.930 . S
H56 C51 0.930 . S
N57 Cu46 1.985 . S
N57 C59 1.335 . S
N57 C60 1.390 . S
N58 C59 1.345 . S
N58 C61 1.336 . S
C59 N57 1.335 . S
C59 N58 1.345 . S
C59 H64 0.930 . S
C60 N57 1.390 . S
C60 C61 1.346 . S
C60 H65 0.930 . S
C61 N58 1.336 . S
C61 C60 1.346 . S
C61 H68 0.929 . S
C62 O52 1.282 . S
C62 O63 1.216 . S
O63 C62 1.216 . S
H64 C59 0.930 . S
H65 C60 0.930 . S
O66 Cu46 1.959 . S
O66 C53 1.251 . S
H67 C50 0.930 . S
H68 C61 0.929 . S
Cu69 N70 1.999 . S
Cu69 O75 1.974 . S
Cu69 N80 1.985 . S
Cu69 O89 1.959 . S
N70 Cu69 1.999 . S
N70 C72 1.263 . S
N70 C74 1.389 . S
N71 C72 1.358 . S
N71 C73 1.400 . S
C72 N70 1.263 . S
C72 N71 1.358 . S
C72 H78 0.930 . S
C73 N71 1.400 . S
C73 C74 1.351 . S
C73 H90 0.930 . S
C74 N70 1.389 . S
C74 C73 1.351 . S
C74 H79 0.930 . S
O75 Cu69 1.974 . S
O75 C85 1.282 . S
C76 O77 1.261 . S
C76 O89 1.251 . S
O77 C76 1.261 . S
H78 C72 0.930 . S
H79 C74 0.930 . S
N80 Cu69 1.985 . S
N80 C82 1.335 . S
N80 C83 1.390 . S
N81 C82 1.345 . S
N81 C84 1.336 . S
C82 N80 1.335 . S
C82 N81 1.345 . S
C82 H87 0.930 . S
C83 N80 1.390 . S
C83 C84 1.346 . S
C83 H88 0.930 . S
C84 N81 1.336 . S
C84 C83 1.346 . S
C84 H91 0.929 . S
C85 O75 1.282 . S
C85 O86 1.216 . S
O86 C85 1.216 . S
H87 C82 0.930 . S
H88 C83 0.930 . S
O89 Cu69 1.959 . S
O89 C76 1.251 . S
H90 C73 0.930 . S
H91 C84 0.929 . S
Cu92 N93 1.999 . S
Cu92 O98 1.974 . S
Cu92 N103 1.985 . S
Cu92 O112 1.959 . S
N93 Cu92 1.999 . S
N93 C95 1.263 . S
N93 C97 1.389 . S
N94 C95 1.358 . S
N94 C96 1.400 . S
C95 N93 1.263 . S
C95 N94 1.358 . S
C95 H101 0.930 . S
C96 N94 1.400 . S
C96 C97 1.351 . S
C96 H113 0.930 . S
C97 N93 1.389 . S
C97 C96 1.351 . S
C97 H102 0.930 . S
O98 Cu92 1.974 . S
O98 C108 1.282 . S
C99 O100 1.261 . S
C99 O112 1.251 . S
O100 C99 1.261 . S
H101 C95 0.930 . S
H102 C97 0.930 . S
N103 Cu92 1.985 . S
N103 C105 1.335 . S
N103 C106 1.390 . S
N104 C105 1.345 . S
N104 C107 1.336 . S
C105 N103 1.335 . S
C105 N104 1.345 . S
C105 H110 0.930 . S
C106 N103 1.390 . S
C106 C107 1.346 . S
C106 H111 0.930 . S
C107 N104 1.336 . S
C107 C106 1.346 . S
C107 H114 0.929 . S
C108 O98 1.282 . S
C108 O109 1.216 . S
O109 C108 1.216 . S
H110 C105 0.930 . S
H111 C106 0.930 . S
O112 Cu92 1.959 . S
O112 C99 1.251 . S
H113 C96 0.930 . S
H114 C107 0.929 . S
Cu115 N116 1.999 . S
Cu115 O121 1.974 . S
Cu115 N126 1.985 . S
Cu115 O135 1.959 . S
N116 Cu115 1.999 . S
N116 C118 1.263 . S
N116 C120 1.389 . S
N117 C118 1.358 . S
N117 C119 1.400 . S
C118 N116 1.263 . S
C118 N117 1.358 . S
C118 H124 0.930 . S
C119 N117 1.400 . S
C119 C120 1.351 . S
C119 H136 0.930 . S
C120 N116 1.389 . S
C120 C119 1.351 . S
C120 H125 0.930 . S
O121 Cu115 1.974 . S
O121 C131 1.282 . S
C122 O123 1.261 . S
C122 O135 1.251 . S
O123 C122 1.261 . S
H124 C118 0.930 . S
H125 C120 0.930 . S
N126 Cu115 1.985 . S
N126 C128 1.335 . S
N126 C129 1.390 . S
N127 C128 1.345 . S
N127 C130 1.336 . S
C128 N126 1.335 . S
C128 N127 1.345 . S
C128 H133 0.930 . S
C129 N126 1.390 . S
C129 C130 1.346 . S
C129 H134 0.930 . S
C130 N127 1.336 . S
C130 C129 1.346 . S
C130 H137 0.929 . S
C131 O121 1.282 . S
C131 O132 1.216 . S
O132 C131 1.216 . S
H133 C128 0.930 . S
H134 C129 0.930 . S
O135 Cu115 1.959 . S
O135 C122 1.251 . S
H136 C119 0.930 . S
H137 C130 0.929 . S
Cu138 N139 1.999 . S
Cu138 O144 1.974 . S
Cu138 N149 1.985 . S
Cu138 O158 1.959 . S
N139 Cu138 1.999 . S
N139 C141 1.263 . S
N139 C143 1.389 . S
N140 C141 1.358 . S
N140 C142 1.400 . S
C141 N139 1.263 . S
C141 N140 1.358 . S
C141 H147 0.930 . S
C142 N140 1.400 . S
C142 C143 1.351 . S
C142 H159 0.930 . S
C143 N139 1.389 . S
C143 C142 1.351 . S
C143 H148 0.930 . S
O144 Cu138 1.974 . S
O144 C154 1.282 . S
C145 O146 1.261 . S
C145 O158 1.251 . S
O146 C145 1.261 . S
H147 C141 0.930 . S
H148 C143 0.930 . S
N149 Cu138 1.985 . S
N149 C151 1.335 . S
N149 C152 1.390 . S
N150 C151 1.345 . S
N150 C153 1.336 . S
C151 N149 1.335 . S
C151 N150 1.345 . S
C151 H156 0.930 . S
C152 N149 1.390 . S
C152 C153 1.346 . S
C152 H157 0.930 . S
C153 N150 1.336 . S
C153 C152 1.346 . S
C153 H160 0.929 . S
C154 O144 1.282 . S
C154 O155 1.216 . S
O155 C154 1.216 . S
H156 C151 0.930 . S
H157 C152 0.930 . S
O158 Cu138 1.959 . S
O158 C145 1.251 . S
H159 C142 0.930 . S
H160 C153 0.929 . S
Cu161 N162 1.999 . S
Cu161 O167 1.974 . S
Cu161 N172 1.985 . S
Cu161 O181 1.959 . S
N162 Cu161 1.999 . S
N162 C164 1.263 . S
N162 C166 1.389 . S
N163 C164 1.358 . S
N163 C165 1.400 . S
C164 N162 1.263 . S
C164 N163 1.358 . S
C164 H170 0.930 . S
C165 N163 1.400 . S
C165 C166 1.351 . S
C165 H182 0.930 . S
C166 N162 1.389 . S
C166 C165 1.351 . S
C166 H171 0.930 . S
O167 Cu161 1.974 . S
O167 C177 1.282 . S
C168 O169 1.261 . S
C168 O181 1.251 . S
O169 C168 1.261 . S
H170 C164 0.930 . S
H171 C166 0.930 . S
N172 Cu161 1.985 . S
N172 C174 1.335 . S
N172 C175 1.390 . S
N173 C174 1.345 . S
N173 C176 1.336 . S
C174 N172 1.335 . S
C174 N173 1.345 . S
C174 H179 0.930 . S
C175 N172 1.390 . S
C175 C176 1.346 . S
C175 H180 0.930 . S
C176 N173 1.336 . S
C176 C175 1.346 . S
C176 H183 0.929 . S
C177 O167 1.282 . S
C177 O178 1.216 . S
O178 C177 1.216 . S
H179 C174 0.930 . S
H180 C175 0.930 . S
O181 Cu161 1.959 . S
O181 C168 1.251 . S
H182 C165 0.930 . S
H183 C176 0.929 . S
C184 C185 1.443 . S
C184 N188 1.376 . S
C184 C222 1.389 . S
C185 C184 1.443 . S
C185 C186 1.340 . S
C185 H225 0.951 . S
C186 C185 1.340 . S
C186 C187 1.439 . S
C186 H226 0.950 . S
C187 C186 1.439 . S
C187 N188 1.374 . S
C187 C221 1.395 . S
N188 C184 1.376 . S
N188 C187 1.374 . S
N188 Co189 2.008 . S
Co189 N188 2.008 . S
Co189 N190 1.995 . S
Co189 N195 2.008 . S
Co189 N200 1.995 . S
Co189 N205 2.282 . S
Co189 N211 2.282 . S
N190 Co189 1.995 . S
N190 C191 1.376 . S
N190 C194 1.383 . S
C191 N190 1.376 . S
C191 C192 1.446 . S
C191 C221 1.391 . S
C192 C191 1.446 . S
C192 C193 1.339 1_455 S
C192 H227 0.949 . S
C193 C192 1.339 1_655 S
C193 C194 1.439 1_655 S
C193 H228 0.950 . S
C194 N190 1.383 . S
C194 C193 1.439 1_455 S
C194 C223 1.392 1_455 S
N195 Co189 2.008 . S
N195 C196 1.376 1_455 S
N195 C199 1.374 . S
C196 N195 1.376 1_655 S
C196 C197 1.443 . S
C196 C223 1.389 . S
C197 C196 1.443 . S
C197 C198 1.340 . S
C197 H229 0.951 . S
C198 C197 1.340 . S
C198 C199 1.439 1_655 S
C198 H230 0.950 . S
C199 N195 1.374 . S
C199 C198 1.439 1_455 S
C199 C224 1.395 . S
N200 Co189 1.995 . S
N200 C201 1.376 . S
N200 C204 1.383 . S
C201 N200 1.376 . S
C201 C202 1.446 . S
C201 C224 1.391 . S
C202 C201 1.446 . S
C202 C203 1.339 . S
C202 H231 0.949 . S
C203 C202 1.339 . S
C203 C204 1.439 . S
C203 H232 0.950 . S
C204 N200 1.383 . S
C204 C203 1.439 . S
C204 C222 1.392 . S
N205 Co189 2.282 . S
N205 C208 1.332 . S
N205 C210 1.332 1_455 S
C206 C207 1.386 . S
C206 C209 1.388 . S
C207 C206 1.386 . S
C207 C208 1.382 1_655 S
C207 H233 0.950 . S
C208 N205 1.332 . S
C208 C207 1.382 1_455 S
C208 H219 0.952 . S
C209 C206 1.388 . S
C209 C210 1.382 . S
C209 H234 0.950 . S
C210 N205 1.332 1_655 S
C210 C209 1.382 . S
C210 H220 0.948 1_655 S
N211 Co189 2.282 . S
N211 C215 1.332 . S
N211 C216 1.332 . S
C212 C213 1.388 . S
C212 C216 1.382 . S
C212 H235 0.950 . S
C213 C212 1.388 . S
C213 C214 1.386 . S
C214 C213 1.386 . S
C214 C215 1.382 . S
C214 H236 0.950 . S
C215 N211 1.332 . S
C215 C214 1.382 . S
C215 H217 0.952 . S
C216 N211 1.332 . S
C216 C212 1.382 . S
C216 H218 0.948 . S
H217 C215 0.952 . S
H218 C216 0.948 . S
H219 C208 0.952 . S
H220 C210 0.948 1_455 S
C221 C187 1.395 . S
C221 C191 1.391 . S
C222 C184 1.389 . S
C222 C204 1.392 . S
C223 C194 1.392 1_655 S
C223 C196 1.389 . S
C224 C199 1.395 . S
C224 C201 1.391 . S
H225 C185 0.951 . S
H226 C186 0.950 . S
H227 C192 0.949 . S
H228 C193 0.950 . S
H229 C197 0.951 . S
H230 C198 0.950 . S
H231 C202 0.949 . S
H232 C203 0.950 . S
H233 C207 0.950 . S
H234 C209 0.950 . S
H235 C212 0.950 . S
H236 C214 0.950 . S
C237 C238 1.443 . S
C237 N241 1.376 . S
C237 C275 1.389 . S
C238 C237 1.443 . S
C238 C239 1.340 . S
C238 H278 0.951 . S
C239 C238 1.340 . S
C239 C240 1.439 . S
C239 H279 0.950 . S
C240 C239 1.439 . S
C240 N241 1.374 . S
C240 C274 1.395 . S
N241 C237 1.376 . S
N241 C240 1.374 . S
N241 Co242 2.008 . S
Co242 N241 2.008 . S
Co242 N243 1.995 . S
Co242 N248 2.008 . S
Co242 N253 1.995 . S
Co242 N258 2.282 . S
Co242 N264 2.282 . S
N243 Co242 1.995 . S
N243 C244 1.376 . S
N243 C247 1.383 . S
C244 N243 1.376 . S
C244 C245 1.446 . S
C244 C274 1.391 . S
C245 C244 1.446 . S
C245 C246 1.339 1_545 S
C245 H280 0.949 . S
C246 C245 1.339 1_565 S
C246 C247 1.439 1_565 S
C246 H281 0.950 . S
C247 N243 1.383 . S
C247 C246 1.439 1_545 S
C247 C276 1.392 1_545 S
N248 Co242 2.008 . S
N248 C249 1.352 1_545 S
N248 C252 1.374 . S
C249 N248 1.352 1_565 S
C249 C250 1.458 . S
C249 C276 1.399 . S
C250 C249 1.458 . S
C250 C251 1.342 . S
C250 H282 0.951 . S
C251 C250 1.342 . S
C251 C252 1.437 1_565 S
C251 H283 0.951 . S
C252 N248 1.374 . S
C252 C251 1.437 1_545 S
C252 C277 1.395 . S
N253 Co242 1.995 . S
N253 C254 1.376 . S
N253 C257 1.383 . S
C254 N253 1.376 . S
C254 C255 1.446 . S
C254 C277 1.391 . S
C255 C254 1.446 . S
C255 C256 1.339 . S
C255 H284 0.949 . S
C256 C255 1.339 . S
C256 C257 1.439 . S
C256 H285 0.950 . S
C257 N253 1.383 . S
C257 C256 1.439 . S
C257 C275 1.392 . S
N258 Co242 2.282 . S
N258 C261 1.332 . S
N258 C263 1.332 1_545 S
C259 C260 1.386 . S
C259 C262 1.388 . S
C260 C259 1.386 . S
C260 C261 1.382 1_565 S
C260 H286 0.950 . S
C261 N258 1.332 . S
C261 C260 1.382 1_545 S
C261 H272 0.952 . S
C262 C259 1.388 . S
C262 C263 1.382 . S
C262 H287 0.950 . S
C263 N258 1.332 1_565 S
C263 C262 1.382 . S
C263 H273 0.948 1_565 S
N264 Co242 2.282 . S
N264 C268 1.332 . S
N264 C269 1.332 . S
C265 C266 1.388 . S
C265 C269 1.382 . S
C265 H288 0.950 . S
C266 C265 1.388 . S
C266 C267 1.386 . S
C267 C266 1.386 . S
C267 C268 1.382 . S
C267 H289 0.950 . S
C268 N264 1.332 . S
C268 C267 1.382 . S
C268 H270 0.952 . S
C269 N264 1.332 . S
C269 C265 1.382 . S
C269 H271 0.948 . S
H270 C268 0.952 . S
H271 C269 0.948 . S
H272 C261 0.952 . S
H273 C263 0.948 1_545 S
C274 C240 1.395 . S
C274 C244 1.391 . S
C275 C237 1.389 . S
C275 C257 1.392 . S
C276 C247 1.392 1_565 S
C276 C249 1.399 . S
C277 C252 1.395 . S
C277 C254 1.391 . S
H278 C238 0.951 . S
H279 C239 0.950 . S
H280 C245 0.949 . S
H281 C246 0.950 . S
H282 C250 0.951 . S
H283 C251 0.951 . S
H284 C255 0.949 . S
H285 C256 0.950 . S
H286 C260 0.950 . S
H287 C262 0.950 . S
H288 C265 0.950 . S
H289 C267 0.950 . S
C290 C291 1.443 . S
C290 N294 1.376 . S
C290 C328 1.389 . S
C291 C290 1.443 . S
C291 C292 1.340 . S
C291 H331 0.951 . S
C292 C291 1.340 . S
C292 C293 1.439 . S
C292 H332 0.950 . S
C293 C292 1.439 . S
C293 N294 1.374 . S
C293 C327 1.395 . S
N294 C290 1.376 . S
N294 C293 1.374 . S
N294 Co295 2.008 . S
Co295 N294 2.008 . S
Co295 N296 1.995 1_455 S
Co295 N301 2.008 1_455 S
Co295 N306 1.995 . S
Co295 N311 2.282 1_455 S
Co295 N317 2.282 . S
N296 Co295 1.995 1_655 S
N296 C297 1.376 . S
N296 C300 1.383 . S
C297 N296 1.376 . S
C297 C298 1.446 . S
C297 C327 1.391 1_655 S
C298 C297 1.446 . S
C298 C299 1.339 . S
C298 H333 0.949 . S
C299 C298 1.339 . S
C299 C300 1.439 . S
C299 H334 0.950 . S
C300 N296 1.383 . S
C300 C299 1.439 . S
C300 C329 1.392 . S
N301 Co295 2.008 1_655 S
N301 C302 1.376 . S
N301 C305 1.374 . S
C302 N301 1.376 . S
C302 C303 1.443 . S
C302 C329 1.389 . S
C303 C302 1.443 . S
C303 C304 1.340 . S
C303 H335 0.951 . S
C304 C303 1.340 . S
C304 C305 1.439 . S
C304 H336 0.950 . S
C305 N301 1.374 . S
C305 C304 1.439 . S
C305 C330 1.395 1_655 S
N306 Co295 1.995 . S
N306 C307 1.376 . S
N306 C310 1.383 . S
C307 N306 1.376 . S
C307 C308 1.446 . S
C307 C330 1.391 . S
C308 C307 1.446 . S
C308 C309 1.339 . S
C308 H337 0.949 . S
C309 C308 1.339 . S
C309 C310 1.439 . S
C309 H338 0.950 . S
C310 N306 1.383 . S
C310 C309 1.439 . S
C310 C328 1.392 . S
N311 Co295 2.282 1_655 S
N311 C314 1.332 . S
N311 C316 1.332 . S
C312 C313 1.386 . S
C312 C315 1.388 . S
C313 C312 1.386 . S
C313 C314 1.382 . S
C313 H339 0.950 . S
C314 N311 1.332 . S
C314 C313 1.382 . S
C314 H325 0.952 . S
C315 C312 1.388 . S
C315 C316 1.382 . S
C315 H340 0.950 . S
C316 N311 1.332 . S
C316 C315 1.382 . S
C316 H326 0.948 . S
N317 Co295 2.282 . S
N317 C321 1.332 . S
N317 C322 1.332 . S
C318 C319 1.388 . S
C318 C322 1.382 . S
C318 H341 0.950 . S
C319 C318 1.388 . S
C319 C320 1.386 . S
C320 C319 1.386 . S
C320 C321 1.382 . S
C320 H342 0.950 . S
C321 N317 1.332 . S
C321 C320 1.382 . S
C321 H323 0.952 . S
C322 N317 1.332 . S
C322 C318 1.382 . S
C322 H324 0.948 . S
H323 C321 0.952 . S
H324 C322 0.948 . S
H325 C314 0.952 . S
H326 C316 0.948 . S
C327 C293 1.395 . S
C327 C297 1.391 1_455 S
C328 C290 1.389 . S
C328 C310 1.392 . S
C329 C300 1.392 . S
C329 C302 1.389 . S
C330 C305 1.395 1_455 S
C330 C307 1.391 . S
H331 C291 0.951 . S
H332 C292 0.950 . S
H333 C298 0.949 . S
H334 C299 0.950 . S
H335 C303 0.951 . S
H336 C304 0.950 . S
H337 C308 0.949 . S
H338 C309 0.950 . S
H339 C313 0.950 . S
H340 C315 0.950 . S
H341 C318 0.950 . S
H342 C320 0.950 . S
C343 C344 1.443 . S
C343 N347 1.376 . S
C343 C381 1.389 . S
C344 C343 1.443 . S
C344 C345 1.340 . S
C344 H384 0.951 . S
C345 C344 1.340 . S
C345 C346 1.439 . S
C345 H385 0.950 . S
C346 C345 1.439 . S
C346 N347 1.374 . S
C346 C380 1.395 1_565 S
N347 C343 1.376 . S
N347 C346 1.374 . S
N347 Co348 2.008 1_565 S
Co348 N347 2.008 1_545 S
Co348 N349 1.995 . S
Co348 N354 2.008 . S
Co348 N359 1.995 1_545 S
Co348 N364 2.282 . S
Co348 N370 2.282 1_545 S
N349 Co348 1.995 . S
N349 C350 1.376 . S
N349 C353 1.383 . S
C350 N349 1.376 . S
C350 C351 1.446 . S
C350 C380 1.391 . S
C351 C350 1.446 . S
C351 C352 1.339 . S
C351 H386 0.949 . S
C352 C351 1.339 . S
C352 C353 1.439 . S
C352 H387 0.950 . S
C353 N349 1.383 . S
C353 C352 1.439 . S
C353 C382 1.392 . S
N354 Co348 2.008 . S
N354 C355 1.376 . S
N354 C358 1.374 . S
C355 N354 1.376 . S
C355 C356 1.443 . S
C355 C382 1.389 . S
C356 C355 1.443 . S
C356 C357 1.340 . S
C356 H388 0.951 . S
C357 C356 1.340 . S
C357 C358 1.439 . S
C357 H389 0.950 . S
C358 N354 1.374 . S
C358 C357 1.439 . S
C358 C383 1.395 . S
N359 Co348 1.995 1_565 S
N359 C360 1.376 . S
N359 C363 1.383 . S
C360 N359 1.376 . S
C360 C361 1.446 . S
C360 C383 1.391 1_565 S
C361 C360 1.446 . S
C361 C362 1.339 . S
C361 H390 0.949 . S
C362 C361 1.339 . S
C362 C363 1.439 . S
C362 H391 0.950 . S
C363 N359 1.383 . S
C363 C362 1.439 . S
C363 C381 1.392 . S
N364 Co348 2.282 . S
N364 C367 1.332 . S
N364 C369 1.332 . S
C365 C366 1.386 . S
C365 C368 1.388 . S
C366 C365 1.386 . S
C366 C367 1.382 . S
C366 H392 0.950 . S
C367 N364 1.332 . S
C367 C366 1.382 . S
C367 H378 0.952 . S
C368 C365 1.388 . S
C368 C369 1.382 . S
C368 H393 0.950 . S
C369 N364 1.332 . S
C369 C368 1.382 . S
C369 H379 0.948 . S
N370 Co348 2.282 1_565 S
N370 C374 1.332 . S
N370 C375 1.332 . S
C371 C372 1.388 . S
C371 C375 1.382 . S
C371 H394 0.950 . S
C372 C371 1.388 . S
C372 C373 1.386 . S
C373 C372 1.386 . S
C373 C374 1.382 . S
C373 H395 0.950 . S
C374 N370 1.332 . S
C374 C373 1.382 . S
C374 H376 0.952 . S
C375 N370 1.332 . S
C375 C371 1.382 . S
C375 H377 0.948 . S
H376 C374 0.952 . S
H377 C375 0.948 . S
H378 C367 0.952 . S
H379 C369 0.948 . S
C380 C346 1.395 1_545 S
C380 C350 1.391 . S
C381 C343 1.389 . S
C381 C363 1.392 . S
C382 C353 1.392 . S
C382 C355 1.389 . S
C383 C358 1.395 . S
C383 C360 1.391 1_545 S
H384 C344 0.951 . S
H385 C345 0.950 . S
H386 C351 0.949 . S
H387 C352 0.950 . S
H388 C356 0.951 . S
H389 C357 0.950 . S
H390 C361 0.949 . S
H391 C362 0.950 . S
H392 C366 0.950 . S
H393 C368 0.950 . S
H394 C371 0.950 . S
H395 C373 0.950 . S
C396 C397 1.443 . S
C396 N400 1.376 . S
C396 C434 1.389 . S
C397 C396 1.443 . S
C397 C398 1.340 . S
C397 H437 0.951 . S
C398 C397 1.340 . S
C398 C399 1.439 . S
C398 H438 0.950 . S
C399 C398 1.439 . S
C399 N400 1.374 . S
C399 C433 1.395 1_554 S
N400 C396 1.376 . S
N400 C399 1.374 . S
N400 Co401 2.008 . S
Co401 N400 2.008 . S
Co401 N402 1.995 1_554 S
Co401 N407 2.008 1_554 S
Co401 N412 1.995 . S
Co401 N417 2.282 . S
Co401 N423 2.282 1_554 S
N402 Co401 1.995 1_556 S
N402 C403 1.376 . S
N402 C406 1.383 . S
C403 N402 1.376 . S
C403 C404 1.446 . S
C403 C433 1.391 . S
C404 C403 1.446 . S
C404 C405 1.339 . S
C404 H439 0.949 . S
C405 C404 1.339 . S
C405 C406 1.439 . S
C405 H440 0.950 . S
C406 N402 1.383 . S
C406 C405 1.439 . S
C406 C435 1.392 . S
N407 Co401 2.008 1_556 S
N407 C408 1.376 . S
N407 C411 1.374 . S
C408 N407 1.376 . S
C408 C409 1.443 . S
C408 C435 1.389 . S
C409 C408 1.443 . S
C409 C410 1.340 . S
C409 H441 0.951 . S
C410 C409 1.340 . S
C410 C411 1.439 . S
C410 H442 0.950 . S
C411 N407 1.374 . S
C411 C410 1.439 . S
C411 C436 1.395 1_556 S
N412 Co401 1.995 . S
N412 C413 1.376 . S
N412 C416 1.383 . S
C413 N412 1.376 . S
C413 C414 1.446 . S
C413 C436 1.391 . S
C414 C413 1.446 . S
C414 C415 1.339 . S
C414 H443 0.949 . S
C415 C414 1.339 . S
C415 C416 1.439 . S
C415 H444 0.950 . S
C416 N412 1.383 . S
C416 C415 1.439 . S
C416 C434 1.392 . S
N417 Co401 2.282 . S
N417 C420 1.332 . S
N417 C422 1.332 . S
C418 C419 1.386 . S
C418 C421 1.388 . S
C419 C418 1.386 . S
C419 C420 1.382 . S
C419 H445 0.950 . S
C420 N417 1.332 . S
C420 C419 1.382 . S
C420 H431 0.952 . S
C421 C418 1.388 . S
C421 C422 1.382 . S
C421 H446 0.950 . S
C422 N417 1.332 . S
C422 C421 1.382 . S
C422 H432 0.948 . S
N423 Co401 2.282 1_556 S
N423 C427 1.332 . S
N423 C428 1.332 . S
C424 C425 1.388 . S
C424 C428 1.382 . S
C424 H447 0.950 . S
C425 C424 1.388 . S
C425 C426 1.386 . S
C426 C425 1.386 . S
C426 C427 1.382 . S
C426 H448 0.950 . S
C427 N423 1.332 . S
C427 C426 1.382 . S
C427 H429 0.952 . S
C428 N423 1.332 . S
C428 C424 1.382 . S
C428 H430 0.948 . S
H429 C427 0.952 . S
H430 C428 0.948 . S
H431 C420 0.952 . S
H432 C422 0.948 . S
C433 C399 1.395 1_556 S
C433 C403 1.391 . S
C434 C396 1.389 . S
C434 C416 1.392 . S
C435 C406 1.392 . S
C435 C408 1.389 . S
C436 C411 1.395 1_554 S
C436 C413 1.391 . S
H437 C397 0.951 . S
H438 C398 0.950 . S
H439 C404 0.949 . S
H440 C405 0.950 . S
H441 C409 0.951 . S
H442 C410 0.950 . S
H443 C414 0.949 . S
H444 C415 0.950 . S
H445 C419 0.950 . S
H446 C421 0.950 . S
H447 C424 0.950 . S
H448 C426 0.950 . S
C449 C450 1.443 . S
C449 N453 1.376 . S
C449 C487 1.389 . S
C450 C449 1.443 . S
C450 C451 1.340 . S
C450 H490 0.951 . S
C451 C450 1.340 . S
C451 C452 1.439 . S
C451 H491 0.950 . S
C452 C451 1.439 . S
C452 N453 1.374 . S
C452 C486 1.396 . S
N453 C449 1.376 . S
N453 C452 1.374 . S
N453 Co454 2.008 . S
Co454 N453 2.008 . S
Co454 N455 1.995 1_554 S
Co454 N460 2.008 1_554 S
Co454 N465 1.995 . S
Co454 N470 2.282 . S
Co454 N476 2.282 1_554 S
N455 Co454 1.995 1_556 S
N455 C456 1.376 . S
N455 C459 1.383 . S
C456 N455 1.376 . S
C456 C457 1.446 . S
C456 C486 1.390 1_556 S
C457 C456 1.446 . S
C457 C458 1.339 . S
C457 H492 0.949 . S
C458 C457 1.339 . S
C458 C459 1.439 . S
C458 H493 0.950 . S
C459 N455 1.383 . S
C459 C458 1.439 . S
C459 C488 1.392 . S
N460 Co454 2.008 1_556 S
N460 C461 1.376 . S
N460 C464 1.374 1_556 S
C461 N460 1.376 . S
C461 C462 1.443 . S
C461 C488 1.389 . S
C462 C461 1.443 . S
C462 C463 1.340 . S
C462 H494 0.951 . S
C463 C462 1.340 . S
C463 C464 1.439 1_556 S
C463 H495 0.950 . S
C464 N460 1.374 1_554 S
C464 C463 1.439 1_554 S
C464 C489 1.395 . S
N465 Co454 1.995 . S
N465 C466 1.376 . S
N465 C469 1.383 . S
C466 N465 1.376 . S
C466 C467 1.446 . S
C466 C489 1.391 . S
C467 C466 1.446 . S
C467 C468 1.339 . S
C467 H496 0.949 . S
C468 C467 1.339 . S
C468 C469 1.439 . S
C468 H497 0.950 . S
C469 N465 1.383 . S
C469 C468 1.439 . S
C469 C487 1.392 . S
N470 Co454 2.282 . S
N470 C473 1.332 . S
N470 C475 1.332 . S
C471 C472 1.386 . S
C471 C474 1.388 . S
C472 C471 1.386 . S
C472 C473 1.382 . S
C472 H498 0.950 . S
C473 N470 1.332 . S
C473 C472 1.382 . S
C473 H484 0.952 . S
C474 C471 1.388 . S
C474 C475 1.382 . S
C474 H499 0.950 . S
C475 N470 1.332 . S
C475 C474 1.382 . S
C475 H485 0.948 . S
N476 Co454 2.282 1_556 S
N476 C480 1.332 . S
N476 C481 1.332 . S
C477 C478 1.388 . S
C477 C481 1.382 . S
C477 H500 0.950 . S
C478 C477 1.388 . S
C478 C479 1.386 . S
C479 C478 1.386 . S
C479 C480 1.382 . S
C479 H501 0.950 . S
C480 N476 1.332 . S
C480 C479 1.382 . S
C480 H482 0.952 . S
C481 N476 1.332 . S
C481 C477 1.382 . S
C481 H483 0.948 . S
H482 C480 0.952 . S
H483 C481 0.948 . S
H484 C473 0.952 . S
H485 C475 0.948 . S
C486 C452 1.396 . S
C486 C456 1.390 1_554 S
C487 C449 1.389 . S
C487 C469 1.392 . S
C488 C459 1.392 . S
C488 C461 1.389 . S
C489 C464 1.395 . S
C489 C466 1.391 . S
H490 C450 0.951 . S
H491 C451 0.950 . S
H492 C457 0.949 . S
H493 C458 0.950 . S
H494 C462 0.951 . S
H495 C463 0.950 . S
H496 C467 0.949 . S
H497 C468 0.950 . S
H498 C472 0.950 . S
H499 C474 0.950 . S
H500 C477 0.950 . S
H501 C479 0.950 . S
C502 C503 1.443 . S
C502 N506 1.376 1_556 S
C502 C540 1.389 . S
C503 C502 1.443 . S
C503 C504 1.340 1_556 S
C503 H543 0.951 . S
C504 C503 1.340 1_554 S
C504 C505 1.439 . S
C504 H544 0.950 . S
C505 C504 1.439 . S
C505 N506 1.374 . S
C505 C539 1.395 . S
N506 C502 1.376 1_554 S
N506 C505 1.374 . S
N506 Co507 2.008 . S
Co507 N506 2.008 . S
Co507 N508 1.995 . S
Co507 N513 2.008 . S
Co507 N518 1.995 . S
Co507 N523 2.282 1_554 S
Co507 N529 2.282 . S
N508 Co507 1.995 . S
N508 C509 1.376 . S
N508 C512 1.383 . S
C509 N508 1.376 . S
C509 C510 1.446 . S
C509 C539 1.391 . S
C510 C509 1.446 . S
C510 C511 1.339 . S
C510 H545 0.949 . S
C511 C510 1.339 . S
C511 C512 1.439 . S
C511 H546 0.950 . S
C512 N508 1.383 . S
C512 C511 1.439 . S
C512 C541 1.392 . S
N513 Co507 2.008 . S
N513 C514 1.376 . S
N513 C517 1.374 . S
C514 N513 1.376 . S
C514 C515 1.443 . S
C514 C541 1.389 . S
C515 C514 1.443 . S
C515 C516 1.340 . S
C515 H547 0.951 . S
C516 C515 1.340 . S
C516 C517 1.439 . S
C516 H548 0.950 . S
C517 N513 1.374 . S
C517 C516 1.439 . S
C517 C542 1.395 . S
N518 Co507 1.995 . S
N518 C519 1.376 . S
N518 C522 1.383 1_554 S
C519 N518 1.376 . S
C519 C520 1.446 1_554 S
C519 C542 1.391 . S
C520 C519 1.446 1_556 S
C520 C521 1.339 . S
C520 H549 0.949 . S
C521 C520 1.339 . S
C521 C522 1.439 . S
C521 H550 0.950 . S
C522 N518 1.383 1_556 S
C522 C521 1.439 . S
C522 C540 1.392 . S
N523 Co507 2.282 1_556 S
N523 C526 1.332 . S
N523 C528 1.332 . S
C524 C525 1.386 . S
C524 C527 1.388 . S
C525 C524 1.386 . S
C525 C526 1.382 . S
C525 H551 0.950 . S
C526 N523 1.332 . S
C526 C525 1.382 . S
C526 H537 0.952 . S
C527 C524 1.388 . S
C527 C528 1.382 . S
C527 H552 0.950 . S
C528 N523 1.332 . S
C528 C527 1.382 . S
C528 H538 0.948 1_556 S
N529 Co507 2.282 . S
N529 C533 1.332 . S
N529 C534 1.332 . S
C530 C531 1.388 . S
C530 C534 1.382 . S
C530 H553 0.950 . S
C531 C530 1.388 . S
C531 C532 1.386 . S
C532 C531 1.386 . S
C532 C533 1.382 . S
C532 H554 0.950 . S
C533 N529 1.332 . S
C533 C532 1.382 . S
C533 H535 0.952 . S
C534 N529 1.332 . S
C534 C530 1.382 . S
C534 H536 0.948 . S
H535 C533 0.952 . S
H536 C534 0.948 . S
H537 C526 0.952 . S
H538 C528 0.948 1_554 S
C539 C505 1.395 . S
C539 C509 1.391 . S
C540 C502 1.389 . S
C540 C522 1.392 . S
C541 C512 1.392 . S
C541 C514 1.389 . S
C542 C517 1.395 . S
C542 C519 1.391 . S
H543 C503 0.951 . S
H544 C504 0.950 . S
H545 C510 0.949 . S
H546 C511 0.950 . S
H547 C515 0.951 . S
H548 C516 0.950 . S
H549 C520 0.949 . S
H550 C521 0.950 . S
H551 C525 0.950 . S
H552 C527 0.950 . S
H553 C530 0.950 . S
H554 C532 0.950 . S
C555 C556 1.443 . S
C555 N559 1.376 . S
C555 C593 1.389 . S
C556 C555 1.443 . S
C556 C557 1.340 . S
C556 H596 0.951 . S
C557 C556 1.340 . S
C557 C558 1.439 . S
C557 H597 0.950 . S
C558 C557 1.439 . S
C558 N559 1.374 . S
C558 C592 1.395 1_554 S
N559 C555 1.376 . S
N559 C558 1.374 . S
N559 Co560 2.008 . S
Co560 N559 2.008 . S
Co560 N561 1.995 1_554 S
Co560 N566 2.008 1_554 S
Co560 N571 1.995 . S
Co560 N576 2.282 . S
Co560 N582 2.282 1_554 S
N561 Co560 1.995 1_556 S
N561 C562 1.376 . S
N561 C565 1.383 . S
C562 N561 1.376 . S
C562 C563 1.446 . S
C562 C592 1.391 . S
C563 C562 1.446 . S
C563 C564 1.339 . S
C563 H598 0.949 . S
C564 C563 1.339 . S
C564 C565 1.439 . S
C564 H599 0.950 . S
C565 N561 1.383 . S
C565 C564 1.439 . S
C565 C594 1.392 . S
N566 Co560 2.008 1_556 S
N566 C567 1.376 . S
N566 C570 1.374 1_556 S
C567 N566 1.376 . S
C567 C568 1.443 . S
C567 C594 1.389 . S
C568 C567 1.443 . S
C568 C569 1.340 . S
C568 H600 0.951 . S
C569 C568 1.340 . S
C569 C570 1.439 1_556 S
C569 H601 0.950 . S
C570 N566 1.374 1_554 S
C570 C569 1.439 1_554 S
C570 C595 1.395 . S
N571 Co560 1.995 . S
N571 C572 1.376 . S
N571 C575 1.383 . S
C572 N571 1.376 . S
C572 C573 1.446 . S
C572 C595 1.391 . S
C573 C572 1.446 . S
C573 C574 1.339 . S
C573 H602 0.949 . S
C574 C573 1.339 . S
C574 C575 1.439 . S
C574 H603 0.950 . S
C575 N571 1.383 . S
C575 C574 1.439 . S
C575 C593 1.392 . S
N576 Co560 2.282 . S
N576 C579 1.332 . S
N576 C581 1.332 . S
C577 C578 1.386 . S
C577 C580 1.388 . S
C578 C577 1.386 . S
C578 C579 1.382 . S
C578 H604 0.950 . S
C579 N576 1.332 . S
C579 C578 1.382 . S
C579 H590 0.952 . S
C580 C577 1.388 . S
C580 C581 1.382 . S
C580 H605 0.950 . S
C581 N576 1.332 . S
C581 C580 1.382 . S
C581 H591 0.948 . S
N582 Co560 2.282 1_556 S
N582 C586 1.332 . S
N582 C587 1.332 . S
C583 C584 1.388 . S
C583 C587 1.382 . S
C583 H606 0.950 . S
C584 C583 1.388 . S
C584 C585 1.386 . S
C585 C584 1.386 . S
C585 C586 1.382 . S
C585 H607 0.950 . S
C586 N582 1.332 . S
C586 C585 1.382 . S
C586 H588 0.952 . S
C587 N582 1.332 . S
C587 C583 1.382 . S
C587 H589 0.948 . S
H588 C586 0.952 . S
H589 C587 0.948 . S
H590 C579 0.952 . S
H591 C581 0.948 . S
C592 C558 1.395 1_556 S
C592 C562 1.391 . S
C593 C555 1.389 . S
C593 C575 1.392 . S
C594 C565 1.392 . S
C594 C567 1.389 . S
C595 C570 1.395 . S
C595 C572 1.391 . S
H596 C556 0.951 . S
H597 C557 0.950 . S
H598 C563 0.949 . S
H599 C564 0.950 . S
H600 C568 0.951 . S
H601 C569 0.950 . S
H602 C573 0.949 . S
H603 C574 0.950 . S
H604 C578 0.950 . S
H605 C580 0.950 . S
H606 C583 0.950 . S
H607 C585 0.950 . S
H608 C616 0.950 . S
H609 C621 0.950 . S
H610 C618 0.950 . S
H611 C620 0.950 . S
H612 C622 0.950 . S
H613 C624 0.950 . S
H614 C626 0.950 . S
H615 C627 0.950 . S
C616 H608 0.950 . S
C616 C617 1.386 . S
C616 C618 1.391 . S
C617 C616 1.386 . S
C617 C621 1.393 . S
C618 H610 0.950 . S
C618 C616 1.391 . S
C618 C619 1.400 . S
C619 C618 1.400 . S
C619 C620 1.398 . S
C619 C625 1.491 . S
C620 H611 0.950 . S
C620 C619 1.398 . S
C620 C621 1.391 . S
C621 H609 0.950 . S
C621 C617 1.393 . S
C621 C620 1.391 . S
C622 H612 0.950 . S
C622 C623 1.386 . S
C622 C624 1.391 . S
C623 C622 1.386 . S
C623 C627 1.393 . S
C624 H613 0.950 . S
C624 C622 1.391 . S
C624 C625 1.400 . S
C625 C619 1.491 . S
C625 C624 1.400 . S
C625 C626 1.398 . S
C626 H614 0.950 . S
C626 C625 1.398 . S
C626 C627 1.391 . S
C627 H615 0.950 . S
C627 C623 1.393 . S
C627 C626 1.391 . S
H628 C636 0.950 . S
H629 C641 0.950 . S
H630 C638 0.950 . S
H631 C640 0.950 . S
H632 C642 0.950 . S
H633 C644 0.950 . S
H634 C646 0.950 . S
H635 C647 0.950 . S
C636 H628 0.950 . S
C636 C637 1.386 . S
C636 C638 1.391 . S
C637 C636 1.386 . S
C637 C641 1.393 . S
C638 H630 0.950 . S
C638 C636 1.391 . S
C638 C639 1.400 . S
C639 C638 1.400 . S
C639 C640 1.398 . S
C639 C645 1.491 . S
C640 H631 0.950 . S
C640 C639 1.398 . S
C640 C641 1.391 . S
C641 H629 0.950 . S
C641 C637 1.393 . S
C641 C640 1.391 . S
C642 H632 0.950 . S
C642 C643 1.386 . S
C642 C644 1.391 . S
C643 C642 1.386 . S
C643 C647 1.393 . S
C644 H633 0.950 . S
C644 C642 1.391 . S
C644 C645 1.400 . S
C645 C639 1.491 . S
C645 C644 1.400 . S
C645 C646 1.398 . S
C646 H634 0.950 . S
C646 C645 1.398 . S
C646 C647 1.391 . S
C647 H635 0.950 . S
C647 C643 1.393 . S
C647 C646 1.391 . S
H648 C656 0.950 . S
H649 C661 0.950 . S
H650 C658 0.950 . S
H651 C660 0.950 . S
H652 C662 0.950 . S
H653 C664 0.950 . S
H654 C666 0.950 . S
H655 C667 0.950 . S
C656 H648 0.950 . S
C656 C657 1.386 . S
C656 C658 1.391 . S
C657 C656 1.386 . S
C657 C661 1.393 . S
C658 H650 0.950 . S
C658 C656 1.391 . S
C658 C659 1.400 . S
C659 C658 1.400 . S
C659 C660 1.398 . S
C659 C665 1.491 . S
C660 H651 0.950 . S
C660 C659 1.398 . S
C660 C661 1.391 . S
C661 H649 0.950 . S
C661 C657 1.393 . S
C661 C660 1.391 . S
C662 H652 0.950 . S
C662 C663 1.386 . S
C662 C664 1.391 . S
C663 C662 1.386 . S
C663 C667 1.393 . S
C664 H653 0.950 . S
C664 C662 1.391 . S
C664 C665 1.400 . S
C665 C659 1.491 . S
C665 C664 1.400 . S
C665 C666 1.398 . S
C666 H654 0.950 . S
C666 C665 1.398 . S
C666 C667 1.391 . S
C667 H655 0.950 . S
C667 C663 1.393 . S
C667 C666 1.391 . S
H668 C676 0.950 . S
H669 C681 0.950 . S
H670 C678 0.950 . S
H671 C680 0.950 . S
H672 C682 0.950 . S
H673 C684 0.950 . S
H674 C686 0.950 . S
H675 C687 0.950 . S
C676 H668 0.950 . S
C676 C677 1.386 . S
C676 C678 1.391 . S
C677 C676 1.386 . S
C677 C681 1.393 . S
C678 H670 0.950 . S
C678 C676 1.391 . S
C678 C679 1.400 . S
C679 C678 1.400 . S
C679 C680 1.398 . S
C679 C685 1.491 . S
C680 H671 0.950 . S
C680 C679 1.398 . S
C680 C681 1.391 . S
C681 H669 0.950 . S
C681 C677 1.393 . S
C681 C680 1.391 . S
C682 H672 0.950 . S
C682 C683 1.386 . S
C682 C684 1.391 . S
C683 C682 1.386 . S
C683 C687 1.393 . S
C684 H673 0.950 . S
C684 C682 1.391 . S
C684 C685 1.400 . S
C685 C679 1.491 . S
C685 C684 1.400 . S
C685 C686 1.398 . S
C686 H674 0.950 . S
C686 C685 1.398 . S
C686 C687 1.391 . S
C687 H675 0.950 . S
C687 C683 1.393 . S
C687 C686 1.391 . S
H688 C696 0.950 . S
H689 C701 0.950 . S
H690 C698 0.950 . S
H691 C700 0.950 . S
H692 C702 0.950 . S
H693 C704 0.950 . S
H694 C706 0.950 . S
H695 C707 0.950 . S
C696 H688 0.950 . S
C696 C697 1.386 . S
C696 C698 1.391 . S
C697 C696 1.386 . S
C697 C701 1.393 . S
C698 H690 0.950 . S
C698 C696 1.391 . S
C698 C699 1.400 . S
C699 C698 1.400 . S
C699 C700 1.398 . S
C699 C705 1.491 . S
C700 H691 0.950 . S
C700 C699 1.398 . S
C700 C701 1.391 . S
C701 H689 0.950 . S
C701 C697 1.393 . S
C701 C700 1.391 . S
C702 H692 0.950 . S
C702 C703 1.386 . S
C702 C704 1.391 . S
C703 C702 1.386 . S
C703 C707 1.393 . S
C704 H693 0.950 . S
C704 C702 1.391 . S
C704 C705 1.400 . S
C705 C699 1.491 . S
C705 C704 1.400 . S
C705 C706 1.398 . S
C706 H694 0.950 . S
C706 C705 1.398 . S
C706 C707 1.391 . S
C707 H695 0.950 . S
C707 C703 1.393 . S
C707 C706 1.391 . S
H708 C716 0.950 . S
H709 C721 0.950 . S
H710 C718 0.950 . S
H711 C720 0.950 . S
H712 C722 0.950 . S
H713 C724 0.950 . S
H714 C726 0.950 . S
H715 C727 0.950 . S
C716 H708 0.950 . S
C716 C717 1.386 . S
C716 C718 1.391 . S
C717 C716 1.386 . S
C717 C721 1.393 . S
C718 H710 0.950 . S
C718 C716 1.391 . S
C718 C719 1.400 . S
C719 C718 1.400 . S
C719 C720 1.398 . S
C719 C725 1.491 . S
C720 H711 0.950 . S
C720 C719 1.398 . S
C720 C721 1.391 . S
C721 H709 0.950 . S
C721 C717 1.393 . S
C721 C720 1.391 . S
C722 H712 0.950 . S
C722 C723 1.386 . S
C722 C724 1.391 . S
C723 C722 1.386 . S
C723 C727 1.393 . S
C724 H713 0.950 . S
C724 C722 1.391 . S
C724 C725 1.400 . S
C725 C719 1.491 . S
C725 C724 1.400 . S
C725 C726 1.398 . S
C726 H714 0.950 . S
C726 C725 1.398 . S
C726 C727 1.391 . S
C727 H715 0.950 . S
C727 C723 1.393 . S
C727 C726 1.391 . S
H728 C736 0.950 . S
H729 C741 0.950 . S
H730 C738 0.950 . S
H731 C740 0.950 . S
H732 C742 0.950 . S
H733 C744 0.950 . S
H734 C746 0.950 . S
H735 C747 0.950 . S
C736 H728 0.950 . S
C736 C737 1.386 . S
C736 C738 1.391 . S
C737 C736 1.386 . S
C737 C741 1.393 . S
C738 H730 0.950 . S
C738 C736 1.391 . S
C738 C739 1.400 . S
C739 C738 1.400 . S
C739 C740 1.398 . S
C739 C745 1.491 . S
C740 H731 0.950 . S
C740 C739 1.398 . S
C740 C741 1.391 . S
C741 H729 0.950 . S
C741 C737 1.393 . S
C741 C740 1.391 . S
C742 H732 0.950 . S
C742 C743 1.386 . S
C742 C744 1.391 . S
C743 C742 1.386 . S
C743 C747 1.393 . S
C744 H733 0.950 . S
C744 C742 1.391 . S
C744 C745 1.400 . S
C745 C739 1.491 . S
C745 C744 1.400 . S
C745 C746 1.398 . S
C746 H734 0.950 . S
C746 C745 1.398 . S
C746 C747 1.391 . S
C747 H735 0.950 . S
C747 C743 1.393 . S
C747 C746 1.391 . S
H748 C756 0.950 . S
H749 C761 0.950 . S
H750 C758 0.950 . S
H751 C760 0.950 . S
H752 C762 0.950 . S
H753 C764 0.950 . S
H754 C766 0.950 . S
H755 C767 0.950 . S
C756 H748 0.950 . S
C756 C757 1.386 . S
C756 C758 1.391 . S
C757 C756 1.386 . S
C757 C761 1.393 . S
C758 H750 0.950 . S
C758 C756 1.391 . S
C758 C759 1.400 . S
C759 C758 1.400 . S
C759 C760 1.398 . S
C759 C765 1.491 . S
C760 H751 0.950 . S
C760 C759 1.398 . S
C760 C761 1.391 . S
C761 H749 0.950 . S
C761 C757 1.393 . S
C761 C760 1.391 . S
C762 H752 0.950 . S
C762 C763 1.386 . S
C762 C764 1.391 . S
C763 C762 1.386 . S
C763 C767 1.393 . S
C764 H753 0.950 . S
C764 C762 1.391 . S
C764 C765 1.400 . S
C765 C759 1.491 . S
C765 C764 1.400 . S
C765 C766 1.398 . S
C766 H754 0.950 . S
C766 C765 1.398 . S
C766 C767 1.391 . S
C767 H755 0.950 . S
C767 C763 1.393 . S
C767 C766 1.391 . S
H768 C776 0.950 . S
H769 C781 0.950 . S
H770 C778 0.950 . S
H771 C780 0.950 . S
H772 C782 0.950 . S
H773 C784 0.950 . S
H774 C786 0.950 . S
H775 C787 0.950 . S
C776 H768 0.950 . S
C776 C777 1.386 . S
C776 C778 1.391 . S
C777 C776 1.386 . S
C777 C781 1.393 . S
C778 H770 0.950 . S
C778 C776 1.391 . S
C778 C779 1.400 . S
C779 C778 1.400 . S
C779 C780 1.398 . S
C779 C785 1.491 . S
C780 H771 0.950 . S
C780 C779 1.398 . S
C780 C781 1.391 . S
C781 H769 0.950 . S
C781 C777 1.393 . S
C781 C780 1.391 . S
C782 H772 0.950 . S
C782 C783 1.386 . S
C782 C784 1.391 . S
C783 C782 1.386 . S
C783 C787 1.393 . S
C784 H773 0.950 . S
C784 C782 1.391 . S
C784 C785 1.400 . S
C785 C779 1.491 . S
C785 C784 1.400 . S
C785 C786 1.398 . S
C786 H774 0.950 . S
C786 C785 1.398 . S
C786 C787 1.391 . S
C787 H775 0.950 . S
C787 C783 1.393 . S
C787 C786 1.391 . S
H788 C796 0.950 . S
H789 C801 0.950 . S
H790 C798 0.950 . S
H791 C800 0.950 . S
H792 C802 0.950 . S
H793 C804 0.950 . S
H794 C806 0.950 . S
H795 C807 0.950 . S
C796 H788 0.950 . S
C796 C797 1.386 . S
C796 C798 1.391 . S
C797 C796 1.386 . S
C797 C801 1.393 . S
C798 H790 0.950 . S
C798 C796 1.391 . S
C798 C799 1.400 . S
C799 C798 1.400 . S
C799 C800 1.398 . S
C799 C805 1.491 . S
C800 H791 0.950 . S
C800 C799 1.398 . S
C800 C801 1.391 . S
C801 H789 0.950 . S
C801 C797 1.393 . S
C801 C800 1.391 . S
C802 H792 0.950 . S
C802 C803 1.386 . S
C802 C804 1.391 . S
C803 C802 1.386 . S
C803 C807 1.393 . S
C804 H793 0.950 . S
C804 C802 1.391 . S
C804 C805 1.400 . S
C805 C799 1.491 . S
C805 C804 1.400 . S
C805 C806 1.398 . S
C806 H794 0.950 . S
C806 C805 1.398 . S
C806 C807 1.391 . S
C807 H795 0.950 . S
C807 C803 1.393 . S
C807 C806 1.391 . S
H808 C816 0.950 . S
H809 C821 0.950 . S
H810 C818 0.950 . S
H811 C820 0.950 . S
H812 C822 0.950 . S
H813 C824 0.950 . S
H814 C826 0.950 . S
H815 C827 0.950 . S
C816 H808 0.950 . S
C816 C817 1.386 . S
C816 C818 1.391 . S
C817 C816 1.386 . S
C817 C821 1.393 . S
C818 H810 0.950 . S
C818 C816 1.391 . S
C818 C819 1.400 . S
C819 C818 1.400 . S
C819 C820 1.398 . S
C819 C825 1.491 . S
C820 H811 0.950 . S
C820 C819 1.398 . S
C820 C821 1.391 . S
C821 H809 0.950 . S
C821 C817 1.393 . S
C821 C820 1.391 . S
C822 H812 0.950 . S
C822 C823 1.386 . S
C822 C824 1.391 . S
C823 C822 1.386 . S
C823 C827 1.393 . S
C824 H813 0.950 . S
C824 C822 1.391 . S
C824 C825 1.400 . S
C825 C819 1.491 . S
C825 C824 1.400 . S
C825 C826 1.398 . S
C826 H814 0.950 . S
C826 C825 1.398 . S
C826 C827 1.391 . S
C827 H815 0.950 . S
C827 C823 1.393 . S
C827 C826 1.391 . S
H828 C836 0.950 . S
H829 C841 0.950 . S
H830 C838 0.950 . S
H831 C840 0.950 . S
H832 C842 0.950 . S
H833 C844 0.950 . S
H834 C846 0.950 . S
H835 C847 0.950 . S
C836 H828 0.950 . S
C836 C837 1.386 . S
C836 C838 1.391 . S
C837 C836 1.386 . S
C837 C841 1.393 . S
C838 H830 0.950 . S
C838 C836 1.391 . S
C838 C839 1.400 . S
C839 C838 1.400 . S
C839 C840 1.398 . S
C839 C845 1.491 . S
C840 H831 0.950 . S
C840 C839 1.398 . S
C840 C841 1.391 . S
C841 H829 0.950 . S
C841 C837 1.393 . S
C841 C840 1.391 . S
C842 H832 0.950 . S
C842 C843 1.386 . S
C842 C844 1.391 . S
C843 C842 1.386 . S
C843 C847 1.393 . S
C844 H833 0.950 . S
C844 C842 1.391 . S
C844 C845 1.400 . S
C845 C839 1.491 . S
C845 C844 1.400 . S
C845 C846 1.398 . S
C846 H834 0.950 . S
C846 C845 1.398 . S
C846 C847 1.391 . S
C847 H835 0.950 . S
C847 C843 1.393 . S
C847 C846 1.391 . S
H848 C856 0.950 . S
H849 C861 0.950 . S
H850 C858 0.950 . S
H851 C860 0.950 . S
H852 C862 0.950 . S
H853 C864 0.950 . S
H854 C866 0.950 . S
H855 C867 0.950 . S
C856 H848 0.950 . S
C856 C857 1.386 . S
C856 C858 1.391 . S
C857 C856 1.386 . S
C857 C861 1.393 . S
C858 H850 0.950 . S
C858 C856 1.391 . S
C858 C859 1.400 . S
C859 C858 1.400 . S
C859 C860 1.398 . S
C859 C865 1.491 . S
C860 H851 0.950 . S
C860 C859 1.398 . S
C860 C861 1.391 . S
C861 H849 0.950 . S
C861 C857 1.393 . S
C861 C860 1.391 . S
C862 H852 0.950 . S
C862 C863 1.386 . S
C862 C864 1.391 . S
C863 C862 1.386 . S
C863 C867 1.393 . S
C864 H853 0.950 . S
C864 C862 1.391 . S
C864 C865 1.400 . S
C865 C859 1.491 . S
C865 C864 1.400 . S
C865 C866 1.398 . S
C866 H854 0.950 . S
C866 C865 1.398 . S
C866 C867 1.391 . S
C867 H855 0.950 . S
C867 C863 1.393 . S
C867 C866 1.391 . S
H868 C876 0.950 . S
H869 C881 0.950 . S
H870 C878 0.950 . S
H871 C880 0.950 . S
H872 C882 0.950 . S
H873 C884 0.950 . S
H874 C886 0.950 . S
H875 C887 0.950 . S
C876 H868 0.950 . S
C876 C877 1.386 . S
C876 C878 1.391 . S
C877 C876 1.386 . S
C877 C881 1.393 . S
C878 H870 0.950 . S
C878 C876 1.391 . S
C878 C879 1.400 . S
C879 C878 1.400 . S
C879 C880 1.398 . S
C879 C885 1.491 . S
C880 H871 0.950 . S
C880 C879 1.398 . S
C880 C881 1.391 . S
C881 H869 0.950 . S
C881 C877 1.393 . S
C881 C880 1.391 . S
C882 H872 0.950 . S
C882 C883 1.386 . S
C882 C884 1.391 . S
C883 C882 1.386 . S
C883 C887 1.393 . S
C884 H873 0.950 . S
C884 C882 1.391 . S
C884 C885 1.400 . S
C885 C879 1.491 . S
C885 C884 1.400 . S
C885 C886 1.398 . S
C886 H874 0.950 . S
C886 C885 1.398 . S
C886 C887 1.391 . S
C887 H875 0.950 . S
C887 C883 1.393 . S
C887 C886 1.391 . S
H888 C896 0.950 . S
H889 C901 0.950 . S
H890 C898 0.950 . S
H891 C900 0.950 . S
H892 C902 0.950 . S
H893 C904 0.950 . S
H894 C906 0.950 . S
H895 C907 0.950 . S
C896 H888 0.950 . S
C896 C897 1.386 . S
C896 C898 1.391 . S
C897 C896 1.386 . S
C897 C901 1.393 . S
C898 H890 0.950 . S
C898 C896 1.391 . S
C898 C899 1.400 . S
C899 C898 1.400 . S
C899 C900 1.398 . S
C899 C905 1.491 . S
C900 H891 0.950 . S
C900 C899 1.398 . S
C900 C901 1.391 . S
C901 H889 0.950 . S
C901 C897 1.393 . S
C901 C900 1.391 . S
C902 H892 0.950 . S
C902 C903 1.386 . S
C902 C904 1.391 . S
C903 C902 1.386 . S
C903 C907 1.393 . S
C904 H893 0.950 . S
C904 C902 1.391 . S
C904 C905 1.400 . S
C905 C899 1.491 . S
C905 C904 1.400 . S
C905 C906 1.398 . S
C906 H894 0.950 . S
C906 C905 1.398 . S
C906 C907 1.391 . S
C907 H895 0.950 . S
C907 C903 1.393 . S
C907 C906 1.391 . S
H908 C916 0.950 . S
H909 C921 0.950 . S
H910 C918 0.950 . S
H911 C920 0.950 . S
H912 C922 0.950 . S
H913 C924 0.950 . S
H914 C926 0.950 . S
H915 C927 0.950 . S
C916 H908 0.950 . S
C916 C917 1.386 . S
C916 C918 1.391 . S
C917 C916 1.386 . S
C917 C921 1.393 . S
C918 H910 0.950 . S
C918 C916 1.391 . S
C918 C919 1.400 . S
C919 C918 1.400 . S
C919 C920 1.398 . S
C919 C925 1.491 . S
C920 H911 0.950 . S
C920 C919 1.398 . S
C920 C921 1.391 . S
C921 H909 0.950 . S
C921 C917 1.393 . S
C921 C920 1.391 . S
C922 H912 0.950 . S
C922 C923 1.386 . S
C922 C924 1.391 . S
C923 C922 1.386 . S
C923 C927 1.393 . S
C924 H913 0.950 . S
C924 C922 1.391 . S
C924 C925 1.400 . S
C925 C919 1.491 . S
C925 C924 1.400 . S
C925 C926 1.398 . S
C926 H914 0.950 . S
C926 C925 1.398 . S
C926 C927 1.391 . S
C927 H915 0.950 . S
C927 C923 1.393 . S
C927 C926 1.391 . S
H928 C936 0.950 . S
H929 C941 0.950 . S
H930 C938 0.950 . S
H931 C940 0.950 . S
H932 C942 0.950 . S
H933 C944 0.950 . S
H934 C946 0.950 . S
H935 C947 0.950 . S
C936 H928 0.950 . S
C936 C937 1.386 . S
C936 C938 1.391 . S
C937 C936 1.386 . S
C937 C941 1.393 . S
C938 H930 0.950 . S
C938 C936 1.391 . S
C938 C939 1.400 . S
C939 C938 1.400 . S
C939 C940 1.398 . S
C939 C945 1.491 . S
C940 H931 0.950 . S
C940 C939 1.398 . S
C940 C941 1.391 . S
C941 H929 0.950 . S
C941 C937 1.393 . S
C941 C940 1.391 . S
C942 H932 0.950 . S
C942 C943 1.386 . S
C942 C944 1.391 . S
C943 C942 1.386 . S
C943 C947 1.393 . S
C944 H933 0.950 . S
C944 C942 1.391 . S
C944 C945 1.400 . S
C945 C939 1.491 . S
C945 C944 1.400 . S
C945 C946 1.398 . S
C946 H934 0.950 . S
C946 C945 1.398 . S
C946 C947 1.391 . S
C947 H935 0.950 . S
C947 C943 1.393 . S
C947 C946 1.391 . S
H948 C956 0.950 . S
H949 C961 0.950 . S
H950 C958 0.950 . S
H951 C960 0.950 . S
H952 C962 0.950 . S
H953 C964 0.950 . S
H954 C966 0.950 . S
H955 C967 0.950 . S
C956 H948 0.950 . S
C956 C957 1.386 . S
C956 C958 1.391 . S
C957 C956 1.386 . S
C957 C961 1.393 . S
C958 H950 0.950 . S
C958 C956 1.391 . S
C958 C959 1.400 . S
C959 C958 1.400 . S
C959 C960 1.398 . S
C959 C965 1.491 . S
C960 H951 0.950 . S
C960 C959 1.398 . S
C960 C961 1.391 . S
C961 H949 0.950 . S
C961 C957 1.393 . S
C961 C960 1.391 . S
C962 H952 0.950 . S
C962 C963 1.386 . S
C962 C964 1.391 . S
C963 C962 1.386 . S
C963 C967 1.393 . S
C964 H953 0.950 . S
C964 C962 1.391 . S
C964 C965 1.400 . S
C965 C959 1.491 . S
C965 C964 1.400 . S
C965 C966 1.398 . S
C966 H954 0.950 . S
C966 C965 1.398 . S
C966 C967 1.391 . S
C967 H955 0.950 . S
C967 C963 1.393 . S
C967 C966 1.391 . S
H968 C976 0.950 . S
H969 C981 0.950 . S
H970 C978 0.950 . S
H971 C980 0.950 . S
H972 C982 0.950 . S
H973 C984 0.950 . S
H974 C986 0.950 . S
H975 C987 0.950 . S
C976 H968 0.950 . S
C976 C977 1.386 . S
C976 C978 1.391 . S
C977 C976 1.386 . S
C977 C981 1.393 . S
C978 H970 0.950 . S
C978 C976 1.391 . S
C978 C979 1.400 . S
C979 C978 1.400 . S
C979 C980 1.398 . S
C979 C985 1.491 . S
C980 H971 0.950 . S
C980 C979 1.398 . S
C980 C981 1.391 . S
C981 H969 0.950 . S
C981 C977 1.393 . S
C981 C980 1.391 . S
C982 H972 0.950 . S
C982 C983 1.386 . S
C982 C984 1.391 . S
C983 C982 1.386 . S
C983 C987 1.393 . S
C984 H973 0.950 . S
C984 C982 1.391 . S
C984 C985 1.400 . S
C985 C979 1.491 . S
C985 C984 1.400 . S
C985 C986 1.398 . S
C986 H974 0.950 . S
C986 C985 1.398 . S
C986 C987 1.391 . S
C987 H975 0.950 . S
C987 C983 1.393 . S
C987 C986 1.391 . S
H988 C996 0.950 . S
H989 C1001 0.950 . S
H990 C998 0.950 . S
H991 C1000 0.950 . S
H992 C1002 0.950 . S
H993 C1004 0.950 . S
H994 C1006 0.950 . S
H995 C1007 0.950 . S
C996 H988 0.950 . S
C996 C997 1.386 . S
C996 C998 1.391 . S
C997 C996 1.386 . S
C997 C1001 1.393 . S
C998 H990 0.950 . S
C998 C996 1.391 . S
C998 C999 1.400 . S
C999 C998 1.400 . S
C999 C1000 1.398 . S
C999 C1005 1.491 . S
C1000 H991 0.950 . S
C1000 C999 1.398 . S
C1000 C1001 1.391 . S
C1001 H989 0.950 . S
C1001 C997 1.393 . S
C1001 C1000 1.391 . S
C1002 H992 0.950 . S
C1002 C1003 1.386 . S
C1002 C1004 1.391 . S
C1003 C1002 1.386 . S
C1003 C1007 1.393 . S
C1004 H993 0.950 . S
C1004 C1002 1.391 . S
C1004 C1005 1.400 . S
C1005 C999 1.491 . S
C1005 C1004 1.400 . S
C1005 C1006 1.398 . S
C1006 H994 0.950 . S
C1006 C1005 1.398 . S
C1006 C1007 1.391 . S
C1007 H995 0.950 . S
C1007 C1003 1.393 . S
C1007 C1006 1.391 . S
H1008 C1016 0.950 . S
H1009 C1021 0.950 . S
H1010 C1018 0.950 . S
H1011 C1020 0.950 . S
H1012 C1022 0.950 . S
H1013 C1024 0.950 . S
H1014 C1026 0.950 . S
H1015 C1027 0.950 . S
C1016 H1008 0.950 . S
C1016 C1017 1.386 . S
C1016 C1018 1.391 . S
C1017 C1016 1.386 . S
C1017 C1021 1.393 . S
C1018 H1010 0.950 . S
C1018 C1016 1.391 . S
C1018 C1019 1.400 . S
C1019 C1018 1.400 . S
C1019 C1020 1.398 . S
C1019 C1025 1.491 . S
C1020 H1011 0.950 . S
C1020 C1019 1.398 . S
C1020 C1021 1.391 . S
C1021 H1009 0.950 . S
C1021 C1017 1.393 . S
C1021 C1020 1.391 . S
C1022 H1012 0.950 . S
C1022 C1023 1.386 . S
C1022 C1024 1.391 . S
C1023 C1022 1.386 . S
C1023 C1027 1.393 . S
C1024 H1013 0.950 . S
C1024 C1022 1.391 . S
C1024 C1025 1.400 . S
C1025 C1019 1.491 . S
C1025 C1024 1.400 . S
C1025 C1026 1.398 . S
C1026 H1014 0.950 . S
C1026 C1025 1.398 . S
C1026 C1027 1.391 . S
C1027 H1015 0.950 . S
C1027 C1023 1.393 . S
C1027 C1026 1.391 . S
H1028 C1036 0.950 . S
H1029 C1041 0.950 . S
H1030 C1038 0.950 . S
H1031 C1040 0.950 . S
H1032 C1042 0.950 . S
H1033 C1044 0.950 . S
H1034 C1046 0.950 . S
H1035 C1047 0.950 . S
C1036 H1028 0.950 . S
C1036 C1037 1.386 . S
C1036 C1038 1.391 . S
C1037 C1036 1.386 . S
C1037 C1041 1.393 . S
C1038 H1030 0.950 . S
C1038 C1036 1.391 . S
C1038 C1039 1.400 . S
C1039 C1038 1.400 . S
C1039 C1040 1.398 . S
C1039 C1045 1.491 . S
C1040 H1031 0.950 . S
C1040 C1039 1.398 . S
C1040 C1041 1.391 . S
C1041 H1029 0.950 . S
C1041 C1037 1.393 . S
C1041 C1040 1.391 . S
C1042 H1032 0.950 . S
C1042 C1043 1.386 . S
C1042 C1044 1.391 . S
C1043 C1042 1.386 . S
C1043 C1047 1.393 . S
C1044 H1033 0.950 . S
C1044 C1042 1.391 . S
C1044 C1045 1.400 . S
C1045 C1039 1.491 . S
C1045 C1044 1.400 . S
C1045 C1046 1.398 . S
C1046 H1034 0.950 . S
C1046 C1045 1.398 . S
C1046 C1047 1.391 . S
C1047 H1035 0.950 . S
C1047 C1043 1.393 . S
C1047 C1046 1.391 . S
H1048 C1056 0.950 . S
H1049 C1061 0.950 . S
H1050 C1058 0.950 . S
H1051 C1060 0.950 . S
H1052 C1062 0.950 . S
H1053 C1064 0.950 . S
H1054 C1066 0.950 . S
H1055 C1067 0.950 . S
C1056 H1048 0.950 . S
C1056 C1057 1.386 . S
C1056 C1058 1.391 . S
C1057 C1056 1.386 . S
C1057 C1061 1.393 . S
C1058 H1050 0.950 . S
C1058 C1056 1.391 . S
C1058 C1059 1.400 . S
C1059 C1058 1.400 . S
C1059 C1060 1.398 . S
C1059 C1065 1.491 . S
C1060 H1051 0.950 . S
C1060 C1059 1.398 . S
C1060 C1061 1.391 . S
C1061 H1049 0.950 . S
C1061 C1057 1.393 . S
C1061 C1060 1.391 . S
C1062 H1052 0.950 . S
C1062 C1063 1.386 . S
C1062 C1064 1.391 . S
C1063 C1062 1.386 . S
C1063 C1067 1.393 . S
C1064 H1053 0.950 . S
C1064 C1062 1.391 . S
C1064 C1065 1.400 . S
C1065 C1059 1.491 . S
C1065 C1064 1.400 . S
C1065 C1066 1.398 . S
C1066 H1054 0.950 . S
C1066 C1065 1.398 . S
C1066 C1067 1.391 . S
C1067 H1055 0.950 . S
C1067 C1063 1.393 . S
C1067 C1066 1.391 . S
H1068 C1076 0.950 . S
H1069 C1081 0.950 . S
H1070 C1078 0.950 . S
H1071 C1080 0.950 . S
H1072 C1082 0.950 . S
H1073 C1084 0.950 . S
H1074 C1086 0.950 . S
H1075 C1087 0.950 . S
C1076 H1068 0.950 . S
C1076 C1077 1.386 . S
C1076 C1078 1.391 . S
C1077 C1076 1.386 . S
C1077 C1081 1.393 . S
C1078 H1070 0.950 . S
C1078 C1076 1.391 . S
C1078 C1079 1.400 . S
C1079 C1078 1.400 . S
C1079 C1080 1.398 . S
C1079 C1085 1.491 . S
C1080 H1071 0.950 . S
C1080 C1079 1.398 . S
C1080 C1081 1.391 . S
C1081 H1069 0.950 . S
C1081 C1077 1.393 . S
C1081 C1080 1.391 . S
C1082 H1072 0.950 . S
C1082 C1083 1.386 . S
C1082 C1084 1.391 . S
C1083 C1082 1.386 . S
C1083 C1087 1.393 . S
C1084 H1073 0.950 . S
C1084 C1082 1.391 . S
C1084 C1085 1.400 . S
C1085 C1079 1.491 . S
C1085 C1084 1.400 . S
C1085 C1086 1.398 . S
C1086 H1074 0.950 . S
C1086 C1085 1.398 . S
C1086 C1087 1.391 . S
C1087 H1075 0.950 . S
C1087 C1083 1.393 . S
C1087 C1086 1.391 . S
H1088 C1096 0.950 . S
H1089 C1101 0.950 . S
H1090 C1098 0.950 . S
H1091 C1100 0.950 . S
H1092 C1102 0.950 . S
H1093 C1104 0.950 . S
H1094 C1106 0.950 . S
H1095 C1107 0.950 . S
C1096 H1088 0.950 . S
C1096 C1097 1.386 . S
C1096 C1098 1.391 . S
C1097 C1096 1.386 . S
C1097 C1101 1.393 . S
C1098 H1090 0.950 . S
C1098 C1096 1.391 . S
C1098 C1099 1.400 . S
C1099 C1098 1.400 . S
C1099 C1100 1.398 . S
C1099 C1105 1.491 . S
C1100 H1091 0.950 . S
C1100 C1099 1.398 . S
C1100 C1101 1.391 . S
C1101 H1089 0.950 . S
C1101 C1097 1.393 . S
C1101 C1100 1.391 . S
C1102 H1092 0.950 . S
C1102 C1103 1.386 . S
C1102 C1104 1.391 . S
C1103 C1102 1.386 . S
C1103 C1107 1.393 . S
C1104 H1093 0.950 . S
C1104 C1102 1.391 . S
C1104 C1105 1.400 . S
C1105 C1099 1.491 . S
C1105 C1104 1.400 . S
C1105 C1106 1.398 . S
C1106 H1094 0.950 . S
C1106 C1105 1.398 . S
C1106 C1107 1.391 . S
C1107 H1095 0.950 . S
C1107 C1103 1.393 . S
C1107 C1106 1.391 . S
H1108 C1116 0.950 . S
H1109 C1121 0.950 . S
H1110 C1118 0.950 . S
H1111 C1120 0.950 . S
H1112 C1122 0.950 . S
H1113 C1124 0.950 . S
H1114 C1126 0.950 . S
H1115 C1127 0.950 . S
C1116 H1108 0.950 . S
C1116 C1117 1.386 . S
C1116 C1118 1.391 . S
C1117 C1116 1.386 . S
C1117 C1121 1.393 . S
C1118 H1110 0.950 . S
C1118 C1116 1.391 . S
C1118 C1119 1.400 . S
C1119 C1118 1.400 . S
C1119 C1120 1.398 . S
C1119 C1125 1.491 . S
C1120 H1111 0.950 . S
C1120 C1119 1.398 . S
C1120 C1121 1.391 . S
C1121 H1109 0.950 . S
C1121 C1117 1.393 . S
C1121 C1120 1.391 . S
C1122 H1112 0.950 . S
C1122 C1123 1.386 . S
C1122 C1124 1.391 . S
C1123 C1122 1.386 . S
C1123 C1127 1.393 . S
C1124 H1113 0.950 . S
C1124 C1122 1.391 . S
C1124 C1125 1.400 . S
C1125 C1119 1.491 . S
C1125 C1124 1.400 . S
C1125 C1126 1.398 . S
C1126 H1114 0.950 . S
C1126 C1125 1.398 . S
C1126 C1127 1.391 . S
C1127 H1115 0.950 . S
C1127 C1123 1.393 . S
C1127 C1126 1.391 . S
H1128 C1136 0.950 . S
H1129 C1141 0.950 . S
H1130 C1138 0.950 . S
H1131 C1140 0.950 . S
H1132 C1142 0.950 . S
H1133 C1144 0.950 . S
H1134 C1146 0.950 . S
H1135 C1147 0.950 . S
C1136 H1128 0.950 . S
C1136 C1137 1.386 . S
C1136 C1138 1.391 . S
C1137 C1136 1.386 . S
C1137 C1141 1.393 . S
C1138 H1130 0.950 . S
C1138 C1136 1.391 . S
C1138 C1139 1.400 . S
C1139 C1138 1.400 . S
C1139 C1140 1.398 . S
C1139 C1145 1.491 . S
C1140 H1131 0.950 . S
C1140 C1139 1.398 . S
C1140 C1141 1.391 . S
C1141 H1129 0.950 . S
C1141 C1137 1.393 . S
C1141 C1140 1.391 . S
C1142 H1132 0.950 . S
C1142 C1143 1.386 . S
C1142 C1144 1.391 . S
C1143 C1142 1.386 . S
C1143 C1147 1.393 . S
C1144 H1133 0.950 . S
C1144 C1142 1.391 . S
C1144 C1145 1.400 . S
C1145 C1139 1.491 . S
C1145 C1144 1.400 . S
C1145 C1146 1.398 . S
C1146 H1134 0.950 . S
C1146 C1145 1.398 . S
C1146 C1147 1.391 . S
C1147 H1135 0.950 . S
C1147 C1143 1.393 . S
C1147 C1146 1.391 . S
H1148 C1156 0.950 . S
H1149 C1161 0.950 . S
H1150 C1158 0.950 . S
H1151 C1160 0.950 . S
H1152 C1162 0.950 . S
H1153 C1164 0.950 . S
H1154 C1166 0.950 . S
H1155 C1167 0.950 . S
C1156 H1148 0.950 . S
C1156 C1157 1.386 . S
C1156 C1158 1.391 . S
C1157 C1156 1.386 . S
C1157 C1161 1.393 . S
C1158 H1150 0.950 . S
C1158 C1156 1.391 . S
C1158 C1159 1.400 . S
C1159 C1158 1.400 . S
C1159 C1160 1.398 . S
C1159 C1165 1.491 . S
C1160 H1151 0.950 . S
C1160 C1159 1.398 . S
C1160 C1161 1.391 . S
C1161 H1149 0.950 . S
C1161 C1157 1.393 . S
C1161 C1160 1.391 . S
C1162 H1152 0.950 . S
C1162 C1163 1.386 . S
C1162 C1164 1.391 . S
C1163 C1162 1.386 . S
C1163 C1167 1.393 . S
C1164 H1153 0.950 . S
C1164 C1162 1.391 . S
C1164 C1165 1.400 . S
C1165 C1159 1.491 . S
C1165 C1164 1.400 . S
C1165 C1166 1.398 . S
C1166 H1154 0.950 . S
C1166 C1165 1.398 . S
C1166 C1167 1.391 . S
C1167 H1155 0.950 . S
C1167 C1163 1.393 . S
C1167 C1166 1.391 . S
H1168 C1176 0.950 . S
H1169 C1181 0.950 . S
H1170 C1178 0.950 . S
H1171 C1180 0.950 . S
H1172 C1182 0.950 . S
H1173 C1184 0.950 . S
H1174 C1186 0.950 . S
H1175 C1187 0.950 . S
C1176 H1168 0.950 . S
C1176 C1177 1.386 . S
C1176 C1178 1.391 . S
C1177 C1176 1.386 . S
C1177 C1181 1.393 . S
C1178 H1170 0.950 . S
C1178 C1176 1.391 . S
C1178 C1179 1.400 . S
C1179 C1178 1.400 . S
C1179 C1180 1.398 . S
C1179 C1185 1.491 . S
C1180 H1171 0.950 . S
C1180 C1179 1.398 . S
C1180 C1181 1.391 . S
C1181 H1169 0.950 . S
C1181 C1177 1.393 . S
C1181 C1180 1.391 . S
C1182 H1172 0.950 . S
C1182 C1183 1.386 . S
C1182 C1184 1.391 . S
C1183 C1182 1.386 . S
C1183 C1187 1.393 . S
C1184 H1173 0.950 . S
C1184 C1182 1.391 . S
C1184 C1185 1.400 . S
C1185 C1179 1.491 . S
C1185 C1184 1.400 . S
C1185 C1186 1.398 . S
C1186 H1174 0.950 . S
C1186 C1185 1.398 . S
C1186 C1187 1.391 . S
C1187 H1175 0.950 . S
C1187 C1183 1.393 . S
C1187 C1186 1.391 . S
H1188 C1196 0.950 . S
H1189 C1201 0.950 . S
H1190 C1198 0.950 . S
H1191 C1200 0.950 . S
H1192 C1202 0.950 . S
H1193 C1204 0.950 . S
H1194 C1206 0.950 . S
H1195 C1207 0.950 . S
C1196 H1188 0.950 . S
C1196 C1197 1.386 . S
C1196 C1198 1.391 . S
C1197 C1196 1.386 . S
C1197 C1201 1.393 . S
C1198 H1190 0.950 . S
C1198 C1196 1.391 . S
C1198 C1199 1.400 . S
C1199 C1198 1.400 . S
C1199 C1200 1.398 . S
C1199 C1205 1.491 . S
C1200 H1191 0.950 . S
C1200 C1199 1.398 . S
C1200 C1201 1.391 . S
C1201 H1189 0.950 . S
C1201 C1197 1.393 . S
C1201 C1200 1.391 . S
C1202 H1192 0.950 . S
C1202 C1203 1.386 . S
C1202 C1204 1.391 . S
C1203 C1202 1.386 . S
C1203 C1207 1.393 . S
C1204 H1193 0.950 . S
C1204 C1202 1.391 . S
C1204 C1205 1.400 . S
C1205 C1199 1.491 . S
C1205 C1204 1.400 . S
C1205 C1206 1.398 . S
C1206 H1194 0.950 . S
C1206 C1205 1.398 . S
C1206 C1207 1.391 . S
C1207 H1195 0.950 . S
C1207 C1203 1.393 . S
C1207 C1206 1.391 . S
H1208 C1216 0.950 . S
H1209 C1221 0.950 . S
H1210 C1218 0.950 . S
H1211 C1220 0.950 . S
H1212 C1222 0.950 . S
H1213 C1224 0.950 . S
H1214 C1226 0.950 . S
H1215 C1227 0.950 . S
C1216 H1208 0.950 . S
C1216 C1217 1.386 . S
C1216 C1218 1.391 . S
C1217 C1216 1.386 . S
C1217 C1221 1.393 . S
C1218 H1210 0.950 . S
C1218 C1216 1.391 . S
C1218 C1219 1.400 . S
C1219 C1218 1.400 . S
C1219 C1220 1.398 . S
C1219 C1225 1.491 . S
C1220 H1211 0.950 . S
C1220 C1219 1.398 . S
C1220 C1221 1.391 . S
C1221 H1209 0.950 . S
C1221 C1217 1.393 . S
C1221 C1220 1.391 . S
C1222 H1212 0.950 . S
C1222 C1223 1.386 . S
C1222 C1224 1.391 . S
C1223 C1222 1.386 . S
C1223 C1227 1.393 . S
C1224 H1213 0.950 . S
C1224 C1222 1.391 . S
C1224 C1225 1.400 . S
C1225 C1219 1.491 . S
C1225 C1224 1.400 . S
C1225 C1226 1.398 . S
C1226 H1214 0.950 . S
C1226 C1225 1.398 . S
C1226 C1227 1.391 . S
C1227 H1215 0.950 . S
C1227 C1223 1.393 . S
C1227 C1226 1.391 . S
H1228 C1236 0.950 . S
H1229 C1241 0.950 . S
H1230 C1238 0.950 . S
H1231 C1240 0.950 . S
H1232 C1242 0.950 . S
H1233 C1244 0.950 . S
H1234 C1246 0.950 . S
H1235 C1247 0.950 . S
C1236 H1228 0.950 . S
C1236 C1237 1.386 . S
C1236 C1238 1.391 . S
C1237 C1236 1.386 . S
C1237 C1241 1.393 . S
C1238 H1230 0.950 . S
C1238 C1236 1.391 . S
C1238 C1239 1.400 . S
C1239 C1238 1.400 . S
C1239 C1240 1.398 . S
C1239 C1245 1.491 . S
C1240 H1231 0.950 . S
C1240 C1239 1.398 . S
C1240 C1241 1.391 . S
C1241 H1229 0.950 . S
C1241 C1237 1.393 . S
C1241 C1240 1.391 . S
C1242 H1232 0.950 . S
C1242 C1243 1.386 . S
C1242 C1244 1.391 . S
C1243 C1242 1.386 . S
C1243 C1247 1.393 . S
C1244 H1233 0.950 . S
C1244 C1242 1.391 . S
C1244 C1245 1.400 . S
C1245 C1239 1.491 . S
C1245 C1244 1.400 . S
C1245 C1246 1.398 . S
C1246 H1234 0.950 . S
C1246 C1245 1.398 . S
C1246 C1247 1.391 . S
C1247 H1235 0.950 . S
C1247 C1243 1.393 . S
C1247 C1246 1.391 . S
C623 C213 1.514 . S
C617 C16 1.516 . S
C643 C266 1.338 . S
C637 C30 1.341 . S
C663 C329 1.600 . S
C657 C53 1.598 . S
C683 C372 1.327 . S
C677 C76 1.331 . S
C697 N104 1.468 . S
C703 C328 1.512 . S
C723 C365 1.323 . S
C717 N127 1.277 . S
C743 C206 1.426 . S
C737 N140 1.401 . S
C763 C259 1.186 . S
C757 N173 1.150 . S
C783 C312 1.515 . S
C777 C168 1.516 . S
C803 C381 1.868 . S
C797 C99 1.869 . S
C823 C222 1.600 . S
C817 C122 1.599 . S
C843 C275 1.745 . S
C837 C154 1.736 . S
C863 C223 1.515 . S
C857 N35 1.486 . S
C883 C276 1.738 . S
C877 N58 1.683 . S
C903 C319 1.441 . S
C897 N81 1.418 . S
C923 C382 1.697 . S
C917 N2 1.658 . S
C943 C425 1.472 . S
C937 C177 1.470 . S
C957 C108 1.729 . S
C963 C478 1.724 . S
C977 C131 1.623 . S
C983 C540 1.631 . S
C997 C145 1.734 . S
C1003 C594 1.730 . S
C1017 N25 1.430 . S
C1023 C541 1.479 . S
C1037 N48 1.689 . S
C1043 C593 1.724 . S
C1057 N71 1.438 . S
C1063 C418 1.464 . S
C1083 C471 1.574 . S
C1077 N12 1.539 . S
C1103 C531 1.482 . S
C1097 C7 1.484 . S
C1117 C39 1.384 . S
C1123 C577 1.390 . S
C1137 C62 1.621 . S
C1143 C434 1.630 . S
C1157 C85 1.339 . S
C1163 C487 1.342 . S
C1183 C435 1.478 . S
C1177 N94 1.448 . S
C1203 C488 1.367 . S
C1197 N117 1.328 . S
C1217 N150 1.427 . S
C1223 C524 1.466 . S
C1243 C584 1.247 . S
C1237 N163 1.224 . S
