# Generated by pormake.
# Topology myd, (4,6)-cn, num edge types: 1
# Building blocks:
#     Node 0, Type 0, BuildingBlock: KOZSID_clean_sbu_0, # of connection points: 4
#     Node 1, Type 0, BuildingBlock: KOZSID_clean_sbu_0, # of connection points: 4
#     Node 2, Type 0, BuildingBlock: KOZSID_clean_sbu_0, # of connection points: 4
#     Node 3, Type 0, BuildingBlock: KOZSID_clean_sbu_0, # of connection points: 4
#     Node 4, Type 0, BuildingBlock: KOZSID_clean_sbu_0, # of connection points: 4
#     Node 5, Type 0, BuildingBlock: KOZSID_clean_sbu_0, # of connection points: 4
#     Node 6, Type 0, BuildingBlock: KOZSID_clean_sbu_0, # of connection points: 4
#     Node 7, Type 0, BuildingBlock: KOZSID_clean_sbu_0, # of connection points: 4
#     Node 8, Type 0, BuildingBlock: KOZSID_clean_sbu_0, # of connection points: 4
#     Node 9, Type 0, BuildingBlock: KOZSID_clean_sbu_0, # of connection points: 4
#     Node 10, Type 0, BuildingBlock: KOZSID_clean_sbu_0, # of connection points: 4
#     Node 11, Type 0, BuildingBlock: KOZSID_clean_sbu_0, # of connection points: 4
#     Node 12, Type 1, BuildingBlock: MIDCAF_clean_sbu_0, # of connection points: 6
#     Node 13, Type 1, BuildingBlock: MIDCAF_clean_sbu_0, # of connection points: 6
#     Node 14, Type 1, BuildingBlock: MIDCAF_clean_sbu_0, # of connection points: 6
#     Node 15, Type 1, BuildingBlock: MIDCAF_clean_sbu_0, # of connection points: 6
#     Node 16, Type 1, BuildingBlock: MIDCAF_clean_sbu_0, # of connection points: 6
#     Node 17, Type 1, BuildingBlock: MIDCAF_clean_sbu_0, # of connection points: 6
#     Node 18, Type 1, BuildingBlock: MIDCAF_clean_sbu_0, # of connection points: 6
#     Node 19, Type 1, BuildingBlock: MIDCAF_clean_sbu_0, # of connection points: 6
#     Edge 20, Type (0, 1), BuildingBlock: XIVTED_clean_linker_0, # of connection points: 2
#     Edge 21, Type (0, 1), BuildingBlock: XIVTED_clean_linker_0, # of connection points: 2
#     Edge 22, Type (0, 1), BuildingBlock: XIVTED_clean_linker_0, # of connection points: 2
#     Edge 23, Type (0, 1), BuildingBlock: XIVTED_clean_linker_0, # of connection points: 2
#     Edge 24, Type (0, 1), BuildingBlock: XIVTED_clean_linker_0, # of connection points: 2
#     Edge 25, Type (0, 1), BuildingBlock: XIVTED_clean_linker_0, # of connection points: 2
#     Edge 26, Type (0, 1), BuildingBlock: XIVTED_clean_linker_0, # of connection points: 2
#     Edge 27, Type (0, 1), BuildingBlock: XIVTED_clean_linker_0, # of connection points: 2
#     Edge 28, Type (0, 1), BuildingBlock: XIVTED_clean_linker_0, # of connection points: 2
#     Edge 29, Type (0, 1), BuildingBlock: XIVTED_clean_linker_0, # of connection points: 2
#     Edge 30, Type (0, 1), BuildingBlock: XIVTED_clean_linker_0, # of connection points: 2
#     Edge 31, Type (0, 1), BuildingBlock: XIVTED_clean_linker_0, # of connection points: 2
#     Edge 32, Type (0, 1), BuildingBlock: XIVTED_clean_linker_0, # of connection points: 2
#     Edge 33, Type (0, 1), BuildingBlock: XIVTED_clean_linker_0, # of connection points: 2
#     Edge 34, Type (0, 1), BuildingBlock: XIVTED_clean_linker_0, # of connection points: 2
#     Edge 35, Type (0, 1), BuildingBlock: XIVTED_clean_linker_0, # of connection points: 2
#     Edge 36, Type (0, 1), BuildingBlock: XIVTED_clean_linker_0, # of connection points: 2
#     Edge 37, Type (0, 1), BuildingBlock: XIVTED_clean_linker_0, # of connection points: 2
#     Edge 38, Type (0, 1), BuildingBlock: XIVTED_clean_linker_0, # of connection points: 2
#     Edge 39, Type (0, 1), BuildingBlock: XIVTED_clean_linker_0, # of connection points: 2
#     Edge 40, Type (0, 1), BuildingBlock: XIVTED_clean_linker_0, # of connection points: 2
#     Edge 41, Type (0, 1), BuildingBlock: XIVTED_clean_linker_0, # of connection points: 2
#     Edge 42, Type (0, 1), BuildingBlock: XIVTED_clean_linker_0, # of connection points: 2
#     Edge 43, Type (0, 1), BuildingBlock: XIVTED_clean_linker_0, # of connection points: 2
#     Edge 44, Type (0, 1), BuildingBlock: XIVTED_clean_linker_0, # of connection points: 2
#     Edge 45, Type (0, 1), BuildingBlock: XIVTED_clean_linker_0, # of connection points: 2
#     Edge 46, Type (0, 1), BuildingBlock: XIVTED_clean_linker_0, # of connection points: 2
#     Edge 47, Type (0, 1), BuildingBlock: XIVTED_clean_linker_0, # of connection points: 2
#     Edge 48, Type (0, 1), BuildingBlock: XIVTED_clean_linker_0, # of connection points: 2
#     Edge 49, Type (0, 1), BuildingBlock: XIVTED_clean_linker_0, # of connection points: 2
#     Edge 50, Type (0, 1), BuildingBlock: XIVTED_clean_linker_0, # of connection points: 2
#     Edge 51, Type (0, 1), BuildingBlock: XIVTED_clean_linker_0, # of connection points: 2
#     Edge 52, Type (0, 1), BuildingBlock: XIVTED_clean_linker_0, # of connection points: 2
#     Edge 53, Type (0, 1), BuildingBlock: XIVTED_clean_linker_0, # of connection points: 2
#     Edge 54, Type (0, 1), BuildingBlock: XIVTED_clean_linker_0, # of connection points: 2
#     Edge 55, Type (0, 1), BuildingBlock: XIVTED_clean_linker_0, # of connection points: 2
#     Edge 56, Type (0, 1), BuildingBlock: XIVTED_clean_linker_0, # of connection points: 2
#     Edge 57, Type (0, 1), BuildingBlock: XIVTED_clean_linker_0, # of connection points: 2
#     Edge 58, Type (0, 1), BuildingBlock: XIVTED_clean_linker_0, # of connection points: 2
#     Edge 59, Type (0, 1), BuildingBlock: XIVTED_clean_linker_0, # of connection points: 2
#     Edge 60, Type (0, 1), BuildingBlock: XIVTED_clean_linker_0, # of connection points: 2
#     Edge 61, Type (0, 1), BuildingBlock: XIVTED_clean_linker_0, # of connection points: 2
#     Edge 62, Type (0, 1), BuildingBlock: XIVTED_clean_linker_0, # of connection points: 2
#     Edge 63, Type (0, 1), BuildingBlock: XIVTED_clean_linker_0, # of connection points: 2
#     Edge 64, Type (0, 1), BuildingBlock: XIVTED_clean_linker_0, # of connection points: 2
#     Edge 65, Type (0, 1), BuildingBlock: XIVTED_clean_linker_0, # of connection points: 2
#     Edge 66, Type (0, 1), BuildingBlock: XIVTED_clean_linker_0, # of connection points: 2
#     Edge 67, Type (0, 1), BuildingBlock: XIVTED_clean_linker_0, # of connection points: 2
# Relax obj value: 0.146
# Max RMSD: 0.124
# Mean RMSD: 0.101
data_MOF--net-myd--node1-KOZSID_clean_sbu_0--node2-MIDCAF_clean_sbu_0--edge1-XIVTED_clean_linker_0
_symmetry_space_group_name_H-M    P1
_symmetry_Int_Tables_number       1
_symmetry_cell_setting            triclinic
loop_
_symmetry_equiv_pos_as_xyz
'x, y, z'
_cell_length_a     50.435741
_cell_length_b     50.443651
_cell_length_c     50.321516
_cell_angle_alpha  91.70141
_cell_angle_beta   90.551325
_cell_angle_gamma 92.281235
loop_
_atom_site_label
_atom_site_type_symbol
_atom_site_fract_x
_atom_site_fract_y
_atom_site_fract_z
_atom_type_partial_charge
C0 C 0.97774 0.29528 0.31883 0.0
C1 C 0.95248 0.30177 0.32685 0.0
C2 C 0.9351 0.28453 0.31366 0.0
C3 C 0.95066 0.26855 0.29845 0.0
N4 N 0.97698 0.27412 0.30149 0.0
Co5 Co 0.00645 0.25686 0.28184 0.0
N6 N 0.98064 0.23429 0.25953 0.0
C7 C 0.95399 0.23243 0.26229 0.0
C8 C 0.94136 0.21593 0.24369 0.0
C9 C 0.96107 0.20684 0.22794 0.0
C10 C 0.98475 0.21826 0.23798 0.0
N11 N 0.03586 0.24052 0.26131 0.0
C12 C 0.03477 0.22456 0.23908 0.0
C13 C 0.05998 0.21893 0.23024 0.0
C14 C 0.07759 0.23222 0.24715 0.0
C15 C 0.06223 0.24515 0.26531 0.0
N16 N 0.03214 0.27906 0.30469 0.0
C17 C 0.0589 0.2779 0.30487 0.0
C18 C 0.07127 0.29619 0.322 0.0
C19 C 0.05128 0.31004 0.3332 0.0
C20 C 0.02771 0.29935 0.32227 0.0
N21 N 0.00742 0.22781 0.30811 0.0
C22 C 0.00923 0.182 0.33925 0.0
C23 C 0.0324 0.19465 0.33033 0.0
C24 C 0.03106 0.21735 0.31525 0.0
C25 C 0.98512 0.19351 0.33354 0.0
C26 C 0.98468 0.21623 0.31811 0.0
N27 N 0.00593 0.28504 0.25533 0.0
C28 C 0.03045 0.31475 0.2269 0.0
C29 C 0.00798 0.31782 0.2111 0.0
C30 C 0.98398 0.30565 0.21892 0.0
C31 C 0.98333 0.28969 0.24121 0.0
C32 C 0.02899 0.29847 0.24877 0.0
H33 H 0.96458 0.28062 0.24628 0.0
H34 H 0.04705 0.29625 0.25948 0.0
H35 H 0.04959 0.22573 0.30939 0.0
H36 H 0.96565 0.22371 0.31426 0.0
C37 C 0.94115 0.24897 0.28027 0.0
C38 C 1.00175 0.31006 0.32799 0.0
C39 C 0.01044 0.21446 0.22559 0.0
C40 C 0.07184 0.26234 0.28589 0.0
H41 H 0.94714 0.31759 0.34053 0.0
H42 H 0.91365 0.28411 0.31455 0.0
H43 H 0.92022 0.21197 0.24112 0.0
H44 H 0.95811 0.19393 0.21053 0.0
H45 H 0.06508 0.20669 0.21316 0.0
H46 H 0.09902 0.23278 0.24604 0.0
H47 H 0.09239 0.29996 0.32493 0.0
H48 H 0.05386 0.32672 0.34713 0.0
H49 H 0.05166 0.1871 0.33499 0.0
H50 H 0.96657 0.18463 0.34028 0.0
H51 H 0.04945 0.32387 0.22177 0.0
H52 H 0.96586 0.30811 0.20768 0.0
C53 C 0.97337 0.71903 0.17176 0.0
C54 C 0.95014 0.71118 0.15815 0.0
C55 C 0.93146 0.72899 0.1654 0.0
C56 C 0.94428 0.74668 0.18289 0.0
N57 N 0.96979 0.74102 0.18708 0.0
Co58 Co 0.9955 0.7615 0.21024 0.0
N59 N 0.96657 0.77781 0.23046 0.0
C60 C 0.94125 0.77949 0.22217 0.0
C61 C 0.9256 0.79137 0.24084 0.0
C62 C 0.94219 0.7977 0.26204 0.0
C63 C 0.96721 0.78949 0.25498 0.0
N64 N 0.0211 0.78206 0.23343 0.0
C65 C 0.01729 0.79365 0.25763 0.0
C66 C 0.04056 0.80641 0.26702 0.0
C67 C 0.05943 0.80255 0.24787 0.0
C68 C 0.04669 0.78775 0.22785 0.0
N69 N 0.02418 0.74514 0.18965 0.0
C70 C 0.04946 0.75455 0.1884 0.0
C71 C 0.06484 0.73855 0.17283 0.0
C72 C 0.04806 0.718 0.16372 0.0
C73 C 0.02327 0.72267 0.17418 0.0
N74 N 0.99578 0.79106 0.18576 0.0
C75 C 0.00718 0.83444 0.15343 0.0
C76 C 0.00609 0.80833 0.14276 0.0
C77 C 1.00009 0.78697 0.15919 0.0
C78 C 1.00043 0.83826 0.18018 0.0
C79 C 0.99494 0.81647 0.19592 0.0
N80 N 0.99616 0.73256 0.2352 0.0
C81 C 0.02212 0.70789 0.26548 0.0
C82 C 0.99915 0.69894 0.27825 0.0
C83 C 0.97445 0.70582 0.26797 0.0
C84 C 0.97338 0.72239 0.24614 0.0
C85 C 0.02021 0.7247 0.24418 0.0
H86 H 0.95425 0.72796 0.23887 0.0
H87 H 0.03843 0.73248 0.23599 0.0
H88 H 1.00023 0.76709 0.15067 0.0
H89 H 0.99125 0.82027 0.21671 0.0
C90 C 0.93206 0.76537 0.1993 0.0
C91 C 0.99888 0.70644 0.16827 0.0
C92 C 0.99148 0.7946 0.27096 0.0
C93 C 0.05878 0.77503 0.20612 0.0
H94 H 0.94705 0.69444 0.14437 0.0
H95 H 0.91075 0.7284 0.15948 0.0
H96 H 0.90443 0.79399 0.23973 0.0
H97 H 0.93642 0.80725 0.2805 0.0
H98 H 0.04352 0.81746 0.28565 0.0
H99 H 0.08017 0.80893 0.24892 0.0
H100 H 0.08597 0.74078 0.16954 0.0
H101 H 0.05352 0.70149 0.15098 0.0
H102 H 0.01098 0.8042 0.1222 0.0
H103 H 0.99999 0.85797 0.18923 0.0
H104 H 0.0416 0.70322 0.27283 0.0
H105 H 0.95617 0.69894 0.27709 0.0
C106 C 0.3243 0.96664 0.28602 0.0
C107 C 0.3354 0.94245 0.29077 0.0
C108 C 0.32817 0.92574 0.26969 0.0
C109 C 0.31318 0.94061 0.25327 0.0
N110 N 0.31053 0.96555 0.26278 0.0
Co111 Co 0.29076 0.99354 0.24551 0.0
N112 N 0.26986 0.96696 0.22343 0.0
C113 C 0.27639 0.94173 0.21818 0.0
C114 C 0.25765 0.92778 0.20287 0.0
C115 C 0.2383 0.94543 0.19804 0.0
C116 C 0.24649 0.96936 0.2105 0.0
N117 N 0.27091 0.02152 0.22836 0.0
C118 C 0.24754 0.01953 0.21484 0.0
C119 C 0.24086 0.0441 0.20564 0.0
C120 C 0.26086 0.06191 0.21377 0.0
C121 C 0.27866 0.0473 0.22736 0.0
N122 N 0.31204 0.01988 0.26749 0.0
C123 C 0.31573 0.0458 0.26245 0.0
C124 C 0.33117 0.05917 0.28154 0.0
C125 C 0.33762 0.0404 0.29953 0.0
C126 C 0.32579 0.0165 0.29034 0.0
N127 N 0.31734 0.99591 0.21728 0.0
C128 C 0.35402 0.00614 0.17658 0.0
C129 C 0.36258 0.00215 0.20283 0.0
C130 C 0.34396 0.99714 0.22286 0.0
C131 C 0.32666 0.00392 0.17129 0.0
C132 C 0.30888 0.9985 0.19163 0.0
N133 N 0.26373 0.9919 0.27308 0.0
C134 C 0.2323 0.01539 0.29961 0.0
C135 C 0.21773 0.99174 0.30378 0.0
C136 C 0.22777 0.96789 0.29384 0.0
C137 C 0.25099 0.96837 0.2788 0.0
C138 C 0.25514 0.01504 0.28423 0.0
H139 H 0.25791 0.94988 0.2707 0.0
H140 H 0.26496 0.03379 0.28013 0.0
H141 H 0.35104 0.99486 0.24295 0.0
H142 H 0.28807 0.99738 0.18659 0.0
C143 C 0.29736 0.93069 0.23193 0.0
C144 C 0.32887 0.99072 0.30279 0.0
C145 C 0.23277 0.99438 0.20826 0.0
C146 C 0.30021 0.05746 0.24297 0.0
H147 H 0.34751 0.93744 0.30763 0.0
H148 H 0.33239 0.90494 0.26726 0.0
H149 H 0.25742 0.90697 0.19696 0.0
H150 H 0.22028 0.94105 0.18665 0.0
H151 H 0.22354 0.04863 0.19402 0.0
H152 H 0.26183 0.0831 0.21084 0.0
H153 H 0.33606 0.08025 0.28298 0.0
H154 H 0.3495 0.04397 0.31738 0.0
H155 H 0.38347 0.00304 0.20803 0.0
H156 H 0.31864 0.00723 0.1517 0.0
H157 H 0.22532 0.03427 0.30687 0.0
H158 H 0.2174 0.94906 0.2971 0.0
C159 C 0.68305 0.47898 0.22782 0.0
C160 C 0.66922 0.45562 0.22006 0.0
C161 C 0.67669 0.43661 0.23726 0.0
C162 C 0.69454 0.44937 0.25454 0.0
N163 N 0.69876 0.47516 0.24918 0.0
Co164 Co 0.72241 0.50083 0.26935 0.0
N165 N 0.74257 0.47192 0.28462 0.0
C166 C 0.73412 0.44637 0.28613 0.0
C167 C 0.75275 0.43081 0.2972 0.0
C168 C 0.77411 0.4477 0.30315 0.0
C169 C 0.76719 0.47279 0.29555 0.0
N170 N 0.74611 0.52641 0.28955 0.0
C171 C 0.77041 0.52283 0.30024 0.0
C172 C 0.78023 0.54601 0.31296 0.0
C173 C 0.76126 0.5646 0.31001 0.0
C174 C 0.74092 0.55178 0.29576 0.0
N175 N 0.70189 0.52952 0.2541 0.0
C176 C 0.70113 0.55458 0.26391 0.0
C177 C 0.68546 0.57007 0.24874 0.0
C178 C 0.67573 0.55361 0.22832 0.0
C179 C 0.68595 0.52886 0.23222 0.0
N180 N 0.69833 0.49979 0.29984 0.0
C181 C 0.66583 0.50592 0.34465 0.0
C182 C 0.69293 0.50128 0.34741 0.0
C183 C 0.70872 0.49838 0.32495 0.0
C184 C 0.65514 0.50604 0.31873 0.0
C185 C 0.67165 0.50276 0.29666 0.0
N186 N 0.74697 0.50265 0.23949 0.0
C187 C 0.77721 0.52947 0.21382 0.0
C188 C 0.78928 0.50678 0.20398 0.0
C189 C 0.77866 0.48185 0.21104 0.0
C190 C 0.75723 0.48021 0.22854 0.0
C191 C 0.75627 0.52699 0.23157 0.0
H192 H 0.74973 0.46086 0.23414 0.0
H193 H 0.74855 0.54495 0.23992 0.0
H194 H 0.72962 0.49582 0.32804 0.0
H195 H 0.66299 0.50354 0.27702 0.0
C196 C 0.71108 0.43705 0.27252 0.0
C197 C 0.67934 0.50476 0.21585 0.0
C198 C 0.78349 0.49726 0.3004 0.0
C199 C 0.71922 0.56375 0.2839 0.0
H200 H 0.6551 0.45267 0.2038 0.0
H201 H 0.67064 0.41577 0.23655 0.0
H202 H 0.75149 0.40953 0.2995 0.0
H203 H 0.7926 0.44206 0.312 0.0
H204 H 0.79902 0.5491 0.32338 0.0
H205 H 0.76263 0.58524 0.31659 0.0
H206 H 0.68247 0.5911 0.25141 0.0
H207 H 0.66275 0.55924 0.21239 0.0
H208 H 0.70214 0.50015 0.36684 0.0
H209 H 0.63436 0.50954 0.31537 0.0
H210 H 0.78482 0.54911 0.20901 0.0
H211 H 0.78718 0.46377 0.20352 0.0
C212 C 0.30667 0.33896 0.97612 0.0
C213 C 0.3146 0.3517 0.95325 0.0
C214 C 0.29675 0.34368 0.93359 0.0
C215 C 0.27893 0.32663 0.9455 0.0
N216 N 0.28457 0.3234 0.97137 0.0
Co217 Co 0.26378 0.30113 0.99598 0.0
N218 N 0.24697 0.28004 0.96608 0.0
C219 C 0.24544 0.28744 0.94065 0.0
C220 C 0.23313 0.26836 0.92429 0.0
C221 C 0.22638 0.24783 0.94052 0.0
C222 C 0.23479 0.25566 0.96603 0.0
N223 N 0.24292 0.27888 0.02052 0.0
C224 C 0.23088 0.25469 0.016 0.0
C225 C 0.21804 0.24615 0.03867 0.0
C226 C 0.22233 0.26583 0.05791 0.0
C227 C 0.23743 0.28529 0.04596 0.0
N228 N 0.28064 0.32244 0.02571 0.0
C229 C 0.27145 0.32434 0.05069 0.0
C230 C 0.28768 0.34027 0.06704 0.0
C231 C 0.30815 0.34899 0.05127 0.0
C232 C 0.30321 0.33798 0.02601 0.0
N233 N 0.23462 0.32579 0.99503 0.0
C234 C 0.19173 0.35934 1.00145 0.0
C235 C 0.21807 0.3696 0.00238 0.0
C236 C 0.23918 0.35255 0.99896 0.0
C237 C 0.18753 0.33211 0.99578 0.0
C238 C 0.20906 0.31581 0.99273 0.0
N239 N 0.29231 0.27605 0.9976 0.0
C240 C 0.31654 0.24571 0.02369 0.0
C241 C 0.32617 0.23346 1.00062 0.0
C242 C 0.31966 0.24406 0.97599 0.0
C243 C 0.30286 0.26548 0.97493 0.0
C244 C 0.29975 0.26688 0.02176 0.0
H245 H 0.29757 0.27284 0.95575 0.0
H246 H 0.29179 0.27499 0.03988 0.0
H247 H 0.25921 0.36088 1.00043 0.0
H248 H 0.20488 0.29486 0.98939 0.0
C249 C 0.25998 0.30986 0.93228 0.0
C250 C 0.31925 0.34365 0.00236 0.0
C251 C 0.22957 0.24051 0.99002 0.0
C252 C 0.25069 0.30714 0.05888 0.0
H253 H 0.33139 0.36546 0.95103 0.0
H254 H 0.29734 0.34886 0.91288 0.0
H255 H 0.23048 0.26877 0.90294 0.0
H256 H 0.21645 0.22928 0.9342 0.0
H257 H 0.20666 0.22773 0.041 0.0
H258 H 0.21605 0.26548 0.0784 0.0
H259 H 0.28558 0.34412 0.08818 0.0
H260 H 0.32478 0.36188 0.0577 0.0
H261 H 0.22247 0.39048 0.00664 0.0
H262 H 0.16767 0.32323 0.994 0.0
H263 H 0.32085 0.23821 0.04314 0.0
H264 H 0.32709 0.23559 0.95763 0.0
C265 C 0.21489 0.67122 0.4722 0.0
C266 C 0.21 0.65693 0.44853 0.0
C267 C 0.22986 0.66427 0.43147 0.0
C268 C 0.24575 0.68249 0.44563 0.0
N269 N 0.23704 0.68704 0.47047 0.0
Co270 Co 0.25397 0.71147 0.49759 0.0
N271 N 0.27329 0.73149 0.4701 0.0
C272 C 0.27809 0.72267 0.44516 0.0
C273 C 0.29132 0.74131 0.4304 0.0
C274 C 0.29524 0.76305 0.44719 0.0
C275 C 0.28437 0.75634 0.47148 0.0
N276 N 0.27078 0.73604 0.52465 0.0
C277 C 0.2822 0.76052 0.52164 0.0
C278 C 0.2918 0.77095 0.54586 0.0
C279 C 0.2861 0.75219 0.5645 0.0
C280 C 0.27345 0.73135 0.55069 0.0
N281 N 0.23479 0.69094 0.52484 0.0
C282 C 0.24122 0.69063 0.55083 0.0
C283 C 0.2238 0.67489 0.56486 0.0
C284 C 0.20546 0.6647 0.54645 0.0
C285 C 0.21278 0.67473 0.5221 0.0
N286 N 0.2841 0.68822 0.50078 0.0
C287 C 0.32719 0.65713 0.5141 0.0
C288 C 0.3307 0.68446 0.51019 0.0
C289 C 0.30917 0.69942 0.50325 0.0
C290 C 0.30158 0.64555 0.50981 0.0
C291 C 0.28035 0.66141 0.50326 0.0
N292 N 0.22442 0.73528 0.49531 0.0
C293 C 0.19631 0.7655 0.51847 0.0
C294 C 0.19012 0.77754 0.49467 0.0
C295 C 0.20006 0.76679 0.47088 0.0
C296 C 0.21692 0.74537 0.47161 0.0
C297 C 0.21347 0.74456 0.51837 0.0
H298 H 0.2249 0.73782 0.45319 0.0
H299 H 0.21905 0.73697 0.53729 0.0
H300 H 0.31275 0.72043 0.50105 0.0
H301 H 0.26076 0.65214 0.50101 0.0
C302 C 0.26551 0.6992 0.435 0.0
C303 C 0.19942 0.6679 0.49649 0.0
C304 C 0.28629 0.7731 0.49587 0.0
C305 C 0.25996 0.70941 0.56176 0.0
H306 H 0.19386 0.64265 0.4441 0.0
H307 H 0.23179 0.65793 0.41086 0.0
H308 H 0.29637 0.7398 0.40956 0.0
H309 H 0.30493 0.78167 0.44199 0.0
H310 H 0.30203 0.78998 0.54959 0.0
H311 H 0.28992 0.75398 0.58569 0.0
H312 H 0.22356 0.67225 0.58612 0.0
H313 H 0.18858 0.65162 0.55058 0.0
H314 H 0.34975 0.69472 0.51348 0.0
H315 H 0.29775 0.62445 0.5118 0.0
H316 H 0.18923 0.77319 0.53732 0.0
H317 H 0.19536 0.77525 0.45196 0.0
C318 C 0.78612 0.81646 0.4708 0.0
C319 C 0.79243 0.82387 0.44519 0.0
C320 C 0.77413 0.81127 0.42858 0.0
C321 C 0.75781 0.79694 0.44492 0.0
N322 N 0.76418 0.80002 0.47101 0.0
Co323 Co 0.74695 0.7811 0.50122 0.0
N324 N 0.72289 0.75948 0.47638 0.0
C325 C 0.71955 0.76301 0.45006 0.0
C326 C 0.70195 0.74494 0.43807 0.0
C327 C 0.69369 0.72878 0.45786 0.0
C328 C 0.70669 0.73806 0.48098 0.0
N329 N 0.73118 0.76075 0.53122 0.0
C330 C 0.71529 0.7384 0.53057 0.0
C331 C 0.71052 0.72941 0.55596 0.0
C332 C 0.72435 0.74639 0.5732 0.0
C333 C 0.73675 0.76468 0.55742 0.0
N334 N 0.77023 0.80368 0.526 0.0
C335 C 0.76902 0.80469 0.55284 0.0
C336 C 0.78772 0.82188 0.56453 0.0
C337 C 0.80179 0.83229 0.54395 0.0
C338 C 0.79083 0.82083 0.52075 0.0
N339 N 0.71878 0.80807 0.50434 0.0
C340 C 0.67453 0.84118 0.50821 0.0
C341 C 0.68424 0.8284 0.53031 0.0
C342 C 0.70619 0.8125 0.52804 0.0
C343 C 0.68825 0.83799 0.48431 0.0
C344 C 0.71008 0.82159 0.48284 0.0
N345 N 0.77416 0.75402 0.4986 0.0
C346 C 0.80391 0.72547 0.52102 0.0
C347 C 0.80522 0.70889 0.49839 0.0
C348 C 0.79214 0.71639 0.47526 0.0
C349 C 0.77704 0.7391 0.4757 0.0
C350 C 0.78848 0.7478 0.52067 0.0
H351 H 0.7671 0.74389 0.45764 0.0
H352 H 0.78754 0.75917 0.53885 0.0
H353 H 0.71208 0.80373 0.54591 0.0
H354 H 0.71932 0.82009 0.46396 0.0
C355 C 0.73652 0.78022 0.43647 0.0
C356 C 0.80143 0.82574 0.49428 0.0
C357 C 0.70431 0.7251 0.50645 0.0
C358 C 0.75366 0.78583 0.56637 0.0
H359 H 0.80866 0.83693 0.43912 0.0
H360 H 0.77308 0.81215 0.40713 0.0
H361 H 0.69693 0.74278 0.41713 0.0
H362 H 0.68036 0.71156 0.45523 0.0
H363 H 0.69843 0.71226 0.56143 0.0
H364 H 0.72548 0.74533 0.59463 0.0
H365 H 0.79169 0.82526 0.58556 0.0
H366 H 0.81877 0.84603 0.54588 0.0
H367 H 0.67455 0.82991 0.54937 0.0
H368 H 0.68222 0.84804 0.46666 0.0
H369 H 0.81376 0.72064 0.53938 0.0
H370 H 0.79324 0.70461 0.45699 0.0
C371 C 0.48227 0.80816 0.83592 0.0
C372 C 0.45804 0.81589 0.84576 0.0
C373 C 0.43931 0.79789 0.83591 0.0
C374 C 0.45309 0.78024 0.82075 0.0
N375 N 0.47957 0.78559 0.82059 0.0
Co376 Co 0.50675 0.76559 0.80016 0.0
N377 N 0.47866 0.74132 0.78289 0.0
C378 C 0.45236 0.74072 0.78798 0.0
C379 C 0.43781 0.72275 0.77232 0.0
C380 C 0.45581 0.71137 0.75598 0.0
C381 C 0.48048 0.72301 0.76277 0.0
N382 N 0.5338 0.74612 0.77912 0.0
C383 C 0.53039 0.72771 0.75902 0.0
C384 C 0.55451 0.72015 0.74883 0.0
C385 C 0.57381 0.73472 0.76258 0.0
C386 C 0.56046 0.75024 0.78037 0.0
N387 N 0.53476 0.7898 0.81773 0.0
C388 C 0.56135 0.78841 0.81507 0.0
C389 C 0.57553 0.80819 0.82883 0.0
C390 C 0.55691 0.82328 0.84081 0.0
C391 C 0.53231 0.81178 0.83369 0.0
N392 N 0.51009 0.73996 0.82958 0.0
C393 C 0.5152 0.69819 0.86556 0.0
C394 C 0.53746 0.71095 0.85475 0.0
C395 C 0.53449 0.73159 0.83721 0.0
C396 C 0.49032 0.70777 0.85922 0.0
C397 C 0.48826 0.72857 0.84148 0.0
N398 N 0.5038 0.79034 0.77054 0.0
C399 C 0.52541 0.81528 0.73605 0.0
C400 C 0.50131 0.81769 0.72268 0.0
C401 C 0.47819 0.80763 0.73459 0.0
C402 C 0.47984 0.79442 0.7586 0.0
C403 C 0.5262 0.80169 0.75974 0.0
H404 H 0.46165 0.78696 0.76685 0.0
H405 H 0.54532 0.7998 0.76845 0.0
H406 H 0.55238 0.74008 0.82987 0.0
H407 H 0.46874 0.73469 0.83741 0.0
C408 C 0.44158 0.7593 0.8054 0.0
C409 C 0.5072 0.82309 0.8416 0.0
C410 C 0.50478 0.71718 0.74861 0.0
C411 C 0.57221 0.76998 0.7973 0.0
H412 H 0.45425 0.83296 0.85849 0.0
H413 H 0.4181 0.79799 0.83896 0.0
H414 H 0.41649 0.71923 0.77198 0.0
H415 H 0.45106 0.6968 0.7403 0.0
H416 H 0.55778 0.7059 0.73281 0.0
H417 H 0.59501 0.73454 0.75947 0.0
H418 H 0.59682 0.81182 0.82927 0.0
H419 H 0.56097 0.84114 0.85284 0.0
H420 H 0.55727 0.70503 0.85971 0.0
H421 H 0.47237 0.69879 0.86725 0.0
H422 H 0.54384 0.82283 0.7277 0.0
H423 H 0.45895 0.80969 0.72529 0.0
C424 C 0.5439 0.29836 0.69252 0.0
C425 C 0.56724 0.30616 0.68002 0.0
C426 C 0.58566 0.28796 0.68621 0.0
C427 C 0.57259 0.27009 0.70202 0.0
N428 N 0.54715 0.276 0.70615 0.0
Co429 Co 0.52121 0.25545 0.72732 0.0
N430 N 0.5499 0.23828 0.74674 0.0
C431 C 0.57517 0.23645 0.73875 0.0
C432 C 0.59066 0.22391 0.75668 0.0
C433 C 0.57401 0.2173 0.77704 0.0
C434 C 0.54912 0.22602 0.77027 0.0
N435 N 0.49535 0.23487 0.74854 0.0
C436 C 0.49901 0.22269 0.77184 0.0
C437 C 0.47555 0.21017 0.77986 0.0
C438 C 0.45672 0.21477 0.76075 0.0
C439 C 0.46967 0.22974 0.74213 0.0
N440 N 0.49278 0.27264 0.70754 0.0
C441 C 0.46737 0.26366 0.70519 0.0
C442 C 0.45222 0.28014 0.69059 0.0
C443 C 0.46927 0.30056 0.68328 0.0
C444 C 0.494 0.29537 0.69379 0.0
N445 N 0.52042 0.22628 0.70056 0.0
C446 C 0.50885 0.18355 0.66467 0.0
C447 C 0.51511 0.17924 0.69134 0.0
C448 C 0.52077 0.20071 0.70883 0.0
C449 C 0.51039 0.20979 0.65598 0.0
C450 C 0.51639 0.23084 0.67419 0.0
N451 N 0.52108 0.28393 0.7545 0.0
C452 C 0.49569 0.3084 0.7864 0.0
C453 C 0.51887 0.3168 0.80013 0.0
C454 C 0.54338 0.30976 0.78957 0.0
C455 C 0.54406 0.29358 0.76648 0.0
C456 C 0.49722 0.29198 0.7638 0.0
H457 H 0.56306 0.28787 0.75901 0.0
H458 H 0.47885 0.28464 0.75477 0.0
H459 H 0.52423 0.19652 0.72941 0.0
H460 H 0.51657 0.25086 0.66718 0.0
C461 C 0.58452 0.25092 0.71719 0.0
C462 C 0.51859 0.31138 0.68948 0.0
C463 C 0.52482 0.22087 0.78546 0.0
C464 C 0.45777 0.24306 0.7212 0.0
H465 H 0.57059 0.32314 0.66766 0.0
H466 H 0.60638 0.2884 0.68078 0.0
H467 H 0.61178 0.221 0.75569 0.0
H468 H 0.57966 0.20722 0.79478 0.0
H469 H 0.47245 0.19876 0.79752 0.0
H470 H 0.43589 0.20872 0.76096 0.0
H471 H 0.43105 0.27828 0.6868 0.0
H472 H 0.46403 0.31735 0.67171 0.0
H473 H 0.51512 0.15937 0.69892 0.0
H474 H 0.5059 0.21422 0.63554 0.0
H475 H 0.47634 0.31321 0.79389 0.0
H476 H 0.56182 0.31623 0.79939 0.0
C477 C 0.83099 0.47498 0.79868 0.0
C478 C 0.84246 0.45153 0.80559 0.0
C479 C 0.83265 0.43216 0.78803 0.0
C480 C 0.81587 0.44481 0.77139 0.0
N481 N 0.81449 0.47087 0.77749 0.0
Co482 Co 0.79328 0.49648 0.75828 0.0
N483 N 0.76989 0.46763 0.7425 0.0
C484 C 0.77555 0.44181 0.74028 0.0
C485 C 0.75516 0.4264 0.72898 0.0
C486 C 0.7356 0.44366 0.72363 0.0
C487 C 0.74529 0.46879 0.7318 0.0
N488 N 0.77206 0.52202 0.739 0.0
C489 C 0.74732 0.51873 0.72845 0.0
C490 C 0.73985 0.54171 0.71638 0.0
C491 C 0.7608 0.55986 0.71959 0.0
C492 C 0.77989 0.547 0.73334 0.0
N493 N 0.81696 0.52513 0.77407 0.0
C494 C 0.82018 0.54985 0.76495 0.0
C495 C 0.83767 0.56543 0.7803 0.0
C496 C 0.84601 0.54941 0.80012 0.0
C497 C 0.83322 0.52478 0.79567 0.0
N498 N 0.81676 0.49386 0.72747 0.0
C499 C 0.84927 0.49896 0.68252 0.0
C500 C 0.82158 0.49595 0.67997 0.0
C501 C 0.80587 0.49307 0.70245 0.0
C502 C 0.86031 0.49792 0.70827 0.0
C503 C 0.84376 0.49547 0.73041 0.0
N504 N 0.76935 0.49987 0.78847 0.0
C505 C 0.7403 0.52789 0.81319 0.0
C506 C 0.72742 0.50569 0.82384 0.0
C507 C 0.73708 0.48053 0.8179 0.0
C508 C 0.75807 0.47802 0.80001 0.0
C509 C 0.76142 0.5246 0.79593 0.0
H510 H 0.76438 0.45841 0.79457 0.0
H511 H 0.77036 0.54211 0.78751 0.0
H512 H 0.78467 0.49144 0.69953 0.0
H513 H 0.85277 0.49571 0.74996 0.0
C514 C 0.79775 0.43234 0.75334 0.0
C515 C 0.83775 0.50104 0.81121 0.0
C516 C 0.73159 0.49351 0.72767 0.0
C517 C 0.80291 0.5588 0.74533 0.0
H518 H 0.85658 0.44874 0.8215 0.0
H519 H 0.83651 0.41121 0.78809 0.0
H520 H 0.75411 0.40503 0.72611 0.0
H521 H 0.71644 0.43826 0.71478 0.0
H522 H 0.72132 0.54494 0.70617 0.0
H523 H 0.76157 0.58028 0.71353 0.0
H524 H 0.84283 0.58628 0.77813 0.0
H525 H 0.85983 0.55526 0.81599 0.0
H526 H 0.81172 0.49687 0.66086 0.0
H527 H 0.88157 0.49936 0.71148 0.0
H528 H 0.73364 0.54768 0.81765 0.0
H529 H 0.72762 0.46289 0.82593 0.0
C530 C 0.19157 0.04096 0.79287 0.0
C531 C 0.18394 0.06628 0.80016 0.0
C532 C 0.19541 0.08316 0.78259 0.0
C533 C 0.20929 0.06726 0.76564 0.0
N534 N 0.20701 0.04116 0.77094 0.0
Co535 Co 0.22545 0.01149 0.75235 0.0
N536 N 0.24507 0.03686 0.72885 0.0
C537 C 0.24163 0.06323 0.72737 0.0
C538 C 0.25819 0.07564 0.70984 0.0
C539 C 0.27329 0.05609 0.6996 0.0
C540 C 0.26491 0.0327 0.71144 0.0
N541 N 0.24503 0.98202 0.73479 0.0
C542 C 0.26568 0.98314 0.71767 0.0
C543 C 0.27475 0.95806 0.7117 0.0
C544 C 0.25963 0.94055 0.72591 0.0
C545 C 0.24225 0.95583 0.73971 0.0
N546 N 0.20498 0.98618 0.7753 0.0
C547 C 0.20508 0.95935 0.77382 0.0
C548 C 0.18954 0.94737 0.79257 0.0
C549 C 0.17911 0.96773 0.80705 0.0
C550 C 0.18894 0.99109 0.79628 0.0
N551 N 0.19668 0.00742 0.72472 0.0
C552 C 0.16156 1.00081 0.68064 0.0
C553 C 0.17245 0.97906 0.6924 0.0
C554 C 0.18949 0.98273 0.71425 0.0
C555 C 0.16728 0.02597 0.69225 0.0
C556 C 0.18478 0.0288 0.71415 0.0
N557 N 0.25447 0.01493 0.77915 0.0
C558 C 0.28521 0.9929 0.80724 0.0
C559 C 0.30219 0.0154 0.80855 0.0
C560 C 0.29389 0.03841 0.79651 0.0
C561 C 0.26983 0.03785 0.78228 0.0
C562 C 0.26164 0.99313 0.79271 0.0
H563 H 0.26436 0.05582 0.77321 0.0
H564 H 0.25016 0.97497 0.79183 0.0
H565 H 0.19683 0.96513 0.72188 0.0
H566 H 0.18869 0.04849 0.72182 0.0
C567 C 0.22527 0.0763 0.74513 0.0
C568 C 0.18379 0.01744 0.80755 0.0
C569 C 0.27737 0.0074 0.70669 0.0
C570 C 0.22322 0.94633 0.75759 0.0
H571 H 0.17161 0.07202 0.81668 0.0
H572 H 0.19421 0.10454 0.78249 0.0
H573 H 0.25995 0.09662 0.70593 0.0
H574 H 0.28923 0.05904 0.68565 0.0
H575 H 0.29079 0.95301 0.69858 0.0
H576 H 0.26135 0.91924 0.72638 0.0
H577 H 0.18721 0.92637 0.79623 0.0
H578 H 0.16649 0.96563 0.82419 0.0
H579 H 0.16791 0.95907 0.68472 0.0
H580 H 0.15895 0.04345 0.68403 0.0
H581 H 0.29062 0.97463 0.81628 0.0
H582 H 0.30605 0.0566 0.79771 0.0
C583 C 0.73135 0.19244 0.96709 0.0
C584 C 0.72194 0.18304 0.94239 0.0
C585 C 0.73482 0.19775 0.92383 0.0
C586 C 0.7514 0.2151 0.93814 0.0
N587 N 0.75013 0.2122 0.96466 0.0
Co588 Co 0.77078 0.23368 0.99235 0.0
N589 N 0.7946 0.24982 0.96503 0.0
C590 C 0.79103 0.24788 0.93845 0.0
C591 C 0.8106 0.26066 0.92448 0.0
C592 C 0.82749 0.27187 0.94334 0.0
C593 C 0.81719 0.26528 0.96792 0.0
N594 N 0.79121 0.2555 0.01995 0.0
C595 C 0.8137 0.27099 0.01792 0.0
C596 C 0.82097 0.28291 0.04227 0.0
C597 C 0.80199 0.2753 0.06001 0.0
C598 C 0.78435 0.2591 0.0456 0.0
N599 N 0.74713 0.21723 0.01957 0.0
C600 C 0.74514 0.22549 0.04517 0.0
C601 C 0.72675 0.21095 0.05913 0.0
C602 C 0.7161 0.19252 0.04118 0.0
C603 C 0.72867 0.1969 0.0172 0.0
N604 N 0.79576 0.20512 0.99638 0.0
C605 C 0.83834 0.17167 0.00308 0.0
C606 C 0.82547 0.1826 0.02506 0.0
C607 C 0.80415 0.19892 0.0213 0.0
C608 C 0.82835 0.17647 0.97764 0.0
C609 C 0.80708 0.19326 0.97472 0.0
N610 N 0.74618 0.26271 0.98905 0.0
C611 C 0.70274 0.28012 0.99545 0.0
C612 C 0.71362 0.30619 0.99597 0.0
C613 C 0.74076 0.30985 0.99117 0.0
C614 C 0.7564 0.28806 0.98745 0.0
C615 C 0.71934 0.25866 0.99169 0.0
H616 H 0.77707 0.29201 0.98459 0.0
H617 H 0.7105 0.2389 0.99188 0.0
H618 H 0.79517 0.20728 0.03872 0.0
H619 H 0.80052 0.19736 0.95491 0.0
C620 C 0.77033 0.2322 0.92724 0.0
C621 C 0.72026 0.18341 0.99216 0.0
C622 C 0.82652 0.27823 0.99295 0.0
C623 C 0.76247 0.24528 0.05594 0.0
H624 H 0.70702 0.16741 0.93824 0.0
H625 H 0.73274 0.19567 0.90243 0.0
H626 H 0.81239 0.26171 0.90311 0.0
H627 H 0.8448 0.28437 0.93933 0.0
H628 H 0.83773 0.29651 0.04647 0.0
H629 H 0.80119 0.28087 0.08092 0.0
H630 H 0.72181 0.21332 0.07993 0.0
H631 H 0.70039 0.17796 0.04509 0.0
H632 H 0.83206 0.17884 0.0451 0.0
H633 H 0.83757 0.16823 0.96006 0.0
H634 H 0.6817 0.27627 0.99828 0.0
H635 H 0.75035 0.32945 0.99146 0.0
Zn636 Zn 0.09173 0.08291 0.06336 0.0
Zn637 Zn 0.03513 0.02674 0.00424 0.0
Zn638 Zn 0.0643 0.05607 0.03557 0.0
C639 C 0.0766 0.04424 0.97278 0.0
C640 C 0.04995 0.99343 0.04417 0.0
O641 O 0.04132 0.0888 0.05443 0.0
O642 O 0.07454 0.11732 0.06347 0.0
C643 C 0.12171 0.08192 0.02132 0.0
O644 O 0.08332 0.056 0.99513 0.0
O645 O 0.05542 0.03009 0.97116 0.0
O646 O 0.03661 0.99286 0.0228 0.0
O647 O 0.06214 0.01523 0.05222 0.0
O648 O 0.12648 0.08243 0.04594 0.0
O649 O 0.09844 0.07385 0.01276 0.0
O650 O 0.07992 0.03187 0.06847 0.0
O651 O 0.0897 0.06453 0.0973 0.0
C652 C 0.08768 0.03999 0.09196 0.0
O653 O 0.02426 0.07406 0.03515 0.0
O654 O 0.00225 0.04649 0.00727 0.0
C655 C 0.04996 0.11189 0.06329 0.0
C656 C 0.00274 0.06702 0.02226 0.0
Zn657 Zn 0.99921 0.51188 0.0052 0.0
Zn658 Zn 0.94331 0.45348 0.0577 0.0
Zn659 Zn 0.97012 0.48121 0.03449 0.0
C660 C 0.94488 0.4934 0.09131 0.0
C661 C 0.91459 0.45266 0.01628 0.0
O662 O 0.01086 0.46501 0.03441 0.0
O663 O 0.0324 0.49186 0.00745 0.0
C664 C 0.98207 0.543 0.04919 0.0
O665 O 0.95164 0.50325 0.06884 0.0
O666 O 0.94604 0.46876 0.0941 0.0
O667 O 0.90808 0.45503 0.04031 0.0
O668 O 0.93804 0.46087 0.00942 0.0
O669 O 0.99621 0.54413 0.02862 0.0
O670 O 0.9697 0.52105 0.05477 0.0
O671 O 0.95146 0.48129 0.99386 0.0
O672 O 0.97746 0.50894 0.97186 0.0
C673 C 0.9569 0.49384 0.9725 0.0
O674 O 0.99358 0.44886 0.05128 0.0
O675 O 0.96053 0.41925 0.05267 0.0
C676 C 0.03221 0.47186 0.02199 0.0
C677 C 0.98491 0.42501 0.05578 0.0
Zn678 Zn 0.999 0.98413 0.48801 0.0
Zn679 Zn 0.05325 0.93068 0.4333 0.0
Zn680 Zn 0.02839 0.9562 0.45931 0.0
C681 C 0.08512 0.93488 0.47315 0.0
C682 C 0.01346 0.89807 0.43584 0.0
O683 O 0.02885 0.99628 0.44089 0.0
O684 O 1.00071 0.01658 0.46696 0.0
C685 C 0.04119 0.97117 0.521 0.0
O686 O 0.06196 0.93978 0.48239 0.0
O687 O 0.08916 0.93753 0.44869 0.0
O688 O 0.03791 0.89447 0.43828 0.0
O689 O 0.00484 0.92134 0.44147 0.0
O690 O 0.02047 0.98442 0.52119 0.0
O691 O 0.04739 0.95813 0.49968 0.0
O692 O 0.98768 0.93602 0.45898 0.0
O693 O 0.96572 0.96209 0.48615 0.0
C694 C 0.96618 0.94145 0.47138 0.0
O695 O 0.04675 0.97897 0.42602 0.0
O696 O 0.04791 0.9452 0.39762 0.0
C697 C 0.01575 0.017 0.44705 0.0
C698 C 0.05202 0.96966 0.40254 0.0
Zn699 Zn 0.94611 0.55992 0.43235 0.0
Zn700 Zn 1.00134 0.50802 0.48772 0.0
Zn701 Zn 0.97233 0.53586 0.45757 0.0
C702 C 0.98418 0.47423 0.44462 0.0
C703 C 0.03411 0.55092 0.47118 0.0
O704 O 0.93811 0.55163 0.48066 0.0
O705 O 0.91029 0.55284 0.44696 0.0
C706 C 0.94933 0.52048 0.39975 0.0
O707 O 0.97271 0.49547 0.43797 0.0
O708 O 0.99764 0.47428 0.46595 0.0
O709 O 0.03455 0.53034 0.48486 0.0
O710 O 0.01258 0.55644 0.45884 0.0
O711 O 0.95192 0.54504 0.39608 0.0
O712 O 0.95492 0.51183 0.42297 0.0
O713 O 0.99509 0.5706 0.4412 0.0
O714 O 0.96107 0.5963 0.4395 0.0
C715 C 0.98559 0.59346 0.43673 0.0
O716 O 0.95364 0.53545 0.49759 0.0
O717 O 0.98065 0.51169 0.52113 0.0
C718 C 0.9146 0.55564 0.47161 0.0
C719 C 0.95994 0.52487 0.51966 0.0
Zn720 Zn 0.42464 0.93644 0.55914 0.0
Zn721 Zn 0.47955 0.98992 0.50207 0.0
Zn722 Zn 0.45003 0.96265 0.53258 0.0
C723 C 0.43576 0.97375 0.47079 0.0
C724 C 0.46688 0.02406 0.54486 0.0
O725 O 0.47329 0.93044 0.55053 0.0
O726 O 0.44047 0.90123 0.55605 0.0
C727 C 0.39237 0.93711 0.5188 0.0
O728 O 0.4301 0.96122 0.49215 0.0
O729 O 0.45638 0.98873 0.47028 0.0
O730 O 0.4814 0.02303 0.52456 0.0
O731 O 0.45239 0.00353 0.55094 0.0
O732 O 0.38876 0.93866 0.54351 0.0
O733 O 0.41542 0.94392 0.50965 0.0
O734 O 0.43378 0.98695 0.56627 0.0
O735 O 0.42959 0.9545 0.59427 0.0
C736 C 0.42814 0.97881 0.58972 0.0
O737 O 0.48992 0.94442 0.53189 0.0
O738 O 0.51046 0.96682 0.50059 0.0
C739 C 0.46495 0.90714 0.5575 0.0
C740 C 0.51019 0.94823 0.51684 0.0
Zn741 Zn 0.51364 0.50896 0.54255 0.0
Zn742 Zn 0.57381 0.5676 0.59761 0.0
Zn743 Zn 0.5454 0.53971 0.57181 0.0
C744 C 0.57184 0.52573 0.62759 0.0
C745 C 0.60158 0.56591 0.55425 0.0
O746 O 0.50566 0.55765 0.57194 0.0
O747 O 0.48086 0.52917 0.54732 0.0
C748 C 0.53196 0.47736 0.58332 0.0
O749 O 0.56298 0.51684 0.60472 0.0
O750 O 0.57344 0.55041 0.63223 0.0
O751 O 0.60776 0.5669 0.57857 0.0
O752 O 0.57807 0.55723 0.5471 0.0
O753 O 0.51724 0.47616 0.56283 0.0
O754 O 0.54453 0.4994 0.59 0.0
O755 O 0.56236 0.53836 0.53074 0.0
O756 O 0.5333 0.51212 0.50852 0.0
C757 C 0.55462 0.52617 0.50894 0.0
O758 O 0.52287 0.57331 0.58987 0.0
O759 O 0.55643 0.60188 0.59711 0.0
C760 C 0.48315 0.55054 0.56102 0.0
C761 C 0.5318 0.59676 0.59728 0.0
Zn762 Zn 0.5169 0.50548 0.02197 0.0
Zn763 Zn 0.57251 0.45488 0.96476 0.0
Zn764 Zn 0.54681 0.4785 0.99139 0.0
C765 C 0.6041 0.45936 0.0045 0.0
C766 C 0.53437 0.42072 0.96659 0.0
O767 O 0.54639 0.51865 0.974 0.0
O768 O 0.51789 0.53806 1.00039 0.0
C769 C 0.55994 0.4917 0.05384 0.0
O770 O 0.58063 0.46238 0.01383 0.0
O771 O 0.60812 0.46379 0.98034 0.0
O772 O 0.55888 0.41811 0.97003 0.0
O773 O 0.52458 0.44347 0.9722 0.0
O774 O 0.53924 0.505 0.05495 0.0
O775 O 0.56573 0.47948 0.03191 0.0
O776 O 0.50676 0.45744 0.98994 0.0
O777 O 0.48459 0.48148 0.01883 0.0
C778 C 0.4853 0.4617 0.00287 0.0
O779 O 0.56499 0.50226 0.95863 0.0
O780 O 0.56556 0.46934 0.92918 0.0
C781 C 0.53272 0.5389 0.9803 0.0
C782 C 0.56975 0.49365 0.93478 0.0
Zn783 Zn 0.51902 0.02727 0.99491 0.0
Zn784 Zn 0.46514 0.07948 0.93774 0.0
Zn785 Zn 0.49061 0.0551 0.96359 0.0
C786 C 0.50528 0.11229 0.94162 0.0
C787 C 0.4685 0.03895 0.90602 0.0
O788 O 0.47115 0.05518 0.00312 0.0
O789 O 0.49752 0.0318 0.02778 0.0
C790 C 0.55249 0.06905 0.97705 0.0
O791 O 0.51418 0.0893 0.94673 0.0
O792 O 0.48081 0.11572 0.94389 0.0
O793 O 0.47109 0.06343 0.90199 0.0
O794 O 0.47361 0.03065 0.92946 0.0
O795 O 0.55257 0.04902 0.99154 0.0
O796 O 0.53109 0.07466 0.96456 0.0
O797 O 0.49035 0.01409 0.94511 0.0
O798 O 0.51486 0.99316 0.97368 0.0
C799 C 0.5014 0.99279 0.95233 0.0
O800 O 0.45671 0.07246 0.98603 0.0
O801 O 0.42905 0.07391 0.95221 0.0
C802 C 0.47676 0.04479 0.02549 0.0
C803 C 0.43345 0.07727 0.97679 0.0
H804 H 0.04 0.13919 0.32923 0.0
H805 H 0.99476 0.06446 0.46006 0.0
H806 H 0.98145 0.16798 0.38373 0.0
H807 H 0.03842 0.02581 0.39771 0.0
H808 H 0.99332 0.1039 0.43376 0.0
H809 H 0.04289 0.09901 0.35516 0.0
C810 C 0.02779 0.1371 0.3467 0.0
C811 C 0.01049 0.15709 0.35436 0.0
C812 C 0.00331 0.08686 0.42577 0.0
C813 C 0.01374 0.11108 0.3841 0.0
C814 C 0.00425 0.0642 0.44084 0.0
C815 C 0.01684 0.04151 0.43119 0.0
C816 C 0.01516 0.0872 0.4007 0.0
C817 C 0.02879 0.04274 0.40614 0.0
C818 C 0.02937 0.11409 0.36139 0.0
C819 C 0.99489 0.15308 0.37694 0.0
N820 N 0.02765 0.06519 0.39173 0.0
N821 N 0.99701 0.13066 0.39105 0.0
H822 H 0.98597 0.3584 0.31204 0.0
H823 H 0.99408 0.42405 0.45929 0.0
H824 H 0.01094 0.31765 0.38136 0.0
H825 H 0.97335 0.46825 0.39055 0.0
H826 H 0.99782 0.38451 0.43094 0.0
H827 H 0.97944 0.39844 0.34002 0.0
C828 C 0.99029 0.35806 0.33316 0.0
C829 C 0.99934 0.33494 0.34446 0.0
C830 C 0.99226 0.40275 0.42197 0.0
C831 C 0.99157 0.38032 0.37662 0.0
C832 C 0.99004 0.42544 0.4382 0.0
C833 C 0.98329 0.44967 0.42738 0.0
C834 C 0.98785 0.40406 0.39447 0.0
C835 C 0.97822 0.45003 0.39988 0.0
C836 C 0.98647 0.3808 0.34911 0.0
C837 C 0.00428 0.33523 0.3719 0.0
N838 N 0.98076 0.42762 0.38434 0.0
N839 N 1.00035 0.35753 0.38702 0.0
H840 H 0.03656 0.87927 0.16987 0.0
H841 H 0.04073 0.94253 0.02617 0.0
H842 H 0.99887 0.84238 0.09993 0.0
H843 H 0.05616 0.98889 0.09843 0.0
H844 H 0.03264 0.90324 0.05245 0.0
H845 H 0.05016 0.91726 0.14359 0.0
C846 C 0.03091 0.87914 0.14906 0.0
C847 C 0.01614 0.8575 0.13729 0.0
C848 C 0.03812 0.92192 0.06258 0.0
C849 C 0.0325 0.90091 0.10687 0.0
C850 C 0.04288 0.94439 0.04759 0.0
C851 C 0.04937 0.96912 0.06009 0.0
C852 C 0.03984 0.92402 0.09039 0.0
C853 C 0.05186 0.97022 0.08791 0.0
C854 C 0.03893 0.90083 0.13403 0.0
C855 C 0.01033 0.85834 0.10997 0.0
N856 N 0.04695 0.94802 0.10216 0.0
N857 N 0.01849 0.87965 0.09575 0.0
H858 H 0.98292 0.65691 0.18345 0.0
H859 H 0.99353 0.59397 0.036 0.0
H860 H 0.01328 0.69925 0.11647 0.0
H861 H 0.97087 0.54703 0.10297 0.0
H862 H 0.99859 0.63296 0.06542 0.0
H863 H 0.97722 0.61654 0.15495 0.0
C864 C 0.98891 0.65746 0.16285 0.0
C865 C 0.99923 0.68112 0.15237 0.0
C866 C 0.99235 0.61422 0.07378 0.0
C867 C 0.99201 0.63551 0.11951 0.0
C868 C 0.98933 0.59187 0.05692 0.0
C869 C 0.98164 0.56706 0.06695 0.0
C870 C 0.98775 0.61199 0.10109 0.0
C871 C 0.97641 0.56574 0.09427 0.0
C872 C 0.98546 0.63455 0.14657 0.0
C873 C 0.00596 0.68118 0.12543 0.0
N874 N 0.97969 0.58787 0.11043 0.0
N875 N 0.00218 0.65877 0.10995 0.0
H876 H 0.40202 0.03485 0.1804 0.0
H877 H 0.42236 0.04347 0.02364 0.0
H878 H 0.34971 0.99408 0.12268 0.0
H879 H 0.48863 0.04564 0.07853 0.0
H880 H 0.39223 0.03596 0.06095 0.0
H881 H 0.43148 0.04769 0.14419 0.0
C882 C 0.39667 0.02839 0.16029 0.0
C883 C 0.37302 0.01333 0.15489 0.0
C884 C 0.41336 0.03846 0.06482 0.0
C885 C 0.40639 0.02901 0.11318 0.0
C886 C 0.43051 0.0431 0.0436 0.0
C887 C 0.45803 0.04527 0.04801 0.0
C888 C 0.42377 0.03639 0.09066 0.0
C889 C 0.46754 0.04402 0.07428 0.0
C890 C 0.41345 0.03602 0.1396 0.0
C891 C 0.3672 0.00621 0.12809 0.0
N892 N 0.45046 0.03966 0.09461 0.0
N893 N 0.3836 0.01424 0.10834 0.0
H894 H 0.69358 0.4903 0.16549 0.0
H895 H 0.54709 0.50416 0.10509 0.0
H896 H 0.62773 0.51877 0.2104 0.0
H897 H 0.61324 0.48075 0.0574 0.0
H898 H 0.57638 0.50842 0.14387 0.0
H899 H 0.6649 0.48614 0.12564 0.0
C900 C 0.67318 0.49615 0.16674 0.0
C901 C 0.66311 0.50552 0.19099 0.0
C902 C 0.58455 0.50217 0.12498 0.0
C903 C 0.62999 0.50015 0.14585 0.0
C904 C 0.56777 0.49964 0.10275 0.0
C905 C 0.57757 0.49178 0.07779 0.0
C906 C 0.61155 0.49692 0.12248 0.0
C907 C 0.60461 0.48627 0.07618 0.0
C908 C 0.65678 0.49361 0.14411 0.0
C909 C 0.6364 0.51214 0.19189 0.0
N910 N 0.62066 0.48901 0.09817 0.0
N911 N 0.62078 0.5093 0.16969 0.0
H912 H 0.38147 1.00177 0.31193 0.0
H913 H 0.38151 0.96206 0.46546 0.0
H914 H 0.31052 0.97356 0.35068 0.0
H915 H 0.4514 0.98209 0.42036 0.0
H916 H 0.3545 0.96528 0.42466 0.0
H917 H 0.40682 0.99522 0.35268 0.0
C918 C 0.37122 0.99456 0.32927 0.0
C919 C 0.34386 0.98877 0.32826 0.0
C920 C 0.37579 0.96871 0.42375 0.0
C921 C 0.37276 0.9805 0.37497 0.0
C922 C 0.39123 0.9666 0.44699 0.0
C923 C 0.41879 0.97182 0.44641 0.0
C924 C 0.38807 0.97616 0.39991 0.0
C925 C 0.43023 0.97813 0.42192 0.0
C926 C 0.38568 0.99056 0.3525 0.0
C927 C 0.33157 0.97868 0.35097 0.0
N928 N 0.41489 0.98025 0.39987 0.0
N929 N 0.34607 0.97494 0.37349 0.0
H930 H 0.68042 0.53241 0.39162 0.0
H931 H 0.5374 0.51564 0.45806 0.0
H932 H 0.61308 0.49164 0.35281 0.0
H933 H 0.60841 0.53723 0.50331 0.0
H934 H 0.56391 0.51239 0.41788 0.0
H935 H 0.65357 0.53942 0.43112 0.0
C936 C 0.66007 0.52472 0.39134 0.0
C937 C 0.64923 0.51107 0.36867 0.0
C938 C 0.57371 0.51812 0.43654 0.0
C939 C 0.61807 0.51975 0.41401 0.0
C940 C 0.55857 0.52006 0.45955 0.0
C941 C 0.57061 0.52709 0.48422 0.0
C942 C 0.60124 0.52321 0.43799 0.0
C943 C 0.59814 0.53253 0.48476 0.0
C944 C 0.64469 0.52895 0.41395 0.0
C945 C 0.6224 0.50242 0.36953 0.0
N946 N 0.61253 0.53041 0.46203 0.0
N947 N 0.60783 0.50687 0.39177 0.0
H948 H 0.14545 0.34652 0.02757 0.0
H949 H 0.0829 0.48857 0.01098 0.0
H950 H 0.18531 0.41152 0.98824 0.0
H951 H 0.03715 0.41913 0.03389 0.0
H952 H 0.12222 0.46202 0.00787 0.0
H953 H 0.10734 0.37403 0.03489 0.0
C954 C 0.14622 0.36651 0.02028 0.0
C955 C 0.16872 0.37648 0.0069 0.0
C956 C 0.10365 0.45261 0.01387 0.0
C957 C 0.12503 0.40843 0.01588 0.0
C958 C 0.08113 0.46778 0.01574 0.0
C959 C 0.05657 0.45617 0.02307 0.0
C960 C 0.10176 0.42549 0.01934 0.0
C961 C 0.05565 0.42912 0.02893 0.0
C962 C 0.12443 0.38228 0.02468 0.0
C963 C 0.16862 0.4029 0.99876 0.0
N964 N 0.07786 0.41469 0.02685 0.0
N965 N 0.14715 0.41788 0.00331 0.0
H966 H 0.19084 0.61645 0.51065 0.0
H967 H 0.03926 0.60435 0.45961 0.0
H968 H 0.1515 0.6818 0.47659 0.0
H969 H 0.08437 0.53847 0.48464 0.0
H970 H 0.07912 0.63358 0.46581 0.0
H971 H 0.15067 0.5883 0.50293 0.0
C972 C 0.17346 0.62496 0.50204 0.0
C973 C 0.17414 0.65158 0.49485 0.0
C974 C 0.08028 0.61267 0.46971 0.0
C975 C 0.12827 0.61935 0.4851 0.0
C976 C 0.05756 0.5959 0.46587 0.0
C977 C 0.05835 0.56882 0.47144 0.0
C978 C 0.1039 0.60228 0.47936 0.0
C979 C 0.08263 0.55919 0.48017 0.0
C980 C 0.15062 0.60885 0.49732 0.0
C981 C 0.15146 0.66145 0.48286 0.0
N982 N 0.10425 0.57585 0.48396 0.0
N983 N 0.12939 0.64537 0.47839 0.0
H984 H 0.80809 0.87927 0.50241 0.0
H985 H 0.96162 0.88715 0.46103 0.0
H986 H 0.85006 0.81038 0.47732 0.0
H987 H 0.91546 0.95511 0.48027 0.0
H988 H 0.92147 0.85841 0.46531 0.0
H989 H 0.84786 0.90716 0.49416 0.0
C990 C 0.82587 0.87007 0.49539 0.0
C991 C 0.82607 0.84257 0.49088 0.0
C992 C 0.92013 0.87966 0.4683 0.0
C993 C 0.87161 0.87425 0.48093 0.0
C994 C 0.94301 0.8961 0.46551 0.0
C995 C 0.94196 0.92363 0.47011 0.0
C996 C 0.8961 0.89086 0.47586 0.0
C997 C 0.91732 0.93401 0.47665 0.0
C998 C 0.84853 0.88594 0.4905 0.0
C999 C 0.84937 0.83155 0.48131 0.0
N1000 N 0.89554 0.91767 0.47945 0.0
N1001 N 0.87128 0.8474 0.4767 0.0
H1002 H 0.32602 0.61315 0.54579 0.0
H1003 H 0.48356 0.60484 0.55889 0.0
H1004 H 0.38084 0.66486 0.50417 0.0
H1005 H 0.43072 0.53579 0.56283 0.0
H1006 H 0.44514 0.63189 0.54991 0.0
H1007 H 0.36359 0.58854 0.56152 0.0
C1008 C 0.34578 0.61935 0.53974 0.0
C1009 C 0.34992 0.64131 0.52343 0.0
C1010 C 0.44199 0.61088 0.55318 0.0
C1011 C 0.39323 0.61364 0.54249 0.0
C1012 C 0.46384 0.59553 0.55865 0.0
C1013 C 0.46028 0.56806 0.56161 0.0
C1014 C 0.41644 0.5987 0.55114 0.0
C1015 C 0.4343 0.55691 0.56059 0.0
C1016 C 0.36726 0.6054 0.54904 0.0
C1017 C 0.37635 0.64855 0.51706 0.0
N1018 N 0.41339 0.57223 0.5554 0.0
N1019 N 0.3969 0.63486 0.52667 0.0
H1020 H 0.48733 0.68565 0.91059 0.0
H1021 H 0.56331 0.55173 0.93657 0.0
H1022 H 0.54975 0.65758 0.86025 0.0
H1023 H 0.5012 0.58136 0.98628 0.0
H1024 H 0.55956 0.59043 0.90868 0.0
H1025 H 0.4926 0.64745 0.93863 0.0
C1026 C 0.50206 0.67142 0.90533 0.0
C1027 C 0.51812 0.67498 0.88298 0.0
C1028 C 0.54679 0.58842 0.92574 0.0
C1029 C 0.52449 0.6311 0.91527 0.0
C1030 C 0.5489 0.56622 0.94164 0.0
C1031 C 0.53242 0.56291 0.96372 0.0
C1032 C 0.52806 0.60754 0.93197 0.0
C1033 C 0.51435 0.58282 0.96948 0.0
C1034 C 0.5052 0.64965 0.92147 0.0
C1035 C 0.53716 0.65595 0.87747 0.0
N1036 N 0.51262 0.60409 0.95371 0.0
N1037 N 0.53978 0.63487 0.89343 0.0
H1038 H 0.49126 0.87106 0.82468 0.0
H1039 H 0.51087 0.94292 0.96837 0.0
H1040 H 0.52128 0.83306 0.89361 0.0
H1041 H 0.48917 0.98516 0.89868 0.0
H1042 H 0.51214 0.90217 0.94139 0.0
H1043 H 0.48826 0.91264 0.8512 0.0
C1044 C 0.49741 0.87164 0.84538 0.0
C1045 C 0.5068 0.84883 0.857 0.0
C1046 C 0.50692 0.92027 0.93192 0.0
C1047 C 0.50308 0.89599 0.88754 0.0
C1048 C 0.50612 0.94365 0.94737 0.0
C1049 C 0.49969 0.96767 0.93589 0.0
C1050 C 0.50133 0.92063 0.90456 0.0
C1051 C 0.49371 0.96715 0.90854 0.0
C1052 C 0.49563 0.89527 0.86051 0.0
C1053 C 0.51422 0.85035 0.88392 0.0
N1054 N 0.49475 0.94405 0.89379 0.0
N1055 N 0.51217 0.87348 0.89825 0.0
H1056 H 0.53446 0.36077 0.7087 0.0
H1057 H 0.52314 0.4263 0.56599 0.0
H1058 H 0.50463 0.31945 0.63784 0.0
H1059 H 0.54232 0.47295 0.63728 0.0
H1060 H 0.5194 0.38668 0.59224 0.0
H1061 H 0.53956 0.40179 0.68353 0.0
C1062 C 0.52852 0.36055 0.68795 0.0
C1063 C 0.51848 0.33697 0.67542 0.0
C1064 C 0.52461 0.40549 0.60225 0.0
C1065 C 0.52499 0.38338 0.64634 0.0
C1066 C 0.52688 0.42821 0.58722 0.0
C1067 C 0.53324 0.45311 0.59937 0.0
C1068 C 0.52863 0.40739 0.62988 0.0
C1069 C 0.5379 0.45418 0.62697 0.0
C1070 C 0.5316 0.38384 0.67356 0.0
C1071 C 0.51178 0.3374 0.64836 0.0
N1072 N 0.53539 0.43166 0.64134 0.0
N1073 N 0.5152 0.36017 0.63476 0.0
H1074 H 0.47759 0.13962 0.67651 0.0
H1075 H 0.48416 0.0733 0.53038 0.0
H1076 H 0.5194 0.17545 0.61135 0.0
H1077 H 0.45411 0.03135 0.59791 0.0
H1078 H 0.49216 0.1128 0.55879 0.0
H1079 H 0.46455 0.10178 0.64727 0.0
C1080 C 0.48422 0.13953 0.6561 0.0
C1081 C 0.5 0.16078 0.64657 0.0
C1082 C 0.48358 0.09505 0.56741 0.0
C1083 C 0.48449 0.11747 0.61272 0.0
C1084 C 0.47892 0.07243 0.55117 0.0
C1085 C 0.46833 0.04882 0.56171 0.0
C1086 C 0.47772 0.09426 0.59457 0.0
C1087 C 0.46187 0.04908 0.58879 0.0
C1088 C 0.47654 0.11793 0.63936 0.0
C1089 C 0.50717 0.15972 0.61966 0.0
N1090 N 0.46682 0.07138 0.60432 0.0
N1091 N 0.49945 0.13843 0.60377 0.0
H1092 H 0.89684 0.52806 0.67972 0.0
H1093 H 0.90546 0.52292 0.52137 0.0
H1094 H 0.84039 0.48213 0.63012 0.0
H1095 H 0.97526 0.52885 0.57165 0.0
H1096 H 0.87796 0.51823 0.56122 0.0
H1097 H 0.92308 0.53729 0.64026 0.0
C1098 C 0.88992 0.51969 0.66074 0.0
C1099 C 0.86613 0.50416 0.65863 0.0
C1100 C 0.89929 0.52089 0.56346 0.0
C1101 C 0.89582 0.51576 0.61304 0.0
C1102 C 0.91493 0.52388 0.54079 0.0
C1103 C 0.94265 0.52633 0.54325 0.0
C1104 C 0.91147 0.52085 0.58872 0.0
C1105 C 0.95395 0.52692 0.5689 0.0
C1106 C 0.90487 0.52527 0.63814 0.0
C1107 C 0.85815 0.49463 0.63302 0.0
N1108 N 0.93834 0.52425 0.59063 0.0
N1109 N 0.87284 0.50071 0.61132 0.0
H1110 H 0.17074 0.96965 0.63655 0.0
H1111 H 0.02916 0.99137 0.57005 0.0
H1112 H 0.11373 0.0226 0.66957 0.0
H1113 H 0.09301 0.95582 0.52716 0.0
H1114 H 0.05851 0.99879 0.60841 0.0
H1115 H 0.1415 0.9609 0.59792 0.0
C1116 C 0.15204 0.97945 0.63566 0.0
C1117 C 0.1446 0.99682 0.65639 0.0
C1118 C 0.06611 0.98923 0.59066 0.0
C1119 C 0.11099 0.98677 0.61223 0.0
C1120 C 0.04931 0.98483 0.56869 0.0
C1121 C 0.05853 0.97279 0.54514 0.0
C1122 C 0.09245 0.98145 0.58936 0.0
C1123 C 0.08486 0.96477 0.54483 0.0
C1124 C 0.13542 0.9745 0.61356 0.0
C1125 C 0.12032 0.00921 0.654 0.0
N1126 N 0.10092 0.96928 0.56658 0.0
N1127 N 0.10431 0.0038 0.63243 0.0
H1128 H 0.89072 0.51459 0.81523 0.0
H1129 H 0.90327 0.48012 0.96962 0.0
H1130 H 0.82409 0.48802 0.86168 0.0
H1131 H 0.96924 0.50541 0.92139 0.0
H1132 H 0.87392 0.48188 0.93068 0.0
H1133 H 0.91961 0.51169 0.85438 0.0
C1134 C 0.88214 0.50868 0.83391 0.0
C1135 C 0.85493 0.50223 0.83553 0.0
C1136 C 0.89487 0.48683 0.92859 0.0
C1137 C 0.88793 0.49794 0.88027 0.0
C1138 C 0.91173 0.48545 0.95079 0.0
C1139 C 0.9389 0.49224 0.94882 0.0
C1140 C 0.90521 0.4952 0.90421 0.0
C1141 C 0.94846 0.49997 0.92395 0.0
C1142 C 0.89863 0.50672 0.85619 0.0
C1143 C 0.84491 0.49368 0.85988 0.0
N1144 N 0.9317 0.50128 0.90275 0.0
N1145 N 0.86138 0.4918 0.88132 0.0
H1146 H 0.13069 0.00883 0.81451 0.0
H1147 H 0.13124 0.0516 0.9695 0.0
H1148 H 0.20222 0.0346 0.8567 0.0
H1149 H 0.06059 0.03767 0.92135 0.0
H1150 H 0.15819 0.04594 0.92937 0.0
H1151 H 0.1051 0.01805 0.85464 0.0
C1152 C 0.14096 0.01614 0.83243 0.0
C1153 C 0.16851 0.02065 0.83256 0.0
C1154 C 0.13676 0.04445 0.92761 0.0
C1155 C 0.13948 0.03176 0.87849 0.0
C1156 C 0.12138 0.04805 0.95047 0.0
C1157 C 0.09359 0.04529 0.94882 0.0
C1158 C 0.12422 0.03784 0.90304 0.0
C1159 C 0.08194 0.03986 0.92367 0.0
C1160 C 0.12641 0.02163 0.85528 0.0
C1161 C 0.18097 0.0306 0.85606 0.0
N1162 N 0.09724 0.03615 0.90194 0.0
N1163 N 0.16638 0.03578 0.87816 0.0
H1164 H 0.65661 0.87108 0.55099 0.0
H1165 H 0.5347 0.92883 0.47338 0.0
H1166 H 0.63593 0.84749 0.46993 0.0
H1167 H 0.5373 0.92743 0.5589 0.0
H1168 H 0.57397 0.90208 0.47153 0.0
H1169 H 0.61538 0.89475 0.55413 0.0
C1170 C 0.64345 0.87065 0.53385 0.0
C1171 C 0.65002 0.85699 0.51012 0.0
C1172 C 0.56587 0.90735 0.49074 0.0
C1173 C 0.6028 0.88478 0.5136 0.0
C1174 C 0.54347 0.92266 0.49182 0.0
C1175 C 0.53261 0.93014 0.51636 0.0
C1176 C 0.578 0.89985 0.51441 0.0
C1177 C 0.54477 0.92165 0.53962 0.0
C1178 C 0.61989 0.88431 0.53571 0.0
C1179 C 0.63221 0.85796 0.4885 0.0
N1180 N 0.56704 0.90716 0.53811 0.0
N1181 N 0.60958 0.87165 0.49075 0.0
H1182 H 0.71433 0.13026 1.0007 0.0
H1183 H 0.55828 0.12221 0.96554 0.0
H1184 H 0.67026 0.1983 0.98046 0.0
H1185 H 0.60296 0.055 0.98767 0.0
H1186 H 0.59909 0.15024 0.96887 0.0
H1187 H 0.67357 0.10219 0.99532 0.0
C1188 C 0.69593 0.13922 0.99536 0.0
C1189 C 0.69541 0.16646 0.99113 0.0
C1190 C 0.59998 0.1293 0.97279 0.0
C1191 C 0.64887 0.13472 0.98455 0.0
C1192 C 0.57669 0.11322 0.97054 0.0
C1193 C 0.57714 0.08615 0.97608 0.0
C1194 C 0.62388 0.11822 0.98071 0.0
C1195 C 0.60158 0.07579 0.98326 0.0
C1196 C 0.67272 0.12327 0.99214 0.0
C1197 C 0.67124 0.17729 0.984 0.0
N1198 N 0.62385 0.09179 0.98543 0.0
N1199 N 0.64893 0.16139 0.98087 0.0
H1200 H 0.32536 0.3957 0.01859 0.0
H1201 H 0.48105 0.40875 0.98631 0.0
H1202 H 0.36933 0.33005 0.98849 0.0
H1203 H 0.4345 0.47336 0.01482 0.0
H1204 H 0.44097 0.37946 0.98605 0.0
H1205 H 0.36578 0.42415 0.01761 0.0
C1206 C 0.34374 0.38721 0.01226 0.0
C1207 C 0.34427 0.3604 0.00429 0.0
C1208 C 0.43954 0.40011 0.99218 0.0
C1209 C 0.39058 0.39296 0.00225 0.0
C1210 C 0.46241 0.41693 0.992 0.0
C1211 C 0.46123 0.44368 1.00031 0.0
C1212 C 0.41532 0.41011 1.00082 0.0
C1213 C 0.43651 0.4529 0.00829 0.0
C1214 C 0.36678 0.40347 0.01142 0.0
C1215 C 0.36834 0.35055 0.9953 0.0
N1216 N 0.41469 0.43621 0.00839 0.0
N1217 N 0.39057 0.3668 0.99455 0.0
H1218 H 0.85028 0.12423 0.97894 0.0
H1219 H 0.9968 0.11921 0.03958 0.0
H1220 H 0.88129 0.1836 0.03569 0.0
H1221 H 0.95298 0.05078 0.00614 0.0
H1222 H 0.95648 0.14477 0.03656 0.0
H1223 H 0.89004 0.09883 0.98564 0.0
C1224 C 0.8655 0.13195 0.99275 0.0
C1225 C 0.86241 0.156 0.00684 0.0
C1226 C 0.95573 0.12406 0.03017 0.0
C1227 C 0.90807 0.12709 0.0146 0.0
C1228 C 0.9787 0.10939 0.03217 0.0
C1229 C 0.97839 0.08271 0.02336 0.0
C1230 C 0.93244 0.11203 0.01887 0.0
C1231 C 0.95436 0.07131 0.0131 0.0
C1232 C 0.88812 0.11738 0.99671 0.0
C1233 C 0.88275 0.16498 0.02464 0.0
N1234 N 0.93254 0.08603 0.01095 0.0
N1235 N 0.90478 0.15062 0.02791 0.0
H1236 H 0.99961 0.16174 0.21454 0.0
H1237 H 0.05339 0.1658 0.06744 0.0
H1238 H 0.02417 0.2345 0.17763 0.0
H1239 H 0.01094 0.09757 0.09787 0.0
H1240 H 0.03884 0.19247 0.10549 0.0
H1241 H 1.00135 0.13836 0.17116 0.0
C1242 C 0.00529 0.17272 0.19717 0.0
C1243 C 0.01176 0.19997 0.19947 0.0
C1244 C 0.03211 0.17184 0.10359 0.0
C1245 C 0.01391 0.17353 0.1499 0.0
C1246 C 0.04018 0.15669 0.08169 0.0
C1247 C 0.03345 0.12944 0.0796 0.0
C1248 C 0.01769 0.15951 0.12386 0.0
C1249 C 0.01649 0.11854 0.0987 0.0
C1250 C 0.00612 0.15948 0.17243 0.0
C1251 C 0.01912 0.21342 0.17655 0.0
N1252 N 0.00971 0.13346 0.1204 0.0
N1253 N 0.02018 0.20003 0.15273 0.0
H1254 H 0.03524 0.36499 0.2023 0.0
H1255 H 0.98089 0.37114 0.0535 0.0
H1256 H 0.98595 0.30382 0.16261 0.0
H1257 H 0.02253 0.43691 0.09421 0.0
H1258 H 0.99249 0.34252 0.0897 0.0
H1259 H 0.03857 0.38843 0.16045 0.0
C1260 C 0.02522 0.35643 0.18476 0.0
C1261 C 0.00998 0.33258 0.18604 0.0
C1262 C 0.99964 0.36306 0.09052 0.0
C1263 C 0.01392 0.35917 0.13806 0.0
C1264 C 0.99331 0.37931 0.06967 0.0
C1265 C 1.00044 0.40648 0.07111 0.0
C1266 C 0.0129 0.37414 0.11312 0.0
C1267 C 0.01656 0.41608 0.09243 0.0
C1268 C 0.02718 0.3698 0.16087 0.0
C1269 C 0.99741 0.32243 0.1627 0.0
N1270 N 0.02172 0.40005 0.11299 0.0
N1271 N 0.99958 0.33582 0.13974 0.0
H1272 H 0.97719 0.84513 0.28198 0.0
H1273 H 0.01836 0.84447 0.43328 0.0
H1274 H 1.00165 0.77442 0.31963 0.0
H1275 H 0.9749 0.90729 0.39925 0.0
H1276 H 0.00729 0.81619 0.39419 0.0
H1277 H 0.97325 0.867 0.32577 0.0
C1278 C 0.98161 0.83426 0.29962 0.0
C1279 C 0.98963 0.80803 0.29745 0.0
C1280 C 0.99953 0.83589 0.39554 0.0
C1281 C 0.98538 0.83279 0.34753 0.0
C1282 C 0.00559 0.85194 0.41801 0.0
C1283 C 0.99788 0.87838 0.41927 0.0
C1284 C 0.98606 0.84656 0.37405 0.0
C1285 C 0.98138 0.88708 0.399 0.0
C1286 C 0.97919 0.84661 0.32458 0.0
C1287 C 0.99541 0.79472 0.32068 0.0
N1288 N 0.97663 0.87145 0.37683 0.0
N1289 N 0.99336 0.80732 0.34483 0.0
H1290 H 0.03098 0.65754 0.28888 0.0
H1291 H 0.97923 0.64669 0.43779 0.0
H1292 H 0.97326 0.70781 0.32487 0.0
H1293 H 0.02282 0.58536 0.39849 0.0
H1294 H 0.9874 0.67523 0.4002 0.0
H1295 H 0.03617 0.6356 0.33138 0.0
C1296 C 0.01939 0.66393 0.30573 0.0
C1297 C 1.00138 0.68429 0.30327 0.0
C1298 C 0.99573 0.65577 0.4 0.0
C1299 C 0.00762 0.65967 0.35199 0.0
C1300 C 0.99143 0.63962 0.42166 0.0
C1301 C 1.00001 0.6135 0.42103 0.0
C1302 C 0.00858 0.64565 0.37749 0.0
C1303 C 0.01576 0.60535 0.39969 0.0
C1304 C 0.02244 0.65148 0.32997 0.0
C1305 C 0.98693 0.69184 0.32573 0.0
N1306 N 0.01901 0.62115 0.37839 0.0
N1307 N 0.99036 0.67954 0.34911 0.0
H1308 H 0.22627 0.98284 0.1553 0.0
H1309 H 0.08535 0.0432 0.14584 0.0
H1310 H 0.18349 0.00778 0.22473 0.0
H1311 H 0.11911 0.99825 0.0813 0.0
H1312 H 0.11789 0.02574 0.17629 0.0
H1313 H 0.18566 0.98511 0.1286 0.0
C1314 C 0.20812 0.98846 0.16491 0.0
C1315 C 0.20796 0.99484 0.1922 0.0
C1316 C 0.1178 0.01908 0.15563 0.0
C1317 C 0.16158 0.99802 0.16182 0.0
C1318 C 0.09907 0.02887 0.13829 0.0
C1319 C 0.09977 0.02232 0.11103 0.0
C1320 C 0.13774 0.00313 0.14547 0.0
C1321 C 0.11795 0.00379 0.1022 0.0
C1322 C 0.18494 0.98968 0.14974 0.0
C1323 C 0.18422 0.00258 0.20373 0.0
N1324 N 0.13671 0.99535 0.11927 0.0
N1325 N 0.16197 0.00418 0.18842 0.0
H1326 H 0.79954 0.53914 0.16191 0.0
H1327 H 0.94682 0.48851 0.14475 0.0
H1328 H 0.83542 0.48112 0.21057 0.0
H1329 H 0.90643 0.5292 0.08314 0.0
H1330 H 0.91 0.49663 0.17462 0.0
H1331 H 0.84124 0.54416 0.13735 0.0
C1332 C 0.8162 0.52748 0.16742 0.0
C1333 C 0.81391 0.5094 0.18808 0.0
C1334 C 0.90939 0.50436 0.15478 0.0
C1335 C 0.86173 0.51549 0.1605 0.0
C1336 C 0.93062 0.50011 0.13786 0.0
C1337 C 0.92954 0.508 0.11139 0.0
C1338 C 0.88677 0.51642 0.14512 0.0
C1339 C 0.90804 0.52284 0.10344 0.0
C1340 C 0.83997 0.53042 0.15346 0.0
C1341 C 0.83612 0.49487 0.19445 0.0
N1342 N 0.88715 0.52608 0.12007 0.0
N1343 N 0.85904 0.49825 0.18075 0.0
H1344 H 0.17175 0.96513 0.28806 0.0
H1345 H 0.08986 0.00856 0.41532 0.0
H1346 H 0.20347 0.02033 0.34849 0.0
H1347 H 0.05665 0.96181 0.34908 0.0
H1348 H 0.12943 0.01848 0.38897 0.0
H1349 H 0.12825 0.96696 0.30869 0.0
C1350 C 0.16959 0.97748 0.30582 0.0
C1351 C 0.19138 0.9923 0.31677 0.0
C1352 C 0.1132 0.0066 0.37996 0.0
C1353 C 0.14137 0.99487 0.34038 0.0
C1354 C 0.09042 1.00126 0.39488 0.0
C1355 C 0.07007 0.98407 0.38447 0.0
C1356 C 0.1156 0.99453 0.35457 0.0
C1357 C 0.07201 0.97494 0.35796 0.0
C1358 C 0.14465 0.9788 0.31743 0.0
C1359 C 0.18722 0.00853 0.33942 0.0
N1360 N 0.09457 0.97983 0.34414 0.0
N1361 N 0.16278 0.00919 0.35063 0.0
H1362 H 0.83118 0.51005 0.27793 0.0
H1363 H 0.91329 0.48028 0.41003 0.0
H1364 H 0.7965 0.4812 0.34995 0.0
H1365 H 0.94501 0.52672 0.34627 0.0
H1366 H 0.87375 0.46913 0.38274 0.0
H1367 H 0.87555 0.5073 0.29826 0.0
C1368 C 0.83304 0.50303 0.29798 0.0
C1369 C 0.81041 0.49574 0.31235 0.0
C1370 C 0.88967 0.48122 0.37446 0.0
C1371 C 0.8607 0.49222 0.33556 0.0
C1372 C 0.91247 0.48721 0.38987 0.0
C1373 C 0.93225 0.50482 0.38055 0.0
C1374 C 0.88681 0.4928 0.34956 0.0
C1375 C 0.93003 0.51333 0.35431 0.0
C1376 C 0.85825 0.50131 0.30951 0.0
C1377 C 0.81362 0.48682 0.33826 0.0
N1378 N 0.90746 0.50769 0.33992 0.0
N1379 N 0.8383 0.48531 0.34905 0.0
H1380 H 0.24961 0.19345 0.00394 0.0
H1381 H 0.11099 0.11341 0.97956 0.0
H1382 H 0.17953 0.22715 0.97173 0.0
H1383 H 0.17548 0.08516 0.02636 0.0
H1384 H 0.14026 0.15006 0.96507 0.0
H1385 H 0.22649 0.14957 0.00264 0.0
C1386 C 0.22944 0.19143 0.99631 0.0
C1387 C 0.21641 0.21367 0.98777 0.0
C1388 C 0.1482 0.13543 0.97797 0.0
C1389 C 0.18987 0.1639 0.98618 0.0
C1390 C 0.13161 0.11428 0.9859 0.0
C1391 C 0.14076 0.09654 0.00451 0.0
C1392 C 0.17406 0.13863 0.98867 0.0
C1393 C 0.1676 0.09868 0.01225 0.0
C1394 C 0.21629 0.16648 0.99547 0.0
C1395 C 0.19025 0.21029 0.97822 0.0
N1396 N 0.18317 0.11966 0.00471 0.0
N1397 N 0.17779 0.18589 0.97777 0.0
H1398 H 0.14539 0.78865 0.52302 0.0
H1399 H 0.1386 0.93492 0.46722 0.0
H1400 H 0.20137 0.82321 0.4684 0.0
H1401 H 0.07461 0.89737 0.51023 0.0
H1402 H 0.16634 0.89778 0.47681 0.0
H1403 H 0.12277 0.83077 0.52557 0.0
C1404 C 0.1529 0.8051 0.51155 0.0
C1405 C 0.17512 0.80232 0.49521 0.0
C1406 C 0.14643 0.89785 0.48466 0.0
C1407 C 0.14961 0.85066 0.49838 0.0
C1408 C 0.13071 0.91926 0.47953 0.0
C1409 C 0.10419 0.91905 0.48768 0.0
C1410 C 0.13549 0.87595 0.49789 0.0
C1411 C 0.09496 0.89828 0.50354 0.0
C1412 C 0.14004 0.82914 0.51309 0.0
C1413 C 0.184 0.82428 0.48081 0.0
N1414 N 0.11041 0.87721 0.50766 0.0
N1415 N 0.17124 0.84747 0.48274 0.0
H1416 H 0.78918 0.66039 0.47672 0.0
H1417 H 0.92395 0.5915 0.51288 0.0
H1418 H 0.85282 0.69928 0.52285 0.0
H1419 H 0.86103 0.55452 0.46451 0.0
H1420 H 0.89454 0.62736 0.52495 0.0
H1421 H 0.8123 0.61886 0.47831 0.0
C1422 C 0.8081 0.66024 0.48707 0.0
C1423 C 0.81923 0.6835 0.49933 0.0
C1424 C 0.88694 0.61105 0.51223 0.0
C1425 C 0.84572 0.63574 0.50164 0.0
C1426 C 0.90361 0.59034 0.50567 0.0
C1427 C 0.89503 0.57027 0.48731 0.0
C1428 C 0.86161 0.61151 0.50033 0.0
C1429 C 0.86853 0.56985 0.47845 0.0
C1430 C 0.82118 0.63642 0.48824 0.0
C1431 C 0.84348 0.68186 0.5131 0.0
N1432 N 0.85295 0.59044 0.48461 0.0
N1433 N 0.85602 0.65849 0.51367 0.0
H1434 H 0.26468 0.82135 0.50489 0.0
H1435 H 0.40204 0.90116 0.47884 0.0
H1436 H 0.33802 0.78515 0.4847 0.0
H1437 H 0.33871 0.93385 0.52471 0.0
H1438 H 0.3733 0.862 0.46791 0.0
H1439 H 0.28721 0.86543 0.50199 0.0
C1440 C 0.28549 0.8228 0.49978 0.0
C1441 C 0.29959 0.79984 0.49489 0.0
C1442 C 0.36546 0.87808 0.47978 0.0
C1443 C 0.32522 0.84971 0.491 0.0
C1444 C 0.38171 0.90066 0.48563 0.0
C1445 C 0.37284 0.92054 0.50304 0.0
C1446 C 0.3402 0.87563 0.49126 0.0
C1447 C 0.34636 0.91875 0.51145 0.0
C1448 C 0.29826 0.84782 0.49793 0.0
C1449 C 0.32651 0.80252 0.4884 0.0
N1450 N 0.3311 0.89642 0.50591 0.0
N1451 N 0.33844 0.82701 0.48655 0.0
H1452 H 0.51461 0.73293 0.69819 0.0
H1453 H 0.49332 0.58634 0.63374 0.0
H1454 H 0.49178 0.66412 0.74252 0.0
H1455 H 0.53512 0.65055 0.5954 0.0
H1456 H 0.48105 0.61746 0.66954 0.0
H1457 H 0.51265 0.7054 0.65704 0.0
C1458 C 0.5091 0.712 0.69913 0.0
C1459 C 0.50342 0.70065 0.72359 0.0
C1460 C 0.4923 0.62487 0.65291 0.0
C1461 C 0.50078 0.66913 0.67684 0.0
C1462 C 0.49889 0.6072 0.63224 0.0
C1463 C 0.51543 0.6159 0.61175 0.0
C1464 C 0.50218 0.65135 0.65283 0.0
C1465 C 0.52246 0.64307 0.61098 0.0
C1466 C 0.50783 0.69634 0.67573 0.0
C1467 C 0.49628 0.6735 0.72393 0.0
N1468 N 0.51618 0.65975 0.63144 0.0
N1469 N 0.49521 0.65863 0.70091 0.0
H1470 H 0.52822 0.86255 0.70612 0.0
H1471 H 0.46116 0.85343 0.5615 0.0
H1472 H 0.47342 0.79965 0.67842 0.0
H1473 H 0.50371 0.92332 0.59319 0.0
H1474 H 0.47506 0.82911 0.60019 0.0
H1475 H 0.52727 0.8813 0.66179 0.0
C1476 C 0.51607 0.85262 0.69067 0.0
C1477 C 0.50062 0.82966 0.69606 0.0
C1478 C 0.48196 0.84958 0.59837 0.0
C1479 C 0.49965 0.85087 0.64524 0.0
C1480 C 0.47434 0.86335 0.5761 0.0
C1481 C 0.48132 0.89042 0.57412 0.0
C1482 C 0.49647 0.86304 0.61894 0.0
C1483 C 0.4982 0.90239 0.59372 0.0
C1484 C 0.51557 0.86332 0.66538 0.0
C1485 C 0.48522 0.81767 0.67531 0.0
N1486 N 0.50478 0.88876 0.6156 0.0
N1487 N 0.48508 0.82844 0.65087 0.0
H1488 H 0.4874 0.35818 0.8137 0.0
H1489 H 0.54211 0.36772 0.96328 0.0
H1490 H 0.5454 0.30717 0.8462 0.0
H1491 H 0.49657 0.42868 0.92859 0.0
H1492 H 0.53364 0.33956 0.92362 0.0
H1493 H 0.48306 0.37965 0.85773 0.0
C1494 C 0.49923 0.35152 0.83011 0.0
C1495 C 0.51706 0.33109 0.82623 0.0
C1496 C 0.52498 0.35886 0.92486 0.0
C1497 C 0.51184 0.35522 0.87667 0.0
C1498 C 0.52949 0.37479 0.94768 0.0
C1499 C 0.52037 0.40071 0.94902 0.0
C1500 C 0.51141 0.36899 0.90315 0.0
C1501 C 0.50406 0.40885 0.92829 0.0
C1502 C 0.49666 0.3637 0.85522 0.0
C1503 C 0.53184 0.3232 0.84817 0.0
N1504 N 0.5006 0.39327 0.90586 0.0
N1505 N 0.52891 0.33528 0.8724 0.0
H1506 H 0.51476 0.24049 0.83533 0.0
H1507 H 0.54278 0.10288 0.90405 0.0
H1508 H 0.53867 0.16996 0.79323 0.0
H1509 H 0.50042 0.16585 0.9421 0.0
H1510 H 0.55275 0.13196 0.86699 0.0
H1511 H 0.51833 0.21722 0.87747 0.0
C1512 C 0.52082 0.22012 0.83509 0.0
C1513 C 0.5265 0.20703 0.81102 0.0
C1514 C 0.54184 0.13964 0.88378 0.0
C1515 C 0.531 0.18048 0.85878 0.0
C1516 C 0.53656 0.12319 0.90516 0.0
C1517 C 0.52047 0.13189 0.92598 0.0
C1518 C 0.53107 0.16494 0.88341 0.0
C1519 C 0.51269 0.15833 0.92626 0.0
C1520 C 0.52303 0.20691 0.85903 0.0
C1521 C 0.53426 0.18067 0.81153 0.0
N1522 N 0.51764 0.17378 0.90506 0.0
N1523 N 0.53631 0.16825 0.83502 0.0
H1524 H 0.68548 0.50887 0.75021 0.0
H1525 H 0.60202 0.48339 0.6152 0.0
H1526 H 0.71694 0.476 0.67769 0.0
H1527 H 0.57615 0.53171 0.68135 0.0
H1528 H 0.63899 0.4692 0.64261 0.0
H1529 H 0.64118 0.50808 0.72922 0.0
C1530 C 0.68289 0.50129 0.72994 0.0
C1531 C 0.7046 0.49238 0.7156 0.0
C1532 C 0.62481 0.48237 0.65135 0.0
C1533 C 0.65437 0.49122 0.69155 0.0
C1534 C 0.60347 0.49013 0.63583 0.0
C1535 C 0.58632 0.50906 0.64595 0.0
C1536 C 0.62882 0.49359 0.67708 0.0
C1537 C 0.5892 0.51732 0.67275 0.0
C1538 C 0.65771 0.50071 0.71801 0.0
C1539 C 0.7005 0.48284 0.68937 0.0
N1540 N 0.61037 0.50995 0.68725 0.0
N1541 N 0.67588 0.48257 0.67815 0.0
H1542 H 0.32767 0.99887 0.72389 0.0
H1543 H 0.39084 0.01497 0.57939 0.0
H1544 H 0.28261 0.01474 0.6534 0.0
H1545 H 0.42998 0.97699 0.64367 0.0
H1546 H 0.35498 0.02648 0.60967 0.0
H1547 H 0.36844 0.99982 0.69744 0.0
C1548 C 0.32647 0.00246 0.70279 0.0
C1549 C 0.30195 0.0066 0.69065 0.0
C1550 C 0.37176 0.01621 0.6173 0.0
C1551 C 0.34823 0.00833 0.66048 0.0
C1552 C 0.39246 0.01007 0.60014 0.0
C1553 C 0.41324 0.99482 0.60903 0.0
C1554 C 0.37209 0.00719 0.64348 0.0
C1555 C 0.41418 0.98864 0.63604 0.0
C1556 C 0.34965 0.00322 0.68778 0.0
C1557 C 0.30126 0.01139 0.66335 0.0
N1558 N 0.39367 0.99448 0.65223 0.0
N1559 N 0.32407 0.01217 0.64917 0.0
H1560 H 0.68195 0.52828 0.80827 0.0
H1561 H 0.56708 0.49726 0.88089 0.0
H1562 H 0.71768 0.49096 0.87493 0.0
H1563 H 0.61596 0.51949 0.94925 0.0
H1564 H 0.60534 0.50549 0.85217 0.0
H1565 H 0.6413 0.53353 0.83413 0.0
C1566 C 0.68119 0.52129 0.82841 0.0
C1567 C 0.703 0.50896 0.83951 0.0
C1568 C 0.60746 0.50952 0.87336 0.0
C1569 C 0.65692 0.51518 0.86914 0.0
C1570 C 0.58558 0.50505 0.8897 0.0
C1571 C 0.58831 0.50809 0.91739 0.0
C1572 C 0.63237 0.51625 0.88494 0.0
C1573 C 0.61293 0.51741 0.92794 0.0
C1574 C 0.65805 0.52423 0.84306 0.0
C1575 C 0.70114 0.50029 0.86565 0.0
N1576 N 0.63425 0.52039 0.91177 0.0
N1577 N 0.67852 0.50371 0.87967 0.0
H1578 H 0.31534 0.99103 0.85467 0.0
H1579 H 0.46569 0.04391 0.85237 0.0
H1580 H 0.34975 0.03616 0.79116 0.0
H1581 H 0.43193 0.99935 0.91644 0.0
H1582 H 0.42624 0.03253 0.82533 0.0
H1583 H 0.35953 0.9874 0.87415 0.0
C1584 C 0.33221 1.00011 0.84475 0.0
C1585 C 0.32877 0.01415 0.82135 0.0
C1586 C 0.42767 0.02466 0.84506 0.0
C1587 C 0.37952 0.00999 0.84357 0.0
C1588 C 0.45038 0.03085 0.86036 0.0
C1589 C 0.45181 0.02298 0.88684 0.0
C1590 C 0.40617 0.01076 0.85645 0.0
C1591 C 0.43151 0.00601 0.89619 0.0
C1592 C 0.35746 0.99795 0.85586 0.0
C1593 C 0.35136 0.02564 0.80951 0.0
N1594 N 0.40914 1.00104 0.88126 0.0
N1595 N 0.37573 0.0234 0.82081 0.0
H1596 H 0.6513 0.7138 0.49898 0.0
H1597 H 0.65555 0.56992 0.555 0.0
H1598 H 0.72472 0.67738 0.51762 0.0
H1599 H 0.58696 0.59788 0.51432 0.0
H1600 H 0.68233 0.6067 0.53747 0.0
H1601 H 0.6278 0.67051 0.50211 0.0
C1602 C 0.66241 0.69654 0.50355 0.0
C1603 C 0.68987 0.69893 0.50799 0.0
C1604 C 0.66159 0.60446 0.53177 0.0
C1605 C 0.66329 0.64953 0.51186 0.0
C1606 C 0.64635 0.58331 0.54158 0.0
C1607 C 0.61899 0.58103 0.53626 0.0
C1608 C 0.64921 0.6238 0.51706 0.0
C1609 C 0.608 0.59895 0.51888 0.0
C1610 C 0.64909 0.67185 0.50519 0.0
C1611 C 0.70348 0.67619 0.51411 0.0
N1612 N 0.62301 0.62002 0.51044 0.0
N1613 N 0.69002 0.65243 0.51609 0.0
H1614 H 0.67249 0.31059 0.03155 0.0
H1615 H 0.65774 0.46388 1.00164 0.0
H1616 H 0.71805 0.35563 0.97489 0.0
H1617 H 0.59427 0.41672 0.03562 0.0
H1618 H 0.68688 0.42671 0.00558 0.0
H1619 H 0.64855 0.35074 0.04322 0.0
C1620 C 0.67742 0.32878 0.02147 0.0
C1621 C 0.69748 0.32964 0.00224 0.0
C1622 C 0.66677 0.42466 0.01281 0.0
C1623 C 0.67091 0.37569 0.01629 0.0
C1624 C 0.65028 0.44603 0.01097 0.0
C1625 C 0.62351 0.44315 0.01791 0.0
C1626 C 0.65629 0.4002 0.02139 0.0
C1627 C 0.61481 0.41963 0.02992 0.0
C1628 C 0.66399 0.35172 0.02843 0.0
C1629 C 0.70322 0.35395 0.99021 0.0
N1630 N 0.63098 0.39867 0.03063 0.0
N1631 N 0.6901 0.3759 0.99748 0.0
H1632 H 0.36486 0.22197 0.03709 0.0
H1633 H 0.44425 0.11257 0.01828 0.0
H1634 H 0.32188 0.18858 0.96866 0.0
H1635 H 0.38029 0.0801 0.96837 0.0
H1636 H 0.41745 0.15028 0.02985 0.0
H1637 H 0.38837 0.18083 0.04039 0.0
C1638 C 0.36045 0.20601 0.02266 0.0
C1639 C 0.34158 0.20896 0.00231 0.0
C1640 C 0.40874 0.13458 0.01711 0.0
C1641 C 0.36886 0.16168 0.00566 0.0
C1642 C 0.42409 0.11279 0.0107 0.0
C1643 C 0.41463 0.09336 0.99204 0.0
C1644 C 0.38374 0.13678 0.0048 0.0
C1645 C 0.38847 0.09483 0.98259 0.0
C1646 C 0.37408 0.18248 0.02444 0.0
C1647 C 0.33668 0.18754 0.98427 0.0
N1648 N 0.37421 0.11642 0.98861 0.0
N1649 N 0.35022 0.16493 0.98638 0.0
H1650 H 0.87791 0.29195 0.97942 0.0
H1651 H 0.86091 0.44494 0.01434 0.0
H1652 H 0.80434 0.32577 0.00312 0.0
H1653 H 0.93313 0.41466 0.98253 0.0
H1654 H 0.83796 0.40264 0.00282 0.0
H1655 H 0.89766 0.3371 0.97562 0.0
C1656 C 0.86598 0.3089 0.98374 0.0
C1657 C 0.83952 0.30521 0.99154 0.0
C1658 C 0.85868 0.40535 0.99772 0.0
C1659 C 0.86165 0.35664 0.98708 0.0
C1660 C 0.87166 0.42968 0.00395 0.0
C1661 C 0.89896 0.43316 0.99962 0.0
C1662 C 0.87326 0.38419 0.9876 0.0
C1663 C 0.91203 0.41274 0.98622 0.0
C1664 C 0.87711 0.33459 0.98138 0.0
C1665 C 0.82478 0.32771 0.99693 0.0
N1666 N 0.89924 0.3888 0.98134 0.0
N1667 N 0.83605 0.35239 0.99471 0.0
loop_
_geom_bond_atom_site_label_1
_geom_bond_atom_site_label_2
_geom_bond_distance
_geom_bond_site_symmetry_2
_ccdc_geom_bond_type
C0 C1 1.443 . S
C0 N4 1.376 . S
C0 C38 1.389 . S
C1 C0 1.443 . S
C1 C2 1.340 . S
C1 H41 0.951 . S
C2 C1 1.340 . S
C2 C3 1.439 . S
C2 H42 0.950 . S
C3 C2 1.439 . S
C3 N4 1.374 . S
C3 C37 1.395 . S
N4 C0 1.376 . S
N4 C3 1.374 . S
N4 Co5 2.008 1_655 S
Co5 N4 2.008 1_455 S
Co5 N6 1.995 1_455 S
Co5 N11 2.008 . S
Co5 N16 1.995 . S
Co5 N21 2.282 . S
Co5 N27 2.282 . S
N6 Co5 1.995 1_655 S
N6 C7 1.376 . S
N6 C10 1.383 . S
C7 N6 1.376 . S
C7 C8 1.446 . S
C7 C37 1.391 . S
C8 C7 1.446 . S
C8 C9 1.339 . S
C8 H43 0.949 . S
C9 C8 1.339 . S
C9 C10 1.439 . S
C9 H44 0.950 . S
C10 N6 1.383 . S
C10 C9 1.439 . S
C10 C39 1.392 1_655 S
N11 Co5 2.008 . S
N11 C12 1.376 . S
N11 C15 1.374 . S
C12 N11 1.376 . S
C12 C13 1.443 . S
C12 C39 1.389 . S
C13 C12 1.443 . S
C13 C14 1.340 . S
C13 H45 0.951 . S
C14 C13 1.340 . S
C14 C15 1.439 . S
C14 H46 0.950 . S
C15 N11 1.374 . S
C15 C14 1.439 . S
C15 C40 1.395 . S
N16 Co5 1.995 . S
N16 C17 1.376 . S
N16 C20 1.383 . S
C17 N16 1.376 . S
C17 C18 1.446 . S
C17 C40 1.391 . S
C18 C17 1.446 . S
C18 C19 1.339 . S
C18 H47 0.949 . S
C19 C18 1.339 . S
C19 C20 1.439 . S
C19 H48 0.950 . S
C20 N16 1.383 . S
C20 C19 1.439 . S
C20 C38 1.392 1_455 S
N21 Co5 2.282 . S
N21 C24 1.332 . S
N21 C26 1.332 1_455 S
C22 C23 1.386 . S
C22 C25 1.388 . S
C23 C22 1.386 . S
C23 C24 1.382 . S
C23 H49 0.950 . S
C24 N21 1.332 . S
C24 C23 1.382 . S
C24 H35 0.952 . S
C25 C22 1.388 . S
C25 C26 1.382 1_455 S
C25 H50 0.950 1_455 S
C26 N21 1.332 1_655 S
C26 C25 1.382 1_655 S
C26 H36 0.948 . S
N27 Co5 2.282 . S
N27 C31 1.332 1_455 S
N27 C32 1.332 . S
C28 C29 1.388 1_455 S
C28 C32 1.382 . S
C28 H51 0.950 . S
C29 C28 1.388 1_655 S
C29 C30 1.386 . S
C30 C29 1.386 . S
C30 C31 1.382 . S
C30 H52 0.950 . S
C31 N27 1.332 1_655 S
C31 C30 1.382 . S
C31 H33 0.952 . S
C32 N27 1.332 . S
C32 C28 1.382 . S
C32 H34 0.948 . S
H33 C31 0.952 . S
H34 C32 0.948 . S
H35 C24 0.952 . S
H36 C26 0.948 . S
C37 C3 1.395 . S
C37 C7 1.391 . S
C38 C0 1.389 . S
C38 C20 1.392 1_655 S
C39 C10 1.392 1_455 S
C39 C12 1.389 . S
C40 C15 1.395 . S
C40 C17 1.391 . S
H41 C1 0.951 . S
H42 C2 0.950 . S
H43 C8 0.949 . S
H44 C9 0.950 . S
H45 C13 0.951 . S
H46 C14 0.950 . S
H47 C18 0.949 . S
H48 C19 0.950 . S
H49 C23 0.950 . S
H50 C25 0.950 1_655 S
H51 C28 0.950 . S
H52 C30 0.950 . S
C53 C54 1.443 . S
C53 N57 1.376 . S
C53 C91 1.389 . S
C54 C53 1.443 . S
C54 C55 1.340 . S
C54 H94 0.951 . S
C55 C54 1.340 . S
C55 C56 1.439 . S
C55 H95 0.950 . S
C56 C55 1.439 . S
C56 N57 1.374 . S
C56 C90 1.395 . S
N57 C53 1.376 . S
N57 C56 1.374 . S
N57 Co58 2.008 1_655 S
Co58 N57 2.008 1_455 S
Co58 N59 1.995 1_455 S
Co58 N64 2.008 . S
Co58 N69 1.995 . S
Co58 N74 2.282 . S
Co58 N80 2.282 1_455 S
N59 Co58 1.995 1_655 S
N59 C60 1.376 . S
N59 C63 1.383 . S
C60 N59 1.376 . S
C60 C61 1.446 . S
C60 C90 1.391 . S
C61 C60 1.446 . S
C61 C62 1.339 . S
C61 H96 0.949 . S
C62 C61 1.339 . S
C62 C63 1.439 . S
C62 H97 0.950 . S
C63 N59 1.383 . S
C63 C62 1.439 . S
C63 C92 1.392 1_655 S
N64 Co58 2.008 . S
N64 C65 1.376 . S
N64 C68 1.374 . S
C65 N64 1.376 . S
C65 C66 1.443 . S
C65 C92 1.389 . S
C66 C65 1.443 . S
C66 C67 1.340 . S
C66 H98 0.951 . S
C67 C66 1.340 . S
C67 C68 1.439 . S
C67 H99 0.950 . S
C68 N64 1.374 . S
C68 C67 1.439 . S
C68 C93 1.395 . S
N69 Co58 1.995 . S
N69 C70 1.376 . S
N69 C73 1.383 . S
C70 N69 1.376 . S
C70 C71 1.446 . S
C70 C93 1.391 . S
C71 C70 1.446 . S
C71 C72 1.339 . S
C71 H100 0.949 . S
C72 C71 1.339 . S
C72 C73 1.439 . S
C72 H101 0.950 . S
C73 N69 1.383 . S
C73 C72 1.439 . S
C73 C91 1.392 1_455 S
N74 Co58 2.282 . S
N74 C77 1.332 . S
N74 C79 1.332 1_455 S
C75 C76 1.386 . S
C75 C78 1.388 1_455 S
C76 C75 1.386 . S
C76 C77 1.382 . S
C76 H102 0.950 . S
C77 N74 1.332 . S
C77 C76 1.382 . S
C77 H88 0.952 . S
C78 C75 1.388 1_655 S
C78 C79 1.382 . S
C78 H103 0.950 . S
C79 N74 1.332 1_655 S
C79 C78 1.382 . S
C79 H89 0.948 . S
N80 Co58 2.282 1_655 S
N80 C84 1.332 . S
N80 C85 1.332 1_655 S
C81 C82 1.388 1_455 S
C81 C85 1.382 . S
C81 H104 0.950 . S
C82 C81 1.388 1_655 S
C82 C83 1.386 . S
C83 C82 1.386 . S
C83 C84 1.382 . S
C83 H105 0.950 . S
C84 N80 1.332 . S
C84 C83 1.382 . S
C84 H86 0.952 . S
C85 N80 1.332 1_455 S
C85 C81 1.382 . S
C85 H87 0.948 . S
H86 C84 0.952 . S
H87 C85 0.948 . S
H88 C77 0.952 . S
H89 C79 0.948 . S
C90 C56 1.395 . S
C90 C60 1.391 . S
C91 C53 1.389 . S
C91 C73 1.392 1_655 S
C92 C63 1.392 1_455 S
C92 C65 1.389 . S
C93 C68 1.395 . S
C93 C70 1.391 . S
H94 C54 0.951 . S
H95 C55 0.950 . S
H96 C61 0.949 . S
H97 C62 0.950 . S
H98 C66 0.951 . S
H99 C67 0.950 . S
H100 C71 0.949 . S
H101 C72 0.950 . S
H102 C76 0.950 . S
H103 C78 0.950 . S
H104 C81 0.950 . S
H105 C83 0.950 . S
C106 C107 1.443 . S
C106 N110 1.376 . S
C106 C144 1.389 . S
C107 C106 1.443 . S
C107 C108 1.340 . S
C107 H147 0.951 . S
C108 C107 1.340 . S
C108 C109 1.439 . S
C108 H148 0.950 . S
C109 C108 1.439 . S
C109 N110 1.374 . S
C109 C143 1.395 . S
N110 C106 1.376 . S
N110 C109 1.374 . S
N110 Co111 2.008 1_565 S
Co111 N110 2.008 1_545 S
Co111 N112 1.995 1_545 S
Co111 N117 2.008 . S
Co111 N122 1.995 . S
Co111 N127 2.282 . S
Co111 N133 2.282 . S
N112 Co111 1.995 1_565 S
N112 C113 1.376 . S
N112 C116 1.383 . S
C113 N112 1.376 . S
C113 C114 1.446 . S
C113 C143 1.391 . S
C114 C113 1.446 . S
C114 C115 1.339 . S
C114 H149 0.949 . S
C115 C114 1.339 . S
C115 C116 1.439 . S
C115 H150 0.950 . S
C116 N112 1.383 . S
C116 C115 1.439 . S
C116 C145 1.392 1_565 S
N117 Co111 2.008 . S
N117 C118 1.376 . S
N117 C121 1.374 . S
C118 N117 1.376 . S
C118 C119 1.443 . S
C118 C145 1.389 . S
C119 C118 1.443 . S
C119 C120 1.340 . S
C119 H151 0.951 . S
C120 C119 1.340 . S
C120 C121 1.439 . S
C120 H152 0.950 . S
C121 N117 1.374 . S
C121 C120 1.439 . S
C121 C146 1.395 . S
N122 Co111 1.995 . S
N122 C123 1.376 . S
N122 C126 1.383 . S
C123 N122 1.376 . S
C123 C124 1.446 . S
C123 C146 1.391 . S
C124 C123 1.446 . S
C124 C125 1.339 . S
C124 H153 0.949 . S
C125 C124 1.339 . S
C125 C126 1.439 . S
C125 H154 0.950 . S
C126 N122 1.383 . S
C126 C125 1.439 . S
C126 C144 1.392 1_545 S
N127 Co111 2.282 . S
N127 C130 1.332 . S
N127 C132 1.311 1_545 S
C128 C129 1.386 . S
C128 C131 1.388 . S
C129 C128 1.386 . S
C129 C130 1.382 . S
C129 H155 0.950 . S
C130 N127 1.332 . S
C130 C129 1.382 . S
C130 H141 0.952 . S
C131 C128 1.388 . S
C131 C132 1.376 1_545 S
C131 H156 0.950 1_545 S
C132 N127 1.311 1_565 S
C132 C131 1.376 1_565 S
C132 H142 0.978 . S
N133 Co111 2.282 . S
N133 C137 1.332 1_545 S
N133 C138 1.332 . S
C134 C135 1.388 1_545 S
C134 C138 1.382 . S
C134 H157 0.950 . S
C135 C134 1.388 1_565 S
C135 C136 1.386 . S
C136 C135 1.386 . S
C136 C137 1.382 . S
C136 H158 0.950 . S
C137 N133 1.332 1_565 S
C137 C136 1.382 . S
C137 H139 0.952 . S
C138 N133 1.332 . S
C138 C134 1.382 . S
C138 H140 0.948 . S
H139 C137 0.952 . S
H140 C138 0.948 . S
H141 C130 0.952 . S
H142 C132 0.978 . S
C143 C109 1.395 . S
C143 C113 1.391 . S
C144 C106 1.389 . S
C144 C126 1.392 1_565 S
C145 C116 1.392 1_545 S
C145 C118 1.389 . S
C146 C121 1.395 . S
C146 C123 1.391 . S
H147 C107 0.951 . S
H148 C108 0.950 . S
H149 C114 0.949 . S
H150 C115 0.950 . S
H151 C119 0.951 . S
H152 C120 0.950 . S
H153 C124 0.949 . S
H154 C125 0.950 . S
H155 C129 0.950 . S
H156 C131 0.950 1_565 S
H157 C134 0.950 . S
H158 C136 0.950 . S
C159 C160 1.443 . S
C159 N163 1.376 . S
C159 C197 1.389 . S
C160 C159 1.443 . S
C160 C161 1.340 . S
C160 H200 0.951 . S
C161 C160 1.340 . S
C161 C162 1.439 . S
C161 H201 0.950 . S
C162 C161 1.439 . S
C162 N163 1.374 . S
C162 C196 1.395 . S
N163 C159 1.376 . S
N163 C162 1.374 . S
N163 Co164 2.008 . S
Co164 N163 2.008 . S
Co164 N165 1.995 . S
Co164 N170 2.008 . S
Co164 N175 1.995 . S
Co164 N180 2.282 . S
Co164 N186 2.282 . S
N165 Co164 1.995 . S
N165 C166 1.376 . S
N165 C169 1.383 . S
C166 N165 1.376 . S
C166 C167 1.446 . S
C166 C196 1.391 . S
C167 C166 1.446 . S
C167 C168 1.339 . S
C167 H202 0.949 . S
C168 C167 1.339 . S
C168 C169 1.439 . S
C168 H203 0.950 . S
C169 N165 1.383 . S
C169 C168 1.439 . S
C169 C198 1.392 . S
N170 Co164 2.008 . S
N170 C171 1.376 . S
N170 C174 1.374 . S
C171 N170 1.376 . S
C171 C172 1.443 . S
C171 C198 1.389 . S
C172 C171 1.443 . S
C172 C173 1.340 . S
C172 H204 0.951 . S
C173 C172 1.340 . S
C173 C174 1.439 . S
C173 H205 0.950 . S
C174 N170 1.374 . S
C174 C173 1.439 . S
C174 C199 1.395 . S
N175 Co164 1.995 . S
N175 C176 1.376 . S
N175 C179 1.383 . S
C176 N175 1.376 . S
C176 C177 1.446 . S
C176 C199 1.391 . S
C177 C176 1.446 . S
C177 C178 1.339 . S
C177 H206 0.949 . S
C178 C177 1.339 . S
C178 C179 1.439 . S
C178 H207 0.950 . S
C179 N175 1.383 . S
C179 C178 1.439 . S
C179 C197 1.392 . S
N180 Co164 2.282 . S
N180 C183 1.332 . S
N180 C185 1.332 . S
C181 C182 1.386 . S
C181 C184 1.388 . S
C182 C181 1.386 . S
C182 C183 1.382 . S
C182 H208 0.950 . S
C183 N180 1.332 . S
C183 C182 1.382 . S
C183 H194 0.952 . S
C184 C181 1.388 . S
C184 C185 1.382 . S
C184 H209 0.950 . S
C185 N180 1.332 . S
C185 C184 1.382 . S
C185 H195 0.948 . S
N186 Co164 2.282 . S
N186 C190 1.332 . S
N186 C191 1.332 . S
C187 C188 1.388 . S
C187 C191 1.382 . S
C187 H210 0.950 . S
C188 C187 1.388 . S
C188 C189 1.386 . S
C189 C188 1.386 . S
C189 C190 1.382 . S
C189 H211 0.950 . S
C190 N186 1.332 . S
C190 C189 1.382 . S
C190 H192 0.952 . S
C191 N186 1.332 . S
C191 C187 1.382 . S
C191 H193 0.948 . S
H192 C190 0.952 . S
H193 C191 0.948 . S
H194 C183 0.952 . S
H195 C185 0.948 . S
C196 C162 1.395 . S
C196 C166 1.391 . S
C197 C159 1.389 . S
C197 C179 1.392 . S
C198 C169 1.392 . S
C198 C171 1.389 . S
C199 C174 1.395 . S
C199 C176 1.391 . S
H200 C160 0.951 . S
H201 C161 0.950 . S
H202 C167 0.949 . S
H203 C168 0.950 . S
H204 C172 0.951 . S
H205 C173 0.950 . S
H206 C177 0.949 . S
H207 C178 0.950 . S
H208 C182 0.950 . S
H209 C184 0.950 . S
H210 C187 0.950 . S
H211 C189 0.950 . S
C212 C213 1.443 . S
C212 N216 1.376 . S
C212 C250 1.389 . S
C213 C212 1.443 . S
C213 C214 1.340 . S
C213 H253 0.951 . S
C214 C213 1.340 . S
C214 C215 1.439 . S
C214 H254 0.950 . S
C215 C214 1.439 . S
C215 N216 1.374 . S
C215 C249 1.395 . S
N216 C212 1.376 . S
N216 C215 1.374 . S
N216 Co217 2.008 1_556 S
Co217 N216 2.008 1_554 S
Co217 N218 1.995 1_554 S
Co217 N223 2.008 . S
Co217 N228 1.995 . S
Co217 N233 2.282 . S
Co217 N239 2.287 . S
N218 Co217 1.995 1_556 S
N218 C219 1.376 . S
N218 C222 1.383 . S
C219 N218 1.376 . S
C219 C220 1.446 . S
C219 C249 1.391 . S
C220 C219 1.446 . S
C220 C221 1.339 . S
C220 H255 0.949 . S
C221 C220 1.339 . S
C221 C222 1.439 . S
C221 H256 0.950 . S
C222 N218 1.383 . S
C222 C221 1.439 . S
C222 C251 1.392 1_556 S
N223 Co217 2.008 . S
N223 C224 1.376 . S
N223 C227 1.374 . S
C224 N223 1.376 . S
C224 C225 1.443 . S
C224 C251 1.389 . S
C225 C224 1.443 . S
C225 C226 1.340 . S
C225 H257 0.951 . S
C226 C225 1.340 . S
C226 C227 1.439 . S
C226 H258 0.950 . S
C227 N223 1.374 . S
C227 C226 1.439 . S
C227 C252 1.395 . S
N228 Co217 1.995 . S
N228 C229 1.376 . S
N228 C232 1.383 . S
C229 N228 1.376 . S
C229 C230 1.446 . S
C229 C252 1.391 . S
C230 C229 1.446 . S
C230 C231 1.339 . S
C230 H259 0.949 . S
C231 C230 1.339 . S
C231 C232 1.439 . S
C231 H260 0.950 . S
C232 N228 1.383 . S
C232 C231 1.439 . S
C232 C250 1.392 1_554 S
N233 Co217 2.282 . S
N233 C236 1.332 . S
N233 C238 1.332 1_554 S
C234 C235 1.386 . S
C234 C237 1.388 1_554 S
C235 C234 1.386 . S
C235 C236 1.382 . S
C235 H261 0.950 . S
C236 N233 1.332 . S
C236 C235 1.382 . S
C236 H247 0.952 . S
C237 C234 1.388 1_556 S
C237 C238 1.382 . S
C237 H262 0.950 . S
C238 N233 1.332 1_556 S
C238 C237 1.382 . S
C238 H248 0.948 . S
N239 Co217 2.287 . S
N239 C243 1.295 1_554 S
N239 C244 1.361 . S
C240 C241 1.388 1_554 S
C240 C244 1.382 . S
C240 H263 0.950 . S
C241 C240 1.388 1_556 S
C241 C242 1.386 . S
C242 C241 1.386 . S
C242 C243 1.382 . S
C242 H264 0.950 . S
C243 N239 1.295 1_556 S
C243 C242 1.382 . S
C243 H245 0.952 . S
C244 N239 1.361 . S
C244 C240 1.382 . S
C244 H246 0.948 . S
H245 C243 0.952 . S
H246 C244 0.948 . S
H247 C236 0.952 . S
H248 C238 0.948 . S
C249 C215 1.395 . S
C249 C219 1.391 . S
C250 C212 1.389 . S
C250 C232 1.392 1_556 S
C251 C222 1.392 1_554 S
C251 C224 1.389 . S
C252 C227 1.395 . S
C252 C229 1.391 . S
H253 C213 0.951 . S
H254 C214 0.950 . S
H255 C220 0.949 . S
H256 C221 0.950 . S
H257 C225 0.951 . S
H258 C226 0.950 . S
H259 C230 0.949 . S
H260 C231 0.950 . S
H261 C235 0.950 . S
H262 C237 0.950 . S
H263 C240 0.950 . S
H264 C242 0.950 . S
C265 C266 1.443 . S
C265 N269 1.376 . S
C265 C303 1.389 . S
C266 C265 1.443 . S
C266 C267 1.340 . S
C266 H306 0.951 . S
C267 C266 1.340 . S
C267 C268 1.439 . S
C267 H307 0.950 . S
C268 C267 1.439 . S
C268 N269 1.374 . S
C268 C302 1.395 . S
N269 C265 1.376 . S
N269 C268 1.374 . S
N269 Co270 2.008 . S
Co270 N269 2.008 . S
Co270 N271 1.995 . S
Co270 N276 2.008 . S
Co270 N281 1.995 . S
Co270 N286 2.282 . S
Co270 N292 2.282 . S
N271 Co270 1.995 . S
N271 C272 1.376 . S
N271 C275 1.383 . S
C272 N271 1.376 . S
C272 C273 1.446 . S
C272 C302 1.391 . S
C273 C272 1.446 . S
C273 C274 1.339 . S
C273 H308 0.949 . S
C274 C273 1.339 . S
C274 C275 1.439 . S
C274 H309 0.950 . S
C275 N271 1.383 . S
C275 C274 1.439 . S
C275 C304 1.392 . S
N276 Co270 2.008 . S
N276 C277 1.376 . S
N276 C280 1.374 . S
C277 N276 1.376 . S
C277 C278 1.443 . S
C277 C304 1.389 . S
C278 C277 1.443 . S
C278 C279 1.340 . S
C278 H310 0.951 . S
C279 C278 1.340 . S
C279 C280 1.439 . S
C279 H311 0.950 . S
C280 N276 1.374 . S
C280 C279 1.439 . S
C280 C305 1.395 . S
N281 Co270 1.995 . S
N281 C282 1.376 . S
N281 C285 1.383 . S
C282 N281 1.376 . S
C282 C283 1.446 . S
C282 C305 1.391 . S
C283 C282 1.446 . S
C283 C284 1.339 . S
C283 H312 0.949 . S
C284 C283 1.339 . S
C284 C285 1.439 . S
C284 H313 0.950 . S
C285 N281 1.383 . S
C285 C284 1.439 . S
C285 C303 1.392 . S
N286 Co270 2.282 . S
N286 C289 1.332 . S
N286 C291 1.332 . S
C287 C288 1.386 . S
C287 C290 1.388 . S
C288 C287 1.386 . S
C288 C289 1.382 . S
C288 H314 0.950 . S
C289 N286 1.332 . S
C289 C288 1.382 . S
C289 H300 0.952 . S
C290 C287 1.388 . S
C290 C291 1.382 . S
C290 H315 0.950 . S
C291 N286 1.332 . S
C291 C290 1.382 . S
C291 H301 0.948 . S
N292 Co270 2.282 . S
N292 C296 1.332 . S
N292 C297 1.332 . S
C293 C294 1.388 . S
C293 C297 1.382 . S
C293 H316 0.950 . S
C294 C293 1.388 . S
C294 C295 1.386 . S
C295 C294 1.386 . S
C295 C296 1.382 . S
C295 H317 0.950 . S
C296 N292 1.332 . S
C296 C295 1.382 . S
C296 H298 0.952 . S
C297 N292 1.332 . S
C297 C293 1.382 . S
C297 H299 0.948 . S
H298 C296 0.952 . S
H299 C297 0.948 . S
H300 C289 0.952 . S
H301 C291 0.948 . S
C302 C268 1.395 . S
C302 C272 1.391 . S
C303 C265 1.389 . S
C303 C285 1.392 . S
C304 C275 1.392 . S
C304 C277 1.389 . S
C305 C280 1.395 . S
C305 C282 1.391 . S
H306 C266 0.951 . S
H307 C267 0.950 . S
H308 C273 0.949 . S
H309 C274 0.950 . S
H310 C278 0.951 . S
H311 C279 0.950 . S
H312 C283 0.949 . S
H313 C284 0.950 . S
H314 C288 0.950 . S
H315 C290 0.950 . S
H316 C293 0.950 . S
H317 C295 0.950 . S
C318 C319 1.443 . S
C318 N322 1.376 . S
C318 C356 1.389 . S
C319 C318 1.443 . S
C319 C320 1.340 . S
C319 H359 0.951 . S
C320 C319 1.340 . S
C320 C321 1.439 . S
C320 H360 0.950 . S
C321 C320 1.439 . S
C321 N322 1.374 . S
C321 C355 1.395 . S
N322 C318 1.376 . S
N322 C321 1.374 . S
N322 Co323 2.008 . S
Co323 N322 2.008 . S
Co323 N324 1.995 . S
Co323 N329 2.008 . S
Co323 N334 1.995 . S
Co323 N339 2.282 . S
Co323 N345 2.282 . S
N324 Co323 1.995 . S
N324 C325 1.376 . S
N324 C328 1.383 . S
C325 N324 1.376 . S
C325 C326 1.446 . S
C325 C355 1.391 . S
C326 C325 1.446 . S
C326 C327 1.339 . S
C326 H361 0.949 . S
C327 C326 1.339 . S
C327 C328 1.439 . S
C327 H362 0.950 . S
C328 N324 1.383 . S
C328 C327 1.439 . S
C328 C357 1.392 . S
N329 Co323 2.008 . S
N329 C330 1.376 . S
N329 C333 1.374 . S
C330 N329 1.376 . S
C330 C331 1.443 . S
C330 C357 1.389 . S
C331 C330 1.443 . S
C331 C332 1.340 . S
C331 H363 0.951 . S
C332 C331 1.340 . S
C332 C333 1.439 . S
C332 H364 0.950 . S
C333 N329 1.374 . S
C333 C332 1.439 . S
C333 C358 1.395 . S
N334 Co323 1.995 . S
N334 C335 1.376 . S
N334 C338 1.383 . S
C335 N334 1.376 . S
C335 C336 1.446 . S
C335 C358 1.391 . S
C336 C335 1.446 . S
C336 C337 1.339 . S
C336 H365 0.949 . S
C337 C336 1.339 . S
C337 C338 1.439 . S
C337 H366 0.950 . S
C338 N334 1.383 . S
C338 C337 1.439 . S
C338 C356 1.392 . S
N339 Co323 2.282 . S
N339 C342 1.332 . S
N339 C344 1.332 . S
C340 C341 1.386 . S
C340 C343 1.388 . S
C341 C340 1.386 . S
C341 C342 1.382 . S
C341 H367 0.950 . S
C342 N339 1.332 . S
C342 C341 1.382 . S
C342 H353 0.952 . S
C343 C340 1.388 . S
C343 C344 1.382 . S
C343 H368 0.950 . S
C344 N339 1.332 . S
C344 C343 1.382 . S
C344 H354 0.948 . S
N345 Co323 2.282 . S
N345 C349 1.332 . S
N345 C350 1.332 . S
C346 C347 1.388 . S
C346 C350 1.382 . S
C346 H369 0.950 . S
C347 C346 1.388 . S
C347 C348 1.386 . S
C348 C347 1.386 . S
C348 C349 1.382 . S
C348 H370 0.950 . S
C349 N345 1.332 . S
C349 C348 1.382 . S
C349 H351 0.952 . S
C350 N345 1.332 . S
C350 C346 1.382 . S
C350 H352 0.948 . S
H351 C349 0.952 . S
H352 C350 0.948 . S
H353 C342 0.952 . S
H354 C344 0.948 . S
C355 C321 1.395 . S
C355 C325 1.391 . S
C356 C318 1.389 . S
C356 C338 1.392 . S
C357 C328 1.392 . S
C357 C330 1.389 . S
C358 C333 1.395 . S
C358 C335 1.391 . S
H359 C319 0.951 . S
H360 C320 0.950 . S
H361 C326 0.949 . S
H362 C327 0.950 . S
H363 C331 0.951 . S
H364 C332 0.950 . S
H365 C336 0.949 . S
H366 C337 0.950 . S
H367 C341 0.950 . S
H368 C343 0.950 . S
H369 C346 0.950 . S
H370 C348 0.950 . S
C371 C372 1.443 . S
C371 N375 1.376 . S
C371 C409 1.389 . S
C372 C371 1.443 . S
C372 C373 1.340 . S
C372 H412 0.951 . S
C373 C372 1.340 . S
C373 C374 1.439 . S
C373 H413 0.950 . S
C374 C373 1.439 . S
C374 N375 1.374 . S
C374 C408 1.395 . S
N375 C371 1.376 . S
N375 C374 1.374 . S
N375 Co376 2.008 . S
Co376 N375 2.008 . S
Co376 N377 1.995 . S
Co376 N382 2.008 . S
Co376 N387 1.995 . S
Co376 N392 2.282 . S
Co376 N398 2.282 . S
N377 Co376 1.995 . S
N377 C378 1.376 . S
N377 C381 1.383 . S
C378 N377 1.376 . S
C378 C379 1.446 . S
C378 C408 1.391 . S
C379 C378 1.446 . S
C379 C380 1.339 . S
C379 H414 0.949 . S
C380 C379 1.339 . S
C380 C381 1.439 . S
C380 H415 0.950 . S
C381 N377 1.383 . S
C381 C380 1.439 . S
C381 C410 1.392 . S
N382 Co376 2.008 . S
N382 C383 1.376 . S
N382 C386 1.374 . S
C383 N382 1.376 . S
C383 C384 1.443 . S
C383 C410 1.389 . S
C384 C383 1.443 . S
C384 C385 1.340 . S
C384 H416 0.951 . S
C385 C384 1.340 . S
C385 C386 1.439 . S
C385 H417 0.950 . S
C386 N382 1.374 . S
C386 C385 1.439 . S
C386 C411 1.395 . S
N387 Co376 1.995 . S
N387 C388 1.376 . S
N387 C391 1.383 . S
C388 N387 1.376 . S
C388 C389 1.446 . S
C388 C411 1.391 . S
C389 C388 1.446 . S
C389 C390 1.339 . S
C389 H418 0.949 . S
C390 C389 1.339 . S
C390 C391 1.439 . S
C390 H419 0.950 . S
C391 N387 1.383 . S
C391 C390 1.439 . S
C391 C409 1.392 . S
N392 Co376 2.282 . S
N392 C395 1.332 . S
N392 C397 1.332 . S
C393 C394 1.386 . S
C393 C396 1.388 . S
C394 C393 1.386 . S
C394 C395 1.382 . S
C394 H420 0.950 . S
C395 N392 1.332 . S
C395 C394 1.382 . S
C395 H406 0.952 . S
C396 C393 1.388 . S
C396 C397 1.382 . S
C396 H421 0.950 . S
C397 N392 1.332 . S
C397 C396 1.382 . S
C397 H407 0.948 . S
N398 Co376 2.282 . S
N398 C402 1.332 . S
N398 C403 1.332 . S
C399 C400 1.388 . S
C399 C403 1.382 . S
C399 H422 0.950 . S
C400 C399 1.388 . S
C400 C401 1.386 . S
C401 C400 1.386 . S
C401 C402 1.382 . S
C401 H423 0.950 . S
C402 N398 1.332 . S
C402 C401 1.382 . S
C402 H404 0.952 . S
C403 N398 1.332 . S
C403 C399 1.382 . S
C403 H405 0.948 . S
H404 C402 0.952 . S
H405 C403 0.948 . S
H406 C395 0.952 . S
H407 C397 0.948 . S
C408 C374 1.395 . S
C408 C378 1.391 . S
C409 C371 1.389 . S
C409 C391 1.392 . S
C410 C381 1.392 . S
C410 C383 1.389 . S
C411 C386 1.395 . S
C411 C388 1.391 . S
H412 C372 0.951 . S
H413 C373 0.950 . S
H414 C379 0.949 . S
H415 C380 0.950 . S
H416 C384 0.951 . S
H417 C385 0.950 . S
H418 C389 0.949 . S
H419 C390 0.950 . S
H420 C394 0.950 . S
H421 C396 0.950 . S
H422 C399 0.950 . S
H423 C401 0.950 . S
C424 C425 1.443 . S
C424 N428 1.376 . S
C424 C462 1.389 . S
C425 C424 1.443 . S
C425 C426 1.340 . S
C425 H465 0.951 . S
C426 C425 1.340 . S
C426 C427 1.439 . S
C426 H466 0.950 . S
C427 C426 1.439 . S
C427 N428 1.374 . S
C427 C461 1.395 . S
N428 C424 1.376 . S
N428 C427 1.374 . S
N428 Co429 2.008 . S
Co429 N428 2.008 . S
Co429 N430 1.995 . S
Co429 N435 2.008 . S
Co429 N440 1.995 . S
Co429 N445 2.282 . S
Co429 N451 2.282 . S
N430 Co429 1.995 . S
N430 C431 1.376 . S
N430 C434 1.383 . S
C431 N430 1.376 . S
C431 C432 1.446 . S
C431 C461 1.391 . S
C432 C431 1.446 . S
C432 C433 1.339 . S
C432 H467 0.949 . S
C433 C432 1.339 . S
C433 C434 1.439 . S
C433 H468 0.950 . S
C434 N430 1.383 . S
C434 C433 1.439 . S
C434 C463 1.392 . S
N435 Co429 2.008 . S
N435 C436 1.376 . S
N435 C439 1.374 . S
C436 N435 1.376 . S
C436 C437 1.443 . S
C436 C463 1.389 . S
C437 C436 1.443 . S
C437 C438 1.340 . S
C437 H469 0.951 . S
C438 C437 1.340 . S
C438 C439 1.439 . S
C438 H470 0.950 . S
C439 N435 1.374 . S
C439 C438 1.439 . S
C439 C464 1.395 . S
N440 Co429 1.995 . S
N440 C441 1.376 . S
N440 C444 1.383 . S
C441 N440 1.376 . S
C441 C442 1.446 . S
C441 C464 1.391 . S
C442 C441 1.446 . S
C442 C443 1.339 . S
C442 H471 0.949 . S
C443 C442 1.339 . S
C443 C444 1.439 . S
C443 H472 0.950 . S
C444 N440 1.383 . S
C444 C443 1.439 . S
C444 C462 1.392 . S
N445 Co429 2.282 . S
N445 C448 1.332 . S
N445 C450 1.332 . S
C446 C447 1.386 . S
C446 C449 1.388 . S
C447 C446 1.386 . S
C447 C448 1.382 . S
C447 H473 0.950 . S
C448 N445 1.332 . S
C448 C447 1.382 . S
C448 H459 0.952 . S
C449 C446 1.388 . S
C449 C450 1.382 . S
C449 H474 0.950 . S
C450 N445 1.332 . S
C450 C449 1.382 . S
C450 H460 0.948 . S
N451 Co429 2.282 . S
N451 C455 1.332 . S
N451 C456 1.332 . S
C452 C453 1.388 . S
C452 C456 1.382 . S
C452 H475 0.950 . S
C453 C452 1.388 . S
C453 C454 1.386 . S
C454 C453 1.386 . S
C454 C455 1.382 . S
C454 H476 0.950 . S
C455 N451 1.332 . S
C455 C454 1.382 . S
C455 H457 0.952 . S
C456 N451 1.332 . S
C456 C452 1.382 . S
C456 H458 0.948 . S
H457 C455 0.952 . S
H458 C456 0.948 . S
H459 C448 0.952 . S
H460 C450 0.948 . S
C461 C427 1.395 . S
C461 C431 1.391 . S
C462 C424 1.389 . S
C462 C444 1.392 . S
C463 C434 1.392 . S
C463 C436 1.389 . S
C464 C439 1.395 . S
C464 C441 1.391 . S
H465 C425 0.951 . S
H466 C426 0.950 . S
H467 C432 0.949 . S
H468 C433 0.950 . S
H469 C437 0.951 . S
H470 C438 0.950 . S
H471 C442 0.949 . S
H472 C443 0.950 . S
H473 C447 0.950 . S
H474 C449 0.950 . S
H475 C452 0.950 . S
H476 C454 0.950 . S
C477 C478 1.443 . S
C477 N481 1.376 . S
C477 C515 1.389 . S
C478 C477 1.443 . S
C478 C479 1.340 . S
C478 H518 0.951 . S
C479 C478 1.340 . S
C479 C480 1.439 . S
C479 H519 0.950 . S
C480 C479 1.439 . S
C480 N481 1.374 . S
C480 C514 1.395 . S
N481 C477 1.376 . S
N481 C480 1.374 . S
N481 Co482 2.008 . S
Co482 N481 2.008 . S
Co482 N483 1.995 . S
Co482 N488 2.008 . S
Co482 N493 1.995 . S
Co482 N498 2.282 . S
Co482 N504 2.282 . S
N483 Co482 1.995 . S
N483 C484 1.376 . S
N483 C487 1.383 . S
C484 N483 1.376 . S
C484 C485 1.446 . S
C484 C514 1.391 . S
C485 C484 1.446 . S
C485 C486 1.339 . S
C485 H520 0.949 . S
C486 C485 1.339 . S
C486 C487 1.439 . S
C486 H521 0.950 . S
C487 N483 1.383 . S
C487 C486 1.439 . S
C487 C516 1.392 . S
N488 Co482 2.008 . S
N488 C489 1.376 . S
N488 C492 1.374 . S
C489 N488 1.376 . S
C489 C490 1.443 . S
C489 C516 1.389 . S
C490 C489 1.443 . S
C490 C491 1.340 . S
C490 H522 0.951 . S
C491 C490 1.340 . S
C491 C492 1.439 . S
C491 H523 0.950 . S
C492 N488 1.374 . S
C492 C491 1.439 . S
C492 C517 1.395 . S
N493 Co482 1.995 . S
N493 C494 1.376 . S
N493 C497 1.383 . S
C494 N493 1.376 . S
C494 C495 1.446 . S
C494 C517 1.391 . S
C495 C494 1.446 . S
C495 C496 1.339 . S
C495 H524 0.949 . S
C496 C495 1.339 . S
C496 C497 1.439 . S
C496 H525 0.950 . S
C497 N493 1.383 . S
C497 C496 1.439 . S
C497 C515 1.392 . S
N498 Co482 2.282 . S
N498 C501 1.332 . S
N498 C503 1.332 . S
C499 C500 1.386 . S
C499 C502 1.388 . S
C500 C499 1.386 . S
C500 C501 1.382 . S
C500 H526 0.950 . S
C501 N498 1.332 . S
C501 C500 1.382 . S
C501 H512 0.952 . S
C502 C499 1.388 . S
C502 C503 1.382 . S
C502 H527 0.950 . S
C503 N498 1.332 . S
C503 C502 1.382 . S
C503 H513 0.948 . S
N504 Co482 2.282 . S
N504 C508 1.332 . S
N504 C509 1.332 . S
C505 C506 1.388 . S
C505 C509 1.382 . S
C505 H528 0.950 . S
C506 C505 1.388 . S
C506 C507 1.386 . S
C507 C506 1.386 . S
C507 C508 1.382 . S
C507 H529 0.950 . S
C508 N504 1.332 . S
C508 C507 1.382 . S
C508 H510 0.952 . S
C509 N504 1.332 . S
C509 C505 1.382 . S
C509 H511 0.948 . S
H510 C508 0.952 . S
H511 C509 0.948 . S
H512 C501 0.952 . S
H513 C503 0.948 . S
C514 C480 1.395 . S
C514 C484 1.391 . S
C515 C477 1.389 . S
C515 C497 1.392 . S
C516 C487 1.392 . S
C516 C489 1.389 . S
C517 C492 1.395 . S
C517 C494 1.391 . S
H518 C478 0.951 . S
H519 C479 0.950 . S
H520 C485 0.949 . S
H521 C486 0.950 . S
H522 C490 0.951 . S
H523 C491 0.950 . S
H524 C495 0.949 . S
H525 C496 0.950 . S
H526 C500 0.950 . S
H527 C502 0.950 . S
H528 C505 0.950 . S
H529 C507 0.950 . S
C530 C531 1.443 . S
C530 N534 1.376 . S
C530 C568 1.389 . S
C531 C530 1.443 . S
C531 C532 1.340 . S
C531 H571 0.951 . S
C532 C531 1.340 . S
C532 C533 1.439 . S
C532 H572 0.950 . S
C533 C532 1.439 . S
C533 N534 1.374 . S
C533 C567 1.395 . S
N534 C530 1.376 . S
N534 C533 1.374 . S
N534 Co535 2.008 . S
Co535 N534 2.008 . S
Co535 N536 1.995 . S
Co535 N541 2.008 1_545 S
Co535 N546 1.995 1_545 S
Co535 N551 2.282 1_545 S
Co535 N557 2.282 . S
N536 Co535 1.995 . S
N536 C537 1.376 . S
N536 C540 1.383 . S
C537 N536 1.376 . S
C537 C538 1.446 . S
C537 C567 1.391 . S
C538 C537 1.446 . S
C538 C539 1.339 . S
C538 H573 0.949 . S
C539 C538 1.339 . S
C539 C540 1.439 . S
C539 H574 0.950 . S
C540 N536 1.383 . S
C540 C539 1.439 . S
C540 C569 1.392 1_545 S
N541 Co535 2.008 1_565 S
N541 C542 1.376 . S
N541 C545 1.374 . S
C542 N541 1.376 . S
C542 C543 1.443 . S
C542 C569 1.389 . S
C543 C542 1.443 . S
C543 C544 1.340 . S
C543 H575 0.951 . S
C544 C543 1.340 . S
C544 C545 1.439 . S
C544 H576 0.950 . S
C545 N541 1.374 . S
C545 C544 1.439 . S
C545 C570 1.395 . S
N546 Co535 1.995 1_565 S
N546 C547 1.376 . S
N546 C550 1.383 . S
C547 N546 1.376 . S
C547 C548 1.446 . S
C547 C570 1.391 . S
C548 C547 1.446 . S
C548 C549 1.339 . S
C548 H577 0.949 . S
C549 C548 1.339 . S
C549 C550 1.439 . S
C549 H578 0.950 . S
C550 N546 1.383 . S
C550 C549 1.439 . S
C550 C568 1.392 1_565 S
N551 Co535 2.282 1_565 S
N551 C554 1.332 . S
N551 C556 1.332 1_565 S
C552 C553 1.386 . S
C552 C555 1.388 1_565 S
C553 C552 1.386 . S
C553 C554 1.382 . S
C553 H579 0.950 . S
C554 N551 1.332 . S
C554 C553 1.382 . S
C554 H565 0.952 . S
C555 C552 1.388 1_545 S
C555 C556 1.382 . S
C555 H580 0.950 . S
C556 N551 1.332 1_545 S
C556 C555 1.382 . S
C556 H566 0.948 . S
N557 Co535 2.282 . S
N557 C561 1.332 . S
N557 C562 1.332 1_545 S
C558 C559 1.388 1_565 S
C558 C562 1.382 . S
C558 H581 0.950 . S
C559 C558 1.388 1_545 S
C559 C560 1.386 . S
C560 C559 1.386 . S
C560 C561 1.382 . S
C560 H582 0.950 . S
C561 N557 1.332 . S
C561 C560 1.382 . S
C561 H563 0.952 . S
C562 N557 1.332 1_565 S
C562 C558 1.382 . S
C562 H564 0.948 . S
H563 C561 0.952 . S
H564 C562 0.948 . S
H565 C554 0.952 . S
H566 C556 0.948 . S
C567 C533 1.395 . S
C567 C537 1.391 . S
C568 C530 1.389 . S
C568 C550 1.392 1_545 S
C569 C540 1.392 1_565 S
C569 C542 1.389 . S
C570 C545 1.395 . S
C570 C547 1.391 . S
H571 C531 0.951 . S
H572 C532 0.950 . S
H573 C538 0.949 . S
H574 C539 0.950 . S
H575 C543 0.951 . S
H576 C544 0.950 . S
H577 C548 0.949 . S
H578 C549 0.950 . S
H579 C553 0.950 . S
H580 C555 0.950 . S
H581 C558 0.950 . S
H582 C560 0.950 . S
C583 C584 1.443 . S
C583 N587 1.376 . S
C583 C621 1.389 . S
C584 C583 1.443 . S
C584 C585 1.340 . S
C584 H624 0.951 . S
C585 C584 1.340 . S
C585 C586 1.439 . S
C585 H625 0.950 . S
C586 C585 1.439 . S
C586 N587 1.374 . S
C586 C620 1.395 . S
N587 C583 1.376 . S
N587 C586 1.374 . S
N587 Co588 2.008 1_556 S
Co588 N587 2.008 1_554 S
Co588 N589 1.995 1_554 S
Co588 N594 2.008 . S
Co588 N599 1.995 . S
Co588 N604 2.282 . S
Co588 N610 2.282 1_554 S
N589 Co588 1.995 1_556 S
N589 C590 1.376 . S
N589 C593 1.383 . S
C590 N589 1.376 . S
C590 C591 1.446 . S
C590 C620 1.391 . S
C591 C590 1.446 . S
C591 C592 1.339 . S
C591 H626 0.949 . S
C592 C591 1.339 . S
C592 C593 1.439 . S
C592 H627 0.950 . S
C593 N589 1.383 . S
C593 C592 1.439 . S
C593 C622 1.392 1_556 S
N594 Co588 2.008 . S
N594 C595 1.376 . S
N594 C598 1.374 . S
C595 N594 1.376 . S
C595 C596 1.443 . S
C595 C622 1.389 . S
C596 C595 1.443 . S
C596 C597 1.340 . S
C596 H628 0.951 . S
C597 C596 1.340 . S
C597 C598 1.439 . S
C597 H629 0.950 . S
C598 N594 1.374 . S
C598 C597 1.439 . S
C598 C623 1.395 . S
N599 Co588 1.995 . S
N599 C600 1.376 . S
N599 C603 1.383 . S
C600 N599 1.376 . S
C600 C601 1.446 . S
C600 C623 1.391 . S
C601 C600 1.446 . S
C601 C602 1.339 . S
C601 H630 0.949 . S
C602 C601 1.339 . S
C602 C603 1.439 . S
C602 H631 0.950 . S
C603 N599 1.383 . S
C603 C602 1.439 . S
C603 C621 1.392 1_554 S
N604 Co588 2.282 . S
N604 C607 1.332 . S
N604 C609 1.332 1_554 S
C605 C606 1.386 . S
C605 C608 1.388 1_554 S
C606 C605 1.386 . S
C606 C607 1.382 . S
C606 H632 0.950 . S
C607 N604 1.332 . S
C607 C606 1.382 . S
C607 H618 0.952 . S
C608 C605 1.388 1_556 S
C608 C609 1.382 . S
C608 H633 0.950 . S
C609 N604 1.332 1_556 S
C609 C608 1.382 . S
C609 H619 0.948 . S
N610 Co588 2.282 1_556 S
N610 C614 1.332 . S
N610 C615 1.332 1_556 S
C611 C612 1.388 1_554 S
C611 C615 1.382 . S
C611 H634 0.950 . S
C612 C611 1.388 1_556 S
C612 C613 1.386 . S
C613 C612 1.386 . S
C613 C614 1.382 . S
C613 H635 0.950 . S
C614 N610 1.332 . S
C614 C613 1.382 . S
C614 H616 0.952 . S
C615 N610 1.332 1_554 S
C615 C611 1.382 . S
C615 H617 0.948 . S
H616 C614 0.952 . S
H617 C615 0.948 . S
H618 C607 0.952 . S
H619 C609 0.948 . S
C620 C586 1.395 . S
C620 C590 1.391 . S
C621 C583 1.389 . S
C621 C603 1.392 1_556 S
C622 C593 1.392 1_554 S
C622 C595 1.389 . S
C623 C598 1.395 . S
C623 C600 1.391 . S
H624 C584 0.951 . S
H625 C585 0.950 . S
H626 C591 0.949 . S
H627 C592 0.950 . S
H628 C596 0.951 . S
H629 C597 0.950 . S
H630 C601 0.949 . S
H631 C602 0.950 . S
H632 C606 0.950 . S
H633 C608 0.950 . S
H634 C611 0.950 . S
H635 C613 0.950 . S
Zn636 O642 1.920 . S
Zn636 O648 1.898 . S
Zn636 O651 1.905 . S
Zn637 O645 1.905 1_554 S
Zn637 O646 1.898 . S
Zn637 O654 1.920 . S
Zn638 O641 2.080 . S
Zn638 O644 2.114 . S
Zn638 O647 2.120 . S
Zn638 O649 2.120 . S
Zn638 O650 2.114 . S
Zn638 O653 2.080 . S
C639 O644 1.166 1_556 S
C639 O645 1.182 . S
C640 O646 1.167 . S
C640 O647 1.299 . S
O641 Zn638 2.080 . S
O641 C655 1.305 . S
O642 Zn636 1.920 . S
O642 C655 1.234 . S
C643 O648 1.167 . S
C643 O649 1.299 . S
O644 Zn638 2.114 . S
O644 C639 1.166 1_554 S
O645 Zn637 1.905 1_556 S
O645 C639 1.182 . S
O646 Zn637 1.898 . S
O646 C640 1.167 . S
O647 Zn638 2.120 . S
O647 C640 1.299 . S
O648 Zn636 1.898 . S
O648 C643 1.167 . S
O649 Zn638 2.120 . S
O649 C643 1.299 . S
O650 Zn638 2.114 . S
O650 C652 1.166 . S
O651 Zn636 1.905 . S
O651 C652 1.182 . S
C652 O650 1.166 . S
C652 O651 1.182 . S
O653 Zn638 2.080 . S
O653 C656 1.305 . S
O654 Zn637 1.920 . S
O654 C656 1.234 . S
C655 O641 1.305 . S
C655 O642 1.234 . S
C656 O653 1.305 . S
C656 O654 1.234 . S
Zn657 O663 1.920 1_655 S
Zn657 O669 1.898 . S
Zn657 O672 1.905 1_554 S
Zn658 O666 1.905 . S
Zn658 O667 1.898 . S
Zn658 O675 1.920 . S
Zn659 O662 2.080 . S
Zn659 O665 2.114 . S
Zn659 O668 2.120 . S
Zn659 O670 2.120 . S
Zn659 O671 2.114 . S
Zn659 O674 2.080 . S
C660 O665 1.166 . S
C660 O666 1.182 . S
C661 O667 1.167 . S
C661 O668 1.299 . S
O662 Zn659 2.080 . S
O662 C676 1.305 1_655 S
O663 Zn657 1.920 1_455 S
O663 C676 1.234 . S
C664 O669 1.167 . S
C664 O670 1.299 . S
O665 Zn659 2.114 . S
O665 C660 1.166 . S
O666 Zn658 1.905 . S
O666 C660 1.182 . S
O667 Zn658 1.898 . S
O667 C661 1.167 . S
O668 Zn659 2.120 . S
O668 C661 1.299 . S
O669 Zn657 1.898 . S
O669 C664 1.167 . S
O670 Zn659 2.120 . S
O670 C664 1.299 . S
O671 Zn659 2.114 . S
O671 C673 1.166 1_554 S
O672 Zn657 1.905 1_556 S
O672 C673 1.182 . S
C673 O671 1.166 1_556 S
C673 O672 1.182 . S
O674 Zn659 2.080 . S
O674 C677 1.305 . S
O675 Zn658 1.920 . S
O675 C677 1.234 . S
C676 O662 1.305 1_455 S
C676 O663 1.234 . S
C677 O674 1.305 . S
C677 O675 1.234 . S
Zn678 O684 1.920 1_565 S
Zn678 O690 1.898 . S
Zn678 O693 1.905 1_455 S
Zn679 O687 1.905 . S
Zn679 O688 1.898 . S
Zn679 O696 1.920 . S
Zn680 O683 2.080 . S
Zn680 O686 2.114 . S
Zn680 O689 2.120 . S
Zn680 O691 2.120 . S
Zn680 O692 2.114 . S
Zn680 O695 2.080 . S
C681 O686 1.166 . S
C681 O687 1.182 . S
C682 O688 1.167 . S
C682 O689 1.299 . S
O683 Zn680 2.080 . S
O683 C697 1.305 . S
O684 Zn678 1.920 1_545 S
O684 C697 1.234 1_545 S
C685 O690 1.167 . S
C685 O691 1.299 . S
O686 Zn680 2.114 . S
O686 C681 1.166 . S
O687 Zn679 1.905 . S
O687 C681 1.182 . S
O688 Zn679 1.898 . S
O688 C682 1.167 . S
O689 Zn680 2.120 . S
O689 C682 1.299 . S
O690 Zn678 1.898 . S
O690 C685 1.167 . S
O691 Zn680 2.120 . S
O691 C685 1.299 . S
O692 Zn680 2.114 . S
O692 C694 1.166 1_455 S
O693 Zn678 1.905 1_655 S
O693 C694 1.182 . S
C694 O692 1.166 1_655 S
C694 O693 1.182 . S
O695 Zn680 2.080 . S
O695 C698 1.305 . S
O696 Zn679 1.920 . S
O696 C698 1.234 . S
C697 O683 1.305 . S
C697 O684 1.234 1_565 S
C698 O695 1.305 . S
C698 O696 1.234 . S
Zn699 O705 1.920 . S
Zn699 O711 1.898 . S
Zn699 O714 1.905 . S
Zn700 O708 1.905 . S
Zn700 O709 1.898 1_655 S
Zn700 O717 1.920 . S
Zn701 O704 2.080 . S
Zn701 O707 2.114 . S
Zn701 O710 2.120 . S
Zn701 O712 2.120 . S
Zn701 O713 2.114 . S
Zn701 O716 2.080 . S
C702 O707 1.166 . S
C702 O708 1.182 . S
C703 O709 1.167 . S
C703 O710 1.299 1_455 S
O704 Zn701 2.080 . S
O704 C718 1.305 . S
O705 Zn699 1.920 . S
O705 C718 1.234 . S
C706 O711 1.167 . S
C706 O712 1.299 . S
O707 Zn701 2.114 . S
O707 C702 1.166 . S
O708 Zn700 1.905 . S
O708 C702 1.182 . S
O709 Zn700 1.898 1_455 S
O709 C703 1.167 . S
O710 Zn701 2.120 . S
O710 C703 1.299 1_655 S
O711 Zn699 1.898 . S
O711 C706 1.167 . S
O712 Zn701 2.120 . S
O712 C706 1.299 . S
O713 Zn701 2.114 . S
O713 C715 1.166 . S
O714 Zn699 1.905 . S
O714 C715 1.182 . S
C715 O713 1.166 . S
C715 O714 1.182 . S
O716 Zn701 2.080 . S
O716 C719 1.305 . S
O717 Zn700 1.920 . S
O717 C719 1.234 . S
C718 O704 1.305 . S
C718 O705 1.234 . S
C719 O716 1.305 . S
C719 O717 1.234 . S
Zn720 O726 1.920 . S
Zn720 O732 1.898 . S
Zn720 O735 1.905 . S
Zn721 O729 1.905 . S
Zn721 O730 1.898 1_565 S
Zn721 O738 1.920 . S
Zn722 O725 2.080 . S
Zn722 O728 2.114 . S
Zn722 O731 2.120 . S
Zn722 O733 2.120 . S
Zn722 O734 2.114 . S
Zn722 O737 2.080 . S
C723 O728 1.166 . S
C723 O729 1.182 . S
C724 O730 1.167 . S
C724 O731 1.299 1_545 S
O725 Zn722 2.080 . S
O725 C739 1.305 . S
O726 Zn720 1.920 . S
O726 C739 1.234 . S
C727 O732 1.167 . S
C727 O733 1.299 . S
O728 Zn722 2.114 . S
O728 C723 1.166 . S
O729 Zn721 1.905 . S
O729 C723 1.182 . S
O730 Zn721 1.898 1_545 S
O730 C724 1.167 . S
O731 Zn722 2.120 . S
O731 C724 1.299 1_565 S
O732 Zn720 1.898 . S
O732 C727 1.167 . S
O733 Zn722 2.120 . S
O733 C727 1.299 . S
O734 Zn722 2.114 . S
O734 C736 1.166 . S
O735 Zn720 1.905 . S
O735 C736 1.182 . S
C736 O734 1.166 . S
C736 O735 1.182 . S
O737 Zn722 2.080 . S
O737 C740 1.305 . S
O738 Zn721 1.920 . S
O738 C740 1.234 . S
C739 O725 1.305 . S
C739 O726 1.234 . S
C740 O737 1.305 . S
C740 O738 1.234 . S
Zn741 O747 1.920 . S
Zn741 O753 1.898 . S
Zn741 O756 1.905 . S
Zn742 O750 1.905 . S
Zn742 O751 1.898 . S
Zn742 O759 1.920 . S
Zn743 O746 2.080 . S
Zn743 O749 2.114 . S
Zn743 O752 2.120 . S
Zn743 O754 2.120 . S
Zn743 O755 2.114 . S
Zn743 O758 2.080 . S
C744 O749 1.166 . S
C744 O750 1.182 . S
C745 O751 1.167 . S
C745 O752 1.299 . S
O746 Zn743 2.080 . S
O746 C760 1.305 . S
O747 Zn741 1.920 . S
O747 C760 1.234 . S
C748 O753 1.167 . S
C748 O754 1.299 . S
O749 Zn743 2.114 . S
O749 C744 1.166 . S
O750 Zn742 1.905 . S
O750 C744 1.182 . S
O751 Zn742 1.898 . S
O751 C745 1.167 . S
O752 Zn743 2.120 . S
O752 C745 1.299 . S
O753 Zn741 1.898 . S
O753 C748 1.167 . S
O754 Zn743 2.120 . S
O754 C748 1.299 . S
O755 Zn743 2.114 . S
O755 C757 1.166 . S
O756 Zn741 1.905 . S
O756 C757 1.182 . S
C757 O755 1.166 . S
C757 O756 1.182 . S
O758 Zn743 2.080 . S
O758 C761 1.305 . S
O759 Zn742 1.920 . S
O759 C761 1.234 . S
C760 O746 1.305 . S
C760 O747 1.234 . S
C761 O758 1.305 . S
C761 O759 1.234 . S
Zn762 O768 1.920 1_554 S
Zn762 O774 1.898 . S
Zn762 O777 1.905 1_554 S
Zn763 O771 1.905 . S
Zn763 O772 1.898 . S
Zn763 O780 1.920 . S
Zn764 O767 2.080 . S
Zn764 O770 2.114 . S
Zn764 O773 2.120 . S
Zn764 O775 2.120 1_556 S
Zn764 O776 2.114 . S
Zn764 O779 2.080 . S
C765 O770 1.166 . S
C765 O771 1.182 . S
C766 O772 1.167 . S
C766 O773 1.299 . S
O767 Zn764 2.080 . S
O767 C781 1.305 . S
O768 Zn762 1.920 1_556 S
O768 C781 1.234 . S
C769 O774 1.167 . S
C769 O775 1.299 . S
O770 Zn764 2.114 . S
O770 C765 1.166 . S
O771 Zn763 1.905 . S
O771 C765 1.182 . S
O772 Zn763 1.898 . S
O772 C766 1.167 . S
O773 Zn764 2.120 . S
O773 C766 1.299 . S
O774 Zn762 1.898 . S
O774 C769 1.167 . S
O775 Zn764 2.120 1_554 S
O775 C769 1.299 . S
O776 Zn764 2.114 . S
O776 C778 1.166 . S
O777 Zn762 1.905 1_556 S
O777 C778 1.182 . S
C778 O776 1.166 . S
C778 O777 1.182 . S
O779 Zn764 2.080 . S
O779 C782 1.305 . S
O780 Zn763 1.920 . S
O780 C782 1.234 . S
C781 O767 1.305 . S
C781 O768 1.234 . S
C782 O779 1.305 . S
C782 O780 1.234 . S
Zn783 O789 1.920 1_556 S
Zn783 O795 1.898 . S
Zn783 O798 1.894 1_545 S
Zn784 O792 1.905 . S
Zn784 O793 1.898 . S
Zn784 O801 1.920 . S
Zn785 O788 2.080 . S
Zn785 O791 2.114 . S
Zn785 O794 2.120 . S
Zn785 O796 2.120 . S
Zn785 O797 2.114 . S
Zn785 O800 2.080 . S
C786 O791 1.166 . S
C786 O792 1.182 . S
C787 O793 1.167 . S
C787 O794 1.299 . S
O788 Zn785 2.080 . S
O788 C802 1.305 . S
O789 Zn783 1.920 1_554 S
O789 C802 1.234 1_554 S
C790 O795 1.167 . S
C790 O796 1.299 . S
O791 Zn785 2.114 . S
O791 C786 1.166 . S
O792 Zn784 1.905 . S
O792 C786 1.182 . S
O793 Zn784 1.898 . S
O793 C787 1.167 . S
O794 Zn785 2.120 . S
O794 C787 1.299 . S
O795 Zn783 1.898 . S
O795 C790 1.167 . S
O796 Zn785 2.120 . S
O796 C790 1.299 . S
O797 Zn785 2.114 . S
O797 C799 1.166 . S
O798 Zn783 1.894 1_565 S
O798 C799 1.175 1_565 S
C799 O797 1.166 . S
C799 O798 1.175 1_545 S
O800 Zn785 2.080 . S
O800 C803 1.305 . S
O801 Zn784 1.920 . S
O801 C803 1.234 . S
C802 O788 1.305 . S
C802 O789 1.234 1_556 S
C803 O800 1.305 . S
C803 O801 1.234 . S
H804 C810 0.930 . S
H805 C814 0.930 1_655 S
H806 C819 0.929 1_655 S
H807 C817 0.929 . S
H808 C812 0.929 1_655 S
H809 C818 0.929 . S
C810 H804 0.930 . S
C810 C811 1.367 . S
C810 C818 1.378 . S
C811 C810 1.367 . S
C811 C819 1.433 . S
C812 H808 0.929 1_455 S
C812 C814 1.378 . S
C812 C816 1.350 . S
C813 C816 1.463 . S
C813 C818 1.350 . S
C813 N821 1.427 . S
C814 H805 0.930 1_455 S
C814 C812 1.378 . S
C814 C815 1.367 . S
C815 C814 1.367 . S
C815 C817 1.433 . S
C816 C812 1.350 . S
C816 C813 1.463 . S
C816 N820 1.427 . S
C817 H807 0.929 . S
C817 C815 1.433 . S
C817 N820 1.384 . S
C818 H809 0.929 . S
C818 C810 1.378 . S
C818 C813 1.350 . S
C819 H806 0.929 1_455 S
C819 C811 1.433 . S
C819 N821 1.384 . S
N820 C816 1.427 . S
N820 C817 1.384 . S
N821 C813 1.427 . S
N821 C819 1.384 . S
H822 C828 0.930 . S
H823 C832 0.930 . S
H824 C837 0.929 . S
H825 C835 0.929 1_455 S
H826 C830 0.929 . S
H827 C836 0.929 . S
C828 H822 0.930 . S
C828 C829 1.367 1_455 S
C828 C836 1.378 . S
C829 C828 1.367 1_655 S
C829 C837 1.433 . S
C830 H826 0.929 . S
C830 C832 1.378 . S
C830 C834 1.350 . S
C831 C834 1.463 . S
C831 C836 1.350 1_655 S
C831 N839 1.427 . S
C832 H823 0.930 . S
C832 C830 1.378 . S
C832 C833 1.367 . S
C833 C832 1.367 . S
C833 C835 1.433 . S
C834 C830 1.350 . S
C834 C831 1.463 . S
C834 N838 1.427 . S
C835 H825 0.929 1_655 S
C835 C833 1.433 . S
C835 N838 1.384 . S
C836 H827 0.929 . S
C836 C828 1.378 . S
C836 C831 1.350 1_455 S
C837 H824 0.929 . S
C837 C829 1.433 . S
C837 N839 1.384 . S
N838 C834 1.427 . S
N838 C835 1.384 . S
N839 C831 1.427 . S
N839 C837 1.384 . S
H840 C846 0.930 . S
H841 C850 0.930 . S
H842 C855 0.929 . S
H843 C853 0.929 . S
H844 C848 0.929 . S
H845 C854 0.929 . S
C846 H840 0.930 . S
C846 C847 1.367 . S
C846 C854 1.378 . S
C847 C846 1.367 . S
C847 C855 1.433 . S
C848 H844 0.929 . S
C848 C850 1.378 . S
C848 C852 1.350 . S
C849 C852 1.463 . S
C849 C854 1.350 . S
C849 N857 1.427 . S
C850 H841 0.930 . S
C850 C848 1.378 . S
C850 C851 1.367 . S
C851 C850 1.367 . S
C851 C853 1.433 . S
C852 C848 1.350 . S
C852 C849 1.463 . S
C852 N856 1.427 . S
C853 H843 0.929 . S
C853 C851 1.433 . S
C853 N856 1.384 . S
C854 H845 0.929 . S
C854 C846 1.378 . S
C854 C849 1.350 . S
C855 H842 0.929 . S
C855 C847 1.433 . S
C855 N857 1.384 . S
N856 C852 1.427 . S
N856 C853 1.384 . S
N857 C849 1.427 . S
N857 C855 1.384 . S
H858 C864 0.930 . S
H859 C868 0.930 . S
H860 C873 0.929 . S
H861 C871 0.929 . S
H862 C866 0.929 1_455 S
H863 C872 0.929 . S
C864 H858 0.930 . S
C864 C865 1.367 . S
C864 C872 1.378 . S
C865 C864 1.367 . S
C865 C873 1.433 1_655 S
C866 H862 0.929 1_655 S
C866 C868 1.378 . S
C866 C870 1.350 . S
C867 C870 1.463 . S
C867 C872 1.350 . S
C867 N875 1.427 . S
C868 H859 0.930 . S
C868 C866 1.378 . S
C868 C869 1.367 . S
C869 C868 1.367 . S
C869 C871 1.433 . S
C870 C866 1.350 . S
C870 C867 1.463 . S
C870 N874 1.427 . S
C871 H861 0.929 . S
C871 C869 1.433 . S
C871 N874 1.384 . S
C872 H863 0.929 . S
C872 C864 1.378 . S
C872 C867 1.350 . S
C873 H860 0.929 . S
C873 C865 1.433 1_455 S
C873 N875 1.384 1_455 S
N874 C870 1.427 . S
N874 C871 1.384 . S
N875 C867 1.427 . S
N875 C873 1.384 1_655 S
H876 C882 0.930 . S
H877 C886 0.930 . S
H878 C891 0.929 1_565 S
H879 C889 0.929 . S
H880 C884 0.929 . S
H881 C890 0.929 . S
C882 H876 0.930 . S
C882 C883 1.367 . S
C882 C890 1.378 . S
C883 C882 1.367 . S
C883 C891 1.433 . S
C884 H880 0.929 . S
C884 C886 1.378 . S
C884 C888 1.350 . S
C885 C888 1.463 . S
C885 C890 1.350 . S
C885 N893 1.427 . S
C886 H877 0.930 . S
C886 C884 1.378 . S
C886 C887 1.367 . S
C887 C886 1.367 . S
C887 C889 1.433 . S
C888 C884 1.350 . S
C888 C885 1.463 . S
C888 N892 1.427 . S
C889 H879 0.929 . S
C889 C887 1.433 . S
C889 N892 1.384 . S
C890 H881 0.929 . S
C890 C882 1.378 . S
C890 C885 1.350 . S
C891 H878 0.929 1_545 S
C891 C883 1.433 . S
C891 N893 1.384 . S
N892 C888 1.427 . S
N892 C889 1.384 . S
N893 C885 1.427 . S
N893 C891 1.384 . S
H894 C900 0.930 . S
H895 C904 0.930 . S
H896 C909 0.929 . S
H897 C907 0.929 . S
H898 C902 0.929 . S
H899 C908 0.929 . S
C900 H894 0.930 . S
C900 C901 1.367 . S
C900 C908 1.378 . S
C901 C900 1.367 . S
C901 C909 1.433 . S
C902 H898 0.929 . S
C902 C904 1.378 . S
C902 C906 1.350 . S
C903 C906 1.463 . S
C903 C908 1.350 . S
C903 N911 1.427 . S
C904 H895 0.930 . S
C904 C902 1.378 . S
C904 C905 1.367 . S
C905 C904 1.367 . S
C905 C907 1.433 . S
C906 C902 1.350 . S
C906 C903 1.463 . S
C906 N910 1.427 . S
C907 H897 0.929 . S
C907 C905 1.433 . S
C907 N910 1.384 . S
C908 H899 0.929 . S
C908 C900 1.378 . S
C908 C903 1.350 . S
C909 H896 0.929 . S
C909 C901 1.433 . S
C909 N911 1.384 . S
N910 C906 1.427 . S
N910 C907 1.384 . S
N911 C903 1.427 . S
N911 C909 1.384 . S
H912 C918 0.930 . S
H913 C922 0.930 1_545 S
H914 C927 0.929 . S
H915 C925 0.929 . S
H916 C920 0.929 1_545 S
H917 C926 0.929 . S
C918 H912 0.930 . S
C918 C919 1.367 . S
C918 C926 1.378 . S
C919 C918 1.367 . S
C919 C927 1.433 1_565 S
C920 H916 0.929 1_565 S
C920 C922 1.378 . S
C920 C924 1.350 . S
C921 C924 1.463 . S
C921 C926 1.350 . S
C921 N929 1.427 1_565 S
C922 H913 0.930 1_565 S
C922 C920 1.378 . S
C922 C923 1.367 . S
C923 C922 1.367 . S
C923 C925 1.433 . S
C924 C920 1.350 . S
C924 C921 1.463 . S
C924 N928 1.427 . S
C925 H915 0.929 . S
C925 C923 1.433 . S
C925 N928 1.384 . S
C926 H917 0.929 . S
C926 C918 1.378 . S
C926 C921 1.350 . S
C927 H914 0.929 . S
C927 C919 1.433 1_545 S
C927 N929 1.384 . S
N928 C924 1.427 . S
N928 C925 1.384 . S
N929 C921 1.427 1_545 S
N929 C927 1.384 . S
H930 C936 0.930 . S
H931 C940 0.930 . S
H932 C945 0.929 . S
H933 C943 0.929 . S
H934 C938 0.929 . S
H935 C944 0.929 . S
C936 H930 0.930 . S
C936 C937 1.367 . S
C936 C944 1.378 . S
C937 C936 1.367 . S
C937 C945 1.433 . S
C938 H934 0.929 . S
C938 C940 1.378 . S
C938 C942 1.350 . S
C939 C942 1.463 . S
C939 C944 1.350 . S
C939 N947 1.427 . S
C940 H931 0.930 . S
C940 C938 1.378 . S
C940 C941 1.367 . S
C941 C940 1.367 . S
C941 C943 1.433 . S
C942 C938 1.350 . S
C942 C939 1.463 . S
C942 N946 1.427 . S
C943 H933 0.929 . S
C943 C941 1.433 . S
C943 N946 1.384 . S
C944 H935 0.929 . S
C944 C936 1.378 . S
C944 C939 1.350 . S
C945 H932 0.929 . S
C945 C937 1.433 . S
C945 N947 1.384 . S
N946 C942 1.427 . S
N946 C943 1.384 . S
N947 C939 1.427 . S
N947 C945 1.384 . S
H948 C954 0.930 . S
H949 C958 0.930 . S
H950 C963 0.929 . S
H951 C961 0.929 . S
H952 C956 0.929 . S
H953 C962 0.929 . S
C954 H948 0.930 . S
C954 C955 1.367 . S
C954 C962 1.378 . S
C955 C954 1.367 . S
C955 C963 1.433 . S
C956 H952 0.929 . S
C956 C958 1.378 . S
C956 C960 1.350 . S
C957 C960 1.463 . S
C957 C962 1.350 . S
C957 N965 1.427 . S
C958 H949 0.930 . S
C958 C956 1.378 . S
C958 C959 1.367 . S
C959 C958 1.367 . S
C959 C961 1.433 . S
C960 C956 1.350 . S
C960 C957 1.463 . S
C960 N964 1.427 . S
C961 H951 0.929 . S
C961 C959 1.433 . S
C961 N964 1.384 . S
C962 H953 0.929 . S
C962 C954 1.378 . S
C962 C957 1.350 . S
C963 H950 0.929 . S
C963 C955 1.433 . S
C963 N965 1.384 . S
N964 C960 1.427 . S
N964 C961 1.384 . S
N965 C957 1.427 . S
N965 C963 1.384 . S
H966 C972 0.930 . S
H967 C976 0.930 . S
H968 C981 0.929 . S
H969 C979 0.929 . S
H970 C974 0.929 . S
H971 C980 0.929 . S
C972 H966 0.930 . S
C972 C973 1.367 . S
C972 C980 1.378 . S
C973 C972 1.367 . S
C973 C981 1.433 . S
C974 H970 0.929 . S
C974 C976 1.378 . S
C974 C978 1.350 . S
C975 C978 1.463 . S
C975 C980 1.350 . S
C975 N983 1.427 . S
C976 H967 0.930 . S
C976 C974 1.378 . S
C976 C977 1.367 . S
C977 C976 1.367 . S
C977 C979 1.433 . S
C978 C974 1.350 . S
C978 C975 1.463 . S
C978 N982 1.427 . S
C979 H969 0.929 . S
C979 C977 1.433 . S
C979 N982 1.384 . S
C980 H971 0.929 . S
C980 C972 1.378 . S
C980 C975 1.350 . S
C981 H968 0.929 . S
C981 C973 1.433 . S
C981 N983 1.384 . S
N982 C978 1.427 . S
N982 C979 1.384 . S
N983 C975 1.427 . S
N983 C981 1.384 . S
H984 C990 0.930 . S
H985 C994 0.930 . S
H986 C999 0.929 . S
H987 C997 0.929 . S
H988 C992 0.929 . S
H989 C998 0.929 . S
C990 H984 0.930 . S
C990 C991 1.367 . S
C990 C998 1.378 . S
C991 C990 1.367 . S
C991 C999 1.433 . S
C992 H988 0.929 . S
C992 C994 1.378 . S
C992 C996 1.350 . S
C993 C996 1.463 . S
C993 C998 1.350 . S
C993 N1001 1.427 . S
C994 H985 0.930 . S
C994 C992 1.378 . S
C994 C995 1.367 . S
C995 C994 1.367 . S
C995 C997 1.433 . S
C996 C992 1.350 . S
C996 C993 1.463 . S
C996 N1000 1.427 . S
C997 H987 0.929 . S
C997 C995 1.433 . S
C997 N1000 1.384 . S
C998 H989 0.929 . S
C998 C990 1.378 . S
C998 C993 1.350 . S
C999 H986 0.929 . S
C999 C991 1.433 . S
C999 N1001 1.384 . S
N1000 C996 1.427 . S
N1000 C997 1.384 . S
N1001 C993 1.427 . S
N1001 C999 1.384 . S
H1002 C1008 0.930 . S
H1003 C1012 0.930 . S
H1004 C1017 0.929 . S
H1005 C1015 0.929 . S
H1006 C1010 0.929 . S
H1007 C1016 0.929 . S
C1008 H1002 0.930 . S
C1008 C1009 1.367 . S
C1008 C1016 1.378 . S
C1009 C1008 1.367 . S
C1009 C1017 1.433 . S
C1010 H1006 0.929 . S
C1010 C1012 1.378 . S
C1010 C1014 1.350 . S
C1011 C1014 1.463 . S
C1011 C1016 1.350 . S
C1011 N1019 1.427 . S
C1012 H1003 0.930 . S
C1012 C1010 1.378 . S
C1012 C1013 1.367 . S
C1013 C1012 1.367 . S
C1013 C1015 1.433 . S
C1014 C1010 1.350 . S
C1014 C1011 1.463 . S
C1014 N1018 1.427 . S
C1015 H1005 0.929 . S
C1015 C1013 1.433 . S
C1015 N1018 1.384 . S
C1016 H1007 0.929 . S
C1016 C1008 1.378 . S
C1016 C1011 1.350 . S
C1017 H1004 0.929 . S
C1017 C1009 1.433 . S
C1017 N1019 1.384 . S
N1018 C1014 1.427 . S
N1018 C1015 1.384 . S
N1019 C1011 1.427 . S
N1019 C1017 1.384 . S
H1020 C1026 0.930 . S
H1021 C1030 0.930 . S
H1022 C1035 0.929 . S
H1023 C1033 0.929 . S
H1024 C1028 0.929 . S
H1025 C1034 0.929 . S
C1026 H1020 0.930 . S
C1026 C1027 1.367 . S
C1026 C1034 1.378 . S
C1027 C1026 1.367 . S
C1027 C1035 1.433 . S
C1028 H1024 0.929 . S
C1028 C1030 1.378 . S
C1028 C1032 1.350 . S
C1029 C1032 1.463 . S
C1029 C1034 1.350 . S
C1029 N1037 1.427 . S
C1030 H1021 0.930 . S
C1030 C1028 1.378 . S
C1030 C1031 1.367 . S
C1031 C1030 1.367 . S
C1031 C1033 1.433 . S
C1032 C1028 1.350 . S
C1032 C1029 1.463 . S
C1032 N1036 1.427 . S
C1033 H1023 0.929 . S
C1033 C1031 1.433 . S
C1033 N1036 1.384 . S
C1034 H1025 0.929 . S
C1034 C1026 1.378 . S
C1034 C1029 1.350 . S
C1035 H1022 0.929 . S
C1035 C1027 1.433 . S
C1035 N1037 1.384 . S
N1036 C1032 1.427 . S
N1036 C1033 1.384 . S
N1037 C1029 1.427 . S
N1037 C1035 1.384 . S
H1038 C1044 0.930 . S
H1039 C1048 0.930 . S
H1040 C1053 0.929 . S
H1041 C1051 0.929 . S
H1042 C1046 0.929 . S
H1043 C1052 0.929 . S
C1044 H1038 0.930 . S
C1044 C1045 1.367 . S
C1044 C1052 1.378 . S
C1045 C1044 1.367 . S
C1045 C1053 1.433 . S
C1046 H1042 0.929 . S
C1046 C1048 1.378 . S
C1046 C1050 1.350 . S
C1047 C1050 1.463 . S
C1047 C1052 1.350 . S
C1047 N1055 1.427 . S
C1048 H1039 0.930 . S
C1048 C1046 1.378 . S
C1048 C1049 1.367 . S
C1049 C1048 1.367 . S
C1049 C1051 1.433 . S
C1050 C1046 1.350 . S
C1050 C1047 1.463 . S
C1050 N1054 1.427 . S
C1051 H1041 0.929 . S
C1051 C1049 1.433 . S
C1051 N1054 1.384 . S
C1052 H1043 0.929 . S
C1052 C1044 1.378 . S
C1052 C1047 1.350 . S
C1053 H1040 0.929 . S
C1053 C1045 1.433 . S
C1053 N1055 1.384 . S
N1054 C1050 1.427 . S
N1054 C1051 1.384 . S
N1055 C1047 1.427 . S
N1055 C1053 1.384 . S
H1056 C1062 0.930 . S
H1057 C1066 0.930 . S
H1058 C1071 0.929 . S
H1059 C1069 0.929 . S
H1060 C1064 0.929 . S
H1061 C1070 0.929 . S
C1062 H1056 0.930 . S
C1062 C1063 1.367 . S
C1062 C1070 1.378 . S
C1063 C1062 1.367 . S
C1063 C1071 1.433 . S
C1064 H1060 0.929 . S
C1064 C1066 1.378 . S
C1064 C1068 1.350 . S
C1065 C1068 1.463 . S
C1065 C1070 1.350 . S
C1065 N1073 1.427 . S
C1066 H1057 0.930 . S
C1066 C1064 1.378 . S
C1066 C1067 1.367 . S
C1067 C1066 1.367 . S
C1067 C1069 1.433 . S
C1068 C1064 1.350 . S
C1068 C1065 1.463 . S
C1068 N1072 1.427 . S
C1069 H1059 0.929 . S
C1069 C1067 1.433 . S
C1069 N1072 1.384 . S
C1070 H1061 0.929 . S
C1070 C1062 1.378 . S
C1070 C1065 1.350 . S
C1071 H1058 0.929 . S
C1071 C1063 1.433 . S
C1071 N1073 1.384 . S
N1072 C1068 1.427 . S
N1072 C1069 1.384 . S
N1073 C1065 1.427 . S
N1073 C1071 1.384 . S
H1074 C1080 0.930 . S
H1075 C1084 0.930 . S
H1076 C1089 0.929 . S
H1077 C1087 0.929 . S
H1078 C1082 0.929 . S
H1079 C1088 0.929 . S
C1080 H1074 0.930 . S
C1080 C1081 1.367 . S
C1080 C1088 1.378 . S
C1081 C1080 1.367 . S
C1081 C1089 1.433 . S
C1082 H1078 0.929 . S
C1082 C1084 1.378 . S
C1082 C1086 1.350 . S
C1083 C1086 1.463 . S
C1083 C1088 1.350 . S
C1083 N1091 1.427 . S
C1084 H1075 0.930 . S
C1084 C1082 1.378 . S
C1084 C1085 1.367 . S
C1085 C1084 1.367 . S
C1085 C1087 1.433 . S
C1086 C1082 1.350 . S
C1086 C1083 1.463 . S
C1086 N1090 1.427 . S
C1087 H1077 0.929 . S
C1087 C1085 1.433 . S
C1087 N1090 1.384 . S
C1088 H1079 0.929 . S
C1088 C1080 1.378 . S
C1088 C1083 1.350 . S
C1089 H1076 0.929 . S
C1089 C1081 1.433 . S
C1089 N1091 1.384 . S
N1090 C1086 1.427 . S
N1090 C1087 1.384 . S
N1091 C1083 1.427 . S
N1091 C1089 1.384 . S
H1092 C1098 0.930 . S
H1093 C1102 0.930 . S
H1094 C1107 0.929 . S
H1095 C1105 0.929 . S
H1096 C1100 0.929 . S
H1097 C1106 0.929 . S
C1098 H1092 0.930 . S
C1098 C1099 1.367 . S
C1098 C1106 1.378 . S
C1099 C1098 1.367 . S
C1099 C1107 1.433 . S
C1100 H1096 0.929 . S
C1100 C1102 1.378 . S
C1100 C1104 1.350 . S
C1101 C1104 1.463 . S
C1101 C1106 1.350 . S
C1101 N1109 1.427 . S
C1102 H1093 0.930 . S
C1102 C1100 1.378 . S
C1102 C1103 1.367 . S
C1103 C1102 1.367 . S
C1103 C1105 1.433 . S
C1104 C1100 1.350 . S
C1104 C1101 1.463 . S
C1104 N1108 1.427 . S
C1105 H1095 0.929 . S
C1105 C1103 1.433 . S
C1105 N1108 1.384 . S
C1106 H1097 0.929 . S
C1106 C1098 1.378 . S
C1106 C1101 1.350 . S
C1107 H1094 0.929 . S
C1107 C1099 1.433 . S
C1107 N1109 1.384 . S
N1108 C1104 1.427 . S
N1108 C1105 1.384 . S
N1109 C1101 1.427 . S
N1109 C1107 1.384 . S
H1110 C1116 0.930 . S
H1111 C1120 0.930 . S
H1112 C1125 0.929 1_545 S
H1113 C1123 0.929 . S
H1114 C1118 0.929 1_545 S
H1115 C1124 0.929 . S
C1116 H1110 0.930 . S
C1116 C1117 1.367 . S
C1116 C1124 1.378 . S
C1117 C1116 1.367 . S
C1117 C1125 1.433 . S
C1118 H1114 0.929 1_565 S
C1118 C1120 1.378 . S
C1118 C1122 1.350 . S
C1119 C1122 1.463 . S
C1119 C1124 1.350 . S
C1119 N1127 1.427 . S
C1120 H1111 0.930 . S
C1120 C1118 1.378 . S
C1120 C1121 1.367 . S
C1121 C1120 1.367 . S
C1121 C1123 1.433 . S
C1122 C1118 1.350 . S
C1122 C1119 1.463 . S
C1122 N1126 1.427 . S
C1123 H1113 0.929 . S
C1123 C1121 1.433 . S
C1123 N1126 1.384 . S
C1124 H1115 0.929 . S
C1124 C1116 1.378 . S
C1124 C1119 1.350 . S
C1125 H1112 0.929 1_565 S
C1125 C1117 1.433 . S
C1125 N1127 1.384 . S
N1126 C1122 1.427 . S
N1126 C1123 1.384 . S
N1127 C1119 1.427 . S
N1127 C1125 1.384 . S
H1128 C1134 0.930 . S
H1129 C1138 0.930 . S
H1130 C1143 0.929 . S
H1131 C1141 0.929 . S
H1132 C1136 0.929 . S
H1133 C1142 0.929 . S
C1134 H1128 0.930 . S
C1134 C1135 1.367 . S
C1134 C1142 1.378 . S
C1135 C1134 1.367 . S
C1135 C1143 1.433 . S
C1136 H1132 0.929 . S
C1136 C1138 1.378 . S
C1136 C1140 1.350 . S
C1137 C1140 1.463 . S
C1137 C1142 1.350 . S
C1137 N1145 1.427 . S
C1138 H1129 0.930 . S
C1138 C1136 1.378 . S
C1138 C1139 1.367 . S
C1139 C1138 1.367 . S
C1139 C1141 1.433 . S
C1140 C1136 1.350 . S
C1140 C1137 1.463 . S
C1140 N1144 1.427 . S
C1141 H1131 0.929 . S
C1141 C1139 1.433 . S
C1141 N1144 1.384 . S
C1142 H1133 0.929 . S
C1142 C1134 1.378 . S
C1142 C1137 1.350 . S
C1143 H1130 0.929 . S
C1143 C1135 1.433 . S
C1143 N1145 1.384 . S
N1144 C1140 1.427 . S
N1144 C1141 1.384 . S
N1145 C1137 1.427 . S
N1145 C1143 1.384 . S
H1146 C1152 0.930 . S
H1147 C1156 0.930 . S
H1148 C1161 0.929 1_565 S
H1149 C1159 0.929 . S
H1150 C1154 0.929 . S
H1151 C1160 0.929 . S
C1152 H1146 0.930 . S
C1152 C1153 1.367 . S
C1152 C1160 1.378 . S
C1153 C1152 1.367 . S
C1153 C1161 1.433 . S
C1154 H1150 0.929 . S
C1154 C1156 1.378 . S
C1154 C1158 1.350 . S
C1155 C1158 1.463 . S
C1155 C1160 1.350 . S
C1155 N1163 1.427 . S
C1156 H1147 0.930 . S
C1156 C1154 1.378 . S
C1156 C1157 1.367 . S
C1157 C1156 1.367 . S
C1157 C1159 1.433 . S
C1158 C1154 1.350 . S
C1158 C1155 1.463 . S
C1158 N1162 1.427 . S
C1159 H1149 0.929 . S
C1159 C1157 1.433 . S
C1159 N1162 1.384 . S
C1160 H1151 0.929 . S
C1160 C1152 1.378 . S
C1160 C1155 1.350 . S
C1161 H1148 0.929 1_545 S
C1161 C1153 1.433 . S
C1161 N1163 1.384 . S
N1162 C1158 1.427 . S
N1162 C1159 1.384 . S
N1163 C1155 1.427 . S
N1163 C1161 1.384 . S
H1164 C1170 0.930 . S
H1165 C1174 0.930 . S
H1166 C1179 0.929 . S
H1167 C1177 0.929 . S
H1168 C1172 0.929 . S
H1169 C1178 0.929 . S
C1170 H1164 0.930 . S
C1170 C1171 1.367 . S
C1170 C1178 1.378 . S
C1171 C1170 1.367 . S
C1171 C1179 1.433 . S
C1172 H1168 0.929 . S
C1172 C1174 1.378 . S
C1172 C1176 1.350 . S
C1173 C1176 1.463 . S
C1173 C1178 1.350 . S
C1173 N1181 1.427 . S
C1174 H1165 0.930 . S
C1174 C1172 1.378 . S
C1174 C1175 1.367 . S
C1175 C1174 1.367 . S
C1175 C1177 1.433 . S
C1176 C1172 1.350 . S
C1176 C1173 1.463 . S
C1176 N1180 1.427 . S
C1177 H1167 0.929 . S
C1177 C1175 1.433 . S
C1177 N1180 1.384 . S
C1178 H1169 0.929 . S
C1178 C1170 1.378 . S
C1178 C1173 1.350 . S
C1179 H1166 0.929 . S
C1179 C1171 1.433 . S
C1179 N1181 1.384 . S
N1180 C1176 1.427 . S
N1180 C1177 1.384 . S
N1181 C1173 1.427 . S
N1181 C1179 1.384 . S
H1182 C1188 0.958 . S
H1183 C1192 0.930 . S
H1184 C1197 0.929 . S
H1185 C1195 0.929 . S
H1186 C1190 0.929 . S
H1187 C1196 0.929 1_554 S
C1188 H1182 0.958 . S
C1188 C1189 1.344 1_554 S
C1188 C1196 1.374 1_554 S
C1189 C1188 1.344 1_556 S
C1189 C1197 1.433 . S
C1190 H1186 0.929 . S
C1190 C1192 1.378 . S
C1190 C1194 1.350 . S
C1191 C1194 1.463 . S
C1191 C1196 1.350 . S
C1191 N1199 1.427 . S
C1192 H1183 0.930 . S
C1192 C1190 1.378 . S
C1192 C1193 1.367 . S
C1193 C1192 1.367 . S
C1193 C1195 1.433 . S
C1194 C1190 1.350 . S
C1194 C1191 1.463 . S
C1194 N1198 1.427 . S
C1195 H1185 0.929 . S
C1195 C1193 1.433 . S
C1195 N1198 1.384 . S
C1196 H1187 0.929 1_556 S
C1196 C1188 1.374 1_556 S
C1196 C1191 1.350 . S
C1197 H1184 0.929 . S
C1197 C1189 1.433 . S
C1197 N1199 1.384 . S
N1198 C1194 1.427 . S
N1198 C1195 1.384 . S
N1199 C1191 1.427 . S
N1199 C1197 1.384 . S
H1200 C1206 0.930 . S
H1201 C1210 0.930 . S
H1202 C1215 0.929 . S
H1203 C1213 0.929 . S
H1204 C1208 0.929 . S
H1205 C1214 0.929 . S
C1206 H1200 0.930 . S
C1206 C1207 1.367 1_554 S
C1206 C1214 1.378 . S
C1207 C1206 1.367 1_556 S
C1207 C1215 1.433 . S
C1208 H1204 0.929 . S
C1208 C1210 1.378 . S
C1208 C1212 1.350 . S
C1209 C1212 1.463 . S
C1209 C1214 1.350 1_556 S
C1209 N1217 1.427 . S
C1210 H1201 0.930 . S
C1210 C1208 1.378 . S
C1210 C1211 1.367 . S
C1211 C1210 1.367 . S
C1211 C1213 1.433 1_556 S
C1212 C1208 1.350 . S
C1212 C1209 1.463 . S
C1212 N1216 1.427 1_556 S
C1213 H1203 0.929 . S
C1213 C1211 1.433 1_554 S
C1213 N1216 1.384 . S
C1214 H1205 0.929 . S
C1214 C1206 1.378 . S
C1214 C1209 1.350 1_554 S
C1215 H1202 0.929 . S
C1215 C1207 1.433 . S
C1215 N1217 1.384 . S
N1216 C1212 1.427 1_554 S
N1216 C1213 1.384 . S
N1217 C1209 1.427 . S
N1217 C1215 1.384 . S
H1218 C1224 0.930 1_556 S
H1219 C1228 0.933 1_455 S
H1220 C1233 0.929 . S
H1221 C1231 0.929 . S
H1222 C1226 0.929 . S
H1223 C1232 0.929 1_556 S
C1224 H1218 0.930 1_554 S
C1224 C1225 1.367 . S
C1224 C1232 1.378 . S
C1225 C1224 1.367 . S
C1225 C1233 1.433 . S
C1226 H1222 0.929 . S
C1226 C1228 1.378 . S
C1226 C1230 1.350 . S
C1227 C1230 1.463 . S
C1227 C1232 1.350 . S
C1227 N1235 1.427 . S
C1228 H1219 0.933 1_655 S
C1228 C1226 1.378 . S
C1228 C1229 1.367 . S
C1229 C1228 1.367 . S
C1229 C1231 1.433 . S
C1230 C1226 1.350 . S
C1230 C1227 1.463 . S
C1230 N1234 1.427 . S
C1231 H1221 0.929 . S
C1231 C1229 1.433 . S
C1231 N1234 1.384 . S
C1232 H1223 0.929 1_554 S
C1232 C1224 1.378 . S
C1232 C1227 1.350 . S
C1233 H1220 0.929 . S
C1233 C1225 1.433 . S
C1233 N1235 1.384 . S
N1234 C1230 1.427 . S
N1234 C1231 1.384 . S
N1235 C1227 1.427 . S
N1235 C1233 1.384 . S
H1236 C1242 0.930 . S
H1237 C1246 0.930 . S
H1238 C1251 0.929 . S
H1239 C1249 0.929 . S
H1240 C1244 0.929 . S
H1241 C1250 0.929 . S
C1242 H1236 0.930 . S
C1242 C1243 1.367 . S
C1242 C1250 1.378 . S
C1243 C1242 1.367 . S
C1243 C1251 1.433 . S
C1244 H1240 0.929 . S
C1244 C1246 1.378 . S
C1244 C1248 1.350 . S
C1245 C1248 1.463 . S
C1245 C1250 1.350 . S
C1245 N1253 1.427 . S
C1246 H1237 0.930 . S
C1246 C1244 1.378 . S
C1246 C1247 1.367 . S
C1247 C1246 1.367 . S
C1247 C1249 1.433 . S
C1248 C1244 1.350 . S
C1248 C1245 1.463 . S
C1248 N1252 1.427 . S
C1249 H1239 0.929 . S
C1249 C1247 1.433 . S
C1249 N1252 1.384 . S
C1250 H1241 0.929 . S
C1250 C1242 1.378 . S
C1250 C1245 1.350 . S
C1251 H1238 0.929 . S
C1251 C1243 1.433 . S
C1251 N1253 1.384 . S
N1252 C1248 1.427 . S
N1252 C1249 1.384 . S
N1253 C1245 1.427 . S
N1253 C1251 1.384 . S
H1254 C1260 0.930 . S
H1255 C1264 0.930 . S
H1256 C1269 0.929 . S
H1257 C1267 0.929 1_455 S
H1258 C1262 0.929 . S
H1259 C1268 0.929 . S
C1260 H1254 0.930 . S
C1260 C1261 1.367 1_455 S
C1260 C1268 1.378 . S
C1261 C1260 1.367 1_655 S
C1261 C1269 1.433 . S
C1262 H1258 0.929 . S
C1262 C1264 1.378 . S
C1262 C1266 1.350 . S
C1263 C1266 1.463 . S
C1263 C1268 1.350 1_655 S
C1263 N1271 1.427 . S
C1264 H1255 0.930 . S
C1264 C1262 1.378 . S
C1264 C1265 1.367 . S
C1265 C1264 1.367 . S
C1265 C1267 1.433 . S
C1266 C1262 1.350 . S
C1266 C1263 1.463 . S
C1266 N1270 1.409 1_655 S
C1267 H1257 0.929 1_655 S
C1267 C1265 1.433 . S
C1267 N1270 1.380 1_655 S
C1268 H1259 0.929 . S
C1268 C1260 1.378 . S
C1268 C1263 1.350 1_455 S
C1269 H1256 0.929 . S
C1269 C1261 1.433 . S
C1269 N1271 1.384 . S
N1270 C1266 1.409 1_455 S
N1270 C1267 1.380 1_455 S
N1271 C1263 1.427 . S
N1271 C1269 1.384 . S
H1272 C1278 0.930 . S
H1273 C1282 0.930 . S
H1274 C1287 0.929 . S
H1275 C1285 0.929 . S
H1276 C1280 0.929 . S
H1277 C1286 0.929 . S
C1278 H1272 0.930 . S
C1278 C1279 1.367 . S
C1278 C1286 1.378 . S
C1279 C1278 1.367 . S
C1279 C1287 1.433 . S
C1280 H1276 0.929 . S
C1280 C1282 1.378 . S
C1280 C1284 1.350 . S
C1281 C1284 1.463 . S
C1281 C1286 1.350 . S
C1281 N1289 1.427 . S
C1282 H1273 0.930 . S
C1282 C1280 1.378 . S
C1282 C1283 1.367 . S
C1283 C1282 1.367 . S
C1283 C1285 1.433 . S
C1284 C1280 1.350 . S
C1284 C1281 1.463 . S
C1284 N1288 1.427 . S
C1285 H1275 0.929 . S
C1285 C1283 1.433 . S
C1285 N1288 1.384 . S
C1286 H1277 0.929 . S
C1286 C1278 1.378 . S
C1286 C1281 1.350 . S
C1287 H1274 0.929 . S
C1287 C1279 1.433 . S
C1287 N1289 1.384 . S
N1288 C1284 1.427 . S
N1288 C1285 1.384 . S
N1289 C1281 1.427 . S
N1289 C1287 1.384 . S
H1290 C1296 0.930 1_455 S
H1291 C1300 0.930 . S
H1292 C1305 0.929 . S
H1293 C1303 0.929 1_455 S
H1294 C1298 0.929 . S
H1295 C1304 0.929 1_455 S
C1296 H1290 0.930 1_655 S
C1296 C1297 1.367 . S
C1296 C1304 1.378 . S
C1297 C1296 1.367 . S
C1297 C1305 1.433 . S
C1298 H1294 0.929 . S
C1298 C1300 1.378 . S
C1298 C1302 1.350 . S
C1299 C1302 1.463 . S
C1299 C1304 1.350 . S
C1299 N1307 1.427 . S
C1300 H1291 0.930 . S
C1300 C1298 1.378 . S
C1300 C1301 1.367 . S
C1301 C1300 1.367 . S
C1301 C1303 1.433 . S
C1302 C1298 1.350 . S
C1302 C1299 1.463 . S
C1302 N1306 1.427 . S
C1303 H1293 0.929 1_655 S
C1303 C1301 1.433 . S
C1303 N1306 1.384 . S
C1304 H1295 0.929 1_655 S
C1304 C1296 1.378 . S
C1304 C1299 1.350 . S
C1305 H1292 0.929 . S
C1305 C1297 1.433 . S
C1305 N1307 1.384 . S
N1306 C1302 1.427 . S
N1306 C1303 1.384 . S
N1307 C1299 1.427 . S
N1307 C1305 1.384 . S
H1308 C1314 0.930 . S
H1309 C1318 0.930 . S
H1310 C1323 0.929 . S
H1311 C1321 0.929 . S
H1312 C1316 0.929 . S
H1313 C1322 0.929 . S
C1314 H1308 0.930 . S
C1314 C1315 1.367 . S
C1314 C1322 1.378 . S
C1315 C1314 1.367 . S
C1315 C1323 1.433 . S
C1316 H1312 0.929 . S
C1316 C1318 1.378 . S
C1316 C1320 1.350 . S
C1317 C1320 1.463 . S
C1317 C1322 1.350 . S
C1317 N1325 1.427 . S
C1318 H1309 0.930 . S
C1318 C1316 1.378 . S
C1318 C1319 1.367 . S
C1319 C1318 1.367 . S
C1319 C1321 1.433 . S
C1320 C1316 1.350 . S
C1320 C1317 1.463 . S
C1320 N1324 1.427 . S
C1321 H1311 0.929 . S
C1321 C1319 1.433 . S
C1321 N1324 1.384 . S
C1322 H1313 0.929 . S
C1322 C1314 1.378 . S
C1322 C1317 1.350 . S
C1323 H1310 0.929 . S
C1323 C1315 1.433 . S
C1323 N1325 1.384 . S
N1324 C1320 1.427 . S
N1324 C1321 1.384 . S
N1325 C1317 1.427 . S
N1325 C1323 1.384 . S
H1326 C1332 0.930 . S
H1327 C1336 0.930 . S
H1328 C1341 0.929 . S
H1329 C1339 0.929 . S
H1330 C1334 0.929 . S
H1331 C1340 0.929 . S
C1332 H1326 0.930 . S
C1332 C1333 1.367 . S
C1332 C1340 1.378 . S
C1333 C1332 1.367 . S
C1333 C1341 1.433 . S
C1334 H1330 0.929 . S
C1334 C1336 1.378 . S
C1334 C1338 1.350 . S
C1335 C1338 1.463 . S
C1335 C1340 1.350 . S
C1335 N1343 1.427 . S
C1336 H1327 0.930 . S
C1336 C1334 1.378 . S
C1336 C1337 1.367 . S
C1337 C1336 1.367 . S
C1337 C1339 1.433 . S
C1338 C1334 1.350 . S
C1338 C1335 1.463 . S
C1338 N1342 1.427 . S
C1339 H1329 0.929 . S
C1339 C1337 1.433 . S
C1339 N1342 1.384 . S
C1340 H1331 0.929 . S
C1340 C1332 1.378 . S
C1340 C1335 1.350 . S
C1341 H1328 0.929 . S
C1341 C1333 1.433 . S
C1341 N1343 1.384 . S
N1342 C1338 1.427 . S
N1342 C1339 1.384 . S
N1343 C1335 1.427 . S
N1343 C1341 1.384 . S
H1344 C1350 0.930 1_545 S
H1345 C1354 0.930 . S
H1346 C1359 0.929 . S
H1347 C1357 0.929 . S
H1348 C1352 0.929 . S
H1349 C1358 0.929 . S
C1350 H1344 0.930 1_565 S
C1350 C1351 1.367 . S
C1350 C1358 1.378 . S
C1351 C1350 1.367 . S
C1351 C1359 1.433 . S
C1352 H1348 0.929 . S
C1352 C1354 1.378 . S
C1352 C1356 1.350 . S
C1353 C1356 1.463 . S
C1353 C1358 1.350 . S
C1353 N1361 1.427 . S
C1354 H1345 0.930 . S
C1354 C1352 1.378 . S
C1354 C1355 1.367 . S
C1355 C1354 1.367 . S
C1355 C1357 1.433 . S
C1356 C1352 1.350 . S
C1356 C1353 1.463 . S
C1356 N1360 1.427 . S
C1357 H1347 0.929 . S
C1357 C1355 1.433 . S
C1357 N1360 1.384 . S
C1358 H1349 0.929 . S
C1358 C1350 1.378 . S
C1358 C1353 1.350 . S
C1359 H1346 0.929 . S
C1359 C1351 1.433 . S
C1359 N1361 1.384 . S
N1360 C1356 1.427 . S
N1360 C1357 1.384 . S
N1361 C1353 1.427 . S
N1361 C1359 1.384 . S
H1362 C1368 0.930 . S
H1363 C1372 0.930 . S
H1364 C1377 0.929 . S
H1365 C1375 0.929 . S
H1366 C1370 0.929 . S
H1367 C1376 0.929 . S
C1368 H1362 0.930 . S
C1368 C1369 1.367 . S
C1368 C1376 1.378 . S
C1369 C1368 1.367 . S
C1369 C1377 1.433 . S
C1370 H1366 0.929 . S
C1370 C1372 1.378 . S
C1370 C1374 1.350 . S
C1371 C1374 1.463 . S
C1371 C1376 1.350 . S
C1371 N1379 1.427 . S
C1372 H1363 0.930 . S
C1372 C1370 1.378 . S
C1372 C1373 1.367 . S
C1373 C1372 1.367 . S
C1373 C1375 1.433 . S
C1374 C1370 1.350 . S
C1374 C1371 1.463 . S
C1374 N1378 1.427 . S
C1375 H1365 0.929 . S
C1375 C1373 1.433 . S
C1375 N1378 1.384 . S
C1376 H1367 0.929 . S
C1376 C1368 1.378 . S
C1376 C1371 1.350 . S
C1377 H1364 0.929 . S
C1377 C1369 1.433 . S
C1377 N1379 1.384 . S
N1378 C1374 1.427 . S
N1378 C1375 1.384 . S
N1379 C1371 1.427 . S
N1379 C1377 1.384 . S
H1380 C1386 0.930 . S
H1381 C1390 0.930 . S
H1382 C1395 0.929 . S
H1383 C1393 0.929 . S
H1384 C1388 0.929 . S
H1385 C1394 0.929 . S
C1386 H1380 0.930 . S
C1386 C1387 1.367 . S
C1386 C1394 1.378 . S
C1387 C1386 1.367 . S
C1387 C1395 1.433 . S
C1388 H1384 0.929 . S
C1388 C1390 1.378 . S
C1388 C1392 1.350 . S
C1389 C1392 1.463 . S
C1389 C1394 1.350 . S
C1389 N1397 1.427 . S
C1390 H1381 0.930 . S
C1390 C1388 1.378 . S
C1390 C1391 1.367 . S
C1391 C1390 1.367 . S
C1391 C1393 1.433 . S
C1392 C1388 1.350 . S
C1392 C1389 1.463 . S
C1392 N1396 1.427 . S
C1393 H1383 0.929 . S
C1393 C1391 1.433 . S
C1393 N1396 1.384 . S
C1394 H1385 0.929 . S
C1394 C1386 1.378 . S
C1394 C1389 1.350 . S
C1395 H1382 0.929 . S
C1395 C1387 1.433 . S
C1395 N1397 1.384 . S
N1396 C1392 1.427 . S
N1396 C1393 1.384 . S
N1397 C1389 1.427 . S
N1397 C1395 1.384 . S
H1398 C1404 0.930 . S
H1399 C1408 0.930 . S
H1400 C1413 0.929 . S
H1401 C1411 0.929 . S
H1402 C1406 0.929 . S
H1403 C1412 0.929 . S
C1404 H1398 0.930 . S
C1404 C1405 1.367 . S
C1404 C1412 1.378 . S
C1405 C1404 1.367 . S
C1405 C1413 1.433 . S
C1406 H1402 0.929 . S
C1406 C1408 1.378 . S
C1406 C1410 1.350 . S
C1407 C1410 1.463 . S
C1407 C1412 1.350 . S
C1407 N1415 1.427 . S
C1408 H1399 0.930 . S
C1408 C1406 1.378 . S
C1408 C1409 1.367 . S
C1409 C1408 1.367 . S
C1409 C1411 1.433 . S
C1410 C1406 1.350 . S
C1410 C1407 1.463 . S
C1410 N1414 1.427 . S
C1411 H1401 0.929 . S
C1411 C1409 1.433 . S
C1411 N1414 1.384 . S
C1412 H1403 0.929 . S
C1412 C1404 1.378 . S
C1412 C1407 1.350 . S
C1413 H1400 0.929 . S
C1413 C1405 1.433 . S
C1413 N1415 1.384 . S
N1414 C1410 1.427 . S
N1414 C1411 1.384 . S
N1415 C1407 1.427 . S
N1415 C1413 1.384 . S
H1416 C1422 0.930 . S
H1417 C1426 0.930 . S
H1418 C1431 0.929 . S
H1419 C1429 0.929 . S
H1420 C1424 0.929 . S
H1421 C1430 0.929 . S
C1422 H1416 0.930 . S
C1422 C1423 1.367 . S
C1422 C1430 1.378 . S
C1423 C1422 1.367 . S
C1423 C1431 1.433 . S
C1424 H1420 0.929 . S
C1424 C1426 1.378 . S
C1424 C1428 1.350 . S
C1425 C1428 1.463 . S
C1425 C1430 1.350 . S
C1425 N1433 1.427 . S
C1426 H1417 0.930 . S
C1426 C1424 1.378 . S
C1426 C1427 1.367 . S
C1427 C1426 1.367 . S
C1427 C1429 1.433 . S
C1428 C1424 1.350 . S
C1428 C1425 1.463 . S
C1428 N1432 1.427 . S
C1429 H1419 0.929 . S
C1429 C1427 1.433 . S
C1429 N1432 1.384 . S
C1430 H1421 0.929 . S
C1430 C1422 1.378 . S
C1430 C1425 1.350 . S
C1431 H1418 0.929 . S
C1431 C1423 1.433 . S
C1431 N1433 1.384 . S
N1432 C1428 1.427 . S
N1432 C1429 1.384 . S
N1433 C1425 1.427 . S
N1433 C1431 1.384 . S
H1434 C1440 0.930 . S
H1435 C1444 0.930 . S
H1436 C1449 0.929 . S
H1437 C1447 0.929 . S
H1438 C1442 0.929 . S
H1439 C1448 0.929 . S
C1440 H1434 0.930 . S
C1440 C1441 1.367 . S
C1440 C1448 1.378 . S
C1441 C1440 1.367 . S
C1441 C1449 1.433 . S
C1442 H1438 0.929 . S
C1442 C1444 1.378 . S
C1442 C1446 1.350 . S
C1443 C1446 1.463 . S
C1443 C1448 1.350 . S
C1443 N1451 1.427 . S
C1444 H1435 0.930 . S
C1444 C1442 1.378 . S
C1444 C1445 1.367 . S
C1445 C1444 1.367 . S
C1445 C1447 1.433 . S
C1446 C1442 1.350 . S
C1446 C1443 1.463 . S
C1446 N1450 1.427 . S
C1447 H1437 0.929 . S
C1447 C1445 1.433 . S
C1447 N1450 1.384 . S
C1448 H1439 0.929 . S
C1448 C1440 1.378 . S
C1448 C1443 1.350 . S
C1449 H1436 0.929 . S
C1449 C1441 1.433 . S
C1449 N1451 1.384 . S
N1450 C1446 1.427 . S
N1450 C1447 1.384 . S
N1451 C1443 1.427 . S
N1451 C1449 1.384 . S
H1452 C1458 0.930 . S
H1453 C1462 0.930 . S
H1454 C1467 0.929 . S
H1455 C1465 0.929 . S
H1456 C1460 0.929 . S
H1457 C1466 0.929 . S
C1458 H1452 0.930 . S
C1458 C1459 1.367 . S
C1458 C1466 1.378 . S
C1459 C1458 1.367 . S
C1459 C1467 1.433 . S
C1460 H1456 0.929 . S
C1460 C1462 1.378 . S
C1460 C1464 1.350 . S
C1461 C1464 1.463 . S
C1461 C1466 1.350 . S
C1461 N1469 1.427 . S
C1462 H1453 0.930 . S
C1462 C1460 1.378 . S
C1462 C1463 1.367 . S
C1463 C1462 1.367 . S
C1463 C1465 1.433 . S
C1464 C1460 1.350 . S
C1464 C1461 1.463 . S
C1464 N1468 1.427 . S
C1465 H1455 0.929 . S
C1465 C1463 1.433 . S
C1465 N1468 1.384 . S
C1466 H1457 0.929 . S
C1466 C1458 1.378 . S
C1466 C1461 1.350 . S
C1467 H1454 0.929 . S
C1467 C1459 1.433 . S
C1467 N1469 1.384 . S
N1468 C1464 1.427 . S
N1468 C1465 1.384 . S
N1469 C1461 1.427 . S
N1469 C1467 1.384 . S
H1470 C1476 0.930 . S
H1471 C1480 0.930 . S
H1472 C1485 0.929 . S
H1473 C1483 0.929 . S
H1474 C1478 0.929 . S
H1475 C1484 0.929 . S
C1476 H1470 0.930 . S
C1476 C1477 1.367 . S
C1476 C1484 1.378 . S
C1477 C1476 1.367 . S
C1477 C1485 1.433 . S
C1478 H1474 0.929 . S
C1478 C1480 1.378 . S
C1478 C1482 1.350 . S
C1479 C1482 1.463 . S
C1479 C1484 1.350 . S
C1479 N1487 1.427 . S
C1480 H1471 0.930 . S
C1480 C1478 1.378 . S
C1480 C1481 1.367 . S
C1481 C1480 1.367 . S
C1481 C1483 1.433 . S
C1482 C1478 1.350 . S
C1482 C1479 1.463 . S
C1482 N1486 1.427 . S
C1483 H1473 0.929 . S
C1483 C1481 1.433 . S
C1483 N1486 1.384 . S
C1484 H1475 0.929 . S
C1484 C1476 1.378 . S
C1484 C1479 1.350 . S
C1485 H1472 0.929 . S
C1485 C1477 1.433 . S
C1485 N1487 1.384 . S
N1486 C1482 1.427 . S
N1486 C1483 1.384 . S
N1487 C1479 1.427 . S
N1487 C1485 1.384 . S
H1488 C1494 0.930 . S
H1489 C1498 0.930 . S
H1490 C1503 0.929 . S
H1491 C1501 0.929 . S
H1492 C1496 0.929 . S
H1493 C1502 0.929 . S
C1494 H1488 0.930 . S
C1494 C1495 1.367 . S
C1494 C1502 1.378 . S
C1495 C1494 1.367 . S
C1495 C1503 1.433 . S
C1496 H1492 0.929 . S
C1496 C1498 1.378 . S
C1496 C1500 1.350 . S
C1497 C1500 1.463 . S
C1497 C1502 1.350 . S
C1497 N1505 1.427 . S
C1498 H1489 0.930 . S
C1498 C1496 1.378 . S
C1498 C1499 1.367 . S
C1499 C1498 1.367 . S
C1499 C1501 1.433 . S
C1500 C1496 1.350 . S
C1500 C1497 1.463 . S
C1500 N1504 1.427 . S
C1501 H1491 0.929 . S
C1501 C1499 1.433 . S
C1501 N1504 1.384 . S
C1502 H1493 0.929 . S
C1502 C1494 1.378 . S
C1502 C1497 1.350 . S
C1503 H1490 0.929 . S
C1503 C1495 1.433 . S
C1503 N1505 1.384 . S
N1504 C1500 1.427 . S
N1504 C1501 1.384 . S
N1505 C1497 1.427 . S
N1505 C1503 1.384 . S
H1506 C1512 0.930 . S
H1507 C1516 0.930 . S
H1508 C1521 0.929 . S
H1509 C1519 0.929 . S
H1510 C1514 0.929 . S
H1511 C1520 0.929 . S
C1512 H1506 0.930 . S
C1512 C1513 1.367 . S
C1512 C1520 1.378 . S
C1513 C1512 1.367 . S
C1513 C1521 1.433 . S
C1514 H1510 0.929 . S
C1514 C1516 1.378 . S
C1514 C1518 1.350 . S
C1515 C1518 1.463 . S
C1515 C1520 1.350 . S
C1515 N1523 1.427 . S
C1516 H1507 0.930 . S
C1516 C1514 1.378 . S
C1516 C1517 1.367 . S
C1517 C1516 1.367 . S
C1517 C1519 1.433 . S
C1518 C1514 1.350 . S
C1518 C1515 1.463 . S
C1518 N1522 1.427 . S
C1519 H1509 0.929 . S
C1519 C1517 1.433 . S
C1519 N1522 1.384 . S
C1520 H1511 0.929 . S
C1520 C1512 1.378 . S
C1520 C1515 1.350 . S
C1521 H1508 0.929 . S
C1521 C1513 1.433 . S
C1521 N1523 1.384 . S
N1522 C1518 1.427 . S
N1522 C1519 1.384 . S
N1523 C1515 1.427 . S
N1523 C1521 1.384 . S
H1524 C1530 0.930 . S
H1525 C1534 0.930 . S
H1526 C1539 0.929 . S
H1527 C1537 0.929 . S
H1528 C1532 0.929 . S
H1529 C1538 0.929 . S
C1530 H1524 0.930 . S
C1530 C1531 1.367 . S
C1530 C1538 1.378 . S
C1531 C1530 1.367 . S
C1531 C1539 1.433 . S
C1532 H1528 0.929 . S
C1532 C1534 1.378 . S
C1532 C1536 1.350 . S
C1533 C1536 1.463 . S
C1533 C1538 1.350 . S
C1533 N1541 1.427 . S
C1534 H1525 0.930 . S
C1534 C1532 1.378 . S
C1534 C1535 1.367 . S
C1535 C1534 1.367 . S
C1535 C1537 1.433 . S
C1536 C1532 1.350 . S
C1536 C1533 1.463 . S
C1536 N1540 1.427 . S
C1537 H1527 0.929 . S
C1537 C1535 1.433 . S
C1537 N1540 1.384 . S
C1538 H1529 0.929 . S
C1538 C1530 1.378 . S
C1538 C1533 1.350 . S
C1539 H1526 0.929 . S
C1539 C1531 1.433 . S
C1539 N1541 1.384 . S
N1540 C1536 1.427 . S
N1540 C1537 1.384 . S
N1541 C1533 1.427 . S
N1541 C1539 1.384 . S
H1542 C1548 0.930 . S
H1543 C1552 0.930 1_545 S
H1544 C1557 0.929 . S
H1545 C1555 0.929 . S
H1546 C1550 0.929 1_545 S
H1547 C1556 0.929 . S
C1548 H1542 0.930 . S
C1548 C1549 1.367 . S
C1548 C1556 1.378 . S
C1549 C1548 1.367 . S
C1549 C1557 1.433 1_565 S
C1550 H1546 0.929 1_565 S
C1550 C1552 1.378 . S
C1550 C1554 1.350 . S
C1551 C1554 1.463 . S
C1551 C1556 1.350 . S
C1551 N1559 1.427 1_565 S
C1552 H1543 0.930 1_565 S
C1552 C1550 1.378 . S
C1552 C1553 1.367 . S
C1553 C1552 1.367 . S
C1553 C1555 1.433 . S
C1554 C1550 1.350 . S
C1554 C1551 1.463 . S
C1554 N1558 1.427 . S
C1555 H1545 0.929 . S
C1555 C1553 1.433 . S
C1555 N1558 1.384 . S
C1556 H1547 0.929 . S
C1556 C1548 1.378 . S
C1556 C1551 1.350 . S
C1557 H1544 0.929 . S
C1557 C1549 1.433 1_545 S
C1557 N1559 1.384 . S
N1558 C1554 1.427 . S
N1558 C1555 1.384 . S
N1559 C1551 1.427 1_545 S
N1559 C1557 1.384 . S
H1560 C1566 0.930 . S
H1561 C1570 0.930 . S
H1562 C1575 0.929 . S
H1563 C1573 0.929 . S
H1564 C1568 0.929 . S
H1565 C1574 0.929 . S
C1566 H1560 0.930 . S
C1566 C1567 1.367 . S
C1566 C1574 1.378 . S
C1567 C1566 1.367 . S
C1567 C1575 1.433 . S
C1568 H1564 0.929 . S
C1568 C1570 1.378 . S
C1568 C1572 1.350 . S
C1569 C1572 1.463 . S
C1569 C1574 1.350 . S
C1569 N1577 1.427 . S
C1570 H1561 0.930 . S
C1570 C1568 1.378 . S
C1570 C1571 1.367 . S
C1571 C1570 1.367 . S
C1571 C1573 1.433 . S
C1572 C1568 1.350 . S
C1572 C1569 1.463 . S
C1572 N1576 1.427 . S
C1573 H1563 0.929 . S
C1573 C1571 1.433 . S
C1573 N1576 1.384 . S
C1574 H1565 0.929 . S
C1574 C1566 1.378 . S
C1574 C1569 1.350 . S
C1575 H1562 0.929 . S
C1575 C1567 1.433 . S
C1575 N1577 1.384 . S
N1576 C1572 1.427 . S
N1576 C1573 1.384 . S
N1577 C1569 1.427 . S
N1577 C1575 1.384 . S
H1578 C1584 0.930 . S
H1579 C1588 0.930 . S
H1580 C1593 0.929 . S
H1581 C1591 0.929 . S
H1582 C1586 0.929 . S
H1583 C1592 0.929 . S
C1584 H1578 0.930 . S
C1584 C1585 1.367 . S
C1584 C1592 1.378 . S
C1585 C1584 1.367 . S
C1585 C1593 1.433 . S
C1586 H1582 0.929 . S
C1586 C1588 1.378 . S
C1586 C1590 1.350 . S
C1587 C1590 1.463 . S
C1587 C1592 1.350 . S
C1587 N1595 1.427 . S
C1588 H1579 0.930 . S
C1588 C1586 1.378 . S
C1588 C1589 1.367 . S
C1589 C1588 1.367 . S
C1589 C1591 1.433 . S
C1590 C1586 1.350 . S
C1590 C1587 1.463 . S
C1590 N1594 1.427 . S
C1591 H1581 0.929 . S
C1591 C1589 1.433 . S
C1591 N1594 1.384 . S
C1592 H1583 0.929 . S
C1592 C1584 1.378 . S
C1592 C1587 1.350 . S
C1593 H1580 0.929 . S
C1593 C1585 1.433 . S
C1593 N1595 1.384 . S
N1594 C1590 1.427 . S
N1594 C1591 1.384 . S
N1595 C1587 1.427 . S
N1595 C1593 1.384 . S
H1596 C1602 0.930 . S
H1597 C1606 0.930 . S
H1598 C1611 0.929 . S
H1599 C1609 0.929 . S
H1600 C1604 0.929 . S
H1601 C1610 0.929 . S
C1602 H1596 0.930 . S
C1602 C1603 1.367 . S
C1602 C1610 1.378 . S
C1603 C1602 1.367 . S
C1603 C1611 1.433 . S
C1604 H1600 0.929 . S
C1604 C1606 1.378 . S
C1604 C1608 1.350 . S
C1605 C1608 1.463 . S
C1605 C1610 1.350 . S
C1605 N1613 1.427 . S
C1606 H1597 0.930 . S
C1606 C1604 1.378 . S
C1606 C1607 1.367 . S
C1607 C1606 1.367 . S
C1607 C1609 1.433 . S
C1608 C1604 1.350 . S
C1608 C1605 1.463 . S
C1608 N1612 1.427 . S
C1609 H1599 0.929 . S
C1609 C1607 1.433 . S
C1609 N1612 1.384 . S
C1610 H1601 0.929 . S
C1610 C1602 1.378 . S
C1610 C1605 1.350 . S
C1611 H1598 0.929 . S
C1611 C1603 1.433 . S
C1611 N1613 1.384 . S
N1612 C1608 1.427 . S
N1612 C1609 1.384 . S
N1613 C1605 1.427 . S
N1613 C1611 1.384 . S
H1614 C1620 0.930 . S
H1615 C1624 0.930 . S
H1616 C1629 0.929 . S
H1617 C1627 0.929 . S
H1618 C1622 0.929 . S
H1619 C1628 0.929 . S
C1620 H1614 0.930 . S
C1620 C1621 1.367 1_554 S
C1620 C1628 1.378 . S
C1621 C1620 1.367 1_556 S
C1621 C1629 1.433 . S
C1622 H1618 0.929 . S
C1622 C1624 1.378 . S
C1622 C1626 1.350 . S
C1623 C1626 1.463 . S
C1623 C1628 1.350 1_556 S
C1623 N1631 1.427 . S
C1624 H1615 0.930 . S
C1624 C1622 1.378 . S
C1624 C1625 1.367 . S
C1625 C1624 1.367 . S
C1625 C1627 1.433 1_556 S
C1626 C1622 1.350 . S
C1626 C1623 1.463 . S
C1626 N1630 1.427 1_556 S
C1627 H1617 0.929 . S
C1627 C1625 1.433 1_554 S
C1627 N1630 1.384 . S
C1628 H1619 0.929 . S
C1628 C1620 1.378 . S
C1628 C1623 1.350 1_554 S
C1629 H1616 0.929 . S
C1629 C1621 1.433 . S
C1629 N1631 1.384 . S
N1630 C1626 1.427 1_554 S
N1630 C1627 1.384 . S
N1631 C1623 1.427 . S
N1631 C1629 1.384 . S
H1632 C1638 0.930 . S
H1633 C1642 0.930 1_554 S
H1634 C1647 0.929 . S
H1635 C1645 0.929 . S
H1636 C1640 0.929 1_554 S
H1637 C1646 0.929 . S
C1638 H1632 0.930 . S
C1638 C1639 1.367 . S
C1638 C1646 1.378 . S
C1639 C1638 1.367 . S
C1639 C1647 1.433 1_556 S
C1640 H1636 0.929 1_556 S
C1640 C1642 1.378 . S
C1640 C1644 1.350 . S
C1641 C1644 1.463 . S
C1641 C1646 1.350 . S
C1641 N1649 1.427 1_556 S
C1642 H1633 0.930 1_556 S
C1642 C1640 1.378 . S
C1642 C1643 1.367 . S
C1643 C1642 1.367 . S
C1643 C1645 1.433 . S
C1644 C1640 1.350 . S
C1644 C1641 1.463 . S
C1644 N1648 1.427 . S
C1645 H1635 0.929 . S
C1645 C1643 1.433 . S
C1645 N1648 1.384 . S
C1646 H1637 0.929 . S
C1646 C1638 1.378 . S
C1646 C1641 1.350 . S
C1647 H1634 0.929 . S
C1647 C1639 1.433 1_554 S
C1647 N1649 1.384 . S
N1648 C1644 1.427 . S
N1648 C1645 1.384 . S
N1649 C1641 1.427 1_554 S
N1649 C1647 1.384 . S
H1650 C1656 0.930 . S
H1651 C1660 0.930 1_556 S
H1652 C1665 0.929 . S
H1653 C1663 0.929 . S
H1654 C1658 0.923 1_556 S
H1655 C1664 0.929 . S
C1656 H1650 0.930 . S
C1656 C1657 1.367 . S
C1656 C1664 1.378 . S
C1657 C1656 1.367 . S
C1657 C1665 1.433 1_554 S
C1658 H1654 0.923 1_554 S
C1658 C1660 1.378 . S
C1658 C1662 1.355 . S
C1659 C1662 1.463 . S
C1659 C1664 1.350 . S
C1659 N1667 1.427 1_554 S
C1660 H1651 0.930 1_554 S
C1660 C1658 1.378 . S
C1660 C1661 1.367 . S
C1661 C1660 1.367 . S
C1661 C1663 1.433 . S
C1662 C1658 1.355 . S
C1662 C1659 1.463 . S
C1662 N1666 1.427 . S
C1663 H1653 0.929 . S
C1663 C1661 1.433 . S
C1663 N1666 1.384 . S
C1664 H1655 0.929 . S
C1664 C1656 1.378 . S
C1664 C1659 1.350 . S
C1665 H1652 0.929 . S
C1665 C1657 1.433 1_556 S
C1665 N1667 1.384 . S
N1666 C1662 1.427 . S
N1666 C1663 1.384 . S
N1667 C1659 1.427 1_556 S
N1667 C1665 1.384 . S
C811 C22 1.672 . S
C815 C697 1.606 1_545 S
C833 C702 1.730 . S
C829 C38 1.805 . S
C851 C640 1.608 1_565 S
C847 C75 1.709 . S
C865 C91 1.724 . S
C869 C664 1.636 . S
C883 C128 1.701 . S
C887 C802 1.635 1_554 S
C901 C197 1.682 . S
C905 C769 1.619 . S
C923 C723 1.751 . S
C919 C144 1.856 . S
C937 C181 1.695 . S
C941 C757 1.611 . S
C959 C676 1.663 . S
C955 C234 1.724 . S
C977 C703 1.679 . S
C973 C303 1.759 . S
C991 C356 1.758 . S
C995 C694 1.673 . S
C1009 C287 1.773 . S
C1013 C760 1.680 . S
C1031 C781 1.585 . S
C1027 C393 1.632 . S
C1049 C799 1.767 1_565 S
C1045 C409 1.847 . S
C1063 C462 1.916 . S
C1067 C748 1.813 . S
C1085 C724 1.479 . S
C1081 C446 1.568 . S
C1099 C499 1.663 . S
C1103 C719 1.609 . S
C1117 C552 1.595 . S
C1121 C685 1.520 . S
C1139 C673 1.647 . S
C1135 C515 1.719 . S
C1153 C568 1.989 . S
C1157 C639 1.883 . S
C1175 C740 1.738 . S
C1171 C340 1.807 . S
C1193 C790 1.597 . S
C1189 C621 1.674 . S
C1207 C250 1.676 . S
C1211 C778 1.622 . S
C1225 C605 1.693 . S
C1229 C656 1.616 1_655 S
C1247 C655 1.261 . S
C1243 C39 1.419 . S
C1261 C29 1.131 . S
C1265 C677 0.993 . S
C1283 C682 1.182 . S
C1279 C92 1.412 . S
C1301 C715 1.044 . S
C1297 C82 1.208 . S
C1315 C145 1.434 . S
C1319 C652 1.262 . S
C1333 C188 1.181 . S
C1337 C660 1.041 . S
C1355 C698 1.060 . S
C1351 C135 1.182 . S
C1369 C198 1.383 . S
C1373 C706 1.163 . S
C1387 C251 1.346 . S
C1391 C643 1.175 . S
C1409 C681 1.047 . S
C1405 C294 1.186 . S
C1423 C347 1.195 . S
C1427 C718 1.055 . S
C1441 C304 1.432 . S
C1445 C727 1.218 . S
C1463 C761 1.239 . S
C1459 C410 1.396 . S
C1477 C400 1.151 . S
C1481 C739 1.038 . S
C1495 C453 1.126 . S
C1499 C766 0.968 . S
C1513 C463 1.513 . S
C1517 C786 1.274 . S
C1531 C516 1.432 . S
C1535 C744 1.251 . S
C1553 C736 1.299 . S
C1549 C569 1.470 . S
C1567 C506 1.120 . S
C1571 C782 0.971 . S
C1589 C787 1.020 . S
C1585 C559 1.168 . S
C1607 C745 1.215 . S
C1603 C357 1.352 . S
C1625 C765 1.022 . S
C1621 C612 1.199 . S
C1643 C803 1.035 . S
C1639 C241 1.136 . S
C1657 C622 1.382 . S
C1661 C661 1.176 . S
