# Generated by pormake.
# Topology gar, (4,6)-cn, num edge types: 1
# Building blocks:
#     Node 0, Type 0, BuildingBlock: QUQFOY_clean_sbu_3, # of connection points: 4
#     Node 1, Type 0, BuildingBlock: QUQFOY_clean_sbu_3, # of connection points: 4
#     Node 2, Type 0, BuildingBlock: QUQFOY_clean_sbu_3, # of connection points: 4
#     Node 3, Type 0, BuildingBlock: QUQFOY_clean_sbu_3, # of connection points: 4
#     Node 4, Type 0, BuildingBlock: QUQFOY_clean_sbu_3, # of connection points: 4
#     Node 5, Type 0, BuildingBlock: QUQFOY_clean_sbu_3, # of connection points: 4
#     Node 6, Type 0, BuildingBlock: QUQFOY_clean_sbu_3, # of connection points: 4
#     Node 7, Type 0, BuildingBlock: QUQFOY_clean_sbu_3, # of connection points: 4
#     Node 8, Type 0, BuildingBlock: QUQFOY_clean_sbu_3, # of connection points: 4
#     Node 9, Type 0, BuildingBlock: QUQFOY_clean_sbu_3, # of connection points: 4
#     Node 10, Type 0, BuildingBlock: QUQFOY_clean_sbu_3, # of connection points: 4
#     Node 11, Type 0, BuildingBlock: QUQFOY_clean_sbu_3, # of connection points: 4
#     Node 12, Type 0, BuildingBlock: QUQFOY_clean_sbu_3, # of connection points: 4
#     Node 13, Type 0, BuildingBlock: QUQFOY_clean_sbu_3, # of connection points: 4
#     Node 14, Type 0, BuildingBlock: QUQFOY_clean_sbu_3, # of connection points: 4
#     Node 15, Type 0, BuildingBlock: QUQFOY_clean_sbu_3, # of connection points: 4
#     Node 16, Type 0, BuildingBlock: QUQFOY_clean_sbu_3, # of connection points: 4
#     Node 17, Type 0, BuildingBlock: QUQFOY_clean_sbu_3, # of connection points: 4
#     Node 18, Type 0, BuildingBlock: QUQFOY_clean_sbu_3, # of connection points: 4
#     Node 19, Type 0, BuildingBlock: QUQFOY_clean_sbu_3, # of connection points: 4
#     Node 20, Type 0, BuildingBlock: QUQFOY_clean_sbu_3, # of connection points: 4
#     Node 21, Type 0, BuildingBlock: QUQFOY_clean_sbu_3, # of connection points: 4
#     Node 22, Type 0, BuildingBlock: QUQFOY_clean_sbu_3, # of connection points: 4
#     Node 23, Type 0, BuildingBlock: QUQFOY_clean_sbu_3, # of connection points: 4
#     Node 24, Type 1, BuildingBlock: BETFEN_clean_sbu_0, # of connection points: 6
#     Node 25, Type 1, BuildingBlock: BETFEN_clean_sbu_0, # of connection points: 6
#     Node 26, Type 1, BuildingBlock: BETFEN_clean_sbu_0, # of connection points: 6
#     Node 27, Type 1, BuildingBlock: BETFEN_clean_sbu_0, # of connection points: 6
#     Node 28, Type 1, BuildingBlock: BETFEN_clean_sbu_0, # of connection points: 6
#     Node 29, Type 1, BuildingBlock: BETFEN_clean_sbu_0, # of connection points: 6
#     Node 30, Type 1, BuildingBlock: BETFEN_clean_sbu_0, # of connection points: 6
#     Node 31, Type 1, BuildingBlock: BETFEN_clean_sbu_0, # of connection points: 6
#     Node 32, Type 1, BuildingBlock: BETFEN_clean_sbu_0, # of connection points: 6
#     Node 33, Type 1, BuildingBlock: BETFEN_clean_sbu_0, # of connection points: 6
#     Node 34, Type 1, BuildingBlock: BETFEN_clean_sbu_0, # of connection points: 6
#     Node 35, Type 1, BuildingBlock: BETFEN_clean_sbu_0, # of connection points: 6
#     Node 36, Type 1, BuildingBlock: BETFEN_clean_sbu_0, # of connection points: 6
#     Node 37, Type 1, BuildingBlock: BETFEN_clean_sbu_0, # of connection points: 6
#     Node 38, Type 1, BuildingBlock: BETFEN_clean_sbu_0, # of connection points: 6
#     Node 39, Type 1, BuildingBlock: BETFEN_clean_sbu_0, # of connection points: 6
#     Edge 40, Type (0, 1), BuildingBlock: XUDNAN_clean_linker_2, # of connection points: 2
#     Edge 41, Type (0, 1), BuildingBlock: XUDNAN_clean_linker_2, # of connection points: 2
#     Edge 42, Type (0, 1), BuildingBlock: XUDNAN_clean_linker_2, # of connection points: 2
#     Edge 43, Type (0, 1), BuildingBlock: XUDNAN_clean_linker_2, # of connection points: 2
#     Edge 44, Type (0, 1), BuildingBlock: XUDNAN_clean_linker_2, # of connection points: 2
#     Edge 45, Type (0, 1), BuildingBlock: XUDNAN_clean_linker_2, # of connection points: 2
#     Edge 46, Type (0, 1), BuildingBlock: XUDNAN_clean_linker_2, # of connection points: 2
#     Edge 47, Type (0, 1), BuildingBlock: XUDNAN_clean_linker_2, # of connection points: 2
#     Edge 48, Type (0, 1), BuildingBlock: XUDNAN_clean_linker_2, # of connection points: 2
#     Edge 49, Type (0, 1), BuildingBlock: XUDNAN_clean_linker_2, # of connection points: 2
#     Edge 50, Type (0, 1), BuildingBlock: XUDNAN_clean_linker_2, # of connection points: 2
#     Edge 51, Type (0, 1), BuildingBlock: XUDNAN_clean_linker_2, # of connection points: 2
#     Edge 52, Type (0, 1), BuildingBlock: XUDNAN_clean_linker_2, # of connection points: 2
#     Edge 53, Type (0, 1), BuildingBlock: XUDNAN_clean_linker_2, # of connection points: 2
#     Edge 54, Type (0, 1), BuildingBlock: XUDNAN_clean_linker_2, # of connection points: 2
#     Edge 55, Type (0, 1), BuildingBlock: XUDNAN_clean_linker_2, # of connection points: 2
#     Edge 56, Type (0, 1), BuildingBlock: XUDNAN_clean_linker_2, # of connection points: 2
#     Edge 57, Type (0, 1), BuildingBlock: XUDNAN_clean_linker_2, # of connection points: 2
#     Edge 58, Type (0, 1), BuildingBlock: XUDNAN_clean_linker_2, # of connection points: 2
#     Edge 59, Type (0, 1), BuildingBlock: XUDNAN_clean_linker_2, # of connection points: 2
#     Edge 60, Type (0, 1), BuildingBlock: XUDNAN_clean_linker_2, # of connection points: 2
#     Edge 61, Type (0, 1), BuildingBlock: XUDNAN_clean_linker_2, # of connection points: 2
#     Edge 62, Type (0, 1), BuildingBlock: XUDNAN_clean_linker_2, # of connection points: 2
#     Edge 63, Type (0, 1), BuildingBlock: XUDNAN_clean_linker_2, # of connection points: 2
#     Edge 64, Type (0, 1), BuildingBlock: XUDNAN_clean_linker_2, # of connection points: 2
#     Edge 65, Type (0, 1), BuildingBlock: XUDNAN_clean_linker_2, # of connection points: 2
#     Edge 66, Type (0, 1), BuildingBlock: XUDNAN_clean_linker_2, # of connection points: 2
#     Edge 67, Type (0, 1), BuildingBlock: XUDNAN_clean_linker_2, # of connection points: 2
#     Edge 68, Type (0, 1), BuildingBlock: XUDNAN_clean_linker_2, # of connection points: 2
#     Edge 69, Type (0, 1), BuildingBlock: XUDNAN_clean_linker_2, # of connection points: 2
#     Edge 70, Type (0, 1), BuildingBlock: XUDNAN_clean_linker_2, # of connection points: 2
#     Edge 71, Type (0, 1), BuildingBlock: XUDNAN_clean_linker_2, # of connection points: 2
#     Edge 72, Type (0, 1), BuildingBlock: XUDNAN_clean_linker_2, # of connection points: 2
#     Edge 73, Type (0, 1), BuildingBlock: XUDNAN_clean_linker_2, # of connection points: 2
#     Edge 74, Type (0, 1), BuildingBlock: XUDNAN_clean_linker_2, # of connection points: 2
#     Edge 75, Type (0, 1), BuildingBlock: XUDNAN_clean_linker_2, # of connection points: 2
#     Edge 76, Type (0, 1), BuildingBlock: XUDNAN_clean_linker_2, # of connection points: 2
#     Edge 77, Type (0, 1), BuildingBlock: XUDNAN_clean_linker_2, # of connection points: 2
#     Edge 78, Type (0, 1), BuildingBlock: XUDNAN_clean_linker_2, # of connection points: 2
#     Edge 79, Type (0, 1), BuildingBlock: XUDNAN_clean_linker_2, # of connection points: 2
#     Edge 80, Type (0, 1), BuildingBlock: XUDNAN_clean_linker_2, # of connection points: 2
#     Edge 81, Type (0, 1), BuildingBlock: XUDNAN_clean_linker_2, # of connection points: 2
#     Edge 82, Type (0, 1), BuildingBlock: XUDNAN_clean_linker_2, # of connection points: 2
#     Edge 83, Type (0, 1), BuildingBlock: XUDNAN_clean_linker_2, # of connection points: 2
#     Edge 84, Type (0, 1), BuildingBlock: XUDNAN_clean_linker_2, # of connection points: 2
#     Edge 85, Type (0, 1), BuildingBlock: XUDNAN_clean_linker_2, # of connection points: 2
#     Edge 86, Type (0, 1), BuildingBlock: XUDNAN_clean_linker_2, # of connection points: 2
#     Edge 87, Type (0, 1), BuildingBlock: XUDNAN_clean_linker_2, # of connection points: 2
#     Edge 88, Type (0, 1), BuildingBlock: XUDNAN_clean_linker_2, # of connection points: 2
#     Edge 89, Type (0, 1), BuildingBlock: XUDNAN_clean_linker_2, # of connection points: 2
#     Edge 90, Type (0, 1), BuildingBlock: XUDNAN_clean_linker_2, # of connection points: 2
#     Edge 91, Type (0, 1), BuildingBlock: XUDNAN_clean_linker_2, # of connection points: 2
#     Edge 92, Type (0, 1), BuildingBlock: XUDNAN_clean_linker_2, # of connection points: 2
#     Edge 93, Type (0, 1), BuildingBlock: XUDNAN_clean_linker_2, # of connection points: 2
#     Edge 94, Type (0, 1), BuildingBlock: XUDNAN_clean_linker_2, # of connection points: 2
#     Edge 95, Type (0, 1), BuildingBlock: XUDNAN_clean_linker_2, # of connection points: 2
#     Edge 96, Type (0, 1), BuildingBlock: XUDNAN_clean_linker_2, # of connection points: 2
#     Edge 97, Type (0, 1), BuildingBlock: XUDNAN_clean_linker_2, # of connection points: 2
#     Edge 98, Type (0, 1), BuildingBlock: XUDNAN_clean_linker_2, # of connection points: 2
#     Edge 99, Type (0, 1), BuildingBlock: XUDNAN_clean_linker_2, # of connection points: 2
#     Edge 100, Type (0, 1), BuildingBlock: XUDNAN_clean_linker_2, # of connection points: 2
#     Edge 101, Type (0, 1), BuildingBlock: XUDNAN_clean_linker_2, # of connection points: 2
#     Edge 102, Type (0, 1), BuildingBlock: XUDNAN_clean_linker_2, # of connection points: 2
#     Edge 103, Type (0, 1), BuildingBlock: XUDNAN_clean_linker_2, # of connection points: 2
#     Edge 104, Type (0, 1), BuildingBlock: XUDNAN_clean_linker_2, # of connection points: 2
#     Edge 105, Type (0, 1), BuildingBlock: XUDNAN_clean_linker_2, # of connection points: 2
#     Edge 106, Type (0, 1), BuildingBlock: XUDNAN_clean_linker_2, # of connection points: 2
#     Edge 107, Type (0, 1), BuildingBlock: XUDNAN_clean_linker_2, # of connection points: 2
#     Edge 108, Type (0, 1), BuildingBlock: XUDNAN_clean_linker_2, # of connection points: 2
#     Edge 109, Type (0, 1), BuildingBlock: XUDNAN_clean_linker_2, # of connection points: 2
#     Edge 110, Type (0, 1), BuildingBlock: XUDNAN_clean_linker_2, # of connection points: 2
#     Edge 111, Type (0, 1), BuildingBlock: XUDNAN_clean_linker_2, # of connection points: 2
#     Edge 112, Type (0, 1), BuildingBlock: XUDNAN_clean_linker_2, # of connection points: 2
#     Edge 113, Type (0, 1), BuildingBlock: XUDNAN_clean_linker_2, # of connection points: 2
#     Edge 114, Type (0, 1), BuildingBlock: XUDNAN_clean_linker_2, # of connection points: 2
#     Edge 115, Type (0, 1), BuildingBlock: XUDNAN_clean_linker_2, # of connection points: 2
#     Edge 116, Type (0, 1), BuildingBlock: XUDNAN_clean_linker_2, # of connection points: 2
#     Edge 117, Type (0, 1), BuildingBlock: XUDNAN_clean_linker_2, # of connection points: 2
#     Edge 118, Type (0, 1), BuildingBlock: XUDNAN_clean_linker_2, # of connection points: 2
#     Edge 119, Type (0, 1), BuildingBlock: XUDNAN_clean_linker_2, # of connection points: 2
#     Edge 120, Type (0, 1), BuildingBlock: XUDNAN_clean_linker_2, # of connection points: 2
#     Edge 121, Type (0, 1), BuildingBlock: XUDNAN_clean_linker_2, # of connection points: 2
#     Edge 122, Type (0, 1), BuildingBlock: XUDNAN_clean_linker_2, # of connection points: 2
#     Edge 123, Type (0, 1), BuildingBlock: XUDNAN_clean_linker_2, # of connection points: 2
#     Edge 124, Type (0, 1), BuildingBlock: XUDNAN_clean_linker_2, # of connection points: 2
#     Edge 125, Type (0, 1), BuildingBlock: XUDNAN_clean_linker_2, # of connection points: 2
#     Edge 126, Type (0, 1), BuildingBlock: XUDNAN_clean_linker_2, # of connection points: 2
#     Edge 127, Type (0, 1), BuildingBlock: XUDNAN_clean_linker_2, # of connection points: 2
#     Edge 128, Type (0, 1), BuildingBlock: XUDNAN_clean_linker_2, # of connection points: 2
#     Edge 129, Type (0, 1), BuildingBlock: XUDNAN_clean_linker_2, # of connection points: 2
#     Edge 130, Type (0, 1), BuildingBlock: XUDNAN_clean_linker_2, # of connection points: 2
#     Edge 131, Type (0, 1), BuildingBlock: XUDNAN_clean_linker_2, # of connection points: 2
#     Edge 132, Type (0, 1), BuildingBlock: XUDNAN_clean_linker_2, # of connection points: 2
#     Edge 133, Type (0, 1), BuildingBlock: XUDNAN_clean_linker_2, # of connection points: 2
#     Edge 134, Type (0, 1), BuildingBlock: XUDNAN_clean_linker_2, # of connection points: 2
#     Edge 135, Type (0, 1), BuildingBlock: XUDNAN_clean_linker_2, # of connection points: 2
# Relax obj value: 0.188
# Max RMSD: 0.316
# Mean RMSD: 0.161
data_MOF--net-gar--node1-QUQFOY_clean_sbu_3--node2-BETFEN_clean_sbu_0--edge1-XUDNAN_clean_linker_2
_symmetry_space_group_name_H-M    P1
_symmetry_Int_Tables_number       1
_symmetry_cell_setting            triclinic
loop_
_symmetry_equiv_pos_as_xyz
'x, y, z'
_cell_length_a     64.169522
_cell_length_b     58.064113
_cell_length_c     57.814579
_cell_angle_alpha  95.463576
_cell_angle_beta   98.808582
_cell_angle_gamma 102.53428
loop_
_atom_site_label
_atom_site_type_symbol
_atom_site_fract_x
_atom_site_fract_y
_atom_site_fract_z
_atom_type_partial_charge
C0 C 0.9857 0.32036 0.38171 0.0
O1 O 0.99766 0.33345 0.37023 0.0
Cd2 Cd 0.03571 0.34402 0.37955 0.0
O3 O 0.99383 0.31176 0.39967 0.0
Cd4 Cd 0.03162 0.31331 0.42335 0.0
C5 C 0.03847 0.37439 0.43521 0.0
O6 O 0.04383 0.30705 0.38649 0.0
O7 O 0.07024 0.31814 0.4158 0.0
O8 O 0.01493 0.27127 0.42548 0.0
C9 C 0.06382 0.30996 0.39412 0.0
O10 O 0.0401 0.37338 0.41351 0.0
C11 C 0.02593 0.26891 0.44492 0.0
O12 O 0.03498 0.35526 0.44489 0.0
O13 O 0.03905 0.28781 0.45594 0.0
C14 C 0.04169 0.82897 0.68136 0.0
O15 O 0.0537 0.81635 0.69066 0.0
Cd16 Cd 0.08833 0.81201 0.68356 0.0
O17 O 0.04708 0.84115 0.66496 0.0
Cd18 Cd 0.07836 0.84702 0.64204 0.0
C19 C 0.0716 0.78462 0.62622 0.0
O20 O 0.10566 0.85078 0.67726 0.0
O21 O 0.11789 0.84865 0.64504 0.0
O22 O 0.07444 0.88917 0.639 0.0
C23 C 0.12188 0.85082 0.66738 0.0
O24 O 0.07985 0.78362 0.64748 0.0
C25 C 0.07605 0.88884 0.61735 0.0
O26 O 0.06812 0.80435 0.61994 0.0
O27 O 0.07806 0.86923 0.60714 0.0
C28 C 0.48677 0.81693 0.87898 0.0
O29 O 0.49905 0.82828 0.86655 0.0
Cd30 Cd 0.53739 0.84291 0.87895 0.0
O31 O 0.49469 0.81037 0.89823 0.0
Cd32 Cd 0.53193 0.81081 0.92051 0.0
C33 C 0.53776 0.87201 0.93402 0.0
O34 O 0.55193 0.80971 0.8876 0.0
O35 O 0.57145 0.82319 0.92195 0.0
O36 O 0.52575 0.76689 0.9223 0.0
C37 C 0.57068 0.81653 0.9002 0.0
O38 O 0.54185 0.87349 0.91325 0.0
C39 C 0.52856 0.76827 0.94465 0.0
O40 O 0.53251 0.85162 0.94113 0.0
O41 O 0.53219 0.78913 0.95584 0.0
C42 C 0.54248 0.33237 0.17973 0.0
O43 O 0.55585 0.3247 0.1937 0.0
Cd44 Cd 0.59069 0.32 0.18842 0.0
O45 O 0.54702 0.33935 0.16035 0.0
Cd46 Cd 0.57892 0.34455 0.13829 0.0
C47 C 0.57414 0.28295 0.13382 0.0
O48 O 0.60648 0.35464 0.17361 0.0
O49 O 0.61858 0.34693 0.14211 0.0
O50 O 0.57441 0.38556 0.13297 0.0
C51 C 0.62269 0.35269 0.16432 0.0
O52 O 0.58136 0.28757 0.15596 0.0
C53 C 0.57519 0.38405 0.11108 0.0
O54 O 0.57052 0.29972 0.12185 0.0
O55 O 0.57689 0.364 0.1015 0.0
C56 C 0.04686 0.83437 0.17351 0.0
O57 O 0.05977 0.82636 0.18778 0.0
Cd58 Cd 0.09474 0.82117 0.18154 0.0
O59 O 0.05268 0.84258 0.15521 0.0
Cd60 Cd 0.0858 0.85054 0.13641 0.0
C61 C 0.08098 0.7904 0.12495 0.0
O62 O 0.11444 0.85737 0.17173 0.0
O63 O 0.1246 0.85122 0.1384 0.0
O64 O 0.0852 0.89204 0.12932 0.0
C65 C 0.1297 0.85504 0.16077 0.0
O66 O 0.08763 0.79092 0.14698 0.0
C67 C 0.07885 0.88701 0.10712 0.0
O68 O 0.0778 0.80914 0.11649 0.0
O69 O 0.07636 0.86541 0.09853 0.0
C70 C 0.47727 0.81151 0.37896 0.0
O71 O 0.48969 0.82054 0.36547 0.0
Cd72 Cd 0.52724 0.83685 0.38065 0.0
O73 O 0.48524 0.80683 0.39918 0.0
Cd74 Cd 0.52334 0.80675 0.42091 0.0
C75 C 0.52517 0.86372 0.43663 0.0
O76 O 0.54558 0.80656 0.3896 0.0
O77 O 0.56224 0.82522 0.42361 0.0
O78 O 0.51357 0.76374 0.42104 0.0
C79 C 0.56344 0.81674 0.40296 0.0
O80 O 0.52862 0.86517 0.41561 0.0
C81 C 0.52213 0.76344 0.44229 0.0
O82 O 0.5213 0.84358 0.44422 0.0
O83 O 0.53061 0.7836 0.45456 0.0
C84 C 0.55192 0.33403 0.6809 0.0
O85 O 0.5668 0.3284 0.69476 0.0
Cd86 Cd 0.60126 0.32402 0.68747 0.0
O87 O 0.55491 0.34014 0.66076 0.0
Cd88 Cd 0.58514 0.34764 0.63669 0.0
C89 C 0.585 0.28845 0.63169 0.0
O90 O 0.61423 0.35823 0.67112 0.0
O91 O 0.62515 0.35613 0.63795 0.0
O92 O 0.57253 0.38426 0.63558 0.0
C93 C 0.63001 0.35886 0.66031 0.0
O94 O 0.59263 0.29381 0.65369 0.0
C95 C 0.57309 0.3869 0.61414 0.0
O96 O 0.57898 0.30403 0.61956 0.0
O97 O 0.57931 0.37095 0.60209 0.0
C98 C 0.97679 0.30715 0.88267 0.0
O99 O 0.98904 0.31695 0.86937 0.0
Cd100 Cd 0.02755 0.32897 0.87724 0.0
O101 O 0.98476 0.30146 0.90245 0.0
Cd102 Cd 0.0234 0.30597 0.9258 0.0
C103 C 0.03036 0.36591 0.92942 0.0
O104 O 0.04406 0.30037 0.8939 0.0
O105 O 0.06212 0.32181 0.92605 0.0
O106 O 0.01845 0.26417 0.93502 0.0
C107 C 0.06236 0.31145 0.90584 0.0
O108 O 0.03271 0.36178 0.90806 0.0
C109 C 0.02559 0.26953 0.95705 0.0
O110 O 0.02511 0.34867 0.9413 0.0
O111 O 0.03033 0.29161 0.96487 0.0
C112 C 0.49899 0.16932 0.35638 0.0
O113 O 0.50638 0.15751 0.34123 0.0
Cd114 Cd 0.494 0.14639 0.29957 0.0
O115 O 0.48303 0.17854 0.35028 0.0
Cd116 Cd 0.45894 0.17922 0.31313 0.0
C117 C 0.44252 0.11864 0.30427 0.0
O118 O 0.48254 0.17902 0.28505 0.0
O119 O 0.44847 0.16945 0.2705 0.0
O120 O 0.44761 0.21674 0.31361 0.0
C121 C 0.46775 0.17138 0.26705 0.0
O122 O 0.46006 0.11636 0.29748 0.0
C123 C 0.42925 0.20734 0.31859 0.0
O124 O 0.43989 0.1389 0.31179 0.0
O125 O 0.42576 0.18577 0.32223 0.0
C126 C 0.31631 0.19136 0.52438 0.0
O127 O 0.3014 0.1753 0.52919 0.0
Cd128 Cd 0.2647 0.17672 0.52949 0.0
O129 O 0.31215 0.21014 0.51679 0.0
Cd130 Cd 0.27816 0.22562 0.50608 0.0
C131 C 0.2767 0.2324 0.56429 0.0
O132 O 0.24779 0.18925 0.49556 0.0
O133 O 0.23974 0.22132 0.509 0.0
O134 O 0.28747 0.23242 0.46652 0.0
C135 C 0.23325 0.19936 0.50121 0.0
O136 O 0.26913 0.20994 0.55983 0.0
C137 C 0.28422 0.25326 0.467 0.0
O138 O 0.28391 0.24437 0.5485 0.0
O139 O 0.27881 0.26162 0.48576 0.0
C140 C 0.16705 0.12634 0.90231 0.0
O141 O 0.16069 0.14059 0.8891 0.0
Cd142 Cd 0.16352 0.14252 0.84919 0.0
O143 O 0.17745 0.1116 0.89515 0.0
Cd144 Cd 0.19144 0.1056 0.85876 0.0
C145 C 0.21804 0.16117 0.85571 0.0
O146 O 0.15812 0.10269 0.83131 0.0
O147 O 0.18748 0.1037 0.81669 0.0
O148 O 0.18354 0.06293 0.8561 0.0
C149 C 0.16698 0.09951 0.81352 0.0
O150 O 0.19932 0.16487 0.84956 0.0
C151 C 0.20296 0.06168 0.85581 0.0
O152 O 0.22036 0.14127 0.86178 0.0
O153 O 0.21745 0.08106 0.86019 0.0
C154 C 0.35582 0.9815 0.0334 0.0
O155 O 0.34323 0.99222 0.02201 0.0
Cd156 Cd 0.30484 0.97813 0.01242 0.0
O157 O 0.34836 0.96212 0.04134 0.0
Cd158 Cd 0.31154 0.93467 0.04195 0.0
C159 C 0.30079 0.92275 0.98061 0.0
O160 O 0.29442 0.96853 0.04861 0.0
O161 O 0.27294 0.93377 0.04436 0.0
O162 O 0.33127 0.93364 0.08192 0.0
C163 C 0.2756 0.95611 0.0486 0.0
O164 O 0.29879 0.94414 0.98256 0.0
C165 C 0.32106 0.91321 0.08506 0.0
O166 O 0.30647 0.91352 0.9992 0.0
O167 O 0.30709 0.90151 0.06752 0.0
C168 C 0.36863 0.47339 0.0436 0.0
O169 O 0.35764 0.48653 0.03355 0.0
Cd170 Cd 0.3194 0.47685 0.02017 0.0
O171 O 0.35926 0.45384 0.0501 0.0
Cd172 Cd 0.32013 0.43177 0.05108 0.0
C173 C 0.31332 0.4201 0.99071 0.0
O174 O 0.303 0.46548 0.05241 0.0
O175 O 0.28066 0.43137 0.04266 0.0
O176 O 0.32463 0.42599 0.09382 0.0
C177 C 0.28346 0.45374 0.047 0.0
O178 O 0.31253 0.44183 0.99065 0.0
C179 C 0.31926 0.40338 0.09006 0.0
O180 O 0.31674 0.41134 0.01002 0.0
O181 O 0.3152 0.39413 0.06854 0.0
C182 C 0.82026 0.18686 0.01962 0.0
O183 O 0.81211 0.17589 0.03533 0.0
Cd184 Cd 0.77883 0.17891 0.04848 0.0
O185 O 0.81189 0.20262 0.01031 0.0
Cd186 Cd 0.78119 0.22276 0.01457 0.0
C187 C 0.79225 0.23634 0.07687 0.0
O188 O 0.75684 0.18455 0.01342 0.0
O189 O 0.74144 0.21382 0.01518 0.0
O190 O 0.77996 0.22684 0.97203 0.0
C191 C 0.73962 0.19156 0.0141 0.0
O192 O 0.78717 0.21407 0.07778 0.0
C193 C 0.78036 0.24889 0.97403 0.0
O194 O 0.79287 0.24447 0.05702 0.0
O195 O 0.78144 0.25898 0.99484 0.0
C196 C 0.11162 0.4976 0.27292 0.0
O197 O 0.09586 0.48899 0.25618 0.0
Cd198 Cd 0.10755 0.50549 0.22323 0.0
O199 O 0.13066 0.49695 0.26968 0.0
Cd200 Cd 0.14272 0.47641 0.23571 0.0
C201 C 0.16187 0.53436 0.24426 0.0
O202 O 0.11362 0.47126 0.20242 0.0
O203 O 0.14563 0.4797 0.19438 0.0
O204 O 0.14795 0.44082 0.25305 0.0
C205 C 0.12545 0.4767 0.1872 0.0
O206 O 0.14234 0.53623 0.2384 0.0
C207 C 0.16753 0.44441 0.24974 0.0
O208 O 0.16643 0.5142 0.24412 0.0
O209 O 0.17442 0.46174 0.23895 0.0
C210 C 0.86884 0.97525 0.54257 0.0
O211 O 0.85634 0.98802 0.53484 0.0
Cd212 Cd 0.8179 0.97757 0.52876 0.0
O213 O 0.86108 0.95533 0.5495 0.0
Cd214 Cd 0.82198 0.9327 0.55182 0.0
C215 C 0.81075 0.92478 0.49199 0.0
O216 O 0.80353 0.96444 0.56193 0.0
O217 O 0.78307 0.93319 0.54009 0.0
O218 O 0.82787 0.92432 0.59392 0.0
C219 C 0.78451 0.95263 0.55291 0.0
O220 O 0.80844 0.94601 0.4955 0.0
C221 C 0.82052 0.90193 0.58936 0.0
O222 O 0.81752 0.91457 0.50933 0.0
O223 O 0.81516 0.89367 0.56754 0.0
C224 C 0.9477 0.04566 0.23173 0.0
O225 O 0.96101 0.04107 0.21887 0.0
Cd226 Cd 0.94386 0.02619 0.17932 0.0
O227 O 0.92846 0.04614 0.22288 0.0
Cd228 Cd 0.90132 0.04608 0.18869 0.0
C229 C 0.89718 0.9883 0.19144 0.0
O230 O 0.92876 0.0586 0.16815 0.0
O231 O 0.89748 0.04591 0.1453 0.0
O232 O 0.90188 0.0855 0.2058 0.0
C233 C 0.91761 0.05563 0.14769 0.0
O234 O 0.91691 0.99235 0.1886 0.0
C235 C 0.88263 0.0802 0.20967 0.0
O236 O 0.88667 0.00448 0.19052 0.0
O237 O 0.8713 0.05927 0.2021 0.0
C238 C 0.31596 0.6782 0.53183 0.0
O239 O 0.30211 0.66954 0.54411 0.0
Cd240 Cd 0.26921 0.67853 0.55087 0.0
O241 O 0.31348 0.69561 0.52047 0.0
Cd242 Cd 0.28424 0.71977 0.51539 0.0
C243 C 0.28956 0.73691 0.57674 0.0
O244 O 0.25539 0.68485 0.51259 0.0
O245 O 0.24429 0.71694 0.51287 0.0
O246 O 0.2899 0.71724 0.47454 0.0
C247 C 0.2395 0.69445 0.51142 0.0
O248 O 0.27995 0.71554 0.57797 0.0
C249 C 0.28923 0.73827 0.47083 0.0
O250 O 0.29425 0.74313 0.55703 0.0
O251 O 0.28712 0.752 0.48842 0.0
C252 C 0.44182 0.54278 0.74267 0.0
O253 O 0.45603 0.53388 0.73439 0.0
Cd254 Cd 0.44888 0.51583 0.69454 0.0
O255 O 0.425 0.5456 0.72954 0.0
Cd256 Cd 0.40511 0.54423 0.68973 0.0
C257 C 0.39551 0.48592 0.6967 0.0
O258 O 0.43813 0.54824 0.68032 0.0
O259 O 0.41536 0.5502 0.64964 0.0
O260 O 0.41188 0.5844 0.7072 0.0
C261 C 0.43492 0.5514 0.65904 0.0
O262 O 0.41582 0.48767 0.69811 0.0
C263 C 0.39233 0.58597 0.70427 0.0
O264 O 0.38692 0.50323 0.69225 0.0
O265 O 0.37784 0.56782 0.69368 0.0
C266 C 0.60017 0.98731 0.77102 0.0
O267 O 0.58789 0.99333 0.75453 0.0
Cd268 Cd 0.60129 0.01003 0.72279 0.0
O269 O 0.61855 0.98372 0.76828 0.0
Cd270 Cd 0.63779 0.97969 0.73466 0.0
C271 C 0.65369 0.03874 0.74872 0.0
O272 O 0.61135 0.97933 0.70025 0.0
O273 O 0.64433 0.99063 0.69574 0.0
O274 O 0.6437 0.9396 0.73353 0.0
C275 C 0.62441 0.98743 0.68699 0.0
O276 O 0.6345 0.04066 0.74123 0.0
C277 C 0.66371 0.947 0.74268 0.0
O278 O 0.65851 0.01869 0.74817 0.0
O279 O 0.67126 0.96929 0.74769 0.0
C280 C 0.81472 0.68944 0.01791 0.0
O281 O 0.80367 0.67797 0.03133 0.0
Cd282 Cd 0.76875 0.68084 0.03899 0.0
O283 O 0.80808 0.70536 0.00692 0.0
Cd284 Cd 0.77701 0.72626 0.004 0.0
C285 C 0.78277 0.7393 0.06584 0.0
O286 O 0.75095 0.68929 0.00307 0.0
O287 O 0.73627 0.71896 1.001 0.0
O288 O 0.7791 0.73199 0.96156 0.0
C289 C 0.73388 0.6969 0.00242 0.0
O290 O 0.77652 0.71701 0.06636 0.0
C291 C 0.78377 0.75461 0.96515 0.0
O292 O 0.7853 0.74746 0.04631 0.0
O293 O 0.78491 0.76385 0.9863 0.0
C294 C 0.99627 0.6704 0.86935 0.0
O295 O 0.00797 0.66264 0.85607 0.0
Cd296 Cd 0.99692 0.64837 0.81451 0.0
O297 O 0.97889 0.67597 0.86068 0.0
Cd298 Cd 0.95939 0.67707 0.82115 0.0
C299 C 0.9468 0.61829 0.82153 0.0
O300 O 0.98223 0.67458 0.7919 0.0
O301 O 0.94817 0.65724 0.78166 0.0
O302 O 0.95328 0.71609 0.81694 0.0
C303 C 0.96682 0.66216 0.7761 0.0
O304 O 0.96458 0.6171 0.81473 0.0
C305 C 0.93302 0.70961 0.81699 0.0
O306 O 0.94198 0.63801 0.82683 0.0
O307 O 0.92562 0.68865 0.82131 0.0
C308 C 0.85752 0.47697 0.5327 0.0
O309 O 0.84545 0.48742 0.52015 0.0
Cd310 Cd 0.80689 0.47386 0.50915 0.0
O311 O 0.84941 0.45837 0.54141 0.0
Cd312 Cd 0.812 0.43446 0.54298 0.0
C313 C 0.80445 0.41833 0.48148 0.0
O314 O 0.794 0.46787 0.5456 0.0
O315 O 0.77311 0.43267 0.54164 0.0
O316 O 0.82232 0.43169 0.58584 0.0
C317 C 0.77523 0.45501 0.54526 0.0
O318 O 0.80218 0.43925 0.47903 0.0
C319 C 0.8178 0.4091 0.58365 0.0
O320 O 0.80824 0.41232 0.50219 0.0
O321 O 0.81125 0.39837 0.56271 0.0
C322 C 0.6714 0.60603 0.40703 0.0
O323 O 0.66229 0.62226 0.40041 0.0
Cd324 Cd 0.65679 0.63444 0.36261 0.0
O325 O 0.68235 0.59656 0.39395 0.0
Cd326 Cd 0.69242 0.60581 0.35582 0.0
C327 C 0.70575 0.66665 0.35962 0.0
O328 O 0.65445 0.5984 0.33787 0.0
O329 O 0.67777 0.60452 0.3145 0.0
O330 O 0.69979 0.56709 0.34621 0.0
C331 C 0.65817 0.59881 0.31707 0.0
O332 O 0.68613 0.66693 0.36012 0.0
C333 C 0.7191 0.57554 0.34351 0.0
O334 O 0.71204 0.64735 0.35924 0.0
O335 O 0.72639 0.59787 0.34851 0.0
Pr336 Pr 0.02575 0.06714 0.0197 0.0
Pr337 Pr 0.07575 0.0885 0.04812 0.0
C338 C 0.98256 0.06241 0.0127 0.0
C339 C 0.96669 0.07742 0.00855 0.0
C340 C 0.96202 0.08586 0.98679 0.0
C341 C 0.94677 0.09981 0.98341 0.0
C342 C 0.93587 0.10564 1.00171 0.0
C343 C 0.9407 0.09727 0.02348 0.0
C344 C 0.95585 0.08331 0.02682 0.0
C345 C 0.0575 0.07605 0.99286 0.0
C346 C 0.04848 0.12776 0.03054 0.0
C347 C 0.11897 0.09307 0.05628 0.0
C348 C 0.13429 0.0771 0.05833 0.0
C349 C 0.14611 0.07546 0.08044 0.0
C350 C 0.16088 0.06083 0.08235 0.0
C351 C 0.16438 0.04768 0.06215 0.0
C352 C 0.15262 0.04938 0.04003 0.0
C353 C 0.13772 0.06381 0.03814 0.0
C354 C 0.04359 0.07881 0.0746 0.0
C355 C 0.0535 0.02803 0.03541 0.0
O356 O 0.99485 0.06677 0.03368 0.0
O357 O 0.99281 0.05719 0.99558 0.0
O358 O 0.05651 0.08784 0.01177 0.0
O359 O 0.03986 0.05926 0.98504 0.0
O360 O 0.0677 0.12494 0.04049 0.0
O361 O 0.0314 0.10949 0.02301 0.0
O362 O 0.10755 0.09237 0.03525 0.0
O363 O 0.10798 0.09543 0.07343 0.0
O364 O 0.04516 0.06713 0.05591 0.0
O365 O 0.06035 0.09683 0.08195 0.0
O366 O 0.03395 0.03089 0.02687 0.0
O367 O 0.07068 0.04627 0.04234 0.0
H368 H 0.97011 0.08171 0.97235 0.0
H369 H 0.94361 0.10613 0.96649 0.0
H370 H 0.93241 0.10101 0.03786 0.0
H371 H 0.95898 0.07695 0.04374 0.0
H372 H 0.14401 0.08559 0.09629 0.0
H373 H 0.16983 0.06011 0.09964 0.0
H374 H 0.15471 0.03928 0.02416 0.0
H375 H 0.12891 0.06452 0.0208 0.0
Pr376 Pr 0.30197 0.85201 0.29331 0.0
Pr377 Pr 0.29285 0.80243 0.26136 0.0
C378 C 0.3198 0.89554 0.31684 0.0
C379 C 0.32794 0.9195 0.31108 0.0
C380 C 0.31421 0.9316 0.2984 0.0
C381 C 0.32259 0.95431 0.29302 0.0
C382 C 0.34478 0.965 0.30003 0.0
C383 C 0.35846 0.95274 0.31245 0.0
C384 C 0.35009 0.93023 0.31801 0.0
C385 C 0.26062 0.83697 0.26515 0.0
C386 C 0.31237 0.84972 0.23708 0.0
C387 C 0.26863 0.76194 0.23664 0.0
C388 C 0.26305 0.73734 0.24163 0.0
C389 C 0.27901 0.72646 0.25203 0.0
C390 C 0.2731 0.70356 0.25809 0.0
C391 C 0.25116 0.69144 0.25414 0.0
C392 C 0.23524 0.70254 0.24405 0.0
C393 C 0.24117 0.7253 0.23781 0.0
C394 C 0.33333 0.80944 0.29063 0.0
C395 C 0.28776 0.8044 0.31881 0.0
O396 O 0.33116 0.8801 0.31202 0.0
O397 O 0.2988 0.88666 0.31205 0.0
O398 O 0.27838 0.83498 0.25952 0.0
O399 O 0.26379 0.84772 0.28666 0.0
O400 O 0.30339 0.82664 0.23322 0.0
O401 O 0.315 0.86252 0.25816 0.0
O402 O 0.2605 0.77677 0.24908 0.0
O403 O 0.28877 0.77057 0.23414 0.0
O404 O 0.32072 0.82336 0.28996 0.0
O405 O 0.32574 0.79143 0.27405 0.0
O406 O 0.29694 0.82736 0.32263 0.0
O407 O 0.28211 0.79246 0.29722 0.0
H408 H 0.29706 0.92363 0.2927 0.0
H409 H 0.31178 0.96351 0.28343 0.0
H410 H 0.37557 0.96083 0.31845 0.0
H411 H 0.36093 0.92119 0.32781 0.0
H412 H 0.296 0.73566 0.25564 0.0
H413 H 0.28562 0.69537 0.26592 0.0
H414 H 0.21823 0.69342 0.24045 0.0
H415 H 0.22864 0.73361 0.23015 0.0
Pr416 Pr 0.57455 0.07738 0.52301 0.0
Pr417 Pr 0.52765 0.07822 0.53098 0.0
C418 C 0.61461 0.07059 0.52151 0.0
C419 C 0.6284 0.05334 0.52366 0.0
C420 C 0.64597 0.05547 0.5116 0.0
C421 C 0.6609 0.04127 0.51559 0.0
C422 C 0.65856 0.02479 0.53186 0.0
C423 C 0.64028 0.02186 0.54299 0.0
C424 C 0.62531 0.03599 0.53889 0.0
C425 C 0.55338 0.10209 0.49228 0.0
C426 C 0.53622 0.02709 0.50777 0.0
C427 C 0.48542 0.07841 0.52959 0.0
C428 C 0.4715 0.09524 0.53309 0.0
C429 C 0.45539 0.08974 0.54688 0.0
C430 C 0.44159 0.10491 0.55011 0.0
C431 C 0.44355 0.12596 0.53957 0.0
C432 C 0.45975 0.13153 0.52578 0.0
C433 C 0.47369 0.11638 0.52267 0.0
C434 C 0.55546 0.06946 0.56924 0.0
C435 C 0.56531 0.12605 0.54952 0.0
O436 O 0.60869 0.07871 0.54083 0.0
O437 O 0.59951 0.06713 0.50267 0.0
O438 O 0.54443 0.08288 0.49889 0.0
O439 O 0.57414 0.10795 0.49978 0.0
O440 O 0.52224 0.03771 0.51637 0.0
O441 O 0.55636 0.03836 0.50747 0.0
O442 O 0.49466 0.07898 0.51094 0.0
O443 O 0.4979 0.07491 0.54836 0.0
O444 O 0.5536 0.06045 0.54821 0.0
O445 O 0.54259 0.08371 0.57144 0.0
O446 O 0.5789 0.11177 0.55026 0.0
O447 O 0.54502 0.11859 0.53846 0.0
H448 H 0.64862 0.06878 0.49976 0.0
H449 H 0.67486 0.04407 0.50689 0.0
H450 H 0.63792 0.00906 0.55536 0.0
H451 H 0.61174 0.03398 0.54817 0.0
H452 H 0.45334 0.07353 0.55502 0.0
H453 H 0.42908 0.09988 0.56054 0.0
H454 H 0.46177 0.14769 0.51757 0.0
H455 H 0.48608 0.12119 0.51209 0.0
Pr456 Pr 0.27339 0.32566 0.77451 0.0
Pr457 Pr 0.32317 0.33293 0.78065 0.0
C458 C 0.23095 0.31855 0.77729 0.0
C459 C 0.21644 0.32381 0.7936 0.0
C460 C 0.20112 0.33689 0.78657 0.0
C461 C 0.18618 0.34078 0.80086 0.0
C462 C 0.18612 0.33147 0.82242 0.0
C463 C 0.2018 0.31883 0.82974 0.0
C464 C 0.21689 0.31511 0.81551 0.0
C465 C 0.29691 0.36833 0.76361 0.0
C466 C 0.30284 0.34695 0.82747 0.0
C467 C 0.36485 0.34548 0.77513 0.0
C468 C 0.38074 0.33774 0.76187 0.0
C469 C 0.39583 0.32618 0.77299 0.0
C470 C 0.41335 0.3227 0.76259 0.0
C471 C 0.41614 0.33066 0.74084 0.0
C472 C 0.40024 0.34054 0.72879 0.0
C473 C 0.38269 0.34414 0.73925 0.0
C474 C 0.30342 0.29078 0.79386 0.0
C475 C 0.29076 0.30547 0.72896 0.0
O476 O 0.24252 0.30312 0.78242 0.0
O477 O 0.24132 0.33645 0.76821 0.0
O478 O 0.30136 0.35859 0.78152 0.0
O479 O 0.27953 0.3557 0.7497 0.0
O480 O 0.32037 0.35258 0.81766 0.0
O481 O 0.28447 0.33358 0.81523 0.0
O482 O 0.34943 0.35368 0.76356 0.0
O483 O 0.35853 0.33294 0.79153 0.0
O484 O 0.29555 0.29927 0.77611 0.0
O485 O 0.32292 0.30242 0.8035 0.0
O486 O 0.27403 0.30318 0.73989 0.0
O487 O 0.31041 0.31778 0.73959 0.0
H488 H 0.20039 0.34372 0.76973 0.0
H489 H 0.17417 0.35037 0.79461 0.0
H490 H 0.20231 0.31168 0.84639 0.0
H491 H 0.22863 0.30511 0.82153 0.0
H492 H 0.39486 0.32107 0.79041 0.0
H493 H 0.42555 0.31524 0.77228 0.0
H494 H 0.40228 0.34715 0.71217 0.0
H495 H 0.37137 0.35312 0.7302 0.0
Pr496 Pr 0.05062 0.06412 0.50267 0.0
Pr497 Pr 0.06 0.09445 0.55555 0.0
C498 C 0.03133 0.03776 0.46183 0.0
C499 C 0.02288 0.04472 0.4394 0.0
C500 C 0.02756 0.03447 0.41854 0.0
C501 C 0.01817 0.03961 0.39696 0.0
C502 C 1.00404 0.05497 0.39623 0.0
C503 C 1.00064 0.06666 0.41706 0.0
C504 C 0.01018 0.06169 0.43867 0.0
C505 C 0.09211 0.09514 0.51148 0.0
C506 C 0.0422 0.11935 0.50852 0.0
C507 C 0.0806 0.12026 0.59629 0.0
C508 C 0.08412 0.11341 0.61997 0.0
C509 C 0.0666 0.10223 0.63006 0.0
C510 C 0.07043 0.09114 0.6501 0.0
C511 C 0.09169 0.09068 0.65973 0.0
C512 C 0.10916 0.10256 0.6502 0.0
C513 C 0.10541 0.11404 0.63056 0.0
C514 C 0.01809 0.06417 0.5459 0.0
C515 C 0.06689 0.03805 0.54932 0.0
O516 O 0.02086 0.04136 0.47905 0.0
O517 O 0.05246 0.04363 0.46812 0.0
O518 O 0.07846 0.09227 0.52518 0.0
O519 O 0.08423 0.08082 0.49197 0.0
O520 O 0.05183 0.12295 0.53103 0.0
O521 O 0.03796 0.09831 0.49532 0.0
O522 O 0.09058 0.11008 0.58157 0.0
O523 O 0.0607 0.12085 0.58715 0.0
O524 O 0.03221 0.06703 0.53282 0.0
O525 O 0.02573 0.07808 0.56578 0.0
O526 O 0.06034 0.03629 0.52623 0.0
O527 O 0.06894 0.05791 0.5639 0.0
H528 H 0.03772 0.02179 0.41892 0.0
H529 H 0.0207 0.03038 0.3808 0.0
H530 H 0.98954 0.07834 0.41658 0.0
H531 H 0.00683 0.07028 0.45469 0.0
H532 H 0.04999 0.10125 0.62202 0.0
H533 H 0.05687 0.0824 0.65769 0.0
H534 H 0.12573 0.10287 0.65793 0.0
H535 H 0.11908 0.12239 0.62292 0.0
Pr536 Pr 0.2943 0.80132 0.78324 0.0
Pr537 Pr 0.30642 0.85361 0.77708 0.0
C538 C 0.2861 0.75379 0.77957 0.0
C539 C 0.30043 0.73811 0.77429 0.0
C540 C 0.3051 0.72209 0.78989 0.0
C541 C 0.32062 0.70913 0.78648 0.0
C542 C 0.33172 0.71205 0.76739 0.0
C543 C 0.32688 0.72799 0.75171 0.0
C544 C 0.31151 0.74098 0.75519 0.0
C545 C 0.29412 0.83227 0.82357 0.0
C546 C 0.34425 0.82915 0.80068 0.0
C547 C 0.31283 0.90114 0.7815 0.0
C548 C 0.29808 0.91695 0.78101 0.0
C549 C 0.30584 0.94114 0.77984 0.0
C550 C 0.29171 0.95629 0.77958 0.0
C551 C 0.26969 0.9473 0.7805 0.0
C552 C 0.26178 0.92274 0.78025 0.0
C553 C 0.27594 0.90767 0.78059 0.0
C554 C 0.31418 0.8287 0.73624 0.0
C555 C 0.25508 0.82505 0.75864 0.0
O556 O 0.27922 0.76497 0.76242 0.0
O557 O 0.2923 0.76736 0.79989 0.0
O558 O 0.28651 0.83439 0.80253 0.0
O559 O 0.30148 0.81322 0.82431 0.0
O560 O 0.33684 0.84857 0.80198 0.0
O561 O 0.33216 0.80911 0.78857 0.0
O562 O 0.31437 0.88947 0.79975 0.0
O563 O 0.31111 0.88796 0.76145 0.0
O564 O 0.30708 0.81896 0.75305 0.0
O565 O 0.31897 0.85157 0.74131 0.0
O566 O 0.26046 0.80534 0.76435 0.0
O567 O 0.2692 0.84581 0.76284 0.0
H568 H 0.29707 0.71998 0.80499 0.0
H569 H 0.3241 0.69705 0.7989 0.0
H570 H 0.33479 0.73026 0.73654 0.0
H571 H 0.30857 0.75352 0.74307 0.0
H572 H 0.32285 0.94836 0.77962 0.0
H573 H 0.29812 0.97515 0.77957 0.0
H574 H 0.24496 0.91537 0.78122 0.0
H575 H 0.26972 0.88891 0.78119 0.0
Pr576 Pr 0.55964 0.06905 0.05826 0.0
Pr577 Pr 0.54619 0.08503 0.00636 0.0
C578 C 0.56642 0.06684 0.1048 0.0
C579 C 0.5535 0.07101 0.12275 0.0
C580 C 0.56176 0.07168 0.14671 0.0
C581 C 0.54923 0.07609 0.16363 0.0
C582 C 0.52827 0.07948 0.15657 0.0
C583 C 0.51992 0.0782 0.13252 0.0
C584 C 0.53253 0.07418 0.11575 0.0
C585 C 0.55643 0.03091 0.02252 0.0
C586 C 0.50731 0.06163 0.03425 0.0
C587 C 0.53981 0.08967 0.96036 0.0
C588 C 0.55266 0.0897 0.94167 0.0
C589 C 0.54581 0.09813 0.92066 0.0
C590 C 0.55545 0.09416 0.90113 0.0
C591 C 0.57176 0.08139 0.90253 0.0
C592 C 0.58068 0.0761 0.92454 0.0
C593 C 0.57106 0.08016 0.94412 0.0
C594 C 0.54816 0.12266 0.0419 0.0
C595 C 0.5988 0.09437 0.03146 0.0
O596 O 0.57512 0.08565 0.09567 0.0
O597 O 0.55734 0.04828 0.08903 0.0
O598 O 0.554 0.05158 0.01979 0.0
O599 O 0.56181 0.03005 0.04489 0.0
O600 O 0.51217 0.06513 0.01322 0.0
O601 O 0.52213 0.06548 0.05366 0.0
O602 O 0.53368 0.06925 0.96824 0.0
O603 O 0.54669 0.10779 0.97697 0.0
O604 O 0.55152 0.10235 0.04479 0.0
O605 O 0.54218 0.12327 0.01959 0.0
O606 O 0.59331 0.08804 0.05143 0.0
O607 O 0.58444 0.09233 0.0118 0.0
H608 H 0.57792 0.06915 0.1523 0.0
H609 H 0.55595 0.07723 0.18219 0.0
H610 H 0.504 0.0813 0.12674 0.0
H611 H 0.52598 0.07389 0.09736 0.0
H612 H 0.53198 0.10614 0.91884 0.0
H613 H 0.54845 0.09844 0.88428 0.0
H614 H 0.59323 0.06621 0.92597 0.0
H615 H 0.57687 0.07418 0.96057 0.0
Pr616 Pr 0.27357 0.31095 0.26936 0.0
Pr617 Pr 0.32196 0.3445 0.28234 0.0
C618 C 0.23107 0.29086 0.26538 0.0
C619 C 0.21276 0.29335 0.27721 0.0
C620 C 0.1922 0.29041 0.26342 0.0
C621 C 0.17436 0.29211 0.27403 0.0
C622 C 0.17666 0.29662 0.29877 0.0
C623 C 0.19749 0.30035 0.31255 0.0
C624 C 0.21541 0.29879 0.30185 0.0
C625 C 0.29289 0.3251 0.23106 0.0
C626 C 0.28249 0.3677 0.29303 0.0
C627 C 0.36172 0.36788 0.27693 0.0
C628 C 0.37957 0.36106 0.26676 0.0
C629 C 0.40105 0.37385 0.27498 0.0
C630 C 0.41808 0.36738 0.26544 0.0
C631 C 0.41391 0.34797 0.24745 0.0
C632 C 0.39228 0.33515 0.2394 0.0
C633 C 0.37532 0.34153 0.24904 0.0
C634 C 0.3092 0.32618 0.32297 0.0
C635 C 0.31391 0.28633 0.27274 0.0
O636 O 0.24635 0.28225 0.27674 0.0
O637 O 0.23846 0.30835 0.25388 0.0
O638 O 0.29407 0.33831 0.25014 0.0
O639 O 0.2813 0.30381 0.23135 0.0
O640 O 0.3022 0.37303 0.28795 0.0
O641 O 0.27069 0.34571 0.29095 0.0
O642 O 0.34398 0.3672 0.26203 0.0
O643 O 0.35789 0.35935 0.29639 0.0
O644 O 0.29862 0.32271 0.30233 0.0
O645 O 0.32793 0.34057 0.32357 0.0
O646 O 0.29402 0.28348 0.27717 0.0
O647 O 0.32468 0.30664 0.26737 0.0
H648 H 0.18989 0.28658 0.24436 0.0
H649 H 0.15871 0.28972 0.2628 0.0
H650 H 0.19986 0.30375 0.33162 0.0
H651 H 0.23124 0.3015 0.31284 0.0
H652 H 0.40465 0.38883 0.28883 0.0
H653 H 0.43451 0.37744 0.27235 0.0
H654 H 0.38833 0.32032 0.22537 0.0
H655 H 0.35886 0.33128 0.24253 0.0
Pr656 Pr 0.55469 0.567 0.00403 0.0
Pr657 Pr 0.55725 0.58806 0.05061 0.0
C658 C 0.54302 0.54886 0.95844 0.0
C659 C 0.52944 0.55593 0.93923 0.0
C660 C 0.53335 0.55226 0.91625 0.0
C661 C 0.52054 0.55935 0.89792 0.0
C662 C 0.50377 0.57029 0.90249 0.0
C663 C 0.50017 0.57432 0.92564 0.0
C664 C 0.51301 0.56725 0.94396 0.0
C665 C 0.59681 0.59307 0.02302 0.0
C666 C 0.54327 0.62016 0.01083 0.0
C667 C 0.5697 0.60732 0.09583 0.0
C668 C 0.5719 0.59914 0.11896 0.0
C669 C 0.55423 0.58499 0.12667 0.0
C670 C 0.55715 0.57716 0.14874 0.0
C671 C 0.57776 0.58314 0.16302 0.0
C672 C 0.59533 0.59722 0.15516 0.0
C673 C 0.59239 0.60518 0.13333 0.0
C674 C 0.5151 0.56102 0.03309 0.0
C675 C 0.56739 0.53366 0.04364 0.0
O676 O 0.53292 0.54022 0.97482 0.0
O677 O 0.56145 0.56406 0.96678 0.0
O678 O 0.57974 0.60013 0.02455 0.0
O679 O 0.59241 0.57176 0.01158 0.0
O680 O 0.55262 0.62129 0.03287 0.0
O681 O 0.53949 0.6001 0.9964 0.0
O682 O 0.58329 0.60215 0.08259 0.0
O683 O 0.55002 0.60497 0.08425 0.0
O684 O 0.5323 0.55463 0.03038 0.0
O685 O 0.51949 0.58232 0.04455 0.0
O686 O 0.56245 0.53443 0.02088 0.0
O687 O 0.56756 0.55215 0.05899 0.0
H688 H 0.54612 0.54374 0.91248 0.0
H689 H 0.52333 0.55562 0.88008 0.0
H690 H 0.48735 0.58272 0.9295 0.0
H691 H 0.50996 0.57042 0.96177 0.0
H692 H 0.53825 0.57999 0.11572 0.0
H693 H 0.54342 0.56644 0.15462 0.0
H694 H 0.6113 0.60255 0.16615 0.0
H695 H 0.60616 0.61609 0.12764 0.0
Pr696 Pr 0.78747 0.2951 0.28177 0.0
Pr697 Pr 0.80708 0.35196 0.27823 0.0
C698 C 0.77797 0.24771 0.27237 0.0
C699 C 0.79248 0.23159 0.2728 0.0
C700 C 0.78539 0.20834 0.27759 0.0
C701 C 0.7997 0.19339 0.27924 0.0
C702 C 0.82138 0.20168 0.27649 0.0
C703 C 0.8285 0.22528 0.27227 0.0
C704 C 0.8141 0.24004 0.27026 0.0
C705 C 0.78989 0.32272 0.32535 0.0
C706 C 0.8409 0.31926 0.29762 0.0
C707 C 0.81662 0.39945 0.28611 0.0
C708 C 0.80385 0.4173 0.28213 0.0
C709 C 0.80898 0.43358 0.26626 0.0
C710 C 0.79775 0.45144 0.26335 0.0
C711 C 0.78141 0.45347 0.27653 0.0
C712 C 0.77544 0.43623 0.29133 0.0
C713 C 0.78648 0.41826 0.29402 0.0
C714 C 0.80631 0.3229 0.23593 0.0
C715 C 0.75352 0.32694 0.26085 0.0
O716 O 0.77885 0.26154 0.25574 0.0
O717 O 0.77772 0.25878 0.29306 0.0
O718 O 0.79495 0.33037 0.30665 0.0
O719 O 0.78212 0.29985 0.321 0.0
O720 O 0.83807 0.34115 0.29688 0.0
O721 O 0.82507 0.29994 0.29033 0.0
O722 O 0.81219 0.38609 0.30258 0.0
O723 O 0.82015 0.38779 0.26716 0.0
O724 O 0.8002 0.31691 0.2546 0.0
O725 O 0.81438 0.34573 0.23911 0.0
O726 O 0.75661 0.30578 0.26474 0.0
O727 O 0.76921 0.34678 0.26588 0.0
H728 H 0.7688 0.20174 0.27989 0.0
H729 H 0.79356 0.17516 0.282 0.0
H730 H 0.84512 0.23226 0.27029 0.0
H731 H 0.81983 0.25806 0.26666 0.0
H732 H 0.82205 0.43285 0.25657 0.0
H733 H 0.80245 0.46423 0.25152 0.0
H734 H 0.76315 0.43738 0.30201 0.0
H735 H 0.78185 0.40566 0.30606 0.0
Pr736 Pr 0.05821 0.57455 0.55662 0.0
Pr737 Pr 0.04692 0.58455 0.50246 0.0
C738 C 0.06509 0.57676 0.60377 0.0
C739 C 0.05136 0.57753 0.62147 0.0
C740 C 0.05978 0.57712 0.64517 0.0
C741 C 0.04686 0.57895 0.66225 0.0
C742 C 0.02547 0.58098 0.65556 0.0
C743 C 0.01678 0.58043 0.63173 0.0
C744 C 0.02971 0.57868 0.61469 0.0
C745 C 0.05847 0.53425 0.52506 0.0
C746 C 0.0072 0.55775 0.52814 0.0
C747 C 0.04268 0.58347 0.45551 0.0
C748 C 0.0577 0.58536 0.43862 0.0
C749 C 0.06076 0.60524 0.42644 0.0
C750 C 0.0742 0.60697 0.4096 0.0
C751 C 0.08449 0.58858 0.40431 0.0
C752 C 0.08234 0.56931 0.41751 0.0
C753 C 0.06913 0.56776 0.43458 0.0
C754 C 0.04418 0.62479 0.532 0.0
C755 C 0.0985 0.59892 0.53032 0.0
O756 O 0.06898 0.59568 0.593 0.0
O757 O 0.06029 0.55679 0.58954 0.0
O758 O 0.05541 0.55417 0.52045 0.0
O759 O 0.06323 0.53528 0.54779 0.0
O760 O 0.01388 0.56187 0.50806 0.0
O761 O 0.02002 0.56438 0.54906 0.0
O762 O 0.03939 0.56417 0.46571 0.0
O763 O 0.04442 0.60283 0.46982 0.0
O764 O 0.04895 0.60625 0.5394 0.0
O765 O 0.03902 0.62133 0.50923 0.0
O766 O 0.09217 0.59389 0.55031 0.0
O767 O 0.08496 0.59489 0.50989 0.0
H768 H 0.07644 0.57602 0.6505 0.0
H769 H 0.05376 0.57975 0.68071 0.0
H770 H 1.00038 0.58241 0.62647 0.0
H771 H 0.02302 0.57888 0.59635 0.0
H772 H 0.05235 0.61921 0.42956 0.0
H773 H 0.07576 0.62218 0.39997 0.0
H774 H 0.08973 0.55462 0.4137 0.0
H775 H 0.06736 0.55239 0.44401 0.0
Pr776 Pr 0.77664 0.8298 0.27395 0.0
Pr777 Pr 0.82634 0.83174 0.28592 0.0
C778 C 0.73387 0.82304 0.27505 0.0
C779 C 0.71893 0.82663 0.29161 0.0
C780 C 0.70757 0.84468 0.28937 0.0
C781 C 0.69255 0.84752 0.30394 0.0
C782 C 0.68833 0.8322 0.32096 0.0
C783 C 0.69979 0.81423 0.32336 0.0
C784 C 0.71498 0.81151 0.30891 0.0
C785 C 0.8041 0.86892 0.26155 0.0
C786 C 0.80531 0.85388 0.32837 0.0
C787 C 0.8687 0.83386 0.2861 0.0
C788 C 0.88362 0.83146 0.26954 0.0
C789 C 0.90134 0.82174 0.27662 0.0
C790 C 0.9161 0.81957 0.26162 0.0
C791 C 0.9135 0.8272 0.23919 0.0
C792 C 0.89528 0.83627 0.23181 0.0
C793 C 0.88043 0.83837 0.24687 0.0
C794 C 0.79939 0.79431 0.30074 0.0
C795 C 0.79813 0.81238 0.23058 0.0
O796 O 0.74466 0.80652 0.27824 0.0
O797 O 0.74521 0.84203 0.26837 0.0
O798 O 0.80722 0.86003 0.28043 0.0
O799 O 0.78542 0.85838 0.2485 0.0
O800 O 0.82399 0.85366 0.32138 0.0
O801 O 0.78635 0.84457 0.31442 0.0
O802 O 0.86059 0.85271 0.28648 0.0
O803 O 0.85475 0.81437 0.28801 0.0
O804 O 0.79574 0.80143 0.28089 0.0
O805 O 0.81772 0.80614 0.31337 0.0
O806 O 0.77973 0.80883 0.23872 0.0
O807 O 0.8169 0.82336 0.24414 0.0
H808 H 0.71007 0.85643 0.27606 0.0
H809 H 0.6838 0.86135 0.30146 0.0
H810 H 0.69704 0.80229 0.33646 0.0
H811 H 0.7234 0.79738 0.31115 0.0
H812 H 0.90387 0.81597 0.2939 0.0
H813 H 0.92965 0.81201 0.26768 0.0
H814 H 0.89284 0.84238 0.21469 0.0
H815 H 0.86665 0.84566 0.24095 0.0
Pr816 Pr 0.80352 0.35057 0.7877 0.0
Pr817 Pr 0.7951 0.3037 0.76799 0.0
C818 C 0.81967 0.39642 0.80504 0.0
C819 C 0.82437 0.42016 0.79767 0.0
C820 C 0.81197 0.43625 0.80356 0.0
C821 C 0.81908 0.46026 0.80161 0.0
C822 C 0.83892 0.46852 0.79424 0.0
C823 C 0.85005 0.45199 0.78595 0.0
C824 C 0.84279 0.42796 0.7876 0.0
C825 C 0.76146 0.33661 0.76043 0.0
C826 C 0.81322 0.34107 0.73324 0.0
C827 C 0.77744 0.25795 0.75143 0.0
C828 C 0.77249 0.23515 0.76075 0.0
C829 C 0.78662 0.21983 0.76002 0.0
C830 C 0.78038 0.19674 0.76531 0.0
C831 C 0.75977 0.18853 0.77097 0.0
C832 C 0.7465 0.20452 0.77377 0.0
C833 C 0.7528 0.22766 0.76868 0.0
C834 C 0.83785 0.31711 0.79288 0.0
C835 C 0.78631 0.31379 0.82293 0.0
O836 O 0.83177 0.38204 0.79942 0.0
O837 O 0.79929 0.38583 0.80378 0.0
O838 O 0.77843 0.33223 0.75462 0.0
O839 O 0.76561 0.34744 0.78189 0.0
O840 O 0.8024 0.31919 0.73363 0.0
O841 O 0.81782 0.3566 0.75257 0.0
O842 O 0.76591 0.27319 0.75639 0.0
O843 O 0.7979 0.2678 0.75204 0.0
O844 O 0.82161 0.32222 0.80029 0.0
O845 O 0.83211 0.30579 0.77162 0.0
O846 O 0.79685 0.33562 0.82222 0.0
O847 O 0.7816 0.2981 0.80373 0.0
H848 H 0.79757 0.43057 0.81113 0.0
H849 H 0.80994 0.47259 0.80759 0.0
H850 H 0.86543 0.45774 0.78023 0.0
H851 H 0.85252 0.41586 0.78261 0.0
H852 H 0.80199 0.22525 0.75419 0.0
H853 H 0.79102 0.1848 0.76336 0.0
H854 H 0.73044 0.19868 0.7779 0.0
H855 H 0.74165 0.23916 0.76962 0.0
Pr856 Pr 0.77681 0.80873 0.77116 0.0
Pr857 Pr 0.82204 0.84825 0.78042 0.0
C858 C 0.73551 0.78685 0.77211 0.0
C859 C 0.71921 0.7915 0.78641 0.0
C860 C 0.69902 0.79426 0.77521 0.0
C861 C 0.68403 0.80036 0.78853 0.0
C862 C 0.68896 0.80388 0.81337 0.0
C863 C 0.70905 0.80064 0.82448 0.0
C864 C 0.72403 0.79466 0.8112 0.0
C865 C 0.79207 0.82325 0.73045 0.0
C866 C 0.77881 0.86537 0.78544 0.0
C867 C 0.86028 0.87374 0.77286 0.0
C868 C 0.87871 0.86685 0.76389 0.0
C869 C 0.89986 0.88095 0.77122 0.0
C870 C 0.91739 0.87406 0.76307 0.0
C871 C 0.91404 0.85285 0.74755 0.0
C872 C 0.89274 0.83884 0.74028 0.0
C873 C 0.87531 0.84573 0.74838 0.0
C874 C 0.81349 0.83188 0.82361 0.0
C875 C 0.8199 0.7902 0.76989 0.0
O876 O 0.75223 0.77991 0.78274 0.0
O877 O 0.74073 0.80232 0.75769 0.0
O878 O 0.79304 0.83676 0.7493 0.0
O879 O 0.7822 0.80154 0.73206 0.0
O880 O 0.79782 0.87264 0.77924 0.0
O881 O 0.77282 0.84392 0.79147 0.0
O882 O 0.84218 0.86988 0.75765 0.0
O883 O 0.85723 0.86788 0.79356 0.0
O884 O 0.80221 0.82518 0.8033 0.0
O885 O 0.82955 0.8494 0.8222 0.0
O886 O 0.80072 0.78413 0.77613 0.0
O887 O 0.82845 0.81201 0.76606 0.0
H888 H 0.695 0.79211 0.75611 0.0
H889 H 0.66883 0.80289 0.77936 0.0
H890 H 0.71327 0.80271 0.84355 0.0
H891 H 0.73948 0.79283 0.82041 0.0
H892 H 0.90284 0.89721 0.78334 0.0
H893 H 0.93358 0.88513 0.76923 0.0
H894 H 0.88946 0.82259 0.72807 0.0
H895 H 0.85914 0.83454 0.74246 0.0
Pr896 Pr 0.52456 0.56516 0.51509 0.0
Pr897 Pr 0.57486 0.586 0.53724 0.0
C898 C 0.48179 0.56031 0.49968 0.0
C899 C 0.46654 0.57605 0.49947 0.0
C900 C 0.44588 0.5686 0.48531 0.0
C901 C 0.4304 0.58209 0.48693 0.0
C902 C 0.43541 0.6033 0.50264 0.0
C903 C 0.45648 0.61147 0.51581 0.0
C904 C 0.47199 0.59801 0.51414 0.0
C905 C 0.55487 0.56026 0.4867 0.0
C906 C 0.5475 0.62269 0.51558 0.0
C907 C 0.61822 0.59086 0.54575 0.0
C908 C 0.63389 0.57555 0.54967 0.0
C909 C 0.63789 0.56627 0.5711 0.0
C910 C 0.6527 0.5518 0.57425 0.0
C911 C 0.66401 0.54653 0.55617 0.0
C912 C 0.66008 0.55593 0.53485 0.0
C913 C 0.64514 0.57012 0.53161 0.0
C914 C 0.54656 0.59498 0.56618 0.0
C915 C 0.54918 0.52894 0.54163 0.0
O916 O 0.48969 0.55532 0.52036 0.0
O917 O 0.49626 0.56446 0.48601 0.0
O918 O 0.55471 0.57799 0.50059 0.0
O919 O 0.53811 0.54283 0.48639 0.0
O920 O 0.56725 0.6187 0.51916 0.0
O921 O 0.53036 0.6068 0.51878 0.0
O922 O 0.60666 0.58785 0.52454 0.0
O923 O 0.60721 0.5948 0.56244 0.0
O924 O 0.54415 0.57591 0.5526 0.0
O925 O 0.56562 0.60921 0.56756 0.0
O926 O 0.52998 0.53338 0.5348 0.0
O927 O 0.56766 0.5444 0.54098 0.0
H928 H 0.44141 0.55182 0.47376 0.0
H929 H 0.4141 0.57524 0.47699 0.0
H930 H 0.46052 0.62749 0.52844 0.0
H931 H 0.4879 0.60425 0.52506 0.0
H932 H 0.62953 0.57007 0.5854 0.0
H933 H 0.65544 0.54486 0.59091 0.0
H934 H 0.66821 0.55185 0.52042 0.0
H935 H 0.64223 0.57659 0.51477 0.0
Pr936 Pr 0.07621 0.57956 0.03431 0.0
Pr937 Pr 0.02652 0.57146 0.03467 0.0
C938 C 0.11807 0.57671 0.04064 0.0
C939 C 0.13279 0.56146 0.0349 0.0
C940 C 0.15173 0.57172 0.0268 0.0
C941 C 0.16691 0.55847 0.02291 0.0
C942 C 0.16353 0.53452 0.02694 0.0
C943 C 0.14429 0.52408 0.03466 0.0
C944 C 0.12905 0.53742 0.03858 0.0
C945 C 0.05332 0.59567 0.9971 0.0
C946 C 0.04214 0.52696 0.00995 0.0
C947 C 0.98528 0.57425 0.03579 0.0
C948 C 0.97111 0.59113 0.03403 0.0
C949 C 0.95568 0.59064 0.0489 0.0
C950 C 0.94053 0.60469 0.04596 0.0
C951 C 0.9405 0.61925 0.02793 0.0
C952 C 0.95659 0.62061 0.0138 0.0
C953 C 0.97191 0.6068 0.01694 0.0
C954 C 0.05105 0.55654 0.07148 0.0
C955 C 0.05918 0.62537 0.05154 0.0
O956 O 0.10505 0.56994 0.05536 0.0
O957 O 0.10936 0.58679 0.02356 0.0
O958 O 0.04655 0.57656 0.00527 0.0
O959 O 0.07326 0.60601 0.00674 0.0
O960 O 0.02505 0.53585 0.0115 0.0
O961 O 0.06224 0.5392 0.01841 0.0
O962 O 0.99185 0.56713 0.01654 0.0
O963 O 1.00015 0.57778 0.05478 0.0
O964 O 0.05622 0.57601 0.06362 0.0
O965 O 0.03238 0.54375 0.06047 0.0
O966 O 0.07577 0.61542 0.05605 0.0
O967 O 0.04 0.613 0.04007 0.0
H968 H 0.15505 0.59026 0.02399 0.0
H969 H 0.18166 0.56733 0.01742 0.0
H970 H 0.141 0.50563 0.03771 0.0
H971 H 0.11452 0.52901 0.04478 0.0
H972 H 0.95486 0.57874 0.06225 0.0
H973 H 0.92813 0.6032 0.05688 0.0
H974 H 0.95683 0.63176 0.9998 0.0
H975 H 0.98385 0.60776 0.00548 0.0
H976 H 0.01444 0.2204 0.94604 0.0
H977 H 0.04665 0.27699 0.00304 0.0
H978 H 0.05598 0.24718 0.02801 0.0
H979 H 0.99135 0.17791 0.98267 0.0
H980 H 0.9955 0.15252 0.96505 0.0
H981 H 0.99143 0.17827 0.95152 0.0
H982 H 0.02759 0.18135 0.93597 0.0
H983 H 0.03178 0.15564 0.94951 0.0
H984 H 0.05224 0.18317 0.95649 0.0
H985 H 0.06394 0.21106 0.04613 0.0
H986 H 0.06661 0.17133 0.05701 0.0
H987 H 0.02705 0.1381 0.98958 0.0
C988 C 0.02328 0.22653 0.96385 0.0
C989 C 0.02971 0.25118 0.97254 0.0
C990 C 0.04139 0.25831 0.99595 0.0
C991 C 0.04687 0.24147 0.01027 0.0
C992 C 0.04045 0.2174 1.00113 0.0
C993 C 0.0287 0.2099 0.97853 0.0
C994 C 0.02364 0.18293 0.97305 0.0
C995 C 0.99901 0.17229 0.96776 0.0
C996 C 0.03445 0.17533 0.95254 0.0
C997 C 0.03408 0.17645 0.99617 0.0
C998 C 0.04407 0.19661 0.01199 0.0
C999 C 0.05586 0.19515 0.03401 0.0
C1000 C 0.05732 0.17254 0.04006 0.0
C1001 C 0.04662 0.15163 0.02443 0.0
C1002 C 0.03488 0.15374 0.0022 0.0
H1003 H 0.14598 0.86164 0.20886 0.0
H1004 H 0.16075 0.83963 0.1405 0.0
H1005 H 0.19438 0.83076 0.16016 0.0
H1006 H 0.20147 0.89046 0.2362 0.0
H1007 H 0.19872 0.88117 0.26467 0.0
H1008 H 0.17541 0.88542 0.24537 0.0
H1009 H 0.15488 0.84233 0.24779 0.0
H1010 H 0.1782 0.83789 0.26695 0.0
H1011 H 0.16675 0.81789 0.24001 0.0
H1012 H 0.22588 0.8234 0.18663 0.0
H1013 H 0.25549 0.82158 0.2184 0.0
H1014 H 0.22209 0.84977 0.27036 0.0
C1015 C 0.15636 0.85507 0.19805 0.0
C1016 C 0.15064 0.85134 0.17306 0.0
C1017 C 0.16471 0.84272 0.1596 0.0
C1018 C 0.18384 0.83749 0.17062 0.0
C1019 C 0.18889 0.84111 0.19519 0.0
C1020 C 0.17576 0.84996 0.2088 0.0
C1021 C 0.1855 0.85282 0.23493 0.0
C1022 C 0.19058 0.87903 0.24594 0.0
C1023 C 0.17043 0.83678 0.2482 0.0
C1024 C 0.20617 0.84431 0.23378 0.0
C1025 C 0.20756 0.83738 0.21063 0.0
C1026 C 0.22501 0.82884 0.20482 0.0
C1027 C 0.24175 0.82783 0.22306 0.0
C1028 C 0.24118 0.83556 0.24692 0.0
C1029 C 0.22295 0.84362 0.25234 0.0
H1030 H 0.54205 0.90937 0.42994 0.0
H1031 H 0.50784 0.86817 0.47724 0.0
H1032 H 0.50554 0.9056 0.50018 0.0
H1033 H 0.57386 0.95677 0.47431 0.0
H1034 H 0.57244 0.97925 0.45505 0.0
H1035 H 0.57117 0.94917 0.44284 0.0
H1036 H 0.53471 0.94807 0.41566 0.0
H1037 H 0.53572 0.97804 0.42801 0.0
H1038 H 0.51243 0.95445 0.42862 0.0
H1039 H 0.50551 0.94841 0.51657 0.0
H1040 H 0.51171 0.99208 0.52754 0.0
H1041 H 0.54749 1.00403 0.47031 0.0
C1042 C 0.53411 0.90812 0.44516 0.0
C1043 C 0.52499 0.88581 0.45169 0.0
C1044 C 0.51495 0.88507 0.4719 0.0
C1045 C 0.51348 0.90623 0.48495 0.0
C1046 C 0.52231 0.92793 0.47768 0.0
C1047 C 0.53273 0.92893 0.45844 0.0
C1048 C 0.54131 0.9543 0.45436 0.0
C1049 C 0.56617 0.96021 0.4568 0.0
C1050 C 0.53039 0.95898 0.43023 0.0
C1051 C 0.53422 0.96758 0.47435 0.0
C1052 C 0.52297 0.95216 0.48745 0.0
C1053 C 0.51439 0.96058 0.50647 0.0
C1054 C 0.51782 0.98535 0.51245 0.0
C1055 C 0.53002 1.00128 0.49969 0.0
C1056 C 0.53814 0.99219 0.48036 0.0
H1057 H 0.50818 0.3128 0.66441 0.0
H1058 H 0.553 0.36304 0.71989 0.0
H1059 H 0.52278 0.36792 0.73993 0.0
H1060 H 0.462 0.34129 0.66357 0.0
H1061 H 0.44192 0.31351 0.65958 0.0
H1062 H 0.46675 0.31489 0.64826 0.0
H1063 H 0.47437 0.28094 0.67172 0.0
H1064 H 0.44966 0.27963 0.68325 0.0
H1065 H 0.47514 0.28419 0.70318 0.0
H1066 H 0.48956 0.36603 0.75545 0.0
H1067 H 0.45301 0.35876 0.76548 0.0
H1068 H 0.42772 0.30982 0.70075 0.0
C1069 C 0.51139 0.32513 0.68051 0.0
C1070 C 0.53283 0.33779 0.69061 0.0
C1071 C 0.53666 0.35333 0.71194 0.0
C1072 C 0.51963 0.3562 0.72344 0.0
C1073 C 0.49879 0.34324 0.71348 0.0
C1074 C 0.49441 0.32804 0.69251 0.0
C1075 C 0.47039 0.31555 0.6866 0.0
C1076 C 0.45963 0.32169 0.6631 0.0
C1077 C 0.46721 0.28847 0.68617 0.0
C1078 C 0.46217 0.32638 0.70745 0.0
C1079 C 0.47903 0.34215 0.72268 0.0
C1080 C 0.47614 0.35388 0.74363 0.0
C1081 C 0.45539 0.34957 0.74923 0.0
C1082 C 0.43771 0.33378 0.73393 0.0
C1083 C 0.44104 0.32207 0.71265 0.0
H1084 H 0.06388 0.93112 0.63032 0.0
H1085 H 0.08971 0.89552 0.57567 0.0
H1086 H 0.09192 0.93051 0.55443 0.0
H1087 H 0.03062 0.95878 0.58993 0.0
H1088 H 0.03491 0.986 0.60966 0.0
H1089 H 0.03593 0.95855 0.62143 0.0
H1090 H 0.0744 0.97799 0.64512 0.0
H1091 H 0.07352 0.00545 0.63328 0.0
H1092 H 0.09544 0.99133 0.6298 0.0
H1093 H 0.09098 0.96839 0.53839 0.0
H1094 H 0.08534 0.0067 0.52725 0.0
H1095 H 0.05972 0.01957 0.59128 0.0
C1096 C 0.07006 0.93075 0.61392 0.0
C1097 C 0.07667 0.91036 0.60474 0.0
C1098 C 0.08446 0.91067 0.5831 0.0
C1099 C 0.08588 0.93058 0.57091 0.0
C1100 C 0.07929 0.95026 0.58034 0.0
C1101 C 0.07136 0.95056 0.60124 0.0
C1102 C 0.06454 0.97386 0.60669 0.0
C1103 C 0.04005 0.96901 0.60694 0.0
C1104 C 0.07777 0.98799 0.63012 0.0
C1105 C 0.07015 0.98659 0.58574 0.0
C1106 C 0.07863 0.97247 0.57086 0.0
C1107 C 0.08443 0.97962 0.54995 0.0
C1108 C 0.08116 1.0015 0.54378 0.0
C1109 C 0.07228 0.01637 0.55841 0.0
C1110 C 0.06695 0.00888 0.57992 0.0
H1111 H 0.45743 0.79421 0.8393 0.0
H1112 H 0.46442 0.83965 0.90532 0.0
H1113 H 0.42812 0.84697 0.89267 0.0
H1114 H 0.43116 0.82558 0.80195 0.0
H1115 H 0.41193 0.80065 0.78389 0.0
H1116 H 0.43748 0.79679 0.7987 0.0
H1117 H 0.41754 0.76296 0.81918 0.0
H1118 H 0.39191 0.76641 0.80401 0.0
H1119 H 0.39706 0.76837 0.83575 0.0
H1120 H 0.39442 0.85454 0.87044 0.0
H1121 H 0.36134 0.85592 0.84311 0.0
H1122 H 0.37353 0.80211 0.79289 0.0
C1123 C 0.45089 0.80498 0.85135 0.0
C1124 C 0.46345 0.81617 0.8734 0.0
C1125 C 0.45475 0.83057 0.8886 0.0
C1126 C 0.43427 0.83497 0.88147 0.0
C1127 C 0.42247 0.82424 0.85937 0.0
C1128 C 0.43005 0.80885 0.84484 0.0
C1129 C 0.41395 0.79973 0.82194 0.0
C1130 C 0.42426 0.80608 0.80035 0.0
C1131 C 0.40456 0.77277 0.82012 0.0
C1132 C 0.39681 0.81343 0.82539 0.0
C1133 C 0.40216 0.82754 0.84707 0.0
C1134 C 0.38978 0.84316 0.85365 0.0
C1135 C 0.37115 0.844 0.8379 0.0
C1136 C 0.36489 0.82907 0.81595 0.0
C1137 C 0.37787 0.81354 0.80966 0.0
H1138 H 0.56455 0.26241 0.08594 0.0
H1139 H 0.57394 0.24471 0.15759 0.0
H1140 H 0.56851 0.2027 0.14232 0.0
H1141 H 0.52262 0.20901 0.06085 0.0
H1142 H 0.53239 0.20551 0.03342 0.0
H1143 H 0.53687 0.23472 0.04969 0.0
H1144 H 0.57823 0.24103 0.05034 0.0
H1145 H 0.57379 0.2118 0.03412 0.0
H1146 H 0.59218 0.21968 0.06203 0.0
H1147 H 0.56284 0.16184 0.11974 0.0
H1148 H 0.55608 0.12551 0.09064 0.0
H1149 H 0.54967 0.16845 0.03371 0.0
C1150 C 0.56534 0.2497 0.09839 0.0
C1151 C 0.56978 0.25731 0.1231 0.0
C1152 C 0.57073 0.23979 0.13862 0.0
C1153 C 0.56763 0.21564 0.13014 0.0
C1154 C 0.56353 0.20876 0.1059 0.0
C1155 C 0.56229 0.22519 0.09017 0.0
C1156 C 0.55776 0.21273 0.06492 0.0
C1157 C 0.53612 0.21568 0.05143 0.0
C1158 C 0.57661 0.22186 0.0521 0.0
C1159 C 0.55644 0.18696 0.06908 0.0
C1160 C 0.55998 0.18506 0.09286 0.0
C1161 C 0.55995 0.1631 0.10102 0.0
C1162 C 0.55613 0.14252 0.08441 0.0
C1163 C 0.5522 0.14401 0.05993 0.0
C1164 C 0.55241 0.16662 0.05232 0.0
H1165 H 0.10702 0.33196 0.39546 0.0
H1166 H 0.05316 0.27693 0.35557 0.0
H1167 H 0.07602 0.26816 0.32692 0.0
H1168 H 0.12666 0.35267 0.34309 0.0
H1169 H 0.15488 0.35926 0.35665 0.0
H1170 H 0.13452 0.36124 0.37455 0.0
H1171 H 0.14835 0.33188 0.40065 0.0
H1172 H 0.16877 0.32986 0.38286 0.0
H1173 H 0.15 0.30323 0.38702 0.0
H1174 H 0.10434 0.26429 0.30334 0.0
H1175 H 0.13671 0.26617 0.2851 0.0
H1176 H 0.17241 0.32534 0.33817 0.0
C1177 C 0.10019 0.31796 0.38078 0.0
C1178 C 0.07839 0.30493 0.37782 0.0
C1179 C 0.06983 0.28707 0.35817 0.0
C1180 C 0.08267 0.28196 0.34179 0.0
C1181 C 0.104 0.29513 0.34506 0.0
C1182 C 0.11273 0.31291 0.36387 0.0
C1183 C 0.13601 0.32477 0.36257 0.0
C1184 C 0.13814 0.35104 0.359 0.0
C1185 C 0.15171 0.32227 0.38459 0.0
C1186 C 0.13914 0.31023 0.34064 0.0
C1187 C 0.12035 0.29338 0.33079 0.0
C1188 C 0.11911 0.27757 0.31071 0.0
C1189 C 0.1376 0.27891 0.30037 0.0
C1190 C 0.15715 0.29605 0.30998 0.0
C1191 C 0.15781 0.31194 0.33042 0.0
H1192 H 0.94588 0.09413 0.13947 0.0
H1193 H 0.91733 0.01953 0.11447 0.0
H1194 H 0.94712 0.01813 0.09229 0.0
H1195 H 0.96824 0.10817 0.08322 0.0
H1196 H 0.99185 0.12892 0.10035 0.0
H1197 H 0.96615 0.12504 0.11025 0.0
H1198 H 0.98443 0.11578 0.15032 0.0
H1199 H 0.00995 0.11861 0.14031 0.0
H1200 H 0.99781 0.09148 0.1508 0.0
H1201 H 0.98278 0.02254 0.08072 0.0
H1202 H 0.01913 0.03459 0.07097 0.0
H1203 H 0.0245 0.10737 0.10149 0.0
C1204 C 0.94532 0.07795 0.12814 0.0
C1205 C 0.92922 0.05707 0.12798 0.0
C1206 C 0.9292 0.03581 0.11397 0.0
C1207 C 0.94619 0.03482 0.10166 0.0
C1208 C 0.96259 0.05538 0.10333 0.0
C1209 C 0.96193 0.07681 0.11544 0.0
C1210 C 0.98227 0.09588 0.11547 0.0
C1211 C 0.9768 0.11567 0.10148 0.0
C1212 C 0.99431 0.10601 0.14073 0.0
C1213 C 0.99498 0.08143 0.10266 0.0
C1214 C 0.98325 0.05813 0.09592 0.0
C1215 C 0.99186 0.04087 0.08521 0.0
C1216 C 0.01258 0.04787 0.07999 0.0
C1217 C 0.02435 0.07195 0.08528 0.0
C1218 C 0.01577 0.08888 0.09734 0.0
H1219 H 0.28319 0.78042 0.4538 0.0
H1220 H 0.29686 0.71212 0.43293 0.0
H1221 H 0.29642 0.72142 0.39236 0.0
H1222 H 0.24698 0.78104 0.39864 0.0
H1223 H 0.25615 0.81256 0.39809 0.0
H1224 H 0.25713 0.80084 0.42591 0.0
H1225 H 0.2982 0.8205 0.43717 0.0
H1226 H 0.29732 0.83242 0.40948 0.0
H1227 H 0.31614 0.81431 0.4175 0.0
H1228 H 0.29329 0.73658 0.35384 0.0
H1229 H 0.29146 0.75896 0.31983 0.0
H1230 H 0.28192 0.81905 0.36428 0.0
C1231 C 0.28624 0.76753 0.44072 0.0
C1232 C 0.29006 0.74545 0.44676 0.0
C1233 C 0.29384 0.72908 0.42895 0.0
C1234 C 0.29357 0.73416 0.40573 0.0
C1235 C 0.28951 0.75577 0.40028 0.0
C1236 C 0.2861 0.77236 0.41719 0.0
C1237 C 0.28235 0.79433 0.40624 0.0
C1238 C 0.25929 0.79737 0.40729 0.0
C1239 C 0.29954 0.81671 0.41832 0.0
C1240 C 0.2849 0.78767 0.38084 0.0
C1241 C 0.28848 0.76505 0.37782 0.0
C1242 C 0.29059 0.75436 0.35597 0.0
C1243 C 0.28937 0.76719 0.33668 0.0
C1244 C 0.28648 0.79073 0.33927 0.0
C1245 C 0.28418 0.80109 0.36173 0.0
H1246 H 0.60909 0.97882 0.6389 0.0
H1247 H 0.62627 0.03346 0.69934 0.0
H1248 H 0.61129 0.06099 0.67574 0.0
H1249 H 0.62354 0.02276 0.59601 0.0
H1250 H 0.60239 0.00454 0.57324 0.0
H1251 H 0.61604 0.99095 0.59578 0.0
H1252 H 0.57762 0.97154 0.60409 0.0
H1253 H 0.5649 0.98703 0.58262 0.0
H1254 H 0.56053 0.99053 0.6127 0.0
H1255 H 0.59052 0.08045 0.64737 0.0
H1256 H 0.5696 0.09345 0.61353 0.0
H1257 H 0.5701 0.02881 0.56946 0.0
C1258 C 0.60994 0.99671 0.64691 0.0
C1259 C 0.61822 1.004 0.67112 0.0
C1260 C 0.61937 0.0275 0.68107 0.0
C1261 C 0.61107 0.0433 0.66773 0.0
C1262 C 0.60245 0.03553 0.64408 0.0
C1263 C 0.60239 0.0131 0.63348 0.0
C1264 C 0.59256 0.00969 0.60752 0.0
C1265 C 0.60968 0.00686 0.59225 0.0
C1266 C 0.57272 0.98844 0.60139 0.0
C1267 C 0.58613 0.03318 0.60565 0.0
C1268 C 0.59198 0.04777 0.62701 0.0
C1269 C 0.58629 0.06953 0.63033 0.0
C1270 C 0.57435 0.07671 0.61114 0.0
C1271 C 0.56856 0.06224 0.58904 0.0
C1272 C 0.57472 0.04035 0.58617 0.0
H1273 H 0.34016 0.4 0.966 0.0
H1274 H 0.27414 0.40769 0.96303 0.0
H1275 H 0.2647 0.38849 0.92168 0.0
H1276 H 0.34579 0.41398 0.9095 0.0
H1277 H 0.361 0.39247 0.9021 0.0
H1278 H 0.3624 0.40377 0.93255 0.0
H1279 H 0.35021 0.36089 0.9424 0.0
H1280 H 0.3491 0.3494 0.91202 0.0
H1281 H 0.32557 0.34153 0.92571 0.0
H1282 H 0.26277 0.37214 0.88082 0.0
H1283 H 0.26752 0.35733 0.84145 0.0
H1284 H 0.33526 0.36014 0.86822 0.0
C1285 C 0.32359 0.39685 0.95675 0.0
C1286 C 0.30765 0.40477 0.96773 0.0
C1287 C 0.28636 0.40127 0.95499 0.0
C1288 C 0.2809 0.39048 0.93151 0.0
C1289 C 0.29698 0.38338 0.92092 0.0
C1290 C 0.31785 0.38611 0.93303 0.0
C1291 C 0.33211 0.37792 0.91665 0.0
C1292 C 0.35147 0.39826 0.91511 0.0
C1293 C 0.3397 0.35614 0.92468 0.0
C1294 C 0.31617 0.37116 0.89332 0.0
C1295 C 0.29597 0.37418 0.89656 0.0
C1296 C 0.27843 0.36945 0.87808 0.0
C1297 C 0.28137 0.36103 0.8557 0.0
C1298 C 0.30176 0.35743 0.85162 0.0
C1299 C 0.31954 0.36282 0.87072 0.0
H1300 H 0.97463 0.08026 0.26536 0.0
H1301 H 0.93054 0.01052 0.25415 0.0
H1302 H 0.9359 0.00905 0.297 0.0
H1303 H 0.01282 0.0708 0.3099 0.0
H1304 H 0.01765 0.09933 0.32768 0.0
H1305 H 0.00818 0.09645 0.29641 0.0
H1306 H 0.97552 0.11379 0.30433 0.0
H1307 H 0.98488 0.11634 0.33574 0.0
H1308 H 0.95775 0.09982 0.32289 0.0
H1309 H 0.94806 0.01265 0.33872 0.0
H1310 H 0.96972 0.0196 0.37878 0.0
H1311 H 0.00617 0.0873 0.36472 0.0
C1312 C 0.96618 0.06485 0.27218 0.0
C1313 C 0.95242 0.04532 0.25694 0.0
C1314 C 0.94128 0.02542 0.26594 0.0
C1315 C 0.94397 0.02461 0.29012 0.0
C1316 C 0.95748 0.04412 0.3049 0.0
C1317 C 0.96847 0.06391 0.29648 0.0
C1318 C 0.98326 0.0815 0.31643 0.0
C1319 C 0.00688 0.08733 0.31236 0.0
C1320 C 0.97485 0.10421 0.32005 0.0
C1321 C 0.98047 0.06726 0.33681 0.0
C1322 C 0.96472 0.04629 0.3298 0.0
C1323 C 0.9601 0.02918 0.34468 0.0
C1324 C 0.97244 0.0332 0.36724 0.0
C1325 C 0.98923 0.05394 0.37435 0.0
C1326 C 0.99303 0.07155 0.35942 0.0
H1327 H 0.27958 0.72959 0.62081 0.0
H1328 H 0.31307 0.7835 0.58346 0.0
H1329 H 0.32375 0.81151 0.62053 0.0
H1330 H 0.25898 0.76953 0.65838 0.0
H1331 H 0.26244 0.75402 0.68375 0.0
H1332 H 0.25751 0.738 0.65443 0.0
H1333 H 0.29253 0.72299 0.66482 0.0
H1334 H 0.2976 0.73908 0.69414 0.0
H1335 H 0.31798 0.74426 0.67574 0.0
H1336 H 0.33127 0.8335 0.66134 0.0
H1337 H 0.3335 0.84935 0.70279 0.0
H1338 H 0.29466 0.7819 0.71478 0.0
C1339 C 0.28918 0.74729 0.62034 0.0
C1340 C 0.29556 0.75423 0.59899 0.0
C1341 C 0.30799 0.77765 0.59938 0.0
C1342 C 0.31418 0.79368 0.62042 0.0
C1343 C 0.30781 0.78616 0.64106 0.0
C1344 C 0.29545 0.76358 0.64121 0.0
C1345 C 0.29047 0.76024 0.66583 0.0
C1346 C 0.26589 0.75515 0.66557 0.0
C1347 C 0.30022 0.74046 0.67571 0.0
C1348 C 0.30201 0.7845 0.67953 0.0
C1349 C 0.31197 0.79904 0.66479 0.0
C1350 C 0.32356 0.82226 0.673 0.0
C1351 C 0.32478 0.83108 0.6967 0.0
C1352 C 0.31444 0.8169 0.71224 0.0
C1353 C 0.30304 0.79311 0.70352 0.0
H1354 H 0.62629 0.01577 0.80896 0.0
H1355 H 0.56205 0.9701 0.78436 0.0
H1356 H 0.54871 0.9895 0.81694 0.0
H1357 H 0.6233 0.0219 0.8751 0.0
H1358 H 0.63785 0.05268 0.87904 0.0
H1359 H 0.64356 0.03155 0.85739 0.0
H1360 H 0.63617 0.05877 0.82568 0.0
H1361 H 0.62944 0.07936 0.84696 0.0
H1362 H 0.61019 0.06632 0.82041 0.0
H1363 H 0.54036 0.01869 0.84425 0.0
H1364 H 0.53862 0.05047 0.87444 0.0
H1365 H 0.60842 0.07758 0.88393 0.0
C1366 C 0.60981 0.00886 0.81149 0.0
C1367 C 0.59516 0.99114 0.79464 0.0
C1368 C 0.57345 0.98328 0.79751 0.0
C1369 C 0.56573 0.99438 0.81575 0.0
C1370 C 0.58006 0.01314 0.8309 0.0
C1371 C 0.60182 0.0199 0.82965 0.0
C1372 C 0.61308 0.04207 0.84701 0.0
C1373 C 0.63047 0.03671 0.86576 0.0
C1374 C 0.62278 0.06284 0.83424 0.0
C1375 C 0.594 0.04688 0.85762 0.0
C1376 C 0.57516 0.0301 0.84764 0.0
C1377 C 0.55503 0.03157 0.85275 0.0
C1378 C 0.55418 0.04993 0.86959 0.0
C1379 C 0.57337 0.06639 0.88132 0.0
C1380 C 0.59357 0.06513 0.8751 0.0
H1381 H 0.31772 0.41705 0.13709 0.0
H1382 H 0.3155 0.35546 0.0871 0.0
H1383 H 0.31046 0.32967 0.11825 0.0
H1384 H 0.34611 0.39802 0.18896 0.0
H1385 H 0.33046 0.40905 0.20895 0.0
H1386 H 0.3349 0.42324 0.18314 0.0
H1387 H 0.29338 0.41688 0.16992 0.0
H1388 H 0.28886 0.40272 0.19572 0.0
H1389 H 0.27623 0.38731 0.16675 0.0
H1390 H 0.30429 0.31007 0.15394 0.0
H1391 H 0.29677 0.29771 0.19206 0.0
H1392 H 0.30286 0.37136 0.22003 0.0
C1393 C 0.31644 0.39817 0.1328 0.0
C1394 C 0.31721 0.38835 0.10956 0.0
C1395 C 0.31507 0.36348 0.10466 0.0
C1396 C 0.31221 0.34865 0.12229 0.0
C1397 C 0.31141 0.3588 0.14487 0.0
C1398 C 0.31339 0.38297 0.15025 0.0
C1399 C 0.31104 0.389 0.17583 0.0
C1400 C 0.33187 0.40583 0.19006 0.0
C1401 C 0.2912 0.3996 0.17712 0.0
C1402 C 0.30755 0.36448 0.18392 0.0
C1403 C 0.30781 0.34738 0.16569 0.0
C1404 C 0.30419 0.32332 0.16838 0.0
C1405 C 0.29993 0.31647 0.19013 0.0
C1406 C 0.29938 0.33352 0.2091 0.0
C1407 C 0.3035 0.35793 0.20598 0.0
H1408 H 0.2604 0.99065 0.02703 0.0
H1409 H 0.25106 0.9462 0.08241 0.0
H1410 H 0.2222 0.96549 0.09276 0.0
H1411 H 0.25075 0.04389 0.0553 0.0
H1412 H 0.23563 0.05082 0.029 0.0
H1413 H 0.256 0.03414 0.02666 0.0
H1414 H 0.22753 1.00026 0.99893 0.0
H1415 H 0.20705 0.01684 1.00112 0.0
H1416 H 0.20281 0.98694 0.00859 0.0
H1417 H 0.19512 0.99068 0.09771 0.0
H1418 H 0.16953 0.01698 0.09463 0.0
H1419 H 0.19474 0.04309 0.03412 0.0
C1420 C 0.25225 0.98509 0.04136 0.0
C1421 C 0.25795 0.96713 0.05411 0.0
C1422 C 0.24681 0.95993 0.07248 0.0
C1423 C 0.2305 0.97084 0.0785 0.0
C1424 C 0.22519 0.98852 0.06558 0.0
C1425 C 0.23547 0.99529 0.04712 0.0
C1426 C 0.22585 0.0137 0.03516 0.0
C1427 C 0.24309 0.03702 0.03663 0.0
C1428 C 0.21518 1.00385 0.00942 0.0
C1429 C 0.20896 0.01675 0.05018 0.0
C1430 C 0.20891 1.00214 0.0677 0.0
C1431 C 0.19495 1.00209 0.08397 0.0
C1432 C 0.18056 0.01721 0.08217 0.0
C1433 C 0.18007 0.0321 0.06414 0.0
C1434 C 0.19453 0.03176 0.04796 0.0
H1435 H 0.69216 0.68067 0.97745 0.0
H1436 H 0.73232 0.68185 0.0452 0.0
H1437 H 0.70129 0.65675 0.05845 0.0
H1438 H 0.64173 0.6817 0.99976 0.0
H1439 H 0.62478 0.66157 0.97501 0.0
H1440 H 0.64981 0.68079 0.97123 0.0
H1441 H 0.66255 0.64407 0.9548 0.0
H1442 H 0.63757 0.6248 0.95856 0.0
H1443 H 0.6632 0.61995 0.97217 0.0
H1444 H 0.66625 0.63024 0.06395 0.0
H1445 H 0.62965 0.60377 0.06089 0.0
H1446 H 0.61198 0.61913 0.98965 0.0
C1447 C 0.69425 0.6758 0.99514 0.0
C1448 C 0.71464 0.68303 0.0103 0.0
C1449 C 0.71692 0.67619 0.03323 0.0
C1450 C 0.69934 0.66207 0.04096 0.0
C1451 C 0.6795 0.65485 0.02553 0.0
C1452 C 0.67682 0.66146 0.00308 0.0
C1453 C 0.65397 0.65043 0.98973 0.0
C1454 C 0.64186 0.66978 0.98357 0.0
C1455 C 0.65436 0.63383 0.9675 0.0
C1456 C 0.64436 0.63648 0.00805 0.0
C1457 C 0.65933 0.63941 0.02865 0.0
C1458 C 0.65437 0.62791 0.04795 0.0
C1459 C 0.63362 0.61294 0.0461 0.0
C1460 C 0.61819 0.60959 0.02512 0.0
C1461 C 0.62358 0.62158 0.00592 0.0
H1462 H 0.70563 0.52825 0.32589 0.0
H1463 H 0.76039 0.58937 0.33521 0.0
H1464 H 0.77981 0.56564 0.31254 0.0
H1465 H 0.73619 0.48499 0.33322 0.0
H1466 H 0.71779 0.46258 0.31135 0.0
H1467 H 0.7078 0.48505 0.32684 0.0
H1468 H 0.69202 0.49644 0.28662 0.0
H1469 H 0.70255 0.47435 0.27109 0.0
H1470 H 0.70973 0.50497 0.26594 0.0
H1471 H 0.79399 0.53547 0.29121 0.0
H1472 H 0.80452 0.49903 0.27778 0.0
H1473 H 0.74011 0.45739 0.28046 0.0
C1474 C 0.72173 0.53662 0.3232 0.0
C1475 C 0.73153 0.56063 0.33227 0.0
C1476 C 0.7526 0.57097 0.32843 0.0
C1477 C 0.76365 0.55775 0.31535 0.0
C1478 C 0.75331 0.53433 0.30613 0.0
C1479 C 0.73295 0.52372 0.3101 0.0
C1480 C 0.7262 0.49775 0.29968 0.0
C1481 C 0.72176 0.48165 0.31892 0.0
C1482 C 0.70645 0.49312 0.27964 0.0
C1483 C 0.74641 0.49522 0.2902 0.0
C1484 C 0.76158 0.51669 0.29357 0.0
C1485 C 0.78218 0.51858 0.28811 0.0
C1486 C 0.78794 0.49773 0.28024 0.0
C1487 C 0.77314 0.47532 0.27809 0.0
C1488 C 0.75177 0.47426 0.282 0.0
H1489 H 0.89014 0.51041 0.56275 0.0
H1490 H 0.87671 0.45852 0.50009 0.0
H1491 H 0.91413 0.47273 0.49333 0.0
H1492 H 0.92217 0.55718 0.54135 0.0
H1493 H 0.942 0.56796 0.56797 0.0
H1494 H 0.91489 0.55243 0.56973 0.0
H1495 H 0.93008 0.52199 0.59311 0.0
H1496 H 0.95729 0.53766 0.5917 0.0
H1497 H 0.94817 0.50632 0.58102 0.0
H1498 H 0.95031 0.49546 0.49008 0.0
H1499 H 0.98621 0.52242 0.4932 0.0
H1500 H 0.97866 0.55861 0.55959 0.0
C1501 C 0.89543 0.50167 0.54809 0.0
C1502 C 0.88083 0.48318 0.53204 0.0
C1503 C 0.8879 0.47244 0.51268 0.0
C1504 C 0.90904 0.48045 0.50867 0.0
C1505 C 0.92299 0.49904 0.5244 0.0
C1506 C 0.91678 0.50924 0.54405 0.0
C1507 C 0.93509 0.52941 0.55767 0.0
C1508 C 0.92811 0.55315 0.55926 0.0
C1509 C 0.94313 0.52348 0.58234 0.0
C1510 C 0.9521 0.52947 0.54205 0.0
C1511 C 0.94463 0.51179 0.52296 0.0
C1512 C 0.95655 0.5091 0.50515 0.0
C1513 C 0.97684 0.52467 0.50698 0.0
C1514 C 0.9852 0.54259 0.52661 0.0
C1515 C 0.97271 0.54493 0.54449 0.0
H1516 H 0.42151 0.23977 0.2893 0.0
H1517 H 0.39608 0.20038 0.34303 0.0
H1518 H 0.36224 0.21421 0.33485 0.0
H1519 H 0.39806 0.2906 0.29888 0.0
H1520 H 0.39196 0.29295 0.26784 0.0
H1521 H 0.41457 0.28104 0.27905 0.0
H1522 H 0.39862 0.24291 0.24892 0.0
H1523 H 0.37568 0.25449 0.23798 0.0
H1524 H 0.37146 0.22597 0.24866 0.0
H1525 H 0.33093 0.23061 0.31988 0.0
H1526 H 0.3055 0.25314 0.3024 0.0
H1527 H 0.35094 0.28091 0.25762 0.0
C1528 C 0.40906 0.23469 0.2998 0.0
C1529 C 0.41138 0.21938 0.31704 0.0
C1530 C 0.39455 0.21235 0.32992 0.0
C1531 C 0.37527 0.21991 0.32527 0.0
C1532 C 0.37309 0.2342 0.30749 0.0
C1533 C 0.38957 0.24176 0.29512 0.0
C1534 C 0.38281 0.2566 0.2765 0.0
C1535 C 0.39773 0.28179 0.28085 0.0
C1536 C 0.3821 0.24425 0.25154 0.0
C1537 C 0.36022 0.25677 0.28091 0.0
C1538 C 0.35479 0.24337 0.29854 0.0
C1539 C 0.3349 0.24109 0.30596 0.0
C1540 C 0.32047 0.25372 0.29574 0.0
C1541 C 0.32624 0.26856 0.27856 0.0
C1542 C 0.34608 0.26951 0.27059 0.0
H1543 H 0.3472 0.18723 0.49662 0.0
H1544 H 0.33526 0.18916 0.56845 0.0
H1545 H 0.36986 0.17826 0.58123 0.0
H1546 H 0.36637 0.13703 0.49506 0.0
H1547 H 0.38749 0.14604 0.47822 0.0
H1548 H 0.36434 0.15898 0.47526 0.0
H1549 H 0.38969 0.20123 0.48635 0.0
H1550 H 0.41299 0.18834 0.48919 0.0
H1551 H 0.40923 0.20801 0.51345 0.0
H1552 H 0.40206 0.1613 0.58531 0.0
H1553 H 0.43039 0.1395 0.58046 0.0
H1554 H 0.42201 0.14731 0.50593 0.0
C1555 C 0.35241 0.18628 0.51515 0.0
C1556 C 0.33885 0.18941 0.5317 0.0
C1557 C 0.34565 0.18714 0.55565 0.0
C1558 C 0.36528 0.181 0.56308 0.0
C1559 C 0.37803 0.17721 0.54632 0.0
C1560 C 0.37207 0.17997 0.52288 0.0
C1561 C 0.38771 0.17229 0.50818 0.0
C1562 C 0.37576 0.1524 0.488 0.0
C1563 C 0.40067 0.19374 0.49873 0.0
C1564 C 0.4023 0.16327 0.52667 0.0
C1565 C 0.39675 0.1669 0.54865 0.0
C1566 C 0.40681 0.1587 0.56826 0.0
C1567 C 0.42276 0.14614 0.56529 0.0
C1568 C 0.4284 0.14164 0.54282 0.0
C1569 C 0.41832 0.15081 0.5234 0.0
H1570 H 0.73036 0.67144 0.32563 0.0
H1571 H 0.71272 0.71074 0.38422 0.0
H1572 H 0.73435 0.74836 0.37471 0.0
H1573 H 0.78486 0.70696 0.32876 0.0
H1574 H 0.78254 0.70509 0.29713 0.0
H1575 H 0.76728 0.68136 0.30999 0.0
H1576 H 0.73181 0.68585 0.2845 0.0
H1577 H 0.74694 0.70989 0.27189 0.0
H1578 H 0.72487 0.71436 0.28633 0.0
H1579 H 0.75844 0.78095 0.35952 0.0
H1580 H 0.78275 0.80719 0.33873 0.0
H1581 H 0.7809 0.74731 0.28701 0.0
C1582 C 0.73154 0.68796 0.33673 0.0
C1583 C 0.72048 0.68844 0.35597 0.0
C1584 C 0.7215 0.71026 0.36966 0.0
C1585 C 0.7336 0.73158 0.36433 0.0
C1586 C 0.74399 0.73061 0.34491 0.0
C1587 C 0.74296 0.70942 0.33121 0.0
C1588 C 0.75451 0.71344 0.31049 0.0
C1589 C 0.77342 0.70098 0.31168 0.0
C1590 C 0.73858 0.70541 0.28691 0.0
C1591 C 0.76255 0.74021 0.31493 0.0
C1592 C 0.7564 0.74971 0.33497 0.0
C1593 C 0.76305 0.77383 0.34359 0.0
C1594 C 0.77672 0.78858 0.33164 0.0
C1595 C 0.78303 0.77918 0.31107 0.0
C1596 C 0.77566 0.75485 0.30237 0.0
H1597 H 0.93232 0.58055 0.78696 0.0
H1598 H 0.92448 0.60827 0.85664 0.0
H1599 H 0.89378 0.57389 0.85574 0.0
H1600 H 0.87505 0.56034 0.76398 0.0
H1601 H 0.87754 0.53422 0.74613 0.0
H1602 H 0.8996 0.56039 0.7524 0.0
H1603 H 0.92584 0.53566 0.76987 0.0
H1604 H 0.90398 0.50938 0.76318 0.0
H1605 H 0.9189 0.51815 0.79292 0.0
H1606 H 0.86475 0.53734 0.84757 0.0
H1607 H 0.84006 0.49821 0.834 0.0
H1608 H 0.86454 0.49545 0.76795 0.0
C1609 C 0.92432 0.57902 0.80213 0.0
C1610 C 0.93065 0.59659 0.82201 0.0
C1611 C 0.91969 0.59467 0.84139 0.0
C1612 C 0.90227 0.5754 0.84096 0.0
C1613 C 0.89591 0.55867 0.8208 0.0
C1614 C 0.90657 0.56017 0.80175 0.0
C1615 C 0.89607 0.53997 0.78213 0.0
C1616 C 0.8865 0.5493 0.75985 0.0
C1617 C 0.91215 0.52489 0.77673 0.0
C1618 C 0.87832 0.5265 0.79352 0.0
C1619 C 0.87841 0.53781 0.81568 0.0
C1620 C 0.86424 0.52839 0.83012 0.0
C1621 C 0.85006 0.50627 0.82208 0.0
C1622 C 0.85019 0.49389 0.79976 0.0
C1623 C 0.86404 0.50454 0.78504 0.0
H1624 H 0.09598 0.93559 0.11399 0.0
H1625 H 0.04918 0.87911 0.06643 0.0
H1626 H 0.03827 0.90878 0.04217 0.0
H1627 H 0.06523 0.97979 0.11215 0.0
H1628 H 0.08796 1.00421 0.11197 0.0
H1629 H 0.09218 0.97858 0.12559 0.0
H1630 H 0.12024 0.97309 0.09896 0.0
H1631 H 0.11605 0.9987 0.08524 0.0
H1632 H 0.11246 0.97049 0.06734 0.0
H1633 H 0.03046 0.94492 0.02477 0.0
H1634 H 0.02857 0.98464 0.01364 0.0
H1635 H 0.0826 0.01735 0.07026 0.0
C1636 C 0.08352 0.9295 0.09839 0.0
C1637 C 0.07337 0.90502 0.09212 0.0
C1638 C 0.05725 0.89773 0.0715 0.0
C1639 C 0.0509 0.91446 0.05764 0.0
C1640 C 0.06115 0.93844 0.0643 0.0
C1641 C 0.07738 0.94595 0.08397 0.0
C1642 C 0.08609 0.97275 0.08689 0.0
C1643 C 0.08265 0.98452 0.11055 0.0
C1644 C 0.11013 0.97913 0.08446 0.0
C1645 C 0.07187 0.97915 0.06615 0.0
C1646 C 0.0575 0.95912 0.05343 0.0
C1647 C 0.0419 0.96069 0.03435 0.0
C1648 C 0.04094 0.98331 0.02814 0.0
C1649 C 0.0557 1.00406 0.04071 0.0
C1650 C 0.07145 1.0018 0.05986 0.0
H1651 H 0.95482 0.34152 0.87466 0.0
H1652 H 0.94598 0.26513 0.87128 0.0
H1653 H 0.90813 0.25957 0.85023 0.0
H1654 H 0.89771 0.34213 0.88295 0.0
H1655 H 0.89699 0.36636 0.86575 0.0
H1656 H 0.92229 0.36411 0.8828 0.0
H1657 H 0.93947 0.36514 0.84511 0.0
H1658 H 0.91422 0.36705 0.82786 0.0
H1659 H 0.92693 0.34345 0.8196 0.0
H1660 H 0.87347 0.26245 0.82466 0.0
H1661 H 0.84308 0.27328 0.79982 0.0
H1662 H 0.87318 0.34811 0.82172 0.0
C1663 C 0.94462 0.32366 0.87016 0.0
C1664 C 0.95311 0.3037 0.87488 0.0
C1665 C 0.93958 0.28059 0.86829 0.0
C1666 C 0.91814 0.27732 0.85621 0.0
C1667 C 0.91039 0.29739 0.85131 0.0
C1668 C 0.92306 0.32015 0.85858 0.0
C1669 C 0.91113 0.3387 0.85044 0.0
C1670 C 0.90677 0.35371 0.87175 0.0
C1671 C 0.92369 0.3545 0.83482 0.0
C1672 C 0.89017 0.32284 0.83634 0.0
C1673 C 0.89007 0.29906 0.83722 0.0
C1674 C 0.87321 0.28098 0.82428 0.0
C1675 C 0.85608 0.2873 0.81013 0.0
C1676 C 0.85576 0.31148 0.80904 0.0
C1677 C 0.87291 0.32949 0.82255 0.0
H1678 H 0.56494 0.26346 0.58663 0.0
H1679 H 0.6041 0.25699 0.65311 0.0
H1680 H 0.60423 0.21639 0.63835 0.0
H1681 H 0.53168 0.20364 0.57738 0.0
H1682 H 0.53084 0.19895 0.54594 0.0
H1683 H 0.53423 0.22859 0.5608 0.0
H1684 H 0.56945 0.2425 0.54407 0.0
H1685 H 0.56614 0.21282 0.52927 0.0
H1686 H 0.59095 0.22713 0.54933 0.0
H1687 H 0.60129 0.17692 0.61758 0.0
H1688 H 0.59216 0.1384 0.59193 0.0
H1689 H 0.55328 0.16725 0.53903 0.0
C1690 C 0.5736 0.25351 0.59797 0.0
C1691 C 0.5845 0.26377 0.62113 0.0
C1692 C 0.59552 0.2499 0.63537 0.0
C1693 C 0.59584 0.22665 0.62714 0.0
C1694 C 0.58506 0.21709 0.6045 0.0
C1695 C 0.57399 0.22982 0.59003 0.0
C1696 C 0.56329 0.21441 0.56661 0.0
C1697 C 0.53853 0.21121 0.56245 0.0
C1698 C 0.57303 0.22485 0.5461 0.0
C1699 C 0.56963 0.19112 0.57074 0.0
C1700 C 0.58264 0.19342 0.59255 0.0
C1701 C 0.59109 0.17481 0.60042 0.0
C1702 C 0.58594 0.15304 0.58569 0.0
C1703 C 0.57209 0.14989 0.56357 0.0
C1704 C 0.56387 0.16922 0.55596 0.0
H1705 H 0.58243 0.7878 0.3772 0.0
H1706 H 0.58965 0.86101 0.40709 0.0
H1707 H 0.62271 0.87315 0.38976 0.0
H1708 H 0.64085 0.79059 0.38887 0.0
H1709 H 0.63966 0.77076 0.3625 0.0
H1710 H 0.61648 0.76797 0.37703 0.0
H1711 H 0.59253 0.77232 0.33804 0.0
H1712 H 0.61561 0.77512 0.32341 0.0
H1713 H 0.60055 0.79796 0.32329 0.0
H1714 H 0.65383 0.87744 0.36721 0.0
H1715 H 0.68232 0.8732 0.34383 0.0
H1716 H 0.65633 0.79675 0.33101 0.0
C1717 C 0.59105 0.80635 0.38007 0.0
C1718 C 0.58356 0.82355 0.39331 0.0
C1719 C 0.59529 0.84762 0.39704 0.0
C1720 C 0.614 0.85465 0.38722 0.0
C1721 C 0.62104 0.83728 0.37422 0.0
C1722 C 0.61014 0.81356 0.37098 0.0
C1723 C 0.6216 0.79833 0.35706 0.0
C1724 C 0.63015 0.78088 0.37227 0.0
C1725 C 0.60668 0.78517 0.33408 0.0
C1726 C 0.64011 0.81726 0.35215 0.0
C1727 C 0.63953 0.83961 0.36222 0.0
C1728 C 0.65457 0.85998 0.35944 0.0
C1729 C 0.67062 0.85742 0.34605 0.0
C1730 C 0.67164 0.83465 0.33571 0.0
C1731 C 0.6562 0.81435 0.339 0.0
H1732 H 0.04867 0.2559 0.4851 0.0
H1733 H 0.99971 0.22687 0.42252 0.0
H1734 H 0.99813 0.18647 0.43273 0.0
H1735 H 0.07692 0.2091 0.48276 0.0
H1736 H 0.08221 0.20858 0.51422 0.0
H1737 H 0.07918 0.23568 0.50275 0.0
H1738 H 0.04863 0.23824 0.52667 0.0
H1739 H 0.05159 0.21116 0.53828 0.0
H1740 H 0.0255 0.21337 0.52316 0.0
H1741 H 1.00302 0.14889 0.44788 0.0
H1742 H 0.0128 0.11643 0.46829 0.0
H1743 H 0.05778 0.16829 0.52243 0.0
C1744 C 0.03742 0.24107 0.47372 0.0
C1745 C 0.02424 0.24483 0.45296 0.0
C1746 C 0.00993 0.22474 0.43853 0.0
C1747 C 0.00892 0.20159 0.44416 0.0
C1748 C 0.0222 0.19848 0.46446 0.0
C1749 C 0.03607 0.21761 0.4792 0.0
C1750 C 0.04867 0.20896 0.49986 0.0
C1751 C 0.0732 0.216 0.49989 0.0
C1752 C 0.04327 0.2185 0.52339 0.0
C1753 C 0.0399 0.18206 0.49419 0.0
C1754 C 0.02467 0.17653 0.47362 0.0
C1755 C 0.01476 0.15302 0.46414 0.0
C1756 C 0.0205 0.13463 0.4759 0.0
C1757 C 0.03596 0.1396 0.49715 0.0
C1758 C 0.04568 0.16378 0.50644 0.0
H1759 H 0.66132 0.381 0.18964 0.0
H1760 H 0.62432 0.30793 0.17039 0.0
H1761 H 0.65267 0.29424 0.19544 0.0
H1762 H 0.71382 0.36772 0.18858 0.0
H1763 H 0.72789 0.38973 0.21331 0.0
H1764 H 0.70422 0.39422 0.19484 0.0
H1765 H 0.68637 0.39925 0.23176 0.0
H1766 H 0.70998 0.39452 0.25022 0.0
H1767 H 0.68355 0.37604 0.25048 0.0
H1768 H 0.68387 0.28826 0.22225 0.0
H1769 H 0.71892 0.2891 0.24627 0.0
H1770 H 0.73822 0.36587 0.24732 0.0
C1771 C 0.65936 0.36216 0.19077 0.0
C1772 C 0.64071 0.34539 0.17826 0.0
C1773 C 0.63853 0.32091 0.17994 0.0
C1774 C 0.65447 0.31302 0.19417 0.0
C1775 C 0.67261 0.32987 0.20645 0.0
C1776 C 0.67542 0.35389 0.20472 0.0
C1777 C 0.69718 0.36785 0.21899 0.0
C1778 C 0.71163 0.38063 0.20296 0.0
C1779 C 0.69407 0.38546 0.23905 0.0
C1780 C 0.70611 0.34785 0.22869 0.0
C1781 C 0.69139 0.32622 0.22148 0.0
C1782 C 0.69562 0.30505 0.22795 0.0
C1783 C 0.71569 0.3058 0.2417 0.0
C1784 C 0.73156 0.32757 0.24869 0.0
C1785 C 0.7265 0.34895 0.24233 0.0
H1786 H 0.56474 0.9168 0.93769 0.0
H1787 H 0.50935 0.87786 0.96365 0.0
H1788 H 0.50589 0.91544 0.98514 0.0
H1789 H 0.58757 0.95618 0.99267 0.0
H1790 H 0.59773 0.98139 0.97824 0.0
H1791 H 0.59503 0.95165 0.96406 0.0
H1792 H 0.57114 0.96083 0.92737 0.0
H1793 H 0.57343 0.99048 0.94165 0.0
H1794 H 0.54703 0.97101 0.93079 0.0
H1795 H 0.50789 0.95749 0.0031 0.0
H1796 H 0.51894 0.9993 0.02205 0.0
H1797 H 0.57476 0.01123 0.98724 0.0
C1798 C 0.55194 0.9162 0.94799 0.0
C1799 C 0.53725 0.8943 0.94894 0.0
C1800 C 0.52087 0.89428 0.96279 0.0
C1801 C 0.51866 0.91562 0.97486 0.0
C1802 C 0.53319 0.93692 0.97331 0.0
C1803 C 0.54986 0.9373 0.9607 0.0
C1804 C 0.56425 0.96235 0.96337 0.0
C1805 C 0.58752 0.96292 0.9753 0.0
C1806 C 0.56394 0.97171 0.93936 0.0
C1807 C 0.55306 0.97605 0.97939 0.0
C1808 C 0.53492 0.96105 0.98449 0.0
C1809 C 0.52204 0.96933 0.99917 0.0
C1810 C 0.52832 0.99321 0.00968 0.0
C1811 C 0.54738 0.0087 0.00569 0.0
C1812 C 0.55973 1.00005 0.99001 0.0
H1813 H 0.02324 0.86654 0.69248 0.0
H1814 H 0.0139 0.79003 0.68992 0.0
H1815 H 0.9808 0.78804 0.70716 0.0
H1816 H 0.00623 0.87483 0.74907 0.0
H1817 H 0.99316 0.89837 0.74179 0.0
H1818 H 0.01576 0.89401 0.72825 0.0
H1819 H 0.99239 0.89013 0.6867 0.0
H1820 H 0.96982 0.89475 0.70011 0.0
H1821 H 0.96672 0.86855 0.67929 0.0
H1822 H 0.94927 0.79403 0.72509 0.0
H1823 H 0.92029 0.80762 0.74186 0.0
H1824 H 0.94974 0.88052 0.73381 0.0
C1825 C 0.01395 0.84938 0.6952 0.0
C1826 C 0.0209 0.82836 0.68959 0.0
C1827 C 0.00873 0.80629 0.69398 0.0
C1828 C 0.98996 0.80498 0.70382 0.0
C1829 C 0.9837 0.82599 0.70957 0.0
C1830 C 0.99529 0.8478 0.70551 0.0
C1831 C 0.98527 0.86767 0.7142 0.0
C1832 C 1.00105 0.88473 0.73453 0.0
C1833 C 0.97812 0.88106 0.69385 0.0
C1834 C 0.96592 0.85349 0.72298 0.0
C1835 C 0.96551 0.82951 0.72033 0.0
C1836 C 0.94931 0.81277 0.72712 0.0
C1837 C 0.93283 0.82067 0.73651 0.0
C1838 C 0.93251 0.84512 0.73893 0.0
C1839 C 0.94953 0.86174 0.73234 0.0
H1840 H 0.15399 0.0856 0.92104 0.0
H1841 H 0.15898 0.16174 0.9308 0.0
H1842 H 0.13237 0.15625 0.95736 0.0
H1843 H 0.10099 0.06806 0.91453 0.0
H1844 H 0.0986 0.04299 0.93092 0.0
H1845 H 0.12238 0.05233 0.91813 0.0
H1846 H 0.14721 0.05735 0.95876 0.0
H1847 H 0.12373 0.04735 0.97202 0.0
H1848 H 0.14236 0.07556 0.98345 0.0
H1849 H 0.09972 0.14253 0.9726 0.0
H1850 H 0.06753 0.1217 0.98663 0.0
H1851 H 0.08322 0.05387 0.96894 0.0
C1852 C 0.15042 0.10118 0.92995 0.0
C1853 C 0.15841 0.1241 0.92409 0.0
C1854 C 0.15299 0.14411 0.9353 0.0
C1855 C 0.13785 0.14114 0.95028 0.0
C1856 C 0.1287 0.11811 0.95399 0.0
C1857 C 0.13524 0.09848 0.94496 0.0
C1858 C 0.12113 0.07555 0.9499 0.0
C1859 C 0.11013 0.05877 0.927 0.0
C1860 C 0.13438 0.06322 0.96706 0.0
C1861 C 0.10475 0.0854 0.9615 0.0
C1862 C 0.10962 0.11001 0.96367 0.0
C1863 C 0.09612 0.12335 0.97184 0.0
C1864 C 0.07776 0.11135 0.97941 0.0
C1865 C 0.07318 0.08633 0.97886 0.0
C1866 C 0.08644 0.07301 0.96929 0.0
H1867 H 0.82015 0.42546 0.63084 0.0
H1868 H 0.81899 0.36243 0.58338 0.0
H1869 H 0.82044 0.33937 0.61704 0.0
H1870 H 0.85606 0.41371 0.6818 0.0
H1871 H 0.84127 0.42417 0.70308 0.0
H1872 H 0.84161 0.43647 0.67562 0.0
H1873 H 0.79955 0.42529 0.6666 0.0
H1874 H 0.79917 0.41308 0.69407 0.0
H1875 H 0.7853 0.39492 0.66672 0.0
H1876 H 0.82017 0.32249 0.65502 0.0
H1877 H 0.81716 0.3124 0.695 0.0
H1878 H 0.81824 0.38587 0.71886 0.0
C1879 C 0.82051 0.40689 0.62761 0.0
C1880 C 0.81964 0.3958 0.6044 0.0
C1881 C 0.8197 0.37134 0.60091 0.0
C1882 C 0.82059 0.3581 0.61996 0.0
C1883 C 0.82127 0.36945 0.64251 0.0
C1884 C 0.82116 0.39326 0.6465 0.0
C1885 C 0.82074 0.40064 0.67239 0.0
C1886 C 0.84114 0.41989 0.6839 0.0
C1887 C 0.79995 0.40898 0.67509 0.0
C1888 C 0.82068 0.37728 0.68226 0.0
C1889 C 0.82103 0.35959 0.66465 0.0
C1890 C 0.82007 0.33624 0.669 0.0
C1891 C 0.81837 0.33068 0.69181 0.0
C1892 C 0.81773 0.34836 0.71018 0.0
C1893 C 0.81919 0.37207 0.70535 0.0
H1894 H 0.53823 0.16362 0.37711 0.0
H1895 H 0.47514 0.16976 0.39156 0.0
H1896 H 0.48333 0.15575 0.43016 0.0
H1897 H 0.53868 0.11155 0.39818 0.0
H1898 H 0.56699 0.11833 0.41144 0.0
H1899 H 0.55817 0.13297 0.38702 0.0
H1900 H 0.57508 0.17435 0.41174 0.0
H1901 H 0.58452 0.15984 0.43612 0.0
H1902 H 0.56794 0.18077 0.44024 0.0
H1903 H 0.49541 0.13363 0.46302 0.0
H1904 H 0.51346 0.11131 0.49111 0.0
H1905 H 0.56902 0.12157 0.45605 0.0
C1906 C 0.52652 0.16296 0.38883 0.0
C1907 C 0.50615 0.16788 0.38149 0.0
C1908 C 0.49102 0.16644 0.39706 0.0
C1909 C 0.49544 0.15833 0.41893 0.0
C1910 C 0.51525 0.15234 0.42507 0.0
C1911 C 0.53081 0.15525 0.4108 0.0
C1912 C 0.55018 0.14608 0.42067 0.0
C1913 C 0.55369 0.12605 0.40329 0.0
C1914 C 0.57064 0.16648 0.42761 0.0
C1915 C 0.54269 0.13665 0.44217 0.0
C1916 C 0.52249 0.14034 0.44443 0.0
C1917 C 0.51145 0.13115 0.46174 0.0
C1918 C 0.52158 0.11822 0.47737 0.0
C1919 C 0.54242 0.11483 0.47555 0.0
C1920 C 0.55315 0.12429 0.4579 0.0
H1921 H 0.77888 0.72624 0.10953 0.0
H1922 H 0.79593 0.78864 0.07427 0.0
H1923 H 0.80219 0.81431 0.11274 0.0
H1924 H 0.74993 0.75015 0.14942 0.0
H1925 H 0.75966 0.73539 0.17346 0.0
H1926 H 0.75741 0.72228 0.14342 0.0
H1927 H 0.798 0.72109 0.15148 0.0
H1928 H 0.80041 0.73415 0.18159 0.0
H1929 H 0.81824 0.74812 0.1631 0.0
H1930 H 0.80738 0.83299 0.15608 0.0
H1931 H 0.80891 0.84282 0.19913 0.0
H1932 H 0.7863 0.76803 0.20478 0.0
C1933 C 0.78396 0.74531 0.1097 0.0
C1934 C 0.78693 0.75536 0.08868 0.0
C1935 C 0.79359 0.78044 0.09003 0.0
C1936 C 0.7972 0.79516 0.11184 0.0
C1937 C 0.79406 0.78454 0.13215 0.0
C1938 C 0.78753 0.76014 0.13116 0.0
C1939 C 0.78502 0.75293 0.15529 0.0
C1940 C 0.76161 0.7394 0.1554 0.0
C1941 C 0.80139 0.7382 0.16334 0.0
C1942 C 0.79058 0.7771 0.1701 0.0
C1943 C 0.7962 0.79515 0.15657 0.0
C1944 C 0.80286 0.81896 0.16669 0.0
C1945 C 0.80372 0.82439 0.19112 0.0
C1946 C 0.79753 0.80617 0.20506 0.0
C1947 C 0.79084 0.78227 0.19438 0.0
H1948 H 0.13011 0.11086 0.79423 0.0
H1949 H 0.17521 0.06753 0.78093 0.0
H1950 H 0.15348 0.0521 0.7412 0.0
H1951 H 0.07936 0.07151 0.75779 0.0
H1952 H 0.07063 0.09661 0.74696 0.0
H1953 H 0.08654 0.09995 0.77615 0.0
H1954 H 0.11515 0.13467 0.76584 0.0
H1955 H 0.09909 0.13176 0.73699 0.0
H1956 H 0.12705 0.12998 0.74001 0.0
H1957 H 0.13098 0.0463 0.70204 0.0
H1958 H 0.11283 0.05528 0.6643 0.0
H1959 H 0.08271 0.10305 0.70233 0.0
C1960 C 0.13493 0.09758 0.7831 0.0
C1961 C 0.15394 0.09001 0.79037 0.0
C1962 C 0.16052 0.07337 0.77536 0.0
C1963 C 0.14815 0.0643 0.75302 0.0
C1964 C 0.12946 0.07226 0.74613 0.0
C1965 C 0.12307 0.08883 0.76059 0.0
C1966 C 0.10502 0.09802 0.74751 0.0
C1967 C 0.08415 0.09109 0.75771 0.0
C1968 C 0.11201 0.12519 0.74758 0.0
C1969 C 0.10273 0.08463 0.72322 0.0
C1970 C 0.11654 0.06933 0.72295 0.0
C1971 C 0.11966 0.05766 0.70203 0.0
C1972 C 0.10933 0.06279 0.68076 0.0
C1973 C 0.09629 0.0795 0.68084 0.0
C1974 C 0.09204 0.08958 0.70214 0.0
H1975 H 0.80198 0.42646 0.43449 0.0
H1976 H 0.80463 0.37108 0.47962 0.0
H1977 H 0.80318 0.34244 0.44481 0.0
H1978 H 0.76492 0.3901 0.38505 0.0
H1979 H 0.77813 0.40398 0.36284 0.0
H1980 H 0.78004 0.42071 0.39129 0.0
H1981 H 0.82196 0.43029 0.39669 0.0
H1982 H 0.82015 0.4135 0.36826 0.0
H1983 H 0.8355 0.40626 0.39424 0.0
H1984 H 0.80024 0.3194 0.40595 0.0
H1985 H 0.79537 0.30227 0.36462 0.0
H1986 H 0.79498 0.37156 0.34235 0.0
C1987 C 0.80225 0.40829 0.43706 0.0
C1988 C 0.80334 0.4011 0.46003 0.0
C1989 C 0.80378 0.37716 0.46244 0.0
C1990 C 0.80301 0.36072 0.4427 0.0
C1991 C 0.80196 0.36836 0.42048 0.0
C1992 C 0.80163 0.39154 0.41742 0.0
C1993 C 0.80022 0.39474 0.39132 0.0
C1994 C 0.7796 0.40286 0.38208 0.0
C1995 C 0.82068 0.41224 0.3874 0.0
C1996 C 0.79917 0.36952 0.38015 0.0
C1997 C 0.80044 0.35484 0.39757 0.0
C1998 C 0.79931 0.33073 0.3922 0.0
C1999 C 0.79647 0.32116 0.3685 0.0
C2000 C 0.79474 0.33543 0.35002 0.0
C2001 C 0.79646 0.36017 0.35598 0.0
H2002 H 0.50604 0.17398 0.25159 0.0
H2003 H 0.43909 0.1335 0.23911 0.0
H2004 H 0.44783 0.10375 0.21113 0.0
H2005 H 0.51383 0.16252 0.19049 0.0
H2006 H 0.54168 0.16125 0.19944 0.0
H2007 H 0.52958 0.1796 0.21764 0.0
H2008 H 0.54015 0.15767 0.25313 0.0
H2009 H 0.55176 0.13883 0.23485 0.0
H2010 H 0.53088 0.12575 0.2505 0.0
H2011 H 0.46415 0.07794 0.18526 0.0
H2012 H 0.48635 0.06016 0.16038 0.0
H2013 H 0.54238 0.11733 0.19056 0.0
C2014 C 0.49315 0.15909 0.24262 0.0
C2015 C 0.47192 0.15613 0.24733 0.0
C2016 C 0.45544 0.13632 0.23544 0.0
C2017 C 0.46028 0.11919 0.21972 0.0
C2018 C 0.48157 0.12231 0.216 0.0
C2019 C 0.49763 0.14197 0.22677 0.0
C2020 C 0.51911 0.14138 0.21943 0.0
C2021 C 0.52648 0.16243 0.20595 0.0
C2022 C 0.53649 0.14087 0.24076 0.0
C2023 C 0.51274 0.11806 0.20327 0.0
C2024 C 0.49101 0.10731 0.20143 0.0
C2025 C 0.48121 0.08613 0.18661 0.0
C2026 C 0.49388 0.07612 0.17269 0.0
C2027 C 0.51601 0.08729 0.174 0.0
C2028 C 0.52562 0.10818 0.18981 0.0
H2029 H 0.77586 0.7416 0.91613 0.0
H2030 H 0.8026 0.802 0.97081 0.0
H2031 H 0.81175 0.82761 0.94052 0.0
H2032 H 0.81487 0.75708 0.87788 0.0
H2033 H 0.79549 0.74799 0.85073 0.0
H2034 H 0.79077 0.73387 0.8765 0.0
H2035 H 0.75345 0.74473 0.87353 0.0
H2036 H 0.75812 0.75889 0.84775 0.0
H2037 H 0.75204 0.77535 0.87288 0.0
H2038 H 0.81994 0.84654 0.90525 0.0
H2039 H 0.82513 0.85844 0.8664 0.0
H2040 H 0.79132 0.7874 0.83263 0.0
C2041 C 0.78358 0.76023 0.92169 0.0
C2042 C 0.7885 0.76971 0.94606 0.0
C2043 C 0.79855 0.79423 0.95243 0.0
C2044 C 0.80386 0.80898 0.9353 0.0
C2045 C 0.79884 0.79919 0.91159 0.0
C2046 C 0.78875 0.77545 0.90462 0.0
C2047 C 0.78508 0.7698 0.87773 0.0
C2048 C 0.79728 0.75107 0.87028 0.0
C2049 C 0.76072 0.76171 0.86736 0.0
C2050 C 0.79491 0.794 0.87084 0.0
C2051 C 0.80283 0.81054 0.89081 0.0
C2052 C 0.81357 0.83382 0.88948 0.0
C2053 C 0.81645 0.84042 0.86726 0.0
C2054 C 0.8084 0.82405 0.84639 0.0
C2055 C 0.79727 0.80049 0.84821 0.0
H2056 H 0.86035 0.18745 0.04402 0.0
H2057 H 0.81958 0.16707 0.97496 0.0
H2058 H 0.84646 0.14656 0.96131 0.0
H2059 H 0.91324 0.19673 0.02025 0.0
H2060 H 0.92665 0.18635 0.04553 0.0
H2061 H 0.90548 0.20177 0.04863 0.0
H2062 H 0.88477 0.16615 0.06631 0.0
H2063 H 0.90566 0.15051 0.06299 0.0
H2064 H 0.87787 0.1368 0.04969 0.0
H2065 H 0.87529 0.12353 0.95733 0.0
H2066 H 0.90487 0.10243 0.96226 0.0
H2067 H 0.92825 0.1403 0.03312 0.0
C2068 C 0.8575 0.17929 0.02582 0.0
C2069 C 0.83812 0.17899 0.0104 0.0
C2070 C 0.83459 0.16784 0.98683 0.0
C2071 C 0.84971 0.15608 0.97899 0.0
C2072 C 0.86852 0.15624 0.99479 0.0
C2073 C 0.87272 0.1681 0.01754 0.0
C2074 C 0.89383 0.16501 0.03122 0.0
C2075 C 0.91081 0.18888 0.03673 0.0
C2076 C 0.8903 0.15395 0.05388 0.0
C2077 C 0.89996 0.14806 0.01331 0.0
C2078 C 0.8854 0.14354 0.99225 0.0
C2079 C 0.88707 0.12739 0.97356 0.0
C2080 C 0.904 0.11552 0.97651 0.0
C2081 C 0.91902 0.11972 0.99804 0.0
C2082 C 0.91702 0.13653 0.01648 0.0
H2083 H 0.39592 0.5164 0.06136 0.0
H2084 H 0.39441 0.44635 0.02693 0.0
H2085 H 0.43214 0.46083 0.0205 0.0
H2086 H 0.42411 0.55035 0.02583 0.0
H2087 H 0.44068 0.57294 0.04884 0.0
H2088 H 0.41465 0.55653 0.05305 0.0
H2089 H 0.43244 0.54336 0.09132 0.0
H2090 H 0.45853 0.56021 0.08756 0.0
H2091 H 0.45462 0.52902 0.0905 0.0
H2092 H 0.46895 0.48472 0.01421 0.0
H2093 H 0.50282 0.51434 0.01275 0.0
H2094 H 0.48015 0.56835 0.05228 0.0
C2095 C 0.40383 0.50395 0.05317 0.0
C2096 C 0.39244 0.48017 0.04496 0.0
C2097 C 0.40308 0.46446 0.03387 0.0
C2098 C 0.42442 0.47262 0.02994 0.0
C2099 C 0.43502 0.49642 0.03766 0.0
C2100 C 0.42525 0.51166 0.04963 0.0
C2101 C 0.43996 0.53643 0.05598 0.0
C2102 C 0.4292 0.55515 0.04527 0.0
C2103 C 0.44679 0.54262 0.08294 0.0
C2104 C 0.45905 0.53319 0.04456 0.0
C2105 C 0.45606 0.50995 0.03429 0.0
C2106 C 0.47151 0.50288 0.02246 0.0
C2107 C 0.49064 0.51985 0.02159 0.0
C2108 C 0.49413 0.54368 0.03233 0.0
C2109 C 0.47796 0.55034 0.04376 0.0
H2110 H 0.36043 0.59023 0.72947 0.0
H2111 H 0.41379 0.63088 0.70164 0.0
H2112 H 0.40734 0.66833 0.72003 0.0
H2113 H 0.32471 0.6268 0.72227 0.0
H2114 H 0.31555 0.62374 0.75004 0.0
H2115 H 0.32567 0.60044 0.73619 0.0
H2116 H 0.3538 0.60345 0.77444 0.0
H2117 H 0.34395 0.62717 0.78821 0.0
H2118 H 0.37227 0.63164 0.78626 0.0
H2119 H 0.39308 0.70095 0.73819 0.0
H2120 H 0.3708 0.72667 0.75323 0.0
H2121 H 0.32755 0.6647 0.77047 0.0
C2122 C 0.37058 0.60708 0.72717 0.0
C2123 C 0.38724 0.60794 0.7138 0.0
C2124 C 0.40074 0.6301 0.71164 0.0
C2125 C 0.39736 0.65135 0.72221 0.0
C2126 C 0.38087 0.64999 0.73546 0.0
C2127 C 0.36782 0.62844 0.73818 0.0
C2128 C 0.35091 0.63201 0.75284 0.0
C2129 C 0.32785 0.62006 0.73952 0.0
C2130 C 0.35551 0.62302 0.77686 0.0
C2131 C 0.3551 0.65886 0.75587 0.0
C2132 C 0.37295 0.66893 0.74648 0.0
C2133 C 0.37921 0.69333 0.74585 0.0
C2134 C 0.36637 0.70774 0.75426 0.0
C2135 C 0.34736 0.6976 0.76281 0.0
C2136 C 0.34216 0.67298 0.76437 0.0
H2137 H 0.20099 0.67152 0.48255 0.0
H2138 H 0.23337 0.68859 0.55566 0.0
H2139 H 0.20159 0.66381 0.56797 0.0
H2140 H 0.14711 0.67311 0.49422 0.0
H2141 H 0.13335 0.64877 0.47152 0.0
H2142 H 0.15879 0.66757 0.46838 0.0
H2143 H 0.17459 0.63032 0.463 0.0
H2144 H 0.14924 0.61152 0.46647 0.0
H2145 H 0.17409 0.6107 0.48539 0.0
H2146 H 0.16725 0.63689 0.57239 0.0
H2147 H 0.13028 0.61255 0.56952 0.0
H2148 H 0.11878 0.61357 0.49357 0.0
C2149 C 0.20114 0.67017 0.50112 0.0
C2150 C 0.21944 0.68186 0.51827 0.0
C2151 C 0.21939 0.67968 0.54239 0.0
C2152 C 0.20149 0.66561 0.5495 0.0
C2153 C 0.18377 0.65396 0.53223 0.0
C2154 C 0.18324 0.65629 0.50857 0.0
C2155 C 0.16177 0.64232 0.49384 0.0
C2156 C 0.14953 0.65894 0.48125 0.0
C2157 C 0.16514 0.62254 0.47613 0.0
C2158 C 0.15037 0.63198 0.51296 0.0
C2159 C 0.16352 0.63871 0.53489 0.0
C2160 C 0.15672 0.63156 0.55534 0.0
C2161 C 0.13565 0.61765 0.55348 0.0
C2162 C 0.12149 0.61118 0.53133 0.0
C2163 C 0.12916 0.61817 0.51076 0.0
H2164 H 0.69928 0.95353 0.77713 0.0
H2165 H 0.66033 0.90413 0.71716 0.0
H2166 H 0.68642 0.87848 0.7217 0.0
H2167 H 0.75116 0.94958 0.76676 0.0
H2168 H 0.76279 0.94993 0.79725 0.0
H2169 H 0.7409 0.9643 0.78992 0.0
H2170 H 0.71832 0.93899 0.81608 0.0
H2171 H 0.74028 0.92478 0.82374 0.0
H2172 H 0.71353 0.907 0.81114 0.0
H2173 H 0.71731 0.86014 0.73066 0.0
H2174 H 0.74983 0.84672 0.74661 0.0
H2175 H 0.76817 0.90656 0.80243 0.0
C2176 C 0.69622 0.93721 0.76509 0.0
C2177 C 0.67798 0.93071 0.7467 0.0
C2178 C 0.67422 0.90921 0.73139 0.0
C2179 C 0.68896 0.89468 0.73376 0.0
C2180 C 0.70701 0.90179 0.75182 0.0
C2181 C 0.71051 0.92225 0.76754 0.0
C2182 C 0.73093 0.92535 0.78577 0.0
C2183 C 0.74741 0.94868 0.78485 0.0
C2184 C 0.72543 0.92394 0.81066 0.0
C2185 C 0.73879 0.90386 0.77724 0.0
C2186 C 0.72465 0.89059 0.75762 0.0
C2187 C 0.72836 0.87015 0.74616 0.0
C2188 C 0.74681 0.86272 0.75531 0.0
C2189 C 0.76114 0.87561 0.77571 0.0
C2190 C 0.75734 0.89658 0.78675 0.0
H2191 H 0.7541 0.95809 0.51613 0.0
H2192 H 0.77259 0.97088 0.59237 0.0
H2193 H 0.74095 0.98832 0.59508 0.0
H2194 H 0.7389 0.01381 0.51137 0.0
H2195 H 0.71685 1.00207 0.48693 0.0
H2196 H 0.73975 0.98868 0.49098 0.0
H2197 H 0.71393 0.94775 0.49135 0.0
H2198 H 0.69095 0.96105 0.48736 0.0
H2199 H 0.69544 0.94485 0.51203 0.0
H2200 H 0.70747 1.00381 0.58972 0.0
H2201 H 0.67648 0.02105 0.57669 0.0
H2202 H 0.68093 1.00165 0.50354 0.0
C2203 C 0.75125 0.96433 0.53336 0.0
C2204 C 0.76548 0.96285 0.55414 0.0
C2205 C 0.76173 0.97176 0.57634 0.0
C2206 C 0.74379 0.98159 0.57802 0.0
C2207 C 0.73005 0.98285 0.55727 0.0
C2208 C 0.73373 0.97486 0.5353 0.0
C2209 C 0.71742 0.98017 0.51575 0.0
C2210 C 0.72892 0.9972 0.50035 0.0
C2211 C 0.70362 0.95707 0.50074 0.0
C2212 C 0.70393 0.99219 0.53021 0.0
C2213 C 0.71135 0.99318 0.5541 0.0
C2214 C 0.70152 1.0032 0.57106 0.0
C2215 C 0.68382 0.0128 0.56348 0.0
C2216 C 0.67621 0.01263 0.53912 0.0
C2217 C 0.68642 1.00209 0.52228 0.0
H2218 H 0.35759 0.45138 0.67939 0.0
H2219 H 0.40726 0.47998 0.74138 0.0
H2220 H 0.38714 0.45291 0.76489 0.0
H2221 H 0.31192 0.44281 0.70661 0.0
H2222 H 0.29798 0.41425 0.69014 0.0
H2223 H 0.3166 0.43489 0.67723 0.0
H2224 H 0.33856 0.40307 0.67018 0.0
H2225 H 0.31978 0.38222 0.68277 0.0
H2226 H 0.34838 0.38886 0.69462 0.0
H2227 H 0.36109 0.42626 0.78242 0.0
H2228 H 0.33154 0.39671 0.79285 0.0
H2229 H 0.29889 0.38251 0.71961 0.0
C2230 C 0.36424 0.45152 0.6978 0.0
C2231 C 0.38392 0.46749 0.7087 0.0
C2232 C 0.3923 0.46751 0.73279 0.0
C2233 C 0.38098 0.45234 0.74628 0.0
C2234 C 0.36153 0.43694 0.73524 0.0
C2235 C 0.35338 0.43587 0.71149 0.0
C2236 C 0.33222 0.4171 0.70429 0.0
C2237 C 0.31358 0.42793 0.69396 0.0
C2238 C 0.3349 0.3966 0.68693 0.0
C2239 C 0.32924 0.40901 0.72799 0.0
C2240 C 0.34651 0.42065 0.74547 0.0
C2241 C 0.34756 0.41677 0.7689 0.0
C2242 C 0.33065 0.40008 0.77465 0.0
C2243 C 0.31299 0.38747 0.75702 0.0
C2244 C 0.31214 0.39211 0.73341 0.0
H2245 H 0.16272 0.57872 0.26636 0.0
H2246 H 0.20168 0.53736 0.23346 0.0
H2247 H 0.23196 0.57272 0.23946 0.0
H2248 H 0.17685 0.62939 0.24269 0.0
H2249 H 0.17903 0.65025 0.26863 0.0
H2250 H 0.1618 0.62091 0.2657 0.0
H2251 H 0.18237 0.61415 0.30575 0.0
H2252 H 0.19979 0.64358 0.30873 0.0
H2253 H 0.2114 0.61804 0.31018 0.0
H2254 H 0.25521 0.61258 0.24263 0.0
H2255 H 0.26989 0.65535 0.2422 0.0
H2256 H 0.21741 0.67153 0.27508 0.0
C2257 C 0.1778 0.57717 0.26086 0.0
C2258 C 0.17997 0.55549 0.24945 0.0
C2259 C 0.19984 0.55386 0.24243 0.0
C2260 C 0.21718 0.57377 0.24589 0.0
C2261 C 0.21457 0.59499 0.25699 0.0
C2262 C 0.19554 0.59683 0.26471 0.0
C2263 C 0.19657 0.62225 0.27449 0.0
C2264 C 0.17744 0.63122 0.26211 0.0
C2265 C 0.19759 0.62464 0.30138 0.0
C2266 C 0.21802 0.63461 0.26851 0.0
C2267 C 0.22851 0.61842 0.25932 0.0
C2268 C 0.24754 0.62549 0.25043 0.0
C2269 C 0.25579 0.6498 0.2503 0.0
C2270 C 0.2448 0.6666 0.25872 0.0
C2271 C 0.22612 0.65894 0.26865 0.0
H2272 H 0.54741 0.75511 0.48294 0.0
H2273 H 0.49858 0.7196 0.42212 0.0
H2274 H 0.50061 0.68082 0.43472 0.0
H2275 H 0.58009 0.71216 0.48214 0.0
H2276 H 0.58657 0.71341 0.51376 0.0
H2277 H 0.58089 0.73902 0.50103 0.0
H2278 H 0.55064 0.73989 0.52577 0.0
H2279 H 0.55633 0.71439 0.53871 0.0
H2280 H 0.52924 0.71356 0.52402 0.0
H2281 H 0.5074 0.64623 0.45268 0.0
H2282 H 0.51883 0.61631 0.47571 0.0
H2283 H 0.56471 0.67212 0.52509 0.0
C2284 C 0.53698 0.73916 0.47248 0.0
C2285 C 0.52271 0.74048 0.45153 0.0
C2286 C 0.50957 0.71916 0.43819 0.0
C2287 C 0.51061 0.69698 0.4452 0.0
C2288 C 0.52496 0.69624 0.4656 0.0
C2289 C 0.53793 0.71662 0.47917 0.0
C2290 C 0.55218 0.71029 0.50011 0.0
C2291 C 0.57637 0.71925 0.49919 0.0
C2292 C 0.54677 0.72012 0.52354 0.0
C2293 C 0.54531 0.68319 0.49587 0.0
C2294 C 0.52942 0.67572 0.4759 0.0
C2295 C 0.51986 0.65181 0.4683 0.0
C2296 C 0.52649 0.63495 0.48152 0.0
C2297 C 0.5427 0.64188 0.50206 0.0
C2298 C 0.55248 0.66636 0.50927 0.0
H2299 H 0.64178 0.34825 0.70538 0.0
H2300 H 0.66754 0.36621 0.64253 0.0
H2301 H 0.7035 0.36201 0.66136 0.0
H2302 H 0.6888 0.37781 0.74867 0.0
H2303 H 0.68611 0.35463 0.76742 0.0
H2304 H 0.6624 0.35935 0.74919 0.0
H2305 H 0.6527 0.31525 0.73026 0.0
H2306 H 0.67643 0.31038 0.74837 0.0
H2307 H 0.67241 0.30358 0.7167 0.0
H2308 H 0.73616 0.35459 0.68606 0.0
H2309 H 0.76439 0.34669 0.71608 0.0
H2310 H 0.71844 0.33432 0.76398 0.0
C2311 C 0.65504 0.35155 0.69568 0.0
C2312 C 0.65185 0.35773 0.67247 0.0
C2313 C 0.66958 0.36152 0.66028 0.0
C2314 C 0.69006 0.35912 0.67083 0.0
C2315 C 0.69259 0.35273 0.69354 0.0
C2316 C 0.67562 0.34902 0.70589 0.0
C2317 C 0.68271 0.34173 0.72989 0.0
C2318 C 0.67984 0.35945 0.74998 0.0
C2319 C 0.67032 0.31623 0.7314 0.0
C2320 C 0.70652 0.34283 0.72945 0.0
C2321 C 0.71167 0.34874 0.70806 0.0
C2322 C 0.73234 0.35006 0.7029 0.0
C2323 C 0.74826 0.34542 0.72008 0.0
C2324 C 0.74364 0.33995 0.74241 0.0
C2325 C 0.72245 0.33864 0.74713 0.0
H2326 H 0.02537 0.38571 0.97406 0.0
H2327 H 0.04173 0.4042 0.90676 0.0
H2328 H 0.04517 0.44612 0.92016 0.0
H2329 H 0.99404 0.42966 0.98255 0.0
H2330 H 1.00395 0.43732 0.01386 0.0
H2331 H 1.00268 0.40792 0.99964 0.0
H2332 H 0.04364 0.41299 0.01567 0.0
H2333 H 0.04495 0.44235 0.03004 0.0
H2334 H 0.06292 0.43832 0.0097 0.0
H2335 H 0.04674 0.48574 0.93925 0.0
H2336 H 0.04798 0.52253 0.96514 0.0
H2337 H 0.03116 0.48103 0.02094 0.0
C2338 C 0.02975 0.39861 0.96223 0.0
C2339 C 0.03312 0.39132 0.93922 0.0
C2340 C 0.0389 0.40895 0.92439 0.0
C2341 C 0.04091 0.433 0.9318 0.0
C2342 C 0.03726 0.43954 0.95424 0.0
C2343 C 0.03199 0.42309 0.96945 0.0
C2344 C 0.02931 0.43561 0.99282 0.0
C2345 C 0.00611 0.42712 0.99749 0.0
C2346 C 0.04621 0.4321 0.01327 0.0
C2347 C 0.03373 0.46142 0.98806 0.0
C2348 C 0.03825 0.46307 0.9656 0.0
C2349 C 0.04318 0.48477 0.95688 0.0
C2350 C 0.04379 0.50552 0.97162 0.0
C2351 C 0.03941 0.50441 0.99471 0.0
C2352 C 0.03423 0.48214 0.00312 0.0
H2353 H 0.03468 0.84246 0.21604 0.0
H2354 H 0.00905 0.82356 0.14117 0.0
H2355 H 0.9716 0.81887 0.14937 0.0
H2356 H 0.99396 0.80364 0.23783 0.0
H2357 H 0.99336 0.82475 0.26254 0.0
H2358 H 0.01789 0.82655 0.25061 0.0
H2359 H 0.019 0.87037 0.24416 0.0
H2360 H 0.99458 0.86878 0.25631 0.0
H2361 H 0.99568 0.87742 0.22731 0.0
H2362 H 0.93665 0.81492 0.16666 0.0
H2363 H 0.90795 0.81482 0.19091 0.0
H2364 H 0.95748 0.83879 0.25378 0.0
C2365 C 0.02117 0.83743 0.20137 0.0
C2366 C 0.02465 0.83331 0.178 0.0
C2367 C 0.00665 0.82697 0.1592 0.0
C2368 C 0.98537 0.82415 0.16371 0.0
C2369 C 0.98248 0.82821 0.18707 0.0
C2370 C 0.99996 0.8351 0.2055 0.0
C2371 C 0.99272 0.83926 0.2289 0.0
C2372 C 0.99991 0.82254 0.24597 0.0
C2373 C 1.00098 0.86552 0.23981 0.0
C2374 C 0.96839 0.83296 0.22094 0.0
C2375 C 0.96269 0.82664 0.19677 0.0
C2376 C 0.94099 0.82004 0.18558 0.0
C2377 C 0.9248 0.82013 0.19947 0.0
C2378 C 0.93042 0.82675 0.22428 0.0
C2379 C 0.95256 0.83325 0.23495 0.0
H2380 H 0.5682 0.42842 0.1258 0.0
H2381 H 0.58206 0.38706 0.06587 0.0
H2382 H 0.58312 0.42129 0.04355 0.0
H2383 H 0.53299 0.45862 0.0913 0.0
H2384 H 0.54218 0.48653 0.11052 0.0
H2385 H 0.54293 0.45902 0.12228 0.0
H2386 H 0.58396 0.47504 0.13878 0.0
H2387 H 0.58331 0.50253 0.12693 0.0
H2388 H 0.6021 0.48543 0.11906 0.0
H2389 H 0.58251 0.45937 0.02735 0.0
H2390 H 0.57873 0.49861 0.01734 0.0
H2391 H 0.5649 0.51672 0.08712 0.0
C2392 C 0.57145 0.42656 0.10797 0.0
C2393 C 0.57503 0.40484 0.09763 0.0
C2394 C 0.57917 0.40329 0.07422 0.0
C2395 C 0.57989 0.42273 0.0614 0.0
C2396 C 0.57638 0.44379 0.07207 0.0
C2397 C 0.57211 0.44588 0.09477 0.0
C2398 C 0.56835 0.4705 0.10166 0.0
C2399 C 0.54524 0.46855 0.10674 0.0
C2400 C 0.58545 0.48418 0.12287 0.0
C2401 C 0.57123 0.48185 0.0793 0.0
C2402 C 0.57591 0.46602 0.06256 0.0
C2403 C 0.57888 0.47191 0.04033 0.0
C2404 C 0.57668 0.49436 0.03482 0.0
C2405 C 0.57159 0.51097 0.05139 0.0
C2406 C 0.56908 0.50463 0.07411 0.0
H2407 H 0.95863 0.35051 0.37967 0.0
H2408 H 0.96087 0.27716 0.36115 0.0
H2409 H 0.92402 0.26915 0.33698 0.0
H2410 H 0.89936 0.3368 0.38302 0.0
H2411 H 0.89591 0.36383 0.37163 0.0
H2412 H 0.92152 0.36287 0.3889 0.0
H2413 H 0.94083 0.377 0.35482 0.0
H2414 H 0.91527 0.37742 0.33718 0.0
H2415 H 0.93248 0.36003 0.32581 0.0
H2416 H 0.88897 0.27037 0.31183 0.0
H2417 H 0.8554 0.27873 0.29154 0.0
H2418 H 0.87491 0.35123 0.32748 0.0
C2419 C 0.95096 0.33259 0.37116 0.0
C2420 C 0.96222 0.31425 0.37258 0.0
C2421 C 0.95214 0.29117 0.36075 0.0
C2422 C 0.93137 0.28659 0.34681 0.0
C2423 C 0.92089 0.30522 0.34525 0.0
C2424 C 0.93007 0.32761 0.35759 0.0
C2425 C 0.91536 0.34451 0.35276 0.0
C2426 C 0.90758 0.35247 0.37542 0.0
C2427 C 0.92667 0.366 0.342 0.0
C2428 C 0.89685 0.32839 0.33503 0.0
C2429 C 0.90041 0.30581 0.33102 0.0
C2430 C 0.88585 0.28786 0.31513 0.0
C2431 C 0.86681 0.29284 0.30364 0.0
C2432 C 0.86236 0.31558 0.30801 0.0
C2433 C 0.87784 0.3337 0.32366 0.0
H2434 H 0.07846 0.73998 0.63353 0.0
H2435 H 0.05122 0.77793 0.57981 0.0
H2436 H 0.04049 0.74081 0.55182 0.0
H2437 H 0.10008 0.70248 0.59455 0.0
H2438 H 0.09372 0.67659 0.6094 0.0
H2439 H 0.099 0.70595 0.62563 0.0
H2440 H 0.06187 0.69504 0.63913 0.0
H2441 H 0.05638 0.66567 0.62284 0.0
H2442 H 0.03752 0.68427 0.61729 0.0
H2443 H 0.03174 0.70026 0.53007 0.0
H2444 H 0.028 0.65909 0.51357 0.0
H2445 H 0.06217 0.64528 0.57985 0.0
C2446 C 0.07023 0.74054 0.61587 0.0
C2447 C 0.06563 0.76215 0.60901 0.0
C2448 C 0.05493 0.76187 0.58564 0.0
C2449 C 0.0487 0.74077 0.56961 0.0
C2450 C 0.05329 0.71991 0.57703 0.0
C2451 C 0.06396 0.71955 0.5995 0.0
C2452 C 0.06718 0.69459 0.60257 0.0
C2453 C 0.09144 0.69493 0.60838 0.0
C2454 C 0.05502 0.68428 0.62159 0.0
C2455 C 0.05685 0.681 0.57814 0.0
C2456 C 0.04873 0.69615 0.564 0.0
C2457 C 0.03814 0.68831 0.54093 0.0
C2458 C 0.03609 0.66464 0.53174 0.0
C2459 C 0.0448 0.64857 0.54521 0.0
C2460 C 0.05517 0.65688 0.56902 0.0
H2461 H 0.57499 0.79649 0.8566 0.0
H2462 H 0.61128 0.84286 0.91985 0.0
H2463 H 0.64463 0.84731 0.9027 0.0
H2464 H 0.61537 0.76532 0.84846 0.0
H2465 H 0.61025 0.76269 0.81666 0.0
H2466 H 0.58874 0.765 0.83275 0.0
H2467 H 0.58271 0.80145 0.81243 0.0
H2468 H 0.60429 0.79929 0.79632 0.0
H2469 H 0.60515 0.82675 0.81424 0.0
H2470 H 0.67419 0.84565 0.87976 0.0
H2471 H 0.69883 0.83587 0.85367 0.0
H2472 H 0.64412 0.78877 0.80584 0.0
C2473 C 0.58992 0.80779 0.8667 0.0
C2474 C 0.59053 0.8194 0.88956 0.0
C2475 C 0.61043 0.83377 0.90236 0.0
C2476 C 0.62943 0.83653 0.89269 0.0
C2477 C 0.62834 0.82471 0.87025 0.0
C2478 C 0.60915 0.81052 0.85741 0.0
C2479 C 0.61282 0.79854 0.83434 0.0
C2480 C 0.60642 0.77127 0.83299 0.0
C2481 C 0.60051 0.80702 0.81308 0.0
C2482 C 0.63717 0.80769 0.8366 0.0
C2483 C 0.64566 0.82311 0.85725 0.0
C2484 C 0.66775 0.83353 0.86358 0.0
C2485 C 0.68166 0.82767 0.84871 0.0
C2486 C 0.67355 0.81124 0.82783 0.0
C2487 C 0.65088 0.8015 0.82155 0.0
H2488 H 0.43613 0.5588 0.61258 0.0
H2489 H 0.4767 0.5635 0.68122 0.0
H2490 H 0.50876 0.5813 0.66552 0.0
H2491 H 0.47355 0.54071 0.57942 0.0
H2492 H 0.46705 0.5573 0.55556 0.0
H2493 H 0.44709 0.54703 0.57322 0.0
H2494 H 0.4435 0.59065 0.58156 0.0
H2495 H 0.46452 0.60093 0.565 0.0
H2496 H 0.46711 0.61358 0.59527 0.0
H2497 H 0.53655 0.59802 0.64348 0.0
H2498 H 0.55988 0.60508 0.61339 0.0
H2499 H 0.50286 0.58676 0.55832 0.0
C2500 C 0.45176 0.56366 0.62421 0.0
C2501 C 0.45383 0.56 0.64811 0.0
C2502 C 0.47461 0.56624 0.66281 0.0
C2503 C 0.49298 0.57664 0.6542 0.0
C2504 C 0.49043 0.5805 0.63078 0.0
C2505 C 0.47053 0.57373 0.61576 0.0
C2506 C 0.47293 0.57769 0.59074 0.0
C2507 C 0.46469 0.55428 0.57375 0.0
C2508 C 0.46132 0.59685 0.58268 0.0
C2509 C 0.49734 0.58661 0.59406 0.0
C2510 C 0.50695 0.58904 0.61749 0.0
C2511 C 0.52932 0.5964 0.62505 0.0
C2512 C 0.5424 0.60051 0.60796 0.0
C2513 C 0.53292 0.59653 0.58383 0.0
C2514 C 0.51022 0.59007 0.57679 0.0
H2515 H 0.77772 0.23169 0.92702 0.0
H2516 H 0.78118 0.29611 0.97368 0.0
H2517 H 0.78032 0.31856 0.93957 0.0
H2518 H 0.81202 0.25876 0.88925 0.0
H2519 H 0.79669 0.24067 0.86244 0.0
H2520 H 0.79641 0.22915 0.89026 0.0
H2521 H 0.75441 0.22078 0.88281 0.0
H2522 H 0.75465 0.23239 0.855 0.0
H2523 H 0.74137 0.24466 0.87683 0.0
H2524 H 0.78087 0.33457 0.90121 0.0
H2525 H 0.78371 0.3436 0.86093 0.0
H2526 H 0.77952 0.26909 0.83795 0.0
C2527 C 0.77817 0.2505 0.93004 0.0
C2528 C 0.77953 0.26213 0.95316 0.0
C2529 C 0.78014 0.28677 0.95626 0.0
C2530 C 0.77959 0.29968 0.93694 0.0
C2531 C 0.7783 0.28774 0.91449 0.0
C2532 C 0.77757 0.26371 0.91085 0.0
C2533 C 0.7769 0.25549 0.88488 0.0
C2534 C 0.79669 0.24543 0.88152 0.0
C2535 C 0.75556 0.23725 0.87426 0.0
C2536 C 0.77789 0.27877 0.87463 0.0
C2537 C 0.77848 0.29705 0.89208 0.0
C2538 C 0.78025 0.32038 0.88737 0.0
C2539 C 0.78186 0.32532 0.86437 0.0
C2540 C 0.7817 0.30707 0.84616 0.0
C2541 C 0.77932 0.28337 0.85134 0.0
H2542 H 0.09927 0.46373 0.14337 0.0
H2543 H 0.1361 0.52429 0.19373 0.0
H2544 H 0.1217 0.55156 0.16902 0.0
H2545 H 0.10837 0.49629 0.09093 0.0
H2546 H 0.08214 0.48109 0.07415 0.0
H2547 H 0.09636 0.46627 0.09518 0.0
H2548 H 0.06299 0.45837 0.11617 0.0
H2549 H 0.04886 0.47328 0.09527 0.0
H2550 H 0.05245 0.4831 0.12647 0.0
H2551 H 0.10229 0.57199 0.14037 0.0
H2552 H 0.07893 0.58472 0.10833 0.0
H2553 H 0.05497 0.51132 0.07578 0.0
C2554 C 0.10452 0.48275 0.14882 0.0
C2555 C 0.1187 0.4921 0.17035 0.0
C2556 C 0.12524 0.51699 0.17722 0.0
C2557 C 0.11721 0.53257 0.1633 0.0
C2558 C 0.10311 0.52293 0.14224 0.0
C2559 C 0.09709 0.49868 0.13471 0.0
C2560 C 0.08179 0.49324 0.11113 0.0
C2561 C 0.09282 0.48365 0.0917 0.0
C2562 C 0.06024 0.47599 0.11237 0.0
C2563 C 0.07883 0.51793 0.10773 0.0
C2564 C 0.09179 0.53485 0.12555 0.0
C2565 C 0.09214 0.55897 0.12621 0.0
C2566 C 0.07886 0.56601 0.10806 0.0
C2567 C 0.06514 0.54889 0.09 0.0
C2568 C 0.06515 0.52461 0.08973 0.0
H2569 H 0.8289 0.89058 0.4702 0.0
H2570 H 0.78121 0.93286 0.4572 0.0
H2571 H 0.7751 0.91888 0.4148 0.0
H2572 H 0.8527 0.90085 0.41993 0.0
H2573 H 0.85612 0.87113 0.41281 0.0
H2574 H 0.85572 0.88223 0.44288 0.0
H2575 H 0.82423 0.84635 0.44465 0.0
H2576 H 0.82475 0.83498 0.41467 0.0
H2577 H 0.79991 0.84014 0.42261 0.0
H2578 H 0.77503 0.90294 0.3742 0.0
H2579 H 0.77993 0.88378 0.33627 0.0
H2580 H 0.82829 0.85175 0.37297 0.0
C2581 C 0.81684 0.8964 0.45843 0.0
C2582 C 0.80552 0.91288 0.46713 0.0
C2583 C 0.79014 0.92036 0.45107 0.0
C2584 C 0.78651 0.91251 0.42688 0.0
C2585 C 0.79833 0.89701 0.41875 0.0
C2586 C 0.81301 0.88872 0.43388 0.0
C2587 C 0.82384 0.87258 0.41985 0.0
C2588 C 0.84857 0.88229 0.42413 0.0
C2589 C 0.81783 0.84699 0.4258 0.0
C2590 C 0.81353 0.874 0.3946 0.0
C2591 C 0.79863 0.88796 0.39465 0.0
C2592 C 0.78661 0.89191 0.37389 0.0
C2593 C 0.78956 0.881 0.35241 0.0
C2594 C 0.80462 0.86653 0.35164 0.0
C2595 C 0.81696 0.86311 0.37305 0.0
H2596 H 0.47895 0.56989 0.76891 0.0
H2597 H 0.41254 0.53578 0.77198 0.0
H2598 H 0.41938 0.54894 0.81501 0.0
H2599 H 0.50358 0.55406 0.81694 0.0
H2600 H 0.52367 0.58153 0.82723 0.0
H2601 H 0.51204 0.57429 0.7965 0.0
H2602 H 0.50015 0.61431 0.79745 0.0
H2603 H 0.51167 0.62151 0.82847 0.0
H2604 H 0.48364 0.62141 0.81843 0.0
H2605 H 0.43546 0.55709 0.85715 0.0
H2606 H 0.45961 0.55892 0.89505 0.0
H2607 H 0.51489 0.59137 0.86498 0.0
C2608 C 0.46582 0.56572 0.77871 0.0
C2609 C 0.44539 0.55174 0.76765 0.0
C2610 C 0.42833 0.54654 0.78053 0.0
C2611 C 0.432 0.55415 0.80479 0.0
C2612 C 0.45255 0.56764 0.81545 0.0
C2613 C 0.46907 0.57378 0.80273 0.0
C2614 C 0.4903 0.58591 0.81865 0.0
C2615 C 0.50843 0.57316 0.8146 0.0
C2616 C 0.49682 0.61236 0.81556 0.0
C2617 C 0.48373 0.58307 0.84235 0.0
C2618 C 0.46171 0.57335 0.84022 0.0
C2619 C 0.45253 0.56556 0.85926 0.0
C2620 C 0.46635 0.56668 0.88072 0.0
C2621 C 0.489 0.57535 0.88269 0.0
C2622 C 0.49756 0.58487 0.86376 0.0
H2623 H 0.76754 0.25988 0.10128 0.0
H2624 H 0.83162 0.24626 0.10509 0.0
H2625 H 0.84159 0.26547 0.14662 0.0
H2626 H 0.78479 0.31832 0.13904 0.0
H2627 H 0.76106 0.31313 0.15271 0.0
H2628 H 0.75955 0.29963 0.12293 0.0
H2629 H 0.74507 0.25822 0.13516 0.0
H2630 H 0.74694 0.27155 0.16507 0.0
H2631 H 0.76072 0.24826 0.15919 0.0
H2632 H 0.84406 0.28423 0.18847 0.0
H2633 H 0.84005 0.30481 0.22652 0.0
H2634 H 0.77453 0.30691 0.19635 0.0
C2635 C 0.78387 0.26167 0.1107 0.0
C2636 C 0.79909 0.25222 0.09977 0.0
C2637 C 0.81998 0.25399 0.11293 0.0
C2638 C 0.82569 0.26466 0.13661 0.0
C2639 C 0.81027 0.27343 0.14706 0.0
C2640 C 0.78987 0.27238 0.13447 0.0
C2641 C 0.77629 0.28291 0.15014 0.0
C2642 C 0.77006 0.3048 0.14064 0.0
C2643 C 0.75606 0.26411 0.15253 0.0
C2644 C 0.79219 0.28993 0.17347 0.0
C2645 C 0.81165 0.28412 0.17129 0.0
C2646 C 0.8289 0.28885 0.19034 0.0
C2647 C 0.82644 0.30036 0.21195 0.0
C2648 C 0.8069 0.30698 0.21449 0.0
C2649 C 0.7895 0.30154 0.19502 0.0
H2650 H 0.13382 0.51312 0.31866 0.0
H2651 H 0.08393 0.52606 0.26505 0.0
H2652 H 0.07974 0.5595 0.29145 0.0
H2653 H 0.10779 0.52013 0.36489 0.0
H2654 H 0.13121 0.53522 0.38668 0.0
H2655 H 0.13437 0.51603 0.36189 0.0
H2656 H 0.1626 0.55098 0.35142 0.0
H2657 H 0.15897 0.57041 0.37598 0.0
H2658 H 0.15513 0.57855 0.34659 0.0
H2659 H 0.07625 0.58655 0.32359 0.0
H2660 H 0.06868 0.60043 0.36186 0.0
H2661 H 0.12022 0.57162 0.39707 0.0
C2662 C 0.1223 0.52332 0.31252 0.0
C2663 C 0.1091 0.51689 0.28993 0.0
C2664 C 0.094 0.53039 0.28244 0.0
C2665 C 0.09181 0.5498 0.29712 0.0
C2666 C 0.10479 0.55563 0.31934 0.0
C2667 C 0.11958 0.5427 0.32727 0.0
C2668 C 0.12869 0.55044 0.35333 0.0
C2669 C 0.12528 0.52919 0.36752 0.0
C2670 C 0.15278 0.56336 0.35704 0.0
C2671 C 0.11496 0.56772 0.35908 0.0
C2672 C 0.10228 0.57144 0.33886 0.0
C2673 C 0.08644 0.58433 0.33957 0.0
C2674 C 0.08233 0.59231 0.36153 0.0
C2675 C 0.09385 0.58708 0.38252 0.0
C2676 C 0.11121 0.57586 0.38127 0.0
H2677 H 0.82547 0.91497 0.63792 0.0
H2678 H 0.80732 0.8534 0.5839 0.0
H2679 H 0.79949 0.82724 0.61421 0.0
H2680 H 0.8508 0.88584 0.68477 0.0
H2681 H 0.84086 0.90094 0.70791 0.0
H2682 H 0.84616 0.91511 0.6823 0.0
H2683 H 0.80676 0.92044 0.67463 0.0
H2684 H 0.80137 0.90628 0.7002 0.0
H2685 H 0.78445 0.89478 0.67182 0.0
H2686 H 0.7927 0.80752 0.64986 0.0
H2687 H 0.78672 0.79547 0.68848 0.0
H2688 H 0.80823 0.86928 0.72045 0.0
C2689 C 0.82011 0.89596 0.63251 0.0
C2690 C 0.81721 0.88631 0.60835 0.0
C2691 C 0.80984 0.86132 0.60214 0.0
C2692 C 0.80533 0.84625 0.6193 0.0
C2693 C 0.80819 0.85629 0.6428 0.0
C2694 C 0.81543 0.88055 0.64951 0.0
C2695 C 0.8165 0.88662 0.67601 0.0
C2696 C 0.83998 0.8978 0.68848 0.0
C2697 C 0.80137 0.903 0.68095 0.0
C2698 C 0.80843 0.86203 0.683 0.0
C2699 C 0.80395 0.84484 0.66351 0.0
C2700 C 0.79621 0.82084 0.66524 0.0
C2701 C 0.79286 0.81416 0.68734 0.0
C2702 C 0.79702 0.83132 0.70765 0.0
C2703 C 0.80502 0.85566 0.70537 0.0
H2704 H 0.76957 0.49952 0.53811 0.0
H2705 H 0.73956 0.43418 0.56268 0.0
H2706 H 0.70912 0.45163 0.57084 0.0
H2707 H 0.75317 0.54091 0.57908 0.0
H2708 H 0.74785 0.56012 0.55729 0.0
H2709 H 0.76808 0.5432 0.55505 0.0
H2710 H 0.74852 0.52444 0.51268 0.0
H2711 H 0.72828 0.54134 0.51475 0.0
H2712 H 0.72021 0.50939 0.50777 0.0
H2713 H 0.68169 0.476 0.57589 0.0
H2714 H 0.65768 0.50406 0.574 0.0
H2715 H 0.7046 0.55282 0.54434 0.0
C2716 C 0.75666 0.48899 0.54539 0.0
C2717 C 0.75695 0.46553 0.54989 0.0
C2718 C 0.73962 0.45215 0.55905 0.0
C2719 C 0.72233 0.46196 0.56387 0.0
C2720 C 0.72248 0.48509 0.55917 0.0
C2721 C 0.73907 0.49835 0.54989 0.0
C2722 C 0.73457 0.52215 0.54495 0.0
C2723 C 0.75195 0.54282 0.55999 0.0
C2724 C 0.73278 0.52446 0.51846 0.0
C2725 C 0.71281 0.52014 0.55274 0.0
C2726 C 0.70628 0.49878 0.56123 0.0
C2727 C 0.68665 0.4928 0.5693 0.0
C2728 C 0.67317 0.5089 0.56829 0.0
C2729 C 0.67925 0.5306 0.55902 0.0
C2730 C 0.69945 0.5363 0.55138 0.0
H2731 H 0.20119 0.16392 0.47289 0.0
H2732 H 0.21939 0.20379 0.54308 0.0
H2733 H 0.18568 0.18145 0.55398 0.0
H2734 H 0.14374 0.1636 0.46805 0.0
H2735 H 0.13469 0.13437 0.45125 0.0
H2736 H 0.16056 0.15302 0.44921 0.0
H2737 H 0.17952 0.1197 0.46115 0.0
H2738 H 0.1537 0.10099 0.46319 0.0
H2739 H 0.17564 0.10752 0.48815 0.0
H2740 H 0.14934 0.15454 0.55716 0.0
H2741 H 0.11359 0.12588 0.55179 0.0
H2742 H 0.11875 0.10441 0.47944 0.0
C2743 C 0.19805 0.1678 0.49055 0.0
C2744 C 0.21289 0.18553 0.50716 0.0
C2745 C 0.20815 0.19036 0.53004 0.0
C2746 C 0.18906 0.17772 0.53642 0.0
C2747 C 0.17459 0.1605 0.51961 0.0
C2748 C 0.17877 0.15568 0.49706 0.0
C2749 C 0.1601 0.13703 0.48204 0.0
C2750 C 0.14913 0.14764 0.46142 0.0
C2751 C 0.16771 0.115 0.47312 0.0
C2752 C 0.14523 0.13149 0.49984 0.0
C2753 C 0.15372 0.14534 0.52137 0.0
C2754 C 0.14258 0.14357 0.54036 0.0
C2755 C 0.12229 0.12721 0.53722 0.0
C2756 C 0.11341 0.11271 0.51535 0.0
C2757 C 0.12514 0.11506 0.4965 0.0
H2758 H 0.24199 0.04989 0.86104 0.0
H2759 H 0.17494 0.02542 0.82559 0.0
H2760 H 0.18487 0.99424 0.80033 0.0
H2761 H 0.26627 0.04344 0.81213 0.0
H2762 H 0.2884 0.03253 0.82665 0.0
H2763 H 0.27589 0.05163 0.84345 0.0
H2764 H 0.26742 0.0201 0.87178 0.0
H2765 H 0.28071 1.00132 0.85564 0.0
H2766 H 0.25322 0.99004 0.85964 0.0
H2767 H 0.20293 0.9677 0.77695 0.0
H2768 H 0.22692 0.94406 0.76156 0.0
H2769 H 0.28147 0.98648 0.81299 0.0
C2770 C 0.22932 0.03753 0.84843 0.0
C2771 C 0.20776 0.03985 0.84536 0.0
C2772 C 0.19155 0.02359 0.8285 0.0
C2773 C 0.19706 0.00604 0.81386 0.0
C2774 C 0.21872 0.00492 0.81664 0.0
C2775 C 0.23446 0.01984 0.83391 0.0
C2776 C 0.25652 0.01497 0.83344 0.0
C2777 C 0.27271 0.03696 0.82862 0.0
C2778 C 0.26496 0.00607 0.85649 0.0
C2779 C 0.25086 0.99544 0.81283 0.0
C2780 C 0.22901 0.98982 0.80328 0.0
C2781 C 0.22006 0.97185 0.78437 0.0
C2782 C 0.23375 0.95863 0.7757 0.0
C2783 C 0.25601 0.96365 0.786 0.0
C2784 C 0.26464 0.98263 0.80437 0.0
H2785 H 0.3882 0.97479 0.00932 0.0
H2786 H 0.3751 0.01614 0.06949 0.0
H2787 H 0.41254 0.04116 0.07617 0.0
H2788 H 0.44603 0.97786 0.03473 0.0
H2789 H 0.45451 0.97991 0.00654 0.0
H2790 H 0.42744 0.96389 0.00798 0.0
H2791 H 0.41176 0.99013 0.97939 0.0
H2792 H 0.43874 0.00651 0.97818 0.0
H2793 H 0.41914 0.02206 0.98689 0.0
H2794 H 0.45066 0.06248 0.07554 0.0
H2795 H 0.48764 0.07848 0.06815 0.0
H2796 H 0.47605 0.02485 0.00712 0.0
C2797 C 0.39353 0.98871 0.02425 0.0
C2798 C 0.37909 0.99332 0.03929 0.0
C2799 C 0.38619 0.0121 0.0582 0.0
C2800 C 0.40735 0.02645 0.06201 0.0
C2801 C 0.42116 0.02179 0.04668 0.0
C2802 C 0.41467 1.00326 0.0283 0.0
C2803 C 0.43259 1.00269 0.01399 0.0
C2804 C 0.44062 0.97972 0.01593 0.0
C2805 C 0.4251 0.00553 0.98808 0.0
C2806 C 0.4498 0.0243 0.02667 0.0
C2807 C 0.44295 0.03477 0.04572 0.0
C2808 C 0.45618 0.05448 0.06065 0.0
C2809 C 0.4771 0.0635 0.05627 0.0
C2810 C 0.48447 0.05316 0.03686 0.0
C2811 C 0.47057 0.03343 0.02173 0.0
H2812 H 0.89435 0.71281 0.83006 0.0
H2813 H 0.93781 0.73701 0.78213 0.0
H2814 H 0.91025 0.75492 0.76106 0.0
H2815 H 0.84381 0.69985 0.78909 0.0
H2816 H 0.82906 0.71196 0.80946 0.0
H2817 H 0.85158 0.69968 0.82039 0.0
H2818 H 0.87039 0.73947 0.84733 0.0
H2819 H 0.84759 0.75146 0.83693 0.0
H2820 H 0.87459 0.76683 0.83446 0.0
H2821 H 0.87861 0.76926 0.74485 0.0
H2822 H 0.84741 0.78765 0.73942 0.0
H2823 H 0.82477 0.75668 0.79908 0.0
C2824 C 0.89805 0.72214 0.81528 0.0
C2825 C 0.91811 0.72369 0.80766 0.0
C2826 C 0.9226 0.736 0.78837 0.0
C2827 C 0.90694 0.74585 0.77608 0.0
C2828 C 0.8871 0.74349 0.7836 0.0
C2829 C 0.88279 0.73264 0.80316 0.0
C2830 C 0.86091 0.73469 0.80878 0.0
C2831 C 0.84543 0.71007 0.80681 0.0
C2832 C 0.86353 0.74897 0.83332 0.0
C2833 C 0.85365 0.74835 0.78924 0.0
C2834 C 0.86886 0.75271 0.77466 0.0
C2835 C 0.86651 0.76594 0.75604 0.0
C2836 C 0.84872 0.77619 0.75304 0.0
C2837 C 0.83375 0.77336 0.76876 0.0
C2838 C 0.83571 0.75851 0.78648 0.0
H2839 H 0.85316 0.69554 0.04844 0.0
H2840 H 0.81942 0.66484 0.97783 0.0
H2841 H 0.84915 0.6451 0.97227 0.0
H2842 H 0.90925 0.70472 0.03226 0.0
H2843 H 0.921 0.69852 0.06067 0.0
H2844 H 0.89827 0.71229 0.05807 0.0
H2845 H 0.87712 0.67872 0.07782 0.0
H2846 H 0.8996 0.66469 0.08014 0.0
H2847 H 0.87308 0.64813 0.06515 0.0
H2848 H 0.88023 0.62595 0.97558 0.0
H2849 H 0.91234 0.60974 0.98669 0.0
H2850 H 0.92678 0.65282 0.05522 0.0
C2851 C 0.85249 0.68526 0.03158 0.0
C2852 C 0.83434 0.68199 0.0133 0.0
C2853 C 0.83353 0.66798 0.99169 0.0
C2854 C 0.85025 0.65662 0.98848 0.0
C2855 C 0.86781 0.65987 0.00692 0.0
C2856 C 0.86933 0.67421 0.0279 0.0
C2857 C 0.88981 0.67416 0.04501 0.0
C2858 C 0.90551 0.69889 0.04925 0.0
C2859 C 0.88457 0.66591 0.0684 0.0
C2860 C 0.89869 0.65623 0.03098 0.0
C2861 C 0.88595 0.64868 0.00886 0.0
C2862 C 0.89054 0.63199 0.99267 0.0
C2863 C 0.90878 0.62291 0.9991 0.0
C2864 C 0.92203 0.63025 0.02162 0.0
C2865 C 0.9169 0.64706 0.03784 0.0
H2866 H 0.22001 0.20803 0.85463 0.0
H2867 H 0.25757 0.15472 0.84796 0.0
H2868 H 0.28466 0.18316 0.83214 0.0
H2869 H 0.22444 0.22784 0.80235 0.0
H2870 H 0.22699 0.25896 0.81185 0.0
H2871 H 0.2129 0.2368 0.8273 0.0
H2872 H 0.23833 0.25576 0.86692 0.0
H2873 H 0.25196 0.27869 0.85184 0.0
H2874 H 0.26731 0.26134 0.86862 0.0
H2875 H 0.30495 0.21549 0.81271 0.0
H2876 H 0.31902 0.25124 0.79437 0.0
H2877 H 0.26653 0.28167 0.81167 0.0
C2878 C 0.23431 0.2026 0.85058 0.0
C2879 C 0.2368 0.17928 0.85246 0.0
C2880 C 0.25558 0.17266 0.84688 0.0
C2881 C 0.27093 0.18861 0.83774 0.0
C2882 C 0.26722 0.21099 0.83468 0.0
C2883 C 0.24961 0.21817 0.84141 0.0
C2884 C 0.24834 0.24239 0.83468 0.0
C2885 C 0.2269 0.24141 0.81805 0.0
C2886 C 0.25169 0.26062 0.85683 0.0
C2887 C 0.2674 0.24724 0.82207 0.0
C2888 C 0.27832 0.22914 0.82261 0.0
C2889 C 0.29661 0.22981 0.81226 0.0
C2890 C 0.30433 0.24992 0.80174 0.0
C2891 C 0.29336 0.26852 0.80124 0.0
C2892 C 0.27462 0.26714 0.81125 0.0
H2893 H 0.44062 0.07191 0.28842 0.0
H2894 H 0.40296 0.1185 0.31606 0.0
H2895 H 0.37198 0.08434 0.31267 0.0
H2896 H 0.39486 0.03151 0.24697 0.0
H2897 H 0.40485 0.00549 0.25256 0.0
H2898 H 0.42363 0.03397 0.25474 0.0
H2899 H 0.44018 0.03001 0.29761 0.0
H2900 H 0.42167 1.00147 0.29543 0.0
H2901 H 0.42261 0.02454 0.31902 0.0
H2902 H 0.34608 0.04555 0.30907 0.0
H2903 H 0.32799 1.00343 0.30884 0.0
H2904 H 0.38198 0.98179 0.28346 0.0
C2905 C 0.42579 0.07495 0.29354 0.0
C2906 C 0.42422 0.09787 0.3024 0.0
C2907 C 0.40458 0.1011 0.30914 0.0
C2908 C 0.38679 0.08185 0.30713 0.0
C2909 C 0.38883 0.05954 0.29823 0.0
C2910 C 0.40782 0.05591 0.29166 0.0
C2911 C 0.40621 0.02979 0.2844 0.0
C2912 C 0.40746 0.02491 0.2581 0.0
C2913 C 0.4237 0.02094 0.30006 0.0
C2914 C 0.38372 0.01934 0.28892 0.0
C2915 C 0.37379 0.03686 0.29634 0.0
C2916 C 0.35348 0.0316 0.30294 0.0
C2917 C 0.34329 0.00769 0.30263 0.0
C2918 C 0.35363 0.98955 0.29605 0.0
C2919 C 0.37378 0.99544 0.28849 0.0
H2920 H 0.58512 0.40955 0.57592 0.0
H2921 H 0.54586 0.41139 0.63061 0.0
H2922 H 0.53501 0.44658 0.61693 0.0
H2923 H 0.60506 0.47287 0.58056 0.0
H2924 H 0.60426 0.47373 0.54936 0.0
H2925 H 0.60799 0.44741 0.56201 0.0
H2926 H 0.57461 0.422 0.53243 0.0
H2927 H 0.57082 0.44826 0.51966 0.0
H2928 H 0.54892 0.43016 0.5307 0.0
H2929 H 0.52772 0.48094 0.59767 0.0
H2930 H 0.52679 0.51513 0.57562 0.0
H2931 H 0.57295 0.49473 0.53501 0.0
C2932 C 0.57404 0.41723 0.58478 0.0
C2933 C 0.5662 0.40747 0.60428 0.0
C2934 C 0.55205 0.41838 0.61565 0.0
C2935 C 0.54573 0.4384 0.60797 0.0
C2936 C 0.55382 0.4477 0.58896 0.0
C2937 C 0.5678 0.43771 0.57755 0.0
C2938 C 0.57477 0.45224 0.55824 0.0
C2939 C 0.59949 0.46215 0.56283 0.0
C2940 C 0.56681 0.43727 0.53381 0.0
C2941 C 0.56286 0.47209 0.56101 0.0
C2942 C 0.5505 0.46866 0.57853 0.0
C2943 C 0.5374 0.4839 0.58399 0.0
C2944 C 0.53693 0.50323 0.57132 0.0
C2945 C 0.54982 0.50761 0.55371 0.0
C2946 C 0.56307 0.49187 0.54854 0.0
H2947 H 0.45139 0.79034 0.33701 0.0
H2948 H 0.45055 0.82963 0.40426 0.0
H2949 H 0.41336 0.83375 0.38923 0.0
H2950 H 0.42396 0.82205 0.30012 0.0
H2951 H 0.40819 0.79675 0.27956 0.0
H2952 H 0.43402 0.79553 0.29605 0.0
H2953 H 0.41596 0.75762 0.31247 0.0
H2954 H 0.39012 0.75845 0.29565 0.0
H2955 H 0.39313 0.75799 0.3271 0.0
H2956 H 0.37782 0.83778 0.36445 0.0
H2957 H 0.3448 0.83539 0.33479 0.0
H2958 H 0.3678 0.79028 0.28527 0.0
C2959 C 0.4431 0.79923 0.34875 0.0
C2960 C 0.45369 0.80946 0.37187 0.0
C2961 C 0.44252 0.82127 0.38666 0.0
C2962 C 0.42149 0.82389 0.37817 0.0
C2963 C 0.41168 0.8141 0.35502 0.0
C2964 C 0.42191 0.80137 0.34079 0.0
C2965 C 0.40783 0.79234 0.31672 0.0
C2966 C 0.41918 0.80227 0.29696 0.0
C2967 C 0.40138 0.76498 0.31276 0.0
C2968 C 0.38841 0.80262 0.31926 0.0
C2969 C 0.39095 0.81532 0.34139 0.0
C2970 C 0.37554 0.82751 0.34725 0.0
C2971 C 0.35692 0.82622 0.33025 0.0
C2972 C 0.35372 0.81256 0.30782 0.0
C2973 C 0.36974 0.8007 0.30236 0.0
H2974 H 0.09194 0.74914 0.13588 0.0
H2975 H 0.06076 0.7798 0.07839 0.0
H2976 H 0.05314 0.7412 0.05283 0.0
H2977 H 0.11718 0.71251 0.10017 0.0
H2978 H 0.11295 0.68833 0.11761 0.0
H2979 H 0.11624 0.71847 0.13112 0.0
H2980 H 0.07956 0.70637 0.1455 0.0
H2981 H 0.07612 0.67619 0.13209 0.0
H2982 H 0.05542 0.69211 0.12435 0.0
H2983 H 0.04672 0.69847 0.0345 0.0
H2984 H 0.04365 0.6554 0.02415 0.0
H2985 H 0.08089 0.6533 0.09281 0.0
C2986 C 0.08358 0.74784 0.11789 0.0
C2987 C 0.07689 0.76755 0.10919 0.0
C2988 C 0.06606 0.76501 0.08548 0.0
C2989 C 0.06165 0.74315 0.07083 0.0
C2990 C 0.06837 0.72408 0.08006 0.0
C2991 C 0.07924 0.72628 0.10299 0.0
C2992 C 0.08453 0.70305 0.10875 0.0
C2993 C 0.10919 0.70576 0.11476 0.0
C2994 C 0.07323 0.69389 0.12886 0.0
C2995 C 0.07484 0.68731 0.0855 0.0
C2996 C 0.06542 0.69975 0.06924 0.0
C2997 C 0.05426 0.68866 0.047 0.0
C2998 C 0.05253 0.66422 0.04131 0.0
C2999 C 0.0622 0.65123 0.05765 0.0
C3000 C 0.07372 0.66299 0.07989 0.0
H3001 H 0.08854 0.28439 0.8898 0.0
H3002 H 0.07815 0.35581 0.89589 0.0
H3003 H 0.10947 0.36938 0.87618 0.0
H3004 H 0.14776 0.30345 0.90197 0.0
H3005 H 0.15122 0.27944 0.88188 0.0
H3006 H 0.12797 0.27537 0.89635 0.0
H3007 H 0.10232 0.26329 0.85564 0.0
H3008 H 0.12549 0.2672 0.8411 0.0
H3009 H 0.10475 0.28311 0.83348 0.0
H3010 H 0.14105 0.37459 0.85433 0.0
H3011 H 0.17122 0.37137 0.83314 0.0
H3012 H 0.16203 0.29694 0.84303 0.0
C3013 C 0.09294 0.30284 0.88691 0.0
C3014 C 0.08104 0.31912 0.89415 0.0
C3015 C 0.08722 0.34319 0.8904 0.0
C3016 C 0.10493 0.35101 0.87925 0.0
C3017 C 0.11648 0.33458 0.87236 0.0
C3018 C 0.11086 0.31106 0.87623 0.0
C3019 C 0.12621 0.29716 0.86751 0.0
C3020 C 0.13905 0.28833 0.88816 0.0
C3021 C 0.11395 0.27647 0.84829 0.0
C3022 C 0.14087 0.31629 0.85747 0.0
C3023 C 0.13506 0.33779 0.86051 0.0
C3024 C 0.14584 0.35788 0.85201 0.0
C3025 C 0.16288 0.35587 0.83993 0.0
C3026 C 0.16905 0.33395 0.83655 0.0
C3027 C 0.15796 0.31404 0.84569 0.0
H3028 H 0.53595 0.72444 0.9289 0.0
H3029 H 0.52007 0.76351 0.98895 0.0
H3030 H 0.5198 0.72893 0.0107 0.0
H3031 H 0.50457 0.66519 0.93446 0.0
H3032 H 0.52494 0.65012 0.92713 0.0
H3033 H 0.52266 0.67728 0.91532 0.0
H3034 H 0.56309 0.69612 0.93281 0.0
H3035 H 0.56548 0.66899 0.94457 0.0
H3036 H 0.57268 0.69681 0.96391 0.0
H3037 H 0.52275 0.69135 0.02687 0.0
H3038 H 0.52969 0.65315 0.03709 0.0
H3039 H 0.54397 0.63698 0.96722 0.0
C3040 C 0.53213 0.72556 0.94651 0.0
C3041 C 0.52782 0.74676 0.95714 0.0
C3042 C 0.52338 0.74761 0.98041 0.0
C3043 C 0.52313 0.72797 0.99289 0.0
C3044 C 0.52758 0.70751 0.98207 0.0
C3045 C 0.53213 0.70611 0.95946 0.0
C3046 C 0.53764 0.68236 0.95267 0.0
C3047 C 0.52148 0.66789 0.93111 0.0
C3048 C 0.56112 0.68631 0.94823 0.0
C3049 C 0.53517 0.67059 0.97487 0.0
C3050 C 0.5294 0.68556 0.99156 0.0
C3051 C 0.52712 0.67942 0.01389 0.0
C3052 C 0.53111 0.65764 0.01954 0.0
C3053 C 0.53717 0.64191 0.00295 0.0
C3054 C 0.53894 0.64838 0.98014 0.0
H3055 H 0.15642 0.87715 0.70046 0.0
H3056 H 0.12874 0.80668 0.6618 0.0
H3057 H 0.15848 0.79179 0.68323 0.0
H3058 H 0.21228 0.87574 0.69952 0.0
H3059 H 0.22241 0.89193 0.72871 0.0
H3060 H 0.19837 0.89678 0.71128 0.0
H3061 H 0.17726 0.88668 0.74523 0.0
H3062 H 0.20128 0.88158 0.76253 0.0
H3063 H 0.1765 0.85862 0.75642 0.0
H3064 H 0.19068 0.78437 0.70886 0.0
H3065 H 0.2259 0.78578 0.73379 0.0
H3066 H 0.23429 0.86158 0.75437 0.0
C3067 C 0.15677 0.85864 0.69657 0.0
C3068 C 0.14049 0.84297 0.67949 0.0
C3069 C 0.14128 0.81887 0.67472 0.0
C3070 C 0.15797 0.81026 0.6869 0.0
C3071 C 0.17385 0.82606 0.70366 0.0
C3072 C 0.17362 0.84982 0.70832 0.0
C3073 C 0.19338 0.86318 0.72633 0.0
C3074 C 0.20744 0.88308 0.71582 0.0
C3075 C 0.18669 0.87309 0.74897 0.0
C3076 C 0.20477 0.84327 0.73075 0.0
C3077 C 0.19299 0.82194 0.71785 0.0
C3078 C 0.20011 0.80098 0.71902 0.0
C3079 C 0.2201 0.80194 0.73331 0.0
C3080 C 0.2329 0.82378 0.74596 0.0
C3081 C 0.22492 0.84462 0.74484 0.0
H3082 H 0.05475 0.39628 0.48227 0.0
H3083 H 0.02045 0.40673 0.41473 0.0
H3084 H 0.02136 0.44771 0.43045 0.0
H3085 H 0.02841 0.43399 0.51884 0.0
H3086 H 0.05281 0.44607 0.54034 0.0
H3087 H 0.04825 0.41656 0.52464 0.0
H3088 H 0.0851 0.42861 0.5106 0.0
H3089 H 0.08964 0.45818 0.5261 0.0
H3090 H 0.09028 0.45409 0.49494 0.0
H3091 H 0.02716 0.48822 0.45204 0.0
H3092 H 0.03667 0.52564 0.47945 0.0
H3093 H 0.06797 0.49129 0.53337 0.0
C3094 C 0.04711 0.4071 0.47101 0.0
C3095 C 0.0376 0.39812 0.44714 0.0
C3096 C 0.02803 0.41309 0.43296 0.0
C3097 C 0.02838 0.43649 0.44173 0.0
C3098 C 0.03837 0.44508 0.46493 0.0
C3099 C 0.04743 0.43092 0.47955 0.0
C3100 C 0.05765 0.44528 0.50363 0.0
C3101 C 0.04609 0.43485 0.52301 0.0
C3102 C 0.08212 0.44661 0.50914 0.0
C3103 C 0.05334 0.46961 0.49989 0.0
C3104 C 0.04204 0.46892 0.47745 0.0
C3105 C 0.03615 0.48902 0.46965 0.0
C3106 C 0.04189 0.51039 0.48522 0.0
C3107 C 0.0536 0.51179 0.50828 0.0
C3108 C 0.05926 0.49096 0.5157 0.0
H3109 H 0.52504 0.36873 0.19587 0.0
H3110 H 0.51207 0.29213 0.17867 0.0
H3111 H 0.47783 0.28773 0.1943 0.0
H3112 H 0.50573 0.36767 0.2506 0.0
H3113 H 0.49404 0.39306 0.24788 0.0
H3114 H 0.51684 0.39056 0.2339 0.0
H3115 H 0.49507 0.39436 0.19339 0.0
H3116 H 0.47233 0.39726 0.20732 0.0
H3117 H 0.46885 0.37444 0.18267 0.0
H3118 H 0.44634 0.29139 0.21371 0.0
H3119 H 0.41805 0.30288 0.23347 0.0
H3120 H 0.45079 0.37741 0.23782 0.0
C3121 C 0.51461 0.35116 0.19484 0.0
C3122 C 0.52073 0.33074 0.18556 0.0
C3123 C 0.50727 0.30792 0.18528 0.0
C3124 C 0.48793 0.30527 0.19425 0.0
C3125 C 0.48243 0.32565 0.20369 0.0
C3126 C 0.49526 0.34818 0.20396 0.0
C3127 C 0.48591 0.367 0.21595 0.0
C3128 C 0.50157 0.38035 0.23841 0.0
C3129 C 0.48019 0.38428 0.19881 0.0
C3130 C 0.46569 0.35155 0.222 0.0
C3131 C 0.46415 0.32775 0.21496 0.0
C3132 C 0.44719 0.31 0.21902 0.0
C3133 C 0.4311 0.31675 0.23014 0.0
C3134 C 0.43189 0.3411 0.23693 0.0
C3135 C 0.44965 0.35864 0.23299 0.0
H3136 H 0.65788 0.62689 0.44343 0.0
H3137 H 0.66602 0.55895 0.41327 0.0
H3138 H 0.63876 0.53823 0.43487 0.0
H3139 H 0.64118 0.61152 0.49995 0.0
H3140 H 0.62028 0.62783 0.49647 0.0
H3141 H 0.64501 0.63764 0.48534 0.0
H3142 H 0.62354 0.63697 0.44398 0.0
H3143 H 0.59845 0.62728 0.45415 0.0
H3144 H 0.60445 0.61007 0.42946 0.0
H3145 H 0.60434 0.52516 0.4526 0.0
H3146 H 0.56959 0.52198 0.46786 0.0
H3147 H 0.58247 0.599 0.47963 0.0
C3148 C 0.65489 0.6077 0.4425 0.0
C3149 C 0.66404 0.59453 0.42687 0.0
C3150 C 0.65942 0.5694 0.42555 0.0
C3151 C 0.64373 0.55747 0.43754 0.0
C3152 C 0.63306 0.57104 0.45069 0.0
C3153 C 0.63876 0.59571 0.45344 0.0
C3154 C 0.62243 0.60645 0.46397 0.0
C3155 C 0.63282 0.62171 0.48786 0.0
C3156 C 0.6116 0.62102 0.44686 0.0
C3157 C 0.6066 0.58407 0.46667 0.0
C3158 C 0.61284 0.5637 0.45925 0.0
C3159 C 0.59953 0.54104 0.45889 0.0
C3160 C 0.57973 0.53933 0.46715 0.0
C3161 C 0.57358 0.56024 0.47503 0.0
C3162 C 0.58696 0.58266 0.47408 0.0
H3163 H 0.29356 0.87855 0.10326 0.0
H3164 H 0.35609 0.92909 0.12063 0.0
H3165 H 0.36093 0.91815 0.16101 0.0
H3166 H 0.27824 0.89075 0.15982 0.0
H3167 H 0.26426 0.86044 0.16062 0.0
H3168 H 0.26594 0.87139 0.13267 0.0
H3169 H 0.28325 0.83716 0.11935 0.0
H3170 H 0.28144 0.82602 0.14719 0.0
H3171 H 0.30724 0.83292 0.13752 0.0
H3172 H 0.35795 0.90375 0.20072 0.0
H3173 H 0.34841 0.88454 0.23547 0.0
H3174 H 0.28859 0.84233 0.19233 0.0
C3175 C 0.30844 0.88699 0.11543 0.0
C3176 C 0.32455 0.90457 0.10859 0.0
C3177 C 0.34354 0.91554 0.12532 0.0
C3178 C 0.34643 0.90948 0.14838 0.0
C3179 C 0.33012 0.89246 0.1547 0.0
C3180 C 0.31151 0.88127 0.13869 0.0
C3181 C 0.29617 0.86415 0.15031 0.0
C3182 C 0.27489 0.87216 0.15088 0.0
C3183 C 0.29178 0.83854 0.13785 0.0
C3184 C 0.30932 0.86696 0.17506 0.0
C3185 C 0.32868 0.88374 0.17738 0.0
C3186 C 0.34295 0.89038 0.19901 0.0
C3187 C 0.3374 0.87947 0.21868 0.0
C3188 C 0.31798 0.86175 0.21652 0.0
C3189 C 0.3038 0.8555 0.19438 0.0
H3190 H 0.03304 0.68188 0.90312 0.0
H3191 H 0.96552 0.64368 0.88858 0.0
H3192 H 0.97179 0.62247 0.92298 0.0
H3193 H 0.05598 0.63878 0.91773 0.0
H3194 H 0.07627 0.65456 0.94253 0.0
H3195 H 0.06586 0.67063 0.92018 0.0
H3196 H 0.05431 0.69786 0.95163 0.0
H3197 H 0.06526 0.68225 0.9743 0.0
H3198 H 0.03748 0.68464 0.97142 0.0
H3199 H 0.98731 0.59901 0.9523 0.0
H3200 H 0.00985 0.57992 0.97948 0.0
H3201 H 0.06641 0.63584 0.97764 0.0
C3202 C 0.01941 0.67003 0.90806 0.0
C3203 C 0.99878 0.66468 0.89362 0.0
C3204 C 0.98132 0.64849 0.89993 0.0
C3205 C 0.98476 0.63621 0.91931 0.0
C3206 C 0.00555 0.64103 0.93264 0.0
C3207 C 0.0224 0.65827 0.92791 0.0
C3208 C 0.04344 0.65904 0.94419 0.0
C3209 C 0.06142 0.65552 0.93031 0.0
C3210 C 0.05055 0.68233 0.9614 0.0
C3211 C 0.03625 0.63806 0.95704 0.0
C3212 C 0.01427 0.62811 0.95044 0.0
C3213 C 1.00439 0.60713 0.95824 0.0
C3214 C 0.0173 0.59632 0.97352 0.0
C3215 C 0.03974 0.6066 0.98077 0.0
C3216 C 0.04922 0.62778 0.97254 0.0
H3217 H 0.30458 0.27235 0.59341 0.0
H3218 H 0.2454 0.21757 0.5889 0.0
H3219 H 0.24344 0.23084 0.6297 0.0
H3220 H 0.32754 0.26859 0.65258 0.0
H3221 H 0.33814 0.30008 0.66164 0.0
H3222 H 0.33487 0.28799 0.63107 0.0
H3223 H 0.31101 0.31703 0.61888 0.0
H3224 H 0.31441 0.32936 0.64943 0.0
H3225 H 0.28756 0.31778 0.63232 0.0
H3226 H 0.24823 0.24668 0.67053 0.0
H3227 H 0.25801 0.26752 0.71074 0.0
H3228 H 0.31411 0.31394 0.69208 0.0
C3229 C 0.29104 0.26357 0.60096 0.0
C3230 C 0.2752 0.24375 0.58791 0.0
C3231 C 0.25785 0.23256 0.59851 0.0
C3232 C 0.25653 0.23999 0.62173 0.0
C3233 C 0.2726 0.25885 0.63438 0.0
C3234 C 0.2894 0.27086 0.62454 0.0
C3235 C 0.3045 0.29044 0.64291 0.0
C3236 C 0.32764 0.28653 0.64731 0.0
C3237 C 0.30436 0.31512 0.63544 0.0
C3238 C 0.29375 0.28685 0.6645 0.0
C3239 C 0.27532 0.26854 0.65881 0.0
C3240 C 0.26247 0.26127 0.67523 0.0
C3241 C 0.26823 0.27331 0.69812 0.0
C3242 C 0.28676 0.29255 0.70467 0.0
C3243 C 0.2999 0.29926 0.68765 0.0
H3244 H 0.66024 0.579 0.27347 0.0
H3245 H 0.61666 0.60331 0.31529 0.0
H3246 H 0.58739 0.59353 0.28019 0.0
H3247 H 0.64552 0.60252 0.22396 0.0
H3248 H 0.64738 0.57814 0.20322 0.0
H3249 H 0.6633 0.58341 0.23236 0.0
H3250 H 0.64659 0.54001 0.23855 0.0
H3251 H 0.6303 0.5348 0.20939 0.0
H3252 H 0.61752 0.52963 0.2347 0.0
H3253 H 0.56573 0.58808 0.23992 0.0
H3254 H 0.55381 0.58857 0.19733 0.0
H3255 H 0.61025 0.56438 0.18237 0.0
C3256 C 0.64439 0.58183 0.27525 0.0
C3257 C 0.64051 0.59189 0.2968 0.0
C3258 C 0.61972 0.59544 0.29876 0.0
C3259 C 0.60303 0.58979 0.27904 0.0
C3260 C 0.60739 0.58 0.25788 0.0
C3261 C 0.62751 0.5758 0.25594 0.0
C3262 C 0.62872 0.5673 0.23083 0.0
C3263 C 0.64731 0.58384 0.22209 0.0
C3264 C 0.63091 0.54139 0.22823 0.0
C3265 C 0.60672 0.56911 0.21868 0.0
C3266 C 0.59441 0.57592 0.23459 0.0
C3267 C 0.57481 0.58198 0.22727 0.0
C3268 C 0.56811 0.58212 0.2031 0.0
C3269 C 0.58115 0.57638 0.18684 0.0
C3270 C 0.59998 0.56857 0.19461 0.0
H3271 H 0.3123 0.8808 0.9631 0.0
H3272 H 0.27984 0.93567 0.94143 0.0
H3273 H 0.27494 0.91868 0.90012 0.0
H3274 H 0.34057 0.87824 0.91401 0.0
H3275 H 0.33708 0.84638 0.91031 0.0
H3276 H 0.33782 0.86211 0.93895 0.0
H3277 H 0.30047 0.83524 0.94127 0.0
H3278 H 0.29969 0.81938 0.91266 0.0
H3279 H 0.27776 0.8329 0.91784 0.0
H3280 H 0.27438 0.89748 0.86064 0.0
H3281 H 0.27687 0.87137 0.82534 0.0
H3282 H 0.30886 0.82904 0.87047 0.0
C3283 C 0.30392 0.88901 0.94969 0.0
C3284 C 0.29657 0.90979 0.95592 0.0
C3285 C 0.28583 0.91994 0.93753 0.0
C3286 C 0.2829 0.9104 0.91379 0.0
C3287 C 0.2906 0.89039 0.90819 0.0
C3288 C 0.30073 0.87957 0.92549 0.0
C3289 C 0.30746 0.85817 0.9141 0.0
C3290 C 0.33221 0.86143 0.91968 0.0
C3291 C 0.29564 0.83505 0.92194 0.0
C3292 C 0.29969 0.85898 0.88792 0.0
C3293 C 0.29002 0.87778 0.88503 0.0
C3294 C 0.28179 0.88257 0.86266 0.0
C3295 C 0.28329 0.86765 0.84267 0.0
C3296 C 0.29293 0.84808 0.84502 0.0
C3297 C 0.30129 0.8438 0.86804 0.0
H3298 H 0.99508 0.6738 0.74596 0.0
H3299 H 0.94908 0.6149 0.76435 0.0
H3300 H 0.95883 0.58713 0.73516 0.0
H3301 H 0.98321 0.65106 0.68228 0.0
H3302 H 0.01086 0.66217 0.67872 0.0
H3303 H 0.99977 0.67746 0.70072 0.0
H3304 H 0.03132 0.67367 0.73299 0.0
H3305 H 0.04236 0.65824 0.71113 0.0
H3306 H 0.03604 0.64463 0.73675 0.0
H3307 H 0.97523 0.56548 0.70567 0.0
H3308 H 0.99547 0.55225 0.67549 0.0
H3309 H 0.02907 0.62546 0.67536 0.0
C3310 C 0.98698 0.6551 0.74359 0.0
C3311 C 0.97141 0.64639 0.75722 0.0
C3312 C 0.96096 0.62186 0.75379 0.0
C3313 C 0.96642 0.60595 0.73736 0.0
C3314 C 0.98198 0.61503 0.72423 0.0
C3315 C 0.99181 0.63907 0.72681 0.0
C3316 C 0.00763 0.64427 0.71012 0.0
C3317 C 0.9999 0.65965 0.69188 0.0
C3318 C 0.0307 0.65588 0.72357 0.0
C3319 C 0.00595 0.61933 0.69867 0.0
C3320 C 0.99095 0.60266 0.70685 0.0
C3321 C 0.98688 0.57836 0.69894 0.0
C3322 C 0.99838 0.57099 0.68199 0.0
C3323 C 0.01362 0.58799 0.67353 0.0
C3324 C 0.01744 0.61231 0.68187 0.0
H3325 H 0.31072 0.25212 0.43353 0.0
H3326 H 0.25995 0.28433 0.45334 0.0
H3327 H 0.25966 0.30487 0.41778 0.0
H3328 H 0.33999 0.30483 0.4131 0.0
H3329 H 0.34817 0.28843 0.38939 0.0
H3330 H 0.34359 0.27517 0.41565 0.0
H3331 H 0.31591 0.23915 0.38997 0.0
H3332 H 0.32031 0.25247 0.36368 0.0
H3333 H 0.29328 0.24421 0.37012 0.0
H3334 H 0.26331 0.32005 0.37855 0.0
H3335 H 0.27482 0.33396 0.34219 0.0
H3336 H 0.32611 0.29606 0.35009 0.0
C3337 C 0.29955 0.2635 0.43034 0.0
C3338 C 0.28522 0.26649 0.44617 0.0
C3339 C 0.27108 0.2818 0.44154 0.0
C3340 C 0.27071 0.29343 0.42128 0.0
C3341 C 0.28491 0.29003 0.40596 0.0
C3342 C 0.29941 0.27584 0.41049 0.0
C3343 C 0.31389 0.27646 0.39192 0.0
C3344 C 0.33783 0.28685 0.40319 0.0
C3345 C 0.31065 0.25159 0.37812 0.0
C3346 C 0.30524 0.29313 0.37629 0.0
C3347 C 0.28817 0.30031 0.3844 0.0
C3348 C 0.27685 0.31481 0.37226 0.0
C3349 C 0.28341 0.32256 0.3516 0.0
C3350 C 0.30144 0.31629 0.34362 0.0
C3351 C 0.31242 0.30132 0.35607 0.0
H3352 H 0.34786 0.68479 0.50297 0.0
H3353 H 0.32605 0.64492 0.55835 0.0
H3354 H 0.35399 0.62276 0.55626 0.0
H3355 H 0.36056 0.63618 0.46878 0.0
H3356 H 0.38491 0.65349 0.46127 0.0
H3357 H 0.36341 0.6675 0.46691 0.0
H3358 H 0.39041 0.69836 0.49914 0.0
H3359 H 0.41199 0.68444 0.49349 0.0
H3360 H 0.4061 0.68812 0.52293 0.0
H3361 H 0.38248 0.60364 0.54848 0.0
H3362 H 0.41258 0.58885 0.53553 0.0
H3363 H 0.41832 0.63989 0.48539 0.0
C3364 C 0.34916 0.67158 0.51479 0.0
C3365 C 0.33451 0.66671 0.53079 0.0
C3366 C 0.3368 0.64912 0.54584 0.0
C3367 C 0.35271 0.63632 0.54485 0.0
C3368 C 0.36658 0.64121 0.52885 0.0
C3369 C 0.36527 0.65846 0.51415 0.0
C3370 C 0.3826 0.65965 0.49864 0.0
C3371 C 0.37225 0.65386 0.47234 0.0
C3372 C 0.39873 0.6841 0.50386 0.0
C3373 C 0.39339 0.64016 0.50685 0.0
C3374 C 0.38374 0.62995 0.52435 0.0
C3375 C 0.39031 0.61151 0.53487 0.0
C3376 C 0.40735 0.60321 0.52742 0.0
C3377 C 0.41763 0.61326 0.50961 0.0
C3378 C 0.41065 0.63201 0.49911 0.0
H3379 H 0.90707 0.98902 0.57584 0.0
H3380 H 0.88161 0.97912 0.50081 0.0
H3381 H 0.91778 0.9978 0.49305 0.0
H3382 H 0.93995 0.04537 0.57873 0.0
H3383 H 0.96248 0.04158 0.59961 0.0
H3384 H 0.93558 0.02409 0.59932 0.0
H3385 H 0.94902 0.9853 0.59365 0.0
H3386 H 0.97607 1.00273 0.59415 0.0
H3387 H 0.96291 0.98027 0.56948 0.0
H3388 H 0.95557 0.02147 0.49353 0.0
H3389 H 0.9924 0.048 0.50251 0.0
H3390 H 0.99413 0.04341 0.57707 0.0
C3391 C 0.9094 0.99003 0.55777 0.0
C3392 C 0.89164 0.98214 0.53884 0.0
C3393 C 0.89509 0.98464 0.51549 0.0
C3394 C 0.91559 0.99529 0.51091 0.0
C3395 C 0.93268 1.00348 0.52989 0.0
C3396 C 0.92992 1.00081 0.55286 0.0
C3397 C 0.95073 0.01277 0.57008 0.0
C3398 C 0.94694 0.0321 0.58798 0.0
C3399 C 0.96024 0.99416 0.58258 0.0
C3400 C 0.96509 0.02352 0.55333 0.0
C3401 C 0.9545 0.01749 0.53017 0.0
C3402 C 0.96418 0.0259 0.51158 0.0
C3403 C 0.98521 0.04081 0.51678 0.0
C3404 C 0.99635 0.04735 0.54036 0.0
C3405 C 0.98607 0.03855 0.55882 0.0
H3406 H 0.88514 0.12696 0.20613 0.0
H3407 H 0.86339 0.07073 0.24723 0.0
H3408 H 0.85254 0.09942 0.27469 0.0
H3409 H 0.90278 0.1775 0.25526 0.0
H3410 H 0.89191 0.19744 0.23741 0.0
H3411 H 0.90211 0.17392 0.22381 0.0
H3412 H 0.86519 0.15795 0.19532 0.0
H3413 H 0.85519 0.18167 0.2085 0.0
H3414 H 0.84062 0.15121 0.20743 0.0
H3415 H 0.84155 0.13271 0.29547 0.0
H3416 H 0.82449 0.166 0.30375 0.0
H3417 H 0.85011 0.19927 0.24658 0.0
C3418 C 0.87831 0.1209 0.22112 0.0
C3419 C 0.87495 0.09688 0.22478 0.0
C3420 C 0.86575 0.08916 0.24419 0.0
C3421 C 0.85995 0.10536 0.26004 0.0
C3422 C 0.86333 0.12903 0.25596 0.0
C3423 C 0.87189 0.1367 0.23671 0.0
C3424 C 0.87046 0.16196 0.23407 0.0
C3425 C 0.89317 0.17869 0.23787 0.0
C3426 C 0.85706 0.16326 0.20992 0.0
C3427 C 0.8588 0.16685 0.25416 0.0
C3428 C 0.85568 0.14801 0.26716 0.0
C3429 C 0.84396 0.14765 0.28553 0.0
C3430 C 0.83418 0.1665 0.28996 0.0
C3431 C 0.83573 0.18502 0.27561 0.0
C3432 C 0.84895 0.18562 0.25816 0.0
H3433 H 0.70064 0.17048 0.98535 0.0
H3434 H 0.73617 0.17763 0.05672 0.0
H3435 H 0.70459 0.15137 0.06811 0.0
H3436 H 0.64874 0.17064 0.99963 0.0
H3437 H 0.63371 0.14827 0.97559 0.0
H3438 H 0.65934 0.16682 0.97273 0.0
H3439 H 0.67356 0.12915 0.96296 0.0
H3440 H 0.64795 0.11054 0.96594 0.0
H3441 H 0.67279 0.10736 0.98322 0.0
H3442 H 0.66939 0.12586 0.07212 0.0
H3443 H 0.63186 0.10331 0.06935 0.0
H3444 H 0.6183 0.1118 0.99503 0.0
C3445 C 0.70163 0.16638 0.00331 0.0
C3446 C 0.72061 0.17596 0.0203 0.0
C3447 C 0.72165 0.17031 0.0436 0.0
C3448 C 0.70387 0.15541 0.05016 0.0
C3449 C 0.68534 0.1461 0.03306 0.0
C3450 C 0.68405 0.15124 0.01009 0.0
C3451 C 0.662 0.13904 0.99538 0.0
C3452 C 0.65026 0.15729 0.98525 0.0
C3453 C 0.66421 0.12042 0.97571 0.0
C3454 C 0.65085 0.12714 0.01394 0.0
C3455 C 0.66481 0.13116 0.0354 0.0
C3456 C 0.65832 0.12246 0.05539 0.0
C3457 C 0.63688 0.10961 0.05357 0.0
C3458 C 0.62198 0.10571 0.03195 0.0
C3459 C 0.62925 0.11435 0.01178 0.0
H3460 H 0.20344 0.43734 0.23368 0.0
H3461 H 0.16644 0.42281 0.28965 0.0
H3462 H 0.19594 0.40719 0.31071 0.0
H3463 H 0.22402 0.38417 0.23424 0.0
H3464 H 0.24955 0.39875 0.22704 0.0
H3465 H 0.22545 0.40875 0.21724 0.0
H3466 H 0.24527 0.45135 0.23771 0.0
H3467 H 0.2691 0.4411 0.24834 0.0
H3468 H 0.25623 0.45594 0.26889 0.0
H3469 H 0.22892 0.39273 0.32499 0.0
H3470 H 0.26017 0.37401 0.32823 0.0
H3471 H 0.276 0.39946 0.26361 0.0
C3472 C 0.20148 0.43066 0.25028 0.0
C3473 C 0.1828 0.43121 0.26016 0.0
C3474 C 0.18061 0.42222 0.28176 0.0
C3475 C 0.19738 0.4137 0.29396 0.0
C3476 C 0.21599 0.41426 0.28414 0.0
C3477 C 0.2179 0.42198 0.26253 0.0
C3478 C 0.23883 0.4192 0.25498 0.0
C3479 C 0.23419 0.40167 0.23203 0.0
C3480 C 0.2532 0.44335 0.25233 0.0
C3481 C 0.2486 0.4089 0.27589 0.0
C3482 C 0.23524 0.40635 0.29261 0.0
C3483 C 0.23974 0.39503 0.31231 0.0
C3484 C 0.25763 0.38477 0.31421 0.0
C3485 C 0.27074 0.38616 0.29661 0.0
C3486 C 0.2668 0.39929 0.27786 0.0
H3487 H 0.2469 0.45451 0.06604 0.0
H3488 H 0.28059 0.47943 0.0104 0.0
H3489 H 0.25171 0.49974 0.99699 0.0
H3490 H 0.19123 0.44602 0.03341 0.0
H3491 H 0.18122 0.45701 0.05871 0.0
H3492 H 0.20339 0.44246 0.0627 0.0
H3493 H 0.22712 0.47948 0.09082 0.0
H3494 H 0.20495 0.49398 0.08701 0.0
H3495 H 0.23095 0.50829 0.08071 0.0
H3496 H 0.21985 0.51814 0.99025 0.0
H3497 H 0.18892 0.53649 0.99265 0.0
H3498 H 0.17687 0.50209 0.0544 0.0
C3499 C 0.24798 0.46407 0.0509 0.0
C3500 C 0.26587 0.46546 0.03916 0.0
C3501 C 0.26704 0.47833 0.01965 0.0
C3502 C 0.25064 0.48975 0.01182 0.0
C3503 C 0.23326 0.48829 0.02385 0.0
C3504 C 0.23188 0.47597 0.0431 0.0
C3505 C 0.21229 0.47875 0.05391 0.0
C3506 C 0.19607 0.45462 0.05207 0.0
C3507 C 0.21925 0.49085 0.07964 0.0
C3508 C 0.20314 0.49485 0.03799 0.0
C3509 C 0.21528 0.49975 0.02052 0.0
C3510 C 0.21028 0.51451 0.00393 0.0
C3511 C 0.19273 0.52499 0.00556 0.0
C3512 C 0.1805 0.52104 0.02388 0.0
C3513 C 0.18564 0.50534 0.04001 0.0
H3514 H 0.85723 0.95714 0.17745 0.0
H3515 H 0.9165 0.97251 0.22936 0.0
H3516 H 0.89916 0.943 0.2528 0.0
H3517 H 0.81951 0.94841 0.21357 0.0
H3518 H 0.80088 0.9227 0.19605 0.0
H3519 H 0.8182 0.94356 0.18204 0.0
H3520 H 0.83364 0.90959 0.16397 0.0
H3521 H 0.81603 0.88854 0.17764 0.0
H3522 H 0.84485 0.89083 0.18308 0.0
H3523 H 0.87385 0.91726 0.27341 0.0
H3524 H 0.84405 0.89037 0.28676 0.0
H3525 H 0.80241 0.88706 0.21932 0.0
C3526 C 0.86667 0.95364 0.19336 0.0
C3527 C 0.88816 0.96695 0.20169 0.0
C3528 C 0.90009 0.96226 0.22267 0.0
C3529 C 0.89035 0.94565 0.23613 0.0
C3530 C 0.86896 0.93325 0.22783 0.0
C3531 C 0.85749 0.93629 0.20651 0.0
C3532 C 0.83482 0.92023 0.20162 0.0
C3533 C 0.81733 0.9346 0.19813 0.0
C3534 C 0.83218 0.90117 0.18031 0.0
C3535 C 0.83487 0.90913 0.22428 0.0
C3536 C 0.85478 0.91687 0.2391 0.0
C3537 C 0.85841 0.91045 0.26169 0.0
C3538 C 0.84139 0.8952 0.2691 0.0
C3539 C 0.82116 0.88624 0.25385 0.0
C3540 C 0.81782 0.89344 0.23121 0.0
H3541 H 0.66711 0.07779 0.78324 0.0
H3542 H 0.68035 0.04531 0.71802 0.0
H3543 H 0.71236 0.07813 0.72003 0.0
H3544 H 0.68125 0.13757 0.77203 0.0
H3545 H 0.6941 0.14979 0.80195 0.0
H3546 H 0.67299 0.12285 0.79638 0.0
H3547 H 0.69903 0.10141 0.81993 0.0
H3548 H 0.72036 0.12827 0.82518 0.0
H3549 H 0.72483 0.10103 0.81136 0.0
H3550 H 0.741 0.11399 0.72732 0.0
H3551 H 0.76335 0.15467 0.73719 0.0
H3552 H 0.7333 0.16488 0.79865 0.0
C3553 C 0.6769 0.07778 0.76955 0.0
C3554 C 0.67167 0.05927 0.75055 0.0
C3555 C 0.6845 0.05947 0.73276 0.0
C3556 C 0.7027 0.07786 0.73383 0.0
C3557 C 0.70788 0.09568 0.75296 0.0
C3558 C 0.69539 0.09603 0.77045 0.0
C3559 C 0.70422 0.11821 0.78828 0.0
C3560 C 0.68712 0.13298 0.78972 0.0
C3561 C 0.7126 0.11184 0.81263 0.0
C3562 C 0.72282 0.13064 0.77728 0.0
C3563 C 0.72489 0.11691 0.75729 0.0
C3564 C 0.73992 0.12484 0.74318 0.0
C3565 C 0.75272 0.14793 0.7491 0.0
C3566 C 0.75026 0.1628 0.76889 0.0
C3567 C 0.73562 0.15376 0.78358 0.0
loop_
_geom_bond_atom_site_label_1
_geom_bond_atom_site_label_2
_geom_bond_distance
_geom_bond_site_symmetry_2
_ccdc_geom_bond_type
C0 O1 1.306 . S
C0 O3 1.160 . S
O1 C0 1.306 . S
O1 Cd2 2.228 1_655 S
Cd2 O1 2.228 1_455 S
Cd2 O6 2.273 . S
Cd2 O10 2.277 . S
O3 C0 1.160 . S
O3 Cd4 2.203 1_655 S
Cd4 O3 2.203 1_455 S
Cd4 O6 2.411 . S
Cd4 O7 2.333 . S
Cd4 O8 2.352 . S
Cd4 O12 2.277 . S
Cd4 O13 2.356 . S
C5 O10 1.209 . S
C5 O12 1.226 . S
O6 Cd2 2.273 . S
O6 Cd4 2.411 . S
O6 C9 1.320 . S
O7 Cd4 2.333 . S
O7 C9 1.214 . S
O8 Cd4 2.352 . S
O8 C11 1.258 . S
C9 O6 1.320 . S
C9 O7 1.214 . S
O10 Cd2 2.277 . S
O10 C5 1.209 . S
C11 O8 1.258 . S
C11 O13 1.282 . S
O12 Cd4 2.277 . S
O12 C5 1.226 . S
O13 Cd4 2.356 . S
O13 C11 1.282 . S
C14 O15 1.306 . S
C14 O17 1.160 . S
O15 C14 1.306 . S
O15 Cd16 2.228 . S
Cd16 O15 2.228 . S
Cd16 O20 2.273 . S
Cd16 O24 2.277 . S
O17 C14 1.160 . S
O17 Cd18 2.203 . S
Cd18 O17 2.203 . S
Cd18 O20 2.411 . S
Cd18 O21 2.333 . S
Cd18 O22 2.352 . S
Cd18 O26 2.277 . S
Cd18 O27 2.356 . S
C19 O24 1.209 . S
C19 O26 1.226 . S
O20 Cd16 2.273 . S
O20 Cd18 2.411 . S
O20 C23 1.320 . S
O21 Cd18 2.333 . S
O21 C23 1.214 . S
O22 Cd18 2.352 . S
O22 C25 1.258 . S
C23 O20 1.320 . S
C23 O21 1.214 . S
O24 Cd16 2.277 . S
O24 C19 1.209 . S
C25 O22 1.258 . S
C25 O27 1.282 . S
O26 Cd18 2.277 . S
O26 C19 1.226 . S
O27 Cd18 2.356 . S
O27 C25 1.282 . S
C28 O29 1.306 . S
C28 O31 1.160 . S
O29 C28 1.306 . S
O29 Cd30 2.228 . S
Cd30 O29 2.228 . S
Cd30 O34 2.273 . S
Cd30 O38 2.277 . S
O31 C28 1.160 . S
O31 Cd32 2.203 . S
Cd32 O31 2.203 . S
Cd32 O34 2.411 . S
Cd32 O35 2.333 . S
Cd32 O36 2.352 . S
Cd32 O40 2.277 . S
Cd32 O41 2.356 . S
C33 O38 1.209 . S
C33 O40 1.226 . S
O34 Cd30 2.273 . S
O34 Cd32 2.411 . S
O34 C37 1.320 . S
O35 Cd32 2.333 . S
O35 C37 1.214 . S
O36 Cd32 2.352 . S
O36 C39 1.258 . S
C37 O34 1.320 . S
C37 O35 1.214 . S
O38 Cd30 2.277 . S
O38 C33 1.209 . S
C39 O36 1.258 . S
C39 O41 1.282 . S
O40 Cd32 2.277 . S
O40 C33 1.226 . S
O41 Cd32 2.356 . S
O41 C39 1.282 . S
C42 O43 1.306 . S
C42 O45 1.160 . S
O43 C42 1.306 . S
O43 Cd44 2.228 . S
Cd44 O43 2.228 . S
Cd44 O48 2.273 . S
Cd44 O52 2.277 . S
O45 C42 1.160 . S
O45 Cd46 2.203 . S
Cd46 O45 2.203 . S
Cd46 O48 2.411 . S
Cd46 O49 2.333 . S
Cd46 O50 2.352 . S
Cd46 O54 2.277 . S
Cd46 O55 2.356 . S
C47 O52 1.209 . S
C47 O54 1.226 . S
O48 Cd44 2.273 . S
O48 Cd46 2.411 . S
O48 C51 1.320 . S
O49 Cd46 2.333 . S
O49 C51 1.214 . S
O50 Cd46 2.352 . S
O50 C53 1.258 . S
C51 O48 1.320 . S
C51 O49 1.214 . S
O52 Cd44 2.277 . S
O52 C47 1.209 . S
C53 O50 1.258 . S
C53 O55 1.282 . S
O54 Cd46 2.277 . S
O54 C47 1.226 . S
O55 Cd46 2.356 . S
O55 C53 1.282 . S
C56 O57 1.306 . S
C56 O59 1.160 . S
O57 C56 1.306 . S
O57 Cd58 2.228 . S
Cd58 O57 2.228 . S
Cd58 O62 2.273 . S
Cd58 O66 2.277 . S
O59 C56 1.160 . S
O59 Cd60 2.203 . S
Cd60 O59 2.203 . S
Cd60 O62 2.411 . S
Cd60 O63 2.333 . S
Cd60 O64 2.352 . S
Cd60 O68 2.277 . S
Cd60 O69 2.356 . S
C61 O66 1.209 . S
C61 O68 1.226 . S
O62 Cd58 2.273 . S
O62 Cd60 2.411 . S
O62 C65 1.320 . S
O63 Cd60 2.333 . S
O63 C65 1.214 . S
O64 Cd60 2.352 . S
O64 C67 1.258 . S
C65 O62 1.320 . S
C65 O63 1.214 . S
O66 Cd58 2.277 . S
O66 C61 1.209 . S
C67 O64 1.258 . S
C67 O69 1.282 . S
O68 Cd60 2.277 . S
O68 C61 1.226 . S
O69 Cd60 2.356 . S
O69 C67 1.282 . S
C70 O71 1.306 . S
C70 O73 1.160 . S
O71 C70 1.306 . S
O71 Cd72 2.228 . S
Cd72 O71 2.228 . S
Cd72 O76 2.273 . S
Cd72 O80 2.277 . S
O73 C70 1.160 . S
O73 Cd74 2.203 . S
Cd74 O73 2.203 . S
Cd74 O76 2.411 . S
Cd74 O77 2.333 . S
Cd74 O78 2.352 . S
Cd74 O82 2.277 . S
Cd74 O83 2.356 . S
C75 O80 1.209 . S
C75 O82 1.226 . S
O76 Cd72 2.273 . S
O76 Cd74 2.411 . S
O76 C79 1.320 . S
O77 Cd74 2.333 . S
O77 C79 1.214 . S
O78 Cd74 2.352 . S
O78 C81 1.258 . S
C79 O76 1.320 . S
C79 O77 1.214 . S
O80 Cd72 2.277 . S
O80 C75 1.209 . S
C81 O78 1.258 . S
C81 O83 1.282 . S
O82 Cd74 2.277 . S
O82 C75 1.226 . S
O83 Cd74 2.356 . S
O83 C81 1.282 . S
C84 O85 1.306 . S
C84 O87 1.160 . S
O85 C84 1.306 . S
O85 Cd86 2.228 . S
Cd86 O85 2.228 . S
Cd86 O90 2.273 . S
Cd86 O94 2.277 . S
O87 C84 1.160 . S
O87 Cd88 2.203 . S
Cd88 O87 2.203 . S
Cd88 O90 2.411 . S
Cd88 O91 2.333 . S
Cd88 O92 2.352 . S
Cd88 O96 2.277 . S
Cd88 O97 2.356 . S
C89 O94 1.209 . S
C89 O96 1.226 . S
O90 Cd86 2.273 . S
O90 Cd88 2.411 . S
O90 C93 1.320 . S
O91 Cd88 2.333 . S
O91 C93 1.214 . S
O92 Cd88 2.352 . S
O92 C95 1.258 . S
C93 O90 1.320 . S
C93 O91 1.214 . S
O94 Cd86 2.277 . S
O94 C89 1.209 . S
C95 O92 1.258 . S
C95 O97 1.282 . S
O96 Cd88 2.277 . S
O96 C89 1.226 . S
O97 Cd88 2.356 . S
O97 C95 1.282 . S
C98 O99 1.306 . S
C98 O101 1.160 . S
O99 C98 1.306 . S
O99 Cd100 2.228 1_655 S
Cd100 O99 2.228 1_455 S
Cd100 O104 2.273 . S
Cd100 O108 2.277 . S
O101 C98 1.160 . S
O101 Cd102 2.203 1_655 S
Cd102 O101 2.203 1_455 S
Cd102 O104 2.411 . S
Cd102 O105 2.333 . S
Cd102 O106 2.352 . S
Cd102 O110 2.277 . S
Cd102 O111 2.356 . S
C103 O108 1.209 . S
C103 O110 1.226 . S
O104 Cd100 2.273 . S
O104 Cd102 2.411 . S
O104 C107 1.320 . S
O105 Cd102 2.333 . S
O105 C107 1.214 . S
O106 Cd102 2.352 . S
O106 C109 1.258 . S
C107 O104 1.320 . S
C107 O105 1.214 . S
O108 Cd100 2.277 . S
O108 C103 1.209 . S
C109 O106 1.258 . S
C109 O111 1.282 . S
O110 Cd102 2.277 . S
O110 C103 1.226 . S
O111 Cd102 2.356 . S
O111 C109 1.282 . S
C112 O113 1.306 . S
C112 O115 1.160 . S
O113 C112 1.306 . S
O113 Cd114 2.228 . S
Cd114 O113 2.228 . S
Cd114 O118 2.273 . S
Cd114 O122 2.277 . S
O115 C112 1.160 . S
O115 Cd116 2.203 . S
Cd116 O115 2.203 . S
Cd116 O118 2.411 . S
Cd116 O119 2.333 . S
Cd116 O120 2.352 . S
Cd116 O124 2.277 . S
Cd116 O125 2.356 . S
C117 O122 1.209 . S
C117 O124 1.226 . S
O118 Cd114 2.273 . S
O118 Cd116 2.411 . S
O118 C121 1.320 . S
O119 Cd116 2.333 . S
O119 C121 1.214 . S
O120 Cd116 2.352 . S
O120 C123 1.258 . S
C121 O118 1.320 . S
C121 O119 1.214 . S
O122 Cd114 2.277 . S
O122 C117 1.209 . S
C123 O120 1.258 . S
C123 O125 1.282 . S
O124 Cd116 2.277 . S
O124 C117 1.226 . S
O125 Cd116 2.356 . S
O125 C123 1.282 . S
C126 O127 1.306 . S
C126 O129 1.160 . S
O127 C126 1.306 . S
O127 Cd128 2.228 . S
Cd128 O127 2.228 . S
Cd128 O132 2.273 . S
Cd128 O136 2.277 . S
O129 C126 1.160 . S
O129 Cd130 2.203 . S
Cd130 O129 2.203 . S
Cd130 O132 2.411 . S
Cd130 O133 2.333 . S
Cd130 O134 2.352 . S
Cd130 O138 2.277 . S
Cd130 O139 2.356 . S
C131 O136 1.209 . S
C131 O138 1.226 . S
O132 Cd128 2.273 . S
O132 Cd130 2.411 . S
O132 C135 1.320 . S
O133 Cd130 2.333 . S
O133 C135 1.214 . S
O134 Cd130 2.352 . S
O134 C137 1.258 . S
C135 O132 1.320 . S
C135 O133 1.214 . S
O136 Cd128 2.277 . S
O136 C131 1.209 . S
C137 O134 1.258 . S
C137 O139 1.282 . S
O138 Cd130 2.277 . S
O138 C131 1.226 . S
O139 Cd130 2.356 . S
O139 C137 1.282 . S
C140 O141 1.306 . S
C140 O143 1.160 . S
O141 C140 1.306 . S
O141 Cd142 2.228 . S
Cd142 O141 2.228 . S
Cd142 O146 2.273 . S
Cd142 O150 2.277 . S
O143 C140 1.160 . S
O143 Cd144 2.203 . S
Cd144 O143 2.203 . S
Cd144 O146 2.411 . S
Cd144 O147 2.333 . S
Cd144 O148 2.352 . S
Cd144 O152 2.277 . S
Cd144 O153 2.356 . S
C145 O150 1.209 . S
C145 O152 1.226 . S
O146 Cd142 2.273 . S
O146 Cd144 2.411 . S
O146 C149 1.320 . S
O147 Cd144 2.333 . S
O147 C149 1.214 . S
O148 Cd144 2.352 . S
O148 C151 1.258 . S
C149 O146 1.320 . S
C149 O147 1.214 . S
O150 Cd142 2.277 . S
O150 C145 1.209 . S
C151 O148 1.258 . S
C151 O153 1.282 . S
O152 Cd144 2.277 . S
O152 C145 1.226 . S
O153 Cd144 2.356 . S
O153 C151 1.282 . S
C154 O155 1.306 . S
C154 O157 1.160 . S
O155 C154 1.306 . S
O155 Cd156 2.228 . S
Cd156 O155 2.228 . S
Cd156 O160 2.273 . S
Cd156 O164 2.277 . S
O157 C154 1.160 . S
O157 Cd158 2.203 . S
Cd158 O157 2.203 . S
Cd158 O160 2.411 . S
Cd158 O161 2.333 . S
Cd158 O162 2.352 . S
Cd158 O166 2.277 . S
Cd158 O167 2.356 . S
C159 O164 1.209 . S
C159 O166 1.226 . S
O160 Cd156 2.273 . S
O160 Cd158 2.411 . S
O160 C163 1.320 . S
O161 Cd158 2.333 . S
O161 C163 1.214 . S
O162 Cd158 2.352 . S
O162 C165 1.258 . S
C163 O160 1.320 . S
C163 O161 1.214 . S
O164 Cd156 2.277 . S
O164 C159 1.209 . S
C165 O162 1.258 . S
C165 O167 1.282 . S
O166 Cd158 2.277 . S
O166 C159 1.226 . S
O167 Cd158 2.356 . S
O167 C165 1.282 . S
C168 O169 1.306 . S
C168 O171 1.160 . S
O169 C168 1.306 . S
O169 Cd170 2.228 . S
Cd170 O169 2.228 . S
Cd170 O174 2.273 . S
Cd170 O178 2.277 1_554 S
O171 C168 1.160 . S
O171 Cd172 2.203 . S
Cd172 O171 2.203 . S
Cd172 O174 2.411 . S
Cd172 O175 2.333 . S
Cd172 O176 2.352 . S
Cd172 O180 2.277 . S
Cd172 O181 2.356 . S
C173 O178 1.209 . S
C173 O180 1.226 1_556 S
O174 Cd170 2.273 . S
O174 Cd172 2.411 . S
O174 C177 1.320 . S
O175 Cd172 2.333 . S
O175 C177 1.214 . S
O176 Cd172 2.352 . S
O176 C179 1.258 . S
C177 O174 1.320 . S
C177 O175 1.214 . S
O178 Cd170 2.277 1_556 S
O178 C173 1.209 . S
C179 O176 1.258 . S
C179 O181 1.282 . S
O180 Cd172 2.277 . S
O180 C173 1.226 1_554 S
O181 Cd172 2.356 . S
O181 C179 1.282 . S
C182 O183 1.306 . S
C182 O185 1.169 . S
O183 C182 1.306 . S
O183 Cd184 2.228 . S
Cd184 O183 2.228 . S
Cd184 O188 2.273 1_554 S
Cd184 O192 2.277 . S
O185 C182 1.169 . S
O185 Cd186 2.204 1_554 S
Cd186 O185 2.204 1_556 S
Cd186 O188 2.411 . S
Cd186 O189 2.333 . S
Cd186 O190 2.352 . S
Cd186 O194 2.277 1_556 S
Cd186 O195 2.356 . S
C187 O192 1.209 . S
C187 O194 1.226 . S
O188 Cd184 2.273 1_556 S
O188 Cd186 2.411 . S
O188 C191 1.320 . S
O189 Cd186 2.333 . S
O189 C191 1.214 . S
O190 Cd186 2.352 . S
O190 C193 1.258 . S
C191 O188 1.320 . S
C191 O189 1.214 . S
O192 Cd184 2.277 . S
O192 C187 1.209 . S
C193 O190 1.258 . S
C193 O195 1.282 . S
O194 Cd186 2.277 1_554 S
O194 C187 1.226 . S
O195 Cd186 2.356 . S
O195 C193 1.282 . S
C196 O197 1.306 . S
C196 O199 1.160 . S
O197 C196 1.306 . S
O197 Cd198 2.228 . S
Cd198 O197 2.228 . S
Cd198 O202 2.273 . S
Cd198 O206 2.277 . S
O199 C196 1.160 . S
O199 Cd200 2.203 . S
Cd200 O199 2.203 . S
Cd200 O202 2.411 . S
Cd200 O203 2.333 . S
Cd200 O204 2.352 . S
Cd200 O208 2.277 . S
Cd200 O209 2.356 . S
C201 O206 1.209 . S
C201 O208 1.226 . S
O202 Cd198 2.273 . S
O202 Cd200 2.411 . S
O202 C205 1.320 . S
O203 Cd200 2.333 . S
O203 C205 1.214 . S
O204 Cd200 2.352 . S
O204 C207 1.258 . S
C205 O202 1.320 . S
C205 O203 1.214 . S
O206 Cd198 2.277 . S
O206 C201 1.209 . S
C207 O204 1.258 . S
C207 O209 1.282 . S
O208 Cd200 2.277 . S
O208 C201 1.226 . S
O209 Cd200 2.356 . S
O209 C207 1.282 . S
C210 O211 1.306 . S
C210 O213 1.160 . S
O211 C210 1.306 . S
O211 Cd212 2.228 . S
Cd212 O211 2.228 . S
Cd212 O216 2.273 . S
Cd212 O220 2.277 . S
O213 C210 1.160 . S
O213 Cd214 2.203 . S
Cd214 O213 2.203 . S
Cd214 O216 2.411 . S
Cd214 O217 2.333 . S
Cd214 O218 2.352 . S
Cd214 O222 2.277 . S
Cd214 O223 2.356 . S
C215 O220 1.209 . S
C215 O222 1.226 . S
O216 Cd212 2.273 . S
O216 Cd214 2.411 . S
O216 C219 1.320 . S
O217 Cd214 2.333 . S
O217 C219 1.214 . S
O218 Cd214 2.352 . S
O218 C221 1.258 . S
C219 O216 1.320 . S
C219 O217 1.214 . S
O220 Cd212 2.277 . S
O220 C215 1.209 . S
C221 O218 1.258 . S
C221 O223 1.282 . S
O222 Cd214 2.277 . S
O222 C215 1.226 . S
O223 Cd214 2.356 . S
O223 C221 1.282 . S
C224 O225 1.306 . S
C224 O227 1.160 . S
O225 C224 1.306 . S
O225 Cd226 2.228 . S
Cd226 O225 2.228 . S
Cd226 O230 2.273 . S
Cd226 O234 2.274 1_545 S
O227 C224 1.160 . S
O227 Cd228 2.203 . S
Cd228 O227 2.203 . S
Cd228 O230 2.411 . S
Cd228 O231 2.333 . S
Cd228 O232 2.352 . S
Cd228 O236 2.277 . S
Cd228 O237 2.356 . S
C229 O234 1.209 . S
C229 O236 1.226 1_565 S
O230 Cd226 2.273 . S
O230 Cd228 2.411 . S
O230 C233 1.320 . S
O231 Cd228 2.333 . S
O231 C233 1.214 . S
O232 Cd228 2.352 . S
O232 C235 1.258 . S
C233 O230 1.320 . S
C233 O231 1.214 . S
O234 Cd226 2.274 1_565 S
O234 C229 1.209 . S
C235 O232 1.258 . S
C235 O237 1.282 . S
O236 Cd228 2.277 . S
O236 C229 1.226 1_545 S
O237 Cd228 2.356 . S
O237 C235 1.282 . S
C238 O239 1.306 . S
C238 O241 1.160 . S
O239 C238 1.306 . S
O239 Cd240 2.228 . S
Cd240 O239 2.228 . S
Cd240 O244 2.273 . S
Cd240 O248 2.277 . S
O241 C238 1.160 . S
O241 Cd242 2.203 . S
Cd242 O241 2.203 . S
Cd242 O244 2.411 . S
Cd242 O245 2.333 . S
Cd242 O246 2.352 . S
Cd242 O250 2.277 . S
Cd242 O251 2.356 . S
C243 O248 1.209 . S
C243 O250 1.226 . S
O244 Cd240 2.273 . S
O244 Cd242 2.411 . S
O244 C247 1.320 . S
O245 Cd242 2.333 . S
O245 C247 1.214 . S
O246 Cd242 2.352 . S
O246 C249 1.258 . S
C247 O244 1.320 . S
C247 O245 1.214 . S
O248 Cd240 2.277 . S
O248 C243 1.209 . S
C249 O246 1.258 . S
C249 O251 1.282 . S
O250 Cd242 2.277 . S
O250 C243 1.226 . S
O251 Cd242 2.356 . S
O251 C249 1.282 . S
C252 O253 1.306 . S
C252 O255 1.160 . S
O253 C252 1.306 . S
O253 Cd254 2.228 . S
Cd254 O253 2.228 . S
Cd254 O258 2.273 . S
Cd254 O262 2.277 . S
O255 C252 1.160 . S
O255 Cd256 2.203 . S
Cd256 O255 2.203 . S
Cd256 O258 2.411 . S
Cd256 O259 2.333 . S
Cd256 O260 2.352 . S
Cd256 O264 2.277 . S
Cd256 O265 2.356 . S
C257 O262 1.209 . S
C257 O264 1.226 . S
O258 Cd254 2.273 . S
O258 Cd256 2.411 . S
O258 C261 1.320 . S
O259 Cd256 2.333 . S
O259 C261 1.214 . S
O260 Cd256 2.352 . S
O260 C263 1.258 . S
C261 O258 1.320 . S
C261 O259 1.214 . S
O262 Cd254 2.277 . S
O262 C257 1.209 . S
C263 O260 1.258 . S
C263 O265 1.282 . S
O264 Cd256 2.277 . S
O264 C257 1.226 . S
O265 Cd256 2.356 . S
O265 C263 1.282 . S
C266 O267 1.306 . S
C266 O269 1.166 . S
O267 C266 1.306 . S
O267 Cd268 2.228 . S
Cd268 O267 2.228 . S
Cd268 O272 2.273 1_545 S
Cd268 O276 2.277 . S
O269 C266 1.166 . S
O269 Cd270 2.203 1_545 S
Cd270 O269 2.203 1_565 S
Cd270 O272 2.411 . S
Cd270 O273 2.333 . S
Cd270 O274 2.352 . S
Cd270 O278 2.277 1_565 S
Cd270 O279 2.356 . S
C271 O276 1.209 . S
C271 O278 1.226 . S
O272 Cd268 2.273 1_565 S
O272 Cd270 2.411 . S
O272 C275 1.320 . S
O273 Cd270 2.333 . S
O273 C275 1.214 . S
O274 Cd270 2.352 . S
O274 C277 1.258 . S
C275 O272 1.320 . S
C275 O273 1.214 . S
O276 Cd268 2.277 . S
O276 C271 1.209 . S
C277 O274 1.258 . S
C277 O279 1.282 . S
O278 Cd270 2.277 1_545 S
O278 C271 1.226 . S
O279 Cd270 2.356 . S
O279 C277 1.282 . S
C280 O281 1.306 . S
C280 O283 1.160 . S
O281 C280 1.306 . S
O281 Cd282 2.228 . S
Cd282 O281 2.228 . S
Cd282 O286 2.273 . S
Cd282 O290 2.277 . S
O283 C280 1.160 . S
O283 Cd284 2.203 . S
Cd284 O283 2.203 . S
Cd284 O286 2.411 . S
Cd284 O287 2.333 . S
Cd284 O288 2.352 1_554 S
Cd284 O292 2.277 . S
Cd284 O293 2.356 1_554 S
C285 O290 1.209 . S
C285 O292 1.226 . S
O286 Cd282 2.273 . S
O286 Cd284 2.411 . S
O286 C289 1.320 . S
O287 Cd284 2.333 . S
O287 C289 1.214 . S
O288 Cd284 2.352 1_556 S
O288 C291 1.258 . S
C289 O286 1.320 . S
C289 O287 1.214 . S
O290 Cd282 2.277 . S
O290 C285 1.209 . S
C291 O288 1.258 . S
C291 O293 1.282 . S
O292 Cd284 2.277 . S
O292 C285 1.226 . S
O293 Cd284 2.356 1_556 S
O293 C291 1.282 . S
C294 O295 1.306 . S
C294 O297 1.160 . S
O295 C294 1.306 . S
O295 Cd296 2.228 . S
Cd296 O295 2.228 . S
Cd296 O300 2.273 . S
Cd296 O304 2.277 . S
O297 C294 1.160 . S
O297 Cd298 2.203 . S
Cd298 O297 2.203 . S
Cd298 O300 2.411 . S
Cd298 O301 2.333 . S
Cd298 O302 2.352 . S
Cd298 O306 2.277 . S
Cd298 O307 2.356 . S
C299 O304 1.209 . S
C299 O306 1.226 . S
O300 Cd296 2.273 . S
O300 Cd298 2.411 . S
O300 C303 1.320 . S
O301 Cd298 2.333 . S
O301 C303 1.214 . S
O302 Cd298 2.352 . S
O302 C305 1.258 . S
C303 O300 1.320 . S
C303 O301 1.214 . S
O304 Cd296 2.277 . S
O304 C299 1.209 . S
C305 O302 1.258 . S
C305 O307 1.282 . S
O306 Cd298 2.277 . S
O306 C299 1.226 . S
O307 Cd298 2.356 . S
O307 C305 1.282 . S
C308 O309 1.306 . S
C308 O311 1.160 . S
O309 C308 1.306 . S
O309 Cd310 2.228 . S
Cd310 O309 2.228 . S
Cd310 O314 2.273 . S
Cd310 O318 2.277 . S
O311 C308 1.160 . S
O311 Cd312 2.203 . S
Cd312 O311 2.203 . S
Cd312 O314 2.411 . S
Cd312 O315 2.333 . S
Cd312 O316 2.352 . S
Cd312 O320 2.277 . S
Cd312 O321 2.356 . S
C313 O318 1.209 . S
C313 O320 1.226 . S
O314 Cd310 2.273 . S
O314 Cd312 2.411 . S
O314 C317 1.320 . S
O315 Cd312 2.333 . S
O315 C317 1.214 . S
O316 Cd312 2.352 . S
O316 C319 1.258 . S
C317 O314 1.320 . S
C317 O315 1.214 . S
O318 Cd310 2.277 . S
O318 C313 1.209 . S
C319 O316 1.258 . S
C319 O321 1.282 . S
O320 Cd312 2.277 . S
O320 C313 1.226 . S
O321 Cd312 2.356 . S
O321 C319 1.282 . S
C322 O323 1.306 . S
C322 O325 1.160 . S
O323 C322 1.306 . S
O323 Cd324 2.228 . S
Cd324 O323 2.228 . S
Cd324 O328 2.273 . S
Cd324 O332 2.277 . S
O325 C322 1.160 . S
O325 Cd326 2.203 . S
Cd326 O325 2.203 . S
Cd326 O328 2.411 . S
Cd326 O329 2.333 . S
Cd326 O330 2.352 . S
Cd326 O334 2.277 . S
Cd326 O335 2.356 . S
C327 O332 1.209 . S
C327 O334 1.226 . S
O328 Cd324 2.273 . S
O328 Cd326 2.411 . S
O328 C331 1.320 . S
O329 Cd326 2.333 . S
O329 C331 1.214 . S
O330 Cd326 2.352 . S
O330 C333 1.258 . S
C331 O328 1.320 . S
C331 O329 1.214 . S
O332 Cd324 2.277 . S
O332 C327 1.209 . S
C333 O330 1.258 . S
C333 O335 1.282 . S
O334 Cd326 2.277 . S
O334 C327 1.226 . S
O335 Cd326 2.356 . S
O335 C333 1.282 . S
Pr336 C338 2.880 1_454 S
Pr336 O356 2.562 1_455 S
Pr336 O357 2.490 1_454 S
Pr336 O358 2.695 . S
Pr336 O359 2.512 1_554 S
Pr336 O361 2.437 . S
Pr336 O364 2.436 . S
Pr336 O366 2.438 . S
Pr337 C347 2.880 . S
Pr337 O358 2.436 . S
Pr337 O360 2.438 . S
Pr337 O362 2.562 . S
Pr337 O363 2.490 . S
Pr337 O364 2.695 . S
Pr337 O365 2.512 . S
Pr337 O367 2.437 . S
C338 Pr336 2.880 1_656 S
C338 C339 1.491 . S
C338 O356 1.254 1_556 S
C338 O357 1.225 . S
C339 C338 1.491 . S
C339 C340 1.392 . S
C339 C344 1.331 1_556 S
C340 C339 1.392 . S
C340 C341 1.368 . S
C340 H368 0.929 . S
C341 C340 1.368 . S
C341 C342 1.386 . S
C341 H369 0.929 . S
C342 C341 1.386 . S
C342 C343 1.373 . S
C343 C342 1.373 . S
C343 C344 1.399 1_556 S
C343 H370 0.931 1_556 S
C344 C339 1.331 1_554 S
C344 C343 1.399 1_554 S
C344 H371 0.966 . S
C345 O358 1.270 1_556 S
C345 O359 1.248 . S
C346 O360 1.267 . S
C346 O361 1.278 . S
C347 Pr337 2.880 . S
C347 C348 1.491 . S
C347 O362 1.254 . S
C347 O363 1.225 . S
C348 C347 1.491 . S
C348 C349 1.392 . S
C348 C353 1.356 . S
C349 C348 1.392 . S
C349 C350 1.368 . S
C349 H372 0.929 . S
C350 C349 1.368 . S
C350 C351 1.386 . S
C350 H373 0.929 . S
C351 C350 1.386 . S
C351 C352 1.373 . S
C352 C351 1.373 . S
C352 C353 1.409 . S
C352 H374 0.931 . S
C353 C348 1.356 . S
C353 C352 1.409 . S
C353 H375 0.930 . S
C354 O364 1.270 . S
C354 O365 1.248 . S
C355 O366 1.267 . S
C355 O367 1.278 . S
O356 Pr336 2.562 1_655 S
O356 C338 1.254 1_554 S
O357 Pr336 2.490 1_656 S
O357 C338 1.225 . S
O358 Pr336 2.695 . S
O358 Pr337 2.436 . S
O358 C345 1.270 1_554 S
O359 Pr336 2.512 1_556 S
O359 C345 1.248 . S
O360 Pr337 2.438 . S
O360 C346 1.267 . S
O361 Pr336 2.437 . S
O361 C346 1.278 . S
O362 Pr337 2.562 . S
O362 C347 1.254 . S
O363 Pr337 2.490 . S
O363 C347 1.225 . S
O364 Pr336 2.436 . S
O364 Pr337 2.695 . S
O364 C354 1.270 . S
O365 Pr337 2.512 . S
O365 C354 1.248 . S
O366 Pr336 2.438 . S
O366 C355 1.267 . S
O367 Pr337 2.437 . S
O367 C355 1.278 . S
H368 C340 0.929 . S
H369 C341 0.929 . S
H370 C343 0.931 1_554 S
H371 C344 0.966 . S
H372 C349 0.929 . S
H373 C350 0.929 . S
H374 C352 0.931 . S
H375 C353 0.930 . S
Pr376 C378 2.880 . S
Pr376 O396 2.562 . S
Pr376 O397 2.490 . S
Pr376 O398 2.695 . S
Pr376 O399 2.512 . S
Pr376 O401 2.437 . S
Pr376 O404 2.436 . S
Pr376 O406 2.438 . S
Pr377 C387 2.880 . S
Pr377 O398 2.436 . S
Pr377 O400 2.438 . S
Pr377 O402 2.562 . S
Pr377 O403 2.490 . S
Pr377 O404 2.695 . S
Pr377 O405 2.512 . S
Pr377 O407 2.437 . S
C378 Pr376 2.880 . S
C378 C379 1.491 . S
C378 O396 1.254 . S
C378 O397 1.225 . S
C379 C378 1.491 . S
C379 C380 1.392 . S
C379 C384 1.356 . S
C380 C379 1.392 . S
C380 C381 1.368 . S
C380 H408 0.929 . S
C381 C380 1.368 . S
C381 C382 1.386 . S
C381 H409 0.929 . S
C382 C381 1.386 . S
C382 C383 1.373 . S
C383 C382 1.373 . S
C383 C384 1.409 . S
C383 H410 0.931 . S
C384 C379 1.356 . S
C384 C383 1.409 . S
C384 H411 0.930 . S
C385 O398 1.270 . S
C385 O399 1.248 . S
C386 O400 1.267 . S
C386 O401 1.278 . S
C387 Pr377 2.880 . S
C387 C388 1.491 . S
C387 O402 1.254 . S
C387 O403 1.225 . S
C388 C387 1.491 . S
C388 C389 1.392 . S
C388 C393 1.356 . S
C389 C388 1.392 . S
C389 C390 1.368 . S
C389 H412 0.929 . S
C390 C389 1.368 . S
C390 C391 1.386 . S
C390 H413 0.929 . S
C391 C390 1.386 . S
C391 C392 1.373 . S
C392 C391 1.373 . S
C392 C393 1.409 . S
C392 H414 0.931 . S
C393 C388 1.356 . S
C393 C392 1.409 . S
C393 H415 0.930 . S
C394 O404 1.270 . S
C394 O405 1.248 . S
C395 O406 1.267 . S
C395 O407 1.278 . S
O396 Pr376 2.562 . S
O396 C378 1.254 . S
O397 Pr376 2.490 . S
O397 C378 1.225 . S
O398 Pr376 2.695 . S
O398 Pr377 2.436 . S
O398 C385 1.270 . S
O399 Pr376 2.512 . S
O399 C385 1.248 . S
O400 Pr377 2.438 . S
O400 C386 1.267 . S
O401 Pr376 2.437 . S
O401 C386 1.278 . S
O402 Pr377 2.562 . S
O402 C387 1.254 . S
O403 Pr377 2.490 . S
O403 C387 1.225 . S
O404 Pr376 2.436 . S
O404 Pr377 2.695 . S
O404 C394 1.270 . S
O405 Pr377 2.512 . S
O405 C394 1.248 . S
O406 Pr376 2.438 . S
O406 C395 1.267 . S
O407 Pr377 2.437 . S
O407 C395 1.278 . S
H408 C380 0.929 . S
H409 C381 0.929 . S
H410 C383 0.931 . S
H411 C384 0.930 . S
H412 C389 0.929 . S
H413 C390 0.929 . S
H414 C392 0.931 . S
H415 C393 0.930 . S
Pr416 C418 2.880 . S
Pr416 O436 2.562 . S
Pr416 O437 2.490 . S
Pr416 O438 2.695 . S
Pr416 O439 2.512 . S
Pr416 O441 2.437 . S
Pr416 O444 2.436 . S
Pr416 O446 2.438 . S
Pr417 C427 2.880 . S
Pr417 O438 2.436 . S
Pr417 O440 2.438 . S
Pr417 O442 2.562 . S
Pr417 O443 2.490 . S
Pr417 O444 2.695 . S
Pr417 O445 2.512 . S
Pr417 O447 2.437 . S
C418 Pr416 2.880 . S
C418 C419 1.491 . S
C418 O436 1.254 . S
C418 O437 1.225 . S
C419 C418 1.491 . S
C419 C420 1.392 . S
C419 C424 1.356 . S
C420 C419 1.392 . S
C420 C421 1.368 . S
C420 H448 0.929 . S
C421 C420 1.368 . S
C421 C422 1.386 . S
C421 H449 0.929 . S
C422 C421 1.386 . S
C422 C423 1.373 . S
C423 C422 1.373 . S
C423 C424 1.409 . S
C423 H450 0.895 1_545 S
C424 C419 1.356 . S
C424 C423 1.409 . S
C424 H451 0.930 . S
C425 O438 1.270 . S
C425 O439 1.248 . S
C426 O440 1.267 . S
C426 O441 1.278 . S
C427 Pr417 2.880 . S
C427 C428 1.491 . S
C427 O442 1.254 . S
C427 O443 1.225 . S
C428 C427 1.491 . S
C428 C429 1.392 . S
C428 C433 1.356 . S
C429 C428 1.392 . S
C429 C430 1.368 . S
C429 H452 0.929 . S
C430 C429 1.368 . S
C430 C431 1.386 . S
C430 H453 0.929 . S
C431 C430 1.386 . S
C431 C432 1.373 . S
C432 C431 1.373 . S
C432 C433 1.409 . S
C432 H454 0.931 . S
C433 C428 1.356 . S
C433 C432 1.409 . S
C433 H455 0.930 . S
C434 O444 1.270 . S
C434 O445 1.248 . S
C435 O446 1.267 . S
C435 O447 1.278 . S
O436 Pr416 2.562 . S
O436 C418 1.254 . S
O437 Pr416 2.490 . S
O437 C418 1.225 . S
O438 Pr416 2.695 . S
O438 Pr417 2.436 . S
O438 C425 1.270 . S
O439 Pr416 2.512 . S
O439 C425 1.248 . S
O440 Pr417 2.438 . S
O440 C426 1.267 . S
O441 Pr416 2.437 . S
O441 C426 1.278 . S
O442 Pr417 2.562 . S
O442 C427 1.254 . S
O443 Pr417 2.490 . S
O443 C427 1.225 . S
O444 Pr416 2.436 . S
O444 Pr417 2.695 . S
O444 C434 1.270 . S
O445 Pr417 2.512 . S
O445 C434 1.248 . S
O446 Pr416 2.438 . S
O446 C435 1.267 . S
O447 Pr417 2.437 . S
O447 C435 1.278 . S
H448 C420 0.929 . S
H449 C421 0.929 . S
H450 C423 0.895 1_565 S
H451 C424 0.930 . S
H452 C429 0.929 . S
H453 C430 0.929 . S
H454 C432 0.931 . S
H455 C433 0.930 . S
Pr456 C458 2.880 . S
Pr456 O476 2.562 . S
Pr456 O477 2.490 . S
Pr456 O478 2.695 . S
Pr456 O479 2.512 . S
Pr456 O481 2.437 . S
Pr456 O484 2.436 . S
Pr456 O486 2.438 . S
Pr457 C467 2.880 . S
Pr457 O478 2.436 . S
Pr457 O480 2.438 . S
Pr457 O482 2.562 . S
Pr457 O483 2.490 . S
Pr457 O484 2.695 . S
Pr457 O485 2.512 . S
Pr457 O487 2.437 . S
C458 Pr456 2.880 . S
C458 C459 1.491 . S
C458 O476 1.254 . S
C458 O477 1.225 . S
C459 C458 1.491 . S
C459 C460 1.392 . S
C459 C464 1.356 . S
C460 C459 1.392 . S
C460 C461 1.368 . S
C460 H488 0.929 . S
C461 C460 1.368 . S
C461 C462 1.386 . S
C461 H489 0.929 . S
C462 C461 1.386 . S
C462 C463 1.373 . S
C463 C462 1.373 . S
C463 C464 1.409 . S
C463 H490 0.931 . S
C464 C459 1.356 . S
C464 C463 1.409 . S
C464 H491 0.930 . S
C465 O478 1.270 . S
C465 O479 1.248 . S
C466 O480 1.267 . S
C466 O481 1.278 . S
C467 Pr457 2.880 . S
C467 C468 1.491 . S
C467 O482 1.254 . S
C467 O483 1.225 . S
C468 C467 1.491 . S
C468 C469 1.392 . S
C468 C473 1.356 . S
C469 C468 1.392 . S
C469 C470 1.368 . S
C469 H492 0.929 . S
C470 C469 1.368 . S
C470 C471 1.386 . S
C470 H493 0.929 . S
C471 C470 1.386 . S
C471 C472 1.373 . S
C472 C471 1.373 . S
C472 C473 1.409 . S
C472 H494 0.931 . S
C473 C468 1.356 . S
C473 C472 1.409 . S
C473 H495 0.930 . S
C474 O484 1.270 . S
C474 O485 1.248 . S
C475 O486 1.267 . S
C475 O487 1.278 . S
O476 Pr456 2.562 . S
O476 C458 1.254 . S
O477 Pr456 2.490 . S
O477 C458 1.225 . S
O478 Pr456 2.695 . S
O478 Pr457 2.436 . S
O478 C465 1.270 . S
O479 Pr456 2.512 . S
O479 C465 1.248 . S
O480 Pr457 2.438 . S
O480 C466 1.267 . S
O481 Pr456 2.437 . S
O481 C466 1.278 . S
O482 Pr457 2.562 . S
O482 C467 1.254 . S
O483 Pr457 2.490 . S
O483 C467 1.225 . S
O484 Pr456 2.436 . S
O484 Pr457 2.695 . S
O484 C474 1.270 . S
O485 Pr457 2.512 . S
O485 C474 1.248 . S
O486 Pr456 2.438 . S
O486 C475 1.267 . S
O487 Pr457 2.437 . S
O487 C475 1.278 . S
H488 C460 0.929 . S
H489 C461 0.929 . S
H490 C463 0.931 . S
H491 C464 0.930 . S
H492 C469 0.929 . S
H493 C470 0.929 . S
H494 C472 0.931 . S
H495 C473 0.930 . S
Pr496 C498 2.880 . S
Pr496 O516 2.562 . S
Pr496 O517 2.490 . S
Pr496 O518 2.695 . S
Pr496 O519 2.512 . S
Pr496 O521 2.437 . S
Pr496 O524 2.436 . S
Pr496 O526 2.438 . S
Pr497 C507 2.880 . S
Pr497 O518 2.436 . S
Pr497 O520 2.438 . S
Pr497 O522 2.562 . S
Pr497 O523 2.490 . S
Pr497 O524 2.695 . S
Pr497 O525 2.512 . S
Pr497 O527 2.437 . S
C498 Pr496 2.880 . S
C498 C499 1.491 . S
C498 O516 1.254 . S
C498 O517 1.225 . S
C499 C498 1.491 . S
C499 C500 1.392 . S
C499 C504 1.356 1_455 S
C500 C499 1.392 . S
C500 C501 1.368 . S
C500 H528 0.929 . S
C501 C500 1.368 . S
C501 C502 1.396 . S
C501 H529 0.929 . S
C502 C501 1.396 . S
C502 C503 1.366 1_455 S
C503 C502 1.366 1_655 S
C503 C504 1.409 . S
C503 H530 0.931 . S
C504 C499 1.356 1_655 S
C504 C503 1.409 . S
C504 H531 0.930 . S
C505 O518 1.270 . S
C505 O519 1.248 . S
C506 O520 1.267 . S
C506 O521 1.278 . S
C507 Pr497 2.880 . S
C507 C508 1.491 . S
C507 O522 1.254 . S
C507 O523 1.225 . S
C508 C507 1.491 . S
C508 C509 1.392 . S
C508 C513 1.356 . S
C509 C508 1.392 . S
C509 C510 1.368 . S
C509 H532 0.929 . S
C510 C509 1.368 . S
C510 C511 1.386 . S
C510 H533 0.929 . S
C511 C510 1.386 . S
C511 C512 1.373 . S
C512 C511 1.373 . S
C512 C513 1.409 . S
C512 H534 0.931 . S
C513 C508 1.356 . S
C513 C512 1.409 . S
C513 H535 0.930 . S
C514 O524 1.270 . S
C514 O525 1.248 . S
C515 O526 1.267 . S
C515 O527 1.278 . S
O516 Pr496 2.562 . S
O516 C498 1.254 . S
O517 Pr496 2.490 . S
O517 C498 1.225 . S
O518 Pr496 2.695 . S
O518 Pr497 2.436 . S
O518 C505 1.270 . S
O519 Pr496 2.512 . S
O519 C505 1.248 . S
O520 Pr497 2.438 . S
O520 C506 1.267 . S
O521 Pr496 2.437 . S
O521 C506 1.278 . S
O522 Pr497 2.562 . S
O522 C507 1.254 . S
O523 Pr497 2.490 . S
O523 C507 1.225 . S
O524 Pr496 2.436 . S
O524 Pr497 2.695 . S
O524 C514 1.270 . S
O525 Pr497 2.512 . S
O525 C514 1.248 . S
O526 Pr496 2.438 . S
O526 C515 1.267 . S
O527 Pr497 2.437 . S
O527 C515 1.278 . S
H528 C500 0.929 . S
H529 C501 0.929 . S
H530 C503 0.931 . S
H531 C504 0.930 . S
H532 C509 0.929 . S
H533 C510 0.929 . S
H534 C512 0.931 . S
H535 C513 0.930 . S
Pr536 C538 2.880 . S
Pr536 O556 2.562 . S
Pr536 O557 2.490 . S
Pr536 O558 2.695 . S
Pr536 O559 2.512 . S
Pr536 O561 2.437 . S
Pr536 O564 2.436 . S
Pr536 O566 2.438 . S
Pr537 C547 2.880 . S
Pr537 O558 2.436 . S
Pr537 O560 2.438 . S
Pr537 O562 2.562 . S
Pr537 O563 2.490 . S
Pr537 O564 2.695 . S
Pr537 O565 2.512 . S
Pr537 O567 2.437 . S
C538 Pr536 2.880 . S
C538 C539 1.491 . S
C538 O556 1.254 . S
C538 O557 1.225 . S
C539 C538 1.491 . S
C539 C540 1.392 . S
C539 C544 1.356 . S
C540 C539 1.392 . S
C540 C541 1.368 . S
C540 H568 0.929 . S
C541 C540 1.368 . S
C541 C542 1.386 . S
C541 H569 0.929 . S
C542 C541 1.386 . S
C542 C543 1.373 . S
C543 C542 1.373 . S
C543 C544 1.409 . S
C543 H570 0.931 . S
C544 C539 1.356 . S
C544 C543 1.409 . S
C544 H571 0.930 . S
C545 O558 1.270 . S
C545 O559 1.248 . S
C546 O560 1.267 . S
C546 O561 1.278 . S
C547 Pr537 2.880 . S
C547 C548 1.491 . S
C547 O562 1.254 . S
C547 O563 1.225 . S
C548 C547 1.491 . S
C548 C549 1.392 . S
C548 C553 1.356 . S
C549 C548 1.392 . S
C549 C550 1.368 . S
C549 H572 0.929 . S
C550 C549 1.368 . S
C550 C551 1.386 . S
C550 H573 0.929 . S
C551 C550 1.386 . S
C551 C552 1.373 . S
C552 C551 1.373 . S
C552 C553 1.409 . S
C552 H574 0.931 . S
C553 C548 1.356 . S
C553 C552 1.409 . S
C553 H575 0.930 . S
C554 O564 1.270 . S
C554 O565 1.248 . S
C555 O566 1.267 . S
C555 O567 1.278 . S
O556 Pr536 2.562 . S
O556 C538 1.254 . S
O557 Pr536 2.490 . S
O557 C538 1.225 . S
O558 Pr536 2.695 . S
O558 Pr537 2.436 . S
O558 C545 1.270 . S
O559 Pr536 2.512 . S
O559 C545 1.248 . S
O560 Pr537 2.438 . S
O560 C546 1.267 . S
O561 Pr536 2.437 . S
O561 C546 1.278 . S
O562 Pr537 2.562 . S
O562 C547 1.254 . S
O563 Pr537 2.490 . S
O563 C547 1.225 . S
O564 Pr536 2.436 . S
O564 Pr537 2.695 . S
O564 C554 1.270 . S
O565 Pr537 2.512 . S
O565 C554 1.248 . S
O566 Pr536 2.438 . S
O566 C555 1.267 . S
O567 Pr537 2.437 . S
O567 C555 1.278 . S
H568 C540 0.929 . S
H569 C541 0.929 . S
H570 C543 0.931 . S
H571 C544 0.930 . S
H572 C549 0.929 . S
H573 C550 0.929 . S
H574 C552 0.931 . S
H575 C553 0.930 . S
Pr576 C578 2.880 . S
Pr576 O596 2.562 . S
Pr576 O597 2.490 . S
Pr576 O598 2.695 . S
Pr576 O599 2.512 . S
Pr576 O601 2.437 . S
Pr576 O604 2.436 . S
Pr576 O606 2.438 . S
Pr577 C587 2.880 . S
Pr577 O598 2.436 1_556 S
Pr577 O600 2.438 1_556 S
Pr577 O602 2.562 . S
Pr577 O603 2.490 . S
Pr577 O604 2.695 1_556 S
Pr577 O605 2.512 1_556 S
Pr577 O607 2.437 1_556 S
C578 Pr576 2.880 . S
C578 C579 1.491 . S
C578 O596 1.254 . S
C578 O597 1.225 . S
C579 C578 1.491 . S
C579 C580 1.392 . S
C579 C584 1.356 . S
C580 C579 1.392 . S
C580 C581 1.368 . S
C580 H608 0.929 . S
C581 C580 1.368 . S
C581 C582 1.386 . S
C581 H609 0.929 . S
C582 C581 1.386 . S
C582 C583 1.373 . S
C583 C582 1.373 . S
C583 C584 1.409 . S
C583 H610 0.931 . S
C584 C579 1.356 . S
C584 C583 1.409 . S
C584 H611 0.930 . S
C585 O598 1.270 . S
C585 O599 1.248 . S
C586 O600 1.267 . S
C586 O601 1.278 . S
C587 Pr577 2.880 . S
C587 C588 1.491 . S
C587 O602 1.254 . S
C587 O603 1.225 . S
C588 C587 1.491 . S
C588 C589 1.392 . S
C588 C593 1.356 . S
C589 C588 1.392 . S
C589 C590 1.368 . S
C589 H612 0.929 . S
C590 C589 1.368 . S
C590 C591 1.386 . S
C590 H613 0.929 . S
C591 C590 1.386 . S
C591 C592 1.373 . S
C592 C591 1.373 . S
C592 C593 1.409 . S
C592 H614 0.931 . S
C593 C588 1.356 . S
C593 C592 1.409 . S
C593 H615 0.930 . S
C594 O604 1.270 . S
C594 O605 1.248 . S
C595 O606 1.267 . S
C595 O607 1.278 . S
O596 Pr576 2.562 . S
O596 C578 1.254 . S
O597 Pr576 2.490 . S
O597 C578 1.225 . S
O598 Pr576 2.695 . S
O598 Pr577 2.436 1_554 S
O598 C585 1.270 . S
O599 Pr576 2.512 . S
O599 C585 1.248 . S
O600 Pr577 2.438 1_554 S
O600 C586 1.267 . S
O601 Pr576 2.437 . S
O601 C586 1.278 . S
O602 Pr577 2.562 . S
O602 C587 1.254 . S
O603 Pr577 2.490 . S
O603 C587 1.225 . S
O604 Pr576 2.436 . S
O604 Pr577 2.695 1_554 S
O604 C594 1.270 . S
O605 Pr577 2.512 1_554 S
O605 C594 1.248 . S
O606 Pr576 2.438 . S
O606 C595 1.267 . S
O607 Pr577 2.437 1_554 S
O607 C595 1.278 . S
H608 C580 0.929 . S
H609 C581 0.929 . S
H610 C583 0.931 . S
H611 C584 0.930 . S
H612 C589 0.929 . S
H613 C590 0.929 . S
H614 C592 0.931 . S
H615 C593 0.930 . S
Pr616 C618 2.880 . S
Pr616 O636 2.562 . S
Pr616 O637 2.490 . S
Pr616 O638 2.695 . S
Pr616 O639 2.512 . S
Pr616 O641 2.437 . S
Pr616 O644 2.436 . S
Pr616 O646 2.438 . S
Pr617 C627 2.880 . S
Pr617 O638 2.436 . S
Pr617 O640 2.438 . S
Pr617 O642 2.562 . S
Pr617 O643 2.490 . S
Pr617 O644 2.695 . S
Pr617 O645 2.512 . S
Pr617 O647 2.437 . S
C618 Pr616 2.880 . S
C618 C619 1.491 . S
C618 O636 1.254 . S
C618 O637 1.225 . S
C619 C618 1.491 . S
C619 C620 1.392 . S
C619 C624 1.356 . S
C620 C619 1.392 . S
C620 C621 1.368 . S
C620 H648 0.929 . S
C621 C620 1.368 . S
C621 C622 1.386 . S
C621 H649 0.929 . S
C622 C621 1.386 . S
C622 C623 1.373 . S
C623 C622 1.373 . S
C623 C624 1.409 . S
C623 H650 0.931 . S
C624 C619 1.356 . S
C624 C623 1.409 . S
C624 H651 0.930 . S
C625 O638 1.270 . S
C625 O639 1.248 . S
C626 O640 1.267 . S
C626 O641 1.278 . S
C627 Pr617 2.880 . S
C627 C628 1.491 . S
C627 O642 1.254 . S
C627 O643 1.225 . S
C628 C627 1.491 . S
C628 C629 1.392 . S
C628 C633 1.356 . S
C629 C628 1.392 . S
C629 C630 1.368 . S
C629 H652 0.929 . S
C630 C629 1.368 . S
C630 C631 1.386 . S
C630 H653 0.929 . S
C631 C630 1.386 . S
C631 C632 1.373 . S
C632 C631 1.373 . S
C632 C633 1.409 . S
C632 H654 0.931 . S
C633 C628 1.356 . S
C633 C632 1.409 . S
C633 H655 0.930 . S
C634 O644 1.270 . S
C634 O645 1.248 . S
C635 O646 1.267 . S
C635 O647 1.278 . S
O636 Pr616 2.562 . S
O636 C618 1.254 . S
O637 Pr616 2.490 . S
O637 C618 1.225 . S
O638 Pr616 2.695 . S
O638 Pr617 2.436 . S
O638 C625 1.270 . S
O639 Pr616 2.512 . S
O639 C625 1.248 . S
O640 Pr617 2.438 . S
O640 C626 1.267 . S
O641 Pr616 2.437 . S
O641 C626 1.278 . S
O642 Pr617 2.562 . S
O642 C627 1.254 . S
O643 Pr617 2.490 . S
O643 C627 1.225 . S
O644 Pr616 2.436 . S
O644 Pr617 2.695 . S
O644 C634 1.270 . S
O645 Pr617 2.512 . S
O645 C634 1.248 . S
O646 Pr616 2.438 . S
O646 C635 1.267 . S
O647 Pr617 2.437 . S
O647 C635 1.278 . S
H648 C620 0.929 . S
H649 C621 0.929 . S
H650 C623 0.931 . S
H651 C624 0.930 . S
H652 C629 0.929 . S
H653 C630 0.929 . S
H654 C632 0.931 . S
H655 C633 0.930 . S
Pr656 C658 2.880 . S
Pr656 O676 2.562 . S
Pr656 O677 2.490 . S
Pr656 O678 2.695 1_556 S
Pr656 O679 2.512 . S
Pr656 O681 2.437 . S
Pr656 O684 2.436 1_556 S
Pr656 O686 2.438 1_556 S
Pr657 C667 2.880 . S
Pr657 O678 2.436 . S
Pr657 O680 2.438 . S
Pr657 O682 2.562 . S
Pr657 O683 2.490 . S
Pr657 O684 2.695 . S
Pr657 O685 2.512 . S
Pr657 O687 2.437 . S
C658 Pr656 2.880 . S
C658 C659 1.491 . S
C658 O676 1.254 . S
C658 O677 1.225 . S
C659 C658 1.491 . S
C659 C660 1.392 . S
C659 C664 1.356 . S
C660 C659 1.392 . S
C660 C661 1.368 . S
C660 H688 0.929 . S
C661 C660 1.368 . S
C661 C662 1.386 . S
C661 H689 0.929 . S
C662 C661 1.386 . S
C662 C663 1.373 . S
C663 C662 1.373 . S
C663 C664 1.409 . S
C663 H690 0.931 . S
C664 C659 1.356 . S
C664 C663 1.409 . S
C664 H691 0.930 . S
C665 O678 1.270 . S
C665 O679 1.248 1_554 S
C666 O680 1.267 . S
C666 O681 1.278 1_554 S
C667 Pr657 2.880 . S
C667 C668 1.491 . S
C667 O682 1.254 . S
C667 O683 1.225 . S
C668 C667 1.491 . S
C668 C669 1.392 . S
C668 C673 1.356 . S
C669 C668 1.392 . S
C669 C670 1.368 . S
C669 H692 0.929 . S
C670 C669 1.368 . S
C670 C671 1.386 . S
C670 H693 0.929 . S
C671 C670 1.386 . S
C671 C672 1.373 . S
C672 C671 1.373 . S
C672 C673 1.409 . S
C672 H694 0.931 . S
C673 C668 1.356 . S
C673 C672 1.409 . S
C673 H695 0.930 . S
C674 O684 1.270 . S
C674 O685 1.248 . S
C675 O686 1.267 . S
C675 O687 1.278 . S
O676 Pr656 2.562 . S
O676 C658 1.254 . S
O677 Pr656 2.490 . S
O677 C658 1.225 . S
O678 Pr656 2.695 1_554 S
O678 Pr657 2.436 . S
O678 C665 1.270 . S
O679 Pr656 2.512 . S
O679 C665 1.248 1_556 S
O680 Pr657 2.438 . S
O680 C666 1.267 . S
O681 Pr656 2.437 . S
O681 C666 1.278 1_556 S
O682 Pr657 2.562 . S
O682 C667 1.254 . S
O683 Pr657 2.490 . S
O683 C667 1.225 . S
O684 Pr656 2.436 1_554 S
O684 Pr657 2.695 . S
O684 C674 1.270 . S
O685 Pr657 2.512 . S
O685 C674 1.248 . S
O686 Pr656 2.438 1_554 S
O686 C675 1.267 . S
O687 Pr657 2.437 . S
O687 C675 1.278 . S
H688 C660 0.929 . S
H689 C661 0.929 . S
H690 C663 0.931 . S
H691 C664 0.930 . S
H692 C669 0.929 . S
H693 C670 0.929 . S
H694 C672 0.931 . S
H695 C673 0.930 . S
Pr696 C698 2.880 . S
Pr696 O716 2.562 . S
Pr696 O717 2.490 . S
Pr696 O718 2.695 . S
Pr696 O719 2.512 . S
Pr696 O721 2.437 . S
Pr696 O724 2.436 . S
Pr696 O726 2.438 . S
Pr697 C707 2.880 . S
Pr697 O718 2.436 . S
Pr697 O720 2.438 . S
Pr697 O722 2.562 . S
Pr697 O723 2.490 . S
Pr697 O724 2.695 . S
Pr697 O725 2.512 . S
Pr697 O727 2.437 . S
C698 Pr696 2.880 . S
C698 C699 1.491 . S
C698 O716 1.254 . S
C698 O717 1.225 . S
C699 C698 1.491 . S
C699 C700 1.392 . S
C699 C704 1.356 . S
C700 C699 1.392 . S
C700 C701 1.368 . S
C700 H728 0.929 . S
C701 C700 1.368 . S
C701 C702 1.386 . S
C701 H729 0.929 . S
C702 C701 1.386 . S
C702 C703 1.373 . S
C703 C702 1.373 . S
C703 C704 1.409 . S
C703 H730 0.931 . S
C704 C699 1.356 . S
C704 C703 1.409 . S
C704 H731 0.930 . S
C705 O718 1.270 . S
C705 O719 1.248 . S
C706 O720 1.267 . S
C706 O721 1.278 . S
C707 Pr697 2.880 . S
C707 C708 1.491 . S
C707 O722 1.254 . S
C707 O723 1.225 . S
C708 C707 1.491 . S
C708 C709 1.392 . S
C708 C713 1.356 . S
C709 C708 1.392 . S
C709 C710 1.368 . S
C709 H732 0.929 . S
C710 C709 1.368 . S
C710 C711 1.386 . S
C710 H733 0.929 . S
C711 C710 1.386 . S
C711 C712 1.373 . S
C712 C711 1.373 . S
C712 C713 1.409 . S
C712 H734 0.931 . S
C713 C708 1.356 . S
C713 C712 1.409 . S
C713 H735 0.930 . S
C714 O724 1.270 . S
C714 O725 1.248 . S
C715 O726 1.267 . S
C715 O727 1.278 . S
O716 Pr696 2.562 . S
O716 C698 1.254 . S
O717 Pr696 2.490 . S
O717 C698 1.225 . S
O718 Pr696 2.695 . S
O718 Pr697 2.436 . S
O718 C705 1.270 . S
O719 Pr696 2.512 . S
O719 C705 1.248 . S
O720 Pr697 2.438 . S
O720 C706 1.267 . S
O721 Pr696 2.437 . S
O721 C706 1.278 . S
O722 Pr697 2.562 . S
O722 C707 1.254 . S
O723 Pr697 2.490 . S
O723 C707 1.225 . S
O724 Pr696 2.436 . S
O724 Pr697 2.695 . S
O724 C714 1.270 . S
O725 Pr697 2.512 . S
O725 C714 1.248 . S
O726 Pr696 2.438 . S
O726 C715 1.267 . S
O727 Pr697 2.437 . S
O727 C715 1.278 . S
H728 C700 0.929 . S
H729 C701 0.929 . S
H730 C703 0.931 . S
H731 C704 0.930 . S
H732 C709 0.929 . S
H733 C710 0.929 . S
H734 C712 0.931 . S
H735 C713 0.930 . S
Pr736 C738 2.880 . S
Pr736 O756 2.562 . S
Pr736 O757 2.490 . S
Pr736 O758 2.695 . S
Pr736 O759 2.512 . S
Pr736 O761 2.437 . S
Pr736 O764 2.436 . S
Pr736 O766 2.438 . S
Pr737 C747 2.880 . S
Pr737 O758 2.436 . S
Pr737 O760 2.438 . S
Pr737 O762 2.562 . S
Pr737 O763 2.490 . S
Pr737 O764 2.695 . S
Pr737 O765 2.512 . S
Pr737 O767 2.437 . S
C738 Pr736 2.880 . S
C738 C739 1.491 . S
C738 O756 1.254 . S
C738 O757 1.225 . S
C739 C738 1.491 . S
C739 C740 1.392 . S
C739 C744 1.356 . S
C740 C739 1.392 . S
C740 C741 1.368 . S
C740 H768 0.929 . S
C741 C740 1.368 . S
C741 C742 1.386 . S
C741 H769 0.929 . S
C742 C741 1.386 . S
C742 C743 1.373 . S
C743 C742 1.373 . S
C743 C744 1.409 . S
C743 H770 0.931 1_455 S
C744 C739 1.356 . S
C744 C743 1.409 . S
C744 H771 0.930 . S
C745 O758 1.270 . S
C745 O759 1.248 . S
C746 O760 1.267 . S
C746 O761 1.278 . S
C747 Pr737 2.880 . S
C747 C748 1.491 . S
C747 O762 1.254 . S
C747 O763 1.225 . S
C748 C747 1.491 . S
C748 C749 1.392 . S
C748 C753 1.356 . S
C749 C748 1.392 . S
C749 C750 1.368 . S
C749 H772 0.929 . S
C750 C749 1.368 . S
C750 C751 1.386 . S
C750 H773 0.929 . S
C751 C750 1.386 . S
C751 C752 1.373 . S
C752 C751 1.373 . S
C752 C753 1.409 . S
C752 H774 0.931 . S
C753 C748 1.356 . S
C753 C752 1.409 . S
C753 H775 0.930 . S
C754 O764 1.270 . S
C754 O765 1.248 . S
C755 O766 1.267 . S
C755 O767 1.278 . S
O756 Pr736 2.562 . S
O756 C738 1.254 . S
O757 Pr736 2.490 . S
O757 C738 1.225 . S
O758 Pr736 2.695 . S
O758 Pr737 2.436 . S
O758 C745 1.270 . S
O759 Pr736 2.512 . S
O759 C745 1.248 . S
O760 Pr737 2.438 . S
O760 C746 1.267 . S
O761 Pr736 2.437 . S
O761 C746 1.278 . S
O762 Pr737 2.562 . S
O762 C747 1.254 . S
O763 Pr737 2.490 . S
O763 C747 1.225 . S
O764 Pr736 2.436 . S
O764 Pr737 2.695 . S
O764 C754 1.270 . S
O765 Pr737 2.512 . S
O765 C754 1.248 . S
O766 Pr736 2.438 . S
O766 C755 1.267 . S
O767 Pr737 2.437 . S
O767 C755 1.278 . S
H768 C740 0.929 . S
H769 C741 0.929 . S
H770 C743 0.931 1_655 S
H771 C744 0.930 . S
H772 C749 0.929 . S
H773 C750 0.929 . S
H774 C752 0.931 . S
H775 C753 0.930 . S
Pr776 C778 2.880 . S
Pr776 O796 2.562 . S
Pr776 O797 2.490 . S
Pr776 O798 2.695 . S
Pr776 O799 2.512 . S
Pr776 O801 2.437 . S
Pr776 O804 2.436 . S
Pr776 O806 2.438 . S
Pr777 C787 2.880 . S
Pr777 O798 2.436 . S
Pr777 O800 2.438 . S
Pr777 O802 2.562 . S
Pr777 O803 2.490 . S
Pr777 O804 2.695 . S
Pr777 O805 2.512 . S
Pr777 O807 2.437 . S
C778 Pr776 2.880 . S
C778 C779 1.491 . S
C778 O796 1.254 . S
C778 O797 1.225 . S
C779 C778 1.491 . S
C779 C780 1.392 . S
C779 C784 1.356 . S
C780 C779 1.392 . S
C780 C781 1.368 . S
C780 H808 0.929 . S
C781 C780 1.368 . S
C781 C782 1.386 . S
C781 H809 0.929 . S
C782 C781 1.386 . S
C782 C783 1.373 . S
C783 C782 1.373 . S
C783 C784 1.409 . S
C783 H810 0.931 . S
C784 C779 1.356 . S
C784 C783 1.409 . S
C784 H811 0.930 . S
C785 O798 1.270 . S
C785 O799 1.248 . S
C786 O800 1.267 . S
C786 O801 1.278 . S
C787 Pr777 2.880 . S
C787 C788 1.491 . S
C787 O802 1.254 . S
C787 O803 1.225 . S
C788 C787 1.491 . S
C788 C789 1.392 . S
C788 C793 1.356 . S
C789 C788 1.392 . S
C789 C790 1.368 . S
C789 H812 0.929 . S
C790 C789 1.368 . S
C790 C791 1.386 . S
C790 H813 0.929 . S
C791 C790 1.386 . S
C791 C792 1.373 . S
C792 C791 1.373 . S
C792 C793 1.409 . S
C792 H814 0.931 . S
C793 C788 1.356 . S
C793 C792 1.409 . S
C793 H815 0.930 . S
C794 O804 1.270 . S
C794 O805 1.248 . S
C795 O806 1.267 . S
C795 O807 1.278 . S
O796 Pr776 2.562 . S
O796 C778 1.254 . S
O797 Pr776 2.490 . S
O797 C778 1.225 . S
O798 Pr776 2.695 . S
O798 Pr777 2.436 . S
O798 C785 1.270 . S
O799 Pr776 2.512 . S
O799 C785 1.248 . S
O800 Pr777 2.438 . S
O800 C786 1.267 . S
O801 Pr776 2.437 . S
O801 C786 1.278 . S
O802 Pr777 2.562 . S
O802 C787 1.254 . S
O803 Pr777 2.490 . S
O803 C787 1.225 . S
O804 Pr776 2.436 . S
O804 Pr777 2.695 . S
O804 C794 1.270 . S
O805 Pr777 2.512 . S
O805 C794 1.248 . S
O806 Pr776 2.438 . S
O806 C795 1.267 . S
O807 Pr777 2.437 . S
O807 C795 1.278 . S
H808 C780 0.929 . S
H809 C781 0.929 . S
H810 C783 0.931 . S
H811 C784 0.930 . S
H812 C789 0.929 . S
H813 C790 0.929 . S
H814 C792 0.931 . S
H815 C793 0.930 . S
Pr816 C818 2.880 . S
Pr816 O836 2.562 . S
Pr816 O837 2.490 . S
Pr816 O838 2.695 . S
Pr816 O839 2.512 . S
Pr816 O841 2.437 . S
Pr816 O844 2.436 . S
Pr816 O846 2.438 . S
Pr817 C827 2.880 . S
Pr817 O838 2.436 . S
Pr817 O840 2.438 . S
Pr817 O842 2.562 . S
Pr817 O843 2.490 . S
Pr817 O844 2.695 . S
Pr817 O845 2.512 . S
Pr817 O847 2.437 . S
C818 Pr816 2.880 . S
C818 C819 1.491 . S
C818 O836 1.254 . S
C818 O837 1.225 . S
C819 C818 1.491 . S
C819 C820 1.392 . S
C819 C824 1.356 . S
C820 C819 1.392 . S
C820 C821 1.368 . S
C820 H848 0.929 . S
C821 C820 1.368 . S
C821 C822 1.386 . S
C821 H849 0.929 . S
C822 C821 1.386 . S
C822 C823 1.373 . S
C823 C822 1.373 . S
C823 C824 1.409 . S
C823 H850 0.931 . S
C824 C819 1.356 . S
C824 C823 1.409 . S
C824 H851 0.930 . S
C825 O838 1.270 . S
C825 O839 1.248 . S
C826 O840 1.267 . S
C826 O841 1.278 . S
C827 Pr817 2.880 . S
C827 C828 1.491 . S
C827 O842 1.254 . S
C827 O843 1.225 . S
C828 C827 1.491 . S
C828 C829 1.392 . S
C828 C833 1.356 . S
C829 C828 1.392 . S
C829 C830 1.368 . S
C829 H852 0.929 . S
C830 C829 1.368 . S
C830 C831 1.386 . S
C830 H853 0.929 . S
C831 C830 1.386 . S
C831 C832 1.373 . S
C832 C831 1.373 . S
C832 C833 1.409 . S
C832 H854 0.931 . S
C833 C828 1.356 . S
C833 C832 1.409 . S
C833 H855 0.930 . S
C834 O844 1.270 . S
C834 O845 1.248 . S
C835 O846 1.267 . S
C835 O847 1.278 . S
O836 Pr816 2.562 . S
O836 C818 1.254 . S
O837 Pr816 2.490 . S
O837 C818 1.225 . S
O838 Pr816 2.695 . S
O838 Pr817 2.436 . S
O838 C825 1.270 . S
O839 Pr816 2.512 . S
O839 C825 1.248 . S
O840 Pr817 2.438 . S
O840 C826 1.267 . S
O841 Pr816 2.437 . S
O841 C826 1.278 . S
O842 Pr817 2.562 . S
O842 C827 1.254 . S
O843 Pr817 2.490 . S
O843 C827 1.225 . S
O844 Pr816 2.436 . S
O844 Pr817 2.695 . S
O844 C834 1.270 . S
O845 Pr817 2.512 . S
O845 C834 1.248 . S
O846 Pr816 2.438 . S
O846 C835 1.267 . S
O847 Pr817 2.437 . S
O847 C835 1.278 . S
H848 C820 0.929 . S
H849 C821 0.929 . S
H850 C823 0.931 . S
H851 C824 0.930 . S
H852 C829 0.929 . S
H853 C830 0.929 . S
H854 C832 0.931 . S
H855 C833 0.930 . S
Pr856 C858 2.880 . S
Pr856 O876 2.562 . S
Pr856 O877 2.490 . S
Pr856 O878 2.695 . S
Pr856 O879 2.512 . S
Pr856 O881 2.437 . S
Pr856 O884 2.436 . S
Pr856 O886 2.438 . S
Pr857 C867 2.880 . S
Pr857 O878 2.436 . S
Pr857 O880 2.438 . S
Pr857 O882 2.562 . S
Pr857 O883 2.490 . S
Pr857 O884 2.695 . S
Pr857 O885 2.512 . S
Pr857 O887 2.437 . S
C858 Pr856 2.880 . S
C858 C859 1.491 . S
C858 O876 1.254 . S
C858 O877 1.225 . S
C859 C858 1.491 . S
C859 C860 1.392 . S
C859 C864 1.356 . S
C860 C859 1.392 . S
C860 C861 1.368 . S
C860 H888 0.929 . S
C861 C860 1.368 . S
C861 C862 1.386 . S
C861 H889 0.929 . S
C862 C861 1.386 . S
C862 C863 1.373 . S
C863 C862 1.373 . S
C863 C864 1.409 . S
C863 H890 0.931 . S
C864 C859 1.356 . S
C864 C863 1.409 . S
C864 H891 0.930 . S
C865 O878 1.270 . S
C865 O879 1.248 . S
C866 O880 1.267 . S
C866 O881 1.278 . S
C867 Pr857 2.880 . S
C867 C868 1.491 . S
C867 O882 1.254 . S
C867 O883 1.225 . S
C868 C867 1.491 . S
C868 C869 1.392 . S
C868 C873 1.356 . S
C869 C868 1.392 . S
C869 C870 1.368 . S
C869 H892 0.929 . S
C870 C869 1.368 . S
C870 C871 1.386 . S
C870 H893 0.929 . S
C871 C870 1.386 . S
C871 C872 1.373 . S
C872 C871 1.373 . S
C872 C873 1.409 . S
C872 H894 0.931 . S
C873 C868 1.356 . S
C873 C872 1.409 . S
C873 H895 0.930 . S
C874 O884 1.270 . S
C874 O885 1.248 . S
C875 O886 1.267 . S
C875 O887 1.278 . S
O876 Pr856 2.562 . S
O876 C858 1.254 . S
O877 Pr856 2.490 . S
O877 C858 1.225 . S
O878 Pr856 2.695 . S
O878 Pr857 2.436 . S
O878 C865 1.270 . S
O879 Pr856 2.512 . S
O879 C865 1.248 . S
O880 Pr857 2.438 . S
O880 C866 1.267 . S
O881 Pr856 2.437 . S
O881 C866 1.278 . S
O882 Pr857 2.562 . S
O882 C867 1.254 . S
O883 Pr857 2.490 . S
O883 C867 1.225 . S
O884 Pr856 2.436 . S
O884 Pr857 2.695 . S
O884 C874 1.270 . S
O885 Pr857 2.512 . S
O885 C874 1.248 . S
O886 Pr856 2.438 . S
O886 C875 1.267 . S
O887 Pr857 2.437 . S
O887 C875 1.278 . S
H888 C860 0.929 . S
H889 C861 0.929 . S
H890 C863 0.931 . S
H891 C864 0.930 . S
H892 C869 0.929 . S
H893 C870 0.929 . S
H894 C872 0.931 . S
H895 C873 0.930 . S
Pr896 C898 2.880 . S
Pr896 O916 2.562 . S
Pr896 O917 2.490 . S
Pr896 O918 2.695 . S
Pr896 O919 2.512 . S
Pr896 O921 2.437 . S
Pr896 O924 2.436 . S
Pr896 O926 2.438 . S
Pr897 C907 2.880 . S
Pr897 O918 2.436 . S
Pr897 O920 2.438 . S
Pr897 O922 2.562 . S
Pr897 O923 2.490 . S
Pr897 O924 2.695 . S
Pr897 O925 2.512 . S
Pr897 O927 2.437 . S
C898 Pr896 2.880 . S
C898 C899 1.491 . S
C898 O916 1.254 . S
C898 O917 1.225 . S
C899 C898 1.491 . S
C899 C900 1.392 . S
C899 C904 1.356 . S
C900 C899 1.392 . S
C900 C901 1.368 . S
C900 H928 0.929 . S
C901 C900 1.368 . S
C901 C902 1.386 . S
C901 H929 0.929 . S
C902 C901 1.386 . S
C902 C903 1.373 . S
C903 C902 1.373 . S
C903 C904 1.409 . S
C903 H930 0.931 . S
C904 C899 1.356 . S
C904 C903 1.409 . S
C904 H931 0.930 . S
C905 O918 1.270 . S
C905 O919 1.248 . S
C906 O920 1.267 . S
C906 O921 1.278 . S
C907 Pr897 2.880 . S
C907 C908 1.491 . S
C907 O922 1.254 . S
C907 O923 1.225 . S
C908 C907 1.491 . S
C908 C909 1.392 . S
C908 C913 1.356 . S
C909 C908 1.392 . S
C909 C910 1.368 . S
C909 H932 0.929 . S
C910 C909 1.368 . S
C910 C911 1.386 . S
C910 H933 0.929 . S
C911 C910 1.386 . S
C911 C912 1.373 . S
C912 C911 1.373 . S
C912 C913 1.409 . S
C912 H934 0.931 . S
C913 C908 1.356 . S
C913 C912 1.409 . S
C913 H935 0.930 . S
C914 O924 1.270 . S
C914 O925 1.248 . S
C915 O926 1.267 . S
C915 O927 1.278 . S
O916 Pr896 2.562 . S
O916 C898 1.254 . S
O917 Pr896 2.490 . S
O917 C898 1.225 . S
O918 Pr896 2.695 . S
O918 Pr897 2.436 . S
O918 C905 1.270 . S
O919 Pr896 2.512 . S
O919 C905 1.248 . S
O920 Pr897 2.438 . S
O920 C906 1.267 . S
O921 Pr896 2.437 . S
O921 C906 1.278 . S
O922 Pr897 2.562 . S
O922 C907 1.254 . S
O923 Pr897 2.490 . S
O923 C907 1.225 . S
O924 Pr896 2.436 . S
O924 Pr897 2.695 . S
O924 C914 1.270 . S
O925 Pr897 2.512 . S
O925 C914 1.248 . S
O926 Pr896 2.438 . S
O926 C915 1.267 . S
O927 Pr897 2.437 . S
O927 C915 1.278 . S
H928 C900 0.929 . S
H929 C901 0.929 . S
H930 C903 0.931 . S
H931 C904 0.930 . S
H932 C909 0.929 . S
H933 C910 0.929 . S
H934 C912 0.931 . S
H935 C913 0.930 . S
Pr936 C938 2.880 . S
Pr936 O956 2.562 . S
Pr936 O957 2.490 . S
Pr936 O958 2.695 . S
Pr936 O959 2.512 1_554 S
Pr936 O961 2.437 . S
Pr936 O964 2.436 . S
Pr936 O966 2.438 . S
Pr937 C947 2.880 1_455 S
Pr937 O958 2.436 . S
Pr937 O960 2.438 . S
Pr937 O962 2.562 1_455 S
Pr937 O963 2.490 1_455 S
Pr937 O964 2.695 . S
Pr937 O965 2.512 . S
Pr937 O967 2.437 . S
C938 Pr936 2.880 . S
C938 C939 1.491 . S
C938 O956 1.254 . S
C938 O957 1.225 . S
C939 C938 1.491 . S
C939 C940 1.392 1_554 S
C939 C944 1.356 . S
C940 C939 1.392 1_556 S
C940 C941 1.368 . S
C940 H968 0.929 . S
C941 C940 1.368 . S
C941 C942 1.386 . S
C941 H969 0.929 . S
C942 C941 1.386 . S
C942 C943 1.373 1_556 S
C943 C942 1.373 1_554 S
C943 C944 1.409 . S
C943 H970 0.931 . S
C944 C939 1.356 . S
C944 C943 1.409 . S
C944 H971 0.930 . S
C945 O958 1.270 1_556 S
C945 O959 1.248 . S
C946 O960 1.267 . S
C946 O961 1.278 . S
C947 Pr937 2.880 1_655 S
C947 C948 1.491 . S
C947 O962 1.254 . S
C947 O963 1.225 . S
C948 C947 1.491 . S
C948 C949 1.392 . S
C948 C953 1.356 . S
C949 C948 1.392 . S
C949 C950 1.368 . S
C949 H972 0.929 . S
C950 C949 1.368 . S
C950 C951 1.386 . S
C950 H973 0.929 . S
C951 C950 1.386 . S
C951 C952 1.373 . S
C952 C951 1.373 . S
C952 C953 1.409 . S
C952 H974 0.931 . S
C953 C948 1.356 . S
C953 C952 1.409 . S
C953 H975 0.930 . S
C954 O964 1.270 . S
C954 O965 1.248 . S
C955 O966 1.267 . S
C955 O967 1.278 . S
O956 Pr936 2.562 . S
O956 C938 1.254 . S
O957 Pr936 2.490 . S
O957 C938 1.225 . S
O958 Pr936 2.695 . S
O958 Pr937 2.436 . S
O958 C945 1.270 1_554 S
O959 Pr936 2.512 1_556 S
O959 C945 1.248 . S
O960 Pr937 2.438 . S
O960 C946 1.267 . S
O961 Pr936 2.437 . S
O961 C946 1.278 . S
O962 Pr937 2.562 1_655 S
O962 C947 1.254 . S
O963 Pr937 2.490 1_655 S
O963 C947 1.225 . S
O964 Pr936 2.436 . S
O964 Pr937 2.695 . S
O964 C954 1.270 . S
O965 Pr937 2.512 . S
O965 C954 1.248 . S
O966 Pr936 2.438 . S
O966 C955 1.267 . S
O967 Pr937 2.437 . S
O967 C955 1.278 . S
H968 C940 0.929 . S
H969 C941 0.929 . S
H970 C943 0.931 . S
H971 C944 0.930 . S
H972 C949 0.929 . S
H973 C950 0.929 . S
H974 C952 0.931 . S
H975 C953 0.930 . S
H976 C988 0.930 . S
H977 C990 0.930 . S
H978 C991 0.930 1_554 S
H979 C995 0.959 1_655 S
H980 C995 0.959 . S
H981 C995 0.961 1_655 S
H982 C996 0.960 . S
H983 C996 0.961 . S
H984 C996 0.959 . S
H985 C999 0.929 . S
H986 C1000 0.931 . S
H987 C1002 0.930 . S
C988 H976 0.930 . S
C988 C989 1.399 . S
C988 C993 1.399 . S
C989 C988 1.399 . S
C989 C990 1.376 . S
C990 H977 0.930 . S
C990 C989 1.376 . S
C990 C991 1.388 . S
C991 H978 0.930 1_556 S
C991 C990 1.388 . S
C991 C992 1.390 . S
C992 C991 1.390 . S
C992 C993 1.394 . S
C992 C998 1.468 . S
C993 C988 1.399 . S
C993 C992 1.394 . S
C993 C994 1.516 . S
C994 C993 1.516 . S
C994 C995 1.502 . S
C994 C996 1.561 . S
C994 C997 1.526 . S
C995 H979 0.959 1_455 S
C995 H980 0.959 . S
C995 H981 0.961 1_455 S
C995 C994 1.502 . S
C996 H982 0.960 . S
C996 H983 0.961 . S
C996 H984 0.959 . S
C996 C994 1.561 . S
C997 C994 1.526 . S
C997 C998 1.399 . S
C997 C1002 1.390 . S
C998 C992 1.468 . S
C998 C997 1.399 . S
C998 C999 1.394 1_556 S
C999 H985 0.929 . S
C999 C998 1.394 1_554 S
C999 C1000 1.385 . S
C1000 H986 0.931 . S
C1000 C999 1.385 . S
C1000 C1001 1.389 . S
C1001 C1000 1.389 . S
C1001 C1002 1.387 1_554 S
C1002 H987 0.930 . S
C1002 C997 1.390 . S
C1002 C1001 1.387 1_556 S
H1003 C1015 0.930 . S
H1004 C1017 0.930 . S
H1005 C1018 0.930 . S
H1006 C1022 0.959 . S
H1007 C1022 0.959 . S
H1008 C1022 0.961 . S
H1009 C1023 0.960 . S
H1010 C1023 0.961 . S
H1011 C1023 0.959 . S
H1012 C1026 0.929 . S
H1013 C1027 0.931 . S
H1014 C1029 0.930 . S
C1015 H1003 0.930 . S
C1015 C1016 1.399 . S
C1015 C1020 1.399 . S
C1016 C1015 1.399 . S
C1016 C1017 1.376 . S
C1017 H1004 0.930 . S
C1017 C1016 1.376 . S
C1017 C1018 1.388 . S
C1018 H1005 0.930 . S
C1018 C1017 1.388 . S
C1018 C1019 1.390 . S
C1019 C1018 1.390 . S
C1019 C1020 1.394 . S
C1019 C1025 1.465 . S
C1020 C1015 1.399 . S
C1020 C1019 1.394 . S
C1020 C1021 1.516 . S
C1021 C1020 1.516 . S
C1021 C1022 1.502 . S
C1021 C1023 1.561 . S
C1021 C1024 1.526 . S
C1022 H1006 0.959 . S
C1022 H1007 0.959 . S
C1022 H1008 0.961 . S
C1022 C1021 1.502 . S
C1023 H1009 0.960 . S
C1023 H1010 0.961 . S
C1023 H1011 0.959 . S
C1023 C1021 1.561 . S
C1024 C1021 1.526 . S
C1024 C1025 1.396 . S
C1024 C1029 1.390 . S
C1025 C1019 1.465 . S
C1025 C1024 1.396 . S
C1025 C1026 1.399 . S
C1026 H1012 0.929 . S
C1026 C1025 1.399 . S
C1026 C1027 1.385 . S
C1027 H1013 0.931 . S
C1027 C1026 1.385 . S
C1027 C1028 1.389 . S
C1028 C1027 1.389 . S
C1028 C1029 1.387 . S
C1029 H1014 0.930 . S
C1029 C1024 1.390 . S
C1029 C1028 1.387 . S
H1030 C1042 0.930 . S
H1031 C1044 0.930 . S
H1032 C1045 0.930 . S
H1033 C1049 0.959 . S
H1034 C1049 0.959 . S
H1035 C1049 0.961 . S
H1036 C1050 0.960 . S
H1037 C1050 0.961 . S
H1038 C1050 0.959 . S
H1039 C1053 0.929 . S
H1040 C1054 0.931 . S
H1041 C1056 0.930 1_545 S
C1042 H1030 0.930 . S
C1042 C1043 1.399 . S
C1042 C1047 1.399 . S
C1043 C1042 1.399 . S
C1043 C1044 1.376 . S
C1044 H1031 0.930 . S
C1044 C1043 1.376 . S
C1044 C1045 1.388 . S
C1045 H1032 0.930 . S
C1045 C1044 1.388 . S
C1045 C1046 1.390 . S
C1046 C1045 1.390 . S
C1046 C1047 1.394 . S
C1046 C1052 1.465 . S
C1047 C1042 1.399 . S
C1047 C1046 1.394 . S
C1047 C1048 1.516 . S
C1048 C1047 1.516 . S
C1048 C1049 1.502 . S
C1048 C1050 1.561 . S
C1048 C1051 1.526 . S
C1049 H1033 0.959 . S
C1049 H1034 0.959 . S
C1049 H1035 0.961 . S
C1049 C1048 1.502 . S
C1050 H1036 0.960 . S
C1050 H1037 0.961 . S
C1050 H1038 0.959 . S
C1050 C1048 1.561 . S
C1051 C1048 1.526 . S
C1051 C1052 1.396 . S
C1051 C1056 1.390 . S
C1052 C1046 1.465 . S
C1052 C1051 1.396 . S
C1052 C1053 1.399 . S
C1053 H1039 0.929 . S
C1053 C1052 1.399 . S
C1053 C1054 1.385 . S
C1054 H1040 0.931 . S
C1054 C1053 1.385 . S
C1054 C1055 1.389 1_565 S
C1055 C1054 1.389 1_545 S
C1055 C1056 1.387 1_545 S
C1056 H1041 0.930 1_565 S
C1056 C1051 1.390 . S
C1056 C1055 1.387 1_565 S
H1057 C1069 0.930 . S
H1058 C1071 0.930 . S
H1059 C1072 0.930 . S
H1060 C1076 0.959 . S
H1061 C1076 0.959 . S
H1062 C1076 0.961 . S
H1063 C1077 0.960 . S
H1064 C1077 0.961 . S
H1065 C1077 0.959 . S
H1066 C1080 0.929 . S
H1067 C1081 0.931 . S
H1068 C1083 0.930 . S
C1069 H1057 0.930 . S
C1069 C1070 1.399 . S
C1069 C1074 1.399 . S
C1070 C1069 1.399 . S
C1070 C1071 1.376 . S
C1071 H1058 0.930 . S
C1071 C1070 1.376 . S
C1071 C1072 1.388 . S
C1072 H1059 0.930 . S
C1072 C1071 1.388 . S
C1072 C1073 1.390 . S
C1073 C1072 1.390 . S
C1073 C1074 1.394 . S
C1073 C1079 1.465 . S
C1074 C1069 1.399 . S
C1074 C1073 1.394 . S
C1074 C1075 1.516 . S
C1075 C1074 1.516 . S
C1075 C1076 1.502 . S
C1075 C1077 1.561 . S
C1075 C1078 1.526 . S
C1076 H1060 0.959 . S
C1076 H1061 0.959 . S
C1076 H1062 0.961 . S
C1076 C1075 1.502 . S
C1077 H1063 0.960 . S
C1077 H1064 0.961 . S
C1077 H1065 0.959 . S
C1077 C1075 1.561 . S
C1078 C1075 1.526 . S
C1078 C1079 1.396 . S
C1078 C1083 1.390 . S
C1079 C1073 1.465 . S
C1079 C1078 1.396 . S
C1079 C1080 1.399 . S
C1080 H1066 0.929 . S
C1080 C1079 1.399 . S
C1080 C1081 1.385 . S
C1081 H1067 0.931 . S
C1081 C1080 1.385 . S
C1081 C1082 1.389 . S
C1082 C1081 1.389 . S
C1082 C1083 1.387 . S
C1083 H1068 0.930 . S
C1083 C1078 1.390 . S
C1083 C1082 1.387 . S
H1084 C1096 0.930 . S
H1085 C1098 0.930 . S
H1086 C1099 0.930 . S
H1087 C1103 0.959 . S
H1088 C1103 0.959 . S
H1089 C1103 0.961 . S
H1090 C1104 0.960 . S
H1091 C1104 0.961 . S
H1092 C1104 0.959 . S
H1093 C1107 0.929 . S
H1094 C1108 0.931 . S
H1095 C1110 0.930 1_545 S
C1096 H1084 0.930 . S
C1096 C1097 1.399 . S
C1096 C1101 1.399 . S
C1097 C1096 1.399 . S
C1097 C1098 1.376 . S
C1098 H1085 0.930 . S
C1098 C1097 1.376 . S
C1098 C1099 1.388 . S
C1099 H1086 0.930 . S
C1099 C1098 1.388 . S
C1099 C1100 1.390 . S
C1100 C1099 1.390 . S
C1100 C1101 1.394 . S
C1100 C1106 1.465 . S
C1101 C1096 1.399 . S
C1101 C1100 1.394 . S
C1101 C1102 1.516 . S
C1102 C1101 1.516 . S
C1102 C1103 1.502 . S
C1102 C1104 1.561 . S
C1102 C1105 1.526 . S
C1103 H1087 0.959 . S
C1103 H1088 0.959 . S
C1103 H1089 0.961 . S
C1103 C1102 1.502 . S
C1104 H1090 0.960 . S
C1104 H1091 0.961 . S
C1104 H1092 0.959 . S
C1104 C1102 1.561 . S
C1105 C1102 1.526 . S
C1105 C1106 1.396 . S
C1105 C1110 1.390 . S
C1106 C1100 1.465 . S
C1106 C1105 1.396 . S
C1106 C1107 1.399 . S
C1107 H1093 0.929 . S
C1107 C1106 1.399 . S
C1107 C1108 1.385 1_565 S
C1108 H1094 0.931 . S
C1108 C1107 1.385 1_545 S
C1108 C1109 1.389 . S
C1109 C1108 1.389 . S
C1109 C1110 1.387 1_545 S
C1110 H1095 0.930 1_565 S
C1110 C1105 1.390 . S
C1110 C1109 1.387 1_565 S
H1111 C1123 0.930 . S
H1112 C1125 0.930 . S
H1113 C1126 0.930 . S
H1114 C1130 0.959 . S
H1115 C1130 0.959 . S
H1116 C1130 0.961 . S
H1117 C1131 0.960 . S
H1118 C1131 0.961 . S
H1119 C1131 0.959 . S
H1120 C1134 0.929 . S
H1121 C1135 0.931 . S
H1122 C1137 0.930 . S
C1123 H1111 0.930 . S
C1123 C1124 1.399 . S
C1123 C1128 1.399 . S
C1124 C1123 1.399 . S
C1124 C1125 1.376 . S
C1125 H1112 0.930 . S
C1125 C1124 1.376 . S
C1125 C1126 1.388 . S
C1126 H1113 0.930 . S
C1126 C1125 1.388 . S
C1126 C1127 1.390 . S
C1127 C1126 1.390 . S
C1127 C1128 1.394 . S
C1127 C1133 1.465 . S
C1128 C1123 1.399 . S
C1128 C1127 1.394 . S
C1128 C1129 1.516 . S
C1129 C1128 1.516 . S
C1129 C1130 1.502 . S
C1129 C1131 1.561 . S
C1129 C1132 1.526 . S
C1130 H1114 0.959 . S
C1130 H1115 0.959 . S
C1130 H1116 0.961 . S
C1130 C1129 1.502 . S
C1131 H1117 0.960 . S
C1131 H1118 0.961 . S
C1131 H1119 0.959 . S
C1131 C1129 1.561 . S
C1132 C1129 1.526 . S
C1132 C1133 1.396 . S
C1132 C1137 1.390 . S
C1133 C1127 1.465 . S
C1133 C1132 1.396 . S
C1133 C1134 1.399 . S
C1134 H1120 0.929 . S
C1134 C1133 1.399 . S
C1134 C1135 1.385 . S
C1135 H1121 0.931 . S
C1135 C1134 1.385 . S
C1135 C1136 1.389 . S
C1136 C1135 1.389 . S
C1136 C1137 1.387 . S
C1137 H1122 0.930 . S
C1137 C1132 1.390 . S
C1137 C1136 1.387 . S
H1138 C1150 0.930 . S
H1139 C1152 0.930 . S
H1140 C1153 0.930 . S
H1141 C1157 0.959 . S
H1142 C1157 0.959 . S
H1143 C1157 0.961 . S
H1144 C1158 0.960 . S
H1145 C1158 0.961 . S
H1146 C1158 0.959 . S
H1147 C1161 0.929 . S
H1148 C1162 0.931 . S
H1149 C1164 0.930 . S
C1150 H1138 0.930 . S
C1150 C1151 1.399 . S
C1150 C1155 1.399 . S
C1151 C1150 1.399 . S
C1151 C1152 1.376 . S
C1152 H1139 0.930 . S
C1152 C1151 1.376 . S
C1152 C1153 1.388 . S
C1153 H1140 0.930 . S
C1153 C1152 1.388 . S
C1153 C1154 1.390 . S
C1154 C1153 1.390 . S
C1154 C1155 1.394 . S
C1154 C1160 1.465 . S
C1155 C1150 1.399 . S
C1155 C1154 1.394 . S
C1155 C1156 1.516 . S
C1156 C1155 1.516 . S
C1156 C1157 1.502 . S
C1156 C1158 1.561 . S
C1156 C1159 1.526 . S
C1157 H1141 0.959 . S
C1157 H1142 0.959 . S
C1157 H1143 0.961 . S
C1157 C1156 1.502 . S
C1158 H1144 0.960 . S
C1158 H1145 0.961 . S
C1158 H1146 0.959 . S
C1158 C1156 1.561 . S
C1159 C1156 1.526 . S
C1159 C1160 1.396 . S
C1159 C1164 1.390 . S
C1160 C1154 1.465 . S
C1160 C1159 1.396 . S
C1160 C1161 1.399 . S
C1161 H1147 0.929 . S
C1161 C1160 1.399 . S
C1161 C1162 1.385 . S
C1162 H1148 0.931 . S
C1162 C1161 1.385 . S
C1162 C1163 1.389 . S
C1163 C1162 1.389 . S
C1163 C1164 1.387 . S
C1164 H1149 0.930 . S
C1164 C1159 1.390 . S
C1164 C1163 1.387 . S
H1165 C1177 0.930 . S
H1166 C1179 0.930 . S
H1167 C1180 0.930 . S
H1168 C1184 0.959 . S
H1169 C1184 0.959 . S
H1170 C1184 0.961 . S
H1171 C1185 0.960 . S
H1172 C1185 0.961 . S
H1173 C1185 0.959 . S
H1174 C1188 0.929 . S
H1175 C1189 0.931 . S
H1176 C1191 0.930 . S
C1177 H1165 0.930 . S
C1177 C1178 1.399 . S
C1177 C1182 1.399 . S
C1178 C1177 1.399 . S
C1178 C1179 1.376 . S
C1179 H1166 0.930 . S
C1179 C1178 1.376 . S
C1179 C1180 1.388 . S
C1180 H1167 0.930 . S
C1180 C1179 1.388 . S
C1180 C1181 1.390 . S
C1181 C1180 1.390 . S
C1181 C1182 1.394 . S
C1181 C1187 1.465 . S
C1182 C1177 1.399 . S
C1182 C1181 1.394 . S
C1182 C1183 1.516 . S
C1183 C1182 1.516 . S
C1183 C1184 1.502 . S
C1183 C1185 1.561 . S
C1183 C1186 1.526 . S
C1184 H1168 0.959 . S
C1184 H1169 0.959 . S
C1184 H1170 0.961 . S
C1184 C1183 1.502 . S
C1185 H1171 0.960 . S
C1185 H1172 0.961 . S
C1185 H1173 0.959 . S
C1185 C1183 1.561 . S
C1186 C1183 1.526 . S
C1186 C1187 1.396 . S
C1186 C1191 1.390 . S
C1187 C1181 1.465 . S
C1187 C1186 1.396 . S
C1187 C1188 1.399 . S
C1188 H1174 0.929 . S
C1188 C1187 1.399 . S
C1188 C1189 1.385 . S
C1189 H1175 0.931 . S
C1189 C1188 1.385 . S
C1189 C1190 1.389 . S
C1190 C1189 1.389 . S
C1190 C1191 1.387 . S
C1191 H1176 0.930 . S
C1191 C1186 1.390 . S
C1191 C1190 1.387 . S
H1192 C1204 0.930 . S
H1193 C1206 0.930 . S
H1194 C1207 0.930 . S
H1195 C1211 0.959 . S
H1196 C1211 0.959 . S
H1197 C1211 0.961 . S
H1198 C1212 0.960 . S
H1199 C1212 0.961 1_455 S
H1200 C1212 0.959 1_455 S
H1201 C1215 0.929 . S
H1202 C1216 0.931 . S
H1203 C1218 0.930 . S
C1204 H1192 0.930 . S
C1204 C1205 1.399 . S
C1204 C1209 1.399 . S
C1205 C1204 1.399 . S
C1205 C1206 1.376 . S
C1206 H1193 0.930 . S
C1206 C1205 1.376 . S
C1206 C1207 1.388 . S
C1207 H1194 0.930 . S
C1207 C1206 1.388 . S
C1207 C1208 1.390 . S
C1208 C1207 1.390 . S
C1208 C1209 1.394 . S
C1208 C1214 1.465 . S
C1209 C1204 1.399 . S
C1209 C1208 1.394 . S
C1209 C1210 1.516 . S
C1210 C1209 1.516 . S
C1210 C1211 1.502 . S
C1210 C1212 1.561 . S
C1210 C1213 1.526 . S
C1211 H1195 0.959 . S
C1211 H1196 0.959 . S
C1211 H1197 0.961 . S
C1211 C1210 1.502 . S
C1212 H1198 0.960 . S
C1212 H1199 0.961 1_655 S
C1212 H1200 0.959 1_655 S
C1212 C1210 1.561 . S
C1213 C1210 1.526 . S
C1213 C1214 1.396 . S
C1213 C1218 1.390 1_655 S
C1214 C1208 1.465 . S
C1214 C1213 1.396 . S
C1214 C1215 1.399 1_655 S
C1215 H1201 0.929 . S
C1215 C1214 1.399 1_455 S
C1215 C1216 1.385 . S
C1216 H1202 0.931 . S
C1216 C1215 1.385 . S
C1216 C1217 1.389 . S
C1217 C1216 1.389 . S
C1217 C1218 1.387 . S
C1218 H1203 0.930 . S
C1218 C1213 1.390 1_455 S
C1218 C1217 1.387 . S
H1219 C1231 0.930 . S
H1220 C1233 0.930 . S
H1221 C1234 0.930 . S
H1222 C1238 0.959 . S
H1223 C1238 0.959 . S
H1224 C1238 0.961 . S
H1225 C1239 0.960 . S
H1226 C1239 0.961 . S
H1227 C1239 0.959 . S
H1228 C1242 0.929 . S
H1229 C1243 0.931 . S
H1230 C1245 0.930 . S
C1231 H1219 0.930 . S
C1231 C1232 1.399 . S
C1231 C1236 1.399 . S
C1232 C1231 1.399 . S
C1232 C1233 1.376 . S
C1233 H1220 0.930 . S
C1233 C1232 1.376 . S
C1233 C1234 1.388 . S
C1234 H1221 0.930 . S
C1234 C1233 1.388 . S
C1234 C1235 1.390 . S
C1235 C1234 1.390 . S
C1235 C1236 1.394 . S
C1235 C1241 1.465 . S
C1236 C1231 1.399 . S
C1236 C1235 1.394 . S
C1236 C1237 1.516 . S
C1237 C1236 1.516 . S
C1237 C1238 1.502 . S
C1237 C1239 1.561 . S
C1237 C1240 1.526 . S
C1238 H1222 0.959 . S
C1238 H1223 0.959 . S
C1238 H1224 0.961 . S
C1238 C1237 1.502 . S
C1239 H1225 0.960 . S
C1239 H1226 0.961 . S
C1239 H1227 0.959 . S
C1239 C1237 1.561 . S
C1240 C1237 1.526 . S
C1240 C1241 1.396 . S
C1240 C1245 1.390 . S
C1241 C1235 1.465 . S
C1241 C1240 1.396 . S
C1241 C1242 1.399 . S
C1242 H1228 0.929 . S
C1242 C1241 1.399 . S
C1242 C1243 1.385 . S
C1243 H1229 0.931 . S
C1243 C1242 1.385 . S
C1243 C1244 1.389 . S
C1244 C1243 1.389 . S
C1244 C1245 1.387 . S
C1245 H1230 0.930 . S
C1245 C1240 1.390 . S
C1245 C1244 1.387 . S
H1246 C1258 0.930 . S
H1247 C1260 0.930 . S
H1248 C1261 0.930 . S
H1249 C1265 0.959 . S
H1250 C1265 0.959 . S
H1251 C1265 0.961 1_565 S
H1252 C1266 0.960 . S
H1253 C1266 0.961 . S
H1254 C1266 0.959 . S
H1255 C1269 0.929 . S
H1256 C1270 0.931 . S
H1257 C1272 0.930 . S
C1258 H1246 0.930 . S
C1258 C1259 1.396 1_565 S
C1258 C1263 1.399 1_565 S
C1259 C1258 1.396 1_545 S
C1259 C1260 1.417 . S
C1260 H1247 0.930 . S
C1260 C1259 1.417 . S
C1260 C1261 1.388 . S
C1261 H1248 0.930 . S
C1261 C1260 1.388 . S
C1261 C1262 1.390 . S
C1262 C1261 1.390 . S
C1262 C1263 1.394 . S
C1262 C1268 1.465 . S
C1263 C1258 1.399 1_545 S
C1263 C1262 1.394 . S
C1263 C1264 1.516 . S
C1264 C1263 1.516 . S
C1264 C1265 1.502 . S
C1264 C1266 1.561 1_545 S
C1264 C1267 1.526 . S
C1265 H1249 0.959 . S
C1265 H1250 0.959 . S
C1265 H1251 0.961 1_545 S
C1265 C1264 1.502 . S
C1266 H1252 0.960 . S
C1266 H1253 0.961 . S
C1266 H1254 0.959 . S
C1266 C1264 1.561 1_565 S
C1267 C1264 1.526 . S
C1267 C1268 1.396 . S
C1267 C1272 1.390 . S
C1268 C1262 1.465 . S
C1268 C1267 1.396 . S
C1268 C1269 1.399 . S
C1269 H1255 0.929 . S
C1269 C1268 1.399 . S
C1269 C1270 1.385 . S
C1270 H1256 0.931 . S
C1270 C1269 1.385 . S
C1270 C1271 1.389 . S
C1271 C1270 1.389 . S
C1271 C1272 1.387 . S
C1272 H1257 0.930 . S
C1272 C1267 1.390 . S
C1272 C1271 1.387 . S
H1273 C1285 0.930 . S
H1274 C1287 0.930 . S
H1275 C1288 0.930 . S
H1276 C1292 0.959 . S
H1277 C1292 0.959 . S
H1278 C1292 0.961 . S
H1279 C1293 0.960 . S
H1280 C1293 0.961 . S
H1281 C1293 0.959 . S
H1282 C1296 0.929 . S
H1283 C1297 0.931 . S
H1284 C1299 0.930 . S
C1285 H1273 0.930 . S
C1285 C1286 1.399 . S
C1285 C1290 1.399 . S
C1286 C1285 1.399 . S
C1286 C1287 1.376 . S
C1287 H1274 0.930 . S
C1287 C1286 1.376 . S
C1287 C1288 1.388 . S
C1288 H1275 0.930 . S
C1288 C1287 1.388 . S
C1288 C1289 1.390 . S
C1289 C1288 1.390 . S
C1289 C1290 1.394 . S
C1289 C1295 1.465 . S
C1290 C1285 1.399 . S
C1290 C1289 1.394 . S
C1290 C1291 1.516 . S
C1291 C1290 1.516 . S
C1291 C1292 1.502 . S
C1291 C1293 1.561 . S
C1291 C1294 1.526 . S
C1292 H1276 0.959 . S
C1292 H1277 0.959 . S
C1292 H1278 0.961 . S
C1292 C1291 1.502 . S
C1293 H1279 0.960 . S
C1293 H1280 0.961 . S
C1293 H1281 0.959 . S
C1293 C1291 1.561 . S
C1294 C1291 1.526 . S
C1294 C1295 1.396 . S
C1294 C1299 1.390 . S
C1295 C1289 1.465 . S
C1295 C1294 1.396 . S
C1295 C1296 1.399 . S
C1296 H1282 0.929 . S
C1296 C1295 1.399 . S
C1296 C1297 1.385 . S
C1297 H1283 0.931 . S
C1297 C1296 1.385 . S
C1297 C1298 1.389 . S
C1298 C1297 1.389 . S
C1298 C1299 1.387 . S
C1299 H1284 0.930 . S
C1299 C1294 1.390 . S
C1299 C1298 1.387 . S
H1300 C1312 0.930 . S
H1301 C1314 0.930 . S
H1302 C1315 0.930 . S
H1303 C1319 0.959 1_455 S
H1304 C1319 0.959 1_455 S
H1305 C1319 0.961 . S
H1306 C1320 0.960 . S
H1307 C1320 0.961 . S
H1308 C1320 0.959 . S
H1309 C1323 0.929 . S
H1310 C1324 0.931 . S
H1311 C1326 0.930 1_455 S
C1312 H1300 0.930 . S
C1312 C1313 1.399 . S
C1312 C1317 1.399 . S
C1313 C1312 1.399 . S
C1313 C1314 1.376 . S
C1314 H1301 0.930 . S
C1314 C1313 1.376 . S
C1314 C1315 1.388 . S
C1315 H1302 0.930 . S
C1315 C1314 1.388 . S
C1315 C1316 1.390 . S
C1316 C1315 1.390 . S
C1316 C1317 1.394 . S
C1316 C1322 1.465 . S
C1317 C1312 1.399 . S
C1317 C1316 1.394 . S
C1317 C1318 1.516 . S
C1318 C1317 1.516 . S
C1318 C1319 1.502 . S
C1318 C1320 1.561 . S
C1318 C1321 1.526 . S
C1319 H1303 0.959 1_655 S
C1319 H1304 0.959 1_655 S
C1319 H1305 0.961 . S
C1319 C1318 1.502 . S
C1320 H1306 0.960 . S
C1320 H1307 0.961 . S
C1320 H1308 0.959 . S
C1320 C1318 1.561 . S
C1321 C1318 1.526 . S
C1321 C1322 1.396 . S
C1321 C1326 1.390 . S
C1322 C1316 1.465 . S
C1322 C1321 1.396 . S
C1322 C1323 1.399 . S
C1323 H1309 0.929 . S
C1323 C1322 1.399 . S
C1323 C1324 1.385 . S
C1324 H1310 0.931 . S
C1324 C1323 1.385 . S
C1324 C1325 1.389 . S
C1325 C1324 1.389 . S
C1325 C1326 1.387 . S
C1326 H1311 0.930 1_655 S
C1326 C1321 1.390 . S
C1326 C1325 1.387 . S
H1327 C1339 0.930 . S
H1328 C1341 0.930 . S
H1329 C1342 0.930 . S
H1330 C1346 0.959 . S
H1331 C1346 0.959 . S
H1332 C1346 0.961 . S
H1333 C1347 0.960 . S
H1334 C1347 0.961 . S
H1335 C1347 0.959 . S
H1336 C1350 0.929 . S
H1337 C1351 0.931 . S
H1338 C1353 0.930 . S
C1339 H1327 0.930 . S
C1339 C1340 1.399 . S
C1339 C1344 1.399 . S
C1340 C1339 1.399 . S
C1340 C1341 1.376 . S
C1341 H1328 0.930 . S
C1341 C1340 1.376 . S
C1341 C1342 1.388 . S
C1342 H1329 0.930 . S
C1342 C1341 1.388 . S
C1342 C1343 1.390 . S
C1343 C1342 1.390 . S
C1343 C1344 1.394 . S
C1343 C1349 1.465 . S
C1344 C1339 1.399 . S
C1344 C1343 1.394 . S
C1344 C1345 1.516 . S
C1345 C1344 1.516 . S
C1345 C1346 1.502 . S
C1345 C1347 1.561 . S
C1345 C1348 1.526 . S
C1346 H1330 0.959 . S
C1346 H1331 0.959 . S
C1346 H1332 0.961 . S
C1346 C1345 1.502 . S
C1347 H1333 0.960 . S
C1347 H1334 0.961 . S
C1347 H1335 0.959 . S
C1347 C1345 1.561 . S
C1348 C1345 1.526 . S
C1348 C1349 1.396 . S
C1348 C1353 1.390 . S
C1349 C1343 1.465 . S
C1349 C1348 1.396 . S
C1349 C1350 1.399 . S
C1350 H1336 0.929 . S
C1350 C1349 1.399 . S
C1350 C1351 1.385 . S
C1351 H1337 0.931 . S
C1351 C1350 1.385 . S
C1351 C1352 1.389 . S
C1352 C1351 1.389 . S
C1352 C1353 1.387 . S
C1353 H1338 0.930 . S
C1353 C1348 1.390 . S
C1353 C1352 1.387 . S
H1354 C1366 0.930 . S
H1355 C1368 0.935 . S
H1356 C1369 0.930 . S
H1357 C1373 0.959 . S
H1358 C1373 0.959 . S
H1359 C1373 0.961 . S
H1360 C1374 0.960 . S
H1361 C1374 0.961 . S
H1362 C1374 0.959 . S
H1363 C1377 0.929 . S
H1364 C1378 0.931 . S
H1365 C1380 0.930 . S
C1366 H1354 0.930 . S
C1366 C1367 1.399 . S
C1366 C1371 1.399 . S
C1367 C1366 1.399 . S
C1367 C1368 1.376 1_545 S
C1368 H1355 0.935 . S
C1368 C1367 1.376 1_565 S
C1368 C1369 1.384 1_565 S
C1369 H1356 0.930 . S
C1369 C1368 1.384 1_545 S
C1369 C1370 1.390 . S
C1370 C1369 1.390 . S
C1370 C1371 1.394 . S
C1370 C1376 1.465 . S
C1371 C1366 1.399 . S
C1371 C1370 1.394 . S
C1371 C1372 1.516 . S
C1372 C1371 1.516 . S
C1372 C1373 1.502 . S
C1372 C1374 1.561 . S
C1372 C1375 1.526 . S
C1373 H1357 0.959 . S
C1373 H1358 0.959 . S
C1373 H1359 0.961 . S
C1373 C1372 1.502 . S
C1374 H1360 0.960 . S
C1374 H1361 0.961 . S
C1374 H1362 0.959 . S
C1374 C1372 1.561 . S
C1375 C1372 1.526 . S
C1375 C1376 1.396 . S
C1375 C1380 1.390 . S
C1376 C1370 1.465 . S
C1376 C1375 1.396 . S
C1376 C1377 1.399 . S
C1377 H1363 0.929 . S
C1377 C1376 1.399 . S
C1377 C1378 1.385 . S
C1378 H1364 0.931 . S
C1378 C1377 1.385 . S
C1378 C1379 1.389 . S
C1379 C1378 1.389 . S
C1379 C1380 1.387 . S
C1380 H1365 0.930 . S
C1380 C1375 1.390 . S
C1380 C1379 1.387 . S
H1381 C1393 0.930 . S
H1382 C1395 0.930 . S
H1383 C1396 0.930 . S
H1384 C1400 0.959 . S
H1385 C1400 0.959 . S
H1386 C1400 0.961 . S
H1387 C1401 0.960 . S
H1388 C1401 0.961 . S
H1389 C1401 0.959 . S
H1390 C1404 0.929 . S
H1391 C1405 0.931 . S
H1392 C1407 0.930 . S
C1393 H1381 0.930 . S
C1393 C1394 1.399 . S
C1393 C1398 1.399 . S
C1394 C1393 1.399 . S
C1394 C1395 1.376 . S
C1395 H1382 0.930 . S
C1395 C1394 1.376 . S
C1395 C1396 1.388 . S
C1396 H1383 0.930 . S
C1396 C1395 1.388 . S
C1396 C1397 1.390 . S
C1397 C1396 1.390 . S
C1397 C1398 1.394 . S
C1397 C1403 1.465 . S
C1398 C1393 1.399 . S
C1398 C1397 1.394 . S
C1398 C1399 1.516 . S
C1399 C1398 1.516 . S
C1399 C1400 1.502 . S
C1399 C1401 1.561 . S
C1399 C1402 1.526 . S
C1400 H1384 0.959 . S
C1400 H1385 0.959 . S
C1400 H1386 0.961 . S
C1400 C1399 1.502 . S
C1401 H1387 0.960 . S
C1401 H1388 0.961 . S
C1401 H1389 0.959 . S
C1401 C1399 1.561 . S
C1402 C1399 1.526 . S
C1402 C1403 1.396 . S
C1402 C1407 1.390 . S
C1403 C1397 1.465 . S
C1403 C1402 1.396 . S
C1403 C1404 1.399 . S
C1404 H1390 0.929 . S
C1404 C1403 1.399 . S
C1404 C1405 1.385 . S
C1405 H1391 0.931 . S
C1405 C1404 1.385 . S
C1405 C1406 1.389 . S
C1406 C1405 1.389 . S
C1406 C1407 1.387 . S
C1407 H1392 0.930 . S
C1407 C1402 1.390 . S
C1407 C1406 1.387 . S
H1408 C1420 0.930 . S
H1409 C1422 0.930 . S
H1410 C1423 0.930 . S
H1411 C1427 0.959 . S
H1412 C1427 0.959 . S
H1413 C1427 0.961 . S
H1414 C1428 0.960 . S
H1415 C1428 0.961 . S
H1416 C1428 0.959 . S
H1417 C1431 0.929 . S
H1418 C1432 0.931 . S
H1419 C1434 0.930 . S
C1420 H1408 0.930 . S
C1420 C1421 1.399 . S
C1420 C1425 1.399 . S
C1421 C1420 1.399 . S
C1421 C1422 1.376 . S
C1422 H1409 0.930 . S
C1422 C1421 1.376 . S
C1422 C1423 1.388 . S
C1423 H1410 0.930 . S
C1423 C1422 1.388 . S
C1423 C1424 1.390 . S
C1424 C1423 1.390 . S
C1424 C1425 1.394 . S
C1424 C1430 1.465 . S
C1425 C1420 1.399 . S
C1425 C1424 1.394 . S
C1425 C1426 1.516 1_565 S
C1426 C1425 1.516 1_545 S
C1426 C1427 1.502 . S
C1426 C1428 1.561 1_545 S
C1426 C1429 1.526 . S
C1427 H1411 0.959 . S
C1427 H1412 0.959 . S
C1427 H1413 0.961 . S
C1427 C1426 1.502 . S
C1428 H1414 0.960 . S
C1428 H1415 0.961 . S
C1428 H1416 0.959 . S
C1428 C1426 1.561 1_565 S
C1429 C1426 1.526 . S
C1429 C1430 1.396 1_545 S
C1429 C1434 1.390 . S
C1430 C1424 1.465 . S
C1430 C1429 1.396 1_565 S
C1430 C1431 1.399 . S
C1431 H1417 0.929 . S
C1431 C1430 1.399 . S
C1431 C1432 1.385 1_565 S
C1432 H1418 0.931 . S
C1432 C1431 1.385 1_545 S
C1432 C1433 1.389 . S
C1433 C1432 1.389 . S
C1433 C1434 1.387 . S
C1434 H1419 0.930 . S
C1434 C1429 1.390 . S
C1434 C1433 1.387 . S
H1435 C1447 0.930 1_556 S
H1436 C1449 0.930 . S
H1437 C1450 0.930 . S
H1438 C1454 0.959 . S
H1439 C1454 0.959 . S
H1440 C1454 0.961 . S
H1441 C1455 0.960 . S
H1442 C1455 0.961 . S
H1443 C1455 0.959 . S
H1444 C1458 0.929 . S
H1445 C1459 0.931 . S
H1446 C1461 0.930 1_556 S
C1447 H1435 0.930 1_554 S
C1447 C1448 1.399 . S
C1447 C1452 1.399 . S
C1448 C1447 1.399 . S
C1448 C1449 1.376 . S
C1449 H1436 0.930 . S
C1449 C1448 1.376 . S
C1449 C1450 1.388 . S
C1450 H1437 0.930 . S
C1450 C1449 1.388 . S
C1450 C1451 1.390 . S
C1451 C1450 1.390 . S
C1451 C1452 1.394 . S
C1451 C1457 1.465 . S
C1452 C1447 1.399 . S
C1452 C1451 1.394 . S
C1452 C1453 1.516 1_554 S
C1453 C1452 1.516 1_556 S
C1453 C1454 1.502 . S
C1453 C1455 1.561 . S
C1453 C1456 1.526 1_556 S
C1454 H1438 0.959 . S
C1454 H1439 0.959 . S
C1454 H1440 0.961 . S
C1454 C1453 1.502 . S
C1455 H1441 0.960 . S
C1455 H1442 0.961 . S
C1455 H1443 0.959 . S
C1455 C1453 1.561 . S
C1456 C1453 1.526 1_554 S
C1456 C1457 1.396 . S
C1456 C1461 1.390 . S
C1457 C1451 1.465 . S
C1457 C1456 1.396 . S
C1457 C1458 1.399 . S
C1458 H1444 0.929 . S
C1458 C1457 1.399 . S
C1458 C1459 1.385 . S
C1459 H1445 0.931 . S
C1459 C1458 1.385 . S
C1459 C1460 1.389 . S
C1460 C1459 1.389 . S
C1460 C1461 1.387 . S
C1461 H1446 0.930 1_554 S
C1461 C1456 1.390 . S
C1461 C1460 1.387 . S
H1462 C1474 0.930 . S
H1463 C1476 0.930 . S
H1464 C1477 0.930 . S
H1465 C1481 0.959 . S
H1466 C1481 0.959 . S
H1467 C1481 0.961 . S
H1468 C1482 0.960 . S
H1469 C1482 0.961 . S
H1470 C1482 0.959 . S
H1471 C1485 0.929 . S
H1472 C1486 0.931 . S
H1473 C1488 0.930 . S
C1474 H1462 0.930 . S
C1474 C1475 1.399 . S
C1474 C1479 1.399 . S
C1475 C1474 1.399 . S
C1475 C1476 1.376 . S
C1476 H1463 0.930 . S
C1476 C1475 1.376 . S
C1476 C1477 1.388 . S
C1477 H1464 0.930 . S
C1477 C1476 1.388 . S
C1477 C1478 1.390 . S
C1478 C1477 1.390 . S
C1478 C1479 1.394 . S
C1478 C1484 1.465 . S
C1479 C1474 1.399 . S
C1479 C1478 1.394 . S
C1479 C1480 1.516 . S
C1480 C1479 1.516 . S
C1480 C1481 1.502 . S
C1480 C1482 1.561 . S
C1480 C1483 1.526 . S
C1481 H1465 0.959 . S
C1481 H1466 0.959 . S
C1481 H1467 0.961 . S
C1481 C1480 1.502 . S
C1482 H1468 0.960 . S
C1482 H1469 0.961 . S
C1482 H1470 0.959 . S
C1482 C1480 1.561 . S
C1483 C1480 1.526 . S
C1483 C1484 1.396 . S
C1483 C1488 1.390 . S
C1484 C1478 1.465 . S
C1484 C1483 1.396 . S
C1484 C1485 1.399 . S
C1485 H1471 0.929 . S
C1485 C1484 1.399 . S
C1485 C1486 1.385 . S
C1486 H1472 0.931 . S
C1486 C1485 1.385 . S
C1486 C1487 1.389 . S
C1487 C1486 1.389 . S
C1487 C1488 1.387 . S
C1488 H1473 0.930 . S
C1488 C1483 1.390 . S
C1488 C1487 1.387 . S
H1489 C1501 0.930 . S
H1490 C1503 0.930 . S
H1491 C1504 0.930 . S
H1492 C1508 0.959 . S
H1493 C1508 0.959 . S
H1494 C1508 0.961 . S
H1495 C1509 0.960 . S
H1496 C1509 0.961 . S
H1497 C1509 0.959 . S
H1498 C1512 0.929 . S
H1499 C1513 0.931 . S
H1500 C1515 0.930 . S
C1501 H1489 0.930 . S
C1501 C1502 1.399 . S
C1501 C1506 1.399 . S
C1502 C1501 1.399 . S
C1502 C1503 1.376 . S
C1503 H1490 0.930 . S
C1503 C1502 1.376 . S
C1503 C1504 1.388 . S
C1504 H1491 0.930 . S
C1504 C1503 1.388 . S
C1504 C1505 1.390 . S
C1505 C1504 1.390 . S
C1505 C1506 1.394 . S
C1505 C1511 1.465 . S
C1506 C1501 1.399 . S
C1506 C1505 1.394 . S
C1506 C1507 1.516 . S
C1507 C1506 1.516 . S
C1507 C1508 1.502 . S
C1507 C1509 1.561 . S
C1507 C1510 1.526 . S
C1508 H1492 0.959 . S
C1508 H1493 0.959 . S
C1508 H1494 0.961 . S
C1508 C1507 1.502 . S
C1509 H1495 0.960 . S
C1509 H1496 0.961 . S
C1509 H1497 0.959 . S
C1509 C1507 1.561 . S
C1510 C1507 1.526 . S
C1510 C1511 1.396 . S
C1510 C1515 1.390 . S
C1511 C1505 1.465 . S
C1511 C1510 1.396 . S
C1511 C1512 1.399 . S
C1512 H1498 0.929 . S
C1512 C1511 1.399 . S
C1512 C1513 1.385 . S
C1513 H1499 0.931 . S
C1513 C1512 1.385 . S
C1513 C1514 1.389 . S
C1514 C1513 1.389 . S
C1514 C1515 1.387 . S
C1515 H1500 0.930 . S
C1515 C1510 1.390 . S
C1515 C1514 1.387 . S
H1516 C1528 0.930 . S
H1517 C1530 0.930 . S
H1518 C1531 0.930 . S
H1519 C1535 0.959 . S
H1520 C1535 0.959 . S
H1521 C1535 0.961 . S
H1522 C1536 0.960 . S
H1523 C1536 0.961 . S
H1524 C1536 0.959 . S
H1525 C1539 0.929 . S
H1526 C1540 0.931 . S
H1527 C1542 0.930 . S
C1528 H1516 0.930 . S
C1528 C1529 1.399 . S
C1528 C1533 1.399 . S
C1529 C1528 1.399 . S
C1529 C1530 1.376 . S
C1530 H1517 0.930 . S
C1530 C1529 1.376 . S
C1530 C1531 1.388 . S
C1531 H1518 0.930 . S
C1531 C1530 1.388 . S
C1531 C1532 1.390 . S
C1532 C1531 1.390 . S
C1532 C1533 1.394 . S
C1532 C1538 1.465 . S
C1533 C1528 1.399 . S
C1533 C1532 1.394 . S
C1533 C1534 1.516 . S
C1534 C1533 1.516 . S
C1534 C1535 1.502 . S
C1534 C1536 1.561 . S
C1534 C1537 1.526 . S
C1535 H1519 0.959 . S
C1535 H1520 0.959 . S
C1535 H1521 0.961 . S
C1535 C1534 1.502 . S
C1536 H1522 0.960 . S
C1536 H1523 0.961 . S
C1536 H1524 0.959 . S
C1536 C1534 1.561 . S
C1537 C1534 1.526 . S
C1537 C1538 1.396 . S
C1537 C1542 1.390 . S
C1538 C1532 1.465 . S
C1538 C1537 1.396 . S
C1538 C1539 1.399 . S
C1539 H1525 0.929 . S
C1539 C1538 1.399 . S
C1539 C1540 1.385 . S
C1540 H1526 0.931 . S
C1540 C1539 1.385 . S
C1540 C1541 1.389 . S
C1541 C1540 1.389 . S
C1541 C1542 1.387 . S
C1542 H1527 0.930 . S
C1542 C1537 1.390 . S
C1542 C1541 1.387 . S
H1543 C1555 0.930 . S
H1544 C1557 0.930 . S
H1545 C1558 0.930 . S
H1546 C1562 0.959 . S
H1547 C1562 0.959 . S
H1548 C1562 0.961 . S
H1549 C1563 0.960 . S
H1550 C1563 0.961 . S
H1551 C1563 0.959 . S
H1552 C1566 0.929 . S
H1553 C1567 0.931 . S
H1554 C1569 0.930 . S
C1555 H1543 0.930 . S
C1555 C1556 1.399 . S
C1555 C1560 1.399 . S
C1556 C1555 1.399 . S
C1556 C1557 1.376 . S
C1557 H1544 0.930 . S
C1557 C1556 1.376 . S
C1557 C1558 1.388 . S
C1558 H1545 0.930 . S
C1558 C1557 1.388 . S
C1558 C1559 1.390 . S
C1559 C1558 1.390 . S
C1559 C1560 1.394 . S
C1559 C1565 1.465 . S
C1560 C1555 1.399 . S
C1560 C1559 1.394 . S
C1560 C1561 1.516 . S
C1561 C1560 1.516 . S
C1561 C1562 1.502 . S
C1561 C1563 1.561 . S
C1561 C1564 1.526 . S
C1562 H1546 0.959 . S
C1562 H1547 0.959 . S
C1562 H1548 0.961 . S
C1562 C1561 1.502 . S
C1563 H1549 0.960 . S
C1563 H1550 0.961 . S
C1563 H1551 0.959 . S
C1563 C1561 1.561 . S
C1564 C1561 1.526 . S
C1564 C1565 1.396 . S
C1564 C1569 1.390 . S
C1565 C1559 1.465 . S
C1565 C1564 1.396 . S
C1565 C1566 1.399 . S
C1566 H1552 0.929 . S
C1566 C1565 1.399 . S
C1566 C1567 1.385 . S
C1567 H1553 0.931 . S
C1567 C1566 1.385 . S
C1567 C1568 1.389 . S
C1568 C1567 1.389 . S
C1568 C1569 1.387 . S
C1569 H1554 0.930 . S
C1569 C1564 1.390 . S
C1569 C1568 1.387 . S
H1570 C1582 0.930 . S
H1571 C1584 0.930 . S
H1572 C1585 0.930 . S
H1573 C1589 0.959 . S
H1574 C1589 0.959 . S
H1575 C1589 0.961 . S
H1576 C1590 0.960 . S
H1577 C1590 0.961 . S
H1578 C1590 0.959 . S
H1579 C1593 0.929 . S
H1580 C1594 0.931 . S
H1581 C1596 0.930 . S
C1582 H1570 0.930 . S
C1582 C1583 1.399 . S
C1582 C1587 1.399 . S
C1583 C1582 1.399 . S
C1583 C1584 1.376 . S
C1584 H1571 0.930 . S
C1584 C1583 1.376 . S
C1584 C1585 1.388 . S
C1585 H1572 0.930 . S
C1585 C1584 1.388 . S
C1585 C1586 1.390 . S
C1586 C1585 1.390 . S
C1586 C1587 1.394 . S
C1586 C1592 1.465 . S
C1587 C1582 1.399 . S
C1587 C1586 1.394 . S
C1587 C1588 1.516 . S
C1588 C1587 1.516 . S
C1588 C1589 1.502 . S
C1588 C1590 1.561 . S
C1588 C1591 1.526 . S
C1589 H1573 0.959 . S
C1589 H1574 0.959 . S
C1589 H1575 0.961 . S
C1589 C1588 1.502 . S
C1590 H1576 0.960 . S
C1590 H1577 0.961 . S
C1590 H1578 0.959 . S
C1590 C1588 1.561 . S
C1591 C1588 1.526 . S
C1591 C1592 1.396 . S
C1591 C1596 1.390 . S
C1592 C1586 1.465 . S
C1592 C1591 1.396 . S
C1592 C1593 1.399 . S
C1593 H1579 0.929 . S
C1593 C1592 1.399 . S
C1593 C1594 1.385 . S
C1594 H1580 0.931 . S
C1594 C1593 1.385 . S
C1594 C1595 1.389 . S
C1595 C1594 1.389 . S
C1595 C1596 1.387 . S
C1596 H1581 0.930 . S
C1596 C1591 1.390 . S
C1596 C1595 1.387 . S
H1597 C1609 0.930 . S
H1598 C1611 0.930 . S
H1599 C1612 0.930 . S
H1600 C1616 0.959 . S
H1601 C1616 0.959 . S
H1602 C1616 0.961 . S
H1603 C1617 0.960 . S
H1604 C1617 0.961 . S
H1605 C1617 0.959 . S
H1606 C1620 0.929 . S
H1607 C1621 0.931 . S
H1608 C1623 0.930 . S
C1609 H1597 0.930 . S
C1609 C1610 1.399 . S
C1609 C1614 1.399 . S
C1610 C1609 1.399 . S
C1610 C1611 1.376 . S
C1611 H1598 0.930 . S
C1611 C1610 1.376 . S
C1611 C1612 1.388 . S
C1612 H1599 0.930 . S
C1612 C1611 1.388 . S
C1612 C1613 1.390 . S
C1613 C1612 1.390 . S
C1613 C1614 1.394 . S
C1613 C1619 1.465 . S
C1614 C1609 1.399 . S
C1614 C1613 1.394 . S
C1614 C1615 1.516 . S
C1615 C1614 1.516 . S
C1615 C1616 1.502 . S
C1615 C1617 1.561 . S
C1615 C1618 1.526 . S
C1616 H1600 0.959 . S
C1616 H1601 0.959 . S
C1616 H1602 0.961 . S
C1616 C1615 1.502 . S
C1617 H1603 0.960 . S
C1617 H1604 0.961 . S
C1617 H1605 0.959 . S
C1617 C1615 1.561 . S
C1618 C1615 1.526 . S
C1618 C1619 1.396 . S
C1618 C1623 1.390 . S
C1619 C1613 1.465 . S
C1619 C1618 1.396 . S
C1619 C1620 1.399 . S
C1620 H1606 0.929 . S
C1620 C1619 1.399 . S
C1620 C1621 1.385 . S
C1621 H1607 0.931 . S
C1621 C1620 1.385 . S
C1621 C1622 1.389 . S
C1622 C1621 1.389 . S
C1622 C1623 1.387 . S
C1623 H1608 0.930 . S
C1623 C1618 1.390 . S
C1623 C1622 1.387 . S
H1624 C1636 0.930 . S
H1625 C1638 0.930 . S
H1626 C1639 0.930 . S
H1627 C1643 0.959 . S
H1628 C1643 0.956 . S
H1629 C1643 0.961 . S
H1630 C1644 0.960 . S
H1631 C1644 0.961 . S
H1632 C1644 0.959 . S
H1633 C1647 0.929 . S
H1634 C1648 0.931 . S
H1635 C1650 0.930 1_545 S
C1636 H1624 0.930 . S
C1636 C1637 1.399 . S
C1636 C1641 1.399 . S
C1637 C1636 1.399 . S
C1637 C1638 1.376 . S
C1638 H1625 0.930 . S
C1638 C1637 1.376 . S
C1638 C1639 1.388 . S
C1639 H1626 0.930 . S
C1639 C1638 1.388 . S
C1639 C1640 1.390 . S
C1640 C1639 1.390 . S
C1640 C1641 1.394 . S
C1640 C1646 1.465 . S
C1641 C1636 1.399 . S
C1641 C1640 1.394 . S
C1641 C1642 1.516 . S
C1642 C1641 1.516 . S
C1642 C1643 1.502 . S
C1642 C1644 1.561 . S
C1642 C1645 1.526 . S
C1643 H1627 0.959 . S
C1643 H1628 0.956 . S
C1643 H1629 0.961 . S
C1643 C1642 1.502 . S
C1644 H1630 0.960 . S
C1644 H1631 0.961 . S
C1644 H1632 0.959 . S
C1644 C1642 1.561 . S
C1645 C1642 1.526 . S
C1645 C1646 1.396 . S
C1645 C1650 1.390 . S
C1646 C1640 1.465 . S
C1646 C1645 1.396 . S
C1646 C1647 1.399 . S
C1647 H1633 0.929 . S
C1647 C1646 1.399 . S
C1647 C1648 1.385 . S
C1648 H1634 0.931 . S
C1648 C1647 1.385 . S
C1648 C1649 1.389 . S
C1649 C1648 1.389 . S
C1649 C1650 1.387 . S
C1650 H1635 0.930 1_565 S
C1650 C1645 1.390 . S
C1650 C1649 1.387 . S
H1651 C1663 0.930 . S
H1652 C1665 0.930 . S
H1653 C1666 0.930 . S
H1654 C1670 0.959 . S
H1655 C1670 0.959 . S
H1656 C1670 0.961 . S
H1657 C1671 0.960 . S
H1658 C1671 0.961 . S
H1659 C1671 0.959 . S
H1660 C1674 0.929 . S
H1661 C1675 0.931 . S
H1662 C1677 0.930 . S
C1663 H1651 0.930 . S
C1663 C1664 1.399 . S
C1663 C1668 1.399 . S
C1664 C1663 1.399 . S
C1664 C1665 1.376 . S
C1665 H1652 0.930 . S
C1665 C1664 1.376 . S
C1665 C1666 1.388 . S
C1666 H1653 0.930 . S
C1666 C1665 1.388 . S
C1666 C1667 1.390 . S
C1667 C1666 1.390 . S
C1667 C1668 1.394 . S
C1667 C1673 1.465 . S
C1668 C1663 1.399 . S
C1668 C1667 1.394 . S
C1668 C1669 1.516 . S
C1669 C1668 1.516 . S
C1669 C1670 1.502 . S
C1669 C1671 1.561 . S
C1669 C1672 1.526 . S
C1670 H1654 0.959 . S
C1670 H1655 0.959 . S
C1670 H1656 0.961 . S
C1670 C1669 1.502 . S
C1671 H1657 0.960 . S
C1671 H1658 0.961 . S
C1671 H1659 0.959 . S
C1671 C1669 1.561 . S
C1672 C1669 1.526 . S
C1672 C1673 1.396 . S
C1672 C1677 1.390 . S
C1673 C1667 1.465 . S
C1673 C1672 1.396 . S
C1673 C1674 1.399 . S
C1674 H1660 0.929 . S
C1674 C1673 1.399 . S
C1674 C1675 1.385 . S
C1675 H1661 0.931 . S
C1675 C1674 1.385 . S
C1675 C1676 1.389 . S
C1676 C1675 1.389 . S
C1676 C1677 1.387 . S
C1677 H1662 0.930 . S
C1677 C1672 1.390 . S
C1677 C1676 1.387 . S
H1678 C1690 0.930 . S
H1679 C1692 0.930 . S
H1680 C1693 0.930 . S
H1681 C1697 0.959 . S
H1682 C1697 0.959 . S
H1683 C1697 0.961 . S
H1684 C1698 0.960 . S
H1685 C1698 0.961 . S
H1686 C1698 0.959 . S
H1687 C1701 0.929 . S
H1688 C1702 0.931 . S
H1689 C1704 0.930 . S
C1690 H1678 0.930 . S
C1690 C1691 1.399 . S
C1690 C1695 1.399 . S
C1691 C1690 1.399 . S
C1691 C1692 1.376 . S
C1692 H1679 0.930 . S
C1692 C1691 1.376 . S
C1692 C1693 1.388 . S
C1693 H1680 0.930 . S
C1693 C1692 1.388 . S
C1693 C1694 1.390 . S
C1694 C1693 1.390 . S
C1694 C1695 1.394 . S
C1694 C1700 1.465 . S
C1695 C1690 1.399 . S
C1695 C1694 1.394 . S
C1695 C1696 1.516 . S
C1696 C1695 1.516 . S
C1696 C1697 1.502 . S
C1696 C1698 1.561 . S
C1696 C1699 1.526 . S
C1697 H1681 0.959 . S
C1697 H1682 0.959 . S
C1697 H1683 0.961 . S
C1697 C1696 1.502 . S
C1698 H1684 0.960 . S
C1698 H1685 0.961 . S
C1698 H1686 0.959 . S
C1698 C1696 1.561 . S
C1699 C1696 1.526 . S
C1699 C1700 1.396 . S
C1699 C1704 1.390 . S
C1700 C1694 1.465 . S
C1700 C1699 1.396 . S
C1700 C1701 1.399 . S
C1701 H1687 0.929 . S
C1701 C1700 1.399 . S
C1701 C1702 1.385 . S
C1702 H1688 0.931 . S
C1702 C1701 1.385 . S
C1702 C1703 1.389 . S
C1703 C1702 1.389 . S
C1703 C1704 1.387 . S
C1704 H1689 0.930 . S
C1704 C1699 1.390 . S
C1704 C1703 1.387 . S
H1705 C1717 0.930 . S
H1706 C1719 0.930 . S
H1707 C1720 0.930 . S
H1708 C1724 0.959 . S
H1709 C1724 0.959 . S
H1710 C1724 0.961 . S
H1711 C1725 0.960 . S
H1712 C1725 0.961 . S
H1713 C1725 0.959 . S
H1714 C1728 0.929 . S
H1715 C1729 0.931 . S
H1716 C1731 0.930 . S
C1717 H1705 0.930 . S
C1717 C1718 1.399 . S
C1717 C1722 1.399 . S
C1718 C1717 1.399 . S
C1718 C1719 1.376 . S
C1719 H1706 0.930 . S
C1719 C1718 1.376 . S
C1719 C1720 1.388 . S
C1720 H1707 0.930 . S
C1720 C1719 1.388 . S
C1720 C1721 1.390 . S
C1721 C1720 1.390 . S
C1721 C1722 1.394 . S
C1721 C1727 1.465 . S
C1722 C1717 1.399 . S
C1722 C1721 1.394 . S
C1722 C1723 1.516 . S
C1723 C1722 1.516 . S
C1723 C1724 1.502 . S
C1723 C1725 1.561 . S
C1723 C1726 1.526 . S
C1724 H1708 0.959 . S
C1724 H1709 0.959 . S
C1724 H1710 0.961 . S
C1724 C1723 1.502 . S
C1725 H1711 0.960 . S
C1725 H1712 0.961 . S
C1725 H1713 0.959 . S
C1725 C1723 1.561 . S
C1726 C1723 1.526 . S
C1726 C1727 1.396 . S
C1726 C1731 1.390 . S
C1727 C1721 1.465 . S
C1727 C1726 1.396 . S
C1727 C1728 1.399 . S
C1728 H1714 0.929 . S
C1728 C1727 1.399 . S
C1728 C1729 1.385 . S
C1729 H1715 0.931 . S
C1729 C1728 1.385 . S
C1729 C1730 1.389 . S
C1730 C1729 1.389 . S
C1730 C1731 1.387 . S
C1731 H1716 0.930 . S
C1731 C1726 1.390 . S
C1731 C1730 1.387 . S
H1732 C1744 0.930 . S
H1733 C1746 0.930 . S
H1734 C1747 0.930 . S
H1735 C1751 0.959 . S
H1736 C1751 0.959 . S
H1737 C1751 0.961 . S
H1738 C1752 0.960 . S
H1739 C1752 0.961 . S
H1740 C1752 0.959 . S
H1741 C1755 0.905 1_655 S
H1742 C1756 0.931 . S
H1743 C1758 0.930 . S
C1744 H1732 0.930 . S
C1744 C1745 1.399 . S
C1744 C1749 1.399 . S
C1745 C1744 1.399 . S
C1745 C1746 1.376 1_455 S
C1746 H1733 0.930 . S
C1746 C1745 1.376 1_655 S
C1746 C1747 1.388 . S
C1747 H1734 0.930 . S
C1747 C1746 1.388 . S
C1747 C1748 1.390 1_655 S
C1748 C1747 1.390 1_455 S
C1748 C1749 1.394 . S
C1748 C1754 1.465 . S
C1749 C1744 1.399 . S
C1749 C1748 1.394 . S
C1749 C1750 1.516 . S
C1750 C1749 1.516 . S
C1750 C1751 1.502 . S
C1750 C1752 1.561 . S
C1750 C1753 1.526 . S
C1751 H1735 0.959 . S
C1751 H1736 0.959 . S
C1751 H1737 0.961 . S
C1751 C1750 1.502 . S
C1752 H1738 0.960 . S
C1752 H1739 0.961 . S
C1752 H1740 0.959 . S
C1752 C1750 1.561 . S
C1753 C1750 1.526 . S
C1753 C1754 1.396 . S
C1753 C1758 1.390 . S
C1754 C1748 1.465 . S
C1754 C1753 1.396 . S
C1754 C1755 1.408 . S
C1755 H1741 0.905 1_455 S
C1755 C1754 1.408 . S
C1755 C1756 1.403 . S
C1756 H1742 0.931 . S
C1756 C1755 1.403 . S
C1756 C1757 1.389 . S
C1757 C1756 1.389 . S
C1757 C1758 1.387 . S
C1758 H1743 0.930 . S
C1758 C1753 1.390 . S
C1758 C1757 1.387 . S
H1759 C1771 0.930 . S
H1760 C1773 0.930 . S
H1761 C1774 0.930 . S
H1762 C1778 0.959 . S
H1763 C1778 0.959 . S
H1764 C1778 0.961 . S
H1765 C1779 0.960 . S
H1766 C1779 0.961 . S
H1767 C1779 0.959 . S
H1768 C1782 0.929 . S
H1769 C1783 0.931 . S
H1770 C1785 0.930 . S
C1771 H1759 0.930 . S
C1771 C1772 1.399 . S
C1771 C1776 1.399 . S
C1772 C1771 1.399 . S
C1772 C1773 1.376 . S
C1773 H1760 0.930 . S
C1773 C1772 1.376 . S
C1773 C1774 1.388 . S
C1774 H1761 0.930 . S
C1774 C1773 1.388 . S
C1774 C1775 1.390 . S
C1775 C1774 1.390 . S
C1775 C1776 1.394 . S
C1775 C1781 1.465 . S
C1776 C1771 1.399 . S
C1776 C1775 1.394 . S
C1776 C1777 1.516 . S
C1777 C1776 1.516 . S
C1777 C1778 1.502 . S
C1777 C1779 1.561 . S
C1777 C1780 1.526 . S
C1778 H1762 0.959 . S
C1778 H1763 0.959 . S
C1778 H1764 0.961 . S
C1778 C1777 1.502 . S
C1779 H1765 0.960 . S
C1779 H1766 0.961 . S
C1779 H1767 0.959 . S
C1779 C1777 1.561 . S
C1780 C1777 1.526 . S
C1780 C1781 1.396 . S
C1780 C1785 1.390 . S
C1781 C1775 1.465 . S
C1781 C1780 1.396 . S
C1781 C1782 1.399 . S
C1782 H1768 0.929 . S
C1782 C1781 1.399 . S
C1782 C1783 1.385 . S
C1783 H1769 0.931 . S
C1783 C1782 1.385 . S
C1783 C1784 1.389 . S
C1784 C1783 1.389 . S
C1784 C1785 1.387 . S
C1785 H1770 0.930 . S
C1785 C1780 1.390 . S
C1785 C1784 1.387 . S
H1786 C1798 0.930 . S
H1787 C1800 0.930 . S
H1788 C1801 0.930 . S
H1789 C1805 0.959 . S
H1790 C1805 0.959 . S
H1791 C1805 0.961 . S
H1792 C1806 0.960 . S
H1793 C1806 0.961 . S
H1794 C1806 0.959 . S
H1795 C1809 0.929 . S
H1796 C1810 0.931 . S
H1797 C1812 0.930 . S
C1798 H1786 0.930 . S
C1798 C1799 1.399 . S
C1798 C1803 1.399 . S
C1799 C1798 1.399 . S
C1799 C1800 1.376 . S
C1800 H1787 0.930 . S
C1800 C1799 1.376 . S
C1800 C1801 1.388 . S
C1801 H1788 0.930 . S
C1801 C1800 1.388 . S
C1801 C1802 1.390 . S
C1802 C1801 1.390 . S
C1802 C1803 1.394 . S
C1802 C1808 1.465 . S
C1803 C1798 1.399 . S
C1803 C1802 1.394 . S
C1803 C1804 1.516 . S
C1804 C1803 1.516 . S
C1804 C1805 1.502 . S
C1804 C1806 1.561 . S
C1804 C1807 1.526 . S
C1805 H1789 0.959 . S
C1805 H1790 0.959 . S
C1805 H1791 0.961 . S
C1805 C1804 1.502 . S
C1806 H1792 0.960 . S
C1806 H1793 0.961 . S
C1806 H1794 0.959 . S
C1806 C1804 1.561 . S
C1807 C1804 1.526 . S
C1807 C1808 1.396 . S
C1807 C1812 1.390 . S
C1808 C1802 1.465 . S
C1808 C1807 1.396 . S
C1808 C1809 1.399 . S
C1809 H1795 0.929 . S
C1809 C1808 1.399 . S
C1809 C1810 1.385 1_556 S
C1810 H1796 0.931 . S
C1810 C1809 1.385 1_554 S
C1810 C1811 1.389 . S
C1811 C1810 1.389 . S
C1811 C1812 1.387 1_554 S
C1812 H1797 0.930 . S
C1812 C1807 1.390 . S
C1812 C1811 1.387 1_556 S
H1813 C1825 0.930 . S
H1814 C1827 0.930 . S
H1815 C1828 0.930 . S
H1816 C1832 0.959 . S
H1817 C1832 0.959 . S
H1818 C1832 0.961 . S
H1819 C1833 0.960 . S
H1820 C1833 0.961 . S
H1821 C1833 0.959 . S
H1822 C1836 0.929 . S
H1823 C1837 0.931 . S
H1824 C1839 0.930 . S
C1825 H1813 0.930 . S
C1825 C1826 1.399 . S
C1825 C1830 1.399 . S
C1826 C1825 1.399 . S
C1826 C1827 1.376 . S
C1827 H1814 0.930 . S
C1827 C1826 1.376 . S
C1827 C1828 1.388 1_455 S
C1828 H1815 0.930 . S
C1828 C1827 1.388 1_655 S
C1828 C1829 1.390 . S
C1829 C1828 1.390 . S
C1829 C1830 1.394 1_655 S
C1829 C1835 1.465 . S
C1830 C1825 1.399 . S
C1830 C1829 1.394 1_455 S
C1830 C1831 1.516 1_455 S
C1831 C1830 1.516 1_655 S
C1831 C1832 1.502 1_655 S
C1831 C1833 1.561 . S
C1831 C1834 1.526 . S
C1832 H1816 0.959 . S
C1832 H1817 0.959 . S
C1832 H1818 0.961 . S
C1832 C1831 1.502 1_455 S
C1833 H1819 0.960 . S
C1833 H1820 0.961 . S
C1833 H1821 0.959 . S
C1833 C1831 1.561 . S
C1834 C1831 1.526 . S
C1834 C1835 1.396 . S
C1834 C1839 1.390 . S
C1835 C1829 1.465 . S
C1835 C1834 1.396 . S
C1835 C1836 1.399 . S
C1836 H1822 0.929 . S
C1836 C1835 1.399 . S
C1836 C1837 1.385 . S
C1837 H1823 0.931 . S
C1837 C1836 1.385 . S
C1837 C1838 1.389 . S
C1838 C1837 1.389 . S
C1838 C1839 1.387 . S
C1839 H1824 0.930 . S
C1839 C1834 1.390 . S
C1839 C1838 1.387 . S
H1840 C1852 0.930 . S
H1841 C1854 0.930 . S
H1842 C1855 0.930 . S
H1843 C1859 0.959 . S
H1844 C1859 0.959 . S
H1845 C1859 0.961 . S
H1846 C1860 0.960 . S
H1847 C1860 0.961 . S
H1848 C1860 0.959 . S
H1849 C1863 0.929 . S
H1850 C1864 0.931 . S
H1851 C1866 0.930 . S
C1852 H1840 0.930 . S
C1852 C1853 1.399 . S
C1852 C1857 1.399 . S
C1853 C1852 1.399 . S
C1853 C1854 1.376 . S
C1854 H1841 0.930 . S
C1854 C1853 1.376 . S
C1854 C1855 1.388 . S
C1855 H1842 0.930 . S
C1855 C1854 1.388 . S
C1855 C1856 1.390 . S
C1856 C1855 1.390 . S
C1856 C1857 1.394 . S
C1856 C1862 1.465 . S
C1857 C1852 1.399 . S
C1857 C1856 1.394 . S
C1857 C1858 1.516 . S
C1858 C1857 1.516 . S
C1858 C1859 1.502 . S
C1858 C1860 1.561 . S
C1858 C1861 1.526 . S
C1859 H1843 0.959 . S
C1859 H1844 0.959 . S
C1859 H1845 0.961 . S
C1859 C1858 1.502 . S
C1860 H1846 0.960 . S
C1860 H1847 0.961 . S
C1860 H1848 0.959 . S
C1860 C1858 1.561 . S
C1861 C1858 1.526 . S
C1861 C1862 1.396 . S
C1861 C1866 1.390 . S
C1862 C1856 1.465 . S
C1862 C1861 1.396 . S
C1862 C1863 1.399 . S
C1863 H1849 0.929 . S
C1863 C1862 1.399 . S
C1863 C1864 1.385 . S
C1864 H1850 0.931 . S
C1864 C1863 1.385 . S
C1864 C1865 1.389 . S
C1865 C1864 1.389 . S
C1865 C1866 1.387 . S
C1866 H1851 0.930 . S
C1866 C1861 1.390 . S
C1866 C1865 1.387 . S
H1867 C1879 0.930 . S
H1868 C1881 0.930 . S
H1869 C1882 0.930 . S
H1870 C1886 0.959 . S
H1871 C1886 0.959 . S
H1872 C1886 0.961 . S
H1873 C1887 0.960 . S
H1874 C1887 0.961 . S
H1875 C1887 0.959 . S
H1876 C1890 0.929 . S
H1877 C1891 0.931 . S
H1878 C1893 0.930 . S
C1879 H1867 0.930 . S
C1879 C1880 1.399 . S
C1879 C1884 1.399 . S
C1880 C1879 1.399 . S
C1880 C1881 1.376 . S
C1881 H1868 0.930 . S
C1881 C1880 1.376 . S
C1881 C1882 1.388 . S
C1882 H1869 0.930 . S
C1882 C1881 1.388 . S
C1882 C1883 1.390 . S
C1883 C1882 1.390 . S
C1883 C1884 1.394 . S
C1883 C1889 1.465 . S
C1884 C1879 1.399 . S
C1884 C1883 1.394 . S
C1884 C1885 1.516 . S
C1885 C1884 1.516 . S
C1885 C1886 1.502 . S
C1885 C1887 1.561 . S
C1885 C1888 1.526 . S
C1886 H1870 0.959 . S
C1886 H1871 0.959 . S
C1886 H1872 0.961 . S
C1886 C1885 1.502 . S
C1887 H1873 0.960 . S
C1887 H1874 0.961 . S
C1887 H1875 0.959 . S
C1887 C1885 1.561 . S
C1888 C1885 1.526 . S
C1888 C1889 1.396 . S
C1888 C1893 1.390 . S
C1889 C1883 1.465 . S
C1889 C1888 1.396 . S
C1889 C1890 1.399 . S
C1890 H1876 0.929 . S
C1890 C1889 1.399 . S
C1890 C1891 1.385 . S
C1891 H1877 0.931 . S
C1891 C1890 1.385 . S
C1891 C1892 1.389 . S
C1892 C1891 1.389 . S
C1892 C1893 1.387 . S
C1893 H1878 0.930 . S
C1893 C1888 1.390 . S
C1893 C1892 1.387 . S
H1894 C1906 0.930 . S
H1895 C1908 0.930 . S
H1896 C1909 0.930 . S
H1897 C1913 0.959 . S
H1898 C1913 0.959 . S
H1899 C1913 0.961 . S
H1900 C1914 0.960 . S
H1901 C1914 0.961 . S
H1902 C1914 0.959 . S
H1903 C1917 0.929 . S
H1904 C1918 0.931 . S
H1905 C1920 0.930 . S
C1906 H1894 0.930 . S
C1906 C1907 1.399 . S
C1906 C1911 1.399 . S
C1907 C1906 1.399 . S
C1907 C1908 1.376 . S
C1908 H1895 0.930 . S
C1908 C1907 1.376 . S
C1908 C1909 1.388 . S
C1909 H1896 0.930 . S
C1909 C1908 1.388 . S
C1909 C1910 1.390 . S
C1910 C1909 1.390 . S
C1910 C1911 1.394 . S
C1910 C1916 1.465 . S
C1911 C1906 1.399 . S
C1911 C1910 1.394 . S
C1911 C1912 1.516 . S
C1912 C1911 1.516 . S
C1912 C1913 1.502 . S
C1912 C1914 1.561 . S
C1912 C1915 1.526 . S
C1913 H1897 0.959 . S
C1913 H1898 0.959 . S
C1913 H1899 0.961 . S
C1913 C1912 1.502 . S
C1914 H1900 0.960 . S
C1914 H1901 0.961 . S
C1914 H1902 0.959 . S
C1914 C1912 1.561 . S
C1915 C1912 1.526 . S
C1915 C1916 1.396 . S
C1915 C1920 1.390 . S
C1916 C1910 1.465 . S
C1916 C1915 1.396 . S
C1916 C1917 1.399 . S
C1917 H1903 0.929 . S
C1917 C1916 1.399 . S
C1917 C1918 1.385 . S
C1918 H1904 0.931 . S
C1918 C1917 1.385 . S
C1918 C1919 1.389 . S
C1919 C1918 1.389 . S
C1919 C1920 1.387 . S
C1920 H1905 0.930 . S
C1920 C1915 1.390 . S
C1920 C1919 1.387 . S
H1921 C1933 0.930 . S
H1922 C1935 0.930 . S
H1923 C1936 0.930 . S
H1924 C1940 0.959 . S
H1925 C1940 0.959 . S
H1926 C1940 0.961 . S
H1927 C1941 0.960 . S
H1928 C1941 0.961 . S
H1929 C1941 0.959 . S
H1930 C1944 0.929 . S
H1931 C1945 0.931 . S
H1932 C1947 0.930 . S
C1933 H1921 0.930 . S
C1933 C1934 1.399 . S
C1933 C1938 1.399 . S
C1934 C1933 1.399 . S
C1934 C1935 1.376 . S
C1935 H1922 0.930 . S
C1935 C1934 1.376 . S
C1935 C1936 1.388 . S
C1936 H1923 0.930 . S
C1936 C1935 1.388 . S
C1936 C1937 1.390 . S
C1937 C1936 1.390 . S
C1937 C1938 1.394 . S
C1937 C1943 1.465 . S
C1938 C1933 1.399 . S
C1938 C1937 1.394 . S
C1938 C1939 1.516 . S
C1939 C1938 1.516 . S
C1939 C1940 1.502 . S
C1939 C1941 1.561 . S
C1939 C1942 1.526 . S
C1940 H1924 0.959 . S
C1940 H1925 0.959 . S
C1940 H1926 0.961 . S
C1940 C1939 1.502 . S
C1941 H1927 0.960 . S
C1941 H1928 0.961 . S
C1941 H1929 0.959 . S
C1941 C1939 1.561 . S
C1942 C1939 1.526 . S
C1942 C1943 1.396 . S
C1942 C1947 1.390 . S
C1943 C1937 1.465 . S
C1943 C1942 1.396 . S
C1943 C1944 1.399 . S
C1944 H1930 0.929 . S
C1944 C1943 1.399 . S
C1944 C1945 1.385 . S
C1945 H1931 0.931 . S
C1945 C1944 1.385 . S
C1945 C1946 1.389 . S
C1946 C1945 1.389 . S
C1946 C1947 1.387 . S
C1947 H1932 0.930 . S
C1947 C1942 1.390 . S
C1947 C1946 1.387 . S
H1948 C1960 0.930 . S
H1949 C1962 0.930 . S
H1950 C1963 0.930 . S
H1951 C1967 0.959 . S
H1952 C1967 0.959 . S
H1953 C1967 0.961 . S
H1954 C1968 0.960 . S
H1955 C1968 0.961 . S
H1956 C1968 0.959 . S
H1957 C1971 0.929 . S
H1958 C1972 0.931 . S
H1959 C1974 0.930 . S
C1960 H1948 0.930 . S
C1960 C1961 1.399 . S
C1960 C1965 1.399 . S
C1961 C1960 1.399 . S
C1961 C1962 1.376 . S
C1962 H1949 0.930 . S
C1962 C1961 1.376 . S
C1962 C1963 1.388 . S
C1963 H1950 0.930 . S
C1963 C1962 1.388 . S
C1963 C1964 1.390 . S
C1964 C1963 1.390 . S
C1964 C1965 1.394 . S
C1964 C1970 1.465 . S
C1965 C1960 1.399 . S
C1965 C1964 1.394 . S
C1965 C1966 1.516 . S
C1966 C1965 1.516 . S
C1966 C1967 1.502 . S
C1966 C1968 1.561 . S
C1966 C1969 1.526 . S
C1967 H1951 0.959 . S
C1967 H1952 0.959 . S
C1967 H1953 0.961 . S
C1967 C1966 1.502 . S
C1968 H1954 0.960 . S
C1968 H1955 0.961 . S
C1968 H1956 0.959 . S
C1968 C1966 1.561 . S
C1969 C1966 1.526 . S
C1969 C1970 1.396 . S
C1969 C1974 1.390 . S
C1970 C1964 1.465 . S
C1970 C1969 1.396 . S
C1970 C1971 1.399 . S
C1971 H1957 0.929 . S
C1971 C1970 1.399 . S
C1971 C1972 1.385 . S
C1972 H1958 0.931 . S
C1972 C1971 1.385 . S
C1972 C1973 1.389 . S
C1973 C1972 1.389 . S
C1973 C1974 1.387 . S
C1974 H1959 0.930 . S
C1974 C1969 1.390 . S
C1974 C1973 1.387 . S
H1975 C1987 0.930 . S
H1976 C1989 0.930 . S
H1977 C1990 0.930 . S
H1978 C1994 0.959 . S
H1979 C1994 0.959 . S
H1980 C1994 0.961 . S
H1981 C1995 0.960 . S
H1982 C1995 0.961 . S
H1983 C1995 0.959 . S
H1984 C1998 0.929 . S
H1985 C1999 0.931 . S
H1986 C2001 0.930 . S
C1987 H1975 0.930 . S
C1987 C1988 1.399 . S
C1987 C1992 1.399 . S
C1988 C1987 1.399 . S
C1988 C1989 1.376 . S
C1989 H1976 0.930 . S
C1989 C1988 1.376 . S
C1989 C1990 1.388 . S
C1990 H1977 0.930 . S
C1990 C1989 1.388 . S
C1990 C1991 1.390 . S
C1991 C1990 1.390 . S
C1991 C1992 1.394 . S
C1991 C1997 1.465 . S
C1992 C1987 1.399 . S
C1992 C1991 1.394 . S
C1992 C1993 1.516 . S
C1993 C1992 1.516 . S
C1993 C1994 1.502 . S
C1993 C1995 1.561 . S
C1993 C1996 1.526 . S
C1994 H1978 0.959 . S
C1994 H1979 0.959 . S
C1994 H1980 0.961 . S
C1994 C1993 1.502 . S
C1995 H1981 0.960 . S
C1995 H1982 0.961 . S
C1995 H1983 0.959 . S
C1995 C1993 1.561 . S
C1996 C1993 1.526 . S
C1996 C1997 1.396 . S
C1996 C2001 1.390 . S
C1997 C1991 1.465 . S
C1997 C1996 1.396 . S
C1997 C1998 1.399 . S
C1998 H1984 0.929 . S
C1998 C1997 1.399 . S
C1998 C1999 1.385 . S
C1999 H1985 0.931 . S
C1999 C1998 1.385 . S
C1999 C2000 1.389 . S
C2000 C1999 1.389 . S
C2000 C2001 1.387 . S
C2001 H1986 0.930 . S
C2001 C1996 1.390 . S
C2001 C2000 1.387 . S
H2002 C2014 0.930 . S
H2003 C2016 0.930 . S
H2004 C2017 0.930 . S
H2005 C2021 0.959 . S
H2006 C2021 0.959 . S
H2007 C2021 0.961 . S
H2008 C2022 0.960 . S
H2009 C2022 0.961 . S
H2010 C2022 0.959 . S
H2011 C2025 0.929 . S
H2012 C2026 0.931 . S
H2013 C2028 0.930 . S
C2014 H2002 0.930 . S
C2014 C2015 1.399 . S
C2014 C2019 1.399 . S
C2015 C2014 1.399 . S
C2015 C2016 1.376 . S
C2016 H2003 0.930 . S
C2016 C2015 1.376 . S
C2016 C2017 1.388 . S
C2017 H2004 0.930 . S
C2017 C2016 1.388 . S
C2017 C2018 1.390 . S
C2018 C2017 1.390 . S
C2018 C2019 1.394 . S
C2018 C2024 1.465 . S
C2019 C2014 1.399 . S
C2019 C2018 1.394 . S
C2019 C2020 1.516 . S
C2020 C2019 1.516 . S
C2020 C2021 1.502 . S
C2020 C2022 1.561 . S
C2020 C2023 1.526 . S
C2021 H2005 0.959 . S
C2021 H2006 0.959 . S
C2021 H2007 0.961 . S
C2021 C2020 1.502 . S
C2022 H2008 0.960 . S
C2022 H2009 0.961 . S
C2022 H2010 0.959 . S
C2022 C2020 1.561 . S
C2023 C2020 1.526 . S
C2023 C2024 1.396 . S
C2023 C2028 1.390 . S
C2024 C2018 1.465 . S
C2024 C2023 1.396 . S
C2024 C2025 1.399 . S
C2025 H2011 0.929 . S
C2025 C2024 1.399 . S
C2025 C2026 1.385 . S
C2026 H2012 0.931 . S
C2026 C2025 1.385 . S
C2026 C2027 1.389 . S
C2027 C2026 1.389 . S
C2027 C2028 1.387 . S
C2028 H2013 0.930 . S
C2028 C2023 1.390 . S
C2028 C2027 1.387 . S
H2029 C2041 0.930 . S
H2030 C2043 0.930 . S
H2031 C2044 0.930 . S
H2032 C2048 0.959 . S
H2033 C2048 0.959 . S
H2034 C2048 0.961 . S
H2035 C2049 0.960 . S
H2036 C2049 0.961 . S
H2037 C2049 0.959 . S
H2038 C2052 0.929 . S
H2039 C2053 0.931 . S
H2040 C2055 0.930 . S
C2041 H2029 0.930 . S
C2041 C2042 1.399 . S
C2041 C2046 1.399 . S
C2042 C2041 1.399 . S
C2042 C2043 1.376 . S
C2043 H2030 0.930 . S
C2043 C2042 1.376 . S
C2043 C2044 1.388 . S
C2044 H2031 0.930 . S
C2044 C2043 1.388 . S
C2044 C2045 1.390 . S
C2045 C2044 1.390 . S
C2045 C2046 1.394 . S
C2045 C2051 1.465 . S
C2046 C2041 1.399 . S
C2046 C2045 1.394 . S
C2046 C2047 1.516 . S
C2047 C2046 1.516 . S
C2047 C2048 1.502 . S
C2047 C2049 1.561 . S
C2047 C2050 1.526 . S
C2048 H2032 0.959 . S
C2048 H2033 0.959 . S
C2048 H2034 0.961 . S
C2048 C2047 1.502 . S
C2049 H2035 0.960 . S
C2049 H2036 0.961 . S
C2049 H2037 0.959 . S
C2049 C2047 1.561 . S
C2050 C2047 1.526 . S
C2050 C2051 1.396 . S
C2050 C2055 1.390 . S
C2051 C2045 1.465 . S
C2051 C2050 1.396 . S
C2051 C2052 1.399 . S
C2052 H2038 0.929 . S
C2052 C2051 1.399 . S
C2052 C2053 1.385 . S
C2053 H2039 0.931 . S
C2053 C2052 1.385 . S
C2053 C2054 1.389 . S
C2054 C2053 1.389 . S
C2054 C2055 1.387 . S
C2055 H2040 0.930 . S
C2055 C2050 1.390 . S
C2055 C2054 1.387 . S
H2056 C2068 0.930 . S
H2057 C2070 0.930 . S
H2058 C2071 0.930 . S
H2059 C2075 0.959 1_556 S
H2060 C2075 0.959 . S
H2061 C2075 0.961 . S
H2062 C2076 0.960 . S
H2063 C2076 0.961 . S
H2064 C2076 0.959 . S
H2065 C2079 0.929 . S
H2066 C2080 0.931 . S
H2067 C2082 0.930 . S
C2068 H2056 0.930 . S
C2068 C2069 1.399 1_554 S
C2068 C2073 1.393 1_554 S
C2069 C2068 1.399 1_556 S
C2069 C2070 1.376 . S
C2070 H2057 0.930 . S
C2070 C2069 1.376 . S
C2070 C2071 1.388 . S
C2071 H2058 0.930 . S
C2071 C2070 1.388 . S
C2071 C2072 1.390 . S
C2072 C2071 1.390 . S
C2072 C2073 1.405 . S
C2072 C2078 1.465 . S
C2073 C2068 1.393 1_556 S
C2073 C2072 1.405 . S
C2073 C2074 1.513 1_556 S
C2074 C2073 1.513 1_554 S
C2074 C2075 1.502 . S
C2074 C2076 1.561 . S
C2074 C2077 1.526 1_554 S
C2075 H2059 0.959 1_554 S
C2075 H2060 0.959 . S
C2075 H2061 0.961 . S
C2075 C2074 1.502 . S
C2076 H2062 0.960 . S
C2076 H2063 0.961 . S
C2076 H2064 0.959 . S
C2076 C2074 1.561 . S
C2077 C2074 1.526 1_556 S
C2077 C2078 1.396 . S
C2077 C2082 1.390 . S
C2078 C2072 1.465 . S
C2078 C2077 1.396 . S
C2078 C2079 1.399 . S
C2079 H2065 0.929 . S
C2079 C2078 1.399 . S
C2079 C2080 1.385 . S
C2080 H2066 0.931 . S
C2080 C2079 1.385 . S
C2080 C2081 1.389 . S
C2081 C2080 1.389 . S
C2081 C2082 1.387 . S
C2082 H2067 0.930 . S
C2082 C2077 1.390 . S
C2082 C2081 1.387 . S
H2083 C2095 0.930 . S
H2084 C2097 0.930 . S
H2085 C2098 0.930 1_556 S
H2086 C2102 0.959 . S
H2087 C2102 0.959 . S
H2088 C2102 0.961 . S
H2089 C2103 0.960 . S
H2090 C2103 0.961 . S
H2091 C2103 0.959 . S
H2092 C2106 0.929 1_556 S
H2093 C2107 0.931 1_556 S
H2094 C2109 0.930 . S
C2095 H2083 0.930 . S
C2095 C2096 1.399 . S
C2095 C2100 1.399 . S
C2096 C2095 1.399 . S
C2096 C2097 1.376 . S
C2097 H2084 0.930 . S
C2097 C2096 1.376 . S
C2097 C2098 1.388 . S
C2098 H2085 0.930 1_554 S
C2098 C2097 1.388 . S
C2098 C2099 1.390 . S
C2099 C2098 1.390 . S
C2099 C2100 1.394 . S
C2099 C2105 1.465 . S
C2100 C2095 1.399 . S
C2100 C2099 1.394 . S
C2100 C2101 1.516 . S
C2101 C2100 1.516 . S
C2101 C2102 1.502 . S
C2101 C2103 1.561 . S
C2101 C2104 1.526 . S
C2102 H2086 0.959 . S
C2102 H2087 0.959 . S
C2102 H2088 0.961 . S
C2102 C2101 1.502 . S
C2103 H2089 0.960 . S
C2103 H2090 0.961 . S
C2103 H2091 0.959 . S
C2103 C2101 1.561 . S
C2104 C2101 1.526 . S
C2104 C2105 1.396 . S
C2104 C2109 1.390 . S
C2105 C2099 1.465 . S
C2105 C2104 1.396 . S
C2105 C2106 1.399 . S
C2106 H2092 0.929 1_554 S
C2106 C2105 1.399 . S
C2106 C2107 1.385 . S
C2107 H2093 0.931 1_554 S
C2107 C2106 1.385 . S
C2107 C2108 1.389 . S
C2108 C2107 1.389 . S
C2108 C2109 1.387 . S
C2109 H2094 0.930 . S
C2109 C2104 1.390 . S
C2109 C2108 1.387 . S
H2110 C2122 0.930 . S
H2111 C2124 0.930 . S
H2112 C2125 0.930 . S
H2113 C2129 0.959 . S
H2114 C2129 0.959 . S
H2115 C2129 0.961 . S
H2116 C2130 0.960 . S
H2117 C2130 0.961 . S
H2118 C2130 0.959 . S
H2119 C2133 0.929 . S
H2120 C2134 0.931 . S
H2121 C2136 0.930 . S
C2122 H2110 0.930 . S
C2122 C2123 1.399 . S
C2122 C2127 1.399 . S
C2123 C2122 1.399 . S
C2123 C2124 1.376 . S
C2124 H2111 0.930 . S
C2124 C2123 1.376 . S
C2124 C2125 1.388 . S
C2125 H2112 0.930 . S
C2125 C2124 1.388 . S
C2125 C2126 1.390 . S
C2126 C2125 1.390 . S
C2126 C2127 1.394 . S
C2126 C2132 1.465 . S
C2127 C2122 1.399 . S
C2127 C2126 1.394 . S
C2127 C2128 1.516 . S
C2128 C2127 1.516 . S
C2128 C2129 1.502 . S
C2128 C2130 1.561 . S
C2128 C2131 1.526 . S
C2129 H2113 0.959 . S
C2129 H2114 0.959 . S
C2129 H2115 0.961 . S
C2129 C2128 1.502 . S
C2130 H2116 0.960 . S
C2130 H2117 0.961 . S
C2130 H2118 0.959 . S
C2130 C2128 1.561 . S
C2131 C2128 1.526 . S
C2131 C2132 1.396 . S
C2131 C2136 1.390 . S
C2132 C2126 1.465 . S
C2132 C2131 1.396 . S
C2132 C2133 1.399 . S
C2133 H2119 0.929 . S
C2133 C2132 1.399 . S
C2133 C2134 1.385 . S
C2134 H2120 0.931 . S
C2134 C2133 1.385 . S
C2134 C2135 1.389 . S
C2135 C2134 1.389 . S
C2135 C2136 1.387 . S
C2136 H2121 0.930 . S
C2136 C2131 1.390 . S
C2136 C2135 1.387 . S
H2137 C2149 0.930 . S
H2138 C2151 0.930 . S
H2139 C2152 0.930 . S
H2140 C2156 0.959 . S
H2141 C2156 0.959 . S
H2142 C2156 0.961 . S
H2143 C2157 0.960 . S
H2144 C2157 0.961 . S
H2145 C2157 0.959 . S
H2146 C2160 0.929 . S
H2147 C2161 0.931 . S
H2148 C2163 0.930 . S
C2149 H2137 0.930 . S
C2149 C2150 1.399 . S
C2149 C2154 1.399 . S
C2150 C2149 1.399 . S
C2150 C2151 1.376 . S
C2151 H2138 0.930 . S
C2151 C2150 1.376 . S
C2151 C2152 1.388 . S
C2152 H2139 0.930 . S
C2152 C2151 1.388 . S
C2152 C2153 1.390 . S
C2153 C2152 1.390 . S
C2153 C2154 1.394 . S
C2153 C2159 1.465 . S
C2154 C2149 1.399 . S
C2154 C2153 1.394 . S
C2154 C2155 1.516 . S
C2155 C2154 1.516 . S
C2155 C2156 1.502 . S
C2155 C2157 1.561 . S
C2155 C2158 1.526 . S
C2156 H2140 0.959 . S
C2156 H2141 0.959 . S
C2156 H2142 0.961 . S
C2156 C2155 1.502 . S
C2157 H2143 0.960 . S
C2157 H2144 0.961 . S
C2157 H2145 0.959 . S
C2157 C2155 1.561 . S
C2158 C2155 1.526 . S
C2158 C2159 1.396 . S
C2158 C2163 1.390 . S
C2159 C2153 1.465 . S
C2159 C2158 1.396 . S
C2159 C2160 1.399 . S
C2160 H2146 0.929 . S
C2160 C2159 1.399 . S
C2160 C2161 1.385 . S
C2161 H2147 0.931 . S
C2161 C2160 1.385 . S
C2161 C2162 1.389 . S
C2162 C2161 1.389 . S
C2162 C2163 1.387 . S
C2163 H2148 0.930 . S
C2163 C2158 1.390 . S
C2163 C2162 1.387 . S
H2164 C2176 0.930 . S
H2165 C2178 0.930 . S
H2166 C2179 0.930 . S
H2167 C2183 0.959 . S
H2168 C2183 0.959 . S
H2169 C2183 0.961 . S
H2170 C2184 0.960 . S
H2171 C2184 0.961 . S
H2172 C2184 0.959 . S
H2173 C2187 0.929 . S
H2174 C2188 0.931 . S
H2175 C2190 0.930 . S
C2176 H2164 0.930 . S
C2176 C2177 1.399 . S
C2176 C2181 1.399 . S
C2177 C2176 1.399 . S
C2177 C2178 1.376 . S
C2178 H2165 0.930 . S
C2178 C2177 1.376 . S
C2178 C2179 1.388 . S
C2179 H2166 0.930 . S
C2179 C2178 1.388 . S
C2179 C2180 1.390 . S
C2180 C2179 1.390 . S
C2180 C2181 1.394 . S
C2180 C2186 1.465 . S
C2181 C2176 1.399 . S
C2181 C2180 1.394 . S
C2181 C2182 1.516 . S
C2182 C2181 1.516 . S
C2182 C2183 1.502 . S
C2182 C2184 1.561 . S
C2182 C2185 1.526 . S
C2183 H2167 0.959 . S
C2183 H2168 0.959 . S
C2183 H2169 0.961 . S
C2183 C2182 1.502 . S
C2184 H2170 0.960 . S
C2184 H2171 0.961 . S
C2184 H2172 0.959 . S
C2184 C2182 1.561 . S
C2185 C2182 1.526 . S
C2185 C2186 1.396 . S
C2185 C2190 1.390 . S
C2186 C2180 1.465 . S
C2186 C2185 1.396 . S
C2186 C2187 1.399 . S
C2187 H2173 0.929 . S
C2187 C2186 1.399 . S
C2187 C2188 1.385 . S
C2188 H2174 0.931 . S
C2188 C2187 1.385 . S
C2188 C2189 1.389 . S
C2189 C2188 1.389 . S
C2189 C2190 1.387 . S
C2190 H2175 0.930 . S
C2190 C2185 1.390 . S
C2190 C2189 1.387 . S
H2191 C2203 0.930 . S
H2192 C2205 0.930 . S
H2193 C2206 0.930 . S
H2194 C2210 0.959 1_545 S
H2195 C2210 0.959 . S
H2196 C2210 0.961 . S
H2197 C2211 0.960 . S
H2198 C2211 0.961 . S
H2199 C2211 0.959 . S
H2200 C2214 0.929 . S
H2201 C2215 0.931 . S
H2202 C2217 0.930 . S
C2203 H2191 0.930 . S
C2203 C2204 1.399 . S
C2203 C2208 1.399 . S
C2204 C2203 1.399 . S
C2204 C2205 1.376 . S
C2205 H2192 0.930 . S
C2205 C2204 1.376 . S
C2205 C2206 1.388 . S
C2206 H2193 0.930 . S
C2206 C2205 1.388 . S
C2206 C2207 1.390 . S
C2207 C2206 1.390 . S
C2207 C2208 1.394 . S
C2207 C2213 1.465 . S
C2208 C2203 1.399 . S
C2208 C2207 1.394 . S
C2208 C2209 1.516 . S
C2209 C2208 1.516 . S
C2209 C2210 1.502 . S
C2209 C2211 1.561 . S
C2209 C2212 1.526 . S
C2210 H2194 0.959 1_565 S
C2210 H2195 0.959 . S
C2210 H2196 0.961 . S
C2210 C2209 1.502 . S
C2211 H2197 0.960 . S
C2211 H2198 0.961 . S
C2211 H2199 0.959 . S
C2211 C2209 1.561 . S
C2212 C2209 1.526 . S
C2212 C2213 1.396 . S
C2212 C2217 1.390 . S
C2213 C2207 1.465 . S
C2213 C2212 1.396 . S
C2213 C2214 1.399 . S
C2214 H2200 0.929 . S
C2214 C2213 1.399 . S
C2214 C2215 1.385 1_565 S
C2215 H2201 0.931 . S
C2215 C2214 1.385 1_545 S
C2215 C2216 1.389 . S
C2216 C2215 1.389 . S
C2216 C2217 1.387 1_545 S
C2217 H2202 0.930 . S
C2217 C2212 1.390 . S
C2217 C2216 1.387 1_565 S
H2218 C2230 0.930 . S
H2219 C2232 0.930 . S
H2220 C2233 0.930 . S
H2221 C2237 0.959 . S
H2222 C2237 0.959 . S
H2223 C2237 0.961 . S
H2224 C2238 0.960 . S
H2225 C2238 0.961 . S
H2226 C2238 0.959 . S
H2227 C2241 0.929 . S
H2228 C2242 0.931 . S
H2229 C2244 0.930 . S
C2230 H2218 0.930 . S
C2230 C2231 1.399 . S
C2230 C2235 1.399 . S
C2231 C2230 1.399 . S
C2231 C2232 1.376 . S
C2232 H2219 0.930 . S
C2232 C2231 1.376 . S
C2232 C2233 1.388 . S
C2233 H2220 0.930 . S
C2233 C2232 1.388 . S
C2233 C2234 1.390 . S
C2234 C2233 1.390 . S
C2234 C2235 1.394 . S
C2234 C2240 1.465 . S
C2235 C2230 1.399 . S
C2235 C2234 1.394 . S
C2235 C2236 1.516 . S
C2236 C2235 1.516 . S
C2236 C2237 1.502 . S
C2236 C2238 1.561 . S
C2236 C2239 1.526 . S
C2237 H2221 0.959 . S
C2237 H2222 0.959 . S
C2237 H2223 0.961 . S
C2237 C2236 1.502 . S
C2238 H2224 0.960 . S
C2238 H2225 0.961 . S
C2238 H2226 0.959 . S
C2238 C2236 1.561 . S
C2239 C2236 1.526 . S
C2239 C2240 1.396 . S
C2239 C2244 1.390 . S
C2240 C2234 1.465 . S
C2240 C2239 1.396 . S
C2240 C2241 1.399 . S
C2241 H2227 0.929 . S
C2241 C2240 1.399 . S
C2241 C2242 1.385 . S
C2242 H2228 0.931 . S
C2242 C2241 1.385 . S
C2242 C2243 1.389 . S
C2243 C2242 1.389 . S
C2243 C2244 1.387 . S
C2244 H2229 0.930 . S
C2244 C2239 1.390 . S
C2244 C2243 1.387 . S
H2245 C2257 0.930 . S
H2246 C2259 0.930 . S
H2247 C2260 0.930 . S
H2248 C2264 0.959 . S
H2249 C2264 0.959 . S
H2250 C2264 0.961 . S
H2251 C2265 0.960 . S
H2252 C2265 0.961 . S
H2253 C2265 0.959 . S
H2254 C2268 0.929 . S
H2255 C2269 0.931 . S
H2256 C2271 0.930 . S
C2257 H2245 0.930 . S
C2257 C2258 1.399 . S
C2257 C2262 1.399 . S
C2258 C2257 1.399 . S
C2258 C2259 1.376 . S
C2259 H2246 0.930 . S
C2259 C2258 1.376 . S
C2259 C2260 1.388 . S
C2260 H2247 0.930 . S
C2260 C2259 1.388 . S
C2260 C2261 1.390 . S
C2261 C2260 1.390 . S
C2261 C2262 1.394 . S
C2261 C2267 1.465 . S
C2262 C2257 1.399 . S
C2262 C2261 1.394 . S
C2262 C2263 1.516 . S
C2263 C2262 1.516 . S
C2263 C2264 1.502 . S
C2263 C2265 1.561 . S
C2263 C2266 1.526 . S
C2264 H2248 0.959 . S
C2264 H2249 0.959 . S
C2264 H2250 0.961 . S
C2264 C2263 1.502 . S
C2265 H2251 0.960 . S
C2265 H2252 0.961 . S
C2265 H2253 0.959 . S
C2265 C2263 1.561 . S
C2266 C2263 1.526 . S
C2266 C2267 1.396 . S
C2266 C2271 1.390 . S
C2267 C2261 1.465 . S
C2267 C2266 1.396 . S
C2267 C2268 1.399 . S
C2268 H2254 0.929 . S
C2268 C2267 1.399 . S
C2268 C2269 1.385 . S
C2269 H2255 0.931 . S
C2269 C2268 1.385 . S
C2269 C2270 1.389 . S
C2270 C2269 1.389 . S
C2270 C2271 1.387 . S
C2271 H2256 0.930 . S
C2271 C2266 1.390 . S
C2271 C2270 1.387 . S
H2272 C2284 0.930 . S
H2273 C2286 0.930 . S
H2274 C2287 0.930 . S
H2275 C2291 0.959 . S
H2276 C2291 0.959 . S
H2277 C2291 0.961 . S
H2278 C2292 0.960 . S
H2279 C2292 0.961 . S
H2280 C2292 0.959 . S
H2281 C2295 0.929 . S
H2282 C2296 0.931 . S
H2283 C2298 0.930 . S
C2284 H2272 0.930 . S
C2284 C2285 1.399 . S
C2284 C2289 1.399 . S
C2285 C2284 1.399 . S
C2285 C2286 1.376 . S
C2286 H2273 0.930 . S
C2286 C2285 1.376 . S
C2286 C2287 1.388 . S
C2287 H2274 0.930 . S
C2287 C2286 1.388 . S
C2287 C2288 1.390 . S
C2288 C2287 1.390 . S
C2288 C2289 1.394 . S
C2288 C2294 1.465 . S
C2289 C2284 1.399 . S
C2289 C2288 1.394 . S
C2289 C2290 1.516 . S
C2290 C2289 1.516 . S
C2290 C2291 1.502 . S
C2290 C2292 1.561 . S
C2290 C2293 1.526 . S
C2291 H2275 0.959 . S
C2291 H2276 0.959 . S
C2291 H2277 0.961 . S
C2291 C2290 1.502 . S
C2292 H2278 0.960 . S
C2292 H2279 0.961 . S
C2292 H2280 0.959 . S
C2292 C2290 1.561 . S
C2293 C2290 1.526 . S
C2293 C2294 1.396 . S
C2293 C2298 1.390 . S
C2294 C2288 1.465 . S
C2294 C2293 1.396 . S
C2294 C2295 1.399 . S
C2295 H2281 0.929 . S
C2295 C2294 1.399 . S
C2295 C2296 1.385 . S
C2296 H2282 0.931 . S
C2296 C2295 1.385 . S
C2296 C2297 1.389 . S
C2297 C2296 1.389 . S
C2297 C2298 1.387 . S
C2298 H2283 0.930 . S
C2298 C2293 1.390 . S
C2298 C2297 1.387 . S
H2299 C2311 0.930 . S
H2300 C2313 0.930 . S
H2301 C2314 0.930 . S
H2302 C2318 0.959 . S
H2303 C2318 0.959 . S
H2304 C2318 0.961 . S
H2305 C2319 0.960 . S
H2306 C2319 0.961 . S
H2307 C2319 0.959 . S
H2308 C2322 0.929 . S
H2309 C2323 0.931 . S
H2310 C2325 0.930 . S
C2311 H2299 0.930 . S
C2311 C2312 1.399 . S
C2311 C2316 1.399 . S
C2312 C2311 1.399 . S
C2312 C2313 1.376 . S
C2313 H2300 0.930 . S
C2313 C2312 1.376 . S
C2313 C2314 1.388 . S
C2314 H2301 0.930 . S
C2314 C2313 1.388 . S
C2314 C2315 1.390 . S
C2315 C2314 1.390 . S
C2315 C2316 1.394 . S
C2315 C2321 1.465 . S
C2316 C2311 1.399 . S
C2316 C2315 1.394 . S
C2316 C2317 1.516 . S
C2317 C2316 1.516 . S
C2317 C2318 1.502 . S
C2317 C2319 1.561 . S
C2317 C2320 1.526 . S
C2318 H2302 0.959 . S
C2318 H2303 0.959 . S
C2318 H2304 0.961 . S
C2318 C2317 1.502 . S
C2319 H2305 0.960 . S
C2319 H2306 0.961 . S
C2319 H2307 0.959 . S
C2319 C2317 1.561 . S
C2320 C2317 1.526 . S
C2320 C2321 1.396 . S
C2320 C2325 1.390 . S
C2321 C2315 1.465 . S
C2321 C2320 1.396 . S
C2321 C2322 1.399 . S
C2322 H2308 0.929 . S
C2322 C2321 1.399 . S
C2322 C2323 1.385 . S
C2323 H2309 0.931 . S
C2323 C2322 1.385 . S
C2323 C2324 1.389 . S
C2324 C2323 1.389 . S
C2324 C2325 1.387 . S
C2325 H2310 0.930 . S
C2325 C2320 1.390 . S
C2325 C2324 1.387 . S
H2326 C2338 0.930 . S
H2327 C2340 0.930 . S
H2328 C2341 0.930 . S
H2329 C2345 0.928 1_656 S
H2330 C2345 0.959 . S
H2331 C2345 0.961 . S
H2332 C2346 0.960 . S
H2333 C2346 0.961 . S
H2334 C2346 0.959 . S
H2335 C2349 0.929 . S
H2336 C2350 0.931 . S
H2337 C2352 0.930 . S
C2338 H2326 0.930 . S
C2338 C2339 1.399 . S
C2338 C2343 1.399 . S
C2339 C2338 1.399 . S
C2339 C2340 1.376 . S
C2340 H2327 0.930 . S
C2340 C2339 1.376 . S
C2340 C2341 1.388 . S
C2341 H2328 0.930 . S
C2341 C2340 1.388 . S
C2341 C2342 1.390 . S
C2342 C2341 1.390 . S
C2342 C2343 1.394 . S
C2342 C2348 1.465 . S
C2343 C2338 1.399 . S
C2343 C2342 1.394 . S
C2343 C2344 1.521 1_556 S
C2344 C2343 1.521 1_554 S
C2344 C2345 1.499 . S
C2344 C2346 1.558 . S
C2344 C2347 1.528 1_554 S
C2345 H2329 0.928 1_454 S
C2345 H2330 0.959 . S
C2345 H2331 0.961 . S
C2345 C2344 1.499 . S
C2346 H2332 0.960 . S
C2346 H2333 0.961 . S
C2346 H2334 0.959 . S
C2346 C2344 1.558 . S
C2347 C2344 1.528 1_556 S
C2347 C2348 1.396 . S
C2347 C2352 1.390 1_556 S
C2348 C2342 1.465 . S
C2348 C2347 1.396 . S
C2348 C2349 1.399 . S
C2349 H2335 0.929 . S
C2349 C2348 1.399 . S
C2349 C2350 1.385 . S
C2350 H2336 0.931 . S
C2350 C2349 1.385 . S
C2350 C2351 1.410 . S
C2351 C2350 1.410 . S
C2351 C2352 1.376 1_556 S
C2352 H2337 0.930 . S
C2352 C2347 1.390 1_554 S
C2352 C2351 1.376 1_554 S
H2353 C2365 0.930 . S
H2354 C2367 0.950 . S
H2355 C2368 0.930 . S
H2356 C2372 0.959 . S
H2357 C2372 0.959 . S
H2358 C2372 0.961 1_455 S
H2359 C2373 0.960 . S
H2360 C2373 0.961 . S
H2361 C2373 0.959 . S
H2362 C2376 0.929 . S
H2363 C2377 0.931 . S
H2364 C2379 0.930 . S
C2365 H2353 0.930 . S
C2365 C2366 1.399 . S
C2365 C2370 1.399 1_455 S
C2366 C2365 1.399 . S
C2366 C2367 1.396 . S
C2367 H2354 0.950 . S
C2367 C2366 1.396 . S
C2367 C2368 1.350 1_455 S
C2368 H2355 0.930 . S
C2368 C2367 1.350 1_655 S
C2368 C2369 1.390 . S
C2369 C2368 1.390 . S
C2369 C2370 1.394 . S
C2369 C2375 1.465 . S
C2370 C2365 1.399 1_655 S
C2370 C2369 1.394 . S
C2370 C2371 1.516 . S
C2371 C2370 1.516 . S
C2371 C2372 1.502 . S
C2371 C2373 1.561 . S
C2371 C2374 1.526 . S
C2372 H2356 0.959 . S
C2372 H2357 0.959 . S
C2372 H2358 0.961 1_655 S
C2372 C2371 1.502 . S
C2373 H2359 0.960 . S
C2373 H2360 0.961 . S
C2373 H2361 0.959 . S
C2373 C2371 1.561 . S
C2374 C2371 1.526 . S
C2374 C2375 1.396 . S
C2374 C2379 1.390 . S
C2375 C2369 1.465 . S
C2375 C2374 1.396 . S
C2375 C2376 1.399 . S
C2376 H2362 0.929 . S
C2376 C2375 1.399 . S
C2376 C2377 1.385 . S
C2377 H2363 0.931 . S
C2377 C2376 1.385 . S
C2377 C2378 1.389 . S
C2378 C2377 1.389 . S
C2378 C2379 1.387 . S
C2379 H2364 0.930 . S
C2379 C2374 1.390 . S
C2379 C2378 1.387 . S
H2380 C2392 0.930 . S
H2381 C2394 0.930 . S
H2382 C2395 0.930 . S
H2383 C2399 0.959 . S
H2384 C2399 0.959 . S
H2385 C2399 0.961 . S
H2386 C2400 0.960 . S
H2387 C2400 0.961 . S
H2388 C2400 0.959 . S
H2389 C2403 0.929 . S
H2390 C2404 0.931 . S
H2391 C2406 0.930 . S
C2392 H2380 0.930 . S
C2392 C2393 1.399 . S
C2392 C2397 1.399 . S
C2393 C2392 1.399 . S
C2393 C2394 1.376 . S
C2394 H2381 0.930 . S
C2394 C2393 1.376 . S
C2394 C2395 1.388 . S
C2395 H2382 0.930 . S
C2395 C2394 1.388 . S
C2395 C2396 1.390 . S
C2396 C2395 1.390 . S
C2396 C2397 1.394 . S
C2396 C2402 1.465 . S
C2397 C2392 1.399 . S
C2397 C2396 1.394 . S
C2397 C2398 1.516 . S
C2398 C2397 1.516 . S
C2398 C2399 1.502 . S
C2398 C2400 1.561 . S
C2398 C2401 1.526 . S
C2399 H2383 0.959 . S
C2399 H2384 0.959 . S
C2399 H2385 0.961 . S
C2399 C2398 1.502 . S
C2400 H2386 0.960 . S
C2400 H2387 0.961 . S
C2400 H2388 0.959 . S
C2400 C2398 1.561 . S
C2401 C2398 1.526 . S
C2401 C2402 1.396 . S
C2401 C2406 1.390 . S
C2402 C2396 1.465 . S
C2402 C2401 1.396 . S
C2402 C2403 1.399 . S
C2403 H2389 0.929 . S
C2403 C2402 1.399 . S
C2403 C2404 1.385 . S
C2404 H2390 0.931 . S
C2404 C2403 1.385 . S
C2404 C2405 1.389 . S
C2405 C2404 1.389 . S
C2405 C2406 1.387 . S
C2406 H2391 0.930 . S
C2406 C2401 1.390 . S
C2406 C2405 1.387 . S
H2407 C2419 0.930 . S
H2408 C2421 0.930 . S
H2409 C2422 0.930 . S
H2410 C2426 0.959 . S
H2411 C2426 0.959 . S
H2412 C2426 0.961 . S
H2413 C2427 0.960 . S
H2414 C2427 0.961 . S
H2415 C2427 0.959 . S
H2416 C2430 0.929 . S
H2417 C2431 0.931 . S
H2418 C2433 0.930 . S
C2419 H2407 0.930 . S
C2419 C2420 1.399 . S
C2419 C2424 1.399 . S
C2420 C2419 1.399 . S
C2420 C2421 1.376 . S
C2421 H2408 0.930 . S
C2421 C2420 1.376 . S
C2421 C2422 1.388 . S
C2422 H2409 0.930 . S
C2422 C2421 1.388 . S
C2422 C2423 1.390 . S
C2423 C2422 1.390 . S
C2423 C2424 1.394 . S
C2423 C2429 1.465 . S
C2424 C2419 1.399 . S
C2424 C2423 1.394 . S
C2424 C2425 1.516 . S
C2425 C2424 1.516 . S
C2425 C2426 1.502 . S
C2425 C2427 1.561 . S
C2425 C2428 1.526 . S
C2426 H2410 0.959 . S
C2426 H2411 0.959 . S
C2426 H2412 0.961 . S
C2426 C2425 1.502 . S
C2427 H2413 0.960 . S
C2427 H2414 0.961 . S
C2427 H2415 0.959 . S
C2427 C2425 1.561 . S
C2428 C2425 1.526 . S
C2428 C2429 1.396 . S
C2428 C2433 1.390 . S
C2429 C2423 1.465 . S
C2429 C2428 1.396 . S
C2429 C2430 1.399 . S
C2430 H2416 0.929 . S
C2430 C2429 1.399 . S
C2430 C2431 1.385 . S
C2431 H2417 0.931 . S
C2431 C2430 1.385 . S
C2431 C2432 1.389 . S
C2432 C2431 1.389 . S
C2432 C2433 1.387 . S
C2433 H2418 0.930 . S
C2433 C2428 1.390 . S
C2433 C2432 1.387 . S
H2434 C2446 0.930 . S
H2435 C2448 0.930 . S
H2436 C2449 0.930 . S
H2437 C2453 0.959 . S
H2438 C2453 0.959 . S
H2439 C2453 0.961 . S
H2440 C2454 0.960 . S
H2441 C2454 0.961 . S
H2442 C2454 0.959 . S
H2443 C2457 0.929 . S
H2444 C2458 0.931 . S
H2445 C2460 0.930 . S
C2446 H2434 0.930 . S
C2446 C2447 1.399 . S
C2446 C2451 1.399 . S
C2447 C2446 1.399 . S
C2447 C2448 1.376 . S
C2448 H2435 0.930 . S
C2448 C2447 1.376 . S
C2448 C2449 1.388 . S
C2449 H2436 0.930 . S
C2449 C2448 1.388 . S
C2449 C2450 1.390 . S
C2450 C2449 1.390 . S
C2450 C2451 1.394 . S
C2450 C2456 1.465 . S
C2451 C2446 1.399 . S
C2451 C2450 1.394 . S
C2451 C2452 1.516 . S
C2452 C2451 1.516 . S
C2452 C2453 1.502 . S
C2452 C2454 1.561 . S
C2452 C2455 1.526 . S
C2453 H2437 0.959 . S
C2453 H2438 0.959 . S
C2453 H2439 0.961 . S
C2453 C2452 1.502 . S
C2454 H2440 0.960 . S
C2454 H2441 0.961 . S
C2454 H2442 0.959 . S
C2454 C2452 1.561 . S
C2455 C2452 1.526 . S
C2455 C2456 1.396 . S
C2455 C2460 1.390 . S
C2456 C2450 1.465 . S
C2456 C2455 1.396 . S
C2456 C2457 1.399 . S
C2457 H2443 0.929 . S
C2457 C2456 1.399 . S
C2457 C2458 1.385 . S
C2458 H2444 0.931 . S
C2458 C2457 1.385 . S
C2458 C2459 1.389 . S
C2459 C2458 1.389 . S
C2459 C2460 1.387 . S
C2460 H2445 0.930 . S
C2460 C2455 1.390 . S
C2460 C2459 1.387 . S
H2461 C2473 0.930 . S
H2462 C2475 0.930 . S
H2463 C2476 0.930 . S
H2464 C2480 0.959 . S
H2465 C2480 0.959 . S
H2466 C2480 0.961 . S
H2467 C2481 0.960 . S
H2468 C2481 0.961 . S
H2469 C2481 0.959 . S
H2470 C2484 0.929 . S
H2471 C2485 0.931 . S
H2472 C2487 0.930 . S
C2473 H2461 0.930 . S
C2473 C2474 1.399 . S
C2473 C2478 1.399 . S
C2474 C2473 1.399 . S
C2474 C2475 1.376 . S
C2475 H2462 0.930 . S
C2475 C2474 1.376 . S
C2475 C2476 1.388 . S
C2476 H2463 0.930 . S
C2476 C2475 1.388 . S
C2476 C2477 1.390 . S
C2477 C2476 1.390 . S
C2477 C2478 1.394 . S
C2477 C2483 1.465 . S
C2478 C2473 1.399 . S
C2478 C2477 1.394 . S
C2478 C2479 1.516 . S
C2479 C2478 1.516 . S
C2479 C2480 1.502 . S
C2479 C2481 1.561 . S
C2479 C2482 1.526 . S
C2480 H2464 0.959 . S
C2480 H2465 0.959 . S
C2480 H2466 0.961 . S
C2480 C2479 1.502 . S
C2481 H2467 0.960 . S
C2481 H2468 0.961 . S
C2481 H2469 0.959 . S
C2481 C2479 1.561 . S
C2482 C2479 1.526 . S
C2482 C2483 1.396 . S
C2482 C2487 1.390 . S
C2483 C2477 1.465 . S
C2483 C2482 1.396 . S
C2483 C2484 1.399 . S
C2484 H2470 0.929 . S
C2484 C2483 1.399 . S
C2484 C2485 1.385 . S
C2485 H2471 0.931 . S
C2485 C2484 1.385 . S
C2485 C2486 1.389 . S
C2486 C2485 1.389 . S
C2486 C2487 1.387 . S
C2487 H2472 0.930 . S
C2487 C2482 1.390 . S
C2487 C2486 1.387 . S
H2488 C2500 0.930 . S
H2489 C2502 0.930 . S
H2490 C2503 0.930 . S
H2491 C2507 0.959 . S
H2492 C2507 0.959 . S
H2493 C2507 0.961 . S
H2494 C2508 0.960 . S
H2495 C2508 0.961 . S
H2496 C2508 0.959 . S
H2497 C2511 0.929 . S
H2498 C2512 0.931 . S
H2499 C2514 0.930 . S
C2500 H2488 0.930 . S
C2500 C2501 1.399 . S
C2500 C2505 1.399 . S
C2501 C2500 1.399 . S
C2501 C2502 1.376 . S
C2502 H2489 0.930 . S
C2502 C2501 1.376 . S
C2502 C2503 1.388 . S
C2503 H2490 0.930 . S
C2503 C2502 1.388 . S
C2503 C2504 1.390 . S
C2504 C2503 1.390 . S
C2504 C2505 1.394 . S
C2504 C2510 1.465 . S
C2505 C2500 1.399 . S
C2505 C2504 1.394 . S
C2505 C2506 1.516 . S
C2506 C2505 1.516 . S
C2506 C2507 1.502 . S
C2506 C2508 1.561 . S
C2506 C2509 1.526 . S
C2507 H2491 0.959 . S
C2507 H2492 0.959 . S
C2507 H2493 0.961 . S
C2507 C2506 1.502 . S
C2508 H2494 0.960 . S
C2508 H2495 0.961 . S
C2508 H2496 0.959 . S
C2508 C2506 1.561 . S
C2509 C2506 1.526 . S
C2509 C2510 1.396 . S
C2509 C2514 1.390 . S
C2510 C2504 1.465 . S
C2510 C2509 1.396 . S
C2510 C2511 1.399 . S
C2511 H2497 0.929 . S
C2511 C2510 1.399 . S
C2511 C2512 1.385 . S
C2512 H2498 0.931 . S
C2512 C2511 1.385 . S
C2512 C2513 1.389 . S
C2513 C2512 1.389 . S
C2513 C2514 1.387 . S
C2514 H2499 0.930 . S
C2514 C2509 1.390 . S
C2514 C2513 1.387 . S
H2515 C2527 0.930 . S
H2516 C2529 0.930 . S
H2517 C2530 0.930 . S
H2518 C2534 0.959 . S
H2519 C2534 0.959 . S
H2520 C2534 0.961 . S
H2521 C2535 0.960 . S
H2522 C2535 0.961 . S
H2523 C2535 0.959 . S
H2524 C2538 0.929 . S
H2525 C2539 0.931 . S
H2526 C2541 0.930 . S
C2527 H2515 0.930 . S
C2527 C2528 1.399 . S
C2527 C2532 1.399 . S
C2528 C2527 1.399 . S
C2528 C2529 1.376 . S
C2529 H2516 0.930 . S
C2529 C2528 1.376 . S
C2529 C2530 1.388 . S
C2530 H2517 0.930 . S
C2530 C2529 1.388 . S
C2530 C2531 1.390 . S
C2531 C2530 1.390 . S
C2531 C2532 1.394 . S
C2531 C2537 1.465 . S
C2532 C2527 1.399 . S
C2532 C2531 1.394 . S
C2532 C2533 1.516 . S
C2533 C2532 1.516 . S
C2533 C2534 1.502 . S
C2533 C2535 1.561 . S
C2533 C2536 1.526 . S
C2534 H2518 0.959 . S
C2534 H2519 0.959 . S
C2534 H2520 0.961 . S
C2534 C2533 1.502 . S
C2535 H2521 0.960 . S
C2535 H2522 0.961 . S
C2535 H2523 0.959 . S
C2535 C2533 1.561 . S
C2536 C2533 1.526 . S
C2536 C2537 1.396 . S
C2536 C2541 1.390 . S
C2537 C2531 1.465 . S
C2537 C2536 1.396 . S
C2537 C2538 1.399 . S
C2538 H2524 0.929 . S
C2538 C2537 1.399 . S
C2538 C2539 1.385 . S
C2539 H2525 0.931 . S
C2539 C2538 1.385 . S
C2539 C2540 1.389 . S
C2540 C2539 1.389 . S
C2540 C2541 1.387 . S
C2541 H2526 0.930 . S
C2541 C2536 1.390 . S
C2541 C2540 1.387 . S
H2542 C2554 0.930 . S
H2543 C2556 0.930 . S
H2544 C2557 0.930 . S
H2545 C2561 0.959 . S
H2546 C2561 0.959 . S
H2547 C2561 0.961 . S
H2548 C2562 0.960 . S
H2549 C2562 0.961 . S
H2550 C2562 0.959 . S
H2551 C2565 0.929 . S
H2552 C2566 0.931 . S
H2553 C2568 0.930 . S
C2554 H2542 0.930 . S
C2554 C2555 1.399 . S
C2554 C2559 1.399 . S
C2555 C2554 1.399 . S
C2555 C2556 1.376 . S
C2556 H2543 0.930 . S
C2556 C2555 1.376 . S
C2556 C2557 1.388 . S
C2557 H2544 0.930 . S
C2557 C2556 1.388 . S
C2557 C2558 1.390 . S
C2558 C2557 1.390 . S
C2558 C2559 1.394 . S
C2558 C2564 1.465 . S
C2559 C2554 1.399 . S
C2559 C2558 1.394 . S
C2559 C2560 1.516 . S
C2560 C2559 1.516 . S
C2560 C2561 1.502 . S
C2560 C2562 1.561 . S
C2560 C2563 1.526 . S
C2561 H2545 0.959 . S
C2561 H2546 0.959 . S
C2561 H2547 0.961 . S
C2561 C2560 1.502 . S
C2562 H2548 0.960 . S
C2562 H2549 0.961 . S
C2562 H2550 0.959 . S
C2562 C2560 1.561 . S
C2563 C2560 1.526 . S
C2563 C2564 1.396 . S
C2563 C2568 1.390 . S
C2564 C2558 1.465 . S
C2564 C2563 1.396 . S
C2564 C2565 1.399 . S
C2565 H2551 0.929 . S
C2565 C2564 1.399 . S
C2565 C2566 1.385 . S
C2566 H2552 0.931 . S
C2566 C2565 1.385 . S
C2566 C2567 1.389 . S
C2567 C2566 1.389 . S
C2567 C2568 1.387 . S
C2568 H2553 0.930 . S
C2568 C2563 1.390 . S
C2568 C2567 1.387 . S
H2569 C2581 0.930 . S
H2570 C2583 0.930 . S
H2571 C2584 0.930 . S
H2572 C2588 0.959 . S
H2573 C2588 0.959 . S
H2574 C2588 0.961 . S
H2575 C2589 0.960 . S
H2576 C2589 0.961 . S
H2577 C2589 0.959 . S
H2578 C2592 0.929 . S
H2579 C2593 0.931 . S
H2580 C2595 0.930 . S
C2581 H2569 0.930 . S
C2581 C2582 1.399 . S
C2581 C2586 1.399 . S
C2582 C2581 1.399 . S
C2582 C2583 1.376 . S
C2583 H2570 0.930 . S
C2583 C2582 1.376 . S
C2583 C2584 1.388 . S
C2584 H2571 0.930 . S
C2584 C2583 1.388 . S
C2584 C2585 1.390 . S
C2585 C2584 1.390 . S
C2585 C2586 1.394 . S
C2585 C2591 1.465 . S
C2586 C2581 1.399 . S
C2586 C2585 1.394 . S
C2586 C2587 1.516 . S
C2587 C2586 1.516 . S
C2587 C2588 1.502 . S
C2587 C2589 1.561 . S
C2587 C2590 1.526 . S
C2588 H2572 0.959 . S
C2588 H2573 0.959 . S
C2588 H2574 0.961 . S
C2588 C2587 1.502 . S
C2589 H2575 0.960 . S
C2589 H2576 0.961 . S
C2589 H2577 0.959 . S
C2589 C2587 1.561 . S
C2590 C2587 1.526 . S
C2590 C2591 1.396 . S
C2590 C2595 1.390 . S
C2591 C2585 1.465 . S
C2591 C2590 1.396 . S
C2591 C2592 1.399 . S
C2592 H2578 0.929 . S
C2592 C2591 1.399 . S
C2592 C2593 1.385 . S
C2593 H2579 0.931 . S
C2593 C2592 1.385 . S
C2593 C2594 1.389 . S
C2594 C2593 1.389 . S
C2594 C2595 1.387 . S
C2595 H2580 0.930 . S
C2595 C2590 1.390 . S
C2595 C2594 1.387 . S
H2596 C2608 0.930 . S
H2597 C2610 0.930 . S
H2598 C2611 0.930 . S
H2599 C2615 0.959 . S
H2600 C2615 0.959 . S
H2601 C2615 0.961 . S
H2602 C2616 0.960 . S
H2603 C2616 0.961 . S
H2604 C2616 0.959 . S
H2605 C2619 0.929 . S
H2606 C2620 0.931 . S
H2607 C2622 0.930 . S
C2608 H2596 0.930 . S
C2608 C2609 1.399 . S
C2608 C2613 1.399 . S
C2609 C2608 1.399 . S
C2609 C2610 1.376 . S
C2610 H2597 0.930 . S
C2610 C2609 1.376 . S
C2610 C2611 1.388 . S
C2611 H2598 0.930 . S
C2611 C2610 1.388 . S
C2611 C2612 1.390 . S
C2612 C2611 1.390 . S
C2612 C2613 1.394 . S
C2612 C2618 1.465 . S
C2613 C2608 1.399 . S
C2613 C2612 1.394 . S
C2613 C2614 1.516 . S
C2614 C2613 1.516 . S
C2614 C2615 1.502 . S
C2614 C2616 1.561 . S
C2614 C2617 1.526 . S
C2615 H2599 0.959 . S
C2615 H2600 0.959 . S
C2615 H2601 0.961 . S
C2615 C2614 1.502 . S
C2616 H2602 0.960 . S
C2616 H2603 0.961 . S
C2616 H2604 0.959 . S
C2616 C2614 1.561 . S
C2617 C2614 1.526 . S
C2617 C2618 1.396 . S
C2617 C2622 1.390 . S
C2618 C2612 1.465 . S
C2618 C2617 1.396 . S
C2618 C2619 1.399 . S
C2619 H2605 0.929 . S
C2619 C2618 1.399 . S
C2619 C2620 1.385 . S
C2620 H2606 0.931 . S
C2620 C2619 1.385 . S
C2620 C2621 1.389 . S
C2621 C2620 1.389 . S
C2621 C2622 1.387 . S
C2622 H2607 0.930 . S
C2622 C2617 1.390 . S
C2622 C2621 1.387 . S
H2623 C2635 0.930 . S
H2624 C2637 0.930 . S
H2625 C2638 0.930 . S
H2626 C2642 0.959 . S
H2627 C2642 0.959 . S
H2628 C2642 0.961 . S
H2629 C2643 0.960 . S
H2630 C2643 0.961 . S
H2631 C2643 0.959 . S
H2632 C2646 0.929 . S
H2633 C2647 0.931 . S
H2634 C2649 0.930 . S
C2635 H2623 0.930 . S
C2635 C2636 1.399 . S
C2635 C2640 1.399 . S
C2636 C2635 1.399 . S
C2636 C2637 1.376 . S
C2637 H2624 0.930 . S
C2637 C2636 1.376 . S
C2637 C2638 1.388 . S
C2638 H2625 0.930 . S
C2638 C2637 1.388 . S
C2638 C2639 1.390 . S
C2639 C2638 1.390 . S
C2639 C2640 1.394 . S
C2639 C2645 1.465 . S
C2640 C2635 1.399 . S
C2640 C2639 1.394 . S
C2640 C2641 1.516 . S
C2641 C2640 1.516 . S
C2641 C2642 1.502 . S
C2641 C2643 1.561 . S
C2641 C2644 1.526 . S
C2642 H2626 0.959 . S
C2642 H2627 0.959 . S
C2642 H2628 0.961 . S
C2642 C2641 1.502 . S
C2643 H2629 0.960 . S
C2643 H2630 0.961 . S
C2643 H2631 0.959 . S
C2643 C2641 1.561 . S
C2644 C2641 1.526 . S
C2644 C2645 1.396 . S
C2644 C2649 1.390 . S
C2645 C2639 1.465 . S
C2645 C2644 1.396 . S
C2645 C2646 1.399 . S
C2646 H2632 0.929 . S
C2646 C2645 1.399 . S
C2646 C2647 1.385 . S
C2647 H2633 0.931 . S
C2647 C2646 1.385 . S
C2647 C2648 1.389 . S
C2648 C2647 1.389 . S
C2648 C2649 1.387 . S
C2649 H2634 0.930 . S
C2649 C2644 1.390 . S
C2649 C2648 1.387 . S
H2650 C2662 0.930 . S
H2651 C2664 0.930 . S
H2652 C2665 0.930 . S
H2653 C2669 0.959 . S
H2654 C2669 0.959 . S
H2655 C2669 0.961 . S
H2656 C2670 0.960 . S
H2657 C2670 0.961 . S
H2658 C2670 0.959 . S
H2659 C2673 0.929 . S
H2660 C2674 0.931 . S
H2661 C2676 0.930 . S
C2662 H2650 0.930 . S
C2662 C2663 1.399 . S
C2662 C2667 1.399 . S
C2663 C2662 1.399 . S
C2663 C2664 1.376 . S
C2664 H2651 0.930 . S
C2664 C2663 1.376 . S
C2664 C2665 1.388 . S
C2665 H2652 0.930 . S
C2665 C2664 1.388 . S
C2665 C2666 1.390 . S
C2666 C2665 1.390 . S
C2666 C2667 1.394 . S
C2666 C2672 1.465 . S
C2667 C2662 1.399 . S
C2667 C2666 1.394 . S
C2667 C2668 1.516 . S
C2668 C2667 1.516 . S
C2668 C2669 1.502 . S
C2668 C2670 1.561 . S
C2668 C2671 1.526 . S
C2669 H2653 0.959 . S
C2669 H2654 0.959 . S
C2669 H2655 0.961 . S
C2669 C2668 1.502 . S
C2670 H2656 0.960 . S
C2670 H2657 0.961 . S
C2670 H2658 0.959 . S
C2670 C2668 1.561 . S
C2671 C2668 1.526 . S
C2671 C2672 1.396 . S
C2671 C2676 1.390 . S
C2672 C2666 1.465 . S
C2672 C2671 1.396 . S
C2672 C2673 1.399 . S
C2673 H2659 0.929 . S
C2673 C2672 1.399 . S
C2673 C2674 1.385 . S
C2674 H2660 0.931 . S
C2674 C2673 1.385 . S
C2674 C2675 1.389 . S
C2675 C2674 1.389 . S
C2675 C2676 1.387 . S
C2676 H2661 0.930 . S
C2676 C2671 1.390 . S
C2676 C2675 1.387 . S
H2677 C2689 0.930 . S
H2678 C2691 0.930 . S
H2679 C2692 0.930 . S
H2680 C2696 0.959 . S
H2681 C2696 0.959 . S
H2682 C2696 0.961 . S
H2683 C2697 0.960 . S
H2684 C2697 0.961 . S
H2685 C2697 0.959 . S
H2686 C2700 0.929 . S
H2687 C2701 0.931 . S
H2688 C2703 0.930 . S
C2689 H2677 0.930 . S
C2689 C2690 1.399 . S
C2689 C2694 1.399 . S
C2690 C2689 1.399 . S
C2690 C2691 1.376 . S
C2691 H2678 0.930 . S
C2691 C2690 1.376 . S
C2691 C2692 1.388 . S
C2692 H2679 0.930 . S
C2692 C2691 1.388 . S
C2692 C2693 1.390 . S
C2693 C2692 1.390 . S
C2693 C2694 1.394 . S
C2693 C2699 1.465 . S
C2694 C2689 1.399 . S
C2694 C2693 1.394 . S
C2694 C2695 1.516 . S
C2695 C2694 1.516 . S
C2695 C2696 1.502 . S
C2695 C2697 1.561 . S
C2695 C2698 1.526 . S
C2696 H2680 0.959 . S
C2696 H2681 0.959 . S
C2696 H2682 0.961 . S
C2696 C2695 1.502 . S
C2697 H2683 0.960 . S
C2697 H2684 0.961 . S
C2697 H2685 0.959 . S
C2697 C2695 1.561 . S
C2698 C2695 1.526 . S
C2698 C2699 1.396 . S
C2698 C2703 1.390 . S
C2699 C2693 1.465 . S
C2699 C2698 1.396 . S
C2699 C2700 1.399 . S
C2700 H2686 0.929 . S
C2700 C2699 1.399 . S
C2700 C2701 1.385 . S
C2701 H2687 0.931 . S
C2701 C2700 1.385 . S
C2701 C2702 1.389 . S
C2702 C2701 1.389 . S
C2702 C2703 1.387 . S
C2703 H2688 0.930 . S
C2703 C2698 1.390 . S
C2703 C2702 1.387 . S
H2704 C2716 0.930 . S
H2705 C2718 0.930 . S
H2706 C2719 0.930 . S
H2707 C2723 0.959 . S
H2708 C2723 0.959 . S
H2709 C2723 0.961 . S
H2710 C2724 0.960 . S
H2711 C2724 0.961 . S
H2712 C2724 0.959 . S
H2713 C2727 0.929 . S
H2714 C2728 0.931 . S
H2715 C2730 0.930 . S
C2716 H2704 0.930 . S
C2716 C2717 1.399 . S
C2716 C2721 1.399 . S
C2717 C2716 1.399 . S
C2717 C2718 1.376 . S
C2718 H2705 0.930 . S
C2718 C2717 1.376 . S
C2718 C2719 1.388 . S
C2719 H2706 0.930 . S
C2719 C2718 1.388 . S
C2719 C2720 1.390 . S
C2720 C2719 1.390 . S
C2720 C2721 1.394 . S
C2720 C2726 1.465 . S
C2721 C2716 1.399 . S
C2721 C2720 1.394 . S
C2721 C2722 1.516 . S
C2722 C2721 1.516 . S
C2722 C2723 1.502 . S
C2722 C2724 1.561 . S
C2722 C2725 1.526 . S
C2723 H2707 0.959 . S
C2723 H2708 0.959 . S
C2723 H2709 0.961 . S
C2723 C2722 1.502 . S
C2724 H2710 0.960 . S
C2724 H2711 0.961 . S
C2724 H2712 0.959 . S
C2724 C2722 1.561 . S
C2725 C2722 1.526 . S
C2725 C2726 1.396 . S
C2725 C2730 1.390 . S
C2726 C2720 1.465 . S
C2726 C2725 1.396 . S
C2726 C2727 1.399 . S
C2727 H2713 0.929 . S
C2727 C2726 1.399 . S
C2727 C2728 1.385 . S
C2728 H2714 0.931 . S
C2728 C2727 1.385 . S
C2728 C2729 1.389 . S
C2729 C2728 1.389 . S
C2729 C2730 1.387 . S
C2730 H2715 0.930 . S
C2730 C2725 1.390 . S
C2730 C2729 1.387 . S
H2731 C2743 0.930 . S
H2732 C2745 0.930 . S
H2733 C2746 0.930 . S
H2734 C2750 0.959 . S
H2735 C2750 0.959 . S
H2736 C2750 0.961 . S
H2737 C2751 0.960 . S
H2738 C2751 0.961 . S
H2739 C2751 0.959 . S
H2740 C2754 0.929 . S
H2741 C2755 0.931 . S
H2742 C2757 0.930 . S
C2743 H2731 0.930 . S
C2743 C2744 1.399 . S
C2743 C2748 1.399 . S
C2744 C2743 1.399 . S
C2744 C2745 1.376 . S
C2745 H2732 0.930 . S
C2745 C2744 1.376 . S
C2745 C2746 1.388 . S
C2746 H2733 0.930 . S
C2746 C2745 1.388 . S
C2746 C2747 1.390 . S
C2747 C2746 1.390 . S
C2747 C2748 1.394 . S
C2747 C2753 1.465 . S
C2748 C2743 1.399 . S
C2748 C2747 1.394 . S
C2748 C2749 1.516 . S
C2749 C2748 1.516 . S
C2749 C2750 1.502 . S
C2749 C2751 1.561 . S
C2749 C2752 1.526 . S
C2750 H2734 0.959 . S
C2750 H2735 0.959 . S
C2750 H2736 0.961 . S
C2750 C2749 1.502 . S
C2751 H2737 0.960 . S
C2751 H2738 0.961 . S
C2751 H2739 0.959 . S
C2751 C2749 1.561 . S
C2752 C2749 1.526 . S
C2752 C2753 1.396 . S
C2752 C2757 1.390 . S
C2753 C2747 1.465 . S
C2753 C2752 1.396 . S
C2753 C2754 1.399 . S
C2754 H2740 0.929 . S
C2754 C2753 1.399 . S
C2754 C2755 1.385 . S
C2755 H2741 0.931 . S
C2755 C2754 1.385 . S
C2755 C2756 1.389 . S
C2756 C2755 1.389 . S
C2756 C2757 1.387 . S
C2757 H2742 0.930 . S
C2757 C2752 1.390 . S
C2757 C2756 1.387 . S
H2758 C2770 0.930 . S
H2759 C2772 0.930 . S
H2760 C2773 0.930 . S
H2761 C2777 0.959 . S
H2762 C2777 0.959 . S
H2763 C2777 0.961 . S
H2764 C2778 0.960 . S
H2765 C2778 0.961 . S
H2766 C2778 0.959 . S
H2767 C2781 0.929 . S
H2768 C2782 0.931 . S
H2769 C2784 0.930 . S
C2770 H2758 0.930 . S
C2770 C2771 1.399 . S
C2770 C2775 1.399 . S
C2771 C2770 1.399 . S
C2771 C2772 1.376 . S
C2772 H2759 0.930 . S
C2772 C2771 1.376 . S
C2772 C2773 1.388 . S
C2773 H2760 0.930 . S
C2773 C2772 1.388 . S
C2773 C2774 1.390 . S
C2774 C2773 1.390 . S
C2774 C2775 1.394 . S
C2774 C2780 1.465 1_545 S
C2775 C2770 1.399 . S
C2775 C2774 1.394 . S
C2775 C2776 1.516 . S
C2776 C2775 1.516 . S
C2776 C2777 1.502 . S
C2776 C2778 1.561 1_545 S
C2776 C2779 1.526 1_545 S
C2777 H2761 0.959 . S
C2777 H2762 0.959 . S
C2777 H2763 0.961 . S
C2777 C2776 1.502 . S
C2778 H2764 0.960 . S
C2778 H2765 0.961 . S
C2778 H2766 0.959 . S
C2778 C2776 1.561 1_565 S
C2779 C2776 1.526 1_565 S
C2779 C2780 1.396 . S
C2779 C2784 1.390 . S
C2780 C2774 1.465 1_565 S
C2780 C2779 1.396 . S
C2780 C2781 1.399 . S
C2781 H2767 0.929 . S
C2781 C2780 1.399 . S
C2781 C2782 1.385 . S
C2782 H2768 0.931 . S
C2782 C2781 1.385 . S
C2782 C2783 1.389 . S
C2783 C2782 1.389 . S
C2783 C2784 1.387 . S
C2784 H2769 0.930 . S
C2784 C2779 1.390 . S
C2784 C2783 1.387 . S
H2785 C2797 0.930 . S
H2786 C2799 0.930 . S
H2787 C2800 0.930 . S
H2788 C2804 0.959 . S
H2789 C2804 0.959 . S
H2790 C2804 0.961 . S
H2791 C2805 0.958 1_556 S
H2792 C2805 0.935 1_556 S
H2793 C2805 0.952 1_546 S
H2794 C2808 0.929 . S
H2795 C2809 0.931 . S
H2796 C2811 0.930 . S
C2797 H2785 0.930 . S
C2797 C2798 1.399 . S
C2797 C2802 1.399 . S
C2798 C2797 1.399 . S
C2798 C2799 1.376 1_565 S
C2799 H2786 0.930 . S
C2799 C2798 1.376 1_545 S
C2799 C2800 1.388 . S
C2800 H2787 0.930 . S
C2800 C2799 1.388 . S
C2800 C2801 1.390 . S
C2801 C2800 1.390 . S
C2801 C2802 1.394 1_545 S
C2801 C2807 1.465 . S
C2802 C2797 1.399 . S
C2802 C2801 1.394 1_565 S
C2802 C2803 1.516 . S
C2803 C2802 1.516 . S
C2803 C2804 1.502 . S
C2803 C2805 1.597 . S
C2803 C2806 1.526 1_565 S
C2804 H2788 0.959 . S
C2804 H2789 0.959 . S
C2804 H2790 0.961 . S
C2804 C2803 1.502 . S
C2805 H2791 0.958 1_554 S
C2805 H2792 0.935 1_554 S
C2805 H2793 0.952 1_564 S
C2805 C2803 1.597 . S
C2806 C2803 1.526 1_545 S
C2806 C2807 1.396 . S
C2806 C2811 1.390 . S
C2807 C2801 1.465 . S
C2807 C2806 1.396 . S
C2807 C2808 1.399 . S
C2808 H2794 0.929 . S
C2808 C2807 1.399 . S
C2808 C2809 1.385 . S
C2809 H2795 0.931 . S
C2809 C2808 1.385 . S
C2809 C2810 1.389 . S
C2810 C2809 1.389 . S
C2810 C2811 1.387 . S
C2811 H2796 0.930 . S
C2811 C2806 1.390 . S
C2811 C2810 1.387 . S
H2812 C2824 0.930 . S
H2813 C2826 0.930 . S
H2814 C2827 0.930 . S
H2815 C2831 0.959 . S
H2816 C2831 0.959 . S
H2817 C2831 0.961 . S
H2818 C2832 0.960 . S
H2819 C2832 0.961 . S
H2820 C2832 0.959 . S
H2821 C2835 0.929 . S
H2822 C2836 0.931 . S
H2823 C2838 0.930 . S
C2824 H2812 0.930 . S
C2824 C2825 1.399 . S
C2824 C2829 1.399 . S
C2825 C2824 1.399 . S
C2825 C2826 1.376 . S
C2826 H2813 0.930 . S
C2826 C2825 1.376 . S
C2826 C2827 1.388 . S
C2827 H2814 0.930 . S
C2827 C2826 1.388 . S
C2827 C2828 1.390 . S
C2828 C2827 1.390 . S
C2828 C2829 1.394 . S
C2828 C2834 1.465 . S
C2829 C2824 1.399 . S
C2829 C2828 1.394 . S
C2829 C2830 1.516 . S
C2830 C2829 1.516 . S
C2830 C2831 1.502 . S
C2830 C2832 1.561 . S
C2830 C2833 1.526 . S
C2831 H2815 0.959 . S
C2831 H2816 0.959 . S
C2831 H2817 0.961 . S
C2831 C2830 1.502 . S
C2832 H2818 0.960 . S
C2832 H2819 0.961 . S
C2832 H2820 0.959 . S
C2832 C2830 1.561 . S
C2833 C2830 1.526 . S
C2833 C2834 1.396 . S
C2833 C2838 1.390 . S
C2834 C2828 1.465 . S
C2834 C2833 1.396 . S
C2834 C2835 1.399 . S
C2835 H2821 0.929 . S
C2835 C2834 1.399 . S
C2835 C2836 1.385 . S
C2836 H2822 0.931 . S
C2836 C2835 1.385 . S
C2836 C2837 1.389 . S
C2837 C2836 1.389 . S
C2837 C2838 1.387 . S
C2838 H2823 0.930 . S
C2838 C2833 1.390 . S
C2838 C2837 1.387 . S
H2839 C2851 0.930 . S
H2840 C2853 0.930 . S
H2841 C2854 0.930 . S
H2842 C2858 0.959 . S
H2843 C2858 0.959 . S
H2844 C2858 0.961 . S
H2845 C2859 0.960 . S
H2846 C2859 0.961 . S
H2847 C2859 0.959 . S
H2848 C2862 0.929 . S
H2849 C2863 0.931 . S
H2850 C2865 0.930 . S
C2851 H2839 0.930 . S
C2851 C2852 1.399 . S
C2851 C2856 1.399 . S
C2852 C2851 1.399 . S
C2852 C2853 1.376 . S
C2853 H2840 0.930 . S
C2853 C2852 1.376 . S
C2853 C2854 1.388 . S
C2854 H2841 0.930 . S
C2854 C2853 1.388 . S
C2854 C2855 1.390 . S
C2855 C2854 1.390 . S
C2855 C2856 1.394 . S
C2855 C2861 1.465 . S
C2856 C2851 1.399 . S
C2856 C2855 1.394 . S
C2856 C2857 1.516 . S
C2857 C2856 1.516 . S
C2857 C2858 1.502 . S
C2857 C2859 1.561 . S
C2857 C2860 1.526 . S
C2858 H2842 0.959 . S
C2858 H2843 0.959 . S
C2858 H2844 0.961 . S
C2858 C2857 1.502 . S
C2859 H2845 0.960 . S
C2859 H2846 0.961 . S
C2859 H2847 0.959 . S
C2859 C2857 1.561 . S
C2860 C2857 1.526 . S
C2860 C2861 1.396 . S
C2860 C2865 1.390 . S
C2861 C2855 1.465 . S
C2861 C2860 1.396 . S
C2861 C2862 1.399 . S
C2862 H2848 0.929 . S
C2862 C2861 1.399 . S
C2862 C2863 1.385 . S
C2863 H2849 0.931 . S
C2863 C2862 1.385 . S
C2863 C2864 1.389 . S
C2864 C2863 1.389 . S
C2864 C2865 1.387 . S
C2865 H2850 0.930 . S
C2865 C2860 1.390 . S
C2865 C2864 1.387 . S
H2866 C2878 0.930 . S
H2867 C2880 0.930 . S
H2868 C2881 0.930 . S
H2869 C2885 0.959 . S
H2870 C2885 0.959 . S
H2871 C2885 0.961 . S
H2872 C2886 0.960 . S
H2873 C2886 0.961 . S
H2874 C2886 0.959 . S
H2875 C2889 0.929 . S
H2876 C2890 0.931 . S
H2877 C2892 0.930 . S
C2878 H2866 0.930 . S
C2878 C2879 1.399 . S
C2878 C2883 1.399 . S
C2879 C2878 1.399 . S
C2879 C2880 1.376 . S
C2880 H2867 0.930 . S
C2880 C2879 1.376 . S
C2880 C2881 1.388 . S
C2881 H2868 0.930 . S
C2881 C2880 1.388 . S
C2881 C2882 1.390 . S
C2882 C2881 1.390 . S
C2882 C2883 1.394 . S
C2882 C2888 1.465 . S
C2883 C2878 1.399 . S
C2883 C2882 1.394 . S
C2883 C2884 1.516 . S
C2884 C2883 1.516 . S
C2884 C2885 1.502 . S
C2884 C2886 1.561 . S
C2884 C2887 1.526 . S
C2885 H2869 0.959 . S
C2885 H2870 0.959 . S
C2885 H2871 0.961 . S
C2885 C2884 1.502 . S
C2886 H2872 0.960 . S
C2886 H2873 0.961 . S
C2886 H2874 0.959 . S
C2886 C2884 1.561 . S
C2887 C2884 1.526 . S
C2887 C2888 1.396 . S
C2887 C2892 1.390 . S
C2888 C2882 1.465 . S
C2888 C2887 1.396 . S
C2888 C2889 1.399 . S
C2889 H2875 0.929 . S
C2889 C2888 1.399 . S
C2889 C2890 1.385 . S
C2890 H2876 0.931 . S
C2890 C2889 1.385 . S
C2890 C2891 1.389 . S
C2891 C2890 1.389 . S
C2891 C2892 1.387 . S
C2892 H2877 0.930 . S
C2892 C2887 1.390 . S
C2892 C2891 1.387 . S
H2893 C2905 0.930 . S
H2894 C2907 0.930 . S
H2895 C2908 0.930 . S
H2896 C2912 0.959 . S
H2897 C2912 0.959 . S
H2898 C2912 0.961 . S
H2899 C2913 0.960 . S
H2900 C2913 0.961 1_565 S
H2901 C2913 0.959 . S
H2902 C2916 0.929 . S
H2903 C2917 0.931 1_565 S
H2904 C2919 0.930 . S
C2905 H2893 0.930 . S
C2905 C2906 1.399 . S
C2905 C2910 1.399 . S
C2906 C2905 1.399 . S
C2906 C2907 1.376 . S
C2907 H2894 0.930 . S
C2907 C2906 1.376 . S
C2907 C2908 1.388 . S
C2908 H2895 0.930 . S
C2908 C2907 1.388 . S
C2908 C2909 1.390 . S
C2909 C2908 1.390 . S
C2909 C2910 1.394 . S
C2909 C2915 1.465 . S
C2910 C2905 1.399 . S
C2910 C2909 1.394 . S
C2910 C2911 1.516 . S
C2911 C2910 1.516 . S
C2911 C2912 1.502 . S
C2911 C2913 1.561 . S
C2911 C2914 1.526 . S
C2912 H2896 0.959 . S
C2912 H2897 0.959 . S
C2912 H2898 0.961 . S
C2912 C2911 1.502 . S
C2913 H2899 0.960 . S
C2913 H2900 0.961 1_545 S
C2913 H2901 0.959 . S
C2913 C2911 1.561 . S
C2914 C2911 1.526 . S
C2914 C2915 1.396 . S
C2914 C2919 1.390 1_545 S
C2915 C2909 1.465 . S
C2915 C2914 1.396 . S
C2915 C2916 1.399 . S
C2916 H2902 0.929 . S
C2916 C2915 1.399 . S
C2916 C2917 1.385 . S
C2917 H2903 0.931 1_545 S
C2917 C2916 1.385 . S
C2917 C2918 1.389 1_545 S
C2918 C2917 1.389 1_565 S
C2918 C2919 1.387 . S
C2919 H2904 0.930 . S
C2919 C2914 1.390 1_565 S
C2919 C2918 1.387 . S
H2920 C2932 0.930 . S
H2921 C2934 0.930 . S
H2922 C2935 0.930 . S
H2923 C2939 0.959 . S
H2924 C2939 0.959 . S
H2925 C2939 0.961 . S
H2926 C2940 0.960 . S
H2927 C2940 0.961 . S
H2928 C2940 0.959 . S
H2929 C2943 0.929 . S
H2930 C2944 0.931 . S
H2931 C2946 0.930 . S
C2932 H2920 0.930 . S
C2932 C2933 1.399 . S
C2932 C2937 1.399 . S
C2933 C2932 1.399 . S
C2933 C2934 1.376 . S
C2934 H2921 0.930 . S
C2934 C2933 1.376 . S
C2934 C2935 1.388 . S
C2935 H2922 0.930 . S
C2935 C2934 1.388 . S
C2935 C2936 1.390 . S
C2936 C2935 1.390 . S
C2936 C2937 1.394 . S
C2936 C2942 1.465 . S
C2937 C2932 1.399 . S
C2937 C2936 1.394 . S
C2937 C2938 1.516 . S
C2938 C2937 1.516 . S
C2938 C2939 1.502 . S
C2938 C2940 1.561 . S
C2938 C2941 1.526 . S
C2939 H2923 0.959 . S
C2939 H2924 0.959 . S
C2939 H2925 0.961 . S
C2939 C2938 1.502 . S
C2940 H2926 0.960 . S
C2940 H2927 0.961 . S
C2940 H2928 0.959 . S
C2940 C2938 1.561 . S
C2941 C2938 1.526 . S
C2941 C2942 1.396 . S
C2941 C2946 1.390 . S
C2942 C2936 1.465 . S
C2942 C2941 1.396 . S
C2942 C2943 1.399 . S
C2943 H2929 0.929 . S
C2943 C2942 1.399 . S
C2943 C2944 1.385 . S
C2944 H2930 0.931 . S
C2944 C2943 1.385 . S
C2944 C2945 1.389 . S
C2945 C2944 1.389 . S
C2945 C2946 1.387 . S
C2946 H2931 0.930 . S
C2946 C2941 1.390 . S
C2946 C2945 1.387 . S
H2947 C2959 0.930 . S
H2948 C2961 0.930 . S
H2949 C2962 0.930 . S
H2950 C2966 0.959 . S
H2951 C2966 0.959 . S
H2952 C2966 0.961 . S
H2953 C2967 0.960 . S
H2954 C2967 0.961 . S
H2955 C2967 0.959 . S
H2956 C2970 0.929 . S
H2957 C2971 0.931 . S
H2958 C2973 0.930 . S
C2959 H2947 0.930 . S
C2959 C2960 1.399 . S
C2959 C2964 1.399 . S
C2960 C2959 1.399 . S
C2960 C2961 1.376 . S
C2961 H2948 0.930 . S
C2961 C2960 1.376 . S
C2961 C2962 1.388 . S
C2962 H2949 0.930 . S
C2962 C2961 1.388 . S
C2962 C2963 1.390 . S
C2963 C2962 1.390 . S
C2963 C2964 1.394 . S
C2963 C2969 1.465 . S
C2964 C2959 1.399 . S
C2964 C2963 1.394 . S
C2964 C2965 1.516 . S
C2965 C2964 1.516 . S
C2965 C2966 1.502 . S
C2965 C2967 1.561 . S
C2965 C2968 1.526 . S
C2966 H2950 0.959 . S
C2966 H2951 0.959 . S
C2966 H2952 0.961 . S
C2966 C2965 1.502 . S
C2967 H2953 0.960 . S
C2967 H2954 0.961 . S
C2967 H2955 0.959 . S
C2967 C2965 1.561 . S
C2968 C2965 1.526 . S
C2968 C2969 1.396 . S
C2968 C2973 1.390 . S
C2969 C2963 1.465 . S
C2969 C2968 1.396 . S
C2969 C2970 1.399 . S
C2970 H2956 0.929 . S
C2970 C2969 1.399 . S
C2970 C2971 1.385 . S
C2971 H2957 0.931 . S
C2971 C2970 1.385 . S
C2971 C2972 1.389 . S
C2972 C2971 1.389 . S
C2972 C2973 1.387 . S
C2973 H2958 0.930 . S
C2973 C2968 1.390 . S
C2973 C2972 1.387 . S
H2974 C2986 0.930 . S
H2975 C2988 0.930 . S
H2976 C2989 0.930 . S
H2977 C2993 0.959 . S
H2978 C2993 0.959 . S
H2979 C2993 0.961 . S
H2980 C2994 0.960 . S
H2981 C2994 0.961 . S
H2982 C2994 0.959 . S
H2983 C2997 0.929 . S
H2984 C2998 0.931 . S
H2985 C3000 0.930 . S
C2986 H2974 0.930 . S
C2986 C2987 1.399 . S
C2986 C2991 1.399 . S
C2987 C2986 1.399 . S
C2987 C2988 1.376 . S
C2988 H2975 0.930 . S
C2988 C2987 1.376 . S
C2988 C2989 1.388 . S
C2989 H2976 0.930 . S
C2989 C2988 1.388 . S
C2989 C2990 1.390 . S
C2990 C2989 1.390 . S
C2990 C2991 1.394 . S
C2990 C2996 1.465 . S
C2991 C2986 1.399 . S
C2991 C2990 1.394 . S
C2991 C2992 1.516 . S
C2992 C2991 1.516 . S
C2992 C2993 1.502 . S
C2992 C2994 1.561 . S
C2992 C2995 1.526 . S
C2993 H2977 0.959 . S
C2993 H2978 0.959 . S
C2993 H2979 0.961 . S
C2993 C2992 1.502 . S
C2994 H2980 0.960 . S
C2994 H2981 0.961 . S
C2994 H2982 0.959 . S
C2994 C2992 1.561 . S
C2995 C2992 1.526 . S
C2995 C2996 1.396 . S
C2995 C3000 1.390 . S
C2996 C2990 1.465 . S
C2996 C2995 1.396 . S
C2996 C2997 1.399 . S
C2997 H2983 0.929 . S
C2997 C2996 1.399 . S
C2997 C2998 1.385 . S
C2998 H2984 0.931 . S
C2998 C2997 1.385 . S
C2998 C2999 1.389 . S
C2999 C2998 1.389 . S
C2999 C3000 1.387 . S
C3000 H2985 0.930 . S
C3000 C2995 1.390 . S
C3000 C2999 1.387 . S
H3001 C3013 0.930 . S
H3002 C3015 0.930 . S
H3003 C3016 0.930 . S
H3004 C3020 0.959 . S
H3005 C3020 0.959 . S
H3006 C3020 0.961 . S
H3007 C3021 0.960 . S
H3008 C3021 0.961 . S
H3009 C3021 0.959 . S
H3010 C3024 0.929 . S
H3011 C3025 0.931 . S
H3012 C3027 0.930 . S
C3013 H3001 0.930 . S
C3013 C3014 1.399 . S
C3013 C3018 1.399 . S
C3014 C3013 1.399 . S
C3014 C3015 1.376 . S
C3015 H3002 0.930 . S
C3015 C3014 1.376 . S
C3015 C3016 1.388 . S
C3016 H3003 0.930 . S
C3016 C3015 1.388 . S
C3016 C3017 1.390 . S
C3017 C3016 1.390 . S
C3017 C3018 1.394 . S
C3017 C3023 1.465 . S
C3018 C3013 1.399 . S
C3018 C3017 1.394 . S
C3018 C3019 1.516 . S
C3019 C3018 1.516 . S
C3019 C3020 1.502 . S
C3019 C3021 1.561 . S
C3019 C3022 1.526 . S
C3020 H3004 0.959 . S
C3020 H3005 0.959 . S
C3020 H3006 0.961 . S
C3020 C3019 1.502 . S
C3021 H3007 0.960 . S
C3021 H3008 0.961 . S
C3021 H3009 0.959 . S
C3021 C3019 1.561 . S
C3022 C3019 1.526 . S
C3022 C3023 1.396 . S
C3022 C3027 1.390 . S
C3023 C3017 1.465 . S
C3023 C3022 1.396 . S
C3023 C3024 1.399 . S
C3024 H3010 0.929 . S
C3024 C3023 1.399 . S
C3024 C3025 1.385 . S
C3025 H3011 0.931 . S
C3025 C3024 1.385 . S
C3025 C3026 1.389 . S
C3026 C3025 1.389 . S
C3026 C3027 1.387 . S
C3027 H3012 0.930 . S
C3027 C3022 1.390 . S
C3027 C3026 1.387 . S
H3028 C3040 0.930 . S
H3029 C3042 0.930 . S
H3030 C3043 0.930 . S
H3031 C3047 0.959 . S
H3032 C3047 0.959 . S
H3033 C3047 0.961 . S
H3034 C3048 0.960 . S
H3035 C3048 0.961 . S
H3036 C3048 0.959 . S
H3037 C3051 0.929 1_554 S
H3038 C3052 0.931 . S
H3039 C3054 0.930 . S
C3040 H3028 0.930 . S
C3040 C3041 1.399 . S
C3040 C3045 1.399 . S
C3041 C3040 1.399 . S
C3041 C3042 1.376 . S
C3042 H3029 0.930 . S
C3042 C3041 1.376 . S
C3042 C3043 1.388 . S
C3043 H3030 0.930 . S
C3043 C3042 1.388 . S
C3043 C3044 1.390 . S
C3044 C3043 1.390 . S
C3044 C3045 1.394 . S
C3044 C3050 1.465 . S
C3045 C3040 1.399 . S
C3045 C3044 1.394 . S
C3045 C3046 1.516 . S
C3046 C3045 1.516 . S
C3046 C3047 1.502 . S
C3046 C3048 1.561 . S
C3046 C3049 1.526 . S
C3047 H3031 0.959 . S
C3047 H3032 0.959 . S
C3047 H3033 0.961 . S
C3047 C3046 1.502 . S
C3048 H3034 0.960 . S
C3048 H3035 0.961 . S
C3048 H3036 0.959 . S
C3048 C3046 1.561 . S
C3049 C3046 1.526 . S
C3049 C3050 1.396 . S
C3049 C3054 1.390 . S
C3050 C3044 1.465 . S
C3050 C3049 1.396 . S
C3050 C3051 1.399 . S
C3051 H3037 0.929 1_556 S
C3051 C3050 1.399 . S
C3051 C3052 1.385 1_556 S
C3052 H3038 0.931 . S
C3052 C3051 1.385 1_554 S
C3052 C3053 1.389 1_554 S
C3053 C3052 1.389 1_556 S
C3053 C3054 1.387 . S
C3054 H3039 0.930 . S
C3054 C3049 1.390 . S
C3054 C3053 1.387 . S
H3055 C3067 0.930 . S
H3056 C3069 0.930 . S
H3057 C3070 0.930 . S
H3058 C3074 0.959 . S
H3059 C3074 0.959 . S
H3060 C3074 0.961 . S
H3061 C3075 0.960 . S
H3062 C3075 0.961 . S
H3063 C3075 0.959 . S
H3064 C3078 0.929 . S
H3065 C3079 0.931 . S
H3066 C3081 0.930 . S
C3067 H3055 0.930 . S
C3067 C3068 1.399 . S
C3067 C3072 1.399 . S
C3068 C3067 1.399 . S
C3068 C3069 1.376 . S
C3069 H3056 0.930 . S
C3069 C3068 1.376 . S
C3069 C3070 1.388 . S
C3070 H3057 0.930 . S
C3070 C3069 1.388 . S
C3070 C3071 1.390 . S
C3071 C3070 1.390 . S
C3071 C3072 1.394 . S
C3071 C3077 1.465 . S
C3072 C3067 1.399 . S
C3072 C3071 1.394 . S
C3072 C3073 1.516 . S
C3073 C3072 1.516 . S
C3073 C3074 1.502 . S
C3073 C3075 1.561 . S
C3073 C3076 1.526 . S
C3074 H3058 0.959 . S
C3074 H3059 0.959 . S
C3074 H3060 0.961 . S
C3074 C3073 1.502 . S
C3075 H3061 0.960 . S
C3075 H3062 0.961 . S
C3075 H3063 0.959 . S
C3075 C3073 1.561 . S
C3076 C3073 1.526 . S
C3076 C3077 1.396 . S
C3076 C3081 1.390 . S
C3077 C3071 1.465 . S
C3077 C3076 1.396 . S
C3077 C3078 1.399 . S
C3078 H3064 0.929 . S
C3078 C3077 1.399 . S
C3078 C3079 1.385 . S
C3079 H3065 0.931 . S
C3079 C3078 1.385 . S
C3079 C3080 1.389 . S
C3080 C3079 1.389 . S
C3080 C3081 1.387 . S
C3081 H3066 0.930 . S
C3081 C3076 1.390 . S
C3081 C3080 1.387 . S
H3082 C3094 0.930 . S
H3083 C3096 0.930 . S
H3084 C3097 0.930 . S
H3085 C3101 0.959 . S
H3086 C3101 0.959 . S
H3087 C3101 0.961 . S
H3088 C3102 0.960 . S
H3089 C3102 0.961 . S
H3090 C3102 0.959 . S
H3091 C3105 0.929 . S
H3092 C3106 0.931 . S
H3093 C3108 0.930 . S
C3094 H3082 0.930 . S
C3094 C3095 1.399 . S
C3094 C3099 1.399 . S
C3095 C3094 1.399 . S
C3095 C3096 1.376 . S
C3096 H3083 0.930 . S
C3096 C3095 1.376 . S
C3096 C3097 1.388 . S
C3097 H3084 0.930 . S
C3097 C3096 1.388 . S
C3097 C3098 1.390 . S
C3098 C3097 1.390 . S
C3098 C3099 1.394 . S
C3098 C3104 1.465 . S
C3099 C3094 1.399 . S
C3099 C3098 1.394 . S
C3099 C3100 1.516 . S
C3100 C3099 1.516 . S
C3100 C3101 1.502 . S
C3100 C3102 1.561 . S
C3100 C3103 1.526 . S
C3101 H3085 0.959 . S
C3101 H3086 0.959 . S
C3101 H3087 0.961 . S
C3101 C3100 1.502 . S
C3102 H3088 0.960 . S
C3102 H3089 0.961 . S
C3102 H3090 0.959 . S
C3102 C3100 1.561 . S
C3103 C3100 1.526 . S
C3103 C3104 1.396 . S
C3103 C3108 1.390 . S
C3104 C3098 1.465 . S
C3104 C3103 1.396 . S
C3104 C3105 1.399 . S
C3105 H3091 0.929 . S
C3105 C3104 1.399 . S
C3105 C3106 1.385 . S
C3106 H3092 0.931 . S
C3106 C3105 1.385 . S
C3106 C3107 1.389 . S
C3107 C3106 1.389 . S
C3107 C3108 1.387 . S
C3108 H3093 0.930 . S
C3108 C3103 1.390 . S
C3108 C3107 1.387 . S
H3109 C3121 0.930 . S
H3110 C3123 0.930 . S
H3111 C3124 0.930 . S
H3112 C3128 0.959 . S
H3113 C3128 0.959 . S
H3114 C3128 0.961 . S
H3115 C3129 0.960 . S
H3116 C3129 0.961 . S
H3117 C3129 0.959 . S
H3118 C3132 0.929 . S
H3119 C3133 0.931 . S
H3120 C3135 0.930 . S
C3121 H3109 0.930 . S
C3121 C3122 1.399 . S
C3121 C3126 1.399 . S
C3122 C3121 1.399 . S
C3122 C3123 1.376 . S
C3123 H3110 0.930 . S
C3123 C3122 1.376 . S
C3123 C3124 1.388 . S
C3124 H3111 0.930 . S
C3124 C3123 1.388 . S
C3124 C3125 1.390 . S
C3125 C3124 1.390 . S
C3125 C3126 1.394 . S
C3125 C3131 1.465 . S
C3126 C3121 1.399 . S
C3126 C3125 1.394 . S
C3126 C3127 1.516 . S
C3127 C3126 1.516 . S
C3127 C3128 1.502 . S
C3127 C3129 1.561 . S
C3127 C3130 1.526 . S
C3128 H3112 0.959 . S
C3128 H3113 0.959 . S
C3128 H3114 0.961 . S
C3128 C3127 1.502 . S
C3129 H3115 0.960 . S
C3129 H3116 0.961 . S
C3129 H3117 0.959 . S
C3129 C3127 1.561 . S
C3130 C3127 1.526 . S
C3130 C3131 1.396 . S
C3130 C3135 1.390 . S
C3131 C3125 1.465 . S
C3131 C3130 1.396 . S
C3131 C3132 1.399 . S
C3132 H3118 0.929 . S
C3132 C3131 1.399 . S
C3132 C3133 1.385 . S
C3133 H3119 0.931 . S
C3133 C3132 1.385 . S
C3133 C3134 1.389 . S
C3134 C3133 1.389 . S
C3134 C3135 1.387 . S
C3135 H3120 0.930 . S
C3135 C3130 1.390 . S
C3135 C3134 1.387 . S
H3136 C3148 0.930 . S
H3137 C3150 0.930 . S
H3138 C3151 0.930 . S
H3139 C3155 0.959 . S
H3140 C3155 0.959 . S
H3141 C3155 0.961 . S
H3142 C3156 0.960 . S
H3143 C3156 0.961 . S
H3144 C3156 0.959 . S
H3145 C3159 0.929 . S
H3146 C3160 0.931 . S
H3147 C3162 0.930 . S
C3148 H3136 0.930 . S
C3148 C3149 1.399 . S
C3148 C3153 1.399 . S
C3149 C3148 1.399 . S
C3149 C3150 1.376 . S
C3150 H3137 0.930 . S
C3150 C3149 1.376 . S
C3150 C3151 1.388 . S
C3151 H3138 0.930 . S
C3151 C3150 1.388 . S
C3151 C3152 1.390 . S
C3152 C3151 1.390 . S
C3152 C3153 1.394 . S
C3152 C3158 1.465 . S
C3153 C3148 1.399 . S
C3153 C3152 1.394 . S
C3153 C3154 1.516 . S
C3154 C3153 1.516 . S
C3154 C3155 1.502 . S
C3154 C3156 1.561 . S
C3154 C3157 1.526 . S
C3155 H3139 0.959 . S
C3155 H3140 0.959 . S
C3155 H3141 0.961 . S
C3155 C3154 1.502 . S
C3156 H3142 0.960 . S
C3156 H3143 0.961 . S
C3156 H3144 0.959 . S
C3156 C3154 1.561 . S
C3157 C3154 1.526 . S
C3157 C3158 1.396 . S
C3157 C3162 1.390 . S
C3158 C3152 1.465 . S
C3158 C3157 1.396 . S
C3158 C3159 1.399 . S
C3159 H3145 0.929 . S
C3159 C3158 1.399 . S
C3159 C3160 1.385 . S
C3160 H3146 0.931 . S
C3160 C3159 1.385 . S
C3160 C3161 1.389 . S
C3161 C3160 1.389 . S
C3161 C3162 1.387 . S
C3162 H3147 0.930 . S
C3162 C3157 1.390 . S
C3162 C3161 1.387 . S
H3163 C3175 0.930 . S
H3164 C3177 0.930 . S
H3165 C3178 0.930 . S
H3166 C3182 0.959 . S
H3167 C3182 0.959 . S
H3168 C3182 0.961 . S
H3169 C3183 0.960 . S
H3170 C3183 0.961 . S
H3171 C3183 0.959 . S
H3172 C3186 0.929 . S
H3173 C3187 0.931 . S
H3174 C3189 0.930 . S
C3175 H3163 0.930 . S
C3175 C3176 1.399 . S
C3175 C3180 1.399 . S
C3176 C3175 1.399 . S
C3176 C3177 1.376 . S
C3177 H3164 0.930 . S
C3177 C3176 1.376 . S
C3177 C3178 1.388 . S
C3178 H3165 0.930 . S
C3178 C3177 1.388 . S
C3178 C3179 1.390 . S
C3179 C3178 1.390 . S
C3179 C3180 1.394 . S
C3179 C3185 1.465 . S
C3180 C3175 1.399 . S
C3180 C3179 1.394 . S
C3180 C3181 1.516 . S
C3181 C3180 1.516 . S
C3181 C3182 1.502 . S
C3181 C3183 1.561 . S
C3181 C3184 1.526 . S
C3182 H3166 0.959 . S
C3182 H3167 0.959 . S
C3182 H3168 0.961 . S
C3182 C3181 1.502 . S
C3183 H3169 0.960 . S
C3183 H3170 0.961 . S
C3183 H3171 0.959 . S
C3183 C3181 1.561 . S
C3184 C3181 1.526 . S
C3184 C3185 1.396 . S
C3184 C3189 1.390 . S
C3185 C3179 1.465 . S
C3185 C3184 1.396 . S
C3185 C3186 1.399 . S
C3186 H3172 0.929 . S
C3186 C3185 1.399 . S
C3186 C3187 1.385 . S
C3187 H3173 0.931 . S
C3187 C3186 1.385 . S
C3187 C3188 1.389 . S
C3188 C3187 1.389 . S
C3188 C3189 1.387 . S
C3189 H3174 0.930 . S
C3189 C3184 1.390 . S
C3189 C3188 1.387 . S
H3190 C3202 0.930 1_455 S
H3191 C3204 0.930 . S
H3192 C3205 0.930 . S
H3193 C3209 0.959 . S
H3194 C3209 0.959 . S
H3195 C3209 0.961 . S
H3196 C3210 0.960 . S
H3197 C3210 0.961 . S
H3198 C3210 0.959 . S
H3199 C3213 0.929 . S
H3200 C3214 0.931 . S
H3201 C3216 0.930 . S
C3202 H3190 0.930 1_655 S
C3202 C3203 1.399 . S
C3202 C3207 1.399 1_655 S
C3203 C3202 1.399 . S
C3203 C3204 1.376 . S
C3204 H3191 0.930 . S
C3204 C3203 1.376 . S
C3204 C3205 1.388 . S
C3205 H3192 0.930 . S
C3205 C3204 1.388 . S
C3205 C3206 1.390 . S
C3206 C3205 1.390 . S
C3206 C3207 1.394 1_655 S
C3206 C3212 1.465 1_655 S
C3207 C3202 1.399 1_455 S
C3207 C3206 1.394 1_455 S
C3207 C3208 1.516 . S
C3208 C3207 1.516 . S
C3208 C3209 1.502 . S
C3208 C3210 1.561 . S
C3208 C3211 1.526 . S
C3209 H3193 0.959 . S
C3209 H3194 0.959 . S
C3209 H3195 0.961 . S
C3209 C3208 1.502 . S
C3210 H3196 0.960 . S
C3210 H3197 0.961 . S
C3210 H3198 0.959 . S
C3210 C3208 1.561 . S
C3211 C3208 1.526 . S
C3211 C3212 1.396 . S
C3211 C3216 1.390 . S
C3212 C3206 1.465 1_455 S
C3212 C3211 1.396 . S
C3212 C3213 1.399 1_455 S
C3213 H3199 0.929 . S
C3213 C3212 1.399 1_655 S
C3213 C3214 1.385 1_655 S
C3214 H3200 0.931 . S
C3214 C3213 1.385 1_455 S
C3214 C3215 1.389 . S
C3215 C3214 1.389 . S
C3215 C3216 1.387 . S
C3216 H3201 0.930 . S
C3216 C3211 1.390 . S
C3216 C3215 1.387 . S
H3217 C3229 0.930 . S
H3218 C3231 0.930 . S
H3219 C3232 0.930 . S
H3220 C3236 0.959 . S
H3221 C3236 0.959 . S
H3222 C3236 0.961 . S
H3223 C3237 0.960 . S
H3224 C3237 0.961 . S
H3225 C3237 0.959 . S
H3226 C3240 0.929 . S
H3227 C3241 0.931 . S
H3228 C3243 0.930 . S
C3229 H3217 0.930 . S
C3229 C3230 1.399 . S
C3229 C3234 1.399 . S
C3230 C3229 1.399 . S
C3230 C3231 1.376 . S
C3231 H3218 0.930 . S
C3231 C3230 1.376 . S
C3231 C3232 1.388 . S
C3232 H3219 0.930 . S
C3232 C3231 1.388 . S
C3232 C3233 1.390 . S
C3233 C3232 1.390 . S
C3233 C3234 1.394 . S
C3233 C3239 1.465 . S
C3234 C3229 1.399 . S
C3234 C3233 1.394 . S
C3234 C3235 1.516 . S
C3235 C3234 1.516 . S
C3235 C3236 1.502 . S
C3235 C3237 1.561 . S
C3235 C3238 1.526 . S
C3236 H3220 0.959 . S
C3236 H3221 0.959 . S
C3236 H3222 0.961 . S
C3236 C3235 1.502 . S
C3237 H3223 0.960 . S
C3237 H3224 0.961 . S
C3237 H3225 0.959 . S
C3237 C3235 1.561 . S
C3238 C3235 1.526 . S
C3238 C3239 1.396 . S
C3238 C3243 1.390 . S
C3239 C3233 1.465 . S
C3239 C3238 1.396 . S
C3239 C3240 1.399 . S
C3240 H3226 0.929 . S
C3240 C3239 1.399 . S
C3240 C3241 1.385 . S
C3241 H3227 0.931 . S
C3241 C3240 1.385 . S
C3241 C3242 1.389 . S
C3242 C3241 1.389 . S
C3242 C3243 1.387 . S
C3243 H3228 0.930 . S
C3243 C3238 1.390 . S
C3243 C3242 1.387 . S
H3244 C3256 0.930 . S
H3245 C3258 0.930 . S
H3246 C3259 0.930 . S
H3247 C3263 0.959 . S
H3248 C3263 0.959 . S
H3249 C3263 0.961 . S
H3250 C3264 0.960 . S
H3251 C3264 0.961 . S
H3252 C3264 0.959 . S
H3253 C3267 0.929 . S
H3254 C3268 0.931 . S
H3255 C3270 0.930 . S
C3256 H3244 0.930 . S
C3256 C3257 1.399 . S
C3256 C3261 1.399 . S
C3257 C3256 1.399 . S
C3257 C3258 1.376 . S
C3258 H3245 0.930 . S
C3258 C3257 1.376 . S
C3258 C3259 1.388 . S
C3259 H3246 0.930 . S
C3259 C3258 1.388 . S
C3259 C3260 1.390 . S
C3260 C3259 1.390 . S
C3260 C3261 1.394 . S
C3260 C3266 1.465 . S
C3261 C3256 1.399 . S
C3261 C3260 1.394 . S
C3261 C3262 1.516 . S
C3262 C3261 1.516 . S
C3262 C3263 1.502 . S
C3262 C3264 1.561 . S
C3262 C3265 1.526 . S
C3263 H3247 0.959 . S
C3263 H3248 0.959 . S
C3263 H3249 0.961 . S
C3263 C3262 1.502 . S
C3264 H3250 0.960 . S
C3264 H3251 0.961 . S
C3264 H3252 0.959 . S
C3264 C3262 1.561 . S
C3265 C3262 1.526 . S
C3265 C3266 1.396 . S
C3265 C3270 1.390 . S
C3266 C3260 1.465 . S
C3266 C3265 1.396 . S
C3266 C3267 1.399 . S
C3267 H3253 0.929 . S
C3267 C3266 1.399 . S
C3267 C3268 1.385 . S
C3268 H3254 0.931 . S
C3268 C3267 1.385 . S
C3268 C3269 1.389 . S
C3269 C3268 1.389 . S
C3269 C3270 1.387 . S
C3270 H3255 0.930 . S
C3270 C3265 1.390 . S
C3270 C3269 1.387 . S
H3271 C3283 0.930 . S
H3272 C3285 0.930 . S
H3273 C3286 0.930 . S
H3274 C3290 0.959 . S
H3275 C3290 0.959 . S
H3276 C3290 0.961 . S
H3277 C3291 0.960 . S
H3278 C3291 0.961 . S
H3279 C3291 0.959 . S
H3280 C3294 0.929 . S
H3281 C3295 0.931 . S
H3282 C3297 0.930 . S
C3283 H3271 0.930 . S
C3283 C3284 1.399 . S
C3283 C3288 1.399 . S
C3284 C3283 1.399 . S
C3284 C3285 1.376 . S
C3285 H3272 0.930 . S
C3285 C3284 1.376 . S
C3285 C3286 1.388 . S
C3286 H3273 0.930 . S
C3286 C3285 1.388 . S
C3286 C3287 1.390 . S
C3287 C3286 1.390 . S
C3287 C3288 1.394 . S
C3287 C3293 1.465 . S
C3288 C3283 1.399 . S
C3288 C3287 1.394 . S
C3288 C3289 1.516 . S
C3289 C3288 1.516 . S
C3289 C3290 1.502 . S
C3289 C3291 1.561 . S
C3289 C3292 1.526 . S
C3290 H3274 0.959 . S
C3290 H3275 0.959 . S
C3290 H3276 0.961 . S
C3290 C3289 1.502 . S
C3291 H3277 0.960 . S
C3291 H3278 0.961 . S
C3291 H3279 0.959 . S
C3291 C3289 1.561 . S
C3292 C3289 1.526 . S
C3292 C3293 1.396 . S
C3292 C3297 1.390 . S
C3293 C3287 1.465 . S
C3293 C3292 1.396 . S
C3293 C3294 1.399 . S
C3294 H3280 0.929 . S
C3294 C3293 1.399 . S
C3294 C3295 1.385 . S
C3295 H3281 0.931 . S
C3295 C3294 1.385 . S
C3295 C3296 1.389 . S
C3296 C3295 1.389 . S
C3296 C3297 1.387 . S
C3297 H3282 0.930 . S
C3297 C3292 1.390 . S
C3297 C3296 1.387 . S
H3298 C3310 0.930 . S
H3299 C3312 0.930 . S
H3300 C3313 0.930 . S
H3301 C3317 0.959 . S
H3302 C3317 0.959 . S
H3303 C3317 0.961 . S
H3304 C3318 0.960 . S
H3305 C3318 0.961 . S
H3306 C3318 0.959 . S
H3307 C3321 0.929 . S
H3308 C3322 0.931 . S
H3309 C3324 0.916 1_455 S
C3310 H3298 0.930 . S
C3310 C3311 1.399 . S
C3310 C3315 1.399 . S
C3311 C3310 1.399 . S
C3311 C3312 1.376 . S
C3312 H3299 0.930 . S
C3312 C3311 1.376 . S
C3312 C3313 1.388 . S
C3313 H3300 0.930 . S
C3313 C3312 1.388 . S
C3313 C3314 1.390 . S
C3314 C3313 1.390 . S
C3314 C3315 1.394 . S
C3314 C3320 1.465 . S
C3315 C3310 1.399 . S
C3315 C3314 1.394 . S
C3315 C3316 1.516 . S
C3316 C3315 1.516 . S
C3316 C3317 1.502 . S
C3316 C3318 1.561 1_655 S
C3316 C3319 1.526 . S
C3317 H3301 0.959 . S
C3317 H3302 0.959 . S
C3317 H3303 0.961 . S
C3317 C3316 1.502 . S
C3318 H3304 0.960 . S
C3318 H3305 0.961 . S
C3318 H3306 0.959 . S
C3318 C3316 1.561 1_455 S
C3319 C3316 1.526 . S
C3319 C3320 1.396 . S
C3319 C3324 1.417 . S
C3320 C3314 1.465 . S
C3320 C3319 1.396 . S
C3320 C3321 1.399 . S
C3321 H3307 0.929 . S
C3321 C3320 1.399 . S
C3321 C3322 1.385 . S
C3322 H3308 0.931 . S
C3322 C3321 1.385 . S
C3322 C3323 1.389 . S
C3323 C3322 1.389 . S
C3323 C3324 1.377 . S
C3324 H3309 0.916 1_655 S
C3324 C3319 1.417 . S
C3324 C3323 1.377 . S
H3325 C3337 0.930 . S
H3326 C3339 0.930 . S
H3327 C3340 0.930 . S
H3328 C3344 0.959 . S
H3329 C3344 0.959 . S
H3330 C3344 0.961 . S
H3331 C3345 0.960 . S
H3332 C3345 0.961 . S
H3333 C3345 0.959 . S
H3334 C3348 0.929 . S
H3335 C3349 0.931 . S
H3336 C3351 0.930 . S
C3337 H3325 0.930 . S
C3337 C3338 1.399 . S
C3337 C3342 1.399 . S
C3338 C3337 1.399 . S
C3338 C3339 1.376 . S
C3339 H3326 0.930 . S
C3339 C3338 1.376 . S
C3339 C3340 1.388 . S
C3340 H3327 0.930 . S
C3340 C3339 1.388 . S
C3340 C3341 1.390 . S
C3341 C3340 1.390 . S
C3341 C3342 1.394 . S
C3341 C3347 1.465 . S
C3342 C3337 1.399 . S
C3342 C3341 1.394 . S
C3342 C3343 1.516 . S
C3343 C3342 1.516 . S
C3343 C3344 1.502 . S
C3343 C3345 1.561 . S
C3343 C3346 1.526 . S
C3344 H3328 0.959 . S
C3344 H3329 0.959 . S
C3344 H3330 0.961 . S
C3344 C3343 1.502 . S
C3345 H3331 0.960 . S
C3345 H3332 0.961 . S
C3345 H3333 0.959 . S
C3345 C3343 1.561 . S
C3346 C3343 1.526 . S
C3346 C3347 1.396 . S
C3346 C3351 1.390 . S
C3347 C3341 1.465 . S
C3347 C3346 1.396 . S
C3347 C3348 1.399 . S
C3348 H3334 0.929 . S
C3348 C3347 1.399 . S
C3348 C3349 1.385 . S
C3349 H3335 0.931 . S
C3349 C3348 1.385 . S
C3349 C3350 1.389 . S
C3350 C3349 1.389 . S
C3350 C3351 1.387 . S
C3351 H3336 0.930 . S
C3351 C3346 1.390 . S
C3351 C3350 1.387 . S
H3352 C3364 0.930 . S
H3353 C3366 0.930 . S
H3354 C3367 0.930 . S
H3355 C3371 0.959 . S
H3356 C3371 0.959 . S
H3357 C3371 0.961 . S
H3358 C3372 0.960 . S
H3359 C3372 0.961 . S
H3360 C3372 0.959 . S
H3361 C3375 0.929 . S
H3362 C3376 0.931 . S
H3363 C3378 0.930 . S
C3364 H3352 0.930 . S
C3364 C3365 1.399 . S
C3364 C3369 1.399 . S
C3365 C3364 1.399 . S
C3365 C3366 1.376 . S
C3366 H3353 0.930 . S
C3366 C3365 1.376 . S
C3366 C3367 1.388 . S
C3367 H3354 0.930 . S
C3367 C3366 1.388 . S
C3367 C3368 1.390 . S
C3368 C3367 1.390 . S
C3368 C3369 1.394 . S
C3368 C3374 1.465 . S
C3369 C3364 1.399 . S
C3369 C3368 1.394 . S
C3369 C3370 1.516 . S
C3370 C3369 1.516 . S
C3370 C3371 1.502 . S
C3370 C3372 1.561 . S
C3370 C3373 1.526 . S
C3371 H3355 0.959 . S
C3371 H3356 0.959 . S
C3371 H3357 0.961 . S
C3371 C3370 1.502 . S
C3372 H3358 0.960 . S
C3372 H3359 0.961 . S
C3372 H3360 0.959 . S
C3372 C3370 1.561 . S
C3373 C3370 1.526 . S
C3373 C3374 1.396 . S
C3373 C3378 1.390 . S
C3374 C3368 1.465 . S
C3374 C3373 1.396 . S
C3374 C3375 1.399 . S
C3375 H3361 0.929 . S
C3375 C3374 1.399 . S
C3375 C3376 1.385 . S
C3376 H3362 0.931 . S
C3376 C3375 1.385 . S
C3376 C3377 1.389 . S
C3377 C3376 1.389 . S
C3377 C3378 1.387 . S
C3378 H3363 0.930 . S
C3378 C3373 1.390 . S
C3378 C3377 1.387 . S
H3379 C3391 0.930 . S
H3380 C3393 0.930 . S
H3381 C3394 0.930 1_545 S
H3382 C3398 0.959 . S
H3383 C3398 0.959 . S
H3384 C3398 0.961 1_565 S
H3385 C3399 0.960 . S
H3386 C3399 0.961 . S
H3387 C3399 0.959 . S
H3388 C3402 0.929 . S
H3389 C3403 0.931 . S
H3390 C3405 0.930 . S
C3391 H3379 0.930 . S
C3391 C3392 1.399 . S
C3391 C3396 1.399 . S
C3392 C3391 1.399 . S
C3392 C3393 1.376 . S
C3393 H3380 0.930 . S
C3393 C3392 1.376 . S
C3393 C3394 1.388 . S
C3394 H3381 0.930 1_565 S
C3394 C3393 1.388 . S
C3394 C3395 1.390 . S
C3395 C3394 1.390 . S
C3395 C3396 1.394 . S
C3395 C3401 1.465 1_565 S
C3396 C3391 1.399 . S
C3396 C3395 1.394 . S
C3396 C3397 1.516 . S
C3397 C3396 1.516 . S
C3397 C3398 1.502 1_565 S
C3397 C3399 1.561 . S
C3397 C3400 1.526 1_565 S
C3398 H3382 0.959 . S
C3398 H3383 0.959 . S
C3398 H3384 0.961 1_545 S
C3398 C3397 1.502 1_545 S
C3399 H3385 0.960 . S
C3399 H3386 0.961 . S
C3399 H3387 0.959 . S
C3399 C3397 1.561 . S
C3400 C3397 1.526 1_545 S
C3400 C3401 1.396 . S
C3400 C3405 1.390 . S
C3401 C3395 1.465 1_545 S
C3401 C3400 1.396 . S
C3401 C3402 1.399 . S
C3402 H3388 0.929 . S
C3402 C3401 1.399 . S
C3402 C3403 1.385 . S
C3403 H3389 0.931 . S
C3403 C3402 1.385 . S
C3403 C3404 1.389 . S
C3404 C3403 1.389 . S
C3404 C3405 1.387 . S
C3405 H3390 0.930 . S
C3405 C3400 1.390 . S
C3405 C3404 1.387 . S
H3406 C3418 0.930 . S
H3407 C3420 0.930 . S
H3408 C3421 0.930 . S
H3409 C3425 0.959 . S
H3410 C3425 0.959 . S
H3411 C3425 0.961 . S
H3412 C3426 0.960 . S
H3413 C3426 0.961 . S
H3414 C3426 0.959 . S
H3415 C3429 0.929 . S
H3416 C3430 0.931 . S
H3417 C3432 0.930 . S
C3418 H3406 0.930 . S
C3418 C3419 1.399 . S
C3418 C3423 1.399 . S
C3419 C3418 1.399 . S
C3419 C3420 1.376 . S
C3420 H3407 0.930 . S
C3420 C3419 1.376 . S
C3420 C3421 1.388 . S
C3421 H3408 0.930 . S
C3421 C3420 1.388 . S
C3421 C3422 1.390 . S
C3422 C3421 1.390 . S
C3422 C3423 1.394 . S
C3422 C3428 1.465 . S
C3423 C3418 1.399 . S
C3423 C3422 1.394 . S
C3423 C3424 1.516 . S
C3424 C3423 1.516 . S
C3424 C3425 1.502 . S
C3424 C3426 1.561 . S
C3424 C3427 1.526 . S
C3425 H3409 0.959 . S
C3425 H3410 0.959 . S
C3425 H3411 0.961 . S
C3425 C3424 1.502 . S
C3426 H3412 0.960 . S
C3426 H3413 0.961 . S
C3426 H3414 0.959 . S
C3426 C3424 1.561 . S
C3427 C3424 1.526 . S
C3427 C3428 1.396 . S
C3427 C3432 1.390 . S
C3428 C3422 1.465 . S
C3428 C3427 1.396 . S
C3428 C3429 1.399 . S
C3429 H3415 0.929 . S
C3429 C3428 1.399 . S
C3429 C3430 1.385 . S
C3430 H3416 0.931 . S
C3430 C3429 1.385 . S
C3430 C3431 1.389 . S
C3431 C3430 1.389 . S
C3431 C3432 1.387 . S
C3432 H3417 0.930 . S
C3432 C3427 1.390 . S
C3432 C3431 1.387 . S
H3433 C3445 0.930 . S
H3434 C3447 0.930 . S
H3435 C3448 0.930 . S
H3436 C3452 0.959 . S
H3437 C3452 0.959 . S
H3438 C3452 0.961 . S
H3439 C3453 0.960 . S
H3440 C3453 0.961 . S
H3441 C3453 0.959 . S
H3442 C3456 0.929 . S
H3443 C3457 0.931 . S
H3444 C3459 0.930 . S
C3445 H3433 0.930 . S
C3445 C3446 1.399 . S
C3445 C3450 1.399 . S
C3446 C3445 1.399 . S
C3446 C3447 1.376 1_556 S
C3447 H3434 0.930 . S
C3447 C3446 1.376 1_554 S
C3447 C3448 1.388 . S
C3448 H3435 0.930 . S
C3448 C3447 1.388 . S
C3448 C3449 1.390 . S
C3449 C3448 1.390 . S
C3449 C3450 1.394 1_554 S
C3449 C3455 1.465 . S
C3450 C3445 1.399 . S
C3450 C3449 1.394 1_556 S
C3450 C3451 1.516 . S
C3451 C3450 1.516 . S
C3451 C3452 1.502 . S
C3451 C3453 1.561 . S
C3451 C3454 1.526 . S
C3452 H3436 0.959 . S
C3452 H3437 0.959 . S
C3452 H3438 0.961 . S
C3452 C3451 1.502 . S
C3453 H3439 0.960 . S
C3453 H3440 0.961 . S
C3453 H3441 0.959 . S
C3453 C3451 1.561 . S
C3454 C3451 1.526 . S
C3454 C3455 1.396 1_556 S
C3454 C3459 1.390 . S
C3455 C3449 1.465 . S
C3455 C3454 1.396 1_554 S
C3455 C3456 1.399 . S
C3456 H3442 0.929 . S
C3456 C3455 1.399 . S
C3456 C3457 1.385 . S
C3457 H3443 0.931 . S
C3457 C3456 1.385 . S
C3457 C3458 1.389 . S
C3458 C3457 1.389 . S
C3458 C3459 1.387 1_554 S
C3459 H3444 0.930 . S
C3459 C3454 1.390 . S
C3459 C3458 1.387 1_556 S
H3460 C3472 0.930 . S
H3461 C3474 0.930 . S
H3462 C3475 0.930 . S
H3463 C3479 0.959 . S
H3464 C3479 0.959 . S
H3465 C3479 0.961 . S
H3466 C3480 0.960 . S
H3467 C3480 0.961 . S
H3468 C3480 0.959 . S
H3469 C3483 0.929 . S
H3470 C3484 0.931 . S
H3471 C3486 0.930 . S
C3472 H3460 0.930 . S
C3472 C3473 1.399 . S
C3472 C3477 1.399 . S
C3473 C3472 1.399 . S
C3473 C3474 1.376 . S
C3474 H3461 0.930 . S
C3474 C3473 1.376 . S
C3474 C3475 1.388 . S
C3475 H3462 0.930 . S
C3475 C3474 1.388 . S
C3475 C3476 1.390 . S
C3476 C3475 1.390 . S
C3476 C3477 1.394 . S
C3476 C3482 1.465 . S
C3477 C3472 1.399 . S
C3477 C3476 1.394 . S
C3477 C3478 1.516 . S
C3478 C3477 1.516 . S
C3478 C3479 1.502 . S
C3478 C3480 1.561 . S
C3478 C3481 1.526 . S
C3479 H3463 0.959 . S
C3479 H3464 0.959 . S
C3479 H3465 0.961 . S
C3479 C3478 1.502 . S
C3480 H3466 0.960 . S
C3480 H3467 0.961 . S
C3480 H3468 0.959 . S
C3480 C3478 1.561 . S
C3481 C3478 1.526 . S
C3481 C3482 1.396 . S
C3481 C3486 1.390 . S
C3482 C3476 1.465 . S
C3482 C3481 1.396 . S
C3482 C3483 1.399 . S
C3483 H3469 0.929 . S
C3483 C3482 1.399 . S
C3483 C3484 1.385 . S
C3484 H3470 0.931 . S
C3484 C3483 1.385 . S
C3484 C3485 1.389 . S
C3485 C3484 1.389 . S
C3485 C3486 1.387 . S
C3486 H3471 0.930 . S
C3486 C3481 1.390 . S
C3486 C3485 1.387 . S
H3487 C3499 0.930 . S
H3488 C3501 0.930 . S
H3489 C3502 0.930 . S
H3490 C3506 0.959 . S
H3491 C3506 0.959 . S
H3492 C3506 0.961 . S
H3493 C3507 0.960 . S
H3494 C3507 0.961 . S
H3495 C3507 0.959 . S
H3496 C3510 0.929 . S
H3497 C3511 0.931 . S
H3498 C3513 0.930 . S
C3499 H3487 0.930 . S
C3499 C3500 1.399 . S
C3499 C3504 1.399 . S
C3500 C3499 1.399 . S
C3500 C3501 1.376 . S
C3501 H3488 0.930 . S
C3501 C3500 1.376 . S
C3501 C3502 1.388 1_554 S
C3502 H3489 0.930 . S
C3502 C3501 1.388 1_556 S
C3502 C3503 1.390 1_556 S
C3503 C3502 1.390 1_554 S
C3503 C3504 1.394 . S
C3503 C3509 1.465 . S
C3504 C3499 1.399 . S
C3504 C3503 1.394 . S
C3504 C3505 1.516 . S
C3505 C3504 1.516 . S
C3505 C3506 1.502 . S
C3505 C3507 1.561 . S
C3505 C3508 1.526 . S
C3506 H3490 0.959 . S
C3506 H3491 0.959 . S
C3506 H3492 0.961 . S
C3506 C3505 1.502 . S
C3507 H3493 0.960 . S
C3507 H3494 0.961 . S
C3507 H3495 0.959 . S
C3507 C3505 1.561 . S
C3508 C3505 1.526 . S
C3508 C3509 1.396 . S
C3508 C3513 1.390 . S
C3509 C3503 1.465 . S
C3509 C3508 1.396 . S
C3509 C3510 1.399 1_554 S
C3510 H3496 0.929 . S
C3510 C3509 1.399 1_556 S
C3510 C3511 1.385 . S
C3511 H3497 0.931 . S
C3511 C3510 1.385 . S
C3511 C3512 1.389 . S
C3512 C3511 1.389 . S
C3512 C3513 1.387 1_556 S
C3513 H3498 0.930 . S
C3513 C3508 1.390 . S
C3513 C3512 1.387 1_554 S
H3514 C3526 0.930 . S
H3515 C3528 0.930 . S
H3516 C3529 0.930 . S
H3517 C3533 0.959 . S
H3518 C3533 0.959 . S
H3519 C3533 0.961 . S
H3520 C3534 0.960 . S
H3521 C3534 0.961 . S
H3522 C3534 0.959 . S
H3523 C3537 0.929 . S
H3524 C3538 0.931 . S
H3525 C3540 0.930 . S
C3526 H3514 0.930 . S
C3526 C3527 1.399 . S
C3526 C3531 1.399 . S
C3527 C3526 1.399 . S
C3527 C3528 1.376 . S
C3528 H3515 0.930 . S
C3528 C3527 1.376 . S
C3528 C3529 1.388 . S
C3529 H3516 0.930 . S
C3529 C3528 1.388 . S
C3529 C3530 1.390 . S
C3530 C3529 1.390 . S
C3530 C3531 1.394 . S
C3530 C3536 1.465 . S
C3531 C3526 1.399 . S
C3531 C3530 1.394 . S
C3531 C3532 1.516 . S
C3532 C3531 1.516 . S
C3532 C3533 1.502 . S
C3532 C3534 1.561 . S
C3532 C3535 1.526 . S
C3533 H3517 0.959 . S
C3533 H3518 0.959 . S
C3533 H3519 0.961 . S
C3533 C3532 1.502 . S
C3534 H3520 0.960 . S
C3534 H3521 0.961 . S
C3534 H3522 0.959 . S
C3534 C3532 1.561 . S
C3535 C3532 1.526 . S
C3535 C3536 1.396 . S
C3535 C3540 1.390 . S
C3536 C3530 1.465 . S
C3536 C3535 1.396 . S
C3536 C3537 1.399 . S
C3537 H3523 0.929 . S
C3537 C3536 1.399 . S
C3537 C3538 1.385 . S
C3538 H3524 0.931 . S
C3538 C3537 1.385 . S
C3538 C3539 1.389 . S
C3539 C3538 1.389 . S
C3539 C3540 1.387 . S
C3540 H3525 0.930 . S
C3540 C3535 1.390 . S
C3540 C3539 1.387 . S
H3541 C3553 0.930 . S
H3542 C3555 0.930 . S
H3543 C3556 0.930 . S
H3544 C3560 0.959 . S
H3545 C3560 0.959 . S
H3546 C3560 0.961 . S
H3547 C3561 0.960 . S
H3548 C3561 0.961 . S
H3549 C3561 0.959 . S
H3550 C3564 0.929 . S
H3551 C3565 0.931 . S
H3552 C3567 0.930 . S
C3553 H3541 0.930 . S
C3553 C3554 1.399 . S
C3553 C3558 1.399 . S
C3554 C3553 1.399 . S
C3554 C3555 1.376 . S
C3555 H3542 0.930 . S
C3555 C3554 1.376 . S
C3555 C3556 1.388 . S
C3556 H3543 0.930 . S
C3556 C3555 1.388 . S
C3556 C3557 1.390 . S
C3557 C3556 1.390 . S
C3557 C3558 1.394 . S
C3557 C3563 1.465 . S
C3558 C3553 1.399 . S
C3558 C3557 1.394 . S
C3558 C3559 1.516 . S
C3559 C3558 1.516 . S
C3559 C3560 1.502 . S
C3559 C3561 1.561 . S
C3559 C3562 1.526 . S
C3560 H3544 0.959 . S
C3560 H3545 0.959 . S
C3560 H3546 0.961 . S
C3560 C3559 1.502 . S
C3561 H3547 0.960 . S
C3561 H3548 0.961 . S
C3561 H3549 0.959 . S
C3561 C3559 1.561 . S
C3562 C3559 1.526 . S
C3562 C3563 1.396 . S
C3562 C3567 1.390 . S
C3563 C3557 1.465 . S
C3563 C3562 1.396 . S
C3563 C3564 1.399 . S
C3564 H3550 0.929 . S
C3564 C3563 1.399 . S
C3564 C3565 1.385 . S
C3565 H3551 0.931 . S
C3565 C3564 1.385 . S
C3565 C3566 1.389 . S
C3566 C3565 1.389 . S
C3566 C3567 1.387 . S
C3567 H3552 0.930 . S
C3567 C3562 1.390 . S
C3567 C3566 1.387 . S
C989 C109 2.090 . S
C1001 C346 2.072 . S
C1016 C65 1.794 . S
C1028 C385 1.761 . S
C1043 C75 1.431 . S
C1055 C426 1.427 . S
C1082 C471 1.416 . S
C1070 C84 1.447 . S
C1097 C25 2.049 . S
C1109 C515 2.032 . S
C1136 C546 1.309 . S
C1124 C28 1.370 . S
C1163 C594 2.008 . S
C1151 C47 2.010 . S
C1178 C9 1.757 . S
C1190 C622 1.730 . S
C1217 C354 1.587 . S
C1205 C233 1.588 . S
C1232 C249 1.422 . S
C1244 C395 1.351 . S
C1271 C434 1.479 . S
C1259 C275 1.426 1_545 S
C1298 C466 1.471 . S
C1286 C173 1.484 . S
C1313 C224 0.306 . S
C1325 C502 0.199 1_655 S
C1352 C554 2.198 . S
C1340 C243 2.223 . S
C1379 C591 0.993 . S
C1367 C266 1.006 . S
C1406 C625 1.891 . S
C1394 C179 1.877 . S
C1433 C351 1.915 . S
C1421 C163 1.924 . S
C1448 C289 1.960 . S
C1460 C665 1.936 . S
C1487 C711 1.249 . S
C1475 C333 1.190 . S
C1514 C746 1.433 1_655 S
C1502 C308 1.480 . S
C1529 C123 1.932 . S
C1541 C635 1.890 . S
C1556 C126 1.384 . S
C1568 C431 1.433 . S
C1583 C327 1.353 . S
C1595 C794 1.343 . S
C1622 C822 0.466 . S
C1610 C299 0.541 . S
C1649 C355 2.081 1_565 S
C1637 C67 2.118 . S
C1676 C834 1.752 . S
C1664 C98 1.793 . S
C1691 C89 1.454 . S
C1703 C435 1.429 . S
C1718 C79 1.497 . S
C1730 C782 1.494 . S
C1757 C506 2.087 . S
C1745 C11 2.100 . S
C1772 C51 1.393 . S
C1784 C715 1.362 . S
C1811 C585 2.031 1_565 S
C1799 C33 2.046 . S
C1838 C871 1.656 . S
C1826 C14 1.740 . S
C1865 C345 1.550 . S
C1853 C140 1.548 . S
C1892 C826 1.407 . S
C1880 C319 1.441 . S
C1907 C112 1.469 . S
C1919 C425 1.514 . S
C1934 C285 1.517 . S
C1946 C795 1.516 . S
C1961 C149 0.238 . S
C1973 C511 0.310 . S
C2000 C705 2.236 . S
C1988 C313 2.267 . S
C2015 C121 1.010 . S
C2027 C582 1.110 . S
C2042 C291 1.907 . S
C2054 C874 1.906 . S
C2069 C182 1.921 1_556 S
C2081 C342 1.884 . S
C2096 C168 1.958 . S
C2108 C674 1.958 . S
C2123 C263 1.300 . S
C2135 C542 1.188 . S
C2150 C247 1.558 . S
C2162 C755 1.509 . S
C2189 C866 1.877 . S
C2177 C277 1.970 . S
C2204 C219 1.462 . S
C2216 C422 1.387 . S
C2243 C465 1.423 . S
C2231 C257 1.340 . S
C2270 C391 0.511 . S
C2258 C201 0.484 . S
C2285 C81 2.123 . S
C2297 C906 2.035 . S
C2324 C825 1.732 . S
C2312 C93 1.801 . S
C2339 C103 1.430 . S
C2351 C946 1.398 1_556 S
C2366 C56 1.454 . S
C2378 C791 1.451 . S
C2393 C53 2.044 . S
C2405 C675 2.025 . S
C2432 C706 1.380 . S
C2420 C0 1.364 . S
C2459 C754 1.994 . S
C2447 C19 2.003 . S
C2486 C862 1.671 . S
C2474 C37 1.790 . S
C2513 C914 1.593 . S
C2501 C261 1.556 . S
C2528 C193 1.409 . S
C2540 C835 1.379 . S
C2567 C954 1.483 . S
C2555 C205 1.443 . S
C2594 C786 1.460 . S
C2582 C215 1.479 . S
C2621 C662 0.182 . S
C2609 C252 0.329 . S
C2636 C187 2.220 . S
C2648 C714 2.209 . S
C2675 C751 1.050 . S
C2663 C196 0.949 . S
C2690 C221 1.876 . S
C2702 C865 1.883 . S
C2729 C911 1.899 . S
C2717 C317 1.934 . S
C2744 C135 1.960 . S
C2756 C505 1.937 . S
C2783 C551 1.269 . S
C2771 C151 1.221 . S
C2810 C586 1.500 . S
C2798 C154 1.473 . S
C2837 C875 1.946 . S
C2825 C305 1.951 . S
C2852 C280 1.399 . S
C2864 C951 1.387 . S
C2891 C474 1.351 . S
C2879 C145 1.295 . S
C2918 C382 0.544 . S
C2906 C117 0.493 . S
C2933 C95 2.130 . S
C2945 C915 2.039 . S
C2972 C394 1.789 . S
C2960 C70 1.799 . S
C2987 C61 1.468 . S
C2999 C955 1.469 . S
C3014 C107 1.499 . S
C3026 C462 1.491 . S
C3041 C39 2.083 . S
C3053 C666 2.078 1_556 S
C3080 C555 1.342 . S
C3068 C23 1.390 . S
C3095 C5 2.046 . S
C3107 C745 2.045 . S
C3122 C42 1.740 . S
C3134 C631 1.655 . S
C3161 C905 1.565 . S
C3149 C322 1.508 . S
C3176 C165 1.456 . S
C3188 C386 1.447 . S
C3215 C945 1.529 . S
C3203 C294 1.407 . S
C3230 C131 1.495 . S
C3242 C475 1.479 . S
C3257 C331 0.339 . S
C3269 C671 0.316 . S
C3296 C545 2.258 . S
C3284 C159 2.265 1_556 S
C3311 C303 1.025 . S
C3323 C742 1.111 1_655 S
C3350 C634 1.921 . S
C3338 C137 1.918 . S
C3377 C902 1.831 . S
C3365 C238 1.941 . S
C3404 C514 1.959 1_655 S
C3392 C210 1.942 . S
C3419 C235 1.211 . S
C3431 C702 1.289 . S
C3458 C595 1.503 . S
C3446 C191 1.555 . S
C3473 C207 1.921 . S
C3485 C626 1.943 . S
C3500 C177 1.454 . S
C3512 C942 1.447 . S
C3539 C785 1.425 . S
C3527 C229 1.346 . S
C3566 C831 0.495 . S
C3554 C271 0.494 . S
