# Generated by pormake.
# Topology eea, (3,6)-cn, num edge types: 1
# Building blocks:
#     Node 0, Type 0, BuildingBlock: OLANEW_clean_sbu_2, # of connection points: 3
#     Node 1, Type 0, BuildingBlock: OLANEW_clean_sbu_2, # of connection points: 3
#     Node 2, Type 0, BuildingBlock: OLANEW_clean_sbu_2, # of connection points: 3
#     Node 3, Type 0, BuildingBlock: OLANEW_clean_sbu_2, # of connection points: 3
#     Node 4, Type 0, BuildingBlock: OLANEW_clean_sbu_2, # of connection points: 3
#     Node 5, Type 0, BuildingBlock: OLANEW_clean_sbu_2, # of connection points: 3
#     Node 6, Type 0, BuildingBlock: OLANEW_clean_sbu_2, # of connection points: 3
#     Node 7, Type 0, BuildingBlock: OLANEW_clean_sbu_2, # of connection points: 3
#     Node 8, Type 0, BuildingBlock: OLANEW_clean_sbu_2, # of connection points: 3
#     Node 9, Type 0, BuildingBlock: OLANEW_clean_sbu_2, # of connection points: 3
#     Node 10, Type 0, BuildingBlock: OLANEW_clean_sbu_2, # of connection points: 3
#     Node 11, Type 0, BuildingBlock: OLANEW_clean_sbu_2, # of connection points: 3
#     Node 12, Type 0, BuildingBlock: OLANEW_clean_sbu_2, # of connection points: 3
#     Node 13, Type 0, BuildingBlock: OLANEW_clean_sbu_2, # of connection points: 3
#     Node 14, Type 0, BuildingBlock: OLANEW_clean_sbu_2, # of connection points: 3
#     Node 15, Type 0, BuildingBlock: OLANEW_clean_sbu_2, # of connection points: 3
#     Node 16, Type 0, BuildingBlock: OLANEW_clean_sbu_2, # of connection points: 3
#     Node 17, Type 0, BuildingBlock: OLANEW_clean_sbu_2, # of connection points: 3
#     Node 18, Type 1, BuildingBlock: KUMBOL_clean_sbu_0, # of connection points: 6
#     Node 19, Type 1, BuildingBlock: KUMBOL_clean_sbu_0, # of connection points: 6
#     Node 20, Type 1, BuildingBlock: KUMBOL_clean_sbu_0, # of connection points: 6
#     Node 21, Type 1, BuildingBlock: KUMBOL_clean_sbu_0, # of connection points: 6
#     Node 22, Type 1, BuildingBlock: KUMBOL_clean_sbu_0, # of connection points: 6
#     Node 23, Type 1, BuildingBlock: KUMBOL_clean_sbu_0, # of connection points: 6
#     Node 24, Type 1, BuildingBlock: KUMBOL_clean_sbu_0, # of connection points: 6
#     Node 25, Type 1, BuildingBlock: KUMBOL_clean_sbu_0, # of connection points: 6
#     Node 26, Type 1, BuildingBlock: KUMBOL_clean_sbu_0, # of connection points: 6
#     Edge 27, Type (0, 1), BuildingBlock: CIFDUS_clean_linker_0, # of connection points: 2
#     Edge 28, Type (0, 1), BuildingBlock: CIFDUS_clean_linker_0, # of connection points: 2
#     Edge 29, Type (0, 1), BuildingBlock: CIFDUS_clean_linker_0, # of connection points: 2
#     Edge 30, Type (0, 1), BuildingBlock: CIFDUS_clean_linker_0, # of connection points: 2
#     Edge 31, Type (0, 1), BuildingBlock: CIFDUS_clean_linker_0, # of connection points: 2
#     Edge 32, Type (0, 1), BuildingBlock: CIFDUS_clean_linker_0, # of connection points: 2
#     Edge 33, Type (0, 1), BuildingBlock: CIFDUS_clean_linker_0, # of connection points: 2
#     Edge 34, Type (0, 1), BuildingBlock: CIFDUS_clean_linker_0, # of connection points: 2
#     Edge 35, Type (0, 1), BuildingBlock: CIFDUS_clean_linker_0, # of connection points: 2
#     Edge 36, Type (0, 1), BuildingBlock: CIFDUS_clean_linker_0, # of connection points: 2
#     Edge 37, Type (0, 1), BuildingBlock: CIFDUS_clean_linker_0, # of connection points: 2
#     Edge 38, Type (0, 1), BuildingBlock: CIFDUS_clean_linker_0, # of connection points: 2
#     Edge 39, Type (0, 1), BuildingBlock: CIFDUS_clean_linker_0, # of connection points: 2
#     Edge 40, Type (0, 1), BuildingBlock: CIFDUS_clean_linker_0, # of connection points: 2
#     Edge 41, Type (0, 1), BuildingBlock: CIFDUS_clean_linker_0, # of connection points: 2
#     Edge 42, Type (0, 1), BuildingBlock: CIFDUS_clean_linker_0, # of connection points: 2
#     Edge 43, Type (0, 1), BuildingBlock: CIFDUS_clean_linker_0, # of connection points: 2
#     Edge 44, Type (0, 1), BuildingBlock: CIFDUS_clean_linker_0, # of connection points: 2
#     Edge 45, Type (0, 1), BuildingBlock: CIFDUS_clean_linker_0, # of connection points: 2
#     Edge 46, Type (0, 1), BuildingBlock: CIFDUS_clean_linker_0, # of connection points: 2
#     Edge 47, Type (0, 1), BuildingBlock: CIFDUS_clean_linker_0, # of connection points: 2
#     Edge 48, Type (0, 1), BuildingBlock: CIFDUS_clean_linker_0, # of connection points: 2
#     Edge 49, Type (0, 1), BuildingBlock: CIFDUS_clean_linker_0, # of connection points: 2
#     Edge 50, Type (0, 1), BuildingBlock: CIFDUS_clean_linker_0, # of connection points: 2
#     Edge 51, Type (0, 1), BuildingBlock: CIFDUS_clean_linker_0, # of connection points: 2
#     Edge 52, Type (0, 1), BuildingBlock: CIFDUS_clean_linker_0, # of connection points: 2
#     Edge 53, Type (0, 1), BuildingBlock: CIFDUS_clean_linker_0, # of connection points: 2
#     Edge 54, Type (0, 1), BuildingBlock: CIFDUS_clean_linker_0, # of connection points: 2
#     Edge 55, Type (0, 1), BuildingBlock: CIFDUS_clean_linker_0, # of connection points: 2
#     Edge 56, Type (0, 1), BuildingBlock: CIFDUS_clean_linker_0, # of connection points: 2
#     Edge 57, Type (0, 1), BuildingBlock: CIFDUS_clean_linker_0, # of connection points: 2
#     Edge 58, Type (0, 1), BuildingBlock: CIFDUS_clean_linker_0, # of connection points: 2
#     Edge 59, Type (0, 1), BuildingBlock: CIFDUS_clean_linker_0, # of connection points: 2
#     Edge 60, Type (0, 1), BuildingBlock: CIFDUS_clean_linker_0, # of connection points: 2
#     Edge 61, Type (0, 1), BuildingBlock: CIFDUS_clean_linker_0, # of connection points: 2
#     Edge 62, Type (0, 1), BuildingBlock: CIFDUS_clean_linker_0, # of connection points: 2
#     Edge 63, Type (0, 1), BuildingBlock: CIFDUS_clean_linker_0, # of connection points: 2
#     Edge 64, Type (0, 1), BuildingBlock: CIFDUS_clean_linker_0, # of connection points: 2
#     Edge 65, Type (0, 1), BuildingBlock: CIFDUS_clean_linker_0, # of connection points: 2
#     Edge 66, Type (0, 1), BuildingBlock: CIFDUS_clean_linker_0, # of connection points: 2
#     Edge 67, Type (0, 1), BuildingBlock: CIFDUS_clean_linker_0, # of connection points: 2
#     Edge 68, Type (0, 1), BuildingBlock: CIFDUS_clean_linker_0, # of connection points: 2
#     Edge 69, Type (0, 1), BuildingBlock: CIFDUS_clean_linker_0, # of connection points: 2
#     Edge 70, Type (0, 1), BuildingBlock: CIFDUS_clean_linker_0, # of connection points: 2
#     Edge 71, Type (0, 1), BuildingBlock: CIFDUS_clean_linker_0, # of connection points: 2
#     Edge 72, Type (0, 1), BuildingBlock: CIFDUS_clean_linker_0, # of connection points: 2
#     Edge 73, Type (0, 1), BuildingBlock: CIFDUS_clean_linker_0, # of connection points: 2
#     Edge 74, Type (0, 1), BuildingBlock: CIFDUS_clean_linker_0, # of connection points: 2
#     Edge 75, Type (0, 1), BuildingBlock: CIFDUS_clean_linker_0, # of connection points: 2
#     Edge 76, Type (0, 1), BuildingBlock: CIFDUS_clean_linker_0, # of connection points: 2
#     Edge 77, Type (0, 1), BuildingBlock: CIFDUS_clean_linker_0, # of connection points: 2
#     Edge 78, Type (0, 1), BuildingBlock: CIFDUS_clean_linker_0, # of connection points: 2
#     Edge 79, Type (0, 1), BuildingBlock: CIFDUS_clean_linker_0, # of connection points: 2
#     Edge 80, Type (0, 1), BuildingBlock: CIFDUS_clean_linker_0, # of connection points: 2
# Relax obj value: 0.012
# Max RMSD: 0.165
# Mean RMSD: 0.114
data_MOF--net-eea--node1-OLANEW_clean_sbu_2--node2-KUMBOL_clean_sbu_0--edge1-CIFDUS_clean_linker_0
_symmetry_space_group_name_H-M    P1
_symmetry_Int_Tables_number       1
_symmetry_cell_setting            triclinic
loop_
_symmetry_equiv_pos_as_xyz
'x, y, z'
_cell_length_a     53.113048
_cell_length_b     54.527775
_cell_length_c     61.219628
_cell_angle_alpha  94.703227
_cell_angle_beta   90.04945
_cell_angle_gamma 120.53736
loop_
_atom_site_label
_atom_site_type_symbol
_atom_site_fract_x
_atom_site_fract_y
_atom_site_fract_z
_atom_type_partial_charge
O0 O 0.21952 0.12648 0.44772 0.0
Cd1 Cd 0.19662 0.11381 0.41048 0.0
O2 O 0.24889 0.11122 0.43633 0.0
Cd3 Cd 0.22728 0.09158 0.4042 0.0
O4 O 0.20875 0.04843 0.38824 0.0
C5 C 0.1958 0.0293 0.40136 0.0
O6 O 0.19309 0.03726 0.42165 0.0
C7 C 0.24082 0.12271 0.45149 0.0
C8 C 0.18484 0.15399 0.39529 0.0
O9 O 0.16447 0.13124 0.40267 0.0
O10 O 0.21074 0.15788 0.39529 0.0
O11 O 0.91195 0.12802 0.43417 0.0
Cd12 Cd 0.92093 0.11926 0.39575 0.0
O13 O 0.90846 0.08731 0.4392 0.0
Cd14 Cd 0.89308 0.04723 0.45353 0.0
O15 O 0.85721 0.00614 0.43958 0.0
C16 C 0.83446 0.00697 0.43456 0.0
O17 O 0.83434 0.03082 0.43952 0.0
C18 C 0.90658 0.10869 0.44676 0.0
C19 C 0.97354 0.16245 0.38159 0.0
O20 O 0.95035 0.16416 0.38117 0.0
O21 O 0.97189 0.14028 0.38879 0.0
O22 O 0.90137 0.7453 0.43897 0.0
Cd23 Cd 0.90926 0.76195 0.40217 0.0
O24 O 0.85836 0.74032 0.44631 0.0
Cd25 Cd 0.85125 0.75765 0.41714 0.0
O26 O 0.82817 0.77326 0.39765 0.0
C27 C 0.80244 0.75536 0.38978 0.0
O28 O 0.79155 0.72815 0.39236 0.0
C29 C 0.88023 0.73809 0.45169 0.0
C30 C 0.96033 0.76493 0.38639 0.0
O31 O 0.96072 0.78743 0.39482 0.0
O32 O 0.93586 0.74124 0.38504 0.0
O33 O 0.14889 0.24012 0.59495 0.0
Cd34 Cd 0.14548 0.22529 0.63238 0.0
O35 O 0.10353 0.23124 0.59135 0.0
Cd36 Cd 0.08664 0.21768 0.62348 0.0
O37 O 0.04919 0.21216 0.64225 0.0
C38 C 0.04498 0.2332 0.64363 0.0
O39 O 0.06423 0.25686 0.63544 0.0
C40 C 0.12852 0.23963 0.58353 0.0
C41 C 0.19378 0.22177 0.64695 0.0
O42 O 0.17037 0.19943 0.6387 0.0
O43 O 0.19448 0.24569 0.64814 0.0
O44 O 0.76483 0.85865 0.60776 0.0
Cd45 Cd 0.78717 0.87043 0.6446 0.0
O46 O 0.80267 0.88803 0.58978 0.0
Cd47 Cd 0.82519 0.91301 0.62041 0.0
O48 O 0.82646 0.95058 0.63693 0.0
C49 C 0.80582 0.95406 0.63047 0.0
O50 O 0.78616 0.93491 0.61576 0.0
C51 C 0.77636 0.86756 0.58975 0.0
C52 C 0.78957 0.82271 0.65427 0.0
O53 O 0.76572 0.8231 0.65567 0.0
O54 O 0.81259 0.84522 0.64907 0.0
O55 O 0.07385 0.85334 0.58754 0.0
Cd56 Cd 0.06204 0.86662 0.62379 0.0
O57 O 0.11161 0.8662 0.60933 0.0
Cd58 Cd 0.15589 0.88042 0.6213 0.0
O59 O 0.18954 0.9208 0.63776 0.0
C60 C 0.18805 0.94201 0.63227 0.0
O61 O 0.1681 0.93757 0.61726 0.0
C62 C 0.10008 0.85908 0.58994 0.0
C63 C 0.01185 0.82577 0.64204 0.0
O64 O 0.01167 0.84502 0.63146 0.0
O65 O 0.03572 0.82537 0.64357 0.0
O66 O 0.8949 0.4573 0.77542 0.0
Cd67 Cd 0.8607 0.43961 0.74318 0.0
O68 O 0.92719 0.45143 0.7569 0.0
Cd69 Cd 0.89765 0.42623 0.72862 0.0
O70 O 0.88307 0.3838 0.71226 0.0
C71 C 0.85702 0.36442 0.70629 0.0
O72 O 0.83574 0.36997 0.70838 0.0
C73 C 0.92009 0.45998 0.7745 0.0
C74 C 0.84999 0.48157 0.73018 0.0
O75 O 0.83497 0.46503 0.74472 0.0
O76 O 0.87016 0.47822 0.72156 0.0
O77 O 0.56935 0.45607 0.7625 0.0
Cd78 Cd 0.58127 0.44896 0.72484 0.0
O79 O 0.57904 0.42376 0.77183 0.0
Cd80 Cd 0.57286 0.38877 0.79019 0.0
O81 O 0.54191 0.34495 0.77698 0.0
C82 C 0.51825 0.34223 0.76941 0.0
O83 O 0.51467 0.36444 0.77174 0.0
C84 C 0.5702 0.44107 0.77698 0.0
C85 C 0.63599 0.49289 0.71493 0.0
O86 O 0.6131 0.4948 0.7124 0.0
O87 O 0.6329 0.47011 0.72208 0.0
O88 O 0.56082 0.07166 0.77149 0.0
Cd89 Cd 0.57504 0.09462 0.73689 0.0
O90 O 0.51507 0.06049 0.76529 0.0
Cd91 Cd 0.51712 0.08359 0.7371 0.0
O92 O 0.4882 0.09495 0.72061 0.0
C93 C 0.46193 0.07459 0.71667 0.0
O94 O 0.4551 0.04884 0.72123 0.0
C95 C 0.53424 0.05915 0.77681 0.0
C96 C 0.63277 0.11411 0.72468 0.0
O97 O 0.62569 0.13099 0.735 0.0
O98 O 0.61277 0.08779 0.72052 0.0
O99 O 0.8221 0.57633 0.93867 0.0
Cd100 Cd 0.80978 0.5574 0.97463 0.0
O101 O 0.77842 0.56816 0.9286 0.0
Cd102 Cd 0.75603 0.55176 0.95863 0.0
O103 O 0.71796 0.54442 0.97722 0.0
C104 C 0.71511 0.56602 0.98184 0.0
O105 O 0.73599 0.59116 0.97683 0.0
C106 C 0.80506 0.57725 0.92455 0.0
C107 C 0.84548 0.53623 0.98697 0.0
O108 O 0.82007 0.51959 0.97758 0.0
O109 O 0.85397 0.56285 0.9907 0.0
O110 O 0.44626 0.20508 0.93494 0.0
Cd111 Cd 0.47367 0.2158 0.97003 0.0
O112 O 0.48608 0.22654 0.9164 0.0
Cd113 Cd 0.51137 0.2509 0.94662 0.0
O114 O 0.51833 0.28884 0.96706 0.0
C115 C 0.49992 0.29611 0.96214 0.0
O116 O 0.47948 0.28015 0.94675 0.0
C117 C 0.45839 0.21096 0.91665 0.0
C118 C 0.47025 0.16644 0.98354 0.0
O119 O 0.45352 0.17522 0.99134 0.0
O120 O 0.48864 0.18104 0.96957 0.0
O121 O 0.73963 0.18503 0.92233 0.0
Cd122 Cd 0.72725 0.19749 0.9586 0.0
O123 O 0.78399 0.20018 0.93597 0.0
Cd124 Cd 0.78034 0.21792 0.96824 0.0
O125 O 0.80658 0.25853 0.98813 0.0
C126 C 0.82064 0.27898 0.97629 0.0
O127 O 0.81636 0.27353 0.95486 0.0
C128 C 0.76522 0.18907 0.91989 0.0
C129 C 0.68512 0.14981 0.97802 0.0
O130 O 0.67806 0.16528 0.96789 0.0
O131 O 0.71211 0.15687 0.97901 0.0
O132 O 0.55675 0.78435 0.10796 0.0
Cd133 Cd 0.52165 0.77131 0.0769 0.0
O134 O 0.58772 0.77872 0.08741 0.0
Cd135 Cd 0.55878 0.76085 0.05803 0.0
O136 O 0.54046 0.71873 0.04014 0.0
C137 C 0.5357 0.6994 0.05257 0.0
O138 O 0.54021 0.70636 0.07387 0.0
C139 C 0.58103 0.78523 0.10604 0.0
C140 C 0.52238 0.8179 0.06034 0.0
O141 O 0.50775 0.80671 0.07704 0.0
O142 O 0.53702 0.80725 0.05148 0.0
O143 O 0.23778 0.78009 0.09846 0.0
Cd144 Cd 0.24826 0.77297 0.06015 0.0
O145 O 0.25484 0.75514 0.11237 0.0
Cd146 Cd 0.25453 0.73521 0.08 0.0
O147 O 0.22238 0.69589 0.06087 0.0
C148 C 0.19612 0.68868 0.06479 0.0
O149 O 0.19145 0.70575 0.07838 0.0
C150 C 0.24416 0.77134 0.11508 0.0
C151 C 0.29407 0.82379 0.04626 0.0
O152 O 0.26766 0.81856 0.04566 0.0
O153 O 0.29885 0.80492 0.05325 0.0
O154 O 0.23543 0.4091 0.10564 0.0
Cd155 Cd 0.24619 0.4271 0.06914 0.0
O156 O 0.19239 0.40601 0.10683 0.0
Cd157 Cd 0.19234 0.42587 0.07701 0.0
O158 O 0.17333 0.44622 0.05868 0.0
C159 C 0.14826 0.43081 0.04885 0.0
O160 O 0.13543 0.40286 0.0485 0.0
C161 C 0.21186 0.4022 0.11538 0.0
C162 C 0.29659 0.42964 0.05231 0.0
O163 O 0.29762 0.45202 0.06175 0.0
O164 O 0.2719 0.40615 0.05084 0.0
O165 O 0.48965 0.91716 0.27077 0.0
Cd166 Cd 0.4835 0.90002 0.30733 0.0
O167 O 0.44443 0.90593 0.26182 0.0
Cd168 Cd 0.42222 0.88954 0.29195 0.0
O169 O 0.38329 0.8829 0.30919 0.0
C170 C 0.3782 0.90334 0.30944 0.0
O171 O 0.39714 0.92679 0.30085 0.0
C172 C 0.47108 0.91636 0.25712 0.0
C173 C 0.5301 0.89249 0.31904 0.0
O174 O 0.50557 0.87124 0.31123 0.0
O175 O 0.53255 0.91719 0.32154 0.0
O176 O 0.10548 0.529 0.26486 0.0
Cd177 Cd 0.12478 0.54183 0.30297 0.0
O178 O 0.1451 0.56176 0.25052 0.0
Cd179 Cd 0.16403 0.58391 0.28277 0.0
O180 O 0.16441 0.62009 0.30113 0.0
C181 C 0.14258 0.6225 0.29612 0.0
O182 O 0.12223 0.60285 0.28206 0.0
C183 C 0.11921 0.54035 0.24808 0.0
C184 C 0.13771 0.50191 0.31698 0.0
O185 O 0.11141 0.49694 0.31625 0.0
O186 O 0.1581 0.52589 0.31124 0.0
O187 O 0.41583 0.52283 0.2519 0.0
Cd188 Cd 0.39627 0.53294 0.28544 0.0
O189 O 0.45206 0.52719 0.27252 0.0
Cd190 Cd 0.44446 0.5474 0.30188 0.0
O191 O 0.47496 0.59175 0.31385 0.0
C192 C 0.49914 0.60129 0.30451 0.0
O193 O 0.50244 0.58393 0.29022 0.0
C194 C 0.4389 0.52142 0.25381 0.0
C195 C 0.3539 0.48343 0.30274 0.0
O196 O 0.34673 0.49832 0.29195 0.0
O197 O 0.38111 0.49179 0.30534 0.0
Gd198 Gd 0.49746 0.00494 0.04654 0.0
Gd199 Gd 0.48727 0.97231 0.98859 0.0
C200 C 0.39438 0.89837 0.96978 0.0
C201 C 0.40208 0.85828 0.96236 0.0
C202 C 0.44335 0.906 0.97289 0.0
C203 C 0.42471 0.9167 0.97446 0.0
C204 C 0.43237 0.87685 0.96607 0.0
C205 C 0.3831 0.86902 0.96427 0.0
C206 C 0.37635 0.91018 0.9703 0.0
C207 C 0.38878 0.93966 0.97477 0.0
N208 N 0.43635 0.94518 0.97978 0.0
C209 C 0.41895 0.95696 0.97931 0.0
H210 H 0.42784 0.97957 0.98298 0.0
C211 C 0.49204 0.91596 0.97109 0.0
N212 N 0.47248 0.92452 0.97646 0.0
C213 C 0.48226 0.88723 0.9645 0.0
C214 C 0.45226 0.86747 0.96237 0.0
H215 H 0.51529 0.93126 0.97271 0.0
H216 H 0.35983 0.85458 0.96087 0.0
H217 H 0.5581 -0.00028 0.05242 0.0
H218 H 0.35295 0.89682 0.96686 0.0
H219 H 0.37509 0.94908 0.9749 0.0
H220 H 0.39319 0.83574 0.9574 0.0
H221 H 0.46809 0.04461 0.06314 0.0
H222 H 0.63184 0.08359 0.067 0.0
H223 H 0.61082 0.03138 0.05983 0.0
H224 H 0.58917 0.14257 0.07646 0.0
H225 H 0.49785 0.88039 0.96103 0.0
H226 H 0.4447 0.84525 0.95712 0.0
H227 H 0.62362 0.12504 0.07268 0.0
H228 H 0.48432 0.09528 0.07444 0.0
N229 N 0.54848 0.03339 0.05496 0.0
C230 C 0.60845 0.06972 0.0638 0.0
C231 C 0.59666 0.04027 0.05983 0.0
C232 C 0.58981 0.08082 0.06428 0.0
C233 C 0.55951 0.06183 0.05994 0.0
C234 C 0.56649 0.02231 0.05565 0.0
N235 N 0.51124 0.05251 0.05879 0.0
C236 C 0.54026 0.07174 0.06179 0.0
C237 C 0.50031 0.08902 0.07078 0.0
C238 C 0.53014 0.10944 0.0724 0.0
C239 C 0.49122 0.06039 0.06442 0.0
C240 C 0.55057 0.10082 0.0684 0.0
H241 H 0.53717 0.13158 0.07748 0.0
O242 O 0.47203 0.00054 0.07536 0.0
O243 O 0.46922 0.96948 0.0216 0.0
O244 O 0.47859 0.00921 0.99041 0.0
O245 O 0.48702 0.03149 0.02629 0.0
O246 O 0.44818 0.9838 0.04255 0.0
O247 O 0.50308 0.98596 0.07449 0.0
O248 O 0.51582 0.97845 0.96156 0.0
O249 O 0.51528 0.00797 0.01348 0.0
O250 O 0.50775 0.96926 0.04426 0.0
O251 O 0.49548 0.9444 1.00916 0.0
O252 O 0.5363 -0.0074 0.99351 0.0
O253 O 0.48128 -0.01183 0.95876 0.0
C254 C 0.44432 0.96473 0.02685 0.0
C255 C 0.5808 0.12008 0.07165 0.0
C256 C 0.6004 0.1101 0.06955 0.0
C257 C 0.4848 -0.01007 0.08622 0.0
C258 C 0.49492 0.00194 0.10902 0.0
C259 C 0.51442 0.0313 0.11412 0.0
C260 C 0.48606 0.98352 0.12579 0.0
C261 C 0.49681 -0.00572 0.1476 0.0
C262 C 0.52499 0.04214 0.13573 0.0
C263 C 0.51637 0.0238 0.15238 0.0
C264 C 0.47991 0.02909 1.00521 0.0
C265 C 0.54014 0.01231 1.00862 0.0
C266 C 0.50222 0.98657 0.94891 0.0
C267 C 0.49566 0.97381 0.92599 0.0
C268 C 0.47688 0.94429 0.92107 0.0
C269 C 0.50792 -0.00861 0.90879 0.0
C270 C 0.50116 0.97954 0.88674 0.0
C271 C 0.47053 0.93237 0.89932 0.0
C272 C 0.4825 0.9498 0.88226 0.0
C273 C 0.50441 0.94807 0.02998 0.0
H274 H 0.52164 0.04577 0.10144 0.0
H275 H 0.47128 0.96076 0.12178 0.0
H276 H 0.54 0.06483 0.13958 0.0
H277 H 0.52471 0.03274 0.16904 0.0
H278 H 0.46702 0.93047 0.93397 0.0
H279 H 0.52207 0.01428 0.91256 0.0
H280 H 0.4561 0.90954 0.89565 0.0
H281 H 0.47718 0.93998 0.86551 0.0
Gd282 Gd 0.98935 0.48888 0.04661 0.0
Gd283 Gd 0.01625 0.49267 0.98971 0.0
C284 C 0.07831 0.45931 0.97436 0.0
C285 C 0.12557 0.5032 0.97661 0.0
C286 C 0.08105 0.50503 0.98159 0.0
C287 C 0.06445 0.47536 0.97887 0.0
C288 C 0.11165 0.51919 0.97945 0.0
C289 C 0.10894 0.47331 0.97412 0.0
C290 C 0.06097 0.42972 0.96943 0.0
C291 C 0.03062 0.41697 0.96802 0.0
N292 N 0.03476 0.46227 0.97919 0.0
C293 C 0.01783 0.43365 0.97257 0.0
H294 H 0.99439 0.42318 0.97038 0.0
C295 C 0.08186 0.54879 0.98177 0.0
N296 N 0.0671 0.52005 0.98438 0.0
C297 C 0.11211 0.56368 0.97961 0.0
C298 C 0.12722 0.54893 0.97909 0.0
H299 H 0.07036 0.56046 0.98244 0.0
H300 H 0.11989 0.46125 0.97114 0.0
H301 H 0.98671 0.54929 0.05204 0.0
H302 H 0.07079 0.41671 0.96588 0.0
H303 H 0.01702 0.39425 0.9633 0.0
H304 H 0.1491 0.51374 0.97541 0.0
H305 H 0.96024 0.42502 0.0655 0.0
H306 H 0.89824 0.52733 0.06184 0.0
H307 H 0.95003 0.56381 0.05754 0.0
H308 H 0.85047 0.42763 0.07204 0.0
H309 H 0.12376 0.58654 0.97851 0.0
H310 H 0.15069 0.56052 0.97743 0.0
H311 H 0.86089 0.47608 0.06651 0.0
H312 H 0.91231 0.38757 0.07756 0.0
N313 N 0.95598 0.50482 0.05249 0.0
C314 C 0.91426 0.52079 0.05936 0.0
C315 C 0.94348 0.54145 0.05704 0.0
C316 C 0.90638 0.49212 0.05958 0.0
C317 C 0.92811 0.48478 0.05626 0.0
C318 C 0.96423 0.53309 0.05387 0.0
N319 N 0.94441 0.45216 0.05762 0.0
C320 C 0.92214 0.45752 0.05908 0.0
C321 C 0.91469 0.40702 0.07216 0.0
C322 C 0.89072 0.41103 0.0717 0.0
C323 C 0.94171 0.42817 0.06539 0.0
C324 C 0.89446 0.43687 0.06568 0.0
H325 H 0.86983 0.39465 0.07697 0.0
O326 O 0.00607 0.48024 0.07548 0.0
O327 O 0.01218 0.47646 0.02159 0.0
O328 O 0.97904 0.44784 0.99318 0.0
O329 O 0.95571 0.44842 0.02583 0.0
O330 O 0.02256 0.47553 0.05345 0.0
O331 O 0.00311 0.51853 0.07613 0.0
O332 O 0.01756 0.52272 0.96787 0.0
O333 O 0.99325 0.50673 0.01435 0.0
O334 O 0.02087 0.53432 0.03977 0.0
O335 O 0.04971 0.52816 0.01433 0.0
O336 O 0.97268 0.48874 0.98356 0.0
O337 O 0.00413 0.4789 0.95516 0.0
C338 C 0.02892 0.47285 0.0336 0.0
C339 C 0.87205 0.44336 0.06736 0.0
C340 C 0.878 0.47096 0.06424 0.0
C341 C 0.00867 0.50235 0.0874 0.0
C342 C 0.99676 0.4966 0.10925 0.0
C343 C 0.96775 0.48911 0.11281 0.0
C344 C 0.01447 0.49726 0.12657 0.0
C345 C 0.00365 0.49109 0.14764 0.0
C346 C 0.95665 0.48256 0.13355 0.0
C347 C 0.97443 0.48364 0.15088 0.0
C348 C 0.95693 0.43624 1.00641 0.0
C349 C 0.97093 0.49997 1.00228 0.0
C350 C 0.00844 0.50377 0.95072 0.0
C351 C 0.02027 0.5135 0.92933 0.0
C352 C 0.05031 0.53131 0.92684 0.0
C353 C 0.00067 0.50481 0.911 0.0
C354 C 0.01084 0.51415 0.89029 0.0
C355 C 0.06059 0.54093 0.90647 0.0
C356 C 0.04108 0.5326 0.88835 0.0
C357 C 0.0463 0.54326 0.03081 0.0
H358 H 0.95371 0.48828 0.09963 0.0
H359 H 0.03664 0.50236 0.1235 0.0
H360 H 0.93426 0.47685 0.13624 0.0
H361 H 0.96543 0.47922 0.16691 0.0
H362 H 0.06583 0.53785 0.94049 0.0
H363 H 0.97752 0.49046 0.91289 0.0
H364 H 0.0838 0.55496 0.90473 0.0
H365 H 0.04971 0.54078 0.87284 0.0
Gd366 Gd 0.49338 0.49434 0.98195 0.0
Gd367 Gd 0.51133 0.48554 0.03844 0.0
C368 C 0.60356 0.50641 0.05813 0.0
C369 C 0.59572 0.4595 0.0639 0.0
C370 C 0.55479 0.46478 0.05311 0.0
C371 C 0.57343 0.49389 0.05264 0.0
C372 C 0.56556 0.44737 0.05938 0.0
C373 C 0.6147 0.48897 0.06323 0.0
C374 C 0.62144 0.53616 0.05891 0.0
C375 C 0.609 0.5527 0.05504 0.0
N376 N 0.56188 0.51016 0.0479 0.0
C377 C 0.57898 0.53933 0.0498 0.0
H378 H 0.56986 0.5525 0.04676 0.0
C379 C 0.50596 0.4262 0.05261 0.0
N380 N 0.52574 0.45383 0.04898 0.0
C381 C 0.5156 0.40802 0.05863 0.0
C382 C 0.54557 0.41853 0.0617 0.0
H383 H 0.48278 0.41806 0.05014 0.0
H384 H 0.63782 0.49817 0.06729 0.0
H385 H 0.43182 0.42957 0.97693 0.0
H386 H 0.6447 0.54659 0.06298 0.0
H387 H 0.62254 0.57577 0.05599 0.0
H388 H 0.60448 0.44643 0.06853 0.0
H389 H 0.52497 0.5594 0.96473 0.0
H390 H 0.35947 0.44068 0.96342 0.0
H391 H 0.3789 0.40917 0.97034 0.0
H392 H 0.40559 0.54002 0.95204 0.0
H393 H 0.49993 0.38593 0.06089 0.0
H394 H 0.55297 0.40445 0.06648 0.0
H395 H 0.36962 0.48979 0.95699 0.0
H396 H 0.5106 0.59283 0.95222 0.0
N397 N 0.44252 0.47256 0.9746 0.0
C398 C 0.3828 0.44983 0.9664 0.0
C399 C 0.39369 0.43196 0.97021 0.0
C400 C 0.40228 0.47911 0.9656 0.0
C401 C 0.43242 0.48992 0.9697 0.0
C402 C 0.42381 0.44367 0.97393 0.0
N403 N 0.48134 0.52712 0.96992 0.0
C404 C 0.45252 0.51817 0.96723 0.0
C405 C 0.49404 0.57198 0.95657 0.0
C406 C 0.4645 0.56386 0.95528 0.0
C407 C 0.50211 0.55305 0.96365 0.0
C408 C 0.44325 0.53642 0.96016 0.0
H409 H 0.4583 0.57851 0.94973 0.0
O410 O 0.5214 0.50586 0.9542 0.0
O411 O 0.52659 0.49672 1.00518 0.0
O412 O 0.5192 0.5303 0.03587 0.0
O413 O 0.49634 0.53144 1.00339 0.0
O414 O 0.54147 0.52838 0.98416 0.0
O415 O 0.48165 0.46471 0.95245 0.0
O416 O 0.48296 0.46881 0.06551 0.0
O417 O 0.47823 0.48406 0.01555 0.0
O418 O 0.48318 0.44901 0.9862 0.0
O419 O 0.513 0.45212 0.01557 0.0
O420 O 0.46346 0.45111 0.03528 0.0
O421 O 0.519 0.5127 0.06869 0.0
C422 C 0.54919 0.51849 0.99962 0.0
C423 C 0.41318 0.52624 0.9572 0.0
C424 C 0.39271 0.49763 0.95999 0.0
C425 C 0.50393 0.48247 0.94188 0.0
C426 C 0.49774 0.4862 0.91929 0.0
C427 C 0.48491 0.5026 0.91573 0.0
C428 C 0.50533 0.47405 0.90112 0.0
C429 C 0.5004 0.47869 0.87954 0.0
C430 C 0.48076 0.50795 0.89461 0.0
C431 C 0.48868 0.49639 0.87668 0.0
C432 C 0.5095 0.54262 0.0231 0.0
C433 C 0.45549 0.46231 0.02101 0.0
C434 C 0.49776 0.49231 0.07846 0.0
C435 C 0.50441 0.4887 0.10084 0.0
C436 C 0.5246 0.48005 0.10475 0.0
C437 C 0.48966 0.49302 0.11841 0.0
C438 C 0.49474 0.48835 0.13987 0.0
C439 C 0.52958 0.47512 0.12585 0.0
C440 C 0.51466 0.479 0.14327 0.0
C441 C 0.4967 0.43876 0.99736 0.0
H442 H 0.47822 0.51149 0.92922 0.0
H443 H 0.51465 0.46083 0.90382 0.0
H444 H 0.4714 0.52117 0.89213 0.0
H445 H 0.48564 0.50147 0.86052 0.0
H446 H 0.53634 0.4769 0.09152 0.0
H447 H 0.4745 0.50026 0.11532 0.0
H448 H 0.54495 0.4681 0.1287 0.0
H449 H 0.5186 0.47443 0.15938 0.0
Gd450 Gd 0.17485 0.34529 0.38086 0.0
Gd451 Gd 0.15258 0.30993 0.32374 0.0
C452 C 0.06457 0.22816 0.30708 0.0
C453 C 0.07903 0.19264 0.29986 0.0
C454 C 0.11587 0.24265 0.3091 0.0
C455 C 0.09424 0.24953 0.31118 0.0
C456 C 0.10861 0.21426 0.30291 0.0
C457 C 0.05704 0.19958 0.30195 0.0
C458 C 0.04345 0.23627 0.30769 0.0
C459 C 0.05225 0.26517 0.31156 0.0
N460 N 0.10232 0.27736 0.3161 0.0
C461 C 0.08196 0.28557 0.31551 0.0
H462 H 0.08835 0.30776 0.31864 0.0
C463 C 0.16641 0.25905 0.30728 0.0
N464 N 0.14418 0.26409 0.312 0.0
C465 C 0.16033 0.23119 0.30129 0.0
C466 C 0.1313 0.20862 0.29939 0.0
H467 H 0.18887 0.27646 0.30895 0.0
H468 H 0.03435 0.18281 0.29902 0.0
H469 H 0.24021 0.34933 0.38027 0.0
H470 H 0.02042 0.22051 0.3047 0.0
H471 H 0.03616 0.27176 0.31166 0.0
H472 H 0.07297 0.17062 0.29533 0.0
H473 H 0.13852 0.37693 0.40014 0.0
H474 H 0.3073 0.43671 0.39509 0.0
H475 H 0.29238 0.38606 0.38527 0.0
H476 H 0.25348 0.48385 0.41303 0.0
H477 H 0.17801 0.22714 0.29817 0.0
H478 H 0.12664 0.18707 0.29466 0.0
H479 H 0.29257 0.47315 0.40526 0.0
H480 H 0.14881 0.4253 0.41356 0.0
N481 N 0.22532 0.37876 0.38658 0.0
C482 C 0.28427 0.42063 0.39288 0.0
C483 C 0.27593 0.39207 0.3874 0.0
C484 C 0.26275 0.42797 0.39607 0.0
C485 C 0.2331 0.40621 0.39289 0.0
C486 C 0.24621 0.37125 0.38459 0.0
N487 N 0.18312 0.3904 0.39495 0.0
C488 C 0.21125 0.41225 0.39721 0.0
C489 C 0.16658 0.42196 0.40893 0.0
C490 C 0.19538 0.44493 0.41046 0.0
C491 C 0.16084 0.3946 0.4014 0.0
C492 C 0.21821 0.44018 0.40489 0.0
H493 H 0.1998 0.46609 0.41641 0.0
O494 O 0.15173 0.33376 0.41104 0.0
O495 O 0.1406 0.31044 0.35829 0.0
O496 O 0.13834 0.34285 0.33089 0.0
O497 O 0.16769 0.37423 0.36097 0.0
O498 O 0.12621 0.328 0.3827 0.0
O499 O 0.18925 0.32877 0.40616 0.0
O500 O 0.17743 0.31946 0.29435 0.0
O501 O 0.18602 0.3458 0.34606 0.0
O502 O 0.18966 0.31325 0.37219 0.0
O503 O 0.15572 0.28003 0.34535 0.0
O504 O 0.20177 0.32873 0.32273 0.0
O505 O 0.13946 0.32438 0.29616 0.0
C506 C 0.11806 0.30894 0.36621 0.0
C507 C 0.24766 0.4622 0.4073 0.0
C508 C 0.26991 0.4561 0.40288 0.0
C509 C 0.1696 0.32708 0.41968 0.0
C510 C 0.18019 0.33877 0.4425 0.0
C511 C 0.19744 0.36841 0.44782 0.0
C512 C 0.17356 0.32021 0.45907 0.0
C513 C 0.18471 0.33128 0.48077 0.0
C514 C 0.20819 0.37946 0.46936 0.0
C515 C 0.20204 0.36106 0.48572 0.0
C516 C 0.14982 0.3675 0.34353 0.0
C517 C 0.20926 0.34898 0.33825 0.0
C518 C 0.16003 0.32535 0.28393 0.0
C519 C 0.15121 0.31242 0.26114 0.0
C520 C 0.13335 0.28269 0.25661 0.0
C521 C 0.16083 0.32989 0.24368 0.0
C522 C 0.15224 0.31765 0.22187 0.0
C523 C 0.12501 0.27051 0.23496 0.0
C524 C 0.13426 0.28787 0.21767 0.0
C525 C 0.17547 0.28734 0.3615 0.0
H526 H 0.20272 0.38298 0.43533 0.0
H527 H 0.1603 0.29727 0.45501 0.0
H528 H 0.22146 0.40237 0.47336 0.0
H529 H 0.21065 0.3701 0.50233 0.0
H530 H 0.12581 0.26893 0.26977 0.0
H531 H 0.17452 0.3529 0.24705 0.0
H532 H 0.11118 0.24756 0.23158 0.0
H533 H 0.12728 0.2781 0.20098 0.0
Gd534 Gd 0.64851 0.81588 0.37999 0.0
Gd535 Gd 0.67757 0.81851 0.32455 0.0
C536 C 0.74988 0.79855 0.31022 0.0
C537 C 0.79139 0.84559 0.30534 0.0
C538 C 0.7439 0.83986 0.31307 0.0
C539 C 0.73228 0.81083 0.31408 0.0
C540 C 0.7734 0.85747 0.30819 0.0
C541 C 0.77965 0.81618 0.30637 0.0
C542 C 0.7368 0.76882 0.30967 0.0
C543 C 0.70673 0.75208 0.31215 0.0
N544 N 0.70336 0.79439 0.31757 0.0
C545 C 0.69018 0.76528 0.31583 0.0
H546 H 0.66701 0.75214 0.31788 0.0
C547 C 0.73525 0.87826 0.31202 0.0
N548 N 0.72584 0.85056 0.31566 0.0
C549 C 0.76441 0.89664 0.30733 0.0
C550 C 0.78368 0.8863 0.30567 0.0
H551 H 0.72042 0.88633 0.31341 0.0
H552 H 0.79359 0.80717 0.3036 0.0
H553 H 0.65933 0.88257 0.38208 0.0
H554 H 0.74957 0.75854 0.30682 0.0
H555 H 0.69629 0.72903 0.31135 0.0
H556 H 0.8142 0.85882 0.30177 0.0
H557 H 0.60712 0.75083 0.39669 0.0
H558 H 0.57904 0.87889 0.39699 0.0
H559 H 0.63116 0.90665 0.38829 0.0
H560 H 0.5159 0.78123 0.41118 0.0
H561 H 0.772 0.91875 0.30498 0.0
H562 H 0.80621 0.90055 0.30192 0.0
H563 H 0.536 0.83187 0.4053 0.0
H564 H 0.55731 0.72069 0.40936 0.0
N565 N 0.6235 0.84106 0.38653 0.0
C566 C 0.59133 0.8681 0.39424 0.0
C567 C 0.62075 0.88385 0.3894 0.0
C568 C 0.57839 0.83879 0.39616 0.0
C569 C 0.59535 0.82579 0.39229 0.0
C570 C 0.63669 0.87001 0.38589 0.0
N571 N 0.60164 0.78627 0.39273 0.0
C572 C 0.58403 0.79741 0.3955 0.0
C573 C 0.56449 0.7422 0.40542 0.0
C574 C 0.54564 0.75298 0.40743 0.0
C575 C 0.59271 0.75935 0.39827 0.0
C576 C 0.55545 0.78106 0.40277 0.0
H577 H 0.52383 0.7397 0.41308 0.0
O578 O 0.66219 0.8047 0.40907 0.0
O579 O 0.67785 0.80803 0.35865 0.0
O580 O 0.63797 0.77456 0.32936 0.0
O581 O 0.61196 0.78065 0.35821 0.0
O582 O 0.65626 0.77887 0.38117 0.0
O583 O 0.67246 0.8483 0.40701 0.0
O584 O 0.66729 0.83243 0.29544 0.0
O585 O 0.64657 0.82392 0.34545 0.0
O586 O 0.68642 0.85934 0.3732 0.0
O587 O 0.71431 0.85021 0.34841 0.0
O588 O 0.66687 0.85391 0.32352 0.0
O589 O 0.65844 0.78894 0.29512 0.0
C590 C 0.67469 0.78568 0.36589 0.0
C591 C 0.538 0.7935 0.40577 0.0
C592 C 0.54944 0.82233 0.40243 0.0
C593 C 0.67352 0.83028 0.41914 0.0
C594 C 0.66616 0.83169 0.44202 0.0
C595 C 0.63779 0.82458 0.44755 0.0
C596 C 0.68771 0.83918 0.45857 0.0
C597 C 0.68099 0.83924 0.48072 0.0
C598 C 0.63099 0.82473 0.46957 0.0
C599 C 0.6524 0.8319 0.4861 0.0
C600 C 0.61405 0.76564 0.3409 0.0
C601 C 0.64745 0.8452 0.33813 0.0
C602 C 0.65867 0.80823 0.28369 0.0
C603 C 0.67053 0.81071 0.26179 0.0
C604 C 0.69967 0.81802 0.25929 0.0
C605 C 0.65305 0.80754 0.24333 0.0
C606 C 0.66474 0.81228 0.22237 0.0
C607 C 0.71148 0.82277 0.23869 0.0
C608 C 0.69432 0.82022 0.2204 0.0
C609 C 0.71185 0.86595 0.3649 0.0
H610 H 0.62094 0.81875 0.43492 0.0
H611 H 0.70954 0.84434 0.45418 0.0
H612 H 0.60906 0.81918 0.47382 0.0
H613 H 0.64672 0.83198 0.50309 0.0
H614 H 0.7134 0.82045 0.27326 0.0
H615 H 0.63039 0.80138 0.24541 0.0
H616 H 0.73414 0.82881 0.23693 0.0
H617 H 0.70447 0.82488 0.20477 0.0
Gd618 Gd 0.15699 0.82415 0.3189 0.0
Gd619 Gd 0.17832 0.82621 0.3768 0.0
C620 C 0.2729 0.85312 0.39462 0.0
C621 C 0.26779 0.80886 0.4052 0.0
C622 C 0.22484 0.81055 0.39394 0.0
C623 C 0.24235 0.83905 0.3904 0.0
C624 C 0.23726 0.79531 0.40189 0.0
C625 C 0.28558 0.8377 0.40154 0.0
C626 C 0.28968 0.88242 0.39232 0.0
C627 C 0.27581 0.89715 0.38677 0.0
N628 N 0.22934 0.85339 0.38398 0.0
C629 C 0.24541 0.88231 0.38295 0.0
H630 H 0.23508 0.89399 0.37855 0.0
C631 C 0.17699 0.77135 0.39677 0.0
N632 N 0.19545 0.79819 0.39075 0.0
C633 C 0.18828 0.75529 0.40458 0.0
C634 C 0.21856 0.76719 0.40688 0.0
H635 H 0.15357 0.76209 0.39483 0.0
H636 H 0.30903 0.84807 0.40464 0.0
H637 H 0.09954 0.75458 0.31823 0.0
H638 H 0.31322 0.89399 0.3953 0.0
H639 H 0.28852 0.91992 0.38535 0.0
H640 H 0.27779 0.79743 0.4111 0.0
H641 H 0.17858 0.88525 0.2955 0.0
H642 H 0.02077 0.75504 0.307 0.0
H643 H 0.04635 0.72919 0.31445 0.0
H644 H 0.0536 0.85003 0.2893 0.0
H645 H 0.17363 0.73377 0.40879 0.0
H646 H 0.22725 0.75475 0.41302 0.0
H647 H 0.02369 0.80032 0.29817 0.0
H648 H 0.15648 0.91184 0.28202 0.0
N649 N 0.10537 0.79565 0.31377 0.0
C650 C 0.04446 0.76659 0.30864 0.0
C651 C 0.05882 0.75191 0.31279 0.0
C652 C 0.06086 0.7957 0.30573 0.0
C653 C 0.09171 0.80981 0.30812 0.0
C654 C 0.08938 0.76669 0.31501 0.0
N655 N 0.13815 0.85056 0.30432 0.0
C656 C 0.10856 0.83803 0.30332 0.0
C657 C 0.14276 0.89121 0.28811 0.0
C658 C 0.11257 0.87968 0.28861 0.0
C659 C 0.15518 0.876 0.29559 0.0
C660 C 0.09499 0.85252 0.29577 0.0
H661 H 0.10296 0.89146 0.2827 0.0
O662 O 0.1833 0.81242 0.29801 0.0
O663 O 0.1926 0.83312 0.34269 0.0
O664 O 0.18268 0.86868 0.37079 0.0
O665 O 0.16447 0.86597 0.33517 0.0
O666 O 0.20307 0.86217 0.31981 0.0
O667 O 0.14826 0.81525 0.28351 0.0
O668 O 0.1536 0.81291 0.40611 0.0
O669 O 0.14316 0.81948 0.35324 0.0
O670 O 0.14872 0.78083 0.32746 0.0
O671 O 0.18124 0.79125 0.35716 0.0
O672 O 0.13085 0.79076 0.3764 0.0
O673 O 0.18641 0.85756 0.40419 0.0
C674 C 0.2135 0.85516 0.33568 0.0
C675 C 0.06436 0.83906 0.29472 0.0
C676 C 0.04733 0.81074 0.29974 0.0
C677 C 0.17056 0.81213 0.27982 0.0
C678 C 0.18977 0.82876 0.26269 0.0
C679 C 0.20741 0.85866 0.26633 0.0
C680 C 0.18972 0.81501 0.24218 0.0
C681 C 0.20664 0.83126 0.22544 0.0
C682 C 0.22426 0.87469 0.2498 0.0
C683 C 0.22375 0.86113 0.2294 0.0
C684 C 0.17521 0.87925 0.35492 0.0
C685 C 0.12136 0.79867 0.36062 0.0
C686 C 0.16794 0.83845 0.41649 0.0
C687 C 0.17827 0.8402 0.43916 0.0
C688 C 0.20503 0.84189 0.44358 0.0
C689 C 0.16106 0.84007 0.45661 0.0
C690 C 0.17052 0.84169 0.47847 0.0
C691 C 0.21445 0.84326 0.46515 0.0
C692 C 0.19737 0.84314 0.4825 0.0
C693 C 0.16436 0.77429 0.34013 0.0
H694 H 0.20814 0.86984 0.2818 0.0
H695 H 0.17621 0.79195 0.23911 0.0
H696 H 0.23764 0.89773 0.2528 0.0
H697 H 0.23693 0.87393 0.21671 0.0
H698 H 0.21867 0.84223 0.43041 0.0
H699 H 0.14056 0.83916 0.45315 0.0
H700 H 0.23508 0.84441 0.46843 0.0
H701 H 0.20507 0.84392 0.49907 0.0
Gd702 Gd 0.83988 0.66728 0.71309 0.0
Gd703 Gd 0.81696 0.63978 0.65502 0.0
C704 C 0.71733 0.5942 0.64131 0.0
C705 C 0.7017 0.54511 0.6472 0.0
C706 C 0.75348 0.58171 0.65038 0.0
C707 C 0.74672 0.60211 0.64596 0.0
C708 C 0.73107 0.55274 0.65032 0.0
C709 C 0.69483 0.56584 0.64272 0.0
C710 C 0.71152 0.61475 0.63452 0.0
C711 C 0.7348 0.64171 0.63101 0.0
N712 N 0.76901 0.62927 0.6446 0.0
C713 C 0.7635 0.64829 0.63545 0.0
H714 H 0.78123 0.66875 0.63149 0.0
C715 C 0.78963 0.56924 0.65327 0.0
N716 N 0.78209 0.58985 0.65333 0.0
C717 C 0.76831 0.54041 0.6537 0.0
C718 C 0.73885 0.53217 0.65276 0.0
H719 H 0.81195 0.57436 0.65218 0.0
H720 H 0.67215 0.55952 0.63961 0.0
H721 H 0.8941 0.65345 0.70833 0.0
H722 H 0.68929 0.60957 0.63087 0.0
H723 H 0.73069 0.65733 0.62458 0.0
H724 H 0.68423 0.52311 0.64757 0.0
H725 H 0.81978 0.71136 0.73779 0.0
H726 H 0.97545 0.73162 0.72341 0.0
H727 H 0.94802 0.67944 0.71273 0.0
H728 H 0.94568 0.79921 0.74513 0.0
H729 H 0.77468 0.52449 0.65426 0.0
H730 H 0.72233 0.50977 0.65288 0.0
H731 H 0.9744 0.77651 0.73465 0.0
H732 H 0.84288 0.76213 0.75273 0.0
N733 N 0.89107 0.69049 0.71628 0.0
C734 C 0.95178 0.72029 0.72157 0.0
C735 C 0.93637 0.69082 0.71558 0.0
C736 C 0.9364 0.73462 0.72569 0.0
C737 C 0.9056 0.71882 0.72319 0.0
C738 C 0.90581 0.67615 0.71303 0.0
N739 N 0.85992 0.71504 0.72808 0.0
C740 C 0.8895 0.73159 0.72903 0.0
C741 C 0.85623 0.75389 0.74596 0.0
C742 C 0.88655 0.77177 0.74562 0.0
C743 C 0.84326 0.72522 0.73756 0.0
C744 C 0.90366 0.76052 0.73761 0.0
H745 H 0.8966 0.79391 0.75232 0.0
O746 O 0.81734 0.66033 0.74367 0.0
O747 O 0.8043 0.63486 0.68953 0.0
O748 O 0.80942 0.67732 0.66412 0.0
O749 O 0.83618 0.70088 0.69721 0.0
O750 O 0.79307 0.65684 0.71303 0.0
O751 O 0.85109 0.64962 0.73938 0.0
O752 O 0.83567 0.62267 0.63096 0.0
O753 O 0.85504 0.66604 0.67914 0.0
O754 O 0.83722 0.62503 0.70638 0.0
O755 O 0.84178 0.62005 0.66881 0.0
O756 O 0.85374 0.68341 0.65008 0.0
O757 O 0.81927 0.64985 0.62099 0.0
C758 C 0.78325 0.6369 0.69699 0.0
C759 C 0.93438 0.77685 0.73885 0.0
C760 C 0.95073 0.76391 0.73292 0.0
C761 C 0.83285 0.65123 0.75276 0.0
C762 C 0.8442 0.66291 0.77544 0.0
C763 C 0.86745 0.69107 0.78009 0.0
C764 C 0.83223 0.64531 0.79261 0.0
C765 C 0.84366 0.65567 0.81434 0.0
C766 C 0.87863 0.70159 0.80161 0.0
C767 C 0.86693 0.68403 0.81864 0.0
C768 C 0.8208 0.69922 0.67964 0.0
C769 C 0.86866 0.68722 0.66789 0.0
C770 C 0.83193 0.63539 0.61524 0.0
C771 C 0.8405 0.63278 0.59254 0.0
C772 C 0.8492 0.61284 0.58668 0.0
C773 C 0.84163 0.65103 0.57697 0.0
C774 C 0.85201 0.64971 0.55594 0.0
C775 C 0.85903 0.61118 0.56581 0.0
C776 C 0.86056 0.6295 0.55058 0.0
C777 C 0.84163 0.61239 0.68881 0.0
H778 H 0.87712 0.70483 0.76713 0.0
H779 H 0.81448 0.62342 0.78898 0.0
H780 H 0.89653 0.72338 0.8051 0.0
H781 H 0.87591 0.69271 0.83523 0.0
H782 H 0.84861 0.59861 0.59828 0.0
H783 H 0.83533 0.66676 0.58139 0.0
H784 H 0.86567 0.59572 0.56145 0.0
H785 H 0.8682 0.62766 0.53447 0.0
Gd786 Gd 0.31759 0.15079 0.71589 0.0
Gd787 Gd 0.35199 0.16591 0.66191 0.0
C788 C 0.422 0.14335 0.64459 0.0
C789 C 0.46532 0.19032 0.64343 0.0
C790 C 0.41846 0.18582 0.65173 0.0
C791 C 0.40535 0.15637 0.64991 0.0
C792 C 0.44843 0.20311 0.64792 0.0
C793 C 0.45214 0.16049 0.64183 0.0
C794 C 0.40776 0.11349 0.64175 0.0
C795 C 0.37754 0.09741 0.64349 0.0
N796 N 0.37611 0.14043 0.6525 0.0
C797 C 0.36192 0.11126 0.64862 0.0
H798 H 0.33863 0.09823 0.64989 0.0
C799 C 0.4125 0.22608 0.65459 0.0
N800 N 0.40148 0.1975 0.65581 0.0
C801 C 0.44214 0.24414 0.65108 0.0
C802 C 0.46029 0.23266 0.64801 0.0
H803 H 0.39842 0.23494 0.65698 0.0
H804 H 0.4653 0.15086 0.63792 0.0
H805 H 0.31917 0.21345 0.72305 0.0
H806 H 0.41979 0.10268 0.63776 0.0
H807 H 0.36622 0.07429 0.64096 0.0
H808 H 0.48844 0.20325 0.64065 0.0
H809 H 0.28111 0.08169 0.72605 0.0
H810 H 0.23244 0.19607 0.73399 0.0
H811 H 0.28477 0.23057 0.72949 0.0
H812 H 0.17811 0.09482 0.7385 0.0
H813 H 0.45095 0.26687 0.65068 0.0
H814 H 0.48321 0.24666 0.64513 0.0
H815 H 0.19274 0.14532 0.73719 0.0
H816 H 0.23092 0.0448 0.7339 0.0
N817 N 0.28662 0.16938 0.72296 0.0
C818 C 0.24746 0.18836 0.73105 0.0
C819 C 0.27698 0.2079 0.72858 0.0
C820 C 0.23786 0.15919 0.73043 0.0
C821 C 0.25828 0.15025 0.72644 0.0
C822 C 0.29645 0.19804 0.72489 0.0
N823 N 0.2706 0.11431 0.72413 0.0
C824 C 0.25002 0.12185 0.72709 0.0
C825 C 0.23593 0.06633 0.73186 0.0
C826 C 0.21416 0.07343 0.73387 0.0
C827 C 0.26431 0.08724 0.72733 0.0
C828 C 0.22115 0.10156 0.73185 0.0
H829 H 0.19224 0.05723 0.73753 0.0
O830 O 0.33795 0.14133 0.74215 0.0
O831 O 0.35143 0.15116 0.69453 0.0
O832 O 0.31274 0.12083 0.66094 0.0
O833 O 0.28478 0.11573 0.69182 0.0
O834 O 0.33014 0.11677 0.71296 0.0
O835 O 0.32771 0.17461 0.74828 0.0
O836 O 0.34925 0.18716 0.63431 0.0
O837 O 0.31772 0.1651 0.68286 0.0
O838 O 0.35288 0.19728 0.71432 0.0
O839 O 0.38484 0.19679 0.68851 0.0
O840 O 0.3388 0.19956 0.66475 0.0
O841 O 0.33105 0.1412 0.63089 0.0
C842 C 0.35025 0.12847 0.69907 0.0
C843 C 0.20045 0.11013 0.735 0.0
C844 C 0.20878 0.13889 0.73426 0.0
C845 C 0.33768 0.15986 0.7567 0.0
C846 C 0.32735 0.14946 0.77824 0.0
C847 C 0.29878 0.12674 0.78005 0.0
C848 C 0.3467 0.16104 0.79691 0.0
C849 C 0.33761 0.14965 0.81727 0.0
C850 C 0.28984 0.11495 0.79992 0.0
C851 C 0.30909 0.12609 0.81834 0.0
C852 C 0.28907 0.10675 0.67225 0.0
C853 C 0.31771 0.18701 0.67772 0.0
C854 C 0.33692 0.16371 0.62101 0.0
C855 C 0.34919 0.16544 0.59929 0.0
C856 C 0.37923 0.1761 0.59738 0.0
C857 C 0.33062 0.15579 0.58026 0.0
C858 C 0.342 0.15647 0.55941 0.0
C859 C 0.39065 0.17704 0.57678 0.0
C860 C 0.37221 0.16725 0.5579 0.0
C861 C 0.37907 0.20855 0.70607 0.0
H862 H 0.28346 0.11787 0.76611 0.0
H863 H 0.36864 0.17895 0.79556 0.0
H864 H 0.26791 0.097 0.80103 0.0
H865 H 0.3016 0.1161 0.83344 0.0
H866 H 0.39387 0.1837 0.61176 0.0
H867 H 0.30734 0.14727 0.5817 0.0
H868 H 0.41387 0.18533 0.57543 0.0
H869 H 0.38162 0.16829 0.54206 0.0
Gd870 Gd 0.82283 0.15591 0.6557 0.0
Gd871 Gd 0.84894 0.16124 0.71266 0.0
C872 C 0.94244 0.18149 0.72497 0.0
C873 C 0.93505 0.13542 0.73281 0.0
C874 C 0.8931 0.14063 0.72511 0.0
C875 C 0.91183 0.16943 0.7223 0.0
C876 C 0.90464 0.12375 0.7313 0.0
C877 C 0.95389 0.16416 0.72955 0.0
C878 C 0.96073 0.21084 0.72359 0.0
C879 C 0.94845 0.22772 0.7207 0.0
N880 N 0.90027 0.18601 0.71819 0.0
C881 C 0.91806 0.21499 0.71842 0.0
H882 H 0.90929 0.22865 0.71671 0.0
C883 C 0.84488 0.1034 0.73072 0.0
N884 N 0.86366 0.12973 0.72368 0.0
C885 C 0.8554 0.08601 0.7369 0.0
C886 C 0.88534 0.096 0.73676 0.0
H887 H 0.8216 0.09534 0.73049 0.0
H888 H 0.97732 0.17305 0.73137 0.0
H889 H 0.76289 0.08867 0.65101 0.0
H890 H 0.98431 0.22082 0.72543 0.0
H891 H 0.96238 0.25059 0.72029 0.0
H892 H 0.94425 0.12262 0.7372 0.0
H893 H 0.84931 0.22077 0.63633 0.0
H894 H 0.68733 0.09617 0.64375 0.0
H895 H 0.70968 0.0664 0.64728 0.0
H896 H 0.72697 0.19478 0.63322 0.0
H897 H 0.84039 0.06488 0.74167 0.0
H898 H 0.89342 0.08248 0.74162 0.0
H899 H 0.69402 0.14432 0.6392 0.0
H900 H 0.83058 0.25155 0.62603 0.0
N901 N 0.77143 0.13138 0.65062 0.0
C902 C 0.71093 0.10624 0.64544 0.0
C903 C 0.72346 0.08937 0.6474 0.0
C904 C 0.72903 0.13573 0.64459 0.0
C905 C 0.75966 0.1478 0.64683 0.0
C906 C 0.7539 0.10229 0.64973 0.0
N907 N 0.80757 0.18675 0.64397 0.0
C908 C 0.77824 0.17629 0.64341 0.0
C909 C 0.81564 0.23049 0.63097 0.0
C910 C 0.78585 0.22092 0.63202 0.0
C911 C 0.82613 0.21283 0.63655 0.0
C912 C 0.76664 0.19331 0.63778 0.0
H913 H 0.77778 0.23464 0.62764 0.0
O914 O 0.81083 0.14494 0.62066 0.0
O915 O 0.86017 0.16563 0.67796 0.0
O916 O 0.86055 0.20537 0.70451 0.0
O917 O 0.82801 0.19581 0.67488 0.0
O918 O 0.86954 0.19268 0.65391 0.0
O919 O 0.84668 0.14234 0.63359 0.0
O920 O 0.82313 0.14213 0.74055 0.0
O921 O 0.80897 0.14199 0.68908 0.0
O922 O 0.81125 0.11191 0.66435 0.0
O923 O 0.84446 0.122 0.69323 0.0
O924 O 0.80884 0.16445 0.71788 0.0
O925 O 0.86052 0.1859 0.74436 0.0
C926 C 0.88078 0.18652 0.66972 0.0
C927 C 0.73624 0.18188 0.63717 0.0
C928 C 0.71747 0.15315 0.64058 0.0
C929 C 0.83247 0.14113 0.61592 0.0
C930 C 0.85041 0.15666 0.5978 0.0
C931 C 0.8681 0.18659 0.6006 0.0
C932 C 0.84964 0.14199 0.57745 0.0
C933 C 0.8662 0.15745 0.5602 0.0
C934 C 0.88489 0.20176 0.58374 0.0
C935 C 0.8839 0.18735 0.56365 0.0
C936 C 0.84663 0.213 0.69115 0.0
C937 C 0.794 0.14988 0.70034 0.0
C938 C 0.83948 0.16495 0.75405 0.0
C939 C 0.84696 0.16046 0.77596 0.0
C940 C 0.86754 0.15198 0.7788 0.0
C941 C 0.83434 0.16608 0.79448 0.0
C942 C 0.84252 0.1635 0.81568 0.0
C943 C 0.87493 0.14841 0.79966 0.0
C944 C 0.86257 0.15414 0.818 0.0
C945 C 0.82701 0.10505 0.67643 0.0
H946 H 0.8689 0.19847 0.61571 0.0
H947 H 0.8358 0.11892 0.57489 0.0
H948 H 0.89845 0.22483 0.58619 0.0
H949 H 0.89686 0.1996 0.55065 0.0
H950 H 0.8783 0.14853 0.76507 0.0
H951 H 0.81908 0.17349 0.79245 0.0
H952 H 0.8907 0.14167 0.80166 0.0
H953 H 0.86898 0.15161 0.83408 0.0
H954 H 0.34908 0.83633 0.03643 0.0
H955 H 0.29376 0.87303 0.04183 0.0
H956 H 0.335 0.91961 0.03466 0.0
H957 H 0.38784 0.95082 0.02971 0.0
H958 H 0.44262 0.91368 0.02388 0.0
H959 H 0.4007 0.86651 0.02806 0.0
C960 C 0.346 0.85448 0.03589 0.0
C961 C 0.31847 0.85128 0.03995 0.0
C962 C 0.36978 0.88118 0.03166 0.0
C963 C 0.31475 0.87492 0.03887 0.0
C964 C 0.33835 0.9016 0.03482 0.0
C965 C 0.39039 0.93226 0.02904 0.0
C966 C 0.41822 0.93571 0.02623 0.0
C967 C 0.36609 0.90511 0.03161 0.0
C968 C 0.42141 0.91161 0.02565 0.0
C969 C 0.39742 0.88459 0.0282 0.0
H970 H 0.09255 0.40361 0.03112 0.0
H971 H 0.16677 0.48787 0.04924 0.0
H972 H 0.13695 0.50913 0.04235 0.0
H973 H 0.0879 0.50305 0.0366 0.0
H974 H 0.01362 0.41869 0.02029 0.0
H975 H 0.0452 0.39813 0.021 0.0
C976 C 0.1024 0.42667 0.03324 0.0
C977 C 0.13176 0.44403 0.04109 0.0
C978 C 0.08497 0.43871 0.02971 0.0
C979 C 0.14414 0.47391 0.0435 0.0
C980 C 0.12707 0.48611 0.03962 0.0
C981 C 0.07897 0.48031 0.03243 0.0
C982 C 0.04875 0.46238 0.02767 0.0
C983 C 0.09721 0.46864 0.03347 0.0
C984 C 0.03702 0.43286 0.0232 0.0
C985 C 0.05501 0.42112 0.02391 0.0
H986 H 0.52631 0.65501 0.07519 0.0
H987 H 0.52881 0.67879 0.00931 0.0
H988 H 0.52035 0.63208 0.99441 0.0
H989 H 0.51468 0.58567 1.00033 0.0
H990 H 0.5128 0.56214 0.06602 0.0
H991 H 0.51906 0.60794 0.08088 0.0
C992 C 0.52481 0.64996 0.05755 0.0
C993 C 0.52824 0.67041 0.04339 0.0
C994 C 0.52035 0.62328 0.04912 0.0
C995 C 0.52621 0.66345 0.02059 0.0
C996 C 0.52149 0.63679 0.01205 0.0
C997 C 0.51514 0.59028 0.01779 0.0
C998 C 0.51312 0.57038 0.03192 0.0
C999 C 0.51883 0.61668 0.02619 0.0
C1000 C 0.51456 0.57715 0.05471 0.0
C1001 C 0.518 0.60329 0.06324 0.0
H1002 H 0.85564 0.32476 0.9545 0.0
H1003 H 0.8371 0.29769 0.01982 0.0
H1004 H 0.87733 0.34436 0.03511 0.0
H1005 H 0.91937 0.39183 0.02943 0.0
H1006 H 0.93763 0.41802 0.96402 0.0
H1007 H 0.89616 0.37233 0.94912 0.0
C1008 C 0.8602 0.32904 0.97211 0.0
C1009 C 0.84342 0.30772 0.98597 0.0
C1010 C 0.88351 0.35562 0.98072 0.0
C1011 C 0.8497 0.31372 1.00876 0.0
C1012 C 0.87275 0.34036 0.01751 0.0
C1013 C 0.91393 0.38779 0.01206 0.0
C1014 C 0.93148 0.4084 0.99797 0.0
C1015 C 0.89001 0.36136 1.0036 0.0
C1016 C 0.92464 0.4024 0.97526 0.0
C1017 C 0.90084 0.37634 0.96671 0.0
H1018 H 0.6665 0.51698 0.99209 0.0
H1019 H 0.70053 0.60721 0.98869 0.0
H1020 H 0.65247 0.60068 0.99578 0.0
H1021 H 0.59963 0.56862 0.99907 0.0
H1022 H 0.56538 0.47847 1.0019 0.0
H1023 H 0.6145 0.48567 0.99916 0.0
C1024 C 0.66352 0.53529 0.9932 0.0
C1025 C 0.68705 0.56246 0.9895 0.0
C1026 C 0.63567 0.53137 0.99707 0.0
C1027 C 0.6828 0.58599 0.99124 0.0
C1028 C 0.65526 0.58229 0.99523 0.0
C1029 C 0.6031 0.55069 0.99941 0.0
C1030 C 0.57907 0.52317 1.00101 0.0
C1031 C 0.63138 0.55497 0.99754 0.0
C1032 C 0.58362 0.49996 1.00117 0.0
C1033 C 0.6117 0.50404 0.99942 0.0
H1034 H 0.48678 0.1325 0.96094 0.0
H1035 H 0.44939 0.14143 0.02144 0.0
H1036 H 0.44808 0.09901 0.03331 0.0
H1037 H 0.45875 0.06005 0.02675 0.0
H1038 H 0.49439 0.05031 0.96557 0.0
H1039 H 0.4946 0.09198 0.95348 0.0
C1040 C 0.47832 0.12514 0.97671 0.0
C1041 C 0.46847 0.14022 0.99039 0.0
C1042 C 0.47711 0.10046 0.98322 0.0
C1043 C 0.45714 0.13019 0.01063 0.0
C1044 C 0.4564 0.10596 0.01743 0.0
C1045 C 0.46653 0.06707 0.01079 0.0
C1046 C 0.47673 0.05225 0.99716 0.0
C1047 C 0.4665 0.09103 1.0039 0.0
C1048 C 0.48619 0.06121 0.97631 0.0
C1049 C 0.48654 0.08517 0.96945 0.0
H1050 H 0.63155 0.13833 0.99066 0.0
H1051 H 0.6882 0.10309 0.98657 0.0
H1052 H 0.64884 0.05783 0.99788 0.0
H1053 H 0.59668 0.02671 1.0051 0.0
H1054 H 0.54092 0.06284 0.01027 0.0
H1055 H 0.58151 0.10927 1.00271 0.0
C1056 C 0.63534 0.12081 0.99244 0.0
C1057 C 0.66251 0.12381 0.98738 0.0
C1058 C 0.61272 0.09497 0.99911 0.0
C1059 C 0.66735 0.10119 0.9902 0.0
C1060 C 0.64485 0.07528 0.99661 0.0
C1061 C 0.59367 0.04495 1.00494 0.0
C1062 C 0.56587 0.04133 1.0082 0.0
C1063 C 0.61721 0.07169 1.00054 0.0
C1064 C 0.5621 0.06503 1.00793 0.0
C1065 C 0.58531 0.09162 1.00348 0.0
H1066 H 0.90405 0.56689 0.99732 0.0
H1067 H 0.83027 0.48058 0.98908 0.0
H1068 H 0.86251 0.4619 0.99565 0.0
H1069 H 0.91224 0.46987 1.0007 0.0
H1070 H 0.98626 0.55574 1.00659 0.0
H1071 H 0.95353 0.57494 1.00391 0.0
C1072 C 0.89498 0.54401 0.99718 0.0
C1073 C 0.86481 0.52516 0.99258 0.0
C1074 C 0.91376 0.53337 1.00047 0.0
C1075 C 0.85344 0.49556 0.99239 0.0
C1076 C 0.87185 0.48484 0.99615 0.0
C1077 C 0.92099 0.49279 1.00189 0.0
C1078 C 0.95133 0.51151 1.00463 0.0
C1079 C 0.90209 0.50351 0.9998 0.0
C1080 C 0.9628 0.54111 1.00523 0.0
C1081 C 0.94413 0.552 1.00351 0.0
H1082 H 0.46724 0.31889 0.95136 0.0
H1083 H 0.53793 0.33358 0.99556 0.0
H1084 H 0.54274 0.37884 0.01075 0.0
H1085 H 0.52807 0.41497 0.01027 0.0
H1086 H 0.45746 0.39979 0.96566 0.0
H1087 H 0.4518 0.35408 0.95158 0.0
C1088 C 0.48365 0.33186 0.96439 0.0
C1089 C 0.50225 0.32287 0.97225 0.0
C1090 C 0.48648 0.35788 0.97283 0.0
C1091 C 0.52338 0.34003 0.98915 0.0
C1092 C 0.52617 0.36592 0.99781 0.0
C1093 C 0.51116 0.40151 0.99769 0.0
C1094 C 0.49307 0.41078 0.98918 0.0
C1095 C 0.50799 0.37516 0.98962 0.0
C1096 C 0.47171 0.39328 0.97253 0.0
C1097 C 0.4684 0.36707 0.96447 0.0
H1098 H 0.13836 0.66891 0.06939 0.0
H1099 H 0.19798 0.64545 0.04004 0.0
H1100 H 0.15677 0.5982 0.02719 0.0
H1101 H 0.10408 0.563 0.02578 0.0
H1102 H 0.04452 0.58727 0.05392 0.0
H1103 H 0.08567 0.63454 0.0665 0.0
C1104 C 0.1424 0.65355 0.0601 0.0
C1105 C 0.17124 0.66071 0.05574 0.0
C1106 C 0.11868 0.62648 0.05281 0.0
C1107 C 0.17601 0.64052 0.04361 0.0
C1108 C 0.15248 0.61346 0.03633 0.0
C1109 C 0.10004 0.57887 0.03414 0.0
C1110 C 0.07124 0.57182 0.03846 0.0
C1111 C 0.12375 0.60617 0.04098 0.0
C1112 C 0.06647 0.59218 0.05028 0.0
C1113 C 0.08997 0.61925 0.05741 0.0
H1114 H 0.34665 0.47605 0.04077 0.0
H1115 H 0.30627 0.38523 0.04503 0.0
H1116 H 0.35135 0.38699 0.0341 0.0
H1117 H 0.40346 0.41497 0.02598 0.0
H1118 H 0.44338 0.50542 0.02061 0.0
H1119 H 0.39732 0.50315 0.02889 0.0
C1120 C 0.3477 0.45664 0.03919 0.0
C1121 C 0.32328 0.43062 0.04402 0.0
C1122 C 0.37361 0.45773 0.03262 0.0
C1123 C 0.32479 0.40555 0.04151 0.0
C1124 C 0.35058 0.40654 0.0353 0.0
C1125 C 0.40185 0.43405 0.02633 0.0
C1126 C 0.4267 0.46026 0.02261 0.0
C1127 C 0.37528 0.43258 0.03118 0.0
C1128 C 0.42449 0.48491 0.02316 0.0
C1129 C 0.39818 0.48366 0.02807 0.0
H1130 H 0.50574 0.8529 0.08086 0.0
H1131 H 0.5382 0.83736 0.01988 0.0
H1132 H 0.53563 0.87636 1.00488 0.0
H1133 H 0.52347 0.91463 1.0091 0.0
H1134 H 0.49267 0.93059 0.07079 0.0
H1135 H 0.49557 0.89194 0.08555 0.0
C1136 C 0.51229 0.85805 0.06429 0.0
C1137 C 0.52198 0.84216 0.05147 0.0
C1138 C 0.51115 0.88068 0.05592 0.0
C1139 C 0.53069 0.84931 0.03011 0.0
C1140 C 0.52917 0.87156 0.0215 0.0
C1141 C 0.51735 0.90955 0.02572 0.0
C1142 C 0.50785 0.92545 0.03879 0.0
C1143 C 0.51931 0.88733 0.03424 0.0
C1144 C 0.50041 0.91894 0.06045 0.0
C1145 C 0.50187 0.8967 0.06889 0.0
H1146 H 0.98673 0.21625 0.37535 0.0
H1147 H 0.02349 0.16144 0.37277 0.0
H1148 H 0.07116 0.2016 0.36482 0.0
H1149 H 0.10338 0.25331 0.36253 0.0
H1150 H 0.06718 0.30845 0.3678 0.0
H1151 H 0.01818 0.26715 0.37081 0.0
C1152 C 0.00508 0.213 0.37283 0.0
C1153 C 0.00166 0.18599 0.37487 0.0
C1154 C 0.03253 0.23629 0.36889 0.0
C1155 C 0.02566 0.18212 0.37154 0.0
C1156 C 0.05291 0.20505 0.367 0.0
C1157 C 0.08461 0.25609 0.36377 0.0
C1158 C 0.08854 0.28362 0.36448 0.0
C1159 C 0.05675 0.23238 0.36618 0.0
C1160 C 0.06436 0.28726 0.36692 0.0
C1161 C 0.03646 0.26372 0.36872 0.0
H1162 H 0.74441 0.72325 0.37847 0.0
H1163 H 0.81766 0.80965 0.38071 0.0
H1164 H 0.78478 0.82646 0.37049 0.0
H1165 H 0.73431 0.8173 0.36546 0.0
H1166 H 0.66143 0.73119 0.36567 0.0
H1167 H 0.695 0.71355 0.37042 0.0
C1168 C 0.75333 0.74573 0.37647 0.0
C1169 C 0.78345 0.76518 0.38067 0.0
C1170 C 0.73425 0.75533 0.37123 0.0
C1171 C 0.79453 0.79421 0.37783 0.0
C1172 C 0.77572 0.80387 0.37205 0.0
C1173 C 0.72594 0.79462 0.36599 0.0
C1174 C 0.69553 0.77541 0.36487 0.0
C1175 C 0.74541 0.78475 0.36936 0.0
C1176 C 0.6848 0.74621 0.36627 0.0
C1177 C 0.70396 0.73617 0.36905 0.0
H1178 H 0.20166 0.00618 0.36181 0.0
H1179 H 0.17115 0.98486 0.42679 0.0
H1180 H 0.16203 0.93655 0.41806 0.0
H1181 H 0.16493 0.90096 0.39267 0.0
H1182 H 0.19463 0.92164 0.3276 0.0
H1183 H 0.20185 0.96954 0.33561 0.0
C1184 C 0.19276 -0.00911 0.37399 0.0
C1185 C 0.18735 -0.00076 0.39498 0.0
C1186 C 0.18762 0.96308 0.3689 0.0
C1187 C 0.17567 0.97909 0.41053 0.0
C1188 C 0.17052 0.95145 0.4056 0.0
C1189 C 0.173 0.91603 0.3803 0.0
C1190 C 0.17926 0.90794 0.35962 0.0
C1191 C 0.17688 0.94337 0.38499 0.0
C1192 C 0.18932 0.92737 0.34355 0.0
C1193 C 0.1936 0.95478 0.34817 0.0
H1194 H 0.49856 0.6443 0.33031 0.0
H1195 H 0.55365 0.62574 0.28875 0.0
H1196 H 0.59349 0.67507 0.29564 0.0
H1197 H 0.61309 0.72319 0.31377 0.0
H1198 H 0.55839 0.74244 0.35517 0.0
H1199 H 0.51808 0.69321 0.34797 0.0
C1200 C 0.51929 0.65106 0.32279 0.0
C1201 C 0.5231 0.63131 0.30909 0.0
C1202 C 0.54222 0.67959 0.32675 0.0
C1203 C 0.55007 0.64045 0.29939 0.0
C1204 C 0.57292 0.6687 0.30329 0.0
C1205 C 0.59233 0.71674 0.32112 0.0
C1206 C 0.58896 0.73645 0.33518 0.0
C1207 C 0.56926 0.68842 0.31694 0.0
C1208 C 0.5618 0.72762 0.34453 0.0
C1209 C 0.53866 0.69946 0.34038 0.0
H1210 H 0.3324 0.85668 0.32556 0.0
H1211 H 0.36071 0.94249 0.31001 0.0
H1212 H 0.31289 0.93578 0.31834 0.0
H1213 H 0.26169 0.90437 0.32726 0.0
H1214 H 0.23297 0.8183 0.34186 0.0
H1215 H 0.28209 0.82636 0.33703 0.0
C1216 C 0.32823 0.87402 0.32424 0.0
C1217 C 0.35011 0.89994 0.31695 0.0
C1218 C 0.30049 0.86998 0.32888 0.0
C1219 C 0.34429 0.92222 0.31543 0.0
C1220 C 0.31688 0.91842 0.32016 0.0
C1221 C 0.26639 0.88757 0.32965 0.0
C1222 C 0.24389 0.86099 0.33527 0.0
C1223 C 0.29464 0.89221 0.32646 0.0
C1224 C 0.25004 0.83918 0.33802 0.0
C1225 C 0.27812 0.84371 0.33507 0.0
H1226 H 0.10246 0.44442 0.31158 0.0
H1227 H 0.1877 0.51124 0.33764 0.0
H1228 H 0.19836 0.47539 0.34927 0.0
H1229 H 0.18363 0.42508 0.35144 0.0
H1230 H 0.10011 0.35825 0.32236 0.0
H1231 H 0.08852 0.39407 0.31245 0.0
C1232 C 0.12331 0.45108 0.31988 0.0
C1233 C 0.1442 0.48034 0.32391 0.0
C1234 C 0.12958 0.43037 0.32589 0.0
C1235 C 0.17132 0.48878 0.33436 0.0
C1236 C 0.17739 0.46832 0.34103 0.0
C1237 C 0.16285 0.41836 0.34298 0.0
C1238 C 0.14268 0.38907 0.33769 0.0
C1239 C 0.15671 0.43907 0.3368 0.0
C1240 C 0.11601 0.38067 0.32653 0.0
C1241 C 0.10936 0.40113 0.3209 0.0
H1242 H 0.30293 0.47396 0.31917 0.0
H1243 H 0.3545 0.43423 0.30633 0.0
H1244 H 0.31483 0.38911 0.31789 0.0
H1245 H 0.26369 0.36004 0.32883 0.0
H1246 H 0.2137 0.40123 0.3427 0.0
H1247 H 0.25454 0.44667 0.33419 0.0
C1248 C 0.30551 0.45544 0.31907 0.0
C1249 C 0.33126 0.45713 0.31161 0.0
C1250 C 0.28292 0.42987 0.32608 0.0
C1251 C 0.33471 0.43328 0.31193 0.0
C1252 C 0.31204 0.40751 0.31849 0.0
C1253 C 0.26205 0.37913 0.33031 0.0
C1254 C 0.23571 0.37723 0.33657 0.0
C1255 C 0.2858 0.40541 0.3252 0.0
C1256 C 0.23372 0.40204 0.33834 0.0
C1257 C 0.25709 0.42811 0.33323 0.0
H1258 H 0.52844 0.84369 0.3281 0.0
H1259 H 0.5881 0.93321 0.32185 0.0
H1260 H 0.62979 0.92672 0.32782 0.0
H1261 H 0.64938 0.89493 0.33294 0.0
H1262 H 0.58946 0.80594 0.34052 0.0
H1263 H 0.54797 0.81287 0.33616 0.0
C1264 C 0.55057 0.86179 0.32813 0.0
C1265 C 0.55516 0.88881 0.32428 0.0
C1266 C 0.57444 0.85799 0.33185 0.0
C1267 C 0.58396 0.91216 0.32472 0.0
C1268 C 0.60783 0.90845 0.32807 0.0
C1269 C 0.6272 0.87718 0.3338 0.0
C1270 C 0.62252 0.85007 0.33733 0.0
C1271 C 0.60335 0.88138 0.33135 0.0
C1272 C 0.59373 0.82714 0.33828 0.0
C1273 C 0.56992 0.83105 0.33562 0.0
H1274 H 0.18163 0.66803 0.32403 0.0
H1275 H 0.10038 0.63467 0.28605 0.0
H1276 H 0.09969 0.67839 0.29652 0.0
H1277 H 0.12312 0.72691 0.31508 0.0
H1278 H 0.20406 0.76025 0.35342 0.0
H1279 H 0.20382 0.71579 0.3442 0.0
C1280 C 0.16366 0.67024 0.31817 0.0
C1281 C 0.14122 0.64815 0.30415 0.0
C1282 C 0.16339 0.69552 0.32421 0.0
C1283 C 0.11804 0.65134 0.2968 0.0
C1284 C 0.11763 0.67639 0.30272 0.0
C1285 C 0.14067 0.72446 0.32146 0.0
C1286 C 0.16353 0.74691 0.3349 0.0
C1287 C 0.14038 0.69877 0.31617 0.0
C1288 C 0.18602 0.74325 0.34315 0.0
C1289 C 0.18599 0.71784 0.33783 0.0
H1290 H 0.83318 0.96279 0.40922 0.0
H1291 H 0.77876 -0.00372 0.43232 0.0
H1292 H 0.73635 0.95619 0.41202 0.0
H1293 H 0.7145 0.9113 0.38851 0.0
H1294 H 0.76855 0.8782 0.36377 0.0
H1295 H 0.8115 0.91872 0.38366 0.0
C1296 C 0.81198 0.96116 0.40988 0.0
C1297 C 0.80899 0.98224 0.42248 0.0
C1298 C 0.78774 0.93831 0.39778 0.0
C1299 C 0.78157 0.98024 0.42285 0.0
C1300 C 0.75732 0.95735 0.41122 0.0
C1301 C 0.73569 0.91298 0.38739 0.0
C1302 C 0.73833 0.89171 0.37488 0.0
C1303 C 0.76014 0.93625 0.39873 0.0
C1304 C 0.76599 0.89438 0.37329 0.0
C1305 C 0.7905 0.91743 0.38476 0.0
H1306 H 0.01033 0.81078 0.37413 0.0
H1307 H 0.97139 0.72123 0.38314 0.0
H1308 H 0.01749 0.72342 0.37503 0.0
H1309 H 0.06993 0.75158 0.36773 0.0
H1310 H 0.10819 0.84045 0.35691 0.0
H1311 H 0.06144 0.83775 0.36316 0.0
C1312 C 0.01192 0.79173 0.37417 0.0
C1313 C 0.98758 0.76597 0.37948 0.0
C1314 C 0.03841 0.79303 0.36918 0.0
C1315 C 0.98981 0.74134 0.37914 0.0
C1316 C 0.0162 0.74258 0.37458 0.0
C1317 C 0.06781 0.7702 0.36651 0.0
C1318 C 0.0923 0.79606 0.36171 0.0
C1319 C 0.04077 0.76841 0.36993 0.0
C1320 C 0.08951 0.82017 0.36029 0.0
C1321 C 0.06282 0.81868 0.36398 0.0
H1322 H 0.22215 0.21101 0.39573 0.0
H1323 H 0.13365 0.14447 0.37663 0.0
H1324 H 0.12344 0.17972 0.36307 0.0
H1325 H 0.13939 0.22972 0.35764 0.0
H1326 H 0.22666 0.29659 0.37977 0.0
H1327 H 0.23769 0.26101 0.39116 0.0
C1328 C 0.20068 0.20426 0.38853 0.0
C1329 C 0.1787 0.17525 0.38711 0.0
C1330 C 0.19475 0.22472 0.38138 0.0
C1331 C 0.15085 0.16676 0.37798 0.0
C1332 C 0.14504 0.18687 0.37019 0.0
C1333 C 0.16086 0.23644 0.36485 0.0
C1334 C 0.18223 0.26569 0.36782 0.0
C1335 C 0.16677 0.21594 0.37194 0.0
C1336 C 0.20983 0.27419 0.3774 0.0
C1337 C 0.21616 0.25387 0.38389 0.0
H1338 H 0.65037 0.54607 0.70505 0.0
H1339 H 0.68732 0.49287 0.71441 0.0
H1340 H 0.73609 0.53264 0.70863 0.0
H1341 H 0.76847 0.58298 0.70253 0.0
H1342 H 0.73223 0.63674 0.69398 0.0
H1343 H 0.68275 0.59627 0.69797 0.0
C1344 C 0.66906 0.54313 0.70573 0.0
C1345 C 0.66523 0.5166 0.7103 0.0
C1346 C 0.69709 0.56618 0.70267 0.0
C1347 C 0.68968 0.51313 0.71109 0.0
C1348 C 0.71758 0.53585 0.70783 0.0
C1349 C 0.74961 0.58563 0.70127 0.0
C1350 C 0.75355 0.61234 0.69742 0.0
C1351 C 0.72155 0.56251 0.70386 0.0
C1352 C 0.72934 0.61604 0.69652 0.0
C1353 C 0.7012 0.59301 0.69886 0.0
H1354 H 0.46685 0.1258 0.70962 0.0
H1355 H 0.40414 0.03536 0.70806 0.0
H1356 H 0.36439 0.04403 0.70081 0.0
H1357 H 0.34678 0.07752 0.69793 0.0
H1358 H 0.40885 0.16791 0.70045 0.0
H1359 H 0.44937 0.1591 0.70403 0.0
C1360 C 0.44454 0.10795 0.70743 0.0
C1361 C 0.43856 0.08 0.70963 0.0
C1362 C 0.42158 0.11309 0.70347 0.0
C1363 C 0.40947 0.05713 0.70663 0.0
C1364 C 0.38663 0.06204 0.70251 0.0
C1365 C 0.36924 0.09519 0.69896 0.0
C1366 C 0.3749 0.12323 0.69849 0.0
C1367 C 0.39235 0.08996 0.70138 0.0
C1368 C 0.40399 0.14608 0.70023 0.0
C1369 C 0.42716 0.14105 0.70246 0.0
H1370 H 0.89445 0.34482 0.70882 0.0
H1371 H 0.80514 0.31763 0.68968 0.0
H1372 H 0.79422 0.26822 0.68235 0.0
H1373 H 0.80963 0.23242 0.68352 0.0
H1374 H 0.89868 0.26056 0.70408 0.0
H1375 H 0.91002 0.30992 0.70898 0.0
C1376 C 0.87261 0.3282 0.70287 0.0
C1377 C 0.85063 0.33494 0.69987 0.0
C1378 C 0.86635 0.29993 0.69927 0.0
C1379 C 0.82246 0.31302 0.6922 0.0
C1380 C 0.81618 0.28477 0.68807 0.0
C1381 C 0.83152 0.24944 0.689 0.0
C1382 C 0.85319 0.24282 0.69381 0.0
C1383 C 0.83786 0.27791 0.69191 0.0
C1384 C 0.88144 0.26497 0.70086 0.0
C1385 C 0.88802 0.29327 0.70346 0.0
H1386 H 0.19831 -0.0081 0.61819 0.0
H1387 H 0.22156 0.95725 0.67032 0.0
H1388 H 0.25337 0.00548 0.68818 0.0
H1389 H 0.27576 0.05758 0.68828 0.0
H1390 H 0.25501 0.09235 0.63511 0.0
H1391 H 0.22075 0.04387 0.61823 0.0
C1392 C 0.21029 -0.00511 0.63348 0.0
C1393 C 0.20764 0.97109 0.64292 0.0
C1394 C 0.22882 0.02263 0.64344 0.0
C1395 C 0.22341 0.97528 0.66266 0.0
C1396 C 0.2415 0.00281 0.67292 0.0
C1397 C 0.26326 0.05435 0.67322 0.0
C1398 C 0.26716 0.07804 0.66302 0.0
C1399 C 0.24444 0.0266 0.66341 0.0
C1400 C 0.25184 0.07409 0.64318 0.0
C1401 C 0.23244 0.0465 0.63357 0.0
H1402 H 0.99828 0.18598 0.65826 0.0
H1403 H 0.02905 0.27361 0.64655 0.0
H1404 H 0.98143 0.2674 0.65497 0.0
H1405 H 0.92968 0.236 0.66276 0.0
H1406 H 0.89862 0.14829 0.67373 0.0
H1407 H 0.94751 0.15558 0.66866 0.0
C1408 C 0.9947 0.20383 0.65781 0.0
C1409 C 0.01719 0.23013 0.65153 0.0
C1410 C 0.96707 0.20005 0.66245 0.0
C1411 C 0.01214 0.25305 0.65116 0.0
C1412 C 0.98484 0.24952 0.65592 0.0
C1413 C 0.93386 0.21868 0.6643 0.0
C1414 C 0.91088 0.19187 0.66899 0.0
C1415 C 0.96197 0.22296 0.66111 0.0
C1416 C 0.91621 0.16933 0.6706 0.0
C1417 C 0.94411 0.17343 0.66754 0.0
H1418 H 0.83307 0.8198 0.67437 0.0
H1419 H 0.74753 0.76757 0.64213 0.0
H1420 H 0.74974 0.72435 0.64627 0.0
H1421 H 0.7764 0.70159 0.6591 0.0
H1422 H 0.85954 0.75419 0.69496 0.0
H1423 H 0.85781 0.7969 0.68957 0.0
C1424 C 0.81494 0.79891 0.66831 0.0
C1425 C 0.79031 0.79672 0.65785 0.0
C1426 C 0.81599 0.77423 0.67135 0.0
C1427 C 0.7667 0.76962 0.65032 0.0
C1428 C 0.768 0.74497 0.65261 0.0
C1429 C 0.79425 0.72241 0.66545 0.0
C1430 C 0.81851 0.72467 0.6767 0.0
C1431 C 0.79262 0.74702 0.66303 0.0
C1432 C 0.84088 0.75177 0.68575 0.0
C1433 C 0.83992 0.77631 0.68276 0.0
H1434 H 0.99957 0.774 0.65402 0.0
H1435 H 0.96393 0.82946 0.65182 0.0
H1436 H 0.91748 0.79232 0.66432 0.0
H1437 H 0.88519 0.74215 0.67024 0.0
H1438 H 0.9184 0.68488 0.66838 0.0
H1439 H 0.96782 0.72452 0.6633 0.0
C1440 C 0.98177 0.77807 0.65662 0.0
C1441 C 0.985 0.80426 0.65174 0.0
C1442 C 0.95481 0.7563 0.66317 0.0
C1443 C 0.96179 0.80929 0.65514 0.0
C1444 C 0.93527 0.78812 0.66234 0.0
C1445 C 0.90359 0.73882 0.66997 0.0
C1446 C 0.89873 0.71125 0.67123 0.0
C1447 C 0.9313 0.76131 0.66575 0.0
C1448 C 0.92214 0.7064 0.6689 0.0
C1449 C 0.95021 0.72893 0.66551 0.0
H1450 H 0.19511 0.17451 0.65682 0.0
H1451 H 0.25015 0.26562 0.65434 0.0
H1452 H 0.29304 0.26314 0.66508 0.0
H1453 H 0.31546 0.23469 0.6732 0.0
H1454 H 0.26047 0.14378 0.67609 0.0
H1455 H 0.2171 0.14659 0.66764 0.0
C1456 C 0.21648 0.19382 0.65869 0.0
C1457 C 0.21943 0.22017 0.65453 0.0
C1458 C 0.24109 0.19229 0.6651 0.0
C1459 C 0.24723 0.24505 0.65736 0.0
C1460 C 0.27181 0.24366 0.66348 0.0
C1461 C 0.2939 0.2156 0.67223 0.0
C1462 C 0.29115 0.18915 0.67549 0.0
C1463 C 0.26907 0.21736 0.66713 0.0
C1464 C 0.26316 0.16448 0.67402 0.0
C1465 C 0.23835 0.16605 0.66899 0.0
H1466 H 0.84479 -0.00058 0.65836 0.0
H1467 H 0.76414 0.96675 0.61977 0.0
H1468 H 0.76305 0.01016 0.63094 0.0
H1469 H 0.78565 0.05804 0.6509 0.0
H1470 H 0.86714 0.09111 0.6884 0.0
H1471 H 0.86699 0.0469 0.67867 0.0
C1472 C 0.82688 0.0017 0.65249 0.0
C1473 C 0.80463 0.97986 0.63823 0.0
C1474 C 0.82644 0.02681 0.65886 0.0
C1475 C 0.78161 0.98323 0.63076 0.0
C1476 C 0.78095 0.00808 0.63711 0.0
C1477 C 0.80329 0.05552 0.65701 0.0
C1478 C 0.82604 0.07769 0.67072 0.0
C1479 C 0.80336 0.03012 0.65102 0.0
C1480 C 0.84887 0.07412 0.67835 0.0
C1481 C 0.84899 0.04891 0.67261 0.0
H1482 H 0.46219 0.32667 0.75988 0.0
H1483 H 0.5238 0.29771 0.75105 0.0
H1484 H 0.48664 0.25451 0.72908 0.0
H1485 H 0.43617 0.22471 0.71274 0.0
H1486 H 0.37426 0.25283 0.72412 0.0
H1487 H 0.41214 0.2969 0.74444 0.0
C1488 C 0.46752 0.31091 0.75317 0.0
C1489 C 0.49567 0.31537 0.75708 0.0
C1490 C 0.44603 0.28609 0.74088 0.0
C1491 C 0.50219 0.29466 0.74839 0.0
C1492 C 0.48101 0.27005 0.73574 0.0
C1493 C 0.43117 0.24067 0.71956 0.0
C1494 C 0.40262 0.23574 0.71697 0.0
C1495 C 0.45284 0.26554 0.73187 0.0
C1496 C 0.39612 0.25624 0.72604 0.0
C1497 C 0.41773 0.28138 0.73766 0.0
H1498 H 0.65848 0.08297 0.71238 0.0
H1499 H 0.6753 0.16944 0.72133 0.0
H1500 H 0.72584 0.18771 0.7113 0.0
H1501 H 0.76641 0.17953 0.70296 0.0
H1502 H 0.75116 0.09381 0.69731 0.0
H1503 H 0.6989 0.0747 0.70279 0.0
C1504 C 0.67316 0.10579 0.71198 0.0
C1505 C 0.66313 0.12481 0.71776 0.0
C1506 C 0.70247 0.11624 0.70667 0.0
C1507 C 0.68248 0.15434 0.7172 0.0
C1508 C 0.71139 0.16482 0.71139 0.0
C1509 C 0.75137 0.15662 0.70237 0.0
C1510 C 0.76216 0.13793 0.69885 0.0
C1511 C 0.72175 0.14603 0.70646 0.0
C1512 C 0.74296 0.10841 0.69907 0.0
C1513 C 0.71322 0.09758 0.70252 0.0
H1514 H 0.87221 0.51525 0.69626 0.0
H1515 H 0.81537 0.49887 0.75041 0.0
H1516 H 0.80757 0.5374 0.74188 0.0
H1517 H 0.81778 0.57646 0.72001 0.0
H1518 H 0.8732 0.59306 0.66511 0.0
H1519 H 0.8805 0.55349 0.67283 0.0
C1520 C 0.85808 0.5201 0.70615 0.0
C1521 C 0.84458 0.50429 0.72407 0.0
C1522 C 0.85347 0.54229 0.70105 0.0
C1523 C 0.82609 0.51067 0.73657 0.0
C1524 C 0.82163 0.53275 0.73174 0.0
C1525 C 0.83159 0.57153 0.70975 0.0
C1526 C 0.84535 0.58788 0.69224 0.0
C1527 C 0.8354 0.54882 0.71419 0.0
C1528 C 0.86253 0.5808 0.67876 0.0
C1529 C 0.86672 0.55826 0.68321 0.0
H1530 H 0.4371 0.91163 0.22179 0.0
H1531 H 0.5272 0.9515 0.24557 0.0
H1532 H 0.54315 0.9781 0.21326 0.0
H1533 H 0.53133 -0.00744 0.17952 0.0
H1534 H 0.4414 0.95255 0.15559 0.0
H1535 H 0.4256 0.92326 0.18655 0.0
C1536 C 0.46025 0.92596 0.21984 0.0
C1537 C 0.48087 0.92977 0.23626 0.0
C1538 C 0.46931 0.94127 0.20123 0.0
C1539 C 0.51082 0.94816 0.23327 0.0
C1540 C 0.51997 0.9635 0.21482 0.0
C1541 C 0.50828 0.97739 0.1811 0.0
C1542 C 0.48753 0.97496 0.16544 0.0
C1543 C 0.49938 0.96067 0.19894 0.0
C1544 C 0.4578 0.9548 0.16741 0.0
C1545 C 0.44875 0.93815 0.18516 0.0
H1546 H 0.06551 0.49384 0.23665 0.0
H1547 H 0.13788 0.56646 0.2103 0.0
H1548 H 0.10901 0.55636 0.17626 0.0
H1549 H 0.06161 0.53047 0.15584 0.0
H1550 H 0.98942 0.45711 0.18164 0.0
H1551 H 0.01981 0.46433 0.2142 0.0
C1552 C 0.07514 0.50722 0.22335 0.0
C1553 C 0.1037 0.5311 0.22618 0.0
C1554 C 0.0583 0.50152 0.20388 0.0
C1555 C 0.11592 0.54801 0.20865 0.0
C1556 C 0.09936 0.54236 0.1892 0.0
C1557 C 0.05261 0.51559 0.16829 0.0
C1558 C 0.02303 0.49354 0.16634 0.0
C1559 C 0.07026 0.51968 0.18689 0.0
C1560 C 0.01184 0.47475 0.18289 0.0
C1561 C 0.02927 0.47871 0.20148 0.0
H1562 H 0.41476 0.50046 0.21193 0.0
H1563 H 0.49391 0.53043 0.25189 0.0
H1564 H 0.5181 0.52405 0.22019 0.0
H1565 H 0.51746 0.51069 0.18131 0.0
H1566 H 0.43809 0.47756 0.14102 0.0
H1567 H 0.41372 0.48523 0.17247 0.0
C1568 C 0.43723 0.50542 0.21368 0.0
C1569 C 0.45236 0.51574 0.23434 0.0
C1570 C 0.45116 0.50145 0.19529 0.0
C1571 C 0.48153 0.52215 0.2363 0.0
C1572 C 0.49553 0.51866 0.21813 0.0
C1573 C 0.49468 0.50465 0.17937 0.0
C1574 C 0.47969 0.49337 0.15877 0.0
C1575 C 0.48058 0.50833 0.19759 0.0
C1576 C 0.45038 0.48658 0.15658 0.0
C1577 C 0.43631 0.49073 0.17463 0.0
H1578 H 0.91066 0.47489 0.8162 0.0
H1579 H 0.97593 0.47037 0.77688 0.0
H1580 H 0.00922 0.48627 0.80908 0.0
H1581 H 0.01956 0.50019 0.84841 0.0
H1582 H 0.95539 0.50624 0.88803 0.0
H1583 H 0.92177 0.49036 0.85582 0.0
C1584 C 0.93224 0.4776 0.81464 0.0
C1585 C 0.9407 0.47144 0.79406 0.0
C1586 C 0.95141 0.4867 0.83333 0.0
C1587 C 0.96874 0.47493 0.79243 0.0
C1588 C 0.98784 0.48398 0.81088 0.0
C1589 C 0.99842 0.49849 0.85002 0.0
C1590 C 0.99019 0.50454 0.8707 0.0
C1591 C 0.97937 0.48978 0.8314 0.0
C1592 C 0.96229 0.50143 0.87243 0.0
C1593 C 0.94309 0.49255 0.85396 0.0
H1594 H 0.51944 0.43879 0.78478 0.0
H1595 H 0.59537 0.44673 0.81747 0.0
H1596 H 0.57968 0.45735 0.85301 0.0
H1597 H 0.54673 0.46957 0.87386 0.0
H1598 H 0.46879 0.45723 0.84055 0.0
H1599 H 0.48292 0.44317 0.80624 0.0
C1600 C 0.53228 0.44243 0.79977 0.0
C1601 C 0.55863 0.44242 0.79864 0.0
C1602 C 0.52296 0.44812 0.81997 0.0
C1603 C 0.57497 0.4467 0.81808 0.0
C1604 C 0.56608 0.45293 0.83832 0.0
C1605 C 0.53252 0.46324 0.85923 0.0
C1606 C 0.50722 0.46555 0.85976 0.0
C1607 C 0.54045 0.45445 0.83939 0.0
C1608 C 0.48901 0.4569 0.84056 0.0
C1609 C 0.49691 0.44859 0.82088 0.0
H1610 H 0.56709 0.06293 0.8132 0.0
H1611 H 0.47925 0.01717 0.78377 0.0
H1612 H 0.4616 -0.01083 0.81502 0.0
H1613 H 0.47049 0.97741 0.85068 0.0
H1614 H 0.55733 0.02305 0.88146 0.0
H1615 H 0.57583 0.05157 0.85003 0.0
C1616 C 0.54414 0.04674 0.81363 0.0
C1617 C 0.52459 0.04217 0.79607 0.0
C1618 C 0.53386 0.03078 0.83199 0.0
C1619 C 0.49483 0.02129 0.79703 0.0
C1620 C 0.48464 0.00518 0.81492 0.0
C1621 C 0.49352 -0.00652 0.85047 0.0
C1622 C 0.51254 -0.0021 0.86827 0.0
C1623 C 0.50389 0.00974 0.83247 0.0
C1624 C 0.5422 0.01928 0.86797 0.0
C1625 C 0.5528 0.03548 0.84994 0.0
H1626 H 0.18117 0.27085 0.56517 0.0
H1627 H 0.08828 0.23401 0.55268 0.0
H1628 H 0.09725 0.2569 0.51865 0.0
H1629 H 0.13173 0.29082 0.49386 0.0
H1630 H 0.2245 0.32965 0.50751 0.0
H1631 H 0.2154 0.30243 0.53936 0.0
C1632 C 0.16286 0.26748 0.55486 0.0
C1633 C 0.13412 0.25084 0.56162 0.0
C1634 C 0.16818 0.28126 0.53549 0.0
C1635 C 0.11068 0.24685 0.54802 0.0
C1636 C 0.11577 0.25997 0.52852 0.0
C1637 C 0.14986 0.2929 0.50365 0.0
C1638 C 0.17873 0.31222 0.49845 0.0
C1639 C 0.14445 0.27772 0.5223 0.0
C1640 C 0.2021 0.31501 0.51134 0.0
C1641 C 0.1969 0.29948 0.52955 0.0
H1642 H 0.78653 0.89132 0.55094 0.0
H1643 H 0.72455 0.81749 0.58267 0.0
H1644 H 0.69019 0.80137 0.55104 0.0
H1645 H 0.67594 0.8104 0.51589 0.0
H1646 H 0.73702 0.88464 0.48434 0.0
H1647 H 0.77362 0.89838 0.51429 0.0
C1648 C 0.76571 0.87146 0.55075 0.0
C1649 C 0.75796 0.85579 0.5692 0.0
C1650 C 0.74575 0.86259 0.53268 0.0
C1651 C 0.7309 0.8301 0.56875 0.0
C1652 C 0.71119 0.8209 0.5507 0.0
C1653 C 0.69728 0.82959 0.51562 0.0
C1654 C 0.70369 0.8467 0.49817 0.0
C1655 C 0.71805 0.83739 0.53288 0.0
C1656 C 0.73162 0.87116 0.49768 0.0
C1657 C 0.75249 0.87905 0.5148 0.0
H1658 H 0.07945 0.82695 0.5506 0.0
H1659 H 0.15875 0.89301 0.58555 0.0
H1660 H 0.18724 0.89322 0.55445 0.0
H1661 H 0.18989 0.87499 0.51723 0.0
H1662 H 0.11098 0.80935 0.48153 0.0
H1663 H 0.08206 0.80923 0.51265 0.0
C1664 C 0.10298 0.84131 0.55139 0.0
C1665 C 0.11707 0.85919 0.57074 0.0
C1666 C 0.11929 0.84165 0.53317 0.0
C1667 C 0.14749 0.87801 0.57138 0.0
C1668 C 0.1638 0.87849 0.55341 0.0
C1669 C 0.16639 0.86043 0.5163 0.0
C1670 C 0.15269 0.84207 0.49711 0.0
C1671 C 0.14997 0.86028 0.53429 0.0
C1672 C 0.1221 0.82387 0.49603 0.0
C1673 C 0.10556 0.82366 0.51388 0.0
H1674 H 0.57784 0.80563 0.14771 0.0
H1675 H 0.62735 0.77707 0.10852 0.0
H1676 H 0.65668 0.7821 0.14095 0.0
H1677 H 0.6672 0.79274 0.18041 0.0
H1678 H 0.62069 0.82485 0.21969 0.0
H1679 H 0.59074 0.81936 0.18737 0.0
C1680 C 0.5952 0.80075 0.14625 0.0
C1681 C 0.60032 0.79099 0.12565 0.0
C1682 C 0.61227 0.80386 0.16503 0.0
C1683 C 0.62296 0.78478 0.12408 0.0
C1684 C 0.6397 0.78749 0.14266 0.0
C1685 C 0.65095 0.79912 0.18197 0.0
C1686 C 0.64639 0.80919 0.20264 0.0
C1687 C 0.63443 0.79682 0.16322 0.0
C1688 C 0.6245 0.81651 0.20418 0.0
C1689 C 0.60749 0.81367 0.18562 0.0
H1690 H 0.21484 0.79907 0.12599 0.0
H1691 H 0.25908 0.76036 0.15441 0.0
H1692 H 0.24861 0.77283 0.19117 0.0
H1693 H 0.22895 0.79701 0.21543 0.0
H1694 H 0.18625 0.83682 0.18681 0.0
H1695 H 0.19348 0.82117 0.14992 0.0
C1696 C 0.22226 0.79337 0.1402 0.0
C1697 C 0.238 0.77906 0.13741 0.0
C1698 C 0.21614 0.80056 0.16127 0.0
C1699 C 0.2471 0.77156 0.15605 0.0
C1700 C 0.24105 0.7786 0.1771 0.0
C1701 C 0.22078 0.80167 0.20104 0.0
C1702 C 0.20691 0.81775 0.20363 0.0
C1703 C 0.22577 0.79329 0.17992 0.0
C1704 C 0.1968 0.82425 0.18503 0.0
C1705 C 0.20111 0.81549 0.16401 0.0
H1706 H 0.16224 0.38108 0.13811 0.0
H1707 H 0.24922 0.39345 0.14029 0.0
H1708 H 0.23926 0.37011 0.17431 0.0
H1709 H 0.20477 0.34411 0.20279 0.0
H1710 H 0.1175 0.33044 0.19927 0.0
H1711 H 0.12864 0.35654 0.16658 0.0
C1712 C 0.17915 0.37885 0.14603 0.0
C1713 C 0.20644 0.38899 0.13651 0.0
C1714 C 0.17317 0.36516 0.16543 0.0
C1715 C 0.22798 0.3858 0.14712 0.0
C1716 C 0.22231 0.37245 0.16662 0.0
C1717 C 0.18844 0.34725 0.19492 0.0
C1718 C 0.16044 0.33567 0.20336 0.0
C1719 C 0.19488 0.36179 0.17583 0.0
C1720 C 0.13921 0.33939 0.19302 0.0
C1721 C 0.14556 0.35419 0.17433 0.0
H1722 H 0.77412 0.57871 0.88958 0.0
H1723 H 0.86203 0.60591 0.91295 0.0
H1724 H 0.88149 0.63155 0.88052 0.0
H1725 H 0.87386 0.64844 0.84652 0.0
H1726 H 0.78615 0.62123 0.82298 0.0
H1727 H 0.76629 0.59318 0.85437 0.0
C1728 C 0.79754 0.59008 0.88755 0.0
C1729 C 0.81657 0.59056 0.90385 0.0
C1730 C 0.80864 0.60487 0.86885 0.0
C1731 C 0.84684 0.60521 0.90076 0.0
C1732 C 0.85802 0.61997 0.88223 0.0
C1733 C 0.8504 0.63636 0.84829 0.0
C1734 C 0.83152 0.63713 0.83258 0.0
C1735 C 0.83918 0.62034 0.86636 0.0
C1736 C 0.80113 0.62093 0.83482 0.0
C1737 C 0.78979 0.605 0.85282 0.0
H1738 H 0.40036 0.19118 0.9118 0.0
H1739 H 0.47579 0.20842 0.87479 0.0
H1740 H 0.44545 0.19169 0.8406 0.0
H1741 H 0.39693 0.17083 0.82137 0.0
H1742 H 0.32265 0.15678 0.85892 0.0
H1743 H 0.35309 0.17333 0.89266 0.0
C1744 C 0.41018 0.19116 0.89628 0.0
C1745 C 0.44021 0.2007 0.89588 0.0
C1746 C 0.39276 0.18198 0.87673 0.0
C1747 C 0.45266 0.20102 0.87556 0.0
C1748 C 0.43533 0.19148 0.85601 0.0
C1749 C 0.38746 0.17174 0.83688 0.0
C1750 C 0.3573 0.16201 0.8375 0.0
C1751 C 0.40528 0.1818 0.85639 0.0
C1752 C 0.34554 0.16331 0.85788 0.0
C1753 C 0.36298 0.17298 0.87725 0.0
H1754 H 0.82021 0.20613 0.90815 0.0
H1755 H 0.73039 0.15698 0.8831 0.0
H1756 H 0.74629 0.14563 0.84801 0.0
H1757 H 0.78615 0.14853 0.82492 0.0
H1758 H 0.87548 0.19834 0.85106 0.0
H1759 H 0.85929 0.21069 0.88522 0.0
C1760 C 0.80398 0.19283 0.89509 0.0
C1761 C 0.77412 0.18215 0.89837 0.0
C1762 C 0.81324 0.18655 0.87511 0.0
C1763 C 0.75353 0.16537 0.88106 0.0
C1764 C 0.76262 0.15889 0.861 0.0
C1765 C 0.80199 0.16227 0.83807 0.0
C1766 C 0.83195 0.17219 0.8356 0.0
C1767 C 0.79247 0.16922 0.85787 0.0
C1768 C 0.85227 0.19 0.85273 0.0
C1769 C 0.84306 0.19714 0.87224 0.0
H1770 H 0.27854 0.10749 0.46594 0.0
H1771 H 0.23679 0.15519 0.48669 0.0
H1772 H 0.26311 0.16856 0.5226 0.0
H1773 H 0.29991 0.16831 0.54748 0.0
H1774 H 0.34093 0.12022 0.52583 0.0
H1775 H 0.31278 0.10524 0.4909 0.0
C1776 C 0.27516 0.12088 0.47825 0.0
C1777 C 0.25597 0.13062 0.47351 0.0
C1778 C 0.29024 0.12838 0.49873 0.0
C1779 C 0.25157 0.14755 0.48985 0.0
C1780 C 0.26661 0.15518 0.51039 0.0
C1781 C 0.30237 0.15429 0.53518 0.0
C1782 C 0.32271 0.14563 0.53912 0.0
C1783 C 0.28622 0.14591 0.51495 0.0
C1784 C 0.32578 0.12754 0.52303 0.0
C1785 C 0.30966 0.11892 0.50308 0.0
H1786 H 0.87499 0.1329 0.45978 0.0
H1787 H 0.91609 0.08895 0.48385 0.0
H1788 H 0.9037 0.09674 0.52138 0.0
H1789 H 0.88557 0.12078 0.5478 0.0
H1790 H 0.84496 0.16475 0.52292 0.0
H1791 H 0.8522 0.15181 0.48529 0.0
C1792 C 0.881 0.12479 0.47322 0.0
C1793 C 0.89663 0.1106 0.4691 0.0
C1794 C 0.87378 0.12932 0.49464 0.0
C1795 C 0.90392 0.09984 0.48661 0.0
C1796 C 0.89696 0.10442 0.50808 0.0
C1797 C 0.87761 0.12674 0.53406 0.0
C1798 C 0.8647 0.14361 0.53801 0.0
C1799 C 0.88241 0.11967 0.51237 0.0
C1800 C 0.85483 0.15165 0.52016 0.0
C1801 C 0.85917 0.14446 0.49868 0.0
H1802 H 0.83723 0.71584 0.48133 0.0
H1803 H 0.92428 0.73239 0.46876 0.0
H1804 H 0.92395 0.70856 0.50079 0.0
H1805 H 0.89791 0.68014 0.53088 0.0
H1806 H 0.8108 0.66272 0.54365 0.0
H1807 H 0.81239 0.69012 0.51332 0.0
C1808 C 0.85624 0.71445 0.48568 0.0
C1809 C 0.88061 0.72567 0.47238 0.0
C1810 C 0.85588 0.70047 0.50416 0.0
C1811 C 0.90508 0.72377 0.47845 0.0
C1812 C 0.90494 0.71012 0.49682 0.0
C1813 C 0.8793 0.68243 0.52707 0.0
C1814 C 0.85414 0.66912 0.53934 0.0
C1815 C 0.88028 0.69791 0.50952 0.0
C1816 C 0.83045 0.67279 0.5345 0.0
C1817 C 0.83129 0.68829 0.51706 0.0
loop_
_geom_bond_atom_site_label_1
_geom_bond_atom_site_label_2
_geom_bond_distance
_geom_bond_site_symmetry_2
_ccdc_geom_bond_type
O0 Cd1 2.300 . S
O0 C7 1.275 . S
Cd1 O0 2.300 . S
Cd1 O9 2.381 . S
Cd1 O10 2.378 . S
O2 Cd3 2.385 . S
O2 C7 1.255 . S
Cd3 O2 2.385 . S
Cd3 O4 2.317 . S
O4 Cd3 2.317 . S
O4 C5 1.232 . S
C5 O4 1.232 . S
C5 O6 1.218 . S
O6 C5 1.218 . S
C7 O0 1.275 . S
C7 O2 1.255 . S
C8 O9 1.258 . S
C8 O10 1.256 . S
O9 Cd1 2.381 . S
O9 C8 1.258 . S
O10 Cd1 2.378 . S
O10 C8 1.256 . S
O11 Cd12 2.300 . S
O11 C18 1.275 . S
Cd12 O11 2.300 . S
Cd12 O20 2.381 . S
Cd12 O21 2.378 . S
O13 Cd14 2.385 . S
O13 C18 1.255 . S
Cd14 O13 2.385 . S
Cd14 O15 2.317 . S
O15 Cd14 2.317 . S
O15 C16 1.232 . S
C16 O15 1.232 . S
C16 O17 1.218 . S
O17 C16 1.218 . S
C18 O11 1.275 . S
C18 O13 1.255 . S
C19 O20 1.258 . S
C19 O21 1.256 . S
O20 Cd12 2.381 . S
O20 C19 1.258 . S
O21 Cd12 2.378 . S
O21 C19 1.256 . S
O22 Cd23 2.300 . S
O22 C29 1.275 . S
Cd23 O22 2.300 . S
Cd23 O31 2.381 . S
Cd23 O32 2.378 . S
O24 Cd25 2.385 . S
O24 C29 1.255 . S
Cd25 O24 2.385 . S
Cd25 O26 2.317 . S
O26 Cd25 2.317 . S
O26 C27 1.232 . S
C27 O26 1.232 . S
C27 O28 1.218 . S
O28 C27 1.218 . S
C29 O22 1.275 . S
C29 O24 1.255 . S
C30 O31 1.258 . S
C30 O32 1.256 . S
O31 Cd23 2.381 . S
O31 C30 1.258 . S
O32 Cd23 2.378 . S
O32 C30 1.256 . S
O33 Cd34 2.300 . S
O33 C40 1.275 . S
Cd34 O33 2.300 . S
Cd34 O42 2.381 . S
Cd34 O43 2.378 . S
O35 Cd36 2.385 . S
O35 C40 1.255 . S
Cd36 O35 2.385 . S
Cd36 O37 2.317 . S
O37 Cd36 2.317 . S
O37 C38 1.232 . S
C38 O37 1.232 . S
C38 O39 1.218 . S
O39 C38 1.218 . S
C40 O33 1.275 . S
C40 O35 1.255 . S
C41 O42 1.258 . S
C41 O43 1.256 . S
O42 Cd34 2.381 . S
O42 C41 1.258 . S
O43 Cd34 2.378 . S
O43 C41 1.256 . S
O44 Cd45 2.300 . S
O44 C51 1.275 . S
Cd45 O44 2.300 . S
Cd45 O53 2.381 . S
Cd45 O54 2.378 . S
O46 Cd47 2.385 . S
O46 C51 1.255 . S
Cd47 O46 2.385 . S
Cd47 O48 2.317 . S
O48 Cd47 2.317 . S
O48 C49 1.232 . S
C49 O48 1.232 . S
C49 O50 1.218 . S
O50 C49 1.218 . S
C51 O44 1.275 . S
C51 O46 1.255 . S
C52 O53 1.258 . S
C52 O54 1.256 . S
O53 Cd45 2.381 . S
O53 C52 1.258 . S
O54 Cd45 2.378 . S
O54 C52 1.256 . S
O55 Cd56 2.300 . S
O55 C62 1.275 . S
Cd56 O55 2.300 . S
Cd56 O64 2.381 . S
Cd56 O65 2.378 . S
O57 Cd58 2.385 . S
O57 C62 1.255 . S
Cd58 O57 2.385 . S
Cd58 O59 2.317 . S
O59 Cd58 2.317 . S
O59 C60 1.232 . S
C60 O59 1.232 . S
C60 O61 1.218 . S
O61 C60 1.218 . S
C62 O55 1.275 . S
C62 O57 1.255 . S
C63 O64 1.258 . S
C63 O65 1.256 . S
O64 Cd56 2.381 . S
O64 C63 1.258 . S
O65 Cd56 2.378 . S
O65 C63 1.256 . S
O66 Cd67 2.300 . S
O66 C73 1.275 . S
Cd67 O66 2.300 . S
Cd67 O75 2.381 . S
Cd67 O76 2.378 . S
O68 Cd69 2.385 . S
O68 C73 1.255 . S
Cd69 O68 2.385 . S
Cd69 O70 2.317 . S
O70 Cd69 2.317 . S
O70 C71 1.232 . S
C71 O70 1.232 . S
C71 O72 1.218 . S
O72 C71 1.218 . S
C73 O66 1.275 . S
C73 O68 1.255 . S
C74 O75 1.258 . S
C74 O76 1.256 . S
O75 Cd67 2.381 . S
O75 C74 1.258 . S
O76 Cd67 2.378 . S
O76 C74 1.256 . S
O77 Cd78 2.300 . S
O77 C84 1.275 . S
Cd78 O77 2.300 . S
Cd78 O86 2.381 . S
Cd78 O87 2.378 . S
O79 Cd80 2.385 . S
O79 C84 1.255 . S
Cd80 O79 2.385 . S
Cd80 O81 2.317 . S
O81 Cd80 2.317 . S
O81 C82 1.232 . S
C82 O81 1.232 . S
C82 O83 1.218 . S
O83 C82 1.218 . S
C84 O77 1.275 . S
C84 O79 1.255 . S
C85 O86 1.258 . S
C85 O87 1.256 . S
O86 Cd78 2.381 . S
O86 C85 1.258 . S
O87 Cd78 2.378 . S
O87 C85 1.256 . S
O88 Cd89 2.300 . S
O88 C95 1.275 . S
Cd89 O88 2.300 . S
Cd89 O97 2.381 . S
Cd89 O98 2.378 . S
O90 Cd91 2.385 . S
O90 C95 1.255 . S
Cd91 O90 2.385 . S
Cd91 O92 2.317 . S
O92 Cd91 2.317 . S
O92 C93 1.232 . S
C93 O92 1.232 . S
C93 O94 1.218 . S
O94 C93 1.218 . S
C95 O88 1.275 . S
C95 O90 1.255 . S
C96 O97 1.258 . S
C96 O98 1.256 . S
O97 Cd89 2.381 . S
O97 C96 1.258 . S
O98 Cd89 2.378 . S
O98 C96 1.256 . S
O99 Cd100 2.300 . S
O99 C106 1.275 . S
Cd100 O99 2.300 . S
Cd100 O108 2.381 . S
Cd100 O109 2.378 . S
O101 Cd102 2.385 . S
O101 C106 1.255 . S
Cd102 O101 2.385 . S
Cd102 O103 2.317 . S
O103 Cd102 2.317 . S
O103 C104 1.232 . S
C104 O103 1.232 . S
C104 O105 1.218 . S
O105 C104 1.218 . S
C106 O99 1.275 . S
C106 O101 1.255 . S
C107 O108 1.258 . S
C107 O109 1.256 . S
O108 Cd100 2.381 . S
O108 C107 1.258 . S
O109 Cd100 2.378 . S
O109 C107 1.256 . S
O110 Cd111 2.300 . S
O110 C117 1.275 . S
Cd111 O110 2.300 . S
Cd111 O119 2.381 . S
Cd111 O120 2.378 . S
O112 Cd113 2.385 . S
O112 C117 1.255 . S
Cd113 O112 2.385 . S
Cd113 O114 2.317 . S
O114 Cd113 2.317 . S
O114 C115 1.232 . S
C115 O114 1.232 . S
C115 O116 1.218 . S
O116 C115 1.218 . S
C117 O110 1.275 . S
C117 O112 1.255 . S
C118 O119 1.258 . S
C118 O120 1.256 . S
O119 Cd111 2.381 . S
O119 C118 1.258 . S
O120 Cd111 2.378 . S
O120 C118 1.256 . S
O121 Cd122 2.300 . S
O121 C128 1.275 . S
Cd122 O121 2.300 . S
Cd122 O130 2.381 . S
Cd122 O131 2.378 . S
O123 Cd124 2.385 . S
O123 C128 1.255 . S
Cd124 O123 2.385 . S
Cd124 O125 2.317 . S
O125 Cd124 2.317 . S
O125 C126 1.232 . S
C126 O125 1.232 . S
C126 O127 1.218 . S
O127 C126 1.218 . S
C128 O121 1.275 . S
C128 O123 1.255 . S
C129 O130 1.258 . S
C129 O131 1.256 . S
O130 Cd122 2.381 . S
O130 C129 1.258 . S
O131 Cd122 2.378 . S
O131 C129 1.256 . S
O132 Cd133 2.300 . S
O132 C139 1.275 . S
Cd133 O132 2.300 . S
Cd133 O141 2.381 . S
Cd133 O142 2.378 . S
O134 Cd135 2.385 . S
O134 C139 1.255 . S
Cd135 O134 2.385 . S
Cd135 O136 2.317 . S
O136 Cd135 2.317 . S
O136 C137 1.232 . S
C137 O136 1.232 . S
C137 O138 1.218 . S
O138 C137 1.218 . S
C139 O132 1.275 . S
C139 O134 1.255 . S
C140 O141 1.258 . S
C140 O142 1.256 . S
O141 Cd133 2.381 . S
O141 C140 1.258 . S
O142 Cd133 2.378 . S
O142 C140 1.256 . S
O143 Cd144 2.300 . S
O143 C150 1.275 . S
Cd144 O143 2.300 . S
Cd144 O152 2.381 . S
Cd144 O153 2.378 . S
O145 Cd146 2.385 . S
O145 C150 1.255 . S
Cd146 O145 2.385 . S
Cd146 O147 2.317 . S
O147 Cd146 2.317 . S
O147 C148 1.232 . S
C148 O147 1.232 . S
C148 O149 1.218 . S
O149 C148 1.218 . S
C150 O143 1.275 . S
C150 O145 1.255 . S
C151 O152 1.258 . S
C151 O153 1.256 . S
O152 Cd144 2.381 . S
O152 C151 1.258 . S
O153 Cd144 2.378 . S
O153 C151 1.256 . S
O154 Cd155 2.300 . S
O154 C161 1.275 . S
Cd155 O154 2.300 . S
Cd155 O163 2.381 . S
Cd155 O164 2.378 . S
O156 Cd157 2.385 . S
O156 C161 1.255 . S
Cd157 O156 2.385 . S
Cd157 O158 2.317 . S
O158 Cd157 2.317 . S
O158 C159 1.232 . S
C159 O158 1.232 . S
C159 O160 1.218 . S
O160 C159 1.218 . S
C161 O154 1.275 . S
C161 O156 1.255 . S
C162 O163 1.258 . S
C162 O164 1.256 . S
O163 Cd155 2.381 . S
O163 C162 1.258 . S
O164 Cd155 2.378 . S
O164 C162 1.256 . S
O165 Cd166 2.300 . S
O165 C172 1.275 . S
Cd166 O165 2.300 . S
Cd166 O174 2.381 . S
Cd166 O175 2.378 . S
O167 Cd168 2.385 . S
O167 C172 1.255 . S
Cd168 O167 2.385 . S
Cd168 O169 2.317 . S
O169 Cd168 2.317 . S
O169 C170 1.232 . S
C170 O169 1.232 . S
C170 O171 1.218 . S
O171 C170 1.218 . S
C172 O165 1.275 . S
C172 O167 1.255 . S
C173 O174 1.258 . S
C173 O175 1.256 . S
O174 Cd166 2.381 . S
O174 C173 1.258 . S
O175 Cd166 2.378 . S
O175 C173 1.256 . S
O176 Cd177 2.300 . S
O176 C183 1.275 . S
Cd177 O176 2.300 . S
Cd177 O185 2.381 . S
Cd177 O186 2.378 . S
O178 Cd179 2.385 . S
O178 C183 1.255 . S
Cd179 O178 2.385 . S
Cd179 O180 2.317 . S
O180 Cd179 2.317 . S
O180 C181 1.232 . S
C181 O180 1.232 . S
C181 O182 1.218 . S
O182 C181 1.218 . S
C183 O176 1.275 . S
C183 O178 1.255 . S
C184 O185 1.258 . S
C184 O186 1.256 . S
O185 Cd177 2.381 . S
O185 C184 1.258 . S
O186 Cd177 2.378 . S
O186 C184 1.256 . S
O187 Cd188 2.300 . S
O187 C194 1.275 . S
Cd188 O187 2.300 . S
Cd188 O196 2.381 . S
Cd188 O197 2.378 . S
O189 Cd190 2.385 . S
O189 C194 1.255 . S
Cd190 O189 2.385 . S
Cd190 O191 2.317 . S
O191 Cd190 2.317 . S
O191 C192 1.232 . S
C192 O191 1.232 . S
C192 O193 1.218 . S
O193 C192 1.218 . S
C194 O187 1.275 . S
C194 O189 1.255 . S
C195 O196 1.258 . S
C195 O197 1.256 . S
O196 Cd188 2.381 . S
O196 C195 1.258 . S
O197 Cd188 2.378 . S
O197 C195 1.256 . S
Gd198 N229 2.661 . S
Gd198 N235 2.601 . S
Gd198 O242 2.545 . S
Gd198 O243 2.606 1_545 S
Gd198 O245 2.429 . S
Gd198 O246 2.545 1_545 S
Gd198 O247 2.412 . S
Gd198 O249 2.362 . S
Gd198 O250 2.324 1_545 S
Gd198 C257 2.828 . S
Gd199 N208 2.661 . S
Gd199 N212 2.601 . S
Gd199 O243 2.362 1_556 S
Gd199 O244 2.324 1_565 S
Gd199 O248 2.545 . S
Gd199 O249 2.606 1_566 S
Gd199 O251 2.429 . S
Gd199 O252 2.545 1_565 S
Gd199 O253 2.412 1_565 S
Gd199 C266 2.828 . S
C200 C203 1.417 . S
C200 C205 1.431 . S
C200 C206 1.412 . S
C201 C204 1.437 . S
C201 C205 1.317 . S
C201 H220 0.929 . S
C202 C203 1.426 . S
C202 C204 1.413 . S
C202 N212 1.359 . S
C203 C200 1.417 . S
C203 C202 1.426 . S
C203 N208 1.350 . S
C204 C201 1.437 . S
C204 C202 1.413 . S
C204 C214 1.391 . S
C205 C200 1.431 . S
C205 C201 1.317 . S
C205 H216 0.930 . S
C206 C200 1.412 . S
C206 C207 1.355 . S
C206 H218 0.930 . S
C207 C206 1.355 . S
C207 C209 1.402 . S
C207 H219 0.930 . S
N208 Gd199 2.661 . S
N208 C203 1.350 . S
N208 C209 1.307 . S
C209 C207 1.402 . S
C209 N208 1.307 . S
C209 H210 0.930 . S
H210 C209 0.930 . S
C211 N212 1.334 . S
C211 C213 1.394 . S
C211 H215 0.930 . S
N212 Gd199 2.601 . S
N212 C202 1.359 . S
N212 C211 1.334 . S
C213 C211 1.394 . S
C213 C214 1.359 . S
C213 H225 0.930 . S
C214 C204 1.391 . S
C214 C213 1.359 . S
C214 H226 0.929 . S
H215 C211 0.930 . S
H216 C205 0.930 . S
H217 C234 0.930 . S
H218 C206 0.930 . S
H219 C207 0.930 . S
H220 C201 0.929 . S
H221 C239 0.930 . S
H222 C230 0.930 . S
H223 C231 0.930 . S
H224 C255 0.929 . S
H225 C213 0.930 . S
H226 C214 0.929 . S
H227 C256 0.930 . S
H228 C237 0.930 . S
N229 Gd198 2.661 . S
N229 C233 1.350 . S
N229 C234 1.307 . S
C230 H222 0.930 . S
C230 C231 1.355 . S
C230 C232 1.412 . S
C231 H223 0.930 . S
C231 C230 1.355 . S
C231 C234 1.402 . S
C232 C230 1.412 . S
C232 C233 1.417 . S
C232 C256 1.431 . S
C233 N229 1.350 . S
C233 C232 1.417 . S
C233 C236 1.426 . S
C234 H217 0.930 . S
C234 N229 1.307 . S
C234 C231 1.402 . S
N235 Gd198 2.601 . S
N235 C236 1.359 . S
N235 C239 1.334 . S
C236 C233 1.426 . S
C236 N235 1.359 . S
C236 C240 1.413 . S
C237 H228 0.930 . S
C237 C238 1.359 . S
C237 C239 1.394 . S
C238 C237 1.359 . S
C238 C240 1.391 . S
C238 H241 0.929 . S
C239 H221 0.930 . S
C239 N235 1.334 . S
C239 C237 1.394 . S
C240 C236 1.413 . S
C240 C238 1.391 . S
C240 C255 1.437 . S
H241 C238 0.929 . S
O242 Gd198 2.545 . S
O242 C257 1.258 . S
O243 Gd198 2.606 1_565 S
O243 Gd199 2.362 1_554 S
O243 C254 1.284 . S
O244 Gd199 2.324 1_545 S
O244 C264 1.241 1_556 S
O245 Gd198 2.429 . S
O245 C264 1.287 . S
O246 Gd198 2.545 1_565 S
O246 C254 1.250 . S
O247 Gd198 2.412 . S
O247 C257 1.252 . S
O248 Gd199 2.545 . S
O248 C266 1.258 . S
O249 Gd198 2.362 . S
O249 Gd199 2.606 1_544 S
O249 C265 1.284 1_554 S
O250 Gd198 2.324 1_565 S
O250 C273 1.254 . S
O251 Gd199 2.429 . S
O251 C273 1.268 1_556 S
O252 Gd199 2.545 1_545 S
O252 C265 1.250 . S
O253 Gd199 2.412 1_545 S
O253 C266 1.252 1_545 S
C254 O243 1.284 . S
C254 O246 1.250 . S
C255 H224 0.929 . S
C255 C240 1.437 . S
C255 C256 1.317 . S
C256 H227 0.930 . S
C256 C232 1.431 . S
C256 C255 1.317 . S
C257 Gd198 2.828 . S
C257 O242 1.258 . S
C257 O247 1.252 . S
C257 C258 1.497 . S
C258 C257 1.497 . S
C258 C259 1.395 . S
C258 C260 1.380 1_545 S
C259 C258 1.395 . S
C259 C262 1.398 . S
C259 H274 0.930 . S
C260 C258 1.380 1_565 S
C260 C261 1.391 . S
C260 H275 0.930 . S
C261 C260 1.391 . S
C261 C263 1.387 . S
C262 C259 1.398 . S
C262 C263 1.380 1_545 S
C262 H276 0.930 . S
C263 C261 1.387 . S
C263 C262 1.380 1_565 S
C263 H277 0.930 . S
C264 O244 1.241 1_554 S
C264 O245 1.287 . S
C265 O249 1.284 1_556 S
C265 O252 1.250 . S
C266 Gd199 2.828 . S
C266 O248 1.258 . S
C266 O253 1.252 1_565 S
C266 C267 1.497 . S
C267 C266 1.497 . S
C267 C268 1.395 . S
C267 C269 1.380 1_565 S
C268 C267 1.395 . S
C268 C271 1.398 . S
C268 H278 0.930 . S
C269 C267 1.380 1_545 S
C269 C270 1.391 . S
C269 H279 0.930 . S
C270 C269 1.391 . S
C270 C272 1.387 . S
C271 C268 1.398 . S
C271 C272 1.380 1_565 S
C271 H280 0.930 . S
C272 C270 1.387 . S
C272 C271 1.380 1_545 S
C272 H281 0.930 . S
C273 O250 1.254 . S
C273 O251 1.268 1_554 S
H274 C259 0.930 . S
H275 C260 0.930 . S
H276 C262 0.930 . S
H277 C263 0.930 . S
H278 C268 0.930 . S
H279 C269 0.930 . S
H280 C271 0.930 . S
H281 C272 0.930 . S
Gd282 N313 2.661 . S
Gd282 N319 2.601 . S
Gd282 O326 2.545 . S
Gd282 O327 2.606 1_655 S
Gd282 O329 2.429 . S
Gd282 O330 2.545 1_655 S
Gd282 O331 2.412 1_655 S
Gd282 O333 2.362 . S
Gd282 O334 2.324 1_655 S
Gd282 C341 2.827 1_655 S
Gd283 N292 2.661 . S
Gd283 N296 2.601 . S
Gd283 O327 2.362 1_556 S
Gd283 O328 2.324 1_455 S
Gd283 O332 2.545 . S
Gd283 O333 2.606 1_456 S
Gd283 O335 2.429 1_556 S
Gd283 O336 2.545 1_455 S
Gd283 O337 2.412 1_455 S
Gd283 C350 2.828 . S
C284 C287 1.417 . S
C284 C289 1.431 . S
C284 C290 1.412 . S
C285 C288 1.437 . S
C285 C289 1.317 . S
C285 H304 0.929 . S
C286 C287 1.426 . S
C286 C288 1.413 . S
C286 N296 1.359 . S
C287 C284 1.417 . S
C287 C286 1.426 . S
C287 N292 1.350 . S
C288 C285 1.437 . S
C288 C286 1.413 . S
C288 C298 1.391 . S
C289 C284 1.431 . S
C289 C285 1.317 . S
C289 H300 0.930 . S
C290 C284 1.412 . S
C290 C291 1.355 . S
C290 H302 0.930 . S
C291 C290 1.355 . S
C291 C293 1.402 . S
C291 H303 0.930 . S
N292 Gd283 2.661 . S
N292 C287 1.350 . S
N292 C293 1.307 . S
C293 C291 1.402 . S
C293 N292 1.307 . S
C293 H294 0.892 1_455 S
H294 C293 0.892 1_655 S
C295 N296 1.334 . S
C295 C297 1.394 . S
C295 H299 0.930 . S
N296 Gd283 2.601 . S
N296 C286 1.359 . S
N296 C295 1.334 . S
C297 C295 1.394 . S
C297 C298 1.359 . S
C297 H309 0.930 . S
C298 C288 1.391 . S
C298 C297 1.359 . S
C298 H310 0.929 . S
H299 C295 0.930 . S
H300 C289 0.930 . S
H301 C318 0.930 1_455 S
H302 C290 0.930 . S
H303 C291 0.930 . S
H304 C285 0.929 . S
H305 C323 0.930 . S
H306 C314 0.930 . S
H307 C315 0.930 . S
H308 C339 0.929 . S
H309 C297 0.930 . S
H310 C298 0.929 . S
H311 C340 0.930 . S
H312 C321 0.930 . S
N313 Gd282 2.661 . S
N313 C317 1.350 . S
N313 C318 1.307 . S
C314 H306 0.930 . S
C314 C315 1.355 . S
C314 C316 1.412 . S
C315 H307 0.930 . S
C315 C314 1.355 . S
C315 C318 1.402 . S
C316 C314 1.412 . S
C316 C317 1.417 . S
C316 C340 1.431 . S
C317 N313 1.350 . S
C317 C316 1.417 . S
C317 C320 1.426 . S
C318 H301 0.930 1_655 S
C318 N313 1.307 . S
C318 C315 1.402 . S
N319 Gd282 2.601 . S
N319 C320 1.359 . S
N319 C323 1.334 . S
C320 C317 1.426 . S
C320 N319 1.359 . S
C320 C324 1.413 . S
C321 H312 0.930 . S
C321 C322 1.359 . S
C321 C323 1.394 . S
C322 C321 1.359 . S
C322 C324 1.391 . S
C322 H325 0.929 . S
C323 H305 0.930 . S
C323 N319 1.334 . S
C323 C321 1.394 . S
C324 C320 1.413 . S
C324 C322 1.391 . S
C324 C339 1.437 . S
H325 C322 0.929 . S
O326 Gd282 2.545 . S
O326 C341 1.256 1_655 S
O327 Gd282 2.606 1_455 S
O327 Gd283 2.362 1_554 S
O327 C338 1.284 . S
O328 Gd283 2.324 1_655 S
O328 C348 1.254 1_556 S
O329 Gd282 2.429 . S
O329 C348 1.268 . S
O330 Gd282 2.545 1_455 S
O330 C338 1.250 . S
O331 Gd282 2.412 1_455 S
O331 C341 1.252 . S
O332 Gd283 2.545 . S
O332 C350 1.258 . S
O333 Gd282 2.362 . S
O333 Gd283 2.606 1_654 S
O333 C349 1.284 1_554 S
O334 Gd282 2.324 1_455 S
O334 C357 1.254 . S
O335 Gd283 2.429 1_554 S
O335 C357 1.268 . S
O336 Gd283 2.545 1_655 S
O336 C349 1.250 . S
O337 Gd283 2.412 1_655 S
O337 C350 1.252 1_655 S
C338 O327 1.284 . S
C338 O330 1.250 . S
C339 H308 0.929 . S
C339 C324 1.437 . S
C339 C340 1.317 . S
C340 H311 0.930 . S
C340 C316 1.431 . S
C340 C339 1.317 . S
C341 Gd282 2.827 1_455 S
C341 O326 1.256 1_455 S
C341 O331 1.252 . S
C341 C342 1.499 . S
C342 C341 1.499 . S
C342 C343 1.395 1_455 S
C342 C344 1.380 . S
C343 C342 1.395 1_655 S
C343 C346 1.398 . S
C343 H358 0.930 . S
C344 C342 1.380 . S
C344 C345 1.391 . S
C344 H359 0.930 . S
C345 C344 1.391 . S
C345 C347 1.387 . S
C346 C343 1.398 . S
C346 C347 1.380 1_655 S
C346 H360 0.930 . S
C347 C345 1.387 . S
C347 C346 1.380 1_455 S
C347 H361 0.930 . S
C348 O328 1.254 1_554 S
C348 O329 1.268 . S
C349 O333 1.284 1_556 S
C349 O336 1.250 . S
C350 Gd283 2.828 . S
C350 O332 1.258 . S
C350 O337 1.252 1_455 S
C350 C351 1.497 1_455 S
C351 C350 1.497 1_655 S
C351 C352 1.395 1_655 S
C351 C353 1.380 . S
C352 C351 1.395 1_455 S
C352 C355 1.398 . S
C352 H362 0.930 . S
C353 C351 1.380 . S
C353 C354 1.391 . S
C353 H363 0.930 . S
C354 C353 1.391 . S
C354 C356 1.387 . S
C355 C352 1.398 . S
C355 C356 1.380 1_455 S
C355 H364 0.930 . S
C356 C354 1.387 . S
C356 C355 1.380 1_655 S
C356 H365 0.930 . S
C357 O334 1.254 . S
C357 O335 1.268 . S
H358 C343 0.930 . S
H359 C344 0.930 . S
H360 C346 0.930 . S
H361 C347 0.930 . S
H362 C352 0.930 . S
H363 C353 0.930 . S
H364 C355 0.930 . S
H365 C356 0.930 . S
Gd366 N397 2.661 . S
Gd366 N403 2.601 . S
Gd366 O410 2.545 . S
Gd366 O411 2.606 1_556 S
Gd366 O413 2.429 . S
Gd366 O414 2.545 . S
Gd366 O415 2.412 . S
Gd366 O417 2.362 1_556 S
Gd366 O418 2.324 . S
Gd366 C425 2.828 . S
Gd367 N376 2.661 . S
Gd367 N380 2.601 . S
Gd367 O411 2.362 . S
Gd367 O412 2.324 . S
Gd367 O416 2.545 . S
Gd367 O417 2.606 . S
Gd367 O419 2.429 . S
Gd367 O420 2.545 . S
Gd367 O421 2.412 . S
Gd367 C434 2.828 . S
C368 C371 1.417 . S
C368 C373 1.431 . S
C368 C374 1.412 . S
C369 C372 1.437 . S
C369 C373 1.317 . S
C369 H388 0.929 . S
C370 C371 1.426 . S
C370 C372 1.413 . S
C370 N380 1.359 . S
C371 C368 1.417 . S
C371 C370 1.426 . S
C371 N376 1.350 . S
C372 C369 1.437 . S
C372 C370 1.413 . S
C372 C382 1.391 . S
C373 C368 1.431 . S
C373 C369 1.317 . S
C373 H384 0.930 . S
C374 C368 1.412 . S
C374 C375 1.355 . S
C374 H386 0.930 . S
C375 C374 1.355 . S
C375 C377 1.402 . S
C375 H387 0.930 . S
N376 Gd367 2.661 . S
N376 C371 1.350 . S
N376 C377 1.307 . S
C377 C375 1.402 . S
C377 N376 1.307 . S
C377 H378 0.930 . S
H378 C377 0.930 . S
C379 N380 1.334 . S
C379 C381 1.394 . S
C379 H383 0.930 . S
N380 Gd367 2.601 . S
N380 C370 1.359 . S
N380 C379 1.334 . S
C381 C379 1.394 . S
C381 C382 1.359 . S
C381 H393 0.930 . S
C382 C372 1.391 . S
C382 C381 1.359 . S
C382 H394 0.929 . S
H383 C379 0.930 . S
H384 C373 0.930 . S
H385 C402 0.930 . S
H386 C374 0.930 . S
H387 C375 0.930 . S
H388 C369 0.929 . S
H389 C407 0.930 . S
H390 C398 0.930 . S
H391 C399 0.930 . S
H392 C423 0.929 . S
H393 C381 0.930 . S
H394 C382 0.929 . S
H395 C424 0.930 . S
H396 C405 0.930 . S
N397 Gd366 2.661 . S
N397 C401 1.350 . S
N397 C402 1.307 . S
C398 H390 0.930 . S
C398 C399 1.355 . S
C398 C400 1.412 . S
C399 H391 0.930 . S
C399 C398 1.355 . S
C399 C402 1.402 . S
C400 C398 1.412 . S
C400 C401 1.417 . S
C400 C424 1.431 . S
C401 N397 1.350 . S
C401 C400 1.417 . S
C401 C404 1.426 . S
C402 H385 0.930 . S
C402 N397 1.307 . S
C402 C399 1.402 . S
N403 Gd366 2.601 . S
N403 C404 1.359 . S
N403 C407 1.334 . S
C404 C401 1.426 . S
C404 N403 1.359 . S
C404 C408 1.413 . S
C405 H396 0.930 . S
C405 C406 1.359 . S
C405 C407 1.394 . S
C406 C405 1.359 . S
C406 C408 1.391 . S
C406 H409 0.929 . S
C407 H389 0.930 . S
C407 N403 1.334 . S
C407 C405 1.394 . S
C408 C404 1.413 . S
C408 C406 1.391 . S
C408 C423 1.437 . S
H409 C406 0.929 . S
O410 Gd366 2.545 . S
O410 C425 1.258 . S
O411 Gd366 2.606 1_554 S
O411 Gd367 2.362 . S
O411 C422 1.284 1_554 S
O412 Gd367 2.324 . S
O412 C432 1.254 . S
O413 Gd366 2.429 . S
O413 C432 1.268 1_556 S
O414 Gd366 2.545 . S
O414 C422 1.250 . S
O415 Gd366 2.412 . S
O415 C425 1.252 . S
O416 Gd367 2.545 . S
O416 C434 1.258 . S
O417 Gd366 2.362 1_554 S
O417 Gd367 2.606 . S
O417 C433 1.284 . S
O418 Gd366 2.324 . S
O418 C441 1.254 . S
O419 Gd367 2.429 . S
O419 C441 1.268 1_554 S
O420 Gd367 2.545 . S
O420 C433 1.250 . S
O421 Gd367 2.412 . S
O421 C434 1.252 . S
C422 O411 1.284 1_556 S
C422 O414 1.250 . S
C423 H392 0.929 . S
C423 C408 1.437 . S
C423 C424 1.317 . S
C424 H395 0.930 . S
C424 C400 1.431 . S
C424 C423 1.317 . S
C425 Gd366 2.828 . S
C425 O410 1.258 . S
C425 O415 1.252 . S
C425 C426 1.497 . S
C426 C425 1.497 . S
C426 C427 1.395 . S
C426 C428 1.380 . S
C427 C426 1.395 . S
C427 C430 1.398 . S
C427 H442 0.930 . S
C428 C426 1.380 . S
C428 C429 1.391 . S
C428 H443 0.930 . S
C429 C428 1.391 . S
C429 C431 1.387 . S
C430 C427 1.398 . S
C430 C431 1.380 . S
C430 H444 0.930 . S
C431 C429 1.387 . S
C431 C430 1.380 . S
C431 H445 0.930 . S
C432 O412 1.254 . S
C432 O413 1.268 1_554 S
C433 O417 1.284 . S
C433 O420 1.250 . S
C434 Gd367 2.828 . S
C434 O416 1.258 . S
C434 O421 1.252 . S
C434 C435 1.497 . S
C435 C434 1.497 . S
C435 C436 1.395 . S
C435 C437 1.380 . S
C436 C435 1.395 . S
C436 C439 1.398 . S
C436 H446 0.930 . S
C437 C435 1.380 . S
C437 C438 1.391 . S
C437 H447 0.930 . S
C438 C437 1.391 . S
C438 C440 1.387 . S
C439 C436 1.398 . S
C439 C440 1.380 . S
C439 H448 0.930 . S
C440 C438 1.387 . S
C440 C439 1.380 . S
C440 H449 0.930 . S
C441 O418 1.254 . S
C441 O419 1.268 1_556 S
H442 C427 0.930 . S
H443 C428 0.930 . S
H444 C430 0.930 . S
H445 C431 0.930 . S
H446 C436 0.930 . S
H447 C437 0.930 . S
H448 C439 0.930 . S
H449 C440 0.930 . S
Gd450 N481 2.661 . S
Gd450 N487 2.601 . S
Gd450 O494 2.545 . S
Gd450 O495 2.606 . S
Gd450 O497 2.429 . S
Gd450 O498 2.545 . S
Gd450 O499 2.412 . S
Gd450 O501 2.362 . S
Gd450 O502 2.324 . S
Gd450 C509 2.828 . S
Gd451 N460 2.661 . S
Gd451 N464 2.601 . S
Gd451 O495 2.362 . S
Gd451 O496 2.324 . S
Gd451 O500 2.545 . S
Gd451 O501 2.606 . S
Gd451 O503 2.429 . S
Gd451 O504 2.545 . S
Gd451 O505 2.412 . S
Gd451 C518 2.828 . S
C452 C455 1.417 . S
C452 C457 1.431 . S
C452 C458 1.412 . S
C453 C456 1.437 . S
C453 C457 1.317 . S
C453 H472 0.929 . S
C454 C455 1.426 . S
C454 C456 1.413 . S
C454 N464 1.359 . S
C455 C452 1.417 . S
C455 C454 1.426 . S
C455 N460 1.350 . S
C456 C453 1.437 . S
C456 C454 1.413 . S
C456 C466 1.391 . S
C457 C452 1.431 . S
C457 C453 1.317 . S
C457 H468 0.930 . S
C458 C452 1.412 . S
C458 C459 1.355 . S
C458 H470 0.930 . S
C459 C458 1.355 . S
C459 C461 1.402 . S
C459 H471 0.930 . S
N460 Gd451 2.661 . S
N460 C455 1.350 . S
N460 C461 1.307 . S
C461 C459 1.402 . S
C461 N460 1.307 . S
C461 H462 0.930 . S
H462 C461 0.930 . S
C463 N464 1.334 . S
C463 C465 1.394 . S
C463 H467 0.930 . S
N464 Gd451 2.601 . S
N464 C454 1.359 . S
N464 C463 1.334 . S
C465 C463 1.394 . S
C465 C466 1.359 . S
C465 H477 0.930 . S
C466 C456 1.391 . S
C466 C465 1.359 . S
C466 H478 0.929 . S
H467 C463 0.930 . S
H468 C457 0.930 . S
H469 C486 0.930 . S
H470 C458 0.930 . S
H471 C459 0.930 . S
H472 C453 0.929 . S
H473 C491 0.930 . S
H474 C482 0.930 . S
H475 C483 0.930 . S
H476 C507 0.929 . S
H477 C465 0.930 . S
H478 C466 0.929 . S
H479 C508 0.930 . S
H480 C489 0.930 . S
N481 Gd450 2.661 . S
N481 C485 1.350 . S
N481 C486 1.307 . S
C482 H474 0.930 . S
C482 C483 1.355 . S
C482 C484 1.412 . S
C483 H475 0.930 . S
C483 C482 1.355 . S
C483 C486 1.402 . S
C484 C482 1.412 . S
C484 C485 1.417 . S
C484 C508 1.431 . S
C485 N481 1.350 . S
C485 C484 1.417 . S
C485 C488 1.426 . S
C486 H469 0.930 . S
C486 N481 1.307 . S
C486 C483 1.402 . S
N487 Gd450 2.601 . S
N487 C488 1.359 . S
N487 C491 1.334 . S
C488 C485 1.426 . S
C488 N487 1.359 . S
C488 C492 1.413 . S
C489 H480 0.930 . S
C489 C490 1.359 . S
C489 C491 1.394 . S
C490 C489 1.359 . S
C490 C492 1.391 . S
C490 H493 0.929 . S
C491 H473 0.930 . S
C491 N487 1.334 . S
C491 C489 1.394 . S
C492 C488 1.413 . S
C492 C490 1.391 . S
C492 C507 1.437 . S
H493 C490 0.929 . S
O494 Gd450 2.545 . S
O494 C509 1.258 . S
O495 Gd450 2.606 . S
O495 Gd451 2.362 . S
O495 C506 1.284 . S
O496 Gd451 2.324 . S
O496 C516 1.254 . S
O497 Gd450 2.429 . S
O497 C516 1.268 . S
O498 Gd450 2.545 . S
O498 C506 1.250 . S
O499 Gd450 2.412 . S
O499 C509 1.252 . S
O500 Gd451 2.545 . S
O500 C518 1.258 . S
O501 Gd450 2.362 . S
O501 Gd451 2.606 . S
O501 C517 1.284 . S
O502 Gd450 2.324 . S
O502 C525 1.254 . S
O503 Gd451 2.429 . S
O503 C525 1.268 . S
O504 Gd451 2.545 . S
O504 C517 1.250 . S
O505 Gd451 2.412 . S
O505 C518 1.252 . S
C506 O495 1.284 . S
C506 O498 1.250 . S
C507 H476 0.929 . S
C507 C492 1.437 . S
C507 C508 1.317 . S
C508 H479 0.930 . S
C508 C484 1.431 . S
C508 C507 1.317 . S
C509 Gd450 2.828 . S
C509 O494 1.258 . S
C509 O499 1.252 . S
C509 C510 1.497 . S
C510 C509 1.497 . S
C510 C511 1.395 . S
C510 C512 1.380 . S
C511 C510 1.395 . S
C511 C514 1.398 . S
C511 H526 0.930 . S
C512 C510 1.380 . S
C512 C513 1.391 . S
C512 H527 0.930 . S
C513 C512 1.391 . S
C513 C515 1.387 . S
C514 C511 1.398 . S
C514 C515 1.380 . S
C514 H528 0.930 . S
C515 C513 1.387 . S
C515 C514 1.380 . S
C515 H529 0.930 . S
C516 O496 1.254 . S
C516 O497 1.268 . S
C517 O501 1.284 . S
C517 O504 1.250 . S
C518 Gd451 2.828 . S
C518 O500 1.258 . S
C518 O505 1.252 . S
C518 C519 1.497 . S
C519 C518 1.497 . S
C519 C520 1.395 . S
C519 C521 1.380 . S
C520 C519 1.395 . S
C520 C523 1.398 . S
C520 H530 0.930 . S
C521 C519 1.380 . S
C521 C522 1.391 . S
C521 H531 0.930 . S
C522 C521 1.391 . S
C522 C524 1.387 . S
C523 C520 1.398 . S
C523 C524 1.380 . S
C523 H532 0.930 . S
C524 C522 1.387 . S
C524 C523 1.380 . S
C524 H533 0.930 . S
C525 O502 1.254 . S
C525 O503 1.268 . S
H526 C511 0.930 . S
H527 C512 0.930 . S
H528 C514 0.930 . S
H529 C515 0.930 . S
H530 C520 0.930 . S
H531 C521 0.930 . S
H532 C523 0.930 . S
H533 C524 0.930 . S
Gd534 N565 2.661 . S
Gd534 N571 2.601 . S
Gd534 O578 2.545 . S
Gd534 O579 2.606 . S
Gd534 O581 2.429 . S
Gd534 O582 2.545 . S
Gd534 O583 2.412 . S
Gd534 O585 2.362 . S
Gd534 O586 2.324 . S
Gd534 C593 2.828 . S
Gd535 N544 2.661 . S
Gd535 N548 2.601 . S
Gd535 O579 2.362 . S
Gd535 O580 2.324 . S
Gd535 O584 2.545 . S
Gd535 O585 2.606 . S
Gd535 O587 2.429 . S
Gd535 O588 2.545 . S
Gd535 O589 2.412 . S
Gd535 C602 2.828 . S
C536 C539 1.417 . S
C536 C541 1.431 . S
C536 C542 1.412 . S
C537 C540 1.437 . S
C537 C541 1.317 . S
C537 H556 0.929 . S
C538 C539 1.426 . S
C538 C540 1.413 . S
C538 N548 1.359 . S
C539 C536 1.417 . S
C539 C538 1.426 . S
C539 N544 1.350 . S
C540 C537 1.437 . S
C540 C538 1.413 . S
C540 C550 1.391 . S
C541 C536 1.431 . S
C541 C537 1.317 . S
C541 H552 0.930 . S
C542 C536 1.412 . S
C542 C543 1.355 . S
C542 H554 0.930 . S
C543 C542 1.355 . S
C543 C545 1.402 . S
C543 H555 0.930 . S
N544 Gd535 2.661 . S
N544 C539 1.350 . S
N544 C545 1.307 . S
C545 C543 1.402 . S
C545 N544 1.307 . S
C545 H546 0.930 . S
H546 C545 0.930 . S
C547 N548 1.334 . S
C547 C549 1.394 . S
C547 H551 0.930 . S
N548 Gd535 2.601 . S
N548 C538 1.359 . S
N548 C547 1.334 . S
C549 C547 1.394 . S
C549 C550 1.359 . S
C549 H561 0.930 . S
C550 C540 1.391 . S
C550 C549 1.359 . S
C550 H562 0.929 . S
H551 C547 0.930 . S
H552 C541 0.930 . S
H553 C570 0.930 . S
H554 C542 0.930 . S
H555 C543 0.930 . S
H556 C537 0.929 . S
H557 C575 0.930 . S
H558 C566 0.930 . S
H559 C567 0.930 . S
H560 C591 0.929 . S
H561 C549 0.930 . S
H562 C550 0.929 . S
H563 C592 0.930 . S
H564 C573 0.930 . S
N565 Gd534 2.661 . S
N565 C569 1.350 . S
N565 C570 1.307 . S
C566 H558 0.930 . S
C566 C567 1.355 . S
C566 C568 1.412 . S
C567 H559 0.930 . S
C567 C566 1.355 . S
C567 C570 1.402 . S
C568 C566 1.412 . S
C568 C569 1.417 . S
C568 C592 1.431 . S
C569 N565 1.350 . S
C569 C568 1.417 . S
C569 C572 1.426 . S
C570 H553 0.930 . S
C570 N565 1.307 . S
C570 C567 1.402 . S
N571 Gd534 2.601 . S
N571 C572 1.359 . S
N571 C575 1.334 . S
C572 C569 1.426 . S
C572 N571 1.359 . S
C572 C576 1.413 . S
C573 H564 0.930 . S
C573 C574 1.359 . S
C573 C575 1.394 . S
C574 C573 1.359 . S
C574 C576 1.391 . S
C574 H577 0.929 . S
C575 H557 0.930 . S
C575 N571 1.334 . S
C575 C573 1.394 . S
C576 C572 1.413 . S
C576 C574 1.391 . S
C576 C591 1.437 . S
H577 C574 0.929 . S
O578 Gd534 2.545 . S
O578 C593 1.258 . S
O579 Gd534 2.606 . S
O579 Gd535 2.362 . S
O579 C590 1.284 . S
O580 Gd535 2.324 . S
O580 C600 1.254 . S
O581 Gd534 2.429 . S
O581 C600 1.268 . S
O582 Gd534 2.545 . S
O582 C590 1.250 . S
O583 Gd534 2.412 . S
O583 C593 1.252 . S
O584 Gd535 2.545 . S
O584 C602 1.258 . S
O585 Gd534 2.362 . S
O585 Gd535 2.606 . S
O585 C601 1.284 . S
O586 Gd534 2.324 . S
O586 C609 1.254 . S
O587 Gd535 2.429 . S
O587 C609 1.268 . S
O588 Gd535 2.545 . S
O588 C601 1.250 . S
O589 Gd535 2.412 . S
O589 C602 1.252 . S
C590 O579 1.284 . S
C590 O582 1.250 . S
C591 H560 0.929 . S
C591 C576 1.437 . S
C591 C592 1.317 . S
C592 H563 0.930 . S
C592 C568 1.431 . S
C592 C591 1.317 . S
C593 Gd534 2.828 . S
C593 O578 1.258 . S
C593 O583 1.252 . S
C593 C594 1.497 . S
C594 C593 1.497 . S
C594 C595 1.395 . S
C594 C596 1.380 . S
C595 C594 1.395 . S
C595 C598 1.398 . S
C595 H610 0.930 . S
C596 C594 1.380 . S
C596 C597 1.391 . S
C596 H611 0.930 . S
C597 C596 1.391 . S
C597 C599 1.387 . S
C598 C595 1.398 . S
C598 C599 1.380 . S
C598 H612 0.930 . S
C599 C597 1.387 . S
C599 C598 1.380 . S
C599 H613 0.930 . S
C600 O580 1.254 . S
C600 O581 1.268 . S
C601 O585 1.284 . S
C601 O588 1.250 . S
C602 Gd535 2.828 . S
C602 O584 1.258 . S
C602 O589 1.252 . S
C602 C603 1.497 . S
C603 C602 1.497 . S
C603 C604 1.395 . S
C603 C605 1.380 . S
C604 C603 1.395 . S
C604 C607 1.398 . S
C604 H614 0.930 . S
C605 C603 1.380 . S
C605 C606 1.391 . S
C605 H615 0.930 . S
C606 C605 1.391 . S
C606 C608 1.387 . S
C607 C604 1.398 . S
C607 C608 1.380 . S
C607 H616 0.930 . S
C608 C606 1.387 . S
C608 C607 1.380 . S
C608 H617 0.930 . S
C609 O586 1.254 . S
C609 O587 1.268 . S
H610 C595 0.930 . S
H611 C596 0.930 . S
H612 C598 0.930 . S
H613 C599 0.930 . S
H614 C604 0.930 . S
H615 C605 0.930 . S
H616 C607 0.930 . S
H617 C608 0.930 . S
Gd618 N649 2.661 . S
Gd618 N655 2.601 . S
Gd618 O662 2.545 . S
Gd618 O663 2.606 . S
Gd618 O665 2.429 . S
Gd618 O666 2.545 . S
Gd618 O667 2.412 . S
Gd618 O669 2.362 . S
Gd618 O670 2.324 . S
Gd618 C677 2.828 . S
Gd619 N628 2.661 . S
Gd619 N632 2.601 . S
Gd619 O663 2.362 . S
Gd619 O664 2.324 . S
Gd619 O668 2.545 . S
Gd619 O669 2.606 . S
Gd619 O671 2.429 . S
Gd619 O672 2.545 . S
Gd619 O673 2.412 . S
Gd619 C686 2.828 . S
C620 C623 1.417 . S
C620 C625 1.431 . S
C620 C626 1.412 . S
C621 C624 1.437 . S
C621 C625 1.317 . S
C621 H640 0.929 . S
C622 C623 1.426 . S
C622 C624 1.413 . S
C622 N632 1.359 . S
C623 C620 1.417 . S
C623 C622 1.426 . S
C623 N628 1.350 . S
C624 C621 1.437 . S
C624 C622 1.413 . S
C624 C634 1.391 . S
C625 C620 1.431 . S
C625 C621 1.317 . S
C625 H636 0.930 . S
C626 C620 1.412 . S
C626 C627 1.355 . S
C626 H638 0.930 . S
C627 C626 1.355 . S
C627 C629 1.402 . S
C627 H639 0.930 . S
N628 Gd619 2.661 . S
N628 C623 1.350 . S
N628 C629 1.307 . S
C629 C627 1.402 . S
C629 N628 1.307 . S
C629 H630 0.930 . S
H630 C629 0.930 . S
C631 N632 1.334 . S
C631 C633 1.394 . S
C631 H635 0.930 . S
N632 Gd619 2.601 . S
N632 C622 1.359 . S
N632 C631 1.334 . S
C633 C631 1.394 . S
C633 C634 1.359 . S
C633 H645 0.930 . S
C634 C624 1.391 . S
C634 C633 1.359 . S
C634 H646 0.929 . S
H635 C631 0.930 . S
H636 C625 0.930 . S
H637 C654 0.930 . S
H638 C626 0.930 . S
H639 C627 0.930 . S
H640 C621 0.929 . S
H641 C659 0.930 . S
H642 C650 0.930 . S
H643 C651 0.930 . S
H644 C675 0.929 . S
H645 C633 0.930 . S
H646 C634 0.929 . S
H647 C676 0.930 . S
H648 C657 0.930 . S
N649 Gd618 2.661 . S
N649 C653 1.350 . S
N649 C654 1.307 . S
C650 H642 0.930 . S
C650 C651 1.355 . S
C650 C652 1.412 . S
C651 H643 0.930 . S
C651 C650 1.355 . S
C651 C654 1.402 . S
C652 C650 1.412 . S
C652 C653 1.417 . S
C652 C676 1.431 . S
C653 N649 1.350 . S
C653 C652 1.417 . S
C653 C656 1.426 . S
C654 H637 0.930 . S
C654 N649 1.307 . S
C654 C651 1.402 . S
N655 Gd618 2.601 . S
N655 C656 1.359 . S
N655 C659 1.334 . S
C656 C653 1.426 . S
C656 N655 1.359 . S
C656 C660 1.413 . S
C657 H648 0.930 . S
C657 C658 1.359 . S
C657 C659 1.394 . S
C658 C657 1.359 . S
C658 C660 1.391 . S
C658 H661 0.929 . S
C659 H641 0.930 . S
C659 N655 1.334 . S
C659 C657 1.394 . S
C660 C656 1.413 . S
C660 C658 1.391 . S
C660 C675 1.437 . S
H661 C658 0.929 . S
O662 Gd618 2.545 . S
O662 C677 1.258 . S
O663 Gd618 2.606 . S
O663 Gd619 2.362 . S
O663 C674 1.284 . S
O664 Gd619 2.324 . S
O664 C684 1.254 . S
O665 Gd618 2.429 . S
O665 C684 1.268 . S
O666 Gd618 2.545 . S
O666 C674 1.250 . S
O667 Gd618 2.412 . S
O667 C677 1.252 . S
O668 Gd619 2.545 . S
O668 C686 1.258 . S
O669 Gd618 2.362 . S
O669 Gd619 2.606 . S
O669 C685 1.284 . S
O670 Gd618 2.324 . S
O670 C693 1.254 . S
O671 Gd619 2.429 . S
O671 C693 1.268 . S
O672 Gd619 2.545 . S
O672 C685 1.250 . S
O673 Gd619 2.412 . S
O673 C686 1.252 . S
C674 O663 1.284 . S
C674 O666 1.250 . S
C675 H644 0.929 . S
C675 C660 1.437 . S
C675 C676 1.317 . S
C676 H647 0.930 . S
C676 C652 1.431 . S
C676 C675 1.317 . S
C677 Gd618 2.828 . S
C677 O662 1.258 . S
C677 O667 1.252 . S
C677 C678 1.497 . S
C678 C677 1.497 . S
C678 C679 1.395 . S
C678 C680 1.380 . S
C679 C678 1.395 . S
C679 C682 1.398 . S
C679 H694 0.930 . S
C680 C678 1.380 . S
C680 C681 1.391 . S
C680 H695 0.930 . S
C681 C680 1.391 . S
C681 C683 1.387 . S
C682 C679 1.398 . S
C682 C683 1.380 . S
C682 H696 0.930 . S
C683 C681 1.387 . S
C683 C682 1.380 . S
C683 H697 0.930 . S
C684 O664 1.254 . S
C684 O665 1.268 . S
C685 O669 1.284 . S
C685 O672 1.250 . S
C686 Gd619 2.828 . S
C686 O668 1.258 . S
C686 O673 1.252 . S
C686 C687 1.497 . S
C687 C686 1.497 . S
C687 C688 1.395 . S
C687 C689 1.380 . S
C688 C687 1.395 . S
C688 C691 1.398 . S
C688 H698 0.930 . S
C689 C687 1.380 . S
C689 C690 1.391 . S
C689 H699 0.930 . S
C690 C689 1.391 . S
C690 C692 1.387 . S
C691 C688 1.398 . S
C691 C692 1.380 . S
C691 H700 0.930 . S
C692 C690 1.387 . S
C692 C691 1.380 . S
C692 H701 0.930 . S
C693 O670 1.254 . S
C693 O671 1.268 . S
H694 C679 0.930 . S
H695 C680 0.930 . S
H696 C682 0.930 . S
H697 C683 0.930 . S
H698 C688 0.930 . S
H699 C689 0.930 . S
H700 C691 0.930 . S
H701 C692 0.930 . S
Gd702 N733 2.661 . S
Gd702 N739 2.601 . S
Gd702 O746 2.545 . S
Gd702 O747 2.606 . S
Gd702 O749 2.429 . S
Gd702 O750 2.545 . S
Gd702 O751 2.412 . S
Gd702 O753 2.362 . S
Gd702 O754 2.324 . S
Gd702 C761 2.828 . S
Gd703 N712 2.661 . S
Gd703 N716 2.601 . S
Gd703 O747 2.362 . S
Gd703 O748 2.324 . S
Gd703 O752 2.545 . S
Gd703 O753 2.606 . S
Gd703 O755 2.429 . S
Gd703 O756 2.545 . S
Gd703 O757 2.412 . S
Gd703 C770 2.828 . S
C704 C707 1.417 . S
C704 C709 1.431 . S
C704 C710 1.412 . S
C705 C708 1.437 . S
C705 C709 1.317 . S
C705 H724 0.929 . S
C706 C707 1.426 . S
C706 C708 1.413 . S
C706 N716 1.359 . S
C707 C704 1.417 . S
C707 C706 1.426 . S
C707 N712 1.350 . S
C708 C705 1.437 . S
C708 C706 1.413 . S
C708 C718 1.391 . S
C709 C704 1.431 . S
C709 C705 1.317 . S
C709 H720 0.930 . S
C710 C704 1.412 . S
C710 C711 1.355 . S
C710 H722 0.930 . S
C711 C710 1.355 . S
C711 C713 1.402 . S
C711 H723 0.930 . S
N712 Gd703 2.661 . S
N712 C707 1.350 . S
N712 C713 1.307 . S
C713 C711 1.402 . S
C713 N712 1.307 . S
C713 H714 0.930 . S
H714 C713 0.930 . S
C715 N716 1.334 . S
C715 C717 1.394 . S
C715 H719 0.930 . S
N716 Gd703 2.601 . S
N716 C706 1.359 . S
N716 C715 1.334 . S
C717 C715 1.394 . S
C717 C718 1.359 . S
C717 H729 0.930 . S
C718 C708 1.391 . S
C718 C717 1.359 . S
C718 H730 0.929 . S
H719 C715 0.930 . S
H720 C709 0.930 . S
H721 C738 0.930 . S
H722 C710 0.930 . S
H723 C711 0.930 . S
H724 C705 0.929 . S
H725 C743 0.930 . S
H726 C734 0.930 . S
H727 C735 0.930 . S
H728 C759 0.929 . S
H729 C717 0.930 . S
H730 C718 0.929 . S
H731 C760 0.930 . S
H732 C741 0.930 . S
N733 Gd702 2.661 . S
N733 C737 1.350 . S
N733 C738 1.307 . S
C734 H726 0.930 . S
C734 C735 1.355 . S
C734 C736 1.412 . S
C735 H727 0.930 . S
C735 C734 1.355 . S
C735 C738 1.402 . S
C736 C734 1.412 . S
C736 C737 1.417 . S
C736 C760 1.431 . S
C737 N733 1.350 . S
C737 C736 1.417 . S
C737 C740 1.426 . S
C738 H721 0.930 . S
C738 N733 1.307 . S
C738 C735 1.402 . S
N739 Gd702 2.601 . S
N739 C740 1.359 . S
N739 C743 1.334 . S
C740 C737 1.426 . S
C740 N739 1.359 . S
C740 C744 1.413 . S
C741 H732 0.930 . S
C741 C742 1.359 . S
C741 C743 1.394 . S
C742 C741 1.359 . S
C742 C744 1.391 . S
C742 H745 0.929 . S
C743 H725 0.930 . S
C743 N739 1.334 . S
C743 C741 1.394 . S
C744 C740 1.413 . S
C744 C742 1.391 . S
C744 C759 1.437 . S
H745 C742 0.929 . S
O746 Gd702 2.545 . S
O746 C761 1.258 . S
O747 Gd702 2.606 . S
O747 Gd703 2.362 . S
O747 C758 1.284 . S
O748 Gd703 2.324 . S
O748 C768 1.254 . S
O749 Gd702 2.429 . S
O749 C768 1.268 . S
O750 Gd702 2.545 . S
O750 C758 1.250 . S
O751 Gd702 2.412 . S
O751 C761 1.252 . S
O752 Gd703 2.545 . S
O752 C770 1.258 . S
O753 Gd702 2.362 . S
O753 Gd703 2.606 . S
O753 C769 1.284 . S
O754 Gd702 2.324 . S
O754 C777 1.254 . S
O755 Gd703 2.429 . S
O755 C777 1.268 . S
O756 Gd703 2.545 . S
O756 C769 1.250 . S
O757 Gd703 2.412 . S
O757 C770 1.252 . S
C758 O747 1.284 . S
C758 O750 1.250 . S
C759 H728 0.929 . S
C759 C744 1.437 . S
C759 C760 1.317 . S
C760 H731 0.930 . S
C760 C736 1.431 . S
C760 C759 1.317 . S
C761 Gd702 2.828 . S
C761 O746 1.258 . S
C761 O751 1.252 . S
C761 C762 1.497 . S
C762 C761 1.497 . S
C762 C763 1.395 . S
C762 C764 1.380 . S
C763 C762 1.395 . S
C763 C766 1.398 . S
C763 H778 0.930 . S
C764 C762 1.380 . S
C764 C765 1.391 . S
C764 H779 0.930 . S
C765 C764 1.391 . S
C765 C767 1.387 . S
C766 C763 1.398 . S
C766 C767 1.380 . S
C766 H780 0.930 . S
C767 C765 1.387 . S
C767 C766 1.380 . S
C767 H781 0.930 . S
C768 O748 1.254 . S
C768 O749 1.268 . S
C769 O753 1.284 . S
C769 O756 1.250 . S
C770 Gd703 2.828 . S
C770 O752 1.258 . S
C770 O757 1.252 . S
C770 C771 1.497 . S
C771 C770 1.497 . S
C771 C772 1.395 . S
C771 C773 1.380 . S
C772 C771 1.395 . S
C772 C775 1.398 . S
C772 H782 0.930 . S
C773 C771 1.380 . S
C773 C774 1.391 . S
C773 H783 0.930 . S
C774 C773 1.391 . S
C774 C776 1.387 . S
C775 C772 1.398 . S
C775 C776 1.380 . S
C775 H784 0.930 . S
C776 C774 1.387 . S
C776 C775 1.380 . S
C776 H785 0.930 . S
C777 O754 1.254 . S
C777 O755 1.268 . S
H778 C763 0.930 . S
H779 C764 0.930 . S
H780 C766 0.930 . S
H781 C767 0.930 . S
H782 C772 0.930 . S
H783 C773 0.930 . S
H784 C775 0.930 . S
H785 C776 0.930 . S
Gd786 N817 2.661 . S
Gd786 N823 2.601 . S
Gd786 O830 2.545 . S
Gd786 O831 2.606 . S
Gd786 O833 2.429 . S
Gd786 O834 2.545 . S
Gd786 O835 2.412 . S
Gd786 O837 2.362 . S
Gd786 O838 2.324 . S
Gd786 C845 2.828 . S
Gd787 N796 2.661 . S
Gd787 N800 2.601 . S
Gd787 O831 2.362 . S
Gd787 O832 2.324 . S
Gd787 O836 2.545 . S
Gd787 O837 2.606 . S
Gd787 O839 2.429 . S
Gd787 O840 2.545 . S
Gd787 O841 2.412 . S
Gd787 C854 2.828 . S
C788 C791 1.417 . S
C788 C793 1.431 . S
C788 C794 1.412 . S
C789 C792 1.437 . S
C789 C793 1.317 . S
C789 H808 0.929 . S
C790 C791 1.426 . S
C790 C792 1.413 . S
C790 N800 1.359 . S
C791 C788 1.417 . S
C791 C790 1.426 . S
C791 N796 1.350 . S
C792 C789 1.437 . S
C792 C790 1.413 . S
C792 C802 1.391 . S
C793 C788 1.431 . S
C793 C789 1.317 . S
C793 H804 0.930 . S
C794 C788 1.412 . S
C794 C795 1.355 . S
C794 H806 0.930 . S
C795 C794 1.355 . S
C795 C797 1.402 . S
C795 H807 0.930 . S
N796 Gd787 2.661 . S
N796 C791 1.350 . S
N796 C797 1.307 . S
C797 C795 1.402 . S
C797 N796 1.307 . S
C797 H798 0.930 . S
H798 C797 0.930 . S
C799 N800 1.334 . S
C799 C801 1.394 . S
C799 H803 0.930 . S
N800 Gd787 2.601 . S
N800 C790 1.359 . S
N800 C799 1.334 . S
C801 C799 1.394 . S
C801 C802 1.359 . S
C801 H813 0.930 . S
C802 C792 1.391 . S
C802 C801 1.359 . S
C802 H814 0.929 . S
H803 C799 0.930 . S
H804 C793 0.930 . S
H805 C822 0.930 . S
H806 C794 0.930 . S
H807 C795 0.930 . S
H808 C789 0.929 . S
H809 C827 0.930 . S
H810 C818 0.930 . S
H811 C819 0.930 . S
H812 C843 0.929 . S
H813 C801 0.930 . S
H814 C802 0.929 . S
H815 C844 0.930 . S
H816 C825 0.930 . S
N817 Gd786 2.661 . S
N817 C821 1.350 . S
N817 C822 1.307 . S
C818 H810 0.930 . S
C818 C819 1.355 . S
C818 C820 1.412 . S
C819 H811 0.930 . S
C819 C818 1.355 . S
C819 C822 1.402 . S
C820 C818 1.412 . S
C820 C821 1.417 . S
C820 C844 1.431 . S
C821 N817 1.350 . S
C821 C820 1.417 . S
C821 C824 1.426 . S
C822 H805 0.930 . S
C822 N817 1.307 . S
C822 C819 1.402 . S
N823 Gd786 2.601 . S
N823 C824 1.359 . S
N823 C827 1.334 . S
C824 C821 1.426 . S
C824 N823 1.359 . S
C824 C828 1.413 . S
C825 H816 0.930 . S
C825 C826 1.359 . S
C825 C827 1.394 . S
C826 C825 1.359 . S
C826 C828 1.391 . S
C826 H829 0.929 . S
C827 H809 0.930 . S
C827 N823 1.334 . S
C827 C825 1.394 . S
C828 C824 1.413 . S
C828 C826 1.391 . S
C828 C843 1.437 . S
H829 C826 0.929 . S
O830 Gd786 2.545 . S
O830 C845 1.258 . S
O831 Gd786 2.606 . S
O831 Gd787 2.362 . S
O831 C842 1.284 . S
O832 Gd787 2.324 . S
O832 C852 1.254 . S
O833 Gd786 2.429 . S
O833 C852 1.268 . S
O834 Gd786 2.545 . S
O834 C842 1.250 . S
O835 Gd786 2.412 . S
O835 C845 1.252 . S
O836 Gd787 2.545 . S
O836 C854 1.258 . S
O837 Gd786 2.362 . S
O837 Gd787 2.606 . S
O837 C853 1.284 . S
O838 Gd786 2.324 . S
O838 C861 1.254 . S
O839 Gd787 2.429 . S
O839 C861 1.268 . S
O840 Gd787 2.545 . S
O840 C853 1.250 . S
O841 Gd787 2.412 . S
O841 C854 1.252 . S
C842 O831 1.284 . S
C842 O834 1.250 . S
C843 H812 0.929 . S
C843 C828 1.437 . S
C843 C844 1.317 . S
C844 H815 0.930 . S
C844 C820 1.431 . S
C844 C843 1.317 . S
C845 Gd786 2.828 . S
C845 O830 1.258 . S
C845 O835 1.252 . S
C845 C846 1.497 . S
C846 C845 1.497 . S
C846 C847 1.395 . S
C846 C848 1.380 . S
C847 C846 1.395 . S
C847 C850 1.398 . S
C847 H862 0.930 . S
C848 C846 1.380 . S
C848 C849 1.391 . S
C848 H863 0.930 . S
C849 C848 1.391 . S
C849 C851 1.387 . S
C850 C847 1.398 . S
C850 C851 1.380 . S
C850 H864 0.930 . S
C851 C849 1.387 . S
C851 C850 1.380 . S
C851 H865 0.930 . S
C852 O832 1.254 . S
C852 O833 1.268 . S
C853 O837 1.284 . S
C853 O840 1.250 . S
C854 Gd787 2.828 . S
C854 O836 1.258 . S
C854 O841 1.252 . S
C854 C855 1.497 . S
C855 C854 1.497 . S
C855 C856 1.395 . S
C855 C857 1.380 . S
C856 C855 1.395 . S
C856 C859 1.398 . S
C856 H866 0.930 . S
C857 C855 1.380 . S
C857 C858 1.391 . S
C857 H867 0.930 . S
C858 C857 1.391 . S
C858 C860 1.387 . S
C859 C856 1.398 . S
C859 C860 1.380 . S
C859 H868 0.930 . S
C860 C858 1.387 . S
C860 C859 1.380 . S
C860 H869 0.930 . S
C861 O838 1.254 . S
C861 O839 1.268 . S
H862 C847 0.930 . S
H863 C848 0.930 . S
H864 C850 0.930 . S
H865 C851 0.930 . S
H866 C856 0.930 . S
H867 C857 0.930 . S
H868 C859 0.930 . S
H869 C860 0.930 . S
Gd870 N901 2.661 . S
Gd870 N907 2.601 . S
Gd870 O914 2.545 . S
Gd870 O915 2.606 . S
Gd870 O917 2.429 . S
Gd870 O918 2.545 . S
Gd870 O919 2.412 . S
Gd870 O921 2.362 . S
Gd870 O922 2.324 . S
Gd870 C929 2.828 . S
Gd871 N880 2.661 . S
Gd871 N884 2.601 . S
Gd871 O915 2.362 . S
Gd871 O916 2.324 . S
Gd871 O920 2.545 . S
Gd871 O921 2.606 . S
Gd871 O923 2.429 . S
Gd871 O924 2.545 . S
Gd871 O925 2.412 . S
Gd871 C938 2.828 . S
C872 C875 1.417 . S
C872 C877 1.431 . S
C872 C878 1.412 . S
C873 C876 1.437 . S
C873 C877 1.317 . S
C873 H892 0.929 . S
C874 C875 1.426 . S
C874 C876 1.413 . S
C874 N884 1.359 . S
C875 C872 1.417 . S
C875 C874 1.426 . S
C875 N880 1.350 . S
C876 C873 1.437 . S
C876 C874 1.413 . S
C876 C886 1.391 . S
C877 C872 1.431 . S
C877 C873 1.317 . S
C877 H888 0.930 . S
C878 C872 1.412 . S
C878 C879 1.355 . S
C878 H890 0.930 . S
C879 C878 1.355 . S
C879 C881 1.402 . S
C879 H891 0.930 . S
N880 Gd871 2.661 . S
N880 C875 1.350 . S
N880 C881 1.307 . S
C881 C879 1.402 . S
C881 N880 1.307 . S
C881 H882 0.930 . S
H882 C881 0.930 . S
C883 N884 1.334 . S
C883 C885 1.394 . S
C883 H887 0.930 . S
N884 Gd871 2.601 . S
N884 C874 1.359 . S
N884 C883 1.334 . S
C885 C883 1.394 . S
C885 C886 1.359 . S
C885 H897 0.930 . S
C886 C876 1.391 . S
C886 C885 1.359 . S
C886 H898 0.929 . S
H887 C883 0.930 . S
H888 C877 0.930 . S
H889 C906 0.930 . S
H890 C878 0.930 . S
H891 C879 0.930 . S
H892 C873 0.929 . S
H893 C911 0.930 . S
H894 C902 0.930 . S
H895 C903 0.930 . S
H896 C927 0.929 . S
H897 C885 0.930 . S
H898 C886 0.929 . S
H899 C928 0.930 . S
H900 C909 0.930 . S
N901 Gd870 2.661 . S
N901 C905 1.350 . S
N901 C906 1.307 . S
C902 H894 0.930 . S
C902 C903 1.355 . S
C902 C904 1.412 . S
C903 H895 0.930 . S
C903 C902 1.355 . S
C903 C906 1.402 . S
C904 C902 1.412 . S
C904 C905 1.417 . S
C904 C928 1.431 . S
C905 N901 1.350 . S
C905 C904 1.417 . S
C905 C908 1.426 . S
C906 H889 0.930 . S
C906 N901 1.307 . S
C906 C903 1.402 . S
N907 Gd870 2.601 . S
N907 C908 1.359 . S
N907 C911 1.334 . S
C908 C905 1.426 . S
C908 N907 1.359 . S
C908 C912 1.413 . S
C909 H900 0.930 . S
C909 C910 1.359 . S
C909 C911 1.394 . S
C910 C909 1.359 . S
C910 C912 1.391 . S
C910 H913 0.929 . S
C911 H893 0.930 . S
C911 N907 1.334 . S
C911 C909 1.394 . S
C912 C908 1.413 . S
C912 C910 1.391 . S
C912 C927 1.437 . S
H913 C910 0.929 . S
O914 Gd870 2.545 . S
O914 C929 1.258 . S
O915 Gd870 2.606 . S
O915 Gd871 2.362 . S
O915 C926 1.284 . S
O916 Gd871 2.324 . S
O916 C936 1.254 . S
O917 Gd870 2.429 . S
O917 C936 1.268 . S
O918 Gd870 2.545 . S
O918 C926 1.250 . S
O919 Gd870 2.412 . S
O919 C929 1.252 . S
O920 Gd871 2.545 . S
O920 C938 1.258 . S
O921 Gd870 2.362 . S
O921 Gd871 2.606 . S
O921 C937 1.284 . S
O922 Gd870 2.324 . S
O922 C945 1.254 . S
O923 Gd871 2.429 . S
O923 C945 1.268 . S
O924 Gd871 2.545 . S
O924 C937 1.250 . S
O925 Gd871 2.412 . S
O925 C938 1.252 . S
C926 O915 1.284 . S
C926 O918 1.250 . S
C927 H896 0.929 . S
C927 C912 1.437 . S
C927 C928 1.317 . S
C928 H899 0.930 . S
C928 C904 1.431 . S
C928 C927 1.317 . S
C929 Gd870 2.828 . S
C929 O914 1.258 . S
C929 O919 1.252 . S
C929 C930 1.497 . S
C930 C929 1.497 . S
C930 C931 1.395 . S
C930 C932 1.380 . S
C931 C930 1.395 . S
C931 C934 1.398 . S
C931 H946 0.930 . S
C932 C930 1.380 . S
C932 C933 1.391 . S
C932 H947 0.930 . S
C933 C932 1.391 . S
C933 C935 1.387 . S
C934 C931 1.398 . S
C934 C935 1.380 . S
C934 H948 0.930 . S
C935 C933 1.387 . S
C935 C934 1.380 . S
C935 H949 0.930 . S
C936 O916 1.254 . S
C936 O917 1.268 . S
C937 O921 1.284 . S
C937 O924 1.250 . S
C938 Gd871 2.828 . S
C938 O920 1.258 . S
C938 O925 1.252 . S
C938 C939 1.497 . S
C939 C938 1.497 . S
C939 C940 1.395 . S
C939 C941 1.380 . S
C940 C939 1.395 . S
C940 C943 1.398 . S
C940 H950 0.930 . S
C941 C939 1.380 . S
C941 C942 1.391 . S
C941 H951 0.930 . S
C942 C941 1.391 . S
C942 C944 1.387 . S
C943 C940 1.398 . S
C943 C944 1.380 . S
C943 H952 0.930 . S
C944 C942 1.387 . S
C944 C943 1.380 . S
C944 H953 0.930 . S
C945 O922 1.254 . S
C945 O923 1.268 . S
H946 C931 0.930 . S
H947 C932 0.930 . S
H948 C934 0.930 . S
H949 C935 0.930 . S
H950 C940 0.930 . S
H951 C941 0.930 . S
H952 C943 0.930 . S
H953 C944 0.930 . S
H954 C960 0.930 . S
H955 C963 0.930 . S
H956 C964 0.930 . S
H957 C965 0.930 . S
H958 C968 0.930 . S
H959 C969 0.930 . S
C960 H954 0.930 . S
C960 C961 1.355 . S
C960 C962 1.415 . S
C961 C960 1.355 . S
C961 C963 1.419 . S
C962 C960 1.415 . S
C962 C967 1.425 . S
C962 C969 1.409 . S
C963 H955 0.930 . S
C963 C961 1.419 . S
C963 C964 1.362 . S
C964 H956 0.930 . S
C964 C963 1.362 . S
C964 C967 1.409 . S
C965 H957 0.930 . S
C965 C966 1.355 . S
C965 C967 1.415 . S
C966 C965 1.355 . S
C966 C968 1.419 . S
C967 C962 1.425 . S
C967 C964 1.409 . S
C967 C965 1.415 . S
C968 H958 0.930 . S
C968 C966 1.419 . S
C968 C969 1.362 . S
C969 H959 0.930 . S
C969 C962 1.409 . S
C969 C968 1.362 . S
H970 C976 0.930 . S
H971 C979 0.930 . S
H972 C980 0.930 . S
H973 C981 0.930 . S
H974 C984 0.930 . S
H975 C985 0.930 . S
C976 H970 0.930 . S
C976 C977 1.355 . S
C976 C978 1.415 . S
C977 C976 1.355 . S
C977 C979 1.419 . S
C978 C976 1.415 . S
C978 C983 1.425 . S
C978 C985 1.409 . S
C979 H971 0.930 . S
C979 C977 1.419 . S
C979 C980 1.362 . S
C980 H972 0.930 . S
C980 C979 1.362 . S
C980 C983 1.409 . S
C981 H973 0.930 . S
C981 C982 1.355 . S
C981 C983 1.415 . S
C982 C981 1.355 . S
C982 C984 1.419 . S
C983 C978 1.425 . S
C983 C980 1.409 . S
C983 C981 1.415 . S
C984 H974 0.930 . S
C984 C982 1.419 . S
C984 C985 1.362 . S
C985 H975 0.930 . S
C985 C978 1.409 . S
C985 C984 1.362 . S
H986 C992 0.930 . S
H987 C995 0.930 . S
H988 C996 0.930 . S
H989 C997 0.930 . S
H990 C1000 0.930 . S
H991 C1001 0.930 . S
C992 H986 0.930 . S
C992 C993 1.355 . S
C992 C994 1.415 . S
C993 C992 1.355 . S
C993 C995 1.419 . S
C994 C992 1.415 . S
C994 C999 1.425 . S
C994 C1001 1.409 . S
C995 H987 0.930 . S
C995 C993 1.419 . S
C995 C996 1.362 . S
C996 H988 0.930 . S
C996 C995 1.362 . S
C996 C999 1.409 . S
C997 H989 0.930 . S
C997 C998 1.355 . S
C997 C999 1.415 . S
C998 C997 1.355 . S
C998 C1000 1.419 . S
C999 C994 1.425 . S
C999 C996 1.409 . S
C999 C997 1.415 . S
C1000 H990 0.930 . S
C1000 C998 1.419 . S
C1000 C1001 1.362 . S
C1001 H991 0.930 . S
C1001 C994 1.409 . S
C1001 C1000 1.362 . S
H1002 C1008 0.930 . S
H1003 C1011 0.930 . S
H1004 C1012 0.925 1_554 S
H1005 C1013 0.932 . S
H1006 C1016 0.930 . S
H1007 C1017 0.930 . S
C1008 H1002 0.930 . S
C1008 C1009 1.355 . S
C1008 C1010 1.415 . S
C1009 C1008 1.355 . S
C1009 C1011 1.419 . S
C1010 C1008 1.415 . S
C1010 C1015 1.425 . S
C1010 C1017 1.409 . S
C1011 H1003 0.930 . S
C1011 C1009 1.419 . S
C1011 C1012 1.364 . S
C1012 H1004 0.925 1_556 S
C1012 C1011 1.364 . S
C1012 C1015 1.412 . S
C1013 H1005 0.932 . S
C1013 C1014 1.353 1_554 S
C1013 C1015 1.414 1_554 S
C1014 C1013 1.353 1_556 S
C1014 C1016 1.419 . S
C1015 C1010 1.425 . S
C1015 C1012 1.412 . S
C1015 C1013 1.414 1_556 S
C1016 H1006 0.930 . S
C1016 C1014 1.419 . S
C1016 C1017 1.362 . S
C1017 H1007 0.930 . S
C1017 C1010 1.409 . S
C1017 C1016 1.362 . S
H1018 C1024 0.930 . S
H1019 C1027 0.930 . S
H1020 C1028 0.930 . S
H1021 C1029 0.930 . S
H1022 C1032 0.930 . S
H1023 C1033 0.930 . S
C1024 H1018 0.930 . S
C1024 C1025 1.355 . S
C1024 C1026 1.415 . S
C1025 C1024 1.355 . S
C1025 C1027 1.419 . S
C1026 C1024 1.415 . S
C1026 C1031 1.425 . S
C1026 C1033 1.409 . S
C1027 H1019 0.930 . S
C1027 C1025 1.419 . S
C1027 C1028 1.362 . S
C1028 H1020 0.930 . S
C1028 C1027 1.362 . S
C1028 C1031 1.409 . S
C1029 H1021 0.930 . S
C1029 C1030 1.355 . S
C1029 C1031 1.415 . S
C1030 C1029 1.355 . S
C1030 C1032 1.419 . S
C1031 C1026 1.425 . S
C1031 C1028 1.409 . S
C1031 C1029 1.415 . S
C1032 H1022 0.930 . S
C1032 C1030 1.419 . S
C1032 C1033 1.362 . S
C1033 H1023 0.930 . S
C1033 C1026 1.409 . S
C1033 C1032 1.362 . S
H1034 C1040 0.930 . S
H1035 C1043 0.930 . S
H1036 C1044 0.930 . S
H1037 C1045 0.930 1_554 S
H1038 C1048 0.930 . S
H1039 C1049 0.930 . S
C1040 H1034 0.930 . S
C1040 C1041 1.355 . S
C1040 C1042 1.415 . S
C1041 C1040 1.355 . S
C1041 C1043 1.419 . S
C1042 C1040 1.415 . S
C1042 C1047 1.425 . S
C1042 C1049 1.409 . S
C1043 H1035 0.930 . S
C1043 C1041 1.419 . S
C1043 C1044 1.362 . S
C1044 H1036 0.930 . S
C1044 C1043 1.362 . S
C1044 C1047 1.409 . S
C1045 H1037 0.930 1_556 S
C1045 C1046 1.355 . S
C1045 C1047 1.415 . S
C1046 C1045 1.355 . S
C1046 C1048 1.419 . S
C1047 C1042 1.425 . S
C1047 C1044 1.409 . S
C1047 C1045 1.415 . S
C1048 H1038 0.930 . S
C1048 C1046 1.419 . S
C1048 C1049 1.362 . S
C1049 H1039 0.930 . S
C1049 C1042 1.409 . S
C1049 C1048 1.362 . S
H1050 C1056 0.930 . S
H1051 C1059 0.930 1_554 S
H1052 C1060 0.930 . S
H1053 C1061 0.930 . S
H1054 C1064 0.930 . S
H1055 C1065 0.930 . S
C1056 H1050 0.930 . S
C1056 C1057 1.355 . S
C1056 C1058 1.415 . S
C1057 C1056 1.355 . S
C1057 C1059 1.419 . S
C1058 C1056 1.415 . S
C1058 C1063 1.425 . S
C1058 C1065 1.409 . S
C1059 H1051 0.930 1_556 S
C1059 C1057 1.419 . S
C1059 C1060 1.362 1_556 S
C1060 H1052 0.930 . S
C1060 C1059 1.362 1_554 S
C1060 C1063 1.409 1_554 S
C1061 H1053 0.930 . S
C1061 C1062 1.355 1_554 S
C1061 C1063 1.415 1_554 S
C1062 C1061 1.355 1_556 S
C1062 C1064 1.419 . S
C1063 C1058 1.425 . S
C1063 C1060 1.409 1_556 S
C1063 C1061 1.415 1_556 S
C1064 H1054 0.930 . S
C1064 C1062 1.419 . S
C1064 C1065 1.362 . S
C1065 H1055 0.930 . S
C1065 C1058 1.409 . S
C1065 C1064 1.362 . S
H1066 C1072 0.930 . S
H1067 C1075 0.930 . S
H1068 C1076 0.930 1_554 S
H1069 C1077 0.934 . S
H1070 C1080 0.930 . S
H1071 C1081 0.930 . S
C1072 H1066 0.930 . S
C1072 C1073 1.355 . S
C1072 C1074 1.415 . S
C1073 C1072 1.355 . S
C1073 C1075 1.419 . S
C1074 C1072 1.415 . S
C1074 C1079 1.425 . S
C1074 C1081 1.409 . S
C1075 H1067 0.930 . S
C1075 C1073 1.419 . S
C1075 C1076 1.362 . S
C1076 H1068 0.930 1_556 S
C1076 C1075 1.362 . S
C1076 C1079 1.409 . S
C1077 H1069 0.934 . S
C1077 C1078 1.353 1_554 S
C1077 C1079 1.412 1_554 S
C1078 C1077 1.353 1_556 S
C1078 C1080 1.419 . S
C1079 C1074 1.425 . S
C1079 C1076 1.409 . S
C1079 C1077 1.412 1_556 S
C1080 H1070 0.930 . S
C1080 C1078 1.419 . S
C1080 C1081 1.362 . S
C1081 H1071 0.930 . S
C1081 C1074 1.409 . S
C1081 C1080 1.362 . S
H1082 C1088 0.930 . S
H1083 C1091 0.951 . S
H1084 C1092 0.917 1_554 S
H1085 C1093 0.930 1_554 S
H1086 C1096 0.930 . S
H1087 C1097 0.930 . S
C1088 H1082 0.930 . S
C1088 C1089 1.355 . S
C1088 C1090 1.415 . S
C1089 C1088 1.355 . S
C1089 C1091 1.419 . S
C1090 C1088 1.415 . S
C1090 C1095 1.425 . S
C1090 C1097 1.409 . S
C1091 H1083 0.951 . S
C1091 C1089 1.419 . S
C1091 C1092 1.367 . S
C1092 H1084 0.917 1_556 S
C1092 C1091 1.367 . S
C1092 C1095 1.418 . S
C1093 H1085 0.930 1_556 S
C1093 C1094 1.355 . S
C1093 C1095 1.415 . S
C1094 C1093 1.355 . S
C1094 C1096 1.419 . S
C1095 C1090 1.425 . S
C1095 C1092 1.418 . S
C1095 C1093 1.415 . S
C1096 H1086 0.930 . S
C1096 C1094 1.419 . S
C1096 C1097 1.362 . S
C1097 H1087 0.930 . S
C1097 C1090 1.409 . S
C1097 C1096 1.362 . S
H1098 C1104 0.930 . S
H1099 C1107 0.930 . S
H1100 C1108 0.930 . S
H1101 C1109 0.930 . S
H1102 C1112 0.930 . S
H1103 C1113 0.930 . S
C1104 H1098 0.930 . S
C1104 C1105 1.355 . S
C1104 C1106 1.415 . S
C1105 C1104 1.355 . S
C1105 C1107 1.419 . S
C1106 C1104 1.415 . S
C1106 C1111 1.425 . S
C1106 C1113 1.409 . S
C1107 H1099 0.930 . S
C1107 C1105 1.419 . S
C1107 C1108 1.362 . S
C1108 H1100 0.930 . S
C1108 C1107 1.362 . S
C1108 C1111 1.409 . S
C1109 H1101 0.930 . S
C1109 C1110 1.355 . S
C1109 C1111 1.415 . S
C1110 C1109 1.355 . S
C1110 C1112 1.419 . S
C1111 C1106 1.425 . S
C1111 C1108 1.409 . S
C1111 C1109 1.415 . S
C1112 H1102 0.930 . S
C1112 C1110 1.419 . S
C1112 C1113 1.362 . S
C1113 H1103 0.930 . S
C1113 C1106 1.409 . S
C1113 C1112 1.362 . S
H1114 C1120 0.930 . S
H1115 C1123 0.930 . S
H1116 C1124 0.930 1_556 S
H1117 C1125 0.930 1_556 S
H1118 C1128 0.930 . S
H1119 C1129 0.930 . S
C1120 H1114 0.930 . S
C1120 C1121 1.355 . S
C1120 C1122 1.415 . S
C1121 C1120 1.355 . S
C1121 C1123 1.419 . S
C1122 C1120 1.415 . S
C1122 C1127 1.425 . S
C1122 C1129 1.409 . S
C1123 H1115 0.930 . S
C1123 C1121 1.419 . S
C1123 C1124 1.362 . S
C1124 H1116 0.930 1_554 S
C1124 C1123 1.362 . S
C1124 C1127 1.409 . S
C1125 H1117 0.930 1_554 S
C1125 C1126 1.355 . S
C1125 C1127 1.415 . S
C1126 C1125 1.355 . S
C1126 C1128 1.419 . S
C1127 C1122 1.425 . S
C1127 C1124 1.409 . S
C1127 C1125 1.415 . S
C1128 H1118 0.930 . S
C1128 C1126 1.419 . S
C1128 C1129 1.362 . S
C1129 H1119 0.930 . S
C1129 C1122 1.409 . S
C1129 C1128 1.362 . S
H1130 C1136 0.930 . S
H1131 C1139 0.930 . S
H1132 C1140 0.930 . S
H1133 C1141 0.930 . S
H1134 C1144 0.930 . S
H1135 C1145 0.930 . S
C1136 H1130 0.930 . S
C1136 C1137 1.355 . S
C1136 C1138 1.415 . S
C1137 C1136 1.355 . S
C1137 C1139 1.419 . S
C1138 C1136 1.415 . S
C1138 C1143 1.425 . S
C1138 C1145 1.409 . S
C1139 H1131 0.930 . S
C1139 C1137 1.419 . S
C1139 C1140 1.362 . S
C1140 H1132 0.930 . S
C1140 C1139 1.362 . S
C1140 C1143 1.409 . S
C1141 H1133 0.930 . S
C1141 C1142 1.355 . S
C1141 C1143 1.415 . S
C1142 C1141 1.355 . S
C1142 C1144 1.419 . S
C1143 C1138 1.425 . S
C1143 C1140 1.409 . S
C1143 C1141 1.415 . S
C1144 H1134 0.930 . S
C1144 C1142 1.419 . S
C1144 C1145 1.362 . S
C1145 H1135 0.930 . S
C1145 C1138 1.409 . S
C1145 C1144 1.362 . S
H1146 C1152 0.930 1_655 S
H1147 C1155 0.930 . S
H1148 C1156 0.930 . S
H1149 C1157 0.930 . S
H1150 C1160 0.930 . S
H1151 C1161 0.930 . S
C1152 H1146 0.930 1_455 S
C1152 C1153 1.355 1_455 S
C1152 C1154 1.415 . S
C1153 C1152 1.355 1_655 S
C1153 C1155 1.419 1_655 S
C1154 C1152 1.415 . S
C1154 C1159 1.425 . S
C1154 C1161 1.409 . S
C1155 H1147 0.930 . S
C1155 C1153 1.419 1_455 S
C1155 C1156 1.362 . S
C1156 H1148 0.930 . S
C1156 C1155 1.362 . S
C1156 C1159 1.409 . S
C1157 H1149 0.930 . S
C1157 C1158 1.355 . S
C1157 C1159 1.415 . S
C1158 C1157 1.355 . S
C1158 C1160 1.419 . S
C1159 C1154 1.425 . S
C1159 C1156 1.409 . S
C1159 C1157 1.415 . S
C1160 H1150 0.930 . S
C1160 C1158 1.419 . S
C1160 C1161 1.362 . S
C1161 H1151 0.930 . S
C1161 C1154 1.409 . S
C1161 C1160 1.362 . S
H1162 C1168 0.930 . S
H1163 C1171 0.930 . S
H1164 C1172 0.930 . S
H1165 C1173 0.930 . S
H1166 C1176 0.930 . S
H1167 C1177 0.930 . S
C1168 H1162 0.930 . S
C1168 C1169 1.355 . S
C1168 C1170 1.415 . S
C1169 C1168 1.355 . S
C1169 C1171 1.419 . S
C1170 C1168 1.415 . S
C1170 C1175 1.425 . S
C1170 C1177 1.409 . S
C1171 H1163 0.930 . S
C1171 C1169 1.419 . S
C1171 C1172 1.362 . S
C1172 H1164 0.930 . S
C1172 C1171 1.362 . S
C1172 C1175 1.409 . S
C1173 H1165 0.930 . S
C1173 C1174 1.355 . S
C1173 C1175 1.415 . S
C1174 C1173 1.355 . S
C1174 C1176 1.419 . S
C1175 C1170 1.425 . S
C1175 C1172 1.409 . S
C1175 C1173 1.415 . S
C1176 H1166 0.930 . S
C1176 C1174 1.419 . S
C1176 C1177 1.362 . S
C1177 H1167 0.930 . S
C1177 C1170 1.409 . S
C1177 C1176 1.362 . S
H1178 C1184 0.930 . S
H1179 C1187 0.930 . S
H1180 C1188 0.930 . S
H1181 C1189 0.930 . S
H1182 C1192 0.930 . S
H1183 C1193 0.930 . S
C1184 H1178 0.930 . S
C1184 C1185 1.355 . S
C1184 C1186 1.415 1_545 S
C1185 C1184 1.355 . S
C1185 C1187 1.419 . S
C1186 C1184 1.415 1_565 S
C1186 C1191 1.425 . S
C1186 C1193 1.409 . S
C1187 H1179 0.930 . S
C1187 C1185 1.419 . S
C1187 C1188 1.362 1_545 S
C1188 H1180 0.930 . S
C1188 C1187 1.362 1_565 S
C1188 C1191 1.409 . S
C1189 H1181 0.930 . S
C1189 C1190 1.355 . S
C1189 C1191 1.415 . S
C1190 C1189 1.355 . S
C1190 C1192 1.419 . S
C1191 C1186 1.425 . S
C1191 C1188 1.409 . S
C1191 C1189 1.415 . S
C1192 H1182 0.930 . S
C1192 C1190 1.419 . S
C1192 C1193 1.362 . S
C1193 H1183 0.930 . S
C1193 C1186 1.409 . S
C1193 C1192 1.362 . S
H1194 C1200 0.930 . S
H1195 C1203 0.930 . S
H1196 C1204 0.930 . S
H1197 C1205 0.930 . S
H1198 C1208 0.930 . S
H1199 C1209 0.930 . S
C1200 H1194 0.930 . S
C1200 C1201 1.355 . S
C1200 C1202 1.415 . S
C1201 C1200 1.355 . S
C1201 C1203 1.419 . S
C1202 C1200 1.415 . S
C1202 C1207 1.425 . S
C1202 C1209 1.409 . S
C1203 H1195 0.930 . S
C1203 C1201 1.419 . S
C1203 C1204 1.362 . S
C1204 H1196 0.930 . S
C1204 C1203 1.362 . S
C1204 C1207 1.409 . S
C1205 H1197 0.930 . S
C1205 C1206 1.355 . S
C1205 C1207 1.415 . S
C1206 C1205 1.355 . S
C1206 C1208 1.419 . S
C1207 C1202 1.425 . S
C1207 C1204 1.409 . S
C1207 C1205 1.415 . S
C1208 H1198 0.930 . S
C1208 C1206 1.419 . S
C1208 C1209 1.362 . S
C1209 H1199 0.930 . S
C1209 C1202 1.409 . S
C1209 C1208 1.362 . S
H1210 C1216 0.930 . S
H1211 C1219 0.930 . S
H1212 C1220 0.930 . S
H1213 C1221 0.930 . S
H1214 C1224 0.930 . S
H1215 C1225 0.930 . S
C1216 H1210 0.930 . S
C1216 C1217 1.355 . S
C1216 C1218 1.415 . S
C1217 C1216 1.355 . S
C1217 C1219 1.419 . S
C1218 C1216 1.415 . S
C1218 C1223 1.425 . S
C1218 C1225 1.409 . S
C1219 H1211 0.930 . S
C1219 C1217 1.419 . S
C1219 C1220 1.362 . S
C1220 H1212 0.930 . S
C1220 C1219 1.362 . S
C1220 C1223 1.409 . S
C1221 H1213 0.930 . S
C1221 C1222 1.355 . S
C1221 C1223 1.415 . S
C1222 C1221 1.355 . S
C1222 C1224 1.419 . S
C1223 C1218 1.425 . S
C1223 C1220 1.409 . S
C1223 C1221 1.415 . S
C1224 H1214 0.930 . S
C1224 C1222 1.419 . S
C1224 C1225 1.362 . S
C1225 H1215 0.930 . S
C1225 C1218 1.409 . S
C1225 C1224 1.362 . S
H1226 C1232 0.930 . S
H1227 C1235 0.930 . S
H1228 C1236 0.930 . S
H1229 C1237 0.930 . S
H1230 C1240 0.930 . S
H1231 C1241 0.930 . S
C1232 H1226 0.930 . S
C1232 C1233 1.355 . S
C1232 C1234 1.415 . S
C1233 C1232 1.355 . S
C1233 C1235 1.419 . S
C1234 C1232 1.415 . S
C1234 C1239 1.425 . S
C1234 C1241 1.409 . S
C1235 H1227 0.930 . S
C1235 C1233 1.419 . S
C1235 C1236 1.362 . S
C1236 H1228 0.930 . S
C1236 C1235 1.362 . S
C1236 C1239 1.409 . S
C1237 H1229 0.930 . S
C1237 C1238 1.355 . S
C1237 C1239 1.415 . S
C1238 C1237 1.355 . S
C1238 C1240 1.419 . S
C1239 C1234 1.425 . S
C1239 C1236 1.409 . S
C1239 C1237 1.415 . S
C1240 H1230 0.930 . S
C1240 C1238 1.419 . S
C1240 C1241 1.362 . S
C1241 H1231 0.930 . S
C1241 C1234 1.409 . S
C1241 C1240 1.362 . S
H1242 C1248 0.930 . S
H1243 C1251 0.930 . S
H1244 C1252 0.930 . S
H1245 C1253 0.930 . S
H1246 C1256 0.930 . S
H1247 C1257 0.930 . S
C1248 H1242 0.930 . S
C1248 C1249 1.355 . S
C1248 C1250 1.415 . S
C1249 C1248 1.355 . S
C1249 C1251 1.419 . S
C1250 C1248 1.415 . S
C1250 C1255 1.425 . S
C1250 C1257 1.409 . S
C1251 H1243 0.930 . S
C1251 C1249 1.419 . S
C1251 C1252 1.362 . S
C1252 H1244 0.930 . S
C1252 C1251 1.362 . S
C1252 C1255 1.409 . S
C1253 H1245 0.930 . S
C1253 C1254 1.355 . S
C1253 C1255 1.415 . S
C1254 C1253 1.355 . S
C1254 C1256 1.419 . S
C1255 C1250 1.425 . S
C1255 C1252 1.409 . S
C1255 C1253 1.415 . S
C1256 H1246 0.930 . S
C1256 C1254 1.419 . S
C1256 C1257 1.362 . S
C1257 H1247 0.930 . S
C1257 C1250 1.409 . S
C1257 C1256 1.362 . S
H1258 C1264 0.930 . S
H1259 C1267 0.930 . S
H1260 C1268 0.930 . S
H1261 C1269 0.930 . S
H1262 C1272 0.930 . S
H1263 C1273 0.930 . S
C1264 H1258 0.930 . S
C1264 C1265 1.355 . S
C1264 C1266 1.415 . S
C1265 C1264 1.355 . S
C1265 C1267 1.419 . S
C1266 C1264 1.415 . S
C1266 C1271 1.425 . S
C1266 C1273 1.409 . S
C1267 H1259 0.930 . S
C1267 C1265 1.419 . S
C1267 C1268 1.362 . S
C1268 H1260 0.930 . S
C1268 C1267 1.362 . S
C1268 C1271 1.409 . S
C1269 H1261 0.930 . S
C1269 C1270 1.355 . S
C1269 C1271 1.415 . S
C1270 C1269 1.355 . S
C1270 C1272 1.419 . S
C1271 C1266 1.425 . S
C1271 C1268 1.409 . S
C1271 C1269 1.415 . S
C1272 H1262 0.930 . S
C1272 C1270 1.419 . S
C1272 C1273 1.362 . S
C1273 H1263 0.930 . S
C1273 C1266 1.409 . S
C1273 C1272 1.362 . S
H1274 C1280 0.930 . S
H1275 C1283 0.930 . S
H1276 C1284 0.930 . S
H1277 C1285 0.930 . S
H1278 C1288 0.930 . S
H1279 C1289 0.930 . S
C1280 H1274 0.930 . S
C1280 C1281 1.355 . S
C1280 C1282 1.415 . S
C1281 C1280 1.355 . S
C1281 C1283 1.419 . S
C1282 C1280 1.415 . S
C1282 C1287 1.425 . S
C1282 C1289 1.409 . S
C1283 H1275 0.930 . S
C1283 C1281 1.419 . S
C1283 C1284 1.362 . S
C1284 H1276 0.930 . S
C1284 C1283 1.362 . S
C1284 C1287 1.409 . S
C1285 H1277 0.930 . S
C1285 C1286 1.355 . S
C1285 C1287 1.415 . S
C1286 C1285 1.355 . S
C1286 C1288 1.419 . S
C1287 C1282 1.425 . S
C1287 C1284 1.409 . S
C1287 C1285 1.415 . S
C1288 H1278 0.930 . S
C1288 C1286 1.419 . S
C1288 C1289 1.362 . S
C1289 H1279 0.930 . S
C1289 C1282 1.409 . S
C1289 C1288 1.362 . S
H1290 C1296 0.930 . S
H1291 C1299 0.930 . S
H1292 C1300 0.930 . S
H1293 C1301 0.930 . S
H1294 C1304 0.930 . S
H1295 C1305 0.930 . S
C1296 H1290 0.930 . S
C1296 C1297 1.355 1_565 S
C1296 C1298 1.415 . S
C1297 C1296 1.355 1_545 S
C1297 C1299 1.419 . S
C1298 C1296 1.415 . S
C1298 C1303 1.425 . S
C1298 C1305 1.409 . S
C1299 H1291 0.930 . S
C1299 C1297 1.419 . S
C1299 C1300 1.362 1_545 S
C1300 H1292 0.930 . S
C1300 C1299 1.362 1_565 S
C1300 C1303 1.409 . S
C1301 H1293 0.930 . S
C1301 C1302 1.355 . S
C1301 C1303 1.415 . S
C1302 C1301 1.355 . S
C1302 C1304 1.419 . S
C1303 C1298 1.425 . S
C1303 C1300 1.409 . S
C1303 C1301 1.415 . S
C1304 H1294 0.930 . S
C1304 C1302 1.419 . S
C1304 C1305 1.362 . S
C1305 H1295 0.930 . S
C1305 C1298 1.409 . S
C1305 C1304 1.362 . S
H1306 C1312 0.930 . S
H1307 C1315 0.930 . S
H1308 C1316 0.930 . S
H1309 C1317 0.930 . S
H1310 C1320 0.930 . S
H1311 C1321 0.930 . S
C1312 H1306 0.930 . S
C1312 C1313 1.355 1_455 S
C1312 C1314 1.415 . S
C1313 C1312 1.355 1_655 S
C1313 C1315 1.419 . S
C1314 C1312 1.415 . S
C1314 C1319 1.425 . S
C1314 C1321 1.409 . S
C1315 H1307 0.930 . S
C1315 C1313 1.419 . S
C1315 C1316 1.362 1_655 S
C1316 H1308 0.930 . S
C1316 C1315 1.362 1_455 S
C1316 C1319 1.409 . S
C1317 H1309 0.930 . S
C1317 C1318 1.355 . S
C1317 C1319 1.415 . S
C1318 C1317 1.355 . S
C1318 C1320 1.419 . S
C1319 C1314 1.425 . S
C1319 C1316 1.409 . S
C1319 C1317 1.415 . S
C1320 H1310 0.930 . S
C1320 C1318 1.419 . S
C1320 C1321 1.362 . S
C1321 H1311 0.930 . S
C1321 C1314 1.409 . S
C1321 C1320 1.362 . S
H1322 C1328 0.930 . S
H1323 C1331 0.930 . S
H1324 C1332 0.930 . S
H1325 C1333 0.930 . S
H1326 C1336 0.930 . S
H1327 C1337 0.930 . S
C1328 H1322 0.930 . S
C1328 C1329 1.355 . S
C1328 C1330 1.415 . S
C1329 C1328 1.355 . S
C1329 C1331 1.419 . S
C1330 C1328 1.415 . S
C1330 C1335 1.425 . S
C1330 C1337 1.409 . S
C1331 H1323 0.930 . S
C1331 C1329 1.419 . S
C1331 C1332 1.362 . S
C1332 H1324 0.930 . S
C1332 C1331 1.362 . S
C1332 C1335 1.409 . S
C1333 H1325 0.930 . S
C1333 C1334 1.355 . S
C1333 C1335 1.415 . S
C1334 C1333 1.355 . S
C1334 C1336 1.419 . S
C1335 C1330 1.425 . S
C1335 C1332 1.409 . S
C1335 C1333 1.415 . S
C1336 H1326 0.930 . S
C1336 C1334 1.419 . S
C1336 C1337 1.362 . S
C1337 H1327 0.930 . S
C1337 C1330 1.409 . S
C1337 C1336 1.362 . S
H1338 C1344 0.930 . S
H1339 C1347 0.930 . S
H1340 C1348 0.930 . S
H1341 C1349 0.930 . S
H1342 C1352 0.930 . S
H1343 C1353 0.930 . S
C1344 H1338 0.930 . S
C1344 C1345 1.355 . S
C1344 C1346 1.415 . S
C1345 C1344 1.355 . S
C1345 C1347 1.419 . S
C1346 C1344 1.415 . S
C1346 C1351 1.425 . S
C1346 C1353 1.409 . S
C1347 H1339 0.930 . S
C1347 C1345 1.419 . S
C1347 C1348 1.362 . S
C1348 H1340 0.930 . S
C1348 C1347 1.362 . S
C1348 C1351 1.409 . S
C1349 H1341 0.930 . S
C1349 C1350 1.355 . S
C1349 C1351 1.415 . S
C1350 C1349 1.355 . S
C1350 C1352 1.419 . S
C1351 C1346 1.425 . S
C1351 C1348 1.409 . S
C1351 C1349 1.415 . S
C1352 H1342 0.930 . S
C1352 C1350 1.419 . S
C1352 C1353 1.362 . S
C1353 H1343 0.930 . S
C1353 C1346 1.409 . S
C1353 C1352 1.362 . S
H1354 C1360 0.930 . S
H1355 C1363 0.930 . S
H1356 C1364 0.930 . S
H1357 C1365 0.930 . S
H1358 C1368 0.930 . S
H1359 C1369 0.930 . S
C1360 H1354 0.930 . S
C1360 C1361 1.355 . S
C1360 C1362 1.415 . S
C1361 C1360 1.355 . S
C1361 C1363 1.419 . S
C1362 C1360 1.415 . S
C1362 C1367 1.425 . S
C1362 C1369 1.409 . S
C1363 H1355 0.930 . S
C1363 C1361 1.419 . S
C1363 C1364 1.362 . S
C1364 H1356 0.930 . S
C1364 C1363 1.362 . S
C1364 C1367 1.409 . S
C1365 H1357 0.930 . S
C1365 C1366 1.355 . S
C1365 C1367 1.415 . S
C1366 C1365 1.355 . S
C1366 C1368 1.419 . S
C1367 C1362 1.425 . S
C1367 C1364 1.409 . S
C1367 C1365 1.415 . S
C1368 H1358 0.930 . S
C1368 C1366 1.419 . S
C1368 C1369 1.362 . S
C1369 H1359 0.930 . S
C1369 C1362 1.409 . S
C1369 C1368 1.362 . S
H1370 C1376 0.930 . S
H1371 C1379 0.930 . S
H1372 C1380 0.930 . S
H1373 C1381 0.930 . S
H1374 C1384 0.930 . S
H1375 C1385 0.930 . S
C1376 H1370 0.930 . S
C1376 C1377 1.355 . S
C1376 C1378 1.415 . S
C1377 C1376 1.355 . S
C1377 C1379 1.419 . S
C1378 C1376 1.415 . S
C1378 C1383 1.425 . S
C1378 C1385 1.409 . S
C1379 H1371 0.930 . S
C1379 C1377 1.419 . S
C1379 C1380 1.362 . S
C1380 H1372 0.930 . S
C1380 C1379 1.362 . S
C1380 C1383 1.409 . S
C1381 H1373 0.930 . S
C1381 C1382 1.355 . S
C1381 C1383 1.415 . S
C1382 C1381 1.355 . S
C1382 C1384 1.419 . S
C1383 C1378 1.425 . S
C1383 C1380 1.409 . S
C1383 C1381 1.415 . S
C1384 H1374 0.930 . S
C1384 C1382 1.419 . S
C1384 C1385 1.362 . S
C1385 H1375 0.930 . S
C1385 C1378 1.409 . S
C1385 C1384 1.362 . S
H1386 C1392 0.930 . S
H1387 C1395 0.930 . S
H1388 C1396 0.930 . S
H1389 C1397 0.930 . S
H1390 C1400 0.930 . S
H1391 C1401 0.930 . S
C1392 H1386 0.930 . S
C1392 C1393 1.355 1_545 S
C1392 C1394 1.415 . S
C1393 C1392 1.355 1_565 S
C1393 C1395 1.419 . S
C1394 C1392 1.415 . S
C1394 C1399 1.425 . S
C1394 C1401 1.409 . S
C1395 H1387 0.930 . S
C1395 C1393 1.419 . S
C1395 C1396 1.362 1_565 S
C1396 H1388 0.930 . S
C1396 C1395 1.362 1_545 S
C1396 C1399 1.409 . S
C1397 H1389 0.930 . S
C1397 C1398 1.355 . S
C1397 C1399 1.415 . S
C1398 C1397 1.355 . S
C1398 C1400 1.419 . S
C1399 C1394 1.425 . S
C1399 C1396 1.409 . S
C1399 C1397 1.415 . S
C1400 H1390 0.930 . S
C1400 C1398 1.419 . S
C1400 C1401 1.362 . S
C1401 H1391 0.930 . S
C1401 C1394 1.409 . S
C1401 C1400 1.362 . S
H1402 C1408 0.930 . S
H1403 C1411 0.930 . S
H1404 C1412 0.930 . S
H1405 C1413 0.930 . S
H1406 C1416 0.930 . S
H1407 C1417 0.930 . S
C1408 H1402 0.930 . S
C1408 C1409 1.355 . S
C1408 C1410 1.415 1_455 S
C1409 C1408 1.355 . S
C1409 C1411 1.419 . S
C1410 C1408 1.415 1_655 S
C1410 C1415 1.425 . S
C1410 C1417 1.409 . S
C1411 H1403 0.930 . S
C1411 C1409 1.419 . S
C1411 C1412 1.362 1_455 S
C1412 H1404 0.930 . S
C1412 C1411 1.362 1_655 S
C1412 C1415 1.409 . S
C1413 H1405 0.930 . S
C1413 C1414 1.355 . S
C1413 C1415 1.415 . S
C1414 C1413 1.355 . S
C1414 C1416 1.419 . S
C1415 C1410 1.425 . S
C1415 C1412 1.409 . S
C1415 C1413 1.415 . S
C1416 H1406 0.930 . S
C1416 C1414 1.419 . S
C1416 C1417 1.362 . S
C1417 H1407 0.930 . S
C1417 C1410 1.409 . S
C1417 C1416 1.362 . S
H1418 C1424 0.930 . S
H1419 C1427 0.930 . S
H1420 C1428 0.930 . S
H1421 C1429 0.930 . S
H1422 C1432 0.930 . S
H1423 C1433 0.930 . S
C1424 H1418 0.930 . S
C1424 C1425 1.355 . S
C1424 C1426 1.415 . S
C1425 C1424 1.355 . S
C1425 C1427 1.419 . S
C1426 C1424 1.415 . S
C1426 C1431 1.425 . S
C1426 C1433 1.409 . S
C1427 H1419 0.930 . S
C1427 C1425 1.419 . S
C1427 C1428 1.362 . S
C1428 H1420 0.930 . S
C1428 C1427 1.362 . S
C1428 C1431 1.409 . S
C1429 H1421 0.930 . S
C1429 C1430 1.355 . S
C1429 C1431 1.415 . S
C1430 C1429 1.355 . S
C1430 C1432 1.419 . S
C1431 C1426 1.425 . S
C1431 C1428 1.409 . S
C1431 C1429 1.415 . S
C1432 H1422 0.930 . S
C1432 C1430 1.419 . S
C1432 C1433 1.362 . S
C1433 H1423 0.930 . S
C1433 C1426 1.409 . S
C1433 C1432 1.362 . S
H1434 C1440 0.930 . S
H1435 C1443 0.924 1_455 S
H1436 C1444 0.930 . S
H1437 C1445 0.930 . S
H1438 C1448 0.930 . S
H1439 C1449 0.930 . S
C1440 H1434 0.930 . S
C1440 C1441 1.355 . S
C1440 C1442 1.415 . S
C1441 C1440 1.355 . S
C1441 C1443 1.419 . S
C1442 C1440 1.415 . S
C1442 C1447 1.425 . S
C1442 C1449 1.409 . S
C1443 H1435 0.924 1_655 S
C1443 C1441 1.419 . S
C1443 C1444 1.362 . S
C1444 H1436 0.930 . S
C1444 C1443 1.362 . S
C1444 C1447 1.409 . S
C1445 H1437 0.930 . S
C1445 C1446 1.355 . S
C1445 C1447 1.415 . S
C1446 C1445 1.355 . S
C1446 C1448 1.419 . S
C1447 C1442 1.425 . S
C1447 C1444 1.409 . S
C1447 C1445 1.415 . S
C1448 H1438 0.930 . S
C1448 C1446 1.419 . S
C1448 C1449 1.362 . S
C1449 H1439 0.930 . S
C1449 C1442 1.409 . S
C1449 C1448 1.362 . S
H1450 C1456 0.930 . S
H1451 C1459 0.930 . S
H1452 C1460 0.930 . S
H1453 C1461 0.930 . S
H1454 C1464 0.930 . S
H1455 C1465 0.930 . S
C1456 H1450 0.930 . S
C1456 C1457 1.355 . S
C1456 C1458 1.415 . S
C1457 C1456 1.355 . S
C1457 C1459 1.419 . S
C1458 C1456 1.415 . S
C1458 C1463 1.425 . S
C1458 C1465 1.409 . S
C1459 H1451 0.930 . S
C1459 C1457 1.419 . S
C1459 C1460 1.362 . S
C1460 H1452 0.930 . S
C1460 C1459 1.362 . S
C1460 C1463 1.409 . S
C1461 H1453 0.930 . S
C1461 C1462 1.355 . S
C1461 C1463 1.415 . S
C1462 C1461 1.355 . S
C1462 C1464 1.419 . S
C1463 C1458 1.425 . S
C1463 C1460 1.409 . S
C1463 C1461 1.415 . S
C1464 H1454 0.930 . S
C1464 C1462 1.419 . S
C1464 C1465 1.362 . S
C1465 H1455 0.930 . S
C1465 C1458 1.409 . S
C1465 C1464 1.362 . S
H1466 C1472 0.930 . S
H1467 C1475 0.930 . S
H1468 C1476 0.930 . S
H1469 C1477 0.930 . S
H1470 C1480 0.930 . S
H1471 C1481 0.930 . S
C1472 H1466 0.930 . S
C1472 C1473 1.355 1_545 S
C1472 C1474 1.415 . S
C1473 C1472 1.355 1_565 S
C1473 C1475 1.419 . S
C1474 C1472 1.415 . S
C1474 C1479 1.425 . S
C1474 C1481 1.409 . S
C1475 H1467 0.930 . S
C1475 C1473 1.419 . S
C1475 C1476 1.362 1_565 S
C1476 H1468 0.930 . S
C1476 C1475 1.362 1_545 S
C1476 C1479 1.409 . S
C1477 H1469 0.930 . S
C1477 C1478 1.355 . S
C1477 C1479 1.415 . S
C1478 C1477 1.355 . S
C1478 C1480 1.419 . S
C1479 C1474 1.425 . S
C1479 C1476 1.409 . S
C1479 C1477 1.415 . S
C1480 H1470 0.930 . S
C1480 C1478 1.419 . S
C1480 C1481 1.362 . S
C1481 H1471 0.930 . S
C1481 C1474 1.409 . S
C1481 C1480 1.362 . S
H1482 C1488 0.930 . S
H1483 C1491 0.930 . S
H1484 C1492 0.930 . S
H1485 C1493 0.930 . S
H1486 C1496 0.930 . S
H1487 C1497 0.930 . S
C1488 H1482 0.930 . S
C1488 C1489 1.355 . S
C1488 C1490 1.415 . S
C1489 C1488 1.355 . S
C1489 C1491 1.419 . S
C1490 C1488 1.415 . S
C1490 C1495 1.425 . S
C1490 C1497 1.409 . S
C1491 H1483 0.930 . S
C1491 C1489 1.419 . S
C1491 C1492 1.362 . S
C1492 H1484 0.930 . S
C1492 C1491 1.362 . S
C1492 C1495 1.409 . S
C1493 H1485 0.930 . S
C1493 C1494 1.355 . S
C1493 C1495 1.415 . S
C1494 C1493 1.355 . S
C1494 C1496 1.419 . S
C1495 C1490 1.425 . S
C1495 C1492 1.409 . S
C1495 C1493 1.415 . S
C1496 H1486 0.930 . S
C1496 C1494 1.419 . S
C1496 C1497 1.362 . S
C1497 H1487 0.930 . S
C1497 C1490 1.409 . S
C1497 C1496 1.362 . S
H1498 C1504 0.930 . S
H1499 C1507 0.930 . S
H1500 C1508 0.930 . S
H1501 C1509 0.930 . S
H1502 C1512 0.930 . S
H1503 C1513 0.930 . S
C1504 H1498 0.930 . S
C1504 C1505 1.355 . S
C1504 C1506 1.415 . S
C1505 C1504 1.355 . S
C1505 C1507 1.419 . S
C1506 C1504 1.415 . S
C1506 C1511 1.425 . S
C1506 C1513 1.409 . S
C1507 H1499 0.930 . S
C1507 C1505 1.419 . S
C1507 C1508 1.362 . S
C1508 H1500 0.930 . S
C1508 C1507 1.362 . S
C1508 C1511 1.409 . S
C1509 H1501 0.930 . S
C1509 C1510 1.355 . S
C1509 C1511 1.415 . S
C1510 C1509 1.355 . S
C1510 C1512 1.419 . S
C1511 C1506 1.425 . S
C1511 C1508 1.409 . S
C1511 C1509 1.415 . S
C1512 H1502 0.930 . S
C1512 C1510 1.419 . S
C1512 C1513 1.362 . S
C1513 H1503 0.930 . S
C1513 C1506 1.409 . S
C1513 C1512 1.362 . S
H1514 C1520 0.930 . S
H1515 C1523 0.930 . S
H1516 C1524 0.930 . S
H1517 C1525 0.930 . S
H1518 C1528 0.930 . S
H1519 C1529 0.930 . S
C1520 H1514 0.930 . S
C1520 C1521 1.355 . S
C1520 C1522 1.415 . S
C1521 C1520 1.355 . S
C1521 C1523 1.419 . S
C1522 C1520 1.415 . S
C1522 C1527 1.425 . S
C1522 C1529 1.409 . S
C1523 H1515 0.930 . S
C1523 C1521 1.419 . S
C1523 C1524 1.362 . S
C1524 H1516 0.930 . S
C1524 C1523 1.362 . S
C1524 C1527 1.409 . S
C1525 H1517 0.930 . S
C1525 C1526 1.355 . S
C1525 C1527 1.415 . S
C1526 C1525 1.355 . S
C1526 C1528 1.419 . S
C1527 C1522 1.425 . S
C1527 C1524 1.409 . S
C1527 C1525 1.415 . S
C1528 H1518 0.930 . S
C1528 C1526 1.419 . S
C1528 C1529 1.362 . S
C1529 H1519 0.930 . S
C1529 C1522 1.409 . S
C1529 C1528 1.362 . S
H1530 C1536 0.930 . S
H1531 C1539 0.930 . S
H1532 C1540 0.930 . S
H1533 C1541 0.930 . S
H1534 C1544 0.930 . S
H1535 C1545 0.930 . S
C1536 H1530 0.930 . S
C1536 C1537 1.355 . S
C1536 C1538 1.415 . S
C1537 C1536 1.355 . S
C1537 C1539 1.419 . S
C1538 C1536 1.415 . S
C1538 C1543 1.425 . S
C1538 C1545 1.409 . S
C1539 H1531 0.930 . S
C1539 C1537 1.419 . S
C1539 C1540 1.362 . S
C1540 H1532 0.930 . S
C1540 C1539 1.362 . S
C1540 C1543 1.409 . S
C1541 H1533 0.930 . S
C1541 C1542 1.355 . S
C1541 C1543 1.415 . S
C1542 C1541 1.355 . S
C1542 C1544 1.419 . S
C1543 C1538 1.425 . S
C1543 C1540 1.409 . S
C1543 C1541 1.415 . S
C1544 H1534 0.930 . S
C1544 C1542 1.419 . S
C1544 C1545 1.362 . S
C1545 H1535 0.930 . S
C1545 C1538 1.409 . S
C1545 C1544 1.362 . S
H1546 C1552 0.930 . S
H1547 C1555 0.930 . S
H1548 C1556 0.930 . S
H1549 C1557 0.930 . S
H1550 C1560 0.930 . S
H1551 C1561 0.930 . S
C1552 H1546 0.930 . S
C1552 C1553 1.355 . S
C1552 C1554 1.415 . S
C1553 C1552 1.355 . S
C1553 C1555 1.419 . S
C1554 C1552 1.415 . S
C1554 C1559 1.425 . S
C1554 C1561 1.409 . S
C1555 H1547 0.930 . S
C1555 C1553 1.419 . S
C1555 C1556 1.362 . S
C1556 H1548 0.930 . S
C1556 C1555 1.362 . S
C1556 C1559 1.409 . S
C1557 H1549 0.930 . S
C1557 C1558 1.355 . S
C1557 C1559 1.415 . S
C1558 C1557 1.355 . S
C1558 C1560 1.419 . S
C1559 C1554 1.425 . S
C1559 C1556 1.409 . S
C1559 C1557 1.415 . S
C1560 H1550 0.930 . S
C1560 C1558 1.419 . S
C1560 C1561 1.362 . S
C1561 H1551 0.930 . S
C1561 C1554 1.409 . S
C1561 C1560 1.362 . S
H1562 C1568 0.930 . S
H1563 C1571 0.930 . S
H1564 C1572 0.930 . S
H1565 C1573 0.930 . S
H1566 C1576 0.930 . S
H1567 C1577 0.930 . S
C1568 H1562 0.930 . S
C1568 C1569 1.355 . S
C1568 C1570 1.415 . S
C1569 C1568 1.355 . S
C1569 C1571 1.419 . S
C1570 C1568 1.415 . S
C1570 C1575 1.425 . S
C1570 C1577 1.409 . S
C1571 H1563 0.930 . S
C1571 C1569 1.419 . S
C1571 C1572 1.362 . S
C1572 H1564 0.930 . S
C1572 C1571 1.362 . S
C1572 C1575 1.409 . S
C1573 H1565 0.930 . S
C1573 C1574 1.355 . S
C1573 C1575 1.415 . S
C1574 C1573 1.355 . S
C1574 C1576 1.419 . S
C1575 C1570 1.425 . S
C1575 C1572 1.409 . S
C1575 C1573 1.415 . S
C1576 H1566 0.930 . S
C1576 C1574 1.419 . S
C1576 C1577 1.362 . S
C1577 H1567 0.930 . S
C1577 C1570 1.409 . S
C1577 C1576 1.362 . S
H1578 C1584 0.930 . S
H1579 C1587 0.930 . S
H1580 C1588 0.930 . S
H1581 C1589 0.930 . S
H1582 C1592 0.930 . S
H1583 C1593 0.930 . S
C1584 H1578 0.930 . S
C1584 C1585 1.355 . S
C1584 C1586 1.415 . S
C1585 C1584 1.355 . S
C1585 C1587 1.419 . S
C1586 C1584 1.415 . S
C1586 C1591 1.425 . S
C1586 C1593 1.409 . S
C1587 H1579 0.930 . S
C1587 C1585 1.419 . S
C1587 C1588 1.362 . S
C1588 H1580 0.930 . S
C1588 C1587 1.362 . S
C1588 C1591 1.409 . S
C1589 H1581 0.930 . S
C1589 C1590 1.355 . S
C1589 C1591 1.415 . S
C1590 C1589 1.355 . S
C1590 C1592 1.419 . S
C1591 C1586 1.425 . S
C1591 C1588 1.409 . S
C1591 C1589 1.415 . S
C1592 H1582 0.930 . S
C1592 C1590 1.419 . S
C1592 C1593 1.362 . S
C1593 H1583 0.930 . S
C1593 C1586 1.409 . S
C1593 C1592 1.362 . S
H1594 C1600 0.930 . S
H1595 C1603 0.930 . S
H1596 C1604 0.930 . S
H1597 C1605 0.930 . S
H1598 C1608 0.930 . S
H1599 C1609 0.930 . S
C1600 H1594 0.930 . S
C1600 C1601 1.355 . S
C1600 C1602 1.415 . S
C1601 C1600 1.355 . S
C1601 C1603 1.419 . S
C1602 C1600 1.415 . S
C1602 C1607 1.425 . S
C1602 C1609 1.409 . S
C1603 H1595 0.930 . S
C1603 C1601 1.419 . S
C1603 C1604 1.362 . S
C1604 H1596 0.930 . S
C1604 C1603 1.362 . S
C1604 C1607 1.409 . S
C1605 H1597 0.930 . S
C1605 C1606 1.355 . S
C1605 C1607 1.415 . S
C1606 C1605 1.355 . S
C1606 C1608 1.419 . S
C1607 C1602 1.425 . S
C1607 C1604 1.409 . S
C1607 C1605 1.415 . S
C1608 H1598 0.930 . S
C1608 C1606 1.419 . S
C1608 C1609 1.362 . S
C1609 H1599 0.930 . S
C1609 C1602 1.409 . S
C1609 C1608 1.362 . S
H1610 C1616 0.930 . S
H1611 C1619 0.930 . S
H1612 C1620 0.930 . S
H1613 C1621 0.930 . S
H1614 C1624 0.930 . S
H1615 C1625 0.930 . S
C1616 H1610 0.930 . S
C1616 C1617 1.355 . S
C1616 C1618 1.415 . S
C1617 C1616 1.355 . S
C1617 C1619 1.419 . S
C1618 C1616 1.415 . S
C1618 C1623 1.425 . S
C1618 C1625 1.409 . S
C1619 H1611 0.930 . S
C1619 C1617 1.419 . S
C1619 C1620 1.362 . S
C1620 H1612 0.930 . S
C1620 C1619 1.362 . S
C1620 C1623 1.409 . S
C1621 H1613 0.930 . S
C1621 C1622 1.355 . S
C1621 C1623 1.415 . S
C1622 C1621 1.355 . S
C1622 C1624 1.419 . S
C1623 C1618 1.425 . S
C1623 C1620 1.409 . S
C1623 C1621 1.415 . S
C1624 H1614 0.930 . S
C1624 C1622 1.419 . S
C1624 C1625 1.362 . S
C1625 H1615 0.930 . S
C1625 C1618 1.409 . S
C1625 C1624 1.362 . S
H1626 C1632 0.930 . S
H1627 C1635 0.930 . S
H1628 C1636 0.930 . S
H1629 C1637 0.930 . S
H1630 C1640 0.930 . S
H1631 C1641 0.930 . S
C1632 H1626 0.930 . S
C1632 C1633 1.355 . S
C1632 C1634 1.415 . S
C1633 C1632 1.355 . S
C1633 C1635 1.419 . S
C1634 C1632 1.415 . S
C1634 C1639 1.425 . S
C1634 C1641 1.409 . S
C1635 H1627 0.930 . S
C1635 C1633 1.419 . S
C1635 C1636 1.362 . S
C1636 H1628 0.930 . S
C1636 C1635 1.362 . S
C1636 C1639 1.409 . S
C1637 H1629 0.930 . S
C1637 C1638 1.355 . S
C1637 C1639 1.415 . S
C1638 C1637 1.355 . S
C1638 C1640 1.419 . S
C1639 C1634 1.425 . S
C1639 C1636 1.409 . S
C1639 C1637 1.415 . S
C1640 H1630 0.930 . S
C1640 C1638 1.419 . S
C1640 C1641 1.362 . S
C1641 H1631 0.930 . S
C1641 C1634 1.409 . S
C1641 C1640 1.362 . S
H1642 C1648 0.930 . S
H1643 C1651 0.930 . S
H1644 C1652 0.930 . S
H1645 C1653 0.930 . S
H1646 C1656 0.930 . S
H1647 C1657 0.930 . S
C1648 H1642 0.930 . S
C1648 C1649 1.355 . S
C1648 C1650 1.415 . S
C1649 C1648 1.355 . S
C1649 C1651 1.419 . S
C1650 C1648 1.415 . S
C1650 C1655 1.425 . S
C1650 C1657 1.409 . S
C1651 H1643 0.930 . S
C1651 C1649 1.419 . S
C1651 C1652 1.362 . S
C1652 H1644 0.930 . S
C1652 C1651 1.362 . S
C1652 C1655 1.409 . S
C1653 H1645 0.930 . S
C1653 C1654 1.355 . S
C1653 C1655 1.415 . S
C1654 C1653 1.355 . S
C1654 C1656 1.419 . S
C1655 C1650 1.425 . S
C1655 C1652 1.409 . S
C1655 C1653 1.415 . S
C1656 H1646 0.930 . S
C1656 C1654 1.419 . S
C1656 C1657 1.362 . S
C1657 H1647 0.930 . S
C1657 C1650 1.409 . S
C1657 C1656 1.362 . S
H1658 C1664 0.930 . S
H1659 C1667 0.930 . S
H1660 C1668 0.930 . S
H1661 C1669 0.930 . S
H1662 C1672 0.930 . S
H1663 C1673 0.930 . S
C1664 H1658 0.930 . S
C1664 C1665 1.355 . S
C1664 C1666 1.415 . S
C1665 C1664 1.355 . S
C1665 C1667 1.419 . S
C1666 C1664 1.415 . S
C1666 C1671 1.425 . S
C1666 C1673 1.409 . S
C1667 H1659 0.930 . S
C1667 C1665 1.419 . S
C1667 C1668 1.362 . S
C1668 H1660 0.930 . S
C1668 C1667 1.362 . S
C1668 C1671 1.409 . S
C1669 H1661 0.930 . S
C1669 C1670 1.355 . S
C1669 C1671 1.415 . S
C1670 C1669 1.355 . S
C1670 C1672 1.419 . S
C1671 C1666 1.425 . S
C1671 C1668 1.409 . S
C1671 C1669 1.415 . S
C1672 H1662 0.930 . S
C1672 C1670 1.419 . S
C1672 C1673 1.362 . S
C1673 H1663 0.930 . S
C1673 C1666 1.409 . S
C1673 C1672 1.362 . S
H1674 C1680 0.930 . S
H1675 C1683 0.930 . S
H1676 C1684 0.930 . S
H1677 C1685 0.930 . S
H1678 C1688 0.930 . S
H1679 C1689 0.930 . S
C1680 H1674 0.930 . S
C1680 C1681 1.355 . S
C1680 C1682 1.415 . S
C1681 C1680 1.355 . S
C1681 C1683 1.419 . S
C1682 C1680 1.415 . S
C1682 C1687 1.425 . S
C1682 C1689 1.409 . S
C1683 H1675 0.930 . S
C1683 C1681 1.419 . S
C1683 C1684 1.362 . S
C1684 H1676 0.930 . S
C1684 C1683 1.362 . S
C1684 C1687 1.409 . S
C1685 H1677 0.930 . S
C1685 C1686 1.355 . S
C1685 C1687 1.415 . S
C1686 C1685 1.355 . S
C1686 C1688 1.419 . S
C1687 C1682 1.425 . S
C1687 C1684 1.409 . S
C1687 C1685 1.415 . S
C1688 H1678 0.930 . S
C1688 C1686 1.419 . S
C1688 C1689 1.362 . S
C1689 H1679 0.930 . S
C1689 C1682 1.409 . S
C1689 C1688 1.362 . S
H1690 C1696 0.930 . S
H1691 C1699 0.930 . S
H1692 C1700 0.930 . S
H1693 C1701 0.930 . S
H1694 C1704 0.930 . S
H1695 C1705 0.930 . S
C1696 H1690 0.930 . S
C1696 C1697 1.355 . S
C1696 C1698 1.415 . S
C1697 C1696 1.355 . S
C1697 C1699 1.419 . S
C1698 C1696 1.415 . S
C1698 C1703 1.425 . S
C1698 C1705 1.409 . S
C1699 H1691 0.930 . S
C1699 C1697 1.419 . S
C1699 C1700 1.362 . S
C1700 H1692 0.930 . S
C1700 C1699 1.362 . S
C1700 C1703 1.409 . S
C1701 H1693 0.930 . S
C1701 C1702 1.355 . S
C1701 C1703 1.415 . S
C1702 C1701 1.355 . S
C1702 C1704 1.419 . S
C1703 C1698 1.425 . S
C1703 C1700 1.409 . S
C1703 C1701 1.415 . S
C1704 H1694 0.930 . S
C1704 C1702 1.419 . S
C1704 C1705 1.362 . S
C1705 H1695 0.930 . S
C1705 C1698 1.409 . S
C1705 C1704 1.362 . S
H1706 C1712 0.930 . S
H1707 C1715 0.930 . S
H1708 C1716 0.930 . S
H1709 C1717 0.930 . S
H1710 C1720 0.930 . S
H1711 C1721 0.930 . S
C1712 H1706 0.930 . S
C1712 C1713 1.355 . S
C1712 C1714 1.415 . S
C1713 C1712 1.355 . S
C1713 C1715 1.419 . S
C1714 C1712 1.415 . S
C1714 C1719 1.425 . S
C1714 C1721 1.409 . S
C1715 H1707 0.930 . S
C1715 C1713 1.419 . S
C1715 C1716 1.362 . S
C1716 H1708 0.930 . S
C1716 C1715 1.362 . S
C1716 C1719 1.409 . S
C1717 H1709 0.930 . S
C1717 C1718 1.355 . S
C1717 C1719 1.415 . S
C1718 C1717 1.355 . S
C1718 C1720 1.419 . S
C1719 C1714 1.425 . S
C1719 C1716 1.409 . S
C1719 C1717 1.415 . S
C1720 H1710 0.930 . S
C1720 C1718 1.419 . S
C1720 C1721 1.362 . S
C1721 H1711 0.930 . S
C1721 C1714 1.409 . S
C1721 C1720 1.362 . S
H1722 C1728 0.930 . S
H1723 C1731 0.930 . S
H1724 C1732 0.930 . S
H1725 C1733 0.930 . S
H1726 C1736 0.930 . S
H1727 C1737 0.930 . S
C1728 H1722 0.930 . S
C1728 C1729 1.355 . S
C1728 C1730 1.415 . S
C1729 C1728 1.355 . S
C1729 C1731 1.419 . S
C1730 C1728 1.415 . S
C1730 C1735 1.425 . S
C1730 C1737 1.409 . S
C1731 H1723 0.930 . S
C1731 C1729 1.419 . S
C1731 C1732 1.362 . S
C1732 H1724 0.930 . S
C1732 C1731 1.362 . S
C1732 C1735 1.409 . S
C1733 H1725 0.930 . S
C1733 C1734 1.355 . S
C1733 C1735 1.415 . S
C1734 C1733 1.355 . S
C1734 C1736 1.419 . S
C1735 C1730 1.425 . S
C1735 C1732 1.409 . S
C1735 C1733 1.415 . S
C1736 H1726 0.930 . S
C1736 C1734 1.419 . S
C1736 C1737 1.362 . S
C1737 H1727 0.930 . S
C1737 C1730 1.409 . S
C1737 C1736 1.362 . S
H1738 C1744 0.930 . S
H1739 C1747 0.930 . S
H1740 C1748 0.930 . S
H1741 C1749 0.930 . S
H1742 C1752 0.930 . S
H1743 C1753 0.930 . S
C1744 H1738 0.930 . S
C1744 C1745 1.355 . S
C1744 C1746 1.415 . S
C1745 C1744 1.355 . S
C1745 C1747 1.419 . S
C1746 C1744 1.415 . S
C1746 C1751 1.425 . S
C1746 C1753 1.409 . S
C1747 H1739 0.930 . S
C1747 C1745 1.419 . S
C1747 C1748 1.362 . S
C1748 H1740 0.930 . S
C1748 C1747 1.362 . S
C1748 C1751 1.409 . S
C1749 H1741 0.930 . S
C1749 C1750 1.355 . S
C1749 C1751 1.415 . S
C1750 C1749 1.355 . S
C1750 C1752 1.419 . S
C1751 C1746 1.425 . S
C1751 C1748 1.409 . S
C1751 C1749 1.415 . S
C1752 H1742 0.930 . S
C1752 C1750 1.419 . S
C1752 C1753 1.362 . S
C1753 H1743 0.930 . S
C1753 C1746 1.409 . S
C1753 C1752 1.362 . S
H1754 C1760 0.930 . S
H1755 C1763 0.930 . S
H1756 C1764 0.930 . S
H1757 C1765 0.930 . S
H1758 C1768 0.930 . S
H1759 C1769 0.930 . S
C1760 H1754 0.930 . S
C1760 C1761 1.355 . S
C1760 C1762 1.415 . S
C1761 C1760 1.355 . S
C1761 C1763 1.419 . S
C1762 C1760 1.415 . S
C1762 C1767 1.425 . S
C1762 C1769 1.409 . S
C1763 H1755 0.930 . S
C1763 C1761 1.419 . S
C1763 C1764 1.362 . S
C1764 H1756 0.930 . S
C1764 C1763 1.362 . S
C1764 C1767 1.409 . S
C1765 H1757 0.930 . S
C1765 C1766 1.355 . S
C1765 C1767 1.415 . S
C1766 C1765 1.355 . S
C1766 C1768 1.419 . S
C1767 C1762 1.425 . S
C1767 C1764 1.409 . S
C1767 C1765 1.415 . S
C1768 H1758 0.930 . S
C1768 C1766 1.419 . S
C1768 C1769 1.362 . S
C1769 H1759 0.930 . S
C1769 C1762 1.409 . S
C1769 C1768 1.362 . S
H1770 C1776 0.930 . S
H1771 C1779 0.930 . S
H1772 C1780 0.930 . S
H1773 C1781 0.930 . S
H1774 C1784 0.930 . S
H1775 C1785 0.930 . S
C1776 H1770 0.930 . S
C1776 C1777 1.355 . S
C1776 C1778 1.415 . S
C1777 C1776 1.355 . S
C1777 C1779 1.419 . S
C1778 C1776 1.415 . S
C1778 C1783 1.425 . S
C1778 C1785 1.409 . S
C1779 H1771 0.930 . S
C1779 C1777 1.419 . S
C1779 C1780 1.362 . S
C1780 H1772 0.930 . S
C1780 C1779 1.362 . S
C1780 C1783 1.409 . S
C1781 H1773 0.930 . S
C1781 C1782 1.355 . S
C1781 C1783 1.415 . S
C1782 C1781 1.355 . S
C1782 C1784 1.419 . S
C1783 C1778 1.425 . S
C1783 C1780 1.409 . S
C1783 C1781 1.415 . S
C1784 H1774 0.930 . S
C1784 C1782 1.419 . S
C1784 C1785 1.362 . S
C1785 H1775 0.930 . S
C1785 C1778 1.409 . S
C1785 C1784 1.362 . S
H1786 C1792 0.930 . S
H1787 C1795 0.930 . S
H1788 C1796 0.930 . S
H1789 C1797 0.930 . S
H1790 C1800 0.930 . S
H1791 C1801 0.930 . S
C1792 H1786 0.930 . S
C1792 C1793 1.355 . S
C1792 C1794 1.415 . S
C1793 C1792 1.355 . S
C1793 C1795 1.419 . S
C1794 C1792 1.415 . S
C1794 C1799 1.425 . S
C1794 C1801 1.409 . S
C1795 H1787 0.930 . S
C1795 C1793 1.419 . S
C1795 C1796 1.362 . S
C1796 H1788 0.930 . S
C1796 C1795 1.362 . S
C1796 C1799 1.409 . S
C1797 H1789 0.930 . S
C1797 C1798 1.355 . S
C1797 C1799 1.415 . S
C1798 C1797 1.355 . S
C1798 C1800 1.419 . S
C1799 C1794 1.425 . S
C1799 C1796 1.409 . S
C1799 C1797 1.415 . S
C1800 H1790 0.930 . S
C1800 C1798 1.419 . S
C1800 C1801 1.362 . S
C1801 H1791 0.930 . S
C1801 C1794 1.409 . S
C1801 C1800 1.362 . S
H1802 C1808 0.930 . S
H1803 C1811 0.930 . S
H1804 C1812 0.930 . S
H1805 C1813 0.930 . S
H1806 C1816 0.930 . S
H1807 C1817 0.930 . S
C1808 H1802 0.930 . S
C1808 C1809 1.355 . S
C1808 C1810 1.415 . S
C1809 C1808 1.355 . S
C1809 C1811 1.419 . S
C1810 C1808 1.415 . S
C1810 C1815 1.425 . S
C1810 C1817 1.409 . S
C1811 H1803 0.930 . S
C1811 C1809 1.419 . S
C1811 C1812 1.362 . S
C1812 H1804 0.930 . S
C1812 C1811 1.362 . S
C1812 C1815 1.409 . S
C1813 H1805 0.930 . S
C1813 C1814 1.355 . S
C1813 C1815 1.415 . S
C1814 C1813 1.355 . S
C1814 C1816 1.419 . S
C1815 C1810 1.425 . S
C1815 C1812 1.409 . S
C1815 C1813 1.415 . S
C1816 H1806 0.930 . S
C1816 C1814 1.419 . S
C1816 C1817 1.362 . S
C1817 H1807 0.930 . S
C1817 C1810 1.409 . S
C1817 C1816 1.362 . S
C961 C151 1.156 . S
C966 C254 1.158 . S
C977 C159 1.711 . S
C982 C338 1.734 . S
C993 C137 1.262 . S
C998 C432 1.471 . S
C1009 C126 1.290 . S
C1014 C348 1.424 1_556 S
C1030 C422 1.741 . S
C1025 C104 1.597 . S
C1041 C118 1.134 . S
C1046 C264 1.141 1_556 S
C1062 C265 1.315 . S
C1057 C129 1.427 . S
C1078 C349 1.512 . S
C1073 C107 1.618 . S
C1089 C115 1.239 . S
C1094 C441 1.425 . S
C1105 C148 1.253 . S
C1110 C357 1.410 . S
C1121 C162 1.575 . S
C1126 C433 1.452 . S
C1142 C273 1.379 . S
C1137 C140 1.389 . S
C1158 C506 1.109 . S
C1153 C19 1.158 . S
C1169 C27 1.695 . S
C1174 C590 1.720 . S
C1185 C5 1.374 . S
C1190 C684 1.413 . S
C1201 C192 1.225 . S
C1206 C600 1.435 . S
C1217 C170 1.618 . S
C1222 C674 1.744 . S
C1233 C184 1.144 . S
C1238 C516 1.129 . S
C1249 C195 1.409 . S
C1254 C517 1.400 . S
C1265 C173 1.603 . S
C1270 C601 1.577 . S
C1286 C693 1.472 . S
C1281 C181 1.323 . S
C1297 C16 1.319 . S
C1302 C609 1.445 . S
C1318 C685 1.472 . S
C1313 C30 1.570 . S
C1329 C8 1.399 . S
C1334 C525 1.330 . S
C1350 C758 1.099 . S
C1345 C85 1.164 . S
C1361 C93 1.647 . S
C1366 C842 1.785 . S
C1382 C936 1.423 . S
C1377 C71 1.366 . S
C1398 C852 1.450 . S
C1393 C60 1.211 . S
C1414 C926 1.743 . S
C1409 C38 1.623 . S
C1425 C52 1.114 . S
C1430 C768 1.134 . S
C1441 C63 1.431 1_655 S
C1446 C769 1.321 . S
C1457 C41 1.603 . S
C1462 C853 1.572 . S
C1478 C945 1.463 . S
C1473 C49 1.290 . S
C1489 C82 1.210 . S
C1494 C861 1.393 . S
C1505 C96 1.575 . S
C1510 C937 1.465 . S
C1521 C74 1.389 . S
C1526 C777 1.332 . S
C1537 C172 1.551 . S
C1542 C261 1.502 . S
C1558 C345 1.163 . S
C1553 C183 1.309 . S
C1569 C194 1.462 . S
C1574 C438 1.371 . S
C1585 C73 1.478 . S
C1590 C354 1.409 . S
C1601 C84 1.266 . S
C1606 C429 1.152 . S
C1622 C270 1.511 . S
C1617 C95 1.539 . S
C1633 C40 1.610 . S
C1638 C513 1.476 . S
C1649 C51 1.322 . S
C1654 C597 1.292 . S
C1665 C62 1.470 . S
C1670 C690 1.359 . S
C1681 C139 1.502 . S
C1686 C606 1.379 . S
C1702 C681 1.148 . S
C1697 C150 1.270 . S
C1713 C161 1.562 . S
C1718 C522 1.441 . S
C1729 C106 1.564 . S
C1734 C765 1.443 . S
C1745 C117 1.288 . S
C1750 C849 1.163 . S
C1766 C942 1.351 . S
C1761 C128 1.442 . S
C1777 C7 1.495 . S
C1782 C858 1.311 . S
C1793 C18 1.267 . S
C1798 C933 1.150 . S
C1809 C29 1.596 . S
C1814 C774 1.402 . S
