# Generated by pormake.
# Topology zzz, (3,6)-cn, num edge types: 1
# Building blocks:
#     Node 0, Type 0, BuildingBlock: OLANEW_clean_sbu_2, # of connection points: 3
#     Node 1, Type 0, BuildingBlock: OLANEW_clean_sbu_2, # of connection points: 3
#     Node 2, Type 0, BuildingBlock: OLANEW_clean_sbu_2, # of connection points: 3
#     Node 3, Type 0, BuildingBlock: OLANEW_clean_sbu_2, # of connection points: 3
#     Node 4, Type 0, BuildingBlock: OLANEW_clean_sbu_2, # of connection points: 3
#     Node 5, Type 0, BuildingBlock: OLANEW_clean_sbu_2, # of connection points: 3
#     Node 6, Type 0, BuildingBlock: OLANEW_clean_sbu_2, # of connection points: 3
#     Node 7, Type 0, BuildingBlock: OLANEW_clean_sbu_2, # of connection points: 3
#     Node 8, Type 1, BuildingBlock: CUWYAW_clean_sbu_0, # of connection points: 6
#     Node 9, Type 1, BuildingBlock: CUWYAW_clean_sbu_0, # of connection points: 6
#     Node 10, Type 1, BuildingBlock: CUWYAW_clean_sbu_0, # of connection points: 6
#     Node 11, Type 1, BuildingBlock: CUWYAW_clean_sbu_0, # of connection points: 6
#     Edge 12, Type (0, 1), BuildingBlock: XIVTED_clean_linker_0, # of connection points: 2
#     Edge 13, Type (0, 1), BuildingBlock: XIVTED_clean_linker_0, # of connection points: 2
#     Edge 14, Type (0, 1), BuildingBlock: XIVTED_clean_linker_0, # of connection points: 2
#     Edge 15, Type (0, 1), BuildingBlock: XIVTED_clean_linker_0, # of connection points: 2
#     Edge 16, Type (0, 1), BuildingBlock: XIVTED_clean_linker_0, # of connection points: 2
#     Edge 17, Type (0, 1), BuildingBlock: XIVTED_clean_linker_0, # of connection points: 2
#     Edge 18, Type (0, 1), BuildingBlock: XIVTED_clean_linker_0, # of connection points: 2
#     Edge 19, Type (0, 1), BuildingBlock: XIVTED_clean_linker_0, # of connection points: 2
#     Edge 20, Type (0, 1), BuildingBlock: XIVTED_clean_linker_0, # of connection points: 2
#     Edge 21, Type (0, 1), BuildingBlock: XIVTED_clean_linker_0, # of connection points: 2
#     Edge 22, Type (0, 1), BuildingBlock: XIVTED_clean_linker_0, # of connection points: 2
#     Edge 23, Type (0, 1), BuildingBlock: XIVTED_clean_linker_0, # of connection points: 2
#     Edge 24, Type (0, 1), BuildingBlock: XIVTED_clean_linker_0, # of connection points: 2
#     Edge 25, Type (0, 1), BuildingBlock: XIVTED_clean_linker_0, # of connection points: 2
#     Edge 26, Type (0, 1), BuildingBlock: XIVTED_clean_linker_0, # of connection points: 2
#     Edge 27, Type (0, 1), BuildingBlock: XIVTED_clean_linker_0, # of connection points: 2
#     Edge 28, Type (0, 1), BuildingBlock: XIVTED_clean_linker_0, # of connection points: 2
#     Edge 29, Type (0, 1), BuildingBlock: XIVTED_clean_linker_0, # of connection points: 2
#     Edge 30, Type (0, 1), BuildingBlock: XIVTED_clean_linker_0, # of connection points: 2
#     Edge 31, Type (0, 1), BuildingBlock: XIVTED_clean_linker_0, # of connection points: 2
#     Edge 32, Type (0, 1), BuildingBlock: XIVTED_clean_linker_0, # of connection points: 2
#     Edge 33, Type (0, 1), BuildingBlock: XIVTED_clean_linker_0, # of connection points: 2
#     Edge 34, Type (0, 1), BuildingBlock: XIVTED_clean_linker_0, # of connection points: 2
#     Edge 35, Type (0, 1), BuildingBlock: XIVTED_clean_linker_0, # of connection points: 2
# Relax obj value: 0.233
# Max RMSD: 0.164
# Mean RMSD: 0.146
data_MOF--net-zzz--node1-OLANEW_clean_sbu_2--node2-CUWYAW_clean_sbu_0--edge1-XIVTED_clean_linker_0
_symmetry_space_group_name_H-M    P1
_symmetry_Int_Tables_number       1
_symmetry_cell_setting            triclinic
loop_
_symmetry_equiv_pos_as_xyz
'x, y, z'
_cell_length_a     56.070997
_cell_length_b     56.083179
_cell_length_c     16.016362
_cell_angle_alpha  89.775748
_cell_angle_beta   90.112034
_cell_angle_gamma 90.015305
loop_
_atom_site_label
_atom_site_type_symbol
_atom_site_fract_x
_atom_site_fract_y
_atom_site_fract_z
_atom_type_partial_charge
O0 O 0.72894 0.48645 0.18793 0.0
Cd1 Cd 0.68792 0.4863 0.23941 0.0
O2 O 0.73889 0.49089 0.31897 0.0
Cd3 Cd 0.76357 0.49793 0.4213 0.0
O4 O 0.79489 0.50511 0.4973 0.0
C5 C 0.81095 0.51799 0.46422 0.0
O6 O 0.80743 0.52651 0.38865 0.0
C7 C 0.74511 0.48866 0.243 0.0
C8 C 0.6537 0.4884 0.11327 0.0
O9 O 0.66188 0.5075 0.1464 0.0
O10 O 0.66191 0.46836 0.13928 0.0
O11 O 0.93598 0.72669 0.19602 0.0
Cd12 Cd 0.9224 0.68865 0.25341 0.0
O13 O 0.95356 0.73082 0.31664 0.0
Cd14 Cd 0.97038 0.75112 0.41552 0.0
O15 O 0.97457 0.78358 0.48632 0.0
C16 C 0.96234 0.80098 0.45889 0.0
O17 O 0.94867 0.79781 0.39311 0.0
C18 C 0.94888 0.7391 0.24435 0.0
C19 C 0.9439 0.65169 0.16698 0.0
O20 O 0.92391 0.6605 0.14325 0.0
O21 O 0.95359 0.66004 0.23326 0.0
O22 O 0.78492 0.93072 0.19449 0.0
Cd23 Cd 0.82219 0.91992 0.26424 0.0
O24 O 0.77688 0.94181 0.32158 0.0
Cd25 Cd 0.75359 0.95322 0.42184 0.0
O26 O 0.72129 0.95867 0.49286 0.0
C27 C 0.70238 0.95023 0.4608 0.0
O28 O 0.70372 0.93895 0.38921 0.0
C29 C 0.77052 0.94023 0.24549 0.0
C30 C 0.86016 0.94341 0.18982 0.0
O31 O 0.85625 0.92131 0.17514 0.0
O32 O 0.84636 0.95433 0.24055 0.0
O33 O 0.5276 0.77829 0.30534 0.0
Cd34 Cd 0.52462 0.81538 0.3836 0.0
O35 O 0.48868 0.78043 0.29152 0.0
Cd36 Cd 0.45596 0.7604 0.26755 0.0
O37 O 0.45406 0.72275 0.30082 0.0
C38 C 0.46603 0.71843 0.36661 0.0
O39 O 0.47562 0.73642 0.4069 0.0
C40 C 0.50822 0.7696 0.27782 0.0
C41 C 0.5139 0.85266 0.27519 0.0
O42 O 0.53552 0.84815 0.29615 0.0
O43 O 0.49731 0.83975 0.30664 0.0
O44 O 0.27407 0.53065 0.02924 0.0
Cd45 Cd 0.31478 0.52967 0.97651 0.0
O46 O 0.2671 0.49423 0.9862 0.0
Cd47 Cd 0.24789 0.46011 0.98388 0.0
O48 O 0.24131 0.41995 0.97751 0.0
C49 C 0.22345 0.40969 0.94287 0.0
O50 O 0.24194 0.41933 0.97888 0.0
C51 C 0.26024 0.51276 0.02479 0.0
C52 C 0.34482 0.52761 0.11529 0.0
O53 O 0.33863 0.54767 0.08337 0.0
O54 O 0.3374 0.50852 0.07996 0.0
O55 O 0.93172 0.28015 0.21373 0.0
Cd56 Cd 0.92172 0.32041 0.17044 0.0
O57 O 0.96169 0.27735 0.12594 0.0
Cd58 Cd 0.9895 0.25602 0.06572 0.0
O59 O 0.00981 0.22592 0.01627 0.0
C60 C 0.00392 0.20558 0.04466 0.0
O61 O 0.98626 0.20411 0.09802 0.0
C62 C 0.9493 0.26856 0.18503 0.0
C63 C 0.94306 0.35011 0.2869 0.0
O64 O 0.92274 0.3405 0.30117 0.0
O65 O 0.95298 0.34637 0.21612 0.0
O66 O 0.2307 0.93555 0.1518 0.0
Cd67 Cd 0.19197 0.93657 0.08342 0.0
O68 O 0.23197 0.97233 0.1062 0.0
Cd69 Cd 0.25088 0.00545 0.07773 0.0
O70 O 0.28152 0.02461 0.02824 0.0
C71 C 0.29807 0.03193 0.07599 0.0
O72 O 0.29556 0.02975 0.15717 0.0
C73 C 0.24153 0.95538 0.14743 0.0
C74 C 0.15942 0.95271 0.20057 0.0
O75 O 0.16124 0.93045 0.18405 0.0
O76 O 0.17249 0.96744 0.15991 0.0
O77 O 0.53116 0.22555 0.13807 0.0
Cd78 Cd 0.52934 0.1865 0.07273 0.0
O79 O 0.49584 0.22976 0.08143 0.0
Cd80 Cd 0.46641 0.25275 0.0427 0.0
O81 O 0.45479 0.28737 0.99607 0.0
C82 C 0.47086 0.30326 0.00092 0.0
O83 O 0.49191 0.29739 0.03042 0.0
C84 C 0.51252 0.23799 0.12697 0.0
C85 C 0.52126 0.15307 0.19745 0.0
O86 O 0.54227 0.15645 0.16832 0.0
O87 O 0.50396 0.16505 0.16607 0.0
C88 C 0.003 0.03891 0.52489 0.0
Eu89 Eu 0.00721 0.01604 0.66573 0.0
C90 C -0.00086 0.06343 0.49563 0.0
C91 C 0.98663 0.07996 0.54439 0.0
C92 C 0.98232 0.10294 0.51387 0.0
C93 C 0.99065 0.1098 0.43456 0.0
C94 C 0.00366 0.09333 0.38689 0.0
C95 C 0.0078 0.07031 0.41717 0.0
C96 C 0.97597 0.01181 0.79207 0.0
C97 C 0.03488 0.0478 0.80905 0.0
C98 C 0.03789 0.96422 0.94961 0.0
Eu99 Eu 0.02846 0.9914 0.82107 0.0
C100 C 0.02765 0.94238 0.98646 0.0
C101 C 0.04284 0.92558 0.0237 0.0
C102 C 0.03372 0.90422 0.05574 0.0
C103 C 0.00912 0.89923 0.05151 0.0
C104 C 0.99391 0.91628 0.01458 0.0
C105 C 0.0031 0.93759 0.98203 0.0
C106 C 0.05726 0.99554 0.68584 0.0
C107 C 0.99631 0.96143 0.69121 0.0
O108 O 0.02361 0.03452 0.56042 0.0
O109 O 0.98508 0.0287 0.56336 0.0
O110 O 0.96969 0.01263 0.71404 0.0
O111 O 0.998 0.01597 0.80032 0.0
O112 O 0.0261 0.04645 0.73227 0.0
O113 O 0.03629 0.02904 0.85909 0.0
O114 O 0.02508 0.98364 0.95407 0.0
O115 O 0.04804 0.9617 0.87683 0.0
O116 O 0.06483 0.99859 0.76172 0.0
O117 O 0.03564 0.99002 0.68626 0.0
O118 O 0.00145 0.96493 0.77079 0.0
O119 O 0.00121 0.97767 0.63392 0.0
H120 H 0.98003 0.07503 0.6056 0.0
H121 H 0.97251 0.11537 0.55236 0.0
H122 H 0.01012 0.09805 0.3253 0.0
H123 H 0.01754 0.05775 0.37888 0.0
H124 H 0.06187 0.92884 0.02697 0.0
H125 H 0.04607 0.89141 0.08217 0.0
H126 H 0.97486 0.91326 0.01104 0.0
H127 H 0.99103 0.95023 0.95293 0.0
C128 C 0.46757 0.99797 0.53738 0.0
Eu129 Eu 0.48798 0.00066 0.68259 0.0
C130 C 0.44427 0.99264 0.49941 0.0
C131 C 0.4292 0.9749 0.53184 0.0
C132 C 0.40714 0.97031 0.49406 0.0
C133 C 0.39975 0.98356 0.42385 0.0
C134 C 0.41495 0.00131 0.39183 0.0
C135 C 0.43701 0.00575 0.42922 0.0
C136 C 0.48733 0.9712 0.81815 0.0
C137 C 0.45963 0.02885 0.83192 0.0
C138 C 0.54461 0.03128 0.96732 0.0
Eu139 Eu 0.51652 0.02309 0.84119 0.0
C140 C 0.56663 0.02065 0.00104 0.0
C141 C 0.58184 0.03449 0.05051 0.0
C142 C 0.60348 0.02515 0.07935 0.0
C143 C 0.61031 0.00168 0.05943 0.0
C144 C 0.59482 0.9878 0.01016 0.0
C145 C 0.57325 0.99724 0.98093 0.0
C146 C 0.50877 0.05113 0.70614 0.0
C147 C 0.54384 0.98936 0.70531 0.0
O148 O 0.46893 0.01783 0.58026 0.0
O149 O 0.47918 0.98012 0.57197 0.0
O150 O 0.47652 0.96588 0.74863 0.0
O151 O 0.49665 0.99128 0.80959 0.0
O152 O 0.46011 0.02205 0.75249 0.0
O153 O 0.47858 0.02843 0.88161 0.0
O154 O 0.52511 0.01842 0.97304 0.0
O155 O 0.54677 0.04196 0.89485 0.0
O156 O 0.50867 0.05932 0.78203 0.0
O157 O 0.51395 0.02939 0.70603 0.0
O158 O 0.54294 0.99754 0.7828 0.0
O159 O 0.52584 0.99119 0.65211 0.0
H160 H 0.43441 0.96467 0.58642 0.0
H161 H 0.39569 0.95671 0.52061 0.0
H162 H 0.40988 0.01162 0.33728 0.0
H163 H 0.44843 0.01949 0.40328 0.0
H164 H 0.57715 0.0527 0.06581 0.0
H165 H 0.61507 0.03655 0.11572 0.0
H166 H 0.59929 0.9696 0.99432 0.0
H167 H 0.56189 0.98631 0.94202 0.0
C168 C 0.48486 0.47568 0.4352 0.0
Eu169 Eu 0.48473 0.49491 0.58291 0.0
C170 C 0.488 0.45123 0.40431 0.0
C171 C 0.49624 0.44738 0.32293 0.0
C172 C 0.49968 0.42415 0.29373 0.0
C173 C 0.49483 0.40441 0.34548 0.0
C174 C 0.48662 0.40841 0.42717 0.0
C175 C 0.48335 0.43161 0.45644 0.0
C176 C 0.52298 0.49507 0.68574 0.0
C177 C 0.47135 0.46465 0.74365 0.0
C178 C 0.48113 0.5405 0.89764 0.0
Eu179 Eu 0.47857 0.52259 0.74783 0.0
C180 C 0.48446 0.56413 0.93489 0.0
C181 C 0.48712 0.58441 0.88429 0.0
C182 C 0.49041 0.60682 0.9205 0.0
C183 C 0.49112 0.60931 0.00794 0.0
C184 C 0.48853 0.58884 0.05821 0.0
C185 C 0.48522 0.56645 0.02189 0.0
C186 C 0.44016 0.52207 0.64496 0.0
C187 C 0.48907 0.55301 0.58637 0.0
O188 O 0.4654 0.47967 0.47797 0.0
O189 O 0.50373 0.48546 0.46895 0.0
O190 O 0.5167 0.4768 0.6415 0.0
O191 O 0.50957 0.51262 0.67116 0.0
O192 O 0.47013 0.46513 0.66133 0.0
O193 O 0.47676 0.48378 0.78796 0.0
O194 O 0.4995 0.53188 0.85763 0.0
O195 O 0.46102 0.53706 0.85787 0.0
O196 O 0.44602 0.54036 0.69016 0.0
O197 O 0.45397 0.5049 0.66 0.0
O198 O 0.49271 0.55209 0.6678 0.0
O199 O 0.48298 0.53389 0.54288 0.0
H200 H 0.50001 0.46233 0.28201 0.0
H201 H 0.50582 0.42162 0.2303 0.0
H202 H 0.48304 0.39359 0.46889 0.0
H203 H 0.47724 0.43422 0.51989 0.0
H204 H 0.48669 0.58288 0.81688 0.0
H205 H 0.49266 0.62215 0.87996 0.0
H206 H 0.48869 0.59017 0.12566 0.0
H207 H 0.48319 0.55093 0.06177 0.0
C208 C 0.04664 0.50778 0.50992 0.0
Eu209 Eu 0.03009 0.50767 0.66165 0.0
C210 C 0.06893 0.5086 0.46279 0.0
C211 C 0.06787 0.51184 0.3762 0.0
C212 C 0.08877 0.51236 0.32917 0.0
C213 C 0.11109 0.50962 0.36814 0.0
C214 C 0.11205 0.50647 0.45537 0.0
C215 C 0.09108 0.50595 0.50243 0.0
C216 C 0.02908 0.54318 0.77468 0.0
C217 C 0.06658 0.48462 0.8007 0.0
C218 C 0.99019 0.49212 0.98229 0.0
Eu219 Eu 0.01123 0.49327 0.83751 0.0
C220 C 0.96518 0.49291 0.01119 0.0
C221 C 0.95667 0.4751 0.06515 0.0
C222 C 0.93285 0.47508 0.09099 0.0
C223 C 0.91701 0.49297 0.06363 0.0
C224 C 0.92569 0.51095 0.01016 0.0
C225 C 0.94947 0.51089 0.98403 0.0
C226 C 0.00924 0.45912 0.71799 0.0
C227 C 0.97479 0.51654 0.69909 0.0
O228 O 0.0426 0.4883 0.55292 0.0
O229 O 0.04071 0.52718 0.54995 0.0
O230 O 0.02675 0.54646 0.69483 0.0
O231 O 0.03458 0.52177 0.78953 0.0
O232 O 0.06187 0.48905 0.72099 0.0
O233 O 0.0506 0.48791 0.86038 0.0
O234 O -0.00123 0.51161 0.94861 0.0
O235 O 0.99661 0.47289 0.9421 0.0
O236 O 0.01313 0.45436 0.79627 0.0
O237 O 0.00506 0.48091 0.70899 0.0
O238 O 0.97939 0.51248 0.77909 0.0
O239 O 0.99079 0.51247 0.64034 0.0
H240 H 0.05085 0.51397 0.34489 0.0
H241 H 0.08745 0.51518 0.26238 0.0
H242 H 0.12897 0.5041 0.48703 0.0
H243 H 0.09211 0.50336 0.56943 0.0
H244 H 0.96841 0.461 0.0866 0.0
H245 H 0.92675 0.46075 0.13114 0.0
H246 H 0.91416 0.52521 0.98876 0.0
H247 H 0.95548 0.52488 0.94224 0.0
H248 H 0.11869 0.93149 0.25573 0.0
H249 H 0.10463 0.0071 0.66602 0.0
H250 H 0.16403 0.99249 0.29725 0.0
H251 H 0.04404 0.97727 0.53666 0.0
H252 H 0.12941 -0.0012 0.54243 0.0
H253 H 0.09337 0.94437 0.37143 0.0
C254 C 0.12324 0.94763 0.28911 0.0
C255 C 0.14337 0.96101 0.26703 0.0
C256 C 0.11062 0.99432 0.54137 0.0
C257 C 0.11488 0.97553 0.39993 0.0
C258 C 0.09656 -0.00103 0.61159 0.0
C259 C 0.07237 0.99269 0.6115 0.0
C260 C 0.10038 0.98288 0.4721 0.0
C261 C 0.06267 0.98229 0.53949 0.0
C262 C 0.10879 0.955 0.35478 0.0
C263 C 0.14852 0.98181 0.31218 0.0
N264 N 0.07677 0.97741 0.47314 0.0
N265 N 0.1345 0.98832 0.37744 0.0
H266 H 0.54786 0.11426 0.24075 0.0
H267 H 0.49268 0.09705 0.68842 0.0
H268 H 0.48595 0.15468 0.31444 0.0
H269 H 0.52185 0.03799 0.55021 0.0
H270 H 0.49334 0.12124 0.55977 0.0
H271 H 0.54237 0.08843 0.36286 0.0
C272 C 0.53307 0.11761 0.28251 0.0
C273 C 0.51731 0.13654 0.26772 0.0
C274 C 0.49938 0.1029 0.55789 0.0
C275 C 0.51123 0.1075 0.40769 0.0
C276 C 0.49908 0.08919 0.63098 0.0
C277 C 0.50733 0.06563 0.62963 0.0
C278 C 0.50852 0.09302 0.48412 0.0
C279 C 0.51538 0.05615 0.55382 0.0
C280 C 0.5299 0.10286 0.35181 0.0
C281 C 0.49839 0.14014 0.32358 0.0
N282 N 0.51608 0.06998 0.48426 0.0
N283 N 0.49604 0.12591 0.39199 0.0
H284 H 0.36043 0.48792 0.19915 0.0
H285 H 0.42314 0.56187 0.56634 0.0
H286 H 0.36194 0.56483 0.20816 0.0
H287 H 0.42184 0.48506 0.55597 0.0
H288 H 0.39987 0.56341 0.43691 0.0
H289 H 0.38273 0.48654 0.33022 0.0
C290 C 0.36553 0.50453 0.22849 0.0
C291 C 0.35931 0.52653 0.19254 0.0
C292 C 0.40457 0.54621 0.46305 0.0
C293 C 0.38472 0.52508 0.34309 0.0
C294 C 0.41771 0.54533 0.53715 0.0
C295 C 0.42444 0.5233 0.57136 0.0
C296 C 0.39807 0.52487 0.42322 0.0
C297 C 0.41715 0.50241 0.53095 0.0
C298 C 0.37822 0.50373 0.3035 0.0
C299 C 0.36637 0.54747 0.23353 0.0
N300 N 0.40442 0.50369 0.45883 0.0
N301 N 0.37867 0.54623 0.30665 0.0
H302 H 0.93677 0.34805 0.45559 0.0
H303 H 0.00161 0.46773 0.55355 0.0
H304 H 0.97644 0.38501 0.26414 0.0
H305 H 0.00235 0.41085 0.73563 0.0
H306 H 0.98863 0.43953 0.44741 0.0
H307 H 0.9564 0.37273 0.56153 0.0
C308 C 0.94958 0.36139 0.43593 0.0
C309 C 0.95491 0.36468 0.3511 0.0
C310 C 0.992 0.43315 0.51027 0.0
C311 C 0.97714 0.39287 0.47135 0.0
C312 C -0.00047 0.44918 0.57082 0.0
C313 C 0.00344 0.44151 0.65315 0.0
C314 C 0.98756 0.40941 0.53275 0.0
C315 C -0.00028 0.41739 0.67262 0.0
C316 C 0.9609 0.37525 0.49634 0.0
C317 C 0.97183 0.38198 0.32892 0.0
N318 N 0.99159 0.40218 0.61294 0.0
N319 N 0.98212 0.39571 0.38869 0.0
H320 H 0.90423 0.92692 0.14713 0.0
H321 H 0.92772 0.00887 0.78243 0.0
H322 H 0.85877 0.98881 0.13019 0.0
H323 H 0.98604 0.00288 0.95681 0.0
H324 H 0.90032 0.99549 0.89214 0.0
H325 H 0.93406 0.94771 0.0608 0.0
C326 C 0.90069 0.94494 0.12586 0.0
C327 C 0.87914 0.95627 0.1454 0.0
C328 C 0.91916 0.99725 0.9061 0.0
C329 C 0.91253 0.97955 0.04613 0.0
C330 C 0.93477 0.00478 0.84385 0.0
C331 C 0.95929 0.00635 0.86033 0.0
C332 C 0.92828 0.99063 0.9842 0.0
C333 C 0.96744 0.00109 0.9411 0.0
C334 C 0.91767 0.95674 0.07735 0.0
C335 C 0.87528 0.9796 0.11659 0.0
N336 N 0.95203 0.99285 -6e-05 0.0
N337 N 0.89162 0.99034 0.06651 0.0
H338 H 0.47191 0.86047 0.19215 0.0
H339 H 0.52029 0.97404 0.94188 0.0
H340 H 0.54336 0.88811 0.21933 0.0
H341 H 0.46019 0.93252 0.85904 0.0
H342 H 0.52559 0.94672 0.05987 0.0
H343 H 0.46399 0.89079 0.08522 0.0
C344 C 0.48586 0.87303 0.17611 0.0
C345 C 0.50837 0.87171 0.21431 0.0
C346 C 0.51113 0.94367 0.01629 0.0
C347 C 0.49939 0.90639 0.0926 0.0
C348 C 0.508 0.95938 0.94955 0.0
C349 C 0.48972 0.95557 0.89152 0.0
C350 C 0.4957 0.92411 0.02519 0.0
C351 C 0.47452 0.936 0.90274 0.0
C352 C 0.48135 0.89024 0.11491 0.0
C353 C 0.52581 0.88839 0.19105 0.0
N354 N 0.47783 0.92095 0.96851 0.0
N355 N 0.52094 0.90506 0.1317 0.0
H356 H 0.63374 0.45116 0.0283 0.0
H357 H 0.54223 0.53288 0.76993 0.0
H358 H 0.63102 0.52783 0.04976 0.0
H359 H 0.54832 0.45672 0.74026 0.0
H360 H 0.57447 0.5316 0.87347 0.0
H361 H 0.60226 0.45299 0.92306 0.0
C362 C 0.62656 0.4684 0.01076 0.0
C363 C 0.63503 0.48937 0.04796 0.0
C364 C 0.56877 0.51517 0.84425 0.0
C365 C 0.59888 0.4916 0.92746 0.0
C366 C 0.55035 0.5159 0.78544 0.0
C367 C 0.54259 0.49485 0.74704 0.0
C368 C 0.57947 0.49323 0.86461 0.0
C369 C 0.55381 0.47335 0.76851 0.0
C370 C 0.60857 0.46944 0.9506 0.0
C371 C 0.62504 0.5112 0.02269 0.0
N372 N 0.57164 0.47308 0.82599 0.0
N373 N 0.60746 0.51175 0.96413 0.0
H374 H 0.98555 0.62768 0.20174 0.0
H375 H 0.99409 0.57503 0.74284 0.0
H376 H 0.92991 0.63421 0.01625 0.0
H377 H 0.0374 0.54702 0.94334 0.0
H378 H 0.97287 0.59975 0.84236 0.0
H379 H 0.00675 0.60006 0.10932 0.0
C380 C 0.9777 0.62317 0.14199 0.0
C381 C 0.95601 0.6334 0.11632 0.0
C382 C 0.98699 0.58823 0.86495 0.0
C383 C 0.98022 0.60219 0.01062 0.0
C384 C -0.00072 0.57427 0.808 0.0
C385 C 0.01751 0.55903 0.83521 0.0
C386 C 0.99316 0.58726 0.9498 0.0
C387 C 0.02337 0.55858 0.92033 0.0
C388 C 0.9898 0.60742 0.08948 0.0
C389 C 0.94662 0.62688 0.03851 0.0
N390 N 0.01124 0.57261 0.97499 0.0
N391 N 0.95888 0.61189 0.98822 0.0
H392 H 0.91857 0.23399 0.2368 0.0
H393 H 0.02076 0.14054 0.35304 0.0
H394 H 0.99345 0.25087 0.22121 0.0
H395 H 0.94807 0.13348 0.43772 0.0
H396 H 0.01085 0.1796 0.29349 0.0
H397 H 0.92875 0.19559 0.30103 0.0
C398 C 0.93716 0.22949 0.24654 0.0
C399 C 0.95525 0.24518 0.22153 0.0
C400 C 0.99713 0.16956 0.32563 0.0
C401 C 0.96702 0.20166 0.29598 0.0
C402 C 0.00273 0.14723 0.35912 0.0
C403 C 0.98521 0.1338 0.40053 0.0
C404 C 0.97379 0.17837 0.33278 0.0
C405 C 0.96218 0.14338 0.40718 0.0
C406 C 0.94296 0.20767 0.28343 0.0
C407 C 0.97903 0.23884 0.23701 0.0
N408 N 0.95709 0.16502 0.37323 0.0
N409 N 0.98427 0.21749 0.2731 0.0
H410 H 0.27658 0.92213 0.17367 0.0
H411 H 0.36727 0.01662 0.37038 0.0
H412 H 0.25877 0.99563 0.22053 0.0
H413 H 0.37859 0.94065 0.38746 0.0
H414 H 0.32884 0.00934 0.30336 0.0
H415 H 0.31526 0.92841 0.24258 0.0
C416 C 0.2809 0.93961 0.19792 0.0
C417 C 0.26484 0.95863 0.18885 0.0
C418 C 0.33967 0.99424 0.32203 0.0
C419 C 0.30875 0.96589 0.26789 0.0
C420 C 0.36169 0.99839 0.35978 0.0
C421 C 0.37617 0.97921 0.38447 0.0
C422 C 0.33206 0.97072 0.30826 0.0
C423 C 0.36787 0.95594 0.37012 0.0
C424 C 0.3029 0.94317 0.23722 0.0
C425 C 0.27107 0.9808 0.22257 0.0
N426 N 0.34639 0.95233 0.33258 0.0
N427 N 0.29256 0.98384 0.26019 0.0
H428 H 0.47332 0.25775 0.19838 0.0
H429 H 0.53215 0.38645 0.25463 0.0
H430 H 0.54712 0.27212 0.14245 0.0
H431 H 0.46507 0.36614 0.36567 0.0
H432 H 0.53716 0.34552 0.2047 0.0
H433 H 0.46929 0.29812 0.25377 0.0
C434 C 0.48864 0.26951 0.19754 0.0
C435 C 0.51044 0.26187 0.16436 0.0
C436 C 0.52141 0.35002 0.24032 0.0
C437 C 0.50607 0.30798 0.22805 0.0
C438 C 0.51845 0.3734 0.26826 0.0
C439 C 0.49817 0.37971 0.3145 0.0
C440 C 0.50385 0.33287 0.25804 0.0
C441 C 0.4811 0.36201 0.33109 0.0
C442 C 0.4864 0.29247 0.22964 0.0
C443 C 0.52996 0.27749 0.16688 0.0
N444 N 0.48428 0.33945 0.3026 0.0
N445 N 0.52725 0.29995 0.19731 0.0
H446 H 0.21782 0.49159 0.98262 0.0
H447 H 0.15327 0.53187 0.40499 0.0
H448 H 0.25106 0.53515 0.17111 0.0
H449 H 0.11924 0.48885 0.21622 0.0
H450 H 0.18931 0.53319 0.3198 0.0
H451 H 0.18123 0.49071 0.06607 0.0
C452 C 0.21747 0.50068 0.04206 0.0
C453 C 0.23757 0.51298 0.07109 0.0
C454 C 0.17395 0.52347 0.29693 0.0
C455 C 0.19586 0.51242 0.16602 0.0
C456 C 0.15344 0.52257 0.34586 0.0
C457 C 0.13322 0.51023 0.31771 0.0
C458 C 0.17431 0.5119 0.21929 0.0
C459 C 0.13432 0.49882 0.2399 0.0
C460 C 0.19657 0.50037 0.0893 0.0
C461 C 0.23594 0.52536 0.14675 0.0
N462 N 0.15453 0.4999 0.19344 0.0
N463 N 0.2155 0.52464 0.19189 0.0
H464 H 0.92753 0.76943 0.13349 0.0
H465 H 0.02339 0.87389 0.19062 0.0
H466 H 0.98972 0.76287 0.29078 0.0
H467 H 0.97299 0.87162 0.98651 0.0
H468 H 0.00861 0.83524 0.23878 0.0
H469 H 0.94143 0.80882 0.08862 0.0
C470 C 0.94403 0.77635 0.15912 0.0
C471 C 0.95715 0.76307 0.21775 0.0
C472 C 0.0008 0.84323 0.18346 0.0
C473 C 0.9732 0.80815 0.16654 0.0
C474 C 0.00929 0.86529 0.15559 0.0
C475 C -0.00044 0.87612 0.08388 0.0
C476 C 0.98229 0.83188 0.13983 0.0
C477 C 0.9809 0.86423 0.04257 0.0
C478 C 0.95194 0.79884 0.1335 0.0
C479 C 0.97851 0.77283 0.2482 0.0
N480 N 0.97292 0.84279 0.07107 0.0
N481 N 0.98582 0.7948 0.22252 0.0
H482 H 0.74332 0.92321 0.11679 0.0
H483 H 0.6329 0.00925 0.20975 0.0
H484 H 0.74442 0.97762 0.30619 0.0
H485 H 0.64115 0.9718 0.97643 0.0
H486 H 0.67175 0.99423 0.25451 0.0
H487 H 0.704 0.93753 0.07149 0.0
C488 C 0.73521 0.93803 0.14929 0.0
C489 C 0.74682 0.94872 0.21722 0.0
C490 C 0.66505 0.98933 0.19347 0.0
C491 C 0.70196 0.96521 0.16578 0.0
C492 C 0.64287 0.99799 0.1676 0.0
C493 C 0.63365 0.99194 0.0888 0.0
C494 C 0.67814 0.97434 0.1406 0.0
C495 C 0.64729 0.97675 0.03806 0.0
C496 C 0.7128 0.94619 0.12345 0.0
C497 C 0.73566 0.96809 0.25628 0.0
N498 N 0.66881 0.96848 0.06481 0.0
N499 N 0.71382 0.97562 0.23035 0.0
H500 H 0.53304 0.72919 0.31914 0.0
H501 H 0.47091 0.65163 0.9596 0.0
H502 H 0.48288 0.75731 0.13992 0.0
H503 H 0.51837 0.62146 0.14436 0.0
H504 H 0.47638 0.69075 0.02265 0.0
H505 H 0.52949 0.68983 0.25334 0.0
C506 C 0.52148 0.72707 0.2654 0.0
C507 C 0.50798 0.74632 0.23535 0.0
C508 C 0.48564 0.6756 0.04948 0.0
C509 C 0.50384 0.70164 0.15988 0.0
C510 C 0.48262 0.65325 0.01312 0.0
C511 C 0.49427 0.6332 0.04642 0.0
C512 C 0.50046 0.67805 0.11975 0.0
C513 C 0.50886 0.63637 0.117 0.0
C514 C 0.51933 0.70464 0.22822 0.0
C515 C 0.49324 0.74276 0.16578 0.0
N516 N 0.51157 0.65837 0.15124 0.0
N517 N 0.4915 0.72085 0.13059 0.0
H518 H 0.78394 0.472 0.33016 0.0
H519 H 0.87743 0.50459 0.97037 0.0
H520 H 0.76405 0.50536 0.09725 0.0
H521 H 0.89822 0.48066 0.21657 0.0
H522 H 0.83579 0.50395 0.0143 0.0
H523 H 0.82578 0.47391 0.28845 0.0
C524 C 0.7884 0.4802 0.27101 0.0
C525 C 0.77053 0.48924 0.21827 0.0
C526 C 0.84946 0.49887 0.05877 0.0
C527 C 0.81838 0.49058 0.16838 0.0
C528 C 0.87331 0.49936 0.03389 0.0
C529 C 0.8915 0.49271 0.0898 0.0
C530 C 0.84361 0.49156 0.14015 0.0
C531 C 0.88487 0.48563 0.17082 0.0
C532 C 0.8123 0.48099 0.24666 0.0
C533 C 0.77729 0.49839 0.14015 0.0
N534 N 0.86151 0.48523 0.19346 0.0
N535 N 0.80067 0.49888 0.11765 0.0
H536 H 0.00661 0.16315 0.12636 0.0
H537 H 0.03817 0.09033 0.72473 0.0
H538 H 0.02763 0.19798 0.89737 0.0
H539 H 0.04167 0.05999 0.97272 0.0
H540 H 0.03728 0.13014 0.78599 0.0
H541 H 0.0217 0.1255 0.07227 0.0
C542 C 0.01463 0.16288 0.06487 0.0
C543 C 0.01562 0.18359 0.01574 0.0
C544 C 0.03873 0.11479 0.82689 0.0
C545 C 0.0327 0.1405 0.95296 0.0
C546 C 0.03922 0.09203 0.79199 0.0
C547 C 0.03958 0.07175 0.84373 0.0
C548 C 0.0382 0.11724 0.91406 0.0
C549 C 0.04115 0.07507 0.93037 0.0
C550 C 0.02337 0.14141 0.03417 0.0
C551 C 0.02644 0.18234 0.93698 0.0
N552 N 0.03993 0.09737 0.96285 0.0
N553 N 0.03418 0.16101 0.90726 0.0
H554 H 0.30883 0.03978 0.91172 0.0
H555 H 0.44916 0.03921 0.99523 0.0
H556 H 0.34034 0.03951 0.15795 0.0
H557 H 0.41691 0.03435 0.75067 0.0
H558 H 0.40974 0.04608 0.05501 0.0
H559 H 0.34843 0.04482 0.85147 0.0
C560 C 0.32405 0.04111 0.95322 0.0
C561 C 0.3213 0.03889 0.03997 0.0
C562 C 0.41135 0.04376 0.98816 0.0
C563 C 0.36675 0.04443 0.97127 0.0
C564 C 0.43387 0.03986 0.95387 0.0
C565 C 0.43637 0.03586 0.86782 0.0
C566 C 0.39117 0.04365 0.93609 0.0
C567 C 0.41588 0.03704 0.81745 0.0
C568 C 0.34668 0.04395 0.91873 0.0
C569 C 0.34164 0.04097 0.09069 0.0
N570 N 0.39414 0.04061 0.85244 0.0
N571 N 0.36356 0.04332 0.0555 0.0
H572 H 0.43885 0.31854 0.88282 0.0
H573 H 0.48218 0.45403 0.90582 0.0
H574 H 0.49365 0.34346 0.05079 0.0
H575 H 0.45199 0.42332 0.68238 0.0
H576 H 0.47846 0.41544 0.97551 0.0
H577 H 0.4356 0.35903 0.82467 0.0
C578 C 0.44994 0.3326 0.90809 0.0
C579 C 0.46672 0.32772 0.97086 0.0
C580 C 0.47251 0.41723 0.91141 0.0
C581 C 0.46298 0.37372 0.90562 0.0
C582 C 0.47454 0.43925 0.8716 0.0
C583 C 0.46755 0.44184 0.78789 0.0
C584 C 0.46319 0.39772 0.86755 0.0
C585 C 0.45779 0.42204 0.74674 0.0
C586 C 0.44817 0.35558 0.87471 0.0
C587 C 0.48071 0.34647 0.00156 0.0
N588 N 0.45593 0.40074 0.787 0.0
N589 N 0.47854 0.36867 0.96855 0.0
H590 H 0.19463 0.40056 0.81326 0.0
H591 H 0.08909 0.48511 0.95362 0.0
H592 H 0.20308 0.44858 0.0205 0.0
H593 H 0.09887 0.46359 0.69744 0.0
H594 H 0.12876 0.469 0.98707 0.0
H595 H 0.15713 0.42046 0.77668 0.0
C596 C 0.18868 0.41555 0.8503 0.0
C597 C 0.20211 0.42335 0.91855 0.0
C598 C 0.12219 0.46797 0.92354 0.0
C599 C 0.159 0.44569 0.87909 0.0
C600 C 0.09954 0.47702 0.9045 0.0
C601 C 0.09062 0.47562 0.82266 0.0
C602 C 0.13569 0.457 0.86069 0.0
C603 C 0.10501 0.46509 0.76134 0.0
C604 C 0.16734 0.42687 0.82952 0.0
C605 C 0.19349 0.44253 0.96585 0.0
N606 N 0.12668 0.45597 0.78179 0.0
N607 N 0.17229 0.45294 0.94571 0.0
H608 H 0.94555 0.84328 0.39828 0.0
H609 H 0.99448 0.91994 0.78164 0.0
H610 H 0.98292 0.81246 0.60855 0.0
H611 H 0.97705 0.94987 0.54021 0.0
H612 H 0.98303 0.88054 0.7302 0.0
H613 H 0.95006 0.88265 0.46091 0.0
C614 C 0.95455 0.84477 0.45793 0.0
C615 C 0.96402 0.82462 0.4981 0.0
C616 C 0.98157 0.89579 0.68884 0.0
C617 C 0.96915 0.86953 0.57002 0.0
C618 C 0.98798 0.91828 0.71818 0.0
C619 C 0.98696 0.93813 0.66469 0.0
C620 C 0.97389 0.89327 0.60587 0.0
C621 C 0.97837 0.93498 0.5832 0.0
C622 C 0.95715 0.86724 0.4935 0.0
C623 C 0.97553 0.82758 0.57523 0.0
N624 N 0.97226 0.91293 0.55613 0.0
N625 N 0.97782 0.84967 0.60871 0.0
H626 H 0.69365 0.96889 0.61542 0.0
H627 H 0.55245 0.96767 0.5557 0.0
H628 H 0.65823 0.93915 0.39998 0.0
H629 H 0.58724 0.989 0.78452 0.0
H630 H 0.59099 0.95563 0.49996 0.0
H631 H 0.65481 0.97537 0.68027 0.0
C632 C 0.6777 0.96365 0.58189 0.0
C633 C 0.67915 0.95354 0.50208 0.0
C634 C 0.59017 0.96276 0.56263 0.0
C635 C 0.6347 0.96093 0.5758 0.0
C636 C 0.56815 0.96965 0.59456 0.0
C637 C 0.56662 0.97958 0.67464 0.0
C638 C 0.61085 0.96599 0.61082 0.0
C639 C 0.58756 0.98154 0.7223 0.0
C640 C 0.65555 0.96728 0.61905 0.0
C641 C 0.65794 0.947 0.46161 0.0
N642 N 0.60886 0.97502 0.6893 0.0
N643 N 0.63657 0.95094 0.49874 0.0
H644 H 0.48965 0.70452 0.50697 0.0
H645 H 0.47228 0.56477 0.43038 0.0
H646 H 0.45357 0.67626 0.29047 0.0
H647 H 0.50532 0.59518 0.64931 0.0
H648 H 0.46815 0.6049 0.37137 0.0
H649 H 0.49794 0.66412 0.55388 0.0
C650 C 0.48338 0.68979 0.4693 0.0
C651 C 0.47063 0.69379 0.39517 0.0
C652 C 0.47648 0.60272 0.43197 0.0
C653 C 0.48022 0.64725 0.44857 0.0
C654 C 0.479 0.57982 0.46551 0.0
C655 C 0.48911 0.57661 0.54508 0.0
C656 C 0.48415 0.6225 0.47837 0.0
C657 C 0.4973 0.59677 0.58799 0.0
C658 C 0.48819 0.66666 0.49609 0.0
C659 C 0.46318 0.67396 0.34862 0.0
N660 N 0.49453 0.61882 0.55427 0.0
N661 N 0.46803 0.65149 0.37626 0.0
H662 H 0.82385 0.50431 0.62273 0.0
H663 H 0.96057 0.53534 0.55022 0.0
H664 H 0.85046 0.54059 0.40362 0.0
H665 H 0.93324 0.51102 0.78753 0.0
H666 H 0.91985 0.53969 0.49929 0.0
H667 H 0.86314 0.50845 0.68781 0.0
C668 C 0.83789 0.51332 0.58857 0.0
C669 C 0.83393 0.52195 0.50731 0.0
C670 C 0.92269 0.53366 0.56285 0.0
C671 C 0.87888 0.52666 0.58125 0.0
C672 C 0.94596 0.53116 0.59196 0.0
C673 C 0.95029 0.52255 0.67286 0.0
C674 C 0.90355 0.5272 0.61459 0.0
C675 C 0.93069 0.51764 0.72456 0.0
C676 C 0.86029 0.51573 0.62586 0.0
C677 C 0.85272 0.53356 0.46617 0.0
N678 N 0.90812 0.5197 0.69409 0.0
N679 N 0.87442 0.53537 0.50329 0.0
loop_
_geom_bond_atom_site_label_1
_geom_bond_atom_site_label_2
_geom_bond_distance
_geom_bond_site_symmetry_2
_ccdc_geom_bond_type
O0 Cd1 2.300 . S
O0 C7 1.275 . S
Cd1 O0 2.300 . S
Cd1 O9 2.381 . S
Cd1 O10 2.378 . S
O2 Cd3 2.385 . S
O2 C7 1.255 . S
Cd3 O2 2.385 . S
Cd3 O4 2.317 . S
O4 Cd3 2.317 . S
O4 C5 1.232 . S
C5 O4 1.232 . S
C5 O6 1.218 . S
O6 C5 1.218 . S
C7 O0 1.275 . S
C7 O2 1.255 . S
C8 O9 1.258 . S
C8 O10 1.256 . S
O9 Cd1 2.381 . S
O9 C8 1.258 . S
O10 Cd1 2.378 . S
O10 C8 1.256 . S
O11 Cd12 2.300 1_655 S
O11 C18 1.275 1_655 S
Cd12 O11 2.300 1_455 S
Cd12 O20 2.381 1_455 S
Cd12 O21 2.378 . S
O13 Cd14 2.385 . S
O13 C18 1.255 . S
Cd14 O13 2.385 . S
Cd14 O15 2.317 . S
O15 Cd14 2.317 . S
O15 C16 1.232 . S
C16 O15 1.232 . S
C16 O17 1.218 . S
O17 C16 1.218 . S
C18 O11 1.275 1_455 S
C18 O13 1.255 . S
C19 O20 1.258 1_455 S
C19 O21 1.256 . S
O20 Cd12 2.381 1_655 S
O20 C19 1.258 1_655 S
O21 Cd12 2.378 . S
O21 C19 1.256 . S
O22 Cd23 2.300 1_565 S
O22 C29 1.275 1_565 S
Cd23 O22 2.300 1_545 S
Cd23 O31 2.381 1_545 S
Cd23 O32 2.378 . S
O24 Cd25 2.385 . S
O24 C29 1.255 . S
Cd25 O24 2.385 . S
Cd25 O26 2.317 . S
O26 Cd25 2.317 . S
O26 C27 1.232 . S
C27 O26 1.232 . S
C27 O28 1.218 . S
O28 C27 1.218 . S
C29 O22 1.275 1_545 S
C29 O24 1.255 . S
C30 O31 1.258 1_545 S
C30 O32 1.256 . S
O31 Cd23 2.381 1_565 S
O31 C30 1.258 1_565 S
O32 Cd23 2.378 . S
O32 C30 1.256 . S
O33 Cd34 2.300 . S
O33 C40 1.275 . S
Cd34 O33 2.300 . S
Cd34 O42 2.381 . S
Cd34 O43 2.378 . S
O35 Cd36 2.385 . S
O35 C40 1.255 . S
Cd36 O35 2.385 . S
Cd36 O37 2.317 . S
O37 Cd36 2.317 . S
O37 C38 1.232 . S
C38 O37 1.232 . S
C38 O39 1.218 . S
O39 C38 1.218 . S
C40 O33 1.275 . S
C40 O35 1.255 . S
C41 O42 1.258 . S
C41 O43 1.256 . S
O42 Cd34 2.381 . S
O42 C41 1.258 . S
O43 Cd34 2.378 . S
O43 C41 1.256 . S
O44 Cd45 2.300 . S
O44 C51 1.275 . S
Cd45 O44 2.300 . S
Cd45 O53 2.381 . S
Cd45 O54 2.378 . S
O46 Cd47 2.385 . S
O46 C51 1.255 . S
Cd47 O46 2.385 . S
Cd47 O48 2.317 1_554 S
O48 Cd47 2.317 1_556 S
O48 C49 1.232 . S
C49 O48 1.232 . S
C49 O50 1.218 . S
O50 C49 1.218 . S
C51 O44 1.275 . S
C51 O46 1.255 . S
C52 O53 1.258 . S
C52 O54 1.256 . S
O53 Cd45 2.381 . S
O53 C52 1.258 . S
O54 Cd45 2.378 . S
O54 C52 1.256 . S
O55 Cd56 2.300 1_655 S
O55 C62 1.275 1_655 S
Cd56 O55 2.300 1_455 S
Cd56 O64 2.381 1_455 S
Cd56 O65 2.378 . S
O57 Cd58 2.385 . S
O57 C62 1.255 . S
Cd58 O57 2.385 . S
Cd58 O59 2.317 1_554 S
O59 Cd58 2.317 1_556 S
O59 C60 1.232 . S
C60 O59 1.232 . S
C60 O61 1.218 . S
O61 C60 1.218 . S
C62 O55 1.275 1_455 S
C62 O57 1.255 . S
C63 O64 1.258 1_455 S
C63 O65 1.256 . S
O64 Cd56 2.381 1_655 S
O64 C63 1.258 1_655 S
O65 Cd56 2.378 . S
O65 C63 1.256 . S
O66 Cd67 2.300 1_565 S
O66 C73 1.275 1_565 S
Cd67 O66 2.300 1_545 S
Cd67 O75 2.381 1_545 S
Cd67 O76 2.378 . S
O68 Cd69 2.385 . S
O68 C73 1.255 . S
Cd69 O68 2.385 . S
Cd69 O70 2.317 1_554 S
O70 Cd69 2.317 1_556 S
O70 C71 1.232 . S
C71 O70 1.232 . S
C71 O72 1.218 . S
O72 C71 1.218 . S
C73 O66 1.275 1_545 S
C73 O68 1.255 . S
C74 O75 1.258 1_545 S
C74 O76 1.256 . S
O75 Cd67 2.381 1_565 S
O75 C74 1.258 1_565 S
O76 Cd67 2.378 . S
O76 C74 1.256 . S
O77 Cd78 2.300 . S
O77 C84 1.275 . S
Cd78 O77 2.300 . S
Cd78 O86 2.381 . S
Cd78 O87 2.378 . S
O79 Cd80 2.387 . S
O79 C84 1.255 . S
Cd80 O79 2.387 . S
Cd80 O81 2.315 1_554 S
O81 Cd80 2.315 1_556 S
O81 C82 1.232 . S
C82 O81 1.232 . S
C82 O83 1.218 . S
O83 C82 1.218 . S
C84 O77 1.275 . S
C84 O79 1.255 . S
C85 O86 1.258 . S
C85 O87 1.256 . S
O86 Cd78 2.381 . S
O86 C85 1.258 . S
O87 Cd78 2.378 . S
O87 C85 1.256 . S
C88 Eu89 2.835 . S
C88 C90 1.500 . S
C88 O108 1.257 . S
C88 O109 1.260 . S
Eu89 C88 2.835 . S
Eu89 O108 2.473 . S
Eu89 O109 2.480 . S
Eu89 O110 2.430 . S
Eu89 O111 2.670 1_545 S
Eu89 O112 2.394 . S
Eu89 O117 2.355 1_655 S
Eu89 O119 2.374 1_545 S
C90 C88 1.500 . S
C90 C91 1.377 . S
C90 C95 1.377 . S
C91 C90 1.377 . S
C91 C92 1.395 . S
C91 H120 0.931 . S
C92 C91 1.395 . S
C92 C93 1.383 . S
C92 H121 0.931 . S
C93 C92 1.383 . S
C93 C94 1.394 . S
C94 C93 1.394 . S
C94 C95 1.378 . S
C94 H122 0.931 1_655 S
C95 C90 1.377 . S
C95 C94 1.378 . S
C95 H123 0.931 1_655 S
C96 O110 1.259 . S
C96 O111 1.270 1_545 S
C97 O112 1.251 1_455 S
C97 O113 1.251 . S
C98 Eu99 2.835 . S
C98 C100 1.500 . S
C98 O114 1.257 . S
C98 O115 1.260 . S
Eu99 C98 2.835 . S
Eu99 O111 2.355 1_455 S
Eu99 O113 2.374 1_565 S
Eu99 O114 2.473 . S
Eu99 O115 2.480 . S
Eu99 O116 2.430 . S
Eu99 O117 2.670 1_565 S
Eu99 O118 2.394 . S
C100 C98 1.500 . S
C100 C101 1.377 . S
C100 C105 1.377 . S
C101 C100 1.377 . S
C101 C102 1.395 . S
C101 H124 0.931 . S
C102 C101 1.395 . S
C102 C103 1.383 1_556 S
C102 H125 0.931 . S
C103 C102 1.383 1_554 S
C103 C104 1.394 . S
C104 C103 1.394 . S
C104 C105 1.378 1_554 S
C104 H126 0.931 1_455 S
C105 C100 1.377 . S
C105 C104 1.378 1_556 S
C105 H127 0.931 1_455 S
C106 O116 1.279 . S
C106 O117 1.256 1_565 S
C107 O118 1.251 1_655 S
C107 O119 1.251 . S
O108 C88 1.257 . S
O108 Eu89 2.473 . S
O109 C88 1.260 . S
O109 Eu89 2.480 . S
O110 Eu89 2.430 . S
O110 C96 1.259 . S
O111 Eu89 2.670 1_565 S
O111 C96 1.270 1_565 S
O111 Eu99 2.355 1_655 S
O112 Eu89 2.394 . S
O112 C97 1.251 1_655 S
O113 C97 1.251 . S
O113 Eu99 2.374 1_545 S
O114 C98 1.257 . S
O114 Eu99 2.473 . S
O115 C98 1.260 . S
O115 Eu99 2.480 . S
O116 Eu99 2.430 . S
O116 C106 1.279 . S
O117 Eu89 2.355 1_455 S
O117 Eu99 2.670 1_545 S
O117 C106 1.256 1_545 S
O118 Eu99 2.394 . S
O118 C107 1.251 1_455 S
O119 Eu89 2.374 1_565 S
O119 C107 1.251 . S
H120 C91 0.931 . S
H121 C92 0.931 . S
H122 C94 0.931 1_455 S
H123 C95 0.931 1_455 S
H124 C101 0.931 . S
H125 C102 0.931 . S
H126 C104 0.931 1_655 S
H127 C105 0.931 1_655 S
C128 Eu129 2.835 . S
C128 C130 1.500 . S
C128 O148 1.257 . S
C128 O149 1.260 . S
Eu129 C128 2.835 . S
Eu129 O148 2.473 . S
Eu129 O149 2.480 . S
Eu129 O150 2.430 . S
Eu129 O151 2.670 . S
Eu129 O152 2.394 . S
Eu129 O157 2.355 1_565 S
Eu129 O159 2.374 . S
C130 C128 1.500 . S
C130 C131 1.377 . S
C130 C135 1.377 . S
C131 C130 1.377 . S
C131 C132 1.395 . S
C131 H160 0.931 . S
C132 C131 1.395 . S
C132 C133 1.383 . S
C132 H161 0.931 . S
C133 C132 1.383 . S
C133 C134 1.394 . S
C134 C133 1.394 . S
C134 C135 1.378 . S
C134 H162 0.931 1_565 S
C135 C130 1.377 . S
C135 C134 1.378 . S
C135 H163 0.931 1_565 S
C136 O150 1.259 . S
C136 O151 1.270 . S
C137 O152 1.251 1_545 S
C137 O153 1.251 . S
C138 Eu139 2.835 . S
C138 C140 1.500 . S
C138 O154 1.257 . S
C138 O155 1.260 . S
Eu139 C138 2.835 . S
Eu139 O151 2.355 1_545 S
Eu139 O153 2.374 . S
Eu139 O154 2.473 . S
Eu139 O155 2.480 . S
Eu139 O156 2.430 . S
Eu139 O157 2.670 . S
Eu139 O158 2.394 . S
C140 C138 1.500 . S
C140 C141 1.377 . S
C140 C145 1.377 . S
C141 C140 1.377 . S
C141 C142 1.395 . S
C141 H164 0.931 . S
C142 C141 1.395 . S
C142 C143 1.383 1_556 S
C142 H165 0.931 . S
C143 C142 1.383 1_554 S
C143 C144 1.394 . S
C144 C143 1.394 . S
C144 C145 1.378 1_554 S
C144 H166 0.931 1_545 S
C145 C140 1.377 . S
C145 C144 1.378 1_556 S
C145 H167 0.931 1_545 S
C146 O156 1.259 . S
C146 O157 1.270 . S
C147 O158 1.251 1_565 S
C147 O159 1.251 . S
O148 C128 1.257 . S
O148 Eu129 2.473 . S
O149 C128 1.260 . S
O149 Eu129 2.480 . S
O150 Eu129 2.430 . S
O150 C136 1.259 . S
O151 Eu129 2.670 . S
O151 C136 1.270 . S
O151 Eu139 2.355 1_565 S
O152 Eu129 2.394 . S
O152 C137 1.251 1_565 S
O153 C137 1.251 . S
O153 Eu139 2.374 . S
O154 C138 1.257 . S
O154 Eu139 2.473 . S
O155 C138 1.260 . S
O155 Eu139 2.480 . S
O156 Eu139 2.430 . S
O156 C146 1.259 . S
O157 Eu129 2.355 1_545 S
O157 Eu139 2.670 . S
O157 C146 1.270 . S
O158 Eu139 2.394 . S
O158 C147 1.251 1_545 S
O159 Eu129 2.374 . S
O159 C147 1.251 . S
H160 C131 0.931 . S
H161 C132 0.931 . S
H162 C134 0.931 1_545 S
H163 C135 0.931 1_545 S
H164 C141 0.931 . S
H165 C142 0.931 . S
H166 C144 0.931 1_565 S
H167 C145 0.931 1_565 S
C168 Eu169 2.835 . S
C168 C170 1.500 . S
C168 O188 1.257 . S
C168 O189 1.260 . S
Eu169 C168 2.835 . S
Eu169 O188 2.473 . S
Eu169 O189 2.480 . S
Eu169 O190 2.430 . S
Eu169 O191 2.670 . S
Eu169 O192 2.394 . S
Eu169 O197 2.355 . S
Eu169 O199 2.374 . S
C170 C168 1.500 . S
C170 C171 1.377 . S
C170 C175 1.377 . S
C171 C170 1.377 . S
C171 C172 1.395 . S
C171 H200 0.931 . S
C172 C171 1.395 . S
C172 C173 1.383 . S
C172 H201 0.931 . S
C173 C172 1.383 . S
C173 C174 1.394 . S
C174 C173 1.394 . S
C174 C175 1.378 . S
C174 H202 0.931 . S
C175 C170 1.377 . S
C175 C174 1.378 . S
C175 H203 0.931 . S
C176 O190 1.259 . S
C176 O191 1.270 . S
C177 O192 1.251 . S
C177 O193 1.251 . S
C178 Eu179 2.835 . S
C178 C180 1.500 . S
C178 O194 1.257 . S
C178 O195 1.260 . S
Eu179 C178 2.835 . S
Eu179 O191 2.355 . S
Eu179 O193 2.374 . S
Eu179 O194 2.473 . S
Eu179 O195 2.480 . S
Eu179 O196 2.430 . S
Eu179 O197 2.670 . S
Eu179 O198 2.394 . S
C180 C178 1.500 . S
C180 C181 1.377 . S
C180 C185 1.377 . S
C181 C180 1.377 . S
C181 C182 1.395 . S
C181 H204 0.931 . S
C182 C181 1.395 . S
C182 C183 1.383 1_556 S
C182 H205 0.931 . S
C183 C182 1.383 1_554 S
C183 C184 1.394 . S
C184 C183 1.394 . S
C184 C185 1.378 1_554 S
C184 H206 0.931 . S
C185 C180 1.377 . S
C185 C184 1.378 1_556 S
C185 H207 0.931 . S
C186 O196 1.259 . S
C186 O197 1.270 . S
C187 O198 1.251 . S
C187 O199 1.251 . S
O188 C168 1.257 . S
O188 Eu169 2.473 . S
O189 C168 1.260 . S
O189 Eu169 2.480 . S
O190 Eu169 2.430 . S
O190 C176 1.259 . S
O191 Eu169 2.670 . S
O191 C176 1.270 . S
O191 Eu179 2.355 . S
O192 Eu169 2.394 . S
O192 C177 1.251 . S
O193 C177 1.251 . S
O193 Eu179 2.374 . S
O194 C178 1.257 . S
O194 Eu179 2.473 . S
O195 C178 1.260 . S
O195 Eu179 2.480 . S
O196 Eu179 2.430 . S
O196 C186 1.259 . S
O197 Eu169 2.355 . S
O197 Eu179 2.670 . S
O197 C186 1.270 . S
O198 Eu179 2.394 . S
O198 C187 1.251 . S
O199 Eu169 2.374 . S
O199 C187 1.251 . S
H200 C171 0.931 . S
H201 C172 0.931 . S
H202 C174 0.931 . S
H203 C175 0.931 . S
H204 C181 0.931 . S
H205 C182 0.931 . S
H206 C184 0.931 . S
H207 C185 0.931 . S
C208 Eu209 2.835 . S
C208 C210 1.500 . S
C208 O228 1.257 . S
C208 O229 1.260 . S
Eu209 C208 2.835 . S
Eu209 O228 2.473 . S
Eu209 O229 2.480 . S
Eu209 O230 2.430 . S
Eu209 O231 2.670 1_455 S
Eu209 O232 2.394 . S
Eu209 O237 2.355 . S
Eu209 O239 2.374 1_455 S
C210 C208 1.500 . S
C210 C211 1.377 . S
C210 C215 1.377 . S
C211 C210 1.377 . S
C211 C212 1.395 . S
C211 H240 0.931 . S
C212 C211 1.395 . S
C212 C213 1.383 . S
C212 H241 0.931 . S
C213 C212 1.383 . S
C213 C214 1.394 . S
C214 C213 1.394 . S
C214 C215 1.378 . S
C214 H242 0.931 . S
C215 C210 1.377 . S
C215 C214 1.378 . S
C215 H243 0.931 . S
C216 O230 1.272 . S
C216 O231 1.261 1_455 S
C217 O232 1.251 . S
C217 O233 1.251 . S
C218 Eu219 2.835 . S
C218 C220 1.500 . S
C218 O234 1.257 . S
C218 O235 1.260 . S
Eu219 C218 2.835 . S
Eu219 O231 2.355 . S
Eu219 O233 2.374 1_655 S
Eu219 O234 2.473 . S
Eu219 O235 2.480 . S
Eu219 O236 2.430 . S
Eu219 O237 2.670 1_655 S
Eu219 O238 2.394 . S
C220 C218 1.500 . S
C220 C221 1.377 . S
C220 C225 1.377 . S
C221 C220 1.377 . S
C221 C222 1.395 . S
C221 H244 0.931 . S
C222 C221 1.395 . S
C222 C223 1.383 1_556 S
C222 H245 0.931 . S
C223 C222 1.383 1_554 S
C223 C224 1.394 . S
C224 C223 1.394 . S
C224 C225 1.378 1_554 S
C224 H246 0.931 . S
C225 C220 1.377 . S
C225 C224 1.378 1_556 S
C225 H247 0.931 . S
C226 O236 1.267 . S
C226 O237 1.264 1_655 S
C227 O238 1.251 . S
C227 O239 1.251 . S
O228 C208 1.257 . S
O228 Eu209 2.473 . S
O229 C208 1.260 . S
O229 Eu209 2.480 . S
O230 Eu209 2.430 . S
O230 C216 1.272 . S
O231 Eu209 2.670 1_655 S
O231 C216 1.261 1_655 S
O231 Eu219 2.355 . S
O232 Eu209 2.394 . S
O232 C217 1.251 . S
O233 C217 1.251 . S
O233 Eu219 2.374 1_455 S
O234 C218 1.257 . S
O234 Eu219 2.473 . S
O235 C218 1.260 . S
O235 Eu219 2.480 . S
O236 Eu219 2.430 . S
O236 C226 1.267 . S
O237 Eu209 2.355 . S
O237 Eu219 2.670 1_455 S
O237 C226 1.264 1_455 S
O238 Eu219 2.394 . S
O238 C227 1.251 . S
O239 Eu209 2.374 1_655 S
O239 C227 1.251 . S
H240 C211 0.931 . S
H241 C212 0.931 . S
H242 C214 0.931 . S
H243 C215 0.931 . S
H244 C221 0.931 . S
H245 C222 0.931 . S
H246 C224 0.931 . S
H247 C225 0.931 . S
H248 C254 0.930 . S
H249 C258 0.930 1_565 S
H250 C263 0.929 . S
H251 C261 0.929 . S
H252 C256 0.928 . S
H253 C262 0.930 . S
C254 H248 0.930 . S
C254 C255 1.366 . S
C254 C262 1.378 . S
C255 C254 1.366 . S
C255 C263 1.433 1_545 S
C256 H252 0.928 . S
C256 C258 1.378 1_565 S
C256 C260 1.350 1_565 S
C257 C260 1.462 . S
C257 C262 1.350 . S
C257 N265 1.427 1_545 S
C258 H249 0.930 1_545 S
C258 C256 1.378 1_545 S
C258 C259 1.366 . S
C259 C258 1.366 . S
C259 C261 1.434 . S
C260 C256 1.350 1_545 S
C260 C257 1.462 . S
C260 N264 1.427 . S
C261 H251 0.929 . S
C261 C259 1.434 . S
C261 N264 1.385 . S
C262 H253 0.930 . S
C262 C254 1.378 . S
C262 C257 1.350 . S
C263 H250 0.929 . S
C263 C255 1.433 1_565 S
C263 N265 1.384 . S
N264 C260 1.427 . S
N264 C261 1.385 . S
N265 C257 1.427 1_565 S
N265 C263 1.384 . S
H266 C272 0.930 . S
H267 C276 0.930 . S
H268 C281 0.929 . S
H269 C279 0.929 . S
H270 C274 0.929 . S
H271 C280 0.929 . S
C272 H266 0.930 . S
C272 C273 1.367 . S
C272 C280 1.378 . S
C273 C272 1.367 . S
C273 C281 1.433 . S
C274 H270 0.929 . S
C274 C276 1.378 . S
C274 C278 1.350 . S
C275 C278 1.463 . S
C275 C280 1.350 . S
C275 N283 1.427 . S
C276 H267 0.930 . S
C276 C274 1.378 . S
C276 C277 1.367 . S
C277 C276 1.367 . S
C277 C279 1.433 . S
C278 C274 1.350 . S
C278 C275 1.463 . S
C278 N282 1.427 . S
C279 H269 0.929 . S
C279 C277 1.433 . S
C279 N282 1.384 . S
C280 H271 0.929 . S
C280 C272 1.378 . S
C280 C275 1.350 . S
C281 H268 0.929 . S
C281 C273 1.433 . S
C281 N283 1.384 . S
N282 C278 1.427 . S
N282 C279 1.384 . S
N283 C275 1.427 . S
N283 C281 1.384 . S
H284 C290 0.930 . S
H285 C294 0.930 . S
H286 C299 0.929 . S
H287 C297 0.929 . S
H288 C292 0.929 . S
H289 C298 0.929 . S
C290 H284 0.930 . S
C290 C291 1.367 . S
C290 C298 1.378 . S
C291 C290 1.367 . S
C291 C299 1.433 . S
C292 H288 0.929 . S
C292 C294 1.378 . S
C292 C296 1.350 . S
C293 C296 1.463 . S
C293 C298 1.350 . S
C293 N301 1.427 . S
C294 H285 0.930 . S
C294 C292 1.378 . S
C294 C295 1.367 . S
C295 C294 1.367 . S
C295 C297 1.433 . S
C296 C292 1.350 . S
C296 C293 1.463 . S
C296 N300 1.427 . S
C297 H287 0.929 . S
C297 C295 1.433 . S
C297 N300 1.384 . S
C298 H289 0.929 . S
C298 C290 1.378 . S
C298 C293 1.350 . S
C299 H286 0.929 . S
C299 C291 1.433 . S
C299 N301 1.384 . S
N300 C296 1.427 . S
N300 C297 1.384 . S
N301 C293 1.427 . S
N301 C299 1.384 . S
H302 C308 0.930 . S
H303 C312 0.930 . S
H304 C317 0.929 . S
H305 C315 0.929 . S
H306 C310 0.929 . S
H307 C316 0.929 . S
C308 H302 0.930 . S
C308 C309 1.368 1_655 S
C308 C316 1.378 . S
C309 C308 1.368 1_455 S
C309 C317 1.432 . S
C310 H306 0.929 . S
C310 C312 1.378 . S
C310 C314 1.365 . S
C311 C314 1.462 . S
C311 C316 1.347 1_455 S
C311 N319 1.430 . S
C312 H303 0.930 . S
C312 C310 1.378 . S
C312 C313 1.367 . S
C313 C312 1.367 . S
C313 C315 1.433 1_455 S
C314 C310 1.365 . S
C314 C311 1.462 . S
C314 N318 1.414 1_455 S
C315 H305 0.929 . S
C315 C313 1.433 1_655 S
C315 N318 1.384 . S
C316 H307 0.929 . S
C316 C308 1.378 . S
C316 C311 1.347 1_655 S
C317 H304 0.929 . S
C317 C309 1.432 . S
C317 N319 1.384 . S
N318 C314 1.414 1_655 S
N318 C315 1.384 . S
N319 C311 1.430 . S
N319 C317 1.384 . S
H320 C326 0.930 . S
H321 C330 0.930 . S
H322 C335 0.929 . S
H323 C333 0.929 . S
H324 C328 0.929 . S
H325 C334 0.929 . S
C326 H320 0.930 . S
C326 C327 1.370 . S
C326 C334 1.378 . S
C327 C326 1.370 . S
C327 C335 1.430 1_565 S
C328 H324 0.929 . S
C328 C330 1.378 . S
C328 C332 1.351 1_556 S
C329 C332 1.462 1_565 S
C329 C334 1.360 . S
C329 N337 1.418 1_565 S
C330 H321 0.930 . S
C330 C328 1.378 . S
C330 C331 1.367 1_545 S
C331 C330 1.367 1_565 S
C331 C333 1.433 . S
C332 C328 1.351 1_554 S
C332 C329 1.462 1_545 S
C332 N336 1.426 1_545 S
C333 H323 0.929 . S
C333 C331 1.433 . S
C333 N336 1.384 1_556 S
C334 H325 0.929 . S
C334 C326 1.378 . S
C334 C329 1.360 . S
C335 H322 0.929 . S
C335 C327 1.430 1_545 S
C335 N337 1.384 . S
N336 C332 1.426 1_565 S
N336 C333 1.384 1_554 S
N337 C329 1.418 1_545 S
N337 C335 1.384 . S
H338 C344 0.930 . S
H339 C348 0.930 . S
H340 C353 0.929 . S
H341 C351 0.929 . S
H342 C346 0.929 . S
H343 C352 0.929 . S
C344 H338 0.930 . S
C344 C345 1.367 . S
C344 C352 1.378 . S
C345 C344 1.367 . S
C345 C353 1.433 . S
C346 H342 0.929 . S
C346 C348 1.378 1_554 S
C346 C350 1.350 . S
C347 C350 1.463 . S
C347 C352 1.350 . S
C347 N355 1.427 . S
C348 H339 0.930 . S
C348 C346 1.378 1_556 S
C348 C349 1.367 . S
C349 C348 1.367 . S
C349 C351 1.433 . S
C350 C346 1.350 . S
C350 C347 1.463 . S
C350 N354 1.427 1_554 S
C351 H341 0.929 . S
C351 C349 1.433 . S
C351 N354 1.384 . S
C352 H343 0.929 . S
C352 C344 1.378 . S
C352 C347 1.350 . S
C353 H340 0.929 . S
C353 C345 1.433 . S
C353 N355 1.384 . S
N354 C350 1.427 1_556 S
N354 C351 1.384 . S
N355 C347 1.427 . S
N355 C353 1.384 . S
H356 C362 0.930 . S
H357 C366 0.930 . S
H358 C371 0.929 . S
H359 C369 0.929 . S
H360 C364 0.929 1_554 S
H361 C370 0.929 . S
C362 H356 0.930 . S
C362 C363 1.367 . S
C362 C370 1.378 . S
C363 C362 1.367 . S
C363 C371 1.433 . S
C364 H360 0.929 1_556 S
C364 C366 1.378 . S
C364 C368 1.350 1_556 S
C365 C368 1.463 . S
C365 C370 1.350 . S
C365 N373 1.427 . S
C366 H357 0.930 . S
C366 C364 1.378 . S
C366 C367 1.367 . S
C367 C366 1.367 . S
C367 C369 1.433 . S
C368 C364 1.350 1_554 S
C368 C365 1.463 . S
C368 N372 1.427 1_554 S
C369 H359 0.929 . S
C369 C367 1.433 . S
C369 N372 1.384 . S
C370 H361 0.929 . S
C370 C362 1.378 . S
C370 C365 1.350 . S
C371 H358 0.929 . S
C371 C363 1.433 . S
C371 N373 1.384 . S
N372 C368 1.427 1_556 S
N372 C369 1.384 . S
N373 C365 1.427 . S
N373 C371 1.384 . S
H374 C380 0.930 . S
H375 C384 0.930 . S
H376 C389 0.929 . S
H377 C387 0.929 . S
H378 C382 0.929 . S
H379 C388 0.929 . S
C380 H374 0.930 . S
C380 C381 1.366 . S
C380 C388 1.378 . S
C381 C380 1.366 . S
C381 C389 1.434 1_455 S
C382 H378 0.929 . S
C382 C384 1.378 1_554 S
C382 C386 1.350 . S
C383 C386 1.462 . S
C383 C388 1.351 1_655 S
C383 N391 1.427 . S
C384 H375 0.930 . S
C384 C382 1.378 1_556 S
C384 C385 1.367 . S
C385 C384 1.367 . S
C385 C387 1.433 1_655 S
C386 C382 1.350 . S
C386 C383 1.462 . S
C386 N390 1.427 1_654 S
C387 H377 0.929 . S
C387 C385 1.433 1_455 S
C387 N390 1.384 . S
C388 H379 0.929 . S
C388 C380 1.378 . S
C388 C383 1.351 1_455 S
C389 H376 0.929 . S
C389 C381 1.434 1_655 S
C389 N391 1.384 . S
N390 C386 1.427 1_456 S
N390 C387 1.384 . S
N391 C383 1.427 . S
N391 C389 1.384 . S
H392 C398 0.930 . S
H393 C402 0.930 . S
H394 C407 0.929 . S
H395 C405 0.929 . S
H396 C400 0.929 1_455 S
H397 C406 0.929 . S
C398 H392 0.930 . S
C398 C399 1.344 1_655 S
C398 C406 1.378 . S
C399 C398 1.344 1_455 S
C399 C407 1.449 . S
C400 H396 0.929 1_655 S
C400 C402 1.378 . S
C400 C404 1.350 . S
C401 C404 1.463 . S
C401 C406 1.350 . S
C401 N409 1.427 1_655 S
C402 H393 0.930 . S
C402 C400 1.378 . S
C402 C403 1.367 . S
C403 C402 1.367 . S
C403 C405 1.433 . S
C404 C400 1.350 . S
C404 C401 1.463 . S
C404 N408 1.427 . S
C405 H395 0.929 . S
C405 C403 1.433 . S
C405 N408 1.384 . S
C406 H397 0.929 . S
C406 C398 1.378 . S
C406 C401 1.350 . S
C407 H394 0.929 . S
C407 C399 1.449 . S
C407 N409 1.384 . S
N408 C404 1.427 . S
N408 C405 1.384 . S
N409 C401 1.427 1_455 S
N409 C407 1.384 . S
H410 C416 0.930 . S
H411 C420 0.930 . S
H412 C425 0.929 . S
H413 C423 0.929 . S
H414 C418 0.929 . S
H415 C424 0.929 . S
C416 H410 0.930 . S
C416 C417 1.350 1_565 S
C416 C424 1.378 . S
C417 C416 1.350 1_545 S
C417 C425 1.443 . S
C418 H414 0.929 . S
C418 C420 1.378 . S
C418 C422 1.350 . S
C419 C422 1.463 . S
C419 C424 1.350 . S
C419 N427 1.427 1_565 S
C420 H411 0.930 . S
C420 C418 1.378 . S
C420 C421 1.367 . S
C421 C420 1.367 . S
C421 C423 1.433 . S
C422 C418 1.350 . S
C422 C419 1.463 . S
C422 N426 1.427 . S
C423 H413 0.929 . S
C423 C421 1.433 . S
C423 N426 1.384 . S
C424 H415 0.929 . S
C424 C416 1.378 . S
C424 C419 1.350 . S
C425 H412 0.929 . S
C425 C417 1.443 . S
C425 N427 1.384 . S
N426 C422 1.427 . S
N426 C423 1.384 . S
N427 C419 1.427 1_545 S
N427 C425 1.384 . S
H428 C434 0.930 . S
H429 C438 0.930 . S
H430 C443 0.929 . S
H431 C441 0.929 . S
H432 C436 0.929 . S
H433 C442 0.929 . S
C434 H428 0.930 . S
C434 C435 1.367 . S
C434 C442 1.378 . S
C435 C434 1.367 . S
C435 C443 1.433 . S
C436 H432 0.929 . S
C436 C438 1.378 . S
C436 C440 1.350 . S
C437 C440 1.463 . S
C437 C442 1.350 . S
C437 N445 1.427 . S
C438 H429 0.930 . S
C438 C436 1.378 . S
C438 C439 1.367 . S
C439 C438 1.367 . S
C439 C441 1.433 . S
C440 C436 1.350 . S
C440 C437 1.463 . S
C440 N444 1.427 . S
C441 H431 0.929 . S
C441 C439 1.433 . S
C441 N444 1.384 . S
C442 H433 0.929 . S
C442 C434 1.378 . S
C442 C437 1.350 . S
C443 H430 0.929 . S
C443 C435 1.433 . S
C443 N445 1.384 . S
N444 C440 1.427 . S
N444 C441 1.384 . S
N445 C437 1.427 . S
N445 C443 1.384 . S
H446 C452 0.930 . S
H447 C456 0.930 . S
H448 C461 0.929 . S
H449 C459 0.929 . S
H450 C454 0.929 . S
H451 C460 0.929 . S
C452 H446 0.930 . S
C452 C453 1.367 . S
C452 C460 1.378 . S
C453 C452 1.367 . S
C453 C461 1.433 . S
C454 H450 0.929 . S
C454 C456 1.378 . S
C454 C458 1.350 . S
C455 C458 1.463 . S
C455 C460 1.350 . S
C455 N463 1.427 . S
C456 H447 0.930 . S
C456 C454 1.378 . S
C456 C457 1.367 . S
C457 C456 1.367 . S
C457 C459 1.433 . S
C458 C454 1.350 . S
C458 C455 1.463 . S
C458 N462 1.427 . S
C459 H449 0.929 . S
C459 C457 1.433 . S
C459 N462 1.384 . S
C460 H451 0.929 . S
C460 C452 1.378 . S
C460 C455 1.350 . S
C461 H448 0.929 . S
C461 C453 1.433 . S
C461 N463 1.384 . S
N462 C458 1.427 . S
N462 C459 1.384 . S
N463 C455 1.427 . S
N463 C461 1.384 . S
H464 C470 0.930 . S
H465 C474 0.930 . S
H466 C479 0.929 . S
H467 C477 0.929 . S
H468 C472 0.929 . S
H469 C478 0.929 . S
C470 H464 0.930 . S
C470 C471 1.367 . S
C470 C478 1.378 . S
C471 C470 1.367 . S
C471 C479 1.433 1_655 S
C472 H468 0.929 . S
C472 C474 1.378 . S
C472 C476 1.350 . S
C473 C476 1.463 . S
C473 C478 1.350 1_455 S
C473 N481 1.427 . S
C474 H465 0.930 . S
C474 C472 1.378 . S
C474 C475 1.367 . S
C475 C474 1.367 . S
C475 C477 1.433 1_554 S
C476 C472 1.350 . S
C476 C473 1.463 . S
C476 N480 1.427 . S
C477 H467 0.929 . S
C477 C475 1.433 1_556 S
C477 N480 1.384 1_556 S
C478 H469 0.929 . S
C478 C470 1.378 . S
C478 C473 1.350 1_655 S
C479 H466 0.929 . S
C479 C471 1.433 1_455 S
C479 N481 1.384 . S
N480 C476 1.427 . S
N480 C477 1.384 1_554 S
N481 C473 1.427 . S
N481 C479 1.384 . S
H482 C488 0.930 . S
H483 C492 0.930 . S
H484 C497 0.929 . S
H485 C495 0.929 1_566 S
H486 C490 0.929 . S
H487 C496 0.929 . S
C488 H482 0.930 . S
C488 C489 1.367 . S
C488 C496 1.378 . S
C489 C488 1.367 . S
C489 C497 1.433 1_565 S
C490 H486 0.929 . S
C490 C492 1.378 . S
C490 C494 1.350 . S
C491 C494 1.463 . S
C491 C496 1.350 1_545 S
C491 N499 1.427 . S
C492 H483 0.930 . S
C492 C490 1.378 . S
C492 C493 1.367 . S
C493 C492 1.367 . S
C493 C495 1.433 . S
C494 C490 1.350 . S
C494 C491 1.463 . S
C494 N498 1.427 . S
C495 H485 0.929 1_544 S
C495 C493 1.433 . S
C495 N498 1.384 . S
C496 H487 0.929 . S
C496 C488 1.378 . S
C496 C491 1.350 1_565 S
C497 H484 0.929 . S
C497 C489 1.433 1_545 S
C497 N499 1.384 . S
N498 C494 1.427 . S
N498 C495 1.384 . S
N499 C491 1.427 . S
N499 C497 1.384 . S
H500 C506 0.930 . S
H501 C510 0.930 . S
H502 C515 0.929 . S
H503 C513 0.929 . S
H504 C508 0.929 . S
H505 C514 0.929 . S
C506 H500 0.930 . S
C506 C507 1.367 . S
C506 C514 1.378 . S
C507 C506 1.367 . S
C507 C515 1.433 . S
C508 H504 0.929 . S
C508 C510 1.378 . S
C508 C512 1.350 . S
C509 C512 1.463 . S
C509 C514 1.350 . S
C509 N517 1.427 . S
C510 H501 0.930 . S
C510 C508 1.378 . S
C510 C511 1.367 . S
C511 C510 1.367 . S
C511 C513 1.433 1_554 S
C512 C508 1.350 . S
C512 C509 1.463 . S
C512 N516 1.427 . S
C513 H503 0.929 . S
C513 C511 1.433 1_556 S
C513 N516 1.384 1_556 S
C514 H505 0.929 . S
C514 C506 1.378 . S
C514 C509 1.350 . S
C515 H502 0.929 . S
C515 C507 1.433 . S
C515 N517 1.384 . S
N516 C512 1.427 . S
N516 C513 1.384 1_554 S
N517 C509 1.427 . S
N517 C515 1.384 . S
H518 C524 0.930 . S
H519 C528 0.930 . S
H520 C533 0.929 . S
H521 C531 0.929 . S
H522 C526 0.929 . S
H523 C532 0.929 . S
C524 H518 0.930 . S
C524 C525 1.367 . S
C524 C532 1.378 . S
C525 C524 1.367 . S
C525 C533 1.433 . S
C526 H522 0.929 . S
C526 C528 1.378 . S
C526 C530 1.350 . S
C527 C530 1.463 . S
C527 C532 1.350 . S
C527 N535 1.427 . S
C528 H519 0.930 . S
C528 C526 1.378 . S
C528 C529 1.367 . S
C529 C528 1.367 . S
C529 C531 1.433 . S
C530 C526 1.350 . S
C530 C527 1.463 . S
C530 N534 1.427 . S
C531 H521 0.929 . S
C531 C529 1.433 . S
C531 N534 1.384 . S
C532 H523 0.929 . S
C532 C524 1.378 . S
C532 C527 1.350 . S
C533 H520 0.929 . S
C533 C525 1.433 . S
C533 N535 1.384 . S
N534 C530 1.427 . S
N534 C531 1.384 . S
N535 C527 1.427 . S
N535 C533 1.384 . S
H536 C542 0.930 . S
H537 C546 0.930 . S
H538 C551 0.929 . S
H539 C549 0.929 . S
H540 C544 0.929 . S
H541 C550 0.929 . S
C542 H536 0.930 . S
C542 C543 1.367 1_655 S
C542 C550 1.378 . S
C543 C542 1.367 1_455 S
C543 C551 1.433 . S
C544 H540 0.929 . S
C544 C546 1.378 . S
C544 C548 1.350 . S
C545 C548 1.463 . S
C545 C550 1.350 1_455 S
C545 N553 1.427 . S
C546 H537 0.930 . S
C546 C544 1.378 . S
C546 C547 1.367 . S
C547 C546 1.367 . S
C547 C549 1.433 1_455 S
C548 C544 1.350 . S
C548 C545 1.463 . S
C548 N552 1.427 1_455 S
C549 H539 0.929 . S
C549 C547 1.433 1_655 S
C549 N552 1.384 . S
C550 H541 0.929 . S
C550 C542 1.378 . S
C550 C545 1.350 1_655 S
C551 H538 0.929 . S
C551 C543 1.433 . S
C551 N553 1.384 . S
N552 C548 1.427 1_655 S
N552 C549 1.384 . S
N553 C545 1.427 . S
N553 C551 1.384 . S
H554 C560 0.930 . S
H555 C564 0.930 . S
H556 C569 0.929 . S
H557 C567 0.929 . S
H558 C562 0.929 . S
H559 C568 0.929 . S
C560 H554 0.930 . S
C560 C561 1.367 . S
C560 C568 1.378 . S
C561 C560 1.367 . S
C561 C569 1.433 1_545 S
C562 H558 0.929 . S
C562 C564 1.378 . S
C562 C566 1.350 1_565 S
C563 C566 1.463 . S
C563 C568 1.350 . S
C563 N571 1.427 1_545 S
C564 H555 0.930 . S
C564 C562 1.378 . S
C564 C565 1.367 1_565 S
C565 C564 1.367 1_545 S
C565 C567 1.433 . S
C566 C562 1.350 1_545 S
C566 C563 1.463 . S
C566 N570 1.427 . S
C567 H557 0.929 . S
C567 C565 1.433 . S
C567 N570 1.384 . S
C568 H559 0.929 . S
C568 C560 1.378 . S
C568 C563 1.350 . S
C569 H556 0.929 . S
C569 C561 1.433 1_565 S
C569 N571 1.384 . S
N570 C566 1.427 . S
N570 C567 1.384 . S
N571 C563 1.427 1_565 S
N571 C569 1.384 . S
H572 C578 0.930 . S
H573 C582 0.930 . S
H574 C587 0.929 . S
H575 C585 0.929 . S
H576 C580 0.929 . S
H577 C586 0.929 . S
C578 H572 0.930 . S
C578 C579 1.367 . S
C578 C586 1.378 . S
C579 C578 1.367 . S
C579 C587 1.433 . S
C580 H576 0.929 . S
C580 C582 1.378 . S
C580 C584 1.350 . S
C581 C584 1.463 . S
C581 C586 1.350 . S
C581 N589 1.427 . S
C582 H573 0.930 . S
C582 C580 1.378 . S
C582 C583 1.367 . S
C583 C582 1.367 . S
C583 C585 1.433 . S
C584 C580 1.350 . S
C584 C581 1.463 . S
C584 N588 1.427 . S
C585 H575 0.929 . S
C585 C583 1.433 . S
C585 N588 1.384 . S
C586 H577 0.929 . S
C586 C578 1.378 . S
C586 C581 1.350 . S
C587 H574 0.929 . S
C587 C579 1.433 . S
C587 N589 1.384 . S
N588 C584 1.427 . S
N588 C585 1.384 . S
N589 C581 1.427 . S
N589 C587 1.384 . S
H590 C596 0.930 . S
H591 C600 0.930 . S
H592 C605 0.929 . S
H593 C603 0.929 . S
H594 C598 0.929 . S
H595 C604 0.929 . S
C596 H590 0.930 . S
C596 C597 1.367 . S
C596 C604 1.378 . S
C597 C596 1.367 . S
C597 C605 1.433 . S
C598 H594 0.929 . S
C598 C600 1.378 . S
C598 C602 1.350 . S
C599 C602 1.463 . S
C599 C604 1.350 . S
C599 N607 1.427 . S
C600 H591 0.930 . S
C600 C598 1.378 . S
C600 C601 1.367 . S
C601 C600 1.367 . S
C601 C603 1.433 . S
C602 C598 1.350 . S
C602 C599 1.463 . S
C602 N606 1.427 . S
C603 H593 0.929 . S
C603 C601 1.433 . S
C603 N606 1.384 . S
C604 H595 0.929 . S
C604 C596 1.378 . S
C604 C599 1.350 . S
C605 H592 0.929 . S
C605 C597 1.433 . S
C605 N607 1.384 . S
N606 C602 1.427 . S
N606 C603 1.384 . S
N607 C599 1.427 . S
N607 C605 1.384 . S
H608 C614 0.930 . S
H609 C618 0.930 . S
H610 C623 0.929 . S
H611 C621 0.929 . S
H612 C616 0.929 . S
H613 C622 0.929 . S
C614 H608 0.930 . S
C614 C615 1.367 . S
C614 C622 1.378 . S
C615 C614 1.367 . S
C615 C623 1.433 1_655 S
C616 H612 0.929 . S
C616 C618 1.378 . S
C616 C620 1.350 1_455 S
C617 C620 1.463 . S
C617 C622 1.350 . S
C617 N625 1.427 1_655 S
C618 H609 0.930 . S
C618 C616 1.378 . S
C618 C619 1.367 1_455 S
C619 C618 1.367 1_655 S
C619 C621 1.433 . S
C620 C616 1.350 1_655 S
C620 C617 1.463 . S
C620 N624 1.427 . S
C621 H611 0.929 . S
C621 C619 1.433 . S
C621 N624 1.384 . S
C622 H613 0.929 . S
C622 C614 1.378 . S
C622 C617 1.350 . S
C623 H610 0.929 . S
C623 C615 1.433 1_455 S
C623 N625 1.384 . S
N624 C620 1.427 . S
N624 C621 1.384 . S
N625 C617 1.427 1_455 S
N625 C623 1.384 . S
H626 C632 0.930 . S
H627 C636 0.930 . S
H628 C641 0.929 . S
H629 C639 0.929 . S
H630 C634 0.929 . S
H631 C640 0.929 . S
C632 H626 0.930 . S
C632 C633 1.367 1_545 S
C632 C640 1.378 . S
C633 C632 1.367 1_565 S
C633 C641 1.433 . S
C634 H630 0.929 . S
C634 C636 1.378 . S
C634 C638 1.350 . S
C635 C638 1.463 . S
C635 C640 1.350 1_565 S
C635 N643 1.427 . S
C636 H627 0.930 . S
C636 C634 1.378 . S
C636 C637 1.367 . S
C637 C636 1.367 . S
C637 C639 1.433 1_565 S
C638 C634 1.350 . S
C638 C635 1.463 . S
C638 N642 1.427 1_565 S
C639 H629 0.929 . S
C639 C637 1.433 1_545 S
C639 N642 1.384 . S
C640 H631 0.929 . S
C640 C632 1.378 . S
C640 C635 1.350 1_545 S
C641 H628 0.929 . S
C641 C633 1.433 . S
C641 N643 1.384 . S
N642 C638 1.427 1_545 S
N642 C639 1.384 . S
N643 C635 1.427 . S
N643 C641 1.384 . S
H644 C650 0.930 . S
H645 C654 0.930 . S
H646 C659 0.929 . S
H647 C657 0.929 . S
H648 C652 0.929 . S
H649 C658 0.929 . S
C650 H644 0.930 . S
C650 C651 1.367 . S
C650 C658 1.378 . S
C651 C650 1.367 . S
C651 C659 1.433 . S
C652 H648 0.929 . S
C652 C654 1.378 . S
C652 C656 1.350 . S
C653 C656 1.463 . S
C653 C658 1.350 . S
C653 N661 1.427 . S
C654 H645 0.930 . S
C654 C652 1.378 . S
C654 C655 1.367 . S
C655 C654 1.367 . S
C655 C657 1.433 . S
C656 C652 1.350 . S
C656 C653 1.463 . S
C656 N660 1.427 . S
C657 H647 0.929 . S
C657 C655 1.433 . S
C657 N660 1.384 . S
C658 H649 0.929 . S
C658 C650 1.378 . S
C658 C653 1.350 . S
C659 H646 0.929 . S
C659 C651 1.433 . S
C659 N661 1.384 . S
N660 C656 1.427 . S
N660 C657 1.384 . S
N661 C653 1.427 . S
N661 C659 1.384 . S
H662 C668 0.930 . S
H663 C672 0.930 . S
H664 C677 0.929 . S
H665 C675 0.929 . S
H666 C670 0.929 . S
H667 C676 0.929 . S
C668 H662 0.930 . S
C668 C669 1.367 . S
C668 C676 1.378 . S
C669 C668 1.367 . S
C669 C677 1.433 . S
C670 H666 0.929 . S
C670 C672 1.378 . S
C670 C674 1.350 . S
C671 C674 1.463 . S
C671 C676 1.350 . S
C671 N679 1.427 . S
C672 H663 0.930 . S
C672 C670 1.378 . S
C672 C673 1.367 . S
C673 C672 1.367 . S
C673 C675 1.433 . S
C674 C670 1.350 . S
C674 C671 1.463 . S
C674 N678 1.427 . S
C675 H665 0.929 . S
C675 C673 1.433 . S
C675 N678 1.384 . S
C676 H667 0.929 . S
C676 C668 1.378 . S
C676 C671 1.350 . S
C677 H664 0.929 . S
C677 C669 1.433 . S
C677 N679 1.384 . S
N678 C674 1.427 . S
N678 C675 1.384 . S
N679 C671 1.427 . S
N679 C677 1.384 . S
C255 C74 1.812 . S
C259 C106 1.907 1_545 S
C277 C146 1.920 . S
C273 C85 1.812 . S
C295 C186 1.922 . S
C291 C52 1.812 . S
C313 C226 1.917 1_455 S
C309 C63 1.802 . S
C331 C96 1.911 1_565 S
C327 C30 1.815 1_565 S
C345 C41 1.808 . S
C349 C136 1.924 . S
C363 C8 1.815 . S
C367 C176 1.925 . S
C381 C19 1.803 . S
C385 C216 1.918 1_655 S
C403 C93 0.557 . S
C399 C62 0.570 . S
C421 C133 0.569 . S
C417 C73 0.586 . S
C439 C173 0.590 . S
C435 C84 0.572 . S
C453 C51 0.570 . S
C457 C213 0.559 . S
C471 C18 0.604 1_655 S
C475 C103 0.579 . S
C493 C143 0.589 . S
C489 C29 0.612 1_565 S
C511 C183 0.589 . S
C507 C40 0.609 . S
C525 C7 0.580 . S
C529 C223 0.564 . S
C543 C60 1.736 . S
C547 C97 2.246 . S
C561 C71 1.711 . S
C565 C137 2.227 . S
C583 C177 2.217 . S
C579 C82 1.692 . S
C601 C217 2.242 . S
C597 C49 1.721 . S
C615 C16 1.798 1_655 S
C619 C107 2.251 . S
C637 C147 2.233 . S
C633 C27 1.767 1_565 S
C655 C187 2.220 . S
C651 C38 1.787 . S
C669 C5 1.789 . S
C673 C227 2.248 . S
