# Generated by pormake.
# Topology rtl, (3,6)-cn, num edge types: 1
# Building blocks:
#     Node 0, Type 0, BuildingBlock: OLANEW_clean_sbu_2, # of connection points: 3
#     Node 1, Type 0, BuildingBlock: OLANEW_clean_sbu_2, # of connection points: 3
#     Node 2, Type 0, BuildingBlock: OLANEW_clean_sbu_2, # of connection points: 3
#     Node 3, Type 0, BuildingBlock: OLANEW_clean_sbu_2, # of connection points: 3
#     Node 4, Type 1, BuildingBlock: KUMJIN_clean_sbu_1, # of connection points: 6
#     Node 5, Type 1, BuildingBlock: KUMJIN_clean_sbu_1, # of connection points: 6
#     Edge 6, Type (0, 1), BuildingBlock: XIVTED_clean_linker_0, # of connection points: 2
#     Edge 7, Type (0, 1), BuildingBlock: XIVTED_clean_linker_0, # of connection points: 2
#     Edge 8, Type (0, 1), BuildingBlock: XIVTED_clean_linker_0, # of connection points: 2
#     Edge 9, Type (0, 1), BuildingBlock: XIVTED_clean_linker_0, # of connection points: 2
#     Edge 10, Type (0, 1), BuildingBlock: XIVTED_clean_linker_0, # of connection points: 2
#     Edge 11, Type (0, 1), BuildingBlock: XIVTED_clean_linker_0, # of connection points: 2
#     Edge 12, Type (0, 1), BuildingBlock: XIVTED_clean_linker_0, # of connection points: 2
#     Edge 13, Type (0, 1), BuildingBlock: XIVTED_clean_linker_0, # of connection points: 2
#     Edge 14, Type (0, 1), BuildingBlock: XIVTED_clean_linker_0, # of connection points: 2
#     Edge 15, Type (0, 1), BuildingBlock: XIVTED_clean_linker_0, # of connection points: 2
#     Edge 16, Type (0, 1), BuildingBlock: XIVTED_clean_linker_0, # of connection points: 2
#     Edge 17, Type (0, 1), BuildingBlock: XIVTED_clean_linker_0, # of connection points: 2
# Relax obj value: 0.043
# Max RMSD: 0.166
# Mean RMSD: 0.131
data_MOF--net-rtl--node1-OLANEW_clean_sbu_2--node2-KUMJIN_clean_sbu_1--edge1-XIVTED_clean_linker_0
_symmetry_space_group_name_H-M    P1
_symmetry_Int_Tables_number       1
_symmetry_cell_setting            triclinic
loop_
_symmetry_equiv_pos_as_xyz
'x, y, z'
_cell_length_a     37.454669
_cell_length_b     37.337462
_cell_length_c     29.376941
_cell_angle_alpha  75.879413
_cell_angle_beta   102.66949
_cell_angle_gamma 91.147281
loop_
_atom_site_label
_atom_site_type_symbol
_atom_site_fract_x
_atom_site_fract_y
_atom_site_fract_z
_atom_type_partial_charge
O0 O 0.21512 0.84756 0.97442 0.0
Cd1 Cd 0.25847 0.82347 0.05134 0.0
O2 O 0.21587 0.90413 0.98462 0.0
Cd3 Cd 0.23948 0.88855 0.06194 0.0
O4 O 0.22886 0.88544 0.13316 0.0
C5 C 0.21615 0.91445 0.1403 0.0
O6 O 0.21253 0.94517 0.10611 0.0
C7 C 0.20605 0.88172 0.95817 0.0
C8 C 0.30563 0.76786 0.04661 0.0
O9 O 0.27688 0.75982 0.06345 0.0
O10 O 0.31211 0.80209 0.032 0.0
O11 O 0.63673 0.74759 0.69031 0.0
Cd12 Cd 0.64862 0.78539 0.61424 0.0
O13 O 0.65703 0.69597 0.67984 0.0
Cd14 Cd 0.66604 0.7196 0.60785 0.0
O15 O 0.65733 0.70776 0.53713 0.0
C16 C 0.63198 0.68529 0.52998 0.0
O17 O 0.61329 0.67357 0.56344 0.0
C18 C 0.64349 0.71292 0.70508 0.0
C19 C 0.71632 0.81909 0.61699 0.0
O20 O 0.6896 0.83408 0.62727 0.0
O21 O 0.71147 0.78757 0.6069 0.0
O22 O 0.77422 0.14094 0.13093 0.0
Cd23 Cd 0.74031 0.16837 0.04846 0.0
O24 O 0.81591 0.18317 0.12488 0.0
Cd25 Cd 0.79963 0.19952 0.04661 0.0
O26 O 0.81297 0.18489 0.98465 0.0
C27 C 0.82088 0.15076 0.9915 0.0
O28 O 0.81811 0.12815 0.03246 0.0
C29 C 0.80256 0.1558 0.15018 0.0
C30 C 0.69609 0.22925 0.04373 0.0
O31 O 0.68249 0.19737 0.04475 0.0
O32 O 0.73038 0.23234 0.04483 0.0
O33 O 0.33433 0.29747 0.5544 0.0
Cd34 Cd 0.32306 0.2532 0.50358 0.0
O35 O 0.37265 0.32568 0.51156 0.0
Cd36 Cd 0.36262 0.29673 0.45423 0.0
O37 O 0.37334 0.30895 0.38223 0.0
C38 C 0.40644 0.30628 0.37912 0.0
O39 O 0.43132 0.29246 0.41847 0.0
C40 C 0.35754 0.32237 0.54703 0.0
C41 C 0.26343 0.20812 0.51356 0.0
O42 O 0.29454 0.20017 0.54309 0.0
O43 O 0.26024 0.23778 0.47976 0.0
Eu44 Eu 0.01645 0.96442 0.53469 0.0
C45 C 0.94691 0.1234 0.50526 0.0
N46 N 0.97798 0.10775 0.53694 0.0
C47 C 0.00938 0.16407 0.51763 0.0
C48 C 0.94615 0.16019 0.47782 0.0
C49 C 0.00891 0.12746 0.54388 0.0
C50 C 0.97791 0.1805 0.48438 0.0
C51 C 0.88378 0.1174 0.46547 0.0
C52 C 0.91606 0.10215 0.4991 0.0
C53 C 0.88295 0.15407 0.43824 0.0
C54 C 0.91402 0.1754 0.4444 0.0
Eu55 Eu 0.97474 0.04578 0.57881 0.0
N56 N 0.91803 0.06623 0.52473 0.0
C57 C 0.85337 0.09521 0.45985 0.0
C58 C 0.88796 0.04505 0.5208 0.0
C59 C 0.85539 0.059 0.48795 0.0
H60 H 0.03309 0.11512 0.57019 0.0
H61 H 0.83177 0.04187 0.48456 0.0
H62 H 0.97436 0.88945 0.58258 0.0
H63 H 0.16319 0.99236 0.56473 0.0
H64 H 0.8886 0.01759 0.54319 0.0
H65 H 0.82812 0.10587 0.43429 0.0
H66 H 0.09891 1.00102 0.52115 0.0
H67 H 0.03399 0.17962 0.52314 0.0
H68 H 0.85843 0.16616 0.41212 0.0
H69 H 0.91297 0.20359 0.42293 0.0
H70 H 0.98987 0.83089 0.64524 0.0
H71 H 0.97842 0.20884 0.46396 0.0
H72 H 0.1821 0.93969 0.63555 0.0
N73 N 0.02866 0.90829 0.59418 0.0
C74 C 0.06414 0.90075 0.61819 0.0
C75 C 0.01096 0.85036 0.63813 0.0
C76 C 0.0742 0.86777 0.65432 0.0
C77 C 1.00221 0.88351 0.60288 0.0
C78 C 0.04707 0.84252 0.66414 0.0
N79 N 0.07996 0.95766 0.57129 0.0
C80 C 0.10602 0.97969 0.55407 0.0
C81 C 0.12727 0.91929 0.6318 0.0
C82 C 0.0903 0.92648 0.6072 0.0
C83 C 0.15345 0.94421 0.61755 0.0
C84 C 0.14287 0.9741 0.57782 0.0
H85 H 0.05372 0.81691 0.69166 0.0
H86 H 0.11891 0.83624 0.70804 0.0
H87 H 0.1654 0.88123 0.6882 0.0
O88 O 0.04135 0.95961 0.47455 0.0
O89 O 0.01578 0.95659 0.61417 0.0
O90 O 0.02564 0.01437 0.62674 0.0
O91 O 1.00392 0.91834 0.50141 0.0
O92 O 0.03818 0.0229 0.51565 0.0
O93 O 0.03536 0.0456 0.58126 0.0
O94 O 0.9423 0.04038 0.6333 0.0
O95 O 0.97283 0.0541 0.4992 0.0
O96 O 0.9664 0.99649 0.48401 0.0
O97 O 0.97966 0.08501 0.62395 0.0
O98 O 0.94883 0.98949 0.59368 0.0
O99 O 0.95625 0.95989 0.53528 0.0
C100 C 0.0307 0.9784 0.64141 0.0
C101 C 0.02828 0.90792 0.43575 0.0
C102 C 0.06044 0.89237 0.37874 0.0
C103 C 0.03519 0.86471 0.37204 0.0
C104 C 1.00347 0.88005 0.42836 0.0
C105 C 0.00689 0.85875 0.39657 0.0
C106 C 0.05658 0.91429 0.41038 0.0
C107 C 0.04998 0.04472 0.54472 0.0
C108 C 0.02492 0.92897 0.47124 0.0
C109 C 0.11076 0.86123 0.67982 0.0
C110 C 0.13719 0.88696 0.66869 0.0
C111 C 0.95987 0.03237 0.47101 0.0
C112 C 0.96996 0.06079 0.70193 0.0
C113 C 0.95909 0.06536 0.77922 0.0
C114 C 0.99257 0.04597 0.80234 0.0
C115 C 1.00332 0.04165 0.72553 0.0
C116 C 0.94801 0.07267 0.72878 0.0
C117 C 0.01452 0.03428 0.77555 0.0
C118 C 0.93952 0.96453 0.56858 0.0
C119 C 0.95733 0.0679 0.64951 0.0
H120 H 0.03709 0.84787 0.34734 0.0
H121 H 0.98139 0.8746 0.44727 0.0
H122 H 0.98758 0.83742 0.39105 0.0
H123 H 0.07608 0.93545 0.41619 0.0
H124 H 1.00201 0.04025 0.84106 0.0
H125 H 0.02064 0.03244 0.70537 0.0
H126 H 0.92203 0.08707 0.71041 0.0
H127 H 0.04031 0.0195 0.79358 0.0
Eu128 Eu 0.46832 0.50059 0.98408 0.0
C129 C 0.61263 0.57607 0.0233 0.0
N130 N 0.60729 0.54002 0.04294 0.0
C131 C 0.66195 0.52164 0.02362 0.0
C132 C 0.6427 0.5862 0.00178 0.0
C133 C 0.63162 0.51287 0.04422 0.0
C134 C 0.66741 0.55844 0.00205 0.0
C135 C 0.59276 0.64046 0.00424 0.0
C136 C 0.58764 0.60281 0.02417 0.0
C137 C 0.62205 0.65055 0.98151 0.0
C138 C 0.64698 0.62351 0.98036 0.0
Eu139 Eu 0.5554 0.52753 0.07656 0.0
N140 N 0.55934 0.59225 0.04618 0.0
C141 C 0.56897 0.66701 0.00907 0.0
C142 C 0.53874 0.61831 0.05543 0.0
C143 C 0.54238 0.6559 0.03575 0.0
H144 H 0.62729 0.48445 0.06075 0.0
H145 H 0.52521 0.67632 0.0421 0.0
H146 H 0.40602 0.57097 0.95018 0.0
H147 H 0.45602 0.35504 0.07084 0.0
H148 H 0.52011 0.61052 0.07908 0.0
H149 H 0.57199 0.69619 0.99429 0.0
H150 H 0.4869 0.40948 0.03317 0.0
H151 H 0.681 0.50003 0.02422 0.0
H152 H 0.6261 0.6793 0.96555 0.0
H153 H 0.66965 0.63177 0.96313 0.0
H154 H 0.34288 0.58248 0.95703 0.0
H155 H 0.6908 0.56513 0.9858 0.0
H156 H 0.39231 0.36136 0.07918 0.0
N157 N 0.40771 0.51422 0.98671 0.0
C158 C 0.38892 0.48532 0.00683 0.0
C159 C 0.35558 0.55509 0.97142 0.0
C160 C 0.35258 0.49047 0.01062 0.0
C161 C 0.39147 0.54862 0.96818 0.0
C162 C 0.33609 0.52593 0.99292 0.0
N163 N 0.44167 0.44658 0.02146 0.0
C164 C 0.45929 0.41273 0.03685 0.0
C165 C 0.38739 0.41999 0.04522 0.0
C166 C 0.40613 0.45044 0.02397 0.0
C167 C 0.40573 0.3854 0.06249 0.0
C168 C 0.44175 0.38174 0.05802 0.0
H169 H 0.30825 0.53102 0.99527 0.0
H170 H 0.306 0.46365 0.03521 0.0
H171 H 0.33646 0.40202 0.0655 0.0
O172 O 0.47506 0.47306 0.92871 0.0
O173 O 0.46561 0.48617 0.063 0.0
O174 O 0.52488 0.4785 0.10916 0.0
O175 O 0.42735 0.50876 0.91676 0.0
O176 O 0.52047 0.46466 -0.0 0.0
O177 O 0.55826 0.468 0.07332 0.0
O178 O 0.56673 0.54751 0.14294 0.0
O179 O 0.55685 0.52816 -0.00084 0.0
O180 O 0.5 0.55049 0.95675 0.0
O181 O 0.60371 0.50689 0.13322 0.0
O182 O 0.49829 0.55039 0.0721 0.0
O183 O 0.47279 0.55937 0.99154 0.0
C184 C 0.48981 0.47182 0.10282 0.0
C185 C 0.44662 0.50167 0.84826 0.0
C186 C 0.43399 0.49177 0.76723 0.0
C187 C 0.44748 0.52691 0.75061 0.0
C188 C 0.46013 0.53649 0.83127 0.0
C189 C 0.4605 0.54901 0.78252 0.0
C190 C 0.43381 0.47943 0.81639 0.0
C191 C 0.5478 0.45207 0.03739 0.0
C192 C 0.44498 0.48791 0.89886 0.0
C193 C 0.3339 0.46019 0.03191 0.0
C194 C 0.35123 0.42507 0.0491 0.0
C195 C 0.53553 0.54928 0.96105 0.0
C196 C 0.62021 0.52515 0.20864 0.0
C197 C 0.63521 0.54584 0.28292 0.0
C198 C 0.66291 0.51808 0.30194 0.0
C199 C 0.64843 0.49783 0.22809 0.0
C200 C 0.61401 0.54951 0.2361 0.0
C201 C 0.66963 0.49442 0.27443 0.0
C202 C 0.4742 0.5671 0.03311 0.0
C203 C 0.59639 0.52666 0.16096 0.0
H204 H 0.44763 0.53752 0.71291 0.0
H205 H 0.47015 0.55394 0.85556 0.0
H206 H 0.47077 0.57599 0.76936 0.0
H207 H 0.42409 0.45226 0.83021 0.0
H208 H 0.67941 0.51486 0.33803 0.0
H209 H 0.65377 0.47866 0.2078 0.0
H210 H 0.59227 0.57062 0.22173 0.0
H211 H 0.69111 0.47312 0.28926 0.0
H212 H 0.25531 0.154 0.59175 0.0
H213 H 0.07105 0.07716 0.46071 0.0
H214 H 0.20096 0.20578 0.44542 0.0
H215 H 0.10121 0.06462 0.61427 0.0
H216 H 0.12363 0.1169 0.45202 0.0
H217 H 0.20377 0.1132 0.5984 0.0
C218 C 0.23256 0.15676 0.561 0.0
C219 C 0.23231 0.18346 0.51806 0.0
C220 C 0.11862 0.10537 0.48754 0.0
C221 C 0.17354 0.13656 0.52524 0.0
C222 C 0.08884 0.08265 0.4925 0.0
C223 C 0.0818 0.06782 0.53821 0.0
C224 C 0.14178 0.11257 0.5287 0.0
C225 C 0.10553 0.07578 0.57833 0.0
C226 C 0.20314 0.13353 0.56487 0.0
C227 C 0.2021 0.18576 0.47932 0.0
N228 N 0.13456 0.09744 0.57268 0.0
N229 N 0.17397 0.16246 0.48372 0.0
H230 H 0.35672 0.77386 0.99155 0.0
H231 H 0.44327 0.5704 0.10792 0.0
H232 H 0.31163 0.69514 0.09626 0.0
H233 H 0.44911 0.63025 0.96449 0.0
H234 H 0.40179 0.61933 0.11138 0.0
H235 H 0.39783 0.72481 0.98805 0.0
C236 C 0.35553 0.74629 0.01388 0.0
C237 C 0.33066 0.73853 0.04418 0.0
C238 C 0.41212 0.62166 0.07915 0.0
C239 C 0.37786 0.68254 0.04073 0.0
C240 C 0.43585 0.59393 0.07726 0.0
C241 C 0.44935 0.59633 0.03577 0.0
C242 C 0.40257 0.65237 0.03968 0.0
C243 C 0.43894 0.62728 0.99694 0.0
C244 C 0.37887 0.71833 0.0117 0.0
C245 C 0.33024 0.70228 0.07223 0.0
N246 N 0.41635 0.65426 -6e-05 0.0
N247 N 0.35368 0.67567 0.07011 0.0
H248 H 0.73917 0.88053 0.64906 0.0
H249 H 0.91099 0.9091 0.52605 0.0
H250 H 0.77227 0.80228 0.57835 0.0
H251 H 0.89573 0.96671 0.63165 0.0
H252 H 0.85838 0.87187 0.54089 0.0
H253 H 0.79464 0.91457 0.63954 0.0
C254 C 0.7582 0.87038 0.63177 0.0
C255 C 0.75102 0.8385 0.61444 0.0
C256 C 0.86669 0.89255 0.56095 0.0
C257 C 0.8144 0.87762 0.6029 0.0
C258 C 0.89673 0.91391 0.55246 0.0
C259 C 0.90797 0.94118 0.57763 0.0
C260 C 0.84735 0.89877 0.59438 0.0
C261 C 0.88819 0.94608 0.61132 0.0
C262 C 0.78989 0.88981 0.62639 0.0
C263 C 0.77671 0.82665 0.59236 0.0
N264 N 0.85877 0.92529 0.61845 0.0
N265 N 0.80709 0.84637 0.58686 0.0
H266 H 0.62168 0.23974 0.01176 0.0
H267 H 0.61129 0.42245 0.10085 0.0
H268 H 0.71829 0.29214 0.07164 0.0
H269 H 0.53229 0.40422 0.97802 0.0
H270 H 0.64685 0.36832 0.10148 0.0
H271 H 0.58445 0.29392 0.00945 0.0
C272 C 0.63501 0.26258 0.02452 0.0
C273 C 0.67311 0.26153 0.04188 0.0
C274 C 0.62174 0.37626 0.07438 0.0
C275 C 0.63078 0.32295 0.04002 0.0
C276 C 0.60131 0.40717 0.07394 0.0
C277 C 0.5688 0.41832 0.03895 0.0
C278 C 0.60928 0.35568 0.04034 0.0
C279 C 0.55725 0.39688 0.00548 0.0
C280 C 0.61381 0.29344 0.02297 0.0
C281 C 0.68903 0.2919 0.05778 0.0
N282 N 0.57738 0.36643 0.00716 0.0
N283 N 0.66776 0.32122 0.05689 0.0
H284 H 0.21384 0.85422 0.21477 0.0
H285 H 0.08368 0.95753 0.32901 0.0
H286 H 0.18387 0.97051 0.16402 0.0
H287 H 0.10521 0.83967 0.36793 0.0
H288 H 0.12813 0.9647 0.27751 0.0
H289 H 0.1821 0.85036 0.28 0.0
C290 C 0.20095 0.87905 0.21762 0.0
C291 C 0.20115 0.91264 0.18345 0.0
C292 C 0.12337 0.93731 0.2977 0.0
C293 C 0.16449 0.90837 0.25799 0.0
C294 C 0.09817 0.93325 0.32728 0.0
C295 C 0.0904 0.89791 0.35222 0.0
C296 C 0.14099 0.90581 0.29329 0.0
C297 C 0.10986 0.86736 0.34857 0.0
C298 C 0.18274 0.87682 0.25486 0.0
C299 C 0.18414 0.94394 0.18924 0.0
N300 N 0.13401 0.87199 0.3194 0.0
N301 N 0.16621 0.94097 0.22547 0.0
H302 H 0.5973 0.73489 0.75485 0.0
H303 H 0.59619 0.53414 0.9314 0.0
H304 H 0.66262 0.64126 0.75383 0.0
H305 H 0.51286 0.61886 0.90722 0.0
H306 H 0.62584 0.57554 0.87353 0.0
H307 H 0.57196 0.69562 0.81924 0.0
C308 C 0.60675 0.70626 0.76862 0.0
C309 C 0.63197 0.6913 0.74864 0.0
C310 C 0.60099 0.58508 0.88067 0.0
C311 C 0.60282 0.64621 0.82194 0.0
C312 C 0.58409 0.56146 0.91363 0.0
C313 C 0.5521 0.57318 0.92388 0.0
C314 C 0.58585 0.62077 0.85792 0.0
C315 C 0.53738 0.60875 0.89989 0.0
C316 C 0.59203 0.6838 0.80509 0.0
C317 C 0.64306 0.65394 0.76785 0.0
N318 N 0.5545 0.63142 0.86816 0.0
N319 N 0.62833 0.63269 0.80323 0.0
H320 H 0.85748 0.18576 0.2056 0.0
H321 H 0.90459 1.001 0.41727 0.0
H322 H 0.79306 0.08836 0.20885 0.0
H323 H 0.96109 0.1028 0.41746 0.0
H324 H 0.86326 0.03188 0.34107 0.0
H325 H 0.8946 0.15582 0.28444 0.0
C326 C 0.85092 0.15815 0.22308 0.0
C327 C 0.8222 0.13949 0.2004 0.0
C328 C 0.88471 0.04742 0.35784 0.0
C329 C 0.86508 0.1047 0.2907 0.0
C330 C 0.90847 0.02973 0.40102 0.0
C331 C 0.93625 0.0494 0.42358 0.0
C332 C 0.88907 0.08492 0.33702 0.0
C333 C 0.93987 0.08666 0.4014 0.0
C334 C 0.87222 0.141 0.26814 0.0
C335 C 0.81492 0.10379 0.22499 0.0
N336 N 0.9166 0.10317 0.35941 0.0
N337 N 0.83645 0.08741 0.26865 0.0
H338 H 0.40753 0.37643 0.54105 0.0
H339 H 0.37525 0.44616 0.76595 0.0
H340 H 0.33068 0.32661 0.62606 0.0
H341 H 0.4624 0.48218 0.6923 0.0
H342 H 0.35573 0.40487 0.71277 0.0
H343 H 0.42473 0.41811 0.59339 0.0
C344 C 0.39419 0.37419 0.57077 0.0
C345 C 0.3676 0.3478 0.57914 0.0
C346 C 0.37908 0.42186 0.70826 0.0
C347 C 0.38737 0.39586 0.63958 0.0
C348 C 0.39039 0.44535 0.73874 0.0
C349 C 0.42068 0.46769 0.73382 0.0
C350 C 0.39805 0.42076 0.67237 0.0
C351 C 0.43866 0.46592 0.69718 0.0
C352 C 0.40412 0.39809 0.60075 0.0
C353 C 0.35134 0.34645 0.61828 0.0
N354 N 0.42711 0.44288 0.668 0.0
N355 N 0.36149 0.37017 0.64708 0.0
H356 H 0.58747 0.62919 0.51251 0.0
H357 H 0.64505 0.62005 0.26903 0.0
H358 H 0.66311 0.70462 0.45117 0.0
H359 H 0.61026 0.52619 0.36517 0.0
H360 H 0.63934 0.65827 0.32481 0.0
H361 H 0.58273 0.59841 0.44721 0.0
C362 C 0.60282 0.63957 0.48505 0.0
C363 C 0.6261 0.66927 0.48766 0.0
C364 C 0.63261 0.6294 0.33333 0.0
C365 C 0.62062 0.63412 0.41272 0.0
C366 C 0.63568 0.60777 0.30156 0.0
C367 C 0.62818 0.57012 0.31294 0.0
C368 C 0.6214 0.61321 0.37615 0.0
C369 C 0.61637 0.55517 0.35546 0.0
C370 C 0.60014 0.62187 0.44788 0.0
C371 C 0.64511 0.68159 0.4508 0.0
N372 N 0.61333 0.57677 0.38558 0.0
N373 N 0.64209 0.66382 0.41488 0.0
H374 H 0.84326 0.08012 -0.0016 0.0
H375 H 0.92257 0.13223 0.75955 0.0
H376 H 0.83471 0.19016 0.90538 0.0
H377 H 0.94245 0.02686 0.86353 0.0
H378 H 0.88519 0.15247 0.80794 0.0
H379 H 0.87412 0.05868 0.94453 0.0
C380 C 0.84762 0.09977 0.96643 0.0
C381 C 0.83659 0.13709 0.9566 0.0
C382 C 0.89767 0.1249 0.82009 0.0
C383 C 0.87218 0.11266 0.89474 0.0
C384 C 0.91886 0.11327 0.79239 0.0
C385 C 0.93579 0.07785 0.80765 0.0
C386 C 0.8932 0.10087 0.86325 0.0
C387 C 0.93036 0.05457 0.85076 0.0
C388 C 0.86537 0.08749 0.93573 0.0
C389 C 0.84289 0.16119 0.91449 0.0
N390 N 0.90957 0.0665 0.87702 0.0
N391 N 0.86043 0.14859 0.88521 0.0
H392 H 0.47481 0.30633 0.36027 0.0
H393 H 0.4202 0.46601 0.11798 0.0
H394 H 0.36404 0.34852 0.29573 0.0
H395 H 0.52969 0.41858 0.17674 0.0
H396 H 0.39861 0.42107 0.18062 0.0
H397 H 0.49476 0.34421 0.29064 0.0
C398 C 0.45458 0.32321 0.33119 0.0
C399 C 0.41775 0.32453 0.3341 0.0
C400 C 0.42735 0.42037 0.17979 0.0
C401 C 0.44052 0.36836 0.25452 0.0
C402 C 0.43969 0.44599 0.14393 0.0
C403 C 0.47677 0.44589 0.14195 0.0
C404 C 0.45235 0.39469 0.21438 0.0
C405 C 0.5009 0.4198 0.1771 0.0
C406 C 0.46603 0.34494 0.29149 0.0
C407 C 0.39275 0.34677 0.29518 0.0
N408 N 0.48828 0.39528 0.21193 0.0
N409 N 0.40466 0.3681 0.25725 0.0
H410 H 0.19345 0.95327 0.90569 0.0
H411 H 0.03274 0.90914 0.70149 0.0
H412 H 0.16471 0.84165 0.89997 0.0
H413 H 0.08706 0.01291 0.68696 0.0
H414 H 0.07769 0.88407 0.77684 0.0
H415 H 0.15146 0.97611 0.8279 0.0
C416 C 0.17843 0.93352 0.88796 0.0
C417 C 0.18257 0.89547 0.90945 0.0
C418 C 0.07981 0.91227 0.757 0.0
C419 C 0.13406 0.92154 0.82045 0.0
C420 C 0.0543 0.92649 0.71399 0.0
C421 C 0.05654 0.96291 0.68767 0.0
C422 C 0.10721 0.93498 0.77419 0.0
C423 C 0.08431 0.98465 0.7061 0.0
C424 C 0.15448 0.9466 0.84348 0.0
C425 C 0.16244 0.8712 0.88466 0.0
N426 N 0.10847 0.9704 0.74825 0.0
N427 N 0.13879 0.88467 0.84161 0.0
loop_
_geom_bond_atom_site_label_1
_geom_bond_atom_site_label_2
_geom_bond_distance
_geom_bond_site_symmetry_2
_ccdc_geom_bond_type
O0 Cd1 2.300 1_556 S
O0 C7 1.275 . S
Cd1 O0 2.300 1_554 S
Cd1 O9 2.381 . S
Cd1 O10 2.378 . S
O2 Cd3 2.385 1_556 S
O2 C7 1.255 . S
Cd3 O2 2.385 1_554 S
Cd3 O4 2.317 . S
O4 Cd3 2.317 . S
O4 C5 1.232 . S
C5 O4 1.232 . S
C5 O6 1.218 . S
O6 C5 1.218 . S
C7 O0 1.275 . S
C7 O2 1.255 . S
C8 O9 1.258 . S
C8 O10 1.256 . S
O9 Cd1 2.381 . S
O9 C8 1.258 . S
O10 Cd1 2.378 . S
O10 C8 1.256 . S
O11 Cd12 2.300 . S
O11 C18 1.275 . S
Cd12 O11 2.300 . S
Cd12 O20 2.381 . S
Cd12 O21 2.378 . S
O13 Cd14 2.385 . S
O13 C18 1.255 . S
Cd14 O13 2.385 . S
Cd14 O15 2.317 . S
O15 Cd14 2.317 . S
O15 C16 1.232 . S
C16 O15 1.232 . S
C16 O17 1.218 . S
O17 C16 1.218 . S
C18 O11 1.275 . S
C18 O13 1.255 . S
C19 O20 1.258 . S
C19 O21 1.256 . S
O20 Cd12 2.381 . S
O20 C19 1.258 . S
O21 Cd12 2.378 . S
O21 C19 1.256 . S
O22 Cd23 2.300 . S
O22 C29 1.275 . S
Cd23 O22 2.300 . S
Cd23 O31 2.381 . S
Cd23 O32 2.378 . S
O24 Cd25 2.385 . S
O24 C29 1.255 . S
Cd25 O24 2.385 . S
Cd25 O26 2.317 . S
O26 Cd25 2.317 . S
O26 C27 1.232 . S
C27 O26 1.232 . S
C27 O28 1.218 . S
O28 C27 1.218 . S
C29 O22 1.275 . S
C29 O24 1.255 . S
C30 O31 1.258 . S
C30 O32 1.256 . S
O31 Cd23 2.381 . S
O31 C30 1.258 . S
O32 Cd23 2.378 . S
O32 C30 1.256 . S
O33 Cd34 2.300 . S
O33 C40 1.275 . S
Cd34 O33 2.300 . S
Cd34 O42 2.381 . S
Cd34 O43 2.378 . S
O35 Cd36 2.385 . S
O35 C40 1.255 . S
Cd36 O35 2.385 . S
Cd36 O37 2.317 . S
O37 Cd36 2.317 . S
O37 C38 1.232 . S
C38 O37 1.232 . S
C38 O39 1.218 . S
O39 C38 1.218 . S
C40 O33 1.275 . S
C40 O35 1.255 . S
C41 O42 1.258 . S
C41 O43 1.256 . S
O42 Cd34 2.381 . S
O42 C41 1.258 . S
O43 Cd34 2.378 . S
O43 C41 1.256 . S
Eu44 N73 2.600 . S
Eu44 N79 2.562 . S
Eu44 O88 2.462 . S
Eu44 O89 2.373 . S
Eu44 O91 2.432 . S
Eu44 O92 2.291 1_565 S
Eu44 O96 2.335 1_465 S
Eu44 O99 2.372 1_455 S
Eu44 C108 2.787 . S
C45 N46 1.365 . S
C45 C48 1.405 . S
C45 C52 1.448 . S
N46 C45 1.365 . S
N46 C49 1.319 1_655 S
N46 Eu55 2.600 . S
C47 C49 1.397 . S
C47 C50 1.367 1_455 S
C47 H67 0.931 . S
C48 C45 1.405 . S
C48 C50 1.403 . S
C48 C54 1.439 . S
C49 N46 1.319 1_455 S
C49 C47 1.397 . S
C49 H60 0.930 . S
C50 C47 1.367 1_655 S
C50 C48 1.403 . S
C50 H71 0.929 . S
C51 C52 1.430 . S
C51 C53 1.387 . S
C51 C57 1.404 . S
C52 C45 1.448 . S
C52 C51 1.430 . S
C52 N56 1.351 . S
C53 C51 1.387 . S
C53 C54 1.374 . S
C53 H68 0.931 . S
C54 C48 1.439 . S
C54 C53 1.374 . S
C54 H69 0.931 . S
Eu55 N46 2.600 . S
Eu55 N56 2.562 . S
Eu55 O90 2.335 1_655 S
Eu55 O93 2.372 1_655 S
Eu55 O94 2.462 . S
Eu55 O95 2.373 . S
Eu55 O97 2.432 . S
Eu55 O98 2.291 1_545 S
Eu55 C119 2.787 . S
N56 C52 1.351 . S
N56 Eu55 2.562 . S
N56 C58 1.325 . S
C57 C51 1.404 . S
C57 C59 1.366 . S
C57 H65 0.930 . S
C58 N56 1.325 . S
C58 C59 1.416 . S
C58 H64 0.929 . S
C59 C57 1.366 . S
C59 C58 1.416 . S
C59 H61 0.930 . S
H60 C49 0.930 . S
H61 C59 0.930 . S
H62 C77 0.930 1_655 S
H63 C84 0.930 . S
H64 C58 0.929 . S
H65 C57 0.930 . S
H66 C80 0.929 . S
H67 C47 0.931 . S
H68 C53 0.931 . S
H69 C54 0.931 . S
H70 C75 0.931 1_655 S
H71 C50 0.929 . S
H72 C83 0.930 . S
N73 Eu44 2.600 . S
N73 C74 1.365 . S
N73 C77 1.319 . S
C74 N73 1.365 . S
C74 C76 1.405 . S
C74 C82 1.448 . S
C75 H70 0.931 1_455 S
C75 C77 1.397 . S
C75 C78 1.367 . S
C76 C74 1.405 . S
C76 C78 1.403 . S
C76 C109 1.439 . S
C77 H62 0.930 1_455 S
C77 N73 1.319 . S
C77 C75 1.397 . S
C78 C75 1.367 . S
C78 C76 1.403 . S
C78 H85 0.929 . S
N79 Eu44 2.562 . S
N79 C80 1.325 . S
N79 C82 1.351 . S
C80 H66 0.929 . S
C80 N79 1.325 . S
C80 C84 1.416 . S
C81 C82 1.430 . S
C81 C83 1.404 . S
C81 C110 1.387 . S
C82 C74 1.448 . S
C82 N79 1.351 . S
C82 C81 1.430 . S
C83 H72 0.930 . S
C83 C81 1.404 . S
C83 C84 1.366 . S
C84 H63 0.930 . S
C84 C80 1.416 . S
C84 C83 1.366 . S
H85 C78 0.929 . S
H86 C109 0.931 . S
H87 C110 0.931 . S
O88 Eu44 2.462 . S
O88 C108 1.252 . S
O89 Eu44 2.373 . S
O89 C100 1.249 . S
O90 Eu55 2.335 1_455 S
O90 C100 1.264 1_545 S
O91 Eu44 2.432 . S
O91 C108 1.268 . S
O92 Eu44 2.291 1_545 S
O92 C107 1.255 . S
O93 Eu55 2.372 1_455 S
O93 C107 1.257 . S
O94 Eu55 2.462 . S
O94 C119 1.252 . S
O95 Eu55 2.373 . S
O95 C111 1.249 . S
O96 Eu44 2.335 1_645 S
O96 C111 1.264 . S
O97 Eu55 2.432 . S
O97 C119 1.268 . S
O98 Eu55 2.291 1_565 S
O98 C118 1.255 . S
O99 Eu44 2.372 1_655 S
O99 C118 1.257 . S
C100 O89 1.249 . S
C100 O90 1.264 1_565 S
C101 C104 1.382 . S
C101 C106 1.390 . S
C101 C108 1.506 . S
C102 C103 1.398 . S
C102 C106 1.392 . S
C103 C102 1.398 . S
C103 C105 1.372 . S
C103 H120 0.931 . S
C104 C101 1.382 . S
C104 C105 1.390 . S
C104 H121 0.931 . S
C105 C103 1.372 . S
C105 C104 1.390 . S
C105 H122 0.929 . S
C106 C101 1.390 . S
C106 C102 1.392 . S
C106 H123 0.930 . S
C107 O92 1.255 . S
C107 O93 1.257 . S
C108 Eu44 2.787 . S
C108 O88 1.252 . S
C108 O91 1.268 . S
C108 C101 1.506 . S
C109 C76 1.439 . S
C109 H86 0.931 . S
C109 C110 1.374 . S
C110 C81 1.387 . S
C110 H87 0.931 . S
C110 C109 1.374 . S
C111 O95 1.249 . S
C111 O96 1.264 . S
C112 C115 1.382 . S
C112 C116 1.390 . S
C112 C119 1.506 . S
C113 C114 1.398 . S
C113 C116 1.392 . S
C114 C113 1.398 . S
C114 C117 1.372 . S
C114 H124 0.931 . S
C115 C112 1.382 . S
C115 C117 1.390 . S
C115 H125 0.931 . S
C116 C112 1.390 . S
C116 C113 1.392 . S
C116 H126 0.930 . S
C117 C114 1.372 . S
C117 C115 1.390 . S
C117 H127 0.929 . S
C118 O98 1.255 . S
C118 O99 1.257 . S
C119 Eu55 2.787 . S
C119 O94 1.252 . S
C119 O97 1.268 . S
C119 C112 1.506 . S
H120 C103 0.931 . S
H121 C104 0.931 . S
H122 C105 0.929 . S
H123 C106 0.930 . S
H124 C114 0.931 . S
H125 C115 0.931 . S
H126 C116 0.930 . S
H127 C117 0.929 . S
Eu128 N157 2.600 . S
Eu128 N163 2.562 1_556 S
Eu128 O172 2.462 . S
Eu128 O173 2.373 1_556 S
Eu128 O175 2.432 . S
Eu128 O176 2.291 1_556 S
Eu128 O180 2.335 . S
Eu128 O183 2.372 . S
Eu128 C192 2.787 . S
C129 N130 1.365 . S
C129 C132 1.405 . S
C129 C136 1.448 . S
N130 C129 1.365 . S
N130 C133 1.319 . S
N130 Eu139 2.600 . S
C131 C133 1.397 . S
C131 C134 1.367 . S
C131 H151 0.931 . S
C132 C129 1.405 . S
C132 C134 1.403 . S
C132 C138 1.439 . S
C133 N130 1.319 . S
C133 C131 1.397 . S
C133 H144 0.930 . S
C134 C131 1.367 . S
C134 C132 1.403 . S
C134 H155 0.929 . S
C135 C136 1.430 . S
C135 C137 1.387 . S
C135 C141 1.404 . S
C136 C129 1.448 . S
C136 C135 1.430 . S
C136 N140 1.351 . S
C137 C135 1.387 . S
C137 C138 1.374 . S
C137 H152 0.931 . S
C138 C132 1.439 . S
C138 C137 1.374 . S
C138 H153 0.931 . S
Eu139 N130 2.600 . S
Eu139 N140 2.562 . S
Eu139 O174 2.335 . S
Eu139 O177 2.372 . S
Eu139 O178 2.462 . S
Eu139 O179 2.373 1_554 S
Eu139 O181 2.432 . S
Eu139 O182 2.291 . S
Eu139 C203 2.787 . S
N140 C136 1.351 . S
N140 Eu139 2.562 . S
N140 C142 1.325 . S
C141 C135 1.404 . S
C141 C143 1.366 . S
C141 H149 0.930 . S
C142 N140 1.325 . S
C142 C143 1.416 . S
C142 H148 0.929 . S
C143 C141 1.366 . S
C143 C142 1.416 . S
C143 H145 0.930 . S
H144 C133 0.930 . S
H145 C143 0.930 . S
H146 C161 0.930 . S
H147 C168 0.930 . S
H148 C142 0.929 . S
H149 C141 0.930 . S
H150 C164 0.929 . S
H151 C131 0.931 . S
H152 C137 0.931 . S
H153 C138 0.931 . S
H154 C159 0.931 . S
H155 C134 0.929 . S
H156 C167 0.930 . S
N157 Eu128 2.600 . S
N157 C158 1.365 1_556 S
N157 C161 1.319 . S
C158 N157 1.365 1_554 S
C158 C160 1.405 . S
C158 C166 1.448 . S
C159 H154 0.931 . S
C159 C161 1.397 . S
C159 C162 1.364 1_556 S
C160 C158 1.405 . S
C160 C162 1.403 . S
C160 C193 1.439 . S
C161 H146 0.930 . S
C161 N157 1.319 . S
C161 C159 1.397 . S
C162 C159 1.364 1_554 S
C162 C160 1.403 . S
C162 H169 0.933 . S
N163 Eu128 2.562 1_554 S
N163 C164 1.325 . S
N163 C166 1.351 . S
C164 H150 0.929 . S
C164 N163 1.325 . S
C164 C168 1.416 . S
C165 C166 1.430 . S
C165 C167 1.404 . S
C165 C194 1.387 . S
C166 C158 1.448 . S
C166 N163 1.351 . S
C166 C165 1.430 . S
C167 H156 0.930 . S
C167 C165 1.404 . S
C167 C168 1.366 . S
C168 H147 0.930 . S
C168 C164 1.416 . S
C168 C167 1.366 . S
H169 C162 0.933 . S
H170 C193 0.931 . S
H171 C194 0.931 . S
O172 Eu128 2.462 . S
O172 C192 1.252 . S
O173 Eu128 2.373 1_554 S
O173 C184 1.249 . S
O174 Eu139 2.335 . S
O174 C184 1.264 . S
O175 Eu128 2.432 . S
O175 C192 1.268 . S
O176 Eu128 2.291 1_554 S
O176 C191 1.255 . S
O177 Eu139 2.372 . S
O177 C191 1.257 . S
O178 Eu139 2.462 . S
O178 C203 1.252 . S
O179 Eu139 2.373 1_556 S
O179 C195 1.249 . S
O180 Eu128 2.335 . S
O180 C195 1.264 . S
O181 Eu139 2.432 . S
O181 C203 1.268 . S
O182 Eu139 2.291 . S
O182 C202 1.255 . S
O183 Eu128 2.372 . S
O183 C202 1.257 1_556 S
C184 O173 1.249 . S
C184 O174 1.264 . S
C185 C188 1.382 . S
C185 C190 1.390 . S
C185 C192 1.506 . S
C186 C187 1.398 . S
C186 C190 1.392 . S
C187 C186 1.398 . S
C187 C189 1.372 . S
C187 H204 0.931 . S
C188 C185 1.382 . S
C188 C189 1.390 . S
C188 H205 0.931 . S
C189 C187 1.372 . S
C189 C188 1.390 . S
C189 H206 0.929 . S
C190 C185 1.390 . S
C190 C186 1.392 . S
C190 H207 0.930 . S
C191 O176 1.255 . S
C191 O177 1.257 . S
C192 Eu128 2.787 . S
C192 O172 1.252 . S
C192 O175 1.268 . S
C192 C185 1.506 . S
C193 C160 1.439 . S
C193 H170 0.931 . S
C193 C194 1.374 . S
C194 C165 1.387 . S
C194 H171 0.931 . S
C194 C193 1.374 . S
C195 O179 1.249 . S
C195 O180 1.264 . S
C196 C199 1.382 . S
C196 C200 1.390 . S
C196 C203 1.506 . S
C197 C198 1.398 . S
C197 C200 1.392 . S
C198 C197 1.398 . S
C198 C201 1.372 . S
C198 H208 0.931 . S
C199 C196 1.382 . S
C199 C201 1.390 . S
C199 H209 0.931 . S
C200 C196 1.390 . S
C200 C197 1.392 . S
C200 H210 0.930 . S
C201 C198 1.372 . S
C201 C199 1.390 . S
C201 H211 0.929 . S
C202 O182 1.255 . S
C202 O183 1.257 1_554 S
C203 Eu139 2.787 . S
C203 O178 1.252 . S
C203 O181 1.268 . S
C203 C196 1.506 . S
H204 C187 0.931 . S
H205 C188 0.931 . S
H206 C189 0.929 . S
H207 C190 0.930 . S
H208 C198 0.931 . S
H209 C199 0.931 . S
H210 C200 0.930 . S
H211 C201 0.929 . S
H212 C218 0.930 . S
H213 C222 0.930 . S
H214 C227 0.929 . S
H215 C225 0.929 . S
H216 C220 0.929 . S
H217 C226 0.929 . S
C218 H212 0.930 . S
C218 C219 1.367 . S
C218 C226 1.378 . S
C219 C218 1.367 . S
C219 C227 1.433 . S
C220 H216 0.929 . S
C220 C222 1.378 . S
C220 C224 1.350 . S
C221 C224 1.463 . S
C221 C226 1.350 . S
C221 N229 1.427 . S
C222 H213 0.930 . S
C222 C220 1.378 . S
C222 C223 1.367 . S
C223 C222 1.367 . S
C223 C225 1.433 . S
C224 C220 1.350 . S
C224 C221 1.463 . S
C224 N228 1.427 . S
C225 H215 0.929 . S
C225 C223 1.433 . S
C225 N228 1.384 . S
C226 H217 0.929 . S
C226 C218 1.378 . S
C226 C221 1.350 . S
C227 H214 0.929 . S
C227 C219 1.433 . S
C227 N229 1.384 . S
N228 C224 1.427 . S
N228 C225 1.384 . S
N229 C221 1.427 . S
N229 C227 1.384 . S
H230 C236 0.917 1_556 S
H231 C240 0.930 . S
H232 C245 0.929 . S
H233 C243 0.929 . S
H234 C238 0.929 . S
H235 C244 0.929 . S
C236 H230 0.917 1_554 S
C236 C237 1.390 . S
C236 C244 1.369 1_554 S
C237 C236 1.390 . S
C237 C245 1.433 . S
C238 H234 0.929 . S
C238 C240 1.378 . S
C238 C242 1.350 . S
C239 C242 1.463 . S
C239 C244 1.350 1_554 S
C239 N247 1.427 . S
C240 H231 0.930 . S
C240 C238 1.378 . S
C240 C241 1.367 . S
C241 C240 1.367 . S
C241 C243 1.433 1_554 S
C242 C238 1.350 . S
C242 C239 1.463 . S
C242 N246 1.427 1_554 S
C243 H233 0.929 . S
C243 C241 1.433 1_556 S
C243 N246 1.384 . S
C244 H235 0.929 . S
C244 C236 1.369 1_556 S
C244 C239 1.350 1_556 S
C245 H232 0.929 . S
C245 C237 1.433 . S
C245 N247 1.384 . S
N246 C242 1.427 1_556 S
N246 C243 1.384 . S
N247 C239 1.427 . S
N247 C245 1.384 . S
H248 C254 0.930 . S
H249 C258 0.930 . S
H250 C263 0.929 . S
H251 C261 0.929 . S
H252 C256 0.929 . S
H253 C262 0.929 . S
C254 H248 0.930 . S
C254 C255 1.367 . S
C254 C262 1.378 . S
C255 C254 1.367 . S
C255 C263 1.433 . S
C256 H252 0.929 . S
C256 C258 1.378 . S
C256 C260 1.350 . S
C257 C260 1.463 . S
C257 C262 1.350 . S
C257 N265 1.427 . S
C258 H249 0.930 . S
C258 C256 1.378 . S
C258 C259 1.367 . S
C259 C258 1.367 . S
C259 C261 1.433 . S
C260 C256 1.350 . S
C260 C257 1.463 . S
C260 N264 1.427 . S
C261 H251 0.929 . S
C261 C259 1.433 . S
C261 N264 1.384 . S
C262 H253 0.929 . S
C262 C254 1.378 . S
C262 C257 1.350 . S
C263 H250 0.929 . S
C263 C255 1.433 . S
C263 N265 1.384 . S
N264 C260 1.427 . S
N264 C261 1.384 . S
N265 C257 1.427 . S
N265 C263 1.384 . S
H266 C272 0.930 1_556 S
H267 C276 0.930 . S
H268 C281 0.929 . S
H269 C279 0.929 1_556 S
H270 C274 0.929 . S
H271 C280 0.929 1_556 S
C272 H266 0.930 1_554 S
C272 C273 1.367 . S
C272 C280 1.378 . S
C273 C272 1.367 . S
C273 C281 1.433 . S
C274 H270 0.929 . S
C274 C276 1.378 . S
C274 C278 1.350 . S
C275 C278 1.463 . S
C275 C280 1.350 . S
C275 N283 1.427 . S
C276 H267 0.930 . S
C276 C274 1.378 . S
C276 C277 1.367 . S
C277 C276 1.367 . S
C277 C279 1.433 . S
C278 C274 1.350 . S
C278 C275 1.463 . S
C278 N282 1.427 . S
C279 H269 0.929 1_554 S
C279 C277 1.433 . S
C279 N282 1.384 . S
C280 H271 0.929 1_554 S
C280 C272 1.378 . S
C280 C275 1.350 . S
C281 H268 0.929 . S
C281 C273 1.433 . S
C281 N283 1.384 . S
N282 C278 1.427 . S
N282 C279 1.384 . S
N283 C275 1.427 . S
N283 C281 1.384 . S
H284 C290 0.930 . S
H285 C294 0.930 . S
H286 C299 0.929 . S
H287 C297 0.929 . S
H288 C292 0.929 . S
H289 C298 0.929 . S
C290 H284 0.930 . S
C290 C291 1.367 . S
C290 C298 1.378 . S
C291 C290 1.367 . S
C291 C299 1.433 . S
C292 H288 0.929 . S
C292 C294 1.378 . S
C292 C296 1.350 . S
C293 C296 1.463 . S
C293 C298 1.350 . S
C293 N301 1.427 . S
C294 H285 0.930 . S
C294 C292 1.378 . S
C294 C295 1.367 . S
C295 C294 1.367 . S
C295 C297 1.433 . S
C296 C292 1.350 . S
C296 C293 1.463 . S
C296 N300 1.427 . S
C297 H287 0.929 . S
C297 C295 1.433 . S
C297 N300 1.384 . S
C298 H289 0.929 . S
C298 C290 1.378 . S
C298 C293 1.350 . S
C299 H286 0.929 . S
C299 C291 1.433 . S
C299 N301 1.384 . S
N300 C296 1.427 . S
N300 C297 1.384 . S
N301 C293 1.427 . S
N301 C299 1.384 . S
H302 C308 0.930 . S
H303 C312 0.930 . S
H304 C317 0.929 . S
H305 C315 0.929 . S
H306 C310 0.929 . S
H307 C316 0.929 . S
C308 H302 0.930 . S
C308 C309 1.367 . S
C308 C316 1.378 . S
C309 C308 1.367 . S
C309 C317 1.433 . S
C310 H306 0.929 . S
C310 C312 1.378 . S
C310 C314 1.350 . S
C311 C314 1.463 . S
C311 C316 1.350 . S
C311 N319 1.427 . S
C312 H303 0.930 . S
C312 C310 1.378 . S
C312 C313 1.367 . S
C313 C312 1.367 . S
C313 C315 1.433 . S
C314 C310 1.350 . S
C314 C311 1.463 . S
C314 N318 1.427 . S
C315 H305 0.929 . S
C315 C313 1.433 . S
C315 N318 1.384 . S
C316 H307 0.929 . S
C316 C308 1.378 . S
C316 C311 1.350 . S
C317 H304 0.929 . S
C317 C309 1.433 . S
C317 N319 1.384 . S
N318 C314 1.427 . S
N318 C315 1.384 . S
N319 C311 1.427 . S
N319 C317 1.384 . S
H320 C326 0.930 . S
H321 C330 0.930 1_565 S
H322 C335 0.929 . S
H323 C333 0.929 . S
H324 C328 0.929 . S
H325 C334 0.929 . S
C326 H320 0.930 . S
C326 C327 1.367 . S
C326 C334 1.378 . S
C327 C326 1.367 . S
C327 C335 1.433 . S
C328 H324 0.929 . S
C328 C330 1.378 . S
C328 C332 1.350 . S
C329 C332 1.463 . S
C329 C334 1.350 . S
C329 N337 1.427 . S
C330 H321 0.930 1_545 S
C330 C328 1.378 . S
C330 C331 1.367 . S
C331 C330 1.367 . S
C331 C333 1.433 . S
C332 C328 1.350 . S
C332 C329 1.463 . S
C332 N336 1.427 . S
C333 H323 0.929 . S
C333 C331 1.433 . S
C333 N336 1.384 . S
C334 H325 0.929 . S
C334 C326 1.378 . S
C334 C329 1.350 . S
C335 H322 0.929 . S
C335 C327 1.433 . S
C335 N337 1.384 . S
N336 C332 1.427 . S
N336 C333 1.384 . S
N337 C329 1.427 . S
N337 C335 1.384 . S
H338 C344 0.930 . S
H339 C348 0.930 . S
H340 C353 0.929 . S
H341 C351 0.929 . S
H342 C346 0.929 . S
H343 C352 0.929 . S
C344 H338 0.930 . S
C344 C345 1.367 . S
C344 C352 1.378 . S
C345 C344 1.367 . S
C345 C353 1.433 . S
C346 H342 0.929 . S
C346 C348 1.378 . S
C346 C350 1.350 . S
C347 C350 1.463 . S
C347 C352 1.350 . S
C347 N355 1.427 . S
C348 H339 0.930 . S
C348 C346 1.378 . S
C348 C349 1.367 . S
C349 C348 1.367 . S
C349 C351 1.433 . S
C350 C346 1.350 . S
C350 C347 1.463 . S
C350 N354 1.427 . S
C351 H341 0.929 . S
C351 C349 1.433 . S
C351 N354 1.384 . S
C352 H343 0.929 . S
C352 C344 1.378 . S
C352 C347 1.350 . S
C353 H340 0.929 . S
C353 C345 1.433 . S
C353 N355 1.384 . S
N354 C350 1.427 . S
N354 C351 1.384 . S
N355 C347 1.427 . S
N355 C353 1.384 . S
H356 C362 0.930 . S
H357 C366 0.930 . S
H358 C371 0.929 . S
H359 C369 0.929 . S
H360 C364 0.929 . S
H361 C370 0.929 . S
C362 H356 0.930 . S
C362 C363 1.367 . S
C362 C370 1.378 . S
C363 C362 1.367 . S
C363 C371 1.433 . S
C364 H360 0.929 . S
C364 C366 1.378 . S
C364 C368 1.350 . S
C365 C368 1.463 . S
C365 C370 1.350 . S
C365 N373 1.427 . S
C366 H357 0.930 . S
C366 C364 1.378 . S
C366 C367 1.367 . S
C367 C366 1.367 . S
C367 C369 1.433 . S
C368 C364 1.350 . S
C368 C365 1.463 . S
C368 N372 1.427 . S
C369 H359 0.929 . S
C369 C367 1.433 . S
C369 N372 1.384 . S
C370 H361 0.929 . S
C370 C362 1.378 . S
C370 C365 1.350 . S
C371 H358 0.929 . S
C371 C363 1.433 . S
C371 N373 1.384 . S
N372 C368 1.427 . S
N372 C369 1.384 . S
N373 C365 1.427 . S
N373 C371 1.384 . S
H374 C380 0.930 1_554 S
H375 C384 0.930 . S
H376 C389 0.929 . S
H377 C387 0.933 . S
H378 C382 0.929 . S
H379 C388 0.929 . S
C380 H374 0.930 1_556 S
C380 C381 1.367 . S
C380 C388 1.378 . S
C381 C380 1.367 . S
C381 C389 1.433 . S
C382 H378 0.929 . S
C382 C384 1.378 . S
C382 C386 1.350 . S
C383 C386 1.463 . S
C383 C388 1.350 . S
C383 N391 1.427 . S
C384 H375 0.930 . S
C384 C382 1.378 . S
C384 C385 1.367 . S
C385 C384 1.367 . S
C385 C387 1.433 . S
C386 C382 1.350 . S
C386 C383 1.463 . S
C386 N390 1.427 . S
C387 H377 0.933 . S
C387 C385 1.433 . S
C387 N390 1.384 . S
C388 H379 0.929 . S
C388 C380 1.378 . S
C388 C383 1.350 . S
C389 H376 0.929 . S
C389 C381 1.433 . S
C389 N391 1.384 . S
N390 C386 1.427 . S
N390 C387 1.384 . S
N391 C383 1.427 . S
N391 C389 1.384 . S
H392 C398 0.930 . S
H393 C402 0.930 . S
H394 C407 0.929 . S
H395 C405 0.929 . S
H396 C400 0.929 . S
H397 C406 0.929 . S
C398 H392 0.930 . S
C398 C399 1.367 . S
C398 C406 1.378 . S
C399 C398 1.367 . S
C399 C407 1.433 . S
C400 H396 0.929 . S
C400 C402 1.378 . S
C400 C404 1.350 . S
C401 C404 1.463 . S
C401 C406 1.350 . S
C401 N409 1.427 . S
C402 H393 0.930 . S
C402 C400 1.378 . S
C402 C403 1.367 . S
C403 C402 1.367 . S
C403 C405 1.433 . S
C404 C400 1.350 . S
C404 C401 1.463 . S
C404 N408 1.427 . S
C405 H395 0.929 . S
C405 C403 1.433 . S
C405 N408 1.384 . S
C406 H397 0.929 . S
C406 C398 1.378 . S
C406 C401 1.350 . S
C407 H394 0.929 . S
C407 C399 1.433 . S
C407 N409 1.384 . S
N408 C404 1.427 . S
N408 C405 1.384 . S
N409 C401 1.427 . S
N409 C407 1.384 . S
H410 C416 0.930 . S
H411 C420 0.930 . S
H412 C425 0.929 . S
H413 C423 0.929 1_545 S
H414 C418 0.929 . S
H415 C424 0.929 . S
C416 H410 0.930 . S
C416 C417 1.367 . S
C416 C424 1.378 . S
C417 C416 1.367 . S
C417 C425 1.433 . S
C418 H414 0.929 . S
C418 C420 1.378 . S
C418 C422 1.350 . S
C419 C422 1.463 . S
C419 C424 1.350 . S
C419 N427 1.427 . S
C420 H411 0.930 . S
C420 C418 1.378 . S
C420 C421 1.367 . S
C421 C420 1.367 . S
C421 C423 1.433 . S
C422 C418 1.350 . S
C422 C419 1.463 . S
C422 N426 1.427 . S
C423 H413 0.929 1_565 S
C423 C421 1.433 . S
C423 N426 1.384 . S
C424 H415 0.929 . S
C424 C416 1.378 . S
C424 C419 1.350 . S
C425 H412 0.929 . S
C425 C417 1.433 . S
C425 N427 1.384 . S
N426 C422 1.427 . S
N426 C423 1.384 . S
N427 C419 1.427 . S
N427 C425 1.384 . S
C223 C107 1.628 . S
C219 C41 1.632 . S
C237 C8 1.641 . S
C241 C202 1.641 . S
C255 C19 1.737 . S
C259 C118 1.752 . S
C273 C30 1.612 . S
C277 C191 1.613 . S
C295 C102 1.472 . S
C291 C5 1.483 . S
C313 C195 1.796 . S
C309 C18 1.752 . S
C327 C29 1.602 . S
C331 C111 1.710 . S
C345 C40 1.597 . S
C349 C186 1.523 . S
C367 C197 1.385 . S
C363 C16 1.315 . S
C385 C113 1.349 . S
C381 C27 1.296 1_556 S
C403 C184 1.543 . S
C399 C38 1.307 . S
C417 C7 1.480 . S
C421 C100 1.511 . S
