# Generated by pormake.
# Topology soc, (4,6)-cn, num edge types: 1
# Building blocks:
#     Node 0, Type 0, BuildingBlock: ESEHIV_clean_sbu_0, # of connection points: 4
#     Node 1, Type 0, BuildingBlock: ESEHIV_clean_sbu_0, # of connection points: 4
#     Node 2, Type 0, BuildingBlock: ESEHIV_clean_sbu_0, # of connection points: 4
#     Node 3, Type 0, BuildingBlock: ESEHIV_clean_sbu_0, # of connection points: 4
#     Node 4, Type 0, BuildingBlock: ESEHIV_clean_sbu_0, # of connection points: 4
#     Node 5, Type 0, BuildingBlock: ESEHIV_clean_sbu_0, # of connection points: 4
#     Node 6, Type 0, BuildingBlock: ESEHIV_clean_sbu_0, # of connection points: 4
#     Node 7, Type 0, BuildingBlock: ESEHIV_clean_sbu_0, # of connection points: 4
#     Node 8, Type 0, BuildingBlock: ESEHIV_clean_sbu_0, # of connection points: 4
#     Node 9, Type 0, BuildingBlock: ESEHIV_clean_sbu_0, # of connection points: 4
#     Node 10, Type 0, BuildingBlock: ESEHIV_clean_sbu_0, # of connection points: 4
#     Node 11, Type 0, BuildingBlock: ESEHIV_clean_sbu_0, # of connection points: 4
#     Node 12, Type 1, BuildingBlock: KUMJIN_clean_sbu_0, # of connection points: 6
#     Node 13, Type 1, BuildingBlock: KUMJIN_clean_sbu_0, # of connection points: 6
#     Node 14, Type 1, BuildingBlock: KUMJIN_clean_sbu_0, # of connection points: 6
#     Node 15, Type 1, BuildingBlock: KUMJIN_clean_sbu_0, # of connection points: 6
#     Node 16, Type 1, BuildingBlock: KUMJIN_clean_sbu_0, # of connection points: 6
#     Node 17, Type 1, BuildingBlock: KUMJIN_clean_sbu_0, # of connection points: 6
#     Node 18, Type 1, BuildingBlock: KUMJIN_clean_sbu_0, # of connection points: 6
#     Node 19, Type 1, BuildingBlock: KUMJIN_clean_sbu_0, # of connection points: 6
#     Edge 20, Type (0, 1), BuildingBlock: MIFKUJ_clean_linker_0, # of connection points: 2
#     Edge 21, Type (0, 1), BuildingBlock: MIFKUJ_clean_linker_0, # of connection points: 2
#     Edge 22, Type (0, 1), BuildingBlock: MIFKUJ_clean_linker_0, # of connection points: 2
#     Edge 23, Type (0, 1), BuildingBlock: MIFKUJ_clean_linker_0, # of connection points: 2
#     Edge 24, Type (0, 1), BuildingBlock: MIFKUJ_clean_linker_0, # of connection points: 2
#     Edge 25, Type (0, 1), BuildingBlock: MIFKUJ_clean_linker_0, # of connection points: 2
#     Edge 26, Type (0, 1), BuildingBlock: MIFKUJ_clean_linker_0, # of connection points: 2
#     Edge 27, Type (0, 1), BuildingBlock: MIFKUJ_clean_linker_0, # of connection points: 2
#     Edge 28, Type (0, 1), BuildingBlock: MIFKUJ_clean_linker_0, # of connection points: 2
#     Edge 29, Type (0, 1), BuildingBlock: MIFKUJ_clean_linker_0, # of connection points: 2
#     Edge 30, Type (0, 1), BuildingBlock: MIFKUJ_clean_linker_0, # of connection points: 2
#     Edge 31, Type (0, 1), BuildingBlock: MIFKUJ_clean_linker_0, # of connection points: 2
#     Edge 32, Type (0, 1), BuildingBlock: MIFKUJ_clean_linker_0, # of connection points: 2
#     Edge 33, Type (0, 1), BuildingBlock: MIFKUJ_clean_linker_0, # of connection points: 2
#     Edge 34, Type (0, 1), BuildingBlock: MIFKUJ_clean_linker_0, # of connection points: 2
#     Edge 35, Type (0, 1), BuildingBlock: MIFKUJ_clean_linker_0, # of connection points: 2
#     Edge 36, Type (0, 1), BuildingBlock: MIFKUJ_clean_linker_0, # of connection points: 2
#     Edge 37, Type (0, 1), BuildingBlock: MIFKUJ_clean_linker_0, # of connection points: 2
#     Edge 38, Type (0, 1), BuildingBlock: MIFKUJ_clean_linker_0, # of connection points: 2
#     Edge 39, Type (0, 1), BuildingBlock: MIFKUJ_clean_linker_0, # of connection points: 2
#     Edge 40, Type (0, 1), BuildingBlock: MIFKUJ_clean_linker_0, # of connection points: 2
#     Edge 41, Type (0, 1), BuildingBlock: MIFKUJ_clean_linker_0, # of connection points: 2
#     Edge 42, Type (0, 1), BuildingBlock: MIFKUJ_clean_linker_0, # of connection points: 2
#     Edge 43, Type (0, 1), BuildingBlock: MIFKUJ_clean_linker_0, # of connection points: 2
#     Edge 44, Type (0, 1), BuildingBlock: MIFKUJ_clean_linker_0, # of connection points: 2
#     Edge 45, Type (0, 1), BuildingBlock: MIFKUJ_clean_linker_0, # of connection points: 2
#     Edge 46, Type (0, 1), BuildingBlock: MIFKUJ_clean_linker_0, # of connection points: 2
#     Edge 47, Type (0, 1), BuildingBlock: MIFKUJ_clean_linker_0, # of connection points: 2
#     Edge 48, Type (0, 1), BuildingBlock: MIFKUJ_clean_linker_0, # of connection points: 2
#     Edge 49, Type (0, 1), BuildingBlock: MIFKUJ_clean_linker_0, # of connection points: 2
#     Edge 50, Type (0, 1), BuildingBlock: MIFKUJ_clean_linker_0, # of connection points: 2
#     Edge 51, Type (0, 1), BuildingBlock: MIFKUJ_clean_linker_0, # of connection points: 2
#     Edge 52, Type (0, 1), BuildingBlock: MIFKUJ_clean_linker_0, # of connection points: 2
#     Edge 53, Type (0, 1), BuildingBlock: MIFKUJ_clean_linker_0, # of connection points: 2
#     Edge 54, Type (0, 1), BuildingBlock: MIFKUJ_clean_linker_0, # of connection points: 2
#     Edge 55, Type (0, 1), BuildingBlock: MIFKUJ_clean_linker_0, # of connection points: 2
#     Edge 56, Type (0, 1), BuildingBlock: MIFKUJ_clean_linker_0, # of connection points: 2
#     Edge 57, Type (0, 1), BuildingBlock: MIFKUJ_clean_linker_0, # of connection points: 2
#     Edge 58, Type (0, 1), BuildingBlock: MIFKUJ_clean_linker_0, # of connection points: 2
#     Edge 59, Type (0, 1), BuildingBlock: MIFKUJ_clean_linker_0, # of connection points: 2
#     Edge 60, Type (0, 1), BuildingBlock: MIFKUJ_clean_linker_0, # of connection points: 2
#     Edge 61, Type (0, 1), BuildingBlock: MIFKUJ_clean_linker_0, # of connection points: 2
#     Edge 62, Type (0, 1), BuildingBlock: MIFKUJ_clean_linker_0, # of connection points: 2
#     Edge 63, Type (0, 1), BuildingBlock: MIFKUJ_clean_linker_0, # of connection points: 2
#     Edge 64, Type (0, 1), BuildingBlock: MIFKUJ_clean_linker_0, # of connection points: 2
#     Edge 65, Type (0, 1), BuildingBlock: MIFKUJ_clean_linker_0, # of connection points: 2
#     Edge 66, Type (0, 1), BuildingBlock: MIFKUJ_clean_linker_0, # of connection points: 2
#     Edge 67, Type (0, 1), BuildingBlock: MIFKUJ_clean_linker_0, # of connection points: 2
# Relax obj value: 0.054
# Max RMSD: 0.164
# Mean RMSD: 0.130
data_MOF--net-soc--node1-ESEHIV_clean_sbu_0--node2-KUMJIN_clean_sbu_0--edge1-MIFKUJ_clean_linker_0
_symmetry_space_group_name_H-M    P1
_symmetry_Int_Tables_number       1
_symmetry_cell_setting            triclinic
loop_
_symmetry_equiv_pos_as_xyz
'x, y, z'
_cell_length_a     65.794165
_cell_length_b     62.484098
_cell_length_c     53.669261
_cell_angle_alpha  85.318423
_cell_angle_beta   84.213944
_cell_angle_gamma 76.65392
loop_
_atom_site_label
_atom_site_type_symbol
_atom_site_fract_x
_atom_site_fract_y
_atom_site_fract_z
_atom_type_partial_charge
Cu0 Cu 0.04187 0.02961 0.30669 0.0
N1 N 0.05207 0.04719 0.32681 0.0
N2 N 0.06957 0.07123 0.33782 0.0
C3 C 0.06703 0.05851 0.31967 0.0
C4 C 0.05559 0.06773 0.35707 0.0
C5 C 0.04478 0.05301 0.35018 0.0
O6 O 0.06588 0.01067 0.2878 0.0
C7 C 1.00228 0.05734 0.30063 0.0
O8 O 0.99933 0.04965 0.32389 0.0
H9 H 0.07532 0.05798 0.30119 0.0
H10 H 0.0321 0.04742 0.3612 0.0
N11 N 0.02883 0.00964 0.32616 0.0
N12 N 1.00851 0.98543 0.33577 0.0
C13 C 1.01511 0.99944 0.31792 0.0
C14 C 0.03135 1.00165 0.34995 0.0
C15 C 0.01876 0.9868 0.35599 0.0
C16 C 0.08149 1.00138 0.30031 0.0
O17 O 0.08112 0.00622 0.32373 0.0
H18 H 1.01036 1.00214 0.299 0.0
H19 H 0.0417 0.00616 0.362 0.0
O20 O 0.02002 0.05043 0.2883 0.0
H21 H 0.05317 0.07538 0.37483 0.0
H22 H 0.0172 0.97791 0.37398 0.0
Cu23 Cu 0.02785 0.03455 0.79492 0.0
N24 N 1.01169 0.01542 0.81053 0.0
N25 N 0.98973 0.99254 0.81425 0.0
C26 C 0.99953 0.00572 0.79854 0.0
C27 C 0.99615 0.99398 0.83708 0.0
C28 C 1.00969 0.0081 0.83472 0.0
O29 O 1.009 0.05863 0.7762 0.0
C30 C 0.06571 1.00346 0.79148 0.0
O31 O 0.06214 0.0052 0.81583 0.0
H32 H 0.99817 0.00816 0.77853 0.0
H33 H 0.01752 0.01269 0.84956 0.0
N34 N 0.03853 0.04926 0.81772 0.0
N35 N 0.05889 0.06983 0.83006 0.0
C36 C 0.05649 0.05623 0.81288 0.0
C37 C 0.02911 0.05884 0.83874 0.0
C38 C 0.04167 0.07161 0.8464 0.0
C39 C 0.99088 0.06638 0.78731 0.0
O40 O 0.98556 0.05705 0.80903 0.0
H41 H 0.06689 0.05259 0.79605 0.0
H42 H 1.01373 0.05762 0.84708 0.0
O43 O 0.05243 0.01532 0.77716 0.0
H44 H 0.99125 0.98567 0.85435 0.0
H45 H 0.03807 0.08197 0.86218 0.0
Cu46 Cu 0.2729 0.05686 0.08244 0.0
N47 N 0.24881 0.05237 0.07021 0.0
N48 N 0.22952 0.03573 0.04996 0.0
C49 C 0.24706 0.03329 0.0618 0.0
C50 C 0.21977 0.05715 0.05083 0.0
C51 C 0.23165 0.06739 0.06364 0.0
O52 O 0.28704 0.0282 0.09782 0.0
C53 C 0.27905 0.08908 0.04566 0.0
O54 O 0.26245 0.09953 0.05904 0.0
H55 H 0.25917 0.01827 0.06266 0.0
H56 H 0.2285 0.08476 0.06677 0.0
N57 N 0.26515 0.07712 0.10736 0.0
N58 N 0.26596 0.10265 0.1338 0.0
C59 C 0.2768 0.08973 0.1157 0.0
C60 C 0.24634 0.08231 0.12048 0.0
C61 C 0.2468 0.09799 0.13684 0.0
C62 C 0.27631 0.02032 0.11601 0.0
O63 O 0.25754 0.03192 0.12288 0.0
H64 H 0.29288 0.08937 0.10868 0.0
H65 H 0.23314 0.07526 0.1182 0.0
O66 O 0.28794 0.06959 0.0534 0.0
H67 H 0.20562 0.06493 0.04198 0.0
H68 H 0.23386 0.10572 0.14958 0.0
Cu69 Cu 0.05701 0.28496 0.07693 0.0
N70 N 0.07794 0.26728 0.0558 0.0
N71 N 0.10426 0.2593 0.02541 0.0
C72 C 0.08923 0.27527 0.03624 0.0
C73 C 0.10222 0.24047 0.03866 0.0
C74 C 0.08597 0.2454 0.05726 0.0
O75 O 0.07197 0.30167 0.09578 0.0
C76 C 0.02693 0.28763 0.04502 0.0
O77 O 0.03286 0.26645 0.05108 0.0
H78 H 0.08687 0.29264 0.03059 0.0
H79 H 0.0807 0.23389 0.07115 0.0
N80 N 0.04157 0.26978 0.1012 0.0
N81 N 1.01426 0.26383 0.12767 0.0
C82 C 0.02097 0.27688 0.10869 0.0
C83 C 0.04816 0.25158 0.11606 0.0
C84 C 0.03143 0.24789 0.13231 0.0
C85 C 0.08823 0.2902 0.10576 0.0
O86 O 0.09366 0.26895 0.10271 0.0
H87 H 1.01124 0.29179 0.10081 0.0
H88 H 0.0641 0.24191 0.11549 0.0
O89 O 0.03608 0.30083 0.05418 0.0
H90 H 0.11179 0.22424 0.03519 0.0
H91 H 0.03193 0.23446 0.14648 0.0
Cu92 Cu 0.80097 0.00662 0.98641 0.0
N93 N 0.81586 0.02278 0.96379 0.0
N94 N 0.82161 0.05237 0.9403 0.0
C95 C 0.80916 0.04453 0.95856 0.0
C96 C 0.8368 0.03471 0.93366 0.0
C97 C 0.83321 0.01643 0.94825 0.0
O98 O 0.78437 0.02777 0.00949 0.0
C99 C 0.79605 0.97314 0.95894 0.0
O100 O 0.81609 0.96697 0.96241 0.0
H101 H 0.79485 0.05424 0.96738 0.0
H102 H 0.84229 0.99968 0.94719 0.0
N103 N 0.81778 0.98548 1.00671 0.0
N104 N 0.82446 0.9607 0.03895 0.0
C105 C 0.80957 0.97433 0.02609 0.0
C106 C 0.83871 0.97869 1.00705 0.0
C107 C 0.84289 0.96325 0.02695 0.0
C108 C 0.79577 0.03494 0.02324 0.0
O109 O 0.81622 0.02789 0.02008 0.0
H110 H 0.79286 0.97631 0.03058 0.0
H111 H 0.85006 0.98476 0.99407 0.0
O112 O 0.78541 0.9911 0.96769 0.0
H113 H 0.84947 0.03492 0.91918 0.0
H114 H 0.85826 0.95502 0.0325 0.0
Cu115 Cu 0.01853 0.76302 0.01344 0.0
N116 N 1.00523 0.75066 0.99073 0.0
N117 N 0.98256 0.74814 0.96318 0.0
C118 C 0.98541 0.75766 0.98394 0.0
C119 C 1.00121 0.73464 0.95679 0.0
C120 C 1.01511 0.73629 0.97368 0.0
O121 O 0.99576 0.77916 0.03797 0.0
C122 C 0.05871 0.77615 0.99551 0.0
O123 O 0.06388 0.77124 0.01861 0.0
H124 H 0.97381 0.77059 0.99291 0.0
H125 H 0.03166 0.7287 0.97256 0.0
N126 N 0.03473 0.74114 0.03354 0.0
N127 N 0.05759 0.72893 0.06248 0.0
C128 C 0.04198 0.74546 0.05469 0.0
C129 C 0.04551 0.72077 0.02816 0.0
C130 C 0.0596 0.71317 0.04604 0.0
C131 C 0.98455 0.76737 0.05153 0.0
O132 O 0.98843 0.7462 0.04809 0.0
H133 H 0.03711 0.76133 0.06279 0.0
H134 H 0.04452 0.71274 0.01139 0.0
O135 O 0.03979 0.77643 0.99082 0.0
H136 H 1.00477 0.7249 0.94046 0.0
H137 H 0.07168 0.69812 0.04553 0.0
Cu138 Cu 0.52785 0.53251 0.81703 0.0
N139 N 0.53901 0.55034 0.83572 0.0
N140 N 0.5578 0.574 0.84411 0.0
C141 C 0.55246 0.5628 0.82628 0.0
C142 C 0.54721 0.56845 0.86561 0.0
C143 C 0.53551 0.55395 0.86034 0.0
O144 O 0.55169 0.51273 0.7985 0.0
C145 C 0.49136 0.56515 0.81263 0.0
O146 O 0.4921 0.56266 0.83706 0.0
H147 H 0.55844 0.56335 0.80675 0.0
H148 H 0.52501 0.54681 0.87349 0.0
N149 N 0.51459 0.51356 0.83779 0.0
N150 N 0.49497 0.48885 0.84835 0.0
C151 C 0.49994 0.50396 0.83075 0.0
C152 C 0.51922 0.50418 0.86058 0.0
C153 C 0.50704 0.48905 0.86723 0.0
C154 C 0.56768 0.50423 0.81079 0.0
O155 O 0.56762 0.50996 0.8338 0.0
H156 H 0.49393 0.50726 0.81246 0.0
H157 H 0.53122 0.50739 0.87117 0.0
O158 O 0.50579 0.55309 0.7987 0.0
H159 H 0.54761 0.57472 0.88373 0.0
H160 H 0.50744 0.47871 0.88443 0.0
Cu161 Cu 0.54215 0.53092 0.3026 0.0
N162 N 0.52417 0.51501 0.32106 0.0
N163 N 0.49985 0.49489 0.32802 0.0
C164 C 0.50984 0.50686 0.31095 0.0
C165 C 0.50827 0.49557 0.3498 0.0
C166 C 0.52323 0.50805 0.34546 0.0
O167 O 0.5242 0.55376 0.28175 0.0
C168 C 0.57624 0.49599 0.30343 0.0
O169 O 0.57021 0.49909 0.3272 0.0
H170 H 0.50728 0.50914 0.2912 0.0
H171 H 0.533 0.51139 0.35903 0.0
N172 N 0.55464 0.54663 0.32247 0.0
N173 N 0.57659 0.56711 0.33089 0.0
C174 C 0.57149 0.55472 0.31407 0.0
C175 C 0.54874 0.55412 0.3455 0.0
C176 C 0.56228 0.5668 0.35075 0.0
C177 C 0.50889 0.56603 0.29426 0.0
O178 O 0.50638 0.56216 0.31865 0.0
H179 H 0.57929 0.55227 0.29545 0.0
H180 H 0.53524 0.55116 0.35731 0.0
O181 O 0.56573 0.50882 0.28706 0.0
H182 H 0.50396 0.48761 0.36758 0.0
H183 H 0.56148 0.57529 0.36773 0.0
Cu184 Cu 0.78713 0.55589 0.57181 0.0
N185 N 0.77482 0.57226 0.54432 0.0
N186 N 0.77243 0.59019 0.50657 0.0
C187 C 0.78395 0.58419 0.52646 0.0
C188 C 0.75515 0.58201 0.51234 0.0
C189 C 0.75669 0.57094 0.53562 0.0
O190 O 0.79632 0.5743 0.59433 0.0
C191 C 0.81717 0.52856 0.53773 0.0
O192 O 0.82005 0.5463 0.52435 0.0
H193 H 0.79946 0.58701 0.52711 0.0
H194 H 0.7459 0.56156 0.54494 0.0
N195 N 0.76732 0.54298 0.59072 0.0
N196 N 0.75466 0.51619 0.61248 0.0
C197 C 0.77028 0.52121 0.59654 0.0
C198 C 0.74911 0.55221 0.60337 0.0
C199 C 0.74127 0.53565 0.61697 0.0
C200 C 0.80799 0.58797 0.58872 0.0
O201 O 0.8169 0.58934 0.56582 0.0
H202 H 0.78433 0.50939 0.59046 0.0
H203 H 0.74244 0.56973 0.60345 0.0
O204 O 0.80751 0.53028 0.55951 0.0
H205 H 0.7426 0.58334 0.50032 0.0
H206 H 0.72719 0.53783 0.62967 0.0
Cu207 Cu 0.54815 0.7923 0.56617 0.0
N208 N 0.56944 0.77727 0.54207 0.0
N209 N 0.59507 0.77259 0.50981 0.0
C210 C 0.58258 0.78688 0.52587 0.0
C211 C 0.58958 0.75321 0.51643 0.0
C212 C 0.57403 0.75609 0.53608 0.0
O213 O 0.56389 0.8043 0.58867 0.0
C214 C 0.52009 0.80097 0.53268 0.0
O215 O 0.52646 0.77942 0.53483 0.0
H216 H 0.58255 0.80424 0.52544 0.0
H217 H 0.56642 0.74356 0.545 0.0
N218 N 0.52982 0.77652 0.58702 0.0
N219 N 0.50076 0.77102 0.61128 0.0
C220 C 0.51237 0.78577 0.60185 0.0
C221 C 0.52918 0.7551 0.58747 0.0
C222 C 0.51147 0.75173 0.60213 0.0
C223 C 0.57622 0.78904 0.60074 0.0
O224 O 0.57578 0.76853 0.59755 0.0
H225 H 0.50772 0.80324 0.60468 0.0
H226 H 0.54034 0.74279 0.57715 0.0
O227 O 0.52859 0.81249 0.54529 0.0
H228 H 0.59634 0.73785 0.50774 0.0
H229 H 0.50671 0.73621 0.60554 0.0
Cu230 Cu 0.28881 0.51198 0.50377 0.0
N231 N 0.30475 0.52682 0.47995 0.0
N232 N 0.31155 0.55452 0.45333 0.0
C233 C 0.29747 0.54753 0.4703 0.0
C234 C 0.3284 0.5374 0.45221 0.0
C235 C 0.32421 0.5204 0.46869 0.0
O236 O 0.27319 0.53511 0.52469 0.0
C237 C 0.28306 0.48384 0.47083 0.0
O238 O 0.30358 0.47989 0.47054 0.0
H239 H 0.28193 0.55718 0.47545 0.0
H240 H 0.33458 0.5045 0.4721 0.0
N241 N 0.3041 0.4899 0.5252 0.0
N242 N 0.30975 0.46407 0.55698 0.0
C243 C 0.29562 0.47618 0.54175 0.0
C244 C 0.32436 0.48614 0.52997 0.0
C245 C 0.32786 0.47032 0.54959 0.0
C246 C 0.28587 0.54414 0.53413 0.0
O247 O 0.30606 0.53563 0.5304 0.0
H248 H 0.27916 0.47586 0.54338 0.0
H249 H 0.33561 0.49489 0.52053 0.0
O250 O 0.27208 0.49814 0.48523 0.0
H251 H 0.34284 0.53722 0.44053 0.0
H252 H 0.34252 0.46412 0.558 0.0
Cu253 Cu 0.51465 0.27271 0.51122 0.0
N254 N 0.5382 0.25769 0.49096 0.0
N255 N 0.56863 0.25173 0.46642 0.0
C256 C 0.55449 0.26622 0.48053 0.0
C257 C 0.56097 0.23334 0.46824 0.0
C258 C 0.54239 0.23699 0.4834 0.0
O259 O 0.52643 0.29138 0.531 0.0
C260 C 0.48795 0.27681 0.47228 0.0
O261 O 0.50005 0.25738 0.46808 0.0
H262 H 0.55574 0.28289 0.48291 0.0
H263 H 0.53249 0.2254 0.48826 0.0
N264 N 0.50231 0.25432 0.53503 0.0
N265 N 0.48143 0.24505 0.56803 0.0
C266 C 0.48504 0.26117 0.55085 0.0
C267 C 0.50971 0.23304 0.54234 0.0
C268 C 0.49696 0.22733 0.56266 0.0
C269 C 0.53897 0.2802 0.54648 0.0
O270 O 0.54228 0.25862 0.54748 0.0
H271 H 0.47588 0.27796 0.55053 0.0
H272 H 0.52391 0.22264 0.53423 0.0
O273 O 0.4919 0.2875 0.48989 0.0
H274 H 0.56836 0.21819 0.4594 0.0
H275 H 0.49917 0.21145 0.57297 0.0
Eu276 Eu 0.26405 0.28238 0.32424 0.0
C277 C 0.29503 0.31402 0.2156 0.0
C278 C 0.32428 0.28435 0.20355 0.0
C279 C 0.30369 0.30648 0.17159 0.0
C280 C 0.3113 0.29688 0.22219 0.0
C281 C 0.29125 0.31931 0.19019 0.0
C282 C 0.32017 0.28901 0.17826 0.0
C283 C 0.264 0.35036 0.20335 0.0
N284 N 0.28336 0.32606 0.23402 0.0
C285 C 0.26842 0.34449 0.22827 0.0
C286 C 0.27531 0.33758 0.18423 0.0
Eu287 Eu 0.29079 0.31454 0.27592 0.0
N288 N 0.31476 0.29279 0.2468 0.0
C289 C 0.33183 0.27731 0.25389 0.0
C290 C 0.34117 0.26775 0.21086 0.0
C291 C 0.34509 0.26436 0.23612 0.0
H292 H 0.25954 0.35436 0.24299 0.0
H293 H 0.3583 0.25175 0.24193 0.0
H294 H 0.32987 0.27945 0.1637 0.0
H295 H 0.25185 0.3647 0.19893 0.0
H296 H 0.33504 0.27443 0.27333 0.0
H297 H 0.19222 0.33771 0.36006 0.0
H298 H 0.35149 0.25778 0.19711 0.0
H299 H 0.29965 0.24593 0.35583 0.0
H300 H 0.21775 0.31862 0.32771 0.0
H301 H 0.30879 0.23658 0.39958 0.0
H302 H 0.30093 0.31017 0.15197 0.0
H303 H 0.19936 0.33139 0.40467 0.0
H304 H 0.22335 0.31248 0.43734 0.0
H305 H 0.27189 0.34217 0.16494 0.0
H306 H 0.25549 0.28586 0.448 0.0
N307 N 0.23963 0.30269 0.35367 0.0
C308 C 0.22124 0.31612 0.34709 0.0
C309 C 0.21092 0.32354 0.39053 0.0
C310 C 0.2296 0.30939 0.39723 0.0
C311 C 0.20673 0.32695 0.36536 0.0
C312 C 0.24379 0.29891 0.37811 0.0
H313 H 0.28747 0.25743 0.43407 0.0
N314 N 0.27404 0.27241 0.36547 0.0
C315 C 0.2956 0.24991 0.3955 0.0
C316 C 0.26167 0.28352 0.38418 0.0
C317 C 0.29036 0.25519 0.3708 0.0
C318 C 0.28354 0.26175 0.4149 0.0
C319 C 0.26606 0.27845 0.40945 0.0
O320 O 0.26206 0.24784 0.32842 0.0
O321 O 0.28215 0.28257 0.28712 0.0
O322 O 0.26283 0.30826 0.25861 0.0
O323 O 0.24182 0.29919 0.294 0.0
O324 O 0.29043 0.25459 0.30991 0.0
O325 O 0.2341 0.27324 0.32253 0.0
O326 O 0.29433 0.34856 0.27441 0.0
O327 O 0.27136 0.31473 0.31229 0.0
O328 O 0.2905 0.29238 0.34143 0.0
O329 O 0.31245 0.29573 0.30534 0.0
O330 O 0.26391 0.34247 0.28879 0.0
O331 O 0.32104 0.32178 0.28081 0.0
C332 C 0.29375 0.2635 0.28779 0.0
C333 C 0.22972 0.2409 0.34641 0.0
C334 C 0.20443 0.21774 0.35743 0.0
C335 C 0.21625 0.22842 0.33917 0.0
C336 C 0.20641 0.21968 0.38297 0.0
C337 C 0.23144 0.24248 0.37198 0.0
C338 C 0.21984 0.23195 0.39012 0.0
C339 C 0.24484 0.3046 0.26954 0.0
C340 C 0.24179 0.25226 0.32722 0.0
C341 C 0.25241 0.28952 0.42847 0.0
C342 C 0.23414 0.30479 0.42239 0.0
C343 C 0.25921 0.33347 0.31042 0.0
C344 C 0.32794 0.35463 0.26071 0.0
C345 C 0.34083 0.36601 0.27113 0.0
C346 C 0.35387 0.37744 0.25554 0.0
C347 C 0.35386 0.37712 0.22935 0.0
C348 C 0.32824 0.35445 0.23457 0.0
C349 C 0.34116 0.36566 0.219 0.0
C350 C 0.30905 0.29375 0.33013 0.0
C351 C 0.31433 0.34303 0.27737 0.0
H352 H 0.21482 0.22726 0.3194 0.0
H353 H 0.1978 0.21141 0.39746 0.0
H354 H 0.24181 0.25173 0.37796 0.0
H355 H 0.22133 0.23322 0.40982 0.0
H356 H 0.34046 0.36622 0.29135 0.0
H357 H 0.36389 0.38548 0.21682 0.0
H358 H 0.31851 0.34568 0.22624 0.0
H359 H 0.34136 0.36545 0.19883 0.0
Eu360 Eu 0.80014 0.28635 0.31772 0.0
C361 C 0.72695 0.25882 0.29 0.0
C362 C 0.72978 0.22456 0.31558 0.0
C363 C 0.69543 0.24736 0.30857 0.0
C364 C 0.73932 0.23987 0.3006 0.0
C365 C 0.70483 0.2625 0.29361 0.0
C366 C 0.70788 0.22848 0.31957 0.0
C367 C 0.70249 0.29526 0.26616 0.0
N368 N 0.73638 0.27355 0.27601 0.0
C369 C 0.72434 0.29083 0.26281 0.0
C370 C 0.69267 0.28123 0.28195 0.0
Eu371 Eu 0.77392 0.26426 0.27115 0.0
N372 N 0.76056 0.23671 0.29709 0.0
C373 C 0.77298 0.21823 0.30772 0.0
C374 C 0.74252 0.20585 0.32651 0.0
C375 C 0.76419 0.20267 0.32251 0.0
H376 H 0.73138 0.30096 0.24883 0.0
H377 H 0.77422 0.18824 0.33094 0.0
H378 H 0.70039 0.21699 0.33118 0.0
H379 H 0.69323 0.30924 0.25605 0.0
H380 H 0.78972 0.21513 0.30536 0.0
H381 H 0.8204 0.35501 0.25836 0.0
H382 H 0.73578 0.19381 0.33816 0.0
H383 H 0.82977 0.24881 0.35571 0.0
H384 H 0.79724 0.33125 0.27745 0.0
H385 H 0.86641 0.23867 0.36703 0.0
H386 H 0.67853 0.2501 0.31172 0.0
H387 H 0.85763 0.34664 0.26746 0.0
H388 H 0.88726 0.32199 0.28857 0.0
H389 H 0.67571 0.28462 0.28436 0.0
H390 H 0.89989 0.29014 0.31741 0.0
N391 N 0.82117 0.30925 0.29667 0.0
C392 C 0.81345 0.32728 0.28145 0.0
C393 C 0.84757 0.33597 0.27557 0.0
C394 C 0.85537 0.3176 0.29133 0.0
C395 C 0.82655 0.3408 0.27054 0.0
C396 C 0.84156 0.30447 0.30203 0.0
H397 H 0.89232 0.25903 0.34665 0.0
N398 N 0.83515 0.27406 0.3285 0.0
C399 C 0.86177 0.25189 0.35303 0.0
C400 C 0.84876 0.28635 0.31822 0.0
C401 C 0.84109 0.25763 0.34656 0.0
C402 C 0.87629 0.2635 0.34155 0.0
C403 C 0.86982 0.28115 0.3242 0.0
O404 O 0.79477 0.28725 0.35837 0.0
O405 O 0.77104 0.27588 0.31032 0.0
O406 O 0.7602 0.30117 0.27006 0.0
O407 O 0.77275 0.31336 0.30433 0.0
O408 O 0.78461 0.26303 0.34329 0.0
O409 O 0.79618 0.31744 0.33607 0.0
O410 O 0.76476 0.26647 0.23286 0.0
O411 O 0.80168 0.27688 0.2782 0.0
O412 O 0.82098 0.25284 0.30866 0.0
O413 O 0.80485 0.23888 0.27859 0.0
O414 O 0.79206 0.28372 0.24274 0.0
O415 O 0.78007 0.23489 0.24926 0.0
C416 C 0.76844 0.26483 0.33079 0.0
C417 C 0.8088 0.31347 0.37677 0.0
C418 C 0.81954 0.34048 0.40015 0.0
C419 C 0.80658 0.33544 0.38308 0.0
C420 C 0.83481 0.3235 0.41053 0.0
C421 C 0.82349 0.29671 0.38858 0.0
C422 C 0.83663 0.30176 0.40491 0.0
C423 C 0.76016 0.31633 0.28588 0.0
C424 C 0.79539 0.30796 0.35867 0.0
C425 C 0.88364 0.29397 0.31315 0.0
C426 C 0.87644 0.31214 0.29678 0.0
C427 C 0.80616 0.28579 0.25691 0.0
C428 C 0.75523 0.2349 0.21998 0.0
C429 C 0.76195 0.21857 0.20242 0.0
C430 C 0.74719 0.2093 0.19217 0.0
C431 C 0.72583 0.21611 0.20029 0.0
C432 C 0.73372 0.24158 0.22721 0.0
C433 C 0.7192 0.23213 0.21766 0.0
C434 C 0.82027 0.23733 0.29349 0.0
C435 C 0.77051 0.24531 0.23016 0.0
H436 H 0.79483 0.34849 0.3749 0.0
H437 H 0.84486 0.32699 0.42376 0.0
H438 H 0.82467 0.2796 0.38565 0.0
H439 H 0.84802 0.28869 0.41362 0.0
H440 H 0.77847 0.21349 0.19635 0.0
H441 H 0.71418 0.20896 0.19325 0.0
H442 H 0.72793 0.25428 0.24 0.0
H443 H 0.70269 0.2374 0.22362 0.0
Eu444 Eu 0.78018 0.76506 0.26396 0.0
C445 C 0.79652 0.80135 0.36246 0.0
C446 C 0.76379 0.82672 0.3746 0.0
C447 C 0.78696 0.80883 0.40638 0.0
C448 C 0.77803 0.81553 0.35596 0.0
C449 C 0.8013 0.79808 0.38771 0.0
C450 C 0.76825 0.82311 0.39985 0.0
C451 C 0.83469 0.77483 0.37403 0.0
N452 N 0.81009 0.79121 0.34402 0.0
C453 C 0.82932 0.77871 0.34925 0.0
C454 C 0.82054 0.78441 0.39338 0.0
Eu455 Eu 0.80007 0.79932 0.30268 0.0
N456 N 0.77404 0.81858 0.3314 0.0
C457 C 0.75666 0.83342 0.32406 0.0
C458 C 0.74556 0.84136 0.36728 0.0
C459 C 0.74206 0.84482 0.34188 0.0
H460 H 0.84029 0.7714 0.33425 0.0
H461 H 0.72813 0.85628 0.33602 0.0
H462 H 0.75744 0.83147 0.41443 0.0
H463 H 0.84974 0.76455 0.37818 0.0
H464 H 0.75383 0.83628 0.30449 0.0
H465 H 0.85092 0.71256 0.22093 0.0
H466 H 0.73421 0.85022 0.38104 0.0
H467 H 0.73598 0.79055 0.23772 0.0
H468 H 0.82652 0.72882 0.25561 0.0
H469 H 0.72336 0.79947 0.19552 0.0
H470 H 0.79032 0.80643 0.4259 0.0
H471 H 0.8424 0.72244 0.17694 0.0
H472 H 0.81688 0.74319 0.14687 0.0
H473 H 0.82478 0.78147 0.41255 0.0
H474 H 0.78209 0.76667 0.14 0.0
N475 N 0.80447 0.74832 0.23176 0.0
C476 C 0.82256 0.73339 0.23659 0.0
C477 C 0.83167 0.72981 0.19216 0.0
C478 C 0.81269 0.74439 0.18736 0.0
C479 C 0.8365 0.72412 0.21691 0.0
C480 C 0.79914 0.75334 0.20785 0.0
H481 H 0.74709 0.78754 0.158 0.0
N482 N 0.76666 0.77406 0.22423 0.0
C483 C 0.73925 0.79029 0.19762 0.0
C484 C 0.77961 0.76656 0.20395 0.0
C485 C 0.74645 0.7852 0.22151 0.0
C486 C 0.75271 0.78357 0.17648 0.0
C487 C 0.77307 0.77128 0.17949 0.0
O488 O 0.75229 0.7513 0.27003 0.0
O489 O 0.77397 0.78183 0.30061 0.0
O490 O 0.80014 0.76665 0.32441 0.0
O491 O 0.80323 0.74481 0.29079 0.0
O492 O 0.74876 0.78489 0.28005 0.0
O493 O 0.78305 0.7294 0.26813 0.0
O494 O 0.82874 0.81135 0.30325 0.0
O495 O 0.80611 0.78243 0.26663 0.0
O496 O 0.78017 0.7968 0.24084 0.0
O497 O 0.78114 0.82028 0.27207 0.0
O498 O 0.83179 0.78005 0.286 0.0
O499 O 0.79931 0.83442 0.29689 0.0
C500 C 0.75419 0.78919 0.30117 0.0
C501 C 0.75503 0.71643 0.25474 0.0
C502 C 0.73217 0.69106 0.25185 0.0
C503 C 0.74052 0.70448 0.26604 0.0
C504 C 0.73865 0.68989 0.22607 0.0
C505 C 0.76136 0.71486 0.2291 0.0
C506 C 0.75317 0.70166 0.21487 0.0
C507 C 0.80443 0.74711 0.31486 0.0
C508 C 0.76285 0.73093 0.26983 0.0
C509 C 0.7868 0.76312 0.15895 0.0
C510 C 0.8066 0.74974 0.16286 0.0
C511 C 0.82587 0.77539 0.26528 0.0
C512 C 0.82364 0.84671 0.3188 0.0
C513 C 0.84283 0.85331 0.31567 0.0
C514 C 0.84775 0.86659 0.33313 0.0
C515 C 0.83339 0.87304 0.35381 0.0
C516 C 0.80921 0.85408 0.33911 0.0
C517 C 0.81418 0.86692 0.35665 0.0
C518 C 0.77911 0.81661 0.24851 0.0
C519 C 0.81898 0.83204 0.30099 0.0
H520 H 0.73587 0.70553 0.28592 0.0
H521 H 0.73229 0.68011 0.21442 0.0
H522 H 0.77253 0.72387 0.22008 0.0
H523 H 0.758 0.70064 0.19503 0.0
H524 H 0.85394 0.84806 0.29981 0.0
H525 H 0.83681 0.88335 0.3674 0.0
H526 H 0.79401 0.85014 0.34139 0.0
H527 H 0.803 0.87235 0.37234 0.0
Eu528 Eu 0.28705 0.77119 0.25604 0.0
C529 C 0.30901 0.85114 0.29526 0.0
C530 C 0.33909 0.85391 0.2661 0.0
C531 C 0.31684 0.88699 0.28317 0.0
C532 C 0.32634 0.84104 0.28004 0.0
C533 C 0.30453 0.87415 0.29756 0.0
C534 C 0.33403 0.8769 0.26741 0.0
C535 C 0.27704 0.87003 0.32971 0.0
N536 N 0.29695 0.83849 0.30847 0.0
C537 C 0.28185 0.84738 0.32651 0.0
C538 C 0.28813 0.88355 0.31478 0.0
Eu539 Eu 0.30673 0.80017 0.30262 0.0
N540 N 0.33077 0.81875 0.27884 0.0
C541 C 0.34824 0.80835 0.26476 0.0
C542 C 0.35665 0.84332 0.25128 0.0
C543 C 0.36132 0.82044 0.25077 0.0
H544 H 0.27301 0.83698 0.33786 0.0
H545 H 0.3749 0.81209 0.23938 0.0
H546 H 0.34351 0.88702 0.2566 0.0
H547 H 0.26467 0.87703 0.34354 0.0
H548 H 0.35202 0.79079 0.26341 0.0
H549 H 0.22454 0.7449 0.31741 0.0
H550 H 0.36676 0.85264 0.24026 0.0
H551 H 0.32283 0.74229 0.21492 0.0
H552 H 0.24383 0.7715 0.29622 0.0
H553 H 0.33528 0.70371 0.203 0.0
H554 H 0.31341 0.90471 0.2844 0.0
H555 H 0.23664 0.70525 0.31013 0.0
H556 H 0.26201 0.67521 0.2877 0.0
H557 H 0.28428 0.90112 0.31716 0.0
H558 H 0.29216 0.66399 0.2569 0.0
N559 N 0.26699 0.74722 0.27716 0.0
C560 C 0.24928 0.75431 0.2926 0.0
C561 C 0.24518 0.71688 0.30062 0.0
C562 C 0.26279 0.70982 0.28395 0.0
C563 C 0.23829 0.73925 0.30476 0.0
C564 C 0.27345 0.7256 0.27216 0.0
H565 H 0.31943 0.67445 0.22515 0.0
N566 N 0.3006 0.7347 0.24387 0.0
C567 C 0.32291 0.70777 0.21786 0.0
C568 C 0.29071 0.71917 0.25509 0.0
C569 C 0.31582 0.72954 0.22459 0.0
C570 C 0.31389 0.69133 0.23038 0.0
C571 C 0.29739 0.69695 0.24898 0.0
O572 O 0.28579 0.77715 0.21564 0.0
O573 O 0.29703 0.80149 0.26378 0.0
O574 O 0.27428 0.82057 0.29474 0.0
O575 O 0.25976 0.79827 0.27193 0.0
O576 O 0.30845 0.78839 0.22971 0.0
O577 O 0.25753 0.77429 0.2389 0.0
O578 O 0.30409 0.7988 0.34342 0.0
O579 O 0.29615 0.77019 0.2951 0.0
O580 O 0.31929 0.75048 0.26381 0.0
O581 O 0.33297 0.77028 0.29075 0.0
O582 O 0.28501 0.78327 0.329 0.0
O583 O 0.33455 0.79736 0.32322 0.0
C584 C 0.30741 0.80478 0.24333 0.0
C585 C 0.26221 0.75991 0.19846 0.0
C586 C 0.23751 0.74361 0.17947 0.0
C587 C 0.2415 0.75844 0.19581 0.0
C588 C 0.25444 0.73014 0.16603 0.0
C589 C 0.27878 0.74684 0.18396 0.0
C590 C 0.2749 0.73186 0.1682 0.0
C591 C 0.25838 0.81642 0.284 0.0
C592 C 0.26644 0.77515 0.21606 0.0
C593 C 0.28712 0.68116 0.26116 0.0
C594 C 0.26991 0.68756 0.27865 0.0
C595 C 0.28579 0.76684 0.31554 0.0
C596 C 0.32746 0.81573 0.36155 0.0
C597 C 0.34805 0.81618 0.36628 0.0
C598 C 0.35162 0.8318 0.38192 0.0
C599 C 0.33447 0.8472 0.39236 0.0
C600 C 0.31057 0.83056 0.37351 0.0
C601 C 0.3141 0.84644 0.38829 0.0
C602 C 0.33458 0.75319 0.27673 0.0
C603 C 0.32362 0.79941 0.34498 0.0
H604 H 0.22854 0.76878 0.2064 0.0
H605 H 0.2518 0.71876 0.15316 0.0
H606 H 0.29479 0.74822 0.18458 0.0
H607 H 0.28781 0.72177 0.15733 0.0
H608 H 0.36122 0.80431 0.35805 0.0
H609 H 0.33679 0.85922 0.40462 0.0
H610 H 0.29454 0.82984 0.37175 0.0
H611 H 0.30095 0.85792 0.39708 0.0
Eu612 Eu 0.28455 0.79399 0.81744 0.0
C613 C 0.21607 0.75837 0.78842 0.0
C614 C 0.21902 0.72556 0.81639 0.0
C615 C 0.18487 0.74492 0.80412 0.0
C616 C 0.22854 0.74093 0.80138 0.0
C617 C 0.19411 0.76032 0.78952 0.0
C618 C 0.19727 0.72763 0.81758 0.0
C619 C 0.19158 0.79257 0.76128 0.0
N620 N 0.22515 0.77364 0.77511 0.0
C621 C 0.21322 0.79012 0.76083 0.0
C622 C 0.18194 0.77771 0.77586 0.0
Eu623 Eu 0.26239 0.76783 0.77343 0.0
N624 N 0.24964 0.73952 0.80037 0.0
C625 C 0.26151 0.72329 0.81517 0.0
C626 C 0.23146 0.70873 0.8304 0.0
C627 C 0.25274 0.70773 0.82992 0.0
H628 H 0.22017 0.80134 0.74833 0.0
H629 H 0.26246 0.69513 0.84134 0.0
H630 H 0.18986 0.716 0.82904 0.0
H631 H 0.1824 0.80579 0.75006 0.0
H632 H 0.27769 0.72206 0.81714 0.0
H633 H 0.29592 0.86373 0.75356 0.0
H634 H 0.22471 0.69675 0.84213 0.0
H635 H 0.31788 0.76266 0.85681 0.0
H636 H 0.2763 0.83804 0.77589 0.0
H637 H 0.35477 0.75733 0.86609 0.0
H638 H 0.16807 0.74632 0.80523 0.0
H639 H 0.33382 0.8585 0.75792 0.0
H640 H 0.36586 0.83736 0.77772 0.0
H641 H 0.16513 0.77957 0.77612 0.0
H642 H 0.38183 0.80849 0.80819 0.0
N643 N 0.30265 0.81799 0.79278 0.0
C644 C 0.29275 0.83535 0.77802 0.0
C645 C 0.32524 0.84708 0.76783 0.0
C646 C 0.33522 0.82962 0.78346 0.0
C647 C 0.30386 0.8501 0.76534 0.0
C648 C 0.32333 0.81522 0.79606 0.0
H649 H 0.37775 0.77888 0.84146 0.0
N650 N 0.32037 0.78588 0.82592 0.0
C651 C 0.34878 0.76883 0.85094 0.0
C652 C 0.33246 0.79864 0.81297 0.0
C653 C 0.32794 0.77186 0.84556 0.0
C654 C 0.36172 0.78095 0.83689 0.0
C655 C 0.35357 0.79632 0.81793 0.0
O656 O 0.28632 0.79681 0.85717 0.0
O657 O 0.25597 0.78189 0.81118 0.0
O658 O 0.24848 0.80511 0.76946 0.0
O659 O 0.25463 0.81822 0.80646 0.0
O660 O 0.26922 0.77065 0.8442 0.0
O661 O 0.27478 0.82619 0.83396 0.0
O662 O 0.25575 0.77955 0.73528 0.0
O663 O 0.28621 0.78864 0.77614 0.0
O664 O 0.30585 0.75965 0.81292 0.0
O665 O 0.29105 0.74159 0.7853 0.0
O666 O 0.29498 0.76197 0.75352 0.0
O667 O 0.25968 0.74471 0.74603 0.0
C668 C 0.25295 0.77172 0.83212 0.0
C669 C 0.26036 0.82451 0.87627 0.0
C670 C 0.24177 0.85177 0.90561 0.0
C671 C 0.2565 0.84576 0.88501 0.0
C672 C 0.23087 0.83615 0.91708 0.0
C673 C 0.24874 0.80951 0.88756 0.0
C674 C 0.23401 0.81538 0.90775 0.0
C675 C 0.24428 0.82033 0.78617 0.0
C676 C 0.27753 0.81772 0.85672 0.0
C677 C 0.3656 0.81008 0.80469 0.0
C678 C 0.35648 0.82659 0.7874 0.0
C679 C 0.30108 0.77839 0.76098 0.0
C680 C 0.27011 0.75472 0.70389 0.0
C681 C 0.26704 0.73755 0.69052 0.0
C682 C 0.27803 0.73287 0.66699 0.0
C683 C 0.29233 0.74569 0.65715 0.0
C684 C 0.28466 0.76712 0.69388 0.0
C685 C 0.29569 0.76256 0.67063 0.0
C686 C 0.30585 0.74223 0.80034 0.0
C687 C 0.25736 0.75992 0.72769 0.0
H688 H 0.26525 0.85739 0.87597 0.0
H689 H 0.22028 0.83974 0.93373 0.0
H690 H 0.25145 0.79301 0.88138 0.0
H691 H 0.22543 0.80357 0.91665 0.0
H692 H 0.25615 0.72775 0.69866 0.0
H693 H 0.30081 0.74286 0.63892 0.0
H694 H 0.28739 0.78044 0.70386 0.0
H695 H 0.30676 0.77227 0.66292 0.0
Eu696 Eu 0.2775 0.2526 0.77615 0.0
C697 C 0.29164 0.2836 0.87574 0.0
C698 C 0.25853 0.30944 0.88472 0.0
C699 C 0.27699 0.28821 0.91891 0.0
C700 C 0.2745 0.29888 0.86737 0.0
C701 C 0.29341 0.27865 0.90164 0.0
C702 C 0.25956 0.30354 0.91046 0.0
C703 C 0.32839 0.25698 0.89156 0.0
N704 N 0.30729 0.27477 0.85859 0.0
C705 C 0.32592 0.26243 0.86607 0.0
C706 C 0.31193 0.26484 0.90941 0.0
Eu707 Eu 0.30123 0.28379 0.81585 0.0
N708 N 0.27408 0.3044 0.84239 0.0
C709 C 0.25896 0.32141 0.83363 0.0
C710 C 0.24232 0.32606 0.87571 0.0
C711 C 0.24274 0.33232 0.85011 0.0
H712 H 0.33854 0.25612 0.85221 0.0
H713 H 0.23049 0.34542 0.84302 0.0
H714 H 0.24727 0.31123 0.92404 0.0
H715 H 0.34292 0.24664 0.89742 0.0
H716 H 0.259 0.32617 0.81385 0.0
H717 H 0.34276 0.19043 0.7373 0.0
H718 H 0.22972 0.33452 0.88842 0.0
H719 H 0.23629 0.28312 0.74808 0.0
H720 H 0.32019 0.21131 0.77063 0.0
H721 H 0.22489 0.29236 0.70524 0.0
H722 H 0.2779 0.28436 0.93888 0.0
H723 H 0.33535 0.19958 0.69282 0.0
H724 H 0.31295 0.22289 0.66127 0.0
H725 H 0.31389 0.26062 0.92915 0.0
H726 H 0.28097 0.25076 0.65252 0.0
N727 N 0.30078 0.2327 0.74536 0.0
C728 C 0.317 0.21568 0.75132 0.0
C729 C 0.32574 0.20914 0.70739 0.0
C730 C 0.30872 0.22617 0.70147 0.0
C731 C 0.32985 0.20381 0.73244 0.0
C732 C 0.2962 0.23767 0.72116 0.0
H733 H 0.24786 0.27644 0.66881 0.0
N734 N 0.26565 0.2628 0.73583 0.0
C735 C 0.23993 0.28142 0.70806 0.0
C736 C 0.27811 0.25321 0.71623 0.0
C737 C 0.24643 0.27616 0.73226 0.0
C738 C 0.25298 0.27245 0.68754 0.0
C739 C 0.27217 0.25787 0.69149 0.0
O740 O 0.24689 0.24406 0.78115 0.0
O741 O 0.27382 0.2694 0.81183 0.0
O742 O 0.29952 0.25143 0.83699 0.0
O743 O 0.29649 0.2292 0.80534 0.0
O744 O 0.24772 0.27541 0.79228 0.0
O745 O 0.27519 0.21815 0.78073 0.0
O746 O 0.33169 0.29161 0.81819 0.0
O747 O 0.30538 0.26625 0.78056 0.0
O748 O 0.28063 0.28399 0.75302 0.0
O749 O 0.28621 0.30639 0.78334 0.0
O750 O 0.33145 0.26124 0.80017 0.0
O751 O 0.30457 0.31788 0.81145 0.0
C752 C 0.25457 0.27858 0.81303 0.0
C753 C 0.24514 0.21041 0.76576 0.0
C754 C 0.21801 0.19055 0.7609 0.0
C755 C 0.22805 0.20164 0.77598 0.0
C756 C 0.22535 0.18832 0.7355 0.0
C757 C 0.25237 0.20774 0.74047 0.0
C758 C 0.24247 0.19679 0.72543 0.0
C759 C 0.29963 0.23198 0.82885 0.0
C760 C 0.25474 0.2229 0.78148 0.0
C761 C 0.28518 0.24728 0.67167 0.0
C762 C 0.30339 0.23142 0.67666 0.0
C763 C 0.32461 0.25689 0.77987 0.0
C764 C 0.3301 0.3257 0.8351 0.0
C765 C 0.34706 0.33597 0.82965 0.0
C766 C 0.3531 0.34752 0.84808 0.0
C767 C 0.34203 0.34864 0.87192 0.0
C768 C 0.31897 0.32755 0.85881 0.0
C769 C 0.32499 0.3388 0.87715 0.0
C770 C 0.28247 0.30326 0.76013 0.0
C771 C 0.32424 0.31287 0.81622 0.0
H772 H 0.22239 0.20375 0.79551 0.0
H773 H 0.21804 0.17969 0.72352 0.0
H774 H 0.26561 0.2141 0.73234 0.0
H775 H 0.24812 0.19484 0.70591 0.0
H776 H 0.35562 0.33484 0.81127 0.0
H777 H 0.34628 0.35758 0.88632 0.0
H778 H 0.30556 0.32045 0.86316 0.0
H779 H 0.31633 0.34002 0.89543 0.0
Eu780 Eu 0.77253 0.2772 0.76466 0.0
C781 C 0.79142 0.35552 0.81653 0.0
C782 C 0.81913 0.36808 0.79028 0.0
C783 C 0.79532 0.39314 0.81809 0.0
C784 C 0.80826 0.35146 0.79839 0.0
C785 C 0.78488 0.37638 0.82666 0.0
C786 C 0.81255 0.38891 0.8002 0.0
C787 C 0.75996 0.36181 0.85544 0.0
N788 N 0.78226 0.33871 0.82539 0.0
C789 C 0.76732 0.34125 0.84531 0.0
C790 C 0.76866 0.3795 0.84595 0.0
Eu791 Eu 0.79746 0.30419 0.80884 0.0
N792 N 0.81463 0.33102 0.78949 0.0
C793 C 0.83178 0.32599 0.77272 0.0
C794 C 0.83676 0.36301 0.77311 0.0
C795 C 0.84298 0.34197 0.76407 0.0
H796 H 0.76094 0.32741 0.853 0.0
H797 H 0.85666 0.33792 0.75087 0.0
H798 H 0.82095 0.40173 0.7946 0.0
H799 H 0.74781 0.36392 0.87078 0.0
H800 H 0.83702 0.30956 0.76622 0.0
H801 H 0.71777 0.24304 0.83071 0.0
H802 H 0.84603 0.37501 0.76722 0.0
H803 H 0.80417 0.25333 0.71689 0.0
H804 H 0.73334 0.27233 0.80857 0.0
H805 H 0.81779 0.21608 0.70129 0.0
H806 H 0.79062 0.40923 0.82576 0.0
H807 H 0.73152 0.20423 0.82027 0.0
H808 H 0.75641 0.17684 0.79344 0.0
H809 H 0.76319 0.39531 0.85415 0.0
H810 H 0.78383 0.16943 0.75848 0.0
N811 N 0.75596 0.25034 0.78607 0.0
C812 C 0.73942 0.2555 0.8037 0.0
C813 C 0.73837 0.21704 0.8104 0.0
C814 C 0.75466 0.212 0.79145 0.0
C815 C 0.73056 0.23893 0.81633 0.0
C816 C 0.76311 0.22928 0.7793 0.0
H817 H 0.80669 0.18396 0.72387 0.0
N818 N 0.78601 0.2422 0.74818 0.0
C819 C 0.80699 0.21832 0.71794 0.0
C820 C 0.77873 0.22504 0.75991 0.0
C821 C 0.79921 0.23936 0.72672 0.0
C822 C 0.80067 0.20025 0.73074 0.0
C823 C 0.78608 0.20352 0.75173 0.0
O824 O 0.76464 0.28369 0.72565 0.0
O825 O 0.78621 0.30563 0.77074 0.0
O826 O 0.76596 0.32671 0.80072 0.0
O827 O 0.7479 0.30248 0.78709 0.0
O828 O 0.79266 0.29365 0.73571 0.0
O829 O 0.7398 0.28609 0.75547 0.0
O830 O 0.80428 0.29777 0.84818 0.0
O831 O 0.78464 0.2755 0.80234 0.0
O832 O 0.80498 0.2559 0.76905 0.0
O833 O 0.82272 0.27828 0.78736 0.0
O834 O 0.77799 0.28674 0.83769 0.0
O835 O 0.8298 0.29805 0.81956 0.0
C836 C 0.79518 0.30879 0.74932 0.0
C837 C 0.73317 0.27434 0.71682 0.0
C838 C 0.70353 0.27303 0.69304 0.0
C839 C 0.71458 0.28514 0.70576 0.0
C840 C 0.71147 0.25026 0.69129 0.0
C841 C 0.74067 0.25162 0.71449 0.0
C842 C 0.72993 0.2397 0.70185 0.0
C843 C 0.74846 0.32202 0.79475 0.0
C844 C 0.74446 0.2865 0.73125 0.0
C845 C 0.77822 0.18613 0.7643 0.0
C846 C 0.76257 0.19035 0.78415 0.0
C847 C 0.7763 0.27141 0.82384 0.0
C848 C 0.83319 0.31108 0.85914 0.0
C849 C 0.85359 0.30387 0.86744 0.0
C850 C 0.8618 0.31771 0.88149 0.0
C851 C 0.84954 0.33862 0.88691 0.0
C852 C 0.82118 0.33175 0.86591 0.0
C853 C 0.82935 0.34548 0.87931 0.0
C854 C 0.82225 0.25992 0.77655 0.0
C855 C 0.82429 0.2973 0.84363 0.0
H856 H 0.70856 0.30268 0.70742 0.0
H857 H 0.70346 0.2406 0.68147 0.0
H858 H 0.75487 0.24299 0.72241 0.0
H859 H 0.73593 0.22217 0.70025 0.0
H860 H 0.86296 0.28775 0.86301 0.0
H861 H 0.85541 0.34945 0.89774 0.0
H862 H 0.80531 0.33732 0.8612 0.0
H863 H 0.81986 0.36143 0.88412 0.0
Eu864 Eu 0.76283 0.77365 0.80076 0.0
C865 C 0.79732 0.7975 0.69362 0.0
C866 C 0.82512 0.7657 0.68394 0.0
C867 C 0.80527 0.7866 0.65063 0.0
C868 C 0.8128 0.78 0.70147 0.0
C869 C 0.79365 0.80131 0.66804 0.0
C870 C 0.82096 0.7688 0.65857 0.0
C871 C 0.76846 0.83479 0.67855 0.0
N872 N 0.78647 0.81141 0.71089 0.0
C873 C 0.77272 0.83034 0.70369 0.0
C874 C 0.77878 0.82007 0.66067 0.0
Eu875 Eu 0.79334 0.80195 0.75326 0.0
N876 N 0.81645 0.77756 0.72607 0.0
C877 C 0.83325 0.76221 0.7341 0.0
C878 C 0.84157 0.74907 0.69235 0.0
C879 C 0.84586 0.74755 0.71747 0.0
H880 H 0.76457 0.8416 0.71757 0.0
H881 H 0.85879 0.73502 0.72408 0.0
H882 H 0.83011 0.75786 0.64487 0.0
H883 H 0.75719 0.84953 0.67299 0.0
H884 H 0.83662 0.76073 0.7535 0.0
H885 H 0.70057 0.84155 0.83619 0.0
H886 H 0.85135 0.73768 0.67951 0.0
H887 H 0.79052 0.72961 0.83348 0.0
H888 H 0.7211 0.8179 0.80408 0.0
H889 H 0.79707 0.71802 0.87741 0.0
H890 H 0.80255 0.78911 0.63091 0.0
H891 H 0.70821 0.834 0.88063 0.0
H892 H 0.72886 0.81033 0.91311 0.0
H893 H 0.7755 0.82358 0.64119 0.0
H894 H 0.75495 0.77684 0.92434 0.0
N895 N 0.74114 0.79746 0.82967 0.0
C896 C 0.72487 0.81433 0.82325 0.0
C897 C 0.71751 0.82368 0.86649 0.0
C898 C 0.73337 0.80566 0.8732 0.0
C899 C 0.71309 0.82788 0.84146 0.0
C900 C 0.74495 0.79245 0.85419 0.0
H901 H 0.78004 0.74224 0.91129 0.0
N902 N 0.77006 0.76033 0.84218 0.0
C903 C 0.78662 0.73367 0.87294 0.0
C904 C 0.75974 0.77344 0.8606 0.0
C905 C 0.78276 0.74026 0.84803 0.0
C906 C 0.77702 0.74742 0.89199 0.0
C907 C 0.76317 0.7674 0.88603 0.0
O908 O 0.75021 0.75117 0.78062 0.0
O909 O 0.78268 0.77108 0.76476 0.0
O910 O 0.76414 0.79753 0.73681 0.0
O911 O 0.74188 0.796 0.77318 0.0
O912 O 0.78876 0.74415 0.78991 0.0
O913 O 0.73689 0.75932 0.81774 0.0
O914 O 0.79887 0.83525 0.74782 0.0
O915 O 0.77436 0.80414 0.78994 0.0
O916 O 0.79226 0.77477 0.8185 0.0
O917 O 0.81404 0.78429 0.7842 0.0
O918 O 0.76911 0.83206 0.76646 0.0
O919 O 0.8243 0.80778 0.75715 0.0
C920 C 0.7936 0.75171 0.76749 0.0
C921 C 0.73789 0.72357 0.80609 0.0
C922 C 0.71951 0.69387 0.8163 0.0
C923 C 0.71922 0.71606 0.80889 0.0
C924 C 0.73873 0.67929 0.82071 0.0
C925 C 0.75694 0.70869 0.81028 0.0
C926 C 0.75732 0.68669 0.8176 0.0
C927 C 0.7452 0.79857 0.74843 0.0
C928 C 0.73732 0.74696 0.79929 0.0
C929 C 0.75233 0.78112 0.90476 0.0
C930 C 0.73748 0.80019 0.89837 0.0
C931 C 0.76449 0.82397 0.78864 0.0
C932 C 0.83342 0.83894 0.73502 0.0
C933 C 0.84481 0.85216 0.74505 0.0
C934 C 0.8591 0.86206 0.72954 0.0
C935 C 0.86173 0.85843 0.70374 0.0
C936 C 0.83629 0.83549 0.70932 0.0
C937 C 0.8504 0.84523 0.69377 0.0
C938 C 0.81057 0.77794 0.80823 0.0
C939 C 0.81866 0.82894 0.75178 0.0
H940 H 0.70448 0.72753 0.8057 0.0
H941 H 0.73943 0.66207 0.82614 0.0
H942 H 0.77152 0.71398 0.80789 0.0
H943 H 0.77207 0.67532 0.82079 0.0
H944 H 0.84232 0.85492 0.76492 0.0
H945 H 0.87279 0.8655 0.6913 0.0
H946 H 0.82766 0.82529 0.70133 0.0
H947 H 0.85263 0.84249 0.67393 0.0
H948 H 0.06461 0.10776 0.36397 0.0
H949 H 0.08811 0.13293 0.36195 0.0
H950 H 0.12938 0.09466 0.30613 0.0
H951 H 0.10619 0.0689 0.30864 0.0
H952 H 0.1513 0.10552 0.3407 0.0
H953 H 0.09808 0.14419 0.28941 0.0
H954 H 0.06207 0.16015 0.27809 0.0
H955 H 0.05176 0.20282 0.33912 0.0
H956 H 0.08762 0.18688 0.35104 0.0
H957 H 0.21191 0.18773 0.32108 0.0
H958 H 0.18934 0.16355 0.31206 0.0
H959 H 0.14251 0.19301 0.36894 0.0
H960 H 0.1647 0.21745 0.37762 0.0
H961 H 0.12473 0.18631 0.32773 0.0
H962 H 0.17686 0.14429 0.38123 0.0
H963 H 0.21293 0.12811 0.3923 0.0
H964 H 0.2253 0.09172 0.32584 0.0
H965 H 0.18936 0.10793 0.3142 0.0
C966 C 0.07874 0.10452 0.3514 0.0
C967 C 0.08345 0.08624 0.33646 0.0
C968 C 0.09208 0.11912 0.35004 0.0
C969 C 0.11038 0.1159 0.33361 0.0
C970 C 0.11528 0.09757 0.31883 0.0
C971 C 0.10192 0.08293 0.32016 0.0
C972 C 0.12456 0.13146 0.33243 0.0
C973 C 0.14558 0.12315 0.33736 0.0
C974 C 0.11709 0.15451 0.32837 0.0
C975 C 0.09551 0.16421 0.32124 0.0
C976 C 0.08809 0.15686 0.30054 0.0
C977 C 0.06771 0.16592 0.29399 0.0
C978 C 0.05462 0.18246 0.30791 0.0
C979 C 0.06191 0.19 0.32837 0.0
C980 C 0.08228 0.18097 0.33501 0.0
C981 C 0.19665 0.18928 0.33136 0.0
C982 C 0.19017 0.20436 0.35024 0.0
C983 C 0.18385 0.17534 0.32633 0.0
C984 C 0.16434 0.17626 0.34007 0.0
C985 C 0.15751 0.19193 0.35817 0.0
C986 C 0.17029 0.20578 0.36324 0.0
C987 C 0.15129 0.1604 0.33652 0.0
C988 C 0.13049 0.16865 0.3307 0.0
C989 C 0.15898 0.13731 0.33967 0.0
C990 C 0.18053 0.12751 0.3467 0.0
C991 C 0.18733 0.13297 0.36888 0.0
C992 C 0.20774 0.12378 0.37527 0.0
C993 C 0.22142 0.10895 0.35974 0.0
C994 C 0.2147 0.10324 0.33782 0.0
C995 C 0.19432 0.11242 0.33132 0.0
H996 H 0.2372 0.10185 0.36472 0.0
H997 H 0.03885 0.18946 0.30281 0.0
H998 H 0.96168 0.05554 0.29919 0.0
H999 H 0.93167 0.08639 0.29249 0.0
H1000 H 0.97361 0.13041 0.27621 0.0
H1001 H 1.00383 0.09926 0.28208 0.0
H1002 H 0.93923 0.14182 0.31714 0.0
H1003 H 0.94997 0.12411 0.23044 0.0
H1004 H 0.9548 0.09925 0.19586 0.0
H1005 H 0.89495 0.08417 0.21858 0.0
H1006 H 0.88988 0.10872 0.25352 0.0
H1007 H 0.86093 0.23772 0.29961 0.0
H1008 H 0.89193 0.20823 0.29524 0.0
H1009 H 0.85389 0.16392 0.27968 0.0
H1010 H 0.82272 0.19444 0.28164 0.0
H1011 H 0.88745 0.15239 0.25363 0.0
H1012 H 0.87635 0.16646 0.34087 0.0
H1013 H 0.87071 0.18843 0.37814 0.0
H1014 H 0.92952 0.20682 0.35856 0.0
H1015 H 0.93541 0.18516 0.32102 0.0
C1016 C 0.96455 0.07166 0.29326 0.0
C1017 C 0.98516 0.07488 0.29063 0.0
C1018 C 0.94736 0.08932 0.28959 0.0
C1019 C 0.95029 0.1108 0.28385 0.0
C1020 C 0.97092 0.114 0.2805 0.0
C1021 C 0.98821 0.09616 0.28357 0.0
C1022 C 0.93173 0.12994 0.28354 0.0
C1023 C 0.92809 0.1444 0.303 0.0
C1024 C 0.91667 0.13278 0.26577 0.0
C1025 C 0.91964 0.11809 0.24474 0.0
C1026 C 0.93792 0.11534 0.2282 0.0
C1027 C 0.94068 0.10134 0.2085 0.0
C1028 C 0.92521 0.0901 0.20507 0.0
C1029 C 0.90692 0.09288 0.22128 0.0
C1030 C 0.90409 0.10685 0.24102 0.0
C1031 C 0.85899 0.22178 0.29519 0.0
C1032 C 0.83909 0.21856 0.29126 0.0
C1033 C 0.87692 0.20466 0.29297 0.0
C1034 C 0.87552 0.18329 0.28804 0.0
C1035 C 0.85565 0.18006 0.28372 0.0
C1036 C 0.83771 0.19754 0.28499 0.0
C1037 C 0.89475 0.16457 0.28735 0.0
C1038 C 0.89853 0.15003 0.2678 0.0
C1039 C 0.90974 0.16129 0.30547 0.0
C1040 C 0.90625 0.1743 0.32805 0.0
C1041 C 0.88803 0.17527 0.34446 0.0
C1042 C 0.88481 0.18764 0.36565 0.0
C1043 C 0.89977 0.19897 0.37073 0.0
C1044 C 0.91797 0.198 0.35462 0.0
C1045 C 0.92127 0.18565 0.33341 0.0
H1046 H 0.89724 0.20854 0.38715 0.0
H1047 H 0.92738 0.07927 0.18981 0.0
H1048 H 0.98014 0.99067 0.30086 0.0
H1049 H 0.95518 0.96813 0.29715 0.0
H1050 H 0.97681 0.92777 0.36252 0.0
H1051 H 1.00275 0.94949 0.3656 0.0
H1052 H 0.97041 0.90257 0.32852 0.0
H1053 H 0.93073 0.96854 0.36511 0.0
H1054 H 0.91777 0.00862 0.36825 0.0
H1055 H 0.89038 0.01326 0.29814 0.0
H1056 H 0.90342 0.97322 0.29442 0.0
H1057 H 0.87738 0.86235 0.36624 0.0
H1058 H 0.90727 0.88003 0.3626 0.0
H1059 H 0.89141 0.90777 0.28894 0.0
H1060 H 0.8617 0.88971 0.29233 0.0
H1061 H 0.8952 0.93879 0.3245 0.0
H1062 H 0.93339 0.87126 0.29041 0.0
H1063 H 0.94588 0.83098 0.28926 0.0
H1064 H 0.9753 0.82908 0.35753 0.0
H1065 H 0.9627 0.86934 0.35931 0.0
C1066 C 0.97992 0.97685 0.3143 0.0
C1067 C 0.99359 0.97205 0.3336 0.0
C1068 C 0.96539 0.96408 0.31229 0.0
C1069 C 0.96385 0.94645 0.32979 0.0
C1070 C 0.97763 0.94135 0.34884 0.0
C1071 C 0.99235 0.95399 0.35073 0.0
C1072 C 0.94767 0.93354 0.32841 0.0
C1073 C 0.95394 0.91049 0.32792 0.0
C1074 C 0.9262 0.94386 0.32711 0.0
C1075 C 0.91824 0.96792 0.32936 0.0
C1076 C 0.92207 0.97813 0.35027 0.0
C1077 C 0.91469 1.00084 0.35217 0.0
C1078 C 0.90331 0.01349 0.33337 0.0
C1079 C 0.89923 1.00344 0.31267 0.0
C1080 C 0.90659 0.98074 0.31066 0.0
C1081 C 0.88056 0.87188 0.34911 0.0
C1082 C 0.86734 0.87468 0.32954 0.0
C1083 C 0.89761 0.88192 0.34702 0.0
C1084 C 0.90151 0.89518 0.32551 0.0
C1085 C 0.88865 0.89754 0.30566 0.0
C1086 C 0.87181 0.88715 0.30755 0.0
C1087 C 0.91798 0.90792 0.32471 0.0
C1088 C 0.91171 0.93094 0.3249 0.0
C1089 C 0.93936 0.89754 0.32607 0.0
C1090 C 0.9469 0.87331 0.32513 0.0
C1091 C 0.94233 0.86224 0.30533 0.0
C1092 C 0.94948 0.83941 0.30453 0.0
C1093 C 0.96133 0.82747 0.32335 0.0
C1094 C 0.96609 0.83835 0.34298 0.0
C1095 C 0.95897 0.86118 0.34388 0.0
H1096 H 0.96686 0.80979 0.32269 0.0
H1097 H 0.89762 0.03107 0.33487 0.0
H1098 H 0.08112 0.96778 0.26997 0.0
H1099 H 0.10993 0.93552 0.26126 0.0
H1100 H 0.15085 0.96325 0.30049 0.0
H1101 H 0.12221 0.99501 0.30958 0.0
H1102 H 0.17096 0.94372 0.25638 0.0
H1103 H 0.12736 0.92629 0.33033 0.0
H1104 H 0.09398 0.92165 0.35297 0.0
H1105 H 0.08985 0.87334 0.30232 0.0
H1106 H 0.12308 0.87795 0.27915 0.0
H1107 H 0.25335 0.85977 0.29348 0.0
H1108 H 0.22253 0.88942 0.29179 0.0
H1109 H 0.18824 0.84519 0.26692 0.0
H1110 H 0.21914 0.81457 0.27067 0.0
H1111 H 0.16287 0.87163 0.29709 0.0
H1112 H 0.20867 0.88485 0.22628 0.0
H1113 H 0.24176 0.88933 0.2028 0.0
H1114 H 0.24147 0.94525 0.24439 0.0
H1115 H 0.20858 0.94087 0.26849 0.0
C1116 C 0.09641 0.96721 0.27615 0.0
C1117 C 0.0994 0.98404 0.29034 0.0
C1118 C 0.11284 0.94867 0.27137 0.0
C1119 C 0.13264 0.94679 0.28036 0.0
C1120 C 0.13584 0.96421 0.2933 0.0
C1121 C 0.11941 0.98242 0.29847 0.0
C1122 C 0.14977 0.92633 0.27782 0.0
C1123 C 0.16922 0.92797 0.26532 0.0
C1124 C 0.14743 0.90553 0.28882 0.0
C1125 C 0.12755 0.90267 0.30282 0.0
C1126 C 0.11923 0.91483 0.32389 0.0
C1127 C 0.10036 0.91217 0.33684 0.0
C1128 C 0.08976 0.89726 0.32904 0.0
C1129 C 0.09805 0.88492 0.30831 0.0
C1130 C 0.1169 0.88755 0.29526 0.0
C1131 C 0.23919 0.85594 0.28854 0.0
C1132 C 0.23883 0.83439 0.28302 0.0
C1133 C 0.22152 0.87325 0.28687 0.0
C1134 C 0.20293 0.86993 0.27865 0.0
C1135 C 0.20233 0.84839 0.27321 0.0
C1136 C 0.22007 0.83084 0.27531 0.0
C1137 C 0.18436 0.88903 0.27604 0.0
C1138 C 0.16463 0.88721 0.28766 0.0
C1139 C 0.18639 0.90964 0.26393 0.0
C1140 C 0.20615 0.91245 0.24931 0.0
C1141 C 0.21571 0.89803 0.23055 0.0
C1142 C 0.23445 0.90055 0.21711 0.0
C1143 C 0.24372 0.91756 0.22209 0.0
C1144 C 0.23428 0.93208 0.24054 0.0
C1145 C 0.21557 0.9296 0.25408 0.0
H1146 H 0.25819 0.91951 0.21162 0.0
H1147 H 0.07515 0.89523 0.33909 0.0
H1148 H 0.1049 0.9992 0.80528 0.0
H1149 H 0.13545 0.96891 0.79776 0.0
H1150 H 0.10049 0.93997 0.75135 0.0
H1151 H 0.06984 0.9708 0.75843 0.0
H1152 H 0.11956 0.91051 0.79013 0.0
H1153 H 0.13978 0.95935 0.72388 0.0
H1154 H 0.14675 0.99457 0.70512 0.0
H1155 H 0.19474 0.99039 0.75506 0.0
H1156 H 0.18785 0.95528 0.77439 0.0
H1157 H 0.22827 0.84037 0.74241 0.0
H1158 H 0.19806 0.87162 0.73783 0.0
H1159 H 0.18911 0.87521 0.81812 0.0
H1160 H 0.21947 0.84435 0.82282 0.0
H1161 H 0.19126 0.9163 0.75649 0.0
H1162 H 0.13231 0.88597 0.83033 0.0
H1163 H 0.12271 0.85165 0.84809 0.0
H1164 H 0.15051 0.81916 0.7815 0.0
H1165 H 0.16025 0.85324 0.76323 0.0
C1166 C 0.10391 0.98672 0.79284 0.0
C1167 C 0.08503 0.98758 0.78215 0.0
C1168 C 0.1214 0.96934 0.78862 0.0
C1169 C 0.12041 0.95204 0.77398 0.0
C1170 C 0.10172 0.95312 0.76266 0.0
C1171 C 0.08427 0.97086 0.76647 0.0
C1172 C 0.13836 0.93224 0.77222 0.0
C1173 C 0.13521 0.91179 0.78267 0.0
C1174 C 0.15885 0.93375 0.76245 0.0
C1175 C 0.16318 0.95475 0.75071 0.0
C1176 C 0.15171 0.96601 0.73099 0.0
C1177 C 0.15567 0.98594 0.72023 0.0
C1178 C 0.17115 0.99473 0.72892 0.0
C1179 C 0.18275 0.98357 0.74835 0.0
C1180 C 0.17884 0.96363 0.7592 0.0
C1181 C 0.21993 0.84788 0.75909 0.0
C1182 C 0.22645 0.83988 0.78297 0.0
C1183 C 0.20265 0.86578 0.75644 0.0
C1184 C 0.19113 0.87577 0.77763 0.0
C1185 C 0.19759 0.86776 0.80148 0.0
C1186 C 0.2151 0.85018 0.80411 0.0
C1187 C 0.17252 0.89466 0.77492 0.0
C1188 C 0.17559 0.91499 0.76383 0.0
C1189 C 0.15194 0.89309 0.78426 0.0
C1190 C 0.14725 0.87212 0.79556 0.0
C1191 C 0.13648 0.87146 0.81951 0.0
C1192 C 0.13098 0.85205 0.82964 0.0
C1193 C 0.13621 0.83314 0.81602 0.0
C1194 C 0.14685 0.83367 0.79219 0.0
C1195 C 0.15239 0.85303 0.78195 0.0
H1196 H 0.13197 0.81811 0.8239 0.0
H1197 H 0.17418 0.01018 0.72058 0.0
H1198 H 0.05482 0.1118 0.84295 0.0
H1199 H 0.08126 0.13406 0.8348 0.0
H1200 H 0.12602 0.07779 0.80598 0.0
H1201 H 0.09952 0.05573 0.81358 0.0
H1202 H 0.11925 0.13389 0.8481 0.0
H1203 H 0.15448 0.09308 0.75549 0.0
H1204 H 0.14353 0.07405 0.72237 0.0
H1205 H 0.07955 0.10814 0.73857 0.0
H1206 H 0.09015 0.12757 0.77154 0.0
H1207 H 0.21518 0.16469 0.80416 0.0
H1208 H 0.18691 0.14619 0.81937 0.0
H1209 H 0.15203 0.17678 0.75691 0.0
H1210 H 0.18054 0.19473 0.74132 0.0
H1211 H 0.15172 0.13593 0.76064 0.0
H1212 H 0.13692 0.19212 0.81948 0.0
H1213 H 0.14502 0.21462 0.85122 0.0
H1214 H 0.16316 0.15662 0.89974 0.0
H1215 H 0.15515 0.13375 0.86828 0.0
C1216 C 0.07042 0.10412 0.83529 0.0
C1217 C 0.07506 0.08211 0.8286 0.0
C1218 C 0.08551 0.11685 0.83061 0.0
C1219 C 0.10552 0.10774 0.8193 0.0
C1220 C 0.11055 0.08535 0.81417 0.0
C1221 C 0.09543 0.07274 0.81853 0.0
C1222 C 0.12067 0.12188 0.81131 0.0
C1223 C 0.12637 0.13434 0.82899 0.0
C1224 C 0.1296 0.12295 0.78622 0.0
C1225 C 0.1231 0.11161 0.76614 0.0
C1226 C 0.13809 0.09658 0.7519 0.0
C1227 C 0.13194 0.08571 0.73317 0.0
C1228 C 0.11085 0.08983 0.72842 0.0
C1229 C 0.09587 0.1049 0.74232 0.0
C1230 C 0.10194 0.11583 0.76105 0.0
C1231 C 0.20133 0.16768 0.79391 0.0
C1232 C 0.20008 0.18104 0.7715 0.0
C1233 C 0.18514 0.15716 0.80265 0.0
C1234 C 0.16721 0.16015 0.7894 0.0
C1235 C 0.16572 0.17407 0.76741 0.0
C1236 C 0.182 0.18433 0.75851 0.0
C1237 C 0.1506 0.14778 0.79747 0.0
C1238 C 0.14463 0.13557 0.77977 0.0
C1239 C 0.14103 0.14749 0.82233 0.0
C1240 C 0.14559 0.1612 0.84144 0.0
C1241 C 0.14273 0.18415 0.83687 0.0
C1242 C 0.1473 0.19697 0.85481 0.0
C1243 C 0.15472 0.18705 0.87742 0.0
C1244 C 0.15744 0.16428 0.88221 0.0
C1245 C 0.15282 0.15139 0.86437 0.0
H1246 H 0.1583 0.19701 0.89124 0.0
H1247 H 0.10612 0.08138 0.71394 0.0
H1248 H 0.9989 0.10626 0.76801 0.0
H1249 H 0.97276 0.14115 0.76169 0.0
H1250 H 0.92297 0.10681 0.78046 0.0
H1251 H 0.94885 0.07232 0.78726 0.0
H1252 H 0.91496 0.13801 0.73983 0.0
H1253 H 0.9369 0.13334 0.82402 0.0
H1254 H 0.96301 0.12993 0.85485 0.0
H1255 H 0.98022 0.1889 0.82192 0.0
H1256 H 0.95439 0.19247 0.79064 0.0
H1257 H 0.82416 0.21614 0.7735 0.0
H1258 H 0.85446 0.18574 0.77167 0.0
H1259 H 0.89506 0.23088 0.77239 0.0
H1260 H 0.86412 0.26173 0.77598 0.0
H1261 H 0.91102 0.19654 0.79843 0.0
H1262 H 0.88737 0.20356 0.71623 0.0
H1263 H 0.86175 0.20711 0.68474 0.0
H1264 H 0.84881 0.14463 0.71176 0.0
H1265 H 0.8742 0.14078 0.74356 0.0
C1266 C 0.98239 0.10611 0.77007 0.0
C1267 C 0.97596 0.08646 0.77785 0.0
C1268 C 0.96743 0.1261 0.76675 0.0
C1269 C 0.94578 0.12675 0.77078 0.0
C1270 C 0.93948 0.10687 0.7772 0.0
C1271 C 0.95433 0.0871 0.78099 0.0
C1272 C 0.92952 0.14802 0.76964 0.0
C1273 C 0.91408 0.1508 0.75267 0.0
C1274 C 0.92853 0.16506 0.78592 0.0
C1275 C 0.94392 0.16301 0.80481 0.0
C1276 C 0.94638 0.14547 0.82322 0.0
C1277 C 0.9611 0.14353 0.8408 0.0
C1278 C 0.97332 0.15915 0.84029 0.0
C1279 C 0.97078 0.17679 0.82225 0.0
C1280 C 0.9561 0.17878 0.8046 0.0
C1281 C 0.83946 0.21985 0.7731 0.0
C1282 C 0.84153 0.24166 0.7745 0.0
C1283 C 0.85699 0.20225 0.77178 0.0
C1284 C 0.87741 0.20576 0.77088 0.0
C1285 C 0.87961 0.22752 0.77271 0.0
C1286 C 0.86188 0.24524 0.77467 0.0
C1287 C 0.89614 0.18658 0.7687 0.0
C1288 C 0.91202 0.18407 0.78516 0.0
C1289 C 0.89768 0.16984 0.7517 0.0
C1290 C 0.88265 0.17192 0.73232 0.0
C1291 C 0.87903 0.1906 0.71548 0.0
C1292 C 0.86456 0.19265 0.69757 0.0
C1293 C 0.8537 0.17608 0.69623 0.0
C1294 C 0.85728 0.15741 0.71278 0.0
C1295 C 0.87175 0.15526 0.73071 0.0
H1296 H 0.84246 0.17773 0.6824 0.0
H1297 H 0.98471 0.15762 0.85391 0.0
H1298 H 0.96639 0.99983 0.7741 0.0
H1299 H 0.94326 0.97764 0.76253 0.0
H1300 H 0.95669 0.93421 0.8284 0.0
H1301 H 0.98059 0.95591 0.83963 0.0
H1302 H 0.95755 0.9108 0.78933 0.0
H1303 H 0.9094 0.97174 0.82504 0.0
H1304 H 0.89324 0.0108 0.83161 0.0
H1305 H 0.87751 0.02087 0.75516 0.0
H1306 H 0.89384 0.98192 0.74802 0.0
H1307 H 0.87747 0.85491 0.77404 0.0
H1308 H 0.89774 0.87762 0.79132 0.0
H1309 H 0.88955 0.92281 0.72611 0.0
H1310 H 0.86843 0.90078 0.70925 0.0
H1311 H 0.88496 0.94477 0.76817 0.0
H1312 H 0.93608 0.88334 0.73283 0.0
H1313 H 0.95111 0.84375 0.72808 0.0
H1314 H 0.95975 0.8343 0.8068 0.0
H1315 H 0.94462 0.87383 0.81203 0.0
C1316 C 0.96462 0.98548 0.78609 0.0
C1317 C 0.97549 0.97971 0.80783 0.0
C1318 C 0.95114 0.97292 0.77957 0.0
C1319 C 0.94796 0.95437 0.79474 0.0
C1320 C 0.95879 0.94849 0.81643 0.0
C1321 C 0.97235 0.96105 0.82295 0.0
C1322 C 0.93372 0.9409 0.78756 0.0
C1323 C 0.94158 0.91821 0.7851 0.0
C1324 C 0.9129 0.9505 0.78173 0.0
C1325 C 0.90302 0.97394 0.78593 0.0
C1326 C 0.90264 0.98232 0.80956 0.0
C1327 C 0.89342 0.00444 0.8134 0.0
C1328 C 0.8844 0.01832 0.7938 0.0
C1329 C 0.88453 0.0101 0.77032 0.0
C1330 C 0.89374 0.988 0.76637 0.0
C1331 C 0.8797 0.86986 0.76354 0.0
C1332 C 0.87132 0.87597 0.74022 0.0
C1333 C 0.8915 0.88269 0.77332 0.0
C1334 C 0.89546 0.90175 0.75987 0.0
C1335 C 0.8868 0.90813 0.73681 0.0
C1336 C 0.8749 0.89538 0.72707 0.0
C1337 C 0.90895 0.91482 0.76954 0.0
C1338 C 0.90092 0.93741 0.77251 0.0
C1339 C 0.92953 0.9051 0.77608 0.0
C1340 C 0.93912 0.88148 0.77283 0.0
C1341 C 0.94115 0.8728 0.74912 0.0
C1342 C 0.94968 0.85037 0.74635 0.0
C1343 C 0.95636 0.83651 0.76713 0.0
C1344 C 0.95459 0.84506 0.79071 0.0
C1345 C 0.94608 0.86747 0.79359 0.0
H1346 H 0.96293 0.81915 0.76495 0.0
H1347 H 0.87727 0.03544 0.79681 0.0
H1348 H 0.25306 0.11501 0.18093 0.0
H1349 H 0.26273 0.1439 0.20198 0.0
H1350 H 0.30428 0.15556 0.13742 0.0
H1351 H 0.29465 0.12647 0.11619 0.0
H1352 H 0.32165 0.15762 0.18072 0.0
H1353 H 0.25677 0.18943 0.14589 0.0
H1354 H 0.22012 0.19239 0.13708 0.0
H1355 H 0.20064 0.19554 0.21574 0.0
H1356 H 0.23723 0.19218 0.22509 0.0
H1357 H 0.28022 0.27338 0.24063 0.0
H1358 H 0.28237 0.24825 0.20797 0.0
H1359 H 0.31753 0.19556 0.25411 0.0
H1360 H 0.31671 0.22137 0.28628 0.0
H1361 H 0.26362 0.21722 0.21298 0.0
H1362 H 0.34258 0.15242 0.21999 0.0
H1363 H 0.3794 0.15142 0.22628 0.0
H1364 H 0.37158 0.21872 0.19764 0.0
H1365 H 0.33475 0.22011 0.19089 0.0
C1366 C 0.26422 0.12373 0.17117 0.0
C1367 C 0.27288 0.11864 0.14677 0.0
C1368 C 0.26978 0.14021 0.18324 0.0
C1369 C 0.28394 0.15215 0.17109 0.0
C1370 C 0.29327 0.14658 0.1471 0.0
C1371 C 0.28778 0.12995 0.13502 0.0
C1372 C 0.28831 0.17091 0.18327 0.0
C1373 C 0.30902 0.17075 0.18769 0.0
C1374 C 0.27186 0.18835 0.19176 0.0
C1375 C 0.2498 0.19035 0.1862 0.0
C1376 C 0.24471 0.19056 0.16133 0.0
C1377 C 0.22394 0.19234 0.15624 0.0
C1378 C 0.20808 0.19409 0.17585 0.0
C1379 C 0.21295 0.19414 0.20058 0.0
C1380 C 0.2337 0.19231 0.20578 0.0
C1381 C 0.28923 0.25678 0.24348 0.0
C1382 C 0.29853 0.24953 0.26601 0.0
C1383 C 0.29026 0.24226 0.22479 0.0
C1384 C 0.30004 0.21992 0.22849 0.0
C1385 C 0.3102 0.21277 0.25051 0.0
C1386 C 0.30959 0.22751 0.269 0.0
C1387 C 0.29699 0.20377 0.21114 0.0
C1388 C 0.2764 0.20434 0.20577 0.0
C1389 C 0.31362 0.18707 0.20139 0.0
C1390 C 0.33583 0.18638 0.20509 0.0
C1391 C 0.34873 0.16698 0.21491 0.0
C1392 C 0.36959 0.16637 0.2186 0.0
C1393 C 0.37779 0.18503 0.21244 0.0
C1394 C 0.36515 0.20434 0.20251 0.0
C1395 C 0.34427 0.20505 0.19878 0.0
H1396 H 0.39394 0.18453 0.21531 0.0
H1397 H 0.19202 0.19542 0.1719 0.0
H1398 H 1.00385 0.25041 0.17589 0.0
H1399 H 0.96887 0.25541 0.19789 0.0
H1400 H 0.9419 0.28858 0.13126 0.0
H1401 H 0.97698 0.28398 0.10935 0.0
H1402 H 0.92253 0.30962 0.16873 0.0
H1403 H 0.94027 0.23305 0.15332 0.0
H1404 H 0.96078 0.19465 0.15416 0.0
H1405 H 0.95472 0.19125 0.23472 0.0
H1406 H 0.93449 0.22978 0.23438 0.0
H1407 H 0.81642 0.30609 0.21202 0.0
H1408 H 0.85111 0.30372 0.18989 0.0
H1409 H 0.87938 0.26642 0.25378 0.0
H1410 H 0.84463 0.26716 0.2745 0.0
H1411 H 0.89806 0.24783 0.21671 0.0
H1412 H 0.88085 0.32662 0.2306 0.0
H1413 H 0.85955 0.36485 0.22734 0.0
H1414 H 0.86325 0.36293 0.1473 0.0
H1415 H 0.88453 0.32487 0.14999 0.0
C1416 C 0.9905 0.25861 0.1658 0.0
C1417 C 0.99339 0.26669 0.14071 0.0
C1418 C 0.97036 0.26144 0.17845 0.0
C1419 C 0.95242 0.27209 0.16629 0.0
C1420 C 0.95531 0.28031 0.14126 0.0
C1421 C 0.97548 0.27769 0.12868 0.0
C1422 C 0.93076 0.275 0.1797 0.0
C1423 C 0.91716 0.296 0.17902 0.0
C1424 C 0.92355 0.25746 0.19356 0.0
C1425 C 0.93608 0.23442 0.19381 0.0
C1426 C 0.94351 0.22421 0.17122 0.0
C1427 C 0.95506 0.2024 0.17161 0.0
C1428 C 0.95912 0.19055 0.19448 0.0
C1429 C 0.95163 0.20048 0.21702 0.0
C1430 C 0.94013 0.2223 0.21673 0.0
C1431 C 0.83008 0.29767 0.2215 0.0
C1432 C 0.82762 0.28729 0.24555 0.0
C1433 C 0.85008 0.29648 0.20885 0.0
C1434 C 0.86835 0.2853 0.22012 0.0
C1435 C 0.86583 0.27526 0.24436 0.0
C1436 C 0.84581 0.27592 0.25657 0.0
C1437 C 0.88989 0.28259 0.20626 0.0
C1438 C 0.90347 0.26154 0.2067 0.0
C1439 C 0.897 0.30004 0.19201 0.0
C1440 C 0.88409 0.32286 0.19054 0.0
C1441 C 0.87697 0.33433 0.21235 0.0
C1442 C 0.86495 0.35594 0.21061 0.0
C1443 C 0.85997 0.3662 0.1872 0.0
C1444 C 0.86708 0.35495 0.16543 0.0
C1445 C 0.87917 0.3334 0.16704 0.0
H1446 H 0.85065 0.38291 0.18593 0.0
H1447 H 0.96801 0.17365 0.19473 0.0
H1448 H 0.7906 0.96732 0.07294 0.0
H1449 H 0.78352 0.94318 0.10901 0.0
H1450 H 0.84342 0.89896 0.09258 0.0
H1451 H 0.85029 0.92277 0.05554 0.0
H1452 H 0.81321 0.87662 0.1032 0.0
H1453 H 0.83515 0.93325 0.14119 0.0
H1454 H 0.83508 0.9714 0.14995 0.0
H1455 H 0.77098 0.98108 0.18055 0.0
H1456 H 0.77054 0.94313 0.17154 0.0
H1457 H 0.80241 0.84728 0.24773 0.0
H1458 H 0.81102 0.87127 0.21212 0.0
H1459 H 0.7681 0.84992 0.1691 0.0
H1460 H 0.76057 0.82477 0.2043 0.0
H1461 H 0.79193 0.90449 0.18803 0.0
H1462 H 0.77554 0.8531 0.1172 0.0
H1463 H 0.77893 0.81508 0.10499 0.0
H1464 H 0.83764 0.79476 0.13782 0.0
H1465 H 0.83399 0.83246 0.15163 0.0
C1466 C 0.80225 0.9524 0.07677 0.0
C1467 C 0.82097 0.94692 0.06115 0.0
C1468 C 0.79827 0.93872 0.09766 0.0
C1469 C 0.81302 0.91937 0.10368 0.0
C1470 C 0.83183 0.91386 0.0883 0.0
C1471 C 0.83581 0.92756 0.06727 0.0
C1472 C 0.80841 0.90469 0.12565 0.0
C1473 C 0.80872 0.88269 0.1218 0.0
C1474 C 0.80251 0.91256 0.14992 0.0
C1475 C 0.80277 0.93538 0.15549 0.0
C1476 C 0.82099 0.94357 0.1496 0.0
C1477 C 0.82104 0.96517 0.15462 0.0
C1478 C 0.80302 0.97869 0.16572 0.0
C1479 C 0.78492 0.97062 0.17189 0.0
C1480 C 0.78476 0.94906 0.16684 0.0
C1481 C 0.79452 0.84797 0.23084 0.0
C1482 C 0.78066 0.83426 0.22887 0.0
C1483 C 0.79962 0.86155 0.21033 0.0
C1484 C 0.79073 0.86202 0.18749 0.0
C1485 C 0.77596 0.84921 0.18599 0.0
C1486 C 0.77128 0.83515 0.20633 0.0
C1487 C 0.79671 0.87631 0.16568 0.0
C1488 C 0.79659 0.89833 0.1695 0.0
C1489 C 0.80301 0.86843 0.14144 0.0
C1490 C 0.8043 0.84539 0.13577 0.0
C1491 C 0.78895 0.84038 0.12227 0.0
C1492 C 0.79086 0.81891 0.11524 0.0
C1493 C 0.80838 0.80248 0.12099 0.0
C1494 C 0.82386 0.80743 0.13407 0.0
C1495 C 0.82177 0.82877 0.14173 0.0
H1496 H 0.81008 0.78597 0.11506 0.0
H1497 H 0.8031 0.9954 0.16961 0.0
H1498 H 0.06687 0.76606 0.07692 0.0
H1499 H 0.09459 0.76826 0.10252 0.0
H1500 H 0.11092 0.69742 0.11295 0.0
H1501 H 0.08256 0.695 0.08762 0.0
H1502 H 0.11346 0.71901 0.15659 0.0
H1503 H 0.13799 0.72035 0.06954 0.0
H1504 H 0.13677 0.7331 0.02489 0.0
H1505 H 0.13905 0.79809 0.04312 0.0
H1506 H 0.13992 0.78582 0.08798 0.0
H1507 H 0.22114 0.70724 0.17972 0.0
H1508 H 0.18734 0.70548 0.1656 0.0
H1509 H 0.17145 0.77631 0.15418 0.0
H1510 H 0.2053 0.77814 0.1683 0.0
H1511 H 0.16797 0.7548 0.11226 0.0
H1512 H 0.14517 0.75241 0.1997 0.0
H1513 H 0.14673 0.73893 0.24408 0.0
H1514 H 0.14212 0.67494 0.22487 0.0
H1515 H 0.14085 0.68795 0.18028 0.0
C1516 C 0.07587 0.75088 0.0851 0.0
C1517 C 0.07243 0.73028 0.08006 0.0
C1518 C 0.0919 0.75221 0.09962 0.0
C1519 C 0.10498 0.73301 0.10934 0.0
C1520 C 0.10102 0.71244 0.10553 0.0
C1521 C 0.08493 0.71108 0.09091 0.0
C1522 C 0.12367 0.73455 0.12179 0.0
C1523 C 0.12553 0.72659 0.14686 0.0
C1524 C 0.13919 0.7448 0.10916 0.0
C1525 C 0.13881 0.75222 0.08216 0.0
C1526 C 0.13804 0.73741 0.06406 0.0
C1527 C 0.13744 0.74454 0.03872 0.0
C1528 C 0.1378 0.76639 0.03119 0.0
C1529 C 0.13876 0.78117 0.049 0.0
C1530 C 0.13931 0.77413 0.07439 0.0
C1531 C 0.21025 0.72245 0.17462 0.0
C1532 C 0.21582 0.74282 0.17502 0.0
C1533 C 0.19094 0.72143 0.16666 0.0
C1534 C 0.17689 0.74076 0.15885 0.0
C1535 C 0.18207 0.7612 0.16017 0.0
C1536 C 0.20132 0.76225 0.16839 0.0
C1537 C 0.15775 0.73944 0.1472 0.0
C1538 C 0.15586 0.74734 0.12211 0.0
C1539 C 0.14235 0.729 0.1598 0.0
C1540 C 0.14312 0.7211 0.1866 0.0
C1541 C 0.14469 0.7354 0.20489 0.0
C1542 C 0.14548 0.72786 0.2301 0.0
C1543 C 0.14458 0.70607 0.23729 0.0
C1544 C 0.14284 0.6918 0.21928 0.0
C1545 C 0.14207 0.69926 0.19403 0.0
H1546 H 0.14518 0.70027 0.25681 0.0
H1547 H 0.13741 0.77185 0.01156 0.0
H1548 H 0.22235 0.04053 1.00117 0.0
H1549 H 0.22115 0.01094 0.97444 0.0
H1550 H 0.22501 0.96504 0.03946 0.0
H1551 H 0.22751 0.99447 0.06569 0.0
H1552 H 0.25162 0.94794 1.0062 0.0
H1553 H 0.17919 0.98365 1.00529 0.0
H1554 H 0.14864 0.01449 0.99973 0.0
H1555 H 0.16965 0.02369 0.92205 0.0
H1556 H 0.20048 0.99308 0.92722 0.0
H1557 H 0.20509 0.87717 0.92592 0.0
H1558 H 0.20055 0.91038 0.9484 0.0
H1559 H 0.26585 0.9107 0.93002 0.0
H1560 H 0.27093 0.87642 0.90917 0.0
H1561 H 0.20364 0.95055 0.93988 0.0
H1562 H 0.28577 0.92765 0.97773 0.0
H1563 H 0.31305 0.89448 0.98761 0.0
H1564 H 0.26643 0.85579 0.99966 0.0
H1565 H 0.23886 0.88877 0.99017 0.0
C1566 C 0.22242 0.02419 0.00966 0.0
C1567 C 0.22492 0.01958 0.03533 0.0
C1568 C 0.22171 0.0073 0.99447 0.0
C1569 C 0.22287 0.98571 1.00492 0.0
C1570 C 0.22422 0.98149 0.0309 0.0
C1571 C 0.2255 0.99823 0.04591 0.0
C1572 C 0.2246 0.96716 0.98866 0.0
C1573 C 0.24103 0.94856 0.99179 0.0
C1574 C 0.21077 0.96778 0.9699 0.0
C1575 C 0.19225 0.9862 0.96671 0.0
C1576 C 0.17738 0.99236 0.98707 0.0
C1577 C 0.16 0.00978 0.98398 0.0
C1578 C 0.15723 0.02108 0.96057 0.0
C1579 C 0.17182 0.01494 0.94018 0.0
C1580 C 0.18924 0.99754 0.94317 0.0
C1581 C 0.21856 0.88414 0.92675 0.0
C1582 C 0.23846 0.87374 0.91612 0.0
C1583 C 0.21585 0.90337 0.93935 0.0
C1584 C 0.23294 0.9128 0.94135 0.0
C1585 C 0.25252 0.90342 0.92919 0.0
C1586 C 0.25533 0.88393 0.91698 0.0
C1587 C 0.23053 0.93143 0.95763 0.0
C1588 C 0.21414 0.95005 0.95437 0.0
C1589 C 0.24388 0.93052 0.97697 0.0
C1590 C 0.26031 0.91063 0.98297 0.0
C1591 C 0.28135 0.91207 0.98257 0.0
C1592 C 0.29685 0.89331 0.98809 0.0
C1593 C 0.29148 0.87303 0.99417 0.0
C1594 C 0.27058 0.87149 0.99485 0.0
C1595 C 0.25501 0.89021 0.98939 0.0
H1596 H 0.30351 0.85852 0.99841 0.0
H1597 H 0.14376 0.03456 0.95821 0.0
H1598 H 0.14405 0.23491 0.01758 0.0
H1599 H 0.16997 0.23929 0.98247 0.0
H1600 H 0.12541 0.2938 0.95062 0.0
H1601 H 0.09947 0.28958 0.98583 0.0
H1602 H 0.1467 0.26227 0.91519 0.0
H1603 H 0.16345 0.30427 0.9791 0.0
H1604 H 0.17271 0.30938 0.02127 0.0
H1605 H 0.22863 0.25838 0.01142 0.0
H1606 H 0.21953 0.25273 0.96933 0.0
H1607 H 0.21414 0.30165 0.82039 0.0
H1608 H 0.18914 0.29947 0.85712 0.0
H1609 H 0.23726 0.25343 0.89512 0.0
H1610 H 0.26215 0.25567 0.85856 0.0
H1611 H 0.21438 0.28032 0.92791 0.0
H1612 H 0.19949 0.23568 0.86786 0.0
H1613 H 0.19185 0.22623 0.82659 0.0
H1614 H 0.13474 0.27619 0.82997 0.0
H1615 H 0.14217 0.28612 0.87116 0.0
C1616 C 0.13972 0.24778 1.00307 0.0
C1617 C 0.11961 0.26189 1.00461 0.0
C1618 C 0.15462 0.25036 0.98304 0.0
C1619 C 0.14975 0.26695 0.96384 0.0
C1620 C 0.12961 0.2809 0.96516 0.0
C1621 C 0.11481 0.27855 0.98541 0.0
C1622 C 0.16559 0.26969 0.94237 0.0
C1623 C 0.16135 0.26657 0.91794 0.0
C1624 C 0.18514 0.2744 0.94594 0.0
C1625 C 0.19068 0.27791 0.97117 0.0
C1626 C 0.17762 0.29401 0.98601 0.0
C1627 C 0.18286 0.29703 0.00988 0.0
C1628 C 0.20121 0.28417 0.01905 0.0
C1629 C 0.2144 0.26831 1.00432 0.0
C1630 C 0.20921 0.2652 0.98045 0.0
C1631 C 0.21944 0.29129 0.83672 0.0
C1632 C 0.24029 0.27914 0.83659 0.0
C1633 C 0.20509 0.28993 0.8577 0.0
C1634 C 0.21111 0.27603 0.87896 0.0
C1635 C 0.23209 0.2643 0.87909 0.0
C1636 C 0.24642 0.26566 0.85811 0.0
C1637 C 0.1954 0.27319 0.90061 0.0
C1638 C 0.19969 0.27616 0.92509 0.0
C1639 C 0.17611 0.26775 0.89719 0.0
C1640 C 0.17152 0.26183 0.87246 0.0
C1641 C 0.1854 0.24479 0.8597 0.0
C1642 C 0.1811 0.23933 0.83633 0.0
C1643 C 0.1629 0.2507 0.82559 0.0
C1644 C 0.14889 0.26746 0.83827 0.0
C1645 C 0.15311 0.27299 0.86164 0.0
H1646 H 0.15958 0.24642 0.80752 0.0
H1647 H 0.20524 0.28654 0.03754 0.0
H1648 H 0.8018 0.0896 0.96299 0.0
H1649 H 0.79337 0.12698 0.94371 0.0
H1650 H 0.82509 0.10344 0.87355 0.0
H1651 H 0.83352 0.06588 0.89275 0.0
H1652 H 0.83424 0.14167 0.88369 0.0
H1653 H 0.77175 0.11433 0.8829 0.0
H1654 H 0.74278 0.09767 0.90154 0.0
H1655 H 0.72156 0.15121 0.95001 0.0
H1656 H 0.7506 0.16804 0.93188 0.0
H1657 H 0.79774 0.2326 0.80455 0.0
H1658 H 0.80335 0.19595 0.82429 0.0
H1659 H 0.7666 0.22163 0.89093 0.0
H1660 H 0.75939 0.2587 0.8698 0.0
H1661 H 0.76 0.18271 0.88414 0.0
H1662 H 0.82195 0.21124 0.88263 0.0
H1663 H 0.85072 0.22773 0.86291 0.0
H1664 H 0.87362 0.17149 0.81873 0.0
H1665 H 0.84462 0.155 0.83755 0.0
C1666 C 0.80692 0.09232 0.94342 0.0
C1667 C 0.81814 0.07466 0.92933 0.0
C1668 C 0.80209 0.11373 0.93243 0.0
C1669 C 0.80826 0.11797 0.90706 0.0
C1670 C 0.8201 0.10054 0.89314 0.0
C1671 C 0.82498 0.07908 0.90416 0.0
C1672 C 0.80218 0.14054 0.89501 0.0
C1673 C 0.818 0.15057 0.88352 0.0
C1674 C 0.78101 0.15236 0.89538 0.0
C1675 C 0.76347 0.14233 0.9062 0.0
C1676 C 0.761 0.12246 0.89766 0.0
C1677 C 0.74455 0.113 0.90812 0.0
C1678 C 0.73037 0.12334 0.927 0.0
C1679 C 0.73258 0.1432 0.93541 0.0
C1680 C 0.74902 0.15272 0.92504 0.0
C1681 C 0.79026 0.23058 0.82297 0.0
C1682 C 0.77774 0.24867 0.8352 0.0
C1683 C 0.79381 0.20947 0.83456 0.0
C1684 C 0.78597 0.206 0.85943 0.0
C1685 C 0.77297 0.22388 0.87173 0.0
C1686 C 0.76888 0.24505 0.85969 0.0
C1687 C 0.79207 0.18389 0.87265 0.0
C1688 C 0.77626 0.17392 0.88439 0.0
C1689 C 0.81331 0.17212 0.87251 0.0
C1690 C 0.83098 0.18194 0.86141 0.0
C1691 C 0.83302 0.20246 0.86857 0.0
C1692 C 0.84935 0.21184 0.8575 0.0
C1693 C 0.86395 0.2007 0.83952 0.0
C1694 C 0.86227 0.18014 0.8326 0.0
C1695 C 0.84586 0.17079 0.84343 0.0
H1696 H 0.87659 0.20798 0.83099 0.0
H1697 H 0.71765 0.11599 0.93506 0.0
H1698 H 0.94164 0.75619 0.98111 0.0
H1699 H 0.91099 0.76291 0.95632 0.0
H1700 H 0.95194 0.75864 0.88808 0.0
H1701 H 0.98244 0.7516 0.91267 0.0
H1702 H 0.91507 0.79545 0.88842 0.0
H1703 H 0.93472 0.71605 0.90627 0.0
H1704 H 0.94206 0.68261 0.93465 0.0
H1705 H 0.88006 0.70065 0.97151 0.0
H1706 H 0.87246 0.73438 0.94356 0.0
H1707 H 0.85184 0.77925 0.79513 0.0
H1708 H 0.87972 0.77609 0.82305 0.0
H1709 H 0.83657 0.76735 0.88703 0.0
H1710 H 0.80865 0.77071 0.85942 0.0
H1711 H 0.8729 0.73876 0.89154 0.0
H1712 H 0.85082 0.81539 0.87449 0.0
H1713 H 0.84156 0.85075 0.84985 0.0
H1714 H 0.90481 0.84141 0.8163 0.0
H1715 H 0.91433 0.80567 0.84021 0.0
C1716 C 0.94402 0.75684 0.96083 0.0
C1717 C 0.96442 0.75317 0.94884 0.0
C1718 C 0.92655 0.76062 0.9467 0.0
C1719 C 0.92919 0.76121 0.92033 0.0
C1720 C 0.94952 0.75825 0.90837 0.0
C1721 C 0.96694 0.75406 0.92245 0.0
C1722 C 0.91095 0.76407 0.90508 0.0
C1723 C 0.90596 0.78298 0.88886 0.0
C1724 C 0.89859 0.74818 0.90636 0.0
C1725 C 0.90311 0.72785 0.92302 0.0
C1726 C 0.92272 0.71298 0.92057 0.0
C1727 C 0.92692 0.69395 0.93655 0.0
C1728 C 0.91156 0.68954 0.95492 0.0
C1729 C 0.89195 0.70411 0.9573 0.0
C1730 C 0.88769 0.72317 0.94139 0.0
C1731 C 0.84826 0.77658 0.81512 0.0
C1732 C 0.82795 0.77499 0.82489 0.0
C1733 C 0.86423 0.77488 0.83111 0.0
C1734 C 0.86027 0.77162 0.85723 0.0
C1735 C 0.8401 0.76976 0.86698 0.0
C1736 C 0.82412 0.77157 0.85105 0.0
C1737 C 0.87716 0.77001 0.87437 0.0
C1738 C 0.8819 0.75134 0.89103 0.0
C1739 C 0.88898 0.78638 0.87387 0.0
C1740 C 0.88325 0.80768 0.85897 0.0
C1741 C 0.8627 0.82071 0.86161 0.0
C1742 C 0.85741 0.84086 0.84782 0.0
C1743 C 0.87258 0.84836 0.83157 0.0
C1744 C 0.89305 0.83562 0.82891 0.0
C1745 C 0.89841 0.81537 0.84255 0.0
H1746 H 0.86844 0.86407 0.82111 0.0
H1747 H 0.91484 0.6748 0.96727 0.0
H1748 H 0.12841 0.29288 0.09316 0.0
H1749 H 0.15359 0.29885 0.12097 0.0
H1750 H 0.10432 0.3115 0.18091 0.0
H1751 H 0.0789 0.30641 0.15252 0.0
H1752 H 0.131 0.3361 0.18577 0.0
H1753 H 0.13896 0.25945 0.17396 0.0
H1754 H 0.14415 0.22623 0.1501 0.0
H1755 H 0.20393 0.23636 0.11806 0.0
H1756 H 0.19898 0.26981 0.14147 0.0
H1757 H 0.20278 0.30716 0.28333 0.0
H1758 H 0.17486 0.30801 0.25587 0.0
H1759 H 0.21968 0.30514 0.19118 0.0
H1760 H 0.24751 0.30444 0.21828 0.0
H1761 H 0.19442 0.27539 0.19051 0.0
H1762 H 0.18581 0.3524 0.20312 0.0
H1763 H 0.18047 0.38476 0.22841 0.0
H1764 H 0.12165 0.37243 0.26112 0.0
H1765 H 0.12679 0.33977 0.23627 0.0
C1766 C 0.12283 0.29774 0.11201 0.0
C1767 C 0.10162 0.29961 0.12051 0.0
C1768 C 0.13731 0.30079 0.12809 0.0
C1769 C 0.13113 0.30502 0.15343 0.0
C1770 C 0.10965 0.30815 0.16157 0.0
C1771 C 0.09504 0.30544 0.14527 0.0
C1772 C 0.14722 0.3049 0.17154 0.0
C1773 C 0.1447 0.32265 0.18698 0.0
C1774 C 0.16538 0.2875 0.17322 0.0
C1775 C 0.16847 0.26729 0.15925 0.0
C1776 C 0.15314 0.25469 0.16168 0.0
C1777 C 0.15604 0.23582 0.14824 0.0
C1778 C 0.1743 0.22928 0.13245 0.0
C1779 C 0.18975 0.24152 0.13019 0.0
C1780 C 0.18691 0.26042 0.14357 0.0
C1781 C 0.20668 0.30683 0.26325 0.0
C1782 C 0.22746 0.30587 0.25312 0.0
C1783 C 0.19066 0.30738 0.24753 0.0
C1784 C 0.19507 0.30674 0.22134 0.0
C1785 C 0.2158 0.30568 0.21126 0.0
C1786 C 0.23172 0.30542 0.22687 0.0
C1787 C 0.17829 0.30668 0.20439 0.0
C1788 C 0.18069 0.28881 0.18926 0.0
C1789 C 0.15999 0.32381 0.20322 0.0
C1790 C 0.1568 0.34351 0.21803 0.0
C1791 C 0.17182 0.35648 0.21586 0.0
C1792 C 0.16881 0.37489 0.23009 0.0
C1793 C 0.15076 0.38061 0.24642 0.0
C1794 C 0.13564 0.36796 0.24849 0.0
C1795 C 0.13859 0.3495 0.23433 0.0
H1796 H 0.14846 0.39488 0.25742 0.0
H1797 H 0.17654 0.21464 0.1221 0.0
H1798 H 0.06286 0.76758 0.9447 0.0
H1799 H 0.09371 0.76716 0.91433 0.0
H1800 H 0.12515 0.78962 0.97026 0.0
H1801 H 0.0948 0.78963 1.00054 0.0
H1802 H 0.13268 0.81072 0.92615 0.0
H1803 H 0.13651 0.73513 0.95481 0.0
H1804 H 0.12389 0.70073 0.96197 0.0
H1805 H 0.12083 0.69846 0.8827 0.0
H1806 H 0.13315 0.73304 0.8751 0.0
H1807 H 0.24347 0.75005 0.87711 0.0
H1808 H 0.20927 0.75252 0.90127 0.0
H1809 H 0.17932 0.79479 0.84185 0.0
H1810 H 0.21358 0.79455 0.81925 0.0
H1811 H 0.16986 0.74237 0.88566 0.0
H1812 H 0.15966 0.82408 0.86022 0.0
H1813 H 0.17063 0.8594 0.85663 0.0
H1814 H 0.18274 0.85106 0.93435 0.0
H1815 H 0.17381 0.81471 0.93751 0.0
C1816 C 0.0762 0.77278 0.95043 0.0
C1817 C 0.076 0.77883 0.97527 0.0
C1818 C 0.09406 0.77229 0.93304 0.0
C1819 C 0.11225 0.77812 0.93977 0.0
C1820 C 0.11165 0.78493 0.96427 0.0
C1821 C 0.09407 0.78501 0.98169 0.0
C1822 C 0.13198 0.77701 0.92182 0.0
C1823 C 0.14063 0.79572 0.91725 0.0
C1824 C 0.14283 0.7576 0.90988 0.0
C1825 C 0.13549 0.73681 0.91441 0.0
C1826 C 0.13297 0.7274 0.93892 0.0
C1827 C 0.1259 0.70785 0.94306 0.0
C1828 C 0.1215 0.69745 0.92281 0.0
C1829 C 0.12421 0.70655 0.89837 0.0
C1830 C 0.13123 0.72612 0.89414 0.0
C1831 C 0.22962 0.76011 0.86928 0.0
C1832 C 0.23155 0.77182 0.84585 0.0
C1833 C 0.20993 0.76153 0.8832 0.0
C1834 C 0.19133 0.7746 0.87419 0.0
C1835 C 0.19318 0.78562 0.85032 0.0
C1836 C 0.21293 0.78483 0.83683 0.0
C1837 C 0.17027 0.77626 0.8896 0.0
C1838 C 0.16161 0.75749 0.89411 0.0
C1839 C 0.15928 0.79567 0.90142 0.0
C1840 C 0.16705 0.8162 0.89867 0.0
C1841 C 0.16575 0.82924 0.87608 0.0
C1842 C 0.17155 0.8495 0.87416 0.0
C1843 C 0.17789 0.85728 0.89508 0.0
C1844 C 0.17848 0.84477 0.91791 0.0
C1845 C 0.17335 0.82418 0.91966 0.0
H1846 H 0.18198 0.87317 0.89368 0.0
H1847 H 0.11604 0.68231 0.92605 0.0
H1848 H 0.25687 0.12547 0.02144 0.0
H1849 H 0.26548 0.14291 0.98089 0.0
H1850 H 0.32389 0.09471 0.97265 0.0
H1851 H 0.31516 0.07661 0.0137 0.0
H1852 H 0.3265 0.14086 0.96073 0.0
H1853 H 0.289 0.08924 0.93837 0.0
H1854 H 0.26005 0.06988 0.94211 0.0
H1855 H 0.21629 0.13108 0.92718 0.0
H1856 H 0.24491 0.15088 0.92379 0.0
H1857 H 0.30573 0.18739 0.82172 0.0
H1858 H 0.30752 0.15703 0.85437 0.0
H1859 H 0.29887 0.20366 0.91158 0.0
H1860 H 0.29676 0.23358 0.87968 0.0
H1861 H 0.27818 0.14987 0.89337 0.0
H1862 H 0.32642 0.18281 0.95946 0.0
H1863 H 0.3538 0.20425 0.95598 0.0
H1864 H 0.37592 0.18053 0.88306 0.0
H1865 H 0.34884 0.15873 0.88622 0.0
C1866 C 0.27163 0.11844 0.01119 0.0
C1867 C 0.28534 0.09956 0.02099 0.0
C1868 C 0.27646 0.12846 0.98784 0.0
C1869 C 0.29523 0.12006 0.97356 0.0
C1870 C 0.30926 0.10143 0.98332 0.0
C1871 C 0.30426 0.0911 1.00674 0.0
C1872 C 0.29984 0.13127 0.94871 0.0
C1873 C 0.31615 0.14255 0.94584 0.0
C1874 C 0.28639 0.13344 0.92916 0.0
C1875 C 0.26912 0.12156 0.93094 0.0
C1876 C 0.27319 0.0986 0.93605 0.0
C1877 C 0.25683 0.08754 0.9381 0.0
C1878 C 0.23634 0.09924 0.93491 0.0
C1879 C 0.23217 0.12203 0.92964 0.0
C1880 C 0.24846 0.13318 0.92762 0.0
C1881 C 0.30443 0.1911 0.84126 0.0
C1882 C 0.30168 0.21299 0.84792 0.0
C1883 C 0.3054 0.17374 0.8599 0.0
C1884 C 0.30378 0.17796 0.88549 0.0
C1885 C 0.30076 0.19981 0.89204 0.0
C1886 C 0.2997 0.217 0.8736 0.0
C1887 C 0.30443 0.15999 0.90574 0.0
C1888 C 0.28894 0.14766 0.90789 0.0
C1889 C 0.31859 0.15691 0.92466 0.0
C1890 C 0.33556 0.16916 0.92308 0.0
C1891 C 0.33726 0.18198 0.9428 0.0
C1892 C 0.35269 0.19426 0.94084 0.0
C1893 C 0.36658 0.19378 0.91931 0.0
C1894 C 0.36513 0.18093 0.89972 0.0
C1895 C 0.34974 0.16861 0.90158 0.0
H1896 H 0.37846 0.20336 0.9178 0.0
H1897 H 0.2237 0.09065 0.93651 0.0
H1898 H 0.99267 0.27077 0.04668 0.0
H1899 H 0.96641 0.27694 0.01641 0.0
H1900 H 0.99528 0.326 0.97534 0.0
H1901 H 0.02158 0.32018 1.00641 0.0
H1902 H 0.95254 0.33765 0.97532 0.0
H1903 H 1.0055 0.27314 0.95613 0.0
H1904 H 0.02889 0.23702 0.96549 0.0
H1905 H 0.9755 0.209 0.98713 0.0
H1906 H 0.95179 0.24503 0.97824 0.0
H1907 H 0.89517 0.33679 0.87138 0.0
H1908 H 0.92551 0.33186 0.89595 0.0
H1909 H 0.90447 0.27987 0.94182 0.0
H1910 H 0.87446 0.28435 0.91659 0.0
H1911 H 0.94577 0.2705 0.93639 0.0
H1912 H 0.89299 0.33508 0.95858 0.0
H1913 H 0.86918 0.37113 0.95006 0.0
H1914 H 0.92184 0.39895 0.92348 0.0
H1915 H 0.94594 0.36295 0.93148 0.0
C1916 C 0.99328 0.28315 0.03142 0.0
C1917 C 1.00929 0.29489 0.02882 0.0
C1918 C 0.9783 0.28655 0.01399 0.0
C1919 C 0.97916 0.30144 0.99307 0.0
C1920 C 0.99439 0.31423 0.99116 0.0
C1921 C 1.00935 0.31101 0.00896 0.0
C1922 C 0.96459 0.30274 0.97301 0.0
C1923 C 0.95134 0.32303 0.96647 0.0
C1924 C 0.96265 0.28362 0.96169 0.0
C1925 C 0.97687 0.26183 0.96666 0.0
C1926 C 0.99875 0.2593 0.963 0.0
C1927 C 1.01206 0.23884 0.96822 0.0
C1928 C 1.00369 0.22074 0.97694 0.0
C1929 C 0.98197 0.22304 0.98038 0.0
C1930 C 0.96858 0.24347 0.97522 0.0
C1931 C 0.89743 0.32383 0.88621 0.0
C1932 C 0.88256 0.31083 0.89198 0.0
C1933 C 0.91462 0.32122 0.90049 0.0
C1934 C 0.91706 0.30592 0.9213 0.0
C1935 C 0.90295 0.2919 0.92601 0.0
C1936 C 0.88586 0.29433 0.91148 0.0
C1937 C 0.93348 0.30536 0.93892 0.0
C1938 C 0.94709 0.28517 0.94503 0.0
C1939 C 0.93569 0.32457 0.94987 0.0
C1940 C 0.92124 0.34628 0.94539 0.0
C1941 C 0.89948 0.34886 0.95078 0.0
C1942 C 0.88593 0.36928 0.94605 0.0
C1943 C 0.89399 0.38731 0.93618 0.0
C1944 C 0.91562 0.38496 0.93109 0.0
C1945 C 0.92923 0.36456 0.93572 0.0
H1946 H 0.88348 0.4031 0.93252 0.0
H1947 H 1.01402 0.20491 0.98099 0.0
H1948 H 0.80489 0.92878 0.96242 0.0
H1949 H 0.79407 0.90416 0.93608 0.0
H1950 H 0.7565 0.96017 0.8969 0.0
H1951 H 0.76662 0.98497 0.9244 0.0
H1952 H 0.7376 0.9274 0.89986 0.0
H1953 H 0.80702 0.93433 0.87315 0.0
H1954 H 0.84428 0.93402 0.87586 0.0
H1955 H 0.85628 0.86539 0.90008 0.0
H1956 H 0.81903 0.86536 0.89788 0.0
H1957 H 0.74241 0.86644 0.78955 0.0
H1958 H 0.74194 0.89253 0.82139 0.0
H1959 H 0.77737 0.84009 0.86755 0.0
H1960 H 0.77872 0.81439 0.83535 0.0
H1961 H 0.79615 0.87298 0.85938 0.0
H1962 H 0.72403 0.86806 0.88454 0.0
H1963 H 0.68695 0.87073 0.87742 0.0
H1964 H 0.68095 0.93813 0.85002 0.0
H1965 H 0.7179 0.93593 0.85691 0.0
C1966 C 0.79404 0.93583 0.94845 0.0
C1967 C 0.78671 0.95875 0.94526 0.0
C1968 C 0.78798 0.92176 0.93326 0.0
C1969 C 0.77501 0.93029 0.9139 0.0
C1970 C 0.76669 0.95318 0.91155 0.0
C1971 C 0.77241 0.96733 0.92725 0.0
C1972 C 0.77111 0.91526 0.89562 0.0
C1973 C 0.75042 0.91564 0.89082 0.0
C1974 C 0.7878 0.89986 0.88372 0.0
C1975 C 0.81016 0.89992 0.88561 0.0
C1976 C 0.81756 0.91923 0.87931 0.0
C1977 C 0.83869 0.9191 0.88071 0.0
C1978 C 0.85263 0.89972 0.88821 0.0
C1979 C 0.84546 0.88042 0.89435 0.0
C1980 C 0.82433 0.88046 0.89303 0.0
C1981 C 0.74965 0.86043 0.8068 0.0
C1982 C 0.76042 0.83832 0.81004 0.0
C1983 C 0.74926 0.87532 0.82507 0.0
C1984 C 0.75952 0.8683 0.84701 0.0
C1985 C 0.7693 0.84593 0.85083 0.0
C1986 C 0.76992 0.83115 0.83246 0.0
C1987 C 0.76262 0.88452 0.8643 0.0
C1988 C 0.78329 0.88455 0.86865 0.0
C1989 C 0.74595 0.90054 0.87521 0.0
C1990 C 0.72377 0.90176 0.87103 0.0
C1991 C 0.71484 0.88339 0.87681 0.0
C1992 C 0.69386 0.88482 0.87286 0.0
C1993 C 0.68168 0.90451 0.86316 0.0
C1994 C 0.69041 0.92287 0.85749 0.0
C1995 C 0.71134 0.92157 0.86148 0.0
H1996 H 0.66546 0.90556 0.8601 0.0
H1997 H 0.86899 0.89963 0.8892 0.0
H1998 H 0.94252 0.78661 0.04899 0.0
H1999 H 0.91471 0.79017 0.08368 0.0
H2000 H 0.96149 0.76766 0.13642 0.0
H2001 H 0.98908 0.76387 0.10173 0.0
H2002 H 0.93306 0.74562 0.14717 0.0
H2003 H 0.92802 0.82358 0.12987 0.0
H2004 H 0.92233 0.85922 0.10523 0.0
H2005 H 0.86095 0.85289 0.09113 0.0
H2006 H 0.8665 0.81695 0.11512 0.0
H2007 H 0.86809 0.75858 0.26143 0.0
H2008 H 0.89362 0.75945 0.22535 0.0
H2009 H 0.84367 0.79008 0.17926 0.0
H2010 H 0.8182 0.79034 0.21579 0.0
H2011 H 0.87246 0.80801 0.16338 0.0
H2012 H 0.87762 0.73001 0.174 0.0
H2013 H 0.88192 0.69302 0.19575 0.0
H2014 H 0.94075 0.69852 0.21967 0.0
H2015 H 0.93691 0.73534 0.19769 0.0
C2016 C 0.94692 0.78332 0.06808 0.0
C2017 C 0.96826 0.77576 0.07246 0.0
C2018 C 0.93089 0.7852 0.08809 0.0
C2019 C 0.9356 0.77938 0.11323 0.0
C2020 C 0.95703 0.77239 0.11752 0.0
C2021 C 0.97298 0.77052 0.09758 0.0
C2022 C 0.91857 0.77874 0.13475 0.0
C2023 C 0.92004 0.75952 0.1508 0.0
C2024 C 0.90071 0.79625 0.13939 0.0
C2025 C 0.89776 0.81744 0.12411 0.0
C2026 C 0.91343 0.82963 0.12122 0.0
C2027 C 0.91022 0.84992 0.10739 0.0
C2028 C 0.89132 0.85829 0.09655 0.0
C2029 C 0.87561 0.84636 0.09946 0.0
C2030 C 0.87879 0.82603 0.11315 0.0
C2031 C 0.86243 0.7652 0.24349 0.0
C2032 C 0.8408 0.77382 0.24171 0.0
C2033 C 0.87719 0.76551 0.22252 0.0
C2034 C 0.871 0.77418 0.19861 0.0
C2035 C 0.8493 0.78294 0.19692 0.0
C2036 C 0.83451 0.78287 0.21802 0.0
C2037 C 0.88713 0.77496 0.176 0.0
C2038 C 0.88548 0.79413 0.15973 0.0
C2039 C 0.90466 0.75727 0.17075 0.0
C2040 C 0.9068 0.73548 0.18455 0.0
C2041 C 0.89133 0.72336 0.18413 0.0
C2042 C 0.89374 0.70242 0.19639 0.0
C2043 C 0.91149 0.69353 0.2093 0.0
C2044 C 0.92697 0.70546 0.20975 0.0
C2045 C 0.92474 0.72631 0.19729 0.0
H2046 H 0.91329 0.67734 0.21883 0.0
H2047 H 0.88883 0.87404 0.08596 0.0
H2048 H 0.25905 1.00413 0.15953 0.0
H2049 H 0.26887 0.96775 0.18051 0.0
H2050 H 0.32003 0.94961 0.1239 0.0
H2051 H 0.31007 0.98643 0.10239 0.0
H2052 H 0.29719 0.91746 0.13408 0.0
H2053 H 0.3292 0.95953 0.18265 0.0
H2054 H 0.33085 0.99035 0.20769 0.0
H2055 H 0.28399 0.97297 0.26215 0.0
H2056 H 0.28183 0.94223 0.23726 0.0
H2057 H 0.33312 0.81508 0.20325 0.0
H2058 H 0.33226 0.85135 0.18141 0.0
H2059 H 0.28146 0.88069 0.23397 0.0
H2060 H 0.28223 0.8447 0.25551 0.0
H2061 H 0.30864 0.90664 0.22465 0.0
H2062 H 0.2729 0.86865 0.17567 0.0
H2063 H 0.26875 0.83831 0.15143 0.0
H2064 H 0.31978 0.84847 0.09878 0.0
H2065 H 0.32444 0.87869 0.12295 0.0
C2066 C 0.27252 0.99255 0.15149 0.0
C2067 C 0.28379 0.99834 0.1292 0.0
C2068 C 0.27818 0.97169 0.16368 0.0
C2069 C 0.29536 0.9559 0.15406 0.0
C2070 C 0.30677 0.96153 0.1318 0.0
C2071 C 0.30114 0.98261 0.11958 0.0
C2072 C 0.30065 0.9334 0.16697 0.0
C2073 C 0.30018 0.91505 0.15374 0.0
C2074 C 0.30389 0.93022 0.19288 0.0
C2075 C 0.3052 0.94869 0.20792 0.0
C2076 C 0.31911 0.96239 0.19984 0.0
C2077 C 0.32017 0.97983 0.21404 0.0
C2078 C 0.3075 0.98366 0.23646 0.0
C2079 C 0.29378 0.97001 0.24476 0.0
C2080 C 0.29264 0.95257 0.23062 0.0
C2081 C 0.3219 0.82934 0.21022 0.0
C2082 C 0.30802 0.82702 0.23143 0.0
C2083 C 0.32136 0.85005 0.19768 0.0
C2084 C 0.30667 0.86884 0.20586 0.0
C2085 C 0.29298 0.86655 0.22725 0.0
C2086 C 0.29349 0.84588 0.23968 0.0
C2087 C 0.30499 0.89077 0.19181 0.0
C2088 C 0.30603 0.90901 0.20487 0.0
C2089 C 0.30195 0.8939 0.16587 0.0
C2090 C 0.29918 0.87576 0.15129 0.0
C2091 C 0.28335 0.8643 0.15904 0.0
C2092 C 0.28089 0.84714 0.14529 0.0
C2093 C 0.29404 0.84142 0.12361 0.0
C2094 C 0.30964 0.85289 0.11561 0.0
C2095 C 0.3122 0.87004 0.12932 0.0
H2096 H 0.2921 0.82813 0.11299 0.0
H2097 H 0.30835 0.99716 0.24743 0.0
H2098 H 0.81319 0.03983 0.06517 0.0
H2099 H 0.80233 0.06933 0.0939 0.0
H2100 H 0.74835 0.09712 0.05278 0.0
H2101 H 0.75928 0.06725 0.02362 0.0
H2102 H 0.77178 0.12767 0.0609 0.0
H2103 H 0.74089 0.07436 0.11006 0.0
H2104 H 0.73978 0.03784 0.13059 0.0
H2105 H 0.78886 0.04193 0.17578 0.0
H2106 H 0.79047 0.07838 0.15529 0.0
H2107 H 0.72859 0.20796 0.14937 0.0
H2108 H 0.73564 0.17834 0.12068 0.0
H2109 H 0.78724 0.14327 0.16232 0.0
H2110 H 0.77975 0.17274 0.19178 0.0
H2111 H 0.76281 0.11647 0.1536 0.0
H2112 H 0.7952 0.16841 0.10365 0.0
H2113 H 0.79766 0.2044 0.08258 0.0
H2114 H 0.7473 0.20242 0.0384 0.0
H2115 H 0.74433 0.16654 0.05947 0.0
C2116 C 0.79883 0.05203 0.06239 0.0
C2117 C 0.78707 0.05128 0.04214 0.0
C2118 C 0.7926 0.06884 0.07892 0.0
C2119 C 0.77449 0.08537 0.07557 0.0
C2120 C 0.76236 0.08445 0.05571 0.0
C2121 C 0.7685 0.06735 0.03921 0.0
C2122 C 0.76929 0.10417 0.09204 0.0
C2123 C 0.76935 0.12534 0.08115 0.0
C2124 C 0.76689 0.10094 0.11849 0.0
C2125 C 0.76589 0.07907 0.131 0.0
C2126 C 0.75156 0.06742 0.12425 0.0
C2127 C 0.75082 0.04674 0.1359 0.0
C2128 C 0.76426 0.03757 0.15445 0.0
C2129 C 0.77845 0.04907 0.16141 0.0
C2130 C 0.77926 0.06976 0.14981 0.0
C2131 C 0.74152 0.19399 0.15239 0.0
C2132 C 0.75352 0.1926 0.17298 0.0
C2133 C 0.74563 0.17713 0.13582 0.0
C2134 C 0.76203 0.15859 0.13923 0.0
C2135 C 0.77448 0.15743 0.15934 0.0
C2136 C 0.77033 0.17435 0.17601 0.0
C2137 C 0.76543 0.14003 0.12249 0.0
C2138 C 0.76507 0.11888 0.13335 0.0
C2139 C 0.76769 0.14327 0.096 0.0
C2140 C 0.7694 0.16488 0.08334 0.0
C2141 C 0.78452 0.17573 0.08961 0.0
C2142 C 0.78604 0.1961 0.07763 0.0
C2143 C 0.77261 0.20572 0.05922 0.0
C2144 C 0.75767 0.19496 0.0527 0.0
C2145 C 0.75608 0.1746 0.06464 0.0
H2146 H 0.77382 0.22148 0.04996 0.0
H2147 H 0.76362 0.02158 0.16347 0.0
H2148 H 0.58324 0.58075 0.87779 0.0
H2149 H 0.60791 0.60493 0.87192 0.0
H2150 H 0.58902 0.62483 0.79724 0.0
H2151 H 0.56462 0.60025 0.80293 0.0
H2152 H 0.62963 0.6173 0.79614 0.0
H2153 H 0.57344 0.65939 0.84695 0.0
H2154 H 0.54677 0.66665 0.88278 0.0
H2155 H 0.59515 0.65292 0.93367 0.0
H2156 H 0.62212 0.64527 0.89817 0.0
H2157 H 0.68855 0.70088 0.78419 0.0
H2158 H 0.65768 0.68468 0.78802 0.0
H2159 H 0.67582 0.652 0.85897 0.0
H2160 H 0.70646 0.66831 0.85537 0.0
H2161 H 0.63287 0.6699 0.8593 0.0
H2162 H 0.68844 0.62453 0.80742 0.0
H2163 H 0.71464 0.61856 0.77095 0.0
H2164 H 0.66589 0.64049 0.72105 0.0
H2165 H 0.63942 0.64689 0.75727 0.0
C2166 C 0.5842 0.59045 0.86023 0.0
C2167 C 0.57197 0.58866 0.84085 0.0
C2168 C 0.59828 0.60431 0.85689 0.0
C2169 C 0.6001 0.61701 0.83427 0.0
C2170 C 0.58789 0.61523 0.81486 0.0
C2171 C 0.57399 0.60116 0.8181 0.0
C2172 C 0.61523 0.63159 0.83066 0.0
C2173 C 0.63004 0.6291 0.80973 0.0
C2174 C 0.61597 0.64688 0.84847 0.0
C2175 C 0.5998 0.65159 0.86989 0.0
C2176 C 0.57839 0.65777 0.86579 0.0
C2177 C 0.56322 0.66198 0.88605 0.0
C2178 C 0.56926 0.66021 0.91049 0.0
C2179 C 0.59049 0.65428 0.91473 0.0
C2180 C 0.60573 0.65003 0.89454 0.0
C2181 C 0.68573 0.69053 0.80076 0.0
C2182 C 0.69995 0.68569 0.8194 0.0
C2183 C 0.66819 0.68121 0.80287 0.0
C2184 C 0.66461 0.66699 0.82368 0.0
C2185 C 0.67832 0.66291 0.84277 0.0
C2186 C 0.69589 0.67208 0.84059 0.0
C2187 C 0.64732 0.65528 0.82509 0.0
C2188 C 0.63217 0.65831 0.8456 0.0
C2189 C 0.64613 0.64065 0.80679 0.0
C2190 C 0.66199 0.6364 0.78504 0.0
C2191 C 0.68333 0.62821 0.78867 0.0
C2192 C 0.69822 0.62474 0.76805 0.0
C2193 C 0.69194 0.62921 0.7437 0.0
C2194 C 0.67074 0.63707 0.73992 0.0
C2195 C 0.65578 0.64061 0.76049 0.0
H2196 H 0.7035 0.62653 0.72776 0.0
H2197 H 0.55748 0.66347 0.92615 0.0
H2198 H 0.48944 0.60906 0.80931 0.0
H2199 H 0.45835 0.63889 0.80414 0.0
H2200 H 0.42277 0.5913 0.7919 0.0
H2201 H 0.45419 0.56145 0.79649 0.0
H2202 H 0.4094 0.62845 0.76346 0.0
H2203 H 0.42182 0.61198 0.8503 0.0
H2204 H 0.44233 0.60653 0.88723 0.0
H2205 H 0.44934 0.67339 0.87672 0.0
H2206 H 0.42912 0.67915 0.83949 0.0
H2207 H 0.30876 0.69846 0.79217 0.0
H2208 H 0.33991 0.66811 0.79251 0.0
H2209 H 0.37696 0.71298 0.8091 0.0
H2210 H 0.34592 0.743 0.80938 0.0
H2211 H 0.38929 0.67662 0.8351 0.0
H2212 H 0.37905 0.69204 0.74618 0.0
H2213 H 0.3564 0.69809 0.71109 0.0
H2214 H 0.34323 0.634 0.72816 0.0
H2215 H 0.36616 0.62745 0.7628 0.0
C2216 C 0.47519 0.60505 0.80457 0.0
C2217 C 0.47443 0.58295 0.80267 0.0
C2218 C 0.45726 0.62211 0.802 0.0
C2219 C 0.43788 0.6175 0.79812 0.0
C2220 C 0.4374 0.59546 0.79489 0.0
C2221 C 0.45543 0.57837 0.7973 0.0
C2222 C 0.41805 0.63537 0.79912 0.0
C2223 C 0.40499 0.63881 0.77927 0.0
C2224 C 0.41208 0.6493 0.81951 0.0
C2225 C 0.42414 0.64592 0.84196 0.0
C2226 C 0.42786 0.62547 0.85576 0.0
C2227 C 0.43942 0.62233 0.87676 0.0
C2228 C 0.44718 0.63958 0.88428 0.0
C2229 C 0.44335 0.66003 0.87085 0.0
C2230 C 0.43184 0.66325 0.84981 0.0
C2231 C 0.32349 0.70183 0.79612 0.0
C2232 C 0.32455 0.72324 0.80135 0.0
C2233 C 0.34146 0.68443 0.79605 0.0
C2234 C 0.36116 0.68808 0.80042 0.0
C2235 C 0.36213 0.70945 0.8058 0.0
C2236 C 0.34416 0.72669 0.80629 0.0
C2237 C 0.38077 0.66987 0.79934 0.0
C2238 C 0.39378 0.66635 0.81922 0.0
C2239 C 0.38671 0.65593 0.77901 0.0
C2240 C 0.3743 0.65924 0.75698 0.0
C2241 C 0.37149 0.67917 0.74218 0.0
C2242 C 0.35864 0.68267 0.72234 0.0
C2243 C 0.34849 0.66638 0.7172 0.0
C2244 C 0.35132 0.6465 0.7318 0.0
C2245 C 0.36434 0.64281 0.75144 0.0
H2246 H 0.33837 0.66919 0.702 0.0
H2247 H 0.45612 0.63712 0.90054 0.0
H2248 H 0.46351 0.49484 0.81749 0.0
H2249 H 0.44105 0.46968 0.81285 0.0
H2250 H 0.47148 0.42508 0.87048 0.0
H2251 H 0.49479 0.44958 0.87432 0.0
H2252 H 0.46602 0.40264 0.8332 0.0
H2253 H 0.42245 0.45984 0.88187 0.0
H2254 H 0.40522 0.49808 0.89133 0.0
H2255 H 0.37272 0.50566 0.82455 0.0
H2256 H 0.38998 0.46753 0.81453 0.0
H2257 H 0.38677 0.34398 0.87493 0.0
H2258 H 0.41272 0.36683 0.86949 0.0
H2259 H 0.38392 0.40072 0.80426 0.0
H2260 H 0.35798 0.37765 0.80952 0.0
H2261 H 0.38862 0.42871 0.841 0.0
H2262 H 0.43034 0.36927 0.7952 0.0
H2263 H 0.44723 0.33058 0.78762 0.0
H2264 H 0.48278 0.32662 0.85134 0.0
H2265 H 0.46587 0.36522 0.85954 0.0
C2266 C 0.46564 0.47961 0.82904 0.0
C2267 C 0.48106 0.47435 0.84631 0.0
C2268 C 0.45259 0.46531 0.82652 0.0
C2269 C 0.45439 0.44558 0.84151 0.0
C2270 C 0.46977 0.44022 0.85872 0.0
C2271 C 0.48295 0.45443 0.8611 0.0
C2272 C 0.44022 0.43055 0.83938 0.0
C2273 C 0.44909 0.40831 0.83515 0.0
C2274 C 0.41813 0.43803 0.84128 0.0
C2275 C 0.40768 0.46092 0.84731 0.0
C2276 C 0.41175 0.46972 0.86911 0.0
C2277 C 0.40196 0.49136 0.87459 0.0
C2278 C 0.38793 0.50431 0.85851 0.0
C2279 C 0.38362 0.49562 0.83696 0.0
C2280 C 0.39339 0.474 0.83138 0.0
C2281 C 0.38623 0.35604 0.85918 0.0
C2282 C 0.37042 0.35911 0.84264 0.0
C2283 C 0.40107 0.36902 0.85605 0.0
C2284 C 0.40023 0.38542 0.83645 0.0
C2285 C 0.38483 0.38809 0.81945 0.0
C2286 C 0.37014 0.37487 0.82237 0.0
C2287 C 0.41443 0.40083 0.83512 0.0
C2288 C 0.40555 0.42313 0.83877 0.0
C2289 C 0.43648 0.39334 0.83296 0.0
C2290 C 0.44669 0.37011 0.82811 0.0
C2291 C 0.44162 0.3601 0.80774 0.0
C2292 C 0.45123 0.33819 0.8033 0.0
C2293 C 0.46603 0.32613 0.81902 0.0
C2294 C 0.47129 0.33597 0.83919 0.0
C2295 C 0.46172 0.35788 0.84372 0.0
H2296 H 0.47346 0.30917 0.81554 0.0
H2297 H 0.38037 0.52106 0.86279 0.0
H2298 H 0.56826 0.46838 0.78337 0.0
H2299 H 0.59814 0.43688 0.77566 0.0
H2300 H 0.63816 0.46984 0.8096 0.0
H2301 H 0.60851 0.50086 0.81765 0.0
H2302 H 0.65861 0.44819 0.76739 0.0
H2303 H 0.61688 0.4326 0.84357 0.0
H2304 H 0.58428 0.42763 0.86792 0.0
H2305 H 0.58109 0.3758 0.82161 0.0
H2306 H 0.61354 0.38071 0.79674 0.0
H2307 H 0.74398 0.36548 0.80447 0.0
H2308 H 0.7129 0.39531 0.80315 0.0
H2309 H 0.67757 0.35051 0.78194 0.0
H2310 H 0.70856 0.32012 0.78453 0.0
H2311 H 0.65338 0.37699 0.81274 0.0
H2312 H 0.69661 0.38932 0.73886 0.0
H2313 H 0.72902 0.39391 0.71368 0.0
H2314 H 0.72912 0.45105 0.7529 0.0
H2315 H 0.6969 0.44666 0.77859 0.0
C2316 C 0.58356 0.46912 0.78853 0.0
C2317 C 0.58601 0.48723 0.80098 0.0
C2318 C 0.60062 0.45101 0.78435 0.0
C2319 C 0.62051 0.45079 0.79221 0.0
C2320 C 0.62312 0.46947 0.8033 0.0
C2321 C 0.60609 0.48727 0.80787 0.0
C2322 C 0.63833 0.4308 0.79062 0.0
C2323 C 0.65748 0.43264 0.77737 0.0
C2324 C 0.63689 0.41024 0.80309 0.0
C2325 C 0.61747 0.40721 0.81811 0.0
C2326 C 0.60912 0.42028 0.83845 0.0
C2327 C 0.59069 0.41745 0.85237 0.0
C2328 C 0.58058 0.40146 0.84627 0.0
C2329 C 0.58892 0.38822 0.82628 0.0
C2330 C 0.60733 0.39101 0.81227 0.0
C2331 C 0.72957 0.36172 0.79999 0.0
C2332 C 0.72894 0.34011 0.79494 0.0
C2333 C 0.71174 0.37903 0.79881 0.0
C2334 C 0.69275 0.37551 0.7919 0.0
C2335 C 0.69193 0.35387 0.78722 0.0
C2336 C 0.70976 0.33643 0.78868 0.0
C2337 C 0.67388 0.39437 0.78974 0.0
C2338 C 0.65452 0.39237 0.80237 0.0
C2339 C 0.67509 0.41471 0.77641 0.0
C2340 C 0.69437 0.41757 0.76079 0.0
C2341 C 0.7036 0.4028 0.74222 0.0
C2342 C 0.72193 0.40537 0.72785 0.0
C2343 C 0.7311 0.42275 0.73172 0.0
C2344 C 0.72197 0.43761 0.74993 0.0
C2345 C 0.70366 0.4351 0.76439 0.0
H2346 H 0.74525 0.42473 0.72059 0.0
H2347 H 0.56631 0.39929 0.85707 0.0
H2348 H 0.59816 0.48512 0.25703 0.0
H2349 H 0.6303 0.45609 0.24944 0.0
H2350 H 0.62886 0.43728 0.32857 0.0
H2351 H 0.59745 0.46574 0.3362 0.0
H2352 H 0.66711 0.44083 0.31158 0.0
H2353 H 0.61456 0.40652 0.28469 0.0
H2354 H 0.58668 0.40379 0.25842 0.0
H2355 H 0.62898 0.40501 0.19221 0.0
H2356 H 0.65704 0.40802 0.21808 0.0
H2357 H 0.73755 0.33796 0.32523 0.0
H2358 H 0.70707 0.36876 0.32438 0.0
H2359 H 0.71348 0.37186 0.24341 0.0
H2360 H 0.74324 0.33986 0.24439 0.0
H2361 H 0.67466 0.37919 0.2563 0.0
H2362 H 0.72792 0.41131 0.28267 0.0
H2363 H 0.7561 0.41397 0.30852 0.0
H2364 H 0.71309 0.41794 0.37459 0.0
H2365 H 0.68471 0.41506 0.34917 0.0
C2366 C 0.60467 0.47469 0.27273 0.0
C2367 C 0.59513 0.478 0.29724 0.0
C2368 C 0.62305 0.45804 0.26839 0.0
C2369 C 0.6322 0.44437 0.28847 0.0
C2370 C 0.62241 0.44758 0.31274 0.0
C2371 C 0.60425 0.46399 0.31704 0.0
C2372 C 0.65213 0.42698 0.28501 0.0
C2373 C 0.66868 0.42731 0.29954 0.0
C2374 C 0.65466 0.40957 0.2688 0.0
C2375 C 0.63781 0.40777 0.25329 0.0
C2376 C 0.61786 0.4064 0.26451 0.0
C2377 C 0.60204 0.40476 0.2497 0.0
C2378 C 0.60604 0.40431 0.22365 0.0
C2379 C 0.62589 0.40542 0.21238 0.0
C2380 C 0.64176 0.40708 0.2271 0.0
C2381 C 0.7327 0.34545 0.30722 0.0
C2382 C 0.74315 0.33674 0.28486 0.0
C2383 C 0.7152 0.36319 0.30671 0.0
C2384 C 0.70807 0.37337 0.28379 0.0
C2385 C 0.71855 0.3646 0.2614 0.0
C2386 C 0.73573 0.34639 0.26194 0.0
C2387 C 0.68953 0.39277 0.28334 0.0
C2388 C 0.67327 0.39284 0.26808 0.0
C2389 C 0.68728 0.41072 0.29877 0.0
C2390 C 0.70422 0.41289 0.31402 0.0
C2391 C 0.72449 0.4127 0.30272 0.0
C2392 C 0.7405 0.41424 0.31729 0.0
C2393 C 0.73639 0.4161 0.34318 0.0
C2394 C 0.71625 0.41651 0.35453 0.0
C2395 C 0.70019 0.41497 0.34005 0.0
H2396 H 0.74881 0.41726 0.35443 0.0
H2397 H 0.59378 0.40303 0.21222 0.0
H2398 H 0.57784 0.60467 0.35249 0.0
H2399 H 0.60482 0.62615 0.34413 0.0
H2400 H 0.63928 0.57891 0.29219 0.0
H2401 H 0.6128 0.55707 0.30104 0.0
H2402 H 0.66532 0.59141 0.32055 0.0
H2403 H 0.60751 0.62783 0.27199 0.0
H2404 H 0.57071 0.64622 0.26626 0.0
H2405 H 0.5742 0.69604 0.31524 0.0
H2406 H 0.61096 0.67777 0.32151 0.0
H2407 H 0.72923 0.64945 0.24247 0.0
H2408 H 0.70309 0.62933 0.26043 0.0
H2409 H 0.67438 0.68312 0.30702 0.0
H2410 H 0.69995 0.7039 0.2882 0.0
H2411 H 0.6452 0.6689 0.28649 0.0
H2412 H 0.70398 0.63476 0.33191 0.0
H2413 H 0.74086 0.61672 0.33751 0.0
H2414 H 0.73575 0.56298 0.2953 0.0
H2415 H 0.69891 0.58084 0.28914 0.0
C2416 C 0.5913 0.59868 0.33958 0.0
C2417 C 0.59302 0.57921 0.32727 0.0
C2418 C 0.60663 0.61109 0.33464 0.0
C2419 C 0.62395 0.60432 0.31725 0.0
C2420 C 0.62603 0.58454 0.30559 0.0
C2421 C 0.61075 0.57215 0.3105 0.0
C2422 C 0.63968 0.618 0.31054 0.0
C2423 C 0.66094 0.60831 0.31295 0.0
C2424 C 0.63394 0.64027 0.30131 0.0
C2425 C 0.61189 0.6513 0.29744 0.0
C2426 C 0.60038 0.64261 0.28169 0.0
C2427 C 0.57954 0.65303 0.27832 0.0
C2428 C 0.57011 0.67225 0.29044 0.0
C2429 C 0.58152 0.68113 0.3059 0.0
C2430 C 0.60235 0.67076 0.30936 0.0
C2431 C 0.71728 0.65714 0.25637 0.0
C2432 C 0.71671 0.67839 0.26376 0.0
C2433 C 0.70247 0.64546 0.26689 0.0
C2434 C 0.68689 0.65456 0.28534 0.0
C2435 C 0.68629 0.67571 0.29289 0.0
C2436 C 0.70106 0.68749 0.28226 0.0
C2437 C 0.6709 0.64218 0.29605 0.0
C2438 C 0.6496 0.6521 0.2944 0.0
C2439 C 0.67659 0.62014 0.30606 0.0
C2440 C 0.6987 0.60922 0.30993 0.0
C2441 C 0.71075 0.61916 0.32369 0.0
C2442 C 0.73165 0.60896 0.32698 0.0
C2443 C 0.74066 0.58873 0.31673 0.0
C2444 C 0.72876 0.57864 0.30322 0.0
C2445 C 0.70785 0.58879 0.29986 0.0
H2446 H 0.75684 0.58086 0.31929 0.0
H2447 H 0.55397 0.68029 0.28781 0.0
H2448 H 0.51303 0.60842 0.2881 0.0
H2449 H 0.48489 0.64132 0.28169 0.0
H2450 H 0.44247 0.59993 0.27201 0.0
H2451 H 0.47072 0.56707 0.27828 0.0
H2452 H 0.43441 0.63684 0.24101 0.0
H2453 H 0.44392 0.62038 0.32849 0.0
H2454 H 0.46365 0.61306 0.36613 0.0
H2455 H 0.47802 0.67697 0.35471 0.0
H2456 H 0.45862 0.68453 0.31675 0.0
H2457 H 0.33735 0.70977 0.26976 0.0
H2458 H 0.36796 0.67937 0.26986 0.0
H2459 H 0.40603 0.72363 0.28527 0.0
H2460 H 0.37492 0.75433 0.28596 0.0
H2461 H 0.41759 0.68642 0.31149 0.0
H2462 H 0.40614 0.70335 0.22448 0.0
H2463 H 0.38543 0.71026 0.18765 0.0
H2464 H 0.37372 0.6452 0.19884 0.0
H2465 H 0.39414 0.63799 0.23595 0.0
C2466 C 0.49793 0.60641 0.28357 0.0
C2467 C 0.49424 0.58519 0.28294 0.0
C2468 C 0.48172 0.62523 0.28031 0.0
C2469 C 0.46133 0.62325 0.27672 0.0
C2470 C 0.45798 0.60203 0.27469 0.0
C2471 C 0.47419 0.58322 0.27804 0.0
C2472 C 0.44329 0.64303 0.27678 0.0
C2473 C 0.43066 0.64756 0.25653 0.0
C2474 C 0.4384 0.65739 0.29679 0.0
C2475 C 0.45004 0.65291 0.31961 0.0
C2476 C 0.45144 0.63279 0.33388 0.0
C2477 C 0.46254 0.62861 0.35529 0.0
C2478 C 0.47214 0.64451 0.36276 0.0
C2479 C 0.47061 0.66465 0.34886 0.0
C2480 C 0.45957 0.66889 0.3274 0.0
C2481 C 0.35223 0.71323 0.27287 0.0
C2482 C 0.35366 0.73475 0.27724 0.0
C2483 C 0.36986 0.69569 0.27288 0.0
C2484 C 0.38966 0.69911 0.27676 0.0
C2485 C 0.39107 0.72047 0.2819 0.0
C2486 C 0.37326 0.73807 0.28225 0.0
C2487 C 0.40866 0.68031 0.27569 0.0
C2488 C 0.42142 0.67588 0.29582 0.0
C2489 C 0.41361 0.666 0.2556 0.0
C2490 C 0.4016 0.67017 0.23306 0.0
C2491 C 0.39909 0.69054 0.21914 0.0
C2492 C 0.38741 0.69451 0.19821 0.0
C2493 C 0.3783 0.67816 0.19089 0.0
C2494 C 0.38083 0.65782 0.2045 0.0
C2495 C 0.39248 0.65378 0.22546 0.0
H2496 H 0.36925 0.68127 0.17469 0.0
H2497 H 0.48072 0.64125 0.37935 0.0
H2498 H 0.49237 0.45741 0.35273 0.0
H2499 H 0.4665 0.43702 0.34399 0.0
H2500 H 0.44614 0.48511 0.28407 0.0
H2501 H 0.47171 0.50572 0.29298 0.0
H2502 H 0.41299 0.47406 0.31334 0.0
H2503 H 0.47839 0.43603 0.27147 0.0
H2504 H 0.51546 0.41604 0.26903 0.0
H2505 H 0.50011 0.36603 0.32254 0.0
H2506 H 0.46297 0.38593 0.32557 0.0
H2507 H 0.36041 0.41837 0.24053 0.0
H2508 H 0.38397 0.43779 0.25691 0.0
H2509 H 0.40156 0.38388 0.31173 0.0
H2510 H 0.37825 0.36412 0.29503 0.0
H2511 H 0.43553 0.39661 0.28921 0.0
H2512 H 0.37081 0.43232 0.33043 0.0
H2513 H 0.33366 0.45176 0.33516 0.0
H2514 H 0.34716 0.50517 0.2856 0.0
H2515 H 0.38443 0.48596 0.28046 0.0
C2516 C 0.48225 0.46376 0.33787 0.0
C2517 C 0.48419 0.48316 0.32348 0.0
C2518 C 0.46758 0.45199 0.33276 0.0
C2519 C 0.45451 0.45941 0.31321 0.0
C2520 C 0.4561 0.47902 0.29919 0.0
C2521 C 0.47084 0.4907 0.30418 0.0
C2522 C 0.43928 0.44672 0.30711 0.0
C2523 C 0.41794 0.4572 0.30781 0.0
C2524 C 0.44563 0.42447 0.30074 0.0
C2525 C 0.46796 0.41258 0.29897 0.0
C2526 C 0.48295 0.42088 0.2829 0.0
C2527 C 0.50397 0.40955 0.28137 0.0
C2528 C 0.51015 0.38981 0.29568 0.0
C2529 C 0.49531 0.38134 0.31151 0.0
C2530 C 0.47428 0.39263 0.31313 0.0
C2531 C 0.36931 0.41062 0.25605 0.0
C2532 C 0.36748 0.38966 0.26642 0.0
C2533 C 0.38263 0.42184 0.26557 0.0
C2534 C 0.39442 0.41242 0.28573 0.0
C2535 C 0.39257 0.39153 0.29623 0.0
C2536 C 0.37914 0.38032 0.28678 0.0
C2537 C 0.40925 0.42407 0.29503 0.0
C2538 C 0.43053 0.41341 0.29492 0.0
C2539 C 0.40282 0.44609 0.30218 0.0
C2540 C 0.38038 0.4576 0.30488 0.0
C2541 C 0.36583 0.44812 0.32035 0.0
C2542 C 0.34475 0.45913 0.32315 0.0
C2543 C 0.33802 0.47966 0.31061 0.0
C2544 C 0.35238 0.48925 0.29528 0.0
C2545 C 0.3735 0.47833 0.29246 0.0
H2546 H 0.32171 0.48819 0.31283 0.0
H2547 H 0.52642 0.38106 0.29445 0.0
H2548 H 0.82506 0.62435 0.58083 0.0
H2549 H 0.8252 0.6519 0.61061 0.0
H2550 H 0.79532 0.61485 0.66864 0.0
H2551 H 0.79458 0.5876 0.63877 0.0
H2552 H 0.77664 0.65567 0.67035 0.0
H2553 H 0.84875 0.61731 0.66622 0.0
H2554 H 0.88374 0.60169 0.6458 0.0
H2555 H 0.88916 0.66622 0.61602 0.0
H2556 H 0.85407 0.6822 0.636 0.0
H2557 H 0.8213 0.71199 0.76747 0.0
H2558 H 0.82665 0.68409 0.7363 0.0
H2559 H 0.78254 0.72827 0.69097 0.0
H2560 H 0.77729 0.75616 0.72188 0.0
H2561 H 0.83929 0.68324 0.68427 0.0
H2562 H 0.7507 0.69665 0.6724 0.0
H2563 H 0.71648 0.70735 0.69695 0.0
H2564 H 0.74598 0.68622 0.76525 0.0
H2565 H 0.78031 0.67543 0.74122 0.0
C2566 C 0.81871 0.62192 0.6 0.0
C2567 C 0.80982 0.6037 0.60736 0.0
C2568 C 0.81886 0.6377 0.61708 0.0
C2569 C 0.81042 0.63548 0.64205 0.0
C2570 C 0.80188 0.61707 0.64952 0.0
C2571 C 0.80155 0.6014 0.63241 0.0
C2572 C 0.80967 0.6527 0.66013 0.0
C2573 C 0.79039 0.66167 0.67326 0.0
C2574 C 0.82759 0.66047 0.66439 0.0
C2575 C 0.8487 0.65091 0.6524 0.0
C2576 C 0.85733 0.62815 0.65515 0.0
C2577 C 0.8772 0.61923 0.64369 0.0
C2578 C 0.88864 0.63295 0.62957 0.0
C2579 C 0.88027 0.65561 0.62693 0.0
C2580 C 0.8604 0.66461 0.63834 0.0
C2581 C 0.8131 0.71586 0.75058 0.0
C2582 C 0.7991 0.73634 0.74697 0.0
C2583 C 0.81616 0.69995 0.7328 0.0
C2584 C 0.80489 0.70403 0.71138 0.0
C2585 C 0.79134 0.72471 0.7074 0.0
C2586 C 0.78846 0.74071 0.72501 0.0
C2587 C 0.80627 0.68622 0.69404 0.0
C2588 C 0.8256 0.67725 0.6811 0.0
C2589 C 0.78853 0.67805 0.69033 0.0
C2590 C 0.76809 0.68543 0.70499 0.0
C2591 C 0.74988 0.6944 0.69267 0.0
C2592 C 0.73047 0.70048 0.70651 0.0
C2593 C 0.72909 0.69748 0.73266 0.0
C2594 C 0.74711 0.68866 0.74504 0.0
C2595 C 0.76655 0.68263 0.73133 0.0
H2596 H 0.71403 0.70179 0.74332 0.0
H2597 H 0.90402 0.62601 0.62071 0.0
H2598 H 0.46773 0.75242 0.60728 0.0
H2599 H 0.43461 0.75688 0.63401 0.0
H2600 H 0.45479 0.8015 0.67799 0.0
H2601 H 0.4878 0.79763 0.65063 0.0
H2602 H 0.43707 0.76265 0.70601 0.0
H2603 H 0.42057 0.82522 0.64634 0.0
H2604 H 0.41801 0.84278 0.60357 0.0
H2605 H 0.37619 0.80283 0.58828 0.0
H2606 H 0.37878 0.78477 0.63084 0.0
H2607 H 0.3133 0.8148 0.73574 0.0
H2608 H 0.3477 0.81651 0.71422 0.0
H2609 H 0.37033 0.7478 0.73568 0.0
H2610 H 0.33715 0.74722 0.75904 0.0
H2611 H 0.36829 0.80122 0.67652 0.0
H2612 H 0.41789 0.72751 0.72567 0.0
H2613 H 0.42159 0.70767 0.76726 0.0
H2614 H 0.39937 0.76868 0.80291 0.0
H2615 H 0.3947 0.78884 0.76152 0.0
C2616 C 0.46514 0.7633 0.62255 0.0
C2617 C 0.48064 0.77466 0.62663 0.0
C2618 C 0.44607 0.76587 0.63789 0.0
C2619 C 0.44192 0.77949 0.65831 0.0
C2620 C 0.45739 0.79085 0.6625 0.0
C2621 C 0.4763 0.78873 0.64671 0.0
C2622 C 0.42166 0.78153 0.67526 0.0
C2623 C 0.42206 0.77124 0.69956 0.0
C2624 C 0.40181 0.79247 0.66717 0.0
C2625 C 0.40004 0.80349 0.6417 0.0
C2626 C 0.41098 0.82004 0.63378 0.0
C2627 C 0.40949 0.83011 0.60959 0.0
C2628 C 0.39699 0.82389 0.59319 0.0
C2629 C 0.38589 0.80762 0.60099 0.0
C2630 C 0.38735 0.79747 0.62515 0.0
C2631 C 0.32621 0.80074 0.73787 0.0
C2632 C 0.32282 0.78168 0.75203 0.0
C2633 C 0.34591 0.80136 0.7246 0.0
C2634 C 0.36274 0.78252 0.7238 0.0
C2635 C 0.35885 0.76321 0.737 0.0
C2636 C 0.3395 0.76288 0.75077 0.0
C2637 C 0.38347 0.78248 0.70777 0.0
C2638 C 0.38322 0.79291 0.68335 0.0
C2639 C 0.40351 0.77141 0.71566 0.0
C2640 C 0.40589 0.75963 0.7406 0.0
C2641 C 0.41372 0.73667 0.74243 0.0
C2642 C 0.41582 0.72537 0.76594 0.0
C2643 C 0.41054 0.73694 0.78773 0.0
C2644 C 0.40306 0.75978 0.78603 0.0
C2645 C 0.40056 0.77114 0.76258 0.0
H2646 H 0.41232 0.72821 0.80592 0.0
H2647 H 0.39587 0.8317 0.57447 0.0
H2648 H 0.32653 0.45843 0.60176 0.0
H2649 H 0.32042 0.43267 0.63699 0.0
H2650 H 0.27892 0.40862 0.59449 0.0
H2651 H 0.28424 0.43533 0.5597 0.0
H2652 H 0.26304 0.40959 0.63946 0.0
H2653 H 0.33273 0.38077 0.6041 0.0
H2654 H 0.36902 0.38227 0.58878 0.0
H2655 H 0.38121 0.3951 0.66259 0.0
H2656 H 0.34485 0.39416 0.67825 0.0
H2657 H 0.27183 0.30569 0.71152 0.0
H2658 H 0.27493 0.33417 0.67833 0.0
H2659 H 0.29846 0.37028 0.72964 0.0
H2660 H 0.29471 0.34217 0.76332 0.0
H2661 H 0.32334 0.36279 0.68094 0.0
H2662 H 0.25251 0.391 0.7153 0.0
H2663 H 0.21621 0.3885 0.72922 0.0
H2664 H 0.20703 0.37363 0.65501 0.0
H2665 H 0.2434 0.37572 0.64073 0.0
C2666 C 0.31616 0.44759 0.59991 0.0
C2667 C 0.30603 0.44879 0.57781 0.0
C2668 C 0.31272 0.43274 0.62008 0.0
C2669 C 0.29958 0.41809 0.61842 0.0
C2670 C 0.28919 0.41956 0.59643 0.0
C2671 C 0.29226 0.43482 0.57647 0.0
C2672 C 0.29673 0.40134 0.63951 0.0
C2673 C 0.27632 0.39921 0.6482 0.0
C2674 C 0.3139 0.38777 0.65147 0.0
C2675 C 0.33597 0.38767 0.64227 0.0
C2676 C 0.3431 0.38406 0.61703 0.0
C2677 C 0.36367 0.38487 0.60827 0.0
C2678 C 0.37735 0.38896 0.62466 0.0
C2679 C 0.37055 0.39205 0.64989 0.0
C2680 C 0.34996 0.39139 0.65872 0.0
C2681 C 0.27722 0.31985 0.71604 0.0
C2682 C 0.28267 0.32161 0.7404 0.0
C2683 C 0.27912 0.33613 0.69689 0.0
C2684 C 0.28693 0.35443 0.70142 0.0
C2685 C 0.29239 0.35633 0.72566 0.0
C2686 C 0.29009 0.34025 0.74498 0.0
C2687 C 0.28978 0.37126 0.68069 0.0
C2688 C 0.31016 0.37326 0.67208 0.0
C2689 C 0.27266 0.3844 0.66853 0.0
C2690 C 0.25074 0.3833 0.67702 0.0
C2691 C 0.24281 0.387 0.702 0.0
C2692 C 0.22221 0.3857 0.70995 0.0
C2693 C 0.20934 0.38085 0.69303 0.0
C2694 C 0.21703 0.37736 0.6681 0.0
C2695 C 0.23763 0.37862 0.66007 0.0
H2696 H 0.19339 0.37985 0.69921 0.0
H2697 H 0.39325 0.38963 0.61784 0.0
H2698 H 0.54622 0.26698 0.59434 0.0
H2699 H 0.57098 0.27691 0.61958 0.0
H2700 H 0.58407 0.32468 0.56112 0.0
H2701 H 0.55891 0.31463 0.53554 0.0
H2702 H 0.61999 0.29691 0.57623 0.0
H2703 H 0.56041 0.34221 0.61748 0.0
H2704 H 0.52456 0.35222 0.63802 0.0
H2705 H 0.54101 0.30179 0.69647 0.0
H2706 H 0.57688 0.29125 0.6761 0.0
H2707 H 0.69637 0.30791 0.65791 0.0
H2708 H 0.66558 0.31993 0.63343 0.0
H2709 H 0.63575 0.27273 0.67685 0.0
H2710 H 0.66626 0.26088 0.70118 0.0
H2711 H 0.60736 0.31059 0.66685 0.0
H2712 H 0.66339 0.26062 0.62063 0.0
H2713 H 0.69902 0.24895 0.59991 0.0
H2714 H 0.68875 0.3075 0.55075 0.0
H2715 H 0.65312 0.31965 0.57145 0.0
C2716 C 0.55392 0.28005 0.5871 0.0
C2717 C 0.55049 0.29016 0.56306 0.0
C2718 C 0.56809 0.28577 0.6016 0.0
C2719 C 0.57937 0.30169 0.59243 0.0
C2720 C 0.57548 0.31244 0.56869 0.0
C2721 C 0.56096 0.30687 0.55419 0.0
C2722 C 0.59645 0.30521 0.60694 0.0
C2723 C 0.61715 0.30058 0.59586 0.0
C2724 C 0.5929 0.30956 0.63272 0.0
C2725 C 0.57135 0.31589 0.64517 0.0
C2726 C 0.55636 0.33316 0.63463 0.0
C2727 C 0.53603 0.33894 0.64626 0.0
C2728 C 0.53051 0.32764 0.66852 0.0
C2729 C 0.54531 0.31055 0.67923 0.0
C2730 C 0.56566 0.30469 0.66767 0.0
C2731 C 0.68299 0.30056 0.66259 0.0
C2732 C 0.68372 0.28342 0.68139 0.0
C2733 C 0.66547 0.30729 0.64847 0.0
C2734 C 0.64838 0.29705 0.65304 0.0
C2735 C 0.64866 0.2809 0.67288 0.0
C2736 C 0.66614 0.27409 0.68677 0.0
C2737 C 0.63085 0.30167 0.63629 0.0
C2738 C 0.61012 0.30766 0.64702 0.0
C2739 C 0.63435 0.29848 0.61022 0.0
C2740 C 0.65573 0.29118 0.5978 0.0
C2741 C 0.6688 0.27109 0.60555 0.0
C2742 C 0.68898 0.26437 0.59379 0.0
C2743 C 0.69617 0.27751 0.57409 0.0
C2744 C 0.68318 0.29737 0.56606 0.0
C2745 C 0.66299 0.30418 0.5778 0.0
H2746 H 0.7118 0.27228 0.56499 0.0
H2747 H 0.51476 0.33214 0.67749 0.0
H2748 H 0.79137 0.50004 0.54552 0.0
H2749 H 0.79062 0.46952 0.52068 0.0
H2750 H 0.84633 0.47962 0.47594 0.0
H2751 H 0.84613 0.51154 0.49987 0.0
H2752 H 0.82157 0.47261 0.44639 0.0
H2753 H 0.8438 0.43369 0.52402 0.0
H2754 H 0.84133 0.4257 0.56987 0.0
H2755 H 0.78089 0.41134 0.56711 0.0
H2756 H 0.78291 0.41939 0.52126 0.0
H2757 H 0.84842 0.36572 0.3963 0.0
H2758 H 0.84636 0.39933 0.41794 0.0
H2759 H 0.78297 0.39853 0.44698 0.0
H2760 H 0.7849 0.36505 0.42489 0.0
H2761 H 0.81036 0.40066 0.48411 0.0
H2762 H 0.78906 0.43784 0.40652 0.0
H2763 H 0.79138 0.44584 0.36071 0.0
H2764 H 0.8506 0.46301 0.36368 0.0
H2765 H 0.84879 0.45478 0.4095 0.0
C2766 C 0.80377 0.49549 0.53077 0.0
C2767 C 0.81909 0.50795 0.52497 0.0
C2768 C 0.80335 0.47791 0.51652 0.0
C2769 C 0.81872 0.47171 0.49669 0.0
C2770 C 0.83432 0.48392 0.49118 0.0
C2771 C 0.83434 0.50203 0.50498 0.0
C2772 C 0.81788 0.45325 0.48103 0.0
C2773 C 0.81951 0.45677 0.45474 0.0
C2774 C 0.81444 0.4327 0.49172 0.0
C2775 C 0.81346 0.42729 0.51922 0.0
C2776 C 0.82996 0.42887 0.5332 0.0
C2777 C 0.82864 0.42433 0.55919 0.0
C2778 C 0.81095 0.41805 0.5714 0.0
C2779 C 0.79458 0.41619 0.55763 0.0
C2780 C 0.79583 0.42069 0.53163 0.0
C2781 C 0.83386 0.37312 0.40673 0.0
C2782 C 0.81675 0.36298 0.40879 0.0
C2783 C 0.83271 0.39224 0.41913 0.0
C2784 C 0.81453 0.40139 0.43413 0.0
C2785 C 0.79714 0.39173 0.4355 0.0
C2786 C 0.79817 0.37277 0.42271 0.0
C2787 C 0.81436 0.42005 0.44971 0.0
C2788 C 0.81251 0.41653 0.47592 0.0
C2789 C 0.81774 0.44049 0.43898 0.0
C2790 C 0.81889 0.44547 0.41143 0.0
C2791 C 0.80268 0.44311 0.39738 0.0
C2792 C 0.80388 0.44774 0.37142 0.0
C2793 C 0.82115 0.45488 0.35929 0.0
C2794 C 0.83724 0.45745 0.37311 0.0
C2795 C 0.83613 0.45283 0.39908 0.0
H2796 H 0.82205 0.45846 0.33918 0.0
H2797 H 0.80993 0.4146 0.59153 0.0
H2798 H 0.61907 0.80353 0.5059 0.0
H2799 H 0.64624 0.80872 0.47252 0.0
H2800 H 0.63328 0.7565 0.43322 0.0
H2801 H 0.60681 0.75091 0.46675 0.0
H2802 H 0.67188 0.75085 0.42831 0.0
H2803 H 0.61895 0.8168 0.41545 0.0
H2804 H 0.59432 0.85148 0.42679 0.0
H2805 H 0.6456 0.87794 0.44412 0.0
H2806 H 0.67051 0.84331 0.43316 0.0
H2807 H 0.71135 0.79582 0.30251 0.0
H2808 H 0.68557 0.79459 0.33866 0.0
H2809 H 0.73411 0.78944 0.38824 0.0
H2810 H 0.76058 0.78319 0.35235 0.0
H2811 H 0.67902 0.82361 0.38889 0.0
H2812 H 0.73478 0.75576 0.40182 0.0
H2813 H 0.76285 0.72161 0.38237 0.0
H2814 H 0.69028 0.69411 0.36379 0.0
H2815 H 0.67287 0.73349 0.383 0.0
C2816 C 0.62188 0.79326 0.49006 0.0
C2817 C 0.61056 0.7767 0.48938 0.0
C2818 C 0.6375 0.7963 0.47072 0.0
C2819 C 0.64209 0.78321 0.44967 0.0
C2820 C 0.63054 0.76687 0.44898 0.0
C2821 C 0.61521 0.76364 0.46839 0.0
C2822 C 0.65909 0.78584 0.42873 0.0
C2823 C 0.67321 0.76688 0.41983 0.0
C2824 C 0.66147 0.80658 0.41715 0.0
C2825 C 0.64655 0.82738 0.42376 0.0
C2826 C 0.62495 0.82996 0.42186 0.0
C2827 C 0.61095 0.84961 0.42818 0.0
C2828 C 0.61839 0.86688 0.43624 0.0
C2829 C 0.63985 0.86454 0.43792 0.0
C2830 C 0.65392 0.84491 0.43164 0.0
C2831 C 0.71676 0.79373 0.32114 0.0
C2832 C 0.73842 0.79061 0.32413 0.0
C2833 C 0.70181 0.79322 0.34195 0.0
C2834 C 0.70771 0.79079 0.36669 0.0
C2835 C 0.72901 0.78968 0.36967 0.0
C2836 C 0.74424 0.78752 0.34891 0.0
C2837 C 0.69181 0.78871 0.389 0.0
C2838 C 0.67773 0.8077 0.39778 0.0
C2839 C 0.68925 0.76799 0.40042 0.0
C2840 C 0.70256 0.74705 0.39189 0.0
C2841 C 0.72887 0.74426 0.39232 0.0
C2842 C 0.74642 0.72195 0.38118 0.0
C2843 C 0.72712 0.69397 0.36567 0.0
C2844 C 0.70049 0.70382 0.36941 0.0
C2845 C 0.6898 0.72864 0.38176 0.0
H2846 H 0.7329 0.67783 0.35785 0.0
H2847 H 0.60752 0.88208 0.44113 0.0
H2848 H 0.28751 0.59376 0.46777 0.0
H2849 H 0.28255 0.62936 0.44397 0.0
H2850 H 0.32443 0.5993 0.38305 0.0
H2851 H 0.32973 0.56369 0.40709 0.0
H2852 H 0.33223 0.63749 0.38883 0.0
H2853 H 0.26876 0.61362 0.38185 0.0
H2854 H 0.23717 0.60017 0.3977 0.0
H2855 H 0.21412 0.65815 0.43902 0.0
H2856 H 0.2457 0.67184 0.4236 0.0
H2857 H 0.30826 0.7266 0.30019 0.0
H2858 H 0.31072 0.69057 0.32176 0.0
H2859 H 0.26826 0.72015 0.38251 0.0
H2860 H 0.26456 0.75632 0.35965 0.0
H2861 H 0.26069 0.68198 0.37637 0.0
H2862 H 0.3246 0.70568 0.38328 0.0
H2863 H 0.35558 0.71958 0.36584 0.0
H2864 H 0.37772 0.66191 0.32383 0.0
H2865 H 0.3467 0.64779 0.34076 0.0
C2866 C 0.29556 0.59466 0.44924 0.0
C2867 C 0.3089 0.57572 0.43932 0.0
C2868 C 0.29269 0.6151 0.43556 0.0
C2869 C 0.30277 0.61714 0.41136 0.0
C2870 C 0.31639 0.59831 0.4016 0.0
C2871 C 0.31945 0.57789 0.4154 0.0
C2872 C 0.29918 0.63883 0.3963 0.0
C2873 C 0.31656 0.64704 0.38588 0.0
C2874 C 0.27878 0.65172 0.39268 0.0
C2875 C 0.25967 0.64366 0.40173 0.0
C2876 C 0.257 0.62344 0.39441 0.0
C2877 C 0.23909 0.61579 0.4033 0.0
C2878 C 0.22367 0.62828 0.4194 0.0
C2879 C 0.22609 0.64849 0.42656 0.0
C2880 C 0.24397 0.65622 0.41772 0.0
C2881 C 0.29905 0.72551 0.31778 0.0
C2882 C 0.28596 0.74446 0.32785 0.0
C2883 C 0.30071 0.70477 0.33043 0.0
C2884 C 0.29016 0.70248 0.35426 0.0
C2885 C 0.2767 0.72132 0.36424 0.0
C2886 C 0.27463 0.74206 0.35119 0.0
C2887 C 0.29372 0.68066 0.36903 0.0
C2888 C 0.27635 0.67244 0.37937 0.0
C2889 C 0.31415 0.66774 0.37256 0.0
C2890 C 0.33326 0.67574 0.3632 0.0
C2891 C 0.33607 0.69597 0.37032 0.0
C2892 C 0.35361 0.7039 0.36049 0.0
C2893 C 0.36859 0.69165 0.34373 0.0
C2894 C 0.36611 0.67137 0.33684 0.0
C2895 C 0.34856 0.66338 0.34656 0.0
H2896 H 0.38211 0.69786 0.33612 0.0
H2897 H 0.20982 0.62232 0.42628 0.0
H2898 H 0.48458 0.26819 0.42436 0.0
H2899 H 0.45311 0.27529 0.40168 0.0
H2900 H 0.4169 0.30857 0.46442 0.0
H2901 H 0.44873 0.30174 0.48725 0.0
H2902 H 0.39906 0.27558 0.44647 0.0
H2903 H 0.42525 0.33838 0.41272 0.0
H2904 H 0.45183 0.35788 0.39279 0.0
H2905 H 0.45872 0.32047 0.32762 0.0
H2906 H 0.43241 0.30049 0.34729 0.0
H2907 H 0.30697 0.30183 0.37997 0.0
H2908 H 0.33575 0.30301 0.40489 0.0
H2909 H 0.38006 0.2851 0.34097 0.0
H2910 H 0.35121 0.28509 0.31565 0.0
H2911 H 0.39237 0.31375 0.36198 0.0
H2912 H 0.37127 0.24772 0.39566 0.0
H2913 H 0.34617 0.22583 0.41423 0.0
H2914 H 0.33138 0.26615 0.47754 0.0
H2915 H 0.35641 0.28832 0.45929 0.0
C2916 C 0.47002 0.27742 0.4332 0.0
C2917 C 0.46924 0.28453 0.45759 0.0
C2918 C 0.45198 0.28146 0.42017 0.0
C2919 C 0.43254 0.2925 0.43123 0.0
C2920 C 0.43171 0.30005 0.45543 0.0
C2921 C 0.44994 0.29633 0.46838 0.0
C2922 C 0.41314 0.29499 0.41777 0.0
C2923 C 0.39739 0.28431 0.4282 0.0
C2924 C 0.41119 0.30573 0.39353 0.0
C2925 C 0.42697 0.31779 0.3816 0.0
C2926 C 0.43256 0.33417 0.39422 0.0
C2927 C 0.44755 0.34534 0.38295 0.0
C2928 C 0.45701 0.34036 0.35899 0.0
C2929 C 0.4514 0.32428 0.34619 0.0
C2930 C 0.43643 0.31305 0.35739 0.0
C2931 C 0.32286 0.29802 0.37123 0.0
C2932 C 0.32671 0.29325 0.34577 0.0
C2933 C 0.33941 0.29859 0.3856 0.0
C2934 C 0.36037 0.29377 0.37514 0.0
C2935 C 0.36418 0.28894 0.34969 0.0
C2936 C 0.3476 0.28881 0.33518 0.0
C2937 C 0.37831 0.29399 0.39043 0.0
C2938 C 0.39386 0.30516 0.38033 0.0
C2939 C 0.38029 0.28332 0.41476 0.0
C2940 C 0.36555 0.26979 0.42601 0.0
C2941 C 0.36261 0.25196 0.4135 0.0
C2942 C 0.34841 0.23949 0.42397 0.0
C2943 C 0.3371 0.24466 0.44699 0.0
C2944 C 0.34011 0.26219 0.45968 0.0
C2945 C 0.35435 0.27467 0.44933 0.0
H2946 H 0.32605 0.23504 0.45501 0.0
H2947 H 0.46867 0.34895 0.35035 0.0
H2948 H 0.58372 0.82897 0.61226 0.0
H2949 H 0.61069 0.83444 0.63823 0.0
H2950 H 0.63126 0.76402 0.65102 0.0
H2951 H 0.60439 0.75854 0.62606 0.0
H2952 H 0.63125 0.78121 0.69245 0.0
H2953 H 0.6577 0.79581 0.60749 0.0
H2954 H 0.65701 0.8146 0.56524 0.0
H2955 H 0.65284 0.87645 0.59715 0.0
H2956 H 0.65323 0.85805 0.63965 0.0
H2957 H 0.74563 0.79341 0.69814 0.0
H2958 H 0.71564 0.79557 0.67386 0.0
H2959 H 0.67349 0.81444 0.73928 0.0
H2960 H 0.70342 0.8115 0.76388 0.0
H2961 H 0.68327 0.8249 0.65959 0.0
H2962 H 0.62994 0.79226 0.73944 0.0
H2963 H 0.63345 0.77011 0.77963 0.0
H2964 H 0.69618 0.73786 0.7544 0.0
H2965 H 0.69276 0.75901 0.71362 0.0
C2966 C 0.59392 0.81471 0.62077 0.0
C2967 C 0.59181 0.79333 0.61698 0.0
C2968 C 0.60944 0.81782 0.63552 0.0
C2969 C 0.62325 0.79962 0.64655 0.0
C2970 C 0.62086 0.77838 0.64295 0.0
C2971 C 0.60542 0.77528 0.62847 0.0
C2972 C 0.64044 0.80222 0.66158 0.0
C2973 C 0.64251 0.79092 0.68529 0.0
C2974 C 0.65548 0.81452 0.65224 0.0
C2975 C 0.65523 0.82561 0.62675 0.0
C2976 C 0.65646 0.81345 0.6055 0.0
C2977 C 0.65616 0.82402 0.58151 0.0
C2978 C 0.65481 0.84671 0.57852 0.0
C2979 C 0.65383 0.85887 0.59951 0.0
C2980 C 0.6541 0.84839 0.62355 0.0
C2981 C 0.72998 0.79821 0.70733 0.0
C2982 C 0.72697 0.80206 0.73307 0.0
C2983 C 0.71279 0.7995 0.69337 0.0
C2984 C 0.69219 0.8048 0.70474 0.0
C2985 C 0.68917 0.80981 0.73012 0.0
C2986 C 0.70634 0.80819 0.74419 0.0
C2987 C 0.67405 0.80388 0.69042 0.0
C2988 C 0.67184 0.81544 0.66688 0.0
C2989 C 0.65922 0.79124 0.69959 0.0
C2990 C 0.66116 0.7775 0.72357 0.0
C2991 C 0.6444 0.78026 0.74234 0.0
C2992 C 0.64636 0.76781 0.76519 0.0
C2993 C 0.66502 0.75255 0.76953 0.0
C2994 C 0.6817 0.74955 0.75092 0.0
C2995 C 0.67973 0.76173 0.72791 0.0
H2996 H 0.66656 0.74307 0.78731 0.0
H2997 H 0.65459 0.85486 0.55993 0.0
H2998 H 0.58613 0.23383 0.42274 0.0
H2999 H 0.61901 0.23788 0.39945 0.0
H3000 H 0.62818 0.28057 0.45452 0.0
H3001 H 0.59475 0.27711 0.47744 0.0
H3002 H 0.64153 0.29564 0.41156 0.0
H3003 H 0.65457 0.22345 0.45209 0.0
H3004 H 0.64899 0.18614 0.46394 0.0
H3005 H 0.65877 0.17061 0.38655 0.0
H3006 H 0.66414 0.20795 0.37419 0.0
H3007 H 0.75952 0.23711 0.37014 0.0
H3008 H 0.72564 0.23702 0.39353 0.0
H3009 H 0.69613 0.29118 0.34462 0.0
H3010 H 0.73034 0.29269 0.32319 0.0
H3011 H 0.69295 0.22813 0.3857 0.0
H3012 H 0.64988 0.31841 0.36759 0.0
H3013 H 0.6583 0.35493 0.35874 0.0
H3014 H 0.71288 0.3337 0.39982 0.0
H3015 H 0.70468 0.29712 0.40909 0.0
C3016 C 0.59514 0.24406 0.42995 0.0
C3017 C 0.58781 0.25495 0.45218 0.0
C3018 C 0.61408 0.24634 0.4166 0.0
C3019 C 0.62661 0.25913 0.42536 0.0
C3020 C 0.61902 0.27052 0.44723 0.0
C3021 C 0.59985 0.26853 0.4604 0.0
C3022 C 0.64769 0.26023 0.412 0.0
C3023 C 0.65278 0.28084 0.40603 0.0
C3024 C 0.66276 0.24103 0.40487 0.0
C3025 C 0.65953 0.21857 0.41221 0.0
C3026 C 0.65538 0.21213 0.43759 0.0
C3027 C 0.65228 0.19097 0.44439 0.0
C3028 C 0.65346 0.17603 0.426 0.0
C3029 C 0.65781 0.18221 0.40077 0.0
C3030 C 0.6609 0.20336 0.39385 0.0
C3031 C 0.74579 0.24914 0.36461 0.0
C3032 C 0.74755 0.26448 0.34434 0.0
C3033 C 0.7263 0.24902 0.3779 0.0
C3034 C 0.70793 0.26422 0.37127 0.0
C3035 C 0.70983 0.27963 0.35096 0.0
C3036 C 0.72944 0.2802 0.33823 0.0
C3037 C 0.68701 0.26354 0.3854 0.0
C3038 C 0.68184 0.24298 0.39137 0.0
C3039 C 0.67221 0.28274 0.39323 0.0
C3040 C 0.67672 0.305 0.38889 0.0
C3041 C 0.66356 0.32161 0.37492 0.0
C3042 C 0.66834 0.34229 0.36976 0.0
C3043 C 0.68615 0.34661 0.37866 0.0
C3044 C 0.69912 0.33031 0.39289 0.0
C3045 C 0.69442 0.30961 0.39811 0.0
H3046 H 0.68987 0.36259 0.37453 0.0
H3047 H 0.65106 0.15966 0.43131 0.0
H3048 H 0.76079 0.58629 0.46024 0.0
H3049 H 0.77136 0.60488 0.42079 0.0
H3050 H 0.80882 0.63685 0.46041 0.0
H3051 H 0.79829 0.61849 0.49972 0.0
H3052 H 0.76325 0.64677 0.40912 0.0
H3053 H 0.84996 0.64755 0.42442 0.0
H3054 H 0.88058 0.62192 0.44119 0.0
H3055 H 0.85558 0.56683 0.42695 0.0
H3056 H 0.82497 0.59209 0.40971 0.0
H3057 H 0.79934 0.74428 0.36628 0.0
H3058 H 0.7986 0.71101 0.39351 0.0
H3059 H 0.81762 0.67107 0.32989 0.0
H3060 H 0.81845 0.70418 0.30237 0.0
H3061 H 0.83516 0.65584 0.38183 0.0
H3062 H 0.77461 0.68929 0.33652 0.0
H3063 H 0.74641 0.72373 0.31924 0.0
H3064 H 0.70946 0.71229 0.41747 0.0
H3065 H 0.74495 0.68027 0.42213 0.0
C3066 C 0.77126 0.59729 0.46055 0.0
C3067 C 0.77864 0.60096 0.48319 0.0
C3068 C 0.77748 0.6077 0.43793 0.0
C3069 C 0.79124 0.62191 0.43751 0.0
C3070 C 0.79872 0.62545 0.46008 0.0
C3071 C 0.79255 0.61504 0.48262 0.0
C3072 C 0.79587 0.63522 0.41433 0.0
C3073 C 0.77889 0.64902 0.40313 0.0
C3074 C 0.81648 0.63711 0.40592 0.0
C3075 C 0.83509 0.62177 0.41583 0.0
C3076 C 0.85106 0.62997 0.42466 0.0
C3077 C 0.86841 0.6155 0.43431 0.0
C3078 C 0.87001 0.59276 0.43517 0.0
C3079 C 0.8543 0.58445 0.42633 0.0
C3080 C 0.83692 0.59884 0.41664 0.0
C3081 C 0.80372 0.72842 0.35806 0.0
C3082 C 0.80828 0.72697 0.33198 0.0
C3083 C 0.80317 0.70944 0.37365 0.0
C3084 C 0.8068 0.68885 0.36339 0.0
C3085 C 0.814 0.68698 0.33797 0.0
C3086 C 0.81438 0.70595 0.32228 0.0
C3087 C 0.80226 0.6695 0.37894 0.0
C3088 C 0.81939 0.65406 0.388 0.0
C3089 C 0.78148 0.66681 0.38632 0.0
C3090 C 0.7621 0.68329 0.37972 0.0
C3091 C 0.76208 0.69607 0.35006 0.0
C3092 C 0.74393 0.71743 0.33834 0.0
C3093 C 0.72171 0.72905 0.356 0.0
C3094 C 0.72083 0.70948 0.40107 0.0
C3095 C 0.74291 0.68898 0.40399 0.0
H3096 H 0.71079 0.74271 0.34702 0.0
H3097 H 0.88344 0.58159 0.44267 0.0
H3098 H 0.51056 0.84201 0.50694 0.0
H3099 H 0.48448 0.85351 0.4755 0.0
H3100 H 0.46533 0.79188 0.49084 0.0
H3101 H 0.49073 0.78057 0.52174 0.0
H3102 H 0.47611 0.80084 0.43997 0.0
H3103 H 0.43465 0.83719 0.51214 0.0
H3104 H 0.42768 0.86399 0.54499 0.0
H3105 H 0.42919 0.91668 0.48868 0.0
H3106 H 0.43638 0.89011 0.45552 0.0
H3107 H 0.37889 0.79649 0.40159 0.0
H3108 H 0.41064 0.79661 0.42139 0.0
H3109 H 0.40388 0.8658 0.39963 0.0
H3110 H 0.37148 0.86583 0.38066 0.0
H3111 H 0.41125 0.85987 0.44595 0.0
H3112 H 0.44519 0.82382 0.37323 0.0
H3113 H 0.45177 0.79686 0.34061 0.0
H3114 H 0.46542 0.74373 0.39673 0.0
H3115 H 0.45865 0.77033 0.42973 0.0
C3116 C 0.50048 0.8312 0.5038 0.0
C3117 C 0.50288 0.81029 0.5165 0.0
C3118 C 0.48571 0.83769 0.48582 0.0
C3119 C 0.47325 0.82333 0.48057 0.0
C3120 C 0.47502 0.80304 0.49425 0.0
C3121 C 0.48957 0.79663 0.51197 0.0
C3122 C 0.4587 0.82842 0.46042 0.0
C3123 C 0.46194 0.81381 0.44113 0.0
C3124 C 0.44063 0.84577 0.46149 0.0
C3125 C 0.43633 0.86166 0.48141 0.0
C3126 C 0.43369 0.85446 0.5068 0.0
C3127 C 0.42965 0.86961 0.52546 0.0
C3128 C 0.42808 0.89202 0.51893 0.0
C3129 C 0.43046 0.89932 0.49372 0.0
C3130 C 0.43451 0.88423 0.47499 0.0
C3131 C 0.3845 0.81157 0.40045 0.0
C3132 C 0.37283 0.83111 0.38949 0.0
C3133 C 0.4027 0.81166 0.41176 0.0
C3134 C 0.40992 0.83118 0.41178 0.0
C3135 C 0.39869 0.85054 0.39989 0.0
C3136 C 0.38026 0.85053 0.38895 0.0
C3137 C 0.42814 0.8316 0.426 0.0
C3138 C 0.42564 0.84727 0.44414 0.0
C3139 C 0.44699 0.81519 0.42384 0.0
C3140 C 0.45135 0.79911 0.40398 0.0
C3141 C 0.44951 0.80639 0.37863 0.0
C3142 C 0.45328 0.79116 0.36007 0.0
C3143 C 0.459 0.7686 0.3666 0.0
C3144 C 0.46101 0.76122 0.3917 0.0
C3145 C 0.45725 0.77637 0.41034 0.0
H3146 H 0.46189 0.75684 0.3522 0.0
H3147 H 0.42495 0.90372 0.5334 0.0
H3148 H 0.30297 0.45837 0.43324 0.0
H3149 H 0.28829 0.43669 0.40721 0.0
H3150 H 0.22696 0.45961 0.44503 0.0
H3151 H 0.24169 0.48155 0.47153 0.0
H3152 H 0.23659 0.41512 0.44135 0.0
H3153 H 0.23689 0.47802 0.38637 0.0
H3154 H 0.2505 0.50795 0.36267 0.0
H3155 H 0.29653 0.4605 0.32146 0.0
H3156 H 0.28376 0.43025 0.34552 0.0
H3157 H 0.22791 0.37005 0.30925 0.0
H3158 H 0.21909 0.3985 0.33985 0.0
H3159 H 0.26195 0.35741 0.38914 0.0
H3160 H 0.27119 0.32936 0.35841 0.0
H3161 H 0.25024 0.41729 0.34871 0.0
H3162 H 0.24934 0.37061 0.44655 0.0
H3163 H 0.23023 0.34595 0.47258 0.0
H3164 H 0.17799 0.36694 0.42759 0.0
H3165 H 0.19702 0.39127 0.40093 0.0
C3166 C 0.28631 0.45896 0.43602 0.0
C3167 C 0.27348 0.47165 0.45451 0.0
C3168 C 0.27792 0.44665 0.42096 0.0
C3169 C 0.2565 0.44674 0.42397 0.0
C3170 C 0.24353 0.45944 0.44234 0.0
C3171 C 0.25194 0.47197 0.45739 0.0
C3172 C 0.24823 0.43247 0.4087 0.0
C3173 C 0.2394 0.4157 0.42106 0.0
C3174 C 0.25134 0.43363 0.38218 0.0
C3175 C 0.2594 0.45181 0.36793 0.0
C3176 C 0.2501 0.47393 0.3725 0.0
C3177 C 0.25769 0.49097 0.359 0.0
C3178 C 0.27445 0.48613 0.34066 0.0
C3179 C 0.28366 0.46423 0.3358 0.0
C3180 C 0.27625 0.44713 0.34938 0.0
C3181 C 0.23489 0.36682 0.32701 0.0
C3182 C 0.25013 0.34743 0.3315 0.0
C3183 C 0.22978 0.38303 0.3445 0.0
C3184 C 0.23978 0.38008 0.36684 0.0
C3185 C 0.25374 0.35993 0.37226 0.0
C3186 C 0.25905 0.34384 0.35461 0.0
C3187 C 0.23951 0.39932 0.38145 0.0
C3188 C 0.247 0.41696 0.36895 0.0
C3189 C 0.2349 0.39917 0.40773 0.0
C3190 C 0.22464 0.3826 0.4217 0.0
C3191 C 0.23388 0.36972 0.44204 0.0
C3192 C 0.22305 0.35585 0.45693 0.0
C3193 C 0.20286 0.35498 0.45182 0.0
C3194 C 0.19362 0.36767 0.43155 0.0
C3195 C 0.20453 0.38126 0.41634 0.0
H3196 H 0.19443 0.34437 0.46348 0.0
H3197 H 0.28025 0.49935 0.33016 0.0
H3198 H 0.44095 0.26802 0.56854 0.0
H3199 H 0.41355 0.26943 0.60331 0.0
H3200 H 0.4585 0.2279 0.64996 0.0
H3201 H 0.48544 0.22562 0.61481 0.0
H3202 H 0.42579 0.21449 0.65916 0.0
H3203 H 0.43717 0.2877 0.65484 0.0
H3204 H 0.44012 0.32381 0.63445 0.0
H3205 H 0.37601 0.33656 0.61691 0.0
H3206 H 0.37274 0.30045 0.63695 0.0
H3207 H 0.36496 0.23343 0.77648 0.0
H3208 H 0.3908 0.23061 0.74019 0.0
H3209 H 0.3435 0.26861 0.69417 0.0
H3210 H 0.31795 0.27243 0.73085 0.0
H3211 H 0.37681 0.28372 0.68432 0.0
H3212 H 0.36921 0.20694 0.68291 0.0
H3213 H 0.36801 0.16975 0.70199 0.0
H3214 H 0.42705 0.16489 0.73206 0.0
H3215 H 0.42862 0.20184 0.71285 0.0
C3216 C 0.44494 0.25931 0.58628 0.0
C3217 C 0.46538 0.24667 0.58885 0.0
C3218 C 0.42928 0.26021 0.60631 0.0
C3219 C 0.43379 0.24906 0.62974 0.0
C3220 C 0.45434 0.23663 0.63226 0.0
C3221 C 0.46983 0.23532 0.6121 0.0
C3222 C 0.41717 0.24965 0.65137 0.0
C3223 C 0.41534 0.22977 0.66475 0.0
C3224 C 0.403 0.26936 0.65879 0.0
C3225 C 0.4048 0.29126 0.64713 0.0
C3226 C 0.42374 0.29817 0.64652 0.0
C3227 C 0.42546 0.31865 0.63505 0.0
C3228 C 0.40829 0.33244 0.6243 0.0
C3229 C 0.38931 0.32587 0.6252 0.0
C3230 C 0.38751 0.3054 0.63663 0.0
C3231 C 0.35997 0.24087 0.75852 0.0
C3232 C 0.33918 0.25275 0.75661 0.0
C3233 C 0.37478 0.23909 0.7376 0.0
C3234 C 0.36924 0.24899 0.71397 0.0
C3235 C 0.34835 0.26065 0.71198 0.0
C3236 C 0.33358 0.26264 0.73301 0.0
C3237 C 0.38549 0.24857 0.69197 0.0
C3238 C 0.38728 0.26849 0.6786 0.0
C3239 C 0.3999 0.22899 0.68478 0.0
C3240 C 0.39876 0.20718 0.69693 0.0
C3241 C 0.38172 0.19796 0.69389 0.0
C3242 C 0.38107 0.17692 0.70455 0.0
C3243 C 0.39733 0.16507 0.71844 0.0
C3244 C 0.41441 0.17413 0.72143 0.0
C3245 C 0.41524 0.19505 0.71055 0.0
H3246 H 0.39676 0.14882 0.72675 0.0
H3247 H 0.40974 0.3482 0.61526 0.0
H3248 H 0.77039 0.47663 0.59295 0.0
H3249 H 0.77641 0.44065 0.61598 0.0
H3250 H 0.74525 0.47118 0.68301 0.0
H3251 H 0.73949 0.50732 0.6601 0.0
H3252 H 0.78493 0.44713 0.68939 0.0
H3253 H 0.72349 0.43557 0.65526 0.0
H3254 H 0.70135 0.43451 0.62112 0.0
H3255 H 0.75064 0.38603 0.58585 0.0
H3256 H 0.77316 0.38699 0.61963 0.0
H3257 H 0.77655 0.3499 0.76628 0.0
H3258 H 0.77263 0.38514 0.74263 0.0
H3259 H 0.80948 0.35322 0.67945 0.0
H3260 H 0.81443 0.31767 0.70378 0.0
H3261 H 0.76793 0.37737 0.66989 0.0
H3262 H 0.83024 0.39065 0.69765 0.0
H3263 H 0.85701 0.39644 0.72383 0.0
H3264 H 0.81008 0.44222 0.76614 0.0
H3265 H 0.78308 0.43688 0.73997 0.0
C3266 C 0.76453 0.47562 0.6125 0.0
C3267 C 0.75467 0.49482 0.62481 0.0
C3268 C 0.76782 0.45502 0.62558 0.0
C3269 C 0.76128 0.45324 0.65121 0.0
C3270 C 0.7504 0.47222 0.66321 0.0
C3271 C 0.747 0.49283 0.65008 0.0
C3272 C 0.76803 0.43217 0.66609 0.0
C3273 C 0.78082 0.43196 0.68549 0.0
C3274 C 0.7636 0.4122 0.66008 0.0
C3275 C 0.75004 0.41145 0.63988 0.0
C3276 C 0.72964 0.42479 0.64013 0.0
C3277 C 0.71702 0.42418 0.62087 0.0
C3278 C 0.72459 0.41024 0.60131 0.0
C3279 C 0.74479 0.39681 0.60102 0.0
C3280 C 0.75747 0.39735 0.62024 0.0
C3281 C 0.78467 0.35029 0.7479 0.0
C3282 C 0.79616 0.33084 0.73723 0.0
C3283 C 0.78228 0.3706 0.73423 0.0
C3284 C 0.79079 0.37182 0.70929 0.0
C3285 C 0.80289 0.35263 0.69876 0.0
C3286 C 0.80571 0.33237 0.71269 0.0
C3287 C 0.78459 0.39246 0.6935 0.0
C3288 C 0.7719 0.39258 0.67392 0.0
C3289 C 0.78935 0.41236 0.69905 0.0
C3290 C 0.80465 0.41314 0.71711 0.0
C3291 C 0.82558 0.40162 0.71285 0.0
C3292 C 0.84083 0.40509 0.72742 0.0
C3293 C 0.83526 0.41975 0.74657 0.0
C3294 C 0.81439 0.43092 0.75126 0.0
C3295 C 0.79911 0.4277 0.73656 0.0
H3296 H 0.84709 0.42236 0.75789 0.0
H3297 H 0.7148 0.40981 0.5864 0.0
H3298 H 0.24741 0.56182 0.55891 0.0
H3299 H 0.23893 0.59509 0.58334 0.0
H3300 H 0.30066 0.60633 0.56112 0.0
H3301 H 0.30915 0.57369 0.53733 0.0
H3302 H 0.2911 0.60341 0.6126 0.0
H3303 H 0.26045 0.63823 0.53642 0.0
H3304 H 0.23524 0.64348 0.5042 0.0
H3305 H 0.18399 0.65792 0.56098 0.0
H3306 H 0.20893 0.65245 0.59359 0.0
H3307 H 0.30728 0.70464 0.638 0.0
H3308 H 0.30232 0.67374 0.61645 0.0
H3309 H 0.23706 0.68709 0.6442 0.0
H3310 H 0.24143 0.71932 0.66414 0.0
H3311 H 0.24127 0.67499 0.59748 0.0
H3312 H 0.27576 0.64589 0.67271 0.0
H3313 H 0.30333 0.64058 0.7021 0.0
H3314 H 0.3501 0.61515 0.6437 0.0
H3315 H 0.32298 0.62064 0.6139 0.0
C3316 C 0.25897 0.57163 0.55912 0.0
C3317 C 0.27907 0.56497 0.54674 0.0
C3318 C 0.25413 0.59055 0.57297 0.0
C3319 C 0.26931 0.60291 0.57421 0.0
C3320 C 0.28886 0.59683 0.56066 0.0
C3321 C 0.29369 0.5781 0.54714 0.0
C3322 C 0.26613 0.62124 0.59089 0.0
C3323 C 0.28015 0.61908 0.6094 0.0
C3324 C 0.25148 0.64136 0.58705 0.0
C3325 C 0.23653 0.64462 0.56747 0.0
C3326 C 0.2438 0.64229 0.54206 0.0
C3327 C 0.22957 0.64536 0.52372 0.0
C3328 C 0.20803 0.65094 0.53055 0.0
C3329 C 0.20068 0.65353 0.55572 0.0
C3330 C 0.21485 0.65046 0.57414 0.0
C3331 C 0.29174 0.70138 0.63915 0.0
C3332 C 0.27482 0.71443 0.65309 0.0
C3333 C 0.289 0.68344 0.62712 0.0
C3334 C 0.26946 0.67769 0.62937 0.0
C3335 C 0.25234 0.69104 0.64252 0.0
C3336 C 0.25497 0.70931 0.65417 0.0
C3337 C 0.26714 0.65752 0.61827 0.0
C3338 C 0.25192 0.65923 0.60114 0.0
C3339 C 0.28104 0.63694 0.62297 0.0
C3340 C 0.29731 0.6337 0.64106 0.0
C3341 C 0.29194 0.63927 0.66612 0.0
C3342 C 0.3075 0.63623 0.68284 0.0
C3343 C 0.32842 0.6275 0.67473 0.0
C3344 C 0.33388 0.62187 0.64993 0.0
C3345 C 0.31843 0.62492 0.63314 0.0
H3346 H 0.34047 0.62501 0.6876 0.0
H3347 H 0.19703 0.65332 0.51632 0.0
loop_
_geom_bond_atom_site_label_1
_geom_bond_atom_site_label_2
_geom_bond_distance
_geom_bond_site_symmetry_2
_ccdc_geom_bond_type
Cu0 N1 1.999 . S
Cu0 O6 1.987 . S
Cu0 N11 1.984 . S
Cu0 O20 1.959 1_455 S
N1 Cu0 1.999 . S
N1 C3 1.263 . S
N1 C5 1.389 . S
N2 C3 1.358 . S
N2 C4 1.400 . S
C3 N1 1.263 . S
C3 N2 1.358 . S
C3 H9 0.930 . S
C4 N2 1.400 . S
C4 C5 1.351 . S
C4 H21 0.930 . S
C5 N1 1.389 . S
C5 C4 1.351 . S
C5 H10 0.930 . S
O6 Cu0 1.987 . S
O6 C16 1.276 1_545 S
C7 O8 1.261 . S
C7 O20 1.251 . S
O8 C7 1.261 . S
H9 C3 0.930 . S
H10 C5 0.930 . S
N11 Cu0 1.984 . S
N11 C13 1.344 1_455 S
N11 C14 1.390 1_545 S
N12 C13 1.299 1_565 S
N12 C15 1.336 . S
C13 N11 1.344 1_655 S
C13 N12 1.299 1_545 S
C13 H18 0.964 . S
C14 N11 1.390 1_565 S
C14 C15 1.346 1_455 S
C14 H19 0.930 . S
C15 N12 1.336 . S
C15 C14 1.346 1_655 S
C15 H22 0.929 . S
C16 O6 1.276 1_565 S
C16 O17 1.215 1_565 S
O17 C16 1.215 1_545 S
H18 C13 0.964 . S
H19 C14 0.930 . S
O20 Cu0 1.959 1_655 S
O20 C7 1.251 . S
H21 C4 0.930 . S
H22 C15 0.929 . S
Cu23 N24 1.999 . S
Cu23 O29 1.974 1_455 S
Cu23 N34 1.985 . S
Cu23 O43 1.959 . S
N24 Cu23 1.999 . S
N24 C26 1.263 1_455 S
N24 C28 1.389 1_545 S
N25 C26 1.358 1_565 S
N25 C27 1.400 . S
C26 N24 1.263 1_655 S
C26 N25 1.358 1_545 S
C26 H32 0.930 . S
C27 N25 1.400 . S
C27 C28 1.351 1_655 S
C27 H44 0.930 . S
C28 N24 1.389 1_565 S
C28 C27 1.351 1_455 S
C28 H33 0.930 . S
O29 Cu23 1.974 1_655 S
O29 C39 1.282 . S
C30 O31 1.261 . S
C30 O43 1.251 . S
O31 C30 1.261 . S
H32 C26 0.930 . S
H33 C28 0.930 . S
N34 Cu23 1.985 . S
N34 C36 1.335 . S
N34 C37 1.390 . S
N35 C36 1.345 . S
N35 C38 1.336 . S
C36 N34 1.335 . S
C36 N35 1.345 . S
C36 H41 0.930 . S
C37 N34 1.390 . S
C37 C38 1.346 . S
C37 H42 0.930 . S
C38 N35 1.336 . S
C38 C37 1.346 . S
C38 H45 0.929 . S
C39 O29 1.282 . S
C39 O40 1.216 . S
O40 C39 1.216 . S
H41 C36 0.930 . S
H42 C37 0.930 . S
O43 Cu23 1.959 . S
O43 C30 1.251 . S
H44 C27 0.930 . S
H45 C38 0.929 . S
Cu46 N47 1.999 . S
Cu46 O52 1.974 . S
Cu46 N57 1.985 . S
Cu46 O66 1.959 . S
N47 Cu46 1.999 . S
N47 C49 1.263 . S
N47 C51 1.389 . S
N48 C49 1.358 . S
N48 C50 1.400 . S
C49 N47 1.263 . S
C49 N48 1.358 . S
C49 H55 0.930 . S
C50 N48 1.400 . S
C50 C51 1.351 . S
C50 H67 0.930 1_554 S
C51 N47 1.389 . S
C51 C50 1.351 . S
C51 H56 0.930 . S
O52 Cu46 1.974 . S
O52 C62 1.282 . S
C53 O54 1.261 . S
C53 O66 1.251 . S
O54 C53 1.261 . S
H55 C49 0.930 . S
H56 C51 0.930 . S
N57 Cu46 1.985 . S
N57 C59 1.335 . S
N57 C60 1.390 . S
N58 C59 1.345 . S
N58 C61 1.336 . S
C59 N57 1.335 . S
C59 N58 1.345 . S
C59 H64 0.930 . S
C60 N57 1.390 . S
C60 C61 1.346 . S
C60 H65 0.930 . S
C61 N58 1.336 . S
C61 C60 1.346 . S
C61 H68 0.929 . S
C62 O52 1.282 . S
C62 O63 1.216 . S
O63 C62 1.216 . S
H64 C59 0.930 . S
H65 C60 0.930 . S
O66 Cu46 1.959 . S
O66 C53 1.251 . S
H67 C50 0.930 1_556 S
H68 C61 0.929 . S
Cu69 N70 1.999 . S
Cu69 O75 1.974 . S
Cu69 N80 1.985 . S
Cu69 O89 1.959 . S
N70 Cu69 1.999 . S
N70 C72 1.263 . S
N70 C74 1.389 . S
N71 C72 1.358 . S
N71 C73 1.400 1_554 S
C72 N70 1.263 . S
C72 N71 1.358 . S
C72 H78 0.930 . S
C73 N71 1.400 1_556 S
C73 C74 1.351 1_556 S
C73 H90 0.930 . S
C74 N70 1.389 . S
C74 C73 1.351 1_554 S
C74 H79 0.930 . S
O75 Cu69 1.974 . S
O75 C85 1.282 . S
C76 O77 1.261 . S
C76 O89 1.251 . S
O77 C76 1.261 . S
H78 C72 0.930 . S
H79 C74 0.930 . S
N80 Cu69 1.985 . S
N80 C82 1.335 1_455 S
N80 C83 1.390 . S
N81 C82 1.345 . S
N81 C84 1.336 1_655 S
C82 N80 1.335 1_655 S
C82 N81 1.345 . S
C82 H87 0.930 . S
C83 N80 1.390 . S
C83 C84 1.346 . S
C83 H88 0.930 . S
C84 N81 1.336 1_455 S
C84 C83 1.346 . S
C84 H91 0.929 . S
C85 O75 1.282 . S
C85 O86 1.216 . S
O86 C85 1.216 . S
H87 C82 0.930 . S
H88 C83 0.930 . S
O89 Cu69 1.959 . S
O89 C76 1.251 . S
H90 C73 0.930 . S
H91 C84 0.929 . S
Cu92 N93 1.999 1_554 S
Cu92 O98 1.974 . S
Cu92 N103 1.985 1_545 S
Cu92 O112 1.959 1_544 S
N93 Cu92 1.999 1_556 S
N93 C95 1.263 . S
N93 C97 1.389 . S
N94 C95 1.358 . S
N94 C96 1.400 . S
C95 N93 1.263 . S
C95 N94 1.358 . S
C95 H101 0.930 . S
C96 N94 1.400 . S
C96 C97 1.351 . S
C96 H113 0.930 . S
C97 N93 1.389 . S
C97 C96 1.351 . S
C97 H102 0.930 . S
O98 Cu92 1.974 . S
O98 C108 1.282 . S
C99 O100 1.261 . S
C99 O112 1.251 . S
O100 C99 1.261 . S
H101 C95 0.930 . S
H102 C97 0.930 . S
N103 Cu92 1.985 1_565 S
N103 C105 1.335 . S
N103 C106 1.390 . S
N104 C105 1.345 . S
N104 C107 1.336 . S
C105 N103 1.335 . S
C105 N104 1.345 . S
C105 H110 0.930 . S
C106 N103 1.390 . S
C106 C107 1.346 . S
C106 H111 0.930 . S
C107 N104 1.336 . S
C107 C106 1.346 . S
C107 H114 0.929 . S
C108 O98 1.282 . S
C108 O109 1.216 . S
O109 C108 1.216 . S
H110 C105 0.930 . S
H111 C106 0.930 . S
O112 Cu92 1.959 1_566 S
O112 C99 1.251 . S
H113 C96 0.930 . S
H114 C107 0.929 . S
Cu115 N116 1.999 1_454 S
Cu115 O121 1.974 1_455 S
Cu115 N126 1.985 . S
Cu115 O135 1.959 1_554 S
N116 Cu115 1.999 1_656 S
N116 C118 1.263 . S
N116 C120 1.389 . S
N117 C118 1.358 . S
N117 C119 1.400 . S
C118 N116 1.263 . S
C118 N117 1.358 . S
C118 H124 0.930 . S
C119 N117 1.400 . S
C119 C120 1.351 . S
C119 H136 0.930 . S
C120 N116 1.389 . S
C120 C119 1.351 . S
C120 H125 0.930 1_655 S
O121 Cu115 1.974 1_655 S
O121 C131 1.282 . S
C122 O123 1.261 . S
C122 O135 1.251 . S
O123 C122 1.261 . S
H124 C118 0.930 . S
H125 C120 0.930 1_455 S
N126 Cu115 1.985 . S
N126 C128 1.335 . S
N126 C129 1.390 . S
N127 C128 1.345 . S
N127 C130 1.336 . S
C128 N126 1.335 . S
C128 N127 1.345 . S
C128 H133 0.930 . S
C129 N126 1.390 . S
C129 C130 1.346 . S
C129 H134 0.912 1_455 S
C130 N127 1.336 . S
C130 C129 1.346 . S
C130 H137 0.929 . S
C131 O121 1.282 . S
C131 O132 1.216 . S
O132 C131 1.216 . S
H133 C128 0.930 . S
H134 C129 0.912 1_655 S
O135 Cu115 1.959 1_556 S
O135 C122 1.251 . S
H136 C119 0.930 . S
H137 C130 0.929 . S
Cu138 N139 1.999 . S
Cu138 O144 1.974 . S
Cu138 N149 1.985 . S
Cu138 O158 1.959 . S
N139 Cu138 1.999 . S
N139 C141 1.263 . S
N139 C143 1.389 . S
N140 C141 1.358 . S
N140 C142 1.400 . S
C141 N139 1.263 . S
C141 N140 1.358 . S
C141 H147 0.930 . S
C142 N140 1.400 . S
C142 C143 1.351 . S
C142 H159 0.930 . S
C143 N139 1.389 . S
C143 C142 1.351 . S
C143 H148 0.930 . S
O144 Cu138 1.974 . S
O144 C154 1.282 . S
C145 O146 1.261 . S
C145 O158 1.251 . S
O146 C145 1.261 . S
H147 C141 0.930 . S
H148 C143 0.930 . S
N149 Cu138 1.985 . S
N149 C151 1.335 . S
N149 C152 1.390 . S
N150 C151 1.345 . S
N150 C153 1.336 . S
C151 N149 1.335 . S
C151 N150 1.345 . S
C151 H156 0.930 . S
C152 N149 1.390 . S
C152 C153 1.346 . S
C152 H157 0.930 . S
C153 N150 1.336 . S
C153 C152 1.346 . S
C153 H160 0.929 . S
C154 O144 1.282 . S
C154 O155 1.216 . S
O155 C154 1.216 . S
H156 C151 0.930 . S
H157 C152 0.930 . S
O158 Cu138 1.959 . S
O158 C145 1.251 . S
H159 C142 0.930 . S
H160 C153 0.929 . S
Cu161 N162 1.999 . S
Cu161 O167 1.974 . S
Cu161 N172 1.985 . S
Cu161 O181 1.959 . S
N162 Cu161 1.999 . S
N162 C164 1.263 . S
N162 C166 1.389 . S
N163 C164 1.358 . S
N163 C165 1.400 . S
C164 N162 1.263 . S
C164 N163 1.358 . S
C164 H170 0.930 . S
C165 N163 1.400 . S
C165 C166 1.351 . S
C165 H182 0.930 . S
C166 N162 1.389 . S
C166 C165 1.351 . S
C166 H171 0.930 . S
O167 Cu161 1.974 . S
O167 C177 1.282 . S
C168 O169 1.261 . S
C168 O181 1.251 . S
O169 C168 1.261 . S
H170 C164 0.930 . S
H171 C166 0.930 . S
N172 Cu161 1.985 . S
N172 C174 1.335 . S
N172 C175 1.390 . S
N173 C174 1.345 . S
N173 C176 1.336 . S
C174 N172 1.335 . S
C174 N173 1.345 . S
C174 H179 0.930 . S
C175 N172 1.390 . S
C175 C176 1.346 . S
C175 H180 0.930 . S
C176 N173 1.336 . S
C176 C175 1.346 . S
C176 H183 0.929 . S
C177 O167 1.282 . S
C177 O178 1.216 . S
O178 C177 1.216 . S
H179 C174 0.930 . S
H180 C175 0.930 . S
O181 Cu161 1.959 . S
O181 C168 1.251 . S
H182 C165 0.930 . S
H183 C176 0.929 . S
Cu184 N185 1.999 . S
Cu184 O190 1.974 . S
Cu184 N195 1.985 . S
Cu184 O204 1.959 . S
N185 Cu184 1.999 . S
N185 C187 1.263 . S
N185 C189 1.389 . S
N186 C187 1.358 . S
N186 C188 1.400 . S
C187 N185 1.263 . S
C187 N186 1.358 . S
C187 H193 0.930 . S
C188 N186 1.400 . S
C188 C189 1.351 . S
C188 H205 0.930 . S
C189 N185 1.389 . S
C189 C188 1.351 . S
C189 H194 0.930 . S
O190 Cu184 1.974 . S
O190 C200 1.282 . S
C191 O192 1.261 . S
C191 O204 1.251 . S
O192 C191 1.261 . S
H193 C187 0.930 . S
H194 C189 0.930 . S
N195 Cu184 1.985 . S
N195 C197 1.335 . S
N195 C198 1.390 . S
N196 C197 1.345 . S
N196 C199 1.336 . S
C197 N195 1.335 . S
C197 N196 1.345 . S
C197 H202 0.930 . S
C198 N195 1.390 . S
C198 C199 1.346 . S
C198 H203 0.930 . S
C199 N196 1.336 . S
C199 C198 1.346 . S
C199 H206 0.929 . S
C200 O190 1.282 . S
C200 O201 1.216 . S
O201 C200 1.216 . S
H202 C197 0.930 . S
H203 C198 0.930 . S
O204 Cu184 1.959 . S
O204 C191 1.251 . S
H205 C188 0.930 . S
H206 C199 0.929 . S
Cu207 N208 1.999 . S
Cu207 O213 1.974 . S
Cu207 N218 1.985 . S
Cu207 O227 1.959 . S
N208 Cu207 1.999 . S
N208 C210 1.263 . S
N208 C212 1.389 . S
N209 C210 1.358 . S
N209 C211 1.400 . S
C210 N208 1.263 . S
C210 N209 1.358 . S
C210 H216 0.930 . S
C211 N209 1.400 . S
C211 C212 1.351 . S
C211 H228 0.930 . S
C212 N208 1.389 . S
C212 C211 1.351 . S
C212 H217 0.930 . S
O213 Cu207 1.974 . S
O213 C223 1.282 . S
C214 O215 1.261 . S
C214 O227 1.251 . S
O215 C214 1.261 . S
H216 C210 0.930 . S
H217 C212 0.930 . S
N218 Cu207 1.985 . S
N218 C220 1.335 . S
N218 C221 1.390 . S
N219 C220 1.345 . S
N219 C222 1.336 . S
C220 N218 1.335 . S
C220 N219 1.345 . S
C220 H225 0.930 . S
C221 N218 1.390 . S
C221 C222 1.346 . S
C221 H226 0.930 . S
C222 N219 1.336 . S
C222 C221 1.346 . S
C222 H229 0.929 . S
C223 O213 1.282 . S
C223 O224 1.216 . S
O224 C223 1.216 . S
H225 C220 0.930 . S
H226 C221 0.930 . S
O227 Cu207 1.959 . S
O227 C214 1.251 . S
H228 C211 0.930 . S
H229 C222 0.929 . S
Cu230 N231 1.999 . S
Cu230 O236 1.974 . S
Cu230 N241 1.985 . S
Cu230 O250 1.959 . S
N231 Cu230 1.999 . S
N231 C233 1.263 . S
N231 C235 1.389 . S
N232 C233 1.358 . S
N232 C234 1.400 . S
C233 N231 1.263 . S
C233 N232 1.358 . S
C233 H239 0.930 . S
C234 N232 1.400 . S
C234 C235 1.351 . S
C234 H251 0.930 . S
C235 N231 1.389 . S
C235 C234 1.351 . S
C235 H240 0.930 . S
O236 Cu230 1.974 . S
O236 C246 1.282 . S
C237 O238 1.261 . S
C237 O250 1.251 . S
O238 C237 1.261 . S
H239 C233 0.930 . S
H240 C235 0.930 . S
N241 Cu230 1.985 . S
N241 C243 1.335 . S
N241 C244 1.390 . S
N242 C243 1.345 . S
N242 C245 1.336 . S
C243 N241 1.335 . S
C243 N242 1.345 . S
C243 H248 0.930 . S
C244 N241 1.390 . S
C244 C245 1.346 . S
C244 H249 0.930 . S
C245 N242 1.336 . S
C245 C244 1.346 . S
C245 H252 0.929 . S
C246 O236 1.282 . S
C246 O247 1.216 . S
O247 C246 1.216 . S
H248 C243 0.930 . S
H249 C244 0.930 . S
O250 Cu230 1.959 . S
O250 C237 1.251 . S
H251 C234 0.930 . S
H252 C245 0.929 . S
Cu253 N254 1.999 . S
Cu253 O259 1.974 . S
Cu253 N264 1.985 . S
Cu253 O273 1.959 . S
N254 Cu253 1.999 . S
N254 C256 1.263 . S
N254 C258 1.389 . S
N255 C256 1.358 . S
N255 C257 1.400 . S
C256 N254 1.263 . S
C256 N255 1.358 . S
C256 H262 0.930 . S
C257 N255 1.400 . S
C257 C258 1.351 . S
C257 H274 0.930 . S
C258 N254 1.389 . S
C258 C257 1.351 . S
C258 H263 0.930 . S
O259 Cu253 1.974 . S
O259 C269 1.282 . S
C260 O261 1.261 . S
C260 O273 1.251 . S
O261 C260 1.261 . S
H262 C256 0.930 . S
H263 C258 0.930 . S
N264 Cu253 1.985 . S
N264 C266 1.335 . S
N264 C267 1.390 . S
N265 C266 1.345 . S
N265 C268 1.336 . S
C266 N264 1.335 . S
C266 N265 1.345 . S
C266 H271 0.930 . S
C267 N264 1.390 . S
C267 C268 1.346 . S
C267 H272 0.930 . S
C268 N265 1.336 . S
C268 C267 1.346 . S
C268 H275 0.929 . S
C269 O259 1.282 . S
C269 O270 1.216 . S
O270 C269 1.216 . S
H271 C266 0.930 . S
H272 C267 0.930 . S
O273 Cu253 1.959 . S
O273 C260 1.251 . S
H274 C257 0.930 . S
H275 C268 0.929 . S
Eu276 N307 2.657 . S
Eu276 N314 2.609 . S
Eu276 O320 2.558 . S
Eu276 O321 2.612 . S
Eu276 O323 2.339 . S
Eu276 O324 2.563 . S
Eu276 O325 2.419 . S
Eu276 O327 2.380 . S
Eu276 O328 2.432 . S
Eu276 C340 2.848 . S
C277 C280 1.429 . S
C277 C281 1.411 . S
C277 N284 1.377 . S
C278 C280 1.420 . S
C278 C282 1.423 . S
C278 C290 1.392 . S
C279 C281 1.420 . S
C279 C282 1.351 . S
C279 H302 0.931 . S
C280 C277 1.429 . S
C280 C278 1.420 . S
C280 N288 1.362 . S
C281 C277 1.411 . S
C281 C279 1.420 . S
C281 C286 1.395 . S
C282 C278 1.423 . S
C282 C279 1.351 . S
C282 H294 0.930 . S
C283 C285 1.400 . S
C283 C286 1.386 . S
C283 H295 0.930 . S
N284 C277 1.377 . S
N284 C285 1.321 . S
N284 Eu287 2.609 . S
C285 C283 1.400 . S
C285 N284 1.321 . S
C285 H292 0.930 . S
C286 C281 1.395 . S
C286 C283 1.386 . S
C286 H305 0.930 . S
Eu287 N284 2.609 . S
Eu287 N288 2.657 . S
Eu287 O321 2.380 . S
Eu287 O322 2.432 . S
Eu287 O326 2.558 . S
Eu287 O327 2.612 . S
Eu287 O329 2.339 . S
Eu287 O330 2.563 . S
Eu287 O331 2.419 . S
Eu287 C351 2.848 . S
N288 C280 1.362 . S
N288 Eu287 2.657 . S
N288 C289 1.334 . S
C289 N288 1.334 . S
C289 C291 1.413 . S
C289 H296 0.929 . S
C290 C278 1.392 . S
C290 C291 1.367 . S
C290 H298 0.930 . S
C291 C289 1.413 . S
C291 C290 1.367 . S
C291 H293 0.930 . S
H292 C285 0.930 . S
H293 C291 0.930 . S
H294 C282 0.930 . S
H295 C283 0.930 . S
H296 C289 0.929 . S
H297 C311 0.930 . S
H298 C290 0.930 . S
H299 C317 0.930 . S
H300 C308 0.929 . S
H301 C315 0.930 . S
H302 C279 0.931 . S
H303 C309 0.930 . S
H304 C342 0.930 . S
H305 C286 0.930 . S
H306 C341 0.931 . S
N307 Eu276 2.657 . S
N307 C308 1.334 . S
N307 C312 1.362 . S
C308 H300 0.929 . S
C308 N307 1.334 . S
C308 C311 1.413 . S
C309 H303 0.930 . S
C309 C310 1.392 . S
C309 C311 1.367 . S
C310 C309 1.392 . S
C310 C312 1.420 . S
C310 C342 1.423 . S
C311 H297 0.930 . S
C311 C308 1.413 . S
C311 C309 1.367 . S
C312 N307 1.362 . S
C312 C310 1.420 . S
C312 C316 1.429 . S
H313 C318 0.930 . S
N314 Eu276 2.609 . S
N314 C316 1.377 . S
N314 C317 1.321 . S
C315 H301 0.930 . S
C315 C317 1.400 . S
C315 C318 1.386 . S
C316 C312 1.429 . S
C316 N314 1.377 . S
C316 C319 1.411 . S
C317 H299 0.930 . S
C317 N314 1.321 . S
C317 C315 1.400 . S
C318 H313 0.930 . S
C318 C315 1.386 . S
C318 C319 1.395 . S
C319 C316 1.411 . S
C319 C318 1.395 . S
C319 C341 1.420 . S
O320 Eu276 2.558 . S
O320 C340 1.257 . S
O321 Eu276 2.612 . S
O321 Eu287 2.380 . S
O321 C332 1.276 . S
O322 Eu287 2.432 . S
O322 C339 1.264 . S
O323 Eu276 2.339 . S
O323 C339 1.254 . S
O324 Eu276 2.563 . S
O324 C332 1.235 . S
O325 Eu276 2.419 . S
O325 C340 1.249 . S
O326 Eu287 2.558 . S
O326 C351 1.257 . S
O327 Eu276 2.380 . S
O327 Eu287 2.612 . S
O327 C343 1.276 . S
O328 Eu276 2.432 . S
O328 C350 1.264 . S
O329 Eu287 2.339 . S
O329 C350 1.254 . S
O330 Eu287 2.563 . S
O330 C343 1.235 . S
O331 Eu287 2.419 . S
O331 C351 1.249 . S
C332 O321 1.276 . S
C332 O324 1.235 . S
C333 C335 1.393 . S
C333 C337 1.395 . S
C333 C340 1.492 . S
C334 C335 1.392 . S
C334 C336 1.386 . S
C335 C333 1.393 . S
C335 C334 1.392 . S
C335 H352 0.930 . S
C336 C334 1.386 . S
C336 C338 1.395 . S
C336 H353 0.930 . S
C337 C333 1.395 . S
C337 C338 1.379 . S
C337 H354 0.930 . S
C338 C336 1.395 . S
C338 C337 1.379 . S
C338 H355 0.930 . S
C339 O322 1.264 . S
C339 O323 1.254 . S
C340 Eu276 2.848 . S
C340 O320 1.257 . S
C340 O325 1.249 . S
C340 C333 1.492 . S
C341 H306 0.931 . S
C341 C319 1.420 . S
C341 C342 1.351 . S
C342 H304 0.930 . S
C342 C310 1.423 . S
C342 C341 1.351 . S
C343 O327 1.276 . S
C343 O330 1.235 . S
C344 C345 1.393 . S
C344 C348 1.395 . S
C344 C351 1.492 . S
C345 C344 1.393 . S
C345 C346 1.392 . S
C345 H356 0.930 . S
C346 C345 1.392 . S
C346 C347 1.386 . S
C347 C346 1.386 . S
C347 C349 1.395 . S
C347 H357 0.930 . S
C348 C344 1.395 . S
C348 C349 1.379 . S
C348 H358 0.930 . S
C349 C347 1.395 . S
C349 C348 1.379 . S
C349 H359 0.930 . S
C350 O328 1.264 . S
C350 O329 1.254 . S
C351 Eu287 2.848 . S
C351 O326 1.257 . S
C351 O331 1.249 . S
C351 C344 1.492 . S
H352 C335 0.930 . S
H353 C336 0.930 . S
H354 C337 0.930 . S
H355 C338 0.930 . S
H356 C345 0.930 . S
H357 C347 0.930 . S
H358 C348 0.930 . S
H359 C349 0.930 . S
Eu360 N391 2.657 . S
Eu360 N398 2.609 . S
Eu360 O404 2.558 . S
Eu360 O405 2.612 . S
Eu360 O407 2.339 . S
Eu360 O408 2.563 . S
Eu360 O409 2.419 . S
Eu360 O411 2.380 . S
Eu360 O412 2.432 . S
Eu360 C424 2.848 . S
C361 C364 1.429 . S
C361 C365 1.411 . S
C361 N368 1.377 . S
C362 C364 1.420 . S
C362 C366 1.423 . S
C362 C374 1.392 . S
C363 C365 1.420 . S
C363 C366 1.351 . S
C363 H386 0.931 . S
C364 C361 1.429 . S
C364 C362 1.420 . S
C364 N372 1.362 . S
C365 C361 1.411 . S
C365 C363 1.420 . S
C365 C370 1.395 . S
C366 C362 1.423 . S
C366 C363 1.351 . S
C366 H378 0.930 . S
C367 C369 1.400 . S
C367 C370 1.386 . S
C367 H379 0.930 . S
N368 C361 1.377 . S
N368 C369 1.321 . S
N368 Eu371 2.609 . S
C369 C367 1.400 . S
C369 N368 1.321 . S
C369 H376 0.930 . S
C370 C365 1.395 . S
C370 C367 1.386 . S
C370 H389 0.930 . S
Eu371 N368 2.609 . S
Eu371 N372 2.657 . S
Eu371 O405 2.380 . S
Eu371 O406 2.432 . S
Eu371 O410 2.558 . S
Eu371 O411 2.612 . S
Eu371 O413 2.339 . S
Eu371 O414 2.563 . S
Eu371 O415 2.419 . S
Eu371 C435 2.848 . S
N372 C364 1.362 . S
N372 Eu371 2.657 . S
N372 C373 1.334 . S
C373 N372 1.334 . S
C373 C375 1.413 . S
C373 H380 0.929 . S
C374 C362 1.392 . S
C374 C375 1.367 . S
C374 H382 0.930 . S
C375 C373 1.413 . S
C375 C374 1.367 . S
C375 H377 0.930 . S
H376 C369 0.930 . S
H377 C375 0.930 . S
H378 C366 0.930 . S
H379 C367 0.930 . S
H380 C373 0.929 . S
H381 C395 0.930 . S
H382 C374 0.930 . S
H383 C401 0.930 . S
H384 C392 0.929 . S
H385 C399 0.930 . S
H386 C363 0.931 . S
H387 C393 0.930 . S
H388 C426 0.930 . S
H389 C370 0.930 . S
H390 C425 0.931 . S
N391 Eu360 2.657 . S
N391 C392 1.334 . S
N391 C396 1.362 . S
C392 H384 0.929 . S
C392 N391 1.334 . S
C392 C395 1.413 . S
C393 H387 0.930 . S
C393 C394 1.392 . S
C393 C395 1.367 . S
C394 C393 1.392 . S
C394 C396 1.420 . S
C394 C426 1.423 . S
C395 H381 0.930 . S
C395 C392 1.413 . S
C395 C393 1.367 . S
C396 N391 1.362 . S
C396 C394 1.420 . S
C396 C400 1.429 . S
H397 C402 0.930 . S
N398 Eu360 2.609 . S
N398 C400 1.377 . S
N398 C401 1.321 . S
C399 H385 0.930 . S
C399 C401 1.400 . S
C399 C402 1.386 . S
C400 C396 1.429 . S
C400 N398 1.377 . S
C400 C403 1.411 . S
C401 H383 0.930 . S
C401 N398 1.321 . S
C401 C399 1.400 . S
C402 H397 0.930 . S
C402 C399 1.386 . S
C402 C403 1.395 . S
C403 C400 1.411 . S
C403 C402 1.395 . S
C403 C425 1.420 . S
O404 Eu360 2.558 . S
O404 C424 1.257 . S
O405 Eu360 2.612 . S
O405 Eu371 2.380 . S
O405 C416 1.276 . S
O406 Eu371 2.432 . S
O406 C423 1.264 . S
O407 Eu360 2.339 . S
O407 C423 1.254 . S
O408 Eu360 2.563 . S
O408 C416 1.235 . S
O409 Eu360 2.419 . S
O409 C424 1.249 . S
O410 Eu371 2.558 . S
O410 C435 1.257 . S
O411 Eu360 2.380 . S
O411 Eu371 2.612 . S
O411 C427 1.276 . S
O412 Eu360 2.432 . S
O412 C434 1.264 . S
O413 Eu371 2.339 . S
O413 C434 1.254 . S
O414 Eu371 2.563 . S
O414 C427 1.235 . S
O415 Eu371 2.419 . S
O415 C435 1.249 . S
C416 O405 1.276 . S
C416 O408 1.235 . S
C417 C419 1.393 . S
C417 C421 1.395 . S
C417 C424 1.492 . S
C418 C419 1.392 . S
C418 C420 1.386 . S
C419 C417 1.393 . S
C419 C418 1.392 . S
C419 H436 0.930 . S
C420 C418 1.386 . S
C420 C422 1.395 . S
C420 H437 0.930 . S
C421 C417 1.395 . S
C421 C422 1.379 . S
C421 H438 0.930 . S
C422 C420 1.395 . S
C422 C421 1.379 . S
C422 H439 0.930 . S
C423 O406 1.264 . S
C423 O407 1.254 . S
C424 Eu360 2.848 . S
C424 O404 1.257 . S
C424 O409 1.249 . S
C424 C417 1.492 . S
C425 H390 0.931 . S
C425 C403 1.420 . S
C425 C426 1.351 . S
C426 H388 0.930 . S
C426 C394 1.423 . S
C426 C425 1.351 . S
C427 O411 1.276 . S
C427 O414 1.235 . S
C428 C429 1.393 . S
C428 C432 1.395 . S
C428 C435 1.492 . S
C429 C428 1.393 . S
C429 C430 1.392 . S
C429 H440 0.930 . S
C430 C429 1.392 . S
C430 C431 1.386 . S
C431 C430 1.386 . S
C431 C433 1.395 . S
C431 H441 0.930 . S
C432 C428 1.395 . S
C432 C433 1.379 . S
C432 H442 0.930 . S
C433 C431 1.395 . S
C433 C432 1.379 . S
C433 H443 0.930 . S
C434 O412 1.264 . S
C434 O413 1.254 . S
C435 Eu371 2.848 . S
C435 O410 1.257 . S
C435 O415 1.249 . S
C435 C428 1.492 . S
H436 C419 0.930 . S
H437 C420 0.930 . S
H438 C421 0.930 . S
H439 C422 0.930 . S
H440 C429 0.930 . S
H441 C431 0.930 . S
H442 C432 0.930 . S
H443 C433 0.930 . S
Eu444 N475 2.657 . S
Eu444 N482 2.609 . S
Eu444 O488 2.558 . S
Eu444 O489 2.612 . S
Eu444 O491 2.339 . S
Eu444 O492 2.563 . S
Eu444 O493 2.419 . S
Eu444 O495 2.380 . S
Eu444 O496 2.432 . S
Eu444 C508 2.848 . S
C445 C448 1.429 . S
C445 C449 1.411 . S
C445 N452 1.377 . S
C446 C448 1.420 . S
C446 C450 1.423 . S
C446 C458 1.392 . S
C447 C449 1.420 . S
C447 C450 1.351 . S
C447 H470 0.931 . S
C448 C445 1.429 . S
C448 C446 1.420 . S
C448 N456 1.362 . S
C449 C445 1.411 . S
C449 C447 1.420 . S
C449 C454 1.395 . S
C450 C446 1.423 . S
C450 C447 1.351 . S
C450 H462 0.930 . S
C451 C453 1.400 . S
C451 C454 1.386 . S
C451 H463 0.930 . S
N452 C445 1.377 . S
N452 C453 1.321 . S
N452 Eu455 2.609 . S
C453 C451 1.400 . S
C453 N452 1.321 . S
C453 H460 0.930 . S
C454 C449 1.395 . S
C454 C451 1.386 . S
C454 H473 0.930 . S
Eu455 N452 2.609 . S
Eu455 N456 2.657 . S
Eu455 O489 2.380 . S
Eu455 O490 2.432 . S
Eu455 O494 2.558 . S
Eu455 O495 2.612 . S
Eu455 O497 2.339 . S
Eu455 O498 2.563 . S
Eu455 O499 2.419 . S
Eu455 C519 2.848 . S
N456 C448 1.362 . S
N456 Eu455 2.657 . S
N456 C457 1.334 . S
C457 N456 1.334 . S
C457 C459 1.413 . S
C457 H464 0.929 . S
C458 C446 1.392 . S
C458 C459 1.367 . S
C458 H466 0.930 . S
C459 C457 1.413 . S
C459 C458 1.367 . S
C459 H461 0.930 . S
H460 C453 0.930 . S
H461 C459 0.930 . S
H462 C450 0.930 . S
H463 C451 0.930 . S
H464 C457 0.929 . S
H465 C479 0.930 . S
H466 C458 0.930 . S
H467 C485 0.930 . S
H468 C476 0.929 . S
H469 C483 0.930 . S
H470 C447 0.931 . S
H471 C477 0.930 . S
H472 C510 0.930 . S
H473 C454 0.930 . S
H474 C509 0.931 . S
N475 Eu444 2.657 . S
N475 C476 1.334 . S
N475 C480 1.362 . S
C476 H468 0.929 . S
C476 N475 1.334 . S
C476 C479 1.413 . S
C477 H471 0.930 . S
C477 C478 1.392 . S
C477 C479 1.367 . S
C478 C477 1.392 . S
C478 C480 1.420 . S
C478 C510 1.423 . S
C479 H465 0.930 . S
C479 C476 1.413 . S
C479 C477 1.367 . S
C480 N475 1.362 . S
C480 C478 1.420 . S
C480 C484 1.429 . S
H481 C486 0.930 . S
N482 Eu444 2.609 . S
N482 C484 1.377 . S
N482 C485 1.321 . S
C483 H469 0.930 . S
C483 C485 1.400 . S
C483 C486 1.386 . S
C484 C480 1.429 . S
C484 N482 1.377 . S
C484 C487 1.411 . S
C485 H467 0.930 . S
C485 N482 1.321 . S
C485 C483 1.400 . S
C486 H481 0.930 . S
C486 C483 1.386 . S
C486 C487 1.395 . S
C487 C484 1.411 . S
C487 C486 1.395 . S
C487 C509 1.420 . S
O488 Eu444 2.558 . S
O488 C508 1.257 . S
O489 Eu444 2.612 . S
O489 Eu455 2.380 . S
O489 C500 1.276 . S
O490 Eu455 2.432 . S
O490 C507 1.264 . S
O491 Eu444 2.339 . S
O491 C507 1.254 . S
O492 Eu444 2.563 . S
O492 C500 1.235 . S
O493 Eu444 2.419 . S
O493 C508 1.249 . S
O494 Eu455 2.558 . S
O494 C519 1.257 . S
O495 Eu444 2.380 . S
O495 Eu455 2.612 . S
O495 C511 1.276 . S
O496 Eu444 2.432 . S
O496 C518 1.264 . S
O497 Eu455 2.339 . S
O497 C518 1.254 . S
O498 Eu455 2.563 . S
O498 C511 1.235 . S
O499 Eu455 2.419 . S
O499 C519 1.249 . S
C500 O489 1.276 . S
C500 O492 1.235 . S
C501 C503 1.393 . S
C501 C505 1.395 . S
C501 C508 1.492 . S
C502 C503 1.392 . S
C502 C504 1.386 . S
C503 C501 1.393 . S
C503 C502 1.392 . S
C503 H520 0.930 . S
C504 C502 1.386 . S
C504 C506 1.395 . S
C504 H521 0.930 . S
C505 C501 1.395 . S
C505 C506 1.379 . S
C505 H522 0.930 . S
C506 C504 1.395 . S
C506 C505 1.379 . S
C506 H523 0.930 . S
C507 O490 1.264 . S
C507 O491 1.254 . S
C508 Eu444 2.848 . S
C508 O488 1.257 . S
C508 O493 1.249 . S
C508 C501 1.492 . S
C509 H474 0.931 . S
C509 C487 1.420 . S
C509 C510 1.351 . S
C510 H472 0.930 . S
C510 C478 1.423 . S
C510 C509 1.351 . S
C511 O495 1.276 . S
C511 O498 1.235 . S
C512 C513 1.393 . S
C512 C516 1.395 . S
C512 C519 1.492 . S
C513 C512 1.393 . S
C513 C514 1.392 . S
C513 H524 0.930 . S
C514 C513 1.392 . S
C514 C515 1.386 . S
C515 C514 1.386 . S
C515 C517 1.395 . S
C515 H525 0.930 . S
C516 C512 1.395 . S
C516 C517 1.379 . S
C516 H526 0.930 . S
C517 C515 1.395 . S
C517 C516 1.379 . S
C517 H527 0.930 . S
C518 O496 1.264 . S
C518 O497 1.254 . S
C519 Eu455 2.848 . S
C519 O494 1.257 . S
C519 O499 1.249 . S
C519 C512 1.492 . S
H520 C503 0.930 . S
H521 C504 0.930 . S
H522 C505 0.930 . S
H523 C506 0.930 . S
H524 C513 0.930 . S
H525 C515 0.930 . S
H526 C516 0.930 . S
H527 C517 0.930 . S
Eu528 N559 2.657 . S
Eu528 N566 2.609 . S
Eu528 O572 2.558 . S
Eu528 O573 2.612 . S
Eu528 O575 2.339 . S
Eu528 O576 2.563 . S
Eu528 O577 2.419 . S
Eu528 O579 2.380 . S
Eu528 O580 2.432 . S
Eu528 C592 2.848 . S
C529 C532 1.429 . S
C529 C533 1.411 . S
C529 N536 1.377 . S
C530 C532 1.420 . S
C530 C534 1.423 . S
C530 C542 1.392 . S
C531 C533 1.420 . S
C531 C534 1.351 . S
C531 H554 0.931 . S
C532 C529 1.429 . S
C532 C530 1.420 . S
C532 N540 1.362 . S
C533 C529 1.411 . S
C533 C531 1.420 . S
C533 C538 1.395 . S
C534 C530 1.423 . S
C534 C531 1.351 . S
C534 H546 0.930 . S
C535 C537 1.400 . S
C535 C538 1.386 . S
C535 H547 0.930 . S
N536 C529 1.377 . S
N536 C537 1.321 . S
N536 Eu539 2.609 . S
C537 C535 1.400 . S
C537 N536 1.321 . S
C537 H544 0.930 . S
C538 C533 1.395 . S
C538 C535 1.386 . S
C538 H557 0.930 . S
Eu539 N536 2.609 . S
Eu539 N540 2.657 . S
Eu539 O573 2.380 . S
Eu539 O574 2.432 . S
Eu539 O578 2.558 . S
Eu539 O579 2.612 . S
Eu539 O581 2.339 . S
Eu539 O582 2.563 . S
Eu539 O583 2.419 . S
Eu539 C603 2.848 . S
N540 C532 1.362 . S
N540 Eu539 2.657 . S
N540 C541 1.334 . S
C541 N540 1.334 . S
C541 C543 1.413 . S
C541 H548 0.929 . S
C542 C530 1.392 . S
C542 C543 1.367 . S
C542 H550 0.930 . S
C543 C541 1.413 . S
C543 C542 1.367 . S
C543 H545 0.930 . S
H544 C537 0.930 . S
H545 C543 0.930 . S
H546 C534 0.930 . S
H547 C535 0.930 . S
H548 C541 0.929 . S
H549 C563 0.930 . S
H550 C542 0.930 . S
H551 C569 0.930 . S
H552 C560 0.929 . S
H553 C567 0.930 . S
H554 C531 0.931 . S
H555 C561 0.930 . S
H556 C594 0.930 . S
H557 C538 0.930 . S
H558 C593 0.931 . S
N559 Eu528 2.657 . S
N559 C560 1.334 . S
N559 C564 1.362 . S
C560 H552 0.929 . S
C560 N559 1.334 . S
C560 C563 1.413 . S
C561 H555 0.930 . S
C561 C562 1.392 . S
C561 C563 1.367 . S
C562 C561 1.392 . S
C562 C564 1.420 . S
C562 C594 1.423 . S
C563 H549 0.930 . S
C563 C560 1.413 . S
C563 C561 1.367 . S
C564 N559 1.362 . S
C564 C562 1.420 . S
C564 C568 1.429 . S
H565 C570 0.930 . S
N566 Eu528 2.609 . S
N566 C568 1.377 . S
N566 C569 1.321 . S
C567 H553 0.930 . S
C567 C569 1.400 . S
C567 C570 1.386 . S
C568 C564 1.429 . S
C568 N566 1.377 . S
C568 C571 1.411 . S
C569 H551 0.930 . S
C569 N566 1.321 . S
C569 C567 1.400 . S
C570 H565 0.930 . S
C570 C567 1.386 . S
C570 C571 1.395 . S
C571 C568 1.411 . S
C571 C570 1.395 . S
C571 C593 1.420 . S
O572 Eu528 2.558 . S
O572 C592 1.257 . S
O573 Eu528 2.612 . S
O573 Eu539 2.380 . S
O573 C584 1.276 . S
O574 Eu539 2.432 . S
O574 C591 1.264 . S
O575 Eu528 2.339 . S
O575 C591 1.254 . S
O576 Eu528 2.563 . S
O576 C584 1.235 . S
O577 Eu528 2.419 . S
O577 C592 1.249 . S
O578 Eu539 2.558 . S
O578 C603 1.257 . S
O579 Eu528 2.380 . S
O579 Eu539 2.612 . S
O579 C595 1.276 . S
O580 Eu528 2.432 . S
O580 C602 1.264 . S
O581 Eu539 2.339 . S
O581 C602 1.254 . S
O582 Eu539 2.563 . S
O582 C595 1.235 . S
O583 Eu539 2.419 . S
O583 C603 1.249 . S
C584 O573 1.276 . S
C584 O576 1.235 . S
C585 C587 1.393 . S
C585 C589 1.395 . S
C585 C592 1.492 . S
C586 C587 1.392 . S
C586 C588 1.386 . S
C587 C585 1.393 . S
C587 C586 1.392 . S
C587 H604 0.930 . S
C588 C586 1.386 . S
C588 C590 1.395 . S
C588 H605 0.930 . S
C589 C585 1.395 . S
C589 C590 1.379 . S
C589 H606 0.930 . S
C590 C588 1.395 . S
C590 C589 1.379 . S
C590 H607 0.930 . S
C591 O574 1.264 . S
C591 O575 1.254 . S
C592 Eu528 2.848 . S
C592 O572 1.257 . S
C592 O577 1.249 . S
C592 C585 1.492 . S
C593 H558 0.931 . S
C593 C571 1.420 . S
C593 C594 1.351 . S
C594 H556 0.930 . S
C594 C562 1.423 . S
C594 C593 1.351 . S
C595 O579 1.276 . S
C595 O582 1.235 . S
C596 C597 1.393 . S
C596 C600 1.395 . S
C596 C603 1.492 . S
C597 C596 1.393 . S
C597 C598 1.392 . S
C597 H608 0.930 . S
C598 C597 1.392 . S
C598 C599 1.386 . S
C599 C598 1.386 . S
C599 C601 1.395 . S
C599 H609 0.930 . S
C600 C596 1.395 . S
C600 C601 1.379 . S
C600 H610 0.930 . S
C601 C599 1.395 . S
C601 C600 1.379 . S
C601 H611 0.930 . S
C602 O580 1.264 . S
C602 O581 1.254 . S
C603 Eu539 2.848 . S
C603 O578 1.257 . S
C603 O583 1.249 . S
C603 C596 1.492 . S
H604 C587 0.930 . S
H605 C588 0.930 . S
H606 C589 0.930 . S
H607 C590 0.930 . S
H608 C597 0.930 . S
H609 C599 0.930 . S
H610 C600 0.930 . S
H611 C601 0.930 . S
Eu612 N643 2.657 . S
Eu612 N650 2.609 . S
Eu612 O656 2.558 . S
Eu612 O657 2.612 . S
Eu612 O659 2.339 . S
Eu612 O660 2.563 . S
Eu612 O661 2.419 . S
Eu612 O663 2.380 . S
Eu612 O664 2.432 . S
Eu612 C676 2.848 . S
C613 C616 1.429 . S
C613 C617 1.411 . S
C613 N620 1.377 . S
C614 C616 1.420 . S
C614 C618 1.423 . S
C614 C626 1.392 . S
C615 C617 1.420 . S
C615 C618 1.351 . S
C615 H638 0.931 . S
C616 C613 1.429 . S
C616 C614 1.420 . S
C616 N624 1.362 . S
C617 C613 1.411 . S
C617 C615 1.420 . S
C617 C622 1.395 . S
C618 C614 1.423 . S
C618 C615 1.351 . S
C618 H630 0.930 . S
C619 C621 1.400 . S
C619 C622 1.386 . S
C619 H631 0.930 . S
N620 C613 1.377 . S
N620 C621 1.321 . S
N620 Eu623 2.609 . S
C621 C619 1.400 . S
C621 N620 1.321 . S
C621 H628 0.930 . S
C622 C617 1.395 . S
C622 C619 1.386 . S
C622 H641 0.930 . S
Eu623 N620 2.609 . S
Eu623 N624 2.657 . S
Eu623 O657 2.380 . S
Eu623 O658 2.432 . S
Eu623 O662 2.558 . S
Eu623 O663 2.612 . S
Eu623 O665 2.339 . S
Eu623 O666 2.563 . S
Eu623 O667 2.419 . S
Eu623 C687 2.848 . S
N624 C616 1.362 . S
N624 Eu623 2.657 . S
N624 C625 1.334 . S
C625 N624 1.334 . S
C625 C627 1.413 . S
C625 H632 0.929 . S
C626 C614 1.392 . S
C626 C627 1.367 . S
C626 H634 0.930 . S
C627 C625 1.413 . S
C627 C626 1.367 . S
C627 H629 0.930 . S
H628 C621 0.930 . S
H629 C627 0.930 . S
H630 C618 0.930 . S
H631 C619 0.930 . S
H632 C625 0.929 . S
H633 C647 0.930 . S
H634 C626 0.930 . S
H635 C653 0.930 . S
H636 C644 0.929 . S
H637 C651 0.930 . S
H638 C615 0.931 . S
H639 C645 0.930 . S
H640 C678 0.930 . S
H641 C622 0.930 . S
H642 C677 0.931 . S
N643 Eu612 2.657 . S
N643 C644 1.334 . S
N643 C648 1.362 . S
C644 H636 0.929 . S
C644 N643 1.334 . S
C644 C647 1.413 . S
C645 H639 0.930 . S
C645 C646 1.392 . S
C645 C647 1.367 . S
C646 C645 1.392 . S
C646 C648 1.420 . S
C646 C678 1.423 . S
C647 H633 0.930 . S
C647 C644 1.413 . S
C647 C645 1.367 . S
C648 N643 1.362 . S
C648 C646 1.420 . S
C648 C652 1.429 . S
H649 C654 0.930 . S
N650 Eu612 2.609 . S
N650 C652 1.377 . S
N650 C653 1.321 . S
C651 H637 0.930 . S
C651 C653 1.400 . S
C651 C654 1.386 . S
C652 C648 1.429 . S
C652 N650 1.377 . S
C652 C655 1.411 . S
C653 H635 0.930 . S
C653 N650 1.321 . S
C653 C651 1.400 . S
C654 H649 0.930 . S
C654 C651 1.386 . S
C654 C655 1.395 . S
C655 C652 1.411 . S
C655 C654 1.395 . S
C655 C677 1.420 . S
O656 Eu612 2.558 . S
O656 C676 1.257 . S
O657 Eu612 2.612 . S
O657 Eu623 2.380 . S
O657 C668 1.276 . S
O658 Eu623 2.432 . S
O658 C675 1.264 . S
O659 Eu612 2.339 . S
O659 C675 1.254 . S
O660 Eu612 2.563 . S
O660 C668 1.235 . S
O661 Eu612 2.419 . S
O661 C676 1.249 . S
O662 Eu623 2.558 . S
O662 C687 1.257 . S
O663 Eu612 2.380 . S
O663 Eu623 2.612 . S
O663 C679 1.276 . S
O664 Eu612 2.432 . S
O664 C686 1.264 . S
O665 Eu623 2.339 . S
O665 C686 1.254 . S
O666 Eu623 2.563 . S
O666 C679 1.235 . S
O667 Eu623 2.419 . S
O667 C687 1.249 . S
C668 O657 1.276 . S
C668 O660 1.235 . S
C669 C671 1.393 . S
C669 C673 1.395 . S
C669 C676 1.492 . S
C670 C671 1.392 . S
C670 C672 1.386 . S
C671 C669 1.393 . S
C671 C670 1.392 . S
C671 H688 0.930 . S
C672 C670 1.386 . S
C672 C674 1.395 . S
C672 H689 0.930 . S
C673 C669 1.395 . S
C673 C674 1.379 . S
C673 H690 0.930 . S
C674 C672 1.395 . S
C674 C673 1.379 . S
C674 H691 0.930 . S
C675 O658 1.264 . S
C675 O659 1.254 . S
C676 Eu612 2.848 . S
C676 O656 1.257 . S
C676 O661 1.249 . S
C676 C669 1.492 . S
C677 H642 0.931 . S
C677 C655 1.420 . S
C677 C678 1.351 . S
C678 H640 0.930 . S
C678 C646 1.423 . S
C678 C677 1.351 . S
C679 O663 1.276 . S
C679 O666 1.235 . S
C680 C681 1.393 . S
C680 C684 1.395 . S
C680 C687 1.492 . S
C681 C680 1.393 . S
C681 C682 1.392 . S
C681 H692 0.930 . S
C682 C681 1.392 . S
C682 C683 1.386 . S
C683 C682 1.386 . S
C683 C685 1.395 . S
C683 H693 0.930 . S
C684 C680 1.395 . S
C684 C685 1.379 . S
C684 H694 0.930 . S
C685 C683 1.395 . S
C685 C684 1.379 . S
C685 H695 0.930 . S
C686 O664 1.264 . S
C686 O665 1.254 . S
C687 Eu623 2.848 . S
C687 O662 1.257 . S
C687 O667 1.249 . S
C687 C680 1.492 . S
H688 C671 0.930 . S
H689 C672 0.930 . S
H690 C673 0.930 . S
H691 C674 0.930 . S
H692 C681 0.930 . S
H693 C683 0.930 . S
H694 C684 0.930 . S
H695 C685 0.930 . S
Eu696 N727 2.657 . S
Eu696 N734 2.609 . S
Eu696 O740 2.558 . S
Eu696 O741 2.612 . S
Eu696 O743 2.339 . S
Eu696 O744 2.563 . S
Eu696 O745 2.419 . S
Eu696 O747 2.380 . S
Eu696 O748 2.432 . S
Eu696 C760 2.848 . S
C697 C700 1.429 . S
C697 C701 1.411 . S
C697 N704 1.377 . S
C698 C700 1.420 . S
C698 C702 1.423 . S
C698 C710 1.392 . S
C699 C701 1.420 . S
C699 C702 1.351 . S
C699 H722 0.931 . S
C700 C697 1.429 . S
C700 C698 1.420 . S
C700 N708 1.362 . S
C701 C697 1.411 . S
C701 C699 1.420 . S
C701 C706 1.395 . S
C702 C698 1.423 . S
C702 C699 1.351 . S
C702 H714 0.930 . S
C703 C705 1.400 . S
C703 C706 1.386 . S
C703 H715 0.930 . S
N704 C697 1.377 . S
N704 C705 1.321 . S
N704 Eu707 2.609 . S
C705 C703 1.400 . S
C705 N704 1.321 . S
C705 H712 0.930 . S
C706 C701 1.395 . S
C706 C703 1.386 . S
C706 H725 0.930 . S
Eu707 N704 2.609 . S
Eu707 N708 2.657 . S
Eu707 O741 2.380 . S
Eu707 O742 2.432 . S
Eu707 O746 2.558 . S
Eu707 O747 2.612 . S
Eu707 O749 2.339 . S
Eu707 O750 2.563 . S
Eu707 O751 2.419 . S
Eu707 C771 2.848 . S
N708 C700 1.362 . S
N708 Eu707 2.657 . S
N708 C709 1.334 . S
C709 N708 1.334 . S
C709 C711 1.413 . S
C709 H716 0.929 . S
C710 C698 1.392 . S
C710 C711 1.367 . S
C710 H718 0.930 . S
C711 C709 1.413 . S
C711 C710 1.367 . S
C711 H713 0.930 . S
H712 C705 0.930 . S
H713 C711 0.930 . S
H714 C702 0.930 . S
H715 C703 0.930 . S
H716 C709 0.929 . S
H717 C731 0.930 . S
H718 C710 0.930 . S
H719 C737 0.930 . S
H720 C728 0.929 . S
H721 C735 0.930 . S
H722 C699 0.931 . S
H723 C729 0.930 . S
H724 C762 0.930 . S
H725 C706 0.930 . S
H726 C761 0.931 . S
N727 Eu696 2.657 . S
N727 C728 1.334 . S
N727 C732 1.362 . S
C728 H720 0.929 . S
C728 N727 1.334 . S
C728 C731 1.413 . S
C729 H723 0.930 . S
C729 C730 1.392 . S
C729 C731 1.367 . S
C730 C729 1.392 . S
C730 C732 1.420 . S
C730 C762 1.423 . S
C731 H717 0.930 . S
C731 C728 1.413 . S
C731 C729 1.367 . S
C732 N727 1.362 . S
C732 C730 1.420 . S
C732 C736 1.429 . S
H733 C738 0.930 . S
N734 Eu696 2.609 . S
N734 C736 1.377 . S
N734 C737 1.321 . S
C735 H721 0.930 . S
C735 C737 1.400 . S
C735 C738 1.386 . S
C736 C732 1.429 . S
C736 N734 1.377 . S
C736 C739 1.411 . S
C737 H719 0.930 . S
C737 N734 1.321 . S
C737 C735 1.400 . S
C738 H733 0.930 . S
C738 C735 1.386 . S
C738 C739 1.395 . S
C739 C736 1.411 . S
C739 C738 1.395 . S
C739 C761 1.420 . S
O740 Eu696 2.558 . S
O740 C760 1.257 . S
O741 Eu696 2.612 . S
O741 Eu707 2.380 . S
O741 C752 1.276 . S
O742 Eu707 2.432 . S
O742 C759 1.264 . S
O743 Eu696 2.339 . S
O743 C759 1.254 . S
O744 Eu696 2.563 . S
O744 C752 1.235 . S
O745 Eu696 2.419 . S
O745 C760 1.249 . S
O746 Eu707 2.558 . S
O746 C771 1.257 . S
O747 Eu696 2.380 . S
O747 Eu707 2.612 . S
O747 C763 1.276 . S
O748 Eu696 2.432 . S
O748 C770 1.264 . S
O749 Eu707 2.339 . S
O749 C770 1.254 . S
O750 Eu707 2.563 . S
O750 C763 1.235 . S
O751 Eu707 2.419 . S
O751 C771 1.249 . S
C752 O741 1.276 . S
C752 O744 1.235 . S
C753 C755 1.393 . S
C753 C757 1.395 . S
C753 C760 1.492 . S
C754 C755 1.392 . S
C754 C756 1.386 . S
C755 C753 1.393 . S
C755 C754 1.392 . S
C755 H772 0.930 . S
C756 C754 1.386 . S
C756 C758 1.395 . S
C756 H773 0.930 . S
C757 C753 1.395 . S
C757 C758 1.379 . S
C757 H774 0.930 . S
C758 C756 1.395 . S
C758 C757 1.379 . S
C758 H775 0.930 . S
C759 O742 1.264 . S
C759 O743 1.254 . S
C760 Eu696 2.848 . S
C760 O740 1.257 . S
C760 O745 1.249 . S
C760 C753 1.492 . S
C761 H726 0.931 . S
C761 C739 1.420 . S
C761 C762 1.351 . S
C762 H724 0.930 . S
C762 C730 1.423 . S
C762 C761 1.351 . S
C763 O747 1.276 . S
C763 O750 1.235 . S
C764 C765 1.393 . S
C764 C768 1.395 . S
C764 C771 1.492 . S
C765 C764 1.393 . S
C765 C766 1.392 . S
C765 H776 0.930 . S
C766 C765 1.392 . S
C766 C767 1.386 . S
C767 C766 1.386 . S
C767 C769 1.395 . S
C767 H777 0.930 . S
C768 C764 1.395 . S
C768 C769 1.379 . S
C768 H778 0.930 . S
C769 C767 1.395 . S
C769 C768 1.379 . S
C769 H779 0.930 . S
C770 O748 1.264 . S
C770 O749 1.254 . S
C771 Eu707 2.848 . S
C771 O746 1.257 . S
C771 O751 1.249 . S
C771 C764 1.492 . S
H772 C755 0.930 . S
H773 C756 0.930 . S
H774 C757 0.930 . S
H775 C758 0.930 . S
H776 C765 0.930 . S
H777 C767 0.930 . S
H778 C768 0.930 . S
H779 C769 0.930 . S
Eu780 N811 2.657 . S
Eu780 N818 2.609 . S
Eu780 O824 2.558 . S
Eu780 O825 2.612 . S
Eu780 O827 2.339 . S
Eu780 O828 2.563 . S
Eu780 O829 2.419 . S
Eu780 O831 2.380 . S
Eu780 O832 2.432 . S
Eu780 C844 2.848 . S
C781 C784 1.429 . S
C781 C785 1.411 . S
C781 N788 1.377 . S
C782 C784 1.420 . S
C782 C786 1.423 . S
C782 C794 1.392 . S
C783 C785 1.420 . S
C783 C786 1.351 . S
C783 H806 0.931 . S
C784 C781 1.429 . S
C784 C782 1.420 . S
C784 N792 1.362 . S
C785 C781 1.411 . S
C785 C783 1.420 . S
C785 C790 1.395 . S
C786 C782 1.423 . S
C786 C783 1.351 . S
C786 H798 0.930 . S
C787 C789 1.400 . S
C787 C790 1.386 . S
C787 H799 0.930 . S
N788 C781 1.377 . S
N788 C789 1.321 . S
N788 Eu791 2.609 . S
C789 C787 1.400 . S
C789 N788 1.321 . S
C789 H796 0.930 . S
C790 C785 1.395 . S
C790 C787 1.386 . S
C790 H809 0.930 . S
Eu791 N788 2.609 . S
Eu791 N792 2.657 . S
Eu791 O825 2.380 . S
Eu791 O826 2.432 . S
Eu791 O830 2.558 . S
Eu791 O831 2.612 . S
Eu791 O833 2.339 . S
Eu791 O834 2.563 . S
Eu791 O835 2.419 . S
Eu791 C855 2.848 . S
N792 C784 1.362 . S
N792 Eu791 2.657 . S
N792 C793 1.334 . S
C793 N792 1.334 . S
C793 C795 1.413 . S
C793 H800 0.929 . S
C794 C782 1.392 . S
C794 C795 1.367 . S
C794 H802 0.930 . S
C795 C793 1.413 . S
C795 C794 1.367 . S
C795 H797 0.930 . S
H796 C789 0.930 . S
H797 C795 0.930 . S
H798 C786 0.930 . S
H799 C787 0.930 . S
H800 C793 0.929 . S
H801 C815 0.930 . S
H802 C794 0.930 . S
H803 C821 0.930 . S
H804 C812 0.929 . S
H805 C819 0.930 . S
H806 C783 0.931 . S
H807 C813 0.930 . S
H808 C846 0.930 . S
H809 C790 0.930 . S
H810 C845 0.931 . S
N811 Eu780 2.657 . S
N811 C812 1.334 . S
N811 C816 1.362 . S
C812 H804 0.929 . S
C812 N811 1.334 . S
C812 C815 1.413 . S
C813 H807 0.930 . S
C813 C814 1.392 . S
C813 C815 1.367 . S
C814 C813 1.392 . S
C814 C816 1.420 . S
C814 C846 1.423 . S
C815 H801 0.930 . S
C815 C812 1.413 . S
C815 C813 1.367 . S
C816 N811 1.362 . S
C816 C814 1.420 . S
C816 C820 1.429 . S
H817 C822 0.930 . S
N818 Eu780 2.609 . S
N818 C820 1.377 . S
N818 C821 1.321 . S
C819 H805 0.930 . S
C819 C821 1.400 . S
C819 C822 1.386 . S
C820 C816 1.429 . S
C820 N818 1.377 . S
C820 C823 1.411 . S
C821 H803 0.930 . S
C821 N818 1.321 . S
C821 C819 1.400 . S
C822 H817 0.930 . S
C822 C819 1.386 . S
C822 C823 1.395 . S
C823 C820 1.411 . S
C823 C822 1.395 . S
C823 C845 1.420 . S
O824 Eu780 2.558 . S
O824 C844 1.257 . S
O825 Eu780 2.612 . S
O825 Eu791 2.380 . S
O825 C836 1.276 . S
O826 Eu791 2.432 . S
O826 C843 1.264 . S
O827 Eu780 2.339 . S
O827 C843 1.254 . S
O828 Eu780 2.563 . S
O828 C836 1.235 . S
O829 Eu780 2.419 . S
O829 C844 1.249 . S
O830 Eu791 2.558 . S
O830 C855 1.257 . S
O831 Eu780 2.380 . S
O831 Eu791 2.612 . S
O831 C847 1.276 . S
O832 Eu780 2.432 . S
O832 C854 1.264 . S
O833 Eu791 2.339 . S
O833 C854 1.254 . S
O834 Eu791 2.563 . S
O834 C847 1.235 . S
O835 Eu791 2.419 . S
O835 C855 1.249 . S
C836 O825 1.276 . S
C836 O828 1.235 . S
C837 C839 1.393 . S
C837 C841 1.395 . S
C837 C844 1.492 . S
C838 C839 1.392 . S
C838 C840 1.386 . S
C839 C837 1.393 . S
C839 C838 1.392 . S
C839 H856 0.930 . S
C840 C838 1.386 . S
C840 C842 1.395 . S
C840 H857 0.930 . S
C841 C837 1.395 . S
C841 C842 1.379 . S
C841 H858 0.930 . S
C842 C840 1.395 . S
C842 C841 1.379 . S
C842 H859 0.930 . S
C843 O826 1.264 . S
C843 O827 1.254 . S
C844 Eu780 2.848 . S
C844 O824 1.257 . S
C844 O829 1.249 . S
C844 C837 1.492 . S
C845 H810 0.931 . S
C845 C823 1.420 . S
C845 C846 1.351 . S
C846 H808 0.930 . S
C846 C814 1.423 . S
C846 C845 1.351 . S
C847 O831 1.276 . S
C847 O834 1.235 . S
C848 C849 1.393 . S
C848 C852 1.395 . S
C848 C855 1.492 . S
C849 C848 1.393 . S
C849 C850 1.392 . S
C849 H860 0.930 . S
C850 C849 1.392 . S
C850 C851 1.386 . S
C851 C850 1.386 . S
C851 C853 1.395 . S
C851 H861 0.930 . S
C852 C848 1.395 . S
C852 C853 1.379 . S
C852 H862 0.930 . S
C853 C851 1.395 . S
C853 C852 1.379 . S
C853 H863 0.930 . S
C854 O832 1.264 . S
C854 O833 1.254 . S
C855 Eu791 2.848 . S
C855 O830 1.257 . S
C855 O835 1.249 . S
C855 C848 1.492 . S
H856 C839 0.930 . S
H857 C840 0.930 . S
H858 C841 0.930 . S
H859 C842 0.930 . S
H860 C849 0.930 . S
H861 C851 0.930 . S
H862 C852 0.930 . S
H863 C853 0.930 . S
Eu864 N895 2.657 . S
Eu864 N902 2.609 . S
Eu864 O908 2.558 . S
Eu864 O909 2.612 . S
Eu864 O911 2.339 . S
Eu864 O912 2.563 . S
Eu864 O913 2.419 . S
Eu864 O915 2.380 . S
Eu864 O916 2.432 . S
Eu864 C928 2.848 . S
C865 C868 1.429 . S
C865 C869 1.411 . S
C865 N872 1.377 . S
C866 C868 1.420 . S
C866 C870 1.423 . S
C866 C878 1.392 . S
C867 C869 1.420 . S
C867 C870 1.351 . S
C867 H890 0.931 . S
C868 C865 1.429 . S
C868 C866 1.420 . S
C868 N876 1.362 . S
C869 C865 1.411 . S
C869 C867 1.420 . S
C869 C874 1.395 . S
C870 C866 1.423 . S
C870 C867 1.351 . S
C870 H882 0.930 . S
C871 C873 1.400 . S
C871 C874 1.386 . S
C871 H883 0.930 . S
N872 C865 1.377 . S
N872 C873 1.321 . S
N872 Eu875 2.609 . S
C873 C871 1.400 . S
C873 N872 1.321 . S
C873 H880 0.930 . S
C874 C869 1.395 . S
C874 C871 1.386 . S
C874 H893 0.930 . S
Eu875 N872 2.609 . S
Eu875 N876 2.657 . S
Eu875 O909 2.380 . S
Eu875 O910 2.432 . S
Eu875 O914 2.558 . S
Eu875 O915 2.612 . S
Eu875 O917 2.339 . S
Eu875 O918 2.563 . S
Eu875 O919 2.419 . S
Eu875 C939 2.848 . S
N876 C868 1.362 . S
N876 Eu875 2.657 . S
N876 C877 1.334 . S
C877 N876 1.334 . S
C877 C879 1.413 . S
C877 H884 0.929 . S
C878 C866 1.392 . S
C878 C879 1.367 . S
C878 H886 0.930 . S
C879 C877 1.413 . S
C879 C878 1.367 . S
C879 H881 0.930 . S
H880 C873 0.930 . S
H881 C879 0.930 . S
H882 C870 0.930 . S
H883 C871 0.930 . S
H884 C877 0.929 . S
H885 C899 0.930 . S
H886 C878 0.930 . S
H887 C905 0.930 . S
H888 C896 0.929 . S
H889 C903 0.930 . S
H890 C867 0.931 . S
H891 C897 0.930 . S
H892 C930 0.930 . S
H893 C874 0.930 . S
H894 C929 0.931 . S
N895 Eu864 2.657 . S
N895 C896 1.334 . S
N895 C900 1.362 . S
C896 H888 0.929 . S
C896 N895 1.334 . S
C896 C899 1.413 . S
C897 H891 0.930 . S
C897 C898 1.392 . S
C897 C899 1.367 . S
C898 C897 1.392 . S
C898 C900 1.420 . S
C898 C930 1.423 . S
C899 H885 0.930 . S
C899 C896 1.413 . S
C899 C897 1.367 . S
C900 N895 1.362 . S
C900 C898 1.420 . S
C900 C904 1.429 . S
H901 C906 0.930 . S
N902 Eu864 2.609 . S
N902 C904 1.377 . S
N902 C905 1.321 . S
C903 H889 0.930 . S
C903 C905 1.400 . S
C903 C906 1.386 . S
C904 C900 1.429 . S
C904 N902 1.377 . S
C904 C907 1.411 . S
C905 H887 0.930 . S
C905 N902 1.321 . S
C905 C903 1.400 . S
C906 H901 0.930 . S
C906 C903 1.386 . S
C906 C907 1.395 . S
C907 C904 1.411 . S
C907 C906 1.395 . S
C907 C929 1.420 . S
O908 Eu864 2.558 . S
O908 C928 1.257 . S
O909 Eu864 2.612 . S
O909 Eu875 2.380 . S
O909 C920 1.276 . S
O910 Eu875 2.432 . S
O910 C927 1.264 . S
O911 Eu864 2.339 . S
O911 C927 1.254 . S
O912 Eu864 2.563 . S
O912 C920 1.235 . S
O913 Eu864 2.419 . S
O913 C928 1.249 . S
O914 Eu875 2.558 . S
O914 C939 1.257 . S
O915 Eu864 2.380 . S
O915 Eu875 2.612 . S
O915 C931 1.276 . S
O916 Eu864 2.432 . S
O916 C938 1.264 . S
O917 Eu875 2.339 . S
O917 C938 1.254 . S
O918 Eu875 2.563 . S
O918 C931 1.235 . S
O919 Eu875 2.419 . S
O919 C939 1.249 . S
C920 O909 1.276 . S
C920 O912 1.235 . S
C921 C923 1.393 . S
C921 C925 1.395 . S
C921 C928 1.492 . S
C922 C923 1.392 . S
C922 C924 1.386 . S
C923 C921 1.393 . S
C923 C922 1.392 . S
C923 H940 0.930 . S
C924 C922 1.386 . S
C924 C926 1.395 . S
C924 H941 0.930 . S
C925 C921 1.395 . S
C925 C926 1.379 . S
C925 H942 0.930 . S
C926 C924 1.395 . S
C926 C925 1.379 . S
C926 H943 0.930 . S
C927 O910 1.264 . S
C927 O911 1.254 . S
C928 Eu864 2.848 . S
C928 O908 1.257 . S
C928 O913 1.249 . S
C928 C921 1.492 . S
C929 H894 0.931 . S
C929 C907 1.420 . S
C929 C930 1.351 . S
C930 H892 0.930 . S
C930 C898 1.423 . S
C930 C929 1.351 . S
C931 O915 1.276 . S
C931 O918 1.235 . S
C932 C933 1.393 . S
C932 C936 1.395 . S
C932 C939 1.492 . S
C933 C932 1.393 . S
C933 C934 1.392 . S
C933 H944 0.930 . S
C934 C933 1.392 . S
C934 C935 1.386 . S
C935 C934 1.386 . S
C935 C937 1.395 . S
C935 H945 0.930 . S
C936 C932 1.395 . S
C936 C937 1.379 . S
C936 H946 0.930 . S
C937 C935 1.395 . S
C937 C936 1.379 . S
C937 H947 0.930 . S
C938 O916 1.264 . S
C938 O917 1.254 . S
C939 Eu875 2.848 . S
C939 O914 1.257 . S
C939 O919 1.249 . S
C939 C932 1.492 . S
H940 C923 0.930 . S
H941 C924 0.930 . S
H942 C925 0.930 . S
H943 C926 0.930 . S
H944 C933 0.930 . S
H945 C935 0.930 . S
H946 C936 0.930 . S
H947 C937 0.930 . S
H948 C966 0.951 . S
H949 C968 0.951 . S
H950 C970 0.950 . S
H951 C971 0.950 . S
H952 C973 0.950 . S
H953 C976 0.950 . S
H954 C977 0.950 . S
H955 C979 0.950 . S
H956 C980 0.950 . S
H957 C981 0.951 . S
H958 C983 0.951 . S
H959 C985 0.950 . S
H960 C986 0.950 . S
H961 C988 0.950 . S
H962 C991 0.950 . S
H963 C992 0.950 . S
H964 C994 0.950 . S
H965 C995 0.950 . S
C966 H948 0.951 . S
C966 C967 1.366 . S
C966 C968 1.388 . S
C967 C966 1.366 . S
C967 C971 1.385 . S
C968 H949 0.951 . S
C968 C966 1.388 . S
C968 C969 1.366 . S
C969 C968 1.366 . S
C969 C970 1.414 . S
C969 C972 1.499 . S
C970 H950 0.950 . S
C970 C969 1.414 . S
C970 C971 1.374 . S
C971 H951 0.950 . S
C971 C967 1.385 . S
C971 C970 1.374 . S
C972 C969 1.499 . S
C972 C973 1.373 . S
C972 C974 1.389 . S
C973 H952 0.950 . S
C973 C972 1.373 . S
C973 C989 1.377 . S
C974 C972 1.389 . S
C974 C975 1.524 . S
C974 C988 1.377 . S
C975 C974 1.524 . S
C975 C976 1.397 . S
C975 C980 1.363 . S
C976 H953 0.950 . S
C976 C975 1.397 . S
C976 C977 1.334 . S
C977 H954 0.950 . S
C977 C976 1.334 . S
C977 C978 1.287 . S
C978 C977 1.287 . S
C978 C979 1.524 . S
C978 H997 0.913 . S
C979 H955 0.950 . S
C979 C978 1.524 . S
C979 C980 1.415 . S
C980 H956 0.950 . S
C980 C975 1.363 . S
C980 C979 1.415 . S
C981 H957 0.951 . S
C981 C982 1.366 . S
C981 C983 1.388 . S
C982 C981 1.366 . S
C982 C986 1.385 . S
C983 H958 0.951 . S
C983 C981 1.388 . S
C983 C984 1.366 . S
C984 C983 1.366 . S
C984 C985 1.414 . S
C984 C987 1.499 . S
C985 H959 0.950 . S
C985 C984 1.414 . S
C985 C986 1.374 . S
C986 H960 0.950 . S
C986 C982 1.385 . S
C986 C985 1.374 . S
C987 C984 1.499 . S
C987 C988 1.373 . S
C987 C989 1.389 . S
C988 H961 0.950 . S
C988 C974 1.377 . S
C988 C987 1.373 . S
C989 C973 1.377 . S
C989 C987 1.389 . S
C989 C990 1.524 . S
C990 C989 1.524 . S
C990 C991 1.397 . S
C990 C995 1.363 . S
C991 H962 0.950 . S
C991 C990 1.397 . S
C991 C992 1.334 . S
C992 H963 0.950 . S
C992 C991 1.334 . S
C992 C993 1.287 . S
C993 C992 1.287 . S
C993 C994 1.524 . S
C993 H996 0.999 . S
C994 H964 0.950 . S
C994 C993 1.524 . S
C994 C995 1.415 . S
C995 H965 0.950 . S
C995 C990 1.363 . S
C995 C994 1.415 . S
H996 C993 0.999 . S
H997 C978 0.913 . S
H998 C1016 0.951 . S
H999 C1018 0.951 . S
H1000 C1020 0.950 . S
H1001 C1021 0.950 . S
H1002 C1023 0.950 . S
H1003 C1026 0.950 . S
H1004 C1027 0.950 . S
H1005 C1029 0.950 . S
H1006 C1030 0.950 . S
H1007 C1031 0.951 . S
H1008 C1033 0.951 . S
H1009 C1035 0.950 . S
H1010 C1036 0.950 . S
H1011 C1038 0.950 . S
H1012 C1041 0.950 . S
H1013 C1042 0.950 . S
H1014 C1044 0.950 . S
H1015 C1045 0.950 . S
C1016 H998 0.951 . S
C1016 C1017 1.366 . S
C1016 C1018 1.388 . S
C1017 C1016 1.366 . S
C1017 C1021 1.385 . S
C1018 H999 0.951 . S
C1018 C1016 1.388 . S
C1018 C1019 1.366 . S
C1019 C1018 1.366 . S
C1019 C1020 1.414 . S
C1019 C1022 1.499 . S
C1020 H1000 0.950 . S
C1020 C1019 1.414 . S
C1020 C1021 1.374 . S
C1021 H1001 0.950 . S
C1021 C1017 1.385 . S
C1021 C1020 1.374 . S
C1022 C1019 1.499 . S
C1022 C1023 1.373 . S
C1022 C1024 1.389 . S
C1023 H1002 0.950 . S
C1023 C1022 1.373 . S
C1023 C1039 1.377 . S
C1024 C1022 1.389 . S
C1024 C1025 1.524 . S
C1024 C1038 1.377 . S
C1025 C1024 1.524 . S
C1025 C1026 1.397 . S
C1025 C1030 1.363 . S
C1026 H1003 0.950 . S
C1026 C1025 1.397 . S
C1026 C1027 1.334 . S
C1027 H1004 0.950 . S
C1027 C1026 1.334 . S
C1027 C1028 1.287 . S
C1028 C1027 1.287 . S
C1028 C1029 1.524 . S
C1028 H1047 0.913 . S
C1029 H1005 0.950 . S
C1029 C1028 1.524 . S
C1029 C1030 1.415 . S
C1030 H1006 0.950 . S
C1030 C1025 1.363 . S
C1030 C1029 1.415 . S
C1031 H1007 0.951 . S
C1031 C1032 1.366 . S
C1031 C1033 1.388 . S
C1032 C1031 1.366 . S
C1032 C1036 1.385 . S
C1033 H1008 0.951 . S
C1033 C1031 1.388 . S
C1033 C1034 1.366 . S
C1034 C1033 1.366 . S
C1034 C1035 1.414 . S
C1034 C1037 1.499 . S
C1035 H1009 0.950 . S
C1035 C1034 1.414 . S
C1035 C1036 1.374 . S
C1036 H1010 0.950 . S
C1036 C1032 1.385 . S
C1036 C1035 1.374 . S
C1037 C1034 1.499 . S
C1037 C1038 1.373 . S
C1037 C1039 1.389 . S
C1038 H1011 0.950 . S
C1038 C1024 1.377 . S
C1038 C1037 1.373 . S
C1039 C1023 1.377 . S
C1039 C1037 1.389 . S
C1039 C1040 1.524 . S
C1040 C1039 1.524 . S
C1040 C1041 1.397 . S
C1040 C1045 1.363 . S
C1041 H1012 0.950 . S
C1041 C1040 1.397 . S
C1041 C1042 1.334 . S
C1042 H1013 0.950 . S
C1042 C1041 1.334 . S
C1042 C1043 1.287 . S
C1043 C1042 1.287 . S
C1043 C1044 1.524 . S
C1043 H1046 0.999 . S
C1044 H1014 0.950 . S
C1044 C1043 1.524 . S
C1044 C1045 1.415 . S
C1045 H1015 0.950 . S
C1045 C1040 1.363 . S
C1045 C1044 1.415 . S
H1046 C1043 0.999 . S
H1047 C1028 0.913 . S
H1048 C1066 0.951 . S
H1049 C1068 0.951 . S
H1050 C1070 0.950 . S
H1051 C1071 0.950 . S
H1052 C1073 0.950 . S
H1053 C1076 0.950 . S
H1054 C1077 0.950 . S
H1055 C1079 0.950 . S
H1056 C1080 0.950 . S
H1057 C1081 0.951 . S
H1058 C1083 0.951 . S
H1059 C1085 0.950 . S
H1060 C1086 0.950 . S
H1061 C1088 0.950 . S
H1062 C1091 0.950 . S
H1063 C1092 0.950 . S
H1064 C1094 0.950 . S
H1065 C1095 0.950 . S
C1066 H1048 0.951 . S
C1066 C1067 1.366 . S
C1066 C1068 1.388 . S
C1067 C1066 1.366 . S
C1067 C1071 1.385 . S
C1068 H1049 0.951 . S
C1068 C1066 1.388 . S
C1068 C1069 1.366 . S
C1069 C1068 1.366 . S
C1069 C1070 1.414 . S
C1069 C1072 1.499 . S
C1070 H1050 0.950 . S
C1070 C1069 1.414 . S
C1070 C1071 1.374 . S
C1071 H1051 0.950 . S
C1071 C1067 1.385 . S
C1071 C1070 1.374 . S
C1072 C1069 1.499 . S
C1072 C1073 1.373 . S
C1072 C1074 1.389 . S
C1073 H1052 0.950 . S
C1073 C1072 1.373 . S
C1073 C1089 1.377 . S
C1074 C1072 1.389 . S
C1074 C1075 1.524 . S
C1074 C1088 1.377 . S
C1075 C1074 1.524 . S
C1075 C1076 1.397 . S
C1075 C1080 1.363 . S
C1076 H1053 0.950 . S
C1076 C1075 1.397 . S
C1076 C1077 1.334 . S
C1077 H1054 0.950 . S
C1077 C1076 1.334 . S
C1077 C1078 1.287 . S
C1078 C1077 1.287 . S
C1078 C1079 1.524 . S
C1078 H1097 0.913 . S
C1079 H1055 0.950 . S
C1079 C1078 1.524 . S
C1079 C1080 1.415 . S
C1080 H1056 0.950 . S
C1080 C1075 1.363 . S
C1080 C1079 1.415 . S
C1081 H1057 0.951 . S
C1081 C1082 1.366 . S
C1081 C1083 1.388 . S
C1082 C1081 1.366 . S
C1082 C1086 1.385 . S
C1083 H1058 0.951 . S
C1083 C1081 1.388 . S
C1083 C1084 1.366 . S
C1084 C1083 1.366 . S
C1084 C1085 1.414 . S
C1084 C1087 1.499 . S
C1085 H1059 0.950 . S
C1085 C1084 1.414 . S
C1085 C1086 1.374 . S
C1086 H1060 0.950 . S
C1086 C1082 1.385 . S
C1086 C1085 1.374 . S
C1087 C1084 1.499 . S
C1087 C1088 1.373 . S
C1087 C1089 1.389 . S
C1088 H1061 0.950 . S
C1088 C1074 1.377 . S
C1088 C1087 1.373 . S
C1089 C1073 1.377 . S
C1089 C1087 1.389 . S
C1089 C1090 1.524 . S
C1090 C1089 1.524 . S
C1090 C1091 1.397 . S
C1090 C1095 1.363 . S
C1091 H1062 0.950 . S
C1091 C1090 1.397 . S
C1091 C1092 1.334 . S
C1092 H1063 0.950 . S
C1092 C1091 1.334 . S
C1092 C1093 1.287 . S
C1093 C1092 1.287 . S
C1093 C1094 1.524 . S
C1093 H1096 0.999 . S
C1094 H1064 0.950 . S
C1094 C1093 1.524 . S
C1094 C1095 1.415 . S
C1095 H1065 0.950 . S
C1095 C1090 1.363 . S
C1095 C1094 1.415 . S
H1096 C1093 0.999 . S
H1097 C1078 0.913 . S
H1098 C1116 0.951 . S
H1099 C1118 0.951 . S
H1100 C1120 0.950 . S
H1101 C1121 0.950 . S
H1102 C1123 0.950 . S
H1103 C1126 0.950 . S
H1104 C1127 0.950 . S
H1105 C1129 0.950 . S
H1106 C1130 0.950 . S
H1107 C1131 0.951 . S
H1108 C1133 0.951 . S
H1109 C1135 0.950 . S
H1110 C1136 0.950 . S
H1111 C1138 0.950 . S
H1112 C1141 0.950 . S
H1113 C1142 0.950 . S
H1114 C1144 0.950 . S
H1115 C1145 0.950 . S
C1116 H1098 0.951 . S
C1116 C1117 1.366 . S
C1116 C1118 1.388 . S
C1117 C1116 1.366 . S
C1117 C1121 1.385 . S
C1118 H1099 0.951 . S
C1118 C1116 1.388 . S
C1118 C1119 1.366 . S
C1119 C1118 1.366 . S
C1119 C1120 1.414 . S
C1119 C1122 1.499 . S
C1120 H1100 0.950 . S
C1120 C1119 1.414 . S
C1120 C1121 1.374 . S
C1121 H1101 0.950 . S
C1121 C1117 1.385 . S
C1121 C1120 1.374 . S
C1122 C1119 1.499 . S
C1122 C1123 1.373 . S
C1122 C1124 1.389 . S
C1123 H1102 0.950 . S
C1123 C1122 1.373 . S
C1123 C1139 1.377 . S
C1124 C1122 1.389 . S
C1124 C1125 1.524 . S
C1124 C1138 1.377 . S
C1125 C1124 1.524 . S
C1125 C1126 1.397 . S
C1125 C1130 1.363 . S
C1126 H1103 0.950 . S
C1126 C1125 1.397 . S
C1126 C1127 1.334 . S
C1127 H1104 0.950 . S
C1127 C1126 1.334 . S
C1127 C1128 1.287 . S
C1128 C1127 1.287 . S
C1128 C1129 1.524 . S
C1128 H1147 0.913 . S
C1129 H1105 0.950 . S
C1129 C1128 1.524 . S
C1129 C1130 1.415 . S
C1130 H1106 0.950 . S
C1130 C1125 1.363 . S
C1130 C1129 1.415 . S
C1131 H1107 0.951 . S
C1131 C1132 1.366 . S
C1131 C1133 1.388 . S
C1132 C1131 1.366 . S
C1132 C1136 1.385 . S
C1133 H1108 0.951 . S
C1133 C1131 1.388 . S
C1133 C1134 1.366 . S
C1134 C1133 1.366 . S
C1134 C1135 1.414 . S
C1134 C1137 1.499 . S
C1135 H1109 0.950 . S
C1135 C1134 1.414 . S
C1135 C1136 1.374 . S
C1136 H1110 0.950 . S
C1136 C1132 1.385 . S
C1136 C1135 1.374 . S
C1137 C1134 1.499 . S
C1137 C1138 1.373 . S
C1137 C1139 1.389 . S
C1138 H1111 0.950 . S
C1138 C1124 1.377 . S
C1138 C1137 1.373 . S
C1139 C1123 1.377 . S
C1139 C1137 1.389 . S
C1139 C1140 1.524 . S
C1140 C1139 1.524 . S
C1140 C1141 1.397 . S
C1140 C1145 1.363 . S
C1141 H1112 0.950 . S
C1141 C1140 1.397 . S
C1141 C1142 1.334 . S
C1142 H1113 0.950 . S
C1142 C1141 1.334 . S
C1142 C1143 1.287 . S
C1143 C1142 1.287 . S
C1143 C1144 1.524 . S
C1143 H1146 0.999 . S
C1144 H1114 0.950 . S
C1144 C1143 1.524 . S
C1144 C1145 1.415 . S
C1145 H1115 0.950 . S
C1145 C1140 1.363 . S
C1145 C1144 1.415 . S
H1146 C1143 0.999 . S
H1147 C1128 0.913 . S
H1148 C1166 0.951 . S
H1149 C1168 0.951 . S
H1150 C1170 0.950 . S
H1151 C1171 0.950 . S
H1152 C1173 0.950 . S
H1153 C1176 0.950 . S
H1154 C1177 0.950 . S
H1155 C1179 0.950 . S
H1156 C1180 0.950 . S
H1157 C1181 0.951 . S
H1158 C1183 0.951 . S
H1159 C1185 0.950 . S
H1160 C1186 0.950 . S
H1161 C1188 0.950 . S
H1162 C1191 0.950 . S
H1163 C1192 0.950 . S
H1164 C1194 0.950 . S
H1165 C1195 0.950 . S
C1166 H1148 0.951 . S
C1166 C1167 1.366 . S
C1166 C1168 1.388 . S
C1167 C1166 1.366 . S
C1167 C1171 1.385 . S
C1168 H1149 0.951 . S
C1168 C1166 1.388 . S
C1168 C1169 1.366 . S
C1169 C1168 1.366 . S
C1169 C1170 1.414 . S
C1169 C1172 1.499 . S
C1170 H1150 0.950 . S
C1170 C1169 1.414 . S
C1170 C1171 1.374 . S
C1171 H1151 0.950 . S
C1171 C1167 1.385 . S
C1171 C1170 1.374 . S
C1172 C1169 1.499 . S
C1172 C1173 1.373 . S
C1172 C1174 1.389 . S
C1173 H1152 0.950 . S
C1173 C1172 1.373 . S
C1173 C1189 1.377 . S
C1174 C1172 1.389 . S
C1174 C1175 1.524 . S
C1174 C1188 1.377 . S
C1175 C1174 1.524 . S
C1175 C1176 1.397 . S
C1175 C1180 1.363 . S
C1176 H1153 0.950 . S
C1176 C1175 1.397 . S
C1176 C1177 1.334 . S
C1177 H1154 0.950 . S
C1177 C1176 1.334 . S
C1177 C1178 1.287 . S
C1178 C1177 1.287 . S
C1178 C1179 1.524 . S
C1178 H1197 0.913 . S
C1179 H1155 0.950 . S
C1179 C1178 1.524 . S
C1179 C1180 1.415 . S
C1180 H1156 0.950 . S
C1180 C1175 1.363 . S
C1180 C1179 1.415 . S
C1181 H1157 0.951 . S
C1181 C1182 1.366 . S
C1181 C1183 1.388 . S
C1182 C1181 1.366 . S
C1182 C1186 1.385 . S
C1183 H1158 0.951 . S
C1183 C1181 1.388 . S
C1183 C1184 1.366 . S
C1184 C1183 1.366 . S
C1184 C1185 1.414 . S
C1184 C1187 1.499 . S
C1185 H1159 0.950 . S
C1185 C1184 1.414 . S
C1185 C1186 1.374 . S
C1186 H1160 0.950 . S
C1186 C1182 1.385 . S
C1186 C1185 1.374 . S
C1187 C1184 1.499 . S
C1187 C1188 1.373 . S
C1187 C1189 1.389 . S
C1188 H1161 0.950 . S
C1188 C1174 1.377 . S
C1188 C1187 1.373 . S
C1189 C1173 1.377 . S
C1189 C1187 1.389 . S
C1189 C1190 1.524 . S
C1190 C1189 1.524 . S
C1190 C1191 1.397 . S
C1190 C1195 1.363 . S
C1191 H1162 0.950 . S
C1191 C1190 1.397 . S
C1191 C1192 1.334 . S
C1192 H1163 0.950 . S
C1192 C1191 1.334 . S
C1192 C1193 1.287 . S
C1193 C1192 1.287 . S
C1193 C1194 1.524 . S
C1193 H1196 0.999 . S
C1194 H1164 0.950 . S
C1194 C1193 1.524 . S
C1194 C1195 1.415 . S
C1195 H1165 0.950 . S
C1195 C1190 1.363 . S
C1195 C1194 1.415 . S
H1196 C1193 0.999 . S
H1197 C1178 0.913 . S
H1198 C1216 0.951 . S
H1199 C1218 0.951 . S
H1200 C1220 0.950 . S
H1201 C1221 0.950 . S
H1202 C1223 0.950 . S
H1203 C1226 0.950 . S
H1204 C1227 0.950 . S
H1205 C1229 0.950 . S
H1206 C1230 0.950 . S
H1207 C1231 0.951 . S
H1208 C1233 0.951 . S
H1209 C1235 0.950 . S
H1210 C1236 0.950 . S
H1211 C1238 0.950 . S
H1212 C1241 0.950 . S
H1213 C1242 0.950 . S
H1214 C1244 0.950 . S
H1215 C1245 0.950 . S
C1216 H1198 0.951 . S
C1216 C1217 1.366 . S
C1216 C1218 1.388 . S
C1217 C1216 1.366 . S
C1217 C1221 1.385 . S
C1218 H1199 0.951 . S
C1218 C1216 1.388 . S
C1218 C1219 1.366 . S
C1219 C1218 1.366 . S
C1219 C1220 1.414 . S
C1219 C1222 1.499 . S
C1220 H1200 0.950 . S
C1220 C1219 1.414 . S
C1220 C1221 1.374 . S
C1221 H1201 0.950 . S
C1221 C1217 1.385 . S
C1221 C1220 1.374 . S
C1222 C1219 1.499 . S
C1222 C1223 1.373 . S
C1222 C1224 1.389 . S
C1223 H1202 0.950 . S
C1223 C1222 1.373 . S
C1223 C1239 1.377 . S
C1224 C1222 1.389 . S
C1224 C1225 1.524 . S
C1224 C1238 1.377 . S
C1225 C1224 1.524 . S
C1225 C1226 1.397 . S
C1225 C1230 1.363 . S
C1226 H1203 0.950 . S
C1226 C1225 1.397 . S
C1226 C1227 1.334 . S
C1227 H1204 0.950 . S
C1227 C1226 1.334 . S
C1227 C1228 1.287 . S
C1228 C1227 1.287 . S
C1228 C1229 1.524 . S
C1228 H1247 0.913 . S
C1229 H1205 0.950 . S
C1229 C1228 1.524 . S
C1229 C1230 1.415 . S
C1230 H1206 0.950 . S
C1230 C1225 1.363 . S
C1230 C1229 1.415 . S
C1231 H1207 0.951 . S
C1231 C1232 1.366 . S
C1231 C1233 1.388 . S
C1232 C1231 1.366 . S
C1232 C1236 1.385 . S
C1233 H1208 0.951 . S
C1233 C1231 1.388 . S
C1233 C1234 1.366 . S
C1234 C1233 1.366 . S
C1234 C1235 1.414 . S
C1234 C1237 1.499 . S
C1235 H1209 0.950 . S
C1235 C1234 1.414 . S
C1235 C1236 1.374 . S
C1236 H1210 0.950 . S
C1236 C1232 1.385 . S
C1236 C1235 1.374 . S
C1237 C1234 1.499 . S
C1237 C1238 1.373 . S
C1237 C1239 1.389 . S
C1238 H1211 0.950 . S
C1238 C1224 1.377 . S
C1238 C1237 1.373 . S
C1239 C1223 1.377 . S
C1239 C1237 1.389 . S
C1239 C1240 1.524 . S
C1240 C1239 1.524 . S
C1240 C1241 1.397 . S
C1240 C1245 1.363 . S
C1241 H1212 0.950 . S
C1241 C1240 1.397 . S
C1241 C1242 1.334 . S
C1242 H1213 0.950 . S
C1242 C1241 1.334 . S
C1242 C1243 1.287 . S
C1243 C1242 1.287 . S
C1243 C1244 1.524 . S
C1243 H1246 0.999 . S
C1244 H1214 0.950 . S
C1244 C1243 1.524 . S
C1244 C1245 1.415 . S
C1245 H1215 0.950 . S
C1245 C1240 1.363 . S
C1245 C1244 1.415 . S
H1246 C1243 0.999 . S
H1247 C1228 0.913 . S
H1248 C1266 0.951 . S
H1249 C1268 0.951 . S
H1250 C1270 0.950 . S
H1251 C1271 0.950 . S
H1252 C1273 0.950 . S
H1253 C1276 0.950 . S
H1254 C1277 0.950 . S
H1255 C1279 0.950 . S
H1256 C1280 0.950 . S
H1257 C1281 0.951 . S
H1258 C1283 0.951 . S
H1259 C1285 0.950 . S
H1260 C1286 0.950 . S
H1261 C1288 0.950 . S
H1262 C1291 0.950 . S
H1263 C1292 0.950 . S
H1264 C1294 0.950 . S
H1265 C1295 0.950 . S
C1266 H1248 0.951 . S
C1266 C1267 1.366 . S
C1266 C1268 1.388 . S
C1267 C1266 1.366 . S
C1267 C1271 1.385 . S
C1268 H1249 0.951 . S
C1268 C1266 1.388 . S
C1268 C1269 1.366 . S
C1269 C1268 1.366 . S
C1269 C1270 1.414 . S
C1269 C1272 1.499 . S
C1270 H1250 0.950 . S
C1270 C1269 1.414 . S
C1270 C1271 1.374 . S
C1271 H1251 0.950 . S
C1271 C1267 1.385 . S
C1271 C1270 1.374 . S
C1272 C1269 1.499 . S
C1272 C1273 1.373 . S
C1272 C1274 1.389 . S
C1273 H1252 0.950 . S
C1273 C1272 1.373 . S
C1273 C1289 1.377 . S
C1274 C1272 1.389 . S
C1274 C1275 1.524 . S
C1274 C1288 1.377 . S
C1275 C1274 1.524 . S
C1275 C1276 1.397 . S
C1275 C1280 1.363 . S
C1276 H1253 0.950 . S
C1276 C1275 1.397 . S
C1276 C1277 1.334 . S
C1277 H1254 0.950 . S
C1277 C1276 1.334 . S
C1277 C1278 1.287 . S
C1278 C1277 1.287 . S
C1278 C1279 1.524 . S
C1278 H1297 0.913 . S
C1279 H1255 0.950 . S
C1279 C1278 1.524 . S
C1279 C1280 1.415 . S
C1280 H1256 0.950 . S
C1280 C1275 1.363 . S
C1280 C1279 1.415 . S
C1281 H1257 0.951 . S
C1281 C1282 1.366 . S
C1281 C1283 1.388 . S
C1282 C1281 1.366 . S
C1282 C1286 1.385 . S
C1283 H1258 0.951 . S
C1283 C1281 1.388 . S
C1283 C1284 1.366 . S
C1284 C1283 1.366 . S
C1284 C1285 1.414 . S
C1284 C1287 1.499 . S
C1285 H1259 0.950 . S
C1285 C1284 1.414 . S
C1285 C1286 1.374 . S
C1286 H1260 0.950 . S
C1286 C1282 1.385 . S
C1286 C1285 1.374 . S
C1287 C1284 1.499 . S
C1287 C1288 1.373 . S
C1287 C1289 1.389 . S
C1288 H1261 0.950 . S
C1288 C1274 1.377 . S
C1288 C1287 1.373 . S
C1289 C1273 1.377 . S
C1289 C1287 1.389 . S
C1289 C1290 1.524 . S
C1290 C1289 1.524 . S
C1290 C1291 1.397 . S
C1290 C1295 1.363 . S
C1291 H1262 0.950 . S
C1291 C1290 1.397 . S
C1291 C1292 1.334 . S
C1292 H1263 0.950 . S
C1292 C1291 1.334 . S
C1292 C1293 1.287 . S
C1293 C1292 1.287 . S
C1293 C1294 1.524 . S
C1293 H1296 0.999 . S
C1294 H1264 0.950 . S
C1294 C1293 1.524 . S
C1294 C1295 1.415 . S
C1295 H1265 0.950 . S
C1295 C1290 1.363 . S
C1295 C1294 1.415 . S
H1296 C1293 0.999 . S
H1297 C1278 0.913 . S
H1298 C1316 0.951 1_545 S
H1299 C1318 0.951 . S
H1300 C1320 0.950 . S
H1301 C1321 0.950 . S
H1302 C1323 0.950 . S
H1303 C1326 0.950 . S
H1304 C1327 0.950 . S
H1305 C1329 0.950 . S
H1306 C1330 0.950 . S
H1307 C1331 0.951 . S
H1308 C1333 0.951 . S
H1309 C1335 0.950 . S
H1310 C1336 0.950 . S
H1311 C1338 0.950 . S
H1312 C1341 0.950 . S
H1313 C1342 0.950 . S
H1314 C1344 0.950 . S
H1315 C1345 0.950 . S
C1316 H1298 0.951 1_565 S
C1316 C1317 1.366 . S
C1316 C1318 1.388 . S
C1317 C1316 1.366 . S
C1317 C1321 1.385 . S
C1318 H1299 0.951 . S
C1318 C1316 1.388 . S
C1318 C1319 1.366 . S
C1319 C1318 1.366 . S
C1319 C1320 1.414 . S
C1319 C1322 1.499 . S
C1320 H1300 0.950 . S
C1320 C1319 1.414 . S
C1320 C1321 1.374 . S
C1321 H1301 0.950 . S
C1321 C1317 1.385 . S
C1321 C1320 1.374 . S
C1322 C1319 1.499 . S
C1322 C1323 1.373 . S
C1322 C1324 1.389 . S
C1323 H1302 0.950 . S
C1323 C1322 1.373 . S
C1323 C1339 1.377 . S
C1324 C1322 1.389 . S
C1324 C1325 1.524 . S
C1324 C1338 1.377 . S
C1325 C1324 1.524 . S
C1325 C1326 1.397 . S
C1325 C1330 1.363 . S
C1326 H1303 0.950 . S
C1326 C1325 1.397 . S
C1326 C1327 1.334 . S
C1327 H1304 0.950 . S
C1327 C1326 1.334 . S
C1327 C1328 1.287 1_565 S
C1328 C1327 1.287 1_545 S
C1328 C1329 1.524 . S
C1328 H1347 0.913 . S
C1329 H1305 0.950 . S
C1329 C1328 1.524 . S
C1329 C1330 1.415 1_545 S
C1330 H1306 0.950 . S
C1330 C1325 1.363 . S
C1330 C1329 1.415 1_565 S
C1331 H1307 0.951 . S
C1331 C1332 1.366 . S
C1331 C1333 1.388 . S
C1332 C1331 1.366 . S
C1332 C1336 1.385 . S
C1333 H1308 0.951 . S
C1333 C1331 1.388 . S
C1333 C1334 1.366 . S
C1334 C1333 1.366 . S
C1334 C1335 1.414 . S
C1334 C1337 1.499 . S
C1335 H1309 0.950 . S
C1335 C1334 1.414 . S
C1335 C1336 1.374 . S
C1336 H1310 0.950 . S
C1336 C1332 1.385 . S
C1336 C1335 1.374 . S
C1337 C1334 1.499 . S
C1337 C1338 1.373 . S
C1337 C1339 1.389 . S
C1338 H1311 0.950 . S
C1338 C1324 1.377 . S
C1338 C1337 1.373 . S
C1339 C1323 1.377 . S
C1339 C1337 1.389 . S
C1339 C1340 1.524 . S
C1340 C1339 1.524 . S
C1340 C1341 1.397 . S
C1340 C1345 1.363 . S
C1341 H1312 0.950 . S
C1341 C1340 1.397 . S
C1341 C1342 1.334 . S
C1342 H1313 0.950 . S
C1342 C1341 1.334 . S
C1342 C1343 1.287 . S
C1343 C1342 1.287 . S
C1343 C1344 1.524 . S
C1343 H1346 0.999 . S
C1344 H1314 0.950 . S
C1344 C1343 1.524 . S
C1344 C1345 1.415 . S
C1345 H1315 0.950 . S
C1345 C1340 1.363 . S
C1345 C1344 1.415 . S
H1346 C1343 0.999 . S
H1347 C1328 0.913 . S
H1348 C1366 0.951 . S
H1349 C1368 0.951 . S
H1350 C1370 0.950 . S
H1351 C1371 0.950 . S
H1352 C1373 0.950 . S
H1353 C1376 0.950 . S
H1354 C1377 0.950 . S
H1355 C1379 0.950 . S
H1356 C1380 0.950 . S
H1357 C1381 0.951 . S
H1358 C1383 0.951 . S
H1359 C1385 0.950 . S
H1360 C1386 0.950 . S
H1361 C1388 0.950 . S
H1362 C1391 0.950 . S
H1363 C1392 0.950 . S
H1364 C1394 0.950 . S
H1365 C1395 0.950 . S
C1366 H1348 0.951 . S
C1366 C1367 1.366 . S
C1366 C1368 1.388 . S
C1367 C1366 1.366 . S
C1367 C1371 1.385 . S
C1368 H1349 0.951 . S
C1368 C1366 1.388 . S
C1368 C1369 1.366 . S
C1369 C1368 1.366 . S
C1369 C1370 1.414 . S
C1369 C1372 1.499 . S
C1370 H1350 0.950 . S
C1370 C1369 1.414 . S
C1370 C1371 1.374 . S
C1371 H1351 0.950 . S
C1371 C1367 1.385 . S
C1371 C1370 1.374 . S
C1372 C1369 1.499 . S
C1372 C1373 1.373 . S
C1372 C1374 1.389 . S
C1373 H1352 0.950 . S
C1373 C1372 1.373 . S
C1373 C1389 1.377 . S
C1374 C1372 1.389 . S
C1374 C1375 1.524 . S
C1374 C1388 1.377 . S
C1375 C1374 1.524 . S
C1375 C1376 1.397 . S
C1375 C1380 1.363 . S
C1376 H1353 0.950 . S
C1376 C1375 1.397 . S
C1376 C1377 1.334 . S
C1377 H1354 0.950 . S
C1377 C1376 1.334 . S
C1377 C1378 1.287 . S
C1378 C1377 1.287 . S
C1378 C1379 1.524 . S
C1378 H1397 0.913 . S
C1379 H1355 0.950 . S
C1379 C1378 1.524 . S
C1379 C1380 1.415 . S
C1380 H1356 0.950 . S
C1380 C1375 1.363 . S
C1380 C1379 1.415 . S
C1381 H1357 0.951 . S
C1381 C1382 1.366 . S
C1381 C1383 1.388 . S
C1382 C1381 1.366 . S
C1382 C1386 1.385 . S
C1383 H1358 0.951 . S
C1383 C1381 1.388 . S
C1383 C1384 1.366 . S
C1384 C1383 1.366 . S
C1384 C1385 1.414 . S
C1384 C1387 1.499 . S
C1385 H1359 0.950 . S
C1385 C1384 1.414 . S
C1385 C1386 1.374 . S
C1386 H1360 0.950 . S
C1386 C1382 1.385 . S
C1386 C1385 1.374 . S
C1387 C1384 1.499 . S
C1387 C1388 1.373 . S
C1387 C1389 1.389 . S
C1388 H1361 0.950 . S
C1388 C1374 1.377 . S
C1388 C1387 1.373 . S
C1389 C1373 1.377 . S
C1389 C1387 1.389 . S
C1389 C1390 1.524 . S
C1390 C1389 1.524 . S
C1390 C1391 1.397 . S
C1390 C1395 1.363 . S
C1391 H1362 0.950 . S
C1391 C1390 1.397 . S
C1391 C1392 1.334 . S
C1392 H1363 0.950 . S
C1392 C1391 1.334 . S
C1392 C1393 1.287 . S
C1393 C1392 1.287 . S
C1393 C1394 1.524 . S
C1393 H1396 0.999 . S
C1394 H1364 0.950 . S
C1394 C1393 1.524 . S
C1394 C1395 1.415 . S
C1395 H1365 0.950 . S
C1395 C1390 1.363 . S
C1395 C1394 1.415 . S
H1396 C1393 0.999 . S
H1397 C1378 0.913 . S
H1398 C1416 0.951 . S
H1399 C1418 0.951 . S
H1400 C1420 0.950 . S
H1401 C1421 0.950 . S
H1402 C1423 0.950 . S
H1403 C1426 0.950 . S
H1404 C1427 0.950 . S
H1405 C1429 0.950 . S
H1406 C1430 0.950 . S
H1407 C1431 0.951 . S
H1408 C1433 0.951 . S
H1409 C1435 0.950 . S
H1410 C1436 0.950 . S
H1411 C1438 0.950 . S
H1412 C1441 0.950 . S
H1413 C1442 0.950 . S
H1414 C1444 0.950 . S
H1415 C1445 0.950 . S
C1416 H1398 0.951 . S
C1416 C1417 1.366 . S
C1416 C1418 1.388 . S
C1417 C1416 1.366 . S
C1417 C1421 1.385 . S
C1418 H1399 0.951 . S
C1418 C1416 1.388 . S
C1418 C1419 1.366 . S
C1419 C1418 1.366 . S
C1419 C1420 1.414 . S
C1419 C1422 1.499 . S
C1420 H1400 0.950 . S
C1420 C1419 1.414 . S
C1420 C1421 1.374 . S
C1421 H1401 0.950 . S
C1421 C1417 1.385 . S
C1421 C1420 1.374 . S
C1422 C1419 1.499 . S
C1422 C1423 1.373 . S
C1422 C1424 1.389 . S
C1423 H1402 0.950 . S
C1423 C1422 1.373 . S
C1423 C1439 1.377 . S
C1424 C1422 1.389 . S
C1424 C1425 1.524 . S
C1424 C1438 1.377 . S
C1425 C1424 1.524 . S
C1425 C1426 1.397 . S
C1425 C1430 1.363 . S
C1426 H1403 0.950 . S
C1426 C1425 1.397 . S
C1426 C1427 1.334 . S
C1427 H1404 0.950 . S
C1427 C1426 1.334 . S
C1427 C1428 1.287 . S
C1428 C1427 1.287 . S
C1428 C1429 1.524 . S
C1428 H1447 0.913 . S
C1429 H1405 0.950 . S
C1429 C1428 1.524 . S
C1429 C1430 1.415 . S
C1430 H1406 0.950 . S
C1430 C1425 1.363 . S
C1430 C1429 1.415 . S
C1431 H1407 0.951 . S
C1431 C1432 1.366 . S
C1431 C1433 1.388 . S
C1432 C1431 1.366 . S
C1432 C1436 1.385 . S
C1433 H1408 0.951 . S
C1433 C1431 1.388 . S
C1433 C1434 1.366 . S
C1434 C1433 1.366 . S
C1434 C1435 1.414 . S
C1434 C1437 1.499 . S
C1435 H1409 0.950 . S
C1435 C1434 1.414 . S
C1435 C1436 1.374 . S
C1436 H1410 0.950 . S
C1436 C1432 1.385 . S
C1436 C1435 1.374 . S
C1437 C1434 1.499 . S
C1437 C1438 1.373 . S
C1437 C1439 1.389 . S
C1438 H1411 0.950 . S
C1438 C1424 1.377 . S
C1438 C1437 1.373 . S
C1439 C1423 1.377 . S
C1439 C1437 1.389 . S
C1439 C1440 1.524 . S
C1440 C1439 1.524 . S
C1440 C1441 1.397 . S
C1440 C1445 1.363 . S
C1441 H1412 0.950 . S
C1441 C1440 1.397 . S
C1441 C1442 1.334 . S
C1442 H1413 0.950 . S
C1442 C1441 1.334 . S
C1442 C1443 1.287 . S
C1443 C1442 1.287 . S
C1443 C1444 1.524 . S
C1443 H1446 0.999 . S
C1444 H1414 0.950 . S
C1444 C1443 1.524 . S
C1444 C1445 1.415 . S
C1445 H1415 0.950 . S
C1445 C1440 1.363 . S
C1445 C1444 1.415 . S
H1446 C1443 0.999 . S
H1447 C1428 0.913 . S
H1448 C1466 0.951 . S
H1449 C1468 0.951 . S
H1450 C1470 0.950 . S
H1451 C1471 0.950 . S
H1452 C1473 0.950 . S
H1453 C1476 0.950 . S
H1454 C1477 0.950 . S
H1455 C1479 0.950 . S
H1456 C1480 0.950 . S
H1457 C1481 0.951 . S
H1458 C1483 0.951 . S
H1459 C1485 0.950 . S
H1460 C1486 0.950 . S
H1461 C1488 0.950 . S
H1462 C1491 0.950 . S
H1463 C1492 0.950 . S
H1464 C1494 0.950 . S
H1465 C1495 0.950 . S
C1466 H1448 0.951 . S
C1466 C1467 1.366 . S
C1466 C1468 1.388 . S
C1467 C1466 1.366 . S
C1467 C1471 1.385 . S
C1468 H1449 0.951 . S
C1468 C1466 1.388 . S
C1468 C1469 1.366 . S
C1469 C1468 1.366 . S
C1469 C1470 1.414 . S
C1469 C1472 1.499 . S
C1470 H1450 0.950 . S
C1470 C1469 1.414 . S
C1470 C1471 1.374 . S
C1471 H1451 0.950 . S
C1471 C1467 1.385 . S
C1471 C1470 1.374 . S
C1472 C1469 1.499 . S
C1472 C1473 1.373 . S
C1472 C1474 1.389 . S
C1473 H1452 0.950 . S
C1473 C1472 1.373 . S
C1473 C1489 1.377 . S
C1474 C1472 1.389 . S
C1474 C1475 1.524 . S
C1474 C1488 1.377 . S
C1475 C1474 1.524 . S
C1475 C1476 1.397 . S
C1475 C1480 1.363 . S
C1476 H1453 0.950 . S
C1476 C1475 1.397 . S
C1476 C1477 1.334 . S
C1477 H1454 0.950 . S
C1477 C1476 1.334 . S
C1477 C1478 1.287 . S
C1478 C1477 1.287 . S
C1478 C1479 1.524 . S
C1478 H1497 0.913 . S
C1479 H1455 0.950 . S
C1479 C1478 1.524 . S
C1479 C1480 1.415 . S
C1480 H1456 0.950 . S
C1480 C1475 1.363 . S
C1480 C1479 1.415 . S
C1481 H1457 0.951 . S
C1481 C1482 1.366 . S
C1481 C1483 1.388 . S
C1482 C1481 1.366 . S
C1482 C1486 1.385 . S
C1483 H1458 0.951 . S
C1483 C1481 1.388 . S
C1483 C1484 1.366 . S
C1484 C1483 1.366 . S
C1484 C1485 1.414 . S
C1484 C1487 1.499 . S
C1485 H1459 0.950 . S
C1485 C1484 1.414 . S
C1485 C1486 1.374 . S
C1486 H1460 0.950 . S
C1486 C1482 1.385 . S
C1486 C1485 1.374 . S
C1487 C1484 1.499 . S
C1487 C1488 1.373 . S
C1487 C1489 1.389 . S
C1488 H1461 0.950 . S
C1488 C1474 1.377 . S
C1488 C1487 1.373 . S
C1489 C1473 1.377 . S
C1489 C1487 1.389 . S
C1489 C1490 1.524 . S
C1490 C1489 1.524 . S
C1490 C1491 1.397 . S
C1490 C1495 1.363 . S
C1491 H1462 0.950 . S
C1491 C1490 1.397 . S
C1491 C1492 1.334 . S
C1492 H1463 0.950 . S
C1492 C1491 1.334 . S
C1492 C1493 1.287 . S
C1493 C1492 1.287 . S
C1493 C1494 1.524 . S
C1493 H1496 0.999 . S
C1494 H1464 0.950 . S
C1494 C1493 1.524 . S
C1494 C1495 1.415 . S
C1495 H1465 0.950 . S
C1495 C1490 1.363 . S
C1495 C1494 1.415 . S
H1496 C1493 0.999 . S
H1497 C1478 0.913 . S
H1498 C1516 0.951 . S
H1499 C1518 0.951 . S
H1500 C1520 0.950 . S
H1501 C1521 0.950 . S
H1502 C1523 0.950 . S
H1503 C1526 0.950 . S
H1504 C1527 0.950 . S
H1505 C1529 0.950 . S
H1506 C1530 0.950 . S
H1507 C1531 0.951 . S
H1508 C1533 0.951 . S
H1509 C1535 0.950 . S
H1510 C1536 0.950 . S
H1511 C1538 0.950 . S
H1512 C1541 0.950 . S
H1513 C1542 0.950 . S
H1514 C1544 0.950 . S
H1515 C1545 0.950 . S
C1516 H1498 0.951 . S
C1516 C1517 1.366 . S
C1516 C1518 1.388 . S
C1517 C1516 1.366 . S
C1517 C1521 1.385 . S
C1518 H1499 0.951 . S
C1518 C1516 1.388 . S
C1518 C1519 1.366 . S
C1519 C1518 1.366 . S
C1519 C1520 1.414 . S
C1519 C1522 1.499 . S
C1520 H1500 0.950 . S
C1520 C1519 1.414 . S
C1520 C1521 1.374 . S
C1521 H1501 0.950 . S
C1521 C1517 1.385 . S
C1521 C1520 1.374 . S
C1522 C1519 1.499 . S
C1522 C1523 1.373 . S
C1522 C1524 1.389 . S
C1523 H1502 0.950 . S
C1523 C1522 1.373 . S
C1523 C1539 1.377 . S
C1524 C1522 1.389 . S
C1524 C1525 1.524 . S
C1524 C1538 1.377 . S
C1525 C1524 1.524 . S
C1525 C1526 1.397 . S
C1525 C1530 1.363 . S
C1526 H1503 0.950 . S
C1526 C1525 1.397 . S
C1526 C1527 1.334 . S
C1527 H1504 0.950 . S
C1527 C1526 1.334 . S
C1527 C1528 1.287 . S
C1528 C1527 1.287 . S
C1528 C1529 1.524 . S
C1528 H1547 0.913 . S
C1529 H1505 0.950 . S
C1529 C1528 1.524 . S
C1529 C1530 1.415 . S
C1530 H1506 0.950 . S
C1530 C1525 1.363 . S
C1530 C1529 1.415 . S
C1531 H1507 0.951 . S
C1531 C1532 1.366 . S
C1531 C1533 1.388 . S
C1532 C1531 1.366 . S
C1532 C1536 1.385 . S
C1533 H1508 0.951 . S
C1533 C1531 1.388 . S
C1533 C1534 1.366 . S
C1534 C1533 1.366 . S
C1534 C1535 1.414 . S
C1534 C1537 1.499 . S
C1535 H1509 0.950 . S
C1535 C1534 1.414 . S
C1535 C1536 1.374 . S
C1536 H1510 0.950 . S
C1536 C1532 1.385 . S
C1536 C1535 1.374 . S
C1537 C1534 1.499 . S
C1537 C1538 1.373 . S
C1537 C1539 1.389 . S
C1538 H1511 0.950 . S
C1538 C1524 1.377 . S
C1538 C1537 1.373 . S
C1539 C1523 1.377 . S
C1539 C1537 1.389 . S
C1539 C1540 1.524 . S
C1540 C1539 1.524 . S
C1540 C1541 1.397 . S
C1540 C1545 1.363 . S
C1541 H1512 0.950 . S
C1541 C1540 1.397 . S
C1541 C1542 1.334 . S
C1542 H1513 0.950 . S
C1542 C1541 1.334 . S
C1542 C1543 1.287 . S
C1543 C1542 1.287 . S
C1543 C1544 1.524 . S
C1543 H1546 0.999 . S
C1544 H1514 0.950 . S
C1544 C1543 1.524 . S
C1544 C1545 1.415 . S
C1545 H1515 0.950 . S
C1545 C1540 1.363 . S
C1545 C1544 1.415 . S
H1546 C1543 0.999 . S
H1547 C1528 0.913 . S
H1548 C1566 0.951 . S
H1549 C1568 0.951 . S
H1550 C1570 0.950 . S
H1551 C1571 0.950 . S
H1552 C1573 0.950 . S
H1553 C1576 0.950 . S
H1554 C1577 0.950 . S
H1555 C1579 0.950 . S
H1556 C1580 0.950 . S
H1557 C1581 0.951 . S
H1558 C1583 0.951 . S
H1559 C1585 0.950 . S
H1560 C1586 0.950 . S
H1561 C1588 0.950 . S
H1562 C1591 0.950 . S
H1563 C1592 0.950 . S
H1564 C1594 0.950 1_554 S
H1565 C1595 0.927 1_554 S
C1566 H1548 0.951 . S
C1566 C1567 1.366 1_546 S
C1566 C1568 1.388 1_545 S
C1567 C1566 1.366 1_564 S
C1567 C1571 1.385 . S
C1568 H1549 0.951 . S
C1568 C1566 1.388 1_565 S
C1568 C1569 1.366 . S
C1569 C1568 1.366 . S
C1569 C1570 1.414 1_556 S
C1569 C1572 1.499 . S
C1570 H1550 0.950 . S
C1570 C1569 1.414 1_554 S
C1570 C1571 1.374 . S
C1571 H1551 0.950 . S
C1571 C1567 1.385 . S
C1571 C1570 1.374 . S
C1572 C1569 1.499 . S
C1572 C1573 1.373 . S
C1572 C1574 1.389 . S
C1573 H1552 0.950 . S
C1573 C1572 1.373 . S
C1573 C1589 1.377 . S
C1574 C1572 1.389 . S
C1574 C1575 1.524 . S
C1574 C1588 1.377 . S
C1575 C1574 1.524 . S
C1575 C1576 1.397 . S
C1575 C1580 1.363 . S
C1576 H1553 0.950 . S
C1576 C1575 1.397 . S
C1576 C1577 1.334 1_565 S
C1577 H1554 0.950 . S
C1577 C1576 1.334 1_545 S
C1577 C1578 1.287 . S
C1578 C1577 1.287 . S
C1578 C1579 1.524 . S
C1578 H1597 0.913 . S
C1579 H1555 0.950 . S
C1579 C1578 1.524 . S
C1579 C1580 1.415 1_545 S
C1580 H1556 0.950 . S
C1580 C1575 1.363 . S
C1580 C1579 1.415 1_565 S
C1581 H1557 0.951 . S
C1581 C1582 1.366 . S
C1581 C1583 1.388 . S
C1582 C1581 1.366 . S
C1582 C1586 1.385 . S
C1583 H1558 0.951 . S
C1583 C1581 1.388 . S
C1583 C1584 1.366 . S
C1584 C1583 1.366 . S
C1584 C1585 1.414 . S
C1584 C1587 1.499 . S
C1585 H1559 0.950 . S
C1585 C1584 1.414 . S
C1585 C1586 1.374 . S
C1586 H1560 0.950 . S
C1586 C1582 1.385 . S
C1586 C1585 1.374 . S
C1587 C1584 1.499 . S
C1587 C1588 1.373 . S
C1587 C1589 1.389 . S
C1588 H1561 0.950 . S
C1588 C1574 1.377 . S
C1588 C1587 1.373 . S
C1589 C1573 1.377 . S
C1589 C1587 1.389 . S
C1589 C1590 1.524 . S
C1590 C1589 1.524 . S
C1590 C1591 1.397 . S
C1590 C1595 1.363 . S
C1591 H1562 0.950 . S
C1591 C1590 1.397 . S
C1591 C1592 1.334 . S
C1592 H1563 0.950 . S
C1592 C1591 1.334 . S
C1592 C1593 1.287 . S
C1593 C1592 1.287 . S
C1593 C1594 1.524 . S
C1593 H1596 0.999 . S
C1594 H1564 0.950 1_556 S
C1594 C1593 1.524 . S
C1594 C1595 1.415 . S
C1595 H1565 0.927 1_556 S
C1595 C1590 1.363 . S
C1595 C1594 1.415 . S
H1596 C1593 0.999 . S
H1597 C1578 0.913 . S
H1598 C1616 0.951 . S
H1599 C1618 0.951 . S
H1600 C1620 0.950 . S
H1601 C1621 0.950 . S
H1602 C1623 0.950 . S
H1603 C1626 0.950 . S
H1604 C1627 0.950 1_554 S
H1605 C1629 0.950 . S
H1606 C1630 0.950 . S
H1607 C1631 0.951 . S
H1608 C1633 0.951 . S
H1609 C1635 0.950 . S
H1610 C1636 0.950 . S
H1611 C1638 0.950 . S
H1612 C1641 0.950 . S
H1613 C1642 0.950 . S
H1614 C1644 0.950 . S
H1615 C1645 0.950 . S
C1616 H1598 0.951 . S
C1616 C1617 1.366 . S
C1616 C1618 1.388 . S
C1617 C1616 1.366 . S
C1617 C1621 1.385 . S
C1618 H1599 0.951 . S
C1618 C1616 1.388 . S
C1618 C1619 1.366 . S
C1619 C1618 1.366 . S
C1619 C1620 1.414 . S
C1619 C1622 1.499 . S
C1620 H1600 0.950 . S
C1620 C1619 1.414 . S
C1620 C1621 1.374 . S
C1621 H1601 0.950 . S
C1621 C1617 1.385 . S
C1621 C1620 1.374 . S
C1622 C1619 1.499 . S
C1622 C1623 1.373 . S
C1622 C1624 1.389 . S
C1623 H1602 0.950 . S
C1623 C1622 1.373 . S
C1623 C1639 1.377 . S
C1624 C1622 1.389 . S
C1624 C1625 1.524 . S
C1624 C1638 1.377 . S
C1625 C1624 1.524 . S
C1625 C1626 1.397 . S
C1625 C1630 1.363 . S
C1626 H1603 0.950 . S
C1626 C1625 1.397 . S
C1626 C1627 1.334 . S
C1627 H1604 0.950 1_556 S
C1627 C1626 1.334 . S
C1627 C1628 1.287 . S
C1628 C1627 1.287 . S
C1628 C1629 1.524 . S
C1628 H1647 0.913 1_556 S
C1629 H1605 0.950 . S
C1629 C1628 1.524 . S
C1629 C1630 1.415 . S
C1630 H1606 0.950 . S
C1630 C1625 1.363 . S
C1630 C1629 1.415 . S
C1631 H1607 0.951 . S
C1631 C1632 1.366 . S
C1631 C1633 1.388 . S
C1632 C1631 1.366 . S
C1632 C1636 1.385 . S
C1633 H1608 0.951 . S
C1633 C1631 1.388 . S
C1633 C1634 1.366 . S
C1634 C1633 1.366 . S
C1634 C1635 1.414 . S
C1634 C1637 1.499 . S
C1635 H1609 0.950 . S
C1635 C1634 1.414 . S
C1635 C1636 1.374 . S
C1636 H1610 0.950 . S
C1636 C1632 1.385 . S
C1636 C1635 1.374 . S
C1637 C1634 1.499 . S
C1637 C1638 1.373 . S
C1637 C1639 1.389 . S
C1638 H1611 0.950 . S
C1638 C1624 1.377 . S
C1638 C1637 1.373 . S
C1639 C1623 1.377 . S
C1639 C1637 1.389 . S
C1639 C1640 1.524 . S
C1640 C1639 1.524 . S
C1640 C1641 1.397 . S
C1640 C1645 1.363 . S
C1641 H1612 0.950 . S
C1641 C1640 1.397 . S
C1641 C1642 1.334 . S
C1642 H1613 0.950 . S
C1642 C1641 1.334 . S
C1642 C1643 1.287 . S
C1643 C1642 1.287 . S
C1643 C1644 1.524 . S
C1643 H1646 0.999 . S
C1644 H1614 0.950 . S
C1644 C1643 1.524 . S
C1644 C1645 1.415 . S
C1645 H1615 0.950 . S
C1645 C1640 1.363 . S
C1645 C1644 1.415 . S
H1646 C1643 0.999 . S
H1647 C1628 0.913 1_554 S
H1648 C1666 0.951 . S
H1649 C1668 0.951 . S
H1650 C1670 0.950 . S
H1651 C1671 0.950 . S
H1652 C1673 0.950 . S
H1653 C1676 0.950 . S
H1654 C1677 0.950 . S
H1655 C1679 0.950 . S
H1656 C1680 0.950 . S
H1657 C1681 0.951 . S
H1658 C1683 0.951 . S
H1659 C1685 0.950 . S
H1660 C1686 0.950 . S
H1661 C1688 0.950 . S
H1662 C1691 0.950 . S
H1663 C1692 0.950 . S
H1664 C1694 0.950 . S
H1665 C1695 0.950 . S
C1666 H1648 0.951 . S
C1666 C1667 1.366 . S
C1666 C1668 1.388 . S
C1667 C1666 1.366 . S
C1667 C1671 1.385 . S
C1668 H1649 0.951 . S
C1668 C1666 1.388 . S
C1668 C1669 1.366 . S
C1669 C1668 1.366 . S
C1669 C1670 1.414 . S
C1669 C1672 1.499 . S
C1670 H1650 0.950 . S
C1670 C1669 1.414 . S
C1670 C1671 1.374 . S
C1671 H1651 0.950 . S
C1671 C1667 1.385 . S
C1671 C1670 1.374 . S
C1672 C1669 1.499 . S
C1672 C1673 1.373 . S
C1672 C1674 1.389 . S
C1673 H1652 0.950 . S
C1673 C1672 1.373 . S
C1673 C1689 1.377 . S
C1674 C1672 1.389 . S
C1674 C1675 1.524 . S
C1674 C1688 1.377 . S
C1675 C1674 1.524 . S
C1675 C1676 1.397 . S
C1675 C1680 1.363 . S
C1676 H1653 0.950 . S
C1676 C1675 1.397 . S
C1676 C1677 1.334 . S
C1677 H1654 0.950 . S
C1677 C1676 1.334 . S
C1677 C1678 1.287 . S
C1678 C1677 1.287 . S
C1678 C1679 1.524 . S
C1678 H1697 0.916 1_556 S
C1679 H1655 0.950 . S
C1679 C1678 1.524 . S
C1679 C1680 1.415 . S
C1680 H1656 0.950 . S
C1680 C1675 1.363 . S
C1680 C1679 1.415 . S
C1681 H1657 0.951 . S
C1681 C1682 1.366 . S
C1681 C1683 1.388 . S
C1682 C1681 1.366 . S
C1682 C1686 1.385 . S
C1683 H1658 0.951 . S
C1683 C1681 1.388 . S
C1683 C1684 1.366 . S
C1684 C1683 1.366 . S
C1684 C1685 1.414 . S
C1684 C1687 1.499 . S
C1685 H1659 0.950 . S
C1685 C1684 1.414 . S
C1685 C1686 1.374 . S
C1686 H1660 0.950 . S
C1686 C1682 1.385 . S
C1686 C1685 1.374 . S
C1687 C1684 1.499 . S
C1687 C1688 1.373 . S
C1687 C1689 1.389 . S
C1688 H1661 0.950 . S
C1688 C1674 1.377 . S
C1688 C1687 1.373 . S
C1689 C1673 1.377 . S
C1689 C1687 1.389 . S
C1689 C1690 1.524 . S
C1690 C1689 1.524 . S
C1690 C1691 1.397 . S
C1690 C1695 1.363 . S
C1691 H1662 0.950 . S
C1691 C1690 1.397 . S
C1691 C1692 1.334 . S
C1692 H1663 0.950 . S
C1692 C1691 1.334 . S
C1692 C1693 1.287 . S
C1693 C1692 1.287 . S
C1693 C1694 1.524 . S
C1693 H1696 0.999 . S
C1694 H1664 0.950 . S
C1694 C1693 1.524 . S
C1694 C1695 1.415 . S
C1695 H1665 0.950 . S
C1695 C1690 1.363 . S
C1695 C1694 1.415 . S
H1696 C1693 0.999 . S
H1697 C1678 0.916 1_554 S
H1698 C1716 0.951 . S
H1699 C1718 0.951 . S
H1700 C1720 0.950 . S
H1701 C1721 0.950 . S
H1702 C1723 0.950 . S
H1703 C1726 0.950 . S
H1704 C1727 0.950 . S
H1705 C1729 0.950 . S
H1706 C1730 0.950 . S
H1707 C1731 0.951 . S
H1708 C1733 0.951 . S
H1709 C1735 0.950 . S
H1710 C1736 0.950 . S
H1711 C1738 0.950 . S
H1712 C1741 0.950 . S
H1713 C1742 0.950 . S
H1714 C1744 0.950 . S
H1715 C1745 0.950 . S
C1716 H1698 0.951 . S
C1716 C1717 1.366 . S
C1716 C1718 1.388 . S
C1717 C1716 1.366 . S
C1717 C1721 1.385 . S
C1718 H1699 0.951 . S
C1718 C1716 1.388 . S
C1718 C1719 1.366 . S
C1719 C1718 1.366 . S
C1719 C1720 1.414 . S
C1719 C1722 1.499 . S
C1720 H1700 0.950 . S
C1720 C1719 1.414 . S
C1720 C1721 1.374 . S
C1721 H1701 0.950 . S
C1721 C1717 1.385 . S
C1721 C1720 1.374 . S
C1722 C1719 1.499 . S
C1722 C1723 1.373 . S
C1722 C1724 1.389 . S
C1723 H1702 0.950 . S
C1723 C1722 1.373 . S
C1723 C1739 1.377 . S
C1724 C1722 1.389 . S
C1724 C1725 1.524 . S
C1724 C1738 1.377 . S
C1725 C1724 1.524 . S
C1725 C1726 1.397 . S
C1725 C1730 1.363 . S
C1726 H1703 0.950 . S
C1726 C1725 1.397 . S
C1726 C1727 1.334 . S
C1727 H1704 0.950 . S
C1727 C1726 1.334 . S
C1727 C1728 1.287 . S
C1728 C1727 1.287 . S
C1728 C1729 1.524 . S
C1728 H1747 0.913 . S
C1729 H1705 0.950 . S
C1729 C1728 1.524 . S
C1729 C1730 1.415 . S
C1730 H1706 0.950 . S
C1730 C1725 1.363 . S
C1730 C1729 1.415 . S
C1731 H1707 0.951 . S
C1731 C1732 1.366 . S
C1731 C1733 1.388 . S
C1732 C1731 1.366 . S
C1732 C1736 1.385 . S
C1733 H1708 0.951 . S
C1733 C1731 1.388 . S
C1733 C1734 1.366 . S
C1734 C1733 1.366 . S
C1734 C1735 1.414 . S
C1734 C1737 1.499 . S
C1735 H1709 0.950 . S
C1735 C1734 1.414 . S
C1735 C1736 1.374 . S
C1736 H1710 0.950 . S
C1736 C1732 1.385 . S
C1736 C1735 1.374 . S
C1737 C1734 1.499 . S
C1737 C1738 1.373 . S
C1737 C1739 1.389 . S
C1738 H1711 0.950 . S
C1738 C1724 1.377 . S
C1738 C1737 1.373 . S
C1739 C1723 1.377 . S
C1739 C1737 1.389 . S
C1739 C1740 1.524 . S
C1740 C1739 1.524 . S
C1740 C1741 1.397 . S
C1740 C1745 1.363 . S
C1741 H1712 0.950 . S
C1741 C1740 1.397 . S
C1741 C1742 1.334 . S
C1742 H1713 0.950 . S
C1742 C1741 1.334 . S
C1742 C1743 1.287 . S
C1743 C1742 1.287 . S
C1743 C1744 1.524 . S
C1743 H1746 0.999 . S
C1744 H1714 0.950 . S
C1744 C1743 1.524 . S
C1744 C1745 1.415 . S
C1745 H1715 0.950 . S
C1745 C1740 1.363 . S
C1745 C1744 1.415 . S
H1746 C1743 0.999 . S
H1747 C1728 0.913 . S
H1748 C1766 0.951 . S
H1749 C1768 0.951 . S
H1750 C1770 0.950 . S
H1751 C1771 0.950 . S
H1752 C1773 0.950 . S
H1753 C1776 0.950 . S
H1754 C1777 0.950 . S
H1755 C1779 0.950 . S
H1756 C1780 0.950 . S
H1757 C1781 0.951 . S
H1758 C1783 0.951 . S
H1759 C1785 0.950 . S
H1760 C1786 0.950 . S
H1761 C1788 0.950 . S
H1762 C1791 0.950 . S
H1763 C1792 0.950 . S
H1764 C1794 0.950 . S
H1765 C1795 0.950 . S
C1766 H1748 0.951 . S
C1766 C1767 1.366 . S
C1766 C1768 1.388 . S
C1767 C1766 1.366 . S
C1767 C1771 1.385 . S
C1768 H1749 0.951 . S
C1768 C1766 1.388 . S
C1768 C1769 1.366 . S
C1769 C1768 1.366 . S
C1769 C1770 1.414 . S
C1769 C1772 1.499 . S
C1770 H1750 0.950 . S
C1770 C1769 1.414 . S
C1770 C1771 1.374 . S
C1771 H1751 0.950 . S
C1771 C1767 1.385 . S
C1771 C1770 1.374 . S
C1772 C1769 1.499 . S
C1772 C1773 1.373 . S
C1772 C1774 1.389 . S
C1773 H1752 0.950 . S
C1773 C1772 1.373 . S
C1773 C1789 1.377 . S
C1774 C1772 1.389 . S
C1774 C1775 1.524 . S
C1774 C1788 1.377 . S
C1775 C1774 1.524 . S
C1775 C1776 1.397 . S
C1775 C1780 1.363 . S
C1776 H1753 0.950 . S
C1776 C1775 1.397 . S
C1776 C1777 1.334 . S
C1777 H1754 0.950 . S
C1777 C1776 1.334 . S
C1777 C1778 1.287 . S
C1778 C1777 1.287 . S
C1778 C1779 1.524 . S
C1778 H1797 0.913 . S
C1779 H1755 0.950 . S
C1779 C1778 1.524 . S
C1779 C1780 1.415 . S
C1780 H1756 0.950 . S
C1780 C1775 1.363 . S
C1780 C1779 1.415 . S
C1781 H1757 0.951 . S
C1781 C1782 1.366 . S
C1781 C1783 1.388 . S
C1782 C1781 1.366 . S
C1782 C1786 1.385 . S
C1783 H1758 0.951 . S
C1783 C1781 1.388 . S
C1783 C1784 1.366 . S
C1784 C1783 1.366 . S
C1784 C1785 1.414 . S
C1784 C1787 1.499 . S
C1785 H1759 0.950 . S
C1785 C1784 1.414 . S
C1785 C1786 1.374 . S
C1786 H1760 0.950 . S
C1786 C1782 1.385 . S
C1786 C1785 1.374 . S
C1787 C1784 1.499 . S
C1787 C1788 1.373 . S
C1787 C1789 1.389 . S
C1788 H1761 0.950 . S
C1788 C1774 1.377 . S
C1788 C1787 1.373 . S
C1789 C1773 1.377 . S
C1789 C1787 1.389 . S
C1789 C1790 1.524 . S
C1790 C1789 1.524 . S
C1790 C1791 1.397 . S
C1790 C1795 1.363 . S
C1791 H1762 0.950 . S
C1791 C1790 1.397 . S
C1791 C1792 1.334 . S
C1792 H1763 0.950 . S
C1792 C1791 1.334 . S
C1792 C1793 1.287 . S
C1793 C1792 1.287 . S
C1793 C1794 1.524 . S
C1793 H1796 0.999 . S
C1794 H1764 0.950 . S
C1794 C1793 1.524 . S
C1794 C1795 1.415 . S
C1795 H1765 0.950 . S
C1795 C1790 1.363 . S
C1795 C1794 1.415 . S
H1796 C1793 0.999 . S
H1797 C1778 0.913 . S
H1798 C1816 0.951 . S
H1799 C1818 0.951 . S
H1800 C1820 0.950 . S
H1801 C1821 0.950 . S
H1802 C1823 0.950 . S
H1803 C1826 0.950 . S
H1804 C1827 0.950 . S
H1805 C1829 0.950 . S
H1806 C1830 0.950 . S
H1807 C1831 0.951 . S
H1808 C1833 0.951 . S
H1809 C1835 0.950 . S
H1810 C1836 0.950 . S
H1811 C1838 0.950 . S
H1812 C1841 0.950 . S
H1813 C1842 0.950 . S
H1814 C1844 0.950 . S
H1815 C1845 0.950 . S
C1816 H1798 0.951 . S
C1816 C1817 1.366 . S
C1816 C1818 1.388 . S
C1817 C1816 1.366 . S
C1817 C1821 1.385 . S
C1818 H1799 0.951 . S
C1818 C1816 1.388 . S
C1818 C1819 1.366 . S
C1819 C1818 1.366 . S
C1819 C1820 1.414 . S
C1819 C1822 1.499 . S
C1820 H1800 0.950 . S
C1820 C1819 1.414 . S
C1820 C1821 1.374 . S
C1821 H1801 0.950 . S
C1821 C1817 1.385 . S
C1821 C1820 1.374 . S
C1822 C1819 1.499 . S
C1822 C1823 1.373 . S
C1822 C1824 1.389 . S
C1823 H1802 0.950 . S
C1823 C1822 1.373 . S
C1823 C1839 1.377 . S
C1824 C1822 1.389 . S
C1824 C1825 1.524 . S
C1824 C1838 1.377 . S
C1825 C1824 1.524 . S
C1825 C1826 1.397 . S
C1825 C1830 1.363 . S
C1826 H1803 0.950 . S
C1826 C1825 1.397 . S
C1826 C1827 1.334 . S
C1827 H1804 0.950 . S
C1827 C1826 1.334 . S
C1827 C1828 1.287 . S
C1828 C1827 1.287 . S
C1828 C1829 1.524 . S
C1828 H1847 0.913 . S
C1829 H1805 0.950 . S
C1829 C1828 1.524 . S
C1829 C1830 1.415 . S
C1830 H1806 0.950 . S
C1830 C1825 1.363 . S
C1830 C1829 1.415 . S
C1831 H1807 0.951 . S
C1831 C1832 1.366 . S
C1831 C1833 1.388 . S
C1832 C1831 1.366 . S
C1832 C1836 1.385 . S
C1833 H1808 0.951 . S
C1833 C1831 1.388 . S
C1833 C1834 1.366 . S
C1834 C1833 1.366 . S
C1834 C1835 1.414 . S
C1834 C1837 1.499 . S
C1835 H1809 0.950 . S
C1835 C1834 1.414 . S
C1835 C1836 1.374 . S
C1836 H1810 0.950 . S
C1836 C1832 1.385 . S
C1836 C1835 1.374 . S
C1837 C1834 1.499 . S
C1837 C1838 1.373 . S
C1837 C1839 1.389 . S
C1838 H1811 0.950 . S
C1838 C1824 1.377 . S
C1838 C1837 1.373 . S
C1839 C1823 1.377 . S
C1839 C1837 1.389 . S
C1839 C1840 1.524 . S
C1840 C1839 1.524 . S
C1840 C1841 1.397 . S
C1840 C1845 1.363 . S
C1841 H1812 0.950 . S
C1841 C1840 1.397 . S
C1841 C1842 1.334 . S
C1842 H1813 0.950 . S
C1842 C1841 1.334 . S
C1842 C1843 1.287 . S
C1843 C1842 1.287 . S
C1843 C1844 1.524 . S
C1843 H1846 0.999 . S
C1844 H1814 0.950 . S
C1844 C1843 1.524 . S
C1844 C1845 1.415 . S
C1845 H1815 0.950 . S
C1845 C1840 1.363 . S
C1845 C1844 1.415 . S
H1846 C1843 0.999 . S
H1847 C1828 0.913 . S
H1848 C1866 0.951 . S
H1849 C1868 0.951 . S
H1850 C1870 0.950 . S
H1851 C1871 0.950 . S
H1852 C1873 0.950 . S
H1853 C1876 0.950 . S
H1854 C1877 0.950 . S
H1855 C1879 0.950 . S
H1856 C1880 0.950 . S
H1857 C1881 0.951 . S
H1858 C1883 0.951 . S
H1859 C1885 0.950 . S
H1860 C1886 0.950 . S
H1861 C1888 0.950 . S
H1862 C1891 0.950 . S
H1863 C1892 0.950 . S
H1864 C1894 0.950 . S
H1865 C1895 0.950 . S
C1866 H1848 0.951 . S
C1866 C1867 1.366 . S
C1866 C1868 1.388 1_554 S
C1867 C1866 1.366 . S
C1867 C1871 1.385 . S
C1868 H1849 0.951 . S
C1868 C1866 1.388 1_556 S
C1868 C1869 1.366 . S
C1869 C1868 1.366 . S
C1869 C1870 1.414 . S
C1869 C1872 1.499 . S
C1870 H1850 0.950 . S
C1870 C1869 1.414 . S
C1870 C1871 1.374 1_556 S
C1871 H1851 0.950 . S
C1871 C1867 1.385 . S
C1871 C1870 1.374 1_554 S
C1872 C1869 1.499 . S
C1872 C1873 1.373 . S
C1872 C1874 1.389 . S
C1873 H1852 0.950 . S
C1873 C1872 1.373 . S
C1873 C1889 1.377 . S
C1874 C1872 1.389 . S
C1874 C1875 1.524 . S
C1874 C1888 1.377 . S
C1875 C1874 1.524 . S
C1875 C1876 1.397 . S
C1875 C1880 1.363 . S
C1876 H1853 0.950 . S
C1876 C1875 1.397 . S
C1876 C1877 1.334 . S
C1877 H1854 0.950 . S
C1877 C1876 1.334 . S
C1877 C1878 1.287 . S
C1878 C1877 1.287 . S
C1878 C1879 1.524 . S
C1878 H1897 0.913 . S
C1879 H1855 0.950 . S
C1879 C1878 1.524 . S
C1879 C1880 1.415 . S
C1880 H1856 0.950 . S
C1880 C1875 1.363 . S
C1880 C1879 1.415 . S
C1881 H1857 0.951 . S
C1881 C1882 1.366 . S
C1881 C1883 1.388 . S
C1882 C1881 1.366 . S
C1882 C1886 1.385 . S
C1883 H1858 0.951 . S
C1883 C1881 1.388 . S
C1883 C1884 1.366 . S
C1884 C1883 1.366 . S
C1884 C1885 1.414 . S
C1884 C1887 1.499 . S
C1885 H1859 0.950 . S
C1885 C1884 1.414 . S
C1885 C1886 1.374 . S
C1886 H1860 0.950 . S
C1886 C1882 1.385 . S
C1886 C1885 1.374 . S
C1887 C1884 1.499 . S
C1887 C1888 1.373 . S
C1887 C1889 1.389 . S
C1888 H1861 0.950 . S
C1888 C1874 1.377 . S
C1888 C1887 1.373 . S
C1889 C1873 1.377 . S
C1889 C1887 1.389 . S
C1889 C1890 1.524 . S
C1890 C1889 1.524 . S
C1890 C1891 1.397 . S
C1890 C1895 1.363 . S
C1891 H1862 0.950 . S
C1891 C1890 1.397 . S
C1891 C1892 1.334 . S
C1892 H1863 0.950 . S
C1892 C1891 1.334 . S
C1892 C1893 1.287 . S
C1893 C1892 1.287 . S
C1893 C1894 1.524 . S
C1893 H1896 0.999 . S
C1894 H1864 0.950 . S
C1894 C1893 1.524 . S
C1894 C1895 1.415 . S
C1895 H1865 0.950 . S
C1895 C1890 1.363 . S
C1895 C1894 1.415 . S
H1896 C1893 0.999 . S
H1897 C1878 0.913 . S
H1898 C1916 0.951 . S
H1899 C1918 0.951 . S
H1900 C1920 0.950 . S
H1901 C1921 0.950 1_455 S
H1902 C1923 0.950 . S
H1903 C1926 0.950 . S
H1904 C1927 0.950 . S
H1905 C1929 0.950 . S
H1906 C1930 0.950 . S
H1907 C1931 0.951 . S
H1908 C1933 0.951 . S
H1909 C1935 0.950 . S
H1910 C1936 0.950 . S
H1911 C1938 0.950 . S
H1912 C1941 0.950 . S
H1913 C1942 0.950 . S
H1914 C1944 0.950 . S
H1915 C1945 0.950 . S
C1916 H1898 0.951 . S
C1916 C1917 1.366 . S
C1916 C1918 1.388 . S
C1917 C1916 1.366 . S
C1917 C1921 1.385 1_554 S
C1918 H1899 0.951 . S
C1918 C1916 1.388 . S
C1918 C1919 1.366 1_554 S
C1919 C1918 1.366 1_556 S
C1919 C1920 1.414 . S
C1919 C1922 1.499 . S
C1920 H1900 0.950 . S
C1920 C1919 1.414 . S
C1920 C1921 1.374 . S
C1921 H1901 0.950 1_655 S
C1921 C1917 1.385 1_556 S
C1921 C1920 1.374 . S
C1922 C1919 1.499 . S
C1922 C1923 1.373 . S
C1922 C1924 1.389 . S
C1923 H1902 0.950 . S
C1923 C1922 1.373 . S
C1923 C1939 1.377 . S
C1924 C1922 1.389 . S
C1924 C1925 1.524 . S
C1924 C1938 1.377 . S
C1925 C1924 1.524 . S
C1925 C1926 1.397 . S
C1925 C1930 1.363 . S
C1926 H1903 0.950 . S
C1926 C1925 1.397 . S
C1926 C1927 1.334 . S
C1927 H1904 0.950 . S
C1927 C1926 1.334 . S
C1927 C1928 1.287 . S
C1928 C1927 1.287 . S
C1928 C1929 1.524 1_556 S
C1928 H1947 0.913 1_556 S
C1929 H1905 0.950 . S
C1929 C1928 1.524 1_554 S
C1929 C1930 1.415 1_554 S
C1930 H1906 0.950 . S
C1930 C1925 1.363 . S
C1930 C1929 1.415 1_556 S
C1931 H1907 0.951 . S
C1931 C1932 1.366 . S
C1931 C1933 1.388 . S
C1932 C1931 1.366 . S
C1932 C1936 1.385 . S
C1933 H1908 0.951 . S
C1933 C1931 1.388 . S
C1933 C1934 1.366 . S
C1934 C1933 1.366 . S
C1934 C1935 1.414 . S
C1934 C1937 1.499 . S
C1935 H1909 0.950 . S
C1935 C1934 1.414 . S
C1935 C1936 1.374 . S
C1936 H1910 0.950 . S
C1936 C1932 1.385 . S
C1936 C1935 1.374 . S
C1937 C1934 1.499 . S
C1937 C1938 1.373 . S
C1937 C1939 1.389 . S
C1938 H1911 0.950 . S
C1938 C1924 1.377 . S
C1938 C1937 1.373 . S
C1939 C1923 1.377 . S
C1939 C1937 1.389 . S
C1939 C1940 1.524 . S
C1940 C1939 1.524 . S
C1940 C1941 1.397 . S
C1940 C1945 1.363 . S
C1941 H1912 0.950 . S
C1941 C1940 1.397 . S
C1941 C1942 1.334 . S
C1942 H1913 0.950 . S
C1942 C1941 1.334 . S
C1942 C1943 1.287 . S
C1943 C1942 1.287 . S
C1943 C1944 1.524 . S
C1943 H1946 0.999 . S
C1944 H1914 0.950 . S
C1944 C1943 1.524 . S
C1944 C1945 1.415 . S
C1945 H1915 0.950 . S
C1945 C1940 1.363 . S
C1945 C1944 1.415 . S
H1946 C1943 0.999 . S
H1947 C1928 0.913 1_554 S
H1948 C1966 0.951 . S
H1949 C1968 0.951 . S
H1950 C1970 0.950 . S
H1951 C1971 0.950 . S
H1952 C1973 0.950 . S
H1953 C1976 0.950 . S
H1954 C1977 0.950 . S
H1955 C1979 0.950 . S
H1956 C1980 0.950 . S
H1957 C1981 0.951 . S
H1958 C1983 0.951 . S
H1959 C1985 0.950 . S
H1960 C1986 0.950 . S
H1961 C1988 0.950 . S
H1962 C1991 0.950 . S
H1963 C1992 0.950 . S
H1964 C1994 0.950 . S
H1965 C1995 0.950 . S
C1966 H1948 0.951 . S
C1966 C1967 1.366 . S
C1966 C1968 1.388 . S
C1967 C1966 1.366 . S
C1967 C1971 1.385 . S
C1968 H1949 0.951 . S
C1968 C1966 1.388 . S
C1968 C1969 1.366 . S
C1969 C1968 1.366 . S
C1969 C1970 1.414 . S
C1969 C1972 1.499 . S
C1970 H1950 0.950 . S
C1970 C1969 1.414 . S
C1970 C1971 1.374 . S
C1971 H1951 0.950 . S
C1971 C1967 1.385 . S
C1971 C1970 1.374 . S
C1972 C1969 1.499 . S
C1972 C1973 1.373 . S
C1972 C1974 1.389 . S
C1973 H1952 0.950 . S
C1973 C1972 1.373 . S
C1973 C1989 1.377 . S
C1974 C1972 1.389 . S
C1974 C1975 1.524 . S
C1974 C1988 1.377 . S
C1975 C1974 1.524 . S
C1975 C1976 1.397 . S
C1975 C1980 1.363 . S
C1976 H1953 0.950 . S
C1976 C1975 1.397 . S
C1976 C1977 1.334 . S
C1977 H1954 0.950 . S
C1977 C1976 1.334 . S
C1977 C1978 1.287 . S
C1978 C1977 1.287 . S
C1978 C1979 1.524 . S
C1978 H1997 0.913 . S
C1979 H1955 0.950 . S
C1979 C1978 1.524 . S
C1979 C1980 1.415 . S
C1980 H1956 0.950 . S
C1980 C1975 1.363 . S
C1980 C1979 1.415 . S
C1981 H1957 0.951 . S
C1981 C1982 1.366 . S
C1981 C1983 1.388 . S
C1982 C1981 1.366 . S
C1982 C1986 1.385 . S
C1983 H1958 0.951 . S
C1983 C1981 1.388 . S
C1983 C1984 1.366 . S
C1984 C1983 1.366 . S
C1984 C1985 1.414 . S
C1984 C1987 1.499 . S
C1985 H1959 0.950 . S
C1985 C1984 1.414 . S
C1985 C1986 1.374 . S
C1986 H1960 0.950 . S
C1986 C1982 1.385 . S
C1986 C1985 1.374 . S
C1987 C1984 1.499 . S
C1987 C1988 1.373 . S
C1987 C1989 1.389 . S
C1988 H1961 0.950 . S
C1988 C1974 1.377 . S
C1988 C1987 1.373 . S
C1989 C1973 1.377 . S
C1989 C1987 1.389 . S
C1989 C1990 1.524 . S
C1990 C1989 1.524 . S
C1990 C1991 1.397 . S
C1990 C1995 1.363 . S
C1991 H1962 0.950 . S
C1991 C1990 1.397 . S
C1991 C1992 1.334 . S
C1992 H1963 0.950 . S
C1992 C1991 1.334 . S
C1992 C1993 1.287 . S
C1993 C1992 1.287 . S
C1993 C1994 1.524 . S
C1993 H1996 0.999 . S
C1994 H1964 0.950 . S
C1994 C1993 1.524 . S
C1994 C1995 1.415 . S
C1995 H1965 0.950 . S
C1995 C1990 1.363 . S
C1995 C1994 1.415 . S
H1996 C1993 0.999 . S
H1997 C1978 0.913 . S
H1998 C2016 0.951 . S
H1999 C2018 0.951 . S
H2000 C2020 0.950 . S
H2001 C2021 0.950 . S
H2002 C2023 0.950 . S
H2003 C2026 0.950 . S
H2004 C2027 0.950 . S
H2005 C2029 0.950 . S
H2006 C2030 0.950 . S
H2007 C2031 0.951 . S
H2008 C2033 0.951 . S
H2009 C2035 0.950 . S
H2010 C2036 0.950 . S
H2011 C2038 0.950 . S
H2012 C2041 0.950 . S
H2013 C2042 0.950 . S
H2014 C2044 0.950 . S
H2015 C2045 0.950 . S
C2016 H1998 0.951 . S
C2016 C2017 1.366 . S
C2016 C2018 1.388 . S
C2017 C2016 1.366 . S
C2017 C2021 1.385 . S
C2018 H1999 0.951 . S
C2018 C2016 1.388 . S
C2018 C2019 1.366 . S
C2019 C2018 1.366 . S
C2019 C2020 1.414 . S
C2019 C2022 1.499 . S
C2020 H2000 0.950 . S
C2020 C2019 1.414 . S
C2020 C2021 1.374 . S
C2021 H2001 0.950 . S
C2021 C2017 1.385 . S
C2021 C2020 1.374 . S
C2022 C2019 1.499 . S
C2022 C2023 1.373 . S
C2022 C2024 1.389 . S
C2023 H2002 0.950 . S
C2023 C2022 1.373 . S
C2023 C2039 1.377 . S
C2024 C2022 1.389 . S
C2024 C2025 1.524 . S
C2024 C2038 1.377 . S
C2025 C2024 1.524 . S
C2025 C2026 1.397 . S
C2025 C2030 1.363 . S
C2026 H2003 0.950 . S
C2026 C2025 1.397 . S
C2026 C2027 1.334 . S
C2027 H2004 0.950 . S
C2027 C2026 1.334 . S
C2027 C2028 1.287 . S
C2028 C2027 1.287 . S
C2028 C2029 1.524 . S
C2028 H2047 0.913 . S
C2029 H2005 0.950 . S
C2029 C2028 1.524 . S
C2029 C2030 1.415 . S
C2030 H2006 0.950 . S
C2030 C2025 1.363 . S
C2030 C2029 1.415 . S
C2031 H2007 0.951 . S
C2031 C2032 1.366 . S
C2031 C2033 1.388 . S
C2032 C2031 1.366 . S
C2032 C2036 1.385 . S
C2033 H2008 0.951 . S
C2033 C2031 1.388 . S
C2033 C2034 1.366 . S
C2034 C2033 1.366 . S
C2034 C2035 1.414 . S
C2034 C2037 1.499 . S
C2035 H2009 0.950 . S
C2035 C2034 1.414 . S
C2035 C2036 1.374 . S
C2036 H2010 0.950 . S
C2036 C2032 1.385 . S
C2036 C2035 1.374 . S
C2037 C2034 1.499 . S
C2037 C2038 1.373 . S
C2037 C2039 1.389 . S
C2038 H2011 0.950 . S
C2038 C2024 1.377 . S
C2038 C2037 1.373 . S
C2039 C2023 1.377 . S
C2039 C2037 1.389 . S
C2039 C2040 1.524 . S
C2040 C2039 1.524 . S
C2040 C2041 1.397 . S
C2040 C2045 1.363 . S
C2041 H2012 0.950 . S
C2041 C2040 1.397 . S
C2041 C2042 1.334 . S
C2042 H2013 0.950 . S
C2042 C2041 1.334 . S
C2042 C2043 1.287 . S
C2043 C2042 1.287 . S
C2043 C2044 1.524 . S
C2043 H2046 0.999 . S
C2044 H2014 0.950 . S
C2044 C2043 1.524 . S
C2044 C2045 1.415 . S
C2045 H2015 0.950 . S
C2045 C2040 1.363 . S
C2045 C2044 1.415 . S
H2046 C2043 0.999 . S
H2047 C2028 0.913 . S
H2048 C2066 0.951 1_545 S
H2049 C2068 0.951 . S
H2050 C2070 0.950 . S
H2051 C2071 0.950 . S
H2052 C2073 0.950 . S
H2053 C2076 0.950 . S
H2054 C2077 0.954 . S
H2055 C2079 0.950 . S
H2056 C2080 0.950 . S
H2057 C2081 0.951 . S
H2058 C2083 0.951 . S
H2059 C2085 0.950 . S
H2060 C2086 0.950 . S
H2061 C2088 0.950 . S
H2062 C2091 0.950 . S
H2063 C2092 0.950 . S
H2064 C2094 0.950 . S
H2065 C2095 0.950 . S
C2066 H2048 0.951 1_565 S
C2066 C2067 1.371 . S
C2066 C2068 1.388 . S
C2067 C2066 1.371 . S
C2067 C2071 1.392 . S
C2068 H2049 0.951 . S
C2068 C2066 1.388 . S
C2068 C2069 1.366 . S
C2069 C2068 1.366 . S
C2069 C2070 1.414 . S
C2069 C2072 1.499 . S
C2070 H2050 0.950 . S
C2070 C2069 1.414 . S
C2070 C2071 1.374 . S
C2071 H2051 0.950 . S
C2071 C2067 1.392 . S
C2071 C2070 1.374 . S
C2072 C2069 1.499 . S
C2072 C2073 1.373 . S
C2072 C2074 1.389 . S
C2073 H2052 0.950 . S
C2073 C2072 1.373 . S
C2073 C2089 1.377 . S
C2074 C2072 1.389 . S
C2074 C2075 1.524 . S
C2074 C2088 1.377 . S
C2075 C2074 1.524 . S
C2075 C2076 1.397 . S
C2075 C2080 1.363 . S
C2076 H2053 0.950 . S
C2076 C2075 1.397 . S
C2076 C2077 1.334 . S
C2077 H2054 0.954 . S
C2077 C2076 1.334 . S
C2077 C2078 1.287 . S
C2078 C2077 1.287 . S
C2078 C2079 1.524 . S
C2078 H2097 0.913 1_565 S
C2079 H2055 0.950 . S
C2079 C2078 1.524 . S
C2079 C2080 1.415 . S
C2080 H2056 0.950 . S
C2080 C2075 1.363 . S
C2080 C2079 1.415 . S
C2081 H2057 0.951 . S
C2081 C2082 1.366 . S
C2081 C2083 1.388 . S
C2082 C2081 1.366 . S
C2082 C2086 1.385 . S
C2083 H2058 0.951 . S
C2083 C2081 1.388 . S
C2083 C2084 1.366 . S
C2084 C2083 1.366 . S
C2084 C2085 1.414 . S
C2084 C2087 1.499 . S
C2085 H2059 0.950 . S
C2085 C2084 1.414 . S
C2085 C2086 1.374 . S
C2086 H2060 0.950 . S
C2086 C2082 1.385 . S
C2086 C2085 1.374 . S
C2087 C2084 1.499 . S
C2087 C2088 1.373 . S
C2087 C2089 1.389 . S
C2088 H2061 0.950 . S
C2088 C2074 1.377 . S
C2088 C2087 1.373 . S
C2089 C2073 1.377 . S
C2089 C2087 1.389 . S
C2089 C2090 1.524 . S
C2090 C2089 1.524 . S
C2090 C2091 1.397 . S
C2090 C2095 1.363 . S
C2091 H2062 0.950 . S
C2091 C2090 1.397 . S
C2091 C2092 1.334 . S
C2092 H2063 0.950 . S
C2092 C2091 1.334 . S
C2092 C2093 1.287 . S
C2093 C2092 1.287 . S
C2093 C2094 1.524 . S
C2093 H2096 0.999 . S
C2094 H2064 0.950 . S
C2094 C2093 1.524 . S
C2094 C2095 1.415 . S
C2095 H2065 0.950 . S
C2095 C2090 1.363 . S
C2095 C2094 1.415 . S
H2096 C2093 0.999 . S
H2097 C2078 0.913 1_545 S
H2098 C2116 0.951 . S
H2099 C2118 0.951 . S
H2100 C2120 0.950 . S
H2101 C2121 0.950 . S
H2102 C2123 0.950 . S
H2103 C2126 0.950 . S
H2104 C2127 0.950 . S
H2105 C2129 0.950 . S
H2106 C2130 0.950 . S
H2107 C2131 0.951 . S
H2108 C2133 0.951 . S
H2109 C2135 0.950 . S
H2110 C2136 0.950 . S
H2111 C2138 0.950 . S
H2112 C2141 0.950 . S
H2113 C2142 0.950 . S
H2114 C2144 0.950 . S
H2115 C2145 0.950 . S
C2116 H2098 0.951 . S
C2116 C2117 1.366 . S
C2116 C2118 1.388 . S
C2117 C2116 1.366 . S
C2117 C2121 1.385 . S
C2118 H2099 0.951 . S
C2118 C2116 1.388 . S
C2118 C2119 1.366 . S
C2119 C2118 1.366 . S
C2119 C2120 1.414 . S
C2119 C2122 1.499 . S
C2120 H2100 0.950 . S
C2120 C2119 1.414 . S
C2120 C2121 1.374 . S
C2121 H2101 0.950 . S
C2121 C2117 1.385 . S
C2121 C2120 1.374 . S
C2122 C2119 1.499 . S
C2122 C2123 1.373 . S
C2122 C2124 1.389 . S
C2123 H2102 0.950 . S
C2123 C2122 1.373 . S
C2123 C2139 1.377 . S
C2124 C2122 1.389 . S
C2124 C2125 1.524 . S
C2124 C2138 1.377 . S
C2125 C2124 1.524 . S
C2125 C2126 1.397 . S
C2125 C2130 1.363 . S
C2126 H2103 0.950 . S
C2126 C2125 1.397 . S
C2126 C2127 1.334 . S
C2127 H2104 0.950 . S
C2127 C2126 1.334 . S
C2127 C2128 1.287 . S
C2128 C2127 1.287 . S
C2128 C2129 1.524 . S
C2128 H2147 0.913 . S
C2129 H2105 0.950 . S
C2129 C2128 1.524 . S
C2129 C2130 1.415 . S
C2130 H2106 0.950 . S
C2130 C2125 1.363 . S
C2130 C2129 1.415 . S
C2131 H2107 0.951 . S
C2131 C2132 1.366 . S
C2131 C2133 1.388 . S
C2132 C2131 1.366 . S
C2132 C2136 1.385 . S
C2133 H2108 0.951 . S
C2133 C2131 1.388 . S
C2133 C2134 1.366 . S
C2134 C2133 1.366 . S
C2134 C2135 1.414 . S
C2134 C2137 1.499 . S
C2135 H2109 0.950 . S
C2135 C2134 1.414 . S
C2135 C2136 1.374 . S
C2136 H2110 0.950 . S
C2136 C2132 1.385 . S
C2136 C2135 1.374 . S
C2137 C2134 1.499 . S
C2137 C2138 1.373 . S
C2137 C2139 1.389 . S
C2138 H2111 0.950 . S
C2138 C2124 1.377 . S
C2138 C2137 1.373 . S
C2139 C2123 1.377 . S
C2139 C2137 1.389 . S
C2139 C2140 1.524 . S
C2140 C2139 1.524 . S
C2140 C2141 1.397 . S
C2140 C2145 1.363 . S
C2141 H2112 0.950 . S
C2141 C2140 1.397 . S
C2141 C2142 1.334 . S
C2142 H2113 0.950 . S
C2142 C2141 1.334 . S
C2142 C2143 1.287 . S
C2143 C2142 1.287 . S
C2143 C2144 1.524 . S
C2143 H2146 0.999 . S
C2144 H2114 0.950 . S
C2144 C2143 1.524 . S
C2144 C2145 1.415 . S
C2145 H2115 0.950 . S
C2145 C2140 1.363 . S
C2145 C2144 1.415 . S
H2146 C2143 0.999 . S
H2147 C2128 0.913 . S
H2148 C2166 0.951 . S
H2149 C2168 0.951 . S
H2150 C2170 0.950 . S
H2151 C2171 0.950 . S
H2152 C2173 0.950 . S
H2153 C2176 0.950 . S
H2154 C2177 0.950 . S
H2155 C2179 0.950 . S
H2156 C2180 0.950 . S
H2157 C2181 0.951 . S
H2158 C2183 0.951 . S
H2159 C2185 0.950 . S
H2160 C2186 0.950 . S
H2161 C2188 0.950 . S
H2162 C2191 0.950 . S
H2163 C2192 0.950 . S
H2164 C2194 0.950 . S
H2165 C2195 0.950 . S
C2166 H2148 0.951 . S
C2166 C2167 1.366 . S
C2166 C2168 1.388 . S
C2167 C2166 1.366 . S
C2167 C2171 1.385 . S
C2168 H2149 0.951 . S
C2168 C2166 1.388 . S
C2168 C2169 1.366 . S
C2169 C2168 1.366 . S
C2169 C2170 1.414 . S
C2169 C2172 1.499 . S
C2170 H2150 0.950 . S
C2170 C2169 1.414 . S
C2170 C2171 1.374 . S
C2171 H2151 0.950 . S
C2171 C2167 1.385 . S
C2171 C2170 1.374 . S
C2172 C2169 1.499 . S
C2172 C2173 1.373 . S
C2172 C2174 1.389 . S
C2173 H2152 0.950 . S
C2173 C2172 1.373 . S
C2173 C2189 1.377 . S
C2174 C2172 1.389 . S
C2174 C2175 1.524 . S
C2174 C2188 1.377 . S
C2175 C2174 1.524 . S
C2175 C2176 1.397 . S
C2175 C2180 1.363 . S
C2176 H2153 0.950 . S
C2176 C2175 1.397 . S
C2176 C2177 1.334 . S
C2177 H2154 0.950 . S
C2177 C2176 1.334 . S
C2177 C2178 1.287 . S
C2178 C2177 1.287 . S
C2178 C2179 1.524 . S
C2178 H2197 0.913 . S
C2179 H2155 0.950 . S
C2179 C2178 1.524 . S
C2179 C2180 1.415 . S
C2180 H2156 0.950 . S
C2180 C2175 1.363 . S
C2180 C2179 1.415 . S
C2181 H2157 0.951 . S
C2181 C2182 1.366 . S
C2181 C2183 1.388 . S
C2182 C2181 1.366 . S
C2182 C2186 1.385 . S
C2183 H2158 0.951 . S
C2183 C2181 1.388 . S
C2183 C2184 1.366 . S
C2184 C2183 1.366 . S
C2184 C2185 1.414 . S
C2184 C2187 1.499 . S
C2185 H2159 0.950 . S
C2185 C2184 1.414 . S
C2185 C2186 1.374 . S
C2186 H2160 0.950 . S
C2186 C2182 1.385 . S
C2186 C2185 1.374 . S
C2187 C2184 1.499 . S
C2187 C2188 1.373 . S
C2187 C2189 1.389 . S
C2188 H2161 0.950 . S
C2188 C2174 1.377 . S
C2188 C2187 1.373 . S
C2189 C2173 1.377 . S
C2189 C2187 1.389 . S
C2189 C2190 1.524 . S
C2190 C2189 1.524 . S
C2190 C2191 1.397 . S
C2190 C2195 1.363 . S
C2191 H2162 0.950 . S
C2191 C2190 1.397 . S
C2191 C2192 1.334 . S
C2192 H2163 0.950 . S
C2192 C2191 1.334 . S
C2192 C2193 1.287 . S
C2193 C2192 1.287 . S
C2193 C2194 1.524 . S
C2193 H2196 0.999 . S
C2194 H2164 0.950 . S
C2194 C2193 1.524 . S
C2194 C2195 1.415 . S
C2195 H2165 0.950 . S
C2195 C2190 1.363 . S
C2195 C2194 1.415 . S
H2196 C2193 0.999 . S
H2197 C2178 0.913 . S
H2198 C2216 0.951 . S
H2199 C2218 0.951 . S
H2200 C2220 0.950 . S
H2201 C2221 0.950 . S
H2202 C2223 0.950 . S
H2203 C2226 0.950 . S
H2204 C2227 0.950 . S
H2205 C2229 0.950 . S
H2206 C2230 0.950 . S
H2207 C2231 0.951 . S
H2208 C2233 0.951 . S
H2209 C2235 0.950 . S
H2210 C2236 0.950 . S
H2211 C2238 0.950 . S
H2212 C2241 0.950 . S
H2213 C2242 0.950 . S
H2214 C2244 0.950 . S
H2215 C2245 0.950 . S
C2216 H2198 0.951 . S
C2216 C2217 1.366 . S
C2216 C2218 1.388 . S
C2217 C2216 1.366 . S
C2217 C2221 1.385 . S
C2218 H2199 0.951 . S
C2218 C2216 1.388 . S
C2218 C2219 1.366 . S
C2219 C2218 1.366 . S
C2219 C2220 1.414 . S
C2219 C2222 1.499 . S
C2220 H2200 0.950 . S
C2220 C2219 1.414 . S
C2220 C2221 1.374 . S
C2221 H2201 0.950 . S
C2221 C2217 1.385 . S
C2221 C2220 1.374 . S
C2222 C2219 1.499 . S
C2222 C2223 1.373 . S
C2222 C2224 1.389 . S
C2223 H2202 0.950 . S
C2223 C2222 1.373 . S
C2223 C2239 1.377 . S
C2224 C2222 1.389 . S
C2224 C2225 1.524 . S
C2224 C2238 1.377 . S
C2225 C2224 1.524 . S
C2225 C2226 1.397 . S
C2225 C2230 1.363 . S
C2226 H2203 0.950 . S
C2226 C2225 1.397 . S
C2226 C2227 1.334 . S
C2227 H2204 0.950 . S
C2227 C2226 1.334 . S
C2227 C2228 1.287 . S
C2228 C2227 1.287 . S
C2228 C2229 1.524 . S
C2228 H2247 0.913 . S
C2229 H2205 0.950 . S
C2229 C2228 1.524 . S
C2229 C2230 1.415 . S
C2230 H2206 0.950 . S
C2230 C2225 1.363 . S
C2230 C2229 1.415 . S
C2231 H2207 0.951 . S
C2231 C2232 1.366 . S
C2231 C2233 1.388 . S
C2232 C2231 1.366 . S
C2232 C2236 1.385 . S
C2233 H2208 0.951 . S
C2233 C2231 1.388 . S
C2233 C2234 1.366 . S
C2234 C2233 1.366 . S
C2234 C2235 1.414 . S
C2234 C2237 1.499 . S
C2235 H2209 0.950 . S
C2235 C2234 1.414 . S
C2235 C2236 1.374 . S
C2236 H2210 0.950 . S
C2236 C2232 1.385 . S
C2236 C2235 1.374 . S
C2237 C2234 1.499 . S
C2237 C2238 1.373 . S
C2237 C2239 1.389 . S
C2238 H2211 0.950 . S
C2238 C2224 1.377 . S
C2238 C2237 1.373 . S
C2239 C2223 1.377 . S
C2239 C2237 1.389 . S
C2239 C2240 1.524 . S
C2240 C2239 1.524 . S
C2240 C2241 1.397 . S
C2240 C2245 1.363 . S
C2241 H2212 0.950 . S
C2241 C2240 1.397 . S
C2241 C2242 1.334 . S
C2242 H2213 0.950 . S
C2242 C2241 1.334 . S
C2242 C2243 1.287 . S
C2243 C2242 1.287 . S
C2243 C2244 1.524 . S
C2243 H2246 0.999 . S
C2244 H2214 0.950 . S
C2244 C2243 1.524 . S
C2244 C2245 1.415 . S
C2245 H2215 0.950 . S
C2245 C2240 1.363 . S
C2245 C2244 1.415 . S
H2246 C2243 0.999 . S
H2247 C2228 0.913 . S
H2248 C2266 0.951 . S
H2249 C2268 0.951 . S
H2250 C2270 0.950 . S
H2251 C2271 0.950 . S
H2252 C2273 0.950 . S
H2253 C2276 0.950 . S
H2254 C2277 0.950 . S
H2255 C2279 0.950 . S
H2256 C2280 0.950 . S
H2257 C2281 0.951 . S
H2258 C2283 0.951 . S
H2259 C2285 0.950 . S
H2260 C2286 0.950 . S
H2261 C2288 0.950 . S
H2262 C2291 0.950 . S
H2263 C2292 0.950 . S
H2264 C2294 0.950 . S
H2265 C2295 0.950 . S
C2266 H2248 0.951 . S
C2266 C2267 1.366 . S
C2266 C2268 1.388 . S
C2267 C2266 1.366 . S
C2267 C2271 1.385 . S
C2268 H2249 0.951 . S
C2268 C2266 1.388 . S
C2268 C2269 1.366 . S
C2269 C2268 1.366 . S
C2269 C2270 1.414 . S
C2269 C2272 1.499 . S
C2270 H2250 0.950 . S
C2270 C2269 1.414 . S
C2270 C2271 1.374 . S
C2271 H2251 0.950 . S
C2271 C2267 1.385 . S
C2271 C2270 1.374 . S
C2272 C2269 1.499 . S
C2272 C2273 1.373 . S
C2272 C2274 1.389 . S
C2273 H2252 0.950 . S
C2273 C2272 1.373 . S
C2273 C2289 1.377 . S
C2274 C2272 1.389 . S
C2274 C2275 1.524 . S
C2274 C2288 1.377 . S
C2275 C2274 1.524 . S
C2275 C2276 1.397 . S
C2275 C2280 1.363 . S
C2276 H2253 0.950 . S
C2276 C2275 1.397 . S
C2276 C2277 1.334 . S
C2277 H2254 0.950 . S
C2277 C2276 1.334 . S
C2277 C2278 1.287 . S
C2278 C2277 1.287 . S
C2278 C2279 1.524 . S
C2278 H2297 0.913 . S
C2279 H2255 0.950 . S
C2279 C2278 1.524 . S
C2279 C2280 1.415 . S
C2280 H2256 0.950 . S
C2280 C2275 1.363 . S
C2280 C2279 1.415 . S
C2281 H2257 0.951 . S
C2281 C2282 1.366 . S
C2281 C2283 1.388 . S
C2282 C2281 1.366 . S
C2282 C2286 1.385 . S
C2283 H2258 0.951 . S
C2283 C2281 1.388 . S
C2283 C2284 1.366 . S
C2284 C2283 1.366 . S
C2284 C2285 1.414 . S
C2284 C2287 1.499 . S
C2285 H2259 0.950 . S
C2285 C2284 1.414 . S
C2285 C2286 1.374 . S
C2286 H2260 0.950 . S
C2286 C2282 1.385 . S
C2286 C2285 1.374 . S
C2287 C2284 1.499 . S
C2287 C2288 1.373 . S
C2287 C2289 1.389 . S
C2288 H2261 0.950 . S
C2288 C2274 1.377 . S
C2288 C2287 1.373 . S
C2289 C2273 1.377 . S
C2289 C2287 1.389 . S
C2289 C2290 1.524 . S
C2290 C2289 1.524 . S
C2290 C2291 1.397 . S
C2290 C2295 1.363 . S
C2291 H2262 0.950 . S
C2291 C2290 1.397 . S
C2291 C2292 1.334 . S
C2292 H2263 0.950 . S
C2292 C2291 1.334 . S
C2292 C2293 1.287 . S
C2293 C2292 1.287 . S
C2293 C2294 1.524 . S
C2293 H2296 0.999 . S
C2294 H2264 0.950 . S
C2294 C2293 1.524 . S
C2294 C2295 1.415 . S
C2295 H2265 0.950 . S
C2295 C2290 1.363 . S
C2295 C2294 1.415 . S
H2296 C2293 0.999 . S
H2297 C2278 0.913 . S
H2298 C2316 0.951 . S
H2299 C2318 0.951 . S
H2300 C2320 0.950 . S
H2301 C2321 0.950 . S
H2302 C2323 0.950 . S
H2303 C2326 0.950 . S
H2304 C2327 0.950 . S
H2305 C2329 0.950 . S
H2306 C2330 0.950 . S
H2307 C2331 0.951 . S
H2308 C2333 0.951 . S
H2309 C2335 0.950 . S
H2310 C2336 0.950 . S
H2311 C2338 0.950 . S
H2312 C2341 0.950 . S
H2313 C2342 0.950 . S
H2314 C2344 0.950 . S
H2315 C2345 0.950 . S
C2316 H2298 0.951 . S
C2316 C2317 1.366 . S
C2316 C2318 1.388 . S
C2317 C2316 1.366 . S
C2317 C2321 1.385 . S
C2318 H2299 0.951 . S
C2318 C2316 1.388 . S
C2318 C2319 1.366 . S
C2319 C2318 1.366 . S
C2319 C2320 1.414 . S
C2319 C2322 1.499 . S
C2320 H2300 0.950 . S
C2320 C2319 1.414 . S
C2320 C2321 1.374 . S
C2321 H2301 0.950 . S
C2321 C2317 1.385 . S
C2321 C2320 1.374 . S
C2322 C2319 1.499 . S
C2322 C2323 1.373 . S
C2322 C2324 1.389 . S
C2323 H2302 0.950 . S
C2323 C2322 1.373 . S
C2323 C2339 1.377 . S
C2324 C2322 1.389 . S
C2324 C2325 1.524 . S
C2324 C2338 1.377 . S
C2325 C2324 1.524 . S
C2325 C2326 1.397 . S
C2325 C2330 1.363 . S
C2326 H2303 0.950 . S
C2326 C2325 1.397 . S
C2326 C2327 1.334 . S
C2327 H2304 0.950 . S
C2327 C2326 1.334 . S
C2327 C2328 1.287 . S
C2328 C2327 1.287 . S
C2328 C2329 1.524 . S
C2328 H2347 0.913 . S
C2329 H2305 0.950 . S
C2329 C2328 1.524 . S
C2329 C2330 1.415 . S
C2330 H2306 0.950 . S
C2330 C2325 1.363 . S
C2330 C2329 1.415 . S
C2331 H2307 0.951 . S
C2331 C2332 1.366 . S
C2331 C2333 1.388 . S
C2332 C2331 1.366 . S
C2332 C2336 1.385 . S
C2333 H2308 0.951 . S
C2333 C2331 1.388 . S
C2333 C2334 1.366 . S
C2334 C2333 1.366 . S
C2334 C2335 1.414 . S
C2334 C2337 1.499 . S
C2335 H2309 0.950 . S
C2335 C2334 1.414 . S
C2335 C2336 1.374 . S
C2336 H2310 0.950 . S
C2336 C2332 1.385 . S
C2336 C2335 1.374 . S
C2337 C2334 1.499 . S
C2337 C2338 1.373 . S
C2337 C2339 1.389 . S
C2338 H2311 0.950 . S
C2338 C2324 1.377 . S
C2338 C2337 1.373 . S
C2339 C2323 1.377 . S
C2339 C2337 1.389 . S
C2339 C2340 1.524 . S
C2340 C2339 1.524 . S
C2340 C2341 1.397 . S
C2340 C2345 1.363 . S
C2341 H2312 0.950 . S
C2341 C2340 1.397 . S
C2341 C2342 1.334 . S
C2342 H2313 0.950 . S
C2342 C2341 1.334 . S
C2342 C2343 1.287 . S
C2343 C2342 1.287 . S
C2343 C2344 1.524 . S
C2343 H2346 0.999 . S
C2344 H2314 0.950 . S
C2344 C2343 1.524 . S
C2344 C2345 1.415 . S
C2345 H2315 0.950 . S
C2345 C2340 1.363 . S
C2345 C2344 1.415 . S
H2346 C2343 0.999 . S
H2347 C2328 0.913 . S
H2348 C2366 0.951 . S
H2349 C2368 0.951 . S
H2350 C2370 0.950 . S
H2351 C2371 0.950 . S
H2352 C2373 0.950 . S
H2353 C2376 0.950 . S
H2354 C2377 0.950 . S
H2355 C2379 0.950 . S
H2356 C2380 0.950 . S
H2357 C2381 0.951 . S
H2358 C2383 0.951 . S
H2359 C2385 0.950 . S
H2360 C2386 0.950 . S
H2361 C2388 0.950 . S
H2362 C2391 0.950 . S
H2363 C2392 0.950 . S
H2364 C2394 0.950 . S
H2365 C2395 0.950 . S
C2366 H2348 0.951 . S
C2366 C2367 1.366 . S
C2366 C2368 1.388 . S
C2367 C2366 1.366 . S
C2367 C2371 1.385 . S
C2368 H2349 0.951 . S
C2368 C2366 1.388 . S
C2368 C2369 1.366 . S
C2369 C2368 1.366 . S
C2369 C2370 1.414 . S
C2369 C2372 1.499 . S
C2370 H2350 0.950 . S
C2370 C2369 1.414 . S
C2370 C2371 1.374 . S
C2371 H2351 0.950 . S
C2371 C2367 1.385 . S
C2371 C2370 1.374 . S
C2372 C2369 1.499 . S
C2372 C2373 1.373 . S
C2372 C2374 1.389 . S
C2373 H2352 0.950 . S
C2373 C2372 1.373 . S
C2373 C2389 1.377 . S
C2374 C2372 1.389 . S
C2374 C2375 1.524 . S
C2374 C2388 1.377 . S
C2375 C2374 1.524 . S
C2375 C2376 1.397 . S
C2375 C2380 1.363 . S
C2376 H2353 0.950 . S
C2376 C2375 1.397 . S
C2376 C2377 1.334 . S
C2377 H2354 0.950 . S
C2377 C2376 1.334 . S
C2377 C2378 1.287 . S
C2378 C2377 1.287 . S
C2378 C2379 1.524 . S
C2378 H2397 0.913 . S
C2379 H2355 0.950 . S
C2379 C2378 1.524 . S
C2379 C2380 1.415 . S
C2380 H2356 0.950 . S
C2380 C2375 1.363 . S
C2380 C2379 1.415 . S
C2381 H2357 0.951 . S
C2381 C2382 1.366 . S
C2381 C2383 1.388 . S
C2382 C2381 1.366 . S
C2382 C2386 1.385 . S
C2383 H2358 0.951 . S
C2383 C2381 1.388 . S
C2383 C2384 1.366 . S
C2384 C2383 1.366 . S
C2384 C2385 1.414 . S
C2384 C2387 1.499 . S
C2385 H2359 0.950 . S
C2385 C2384 1.414 . S
C2385 C2386 1.374 . S
C2386 H2360 0.950 . S
C2386 C2382 1.385 . S
C2386 C2385 1.374 . S
C2387 C2384 1.499 . S
C2387 C2388 1.373 . S
C2387 C2389 1.389 . S
C2388 H2361 0.950 . S
C2388 C2374 1.377 . S
C2388 C2387 1.373 . S
C2389 C2373 1.377 . S
C2389 C2387 1.389 . S
C2389 C2390 1.524 . S
C2390 C2389 1.524 . S
C2390 C2391 1.397 . S
C2390 C2395 1.363 . S
C2391 H2362 0.950 . S
C2391 C2390 1.397 . S
C2391 C2392 1.334 . S
C2392 H2363 0.950 . S
C2392 C2391 1.334 . S
C2392 C2393 1.287 . S
C2393 C2392 1.287 . S
C2393 C2394 1.524 . S
C2393 H2396 0.999 . S
C2394 H2364 0.950 . S
C2394 C2393 1.524 . S
C2394 C2395 1.415 . S
C2395 H2365 0.950 . S
C2395 C2390 1.363 . S
C2395 C2394 1.415 . S
H2396 C2393 0.999 . S
H2397 C2378 0.913 . S
H2398 C2416 0.951 . S
H2399 C2418 0.951 . S
H2400 C2420 0.950 . S
H2401 C2421 0.950 . S
H2402 C2423 0.950 . S
H2403 C2426 0.950 . S
H2404 C2427 0.950 . S
H2405 C2429 0.950 . S
H2406 C2430 0.950 . S
H2407 C2431 0.951 . S
H2408 C2433 0.951 . S
H2409 C2435 0.950 . S
H2410 C2436 0.950 . S
H2411 C2438 0.950 . S
H2412 C2441 0.950 . S
H2413 C2442 0.950 . S
H2414 C2444 0.950 . S
H2415 C2445 0.950 . S
C2416 H2398 0.951 . S
C2416 C2417 1.366 . S
C2416 C2418 1.388 . S
C2417 C2416 1.366 . S
C2417 C2421 1.385 . S
C2418 H2399 0.951 . S
C2418 C2416 1.388 . S
C2418 C2419 1.366 . S
C2419 C2418 1.366 . S
C2419 C2420 1.414 . S
C2419 C2422 1.499 . S
C2420 H2400 0.950 . S
C2420 C2419 1.414 . S
C2420 C2421 1.374 . S
C2421 H2401 0.950 . S
C2421 C2417 1.385 . S
C2421 C2420 1.374 . S
C2422 C2419 1.499 . S
C2422 C2423 1.373 . S
C2422 C2424 1.389 . S
C2423 H2402 0.950 . S
C2423 C2422 1.373 . S
C2423 C2439 1.377 . S
C2424 C2422 1.389 . S
C2424 C2425 1.524 . S
C2424 C2438 1.377 . S
C2425 C2424 1.524 . S
C2425 C2426 1.397 . S
C2425 C2430 1.363 . S
C2426 H2403 0.950 . S
C2426 C2425 1.397 . S
C2426 C2427 1.334 . S
C2427 H2404 0.950 . S
C2427 C2426 1.334 . S
C2427 C2428 1.287 . S
C2428 C2427 1.287 . S
C2428 C2429 1.524 . S
C2428 H2447 0.913 . S
C2429 H2405 0.950 . S
C2429 C2428 1.524 . S
C2429 C2430 1.415 . S
C2430 H2406 0.950 . S
C2430 C2425 1.363 . S
C2430 C2429 1.415 . S
C2431 H2407 0.951 . S
C2431 C2432 1.366 . S
C2431 C2433 1.388 . S
C2432 C2431 1.366 . S
C2432 C2436 1.385 . S
C2433 H2408 0.951 . S
C2433 C2431 1.388 . S
C2433 C2434 1.366 . S
C2434 C2433 1.366 . S
C2434 C2435 1.414 . S
C2434 C2437 1.499 . S
C2435 H2409 0.950 . S
C2435 C2434 1.414 . S
C2435 C2436 1.374 . S
C2436 H2410 0.950 . S
C2436 C2432 1.385 . S
C2436 C2435 1.374 . S
C2437 C2434 1.499 . S
C2437 C2438 1.373 . S
C2437 C2439 1.389 . S
C2438 H2411 0.950 . S
C2438 C2424 1.377 . S
C2438 C2437 1.373 . S
C2439 C2423 1.377 . S
C2439 C2437 1.389 . S
C2439 C2440 1.524 . S
C2440 C2439 1.524 . S
C2440 C2441 1.397 . S
C2440 C2445 1.363 . S
C2441 H2412 0.950 . S
C2441 C2440 1.397 . S
C2441 C2442 1.334 . S
C2442 H2413 0.950 . S
C2442 C2441 1.334 . S
C2442 C2443 1.287 . S
C2443 C2442 1.287 . S
C2443 C2444 1.524 . S
C2443 H2446 0.999 . S
C2444 H2414 0.950 . S
C2444 C2443 1.524 . S
C2444 C2445 1.415 . S
C2445 H2415 0.950 . S
C2445 C2440 1.363 . S
C2445 C2444 1.415 . S
H2446 C2443 0.999 . S
H2447 C2428 0.913 . S
H2448 C2466 0.951 . S
H2449 C2468 0.951 . S
H2450 C2470 0.950 . S
H2451 C2471 0.950 . S
H2452 C2473 0.950 . S
H2453 C2476 0.950 . S
H2454 C2477 0.950 . S
H2455 C2479 0.950 . S
H2456 C2480 0.950 . S
H2457 C2481 0.951 . S
H2458 C2483 0.951 . S
H2459 C2485 0.950 . S
H2460 C2486 0.950 . S
H2461 C2488 0.950 . S
H2462 C2491 0.950 . S
H2463 C2492 0.950 . S
H2464 C2494 0.950 . S
H2465 C2495 0.950 . S
C2466 H2448 0.951 . S
C2466 C2467 1.366 . S
C2466 C2468 1.388 . S
C2467 C2466 1.366 . S
C2467 C2471 1.385 . S
C2468 H2449 0.951 . S
C2468 C2466 1.388 . S
C2468 C2469 1.366 . S
C2469 C2468 1.366 . S
C2469 C2470 1.414 . S
C2469 C2472 1.499 . S
C2470 H2450 0.950 . S
C2470 C2469 1.414 . S
C2470 C2471 1.374 . S
C2471 H2451 0.950 . S
C2471 C2467 1.385 . S
C2471 C2470 1.374 . S
C2472 C2469 1.499 . S
C2472 C2473 1.373 . S
C2472 C2474 1.389 . S
C2473 H2452 0.950 . S
C2473 C2472 1.373 . S
C2473 C2489 1.377 . S
C2474 C2472 1.389 . S
C2474 C2475 1.524 . S
C2474 C2488 1.377 . S
C2475 C2474 1.524 . S
C2475 C2476 1.397 . S
C2475 C2480 1.363 . S
C2476 H2453 0.950 . S
C2476 C2475 1.397 . S
C2476 C2477 1.334 . S
C2477 H2454 0.950 . S
C2477 C2476 1.334 . S
C2477 C2478 1.287 . S
C2478 C2477 1.287 . S
C2478 C2479 1.524 . S
C2478 H2497 0.913 . S
C2479 H2455 0.950 . S
C2479 C2478 1.524 . S
C2479 C2480 1.415 . S
C2480 H2456 0.950 . S
C2480 C2475 1.363 . S
C2480 C2479 1.415 . S
C2481 H2457 0.951 . S
C2481 C2482 1.366 . S
C2481 C2483 1.388 . S
C2482 C2481 1.366 . S
C2482 C2486 1.385 . S
C2483 H2458 0.951 . S
C2483 C2481 1.388 . S
C2483 C2484 1.366 . S
C2484 C2483 1.366 . S
C2484 C2485 1.414 . S
C2484 C2487 1.499 . S
C2485 H2459 0.950 . S
C2485 C2484 1.414 . S
C2485 C2486 1.374 . S
C2486 H2460 0.950 . S
C2486 C2482 1.385 . S
C2486 C2485 1.374 . S
C2487 C2484 1.499 . S
C2487 C2488 1.373 . S
C2487 C2489 1.389 . S
C2488 H2461 0.950 . S
C2488 C2474 1.377 . S
C2488 C2487 1.373 . S
C2489 C2473 1.377 . S
C2489 C2487 1.389 . S
C2489 C2490 1.524 . S
C2490 C2489 1.524 . S
C2490 C2491 1.397 . S
C2490 C2495 1.363 . S
C2491 H2462 0.950 . S
C2491 C2490 1.397 . S
C2491 C2492 1.334 . S
C2492 H2463 0.950 . S
C2492 C2491 1.334 . S
C2492 C2493 1.287 . S
C2493 C2492 1.287 . S
C2493 C2494 1.524 . S
C2493 H2496 0.999 . S
C2494 H2464 0.950 . S
C2494 C2493 1.524 . S
C2494 C2495 1.415 . S
C2495 H2465 0.950 . S
C2495 C2490 1.363 . S
C2495 C2494 1.415 . S
H2496 C2493 0.999 . S
H2497 C2478 0.913 . S
H2498 C2516 0.951 . S
H2499 C2518 0.951 . S
H2500 C2520 0.950 . S
H2501 C2521 0.950 . S
H2502 C2523 0.950 . S
H2503 C2526 0.950 . S
H2504 C2527 0.950 . S
H2505 C2529 0.950 . S
H2506 C2530 0.950 . S
H2507 C2531 0.951 . S
H2508 C2533 0.951 . S
H2509 C2535 0.950 . S
H2510 C2536 0.950 . S
H2511 C2538 0.950 . S
H2512 C2541 0.950 . S
H2513 C2542 0.950 . S
H2514 C2544 0.950 . S
H2515 C2545 0.950 . S
C2516 H2498 0.951 . S
C2516 C2517 1.366 . S
C2516 C2518 1.388 . S
C2517 C2516 1.366 . S
C2517 C2521 1.385 . S
C2518 H2499 0.951 . S
C2518 C2516 1.388 . S
C2518 C2519 1.366 . S
C2519 C2518 1.366 . S
C2519 C2520 1.414 . S
C2519 C2522 1.499 . S
C2520 H2500 0.950 . S
C2520 C2519 1.414 . S
C2520 C2521 1.374 . S
C2521 H2501 0.950 . S
C2521 C2517 1.385 . S
C2521 C2520 1.374 . S
C2522 C2519 1.499 . S
C2522 C2523 1.373 . S
C2522 C2524 1.389 . S
C2523 H2502 0.950 . S
C2523 C2522 1.373 . S
C2523 C2539 1.377 . S
C2524 C2522 1.389 . S
C2524 C2525 1.524 . S
C2524 C2538 1.377 . S
C2525 C2524 1.524 . S
C2525 C2526 1.397 . S
C2525 C2530 1.363 . S
C2526 H2503 0.950 . S
C2526 C2525 1.397 . S
C2526 C2527 1.334 . S
C2527 H2504 0.950 . S
C2527 C2526 1.334 . S
C2527 C2528 1.287 . S
C2528 C2527 1.287 . S
C2528 C2529 1.524 . S
C2528 H2547 0.913 . S
C2529 H2505 0.950 . S
C2529 C2528 1.524 . S
C2529 C2530 1.415 . S
C2530 H2506 0.950 . S
C2530 C2525 1.363 . S
C2530 C2529 1.415 . S
C2531 H2507 0.951 . S
C2531 C2532 1.366 . S
C2531 C2533 1.388 . S
C2532 C2531 1.366 . S
C2532 C2536 1.385 . S
C2533 H2508 0.951 . S
C2533 C2531 1.388 . S
C2533 C2534 1.366 . S
C2534 C2533 1.366 . S
C2534 C2535 1.414 . S
C2534 C2537 1.499 . S
C2535 H2509 0.950 . S
C2535 C2534 1.414 . S
C2535 C2536 1.374 . S
C2536 H2510 0.950 . S
C2536 C2532 1.385 . S
C2536 C2535 1.374 . S
C2537 C2534 1.499 . S
C2537 C2538 1.373 . S
C2537 C2539 1.389 . S
C2538 H2511 0.950 . S
C2538 C2524 1.377 . S
C2538 C2537 1.373 . S
C2539 C2523 1.377 . S
C2539 C2537 1.389 . S
C2539 C2540 1.524 . S
C2540 C2539 1.524 . S
C2540 C2541 1.397 . S
C2540 C2545 1.363 . S
C2541 H2512 0.950 . S
C2541 C2540 1.397 . S
C2541 C2542 1.334 . S
C2542 H2513 0.950 . S
C2542 C2541 1.334 . S
C2542 C2543 1.287 . S
C2543 C2542 1.287 . S
C2543 C2544 1.524 . S
C2543 H2546 0.999 . S
C2544 H2514 0.950 . S
C2544 C2543 1.524 . S
C2544 C2545 1.415 . S
C2545 H2515 0.950 . S
C2545 C2540 1.363 . S
C2545 C2544 1.415 . S
H2546 C2543 0.999 . S
H2547 C2528 0.913 . S
H2548 C2566 0.951 . S
H2549 C2568 0.951 . S
H2550 C2570 0.950 . S
H2551 C2571 0.950 . S
H2552 C2573 0.950 . S
H2553 C2576 0.950 . S
H2554 C2577 0.950 . S
H2555 C2579 0.950 . S
H2556 C2580 0.950 . S
H2557 C2581 0.951 . S
H2558 C2583 0.951 . S
H2559 C2585 0.950 . S
H2560 C2586 0.950 . S
H2561 C2588 0.950 . S
H2562 C2591 0.950 . S
H2563 C2592 0.950 . S
H2564 C2594 0.950 . S
H2565 C2595 0.950 . S
C2566 H2548 0.951 . S
C2566 C2567 1.366 . S
C2566 C2568 1.388 . S
C2567 C2566 1.366 . S
C2567 C2571 1.385 . S
C2568 H2549 0.951 . S
C2568 C2566 1.388 . S
C2568 C2569 1.366 . S
C2569 C2568 1.366 . S
C2569 C2570 1.414 . S
C2569 C2572 1.499 . S
C2570 H2550 0.950 . S
C2570 C2569 1.414 . S
C2570 C2571 1.374 . S
C2571 H2551 0.950 . S
C2571 C2567 1.385 . S
C2571 C2570 1.374 . S
C2572 C2569 1.499 . S
C2572 C2573 1.373 . S
C2572 C2574 1.389 . S
C2573 H2552 0.950 . S
C2573 C2572 1.373 . S
C2573 C2589 1.377 . S
C2574 C2572 1.389 . S
C2574 C2575 1.524 . S
C2574 C2588 1.377 . S
C2575 C2574 1.524 . S
C2575 C2576 1.397 . S
C2575 C2580 1.363 . S
C2576 H2553 0.950 . S
C2576 C2575 1.397 . S
C2576 C2577 1.334 . S
C2577 H2554 0.950 . S
C2577 C2576 1.334 . S
C2577 C2578 1.287 . S
C2578 C2577 1.287 . S
C2578 C2579 1.524 . S
C2578 H2597 0.913 . S
C2579 H2555 0.950 . S
C2579 C2578 1.524 . S
C2579 C2580 1.415 . S
C2580 H2556 0.950 . S
C2580 C2575 1.363 . S
C2580 C2579 1.415 . S
C2581 H2557 0.951 . S
C2581 C2582 1.366 . S
C2581 C2583 1.388 . S
C2582 C2581 1.366 . S
C2582 C2586 1.385 . S
C2583 H2558 0.951 . S
C2583 C2581 1.388 . S
C2583 C2584 1.366 . S
C2584 C2583 1.366 . S
C2584 C2585 1.414 . S
C2584 C2587 1.499 . S
C2585 H2559 0.950 . S
C2585 C2584 1.414 . S
C2585 C2586 1.374 . S
C2586 H2560 0.950 . S
C2586 C2582 1.385 . S
C2586 C2585 1.374 . S
C2587 C2584 1.499 . S
C2587 C2588 1.373 . S
C2587 C2589 1.389 . S
C2588 H2561 0.950 . S
C2588 C2574 1.377 . S
C2588 C2587 1.373 . S
C2589 C2573 1.377 . S
C2589 C2587 1.389 . S
C2589 C2590 1.524 . S
C2590 C2589 1.524 . S
C2590 C2591 1.397 . S
C2590 C2595 1.363 . S
C2591 H2562 0.950 . S
C2591 C2590 1.397 . S
C2591 C2592 1.334 . S
C2592 H2563 0.950 . S
C2592 C2591 1.334 . S
C2592 C2593 1.287 . S
C2593 C2592 1.287 . S
C2593 C2594 1.524 . S
C2593 H2596 0.999 . S
C2594 H2564 0.950 . S
C2594 C2593 1.524 . S
C2594 C2595 1.415 . S
C2595 H2565 0.950 . S
C2595 C2590 1.363 . S
C2595 C2594 1.415 . S
H2596 C2593 0.999 . S
H2597 C2578 0.913 . S
H2598 C2616 0.951 . S
H2599 C2618 0.951 . S
H2600 C2620 0.950 . S
H2601 C2621 0.950 . S
H2602 C2623 0.950 . S
H2603 C2626 0.950 . S
H2604 C2627 0.950 . S
H2605 C2629 0.950 . S
H2606 C2630 0.950 . S
H2607 C2631 0.951 . S
H2608 C2633 0.951 . S
H2609 C2635 0.950 . S
H2610 C2636 0.950 . S
H2611 C2638 0.950 . S
H2612 C2641 0.950 . S
H2613 C2642 0.950 . S
H2614 C2644 0.950 . S
H2615 C2645 0.950 . S
C2616 H2598 0.951 . S
C2616 C2617 1.366 . S
C2616 C2618 1.388 . S
C2617 C2616 1.366 . S
C2617 C2621 1.385 . S
C2618 H2599 0.951 . S
C2618 C2616 1.388 . S
C2618 C2619 1.366 . S
C2619 C2618 1.366 . S
C2619 C2620 1.414 . S
C2619 C2622 1.499 . S
C2620 H2600 0.950 . S
C2620 C2619 1.414 . S
C2620 C2621 1.374 . S
C2621 H2601 0.950 . S
C2621 C2617 1.385 . S
C2621 C2620 1.374 . S
C2622 C2619 1.499 . S
C2622 C2623 1.373 . S
C2622 C2624 1.389 . S
C2623 H2602 0.950 . S
C2623 C2622 1.373 . S
C2623 C2639 1.377 . S
C2624 C2622 1.389 . S
C2624 C2625 1.524 . S
C2624 C2638 1.377 . S
C2625 C2624 1.524 . S
C2625 C2626 1.397 . S
C2625 C2630 1.363 . S
C2626 H2603 0.950 . S
C2626 C2625 1.397 . S
C2626 C2627 1.334 . S
C2627 H2604 0.950 . S
C2627 C2626 1.334 . S
C2627 C2628 1.287 . S
C2628 C2627 1.287 . S
C2628 C2629 1.524 . S
C2628 H2647 0.913 . S
C2629 H2605 0.950 . S
C2629 C2628 1.524 . S
C2629 C2630 1.415 . S
C2630 H2606 0.950 . S
C2630 C2625 1.363 . S
C2630 C2629 1.415 . S
C2631 H2607 0.951 . S
C2631 C2632 1.366 . S
C2631 C2633 1.388 . S
C2632 C2631 1.366 . S
C2632 C2636 1.385 . S
C2633 H2608 0.951 . S
C2633 C2631 1.388 . S
C2633 C2634 1.366 . S
C2634 C2633 1.366 . S
C2634 C2635 1.414 . S
C2634 C2637 1.499 . S
C2635 H2609 0.950 . S
C2635 C2634 1.414 . S
C2635 C2636 1.374 . S
C2636 H2610 0.950 . S
C2636 C2632 1.385 . S
C2636 C2635 1.374 . S
C2637 C2634 1.499 . S
C2637 C2638 1.373 . S
C2637 C2639 1.389 . S
C2638 H2611 0.950 . S
C2638 C2624 1.377 . S
C2638 C2637 1.373 . S
C2639 C2623 1.377 . S
C2639 C2637 1.389 . S
C2639 C2640 1.524 . S
C2640 C2639 1.524 . S
C2640 C2641 1.397 . S
C2640 C2645 1.363 . S
C2641 H2612 0.950 . S
C2641 C2640 1.397 . S
C2641 C2642 1.334 . S
C2642 H2613 0.950 . S
C2642 C2641 1.334 . S
C2642 C2643 1.287 . S
C2643 C2642 1.287 . S
C2643 C2644 1.524 . S
C2643 H2646 0.999 . S
C2644 H2614 0.950 . S
C2644 C2643 1.524 . S
C2644 C2645 1.415 . S
C2645 H2615 0.950 . S
C2645 C2640 1.363 . S
C2645 C2644 1.415 . S
H2646 C2643 0.999 . S
H2647 C2628 0.913 . S
H2648 C2666 0.951 . S
H2649 C2668 0.951 . S
H2650 C2670 0.950 . S
H2651 C2671 0.950 . S
H2652 C2673 0.950 . S
H2653 C2676 0.950 . S
H2654 C2677 0.950 . S
H2655 C2679 0.950 . S
H2656 C2680 0.950 . S
H2657 C2681 0.951 . S
H2658 C2683 0.951 . S
H2659 C2685 0.950 . S
H2660 C2686 0.950 . S
H2661 C2688 0.950 . S
H2662 C2691 0.950 . S
H2663 C2692 0.950 . S
H2664 C2694 0.950 . S
H2665 C2695 0.950 . S
C2666 H2648 0.951 . S
C2666 C2667 1.366 . S
C2666 C2668 1.388 . S
C2667 C2666 1.366 . S
C2667 C2671 1.385 . S
C2668 H2649 0.951 . S
C2668 C2666 1.388 . S
C2668 C2669 1.366 . S
C2669 C2668 1.366 . S
C2669 C2670 1.414 . S
C2669 C2672 1.499 . S
C2670 H2650 0.950 . S
C2670 C2669 1.414 . S
C2670 C2671 1.374 . S
C2671 H2651 0.950 . S
C2671 C2667 1.385 . S
C2671 C2670 1.374 . S
C2672 C2669 1.499 . S
C2672 C2673 1.373 . S
C2672 C2674 1.389 . S
C2673 H2652 0.950 . S
C2673 C2672 1.373 . S
C2673 C2689 1.377 . S
C2674 C2672 1.389 . S
C2674 C2675 1.524 . S
C2674 C2688 1.377 . S
C2675 C2674 1.524 . S
C2675 C2676 1.397 . S
C2675 C2680 1.363 . S
C2676 H2653 0.950 . S
C2676 C2675 1.397 . S
C2676 C2677 1.334 . S
C2677 H2654 0.950 . S
C2677 C2676 1.334 . S
C2677 C2678 1.287 . S
C2678 C2677 1.287 . S
C2678 C2679 1.524 . S
C2678 H2697 0.913 . S
C2679 H2655 0.950 . S
C2679 C2678 1.524 . S
C2679 C2680 1.415 . S
C2680 H2656 0.950 . S
C2680 C2675 1.363 . S
C2680 C2679 1.415 . S
C2681 H2657 0.951 . S
C2681 C2682 1.366 . S
C2681 C2683 1.388 . S
C2682 C2681 1.366 . S
C2682 C2686 1.385 . S
C2683 H2658 0.951 . S
C2683 C2681 1.388 . S
C2683 C2684 1.366 . S
C2684 C2683 1.366 . S
C2684 C2685 1.414 . S
C2684 C2687 1.499 . S
C2685 H2659 0.950 . S
C2685 C2684 1.414 . S
C2685 C2686 1.374 . S
C2686 H2660 0.950 . S
C2686 C2682 1.385 . S
C2686 C2685 1.374 . S
C2687 C2684 1.499 . S
C2687 C2688 1.373 . S
C2687 C2689 1.389 . S
C2688 H2661 0.950 . S
C2688 C2674 1.377 . S
C2688 C2687 1.373 . S
C2689 C2673 1.377 . S
C2689 C2687 1.389 . S
C2689 C2690 1.524 . S
C2690 C2689 1.524 . S
C2690 C2691 1.397 . S
C2690 C2695 1.363 . S
C2691 H2662 0.950 . S
C2691 C2690 1.397 . S
C2691 C2692 1.334 . S
C2692 H2663 0.950 . S
C2692 C2691 1.334 . S
C2692 C2693 1.287 . S
C2693 C2692 1.287 . S
C2693 C2694 1.524 . S
C2693 H2696 0.999 . S
C2694 H2664 0.950 . S
C2694 C2693 1.524 . S
C2694 C2695 1.415 . S
C2695 H2665 0.950 . S
C2695 C2690 1.363 . S
C2695 C2694 1.415 . S
H2696 C2693 0.999 . S
H2697 C2678 0.913 . S
H2698 C2716 0.951 . S
H2699 C2718 0.951 . S
H2700 C2720 0.950 . S
H2701 C2721 0.950 . S
H2702 C2723 0.950 . S
H2703 C2726 0.950 . S
H2704 C2727 0.950 . S
H2705 C2729 0.950 . S
H2706 C2730 0.950 . S
H2707 C2731 0.951 . S
H2708 C2733 0.951 . S
H2709 C2735 0.950 . S
H2710 C2736 0.950 . S
H2711 C2738 0.950 . S
H2712 C2741 0.950 . S
H2713 C2742 0.950 . S
H2714 C2744 0.950 . S
H2715 C2745 0.950 . S
C2716 H2698 0.951 . S
C2716 C2717 1.366 . S
C2716 C2718 1.388 . S
C2717 C2716 1.366 . S
C2717 C2721 1.385 . S
C2718 H2699 0.951 . S
C2718 C2716 1.388 . S
C2718 C2719 1.366 . S
C2719 C2718 1.366 . S
C2719 C2720 1.414 . S
C2719 C2722 1.499 . S
C2720 H2700 0.950 . S
C2720 C2719 1.414 . S
C2720 C2721 1.374 . S
C2721 H2701 0.950 . S
C2721 C2717 1.385 . S
C2721 C2720 1.374 . S
C2722 C2719 1.499 . S
C2722 C2723 1.373 . S
C2722 C2724 1.389 . S
C2723 H2702 0.950 . S
C2723 C2722 1.373 . S
C2723 C2739 1.377 . S
C2724 C2722 1.389 . S
C2724 C2725 1.524 . S
C2724 C2738 1.377 . S
C2725 C2724 1.524 . S
C2725 C2726 1.397 . S
C2725 C2730 1.363 . S
C2726 H2703 0.950 . S
C2726 C2725 1.397 . S
C2726 C2727 1.334 . S
C2727 H2704 0.950 . S
C2727 C2726 1.334 . S
C2727 C2728 1.287 . S
C2728 C2727 1.287 . S
C2728 C2729 1.524 . S
C2728 H2747 0.913 . S
C2729 H2705 0.950 . S
C2729 C2728 1.524 . S
C2729 C2730 1.415 . S
C2730 H2706 0.950 . S
C2730 C2725 1.363 . S
C2730 C2729 1.415 . S
C2731 H2707 0.951 . S
C2731 C2732 1.366 . S
C2731 C2733 1.388 . S
C2732 C2731 1.366 . S
C2732 C2736 1.385 . S
C2733 H2708 0.951 . S
C2733 C2731 1.388 . S
C2733 C2734 1.366 . S
C2734 C2733 1.366 . S
C2734 C2735 1.414 . S
C2734 C2737 1.499 . S
C2735 H2709 0.950 . S
C2735 C2734 1.414 . S
C2735 C2736 1.374 . S
C2736 H2710 0.950 . S
C2736 C2732 1.385 . S
C2736 C2735 1.374 . S
C2737 C2734 1.499 . S
C2737 C2738 1.373 . S
C2737 C2739 1.389 . S
C2738 H2711 0.950 . S
C2738 C2724 1.377 . S
C2738 C2737 1.373 . S
C2739 C2723 1.377 . S
C2739 C2737 1.389 . S
C2739 C2740 1.524 . S
C2740 C2739 1.524 . S
C2740 C2741 1.397 . S
C2740 C2745 1.363 . S
C2741 H2712 0.950 . S
C2741 C2740 1.397 . S
C2741 C2742 1.334 . S
C2742 H2713 0.950 . S
C2742 C2741 1.334 . S
C2742 C2743 1.287 . S
C2743 C2742 1.287 . S
C2743 C2744 1.524 . S
C2743 H2746 0.999 . S
C2744 H2714 0.950 . S
C2744 C2743 1.524 . S
C2744 C2745 1.415 . S
C2745 H2715 0.950 . S
C2745 C2740 1.363 . S
C2745 C2744 1.415 . S
H2746 C2743 0.999 . S
H2747 C2728 0.913 . S
H2748 C2766 0.951 . S
H2749 C2768 0.951 . S
H2750 C2770 0.950 . S
H2751 C2771 0.950 . S
H2752 C2773 0.950 . S
H2753 C2776 0.950 . S
H2754 C2777 0.950 . S
H2755 C2779 0.950 . S
H2756 C2780 0.950 . S
H2757 C2781 0.951 . S
H2758 C2783 0.951 . S
H2759 C2785 0.950 . S
H2760 C2786 0.950 . S
H2761 C2788 0.950 . S
H2762 C2791 0.950 . S
H2763 C2792 0.950 . S
H2764 C2794 0.950 . S
H2765 C2795 0.950 . S
C2766 H2748 0.951 . S
C2766 C2767 1.366 . S
C2766 C2768 1.388 . S
C2767 C2766 1.366 . S
C2767 C2771 1.385 . S
C2768 H2749 0.951 . S
C2768 C2766 1.388 . S
C2768 C2769 1.366 . S
C2769 C2768 1.366 . S
C2769 C2770 1.414 . S
C2769 C2772 1.499 . S
C2770 H2750 0.950 . S
C2770 C2769 1.414 . S
C2770 C2771 1.374 . S
C2771 H2751 0.950 . S
C2771 C2767 1.385 . S
C2771 C2770 1.374 . S
C2772 C2769 1.499 . S
C2772 C2773 1.373 . S
C2772 C2774 1.389 . S
C2773 H2752 0.950 . S
C2773 C2772 1.373 . S
C2773 C2789 1.377 . S
C2774 C2772 1.389 . S
C2774 C2775 1.524 . S
C2774 C2788 1.377 . S
C2775 C2774 1.524 . S
C2775 C2776 1.397 . S
C2775 C2780 1.363 . S
C2776 H2753 0.950 . S
C2776 C2775 1.397 . S
C2776 C2777 1.334 . S
C2777 H2754 0.950 . S
C2777 C2776 1.334 . S
C2777 C2778 1.287 . S
C2778 C2777 1.287 . S
C2778 C2779 1.524 . S
C2778 H2797 0.913 . S
C2779 H2755 0.950 . S
C2779 C2778 1.524 . S
C2779 C2780 1.415 . S
C2780 H2756 0.950 . S
C2780 C2775 1.363 . S
C2780 C2779 1.415 . S
C2781 H2757 0.951 . S
C2781 C2782 1.366 . S
C2781 C2783 1.388 . S
C2782 C2781 1.366 . S
C2782 C2786 1.385 . S
C2783 H2758 0.951 . S
C2783 C2781 1.388 . S
C2783 C2784 1.366 . S
C2784 C2783 1.366 . S
C2784 C2785 1.414 . S
C2784 C2787 1.499 . S
C2785 H2759 0.950 . S
C2785 C2784 1.414 . S
C2785 C2786 1.374 . S
C2786 H2760 0.950 . S
C2786 C2782 1.385 . S
C2786 C2785 1.374 . S
C2787 C2784 1.499 . S
C2787 C2788 1.373 . S
C2787 C2789 1.389 . S
C2788 H2761 0.950 . S
C2788 C2774 1.377 . S
C2788 C2787 1.373 . S
C2789 C2773 1.377 . S
C2789 C2787 1.389 . S
C2789 C2790 1.524 . S
C2790 C2789 1.524 . S
C2790 C2791 1.397 . S
C2790 C2795 1.363 . S
C2791 H2762 0.950 . S
C2791 C2790 1.397 . S
C2791 C2792 1.334 . S
C2792 H2763 0.950 . S
C2792 C2791 1.334 . S
C2792 C2793 1.287 . S
C2793 C2792 1.287 . S
C2793 C2794 1.524 . S
C2793 H2796 0.999 . S
C2794 H2764 0.950 . S
C2794 C2793 1.524 . S
C2794 C2795 1.415 . S
C2795 H2765 0.950 . S
C2795 C2790 1.363 . S
C2795 C2794 1.415 . S
H2796 C2793 0.999 . S
H2797 C2778 0.913 . S
H2798 C2816 0.951 . S
H2799 C2818 0.951 . S
H2800 C2820 0.950 . S
H2801 C2821 0.950 . S
H2802 C2823 0.950 . S
H2803 C2826 0.950 . S
H2804 C2827 0.950 . S
H2805 C2829 0.950 . S
H2806 C2830 0.950 . S
H2807 C2831 0.951 . S
H2808 C2833 0.951 . S
H2809 C2835 0.950 . S
H2810 C2836 0.950 . S
H2811 C2838 0.950 . S
H2812 C2841 0.950 . S
H2813 C2842 0.950 . S
H2814 C2844 0.950 . S
H2815 C2845 0.950 . S
C2816 H2798 0.951 . S
C2816 C2817 1.366 . S
C2816 C2818 1.388 . S
C2817 C2816 1.366 . S
C2817 C2821 1.385 . S
C2818 H2799 0.951 . S
C2818 C2816 1.388 . S
C2818 C2819 1.366 . S
C2819 C2818 1.366 . S
C2819 C2820 1.414 . S
C2819 C2822 1.499 . S
C2820 H2800 0.950 . S
C2820 C2819 1.414 . S
C2820 C2821 1.374 . S
C2821 H2801 0.950 . S
C2821 C2817 1.385 . S
C2821 C2820 1.374 . S
C2822 C2819 1.499 . S
C2822 C2823 1.373 . S
C2822 C2824 1.389 . S
C2823 H2802 0.950 . S
C2823 C2822 1.373 . S
C2823 C2839 1.377 . S
C2824 C2822 1.389 . S
C2824 C2825 1.524 . S
C2824 C2838 1.377 . S
C2825 C2824 1.524 . S
C2825 C2826 1.397 . S
C2825 C2830 1.363 . S
C2826 H2803 0.950 . S
C2826 C2825 1.397 . S
C2826 C2827 1.334 . S
C2827 H2804 0.950 . S
C2827 C2826 1.334 . S
C2827 C2828 1.287 . S
C2828 C2827 1.287 . S
C2828 C2829 1.524 . S
C2828 H2847 0.913 . S
C2829 H2805 0.950 . S
C2829 C2828 1.524 . S
C2829 C2830 1.415 . S
C2830 H2806 0.950 . S
C2830 C2825 1.363 . S
C2830 C2829 1.415 . S
C2831 H2807 0.951 . S
C2831 C2832 1.366 . S
C2831 C2833 1.388 . S
C2832 C2831 1.366 . S
C2832 C2836 1.385 . S
C2833 H2808 0.951 . S
C2833 C2831 1.388 . S
C2833 C2834 1.366 . S
C2834 C2833 1.366 . S
C2834 C2835 1.414 . S
C2834 C2837 1.499 . S
C2835 H2809 0.950 . S
C2835 C2834 1.414 . S
C2835 C2836 1.374 . S
C2836 H2810 0.950 . S
C2836 C2832 1.385 . S
C2836 C2835 1.374 . S
C2837 C2834 1.499 . S
C2837 C2838 1.373 . S
C2837 C2839 1.389 . S
C2838 H2811 0.950 . S
C2838 C2824 1.377 . S
C2838 C2837 1.373 . S
C2839 C2823 1.377 . S
C2839 C2837 1.389 . S
C2839 C2840 1.524 . S
C2840 C2839 1.524 . S
C2840 C2841 1.397 . S
C2840 C2845 1.363 . S
C2841 H2812 0.950 . S
C2841 C2840 1.397 . S
C2841 C2842 1.334 . S
C2842 H2813 0.950 . S
C2842 C2841 1.334 . S
C2842 C2843 1.287 . S
C2843 C2842 1.287 . S
C2843 C2844 1.524 . S
C2843 H2846 0.999 . S
C2844 H2814 0.950 . S
C2844 C2843 1.524 . S
C2844 C2845 1.415 . S
C2845 H2815 0.950 . S
C2845 C2840 1.363 . S
C2845 C2844 1.415 . S
H2846 C2843 0.999 . S
H2847 C2828 0.913 . S
H2848 C2866 0.951 . S
H2849 C2868 0.951 . S
H2850 C2870 0.950 . S
H2851 C2871 0.950 . S
H2852 C2873 0.950 . S
H2853 C2876 0.950 . S
H2854 C2877 0.950 . S
H2855 C2879 0.950 . S
H2856 C2880 0.950 . S
H2857 C2881 0.951 . S
H2858 C2883 0.951 . S
H2859 C2885 0.950 . S
H2860 C2886 0.950 . S
H2861 C2888 0.950 . S
H2862 C2891 0.950 . S
H2863 C2892 0.950 . S
H2864 C2894 0.950 . S
H2865 C2895 0.950 . S
C2866 H2848 0.951 . S
C2866 C2867 1.366 . S
C2866 C2868 1.388 . S
C2867 C2866 1.366 . S
C2867 C2871 1.385 . S
C2868 H2849 0.951 . S
C2868 C2866 1.388 . S
C2868 C2869 1.366 . S
C2869 C2868 1.366 . S
C2869 C2870 1.414 . S
C2869 C2872 1.499 . S
C2870 H2850 0.950 . S
C2870 C2869 1.414 . S
C2870 C2871 1.374 . S
C2871 H2851 0.950 . S
C2871 C2867 1.385 . S
C2871 C2870 1.374 . S
C2872 C2869 1.499 . S
C2872 C2873 1.373 . S
C2872 C2874 1.389 . S
C2873 H2852 0.950 . S
C2873 C2872 1.373 . S
C2873 C2889 1.377 . S
C2874 C2872 1.389 . S
C2874 C2875 1.524 . S
C2874 C2888 1.377 . S
C2875 C2874 1.524 . S
C2875 C2876 1.397 . S
C2875 C2880 1.363 . S
C2876 H2853 0.950 . S
C2876 C2875 1.397 . S
C2876 C2877 1.334 . S
C2877 H2854 0.950 . S
C2877 C2876 1.334 . S
C2877 C2878 1.287 . S
C2878 C2877 1.287 . S
C2878 C2879 1.524 . S
C2878 H2897 0.913 . S
C2879 H2855 0.950 . S
C2879 C2878 1.524 . S
C2879 C2880 1.415 . S
C2880 H2856 0.950 . S
C2880 C2875 1.363 . S
C2880 C2879 1.415 . S
C2881 H2857 0.951 . S
C2881 C2882 1.366 . S
C2881 C2883 1.388 . S
C2882 C2881 1.366 . S
C2882 C2886 1.385 . S
C2883 H2858 0.951 . S
C2883 C2881 1.388 . S
C2883 C2884 1.366 . S
C2884 C2883 1.366 . S
C2884 C2885 1.414 . S
C2884 C2887 1.499 . S
C2885 H2859 0.950 . S
C2885 C2884 1.414 . S
C2885 C2886 1.374 . S
C2886 H2860 0.950 . S
C2886 C2882 1.385 . S
C2886 C2885 1.374 . S
C2887 C2884 1.499 . S
C2887 C2888 1.373 . S
C2887 C2889 1.389 . S
C2888 H2861 0.950 . S
C2888 C2874 1.377 . S
C2888 C2887 1.373 . S
C2889 C2873 1.377 . S
C2889 C2887 1.389 . S
C2889 C2890 1.524 . S
C2890 C2889 1.524 . S
C2890 C2891 1.397 . S
C2890 C2895 1.363 . S
C2891 H2862 0.950 . S
C2891 C2890 1.397 . S
C2891 C2892 1.334 . S
C2892 H2863 0.950 . S
C2892 C2891 1.334 . S
C2892 C2893 1.287 . S
C2893 C2892 1.287 . S
C2893 C2894 1.524 . S
C2893 H2896 0.999 . S
C2894 H2864 0.950 . S
C2894 C2893 1.524 . S
C2894 C2895 1.415 . S
C2895 H2865 0.950 . S
C2895 C2890 1.363 . S
C2895 C2894 1.415 . S
H2896 C2893 0.999 . S
H2897 C2878 0.913 . S
H2898 C2916 0.951 . S
H2899 C2918 0.951 . S
H2900 C2920 0.950 . S
H2901 C2921 0.950 . S
H2902 C2923 0.950 . S
H2903 C2926 0.950 . S
H2904 C2927 0.950 . S
H2905 C2929 0.950 . S
H2906 C2930 0.950 . S
H2907 C2931 0.951 . S
H2908 C2933 0.951 . S
H2909 C2935 0.950 . S
H2910 C2936 0.950 . S
H2911 C2938 0.950 . S
H2912 C2941 0.950 . S
H2913 C2942 0.950 . S
H2914 C2944 0.950 . S
H2915 C2945 0.950 . S
C2916 H2898 0.951 . S
C2916 C2917 1.366 . S
C2916 C2918 1.388 . S
C2917 C2916 1.366 . S
C2917 C2921 1.385 . S
C2918 H2899 0.951 . S
C2918 C2916 1.388 . S
C2918 C2919 1.366 . S
C2919 C2918 1.366 . S
C2919 C2920 1.414 . S
C2919 C2922 1.499 . S
C2920 H2900 0.950 . S
C2920 C2919 1.414 . S
C2920 C2921 1.374 . S
C2921 H2901 0.950 . S
C2921 C2917 1.385 . S
C2921 C2920 1.374 . S
C2922 C2919 1.499 . S
C2922 C2923 1.373 . S
C2922 C2924 1.389 . S
C2923 H2902 0.950 . S
C2923 C2922 1.373 . S
C2923 C2939 1.377 . S
C2924 C2922 1.389 . S
C2924 C2925 1.524 . S
C2924 C2938 1.377 . S
C2925 C2924 1.524 . S
C2925 C2926 1.397 . S
C2925 C2930 1.363 . S
C2926 H2903 0.950 . S
C2926 C2925 1.397 . S
C2926 C2927 1.334 . S
C2927 H2904 0.950 . S
C2927 C2926 1.334 . S
C2927 C2928 1.287 . S
C2928 C2927 1.287 . S
C2928 C2929 1.524 . S
C2928 H2947 0.913 . S
C2929 H2905 0.950 . S
C2929 C2928 1.524 . S
C2929 C2930 1.415 . S
C2930 H2906 0.950 . S
C2930 C2925 1.363 . S
C2930 C2929 1.415 . S
C2931 H2907 0.951 . S
C2931 C2932 1.366 . S
C2931 C2933 1.388 . S
C2932 C2931 1.366 . S
C2932 C2936 1.385 . S
C2933 H2908 0.951 . S
C2933 C2931 1.388 . S
C2933 C2934 1.366 . S
C2934 C2933 1.366 . S
C2934 C2935 1.414 . S
C2934 C2937 1.499 . S
C2935 H2909 0.950 . S
C2935 C2934 1.414 . S
C2935 C2936 1.374 . S
C2936 H2910 0.950 . S
C2936 C2932 1.385 . S
C2936 C2935 1.374 . S
C2937 C2934 1.499 . S
C2937 C2938 1.373 . S
C2937 C2939 1.389 . S
C2938 H2911 0.950 . S
C2938 C2924 1.377 . S
C2938 C2937 1.373 . S
C2939 C2923 1.377 . S
C2939 C2937 1.389 . S
C2939 C2940 1.524 . S
C2940 C2939 1.524 . S
C2940 C2941 1.397 . S
C2940 C2945 1.363 . S
C2941 H2912 0.950 . S
C2941 C2940 1.397 . S
C2941 C2942 1.334 . S
C2942 H2913 0.950 . S
C2942 C2941 1.334 . S
C2942 C2943 1.287 . S
C2943 C2942 1.287 . S
C2943 C2944 1.524 . S
C2943 H2946 0.999 . S
C2944 H2914 0.950 . S
C2944 C2943 1.524 . S
C2944 C2945 1.415 . S
C2945 H2915 0.950 . S
C2945 C2940 1.363 . S
C2945 C2944 1.415 . S
H2946 C2943 0.999 . S
H2947 C2928 0.913 . S
H2948 C2966 0.951 . S
H2949 C2968 0.951 . S
H2950 C2970 0.950 . S
H2951 C2971 0.950 . S
H2952 C2973 0.950 . S
H2953 C2976 0.950 . S
H2954 C2977 0.950 . S
H2955 C2979 0.950 . S
H2956 C2980 0.950 . S
H2957 C2981 0.951 . S
H2958 C2983 0.951 . S
H2959 C2985 0.950 . S
H2960 C2986 0.950 . S
H2961 C2988 0.950 . S
H2962 C2991 0.950 . S
H2963 C2992 0.950 . S
H2964 C2994 0.950 . S
H2965 C2995 0.950 . S
C2966 H2948 0.951 . S
C2966 C2967 1.366 . S
C2966 C2968 1.388 . S
C2967 C2966 1.366 . S
C2967 C2971 1.385 . S
C2968 H2949 0.951 . S
C2968 C2966 1.388 . S
C2968 C2969 1.366 . S
C2969 C2968 1.366 . S
C2969 C2970 1.414 . S
C2969 C2972 1.499 . S
C2970 H2950 0.950 . S
C2970 C2969 1.414 . S
C2970 C2971 1.374 . S
C2971 H2951 0.950 . S
C2971 C2967 1.385 . S
C2971 C2970 1.374 . S
C2972 C2969 1.499 . S
C2972 C2973 1.373 . S
C2972 C2974 1.389 . S
C2973 H2952 0.950 . S
C2973 C2972 1.373 . S
C2973 C2989 1.377 . S
C2974 C2972 1.389 . S
C2974 C2975 1.524 . S
C2974 C2988 1.377 . S
C2975 C2974 1.524 . S
C2975 C2976 1.397 . S
C2975 C2980 1.363 . S
C2976 H2953 0.950 . S
C2976 C2975 1.397 . S
C2976 C2977 1.334 . S
C2977 H2954 0.950 . S
C2977 C2976 1.334 . S
C2977 C2978 1.287 . S
C2978 C2977 1.287 . S
C2978 C2979 1.524 . S
C2978 H2997 0.913 . S
C2979 H2955 0.950 . S
C2979 C2978 1.524 . S
C2979 C2980 1.415 . S
C2980 H2956 0.950 . S
C2980 C2975 1.363 . S
C2980 C2979 1.415 . S
C2981 H2957 0.951 . S
C2981 C2982 1.366 . S
C2981 C2983 1.388 . S
C2982 C2981 1.366 . S
C2982 C2986 1.385 . S
C2983 H2958 0.951 . S
C2983 C2981 1.388 . S
C2983 C2984 1.366 . S
C2984 C2983 1.366 . S
C2984 C2985 1.414 . S
C2984 C2987 1.499 . S
C2985 H2959 0.950 . S
C2985 C2984 1.414 . S
C2985 C2986 1.374 . S
C2986 H2960 0.950 . S
C2986 C2982 1.385 . S
C2986 C2985 1.374 . S
C2987 C2984 1.499 . S
C2987 C2988 1.373 . S
C2987 C2989 1.389 . S
C2988 H2961 0.950 . S
C2988 C2974 1.377 . S
C2988 C2987 1.373 . S
C2989 C2973 1.377 . S
C2989 C2987 1.389 . S
C2989 C2990 1.524 . S
C2990 C2989 1.524 . S
C2990 C2991 1.397 . S
C2990 C2995 1.363 . S
C2991 H2962 0.950 . S
C2991 C2990 1.397 . S
C2991 C2992 1.334 . S
C2992 H2963 0.950 . S
C2992 C2991 1.334 . S
C2992 C2993 1.287 . S
C2993 C2992 1.287 . S
C2993 C2994 1.524 . S
C2993 H2996 0.999 . S
C2994 H2964 0.950 . S
C2994 C2993 1.524 . S
C2994 C2995 1.415 . S
C2995 H2965 0.950 . S
C2995 C2990 1.363 . S
C2995 C2994 1.415 . S
H2996 C2993 0.999 . S
H2997 C2978 0.913 . S
H2998 C3016 0.951 . S
H2999 C3018 0.951 . S
H3000 C3020 0.950 . S
H3001 C3021 0.950 . S
H3002 C3023 0.950 . S
H3003 C3026 0.950 . S
H3004 C3027 0.950 . S
H3005 C3029 0.950 . S
H3006 C3030 0.950 . S
H3007 C3031 0.951 . S
H3008 C3033 0.951 . S
H3009 C3035 0.950 . S
H3010 C3036 0.950 . S
H3011 C3038 0.950 . S
H3012 C3041 0.950 . S
H3013 C3042 0.950 . S
H3014 C3044 0.950 . S
H3015 C3045 0.950 . S
C3016 H2998 0.951 . S
C3016 C3017 1.366 . S
C3016 C3018 1.388 . S
C3017 C3016 1.366 . S
C3017 C3021 1.385 . S
C3018 H2999 0.951 . S
C3018 C3016 1.388 . S
C3018 C3019 1.366 . S
C3019 C3018 1.366 . S
C3019 C3020 1.414 . S
C3019 C3022 1.499 . S
C3020 H3000 0.950 . S
C3020 C3019 1.414 . S
C3020 C3021 1.374 . S
C3021 H3001 0.950 . S
C3021 C3017 1.385 . S
C3021 C3020 1.374 . S
C3022 C3019 1.499 . S
C3022 C3023 1.373 . S
C3022 C3024 1.389 . S
C3023 H3002 0.950 . S
C3023 C3022 1.373 . S
C3023 C3039 1.377 . S
C3024 C3022 1.389 . S
C3024 C3025 1.524 . S
C3024 C3038 1.377 . S
C3025 C3024 1.524 . S
C3025 C3026 1.397 . S
C3025 C3030 1.363 . S
C3026 H3003 0.950 . S
C3026 C3025 1.397 . S
C3026 C3027 1.334 . S
C3027 H3004 0.950 . S
C3027 C3026 1.334 . S
C3027 C3028 1.287 . S
C3028 C3027 1.287 . S
C3028 C3029 1.524 . S
C3028 H3047 0.913 . S
C3029 H3005 0.950 . S
C3029 C3028 1.524 . S
C3029 C3030 1.415 . S
C3030 H3006 0.950 . S
C3030 C3025 1.363 . S
C3030 C3029 1.415 . S
C3031 H3007 0.951 . S
C3031 C3032 1.366 . S
C3031 C3033 1.388 . S
C3032 C3031 1.366 . S
C3032 C3036 1.385 . S
C3033 H3008 0.951 . S
C3033 C3031 1.388 . S
C3033 C3034 1.366 . S
C3034 C3033 1.366 . S
C3034 C3035 1.414 . S
C3034 C3037 1.499 . S
C3035 H3009 0.950 . S
C3035 C3034 1.414 . S
C3035 C3036 1.374 . S
C3036 H3010 0.950 . S
C3036 C3032 1.385 . S
C3036 C3035 1.374 . S
C3037 C3034 1.499 . S
C3037 C3038 1.373 . S
C3037 C3039 1.389 . S
C3038 H3011 0.950 . S
C3038 C3024 1.377 . S
C3038 C3037 1.373 . S
C3039 C3023 1.377 . S
C3039 C3037 1.389 . S
C3039 C3040 1.524 . S
C3040 C3039 1.524 . S
C3040 C3041 1.397 . S
C3040 C3045 1.363 . S
C3041 H3012 0.950 . S
C3041 C3040 1.397 . S
C3041 C3042 1.334 . S
C3042 H3013 0.950 . S
C3042 C3041 1.334 . S
C3042 C3043 1.287 . S
C3043 C3042 1.287 . S
C3043 C3044 1.524 . S
C3043 H3046 0.999 . S
C3044 H3014 0.950 . S
C3044 C3043 1.524 . S
C3044 C3045 1.415 . S
C3045 H3015 0.950 . S
C3045 C3040 1.363 . S
C3045 C3044 1.415 . S
H3046 C3043 0.999 . S
H3047 C3028 0.913 . S
H3048 C3066 0.951 . S
H3049 C3068 0.951 . S
H3050 C3070 0.950 . S
H3051 C3071 0.950 . S
H3052 C3073 0.950 . S
H3053 C3076 0.950 . S
H3054 C3077 0.950 . S
H3055 C3079 0.950 . S
H3056 C3080 0.950 . S
H3057 C3081 0.951 . S
H3058 C3083 0.951 . S
H3059 C3085 0.950 . S
H3060 C3086 0.950 . S
H3061 C3088 0.950 . S
H3062 C3091 0.950 . S
H3063 C3092 0.950 . S
H3064 C3094 0.950 . S
H3065 C3095 0.950 . S
C3066 H3048 0.951 . S
C3066 C3067 1.366 . S
C3066 C3068 1.388 . S
C3067 C3066 1.366 . S
C3067 C3071 1.385 . S
C3068 H3049 0.951 . S
C3068 C3066 1.388 . S
C3068 C3069 1.366 . S
C3069 C3068 1.366 . S
C3069 C3070 1.414 . S
C3069 C3072 1.499 . S
C3070 H3050 0.950 . S
C3070 C3069 1.414 . S
C3070 C3071 1.374 . S
C3071 H3051 0.950 . S
C3071 C3067 1.385 . S
C3071 C3070 1.374 . S
C3072 C3069 1.499 . S
C3072 C3073 1.373 . S
C3072 C3074 1.389 . S
C3073 H3052 0.950 . S
C3073 C3072 1.373 . S
C3073 C3089 1.377 . S
C3074 C3072 1.389 . S
C3074 C3075 1.524 . S
C3074 C3088 1.377 . S
C3075 C3074 1.524 . S
C3075 C3076 1.397 . S
C3075 C3080 1.363 . S
C3076 H3053 0.950 . S
C3076 C3075 1.397 . S
C3076 C3077 1.334 . S
C3077 H3054 0.950 . S
C3077 C3076 1.334 . S
C3077 C3078 1.287 . S
C3078 C3077 1.287 . S
C3078 C3079 1.524 . S
C3078 H3097 0.913 . S
C3079 H3055 0.950 . S
C3079 C3078 1.524 . S
C3079 C3080 1.415 . S
C3080 H3056 0.950 . S
C3080 C3075 1.363 . S
C3080 C3079 1.415 . S
C3081 H3057 0.951 . S
C3081 C3082 1.366 . S
C3081 C3083 1.388 . S
C3082 C3081 1.366 . S
C3082 C3086 1.385 . S
C3083 H3058 0.951 . S
C3083 C3081 1.388 . S
C3083 C3084 1.366 . S
C3084 C3083 1.366 . S
C3084 C3085 1.414 . S
C3084 C3087 1.499 . S
C3085 H3059 0.950 . S
C3085 C3084 1.414 . S
C3085 C3086 1.374 . S
C3086 H3060 0.950 . S
C3086 C3082 1.385 . S
C3086 C3085 1.374 . S
C3087 C3084 1.499 . S
C3087 C3088 1.373 . S
C3087 C3089 1.389 . S
C3088 H3061 0.950 . S
C3088 C3074 1.377 . S
C3088 C3087 1.373 . S
C3089 C3073 1.377 . S
C3089 C3087 1.389 . S
C3089 C3090 1.524 . S
C3090 C3089 1.524 . S
C3090 C3091 1.397 . S
C3090 C3095 1.363 . S
C3091 H3062 0.950 . S
C3091 C3090 1.397 . S
C3091 C3092 1.334 . S
C3092 H3063 0.950 . S
C3092 C3091 1.334 . S
C3092 C3093 1.287 . S
C3093 C3092 1.287 . S
C3093 C3094 1.524 . S
C3093 H3096 0.999 . S
C3094 H3064 0.950 . S
C3094 C3093 1.524 . S
C3094 C3095 1.415 . S
C3095 H3065 0.950 . S
C3095 C3090 1.363 . S
C3095 C3094 1.415 . S
H3096 C3093 0.999 . S
H3097 C3078 0.913 . S
H3098 C3116 0.951 . S
H3099 C3118 0.951 . S
H3100 C3120 0.950 . S
H3101 C3121 0.950 . S
H3102 C3123 0.950 . S
H3103 C3126 0.950 . S
H3104 C3127 0.950 . S
H3105 C3129 0.950 . S
H3106 C3130 0.950 . S
H3107 C3131 0.951 . S
H3108 C3133 0.951 . S
H3109 C3135 0.950 . S
H3110 C3136 0.950 . S
H3111 C3138 0.950 . S
H3112 C3141 0.950 . S
H3113 C3142 0.950 . S
H3114 C3144 0.950 . S
H3115 C3145 0.950 . S
C3116 H3098 0.951 . S
C3116 C3117 1.366 . S
C3116 C3118 1.388 . S
C3117 C3116 1.366 . S
C3117 C3121 1.385 . S
C3118 H3099 0.951 . S
C3118 C3116 1.388 . S
C3118 C3119 1.366 . S
C3119 C3118 1.366 . S
C3119 C3120 1.414 . S
C3119 C3122 1.499 . S
C3120 H3100 0.950 . S
C3120 C3119 1.414 . S
C3120 C3121 1.374 . S
C3121 H3101 0.950 . S
C3121 C3117 1.385 . S
C3121 C3120 1.374 . S
C3122 C3119 1.499 . S
C3122 C3123 1.373 . S
C3122 C3124 1.389 . S
C3123 H3102 0.950 . S
C3123 C3122 1.373 . S
C3123 C3139 1.377 . S
C3124 C3122 1.389 . S
C3124 C3125 1.524 . S
C3124 C3138 1.377 . S
C3125 C3124 1.524 . S
C3125 C3126 1.397 . S
C3125 C3130 1.363 . S
C3126 H3103 0.950 . S
C3126 C3125 1.397 . S
C3126 C3127 1.334 . S
C3127 H3104 0.950 . S
C3127 C3126 1.334 . S
C3127 C3128 1.287 . S
C3128 C3127 1.287 . S
C3128 C3129 1.524 . S
C3128 H3147 0.913 . S
C3129 H3105 0.950 . S
C3129 C3128 1.524 . S
C3129 C3130 1.415 . S
C3130 H3106 0.950 . S
C3130 C3125 1.363 . S
C3130 C3129 1.415 . S
C3131 H3107 0.951 . S
C3131 C3132 1.366 . S
C3131 C3133 1.388 . S
C3132 C3131 1.366 . S
C3132 C3136 1.385 . S
C3133 H3108 0.951 . S
C3133 C3131 1.388 . S
C3133 C3134 1.366 . S
C3134 C3133 1.366 . S
C3134 C3135 1.414 . S
C3134 C3137 1.499 . S
C3135 H3109 0.950 . S
C3135 C3134 1.414 . S
C3135 C3136 1.374 . S
C3136 H3110 0.950 . S
C3136 C3132 1.385 . S
C3136 C3135 1.374 . S
C3137 C3134 1.499 . S
C3137 C3138 1.373 . S
C3137 C3139 1.389 . S
C3138 H3111 0.950 . S
C3138 C3124 1.377 . S
C3138 C3137 1.373 . S
C3139 C3123 1.377 . S
C3139 C3137 1.389 . S
C3139 C3140 1.524 . S
C3140 C3139 1.524 . S
C3140 C3141 1.397 . S
C3140 C3145 1.363 . S
C3141 H3112 0.950 . S
C3141 C3140 1.397 . S
C3141 C3142 1.334 . S
C3142 H3113 0.950 . S
C3142 C3141 1.334 . S
C3142 C3143 1.287 . S
C3143 C3142 1.287 . S
C3143 C3144 1.524 . S
C3143 H3146 0.999 . S
C3144 H3114 0.950 . S
C3144 C3143 1.524 . S
C3144 C3145 1.415 . S
C3145 H3115 0.950 . S
C3145 C3140 1.363 . S
C3145 C3144 1.415 . S
H3146 C3143 0.999 . S
H3147 C3128 0.913 . S
H3148 C3166 0.951 . S
H3149 C3168 0.951 . S
H3150 C3170 0.950 . S
H3151 C3171 0.950 . S
H3152 C3173 0.950 . S
H3153 C3176 0.950 . S
H3154 C3177 0.950 . S
H3155 C3179 0.950 . S
H3156 C3180 0.950 . S
H3157 C3181 0.951 . S
H3158 C3183 0.951 . S
H3159 C3185 0.950 . S
H3160 C3186 0.950 . S
H3161 C3188 0.950 . S
H3162 C3191 0.950 . S
H3163 C3192 0.950 . S
H3164 C3194 0.950 . S
H3165 C3195 0.950 . S
C3166 H3148 0.951 . S
C3166 C3167 1.366 . S
C3166 C3168 1.388 . S
C3167 C3166 1.366 . S
C3167 C3171 1.385 . S
C3168 H3149 0.951 . S
C3168 C3166 1.388 . S
C3168 C3169 1.366 . S
C3169 C3168 1.366 . S
C3169 C3170 1.414 . S
C3169 C3172 1.499 . S
C3170 H3150 0.950 . S
C3170 C3169 1.414 . S
C3170 C3171 1.374 . S
C3171 H3151 0.950 . S
C3171 C3167 1.385 . S
C3171 C3170 1.374 . S
C3172 C3169 1.499 . S
C3172 C3173 1.373 . S
C3172 C3174 1.389 . S
C3173 H3152 0.950 . S
C3173 C3172 1.373 . S
C3173 C3189 1.377 . S
C3174 C3172 1.389 . S
C3174 C3175 1.524 . S
C3174 C3188 1.377 . S
C3175 C3174 1.524 . S
C3175 C3176 1.397 . S
C3175 C3180 1.363 . S
C3176 H3153 0.950 . S
C3176 C3175 1.397 . S
C3176 C3177 1.334 . S
C3177 H3154 0.950 . S
C3177 C3176 1.334 . S
C3177 C3178 1.287 . S
C3178 C3177 1.287 . S
C3178 C3179 1.524 . S
C3178 H3197 0.913 . S
C3179 H3155 0.950 . S
C3179 C3178 1.524 . S
C3179 C3180 1.415 . S
C3180 H3156 0.950 . S
C3180 C3175 1.363 . S
C3180 C3179 1.415 . S
C3181 H3157 0.951 . S
C3181 C3182 1.366 . S
C3181 C3183 1.388 . S
C3182 C3181 1.366 . S
C3182 C3186 1.385 . S
C3183 H3158 0.951 . S
C3183 C3181 1.388 . S
C3183 C3184 1.366 . S
C3184 C3183 1.366 . S
C3184 C3185 1.414 . S
C3184 C3187 1.499 . S
C3185 H3159 0.950 . S
C3185 C3184 1.414 . S
C3185 C3186 1.374 . S
C3186 H3160 0.950 . S
C3186 C3182 1.385 . S
C3186 C3185 1.374 . S
C3187 C3184 1.499 . S
C3187 C3188 1.373 . S
C3187 C3189 1.389 . S
C3188 H3161 0.950 . S
C3188 C3174 1.377 . S
C3188 C3187 1.373 . S
C3189 C3173 1.377 . S
C3189 C3187 1.389 . S
C3189 C3190 1.524 . S
C3190 C3189 1.524 . S
C3190 C3191 1.397 . S
C3190 C3195 1.363 . S
C3191 H3162 0.950 . S
C3191 C3190 1.397 . S
C3191 C3192 1.334 . S
C3192 H3163 0.950 . S
C3192 C3191 1.334 . S
C3192 C3193 1.287 . S
C3193 C3192 1.287 . S
C3193 C3194 1.524 . S
C3193 H3196 0.999 . S
C3194 H3164 0.950 . S
C3194 C3193 1.524 . S
C3194 C3195 1.415 . S
C3195 H3165 0.950 . S
C3195 C3190 1.363 . S
C3195 C3194 1.415 . S
H3196 C3193 0.999 . S
H3197 C3178 0.913 . S
H3198 C3216 0.951 . S
H3199 C3218 0.951 . S
H3200 C3220 0.950 . S
H3201 C3221 0.950 . S
H3202 C3223 0.950 . S
H3203 C3226 0.950 . S
H3204 C3227 0.950 . S
H3205 C3229 0.950 . S
H3206 C3230 0.950 . S
H3207 C3231 0.951 . S
H3208 C3233 0.951 . S
H3209 C3235 0.950 . S
H3210 C3236 0.950 . S
H3211 C3238 0.950 . S
H3212 C3241 0.950 . S
H3213 C3242 0.950 . S
H3214 C3244 0.950 . S
H3215 C3245 0.950 . S
C3216 H3198 0.951 . S
C3216 C3217 1.366 . S
C3216 C3218 1.388 . S
C3217 C3216 1.366 . S
C3217 C3221 1.385 . S
C3218 H3199 0.951 . S
C3218 C3216 1.388 . S
C3218 C3219 1.366 . S
C3219 C3218 1.366 . S
C3219 C3220 1.414 . S
C3219 C3222 1.499 . S
C3220 H3200 0.950 . S
C3220 C3219 1.414 . S
C3220 C3221 1.374 . S
C3221 H3201 0.950 . S
C3221 C3217 1.385 . S
C3221 C3220 1.374 . S
C3222 C3219 1.499 . S
C3222 C3223 1.373 . S
C3222 C3224 1.389 . S
C3223 H3202 0.950 . S
C3223 C3222 1.373 . S
C3223 C3239 1.377 . S
C3224 C3222 1.389 . S
C3224 C3225 1.524 . S
C3224 C3238 1.377 . S
C3225 C3224 1.524 . S
C3225 C3226 1.397 . S
C3225 C3230 1.363 . S
C3226 H3203 0.950 . S
C3226 C3225 1.397 . S
C3226 C3227 1.334 . S
C3227 H3204 0.950 . S
C3227 C3226 1.334 . S
C3227 C3228 1.287 . S
C3228 C3227 1.287 . S
C3228 C3229 1.524 . S
C3228 H3247 0.913 . S
C3229 H3205 0.950 . S
C3229 C3228 1.524 . S
C3229 C3230 1.415 . S
C3230 H3206 0.950 . S
C3230 C3225 1.363 . S
C3230 C3229 1.415 . S
C3231 H3207 0.951 . S
C3231 C3232 1.366 . S
C3231 C3233 1.388 . S
C3232 C3231 1.366 . S
C3232 C3236 1.385 . S
C3233 H3208 0.951 . S
C3233 C3231 1.388 . S
C3233 C3234 1.366 . S
C3234 C3233 1.366 . S
C3234 C3235 1.414 . S
C3234 C3237 1.499 . S
C3235 H3209 0.950 . S
C3235 C3234 1.414 . S
C3235 C3236 1.374 . S
C3236 H3210 0.950 . S
C3236 C3232 1.385 . S
C3236 C3235 1.374 . S
C3237 C3234 1.499 . S
C3237 C3238 1.373 . S
C3237 C3239 1.389 . S
C3238 H3211 0.950 . S
C3238 C3224 1.377 . S
C3238 C3237 1.373 . S
C3239 C3223 1.377 . S
C3239 C3237 1.389 . S
C3239 C3240 1.524 . S
C3240 C3239 1.524 . S
C3240 C3241 1.397 . S
C3240 C3245 1.363 . S
C3241 H3212 0.950 . S
C3241 C3240 1.397 . S
C3241 C3242 1.334 . S
C3242 H3213 0.950 . S
C3242 C3241 1.334 . S
C3242 C3243 1.287 . S
C3243 C3242 1.287 . S
C3243 C3244 1.524 . S
C3243 H3246 0.999 . S
C3244 H3214 0.950 . S
C3244 C3243 1.524 . S
C3244 C3245 1.415 . S
C3245 H3215 0.950 . S
C3245 C3240 1.363 . S
C3245 C3244 1.415 . S
H3246 C3243 0.999 . S
H3247 C3228 0.913 . S
H3248 C3266 0.951 . S
H3249 C3268 0.951 . S
H3250 C3270 0.950 . S
H3251 C3271 0.950 . S
H3252 C3273 0.950 . S
H3253 C3276 0.950 . S
H3254 C3277 0.950 . S
H3255 C3279 0.950 . S
H3256 C3280 0.950 . S
H3257 C3281 0.951 . S
H3258 C3283 0.951 . S
H3259 C3285 0.950 . S
H3260 C3286 0.950 . S
H3261 C3288 0.950 . S
H3262 C3291 0.950 . S
H3263 C3292 0.950 . S
H3264 C3294 0.950 . S
H3265 C3295 0.950 . S
C3266 H3248 0.951 . S
C3266 C3267 1.366 . S
C3266 C3268 1.388 . S
C3267 C3266 1.366 . S
C3267 C3271 1.385 . S
C3268 H3249 0.951 . S
C3268 C3266 1.388 . S
C3268 C3269 1.366 . S
C3269 C3268 1.366 . S
C3269 C3270 1.414 . S
C3269 C3272 1.499 . S
C3270 H3250 0.950 . S
C3270 C3269 1.414 . S
C3270 C3271 1.374 . S
C3271 H3251 0.950 . S
C3271 C3267 1.385 . S
C3271 C3270 1.374 . S
C3272 C3269 1.499 . S
C3272 C3273 1.373 . S
C3272 C3274 1.389 . S
C3273 H3252 0.950 . S
C3273 C3272 1.373 . S
C3273 C3289 1.377 . S
C3274 C3272 1.389 . S
C3274 C3275 1.524 . S
C3274 C3288 1.377 . S
C3275 C3274 1.524 . S
C3275 C3276 1.397 . S
C3275 C3280 1.363 . S
C3276 H3253 0.950 . S
C3276 C3275 1.397 . S
C3276 C3277 1.334 . S
C3277 H3254 0.950 . S
C3277 C3276 1.334 . S
C3277 C3278 1.287 . S
C3278 C3277 1.287 . S
C3278 C3279 1.524 . S
C3278 H3297 0.913 . S
C3279 H3255 0.950 . S
C3279 C3278 1.524 . S
C3279 C3280 1.415 . S
C3280 H3256 0.950 . S
C3280 C3275 1.363 . S
C3280 C3279 1.415 . S
C3281 H3257 0.951 . S
C3281 C3282 1.366 . S
C3281 C3283 1.388 . S
C3282 C3281 1.366 . S
C3282 C3286 1.385 . S
C3283 H3258 0.951 . S
C3283 C3281 1.388 . S
C3283 C3284 1.366 . S
C3284 C3283 1.366 . S
C3284 C3285 1.414 . S
C3284 C3287 1.499 . S
C3285 H3259 0.950 . S
C3285 C3284 1.414 . S
C3285 C3286 1.374 . S
C3286 H3260 0.950 . S
C3286 C3282 1.385 . S
C3286 C3285 1.374 . S
C3287 C3284 1.499 . S
C3287 C3288 1.373 . S
C3287 C3289 1.389 . S
C3288 H3261 0.950 . S
C3288 C3274 1.377 . S
C3288 C3287 1.373 . S
C3289 C3273 1.377 . S
C3289 C3287 1.389 . S
C3289 C3290 1.524 . S
C3290 C3289 1.524 . S
C3290 C3291 1.397 . S
C3290 C3295 1.363 . S
C3291 H3262 0.950 . S
C3291 C3290 1.397 . S
C3291 C3292 1.334 . S
C3292 H3263 0.950 . S
C3292 C3291 1.334 . S
C3292 C3293 1.287 . S
C3293 C3292 1.287 . S
C3293 C3294 1.524 . S
C3293 H3296 0.999 . S
C3294 H3264 0.950 . S
C3294 C3293 1.524 . S
C3294 C3295 1.415 . S
C3295 H3265 0.950 . S
C3295 C3290 1.363 . S
C3295 C3294 1.415 . S
H3296 C3293 0.999 . S
H3297 C3278 0.913 . S
H3298 C3316 0.951 . S
H3299 C3318 0.951 . S
H3300 C3320 0.950 . S
H3301 C3321 0.950 . S
H3302 C3323 0.950 . S
H3303 C3326 0.950 . S
H3304 C3327 0.950 . S
H3305 C3329 0.950 . S
H3306 C3330 0.950 . S
H3307 C3331 0.951 . S
H3308 C3333 0.951 . S
H3309 C3335 0.950 . S
H3310 C3336 0.950 . S
H3311 C3338 0.950 . S
H3312 C3341 0.950 . S
H3313 C3342 0.950 . S
H3314 C3344 0.950 . S
H3315 C3345 0.950 . S
C3316 H3298 0.951 . S
C3316 C3317 1.366 . S
C3316 C3318 1.388 . S
C3317 C3316 1.366 . S
C3317 C3321 1.385 . S
C3318 H3299 0.951 . S
C3318 C3316 1.388 . S
C3318 C3319 1.366 . S
C3319 C3318 1.366 . S
C3319 C3320 1.414 . S
C3319 C3322 1.499 . S
C3320 H3300 0.950 . S
C3320 C3319 1.414 . S
C3320 C3321 1.374 . S
C3321 H3301 0.950 . S
C3321 C3317 1.385 . S
C3321 C3320 1.374 . S
C3322 C3319 1.499 . S
C3322 C3323 1.373 . S
C3322 C3324 1.389 . S
C3323 H3302 0.950 . S
C3323 C3322 1.373 . S
C3323 C3339 1.377 . S
C3324 C3322 1.389 . S
C3324 C3325 1.524 . S
C3324 C3338 1.377 . S
C3325 C3324 1.524 . S
C3325 C3326 1.397 . S
C3325 C3330 1.363 . S
C3326 H3303 0.950 . S
C3326 C3325 1.397 . S
C3326 C3327 1.334 . S
C3327 H3304 0.950 . S
C3327 C3326 1.334 . S
C3327 C3328 1.287 . S
C3328 C3327 1.287 . S
C3328 C3329 1.524 . S
C3328 H3347 0.913 . S
C3329 H3305 0.950 . S
C3329 C3328 1.524 . S
C3329 C3330 1.415 . S
C3330 H3306 0.950 . S
C3330 C3325 1.363 . S
C3330 C3329 1.415 . S
C3331 H3307 0.951 . S
C3331 C3332 1.366 . S
C3331 C3333 1.388 . S
C3332 C3331 1.366 . S
C3332 C3336 1.385 . S
C3333 H3308 0.951 . S
C3333 C3331 1.388 . S
C3333 C3334 1.366 . S
C3334 C3333 1.366 . S
C3334 C3335 1.414 . S
C3334 C3337 1.499 . S
C3335 H3309 0.950 . S
C3335 C3334 1.414 . S
C3335 C3336 1.374 . S
C3336 H3310 0.950 . S
C3336 C3332 1.385 . S
C3336 C3335 1.374 . S
C3337 C3334 1.499 . S
C3337 C3338 1.373 . S
C3337 C3339 1.389 . S
C3338 H3311 0.950 . S
C3338 C3324 1.377 . S
C3338 C3337 1.373 . S
C3339 C3323 1.377 . S
C3339 C3337 1.389 . S
C3339 C3340 1.524 . S
C3340 C3339 1.524 . S
C3340 C3341 1.397 . S
C3340 C3345 1.363 . S
C3341 H3312 0.950 . S
C3341 C3340 1.397 . S
C3341 C3342 1.334 . S
C3342 H3313 0.950 . S
C3342 C3341 1.334 . S
C3342 C3343 1.287 . S
C3343 C3342 1.287 . S
C3343 C3344 1.524 . S
C3343 H3346 0.999 . S
C3344 H3314 0.950 . S
C3344 C3343 1.524 . S
C3344 C3345 1.415 . S
C3345 H3315 0.950 . S
C3345 C3340 1.363 . S
C3345 C3344 1.415 . S
H3346 C3343 0.999 . S
H3347 C3328 0.913 . S
C982 C334 1.274 . S
C967 N2 1.411 . S
C1032 C434 2.259 . S
C1017 C7 2.268 . S
C1082 C514 1.216 . S
C1067 N12 1.381 . S
C1117 C16 2.019 . S
C1132 C591 2.043 . S
C1182 C675 2.281 . S
C1167 C30 2.293 1_565 S
C1232 C754 1.103 . S
C1217 N35 1.270 . S
C1267 C39 2.100 . S
C1282 C854 2.086 . S
C1332 C934 1.203 . S
C1317 N25 1.276 . S
C1382 C332 0.998 . S
C1367 N58 1.009 . S
C1417 N81 1.792 . S
C1432 C427 1.795 . S
C1482 C518 1.058 . S
C1467 N104 1.023 . S
C1517 N127 1.077 . S
C1532 C586 0.928 . S
C1582 C670 0.730 . S
C1567 N48 0.683 1_565 S
C1632 C752 1.465 . S
C1617 N71 1.442 1_556 S
C1667 N94 1.222 . S
C1682 C847 1.226 . S
C1732 C938 1.558 . S
C1717 N117 1.534 . S
C1767 C85 2.070 . S
C1782 C339 2.076 . S
C1817 C122 2.309 . S
C1832 C668 2.266 . S
C1867 C53 1.626 . S
C1882 C759 1.652 . S
C1932 C850 1.223 . S
C1917 C76 1.454 1_655 S
C1982 C931 1.594 . S
C1967 C99 1.666 . S
C2032 C511 1.892 . S
C2017 C131 1.919 . S
C2082 C584 1.693 . S
C2067 C62 1.719 1_565 S
C2117 C108 1.021 . S
C2132 C430 0.899 . S
C2182 C922 1.294 . S
C2167 N140 1.459 . S
C2217 C145 2.261 . S
C2232 C686 2.252 . S
C2282 C766 1.156 . S
C2267 N150 1.291 . S
C2317 C154 2.020 . S
C2332 C843 2.044 . S
C2382 C423 2.277 . S
C2367 C168 2.290 . S
C2417 N173 1.179 . S
C2432 C502 1.048 . S
C2482 C602 2.088 . S
C2467 C177 2.102 . S
C2532 C346 1.221 . S
C2517 N163 1.312 . S
C2582 C920 1.423 . S
C2567 C200 1.462 . S
C2632 C679 2.101 . S
C2617 N219 2.098 . S
C2667 N242 1.274 . S
C2682 C770 1.339 . S
C2732 C838 1.154 . S
C2717 C269 1.399 . S
C2782 C418 0.855 . S
C2767 C191 0.968 . S
C2817 N209 1.709 . S
C2832 C500 1.732 . S
C2867 N232 1.538 . S
C2882 C595 1.549 . S
C2917 C260 2.041 . S
C2932 C350 2.030 . S
C2967 C223 1.756 . S
C2982 C927 1.762 . S
C3017 N255 1.878 . S
C3032 C416 1.875 . S
C3067 N186 1.191 . S
C3082 C507 1.236 . S
C3132 C598 0.972 . S
C3117 C214 1.126 . S
C3182 C343 1.287 . S
C3167 C237 1.340 . S
C3232 C763 1.475 . S
C3217 N265 1.446 . S
C3282 C836 1.317 . S
C3267 N196 1.317 . S
C3332 C682 0.725 . S
C3317 C246 0.697 . S
