# Generated by pormake.
# Topology nia, (6,6)-cn, num edge types: 1
# Building blocks:
#     Node 0, Type 0, BuildingBlock: BETFAJ_clean_sbu_0, # of connection points: 6
#     Node 1, Type 0, BuildingBlock: BETFAJ_clean_sbu_0, # of connection points: 6
#     Node 2, Type 1, BuildingBlock: MIDCAF_clean_sbu_0, # of connection points: 6
#     Node 3, Type 1, BuildingBlock: MIDCAF_clean_sbu_0, # of connection points: 6
#     Edge 4, Type (0, 1), BuildingBlock: AJUNOK_clean_linker_0, # of connection points: 2
#     Edge 5, Type (0, 1), BuildingBlock: AJUNOK_clean_linker_0, # of connection points: 2
#     Edge 6, Type (0, 1), BuildingBlock: AJUNOK_clean_linker_0, # of connection points: 2
#     Edge 7, Type (0, 1), BuildingBlock: AJUNOK_clean_linker_0, # of connection points: 2
#     Edge 8, Type (0, 1), BuildingBlock: AJUNOK_clean_linker_0, # of connection points: 2
#     Edge 9, Type (0, 1), BuildingBlock: AJUNOK_clean_linker_0, # of connection points: 2
#     Edge 10, Type (0, 1), BuildingBlock: AJUNOK_clean_linker_0, # of connection points: 2
#     Edge 11, Type (0, 1), BuildingBlock: AJUNOK_clean_linker_0, # of connection points: 2
#     Edge 12, Type (0, 1), BuildingBlock: AJUNOK_clean_linker_0, # of connection points: 2
#     Edge 13, Type (0, 1), BuildingBlock: AJUNOK_clean_linker_0, # of connection points: 2
#     Edge 14, Type (0, 1), BuildingBlock: AJUNOK_clean_linker_0, # of connection points: 2
#     Edge 15, Type (0, 1), BuildingBlock: AJUNOK_clean_linker_0, # of connection points: 2
# Relax obj value: 0.381
# Max RMSD: 0.283
# Mean RMSD: 0.266
data_MOF--net-nia--node1-BETFAJ_clean_sbu_0--node2-MIDCAF_clean_sbu_0--edge1-AJUNOK_clean_linker_0
_symmetry_space_group_name_H-M    P1
_symmetry_Int_Tables_number       1
_symmetry_cell_setting            triclinic
loop_
_symmetry_equiv_pos_as_xyz
'x, y, z'
_cell_length_a     19.296064
_cell_length_b     22.574976
_cell_length_c     26.744022
_cell_angle_alpha  62.213639
_cell_angle_beta   106.43498
_cell_angle_gamma 129.10708
loop_
_atom_site_label
_atom_site_type_symbol
_atom_site_fract_x
_atom_site_fract_y
_atom_site_fract_z
_atom_type_partial_charge
Sm0 Sm 0.09396 0.06078 0.06214 0.0
Sm1 Sm 0.99632 0.93157 1.02412 0.0
C2 C 0.19042 0.19721 0.08176 0.0
C3 C 0.17394 0.23144 0.10842 0.0
C4 C 0.18886 0.30854 0.07701 0.0
C5 C 0.18077 0.34516 0.10282 0.0
C6 C 0.1582 0.30538 0.16055 0.0
C7 C 0.13962 0.2267 0.19151 0.0
C8 C 0.14671 0.18958 0.16553 0.0
C9 C 0.93584 0.92845 0.12591 0.0
C10 C 0.94671 0.05939 0.96801 0.0
C11 C 0.89991 0.79583 1.00357 0.0
C12 C 0.91611 0.76228 0.97605 0.0
C13 C 0.90157 0.68528 1.00686 0.0
C14 C 0.90924 0.6492 0.98032 0.0
C15 C 0.93098 0.68938 0.92242 0.0
C16 C 0.94907 0.76792 0.89199 0.0
C17 C 0.94246 0.80455 0.91872 0.0
C18 C 0.15377 0.0634 0.96001 0.0
C19 C 0.14359 0.93299 0.11854 0.0
O20 O 0.15241 0.19392 0.03324 0.0
O21 O 0.18827 0.13161 0.11518 0.0
O22 O 0.94453 0.95521 0.07339 0.0
O23 O 1.01188 0.9732 0.14654 0.0
O24 O 0.02979 0.10952 0.98104 0.0
O25 O 0.91025 0.97976 0.98943 0.0
O26 O 0.93831 0.79867 0.05208 0.0
O27 O 0.90171 0.86137 0.97076 0.0
O28 O 0.14611 0.03713 1.01268 0.0
O29 O 0.07684 0.01976 0.93968 0.0
O30 O 0.06077 0.88284 0.1051 0.0
O31 O 0.17982 0.01252 0.09745 0.0
H32 H 0.20974 0.34174 0.033 0.0
H33 H 0.19741 0.40682 0.07842 0.0
H34 H 0.12286 0.19547 0.23617 0.0
H35 H 0.13372 0.12945 0.19071 0.0
H36 H 0.88134 0.65175 0.05102 0.0
H37 H 0.89304 0.58766 1.00435 0.0
H38 H 0.96527 0.7995 0.84722 0.0
H39 H 0.95516 0.86463 0.89397 0.0
Sm40 Sm 0.9933 0.01929 0.54679 0.0
Sm41 Sm 0.09871 0.9739 0.53515 0.0
C42 C 0.93015 0.0879 0.55872 0.0
C43 C 0.91488 0.10352 0.60114 0.0
C44 C 0.82692 0.06528 0.61492 0.0
C45 C 0.8101 0.08687 0.64894 0.0
C46 C 0.88096 0.14741 0.6699 0.0
C47 C 0.96915 0.18326 0.65812 0.0
C48 C 0.98603 0.16147 0.62412 0.0
C49 C 0.92117 0.85279 0.60729 0.0
C50 C 0.93283 0.95361 0.44888 0.0
C51 C 0.16344 0.90637 0.52367 0.0
C52 C 0.17803 0.88955 0.48187 0.0
C53 C 0.26543 0.92256 0.47122 0.0
C54 C 0.28091 0.89901 0.43805 0.0
C55 C 0.20916 0.84134 0.41527 0.0
C56 C 0.12194 0.81188 0.42312 0.0
C57 C 0.10641 0.83576 0.45619 0.0
C58 C 0.17061 0.14026 0.47521 0.0
C59 C 0.16022 0.03988 0.63262 0.0
O60 O 0.88026 0.0115 0.56271 0.0
O61 O 1.01238 0.1292 0.54297 0.0
O62 O 1.00328 0.91138 0.60515 0.0
O63 O 0.87519 0.88151 0.57845 0.0
O64 O 0.93885 0.00653 0.46156 0.0
O65 O 0.98025 0.92453 0.47639 0.0
O66 O 0.21232 -0.01662 0.51812 0.0
O67 O 0.08152 0.86421 0.54042 0.0
O68 O 0.0886 0.08167 0.4769 0.0
O69 O 0.21661 0.11163 0.50425 0.0
O70 O 0.15276 -0.01394 0.62025 0.0
O71 O 0.11267 0.0689 0.60534 0.0
H72 H 0.77086 0.02114 0.59731 0.0
H73 H 0.74148 0.05973 0.65592 0.0
H74 H 0.02501 0.23042 0.67348 0.0
H75 H 0.05466 0.19228 0.6142 0.0
H76 H 0.3217 0.96393 0.49063 0.0
H77 H 0.3487 0.92207 0.43311 0.0
H78 H 0.06557 0.76787 0.40556 0.0
H79 H 0.03826 0.80973 0.46329 0.0
Zn80 Zn 0.41222 0.73784 0.1811 0.0
Zn81 Zn 0.42542 0.6371 0.39531 0.0
Zn82 Zn 0.4222 0.68757 0.28681 0.0
C83 C 0.60277 0.7622 0.35453 0.0
C84 C 0.34183 0.49495 0.38023 0.0
O85 O 0.35606 0.75411 0.25095 0.0
O86 O 0.38938 0.82054 0.15971 0.0
C87 C 0.58551 0.78166 0.20264 0.0
O88 O 0.56585 0.75739 0.30689 0.0
O89 O 0.55601 0.71793 0.39906 0.0
O90 O 0.37767 0.52069 0.41981 0.0
O91 O 0.34803 0.5465 0.32898 0.0
O92 O 0.52975 0.77457 0.16322 0.0
O93 O 0.56185 0.76105 0.25211 0.0
O94 O 0.33858 0.57579 0.27005 0.0
O95 O 0.30728 0.627 0.18092 0.0
C96 C 0.29458 0.56537 0.22514 0.0
O97 O 0.36073 0.72738 0.31022 0.0
O98 O 0.34626 0.66027 0.40305 0.0
C99 C 0.35433 0.80489 0.20151 0.0
C100 C 0.33234 0.706 0.35811 0.0
Zn101 Zn 0.67776 0.25702 0.90344 0.0
Zn102 Zn 0.67203 0.35646 0.6899 0.0
Zn103 Zn 0.66861 0.30485 0.7977 0.0
C104 C 0.75055 0.49801 0.70344 0.0
C105 C 0.49269 0.23099 0.72772 0.0
O106 O 0.73533 0.23897 0.83501 0.0
O107 O 0.70283 0.17546 0.92629 0.0
C108 C 0.79483 0.42911 0.8586 0.0
O109 O 0.74253 0.4462 0.75493 0.0
O110 O 0.71755 0.47263 0.6637 0.0
O111 O 0.54234 0.2742 0.68471 0.0
O112 O 0.52614 0.23633 0.77579 0.0
O113 O 0.78139 0.36803 0.90353 0.0
O114 O 0.75181 0.41774 0.81364 0.0
O115 O 0.52733 0.22926 0.83189 0.0
O116 O 0.55884 0.2187 0.92036 0.0
C117 C 0.50265 0.20838 0.88119 0.0
O118 O 0.72963 0.26289 0.7755 0.0
O119 O 0.75207 0.33373 0.68323 0.0
C120 C 0.73783 0.18976 0.88507 0.0
C121 C 0.76047 0.28433 0.72844 0.0
C122 C 0.16326 0.82011 0.18418 0.0
C123 C 0.20077 0.90343 0.14748 0.0
C124 C 0.21542 0.78968 0.20613 0.0
C125 C 0.3063 0.84109 0.19099 0.0
H126 H 0.09262 0.7776 0.19472 0.0
H127 H 0.18314 0.72444 0.23214 0.0
S128 S 0.43809 0.06442 0.09912 0.0
N129 N 0.33659 0.03767 0.10016 0.0
N130 N 0.43258 0.97964 0.13978 0.0
C131 C 0.34524 0.92491 0.15636 0.0
C132 C 0.29305 0.95631 0.13505 0.0
C133 C 0.28817 0.05078 0.69558 0.0
C134 C 0.23246 0.07718 0.67087 0.0
C135 C 0.36944 0.09719 0.71983 0.0
C136 C 0.39732 0.17088 0.72101 0.0
H137 H 0.27218 -0.003 0.6928 0.0
H138 H 0.41371 0.07846 0.7341 0.0
S139 S 0.27078 0.26026 0.67141 0.0
N140 N 0.20649 0.17676 0.65638 0.0
N141 N 0.36009 0.26381 0.70168 0.0
C142 C 0.33941 0.19433 0.7012 0.0
C143 C 0.25641 0.14718 0.67647 0.0
C144 C 0.23435 0.36825 0.23191 0.0
C145 C 0.16999 0.35284 0.1895 0.0
C146 C 0.26907 0.43332 0.24751 0.0
C147 C 0.23969 0.48409 0.2215 0.0
H148 H 0.26423 0.33517 0.2492 0.0
H149 H 0.32468 0.44834 0.2762 0.0
S150 S 0.05678 0.45562 0.11865 0.0
N151 N 0.06701 0.38328 0.12926 0.0
N152 N 0.13164 0.50549 0.15918 0.0
C153 C 0.16814 0.46308 0.18398 0.0
C154 C 0.1332 0.39718 0.16788 0.0
C155 C 0.90378 0.26752 0.67263 0.0
C156 C 0.86234 0.18181 0.69588 0.0
C157 C 0.87407 0.30073 0.68668 0.0
C158 C 0.80247 0.24975 0.72495 0.0
H159 H 0.9555 0.30875 0.64035 0.0
H160 H 0.90459 0.36651 0.66524 0.0
S161 S 0.67855 0.02264 0.80291 0.0
N162 N 0.7523 0.04759 0.76362 0.0
N163 N 0.69515 0.11013 0.78914 0.0
C164 C 0.76455 0.16477 0.75161 0.0
C165 C 0.79475 0.13077 0.7372 0.0
C166 C 0.83928 0.89709 0.19513 0.0
C167 C 0.84767 0.88165 0.15243 0.0
C168 C 0.75448 0.86201 0.21362 0.0
C169 C 0.67526 0.81041 0.18997 0.0
H170 H 0.89852 0.93947 0.21253 0.0
H171 H 0.75124 0.87857 0.24447 0.0
S172 S 0.66114 0.74083 0.08348 0.0
N173 N 0.76931 0.80436 0.09188 0.0
N174 N 0.61156 0.73854 0.1262 0.0
C175 C 0.68335 0.79099 0.14975 0.0
C176 C 0.76896 0.82649 0.13113 0.0
C177 C 0.78852 0.70575 0.62991 0.0
C178 C 0.87966 0.76237 0.63817 0.0
C179 C 0.74685 0.62022 0.65411 0.0
C180 C 0.79374 0.58685 0.68852 0.0
H181 H 0.74917 0.72768 0.6029 0.0
H182 H 0.67751 0.57972 0.64442 0.0
S183 S 0.03229 0.70682 0.7264 0.0
N184 N 0.01493 0.77817 0.6855 0.0
N185 N 0.93595 0.61671 0.73107 0.0
C186 C 0.88407 0.64204 0.69904 0.0
C187 C 0.92714 0.72988 0.67387 0.0
C188 C 0.29318 0.85468 0.34956 0.0
C189 C 0.22558 0.80404 0.39088 0.0
C190 C 0.32282 0.82143 0.33514 0.0
C191 C 0.28677 0.73684 0.36242 0.0
H192 H 0.32628 0.92095 0.33034 0.0
H193 H 0.37839 0.86302 0.30559 0.0
S194 S 0.10227 0.57678 0.46876 0.0
N195 N 0.1184 0.66402 0.45494 0.0
N196 N 0.17456 0.60202 0.42818 0.0
C197 C 0.21532 0.68493 0.40085 0.0
C198 C 0.18449 0.7184 0.41498 0.0
C199 C 0.32029 0.16345 0.95231 0.0
C200 C 0.2402 0.10635 0.93301 0.0
C201 C 0.40372 0.19799 0.93313 0.0
C202 C 0.4115 0.17654 0.89412 0.0
H203 H 0.31854 0.1804 0.98352 0.0
H204 H 0.46312 0.24085 0.95017 0.0
S205 S 0.22182 0.02462 0.83371 0.0
N206 N 0.1736 0.0282 0.87332 0.0
N207 N 0.33055 0.09058 0.83937 0.0
C208 C 0.33188 0.11974 0.87419 0.0
C209 C 0.24636 0.08528 0.89313 0.0
C210 C 0.30327 0.28707 0.45275 0.0
C211 C 0.21204 0.23063 0.44463 0.0
C212 C 0.34501 0.37256 0.42885 0.0
C213 C 0.29806 0.40607 0.39497 0.0
H214 H 0.3427 0.26506 0.47938 0.0
H215 H 0.41452 0.4129 0.43835 0.0
S216 S 0.05915 0.28653 0.35766 0.0
N217 N 0.07654 0.21506 0.39797 0.0
N218 N 0.15563 0.37653 0.35305 0.0
C219 C 0.20758 0.35107 0.3846 0.0
C220 C 0.16446 0.26323 0.40941 0.0
C221 C 0.92717 0.17216 0.90185 0.0
C222 C 0.88976 0.08925 0.93954 0.0
C223 C 0.87559 0.20318 0.8802 0.0
C224 C 0.78556 0.15289 0.89675 0.0
H225 H 0.99731 0.21389 0.89016 0.0
H226 H 0.90774 0.26805 0.8531 0.0
S227 S 0.65413 0.93084 0.99141 0.0
N228 N 0.75473 0.95644 0.98917 0.0
N229 N 0.65996 0.01567 0.95029 0.0
C230 C 0.74669 0.06946 0.93255 0.0
C231 C 0.79816 0.03738 0.95342 0.0
C232 C 0.82946 0.83695 0.41604 0.0
C233 C 0.86222 0.91607 0.41027 0.0
C234 C 0.74874 0.78994 0.39165 0.0
C235 C 0.6993 0.82118 0.35941 0.0
H236 H 0.86202 0.80793 0.44355 0.0
H237 H 0.72133 0.72633 0.40182 0.0
S238 S 0.76379 0.0301 0.3221 0.0
N239 N 0.84488 0.02781 0.36306 0.0
N240 N 0.69356 0.93918 0.3166 0.0
C241 C 0.73571 0.90307 0.34822 0.0
C242 C 0.81727 0.95072 0.37378 0.0
C243 C 0.85426 0.62631 0.85105 0.0
C244 C 0.91941 0.64249 0.893 0.0
C245 C 0.81963 0.56113 0.83554 0.0
C246 C 0.84982 0.51099 0.86129 0.0
H247 H 0.82371 0.65876 0.83418 0.0
H248 H 0.76347 0.54539 0.80729 0.0
S249 S 0.03511 0.54197 0.96242 0.0
N250 N 0.02419 0.61378 0.95207 0.0
N251 N 0.95954 0.49128 0.92249 0.0
C252 C 0.92222 0.53298 0.89812 0.0
C253 C 0.95716 0.59903 0.91404 0.0
loop_
_geom_bond_atom_site_label_1
_geom_bond_atom_site_label_2
_geom_bond_distance
_geom_bond_site_symmetry_2
_ccdc_geom_bond_type
Sm0 C2 2.846 . S
Sm0 O20 2.543 . S
Sm0 O21 2.450 . S
Sm0 O22 2.681 1_445 S
Sm0 O23 2.464 1_445 S
Sm0 O24 2.396 . S
Sm0 O28 2.386 1_554 S
Sm0 O31 2.408 1_545 S
Sm1 C11 2.846 . S
Sm1 O22 2.386 1_556 S
Sm1 O25 2.408 1_565 S
Sm1 O26 2.543 . S
Sm1 O27 2.450 . S
Sm1 O28 2.681 1_665 S
Sm1 O29 2.464 1_665 S
Sm1 O30 2.396 1_656 S
C2 Sm0 2.846 . S
C2 C3 1.506 . S
C2 O20 1.261 . S
C2 O21 1.242 . S
C3 C2 1.506 . S
C3 C4 1.358 . S
C3 C8 1.382 . S
C4 C3 1.358 . S
C4 C5 1.385 . S
C4 H32 0.930 . S
C5 C4 1.385 . S
C5 C6 1.395 . S
C5 H33 0.929 . S
C6 C5 1.395 . S
C6 C7 1.335 . S
C7 C6 1.335 . S
C7 C8 1.398 . S
C7 H34 0.930 . S
C8 C3 1.382 . S
C8 C7 1.398 . S
C8 H35 0.929 . S
C9 O22 1.271 . S
C9 O23 1.251 . S
C10 O24 1.252 1_656 S
C10 O25 1.272 . S
C11 Sm1 2.846 . S
C11 C12 1.506 . S
C11 O26 1.261 . S
C11 O27 1.242 . S
C12 C11 1.506 . S
C12 C13 1.358 . S
C12 C17 1.382 . S
C13 C12 1.358 . S
C13 C14 1.385 . S
C13 H36 0.930 1_556 S
C14 C13 1.385 . S
C14 C15 1.395 . S
C14 H37 0.929 1_556 S
C15 C14 1.395 . S
C15 C16 1.335 . S
C16 C15 1.335 . S
C16 C17 1.398 . S
C16 H38 0.930 . S
C17 C12 1.382 . S
C17 C16 1.398 . S
C17 H39 0.929 . S
C18 O28 1.271 . S
C18 O29 1.251 . S
C19 O30 1.252 . S
C19 O31 1.272 . S
O20 Sm0 2.543 . S
O20 C2 1.261 . S
O21 Sm0 2.450 . S
O21 C2 1.242 . S
O22 Sm0 2.681 1_665 S
O22 Sm1 2.386 1_554 S
O22 C9 1.271 . S
O23 Sm0 2.464 1_665 S
O23 C9 1.251 . S
O24 Sm0 2.396 . S
O24 C10 1.252 1_454 S
O25 Sm1 2.408 1_545 S
O25 C10 1.272 . S
O26 Sm1 2.543 . S
O26 C11 1.261 . S
O27 Sm1 2.450 . S
O27 C11 1.242 . S
O28 Sm0 2.386 1_556 S
O28 Sm1 2.681 1_445 S
O28 C18 1.271 . S
O29 Sm1 2.464 1_445 S
O29 C18 1.251 . S
O30 Sm1 2.396 1_454 S
O30 C19 1.252 . S
O31 Sm0 2.408 1_565 S
O31 C19 1.272 . S
H32 C4 0.930 . S
H33 C5 0.929 . S
H34 C7 0.930 . S
H35 C8 0.929 . S
H36 C13 0.930 1_554 S
H37 C14 0.929 1_554 S
H38 C16 0.930 . S
H39 C17 0.929 . S
Sm40 C42 2.846 1_455 S
Sm40 O60 2.543 1_455 S
Sm40 O61 2.450 1_455 S
Sm40 O62 2.681 1_545 S
Sm40 O63 2.464 1_445 S
Sm40 O64 2.396 1_445 S
Sm40 O68 2.386 . S
Sm40 O71 2.408 . S
Sm41 C51 2.846 . S
Sm41 O62 2.386 . S
Sm41 O65 2.408 1_455 S
Sm41 O66 2.543 . S
Sm41 O67 2.450 1_565 S
Sm41 O68 2.681 1_565 S
Sm41 O69 2.464 1_565 S
Sm41 O70 2.396 1_565 S
C42 Sm40 2.846 1_655 S
C42 C43 1.506 . S
C42 O60 1.261 . S
C42 O61 1.242 . S
C43 C42 1.506 . S
C43 C44 1.358 . S
C43 C48 1.382 . S
C44 C43 1.358 . S
C44 C45 1.385 . S
C44 H72 0.930 . S
C45 C44 1.385 . S
C45 C46 1.395 . S
C45 H73 0.929 . S
C46 C45 1.395 . S
C46 C47 1.335 . S
C47 C46 1.335 . S
C47 C48 1.398 . S
C47 H74 0.930 1_545 S
C48 C43 1.382 . S
C48 C47 1.398 . S
C48 H75 0.929 1_545 S
C49 O62 1.271 1_655 S
C49 O63 1.251 . S
C50 O64 1.252 . S
C50 O65 1.272 . S
C51 Sm41 2.846 . S
C51 C52 1.506 . S
C51 O66 1.261 . S
C51 O67 1.242 1_565 S
C52 C51 1.506 . S
C52 C53 1.358 . S
C52 C57 1.382 1_565 S
C53 C52 1.358 . S
C53 C54 1.385 . S
C53 H76 0.930 . S
C54 C53 1.385 . S
C54 C55 1.395 . S
C54 H77 0.929 . S
C55 C54 1.395 . S
C55 C56 1.335 1_565 S
C56 C55 1.335 1_545 S
C56 C57 1.398 . S
C56 H78 0.930 . S
C57 C52 1.382 1_545 S
C57 C56 1.398 . S
C57 H79 0.929 . S
C58 O68 1.271 . S
C58 O69 1.251 . S
C59 O70 1.252 . S
C59 O71 1.272 . S
O60 Sm40 2.543 1_655 S
O60 C42 1.261 . S
O61 Sm40 2.450 1_655 S
O61 C42 1.242 . S
O62 Sm40 2.681 1_565 S
O62 Sm41 2.386 . S
O62 C49 1.271 1_455 S
O63 Sm40 2.464 1_665 S
O63 C49 1.251 . S
O64 Sm40 2.396 1_665 S
O64 C50 1.252 . S
O65 Sm41 2.408 1_655 S
O65 C50 1.272 . S
O66 Sm41 2.543 . S
O66 C51 1.261 . S
O67 Sm41 2.450 1_545 S
O67 C51 1.242 1_545 S
O68 Sm40 2.386 . S
O68 Sm41 2.681 1_545 S
O68 C58 1.271 . S
O69 Sm41 2.464 1_545 S
O69 C58 1.251 . S
O70 Sm41 2.396 1_545 S
O70 C59 1.252 . S
O71 Sm40 2.408 . S
O71 C59 1.272 . S
H72 C44 0.930 . S
H73 C45 0.929 . S
H74 C47 0.930 1_565 S
H75 C48 0.929 1_565 S
H76 C53 0.930 . S
H77 C54 0.929 . S
H78 C56 0.930 . S
H79 C57 0.929 . S
Zn80 O86 1.920 . S
Zn80 O92 1.898 . S
Zn80 O95 1.905 . S
Zn81 O89 1.905 . S
Zn81 O90 1.898 . S
Zn81 O98 1.920 . S
Zn82 O85 2.080 . S
Zn82 O88 2.114 . S
Zn82 O91 2.120 . S
Zn82 O93 2.120 . S
Zn82 O94 2.114 . S
Zn82 O97 2.080 . S
C83 O88 1.166 . S
C83 O89 1.182 . S
C84 O90 1.167 . S
C84 O91 1.299 . S
O85 Zn82 2.080 . S
O85 C99 1.305 . S
O86 Zn80 1.920 . S
O86 C99 1.234 . S
C87 O92 1.167 . S
C87 O93 1.299 . S
O88 Zn82 2.114 . S
O88 C83 1.166 . S
O89 Zn81 1.905 . S
O89 C83 1.182 . S
O90 Zn81 1.898 . S
O90 C84 1.167 . S
O91 Zn82 2.120 . S
O91 C84 1.299 . S
O92 Zn80 1.898 . S
O92 C87 1.167 . S
O93 Zn82 2.120 . S
O93 C87 1.299 . S
O94 Zn82 2.114 . S
O94 C96 1.166 . S
O95 Zn80 1.905 . S
O95 C96 1.182 . S
C96 O94 1.166 . S
C96 O95 1.182 . S
O97 Zn82 2.080 . S
O97 C100 1.305 . S
O98 Zn81 1.920 . S
O98 C100 1.234 . S
C99 O85 1.305 . S
C99 O86 1.234 . S
C100 O97 1.305 . S
C100 O98 1.234 . S
Zn101 O107 1.920 . S
Zn101 O113 1.898 . S
Zn101 O116 1.905 . S
Zn102 O110 1.905 . S
Zn102 O111 1.898 . S
Zn102 O119 1.920 . S
Zn103 O106 2.080 . S
Zn103 O109 2.114 . S
Zn103 O112 2.120 . S
Zn103 O114 2.120 . S
Zn103 O115 2.114 . S
Zn103 O118 2.080 . S
C104 O109 1.166 . S
C104 O110 1.182 . S
C105 O111 1.167 . S
C105 O112 1.299 . S
O106 Zn103 2.080 . S
O106 C120 1.305 . S
O107 Zn101 1.920 . S
O107 C120 1.234 . S
C108 O113 1.167 . S
C108 O114 1.299 . S
O109 Zn103 2.114 . S
O109 C104 1.166 . S
O110 Zn102 1.905 . S
O110 C104 1.182 . S
O111 Zn102 1.898 . S
O111 C105 1.167 . S
O112 Zn103 2.120 . S
O112 C105 1.299 . S
O113 Zn101 1.898 . S
O113 C108 1.167 . S
O114 Zn103 2.120 . S
O114 C108 1.299 . S
O115 Zn103 2.114 . S
O115 C117 1.166 . S
O116 Zn101 1.905 . S
O116 C117 1.182 . S
C117 O115 1.166 . S
C117 O116 1.182 . S
O118 Zn103 2.080 . S
O118 C121 1.305 . S
O119 Zn102 1.920 . S
O119 C121 1.234 . S
C120 O106 1.305 . S
C120 O107 1.234 . S
C121 O118 1.305 . S
C121 O119 1.234 . S
C122 C123 1.369 . S
C122 C124 1.419 . S
C122 H126 0.930 . S
C123 C122 1.369 . S
C123 C132 1.429 . S
C124 C122 1.419 . S
C124 C125 1.363 . S
C124 H127 0.929 . S
C125 C124 1.363 . S
C125 C131 1.428 . S
H126 C122 0.930 . S
H127 C124 0.929 . S
S128 N129 1.613 . S
S128 N130 1.610 . S
N129 S128 1.613 . S
N129 C132 1.350 . S
N130 S128 1.610 . S
N130 C131 1.351 . S
C131 C125 1.428 . S
C131 N130 1.351 . S
C131 C132 1.434 . S
C132 C123 1.429 . S
C132 N129 1.350 . S
C132 C131 1.434 . S
C133 C134 1.369 . S
C133 C135 1.419 . S
C133 H137 0.930 1_545 S
C134 C133 1.369 . S
C134 C143 1.429 . S
C135 C133 1.419 . S
C135 C136 1.363 . S
C135 H138 0.929 . S
C136 C135 1.363 . S
C136 C142 1.428 . S
H137 C133 0.930 1_565 S
H138 C135 0.929 . S
S139 N140 1.613 . S
S139 N141 1.610 . S
N140 S139 1.613 . S
N140 C143 1.350 . S
N141 S139 1.610 . S
N141 C142 1.351 . S
C142 C136 1.428 . S
C142 N141 1.351 . S
C142 C143 1.434 . S
C143 C134 1.429 . S
C143 N140 1.350 . S
C143 C142 1.434 . S
C144 C145 1.369 . S
C144 C146 1.419 . S
C144 H148 0.930 . S
C145 C144 1.369 . S
C145 C154 1.429 . S
C146 C144 1.419 . S
C146 C147 1.363 . S
C146 H149 0.929 . S
C147 C146 1.363 . S
C147 C153 1.428 . S
H148 C144 0.930 . S
H149 C146 0.929 . S
S150 N151 1.613 . S
S150 N152 1.610 . S
N151 S150 1.613 . S
N151 C154 1.350 . S
N152 S150 1.610 . S
N152 C153 1.351 . S
C153 C147 1.428 . S
C153 N152 1.351 . S
C153 C154 1.434 . S
C154 C145 1.429 . S
C154 N151 1.350 . S
C154 C153 1.434 . S
C155 C156 1.369 . S
C155 C157 1.419 . S
C155 H159 0.930 . S
C156 C155 1.369 . S
C156 C165 1.429 . S
C157 C155 1.419 . S
C157 C158 1.363 . S
C157 H160 0.929 . S
C158 C157 1.363 . S
C158 C164 1.428 . S
H159 C155 0.930 . S
H160 C157 0.929 . S
S161 N162 1.613 . S
S161 N163 1.610 . S
N162 S161 1.613 . S
N162 C165 1.350 . S
N163 S161 1.610 . S
N163 C164 1.351 . S
C164 C158 1.428 . S
C164 N163 1.351 . S
C164 C165 1.434 . S
C165 C156 1.429 . S
C165 N162 1.350 . S
C165 C164 1.434 . S
C166 C167 1.369 . S
C166 C168 1.419 . S
C166 H170 0.930 . S
C167 C166 1.369 . S
C167 C176 1.429 . S
C168 C166 1.419 . S
C168 C169 1.363 . S
C168 H171 0.929 . S
C169 C168 1.363 . S
C169 C175 1.428 . S
H170 C166 0.930 . S
H171 C168 0.929 . S
S172 N173 1.613 . S
S172 N174 1.610 . S
N173 S172 1.613 . S
N173 C176 1.350 . S
N174 S172 1.610 . S
N174 C175 1.351 . S
C175 C169 1.428 . S
C175 N174 1.351 . S
C175 C176 1.434 . S
C176 C167 1.429 . S
C176 N173 1.350 . S
C176 C175 1.434 . S
C177 C178 1.369 . S
C177 C179 1.419 . S
C177 H181 0.930 . S
C178 C177 1.369 . S
C178 C187 1.429 . S
C179 C177 1.419 . S
C179 C180 1.363 . S
C179 H182 0.929 . S
C180 C179 1.363 . S
C180 C186 1.428 . S
H181 C177 0.930 . S
H182 C179 0.929 . S
S183 N184 1.613 . S
S183 N185 1.610 . S
N184 S183 1.613 . S
N184 C187 1.350 . S
N185 S183 1.610 . S
N185 C186 1.351 . S
C186 C180 1.428 . S
C186 N185 1.351 . S
C186 C187 1.434 . S
C187 C178 1.429 . S
C187 N184 1.350 . S
C187 C186 1.434 . S
C188 C189 1.369 . S
C188 C190 1.419 . S
C188 H192 0.930 1_565 S
C189 C188 1.369 . S
C189 C198 1.429 . S
C190 C188 1.419 . S
C190 C191 1.363 . S
C190 H193 0.929 . S
C191 C190 1.363 . S
C191 C197 1.428 . S
H192 C188 0.930 1_545 S
H193 C190 0.929 . S
S194 N195 1.613 . S
S194 N196 1.610 . S
N195 S194 1.613 . S
N195 C198 1.350 . S
N196 S194 1.610 . S
N196 C197 1.351 . S
C197 C191 1.428 . S
C197 N196 1.351 . S
C197 C198 1.434 . S
C198 C189 1.429 . S
C198 N195 1.350 . S
C198 C197 1.434 . S
C199 C200 1.369 . S
C199 C201 1.419 . S
C199 H203 0.930 . S
C200 C199 1.369 . S
C200 C209 1.429 . S
C201 C199 1.419 . S
C201 C202 1.363 . S
C201 H204 0.929 . S
C202 C201 1.363 . S
C202 C208 1.428 . S
H203 C199 0.930 . S
H204 C201 0.929 . S
S205 N206 1.613 . S
S205 N207 1.610 . S
N206 S205 1.613 . S
N206 C209 1.350 . S
N207 S205 1.610 . S
N207 C208 1.351 . S
C208 C202 1.428 . S
C208 N207 1.351 . S
C208 C209 1.434 . S
C209 C200 1.429 . S
C209 N206 1.350 . S
C209 C208 1.434 . S
C210 C211 1.369 . S
C210 C212 1.419 . S
C210 H214 0.930 . S
C211 C210 1.369 . S
C211 C220 1.429 . S
C212 C210 1.419 . S
C212 C213 1.363 . S
C212 H215 0.929 . S
C213 C212 1.363 . S
C213 C219 1.428 . S
H214 C210 0.930 . S
H215 C212 0.929 . S
S216 N217 1.613 . S
S216 N218 1.610 . S
N217 S216 1.613 . S
N217 C220 1.350 . S
N218 S216 1.610 . S
N218 C219 1.351 . S
C219 C213 1.428 . S
C219 N218 1.351 . S
C219 C220 1.434 . S
C220 C211 1.429 . S
C220 N217 1.350 . S
C220 C219 1.434 . S
C221 C222 1.369 . S
C221 C223 1.419 . S
C221 H225 0.930 . S
C222 C221 1.369 . S
C222 C231 1.429 . S
C223 C221 1.419 . S
C223 C224 1.363 . S
C223 H226 0.929 . S
C224 C223 1.363 . S
C224 C230 1.428 . S
H225 C221 0.930 . S
H226 C223 0.929 . S
S227 N228 1.613 . S
S227 N229 1.610 1_554 S
N228 S227 1.613 . S
N228 C231 1.350 1_554 S
N229 S227 1.610 1_556 S
N229 C230 1.351 . S
C230 C224 1.428 . S
C230 N229 1.351 . S
C230 C231 1.434 . S
C231 C222 1.429 . S
C231 N228 1.350 1_556 S
C231 C230 1.434 . S
C232 C233 1.369 . S
C232 C234 1.419 . S
C232 H236 0.930 . S
C233 C232 1.369 . S
C233 C242 1.429 . S
C234 C232 1.419 . S
C234 C235 1.363 . S
C234 H237 0.929 . S
C235 C234 1.363 . S
C235 C241 1.428 . S
H236 C232 0.930 . S
H237 C234 0.929 . S
S238 N239 1.613 . S
S238 N240 1.610 1_545 S
N239 S238 1.613 . S
N239 C242 1.350 1_545 S
N240 S238 1.610 1_565 S
N240 C241 1.351 . S
C241 C235 1.428 . S
C241 N240 1.351 . S
C241 C242 1.434 . S
C242 C233 1.429 . S
C242 N239 1.350 1_565 S
C242 C241 1.434 . S
C243 C244 1.369 . S
C243 C245 1.419 . S
C243 H247 0.930 . S
C244 C243 1.369 . S
C244 C253 1.429 . S
C245 C243 1.419 . S
C245 C246 1.363 . S
C245 H248 0.929 . S
C246 C245 1.363 . S
C246 C252 1.428 . S
H247 C243 0.930 . S
H248 C245 0.929 . S
S249 N250 1.613 1_455 S
S249 N251 1.610 1_455 S
N250 S249 1.613 1_655 S
N250 C253 1.350 . S
N251 S249 1.610 1_655 S
N251 C252 1.351 . S
C252 C246 1.428 . S
C252 N251 1.351 . S
C252 C253 1.434 . S
C253 C244 1.429 . S
C253 N250 1.350 . S
C253 C252 1.434 . S
C123 C19 1.894 . S
C125 C99 1.897 . S
C134 C59 1.295 . S
C136 C105 1.212 . S
C145 C6 1.104 . S
C147 C96 0.958 . S
C156 C46 1.649 . S
C158 C121 1.470 . S
C167 C9 2.162 . S
C169 C87 2.057 . S
C180 C104 2.311 . S
C178 C49 2.361 . S
C189 C55 1.417 . S
C191 C100 1.319 . S
C202 C117 1.747 . S
C200 C18 1.781 . S
C213 C84 2.104 . S
C211 C58 2.176 . S
C224 C120 2.178 . S
C222 C10 2.163 . S
C235 C83 1.552 . S
C233 C50 1.633 . S
C246 C108 0.944 . S
C244 C15 1.055 . S
