# Generated by pormake.
# Topology gar, (4,6)-cn, num edge types: 1
# Building blocks:
#     Node 0, Type 0, BuildingBlock: QUQFOY_clean_sbu_1, # of connection points: 4
#     Node 1, Type 0, BuildingBlock: QUQFOY_clean_sbu_1, # of connection points: 4
#     Node 2, Type 0, BuildingBlock: QUQFOY_clean_sbu_1, # of connection points: 4
#     Node 3, Type 0, BuildingBlock: QUQFOY_clean_sbu_1, # of connection points: 4
#     Node 4, Type 0, BuildingBlock: QUQFOY_clean_sbu_1, # of connection points: 4
#     Node 5, Type 0, BuildingBlock: QUQFOY_clean_sbu_1, # of connection points: 4
#     Node 6, Type 0, BuildingBlock: QUQFOY_clean_sbu_1, # of connection points: 4
#     Node 7, Type 0, BuildingBlock: QUQFOY_clean_sbu_1, # of connection points: 4
#     Node 8, Type 0, BuildingBlock: QUQFOY_clean_sbu_1, # of connection points: 4
#     Node 9, Type 0, BuildingBlock: QUQFOY_clean_sbu_1, # of connection points: 4
#     Node 10, Type 0, BuildingBlock: QUQFOY_clean_sbu_1, # of connection points: 4
#     Node 11, Type 0, BuildingBlock: QUQFOY_clean_sbu_1, # of connection points: 4
#     Node 12, Type 0, BuildingBlock: QUQFOY_clean_sbu_1, # of connection points: 4
#     Node 13, Type 0, BuildingBlock: QUQFOY_clean_sbu_1, # of connection points: 4
#     Node 14, Type 0, BuildingBlock: QUQFOY_clean_sbu_1, # of connection points: 4
#     Node 15, Type 0, BuildingBlock: QUQFOY_clean_sbu_1, # of connection points: 4
#     Node 16, Type 0, BuildingBlock: QUQFOY_clean_sbu_1, # of connection points: 4
#     Node 17, Type 0, BuildingBlock: QUQFOY_clean_sbu_1, # of connection points: 4
#     Node 18, Type 0, BuildingBlock: QUQFOY_clean_sbu_1, # of connection points: 4
#     Node 19, Type 0, BuildingBlock: QUQFOY_clean_sbu_1, # of connection points: 4
#     Node 20, Type 0, BuildingBlock: QUQFOY_clean_sbu_1, # of connection points: 4
#     Node 21, Type 0, BuildingBlock: QUQFOY_clean_sbu_1, # of connection points: 4
#     Node 22, Type 0, BuildingBlock: QUQFOY_clean_sbu_1, # of connection points: 4
#     Node 23, Type 0, BuildingBlock: QUQFOY_clean_sbu_1, # of connection points: 4
#     Node 24, Type 1, BuildingBlock: KUMJIN_clean_sbu_0, # of connection points: 6
#     Node 25, Type 1, BuildingBlock: KUMJIN_clean_sbu_0, # of connection points: 6
#     Node 26, Type 1, BuildingBlock: KUMJIN_clean_sbu_0, # of connection points: 6
#     Node 27, Type 1, BuildingBlock: KUMJIN_clean_sbu_0, # of connection points: 6
#     Node 28, Type 1, BuildingBlock: KUMJIN_clean_sbu_0, # of connection points: 6
#     Node 29, Type 1, BuildingBlock: KUMJIN_clean_sbu_0, # of connection points: 6
#     Node 30, Type 1, BuildingBlock: KUMJIN_clean_sbu_0, # of connection points: 6
#     Node 31, Type 1, BuildingBlock: KUMJIN_clean_sbu_0, # of connection points: 6
#     Node 32, Type 1, BuildingBlock: KUMJIN_clean_sbu_0, # of connection points: 6
#     Node 33, Type 1, BuildingBlock: KUMJIN_clean_sbu_0, # of connection points: 6
#     Node 34, Type 1, BuildingBlock: KUMJIN_clean_sbu_0, # of connection points: 6
#     Node 35, Type 1, BuildingBlock: KUMJIN_clean_sbu_0, # of connection points: 6
#     Node 36, Type 1, BuildingBlock: KUMJIN_clean_sbu_0, # of connection points: 6
#     Node 37, Type 1, BuildingBlock: KUMJIN_clean_sbu_0, # of connection points: 6
#     Node 38, Type 1, BuildingBlock: KUMJIN_clean_sbu_0, # of connection points: 6
#     Node 39, Type 1, BuildingBlock: KUMJIN_clean_sbu_0, # of connection points: 6
#     Edge 40, Type (0, 1), BuildingBlock: AJUNOK_clean_linker_0, # of connection points: 2
#     Edge 41, Type (0, 1), BuildingBlock: AJUNOK_clean_linker_0, # of connection points: 2
#     Edge 42, Type (0, 1), BuildingBlock: AJUNOK_clean_linker_0, # of connection points: 2
#     Edge 43, Type (0, 1), BuildingBlock: AJUNOK_clean_linker_0, # of connection points: 2
#     Edge 44, Type (0, 1), BuildingBlock: AJUNOK_clean_linker_0, # of connection points: 2
#     Edge 45, Type (0, 1), BuildingBlock: AJUNOK_clean_linker_0, # of connection points: 2
#     Edge 46, Type (0, 1), BuildingBlock: AJUNOK_clean_linker_0, # of connection points: 2
#     Edge 47, Type (0, 1), BuildingBlock: AJUNOK_clean_linker_0, # of connection points: 2
#     Edge 48, Type (0, 1), BuildingBlock: AJUNOK_clean_linker_0, # of connection points: 2
#     Edge 49, Type (0, 1), BuildingBlock: AJUNOK_clean_linker_0, # of connection points: 2
#     Edge 50, Type (0, 1), BuildingBlock: AJUNOK_clean_linker_0, # of connection points: 2
#     Edge 51, Type (0, 1), BuildingBlock: AJUNOK_clean_linker_0, # of connection points: 2
#     Edge 52, Type (0, 1), BuildingBlock: AJUNOK_clean_linker_0, # of connection points: 2
#     Edge 53, Type (0, 1), BuildingBlock: AJUNOK_clean_linker_0, # of connection points: 2
#     Edge 54, Type (0, 1), BuildingBlock: AJUNOK_clean_linker_0, # of connection points: 2
#     Edge 55, Type (0, 1), BuildingBlock: AJUNOK_clean_linker_0, # of connection points: 2
#     Edge 56, Type (0, 1), BuildingBlock: AJUNOK_clean_linker_0, # of connection points: 2
#     Edge 57, Type (0, 1), BuildingBlock: AJUNOK_clean_linker_0, # of connection points: 2
#     Edge 58, Type (0, 1), BuildingBlock: AJUNOK_clean_linker_0, # of connection points: 2
#     Edge 59, Type (0, 1), BuildingBlock: AJUNOK_clean_linker_0, # of connection points: 2
#     Edge 60, Type (0, 1), BuildingBlock: AJUNOK_clean_linker_0, # of connection points: 2
#     Edge 61, Type (0, 1), BuildingBlock: AJUNOK_clean_linker_0, # of connection points: 2
#     Edge 62, Type (0, 1), BuildingBlock: AJUNOK_clean_linker_0, # of connection points: 2
#     Edge 63, Type (0, 1), BuildingBlock: AJUNOK_clean_linker_0, # of connection points: 2
#     Edge 64, Type (0, 1), BuildingBlock: AJUNOK_clean_linker_0, # of connection points: 2
#     Edge 65, Type (0, 1), BuildingBlock: AJUNOK_clean_linker_0, # of connection points: 2
#     Edge 66, Type (0, 1), BuildingBlock: AJUNOK_clean_linker_0, # of connection points: 2
#     Edge 67, Type (0, 1), BuildingBlock: AJUNOK_clean_linker_0, # of connection points: 2
#     Edge 68, Type (0, 1), BuildingBlock: AJUNOK_clean_linker_0, # of connection points: 2
#     Edge 69, Type (0, 1), BuildingBlock: AJUNOK_clean_linker_0, # of connection points: 2
#     Edge 70, Type (0, 1), BuildingBlock: AJUNOK_clean_linker_0, # of connection points: 2
#     Edge 71, Type (0, 1), BuildingBlock: AJUNOK_clean_linker_0, # of connection points: 2
#     Edge 72, Type (0, 1), BuildingBlock: AJUNOK_clean_linker_0, # of connection points: 2
#     Edge 73, Type (0, 1), BuildingBlock: AJUNOK_clean_linker_0, # of connection points: 2
#     Edge 74, Type (0, 1), BuildingBlock: AJUNOK_clean_linker_0, # of connection points: 2
#     Edge 75, Type (0, 1), BuildingBlock: AJUNOK_clean_linker_0, # of connection points: 2
#     Edge 76, Type (0, 1), BuildingBlock: AJUNOK_clean_linker_0, # of connection points: 2
#     Edge 77, Type (0, 1), BuildingBlock: AJUNOK_clean_linker_0, # of connection points: 2
#     Edge 78, Type (0, 1), BuildingBlock: AJUNOK_clean_linker_0, # of connection points: 2
#     Edge 79, Type (0, 1), BuildingBlock: AJUNOK_clean_linker_0, # of connection points: 2
#     Edge 80, Type (0, 1), BuildingBlock: AJUNOK_clean_linker_0, # of connection points: 2
#     Edge 81, Type (0, 1), BuildingBlock: AJUNOK_clean_linker_0, # of connection points: 2
#     Edge 82, Type (0, 1), BuildingBlock: AJUNOK_clean_linker_0, # of connection points: 2
#     Edge 83, Type (0, 1), BuildingBlock: AJUNOK_clean_linker_0, # of connection points: 2
#     Edge 84, Type (0, 1), BuildingBlock: AJUNOK_clean_linker_0, # of connection points: 2
#     Edge 85, Type (0, 1), BuildingBlock: AJUNOK_clean_linker_0, # of connection points: 2
#     Edge 86, Type (0, 1), BuildingBlock: AJUNOK_clean_linker_0, # of connection points: 2
#     Edge 87, Type (0, 1), BuildingBlock: AJUNOK_clean_linker_0, # of connection points: 2
#     Edge 88, Type (0, 1), BuildingBlock: AJUNOK_clean_linker_0, # of connection points: 2
#     Edge 89, Type (0, 1), BuildingBlock: AJUNOK_clean_linker_0, # of connection points: 2
#     Edge 90, Type (0, 1), BuildingBlock: AJUNOK_clean_linker_0, # of connection points: 2
#     Edge 91, Type (0, 1), BuildingBlock: AJUNOK_clean_linker_0, # of connection points: 2
#     Edge 92, Type (0, 1), BuildingBlock: AJUNOK_clean_linker_0, # of connection points: 2
#     Edge 93, Type (0, 1), BuildingBlock: AJUNOK_clean_linker_0, # of connection points: 2
#     Edge 94, Type (0, 1), BuildingBlock: AJUNOK_clean_linker_0, # of connection points: 2
#     Edge 95, Type (0, 1), BuildingBlock: AJUNOK_clean_linker_0, # of connection points: 2
#     Edge 96, Type (0, 1), BuildingBlock: AJUNOK_clean_linker_0, # of connection points: 2
#     Edge 97, Type (0, 1), BuildingBlock: AJUNOK_clean_linker_0, # of connection points: 2
#     Edge 98, Type (0, 1), BuildingBlock: AJUNOK_clean_linker_0, # of connection points: 2
#     Edge 99, Type (0, 1), BuildingBlock: AJUNOK_clean_linker_0, # of connection points: 2
#     Edge 100, Type (0, 1), BuildingBlock: AJUNOK_clean_linker_0, # of connection points: 2
#     Edge 101, Type (0, 1), BuildingBlock: AJUNOK_clean_linker_0, # of connection points: 2
#     Edge 102, Type (0, 1), BuildingBlock: AJUNOK_clean_linker_0, # of connection points: 2
#     Edge 103, Type (0, 1), BuildingBlock: AJUNOK_clean_linker_0, # of connection points: 2
#     Edge 104, Type (0, 1), BuildingBlock: AJUNOK_clean_linker_0, # of connection points: 2
#     Edge 105, Type (0, 1), BuildingBlock: AJUNOK_clean_linker_0, # of connection points: 2
#     Edge 106, Type (0, 1), BuildingBlock: AJUNOK_clean_linker_0, # of connection points: 2
#     Edge 107, Type (0, 1), BuildingBlock: AJUNOK_clean_linker_0, # of connection points: 2
#     Edge 108, Type (0, 1), BuildingBlock: AJUNOK_clean_linker_0, # of connection points: 2
#     Edge 109, Type (0, 1), BuildingBlock: AJUNOK_clean_linker_0, # of connection points: 2
#     Edge 110, Type (0, 1), BuildingBlock: AJUNOK_clean_linker_0, # of connection points: 2
#     Edge 111, Type (0, 1), BuildingBlock: AJUNOK_clean_linker_0, # of connection points: 2
#     Edge 112, Type (0, 1), BuildingBlock: AJUNOK_clean_linker_0, # of connection points: 2
#     Edge 113, Type (0, 1), BuildingBlock: AJUNOK_clean_linker_0, # of connection points: 2
#     Edge 114, Type (0, 1), BuildingBlock: AJUNOK_clean_linker_0, # of connection points: 2
#     Edge 115, Type (0, 1), BuildingBlock: AJUNOK_clean_linker_0, # of connection points: 2
#     Edge 116, Type (0, 1), BuildingBlock: AJUNOK_clean_linker_0, # of connection points: 2
#     Edge 117, Type (0, 1), BuildingBlock: AJUNOK_clean_linker_0, # of connection points: 2
#     Edge 118, Type (0, 1), BuildingBlock: AJUNOK_clean_linker_0, # of connection points: 2
#     Edge 119, Type (0, 1), BuildingBlock: AJUNOK_clean_linker_0, # of connection points: 2
#     Edge 120, Type (0, 1), BuildingBlock: AJUNOK_clean_linker_0, # of connection points: 2
#     Edge 121, Type (0, 1), BuildingBlock: AJUNOK_clean_linker_0, # of connection points: 2
#     Edge 122, Type (0, 1), BuildingBlock: AJUNOK_clean_linker_0, # of connection points: 2
#     Edge 123, Type (0, 1), BuildingBlock: AJUNOK_clean_linker_0, # of connection points: 2
#     Edge 124, Type (0, 1), BuildingBlock: AJUNOK_clean_linker_0, # of connection points: 2
#     Edge 125, Type (0, 1), BuildingBlock: AJUNOK_clean_linker_0, # of connection points: 2
#     Edge 126, Type (0, 1), BuildingBlock: AJUNOK_clean_linker_0, # of connection points: 2
#     Edge 127, Type (0, 1), BuildingBlock: AJUNOK_clean_linker_0, # of connection points: 2
#     Edge 128, Type (0, 1), BuildingBlock: AJUNOK_clean_linker_0, # of connection points: 2
#     Edge 129, Type (0, 1), BuildingBlock: AJUNOK_clean_linker_0, # of connection points: 2
#     Edge 130, Type (0, 1), BuildingBlock: AJUNOK_clean_linker_0, # of connection points: 2
#     Edge 131, Type (0, 1), BuildingBlock: AJUNOK_clean_linker_0, # of connection points: 2
#     Edge 132, Type (0, 1), BuildingBlock: AJUNOK_clean_linker_0, # of connection points: 2
#     Edge 133, Type (0, 1), BuildingBlock: AJUNOK_clean_linker_0, # of connection points: 2
#     Edge 134, Type (0, 1), BuildingBlock: AJUNOK_clean_linker_0, # of connection points: 2
#     Edge 135, Type (0, 1), BuildingBlock: AJUNOK_clean_linker_0, # of connection points: 2
# Relax obj value: 0.160
# Max RMSD: 0.360
# Mean RMSD: 0.181
data_MOF--net-gar--node1-QUQFOY_clean_sbu_1--node2-KUMJIN_clean_sbu_0--edge1-AJUNOK_clean_linker_0
_symmetry_space_group_name_H-M    P1
_symmetry_Int_Tables_number       1
_symmetry_cell_setting            triclinic
loop_
_symmetry_equiv_pos_as_xyz
'x, y, z'
_cell_length_a     48.79926
_cell_length_b     43.436747
_cell_length_c     43.327756
_cell_angle_alpha  101.74558
_cell_angle_beta   94.305465
_cell_angle_gamma 105.70742
loop_
_atom_site_label
_atom_site_type_symbol
_atom_site_fract_x
_atom_site_fract_y
_atom_site_fract_z
_atom_type_partial_charge
O0 O 0.13601 0.27605 0.40032 0.0
Cd1 Cd 0.14305 0.30153 0.36477 0.0
Cd2 Cd 0.13534 0.35594 0.41679 0.0
O3 O 0.13296 0.31782 0.43769 0.0
O4 O 0.16677 0.28383 0.33448 0.0
O5 O 0.18215 0.33282 0.36851 0.0
C6 C 0.18697 0.31089 0.34628 0.0
C7 C 0.13043 0.40134 0.45268 0.0
C8 C 0.13267 0.28814 0.4286 0.0
C9 C 0.09807 0.33145 0.35045 0.0
O10 O 0.10804 0.3505 0.37745 0.0
O11 O 0.10849 0.30834 0.3396 0.0
O12 O 0.11001 0.37445 0.44385 0.0
O13 O 0.15467 0.40242 0.44231 0.0
O14 O 1.00137 0.69037 0.69106 0.0
Cd15 Cd 1.00483 0.7336 0.72223 0.0
Cd16 Cd 0.02613 0.7578 0.6746 0.0
O17 O 1.00191 0.7119 0.64951 0.0
O18 O 0.97557 0.72698 0.75121 0.0
O19 O 0.97777 0.75977 0.7176 0.0
C20 C 0.96514 0.747 0.73921 0.0
C21 C 0.03498 0.79717 0.64419 0.0
C22 C 1.00036 0.68712 0.66125 0.0
C23 C 0.06615 0.7574 0.73185 0.0
O24 O 0.06248 0.75873 0.70289 0.0
O25 O 0.04497 0.75203 0.74731 0.0
O26 O 0.04409 0.77182 0.63827 0.0
O27 O 0.02046 0.80058 0.66766 0.0
O28 O 0.69487 0.84224 0.88748 0.0
Cd29 Cd 0.66046 0.83833 0.91442 0.0
Cd30 Cd 0.64845 0.86947 0.86343 0.0
O31 O 0.67981 0.85482 0.84365 0.0
O32 O 0.67366 0.82711 0.95435 0.0
O33 O 0.63778 0.79347 0.9188 0.0
C34 C 0.65323 0.79983 0.94617 0.0
C35 C 0.60729 0.8677 0.83308 0.0
C36 C 0.69846 0.84705 0.85973 0.0
C37 C 0.64741 0.9036 0.9255 0.0
O38 O 0.65939 0.90842 0.90141 0.0
O39 O 0.6424 0.8755 0.93182 0.0
O40 O 0.63151 0.8885 0.8322 0.0
O41 O 0.60679 0.84598 0.84963 0.0
O42 O 0.49425 0.1827 0.16828 0.0
Cd43 Cd 0.5011 0.22315 0.20564 0.0
Cd44 Cd 0.53963 0.25766 0.17373 0.0
O45 O 0.53077 0.21033 0.14827 0.0
O46 O 0.46835 0.21967 0.23107 0.0
O47 O 0.48162 0.25798 0.20374 0.0
C48 C 0.46451 0.24499 0.2221 0.0
C49 C 0.55005 0.29233 0.13868 0.0
C50 C 0.51177 0.18383 0.148 0.0
C51 C 0.56302 0.2508 0.23553 0.0
O52 O 0.56691 0.26848 0.21533 0.0
O53 O 0.53849 0.23088 0.23525 0.0
O54 O 0.5674 0.27691 0.14664 0.0
O55 O 0.52728 0.28995 0.15245 0.0
O56 O 0.11524 0.77595 0.12706 0.0
Cd57 Cd 0.12142 0.82236 0.15382 0.0
Cd58 Cd 0.14274 0.84356 0.10248 0.0
O59 O 0.12745 0.78796 0.08207 0.0
O60 O 0.10215 0.81232 0.19115 0.0
O61 O 0.08726 0.8406 0.16018 0.0
C62 C 0.08416 0.82749 0.18432 0.0
C63 C 0.12641 0.89175 0.08725 0.0
C64 C 0.11946 0.76606 0.09868 0.0
C65 C 0.18572 0.84813 0.16287 0.0
O66 O 0.18322 0.85196 0.13409 0.0
O67 O 0.16316 0.84096 0.17605 0.0
O68 O 0.14307 0.87748 0.0717 0.0
O69 O 0.11824 0.87883 0.11075 0.0
O70 O 0.58685 0.77907 0.4391 0.0
Cd71 Cd 0.56928 0.77982 0.48214 0.0
Cd72 Cd 0.52452 0.8024 0.42179 0.0
O73 O 0.55741 0.78645 0.40049 0.0
O74 O 0.59343 0.75807 0.51022 0.0
O75 O 0.54941 0.73195 0.48938 0.0
C76 C 0.57261 0.73103 0.50527 0.0
C77 C 0.4804 0.80136 0.38865 0.0
C78 C 0.58073 0.78092 0.41035 0.0
C79 C 0.55756 0.85206 0.48884 0.0
O80 O 0.54207 0.84221 0.46143 0.0
O81 O 0.56761 0.83168 0.50143 0.0
O82 O 0.50532 0.82091 0.38783 0.0
O83 O 0.48014 0.78207 0.40777 0.0
O84 O 0.6319 0.27189 0.63918 0.0
Cd85 Cd 0.63811 0.3167 0.66954 0.0
Cd86 Cd 0.65605 0.34061 0.61598 0.0
O87 O 0.63966 0.2854 0.59362 0.0
O88 O 0.61501 0.30257 0.70325 0.0
O89 O 0.6049 0.33644 0.67582 0.0
C90 C 0.59823 0.31938 0.69676 0.0
C91 C 0.63846 0.38855 0.60046 0.0
C92 C 0.63334 0.26279 0.60975 0.0
C93 C 0.70171 0.34403 0.67677 0.0
O94 O 0.69711 0.34792 0.64804 0.0
O95 O 0.68035 0.33564 0.6916 0.0
O96 O 0.65586 0.37516 0.58535 0.0
O97 O 0.63061 0.37527 0.62386 0.0
O98 O 0.04306 0.22009 0.94588 0.0
Cd99 Cd 0.04093 0.25417 0.91776 0.0
Cd100 Cd 0.03057 0.29458 0.97649 0.0
O101 O 0.04304 0.25175 0.99271 0.0
O102 O 0.06071 0.24077 0.88037 0.0
O103 O 0.07919 0.28713 0.91656 0.0
C104 C 0.08166 0.26733 0.89099 0.0
C105 C 0.0517 0.35563 0.99737 0.0
C106 C 0.04583 0.22428 0.97614 0.0
C107 C 0.98522 0.27554 0.91345 0.0
O108 O 0.99136 0.28686 0.94382 0.0
O109 O 1.0023 0.26193 0.89886 0.0
O110 O 0.03416 0.33765 0.01209 0.0
O111 O 0.05945 0.33917 0.97291 0.0
O112 O 0.45167 0.04196 0.27523 0.0
Cd113 Cd 0.43032 0.04972 0.31404 0.0
Cd114 Cd 0.47924 0.04306 0.33325 0.0
O115 O 0.48989 0.07519 0.30489 0.0
O116 O 0.4171 0.08993 0.32554 0.0
O117 O 0.3928 0.04348 0.29123 0.0
C118 C 0.39418 0.07254 0.30626 0.0
C119 C 0.51029 0.05041 0.37687 0.0
C120 C 0.47726 0.05979 0.27744 0.0
C121 C 0.4276 0.98928 0.32516 0.0
O122 O 0.45213 0.99568 0.31595 0.0
O123 O 0.41832 1.01289 0.33696 0.0
O124 O 0.51601 0.03833 0.34923 0.0
O125 O 0.48694 0.05882 0.37953 0.0
O126 O 0.32915 0.20983 0.57953 0.0
Cd127 Cd 0.32558 0.17575 0.53796 0.0
Cd128 Cd 0.30298 0.22425 0.51448 0.0
O129 O 0.31819 0.25126 0.56478 0.0
O130 O 0.3408 0.14289 0.55453 0.0
O131 O 0.3626 0.17035 0.52146 0.0
C132 C 0.362 0.14931 0.53871 0.0
C133 C 0.31515 0.24121 0.46461 0.0
C134 C 0.32646 0.23859 0.58698 0.0
C135 C 0.26223 0.15472 0.5127 0.0
O136 O 0.26491 0.18409 0.50952 0.0
O137 O 0.28427 0.14643 0.52087 0.0
O138 O 0.29862 0.25326 0.48236 0.0
O139 O 0.32615 0.22099 0.47562 0.0
O140 O 0.1975 1.01381 0.71908 0.0
Cd141 Cd 0.23467 1.0132 0.75323 0.0
Cd142 Cd 0.18259 0.05207 0.79796 0.0
O143 O 0.16542 0.03556 0.74432 0.0
O144 O 0.26366 0.9838 0.73428 0.0
O145 O 0.24012 0.97089 0.77159 0.0
C146 C 0.25825 0.96366 0.75297 0.0
C147 C 0.15864 0.05249 0.8514 0.0
C148 C 0.17453 0.02398 0.71776 0.0
C149 C 0.24752 0.09329 0.78766 0.0
O150 O 0.22287 0.08944 0.79817 0.0
O151 O 0.25522 0.06784 0.77351 0.0
O152 O 0.15463 0.06961 0.83109 0.0
O153 O 0.1749 0.03434 0.84173 0.0
O154 O 0.36093 0.96877 0.06824 0.0
Cd155 Cd 0.35885 0.98861 0.02921 0.0
Cd156 Cd 0.35183 0.92664 1.00283 0.0
O157 O 0.3352 0.91894 0.04329 0.0
O158 O 0.35107 0.03123 0.04485 0.0
O159 O 0.31954 0.98868 0.01145 0.0
C160 C 0.32565 0.01819 0.02898 0.0
C161 C 0.33609 0.88978 0.95405 0.0
C162 C 0.34721 0.93967 0.06909 0.0
C163 C 0.40884 0.97493 1.00511 0.0
O164 O 0.39522 0.94628 1.00702 0.0
O165 O 0.39633 0.99734 1.0085 0.0
O166 O 0.34884 0.88213 0.97717 0.0
O167 O 0.32993 0.91735 0.95972 0.0
O168 O 0.35407 0.39808 0.10704 0.0
Cd169 Cd 0.35885 0.42542 0.07263 0.0
Cd170 Cd 0.3702 0.36891 0.03635 0.0
O171 O 0.35429 0.35036 0.0773 0.0
O172 O 0.34179 0.46211 0.08815 0.0
O173 O 0.32353 0.42401 0.04397 0.0
C174 C 0.32212 0.44998 0.06377 0.0
C175 C 0.35356 0.34981 0.97921 0.0
C176 C 0.35142 0.36762 0.10424 0.0
C177 C 0.41906 0.43355 0.0545 0.0
O178 O 0.41199 0.40224 0.04512 0.0
O179 O 0.40041 0.4475 0.06425 0.0
O180 O 0.36751 0.33458 0.99416 0.0
O181 O 0.34681 0.37378 0.99685 0.0
O182 O 0.81074 0.14711 0.10287 0.0
Cd183 Cd 0.80178 0.10628 0.0662 0.0
Cd184 Cd 0.79816 0.14991 0.0352 0.0
O185 O 0.82834 0.17926 0.07189 0.0
O186 O 0.82492 0.07643 0.07166 0.0
O187 O 0.82816 0.10437 0.03365 0.0
C188 C 0.83649 0.08388 0.04721 0.0
C189 C 0.79846 0.17214 0.99091 0.0
C190 C 0.8241 0.17526 0.09934 0.0
C191 C 0.74409 0.10272 0.04721 0.0
O192 O 0.75641 0.13118 0.04347 0.0
O193 O 0.75893 0.08398 0.05244 0.0
O194 O 0.80611 0.14578 0.98973 0.0
O195 O 0.79146 0.1855 0.01717 0.0
O196 O 0.22306 0.52623 0.17357 0.0
Cd197 Cd 0.25568 0.55215 0.20995 0.0
Cd198 Cd 0.1969 0.56931 0.24028 0.0
O199 O 0.20158 0.527 0.21482 0.0
O200 O 0.29078 0.53891 0.20698 0.0
O201 O 0.26278 0.53145 0.2449 0.0
C202 C 0.28599 0.52948 0.23304 0.0
C203 C 0.16828 0.56999 0.27959 0.0
C204 C 0.19965 0.52297 0.18495 0.0
C205 C 0.25197 0.62275 0.236 0.0
O206 O 0.22598 0.61373 0.24112 0.0
O207 O 0.26542 0.60252 0.2249 0.0
O208 O 0.19376 0.56701 0.2847 0.0
O209 O 0.15871 0.57113 0.2513 0.0
O210 O 0.85761 0.89858 0.61411 0.0
Cd211 Cd 0.86358 0.92459 0.57881 0.0
Cd212 Cd 0.87341 0.86781 0.54384 0.0
O213 O 0.85777 0.85033 0.58562 0.0
O214 O 0.84625 0.96154 0.59159 0.0
O215 O 0.82986 0.92244 0.54766 0.0
C216 C 0.82789 0.94894 0.5661 0.0
C217 C 0.8551 0.84993 0.48706 0.0
C218 C 0.85484 0.86824 0.6122 0.0
C219 C 0.92345 0.93105 0.56058 0.0
O220 O 0.91576 0.89973 0.55111 0.0
O221 O 0.90532 0.94549 0.57093 0.0
O222 O 0.86844 0.83345 0.50105 0.0
O223 O 0.84978 0.87444 0.50553 0.0
O224 O 0.9715 0.08156 0.22454 0.0
Cd225 Cd 0.93408 0.08584 0.25344 0.0
Cd226 Cd 0.99293 0.05166 0.29572 0.0
O227 O 1.00612 0.06455 0.24845 0.0
O228 O 0.90473 0.11042 0.23272 0.0
O229 O 0.92731 0.13296 0.2793 0.0
C230 C 0.90928 0.13526 0.2569 0.0
C231 C 0.02001 0.05177 0.35045 0.0
C232 C 0.99567 0.07348 0.22381 0.0
C233 C 0.92316 1.01282 0.27602 0.0
O234 O 0.95004 0.01844 0.28602 0.0
O235 O 0.91404 0.03522 0.26541 0.0
O236 O 0.02041 0.03198 0.32381 0.0
O237 O 1.00632 0.07271 0.34651 0.0
O238 O 0.32812 0.65681 0.58809 0.0
Cd239 Cd 0.3112 0.61668 0.55069 0.0
Cd240 Cd 0.30766 0.66395 0.52444 0.0
O241 O 0.34155 0.69124 0.5577 0.0
O242 O 0.32657 0.58021 0.55684 0.0
O243 O 0.33597 0.60598 0.51778 0.0
C244 C 0.33972 0.58398 0.53246 0.0
C245 C 0.30377 0.68156 0.47753 0.0
C246 C 0.34114 0.68533 0.58506 0.0
C247 C 0.25519 0.625 0.54629 0.0
O248 O 0.26907 0.65251 0.54171 0.0
O249 O 0.26692 0.60202 0.54464 0.0
O250 O 0.30237 0.69928 0.50461 0.0
O251 O 0.30836 0.65357 0.47689 0.0
O252 O 0.4769 0.58287 0.73212 0.0
Cd253 Cd 0.43759 0.58638 0.75776 0.0
Cd254 Cd 0.49638 0.55582 0.80592 0.0
O255 O 0.51096 0.56767 0.75943 0.0
O256 O 0.40891 0.61085 0.73547 0.0
O257 O 0.42952 0.63282 0.78297 0.0
C258 C 0.41238 0.63528 0.75979 0.0
C259 C 0.52227 0.55569 0.86113 0.0
C260 C 0.5014 0.57552 0.73371 0.0
C261 C 0.42716 0.51457 0.78094 0.0
O262 O 0.45371 0.52288 0.79335 0.0
O263 O 0.41732 0.53532 0.76834 0.0
O264 O 0.52308 0.53587 0.83467 0.0
O265 O 0.50861 0.57654 0.85678 0.0
O266 O 0.72316 0.03832 0.70143 0.0
Cd267 Cd 0.75634 0.05354 0.73732 0.0
Cd268 Cd 0.71844 0.07031 0.77197 0.0
O269 O 0.69031 0.04213 0.73289 0.0
O270 O 0.78107 0.02469 0.7347 0.0
O271 O 0.75314 0.03131 0.77245 0.0
C272 C 0.77222 0.01842 0.76078 0.0
C273 C 0.70036 0.07488 0.82006 0.0
C274 C 0.69702 0.03421 0.70535 0.0
C275 C 0.76904 0.12325 0.76112 0.0
O276 O 0.74422 0.11522 0.7694 0.0
O277 O 0.78023 0.10155 0.74849 0.0
O278 O 0.69098 0.0858 0.79729 0.0
O279 O 0.71952 0.05968 0.81517 0.0
O280 O 0.82412 0.71668 0.0885 0.0
Cd281 Cd 0.82329 0.6833 0.04721 0.0
Cd282 Cd 0.80131 0.73218 0.02414 0.0
O283 O 0.81233 0.75801 0.0746 0.0
O284 O 0.83851 0.65296 0.06805 0.0
O285 O 0.85992 0.67505 0.03166 0.0
C286 C 0.85956 0.65682 0.05176 0.0
C287 C 0.8153 0.74977 0.97562 0.0
C288 C 0.81919 0.74426 0.0965 0.0
C289 C 0.76056 0.66242 0.01985 0.0
O290 O 0.76367 0.69198 0.01726 0.0
O291 O 0.78228 0.6537 0.02847 0.0
O292 O 0.79787 0.76136 0.99225 0.0
O293 O 0.82624 0.7298 0.98717 0.0
O294 O 0.94521 0.54515 0.77148 0.0
Cd295 Cd 0.92429 0.55546 0.81019 0.0
Cd296 Cd 0.97163 0.556 0.83738 0.0
O297 O 0.98646 0.57361 0.79982 0.0
O298 O 0.89082 0.56549 0.79245 0.0
O299 O 0.92603 0.60232 0.82764 0.0
C300 C 0.90201 0.59506 0.8092 0.0
C301 C 1.00429 0.57101 0.88282 0.0
C302 C 0.97185 0.55907 0.77291 0.0
C303 C 0.92081 0.49737 0.82959 0.0
O304 O 0.94759 0.50743 0.82861 0.0
O305 O 0.90606 0.51716 0.82932 0.0
O306 O 1.00792 0.5527 0.85714 0.0
O307 O 0.98206 0.5817 0.88269 0.0
O308 O 0.87021 0.45937 0.58237 0.0
Cd309 Cd 0.87112 0.48355 0.54618 0.0
Cd310 Cd 0.87364 0.42689 0.51459 0.0
O311 O 0.85729 0.4096 0.55157 0.0
O312 O 0.83321 0.48528 0.52565 0.0
O313 O 0.86125 0.52368 0.56575 0.0
C314 C 0.8376 0.5127 0.54637 0.0
C315 C 0.85825 0.39542 0.46358 0.0
C316 C 0.86188 0.42843 0.57909 0.0
C317 C 0.92723 0.48277 0.5271 0.0
O318 O 0.91647 0.4519 0.5217 0.0
O319 O 0.91126 0.50133 0.53343 0.0
O320 O 0.87381 0.38691 0.48366 0.0
O321 O 0.85016 0.42134 0.47308 0.0
O322 O 0.69894 0.51607 0.22837 0.0
Cd323 Cd 0.73593 0.51543 0.26251 0.0
Cd324 Cd 0.68507 0.55127 0.30804 0.0
O325 O 0.66682 0.53638 0.25484 0.0
O326 O 0.76376 0.48537 0.24214 0.0
O327 O 0.74326 0.47438 0.28202 0.0
C328 C 0.76004 0.46633 0.26198 0.0
C329 C 0.66311 0.54905 0.36215 0.0
C330 C 0.67591 0.52611 0.22788 0.0
C331 C 0.74795 0.59519 0.29659 0.0
O332 O 0.72377 0.59044 0.3081 0.0
O333 O 0.75606 0.57025 0.28198 0.0
O334 O 0.65731 0.56616 0.34261 0.0
O335 O 0.68005 0.53227 0.35132 0.0
Eu336 Eu 0.04934 0.03513 0.01808 0.0
C337 C 0.11708 0.15669 0.10295 0.0
C338 C 0.12329 0.19369 0.0673 0.0
C339 C 0.11793 0.21372 0.12235 0.0
C340 C 0.11989 0.16193 0.07268 0.0
C341 C 0.11703 0.18292 0.12831 0.0
C342 C 0.12122 0.21915 0.09194 0.0
C343 C 0.12106 0.14866 0.16474 0.0
N344 N 0.11752 0.1271 0.10832 0.0
C345 C 0.12187 0.12379 0.13904 0.0
C346 C 0.11778 0.17805 0.15925 0.0
Eu347 Eu 0.11612 0.08525 0.06225 0.0
N348 N 0.12193 0.13691 0.04923 0.0
C349 C 0.13033 0.143 0.0211 0.0
C350 C 0.12983 0.19932 0.03769 0.0
C351 C 0.13406 0.17407 0.01479 0.0
H352 H 0.12509 0.10132 0.14358 0.0
H353 H 0.14007 0.17843 0.99216 0.0
H354 H 0.12318 0.24345 0.088 0.0
H355 H 0.12323 0.14525 0.18877 0.0
H356 H 0.13419 0.12423 1.00317 0.0
H357 H 0.02368 0.94743 0.0936 0.0
H358 H 0.13261 0.22334 0.03267 0.0
H359 H 0.04505 1.01364 0.93623 0.0
H360 H 0.02928 0.99988 0.07886 0.0
H361 H 0.05152 0.96891 0.89541 0.0
H362 H 0.11753 0.23396 0.14146 0.0
H363 H 0.03418 0.90162 0.05722 0.0
H364 H 0.04806 0.8796 1.00474 0.0
H365 H 0.11734 0.19741 0.17923 0.0
H366 H 0.05715 0.88615 0.95113 0.0
N367 N 0.04424 0.98537 0.03472 0.0
C368 C 0.03458 0.98076 0.06276 0.0
C369 C 0.0368 0.92485 0.05053 0.0
C370 C 0.04509 0.929 0.0211 0.0
C371 C 0.03092 0.95065 0.07114 0.0
C372 C 0.04808 0.95975 0.0134 0.0
H373 H 0.05818 0.91911 0.91009 0.0
N374 N 0.05215 0.99187 0.9751 0.0
C375 C 0.05256 0.96724 0.92004 0.0
C376 C 0.0529 0.96338 0.98303 0.0
C377 C 0.04943 0.99284 0.9435 0.0
C378 C 0.0563 0.93922 0.92843 0.0
C379 C 0.0553 0.93643 0.95992 0.0
O380 O 1.01082 1.01044 0.98397 0.0
O381 O 0.07702 0.08842 0.03195 0.0
O382 O 0.08404 0.07487 0.10061 0.0
O383 O 0.0393 0.05328 0.07046 0.0
O384 O 0.04086 0.07827 1.00006 0.0
O385 O 1.00679 0.03483 0.0323 0.0
O386 O 0.15665 0.1078 0.09359 0.0
O387 O 0.0885 0.03212 0.04859 0.0
O388 O 0.07903 0.04938 0.97942 0.0
O389 O 0.12432 0.06967 1.00842 0.0
O390 O 0.12397 0.04243 0.08151 0.0
O391 O 0.15687 0.081 0.04512 0.0
C392 C 0.06181 0.1025 0.01647 0.0
C393 C 0.96265 1.00611 0.99536 0.0
C394 C 0.91563 1.01432 0.99876 0.0
C395 C 0.94543 0.02526 1.00814 0.0
C396 C 0.90303 0.98369 0.97755 0.0
C397 C 0.94988 0.97568 0.97386 0.0
C398 C 0.92016 0.96436 0.96538 0.0
C399 C 0.05529 0.06551 0.09922 0.0
C400 C 0.99387 1.0176 1.0042 0.0
C401 C 0.05485 0.90683 0.96843 0.0
C402 C 0.04958 0.90305 0.99891 0.0
C403 C 0.10355 0.01812 0.06441 0.0
C404 C 0.20333 0.10602 0.07959 0.0
C405 C 0.2189 0.08729 0.06203 0.0
C406 C 0.24865 0.09363 0.0713 0.0
C407 C 0.26248 0.11952 0.09782 0.0
C408 C 0.21785 0.1319 0.10566 0.0
C409 C 0.24725 0.13867 0.11454 0.0
C410 C 0.10754 0.05879 0.98004 0.0
C411 C 0.17178 0.09771 0.07252 0.0
H412 H 0.95516 0.04882 0.02476 0.0
H413 H 0.87995 0.9746 0.97082 0.0
H414 H 0.96286 0.96044 0.964 0.0
H415 H 0.91046 0.94046 0.94953 0.0
H416 H 0.20781 0.06767 0.04161 0.0
H417 H 0.28513 0.12474 0.10608 0.0
H418 H 0.20641 0.14677 0.11945 0.0
H419 H 0.2582 0.15854 0.13478 0.0
Eu420 Eu 0.34268 0.79789 0.2355 0.0
C421 C 0.3223 0.90236 0.33175 0.0
C422 C 0.36523 0.92658 0.37017 0.0
C423 C 0.33893 0.96166 0.35319 0.0
C424 C 0.34526 0.89872 0.3496 0.0
C425 C 0.31803 0.93371 0.33471 0.0
C426 C 0.36262 0.95811 0.37081 0.0
C427 C 0.27036 0.90698 0.30651 0.0
N428 N 0.30239 0.87486 0.31439 0.0
C429 C 0.27558 0.87665 0.3048 0.0
C430 C 0.29209 0.93581 0.3206 0.0
Eu431 Eu 0.31349 0.82372 0.30914 0.0
N432 N 0.34651 0.86777 0.34917 0.0
C433 C 0.36493 0.86326 0.37222 0.0
C434 C 0.38644 0.92186 0.39061 0.0
C435 C 0.38577 0.89 0.39224 0.0
H436 H 0.25788 0.85466 0.2961 0.0
H437 H 0.4009 0.88599 0.40946 0.0
H438 H 0.37807 0.97975 0.38596 0.0
H439 H 0.24937 0.90801 0.29763 0.0
H440 H 0.36366 0.83918 0.37604 0.0
H441 H 0.24324 0.72876 0.15222 0.0
H442 H 0.4023 0.94257 0.40653 0.0
H443 H 0.39844 0.76842 0.25619 0.0
H444 H 0.2774 0.77679 0.18536 0.0
H445 H 0.40879 0.71642 0.25173 0.0
H446 H 0.33635 0.98595 0.35507 0.0
H447 H 0.25174 0.67474 0.14574 0.0
H448 H 0.28212 0.64079 0.15972 0.0
H449 H 0.28795 0.95934 0.32235 0.0
H450 H 0.32643 0.63723 0.18738 0.0
N451 N 0.30586 0.75176 0.20225 0.0
C452 C 0.28185 0.75405 0.18522 0.0
C453 C 0.26687 0.69594 0.16177 0.0
C454 C 0.29151 0.69334 0.17818 0.0
C455 C 0.26204 0.72639 0.16534 0.0
C456 C 0.31105 0.722 0.19834 0.0
H457 H 0.37334 0.66496 0.22158 0.0
N458 N 0.35477 0.7476 0.23314 0.0
C459 C 0.38794 0.71683 0.24166 0.0
C460 C 0.33601 0.71988 0.21419 0.0
C461 C 0.38132 0.74652 0.24505 0.0
C462 C 0.36802 0.68795 0.22441 0.0
C463 C 0.342 0.68924 0.20984 0.0
O464 O 0.38679 0.80974 0.22515 0.0
O465 O 0.34697 0.83674 0.27892 0.0
O466 O 0.28579 0.82721 0.26447 0.0
O467 O 0.30835 0.8205 0.21904 0.0
O468 O 0.35068 0.85195 0.23668 0.0
O469 O 0.35154 0.79731 0.18692 0.0
O470 O 0.26774 0.80277 0.31014 0.0
O471 O 0.30964 0.78302 0.26646 0.0
O472 O 0.37605 0.80463 0.27956 0.0
O473 O 0.35323 0.80884 0.32489 0.0
O474 O 0.31309 0.77248 0.31151 0.0
O475 O 0.29733 0.81854 0.35398 0.0
C476 C 0.35169 0.86131 0.26708 0.0
C477 C 0.39432 0.83814 0.18472 0.0
C478 C 0.39309 0.88399 0.16109 0.0
C479 C 0.3788 0.85612 0.1713 0.0
C480 C 0.42332 0.89444 0.16526 0.0
C481 C 0.42447 0.84884 0.18887 0.0
C482 C 0.43888 0.87705 0.17937 0.0
C483 C 0.2872 0.82767 0.23392 0.0
C484 C 0.37932 0.80895 0.19547 0.0
C485 C 0.32224 0.66086 0.19057 0.0
C486 C 0.29708 0.66291 0.17477 0.0
C487 C 0.30961 0.76074 0.28117 0.0
C488 C 0.2576 0.77069 0.34765 0.0
C489 C 0.27313 0.75689 0.3667 0.0
C490 C 0.26 0.7267 0.37386 0.0
C491 C 0.23121 0.70989 0.36109 0.0
C492 C 0.22889 0.75355 0.33503 0.0
C493 C 0.21587 0.72319 0.34157 0.0
C494 C 0.3756 0.8052 0.31041 0.0
C495 C 0.27121 0.80243 0.34012 0.0
H496 H 0.3555 0.84831 0.16839 0.0
H497 H 0.43492 0.91535 0.15672 0.0
H498 H 0.43681 0.83542 0.19953 0.0
H499 H 0.46213 0.88513 0.18243 0.0
H500 H 0.2954 0.76975 0.37635 0.0
H501 H 0.22026 0.68706 0.36703 0.0
H502 H 0.21655 0.76366 0.32011 0.0
H503 H 0.19366 0.71021 0.33195 0.0
Eu504 Eu 0.63475 0.06031 0.53929 0.0
C505 C 0.5365 1.00911 0.61342 0.0
C506 C 0.51012 0.95522 0.58105 0.0
C507 C 0.50932 0.96728 0.63819 0.0
C508 C 0.52825 0.98737 0.58403 0.0
C509 C 0.52642 0.99965 0.64074 0.0
C510 C 0.50129 0.94505 0.6084 0.0
C511 C 0.54861 0.05566 0.67044 0.0
N512 N 0.55266 0.04033 0.61489 0.0
C513 C 0.55825 0.06382 0.64272 0.0
C514 C 0.53287 0.02336 0.66953 0.0
Eu515 Eu 0.56578 0.05324 0.56639 0.0
N516 N 0.5362 0.99842 0.55804 0.0
C517 C 0.52539 0.97929 0.52824 0.0
C518 C 0.50044 0.93475 0.55057 0.0
C519 C 0.50781 0.94703 0.524 0.0
H520 H 0.57018 0.08891 0.64372 0.0
H521 H 0.49988 0.93175 0.50026 0.0
H522 H 0.48747 0.92041 0.60663 0.0
H523 H 0.55333 0.0743 0.69247 0.0
H524 H 0.53062 0.98872 0.50763 0.0
H525 H 0.69744 0.18495 0.60191 0.0
H526 H 0.48656 0.90986 0.54725 0.0
H527 H 0.63543 0.0204 0.46402 0.0
H528 H 0.66931 0.12747 0.59742 0.0
H529 H 0.6522 0.03404 0.41452 0.0
H530 H 0.50156 0.95946 0.65896 0.0
H531 H 0.70824 0.20489 0.55337 0.0
H532 H 0.70669 0.19209 0.49413 0.0
H533 H 0.52536 1.01714 0.69102 0.0
H534 H 0.69482 0.15095 0.44323 0.0
N535 N 0.6626 0.11544 0.54674 0.0
C536 C 0.67349 0.13592 0.576 0.0
C537 C 0.69556 0.17968 0.55121 0.0
C538 C 0.68631 0.15777 0.52136 0.0
C539 C 0.6896 0.16851 0.57867 0.0
C540 C 0.66971 0.12521 0.51978 0.0
H541 H 0.67547 0.09194 0.41361 0.0
N542 N 0.64795 0.07032 0.49006 0.0
C543 C 0.65494 0.05339 0.43567 0.0
C544 C 0.66248 0.10203 0.49077 0.0
C545 C 0.6455 0.04575 0.46361 0.0
C546 C 0.66805 0.08612 0.43527 0.0
C547 C 0.67242 0.11083 0.46311 0.0
O548 O 0.65721 0.02389 0.52403 0.0
O549 O 0.5907 0.02334 0.53722 0.0
O550 O 0.59391 0.03852 0.60105 0.0
O551 O 0.63584 0.07298 0.59236 0.0
O552 O 0.62561 1.0081 0.54685 0.0
O553 O 0.67967 0.06931 0.55869 0.0
O554 O 0.54277 0.08958 0.58068 0.0
O555 O 0.60439 0.09073 0.55488 0.0
O556 O 0.60523 0.05879 0.49595 0.0
O557 O 0.56047 0.04633 0.51352 0.0
O558 O 0.58928 0.10405 0.59699 0.0
O559 O 0.52419 0.04905 0.54044 0.0
C560 C 0.59812 0.99853 0.54267 0.0
C561 C 0.70803 0.04005 0.52938 0.0
C562 C 0.7493 0.01826 0.52703 0.0
C563 C 0.72457 0.02154 0.54056 0.0
C564 C 0.7572 0.03373 0.5022 0.0
C565 C 0.71662 0.05576 0.505 0.0
C566 C 0.74105 0.05251 0.49144 0.0
C567 C 0.62185 0.05223 0.60806 0.0
C568 C 0.68119 0.04108 0.5424 0.0
C569 C 0.68746 0.14366 0.46437 0.0
C570 C 0.69425 0.16709 0.49338 0.0
C571 C 0.60718 0.11506 0.57867 0.0
C572 C 0.49219 0.07115 0.56938 0.0
C573 C 0.47391 0.08784 0.55824 0.0
C574 C 0.44649 0.08421 0.56794 0.0
C575 C 0.43782 0.06375 0.58896 0.0
C576 C 0.48297 0.05083 0.59017 0.0
C577 C 0.45595 0.0472 0.59992 0.0
C578 C 0.57701 0.05195 0.49146 0.0
C579 C 0.52065 0.07481 0.55897 0.0
H580 H 0.71792 1.00919 0.55932 0.0
H581 H 0.77613 0.03163 0.4914 0.0
H582 H 0.70444 0.07033 0.49627 0.0
H583 H 0.74746 0.06452 0.47246 0.0
H584 H 0.48084 0.10313 0.54174 0.0
H585 H 0.41702 0.06071 0.59712 0.0
H586 H 0.49657 0.03772 0.59882 0.0
H587 H 0.44903 0.0315 0.61604 0.0
Eu588 Eu 0.3019 0.30938 0.77896 0.0
C589 C 0.39758 0.27053 0.84408 0.0
C590 C 0.4134 0.3151 0.89117 0.0
C591 C 0.41846 0.26138 0.89296 0.0
C592 C 0.40046 0.30267 0.85915 0.0
C593 C 0.4074 0.24981 0.86053 0.0
C594 C 0.42147 0.29401 0.90826 0.0
C595 C 0.39862 0.20949 0.81072 0.0
N596 N 0.38766 0.26049 0.81257 0.0
C597 C 0.38952 0.23111 0.79545 0.0
C598 C 0.40711 0.21863 0.84355 0.0
Eu599 Eu 0.37096 0.29745 0.78801 0.0
N600 N 0.39285 0.32248 0.84175 0.0
C601 C 0.39997 0.35565 0.85437 0.0
C602 C 0.41891 0.34862 0.9047 0.0
C603 C 0.41267 0.36908 0.886 0.0
H604 H 0.38311 0.22398 0.76997 0.0
H605 H 0.4174 0.3952 0.896 0.0
H606 H 0.431 0.303 0.933 0.0
H607 H 0.3992 0.18588 0.79713 0.0
H608 H 0.39489 0.37201 0.84083 0.0
H609 H 0.25537 0.20677 0.67495 0.0
H610 H 0.42874 0.3591 0.92921 0.0
H611 H 0.29293 0.3845 0.79392 0.0
H612 H 0.28186 0.23356 0.72799 0.0
H613 H 0.27278 0.41937 0.76598 0.0
H614 H 0.42574 0.24569 0.9061 0.0
H615 H 0.23598 0.23878 0.6426 0.0
H616 H 0.22877 0.29256 0.63778 0.0
H617 H 0.41445 0.20199 0.85532 0.0
H618 H 0.23445 0.35063 0.662 0.0
N619 N 0.27831 0.28124 0.72663 0.0
C620 C 0.27357 0.24824 0.71472 0.0
C621 C 0.24765 0.25088 0.66615 0.0
C622 C 0.25169 0.28435 0.67869 0.0
C623 C 0.25853 0.23274 0.68433 0.0
C624 C 0.26716 0.29903 0.70948 0.0
H625 H 0.25072 0.39802 0.70968 0.0
N626 N 0.28421 0.34472 0.75317 0.0
C627 C 0.27232 0.39495 0.75345 0.0
C628 C 0.2708 0.33189 0.72286 0.0
C629 C 0.28378 0.37519 0.76912 0.0
C630 C 0.25995 0.38283 0.72167 0.0
C631 C 0.25844 0.35071 0.70619 0.0
O632 O 0.27384 0.32747 0.81083 0.0
O633 O 0.33495 0.3045 0.81547 0.0
O634 O 0.3402 0.24666 0.79058 0.0
O635 O 0.29533 0.25482 0.78303 0.0
O636 O 0.31973 0.34499 0.8267 0.0
O637 O 0.26021 0.27715 0.78427 0.0
O638 O 0.4017 0.28113 0.75885 0.0
O639 O 0.33808 0.30203 0.75019 0.0
O640 O 0.33258 0.35949 0.77354 0.0
O641 O 0.37689 0.35235 0.78667 0.0
O642 O 0.35169 0.2605 0.74227 0.0
O643 O 0.41082 0.332 0.78165 0.0
C644 C 0.3352 0.32888 0.83781 0.0
C645 C 0.22355 0.30147 0.79905 0.0
C646 C 0.17601 0.29579 0.81614 0.0
C647 C 0.20465 0.29488 0.82169 0.0
C648 C 0.16672 0.30385 0.78821 0.0
C649 C 0.21352 0.3092 0.77128 0.0
C650 C 0.18541 0.31063 0.76604 0.0
C651 C 0.31158 0.23529 0.78725 0.0
C652 C 0.25339 0.29977 0.80422 0.0
C653 C 0.24387 0.33648 0.67522 0.0
C654 C 0.24052 0.30338 0.66149 0.0
C655 C 0.3379 0.27667 0.72873 0.0
C656 C 0.45055 0.31122 0.7761 0.0
C657 C 0.47118 0.31175 0.75487 0.0
C658 C 0.49953 0.31278 0.76579 0.0
C659 C 0.50679 0.31326 0.79794 0.0
C660 C 0.45869 0.31229 0.80812 0.0
C661 C 0.48652 0.31313 0.81891 0.0
C662 C 0.36118 0.37155 0.77983 0.0
C663 C 0.42068 0.30982 0.76526 0.0
H664 H 0.21199 0.28851 0.84312 0.0
H665 H 0.14486 0.30472 0.78349 0.0
H666 H 0.22726 0.31385 0.75347 0.0
H667 H 0.17799 0.3167 0.74451 0.0
H668 H 0.46517 0.31103 0.73008 0.0
H669 H 0.52838 0.31415 0.80696 0.0
H670 H 0.4436 0.31276 0.82493 0.0
H671 H 0.49245 0.31383 0.84368 0.0
Eu672 Eu 0.09046 0.07553 0.54834 0.0
C673 C 0.11195 0.98822 0.44251 0.0
C674 C 0.06566 0.96934 0.40901 0.0
C675 C 0.10945 0.97698 0.38472 0.0
C676 C 0.08212 0.97979 0.43956 0.0
C677 C 0.12577 0.98607 0.41494 0.0
C678 C 0.07949 0.96871 0.38176 0.0
C679 C 0.17075 0.99793 0.44857 0.0
N680 N 0.12734 0.99644 0.47201 0.0
C681 C 0.15616 0.99914 0.47507 0.0
C682 C 0.15558 0.99198 0.4184 0.0
Eu683 Eu 0.10019 0.99918 0.51562 0.0
N684 N 0.06909 0.9805 0.46627 0.0
C685 C 0.03977 0.96866 0.46375 0.0
C686 C 0.03569 0.95922 0.40659 0.0
C687 C 0.02273 0.95843 0.43406 0.0
H688 H 0.16811 1.00198 0.49804 0.0
H689 H 0.99955 0.94986 0.43241 0.0
H690 H 0.06716 0.96116 0.35823 0.0
H691 H 0.19363 1.001 0.4514 0.0
H692 H 0.02891 0.96718 0.48428 0.0
H693 H 0.18932 0.1123 0.63245 0.0
H694 H 0.02239 0.95124 0.3836 0.0
H695 H 0.02953 0.09435 0.5598 0.0
H696 H 0.15971 0.09277 0.57992 0.0
H697 H 1.00483 0.11338 0.6045 0.0
H698 H 0.11978 0.97558 0.36341 0.0
H699 H 0.16684 0.12528 0.68085 0.0
H700 H 0.12285 0.13136 0.70493 0.0
H701 H 0.16691 0.99064 0.39782 0.0
H702 H 0.07234 0.13122 0.69735 0.0
N703 N 0.1205 0.09311 0.59807 0.0
C704 C 0.14953 0.09801 0.60068 0.0
C705 C 0.15368 0.11649 0.65776 0.0
C706 C 0.12426 0.11348 0.65476 0.0
C707 C 0.16645 0.10926 0.63052 0.0
C708 C 0.10808 0.1019 0.62413 0.0
H709 H 0.02833 0.12518 0.65996 0.0
N710 N 0.06563 0.0935 0.58983 0.0
C711 C 0.02573 0.10986 0.60922 0.0
C712 C 0.0797 0.10189 0.61989 0.0
C713 C 0.03967 0.09896 0.58402 0.0
C714 C 0.03904 0.11644 0.64047 0.0
C715 C 0.06667 0.1133 0.64612 0.0
O716 O 0.07556 0.1143 0.53422 0.0
O717 O 0.08746 0.04161 0.49936 0.0
O718 O 0.14422 0.03784 0.52489 0.0
O719 O 0.12836 0.0819 0.52074 0.0
O720 O 0.05284 0.05959 0.50804 0.0
O721 O 0.12098 0.12311 0.54988 0.0
O722 O 0.11733 0.95745 0.50463 0.0
O723 O 0.10736 0.03574 0.56367 0.0
O724 O 0.04948 0.03992 0.55646 0.0
O725 O 0.05642 0.98999 0.5333 0.0
O726 O 0.12442 0.99798 0.56243 0.0
O727 O 0.07614 0.95108 0.52192 0.0
C728 C 0.06354 0.04378 0.48571 0.0
C729 C 0.10507 0.16946 0.54728 0.0
C730 C 0.11496 0.22062 0.53018 0.0
C731 C 0.11245 0.18711 0.5241 0.0
C732 C 0.11016 0.23655 0.56004 0.0
C733 C 0.10058 0.18526 0.57718 0.0
C734 C 0.10325 0.21893 0.58353 0.0
C735 C 0.14872 0.06744 0.51943 0.0
C736 C 0.10138 0.13441 0.53831 0.0
C737 C 0.0821 0.12275 0.67688 0.0
C738 C 0.11087 0.12287 0.68119 0.0
C739 C 0.12059 0.02228 0.58234 0.0
C740 C 0.10718 0.92426 0.54169 0.0
C741 C 0.08686 0.90354 0.55536 0.0
C742 C 0.09554 0.89315 0.58205 0.0
C743 C 0.12465 0.90338 0.59502 0.0
C744 C 0.13647 0.93357 0.55443 0.0
C745 C 0.14503 0.92332 0.58108 0.0
C746 C 0.04063 1.00743 0.54768 0.0
C747 C 0.09736 0.93865 0.5165 0.0
H748 H 0.11533 0.17443 0.50079 0.0
H749 H 0.11169 0.26248 0.56509 0.0
H750 H 0.0948 0.17162 0.59523 0.0
H751 H 0.09963 0.23129 0.60651 0.0
H752 H 0.06427 0.89608 0.54573 0.0
H753 H 0.13165 0.89535 0.61554 0.0
H754 H 0.1527 0.94962 0.54451 0.0
H755 H 0.16749 0.93101 0.59104 0.0
Eu756 Eu 0.37151 0.82604 0.76697 0.0
C757 C 0.29572 0.72622 0.80491 0.0
C758 C 0.3067 0.67746 0.77743 0.0
C759 C 0.29816 0.68326 0.83248 0.0
C760 C 0.30334 0.70885 0.77809 0.0
C761 C 0.29179 0.71279 0.83189 0.0
C762 C 0.30544 0.6655 0.80519 0.0
C763 C 0.26923 0.7542 0.85258 0.0
N764 N 0.28851 0.75393 0.80307 0.0
C765 C 0.27279 0.76591 0.82497 0.0
C766 C 0.27959 0.72811 0.85651 0.0
Eu767 Eu 0.29913 0.77425 0.75666 0.0
N768 N 0.30452 0.72103 0.75161 0.0
C769 C 0.30648 0.70197 0.72305 0.0
C770 C 0.30967 0.65827 0.74846 0.0
C771 C 0.30866 0.67021 0.72096 0.0
H772 H 0.26392 0.78554 0.82178 0.0
H773 H 0.31024 0.65528 0.69828 0.0
H774 H 0.3087 0.64183 0.80534 0.0
H775 H 0.25818 0.76502 0.87058 0.0
H776 H 0.30604 0.71095 0.70163 0.0
H777 H 0.34887 0.93871 0.82348 0.0
H778 H 0.31191 0.63387 0.74688 0.0
H779 H 0.41592 0.81863 0.71153 0.0
H780 H 0.3519 0.88221 0.81781 0.0
H781 H 0.43403 0.84542 0.66898 0.0
H782 H 0.29582 0.67295 0.85323 0.0
H783 H 0.36261 0.96826 0.78125 0.0
H784 H 0.38124 0.96855 0.72891 0.0
H785 H 0.27633 0.71864 0.87766 0.0
H786 H 0.4026 0.94193 0.68539 0.0
N787 N 0.36497 0.87864 0.77197 0.0
C788 C 0.35683 0.89432 0.79877 0.0
C789 C 0.36345 0.94318 0.77844 0.0
C790 C 0.3729 0.92747 0.75158 0.0
C791 C 0.3556 0.92659 0.80228 0.0
C792 C 0.37364 0.89477 0.74905 0.0
H793 H 0.42251 0.89607 0.66285 0.0
N794 N 0.39078 0.85072 0.72603 0.0
C795 C 0.42022 0.85513 0.68415 0.0
C796 C 0.38626 0.87999 0.72489 0.0
C797 C 0.40958 0.83974 0.70791 0.0
C798 C 0.41362 0.88366 0.68074 0.0
C799 C 0.39757 0.89725 0.70214 0.0
O800 O 0.41618 0.82744 0.77566 0.0
O801 O 0.34623 0.77219 0.76342 0.0
O802 O 0.30921 0.81008 0.80427 0.0
O803 O 0.35815 0.82152 0.81508 0.0
O804 O 0.3897 0.782 0.76458 0.0
O805 O 0.40066 0.86226 0.80718 0.0
O806 O 0.25515 0.77545 0.75604 0.0
O807 O 0.32424 0.82775 0.7569 0.0
O808 O 0.36218 0.79839 0.71609 0.0
O809 O 0.31336 0.76988 0.70796 0.0
O810 O 0.28059 0.81481 0.74688 0.0
O811 O 0.26439 0.73706 0.72221 0.0
C812 C 0.36708 0.75789 0.76352 0.0
C813 C 0.44908 0.87845 0.79658 0.0
C814 C 0.50043 0.89099 0.7939 0.0
C815 C 0.47538 0.87245 0.80302 0.0
C816 C 0.499 0.91699 0.77966 0.0
C817 C 0.44805 0.90489 0.78308 0.0
C818 C 0.47299 0.92413 0.77472 0.0
C819 C 0.33307 0.82093 0.8242 0.0
C820 C 0.42301 0.85327 0.79908 0.0
C821 C 0.39437 0.92854 0.7029 0.0
C822 C 0.3823 0.94375 0.72775 0.0
C823 C 0.30271 0.84017 0.75137 0.0
C824 C 0.21895 0.72657 0.74157 0.0
C825 C 0.19328 0.7348 0.73816 0.0
C826 C 0.17009 0.72137 0.75341 0.0
C827 C 0.17225 0.69721 0.77 0.0
C828 C 0.22086 0.70253 0.75814 0.0
C829 C 0.19733 0.68754 0.77187 0.0
C830 C 0.33876 0.77824 0.69824 0.0
C831 C 0.24451 0.74877 0.73395 0.0
H832 H 0.47601 0.85271 0.81459 0.0
H833 H 0.5179 0.93169 0.7722 0.0
H834 H 0.42805 0.91027 0.77842 0.0
H835 H 0.47204 0.94419 0.7638 0.0
H836 H 0.19196 0.75276 0.72447 0.0
H837 H 0.15483 0.68627 0.78209 0.0
H838 H 0.2407 0.69625 0.76142 0.0
H839 H 0.1989 0.66925 0.785 0.0
Eu840 Eu 0.58218 0.02868 0.06327 0.0
C841 C 0.50794 0.05825 0.95237 0.0
C842 C 0.4864 1.00395 0.91846 0.0
C843 C 0.46389 0.04689 0.91603 0.0
C844 C 0.5088 0.02641 0.94163 0.0
C845 C 0.4856 0.0689 0.93948 0.0
C846 C 0.46425 1.01445 0.90561 0.0
C847 C 0.50783 0.12276 0.97341 0.0
N848 N 0.52869 0.07888 0.97565 0.0
C849 C 0.52922 0.11104 0.98572 0.0
C850 C 0.48573 0.10151 0.95039 0.0
Eu851 Eu 0.56712 0.06035 0.99367 0.0
N852 N 0.53044 1.0169 0.9549 0.0
C853 C 0.52856 0.98389 0.94741 0.0
C854 C 0.48625 0.97124 0.90942 0.0
C855 C 0.50718 0.96111 0.92436 0.0
H856 H 0.54611 0.12799 1.00359 0.0
H857 H 0.50639 0.9354 0.91891 0.0
H858 H 0.44708 0.99752 0.88783 0.0
H859 H 0.50837 0.14818 0.98182 0.0
H860 H 0.54186 0.97339 0.96008 0.0
H861 H 0.65475 0.15035 0.12403 0.0
H862 H 0.46943 0.95336 0.89189 0.0
H863 H 0.59374 0.95519 0.05445 0.0
H864 H 0.61059 0.11141 0.09316 0.0
H865 H 0.6324 0.93132 0.06741 0.0
H866 H 0.44661 0.05466 0.90596 0.0
H867 H 0.69569 0.13085 0.13946 0.0
H868 H 0.71651 0.08393 0.13829 0.0
H869 H 0.46903 0.11058 0.941 0.0
H870 H 0.71067 0.02458 0.12245 0.0
N871 N 0.62497 0.06893 0.09207 0.0
C872 C 0.62753 0.10185 0.10048 0.0
C873 C 0.67595 0.11329 0.12641 0.0
C874 C 0.67339 0.07973 0.11771 0.0
C875 C 0.65288 0.12436 0.1178 0.0
C876 C 0.64725 0.05788 0.10055 0.0
H877 H 0.67947 0.96759 0.09614 0.0
N878 N 0.61905 1.00463 0.07409 0.0
C879 C 0.63615 0.95767 0.074 0.0
C880 C 0.64418 0.0247 0.09122 0.0
C881 C 0.61442 0.97132 0.06639 0.0
C882 C 0.66261 0.9782 0.09032 0.0
C883 C 0.66685 1.01213 0.09936 0.0
O884 O 0.56553 0.99026 0.08829 0.0
O885 O 0.54904 0.03345 0.0283 0.0
O886 O 0.54838 0.08527 0.03556 0.0
O887 O 0.5655 0.07166 0.08111 0.0
O888 O 0.54333 0.98701 0.0358 0.0
O889 O 0.56352 0.03976 0.10657 0.0
O890 O 0.59081 0.11252 1.0052 0.0
O891 O 0.5997 0.06451 0.03483 0.0
O892 O 0.5918 0.99596 0.02007 0.0
O893 O 0.58298 1.01623 0.97474 0.0
O894 O 0.61289 0.06011 0.98951 0.0
O895 O 0.57893 0.08534 0.95575 0.0
C896 C 0.53225 1.00491 0.02138 0.0
C897 C 0.56594 1.00811 0.14365 0.0
C898 C 0.55443 0.0177 0.19722 0.0
C899 C 0.54977 0.01972 0.16579 0.0
C900 C 0.57552 1.00394 0.20691 0.0
C901 C 0.58744 0.99466 0.15306 0.0
C902 C 0.59215 0.9926 0.18476 0.0
C903 C 0.55179 0.08841 0.06686 0.0
C904 C 0.55889 1.01022 0.1111 0.0
C905 C 0.69294 0.03374 0.11625 0.0
C906 C 0.69623 0.0675 0.12534 0.0
C907 C 0.62088 0.06412 0.01954 0.0
C908 C 0.62466 0.12562 0.97038 0.0
C909 C 0.63526 0.10965 0.9446 0.0
C910 C 0.66387 0.12153 0.93966 0.0
C911 C 0.68236 0.14923 0.9614 0.0
C912 C 0.64332 0.15347 0.99183 0.0
C913 C 0.67209 0.16496 0.98748 0.0
C914 C 0.59111 0.99509 0.9892 0.0
C915 C 0.59463 0.11247 0.97569 0.0
H916 H 0.53308 0.03003 0.15845 0.0
H917 H 0.57901 1.00194 0.23131 0.0
H918 H 0.60031 0.98568 0.13609 0.0
H919 H 0.60853 0.98202 0.19211 0.0
H920 H 0.62122 0.08793 0.92803 0.0
H921 H 0.70441 0.1593 0.95771 0.0
H922 H 0.63572 0.16611 0.0121 0.0
H923 H 0.68635 0.1864 1.00411 0.0
Eu924 Eu 0.35691 0.3373 0.3023 0.0
C925 C 0.23685 0.24763 0.22954 0.0
C926 C 0.206 0.23763 0.26982 0.0
C927 C 0.18499 0.23601 0.21685 0.0
C928 C 0.23382 0.24555 0.26055 0.0
C929 C 0.21227 0.24174 0.20709 0.0
C930 C 0.18183 0.23384 0.24814 0.0
C931 C 0.24246 0.2418 0.16573 0.0
N932 N 0.26337 0.25236 0.22052 0.0
C933 C 0.26591 0.24702 0.18868 0.0
C934 C 0.21555 0.23993 0.17508 0.0
Eu935 Eu 0.30292 0.25925 0.26021 0.0
N936 N 0.25765 0.24923 0.28108 0.0
C937 C 0.25418 0.24232 0.31039 0.0
C938 C 0.20302 0.23266 0.30033 0.0
C939 C 0.22718 0.2346 0.32051 0.0
H940 H 0.28595 0.24541 0.1808 0.0
H941 H 0.22506 0.22996 0.34396 0.0
H942 H 0.16049 0.22826 0.25509 0.0
H943 H 0.24505 0.23822 0.14077 0.0
H944 H 0.27164 0.24256 0.32697 0.0
H945 H 0.44188 0.35948 0.22498 0.0
H946 H 0.18209 0.22641 0.30821 0.0
H947 H 0.3707 0.35703 0.38267 0.0
H948 H 0.39541 0.35876 0.24143 0.0
H949 H 0.40891 0.3603 0.4249 0.0
H950 H 0.1661 0.23211 0.20007 0.0
H951 H 0.47886 0.34893 0.25997 0.0
H952 H 0.49502 0.34203 0.31352 0.0
H953 H 0.19719 0.23518 0.15721 0.0
H954 H 0.48628 0.34301 0.36876 0.0
N955 N 0.40329 0.34374 0.28475 0.0
C956 C 0.41014 0.35244 0.25693 0.0
C957 C 0.45791 0.34772 0.26728 0.0
C958 C 0.45216 0.34277 0.29727 0.0
C959 C 0.43712 0.35371 0.24751 0.0
C960 C 0.42444 0.34132 0.30563 0.0
H961 H 0.45467 0.3511 0.41072 0.0
N962 N 0.39373 0.34376 0.34467 0.0
C963 C 0.41205 0.35442 0.40017 0.0
C964 C 0.41949 0.34143 0.33663 0.0
C965 C 0.39045 0.35242 0.37616 0.0
C966 C 0.43777 0.34911 0.39205 0.0
C967 C 0.4421 0.34348 0.36007 0.0
O968 O 0.37417 0.38698 0.33185 0.0
O969 O 0.30977 0.31092 0.28704 0.0
O970 O 0.31186 0.29184 0.22359 0.0
O971 O 0.34972 0.33794 0.24921 0.0
O972 O 0.3225 0.33938 0.33369 0.0
O973 O 0.34344 0.37782 0.29002 0.0
O974 O 0.28961 0.21242 0.22497 0.0
O975 O 0.34999 0.2853 0.27599 0.0
O976 O 0.34809 0.30599 0.33934 0.0
O977 O 0.31512 0.25631 0.31233 0.0
O978 O 0.33825 0.25595 0.22998 0.0
O979 O 0.30751 0.21503 0.27369 0.0
C980 C 0.30093 0.32137 0.31279 0.0
C981 C 0.37429 0.43201 0.30893 0.0
C982 C 0.369 0.48055 0.29301 0.0
C983 C 0.35718 0.44844 0.29586 0.0
C984 C 0.39827 0.49659 0.30309 0.0
C985 C 0.40368 0.44802 0.31922 0.0
C986 C 0.41558 0.48026 0.31623 0.0
C987 C 0.33173 0.31966 0.22335 0.0
C988 C 0.35988 0.39966 0.31411 0.0
C989 C 0.46885 0.34201 0.35118 0.0
C990 C 0.47383 0.34149 0.31975 0.0
C991 C 0.35953 0.27477 0.25079 0.0
C992 C 0.29268 0.16158 0.23684 0.0
C993 C 0.30716 0.14835 0.25703 0.0
C994 C 0.30836 0.11622 0.24748 0.0
C995 C 0.29289 0.09617 0.21833 0.0
C996 C 0.27708 0.14168 0.20774 0.0
C997 C 0.27689 0.10884 0.19876 0.0
C998 C 0.33133 0.27623 0.33882 0.0
C999 C 0.29643 0.19679 0.24535 0.0
H1000 H 0.33438 0.43637 0.28828 0.0
H1001 H 0.40756 0.52161 0.30102 0.0
H1002 H 0.41728 0.43591 0.3299 0.0
H1003 H 0.43815 0.49268 0.32435 0.0
H1004 H 0.31914 0.16374 0.27956 0.0
H1005 H 0.29403 0.07133 0.21018 0.0
H1006 H 0.26559 0.15162 0.1918 0.0
H1007 H 0.2652 0.09358 0.17614 0.0
Eu1008 Eu 0.58952 0.58161 0.06171 0.0
C1009 C 0.62256 0.48806 0.95976 0.0
C1010 C 0.58069 0.46992 0.91946 0.0
C1011 C 0.6277 0.47169 0.9038 0.0
C1012 C 0.59326 0.482 0.95168 0.0
C1013 C 0.63997 0.48228 0.93589 0.0
C1014 C 0.59812 0.46544 0.89561 0.0
C1015 C 0.67986 0.49407 0.97724 0.0
N1016 N 0.63377 0.49756 0.99099 0.0
C1017 C 0.66171 0.49896 0.99999 0.0
C1018 C 0.66905 0.48616 0.94501 0.0
Eu1019 Eu 0.60158 0.50628 0.02824 0.0
N1020 N 0.57687 0.4865 0.97524 0.0
C1021 C 0.54753 0.47691 0.96813 0.0
C1022 C 0.55087 0.46204 0.91211 0.0
C1023 C 0.53421 0.46514 0.93661 0.0
H1024 H 0.67007 0.50431 0.02497 0.0
H1025 H 0.51104 0.4585 0.93127 0.0
H1026 H 0.58884 0.45655 0.87078 0.0
H1027 H 0.70209 0.49607 0.98459 0.0
H1028 H 0.53389 0.47891 0.9863 0.0
H1029 H 0.69616 0.62704 0.1329 0.0
H1030 H 0.54046 0.45288 0.88769 0.0
H1031 H 0.52668 0.58609 0.08814 0.0
H1032 H 0.66162 0.6105 0.08443 0.0
H1033 H 0.50569 0.58954 0.13812 0.0
H1034 H 0.64079 0.46741 0.88519 0.0
H1035 H 0.67899 0.62795 0.1852 0.0
H1036 H 0.63766 0.62064 0.21662 0.0
H1037 H 0.68308 0.482 0.92738 0.0
H1038 H 0.58566 0.60909 0.21793 0.0
N1039 N 0.62463 0.59908 0.10784 0.0
C1040 C 0.6535 0.60943 0.10656 0.0
C1041 C 0.66358 0.62009 0.16373 0.0
C1042 C 0.63403 0.61149 0.16519 0.0
C1043 C 0.67333 0.61949 0.13428 0.0
C1044 C 0.6148 0.60118 0.13647 0.0
H1045 H 0.53634 0.59756 0.1889 0.0
N1046 N 0.5679 0.58745 0.10937 0.0
C1047 C 0.52807 0.59035 0.13823 0.0
C1048 C 0.58555 0.59463 0.13722 0.0
C1049 C 0.53991 0.58764 0.1098 0.0
C1050 C 0.54544 0.59495 0.16679 0.0
C1051 C 0.57474 0.59824 0.16669 0.0
O1052 O 0.57001 0.62197 0.06679 0.0
O1053 O 0.58791 0.54841 0.0125 0.0
O1054 O 0.64355 0.54672 0.03155 0.0
O1055 O 0.62713 0.59192 0.03353 0.0
O1056 O 0.55381 0.56731 0.01938 0.0
O1057 O 0.61373 0.62988 0.05504 0.0
O1058 O 0.61557 0.46249 0.02532 0.0
O1059 O 0.60819 0.54257 0.07625 0.0
O1060 O 0.5463 0.54385 0.05984 0.0
O1061 O 0.55533 0.4948 0.03882 0.0
O1062 O 0.62856 0.50724 0.07415 0.0
O1063 O 0.57433 0.46341 0.04115 0.0
C1064 C 0.56454 0.55065 0.99773 0.0
C1065 C 0.59413 0.67619 0.05954 0.0
C1066 C 0.61007 0.72396 0.0369 0.0
C1067 C 0.60868 0.69128 0.03719 0.0
C1068 C 0.59668 0.74127 0.05898 0.0
C1069 C 0.58065 0.69375 0.08118 0.0
C1070 C 0.58203 0.72618 0.08092 0.0
C1071 C 0.64698 0.57687 0.0279 0.0
C1072 C 0.59254 0.6421 0.06021 0.0
C1073 C 0.59364 0.60661 0.19516 0.0
C1074 C 0.62324 0.61332 0.19442 0.0
C1075 C 0.623 0.5301 0.09441 0.0
C1076 C 0.58134 0.4114 0.02258 0.0
C1077 C 0.57331 0.39221 0.04437 0.0
C1078 C 0.56615 0.35805 0.035 0.0
C1079 C 0.56621 0.34287 1.00314 0.0
C1080 C 0.58106 0.39646 0.99062 0.0
C1081 C 0.57327 0.36211 0.98093 0.0
C1082 C 0.53801 0.5115 0.05039 0.0
C1083 C 0.59265 0.44668 0.03542 0.0
H1084 H 0.61872 0.67767 0.02008 0.0
H1085 H 0.59728 0.76638 0.05897 0.0
H1086 H 0.56924 0.68246 0.09845 0.0
H1087 H 0.57165 0.73965 0.09773 0.0
H1088 H 0.57413 0.40397 0.06922 0.0
H1089 H 0.56105 0.31637 0.99563 0.0
H1090 H 0.58743 0.41122 0.97355 0.0
H1091 H 0.57336 0.35043 0.95638 0.0
Eu1092 Eu 0.86973 0.32443 0.26611 0.0
C1093 C 0.80535 0.22824 0.31533 0.0
C1094 C 0.80833 0.17786 0.28115 0.0
C1095 C 0.8123 0.18368 0.33832 0.0
C1096 C 0.80563 0.20998 0.28519 0.0
C1097 C 0.80756 0.21461 0.34206 0.0
C1098 C 0.81263 0.16532 0.30791 0.0
C1099 C 0.79492 0.25998 0.37335 0.0
N1100 N 0.80008 0.25778 0.31817 0.0
C1101 C 0.79235 0.27208 0.34612 0.0
C1102 C 0.80336 0.23158 0.37153 0.0
Eu1103 Eu 0.79997 0.27809 0.27074 0.0
N1104 N 0.80149 0.2227 0.25966 0.0
C1105 C 0.79756 0.20353 0.22948 0.0
C1106 C 0.80592 0.15893 0.25028 0.0
C1107 C 0.79997 0.17163 0.22435 0.0
H1108 H 0.78426 0.29311 0.34783 0.0
H1109 H 0.79728 0.15689 0.20035 0.0
H1110 H 0.81532 0.141 0.30525 0.0
H1111 H 0.78991 0.2723 0.3956 0.0
H1112 H 0.79233 0.21237 0.20908 0.0
H1113 H 0.85463 0.44289 0.31987 0.0
H1114 H 0.8079 0.13422 0.24623 0.0
H1115 H 0.90973 0.30927 0.20884 0.0
H1116 H 0.85597 0.38627 0.31746 0.0
H1117 H 0.92856 0.33304 0.16465 0.0
H1118 H 0.81454 0.17317 0.35866 0.0
H1119 H 0.8662 0.46798 0.27429 0.0
H1120 H 0.88336 0.46383 0.22091 0.0
H1121 H 0.80493 0.22196 0.39257 0.0
H1122 H 0.90284 0.43345 0.17803 0.0
N1123 N 0.86654 0.37841 0.27036 0.0
C1124 C 0.86057 0.39659 0.29724 0.0
C1125 C 0.86656 0.44293 0.27301 0.0
C1126 C 0.87461 0.42495 0.24642 0.0
C1127 C 0.86005 0.42889 0.29879 0.0
C1128 C 0.87467 0.39236 0.24586 0.0
H1129 H 0.92029 0.38493 0.15712 0.0
N1130 N 0.8886 0.34546 0.22367 0.0
C1131 C 0.91615 0.34488 0.18014 0.0
C1132 C 0.88574 0.37524 0.22164 0.0
C1133 C 0.90525 0.33132 0.20488 0.0
C1134 C 0.91139 0.37415 0.17597 0.0
C1135 C 0.89686 0.39027 0.19746 0.0
O1136 O 0.91017 0.31465 0.27878 0.0
O1137 O 0.84706 0.27355 0.27534 0.0
O1138 O 0.81505 0.31814 0.31495 0.0
O1139 O 0.86355 0.32654 0.31751 0.0
O1140 O 0.8759 0.27512 0.2423 0.0
O1141 O 0.90676 0.36359 0.29418 0.0
O1142 O 0.75923 0.27647 0.28749 0.0
O1143 O 0.82374 0.32924 0.26436 0.0
O1144 O 0.85121 0.30327 0.21492 0.0
O1145 O 0.80613 0.27009 0.21917 0.0
O1146 O 0.78058 0.3194 0.26391 0.0
O1147 O 0.75958 0.24796 0.24018 0.0
C1148 C 0.86016 0.25535 0.25711 0.0
C1149 C 0.9521 0.35769 0.28264 0.0
C1150 C 1.00201 0.35775 0.28558 0.0
C1151 C 0.97431 0.34628 0.29337 0.0
C1152 C 1.007 0.3793 0.26513 0.0
C1153 C 0.95744 0.38016 0.26307 0.0
C1154 C 0.98469 0.39039 0.25387 0.0
C1155 C 0.84085 0.32906 0.33088 0.0
C1156 C 0.92374 0.34507 0.29212 0.0
C1157 C 0.89476 0.42171 0.19666 0.0
C1158 C 0.88374 0.43905 0.22114 0.0
C1159 C 0.80266 0.34282 0.26212 0.0
C1160 C 0.71837 0.23258 0.26673 0.0
C1161 C 0.6921 0.23895 0.26105 0.0
C1162 C 0.66783 0.2229 0.27333 0.0
C1163 C 0.66979 0.19818 0.28922 0.0
C1164 C 0.7202 0.20818 0.28283 0.0
C1165 C 0.69575 0.19062 0.29353 0.0
C1166 C 0.82668 0.28085 0.20255 0.0
C1167 C 0.74396 0.2566 0.26164 0.0
H1168 H 0.97023 0.32904 0.30865 0.0
H1169 H 0.02831 0.38849 0.25892 0.0
H1170 H 0.94074 0.38983 0.25494 0.0
H1171 H 0.98868 0.40751 0.23858 0.0
H1172 H 0.69101 0.25746 0.24798 0.0
H1173 H 0.65148 0.18513 0.29886 0.0
H1174 H 0.74058 0.20356 0.28803 0.0
H1175 H 0.69714 0.17189 0.30615 0.0
Eu1176 Eu 0.10457 0.55899 0.59771 0.0
C1177 C 0.03482 0.60924 0.49834 0.0
C1178 C 0.99501 0.56442 0.46713 0.0
C1179 C 0.99437 0.62088 0.47168 0.0
C1180 C 0.02199 0.57585 0.48645 0.0
C1181 C 0.02134 0.63216 0.49064 0.0
C1182 C 0.98113 0.58709 0.46018 0.0
C1183 C 0.06193 0.6758 0.52144 0.0
N1184 N 0.06069 0.61941 0.51709 0.0
C1185 C 0.07456 0.65224 0.5283 0.0
C1186 C 0.03526 0.66575 0.50244 0.0
Eu1187 Eu 0.0829 0.57806 0.52183 0.0
N1188 N 0.03635 0.5546 0.49269 0.0
C1189 C 0.02571 0.52181 0.47881 0.0
C1190 C 0.98318 0.53058 0.45454 0.0
C1191 C 0.99877 0.50922 0.46013 0.0
H1192 H 0.09536 0.66039 0.54265 0.0
H1193 H 0.99023 0.48309 0.44978 0.0
H1194 H 0.9604 0.57875 0.44542 0.0
H1195 H 0.07289 0.70172 0.5306 0.0
H1196 H 0.038 0.50521 0.48202 0.0
H1197 H 0.13996 0.69285 0.65881 0.0
H1198 H 0.96245 0.52082 0.43975 0.0
H1199 H 0.14388 0.50637 0.59354 0.0
H1200 H 0.1066 0.64314 0.62861 0.0
H1201 H 0.19357 0.50649 0.60676 0.0
H1202 H 0.98358 0.63811 0.46577 0.0
H1203 H 0.1901 0.69547 0.67462 0.0
H1204 H 0.22818 0.6678 0.67412 0.0
H1205 H 0.02557 0.68409 0.49712 0.0
H1206 H 0.24323 0.61804 0.65857 0.0
N1207 N 0.13526 0.61283 0.6278 0.0
C1208 C 0.12739 0.64134 0.63561 0.0
C1209 C 0.17501 0.6723 0.66185 0.0
C1210 C 0.1837 0.64411 0.65334 0.0
C1211 C 0.14679 0.67088 0.65289 0.0
C1212 C 0.16327 0.61438 0.63618 0.0
H1213 H 0.23068 0.55828 0.63333 0.0
N1214 N 0.15247 0.55823 0.61053 0.0
C1215 C 0.18797 0.52928 0.61226 0.0
C1216 C 0.17204 0.58648 0.62708 0.0
C1217 C 0.15976 0.5295 0.60453 0.0
C1218 C 0.20879 0.55849 0.62732 0.0
C1219 C 0.20093 0.58743 0.63544 0.0
O1220 O 0.09508 0.50867 0.60336 0.0
O1221 O 0.07193 0.54499 0.55459 0.0
O1222 O 0.06016 0.60244 0.55953 0.0
O1223 O 0.07677 0.59309 0.60845 0.0
O1224 O 0.05597 0.53974 0.5967 0.0
O1225 O 0.10406 0.54908 0.64501 0.0
O1226 O 0.11522 0.60146 0.49513 0.0
O1227 O 0.11846 0.57905 0.55734 0.0
O1228 O 0.11842 0.52782 0.55628 0.0
O1229 O 0.08591 0.52548 0.51328 0.0
O1230 O 0.12282 0.62154 0.54266 0.0
O1231 O 0.08325 0.5559 0.47176 0.0
C1232 C 0.04924 0.53489 0.56639 0.0
C1233 C 0.06738 0.50012 0.64448 0.0
C1234 C 0.02683 0.50239 0.67332 0.0
C1235 C 0.05384 0.51774 0.666 0.0
C1236 C 0.01331 0.469 0.65934 0.0
C1237 C 0.05379 0.46658 0.63089 0.0
C1238 C 0.02686 0.45118 0.6383 0.0
C1239 C 0.06138 0.60617 0.59093 0.0
C1240 C 0.0941 0.51722 0.63379 0.0
C1241 C 0.22101 0.61691 0.65216 0.0
C1242 C 0.21242 0.64517 0.66112 0.0
C1243 C 0.13541 0.60698 0.55974 0.0
C1244 C 0.09992 0.59426 0.44106 0.0
C1245 C 0.11055 0.58343 0.41318 0.0
C1246 C 0.10867 0.5981 0.38741 0.0
C1247 C 0.09548 0.62335 0.38961 0.0
C1248 C 0.08689 0.61957 0.44303 0.0
C1249 C 0.08444 0.63382 0.41729 0.0
C1250 C 0.10569 0.51468 0.52665 0.0
C1251 C 0.10423 0.58027 0.46837 0.0
H1252 H 0.06388 0.54365 0.67663 0.0
H1253 H 0.99258 0.45665 0.66514 0.0
H1254 H 0.06372 0.45249 0.61406 0.0
H1255 H 0.01643 0.42541 0.62761 0.0
H1256 H 0.12085 0.56405 0.41179 0.0
H1257 H 0.09446 0.63562 0.37034 0.0
H1258 H 0.07925 0.62891 0.46456 0.0
H1259 H 0.07461 0.65354 0.4191 0.0
Eu1260 Eu 0.79547 0.81238 0.28916 0.0
C1261 C 0.89361 0.78145 0.35449 0.0
C1262 C 0.91234 0.83119 0.39627 0.0
C1263 C 0.91649 0.77931 0.40561 0.0
C1264 C 0.89816 0.81491 0.36522 0.0
C1265 C 0.90357 0.76349 0.37428 0.0
C1266 C 0.92083 0.81309 0.4166 0.0
C1267 C 0.89081 0.71658 0.32955 0.0
N1268 N 0.88131 0.76687 0.32402 0.0
C1269 C 0.88178 0.73556 0.3108 0.0
C1270 C 0.90122 0.73042 0.36166 0.0
Eu1271 Eu 0.86553 0.80041 0.29372 0.0
N1272 N 0.88965 0.83177 0.34505 0.0
C1273 C 0.89629 0.86534 0.35401 0.0
C1274 C 0.91807 0.8653 0.40585 0.0
C1275 C 0.91034 0.88247 0.38445 0.0
H1276 H 0.87515 0.7253 0.28558 0.0
H1277 H 0.91501 0.90894 0.39146 0.0
H1278 H 0.9314 0.82513 0.44061 0.0
H1279 H 0.89019 0.69151 0.31908 0.0
H1280 H 0.89035 0.87935 0.33832 0.0
H1281 H 0.74502 0.70831 0.18709 0.0
H1282 H 0.92886 0.87865 0.42948 0.0
H1283 H 0.78205 0.88521 0.30296 0.0
H1284 H 0.76792 0.73467 0.24164 0.0
H1285 H 0.76404 0.92013 0.27295 0.0
H1286 H 0.9239 0.76581 0.42126 0.0
H1287 H 0.7351 0.7419 0.15039 0.0
H1288 H 0.73437 0.79717 0.14225 0.0
H1289 H 0.90856 0.71582 0.37611 0.0
H1290 H 0.73989 0.8554 0.16566 0.0
N1291 N 0.77171 0.78363 0.23688 0.0
C1292 C 0.76369 0.75008 0.22652 0.0
C1293 C 0.74517 0.75382 0.1746 0.0
C1294 C 0.75158 0.78785 0.18586 0.0
C1295 C 0.7506 0.73478 0.19528 0.0
C1296 C 0.7647 0.80218 0.21764 0.0
H1297 H 0.74984 0.90112 0.2147 0.0
N1298 N 0.77846 0.84714 0.26195 0.0
C1299 C 0.76559 0.89649 0.26061 0.0
C1300 C 0.76827 0.83503 0.23058 0.0
C1301 C 0.77567 0.87663 0.27751 0.0
C1302 C 0.75767 0.8857 0.22774 0.0
C1303 C 0.75818 0.85427 0.21242 0.0
O1304 O 0.76779 0.83041 0.32162 0.0
O1305 O 0.83043 0.80721 0.32316 0.0
O1306 O 0.83479 0.74939 0.29502 0.0
O1307 O 0.78993 0.75814 0.29402 0.0
O1308 O 0.8146 0.84698 0.33706 0.0
O1309 O 0.75378 0.78028 0.2949 0.0
O1310 O 0.89145 0.78007 0.26082 0.0
O1311 O 0.83045 0.80494 0.25922 0.0
O1312 O 0.8261 0.86343 0.28488 0.0
O1313 O 0.87052 0.85333 0.28566 0.0
O1314 O 0.84608 0.76446 0.24739 0.0
O1315 O 0.9086 0.82978 0.28836 0.0
C1316 C 0.83125 0.83112 0.34634 0.0
C1317 C 0.71736 0.80504 0.30976 0.0
C1318 C 0.66904 0.79858 0.32577 0.0
C1319 C 0.69731 0.79587 0.33075 0.0
C1320 C 0.6619 0.81176 0.30021 0.0
C1321 C 0.70885 0.81659 0.28381 0.0
C1322 C 0.68147 0.82027 0.27932 0.0
C1323 C 0.80653 0.73826 0.2949 0.0
C1324 C 0.74713 0.80288 0.315 0.0
C1325 C 0.74721 0.84081 0.18013 0.0
C1326 C 0.744 0.80763 0.16683 0.0
C1327 C 0.82948 0.77986 0.23713 0.0
C1328 C 0.9419 0.80049 0.27272 0.0
C1329 C 0.96338 0.81156 0.25413 0.0
C1330 C 0.98964 0.80388 0.25723 0.0
C1331 C 0.99324 0.7835 0.27771 0.0
C1332 C 0.94724 0.78248 0.29469 0.0
C1333 C 0.9724 0.77341 0.29665 0.0
C1334 C 0.8545 0.8737 0.2839 0.0
C1335 C 0.91355 0.80616 0.26791 0.0
H1336 H 0.70361 0.78644 0.35061 0.0
H1337 H 0.64111 0.81585 0.29643 0.0
H1338 H 0.72341 0.82303 0.26706 0.0
H1339 H 0.67541 0.82993 0.25957 0.0
H1340 H 0.95977 0.82621 0.23761 0.0
H1341 H 1.0124 0.77555 0.27933 0.0
H1342 H 0.93197 0.77505 0.3102 0.0
H1343 H 0.97577 0.7585 0.31296 0.0
Eu1344 Eu 0.85891 0.29535 0.75651 0.0
C1345 C 0.829 0.39861 0.86225 0.0
C1346 C 0.87534 0.42806 0.89334 0.0
C1347 C 0.83754 0.4545 0.89379 0.0
C1348 C 0.8565 0.39918 0.87277 0.0
C1349 C 0.81904 0.42611 0.87313 0.0
C1350 C 0.86569 0.45552 0.90377 0.0
C1351 C 0.77275 0.39536 0.84342 0.0
N1352 N 0.81189 0.37132 0.84136 0.0
C1353 C 0.78374 0.36922 0.83256 0.0
C1354 C 0.7906 0.42418 0.86335 0.0
Eu1355 Eu 0.82945 0.32468 0.82778 0.0
N1356 N 0.86531 0.37229 0.86179 0.0
C1357 C 0.8938 0.37452 0.86909 0.0
C1358 C 0.90361 0.42895 0.90232 0.0
C1359 C 0.91293 0.40215 0.88985 0.0
H1360 H 0.76924 0.34742 0.81688 0.0
H1361 H 0.9352 0.40313 0.89534 0.0
H1362 H 0.87989 0.47775 0.91946 0.0
H1363 H 0.75047 0.39325 0.8362 0.0
H1364 H 0.90321 0.35645 0.85783 0.0
H1365 H 0.75137 0.21717 0.69449 0.0
H1366 H 0.91866 0.45062 0.91792 0.0
H1367 H 0.91888 0.2724 0.76689 0.0
H1368 H 0.78497 0.26534 0.72909 0.0
H1369 H 0.93521 0.22343 0.75436 0.0
H1370 H 0.83028 0.47581 0.90216 0.0
H1371 H 0.76611 0.1674 0.67559 0.0
H1372 H 0.80355 0.13844 0.67688 0.0
H1373 H 0.78211 0.44459 0.87143 0.0
H1374 H 0.85274 0.13943 0.69486 0.0
N1375 N 0.82165 0.24718 0.72639 0.0
C1376 C 0.79342 0.24586 0.71901 0.0
C1377 C 0.7818 0.1895 0.68971 0.0
C1378 C 0.80986 0.18977 0.69901 0.0
C1379 C 0.77348 0.21758 0.7001 0.0
C1380 C 0.82955 0.21924 0.71757 0.0
H1381 H 0.90158 0.17062 0.72399 0.0
N1382 N 0.87516 0.24763 0.74698 0.0
C1383 C 0.913 0.22172 0.7473 0.0
C1384 C 0.85698 0.21946 0.72835 0.0
C1385 C 0.90334 0.24942 0.75494 0.0
C1386 C 0.89404 0.19209 0.73002 0.0
C1387 C 0.86579 0.19074 0.7199 0.0
O1388 O 0.90373 0.31602 0.75213 0.0
O1389 O 0.86321 0.33622 0.79815 0.0
O1390 O 0.80554 0.33469 0.78273 0.0
O1391 O 0.8219 0.31273 0.73597 0.0
O1392 O 0.8646 0.34833 0.75419 0.0
O1393 O 0.87212 0.29627 0.70961 0.0
O1394 O 0.78382 0.30152 0.82379 0.0
O1395 O 0.82563 0.28314 0.78676 0.0
O1396 O 0.88618 0.29044 0.80216 0.0
O1397 O 0.86696 0.30813 0.84841 0.0
O1398 O 0.82785 0.27348 0.83222 0.0
O1399 O 0.80985 0.31579 0.87024 0.0
C1400 C 0.86603 0.35935 0.78432 0.0
C1401 C 0.91059 0.34446 0.71177 0.0
C1402 C 0.90426 0.38523 0.68326 0.0
C1403 C 0.89419 0.35426 0.68985 0.0
C1404 C 0.93107 0.40657 0.69849 0.0
C1405 C 0.93761 0.36582 0.7266 0.0
C1406 C 0.9477 0.39677 0.72004 0.0
C1407 C 0.80411 0.32759 0.75078 0.0
C1408 C 0.89859 0.31363 0.72165 0.0
C1409 C 0.84636 0.16167 0.70134 0.0
C1410 C 0.81844 0.16117 0.69096 0.0
C1411 C 0.82504 0.26123 0.80203 0.0
C1412 C 0.77081 0.26589 0.85731 0.0
C1413 C 0.78221 0.25372 0.8812 0.0
C1414 C 0.77079 0.22084 0.88249 0.0
C1415 C 0.74788 0.19989 0.85979 0.0
C1416 C 0.74714 0.24493 0.83528 0.0
C1417 C 0.73599 0.21204 0.83636 0.0
C1418 C 0.88662 0.29613 0.83403 0.0
C1419 C 0.78474 0.29926 0.85337 0.0
H1420 H 0.8733 0.33815 0.67821 0.0
H1421 H 0.9394 0.43041 0.69316 0.0
H1422 H 0.95063 0.35885 0.74377 0.0
H1423 H 0.96842 0.41318 0.73167 0.0
H1424 H 0.80014 0.26959 0.89869 0.0
H1425 H 0.73865 0.17451 0.86085 0.0
H1426 H 0.73774 0.25372 0.81663 0.0
H1427 H 0.71811 0.19598 0.81902 0.0
Eu1428 Eu 0.85889 0.84426 0.81156 0.0
C1429 C 0.74312 0.77809 0.75724 0.0
C1430 C 0.71505 0.76478 0.79912 0.0
C1431 C 0.69412 0.78218 0.75565 0.0
C1432 C 0.74086 0.76798 0.78547 0.0
C1433 C 0.71928 0.78423 0.74155 0.0
C1434 C 0.69206 0.77261 0.78445 0.0
C1435 C 0.745 0.78943 0.69685 0.0
N1436 N 0.76769 0.77975 0.74398 0.0
C1437 C 0.76779 0.78289 0.71306 0.0
C1438 C 0.72086 0.79087 0.71144 0.0
Eu1439 Eu 0.80556 0.767 0.77301 0.0
N1440 N 0.76322 0.75985 0.79887 0.0
C1441 C 0.75961 0.74527 0.82414 0.0
C1442 C 0.71271 0.75296 0.82673 0.0
C1443 C 0.73492 0.74264 0.83896 0.0
H1444 H 0.78457 0.77885 0.69956 0.0
H1445 H 0.73279 0.73189 0.85943 0.0
H1446 H 0.67229 0.77055 0.7948 0.0
H1447 H 0.74575 0.79236 0.67268 0.0
H1448 H 0.775 0.73438 0.83282 0.0
H1449 H 0.93169 0.88329 0.7266 0.0
H1450 H 0.69341 0.75049 0.83803 0.0
H1451 H 0.88303 0.83779 0.88636 0.0
H1452 H 0.88972 0.88054 0.75426 0.0
H1453 H 0.92141 0.82185 0.9118 0.0
H1454 H 0.67585 0.78713 0.74406 0.0
H1455 H 0.96986 0.86099 0.74479 0.0
H1456 H 0.99003 0.83655 0.78523 0.0
H1457 H 0.70298 0.7954 0.6986 0.0
H1458 H 0.98695 0.8191 0.83563 0.0
N1459 N 0.90098 0.85219 0.78548 0.0
C1460 C 0.90485 0.86848 0.76143 0.0
C1461 C 0.95085 0.85874 0.75658 0.0
C1462 C 0.94834 0.84529 0.78326 0.0
C1463 C 0.9293 0.87116 0.74614 0.0
C1464 C 0.92302 0.84277 0.79772 0.0
H1465 H 0.96162 0.8137 0.88305 0.0
N1466 N 0.89756 0.8329 0.84056 0.0
C1467 C 0.92128 0.82376 0.88727 0.0
C1468 C 0.92118 0.83265 0.82595 0.0
C1469 C 0.8988 0.83174 0.87207 0.0
C1470 C 0.94397 0.8194 0.87105 0.0
C1471 C 0.94474 0.82517 0.84054 0.0
O1472 O 0.86342 0.87706 0.85827 0.0
O1473 O 0.8129 0.81499 0.80692 0.0
O1474 O 0.8252 0.79422 0.73515 0.0
O1475 O 0.84544 0.84901 0.761 0.0
O1476 O 0.82043 0.86264 0.80209 0.0
O1477 O 0.87925 0.89697 0.81904 0.0
O1478 O 0.79938 0.73518 0.72565 0.0
O1479 O 0.852 0.79559 0.77831 0.0
O1480 O 0.84283 0.81496 0.84924 0.0
O1481 O 0.81909 0.76087 0.82305 0.0
O1482 O 0.84276 0.74829 0.78561 0.0
O1483 O 0.7861 0.71397 0.76499 0.0
C1484 C 0.8008 0.83644 0.80342 0.0
C1485 C 0.86168 0.93037 0.85801 0.0
C1486 C 0.83304 0.96497 0.84499 0.0
C1487 C 0.84484 0.93909 0.83563 0.0
C1488 C 0.83766 0.98169 0.87717 0.0
C1489 C 0.86603 0.94711 0.89004 0.0
C1490 C 0.85402 0.97265 0.89958 0.0
C1491 C 0.83594 0.82566 0.73432 0.0
C1492 C 0.87438 0.90353 0.84847 0.0
C1493 C 0.96898 0.82537 0.82503 0.0
C1494 C 0.97077 0.8354 0.79641 0.0
C1495 C 0.86301 0.77374 0.78378 0.0
C1496 C 0.80709 0.68477 0.72605 0.0
C1497 C 0.82323 0.67622 0.74926 0.0
C1498 C 0.84205 0.65792 0.74051 0.0
C1499 C 0.84441 0.64746 0.70821 0.0
C1500 C 0.80932 0.67395 0.69377 0.0
C1501 C 0.82787 0.65525 0.68493 0.0
C1502 C 0.83118 0.78355 0.84967 0.0
C1503 C 0.7909 0.70826 0.73545 0.0
H1504 H 0.84085 0.92576 0.81095 0.0
H1505 H 0.82892 1.00196 0.8849 0.0
H1506 H 0.87857 0.94021 0.90759 0.0
H1507 H 0.85741 0.98555 0.9243 0.0
H1508 H 0.82187 0.68448 0.7743 0.0
H1509 H 0.8587 0.6329 0.70105 0.0
H1510 H 0.79721 0.68061 0.67551 0.0
H1511 H 0.82968 0.64712 0.66004 0.0
Eu1512 Eu 0.55868 0.53485 0.5323 0.0
C1513 C 0.63324 0.65195 0.6134 0.0
C1514 C 0.64517 0.68744 0.57686 0.0
C1515 C 0.63967 0.71078 0.631 0.0
C1516 C 0.6383 0.6557 0.58317 0.0
C1517 C 0.63505 0.67977 0.63794 0.0
C1518 C 0.64474 0.71461 0.60051 0.0
C1519 C 0.63306 0.64581 0.67574 0.0
N1520 N 0.62969 0.62189 0.61972 0.0
C1521 C 0.63188 0.61924 0.65085 0.0
C1522 C 0.63389 0.67607 0.66916 0.0
Eu1523 Eu 0.62453 0.5768 0.57494 0.0
N1524 N 0.63877 0.62897 0.56069 0.0
C1525 C 0.64904 0.63341 0.53277 0.0
C1526 C 0.65317 0.69124 0.54728 0.0
C1527 C 0.65574 0.66423 0.52546 0.0
H1528 H 0.63258 0.5963 0.65647 0.0
H1529 H 0.66306 0.66713 0.50296 0.0
H1530 H 0.64941 0.73893 0.5958 0.0
H1531 H 0.63375 0.64301 0.70003 0.0
H1532 H 0.65253 0.61384 0.51559 0.0
H1533 H 0.5337 0.44255 0.60323 0.0
H1534 H 0.65845 0.71511 0.54153 0.0
H1535 H 0.54128 0.52144 0.45265 0.0
H1536 H 0.54451 0.49781 0.59296 0.0
H1537 H 0.52937 0.47565 0.40508 0.0
H1538 H 0.64068 0.73223 0.64943 0.0
H1539 H 0.52953 0.39447 0.55935 0.0
H1540 H 0.52729 0.37168 0.50087 0.0
H1541 H 0.63527 0.69683 0.68856 0.0
H1542 H 0.5258 0.38071 0.44661 0.0
N1543 N 0.54752 0.48191 0.54384 0.0
C1544 C 0.54273 0.47727 0.57349 0.0
C1545 C 0.5344 0.41882 0.55469 0.0
C1546 C 0.537 0.42335 0.52388 0.0
C1547 C 0.53659 0.44585 0.57946 0.0
C1548 C 0.54334 0.4556 0.51911 0.0
H1549 H 0.52577 0.41922 0.41067 0.0
N1550 N 0.54594 0.49168 0.4851 0.0
C1551 C 0.53328 0.47108 0.42841 0.0
C1552 C 0.54255 0.46066 0.4887 0.0
C1553 C 0.54003 0.49694 0.4555 0.0
C1554 C 0.53139 0.43932 0.43167 0.0
C1555 C 0.53538 0.43364 0.46209 0.0
O1556 O 0.52261 0.54195 0.50453 0.0
O1557 O 0.58539 0.5883 0.55369 0.0
O1558 O 0.59281 0.56956 0.61397 0.0
O1559 O 0.54854 0.55315 0.58411 0.0
O1560 O 0.56764 0.57591 0.50626 0.0
O1561 O 0.51676 0.52879 0.54934 0.0
O1562 O 0.66329 0.59389 0.6084 0.0
O1563 O 0.59939 0.52305 0.55312 0.0
O1564 O 0.58736 0.53764 0.49142 0.0
O1565 O 0.63224 0.56237 0.52052 0.0
O1566 O 0.61708 0.53508 0.60057 0.0
O1567 O 0.66468 0.56531 0.56148 0.0
C1568 C 0.58177 0.60034 0.52911 0.0
C1569 C 0.47516 0.51645 0.51173 0.0
C1570 C 0.42469 0.51467 0.50362 0.0
C1571 C 0.4534 0.53171 0.51644 0.0
C1572 C 0.41808 0.48209 0.4857 0.0
C1573 C 0.46828 0.48392 0.49396 0.0
C1574 C 0.43979 0.46687 0.48095 0.0
C1575 C 0.56429 0.56335 0.61273 0.0
C1576 C 0.50487 0.53565 0.52478 0.0
C1577 C 0.53101 0.4017 0.46674 0.0
C1578 C 0.53186 0.39657 0.49762 0.0
C1579 C 0.60452 0.51039 0.57714 0.0
C1580 C 0.70887 0.58505 0.6008 0.0
C1581 C 0.72641 0.57137 0.58123 0.0
C1582 C 0.75515 0.57546 0.5932 0.0
C1583 C 0.76577 0.59248 0.62496 0.0
C1584 C 0.72033 0.60263 0.63224 0.0
C1585 C 0.74851 0.60613 0.6442 0.0
C1586 C 0.61561 0.54941 0.49206 0.0
C1587 C 0.67854 0.581 0.58959 0.0
H1588 H 0.4588 0.55687 0.53031 0.0
H1589 H 0.39618 0.46854 0.47516 0.0
H1590 H 0.48486 0.47187 0.49002 0.0
H1591 H 0.43451 0.44181 0.46705 0.0
H1592 H 0.71787 0.5578 0.55697 0.0
H1593 H 0.78742 0.59484 0.63511 0.0
H1594 H 0.70742 0.61346 0.6479 0.0
H1595 H 0.75688 0.61915 0.6686 0.0
Eu1596 Eu 0.12884 0.5659 0.03685 0.0
C1597 C 0.03487 0.5116 0.1136 0.0
C1598 C 1.00621 0.45892 0.08049 0.0
C1599 C 1.01006 0.46827 0.13813 0.0
C1600 C 0.02444 0.49104 0.08367 0.0
C1601 C 0.02745 0.5006 0.14115 0.0
C1602 C 0.99944 0.4475 0.10788 0.0
C1603 C 0.05316 0.55506 0.17253 0.0
N1604 N 0.05124 0.54287 0.11573 0.0
C1605 C 0.05968 0.56497 0.14454 0.0
C1606 C 0.03718 0.52266 0.17087 0.0
Eu1607 Eu 0.06179 0.55717 0.06721 0.0
N1608 N 0.03124 0.50282 0.05764 0.0
C1609 C 0.0194 0.48441 0.02778 0.0
C1610 C 0.99502 0.43938 0.04988 0.0
C1611 C 1.00143 0.45231 0.02342 0.0
H1612 H 0.07208 0.59004 0.14597 0.0
H1613 H 0.99257 0.43758 0.99967 0.0
H1614 H 0.98566 0.4228 0.10591 0.0
H1615 H 0.0604 0.57243 0.19536 0.0
H1616 H 0.02415 0.49419 1.00716 0.0
H1617 H 0.18963 0.69259 0.09539 0.0
H1618 H 0.98106 0.41452 0.04644 0.0
H1619 H 0.13353 0.52308 0.96418 0.0
H1620 H 0.16114 0.6357 0.09238 0.0
H1621 H 0.15228 0.53338 0.91511 0.0
H1622 H 1.00426 0.45929 0.15902 0.0
H1623 H 0.20374 0.70969 0.04638 0.0
H1624 H 0.20546 0.6937 0.98766 0.0
H1625 H 0.03199 0.51511 0.19259 0.0
H1626 H 0.1956 0.65015 0.93855 0.0
N1627 N 0.15767 0.62073 0.04198 0.0
C1628 C 0.16684 0.64272 0.07073 0.0
C1629 C 0.19092 0.68466 0.04488 0.0
C1630 C 0.1832 0.66141 0.01576 0.0
C1631 C 0.1831 0.67509 0.07258 0.0
C1632 C 0.16642 0.62918 0.01511 0.0
H1633 H 0.17668 0.59016 0.9116 0.0
N1634 N 0.14601 0.57372 0.9884 0.0
C1635 C 0.15452 0.55376 0.93517 0.0
C1636 C 0.16059 0.60484 0.98744 0.0
C1637 C 0.14361 0.54809 0.96309 0.0
C1638 C 0.16825 0.58584 0.93326 0.0
C1639 C 0.17176 0.61183 0.95971 0.0
O1640 O 0.15047 0.52735 0.03019 0.0
O1641 O 0.09112 0.52754 0.04821 0.0
O1642 O 0.09198 0.54349 0.10049 0.0
O1643 O 0.13159 0.57997 0.09039 0.0
O1644 O 0.10462 0.51559 1.00498 0.0
O1645 O 0.17037 0.57283 0.06463 0.0
O1646 O 0.03787 0.59093 0.08643 0.0
O1647 O 0.09793 0.59511 0.0534 0.0
O1648 O 0.10063 0.57673 0.99959 0.0
O1649 O 0.05661 0.55037 0.0134 0.0
O1650 O 0.08451 0.60904 0.09642 0.0
O1651 O 0.02014 0.55427 0.04256 0.0
C1652 C 0.08699 0.50407 0.02336 0.0
C1653 C 0.2011 0.54447 0.03995 0.0
C1654 C 0.24241 0.52277 0.03809 0.0
C1655 C 0.2159 0.52314 0.04882 0.0
C1656 C 0.25381 0.54365 0.01846 0.0
C1657 C 0.21307 0.5653 0.02051 0.0
C1658 C 0.23921 0.56477 1.00975 0.0
C1659 C 0.11925 0.56046 0.10802 0.0
C1660 C 0.17306 0.54454 0.05051 0.0
C1661 C 0.18715 0.64423 0.95973 0.0
C1662 C 0.19278 0.66902 0.9877 0.0
C1663 C 0.10094 0.61993 0.07666 0.0
C1664 C 0.98736 0.57249 0.07375 0.0
C1665 C 0.97003 0.59206 0.06687 0.0
C1666 C 0.94241 0.58705 0.07626 0.0
C1667 C 0.93264 0.56228 0.09276 0.0
C1668 C 0.97713 0.54808 0.09026 0.0
C1669 C 0.94992 0.54305 0.09974 0.0
C1670 C 0.07228 0.56539 0.99414 0.0
C1671 C 0.01611 0.57799 0.06383 0.0
H1672 H 0.20691 0.50701 0.06392 0.0
H1673 H 0.27415 0.54368 1.00998 0.0
H1674 H 0.20228 0.58204 0.01369 0.0
H1675 H 0.24822 0.58086 0.99468 0.0
H1676 H 0.97823 0.6114 0.05468 0.0
H1677 H 0.91145 0.55758 0.1001 0.0
H1678 H 0.99011 0.53294 0.09586 0.0
H1679 H 0.94216 0.52412 0.11247 0.0
C1680 C 0.06166 0.17088 0.97005 0.0
C1681 C 0.05321 0.19608 0.99018 0.0
C1682 C 0.06683 0.14307 0.97986 0.0
C1683 C 0.06475 0.13781 0.01101 0.0
H1684 H 0.0637 0.17202 0.94557 0.0
H1685 H 0.07171 0.12457 0.9621 0.0
S1686 S 0.04223 0.19447 0.07413 0.0
N1687 N 0.04286 0.21256 0.04399 0.0
N1688 N 0.05165 0.16068 0.06175 0.0
C1689 C 0.05627 0.16266 0.03163 0.0
C1690 C 0.05112 0.19143 0.02165 0.0
C1691 C 0.21271 0.83837 0.21079 0.0
C1692 C 0.21357 0.84679 0.18083 0.0
C1693 C 0.2362 0.83239 0.22717 0.0
C1694 C 0.26271 0.83511 0.21535 0.0
H1695 H 0.19315 0.83516 0.2216 0.0
H1696 H 0.23295 0.82435 0.24898 0.0
S1697 S 0.27765 0.85682 0.13822 0.0
N1698 N 0.24403 0.85728 0.14 0.0
N1699 N 0.28834 0.8473 0.1712 0.0
C1700 C 0.26428 0.84394 0.1856 0.0
C1701 C 0.23995 0.84959 0.16848 0.0
C1702 C 0.57775 0.904 0.536 0.0
C1703 C 0.56568 0.88953 0.50381 0.0
C1704 C 0.58627 0.93886 0.54869 0.0
C1705 C 0.58318 0.96158 0.5302 0.0
H1706 H 0.58109 0.88833 0.55152 0.0
H1707 H 0.59617 0.94825 0.57327 0.0
S1708 S 0.55546 0.93813 0.44403 0.0
N1709 N 0.55239 0.90254 0.45353 0.0
N1710 N 0.5693 0.96654 0.47715 0.0
C1711 C 0.57169 0.94762 0.49803 0.0
C1712 C 0.56265 0.91231 0.4851 0.0
C1713 C 0.56176 0.2921 0.72781 0.0
C1714 C 0.57171 0.31757 0.71215 0.0
C1715 C 0.53752 0.28987 0.74359 0.0
C1716 C 0.52208 0.31301 0.74447 0.0
H1717 H 0.57295 0.27376 0.72824 0.0
H1718 H 0.53115 0.27024 0.75588 0.0
S1719 S 0.53841 0.38401 0.70671 0.0
N1720 N 0.56349 0.36596 0.69775 0.0
N1721 N 0.51798 0.36186 0.72781 0.0
C1722 C 0.53111 0.33803 0.72814 0.0
C1723 C 0.5559 0.34032 0.71193 0.0
C1724 C 0.05503 0.85575 0.6427 0.0
C1725 C 0.04377 0.82265 0.62628 0.0
C1726 C 0.07059 0.87919 0.62766 0.0
C1727 C 0.07464 0.87022 0.59566 0.0
H1728 H 0.05376 0.86307 0.66787 0.0
H1729 H 0.08065 0.9041 0.64146 0.0
S1730 S 0.04593 0.78773 0.54126 0.0
N1731 N 0.03531 0.78269 0.57569 0.0
N1732 N 0.06382 0.82708 0.54721 0.0
C1733 C 0.06143 0.83785 0.57834 0.0
C1734 C 0.04614 0.81391 0.59375 0.0
C1735 C 0.57903 0.90424 0.82144 0.0
C1736 C 0.58064 0.8721 0.8194 0.0
C1737 C 0.55317 0.91 0.81235 0.0
C1738 C 0.52809 0.88379 0.80026 0.0
H1739 H 0.59758 0.92525 0.8316 0.0
H1740 H 0.55267 0.93525 0.81602 0.0
S1741 S 0.5224 0.79476 0.78607 0.0
N1742 N 0.55596 0.81367 0.80263 0.0
N1743 N 0.50748 0.82417 0.78332 0.0
C1744 C 0.5299 0.85135 0.79641 0.0
C1745 C 0.55615 0.84558 0.80656 0.0
C1746 C 0.53754 0.1424 0.14043 0.0
C1747 C 0.51557 0.15389 0.12876 0.0
C1748 C 0.54864 0.12083 0.12022 0.0
C1749 C 0.53823 0.11001 0.08746 0.0
H1750 H 0.54745 0.15175 0.16505 0.0
H1751 H 0.56631 0.11366 0.13026 0.0
S1752 S 0.4781 0.13025 0.04633 0.0
N1753 N 0.48234 0.15172 0.0834 0.0
N1754 N 0.50217 0.10979 0.04527 0.0
C1755 C 0.51503 0.11999 0.07593 0.0
C1756 C 0.50395 0.1423 0.09662 0.0
C1757 C 0.23818 0.31512 0.35915 0.0
C1758 C 0.21578 0.31503 0.33692 0.0
C1759 C 0.26547 0.31664 0.35059 0.0
C1760 C 0.27127 0.31794 0.31948 0.0
H1761 H 0.23442 0.31328 0.38313 0.0
H1762 H 0.28211 0.31629 0.3684 0.0
S1763 S 0.22084 0.32376 0.25412 0.0
N1764 N 0.2014 0.3193 0.28345 0.0
N1765 N 0.25338 0.32355 0.26766 0.0
C1766 C 0.24942 0.31965 0.29747 0.0
C1767 C 0.22139 0.31763 0.3061 0.0
C1768 C 0.04052 0.07253 0.19105 0.0
C1769 C 1.01116 0.07245 0.19207 0.0
C1770 C 0.05436 0.07091 0.16223 0.0
C1771 C 0.04015 0.06812 0.13113 0.0
H1772 H 0.05337 0.07407 0.21309 0.0
H1773 H 0.0767 0.07133 0.16451 0.0
S1774 S 0.96294 0.06583 0.11814 0.0
N1775 N 0.96878 0.06917 0.1569 0.0
N1776 N 0.9936 0.06517 0.10466 0.0
C1777 C 1.01075 0.06766 0.13176 0.0
C1778 C 0.99685 0.07003 0.16114 0.0
C1779 C 0.3003 0.72612 0.45132 0.0
C1780 C 0.29777 0.69262 0.4485 0.0
C1781 C 0.28929 0.73704 0.42637 0.0
C1782 C 0.27535 0.71489 0.39758 0.0
H1783 H 0.30967 0.74394 0.47354 0.0
H1784 H 0.29033 0.76281 0.43041 0.0
S1785 S 0.26683 0.62538 0.37641 0.0
N1786 N 0.28289 0.63777 0.41361 0.0
N1787 N 0.26261 0.65859 0.36617 0.0
C1788 C 0.2745 0.68168 0.39354 0.0
C1789 C 0.28574 0.67048 0.4191 0.0
C1790 C 0.68584 0.03853 0.65054 0.0
C1791 C 0.67572 0.02935 0.67773 0.0
C1792 C 0.66788 0.04525 0.62815 0.0
C1793 C 0.63886 0.04193 0.63124 0.0
H1794 H 0.70837 0.04338 0.64767 0.0
H1795 H 0.67737 0.05423 0.60892 0.0
S1796 S 0.60033 1.01145 0.69457 0.0
N1797 N 0.63402 1.01282 0.70469 0.0
N1798 N 0.59966 0.02364 0.6609 0.0
C1799 C 0.62763 0.02928 0.65646 0.0
C1800 C 0.64622 0.02331 0.68006 0.0
C1801 C 0.34606 0.36778 0.92778 0.0
C1802 C 0.348 0.34251 0.94301 0.0
C1803 C 0.34247 0.36285 0.89424 0.0
C1804 C 0.34034 0.33228 0.87365 0.0
H1805 H 0.34788 0.39204 0.94196 0.0
H1806 H 0.34151 0.38354 0.88428 0.0
S1807 S 0.34087 0.25654 0.90065 0.0
N1808 N 0.34616 0.28483 0.93421 0.0
N1809 N 0.33776 0.27525 0.87152 0.0
C1810 C 0.34122 0.30633 0.8884 0.0
C1811 C 0.34556 0.31155 0.92279 0.0
C1812 C 0.01461 0.04432 0.40853 0.0
C1813 C 0.03237 0.04892 0.38428 0.0
C1814 C 0.02486 0.04166 0.43969 0.0
C1815 C 0.05394 0.04372 0.44992 0.0
H1816 H 0.9921 0.04251 0.40335 0.0
H1817 H 1.00947 0.03817 0.45635 0.0
S1818 S 0.11125 0.06027 0.39804 0.0
N1819 N 0.0819 0.05726 0.37449 0.0
N1820 N 0.10101 0.05445 0.43245 0.0
C1821 C 0.07227 0.0494 0.42627 0.0
C1822 C 0.06164 0.05129 0.39405 0.0
C1823 C 0.31974 0.72487 0.61514 0.0
C1824 C 0.34356 0.71273 0.61177 0.0
C1825 C 0.31894 0.7477 0.6426 0.0
C1826 C 0.34213 0.7594 0.66725 0.0
H1827 H 0.30107 0.71548 0.59699 0.0
H1828 H 0.29967 0.75535 0.64502 0.0
S1829 S 0.40972 0.73526 0.66887 0.0
N1830 N 0.39079 0.71387 0.63425 0.0
N1831 N 0.38992 0.75734 0.68605 0.0
C1832 C 0.36659 0.74823 0.66342 0.0
C1833 C 0.36712 0.72461 0.63559 0.0
C1834 C 0.66396 0.08896 0.85217 0.0
C1835 C 0.6904 0.08204 0.85113 0.0
C1836 C 0.65549 0.10106 0.88101 0.0
C1837 C 0.67311 0.10667 0.90999 0.0
H1838 H 0.64999 0.08596 0.83043 0.0
H1839 H 0.63536 0.10711 0.88047 0.0
S1840 S 0.74335 0.08994 0.92044 0.0
N1841 N 0.73361 0.07996 0.8815 0.0
N1842 N 0.71727 0.10232 0.93622 0.0
C1843 C 0.69912 0.09865 0.90949 0.0
C1844 C 0.70781 0.08624 0.87992 0.0
C1845 C 0.34785 0.37538 0.16371 0.0
C1846 C 0.34565 0.3537 0.13366 0.0
C1847 C 0.3432 0.36419 0.19197 0.0
C1848 C 0.33542 0.3305 0.19211 0.0
H1849 H 0.35362 0.40166 0.16569 0.0
H1850 H 0.34561 0.3823 0.21404 0.0
S1851 S 0.32819 0.26294 0.1207 0.0
N1852 N 0.336 0.29641 0.10661 0.0
N1853 N 0.32736 0.27553 0.15915 0.0
C1854 C 0.33325 0.30845 0.16233 0.0
C1855 C 0.33833 0.31992 0.13347 0.0
C1856 C 0.31273 0.07056 0.03999 0.0
C1857 C 0.30384 0.03606 0.03333 0.0
C1858 C 0.29399 0.08874 0.04998 0.0
C1859 C 0.26575 0.07325 0.05461 0.0
H1860 H 0.33469 0.08372 0.03845 0.0
H1861 H 0.30214 0.11532 0.05537 0.0
S1862 S 0.23151 0.98303 0.03876 0.0
N1863 N 0.26441 0.98675 0.02986 0.0
N1864 N 0.22941 0.0209 0.05003 0.0
C1865 C 0.25609 0.03858 0.04646 0.0
C1866 C 0.27512 0.02 0.03558 0.0
C1867 C 0.72784 0.60894 0.02674 0.0
C1868 C 0.73114 0.63872 0.01694 0.0
C1869 C 0.70059 0.58836 0.02883 0.0
C1870 C 0.6753 0.59651 0.02121 0.0
H1871 H 0.74653 0.60196 0.03416 0.0
H1872 H 0.69954 0.56666 0.03789 0.0
S1873 S 0.67144 0.66909 0.98999 0.0
N1874 N 0.70618 0.67343 0.99659 0.0
N1875 N 0.6552 0.63478 1.00019 0.0
C1876 C 0.67813 0.62519 1.00965 0.0
C1877 C 0.70589 0.6462 1.00758 0.0
C1878 C 0.77237 0.41964 0.28708 0.0
C1879 C 0.77404 0.43667 0.26203 0.0
C1880 C 0.78358 0.39196 0.28746 0.0
C1881 C 0.79834 0.37834 0.26329 0.0
H1882 H 0.76149 0.42733 0.30681 0.0
H1883 H 0.77955 0.3801 0.30698 0.0
S1884 S 0.80719 0.41037 0.18984 0.0
N1885 N 0.79154 0.43531 0.21083 0.0
N1886 N 0.81105 0.38403 0.21129 0.0
C1887 C 0.7998 0.39468 0.23768 0.0
C1888 C 0.78851 0.42326 0.2373 0.0
C1889 C 0.97128 0.52997 0.54726 0.0
C1890 C 0.95886 0.49695 0.53112 0.0
C1891 C 1.0008 0.54237 0.55748 0.0
C1892 C 0.01935 0.52304 0.55066 0.0
H1893 H 0.95799 0.54588 0.55409 0.0
H1894 H 1.00867 0.56668 0.5723 0.0
S1895 S 0.99828 0.43545 0.508 0.0
N1896 N 0.96777 0.44509 0.50784 0.0
N1897 N 0.02352 0.46921 0.52708 0.0
C1898 C 1.0075 0.49026 0.53391 0.0
C1899 C 0.97728 0.47721 0.52372 0.0
C1900 C 0.37776 0.11728 0.29253 0.0
C1901 C 0.371 0.0858 0.29836 0.0
C1902 C 0.35702 0.12707 0.2765 0.0
C1903 C 0.32885 0.10583 0.26644 0.0
H1904 H 0.39961 0.13343 0.29819 0.0
H1905 H 0.36348 0.15087 0.27067 0.0
S1906 S 0.29969 0.02301 0.28128 0.0
N1907 N 0.33399 0.03474 0.29643 0.0
N1908 N 0.29451 0.05375 0.26695 0.0
C1909 C 0.3214 0.07522 0.27426 0.0
C1910 C 0.34262 0.06511 0.29027 0.0
C1911 C 0.37688 0.09903 0.53894 0.0
C1912 C 0.38478 0.13308 0.54126 0.0
C1913 C 0.39731 0.0833 0.54597 0.0
C1914 C 0.4264 0.10111 0.5563 0.0
H1915 H 0.35455 0.08452 0.53232 0.0
H1916 H 0.39008 0.05704 0.5442 0.0
S1917 S 0.45795 0.19112 0.56685 0.0
N1918 N 0.42357 0.18425 0.55411 0.0
N1919 N 0.46203 0.15488 0.56833 0.0
C1920 C 0.43474 0.13515 0.55791 0.0
C1921 C 0.41389 0.15111 0.55023 0.0
C1922 C 0.7547 0.65827 0.31163 0.0
C1923 C 0.76497 0.63163 0.29753 0.0
C1924 C 0.76787 0.69179 0.31062 0.0
C1925 C 0.79265 0.70164 0.29575 0.0
H1926 H 0.73572 0.65324 0.32338 0.0
H1927 H 0.75842 0.71032 0.32189 0.0
S1928 S 0.82787 0.64267 0.2528 0.0
N1929 N 0.80159 0.61875 0.26663 0.0
N1930 N 0.82581 0.68048 0.26479 0.0
C1931 C 0.80313 0.67539 0.28135 0.0
C1932 C 0.78959 0.64112 0.28219 0.0
C1933 C 0.87644 0.44972 0.81391 0.0
C1934 C 0.90635 0.46183 0.82384 0.0
C1935 C 0.86313 0.41611 0.80159 0.0
C1936 C 0.87922 0.39377 0.79971 0.0
H1937 H 0.86342 0.46635 0.81407 0.0
H1938 H 0.84031 0.40763 0.79301 0.0
S1939 S 0.9573 0.41194 0.82384 0.0
N1940 N 0.95115 0.44807 0.83235 0.0
N1941 N 0.92584 0.38497 0.80864 0.0
C1942 C 0.90873 0.40514 0.81029 0.0
C1943 C 0.92235 0.4392 0.82287 0.0
C1944 C 0.10565 0.94236 0.10091 0.0
C1945 C 0.11769 0.92211 0.07915 0.0
C1946 C 0.09933 0.97144 0.09499 0.0
C1947 C 0.10295 0.98212 0.06612 0.0
H1948 H 0.10198 0.93643 0.12363 0.0
H1949 H 0.09191 0.9863 0.11387 0.0
S1950 S 0.13477 0.93979 1.00083 0.0
N1951 N 0.13368 0.91685 0.02709 0.0
N1952 N 0.1214 0.96973 0.01616 0.0
C1953 C 0.11495 0.96213 0.04414 0.0
C1954 C 0.12201 0.93285 0.05038 0.0
C1955 C 0.95427 0.27014 0.86041 0.0
C1956 C 0.95896 0.2797 0.89415 0.0
C1957 C 0.9312 0.27505 0.84165 0.0
C1958 C 0.9109 0.28987 0.85501 0.0
H1959 H 0.96888 0.25891 0.84802 0.0
H1960 H 0.92952 0.26702 0.81625 0.0
S1961 S 0.91234 0.31918 0.94242 0.0
N1962 N 0.94029 0.30469 0.94003 0.0
N1963 N 0.89749 0.31355 0.90542 0.0
C1964 C 0.91509 0.29917 0.88885 0.0
C1965 C 0.93874 0.29427 0.90803 0.0
C1966 C 0.62899 0.20659 0.62109 0.0
C1967 C 0.62902 0.22525 0.59766 0.0
C1968 C 0.62362 0.17211 0.61385 0.0
C1969 C 0.61787 0.15266 0.58249 0.0
H1970 H 0.63283 0.21866 0.64613 0.0
H1971 H 0.62333 0.16029 0.63362 0.0
S1972 S 0.61725 0.18727 0.51065 0.0
N1973 N 0.62437 0.22025 0.54037 0.0
N1974 N 0.61381 0.15531 0.52687 0.0
C1975 C 0.61875 0.17046 0.55823 0.0
C1976 C 0.62445 0.2064 0.56572 0.0
C1977 C 0.63263 0.79462 0.40088 0.0
C1978 C 0.60319 0.78061 0.38865 0.0
C1979 C 0.65402 0.79894 0.38063 0.0
C1980 C 0.64693 0.78909 0.34726 0.0
H1981 H 0.63914 0.80388 0.4263 0.0
H1982 H 0.67609 0.8115 0.3912 0.0
S1983 S 0.57361 0.74547 0.30349 0.0
N1984 N 0.56857 0.75362 0.34119 0.0
N1985 N 0.60853 0.76018 0.30333 0.0
C1986 C 0.61776 0.77281 0.33494 0.0
C1987 C 0.59601 0.76902 0.35551 0.0
C1988 C 0.10412 0.26845 0.46908 0.0
C1989 C 0.12739 0.26796 0.45193 0.0
C1990 C 0.10049 0.25341 0.49468 0.0
C1991 C 0.12026 0.23781 0.5042 0.0
H1992 H 0.08877 0.2809 0.46282 0.0
H1993 H 0.08203 0.25383 0.50701 0.0
S1994 S 0.18617 0.23258 0.46865 0.0
N1995 N 0.17105 0.25211 0.44675 0.0
N1996 N 0.16467 0.22409 0.49546 0.0
C1997 C 0.14373 0.2373 0.48728 0.0
C1998 C 0.1472 0.25234 0.46095 0.0
C1999 C 0.58867 0.21383 0.25261 0.0
C2000 C 0.58846 0.24609 0.25227 0.0
C2001 C 0.61425 0.20677 0.26055 0.0
C2002 C 0.64057 0.23177 0.26907 0.0
H2003 H 0.56929 0.19344 0.24437 0.0
H2004 H 0.61354 0.18127 0.2583 0.0
S2005 S 0.65053 0.32119 0.27713 0.0
N2006 N 0.61604 0.30366 0.26382 0.0
N2007 N 0.66399 0.29095 0.28111 0.0
C2008 C 0.64022 0.26458 0.27126 0.0
C2009 C 0.61421 0.27159 0.2623 0.0
C2010 C 0.61685 0.92029 0.96559 0.0
C2011 C 0.63421 0.92807 0.94211 0.0
C2012 C 0.60182 0.94142 0.97957 0.0
C2013 C 0.60352 0.97114 0.97065 0.0
H2014 H 0.61456 0.89752 0.97311 0.0
H2015 H 0.58883 0.93444 0.99761 0.0
S2016 S 0.64705 1.00415 0.91164 0.0
N2017 N 0.65289 0.96839 0.9113 0.0
N2018 N 0.62452 1.00798 0.9377 0.0
C2019 C 0.6207 0.97933 0.94722 0.0
C2020 C 0.63622 0.95794 0.9331 0.0
C2021 C 0.93012 0.74688 0.77833 0.0
C2022 C 0.93931 0.75482 0.75013 0.0
C2023 C 0.9056 0.75364 0.7892 0.0
C2024 C 0.88967 0.76906 0.77259 0.0
H2025 H 0.94195 0.73535 0.79222 0.0
H2026 H 0.89916 0.74698 0.81093 0.0
S2027 S 0.90259 0.79142 0.6956 0.0
N2028 N 0.92921 0.77671 0.70456 0.0
N2029 N 0.88308 0.78929 0.72505 0.0
C2030 C 0.89803 0.77625 0.74388 0.0
C2031 C 0.92298 0.76933 0.73274 0.0
C2032 C 0.11904 0.06069 0.88924 0.0
C2033 C 0.14576 0.05402 0.88444 0.0
C2034 C 0.10703 0.06171 0.91905 0.0
C2035 C 0.12104 0.05746 0.94745 0.0
H2036 H 0.10674 0.06472 0.86938 0.0
H2037 H 0.0864 0.06646 0.91986 0.0
S2038 S 0.19191 0.04008 0.94992 0.0
N2039 N 0.18549 0.04284 0.91272 0.0
N2040 N 0.16431 0.04641 0.96737 0.0
C2041 C 0.14797 0.05132 0.94314 0.0
C2042 C 0.15975 0.04921 0.91252 0.0
C2043 C 0.8687 0.3832 0.60266 0.0
C2044 C 0.86463 0.41459 0.60708 0.0
C2045 C 0.88019 0.37319 0.628 0.0
C2046 C 0.88769 0.39409 0.65854 0.0
H2047 H 0.86522 0.36722 0.57911 0.0
H2048 H 0.88492 0.34983 0.62321 0.0
S2049 S 0.87334 0.47415 0.68444 0.0
N2050 N 0.86344 0.46354 0.64551 0.0
N2051 N 0.88497 0.44426 0.69337 0.0
C2052 C 0.88077 0.42383 0.66406 0.0
C2053 C 0.86909 0.43413 0.63824 0.0
C2054 C 0.51624 0.032 0.42571 0.0
C2055 C 0.52838 0.05088 0.405 0.0
C2056 C 0.53285 0.03119 0.45277 0.0
C2057 C 0.56198 0.04985 0.4603 0.0
H2058 H 0.49379 0.01763 0.42087 0.0
H2059 H 0.52245 1.01636 0.46823 0.0
S2060 S 0.60301 0.10429 0.41337 0.0
N2061 N 0.57063 0.08825 0.39256 0.0
N2062 N 0.6019 0.08849 0.44503 0.0
C2063 C 0.57438 0.06871 0.43943 0.0
C2064 C 0.55748 0.06886 0.41132 0.0
C2065 C 0.81506 0.73281 0.15069 0.0
C2066 C 0.81873 0.75646 0.13203 0.0
C2067 C 0.81689 0.74115 0.18394 0.0
C2068 C 0.82212 0.77374 0.20134 0.0
H2069 H 0.81121 0.70703 0.13959 0.0
H2070 H 0.81479 0.72153 0.19639 0.0
S2071 S 0.83119 0.84584 0.16517 0.0
N2072 N 0.8261 0.81458 0.13411 0.0
N2073 N 0.82979 0.83032 0.19707 0.0
C2074 C 0.82464 0.79795 0.18336 0.0
C2075 C 0.82273 0.78931 0.14879 0.0
C2076 C 0.13335 0.03239 0.67759 0.0
C2077 C 0.16012 0.02532 0.68372 0.0
C2078 C 0.12098 0.03368 0.64622 0.0
C2079 C 0.13489 0.02943 0.61836 0.0
H2080 H 0.12125 0.03628 0.69721 0.0
H2081 H 0.09986 0.03716 0.64378 0.0
S2082 S 0.20572 1.01184 0.61967 0.0
N2083 N 0.19966 1.01463 0.65693 0.0
N2084 N 0.17792 0.01827 0.60081 0.0
C2085 C 0.16179 0.02318 0.62457 0.0
C2086 C 0.17392 0.02107 0.65593 0.0
C2087 C 0.87045 0.35912 0.41803 0.0
C2088 C 0.85213 0.37734 0.43008 0.0
C2089 C 0.86677 0.34368 0.38578 0.0
C2090 C 0.84434 0.34545 0.36468 0.0
H2091 H 0.88825 0.35742 0.43344 0.0
H2092 H 0.88149 0.33015 0.37739 0.0
S2093 S 0.79 0.38917 0.3844 0.0
N2094 N 0.81054 0.39584 0.41856 0.0
N2095 N 0.80327 0.36625 0.3579 0.0
C2096 C 0.82552 0.363 0.37649 0.0
C2097 C 0.82952 0.37914 0.40924 0.0
C2098 C 0.4897 1.01728 0.23858 0.0
C2099 C 0.49519 0.05068 0.25372 0.0
C2100 C 0.50977 1.00654 0.2214 0.0
C2101 C 0.53574 0.02889 0.21878 0.0
H2102 H 0.47036 0.99908 0.24113 0.0
H2103 H 0.50492 0.9807 0.20992 0.0
S2104 S 0.55883 0.11903 0.25069 0.0
N2105 N 0.52754 0.10614 0.26329 0.0
N2106 N 0.56497 0.08585 0.22977 0.0
C2107 C 0.54097 0.0624 0.23248 0.0
C2108 C 0.52073 0.07333 0.25031 0.0
C2109 C 0.82833 0.7907 0.94026 0.0
C2110 C 0.82137 0.75798 0.94376 0.0
C2111 C 0.83295 0.79868 0.91046 0.0
C2112 C 0.82929 0.77433 0.88192 0.0
H2113 H 0.83037 0.81049 0.96085 0.0
H2114 H 0.83837 0.82436 0.90972 0.0
S2115 S 0.81257 0.68472 0.87794 0.0
N2116 N 0.81288 0.70107 0.91596 0.0
N2117 N 0.81982 0.71571 0.86025 0.0
C2118 C 0.82287 0.74151 0.88528 0.0
C2119 C 0.81923 0.73348 0.91588 0.0
C2120 C 0.87238 0.05368 0.05438 0.0
C2121 C 0.85831 0.06861 0.03487 0.0
C2122 C 0.89178 0.03708 0.04284 0.0
C2123 C 0.89743 0.03456 0.01133 0.0
H2124 H 0.86818 0.05447 0.07869 0.0
H2125 H 0.90181 0.02537 0.05835 0.0
S2126 S 0.86786 0.07066 0.95099 0.0
N2127 N 0.85269 0.08105 0.98279 0.0
N2128 N 0.88901 0.04939 0.96119 0.0
C2129 C 0.88429 0.05005 0.9918 0.0
C2130 C 0.86477 0.06727 1.00358 0.0
C2131 C 0.47196 0.4398 0.05199 0.0
C2132 C 0.44919 0.45403 0.05373 0.0
C2133 C 0.50035 0.45852 0.05111 0.0
C2134 C 0.50746 0.49242 0.0517 0.0
H2135 H 0.46793 0.41393 0.05156 0.0
H2136 H 0.51689 0.44616 0.05011 0.0
S2137 S 0.45531 0.54102 0.05282 0.0
N2138 N 0.43566 0.50407 0.05444 0.0
N2139 N 0.48837 0.53858 0.05142 0.0
C2140 C 0.48473 0.50676 0.05263 0.0
C2141 C 0.45588 0.48781 0.05399 0.0
C2142 C 0.38642 0.67309 0.73332 0.0
C2143 C 0.39774 0.66476 0.76099 0.0
C2144 C 0.37471 0.70082 0.73413 0.0
C2145 C 0.37129 0.72223 0.76261 0.0
H2146 H 0.38753 0.65861 0.71021 0.0
H2147 H 0.36831 0.70561 0.71159 0.0
S2148 S 0.39742 0.71342 0.84271 0.0
N2149 N 0.4047 0.68283 0.81856 0.0
N2150 N 0.38248 0.73225 0.81981 0.0
C2151 C 0.38239 0.71399 0.79038 0.0
C2152 C 0.39506 0.68633 0.78966 0.0
C2153 C 0.20522 0.58927 0.54342 0.0
C2154 C 0.22542 0.62037 0.55329 0.0
C2155 C 0.17626 0.58528 0.54651 0.0
C2156 C 0.16652 0.61182 0.56048 0.0
H2157 H 0.21151 0.56822 0.53169 0.0
H2158 H 0.16112 0.56161 0.53616 0.0
S2159 S 0.21118 0.69783 0.59255 0.0
N2160 N 0.23412 0.67811 0.57935 0.0
N2161 N 0.17932 0.67004 0.585 0.0
C2162 C 0.18655 0.64285 0.57127 0.0
C2163 C 0.21613 0.64716 0.56796 0.0
C2164 C 0.77491 0.99271 0.80662 0.0
C2165 C 0.78566 0.99988 0.77886 0.0
C2166 C 0.78995 0.98039 0.82739 0.0
C2167 C 0.81626 0.9749 0.82115 0.0
H2168 H 0.75523 0.99769 0.81301 0.0
H2169 H 0.78124 0.9758 0.84886 0.0
S2170 S 0.85261 0.98726 0.75048 0.0
N2171 N 0.82315 0.9983 0.74497 0.0
N2172 N 0.85182 0.97587 0.78456 0.0
C2173 C 0.82658 0.98041 0.79272 0.0
C2174 C 0.81114 0.99271 0.7714 0.0
C2175 C 0.79214 0.9569 0.52607 0.0
C2176 C 0.80603 0.96509 0.55759 0.0
C2177 C 0.77326 0.97363 0.51662 0.0
C2178 C 0.76709 0.99882 0.53841 0.0
H2179 H 0.79653 0.93809 0.50824 0.0
H2180 H 0.76369 0.9671 0.49192 0.0
S2181 S 0.79589 0.02818 0.62424 0.0
N2182 N 0.81097 0.99916 0.61103 0.0
N2183 N 0.77521 0.03017 0.59318 0.0
C2184 C 0.77982 1.00637 0.57025 0.0
C2185 C 0.79937 0.98966 0.57985 0.0
C2186 C 0.3789 0.46451 0.77067 0.0
C2187 C 0.40911 0.47827 0.78035 0.0
C2188 C 0.36354 0.43084 0.77053 0.0
C2189 C 0.3772 0.40822 0.77975 0.0
H2190 H 0.36682 0.47988 0.76318 0.0
H2191 H 0.34059 0.42249 0.7629 0.0
S2192 S 0.45598 0.43021 0.80661 0.0
N2193 N 0.4516 0.46439 0.79915 0.0
N2194 N 0.42368 0.4036 0.7986 0.0
C2195 C 0.40731 0.42174 0.7892 0.0
C2196 C 0.4228 0.45565 0.78956 0.0
C2197 C 0.25456 0.68123 0.2393 0.0
C2198 C 0.26767 0.65779 0.24592 0.0
C2199 C 0.26873 0.71485 0.25004 0.0
C2200 C 0.29617 0.72576 0.26795 0.0
H2201 H 0.23333 0.67352 0.22567 0.0
H2202 H 0.25805 0.7324 0.2447 0.0
S2203 S 0.33801 0.67446 0.29494 0.0
N2204 N 0.30872 0.64777 0.27319 0.0
N2205 N 0.3348 0.71123 0.29438 0.0
C2206 C 0.30892 0.70271 0.2759 0.0
C2207 C 0.29489 0.66855 0.26437 0.0
C2208 C 0.57534 0.69152 0.54366 0.0
C2209 C 0.57643 0.6988 0.51302 0.0
C2210 C 0.57786 0.6608 0.54975 0.0
C2211 C 0.58246 0.63567 0.52577 0.0
H2212 H 0.5719 0.70948 0.56311 0.0
H2213 H 0.57577 0.65662 0.57336 0.0
S2214 S 0.58817 0.64225 0.44185 0.0
N2215 N 0.58285 0.67739 0.45887 0.0
N2216 N 0.58842 0.62179 0.47001 0.0
C2217 C 0.58404 0.64322 0.49538 0.0
C2218 C 0.58101 0.67393 0.48917 0.0
C2219 C 0.74417 0.31968 0.68134 0.0
C2220 C 0.73115 0.34451 0.69267 0.0
C2221 C 0.76806 0.3153 0.6994 0.0
C2222 C 0.78036 0.33514 0.73028 0.0
H2223 H 0.73498 0.30239 0.65879 0.0
H2224 H 0.77627 0.29525 0.68932 0.0
S2225 S 0.75762 0.40725 0.76883 0.0
N2226 N 0.73452 0.39106 0.73587 0.0
N2227 N 0.77936 0.38394 0.76862 0.0
C2228 C 0.76845 0.36114 0.74096 0.0
C2229 C 0.74401 0.3654 0.72269 0.0
C2230 C 0.06462 0.41113 0.98166 0.0
C2231 C 0.06036 0.39362 1.00591 0.0
C2232 C 0.07186 0.44605 0.98798 0.0
C2233 C 0.07594 0.46638 0.01908 0.0
H2234 H 0.06201 0.39763 0.95716 0.0
H2235 H 0.07471 0.45739 0.96791 0.0
S2236 S 0.07008 0.43389 0.09215 0.0
N2237 N 0.06157 0.40025 0.06312 0.0
N2238 N 0.07704 0.46529 0.07494 0.0
C2239 C 0.07235 0.44934 0.04381 0.0
C2240 C 0.0641 0.41343 0.03727 0.0
C2241 C 0.0318 0.81951 0.18851 0.0
C2242 C 0.06038 0.82827 0.20332 0.0
C2243 C 1.00868 0.81343 0.20626 0.0
C2244 C 0.01357 0.81634 0.23936 0.0
H2245 H 0.02724 0.81524 0.16288 0.0
H2246 H 0.98696 0.80459 0.19376 0.0
S2247 S 0.08471 0.84506 0.28977 0.0
N2248 N 0.09236 0.84337 0.25311 0.0
N2249 N 0.0493 0.83385 0.28661 0.0
C2250 C 0.04218 0.82805 0.25457 0.0
C2251 C 0.06549 0.83346 0.23651 0.0
C2252 C 0.53532 0.32567 0.10343 0.0
C2253 C 0.55504 0.30976 0.11269 0.0
C2254 C 0.53854 0.34042 0.07752 0.0
C2255 C 0.56129 0.33927 0.05972 0.0
H2256 H 0.51723 0.32673 0.1162 0.0
H2257 H 0.52326 0.353 0.07143 0.0
S2258 S 0.61993 0.30304 0.07507 0.0
N2259 N 0.59911 0.29535 0.1026 0.0
N2260 N 0.60471 0.32301 0.05382 0.0
C2261 C 0.58135 0.32396 0.06881 0.0
C2262 C 0.57835 0.30923 0.09535 0.0
C2263 C 0.06763 0.32878 0.3001 0.0
C2264 C 0.07262 0.33582 0.3335 0.0
C2265 C 0.0447 0.33597 0.28441 0.0
C2266 C 0.026 0.34987 0.30177 0.0
H2267 H 0.08194 0.31856 0.28612 0.0
H2268 H 0.04154 0.33064 0.25865 0.0
S2269 S 0.02905 0.37148 0.38957 0.0
N2270 N 0.05609 0.35607 0.38334 0.0
N2271 N 0.0137 0.37008 0.35387 0.0
C2272 C 0.03047 0.35637 0.3351 0.0
C2273 C 0.05359 0.34914 0.35098 0.0
C2274 C 0.03006 0.64896 0.65863 0.0
C2275 C 1.00974 0.66027 0.64305 0.0
C2276 C 0.04626 0.63134 0.64149 0.0
C2277 C 0.04281 0.62409 0.60799 0.0
H2278 H 0.03501 0.65566 0.68435 0.0
H2279 H 0.06225 0.62432 0.6549 0.0
S2280 S 0.98742 0.64199 0.55631 0.0
N2281 N 0.98394 0.65929 0.59278 0.0
N2282 N 0.01368 0.62519 0.56015 0.0
C2283 C 0.02087 0.63315 0.59219 0.0
C2284 C 1.00446 0.65133 0.60981 0.0
C2285 C 0.72956 0.85234 0.8164 0.0
C2286 C 0.72497 0.84472 0.84613 0.0
C2287 C 0.75442 0.85018 0.80294 0.0
C2288 C 0.77515 0.83948 0.81831 0.0
H2289 H 0.71377 0.85986 0.80321 0.0
H2290 H 0.75702 0.85595 0.77996 0.0
S2291 S 0.77545 0.82142 0.89847 0.0
N2292 N 0.74476 0.82943 0.8918 0.0
N2293 N 0.79124 0.82523 0.86651 0.0
C2294 C 0.77146 0.83325 0.84859 0.0
C2295 C 0.74637 0.83577 0.86243 0.0
C2296 C 0.50624 0.57394 0.67237 0.0
C2297 C 0.51845 0.5737 0.7034 0.0
C2298 C 0.52066 0.57054 0.64424 0.0
C2299 C 0.54901 0.56708 0.6442 0.0
H2300 H 0.48474 0.57631 0.66944 0.0
H2301 H 0.50918 0.57081 0.62196 0.0
S2302 S 0.59174 0.56383 0.71805 0.0
N2303 N 0.56178 0.56875 0.73079 0.0
N2304 N 0.58801 0.56285 0.67964 0.0
C2305 C 0.5615 0.56681 0.67501 0.0
C2306 C 0.5467 0.5699 0.70364 0.0
C2307 C 0.78565 0.21394 0.96647 0.0
C2308 C 0.79539 0.18588 0.96294 0.0
C2309 C 0.7786 0.22554 0.94024 0.0
C2310 C 0.78099 0.20951 0.90953 0.0
H2311 H 0.7825 0.22661 0.98958 0.0
H2312 H 0.77026 0.24654 0.94389 0.0
S2313 S 0.80926 0.13829 0.88743 0.0
N2314 N 0.81005 0.14457 0.92646 0.0
N2315 N 0.79624 0.16651 0.87675 0.0
C2316 C 0.79203 0.18255 0.90553 0.0
C2317 C 0.79949 0.17077 0.9324 0.0
C2318 C 0.14944 0.51473 0.16079 0.0
C2319 C 0.17811 0.53441 0.16898 0.0
C2320 C 0.12947 0.52441 0.14286 0.0
C2321 C 0.13774 0.55418 0.13304 0.0
H2322 H 0.14277 0.49115 0.16704 0.0
H2323 H 0.10798 0.50774 0.13531 0.0
S2324 S 0.20896 0.61723 0.1547 0.0
N2325 N 0.2129 0.58652 0.16978 0.0
N2326 N 0.17528 0.60559 0.13766 0.0
C2327 C 0.16572 0.57533 0.14385 0.0
C2328 C 0.18601 0.56517 0.16138 0.0
C2329 C 0.84718 0.86929 0.43652 0.0
C2330 C 0.84863 0.84333 0.45097 0.0
C2331 C 0.84242 0.86486 0.40307 0.0
C2332 C 0.83865 0.8342 0.38182 0.0
H2333 H 0.85017 0.89363 0.45121 0.0
H2334 H 0.84168 0.88596 0.3937 0.0
S2335 S 0.83729 0.75697 0.40681 0.0
N2336 N 0.84455 0.78501 0.44078 0.0
N2337 N 0.8341 0.77649 0.37835 0.0
C2338 C 0.83917 0.80767 0.39583 0.0
C2339 C 0.84464 0.81231 0.43009 0.0
C2340 C 0.51729 0.55324 0.92042 0.0
C2341 C 0.53431 0.55323 0.89521 0.0
C2342 C 0.52718 0.55115 0.95187 0.0
C2343 C 0.55529 0.54956 0.96159 0.0
H2344 H 0.4956 0.55462 0.91576 0.0
H2345 H 0.51232 0.55122 0.96921 0.0
S2346 S 0.61077 0.55277 0.90671 0.0
N2347 N 0.58214 0.55264 0.88362 0.0
N2348 N 0.60099 0.55144 0.94225 0.0
C2349 C 0.573 0.55047 0.9369 0.0
C2350 C 0.56255 0.55153 0.9043 0.0
C2351 C 0.85057 0.2282 0.13668 0.0
C2352 C 0.82467 0.20414 0.12349 0.0
C2353 C 0.85085 0.2556 0.16021 0.0
C2354 C 0.82518 0.25994 0.17074 0.0
H2355 H 0.87074 0.22507 0.12983 0.0
H2356 H 0.87149 0.27191 0.17171 0.0
S2357 S 0.7513 0.20671 0.13762 0.0
N2358 N 0.77254 0.18807 0.1185 0.0
N2359 N 0.77288 0.24035 0.16194 0.0
C2360 C 0.79894 0.23755 0.15501 0.0
C2361 C 0.79874 0.2093 0.1317 0.0
C2362 C 0.16508 0.58 0.33755 0.0
C2363 C 0.15153 0.57434 0.30623 0.0
C2364 C 0.15083 0.58711 0.3636 0.0
C2365 C 0.12246 0.58867 0.35931 0.0
H2366 H 0.18718 0.57989 0.34216 0.0
H2367 H 0.16242 0.59233 0.3873 0.0
S2368 S 0.07646 0.57302 0.28241 0.0
N2369 N 0.10754 0.56908 0.27241 0.0
N2370 N 0.08056 0.58187 0.3217 0.0
C2371 C 0.10829 0.58206 0.32824 0.0
C2372 C 0.12286 0.57498 0.30161 0.0
C2373 C 0.85037 0.87799 0.67147 0.0
C2374 C 0.84908 0.85542 0.64227 0.0
C2375 C 0.84583 0.86814 0.70036 0.0
C2376 C 0.83954 0.83494 0.70224 0.0
H2377 H 0.85523 0.90402 0.67231 0.0
H2378 H 0.84733 0.88703 0.72155 0.0
S2379 S 0.8326 0.76508 0.633 0.0
N2380 N 0.84036 0.79764 0.61751 0.0
N2381 N 0.8316 0.77904 0.6712 0.0
C2382 C 0.83765 0.81184 0.67315 0.0
C2383 C 0.84252 0.82202 0.64358 0.0
C2384 C 0.78628 0.51178 0.54783 0.0
C2385 C 0.81539 0.52983 0.55048 0.0
C2386 C 0.766 0.52717 0.55945 0.0
C2387 C 0.7743 0.56104 0.57377 0.0
H2388 H 0.77958 0.4853 0.53904 0.0
H2389 H 0.74428 0.51211 0.55931 0.0
S2390 S 0.84661 0.61997 0.58034 0.0
N2391 N 0.85058 0.58381 0.56437 0.0
N2392 N 0.81241 0.61282 0.58519 0.0
C2393 C 0.8027 0.57969 0.57355 0.0
C2394 C 0.8233 0.56405 0.5622 0.0
C2395 C 0.23019 0.10363 0.52525 0.0
C2396 C 0.23314 0.13047 0.51058 0.0
C2397 C 0.20304 0.08232 0.52682 0.0
C2398 C 0.17756 0.08683 0.51377 0.0
H2399 H 0.249 0.09965 0.53674 0.0
H2400 H 0.20201 0.06305 0.53951 0.0
S2401 S 0.17313 0.14911 0.46777 0.0
N2402 N 0.20789 0.15753 0.4795 0.0
N2403 N 0.15718 0.11754 0.48216 0.0
C2404 C 0.18023 0.11226 0.49743 0.0
C2405 C 0.20783 0.13402 0.49593 0.0
C2406 C 0.29374 0.92651 0.73515 0.0
C2407 C 0.27165 0.93349 0.75323 0.0
C2408 C 0.30484 0.89827 0.7351 0.0
C2409 C 0.29622 0.87512 0.75448 0.0
H2410 H 0.30221 0.94263 0.7199 0.0
H2411 H 0.31963 0.89398 0.71852 0.0
S2412 S 0.2339 0.87579 0.79994 0.0
N2413 N 0.23882 0.90979 0.78698 0.0
N2414 N 0.25883 0.85923 0.78702 0.0
C2415 C 0.27303 0.88108 0.77103 0.0
C2416 C 0.26152 0.90928 0.77077 0.0
C2417 C 0.45766 1.015 0.01066 0.0
C2418 C 0.44 0.98232 1.00288 0.0
C2419 C 0.48761 0.02212 0.01473 0.0
C2420 C 0.50105 0.99698 0.01127 0.0
H2421 H 0.4484 0.03524 0.01533 0.0
H2422 H 0.5001 0.0475 0.02223 0.0
S2423 S 0.46476 0.90756 0.98531 0.0
N2424 N 0.43828 0.92451 0.9872 0.0
N2425 N 0.49466 0.93837 0.99591 0.0
C2426 C 0.48376 0.96435 1.00131 0.0
C2427 C 0.45324 0.95694 0.99673 0.0
C2428 C 0.90381 0.64192 0.78547 0.0
C2429 C 0.88932 0.62014 0.80283 0.0
C2430 C 0.88851 0.6559 0.76655 0.0
C2431 C 0.85854 0.64877 0.76508 0.0
H2432 H 0.92645 0.64538 0.78382 0.0
H2433 H 0.89987 0.67071 0.75155 0.0
S2434 S 0.81194 0.59793 0.81089 0.0
N2435 N 0.84445 0.59532 0.82078 0.0
N2436 N 0.81562 0.62246 0.78596 0.0
C2437 C 0.84442 0.62998 0.78514 0.0
C2438 C 0.85992 0.6154 0.80394 0.0
C2439 C 0.88863 0.63592 0.08764 0.0
C2440 C 0.88264 0.64149 0.05733 0.0
C2441 C 0.90879 0.61955 0.09371 0.0
C2442 C 0.9236 0.60754 0.0696 0.0
H2443 H 0.87747 0.64412 0.10694 0.0
H2444 H 0.91249 0.61582 0.11746 0.0
S2445 S 0.91595 0.61595 0.98605 0.0
N2446 N 0.89369 0.63458 1.00306 0.0
N2447 N 0.93108 0.6028 0.01414 0.0
C2448 C 0.91839 0.61366 0.03931 0.0
C2449 C 0.89802 0.63082 0.03324 0.0
C2450 C 0.25508 0.15651 0.80011 0.0
C2451 C 0.26584 0.1294 0.7891 0.0
C2452 C 0.26969 0.18974 0.79943 0.0
C2453 C 0.29658 0.19891 0.78816 0.0
H2454 H 0.23455 0.15207 0.80898 0.0
H2455 H 0.25963 0.20861 0.80804 0.0
S2456 S 0.33453 0.13851 0.75471 0.0
N2457 N 0.30561 0.1153 0.76523 0.0
N2458 N 0.33259 0.17659 0.76423 0.0
C2459 C 0.30771 0.17221 0.77704 0.0
C2460 C 0.29264 0.13817 0.77741 0.0
C2461 C 0.41391 0.92854 0.31732 0.0
C2462 C 0.40702 0.95674 0.31277 0.0
C2463 C 0.39509 0.89728 0.30347 0.0
C2464 C 0.36943 0.8937 0.28413 0.0
H2465 H 0.43387 0.93068 0.33153 0.0
H2466 H 0.40099 0.87586 0.30717 0.0
S2467 S 0.3425 0.95941 0.26331 0.0
N2468 N 0.37286 0.97883 0.28735 0.0
N2469 N 0.33856 0.91989 0.25988 0.0
C2470 C 0.36265 0.92145 0.27883 0.0
C2471 C 0.38118 0.95314 0.29368 0.0
C2472 C 0.61418 0.43633 0.6131 0.0
C2473 C 0.62829 0.41813 0.59201 0.0
C2474 C 0.60586 0.46427 0.60705 0.0
C2475 C 0.60971 0.47621 0.57881 0.0
H2476 H 0.61009 0.42951 0.63537 0.0
H2477 H 0.59638 0.47715 0.62539 0.0
S2478 S 0.64567 0.43877 0.51469 0.0
N2479 N 0.64591 0.41582 0.54079 0.0
N2480 N 0.62964 0.46642 0.52942 0.0
C2481 C 0.62333 0.45801 0.55709 0.0
C2482 C 0.63254 0.42985 0.56359 0.0
C2483 C 0.45495 0.81591 0.34203 0.0
C2484 C 0.45329 0.80143 0.36859 0.0
C2485 C 0.43004 0.81645 0.32312 0.0
C2486 C 0.402 0.80325 0.3301 0.0
H2487 H 0.47579 0.82686 0.33559 0.0
H2488 H 0.43285 0.82794 0.30315 0.0
S2489 S 0.38502 0.76207 0.39648 0.0
N2490 N 0.42049 0.7729 0.40011 0.0
N2491 N 0.37435 0.77466 0.36546 0.0
C2492 C 0.4 0.78874 0.35652 0.0
C2493 C 0.42531 0.78762 0.37541 0.0
C2494 C 0.11894 0.7125 0.11399 0.0
C2495 C 0.11741 0.72893 0.08898 0.0
C2496 C 0.11522 0.67835 0.1089 0.0
C2497 C 0.10973 0.65719 0.07836 0.0
H2498 H 0.12275 0.72615 0.13855 0.0
H2499 H 0.11601 0.66819 0.1297 0.0
S2500 S 0.10586 0.68595 1.0033 0.0
N2501 N 0.11181 0.72016 0.03128 0.0
N2502 N 0.10455 0.65592 0.02182 0.0
C2503 C 0.1093 0.67289 0.05262 0.0
C2504 C 0.11324 0.70843 0.05786 0.0
C2505 C 0.1085 0.25203 0.84585 0.0
C2506 C 0.10744 0.27439 0.87403 0.0
C2507 C 0.13156 0.25843 0.82825 0.0
C2508 C 0.15477 0.28722 0.83821 0.0
H2509 H 0.09103 0.22963 0.83678 0.0
H2510 H 0.13087 0.24109 0.80613 0.0
S2511 S 0.16364 0.35324 0.91065 0.0
N2512 N 0.13261 0.32628 0.91149 0.0
N2513 N 0.17594 0.33794 0.87829 0.0
C2514 C 0.15465 0.30932 0.86674 0.0
C2515 C 0.13102 0.30299 0.88467 0.0
C2516 C 0.6247 0.74746 0.9588 0.0
C2517 C 0.64597 0.77813 0.96874 0.0
C2518 C 0.61441 0.7288 0.98073 0.0
C2519 C 0.62481 0.74036 0.01336 0.0
H2520 H 0.61514 0.73831 0.93409 0.0
H2521 H 0.59715 0.70607 0.97234 0.0
S2522 S 0.68256 0.81684 0.05151 0.0
N2523 N 0.67882 0.81751 0.01348 0.0
N2524 N 0.65912 0.78246 0.05432 0.0
C2525 C 0.64712 0.76988 0.02339 0.0
C2526 C 0.65781 0.78876 1.00117 0.0
C2527 C 0.09144 0.71851 0.74365 0.0
C2528 C 0.09258 0.75105 0.74324 0.0
C2529 C 0.11658 0.70935 0.74765 0.0
C2530 C 0.14383 0.73256 0.75194 0.0
H2531 H 0.07093 0.69957 0.73899 0.0
H2532 H 0.11455 0.6836 0.746 0.0
S2533 S 0.15774 0.82203 0.75601 0.0
N2534 N 0.1224 0.80685 0.7485 0.0
N2535 N 0.17002 0.79065 0.7588 0.0
C2536 C 0.14507 0.76575 0.75326 0.0
C2537 C 0.11934 0.77475 0.74818 0.0
C2538 C 0.09738 0.43429 0.4684 0.0
C2539 C 0.125 0.43028 0.47222 0.0
C2540 C 0.09142 0.46187 0.48598 0.0
C2541 C 0.11269 0.48594 0.50852 0.0
H2542 H 0.08033 0.41625 0.45127 0.0
H2543 H 0.06992 0.46412 0.48211 0.0
S2544 S 0.18823 0.4861 0.52797 0.0
N2545 N 0.17367 0.45211 0.50005 0.0
N2546 N 0.16242 0.50364 0.53395 0.0
C2547 C 0.14029 0.48185 0.51292 0.0
C2548 C 0.14648 0.45409 0.49448 0.0
C2549 C 0.43004 0.25472 0.26063 0.0
C2550 C 0.44015 0.25746 0.23136 0.0
C2551 C 0.40507 0.26316 0.26832 0.0
C2552 C 0.38917 0.27409 0.24672 0.0
H2553 H 0.44114 0.24526 0.27741 0.0
H2554 H 0.39734 0.25945 0.29047 0.0
S2555 S 0.40691 0.28671 0.16761 0.0
N2556 N 0.43295 0.27351 0.18152 0.0
N2557 N 0.38562 0.28795 0.1954 0.0
C2558 C 0.3994 0.27752 0.21776 0.0
C2559 C 0.4251 0.26979 0.2103 0.0
C2560 C 0.62337 0.55145 0.40083 0.0
C2561 C 0.65135 0.54905 0.39559 0.0
C2562 C 0.6123 0.55096 0.43097 0.0
C2563 C 0.62845 0.54928 0.45924 0.0
H2564 H 0.60938 0.55322 0.38108 0.0
H2565 H 0.59061 0.55248 0.43213 0.0
S2566 S 0.70361 0.54421 0.46071 0.0
N2567 N 0.69493 0.54514 0.42335 0.0
N2568 N 0.67524 0.54608 0.47873 0.0
C2569 C 0.65669 0.54766 0.45456 0.0
C2570 C 0.66765 0.54704 0.42357 0.0
C2571 C 0.3428 0.89349 0.09583 0.0
C2572 C 0.35203 0.92756 0.09791 0.0
C2573 C 0.35494 0.87976 0.11773 0.0
C2574 C 0.37639 0.89964 0.14277 0.0
H2575 H 0.32793 0.8769 0.07567 0.0
H2576 H 0.34895 0.8532 0.11356 0.0
S2577 S 0.40202 0.99067 0.16404 0.0
N2578 N 0.37968 0.98134 0.13068 0.0
N2579 N 0.402 0.95521 0.17232 0.0
C2580 C 0.38314 0.9339 0.14747 0.0
C2581 C 0.37091 0.94797 0.12502 0.0
C2582 C 1.01182 0.5745 0.94056 0.0
C2583 C 0.02343 0.57589 0.91212 0.0
C2584 C 0.02813 0.57167 0.96712 0.0
C2585 C 0.05667 0.5706 0.96622 0.0
H2586 H 0.98954 0.57366 0.9418 0.0
H2587 H 0.01801 0.56978 0.98828 0.0
S2588 S 0.09786 0.57822 0.89828 0.0
N2589 N 0.06556 0.57914 0.88503 0.0
N2590 N 0.0966 0.57473 0.93542 0.0
C2591 C 0.06906 0.57434 0.93852 0.0
C2592 C 0.05229 0.5767 0.91129 0.0
C2593 C 0.31981 0.27775 0.63867 0.0
C2594 C 0.33326 0.25523 0.62257 0.0
C2595 C 0.32303 0.28724 0.67281 0.0
C2596 C 0.33809 0.27299 0.6925 0.0
H2597 H 0.30609 0.28742 0.62495 0.0
H2598 H 0.31328 0.30541 0.68362 0.0
S2599 S 0.38439 0.22072 0.6623 0.0
N2600 N 0.36832 0.22604 0.62986 0.0
N2601 N 0.372 0.24068 0.69188 0.0
C2602 C 0.35374 0.25302 0.6763 0.0
C2603 C 0.35169 0.24482 0.64216 0.0
C2604 C 0.63277 0.53051 0.18761 0.0
C2605 C 0.66167 0.52938 0.19458 0.0
C2606 C 0.62049 0.53308 0.15675 0.0
C2607 C 0.63644 0.53666 0.13058 0.0
H2608 H 0.61895 0.52828 0.20593 0.0
H2609 H 0.59788 0.53136 0.15323 0.0
S2610 S 0.71323 0.53716 0.13507 0.0
N2611 N 0.70552 0.53303 0.17072 0.0
N2612 N 0.68357 0.53896 0.11554 0.0
C2613 C 0.66536 0.53637 0.13774 0.0
C2614 C 0.67756 0.53283 0.16851 0.0
C2615 C 0.34739 0.84622 0.91414 0.0
C2616 C 0.3321 0.86951 0.92131 0.0
C2617 C 0.34749 0.83023 0.8826 0.0
C2618 C 0.33181 0.83647 0.85734 0.0
H2619 H 0.36033 0.84122 0.93287 0.0
H2620 H 0.36006 0.81311 0.87793 0.0
S2621 S 0.28877 0.89533 0.86322 0.0
N2622 N 0.30115 0.89797 0.90039 0.0
N2623 N 0.30083 0.86738 0.84132 0.0
C2624 C 0.31585 0.8589 0.86421 0.0
C2625 C 0.31613 0.87557 0.89616 0.0
C2626 C 0.01576 0.55119 0.75128 0.0
C2627 C 0.9869 0.55096 0.74556 0.0
C2628 C 0.02882 0.53637 0.72734 0.0
C2629 C 0.01355 0.52101 0.69687 0.0
H2630 H 0.02788 0.56099 0.77491 0.0
H2631 H 0.05057 0.53555 0.73313 0.0
S2632 S 0.9401 0.52024 0.66767 0.0
N2633 N 0.94503 0.53855 0.70588 0.0
N2634 N 0.97001 0.51091 0.66062 0.0
C2635 C 0.98562 0.52295 0.69003 0.0
C2636 C 0.97221 0.53798 0.71445 0.0
C2637 C 0.32235 0.28147 0.4279 0.0
C2638 C 0.32049 0.24969 0.43249 0.0
C2639 C 0.3267 0.28981 0.39816 0.0
C2640 C 0.32828 0.26656 0.3707 0.0
H2641 H 0.32069 0.30036 0.44767 0.0
H2642 H 0.32812 0.31472 0.39652 0.0
S2643 S 0.32422 0.1796 0.36884 0.0
N2644 N 0.32111 0.19485 0.40619 0.0
N2645 N 0.32748 0.20999 0.35052 0.0
C2646 C 0.32611 0.2346 0.37476 0.0
C2647 C 0.32273 0.22637 0.40539 0.0
C2648 C 0.38415 0.57869 0.50934 0.0
C2649 C 0.35981 0.56479 0.52287 0.0
C2650 C 0.40493 0.56222 0.50293 0.0
C2651 C 0.40183 0.531 0.50926 0.0
H2652 H 0.38767 0.60291 0.50461 0.0
H2653 H 0.42364 0.57405 0.49308 0.0
S2654 S 0.34141 0.48346 0.54341 0.0
N2655 N 0.3334 0.51768 0.54155 0.0
N2656 N 0.37228 0.48666 0.52924 0.0
C2657 C 0.37724 0.51654 0.52203 0.0
C2658 C 0.3563 0.53346 0.52893 0.0
C2659 C 0.97527 0.93607 0.55218 0.0
C2660 C 0.95345 0.95114 0.55863 0.0
C2661 C 1.00327 0.95446 0.54933 0.0
C2662 C 1.01092 0.9889 0.55263 0.0
H2663 H 0.97074 0.90973 0.54919 0.0
H2664 H 0.01901 0.94137 0.54429 0.0
S2665 S 0.96126 0.0402 0.5677 0.0
N2666 N 0.94144 1.00279 0.56747 0.0
N2667 N 0.99329 0.03673 0.56124 0.0
C2668 C 0.98916 1.00415 0.55884 0.0
C2669 C 0.96075 0.98552 0.56205 0.0
C2670 C 0.88389 0.17312 0.23056 0.0
C2671 C 0.89501 0.16506 0.25838 0.0
C2672 C 0.87216 0.20066 0.23099 0.0
C2673 C 0.86893 0.22253 0.25922 0.0
H2674 H 0.88497 0.15838 0.20757 0.0
H2675 H 0.86555 0.20501 0.20824 0.0
S2676 S 0.89368 0.21396 0.33983 0.0
N2677 N 0.90135 0.18339 0.31605 0.0
N2678 N 0.87913 0.23285 0.31663 0.0
C2679 C 0.87952 0.2146 0.28737 0.0
C2680 C 0.89221 0.1869 0.28698 0.0
C2681 C 0.69719 0.11516 0.04885 0.0
C2682 C 0.71247 0.0917 0.04427 0.0
C2683 C 0.66715 0.10561 0.04289 0.0
C2684 C 0.65136 0.07236 0.03234 0.0
H2685 H 0.70852 0.14118 0.05633 0.0
H2686 H 0.65624 0.12445 0.04543 0.0
S2687 S 0.68107 1.00143 0.01644 0.0
N2688 N 0.70955 0.03379 0.02895 0.0
N2689 N 0.6532 1.01606 0.0172 0.0
C2690 C 0.66635 0.04872 0.02801 0.0
C2691 C 0.69689 0.05832 0.03446 0.0
C2692 C 0.32719 0.50628 0.2319 0.0
C2693 C 0.30727 0.51777 0.24927 0.0
C2694 C 0.34817 0.49565 0.24667 0.0
C2695 C 0.35 0.49655 0.27926 0.0
H2696 H 0.32628 0.50494 0.20658 0.0
H2697 H 0.36253 0.48583 0.23241 0.0
S2698 S 0.30388 0.5252 0.33569 0.0
N2699 N 0.29129 0.53014 0.30113 0.0
N2700 N 0.33084 0.50973 0.32872 0.0
C2701 C 0.33055 0.50818 0.29704 0.0
C2702 C 0.3091 0.51893 0.28206 0.0
C2703 C 0.30059 0.49644 0.07902 0.0
C2704 C 0.29931 0.46614 0.05857 0.0
C2705 C 0.28093 0.51374 0.07334 0.0
C2706 C 0.25902 0.50127 0.04724 0.0
H2707 H 0.3175 0.50754 0.09904 0.0
H2708 H 0.28354 0.53764 0.08879 0.0
S2709 S 0.2442 0.42204 0.98815 0.0
N2710 N 0.27267 0.42355 0.01224 0.0
N2711 N 0.2359 0.45627 1.00184 0.0
C2712 C 0.25656 0.47049 0.02746 0.0
C2713 C 0.27661 0.45285 0.03308 0.0
C2714 C 0.91556 0.951 0.27466 0.0
C2715 C 0.90345 0.97761 0.27622 0.0
C2716 C 0.89972 0.9186 0.27666 0.0
C2717 C 0.87021 0.90958 0.28079 0.0
H2718 H 0.93803 0.95516 0.27184 0.0
H2719 H 0.91118 0.90032 0.27516 0.0
S2720 S 0.82745 0.96959 0.28856 0.0
N2721 N 0.85922 0.99179 0.28307 0.0
N2722 N 0.83012 0.93231 0.28776 0.0
C2723 C 0.85773 0.936 0.28267 0.0
C2724 C 0.87392 0.96918 0.28015 0.0
C2725 C 0.76966 0.18097 0.76652 0.0
C2726 C 0.78497 0.15813 0.76819 0.0
C2727 C 0.78328 0.21457 0.77676 0.0
C2728 C 0.81252 0.22625 0.78888 0.0
H2729 H 0.74688 0.17281 0.75771 0.0
H2730 H 0.77074 0.23155 0.77569 0.0
S2731 S 0.86155 0.17681 0.80099 0.0
N2732 N 0.83065 0.1494 0.78416 0.0
N2733 N 0.85606 0.21318 0.80438 0.0
C2734 C 0.82801 0.2039 0.79143 0.0
C2735 C 0.81431 0.16957 0.78045 0.0
loop_
_geom_bond_atom_site_label_1
_geom_bond_atom_site_label_2
_geom_bond_distance
_geom_bond_site_symmetry_2
_ccdc_geom_bond_type
O0 Cd1 2.223 . S
O0 C8 1.315 . S
Cd1 O0 2.223 . S
Cd1 O4 2.297 . S
Cd1 O5 2.439 . S
Cd1 O11 2.240 . S
Cd2 O3 2.240 . S
Cd2 O10 2.223 . S
Cd2 O12 2.297 . S
Cd2 O13 2.439 . S
O3 Cd2 2.240 . S
O3 C8 1.279 . S
O4 Cd1 2.297 . S
O4 C6 1.247 . S
O5 Cd1 2.439 . S
O5 C6 1.208 . S
C6 O4 1.247 . S
C6 O5 1.208 . S
C7 O12 1.247 . S
C7 O13 1.208 . S
C8 O0 1.315 . S
C8 O3 1.279 . S
C9 O10 1.315 . S
C9 O11 1.279 . S
O10 Cd2 2.223 . S
O10 C9 1.315 . S
O11 Cd1 2.240 . S
O11 C9 1.279 . S
O12 Cd2 2.297 . S
O12 C7 1.247 . S
O13 Cd2 2.439 . S
O13 C7 1.208 . S
O14 Cd15 2.223 . S
O14 C22 1.315 . S
Cd15 O14 2.223 . S
Cd15 O18 2.297 . S
Cd15 O19 2.439 . S
Cd15 O25 2.240 1_655 S
Cd16 O17 2.240 1_455 S
Cd16 O24 2.223 . S
Cd16 O26 2.297 . S
Cd16 O27 2.439 . S
O17 Cd16 2.240 1_655 S
O17 C22 1.279 . S
O18 Cd15 2.297 . S
O18 C20 1.247 . S
O19 Cd15 2.439 . S
O19 C20 1.208 . S
C20 O18 1.247 . S
C20 O19 1.208 . S
C21 O26 1.247 . S
C21 O27 1.208 . S
C22 O14 1.315 . S
C22 O17 1.279 . S
C23 O24 1.315 . S
C23 O25 1.279 . S
O24 Cd16 2.223 . S
O24 C23 1.315 . S
O25 Cd15 2.240 1_455 S
O25 C23 1.279 . S
O26 Cd16 2.297 . S
O26 C21 1.247 . S
O27 Cd16 2.439 . S
O27 C21 1.208 . S
O28 Cd29 2.223 . S
O28 C36 1.315 . S
Cd29 O28 2.223 . S
Cd29 O32 2.297 . S
Cd29 O33 2.439 . S
Cd29 O39 2.240 . S
Cd30 O31 2.240 . S
Cd30 O38 2.223 . S
Cd30 O40 2.297 . S
Cd30 O41 2.439 . S
O31 Cd30 2.240 . S
O31 C36 1.279 . S
O32 Cd29 2.297 . S
O32 C34 1.247 . S
O33 Cd29 2.439 . S
O33 C34 1.208 . S
C34 O32 1.247 . S
C34 O33 1.208 . S
C35 O40 1.247 . S
C35 O41 1.208 . S
C36 O28 1.315 . S
C36 O31 1.279 . S
C37 O38 1.315 . S
C37 O39 1.279 . S
O38 Cd30 2.223 . S
O38 C37 1.315 . S
O39 Cd29 2.240 . S
O39 C37 1.279 . S
O40 Cd30 2.297 . S
O40 C35 1.247 . S
O41 Cd30 2.439 . S
O41 C35 1.208 . S
O42 Cd43 2.223 . S
O42 C50 1.315 . S
Cd43 O42 2.223 . S
Cd43 O46 2.297 . S
Cd43 O47 2.439 . S
Cd43 O53 2.240 . S
Cd44 O45 2.240 . S
Cd44 O52 2.223 . S
Cd44 O54 2.297 . S
Cd44 O55 2.439 . S
O45 Cd44 2.240 . S
O45 C50 1.279 . S
O46 Cd43 2.297 . S
O46 C48 1.247 . S
O47 Cd43 2.439 . S
O47 C48 1.208 . S
C48 O46 1.247 . S
C48 O47 1.208 . S
C49 O54 1.247 . S
C49 O55 1.208 . S
C50 O42 1.315 . S
C50 O45 1.279 . S
C51 O52 1.315 . S
C51 O53 1.279 . S
O52 Cd44 2.223 . S
O52 C51 1.315 . S
O53 Cd43 2.240 . S
O53 C51 1.279 . S
O54 Cd44 2.297 . S
O54 C49 1.247 . S
O55 Cd44 2.439 . S
O55 C49 1.208 . S
O56 Cd57 2.223 . S
O56 C64 1.315 . S
Cd57 O56 2.223 . S
Cd57 O60 2.297 . S
Cd57 O61 2.439 . S
Cd57 O67 2.240 . S
Cd58 O59 2.240 . S
Cd58 O66 2.223 . S
Cd58 O68 2.297 . S
Cd58 O69 2.439 . S
O59 Cd58 2.240 . S
O59 C64 1.279 . S
O60 Cd57 2.297 . S
O60 C62 1.247 . S
O61 Cd57 2.439 . S
O61 C62 1.208 . S
C62 O60 1.247 . S
C62 O61 1.208 . S
C63 O68 1.247 . S
C63 O69 1.208 . S
C64 O56 1.315 . S
C64 O59 1.279 . S
C65 O66 1.315 . S
C65 O67 1.279 . S
O66 Cd58 2.223 . S
O66 C65 1.315 . S
O67 Cd57 2.240 . S
O67 C65 1.279 . S
O68 Cd58 2.297 . S
O68 C63 1.247 . S
O69 Cd58 2.439 . S
O69 C63 1.208 . S
O70 Cd71 2.223 . S
O70 C78 1.315 . S
Cd71 O70 2.223 . S
Cd71 O74 2.297 . S
Cd71 O75 2.439 . S
Cd71 O81 2.240 . S
Cd72 O73 2.240 . S
Cd72 O80 2.223 . S
Cd72 O82 2.297 . S
Cd72 O83 2.439 . S
O73 Cd72 2.240 . S
O73 C78 1.279 . S
O74 Cd71 2.297 . S
O74 C76 1.247 . S
O75 Cd71 2.439 . S
O75 C76 1.208 . S
C76 O74 1.247 . S
C76 O75 1.208 . S
C77 O82 1.247 . S
C77 O83 1.208 . S
C78 O70 1.315 . S
C78 O73 1.279 . S
C79 O80 1.315 . S
C79 O81 1.279 . S
O80 Cd72 2.223 . S
O80 C79 1.315 . S
O81 Cd71 2.240 . S
O81 C79 1.279 . S
O82 Cd72 2.297 . S
O82 C77 1.247 . S
O83 Cd72 2.439 . S
O83 C77 1.208 . S
O84 Cd85 2.223 . S
O84 C92 1.315 . S
Cd85 O84 2.223 . S
Cd85 O88 2.297 . S
Cd85 O89 2.439 . S
Cd85 O95 2.240 . S
Cd86 O87 2.240 . S
Cd86 O94 2.223 . S
Cd86 O96 2.297 . S
Cd86 O97 2.439 . S
O87 Cd86 2.240 . S
O87 C92 1.279 . S
O88 Cd85 2.297 . S
O88 C90 1.247 . S
O89 Cd85 2.439 . S
O89 C90 1.208 . S
C90 O88 1.247 . S
C90 O89 1.208 . S
C91 O96 1.247 . S
C91 O97 1.208 . S
C92 O84 1.315 . S
C92 O87 1.279 . S
C93 O94 1.315 . S
C93 O95 1.279 . S
O94 Cd86 2.223 . S
O94 C93 1.315 . S
O95 Cd85 2.240 . S
O95 C93 1.279 . S
O96 Cd86 2.297 . S
O96 C91 1.247 . S
O97 Cd86 2.439 . S
O97 C91 1.208 . S
O98 Cd99 2.223 . S
O98 C106 1.315 . S
Cd99 O98 2.223 . S
Cd99 O102 2.297 . S
Cd99 O103 2.439 . S
Cd99 O109 2.240 . S
Cd100 O101 2.240 . S
Cd100 O108 2.223 1_455 S
Cd100 O110 2.297 . S
Cd100 O111 2.439 . S
O101 Cd100 2.240 . S
O101 C106 1.279 . S
O102 Cd99 2.297 . S
O102 C104 1.247 . S
O103 Cd99 2.439 . S
O103 C104 1.208 . S
C104 O102 1.247 . S
C104 O103 1.208 . S
C105 O110 1.247 . S
C105 O111 1.208 . S
C106 O98 1.315 . S
C106 O101 1.279 . S
C107 O108 1.315 . S
C107 O109 1.279 1_655 S
O108 Cd100 2.223 1_655 S
O108 C107 1.315 . S
O109 Cd99 2.240 . S
O109 C107 1.279 1_455 S
O110 Cd100 2.297 . S
O110 C105 1.247 . S
O111 Cd100 2.439 . S
O111 C105 1.208 . S
O112 Cd113 2.223 1_565 S
O112 C120 1.315 1_565 S
Cd113 O112 2.223 1_545 S
Cd113 O116 2.297 . S
Cd113 O117 2.439 . S
Cd113 O123 2.240 1_545 S
Cd114 O115 2.240 . S
Cd114 O122 2.223 1_545 S
Cd114 O124 2.297 1_545 S
Cd114 O125 2.439 . S
O115 Cd114 2.240 . S
O115 C120 1.279 . S
O116 Cd113 2.297 . S
O116 C118 1.247 . S
O117 Cd113 2.439 . S
O117 C118 1.208 . S
C118 O116 1.247 . S
C118 O117 1.208 . S
C119 O124 1.247 1_545 S
C119 O125 1.208 . S
C120 O112 1.315 1_545 S
C120 O115 1.279 . S
C121 O122 1.315 . S
C121 O123 1.279 . S
O122 Cd114 2.223 1_565 S
O122 C121 1.315 . S
O123 Cd113 2.240 1_565 S
O123 C121 1.279 . S
O124 Cd114 2.297 1_565 S
O124 C119 1.247 1_565 S
O125 Cd114 2.439 . S
O125 C119 1.208 . S
O126 Cd127 2.223 . S
O126 C134 1.315 . S
Cd127 O126 2.223 . S
Cd127 O130 2.297 . S
Cd127 O131 2.439 . S
Cd127 O137 2.240 . S
Cd128 O129 2.240 . S
Cd128 O136 2.223 . S
Cd128 O138 2.297 . S
Cd128 O139 2.439 . S
O129 Cd128 2.240 . S
O129 C134 1.279 . S
O130 Cd127 2.297 . S
O130 C132 1.247 . S
O131 Cd127 2.439 . S
O131 C132 1.208 . S
C132 O130 1.247 . S
C132 O131 1.208 . S
C133 O138 1.247 . S
C133 O139 1.208 . S
C134 O126 1.315 . S
C134 O129 1.279 . S
C135 O136 1.315 . S
C135 O137 1.279 . S
O136 Cd128 2.223 . S
O136 C135 1.315 . S
O137 Cd127 2.240 . S
O137 C135 1.279 . S
O138 Cd128 2.297 . S
O138 C133 1.247 . S
O139 Cd128 2.439 . S
O139 C133 1.208 . S
O140 Cd141 2.223 1_545 S
O140 C148 1.315 1_545 S
Cd141 O140 2.223 1_565 S
Cd141 O144 2.297 . S
Cd141 O145 2.439 . S
Cd141 O151 2.240 1_565 S
Cd142 O143 2.240 1_545 S
Cd142 O150 2.223 . S
Cd142 O152 2.297 . S
Cd142 O153 2.439 1_545 S
O143 Cd142 2.240 1_565 S
O143 C148 1.279 . S
O144 Cd141 2.297 . S
O144 C146 1.247 . S
O145 Cd141 2.439 . S
O145 C146 1.208 . S
C146 O144 1.247 . S
C146 O145 1.208 . S
C147 O152 1.247 . S
C147 O153 1.208 1_545 S
C148 O140 1.315 1_565 S
C148 O143 1.279 . S
C149 O150 1.315 . S
C149 O151 1.279 . S
O150 Cd142 2.223 . S
O150 C149 1.315 . S
O151 Cd141 2.240 1_545 S
O151 C149 1.279 . S
O152 Cd142 2.297 . S
O152 C147 1.247 . S
O153 Cd142 2.439 1_565 S
O153 C147 1.208 1_565 S
O154 Cd155 2.223 . S
O154 C162 1.315 . S
Cd155 O154 2.223 . S
Cd155 O158 2.297 . S
Cd155 O159 2.439 1_554 S
Cd155 O165 2.227 1_554 S
Cd156 O157 2.240 1_556 S
Cd156 O164 2.223 1_556 S
Cd156 O166 2.297 . S
Cd156 O167 2.439 . S
O157 Cd156 2.240 1_554 S
O157 C162 1.279 . S
O158 Cd155 2.297 . S
O158 C160 1.247 . S
O159 Cd155 2.439 1_556 S
O159 C160 1.208 1_556 S
C160 O158 1.247 . S
C160 O159 1.208 1_554 S
C161 O166 1.247 . S
C161 O167 1.208 . S
C162 O154 1.315 . S
C162 O157 1.279 . S
C163 O164 1.315 . S
C163 O165 1.270 1_554 S
O164 Cd156 2.223 1_554 S
O164 C163 1.315 . S
O165 Cd155 2.227 1_556 S
O165 C163 1.270 1_556 S
O166 Cd156 2.297 . S
O166 C161 1.247 . S
O167 Cd156 2.439 . S
O167 C161 1.208 . S
O168 Cd169 2.223 . S
O168 C176 1.315 . S
Cd169 O168 2.223 . S
Cd169 O172 2.297 . S
Cd169 O173 2.439 . S
Cd169 O179 2.240 . S
Cd170 O171 2.240 . S
Cd170 O178 2.223 . S
Cd170 O180 2.297 1_554 S
Cd170 O181 2.439 1_554 S
O171 Cd170 2.240 . S
O171 C176 1.279 . S
O172 Cd169 2.297 . S
O172 C174 1.247 . S
O173 Cd169 2.439 . S
O173 C174 1.208 . S
C174 O172 1.247 . S
C174 O173 1.208 . S
C175 O180 1.247 . S
C175 O181 1.208 . S
C176 O168 1.315 . S
C176 O171 1.279 . S
C177 O178 1.315 . S
C177 O179 1.279 . S
O178 Cd170 2.223 . S
O178 C177 1.315 . S
O179 Cd169 2.240 . S
O179 C177 1.279 . S
O180 Cd170 2.297 1_556 S
O180 C175 1.247 . S
O181 Cd170 2.439 1_556 S
O181 C175 1.208 . S
O182 Cd183 2.223 . S
O182 C190 1.315 . S
Cd183 O182 2.223 . S
Cd183 O186 2.297 . S
Cd183 O187 2.439 . S
Cd183 O193 2.240 . S
Cd184 O185 2.240 . S
Cd184 O192 2.223 . S
Cd184 O194 2.297 1_554 S
Cd184 O195 2.439 1_554 S
O185 Cd184 2.240 . S
O185 C190 1.279 . S
O186 Cd183 2.297 . S
O186 C188 1.247 . S
O187 Cd183 2.439 . S
O187 C188 1.208 . S
C188 O186 1.247 . S
C188 O187 1.208 . S
C189 O194 1.247 . S
C189 O195 1.208 . S
C190 O182 1.315 . S
C190 O185 1.279 . S
C191 O192 1.315 . S
C191 O193 1.279 . S
O192 Cd184 2.223 . S
O192 C191 1.315 . S
O193 Cd183 2.240 . S
O193 C191 1.279 . S
O194 Cd184 2.297 1_556 S
O194 C189 1.247 . S
O195 Cd184 2.439 1_556 S
O195 C189 1.208 . S
O196 Cd197 2.223 . S
O196 C204 1.315 . S
Cd197 O196 2.223 . S
Cd197 O200 2.297 . S
Cd197 O201 2.439 . S
Cd197 O207 2.240 . S
Cd198 O199 2.240 . S
Cd198 O206 2.223 . S
Cd198 O208 2.297 . S
Cd198 O209 2.439 . S
O199 Cd198 2.240 . S
O199 C204 1.279 . S
O200 Cd197 2.297 . S
O200 C202 1.247 . S
O201 Cd197 2.439 . S
O201 C202 1.208 . S
C202 O200 1.247 . S
C202 O201 1.208 . S
C203 O208 1.247 . S
C203 O209 1.208 . S
C204 O196 1.315 . S
C204 O199 1.279 . S
C205 O206 1.315 . S
C205 O207 1.279 . S
O206 Cd198 2.223 . S
O206 C205 1.315 . S
O207 Cd197 2.240 . S
O207 C205 1.279 . S
O208 Cd198 2.297 . S
O208 C203 1.247 . S
O209 Cd198 2.439 . S
O209 C203 1.208 . S
O210 Cd211 2.223 . S
O210 C218 1.315 . S
Cd211 O210 2.223 . S
Cd211 O214 2.297 . S
Cd211 O215 2.439 . S
Cd211 O221 2.240 . S
Cd212 O213 2.240 . S
Cd212 O220 2.223 . S
Cd212 O222 2.297 . S
Cd212 O223 2.439 . S
O213 Cd212 2.240 . S
O213 C218 1.279 . S
O214 Cd211 2.297 . S
O214 C216 1.247 . S
O215 Cd211 2.439 . S
O215 C216 1.208 . S
C216 O214 1.247 . S
C216 O215 1.208 . S
C217 O222 1.247 . S
C217 O223 1.208 . S
C218 O210 1.315 . S
C218 O213 1.279 . S
C219 O220 1.315 . S
C219 O221 1.279 . S
O220 Cd212 2.223 . S
O220 C219 1.315 . S
O221 Cd211 2.240 . S
O221 C219 1.279 . S
O222 Cd212 2.297 . S
O222 C217 1.247 . S
O223 Cd212 2.439 . S
O223 C217 1.208 . S
O224 Cd225 2.223 . S
O224 C232 1.315 . S
Cd225 O224 2.223 . S
Cd225 O228 2.297 . S
Cd225 O229 2.439 . S
Cd225 O235 2.240 . S
Cd226 O227 2.256 . S
Cd226 O234 2.234 . S
Cd226 O236 2.291 1_655 S
Cd226 O237 2.458 . S
O227 Cd226 2.256 . S
O227 C232 1.279 . S
O228 Cd225 2.297 . S
O228 C230 1.247 . S
O229 Cd225 2.439 . S
O229 C230 1.208 . S
C230 O228 1.247 . S
C230 O229 1.208 . S
C231 O236 1.247 1_655 S
C231 O237 1.208 . S
C232 O224 1.315 . S
C232 O227 1.279 . S
C233 O234 1.315 . S
C233 O235 1.279 . S
O234 Cd226 2.234 . S
O234 C233 1.315 . S
O235 Cd225 2.240 . S
O235 C233 1.279 . S
O236 Cd226 2.291 1_455 S
O236 C231 1.247 1_455 S
O237 Cd226 2.458 . S
O237 C231 1.208 . S
O238 Cd239 2.223 . S
O238 C246 1.315 . S
Cd239 O238 2.223 . S
Cd239 O242 2.297 . S
Cd239 O243 2.439 . S
Cd239 O249 2.240 . S
Cd240 O241 2.240 . S
Cd240 O248 2.223 . S
Cd240 O250 2.297 . S
Cd240 O251 2.439 . S
O241 Cd240 2.240 . S
O241 C246 1.279 . S
O242 Cd239 2.297 . S
O242 C244 1.247 . S
O243 Cd239 2.439 . S
O243 C244 1.208 . S
C244 O242 1.247 . S
C244 O243 1.208 . S
C245 O250 1.247 . S
C245 O251 1.208 . S
C246 O238 1.315 . S
C246 O241 1.279 . S
C247 O248 1.315 . S
C247 O249 1.279 . S
O248 Cd240 2.223 . S
O248 C247 1.315 . S
O249 Cd239 2.240 . S
O249 C247 1.279 . S
O250 Cd240 2.297 . S
O250 C245 1.247 . S
O251 Cd240 2.439 . S
O251 C245 1.208 . S
O252 Cd253 2.223 . S
O252 C260 1.315 . S
Cd253 O252 2.223 . S
Cd253 O256 2.297 . S
Cd253 O257 2.439 . S
Cd253 O263 2.240 . S
Cd254 O255 2.240 . S
Cd254 O262 2.223 . S
Cd254 O264 2.297 . S
Cd254 O265 2.439 . S
O255 Cd254 2.240 . S
O255 C260 1.279 . S
O256 Cd253 2.297 . S
O256 C258 1.247 . S
O257 Cd253 2.439 . S
O257 C258 1.208 . S
C258 O256 1.247 . S
C258 O257 1.208 . S
C259 O264 1.247 . S
C259 O265 1.208 . S
C260 O252 1.315 . S
C260 O255 1.279 . S
C261 O262 1.315 . S
C261 O263 1.279 . S
O262 Cd254 2.223 . S
O262 C261 1.315 . S
O263 Cd253 2.240 . S
O263 C261 1.279 . S
O264 Cd254 2.297 . S
O264 C259 1.247 . S
O265 Cd254 2.439 . S
O265 C259 1.208 . S
O266 Cd267 2.223 . S
O266 C274 1.315 . S
Cd267 O266 2.223 . S
Cd267 O270 2.297 . S
Cd267 O271 2.439 . S
Cd267 O277 2.240 . S
Cd268 O269 2.240 . S
Cd268 O276 2.223 . S
Cd268 O278 2.297 . S
Cd268 O279 2.439 . S
O269 Cd268 2.240 . S
O269 C274 1.279 . S
O270 Cd267 2.297 . S
O270 C272 1.247 . S
O271 Cd267 2.439 . S
O271 C272 1.208 . S
C272 O270 1.247 . S
C272 O271 1.208 . S
C273 O278 1.247 . S
C273 O279 1.208 . S
C274 O266 1.315 . S
C274 O269 1.279 . S
C275 O276 1.315 . S
C275 O277 1.279 . S
O276 Cd268 2.223 . S
O276 C275 1.315 . S
O277 Cd267 2.240 . S
O277 C275 1.279 . S
O278 Cd268 2.297 . S
O278 C273 1.247 . S
O279 Cd268 2.439 . S
O279 C273 1.208 . S
O280 Cd281 2.223 . S
O280 C288 1.315 . S
Cd281 O280 2.223 . S
Cd281 O284 2.297 . S
Cd281 O285 2.439 . S
Cd281 O291 2.240 1_554 S
Cd282 O283 2.240 . S
Cd282 O290 2.223 . S
Cd282 O292 2.297 1_554 S
Cd282 O293 2.439 1_554 S
O283 Cd282 2.240 . S
O283 C288 1.279 . S
O284 Cd281 2.297 . S
O284 C286 1.247 . S
O285 Cd281 2.439 . S
O285 C286 1.208 . S
C286 O284 1.247 . S
C286 O285 1.208 . S
C287 O292 1.247 . S
C287 O293 1.208 . S
C288 O280 1.315 . S
C288 O283 1.279 . S
C289 O290 1.315 . S
C289 O291 1.279 1_554 S
O290 Cd282 2.223 . S
O290 C289 1.315 . S
O291 Cd281 2.240 1_556 S
O291 C289 1.279 1_556 S
O292 Cd282 2.297 1_556 S
O292 C287 1.247 . S
O293 Cd282 2.439 1_556 S
O293 C287 1.208 . S
O294 Cd295 2.223 . S
O294 C302 1.315 . S
Cd295 O294 2.223 . S
Cd295 O298 2.297 . S
Cd295 O299 2.439 . S
Cd295 O305 2.240 . S
Cd296 O297 2.240 . S
Cd296 O304 2.223 . S
Cd296 O306 2.297 . S
Cd296 O307 2.439 . S
O297 Cd296 2.240 . S
O297 C302 1.279 . S
O298 Cd295 2.297 . S
O298 C300 1.247 . S
O299 Cd295 2.439 . S
O299 C300 1.208 . S
C300 O298 1.247 . S
C300 O299 1.208 . S
C301 O306 1.247 . S
C301 O307 1.208 . S
C302 O294 1.315 . S
C302 O297 1.279 . S
C303 O304 1.315 . S
C303 O305 1.279 . S
O304 Cd296 2.223 . S
O304 C303 1.315 . S
O305 Cd295 2.240 . S
O305 C303 1.279 . S
O306 Cd296 2.297 . S
O306 C301 1.247 . S
O307 Cd296 2.439 . S
O307 C301 1.208 . S
O308 Cd309 2.223 . S
O308 C316 1.315 . S
Cd309 O308 2.223 . S
Cd309 O312 2.297 . S
Cd309 O313 2.439 . S
Cd309 O319 2.240 . S
Cd310 O311 2.240 . S
Cd310 O318 2.223 . S
Cd310 O320 2.297 . S
Cd310 O321 2.439 . S
O311 Cd310 2.240 . S
O311 C316 1.279 . S
O312 Cd309 2.297 . S
O312 C314 1.247 . S
O313 Cd309 2.439 . S
O313 C314 1.208 . S
C314 O312 1.247 . S
C314 O313 1.208 . S
C315 O320 1.247 . S
C315 O321 1.208 . S
C316 O308 1.315 . S
C316 O311 1.279 . S
C317 O318 1.315 . S
C317 O319 1.279 . S
O318 Cd310 2.223 . S
O318 C317 1.315 . S
O319 Cd309 2.240 . S
O319 C317 1.279 . S
O320 Cd310 2.297 . S
O320 C315 1.247 . S
O321 Cd310 2.439 . S
O321 C315 1.208 . S
O322 Cd323 2.223 . S
O322 C330 1.315 . S
Cd323 O322 2.223 . S
Cd323 O326 2.297 . S
Cd323 O327 2.439 . S
Cd323 O333 2.240 . S
Cd324 O325 2.240 . S
Cd324 O332 2.223 . S
Cd324 O334 2.297 . S
Cd324 O335 2.439 . S
O325 Cd324 2.240 . S
O325 C330 1.279 . S
O326 Cd323 2.297 . S
O326 C328 1.247 . S
O327 Cd323 2.439 . S
O327 C328 1.208 . S
C328 O326 1.247 . S
C328 O327 1.208 . S
C329 O334 1.247 . S
C329 O335 1.208 . S
C330 O322 1.315 . S
C330 O325 1.279 . S
C331 O332 1.315 . S
C331 O333 1.279 . S
O332 Cd324 2.223 . S
O332 C331 1.315 . S
O333 Cd323 2.240 . S
O333 C331 1.279 . S
O334 Cd324 2.297 . S
O334 C329 1.247 . S
O335 Cd324 2.439 . S
O335 C329 1.208 . S
Eu336 N367 2.657 1_545 S
Eu336 N374 2.609 1_544 S
Eu336 O380 2.558 1_454 S
Eu336 O381 2.612 . S
Eu336 O383 2.339 . S
Eu336 O384 2.563 . S
Eu336 O385 2.419 1_455 S
Eu336 O387 2.380 . S
Eu336 O388 2.432 1_554 S
Eu336 C400 2.848 1_454 S
C337 C340 1.429 . S
C337 C341 1.411 . S
C337 N344 1.377 . S
C338 C340 1.420 . S
C338 C342 1.423 . S
C338 C350 1.392 . S
C339 C341 1.420 . S
C339 C342 1.351 . S
C339 H362 0.931 . S
C340 C337 1.429 . S
C340 C338 1.420 . S
C340 N348 1.362 . S
C341 C337 1.411 . S
C341 C339 1.420 . S
C341 C346 1.395 . S
C342 C338 1.423 . S
C342 C339 1.351 . S
C342 H354 0.930 . S
C343 C345 1.400 . S
C343 C346 1.386 . S
C343 H355 0.930 . S
N344 C337 1.377 . S
N344 C345 1.321 . S
N344 Eu347 2.609 . S
C345 C343 1.400 . S
C345 N344 1.321 . S
C345 H352 0.930 . S
C346 C341 1.395 . S
C346 C343 1.386 . S
C346 H365 0.930 . S
Eu347 N344 2.609 . S
Eu347 N348 2.657 . S
Eu347 O381 2.380 . S
Eu347 O382 2.432 . S
Eu347 O386 2.558 . S
Eu347 O387 2.612 . S
Eu347 O389 2.317 1_554 S
Eu347 O390 2.563 . S
Eu347 O391 2.419 . S
Eu347 C411 2.848 . S
N348 C340 1.362 . S
N348 Eu347 2.657 . S
N348 C349 1.334 . S
C349 N348 1.334 . S
C349 C351 1.413 1_554 S
C349 H356 0.929 1_554 S
C350 C338 1.392 . S
C350 C351 1.367 1_554 S
C350 H358 0.930 . S
C351 C349 1.413 1_556 S
C351 C350 1.367 1_556 S
C351 H353 0.930 . S
H352 C345 0.930 . S
H353 C351 0.930 . S
H354 C342 0.930 . S
H355 C343 0.930 . S
H356 C349 0.929 1_556 S
H357 C371 0.930 . S
H358 C350 0.930 . S
H359 C377 0.930 . S
H360 C368 0.929 . S
H361 C375 0.928 . S
H362 C339 0.931 . S
H363 C369 0.930 . S
H364 C402 0.930 . S
H365 C346 0.930 . S
H366 C401 0.931 . S
N367 Eu336 2.657 1_565 S
N367 C368 1.334 . S
N367 C372 1.362 . S
C368 H360 0.929 . S
C368 N367 1.334 . S
C368 C371 1.413 . S
C369 H363 0.930 . S
C369 C370 1.392 . S
C369 C371 1.367 1_655 S
C370 C369 1.392 . S
C370 C372 1.420 1_655 S
C370 C402 1.423 . S
C371 H357 0.930 . S
C371 C368 1.413 . S
C371 C369 1.367 1_455 S
C372 N367 1.362 . S
C372 C370 1.420 1_455 S
C372 C376 1.429 1_554 S
H373 C378 0.930 . S
N374 Eu336 2.609 1_566 S
N374 C376 1.377 . S
N374 C377 1.321 . S
C375 H361 0.928 . S
C375 C377 1.394 1_655 S
C375 C378 1.393 . S
C376 C372 1.429 1_556 S
C376 N374 1.377 . S
C376 C379 1.411 1_455 S
C377 H359 0.930 . S
C377 N374 1.321 . S
C377 C375 1.394 1_455 S
C378 H373 0.930 . S
C378 C375 1.393 . S
C378 C379 1.395 . S
C379 C376 1.411 1_655 S
C379 C378 1.395 . S
C379 C401 1.420 . S
O380 Eu336 2.558 1_656 S
O380 C400 1.257 . S
O381 Eu336 2.612 . S
O381 Eu347 2.380 . S
O381 C392 1.276 . S
O382 Eu347 2.432 . S
O382 C399 1.264 . S
O383 Eu336 2.339 . S
O383 C399 1.254 . S
O384 Eu336 2.563 . S
O384 C392 1.235 . S
O385 Eu336 2.419 1_655 S
O385 C400 1.249 1_554 S
O386 Eu347 2.558 . S
O386 C411 1.257 . S
O387 Eu336 2.380 . S
O387 Eu347 2.612 . S
O387 C403 1.276 1_545 S
O388 Eu336 2.432 1_556 S
O388 C410 1.264 . S
O389 Eu347 2.317 1_556 S
O389 C410 1.268 . S
O390 Eu347 2.563 . S
O390 C403 1.235 1_545 S
O391 Eu347 2.419 . S
O391 C411 1.249 . S
C392 O381 1.276 . S
C392 O384 1.235 . S
C393 C395 1.393 1_556 S
C393 C397 1.395 . S
C393 C400 1.492 . S
C394 C395 1.392 . S
C394 C396 1.386 1_554 S
C395 C393 1.393 1_554 S
C395 C394 1.392 . S
C395 H412 0.930 . S
C396 C394 1.386 1_556 S
C396 C398 1.395 . S
C396 H413 0.930 . S
C397 C393 1.395 . S
C397 C398 1.379 . S
C397 H414 0.930 1_545 S
C398 C396 1.395 . S
C398 C397 1.379 . S
C398 H415 0.930 . S
C399 O382 1.264 . S
C399 O383 1.254 . S
C400 Eu336 2.848 1_656 S
C400 O380 1.257 . S
C400 O385 1.249 1_556 S
C400 C393 1.492 . S
C401 H366 0.931 . S
C401 C379 1.420 . S
C401 C402 1.351 1_556 S
C402 H364 0.930 . S
C402 C370 1.423 . S
C402 C401 1.351 1_554 S
C403 O387 1.276 1_565 S
C403 O390 1.235 1_565 S
C404 C405 1.393 . S
C404 C408 1.395 . S
C404 C411 1.492 . S
C405 C404 1.393 . S
C405 C406 1.392 . S
C405 H416 0.930 . S
C406 C405 1.392 . S
C406 C407 1.386 . S
C407 C406 1.386 . S
C407 C409 1.395 . S
C407 H417 0.930 . S
C408 C404 1.395 . S
C408 C409 1.379 . S
C408 H418 0.930 . S
C409 C407 1.395 . S
C409 C408 1.379 . S
C409 H419 0.930 . S
C410 O388 1.264 . S
C410 O389 1.268 . S
C411 Eu347 2.848 . S
C411 O386 1.257 . S
C411 O391 1.249 . S
C411 C404 1.492 . S
H412 C395 0.930 . S
H413 C396 0.930 . S
H414 C397 0.930 1_565 S
H415 C398 0.930 . S
H416 C405 0.930 . S
H417 C407 0.930 . S
H418 C408 0.930 . S
H419 C409 0.930 . S
Eu420 N451 2.657 . S
Eu420 N458 2.609 . S
Eu420 O464 2.558 . S
Eu420 O465 2.612 . S
Eu420 O467 2.339 . S
Eu420 O468 2.563 . S
Eu420 O469 2.419 . S
Eu420 O471 2.380 . S
Eu420 O472 2.432 . S
Eu420 C484 2.848 . S
C421 C424 1.429 . S
C421 C425 1.411 . S
C421 N428 1.377 . S
C422 C424 1.420 . S
C422 C426 1.423 . S
C422 C434 1.392 . S
C423 C425 1.420 . S
C423 C426 1.351 . S
C423 H446 0.931 . S
C424 C421 1.429 . S
C424 C422 1.420 . S
C424 N432 1.362 . S
C425 C421 1.411 . S
C425 C423 1.420 . S
C425 C430 1.395 . S
C426 C422 1.423 . S
C426 C423 1.351 . S
C426 H438 0.930 . S
C427 C429 1.400 . S
C427 C430 1.386 . S
C427 H439 0.930 . S
N428 C421 1.377 . S
N428 C429 1.321 . S
N428 Eu431 2.609 . S
C429 C427 1.400 . S
C429 N428 1.321 . S
C429 H436 0.930 . S
C430 C425 1.395 . S
C430 C427 1.386 . S
C430 H449 0.930 . S
Eu431 N428 2.609 . S
Eu431 N432 2.657 . S
Eu431 O465 2.380 . S
Eu431 O466 2.432 . S
Eu431 O470 2.558 . S
Eu431 O471 2.612 . S
Eu431 O473 2.339 . S
Eu431 O474 2.563 . S
Eu431 O475 2.419 . S
Eu431 C495 2.848 . S
N432 C424 1.362 . S
N432 Eu431 2.657 . S
N432 C433 1.334 . S
C433 N432 1.334 . S
C433 C435 1.413 . S
C433 H440 0.929 . S
C434 C422 1.392 . S
C434 C435 1.367 . S
C434 H442 0.930 . S
C435 C433 1.413 . S
C435 C434 1.367 . S
C435 H437 0.930 . S
H436 C429 0.930 . S
H437 C435 0.930 . S
H438 C426 0.930 . S
H439 C427 0.930 . S
H440 C433 0.929 . S
H441 C455 0.930 . S
H442 C434 0.930 . S
H443 C461 0.930 . S
H444 C452 0.929 . S
H445 C459 0.930 . S
H446 C423 0.931 . S
H447 C453 0.930 . S
H448 C486 0.930 . S
H449 C430 0.930 . S
H450 C485 0.931 . S
N451 Eu420 2.657 . S
N451 C452 1.334 . S
N451 C456 1.362 . S
C452 H444 0.929 . S
C452 N451 1.334 . S
C452 C455 1.413 . S
C453 H447 0.930 . S
C453 C454 1.392 . S
C453 C455 1.367 . S
C454 C453 1.392 . S
C454 C456 1.420 . S
C454 C486 1.423 . S
C455 H441 0.930 . S
C455 C452 1.413 . S
C455 C453 1.367 . S
C456 N451 1.362 . S
C456 C454 1.420 . S
C456 C460 1.429 . S
H457 C462 0.930 . S
N458 Eu420 2.609 . S
N458 C460 1.377 . S
N458 C461 1.321 . S
C459 H445 0.930 . S
C459 C461 1.400 . S
C459 C462 1.386 . S
C460 C456 1.429 . S
C460 N458 1.377 . S
C460 C463 1.411 . S
C461 H443 0.930 . S
C461 N458 1.321 . S
C461 C459 1.400 . S
C462 H457 0.930 . S
C462 C459 1.386 . S
C462 C463 1.395 . S
C463 C460 1.411 . S
C463 C462 1.395 . S
C463 C485 1.420 . S
O464 Eu420 2.558 . S
O464 C484 1.257 . S
O465 Eu420 2.612 . S
O465 Eu431 2.380 . S
O465 C476 1.276 . S
O466 Eu431 2.432 . S
O466 C483 1.264 . S
O467 Eu420 2.339 . S
O467 C483 1.254 . S
O468 Eu420 2.563 . S
O468 C476 1.235 . S
O469 Eu420 2.419 . S
O469 C484 1.249 . S
O470 Eu431 2.558 . S
O470 C495 1.257 . S
O471 Eu420 2.380 . S
O471 Eu431 2.612 . S
O471 C487 1.276 . S
O472 Eu420 2.432 . S
O472 C494 1.264 . S
O473 Eu431 2.339 . S
O473 C494 1.254 . S
O474 Eu431 2.563 . S
O474 C487 1.235 . S
O475 Eu431 2.419 . S
O475 C495 1.249 . S
C476 O465 1.276 . S
C476 O468 1.235 . S
C477 C479 1.393 . S
C477 C481 1.395 . S
C477 C484 1.492 . S
C478 C479 1.392 . S
C478 C480 1.386 . S
C479 C477 1.393 . S
C479 C478 1.392 . S
C479 H496 0.930 . S
C480 C478 1.386 . S
C480 C482 1.395 . S
C480 H497 0.930 . S
C481 C477 1.395 . S
C481 C482 1.379 . S
C481 H498 0.930 . S
C482 C480 1.395 . S
C482 C481 1.379 . S
C482 H499 0.930 . S
C483 O466 1.264 . S
C483 O467 1.254 . S
C484 Eu420 2.848 . S
C484 O464 1.257 . S
C484 O469 1.249 . S
C484 C477 1.492 . S
C485 H450 0.931 . S
C485 C463 1.420 . S
C485 C486 1.351 . S
C486 H448 0.930 . S
C486 C454 1.423 . S
C486 C485 1.351 . S
C487 O471 1.276 . S
C487 O474 1.235 . S
C488 C489 1.393 . S
C488 C492 1.395 . S
C488 C495 1.492 . S
C489 C488 1.393 . S
C489 C490 1.392 . S
C489 H500 0.930 . S
C490 C489 1.392 . S
C490 C491 1.386 . S
C491 C490 1.386 . S
C491 C493 1.395 . S
C491 H501 0.930 . S
C492 C488 1.395 . S
C492 C493 1.379 . S
C492 H502 0.930 . S
C493 C491 1.395 . S
C493 C492 1.379 . S
C493 H503 0.930 . S
C494 O472 1.264 . S
C494 O473 1.254 . S
C495 Eu431 2.848 . S
C495 O470 1.257 . S
C495 O475 1.249 . S
C495 C488 1.492 . S
H496 C479 0.930 . S
H497 C480 0.930 . S
H498 C481 0.930 . S
H499 C482 0.930 . S
H500 C489 0.930 . S
H501 C491 0.930 . S
H502 C492 0.930 . S
H503 C493 0.930 . S
Eu504 N535 2.657 . S
Eu504 N542 2.609 . S
Eu504 O548 2.558 . S
Eu504 O549 2.628 . S
Eu504 O551 2.339 . S
Eu504 O552 2.563 1_545 S
Eu504 O553 2.419 . S
Eu504 O555 2.380 . S
Eu504 O556 2.432 . S
Eu504 C568 2.848 . S
C505 C508 1.429 . S
C505 C509 1.411 . S
C505 N512 1.377 . S
C506 C508 1.420 . S
C506 C510 1.423 . S
C506 C518 1.392 . S
C507 C509 1.420 . S
C507 C510 1.351 . S
C507 H530 0.931 . S
C508 C505 1.429 . S
C508 C506 1.420 . S
C508 N516 1.362 . S
C509 C505 1.411 . S
C509 C507 1.420 . S
C509 C514 1.395 . S
C510 C506 1.423 . S
C510 C507 1.351 . S
C510 H522 0.930 . S
C511 C513 1.400 1_565 S
C511 C514 1.386 . S
C511 H523 0.930 1_565 S
N512 C505 1.377 . S
N512 C513 1.321 1_565 S
N512 Eu515 2.609 1_565 S
C513 C511 1.400 1_545 S
C513 N512 1.321 1_545 S
C513 H520 0.930 . S
C514 C509 1.395 . S
C514 C511 1.386 . S
C514 H533 0.930 . S
Eu515 N512 2.609 1_545 S
Eu515 N516 2.657 1_545 S
Eu515 O549 2.405 . S
Eu515 O550 2.432 . S
Eu515 O554 2.558 . S
Eu515 O555 2.612 . S
Eu515 O557 2.339 . S
Eu515 O558 2.563 . S
Eu515 O559 2.419 . S
Eu515 C579 2.848 . S
N516 C508 1.362 . S
N516 Eu515 2.657 1_565 S
N516 C517 1.334 . S
C517 N516 1.334 . S
C517 C519 1.413 . S
C517 H524 0.929 . S
C518 C506 1.392 . S
C518 C519 1.367 . S
C518 H526 0.930 . S
C519 C517 1.413 . S
C519 C518 1.367 . S
C519 H521 0.930 . S
H520 C513 0.930 . S
H521 C519 0.930 . S
H522 C510 0.930 . S
H523 C511 0.930 1_545 S
H524 C517 0.929 . S
H525 C539 0.930 . S
H526 C518 0.930 . S
H527 C545 0.930 . S
H528 C536 0.929 . S
H529 C543 0.930 . S
H530 C507 0.931 . S
H531 C537 0.930 . S
H532 C570 0.930 . S
H533 C514 0.930 . S
H534 C569 0.931 . S
N535 Eu504 2.657 . S
N535 C536 1.334 . S
N535 C540 1.362 . S
C536 H528 0.929 . S
C536 N535 1.334 . S
C536 C539 1.413 . S
C537 H531 0.930 . S
C537 C538 1.392 . S
C537 C539 1.367 . S
C538 C537 1.392 . S
C538 C540 1.420 . S
C538 C570 1.423 . S
C539 H525 0.930 . S
C539 C536 1.413 . S
C539 C537 1.367 . S
C540 N535 1.362 . S
C540 C538 1.420 . S
C540 C544 1.429 . S
H541 C546 0.930 . S
N542 Eu504 2.609 . S
N542 C544 1.377 . S
N542 C545 1.321 . S
C543 H529 0.930 . S
C543 C545 1.400 . S
C543 C546 1.386 . S
C544 C540 1.429 . S
C544 N542 1.377 . S
C544 C547 1.411 . S
C545 H527 0.930 . S
C545 N542 1.321 . S
C545 C543 1.400 . S
C546 H541 0.930 . S
C546 C543 1.386 . S
C546 C547 1.395 . S
C547 C544 1.411 . S
C547 C546 1.395 . S
C547 C569 1.420 . S
O548 Eu504 2.558 . S
O548 C568 1.257 . S
O549 Eu504 2.628 . S
O549 Eu515 2.405 . S
O549 C560 1.245 1_545 S
O550 Eu515 2.432 . S
O550 C567 1.264 . S
O551 Eu504 2.339 . S
O551 C567 1.254 . S
O552 Eu504 2.563 1_565 S
O552 C560 1.235 . S
O553 Eu504 2.419 . S
O553 C568 1.249 . S
O554 Eu515 2.558 . S
O554 C579 1.257 . S
O555 Eu504 2.380 . S
O555 Eu515 2.612 . S
O555 C571 1.276 . S
O556 Eu504 2.432 . S
O556 C578 1.264 . S
O557 Eu515 2.339 . S
O557 C578 1.254 . S
O558 Eu515 2.563 . S
O558 C571 1.235 . S
O559 Eu515 2.419 . S
O559 C579 1.249 . S
C560 O549 1.245 1_565 S
C560 O552 1.235 . S
C561 C563 1.393 . S
C561 C565 1.395 . S
C561 C568 1.492 1_565 S
C562 C563 1.392 . S
C562 C564 1.386 . S
C563 C561 1.393 . S
C563 C562 1.392 . S
C563 H580 0.930 . S
C564 C562 1.386 . S
C564 C566 1.395 . S
C564 H581 0.930 . S
C565 C561 1.395 . S
C565 C566 1.379 . S
C565 H582 0.930 1_565 S
C566 C564 1.395 . S
C566 C565 1.379 . S
C566 H583 0.930 . S
C567 O550 1.264 . S
C567 O551 1.254 . S
C568 Eu504 2.848 . S
C568 O548 1.257 . S
C568 O553 1.249 . S
C568 C561 1.492 1_545 S
C569 H534 0.931 . S
C569 C547 1.420 . S
C569 C570 1.351 . S
C570 H532 0.930 . S
C570 C538 1.423 . S
C570 C569 1.351 . S
C571 O555 1.276 . S
C571 O558 1.235 . S
C572 C573 1.393 . S
C572 C576 1.395 . S
C572 C579 1.492 . S
C573 C572 1.393 . S
C573 C574 1.392 . S
C573 H584 0.930 . S
C574 C573 1.392 . S
C574 C575 1.386 . S
C575 C574 1.386 . S
C575 C577 1.395 . S
C575 H585 0.930 . S
C576 C572 1.395 . S
C576 C577 1.379 . S
C576 H586 0.930 . S
C577 C575 1.395 . S
C577 C576 1.379 . S
C577 H587 0.930 . S
C578 O556 1.264 . S
C578 O557 1.254 . S
C579 Eu515 2.848 . S
C579 O554 1.257 . S
C579 O559 1.249 . S
C579 C572 1.492 . S
H580 C563 0.930 . S
H581 C564 0.930 . S
H582 C565 0.930 1_545 S
H583 C566 0.930 . S
H584 C573 0.930 . S
H585 C575 0.930 . S
H586 C576 0.930 . S
H587 C577 0.930 . S
Eu588 N619 2.657 . S
Eu588 N626 2.609 . S
Eu588 O632 2.558 . S
Eu588 O633 2.612 . S
Eu588 O635 2.339 . S
Eu588 O636 2.563 . S
Eu588 O637 2.419 . S
Eu588 O639 2.380 . S
Eu588 O640 2.432 . S
Eu588 C652 2.848 . S
C589 C592 1.429 . S
C589 C593 1.411 . S
C589 N596 1.377 . S
C590 C592 1.420 . S
C590 C594 1.423 . S
C590 C602 1.392 . S
C591 C593 1.420 . S
C591 C594 1.351 . S
C591 H614 0.931 . S
C592 C589 1.429 . S
C592 C590 1.420 . S
C592 N600 1.362 . S
C593 C589 1.411 . S
C593 C591 1.420 . S
C593 C598 1.395 . S
C594 C590 1.423 . S
C594 C591 1.351 . S
C594 H606 0.930 . S
C595 C597 1.400 . S
C595 C598 1.386 . S
C595 H607 0.930 . S
N596 C589 1.377 . S
N596 C597 1.321 . S
N596 Eu599 2.609 . S
C597 C595 1.400 . S
C597 N596 1.321 . S
C597 H604 0.930 . S
C598 C593 1.395 . S
C598 C595 1.386 . S
C598 H617 0.930 . S
Eu599 N596 2.609 . S
Eu599 N600 2.657 . S
Eu599 O633 2.380 . S
Eu599 O634 2.432 . S
Eu599 O638 2.558 . S
Eu599 O639 2.612 . S
Eu599 O641 2.339 . S
Eu599 O642 2.563 . S
Eu599 O643 2.419 . S
Eu599 C663 2.848 . S
N600 C592 1.362 . S
N600 Eu599 2.657 . S
N600 C601 1.334 . S
C601 N600 1.334 . S
C601 C603 1.413 . S
C601 H608 0.929 . S
C602 C590 1.392 . S
C602 C603 1.367 . S
C602 H610 0.930 . S
C603 C601 1.413 . S
C603 C602 1.367 . S
C603 H605 0.930 . S
H604 C597 0.930 . S
H605 C603 0.930 . S
H606 C594 0.930 . S
H607 C595 0.930 . S
H608 C601 0.929 . S
H609 C623 0.930 . S
H610 C602 0.930 . S
H611 C629 0.930 . S
H612 C620 0.929 . S
H613 C627 0.930 . S
H614 C591 0.931 . S
H615 C621 0.930 . S
H616 C654 0.930 . S
H617 C598 0.930 . S
H618 C653 0.931 . S
N619 Eu588 2.657 . S
N619 C620 1.334 . S
N619 C624 1.362 . S
C620 H612 0.929 . S
C620 N619 1.334 . S
C620 C623 1.413 . S
C621 H615 0.930 . S
C621 C622 1.392 . S
C621 C623 1.367 . S
C622 C621 1.392 . S
C622 C624 1.420 . S
C622 C654 1.423 . S
C623 H609 0.930 . S
C623 C620 1.413 . S
C623 C621 1.367 . S
C624 N619 1.362 . S
C624 C622 1.420 . S
C624 C628 1.429 . S
H625 C630 0.930 . S
N626 Eu588 2.609 . S
N626 C628 1.377 . S
N626 C629 1.321 . S
C627 H613 0.930 . S
C627 C629 1.400 . S
C627 C630 1.386 . S
C628 C624 1.429 . S
C628 N626 1.377 . S
C628 C631 1.411 . S
C629 H611 0.930 . S
C629 N626 1.321 . S
C629 C627 1.400 . S
C630 H625 0.930 . S
C630 C627 1.386 . S
C630 C631 1.395 . S
C631 C628 1.411 . S
C631 C630 1.395 . S
C631 C653 1.420 . S
O632 Eu588 2.558 . S
O632 C652 1.257 . S
O633 Eu588 2.612 . S
O633 Eu599 2.380 . S
O633 C644 1.276 . S
O634 Eu599 2.432 . S
O634 C651 1.264 . S
O635 Eu588 2.339 . S
O635 C651 1.254 . S
O636 Eu588 2.563 . S
O636 C644 1.235 . S
O637 Eu588 2.419 . S
O637 C652 1.249 . S
O638 Eu599 2.558 . S
O638 C663 1.257 . S
O639 Eu588 2.380 . S
O639 Eu599 2.612 . S
O639 C655 1.276 . S
O640 Eu588 2.432 . S
O640 C662 1.264 . S
O641 Eu599 2.339 . S
O641 C662 1.254 . S
O642 Eu599 2.563 . S
O642 C655 1.235 . S
O643 Eu599 2.419 . S
O643 C663 1.249 . S
C644 O633 1.276 . S
C644 O636 1.235 . S
C645 C647 1.393 . S
C645 C649 1.395 . S
C645 C652 1.492 . S
C646 C647 1.392 . S
C646 C648 1.386 . S
C647 C645 1.393 . S
C647 C646 1.392 . S
C647 H664 0.930 . S
C648 C646 1.386 . S
C648 C650 1.395 . S
C648 H665 0.930 . S
C649 C645 1.395 . S
C649 C650 1.379 . S
C649 H666 0.930 . S
C650 C648 1.395 . S
C650 C649 1.379 . S
C650 H667 0.930 . S
C651 O634 1.264 . S
C651 O635 1.254 . S
C652 Eu588 2.848 . S
C652 O632 1.257 . S
C652 O637 1.249 . S
C652 C645 1.492 . S
C653 H618 0.931 . S
C653 C631 1.420 . S
C653 C654 1.351 . S
C654 H616 0.930 . S
C654 C622 1.423 . S
C654 C653 1.351 . S
C655 O639 1.276 . S
C655 O642 1.235 . S
C656 C657 1.393 . S
C656 C660 1.395 . S
C656 C663 1.492 . S
C657 C656 1.393 . S
C657 C658 1.392 . S
C657 H668 0.930 . S
C658 C657 1.392 . S
C658 C659 1.386 . S
C659 C658 1.386 . S
C659 C661 1.395 . S
C659 H669 0.930 . S
C660 C656 1.395 . S
C660 C661 1.379 . S
C660 H670 0.930 . S
C661 C659 1.395 . S
C661 C660 1.379 . S
C661 H671 0.930 . S
C662 O640 1.264 . S
C662 O641 1.254 . S
C663 Eu599 2.848 . S
C663 O638 1.257 . S
C663 O643 1.249 . S
C663 C656 1.492 . S
H664 C647 0.930 . S
H665 C648 0.930 . S
H666 C649 0.930 . S
H667 C650 0.930 . S
H668 C657 0.930 . S
H669 C659 0.930 . S
H670 C660 0.930 . S
H671 C661 0.930 . S
Eu672 N703 2.657 . S
Eu672 N710 2.609 . S
Eu672 O716 2.558 . S
Eu672 O717 2.612 . S
Eu672 O719 2.339 . S
Eu672 O720 2.563 . S
Eu672 O721 2.419 . S
Eu672 O723 2.380 . S
Eu672 O724 2.432 . S
Eu672 C736 2.848 . S
C673 C676 1.429 . S
C673 C677 1.411 . S
C673 N680 1.377 . S
C674 C676 1.420 . S
C674 C678 1.423 . S
C674 C686 1.392 . S
C675 C677 1.420 . S
C675 C678 1.351 . S
C675 H698 0.931 . S
C676 C673 1.429 . S
C676 C674 1.420 . S
C676 N684 1.362 . S
C677 C673 1.411 . S
C677 C675 1.420 . S
C677 C682 1.395 . S
C678 C674 1.423 . S
C678 C675 1.351 . S
C678 H690 0.930 . S
C679 C681 1.400 . S
C679 C682 1.386 . S
C679 H691 0.930 . S
N680 C673 1.377 . S
N680 C681 1.321 . S
N680 Eu683 2.609 . S
C681 C679 1.400 . S
C681 N680 1.321 . S
C681 H688 0.930 . S
C682 C677 1.395 . S
C682 C679 1.386 . S
C682 H701 0.930 . S
Eu683 N680 2.609 . S
Eu683 N684 2.657 . S
Eu683 O717 2.380 1_565 S
Eu683 O718 2.432 1_565 S
Eu683 O722 2.558 . S
Eu683 O723 2.612 1_565 S
Eu683 O725 2.339 . S
Eu683 O726 2.564 1_565 S
Eu683 O727 2.419 . S
Eu683 C747 2.848 . S
N684 C676 1.362 . S
N684 Eu683 2.657 . S
N684 C685 1.334 . S
C685 N684 1.334 . S
C685 C687 1.413 1_455 S
C685 H692 0.929 . S
C686 C674 1.392 . S
C686 C687 1.367 1_455 S
C686 H694 0.930 1_455 S
C687 C685 1.413 1_655 S
C687 C686 1.367 1_655 S
C687 H689 0.930 . S
H688 C681 0.930 . S
H689 C687 0.930 . S
H690 C678 0.930 . S
H691 C679 0.930 . S
H692 C685 0.929 . S
H693 C707 0.930 . S
H694 C686 0.930 1_655 S
H695 C713 0.930 . S
H696 C704 0.929 . S
H697 C711 0.930 1_655 S
H698 C675 0.931 . S
H699 C705 0.930 . S
H700 C738 0.930 . S
H701 C682 0.930 . S
H702 C737 0.931 . S
N703 Eu672 2.657 . S
N703 C704 1.334 . S
N703 C708 1.362 . S
C704 H696 0.929 . S
C704 N703 1.334 . S
C704 C707 1.413 . S
C705 H699 0.930 . S
C705 C706 1.392 . S
C705 C707 1.367 . S
C706 C705 1.392 . S
C706 C708 1.420 . S
C706 C738 1.423 . S
C707 H693 0.930 . S
C707 C704 1.413 . S
C707 C705 1.367 . S
C708 N703 1.362 . S
C708 C706 1.420 . S
C708 C712 1.429 . S
H709 C714 0.930 . S
N710 Eu672 2.609 . S
N710 C712 1.377 . S
N710 C713 1.321 . S
C711 H697 0.930 1_455 S
C711 C713 1.400 . S
C711 C714 1.386 . S
C712 C708 1.429 . S
C712 N710 1.377 . S
C712 C715 1.411 . S
C713 H695 0.930 . S
C713 N710 1.321 . S
C713 C711 1.400 . S
C714 H709 0.930 . S
C714 C711 1.386 . S
C714 C715 1.395 . S
C715 C712 1.411 . S
C715 C714 1.395 . S
C715 C737 1.420 . S
O716 Eu672 2.558 . S
O716 C736 1.257 . S
O717 Eu672 2.612 . S
O717 Eu683 2.380 1_545 S
O717 C728 1.276 . S
O718 Eu683 2.432 1_545 S
O718 C735 1.264 . S
O719 Eu672 2.339 . S
O719 C735 1.254 . S
O720 Eu672 2.563 . S
O720 C728 1.235 . S
O721 Eu672 2.419 . S
O721 C736 1.249 . S
O722 Eu683 2.558 . S
O722 C747 1.257 . S
O723 Eu672 2.380 . S
O723 Eu683 2.612 1_545 S
O723 C739 1.276 . S
O724 Eu672 2.432 . S
O724 C746 1.264 . S
O725 Eu683 2.339 . S
O725 C746 1.254 1_565 S
O726 Eu683 2.564 1_545 S
O726 C739 1.237 . S
O727 Eu683 2.419 . S
O727 C747 1.249 . S
C728 O717 1.276 . S
C728 O720 1.235 . S
C729 C731 1.393 . S
C729 C733 1.395 . S
C729 C736 1.492 . S
C730 C731 1.392 . S
C730 C732 1.386 . S
C731 C729 1.393 . S
C731 C730 1.392 . S
C731 H748 0.930 . S
C732 C730 1.386 . S
C732 C734 1.395 . S
C732 H749 0.930 . S
C733 C729 1.395 . S
C733 C734 1.379 . S
C733 H750 0.930 . S
C734 C732 1.395 . S
C734 C733 1.379 . S
C734 H751 0.930 . S
C735 O718 1.264 . S
C735 O719 1.254 . S
C736 Eu672 2.848 . S
C736 O716 1.257 . S
C736 O721 1.249 . S
C736 C729 1.492 . S
C737 H702 0.931 . S
C737 C715 1.420 . S
C737 C738 1.351 . S
C738 H700 0.930 . S
C738 C706 1.423 . S
C738 C737 1.351 . S
C739 O723 1.276 . S
C739 O726 1.237 . S
C740 C741 1.393 . S
C740 C744 1.395 . S
C740 C747 1.492 . S
C741 C740 1.393 . S
C741 C742 1.392 . S
C741 H752 0.930 . S
C742 C741 1.392 . S
C742 C743 1.386 . S
C743 C742 1.386 . S
C743 C745 1.395 . S
C743 H753 0.930 . S
C744 C740 1.395 . S
C744 C745 1.379 . S
C744 H754 0.930 . S
C745 C743 1.395 . S
C745 C744 1.379 . S
C745 H755 0.930 . S
C746 O724 1.264 . S
C746 O725 1.254 1_545 S
C747 Eu683 2.848 . S
C747 O722 1.257 . S
C747 O727 1.249 . S
C747 C740 1.492 . S
H748 C731 0.930 . S
H749 C732 0.930 . S
H750 C733 0.930 . S
H751 C734 0.930 . S
H752 C741 0.930 . S
H753 C743 0.930 . S
H754 C744 0.930 . S
H755 C745 0.930 . S
Eu756 N787 2.657 . S
Eu756 N794 2.609 . S
Eu756 O800 2.558 . S
Eu756 O801 2.612 . S
Eu756 O803 2.339 . S
Eu756 O804 2.563 . S
Eu756 O805 2.419 . S
Eu756 O807 2.380 . S
Eu756 O808 2.432 . S
Eu756 C820 2.848 . S
C757 C760 1.429 . S
C757 C761 1.411 . S
C757 N764 1.377 . S
C758 C760 1.420 . S
C758 C762 1.423 . S
C758 C770 1.392 . S
C759 C761 1.420 . S
C759 C762 1.351 . S
C759 H782 0.931 . S
C760 C757 1.429 . S
C760 C758 1.420 . S
C760 N768 1.362 . S
C761 C757 1.411 . S
C761 C759 1.420 . S
C761 C766 1.395 . S
C762 C758 1.423 . S
C762 C759 1.351 . S
C762 H774 0.930 . S
C763 C765 1.400 . S
C763 C766 1.386 . S
C763 H775 0.930 . S
N764 C757 1.377 . S
N764 C765 1.321 . S
N764 Eu767 2.609 . S
C765 C763 1.400 . S
C765 N764 1.321 . S
C765 H772 0.930 . S
C766 C761 1.395 . S
C766 C763 1.386 . S
C766 H785 0.930 . S
Eu767 N764 2.609 . S
Eu767 N768 2.657 . S
Eu767 O801 2.380 . S
Eu767 O802 2.432 . S
Eu767 O806 2.558 . S
Eu767 O807 2.612 . S
Eu767 O809 2.339 . S
Eu767 O810 2.563 . S
Eu767 O811 2.419 . S
Eu767 C831 2.848 . S
N768 C760 1.362 . S
N768 Eu767 2.657 . S
N768 C769 1.334 . S
C769 N768 1.334 . S
C769 C771 1.413 . S
C769 H776 0.929 . S
C770 C758 1.392 . S
C770 C771 1.367 . S
C770 H778 0.930 . S
C771 C769 1.413 . S
C771 C770 1.367 . S
C771 H773 0.930 . S
H772 C765 0.930 . S
H773 C771 0.930 . S
H774 C762 0.930 . S
H775 C763 0.930 . S
H776 C769 0.929 . S
H777 C791 0.930 . S
H778 C770 0.930 . S
H779 C797 0.930 . S
H780 C788 0.929 . S
H781 C795 0.930 . S
H782 C759 0.931 . S
H783 C789 0.930 . S
H784 C822 0.930 . S
H785 C766 0.930 . S
H786 C821 0.931 . S
N787 Eu756 2.657 . S
N787 C788 1.334 . S
N787 C792 1.362 . S
C788 H780 0.929 . S
C788 N787 1.334 . S
C788 C791 1.413 . S
C789 H783 0.930 . S
C789 C790 1.392 . S
C789 C791 1.367 . S
C790 C789 1.392 . S
C790 C792 1.420 . S
C790 C822 1.423 . S
C791 H777 0.930 . S
C791 C788 1.413 . S
C791 C789 1.367 . S
C792 N787 1.362 . S
C792 C790 1.420 . S
C792 C796 1.429 . S
H793 C798 0.930 . S
N794 Eu756 2.609 . S
N794 C796 1.377 . S
N794 C797 1.321 . S
C795 H781 0.930 . S
C795 C797 1.400 . S
C795 C798 1.386 . S
C796 C792 1.429 . S
C796 N794 1.377 . S
C796 C799 1.411 . S
C797 H779 0.930 . S
C797 N794 1.321 . S
C797 C795 1.400 . S
C798 H793 0.930 . S
C798 C795 1.386 . S
C798 C799 1.395 . S
C799 C796 1.411 . S
C799 C798 1.395 . S
C799 C821 1.420 . S
O800 Eu756 2.558 . S
O800 C820 1.257 . S
O801 Eu756 2.612 . S
O801 Eu767 2.380 . S
O801 C812 1.276 . S
O802 Eu767 2.432 . S
O802 C819 1.264 . S
O803 Eu756 2.339 . S
O803 C819 1.254 . S
O804 Eu756 2.563 . S
O804 C812 1.235 . S
O805 Eu756 2.419 . S
O805 C820 1.249 . S
O806 Eu767 2.558 . S
O806 C831 1.257 . S
O807 Eu756 2.380 . S
O807 Eu767 2.612 . S
O807 C823 1.276 . S
O808 Eu756 2.432 . S
O808 C830 1.264 . S
O809 Eu767 2.339 . S
O809 C830 1.254 . S
O810 Eu767 2.563 . S
O810 C823 1.235 . S
O811 Eu767 2.419 . S
O811 C831 1.249 . S
C812 O801 1.276 . S
C812 O804 1.235 . S
C813 C815 1.393 . S
C813 C817 1.395 . S
C813 C820 1.492 . S
C814 C815 1.392 . S
C814 C816 1.386 . S
C815 C813 1.393 . S
C815 C814 1.392 . S
C815 H832 0.930 . S
C816 C814 1.386 . S
C816 C818 1.395 . S
C816 H833 0.930 . S
C817 C813 1.395 . S
C817 C818 1.379 . S
C817 H834 0.930 . S
C818 C816 1.395 . S
C818 C817 1.379 . S
C818 H835 0.930 . S
C819 O802 1.264 . S
C819 O803 1.254 . S
C820 Eu756 2.848 . S
C820 O800 1.257 . S
C820 O805 1.249 . S
C820 C813 1.492 . S
C821 H786 0.931 . S
C821 C799 1.420 . S
C821 C822 1.351 . S
C822 H784 0.930 . S
C822 C790 1.423 . S
C822 C821 1.351 . S
C823 O807 1.276 . S
C823 O810 1.235 . S
C824 C825 1.393 . S
C824 C828 1.395 . S
C824 C831 1.492 . S
C825 C824 1.393 . S
C825 C826 1.392 . S
C825 H836 0.930 . S
C826 C825 1.392 . S
C826 C827 1.386 . S
C827 C826 1.386 . S
C827 C829 1.395 . S
C827 H837 0.930 . S
C828 C824 1.395 . S
C828 C829 1.379 . S
C828 H838 0.930 . S
C829 C827 1.395 . S
C829 C828 1.379 . S
C829 H839 0.930 . S
C830 O808 1.264 . S
C830 O809 1.254 . S
C831 Eu767 2.848 . S
C831 O806 1.257 . S
C831 O811 1.249 . S
C831 C824 1.492 . S
H832 C815 0.930 . S
H833 C816 0.930 . S
H834 C817 0.930 . S
H835 C818 0.930 . S
H836 C825 0.930 . S
H837 C827 0.930 . S
H838 C828 0.930 . S
H839 C829 0.930 . S
Eu840 N871 2.657 . S
Eu840 N878 2.609 . S
Eu840 O884 2.558 1_545 S
Eu840 O885 2.612 . S
Eu840 O887 2.339 . S
Eu840 O888 2.563 1_545 S
Eu840 O889 2.419 . S
Eu840 O891 2.380 . S
Eu840 O892 2.432 1_545 S
Eu840 C904 2.848 . S
C841 C844 1.429 . S
C841 C845 1.411 . S
C841 N848 1.377 . S
C842 C844 1.429 . S
C842 C846 1.444 . S
C842 C854 1.362 1_545 S
C843 C845 1.420 . S
C843 C846 1.351 . S
C843 H866 0.931 . S
C844 C841 1.429 . S
C844 C842 1.429 . S
C844 N852 1.362 . S
C845 C841 1.411 . S
C845 C843 1.420 . S
C845 C850 1.395 . S
C846 C842 1.444 . S
C846 C843 1.351 . S
C846 H858 0.930 1_545 S
C847 C849 1.400 . S
C847 C850 1.386 . S
C847 H859 0.930 . S
N848 C841 1.377 . S
N848 C849 1.321 . S
N848 Eu851 2.609 . S
C849 C847 1.400 . S
C849 N848 1.321 . S
C849 H856 0.930 . S
C850 C845 1.395 . S
C850 C847 1.386 . S
C850 H869 0.930 . S
Eu851 N848 2.609 . S
Eu851 N852 2.657 . S
Eu851 O885 2.380 1_556 S
Eu851 O886 2.432 1_556 S
Eu851 O890 2.558 . S
Eu851 O891 2.612 1_556 S
Eu851 O893 2.339 . S
Eu851 O894 2.563 1_556 S
Eu851 O895 2.419 . S
Eu851 C915 2.848 . S
N852 C844 1.362 . S
N852 Eu851 2.657 . S
N852 C853 1.334 1_545 S
C853 N852 1.334 1_565 S
C853 C855 1.413 . S
C853 H860 0.929 . S
C854 C842 1.362 1_565 S
C854 C855 1.367 . S
C854 H862 0.930 . S
C855 C853 1.413 . S
C855 C854 1.367 . S
C855 H857 0.930 . S
H856 C849 0.930 . S
H857 C855 0.930 . S
H858 C846 0.930 1_565 S
H859 C847 0.930 . S
H860 C853 0.929 . S
H861 C875 0.930 . S
H862 C854 0.930 . S
H863 C881 0.930 . S
H864 C872 0.929 . S
H865 C879 0.930 . S
H866 C843 0.931 . S
H867 C873 0.930 . S
H868 C906 0.930 . S
H869 C850 0.930 . S
H870 C905 0.931 . S
N871 Eu840 2.657 . S
N871 C872 1.334 . S
N871 C876 1.362 . S
C872 H864 0.929 . S
C872 N871 1.334 . S
C872 C875 1.413 . S
C873 H867 0.930 . S
C873 C874 1.392 . S
C873 C875 1.367 . S
C874 C873 1.392 . S
C874 C876 1.420 . S
C874 C906 1.423 . S
C875 H861 0.930 . S
C875 C872 1.413 . S
C875 C873 1.367 . S
C876 N871 1.362 . S
C876 C874 1.420 . S
C876 C880 1.429 . S
H877 C882 0.930 . S
N878 Eu840 2.609 . S
N878 C880 1.377 . S
N878 C881 1.321 1_545 S
C879 H865 0.930 . S
C879 C881 1.400 . S
C879 C882 1.386 . S
C880 C876 1.429 . S
C880 N878 1.377 . S
C880 C883 1.411 . S
C881 H863 0.930 . S
C881 N878 1.321 1_565 S
C881 C879 1.400 . S
C882 H877 0.930 . S
C882 C879 1.386 . S
C882 C883 1.395 1_565 S
C883 C880 1.411 . S
C883 C882 1.395 1_545 S
C883 C905 1.420 . S
O884 Eu840 2.558 1_565 S
O884 C904 1.257 1_565 S
O885 Eu840 2.612 . S
O885 Eu851 2.380 1_554 S
O885 C896 1.276 . S
O886 Eu851 2.432 1_554 S
O886 C903 1.264 . S
O887 Eu840 2.339 . S
O887 C903 1.254 . S
O888 Eu840 2.563 1_565 S
O888 C896 1.230 1_565 S
O889 Eu840 2.419 . S
O889 C904 1.249 . S
O890 Eu851 2.558 . S
O890 C915 1.257 . S
O891 Eu840 2.380 . S
O891 Eu851 2.612 1_554 S
O891 C907 1.276 . S
O892 Eu840 2.432 1_565 S
O892 C914 1.264 . S
O893 Eu851 2.339 . S
O893 C914 1.254 1_546 S
O894 Eu851 2.563 1_554 S
O894 C907 1.235 . S
O895 Eu851 2.419 . S
O895 C915 1.249 . S
C896 O885 1.276 . S
C896 O888 1.230 1_545 S
C897 C899 1.393 1_565 S
C897 C901 1.395 . S
C897 C904 1.492 1_565 S
C898 C899 1.392 . S
C898 C900 1.386 1_545 S
C899 C897 1.393 1_545 S
C899 C898 1.392 . S
C899 H916 0.930 . S
C900 C898 1.386 1_565 S
C900 C902 1.395 . S
C900 H917 0.930 . S
C901 C897 1.395 . S
C901 C902 1.379 . S
C901 H918 0.930 . S
C902 C900 1.395 . S
C902 C901 1.379 . S
C902 H919 0.930 . S
C903 O886 1.264 . S
C903 O887 1.254 . S
C904 Eu840 2.848 . S
C904 O884 1.257 1_545 S
C904 O889 1.249 . S
C904 C897 1.492 1_545 S
C905 H870 0.931 . S
C905 C883 1.420 . S
C905 C906 1.351 . S
C906 H868 0.930 . S
C906 C874 1.423 . S
C906 C905 1.351 . S
C907 O891 1.276 . S
C907 O894 1.235 . S
C908 C909 1.393 . S
C908 C912 1.395 . S
C908 C915 1.492 . S
C909 C908 1.393 . S
C909 C910 1.392 . S
C909 H920 0.930 . S
C910 C909 1.392 . S
C910 C911 1.386 . S
C911 C910 1.386 . S
C911 C913 1.395 . S
C911 H921 0.930 . S
C912 C908 1.395 . S
C912 C913 1.379 . S
C912 H922 0.930 . S
C913 C911 1.395 . S
C913 C912 1.379 . S
C913 H923 0.930 . S
C914 O892 1.264 . S
C914 O893 1.254 1_564 S
C915 Eu851 2.848 . S
C915 O890 1.257 . S
C915 O895 1.249 . S
C915 C908 1.492 . S
H916 C899 0.930 . S
H917 C900 0.930 . S
H918 C901 0.930 . S
H919 C902 0.930 . S
H920 C909 0.930 . S
H921 C911 0.930 . S
H922 C912 0.930 . S
H923 C913 0.930 . S
Eu924 N955 2.657 . S
Eu924 N962 2.609 . S
Eu924 O968 2.558 . S
Eu924 O969 2.612 . S
Eu924 O971 2.339 . S
Eu924 O972 2.563 . S
Eu924 O973 2.419 . S
Eu924 O975 2.380 . S
Eu924 O976 2.432 . S
Eu924 C988 2.848 . S
C925 C928 1.429 . S
C925 C929 1.411 . S
C925 N932 1.377 . S
C926 C928 1.420 . S
C926 C930 1.423 . S
C926 C938 1.392 . S
C927 C929 1.420 . S
C927 C930 1.351 . S
C927 H950 0.931 . S
C928 C925 1.429 . S
C928 C926 1.420 . S
C928 N936 1.362 . S
C929 C925 1.411 . S
C929 C927 1.420 . S
C929 C934 1.395 . S
C930 C926 1.423 . S
C930 C927 1.351 . S
C930 H942 0.930 . S
C931 C933 1.400 . S
C931 C934 1.386 . S
C931 H943 0.930 . S
N932 C925 1.377 . S
N932 C933 1.321 . S
N932 Eu935 2.609 . S
C933 C931 1.400 . S
C933 N932 1.321 . S
C933 H940 0.930 . S
C934 C929 1.395 . S
C934 C931 1.386 . S
C934 H953 0.930 . S
Eu935 N932 2.609 . S
Eu935 N936 2.657 . S
Eu935 O969 2.380 . S
Eu935 O970 2.432 . S
Eu935 O974 2.558 . S
Eu935 O975 2.612 . S
Eu935 O977 2.339 . S
Eu935 O978 2.563 . S
Eu935 O979 2.419 . S
Eu935 C999 2.848 . S
N936 C928 1.362 . S
N936 Eu935 2.657 . S
N936 C937 1.334 . S
C937 N936 1.334 . S
C937 C939 1.413 . S
C937 H944 0.929 . S
C938 C926 1.392 . S
C938 C939 1.367 . S
C938 H946 0.930 . S
C939 C937 1.413 . S
C939 C938 1.367 . S
C939 H941 0.930 . S
H940 C933 0.930 . S
H941 C939 0.930 . S
H942 C930 0.930 . S
H943 C931 0.930 . S
H944 C937 0.929 . S
H945 C959 0.930 . S
H946 C938 0.930 . S
H947 C965 0.930 . S
H948 C956 0.929 . S
H949 C963 0.930 . S
H950 C927 0.931 . S
H951 C957 0.930 . S
H952 C990 0.930 . S
H953 C934 0.930 . S
H954 C989 0.931 . S
N955 Eu924 2.657 . S
N955 C956 1.334 . S
N955 C960 1.362 . S
C956 H948 0.929 . S
C956 N955 1.334 . S
C956 C959 1.413 . S
C957 H951 0.930 . S
C957 C958 1.392 . S
C957 C959 1.367 . S
C958 C957 1.392 . S
C958 C960 1.420 . S
C958 C990 1.423 . S
C959 H945 0.930 . S
C959 C956 1.413 . S
C959 C957 1.367 . S
C960 N955 1.362 . S
C960 C958 1.420 . S
C960 C964 1.429 . S
H961 C966 0.930 . S
N962 Eu924 2.609 . S
N962 C964 1.377 . S
N962 C965 1.321 . S
C963 H949 0.930 . S
C963 C965 1.400 . S
C963 C966 1.386 . S
C964 C960 1.429 . S
C964 N962 1.377 . S
C964 C967 1.411 . S
C965 H947 0.930 . S
C965 N962 1.321 . S
C965 C963 1.400 . S
C966 H961 0.930 . S
C966 C963 1.386 . S
C966 C967 1.395 . S
C967 C964 1.411 . S
C967 C966 1.395 . S
C967 C989 1.420 . S
O968 Eu924 2.558 . S
O968 C988 1.257 . S
O969 Eu924 2.612 . S
O969 Eu935 2.380 . S
O969 C980 1.276 . S
O970 Eu935 2.432 . S
O970 C987 1.264 . S
O971 Eu924 2.339 . S
O971 C987 1.254 . S
O972 Eu924 2.563 . S
O972 C980 1.235 . S
O973 Eu924 2.419 . S
O973 C988 1.249 . S
O974 Eu935 2.558 . S
O974 C999 1.257 . S
O975 Eu924 2.380 . S
O975 Eu935 2.612 . S
O975 C991 1.276 . S
O976 Eu924 2.432 . S
O976 C998 1.264 . S
O977 Eu935 2.339 . S
O977 C998 1.254 . S
O978 Eu935 2.563 . S
O978 C991 1.235 . S
O979 Eu935 2.419 . S
O979 C999 1.249 . S
C980 O969 1.276 . S
C980 O972 1.235 . S
C981 C983 1.393 . S
C981 C985 1.395 . S
C981 C988 1.492 . S
C982 C983 1.392 . S
C982 C984 1.386 . S
C983 C981 1.393 . S
C983 C982 1.392 . S
C983 H1000 0.930 . S
C984 C982 1.386 . S
C984 C986 1.395 . S
C984 H1001 0.930 . S
C985 C981 1.395 . S
C985 C986 1.379 . S
C985 H1002 0.930 . S
C986 C984 1.395 . S
C986 C985 1.379 . S
C986 H1003 0.930 . S
C987 O970 1.264 . S
C987 O971 1.254 . S
C988 Eu924 2.848 . S
C988 O968 1.257 . S
C988 O973 1.249 . S
C988 C981 1.492 . S
C989 H954 0.931 . S
C989 C967 1.420 . S
C989 C990 1.351 . S
C990 H952 0.930 . S
C990 C958 1.423 . S
C990 C989 1.351 . S
C991 O975 1.276 . S
C991 O978 1.235 . S
C992 C993 1.393 . S
C992 C996 1.395 . S
C992 C999 1.492 . S
C993 C992 1.393 . S
C993 C994 1.392 . S
C993 H1004 0.930 . S
C994 C993 1.392 . S
C994 C995 1.386 . S
C995 C994 1.386 . S
C995 C997 1.395 . S
C995 H1005 0.930 . S
C996 C992 1.395 . S
C996 C997 1.379 . S
C996 H1006 0.930 . S
C997 C995 1.395 . S
C997 C996 1.379 . S
C997 H1007 0.930 . S
C998 O976 1.264 . S
C998 O977 1.254 . S
C999 Eu935 2.848 . S
C999 O974 1.257 . S
C999 O979 1.249 . S
C999 C992 1.492 . S
H1000 C983 0.930 . S
H1001 C984 0.930 . S
H1002 C985 0.930 . S
H1003 C986 0.930 . S
H1004 C993 0.930 . S
H1005 C995 0.930 . S
H1006 C996 0.930 . S
H1007 C997 0.930 . S
Eu1008 N1039 2.657 . S
Eu1008 N1046 2.609 . S
Eu1008 O1052 2.558 . S
Eu1008 O1053 2.612 1_554 S
Eu1008 O1055 2.339 . S
Eu1008 O1056 2.563 1_554 S
Eu1008 O1057 2.419 . S
Eu1008 O1059 2.380 . S
Eu1008 O1060 2.432 . S
Eu1008 C1072 2.848 . S
C1009 C1012 1.429 . S
C1009 C1013 1.411 . S
C1009 N1016 1.377 . S
C1010 C1012 1.420 . S
C1010 C1014 1.423 . S
C1010 C1022 1.392 . S
C1011 C1013 1.420 . S
C1011 C1014 1.351 . S
C1011 H1034 0.931 . S
C1012 C1009 1.429 . S
C1012 C1010 1.420 . S
C1012 N1020 1.362 . S
C1013 C1009 1.411 . S
C1013 C1011 1.420 . S
C1013 C1018 1.395 . S
C1014 C1010 1.423 . S
C1014 C1011 1.351 . S
C1014 H1026 0.930 . S
C1015 C1017 1.400 . S
C1015 C1018 1.386 . S
C1015 H1027 0.930 . S
N1016 C1009 1.377 . S
N1016 C1017 1.321 . S
N1016 Eu1019 2.609 1_556 S
C1017 C1015 1.400 . S
C1017 N1016 1.321 . S
C1017 H1024 0.930 . S
C1018 C1013 1.395 . S
C1018 C1015 1.386 . S
C1018 H1037 0.930 . S
Eu1019 N1016 2.609 1_554 S
Eu1019 N1020 2.657 1_554 S
Eu1019 O1053 2.380 1_554 S
Eu1019 O1054 2.432 . S
Eu1019 O1058 2.558 . S
Eu1019 O1059 2.612 . S
Eu1019 O1061 2.339 . S
Eu1019 O1062 2.563 . S
Eu1019 O1063 2.419 . S
Eu1019 C1083 2.848 . S
N1020 C1012 1.362 . S
N1020 Eu1019 2.657 1_556 S
N1020 C1021 1.334 . S
C1021 N1020 1.334 . S
C1021 C1023 1.413 . S
C1021 H1028 0.929 . S
C1022 C1010 1.392 . S
C1022 C1023 1.367 . S
C1022 H1030 0.930 . S
C1023 C1021 1.413 . S
C1023 C1022 1.367 . S
C1023 H1025 0.930 . S
H1024 C1017 0.930 . S
H1025 C1023 0.930 . S
H1026 C1014 0.930 . S
H1027 C1015 0.930 . S
H1028 C1021 0.929 . S
H1029 C1043 0.930 . S
H1030 C1022 0.930 . S
H1031 C1049 0.930 . S
H1032 C1040 0.929 . S
H1033 C1047 0.930 . S
H1034 C1011 0.931 . S
H1035 C1041 0.930 . S
H1036 C1074 0.930 . S
H1037 C1018 0.930 . S
H1038 C1073 0.931 . S
N1039 Eu1008 2.657 . S
N1039 C1040 1.334 . S
N1039 C1044 1.362 . S
C1040 H1032 0.929 . S
C1040 N1039 1.334 . S
C1040 C1043 1.413 . S
C1041 H1035 0.930 . S
C1041 C1042 1.392 . S
C1041 C1043 1.367 . S
C1042 C1041 1.392 . S
C1042 C1044 1.420 . S
C1042 C1074 1.423 . S
C1043 H1029 0.930 . S
C1043 C1040 1.413 . S
C1043 C1041 1.367 . S
C1044 N1039 1.362 . S
C1044 C1042 1.420 . S
C1044 C1048 1.429 . S
H1045 C1050 0.930 . S
N1046 Eu1008 2.609 . S
N1046 C1048 1.377 . S
N1046 C1049 1.321 . S
C1047 H1033 0.930 . S
C1047 C1049 1.400 . S
C1047 C1050 1.386 . S
C1048 C1044 1.429 . S
C1048 N1046 1.377 . S
C1048 C1051 1.411 . S
C1049 H1031 0.930 . S
C1049 N1046 1.321 . S
C1049 C1047 1.400 . S
C1050 H1045 0.930 . S
C1050 C1047 1.386 . S
C1050 C1051 1.395 . S
C1051 C1048 1.411 . S
C1051 C1050 1.395 . S
C1051 C1073 1.420 . S
O1052 Eu1008 2.558 . S
O1052 C1072 1.257 . S
O1053 Eu1008 2.612 1_556 S
O1053 Eu1019 2.380 1_556 S
O1053 C1064 1.276 . S
O1054 Eu1019 2.432 . S
O1054 C1071 1.264 . S
O1055 Eu1008 2.339 . S
O1055 C1071 1.254 . S
O1056 Eu1008 2.563 1_556 S
O1056 C1064 1.235 . S
O1057 Eu1008 2.419 . S
O1057 C1072 1.249 . S
O1058 Eu1019 2.558 . S
O1058 C1083 1.257 . S
O1059 Eu1008 2.380 . S
O1059 Eu1019 2.612 . S
O1059 C1075 1.276 . S
O1060 Eu1008 2.432 . S
O1060 C1082 1.264 . S
O1061 Eu1019 2.339 . S
O1061 C1082 1.254 . S
O1062 Eu1019 2.563 . S
O1062 C1075 1.235 . S
O1063 Eu1019 2.419 . S
O1063 C1083 1.249 . S
C1064 O1053 1.276 . S
C1064 O1056 1.235 . S
C1065 C1067 1.393 . S
C1065 C1069 1.395 . S
C1065 C1072 1.492 . S
C1066 C1067 1.392 . S
C1066 C1068 1.386 . S
C1067 C1065 1.393 . S
C1067 C1066 1.392 . S
C1067 H1084 0.930 . S
C1068 C1066 1.386 . S
C1068 C1070 1.395 . S
C1068 H1085 0.930 . S
C1069 C1065 1.395 . S
C1069 C1070 1.379 . S
C1069 H1086 0.930 . S
C1070 C1068 1.395 . S
C1070 C1069 1.379 . S
C1070 H1087 0.930 . S
C1071 O1054 1.264 . S
C1071 O1055 1.254 . S
C1072 Eu1008 2.848 . S
C1072 O1052 1.257 . S
C1072 O1057 1.249 . S
C1072 C1065 1.492 . S
C1073 H1038 0.931 . S
C1073 C1051 1.420 . S
C1073 C1074 1.351 . S
C1074 H1036 0.930 . S
C1074 C1042 1.423 . S
C1074 C1073 1.351 . S
C1075 O1059 1.276 . S
C1075 O1062 1.235 . S
C1076 C1077 1.393 . S
C1076 C1080 1.395 . S
C1076 C1083 1.492 . S
C1077 C1076 1.393 . S
C1077 C1078 1.392 . S
C1077 H1088 0.930 . S
C1078 C1077 1.392 . S
C1078 C1079 1.386 . S
C1079 C1078 1.386 . S
C1079 C1081 1.395 . S
C1079 H1089 0.930 . S
C1080 C1076 1.395 . S
C1080 C1081 1.379 . S
C1080 H1090 0.930 . S
C1081 C1079 1.395 . S
C1081 C1080 1.379 . S
C1081 H1091 0.930 . S
C1082 O1060 1.264 . S
C1082 O1061 1.254 . S
C1083 Eu1019 2.848 . S
C1083 O1058 1.257 . S
C1083 O1063 1.249 . S
C1083 C1076 1.492 . S
H1084 C1067 0.930 . S
H1085 C1068 0.930 . S
H1086 C1069 0.930 . S
H1087 C1070 0.930 . S
H1088 C1077 0.930 . S
H1089 C1079 0.930 . S
H1090 C1080 0.930 . S
H1091 C1081 0.930 . S
Eu1092 N1123 2.657 . S
Eu1092 N1130 2.609 . S
Eu1092 O1136 2.558 . S
Eu1092 O1137 2.612 . S
Eu1092 O1139 2.339 . S
Eu1092 O1140 2.563 . S
Eu1092 O1141 2.419 . S
Eu1092 O1143 2.380 . S
Eu1092 O1144 2.432 . S
Eu1092 C1156 2.848 . S
C1093 C1096 1.429 . S
C1093 C1097 1.411 . S
C1093 N1100 1.377 . S
C1094 C1096 1.420 . S
C1094 C1098 1.423 . S
C1094 C1106 1.392 . S
C1095 C1097 1.420 . S
C1095 C1098 1.351 . S
C1095 H1118 0.931 . S
C1096 C1093 1.429 . S
C1096 C1094 1.420 . S
C1096 N1104 1.362 . S
C1097 C1093 1.411 . S
C1097 C1095 1.420 . S
C1097 C1102 1.395 . S
C1098 C1094 1.423 . S
C1098 C1095 1.351 . S
C1098 H1110 0.930 . S
C1099 C1101 1.400 . S
C1099 C1102 1.386 . S
C1099 H1111 0.930 . S
N1100 C1093 1.377 . S
N1100 C1101 1.321 . S
N1100 Eu1103 2.609 . S
C1101 C1099 1.400 . S
C1101 N1100 1.321 . S
C1101 H1108 0.930 . S
C1102 C1097 1.395 . S
C1102 C1099 1.386 . S
C1102 H1121 0.930 . S
Eu1103 N1100 2.609 . S
Eu1103 N1104 2.657 . S
Eu1103 O1137 2.380 . S
Eu1103 O1138 2.432 . S
Eu1103 O1142 2.558 . S
Eu1103 O1143 2.612 . S
Eu1103 O1145 2.339 . S
Eu1103 O1146 2.563 . S
Eu1103 O1147 2.419 . S
Eu1103 C1167 2.848 . S
N1104 C1096 1.362 . S
N1104 Eu1103 2.657 . S
N1104 C1105 1.334 . S
C1105 N1104 1.334 . S
C1105 C1107 1.413 . S
C1105 H1112 0.929 . S
C1106 C1094 1.392 . S
C1106 C1107 1.367 . S
C1106 H1114 0.930 . S
C1107 C1105 1.413 . S
C1107 C1106 1.367 . S
C1107 H1109 0.930 . S
H1108 C1101 0.930 . S
H1109 C1107 0.930 . S
H1110 C1098 0.930 . S
H1111 C1099 0.930 . S
H1112 C1105 0.929 . S
H1113 C1127 0.930 . S
H1114 C1106 0.930 . S
H1115 C1133 0.930 . S
H1116 C1124 0.929 . S
H1117 C1131 0.930 . S
H1118 C1095 0.931 . S
H1119 C1125 0.930 . S
H1120 C1158 0.930 . S
H1121 C1102 0.930 . S
H1122 C1157 0.931 . S
N1123 Eu1092 2.657 . S
N1123 C1124 1.334 . S
N1123 C1128 1.362 . S
C1124 H1116 0.929 . S
C1124 N1123 1.334 . S
C1124 C1127 1.413 . S
C1125 H1119 0.930 . S
C1125 C1126 1.392 . S
C1125 C1127 1.367 . S
C1126 C1125 1.392 . S
C1126 C1128 1.420 . S
C1126 C1158 1.423 . S
C1127 H1113 0.930 . S
C1127 C1124 1.413 . S
C1127 C1125 1.367 . S
C1128 N1123 1.362 . S
C1128 C1126 1.420 . S
C1128 C1132 1.429 . S
H1129 C1134 0.930 . S
N1130 Eu1092 2.609 . S
N1130 C1132 1.377 . S
N1130 C1133 1.321 . S
C1131 H1117 0.930 . S
C1131 C1133 1.400 . S
C1131 C1134 1.386 . S
C1132 C1128 1.429 . S
C1132 N1130 1.377 . S
C1132 C1135 1.411 . S
C1133 H1115 0.930 . S
C1133 N1130 1.321 . S
C1133 C1131 1.400 . S
C1134 H1129 0.930 . S
C1134 C1131 1.386 . S
C1134 C1135 1.395 . S
C1135 C1132 1.411 . S
C1135 C1134 1.395 . S
C1135 C1157 1.420 . S
O1136 Eu1092 2.558 . S
O1136 C1156 1.257 . S
O1137 Eu1092 2.612 . S
O1137 Eu1103 2.380 . S
O1137 C1148 1.276 . S
O1138 Eu1103 2.432 . S
O1138 C1155 1.264 . S
O1139 Eu1092 2.339 . S
O1139 C1155 1.254 . S
O1140 Eu1092 2.563 . S
O1140 C1148 1.235 . S
O1141 Eu1092 2.419 . S
O1141 C1156 1.249 . S
O1142 Eu1103 2.558 . S
O1142 C1167 1.257 . S
O1143 Eu1092 2.380 . S
O1143 Eu1103 2.612 . S
O1143 C1159 1.276 . S
O1144 Eu1092 2.432 . S
O1144 C1166 1.264 . S
O1145 Eu1103 2.339 . S
O1145 C1166 1.254 . S
O1146 Eu1103 2.563 . S
O1146 C1159 1.235 . S
O1147 Eu1103 2.419 . S
O1147 C1167 1.249 . S
C1148 O1137 1.276 . S
C1148 O1140 1.235 . S
C1149 C1151 1.393 . S
C1149 C1153 1.395 . S
C1149 C1156 1.492 . S
C1150 C1151 1.429 . S
C1150 C1152 1.364 1_655 S
C1151 C1149 1.393 . S
C1151 C1150 1.429 . S
C1151 H1168 0.930 . S
C1152 C1150 1.364 1_455 S
C1152 C1154 1.395 . S
C1152 H1169 0.930 . S
C1153 C1149 1.395 . S
C1153 C1154 1.379 1_655 S
C1153 H1170 0.930 . S
C1154 C1152 1.395 . S
C1154 C1153 1.379 1_455 S
C1154 H1171 0.930 . S
C1155 O1138 1.264 . S
C1155 O1139 1.254 . S
C1156 Eu1092 2.848 . S
C1156 O1136 1.257 . S
C1156 O1141 1.249 . S
C1156 C1149 1.492 . S
C1157 H1122 0.931 . S
C1157 C1135 1.420 . S
C1157 C1158 1.351 . S
C1158 H1120 0.930 . S
C1158 C1126 1.423 . S
C1158 C1157 1.351 . S
C1159 O1143 1.276 . S
C1159 O1146 1.235 . S
C1160 C1161 1.393 . S
C1160 C1164 1.395 . S
C1160 C1167 1.492 . S
C1161 C1160 1.393 . S
C1161 C1162 1.392 . S
C1161 H1172 0.930 . S
C1162 C1161 1.392 . S
C1162 C1163 1.386 . S
C1163 C1162 1.386 . S
C1163 C1165 1.395 . S
C1163 H1173 0.930 . S
C1164 C1160 1.395 . S
C1164 C1165 1.379 . S
C1164 H1174 0.930 . S
C1165 C1163 1.395 . S
C1165 C1164 1.379 . S
C1165 H1175 0.930 . S
C1166 O1144 1.264 . S
C1166 O1145 1.254 . S
C1167 Eu1103 2.848 . S
C1167 O1142 1.257 . S
C1167 O1147 1.249 . S
C1167 C1160 1.492 . S
H1168 C1151 0.930 . S
H1169 C1152 0.930 . S
H1170 C1153 0.930 . S
H1171 C1154 0.930 . S
H1172 C1161 0.930 . S
H1173 C1163 0.930 . S
H1174 C1164 0.930 . S
H1175 C1165 0.930 . S
Eu1176 N1207 2.657 . S
Eu1176 N1214 2.609 . S
Eu1176 O1220 2.558 . S
Eu1176 O1221 2.612 . S
Eu1176 O1223 2.339 . S
Eu1176 O1224 2.563 . S
Eu1176 O1225 2.419 . S
Eu1176 O1227 2.380 . S
Eu1176 O1228 2.432 . S
Eu1176 C1240 2.848 . S
C1177 C1180 1.429 . S
C1177 C1181 1.411 1_455 S
C1177 N1184 1.377 . S
C1178 C1180 1.420 1_655 S
C1178 C1182 1.423 . S
C1178 C1190 1.392 . S
C1179 C1181 1.420 . S
C1179 C1182 1.351 . S
C1179 H1202 0.931 . S
C1180 C1177 1.429 . S
C1180 C1178 1.420 1_455 S
C1180 N1188 1.362 . S
C1181 C1177 1.411 1_655 S
C1181 C1179 1.420 . S
C1181 C1186 1.395 . S
C1182 C1178 1.423 . S
C1182 C1179 1.351 . S
C1182 H1194 0.930 . S
C1183 C1185 1.400 . S
C1183 C1186 1.386 1_455 S
C1183 H1195 0.930 . S
N1184 C1177 1.377 . S
N1184 C1185 1.321 . S
N1184 Eu1187 2.609 . S
C1185 C1183 1.400 . S
C1185 N1184 1.321 . S
C1185 H1192 0.930 . S
C1186 C1181 1.395 . S
C1186 C1183 1.386 1_655 S
C1186 H1205 0.930 . S
Eu1187 N1184 2.609 . S
Eu1187 N1188 2.657 . S
Eu1187 O1221 2.380 . S
Eu1187 O1222 2.432 . S
Eu1187 O1226 2.558 . S
Eu1187 O1227 2.612 . S
Eu1187 O1229 2.339 . S
Eu1187 O1230 2.563 . S
Eu1187 O1231 2.419 . S
Eu1187 C1251 2.848 . S
N1188 C1180 1.362 . S
N1188 Eu1187 2.657 . S
N1188 C1189 1.334 . S
C1189 N1188 1.334 . S
C1189 C1191 1.413 1_455 S
C1189 H1196 0.929 . S
C1190 C1178 1.392 . S
C1190 C1191 1.367 . S
C1190 H1198 0.930 . S
C1191 C1189 1.413 1_655 S
C1191 C1190 1.367 . S
C1191 H1193 0.930 . S
H1192 C1185 0.930 . S
H1193 C1191 0.930 . S
H1194 C1182 0.930 . S
H1195 C1183 0.930 . S
H1196 C1189 0.929 . S
H1197 C1211 0.930 . S
H1198 C1190 0.930 . S
H1199 C1217 0.930 . S
H1200 C1208 0.929 . S
H1201 C1215 0.930 . S
H1202 C1179 0.931 . S
H1203 C1209 0.930 . S
H1204 C1242 0.930 . S
H1205 C1186 0.930 . S
H1206 C1241 0.931 . S
N1207 Eu1176 2.657 . S
N1207 C1208 1.334 . S
N1207 C1212 1.362 . S
C1208 H1200 0.929 . S
C1208 N1207 1.334 . S
C1208 C1211 1.413 . S
C1209 H1203 0.930 . S
C1209 C1210 1.392 . S
C1209 C1211 1.367 . S
C1210 C1209 1.392 . S
C1210 C1212 1.420 . S
C1210 C1242 1.423 . S
C1211 H1197 0.930 . S
C1211 C1208 1.413 . S
C1211 C1209 1.367 . S
C1212 N1207 1.362 . S
C1212 C1210 1.420 . S
C1212 C1216 1.429 . S
H1213 C1218 0.930 . S
N1214 Eu1176 2.609 . S
N1214 C1216 1.377 . S
N1214 C1217 1.321 . S
C1215 H1201 0.930 . S
C1215 C1217 1.400 . S
C1215 C1218 1.386 . S
C1216 C1212 1.429 . S
C1216 N1214 1.377 . S
C1216 C1219 1.411 . S
C1217 H1199 0.930 . S
C1217 N1214 1.321 . S
C1217 C1215 1.400 . S
C1218 H1213 0.930 . S
C1218 C1215 1.386 . S
C1218 C1219 1.395 . S
C1219 C1216 1.411 . S
C1219 C1218 1.395 . S
C1219 C1241 1.420 . S
O1220 Eu1176 2.558 . S
O1220 C1240 1.257 . S
O1221 Eu1176 2.612 . S
O1221 Eu1187 2.380 . S
O1221 C1232 1.276 . S
O1222 Eu1187 2.432 . S
O1222 C1239 1.264 . S
O1223 Eu1176 2.339 . S
O1223 C1239 1.254 . S
O1224 Eu1176 2.563 . S
O1224 C1232 1.235 . S
O1225 Eu1176 2.419 . S
O1225 C1240 1.249 . S
O1226 Eu1187 2.558 . S
O1226 C1251 1.257 . S
O1227 Eu1176 2.380 . S
O1227 Eu1187 2.612 . S
O1227 C1243 1.276 . S
O1228 Eu1176 2.432 . S
O1228 C1250 1.264 . S
O1229 Eu1187 2.339 . S
O1229 C1250 1.254 . S
O1230 Eu1187 2.563 . S
O1230 C1243 1.235 . S
O1231 Eu1187 2.419 . S
O1231 C1251 1.249 . S
C1232 O1221 1.276 . S
C1232 O1224 1.235 . S
C1233 C1235 1.393 . S
C1233 C1237 1.395 . S
C1233 C1240 1.492 . S
C1234 C1235 1.392 . S
C1234 C1236 1.386 . S
C1235 C1233 1.393 . S
C1235 C1234 1.392 . S
C1235 H1252 0.930 . S
C1236 C1234 1.386 . S
C1236 C1238 1.395 . S
C1236 H1253 0.930 . S
C1237 C1233 1.395 . S
C1237 C1238 1.379 . S
C1237 H1254 0.930 . S
C1238 C1236 1.395 . S
C1238 C1237 1.379 . S
C1238 H1255 0.930 . S
C1239 O1222 1.264 . S
C1239 O1223 1.254 . S
C1240 Eu1176 2.848 . S
C1240 O1220 1.257 . S
C1240 O1225 1.249 . S
C1240 C1233 1.492 . S
C1241 H1206 0.931 . S
C1241 C1219 1.420 . S
C1241 C1242 1.351 . S
C1242 H1204 0.930 . S
C1242 C1210 1.423 . S
C1242 C1241 1.351 . S
C1243 O1227 1.276 . S
C1243 O1230 1.235 . S
C1244 C1245 1.393 . S
C1244 C1248 1.395 . S
C1244 C1251 1.492 . S
C1245 C1244 1.393 . S
C1245 C1246 1.392 . S
C1245 H1256 0.930 . S
C1246 C1245 1.392 . S
C1246 C1247 1.386 . S
C1247 C1246 1.386 . S
C1247 C1249 1.395 . S
C1247 H1257 0.930 . S
C1248 C1244 1.395 . S
C1248 C1249 1.379 . S
C1248 H1258 0.930 . S
C1249 C1247 1.395 . S
C1249 C1248 1.379 . S
C1249 H1259 0.930 . S
C1250 O1228 1.264 . S
C1250 O1229 1.254 . S
C1251 Eu1187 2.848 . S
C1251 O1226 1.257 . S
C1251 O1231 1.249 . S
C1251 C1244 1.492 . S
H1252 C1235 0.930 . S
H1253 C1236 0.930 . S
H1254 C1237 0.930 . S
H1255 C1238 0.930 . S
H1256 C1245 0.930 . S
H1257 C1247 0.930 . S
H1258 C1248 0.930 . S
H1259 C1249 0.930 . S
Eu1260 N1291 2.657 . S
Eu1260 N1298 2.609 . S
Eu1260 O1304 2.558 . S
Eu1260 O1305 2.612 . S
Eu1260 O1307 2.339 . S
Eu1260 O1308 2.563 . S
Eu1260 O1309 2.419 . S
Eu1260 O1311 2.380 . S
Eu1260 O1312 2.432 . S
Eu1260 C1324 2.848 . S
C1261 C1264 1.429 . S
C1261 C1265 1.411 . S
C1261 N1268 1.377 . S
C1262 C1264 1.420 . S
C1262 C1266 1.423 . S
C1262 C1274 1.392 . S
C1263 C1265 1.420 . S
C1263 C1266 1.351 . S
C1263 H1286 0.931 . S
C1264 C1261 1.429 . S
C1264 C1262 1.420 . S
C1264 N1272 1.362 . S
C1265 C1261 1.411 . S
C1265 C1263 1.420 . S
C1265 C1270 1.395 . S
C1266 C1262 1.423 . S
C1266 C1263 1.351 . S
C1266 H1278 0.930 . S
C1267 C1269 1.400 . S
C1267 C1270 1.386 . S
C1267 H1279 0.930 . S
N1268 C1261 1.377 . S
N1268 C1269 1.321 . S
N1268 Eu1271 2.609 . S
C1269 C1267 1.400 . S
C1269 N1268 1.321 . S
C1269 H1276 0.930 . S
C1270 C1265 1.395 . S
C1270 C1267 1.386 . S
C1270 H1289 0.930 . S
Eu1271 N1268 2.609 . S
Eu1271 N1272 2.657 . S
Eu1271 O1305 2.380 . S
Eu1271 O1306 2.432 . S
Eu1271 O1310 2.558 . S
Eu1271 O1311 2.612 . S
Eu1271 O1313 2.339 . S
Eu1271 O1314 2.563 . S
Eu1271 O1315 2.419 . S
Eu1271 C1335 2.848 . S
N1272 C1264 1.362 . S
N1272 Eu1271 2.657 . S
N1272 C1273 1.334 . S
C1273 N1272 1.334 . S
C1273 C1275 1.413 . S
C1273 H1280 0.929 . S
C1274 C1262 1.392 . S
C1274 C1275 1.367 . S
C1274 H1282 0.930 . S
C1275 C1273 1.413 . S
C1275 C1274 1.367 . S
C1275 H1277 0.930 . S
H1276 C1269 0.930 . S
H1277 C1275 0.930 . S
H1278 C1266 0.930 . S
H1279 C1267 0.930 . S
H1280 C1273 0.929 . S
H1281 C1295 0.930 . S
H1282 C1274 0.930 . S
H1283 C1301 0.930 . S
H1284 C1292 0.929 . S
H1285 C1299 0.930 . S
H1286 C1263 0.931 . S
H1287 C1293 0.930 . S
H1288 C1326 0.930 . S
H1289 C1270 0.930 . S
H1290 C1325 0.931 . S
N1291 Eu1260 2.657 . S
N1291 C1292 1.334 . S
N1291 C1296 1.362 . S
C1292 H1284 0.929 . S
C1292 N1291 1.334 . S
C1292 C1295 1.413 . S
C1293 H1287 0.930 . S
C1293 C1294 1.392 . S
C1293 C1295 1.367 . S
C1294 C1293 1.392 . S
C1294 C1296 1.420 . S
C1294 C1326 1.423 . S
C1295 H1281 0.930 . S
C1295 C1292 1.413 . S
C1295 C1293 1.367 . S
C1296 N1291 1.362 . S
C1296 C1294 1.420 . S
C1296 C1300 1.429 . S
H1297 C1302 0.930 . S
N1298 Eu1260 2.609 . S
N1298 C1300 1.377 . S
N1298 C1301 1.321 . S
C1299 H1285 0.930 . S
C1299 C1301 1.400 . S
C1299 C1302 1.386 . S
C1300 C1296 1.429 . S
C1300 N1298 1.377 . S
C1300 C1303 1.411 . S
C1301 H1283 0.930 . S
C1301 N1298 1.321 . S
C1301 C1299 1.400 . S
C1302 H1297 0.930 . S
C1302 C1299 1.386 . S
C1302 C1303 1.395 . S
C1303 C1300 1.411 . S
C1303 C1302 1.395 . S
C1303 C1325 1.420 . S
O1304 Eu1260 2.558 . S
O1304 C1324 1.257 . S
O1305 Eu1260 2.612 . S
O1305 Eu1271 2.380 . S
O1305 C1316 1.276 . S
O1306 Eu1271 2.432 . S
O1306 C1323 1.264 . S
O1307 Eu1260 2.339 . S
O1307 C1323 1.254 . S
O1308 Eu1260 2.563 . S
O1308 C1316 1.235 . S
O1309 Eu1260 2.419 . S
O1309 C1324 1.249 . S
O1310 Eu1271 2.558 . S
O1310 C1335 1.257 . S
O1311 Eu1260 2.380 . S
O1311 Eu1271 2.612 . S
O1311 C1327 1.276 . S
O1312 Eu1260 2.432 . S
O1312 C1334 1.264 . S
O1313 Eu1271 2.339 . S
O1313 C1334 1.254 . S
O1314 Eu1271 2.563 . S
O1314 C1327 1.235 . S
O1315 Eu1271 2.419 . S
O1315 C1335 1.249 . S
C1316 O1305 1.276 . S
C1316 O1308 1.235 . S
C1317 C1319 1.393 . S
C1317 C1321 1.395 . S
C1317 C1324 1.492 . S
C1318 C1319 1.392 . S
C1318 C1320 1.386 . S
C1319 C1317 1.393 . S
C1319 C1318 1.392 . S
C1319 H1336 0.930 . S
C1320 C1318 1.386 . S
C1320 C1322 1.395 . S
C1320 H1337 0.930 . S
C1321 C1317 1.395 . S
C1321 C1322 1.379 . S
C1321 H1338 0.930 . S
C1322 C1320 1.395 . S
C1322 C1321 1.379 . S
C1322 H1339 0.930 . S
C1323 O1306 1.264 . S
C1323 O1307 1.254 . S
C1324 Eu1260 2.848 . S
C1324 O1304 1.257 . S
C1324 O1309 1.249 . S
C1324 C1317 1.492 . S
C1325 H1290 0.931 . S
C1325 C1303 1.420 . S
C1325 C1326 1.351 . S
C1326 H1288 0.930 . S
C1326 C1294 1.423 . S
C1326 C1325 1.351 . S
C1327 O1311 1.276 . S
C1327 O1314 1.235 . S
C1328 C1329 1.393 . S
C1328 C1332 1.395 . S
C1328 C1335 1.492 . S
C1329 C1328 1.393 . S
C1329 C1330 1.392 . S
C1329 H1340 0.930 . S
C1330 C1329 1.392 . S
C1330 C1331 1.386 . S
C1331 C1330 1.386 . S
C1331 C1333 1.395 . S
C1331 H1341 0.930 . S
C1332 C1328 1.395 . S
C1332 C1333 1.379 . S
C1332 H1342 0.930 . S
C1333 C1331 1.395 . S
C1333 C1332 1.379 . S
C1333 H1343 0.930 . S
C1334 O1312 1.264 . S
C1334 O1313 1.254 . S
C1335 Eu1271 2.848 . S
C1335 O1310 1.257 . S
C1335 O1315 1.249 . S
C1335 C1328 1.492 . S
H1336 C1319 0.930 . S
H1337 C1320 0.930 . S
H1338 C1321 0.930 . S
H1339 C1322 0.930 . S
H1340 C1329 0.930 . S
H1341 C1331 0.930 . S
H1342 C1332 0.930 . S
H1343 C1333 0.930 . S
Eu1344 N1375 2.657 . S
Eu1344 N1382 2.609 . S
Eu1344 O1388 2.558 . S
Eu1344 O1389 2.612 . S
Eu1344 O1391 2.339 . S
Eu1344 O1392 2.563 . S
Eu1344 O1393 2.419 . S
Eu1344 O1395 2.380 . S
Eu1344 O1396 2.432 . S
Eu1344 C1408 2.848 . S
C1345 C1348 1.429 . S
C1345 C1349 1.411 . S
C1345 N1352 1.377 . S
C1346 C1348 1.420 . S
C1346 C1350 1.423 . S
C1346 C1358 1.392 . S
C1347 C1349 1.420 . S
C1347 C1350 1.351 . S
C1347 H1370 0.931 . S
C1348 C1345 1.429 . S
C1348 C1346 1.420 . S
C1348 N1356 1.362 . S
C1349 C1345 1.411 . S
C1349 C1347 1.420 . S
C1349 C1354 1.395 . S
C1350 C1346 1.423 . S
C1350 C1347 1.351 . S
C1350 H1362 0.930 . S
C1351 C1353 1.400 . S
C1351 C1354 1.386 . S
C1351 H1363 0.930 . S
N1352 C1345 1.377 . S
N1352 C1353 1.321 . S
N1352 Eu1355 2.609 . S
C1353 C1351 1.400 . S
C1353 N1352 1.321 . S
C1353 H1360 0.930 . S
C1354 C1349 1.395 . S
C1354 C1351 1.386 . S
C1354 H1373 0.930 . S
Eu1355 N1352 2.609 . S
Eu1355 N1356 2.657 . S
Eu1355 O1389 2.380 . S
Eu1355 O1390 2.432 . S
Eu1355 O1394 2.558 . S
Eu1355 O1395 2.612 . S
Eu1355 O1397 2.339 . S
Eu1355 O1398 2.563 . S
Eu1355 O1399 2.419 . S
Eu1355 C1419 2.848 . S
N1356 C1348 1.362 . S
N1356 Eu1355 2.657 . S
N1356 C1357 1.334 . S
C1357 N1356 1.334 . S
C1357 C1359 1.413 . S
C1357 H1364 0.929 . S
C1358 C1346 1.392 . S
C1358 C1359 1.367 . S
C1358 H1366 0.930 . S
C1359 C1357 1.413 . S
C1359 C1358 1.367 . S
C1359 H1361 0.930 . S
H1360 C1353 0.930 . S
H1361 C1359 0.930 . S
H1362 C1350 0.930 . S
H1363 C1351 0.930 . S
H1364 C1357 0.929 . S
H1365 C1379 0.930 . S
H1366 C1358 0.930 . S
H1367 C1385 0.930 . S
H1368 C1376 0.929 . S
H1369 C1383 0.930 . S
H1370 C1347 0.931 . S
H1371 C1377 0.930 . S
H1372 C1410 0.930 . S
H1373 C1354 0.930 . S
H1374 C1409 0.931 . S
N1375 Eu1344 2.657 . S
N1375 C1376 1.334 . S
N1375 C1380 1.362 . S
C1376 H1368 0.929 . S
C1376 N1375 1.334 . S
C1376 C1379 1.413 . S
C1377 H1371 0.930 . S
C1377 C1378 1.392 . S
C1377 C1379 1.367 . S
C1378 C1377 1.392 . S
C1378 C1380 1.420 . S
C1378 C1410 1.423 . S
C1379 H1365 0.930 . S
C1379 C1376 1.413 . S
C1379 C1377 1.367 . S
C1380 N1375 1.362 . S
C1380 C1378 1.420 . S
C1380 C1384 1.429 . S
H1381 C1386 0.930 . S
N1382 Eu1344 2.609 . S
N1382 C1384 1.377 . S
N1382 C1385 1.321 . S
C1383 H1369 0.930 . S
C1383 C1385 1.400 . S
C1383 C1386 1.386 . S
C1384 C1380 1.429 . S
C1384 N1382 1.377 . S
C1384 C1387 1.411 . S
C1385 H1367 0.930 . S
C1385 N1382 1.321 . S
C1385 C1383 1.400 . S
C1386 H1381 0.930 . S
C1386 C1383 1.386 . S
C1386 C1387 1.395 . S
C1387 C1384 1.411 . S
C1387 C1386 1.395 . S
C1387 C1409 1.420 . S
O1388 Eu1344 2.558 . S
O1388 C1408 1.257 . S
O1389 Eu1344 2.612 . S
O1389 Eu1355 2.380 . S
O1389 C1400 1.276 . S
O1390 Eu1355 2.432 . S
O1390 C1407 1.264 . S
O1391 Eu1344 2.339 . S
O1391 C1407 1.254 . S
O1392 Eu1344 2.563 . S
O1392 C1400 1.235 . S
O1393 Eu1344 2.419 . S
O1393 C1408 1.249 . S
O1394 Eu1355 2.558 . S
O1394 C1419 1.257 . S
O1395 Eu1344 2.380 . S
O1395 Eu1355 2.612 . S
O1395 C1411 1.276 . S
O1396 Eu1344 2.432 . S
O1396 C1418 1.264 . S
O1397 Eu1355 2.339 . S
O1397 C1418 1.254 . S
O1398 Eu1355 2.563 . S
O1398 C1411 1.235 . S
O1399 Eu1355 2.419 . S
O1399 C1419 1.249 . S
C1400 O1389 1.276 . S
C1400 O1392 1.235 . S
C1401 C1403 1.393 . S
C1401 C1405 1.395 . S
C1401 C1408 1.492 . S
C1402 C1403 1.392 . S
C1402 C1404 1.386 . S
C1403 C1401 1.393 . S
C1403 C1402 1.392 . S
C1403 H1420 0.930 . S
C1404 C1402 1.386 . S
C1404 C1406 1.395 . S
C1404 H1421 0.930 . S
C1405 C1401 1.395 . S
C1405 C1406 1.379 . S
C1405 H1422 0.930 . S
C1406 C1404 1.395 . S
C1406 C1405 1.379 . S
C1406 H1423 0.930 . S
C1407 O1390 1.264 . S
C1407 O1391 1.254 . S
C1408 Eu1344 2.848 . S
C1408 O1388 1.257 . S
C1408 O1393 1.249 . S
C1408 C1401 1.492 . S
C1409 H1374 0.931 . S
C1409 C1387 1.420 . S
C1409 C1410 1.351 . S
C1410 H1372 0.930 . S
C1410 C1378 1.423 . S
C1410 C1409 1.351 . S
C1411 O1395 1.276 . S
C1411 O1398 1.235 . S
C1412 C1413 1.393 . S
C1412 C1416 1.395 . S
C1412 C1419 1.492 . S
C1413 C1412 1.393 . S
C1413 C1414 1.392 . S
C1413 H1424 0.930 . S
C1414 C1413 1.392 . S
C1414 C1415 1.386 . S
C1415 C1414 1.386 . S
C1415 C1417 1.395 . S
C1415 H1425 0.930 . S
C1416 C1412 1.395 . S
C1416 C1417 1.379 . S
C1416 H1426 0.930 . S
C1417 C1415 1.395 . S
C1417 C1416 1.379 . S
C1417 H1427 0.930 . S
C1418 O1396 1.264 . S
C1418 O1397 1.254 . S
C1419 Eu1355 2.848 . S
C1419 O1394 1.257 . S
C1419 O1399 1.249 . S
C1419 C1412 1.492 . S
H1420 C1403 0.930 . S
H1421 C1404 0.930 . S
H1422 C1405 0.930 . S
H1423 C1406 0.930 . S
H1424 C1413 0.930 . S
H1425 C1415 0.930 . S
H1426 C1416 0.930 . S
H1427 C1417 0.930 . S
Eu1428 N1459 2.657 . S
Eu1428 N1466 2.609 . S
Eu1428 O1472 2.558 . S
Eu1428 O1473 2.612 . S
Eu1428 O1475 2.339 . S
Eu1428 O1476 2.563 . S
Eu1428 O1477 2.419 . S
Eu1428 O1479 2.380 . S
Eu1428 O1480 2.432 . S
Eu1428 C1492 2.848 . S
C1429 C1432 1.429 . S
C1429 C1433 1.411 . S
C1429 N1436 1.377 . S
C1430 C1432 1.420 . S
C1430 C1434 1.423 . S
C1430 C1442 1.392 . S
C1431 C1433 1.420 . S
C1431 C1434 1.351 . S
C1431 H1454 0.931 . S
C1432 C1429 1.429 . S
C1432 C1430 1.420 . S
C1432 N1440 1.362 . S
C1433 C1429 1.411 . S
C1433 C1431 1.420 . S
C1433 C1438 1.395 . S
C1434 C1430 1.423 . S
C1434 C1431 1.351 . S
C1434 H1446 0.930 . S
C1435 C1437 1.400 . S
C1435 C1438 1.386 . S
C1435 H1447 0.930 . S
N1436 C1429 1.377 . S
N1436 C1437 1.321 . S
N1436 Eu1439 2.609 . S
C1437 C1435 1.400 . S
C1437 N1436 1.321 . S
C1437 H1444 0.930 . S
C1438 C1433 1.395 . S
C1438 C1435 1.386 . S
C1438 H1457 0.930 . S
Eu1439 N1436 2.609 . S
Eu1439 N1440 2.657 . S
Eu1439 O1473 2.380 . S
Eu1439 O1474 2.432 . S
Eu1439 O1478 2.558 . S
Eu1439 O1479 2.612 . S
Eu1439 O1481 2.339 . S
Eu1439 O1482 2.563 . S
Eu1439 O1483 2.419 . S
Eu1439 C1503 2.848 . S
N1440 C1432 1.362 . S
N1440 Eu1439 2.657 . S
N1440 C1441 1.334 . S
C1441 N1440 1.334 . S
C1441 C1443 1.413 . S
C1441 H1448 0.929 . S
C1442 C1430 1.392 . S
C1442 C1443 1.367 . S
C1442 H1450 0.930 . S
C1443 C1441 1.413 . S
C1443 C1442 1.367 . S
C1443 H1445 0.930 . S
H1444 C1437 0.930 . S
H1445 C1443 0.930 . S
H1446 C1434 0.930 . S
H1447 C1435 0.930 . S
H1448 C1441 0.929 . S
H1449 C1463 0.930 . S
H1450 C1442 0.930 . S
H1451 C1469 0.930 . S
H1452 C1460 0.929 . S
H1453 C1467 0.930 . S
H1454 C1431 0.931 . S
H1455 C1461 0.930 . S
H1456 C1494 0.930 . S
H1457 C1438 0.930 . S
H1458 C1493 0.931 . S
N1459 Eu1428 2.657 . S
N1459 C1460 1.334 . S
N1459 C1464 1.362 . S
C1460 H1452 0.929 . S
C1460 N1459 1.334 . S
C1460 C1463 1.413 . S
C1461 H1455 0.930 . S
C1461 C1462 1.392 . S
C1461 C1463 1.367 . S
C1462 C1461 1.392 . S
C1462 C1464 1.420 . S
C1462 C1494 1.423 . S
C1463 H1449 0.930 . S
C1463 C1460 1.413 . S
C1463 C1461 1.367 . S
C1464 N1459 1.362 . S
C1464 C1462 1.420 . S
C1464 C1468 1.429 . S
H1465 C1470 0.930 . S
N1466 Eu1428 2.609 . S
N1466 C1468 1.377 . S
N1466 C1469 1.321 . S
C1467 H1453 0.930 . S
C1467 C1469 1.400 . S
C1467 C1470 1.386 . S
C1468 C1464 1.429 . S
C1468 N1466 1.377 . S
C1468 C1471 1.411 . S
C1469 H1451 0.930 . S
C1469 N1466 1.321 . S
C1469 C1467 1.400 . S
C1470 H1465 0.930 . S
C1470 C1467 1.386 . S
C1470 C1471 1.395 . S
C1471 C1468 1.411 . S
C1471 C1470 1.395 . S
C1471 C1493 1.420 . S
O1472 Eu1428 2.558 . S
O1472 C1492 1.257 . S
O1473 Eu1428 2.612 . S
O1473 Eu1439 2.380 . S
O1473 C1484 1.276 . S
O1474 Eu1439 2.432 . S
O1474 C1491 1.264 . S
O1475 Eu1428 2.339 . S
O1475 C1491 1.254 . S
O1476 Eu1428 2.563 . S
O1476 C1484 1.235 . S
O1477 Eu1428 2.419 . S
O1477 C1492 1.249 . S
O1478 Eu1439 2.558 . S
O1478 C1503 1.257 . S
O1479 Eu1428 2.380 . S
O1479 Eu1439 2.612 . S
O1479 C1495 1.276 . S
O1480 Eu1428 2.432 . S
O1480 C1502 1.264 . S
O1481 Eu1439 2.339 . S
O1481 C1502 1.254 . S
O1482 Eu1439 2.563 . S
O1482 C1495 1.235 . S
O1483 Eu1439 2.419 . S
O1483 C1503 1.249 . S
C1484 O1473 1.276 . S
C1484 O1476 1.235 . S
C1485 C1487 1.393 . S
C1485 C1489 1.395 . S
C1485 C1492 1.492 . S
C1486 C1487 1.392 . S
C1486 C1488 1.386 . S
C1487 C1485 1.393 . S
C1487 C1486 1.392 . S
C1487 H1504 0.930 . S
C1488 C1486 1.386 . S
C1488 C1490 1.395 . S
C1488 H1505 0.930 1_565 S
C1489 C1485 1.395 . S
C1489 C1490 1.379 . S
C1489 H1506 0.930 . S
C1490 C1488 1.395 . S
C1490 C1489 1.379 . S
C1490 H1507 0.930 . S
C1491 O1474 1.264 . S
C1491 O1475 1.254 . S
C1492 Eu1428 2.848 . S
C1492 O1472 1.257 . S
C1492 O1477 1.249 . S
C1492 C1485 1.492 . S
C1493 H1458 0.931 . S
C1493 C1471 1.420 . S
C1493 C1494 1.351 . S
C1494 H1456 0.930 . S
C1494 C1462 1.423 . S
C1494 C1493 1.351 . S
C1495 O1479 1.276 . S
C1495 O1482 1.235 . S
C1496 C1497 1.393 . S
C1496 C1500 1.395 . S
C1496 C1503 1.492 . S
C1497 C1496 1.393 . S
C1497 C1498 1.392 . S
C1497 H1508 0.930 . S
C1498 C1497 1.392 . S
C1498 C1499 1.386 . S
C1499 C1498 1.386 . S
C1499 C1501 1.395 . S
C1499 H1509 0.930 . S
C1500 C1496 1.395 . S
C1500 C1501 1.379 . S
C1500 H1510 0.930 . S
C1501 C1499 1.395 . S
C1501 C1500 1.379 . S
C1501 H1511 0.930 . S
C1502 O1480 1.264 . S
C1502 O1481 1.254 . S
C1503 Eu1439 2.848 . S
C1503 O1478 1.257 . S
C1503 O1483 1.249 . S
C1503 C1496 1.492 . S
H1504 C1487 0.930 . S
H1505 C1488 0.930 1_545 S
H1506 C1489 0.930 . S
H1507 C1490 0.930 . S
H1508 C1497 0.930 . S
H1509 C1499 0.930 . S
H1510 C1500 0.930 . S
H1511 C1501 0.930 . S
Eu1512 N1543 2.657 . S
Eu1512 N1550 2.609 . S
Eu1512 O1556 2.558 . S
Eu1512 O1557 2.612 . S
Eu1512 O1559 2.339 . S
Eu1512 O1560 2.563 . S
Eu1512 O1561 2.419 . S
Eu1512 O1563 2.380 . S
Eu1512 O1564 2.432 . S
Eu1512 C1576 2.848 . S
C1513 C1516 1.429 . S
C1513 C1517 1.411 . S
C1513 N1520 1.377 . S
C1514 C1516 1.420 . S
C1514 C1518 1.423 . S
C1514 C1526 1.392 . S
C1515 C1517 1.420 . S
C1515 C1518 1.351 . S
C1515 H1538 0.931 . S
C1516 C1513 1.429 . S
C1516 C1514 1.420 . S
C1516 N1524 1.362 . S
C1517 C1513 1.411 . S
C1517 C1515 1.420 . S
C1517 C1522 1.395 . S
C1518 C1514 1.423 . S
C1518 C1515 1.351 . S
C1518 H1530 0.930 . S
C1519 C1521 1.400 . S
C1519 C1522 1.386 . S
C1519 H1531 0.930 . S
N1520 C1513 1.377 . S
N1520 C1521 1.321 . S
N1520 Eu1523 2.609 . S
C1521 C1519 1.400 . S
C1521 N1520 1.321 . S
C1521 H1528 0.930 . S
C1522 C1517 1.395 . S
C1522 C1519 1.386 . S
C1522 H1541 0.930 . S
Eu1523 N1520 2.609 . S
Eu1523 N1524 2.657 . S
Eu1523 O1557 2.380 . S
Eu1523 O1558 2.432 . S
Eu1523 O1562 2.558 . S
Eu1523 O1563 2.612 . S
Eu1523 O1565 2.339 . S
Eu1523 O1566 2.563 . S
Eu1523 O1567 2.419 . S
Eu1523 C1587 2.848 . S
N1524 C1516 1.362 . S
N1524 Eu1523 2.657 . S
N1524 C1525 1.334 . S
C1525 N1524 1.334 . S
C1525 C1527 1.413 . S
C1525 H1532 0.929 . S
C1526 C1514 1.392 . S
C1526 C1527 1.367 . S
C1526 H1534 0.930 . S
C1527 C1525 1.413 . S
C1527 C1526 1.367 . S
C1527 H1529 0.930 . S
H1528 C1521 0.930 . S
H1529 C1527 0.930 . S
H1530 C1518 0.930 . S
H1531 C1519 0.930 . S
H1532 C1525 0.929 . S
H1533 C1547 0.930 . S
H1534 C1526 0.930 . S
H1535 C1553 0.930 . S
H1536 C1544 0.929 . S
H1537 C1551 0.930 . S
H1538 C1515 0.931 . S
H1539 C1545 0.930 . S
H1540 C1578 0.930 . S
H1541 C1522 0.930 . S
H1542 C1577 0.931 . S
N1543 Eu1512 2.657 . S
N1543 C1544 1.334 . S
N1543 C1548 1.362 . S
C1544 H1536 0.929 . S
C1544 N1543 1.334 . S
C1544 C1547 1.413 . S
C1545 H1539 0.930 . S
C1545 C1546 1.392 . S
C1545 C1547 1.367 . S
C1546 C1545 1.392 . S
C1546 C1548 1.420 . S
C1546 C1578 1.423 . S
C1547 H1533 0.930 . S
C1547 C1544 1.413 . S
C1547 C1545 1.367 . S
C1548 N1543 1.362 . S
C1548 C1546 1.420 . S
C1548 C1552 1.429 . S
H1549 C1554 0.930 . S
N1550 Eu1512 2.609 . S
N1550 C1552 1.377 . S
N1550 C1553 1.321 . S
C1551 H1537 0.930 . S
C1551 C1553 1.400 . S
C1551 C1554 1.386 . S
C1552 C1548 1.429 . S
C1552 N1550 1.377 . S
C1552 C1555 1.411 . S
C1553 H1535 0.930 . S
C1553 N1550 1.321 . S
C1553 C1551 1.400 . S
C1554 H1549 0.930 . S
C1554 C1551 1.386 . S
C1554 C1555 1.395 . S
C1555 C1552 1.411 . S
C1555 C1554 1.395 . S
C1555 C1577 1.420 . S
O1556 Eu1512 2.558 . S
O1556 C1576 1.257 . S
O1557 Eu1512 2.612 . S
O1557 Eu1523 2.380 . S
O1557 C1568 1.276 . S
O1558 Eu1523 2.432 . S
O1558 C1575 1.264 . S
O1559 Eu1512 2.339 . S
O1559 C1575 1.254 . S
O1560 Eu1512 2.563 . S
O1560 C1568 1.235 . S
O1561 Eu1512 2.419 . S
O1561 C1576 1.249 . S
O1562 Eu1523 2.558 . S
O1562 C1587 1.257 . S
O1563 Eu1512 2.380 . S
O1563 Eu1523 2.612 . S
O1563 C1579 1.276 . S
O1564 Eu1512 2.432 . S
O1564 C1586 1.264 . S
O1565 Eu1523 2.339 . S
O1565 C1586 1.254 . S
O1566 Eu1523 2.563 . S
O1566 C1579 1.235 . S
O1567 Eu1523 2.419 . S
O1567 C1587 1.249 . S
C1568 O1557 1.276 . S
C1568 O1560 1.235 . S
C1569 C1571 1.393 . S
C1569 C1573 1.395 . S
C1569 C1576 1.492 . S
C1570 C1571 1.392 . S
C1570 C1572 1.386 . S
C1571 C1569 1.393 . S
C1571 C1570 1.392 . S
C1571 H1588 0.930 . S
C1572 C1570 1.386 . S
C1572 C1574 1.395 . S
C1572 H1589 0.930 . S
C1573 C1569 1.395 . S
C1573 C1574 1.379 . S
C1573 H1590 0.930 . S
C1574 C1572 1.395 . S
C1574 C1573 1.379 . S
C1574 H1591 0.930 . S
C1575 O1558 1.264 . S
C1575 O1559 1.254 . S
C1576 Eu1512 2.848 . S
C1576 O1556 1.257 . S
C1576 O1561 1.249 . S
C1576 C1569 1.492 . S
C1577 H1542 0.931 . S
C1577 C1555 1.420 . S
C1577 C1578 1.351 . S
C1578 H1540 0.930 . S
C1578 C1546 1.423 . S
C1578 C1577 1.351 . S
C1579 O1563 1.276 . S
C1579 O1566 1.235 . S
C1580 C1581 1.393 . S
C1580 C1584 1.395 . S
C1580 C1587 1.492 . S
C1581 C1580 1.393 . S
C1581 C1582 1.392 . S
C1581 H1592 0.930 . S
C1582 C1581 1.392 . S
C1582 C1583 1.386 . S
C1583 C1582 1.386 . S
C1583 C1585 1.395 . S
C1583 H1593 0.930 . S
C1584 C1580 1.395 . S
C1584 C1585 1.379 . S
C1584 H1594 0.930 . S
C1585 C1583 1.395 . S
C1585 C1584 1.379 . S
C1585 H1595 0.930 . S
C1586 O1564 1.264 . S
C1586 O1565 1.254 . S
C1587 Eu1523 2.848 . S
C1587 O1562 1.257 . S
C1587 O1567 1.249 . S
C1587 C1580 1.492 . S
H1588 C1571 0.930 . S
H1589 C1572 0.930 . S
H1590 C1573 0.930 . S
H1591 C1574 0.930 . S
H1592 C1581 0.930 . S
H1593 C1583 0.930 . S
H1594 C1584 0.930 . S
H1595 C1585 0.930 . S
Eu1596 N1627 2.657 . S
Eu1596 N1634 2.609 1_554 S
Eu1596 O1640 2.558 1_554 S
Eu1596 O1641 2.612 . S
Eu1596 O1643 2.339 . S
Eu1596 O1644 2.563 . S
Eu1596 O1645 2.419 . S
Eu1596 O1647 2.380 . S
Eu1596 O1648 2.432 1_554 S
Eu1596 C1660 2.848 . S
C1597 C1600 1.432 . S
C1597 C1601 1.423 . S
C1597 N1604 1.362 1_655 S
C1598 C1600 1.420 . S
C1598 C1602 1.423 . S
C1598 C1610 1.392 . S
C1599 C1601 1.420 . S
C1599 C1602 1.351 . S
C1599 H1622 0.931 . S
C1600 C1597 1.432 . S
C1600 C1598 1.420 . S
C1600 N1608 1.362 1_655 S
C1601 C1597 1.423 . S
C1601 C1599 1.420 . S
C1601 C1606 1.395 . S
C1602 C1598 1.423 . S
C1602 C1599 1.351 . S
C1602 H1614 0.930 . S
C1603 C1605 1.400 . S
C1603 C1606 1.386 1_455 S
C1603 H1615 0.930 . S
N1604 C1597 1.362 1_455 S
N1604 C1605 1.321 . S
N1604 Eu1607 2.609 . S
C1605 C1603 1.400 . S
C1605 N1604 1.321 . S
C1605 H1612 0.930 . S
C1606 C1601 1.395 . S
C1606 C1603 1.386 1_655 S
C1606 H1625 0.930 . S
Eu1607 N1604 2.609 . S
Eu1607 N1608 2.657 . S
Eu1607 O1641 2.380 . S
Eu1607 O1642 2.432 . S
Eu1607 O1646 2.558 . S
Eu1607 O1647 2.612 . S
Eu1607 O1649 2.339 . S
Eu1607 O1650 2.563 . S
Eu1607 O1651 2.419 1_455 S
Eu1607 C1671 2.848 1_455 S
N1608 C1600 1.362 1_455 S
N1608 Eu1607 2.657 . S
N1608 C1609 1.334 1_455 S
C1609 N1608 1.334 1_655 S
C1609 C1611 1.413 . S
C1609 H1616 0.929 1_655 S
C1610 C1598 1.392 . S
C1610 C1611 1.367 . S
C1610 H1618 0.930 . S
C1611 C1609 1.413 . S
C1611 C1610 1.367 . S
C1611 H1613 0.930 1_554 S
H1612 C1605 0.930 . S
H1613 C1611 0.930 1_556 S
H1614 C1602 0.930 . S
H1615 C1603 0.930 . S
H1616 C1609 0.929 1_455 S
H1617 C1631 0.930 . S
H1618 C1610 0.930 . S
H1619 C1637 0.930 . S
H1620 C1628 0.929 . S
H1621 C1635 0.930 . S
H1622 C1599 0.931 . S
H1623 C1629 0.930 . S
H1624 C1662 0.930 . S
H1625 C1606 0.930 . S
H1626 C1661 0.931 1_556 S
N1627 Eu1596 2.657 . S
N1627 C1628 1.334 . S
N1627 C1632 1.362 . S
C1628 H1620 0.929 . S
C1628 N1627 1.334 . S
C1628 C1631 1.413 . S
C1629 H1623 0.930 . S
C1629 C1630 1.392 . S
C1629 C1631 1.367 . S
C1630 C1629 1.392 . S
C1630 C1632 1.420 . S
C1630 C1662 1.423 . S
C1631 H1617 0.930 . S
C1631 C1628 1.413 . S
C1631 C1629 1.367 . S
C1632 N1627 1.362 . S
C1632 C1630 1.420 . S
C1632 C1636 1.429 . S
H1633 C1638 0.930 . S
N1634 Eu1596 2.609 1_556 S
N1634 C1636 1.377 1_556 S
N1634 C1637 1.321 . S
C1635 H1621 0.930 . S
C1635 C1637 1.400 . S
C1635 C1638 1.386 . S
C1636 C1632 1.429 . S
C1636 N1634 1.377 1_554 S
C1636 C1639 1.411 1_554 S
C1637 H1619 0.930 . S
C1637 N1634 1.321 . S
C1637 C1635 1.400 . S
C1638 H1633 0.930 . S
C1638 C1635 1.386 . S
C1638 C1639 1.395 . S
C1639 C1636 1.411 1_556 S
C1639 C1638 1.395 . S
C1639 C1661 1.420 1_556 S
O1640 Eu1596 2.558 1_556 S
O1640 C1660 1.257 1_556 S
O1641 Eu1596 2.612 . S
O1641 Eu1607 2.380 . S
O1641 C1652 1.276 . S
O1642 Eu1607 2.432 . S
O1642 C1659 1.264 . S
O1643 Eu1596 2.339 . S
O1643 C1659 1.254 . S
O1644 Eu1596 2.563 . S
O1644 C1652 1.235 . S
O1645 Eu1596 2.419 . S
O1645 C1660 1.249 . S
O1646 Eu1607 2.558 . S
O1646 C1671 1.257 1_455 S
O1647 Eu1596 2.380 . S
O1647 Eu1607 2.612 . S
O1647 C1663 1.276 . S
O1648 Eu1596 2.432 1_556 S
O1648 C1670 1.264 . S
O1649 Eu1607 2.339 . S
O1649 C1670 1.254 1_554 S
O1650 Eu1607 2.563 . S
O1650 C1663 1.235 . S
O1651 Eu1607 2.419 1_655 S
O1651 C1671 1.249 . S
C1652 O1641 1.276 . S
C1652 O1644 1.235 . S
C1653 C1655 1.393 . S
C1653 C1657 1.395 1_554 S
C1653 C1660 1.492 . S
C1654 C1655 1.392 . S
C1654 C1656 1.386 1_554 S
C1655 C1653 1.393 . S
C1655 C1654 1.392 . S
C1655 H1672 0.930 . S
C1656 C1654 1.386 1_556 S
C1656 C1658 1.395 . S
C1656 H1673 0.930 . S
C1657 C1653 1.395 1_556 S
C1657 C1658 1.379 . S
C1657 H1674 0.930 . S
C1658 C1656 1.395 . S
C1658 C1657 1.379 . S
C1658 H1675 0.930 . S
C1659 O1642 1.264 . S
C1659 O1643 1.254 . S
C1660 Eu1596 2.848 . S
C1660 O1640 1.257 1_554 S
C1660 O1645 1.249 . S
C1660 C1653 1.492 . S
C1661 H1626 0.931 1_554 S
C1661 C1639 1.420 1_554 S
C1661 C1662 1.351 . S
C1662 H1624 0.930 . S
C1662 C1630 1.423 . S
C1662 C1661 1.351 . S
C1663 O1647 1.276 . S
C1663 O1650 1.235 . S
C1664 C1665 1.393 . S
C1664 C1668 1.395 . S
C1664 C1671 1.492 . S
C1665 C1664 1.393 . S
C1665 C1666 1.392 . S
C1665 H1676 0.930 . S
C1666 C1665 1.392 . S
C1666 C1667 1.386 . S
C1667 C1666 1.386 . S
C1667 C1669 1.395 . S
C1667 H1677 0.930 . S
C1668 C1664 1.395 . S
C1668 C1669 1.379 . S
C1668 H1678 0.930 . S
C1669 C1667 1.395 . S
C1669 C1668 1.379 . S
C1669 H1679 0.930 . S
C1670 O1648 1.264 . S
C1670 O1649 1.254 1_556 S
C1671 Eu1607 2.848 1_655 S
C1671 O1646 1.257 1_655 S
C1671 O1651 1.249 . S
C1671 C1664 1.492 . S
H1672 C1655 0.930 . S
H1673 C1656 0.930 . S
H1674 C1657 0.930 . S
H1675 C1658 0.930 . S
H1676 C1665 0.930 . S
H1677 C1667 0.930 . S
H1678 C1668 0.930 . S
H1679 C1669 0.930 . S
C1680 C1681 1.369 . S
C1680 C1682 1.419 . S
C1680 H1684 0.930 . S
C1681 C1680 1.369 . S
C1681 C1690 1.429 1_556 S
C1682 C1680 1.419 . S
C1682 C1683 1.363 1_556 S
C1682 H1685 0.929 . S
C1683 C1682 1.363 1_554 S
C1683 C1689 1.428 . S
H1684 C1680 0.930 . S
H1685 C1682 0.929 . S
S1686 N1687 1.613 . S
S1686 N1688 1.610 . S
N1687 S1686 1.613 . S
N1687 C1690 1.350 . S
N1688 S1686 1.610 . S
N1688 C1689 1.351 . S
C1689 C1683 1.428 . S
C1689 N1688 1.351 . S
C1689 C1690 1.434 . S
C1690 C1681 1.429 1_554 S
C1690 N1687 1.350 . S
C1690 C1689 1.434 . S
C1691 C1692 1.369 . S
C1691 C1693 1.419 . S
C1691 H1695 0.930 . S
C1692 C1691 1.369 . S
C1692 C1701 1.429 . S
C1693 C1691 1.419 . S
C1693 C1694 1.363 . S
C1693 H1696 0.929 . S
C1694 C1693 1.363 . S
C1694 C1700 1.428 . S
H1695 C1691 0.930 . S
H1696 C1693 0.929 . S
S1697 N1698 1.613 . S
S1697 N1699 1.610 . S
N1698 S1697 1.613 . S
N1698 C1701 1.350 . S
N1699 S1697 1.610 . S
N1699 C1700 1.351 . S
C1700 C1694 1.428 . S
C1700 N1699 1.351 . S
C1700 C1701 1.434 . S
C1701 C1692 1.429 . S
C1701 N1698 1.350 . S
C1701 C1700 1.434 . S
C1702 C1703 1.369 . S
C1702 C1704 1.419 . S
C1702 H1706 0.930 . S
C1703 C1702 1.369 . S
C1703 C1712 1.429 . S
C1704 C1702 1.419 . S
C1704 C1705 1.363 . S
C1704 H1707 0.929 . S
C1705 C1704 1.363 . S
C1705 C1711 1.428 . S
H1706 C1702 0.930 . S
H1707 C1704 0.929 . S
S1708 N1709 1.613 . S
S1708 N1710 1.610 . S
N1709 S1708 1.613 . S
N1709 C1712 1.350 . S
N1710 S1708 1.610 . S
N1710 C1711 1.351 . S
C1711 C1705 1.428 . S
C1711 N1710 1.351 . S
C1711 C1712 1.434 . S
C1712 C1703 1.429 . S
C1712 N1709 1.350 . S
C1712 C1711 1.434 . S
C1713 C1714 1.369 . S
C1713 C1715 1.419 . S
C1713 H1717 0.930 . S
C1714 C1713 1.369 . S
C1714 C1723 1.429 . S
C1715 C1713 1.419 . S
C1715 C1716 1.363 . S
C1715 H1718 0.929 . S
C1716 C1715 1.363 . S
C1716 C1722 1.428 . S
H1717 C1713 0.930 . S
H1718 C1715 0.929 . S
S1719 N1720 1.613 . S
S1719 N1721 1.610 . S
N1720 S1719 1.613 . S
N1720 C1723 1.350 . S
N1721 S1719 1.610 . S
N1721 C1722 1.351 . S
C1722 C1716 1.428 . S
C1722 N1721 1.351 . S
C1722 C1723 1.434 . S
C1723 C1714 1.429 . S
C1723 N1720 1.350 . S
C1723 C1722 1.434 . S
C1724 C1725 1.369 . S
C1724 C1726 1.419 . S
C1724 H1728 0.930 . S
C1725 C1724 1.369 . S
C1725 C1734 1.429 . S
C1726 C1724 1.419 . S
C1726 C1727 1.363 . S
C1726 H1729 0.929 . S
C1727 C1726 1.363 . S
C1727 C1733 1.428 . S
H1728 C1724 0.930 . S
H1729 C1726 0.929 . S
S1730 N1731 1.613 . S
S1730 N1732 1.610 1_655 S
N1731 S1730 1.613 . S
N1731 C1734 1.350 1_655 S
N1732 S1730 1.610 1_455 S
N1732 C1733 1.351 . S
C1733 C1727 1.428 . S
C1733 N1732 1.351 . S
C1733 C1734 1.434 . S
C1734 C1725 1.429 . S
C1734 N1731 1.350 1_455 S
C1734 C1733 1.434 . S
C1735 C1736 1.369 . S
C1735 C1737 1.419 . S
C1735 H1739 0.930 . S
C1736 C1735 1.369 . S
C1736 C1745 1.429 . S
C1737 C1735 1.419 . S
C1737 C1738 1.363 . S
C1737 H1740 0.929 . S
C1738 C1737 1.363 . S
C1738 C1744 1.428 . S
H1739 C1735 0.930 . S
H1740 C1737 0.929 . S
S1741 N1742 1.613 . S
S1741 N1743 1.610 . S
N1742 S1741 1.613 . S
N1742 C1745 1.350 . S
N1743 S1741 1.610 . S
N1743 C1744 1.351 . S
C1744 C1738 1.428 . S
C1744 N1743 1.351 . S
C1744 C1745 1.434 . S
C1745 C1736 1.429 . S
C1745 N1742 1.350 . S
C1745 C1744 1.434 . S
C1746 C1747 1.369 . S
C1746 C1748 1.419 . S
C1746 H1750 0.930 . S
C1747 C1746 1.369 . S
C1747 C1756 1.429 . S
C1748 C1746 1.419 . S
C1748 C1749 1.363 . S
C1748 H1751 0.929 . S
C1749 C1748 1.363 . S
C1749 C1755 1.428 . S
H1750 C1746 0.930 . S
H1751 C1748 0.929 . S
S1752 N1753 1.613 . S
S1752 N1754 1.610 . S
N1753 S1752 1.613 . S
N1753 C1756 1.350 . S
N1754 S1752 1.610 . S
N1754 C1755 1.351 . S
C1755 C1749 1.428 . S
C1755 N1754 1.351 . S
C1755 C1756 1.434 . S
C1756 C1747 1.429 . S
C1756 N1753 1.350 . S
C1756 C1755 1.434 . S
C1757 C1758 1.369 . S
C1757 C1759 1.419 . S
C1757 H1761 0.930 . S
C1758 C1757 1.369 . S
C1758 C1767 1.429 . S
C1759 C1757 1.419 . S
C1759 C1760 1.363 . S
C1759 H1762 0.929 . S
C1760 C1759 1.363 . S
C1760 C1766 1.428 . S
H1761 C1757 0.930 . S
H1762 C1759 0.929 . S
S1763 N1764 1.613 . S
S1763 N1765 1.610 . S
N1764 S1763 1.613 . S
N1764 C1767 1.350 . S
N1765 S1763 1.610 . S
N1765 C1766 1.351 . S
C1766 C1760 1.428 . S
C1766 N1765 1.351 . S
C1766 C1767 1.434 . S
C1767 C1758 1.429 . S
C1767 N1764 1.350 . S
C1767 C1766 1.434 . S
C1768 C1769 1.363 1_455 S
C1768 C1770 1.419 . S
C1768 H1772 0.930 . S
C1769 C1768 1.363 1_655 S
C1769 C1778 1.430 . S
C1770 C1768 1.419 . S
C1770 C1771 1.363 . S
C1770 H1773 0.929 . S
C1771 C1770 1.363 . S
C1771 C1777 1.428 . S
H1772 C1768 0.930 . S
H1773 C1770 0.929 . S
S1774 N1775 1.613 . S
S1774 N1776 1.610 1_655 S
N1775 S1774 1.613 . S
N1775 C1778 1.350 . S
N1776 S1774 1.610 1_455 S
N1776 C1777 1.351 . S
C1777 C1771 1.428 . S
C1777 N1776 1.351 . S
C1777 C1778 1.434 1_455 S
C1778 C1769 1.430 . S
C1778 N1775 1.350 . S
C1778 C1777 1.434 1_655 S
C1779 C1780 1.369 . S
C1779 C1781 1.419 . S
C1779 H1783 0.930 . S
C1780 C1779 1.369 . S
C1780 C1789 1.429 . S
C1781 C1779 1.419 . S
C1781 C1782 1.363 . S
C1781 H1784 0.929 . S
C1782 C1781 1.363 . S
C1782 C1788 1.428 . S
H1783 C1779 0.930 . S
H1784 C1781 0.929 . S
S1785 N1786 1.613 . S
S1785 N1787 1.610 . S
N1786 S1785 1.613 . S
N1786 C1789 1.350 . S
N1787 S1785 1.610 . S
N1787 C1788 1.351 . S
C1788 C1782 1.428 . S
C1788 N1787 1.351 . S
C1788 C1789 1.434 . S
C1789 C1780 1.429 . S
C1789 N1786 1.350 . S
C1789 C1788 1.434 . S
C1790 C1791 1.369 . S
C1790 C1792 1.419 . S
C1790 H1794 0.930 . S
C1791 C1790 1.369 . S
C1791 C1800 1.429 . S
C1792 C1790 1.419 . S
C1792 C1793 1.363 . S
C1792 H1795 0.929 . S
C1793 C1792 1.363 . S
C1793 C1799 1.428 . S
H1794 C1790 0.930 . S
H1795 C1792 0.929 . S
S1796 N1797 1.613 . S
S1796 N1798 1.610 . S
N1797 S1796 1.613 . S
N1797 C1800 1.350 . S
N1798 S1796 1.610 . S
N1798 C1799 1.351 . S
C1799 C1793 1.428 . S
C1799 N1798 1.351 . S
C1799 C1800 1.434 . S
C1800 C1791 1.429 . S
C1800 N1797 1.350 . S
C1800 C1799 1.434 . S
C1801 C1802 1.369 . S
C1801 C1803 1.419 . S
C1801 H1805 0.930 . S
C1802 C1801 1.369 . S
C1802 C1811 1.429 . S
C1803 C1801 1.419 . S
C1803 C1804 1.363 . S
C1803 H1806 0.929 . S
C1804 C1803 1.363 . S
C1804 C1810 1.428 . S
H1805 C1801 0.930 . S
H1806 C1803 0.929 . S
S1807 N1808 1.613 . S
S1807 N1809 1.610 . S
N1808 S1807 1.613 . S
N1808 C1811 1.350 . S
N1809 S1807 1.610 . S
N1809 C1810 1.351 . S
C1810 C1804 1.428 . S
C1810 N1809 1.351 . S
C1810 C1811 1.434 . S
C1811 C1802 1.429 . S
C1811 N1808 1.350 . S
C1811 C1810 1.434 . S
C1812 C1813 1.369 . S
C1812 C1814 1.419 . S
C1812 H1816 0.930 1_455 S
C1813 C1812 1.369 . S
C1813 C1822 1.429 . S
C1814 C1812 1.419 . S
C1814 C1815 1.363 . S
C1814 H1817 0.929 . S
C1815 C1814 1.363 . S
C1815 C1821 1.428 . S
H1816 C1812 0.930 1_655 S
H1817 C1814 0.929 . S
S1818 N1819 1.613 . S
S1818 N1820 1.610 . S
N1819 S1818 1.613 . S
N1819 C1822 1.350 . S
N1820 S1818 1.610 . S
N1820 C1821 1.351 . S
C1821 C1815 1.428 . S
C1821 N1820 1.351 . S
C1821 C1822 1.434 . S
C1822 C1813 1.429 . S
C1822 N1819 1.350 . S
C1822 C1821 1.434 . S
C1823 C1824 1.369 . S
C1823 C1825 1.419 . S
C1823 H1827 0.930 . S
C1824 C1823 1.369 . S
C1824 C1833 1.429 . S
C1825 C1823 1.419 . S
C1825 C1826 1.363 . S
C1825 H1828 0.929 . S
C1826 C1825 1.363 . S
C1826 C1832 1.428 . S
H1827 C1823 0.930 . S
H1828 C1825 0.929 . S
S1829 N1830 1.613 . S
S1829 N1831 1.610 . S
N1830 S1829 1.613 . S
N1830 C1833 1.350 . S
N1831 S1829 1.610 . S
N1831 C1832 1.351 . S
C1832 C1826 1.428 . S
C1832 N1831 1.351 . S
C1832 C1833 1.434 . S
C1833 C1824 1.429 . S
C1833 N1830 1.350 . S
C1833 C1832 1.434 . S
C1834 C1835 1.369 . S
C1834 C1836 1.419 . S
C1834 H1838 0.930 . S
C1835 C1834 1.369 . S
C1835 C1844 1.429 . S
C1836 C1834 1.419 . S
C1836 C1837 1.363 . S
C1836 H1839 0.929 . S
C1837 C1836 1.363 . S
C1837 C1843 1.428 . S
H1838 C1834 0.930 . S
H1839 C1836 0.929 . S
S1840 N1841 1.613 . S
S1840 N1842 1.610 . S
N1841 S1840 1.613 . S
N1841 C1844 1.350 . S
N1842 S1840 1.610 . S
N1842 C1843 1.351 . S
C1843 C1837 1.428 . S
C1843 N1842 1.351 . S
C1843 C1844 1.434 . S
C1844 C1835 1.429 . S
C1844 N1841 1.350 . S
C1844 C1843 1.434 . S
C1845 C1846 1.369 . S
C1845 C1847 1.419 . S
C1845 H1849 0.930 . S
C1846 C1845 1.369 . S
C1846 C1855 1.429 . S
C1847 C1845 1.419 . S
C1847 C1848 1.363 . S
C1847 H1850 0.929 . S
C1848 C1847 1.363 . S
C1848 C1854 1.428 . S
H1849 C1845 0.930 . S
H1850 C1847 0.929 . S
S1851 N1852 1.613 . S
S1851 N1853 1.610 . S
N1852 S1851 1.613 . S
N1852 C1855 1.350 . S
N1853 S1851 1.610 . S
N1853 C1854 1.351 . S
C1854 C1848 1.428 . S
C1854 N1853 1.351 . S
C1854 C1855 1.434 . S
C1855 C1846 1.429 . S
C1855 N1852 1.350 . S
C1855 C1854 1.434 . S
C1856 C1857 1.369 1_545 S
C1856 C1858 1.419 . S
C1856 H1860 0.930 . S
C1857 C1856 1.369 1_565 S
C1857 C1866 1.429 . S
C1858 C1856 1.419 . S
C1858 C1859 1.363 . S
C1858 H1861 0.929 . S
C1859 C1858 1.363 . S
C1859 C1865 1.428 1_545 S
H1860 C1856 0.930 . S
H1861 C1858 0.929 . S
S1862 N1863 1.613 . S
S1862 N1864 1.610 . S
N1863 S1862 1.613 . S
N1863 C1866 1.350 . S
N1864 S1862 1.610 . S
N1864 C1865 1.351 . S
C1865 C1859 1.428 1_565 S
C1865 N1864 1.351 . S
C1865 C1866 1.434 . S
C1866 C1857 1.429 . S
C1866 N1863 1.350 . S
C1866 C1865 1.434 . S
C1867 C1868 1.369 . S
C1867 C1869 1.419 . S
C1867 H1871 0.930 . S
C1868 C1867 1.369 . S
C1868 C1877 1.429 1_554 S
C1869 C1867 1.419 . S
C1869 C1870 1.363 . S
C1869 H1872 0.929 . S
C1870 C1869 1.363 . S
C1870 C1876 1.428 1_554 S
H1871 C1867 0.930 . S
H1872 C1869 0.929 . S
S1873 N1874 1.613 . S
S1873 N1875 1.610 . S
N1874 S1873 1.613 . S
N1874 C1877 1.350 . S
N1875 S1873 1.610 . S
N1875 C1876 1.351 . S
C1876 C1870 1.428 1_556 S
C1876 N1875 1.351 . S
C1876 C1877 1.434 . S
C1877 C1868 1.429 1_556 S
C1877 N1874 1.350 . S
C1877 C1876 1.434 . S
C1878 C1879 1.369 . S
C1878 C1880 1.419 . S
C1878 H1882 0.930 . S
C1879 C1878 1.369 . S
C1879 C1888 1.429 . S
C1880 C1878 1.419 . S
C1880 C1881 1.363 . S
C1880 H1883 0.929 . S
C1881 C1880 1.363 . S
C1881 C1887 1.428 . S
H1882 C1878 0.930 . S
H1883 C1880 0.929 . S
S1884 N1885 1.613 . S
S1884 N1886 1.610 . S
N1885 S1884 1.613 . S
N1885 C1888 1.350 . S
N1886 S1884 1.610 . S
N1886 C1887 1.351 . S
C1887 C1881 1.428 . S
C1887 N1886 1.351 . S
C1887 C1888 1.434 . S
C1888 C1879 1.429 . S
C1888 N1885 1.350 . S
C1888 C1887 1.434 . S
C1889 C1890 1.369 . S
C1889 C1891 1.419 . S
C1889 H1893 0.930 . S
C1890 C1889 1.369 . S
C1890 C1899 1.429 . S
C1891 C1889 1.419 . S
C1891 C1892 1.363 1_655 S
C1891 H1894 0.929 . S
C1892 C1891 1.363 1_455 S
C1892 C1898 1.428 . S
H1893 C1889 0.930 . S
H1894 C1891 0.929 . S
S1895 N1896 1.613 1_455 S
S1895 N1897 1.610 . S
N1896 S1895 1.613 1_655 S
N1896 C1899 1.350 . S
N1897 S1895 1.610 . S
N1897 C1898 1.351 . S
C1898 C1892 1.428 . S
C1898 N1897 1.351 . S
C1898 C1899 1.434 1_455 S
C1899 C1890 1.429 . S
C1899 N1896 1.350 . S
C1899 C1898 1.434 1_655 S
C1900 C1901 1.369 . S
C1900 C1902 1.419 . S
C1900 H1904 0.930 . S
C1901 C1900 1.369 . S
C1901 C1910 1.429 . S
C1902 C1900 1.419 . S
C1902 C1903 1.363 . S
C1902 H1905 0.929 . S
C1903 C1902 1.363 . S
C1903 C1909 1.428 . S
H1904 C1900 0.930 . S
H1905 C1902 0.929 . S
S1906 N1907 1.613 . S
S1906 N1908 1.610 . S
N1907 S1906 1.613 . S
N1907 C1910 1.350 . S
N1908 S1906 1.610 . S
N1908 C1909 1.351 . S
C1909 C1903 1.428 . S
C1909 N1908 1.351 . S
C1909 C1910 1.434 . S
C1910 C1901 1.429 . S
C1910 N1907 1.350 . S
C1910 C1909 1.434 . S
C1911 C1912 1.369 . S
C1911 C1913 1.419 . S
C1911 H1915 0.930 . S
C1912 C1911 1.369 . S
C1912 C1921 1.429 . S
C1913 C1911 1.419 . S
C1913 C1914 1.363 . S
C1913 H1916 0.929 . S
C1914 C1913 1.363 . S
C1914 C1920 1.428 . S
H1915 C1911 0.930 . S
H1916 C1913 0.929 . S
S1917 N1918 1.613 . S
S1917 N1919 1.610 . S
N1918 S1917 1.613 . S
N1918 C1921 1.350 . S
N1919 S1917 1.610 . S
N1919 C1920 1.351 . S
C1920 C1914 1.428 . S
C1920 N1919 1.351 . S
C1920 C1921 1.434 . S
C1921 C1912 1.429 . S
C1921 N1918 1.350 . S
C1921 C1920 1.434 . S
C1922 C1923 1.369 . S
C1922 C1924 1.419 . S
C1922 H1926 0.930 . S
C1923 C1922 1.369 . S
C1923 C1932 1.429 . S
C1924 C1922 1.419 . S
C1924 C1925 1.363 . S
C1924 H1927 0.929 . S
C1925 C1924 1.363 . S
C1925 C1931 1.428 . S
H1926 C1922 0.930 . S
H1927 C1924 0.929 . S
S1928 N1929 1.613 . S
S1928 N1930 1.610 . S
N1929 S1928 1.613 . S
N1929 C1932 1.350 . S
N1930 S1928 1.610 . S
N1930 C1931 1.351 . S
C1931 C1925 1.428 . S
C1931 N1930 1.351 . S
C1931 C1932 1.434 . S
C1932 C1923 1.429 . S
C1932 N1929 1.350 . S
C1932 C1931 1.434 . S
C1933 C1934 1.369 . S
C1933 C1935 1.419 . S
C1933 H1937 0.930 . S
C1934 C1933 1.369 . S
C1934 C1943 1.429 . S
C1935 C1933 1.419 . S
C1935 C1936 1.363 . S
C1935 H1938 0.929 . S
C1936 C1935 1.363 . S
C1936 C1942 1.428 . S
H1937 C1933 0.930 . S
H1938 C1935 0.929 . S
S1939 N1940 1.613 . S
S1939 N1941 1.610 . S
N1940 S1939 1.613 . S
N1940 C1943 1.350 . S
N1941 S1939 1.610 . S
N1941 C1942 1.351 . S
C1942 C1936 1.428 . S
C1942 N1941 1.351 . S
C1942 C1943 1.434 . S
C1943 C1934 1.429 . S
C1943 N1940 1.350 . S
C1943 C1942 1.434 . S
C1944 C1945 1.369 . S
C1944 C1946 1.419 . S
C1944 H1948 0.930 . S
C1945 C1944 1.369 . S
C1945 C1954 1.429 . S
C1946 C1944 1.419 . S
C1946 C1947 1.363 . S
C1946 H1949 0.929 . S
C1947 C1946 1.363 . S
C1947 C1953 1.428 . S
H1948 C1944 0.930 . S
H1949 C1946 0.929 . S
S1950 N1951 1.613 . S
S1950 N1952 1.610 . S
N1951 S1950 1.613 . S
N1951 C1954 1.350 . S
N1952 S1950 1.610 . S
N1952 C1953 1.351 . S
C1953 C1947 1.428 . S
C1953 N1952 1.351 . S
C1953 C1954 1.434 . S
C1954 C1945 1.429 . S
C1954 N1951 1.350 . S
C1954 C1953 1.434 . S
C1955 C1956 1.369 . S
C1955 C1957 1.419 . S
C1955 H1959 0.930 . S
C1956 C1955 1.369 . S
C1956 C1965 1.429 . S
C1957 C1955 1.419 . S
C1957 C1958 1.363 . S
C1957 H1960 0.929 . S
C1958 C1957 1.363 . S
C1958 C1964 1.428 . S
H1959 C1955 0.930 . S
H1960 C1957 0.929 . S
S1961 N1962 1.613 . S
S1961 N1963 1.610 . S
N1962 S1961 1.613 . S
N1962 C1965 1.350 . S
N1963 S1961 1.610 . S
N1963 C1964 1.351 . S
C1964 C1958 1.428 . S
C1964 N1963 1.351 . S
C1964 C1965 1.434 . S
C1965 C1956 1.429 . S
C1965 N1962 1.350 . S
C1965 C1964 1.434 . S
C1966 C1967 1.369 . S
C1966 C1968 1.419 . S
C1966 H1970 0.930 . S
C1967 C1966 1.369 . S
C1967 C1976 1.429 . S
C1968 C1966 1.419 . S
C1968 C1969 1.363 . S
C1968 H1971 0.929 . S
C1969 C1968 1.363 . S
C1969 C1975 1.428 . S
H1970 C1966 0.930 . S
H1971 C1968 0.929 . S
S1972 N1973 1.613 . S
S1972 N1974 1.610 . S
N1973 S1972 1.613 . S
N1973 C1976 1.350 . S
N1974 S1972 1.610 . S
N1974 C1975 1.351 . S
C1975 C1969 1.428 . S
C1975 N1974 1.351 . S
C1975 C1976 1.434 . S
C1976 C1967 1.429 . S
C1976 N1973 1.350 . S
C1976 C1975 1.434 . S
C1977 C1978 1.369 . S
C1977 C1979 1.419 . S
C1977 H1981 0.930 . S
C1978 C1977 1.369 . S
C1978 C1987 1.429 . S
C1979 C1977 1.419 . S
C1979 C1980 1.363 . S
C1979 H1982 0.929 . S
C1980 C1979 1.363 . S
C1980 C1986 1.428 . S
H1981 C1977 0.930 . S
H1982 C1979 0.929 . S
S1983 N1984 1.613 . S
S1983 N1985 1.610 . S
N1984 S1983 1.613 . S
N1984 C1987 1.350 . S
N1985 S1983 1.610 . S
N1985 C1986 1.351 . S
C1986 C1980 1.428 . S
C1986 N1985 1.351 . S
C1986 C1987 1.434 . S
C1987 C1978 1.429 . S
C1987 N1984 1.350 . S
C1987 C1986 1.434 . S
C1988 C1989 1.369 . S
C1988 C1990 1.419 . S
C1988 H1992 0.930 . S
C1989 C1988 1.369 . S
C1989 C1998 1.429 . S
C1990 C1988 1.419 . S
C1990 C1991 1.363 . S
C1990 H1993 0.929 . S
C1991 C1990 1.363 . S
C1991 C1997 1.428 . S
H1992 C1988 0.930 . S
H1993 C1990 0.929 . S
S1994 N1995 1.613 . S
S1994 N1996 1.610 . S
N1995 S1994 1.613 . S
N1995 C1998 1.350 . S
N1996 S1994 1.610 . S
N1996 C1997 1.351 . S
C1997 C1991 1.428 . S
C1997 N1996 1.351 . S
C1997 C1998 1.434 . S
C1998 C1989 1.429 . S
C1998 N1995 1.350 . S
C1998 C1997 1.434 . S
C1999 C2000 1.369 . S
C1999 C2001 1.419 . S
C1999 H2003 0.930 . S
C2000 C1999 1.369 . S
C2000 C2009 1.429 . S
C2001 C1999 1.419 . S
C2001 C2002 1.363 . S
C2001 H2004 0.929 . S
C2002 C2001 1.363 . S
C2002 C2008 1.428 . S
H2003 C1999 0.930 . S
H2004 C2001 0.929 . S
S2005 N2006 1.613 . S
S2005 N2007 1.610 . S
N2006 S2005 1.613 . S
N2006 C2009 1.350 . S
N2007 S2005 1.610 . S
N2007 C2008 1.351 . S
C2008 C2002 1.428 . S
C2008 N2007 1.351 . S
C2008 C2009 1.434 . S
C2009 C2000 1.429 . S
C2009 N2006 1.350 . S
C2009 C2008 1.434 . S
C2010 C2011 1.369 . S
C2010 C2012 1.419 . S
C2010 H2014 0.930 . S
C2011 C2010 1.369 . S
C2011 C2020 1.429 . S
C2012 C2010 1.419 . S
C2012 C2013 1.363 . S
C2012 H2015 0.929 1_556 S
C2013 C2012 1.363 . S
C2013 C2019 1.428 . S
H2014 C2010 0.930 . S
H2015 C2012 0.929 1_554 S
S2016 N2017 1.613 1_545 S
S2016 N2018 1.610 . S
N2017 S2016 1.613 1_565 S
N2017 C2020 1.350 . S
N2018 S2016 1.610 . S
N2018 C2019 1.351 1_545 S
C2019 C2013 1.428 . S
C2019 N2018 1.351 1_565 S
C2019 C2020 1.434 . S
C2020 C2011 1.429 . S
C2020 N2017 1.350 . S
C2020 C2019 1.434 . S
C2021 C2022 1.369 . S
C2021 C2023 1.419 . S
C2021 H2025 0.930 . S
C2022 C2021 1.369 . S
C2022 C2031 1.429 . S
C2023 C2021 1.419 . S
C2023 C2024 1.363 . S
C2023 H2026 0.929 . S
C2024 C2023 1.363 . S
C2024 C2030 1.428 . S
H2025 C2021 0.930 . S
H2026 C2023 0.929 . S
S2027 N2028 1.613 . S
S2027 N2029 1.610 . S
N2028 S2027 1.613 . S
N2028 C2031 1.350 . S
N2029 S2027 1.610 . S
N2029 C2030 1.351 . S
C2030 C2024 1.428 . S
C2030 N2029 1.351 . S
C2030 C2031 1.434 . S
C2031 C2022 1.429 . S
C2031 N2028 1.350 . S
C2031 C2030 1.434 . S
C2032 C2033 1.369 . S
C2032 C2034 1.419 . S
C2032 H2036 0.930 . S
C2033 C2032 1.369 . S
C2033 C2042 1.429 . S
C2034 C2032 1.419 . S
C2034 C2035 1.363 . S
C2034 H2037 0.930 1_545 S
C2035 C2034 1.363 . S
C2035 C2041 1.428 . S
H2036 C2032 0.930 . S
H2037 C2034 0.930 1_565 S
S2038 N2039 1.613 . S
S2038 N2040 1.610 . S
N2039 S2038 1.613 . S
N2039 C2042 1.350 . S
N2040 S2038 1.610 . S
N2040 C2041 1.351 . S
C2041 C2035 1.428 . S
C2041 N2040 1.351 . S
C2041 C2042 1.434 . S
C2042 C2033 1.429 . S
C2042 N2039 1.350 . S
C2042 C2041 1.434 . S
C2043 C2044 1.369 . S
C2043 C2045 1.419 . S
C2043 H2047 0.930 . S
C2044 C2043 1.369 . S
C2044 C2053 1.429 . S
C2045 C2043 1.419 . S
C2045 C2046 1.363 . S
C2045 H2048 0.929 . S
C2046 C2045 1.363 . S
C2046 C2052 1.428 . S
H2047 C2043 0.930 . S
H2048 C2045 0.929 . S
S2049 N2050 1.613 . S
S2049 N2051 1.610 . S
N2050 S2049 1.613 . S
N2050 C2053 1.350 . S
N2051 S2049 1.610 . S
N2051 C2052 1.351 . S
C2052 C2046 1.428 . S
C2052 N2051 1.351 . S
C2052 C2053 1.434 . S
C2053 C2044 1.429 . S
C2053 N2050 1.350 . S
C2053 C2052 1.434 . S
C2054 C2055 1.369 . S
C2054 C2056 1.419 . S
C2054 H2058 0.930 1_545 S
C2055 C2054 1.369 . S
C2055 C2064 1.429 . S
C2056 C2054 1.419 . S
C2056 C2057 1.363 . S
C2056 H2059 0.929 . S
C2057 C2056 1.363 . S
C2057 C2063 1.428 . S
H2058 C2054 0.930 1_565 S
H2059 C2056 0.929 . S
S2060 N2061 1.613 . S
S2060 N2062 1.610 . S
N2061 S2060 1.613 . S
N2061 C2064 1.350 . S
N2062 S2060 1.610 . S
N2062 C2063 1.351 . S
C2063 C2057 1.428 . S
C2063 N2062 1.351 . S
C2063 C2064 1.434 . S
C2064 C2055 1.429 . S
C2064 N2061 1.350 . S
C2064 C2063 1.434 . S
C2065 C2066 1.369 . S
C2065 C2067 1.419 . S
C2065 H2069 0.930 . S
C2066 C2065 1.369 . S
C2066 C2075 1.429 . S
C2067 C2065 1.419 . S
C2067 C2068 1.363 . S
C2067 H2070 0.929 . S
C2068 C2067 1.363 . S
C2068 C2074 1.428 . S
H2069 C2065 0.930 . S
H2070 C2067 0.929 . S
S2071 N2072 1.613 . S
S2071 N2073 1.610 . S
N2072 S2071 1.613 . S
N2072 C2075 1.350 . S
N2073 S2071 1.610 . S
N2073 C2074 1.351 . S
C2074 C2068 1.428 . S
C2074 N2073 1.351 . S
C2074 C2075 1.434 . S
C2075 C2066 1.429 . S
C2075 N2072 1.350 . S
C2075 C2074 1.434 . S
C2076 C2077 1.369 . S
C2076 C2078 1.419 . S
C2076 H2080 0.930 . S
C2077 C2076 1.369 . S
C2077 C2086 1.429 1_545 S
C2078 C2076 1.419 . S
C2078 C2079 1.363 . S
C2078 H2081 0.929 . S
C2079 C2078 1.363 . S
C2079 C2085 1.428 1_545 S
H2080 C2076 0.930 . S
H2081 C2078 0.929 . S
S2082 N2083 1.613 . S
S2082 N2084 1.610 . S
N2083 S2082 1.613 . S
N2083 C2086 1.350 . S
N2084 S2082 1.610 . S
N2084 C2085 1.351 . S
C2085 C2079 1.428 1_565 S
C2085 N2084 1.351 . S
C2085 C2086 1.434 . S
C2086 C2077 1.429 1_565 S
C2086 N2083 1.350 . S
C2086 C2085 1.434 . S
C2087 C2088 1.369 . S
C2087 C2089 1.419 . S
C2087 H2091 0.930 . S
C2088 C2087 1.369 . S
C2088 C2097 1.429 . S
C2089 C2087 1.419 . S
C2089 C2090 1.363 . S
C2089 H2092 0.929 . S
C2090 C2089 1.363 . S
C2090 C2096 1.428 . S
H2091 C2087 0.930 . S
H2092 C2089 0.929 . S
S2093 N2094 1.613 . S
S2093 N2095 1.610 . S
N2094 S2093 1.613 . S
N2094 C2097 1.350 . S
N2095 S2093 1.610 . S
N2095 C2096 1.351 . S
C2096 C2090 1.428 . S
C2096 N2095 1.351 . S
C2096 C2097 1.434 . S
C2097 C2088 1.429 . S
C2097 N2094 1.350 . S
C2097 C2096 1.434 . S
C2098 C2099 1.369 1_565 S
C2098 C2100 1.419 . S
C2098 H2102 0.930 . S
C2099 C2098 1.369 1_545 S
C2099 C2108 1.429 . S
C2100 C2098 1.419 . S
C2100 C2101 1.363 1_565 S
C2100 H2103 0.929 . S
C2101 C2100 1.363 1_545 S
C2101 C2107 1.428 . S
H2102 C2098 0.930 . S
H2103 C2100 0.929 . S
S2104 N2105 1.613 . S
S2104 N2106 1.610 . S
N2105 S2104 1.613 . S
N2105 C2108 1.350 . S
N2106 S2104 1.610 . S
N2106 C2107 1.351 . S
C2107 C2101 1.428 . S
C2107 N2106 1.351 . S
C2107 C2108 1.434 . S
C2108 C2099 1.429 . S
C2108 N2105 1.350 . S
C2108 C2107 1.434 . S
C2109 C2110 1.369 . S
C2109 C2111 1.419 . S
C2109 H2113 0.930 . S
C2110 C2109 1.369 . S
C2110 C2119 1.429 . S
C2111 C2109 1.419 . S
C2111 C2112 1.363 . S
C2111 H2114 0.929 . S
C2112 C2111 1.363 . S
C2112 C2118 1.428 . S
H2113 C2109 0.930 . S
H2114 C2111 0.929 . S
S2115 N2116 1.613 . S
S2115 N2117 1.610 . S
N2116 S2115 1.613 . S
N2116 C2119 1.350 . S
N2117 S2115 1.610 . S
N2117 C2118 1.351 . S
C2118 C2112 1.428 . S
C2118 N2117 1.351 . S
C2118 C2119 1.434 . S
C2119 C2110 1.429 . S
C2119 N2116 1.350 . S
C2119 C2118 1.434 . S
C2120 C2121 1.369 . S
C2120 C2122 1.419 . S
C2120 H2124 0.930 . S
C2121 C2120 1.369 . S
C2121 C2130 1.429 . S
C2122 C2120 1.419 . S
C2122 C2123 1.363 . S
C2122 H2125 0.929 . S
C2123 C2122 1.363 . S
C2123 C2129 1.428 . S
H2124 C2120 0.930 . S
H2125 C2122 0.929 . S
S2126 N2127 1.613 . S
S2126 N2128 1.610 . S
N2127 S2126 1.613 . S
N2127 C2130 1.350 1_556 S
N2128 S2126 1.610 . S
N2128 C2129 1.351 1_556 S
C2129 C2123 1.428 . S
C2129 N2128 1.351 1_554 S
C2129 C2130 1.434 . S
C2130 C2121 1.429 . S
C2130 N2127 1.350 1_554 S
C2130 C2129 1.434 . S
C2131 C2132 1.369 . S
C2131 C2133 1.419 . S
C2131 H2135 0.930 . S
C2132 C2131 1.369 . S
C2132 C2141 1.429 . S
C2133 C2131 1.419 . S
C2133 C2134 1.363 . S
C2133 H2136 0.929 . S
C2134 C2133 1.363 . S
C2134 C2140 1.428 . S
H2135 C2131 0.930 . S
H2136 C2133 0.929 . S
S2137 N2138 1.613 . S
S2137 N2139 1.610 . S
N2138 S2137 1.613 . S
N2138 C2141 1.350 . S
N2139 S2137 1.610 . S
N2139 C2140 1.351 . S
C2140 C2134 1.428 . S
C2140 N2139 1.351 . S
C2140 C2141 1.434 . S
C2141 C2132 1.429 . S
C2141 N2138 1.350 . S
C2141 C2140 1.434 . S
C2142 C2143 1.369 . S
C2142 C2144 1.419 . S
C2142 H2146 0.930 . S
C2143 C2142 1.369 . S
C2143 C2152 1.429 . S
C2144 C2142 1.419 . S
C2144 C2145 1.363 . S
C2144 H2147 0.929 . S
C2145 C2144 1.363 . S
C2145 C2151 1.428 . S
H2146 C2142 0.930 . S
H2147 C2144 0.929 . S
S2148 N2149 1.613 . S
S2148 N2150 1.610 . S
N2149 S2148 1.613 . S
N2149 C2152 1.350 . S
N2150 S2148 1.610 . S
N2150 C2151 1.351 . S
C2151 C2145 1.428 . S
C2151 N2150 1.351 . S
C2151 C2152 1.434 . S
C2152 C2143 1.429 . S
C2152 N2149 1.350 . S
C2152 C2151 1.434 . S
C2153 C2154 1.369 . S
C2153 C2155 1.419 . S
C2153 H2157 0.930 . S
C2154 C2153 1.369 . S
C2154 C2163 1.429 . S
C2155 C2153 1.419 . S
C2155 C2156 1.363 . S
C2155 H2158 0.929 . S
C2156 C2155 1.363 . S
C2156 C2162 1.428 . S
H2157 C2153 0.930 . S
H2158 C2155 0.929 . S
S2159 N2160 1.613 . S
S2159 N2161 1.610 . S
N2160 S2159 1.613 . S
N2160 C2163 1.350 . S
N2161 S2159 1.610 . S
N2161 C2162 1.351 . S
C2162 C2156 1.428 . S
C2162 N2161 1.351 . S
C2162 C2163 1.434 . S
C2163 C2154 1.429 . S
C2163 N2160 1.350 . S
C2163 C2162 1.434 . S
C2164 C2165 1.369 . S
C2164 C2166 1.419 . S
C2164 H2168 0.930 . S
C2165 C2164 1.369 . S
C2165 C2174 1.428 1_565 S
C2166 C2164 1.419 . S
C2166 C2167 1.363 . S
C2166 H2169 0.929 . S
C2167 C2166 1.363 . S
C2167 C2173 1.428 . S
H2168 C2164 0.930 . S
H2169 C2166 0.929 . S
S2170 N2171 1.613 . S
S2170 N2172 1.610 . S
N2171 S2170 1.613 . S
N2171 C2174 1.352 . S
N2172 S2170 1.610 . S
N2172 C2173 1.351 1_545 S
C2173 C2167 1.428 . S
C2173 N2172 1.351 1_565 S
C2173 C2174 1.432 1_565 S
C2174 C2165 1.428 1_545 S
C2174 N2171 1.352 . S
C2174 C2173 1.432 1_545 S
C2175 C2176 1.369 . S
C2175 C2177 1.419 . S
C2175 H2179 0.930 . S
C2176 C2175 1.369 . S
C2176 C2185 1.429 . S
C2177 C2175 1.419 . S
C2177 C2178 1.363 . S
C2177 H2180 0.929 . S
C2178 C2177 1.363 . S
C2178 C2184 1.428 . S
H2179 C2175 0.930 . S
H2180 C2177 0.929 . S
S2181 N2182 1.613 1_545 S
S2181 N2183 1.610 . S
N2182 S2181 1.613 1_565 S
N2182 C2185 1.350 . S
N2183 S2181 1.610 . S
N2183 C2184 1.351 1_545 S
C2184 C2178 1.428 . S
C2184 N2183 1.351 1_565 S
C2184 C2185 1.434 . S
C2185 C2176 1.429 . S
C2185 N2182 1.350 . S
C2185 C2184 1.434 . S
C2186 C2187 1.369 . S
C2186 C2188 1.419 . S
C2186 H2190 0.930 . S
C2187 C2186 1.369 . S
C2187 C2196 1.429 . S
C2188 C2186 1.419 . S
C2188 C2189 1.363 . S
C2188 H2191 0.929 . S
C2189 C2188 1.363 . S
C2189 C2195 1.428 . S
H2190 C2186 0.930 . S
H2191 C2188 0.929 . S
S2192 N2193 1.613 . S
S2192 N2194 1.610 . S
N2193 S2192 1.613 . S
N2193 C2196 1.350 . S
N2194 S2192 1.610 . S
N2194 C2195 1.351 . S
C2195 C2189 1.428 . S
C2195 N2194 1.351 . S
C2195 C2196 1.434 . S
C2196 C2187 1.429 . S
C2196 N2193 1.350 . S
C2196 C2195 1.434 . S
C2197 C2198 1.369 . S
C2197 C2199 1.419 . S
C2197 H2201 0.930 . S
C2198 C2197 1.369 . S
C2198 C2207 1.429 . S
C2199 C2197 1.419 . S
C2199 C2200 1.363 . S
C2199 H2202 0.929 . S
C2200 C2199 1.363 . S
C2200 C2206 1.428 . S
H2201 C2197 0.930 . S
H2202 C2199 0.929 . S
S2203 N2204 1.613 . S
S2203 N2205 1.610 . S
N2204 S2203 1.613 . S
N2204 C2207 1.350 . S
N2205 S2203 1.610 . S
N2205 C2206 1.351 . S
C2206 C2200 1.428 . S
C2206 N2205 1.351 . S
C2206 C2207 1.434 . S
C2207 C2198 1.429 . S
C2207 N2204 1.350 . S
C2207 C2206 1.434 . S
C2208 C2209 1.369 . S
C2208 C2210 1.419 . S
C2208 H2212 0.930 . S
C2209 C2208 1.369 . S
C2209 C2218 1.429 . S
C2210 C2208 1.419 . S
C2210 C2211 1.363 . S
C2210 H2213 0.929 . S
C2211 C2210 1.363 . S
C2211 C2217 1.428 . S
H2212 C2208 0.930 . S
H2213 C2210 0.929 . S
S2214 N2215 1.613 . S
S2214 N2216 1.610 . S
N2215 S2214 1.613 . S
N2215 C2218 1.350 . S
N2216 S2214 1.610 . S
N2216 C2217 1.351 . S
C2217 C2211 1.428 . S
C2217 N2216 1.351 . S
C2217 C2218 1.434 . S
C2218 C2209 1.429 . S
C2218 N2215 1.350 . S
C2218 C2217 1.434 . S
C2219 C2220 1.369 . S
C2219 C2221 1.419 . S
C2219 H2223 0.930 . S
C2220 C2219 1.369 . S
C2220 C2229 1.429 . S
C2221 C2219 1.419 . S
C2221 C2222 1.363 . S
C2221 H2224 0.929 . S
C2222 C2221 1.363 . S
C2222 C2228 1.428 . S
H2223 C2219 0.930 . S
H2224 C2221 0.929 . S
S2225 N2226 1.613 . S
S2225 N2227 1.610 . S
N2226 S2225 1.613 . S
N2226 C2229 1.350 . S
N2227 S2225 1.610 . S
N2227 C2228 1.351 . S
C2228 C2222 1.428 . S
C2228 N2227 1.351 . S
C2228 C2229 1.434 . S
C2229 C2220 1.429 . S
C2229 N2226 1.350 . S
C2229 C2228 1.434 . S
C2230 C2231 1.369 . S
C2230 C2232 1.419 . S
C2230 H2234 0.930 1_554 S
C2231 C2230 1.369 . S
C2231 C2240 1.429 . S
C2232 C2230 1.419 . S
C2232 C2233 1.363 . S
C2232 H2235 0.929 . S
C2233 C2232 1.363 . S
C2233 C2239 1.428 . S
H2234 C2230 0.930 1_556 S
H2235 C2232 0.929 . S
S2236 N2237 1.613 . S
S2236 N2238 1.610 . S
N2237 S2236 1.613 . S
N2237 C2240 1.350 . S
N2238 S2236 1.610 . S
N2238 C2239 1.351 . S
C2239 C2233 1.428 . S
C2239 N2238 1.351 . S
C2239 C2240 1.434 . S
C2240 C2231 1.429 . S
C2240 N2237 1.350 . S
C2240 C2239 1.434 . S
C2241 C2242 1.369 . S
C2241 C2243 1.419 1_455 S
C2241 H2245 0.925 1_455 S
C2242 C2241 1.369 . S
C2242 C2251 1.429 . S
C2243 C2241 1.419 1_655 S
C2243 C2244 1.363 . S
C2243 H2246 0.929 . S
C2244 C2243 1.363 . S
C2244 C2250 1.428 1_655 S
H2245 C2241 0.925 1_655 S
H2246 C2243 0.929 . S
S2247 N2248 1.613 . S
S2247 N2249 1.610 . S
N2248 S2247 1.613 . S
N2248 C2251 1.350 . S
N2249 S2247 1.610 . S
N2249 C2250 1.351 . S
C2250 C2244 1.428 1_455 S
C2250 N2249 1.351 . S
C2250 C2251 1.434 . S
C2251 C2242 1.429 . S
C2251 N2248 1.350 . S
C2251 C2250 1.434 . S
C2252 C2253 1.369 . S
C2252 C2254 1.419 . S
C2252 H2256 0.930 . S
C2253 C2252 1.369 . S
C2253 C2262 1.429 . S
C2254 C2252 1.419 . S
C2254 C2255 1.363 . S
C2254 H2257 0.929 . S
C2255 C2254 1.363 . S
C2255 C2261 1.428 . S
H2256 C2252 0.930 . S
H2257 C2254 0.929 . S
S2258 N2259 1.613 . S
S2258 N2260 1.610 . S
N2259 S2258 1.613 . S
N2259 C2262 1.350 . S
N2260 S2258 1.610 . S
N2260 C2261 1.351 . S
C2261 C2255 1.428 . S
C2261 N2260 1.351 . S
C2261 C2262 1.434 . S
C2262 C2253 1.429 . S
C2262 N2259 1.350 . S
C2262 C2261 1.434 . S
C2263 C2264 1.369 . S
C2263 C2265 1.419 . S
C2263 H2267 0.930 . S
C2264 C2263 1.369 . S
C2264 C2273 1.429 . S
C2265 C2263 1.419 . S
C2265 C2266 1.363 . S
C2265 H2268 0.929 . S
C2266 C2265 1.363 . S
C2266 C2272 1.428 . S
H2267 C2263 0.930 . S
H2268 C2265 0.929 . S
S2269 N2270 1.613 . S
S2269 N2271 1.611 1_455 S
N2270 S2269 1.613 . S
N2270 C2273 1.350 . S
N2271 S2269 1.611 1_655 S
N2271 C2272 1.354 1_655 S
C2272 C2266 1.428 . S
C2272 N2271 1.354 1_455 S
C2272 C2273 1.434 . S
C2273 C2264 1.429 . S
C2273 N2270 1.350 . S
C2273 C2272 1.434 . S
C2274 C2275 1.369 . S
C2274 C2276 1.419 . S
C2274 H2278 0.930 . S
C2275 C2274 1.369 . S
C2275 C2284 1.431 1_455 S
C2276 C2274 1.419 . S
C2276 C2277 1.363 . S
C2276 H2279 0.929 . S
C2277 C2276 1.363 . S
C2277 C2283 1.428 . S
H2278 C2274 0.930 . S
H2279 C2276 0.929 . S
S2280 N2281 1.613 . S
S2280 N2282 1.610 1_655 S
N2281 S2280 1.613 . S
N2281 C2284 1.380 . S
N2282 S2280 1.610 1_455 S
N2282 C2283 1.351 . S
C2283 C2277 1.428 . S
C2283 N2282 1.351 . S
C2283 C2284 1.401 1_455 S
C2284 C2275 1.431 1_655 S
C2284 N2281 1.380 . S
C2284 C2283 1.401 1_655 S
C2285 C2286 1.369 . S
C2285 C2287 1.419 . S
C2285 H2289 0.930 . S
C2286 C2285 1.369 . S
C2286 C2295 1.429 . S
C2287 C2285 1.419 . S
C2287 C2288 1.363 . S
C2287 H2290 0.929 . S
C2288 C2287 1.363 . S
C2288 C2294 1.428 . S
H2289 C2285 0.930 . S
H2290 C2287 0.929 . S
S2291 N2292 1.613 . S
S2291 N2293 1.610 . S
N2292 S2291 1.613 . S
N2292 C2295 1.350 . S
N2293 S2291 1.610 . S
N2293 C2294 1.351 . S
C2294 C2288 1.428 . S
C2294 N2293 1.351 . S
C2294 C2295 1.434 . S
C2295 C2286 1.429 . S
C2295 N2292 1.350 . S
C2295 C2294 1.434 . S
C2296 C2297 1.369 . S
C2296 C2298 1.419 . S
C2296 H2300 0.930 . S
C2297 C2296 1.369 . S
C2297 C2306 1.429 . S
C2298 C2296 1.419 . S
C2298 C2299 1.363 . S
C2298 H2301 0.929 . S
C2299 C2298 1.363 . S
C2299 C2305 1.428 . S
H2300 C2296 0.930 . S
H2301 C2298 0.929 . S
S2302 N2303 1.613 . S
S2302 N2304 1.610 . S
N2303 S2302 1.613 . S
N2303 C2306 1.350 . S
N2304 S2302 1.610 . S
N2304 C2305 1.351 . S
C2305 C2299 1.428 . S
C2305 N2304 1.351 . S
C2305 C2306 1.434 . S
C2306 C2297 1.429 . S
C2306 N2303 1.350 . S
C2306 C2305 1.434 . S
C2307 C2308 1.369 . S
C2307 C2309 1.419 . S
C2307 H2311 0.930 . S
C2308 C2307 1.369 . S
C2308 C2317 1.429 . S
C2309 C2307 1.419 . S
C2309 C2310 1.363 . S
C2309 H2312 0.929 . S
C2310 C2309 1.363 . S
C2310 C2316 1.428 . S
H2311 C2307 0.930 . S
H2312 C2309 0.929 . S
S2313 N2314 1.613 . S
S2313 N2315 1.610 . S
N2314 S2313 1.613 . S
N2314 C2317 1.350 . S
N2315 S2313 1.610 . S
N2315 C2316 1.351 . S
C2316 C2310 1.428 . S
C2316 N2315 1.351 . S
C2316 C2317 1.434 . S
C2317 C2308 1.429 . S
C2317 N2314 1.350 . S
C2317 C2316 1.434 . S
C2318 C2319 1.369 . S
C2318 C2320 1.419 . S
C2318 H2322 0.930 . S
C2319 C2318 1.369 . S
C2319 C2328 1.429 . S
C2320 C2318 1.419 . S
C2320 C2321 1.363 . S
C2320 H2323 0.929 . S
C2321 C2320 1.363 . S
C2321 C2327 1.428 . S
H2322 C2318 0.930 . S
H2323 C2320 0.929 . S
S2324 N2325 1.613 . S
S2324 N2326 1.610 . S
N2325 S2324 1.613 . S
N2325 C2328 1.350 . S
N2326 S2324 1.610 . S
N2326 C2327 1.351 . S
C2327 C2321 1.428 . S
C2327 N2326 1.351 . S
C2327 C2328 1.434 . S
C2328 C2319 1.429 . S
C2328 N2325 1.350 . S
C2328 C2327 1.434 . S
C2329 C2330 1.369 . S
C2329 C2331 1.419 . S
C2329 H2333 0.930 . S
C2330 C2329 1.369 . S
C2330 C2339 1.429 . S
C2331 C2329 1.419 . S
C2331 C2332 1.363 . S
C2331 H2334 0.929 . S
C2332 C2331 1.363 . S
C2332 C2338 1.428 . S
H2333 C2329 0.930 . S
H2334 C2331 0.929 . S
S2335 N2336 1.613 . S
S2335 N2337 1.610 . S
N2336 S2335 1.613 . S
N2336 C2339 1.350 . S
N2337 S2335 1.610 . S
N2337 C2338 1.351 . S
C2338 C2332 1.428 . S
C2338 N2337 1.351 . S
C2338 C2339 1.434 . S
C2339 C2330 1.429 . S
C2339 N2336 1.350 . S
C2339 C2338 1.434 . S
C2340 C2341 1.369 . S
C2340 C2342 1.419 . S
C2340 H2344 0.930 . S
C2341 C2340 1.369 . S
C2341 C2350 1.429 . S
C2342 C2340 1.419 . S
C2342 C2343 1.363 . S
C2342 H2345 0.929 . S
C2343 C2342 1.363 . S
C2343 C2349 1.428 . S
H2344 C2340 0.930 . S
H2345 C2342 0.929 . S
S2346 N2347 1.613 . S
S2346 N2348 1.610 . S
N2347 S2346 1.613 . S
N2347 C2350 1.350 . S
N2348 S2346 1.610 . S
N2348 C2349 1.351 . S
C2349 C2343 1.428 . S
C2349 N2348 1.351 . S
C2349 C2350 1.434 . S
C2350 C2341 1.429 . S
C2350 N2347 1.350 . S
C2350 C2349 1.434 . S
C2351 C2352 1.369 . S
C2351 C2353 1.419 . S
C2351 H2355 0.930 . S
C2352 C2351 1.369 . S
C2352 C2361 1.429 . S
C2353 C2351 1.419 . S
C2353 C2354 1.363 . S
C2353 H2356 0.929 . S
C2354 C2353 1.363 . S
C2354 C2360 1.428 . S
H2355 C2351 0.930 . S
H2356 C2353 0.929 . S
S2357 N2358 1.613 . S
S2357 N2359 1.610 . S
N2358 S2357 1.613 . S
N2358 C2361 1.350 . S
N2359 S2357 1.610 . S
N2359 C2360 1.351 . S
C2360 C2354 1.428 . S
C2360 N2359 1.351 . S
C2360 C2361 1.434 . S
C2361 C2352 1.429 . S
C2361 N2358 1.350 . S
C2361 C2360 1.434 . S
C2362 C2363 1.369 . S
C2362 C2364 1.419 . S
C2362 H2366 0.930 . S
C2363 C2362 1.369 . S
C2363 C2372 1.429 . S
C2364 C2362 1.419 . S
C2364 C2365 1.363 . S
C2364 H2367 0.929 . S
C2365 C2364 1.363 . S
C2365 C2371 1.428 . S
H2366 C2362 0.930 . S
H2367 C2364 0.929 . S
S2368 N2369 1.613 . S
S2368 N2370 1.610 . S
N2369 S2368 1.613 . S
N2369 C2372 1.350 . S
N2370 S2368 1.610 . S
N2370 C2371 1.351 . S
C2371 C2365 1.428 . S
C2371 N2370 1.351 . S
C2371 C2372 1.434 . S
C2372 C2363 1.429 . S
C2372 N2369 1.350 . S
C2372 C2371 1.434 . S
C2373 C2374 1.369 . S
C2373 C2375 1.419 . S
C2373 H2377 0.930 . S
C2374 C2373 1.369 . S
C2374 C2383 1.429 . S
C2375 C2373 1.419 . S
C2375 C2376 1.363 . S
C2375 H2378 0.929 . S
C2376 C2375 1.363 . S
C2376 C2382 1.428 . S
H2377 C2373 0.930 . S
H2378 C2375 0.929 . S
S2379 N2380 1.613 . S
S2379 N2381 1.610 . S
N2380 S2379 1.613 . S
N2380 C2383 1.350 . S
N2381 S2379 1.610 . S
N2381 C2382 1.351 . S
C2382 C2376 1.428 . S
C2382 N2381 1.351 . S
C2382 C2383 1.434 . S
C2383 C2374 1.429 . S
C2383 N2380 1.350 . S
C2383 C2382 1.434 . S
C2384 C2385 1.369 . S
C2384 C2386 1.419 . S
C2384 H2388 0.930 . S
C2385 C2384 1.369 . S
C2385 C2394 1.429 . S
C2386 C2384 1.419 . S
C2386 C2387 1.363 . S
C2386 H2389 0.929 . S
C2387 C2386 1.363 . S
C2387 C2393 1.428 . S
H2388 C2384 0.930 . S
H2389 C2386 0.929 . S
S2390 N2391 1.613 . S
S2390 N2392 1.610 . S
N2391 S2390 1.613 . S
N2391 C2394 1.350 . S
N2392 S2390 1.610 . S
N2392 C2393 1.351 . S
C2393 C2387 1.428 . S
C2393 N2392 1.351 . S
C2393 C2394 1.434 . S
C2394 C2385 1.429 . S
C2394 N2391 1.350 . S
C2394 C2393 1.434 . S
C2395 C2396 1.369 . S
C2395 C2397 1.419 . S
C2395 H2399 0.930 . S
C2396 C2395 1.369 . S
C2396 C2405 1.429 . S
C2397 C2395 1.419 . S
C2397 C2398 1.363 . S
C2397 H2400 0.929 . S
C2398 C2397 1.363 . S
C2398 C2404 1.428 . S
H2399 C2395 0.930 . S
H2400 C2397 0.929 . S
S2401 N2402 1.613 . S
S2401 N2403 1.610 . S
N2402 S2401 1.613 . S
N2402 C2405 1.350 . S
N2403 S2401 1.610 . S
N2403 C2404 1.351 . S
C2404 C2398 1.428 . S
C2404 N2403 1.351 . S
C2404 C2405 1.434 . S
C2405 C2396 1.429 . S
C2405 N2402 1.350 . S
C2405 C2404 1.434 . S
C2406 C2407 1.369 . S
C2406 C2408 1.419 . S
C2406 H2410 0.930 . S
C2407 C2406 1.369 . S
C2407 C2416 1.429 . S
C2408 C2406 1.419 . S
C2408 C2409 1.363 . S
C2408 H2411 0.929 . S
C2409 C2408 1.363 . S
C2409 C2415 1.428 . S
H2410 C2406 0.930 . S
H2411 C2408 0.929 . S
S2412 N2413 1.613 . S
S2412 N2414 1.610 . S
N2413 S2412 1.613 . S
N2413 C2416 1.350 . S
N2414 S2412 1.610 . S
N2414 C2415 1.351 . S
C2415 C2409 1.428 . S
C2415 N2414 1.351 . S
C2415 C2416 1.434 . S
C2416 C2407 1.429 . S
C2416 N2413 1.350 . S
C2416 C2415 1.434 . S
C2417 C2418 1.342 1_556 S
C2417 C2419 1.418 1_566 S
C2417 H2421 0.959 . S
C2418 C2417 1.342 1_554 S
C2418 C2427 1.429 . S
C2419 C2417 1.418 1_544 S
C2419 C2420 1.363 . S
C2419 H2422 0.929 1_554 S
C2420 C2419 1.363 . S
C2420 C2426 1.428 1_545 S
H2421 C2417 0.959 . S
H2422 C2419 0.929 1_556 S
S2423 N2424 1.613 . S
S2423 N2425 1.610 . S
N2424 S2423 1.613 . S
N2424 C2427 1.350 . S
N2425 S2423 1.610 . S
N2425 C2426 1.351 . S
C2426 C2420 1.428 1_565 S
C2426 N2425 1.351 . S
C2426 C2427 1.434 . S
C2427 C2418 1.429 . S
C2427 N2424 1.350 . S
C2427 C2426 1.434 . S
C2428 C2429 1.369 . S
C2428 C2430 1.419 . S
C2428 H2432 0.930 . S
C2429 C2428 1.369 . S
C2429 C2438 1.429 . S
C2430 C2428 1.419 . S
C2430 C2431 1.363 . S
C2430 H2433 0.929 . S
C2431 C2430 1.363 . S
C2431 C2437 1.428 . S
H2432 C2428 0.930 . S
H2433 C2430 0.929 . S
S2434 N2435 1.613 . S
S2434 N2436 1.610 . S
N2435 S2434 1.613 . S
N2435 C2438 1.350 . S
N2436 S2434 1.610 . S
N2436 C2437 1.351 . S
C2437 C2431 1.428 . S
C2437 N2436 1.351 . S
C2437 C2438 1.434 . S
C2438 C2429 1.429 . S
C2438 N2435 1.350 . S
C2438 C2437 1.434 . S
C2439 C2440 1.369 . S
C2439 C2441 1.419 . S
C2439 H2443 0.930 . S
C2440 C2439 1.369 . S
C2440 C2449 1.429 . S
C2441 C2439 1.419 . S
C2441 C2442 1.363 . S
C2441 H2444 0.929 . S
C2442 C2441 1.363 . S
C2442 C2448 1.428 . S
H2443 C2439 0.930 . S
H2444 C2441 0.929 . S
S2445 N2446 1.613 . S
S2445 N2447 1.610 1_556 S
N2446 S2445 1.613 . S
N2446 C2449 1.350 1_556 S
N2447 S2445 1.610 1_554 S
N2447 C2448 1.351 . S
C2448 C2442 1.428 . S
C2448 N2447 1.351 . S
C2448 C2449 1.434 . S
C2449 C2440 1.429 . S
C2449 N2446 1.350 1_554 S
C2449 C2448 1.434 . S
C2450 C2451 1.369 . S
C2450 C2452 1.419 . S
C2450 H2454 0.930 . S
C2451 C2450 1.369 . S
C2451 C2460 1.429 . S
C2452 C2450 1.419 . S
C2452 C2453 1.363 . S
C2452 H2455 0.929 . S
C2453 C2452 1.363 . S
C2453 C2459 1.428 . S
H2454 C2450 0.930 . S
H2455 C2452 0.929 . S
S2456 N2457 1.613 . S
S2456 N2458 1.610 . S
N2457 S2456 1.613 . S
N2457 C2460 1.350 . S
N2458 S2456 1.610 . S
N2458 C2459 1.351 . S
C2459 C2453 1.428 . S
C2459 N2458 1.351 . S
C2459 C2460 1.434 . S
C2460 C2451 1.429 . S
C2460 N2457 1.350 . S
C2460 C2459 1.434 . S
C2461 C2462 1.369 . S
C2461 C2463 1.419 . S
C2461 H2465 0.930 . S
C2462 C2461 1.369 . S
C2462 C2471 1.429 . S
C2463 C2461 1.419 . S
C2463 C2464 1.363 . S
C2463 H2466 0.929 . S
C2464 C2463 1.363 . S
C2464 C2470 1.428 . S
H2465 C2461 0.930 . S
H2466 C2463 0.929 . S
S2467 N2468 1.613 . S
S2467 N2469 1.610 . S
N2468 S2467 1.613 . S
N2468 C2471 1.350 . S
N2469 S2467 1.610 . S
N2469 C2470 1.351 . S
C2470 C2464 1.428 . S
C2470 N2469 1.351 . S
C2470 C2471 1.434 . S
C2471 C2462 1.429 . S
C2471 N2468 1.350 . S
C2471 C2470 1.434 . S
C2472 C2473 1.369 . S
C2472 C2474 1.419 . S
C2472 H2476 0.930 . S
C2473 C2472 1.369 . S
C2473 C2482 1.429 . S
C2474 C2472 1.419 . S
C2474 C2475 1.363 . S
C2474 H2477 0.929 . S
C2475 C2474 1.363 . S
C2475 C2481 1.428 . S
H2476 C2472 0.930 . S
H2477 C2474 0.929 . S
S2478 N2479 1.613 . S
S2478 N2480 1.610 . S
N2479 S2478 1.613 . S
N2479 C2482 1.350 . S
N2480 S2478 1.610 . S
N2480 C2481 1.351 . S
C2481 C2475 1.428 . S
C2481 N2480 1.351 . S
C2481 C2482 1.434 . S
C2482 C2473 1.429 . S
C2482 N2479 1.350 . S
C2482 C2481 1.434 . S
C2483 C2484 1.369 . S
C2483 C2485 1.419 . S
C2483 H2487 0.930 . S
C2484 C2483 1.369 . S
C2484 C2493 1.429 . S
C2485 C2483 1.419 . S
C2485 C2486 1.363 . S
C2485 H2488 0.929 . S
C2486 C2485 1.363 . S
C2486 C2492 1.428 . S
H2487 C2483 0.930 . S
H2488 C2485 0.929 . S
S2489 N2490 1.613 . S
S2489 N2491 1.610 . S
N2490 S2489 1.613 . S
N2490 C2493 1.350 . S
N2491 S2489 1.610 . S
N2491 C2492 1.351 . S
C2492 C2486 1.428 . S
C2492 N2491 1.351 . S
C2492 C2493 1.434 . S
C2493 C2484 1.429 . S
C2493 N2490 1.350 . S
C2493 C2492 1.434 . S
C2494 C2495 1.369 . S
C2494 C2496 1.419 . S
C2494 H2498 0.930 . S
C2495 C2494 1.369 . S
C2495 C2504 1.429 . S
C2496 C2494 1.419 . S
C2496 C2497 1.363 . S
C2496 H2499 0.929 . S
C2497 C2496 1.363 . S
C2497 C2503 1.428 . S
H2498 C2494 0.930 . S
H2499 C2496 0.929 . S
S2500 N2501 1.613 . S
S2500 N2502 1.610 . S
N2501 S2500 1.613 . S
N2501 C2504 1.350 . S
N2502 S2500 1.610 . S
N2502 C2503 1.351 . S
C2503 C2497 1.428 . S
C2503 N2502 1.351 . S
C2503 C2504 1.434 . S
C2504 C2495 1.429 . S
C2504 N2501 1.350 . S
C2504 C2503 1.434 . S
C2505 C2506 1.369 . S
C2505 C2507 1.419 . S
C2505 H2509 0.930 . S
C2506 C2505 1.369 . S
C2506 C2515 1.429 . S
C2507 C2505 1.419 . S
C2507 C2508 1.363 . S
C2507 H2510 0.929 . S
C2508 C2507 1.363 . S
C2508 C2514 1.428 . S
H2509 C2505 0.930 . S
H2510 C2507 0.929 . S
S2511 N2512 1.613 . S
S2511 N2513 1.610 . S
N2512 S2511 1.613 . S
N2512 C2515 1.350 . S
N2513 S2511 1.610 . S
N2513 C2514 1.351 . S
C2514 C2508 1.428 . S
C2514 N2513 1.351 . S
C2514 C2515 1.434 . S
C2515 C2506 1.429 . S
C2515 N2512 1.350 . S
C2515 C2514 1.434 . S
C2516 C2517 1.369 . S
C2516 C2518 1.419 . S
C2516 H2520 0.930 . S
C2517 C2516 1.369 . S
C2517 C2526 1.429 . S
C2518 C2516 1.419 . S
C2518 C2519 1.363 . S
C2518 H2521 0.929 . S
C2519 C2518 1.363 . S
C2519 C2525 1.428 . S
H2520 C2516 0.930 . S
H2521 C2518 0.929 . S
S2522 N2523 1.613 . S
S2522 N2524 1.610 1_556 S
N2523 S2522 1.613 . S
N2523 C2526 1.350 . S
N2524 S2522 1.610 1_554 S
N2524 C2525 1.351 1_554 S
C2525 C2519 1.428 . S
C2525 N2524 1.351 1_556 S
C2525 C2526 1.434 . S
C2526 C2517 1.429 . S
C2526 N2523 1.350 . S
C2526 C2525 1.434 . S
C2527 C2528 1.369 . S
C2527 C2529 1.419 . S
C2527 H2531 0.930 . S
C2528 C2527 1.369 . S
C2528 C2537 1.429 . S
C2529 C2527 1.419 . S
C2529 C2530 1.363 . S
C2529 H2532 0.929 . S
C2530 C2529 1.363 . S
C2530 C2536 1.428 . S
H2531 C2527 0.930 . S
H2532 C2529 0.929 . S
S2533 N2534 1.613 . S
S2533 N2535 1.610 . S
N2534 S2533 1.613 . S
N2534 C2537 1.350 . S
N2535 S2533 1.610 . S
N2535 C2536 1.351 . S
C2536 C2530 1.428 . S
C2536 N2535 1.351 . S
C2536 C2537 1.434 . S
C2537 C2528 1.429 . S
C2537 N2534 1.350 . S
C2537 C2536 1.434 . S
C2538 C2539 1.369 . S
C2538 C2540 1.419 . S
C2538 H2542 0.930 . S
C2539 C2538 1.369 . S
C2539 C2548 1.429 . S
C2540 C2538 1.419 . S
C2540 C2541 1.363 . S
C2540 H2543 0.929 . S
C2541 C2540 1.363 . S
C2541 C2547 1.428 . S
H2542 C2538 0.930 . S
H2543 C2540 0.929 . S
S2544 N2545 1.613 . S
S2544 N2546 1.610 . S
N2545 S2544 1.613 . S
N2545 C2548 1.350 . S
N2546 S2544 1.610 . S
N2546 C2547 1.351 . S
C2547 C2541 1.428 . S
C2547 N2546 1.351 . S
C2547 C2548 1.434 . S
C2548 C2539 1.429 . S
C2548 N2545 1.350 . S
C2548 C2547 1.434 . S
C2549 C2550 1.369 . S
C2549 C2551 1.419 . S
C2549 H2553 0.930 . S
C2550 C2549 1.369 . S
C2550 C2559 1.429 . S
C2551 C2549 1.419 . S
C2551 C2552 1.363 . S
C2551 H2554 0.929 . S
C2552 C2551 1.363 . S
C2552 C2558 1.428 . S
H2553 C2549 0.930 . S
H2554 C2551 0.929 . S
S2555 N2556 1.613 . S
S2555 N2557 1.610 . S
N2556 S2555 1.613 . S
N2556 C2559 1.350 . S
N2557 S2555 1.610 . S
N2557 C2558 1.351 . S
C2558 C2552 1.428 . S
C2558 N2557 1.351 . S
C2558 C2559 1.434 . S
C2559 C2550 1.429 . S
C2559 N2556 1.350 . S
C2559 C2558 1.434 . S
C2560 C2561 1.369 . S
C2560 C2562 1.419 . S
C2560 H2564 0.930 . S
C2561 C2560 1.369 . S
C2561 C2570 1.429 . S
C2562 C2560 1.419 . S
C2562 C2563 1.363 . S
C2562 H2565 0.929 . S
C2563 C2562 1.363 . S
C2563 C2569 1.428 . S
H2564 C2560 0.930 . S
H2565 C2562 0.929 . S
S2566 N2567 1.613 . S
S2566 N2568 1.610 . S
N2567 S2566 1.613 . S
N2567 C2570 1.350 . S
N2568 S2566 1.610 . S
N2568 C2569 1.351 . S
C2569 C2563 1.428 . S
C2569 N2568 1.351 . S
C2569 C2570 1.434 . S
C2570 C2561 1.429 . S
C2570 N2567 1.350 . S
C2570 C2569 1.434 . S
C2571 C2572 1.369 . S
C2571 C2573 1.419 . S
C2571 H2575 0.930 . S
C2572 C2571 1.369 . S
C2572 C2581 1.429 . S
C2573 C2571 1.419 . S
C2573 C2574 1.363 . S
C2573 H2576 0.929 . S
C2574 C2573 1.363 . S
C2574 C2580 1.428 . S
H2575 C2571 0.930 . S
H2576 C2573 0.929 . S
S2577 N2578 1.613 . S
S2577 N2579 1.610 . S
N2578 S2577 1.613 . S
N2578 C2581 1.350 . S
N2579 S2577 1.610 . S
N2579 C2580 1.351 . S
C2580 C2574 1.428 . S
C2580 N2579 1.351 . S
C2580 C2581 1.434 . S
C2581 C2572 1.429 . S
C2581 N2578 1.350 . S
C2581 C2580 1.434 . S
C2582 C2583 1.369 . S
C2582 C2584 1.419 1_655 S
C2582 H2586 0.930 . S
C2583 C2582 1.369 . S
C2583 C2592 1.429 1_655 S
C2584 C2582 1.419 1_455 S
C2584 C2585 1.363 . S
C2584 H2587 0.929 1_556 S
C2585 C2584 1.363 . S
C2585 C2591 1.428 . S
H2586 C2582 0.930 . S
H2587 C2584 0.929 1_554 S
S2588 N2589 1.613 . S
S2588 N2590 1.610 . S
N2589 S2588 1.613 . S
N2589 C2592 1.350 . S
N2590 S2588 1.610 . S
N2590 C2591 1.351 . S
C2591 C2585 1.428 . S
C2591 N2590 1.351 . S
C2591 C2592 1.434 . S
C2592 C2583 1.429 1_455 S
C2592 N2589 1.350 . S
C2592 C2591 1.434 . S
C2593 C2594 1.369 . S
C2593 C2595 1.419 . S
C2593 H2597 0.930 . S
C2594 C2593 1.369 . S
C2594 C2603 1.429 . S
C2595 C2593 1.419 . S
C2595 C2596 1.363 . S
C2595 H2598 0.929 . S
C2596 C2595 1.363 . S
C2596 C2602 1.428 . S
H2597 C2593 0.930 . S
H2598 C2595 0.929 . S
S2599 N2600 1.613 . S
S2599 N2601 1.610 . S
N2600 S2599 1.613 . S
N2600 C2603 1.350 . S
N2601 S2599 1.610 . S
N2601 C2602 1.351 . S
C2602 C2596 1.428 . S
C2602 N2601 1.351 . S
C2602 C2603 1.434 . S
C2603 C2594 1.429 . S
C2603 N2600 1.350 . S
C2603 C2602 1.434 . S
C2604 C2605 1.369 . S
C2604 C2606 1.419 . S
C2604 H2608 0.930 . S
C2605 C2604 1.369 . S
C2605 C2614 1.429 . S
C2606 C2604 1.419 . S
C2606 C2607 1.363 . S
C2606 H2609 0.929 . S
C2607 C2606 1.363 . S
C2607 C2613 1.428 . S
H2608 C2604 0.930 . S
H2609 C2606 0.929 . S
S2610 N2611 1.613 . S
S2610 N2612 1.610 . S
N2611 S2610 1.613 . S
N2611 C2614 1.350 . S
N2612 S2610 1.610 . S
N2612 C2613 1.351 . S
C2613 C2607 1.428 . S
C2613 N2612 1.351 . S
C2613 C2614 1.434 . S
C2614 C2605 1.429 . S
C2614 N2611 1.350 . S
C2614 C2613 1.434 . S
C2615 C2616 1.369 . S
C2615 C2617 1.419 . S
C2615 H2619 0.930 . S
C2616 C2615 1.369 . S
C2616 C2625 1.429 . S
C2617 C2615 1.419 . S
C2617 C2618 1.363 . S
C2617 H2620 0.929 . S
C2618 C2617 1.363 . S
C2618 C2624 1.428 . S
H2619 C2615 0.930 . S
H2620 C2617 0.929 . S
S2621 N2622 1.613 . S
S2621 N2623 1.610 . S
N2622 S2621 1.613 . S
N2622 C2625 1.350 . S
N2623 S2621 1.610 . S
N2623 C2624 1.351 . S
C2624 C2618 1.428 . S
C2624 N2623 1.351 . S
C2624 C2625 1.434 . S
C2625 C2616 1.429 . S
C2625 N2622 1.350 . S
C2625 C2624 1.434 . S
C2626 C2627 1.369 . S
C2626 C2628 1.419 1_655 S
C2626 H2630 0.930 . S
C2627 C2626 1.369 . S
C2627 C2636 1.429 . S
C2628 C2626 1.419 1_455 S
C2628 C2629 1.363 1_455 S
C2628 H2631 0.929 . S
C2629 C2628 1.363 1_655 S
C2629 C2635 1.428 . S
H2630 C2626 0.930 . S
H2631 C2628 0.929 . S
S2632 N2633 1.613 . S
S2632 N2634 1.610 . S
N2633 S2632 1.613 . S
N2633 C2636 1.350 . S
N2634 S2632 1.610 . S
N2634 C2635 1.351 . S
C2635 C2629 1.428 . S
C2635 N2634 1.351 . S
C2635 C2636 1.434 . S
C2636 C2627 1.429 . S
C2636 N2633 1.350 . S
C2636 C2635 1.434 . S
C2637 C2638 1.369 . S
C2637 C2639 1.419 . S
C2637 H2641 0.930 . S
C2638 C2637 1.369 . S
C2638 C2647 1.429 . S
C2639 C2637 1.419 . S
C2639 C2640 1.363 . S
C2639 H2642 0.929 . S
C2640 C2639 1.363 . S
C2640 C2646 1.428 . S
H2641 C2637 0.930 . S
H2642 C2639 0.929 . S
S2643 N2644 1.613 . S
S2643 N2645 1.610 . S
N2644 S2643 1.613 . S
N2644 C2647 1.350 . S
N2645 S2643 1.610 . S
N2645 C2646 1.351 . S
C2646 C2640 1.428 . S
C2646 N2645 1.351 . S
C2646 C2647 1.434 . S
C2647 C2638 1.429 . S
C2647 N2644 1.350 . S
C2647 C2646 1.434 . S
C2648 C2649 1.369 . S
C2648 C2650 1.419 . S
C2648 H2652 0.930 . S
C2649 C2648 1.369 . S
C2649 C2658 1.429 . S
C2650 C2648 1.419 . S
C2650 C2651 1.363 . S
C2650 H2653 0.929 . S
C2651 C2650 1.363 . S
C2651 C2657 1.428 . S
H2652 C2648 0.930 . S
H2653 C2650 0.929 . S
S2654 N2655 1.613 . S
S2654 N2656 1.610 . S
N2655 S2654 1.613 . S
N2655 C2658 1.350 . S
N2656 S2654 1.610 . S
N2656 C2657 1.351 . S
C2657 C2651 1.428 . S
C2657 N2656 1.351 . S
C2657 C2658 1.434 . S
C2658 C2649 1.429 . S
C2658 N2655 1.350 . S
C2658 C2657 1.434 . S
C2659 C2660 1.369 . S
C2659 C2661 1.419 . S
C2659 H2663 0.930 . S
C2660 C2659 1.369 . S
C2660 C2669 1.429 . S
C2661 C2659 1.419 . S
C2661 C2662 1.363 . S
C2661 H2664 0.929 1_655 S
C2662 C2661 1.363 . S
C2662 C2668 1.428 . S
H2663 C2659 0.930 . S
H2664 C2661 0.929 1_455 S
S2665 N2666 1.613 1_545 S
S2665 N2667 1.610 . S
N2666 S2665 1.613 1_565 S
N2666 C2669 1.350 . S
N2667 S2665 1.610 . S
N2667 C2668 1.351 1_545 S
C2668 C2662 1.428 . S
C2668 N2667 1.351 1_565 S
C2668 C2669 1.434 . S
C2669 C2660 1.429 . S
C2669 N2666 1.350 . S
C2669 C2668 1.434 . S
C2670 C2671 1.369 . S
C2670 C2672 1.419 . S
C2670 H2674 0.930 . S
C2671 C2670 1.369 . S
C2671 C2680 1.429 . S
C2672 C2670 1.419 . S
C2672 C2673 1.363 . S
C2672 H2675 0.929 . S
C2673 C2672 1.363 . S
C2673 C2679 1.428 . S
H2674 C2670 0.930 . S
H2675 C2672 0.929 . S
S2676 N2677 1.613 . S
S2676 N2678 1.610 . S
N2677 S2676 1.613 . S
N2677 C2680 1.350 . S
N2678 S2676 1.610 . S
N2678 C2679 1.351 . S
C2679 C2673 1.428 . S
C2679 N2678 1.351 . S
C2679 C2680 1.434 . S
C2680 C2671 1.429 . S
C2680 N2677 1.350 . S
C2680 C2679 1.434 . S
C2681 C2682 1.369 . S
C2681 C2683 1.419 . S
C2681 H2685 0.930 . S
C2682 C2681 1.369 . S
C2682 C2691 1.429 . S
C2683 C2681 1.419 . S
C2683 C2684 1.363 . S
C2683 H2686 0.929 . S
C2684 C2683 1.363 . S
C2684 C2690 1.428 . S
H2685 C2681 0.930 . S
H2686 C2683 0.929 . S
S2687 N2688 1.613 . S
S2687 N2689 1.610 . S
N2688 S2687 1.613 . S
N2688 C2691 1.350 . S
N2689 S2687 1.610 . S
N2689 C2690 1.351 . S
C2690 C2684 1.428 . S
C2690 N2689 1.351 . S
C2690 C2691 1.434 . S
C2691 C2682 1.429 . S
C2691 N2688 1.350 . S
C2691 C2690 1.434 . S
C2692 C2693 1.369 . S
C2692 C2694 1.419 . S
C2692 H2696 0.930 . S
C2693 C2692 1.369 . S
C2693 C2702 1.429 . S
C2694 C2692 1.419 . S
C2694 C2695 1.363 . S
C2694 H2697 0.929 . S
C2695 C2694 1.363 . S
C2695 C2701 1.428 . S
H2696 C2692 0.930 . S
H2697 C2694 0.929 . S
S2698 N2699 1.613 . S
S2698 N2700 1.610 . S
N2699 S2698 1.613 . S
N2699 C2702 1.350 . S
N2700 S2698 1.610 . S
N2700 C2701 1.351 . S
C2701 C2695 1.428 . S
C2701 N2700 1.351 . S
C2701 C2702 1.434 . S
C2702 C2693 1.429 . S
C2702 N2699 1.350 . S
C2702 C2701 1.434 . S
C2703 C2704 1.369 . S
C2703 C2705 1.419 . S
C2703 H2707 0.930 . S
C2704 C2703 1.369 . S
C2704 C2713 1.429 . S
C2705 C2703 1.419 . S
C2705 C2706 1.363 . S
C2705 H2708 0.929 . S
C2706 C2705 1.363 . S
C2706 C2712 1.428 . S
H2707 C2703 0.930 . S
H2708 C2705 0.929 . S
S2709 N2710 1.613 . S
S2709 N2711 1.610 . S
N2710 S2709 1.613 . S
N2710 C2713 1.350 . S
N2711 S2709 1.610 . S
N2711 C2712 1.351 . S
C2712 C2706 1.428 . S
C2712 N2711 1.351 . S
C2712 C2713 1.434 . S
C2713 C2704 1.429 . S
C2713 N2710 1.350 . S
C2713 C2712 1.434 . S
C2714 C2715 1.369 . S
C2714 C2716 1.419 . S
C2714 H2718 0.930 . S
C2715 C2714 1.369 . S
C2715 C2724 1.429 . S
C2716 C2714 1.419 . S
C2716 C2717 1.363 . S
C2716 H2719 0.929 . S
C2717 C2716 1.363 . S
C2717 C2723 1.428 . S
H2718 C2714 0.930 . S
H2719 C2716 0.929 . S
S2720 N2721 1.613 . S
S2720 N2722 1.610 . S
N2721 S2720 1.613 . S
N2721 C2724 1.350 . S
N2722 S2720 1.610 . S
N2722 C2723 1.351 . S
C2723 C2717 1.428 . S
C2723 N2722 1.351 . S
C2723 C2724 1.434 . S
C2724 C2715 1.429 . S
C2724 N2721 1.350 . S
C2724 C2723 1.434 . S
C2725 C2726 1.369 . S
C2725 C2727 1.419 . S
C2725 H2729 0.930 . S
C2726 C2725 1.369 . S
C2726 C2735 1.429 . S
C2727 C2725 1.419 . S
C2727 C2728 1.363 . S
C2727 H2730 0.929 . S
C2728 C2727 1.363 . S
C2728 C2734 1.428 . S
H2729 C2725 0.930 . S
H2730 C2727 0.929 . S
S2731 N2732 1.613 . S
S2731 N2733 1.610 . S
N2732 S2731 1.613 . S
N2732 C2735 1.350 . S
N2733 S2731 1.610 . S
N2733 C2734 1.351 . S
C2734 C2728 1.428 . S
C2734 N2733 1.351 . S
C2734 C2735 1.434 . S
C2735 C2726 1.429 . S
C2735 N2732 1.350 . S
C2735 C2734 1.434 . S
C1681 C106 2.327 . S
C1683 C392 2.167 . S
C1692 C65 2.299 . S
C1694 C483 2.215 . S
C1703 C79 1.928 . S
C1705 C560 1.766 . S
C1716 C658 1.187 . S
C1714 C90 1.247 . S
C1725 C21 1.321 . S
C1727 C742 1.447 . S
C1738 C814 1.079 . S
C1736 C35 1.060 . S
C1749 C903 1.310 . S
C1747 C50 1.250 . S
C1758 C6 1.782 . S
C1760 C980 1.619 . S
C1771 C399 2.268 . S
C1769 C232 2.399 . S
C1780 C245 0.913 . S
C1782 C490 0.937 . S
C1793 C567 1.318 . S
C1791 C274 1.405 . S
C1804 C644 1.615 . S
C1802 C175 1.691 . S
C1813 C231 1.901 1_455 S
C1815 C728 1.820 . S
C1826 C830 1.222 . S
C1824 C246 1.413 . S
C1837 C910 0.793 . S
C1835 C273 0.808 . S
C1848 C987 1.838 . S
C1846 C176 2.023 . S
C1859 C406 1.516 . S
C1857 C160 1.472 . S
C1868 C289 1.926 . S
C1870 C1071 1.846 . S
C1881 C1159 2.328 . S
C1879 C328 2.448 . S
C1892 C1232 0.845 . S
C1890 C317 0.879 . S
C1901 C118 1.462 . S
C1903 C994 1.853 . S
C1912 C132 1.479 . S
C1914 C574 1.597 . S
C1923 C331 2.252 . S
C1925 C1323 2.163 . S
C1936 C1400 1.006 . S
C1934 C303 1.118 . S
C1947 C403 1.851 . S
C1945 C63 2.009 . S
C1958 C1418 2.644 . S
C1956 C107 2.600 . S
C1967 C92 1.766 . S
C1969 C571 1.760 . S
C1978 C78 1.768 . S
C1980 C1318 1.602 . S
C1991 C730 1.771 . S
C1989 C8 1.809 . S
C2000 C51 1.249 . S
C2002 C1162 1.165 . S
C2013 C914 1.841 1_556 S
C2011 C37 1.626 . S
C2024 C1495 1.552 . S
C2022 C20 1.745 . S
C2035 C410 2.136 . S
C2033 C147 2.200 . S
C2046 C1402 0.939 . S
C2044 C316 0.978 . S
C2055 C119 1.199 . S
C2057 C578 1.249 . S
C2066 C288 1.798 . S
C2068 C1327 1.732 . S
C2077 C148 2.407 1_545 S
C2079 C739 2.165 . S
C2090 C1155 1.269 . S
C2088 C315 1.303 . S
C2099 C120 1.004 . S
C2101 C898 0.959 . S
C2110 C287 1.865 . S
C2112 C1502 1.705 . S
C2121 C188 1.402 . S
C2123 C394 1.394 . S
C2132 C177 2.186 . S
C2134 C1082 2.146 . S
C2143 C258 2.553 . S
C2145 C812 2.439 . S
C2154 C247 0.807 . S
C2156 C1243 0.809 . S
C2167 C1486 1.376 . S
C2165 C272 1.207 1_565 S
C2176 C216 1.413 . S
C2178 C562 1.487 . S
C2189 C662 2.361 . S
C2187 C261 2.418 . S
C2200 C487 0.916 . S
C2198 C205 0.965 . S
C2209 C76 1.909 . S
C2211 C1568 1.784 . S
C2222 C1407 2.290 . S
C2220 C93 2.382 . S
C2231 C105 1.631 1_554 S
C2233 C1652 1.513 . S
C2242 C62 1.280 . S
C2244 C1330 1.217 . S
C2253 C49 1.313 . S
C2255 C1078 1.444 . S
C2266 C1150 1.304 1_455 S
C2264 C9 1.346 . S
C2277 C1239 1.282 . S
C2275 C22 1.200 1_455 S
C2288 C1484 1.986 . S
C2286 C36 2.280 . S
C2299 C1575 2.212 . S
C2297 C260 2.337 . S
C2308 C189 0.832 . S
C2310 C1414 0.835 . S
C2321 C1659 1.260 . S
C2319 C204 1.360 . S
C2332 C1316 1.512 . S
C2330 C217 1.578 . S
C2343 C1064 2.064 . S
C2341 C259 2.150 . S
C2352 C190 1.417 . S
C2354 C1166 1.279 . S
C2365 C1246 0.857 . S
C2363 C203 0.866 . S
C2374 C218 2.110 . S
C2376 C1491 1.911 . S
C2387 C1582 1.500 . S
C2385 C314 1.437 . S
C2396 C135 2.002 . S
C2398 C735 1.917 . S
C2409 C823 2.234 . S
C2407 C146 2.377 . S
C2420 C896 0.839 . S
C2418 C163 0.862 . S
C2431 C1498 1.816 . S
C2429 C300 1.460 . S
C2440 C286 1.479 . S
C2442 C1666 1.641 . S
C2453 C651 2.086 . S
C2451 C149 2.168 . S
C2464 C476 0.977 . S
C2462 C121 1.081 . S
C2473 C91 2.000 . S
C2475 C1579 1.847 . S
C2486 C494 2.228 . S
C2484 C77 2.123 . S
C2495 C64 1.730 . S
C2497 C1663 1.755 . S
C2506 C104 1.440 . S
C2508 C646 1.404 . S
C2517 C34 1.489 . S
C2519 C1066 1.606 1_556 S
C2530 C826 1.118 . S
C2528 C23 1.218 . S
C2539 C7 1.240 . S
C2541 C1250 1.481 . S
C2550 C48 1.713 . S
C2552 C991 1.545 . S
C2563 C1586 2.087 . S
C2561 C329 2.158 . S
C2572 C162 1.009 . S
C2574 C478 0.948 . S
C2585 C1670 1.203 . S
C2583 C301 1.158 . S
C2594 C134 1.813 . S
C2596 C655 1.751 . S
C2605 C330 2.364 . S
C2607 C1075 2.142 . S
C2618 C819 1.242 . S
C2616 C161 1.282 . S
C2627 C302 1.045 . S
C2629 C1234 0.983 1_655 S
C2640 C998 1.676 . S
C2638 C133 1.830 . S
C2651 C1570 1.493 . S
C2649 C244 1.518 . S
C2662 C746 2.104 1_665 S
C2660 C219 2.116 . S
C2671 C230 2.298 . S
C2673 C1148 2.162 . S
C2684 C907 0.784 . S
C2682 C191 0.792 . S
C2693 C202 1.270 . S
C2695 C982 1.423 . S
C2704 C174 1.534 . S
C2706 C1654 1.566 . S
C2717 C1334 2.346 . S
C2715 C233 2.383 1_565 S
C2728 C1411 0.933 . S
C2726 C275 0.990 . S
