# Generated by pormake.
# Topology gar, (4,6)-cn, num edge types: 1
# Building blocks:
#     Node 0, Type 0, BuildingBlock: QUQFOY_clean_sbu_3, # of connection points: 4
#     Node 1, Type 0, BuildingBlock: QUQFOY_clean_sbu_3, # of connection points: 4
#     Node 2, Type 0, BuildingBlock: QUQFOY_clean_sbu_3, # of connection points: 4
#     Node 3, Type 0, BuildingBlock: QUQFOY_clean_sbu_3, # of connection points: 4
#     Node 4, Type 0, BuildingBlock: QUQFOY_clean_sbu_3, # of connection points: 4
#     Node 5, Type 0, BuildingBlock: QUQFOY_clean_sbu_3, # of connection points: 4
#     Node 6, Type 0, BuildingBlock: QUQFOY_clean_sbu_3, # of connection points: 4
#     Node 7, Type 0, BuildingBlock: QUQFOY_clean_sbu_3, # of connection points: 4
#     Node 8, Type 0, BuildingBlock: QUQFOY_clean_sbu_3, # of connection points: 4
#     Node 9, Type 0, BuildingBlock: QUQFOY_clean_sbu_3, # of connection points: 4
#     Node 10, Type 0, BuildingBlock: QUQFOY_clean_sbu_3, # of connection points: 4
#     Node 11, Type 0, BuildingBlock: QUQFOY_clean_sbu_3, # of connection points: 4
#     Node 12, Type 0, BuildingBlock: QUQFOY_clean_sbu_3, # of connection points: 4
#     Node 13, Type 0, BuildingBlock: QUQFOY_clean_sbu_3, # of connection points: 4
#     Node 14, Type 0, BuildingBlock: QUQFOY_clean_sbu_3, # of connection points: 4
#     Node 15, Type 0, BuildingBlock: QUQFOY_clean_sbu_3, # of connection points: 4
#     Node 16, Type 0, BuildingBlock: QUQFOY_clean_sbu_3, # of connection points: 4
#     Node 17, Type 0, BuildingBlock: QUQFOY_clean_sbu_3, # of connection points: 4
#     Node 18, Type 0, BuildingBlock: QUQFOY_clean_sbu_3, # of connection points: 4
#     Node 19, Type 0, BuildingBlock: QUQFOY_clean_sbu_3, # of connection points: 4
#     Node 20, Type 0, BuildingBlock: QUQFOY_clean_sbu_3, # of connection points: 4
#     Node 21, Type 0, BuildingBlock: QUQFOY_clean_sbu_3, # of connection points: 4
#     Node 22, Type 0, BuildingBlock: QUQFOY_clean_sbu_3, # of connection points: 4
#     Node 23, Type 0, BuildingBlock: QUQFOY_clean_sbu_3, # of connection points: 4
#     Node 24, Type 1, BuildingBlock: HISSIN_clean_sbu_0, # of connection points: 6
#     Node 25, Type 1, BuildingBlock: HISSIN_clean_sbu_0, # of connection points: 6
#     Node 26, Type 1, BuildingBlock: HISSIN_clean_sbu_0, # of connection points: 6
#     Node 27, Type 1, BuildingBlock: HISSIN_clean_sbu_0, # of connection points: 6
#     Node 28, Type 1, BuildingBlock: HISSIN_clean_sbu_0, # of connection points: 6
#     Node 29, Type 1, BuildingBlock: HISSIN_clean_sbu_0, # of connection points: 6
#     Node 30, Type 1, BuildingBlock: HISSIN_clean_sbu_0, # of connection points: 6
#     Node 31, Type 1, BuildingBlock: HISSIN_clean_sbu_0, # of connection points: 6
#     Node 32, Type 1, BuildingBlock: HISSIN_clean_sbu_0, # of connection points: 6
#     Node 33, Type 1, BuildingBlock: HISSIN_clean_sbu_0, # of connection points: 6
#     Node 34, Type 1, BuildingBlock: HISSIN_clean_sbu_0, # of connection points: 6
#     Node 35, Type 1, BuildingBlock: HISSIN_clean_sbu_0, # of connection points: 6
#     Node 36, Type 1, BuildingBlock: HISSIN_clean_sbu_0, # of connection points: 6
#     Node 37, Type 1, BuildingBlock: HISSIN_clean_sbu_0, # of connection points: 6
#     Node 38, Type 1, BuildingBlock: HISSIN_clean_sbu_0, # of connection points: 6
#     Node 39, Type 1, BuildingBlock: HISSIN_clean_sbu_0, # of connection points: 6
#     Edge 40, Type (0, 1), BuildingBlock: ZUJKAS_clean_linker_0, # of connection points: 2
#     Edge 41, Type (0, 1), BuildingBlock: ZUJKAS_clean_linker_0, # of connection points: 2
#     Edge 42, Type (0, 1), BuildingBlock: ZUJKAS_clean_linker_0, # of connection points: 2
#     Edge 43, Type (0, 1), BuildingBlock: ZUJKAS_clean_linker_0, # of connection points: 2
#     Edge 44, Type (0, 1), BuildingBlock: ZUJKAS_clean_linker_0, # of connection points: 2
#     Edge 45, Type (0, 1), BuildingBlock: ZUJKAS_clean_linker_0, # of connection points: 2
#     Edge 46, Type (0, 1), BuildingBlock: ZUJKAS_clean_linker_0, # of connection points: 2
#     Edge 47, Type (0, 1), BuildingBlock: ZUJKAS_clean_linker_0, # of connection points: 2
#     Edge 48, Type (0, 1), BuildingBlock: ZUJKAS_clean_linker_0, # of connection points: 2
#     Edge 49, Type (0, 1), BuildingBlock: ZUJKAS_clean_linker_0, # of connection points: 2
#     Edge 50, Type (0, 1), BuildingBlock: ZUJKAS_clean_linker_0, # of connection points: 2
#     Edge 51, Type (0, 1), BuildingBlock: ZUJKAS_clean_linker_0, # of connection points: 2
#     Edge 52, Type (0, 1), BuildingBlock: ZUJKAS_clean_linker_0, # of connection points: 2
#     Edge 53, Type (0, 1), BuildingBlock: ZUJKAS_clean_linker_0, # of connection points: 2
#     Edge 54, Type (0, 1), BuildingBlock: ZUJKAS_clean_linker_0, # of connection points: 2
#     Edge 55, Type (0, 1), BuildingBlock: ZUJKAS_clean_linker_0, # of connection points: 2
#     Edge 56, Type (0, 1), BuildingBlock: ZUJKAS_clean_linker_0, # of connection points: 2
#     Edge 57, Type (0, 1), BuildingBlock: ZUJKAS_clean_linker_0, # of connection points: 2
#     Edge 58, Type (0, 1), BuildingBlock: ZUJKAS_clean_linker_0, # of connection points: 2
#     Edge 59, Type (0, 1), BuildingBlock: ZUJKAS_clean_linker_0, # of connection points: 2
#     Edge 60, Type (0, 1), BuildingBlock: ZUJKAS_clean_linker_0, # of connection points: 2
#     Edge 61, Type (0, 1), BuildingBlock: ZUJKAS_clean_linker_0, # of connection points: 2
#     Edge 62, Type (0, 1), BuildingBlock: ZUJKAS_clean_linker_0, # of connection points: 2
#     Edge 63, Type (0, 1), BuildingBlock: ZUJKAS_clean_linker_0, # of connection points: 2
#     Edge 64, Type (0, 1), BuildingBlock: ZUJKAS_clean_linker_0, # of connection points: 2
#     Edge 65, Type (0, 1), BuildingBlock: ZUJKAS_clean_linker_0, # of connection points: 2
#     Edge 66, Type (0, 1), BuildingBlock: ZUJKAS_clean_linker_0, # of connection points: 2
#     Edge 67, Type (0, 1), BuildingBlock: ZUJKAS_clean_linker_0, # of connection points: 2
#     Edge 68, Type (0, 1), BuildingBlock: ZUJKAS_clean_linker_0, # of connection points: 2
#     Edge 69, Type (0, 1), BuildingBlock: ZUJKAS_clean_linker_0, # of connection points: 2
#     Edge 70, Type (0, 1), BuildingBlock: ZUJKAS_clean_linker_0, # of connection points: 2
#     Edge 71, Type (0, 1), BuildingBlock: ZUJKAS_clean_linker_0, # of connection points: 2
#     Edge 72, Type (0, 1), BuildingBlock: ZUJKAS_clean_linker_0, # of connection points: 2
#     Edge 73, Type (0, 1), BuildingBlock: ZUJKAS_clean_linker_0, # of connection points: 2
#     Edge 74, Type (0, 1), BuildingBlock: ZUJKAS_clean_linker_0, # of connection points: 2
#     Edge 75, Type (0, 1), BuildingBlock: ZUJKAS_clean_linker_0, # of connection points: 2
#     Edge 76, Type (0, 1), BuildingBlock: ZUJKAS_clean_linker_0, # of connection points: 2
#     Edge 77, Type (0, 1), BuildingBlock: ZUJKAS_clean_linker_0, # of connection points: 2
#     Edge 78, Type (0, 1), BuildingBlock: ZUJKAS_clean_linker_0, # of connection points: 2
#     Edge 79, Type (0, 1), BuildingBlock: ZUJKAS_clean_linker_0, # of connection points: 2
#     Edge 80, Type (0, 1), BuildingBlock: ZUJKAS_clean_linker_0, # of connection points: 2
#     Edge 81, Type (0, 1), BuildingBlock: ZUJKAS_clean_linker_0, # of connection points: 2
#     Edge 82, Type (0, 1), BuildingBlock: ZUJKAS_clean_linker_0, # of connection points: 2
#     Edge 83, Type (0, 1), BuildingBlock: ZUJKAS_clean_linker_0, # of connection points: 2
#     Edge 84, Type (0, 1), BuildingBlock: ZUJKAS_clean_linker_0, # of connection points: 2
#     Edge 85, Type (0, 1), BuildingBlock: ZUJKAS_clean_linker_0, # of connection points: 2
#     Edge 86, Type (0, 1), BuildingBlock: ZUJKAS_clean_linker_0, # of connection points: 2
#     Edge 87, Type (0, 1), BuildingBlock: ZUJKAS_clean_linker_0, # of connection points: 2
#     Edge 88, Type (0, 1), BuildingBlock: ZUJKAS_clean_linker_0, # of connection points: 2
#     Edge 89, Type (0, 1), BuildingBlock: ZUJKAS_clean_linker_0, # of connection points: 2
#     Edge 90, Type (0, 1), BuildingBlock: ZUJKAS_clean_linker_0, # of connection points: 2
#     Edge 91, Type (0, 1), BuildingBlock: ZUJKAS_clean_linker_0, # of connection points: 2
#     Edge 92, Type (0, 1), BuildingBlock: ZUJKAS_clean_linker_0, # of connection points: 2
#     Edge 93, Type (0, 1), BuildingBlock: ZUJKAS_clean_linker_0, # of connection points: 2
#     Edge 94, Type (0, 1), BuildingBlock: ZUJKAS_clean_linker_0, # of connection points: 2
#     Edge 95, Type (0, 1), BuildingBlock: ZUJKAS_clean_linker_0, # of connection points: 2
#     Edge 96, Type (0, 1), BuildingBlock: ZUJKAS_clean_linker_0, # of connection points: 2
#     Edge 97, Type (0, 1), BuildingBlock: ZUJKAS_clean_linker_0, # of connection points: 2
#     Edge 98, Type (0, 1), BuildingBlock: ZUJKAS_clean_linker_0, # of connection points: 2
#     Edge 99, Type (0, 1), BuildingBlock: ZUJKAS_clean_linker_0, # of connection points: 2
#     Edge 100, Type (0, 1), BuildingBlock: ZUJKAS_clean_linker_0, # of connection points: 2
#     Edge 101, Type (0, 1), BuildingBlock: ZUJKAS_clean_linker_0, # of connection points: 2
#     Edge 102, Type (0, 1), BuildingBlock: ZUJKAS_clean_linker_0, # of connection points: 2
#     Edge 103, Type (0, 1), BuildingBlock: ZUJKAS_clean_linker_0, # of connection points: 2
#     Edge 104, Type (0, 1), BuildingBlock: ZUJKAS_clean_linker_0, # of connection points: 2
#     Edge 105, Type (0, 1), BuildingBlock: ZUJKAS_clean_linker_0, # of connection points: 2
#     Edge 106, Type (0, 1), BuildingBlock: ZUJKAS_clean_linker_0, # of connection points: 2
#     Edge 107, Type (0, 1), BuildingBlock: ZUJKAS_clean_linker_0, # of connection points: 2
#     Edge 108, Type (0, 1), BuildingBlock: ZUJKAS_clean_linker_0, # of connection points: 2
#     Edge 109, Type (0, 1), BuildingBlock: ZUJKAS_clean_linker_0, # of connection points: 2
#     Edge 110, Type (0, 1), BuildingBlock: ZUJKAS_clean_linker_0, # of connection points: 2
#     Edge 111, Type (0, 1), BuildingBlock: ZUJKAS_clean_linker_0, # of connection points: 2
#     Edge 112, Type (0, 1), BuildingBlock: ZUJKAS_clean_linker_0, # of connection points: 2
#     Edge 113, Type (0, 1), BuildingBlock: ZUJKAS_clean_linker_0, # of connection points: 2
#     Edge 114, Type (0, 1), BuildingBlock: ZUJKAS_clean_linker_0, # of connection points: 2
#     Edge 115, Type (0, 1), BuildingBlock: ZUJKAS_clean_linker_0, # of connection points: 2
#     Edge 116, Type (0, 1), BuildingBlock: ZUJKAS_clean_linker_0, # of connection points: 2
#     Edge 117, Type (0, 1), BuildingBlock: ZUJKAS_clean_linker_0, # of connection points: 2
#     Edge 118, Type (0, 1), BuildingBlock: ZUJKAS_clean_linker_0, # of connection points: 2
#     Edge 119, Type (0, 1), BuildingBlock: ZUJKAS_clean_linker_0, # of connection points: 2
#     Edge 120, Type (0, 1), BuildingBlock: ZUJKAS_clean_linker_0, # of connection points: 2
#     Edge 121, Type (0, 1), BuildingBlock: ZUJKAS_clean_linker_0, # of connection points: 2
#     Edge 122, Type (0, 1), BuildingBlock: ZUJKAS_clean_linker_0, # of connection points: 2
#     Edge 123, Type (0, 1), BuildingBlock: ZUJKAS_clean_linker_0, # of connection points: 2
#     Edge 124, Type (0, 1), BuildingBlock: ZUJKAS_clean_linker_0, # of connection points: 2
#     Edge 125, Type (0, 1), BuildingBlock: ZUJKAS_clean_linker_0, # of connection points: 2
#     Edge 126, Type (0, 1), BuildingBlock: ZUJKAS_clean_linker_0, # of connection points: 2
#     Edge 127, Type (0, 1), BuildingBlock: ZUJKAS_clean_linker_0, # of connection points: 2
#     Edge 128, Type (0, 1), BuildingBlock: ZUJKAS_clean_linker_0, # of connection points: 2
#     Edge 129, Type (0, 1), BuildingBlock: ZUJKAS_clean_linker_0, # of connection points: 2
#     Edge 130, Type (0, 1), BuildingBlock: ZUJKAS_clean_linker_0, # of connection points: 2
#     Edge 131, Type (0, 1), BuildingBlock: ZUJKAS_clean_linker_0, # of connection points: 2
#     Edge 132, Type (0, 1), BuildingBlock: ZUJKAS_clean_linker_0, # of connection points: 2
#     Edge 133, Type (0, 1), BuildingBlock: ZUJKAS_clean_linker_0, # of connection points: 2
#     Edge 134, Type (0, 1), BuildingBlock: ZUJKAS_clean_linker_0, # of connection points: 2
#     Edge 135, Type (0, 1), BuildingBlock: ZUJKAS_clean_linker_0, # of connection points: 2
# Relax obj value: 0.142
# Max RMSD: 0.271
# Mean RMSD: 0.129
data_MOF--net-gar--node1-QUQFOY_clean_sbu_3--node2-HISSIN_clean_sbu_0--edge1-ZUJKAS_clean_linker_0
_symmetry_space_group_name_H-M    P1
_symmetry_Int_Tables_number       1
_symmetry_cell_setting            triclinic
loop_
_symmetry_equiv_pos_as_xyz
'x, y, z'
_cell_length_a     76.216024
_cell_length_b     77.195785
_cell_length_c     74.874073
_cell_angle_alpha  100.05458
_cell_angle_beta   93.334864
_cell_angle_gamma 100.57228
loop_
_atom_site_label
_atom_site_type_symbol
_atom_site_fract_x
_atom_site_fract_y
_atom_site_fract_z
_atom_type_partial_charge
C0 C 0.05437 0.30857 0.37213 0.0
O1 O 0.0659 0.31809 0.3644 0.0
Cd2 Cd 0.09748 0.32202 0.36918 0.0
O3 O 0.05903 0.30015 0.38426 0.0
Cd4 Cd 0.08659 0.2959 0.40054 0.0
C5 C 0.09891 0.34118 0.41434 0.0
O6 O 0.09834 0.29257 0.37275 0.0
O7 O 0.11722 0.29024 0.39419 0.0
O8 O 0.06892 0.26681 0.40114 0.0
C9 C 0.1136 0.28995 0.37737 0.0
O10 O 0.10275 0.34249 0.39825 0.0
C11 C 0.07361 0.26697 0.41772 0.0
O12 O 0.09244 0.32606 0.41832 0.0
O13 O 0.08447 0.28077 0.42642 0.0
C14 C 0.9656 0.75766 0.66329 0.0
O15 O 0.97609 0.74957 0.67091 0.0
Cd16 Cd 0.00511 0.74661 0.66364 0.0
O17 O 0.97005 0.76528 0.64999 0.0
Cd18 Cd 0.9962 0.76879 0.63218 0.0
C19 C 0.99306 0.72444 0.61941 0.0
O20 O 0.0177 0.77538 0.65814 0.0
O21 O 0.02878 0.77079 0.63239 0.0
O22 O 0.99353 0.79919 0.63062 0.0
C23 C 0.03147 0.7753 0.64957 0.0
O24 O 0.99904 0.72471 0.6357 0.0
C25 C 0.99432 0.79722 0.61353 0.0
O26 O 0.98999 0.73856 0.61431 0.0
O27 O 0.9947 0.78158 0.60498 0.0
C28 C 0.55598 0.80031 0.86513 0.0
O29 O 0.56791 0.80749 0.85608 0.0
Cd30 Cd 0.59857 0.81658 0.86708 0.0
O31 O 0.56012 0.79641 0.88047 0.0
Cd32 Cd 0.5867 0.79666 0.90092 0.0
C33 C 0.5916 0.84127 0.90819 0.0
O34 O 0.60419 0.79045 0.8771 0.0
O35 O 0.61986 0.79966 0.903 0.0
O36 O 0.57225 0.76696 0.90258 0.0
C37 C 0.6193 0.79355 0.88606 0.0
O38 O 0.59722 0.84094 0.89245 0.0
C39 C 0.57433 0.76909 0.9198 0.0
O40 O 0.58656 0.8269 0.91415 0.0
O41 O 0.58243 0.78439 0.92851 0.0
C42 C 0.46648 0.25077 0.15757 0.0
O43 O 0.47859 0.24546 0.16631 0.0
Cd44 Cd 0.50872 0.24703 0.16022 0.0
O45 O 0.46981 0.25832 0.144 0.0
Cd46 Cd 0.49595 0.26572 0.12727 0.0
C47 C 0.49809 0.22232 0.117 0.0
O48 O 0.5177 0.27581 0.15292 0.0
O49 O 0.52856 0.27021 0.12711 0.0
O50 O 0.4904 0.29486 0.12518 0.0
C51 C 0.53136 0.27634 0.14409 0.0
O52 O 0.50496 0.22395 0.13326 0.0
C53 C 0.49103 0.29289 0.10806 0.0
O54 O 0.49284 0.23529 0.11135 0.0
O55 O 0.49229 0.27748 0.09954 0.0
C56 C 0.0339 0.75966 0.15577 0.0
O57 O 0.04454 0.75205 0.16388 0.0
Cd58 Cd 0.07566 0.7535 0.16 0.0
O59 O 0.03907 0.76895 0.14392 0.0
Cd60 Cd 0.06625 0.77627 0.12913 0.0
C61 C 0.06817 0.73282 0.11562 0.0
O62 O 0.08708 0.78303 0.15542 0.0
O63 O 0.09859 0.78092 0.12968 0.0
O64 O 0.06046 0.80502 0.12471 0.0
C65 C 0.10098 0.78401 0.1469 0.0
O66 O 0.07478 0.73251 0.13155 0.0
C67 C 0.06158 0.80156 0.10763 0.0
O68 O 0.06277 0.74654 0.11199 0.0
O69 O 0.06422 0.78613 0.10076 0.0
C70 C 0.48098 0.79211 0.36821 0.0
O71 O 0.49271 0.80231 0.3614 0.0
Cd72 Cd 0.52402 0.80986 0.37147 0.0
O73 O 0.48519 0.78502 0.38152 0.0
Cd74 Cd 0.51178 0.78587 0.40124 0.0
C75 C 0.51832 0.83074 0.41373 0.0
O76 O 0.53221 0.78302 0.37821 0.0
O77 O 0.54422 0.78983 0.40594 0.0
O78 O 0.5 0.7557 0.4059 0.0
C79 C 0.54622 0.78602 0.38918 0.0
O80 O 0.52529 0.83243 0.39892 0.0
C81 C 0.50284 0.76009 0.42314 0.0
O82 O 0.51143 0.81542 0.4168 0.0
O83 O 0.50932 0.77643 0.42986 0.0
C84 C 0.53006 0.26612 0.65602 0.0
O85 O 0.54102 0.26066 0.66612 0.0
Cd86 Cd 0.5716 0.26024 0.66042 0.0
O87 O 0.53495 0.27232 0.64207 0.0
Cd88 Cd 0.56163 0.27765 0.62626 0.0
C89 C 0.5623 0.2338 0.61826 0.0
O90 O 0.58305 0.28844 0.6522 0.0
O91 O 0.59382 0.28175 0.62643 0.0
O92 O 0.55414 0.30464 0.61902 0.0
C93 C 0.59668 0.28815 0.64334 0.0
O94 O 0.56961 0.23557 0.63439 0.0
C95 C 0.55606 0.30035 0.60217 0.0
O96 O 0.55696 0.24675 0.61274 0.0
O97 O 0.55986 0.28511 0.59659 0.0
C98 C 0.99152 0.29056 0.86822 0.0
O99 O 0.00484 0.29726 0.86049 0.0
Cd100 Cd 0.03544 0.30187 0.87236 0.0
O101 O 0.99372 0.28501 0.88307 0.0
Cd102 Cd 0.01761 0.28233 0.90484 0.0
C103 C 0.03013 0.32739 0.91317 0.0
O104 O 0.038 0.27515 0.88335 0.0
O105 O 0.04948 0.28218 0.91119 0.0
O106 O 1.00088 0.25401 0.90967 0.0
C107 C 0.05169 0.27749 0.89453 0.0
O108 O 0.03705 0.32679 0.89803 0.0
C109 C 0.00236 0.25875 0.92691 0.0
O110 O 0.02182 0.31329 0.91784 0.0
O111 O 0.0106 0.2746 0.93366 0.0
C112 C 0.45136 0.02657 0.30351 0.0
O113 O 0.45723 0.01916 0.28916 0.0
Cd114 Cd 0.44448 0.01447 0.25825 0.0
O115 O 0.43718 0.03306 0.30273 0.0
Cd116 Cd 0.41446 0.0355 0.27947 0.0
C117 C 0.4042 0.9903 0.26563 0.0
O118 O 0.43306 0.04059 0.25584 0.0
O119 O 0.40483 0.03501 0.24774 0.0
O120 O 0.40799 0.06414 0.29295 0.0
C121 C 0.42063 0.03768 0.24307 0.0
O122 O 0.41846 0.9904 0.25752 0.0
C123 C 0.39129 0.05776 0.29244 0.0
O124 O 0.4009 1.0045 0.27504 0.0
O125 O 0.38611 0.04089 0.28778 0.0
C126 C 0.30174 0.15816 0.50669 0.0
O127 O 0.28886 0.14844 0.51251 0.0
Cd128 Cd 0.25949 0.15396 0.51407 0.0
O129 O 0.29929 0.17174 0.50001 0.0
Cd130 Cd 0.27337 0.1865 0.49418 0.0
C131 C 0.27213 0.19703 0.53945 0.0
O132 O 0.25026 0.15953 0.48518 0.0
O133 O 0.24055 0.18372 0.49407 0.0
O134 O 0.28545 0.18961 0.46518 0.0
C135 C 0.23696 0.1671 0.48727 0.0
O136 O 0.26436 0.18067 0.5378 0.0
C137 C 0.28209 0.20508 0.46494 0.0
O138 O 0.27807 0.20316 0.52575 0.0
O139 O 0.27514 0.2123 0.47863 0.0
C140 C 0.13523 0.01956 0.80298 0.0
O141 O 0.12658 0.02699 0.79252 0.0
Cd142 Cd 0.1355 0.03276 0.76308 0.0
O143 O 0.1491 0.01348 0.7971 0.0
Cd144 Cd 0.16579 0.01018 0.76446 0.0
C145 C 0.17821 0.05925 0.76759 0.0
O146 O 0.13744 0.00627 0.74129 0.0
O147 O 0.16241 0.01298 0.73041 0.0
O148 O 0.16811 0.97621 0.76564 0.0
C149 C 0.14545 0.0093 0.72734 0.0
O150 O 0.16127 0.05772 0.765 0.0
C151 C 0.18464 0.97654 0.76351 0.0
O152 O 0.18452 0.04501 0.76923 0.0
O153 O 0.19292 0.99208 0.76189 0.0
C154 C 0.30652 0.96779 0.99757 0.0
O155 O 0.29803 0.97446 0.98627 0.0
Cd156 Cd 0.26614 0.96345 0.97884 0.0
O157 O 0.29801 0.95571 0.00521 0.0
Cd158 Cd 0.26606 0.93925 0.00413 0.0
C159 C 0.2657 0.92042 0.95947 0.0
O160 O 0.24943 0.96458 0.00592 0.0
O161 O 0.23331 0.93791 0.99977 0.0
O162 O 0.27567 0.93902 0.03589 0.0
C163 C 0.23392 0.95465 0.00415 0.0
O164 O 0.26296 0.93543 0.95634 0.0
C165 C 0.26894 0.92258 0.03519 0.0
O166 O 0.26823 0.9183 0.97582 0.0
O167 O 0.26045 0.91402 0.02022 0.0
C168 C 0.33092 0.4097 0.025 0.0
O169 O 0.32076 0.41622 0.01509 0.0
Cd170 Cd 0.28883 0.40848 0.01036 0.0
O171 O 0.32451 0.3973 0.03341 0.0
Cd172 Cd 0.29386 0.37936 0.03467 0.0
C173 C 0.28639 0.36485 0.98926 0.0
O174 O 0.27724 0.40362 0.03808 0.0
O175 O 0.26127 0.37698 0.03001 0.0
O176 O 0.30001 0.3804 0.06701 0.0
C177 C 0.2618 0.39366 0.03483 0.0
O178 O 0.28277 0.38026 0.98901 0.0
C179 C 0.29606 0.3636 0.06635 0.0
O180 O 0.29281 0.36101 0.00388 0.0
O181 O 0.29172 0.35378 0.05066 0.0
C182 C 0.83765 0.1028 0.0297 0.0
O183 O 0.82859 0.09456 0.04044 0.0
Cd184 Cd 0.79949 0.10086 0.0479 0.0
O185 O 0.83113 0.11433 0.0225 0.0
Cd186 Cd 0.80175 0.1255 0.02427 0.0
C187 C 0.80435 0.14382 0.06915 0.0
O188 O 0.77737 0.09792 0.02217 0.0
O189 O 0.77031 0.1239 0.02928 0.0
O190 O 0.7985 0.12663 0.99172 0.0
C191 C 0.76511 0.10709 0.02452 0.0
O192 O 0.80068 0.12762 0.07133 0.0
C193 C 0.80063 0.1436 0.99411 0.0
O194 O 0.80707 0.1472 0.05339 0.0
O195 O 0.80394 0.1521 0.01042 0.0
C196 C 0.13584 0.54932 0.27721 0.0
O197 O 0.12453 0.5533 0.26623 0.0
Cd198 Cd 0.12762 0.54975 0.23416 0.0
O199 O 0.14856 0.54198 0.2714 0.0
Cd200 Cd 0.16181 0.53011 0.24436 0.0
C201 C 0.17169 0.57305 0.23892 0.0
O202 O 0.13439 0.52071 0.22609 0.0
O203 O 0.15779 0.5188 0.21165 0.0
O204 O 0.16422 0.50607 0.2599 0.0
C205 C 0.14089 0.51714 0.21103 0.0
O206 O 0.15507 0.57207 0.2345 0.0
C207 C 0.18048 0.50608 0.25705 0.0
O208 O 0.17747 0.55985 0.2435 0.0
O209 O 0.18806 0.51732 0.24797 0.0
C210 C 0.83153 0.91227 0.5262 0.0
O211 O 0.82129 0.91967 0.51734 0.0
Cd212 Cd 0.78976 0.91086 0.5109 0.0
O213 O 0.8252 0.89868 0.5331 0.0
Cd214 Cd 0.79449 0.87981 0.53382 0.0
C215 C 0.78982 0.86802 0.48776 0.0
O216 O 0.77816 0.90424 0.53812 0.0
O217 O 0.76165 0.87794 0.53055 0.0
O218 O 0.80321 0.87856 0.56542 0.0
C219 C 0.76254 0.89469 0.5351 0.0
O220 O 0.78701 0.88383 0.48813 0.0
C221 C 0.79722 0.86187 0.56407 0.0
O222 O 0.79388 0.86279 0.50245 0.0
O223 O 0.79052 0.85324 0.54839 0.0
C224 C 0.94226 0.04739 0.29731 0.0
O225 O 0.94859 0.03729 0.28512 0.0
Cd226 Cd 0.93971 0.02967 0.2529 0.0
O227 O 0.93001 0.0557 0.29219 0.0
Cd228 Cd 0.91216 0.05629 0.25851 0.0
C229 C 0.89672 0.00714 0.25418 0.0
O230 O 0.93975 0.05569 0.23901 0.0
O231 O 0.91477 0.05013 0.22304 0.0
O232 O 0.91009 0.09098 0.26753 0.0
C233 C 0.93173 0.05254 0.22304 0.0
O234 O 0.91251 0.00647 0.24981 0.0
C235 C 0.89373 0.09034 0.26218 0.0
O236 O 0.89249 0.02275 0.25886 0.0
O237 O 0.88545 0.07434 0.2556 0.0
C238 C 0.33684 0.59964 0.53029 0.0
O239 O 0.32788 0.59207 0.54154 0.0
Cd240 Cd 0.29792 0.59733 0.54689 0.0
O241 O 0.33024 0.61069 0.52241 0.0
Cd242 Cd 0.30136 0.62257 0.52553 0.0
C243 C 0.30259 0.63924 0.57006 0.0
O244 O 0.27657 0.59511 0.52077 0.0
O245 O 0.2702 0.62044 0.53253 0.0
O246 O 0.3001 0.62589 0.49342 0.0
C247 C 0.26458 0.60416 0.52511 0.0
O248 O 0.29645 0.62291 0.57066 0.0
C249 C 0.29966 0.64249 0.4968 0.0
O250 O 0.30845 0.64332 0.55546 0.0
O251 O 0.30077 0.64986 0.51345 0.0
C252 C 0.44345 0.54947 0.79858 0.0
O253 O 0.4519 0.54101 0.78703 0.0
Cd254 Cd 0.44156 0.5314 0.75524 0.0
O255 O 0.42959 0.55523 0.79266 0.0
Cd256 Cd 0.41232 0.55536 0.75851 0.0
C257 C 0.39882 0.50658 0.75625 0.0
O258 O 0.44062 0.55642 0.73978 0.0
O259 O 0.41587 0.54852 0.72331 0.0
O260 O 0.4086 0.58943 0.76958 0.0
C261 C 0.43286 0.55234 0.72366 0.0
O262 O 0.41527 0.50702 0.75369 0.0
C263 C 0.39332 0.58904 0.76141 0.0
O264 O 0.39319 0.52163 0.75887 0.0
O265 O 0.38632 0.57344 0.75237 0.0
C266 C 0.6352 0.05237 0.7645 0.0
O267 O 0.62718 0.05717 0.75141 0.0
Cd268 Cd 0.63586 0.05201 0.72096 0.0
O269 O 0.64792 0.0439 0.76191 0.0
Cd270 Cd 0.66553 0.03176 0.73858 0.0
C271 C 0.67948 0.07445 0.73326 0.0
O272 O 0.64226 0.02252 0.71492 0.0
O273 O 0.6688 0.02382 0.70611 0.0
O274 O 0.66483 1.00488 0.75092 0.0
C275 C 0.65201 0.0206 0.70188 0.0
O276 O 0.66425 0.0737 0.72483 0.0
C277 C 0.68178 0.00706 0.75344 0.0
O278 O 0.68286 0.0614 0.74025 0.0
O279 O 0.69106 0.02079 0.74895 0.0
C280 C 0.80246 0.6606 0.00672 0.0
O281 O 0.79035 0.65054 0.01318 0.0
Cd282 Cd 0.76026 0.654 0.01475 0.0
O283 O 0.79901 0.67353 0.9995 0.0
Cd284 Cd 0.77215 0.6868 0.99363 0.0
C285 C 0.772 0.69752 0.03929 0.0
O286 O 0.74992 0.65917 0.98605 0.0
O287 O 0.7392 0.68308 0.99313 0.0
O288 O 0.78241 0.68826 0.96371 0.0
C289 C 0.73623 0.66623 0.98755 0.0
O290 O 0.76512 0.68096 0.03799 0.0
C291 C 0.77998 0.70402 0.96332 0.0
O292 O 0.77677 0.70382 0.02527 0.0
O293 O 0.77432 0.71222 0.9774 0.0
C294 C 0.94094 0.52255 0.8021 0.0
O295 O 0.94716 0.51393 0.78868 0.0
Cd296 Cd 0.93524 0.50801 0.75758 0.0
O297 O 0.92708 0.52926 0.79995 0.0
Cd298 Cd 0.90547 0.53113 0.77541 0.0
C299 C 0.89365 0.48576 0.7645 0.0
O300 O 0.92675 0.53533 0.75394 0.0
O301 O 0.8993 0.53077 0.7429 0.0
O302 O 0.90296 0.56137 0.78859 0.0
C303 C 0.91574 0.53363 0.74017 0.0
O304 O 0.90833 0.48518 0.75731 0.0
C305 C 0.88594 0.5577 0.78771 0.0
O306 O 0.89018 0.5005 0.77256 0.0
O307 O 0.87831 0.54139 0.78234 0.0
C308 C 0.80605 0.46559 0.50196 0.0
O309 O 0.79729 0.47195 0.49059 0.0
Cd310 Cd 0.76525 0.46083 0.48272 0.0
O311 O 0.79782 0.45349 0.50977 0.0
Cd312 Cd 0.76612 0.43648 0.50862 0.0
C313 C 0.76472 0.41805 0.46338 0.0
O314 O 0.74824 0.46095 0.50941 0.0
O315 O 0.73317 0.43388 0.5057 0.0
O316 O 0.77327 0.43569 0.54089 0.0
C317 C 0.73305 0.45054 0.50847 0.0
O318 O 0.76141 0.43284 0.46022 0.0
C319 C 0.7698 0.41867 0.53876 0.0
O320 O 0.76804 0.41617 0.47971 0.0
O321 O 0.76416 0.41008 0.5228 0.0
C322 C 0.6375 0.52333 0.30418 0.0
O323 O 0.6306 0.53288 0.29461 0.0
Cd324 Cd 0.6362 0.53653 0.26363 0.0
O325 O 0.64933 0.51456 0.29724 0.0
Cd326 Cd 0.66605 0.51103 0.26467 0.0
C327 C 0.6797 0.56036 0.26657 0.0
O328 O 0.63733 0.50913 0.2429 0.0
O329 O 0.66149 0.51085 0.22989 0.0
O330 O 0.668 0.47681 0.26508 0.0
C331 C 0.64463 0.50998 0.22811 0.0
O332 O 0.66287 0.55955 0.26417 0.0
C333 C 0.68474 0.4773 0.26412 0.0
O334 O 0.68542 0.54584 0.26847 0.0
O335 O 0.69329 0.49303 0.26349 0.0
Eu336 Eu 0.04983 0.05375 0.02239 0.0
Eu337 Eu 0.02651 0.01434 0.00793 0.0
C338 C 0.05117 0.03335 0.97965 0.0
C339 C 0.06479 0.10211 0.02401 0.0
C340 C 0.05843 0.09958 0.00557 0.0
C341 C 0.05777 0.13185 0.02901 0.0
C342 C 0.05134 0.11285 0.99904 0.0
C343 C 0.06494 0.11851 0.03557 0.0
C344 C 0.05031 0.12879 0.01085 0.0
C345 C 0.06782 0.0866 0.03163 0.0
O346 O 0.05443 0.00983 0.0146 0.0
O347 O 0.06743 0.03646 0.03305 0.0
C348 C 0.06804 0.01996 0.02536 0.0
O349 O 0.03367 0.04917 0.04675 0.0
O350 O 0.0223 0.98892 0.98868 0.0
O351 O 0.00387 0.99284 0.00908 0.0
O352 O 0.02226 0.01905 0.03883 0.0
C353 C 0.02428 0.03439 0.05069 0.0
O354 O 0.02411 0.05928 0.00918 0.0
O355 O 0.00612 0.0315 0.00602 0.0
O356 O 0.03579 0.02284 0.98131 0.0
O357 O 0.0548 0.07995 0.04044 0.0
O358 O 0.07331 0.07414 0.02061 0.0
O359 O 0.05949 0.04487 0.99413 0.0
C360 C 0.01339 0.9656 0.00387 0.0
C361 C 0.02443 0.96829 0.02015 0.0
C362 C 0.01282 0.93371 0.99963 0.0
C363 C 0.02958 0.95383 0.02619 0.0
C364 C 0.00759 0.94829 0.99358 0.0
C365 C 0.02385 0.93643 0.01599 0.0
C366 C 0.00959 0.98125 0.99719 0.0
C367 C 0.0081 0.04877 0.00649 0.0
H368 H 0.05795 0.08693 0.99642 0.0
H369 H 0.05709 0.14406 0.03836 0.0
H370 H 0.04596 0.11032 0.98491 0.0
H371 H 0.06956 0.12055 0.04989 0.0
H372 H 0.02934 0.98167 0.02804 0.0
H373 H 0.00824 0.92035 0.9916 0.0
H374 H 0.03836 0.9563 0.03866 0.0
H375 H 0.99929 0.94612 0.98084 0.0
Eu376 Eu 0.29474 0.78341 0.24575 0.0
Eu377 Eu 0.28065 0.78889 0.29314 0.0
C378 C 0.25818 0.79229 0.25962 0.0
C379 C 0.29576 0.79673 0.19894 0.0
C380 C 0.29137 0.81349 0.20515 0.0
C381 C 0.29867 0.80413 0.16893 0.0
C382 C 0.29045 0.82546 0.19323 0.0
C383 C 0.29944 0.79215 0.18081 0.0
C384 C 0.29412 0.8209 0.17498 0.0
C385 C 0.29671 0.78395 0.21117 0.0
O386 O 0.27534 0.75934 0.28157 0.0
O387 O 0.27814 0.75712 0.25006 0.0
C388 C 0.27361 0.75027 0.26461 0.0
O389 O 0.31778 0.77211 0.25695 0.0
O390 O 0.26563 0.78845 0.31702 0.0
O391 O 0.29489 0.79183 0.31976 0.0
O392 O 0.30097 0.78167 0.27613 0.0
C393 C 0.31493 0.77466 0.27395 0.0
O394 O 0.30791 0.8108 0.26242 0.0
O395 O 0.29258 0.81654 0.28877 0.0
O396 O 0.25582 0.78846 0.27582 0.0
O397 O 0.3107 0.78779 0.22314 0.0
O398 O 0.28186 0.77815 0.21806 0.0
O399 O 0.27426 0.79943 0.25602 0.0
C400 C 0.27857 0.77467 0.33898 0.0
C401 C 0.29104 0.76331 0.33874 0.0
C402 C 0.26309 0.75972 0.36124 0.0
C403 C 0.28969 0.75046 0.34986 0.0
C404 C 0.26452 0.77266 0.3502 0.0
C405 C 0.27578 0.7486 0.36136 0.0
C406 C 0.28001 0.7886 0.32764 0.0
C407 C 0.30427 0.82135 0.27723 0.0
H408 H 0.2887 0.81731 0.2192 0.0
H409 H 0.30133 0.80013 0.15491 0.0
H410 H 0.28707 0.83834 0.19832 0.0
H411 H 0.30287 0.77927 0.17582 0.0
H412 H 0.30199 0.76444 0.33015 0.0
H413 H 0.25207 0.75847 0.36974 0.0
H414 H 0.29985 0.74231 0.34979 0.0
H415 H 0.25467 0.78118 0.3505 0.0
Eu416 Eu 0.55443 0.0306 0.51125 0.0
Eu417 Eu 0.5146 0.03407 0.52584 0.0
C418 C 0.5495 0.04404 0.55241 0.0
C419 C 0.59751 0.01285 0.50283 0.0
C420 C 0.59799 1.00463 0.51812 0.0
C421 C 0.62015 0.997 0.4905 0.0
C422 C 0.60973 0.99291 0.51973 0.0
C423 C 0.60851 0.00881 0.48898 0.0
C424 C 0.62109 0.98907 0.50601 0.0
C425 C 0.58577 0.02575 0.50118 0.0
O426 O 0.52784 0.06156 0.52235 0.0
O427 O 0.54997 0.05627 0.50341 0.0
C428 C 0.53977 0.06671 0.51135 0.0
O429 O 0.53338 0.01823 0.48796 0.0
O430 O 0.49968 0.04646 0.54675 0.0
O431 O 0.48552 0.02618 0.52417 0.0
O432 O 0.51189 0.03453 0.49611 0.0
C433 C 0.51927 0.02474 0.48377 0.0
O434 O 0.54546 0.0071 0.52472 0.0
O435 O 0.51518 1.00482 0.51929 0.0
O436 O 0.53363 0.03364 0.54953 0.0
O437 O 0.57084 0.01963 0.49078 0.0
O438 O 0.58356 0.03621 0.51619 0.0
O439 O 0.55804 0.04855 0.53875 0.0
C440 C 0.47194 0.05061 0.53503 0.0
C441 C 0.47056 0.05649 0.51839 0.0
C442 C 0.45135 0.06929 0.54684 0.0
C443 C 0.45942 0.06852 0.5159 0.0
C444 C 0.46239 0.05715 0.54926 0.0
C445 C 0.44964 0.07502 0.53009 0.0
C446 C 0.48416 0.03856 0.53806 0.0
C447 C 0.52907 0.99763 0.52249 0.0
H448 H 0.58949 0.00746 0.52892 0.0
H449 H 0.62842 0.99409 0.47951 0.0
H450 H 0.61021 0.98723 0.53195 0.0
H451 H 0.60818 0.01489 0.477 0.0
H452 H 0.47808 0.0518 0.50732 0.0
H453 H 0.44425 0.07427 0.55814 0.0
H454 H 0.45825 0.07247 0.50277 0.0
H455 H 0.46358 0.05299 0.56229 0.0
Eu456 Eu 0.26934 0.28938 0.76084 0.0
Eu457 Eu 0.30699 0.27825 0.76852 0.0
C458 C 0.27008 0.24789 0.76644 0.0
C459 C 0.22266 0.29743 0.76464 0.0
C460 C 0.2208 0.28668 0.77794 0.0
C461 C 0.19686 0.30956 0.7741 0.0
C462 C 0.20719 0.28755 0.78945 0.0
C463 C 0.21053 0.30868 0.76256 0.0
C464 C 0.1953 0.29923 0.78784 0.0
C465 C 0.23875 0.29894 0.75504 0.0
O466 O 0.29983 0.2688 0.73837 0.0
O467 O 0.28148 0.2882 0.73419 0.0
C468 C 0.29132 0.27683 0.72764 0.0
O469 O 0.28926 0.31638 0.76654 0.0
O470 O 0.32191 0.25698 0.76981 0.0
O471 O 0.33573 0.28464 0.7768 0.0
O472 O 0.3152 0.30642 0.76119 0.0
C473 C 0.30635 0.31978 0.76357 0.0
O474 O 0.2706 0.28797 0.79069 0.0
O475 O 0.30097 0.29093 0.79608 0.0
O476 O 0.28672 0.25408 0.77377 0.0
O477 O 0.25268 0.30947 0.76462 0.0
O478 O 0.24248 0.28394 0.74666 0.0
O479 O 0.26153 0.25854 0.75868 0.0
C480 C 0.34988 0.26375 0.75897 0.0
C481 C 0.35799 0.2769 0.74964 0.0
C482 C 0.36094 0.2411 0.73839 0.0
C483 C 0.36731 0.27216 0.73471 0.0
C484 C 0.35173 0.24588 0.75346 0.0
C485 C 0.36857 0.25418 0.7287 0.0
C486 C 0.33737 0.26793 0.77251 0.0
C487 C 0.28514 0.29097 0.80196 0.0
H488 H 0.23035 0.27821 0.77992 0.0
H489 H 0.18774 0.31854 0.77251 0.0
H490 H 0.20645 0.27964 0.80009 0.0
H491 H 0.21203 0.31723 0.75248 0.0
H492 H 0.35676 0.29078 0.75349 0.0
H493 H 0.36177 0.22716 0.7341 0.0
H494 H 0.37356 0.28265 0.7279 0.0
H495 H 0.34545 0.2355 0.7604 0.0
Eu496 Eu 0.03277 0.04875 0.52541 0.0
Eu497 Eu 0.04628 0.01351 0.50465 0.0
C498 C 0.07083 0.05283 0.50689 0.0
C499 C 0.02109 0.0929 0.52816 0.0
C500 C 0.02733 0.0917 0.51082 0.0
C501 C 0.01537 0.12247 0.52655 0.0
C502 C 0.02754 0.10569 0.50137 0.0
C503 C 0.01504 0.1083 0.53601 0.0
C504 C 0.02163 0.12124 0.50914 0.0
C505 C 0.02144 0.07797 0.53771 0.0
O506 O 0.0551 0.01516 0.53524 0.0
O507 O 0.0479 0.04144 0.54953 0.0
C508 C 0.05523 0.02729 0.55022 0.0
O509 O 0.01449 0.02582 0.53374 0.0
O510 O 0.06636 0.99656 0.5028 0.0
O511 O 0.04213 0.98883 0.48438 0.0
O512 O 0.01803 1.00335 0.51073 0.0
C513 C 0.00928 0.00955 0.52421 0.0
O514 O 0.02101 0.04493 0.4954 0.0
O515 O 0.03475 0.02349 0.48017 0.0
O516 O 0.06801 0.03564 0.50008 0.0
O517 O 0.01074 0.06299 0.53 0.0
O518 O 0.03747 0.07554 0.5422 0.0
O519 O 0.05963 0.06016 0.51694 0.0
C520 C 0.05218 0.96638 0.49742 0.0
C521 C 0.03502 0.96 0.50234 0.0
C522 C 0.06319 0.94285 0.50963 0.0
C523 C 0.03202 0.94534 0.51098 0.0
C524 C 0.06619 0.95756 0.50085 0.0
C525 C 0.04611 0.9368 0.51497 0.0
C526 C 0.05594 0.98363 0.4913 0.0
C527 C 0.02422 0.03529 0.47993 0.0
H528 H 0.0323 0.08 0.50467 0.0
H529 H 0.01075 0.13436 0.53281 0.0
H530 H 0.0328 0.10452 0.48817 0.0
H531 H 0.01024 0.1094 0.54942 0.0
H532 H 0.02404 0.96677 0.50023 0.0
H533 H 0.07425 0.93643 0.51253 0.0
H534 H 0.0188 0.94121 0.51526 0.0
H535 H 0.07957 0.96246 0.49739 0.0
Eu536 Eu 0.30616 0.79478 0.759 0.0
Eu537 Eu 0.27042 0.77073 0.76832 0.0
C538 C 0.2939 0.79825 0.80004 0.0
C539 C 0.35456 0.81225 0.76627 0.0
C540 C 0.35371 0.80348 0.78119 0.0
C541 C 0.38694 0.81785 0.77048 0.0
C542 C 0.36934 0.80197 0.79076 0.0
C543 C 0.3712 0.81944 0.7609 0.0
C544 C 0.38609 0.80911 0.7855 0.0
C545 C 0.33785 0.8131 0.75626 0.0
O546 O 0.26216 0.79809 0.76517 0.0
O547 O 0.2863 0.81292 0.75333 0.0
C548 C 0.27002 0.81244 0.75884 0.0
O549 O 0.29342 0.78294 0.73083 0.0
O550 O 0.24615 0.76935 0.78257 0.0
O551 O 0.25125 0.74552 0.76555 0.0
O552 O 0.27066 0.76203 0.73782 0.0
C553 C 0.28067 0.7687 0.72596 0.0
O554 O 0.31532 0.76833 0.76389 0.0
O555 O 0.28957 0.751 0.77018 0.0
O556 O 0.2856 0.78152 0.79587 0.0
O557 O 0.33048 0.79846 0.74488 0.0
O558 O 0.32632 0.8194 0.76639 0.0
O559 O 0.3007 0.80642 0.7874 0.0
C560 C 0.22178 0.75043 0.76451 0.0
C561 C 0.22027 0.74908 0.74552 0.0
C562 C 0.19047 0.75249 0.76499 0.0
C563 C 0.20409 0.74977 0.7364 0.0
C564 C 0.20672 0.75171 0.77415 0.0
C565 C 0.18922 0.75205 0.74611 0.0
C566 C 0.23948 0.75295 0.77436 0.0
C567 C 0.30671 0.75276 0.76729 0.0
H568 H 0.34091 0.7977 0.78538 0.0
H569 H 0.39976 0.82353 0.76625 0.0
H570 H 0.36832 0.79492 0.80209 0.0
H571 H 0.37199 0.82615 0.74933 0.0
H572 H 0.23177 0.74824 0.73779 0.0
H573 H 0.1792 0.75435 0.77278 0.0
H574 H 0.20337 0.7491 0.72179 0.0
H575 H 0.20776 0.75296 0.78884 0.0
Eu576 Eu 0.54035 0.02838 0.03552 0.0
Eu577 Eu 0.53427 0.02773 0.99154 0.0
C578 C 0.53282 0.06185 0.02025 0.0
C579 C 0.53656 0.02211 0.08445 0.0
C580 C 0.53304 0.03221 0.10081 0.0
C581 C 0.52088 0.99497 0.09299 0.0
C582 C 0.52312 0.02376 0.11303 0.0
C583 C 0.53068 1.00342 0.08074 0.0
C584 C 0.51663 0.0051 0.10901 0.0
C585 C 0.54518 0.03128 0.07083 0.0
O586 O 0.56427 0.03154 0.99774 0.0
O587 O 0.56623 0.04405 0.02811 0.0
C588 C 0.5737 0.04053 0.01283 0.0
O589 O 0.54795 1.00334 0.02161 0.0
O590 O 0.5267 0.03712 0.96685 0.0
O591 O 0.53478 0.01137 0.96494 0.0
O592 O 0.5274 1.00011 0.99763 0.0
C593 C 0.53848 0.99353 0.00714 0.0
O594 O 0.51131 0.01362 0.02717 0.0
O595 O 0.50659 0.02516 1.00121 0.0
O596 O 0.53942 0.05706 0.00479 0.0
O597 O 0.55367 0.02197 0.05932 0.0
O598 O 0.53556 0.04057 0.06291 0.0
O599 O 0.52679 0.04994 0.02984 0.0
C600 C 0.54517 0.02924 0.94399 0.0
C601 C 0.5628 0.02639 0.94662 0.0
C602 C 0.55436 0.04685 0.92126 0.0
C603 C 0.57618 0.03407 0.93686 0.0
C604 C 0.54094 0.03903 0.93086 0.0
C605 C 0.57214 0.04487 0.9246 0.0
C606 C 0.53176 0.02393 0.95628 0.0
C607 C 0.50038 0.01685 0.0142 0.0
H608 H 0.53739 0.04667 0.10379 0.0
H609 H 0.51613 0.98057 0.08966 0.0
H610 H 0.51978 0.03194 0.12516 0.0
H611 H 0.53318 0.99538 0.06811 0.0
H612 H 0.56642 0.01883 0.95669 0.0
H613 H 0.5509 0.05473 0.91142 0.0
H614 H 0.58978 0.03218 0.93942 0.0
H615 H 0.52741 0.04123 0.92857 0.0
Eu616 Eu 0.297 0.30188 0.27582 0.0
Eu617 Eu 0.2813 0.26173 0.25212 0.0
C618 C 0.28686 0.29588 0.23314 0.0
C619 C 0.2955 0.34784 0.29704 0.0
C620 C 0.27754 0.343 0.28976 0.0
C621 C 0.29205 0.37857 0.30604 0.0
C622 C 0.26694 0.35586 0.29042 0.0
C623 C 0.30271 0.36559 0.3054 0.0
C624 C 0.27418 0.3738 0.29823 0.0
C625 C 0.30646 0.33418 0.29484 0.0
O626 O 0.31023 0.26308 0.26089 0.0
O627 O 0.32009 0.29311 0.26248 0.0
C628 C 0.32307 0.27675 0.26035 0.0
O629 O 0.30326 0.28281 0.29373 0.0
O630 O 0.28233 0.24174 0.22799 0.0
O631 O 0.2635 0.23548 0.24759 0.0
O632 O 0.27981 0.25989 0.28179 0.0
C633 C 0.29184 0.26831 0.29528 0.0
O634 O 0.26818 0.29342 0.28044 0.0
O635 O 0.25791 0.27546 0.2529 0.0
O636 O 0.28967 0.27956 0.23233 0.0
O637 O 0.30047 0.32024 0.30194 0.0
O638 O 0.31074 0.32969 0.27828 0.0
O639 O 0.28513 0.30588 0.24879 0.0
C640 C 0.28041 0.2143 0.23679 0.0
C641 C 0.29354 0.21742 0.25148 0.0
C642 C 0.28612 0.18436 0.22753 0.0
C643 C 0.30298 0.20426 0.25416 0.0
C644 C 0.27678 0.1978 0.22467 0.0
C645 C 0.29918 0.1875 0.24243 0.0
C646 C 0.27184 0.2291 0.23395 0.0
C647 C 0.255 0.2851 0.26817 0.0
H648 H 0.27181 0.32931 0.2832 0.0
H649 H 0.29792 0.39239 0.31201 0.0
H650 H 0.25315 0.35183 0.28451 0.0
H651 H 0.3166 0.36945 0.311 0.0
H652 H 0.29657 0.23015 0.26089 0.0
H653 H 0.28292 0.17148 0.21836 0.0
H654 H 0.31323 0.20719 0.26551 0.0
H655 H 0.26681 0.19535 0.21314 0.0
Eu656 Eu 0.53191 0.54925 0.02627 0.0
Eu657 Eu 0.54602 0.51443 0.00617 0.0
C658 C 0.56929 0.55344 0.00776 0.0
C659 C 0.5241 0.59549 0.0315 0.0
C660 C 0.5397 0.6008 0.02315 0.0
C661 C 0.51082 0.6181 0.01999 0.0
C662 C 0.54081 0.61451 0.01321 0.0
C663 C 0.50974 0.60436 0.03006 0.0
C664 C 0.52626 0.62305 0.0112 0.0
C665 C 0.52185 0.57904 0.03908 0.0
O666 O 0.55896 0.52001 0.03589 0.0
O667 O 0.5419 0.5383 0.05088 0.0
C668 C 0.55412 0.52819 0.05135 0.0
O669 O 0.50924 0.52713 0.02863 0.0
O670 O 0.56813 0.50005 1.00297 0.0
O671 O 0.54222 0.48826 0.9883 0.0
O672 O 0.52066 0.50236 0.01724 0.0
C673 C 0.50802 0.50974 0.02474 0.0
O674 O 0.52458 0.54831 0.99555 0.0
O675 O 0.52969 0.52083 0.98219 0.0
O676 O 0.5639 0.53748 0.99765 0.0
O677 O 0.51113 0.56532 0.02893 0.0
O678 O 0.53653 0.57482 0.04533 0.0
O679 O 0.56059 0.55913 0.02148 0.0
C680 C 0.55638 0.47006 1.00336 0.0
C681 C 0.54823 0.47107 0.01973 0.0
C682 C 0.55878 0.43936 0.00436 0.0
C683 C 0.54484 0.45624 0.02804 0.0
C684 C 0.56195 0.45427 0.99581 0.0
C685 C 0.5498 0.44021 0.02027 0.0
C686 C 0.55768 0.48538 0.99413 0.0
C687 C 0.52343 0.53551 0.98095 0.0
H688 H 0.55086 0.59396 0.02376 0.0
H689 H 0.49937 0.62441 0.01857 0.0
H690 H 0.55303 0.61827 0.00689 0.0
H691 H 0.49746 0.60018 0.0361 0.0
H692 H 0.544 0.48322 0.02584 0.0
H693 H 0.56267 0.42702 0.99822 0.0
H694 H 0.53802 0.45716 0.04038 0.0
H695 H 0.56827 0.45333 0.98318 0.0
Eu696 Eu 0.80801 0.29659 0.26615 0.0
Eu697 Eu 0.77005 0.27142 0.26625 0.0
C698 C 0.78939 0.29566 0.30337 0.0
C699 C 0.85724 0.30936 0.26782 0.0
C700 C 0.8587 0.29537 0.27717 0.0
C701 C 0.88881 0.3128 0.26332 0.0
C702 C 0.87508 0.29046 0.28003 0.0
C703 C 0.87227 0.3178 0.26052 0.0
C704 C 0.89042 0.29935 0.2735 0.0
C705 C 0.84011 0.31526 0.26649 0.0
O706 O 0.76224 0.29924 0.26559 0.0
O707 O 0.78875 0.31516 0.25901 0.0
C708 C 0.77155 0.31432 0.26182 0.0
O709 O 0.80334 0.27686 0.23974 0.0
O710 O 0.7442 0.26581 0.27729 0.0
O711 O 0.75145 0.24611 0.25623 0.0
O712 O 0.77302 0.27221 0.23649 0.0
C713 C 0.78821 0.27086 0.22955 0.0
O714 O 0.81609 0.27047 0.27309 0.0
O715 O 0.7892 0.25113 0.26524 0.0
O716 O 0.78016 0.2797 0.29604 0.0
O717 O 0.82971 0.30856 0.25147 0.0
O718 O 0.83143 0.31482 0.28095 0.0
O719 O 0.79889 0.30553 0.29353 0.0
C720 C 0.72177 0.24997 0.25495 0.0
C721 C 0.72188 0.25694 0.23888 0.0
C722 C 0.68939 0.24489 0.25252 0.0
C723 C 0.70584 0.25805 0.22975 0.0
C724 C 0.70551 0.24371 0.26163 0.0
C725 C 0.68949 0.25233 0.23667 0.0
C726 C 0.73867 0.25093 0.26556 0.0
C727 C 0.80675 0.25371 0.26936 0.0
H728 H 0.84732 0.28871 0.28304 0.0
H729 H 0.90041 0.31978 0.25798 0.0
H730 H 0.87583 0.28035 0.28828 0.0
H731 H 0.87131 0.32852 0.25312 0.0
H732 H 0.73439 0.26209 0.23371 0.0
H733 H 0.6769 0.24032 0.25802 0.0
H734 H 0.7063 0.26411 0.21774 0.0
H735 H 0.7053 0.23844 0.27412 0.0
Eu736 Eu 0.04039 0.52444 0.53185 0.0
Eu737 Eu 0.03208 0.53478 0.49253 0.0
C738 C 0.03201 0.56217 0.52913 0.0
C739 C 0.03327 0.50701 0.57442 0.0
C740 C 0.01705 0.51305 0.575 0.0
C741 C 0.02247 0.48546 0.59319 0.0
C742 C 0.00363 0.50539 0.58459 0.0
C743 C 0.03599 0.49321 0.58355 0.0
C744 C 0.0061 0.49138 0.5936 0.0
C745 C 0.04597 0.51313 0.56197 0.0
O746 O 0.06232 0.53772 0.49596 0.0
O747 O 0.06626 0.54195 0.52715 0.0
C748 C 0.07277 0.54279 0.51134 0.0
O749 O 0.05089 0.50634 0.51049 0.0
O750 O 0.0261 0.55463 0.47679 0.0
O751 O 0.02828 0.52818 0.46292 0.0
O752 O 0.02934 0.50477 0.48785 0.0
C753 C 0.04111 0.49751 0.49574 0.0
O754 O 0.01083 0.5122 0.52366 0.0
O755 O 0.00483 0.5294 0.50282 0.0
O756 O 0.03899 0.5601 0.51353 0.0
O757 O 0.04359 0.50277 0.54595 0.0
O758 O 0.04834 0.53016 0.56106 0.0
O759 O 0.02787 0.54863 0.53746 0.0
C760 C 0.04316 0.55307 0.4517 0.0
C761 C 0.05634 0.54342 0.44572 0.0
C762 C 0.06093 0.5799 0.44418 0.0
C763 C 0.0717 0.55195 0.43934 0.0
C764 C 0.04547 0.57133 0.45065 0.0
C765 C 0.0743 0.57031 0.43874 0.0
C766 C 0.02862 0.54484 0.46147 0.0
C767 C 0.99934 0.51823 0.51364 0.0
H768 H 0.01458 0.52344 0.56768 0.0
H769 H 0.0247 0.47474 0.60011 0.0
H770 H 0.99137 0.5106 0.58509 0.0
H771 H 0.04833 0.48816 0.58282 0.0
H772 H 0.05508 0.52935 0.44638 0.0
H773 H 0.06254 0.59403 0.44362 0.0
H774 H 0.08148 0.54404 0.43464 0.0
H775 H 0.03557 0.57909 0.45535 0.0
Eu776 Eu 0.77028 0.79021 0.26135 0.0
Eu777 Eu 0.80808 0.77985 0.26765 0.0
C778 C 0.77179 0.74871 0.26602 0.0
C779 C 0.72361 0.79885 0.26606 0.0
C780 C 0.71959 0.78552 0.27656 0.0
C781 C 0.70017 0.81315 0.27856 0.0
C782 C 0.70601 0.78611 0.28816 0.0
C783 C 0.71367 0.81246 0.26684 0.0
C784 C 0.69649 0.80016 0.28953 0.0
C785 C 0.73982 0.80031 0.25664 0.0
O786 O 0.80061 0.7703 0.23757 0.0
O787 O 0.78128 0.78897 0.2341 0.0
C788 C 0.79131 0.77796 0.22714 0.0
O789 O 0.79033 0.81718 0.26855 0.0
O790 O 0.82452 0.75964 0.268 0.0
O791 O 0.8367 0.78776 0.27626 0.0
O792 O 0.81474 0.80712 0.25832 0.0
C793 C 0.80652 0.82065 0.26307 0.0
O794 O 0.77182 0.78664 0.29059 0.0
O795 O 0.8023 0.79309 0.29524 0.0
O796 O 0.78864 0.75496 0.27272 0.0
O797 O 0.75385 0.81038 0.26648 0.0
O798 O 0.74329 0.78543 0.24765 0.0
O799 O 0.76272 0.75938 0.25894 0.0
C800 C 0.85184 0.76914 0.25746 0.0
C801 C 0.85028 0.77692 0.24198 0.0
C802 C 0.87353 0.75307 0.24376 0.0
C803 C 0.86035 0.77284 0.22747 0.0
C804 C 0.8635 0.75724 0.25833 0.0
C805 C 0.87191 0.76075 0.22818 0.0
C806 C 0.8394 0.77148 0.2713 0.0
C807 C 0.78658 0.79123 0.30162 0.0
H808 H 0.72745 0.77514 0.27637 0.0
H809 H 0.69286 0.82399 0.27932 0.0
H810 H 0.70349 0.77606 0.29664 0.0
H811 H 0.71687 0.82297 0.25898 0.0
H812 H 0.84094 0.78581 0.24092 0.0
H813 H 0.88261 0.74393 0.2447 0.0
H814 H 0.85886 0.77885 0.21557 0.0
H815 H 0.86455 0.7509 0.27007 0.0
Eu816 Eu 0.79347 0.28331 0.75012 0.0
Eu817 Eu 0.77426 0.28198 0.78892 0.0
C818 C 0.75136 0.277 0.75121 0.0
C819 C 0.8055 0.299 0.70623 0.0
C820 C 0.79202 0.30922 0.70707 0.0
C821 C 0.81515 0.31045 0.67946 0.0
C822 C 0.7901 0.31997 0.69415 0.0
C823 C 0.81707 0.29972 0.69241 0.0
C824 C 0.80163 0.3207 0.68016 0.0
C825 C 0.80792 0.28803 0.72002 0.0
O826 O 0.77388 0.25354 0.77563 0.0
O827 O 0.79567 0.25603 0.75545 0.0
C828 C 0.78483 0.24662 0.76481 0.0
O829 O 0.81511 0.29179 0.77332 0.0
O830 O 0.75175 0.27129 0.80314 0.0
O831 O 0.77381 0.29135 0.81805 0.0
O832 O 0.80174 0.27683 0.79439 0.0
C833 C 0.81603 0.28506 0.7882 0.0
O834 O 0.78228 0.3082 0.75795 0.0
O835 O 0.78711 0.31048 0.78863 0.0
O836 O 0.75369 0.28577 0.76809 0.0
O837 O 0.81458 0.29695 0.73613 0.0
O838 O 0.79456 0.27504 0.72084 0.0
O839 O 0.76444 0.27091 0.74326 0.0
C840 C 0.76163 0.26769 0.83218 0.0
C841 C 0.77495 0.2573 0.83041 0.0
C842 C 0.75246 0.25512 0.85847 0.0
C843 C 0.77717 0.24607 0.84271 0.0
C844 C 0.7503 0.26647 0.84617 0.0
C845 C 0.76603 0.24494 0.85695 0.0
C846 C 0.75954 0.27945 0.81915 0.0
C847 C 0.78596 0.31798 0.77433 0.0
H848 H 0.783 0.30886 0.71773 0.0
H849 H 0.8244 0.31089 0.66902 0.0
H850 H 0.77942 0.32752 0.69496 0.0
H851 H 0.82766 0.29204 0.69168 0.0
H852 H 0.78366 0.25791 0.81951 0.0
H853 H 0.74376 0.25458 0.86938 0.0
H854 H 0.78755 0.23819 0.84102 0.0
H855 H 0.73989 0.27432 0.84761 0.0
Eu856 Eu 0.79102 0.79973 0.77386 0.0
Eu857 Eu 0.77404 0.75959 0.75024 0.0
C858 C 0.78349 0.79269 0.73026 0.0
C859 C 0.79317 0.84741 0.79393 0.0
C860 C 0.77987 0.84737 0.78018 0.0
C861 C 0.78651 0.87469 0.81106 0.0
C862 C 0.76983 0.86077 0.78191 0.0
C863 C 0.79652 0.86113 0.80936 0.0
C864 C 0.77293 0.87443 0.79744 0.0
C865 C 0.80178 0.83195 0.79297 0.0
O866 O 0.80373 0.76442 0.74857 0.0
O867 O 0.8138 0.78533 0.7746 0.0
C868 C 0.81657 0.77325 0.76105 0.0
O869 O 0.77913 0.78241 0.79307 0.0
O870 O 0.77252 0.7396 0.72543 0.0
O871 O 0.75672 0.73324 0.7474 0.0
O872 O 0.78438 0.75595 0.77794 0.0
C873 C 0.78169 0.7661 0.79307 0.0
O874 O 0.76299 0.8003 0.76363 0.0
O875 O 0.75128 0.77066 0.76235 0.0
O876 O 0.77121 0.7786 0.73117 0.0
O877 O 0.79273 0.81875 0.79935 0.0
O878 O 0.80767 0.82651 0.77737 0.0
O879 O 0.79495 0.80072 0.74436 0.0
C880 C 0.77248 0.71198 0.73372 0.0
C881 C 0.78515 0.71378 0.7486 0.0
C882 C 0.78024 0.68366 0.72068 0.0
C883 C 0.79524 0.7007 0.74958 0.0
C884 C 0.77005 0.6969 0.7197 0.0
C885 C 0.79303 0.68559 0.73559 0.0
C886 C 0.76338 0.7269 0.73251 0.0
C887 C 0.74938 0.78742 0.76432 0.0
H888 H 0.77699 0.83674 0.76825 0.0
H889 H 0.78909 0.88513 0.82315 0.0
H890 H 0.75966 0.86046 0.77106 0.0
H891 H 0.80656 0.86111 0.82021 0.0
H892 H 0.78742 0.72544 0.75942 0.0
H893 H 0.77832 0.6721 0.70973 0.0
H894 H 0.80468 0.70238 0.76143 0.0
H895 H 0.76053 0.69551 0.70798 0.0
Eu896 Eu 0.55095 0.55497 0.52346 0.0
Eu897 Eu 0.52736 0.51603 0.50913 0.0
C898 C 0.55314 0.5347 0.48097 0.0
C899 C 0.56358 0.60353 0.52664 0.0
C900 C 0.55424 0.60059 0.50934 0.0
C901 C 0.55858 0.63403 0.53238 0.0
C902 C 0.54687 0.61411 0.50372 0.0
C903 C 0.56601 0.62039 0.53805 0.0
C904 C 0.54852 0.63077 0.51537 0.0
C905 C 0.56787 0.58811 0.53356 0.0
O906 O 0.55282 0.51013 0.52238 0.0
O907 O 0.57131 0.53763 0.52554 0.0
C908 C 0.56898 0.52034 0.5252 0.0
O909 O 0.54167 0.54639 0.5501 0.0
O910 O 0.52045 0.49064 0.4897 0.0
O911 O 0.50506 0.4952 0.51272 0.0
O912 O 0.51709 0.52579 0.53686 0.0
C913 C 0.52579 0.53663 0.55158 0.0
O914 O 0.5228 0.55949 0.51752 0.0
O915 O 0.51041 0.53347 0.4979 0.0
O916 O 0.54478 0.5198 0.48555 0.0
O917 O 0.55547 0.58055 0.5425 0.0
O918 O 0.57356 0.57637 0.52181 0.0
O919 O 0.5541 0.55021 0.4923 0.0
C920 C 0.514 0.46771 0.50606 0.0
C921 C 0.52461 0.47035 0.52262 0.0
C922 C 0.51669 0.43654 0.50001 0.0
C923 C 0.53129 0.45627 0.52781 0.0
C924 C 0.51 0.45076 0.49476 0.0
C925 C 0.52745 0.43927 0.51655 0.0
C926 C 0.50924 0.48332 0.49996 0.0
C927 C 0.50945 0.54967 0.50617 0.0
H928 H 0.55195 0.58756 0.50044 0.0
H929 H 0.56002 0.64681 0.54158 0.0
H930 H 0.53949 0.61138 0.49039 0.0
H931 H 0.57292 0.62273 0.55156 0.0
H932 H 0.52814 0.48345 0.53139 0.0
H933 H 0.51347 0.42346 0.49118 0.0
H934 H 0.5398 0.45881 0.54046 0.0
H935 H 0.50207 0.44865 0.4818 0.0
Eu936 Eu 0.05144 0.52702 0.00783 0.0
Eu937 Eu 0.01328 0.53445 0.02435 0.0
C938 C 0.04857 0.53823 0.05027 0.0
C939 C 0.09332 0.50681 0.99864 0.0
C940 C 0.09885 0.50561 0.01652 0.0
C941 C 0.11273 0.48662 0.9871 0.0
C942 C 0.11144 0.49511 0.01966 0.0
C943 C 0.10027 0.49719 0.98399 0.0
C944 C 0.11852 0.48553 0.00497 0.0
C945 C 0.08016 0.51774 0.99483 0.0
O946 O 0.02927 0.56131 0.02209 0.0
O947 O 0.05026 0.55432 1.00223 0.0
C948 C 0.04146 0.56569 0.01104 0.0
O949 O 0.02983 0.52041 0.98453 0.0
O950 O 0.99971 0.54761 0.04601 0.0
O951 O 0.98413 0.52854 0.02334 0.0
O952 O 0.01068 0.5385 0.99571 0.0
C953 C 0.01696 0.52919 0.98209 0.0
O954 O 0.03969 0.50447 0.02145 0.0
O955 O 0.01058 0.50503 0.01375 0.0
O956 O 0.03149 0.53095 0.04736 0.0
O957 O 0.06393 0.50895 0.98922 0.0
O958 O 0.08039 0.53253 0.00644 0.0
O959 O 0.05825 0.54129 0.03683 0.0
C960 C 0.97263 0.55386 0.03518 0.0
C961 C 0.97675 0.56534 0.02275 0.0
C962 C 0.94739 0.56766 0.04312 0.0
C963 C 0.96616 0.57788 0.02045 0.0
C964 C 0.95798 0.5551 0.04538 0.0
C965 C 0.95135 0.57915 0.0306 0.0
C966 C 0.98379 0.5408 0.03766 0.0
C967 C 0.02303 0.49613 0.01714 0.0
H968 H 0.09347 0.51278 0.02802 0.0
H969 H 0.11809 0.47955 0.97553 0.0
H970 H 0.11551 0.49437 0.03356 0.0
H971 H 0.09609 0.49792 0.9701 0.0
H972 H 0.98815 0.56458 0.01485 0.0
H973 H 0.9359 0.56814 0.05093 0.0
H974 H 0.9696 0.58665 0.01083 0.0
H975 H 0.95468 0.54632 0.05503 0.0
H976 H 0.9806 0.22571 0.91733 0.0
H977 H 0.97846 0.20152 0.93475 0.0
H978 H 0.01139 0.2379 0.9797 0.0
H979 H 0.01283 0.26214 0.9628 0.0
H980 H 0.00794 0.19076 0.94161 0.0
H981 H 0.98031 0.20745 0.00741 0.0
H982 H 0.97697 0.21912 0.98896 0.0
H983 H 0.99713 0.22592 0.00439 0.0
C984 C 0.98675 0.22866 0.93121 0.0
C985 C 0.99711 0.24567 0.93865 0.0
C986 C 0.98548 0.21488 0.94116 0.0
C987 C 0.99472 0.2179 0.95854 0.0
C988 C 0.00376 0.2353 0.96653 0.0
H989 H 0.06008 0.1653 0.01597 0.0
H990 H 0.04356 0.18588 0.00389 0.0
C991 C 0.00474 0.24915 0.95674 0.0
C992 C 0.99834 0.2026 0.96653 0.0
H993 H 0.00303 0.18858 0.00699 0.0
C994 C 0.00636 0.18998 0.95577 0.0
C995 C 0.99647 0.20171 0.98505 0.0
C996 C 0.98707 0.21421 0.99701 0.0
C997 C 0.01351 0.17717 0.9633 0.0
C998 C 0.01254 0.17699 0.98202 0.0
C999 C 0.00383 0.18899 0.99264 0.0
C1000 C 0.02138 0.16493 0.99082 0.0
C1001 C 0.0229 0.1645 0.95146 0.0
C1002 C 0.01411 0.14655 0.98755 0.0
C1003 C 0.02346 0.13486 0.99435 0.0
C1004 C 0.04022 0.14144 0.00446 0.0
C1005 C 0.04719 0.15996 0.00823 0.0
C1006 C 0.0378 0.17166 1.0014 0.0
H1007 H 0.02416 0.16772 0.93764 0.0
H1008 H 0.0365 0.16496 0.95794 0.0
H1009 H 0.01524 0.15056 0.94999 0.0
H1010 H 1.0014 0.14124 0.97944 0.0
H1011 H 0.01763 0.12066 0.9916 0.0
H1012 H 0.1328 0.78422 0.13195 0.0
H1013 H 0.16174 0.78358 0.1477 0.0
H1014 H 0.13731 0.78359 0.19823 0.0
H1015 H 0.10846 0.78432 0.1828 0.0
H1016 H 0.17054 0.81194 0.19548 0.0
H1017 H 0.175 0.74015 0.17287 0.0
H1018 H 0.16746 0.75265 0.1567 0.0
H1019 H 0.15359 0.74697 0.17415 0.0
C1020 C 0.13364 0.78412 0.14642 0.0
C1021 C 0.11849 0.78444 0.15623 0.0
C1022 C 0.15007 0.7836 0.15529 0.0
C1023 C 0.15136 0.78335 0.17394 0.0
C1024 C 0.13632 0.78366 0.18374 0.0
H1025 H 0.22361 0.77559 0.26084 0.0
H1026 H 0.1985 0.77224 0.23767 0.0
C1027 C 0.11996 0.78421 0.17495 0.0
C1028 C 0.16863 0.78406 0.18379 0.0
H1029 H 0.19737 0.75793 0.19513 0.0
C1030 C 0.17661 0.80025 0.19526 0.0
C1031 C 0.17618 0.76865 0.18334 0.0
C1032 C 0.16769 0.75104 0.17115 0.0
C1033 C 0.19186 0.80132 0.20691 0.0
C1034 C 0.1992 0.78582 0.20683 0.0
C1035 C 0.19153 0.76971 0.19499 0.0
C1036 C 0.21447 0.78615 0.21962 0.0
C1037 C 0.1997 0.81879 0.2197 0.0
C1038 C 0.23149 0.79499 0.21682 0.0
C1039 C 0.24568 0.7971 0.22999 0.0
C1040 C 0.24298 0.79036 0.24609 0.0
C1041 C 0.22594 0.78113 0.24866 0.0
C1042 C 0.21171 0.77902 0.23542 0.0
H1043 H 0.19112 0.82895 0.21946 0.0
H1044 H 0.20154 0.8165 0.23386 0.0
H1045 H 0.21309 0.82435 0.21574 0.0
H1046 H 0.23367 0.80059 0.20464 0.0
H1047 H 0.25871 0.80417 0.2276 0.0
H1048 H 0.50311 0.83161 0.44579 0.0
H1049 H 0.5022 0.85788 0.46881 0.0
H1050 H 0.53215 0.89198 0.4366 0.0
H1051 H 0.53296 0.86576 0.41323 0.0
H1052 H 0.53098 0.88315 0.48865 0.0
H1053 H 0.48753 0.91389 0.44658 0.0
H1054 H 0.49005 0.89085 0.4404 0.0
H1055 H 0.50695 0.90874 0.43595 0.0
C1056 C 0.50949 0.84469 0.44353 0.0
C1057 C 0.51804 0.84665 0.42764 0.0
C1058 C 0.50895 0.85964 0.45672 0.0
C1059 C 0.51689 0.87675 0.4542 0.0
C1060 C 0.52567 0.87881 0.43853 0.0
H1061 H 0.55471 0.97711 0.51962 0.0
H1062 H 0.54967 0.94514 0.50724 0.0
C1063 C 0.52618 0.86385 0.42527 0.0
C1064 C 0.51616 0.89249 0.46811 0.0
H1065 H 0.50265 0.93253 0.474 0.0
C1066 C 0.5246 0.89389 0.4856 0.0
C1067 C 0.50747 0.90617 0.46407 0.0
C1068 C 0.49733 0.90481 0.44579 0.0
C1069 C 0.52538 0.90919 0.49899 0.0
C1070 C 0.51773 0.9234 0.49457 0.0
C1071 C 0.50851 0.92157 0.47734 0.0
C1072 C 0.52075 0.9411 0.50661 0.0
C1073 C 0.53464 0.91015 0.51759 0.0
C1074 C 0.50615 0.94925 0.51088 0.0
C1075 C 0.50897 0.96761 0.51773 0.0
C1076 C 0.52642 0.978 0.52029 0.0
C1077 C 0.54109 0.96947 0.51773 0.0
C1078 C 0.53825 0.95113 0.51078 0.0
H1079 H 0.53405 0.89654 0.52077 0.0
H1080 H 0.54898 0.91648 0.51785 0.0
H1081 H 0.52857 0.91828 0.52838 0.0
H1082 H 0.49255 0.94167 0.5077 0.0
H1083 H 0.49741 0.97381 0.51977 0.0
H1084 H 0.50254 0.27259 0.63486 0.0
H1085 H 0.47093 0.26868 0.64052 0.0
H1086 H 0.48315 0.25194 0.69104 0.0
H1087 H 0.51485 0.25569 0.68557 0.0
H1088 H 0.44882 0.23219 0.65167 0.0
H1089 H 0.45549 0.29815 0.69849 0.0
H1090 H 0.4704 0.29443 0.6809 0.0
H1091 H 0.47261 0.28525 0.70114 0.0
C1092 C 0.49855 0.26813 0.64722 0.0
C1093 C 0.51117 0.26446 0.65982 0.0
C1094 C 0.48051 0.26582 0.65032 0.0
C1095 C 0.47494 0.25998 0.66608 0.0
C1096 C 0.48741 0.25642 0.67876 0.0
H1097 H 0.39194 0.2312 0.72535 0.0
H1098 H 0.41411 0.22947 0.70328 0.0
C1099 C 0.50545 0.25862 0.67564 0.0
C1100 C 0.45609 0.25793 0.66964 0.0
H1101 H 0.42829 0.27729 0.69708 0.0
C1102 C 0.44415 0.24212 0.66135 0.0
C1103 C 0.45026 0.27107 0.68214 0.0
C1104 C 0.46277 0.28827 0.69117 0.0
C1105 C 0.42652 0.23867 0.66613 0.0
C1106 C 0.42099 0.25141 0.67933 0.0
C1107 C 0.43267 0.26765 0.68682 0.0
C1108 C 0.40423 0.2474 0.68775 0.0
C1109 C 0.41408 0.22128 0.65765 0.0
C1110 C 0.39094 0.25738 0.68564 0.0
C1111 C 0.37813 0.25826 0.69811 0.0
C1112 C 0.3788 0.2495 0.71304 0.0
C1113 C 0.39106 0.23808 0.714 0.0
C1114 C 0.4037 0.23702 0.70137 0.0
H1115 H 0.41924 0.21431 0.64539 0.0
H1116 H 0.41255 0.21228 0.66776 0.0
H1117 H 0.40058 0.22376 0.65381 0.0
H1118 H 0.39132 0.26555 0.67522 0.0
H1119 H 0.36849 0.26678 0.69679 0.0
H1120 H 0.99663 0.79704 0.57733 0.0
H1121 H 0.00699 0.82287 0.56325 0.0
H1122 H 0.01 0.8583 0.61518 0.0
H1123 H 0.99935 0.83257 0.62938 0.0
H1124 H 0.99565 0.87116 0.5864 0.0
H1125 H 0.05947 0.84961 0.57113 0.0
H1126 H 0.04018 0.83246 0.56224 0.0
H1127 H 0.04483 0.84 0.58648 0.0
C1128 C 0.99921 0.81035 0.5857 0.0
C1129 C 0.99733 0.8128 0.60446 0.0
C1130 C 0.0053 0.82505 0.57768 0.0
C1131 C 0.00973 0.84234 0.58834 0.0
C1132 C 0.00685 0.84497 0.60684 0.0
H1133 H 0.06713 0.93258 0.54413 0.0
H1134 H 0.05978 0.91071 0.56408 0.0
C1135 C 1.00068 0.83028 0.61487 0.0
C1136 C 0.01749 0.85763 0.58008 0.0
H1137 H 0.05157 0.87207 0.55538 0.0
C1138 C 0.00798 0.8715 0.5798 0.0
C1139 C 0.03384 0.85823 0.57197 0.0
C1140 C 0.04528 0.84438 0.57312 0.0
C1141 C 0.01384 0.88543 0.57054 0.0
C1142 C 0.02937 0.88519 0.56113 0.0
C1143 C 0.0395 0.87197 0.5624 0.0
C1144 C 0.03444 0.89773 0.54877 0.0
C1145 C 0.00321 0.90011 0.5706 0.0
C1146 C 0.0229 0.89707 0.53331 0.0
C1147 C 0.02712 0.9093 0.52186 0.0
C1148 C 0.04296 0.92239 0.5257 0.0
C1149 C 0.05491 0.92252 0.54078 0.0
C1150 C 0.05068 0.9102 0.55225 0.0
H1151 H 0.99505 0.90124 0.58242 0.0
H1152 H 0.01218 0.91328 0.57097 0.0
H1153 H 0.99393 0.897 0.55798 0.0
H1154 H 0.01051 0.8872 0.53023 0.0
H1155 H 0.01782 0.90875 0.51017 0.0
H1156 H 0.52645 0.79162 0.88333 0.0
H1157 H 0.49512 0.79003 0.8725 0.0
H1158 H 0.51145 0.80047 0.82059 0.0
H1159 H 0.54268 0.80221 0.83119 0.0
H1160 H 0.49092 0.82527 0.8423 0.0
H1161 H 0.45977 0.75245 0.83064 0.0
H1162 H 0.47445 0.7625 0.85103 0.0
H1163 H 0.4835 0.75995 0.82939 0.0
C1164 C 0.52332 0.79327 0.8695 0.0
C1165 C 0.53701 0.79723 0.85815 0.0
C1166 C 0.50546 0.79229 0.86336 0.0
C1167 C 0.50116 0.7951 0.8458 0.0
C1168 C 0.51466 0.79826 0.8342 0.0
H1169 H 0.41527 0.79831 0.77137 0.0
H1170 H 0.44233 0.79435 0.78825 0.0
C1171 C 0.53246 0.79931 0.84031 0.0
C1172 C 0.48292 0.79667 0.83994 0.0
H1173 H 0.44179 0.77217 0.82238 0.0
C1174 C 0.48007 0.81373 0.83817 0.0
C1175 C 0.46897 0.78151 0.83467 0.0
C1176 C 0.47168 0.76299 0.83643 0.0
C1177 C 0.46366 0.81597 0.83056 0.0
C1178 C 0.44993 0.80075 0.82465 0.0
C1179 C 0.45251 0.78374 0.827 0.0
C1180 C 0.4333 0.80225 0.81477 0.0
C1181 C 0.46126 0.83443 0.82817 0.0
C1182 C 0.41955 0.80806 0.82428 0.0
C1183 C 0.40421 0.81045 0.81473 0.0
C1184 C 0.40253 0.80708 0.79557 0.0
C1185 C 0.41638 0.80121 0.78612 0.0
C1186 C 0.43167 0.79876 0.79569 0.0
H1187 H 0.47346 0.84486 0.83322 0.0
H1188 H 0.4579 0.83441 0.81353 0.0
H1189 H 0.4499 0.83809 0.83564 0.0
H1190 H 0.42079 0.81093 0.83904 0.0
H1191 H 0.39374 0.8151 0.8223 0.0
H1192 H 0.49586 0.21689 0.07996 0.0
H1193 H 0.49906 0.18956 0.05931 0.0
H1194 H 0.50156 0.16237 0.10476 0.0
H1195 H 0.49847 0.1896 0.12558 0.0
H1196 H 0.53365 0.17119 0.07468 0.0
H1197 H 0.46468 0.13069 0.05385 0.0
H1198 H 0.46871 0.15495 0.05818 0.0
H1199 H 0.47066 0.14338 0.07673 0.0
C1200 C 0.49667 0.20497 0.08549 0.0
C1201 C 0.49718 0.20535 0.10434 0.0
C1202 C 0.49848 0.18945 0.07372 0.0
C1203 C 0.50052 0.17421 0.08069 0.0
C1204 C 0.49993 0.17415 0.09931 0.0
H1205 H 0.523 0.0737 0.05332 0.0
H1206 H 0.51578 0.10231 0.06489 0.0
C1207 C 0.49828 0.18968 0.11112 0.0
C1208 C 0.50562 0.15915 0.06894 0.0
H1209 H 0.48893 0.11785 0.0434 0.0
C1210 C 0.52393 0.15965 0.06747 0.0
C1211 C 0.49276 0.14417 0.0601 0.0
C1212 C 0.47305 0.14309 0.06219 0.0
C1213 C 0.52982 0.1451 0.05752 0.0
C1214 C 0.51697 0.13014 0.04853 0.0
C1215 C 0.49861 0.12978 0.0498 0.0
C1216 C 0.52234 0.11339 0.04099 0.0
C1217 C 0.54964 0.14519 0.05761 0.0
C1218 C 0.52886 0.11048 0.02378 0.0
C1219 C 0.53294 0.09378 0.01681 0.0
C1220 C 0.53045 0.08015 0.02714 0.0
C1221 C 0.52471 0.0837 0.04472 0.0
C1222 C 0.52057 0.10008 0.05148 0.0
H1223 H 0.5579 0.15773 0.06579 0.0
H1224 H 0.55276 0.13362 0.0633 0.0
H1225 H 0.55349 0.14363 0.04343 0.0
H1226 H 0.53043 0.12093 0.01572 0.0
H1227 H 0.53755 0.09141 1.00335 0.0
H1228 H 0.14711 0.28201 0.38121 0.0
H1229 H 0.16816 0.27987 0.35759 0.0
H1230 H 0.13063 0.29401 0.31995 0.0
H1231 H 0.10972 0.2962 0.34312 0.0
H1232 H 0.15807 0.25623 0.32036 0.0
H1233 H 0.17986 0.32916 0.31979 0.0
H1234 H 0.17072 0.32112 0.33923 0.0
H1235 H 0.15619 0.32056 0.31933 0.0
C1236 C 0.14347 0.28476 0.36794 0.0
C1237 C 0.12682 0.28919 0.36396 0.0
C1238 C 0.15541 0.28352 0.35453 0.0
C1239 C 0.15082 0.2869 0.33721 0.0
C1240 C 0.13436 0.29153 0.33333 0.0
H1241 H 0.22404 0.28943 0.25063 0.0
H1242 H 0.19451 0.28716 0.26302 0.0
C1243 C 0.12244 0.29268 0.34659 0.0
C1244 C 0.16293 0.28498 0.32287 0.0
H1245 H 0.19181 0.30895 0.29902 0.0
C1246 C 0.16535 0.2677 0.31554 0.0
C1247 C 0.17196 0.30001 0.31644 0.0
C1248 C 0.1697 0.31881 0.32411 0.0
C1249 C 0.17739 0.26514 0.3024 0.0
C1250 C 0.18724 0.28026 0.29679 0.0
C1251 C 0.184 0.29742 0.30329 0.0
C1252 C 0.20359 0.27913 0.2877 0.0
C1253 C 0.18008 0.2464 0.29523 0.0
C1254 C 0.21813 0.2754 0.29761 0.0
C1255 C 0.23476 0.2771 0.29088 0.0
C1256 C 0.23704 0.2824 0.27407 0.0
C1257 C 0.22238 0.28537 0.26366 0.0
C1258 C 0.20565 0.28401 0.27063 0.0
H1259 H 0.16794 0.23623 0.29607 0.0
H1260 H 0.18342 0.24494 0.28087 0.0
H1261 H 0.19135 0.24357 0.30359 0.0
H1262 H 0.21679 0.27195 0.31096 0.0
H1263 H 0.24595 0.27454 0.29896 0.0
H1264 H 0.91793 0.04781 0.1867 0.0
H1265 H 0.93328 0.04435 0.15868 0.0
H1266 H 0.98334 0.04936 0.19066 0.0
H1267 H 0.96801 0.05276 0.21867 0.0
H1268 H 0.95867 0.0645 0.14374 0.0
H1269 H 0.98684 0.00573 0.15439 0.0
H1270 H 0.97038 0.01375 0.16832 0.0
H1271 H 0.99366 0.02451 0.17283 0.0
C1272 C 0.93222 0.04814 0.1879 0.0
C1273 C 0.94146 0.05055 0.20542 0.0
C1274 C 0.94114 0.04616 0.17163 0.0
C1275 C 0.95975 0.04617 0.17188 0.0
C1276 C 0.96902 0.04875 0.18943 0.0
H1277 H 0.02452 0.06422 0.07772 0.0
H1278 H 0.00959 0.06684 0.10584 0.0
C1279 C 0.96013 0.05088 0.20572 0.0
C1280 C 0.96931 0.04387 0.15405 0.0
H1281 H 0.99739 0.01975 0.13013 0.0
C1282 C 0.96711 0.05466 0.14093 0.0
C1283 C 0.98034 0.03092 0.14953 0.0
C1284 C 0.98284 0.01793 0.16189 0.0
C1285 C 0.97557 0.05322 0.12428 0.0
C1286 C 0.98707 0.04066 0.12002 0.0
C1287 C 0.98895 0.02959 0.13295 0.0
C1288 C 0.997 0.03881 0.10241 0.0
C1289 C 0.97161 0.06502 0.11111 0.0
C1290 C 0.99599 0.02207 0.09058 0.0
C1291 C 0.0048 0.02049 0.07417 0.0
C1292 C 0.01533 0.03553 0.06882 0.0
C1293 C 0.01665 0.05217 0.0809 0.0
C1294 C 0.00781 0.05374 0.09719 0.0
H1295 H 0.95874 0.06953 0.11331 0.0
H1296 H 0.98242 0.07715 0.11323 0.0
H1297 H 0.97095 0.05793 0.09677 0.0
H1298 H 0.98803 0.0101 0.09384 0.0
H1299 H 0.0032 0.00738 0.06558 0.0
H1300 H 0.29268 0.67622 0.50038 0.0
H1301 H 0.28666 0.6924 0.47618 0.0
H1302 H 0.29488 0.64804 0.43591 0.0
H1303 H 0.3004 0.6315 0.46008 0.0
H1304 H 0.30819 0.70348 0.45167 0.0
H1305 H 0.24755 0.65643 0.41558 0.0
H1306 H 0.25679 0.65476 0.43782 0.0
H1307 H 0.26672 0.64624 0.41774 0.0
C1308 C 0.29321 0.66988 0.48638 0.0
C1309 C 0.29699 0.65257 0.48213 0.0
C1310 C 0.28971 0.67914 0.47256 0.0
C1311 C 0.28999 0.6713 0.45422 0.0
C1312 C 0.29411 0.65415 0.44993 0.0
H1313 H 0.28267 0.71448 0.35496 0.0
H1314 H 0.28516 0.69507 0.37722 0.0
C1315 C 0.29745 0.64479 0.46377 0.0
C1316 C 0.28668 0.68152 0.43976 0.0
H1317 H 0.25979 0.68056 0.40129 0.0
C1318 C 0.29756 0.69848 0.4407 0.0
C1319 C 0.27281 0.67495 0.42543 0.0
C1320 C 0.26018 0.65717 0.42412 0.0
C1321 C 0.29505 0.70902 0.42768 0.0
C1322 C 0.28117 0.7025 0.41342 0.0
C1323 C 0.27039 0.68548 0.4123 0.0
C1324 C 0.27781 0.71331 0.39959 0.0
C1325 C 0.30744 0.72698 0.42915 0.0
C1326 C 0.27234 0.7297 0.40473 0.0
C1327 C 0.2711 0.74089 0.39214 0.0
C1328 C 0.27519 0.73582 0.37413 0.0
C1329 C 0.27977 0.71893 0.36881 0.0
C1330 C 0.28105 0.70776 0.38145 0.0
H1331 H 0.31978 0.72819 0.43831 0.0
H1332 H 0.31135 0.72919 0.41555 0.0
H1333 H 0.30039 0.7378 0.4348 0.0
H1334 H 0.26955 0.73408 0.41865 0.0
H1335 H 0.26764 0.75383 0.39675 0.0
H1336 H 0.62008 1.00367 0.68402 0.0
H1337 H 0.60475 0.01281 0.65865 0.0
H1338 H 0.65179 0.0527 0.65587 0.0
H1339 H 0.66741 0.04301 0.68064 0.0
H1340 H 0.59807 0.04689 0.66205 0.0
H1341 H 0.63721 0.03174 0.6027 0.0
H1342 H 0.63965 0.02233 0.62292 0.0
H1343 H 0.64989 0.04523 0.62292 0.0
C1344 C 0.62733 0.01384 0.67742 0.0
C1345 C 0.6449 0.02249 0.68397 0.0
C1346 C 0.61856 0.01919 0.66314 0.0
C1347 C 0.62718 0.03342 0.65547 0.0
C1348 C 0.64507 0.04146 0.66138 0.0
H1349 H 0.57919 0.06992 0.56457 0.0
H1350 H 0.59812 0.07338 0.59296 0.0
C1351 C 0.65398 0.03586 0.67544 0.0
C1352 C 0.61679 0.04074 0.64248 0.0
H1353 H 0.61291 0.04581 0.59833 0.0
C1354 C 0.60136 0.0468 0.64813 0.0
C1355 C 0.62143 0.041 0.62455 0.0
C1356 C 0.63787 0.03462 0.61781 0.0
C1357 C 0.58983 0.05221 0.63595 0.0
C1358 C 0.59386 0.05135 0.6177 0.0
C1359 C 0.60991 0.04645 0.61239 0.0
C1360 C 0.58058 0.05274 0.60323 0.0
C1361 C 0.57325 0.05829 0.64262 0.0
C1362 C 0.5642 0.04044 0.60002 0.0
C1363 C 0.55335 0.03853 0.58394 0.0
C1364 C 0.55895 0.04863 0.57072 0.0
C1365 C 0.57472 0.06182 0.57449 0.0
C1366 C 0.58547 0.06387 0.5907 0.0
H1367 H 0.57557 0.06476 0.65725 0.0
H1368 H 0.5689 0.06787 0.63465 0.0
H1369 H 0.5622 0.04643 0.64128 0.0
H1370 H 0.56041 0.03139 0.6093 0.0
H1371 H 0.54126 0.02825 0.58135 0.0
H1372 H 0.3061 0.33926 0.97766 0.0
H1373 H 0.30511 0.3226 0.94629 0.0
H1374 H 0.25994 0.34484 0.93054 0.0
H1375 H 0.26109 0.36169 0.96146 0.0
H1376 H 0.27782 0.29806 0.9205 0.0
H1377 H 0.29948 0.36349 0.89936 0.0
H1378 H 0.30066 0.36105 0.92292 0.0
H1379 H 0.27974 0.36248 0.91139 0.0
C1380 C 0.29574 0.34024 0.96755 0.0
C1381 C 0.28386 0.35197 0.97185 0.0
C1382 C 0.29522 0.33078 0.94969 0.0
C1383 C 0.28272 0.33288 0.93607 0.0
C1384 C 0.26993 0.34339 0.94077 0.0
H1385 H 0.25678 0.29969 0.82006 0.0
H1386 H 0.25594 0.30802 0.85312 0.0
C1387 C 0.27059 0.35296 0.95844 0.0
C1388 C 0.28377 0.32546 0.91666 0.0
H1389 H 0.28923 0.33818 0.87557 0.0
C1390 C 0.28045 0.30679 0.91068 0.0
C1391 C 0.2874 0.33694 0.90393 0.0
C1392 C 0.29221 0.3571 0.90972 0.0
C1393 C 0.28004 0.29932 0.8921 0.0
C1394 C 0.28296 0.31084 0.8794 0.0
C1395 C 0.2867 0.32945 0.88542 0.0
C1396 C 0.28271 0.30395 0.85973 0.0
C1397 C 0.27624 0.27923 0.886 0.0
C1398 C 0.29803 0.29894 0.8527 0.0
C1399 C 0.29864 0.2944 0.83391 0.0
C1400 C 0.28389 0.29475 0.82184 0.0
C1401 C 0.26833 0.29928 0.829 0.0
C1402 C 0.26781 0.30399 0.84783 0.0
H1403 H 0.27312 0.27207 0.89743 0.0
H1404 H 0.26479 0.27509 0.8753 0.0
H1405 H 0.28809 0.27503 0.87991 0.0
H1406 H 0.30969 0.29902 0.86174 0.0
H1407 H 0.31079 0.29084 0.82885 0.0
H1408 H 0.93839 0.07016 0.33085 0.0
H1409 H 0.95166 0.06996 0.36185 0.0
H1410 H 0.97502 0.02498 0.34013 0.0
H1411 H 0.96255 0.02539 0.3098 0.0
H1412 H 0.94959 0.04713 0.38596 0.0
H1413 H 0.01913 0.05472 0.36762 0.0
H1414 H 1.00115 0.05747 0.35231 0.0
H1415 H 0.00527 0.03539 0.35347 0.0
C1416 C 0.94644 0.06029 0.33262 0.0
C1417 C 0.94939 0.048 0.31721 0.0
C1418 C 0.95411 0.06014 0.35055 0.0
C1419 C 0.9651 0.04777 0.35383 0.0
C1420 C 0.96742 0.03523 0.33849 0.0
H1421 H 0.02491 0.01616 0.44476 0.0
H1422 H 0.0106 0.01971 0.41575 0.0
C1423 C 0.95997 0.03543 0.32081 0.0
C1424 C 0.97399 0.04746 0.37289 0.0
H1425 H 0.01386 0.04445 0.3955 0.0
C1426 C 0.96371 0.04677 0.38797 0.0
C1427 C 0.99252 0.04691 0.37618 0.0
C1428 C 0.00519 0.04885 0.36159 0.0
C1429 C 0.97101 0.04491 0.40545 0.0
C1430 C 0.98947 0.04399 0.40861 0.0
C1431 C 0.99976 0.04495 0.39358 0.0
C1432 C 0.99832 0.04184 0.42705 0.0
C1433 C 0.9585 0.0432 0.42019 0.0
C1434 C 0.99686 0.05312 0.44377 0.0
C1435 C 0.00512 0.05103 0.46062 0.0
C1436 C 0.01545 0.03768 0.46167 0.0
C1437 C 0.01716 0.02661 0.44491 0.0
C1438 C 0.00887 0.02867 0.42808 0.0
H1439 H 0.94431 0.03859 0.41441 0.0
H1440 H 0.96189 0.03365 0.42871 0.0
H1441 H 0.95963 0.05653 0.42908 0.0
H1442 H 0.98949 0.06384 0.44386 0.0
H1443 H 0.00346 0.06008 0.47291 0.0
H1444 H 0.27982 0.63669 0.59655 0.0
H1445 H 0.2752 0.6603 0.62096 0.0
H1446 H 0.31736 0.69763 0.60392 0.0
H1447 H 0.32139 0.67412 0.57872 0.0
H1448 H 0.29557 0.67839 0.64926 0.0
H1449 H 0.28005 0.72743 0.60769 0.0
H1450 H 0.28175 0.70489 0.59756 0.0
H1451 H 0.30166 0.72191 0.60469 0.0
C1452 C 0.28817 0.64991 0.59799 0.0
C1453 C 0.301 0.6535 0.58568 0.0
C1454 C 0.28546 0.66346 0.61196 0.0
C1455 C 0.29566 0.68093 0.61418 0.0
C1456 C 0.30888 0.68446 0.60221 0.0
H1457 H 0.30302 0.77483 0.69937 0.0
H1458 H 0.30556 0.75398 0.67157 0.0
C1459 C 0.31134 0.67095 0.58793 0.0
C1460 C 0.29268 0.69507 0.62945 0.0
H1461 H 0.28342 0.73725 0.63982 0.0
C1462 C 0.2928 0.6912 0.64711 0.0
C1463 C 0.28912 0.71189 0.62678 0.0
C1464 C 0.28796 0.71674 0.60813 0.0
C1465 C 0.2896 0.70357 0.6621 0.0
C1466 C 0.28598 0.72033 0.65942 0.0
C1467 C 0.28607 0.72436 0.64184 0.0
C1468 C 0.2827 0.734 0.67488 0.0
C1469 C 0.29052 0.6987 0.68075 0.0
C1470 C 0.26845 0.73013 0.68556 0.0
C1471 C 0.26695 0.74203 0.70158 0.0
C1472 C 0.2796 0.75814 0.70714 0.0
C1473 C 0.29302 0.76258 0.6956 0.0
C1474 C 0.29455 0.75063 0.67967 0.0
H1475 H 0.29771 0.68747 0.68116 0.0
H1476 H 0.29734 0.71039 0.69122 0.0
H1477 H 0.2767 0.69439 0.68442 0.0
H1478 H 0.25885 0.71758 0.68188 0.0
H1479 H 0.25637 0.7382 0.71001 0.0
H1480 H 0.61996 0.08073 0.77805 0.0
H1481 H 0.61619 0.09161 0.81011 0.0
H1482 H 0.63723 0.04734 0.82502 0.0
H1483 H 0.64156 0.03681 0.79333 0.0
H1484 H 0.59582 0.0755 0.83145 0.0
H1485 H 0.665 0.08753 0.86288 0.0
H1486 H 0.65987 0.08473 0.83855 0.0
H1487 H 0.65965 0.06546 0.84921 0.0
C1488 C 0.62376 0.07336 0.78822 0.0
C1489 C 0.63111 0.05799 0.78329 0.0
C1490 C 0.62181 0.0797 0.80649 0.0
C1491 C 0.62711 0.07068 0.81999 0.0
C1492 C 0.63387 0.05499 0.81494 0.0
H1493 H 0.59687 0.03045 0.90534 0.0
H1494 H 0.6153 0.04443 0.88405 0.0
C1495 C 0.63603 0.04881 0.79679 0.0
C1496 C 0.62362 0.07614 0.8391 0.0
H1497 H 0.64134 0.07734 0.88226 0.0
C1498 C 0.60587 0.07661 0.84267 0.0
C1499 C 0.63685 0.07784 0.8537 0.0
C1500 C 0.65643 0.07907 0.85084 0.0
C1501 C 0.60053 0.07645 0.86019 0.0
C1502 C 0.61343 0.07602 0.87442 0.0
C1503 C 0.63152 0.07751 0.87124 0.0
C1504 C 0.60759 0.07023 0.89116 0.0
C1505 C 0.58084 0.07486 0.86288 0.0
C1506 C 0.59816 0.08053 0.9029 0.0
C1507 C 0.58742 0.07248 0.91478 0.0
C1508 C 0.58629 0.05419 0.9152 0.0
C1509 C 0.59745 0.04454 0.90507 0.0
C1510 C 0.60805 0.05254 0.89305 0.0
H1511 H 0.57245 0.07374 0.84994 0.0
H1512 H 0.57599 0.06289 0.86891 0.0
H1513 H 0.57882 0.08689 0.87242 0.0
H1514 H 0.59789 0.09427 0.90173 0.0
H1515 H 0.57918 0.08024 0.92285 0.0
H1516 H 0.29012 0.32818 0.06965 0.0
H1517 H 0.28766 0.31618 0.0979 0.0
H1518 H 0.29803 0.37001 0.12926 0.0
H1519 H 0.30062 0.38211 0.10128 0.0
H1520 H 0.31501 0.32491 0.13019 0.0
H1521 H 0.24953 0.34349 0.1451 0.0
H1522 H 0.25718 0.34126 0.12257 0.0
H1523 H 0.26629 0.36087 0.1395 0.0
C1524 C 0.29196 0.33744 0.08257 0.0
C1525 C 0.29556 0.35609 0.08323 0.0
C1526 C 0.29052 0.33058 0.09865 0.0
C1527 C 0.29242 0.34225 0.11557 0.0
C1528 C 0.29628 0.36082 0.11629 0.0
H1529 H 0.28728 0.33059 0.22871 0.0
H1530 H 0.28845 0.34189 0.2 0.0
C1531 C 0.29787 0.36769 0.10028 0.0
C1532 C 0.29066 0.33513 0.1326 0.0
H1533 H 0.26477 0.33289 0.16816 0.0
C1534 C 0.30399 0.32653 0.13846 0.0
C1535 C 0.27631 0.33742 0.14335 0.0
C1536 C 0.2614 0.34614 0.13732 0.0
C1537 C 0.30356 0.32046 0.15506 0.0
C1538 C 0.28918 0.32271 0.16584 0.0
C1539 C 0.2758 0.33125 0.15991 0.0
C1540 C 0.28763 0.31591 0.1831 0.0
C1541 C 0.31874 0.31206 0.1611 0.0
C1542 C 0.28624 0.29755 0.18299 0.0
C1543 C 0.28565 0.29112 0.19925 0.0
C1544 C 0.28624 0.30289 0.216 0.0
C1545 C 0.28689 0.32121 0.21605 0.0
C1546 C 0.28757 0.32767 0.19968 0.0
H1547 H 0.33092 0.31592 0.15412 0.0
H1548 H 0.32225 0.31602 0.17605 0.0
H1549 H 0.31457 0.29723 0.15768 0.0
H1550 H 0.28577 0.28818 0.1703 0.0
H1551 H 0.28489 0.27688 0.19866 0.0
H1552 H 0.23089 0.98798 0.02247 0.0
H1553 H 0.20336 0.9993 0.0286 0.0
H1554 H 0.17185 0.94964 0.99814 0.0
H1555 H 0.1992 0.93802 0.99276 0.0
H1556 H 0.1777 0.00644 0.00811 0.0
H1557 H 0.14595 0.95253 0.04242 0.0
H1558 H 0.1689 0.95481 0.03703 0.0
H1559 H 0.15083 0.94368 0.01992 0.0
C1560 C 0.21808 0.97945 0.01715 0.0
C1561 C 0.2173 0.96201 0.00726 0.0
C1562 C 0.20229 0.98594 0.02067 0.0
C1563 C 0.18531 0.97522 0.01429 0.0
C1564 C 0.18461 0.95802 0.00388 0.0
H1565 H 0.07447 0.98718 0.00961 0.0
H1566 H 0.10309 0.97739 0.00822 0.0
C1567 C 0.20034 0.95142 1.00063 0.0
C1568 C 0.16843 0.98215 0.01807 0.0
H1569 H 0.12696 0.97143 0.03322 0.0
C1570 C 0.1667 0.99884 0.01379 0.0
C1571 C 0.15394 0.97238 0.02555 0.0
C1572 C 0.15506 0.95496 0.03167 0.0
C1573 C 0.15083 0.00564 0.01611 0.0
C1574 C 0.1362 0.99565 0.02317 0.0
C1575 C 0.13804 0.97912 0.02774 0.0
C1576 C 0.1186 1.0016 0.02511 0.0
C1577 C 0.1497 0.0232 0.01032 0.0
C1578 C 0.11744 0.01833 0.03556 0.0
C1579 C 0.10095 0.02406 0.03635 0.0
C1580 C 0.08514 0.01312 0.02687 0.0
C1581 C 0.08626 0.99605 0.01712 0.0
C1582 C 0.10271 0.9904 0.01626 0.0
H1583 H 0.16001 0.0268 1.00098 0.0
H1584 H 0.13627 0.02268 1.0034 0.0
H1585 H 0.15199 0.03406 0.02255 0.0
H1586 H 0.12933 0.02708 0.04298 0.0
H1587 H 0.10069 0.03726 0.04403 0.0
H1588 H 0.70727 0.67567 1.00373 0.0
H1589 H 0.67865 0.65604 0.00577 0.0
H1590 H 0.69576 0.61205 0.97205 0.0
H1591 H 0.72472 0.63142 0.97067 0.0
H1592 H 0.65224 0.63776 0.98145 0.0
H1593 H 0.6818 0.58949 0.01451 0.0
H1594 H 0.69485 0.61058 0.01149 0.0
H1595 H 0.69008 0.59161 0.99292 0.0
C1596 C 0.70489 0.66183 0.99668 0.0
C1597 C 0.71826 0.65501 0.98717 0.0
C1598 C 0.68855 0.65062 0.99788 0.0
C1599 C 0.68521 0.63244 0.98945 0.0
C1600 C 0.69824 0.62585 0.97919 0.0
H1601 H 0.59302 0.5453 0.98293 0.0
H1602 H 0.62084 0.56455 0.97771 0.0
C1603 C 0.71471 0.63697 0.97826 0.0
C1604 C 0.66811 0.62045 0.99141 0.0
H1605 H 0.65063 0.58133 0.005 0.0
C1606 C 0.65191 0.62546 0.98665 0.0
C1607 C 0.66766 0.6044 0.99828 0.0
C1608 C 0.68452 0.59878 0.00477 0.0
C1609 C 0.63531 0.61479 0.98839 0.0
C1610 C 0.6349 0.59872 0.99509 0.0
C1611 C 0.65104 0.59361 0.99973 0.0
C1612 C 0.61785 0.58728 0.99791 0.0
C1613 C 0.61831 0.62072 0.98292 0.0
C1614 C 0.60708 0.59367 0.0111 0.0
C1615 C 0.59123 0.58273 0.01416 0.0
C1616 C 0.58586 0.56514 0.0041 0.0
C1617 C 0.5967 0.55879 0.99086 0.0
C1618 C 0.61262 0.56975 0.98787 0.0
H1619 H 0.62077 0.631 0.97418 0.0
H1620 H 0.60812 0.60912 0.97551 0.0
H1621 H 0.61266 0.62666 0.99535 0.0
H1622 H 0.61106 0.60706 0.0192 0.0
H1623 H 0.58328 0.58804 0.02452 0.0
H1624 H 0.72063 0.47352 0.26054 0.0
H1625 H 0.73434 0.44692 0.25966 0.0
H1626 H 0.68328 0.4156 0.26673 0.0
H1627 H 0.66955 0.44197 0.26703 0.0
H1628 H 0.74236 0.42552 0.27989 0.0
H1629 H 0.69334 0.37878 0.22852 0.0
H1630 H 0.69299 0.40238 0.23368 0.0
H1631 H 0.68269 0.38748 0.24787 0.0
C1632 C 0.71215 0.46098 0.26178 0.0
C1633 C 0.69363 0.46048 0.26371 0.0
C1634 C 0.72016 0.44545 0.2613 0.0
C1635 C 0.7102 0.42828 0.26263 0.0
C1636 C 0.69173 0.42793 0.26492 0.0
H1637 H 0.73588 0.31835 0.26619 0.0
H1638 H 0.72205 0.34478 0.26643 0.0
C1639 C 0.68372 0.44342 0.26531 0.0
C1640 C 0.71911 0.41129 0.26208 0.0
H1641 H 0.71367 0.36566 0.24447 0.0
C1642 C 0.73594 0.41255 0.27194 0.0
C1643 C 0.71141 0.3937 0.25193 0.0
C1644 C 0.69422 0.39048 0.23976 0.0
C1645 C 0.74464 0.3975 0.27233 0.0
C1646 C 0.73691 0.37993 0.26223 0.0
C1647 C 0.72008 0.37864 0.25239 0.0
C1648 C 0.74583 0.36297 0.26178 0.0
C1649 C 0.76194 0.40069 0.28431 0.0
C1650 C 0.76411 0.36315 0.2587 0.0
C1651 C 0.77218 0.34772 0.25852 0.0
C1652 C 0.76253 0.33095 0.26127 0.0
C1653 C 0.74417 0.33065 0.26401 0.0
C1654 C 0.73608 0.34608 0.26414 0.0
H1655 H 0.7631 0.41256 0.29541 0.0
H1656 H 0.7631 0.38886 0.29055 0.0
H1657 H 0.77337 0.40333 0.27599 0.0
H1658 H 0.77234 0.3753 0.25618 0.0
H1659 H 0.78622 0.34903 0.25624 0.0
H1660 H 0.8294 0.454 0.52452 0.0
H1661 H 0.86213 0.46302 0.52916 0.0
H1662 H 0.86066 0.49925 0.49158 0.0
H1663 H 0.82801 0.49054 0.48707 0.0
H1664 H 0.8872 0.45995 0.50446 0.0
H1665 H 0.892 0.53162 0.53455 0.0
H1666 H 0.87132 0.51535 0.5323 0.0
H1667 H 0.87856 0.52499 0.51311 0.0
C1668 C 0.836 0.46404 0.51738 0.0
C1669 C 0.82594 0.47161 0.50549 0.0
C1670 C 0.85477 0.46915 0.52001 0.0
C1671 C 0.86395 0.48205 0.51096 0.0
C1672 C 0.85395 0.4896 0.49908 0.0
H1673 H 0.97214 0.52799 0.49465 0.0
H1674 H 0.93991 0.51864 0.49539 0.0
C1675 C 0.83521 0.48451 0.49644 0.0
C1676 C 0.88399 0.48716 0.51335 0.0
H1677 H 0.91887 0.5232 0.52426 0.0
C1678 C 0.89413 0.47376 0.50899 0.0
C1679 C 0.89313 0.50516 0.51934 0.0
C1680 C 0.88321 0.52008 0.52527 0.0
C1681 C 0.913 0.47795 0.5097 0.0
C1682 C 0.92209 0.49602 0.5152 0.0
C1683 C 0.91197 0.50935 0.51998 0.0
C1684 C 0.94195 0.50156 0.51512 0.0
C1685 C 0.923 0.46307 0.50387 0.0
C1686 C 0.95404 0.49526 0.52614 0.0
C1687 C 0.97266 0.5006 0.52575 0.0
C1688 C 0.97961 0.51241 0.51436 0.0
C1689 C 0.96741 0.51883 0.50354 0.0
C1690 C 0.94889 0.51351 0.50396 0.0
H1691 H 0.91393 0.4507 0.4963 0.0
H1692 H 0.93364 0.46733 0.49512 0.0
H1693 H 0.92951 0.45973 0.51612 0.0
H1694 H 0.94908 0.48631 0.53515 0.0
H1695 H 0.98159 0.4955 0.5344 0.0
H1696 H 0.39452 0.09233 0.31039 0.0
H1697 H 0.37637 0.11362 0.30278 0.0
H1698 H 0.34259 0.07107 0.26366 0.0
H1699 H 0.35953 0.04974 0.27233 0.0
H1700 H 0.37496 0.12272 0.27137 0.0
H1701 H 0.30519 0.09513 0.2832 0.0
H1702 H 0.3239 0.08666 0.29167 0.0
H1703 H 0.3143 0.07893 0.2684 0.0
C1704 C 0.38267 0.08748 0.30085 0.0
C1705 C 0.37826 0.06946 0.2921 0.0
C1706 C 0.37244 0.09961 0.29636 0.0
C1707 C 0.35803 0.0939 0.28273 0.0
C1708 C 0.3532 0.07571 0.27463 0.0
H1709 H 0.31362 0.16378 0.21876 0.0
H1710 H 0.32902 0.14033 0.22656 0.0
C1711 C 0.36297 0.06351 0.2796 0.0
C1712 C 0.34943 0.10715 0.27546 0.0
H1713 H 0.30895 0.11703 0.26407 0.0
C1714 C 0.36053 0.12153 0.26991 0.0
C1715 C 0.33058 0.10542 0.27331 0.0
C1716 C 0.31786 0.09078 0.27964 0.0
C1717 C 0.35326 0.13443 0.26259 0.0
C1718 C 0.3345 0.13259 0.26046 0.0
C1719 C 0.32337 0.11808 0.26556 0.0
C1720 C 0.32612 0.14684 0.2554 0.0
C1721 C 0.36557 0.1503 0.25784 0.0
C1722 C 0.31943 0.15788 0.26908 0.0
C1723 C 0.31055 0.17094 0.26471 0.0
C1724 C 0.30832 0.17325 0.24658 0.0
C1725 C 0.31507 0.16214 0.23282 0.0
C1726 C 0.32397 0.14894 0.23723 0.0
H1727 H 0.37994 0.14978 0.26047 0.0
H1728 H 0.36276 0.15078 0.24324 0.0
H1729 H 0.36301 0.16292 0.26597 0.0
H1730 H 0.32094 0.15626 0.28314 0.0
H1731 H 0.30525 0.17911 0.27555 0.0
H1732 H 0.33118 0.16952 0.48896 0.0
H1733 H 0.36004 0.15949 0.49016 0.0
H1734 H 0.34149 0.12677 0.52903 0.0
H1735 H 0.3129 0.13643 0.52785 0.0
H1736 H 0.38573 0.15896 0.52401 0.0
H1737 H 0.35396 0.09248 0.48262 0.0
H1738 H 0.34458 0.11234 0.48252 0.0
H1739 H 0.3416 0.10039 0.50104 0.0
C1740 C 0.33336 0.1603 0.49785 0.0
C1741 C 0.31967 0.15351 0.50806 0.0
C1742 C 0.34981 0.15465 0.49854 0.0
C1743 C 0.35268 0.14226 0.50951 0.0
C1744 C 0.33937 0.13618 0.52032 0.0
H1745 H 0.41637 0.0743 0.54191 0.0
H1746 H 0.39507 0.09301 0.53585 0.0
C1747 C 0.32301 0.14167 0.51955 0.0
C1748 C 0.36901 0.13456 0.50917 0.0
H1749 H 0.38176 0.09412 0.49988 0.0
C1750 C 0.3851 0.1449 0.5184 0.0
C1751 C 0.36801 0.11624 0.50179 0.0
C1752 C 0.35116 0.10471 0.49129 0.0
C1753 C 0.39992 0.13698 0.52151 0.0
C1754 C 0.39848 0.11838 0.51507 0.0
C1755 C 0.38273 0.10836 0.50491 0.0
C1756 C 0.41236 0.10855 0.52001 0.0
C1757 C 0.41661 0.14824 0.53252 0.0
C1758 C 0.42922 0.11127 0.51325 0.0
C1759 C 0.44156 0.10068 0.51687 0.0
C1760 C 0.43715 0.08714 0.52718 0.0
C1761 C 0.42033 0.08475 0.53417 0.0
C1762 C 0.40809 0.09535 0.53061 0.0
H1763 H 0.41464 0.16185 0.53866 0.0
H1764 H 0.42082 0.14155 0.54357 0.0
H1765 H 0.42768 0.14974 0.52357 0.0
H1766 H 0.43265 0.12125 0.50484 0.0
H1767 H 0.45448 0.10299 0.51146 0.0
H1768 H 0.66931 0.59015 0.2576 0.0
H1769 H 0.68608 0.62006 0.25809 0.0
H1770 H 0.7343 0.60449 0.27686 0.0
H1771 H 0.7173 0.57376 0.27597 0.0
H1772 H 0.70175 0.64617 0.28254 0.0
H1773 H 0.75585 0.63066 0.24 0.0
H1774 H 0.73677 0.61373 0.24217 0.0
H1775 H 0.75509 0.62049 0.25981 0.0
C1776 C 0.68353 0.59275 0.2618 0.0
C1777 C 0.69164 0.57889 0.26673 0.0
C1778 C 0.69326 0.61027 0.26211 0.0
C1779 C 0.71182 0.61522 0.26732 0.0
C1780 C 0.72016 0.60146 0.27229 0.0
H1781 H 0.78684 0.72177 0.27759 0.0
H1782 H 0.77297 0.69059 0.27823 0.0
C1783 C 0.71031 0.58366 0.27191 0.0
C1784 C 0.72168 0.63478 0.26789 0.0
H1785 H 0.75791 0.66113 0.25356 0.0
C1786 C 0.71401 0.64924 0.27608 0.0
C1787 C 0.73788 0.63955 0.25967 0.0
C1788 C 0.74683 0.62533 0.24976 0.0
C1789 C 0.72175 0.66761 0.2764 0.0
C1790 C 0.73778 0.67238 0.26797 0.0
C1791 C 0.74567 0.65798 0.26003 0.0
C1792 C 0.74647 0.692 0.26733 0.0
C1793 C 0.71273 0.6818 0.28631 0.0
C1794 C 0.7367 0.70393 0.26076 0.0
C1795 C 0.74472 0.72203 0.26037 0.0
C1796 C 0.76297 0.72917 0.26647 0.0
C1797 C 0.77279 0.71718 0.27284 0.0
C1798 C 0.76478 0.69907 0.27315 0.0
H1799 H 0.70439 0.67665 0.29665 0.0
H1800 H 0.72271 0.6938 0.29322 0.0
H1801 H 0.70376 0.68597 0.27636 0.0
H1802 H 0.72275 0.6992 0.25565 0.0
H1803 H 0.73652 0.73045 0.2552 0.0
H1804 H 0.898 0.45124 0.75328 0.0
H1805 H 0.87678 0.4237 0.75457 0.0
H1806 H 0.83846 0.45496 0.77556 0.0
H1807 H 0.85965 0.48253 0.77471 0.0
H1808 H 0.84355 0.43019 0.79578 0.0
H1809 H 0.83112 0.399 0.72251 0.0
H1810 H 0.85449 0.40482 0.73054 0.0
H1811 H 0.84173 0.42223 0.73037 0.0
C1812 C 0.88498 0.45225 0.75799 0.0
C1813 C 0.88052 0.46905 0.76397 0.0
C1814 C 0.87285 0.43651 0.7586 0.0
C1815 C 0.85602 0.43736 0.76496 0.0
C1816 C 0.8514 0.45408 0.77057 0.0
H1817 H 0.77465 0.34052 0.75414 0.0
H1818 H 0.78976 0.37125 0.75348 0.0
C1819 C 0.86353 0.4698 0.77008 0.0
C1820 C 0.84365 0.4209 0.76693 0.0
H1821 H 0.82146 0.38018 0.7436 0.0
C1822 C 0.83851 0.41931 0.78436 0.0
C1823 C 0.83699 0.4069 0.75195 0.0
C1824 C 0.84121 0.40835 0.73276 0.0
C1825 C 0.82712 0.40387 0.78731 0.0
C1826 C 0.82117 0.38947 0.77248 0.0
C1827 C 0.82604 0.39123 0.75497 0.0
C1828 C 0.81055 0.37212 0.77481 0.0
C1829 C 0.82155 0.4033 0.80625 0.0
C1830 C 0.81698 0.36264 0.78731 0.0
C1831 C 0.80802 0.34541 0.78812 0.0
C1832 C 0.79289 0.33719 0.77599 0.0
C1833 C 0.78622 0.34674 0.76372 0.0
C1834 C 0.79489 0.36419 0.76328 0.0
H1835 H 0.82168 0.41701 0.81396 0.0
H1836 H 0.80794 0.39504 0.80593 0.0
H1837 H 0.83124 0.39748 0.81382 0.0
H1838 H 0.82938 0.36818 0.79587 0.0
H1839 H 0.81366 0.33809 0.79737 0.0
H1840 H 0.06622 0.79838 0.07156 0.0
H1841 H 0.06493 0.82093 0.0526 0.0
H1842 H 0.05312 0.85743 0.09884 0.0
H1843 H 0.0547 0.8351 0.11801 0.0
H1844 H 0.03548 0.83542 0.04587 0.0
H1845 H 0.09309 0.88861 0.07806 0.0
H1846 H 0.09031 0.86585 0.08191 0.0
H1847 H 0.07836 0.88138 0.0943 0.0
C1848 C 0.06344 0.81125 0.07771 0.0
C1849 C 0.06052 0.81503 0.09623 0.0
C1850 C 0.06281 0.8241 0.0669 0.0
C1851 C 0.05931 0.84087 0.07447 0.0
C1852 C 0.05633 0.84468 0.09293 0.0
H1853 H 0.02332 0.92969 0.05028 0.0
H1854 H 0.03439 0.90569 0.06192 0.0
C1855 C 0.05703 0.83187 0.10378 0.0
C1856 C 0.0572 0.8539 0.0628 0.0
H1857 H 0.0704 0.89785 0.06003 0.0
C1858 C 0.04335 0.84897 0.04864 0.0
C1859 C 0.06763 0.87146 0.06649 0.0
C1860 C 0.0833 0.87709 0.08091 0.0
C1861 C 0.03875 0.86161 0.03887 0.0
C1862 C 0.04846 0.87943 0.04335 0.0
C1863 C 0.06301 0.8841 0.05676 0.0
C1864 C 0.04227 0.89387 0.03598 0.0
C1865 C 0.02286 0.85614 0.02469 0.0
C1866 C 0.04304 0.89494 0.01755 0.0
C1867 C 0.03666 0.90861 0.01084 0.0
C1868 C 0.02961 0.92133 0.02259 0.0
C1869 C 0.02884 0.92011 0.04102 0.0
C1870 C 0.03516 0.90648 0.04767 0.0
H1871 H 0.01549 0.84226 0.02444 0.0
H1872 H 0.01343 0.86549 0.02728 0.0
H1873 H 0.02754 0.85683 0.01103 0.0
H1874 H 0.04864 0.88531 0.00845 0.0
H1875 H 0.0376 0.90948 0.99664 0.0
H1876 H 0.96018 0.27487 0.87964 0.0
H1877 H 0.92976 0.27451 0.86717 0.0
H1878 H 0.95097 0.30492 0.82739 0.0
H1879 H 0.98147 0.30518 0.83953 0.0
H1880 H 0.91345 0.30423 0.86347 0.0
H1881 H 0.91714 0.26034 0.7971 0.0
H1882 H 0.93307 0.26259 0.81658 0.0
H1883 H 0.93497 0.27968 0.80289 0.0
C1884 C 0.95839 0.2814 0.86816 0.0
C1885 C 0.97321 0.2899 0.86042 0.0
C1886 C 0.94103 0.28123 0.86114 0.0
C1887 C 0.93827 0.2895 0.8463 0.0
C1888 C 0.95296 0.2982 0.83868 0.0
H1889 H 0.84806 0.3033 0.78087 0.0
H1890 H 0.87746 0.30533 0.79667 0.0
C1891 C 0.97033 0.29833 0.84563 0.0
C1892 C 0.91997 0.28897 0.83866 0.0
H1893 H 0.89176 0.27403 0.79988 0.0
C1894 C 0.9086 0.29757 0.84961 0.0
C1895 C 0.91385 0.28015 0.82064 0.0
C1896 C 0.92532 0.27002 0.80865 0.0
C1897 C 0.89124 0.29799 0.84273 0.0
C1898 C 0.88528 0.28944 0.8246 0.0
C1899 C 0.89657 0.28065 0.81376 0.0
C1900 C 0.86738 0.28949 0.81637 0.0
C1901 C 0.87956 0.30786 0.85467 0.0
C1902 C 0.85213 0.27993 0.82238 0.0
C1903 C 0.8353 0.27869 0.81338 0.0
C1904 C 0.83361 0.28691 0.7982 0.0
C1905 C 0.84894 0.29674 0.79246 0.0
C1906 C 0.86572 0.29798 0.80147 0.0
H1907 H 0.88737 0.31665 0.86699 0.0
H1908 H 0.87272 0.31618 0.84697 0.0
H1909 H 0.86908 0.29798 0.85917 0.0
H1910 H 0.8533 0.27305 0.8337 0.0
H1911 H 0.82371 0.27101 0.8181 0.0
H1912 H 0.53887 0.22202 0.58805 0.0
H1913 H 0.53685 0.19477 0.56532 0.0
H1914 H 0.58 0.18045 0.59592 0.0
H1915 H 0.58175 0.20752 0.6191 0.0
H1916 H 0.56234 0.1847 0.54375 0.0
H1917 H 0.54158 0.13541 0.58821 0.0
H1918 H 0.5414 0.15897 0.59496 0.0
H1919 H 0.56207 0.151 0.59669 0.0
C1920 C 0.54784 0.21299 0.59002 0.0
C1921 C 0.56045 0.2168 0.60533 0.0
C1922 C 0.54671 0.19751 0.577 0.0
C1923 C 0.55822 0.18564 0.57903 0.0
C1924 C 0.57081 0.18935 0.59432 0.0
H1925 H 0.57241 0.08826 0.51279 0.0
H1926 H 0.57857 0.12064 0.52452 0.0
C1927 C 0.57179 0.20477 0.60751 0.0
C1928 C 0.55698 0.16941 0.56504 0.0
H1929 H 0.54821 0.12381 0.55856 0.0
C1930 C 0.55929 0.17137 0.54695 0.0
C1931 C 0.5528 0.15211 0.56933 0.0
C1932 C 0.54914 0.14918 0.58831 0.0
C1933 C 0.55755 0.15632 0.53298 0.0
C1934 C 0.55358 0.13915 0.53738 0.0
C1935 C 0.55142 0.13718 0.55542 0.0
C1936 C 0.55063 0.12268 0.52359 0.0
C1937 C 0.5596 0.15867 0.51361 0.0
C1938 C 0.53296 0.1136 0.51822 0.0
C1939 C 0.52941 0.09518 0.51178 0.0
C1940 C 0.54354 0.0858 0.5106 0.0
C1941 C 0.56133 0.09531 0.51349 0.0
C1942 C 0.56487 0.11376 0.52018 0.0
H1943 H 0.5628 0.17304 0.51242 0.0
H1944 H 0.57042 0.15196 0.50823 0.0
H1945 H 0.54699 0.1521 0.50497 0.0
H1946 H 0.52185 0.12036 0.52096 0.0
H1947 H 0.51559 0.08802 0.50954 0.0
H1948 H 0.55422 0.7783 0.35417 0.0
H1949 H 0.58354 0.78511 0.34276 0.0
H1950 H 0.60765 0.80724 0.3975 0.0
H1951 H 0.57833 0.80017 0.40913 0.0
H1952 H 0.60556 0.82005 0.34763 0.0
H1953 H 0.63873 0.7711 0.37663 0.0
H1954 H 0.61471 0.76923 0.37495 0.0
H1955 H 0.62863 0.78622 0.39196 0.0
C1956 C 0.5658 0.78445 0.36382 0.0
C1957 C 0.56405 0.78871 0.38251 0.0
C1958 C 0.58246 0.78838 0.35726 0.0
C1959 C 0.59762 0.79665 0.36933 0.0
C1960 C 0.59605 0.8007 0.38805 0.0
H1961 H 0.69372 0.82979 0.31407 0.0
H1962 H 0.67192 0.832 0.33681 0.0
C1963 C 0.57934 0.79666 0.39467 0.0
C1964 C 0.61493 0.80111 0.36191 0.0
H1965 H 0.6543 0.78683 0.3564 0.0
C1966 C 0.61642 0.81308 0.34975 0.0
C1967 C 0.62893 0.79196 0.3649 0.0
C1968 C 0.62776 0.77882 0.37774 0.0
C1969 C 0.63111 0.81524 0.33944 0.0
C1970 C 0.64467 0.80536 0.34171 0.0
C1971 C 0.64377 0.79433 0.3548 0.0
C1972 C 0.65843 0.80422 0.32887 0.0
C1973 C 0.63139 0.82706 0.32533 0.0
C1974 C 0.6581 0.78782 0.31723 0.0
C1975 C 0.67046 0.78651 0.30436 0.0
C1976 C 0.68328 0.80163 0.30296 0.0
C1977 C 0.68371 0.81804 0.31475 0.0
C1978 C 0.67138 0.81931 0.32773 0.0
H1979 H 0.61857 0.83175 0.3236 0.0
H1980 H 0.64231 0.83903 0.32954 0.0
H1981 H 0.63407 0.81975 0.31194 0.0
H1982 H 0.64807 0.77608 0.31792 0.0
H1983 H 0.66986 0.77376 0.29536 0.0
H1984 H 0.05308 0.23472 0.40142 0.0
H1985 H 0.04133 0.20949 0.41591 0.0
H1986 H 0.06662 0.23952 0.46794 0.0
H1987 H 0.07847 0.26485 0.45361 0.0
H1988 H 0.06283 0.19123 0.43747 0.0
H1989 H 0.01251 0.22221 0.47576 0.0
H1990 H 0.02175 0.23012 0.4563 0.0
H1991 H 0.03466 0.23583 0.47807 0.0
C1992 C 0.0561 0.23598 0.41596 0.0
C1993 C 0.06663 0.25177 0.42643 0.0
C1994 C 0.04939 0.22157 0.42418 0.0
C1995 C 0.05296 0.22284 0.44296 0.0
C1996 C 0.06354 0.23849 0.45344 0.0
H1997 H 0.03496 0.15662 0.52281 0.0
H1998 H 0.04096 0.18097 0.50565 0.0
C1999 C 0.07035 0.25288 0.44523 0.0
C2000 C 0.04606 0.20758 0.4516 0.0
H2001 H 0.0184 0.195 0.4832 0.0
C2002 C 0.05299 0.19192 0.44734 0.0
C2003 C 0.03323 0.20867 0.4644 0.0
C2004 C 0.02495 0.22504 0.46885 0.0
C2005 C 0.04791 0.17744 0.45615 0.0
C2006 C 0.0353 0.17866 0.46923 0.0
C2007 C 0.02807 0.19419 0.47316 0.0
C2008 C 0.03012 0.16427 0.47963 0.0
C2009 C 0.05657 0.16129 0.45188 0.0
C2010 C 0.02151 0.14706 0.4707 0.0
C2011 C 0.01805 0.13317 0.48046 0.0
C2012 C 0.02304 0.13637 0.4993 0.0
C2013 C 0.03084 0.15384 0.50834 0.0
C2014 C 0.03436 0.1677 0.49855 0.0
H2015 H 0.06881 0.16421 0.44469 0.0
H2016 H 0.06023 0.15658 0.46452 0.0
H2017 H 0.04695 0.1502 0.44294 0.0
H2018 H 0.0178 0.14429 0.45615 0.0
H2019 H 0.01179 0.11985 0.47322 0.0
H2020 H 0.56187 0.26832 0.13027 0.0
H2021 H 0.58996 0.26827 0.1478 0.0
H2022 H 0.5693 0.2911 0.19706 0.0
H2023 H 0.54108 0.29095 0.17973 0.0
H2024 H 0.61535 0.29532 0.17301 0.0
H2025 H 0.57816 0.24146 0.20508 0.0
H2026 H 0.56882 0.24809 0.18522 0.0
H2027 H 0.56954 0.26182 0.20734 0.0
C2028 C 0.56345 0.27366 0.14477 0.0
C2029 C 0.54926 0.27935 0.15374 0.0
C2030 C 0.57946 0.27363 0.15473 0.0
C2031 C 0.58141 0.27936 0.17368 0.0
C2032 C 0.5678 0.28635 0.18245 0.0
H2033 H 0.66312 0.26637 0.2534 0.0
H2034 H 0.63682 0.27417 0.23879 0.0
C2035 C 0.55177 0.28628 0.17255 0.0
C2036 C 0.59696 0.27646 0.1844 0.0
H2037 H 0.60901 0.25095 0.21406 0.0
C2038 C 0.61402 0.28571 0.18208 0.0
C2039 C 0.595 0.26386 0.19613 0.0
C2040 C 0.57693 0.2531 0.19854 0.0
C2041 C 0.62935 0.2826 0.1912 0.0
C2042 C 0.6274 0.26973 0.20261 0.0
C2043 C 0.61032 0.26079 0.20526 0.0
C2044 C 0.64298 0.26477 0.21136 0.0
C2045 C 0.64748 0.29305 0.18857 0.0
C2046 C 0.65466 0.25643 0.20067 0.0
C2047 C 0.66952 0.25183 0.20893 0.0
C2048 C 0.67281 0.25543 0.22799 0.0
C2049 C 0.66074 0.26327 0.23868 0.0
C2050 C 0.64587 0.26787 0.23039 0.0
H2051 H 0.64636 0.30545 0.18334 0.0
H2052 H 0.65629 0.29679 0.20155 0.0
H2053 H 0.654 0.28459 0.17851 0.0
H2054 H 0.65229 0.25356 0.18594 0.0
H2055 H 0.67853 0.24559 0.20043 0.0
H2056 H 0.57661 0.84598 0.94031 0.0
H2057 H 0.56893 0.87336 0.95634 0.0
H2058 H 0.59305 0.90253 0.91688 0.0
H2059 H 0.60051 0.87496 0.90032 0.0
H2060 H 0.59128 0.90593 0.97146 0.0
H2061 H 0.54182 0.91248 0.9164 0.0
H2062 H 0.5505 0.89223 0.91636 0.0
H2063 H 0.56405 0.91145 0.91008 0.0
C2064 C 0.58045 0.85821 0.93506 0.0
C2065 C 0.58907 0.8583 0.91897 0.0
C2066 C 0.57601 0.87381 0.94423 0.0
C2067 C 0.58019 0.88974 0.93753 0.0
C2068 C 0.58943 0.89017 0.92194 0.0
H2069 H 0.55822 0.99364 0.97912 0.0
H2070 H 0.56819 0.96805 0.96156 0.0
C2071 C 0.5938 0.87448 0.91264 0.0
C2072 C 0.57472 0.90581 0.94709 0.0
H2073 H 0.54635 0.93455 0.94323 0.0
C2074 C 0.5815 0.91225 0.96531 0.0
C2075 C 0.56197 0.91387 0.93886 0.0
C2076 C 0.55402 0.90712 0.91939 0.0
C2077 C 0.57572 0.92659 0.9757 0.0
C2078 C 0.56271 0.93434 0.96761 0.0
C2079 C 0.55619 0.92823 0.94928 0.0
C2080 C 0.55618 0.94931 0.97789 0.0
C2081 C 0.58365 0.93347 0.99516 0.0
C2082 C 0.54622 0.94697 0.99277 0.0
C2083 C 0.54064 0.96157 1.00286 0.0
C2084 C 0.54487 0.97831 0.99781 0.0
C2085 C 0.5548 0.98062 0.98296 0.0
C2086 C 0.56042 0.96613 0.97298 0.0
H2087 H 0.59616 0.92858 0.99804 0.0
H2088 H 0.58664 0.94837 0.99827 0.0
H2089 H 0.57382 0.92874 0.00449 0.0
H2090 H 0.5428 0.93391 0.99652 0.0
H2091 H 0.53286 0.95978 0.0143 0.0
H2092 H 0.94652 0.78417 0.66189 0.0
H2093 H 0.92208 0.79016 0.68054 0.0
H2094 H 0.92267 0.74146 0.7012 0.0
H2095 H 0.94709 0.73549 0.68292 0.0
H2096 H 0.8876 0.76916 0.68369 0.0
H2097 H 0.93324 0.78207 0.74698 0.0
H2098 H 0.94123 0.7818 0.7247 0.0
H2099 H 0.93377 0.76111 0.73242 0.0
C2100 C 0.94116 0.7746 0.67016 0.0
C2101 C 0.94883 0.75955 0.6713 0.0
C2102 C 0.92735 0.77809 0.68083 0.0
C2103 C 0.92114 0.76652 0.69258 0.0
C2104 C 0.92777 0.75077 0.69257 0.0
H2105 H 0.82782 0.74398 0.74399 0.0
H2106 H 0.85584 0.74425 0.72966 0.0
C2107 C 0.9416 0.74735 0.68207 0.0
C2108 C 0.90807 0.7709 0.70535 0.0
H2109 H 0.90161 0.77582 0.7505 0.0
C2110 C 0.89068 0.77094 0.69831 0.0
C2111 C 0.91237 0.77356 0.72439 0.0
C2112 C 0.93122 0.77484 0.7326 0.0
C2113 C 0.87706 0.77233 0.70986 0.0
C2114 C 0.88105 0.77338 0.72875 0.0
C2115 C 0.89867 0.77462 0.73593 0.0
C2116 C 0.86672 0.77221 0.74091 0.0
C2117 C 0.85839 0.77212 0.70177 0.0
C2118 C 0.86445 0.78749 0.75298 0.0
C2119 C 0.84858 0.7873 0.76137 0.0
C2120 C 0.83494 0.77187 0.75751 0.0
C2121 C 0.83812 0.75606 0.74696 0.0
C2122 C 0.85402 0.75622 0.73876 0.0
H2123 H 0.8585 0.77566 0.68801 0.0
H2124 H 0.85014 0.75845 0.70046 0.0
H2125 H 0.85187 0.78163 0.7107 0.0
H2126 H 0.87429 0.79987 0.7548 0.0
H2127 H 0.84635 0.79966 0.76944 0.0
H2128 H 0.15343 0.02558 0.83834 0.0
H2129 H 0.14035 0.02748 0.86799 0.0
H2130 H 0.08735 0.01305 0.84004 0.0
H2131 H 0.10023 0.01165 0.81072 0.0
H2132 H 0.11238 0.05085 0.8816 0.0
H2133 H 0.0871 0.97824 0.87861 0.0
H2134 H 0.10539 0.98639 0.86601 0.0
H2135 H 0.08279 0.98689 0.8583 0.0
C2136 C 0.139 0.02246 0.83842 0.0
C2137 C 0.12808 0.01817 0.82166 0.0
C2138 C 0.13141 0.02373 0.85557 0.0
C2139 C 0.1126 0.02036 0.85676 0.0
C2140 C 0.10181 0.01565 0.84002 0.0
H2141 H 0.03791 0.01291 0.945 0.0
H2142 H 0.05244 0.01036 0.91641 0.0
C2143 C 0.10932 0.01479 0.82302 0.0
C2144 C 0.10409 0.0222 0.87513 0.0
H2145 H 0.07831 0.99815 0.90246 0.0
C2146 C 0.1051 0.03924 0.88617 0.0
C2147 C 0.09404 0.00735 0.88141 0.0
C2148 C 0.09225 0.98862 0.87062 0.0
C2149 C 0.09637 0.04183 0.90261 0.0
C2150 C 0.0866 0.0269 0.90921 0.0
C2151 C 0.08563 0.00983 0.89806 0.0
C2152 C 0.07734 0.02866 0.92728 0.0
C2153 C 0.09707 0.06086 0.91217 0.0
C2154 C 0.08599 0.03958 0.9438 0.0
C2155 C 0.07746 0.04128 0.96028 0.0
C2156 C 0.05987 0.03188 0.96141 0.0
C2157 C 0.0513 0.02062 0.94505 0.0
C2158 C 0.05979 0.01907 0.92846 0.0
H2159 H 0.09904 0.07035 0.90255 0.0
H2160 H 0.08459 0.06227 0.91874 0.0
H2161 H 0.10861 0.06489 0.92275 0.0
H2162 H 0.09965 0.04672 0.94417 0.0
H2163 H 0.08493 0.04986 0.97235 0.0
H2164 H 0.7671 0.38266 0.53698 0.0
H2165 H 0.77297 0.36708 0.56173 0.0
H2166 H 0.78502 0.41755 0.59964 0.0
H2167 H 0.77961 0.43334 0.57479 0.0
H2168 H 0.8095 0.39662 0.60437 0.0
H2169 H 0.74078 0.3565 0.60101 0.0
H2170 H 0.75031 0.35342 0.57961 0.0
H2171 H 0.74594 0.37508 0.5893 0.0
C2172 C 0.77087 0.39045 0.5506 0.0
C2173 C 0.77273 0.40923 0.55395 0.0
C2174 C 0.77414 0.38151 0.56476 0.0
C2175 C 0.77908 0.3911 0.58262 0.0
C2176 C 0.7811 0.40986 0.58599 0.0
H2177 H 0.79461 0.35474 0.68534 0.0
H2178 H 0.7899 0.37261 0.66207 0.0
C2179 C 0.77795 0.41886 0.57179 0.0
C2180 C 0.78248 0.38154 0.59766 0.0
H2181 H 0.76354 0.34791 0.61888 0.0
C2182 C 0.7994 0.38608 0.60765 0.0
C2183 C 0.76926 0.36784 0.60199 0.0
C2184 C 0.7505 0.36303 0.59254 0.0
C2185 C 0.80356 0.37696 0.62152 0.0
C2186 C 0.7905 0.36299 0.62544 0.0
C2187 C 0.77354 0.35858 0.61568 0.0
C2188 C 0.79421 0.35262 0.63957 0.0
C2189 C 0.82196 0.382 0.63174 0.0
C2190 C 0.79816 0.33551 0.63452 0.0
C2191 C 0.80081 0.32525 0.64772 0.0
C2192 C 0.79941 0.33189 0.66622 0.0
C2193 C 0.79557 0.34915 0.67121 0.0
C2194 C 0.79301 0.35943 0.65798 0.0
H2195 H 0.83094 0.39259 0.62644 0.0
H2196 H 0.82078 0.38692 0.64638 0.0
H2197 H 0.82818 0.36998 0.63078 0.0
H2198 H 0.79903 0.33003 0.62033 0.0
H2199 H 0.80354 0.31195 0.64339 0.0
H2200 H 0.47917 0.0102 0.31071 0.0
H2201 H 0.49127 0.00673 0.34054 0.0
H2202 H 0.45542 0.03828 0.36658 0.0
H2203 H 0.44304 0.04167 0.33689 0.0
H2204 H 0.50739 0.03319 0.37064 0.0
H2205 H 0.44506 0.99149 0.38669 0.0
H2206 H 0.44864 0.99543 0.36398 0.0
H2207 H 0.44179 0.01219 0.38048 0.0
C2208 C 0.47394 0.01652 0.32278 0.0
C2209 C 0.46007 0.02612 0.32145 0.0
C2210 C 0.48083 0.01446 0.33977 0.0
C2211 C 0.47391 0.02191 0.3556 0.0
C2212 C 0.46058 0.03207 0.3544 0.0
H2213 H 0.49192 0.03815 0.46993 0.0
H2214 H 0.48152 0.03526 0.43797 0.0
C2215 C 0.45365 0.03411 0.33745 0.0
C2216 C 0.48079 0.01934 0.37348 0.0
H2217 H 0.46765 1.00377 0.41144 0.0
C2218 C 0.49882 0.02655 0.37952 0.0
C2219 C 0.46949 0.01056 0.38484 0.0
C2220 C 0.45021 1.00181 0.37862 0.0
C2221 C 0.50569 0.02604 0.39712 0.0
C2222 C 0.4942 0.01785 0.40871 0.0
C2223 C 0.47634 0.01005 0.40243 0.0
C2224 C 0.50004 0.01854 0.42789 0.0
C2225 C 0.52489 0.03499 0.40347 0.0
C2226 C 0.51365 0.00976 0.43267 0.0
C2227 C 0.51971 0.01143 0.45094 0.0
C2228 C 0.51211 0.02181 0.46461 0.0
C2229 C 0.49807 0.03008 0.45973 0.0
C2230 C 0.49209 0.02845 0.4415 0.0
H2231 H 0.53092 0.04346 0.39397 0.0
H2232 H 0.5258 0.04349 0.41722 0.0
H2233 H 0.53298 0.02455 0.4044 0.0
H2234 H 0.51971 1.00183 0.42227 0.0
H2235 H 0.53048 1.00482 0.4543 0.0
H2236 H 0.77083 0.68635 0.07169 0.0
H2237 H 0.77559 0.70446 0.10214 0.0
H2238 H 0.78541 0.75272 0.07966 0.0
H2239 H 0.78092 0.73449 0.04868 0.0
H2240 H 0.80994 0.75234 0.1106 0.0
H2241 H 0.73894 0.733 0.12397 0.0
H2242 H 0.74883 0.71405 0.11591 0.0
H2243 H 0.74618 0.72977 0.10129 0.0
C2244 C 0.77391 0.70082 0.07308 0.0
C2245 C 0.7752 0.70899 0.05769 0.0
C2246 C 0.77663 0.71115 0.09056 0.0
C2247 C 0.78047 0.7299 0.09313 0.0
C2248 C 0.7823 0.73823 0.0779 0.0
H2249 H 0.77109 0.78871 0.20142 0.0
H2250 H 0.76983 0.77997 0.16838 0.0
C2251 C 0.77969 0.72782 0.06025 0.0
C2252 C 0.78227 0.74049 0.11185 0.0
H2253 H 0.76001 0.74528 0.15007 0.0
C2254 C 0.79898 0.75107 0.11919 0.0
C2255 C 0.76789 0.73893 0.12296 0.0
C2256 C 0.7494 0.72846 0.11559 0.0
C2257 C 0.80188 0.75944 0.13766 0.0
C2258 C 0.78777 0.75693 0.14899 0.0
C2259 C 0.77087 0.74705 0.1414 0.0
C2260 C 0.79022 0.76387 0.16889 0.0
C2261 C 0.82002 0.77076 0.14491 0.0
C2262 C 0.80219 0.75778 0.18016 0.0
C2263 C 0.80293 0.76272 0.19911 0.0
C2264 C 0.79162 0.77375 0.20711 0.0
C2265 C 0.77999 0.78019 0.19574 0.0
C2266 C 0.77925 0.77523 0.17683 0.0
H2267 H 0.82752 0.7755 0.13382 0.0
H2268 H 0.81873 0.78259 0.1552 0.0
H2269 H 0.82803 0.76261 0.15156 0.0
H2270 H 0.81052 0.74871 0.17432 0.0
H2271 H 0.81207 0.75756 0.20748 0.0
H2272 H 0.10912 0.99842 0.7144 0.0
H2273 H 0.09408 1.00052 0.6851 0.0
H2274 H 0.14441 0.02643 0.66971 0.0
H2275 H 0.15948 0.02345 0.69841 0.0
H2276 H 0.08594 0.02372 0.66805 0.0
H2277 H 0.13163 0.9938 0.62332 0.0
H2278 H 0.13321 0.99383 0.6474 0.0
H2279 H 0.14375 0.01323 0.63876 0.0
C2280 C 0.11709 1.00437 0.70471 0.0
C2281 C 0.13578 0.01048 0.70908 0.0
C2282 C 0.10837 0.00567 0.68774 0.0
C2283 C 0.11785 0.01324 0.67428 0.0
C2284 C 0.13646 0.01978 0.67896 0.0
H2285 H 0.06079 0.05057 0.58389 0.0
H2286 H 0.07527 0.04737 0.61284 0.0
C2287 C 0.1452 0.01823 0.69575 0.0
C2288 C 0.10833 0.01468 0.65585 0.0
H2289 H 0.11199 0.0094 0.60948 0.0
C2290 C 0.09176 0.02047 0.65532 0.0
C2291 C 0.11518 0.01019 0.63862 0.0
C2292 C 0.1318 1.00223 0.63699 0.0
C2293 C 0.08238 0.02219 0.63881 0.0
C2294 C 0.08974 0.01867 0.62173 0.0
C2295 C 0.10611 0.01252 0.6222 0.0
C2296 C 0.08069 0.02087 0.60338 0.0
C2297 C 0.06421 0.02721 0.63995 0.0
C2298 C 0.07913 0.00758 0.58738 0.0
C2299 C 0.07098 0.00957 0.57043 0.0
C2300 C 0.06397 0.02499 0.56853 0.0
C2301 C 0.06569 0.03835 0.58446 0.0
C2302 C 0.07394 0.03641 0.60135 0.0
H2303 H 0.05784 0.02333 0.65203 0.0
H2304 H 0.06577 0.04198 0.6414 0.0
H2305 H 0.05504 0.02068 0.62759 0.0
H2306 H 0.08411 0.99541 0.58796 0.0
H2307 H 0.07016 0.99888 0.55875 0.0
H2308 H 0.75052 0.41346 0.42805 0.0
H2309 H 0.75324 0.39 0.40241 0.0
H2310 H 0.78462 0.36649 0.43791 0.0
H2311 H 0.78121 0.38942 0.46374 0.0
H2312 H 0.78117 0.3835 0.38709 0.0
H2313 H 0.75191 0.32212 0.41193 0.0
H2314 H 0.75007 0.3442 0.42339 0.0
H2315 H 0.77013 0.33564 0.42734 0.0
C2316 C 0.75778 0.40314 0.43045 0.0
C2317 C 0.76556 0.40327 0.44798 0.0
C2318 C 0.75935 0.38972 0.41576 0.0
C2319 C 0.7689 0.37621 0.41817 0.0
C2320 C 0.7767 0.37635 0.43569 0.0
H2321 H 0.8144 0.32003 0.3267 0.0
H2322 H 0.80974 0.33825 0.35551 0.0
C2323 C 0.77485 0.38958 0.45047 0.0
C2324 C 0.77166 0.36281 0.40212 0.0
H2325 H 0.7687 0.31795 0.386 0.0
C2326 C 0.7783 0.36917 0.38686 0.0
C2327 C 0.76775 0.34403 0.40159 0.0
C2328 C 0.75939 0.33609 0.41687 0.0
C2329 C 0.78127 0.35743 0.37127 0.0
C2330 C 0.77824 0.33872 0.37111 0.0
C2331 C 0.77134 0.33229 0.38622 0.0
C2332 C 0.78185 0.32572 0.35518 0.0
C2333 C 0.7872 0.36526 0.35497 0.0
C2334 C 0.76816 0.31161 0.34609 0.0
C2335 C 0.77099 0.30076 0.32983 0.0
C2336 C 0.78749 0.30399 0.32234 0.0
C2337 C 0.80149 0.31734 0.33208 0.0
C2338 C 0.79877 0.3279 0.34845 0.0
H2339 H 0.7835 0.37856 0.35518 0.0
H2340 H 0.80201 0.3672 0.35519 0.0
H2341 H 0.78116 0.35624 0.34201 0.0
H2342 H 0.75503 0.30952 0.35109 0.0
H2343 H 0.75992 0.29066 0.32255 0.0
H2344 H 0.45217 0.04282 0.22812 0.0
H2345 H 0.45975 0.0248 0.20058 0.0
H2346 H 0.40484 0.99641 0.18931 0.0
H2347 H 0.397 0.01463 0.21677 0.0
H2348 H 0.45169 0.98388 0.19605 0.0
H2349 H 0.42203 0.0118 0.14013 0.0
H2350 H 0.42733 0.02548 0.16263 0.0
H2351 H 0.40939 0.00627 0.1587 0.0
C2352 C 0.44162 0.03309 0.21952 0.0
C2353 C 0.42406 0.03009 0.22456 0.0
C2354 C 0.44597 0.02272 0.20394 0.0
C2355 C 0.43285 0.00919 0.19323 0.0
C2356 C 0.41507 0.00681 0.19753 0.0
H2357 H 0.48539 0.98126 0.09752 0.0
H2358 H 0.46136 0.97202 0.1161 0.0
C2359 C 0.41064 0.01732 0.21311 0.0
C2360 C 0.43845 0.99739 0.17802 0.0
H2361 H 0.44636 0.99752 0.13393 0.0
C2362 C 0.45006 0.98623 0.18224 0.0
C2363 C 0.43584 1.00013 0.16003 0.0
C2364 C 0.42295 0.01152 0.15493 0.0
C2365 C 0.46108 0.97981 0.16942 0.0
C2366 C 0.46051 0.98499 0.15227 0.0
C2367 C 0.44694 0.99379 0.14723 0.0
C2368 C 0.47619 0.98592 0.14165 0.0
C2369 C 0.47438 0.96902 0.17493 0.0
C2370 C 0.49263 0.99642 0.14997 0.0
C2371 C 0.50636 1.00167 0.13944 0.0
C2372 C 0.5038 0.99665 0.12042 0.0
C2373 C 0.4878 0.98514 0.1122 0.0
C2374 C 0.47405 0.97985 0.12276 0.0
H2375 H 0.46845 0.9599 0.1839 0.0
H2376 H 0.47885 0.96095 0.1629 0.0
H2377 H 0.48626 0.97825 0.18284 0.0
H2378 H 0.49439 1.00172 0.16448 0.0
H2379 H 0.5186 0.01046 0.14609 0.0
H2380 H 0.7685 0.73349 0.95494 0.0
H2381 H 0.77004 0.74419 0.926 0.0
H2382 H 0.79908 0.70308 0.90548 0.0
H2383 H 0.79717 0.69203 0.9341 0.0
H2384 H 0.79833 0.75669 0.90731 0.0
H2385 H 0.75732 0.69364 0.86681 0.0
H2386 H 0.75931 0.69836 0.89139 0.0
H2387 H 0.77693 0.6905 0.87932 0.0
C2388 C 0.77532 0.72682 0.9443 0.0
C2389 C 0.78255 0.71181 0.94673 0.0
C2390 C 0.77617 0.73292 0.92777 0.0
C2391 C 0.78429 0.72415 0.91342 0.0
C2392 C 0.79228 0.70972 0.91616 0.0
H2393 H 0.79518 0.7375 0.80101 0.0
H2394 H 0.79665 0.72769 0.8304 0.0
C2395 C 0.79129 0.70351 0.93258 0.0
C2396 C 0.78421 0.72996 0.89554 0.0
H2397 H 0.77033 0.71544 0.8503 0.0
C2398 C 0.79217 0.7477 0.89484 0.0
C2399 C 0.77622 0.71817 0.87927 0.0
C2400 C 0.76681 0.69916 0.87919 0.0
C2401 C 0.79257 0.75392 0.8783 0.0
C2402 C 0.78443 0.74218 0.86205 0.0
C2403 C 0.77658 0.72441 0.86274 0.0
C2404 C 0.78356 0.74813 0.84426 0.0
C2405 C 0.802 0.77292 0.87838 0.0
C2406 C 0.77538 0.76262 0.84217 0.0
C2407 C 0.77469 0.76834 0.8255 0.0
C2408 C 0.78186 0.75947 0.81044 0.0
C2409 C 0.78955 0.7446 0.81236 0.0
C2410 C 0.79042 0.73901 0.82914 0.0
H2411 H 0.81204 0.77811 0.89038 0.0
H2412 H 0.80889 0.77388 0.86583 0.0
H2413 H 0.792 0.78175 0.87911 0.0
H2414 H 0.76946 0.76949 0.85344 0.0
H2415 H 0.76845 0.77968 0.82439 0.0
H2416 H 0.86299 0.12036 0.01063 0.0
H2417 H 0.89252 0.11353 0.00417 0.0
H2418 H 0.88272 0.0695 0.03291 0.0
H2419 H 0.8534 0.07624 0.03954 0.0
H2420 H 0.92236 0.11009 0.03179 0.0
H2421 H 0.89609 0.0481 0.98047 0.0
H2422 H 0.88322 0.06542 0.98631 0.0
H2423 H 0.88553 0.05011 1.0014 0.0
C2424 C 0.8671 0.10921 0.01558 0.0
C2425 C 0.85568 0.09884 0.02559 0.0
C2426 C 0.88403 0.10535 0.0119 0.0
C2427 C 0.88984 0.09091 0.01794 0.0
C2428 C 0.87852 0.08061 0.02797 0.0
H2429 H 0.97464 0.03234 0.01178 0.0
H2430 H 0.94744 0.04424 0.01349 0.0
C2431 C 0.86172 0.08454 0.03178 0.0
C2432 C 0.90765 0.08643 0.01383 0.0
H2433 H 0.92685 0.05357 0.99079 0.0
C2434 C 0.92342 0.09782 0.02269 0.0
C2435 C 0.90904 0.07043 1.00199 0.0
C2436 C 0.89262 0.05782 0.99185 0.0
C2437 C 0.94043 0.09322 0.02076 0.0
C2438 C 0.94183 0.07698 0.00912 0.0
C2439 C 0.926 0.06598 0.99974 0.0
C2440 C 0.95911 0.07017 0.00768 0.0
C2441 C 0.95653 0.10538 0.03199 0.0
C2442 C 0.97514 0.0806 1.00367 0.0
C2443 C 0.99115 0.07383 1.00303 0.0
C2444 C 0.99135 0.0563 0.00585 0.0
C2445 C 0.97515 0.04582 0.0093 0.0
C2446 C 0.95941 0.05266 0.01032 0.0
H2447 H 0.95259 0.11452 0.04357 0.0
H2448 H 0.96564 0.0975 0.03751 0.0
H2449 H 0.96404 0.11381 0.02329 0.0
H2450 H 0.97533 0.09396 1.00101 0.0
H2451 H 0.00331 0.08228 1.0003 0.0
H2452 H 0.35465 0.41805 0.05556 0.0
H2453 H 0.38607 0.43389 0.05812 0.0
H2454 H 0.38236 0.43202 1.00006 0.0
H2455 H 0.35088 0.41721 0.99767 0.0
H2456 H 0.41674 0.42773 0.04414 0.0
H2457 H 0.39661 0.4849 0.01844 0.0
H2458 H 0.38048 0.46713 0.0244 0.0
H2459 H 0.38932 0.46424 1.0025 0.0
C2460 C 0.36067 0.42093 0.04338 0.0
C2461 C 0.35037 0.41674 0.02647 0.0
C2462 C 0.37857 0.42996 0.04484 0.0
C2463 C 0.3864 0.43464 0.02935 0.0
C2464 C 0.37643 0.42916 0.01229 0.0
H2465 H 0.49736 0.47329 0.01364 0.0
H2466 H 0.46843 0.45481 0.01683 0.0
C2467 C 0.3585 0.4206 0.01091 0.0
C2468 C 0.40464 0.44591 0.03099 0.0
H2469 H 0.42776 0.48414 0.01977 0.0
C2470 C 0.41915 0.44014 0.03894 0.0
C2471 C 0.40776 0.46232 0.02457 0.0
C2472 C 0.39268 0.47011 0.01719 0.0
C2473 C 0.43676 0.45003 0.04007 0.0
C2474 C 0.43993 0.46588 0.0327 0.0
C2475 C 0.42536 0.47188 0.02524 0.0
C2476 C 0.45818 0.47654 0.0324 0.0
C2477 C 0.45175 0.44357 0.04936 0.0
C2478 C 0.46203 0.49493 0.03998 0.0
C2479 C 0.47842 0.50557 0.03795 0.0
C2480 C 0.49136 0.49806 0.02829 0.0
C2481 C 0.48773 0.47951 0.02122 0.0
C2482 C 0.47123 0.46888 0.02315 0.0
H2483 H 0.44663 0.43459 0.05879 0.0
H2484 H 0.45852 0.43585 0.0389 0.0
H2485 H 0.46186 0.45502 0.05715 0.0
H2486 H 0.45214 0.50114 0.04713 0.0
H2487 H 0.48078 0.51978 0.04367 0.0
H2488 H 0.39979 0.62181 0.78654 0.0
H2489 H 0.38548 0.64798 0.78775 0.0
H2490 H 0.35305 0.62204 0.73794 0.0
H2491 H 0.36635 0.59548 0.73762 0.0
H2492 H 0.38266 0.67374 0.77438 0.0
H2493 H 0.31272 0.63811 0.75736 0.0
H2494 H 0.33032 0.6263 0.76157 0.0
H2495 H 0.32591 0.63157 0.73932 0.0
C2496 C 0.3894 0.62145 0.77592 0.0
C2497 C 0.38433 0.60581 0.76213 0.0
C2498 C 0.38107 0.63679 0.77654 0.0
C2499 C 0.36726 0.63773 0.76328 0.0
C2500 C 0.3627 0.62223 0.74915 0.0
H2501 H 0.34111 0.74817 0.75763 0.0
H2502 H 0.35527 0.72195 0.75623 0.0
C2503 C 0.37069 0.60674 0.74879 0.0
C2504 C 0.35828 0.65476 0.76407 0.0
H2505 H 0.31838 0.66896 0.75562 0.0
C2506 C 0.36853 0.67238 0.77031 0.0
C2507 C 0.33961 0.65415 0.75929 0.0
C2508 C 0.32647 0.63653 0.75421 0.0
C2509 C 0.36119 0.68847 0.77164 0.0
C2510 C 0.34276 0.68788 0.76588 0.0
C2511 C 0.33247 0.67027 0.75988 0.0
C2512 C 0.33381 0.70487 0.76649 0.0
C2513 C 0.37346 0.70598 0.7801 0.0
C2514 C 0.31623 0.70501 0.7719 0.0
C2515 C 0.3078 0.72022 0.77232 0.0
C2516 C 0.31633 0.73648 0.76742 0.0
C2517 C 0.33384 0.73639 0.76188 0.0
C2518 C 0.3422 0.72108 0.76126 0.0
H2519 H 0.38448 0.70387 0.78936 0.0
H2520 H 0.3797 0.7123 0.76919 0.0
H2521 H 0.36609 0.71538 0.78802 0.0
H2522 H 0.30883 0.69322 0.77602 0.0
H2523 H 0.29437 0.71915 0.77655 0.0
H2524 H 0.24678 0.5731 0.5023 0.0
H2525 H 0.21417 0.562 0.49683 0.0
H2526 H 0.2058 0.60655 0.53673 0.0
H2527 H 0.23804 0.61793 0.54173 0.0
H2528 H 0.18921 0.55101 0.51829 0.0
H2529 H 0.17257 0.61076 0.49518 0.0
H2530 H 0.19532 0.60741 0.49783 0.0
H2531 H 0.18479 0.61661 0.51725 0.0
C2532 C 0.23794 0.58049 0.50987 0.0
C2533 C 0.24501 0.59648 0.52233 0.0
C2534 C 0.2193 0.57418 0.50672 0.0
C2535 C 0.20739 0.58368 0.51599 0.0
C2536 C 0.21455 0.59928 0.52888 0.0
H2537 H 0.09892 0.55004 0.53978 0.0
H2538 H 0.13127 0.55913 0.5391 0.0
C2539 C 0.23307 0.6057 0.53186 0.0
C2540 C 0.18754 0.57714 0.51273 0.0
H2541 H 0.14804 0.59067 0.50406 0.0
C2542 C 0.18025 0.55965 0.51498 0.0
C2543 C 0.17571 0.58824 0.50812 0.0
C2544 C 0.18251 0.60672 0.50426 0.0
C2545 C 0.16159 0.5533 0.51358 0.0
C2546 C 0.14984 0.56477 0.51005 0.0
C2547 C 0.15705 0.58196 0.50701 0.0
C2548 C 0.13005 0.55937 0.51023 0.0
C2549 C 0.15452 0.53435 0.51596 0.0
C2550 C 0.1185 0.55682 0.49426 0.0
C2551 C 0.0999 0.55153 0.49457 0.0
C2552 C 0.09245 0.54891 0.51092 0.0
C2553 C 0.1041 0.55186 0.52693 0.0
C2554 C 0.12265 0.55699 0.52657 0.0
H2555 H 0.16501 0.52605 0.51466 0.0
H2556 H 0.14973 0.53461 0.52969 0.0
H2557 H 0.14301 0.52786 0.50572 0.0
H2558 H 0.12391 0.55871 0.48152 0.0
H2559 H 0.09137 0.54946 0.48198 0.0
H2560 H 0.71718 0.0103 0.76387 0.0
H2561 H 0.73167 0.98805 0.77505 0.0
H2562 H 0.68044 0.95211 0.77078 0.0
H2563 H 0.66572 0.97448 0.75995 0.0
H2564 H 0.70196 0.95385 0.80291 0.0
H2565 H 0.73888 0.94259 0.74151 0.0
H2566 H 0.74262 0.96569 0.75262 0.0
H2567 H 0.72057 0.95449 0.74249 0.0
C2568 C 0.70899 0.99769 0.76538 0.0
C2569 C 0.69037 0.99401 0.76091 0.0
C2570 C 0.71728 0.98501 0.7717 0.0
C2571 C 0.70711 0.96841 0.77339 0.0
C2572 C 0.68846 0.96487 0.76945 0.0
H2573 H 0.73672 0.87025 0.79119 0.0
H2574 H 0.71978 0.89382 0.78821 0.0
C2575 C 0.68012 0.97762 0.76325 0.0
C2576 C 0.71605 0.95458 0.77883 0.0
H2577 H 0.74734 0.92959 0.76639 0.0
C2578 C 0.71184 0.94846 0.79494 0.0
C2579 C 0.72873 0.94753 0.76819 0.0
C2580 C 0.73285 0.95276 0.75015 0.0
C2581 C 0.72043 0.93568 0.80095 0.0
C2582 C 0.73346 0.92909 0.79059 0.0
C2583 C 0.73749 0.93502 0.77439 0.0
C2584 C 0.7428 0.9155 0.79582 0.0
C2585 C 0.71575 0.92941 0.81836 0.0
C2586 C 0.7612 0.92011 0.80138 0.0
C2587 C 0.77089 0.90673 0.80302 0.0
C2588 C 0.76228 0.88863 0.79887 0.0
C2589 C 0.74365 0.88415 0.79428 0.0
C2590 C 0.73396 0.89753 0.79273 0.0
H2591 H 0.70693 0.93744 0.82596 0.0
H2592 H 0.70872 0.91515 0.81512 0.0
H2593 H 0.72815 0.93018 0.82727 0.0
H2594 H 0.76817 0.93397 0.80361 0.0
H2595 H 0.78526 0.91048 0.80644 0.0
H2596 H 0.72787 0.87764 0.52378 0.0
H2597 H 0.70204 0.89156 0.51866 0.0
H2598 H 0.7354 0.944 0.53672 0.0
H2599 H 0.76122 0.93026 0.54197 0.0
H2600 H 0.70167 0.93898 0.55172 0.0
H2601 H 0.69513 0.91862 0.47619 0.0
H2602 H 0.69539 0.90091 0.48888 0.0
H2603 H 0.71507 0.91806 0.49017 0.0
C2604 C 0.72967 0.89214 0.52676 0.0
C2605 C 0.7466 0.90287 0.53321 0.0
C2606 C 0.71494 0.90005 0.52372 0.0
C2607 C 0.7169 0.9188 0.52707 0.0
C2608 C 0.73365 0.92951 0.53397 0.0
H2609 H 0.65552 0.9932 0.49631 0.0
H2610 H 0.67756 0.97468 0.50085 0.0
C2611 C 0.74838 0.92163 0.53697 0.0
C2612 C 0.70159 0.9274 0.52339 0.0
H2613 H 0.67383 0.93455 0.48908 0.0
C2614 C 0.69548 0.93792 0.53805 0.0
C2615 C 0.69371 0.9261 0.5055 0.0
C2616 C 0.70019 0.91544 0.48922 0.0
C2617 C 0.68171 0.94726 0.53529 0.0
C2618 C 0.67382 0.94594 0.51743 0.0
C2619 C 0.67985 0.93537 0.50276 0.0
C2620 C 0.65995 0.95627 0.51369 0.0
C2621 C 0.676 0.9589 0.55139 0.0
C2622 C 0.64267 0.95181 0.51914 0.0
C2623 C 0.62993 0.96224 0.51637 0.0
C2624 C 0.63428 0.97736 0.50815 0.0
C2625 C 0.65157 0.98153 0.50242 0.0
C2626 C 0.66424 0.97103 0.50509 0.0
H2627 H 0.68516 0.96048 0.56391 0.0
H2628 H 0.67552 0.9724 0.54838 0.0
H2629 H 0.66231 0.95276 0.55412 0.0
H2630 H 0.6391 0.94034 0.52565 0.0
H2631 H 0.61667 0.95844 0.52066 0.0
H2632 H 0.40932 0.47399 0.75198 0.0
H2633 H 0.39288 0.44428 0.75336 0.0
H2634 H 0.34538 0.46576 0.76358 0.0
H2635 H 0.36201 0.49604 0.76201 0.0
H2636 H 0.37817 0.42926 0.77884 0.0
H2637 H 0.32268 0.42301 0.72567 0.0
H2638 H 0.34201 0.44105 0.72902 0.0
H2639 H 0.32428 0.44196 0.7438 0.0
C2640 C 0.39532 0.47268 0.75441 0.0
C2641 C 0.38727 0.48802 0.75676 0.0
C2642 C 0.3858 0.45532 0.75527 0.0
C2643 C 0.36752 0.45205 0.75836 0.0
C2644 C 0.35928 0.46731 0.76074 0.0
H2645 H 0.29188 0.35067 0.76714 0.0
H2646 H 0.30622 0.3816 0.76622 0.0
C2647 C 0.36892 0.48489 0.75995 0.0
C2648 C 0.35778 0.43286 0.75951 0.0
H2649 H 0.32106 0.39938 0.74219 0.0
C2650 C 0.36569 0.42285 0.77072 0.0
C2651 C 0.34133 0.42388 0.74913 0.0
C2652 C 0.33211 0.43291 0.73609 0.0
C2653 C 0.35786 0.40487 0.772 0.0
C2654 C 0.34155 0.39577 0.76143 0.0
C2655 C 0.3335 0.40583 0.75036 0.0
C2656 C 0.33263 0.37613 0.76181 0.0
C2657 C 0.36704 0.39603 0.78527 0.0
C2658 C 0.34215 0.36185 0.75939 0.0
C2659 C 0.33385 0.34386 0.75997 0.0
C2660 C 0.31554 0.33915 0.76286 0.0
C2661 C 0.30596 0.35337 0.76498 0.0
C2662 C 0.31426 0.37133 0.76439 0.0
H2663 H 0.37557 0.40613 0.79626 0.0
H2664 H 0.35717 0.38713 0.79165 0.0
H2665 H 0.37587 0.38786 0.77794 0.0
H2666 H 0.35612 0.36452 0.75681 0.0
H2667 H 0.34187 0.33358 0.75807 0.0
H2668 H 0.20812 0.57974 0.24621 0.0
H2669 H 0.22857 0.60887 0.25124 0.0
H2670 H 0.18438 0.63426 0.23975 0.0
H2671 H 0.16377 0.6053 0.2348 0.0
H2672 H 0.23516 0.63433 0.22743 0.0
H2673 H 0.2076 0.66097 0.29124 0.0
H2674 H 0.20349 0.63735 0.28137 0.0
H2675 H 0.19088 0.65193 0.27236 0.0
C2676 C 0.20275 0.5915 0.24462 0.0
C2677 C 0.1843 0.59024 0.2402 0.0
C2678 C 0.21445 0.60808 0.24751 0.0
C2679 C 0.20785 0.62361 0.24613 0.0
C2680 C 0.1896 0.62236 0.24114 0.0
H2681 H 0.25611 0.72871 0.23361 0.0
H2682 H 0.24241 0.69694 0.22955 0.0
C2683 C 0.17789 0.6058 0.2382 0.0
C2684 C 0.21996 0.64123 0.25007 0.0
H2685 H 0.2265 0.68225 0.27773 0.0
C2686 C 0.23346 0.6448 0.23853 0.0
C2687 C 0.21786 0.6546 0.2648 0.0
C2688 C 0.20429 0.65102 0.27828 0.0
C2689 C 0.24446 0.66183 0.24085 0.0
C2690 C 0.24154 0.67558 0.25485 0.0
C2691 C 0.22857 0.67171 0.26689 0.0
C2692 C 0.25112 0.69429 0.25683 0.0
C2693 C 0.25901 0.66493 0.22828 0.0
C2694 C 0.2602 0.70337 0.27363 0.0
C2695 C 0.26769 0.72158 0.27611 0.0
C2696 C 0.26629 0.73094 0.26177 0.0
C2697 C 0.25753 0.72175 0.24483 0.0
C2698 C 0.24983 0.70359 0.24245 0.0
H2699 H 0.26334 0.65224 0.22272 0.0
H2700 H 0.25376 0.67018 0.2166 0.0
H2701 H 0.27089 0.67483 0.23536 0.0
H2702 H 0.26123 0.69641 0.28491 0.0
H2703 H 0.27452 0.72832 0.28927 0.0
H2704 H 0.51857 0.76365 0.45723 0.0
H2705 H 0.51951 0.74002 0.47466 0.0
H2706 H 0.48259 0.70266 0.43349 0.0
H2707 H 0.48243 0.72619 0.41533 0.0
H2708 H 0.497 0.71823 0.48997 0.0
H2709 H 0.52482 0.67873 0.43274 0.0
H2710 H 0.52146 0.70118 0.4325 0.0
H2711 H 0.50278 0.68253 0.42734 0.0
C2712 C 0.51044 0.75048 0.45198 0.0
C2713 C 0.50066 0.74661 0.43482 0.0
C2714 C 0.51096 0.73699 0.46198 0.0
C2715 C 0.50146 0.71951 0.45514 0.0
C2716 C 0.49044 0.71596 0.43871 0.0
H2717 H 0.51424 0.6255 0.50021 0.0
H2718 H 0.50006 0.64695 0.48705 0.0
C2719 C 0.49026 0.72939 0.42844 0.0
C2720 C 0.50455 0.70497 0.46459 0.0
H2721 H 0.5226 0.66731 0.4597 0.0
C2722 C 0.5024 0.70697 0.4833 0.0
C2723 C 0.51182 0.69044 0.45586 0.0
C2724 C 0.51553 0.68812 0.43606 0.0
C2725 C 0.50784 0.69512 0.49364 0.0
C2726 C 0.51528 0.68086 0.48493 0.0
C2727 C 0.51676 0.67835 0.46616 0.0
C2728 C 0.52271 0.66892 0.49514 0.0
C2729 C 0.50617 0.6981 0.51386 0.0
C2730 C 0.54001 0.67445 0.50415 0.0
C2731 C 0.54825 0.66221 0.51147 0.0
C2732 C 0.53925 0.64435 0.50972 0.0
C2733 C 0.52157 0.63915 0.50143 0.0
C2734 C 0.5134 0.65134 0.49407 0.0
H2735 H 0.49823 0.70856 0.51822 0.0
H2736 H 0.49975 0.68538 0.51782 0.0
H2737 H 0.51975 0.70236 0.52128 0.0
H2738 H 0.54738 0.68799 0.50482 0.0
H2739 H 0.5619 0.66649 0.5177 0.0
H2740 H 0.62611 0.27743 0.6296 0.0
H2741 H 0.65343 0.27538 0.64723 0.0
H2742 H 0.63466 0.30159 0.69611 0.0
H2743 H 0.60715 0.30339 0.6787 0.0
H2744 H 0.68021 0.30077 0.67121 0.0
H2745 H 0.63967 0.25158 0.70605 0.0
H2746 H 0.63105 0.25813 0.6858 0.0
H2747 H 0.63213 0.27247 0.70768 0.0
C2748 C 0.62797 0.28307 0.64404 0.0
C2749 C 0.61444 0.29027 0.65292 0.0
C2750 C 0.64352 0.28186 0.65405 0.0
C2751 C 0.64567 0.28792 0.67293 0.0
C2752 C 0.6329 0.29648 0.68156 0.0
H2753 H 0.72264 0.2917 0.76117 0.0
H2754 H 0.69636 0.29264 0.74129 0.0
C2755 C 0.6173 0.29757 0.67161 0.0
C2756 C 0.66064 0.28425 0.68385 0.0
H2757 H 0.67016 0.2623 0.71781 0.0
C2758 C 0.6781 0.29228 0.68132 0.0
C2759 C 0.65764 0.27294 0.69678 0.0
C2760 C 0.63912 0.26313 0.69915 0.0
C2761 C 0.69277 0.28984 0.69202 0.0
C2762 C 0.68969 0.27901 0.70535 0.0
C2763 C 0.67228 0.27066 0.70759 0.0
C2764 C 0.70443 0.27677 0.71755 0.0
C2765 C 0.71138 0.29918 0.68939 0.0
C2766 C 0.7171 0.267 0.71074 0.0
C2767 C 0.73206 0.26642 0.72198 0.0
C2768 C 0.73446 0.27562 0.74017 0.0
C2769 C 0.72118 0.28458 0.74719 0.0
C2770 C 0.70621 0.28514 0.7359 0.0
H2771 H 0.71114 0.3093 0.68054 0.0
H2772 H 0.7188 0.30594 0.70273 0.0
H2773 H 0.7189 0.2891 0.68295 0.0
H2774 H 0.71566 0.26026 0.69661 0.0
H2775 H 0.74199 0.25923 0.71625 0.0
H2776 H 0.03818 0.36109 0.90522 0.0
H2777 H 0.03634 0.38934 0.92519 0.0
H2778 H 0.02226 0.3607 0.96855 0.0
H2779 H 0.02375 0.33254 0.94876 0.0
H2780 H 0.99894 0.38288 0.96164 0.0
H2781 H 0.07016 0.41829 0.96925 0.0
H2782 H 0.0606 0.41015 0.94613 0.0
H2783 H 0.06338 0.39447 0.96071 0.0
C2784 C 0.03495 0.36089 0.91909 0.0
C2785 C 0.03101 0.34465 0.92542 0.0
C2786 C 0.03394 0.37699 0.93046 0.0
C2787 C 0.02924 0.37698 0.94829 0.0
C2788 C 0.02586 0.36088 0.95478 0.0
H2789 H 0.04094 0.47276 0.02979 0.0
H2790 H 0.04005 0.44171 0.01501 0.0
C2791 C 0.02673 0.34484 0.94345 0.0
C2792 C 0.02687 0.39356 0.96004 0.0
H2793 H 0.04901 0.43505 0.98122 0.0
C2794 C 0.00988 0.39429 0.96606 0.0
C2795 C 0.04125 0.40822 0.9658 0.0
C2796 C 0.05993 0.40777 0.96029 0.0
C2797 C 0.00684 0.40945 0.97774 0.0
C2798 C 0.02111 0.42432 0.98315 0.0
C2799 C 0.03812 0.42354 0.97714 0.0
C2800 C 0.01874 0.44123 0.99438 0.0
C2801 C 0.98845 0.40929 0.98427 0.0
C2802 C 0.00648 0.45083 0.98813 0.0
C2803 C 0.00668 0.46836 0.99681 0.0
C2804 C 0.0195 0.47661 0.01149 0.0
C2805 C 0.03096 0.46662 0.01846 0.0
C2806 C 0.0305 0.44897 0.01001 0.0
H2807 H 0.98116 0.39538 0.98402 0.0
H2808 H 0.98923 0.41712 0.99832 0.0
H2809 H 0.98046 0.41533 0.97506 0.0
H2810 H 0.9976 0.44526 0.97584 0.0
H2811 H 0.99786 0.47589 0.99103 0.0
H2812 H 0.01442 0.73034 0.16562 0.0
H2813 H 0.98256 0.72497 0.1703 0.0
H2814 H 0.9792 0.77726 0.15889 0.0
H2815 H 0.01083 0.78228 0.15326 0.0
H2816 H 0.96792 0.74279 0.19567 0.0
H2817 H 0.93481 0.74831 0.12982 0.0
H2818 H 0.95802 0.74635 0.13246 0.0
H2819 H 0.9517 0.76784 0.13866 0.0
C2820 C 0.00681 0.74061 0.16401 0.0
C2821 C 0.01497 0.75674 0.15917 0.0
C2822 C 0.98863 0.73748 0.16651 0.0
C2823 C 0.97844 0.75053 0.1645 0.0
C2824 C 0.98665 0.76673 0.15982 0.0
H2825 H 0.89184 0.78463 0.2111 0.0
H2826 H 0.91479 0.77866 0.1907 0.0
C2827 C 0.00474 0.7697 0.1569 0.0
C2828 C 0.95984 0.7481 0.16941 0.0
H2829 H 0.9177 0.75286 0.15606 0.0
C2830 C 0.95685 0.74453 0.18682 0.0
C2831 C 0.94546 0.75045 0.15784 0.0
C2832 C 0.94764 0.75326 0.13859 0.0
C2833 C 0.94007 0.74422 0.1934 0.0
C2834 C 0.92593 0.74742 0.18217 0.0
C2835 C 0.92865 0.75033 0.16451 0.0
C2836 C 0.90906 0.74997 0.18966 0.0
C2837 C 0.93786 0.74147 0.21271 0.0
C2838 C 0.89782 0.73565 0.19498 0.0
C2839 C 0.88485 0.73903 0.20676 0.0
C2840 C 0.88297 0.75675 0.21314 0.0
C2841 C 0.89307 0.77086 0.20635 0.0
C2842 C 0.9061 0.76747 0.19466 0.0
H2843 H 0.95084 0.74159 0.22035 0.0
H2844 H 0.93156 0.75208 0.22023 0.0
H2845 H 0.92894 0.72832 0.21246 0.0
H2846 H 0.89996 0.72206 0.19109 0.0
H2847 H 0.87692 0.72794 0.21159 0.0
H2848 H 0.48579 0.2935 0.07175 0.0
H2849 H 0.4957 0.31911 0.05701 0.0
H2850 H 0.51415 0.35251 0.10968 0.0
H2851 H 0.50324 0.32746 0.1244 0.0
H2852 H 0.50069 0.371 0.08992 0.0
H2853 H 0.54647 0.33613 0.04911 0.0
H2854 H 0.52371 0.32433 0.04379 0.0
H2855 H 0.53459 0.32664 0.06636 0.0
C2856 C 0.49159 0.30645 0.08013 0.0
C2857 C 0.49376 0.30855 0.09917 0.0
C2858 C 0.49751 0.32096 0.07172 0.0
C2859 C 0.50624 0.33754 0.08222 0.0
C2860 C 0.50759 0.33981 0.10128 0.0
H2861 H 0.57134 0.42042 0.03443 0.0
H2862 H 0.5619 0.39581 0.05085 0.0
C2863 C 0.50124 0.3255 0.10969 0.0
C2864 C 0.5141 0.35256 0.07351 0.0
H2865 H 0.54142 0.3636 0.04103 0.0
C2866 C 0.5097 0.36938 0.07933 0.0
C2867 C 0.52636 0.35064 0.06013 0.0
C2868 C 0.53323 0.33351 0.05465 0.0
C2869 C 0.51675 0.38419 0.07173 0.0
C2870 C 0.52774 0.38185 0.05726 0.0
C2871 C 0.53268 0.36524 0.05188 0.0
C2872 C 0.53359 0.39629 0.04707 0.0
C2873 C 0.51253 0.4022 0.07953 0.0
C2874 C 0.52078 0.40424 0.03911 0.0
C2875 C 0.52615 0.41828 0.03003 0.0
C2876 C 0.54438 0.42429 0.02836 0.0
C2877 C 0.55721 0.41585 0.03555 0.0
C2878 C 0.55183 0.40192 0.04494 0.0
H2879 H 0.50991 0.40309 0.09408 0.0
H2880 H 0.52367 0.41338 0.0785 0.0
H2881 H 0.50025 0.40399 0.07195 0.0
H2882 H 0.50661 0.39969 0.04006 0.0
H2883 H 0.51607 0.42459 0.02442 0.0
H2884 H 0.0386 0.33079 0.35516 0.0
H2885 H 0.00874 0.32392 0.33897 0.0
H2886 H 0.99766 0.27329 0.35712 0.0
H2887 H 0.02755 0.28021 0.37373 0.0
H2888 H 0.99965 0.29215 0.31086 0.0
H2889 H 0.95115 0.2945 0.36386 0.0
H2890 H 0.97424 0.30609 0.36868 0.0
H2891 H 0.96878 0.28213 0.36605 0.0
C2892 C 0.02967 0.31837 0.35604 0.0
C2893 C 0.03539 0.30593 0.3655 0.0
C2894 C 0.01266 0.31448 0.34681 0.0
C2895 C 1.00117 0.29809 0.34683 0.0
C2896 C 0.00637 0.28607 0.35713 0.0
H2897 H 0.89951 0.26719 0.27679 0.0
H2898 H 0.92664 0.26305 0.29338 0.0
C2899 C 0.0234 0.29005 0.36657 0.0
C2900 C 0.98466 0.29308 0.33444 0.0
H2901 H 0.93941 0.28977 0.33321 0.0
C2902 C 0.98642 0.29131 0.31569 0.0
C2903 C 0.96754 0.29187 0.3409 0.0
C2904 C 0.96516 0.2938 0.36097 0.0
C2905 C 0.97151 0.28942 0.30324 0.0
C2906 C 0.95457 0.28927 0.30979 0.0
C2907 C 0.95257 0.28987 0.32838 0.0
C2908 C 0.93928 0.29109 0.29799 0.0
C2909 C 0.97398 0.28851 0.28328 0.0
C2910 C 0.93787 0.30815 0.29483 0.0
C2911 C 0.92239 0.31064 0.28566 0.0
C2912 C 0.90814 0.29604 0.27948 0.0
C2913 C 0.91017 0.27873 0.28165 0.0
C2914 C 0.9256 0.27631 0.29105 0.0
H2915 H 0.98735 0.28575 0.28 0.0
H2916 H 0.96342 0.27792 0.27486 0.0
H2917 H 0.97265 0.30152 0.2795 0.0
H2918 H 0.94842 0.31967 0.30022 0.0
H2919 H 0.92118 0.32416 0.28449 0.0
H2920 H 0.99734 0.72044 0.58305 0.0
H2921 H 1.00153 0.69289 0.56327 0.0
H2922 H 0.98905 0.66336 0.6063 0.0
H2923 H 0.98519 0.69074 0.62616 0.0
H2924 H 0.02461 0.66512 0.59386 0.0
H2925 H 0.96968 0.6432 0.53739 0.0
H2926 H 0.98005 0.66664 0.54312 0.0
H2927 H 0.96677 0.65657 0.55897 0.0
C2928 C 0.99491 0.70793 0.58803 0.0
C2929 C 0.99121 0.70766 0.60615 0.0
C2930 C 0.99727 0.69225 0.57673 0.0
C2931 C 0.99562 0.67623 0.58344 0.0
C2932 C 0.99038 0.67567 0.60098 0.0
H2933 H 0.01957 0.5721 0.56204 0.0
H2934 H 0.01174 0.60092 0.57411 0.0
C2935 C 0.98823 0.69129 0.61229 0.0
C2936 C 0.00215 0.66082 0.57364 0.0
H2937 H 0.99216 0.62585 0.53763 0.0
C2938 C 0.01758 0.65656 0.5815 0.0
C2939 C 0.99304 0.64998 0.55744 0.0
C2940 C 0.9764 0.65418 0.54867 0.0
C2941 C 0.02386 0.64129 0.57389 0.0
C2942 C 0.01431 0.62998 0.55815 0.0
C2943 C 0.99931 0.63461 0.5498 0.0
C2944 C 0.01918 0.61278 0.55082 0.0
C2945 C 0.04052 0.63723 0.58283 0.0
C2946 C 0.02583 0.61007 0.53374 0.0
C2947 C 0.03037 0.59368 0.52683 0.0
C2948 C 0.02814 0.57976 0.53688 0.0
C2949 C 0.02148 0.58259 0.55402 0.0
C2950 C 0.01703 0.59901 0.56094 0.0
H2951 H 0.04863 0.64931 0.59195 0.0
H2952 H 0.03658 0.62683 0.59115 0.0
H2953 H 0.04901 0.63197 0.57244 0.0
H2954 H 0.02752 0.62064 0.52581 0.0
H2955 H 0.03538 0.59186 0.51353 0.0
H2956 H 0.65251 0.81511 0.89635 0.0
H2957 H 0.67655 0.82051 0.87617 0.0
H2958 H 0.64546 0.78002 0.83322 0.0
H2959 H 0.62167 0.77459 0.85304 0.0
H2960 H 0.69544 0.79472 0.85502 0.0
H2961 H 0.65505 0.82709 0.81175 0.0
H2962 H 0.6503 0.82487 0.83472 0.0
H2963 H 0.64296 0.80623 0.81612 0.0
C2964 C 0.65108 0.80713 0.88273 0.0
C2965 C 0.63529 0.79454 0.8761 0.0
C2966 C 0.66465 0.81034 0.87124 0.0
C2967 C 0.66236 0.80102 0.85315 0.0
C2968 C 0.64714 0.78765 0.84702 0.0
H2969 H 0.71894 0.76471 0.76914 0.0
H2970 H 0.69723 0.77195 0.7905 0.0
C2971 C 0.63369 0.78446 0.85838 0.0
C2972 C 0.67569 0.80487 0.84032 0.0
H2973 H 0.67877 0.81436 0.79767 0.0
C2974 C 0.69209 0.79951 0.84271 0.0
C2975 C 0.67116 0.81118 0.82436 0.0
C2976 C 0.65397 0.81784 0.82164 0.0
C2977 C 0.70354 0.79896 0.82879 0.0
C2978 C 0.69826 0.80381 0.81224 0.0
C2979 C 0.68254 0.81047 0.81037 0.0
C2980 C 0.70829 0.80043 0.79634 0.0
C2981 C 0.72074 0.79225 0.83144 0.0
C2982 C 0.72075 0.81431 0.79184 0.0
C2983 C 0.73316 0.81026 0.77959 0.0
C2984 C 0.73322 0.79226 0.77196 0.0
C2985 C 0.71937 0.77867 0.775 0.0
C2986 C 0.70699 0.78275 0.78719 0.0
H2987 H 0.72453 0.79241 0.84603 0.0
H2988 H 0.71899 0.77823 0.8239 0.0
H2989 H 0.73189 0.80052 0.82594 0.0
H2990 H 0.72173 0.82805 0.79878 0.0
H2991 H 0.74356 0.82106 0.77737 0.0
H2992 H 0.41926 0.54306 0.68705 0.0
H2993 H 0.43515 0.54048 0.65938 0.0
H2994 H 0.48564 0.55658 0.69239 0.0
H2995 H 0.46975 0.55872 0.72003 0.0
H2996 H 0.45552 0.56085 0.642 0.0
H2997 H 0.49916 0.516 0.66069 0.0
H2998 H 0.48123 0.5212 0.67401 0.0
H2999 H 0.50261 0.53647 0.67712 0.0
C3000 C 0.43377 0.54598 0.68855 0.0
C3001 C 0.44295 0.55102 0.70626 0.0
C3002 C 0.44301 0.54452 0.67247 0.0
C3003 C 0.46199 0.54787 0.67311 0.0
C3004 C 0.47115 0.55322 0.69085 0.0
H3005 H 0.54048 0.55302 0.58726 0.0
H3006 H 0.5257 0.55569 0.61581 0.0
C3007 C 0.46191 0.55466 0.70694 0.0
C3008 C 0.47191 0.54616 0.65545 0.0
H3009 H 0.50631 0.52909 0.63483 0.0
C3010 C 0.46654 0.55376 0.6406 0.0
C3011 C 0.4865 0.53694 0.6528 0.0
C3012 C 0.49261 0.52703 0.6669 0.0
C3013 C 0.47517 0.55275 0.62405 0.0
C3014 C 0.48984 0.54373 0.62153 0.0
C3015 C 0.49529 0.53617 0.63633 0.0
C3016 C 0.4993 0.54177 0.60368 0.0
C3017 C 0.46868 0.56182 0.6094 0.0
C3018 C 0.48995 0.53279 0.58675 0.0
C3019 C 0.49853 0.53099 0.5703 0.0
C3020 C 0.51696 0.53822 0.56975 0.0
C3021 C 0.52637 0.54719 0.58671 0.0
C3022 C 0.51781 0.54873 0.60327 0.0
H3023 H 0.46051 0.57176 0.61477 0.0
H3024 H 0.48014 0.56874 0.60312 0.0
H3025 H 0.46021 0.55155 0.59855 0.0
H3026 H 0.47584 0.52695 0.58619 0.0
H3027 H 0.49053 0.52399 0.55783 0.0
H3028 H 0.78745 0.12878 0.95893 0.0
H3029 H 0.78093 0.14457 0.93446 0.0
H3030 H 0.80174 0.19534 0.97024 0.0
H3031 H 0.80785 0.17967 0.99489 0.0
H3032 H 0.76945 0.19474 0.95271 0.0
H3033 H 0.81479 0.16979 0.90321 0.0
H3034 H 0.79932 0.15236 0.9103 0.0
H3035 H 0.8163 0.16693 0.92662 0.0
C3036 C 0.79085 0.1433 0.9615 0.0
C3037 C 0.79822 0.15299 0.97881 0.0
C3038 C 0.78717 0.1523 0.94748 0.0
C3039 C 0.79105 0.17113 0.95046 0.0
C3040 C 0.79867 0.1808 0.96765 0.0
H3041 H 0.79782 0.24222 0.87374 0.0
H3042 H 0.80276 0.22349 0.89597 0.0
C3043 C 0.80221 0.17183 0.9817 0.0
C3044 C 0.78651 0.18086 0.93598 0.0
H3045 H 0.79487 0.18701 0.893 0.0
C3046 C 0.775 0.19306 0.93964 0.0
C3047 C 0.79384 0.17869 0.919 0.0
C3048 C 0.80688 0.16636 0.91456 0.0
C3049 C 0.77077 0.20331 0.92686 0.0
C3050 C 0.77793 0.20098 0.9098 0.0
C3051 C 0.7893 0.18866 0.90606 0.0
C3052 C 0.77467 0.21195 0.89604 0.0
C3053 C 0.75915 0.21693 0.93199 0.0
C3054 C 0.75723 0.21152 0.88857 0.0
C3055 C 0.75435 0.2223 0.87592 0.0
C3056 C 0.76891 0.23347 0.87035 0.0
C3057 C 0.78636 0.23362 0.87764 0.0
C3058 C 0.7892 0.22297 0.89036 0.0
H3059 H 0.75843 0.22011 0.94695 0.0
H3060 H 0.76426 0.22958 0.9272 0.0
H3061 H 0.74533 0.21145 0.92547 0.0
H3062 H 0.74585 0.20282 0.89247 0.0
H3063 H 0.74079 0.22172 0.8703 0.0
H3064 H 0.10498 0.51541 0.20594 0.0
H3065 H 0.08834 0.52018 0.17891 0.0
H3066 H 0.13654 0.52415 0.1511 0.0
H3067 H 0.1532 0.51904 0.17786 0.0
H3068 H 0.09637 0.55109 0.16374 0.0
H3069 H 0.09923 0.48937 0.1141 0.0
H3070 H 0.10395 0.49126 0.13835 0.0
H3071 H 0.12071 0.5011 0.12517 0.0
C3072 C 0.11192 0.51689 0.19391 0.0
C3073 C 0.13035 0.51685 0.19395 0.0
C3074 C 0.10245 0.51971 0.17858 0.0
C3075 C 0.11127 0.52243 0.16313 0.0
C3076 C 0.1295 0.52178 0.16287 0.0
H3077 H 0.08412 0.55069 0.06109 0.0
H3078 H 0.09944 0.55049 0.0906 0.0
C3079 C 0.13897 0.51886 0.17815 0.0
C3080 C 0.10166 0.52691 0.14757 0.0
H3081 H 0.08962 0.51301 0.10214 0.0
C3082 C 0.09475 0.54274 0.15027 0.0
C3083 C 0.09967 0.51591 0.13014 0.0
C3084 C 0.10613 0.49838 0.12675 0.0
C3085 C 0.08606 0.548 0.13573 0.0
C3086 C 0.08443 0.53716 0.11831 0.0
C3087 C 0.09121 0.52132 0.11563 0.0
C3088 C 0.07509 0.54142 0.10256 0.0
C3089 C 0.07886 0.56511 0.13888 0.0
C3090 C 0.05638 0.53683 0.09997 0.0
C3091 C 0.04759 0.53675 0.08314 0.0
C3092 C 0.05749 0.54117 0.06874 0.0
C3093 C 0.07617 0.54703 0.07187 0.0
C3094 C 0.08493 0.54704 0.0887 0.0
H3095 H 0.0826 0.57284 0.15298 0.0
H3096 H 0.08398 0.57367 0.1291 0.0
H3097 H 0.06402 0.56185 0.13638 0.0
H3098 H 0.0487 0.53227 0.11059 0.0
H3099 H 0.03315 0.53236 0.08118 0.0
H3100 H 0.78896 0.87769 0.45464 0.0
H3101 H 0.78621 0.85865 0.42481 0.0
H3102 H 0.78516 0.81215 0.44967 0.0
H3103 H 0.78833 0.83141 0.48005 0.0
H3104 H 0.80671 0.81244 0.42104 0.0
H3105 H 0.74071 0.82565 0.39963 0.0
H3106 H 0.75635 0.84628 0.40784 0.0
H3107 H 0.75002 0.83104 0.42311 0.0
C3108 C 0.78806 0.86341 0.4539 0.0
C3109 C 0.78862 0.85605 0.46978 0.0
C3110 C 0.7864 0.85252 0.43676 0.0
C3111 C 0.78495 0.83393 0.435 0.0
C3112 C 0.78601 0.82647 0.45076 0.0
H3113 H 0.75811 0.78072 0.32062 0.0
H3114 H 0.75688 0.78681 0.35371 0.0
C3115 C 0.78783 0.83746 0.46807 0.0
C3116 C 0.78272 0.82271 0.4165 0.0
H3117 H 0.7587 0.81679 0.3753 0.0
C3118 C 0.79601 0.81303 0.41109 0.0
C3119 C 0.76852 0.82308 0.40363 0.0
C3120 C 0.753 0.83191 0.40892 0.0
C3121 C 0.79619 0.80487 0.3928 0.0
C3122 C 0.78302 0.80692 0.37958 0.0
C3123 C 0.76901 0.81544 0.3853 0.0
C3124 C 0.78422 0.80169 0.35968 0.0
C3125 C 0.81063 0.79436 0.38789 0.0
C3126 C 0.79991 0.80812 0.35197 0.0
C3127 C 0.80071 0.80445 0.33315 0.0
C3128 C 0.78567 0.79467 0.32156 0.0
C3129 C 0.7699 0.78834 0.32921 0.0
C3130 C 0.76921 0.79176 0.34812 0.0
H3131 H 0.81471 0.78817 0.3994 0.0
H3132 H 0.80615 0.7836 0.37572 0.0
H3133 H 0.82266 0.80358 0.38501 0.0
H3134 H 0.81144 0.8164 0.36046 0.0
H3135 H 0.813 0.80969 0.32766 0.0
H3136 H 0.42483 0.54842 0.8302 0.0
H3137 H 0.43704 0.54705 0.86119 0.0
H3138 H 0.49019 0.55267 0.8436 0.0
H3139 H 0.47818 0.55389 0.81301 0.0
H3140 H 0.45637 0.5224 0.87392 0.0
H3141 H 0.49947 0.58997 0.89058 0.0
H3142 H 0.48203 0.58372 0.87195 0.0
H3143 H 0.50334 0.5772 0.86924 0.0
C3144 C 0.43917 0.54982 0.83299 0.0
C3145 C 0.45038 0.55161 0.81873 0.0
C3146 C 0.44622 0.54881 0.85085 0.0
C3147 C 0.46482 0.54992 0.85534 0.0
C3148 C 0.47593 0.55207 0.84114 0.0
H3149 H 0.51821 0.51215 0.94726 0.0
H3150 H 0.50426 0.51544 0.91802 0.0
C3151 C 0.46892 0.55277 0.82338 0.0
C3152 C 0.4727 0.54834 0.87436 0.0
H3153 H 0.50471 0.56957 0.9098 0.0
C3154 C 0.46687 0.53283 0.88172 0.0
C3155 C 0.48646 0.56177 0.88512 0.0
C3156 C 0.49312 0.57918 0.87896 0.0
C3157 C 0.47446 0.53026 0.89878 0.0
C3158 C 0.48863 0.54346 0.9093 0.0
C3159 C 0.49411 0.55917 0.90212 0.0
C3160 C 0.4977 0.5414 0.92767 0.0
C3161 C 0.46682 0.5134 0.9055 0.0
C3162 C 0.49967 0.55498 0.94346 0.0
C3163 C 0.50789 0.55314 0.96044 0.0
C3164 C 0.51477 0.53767 0.96252 0.0
C3165 C 0.51309 0.52424 0.94665 0.0
C3166 C 0.50484 0.52607 0.92969 0.0
H3167 H 0.45296 0.50754 0.89922 0.0
H3168 H 0.47522 0.50326 0.90169 0.0
H3169 H 0.46663 0.51599 0.92053 0.0
H3170 H 0.49459 0.56708 0.94277 0.0
H3171 H 0.50881 0.56394 0.97202 0.0
H3172 H 0.80311 0.17892 0.068 0.0
H3173 H 0.79895 0.20232 0.09307 0.0
H3174 H 0.8001 0.16575 0.1304 0.0
H3175 H 0.80363 0.14213 0.10532 0.0
H3176 H 0.77311 0.18277 0.13574 0.0
H3177 H 0.83447 0.23299 0.13267 0.0
H3178 H 0.82029 0.22669 0.11168 0.0
H3179 H 0.83086 0.2103 0.12008 0.0
C3180 C 0.80273 0.17592 0.08159 0.0
C3181 C 0.8038 0.15863 0.08464 0.0
C3182 C 0.8004 0.18936 0.09595 0.0
C3183 C 0.79943 0.18594 0.11374 0.0
C3184 C 0.80079 0.16877 0.11683 0.0
H3185 H 0.81666 0.25862 0.2155 0.0
H3186 H 0.81751 0.23903 0.18664 0.0
C3187 C 0.80291 0.15528 0.10246 0.0
C3188 C 0.79644 0.19993 0.1291 0.0
H3189 H 0.81384 0.24215 0.15293 0.0
C3190 C 0.78202 0.19577 0.13951 0.0
C3191 C 0.80807 0.2169 0.13406 0.0
C3192 C 0.82439 0.22196 0.12416 0.0
C3193 C 0.77918 0.20782 0.15497 0.0
C3194 C 0.79075 0.22485 0.1599 0.0
C3195 C 0.80486 0.22919 0.14914 0.0
C3196 C 0.7898 0.23756 0.17716 0.0
C3197 C 0.76432 0.20178 0.16632 0.0
C3198 C 0.77396 0.24363 0.18157 0.0
C3199 C 0.77331 0.25472 0.19845 0.0
C3200 C 0.78863 0.26029 0.21102 0.0
C3201 C 0.80458 0.25473 0.20619 0.0
C3202 C 0.80512 0.24347 0.18959 0.0
H3203 H 0.75969 0.18698 0.16328 0.0
H3204 H 0.76871 0.206 0.18109 0.0
H3205 H 0.75269 0.20793 0.16327 0.0
H3206 H 0.76206 0.23971 0.17204 0.0
H3207 H 0.76085 0.25883 0.2017 0.0
H3208 H 0.15814 0.54287 0.30404 0.0
H3209 H 0.15759 0.5517 0.3369 0.0
H3210 H 0.11134 0.57507 0.32815 0.0
H3211 H 0.11177 0.56645 0.29518 0.0
H3212 H 0.14221 0.59705 0.35486 0.0
H3213 H 0.11677 0.52737 0.36553 0.0
H3214 H 0.13554 0.53127 0.35223 0.0
H3215 H 0.11384 0.53359 0.34356 0.0
C3216 C 0.14781 0.54987 0.30906 0.0
C3217 C 0.13495 0.55396 0.29701 0.0
C3218 C 0.14759 0.55492 0.32782 0.0
C3219 C 0.1345 0.56405 0.33477 0.0
C3220 C 0.12162 0.56813 0.32288 0.0
H3221 H 0.07522 0.59188 0.41362 0.0
H3222 H 0.09823 0.59605 0.39279 0.0
C3223 C 0.12182 0.56309 0.3041 0.0
C3224 C 0.13363 0.56878 0.3545 0.0
H3225 H 0.11799 0.55081 0.39017 0.0
C3226 C 0.13728 0.58698 0.36277 0.0
C3227 C 0.12744 0.55552 0.36467 0.0
C3228 C 0.12308 0.53582 0.35614 0.0
C3229 C 0.13371 0.59234 0.38083 0.0
C3230 C 0.12617 0.57916 0.39055 0.0
C3231 C 0.12394 0.5609 0.38269 0.0
C3232 C 0.11674 0.5836 0.40681 0.0
C3233 C 0.13718 0.61204 0.38907 0.0
C3234 C 0.12004 0.57627 0.42224 0.0
C3235 C 0.10685 0.57389 0.43421 0.0
C3236 C 0.09018 0.57858 0.43066 0.0
C3237 C 0.08793 0.58813 0.41666 0.0
C3238 C 0.10116 0.59061 0.40478 0.0
H3239 H 0.14844 0.6196 0.38302 0.0
H3240 H 0.12504 0.6175 0.38619 0.0
H3241 H 0.14032 0.61434 0.40407 0.0
H3242 H 0.13198 0.57076 0.42397 0.0
H3243 H 0.10902 0.56684 0.4452 0.0
H3244 H 0.81505 0.87572 0.59765 0.0
H3245 H 0.81308 0.8626 0.62508 0.0
H3246 H 0.77634 0.81599 0.59494 0.0
H3247 H 0.77872 0.8288 0.56728 0.0
H3248 H 0.78411 0.85459 0.64272 0.0
H3249 H 0.81028 0.79252 0.62091 0.0
H3250 H 0.81251 0.81041 0.60808 0.0
H3251 H 0.7917 0.7945 0.60608 0.0
C3252 C 0.80677 0.86254 0.59679 0.0
C3253 C 0.79712 0.85325 0.58027 0.0
C3254 C 0.80562 0.85508 0.61249 0.0
C3255 C 0.79475 0.8382 0.61206 0.0
C3256 C 0.78519 0.82881 0.59554 0.0
H3257 H 0.76376 0.77827 0.69752 0.0
H3258 H 0.76608 0.78933 0.66888 0.0
C3259 C 0.78649 0.8362 0.57975 0.0
C3260 C 0.79268 0.831 0.62916 0.0
H3261 H 0.79694 0.79511 0.64895 0.0
C3262 C 0.78702 0.84162 0.64409 0.0
C3263 C 0.79636 0.81402 0.63093 0.0
C3264 C 0.80321 0.80227 0.61571 0.0
C3265 C 0.78485 0.83572 0.66067 0.0
C3266 C 0.7886 0.81881 0.66246 0.0
C3267 C 0.79407 0.80807 0.64751 0.0
C3268 C 0.78722 0.81218 0.67984 0.0
C3269 C 0.77831 0.84754 0.67609 0.0
C3270 C 0.79846 0.82127 0.69545 0.0
C3271 C 0.79718 0.815 0.71184 0.0
C3272 C 0.78466 0.79947 0.71293 0.0
C3273 C 0.77349 0.79032 0.69721 0.0
C3274 C 0.77482 0.79659 0.68081 0.0
H3275 H 0.77184 0.85783 0.67119 0.0
H3276 H 0.76859 0.83943 0.68337 0.0
H3277 H 0.78988 0.8546 0.68599 0.0
H3278 H 0.80832 0.83317 0.69491 0.0
H3279 H 0.80606 0.82233 0.72363 0.0
H3280 H 0.69952 0.43136 0.5111 0.0
H3281 H 0.67151 0.44237 0.51467 0.0
H3282 H 0.69971 0.49617 0.51488 0.0
H3283 H 0.7278 0.48524 0.51126 0.0
H3284 H 0.66207 0.46774 0.54213 0.0
H3285 H 0.65809 0.4897 0.47561 0.0
H3286 H 0.67299 0.47524 0.48089 0.0
H3287 H 0.67891 0.49903 0.48935 0.0
C3288 C 0.6998 0.44554 0.51185 0.0
C3289 C 0.71599 0.45738 0.51078 0.0
C3290 C 0.68372 0.45184 0.51394 0.0
C3291 C 0.68332 0.47009 0.5148 0.0
C3292 C 0.69951 0.48198 0.51392 0.0
H3293 H 0.60404 0.53751 0.52779 0.0
H3294 H 0.63081 0.52451 0.52584 0.0
C3295 C 0.71563 0.47571 0.51195 0.0
C3296 C 0.66604 0.47668 0.51673 0.0
H3297 H 0.63742 0.49835 0.49631 0.0
C3298 C 0.65663 0.47432 0.53204 0.0
C3299 C 0.65878 0.48523 0.50357 0.0
C3300 C 0.66759 0.48733 0.48633 0.0
C3301 C 0.64057 0.48069 0.53477 0.0
C3302 C 0.63348 0.48947 0.52174 0.0
C3303 C 0.64279 0.49165 0.50635 0.0
C3304 C 0.61687 0.49717 0.5241 0.0
C3305 C 0.63156 0.4785 0.55186 0.0
C3306 C 0.59989 0.48619 0.52396 0.0
C3307 C 0.58431 0.49363 0.52501 0.0
C3308 C 0.58538 0.51224 0.52631 0.0
C3309 C 0.60251 0.52315 0.52692 0.0
C3310 C 0.61795 0.51572 0.52572 0.0
H3311 H 0.64041 0.47458 0.56214 0.0
H3312 H 0.6275 0.49116 0.55803 0.0
H3313 H 0.61927 0.4679 0.54839 0.0
H3314 H 0.5986 0.4718 0.52251 0.0
H3315 H 0.57142 0.48474 0.52433 0.0
H3316 H 0.22242 0.13527 0.46507 0.0
H3317 H 0.19324 0.11609 0.4663 0.0
H3318 H 0.18256 0.1546 0.51147 0.0
H3319 H 0.21115 0.1742 0.50952 0.0
H3320 H 0.18164 0.09974 0.4922 0.0
H3321 H 0.13621 0.14609 0.48168 0.0
H3322 H 0.15964 0.15101 0.47804 0.0
H3323 H 0.15258 0.15543 0.50068 0.0
C3324 C 0.21361 0.13977 0.47497 0.0
C3325 C 0.21884 0.15631 0.48698 0.0
C3326 C 0.197 0.12879 0.47573 0.0
C3327 C 0.18549 0.13404 0.48873 0.0
C3328 C 0.19084 0.15053 0.50086 0.0
H3329 H 0.08717 0.08541 0.52685 0.0
H3330 H 0.11526 0.10423 0.52194 0.0
C3331 C 0.20723 0.1617 0.4998 0.0
C3332 C 0.16839 0.12182 0.49029 0.0
H3333 H 0.12355 0.11998 0.49307 0.0
C3334 C 0.16891 0.10412 0.49219 0.0
C3335 C 0.15175 0.12752 0.49032 0.0
C3336 C 0.14997 0.146 0.48738 0.0
C3337 C 0.15338 0.09213 0.49462 0.0
C3338 C 0.13683 0.09797 0.49497 0.0
C3339 C 0.13627 0.11557 0.49288 0.0
C3340 C 0.11997 0.08622 0.49791 0.0
C3341 C 0.15497 0.07354 0.49731 0.0
C3342 C 0.11319 0.06989 0.48593 0.0
C3343 C 0.09722 0.05899 0.48883 0.0
C3344 C 0.08756 0.06441 0.50355 0.0
C3345 C 0.09422 0.08091 0.51532 0.0
C3346 C 0.1103 0.09167 0.51256 0.0
H3347 H 0.16901 0.0728 0.50148 0.0
H3348 H 0.14631 0.06919 0.50777 0.0
H3349 H 0.15063 0.06393 0.48428 0.0
H3350 H 0.12017 0.06564 0.47426 0.0
H3351 H 0.09233 0.04642 0.47943 0.0
H3352 H 0.17115 0.94253 0.77143 0.0
H3353 H 0.18516 0.91621 0.77077 0.0
H3354 H 0.23246 0.94482 0.75229 0.0
H3355 H 0.21877 0.97135 0.75384 0.0
H3356 H 0.19533 0.89198 0.74961 0.0
H3357 H 0.26046 0.92649 0.78635 0.0
H3358 H 0.24214 0.93804 0.78452 0.0
H3359 H 0.25636 0.93518 0.76619 0.0
C3360 C 0.18465 0.94344 0.76739 0.0
C3361 C 0.19359 0.95975 0.76292 0.0
C3362 C 0.19282 0.92804 0.76694 0.0
C3363 C 0.21053 0.9278 0.76195 0.0
C3364 C 0.21927 0.94403 0.75704 0.0
H3365 H 0.28198 0.84521 0.74756 0.0
H3366 H 0.26784 0.87143 0.74814 0.0
C3367 C 0.21118 0.95951 0.75771 0.0
C3368 C 0.21934 0.91075 0.76149 0.0
H3369 H 0.25877 0.89636 0.77166 0.0
C3370 C 0.20921 0.89321 0.75464 0.0
C3371 C 0.23761 0.91128 0.76786 0.0
C3372 C 0.24973 0.92872 0.77681 0.0
C3373 C 0.21646 0.8771 0.75359 0.0
C3374 C 0.23473 0.87766 0.75984 0.0
C3375 C 0.24488 0.89517 0.76667 0.0
C3376 C 0.24353 0.86064 0.75933 0.0
C3377 C 0.20431 0.85953 0.74507 0.0
C3378 C 0.23536 0.84493 0.76554 0.0
C3379 C 0.24359 0.82956 0.76514 0.0
C3380 C 0.26063 0.82885 0.7586 0.0
C3381 C 0.26889 0.84461 0.75258 0.0
C3382 C 0.26067 0.85997 0.753 0.0
H3383 H 0.19324 0.86154 0.73581 0.0
H3384 H 0.21181 0.85022 0.73722 0.0
H3385 H 0.19817 0.85313 0.75598 0.0
H3386 H 0.22258 0.84454 0.77117 0.0
H3387 H 0.23654 0.8182 0.77023 0.0
H3388 H 0.32965 0.98693 0.97813 0.0
H3389 H 0.36235 0.99469 0.98285 0.0
H3390 H 0.36126 0.96983 0.03017 0.0
H3391 H 0.32854 0.9614 0.0251 0.0
H3392 H 0.385 0.01518 0.00943 0.0
H3393 H 0.3968 0.94574 1.00378 0.0
H3394 H 0.37504 0.95043 0.99819 0.0
H3395 H 0.38307 0.9518 0.02159 0.0
C3396 C 0.33634 0.98308 0.98955 0.0
C3397 C 0.3264 0.9734 1.00115 0.0
C3398 C 0.3551 0.98754 0.99224 0.0
C3399 C 0.36446 0.98253 0.00664 0.0
C3400 C 0.35452 0.97337 0.01861 0.0
H3401 H 0.48057 1.00198 0.03956 0.0
H3402 H 0.44774 0.99374 0.03865 0.0
C3403 C 0.33574 0.96869 0.01578 0.0
C3404 C 0.38453 0.98715 0.00911 0.0
H3405 H 0.42228 0.9692 0.01218 0.0
C3406 C 0.3931 0.00508 0.01002 0.0
C3407 C 0.39526 0.97405 0.00993 0.0
C3408 C 0.3871 0.95441 0.00815 0.0
C3409 C 0.41191 0.01025 0.01168 0.0
C3410 C 0.42261 0.99713 0.01234 0.0
C3411 C 0.41411 0.97927 0.01177 0.0
C3412 C 0.44258 1.00163 0.0128 0.0
C3413 C 0.42018 0.02978 0.01283 0.0
C3414 C 0.45065 0.00839 0.99841 0.0
C3415 C 0.46932 0.0131 0.9989 0.0
C3416 C 0.48051 0.01109 0.01376 0.0
C3417 C 0.47243 1.00382 0.02796 0.0
C3418 C 0.45364 0.9991 0.02745 0.0
H3419 H 0.41066 0.03864 0.01723 0.0
H3420 H 0.43248 0.03383 0.02247 0.0
H3421 H 0.42392 0.03195 0.99918 0.0
H3422 H 0.44248 0.01006 0.98674 0.0
H3423 H 0.47494 0.0184 0.98754 0.0
H3424 H 0.8499 0.55383 0.7804 0.0
H3425 H 0.83434 0.57704 0.77334 0.0
H3426 H 0.88246 0.6171 0.79091 0.0
H3427 H 0.89837 0.59385 0.7976 0.0
H3428 H 0.82789 0.60989 0.79087 0.0
H3429 H 0.87384 0.61767 0.73644 0.0
H3430 H 0.87263 0.59961 0.74898 0.0
H3431 H 0.88463 0.62176 0.75916 0.0
C3432 C 0.85707 0.56764 0.78328 0.0
C3433 C 0.87546 0.57201 0.78914 0.0
C3434 C 0.84815 0.58087 0.77919 0.0
C3435 C 0.85747 0.5986 0.78107 0.0
C3436 C 0.87525 0.60335 0.78892 0.0
H3437 H 0.82871 0.6907 0.74604 0.0
H3438 H 0.84463 0.66874 0.75579 0.0
C3439 C 0.88424 0.59009 0.79287 0.0
C3440 C 0.84906 0.61154 0.77308 0.0
H3441 H 0.85207 0.63586 0.73906 0.0
C3442 C 0.83316 0.61562 0.77957 0.0
C3443 C 0.85598 0.61877 0.75821 0.0
C3444 C 0.87262 0.61415 0.75014 0.0
C3445 C 0.82403 0.62702 0.77174 0.0
C3446 C 0.83088 0.63416 0.75682 0.0
C3447 C 0.84685 0.63018 0.7504 0.0
C3448 C 0.82206 0.64653 0.74834 0.0
C3449 C 0.80734 0.63158 0.77971 0.0
C3450 C 0.80445 0.64101 0.74006 0.0
C3451 C 0.79525 0.65356 0.73465 0.0
C3452 C 0.80365 0.67171 0.73739 0.0
C3453 C 0.82182 0.67683 0.74416 0.0
C3454 C 0.83094 0.66433 0.74965 0.0
H3455 H 0.80622 0.62831 0.79353 0.0
H3456 H 0.80713 0.64604 0.78057 0.0
H3457 H 0.79537 0.6237 0.77079 0.0
H3458 H 0.79758 0.62717 0.73856 0.0
H3459 H 0.78129 0.64926 0.72943 0.0
H3460 H 0.81952 0.65582 0.03734 0.0
H3461 H 0.84861 0.64728 0.04085 0.0
H3462 H 0.85553 0.64921 0.98435 0.0
H3463 H 0.82663 0.65877 0.98112 0.0
H3464 H 0.85412 0.6165 0.02313 0.0
H3465 H 0.90554 0.67134 0.00748 0.0
H3466 H 0.88315 0.67425 0.01203 0.0
H3467 H 0.8873 0.66298 0.99002 0.0
C3468 C 0.82746 0.6548 0.02579 0.0
C3469 C 0.82091 0.65777 0.00894 0.0
C3470 C 0.84407 0.64997 0.0278 0.0
C3471 C 0.85428 0.64762 0.01288 0.0
C3472 C 0.84807 0.6513 0.99615 0.0
H3473 H 0.93886 0.58638 0.99828 0.0
H3474 H 0.91679 0.60496 0.99359 0.0
C3475 C 0.83155 0.65661 0.99426 0.0
C3476 C 0.87006 0.63913 0.01451 0.0
H3477 H 0.91503 0.64409 0.01034 0.0
C3478 C 0.86745 0.62263 0.02043 0.0
C3479 C 0.8874 0.64703 0.01078 0.0
C3480 C 0.8911 0.66495 0.00487 0.0
C3481 C 0.88167 0.61391 0.02293 0.0
C3482 C 0.89899 0.62187 0.0194 0.0
C3483 C 0.90167 0.63815 0.0131 0.0
C3484 C 0.91434 0.61322 0.0223 0.0
C3485 C 0.87806 0.59617 0.02929 0.0
C3486 C 0.92053 0.61222 0.04001 0.0
C3487 C 0.93308 0.60165 0.04275 0.0
C3488 C 0.93965 0.59196 0.02778 0.0
C3489 C 0.93411 0.59378 0.01007 0.0
C3490 C 0.92153 0.60436 0.00736 0.0
H3491 H 0.86351 0.59026 0.02808 0.0
H3492 H 0.88504 0.58642 0.02132 0.0
H3493 H 0.88326 0.59823 0.04381 0.0
H3494 H 0.91514 0.61909 0.05169 0.0
H3495 H 0.93736 0.60075 0.05655 0.0
H3496 H 0.1667 0.08961 0.76149 0.0
H3497 H 0.18311 0.11966 0.76161 0.0
H3498 H 0.23252 0.10353 0.77553 0.0
H3499 H 0.21592 0.07274 0.77483 0.0
H3500 H 0.20031 0.14572 0.78463 0.0
H3501 H 0.25115 0.12984 0.73797 0.0
H3502 H 0.23256 0.11297 0.74137 0.0
H3503 H 0.25205 0.11962 0.75766 0.0
C3504 C 0.18111 0.09215 0.76452 0.0
C3505 C 0.18968 0.07809 0.76809 0.0
C3506 C 0.19064 0.10974 0.76463 0.0
C3507 C 0.20943 0.11456 0.7683 0.0
C3508 C 0.21818 0.10063 0.77208 0.0
H3509 H 0.2849 0.22058 0.77738 0.0
H3510 H 0.27079 0.18946 0.77796 0.0
C3511 C 0.20855 0.08279 0.77187 0.0
C3512 C 0.21921 0.13411 0.76849 0.0
H3513 H 0.25451 0.16025 0.75248 0.0
C3514 C 0.21212 0.14868 0.77745 0.0
C3515 C 0.23481 0.13878 0.7593 0.0
C3516 C 0.24302 0.12451 0.74838 0.0
C3517 C 0.2199 0.16704 0.77763 0.0
C3518 C 0.2354 0.17169 0.76837 0.0
C3519 C 0.24269 0.15719 0.75962 0.0
C3520 C 0.2442 0.1913 0.76775 0.0
C3521 C 0.21153 0.18136 0.78826 0.0
C3522 C 0.23445 0.20345 0.76159 0.0
C3523 C 0.24264 0.22151 0.76114 0.0
C3524 C 0.26101 0.22841 0.76689 0.0
C3525 C 0.27077 0.2162 0.77291 0.0
C3526 C 0.26262 0.19812 0.7732 0.0
H3527 H 0.20345 0.17619 0.79878 0.0
H3528 H 0.2219 0.19308 0.79507 0.0
H3529 H 0.20245 0.18599 0.7788 0.0
H3530 H 0.2204 0.19892 0.75684 0.0
H3531 H 0.23447 0.23011 0.75627 0.0
H3532 H 0.40992 0.9561 0.25627 0.0
H3533 H 0.38936 0.92843 0.25884 0.0
H3534 H 0.34905 0.95886 0.27554 0.0
H3535 H 0.3694 0.98655 0.2731 0.0
H3536 H 0.37336 0.92756 0.29629 0.0
H3537 H 0.32449 0.91233 0.23448 0.0
H3538 H 0.34733 0.92392 0.23429 0.0
H3539 H 0.33176 0.93526 0.24627 0.0
C3540 C 0.39657 0.95685 0.26015 0.0
C3541 C 0.39132 0.97344 0.26473 0.0
C3542 C 0.38489 0.9411 0.2616 0.0
C3543 C 0.36783 0.94182 0.26736 0.0
C3544 C 0.36219 0.9582 0.271 0.0
H3545 H 0.29074 0.85087 0.29038 0.0
H3546 H 0.30502 0.88231 0.29115 0.0
C3547 C 0.37387 0.97394 0.2697 0.0
C3548 C 0.3567 0.92573 0.27151 0.0
H3549 H 0.32078 0.8923 0.25502 0.0
C3550 C 0.36175 0.91989 0.28739 0.0
C3551 C 0.34151 0.91612 0.25993 0.0
C3552 C 0.33585 0.92209 0.24272 0.0
C3553 C 0.35227 0.90411 0.29167 0.0
C3554 C 0.33758 0.89406 0.27968 0.0
C3555 C 0.33203 0.90029 0.2642 0.0
C3556 C 0.32962 0.87579 0.28141 0.0
C3557 C 0.35829 0.8979 0.30861 0.0
C3558 C 0.33898 0.86209 0.27589 0.0
C3559 C 0.33088 0.84433 0.27522 0.0
C3560 C 0.31339 0.84011 0.28023 0.0
C3561 C 0.30432 0.85391 0.28659 0.0
C3562 C 0.31236 0.87175 0.28698 0.0
H3563 H 0.36746 0.90884 0.31826 0.0
H3564 H 0.34655 0.89276 0.31565 0.0
H3565 H 0.36549 0.88674 0.30473 0.0
H3566 H 0.35231 0.86512 0.27147 0.0
H3567 H 0.33813 0.83385 0.27039 0.0
H3568 H 0.5453 0.3323 0.60944 0.0
H3569 H 0.54639 0.35458 0.58986 0.0
H3570 H 0.56691 0.3198 0.54807 0.0
H3571 H 0.56556 0.29723 0.56744 0.0
H3572 H 0.57788 0.37092 0.57504 0.0
H3573 H 0.52332 0.33315 0.52198 0.0
H3574 H 0.52602 0.32708 0.54404 0.0
H3575 H 0.54126 0.32214 0.52737 0.0
C3576 C 0.54986 0.32932 0.59602 0.0
C3577 C 0.55527 0.31306 0.58989 0.0
C3578 C 0.55057 0.34206 0.58492 0.0
C3579 C 0.55672 0.33871 0.56762 0.0
C3580 C 0.56197 0.32245 0.56135 0.0
H3581 H 0.54332 0.41476 0.49588 0.0
H3582 H 0.55553 0.39037 0.50593 0.0
C3583 C 0.56115 0.30962 0.5724 0.0
C3584 C 0.55752 0.35245 0.5563 0.0
H3585 H 0.53484 0.36308 0.52057 0.0
C3586 C 0.56876 0.36916 0.56288 0.0
C3587 C 0.54574 0.34989 0.54039 0.0
C3588 C 0.5333 0.33215 0.53299 0.0
C3589 C 0.56759 0.38386 0.55466 0.0
C3590 C 0.55477 0.38164 0.53965 0.0
C3591 C 0.54465 0.36459 0.53211 0.0
C3592 C 0.54924 0.39713 0.53378 0.0
C3593 C 0.57936 0.4018 0.56269 0.0
C3594 C 0.54143 0.40859 0.54611 0.0
C3595 C 0.53428 0.42221 0.54042 0.0
C3596 C 0.53478 0.42455 0.52227 0.0
C3597 C 0.54263 0.41307 0.5099 0.0
C3598 C 0.54977 0.39934 0.51563 0.0
H3599 H 0.59217 0.40014 0.56942 0.0
H3600 H 0.58239 0.41009 0.55211 0.0
H3601 H 0.57233 0.40915 0.57319 0.0
H3602 H 0.54039 0.40666 0.56003 0.0
H3603 H 0.52804 0.4307 0.55014 0.0
H3604 H 0.45465 0.76413 0.3714 0.0
H3605 H 0.42333 0.75825 0.35885 0.0
H3606 H 0.43327 0.8072 0.33747 0.0
H3607 H 0.46474 0.81289 0.34943 0.0
H3608 H 0.39599 0.77773 0.36364 0.0
H3609 H 0.41477 0.76893 0.29252 0.0
H3610 H 0.43062 0.77002 0.31173 0.0
H3611 H 0.42504 0.79025 0.3062 0.0
C3612 C 0.45014 0.77363 0.36401 0.0
C3613 C 0.46212 0.78878 0.36104 0.0
C3614 C 0.43227 0.7703 0.35697 0.0
C3615 C 0.42618 0.78215 0.34704 0.0
C3616 C 0.43792 0.79771 0.34477 0.0
H3617 H 0.32524 0.79557 0.30681 0.0
H3618 H 0.3499 0.79347 0.32805 0.0
C3619 C 0.45584 0.80091 0.35155 0.0
C3620 C 0.40781 0.77774 0.33817 0.0
H3621 H 0.38444 0.77037 0.29661 0.0
C3622 C 0.39337 0.77591 0.34897 0.0
C3623 C 0.40458 0.77513 0.31904 0.0
C3624 C 0.41957 0.77601 0.30667 0.0
C3625 C 0.37563 0.77207 0.34107 0.0
C3626 C 0.37248 0.77022 0.322 0.0
C3627 C 0.38694 0.77162 0.31124 0.0
C3628 C 0.35452 0.76844 0.31274 0.0
C3629 C 0.36049 0.77014 0.35313 0.0
C3630 C 0.34867 0.75482 0.2974 0.0
C3631 C 0.33473 0.75615 0.28519 0.0
C3632 C 0.32633 0.77091 0.28845 0.0
C3633 C 0.33113 0.78372 0.30452 0.0
C3634 C 0.34523 0.78253 0.31662 0.0
H3635 H 0.36472 0.76612 0.366 0.0
H3636 H 0.35631 0.78325 0.35674 0.0
H3637 H 0.34869 0.76009 0.34609 0.0
H3638 H 0.35584 0.74394 0.29415 0.0
H3639 H 0.33119 0.74623 0.27273 0.0
H3640 H 0.08177 0.70266 0.11674 0.0
H3641 H 0.07905 0.67652 0.09235 0.0
H3642 H 0.04844 0.70119 0.05732 0.0
H3643 H 0.05129 0.7275 0.08144 0.0
H3644 H 0.04654 0.6554 0.0767 0.0
H3645 H 0.08604 0.68399 0.02485 0.0
H3646 H 0.08795 0.69508 0.04842 0.0
H3647 H 0.06912 0.69591 0.03323 0.0
C3648 C 0.07458 0.70259 0.10381 0.0
C3649 C 0.06677 0.71712 0.10098 0.0
C3650 C 0.07312 0.68772 0.0899 0.0
C3651 C 0.06385 0.6872 0.07302 0.0
C3652 C 0.05604 0.70163 0.07013 0.0
H3653 H 0.01844 0.58704 0.00483 0.0
H3654 H 0.02468 0.61968 0.01427 0.0
C3655 C 0.05756 0.71655 0.08399 0.0
C3656 C 0.06107 0.67084 0.05904 0.0
H3657 H 0.06979 0.65394 0.01596 0.0
C3658 C 0.05161 0.65506 0.06343 0.0
C3659 C 0.06775 0.67062 0.0418 0.0
C3660 C 0.07842 0.68726 0.03677 0.0
C3661 C 0.04876 0.63887 0.05104 0.0
C3662 C 0.05524 0.63864 0.03369 0.0
C3663 C 0.06468 0.6544 0.02921 0.0
C3664 C 0.05308 0.62163 0.0208 0.0
C3665 C 0.03914 0.62206 0.05677 0.0
C3666 C 0.06732 0.61241 0.01989 0.0
C3667 C 0.06382 0.59381 0.01427 0.0
C3668 C 0.04606 0.58456 0.00981 0.0
C3669 C 0.03222 0.59408 0.00837 0.0
C3670 C 0.03577 0.61265 0.01364 0.0
H3671 H 0.0378 0.62411 0.07165 0.0
H3672 H 0.02547 0.61796 0.04954 0.0
H3673 H 0.04634 0.61086 0.05311 0.0
H3674 H 0.08074 0.61924 0.02549 0.0
H3675 H 0.07462 0.58659 0.0155 0.0
H3676 H 0.06129 0.26304 0.86198 0.0
H3677 H 0.08907 0.27268 0.84865 0.0
H3678 H 0.10945 0.31022 0.89848 0.0
H3679 H 0.08182 0.30021 0.91212 0.0
H3680 H 0.10056 0.30805 0.84401 0.0
H3681 H 0.15151 0.28534 0.88616 0.0
H3682 H 0.12779 0.27686 0.88604 0.0
H3683 H 0.13754 0.29915 0.89785 0.0
C3684 C 0.07189 0.273 0.87023 0.0
C3685 C 0.06953 0.28082 0.88805 0.0
C3686 C 0.08765 0.27859 0.8626 0.0
C3687 C 0.10119 0.29217 0.87261 0.0
C3688 C 0.0992 0.29956 0.89067 0.0
H3689 H 0.18671 0.33016 0.80561 0.0
H3690 H 0.16523 0.33297 0.82864 0.0
C3691 C 0.08347 0.29378 0.89843 0.0
C3692 C 0.1169 0.29896 0.86351 0.0
H3693 H 0.16095 0.29709 0.86069 0.0
C3694 C 0.11388 0.30602 0.84781 0.0
C3695 C 0.1342 0.29643 0.86875 0.0
C3696 C 0.13806 0.28895 0.88556 0.0
C3697 C 0.12744 0.30925 0.83632 0.0
C3698 C 0.14439 0.30553 0.84091 0.0
C3699 C 0.14783 0.29986 0.85734 0.0
C3700 C 0.15755 0.30437 0.82745 0.0
C3701 C 0.12321 0.31523 0.81869 0.0
C3702 C 0.1601 0.28737 0.81928 0.0
C3703 C 0.17212 0.28571 0.80613 0.0
C3704 C 0.18183 0.30105 0.80101 0.0
C3705 C 0.17917 0.31812 0.80916 0.0
C3706 C 0.16708 0.31976 0.82236 0.0
H3707 H 0.10898 0.3165 0.8167 0.0
H3708 H 0.13186 0.32844 0.81857 0.0
H3709 H 0.12612 0.30551 0.80699 0.0
H3710 H 0.15265 0.27536 0.82301 0.0
H3711 H 0.17378 0.27241 0.79993 0.0
H3712 H 0.57663 0.76923 0.95641 0.0
H3713 H 0.56605 0.74396 0.97141 0.0
H3714 H 0.54669 0.71039 0.9191 0.0
H3715 H 0.55696 0.73548 0.90404 0.0
H3716 H 0.52231 0.70779 0.94622 0.0
H3717 H 0.59071 0.70019 0.9693 0.0
H3718 H 0.58609 0.72231 0.9759 0.0
H3719 H 0.58668 0.71322 0.95221 0.0
C3720 C 0.57008 0.75647 0.94814 0.0
C3721 C 0.56771 0.75425 0.92908 0.0
C3722 C 0.56411 0.74209 0.95669 0.0
C3723 C 0.55581 0.72537 0.94627 0.0
C3724 C 0.55311 0.72323 0.92731 0.0
H3725 H 0.53957 0.62221 0.97812 0.0
H3726 H 0.5449 0.64665 0.96108 0.0
C3727 C 0.55903 0.73756 0.91876 0.0
C3728 C 0.55016 0.70992 0.95504 0.0
H3729 H 0.56628 0.682 0.97951 0.0
C3730 C 0.53187 0.70213 0.95353 0.0
C3731 C 0.5628 0.70248 0.96423 0.0
C3732 C 0.58269 0.70984 0.96541 0.0
C3733 C 0.52582 0.68717 0.96135 0.0
C3734 C 0.53842 0.68006 0.97093 0.0
C3735 C 0.55671 0.68767 0.9722 0.0
C3736 C 0.53301 0.66471 0.97989 0.0
C3737 C 0.50612 0.67886 0.95913 0.0
C3738 C 0.52433 0.66685 0.99589 0.0
C3739 C 0.52148 0.65302 0.00579 0.0
C3740 C 0.52735 0.63695 0.9998 0.0
C3741 C 0.53526 0.6346 0.98326 0.0
C3742 C 0.53818 0.64845 0.97345 0.0
H3743 H 0.49855 0.68415 0.94887 0.0
H3744 H 0.50414 0.66405 0.95498 0.0
H3745 H 0.50043 0.68179 0.97238 0.0
H3746 H 0.52047 0.67947 1.0011 0.0
H3747 H 0.51545 0.65522 0.01853 0.0
H3748 H 0.03995 0.78297 0.68617 0.0
H3749 H 0.06796 0.78127 0.70258 0.0
H3750 H 0.09062 0.76839 0.6516 0.0
H3751 H 0.06246 0.76985 0.63496 0.0
H3752 H 0.09253 0.74409 0.67551 0.0
H3753 H 0.11751 0.81479 0.71033 0.0
H3754 H 0.09454 0.80603 0.71319 0.0
H3755 H 0.1009 0.8086 0.69092 0.0
C3756 C 0.05098 0.78005 0.67844 0.0
C3757 C 0.04904 0.77645 0.65929 0.0
C3758 C 0.06698 0.77919 0.68784 0.0
C3759 C 0.0813 0.77487 0.67825 0.0
C3760 C 0.07965 0.77183 0.65916 0.0
H3761 H 0.18776 0.77437 0.72206 0.0
H3762 H 0.16115 0.77961 0.70574 0.0
C3763 C 0.06362 0.77269 0.64971 0.0
C3764 C 0.0974 0.77203 0.68817 0.0
H3765 H 0.13163 0.7927 0.7205 0.0
C3766 C 0.10118 0.75471 0.68526 0.0
C3767 C 0.10853 0.78598 0.70083 0.0
C3768 C 0.1053 0.80494 0.70393 0.0
C3769 C 0.11583 0.75089 0.69489 0.0
C3770 C 0.1267 0.76474 0.70788 0.0
C3771 C 0.12305 0.78211 0.71064 0.0
C3772 C 0.14251 0.76165 0.71811 0.0
C3773 C 0.11972 0.73219 0.69093 0.0
C3774 C 0.14066 0.74998 0.73059 0.0
C3775 C 0.15585 0.74683 0.73983 0.0
C3776 C 0.17299 0.75535 0.73667 0.0
C3777 C 0.1747 0.76733 0.72444 0.0
C3778 C 0.15956 0.77045 0.71524 0.0
H3779 H 0.11238 0.72421 0.67798 0.0
H3780 H 0.1343 0.73266 0.69013 0.0
H3781 H 0.11551 0.72512 0.70213 0.0
H3782 H 0.1275 0.74329 0.7331 0.0
H3783 H 0.15422 0.73758 0.74923 0.0
H3784 H 0.08423 0.34422 0.44696 0.0
H3785 H 0.07541 0.3711 0.4632 0.0
H3786 H 0.10264 0.40232 0.42693 0.0
H3787 H 0.11178 0.37567 0.41075 0.0
H3788 H 0.1051 0.42061 0.46324 0.0
H3789 H 0.03514 0.38843 0.43563 0.0
H3790 H 0.04623 0.37575 0.44905 0.0
H3791 H 0.05433 0.37975 0.42778 0.0
C3792 C 0.08884 0.35689 0.44277 0.0
C3793 C 0.09835 0.35775 0.4273 0.0
C3794 C 0.08364 0.37218 0.45197 0.0
C3795 C 0.08792 0.38843 0.44581 0.0
C3796 C 0.09902 0.38976 0.43166 0.0
H3797 H 0.03571 0.48043 0.45998 0.0
H3798 H 0.04623 0.453 0.4471 0.0
C3799 C 0.10425 0.37452 0.42247 0.0
C3800 C 0.07959 0.40364 0.45292 0.0
H3801 H 0.03928 0.41683 0.45506 0.0
C3802 C 0.09073 0.41981 0.46152 0.0
C3803 C 0.06085 0.40256 0.45015 0.0
C3804 C 0.04841 0.38576 0.44 0.0
C3805 C 0.08356 0.43493 0.4678 0.0
C3806 C 0.06478 0.43364 0.46565 0.0
C3807 C 0.05365 0.4176 0.45674 0.0
C3808 C 0.05652 0.44872 0.47321 0.0
C3809 C 0.09613 0.45221 0.47654 0.0
C3810 C 0.05819 0.45471 0.49207 0.0
C3811 C 0.05235 0.47021 0.49935 0.0
C3812 C 0.04456 0.47986 0.48787 0.0
C3813 C 0.04172 0.47319 0.46905 0.0
C3814 C 0.04774 0.45764 0.46172 0.0
H3815 H 0.11006 0.45227 0.4729 0.0
H3816 H 0.09162 0.46395 0.47241 0.0
H3817 H 0.09631 0.45383 0.49157 0.0
H3818 H 0.06457 0.44769 0.50112 0.0
H3819 H 0.05439 0.47493 0.51396 0.0
H3820 H 0.45189 0.2276 0.17846 0.0
H3821 H 0.42541 0.22928 0.19498 0.0
H3822 H 0.41468 0.27216 0.16866 0.0
H3823 H 0.44122 0.2706 0.15192 0.0
H3824 H 0.42661 0.26958 0.21626 0.0
H3825 H 0.36474 0.23236 0.17257 0.0
H3826 H 0.38591 0.22516 0.17036 0.0
H3827 H 0.3827 0.24523 0.16283 0.0
C3828 C 0.44366 0.23711 0.17586 0.0
C3829 C 0.44872 0.24924 0.16425 0.0
C3830 C 0.42854 0.23795 0.18519 0.0
C3831 C 0.41836 0.25086 0.18295 0.0
C3832 C 0.42248 0.26205 0.17032 0.0
H3833 H 0.3511 0.30114 0.25324 0.0
H3834 H 0.3762 0.29447 0.23647 0.0
C3835 C 0.43759 0.26115 0.16085 0.0
C3836 C 0.4055 0.25458 0.19605 0.0
H3837 H 0.36118 0.2467 0.20228 0.0
C3838 C 0.41228 0.2646 0.21331 0.0
C3839 C 0.38701 0.24791 0.19191 0.0
C3840 C 0.3795 0.23702 0.17344 0.0
C3841 C 0.40085 0.26816 0.22679 0.0
C3842 C 0.38228 0.2616 0.22265 0.0
C3843 C 0.37552 0.25152 0.20535 0.0
C3844 C 0.36939 0.26584 0.23567 0.0
C3845 C 0.4087 0.27877 0.24531 0.0
C3846 C 0.35764 0.25193 0.24108 0.0
C3847 C 0.34318 0.25565 0.25052 0.0
C3848 C 0.34031 0.27333 0.25448 0.0
C3849 C 0.35294 0.28738 0.2503 0.0
C3850 C 0.36734 0.28363 0.2408 0.0
H3851 H 0.42314 0.27844 0.2478 0.0
H3852 H 0.40749 0.29298 0.24609 0.0
H3853 H 0.40143 0.27357 0.2563 0.0
H3854 H 0.35915 0.23813 0.23718 0.0
H3855 H 0.33372 0.24457 0.25371 0.0
H3856 H 0.63009 0.49571 0.32503 0.0
H3857 H 0.61611 0.497 0.35413 0.0
H3858 H 0.61738 0.55338 0.3569 0.0
H3859 H 0.63021 0.55188 0.32779 0.0
H3860 H 0.62161 0.5109 0.38834 0.0
H3861 H 0.5676 0.54312 0.36643 0.0
H3862 H 0.58269 0.5352 0.35077 0.0
H3863 H 0.58884 0.55709 0.3653 0.0
C3864 C 0.62751 0.50843 0.33187 0.0
C3865 C 0.63145 0.52367 0.32356 0.0
C3866 C 0.6193 0.50919 0.3487 0.0
C3867 C 0.61469 0.52521 0.35807 0.0
C3868 C 0.61962 0.54052 0.35013 0.0
H3869 H 0.56957 0.56208 0.46342 0.0
H3870 H 0.58401 0.55949 0.4347 0.0
C3871 C 0.62741 0.53969 0.33331 0.0
C3872 C 0.60508 0.52616 0.37594 0.0
H3873 H 0.57204 0.54397 0.39841 0.0
C3874 C 0.61068 0.51804 0.39028 0.0
C3875 C 0.59049 0.5353 0.37924 0.0
C3876 C 0.58193 0.54298 0.36454 0.0
C3877 C 0.60285 0.51924 0.40731 0.0
C3878 C 0.58866 0.52882 0.41074 0.0
C3879 C 0.58296 0.5368 0.3964 0.0
C3880 C 0.57946 0.53047 0.42877 0.0
C3881 C 0.6103 0.51053 0.42178 0.0
C3882 C 0.57142 0.51522 0.43558 0.0
C3883 C 0.5629 0.5167 0.45207 0.0
C3884 C 0.56193 0.53352 0.46279 0.0
C3885 C 0.56984 0.54882 0.45592 0.0
C3886 C 0.57822 0.54731 0.43926 0.0
H3887 H 0.62402 0.50824 0.41939 0.0
H3888 H 0.61074 0.51886 0.43554 0.0
H3889 H 0.60155 0.4973 0.42155 0.0
H3890 H 0.57152 0.50195 0.42801 0.0
H3891 H 0.5571 0.50445 0.45648 0.0
H3892 H 0.24915 0.89141 0.0415 0.0
H3893 H 0.25408 0.87599 0.06669 0.0
H3894 H 0.30023 0.91737 0.08846 0.0
H3895 H 0.29481 0.93327 0.06377 0.0
H3896 H 0.28109 0.86154 0.07515 0.0
H3897 H 0.27563 0.91467 0.13361 0.0
H3898 H 0.2694 0.91618 0.1104 0.0
H3899 H 0.29258 0.9219 0.11942 0.0
C3900 C 0.2602 0.89733 0.0518 0.0
C3901 C 0.27149 0.91362 0.05078 0.0
C3902 C 0.26304 0.8885 0.06617 0.0
C3903 C 0.27735 0.89565 0.07969 0.0
C3904 C 0.28877 0.91185 0.07857 0.0
H3905 H 0.31744 0.82961 0.15006 0.0
H3906 H 0.3143 0.84848 0.12744 0.0
C3907 C 0.28572 0.92087 0.06438 0.0
C3908 C 0.2807 0.88568 0.09443 0.0
H3909 H 0.28628 0.88932 0.14065 0.0
C3910 C 0.28215 0.86762 0.08947 0.0
C3911 C 0.28199 0.89356 0.11314 0.0
C3912 C 0.27965 0.91258 0.11948 0.0
C3913 C 0.28478 0.85722 0.10263 0.0
C3914 C 0.28653 0.86523 0.12131 0.0
C3915 C 0.2851 0.88327 0.12631 0.0
C3916 C 0.28918 0.85487 0.13583 0.0
C3917 C 0.28514 0.83762 0.09638 0.0
C3918 C 0.27649 0.85282 0.14855 0.0
C3919 C 0.27831 0.84215 0.16158 0.0
C3920 C 0.29287 0.83333 0.1621 0.0
C3921 C 0.30589 0.83594 0.14975 0.0
C3922 C 0.30411 0.84669 0.13682 0.0
H3923 H 0.27896 0.83256 0.08218 0.0
H3924 H 0.29926 0.83581 0.09682 0.0
H3925 H 0.27796 0.82929 0.1054 0.0
H3926 H 0.2649 0.85907 0.14808 0.0
H3927 H 0.26802 0.84033 0.17084 0.0
H3928 H 0.96628 0.50479 0.81281 0.0
H3929 H 0.97924 0.50647 0.84381 0.0
H3930 H 0.94802 0.54576 0.86401 0.0
H3931 H 0.93469 0.54395 0.83313 0.0
H3932 H 0.99876 0.53638 0.86791 0.0
H3933 H 0.93591 0.50732 0.89513 0.0
H3934 H 0.93796 0.5059 0.87104 0.0
H3935 H 0.93448 0.52634 0.88472 0.0
C3936 C 0.9622 0.51383 0.82383 0.0
C3937 C 0.94943 0.52419 0.82058 0.0
C3938 C 0.96958 0.51473 0.84148 0.0
C3939 C 0.96431 0.52602 0.85607 0.0
C3940 C 0.9519 0.5367 0.85288 0.0
H3941 H 0.99389 0.54937 0.97161 0.0
H3942 H 0.98183 0.54916 0.94067 0.0
C3943 C 0.94441 0.53571 0.83525 0.0
C3944 C 0.97205 0.52678 0.87464 0.0
H3945 H 0.96136 0.51895 0.91642 0.0
C3946 C 0.99064 0.53253 0.87854 0.0
C3947 C 0.96129 0.52173 0.88833 0.0
C3948 C 0.94132 0.51482 0.88461 0.0
C3949 C 0.99881 0.53357 0.89599 0.0
C3950 C 0.98805 0.52851 0.90965 0.0
C3951 C 0.96947 0.52283 0.90579 0.0
C3952 C 0.99579 0.52889 0.9281 0.0
C3953 C 0.01879 0.54031 0.89976 0.0
C3954 C 0.00746 0.51742 0.93107 0.0
C3955 C 0.0144 0.51748 0.94869 0.0
C3956 C 0.00957 0.52892 0.96352 0.0
C3957 C 0.99777 0.54033 0.96045 0.0
C3958 C 0.99091 0.54029 0.94283 0.0
H3959 H 0.02435 0.54761 0.88915 0.0
H3960 H 0.02214 0.54936 0.91326 0.0
H3961 H 0.02549 0.52872 0.8999 0.0
H3962 H 0.01105 0.5083 0.91978 0.0
H3963 H 0.02341 0.5085 0.95068 0.0
H3964 H 0.288 0.23285 0.54953 0.0
H3965 H 0.29299 0.25097 0.58048 0.0
H3966 H 0.26792 0.20501 0.6017 0.0
H3967 H 0.26262 0.18705 0.57118 0.0
H3968 H 0.2555 0.23579 0.61478 0.0
H3969 H 0.3301 0.24778 0.62156 0.0
H3970 H 0.31964 0.25417 0.60222 0.0
H3971 H 0.31664 0.23091 0.60383 0.0
C3972 C 0.28352 0.22665 0.5608 0.0
C3973 C 0.2749 0.20849 0.55784 0.0
C3974 C 0.2865 0.23698 0.57847 0.0
C3975 C 0.28099 0.22925 0.59338 0.0
C3976 C 0.27228 0.21123 0.59039 0.0
H3977 H 0.30643 0.2507 0.7084 0.0
H3978 H 0.30483 0.24159 0.67528 0.0
C3979 C 0.26926 0.20098 0.57287 0.0
C3980 C 0.28387 0.23969 0.61222 0.0
H3981 H 0.31618 0.25915 0.6471 0.0
C3982 C 0.26876 0.2411 0.62181 0.0
C3983 C 0.3012 0.2464 0.62135 0.0
C3984 C 0.31787 0.24468 0.61183 0.0
C3985 C 0.27047 0.24851 0.64044 0.0
C3986 C 0.2878 0.25512 0.64964 0.0
C3987 C 0.30293 0.25416 0.63996 0.0
C3988 C 0.29038 0.26195 0.66955 0.0
C3989 C 0.25371 0.24835 0.65028 0.0
C3990 C 0.28325 0.27674 0.67726 0.0
C3991 C 0.28397 0.28186 0.69615 0.0
C3992 C 0.29204 0.27241 0.70769 0.0
C3993 C 0.30001 0.25819 0.69991 0.0
C3994 C 0.29917 0.253 0.68099 0.0
H3995 H 0.24191 0.23909 0.64222 0.0
H3996 H 0.25556 0.24429 0.66367 0.0
H3997 H 0.25068 0.26205 0.65272 0.0
H3998 H 0.27674 0.28406 0.66865 0.0
H3999 H 0.2779 0.29303 0.70169 0.0
H4000 H 0.65592 0.50632 0.19321 0.0
H4001 H 0.64032 0.50902 0.16445 0.0
H4002 H 0.59476 0.51971 0.19269 0.0
H4003 H 0.61023 0.5167 0.22148 0.0
H4004 H 0.60646 0.48968 0.14475 0.0
H4005 H 0.60411 0.56176 0.16447 0.0
H4006 H 0.61891 0.55119 0.17675 0.0
H4007 H 0.59548 0.54777 0.18007 0.0
C4008 C 0.64255 0.50921 0.19343 0.0
C4009 C 0.63456 0.51124 0.21009 0.0
C4010 C 0.63353 0.51076 0.17676 0.0
C4011 C 0.61618 0.51484 0.17591 0.0
C4012 C 0.60813 0.51683 0.19255 0.0
H4013 H 0.54584 0.53958 0.08694 0.0
H4014 H 0.56 0.53586 0.11599 0.0
C4015 C 0.61705 0.51497 0.20919 0.0
C4016 C 0.60664 0.5168 0.15779 0.0
H4017 H 0.58925 0.54669 0.13598 0.0
C4018 C 0.60278 0.50222 0.14292 0.0
C4019 C 0.6014 0.53296 0.1549 0.0
C4020 C 0.60526 0.54941 0.16978 0.0
C4021 C 0.59381 0.50316 0.1259 0.0
C4022 C 0.58896 0.51951 0.12277 0.0
C4023 C 0.59278 0.53408 0.13775 0.0
C4024 C 0.57998 0.52175 0.10437 0.0
C4025 C 0.58897 0.48616 0.11174 0.0
C4026 C 0.58615 0.51549 0.08738 0.0
C4027 C 0.57777 0.5174 0.07054 0.0
C4028 C 0.56298 0.52607 0.06968 0.0
C4029 C 0.55705 0.53275 0.08664 0.0
C4030 C 0.56531 0.53063 0.10351 0.0
H4031 H 0.58749 0.47408 0.11812 0.0
H4032 H 0.57625 0.48556 0.10344 0.0
H4033 H 0.59987 0.48553 0.1026 0.0
H4034 H 0.59774 0.50924 0.08702 0.0
H4035 H 0.58312 0.51219 0.05808 0.0
H4036 H 0.26135 0.92046 0.92288 0.0
H4037 H 0.26612 0.89753 0.89767 0.0
H4038 H 0.27845 0.86452 0.93568 0.0
H4039 H 0.27359 0.88734 0.96104 0.0
H4040 H 0.29915 0.88519 0.8938 0.0
H4041 H 0.24242 0.82916 0.89629 0.0
H4042 H 0.24262 0.85201 0.90721 0.0
H4043 H 0.25614 0.83886 0.91727 0.0
C4044 C 0.26486 0.90824 0.92592 0.0
C4045 C 0.26709 0.9058 0.94405 0.0
C4046 C 0.2676 0.89514 0.91146 0.0
C4047 C 0.2725 0.87923 0.91475 0.0
C4048 C 0.27438 0.87654 0.93277 0.0
H4049 H 0.29205 0.78838 0.83374 0.0
H4050 H 0.28834 0.80748 0.86276 0.0
C4051 C 0.27167 0.88966 0.94727 0.0
C4052 C 0.27676 0.86612 0.89935 0.0
H4053 H 0.26267 0.82379 0.87428 0.0
C4054 C 0.2912 0.87174 0.88955 0.0
C4055 C 0.26662 0.84846 0.89405 0.0
C4056 C 0.251 0.8417 0.90413 0.0
C4057 C 0.29565 0.86034 0.87447 0.0
C4058 C 0.28494 0.84295 0.86851 0.0
C4059 C 0.27083 0.83711 0.87869 0.0
C4060 C 0.28751 0.83118 0.85116 0.0
C4061 C 0.31196 0.8671 0.86527 0.0
C4062 C 0.28797 0.83794 0.83493 0.0
C4063 C 0.29061 0.82729 0.81863 0.0
C4064 C 0.29224 0.80934 0.81791 0.0
C4065 C 0.2911 0.80224 0.83396 0.0
C4066 C 0.2889 0.81313 0.85049 0.0
H4067 H 0.32205 0.87699 0.87505 0.0
H4068 H 0.31841 0.85599 0.85913 0.0
H4069 H 0.30793 0.87405 0.85438 0.0
H4070 H 0.28609 0.85148 0.83478 0.0
H4071 H 0.29083 0.83303 0.80641 0.0
H4072 H 0.94983 0.53675 0.73069 0.0
H4073 H 0.95931 0.5244 0.70135 0.0
H4074 H 0.90411 0.50759 0.67908 0.0
H4075 H 0.89437 0.52 0.70841 0.0
H4076 H 0.9322 0.48017 0.67878 0.0
H4077 H 0.95032 0.54177 0.64912 0.0
H4078 H 0.95637 0.54338 0.67306 0.0
H4079 H 0.93318 0.53943 0.66474 0.0
C4080 C 0.9397 0.53074 0.71946 0.0
C4081 C 0.92137 0.52922 0.72181 0.0
C4082 C 0.94514 0.52366 0.7028 0.0
C4083 C 0.93233 0.51504 0.68833 0.0
C4084 C 0.91407 0.51418 0.69028 0.0
H4085 H 0.97004 0.4826 0.58418 0.0
H4086 H 0.94717 0.48193 0.60572 0.0
C4087 C 0.90859 0.52136 0.70695 0.0
C4088 C 0.93824 0.50627 0.67147 0.0
H4089 H 0.96026 0.51579 0.63514 0.0
C4090 C 0.938 0.48778 0.66894 0.0
C4091 C 0.94581 0.51643 0.65895 0.0
C4092 C 0.94643 0.53636 0.66145 0.0
C4093 C 0.94608 0.4793 0.65446 0.0
C4094 C 0.95428 0.48963 0.64237 0.0
C4095 C 0.95369 0.50793 0.64442 0.0
C4096 C 0.96571 0.4827 0.62894 0.0
C4097 C 0.94647 0.45962 0.65246 0.0
C4098 C 0.9834 0.48232 0.63486 0.0
C4099 C 0.99655 0.48313 0.62271 0.0
C4100 C 0.99202 0.48431 0.60458 0.0
C4101 C 0.97388 0.48213 0.59822 0.0
C4102 C 0.96078 0.48153 0.61041 0.0
H4103 H 0.93702 0.45287 0.66103 0.0
H4104 H 0.94307 0.45283 0.638 0.0
H4105 H 0.96022 0.45804 0.65663 0.0
H4106 H 0.98738 0.48344 0.64922 0.0
H4107 H 0.01042 0.48479 0.62797 0.0
H4108 H 0.26422 0.22916 0.45323 0.0
H4109 H 0.26662 0.2403 0.42461 0.0
H4110 H 0.30959 0.21199 0.41226 0.0
H4111 H 0.30647 0.19999 0.44031 0.0
H4112 H 0.29099 0.26034 0.41054 0.0
H4113 H 0.27755 0.19279 0.36688 0.0
H4114 H 0.27528 0.19609 0.39099 0.0
H4115 H 0.29699 0.19605 0.38264 0.0
C4116 C 0.27423 0.2254 0.44443 0.0
C4117 C 0.28504 0.21357 0.44887 0.0
C4118 C 0.27558 0.23175 0.42806 0.0
C4119 C 0.28795 0.22659 0.41597 0.0
C4120 C 0.29948 0.21562 0.42097 0.0
H4121 H 0.31676 0.27966 0.32488 0.0
H4122 H 0.31605 0.26975 0.35415 0.0
C4123 C 0.29782 0.20892 0.4371 0.0
C4124 C 0.28862 0.23255 0.39811 0.0
H4125 H 0.28766 0.21734 0.35232 0.0
C4126 C 0.29018 0.25091 0.3978 0.0
C4127 C 0.28721 0.22024 0.38141 0.0
C4128 C 0.28397 0.20019 0.38045 0.0
C4129 C 0.29057 0.25732 0.38135 0.0
C4130 C 0.29005 0.2451 0.36476 0.0
C4131 C 0.28831 0.22674 0.36505 0.0
C4132 C 0.29078 0.25095 0.34689 0.0
C4133 C 0.29099 0.27703 0.38191 0.0
C4134 C 0.27718 0.2432 0.33278 0.0
C4135 C 0.27772 0.24859 0.31591 0.0
C4136 C 0.29186 0.26191 0.31281 0.0
C4137 C 0.30562 0.26946 0.32685 0.0
C4138 C 0.30515 0.26392 0.34367 0.0
H4139 H 0.28587 0.28332 0.39454 0.0
H4140 H 0.30504 0.28402 0.38168 0.0
H4141 H 0.28287 0.2792 0.37 0.0
H4142 H 0.266 0.2331 0.33489 0.0
H4143 H 0.26688 0.24252 0.30543 0.0
H4144 H 0.35589 0.60501 0.50084 0.0
H4145 H 0.38462 0.59655 0.49398 0.0
H4146 H 0.38765 0.5772 0.54451 0.0
H4147 H 0.35867 0.5848 0.55094 0.0
H4148 H 0.41741 0.60617 0.50865 0.0
H4149 H 0.39672 0.53449 0.51174 0.0
H4150 H 0.38087 0.54922 0.51222 0.0
H4151 H 0.39392 0.54831 0.5328 0.0
C4152 C 0.36264 0.59887 0.51045 0.0
C4153 C 0.35477 0.59538 0.52634 0.0
C4154 C 0.37913 0.59403 0.50651 0.0
C4155 C 0.38826 0.5857 0.51844 0.0
C4156 C 0.3807 0.5829 0.53465 0.0
H4157 H 0.50164 0.58105 0.52418 0.0
H4158 H 0.47255 0.58978 0.52556 0.0
C4159 C 0.36412 0.58743 0.53842 0.0
C4160 C 0.40576 0.58025 0.51415 0.0
H4161 H 0.42833 0.54563 0.51306 0.0
C4162 C 0.41969 0.59286 0.50947 0.0
C4163 C 0.40886 0.56276 0.51472 0.0
C4164 C 0.39422 0.54788 0.51794 0.0
C4165 C 0.43662 0.58872 0.50601 0.0
C4166 C 0.44007 0.57162 0.50781 0.0
C4167 C 0.42596 0.55883 0.51189 0.0
C4168 C 0.45822 0.56679 0.50596 0.0
C4169 C 0.45048 0.60268 0.50012 0.0
C4170 C 0.46014 0.55072 0.49472 0.0
C4171 C 0.47688 0.5455 0.4941 0.0
C4172 C 0.49218 0.55621 0.50472 0.0
C4173 C 0.49029 0.57249 0.51562 0.0
C4174 C 0.47356 0.5776 0.51635 0.0
H4175 H 0.44408 0.61186 0.49319 0.0
H4176 H 0.45892 0.61095 0.5123 0.0
H4177 H 0.45929 0.59643 0.49073 0.0
H4178 H 0.4486 0.54202 0.4866 0.0
H4179 H 0.47769 0.53281 0.48566 0.0
H4180 H 0.85665 0.91323 0.55451 0.0
H4181 H 0.88822 0.92897 0.55827 0.0
H4182 H 0.88172 0.94289 0.50527 0.0
H4183 H 0.85034 0.92795 0.50179 0.0
H4184 H 0.91764 0.92607 0.53912 0.0
H4185 H 0.89885 0.99159 0.53705 0.0
H4186 H 0.88267 0.97207 0.53935 0.0
H4187 H 0.88926 0.97523 0.51723 0.0
C4188 C 0.86207 0.91958 0.54367 0.0
C4189 C 0.851 0.91968 0.52801 0.0
C4190 C 0.88005 0.92857 0.54582 0.0
C4191 C 0.88717 0.93758 0.53228 0.0
C4192 C 0.87637 0.93661 0.51618 0.0
H4193 H 0.99361 0.97552 0.50674 0.0
H4194 H 0.96491 0.95782 0.51155 0.0
C4195 C 0.85845 0.92797 0.51417 0.0
C4196 C 0.90568 0.94841 0.53487 0.0
H4197 H 0.92927 0.98973 0.53185 0.0
C4198 C 0.92021 0.94006 0.53778 0.0
C4199 C 0.90906 0.96678 0.53353 0.0
C4200 C 0.89412 0.97699 0.53182 0.0
C4201 C 0.938 0.94935 0.53842 0.0
C4202 C 0.9413 0.96732 0.53569 0.0
C4203 C 0.92678 0.97589 0.5337 0.0
C4204 C 0.95956 0.97734 0.53401 0.0
C4205 C 0.95307 0.93983 0.54201 0.0
C4206 C 0.96607 0.99436 0.54486 0.0
C4207 C 0.98242 1.00464 0.542 0.0
C4208 C 0.99259 0.99815 0.52816 0.0
C4209 C 0.98621 0.98093 0.51758 0.0
C4210 C 0.96983 0.97069 0.52042 0.0
H4211 H 0.94877 0.92894 0.54969 0.0
H4212 H 0.95721 0.93362 0.52882 0.0
H4213 H 0.96489 0.94928 0.5498 0.0
H4214 H 0.95831 0.99983 0.55534 0.0
H4215 H 0.98689 0.01783 0.55041 0.0
H4216 H 0.85911 0.09359 0.24947 0.0
H4217 H 0.84559 0.12033 0.25078 0.0
H4218 H 0.89425 0.15312 0.27944 0.0
H4219 H 0.90789 0.12652 0.27763 0.0
H4220 H 0.83491 0.144 0.2739 0.0
H4221 H 0.88935 0.18641 0.24683 0.0
H4222 H 0.88917 0.16303 0.2467 0.0
H4223 H 0.89708 0.17961 0.26707 0.0
C4224 C 0.86711 0.10646 0.25599 0.0
C4225 C 0.88495 0.1073 0.2633 0.0
C4226 C 0.85921 0.12208 0.25679 0.0
C4227 C 0.86862 0.13966 0.26484 0.0
C4228 C 0.88636 0.14039 0.27245 0.0
H4229 H 0.84221 0.2516 0.28135 0.0
H4230 H 0.85619 0.22516 0.28067 0.0
C4231 C 0.89428 0.1248 0.27159 0.0
C4232 C 0.85981 0.15672 0.26561 0.0
H4233 H 0.86682 0.20096 0.25933 0.0
C4234 C 0.84205 0.15633 0.27055 0.0
C4235 C 0.86847 0.1735 0.2615 0.0
C4236 C 0.88698 0.17568 0.25506 0.0
C4237 C 0.83329 0.17149 0.27189 0.0
C4238 C 0.8419 0.18825 0.26762 0.0
C4239 C 0.85968 0.18865 0.26271 0.0
C4240 C 0.83291 0.2052 0.26814 0.0
C4241 C 0.81494 0.16933 0.27871 0.0
C4242 C 0.81489 0.20403 0.26115 0.0
C4243 C 0.80668 0.21938 0.26185 0.0
C4244 C 0.81597 0.23714 0.26919 0.0
C4245 C 0.83416 0.23849 0.27571 0.0
C4246 C 0.84233 0.22305 0.27523 0.0
H4247 H 0.81297 0.1589 0.28732 0.0
H4248 H 0.81271 0.18207 0.28683 0.0
H4249 H 0.80463 0.16491 0.2669 0.0
H4250 H 0.80697 0.19112 0.25471 0.0
H4251 H 0.79287 0.21725 0.25624 0.0
H4252 H 0.74877 0.07123 0.0172 0.0
H4253 H 0.71637 0.05855 0.01361 0.0
H4254 H 0.70504 0.11188 0.02233 0.0
H4255 H 0.73712 0.12463 0.02592 0.0
H4256 H 0.68838 0.08033 0.04529 0.0
H4257 H 0.67669 0.06866 0.96966 0.0
H4258 H 0.69721 0.06502 0.98043 0.0
H4259 H 0.69321 0.08735 0.98211 0.0
C4260 C 0.73937 0.08024 0.01827 0.0
C4261 C 0.7456 0.09896 0.02191 0.0
C4262 C 0.72087 0.07298 0.01619 0.0
C4263 C 0.70831 0.08429 0.01765 0.0
C4264 C 0.71449 0.10292 0.02113 0.0
H4265 H 0.59177 0.06486 0.99446 0.0
H4266 H 0.6244 0.07521 0.9956 0.0
C4267 C 0.73288 0.11016 0.02321 0.0
C4268 C 0.68871 0.07688 0.01625 0.0
H4269 H 0.65155 0.06149 0.98583 0.0
C4270 C 0.6803 0.07605 0.03231 0.0
C4271 C 0.67819 0.07178 0.99933 0.0
C4272 C 0.68664 0.0732 0.9818 0.0
C4273 C 0.66163 0.07028 0.03196 0.0
C4274 C 0.651 0.06458 0.01497 0.0
C4275 C 0.65952 0.06559 0.99887 0.0
C4276 C 0.63108 0.05784 0.0137 0.0
C4277 C 0.65352 0.07107 0.04994 0.0
C4278 C 0.62374 0.04429 0.02305 0.0
C4279 C 0.60512 0.03886 0.02289 0.0
C4280 C 0.59336 0.04631 0.01277 0.0
C4281 C 0.60057 0.05908 1.00255 0.0
C4282 C 0.61924 0.06492 1.00315 0.0
H4283 H 0.66217 0.08106 0.06092 0.0
H4284 H 0.64006 0.07461 0.04902 0.0
H4285 H 0.65221 0.05778 0.05401 0.0
H4286 H 0.63241 0.03792 0.03061 0.0
H4287 H 0.59988 0.02867 0.03052 0.0
H4288 H 0.17085 0.48712 0.2834 0.0
H4289 H 0.18656 0.4659 0.29496 0.0
H4290 H 0.22686 0.475 0.25762 0.0
H4291 H 0.21155 0.49674 0.24644 0.0
H4292 H 0.19278 0.43519 0.2764 0.0
H4293 H 0.25729 0.48013 0.30478 0.0
H4294 H 0.23773 0.48857 0.29835 0.0
H4295 H 0.25183 0.48098 0.28137 0.0
C4296 C 0.18315 0.4847 0.27778 0.0
C4297 C 0.19008 0.49356 0.2641 0.0
C4298 C 0.19209 0.47263 0.28441 0.0
C4299 C 0.208 0.46919 0.27736 0.0
C4300 C 0.21487 0.47792 0.26359 0.0
H4301 H 0.25431 0.37748 0.26846 0.0
H4302 H 0.23673 0.40044 0.26593 0.0
C4303 C 0.20607 0.4902 0.25713 0.0
C4304 C 0.21678 0.45561 0.2836 0.0
H4305 H 0.2571 0.44846 0.29948 0.0
C4306 C 0.20677 0.43813 0.28173 0.0
C4307 C 0.23493 0.45961 0.29078 0.0
C4308 C 0.24601 0.4784 0.29412 0.0
C4309 C 0.2147 0.42428 0.2861 0.0
C4310 C 0.23315 0.42805 0.29209 0.0
C4311 C 0.24295 0.44567 0.29477 0.0
C4312 C 0.2429 0.4137 0.29416 0.0
C4313 C 0.20332 0.40573 0.28399 0.0
C4314 C 0.25251 0.41392 0.31077 0.0
C4315 C 0.26271 0.40088 0.31223 0.0
C4316 C 0.26335 0.38754 0.29706 0.0
C4317 C 0.25372 0.38742 0.28045 0.0
C4318 C 0.24364 0.40046 0.279 0.0
H4319 H 0.18896 0.40629 0.28522 0.0
H4320 H 0.20435 0.39799 0.27027 0.0
H4321 H 0.20785 0.39839 0.29434 0.0
H4322 H 0.25218 0.42422 0.32254 0.0
H4323 H 0.26999 0.40115 0.32517 0.0
H4324 H 0.25805 0.42769 0.04839 0.0
H4325 H 0.23219 0.44138 0.04322 0.0
H4326 H 0.20374 0.3913 0.0106 0.0
H4327 H 0.22934 0.37735 0.01632 0.0
H4328 H 0.21804 0.44622 0.01148 0.0
H4329 H 0.16598 0.40405 0.04275 0.0
H4330 H 0.18947 0.40344 0.04611 0.0
H4331 H 0.17637 0.39151 0.02538 0.0
C4332 C 0.24617 0.41953 0.04036 0.0
C4333 C 0.24566 0.40144 0.03284 0.0
C4334 C 0.23143 0.42737 0.03737 0.0
C4335 C 0.21593 0.41732 0.02671 0.0
C4336 C 0.21535 0.3992 0.01927 0.0
H4337 H 0.12015 0.45177 0.9873 0.0
H4338 H 0.14364 0.43465 0.99177 0.0
C4339 C 0.23002 0.39126 0.02247 0.0
C4340 C 0.20087 0.4262 0.02268 0.0
H4341 H 0.15619 0.42482 0.02643 0.0
C4342 C 0.20454 0.44156 0.01481 0.0
C4343 C 0.1832 0.41999 0.02688 0.0
C4344 C 0.17851 0.40394 0.03589 0.0
C4345 C 0.19109 0.45099 0.01119 0.0
C4346 C 0.17355 0.44496 0.01566 0.0
C4347 C 0.16971 0.42938 0.02309 0.0
C4348 C 0.15917 0.45506 0.01323 0.0
C4349 C 0.19571 0.46732 1.00258 0.0
C4350 C 0.16007 0.47203 0.02404 0.0
C4351 C 0.1467 0.4818 0.02156 0.0
C4352 C 0.13223 0.47476 0.00819 0.0
C4353 C 0.13125 0.45761 0.99757 0.0
C4354 C 0.14458 0.44779 1.00015 0.0
H4355 H 0.20866 0.46791 0.99639 0.0
H4356 H 0.18501 0.46746 0.99191 0.0
H4357 H 0.19684 0.47958 0.01316 0.0
H4358 H 0.17118 0.47775 0.03433 0.0
H4359 H 0.1479 0.49503 0.02984 0.0
H4360 H 0.89821 0.9742 0.23428 0.0
H4361 H 0.88214 0.9444 0.23629 0.0
H4362 H 0.85158 0.9678 0.27727 0.0
H4363 H 0.86757 0.99806 0.27492 0.0
H4364 H 0.88149 0.9255 0.26136 0.0
H4365 H 0.81096 0.93212 0.24928 0.0
H4366 H 0.82941 0.94904 0.24564 0.0
H4367 H 0.82311 0.94805 0.2683 0.0
C4368 C 0.88786 0.97323 0.24358 0.0
C4369 C 0.88431 0.98904 0.25428 0.0
C4370 C 0.87861 0.95588 0.2448 0.0
C4371 C 0.86522 0.95318 0.25683 0.0
C4372 C 0.86137 0.96897 0.26743 0.0
H4373 H 0.79831 0.85271 0.2803 0.0
H4374 H 0.81251 0.88369 0.27936 0.0
C4375 C 0.87063 0.98652 0.26611 0.0
C4376 C 0.85626 0.93392 0.25851 0.0
H4377 H 0.81569 0.90507 0.25761 0.0
C4378 C 0.86706 0.92117 0.26046 0.0
C4379 C 0.83737 0.92764 0.25758 0.0
C4380 C 0.8245 0.93985 0.25492 0.0
C4381 C 0.85986 0.90303 0.26169 0.0
C4382 C 0.84093 0.89659 0.26035 0.0
C4383 C 0.83012 0.90941 0.25859 0.0
C4384 C 0.83215 0.87695 0.26093 0.0
C4385 C 0.87293 0.89122 0.2651 0.0
C4386 C 0.83783 0.86196 0.25082 0.0
C4387 C 0.82988 0.84399 0.25172 0.0
C4388 C 0.81543 0.84 0.26231 0.0
C4389 C 0.80937 0.85491 0.27199 0.0
C4390 C 0.81757 0.87288 0.27138 0.0
H4391 H 0.88589 0.89928 0.27206 0.0
H4392 H 0.86754 0.88141 0.2736 0.0
H4393 H 0.87581 0.88381 0.25186 0.0
H4394 H 0.84836 0.86405 0.24191 0.0
H4395 H 0.83489 0.83314 0.24376 0.0
H4396 H 0.7121 0.08181 0.75302 0.0
H4397 H 0.73416 0.10985 0.75852 0.0
H4398 H 0.70031 0.13252 0.72464 0.0
H4399 H 0.67797 0.10461 0.7192 0.0
H4400 H 0.75253 0.12863 0.73356 0.0
H4401 H 0.70909 0.16798 0.7737 0.0
H4402 H 0.70427 0.14377 0.76847 0.0
H4403 H 0.69901 0.15639 0.75154 0.0
C4404 C 0.70935 0.09271 0.74663 0.0
C4405 C 0.69324 0.09102 0.73572 0.0
C4406 C 0.72199 0.10869 0.74979 0.0
C4407 C 0.71872 0.12321 0.74213 0.0
C4408 C 0.7029 0.12147 0.73086 0.0
H4409 H 0.78353 0.22334 0.73278 0.0
H4410 H 0.77091 0.19111 0.72766 0.0
C4411 C 0.6902 0.10551 0.72773 0.0
C4412 C 0.7317 0.14034 0.74626 0.0
H4413 H 0.73607 0.18431 0.76586 0.0
C4414 C 0.74903 0.14083 0.74071 0.0
C4415 C 0.72706 0.15606 0.75582 0.0
C4416 C 0.70891 0.15607 0.76289 0.0
C4417 C 0.76181 0.15688 0.74411 0.0
C4418 C 0.75696 0.17269 0.75312 0.0
C4419 C 0.73972 0.17209 0.75895 0.0
C4420 C 0.76913 0.19033 0.75628 0.0
C4421 C 0.78036 0.15682 0.73816 0.0
C4422 C 0.77292 0.20028 0.77407 0.0
C4423 C 0.77984 0.21861 0.77695 0.0
C4424 C 0.7832 0.22715 0.76209 0.0
C4425 C 0.78122 0.21691 0.74442 0.0
C4426 C 0.77404 0.19853 0.7415 0.0
H4427 H 0.7833 0.14306 0.73566 0.0
H4428 H 0.78142 0.16205 0.72529 0.0
H4429 H 0.79068 0.1656 0.74856 0.0
H4430 H 0.7692 0.19413 0.78561 0.0
H4431 H 0.78133 0.22633 0.7907 0.0
loop_
_geom_bond_atom_site_label_1
_geom_bond_atom_site_label_2
_geom_bond_distance
_geom_bond_site_symmetry_2
_ccdc_geom_bond_type
C0 O1 1.306 . S
C0 O3 1.160 . S
O1 C0 1.306 . S
O1 Cd2 2.228 . S
Cd2 O1 2.228 . S
Cd2 O6 2.273 . S
Cd2 O10 2.277 . S
O3 C0 1.160 . S
O3 Cd4 2.203 . S
Cd4 O3 2.203 . S
Cd4 O6 2.411 . S
Cd4 O7 2.333 . S
Cd4 O8 2.352 . S
Cd4 O12 2.277 . S
Cd4 O13 2.356 . S
C5 O10 1.209 . S
C5 O12 1.226 . S
O6 Cd2 2.273 . S
O6 Cd4 2.411 . S
O6 C9 1.320 . S
O7 Cd4 2.333 . S
O7 C9 1.214 . S
O8 Cd4 2.352 . S
O8 C11 1.258 . S
C9 O6 1.320 . S
C9 O7 1.214 . S
O10 Cd2 2.277 . S
O10 C5 1.209 . S
C11 O8 1.258 . S
C11 O13 1.282 . S
O12 Cd4 2.277 . S
O12 C5 1.226 . S
O13 Cd4 2.356 . S
O13 C11 1.282 . S
C14 O15 1.306 . S
C14 O17 1.160 . S
O15 C14 1.306 . S
O15 Cd16 2.228 1_655 S
Cd16 O15 2.228 1_455 S
Cd16 O20 2.273 . S
Cd16 O24 2.277 1_455 S
O17 C14 1.160 . S
O17 Cd18 2.145 1_655 S
Cd18 O17 2.145 1_455 S
Cd18 O20 2.440 . S
Cd18 O21 2.393 . S
Cd18 O22 2.344 . S
Cd18 O26 2.280 1_455 S
Cd18 O27 2.361 . S
C19 O24 1.209 . S
C19 O26 1.226 . S
O20 Cd16 2.273 . S
O20 Cd18 2.440 . S
O20 C23 1.320 . S
O21 Cd18 2.393 . S
O21 C23 1.214 . S
O22 Cd18 2.344 . S
O22 C25 1.258 . S
C23 O20 1.320 . S
C23 O21 1.214 . S
O24 Cd16 2.277 1_655 S
O24 C19 1.209 . S
C25 O22 1.258 . S
C25 O27 1.282 . S
O26 Cd18 2.280 1_655 S
O26 C19 1.226 . S
O27 Cd18 2.361 . S
O27 C25 1.282 . S
C28 O29 1.306 . S
C28 O31 1.160 . S
O29 C28 1.306 . S
O29 Cd30 2.228 . S
Cd30 O29 2.228 . S
Cd30 O34 2.273 . S
Cd30 O38 2.277 . S
O31 C28 1.160 . S
O31 Cd32 2.203 . S
Cd32 O31 2.203 . S
Cd32 O34 2.411 . S
Cd32 O35 2.333 . S
Cd32 O36 2.352 . S
Cd32 O40 2.277 . S
Cd32 O41 2.356 . S
C33 O38 1.209 . S
C33 O40 1.226 . S
O34 Cd30 2.273 . S
O34 Cd32 2.411 . S
O34 C37 1.320 . S
O35 Cd32 2.333 . S
O35 C37 1.214 . S
O36 Cd32 2.352 . S
O36 C39 1.258 . S
C37 O34 1.320 . S
C37 O35 1.214 . S
O38 Cd30 2.277 . S
O38 C33 1.209 . S
C39 O36 1.258 . S
C39 O41 1.282 . S
O40 Cd32 2.277 . S
O40 C33 1.226 . S
O41 Cd32 2.356 . S
O41 C39 1.282 . S
C42 O43 1.306 . S
C42 O45 1.160 . S
O43 C42 1.306 . S
O43 Cd44 2.228 . S
Cd44 O43 2.228 . S
Cd44 O48 2.273 . S
Cd44 O52 2.277 . S
O45 C42 1.160 . S
O45 Cd46 2.203 . S
Cd46 O45 2.203 . S
Cd46 O48 2.411 . S
Cd46 O49 2.333 . S
Cd46 O50 2.352 . S
Cd46 O54 2.277 . S
Cd46 O55 2.356 . S
C47 O52 1.209 . S
C47 O54 1.226 . S
O48 Cd44 2.273 . S
O48 Cd46 2.411 . S
O48 C51 1.320 . S
O49 Cd46 2.333 . S
O49 C51 1.214 . S
O50 Cd46 2.352 . S
O50 C53 1.258 . S
C51 O48 1.320 . S
C51 O49 1.214 . S
O52 Cd44 2.277 . S
O52 C47 1.209 . S
C53 O50 1.258 . S
C53 O55 1.282 . S
O54 Cd46 2.277 . S
O54 C47 1.226 . S
O55 Cd46 2.356 . S
O55 C53 1.282 . S
C56 O57 1.306 . S
C56 O59 1.160 . S
O57 C56 1.306 . S
O57 Cd58 2.228 . S
Cd58 O57 2.228 . S
Cd58 O62 2.273 . S
Cd58 O66 2.277 . S
O59 C56 1.160 . S
O59 Cd60 2.203 . S
Cd60 O59 2.203 . S
Cd60 O62 2.411 . S
Cd60 O63 2.333 . S
Cd60 O64 2.352 . S
Cd60 O68 2.277 . S
Cd60 O69 2.356 . S
C61 O66 1.209 . S
C61 O68 1.226 . S
O62 Cd58 2.273 . S
O62 Cd60 2.411 . S
O62 C65 1.320 . S
O63 Cd60 2.333 . S
O63 C65 1.214 . S
O64 Cd60 2.352 . S
O64 C67 1.258 . S
C65 O62 1.320 . S
C65 O63 1.214 . S
O66 Cd58 2.277 . S
O66 C61 1.209 . S
C67 O64 1.258 . S
C67 O69 1.282 . S
O68 Cd60 2.277 . S
O68 C61 1.226 . S
O69 Cd60 2.356 . S
O69 C67 1.282 . S
C70 O71 1.306 . S
C70 O73 1.160 . S
O71 C70 1.306 . S
O71 Cd72 2.228 . S
Cd72 O71 2.228 . S
Cd72 O76 2.273 . S
Cd72 O80 2.277 . S
O73 C70 1.160 . S
O73 Cd74 2.203 . S
Cd74 O73 2.203 . S
Cd74 O76 2.411 . S
Cd74 O77 2.333 . S
Cd74 O78 2.352 . S
Cd74 O82 2.277 . S
Cd74 O83 2.356 . S
C75 O80 1.209 . S
C75 O82 1.226 . S
O76 Cd72 2.273 . S
O76 Cd74 2.411 . S
O76 C79 1.320 . S
O77 Cd74 2.333 . S
O77 C79 1.214 . S
O78 Cd74 2.352 . S
O78 C81 1.258 . S
C79 O76 1.320 . S
C79 O77 1.214 . S
O80 Cd72 2.277 . S
O80 C75 1.209 . S
C81 O78 1.258 . S
C81 O83 1.282 . S
O82 Cd74 2.277 . S
O82 C75 1.226 . S
O83 Cd74 2.356 . S
O83 C81 1.282 . S
C84 O85 1.306 . S
C84 O87 1.160 . S
O85 C84 1.306 . S
O85 Cd86 2.228 . S
Cd86 O85 2.228 . S
Cd86 O90 2.273 . S
Cd86 O94 2.277 . S
O87 C84 1.160 . S
O87 Cd88 2.203 . S
Cd88 O87 2.203 . S
Cd88 O90 2.411 . S
Cd88 O91 2.333 . S
Cd88 O92 2.352 . S
Cd88 O96 2.277 . S
Cd88 O97 2.356 . S
C89 O94 1.209 . S
C89 O96 1.226 . S
O90 Cd86 2.273 . S
O90 Cd88 2.411 . S
O90 C93 1.320 . S
O91 Cd88 2.333 . S
O91 C93 1.214 . S
O92 Cd88 2.352 . S
O92 C95 1.258 . S
C93 O90 1.320 . S
C93 O91 1.214 . S
O94 Cd86 2.277 . S
O94 C89 1.209 . S
C95 O92 1.258 . S
C95 O97 1.282 . S
O96 Cd88 2.277 . S
O96 C89 1.226 . S
O97 Cd88 2.356 . S
O97 C95 1.282 . S
C98 O99 1.306 . S
C98 O101 1.160 . S
O99 C98 1.306 . S
O99 Cd100 2.228 1_655 S
Cd100 O99 2.228 1_455 S
Cd100 O104 2.273 . S
Cd100 O108 2.277 . S
O101 C98 1.160 . S
O101 Cd102 2.203 1_655 S
Cd102 O101 2.203 1_455 S
Cd102 O104 2.411 . S
Cd102 O105 2.333 . S
Cd102 O106 2.352 . S
Cd102 O110 2.277 . S
Cd102 O111 2.356 . S
C103 O108 1.209 . S
C103 O110 1.226 . S
O104 Cd100 2.273 . S
O104 Cd102 2.411 . S
O104 C107 1.320 . S
O105 Cd102 2.333 . S
O105 C107 1.214 . S
O106 Cd102 2.352 . S
O106 C109 1.258 . S
C107 O104 1.320 . S
C107 O105 1.214 . S
O108 Cd100 2.277 . S
O108 C103 1.209 . S
C109 O106 1.258 . S
C109 O111 1.282 . S
O110 Cd102 2.277 . S
O110 C103 1.226 . S
O111 Cd102 2.356 . S
O111 C109 1.282 . S
C112 O113 1.306 . S
C112 O115 1.160 . S
O113 C112 1.306 . S
O113 Cd114 2.228 1_545 S
Cd114 O113 2.228 1_565 S
Cd114 O118 2.273 1_565 S
Cd114 O122 2.277 . S
O115 C112 1.160 . S
O115 Cd116 2.203 . S
Cd116 O115 2.203 . S
Cd116 O118 2.411 . S
Cd116 O119 2.333 . S
Cd116 O120 2.352 . S
Cd116 O124 2.277 1_545 S
Cd116 O125 2.356 . S
C117 O122 1.209 . S
C117 O124 1.226 . S
O118 Cd114 2.273 1_545 S
O118 Cd116 2.411 . S
O118 C121 1.320 . S
O119 Cd116 2.333 . S
O119 C121 1.214 . S
O120 Cd116 2.352 . S
O120 C123 1.258 . S
C121 O118 1.320 . S
C121 O119 1.214 . S
O122 Cd114 2.277 . S
O122 C117 1.209 . S
C123 O120 1.258 . S
C123 O125 1.282 . S
O124 Cd116 2.277 1_565 S
O124 C117 1.226 . S
O125 Cd116 2.356 . S
O125 C123 1.282 . S
C126 O127 1.306 . S
C126 O129 1.160 . S
O127 C126 1.306 . S
O127 Cd128 2.228 . S
Cd128 O127 2.228 . S
Cd128 O132 2.273 . S
Cd128 O136 2.277 . S
O129 C126 1.160 . S
O129 Cd130 2.203 . S
Cd130 O129 2.203 . S
Cd130 O132 2.411 . S
Cd130 O133 2.333 . S
Cd130 O134 2.352 . S
Cd130 O138 2.277 . S
Cd130 O139 2.356 . S
C131 O136 1.209 . S
C131 O138 1.226 . S
O132 Cd128 2.273 . S
O132 Cd130 2.411 . S
O132 C135 1.320 . S
O133 Cd130 2.333 . S
O133 C135 1.214 . S
O134 Cd130 2.352 . S
O134 C137 1.258 . S
C135 O132 1.320 . S
C135 O133 1.214 . S
O136 Cd128 2.277 . S
O136 C131 1.209 . S
C137 O134 1.258 . S
C137 O139 1.282 . S
O138 Cd130 2.277 . S
O138 C131 1.226 . S
O139 Cd130 2.356 . S
O139 C137 1.282 . S
C140 O141 1.306 . S
C140 O143 1.160 . S
O141 C140 1.306 . S
O141 Cd142 2.228 . S
Cd142 O141 2.228 . S
Cd142 O146 2.273 . S
Cd142 O150 2.277 . S
O143 C140 1.160 . S
O143 Cd144 2.203 . S
Cd144 O143 2.203 . S
Cd144 O146 2.411 . S
Cd144 O147 2.333 1_545 S
Cd144 O148 2.352 1_545 S
Cd144 O152 2.277 . S
Cd144 O153 2.356 1_545 S
C145 O150 1.209 . S
C145 O152 1.226 . S
O146 Cd142 2.273 . S
O146 Cd144 2.411 . S
O146 C149 1.320 . S
O147 Cd144 2.333 1_565 S
O147 C149 1.213 1_565 S
O148 Cd144 2.352 1_565 S
O148 C151 1.258 . S
C149 O146 1.320 . S
C149 O147 1.213 1_545 S
O150 Cd142 2.277 . S
O150 C145 1.209 . S
C151 O148 1.258 . S
C151 O153 1.282 . S
O152 Cd144 2.277 . S
O152 C145 1.226 . S
O153 Cd144 2.356 1_565 S
O153 C151 1.282 . S
C154 O155 1.306 . S
C154 O157 1.160 . S
O155 C154 1.306 . S
O155 Cd156 2.228 1_554 S
Cd156 O155 2.228 1_556 S
Cd156 O160 2.273 1_556 S
Cd156 O164 2.277 . S
O157 C154 1.160 . S
O157 Cd158 2.203 . S
Cd158 O157 2.203 . S
Cd158 O160 2.411 . S
Cd158 O161 2.333 . S
Cd158 O162 2.352 . S
Cd158 O166 2.277 1_554 S
Cd158 O167 2.356 . S
C159 O164 1.209 . S
C159 O166 1.226 . S
O160 Cd156 2.273 1_554 S
O160 Cd158 2.411 . S
O160 C163 1.320 . S
O161 Cd158 2.333 . S
O161 C163 1.214 . S
O162 Cd158 2.352 . S
O162 C165 1.258 . S
C163 O160 1.320 . S
C163 O161 1.214 . S
O164 Cd156 2.277 . S
O164 C159 1.209 . S
C165 O162 1.258 . S
C165 O167 1.282 . S
O166 Cd158 2.277 1_556 S
O166 C159 1.226 . S
O167 Cd158 2.356 . S
O167 C165 1.282 . S
C168 O169 1.306 . S
C168 O171 1.160 . S
O169 C168 1.306 . S
O169 Cd170 2.228 1_554 S
Cd170 O169 2.228 1_556 S
Cd170 O174 2.273 1_556 S
Cd170 O178 2.277 . S
O171 C168 1.160 . S
O171 Cd172 2.203 . S
Cd172 O171 2.203 . S
Cd172 O174 2.411 . S
Cd172 O175 2.333 . S
Cd172 O176 2.352 . S
Cd172 O180 2.277 1_554 S
Cd172 O181 2.356 . S
C173 O178 1.209 . S
C173 O180 1.226 . S
O174 Cd170 2.273 1_554 S
O174 Cd172 2.411 . S
O174 C177 1.320 . S
O175 Cd172 2.333 . S
O175 C177 1.214 . S
O176 Cd172 2.352 . S
O176 C179 1.258 . S
C177 O174 1.320 . S
C177 O175 1.214 . S
O178 Cd170 2.277 . S
O178 C173 1.209 . S
C179 O176 1.258 . S
C179 O181 1.282 . S
O180 Cd172 2.277 1_556 S
O180 C173 1.226 . S
O181 Cd172 2.356 . S
O181 C179 1.282 . S
C182 O183 1.306 . S
C182 O185 1.160 . S
O183 C182 1.306 . S
O183 Cd184 2.228 . S
Cd184 O183 2.228 . S
Cd184 O188 2.273 . S
Cd184 O192 2.277 . S
O185 C182 1.160 . S
O185 Cd186 2.203 . S
Cd186 O185 2.203 . S
Cd186 O188 2.411 . S
Cd186 O189 2.333 . S
Cd186 O190 2.352 1_554 S
Cd186 O194 2.277 . S
Cd186 O195 2.356 1_554 S
C187 O192 1.209 . S
C187 O194 1.226 . S
O188 Cd184 2.273 . S
O188 Cd186 2.411 . S
O188 C191 1.320 . S
O189 Cd186 2.333 . S
O189 C191 1.214 . S
O190 Cd186 2.352 1_556 S
O190 C193 1.258 . S
C191 O188 1.320 . S
C191 O189 1.214 . S
O192 Cd184 2.277 . S
O192 C187 1.209 . S
C193 O190 1.258 . S
C193 O195 1.282 . S
O194 Cd186 2.277 . S
O194 C187 1.226 . S
O195 Cd186 2.356 1_556 S
O195 C193 1.282 . S
C196 O197 1.306 . S
C196 O199 1.160 . S
O197 C196 1.306 . S
O197 Cd198 2.228 . S
Cd198 O197 2.228 . S
Cd198 O202 2.273 . S
Cd198 O206 2.277 . S
O199 C196 1.160 . S
O199 Cd200 2.203 . S
Cd200 O199 2.203 . S
Cd200 O202 2.411 . S
Cd200 O203 2.333 . S
Cd200 O204 2.352 . S
Cd200 O208 2.277 . S
Cd200 O209 2.356 . S
C201 O206 1.209 . S
C201 O208 1.226 . S
O202 Cd198 2.273 . S
O202 Cd200 2.411 . S
O202 C205 1.320 . S
O203 Cd200 2.333 . S
O203 C205 1.214 . S
O204 Cd200 2.352 . S
O204 C207 1.258 . S
C205 O202 1.320 . S
C205 O203 1.214 . S
O206 Cd198 2.277 . S
O206 C201 1.209 . S
C207 O204 1.258 . S
C207 O209 1.282 . S
O208 Cd200 2.277 . S
O208 C201 1.226 . S
O209 Cd200 2.356 . S
O209 C207 1.282 . S
C210 O211 1.306 . S
C210 O213 1.160 . S
O211 C210 1.306 . S
O211 Cd212 2.228 . S
Cd212 O211 2.228 . S
Cd212 O216 2.273 . S
Cd212 O220 2.277 . S
O213 C210 1.160 . S
O213 Cd214 2.203 . S
Cd214 O213 2.203 . S
Cd214 O216 2.411 . S
Cd214 O217 2.333 . S
Cd214 O218 2.352 . S
Cd214 O222 2.277 . S
Cd214 O223 2.356 . S
C215 O220 1.209 . S
C215 O222 1.226 . S
O216 Cd212 2.273 . S
O216 Cd214 2.411 . S
O216 C219 1.320 . S
O217 Cd214 2.333 . S
O217 C219 1.214 . S
O218 Cd214 2.352 . S
O218 C221 1.258 . S
C219 O216 1.320 . S
C219 O217 1.214 . S
O220 Cd212 2.277 . S
O220 C215 1.209 . S
C221 O218 1.258 . S
C221 O223 1.282 . S
O222 Cd214 2.277 . S
O222 C215 1.226 . S
O223 Cd214 2.356 . S
O223 C221 1.282 . S
C224 O225 1.306 . S
C224 O227 1.160 . S
O225 C224 1.306 . S
O225 Cd226 2.228 . S
Cd226 O225 2.228 . S
Cd226 O230 2.273 . S
Cd226 O234 2.277 . S
O227 C224 1.160 . S
O227 Cd228 2.203 . S
Cd228 O227 2.203 . S
Cd228 O230 2.411 . S
Cd228 O231 2.333 . S
Cd228 O232 2.352 . S
Cd228 O236 2.277 . S
Cd228 O237 2.356 . S
C229 O234 1.209 . S
C229 O236 1.226 . S
O230 Cd226 2.273 . S
O230 Cd228 2.411 . S
O230 C233 1.320 . S
O231 Cd228 2.333 . S
O231 C233 1.214 . S
O232 Cd228 2.352 . S
O232 C235 1.258 . S
C233 O230 1.320 . S
C233 O231 1.214 . S
O234 Cd226 2.277 . S
O234 C229 1.209 . S
C235 O232 1.258 . S
C235 O237 1.282 . S
O236 Cd228 2.277 . S
O236 C229 1.226 . S
O237 Cd228 2.356 . S
O237 C235 1.282 . S
C238 O239 1.306 . S
C238 O241 1.160 . S
O239 C238 1.306 . S
O239 Cd240 2.228 . S
Cd240 O239 2.228 . S
Cd240 O244 2.273 . S
Cd240 O248 2.277 . S
O241 C238 1.160 . S
O241 Cd242 2.203 . S
Cd242 O241 2.203 . S
Cd242 O244 2.411 . S
Cd242 O245 2.333 . S
Cd242 O246 2.352 . S
Cd242 O250 2.277 . S
Cd242 O251 2.356 . S
C243 O248 1.209 . S
C243 O250 1.226 . S
O244 Cd240 2.273 . S
O244 Cd242 2.411 . S
O244 C247 1.320 . S
O245 Cd242 2.333 . S
O245 C247 1.214 . S
O246 Cd242 2.352 . S
O246 C249 1.258 . S
C247 O244 1.320 . S
C247 O245 1.214 . S
O248 Cd240 2.277 . S
O248 C243 1.209 . S
C249 O246 1.258 . S
C249 O251 1.282 . S
O250 Cd242 2.277 . S
O250 C243 1.226 . S
O251 Cd242 2.356 . S
O251 C249 1.282 . S
C252 O253 1.306 . S
C252 O255 1.160 . S
O253 C252 1.306 . S
O253 Cd254 2.228 . S
Cd254 O253 2.228 . S
Cd254 O258 2.273 . S
Cd254 O262 2.277 . S
O255 C252 1.160 . S
O255 Cd256 2.203 . S
Cd256 O255 2.203 . S
Cd256 O258 2.411 . S
Cd256 O259 2.333 . S
Cd256 O260 2.352 . S
Cd256 O264 2.277 . S
Cd256 O265 2.356 . S
C257 O262 1.209 . S
C257 O264 1.226 . S
O258 Cd254 2.273 . S
O258 Cd256 2.411 . S
O258 C261 1.320 . S
O259 Cd256 2.333 . S
O259 C261 1.214 . S
O260 Cd256 2.352 . S
O260 C263 1.258 . S
C261 O258 1.320 . S
C261 O259 1.214 . S
O262 Cd254 2.277 . S
O262 C257 1.209 . S
C263 O260 1.258 . S
C263 O265 1.282 . S
O264 Cd256 2.277 . S
O264 C257 1.226 . S
O265 Cd256 2.356 . S
O265 C263 1.282 . S
C266 O267 1.306 . S
C266 O269 1.160 . S
O267 C266 1.306 . S
O267 Cd268 2.228 . S
Cd268 O267 2.228 . S
Cd268 O272 2.273 . S
Cd268 O276 2.277 . S
O269 C266 1.160 . S
O269 Cd270 2.203 . S
Cd270 O269 2.203 . S
Cd270 O272 2.411 . S
Cd270 O273 2.333 . S
Cd270 O274 2.352 . S
Cd270 O278 2.277 . S
Cd270 O279 2.356 . S
C271 O276 1.209 . S
C271 O278 1.226 . S
O272 Cd268 2.273 . S
O272 Cd270 2.411 . S
O272 C275 1.320 . S
O273 Cd270 2.333 . S
O273 C275 1.214 . S
O274 Cd270 2.352 . S
O274 C277 1.258 . S
C275 O272 1.320 . S
C275 O273 1.214 . S
O276 Cd268 2.277 . S
O276 C271 1.209 . S
C277 O274 1.258 . S
C277 O279 1.282 . S
O278 Cd270 2.277 . S
O278 C271 1.226 . S
O279 Cd270 2.356 . S
O279 C277 1.282 . S
C280 O281 1.306 . S
C280 O283 1.160 . S
O281 C280 1.306 . S
O281 Cd282 2.228 . S
Cd282 O281 2.228 . S
Cd282 O286 2.273 . S
Cd282 O290 2.277 . S
O283 C280 1.160 . S
O283 Cd284 2.203 . S
Cd284 O283 2.203 . S
Cd284 O286 2.411 . S
Cd284 O287 2.333 . S
Cd284 O288 2.352 1_554 S
Cd284 O292 2.277 . S
Cd284 O293 2.356 1_554 S
C285 O290 1.209 . S
C285 O292 1.226 . S
O286 Cd282 2.273 . S
O286 Cd284 2.411 . S
O286 C289 1.320 . S
O287 Cd284 2.333 . S
O287 C289 1.214 . S
O288 Cd284 2.352 1_556 S
O288 C291 1.258 . S
C289 O286 1.320 . S
C289 O287 1.214 . S
O290 Cd282 2.277 . S
O290 C285 1.209 . S
C291 O288 1.258 . S
C291 O293 1.282 . S
O292 Cd284 2.277 . S
O292 C285 1.226 . S
O293 Cd284 2.356 1_556 S
O293 C291 1.282 . S
C294 O295 1.306 . S
C294 O297 1.160 . S
O295 C294 1.306 . S
O295 Cd296 2.228 . S
Cd296 O295 2.228 . S
Cd296 O300 2.273 . S
Cd296 O304 2.277 . S
O297 C294 1.160 . S
O297 Cd298 2.203 . S
Cd298 O297 2.203 . S
Cd298 O300 2.411 . S
Cd298 O301 2.333 . S
Cd298 O302 2.352 . S
Cd298 O306 2.277 . S
Cd298 O307 2.356 . S
C299 O304 1.209 . S
C299 O306 1.226 . S
O300 Cd296 2.273 . S
O300 Cd298 2.411 . S
O300 C303 1.320 . S
O301 Cd298 2.333 . S
O301 C303 1.214 . S
O302 Cd298 2.352 . S
O302 C305 1.258 . S
C303 O300 1.320 . S
C303 O301 1.214 . S
O304 Cd296 2.277 . S
O304 C299 1.209 . S
C305 O302 1.258 . S
C305 O307 1.282 . S
O306 Cd298 2.277 . S
O306 C299 1.226 . S
O307 Cd298 2.356 . S
O307 C305 1.282 . S
C308 O309 1.306 . S
C308 O311 1.160 . S
O309 C308 1.306 . S
O309 Cd310 2.228 . S
Cd310 O309 2.228 . S
Cd310 O314 2.273 . S
Cd310 O318 2.277 . S
O311 C308 1.160 . S
O311 Cd312 2.203 . S
Cd312 O311 2.203 . S
Cd312 O314 2.411 . S
Cd312 O315 2.333 . S
Cd312 O316 2.352 . S
Cd312 O320 2.277 . S
Cd312 O321 2.356 . S
C313 O318 1.209 . S
C313 O320 1.226 . S
O314 Cd310 2.273 . S
O314 Cd312 2.411 . S
O314 C317 1.320 . S
O315 Cd312 2.333 . S
O315 C317 1.214 . S
O316 Cd312 2.352 . S
O316 C319 1.258 . S
C317 O314 1.320 . S
C317 O315 1.214 . S
O318 Cd310 2.277 . S
O318 C313 1.209 . S
C319 O316 1.258 . S
C319 O321 1.282 . S
O320 Cd312 2.277 . S
O320 C313 1.226 . S
O321 Cd312 2.356 . S
O321 C319 1.282 . S
C322 O323 1.306 . S
C322 O325 1.160 . S
O323 C322 1.306 . S
O323 Cd324 2.228 . S
Cd324 O323 2.228 . S
Cd324 O328 2.273 . S
Cd324 O332 2.277 . S
O325 C322 1.160 . S
O325 Cd326 2.203 . S
Cd326 O325 2.203 . S
Cd326 O328 2.411 . S
Cd326 O329 2.333 . S
Cd326 O330 2.352 . S
Cd326 O334 2.277 . S
Cd326 O335 2.356 . S
C327 O332 1.209 . S
C327 O334 1.226 . S
O328 Cd324 2.273 . S
O328 Cd326 2.411 . S
O328 C331 1.320 . S
O329 Cd326 2.333 . S
O329 C331 1.214 . S
O330 Cd326 2.352 . S
O330 C333 1.258 . S
C331 O328 1.320 . S
C331 O329 1.214 . S
O332 Cd324 2.277 . S
O332 C327 1.209 . S
C333 O330 1.258 . S
C333 O335 1.282 . S
O334 Cd326 2.277 . S
O334 C327 1.226 . S
O335 Cd326 2.356 . S
O335 C333 1.282 . S
Eu336 C345 2.828 . S
Eu336 O347 2.392 . S
Eu336 O349 2.418 . S
Eu336 O354 2.373 . S
Eu336 O357 2.488 . S
Eu336 O358 2.471 1_554 S
Eu336 O359 2.349 1_554 S
Eu337 O346 2.373 . S
Eu337 O350 2.487 1_544 S
Eu337 O351 2.471 1_545 S
Eu337 O352 2.349 . S
Eu337 O355 2.392 1_554 S
Eu337 O356 2.418 1_554 S
Eu337 C366 2.828 1_545 S
C338 O356 1.244 . S
C338 O359 1.265 . S
C339 C340 1.379 1_554 S
C339 C343 1.373 . S
C339 C345 1.505 . S
C340 C339 1.379 1_556 S
C340 C342 1.369 . S
C340 H368 0.930 . S
C341 C343 1.383 . S
C341 C344 1.382 1_554 S
C341 H369 0.930 . S
C342 C340 1.369 . S
C342 C344 1.392 . S
C342 H370 0.930 . S
C343 C339 1.373 . S
C343 C341 1.383 . S
C343 H371 0.931 . S
C344 C341 1.382 1_556 S
C344 C342 1.392 . S
C345 Eu336 2.828 . S
C345 C339 1.505 . S
C345 O357 1.249 . S
C345 O358 1.244 1_554 S
O346 Eu337 2.373 . S
O346 C348 1.258 . S
O347 Eu336 2.392 . S
O347 C348 1.242 . S
C348 O346 1.258 . S
C348 O347 1.242 . S
O349 Eu336 2.418 . S
O349 C353 1.244 . S
O350 Eu337 2.487 1_566 S
O350 C366 1.217 1_556 S
O351 Eu337 2.471 1_565 S
O351 C366 1.244 . S
O352 Eu337 2.349 . S
O352 C353 1.265 . S
C353 O349 1.244 . S
C353 O352 1.265 . S
O354 Eu336 2.373 . S
O354 C367 1.258 . S
O355 Eu337 2.392 1_556 S
O355 C367 1.242 1_556 S
O356 Eu337 2.418 1_556 S
O356 C338 1.244 . S
O357 Eu336 2.488 . S
O357 C345 1.249 . S
O358 Eu336 2.471 1_556 S
O358 C345 1.244 1_556 S
O359 Eu336 2.349 1_556 S
O359 C338 1.265 . S
C360 C361 1.379 . S
C360 C364 1.373 . S
C360 C366 1.505 . S
C361 C360 1.379 . S
C361 C363 1.369 . S
C361 H372 0.930 . S
C362 C364 1.383 . S
C362 C365 1.382 . S
C362 H373 0.930 . S
C363 C361 1.369 . S
C363 C365 1.392 . S
C363 H374 0.930 . S
C364 C360 1.373 . S
C364 C362 1.383 . S
C364 H375 0.931 1_554 S
C365 C362 1.382 . S
C365 C363 1.392 . S
C366 Eu337 2.828 1_565 S
C366 O350 1.217 1_554 S
C366 O351 1.244 . S
C366 C360 1.505 . S
C367 O354 1.258 . S
C367 O355 1.242 1_554 S
H368 C340 0.930 . S
H369 C341 0.930 . S
H370 C342 0.930 . S
H371 C343 0.931 . S
H372 C361 0.930 . S
H373 C362 0.930 . S
H374 C363 0.930 . S
H375 C364 0.931 1_556 S
Eu376 C385 2.828 . S
Eu376 O387 2.392 . S
Eu376 O389 2.418 . S
Eu376 O394 2.373 . S
Eu376 O397 2.488 . S
Eu376 O398 2.471 . S
Eu376 O399 2.349 . S
Eu377 O386 2.373 . S
Eu377 O390 2.488 . S
Eu377 O391 2.471 . S
Eu377 O392 2.349 . S
Eu377 O395 2.392 . S
Eu377 O396 2.418 . S
Eu377 C406 2.828 . S
C378 O396 1.244 . S
C378 O399 1.265 . S
C379 C380 1.379 . S
C379 C383 1.373 . S
C379 C385 1.505 . S
C380 C379 1.379 . S
C380 C382 1.369 . S
C380 H408 0.930 . S
C381 C383 1.383 . S
C381 C384 1.382 . S
C381 H409 0.930 . S
C382 C380 1.369 . S
C382 C384 1.392 . S
C382 H410 0.930 . S
C383 C379 1.373 . S
C383 C381 1.383 . S
C383 H411 0.931 . S
C384 C381 1.382 . S
C384 C382 1.392 . S
C385 Eu376 2.828 . S
C385 C379 1.505 . S
C385 O397 1.249 . S
C385 O398 1.244 . S
O386 Eu377 2.373 . S
O386 C388 1.258 . S
O387 Eu376 2.392 . S
O387 C388 1.242 . S
C388 O386 1.258 . S
C388 O387 1.242 . S
O389 Eu376 2.418 . S
O389 C393 1.244 . S
O390 Eu377 2.488 . S
O390 C406 1.249 . S
O391 Eu377 2.471 . S
O391 C406 1.244 . S
O392 Eu377 2.349 . S
O392 C393 1.265 . S
C393 O389 1.244 . S
C393 O392 1.265 . S
O394 Eu376 2.373 . S
O394 C407 1.258 . S
O395 Eu377 2.392 . S
O395 C407 1.242 . S
O396 Eu377 2.418 . S
O396 C378 1.244 . S
O397 Eu376 2.488 . S
O397 C385 1.249 . S
O398 Eu376 2.471 . S
O398 C385 1.244 . S
O399 Eu376 2.349 . S
O399 C378 1.265 . S
C400 C401 1.379 . S
C400 C404 1.373 . S
C400 C406 1.505 . S
C401 C400 1.379 . S
C401 C403 1.369 . S
C401 H412 0.930 . S
C402 C404 1.383 . S
C402 C405 1.382 . S
C402 H413 0.930 . S
C403 C401 1.369 . S
C403 C405 1.392 . S
C403 H414 0.930 . S
C404 C400 1.373 . S
C404 C402 1.383 . S
C404 H415 0.931 . S
C405 C402 1.382 . S
C405 C403 1.392 . S
C406 Eu377 2.828 . S
C406 O390 1.249 . S
C406 O391 1.244 . S
C406 C400 1.505 . S
C407 O394 1.258 . S
C407 O395 1.242 . S
H408 C380 0.930 . S
H409 C381 0.930 . S
H410 C382 0.930 . S
H411 C383 0.931 . S
H412 C401 0.930 . S
H413 C402 0.930 . S
H414 C403 0.930 . S
H415 C404 0.931 . S
Eu416 C425 2.828 . S
Eu416 O427 2.392 . S
Eu416 O429 2.418 . S
Eu416 O434 2.325 1_545 S
Eu416 O437 2.488 . S
Eu416 O438 2.471 . S
Eu416 O439 2.349 . S
Eu417 O426 2.373 . S
Eu417 O430 2.488 . S
Eu417 O431 2.471 . S
Eu417 O432 2.349 . S
Eu417 O435 2.392 1_545 S
Eu417 O436 2.418 . S
Eu417 C446 2.828 . S
C418 O436 1.244 . S
C418 O439 1.265 . S
C419 C420 1.379 . S
C419 C423 1.373 . S
C419 C425 1.505 1_565 S
C420 C419 1.379 . S
C420 C422 1.369 . S
C420 H448 0.930 . S
C421 C423 1.383 . S
C421 C424 1.382 . S
C421 H449 0.930 . S
C422 C420 1.369 . S
C422 C424 1.392 . S
C422 H450 0.930 . S
C423 C419 1.373 . S
C423 C421 1.383 . S
C423 H451 0.931 1_565 S
C424 C421 1.382 . S
C424 C422 1.392 . S
C425 Eu416 2.828 . S
C425 C419 1.505 1_545 S
C425 O437 1.249 . S
C425 O438 1.244 . S
O426 Eu417 2.373 . S
O426 C428 1.258 . S
O427 Eu416 2.392 . S
O427 C428 1.242 . S
C428 O426 1.258 . S
C428 O427 1.242 . S
O429 Eu416 2.418 . S
O429 C433 1.244 . S
O430 Eu417 2.488 . S
O430 C446 1.249 . S
O431 Eu417 2.471 . S
O431 C446 1.244 . S
O432 Eu417 2.349 . S
O432 C433 1.265 . S
C433 O429 1.244 . S
C433 O432 1.265 . S
O434 Eu416 2.325 1_565 S
O434 C447 1.288 . S
O435 Eu417 2.392 1_565 S
O435 C447 1.242 . S
O436 Eu417 2.418 . S
O436 C418 1.244 . S
O437 Eu416 2.488 . S
O437 C425 1.249 . S
O438 Eu416 2.471 . S
O438 C425 1.244 . S
O439 Eu416 2.349 . S
O439 C418 1.265 . S
C440 C441 1.379 . S
C440 C444 1.373 . S
C440 C446 1.505 . S
C441 C440 1.379 . S
C441 C443 1.369 . S
C441 H452 0.930 . S
C442 C444 1.383 . S
C442 C445 1.382 . S
C442 H453 0.930 . S
C443 C441 1.369 . S
C443 C445 1.392 . S
C443 H454 0.930 . S
C444 C440 1.373 . S
C444 C442 1.383 . S
C444 H455 0.931 . S
C445 C442 1.382 . S
C445 C443 1.392 . S
C446 Eu417 2.828 . S
C446 O430 1.249 . S
C446 O431 1.244 . S
C446 C440 1.505 . S
C447 O434 1.288 . S
C447 O435 1.242 . S
H448 C420 0.930 . S
H449 C421 0.930 . S
H450 C422 0.930 . S
H451 C423 0.931 1_545 S
H452 C441 0.930 . S
H453 C442 0.930 . S
H454 C443 0.930 . S
H455 C444 0.931 . S
Eu456 C465 2.828 . S
Eu456 O467 2.392 . S
Eu456 O469 2.418 . S
Eu456 O474 2.373 . S
Eu456 O477 2.488 . S
Eu456 O478 2.471 . S
Eu456 O479 2.349 . S
Eu457 O466 2.373 . S
Eu457 O470 2.488 . S
Eu457 O471 2.471 . S
Eu457 O472 2.349 . S
Eu457 O475 2.392 . S
Eu457 O476 2.418 . S
Eu457 C486 2.828 . S
C458 O476 1.244 . S
C458 O479 1.265 . S
C459 C460 1.379 . S
C459 C463 1.373 . S
C459 C465 1.505 . S
C460 C459 1.379 . S
C460 C462 1.369 . S
C460 H488 0.930 . S
C461 C463 1.383 . S
C461 C464 1.382 . S
C461 H489 0.930 . S
C462 C460 1.369 . S
C462 C464 1.392 . S
C462 H490 0.930 . S
C463 C459 1.373 . S
C463 C461 1.383 . S
C463 H491 0.931 . S
C464 C461 1.382 . S
C464 C462 1.392 . S
C465 Eu456 2.828 . S
C465 C459 1.505 . S
C465 O477 1.249 . S
C465 O478 1.244 . S
O466 Eu457 2.373 . S
O466 C468 1.258 . S
O467 Eu456 2.392 . S
O467 C468 1.242 . S
C468 O466 1.258 . S
C468 O467 1.242 . S
O469 Eu456 2.418 . S
O469 C473 1.244 . S
O470 Eu457 2.488 . S
O470 C486 1.249 . S
O471 Eu457 2.471 . S
O471 C486 1.244 . S
O472 Eu457 2.349 . S
O472 C473 1.265 . S
C473 O469 1.244 . S
C473 O472 1.265 . S
O474 Eu456 2.373 . S
O474 C487 1.258 . S
O475 Eu457 2.392 . S
O475 C487 1.242 . S
O476 Eu457 2.418 . S
O476 C458 1.244 . S
O477 Eu456 2.488 . S
O477 C465 1.249 . S
O478 Eu456 2.471 . S
O478 C465 1.244 . S
O479 Eu456 2.349 . S
O479 C458 1.265 . S
C480 C481 1.379 . S
C480 C484 1.373 . S
C480 C486 1.505 . S
C481 C480 1.379 . S
C481 C483 1.369 . S
C481 H492 0.930 . S
C482 C484 1.383 . S
C482 C485 1.382 . S
C482 H493 0.930 . S
C483 C481 1.369 . S
C483 C485 1.392 . S
C483 H494 0.930 . S
C484 C480 1.373 . S
C484 C482 1.383 . S
C484 H495 0.931 . S
C485 C482 1.382 . S
C485 C483 1.392 . S
C486 Eu457 2.828 . S
C486 O470 1.249 . S
C486 O471 1.244 . S
C486 C480 1.505 . S
C487 O474 1.258 . S
C487 O475 1.242 . S
H488 C460 0.930 . S
H489 C461 0.930 . S
H490 C462 0.930 . S
H491 C463 0.931 . S
H492 C481 0.930 . S
H493 C482 0.930 . S
H494 C483 0.930 . S
H495 C484 0.931 . S
Eu496 C505 2.828 . S
Eu496 O507 2.392 . S
Eu496 O509 2.472 . S
Eu496 O514 2.373 . S
Eu496 O517 2.488 . S
Eu496 O518 2.471 . S
Eu496 O519 2.349 . S
Eu497 O506 2.373 . S
Eu497 O510 2.488 1_545 S
Eu497 O511 2.471 1_545 S
Eu497 O512 2.349 . S
Eu497 O515 2.392 . S
Eu497 O516 2.418 . S
Eu497 C526 2.828 1_545 S
C498 O516 1.244 . S
C498 O519 1.265 . S
C499 C500 1.379 . S
C499 C503 1.373 . S
C499 C505 1.505 . S
C500 C499 1.379 . S
C500 C502 1.369 . S
C500 H528 0.930 . S
C501 C503 1.383 . S
C501 C504 1.382 . S
C501 H529 0.930 1_455 S
C502 C500 1.369 . S
C502 C504 1.392 . S
C502 H530 0.930 . S
C503 C499 1.373 . S
C503 C501 1.383 . S
C503 H531 0.953 . S
C504 C501 1.382 . S
C504 C502 1.392 . S
C505 Eu496 2.828 . S
C505 C499 1.505 . S
C505 O517 1.249 . S
C505 O518 1.244 . S
O506 Eu497 2.373 . S
O506 C508 1.258 . S
O507 Eu496 2.392 . S
O507 C508 1.242 . S
C508 O506 1.258 . S
C508 O507 1.242 . S
O509 Eu496 2.472 . S
O509 C513 1.267 . S
O510 Eu497 2.488 1_565 S
O510 C526 1.249 . S
O511 Eu497 2.471 1_565 S
O511 C526 1.244 . S
O512 Eu497 2.349 . S
O512 C513 1.265 . S
C513 O509 1.267 . S
C513 O512 1.265 . S
O514 Eu496 2.373 . S
O514 C527 1.258 . S
O515 Eu497 2.392 . S
O515 C527 1.242 . S
O516 Eu497 2.418 . S
O516 C498 1.244 . S
O517 Eu496 2.488 . S
O517 C505 1.249 . S
O518 Eu496 2.471 . S
O518 C505 1.244 . S
O519 Eu496 2.349 . S
O519 C498 1.265 . S
C520 C521 1.379 . S
C520 C524 1.373 . S
C520 C526 1.505 . S
C521 C520 1.379 . S
C521 C523 1.369 . S
C521 H532 0.930 . S
C522 C524 1.383 . S
C522 C525 1.382 . S
C522 H533 0.930 . S
C523 C521 1.369 . S
C523 C525 1.392 . S
C523 H534 0.930 . S
C524 C520 1.373 . S
C524 C522 1.383 . S
C524 H535 0.931 . S
C525 C522 1.382 . S
C525 C523 1.392 . S
C526 Eu497 2.828 1_565 S
C526 O510 1.249 . S
C526 O511 1.244 . S
C526 C520 1.505 . S
C527 O514 1.258 . S
C527 O515 1.242 . S
H528 C500 0.930 . S
H529 C501 0.930 1_655 S
H530 C502 0.930 . S
H531 C503 0.953 . S
H532 C521 0.930 . S
H533 C522 0.930 . S
H534 C523 0.930 . S
H535 C524 0.931 . S
Eu536 C545 2.828 . S
Eu536 O547 2.392 . S
Eu536 O549 2.418 . S
Eu536 O554 2.373 . S
Eu536 O557 2.488 . S
Eu536 O558 2.471 . S
Eu536 O559 2.349 . S
Eu537 O546 2.373 . S
Eu537 O550 2.488 . S
Eu537 O551 2.471 . S
Eu537 O552 2.349 . S
Eu537 O555 2.392 . S
Eu537 O556 2.418 . S
Eu537 C566 2.828 . S
C538 O556 1.244 . S
C538 O559 1.265 . S
C539 C540 1.379 . S
C539 C543 1.373 . S
C539 C545 1.505 . S
C540 C539 1.379 . S
C540 C542 1.369 . S
C540 H568 0.930 . S
C541 C543 1.383 . S
C541 C544 1.382 . S
C541 H569 0.930 . S
C542 C540 1.369 . S
C542 C544 1.392 . S
C542 H570 0.930 . S
C543 C539 1.373 . S
C543 C541 1.383 . S
C543 H571 0.931 . S
C544 C541 1.382 . S
C544 C542 1.392 . S
C545 Eu536 2.828 . S
C545 C539 1.505 . S
C545 O557 1.249 . S
C545 O558 1.244 . S
O546 Eu537 2.373 . S
O546 C548 1.258 . S
O547 Eu536 2.392 . S
O547 C548 1.242 . S
C548 O546 1.258 . S
C548 O547 1.242 . S
O549 Eu536 2.418 . S
O549 C553 1.244 . S
O550 Eu537 2.488 . S
O550 C566 1.249 . S
O551 Eu537 2.471 . S
O551 C566 1.244 . S
O552 Eu537 2.349 . S
O552 C553 1.265 . S
C553 O549 1.244 . S
C553 O552 1.265 . S
O554 Eu536 2.373 . S
O554 C567 1.258 . S
O555 Eu537 2.392 . S
O555 C567 1.242 . S
O556 Eu537 2.418 . S
O556 C538 1.244 . S
O557 Eu536 2.488 . S
O557 C545 1.249 . S
O558 Eu536 2.471 . S
O558 C545 1.244 . S
O559 Eu536 2.349 . S
O559 C538 1.265 . S
C560 C561 1.379 . S
C560 C564 1.373 . S
C560 C566 1.505 . S
C561 C560 1.379 . S
C561 C563 1.369 . S
C561 H572 0.930 . S
C562 C564 1.383 . S
C562 C565 1.382 . S
C562 H573 0.930 . S
C563 C561 1.369 . S
C563 C565 1.392 . S
C563 H574 0.930 . S
C564 C560 1.373 . S
C564 C562 1.383 . S
C564 H575 0.931 . S
C565 C562 1.382 . S
C565 C563 1.392 . S
C566 Eu537 2.828 . S
C566 O550 1.249 . S
C566 O551 1.244 . S
C566 C560 1.505 . S
C567 O554 1.258 . S
C567 O555 1.242 . S
H568 C540 0.930 . S
H569 C541 0.930 . S
H570 C542 0.930 . S
H571 C543 0.931 . S
H572 C561 0.930 . S
H573 C562 0.930 . S
H574 C563 0.930 . S
H575 C564 0.931 . S
Eu576 C585 2.828 . S
Eu576 O587 2.392 . S
Eu576 O589 2.418 1_545 S
Eu576 O594 2.373 . S
Eu576 O597 2.488 . S
Eu576 O598 2.471 . S
Eu576 O599 2.349 . S
Eu577 O586 2.373 . S
Eu577 O590 2.488 . S
Eu577 O591 2.471 . S
Eu577 O592 2.349 . S
Eu577 O595 2.392 . S
Eu577 O596 2.418 1_556 S
Eu577 C606 2.828 . S
C578 O596 1.244 . S
C578 O599 1.265 . S
C579 C580 1.379 . S
C579 C583 1.373 1_545 S
C579 C585 1.505 . S
C580 C579 1.379 . S
C580 C582 1.369 . S
C580 H608 0.930 . S
C581 C583 1.383 . S
C581 C584 1.382 1_565 S
C581 H609 0.930 . S
C582 C580 1.369 . S
C582 C584 1.392 . S
C582 H610 0.930 . S
C583 C579 1.373 1_565 S
C583 C581 1.383 . S
C583 H611 0.931 . S
C584 C581 1.382 1_545 S
C584 C582 1.392 . S
C585 Eu576 2.828 . S
C585 C579 1.505 . S
C585 O597 1.249 . S
C585 O598 1.244 . S
O586 Eu577 2.373 . S
O586 C588 1.258 1_556 S
O587 Eu576 2.392 . S
O587 C588 1.242 . S
C588 O586 1.258 1_554 S
C588 O587 1.242 . S
O589 Eu576 2.418 1_565 S
O589 C593 1.264 . S
O590 Eu577 2.488 . S
O590 C606 1.249 . S
O591 Eu577 2.471 . S
O591 C606 1.244 . S
O592 Eu577 2.349 . S
O592 C593 1.257 1_546 S
C593 O589 1.264 . S
C593 O592 1.257 1_564 S
O594 Eu576 2.373 . S
O594 C607 1.258 . S
O595 Eu577 2.392 . S
O595 C607 1.242 1_556 S
O596 Eu577 2.418 1_554 S
O596 C578 1.244 . S
O597 Eu576 2.488 . S
O597 C585 1.249 . S
O598 Eu576 2.471 . S
O598 C585 1.244 . S
O599 Eu576 2.349 . S
O599 C578 1.265 . S
C600 C601 1.379 . S
C600 C604 1.373 . S
C600 C606 1.505 . S
C601 C600 1.379 . S
C601 C603 1.369 . S
C601 H612 0.930 . S
C602 C604 1.383 . S
C602 C605 1.382 . S
C602 H613 0.930 . S
C603 C601 1.369 . S
C603 C605 1.392 . S
C603 H614 0.930 . S
C604 C600 1.373 . S
C604 C602 1.383 . S
C604 H615 0.931 . S
C605 C602 1.382 . S
C605 C603 1.392 . S
C606 Eu577 2.828 . S
C606 O590 1.249 . S
C606 O591 1.244 . S
C606 C600 1.505 . S
C607 O594 1.258 . S
C607 O595 1.242 1_554 S
H608 C580 0.930 . S
H609 C581 0.930 . S
H610 C582 0.930 . S
H611 C583 0.931 . S
H612 C601 0.930 . S
H613 C602 0.930 . S
H614 C603 0.930 . S
H615 C604 0.931 . S
Eu616 C625 2.828 . S
Eu616 O627 2.392 . S
Eu616 O629 2.418 . S
Eu616 O634 2.373 . S
Eu616 O637 2.488 . S
Eu616 O638 2.471 . S
Eu616 O639 2.349 . S
Eu617 O626 2.373 . S
Eu617 O630 2.488 . S
Eu617 O631 2.471 . S
Eu617 O632 2.349 . S
Eu617 O635 2.392 . S
Eu617 O636 2.418 . S
Eu617 C646 2.828 . S
C618 O636 1.244 . S
C618 O639 1.265 . S
C619 C620 1.379 . S
C619 C623 1.373 . S
C619 C625 1.505 . S
C620 C619 1.379 . S
C620 C622 1.369 . S
C620 H648 0.930 . S
C621 C623 1.383 . S
C621 C624 1.382 . S
C621 H649 0.930 . S
C622 C620 1.369 . S
C622 C624 1.392 . S
C622 H650 0.930 . S
C623 C619 1.373 . S
C623 C621 1.383 . S
C623 H651 0.931 . S
C624 C621 1.382 . S
C624 C622 1.392 . S
C625 Eu616 2.828 . S
C625 C619 1.505 . S
C625 O637 1.249 . S
C625 O638 1.244 . S
O626 Eu617 2.373 . S
O626 C628 1.258 . S
O627 Eu616 2.392 . S
O627 C628 1.242 . S
C628 O626 1.258 . S
C628 O627 1.242 . S
O629 Eu616 2.418 . S
O629 C633 1.244 . S
O630 Eu617 2.488 . S
O630 C646 1.249 . S
O631 Eu617 2.471 . S
O631 C646 1.244 . S
O632 Eu617 2.349 . S
O632 C633 1.265 . S
C633 O629 1.244 . S
C633 O632 1.265 . S
O634 Eu616 2.373 . S
O634 C647 1.258 . S
O635 Eu617 2.392 . S
O635 C647 1.242 . S
O636 Eu617 2.418 . S
O636 C618 1.244 . S
O637 Eu616 2.488 . S
O637 C625 1.249 . S
O638 Eu616 2.471 . S
O638 C625 1.244 . S
O639 Eu616 2.349 . S
O639 C618 1.265 . S
C640 C641 1.379 . S
C640 C644 1.373 . S
C640 C646 1.505 . S
C641 C640 1.379 . S
C641 C643 1.369 . S
C641 H652 0.930 . S
C642 C644 1.383 . S
C642 C645 1.382 . S
C642 H653 0.930 . S
C643 C641 1.369 . S
C643 C645 1.392 . S
C643 H654 0.930 . S
C644 C640 1.373 . S
C644 C642 1.383 . S
C644 H655 0.931 . S
C645 C642 1.382 . S
C645 C643 1.392 . S
C646 Eu617 2.828 . S
C646 O630 1.249 . S
C646 O631 1.244 . S
C646 C640 1.505 . S
C647 O634 1.258 . S
C647 O635 1.242 . S
H648 C620 0.930 . S
H649 C621 0.930 . S
H650 C622 0.930 . S
H651 C623 0.931 . S
H652 C641 0.930 . S
H653 C642 0.930 . S
H654 C643 0.930 . S
H655 C644 0.931 . S
Eu656 C665 2.828 . S
Eu656 O667 2.392 . S
Eu656 O669 2.418 . S
Eu656 O674 2.373 1_554 S
Eu656 O677 2.488 . S
Eu656 O678 2.471 . S
Eu656 O679 2.349 . S
Eu657 O666 2.407 . S
Eu657 O670 2.502 . S
Eu657 O671 2.494 . S
Eu657 O672 2.361 . S
Eu657 O675 2.362 1_554 S
Eu657 O676 2.414 . S
Eu657 C686 2.848 . S
C658 O676 1.244 . S
C658 O679 1.265 . S
C659 C660 1.379 . S
C659 C663 1.373 . S
C659 C665 1.505 1_556 S
C660 C659 1.379 . S
C660 C662 1.369 . S
C660 H688 0.930 . S
C661 C663 1.383 . S
C661 C664 1.382 . S
C661 H689 0.930 . S
C662 C660 1.369 . S
C662 C664 1.392 . S
C662 H690 0.930 . S
C663 C659 1.373 . S
C663 C661 1.383 . S
C663 H691 0.931 1_556 S
C664 C661 1.382 . S
C664 C662 1.392 . S
C665 Eu656 2.828 . S
C665 C659 1.505 1_554 S
C665 O677 1.249 . S
C665 O678 1.244 . S
O666 Eu657 2.407 . S
O666 C668 1.258 . S
O667 Eu656 2.392 . S
O667 C668 1.242 . S
C668 O666 1.258 . S
C668 O667 1.242 . S
O669 Eu656 2.418 . S
O669 C673 1.244 . S
O670 Eu657 2.502 . S
O670 C686 1.249 . S
O671 Eu657 2.494 . S
O671 C686 1.244 . S
O672 Eu657 2.361 . S
O672 C673 1.265 . S
C673 O669 1.244 . S
C673 O672 1.265 . S
O674 Eu656 2.373 1_556 S
O674 C687 1.258 . S
O675 Eu657 2.362 1_556 S
O675 C687 1.242 . S
O676 Eu657 2.414 . S
O676 C658 1.244 . S
O677 Eu656 2.488 . S
O677 C665 1.249 . S
O678 Eu656 2.471 . S
O678 C665 1.244 . S
O679 Eu656 2.349 . S
O679 C658 1.265 . S
C680 C681 1.379 . S
C680 C684 1.373 . S
C680 C686 1.505 . S
C681 C680 1.379 . S
C681 C683 1.369 . S
C681 H692 0.930 . S
C682 C684 1.383 . S
C682 C685 1.382 . S
C682 H693 0.930 . S
C683 C681 1.369 . S
C683 C685 1.392 . S
C683 H694 0.930 . S
C684 C680 1.373 . S
C684 C682 1.383 . S
C684 H695 0.931 . S
C685 C682 1.382 . S
C685 C683 1.392 . S
C686 Eu657 2.848 . S
C686 O670 1.249 . S
C686 O671 1.244 . S
C686 C680 1.505 . S
C687 O674 1.258 . S
C687 O675 1.242 . S
H688 C660 0.930 . S
H689 C661 0.930 . S
H690 C662 0.930 . S
H691 C663 0.931 1_554 S
H692 C681 0.930 . S
H693 C682 0.930 . S
H694 C683 0.930 . S
H695 C684 0.931 . S
Eu696 C705 2.828 . S
Eu696 O707 2.392 . S
Eu696 O709 2.418 . S
Eu696 O714 2.373 . S
Eu696 O717 2.488 . S
Eu696 O718 2.471 . S
Eu696 O719 2.349 . S
Eu697 O706 2.373 . S
Eu697 O710 2.488 . S
Eu697 O711 2.471 . S
Eu697 O712 2.349 . S
Eu697 O715 2.392 . S
Eu697 O716 2.418 . S
Eu697 C726 2.828 . S
C698 O716 1.244 . S
C698 O719 1.265 . S
C699 C700 1.379 . S
C699 C703 1.373 . S
C699 C705 1.505 . S
C700 C699 1.379 . S
C700 C702 1.369 . S
C700 H728 0.930 . S
C701 C703 1.383 . S
C701 C704 1.382 . S
C701 H729 0.930 . S
C702 C700 1.369 . S
C702 C704 1.392 . S
C702 H730 0.930 . S
C703 C699 1.373 . S
C703 C701 1.383 . S
C703 H731 0.931 . S
C704 C701 1.382 . S
C704 C702 1.392 . S
C705 Eu696 2.828 . S
C705 C699 1.505 . S
C705 O717 1.249 . S
C705 O718 1.244 . S
O706 Eu697 2.373 . S
O706 C708 1.258 . S
O707 Eu696 2.392 . S
O707 C708 1.242 . S
C708 O706 1.258 . S
C708 O707 1.242 . S
O709 Eu696 2.418 . S
O709 C713 1.244 . S
O710 Eu697 2.488 . S
O710 C726 1.249 . S
O711 Eu697 2.471 . S
O711 C726 1.244 . S
O712 Eu697 2.349 . S
O712 C713 1.265 . S
C713 O709 1.244 . S
C713 O712 1.265 . S
O714 Eu696 2.373 . S
O714 C727 1.258 . S
O715 Eu697 2.392 . S
O715 C727 1.242 . S
O716 Eu697 2.418 . S
O716 C698 1.244 . S
O717 Eu696 2.488 . S
O717 C705 1.249 . S
O718 Eu696 2.471 . S
O718 C705 1.244 . S
O719 Eu696 2.349 . S
O719 C698 1.265 . S
C720 C721 1.379 . S
C720 C724 1.373 . S
C720 C726 1.505 . S
C721 C720 1.379 . S
C721 C723 1.369 . S
C721 H732 0.930 . S
C722 C724 1.383 . S
C722 C725 1.382 . S
C722 H733 0.930 . S
C723 C721 1.369 . S
C723 C725 1.392 . S
C723 H734 0.930 . S
C724 C720 1.373 . S
C724 C722 1.383 . S
C724 H735 0.931 . S
C725 C722 1.382 . S
C725 C723 1.392 . S
C726 Eu697 2.828 . S
C726 O710 1.249 . S
C726 O711 1.244 . S
C726 C720 1.505 . S
C727 O714 1.258 . S
C727 O715 1.242 . S
H728 C700 0.930 . S
H729 C701 0.930 . S
H730 C702 0.930 . S
H731 C703 0.931 . S
H732 C721 0.930 . S
H733 C722 0.930 . S
H734 C723 0.930 . S
H735 C724 0.931 . S
Eu736 C745 2.828 . S
Eu736 O747 2.392 . S
Eu736 O749 2.418 . S
Eu736 O754 2.373 . S
Eu736 O757 2.488 . S
Eu736 O758 2.471 . S
Eu736 O759 2.349 . S
Eu737 O746 2.373 . S
Eu737 O750 2.488 . S
Eu737 O751 2.471 . S
Eu737 O752 2.349 . S
Eu737 O755 2.392 . S
Eu737 O756 2.418 . S
Eu737 C766 2.828 . S
C738 O756 1.244 . S
C738 O759 1.265 . S
C739 C740 1.379 1_455 S
C739 C743 1.373 . S
C739 C745 1.505 . S
C740 C739 1.379 1_655 S
C740 C742 1.369 . S
C740 H768 0.930 . S
C741 C743 1.383 1_655 S
C741 C744 1.382 . S
C741 H769 0.941 . S
C742 C740 1.369 . S
C742 C744 1.392 . S
C742 H770 0.930 . S
C743 C739 1.373 . S
C743 C741 1.383 1_455 S
C743 H771 0.931 . S
C744 C741 1.382 . S
C744 C742 1.392 . S
C745 Eu736 2.828 . S
C745 C739 1.505 . S
C745 O757 1.249 . S
C745 O758 1.244 . S
O746 Eu737 2.373 . S
O746 C748 1.258 . S
O747 Eu736 2.392 . S
O747 C748 1.242 . S
C748 O746 1.258 . S
C748 O747 1.242 . S
O749 Eu736 2.418 . S
O749 C753 1.244 . S
O750 Eu737 2.488 . S
O750 C766 1.249 . S
O751 Eu737 2.471 . S
O751 C766 1.244 . S
O752 Eu737 2.349 . S
O752 C753 1.265 . S
C753 O749 1.244 . S
C753 O752 1.265 . S
O754 Eu736 2.373 . S
O754 C767 1.258 1_455 S
O755 Eu737 2.392 . S
O755 C767 1.242 1_455 S
O756 Eu737 2.418 . S
O756 C738 1.244 . S
O757 Eu736 2.488 . S
O757 C745 1.249 . S
O758 Eu736 2.471 . S
O758 C745 1.244 . S
O759 Eu736 2.349 . S
O759 C738 1.265 . S
C760 C761 1.379 . S
C760 C764 1.373 . S
C760 C766 1.505 . S
C761 C760 1.379 . S
C761 C763 1.369 . S
C761 H772 0.930 . S
C762 C764 1.383 . S
C762 C765 1.382 . S
C762 H773 0.930 . S
C763 C761 1.369 . S
C763 C765 1.392 . S
C763 H774 0.930 . S
C764 C760 1.373 . S
C764 C762 1.383 . S
C764 H775 0.931 . S
C765 C762 1.382 . S
C765 C763 1.392 . S
C766 Eu737 2.828 . S
C766 O750 1.249 . S
C766 O751 1.244 . S
C766 C760 1.505 . S
C767 O754 1.258 1_655 S
C767 O755 1.242 1_655 S
H768 C740 0.930 . S
H769 C741 0.941 . S
H770 C742 0.930 . S
H771 C743 0.931 . S
H772 C761 0.930 . S
H773 C762 0.930 . S
H774 C763 0.930 . S
H775 C764 0.931 . S
Eu776 C785 2.828 . S
Eu776 O787 2.392 . S
Eu776 O789 2.418 . S
Eu776 O794 2.373 . S
Eu776 O797 2.488 . S
Eu776 O798 2.471 . S
Eu776 O799 2.349 . S
Eu777 O786 2.373 . S
Eu777 O790 2.488 . S
Eu777 O791 2.471 . S
Eu777 O792 2.349 . S
Eu777 O795 2.392 . S
Eu777 O796 2.418 . S
Eu777 C806 2.828 . S
C778 O796 1.244 . S
C778 O799 1.265 . S
C779 C780 1.379 . S
C779 C783 1.373 . S
C779 C785 1.505 . S
C780 C779 1.379 . S
C780 C782 1.369 . S
C780 H808 0.930 . S
C781 C783 1.383 . S
C781 C784 1.382 . S
C781 H809 0.930 . S
C782 C780 1.369 . S
C782 C784 1.392 . S
C782 H810 0.930 . S
C783 C779 1.373 . S
C783 C781 1.383 . S
C783 H811 0.931 . S
C784 C781 1.382 . S
C784 C782 1.392 . S
C785 Eu776 2.828 . S
C785 C779 1.505 . S
C785 O797 1.249 . S
C785 O798 1.244 . S
O786 Eu777 2.373 . S
O786 C788 1.258 . S
O787 Eu776 2.392 . S
O787 C788 1.242 . S
C788 O786 1.258 . S
C788 O787 1.242 . S
O789 Eu776 2.418 . S
O789 C793 1.244 . S
O790 Eu777 2.488 . S
O790 C806 1.249 . S
O791 Eu777 2.471 . S
O791 C806 1.244 . S
O792 Eu777 2.349 . S
O792 C793 1.265 . S
C793 O789 1.244 . S
C793 O792 1.265 . S
O794 Eu776 2.373 . S
O794 C807 1.258 . S
O795 Eu777 2.392 . S
O795 C807 1.242 . S
O796 Eu777 2.418 . S
O796 C778 1.244 . S
O797 Eu776 2.488 . S
O797 C785 1.249 . S
O798 Eu776 2.471 . S
O798 C785 1.244 . S
O799 Eu776 2.349 . S
O799 C778 1.265 . S
C800 C801 1.379 . S
C800 C804 1.373 . S
C800 C806 1.505 . S
C801 C800 1.379 . S
C801 C803 1.369 . S
C801 H812 0.930 . S
C802 C804 1.383 . S
C802 C805 1.382 . S
C802 H813 0.930 . S
C803 C801 1.369 . S
C803 C805 1.392 . S
C803 H814 0.930 . S
C804 C800 1.373 . S
C804 C802 1.383 . S
C804 H815 0.931 . S
C805 C802 1.382 . S
C805 C803 1.392 . S
C806 Eu777 2.828 . S
C806 O790 1.249 . S
C806 O791 1.244 . S
C806 C800 1.505 . S
C807 O794 1.258 . S
C807 O795 1.242 . S
H808 C780 0.930 . S
H809 C781 0.930 . S
H810 C782 0.930 . S
H811 C783 0.931 . S
H812 C801 0.930 . S
H813 C802 0.930 . S
H814 C803 0.930 . S
H815 C804 0.931 . S
Eu816 C825 2.828 . S
Eu816 O827 2.392 . S
Eu816 O829 2.418 . S
Eu816 O834 2.373 . S
Eu816 O837 2.488 . S
Eu816 O838 2.471 . S
Eu816 O839 2.349 . S
Eu817 O826 2.373 . S
Eu817 O830 2.488 . S
Eu817 O831 2.471 . S
Eu817 O832 2.349 . S
Eu817 O835 2.392 . S
Eu817 O836 2.418 . S
Eu817 C846 2.828 . S
C818 O836 1.244 . S
C818 O839 1.265 . S
C819 C820 1.379 . S
C819 C823 1.373 . S
C819 C825 1.505 . S
C820 C819 1.379 . S
C820 C822 1.369 . S
C820 H848 0.930 . S
C821 C823 1.383 . S
C821 C824 1.382 . S
C821 H849 0.930 . S
C822 C820 1.369 . S
C822 C824 1.392 . S
C822 H850 0.930 . S
C823 C819 1.373 . S
C823 C821 1.383 . S
C823 H851 0.931 . S
C824 C821 1.382 . S
C824 C822 1.392 . S
C825 Eu816 2.828 . S
C825 C819 1.505 . S
C825 O837 1.249 . S
C825 O838 1.244 . S
O826 Eu817 2.373 . S
O826 C828 1.258 . S
O827 Eu816 2.392 . S
O827 C828 1.242 . S
C828 O826 1.258 . S
C828 O827 1.242 . S
O829 Eu816 2.418 . S
O829 C833 1.244 . S
O830 Eu817 2.488 . S
O830 C846 1.249 . S
O831 Eu817 2.471 . S
O831 C846 1.244 . S
O832 Eu817 2.349 . S
O832 C833 1.265 . S
C833 O829 1.244 . S
C833 O832 1.265 . S
O834 Eu816 2.373 . S
O834 C847 1.258 . S
O835 Eu817 2.392 . S
O835 C847 1.242 . S
O836 Eu817 2.418 . S
O836 C818 1.244 . S
O837 Eu816 2.488 . S
O837 C825 1.249 . S
O838 Eu816 2.471 . S
O838 C825 1.244 . S
O839 Eu816 2.349 . S
O839 C818 1.265 . S
C840 C841 1.379 . S
C840 C844 1.373 . S
C840 C846 1.505 . S
C841 C840 1.379 . S
C841 C843 1.369 . S
C841 H852 0.930 . S
C842 C844 1.383 . S
C842 C845 1.382 . S
C842 H853 0.930 . S
C843 C841 1.369 . S
C843 C845 1.392 . S
C843 H854 0.930 . S
C844 C840 1.373 . S
C844 C842 1.383 . S
C844 H855 0.931 . S
C845 C842 1.382 . S
C845 C843 1.392 . S
C846 Eu817 2.828 . S
C846 O830 1.249 . S
C846 O831 1.244 . S
C846 C840 1.505 . S
C847 O834 1.258 . S
C847 O835 1.242 . S
H848 C820 0.930 . S
H849 C821 0.930 . S
H850 C822 0.930 . S
H851 C823 0.931 . S
H852 C841 0.930 . S
H853 C842 0.930 . S
H854 C843 0.930 . S
H855 C844 0.931 . S
Eu856 C865 2.828 . S
Eu856 O867 2.392 . S
Eu856 O869 2.418 . S
Eu856 O874 2.373 . S
Eu856 O877 2.488 . S
Eu856 O878 2.471 . S
Eu856 O879 2.349 . S
Eu857 O866 2.373 . S
Eu857 O870 2.488 . S
Eu857 O871 2.471 . S
Eu857 O872 2.349 . S
Eu857 O875 2.392 . S
Eu857 O876 2.418 . S
Eu857 C886 2.828 . S
C858 O876 1.244 . S
C858 O879 1.265 . S
C859 C860 1.379 . S
C859 C863 1.373 . S
C859 C865 1.505 . S
C860 C859 1.379 . S
C860 C862 1.369 . S
C860 H888 0.930 . S
C861 C863 1.383 . S
C861 C864 1.382 . S
C861 H889 0.930 . S
C862 C860 1.369 . S
C862 C864 1.392 . S
C862 H890 0.930 . S
C863 C859 1.373 . S
C863 C861 1.383 . S
C863 H891 0.931 . S
C864 C861 1.382 . S
C864 C862 1.392 . S
C865 Eu856 2.828 . S
C865 C859 1.505 . S
C865 O877 1.249 . S
C865 O878 1.244 . S
O866 Eu857 2.373 . S
O866 C868 1.258 . S
O867 Eu856 2.392 . S
O867 C868 1.242 . S
C868 O866 1.258 . S
C868 O867 1.242 . S
O869 Eu856 2.418 . S
O869 C873 1.244 . S
O870 Eu857 2.488 . S
O870 C886 1.249 . S
O871 Eu857 2.471 . S
O871 C886 1.244 . S
O872 Eu857 2.349 . S
O872 C873 1.265 . S
C873 O869 1.244 . S
C873 O872 1.265 . S
O874 Eu856 2.373 . S
O874 C887 1.258 . S
O875 Eu857 2.392 . S
O875 C887 1.242 . S
O876 Eu857 2.418 . S
O876 C858 1.244 . S
O877 Eu856 2.488 . S
O877 C865 1.249 . S
O878 Eu856 2.471 . S
O878 C865 1.244 . S
O879 Eu856 2.349 . S
O879 C858 1.265 . S
C880 C881 1.379 . S
C880 C884 1.373 . S
C880 C886 1.505 . S
C881 C880 1.379 . S
C881 C883 1.369 . S
C881 H892 0.930 . S
C882 C884 1.383 . S
C882 C885 1.382 . S
C882 H893 0.930 . S
C883 C881 1.369 . S
C883 C885 1.392 . S
C883 H894 0.930 . S
C884 C880 1.373 . S
C884 C882 1.383 . S
C884 H895 0.931 . S
C885 C882 1.382 . S
C885 C883 1.392 . S
C886 Eu857 2.828 . S
C886 O870 1.249 . S
C886 O871 1.244 . S
C886 C880 1.505 . S
C887 O874 1.258 . S
C887 O875 1.242 . S
H888 C860 0.930 . S
H889 C861 0.930 . S
H890 C862 0.930 . S
H891 C863 0.931 . S
H892 C881 0.930 . S
H893 C882 0.930 . S
H894 C883 0.930 . S
H895 C884 0.931 . S
Eu896 C905 2.828 . S
Eu896 O907 2.392 . S
Eu896 O909 2.418 . S
Eu896 O914 2.373 . S
Eu896 O917 2.488 . S
Eu896 O918 2.471 . S
Eu896 O919 2.349 . S
Eu897 O906 2.373 . S
Eu897 O910 2.488 . S
Eu897 O911 2.471 . S
Eu897 O912 2.349 . S
Eu897 O915 2.392 . S
Eu897 O916 2.418 . S
Eu897 C926 2.828 . S
C898 O916 1.244 . S
C898 O919 1.265 . S
C899 C900 1.379 . S
C899 C903 1.373 . S
C899 C905 1.505 . S
C900 C899 1.379 . S
C900 C902 1.369 . S
C900 H928 0.930 . S
C901 C903 1.383 . S
C901 C904 1.382 . S
C901 H929 0.930 . S
C902 C900 1.369 . S
C902 C904 1.392 . S
C902 H930 0.930 . S
C903 C899 1.373 . S
C903 C901 1.383 . S
C903 H931 0.931 . S
C904 C901 1.382 . S
C904 C902 1.392 . S
C905 Eu896 2.828 . S
C905 C899 1.505 . S
C905 O917 1.249 . S
C905 O918 1.244 . S
O906 Eu897 2.373 . S
O906 C908 1.258 . S
O907 Eu896 2.392 . S
O907 C908 1.242 . S
C908 O906 1.258 . S
C908 O907 1.242 . S
O909 Eu896 2.418 . S
O909 C913 1.244 . S
O910 Eu897 2.488 . S
O910 C926 1.249 . S
O911 Eu897 2.471 . S
O911 C926 1.244 . S
O912 Eu897 2.349 . S
O912 C913 1.265 . S
C913 O909 1.244 . S
C913 O912 1.265 . S
O914 Eu896 2.373 . S
O914 C927 1.258 . S
O915 Eu897 2.392 . S
O915 C927 1.242 . S
O916 Eu897 2.418 . S
O916 C898 1.244 . S
O917 Eu896 2.488 . S
O917 C905 1.249 . S
O918 Eu896 2.471 . S
O918 C905 1.244 . S
O919 Eu896 2.349 . S
O919 C898 1.265 . S
C920 C921 1.379 . S
C920 C924 1.373 . S
C920 C926 1.505 . S
C921 C920 1.379 . S
C921 C923 1.369 . S
C921 H932 0.930 . S
C922 C924 1.383 . S
C922 C925 1.382 . S
C922 H933 0.930 . S
C923 C921 1.369 . S
C923 C925 1.392 . S
C923 H934 0.930 . S
C924 C920 1.373 . S
C924 C922 1.383 . S
C924 H935 0.931 . S
C925 C922 1.382 . S
C925 C923 1.392 . S
C926 Eu897 2.828 . S
C926 O910 1.249 . S
C926 O911 1.244 . S
C926 C920 1.505 . S
C927 O914 1.258 . S
C927 O915 1.242 . S
H928 C900 0.930 . S
H929 C901 0.930 . S
H930 C902 0.930 . S
H931 C903 0.931 . S
H932 C921 0.930 . S
H933 C922 0.930 . S
H934 C923 0.930 . S
H935 C924 0.931 . S
Eu936 C945 2.828 1_554 S
Eu936 O947 2.392 . S
Eu936 O949 2.418 1_554 S
Eu936 O954 2.373 1_554 S
Eu936 O957 2.488 1_554 S
Eu936 O958 2.471 . S
Eu936 O959 2.349 . S
Eu937 O946 2.373 . S
Eu937 O950 2.488 1_455 S
Eu937 O951 2.471 1_455 S
Eu937 O952 2.349 1_554 S
Eu937 O955 2.392 . S
Eu937 O956 2.418 . S
Eu937 C966 2.828 1_455 S
C938 O956 1.244 . S
C938 O959 1.265 . S
C939 C940 1.379 1_556 S
C939 C943 1.373 . S
C939 C945 1.505 . S
C940 C939 1.379 1_554 S
C940 C942 1.369 . S
C940 H968 0.930 . S
C941 C943 1.383 . S
C941 C944 1.382 . S
C941 H969 0.930 . S
C942 C940 1.369 . S
C942 C944 1.392 1_554 S
C942 H970 0.930 . S
C943 C939 1.373 . S
C943 C941 1.383 . S
C943 H971 0.931 . S
C944 C941 1.382 . S
C944 C942 1.392 1_556 S
C945 Eu936 2.828 1_556 S
C945 C939 1.505 . S
C945 O957 1.249 . S
C945 O958 1.244 1_556 S
O946 Eu937 2.373 . S
O946 C948 1.258 . S
O947 Eu936 2.392 . S
O947 C948 1.242 . S
C948 O946 1.258 . S
C948 O947 1.242 . S
O949 Eu936 2.418 1_556 S
O949 C953 1.244 . S
O950 Eu937 2.488 1_655 S
O950 C966 1.249 . S
O951 Eu937 2.471 1_655 S
O951 C966 1.244 . S
O952 Eu937 2.349 1_556 S
O952 C953 1.265 . S
C953 O949 1.244 . S
C953 O952 1.265 . S
O954 Eu936 2.373 1_556 S
O954 C967 1.258 1_556 S
O955 Eu937 2.392 . S
O955 C967 1.242 . S
O956 Eu937 2.418 . S
O956 C938 1.244 . S
O957 Eu936 2.488 1_556 S
O957 C945 1.249 . S
O958 Eu936 2.471 . S
O958 C945 1.244 1_554 S
O959 Eu936 2.349 . S
O959 C938 1.265 . S
C960 C961 1.379 . S
C960 C964 1.373 . S
C960 C966 1.505 . S
C961 C960 1.379 . S
C961 C963 1.369 . S
C961 H972 0.930 . S
C962 C964 1.383 . S
C962 C965 1.382 . S
C962 H973 0.930 . S
C963 C961 1.369 . S
C963 C965 1.392 . S
C963 H974 0.930 . S
C964 C960 1.373 . S
C964 C962 1.383 . S
C964 H975 0.931 . S
C965 C962 1.382 . S
C965 C963 1.392 . S
C966 Eu937 2.828 1_655 S
C966 O950 1.249 . S
C966 O951 1.244 . S
C966 C960 1.505 . S
C967 O954 1.258 1_554 S
C967 O955 1.242 . S
H968 C940 0.930 . S
H969 C941 0.930 . S
H970 C942 0.930 . S
H971 C943 0.931 . S
H972 C961 0.930 . S
H973 C962 0.930 . S
H974 C963 0.930 . S
H975 C964 0.931 . S
H976 C984 0.929 . S
H977 C986 0.930 . S
H978 C988 0.930 . S
H979 C991 0.929 . S
H980 C994 0.930 . S
H981 C996 0.960 . S
H982 C996 0.931 1_655 S
H983 C996 0.960 . S
C984 H976 0.929 . S
C984 C985 1.377 1_655 S
C984 C986 1.384 . S
C985 C984 1.377 1_455 S
C985 C991 1.390 . S
C986 H977 0.930 . S
C986 C984 1.384 . S
C986 C987 1.372 1_655 S
C987 C986 1.372 1_455 S
C987 C988 1.400 . S
C987 C992 1.490 . S
C988 H978 0.930 . S
C988 C987 1.400 . S
C988 C991 1.386 . S
H989 C1005 0.930 . S
H990 C1006 0.931 . S
C991 H979 0.929 . S
C991 C985 1.390 . S
C991 C988 1.386 . S
C992 C987 1.490 . S
C992 C994 1.395 . S
C992 C995 1.403 . S
H993 C999 0.930 . S
C994 H980 0.930 . S
C994 C992 1.395 . S
C994 C997 1.403 . S
C995 C992 1.403 . S
C995 C996 1.524 . S
C995 C999 1.400 . S
C996 H981 0.960 . S
C996 H982 0.931 1_455 S
C996 H983 0.960 . S
C996 C995 1.524 . S
C997 C994 1.403 . S
C997 C998 1.392 . S
C997 C1001 1.495 . S
C998 C997 1.392 . S
C998 C999 1.385 . S
C998 C1000 1.478 . S
C999 H993 0.930 . S
C999 C995 1.400 . S
C999 C998 1.385 . S
C1000 C998 1.478 . S
C1000 C1002 1.381 . S
C1000 C1006 1.383 . S
C1001 C997 1.495 . S
C1001 H1007 0.959 . S
C1001 H1008 0.961 . S
C1001 H1009 0.960 . S
C1002 C1000 1.381 . S
C1002 C1003 1.394 . S
C1002 H1010 0.933 1_455 S
C1003 C1002 1.394 . S
C1003 C1004 1.383 . S
C1003 H1011 0.929 . S
C1004 C1003 1.383 . S
C1004 C1005 1.377 . S
C1005 H989 0.930 . S
C1005 C1004 1.377 . S
C1005 C1006 1.379 . S
C1006 H990 0.931 . S
C1006 C1000 1.383 . S
C1006 C1005 1.379 . S
H1007 C1001 0.959 . S
H1008 C1001 0.961 . S
H1009 C1001 0.960 . S
H1010 C1002 0.933 1_655 S
H1011 C1003 0.929 . S
H1012 C1020 0.929 . S
H1013 C1022 0.930 . S
H1014 C1024 0.930 . S
H1015 C1027 0.929 . S
H1016 C1030 0.930 . S
H1017 C1032 0.960 . S
H1018 C1032 0.960 . S
H1019 C1032 0.960 . S
C1020 H1012 0.929 . S
C1020 C1021 1.377 . S
C1020 C1022 1.384 . S
C1021 C1020 1.377 . S
C1021 C1027 1.390 . S
C1022 H1013 0.930 . S
C1022 C1020 1.384 . S
C1022 C1023 1.372 . S
C1023 C1022 1.372 . S
C1023 C1024 1.400 . S
C1023 C1028 1.490 . S
C1024 H1014 0.930 . S
C1024 C1023 1.400 . S
C1024 C1027 1.386 . S
H1025 C1041 0.930 . S
H1026 C1042 0.931 . S
C1027 H1015 0.929 . S
C1027 C1021 1.390 . S
C1027 C1024 1.386 . S
C1028 C1023 1.490 . S
C1028 C1030 1.395 . S
C1028 C1031 1.403 . S
H1029 C1035 0.930 . S
C1030 H1016 0.930 . S
C1030 C1028 1.395 . S
C1030 C1033 1.403 . S
C1031 C1028 1.403 . S
C1031 C1032 1.524 . S
C1031 C1035 1.400 . S
C1032 H1017 0.960 . S
C1032 H1018 0.960 . S
C1032 H1019 0.960 . S
C1032 C1031 1.524 . S
C1033 C1030 1.403 . S
C1033 C1034 1.392 . S
C1033 C1037 1.495 . S
C1034 C1033 1.392 . S
C1034 C1035 1.385 . S
C1034 C1036 1.478 . S
C1035 H1029 0.930 . S
C1035 C1031 1.400 . S
C1035 C1034 1.385 . S
C1036 C1034 1.478 . S
C1036 C1038 1.381 . S
C1036 C1042 1.383 . S
C1037 C1033 1.495 . S
C1037 H1043 0.959 . S
C1037 H1044 0.961 . S
C1037 H1045 0.960 . S
C1038 C1036 1.381 . S
C1038 C1039 1.394 . S
C1038 H1046 0.930 . S
C1039 C1038 1.394 . S
C1039 C1040 1.383 . S
C1039 H1047 0.929 . S
C1040 C1039 1.383 . S
C1040 C1041 1.377 . S
C1041 H1025 0.930 . S
C1041 C1040 1.377 . S
C1041 C1042 1.379 . S
C1042 H1026 0.931 . S
C1042 C1036 1.383 . S
C1042 C1041 1.379 . S
H1043 C1037 0.959 . S
H1044 C1037 0.961 . S
H1045 C1037 0.960 . S
H1046 C1038 0.930 . S
H1047 C1039 0.929 . S
H1048 C1056 0.929 . S
H1049 C1058 0.930 . S
H1050 C1060 0.930 . S
H1051 C1063 0.929 . S
H1052 C1066 0.930 . S
H1053 C1068 0.960 . S
H1054 C1068 0.960 . S
H1055 C1068 0.960 . S
C1056 H1048 0.929 . S
C1056 C1057 1.377 . S
C1056 C1058 1.384 . S
C1057 C1056 1.377 . S
C1057 C1063 1.390 . S
C1058 H1049 0.930 . S
C1058 C1056 1.384 . S
C1058 C1059 1.372 . S
C1059 C1058 1.372 . S
C1059 C1060 1.400 . S
C1059 C1064 1.490 . S
C1060 H1050 0.930 . S
C1060 C1059 1.400 . S
C1060 C1063 1.386 . S
H1061 C1077 0.930 . S
H1062 C1078 0.931 . S
C1063 H1051 0.929 . S
C1063 C1057 1.390 . S
C1063 C1060 1.386 . S
C1064 C1059 1.490 . S
C1064 C1066 1.395 . S
C1064 C1067 1.403 . S
H1065 C1071 0.930 . S
C1066 H1052 0.930 . S
C1066 C1064 1.395 . S
C1066 C1069 1.403 . S
C1067 C1064 1.403 . S
C1067 C1068 1.524 . S
C1067 C1071 1.400 . S
C1068 H1053 0.960 . S
C1068 H1054 0.960 . S
C1068 H1055 0.960 . S
C1068 C1067 1.524 . S
C1069 C1066 1.403 . S
C1069 C1070 1.392 . S
C1069 C1073 1.495 . S
C1070 C1069 1.392 . S
C1070 C1071 1.385 . S
C1070 C1072 1.478 . S
C1071 H1065 0.930 . S
C1071 C1067 1.400 . S
C1071 C1070 1.385 . S
C1072 C1070 1.478 . S
C1072 C1074 1.381 . S
C1072 C1078 1.383 . S
C1073 C1069 1.495 . S
C1073 H1079 0.959 . S
C1073 H1080 0.961 . S
C1073 H1081 0.960 . S
C1074 C1072 1.381 . S
C1074 C1075 1.394 . S
C1074 H1082 0.930 . S
C1075 C1074 1.394 . S
C1075 C1076 1.383 . S
C1075 H1083 0.929 . S
C1076 C1075 1.383 . S
C1076 C1077 1.377 . S
C1077 H1061 0.930 . S
C1077 C1076 1.377 . S
C1077 C1078 1.379 . S
C1078 H1062 0.931 . S
C1078 C1072 1.383 . S
C1078 C1077 1.379 . S
H1079 C1073 0.959 . S
H1080 C1073 0.961 . S
H1081 C1073 0.960 . S
H1082 C1074 0.930 . S
H1083 C1075 0.929 . S
H1084 C1092 0.929 . S
H1085 C1094 0.930 . S
H1086 C1096 0.930 . S
H1087 C1099 0.929 . S
H1088 C1102 0.930 . S
H1089 C1104 0.960 . S
H1090 C1104 0.960 . S
H1091 C1104 0.960 . S
C1092 H1084 0.929 . S
C1092 C1093 1.377 . S
C1092 C1094 1.384 . S
C1093 C1092 1.377 . S
C1093 C1099 1.390 . S
C1094 H1085 0.930 . S
C1094 C1092 1.384 . S
C1094 C1095 1.372 . S
C1095 C1094 1.372 . S
C1095 C1096 1.400 . S
C1095 C1100 1.490 . S
C1096 H1086 0.930 . S
C1096 C1095 1.400 . S
C1096 C1099 1.386 . S
H1097 C1113 0.930 . S
H1098 C1114 0.931 . S
C1099 H1087 0.929 . S
C1099 C1093 1.390 . S
C1099 C1096 1.386 . S
C1100 C1095 1.490 . S
C1100 C1102 1.395 . S
C1100 C1103 1.403 . S
H1101 C1107 0.930 . S
C1102 H1088 0.930 . S
C1102 C1100 1.395 . S
C1102 C1105 1.403 . S
C1103 C1100 1.403 . S
C1103 C1104 1.524 . S
C1103 C1107 1.400 . S
C1104 H1089 0.960 . S
C1104 H1090 0.960 . S
C1104 H1091 0.960 . S
C1104 C1103 1.524 . S
C1105 C1102 1.403 . S
C1105 C1106 1.392 . S
C1105 C1109 1.495 . S
C1106 C1105 1.392 . S
C1106 C1107 1.385 . S
C1106 C1108 1.478 . S
C1107 H1101 0.930 . S
C1107 C1103 1.400 . S
C1107 C1106 1.385 . S
C1108 C1106 1.478 . S
C1108 C1110 1.381 . S
C1108 C1114 1.383 . S
C1109 C1105 1.495 . S
C1109 H1115 0.959 . S
C1109 H1116 0.961 . S
C1109 H1117 0.960 . S
C1110 C1108 1.381 . S
C1110 C1111 1.394 . S
C1110 H1118 0.930 . S
C1111 C1110 1.394 . S
C1111 C1112 1.383 . S
C1111 H1119 0.929 . S
C1112 C1111 1.383 . S
C1112 C1113 1.377 . S
C1113 H1097 0.930 . S
C1113 C1112 1.377 . S
C1113 C1114 1.379 . S
C1114 H1098 0.931 . S
C1114 C1108 1.383 . S
C1114 C1113 1.379 . S
H1115 C1109 0.959 . S
H1116 C1109 0.961 . S
H1117 C1109 0.960 . S
H1118 C1110 0.930 . S
H1119 C1111 0.929 . S
H1120 C1128 0.929 . S
H1121 C1130 0.930 1_655 S
H1122 C1132 0.930 . S
H1123 C1135 0.929 . S
H1124 C1138 0.926 . S
H1125 C1140 0.960 . S
H1126 C1140 0.960 . S
H1127 C1140 0.960 . S
C1128 H1120 0.929 . S
C1128 C1129 1.377 1_655 S
C1128 C1130 1.384 1_655 S
C1129 C1128 1.377 1_455 S
C1129 C1135 1.390 . S
C1130 H1121 0.930 1_455 S
C1130 C1128 1.384 1_455 S
C1130 C1131 1.372 . S
C1131 C1130 1.372 . S
C1131 C1132 1.400 . S
C1131 C1136 1.490 . S
C1132 H1122 0.930 . S
C1132 C1131 1.400 . S
C1132 C1135 1.386 . S
H1133 C1149 0.930 . S
H1134 C1150 0.931 . S
C1135 H1123 0.929 . S
C1135 C1129 1.390 . S
C1135 C1132 1.386 . S
C1136 C1131 1.490 . S
C1136 C1138 1.395 . S
C1136 C1139 1.403 . S
H1137 C1143 0.930 . S
C1138 H1124 0.926 . S
C1138 C1136 1.395 . S
C1138 C1141 1.403 . S
C1139 C1136 1.403 . S
C1139 C1140 1.524 . S
C1139 C1143 1.400 . S
C1140 H1125 0.960 . S
C1140 H1126 0.960 . S
C1140 H1127 0.960 . S
C1140 C1139 1.524 . S
C1141 C1138 1.403 . S
C1141 C1142 1.392 . S
C1141 C1145 1.495 . S
C1142 C1141 1.392 . S
C1142 C1143 1.385 . S
C1142 C1144 1.478 . S
C1143 H1137 0.930 . S
C1143 C1139 1.400 . S
C1143 C1142 1.385 . S
C1144 C1142 1.478 . S
C1144 C1146 1.381 . S
C1144 C1150 1.383 . S
C1145 C1141 1.495 . S
C1145 H1151 0.959 1_455 S
C1145 H1152 0.961 . S
C1145 H1153 0.956 1_455 S
C1146 C1144 1.381 . S
C1146 C1147 1.394 . S
C1146 H1154 0.930 . S
C1147 C1146 1.394 . S
C1147 C1148 1.383 . S
C1147 H1155 0.929 . S
C1148 C1147 1.383 . S
C1148 C1149 1.377 . S
C1149 H1133 0.930 . S
C1149 C1148 1.377 . S
C1149 C1150 1.379 . S
C1150 H1134 0.931 . S
C1150 C1144 1.383 . S
C1150 C1149 1.379 . S
H1151 C1145 0.959 1_655 S
H1152 C1145 0.961 . S
H1153 C1145 0.956 1_655 S
H1154 C1146 0.930 . S
H1155 C1147 0.929 . S
H1156 C1164 0.929 . S
H1157 C1166 0.930 . S
H1158 C1168 0.930 . S
H1159 C1171 0.929 . S
H1160 C1174 0.930 . S
H1161 C1176 0.960 . S
H1162 C1176 0.960 . S
H1163 C1176 0.960 . S
C1164 H1156 0.929 . S
C1164 C1165 1.377 . S
C1164 C1166 1.384 . S
C1165 C1164 1.377 . S
C1165 C1171 1.390 . S
C1166 H1157 0.930 . S
C1166 C1164 1.384 . S
C1166 C1167 1.372 . S
C1167 C1166 1.372 . S
C1167 C1168 1.400 . S
C1167 C1172 1.490 . S
C1168 H1158 0.930 . S
C1168 C1167 1.400 . S
C1168 C1171 1.386 . S
H1169 C1185 0.930 . S
H1170 C1186 0.931 . S
C1171 H1159 0.929 . S
C1171 C1165 1.390 . S
C1171 C1168 1.386 . S
C1172 C1167 1.490 . S
C1172 C1174 1.395 . S
C1172 C1175 1.403 . S
H1173 C1179 0.930 . S
C1174 H1160 0.930 . S
C1174 C1172 1.395 . S
C1174 C1177 1.403 . S
C1175 C1172 1.403 . S
C1175 C1176 1.524 . S
C1175 C1179 1.400 . S
C1176 H1161 0.960 . S
C1176 H1162 0.960 . S
C1176 H1163 0.960 . S
C1176 C1175 1.524 . S
C1177 C1174 1.403 . S
C1177 C1178 1.392 . S
C1177 C1181 1.495 . S
C1178 C1177 1.392 . S
C1178 C1179 1.385 . S
C1178 C1180 1.478 . S
C1179 H1173 0.930 . S
C1179 C1175 1.400 . S
C1179 C1178 1.385 . S
C1180 C1178 1.478 . S
C1180 C1182 1.381 . S
C1180 C1186 1.383 . S
C1181 C1177 1.495 . S
C1181 H1187 0.959 . S
C1181 H1188 0.961 . S
C1181 H1189 0.960 . S
C1182 C1180 1.381 . S
C1182 C1183 1.394 . S
C1182 H1190 0.930 . S
C1183 C1182 1.394 . S
C1183 C1184 1.383 . S
C1183 H1191 0.929 . S
C1184 C1183 1.383 . S
C1184 C1185 1.377 . S
C1185 H1169 0.930 . S
C1185 C1184 1.377 . S
C1185 C1186 1.379 . S
C1186 H1170 0.931 . S
C1186 C1180 1.383 . S
C1186 C1185 1.379 . S
H1187 C1181 0.959 . S
H1188 C1181 0.961 . S
H1189 C1181 0.960 . S
H1190 C1182 0.930 . S
H1191 C1183 0.929 . S
H1192 C1200 0.929 . S
H1193 C1202 0.930 . S
H1194 C1204 0.930 . S
H1195 C1207 0.929 . S
H1196 C1210 0.930 . S
H1197 C1212 0.960 . S
H1198 C1212 0.960 . S
H1199 C1212 0.960 . S
C1200 H1192 0.929 . S
C1200 C1201 1.377 . S
C1200 C1202 1.384 . S
C1201 C1200 1.377 . S
C1201 C1207 1.390 . S
C1202 H1193 0.930 . S
C1202 C1200 1.384 . S
C1202 C1203 1.372 . S
C1203 C1202 1.372 . S
C1203 C1204 1.400 . S
C1203 C1208 1.490 . S
C1204 H1194 0.930 . S
C1204 C1203 1.400 . S
C1204 C1207 1.386 . S
H1205 C1221 0.930 . S
H1206 C1222 0.931 . S
C1207 H1195 0.929 . S
C1207 C1201 1.390 . S
C1207 C1204 1.386 . S
C1208 C1203 1.490 . S
C1208 C1210 1.395 . S
C1208 C1211 1.403 . S
H1209 C1215 0.930 . S
C1210 H1196 0.930 . S
C1210 C1208 1.395 . S
C1210 C1213 1.403 . S
C1211 C1208 1.403 . S
C1211 C1212 1.524 . S
C1211 C1215 1.400 . S
C1212 H1197 0.960 . S
C1212 H1198 0.960 . S
C1212 H1199 0.960 . S
C1212 C1211 1.524 . S
C1213 C1210 1.403 . S
C1213 C1214 1.392 . S
C1213 C1217 1.495 . S
C1214 C1213 1.392 . S
C1214 C1215 1.385 . S
C1214 C1216 1.478 . S
C1215 H1209 0.930 . S
C1215 C1211 1.400 . S
C1215 C1214 1.385 . S
C1216 C1214 1.478 . S
C1216 C1218 1.381 . S
C1216 C1222 1.383 . S
C1217 C1213 1.495 . S
C1217 H1223 0.959 . S
C1217 H1224 0.961 . S
C1217 H1225 0.960 . S
C1218 C1216 1.381 . S
C1218 C1219 1.394 . S
C1218 H1226 0.930 . S
C1219 C1218 1.394 . S
C1219 C1220 1.383 . S
C1219 H1227 0.929 . S
C1220 C1219 1.383 . S
C1220 C1221 1.377 . S
C1221 H1205 0.930 . S
C1221 C1220 1.377 . S
C1221 C1222 1.379 . S
C1222 H1206 0.931 . S
C1222 C1216 1.383 . S
C1222 C1221 1.379 . S
H1223 C1217 0.959 . S
H1224 C1217 0.961 . S
H1225 C1217 0.960 . S
H1226 C1218 0.930 . S
H1227 C1219 0.929 . S
H1228 C1236 0.929 . S
H1229 C1238 0.930 . S
H1230 C1240 0.930 . S
H1231 C1243 0.929 . S
H1232 C1246 0.930 . S
H1233 C1248 0.960 . S
H1234 C1248 0.960 . S
H1235 C1248 0.960 . S
C1236 H1228 0.929 . S
C1236 C1237 1.377 . S
C1236 C1238 1.384 . S
C1237 C1236 1.377 . S
C1237 C1243 1.390 . S
C1238 H1229 0.930 . S
C1238 C1236 1.384 . S
C1238 C1239 1.372 . S
C1239 C1238 1.372 . S
C1239 C1240 1.400 . S
C1239 C1244 1.490 . S
C1240 H1230 0.930 . S
C1240 C1239 1.400 . S
C1240 C1243 1.386 . S
H1241 C1257 0.930 . S
H1242 C1258 0.931 . S
C1243 H1231 0.929 . S
C1243 C1237 1.390 . S
C1243 C1240 1.386 . S
C1244 C1239 1.490 . S
C1244 C1246 1.395 . S
C1244 C1247 1.403 . S
H1245 C1251 0.930 . S
C1246 H1232 0.930 . S
C1246 C1244 1.395 . S
C1246 C1249 1.403 . S
C1247 C1244 1.403 . S
C1247 C1248 1.524 . S
C1247 C1251 1.400 . S
C1248 H1233 0.960 . S
C1248 H1234 0.960 . S
C1248 H1235 0.960 . S
C1248 C1247 1.524 . S
C1249 C1246 1.403 . S
C1249 C1250 1.392 . S
C1249 C1253 1.495 . S
C1250 C1249 1.392 . S
C1250 C1251 1.385 . S
C1250 C1252 1.478 . S
C1251 H1245 0.930 . S
C1251 C1247 1.400 . S
C1251 C1250 1.385 . S
C1252 C1250 1.478 . S
C1252 C1254 1.381 . S
C1252 C1258 1.383 . S
C1253 C1249 1.495 . S
C1253 H1259 0.959 . S
C1253 H1260 0.961 . S
C1253 H1261 0.960 . S
C1254 C1252 1.381 . S
C1254 C1255 1.394 . S
C1254 H1262 0.930 . S
C1255 C1254 1.394 . S
C1255 C1256 1.383 . S
C1255 H1263 0.929 . S
C1256 C1255 1.383 . S
C1256 C1257 1.377 . S
C1257 H1241 0.930 . S
C1257 C1256 1.377 . S
C1257 C1258 1.379 . S
C1258 H1242 0.931 . S
C1258 C1252 1.383 . S
C1258 C1257 1.379 . S
H1259 C1253 0.959 . S
H1260 C1253 0.961 . S
H1261 C1253 0.960 . S
H1262 C1254 0.930 . S
H1263 C1255 0.929 . S
H1264 C1272 0.929 . S
H1265 C1274 0.930 . S
H1266 C1276 0.930 . S
H1267 C1279 0.929 . S
H1268 C1282 0.930 . S
H1269 C1284 0.960 . S
H1270 C1284 0.960 . S
H1271 C1284 0.960 . S
C1272 H1264 0.929 . S
C1272 C1273 1.377 . S
C1272 C1274 1.384 . S
C1273 C1272 1.377 . S
C1273 C1279 1.390 . S
C1274 H1265 0.930 . S
C1274 C1272 1.384 . S
C1274 C1275 1.372 . S
C1275 C1274 1.372 . S
C1275 C1276 1.400 . S
C1275 C1280 1.490 . S
C1276 H1266 0.930 . S
C1276 C1275 1.400 . S
C1276 C1279 1.386 . S
H1277 C1293 0.930 . S
H1278 C1294 0.931 . S
C1279 H1267 0.929 . S
C1279 C1273 1.390 . S
C1279 C1276 1.386 . S
C1280 C1275 1.490 . S
C1280 C1282 1.395 . S
C1280 C1283 1.403 . S
H1281 C1287 0.930 . S
C1282 H1268 0.930 . S
C1282 C1280 1.395 . S
C1282 C1285 1.403 . S
C1283 C1280 1.403 . S
C1283 C1284 1.524 . S
C1283 C1287 1.400 . S
C1284 H1269 0.960 . S
C1284 H1270 0.960 . S
C1284 H1271 0.960 . S
C1284 C1283 1.524 . S
C1285 C1282 1.403 . S
C1285 C1286 1.392 . S
C1285 C1289 1.495 . S
C1286 C1285 1.392 . S
C1286 C1287 1.385 . S
C1286 C1288 1.472 1_655 S
C1287 H1281 0.930 . S
C1287 C1283 1.400 . S
C1287 C1286 1.385 . S
C1288 C1286 1.472 1_455 S
C1288 C1290 1.377 1_455 S
C1288 C1294 1.392 . S
C1289 C1285 1.495 . S
C1289 H1295 0.959 . S
C1289 H1296 0.961 . S
C1289 H1297 0.960 . S
C1290 C1288 1.377 1_655 S
C1290 C1291 1.394 . S
C1290 H1298 0.930 . S
C1291 C1290 1.394 . S
C1291 C1292 1.383 1_655 S
C1291 H1299 0.929 . S
C1292 C1291 1.383 1_455 S
C1292 C1293 1.377 . S
C1293 H1277 0.930 . S
C1293 C1292 1.377 . S
C1293 C1294 1.379 . S
C1294 H1278 0.931 . S
C1294 C1288 1.392 . S
C1294 C1293 1.379 . S
H1295 C1289 0.959 . S
H1296 C1289 0.961 . S
H1297 C1289 0.960 . S
H1298 C1290 0.930 . S
H1299 C1291 0.929 . S
H1300 C1308 0.929 . S
H1301 C1310 0.930 . S
H1302 C1312 0.930 . S
H1303 C1315 0.929 . S
H1304 C1318 0.930 . S
H1305 C1320 0.960 . S
H1306 C1320 0.960 . S
H1307 C1320 0.960 . S
C1308 H1300 0.929 . S
C1308 C1309 1.377 . S
C1308 C1310 1.384 . S
C1309 C1308 1.377 . S
C1309 C1315 1.390 . S
C1310 H1301 0.930 . S
C1310 C1308 1.384 . S
C1310 C1311 1.372 . S
C1311 C1310 1.372 . S
C1311 C1312 1.400 . S
C1311 C1316 1.490 . S
C1312 H1302 0.930 . S
C1312 C1311 1.400 . S
C1312 C1315 1.386 . S
H1313 C1329 0.930 . S
H1314 C1330 0.931 . S
C1315 H1303 0.929 . S
C1315 C1309 1.390 . S
C1315 C1312 1.386 . S
C1316 C1311 1.490 . S
C1316 C1318 1.395 . S
C1316 C1319 1.403 . S
H1317 C1323 0.930 . S
C1318 H1304 0.930 . S
C1318 C1316 1.395 . S
C1318 C1321 1.403 . S
C1319 C1316 1.403 . S
C1319 C1320 1.524 . S
C1319 C1323 1.400 . S
C1320 H1305 0.960 . S
C1320 H1306 0.960 . S
C1320 H1307 0.960 . S
C1320 C1319 1.524 . S
C1321 C1318 1.403 . S
C1321 C1322 1.392 . S
C1321 C1325 1.495 . S
C1322 C1321 1.392 . S
C1322 C1323 1.385 . S
C1322 C1324 1.478 . S
C1323 H1317 0.930 . S
C1323 C1319 1.400 . S
C1323 C1322 1.385 . S
C1324 C1322 1.478 . S
C1324 C1326 1.381 . S
C1324 C1330 1.383 . S
C1325 C1321 1.495 . S
C1325 H1331 0.959 . S
C1325 H1332 0.961 . S
C1325 H1333 0.960 . S
C1326 C1324 1.381 . S
C1326 C1327 1.394 . S
C1326 H1334 0.930 . S
C1327 C1326 1.394 . S
C1327 C1328 1.383 . S
C1327 H1335 0.929 . S
C1328 C1327 1.383 . S
C1328 C1329 1.377 . S
C1329 H1313 0.930 . S
C1329 C1328 1.377 . S
C1329 C1330 1.379 . S
C1330 H1314 0.931 . S
C1330 C1324 1.383 . S
C1330 C1329 1.379 . S
H1331 C1325 0.959 . S
H1332 C1325 0.961 . S
H1333 C1325 0.960 . S
H1334 C1326 0.930 . S
H1335 C1327 0.929 . S
H1336 C1344 0.929 . S
H1337 C1346 0.930 . S
H1338 C1348 0.930 . S
H1339 C1351 0.929 . S
H1340 C1354 0.930 . S
H1341 C1356 0.960 . S
H1342 C1356 0.960 . S
H1343 C1356 0.960 . S
C1344 H1336 0.929 . S
C1344 C1345 1.377 . S
C1344 C1346 1.384 . S
C1345 C1344 1.377 . S
C1345 C1351 1.390 . S
C1346 H1337 0.930 . S
C1346 C1344 1.384 . S
C1346 C1347 1.372 . S
C1347 C1346 1.372 . S
C1347 C1348 1.400 . S
C1347 C1352 1.490 . S
C1348 H1338 0.930 . S
C1348 C1347 1.400 . S
C1348 C1351 1.386 . S
H1349 C1365 0.930 . S
H1350 C1366 0.931 . S
C1351 H1339 0.929 . S
C1351 C1345 1.390 . S
C1351 C1348 1.386 . S
C1352 C1347 1.490 . S
C1352 C1354 1.395 . S
C1352 C1355 1.403 . S
H1353 C1359 0.930 . S
C1354 H1340 0.930 . S
C1354 C1352 1.395 . S
C1354 C1357 1.403 . S
C1355 C1352 1.403 . S
C1355 C1356 1.524 . S
C1355 C1359 1.400 . S
C1356 H1341 0.960 . S
C1356 H1342 0.960 . S
C1356 H1343 0.960 . S
C1356 C1355 1.524 . S
C1357 C1354 1.403 . S
C1357 C1358 1.392 . S
C1357 C1361 1.495 . S
C1358 C1357 1.392 . S
C1358 C1359 1.385 . S
C1358 C1360 1.478 . S
C1359 H1353 0.930 . S
C1359 C1355 1.400 . S
C1359 C1358 1.385 . S
C1360 C1358 1.478 . S
C1360 C1362 1.381 . S
C1360 C1366 1.383 . S
C1361 C1357 1.495 . S
C1361 H1367 0.959 . S
C1361 H1368 0.961 . S
C1361 H1369 0.960 . S
C1362 C1360 1.381 . S
C1362 C1363 1.394 . S
C1362 H1370 0.930 . S
C1363 C1362 1.394 . S
C1363 C1364 1.383 . S
C1363 H1371 0.881 1_545 S
C1364 C1363 1.383 . S
C1364 C1365 1.377 . S
C1365 H1349 0.930 . S
C1365 C1364 1.377 . S
C1365 C1366 1.379 . S
C1366 H1350 0.931 . S
C1366 C1360 1.383 . S
C1366 C1365 1.379 . S
H1367 C1361 0.959 . S
H1368 C1361 0.961 . S
H1369 C1361 0.960 . S
H1370 C1362 0.930 . S
H1371 C1363 0.881 1_565 S
H1372 C1380 0.929 . S
H1373 C1382 0.930 . S
H1374 C1384 0.930 . S
H1375 C1387 0.929 . S
H1376 C1390 0.930 . S
H1377 C1392 0.960 . S
H1378 C1392 0.960 . S
H1379 C1392 0.960 . S
C1380 H1372 0.929 . S
C1380 C1381 1.377 . S
C1380 C1382 1.384 . S
C1381 C1380 1.377 . S
C1381 C1387 1.390 . S
C1382 H1373 0.930 . S
C1382 C1380 1.384 . S
C1382 C1383 1.372 . S
C1383 C1382 1.372 . S
C1383 C1384 1.400 . S
C1383 C1388 1.490 . S
C1384 H1374 0.930 . S
C1384 C1383 1.400 . S
C1384 C1387 1.386 . S
H1385 C1401 0.930 . S
H1386 C1402 0.931 . S
C1387 H1375 0.929 . S
C1387 C1381 1.390 . S
C1387 C1384 1.386 . S
C1388 C1383 1.490 . S
C1388 C1390 1.395 . S
C1388 C1391 1.403 . S
H1389 C1395 0.930 . S
C1390 H1376 0.930 . S
C1390 C1388 1.395 . S
C1390 C1393 1.403 . S
C1391 C1388 1.403 . S
C1391 C1392 1.524 . S
C1391 C1395 1.400 . S
C1392 H1377 0.960 . S
C1392 H1378 0.960 . S
C1392 H1379 0.960 . S
C1392 C1391 1.524 . S
C1393 C1390 1.403 . S
C1393 C1394 1.392 . S
C1393 C1397 1.495 . S
C1394 C1393 1.392 . S
C1394 C1395 1.385 . S
C1394 C1396 1.478 . S
C1395 H1389 0.930 . S
C1395 C1391 1.400 . S
C1395 C1394 1.385 . S
C1396 C1394 1.478 . S
C1396 C1398 1.381 . S
C1396 C1402 1.383 . S
C1397 C1393 1.495 . S
C1397 H1403 0.959 . S
C1397 H1404 0.961 . S
C1397 H1405 0.960 . S
C1398 C1396 1.381 . S
C1398 C1399 1.394 . S
C1398 H1406 0.930 . S
C1399 C1398 1.394 . S
C1399 C1400 1.383 . S
C1399 H1407 0.929 . S
C1400 C1399 1.383 . S
C1400 C1401 1.377 . S
C1401 H1385 0.930 . S
C1401 C1400 1.377 . S
C1401 C1402 1.379 . S
C1402 H1386 0.931 . S
C1402 C1396 1.383 . S
C1402 C1401 1.379 . S
H1403 C1397 0.959 . S
H1404 C1397 0.961 . S
H1405 C1397 0.960 . S
H1406 C1398 0.930 . S
H1407 C1399 0.929 . S
H1408 C1416 0.929 . S
H1409 C1418 0.930 . S
H1410 C1420 0.930 . S
H1411 C1423 0.929 . S
H1412 C1426 0.930 . S
H1413 C1428 0.960 . S
H1414 C1428 0.960 . S
H1415 C1428 0.960 . S
C1416 H1408 0.929 . S
C1416 C1417 1.377 . S
C1416 C1418 1.384 . S
C1417 C1416 1.377 . S
C1417 C1423 1.390 . S
C1418 H1409 0.930 . S
C1418 C1416 1.384 . S
C1418 C1419 1.372 . S
C1419 C1418 1.372 . S
C1419 C1420 1.400 . S
C1419 C1424 1.490 . S
C1420 H1410 0.930 . S
C1420 C1419 1.400 . S
C1420 C1423 1.386 . S
H1421 C1437 0.930 . S
H1422 C1438 0.931 . S
C1423 H1411 0.929 . S
C1423 C1417 1.390 . S
C1423 C1420 1.386 . S
C1424 C1419 1.490 . S
C1424 C1426 1.395 . S
C1424 C1427 1.403 . S
H1425 C1431 0.933 . S
C1426 H1412 0.930 . S
C1426 C1424 1.395 . S
C1426 C1429 1.403 . S
C1427 C1424 1.403 . S
C1427 C1428 1.524 1_655 S
C1427 C1431 1.399 1_655 S
C1428 H1413 0.960 . S
C1428 H1414 0.960 . S
C1428 H1415 0.960 . S
C1428 C1427 1.524 1_455 S
C1429 C1426 1.403 . S
C1429 C1430 1.392 . S
C1429 C1433 1.495 . S
C1430 C1429 1.392 . S
C1430 C1431 1.383 1_655 S
C1430 C1432 1.478 . S
C1431 H1425 0.933 . S
C1431 C1427 1.399 1_455 S
C1431 C1430 1.383 1_455 S
C1432 C1430 1.478 . S
C1432 C1434 1.381 1_655 S
C1432 C1438 1.383 1_655 S
C1433 C1429 1.495 . S
C1433 H1439 0.959 . S
C1433 H1440 0.961 . S
C1433 H1441 0.960 . S
C1434 C1432 1.381 1_455 S
C1434 C1435 1.394 . S
C1434 H1442 0.930 1_455 S
C1435 C1434 1.394 . S
C1435 C1436 1.383 . S
C1435 H1443 0.929 . S
C1436 C1435 1.383 . S
C1436 C1437 1.377 . S
C1437 H1421 0.930 . S
C1437 C1436 1.377 . S
C1437 C1438 1.379 . S
C1438 H1422 0.931 . S
C1438 C1432 1.383 1_455 S
C1438 C1437 1.379 . S
H1439 C1433 0.959 . S
H1440 C1433 0.961 . S
H1441 C1433 0.960 . S
H1442 C1434 0.930 1_655 S
H1443 C1435 0.929 . S
H1444 C1452 0.929 . S
H1445 C1454 0.930 . S
H1446 C1456 0.930 . S
H1447 C1459 0.929 . S
H1448 C1462 0.930 . S
H1449 C1464 0.960 . S
H1450 C1464 0.960 . S
H1451 C1464 0.960 . S
C1452 H1444 0.929 . S
C1452 C1453 1.377 . S
C1452 C1454 1.384 . S
C1453 C1452 1.377 . S
C1453 C1459 1.390 . S
C1454 H1445 0.930 . S
C1454 C1452 1.384 . S
C1454 C1455 1.372 . S
C1455 C1454 1.372 . S
C1455 C1456 1.400 . S
C1455 C1460 1.490 . S
C1456 H1446 0.930 . S
C1456 C1455 1.400 . S
C1456 C1459 1.386 . S
H1457 C1473 0.930 . S
H1458 C1474 0.931 . S
C1459 H1447 0.929 . S
C1459 C1453 1.390 . S
C1459 C1456 1.386 . S
C1460 C1455 1.490 . S
C1460 C1462 1.395 . S
C1460 C1463 1.403 . S
H1461 C1467 0.930 . S
C1462 H1448 0.930 . S
C1462 C1460 1.395 . S
C1462 C1465 1.403 . S
C1463 C1460 1.403 . S
C1463 C1464 1.524 . S
C1463 C1467 1.400 . S
C1464 H1449 0.960 . S
C1464 H1450 0.960 . S
C1464 H1451 0.960 . S
C1464 C1463 1.524 . S
C1465 C1462 1.403 . S
C1465 C1466 1.392 . S
C1465 C1469 1.495 . S
C1466 C1465 1.392 . S
C1466 C1467 1.385 . S
C1466 C1468 1.478 . S
C1467 H1461 0.930 . S
C1467 C1463 1.400 . S
C1467 C1466 1.385 . S
C1468 C1466 1.478 . S
C1468 C1470 1.381 . S
C1468 C1474 1.383 . S
C1469 C1465 1.495 . S
C1469 H1475 0.959 . S
C1469 H1476 0.961 . S
C1469 H1477 0.960 . S
C1470 C1468 1.381 . S
C1470 C1471 1.394 . S
C1470 H1478 0.930 . S
C1471 C1470 1.394 . S
C1471 C1472 1.383 . S
C1471 H1479 0.929 . S
C1472 C1471 1.383 . S
C1472 C1473 1.377 . S
C1473 H1457 0.930 . S
C1473 C1472 1.377 . S
C1473 C1474 1.379 . S
C1474 H1458 0.931 . S
C1474 C1468 1.383 . S
C1474 C1473 1.379 . S
H1475 C1469 0.959 . S
H1476 C1469 0.961 . S
H1477 C1469 0.960 . S
H1478 C1470 0.930 . S
H1479 C1471 0.929 . S
H1480 C1488 0.929 . S
H1481 C1490 0.930 . S
H1482 C1492 0.930 . S
H1483 C1495 0.929 . S
H1484 C1498 0.930 . S
H1485 C1500 0.960 . S
H1486 C1500 0.960 . S
H1487 C1500 0.960 . S
C1488 H1480 0.929 . S
C1488 C1489 1.377 . S
C1488 C1490 1.384 . S
C1489 C1488 1.377 . S
C1489 C1495 1.390 . S
C1490 H1481 0.930 . S
C1490 C1488 1.384 . S
C1490 C1491 1.372 . S
C1491 C1490 1.372 . S
C1491 C1492 1.400 . S
C1491 C1496 1.490 . S
C1492 H1482 0.930 . S
C1492 C1491 1.400 . S
C1492 C1495 1.386 . S
H1493 C1509 0.930 . S
H1494 C1510 0.931 . S
C1495 H1483 0.929 . S
C1495 C1489 1.390 . S
C1495 C1492 1.386 . S
C1496 C1491 1.490 . S
C1496 C1498 1.395 . S
C1496 C1499 1.403 . S
H1497 C1503 0.930 . S
C1498 H1484 0.930 . S
C1498 C1496 1.395 . S
C1498 C1501 1.403 . S
C1499 C1496 1.403 . S
C1499 C1500 1.524 . S
C1499 C1503 1.400 . S
C1500 H1485 0.960 . S
C1500 H1486 0.960 . S
C1500 H1487 0.960 . S
C1500 C1499 1.524 . S
C1501 C1498 1.403 . S
C1501 C1502 1.392 . S
C1501 C1505 1.495 . S
C1502 C1501 1.392 . S
C1502 C1503 1.385 . S
C1502 C1504 1.478 . S
C1503 H1497 0.930 . S
C1503 C1499 1.400 . S
C1503 C1502 1.385 . S
C1504 C1502 1.478 . S
C1504 C1506 1.381 . S
C1504 C1510 1.383 . S
C1505 C1501 1.495 . S
C1505 H1511 0.959 . S
C1505 H1512 0.961 . S
C1505 H1513 0.960 . S
C1506 C1504 1.381 . S
C1506 C1507 1.394 . S
C1506 H1514 0.930 . S
C1507 C1506 1.394 . S
C1507 C1508 1.383 . S
C1507 H1515 0.929 . S
C1508 C1507 1.383 . S
C1508 C1509 1.377 . S
C1509 H1493 0.930 . S
C1509 C1508 1.377 . S
C1509 C1510 1.379 . S
C1510 H1494 0.931 . S
C1510 C1504 1.383 . S
C1510 C1509 1.379 . S
H1511 C1505 0.959 . S
H1512 C1505 0.961 . S
H1513 C1505 0.960 . S
H1514 C1506 0.930 . S
H1515 C1507 0.929 . S
H1516 C1524 0.929 . S
H1517 C1526 0.930 . S
H1518 C1528 0.930 . S
H1519 C1531 0.929 . S
H1520 C1534 0.930 . S
H1521 C1536 0.960 . S
H1522 C1536 0.960 . S
H1523 C1536 0.960 . S
C1524 H1516 0.929 . S
C1524 C1525 1.377 . S
C1524 C1526 1.384 . S
C1525 C1524 1.377 . S
C1525 C1531 1.390 . S
C1526 H1517 0.930 . S
C1526 C1524 1.384 . S
C1526 C1527 1.372 . S
C1527 C1526 1.372 . S
C1527 C1528 1.400 . S
C1527 C1532 1.490 . S
C1528 H1518 0.930 . S
C1528 C1527 1.400 . S
C1528 C1531 1.386 . S
H1529 C1545 0.930 . S
H1530 C1546 0.931 . S
C1531 H1519 0.929 . S
C1531 C1525 1.390 . S
C1531 C1528 1.386 . S
C1532 C1527 1.490 . S
C1532 C1534 1.395 . S
C1532 C1535 1.403 . S
H1533 C1539 0.930 . S
C1534 H1520 0.930 . S
C1534 C1532 1.395 . S
C1534 C1537 1.403 . S
C1535 C1532 1.403 . S
C1535 C1536 1.524 . S
C1535 C1539 1.400 . S
C1536 H1521 0.960 . S
C1536 H1522 0.960 . S
C1536 H1523 0.960 . S
C1536 C1535 1.524 . S
C1537 C1534 1.403 . S
C1537 C1538 1.392 . S
C1537 C1541 1.495 . S
C1538 C1537 1.392 . S
C1538 C1539 1.385 . S
C1538 C1540 1.478 . S
C1539 H1533 0.930 . S
C1539 C1535 1.400 . S
C1539 C1538 1.385 . S
C1540 C1538 1.478 . S
C1540 C1542 1.381 . S
C1540 C1546 1.383 . S
C1541 C1537 1.495 . S
C1541 H1547 0.959 . S
C1541 H1548 0.961 . S
C1541 H1549 0.960 . S
C1542 C1540 1.381 . S
C1542 C1543 1.394 . S
C1542 H1550 0.930 . S
C1543 C1542 1.394 . S
C1543 C1544 1.383 . S
C1543 H1551 0.929 . S
C1544 C1543 1.383 . S
C1544 C1545 1.377 . S
C1545 H1529 0.930 . S
C1545 C1544 1.377 . S
C1545 C1546 1.379 . S
C1546 H1530 0.931 . S
C1546 C1540 1.383 . S
C1546 C1545 1.379 . S
H1547 C1541 0.959 . S
H1548 C1541 0.961 . S
H1549 C1541 0.960 . S
H1550 C1542 0.930 . S
H1551 C1543 0.929 . S
H1552 C1560 0.929 . S
H1553 C1562 0.930 . S
H1554 C1564 0.930 . S
H1555 C1567 0.929 . S
H1556 C1570 0.930 . S
H1557 C1572 0.954 1_556 S
H1558 C1572 0.989 . S
H1559 C1572 0.929 1_556 S
C1560 H1552 0.929 . S
C1560 C1561 1.377 . S
C1560 C1562 1.384 . S
C1561 C1560 1.377 . S
C1561 C1567 1.390 1_554 S
C1562 H1553 0.930 . S
C1562 C1560 1.384 . S
C1562 C1563 1.372 . S
C1563 C1562 1.372 . S
C1563 C1564 1.400 1_554 S
C1563 C1568 1.490 . S
C1564 H1554 0.930 . S
C1564 C1563 1.400 1_556 S
C1564 C1567 1.386 . S
H1565 C1581 0.930 1_556 S
H1566 C1582 0.931 1_556 S
C1567 H1555 0.929 . S
C1567 C1561 1.390 1_556 S
C1567 C1564 1.386 . S
C1568 C1563 1.490 . S
C1568 C1570 1.395 . S
C1568 C1571 1.403 . S
H1569 C1575 0.930 . S
C1570 H1556 0.930 . S
C1570 C1568 1.395 . S
C1570 C1573 1.403 . S
C1571 C1568 1.403 . S
C1571 C1572 1.533 . S
C1571 C1575 1.400 . S
C1572 H1557 0.954 1_554 S
C1572 H1558 0.989 . S
C1572 H1559 0.929 1_554 S
C1572 C1571 1.533 . S
C1573 C1570 1.403 . S
C1573 C1574 1.392 . S
C1573 C1577 1.495 1_565 S
C1574 C1573 1.392 . S
C1574 C1575 1.385 . S
C1574 C1576 1.478 . S
C1575 H1569 0.930 . S
C1575 C1571 1.400 . S
C1575 C1574 1.385 . S
C1576 C1574 1.478 . S
C1576 C1578 1.381 1_565 S
C1576 C1582 1.383 . S
C1577 C1573 1.495 1_545 S
C1577 H1583 0.959 . S
C1577 H1584 0.961 . S
C1577 H1585 0.960 . S
C1578 C1576 1.381 1_545 S
C1578 C1579 1.395 . S
C1578 H1586 0.916 1_545 S
C1579 C1578 1.395 . S
C1579 C1580 1.383 . S
C1579 H1587 0.929 . S
C1580 C1579 1.383 . S
C1580 C1581 1.377 . S
C1581 H1565 0.930 1_554 S
C1581 C1580 1.377 . S
C1581 C1582 1.379 1_545 S
C1582 H1566 0.931 1_554 S
C1582 C1576 1.383 . S
C1582 C1581 1.379 1_565 S
H1583 C1577 0.959 . S
H1584 C1577 0.961 . S
H1585 C1577 0.960 . S
H1586 C1578 0.916 1_565 S
H1587 C1579 0.929 . S
H1588 C1596 0.929 . S
H1589 C1598 0.930 . S
H1590 C1600 0.930 . S
H1591 C1603 0.929 . S
H1592 C1606 0.930 . S
H1593 C1608 0.960 . S
H1594 C1608 0.960 1_554 S
H1595 C1608 0.960 . S
C1596 H1588 0.929 . S
C1596 C1597 1.377 . S
C1596 C1598 1.384 . S
C1597 C1596 1.377 . S
C1597 C1603 1.390 1_554 S
C1598 H1589 0.930 . S
C1598 C1596 1.384 . S
C1598 C1599 1.372 . S
C1599 C1598 1.372 . S
C1599 C1600 1.400 1_554 S
C1599 C1604 1.490 . S
C1600 H1590 0.930 . S
C1600 C1599 1.400 1_556 S
C1600 C1603 1.386 . S
H1601 C1617 0.930 . S
H1602 C1618 0.931 . S
C1603 H1591 0.929 . S
C1603 C1597 1.390 1_556 S
C1603 C1600 1.386 . S
C1604 C1599 1.490 . S
C1604 C1606 1.395 . S
C1604 C1607 1.403 . S
H1605 C1611 0.930 . S
C1606 H1592 0.930 . S
C1606 C1604 1.395 . S
C1606 C1609 1.403 . S
C1607 C1604 1.403 . S
C1607 C1608 1.524 1_554 S
C1607 C1611 1.400 . S
C1608 H1593 0.960 . S
C1608 H1594 0.960 1_556 S
C1608 H1595 0.960 . S
C1608 C1607 1.524 1_556 S
C1609 C1606 1.403 . S
C1609 C1610 1.392 . S
C1609 C1613 1.495 . S
C1610 C1609 1.392 . S
C1610 C1611 1.385 . S
C1610 C1612 1.478 . S
C1611 H1605 0.930 . S
C1611 C1607 1.400 . S
C1611 C1610 1.385 . S
C1612 C1610 1.478 . S
C1612 C1614 1.381 . S
C1612 C1618 1.383 1_554 S
C1613 C1609 1.495 . S
C1613 H1619 0.959 . S
C1613 H1620 0.961 . S
C1613 H1621 0.960 . S
C1614 C1612 1.381 . S
C1614 C1615 1.394 . S
C1614 H1622 0.930 . S
C1615 C1614 1.394 . S
C1615 C1616 1.383 . S
C1615 H1623 0.929 . S
C1616 C1615 1.383 . S
C1616 C1617 1.377 1_554 S
C1617 H1601 0.930 . S
C1617 C1616 1.377 1_556 S
C1617 C1618 1.379 . S
C1618 H1602 0.931 . S
C1618 C1612 1.383 1_556 S
C1618 C1617 1.379 . S
H1619 C1613 0.959 . S
H1620 C1613 0.961 . S
H1621 C1613 0.960 . S
H1622 C1614 0.930 . S
H1623 C1615 0.929 . S
H1624 C1632 0.929 . S
H1625 C1634 0.930 . S
H1626 C1636 0.930 . S
H1627 C1639 0.929 . S
H1628 C1642 0.930 . S
H1629 C1644 0.960 . S
H1630 C1644 0.960 . S
H1631 C1644 0.960 . S
C1632 H1624 0.929 . S
C1632 C1633 1.377 . S
C1632 C1634 1.384 . S
C1633 C1632 1.377 . S
C1633 C1639 1.390 . S
C1634 H1625 0.930 . S
C1634 C1632 1.384 . S
C1634 C1635 1.372 . S
C1635 C1634 1.372 . S
C1635 C1636 1.400 . S
C1635 C1640 1.490 . S
C1636 H1626 0.930 . S
C1636 C1635 1.400 . S
C1636 C1639 1.386 . S
H1637 C1653 0.930 . S
H1638 C1654 0.931 . S
C1639 H1627 0.929 . S
C1639 C1633 1.390 . S
C1639 C1636 1.386 . S
C1640 C1635 1.490 . S
C1640 C1642 1.395 . S
C1640 C1643 1.403 . S
H1641 C1647 0.930 . S
C1642 H1628 0.930 . S
C1642 C1640 1.395 . S
C1642 C1645 1.403 . S
C1643 C1640 1.403 . S
C1643 C1644 1.524 . S
C1643 C1647 1.400 . S
C1644 H1629 0.960 . S
C1644 H1630 0.960 . S
C1644 H1631 0.960 . S
C1644 C1643 1.524 . S
C1645 C1642 1.403 . S
C1645 C1646 1.392 . S
C1645 C1649 1.495 . S
C1646 C1645 1.392 . S
C1646 C1647 1.385 . S
C1646 C1648 1.478 . S
C1647 H1641 0.930 . S
C1647 C1643 1.400 . S
C1647 C1646 1.385 . S
C1648 C1646 1.478 . S
C1648 C1650 1.381 . S
C1648 C1654 1.383 . S
C1649 C1645 1.495 . S
C1649 H1655 0.959 . S
C1649 H1656 0.961 . S
C1649 H1657 0.960 . S
C1650 C1648 1.381 . S
C1650 C1651 1.394 . S
C1650 H1658 0.930 . S
C1651 C1650 1.394 . S
C1651 C1652 1.383 . S
C1651 H1659 0.929 . S
C1652 C1651 1.383 . S
C1652 C1653 1.377 . S
C1653 H1637 0.930 . S
C1653 C1652 1.377 . S
C1653 C1654 1.379 . S
C1654 H1638 0.931 . S
C1654 C1648 1.383 . S
C1654 C1653 1.379 . S
H1655 C1649 0.959 . S
H1656 C1649 0.961 . S
H1657 C1649 0.960 . S
H1658 C1650 0.930 . S
H1659 C1651 0.929 . S
H1660 C1668 0.929 . S
H1661 C1670 0.930 . S
H1662 C1672 0.930 . S
H1663 C1675 0.929 . S
H1664 C1678 0.930 . S
H1665 C1680 0.960 . S
H1666 C1680 0.960 . S
H1667 C1680 0.960 . S
C1668 H1660 0.929 . S
C1668 C1669 1.377 . S
C1668 C1670 1.384 . S
C1669 C1668 1.377 . S
C1669 C1675 1.390 . S
C1670 H1661 0.930 . S
C1670 C1668 1.384 . S
C1670 C1671 1.372 . S
C1671 C1670 1.372 . S
C1671 C1672 1.400 . S
C1671 C1676 1.490 . S
C1672 H1662 0.930 . S
C1672 C1671 1.400 . S
C1672 C1675 1.386 . S
H1673 C1689 0.930 . S
H1674 C1690 0.931 . S
C1675 H1663 0.929 . S
C1675 C1669 1.390 . S
C1675 C1672 1.386 . S
C1676 C1671 1.490 . S
C1676 C1678 1.395 . S
C1676 C1679 1.403 . S
H1677 C1683 0.930 . S
C1678 H1664 0.930 . S
C1678 C1676 1.395 . S
C1678 C1681 1.403 . S
C1679 C1676 1.403 . S
C1679 C1680 1.524 . S
C1679 C1683 1.400 . S
C1680 H1665 0.960 . S
C1680 H1666 0.960 . S
C1680 H1667 0.960 . S
C1680 C1679 1.524 . S
C1681 C1678 1.403 . S
C1681 C1682 1.392 . S
C1681 C1685 1.495 . S
C1682 C1681 1.392 . S
C1682 C1683 1.385 . S
C1682 C1684 1.478 . S
C1683 H1677 0.930 . S
C1683 C1679 1.400 . S
C1683 C1682 1.385 . S
C1684 C1682 1.478 . S
C1684 C1686 1.381 . S
C1684 C1690 1.383 . S
C1685 C1681 1.495 . S
C1685 H1691 0.959 . S
C1685 H1692 0.961 . S
C1685 H1693 0.960 . S
C1686 C1684 1.381 . S
C1686 C1687 1.394 . S
C1686 H1694 0.930 . S
C1687 C1686 1.394 . S
C1687 C1688 1.383 . S
C1687 H1695 0.929 . S
C1688 C1687 1.383 . S
C1688 C1689 1.377 . S
C1689 H1673 0.930 . S
C1689 C1688 1.377 . S
C1689 C1690 1.379 . S
C1690 H1674 0.931 . S
C1690 C1684 1.383 . S
C1690 C1689 1.379 . S
H1691 C1685 0.959 . S
H1692 C1685 0.961 . S
H1693 C1685 0.960 . S
H1694 C1686 0.930 . S
H1695 C1687 0.929 . S
H1696 C1704 0.929 . S
H1697 C1706 0.930 . S
H1698 C1708 0.930 . S
H1699 C1711 0.929 . S
H1700 C1714 0.930 . S
H1701 C1716 0.960 . S
H1702 C1716 0.960 . S
H1703 C1716 0.960 . S
C1704 H1696 0.929 . S
C1704 C1705 1.377 . S
C1704 C1706 1.384 . S
C1705 C1704 1.377 . S
C1705 C1711 1.390 . S
C1706 H1697 0.930 . S
C1706 C1704 1.384 . S
C1706 C1707 1.372 . S
C1707 C1706 1.372 . S
C1707 C1708 1.400 . S
C1707 C1712 1.490 . S
C1708 H1698 0.930 . S
C1708 C1707 1.400 . S
C1708 C1711 1.386 . S
H1709 C1725 0.930 . S
H1710 C1726 0.931 . S
C1711 H1699 0.929 . S
C1711 C1705 1.390 . S
C1711 C1708 1.386 . S
C1712 C1707 1.490 . S
C1712 C1714 1.395 . S
C1712 C1715 1.403 . S
H1713 C1719 0.930 . S
C1714 H1700 0.930 . S
C1714 C1712 1.395 . S
C1714 C1717 1.403 . S
C1715 C1712 1.403 . S
C1715 C1716 1.524 . S
C1715 C1719 1.400 . S
C1716 H1701 0.960 . S
C1716 H1702 0.960 . S
C1716 H1703 0.960 . S
C1716 C1715 1.524 . S
C1717 C1714 1.403 . S
C1717 C1718 1.392 . S
C1717 C1721 1.495 . S
C1718 C1717 1.392 . S
C1718 C1719 1.385 . S
C1718 C1720 1.478 . S
C1719 H1713 0.930 . S
C1719 C1715 1.400 . S
C1719 C1718 1.385 . S
C1720 C1718 1.478 . S
C1720 C1722 1.381 . S
C1720 C1726 1.383 . S
C1721 C1717 1.495 . S
C1721 H1727 0.959 . S
C1721 H1728 0.961 . S
C1721 H1729 0.960 . S
C1722 C1720 1.381 . S
C1722 C1723 1.394 . S
C1722 H1730 0.930 . S
C1723 C1722 1.394 . S
C1723 C1724 1.383 . S
C1723 H1731 0.929 . S
C1724 C1723 1.383 . S
C1724 C1725 1.377 . S
C1725 H1709 0.930 . S
C1725 C1724 1.377 . S
C1725 C1726 1.379 . S
C1726 H1710 0.931 . S
C1726 C1720 1.383 . S
C1726 C1725 1.379 . S
H1727 C1721 0.959 . S
H1728 C1721 0.961 . S
H1729 C1721 0.960 . S
H1730 C1722 0.930 . S
H1731 C1723 0.929 . S
H1732 C1740 0.929 . S
H1733 C1742 0.930 . S
H1734 C1744 0.930 . S
H1735 C1747 0.929 . S
H1736 C1750 0.930 . S
H1737 C1752 0.960 . S
H1738 C1752 0.960 . S
H1739 C1752 0.960 . S
C1740 H1732 0.929 . S
C1740 C1741 1.377 . S
C1740 C1742 1.384 . S
C1741 C1740 1.377 . S
C1741 C1747 1.390 . S
C1742 H1733 0.930 . S
C1742 C1740 1.384 . S
C1742 C1743 1.372 . S
C1743 C1742 1.372 . S
C1743 C1744 1.400 . S
C1743 C1748 1.490 . S
C1744 H1734 0.930 . S
C1744 C1743 1.400 . S
C1744 C1747 1.386 . S
H1745 C1761 0.930 . S
H1746 C1762 0.931 . S
C1747 H1735 0.929 . S
C1747 C1741 1.390 . S
C1747 C1744 1.386 . S
C1748 C1743 1.490 . S
C1748 C1750 1.395 . S
C1748 C1751 1.403 . S
H1749 C1755 0.930 . S
C1750 H1736 0.930 . S
C1750 C1748 1.395 . S
C1750 C1753 1.403 . S
C1751 C1748 1.403 . S
C1751 C1752 1.524 . S
C1751 C1755 1.400 . S
C1752 H1737 0.960 . S
C1752 H1738 0.960 . S
C1752 H1739 0.960 . S
C1752 C1751 1.524 . S
C1753 C1750 1.403 . S
C1753 C1754 1.392 . S
C1753 C1757 1.495 . S
C1754 C1753 1.392 . S
C1754 C1755 1.385 . S
C1754 C1756 1.478 . S
C1755 H1749 0.930 . S
C1755 C1751 1.400 . S
C1755 C1754 1.385 . S
C1756 C1754 1.478 . S
C1756 C1758 1.381 . S
C1756 C1762 1.383 . S
C1757 C1753 1.495 . S
C1757 H1763 0.959 . S
C1757 H1764 0.961 . S
C1757 H1765 0.960 . S
C1758 C1756 1.381 . S
C1758 C1759 1.394 . S
C1758 H1766 0.930 . S
C1759 C1758 1.394 . S
C1759 C1760 1.383 . S
C1759 H1767 0.929 . S
C1760 C1759 1.383 . S
C1760 C1761 1.377 . S
C1761 H1745 0.930 . S
C1761 C1760 1.377 . S
C1761 C1762 1.379 . S
C1762 H1746 0.931 . S
C1762 C1756 1.383 . S
C1762 C1761 1.379 . S
H1763 C1757 0.959 . S
H1764 C1757 0.961 . S
H1765 C1757 0.960 . S
H1766 C1758 0.930 . S
H1767 C1759 0.929 . S
H1768 C1776 0.929 . S
H1769 C1778 0.930 . S
H1770 C1780 0.930 . S
H1771 C1783 0.929 . S
H1772 C1786 0.930 . S
H1773 C1788 0.960 . S
H1774 C1788 0.960 . S
H1775 C1788 0.960 . S
C1776 H1768 0.929 . S
C1776 C1777 1.377 . S
C1776 C1778 1.384 . S
C1777 C1776 1.377 . S
C1777 C1783 1.390 . S
C1778 H1769 0.930 . S
C1778 C1776 1.384 . S
C1778 C1779 1.372 . S
C1779 C1778 1.372 . S
C1779 C1780 1.400 . S
C1779 C1784 1.490 . S
C1780 H1770 0.930 . S
C1780 C1779 1.400 . S
C1780 C1783 1.386 . S
H1781 C1797 0.930 . S
H1782 C1798 0.931 . S
C1783 H1771 0.929 . S
C1783 C1777 1.390 . S
C1783 C1780 1.386 . S
C1784 C1779 1.490 . S
C1784 C1786 1.395 . S
C1784 C1787 1.403 . S
H1785 C1791 0.930 . S
C1786 H1772 0.930 . S
C1786 C1784 1.395 . S
C1786 C1789 1.403 . S
C1787 C1784 1.403 . S
C1787 C1788 1.524 . S
C1787 C1791 1.400 . S
C1788 H1773 0.960 . S
C1788 H1774 0.960 . S
C1788 H1775 0.960 . S
C1788 C1787 1.524 . S
C1789 C1786 1.403 . S
C1789 C1790 1.392 . S
C1789 C1793 1.495 . S
C1790 C1789 1.392 . S
C1790 C1791 1.385 . S
C1790 C1792 1.478 . S
C1791 H1785 0.930 . S
C1791 C1787 1.400 . S
C1791 C1790 1.385 . S
C1792 C1790 1.478 . S
C1792 C1794 1.381 . S
C1792 C1798 1.383 . S
C1793 C1789 1.495 . S
C1793 H1799 0.959 . S
C1793 H1800 0.961 . S
C1793 H1801 0.960 . S
C1794 C1792 1.381 . S
C1794 C1795 1.394 . S
C1794 H1802 0.930 . S
C1795 C1794 1.394 . S
C1795 C1796 1.383 . S
C1795 H1803 0.929 . S
C1796 C1795 1.383 . S
C1796 C1797 1.377 . S
C1797 H1781 0.930 . S
C1797 C1796 1.377 . S
C1797 C1798 1.379 . S
C1798 H1782 0.931 . S
C1798 C1792 1.383 . S
C1798 C1797 1.379 . S
H1799 C1793 0.959 . S
H1800 C1793 0.961 . S
H1801 C1793 0.960 . S
H1802 C1794 0.930 . S
H1803 C1795 0.929 . S
H1804 C1812 0.929 . S
H1805 C1814 0.930 . S
H1806 C1816 0.930 . S
H1807 C1819 0.929 . S
H1808 C1822 0.930 . S
H1809 C1824 0.960 . S
H1810 C1824 0.960 . S
H1811 C1824 0.960 . S
C1812 H1804 0.929 . S
C1812 C1813 1.377 . S
C1812 C1814 1.384 . S
C1813 C1812 1.377 . S
C1813 C1819 1.390 . S
C1814 H1805 0.930 . S
C1814 C1812 1.384 . S
C1814 C1815 1.372 . S
C1815 C1814 1.372 . S
C1815 C1816 1.400 . S
C1815 C1820 1.490 . S
C1816 H1806 0.930 . S
C1816 C1815 1.400 . S
C1816 C1819 1.386 . S
H1817 C1833 0.930 . S
H1818 C1834 0.931 . S
C1819 H1807 0.929 . S
C1819 C1813 1.390 . S
C1819 C1816 1.386 . S
C1820 C1815 1.490 . S
C1820 C1822 1.395 . S
C1820 C1823 1.403 . S
H1821 C1827 0.930 . S
C1822 H1808 0.930 . S
C1822 C1820 1.395 . S
C1822 C1825 1.403 . S
C1823 C1820 1.403 . S
C1823 C1824 1.524 . S
C1823 C1827 1.400 . S
C1824 H1809 0.960 . S
C1824 H1810 0.960 . S
C1824 H1811 0.960 . S
C1824 C1823 1.524 . S
C1825 C1822 1.403 . S
C1825 C1826 1.392 . S
C1825 C1829 1.495 . S
C1826 C1825 1.392 . S
C1826 C1827 1.385 . S
C1826 C1828 1.478 . S
C1827 H1821 0.930 . S
C1827 C1823 1.400 . S
C1827 C1826 1.385 . S
C1828 C1826 1.478 . S
C1828 C1830 1.381 . S
C1828 C1834 1.383 . S
C1829 C1825 1.495 . S
C1829 H1835 0.959 . S
C1829 H1836 0.961 . S
C1829 H1837 0.960 . S
C1830 C1828 1.381 . S
C1830 C1831 1.394 . S
C1830 H1838 0.930 . S
C1831 C1830 1.394 . S
C1831 C1832 1.383 . S
C1831 H1839 0.929 . S
C1832 C1831 1.383 . S
C1832 C1833 1.377 . S
C1833 H1817 0.930 . S
C1833 C1832 1.377 . S
C1833 C1834 1.379 . S
C1834 H1818 0.931 . S
C1834 C1828 1.383 . S
C1834 C1833 1.379 . S
H1835 C1829 0.959 . S
H1836 C1829 0.961 . S
H1837 C1829 0.960 . S
H1838 C1830 0.930 . S
H1839 C1831 0.929 . S
H1840 C1848 0.929 . S
H1841 C1850 0.930 . S
H1842 C1852 0.930 . S
H1843 C1855 0.929 . S
H1844 C1858 0.930 . S
H1845 C1860 0.960 . S
H1846 C1860 0.960 . S
H1847 C1860 0.960 . S
C1848 H1840 0.929 . S
C1848 C1849 1.377 . S
C1848 C1850 1.384 . S
C1849 C1848 1.377 . S
C1849 C1855 1.390 . S
C1850 H1841 0.930 . S
C1850 C1848 1.384 . S
C1850 C1851 1.372 . S
C1851 C1850 1.372 . S
C1851 C1852 1.400 . S
C1851 C1856 1.490 . S
C1852 H1842 0.930 . S
C1852 C1851 1.400 . S
C1852 C1855 1.386 . S
H1853 C1869 0.930 . S
H1854 C1870 0.931 . S
C1855 H1843 0.929 . S
C1855 C1849 1.390 . S
C1855 C1852 1.386 . S
C1856 C1851 1.490 . S
C1856 C1858 1.395 . S
C1856 C1859 1.403 . S
H1857 C1863 0.930 . S
C1858 H1844 0.930 . S
C1858 C1856 1.395 . S
C1858 C1861 1.403 . S
C1859 C1856 1.403 . S
C1859 C1860 1.524 . S
C1859 C1863 1.400 . S
C1860 H1845 0.960 . S
C1860 H1846 0.960 . S
C1860 H1847 0.960 . S
C1860 C1859 1.524 . S
C1861 C1858 1.403 . S
C1861 C1862 1.392 . S
C1861 C1865 1.495 . S
C1862 C1861 1.392 . S
C1862 C1863 1.385 . S
C1862 C1864 1.478 . S
C1863 H1857 0.930 . S
C1863 C1859 1.400 . S
C1863 C1862 1.385 . S
C1864 C1862 1.478 . S
C1864 C1866 1.381 . S
C1864 C1870 1.383 . S
C1865 C1861 1.495 . S
C1865 H1871 0.959 . S
C1865 H1872 0.961 . S
C1865 H1873 0.960 . S
C1866 C1864 1.381 . S
C1866 C1867 1.394 . S
C1866 H1874 0.930 . S
C1867 C1866 1.394 . S
C1867 C1868 1.383 . S
C1867 H1875 0.929 . S
C1868 C1867 1.383 . S
C1868 C1869 1.377 . S
C1869 H1853 0.930 . S
C1869 C1868 1.377 . S
C1869 C1870 1.379 . S
C1870 H1854 0.931 . S
C1870 C1864 1.383 . S
C1870 C1869 1.379 . S
H1871 C1865 0.959 . S
H1872 C1865 0.961 . S
H1873 C1865 0.960 . S
H1874 C1866 0.930 . S
H1875 C1867 0.929 . S
H1876 C1884 0.929 . S
H1877 C1886 0.930 . S
H1878 C1888 0.930 . S
H1879 C1891 0.929 . S
H1880 C1894 0.930 . S
H1881 C1896 0.960 . S
H1882 C1896 0.960 . S
H1883 C1896 0.960 . S
C1884 H1876 0.929 . S
C1884 C1885 1.377 . S
C1884 C1886 1.384 . S
C1885 C1884 1.377 . S
C1885 C1891 1.390 . S
C1886 H1877 0.930 . S
C1886 C1884 1.384 . S
C1886 C1887 1.372 . S
C1887 C1886 1.372 . S
C1887 C1888 1.400 . S
C1887 C1892 1.490 . S
C1888 H1878 0.930 . S
C1888 C1887 1.400 . S
C1888 C1891 1.386 . S
H1889 C1905 0.930 . S
H1890 C1906 0.931 . S
C1891 H1879 0.929 . S
C1891 C1885 1.390 . S
C1891 C1888 1.386 . S
C1892 C1887 1.490 . S
C1892 C1894 1.395 . S
C1892 C1895 1.403 . S
H1893 C1899 0.930 . S
C1894 H1880 0.930 . S
C1894 C1892 1.395 . S
C1894 C1897 1.403 . S
C1895 C1892 1.403 . S
C1895 C1896 1.524 . S
C1895 C1899 1.400 . S
C1896 H1881 0.960 . S
C1896 H1882 0.960 . S
C1896 H1883 0.960 . S
C1896 C1895 1.524 . S
C1897 C1894 1.403 . S
C1897 C1898 1.392 . S
C1897 C1901 1.495 . S
C1898 C1897 1.392 . S
C1898 C1899 1.385 . S
C1898 C1900 1.478 . S
C1899 H1893 0.930 . S
C1899 C1895 1.400 . S
C1899 C1898 1.385 . S
C1900 C1898 1.478 . S
C1900 C1902 1.381 . S
C1900 C1906 1.383 . S
C1901 C1897 1.495 . S
C1901 H1907 0.959 . S
C1901 H1908 0.961 . S
C1901 H1909 0.960 . S
C1902 C1900 1.381 . S
C1902 C1903 1.394 . S
C1902 H1910 0.930 . S
C1903 C1902 1.394 . S
C1903 C1904 1.383 . S
C1903 H1911 0.929 . S
C1904 C1903 1.383 . S
C1904 C1905 1.377 . S
C1905 H1889 0.930 . S
C1905 C1904 1.377 . S
C1905 C1906 1.379 . S
C1906 H1890 0.931 . S
C1906 C1900 1.383 . S
C1906 C1905 1.379 . S
H1907 C1901 0.959 . S
H1908 C1901 0.961 . S
H1909 C1901 0.960 . S
H1910 C1902 0.930 . S
H1911 C1903 0.929 . S
H1912 C1920 0.929 . S
H1913 C1922 0.930 . S
H1914 C1924 0.930 . S
H1915 C1927 0.929 . S
H1916 C1930 0.930 . S
H1917 C1932 0.960 . S
H1918 C1932 0.960 . S
H1919 C1932 0.960 . S
C1920 H1912 0.929 . S
C1920 C1921 1.377 . S
C1920 C1922 1.384 . S
C1921 C1920 1.377 . S
C1921 C1927 1.390 . S
C1922 H1913 0.930 . S
C1922 C1920 1.384 . S
C1922 C1923 1.372 . S
C1923 C1922 1.372 . S
C1923 C1924 1.400 . S
C1923 C1928 1.490 . S
C1924 H1914 0.930 . S
C1924 C1923 1.400 . S
C1924 C1927 1.386 . S
H1925 C1941 0.930 . S
H1926 C1942 0.931 . S
C1927 H1915 0.929 . S
C1927 C1921 1.390 . S
C1927 C1924 1.386 . S
C1928 C1923 1.490 . S
C1928 C1930 1.395 . S
C1928 C1931 1.403 . S
H1929 C1935 0.930 . S
C1930 H1916 0.930 . S
C1930 C1928 1.395 . S
C1930 C1933 1.403 . S
C1931 C1928 1.403 . S
C1931 C1932 1.524 . S
C1931 C1935 1.400 . S
C1932 H1917 0.960 . S
C1932 H1918 0.960 . S
C1932 H1919 0.960 . S
C1932 C1931 1.524 . S
C1933 C1930 1.403 . S
C1933 C1934 1.392 . S
C1933 C1937 1.495 . S
C1934 C1933 1.392 . S
C1934 C1935 1.385 . S
C1934 C1936 1.478 . S
C1935 H1929 0.930 . S
C1935 C1931 1.400 . S
C1935 C1934 1.385 . S
C1936 C1934 1.478 . S
C1936 C1938 1.381 . S
C1936 C1942 1.383 . S
C1937 C1933 1.495 . S
C1937 H1943 0.959 . S
C1937 H1944 0.961 . S
C1937 H1945 0.960 . S
C1938 C1936 1.381 . S
C1938 C1939 1.394 . S
C1938 H1946 0.930 . S
C1939 C1938 1.394 . S
C1939 C1940 1.383 . S
C1939 H1947 0.929 . S
C1940 C1939 1.383 . S
C1940 C1941 1.377 . S
C1941 H1925 0.930 . S
C1941 C1940 1.377 . S
C1941 C1942 1.379 . S
C1942 H1926 0.931 . S
C1942 C1936 1.383 . S
C1942 C1941 1.379 . S
H1943 C1937 0.959 . S
H1944 C1937 0.961 . S
H1945 C1937 0.960 . S
H1946 C1938 0.930 . S
H1947 C1939 0.929 . S
H1948 C1956 0.929 . S
H1949 C1958 0.930 . S
H1950 C1960 0.930 . S
H1951 C1963 0.929 . S
H1952 C1966 0.930 . S
H1953 C1968 0.960 . S
H1954 C1968 0.960 . S
H1955 C1968 0.960 . S
C1956 H1948 0.929 . S
C1956 C1957 1.377 . S
C1956 C1958 1.384 . S
C1957 C1956 1.377 . S
C1957 C1963 1.390 . S
C1958 H1949 0.930 . S
C1958 C1956 1.384 . S
C1958 C1959 1.372 . S
C1959 C1958 1.372 . S
C1959 C1960 1.400 . S
C1959 C1964 1.490 . S
C1960 H1950 0.930 . S
C1960 C1959 1.400 . S
C1960 C1963 1.386 . S
H1961 C1977 0.930 . S
H1962 C1978 0.931 . S
C1963 H1951 0.929 . S
C1963 C1957 1.390 . S
C1963 C1960 1.386 . S
C1964 C1959 1.490 . S
C1964 C1966 1.395 . S
C1964 C1967 1.403 . S
H1965 C1971 0.930 . S
C1966 H1952 0.930 . S
C1966 C1964 1.395 . S
C1966 C1969 1.403 . S
C1967 C1964 1.403 . S
C1967 C1968 1.524 . S
C1967 C1971 1.400 . S
C1968 H1953 0.960 . S
C1968 H1954 0.960 . S
C1968 H1955 0.960 . S
C1968 C1967 1.524 . S
C1969 C1966 1.403 . S
C1969 C1970 1.392 . S
C1969 C1973 1.495 . S
C1970 C1969 1.392 . S
C1970 C1971 1.385 . S
C1970 C1972 1.478 . S
C1971 H1965 0.930 . S
C1971 C1967 1.400 . S
C1971 C1970 1.385 . S
C1972 C1970 1.478 . S
C1972 C1974 1.381 . S
C1972 C1978 1.383 . S
C1973 C1969 1.495 . S
C1973 H1979 0.959 . S
C1973 H1980 0.961 . S
C1973 H1981 0.960 . S
C1974 C1972 1.381 . S
C1974 C1975 1.394 . S
C1974 H1982 0.930 . S
C1975 C1974 1.394 . S
C1975 C1976 1.383 . S
C1975 H1983 0.929 . S
C1976 C1975 1.383 . S
C1976 C1977 1.377 . S
C1977 H1961 0.930 . S
C1977 C1976 1.377 . S
C1977 C1978 1.379 . S
C1978 H1962 0.931 . S
C1978 C1972 1.383 . S
C1978 C1977 1.379 . S
H1979 C1973 0.959 . S
H1980 C1973 0.961 . S
H1981 C1973 0.960 . S
H1982 C1974 0.930 . S
H1983 C1975 0.929 . S
H1984 C1992 0.929 . S
H1985 C1994 0.930 . S
H1986 C1996 0.930 . S
H1987 C1999 0.929 . S
H1988 C2002 0.930 . S
H1989 C2004 0.960 . S
H1990 C2004 0.960 . S
H1991 C2004 0.960 . S
C1992 H1984 0.929 . S
C1992 C1993 1.377 . S
C1992 C1994 1.384 . S
C1993 C1992 1.377 . S
C1993 C1999 1.390 . S
C1994 H1985 0.930 . S
C1994 C1992 1.384 . S
C1994 C1995 1.372 . S
C1995 C1994 1.372 . S
C1995 C1996 1.400 . S
C1995 C2000 1.490 . S
C1996 H1986 0.930 . S
C1996 C1995 1.400 . S
C1996 C1999 1.386 . S
H1997 C2013 0.930 . S
H1998 C2014 0.931 . S
C1999 H1987 0.929 . S
C1999 C1993 1.390 . S
C1999 C1996 1.386 . S
C2000 C1995 1.490 . S
C2000 C2002 1.395 . S
C2000 C2003 1.403 . S
H2001 C2007 0.930 . S
C2002 H1988 0.930 . S
C2002 C2000 1.395 . S
C2002 C2005 1.403 . S
C2003 C2000 1.403 . S
C2003 C2004 1.524 . S
C2003 C2007 1.400 . S
C2004 H1989 0.960 . S
C2004 H1990 0.960 . S
C2004 H1991 0.960 . S
C2004 C2003 1.524 . S
C2005 C2002 1.403 . S
C2005 C2006 1.392 . S
C2005 C2009 1.495 . S
C2006 C2005 1.392 . S
C2006 C2007 1.385 . S
C2006 C2008 1.478 . S
C2007 H2001 0.930 . S
C2007 C2003 1.400 . S
C2007 C2006 1.385 . S
C2008 C2006 1.478 . S
C2008 C2010 1.381 . S
C2008 C2014 1.383 . S
C2009 C2005 1.495 . S
C2009 H2015 0.959 . S
C2009 H2016 0.961 . S
C2009 H2017 0.960 . S
C2010 C2008 1.381 . S
C2010 C2011 1.394 . S
C2010 H2018 0.930 . S
C2011 C2010 1.394 . S
C2011 C2012 1.383 . S
C2011 H2019 0.929 . S
C2012 C2011 1.383 . S
C2012 C2013 1.377 . S
C2013 H1997 0.930 . S
C2013 C2012 1.377 . S
C2013 C2014 1.379 . S
C2014 H1998 0.931 . S
C2014 C2008 1.383 . S
C2014 C2013 1.379 . S
H2015 C2009 0.959 . S
H2016 C2009 0.961 . S
H2017 C2009 0.960 . S
H2018 C2010 0.930 . S
H2019 C2011 0.929 . S
H2020 C2028 0.929 . S
H2021 C2030 0.930 . S
H2022 C2032 0.930 . S
H2023 C2035 0.929 . S
H2024 C2038 0.930 . S
H2025 C2040 0.960 . S
H2026 C2040 0.960 . S
H2027 C2040 0.960 . S
C2028 H2020 0.929 . S
C2028 C2029 1.377 . S
C2028 C2030 1.384 . S
C2029 C2028 1.377 . S
C2029 C2035 1.390 . S
C2030 H2021 0.930 . S
C2030 C2028 1.384 . S
C2030 C2031 1.372 . S
C2031 C2030 1.372 . S
C2031 C2032 1.400 . S
C2031 C2036 1.490 . S
C2032 H2022 0.930 . S
C2032 C2031 1.400 . S
C2032 C2035 1.386 . S
H2033 C2049 0.930 . S
H2034 C2050 0.931 . S
C2035 H2023 0.929 . S
C2035 C2029 1.390 . S
C2035 C2032 1.386 . S
C2036 C2031 1.490 . S
C2036 C2038 1.395 . S
C2036 C2039 1.403 . S
H2037 C2043 0.930 . S
C2038 H2024 0.930 . S
C2038 C2036 1.395 . S
C2038 C2041 1.403 . S
C2039 C2036 1.403 . S
C2039 C2040 1.524 . S
C2039 C2043 1.400 . S
C2040 H2025 0.960 . S
C2040 H2026 0.960 . S
C2040 H2027 0.960 . S
C2040 C2039 1.524 . S
C2041 C2038 1.403 . S
C2041 C2042 1.392 . S
C2041 C2045 1.495 . S
C2042 C2041 1.392 . S
C2042 C2043 1.385 . S
C2042 C2044 1.478 . S
C2043 H2037 0.930 . S
C2043 C2039 1.400 . S
C2043 C2042 1.385 . S
C2044 C2042 1.478 . S
C2044 C2046 1.381 . S
C2044 C2050 1.383 . S
C2045 C2041 1.495 . S
C2045 H2051 0.959 . S
C2045 H2052 0.961 . S
C2045 H2053 0.960 . S
C2046 C2044 1.381 . S
C2046 C2047 1.394 . S
C2046 H2054 0.930 . S
C2047 C2046 1.394 . S
C2047 C2048 1.383 . S
C2047 H2055 0.929 . S
C2048 C2047 1.383 . S
C2048 C2049 1.377 . S
C2049 H2033 0.930 . S
C2049 C2048 1.377 . S
C2049 C2050 1.379 . S
C2050 H2034 0.931 . S
C2050 C2044 1.383 . S
C2050 C2049 1.379 . S
H2051 C2045 0.959 . S
H2052 C2045 0.961 . S
H2053 C2045 0.960 . S
H2054 C2046 0.930 . S
H2055 C2047 0.929 . S
H2056 C2064 0.929 . S
H2057 C2066 0.930 . S
H2058 C2068 0.930 . S
H2059 C2071 0.929 . S
H2060 C2074 0.930 . S
H2061 C2076 0.960 . S
H2062 C2076 0.960 . S
H2063 C2076 0.960 . S
C2064 H2056 0.929 . S
C2064 C2065 1.377 . S
C2064 C2066 1.384 . S
C2065 C2064 1.377 . S
C2065 C2071 1.390 . S
C2066 H2057 0.930 . S
C2066 C2064 1.384 . S
C2066 C2067 1.372 . S
C2067 C2066 1.372 . S
C2067 C2068 1.400 . S
C2067 C2072 1.490 . S
C2068 H2058 0.930 . S
C2068 C2067 1.400 . S
C2068 C2071 1.386 . S
H2069 C2085 0.930 . S
H2070 C2086 0.931 . S
C2071 H2059 0.929 . S
C2071 C2065 1.390 . S
C2071 C2068 1.386 . S
C2072 C2067 1.490 . S
C2072 C2074 1.395 . S
C2072 C2075 1.403 . S
H2073 C2079 0.930 . S
C2074 H2060 0.930 . S
C2074 C2072 1.395 . S
C2074 C2077 1.403 . S
C2075 C2072 1.403 . S
C2075 C2076 1.524 . S
C2075 C2079 1.400 . S
C2076 H2061 0.960 . S
C2076 H2062 0.960 . S
C2076 H2063 0.960 . S
C2076 C2075 1.524 . S
C2077 C2074 1.403 . S
C2077 C2078 1.392 . S
C2077 C2081 1.495 . S
C2078 C2077 1.392 . S
C2078 C2079 1.385 . S
C2078 C2080 1.478 . S
C2079 H2073 0.930 . S
C2079 C2075 1.400 . S
C2079 C2078 1.385 . S
C2080 C2078 1.478 . S
C2080 C2082 1.381 . S
C2080 C2086 1.383 . S
C2081 C2077 1.495 . S
C2081 H2087 0.959 . S
C2081 H2088 0.961 . S
C2081 H2089 0.960 . S
C2082 C2080 1.381 . S
C2082 C2083 1.394 . S
C2082 H2090 0.930 . S
C2083 C2082 1.394 . S
C2083 C2084 1.383 . S
C2083 H2091 0.931 1_556 S
C2084 C2083 1.383 . S
C2084 C2085 1.377 . S
C2085 H2069 0.930 . S
C2085 C2084 1.377 . S
C2085 C2086 1.379 . S
C2086 H2070 0.931 . S
C2086 C2080 1.383 . S
C2086 C2085 1.379 . S
H2087 C2081 0.959 . S
H2088 C2081 0.961 . S
H2089 C2081 0.960 . S
H2090 C2082 0.930 . S
H2091 C2083 0.931 1_554 S
H2092 C2100 0.929 . S
H2093 C2102 0.930 . S
H2094 C2104 0.930 . S
H2095 C2107 0.929 . S
H2096 C2110 0.930 . S
H2097 C2112 0.960 . S
H2098 C2112 0.960 . S
H2099 C2112 0.960 . S
C2100 H2092 0.929 . S
C2100 C2101 1.377 . S
C2100 C2102 1.384 . S
C2101 C2100 1.377 . S
C2101 C2107 1.390 . S
C2102 H2093 0.930 . S
C2102 C2100 1.384 . S
C2102 C2103 1.372 . S
C2103 C2102 1.372 . S
C2103 C2104 1.400 . S
C2103 C2108 1.490 . S
C2104 H2094 0.930 . S
C2104 C2103 1.400 . S
C2104 C2107 1.386 . S
H2105 C2121 0.930 . S
H2106 C2122 0.931 . S
C2107 H2095 0.929 . S
C2107 C2101 1.390 . S
C2107 C2104 1.386 . S
C2108 C2103 1.490 . S
C2108 C2110 1.395 . S
C2108 C2111 1.403 . S
H2109 C2115 0.930 . S
C2110 H2096 0.930 . S
C2110 C2108 1.395 . S
C2110 C2113 1.403 . S
C2111 C2108 1.403 . S
C2111 C2112 1.524 . S
C2111 C2115 1.400 . S
C2112 H2097 0.960 . S
C2112 H2098 0.960 . S
C2112 H2099 0.960 . S
C2112 C2111 1.524 . S
C2113 C2110 1.403 . S
C2113 C2114 1.392 . S
C2113 C2117 1.495 . S
C2114 C2113 1.392 . S
C2114 C2115 1.385 . S
C2114 C2116 1.478 . S
C2115 H2109 0.930 . S
C2115 C2111 1.400 . S
C2115 C2114 1.385 . S
C2116 C2114 1.478 . S
C2116 C2118 1.381 . S
C2116 C2122 1.383 . S
C2117 C2113 1.495 . S
C2117 H2123 0.959 . S
C2117 H2124 0.961 . S
C2117 H2125 0.960 . S
C2118 C2116 1.381 . S
C2118 C2119 1.394 . S
C2118 H2126 0.930 . S
C2119 C2118 1.394 . S
C2119 C2120 1.383 . S
C2119 H2127 0.929 . S
C2120 C2119 1.383 . S
C2120 C2121 1.377 . S
C2121 H2105 0.930 . S
C2121 C2120 1.377 . S
C2121 C2122 1.379 . S
C2122 H2106 0.931 . S
C2122 C2116 1.383 . S
C2122 C2121 1.379 . S
H2123 C2117 0.959 . S
H2124 C2117 0.961 . S
H2125 C2117 0.960 . S
H2126 C2118 0.930 . S
H2127 C2119 0.929 . S
H2128 C2136 0.929 . S
H2129 C2138 0.930 . S
H2130 C2140 0.930 1_565 S
H2131 C2143 0.929 . S
H2132 C2146 0.930 . S
H2133 C2148 0.960 . S
H2134 C2148 0.960 . S
H2135 C2148 0.960 . S
C2136 H2128 0.929 . S
C2136 C2137 1.377 . S
C2136 C2138 1.384 . S
C2137 C2136 1.377 . S
C2137 C2143 1.390 1_545 S
C2138 H2129 0.930 . S
C2138 C2136 1.384 . S
C2138 C2139 1.372 . S
C2139 C2138 1.372 . S
C2139 C2140 1.400 . S
C2139 C2144 1.490 . S
C2140 H2130 0.930 1_545 S
C2140 C2139 1.400 . S
C2140 C2143 1.386 1_545 S
H2141 C2157 0.930 . S
H2142 C2158 0.931 . S
C2143 H2131 0.929 . S
C2143 C2137 1.390 1_565 S
C2143 C2140 1.386 1_565 S
C2144 C2139 1.490 . S
C2144 C2146 1.395 . S
C2144 C2147 1.394 1_545 S
H2145 C2151 0.930 1_565 S
C2146 H2132 0.930 . S
C2146 C2144 1.395 . S
C2146 C2149 1.403 . S
C2147 C2144 1.394 1_565 S
C2147 C2148 1.533 . S
C2147 C2151 1.399 1_565 S
C2148 H2133 0.960 . S
C2148 H2134 0.960 . S
C2148 H2135 0.960 . S
C2148 C2147 1.533 . S
C2149 C2146 1.403 . S
C2149 C2150 1.392 . S
C2149 C2153 1.495 . S
C2150 C2149 1.392 . S
C2150 C2151 1.385 . S
C2150 C2152 1.478 . S
C2151 H2145 0.930 1_545 S
C2151 C2147 1.399 1_545 S
C2151 C2150 1.385 . S
C2152 C2150 1.478 . S
C2152 C2154 1.381 . S
C2152 C2158 1.383 . S
C2153 C2149 1.495 . S
C2153 H2159 0.959 . S
C2153 H2160 0.961 . S
C2153 H2161 0.960 . S
C2154 C2152 1.381 . S
C2154 C2155 1.394 . S
C2154 H2162 0.930 . S
C2155 C2154 1.394 . S
C2155 C2156 1.383 . S
C2155 H2163 0.929 . S
C2156 C2155 1.383 . S
C2156 C2157 1.377 . S
C2157 H2141 0.930 . S
C2157 C2156 1.377 . S
C2157 C2158 1.379 . S
C2158 H2142 0.931 . S
C2158 C2152 1.383 . S
C2158 C2157 1.379 . S
H2159 C2153 0.959 . S
H2160 C2153 0.961 . S
H2161 C2153 0.960 . S
H2162 C2154 0.930 . S
H2163 C2155 0.929 . S
H2164 C2172 0.929 . S
H2165 C2174 0.930 . S
H2166 C2176 0.930 . S
H2167 C2179 0.929 . S
H2168 C2182 0.930 . S
H2169 C2184 0.960 . S
H2170 C2184 0.960 . S
H2171 C2184 0.960 . S
C2172 H2164 0.929 . S
C2172 C2173 1.377 . S
C2172 C2174 1.384 . S
C2173 C2172 1.377 . S
C2173 C2179 1.390 . S
C2174 H2165 0.930 . S
C2174 C2172 1.384 . S
C2174 C2175 1.372 . S
C2175 C2174 1.372 . S
C2175 C2176 1.400 . S
C2175 C2180 1.490 . S
C2176 H2166 0.930 . S
C2176 C2175 1.400 . S
C2176 C2179 1.386 . S
H2177 C2193 0.930 . S
H2178 C2194 0.931 . S
C2179 H2167 0.929 . S
C2179 C2173 1.390 . S
C2179 C2176 1.386 . S
C2180 C2175 1.490 . S
C2180 C2182 1.395 . S
C2180 C2183 1.403 . S
H2181 C2187 0.930 . S
C2182 H2168 0.930 . S
C2182 C2180 1.395 . S
C2182 C2185 1.403 . S
C2183 C2180 1.403 . S
C2183 C2184 1.524 . S
C2183 C2187 1.400 . S
C2184 H2169 0.960 . S
C2184 H2170 0.960 . S
C2184 H2171 0.960 . S
C2184 C2183 1.524 . S
C2185 C2182 1.403 . S
C2185 C2186 1.392 . S
C2185 C2189 1.495 . S
C2186 C2185 1.392 . S
C2186 C2187 1.385 . S
C2186 C2188 1.478 . S
C2187 H2181 0.930 . S
C2187 C2183 1.400 . S
C2187 C2186 1.385 . S
C2188 C2186 1.478 . S
C2188 C2190 1.381 . S
C2188 C2194 1.383 . S
C2189 C2185 1.495 . S
C2189 H2195 0.959 . S
C2189 H2196 0.961 . S
C2189 H2197 0.960 . S
C2190 C2188 1.381 . S
C2190 C2191 1.394 . S
C2190 H2198 0.930 . S
C2191 C2190 1.394 . S
C2191 C2192 1.383 . S
C2191 H2199 0.929 . S
C2192 C2191 1.383 . S
C2192 C2193 1.377 . S
C2193 H2177 0.930 . S
C2193 C2192 1.377 . S
C2193 C2194 1.379 . S
C2194 H2178 0.931 . S
C2194 C2188 1.383 . S
C2194 C2193 1.379 . S
H2195 C2189 0.959 . S
H2196 C2189 0.961 . S
H2197 C2189 0.960 . S
H2198 C2190 0.930 . S
H2199 C2191 0.929 . S
H2200 C2208 0.929 1_565 S
H2201 C2210 0.897 1_565 S
H2202 C2212 0.930 . S
H2203 C2215 0.929 . S
H2204 C2218 0.930 . S
H2205 C2220 0.955 1_565 S
H2206 C2220 0.949 1_565 S
H2207 C2220 0.972 . S
C2208 H2200 0.929 1_545 S
C2208 C2209 1.377 . S
C2208 C2210 1.384 . S
C2209 C2208 1.377 . S
C2209 C2215 1.390 . S
C2210 H2201 0.897 1_545 S
C2210 C2208 1.384 . S
C2210 C2211 1.372 . S
C2211 C2210 1.372 . S
C2211 C2212 1.400 . S
C2211 C2216 1.490 . S
C2212 H2202 0.930 . S
C2212 C2211 1.400 . S
C2212 C2215 1.386 . S
H2213 C2229 0.930 . S
H2214 C2230 0.931 . S
C2215 H2203 0.929 . S
C2215 C2209 1.390 . S
C2215 C2212 1.386 . S
C2216 C2211 1.490 . S
C2216 C2218 1.395 . S
C2216 C2219 1.403 . S
H2217 C2223 0.930 . S
C2218 H2204 0.930 . S
C2218 C2216 1.395 . S
C2218 C2221 1.403 . S
C2219 C2216 1.403 . S
C2219 C2220 1.529 . S
C2219 C2223 1.400 . S
C2220 H2205 0.955 1_545 S
C2220 H2206 0.949 1_545 S
C2220 H2207 0.972 . S
C2220 C2219 1.529 . S
C2221 C2218 1.403 . S
C2221 C2222 1.392 . S
C2221 C2225 1.495 . S
C2222 C2221 1.392 . S
C2222 C2223 1.385 . S
C2222 C2224 1.478 . S
C2223 H2217 0.930 . S
C2223 C2219 1.400 . S
C2223 C2222 1.385 . S
C2224 C2222 1.478 . S
C2224 C2226 1.381 . S
C2224 C2230 1.383 . S
C2225 C2221 1.495 . S
C2225 H2231 0.959 . S
C2225 H2232 0.961 . S
C2225 H2233 0.960 . S
C2226 C2224 1.381 . S
C2226 C2227 1.394 . S
C2226 H2234 0.930 . S
C2227 C2226 1.394 . S
C2227 C2228 1.383 . S
C2227 H2235 0.929 . S
C2228 C2227 1.383 . S
C2228 C2229 1.377 . S
C2229 H2213 0.930 . S
C2229 C2228 1.377 . S
C2229 C2230 1.379 . S
C2230 H2214 0.931 . S
C2230 C2224 1.383 . S
C2230 C2229 1.379 . S
H2231 C2225 0.959 . S
H2232 C2225 0.961 . S
H2233 C2225 0.960 . S
H2234 C2226 0.930 . S
H2235 C2227 0.929 . S
H2236 C2244 0.929 . S
H2237 C2246 0.930 . S
H2238 C2248 0.930 . S
H2239 C2251 0.929 . S
H2240 C2254 0.930 . S
H2241 C2256 0.960 . S
H2242 C2256 0.960 . S
H2243 C2256 0.960 . S
C2244 H2236 0.929 . S
C2244 C2245 1.377 . S
C2244 C2246 1.384 . S
C2245 C2244 1.377 . S
C2245 C2251 1.390 . S
C2246 H2237 0.930 . S
C2246 C2244 1.384 . S
C2246 C2247 1.372 . S
C2247 C2246 1.372 . S
C2247 C2248 1.400 . S
C2247 C2252 1.490 . S
C2248 H2238 0.930 . S
C2248 C2247 1.400 . S
C2248 C2251 1.386 . S
H2249 C2265 0.930 . S
H2250 C2266 0.931 . S
C2251 H2239 0.929 . S
C2251 C2245 1.390 . S
C2251 C2248 1.386 . S
C2252 C2247 1.490 . S
C2252 C2254 1.395 . S
C2252 C2255 1.403 . S
H2253 C2259 0.930 . S
C2254 H2240 0.930 . S
C2254 C2252 1.395 . S
C2254 C2257 1.403 . S
C2255 C2252 1.403 . S
C2255 C2256 1.524 . S
C2255 C2259 1.400 . S
C2256 H2241 0.960 . S
C2256 H2242 0.960 . S
C2256 H2243 0.960 . S
C2256 C2255 1.524 . S
C2257 C2254 1.403 . S
C2257 C2258 1.392 . S
C2257 C2261 1.495 . S
C2258 C2257 1.392 . S
C2258 C2259 1.385 . S
C2258 C2260 1.478 . S
C2259 H2253 0.930 . S
C2259 C2255 1.400 . S
C2259 C2258 1.385 . S
C2260 C2258 1.478 . S
C2260 C2262 1.381 . S
C2260 C2266 1.383 . S
C2261 C2257 1.495 . S
C2261 H2267 0.959 . S
C2261 H2268 0.961 . S
C2261 H2269 0.960 . S
C2262 C2260 1.381 . S
C2262 C2263 1.394 . S
C2262 H2270 0.930 . S
C2263 C2262 1.394 . S
C2263 C2264 1.383 . S
C2263 H2271 0.929 . S
C2264 C2263 1.383 . S
C2264 C2265 1.377 . S
C2265 H2249 0.930 . S
C2265 C2264 1.377 . S
C2265 C2266 1.379 . S
C2266 H2250 0.931 . S
C2266 C2260 1.383 . S
C2266 C2265 1.379 . S
H2267 C2261 0.959 . S
H2268 C2261 0.961 . S
H2269 C2261 0.960 . S
H2270 C2262 0.930 . S
H2271 C2263 0.929 . S
H2272 C2280 0.929 . S
H2273 C2282 0.930 . S
H2274 C2284 0.930 . S
H2275 C2287 0.929 . S
H2276 C2290 0.930 . S
H2277 C2292 0.960 . S
H2278 C2292 0.960 1_565 S
H2279 C2292 0.960 . S
C2280 H2272 0.929 . S
C2280 C2281 1.377 1_565 S
C2280 C2282 1.384 . S
C2281 C2280 1.377 1_545 S
C2281 C2287 1.390 . S
C2282 H2273 0.930 . S
C2282 C2280 1.384 . S
C2282 C2283 1.372 1_565 S
C2283 C2282 1.372 1_545 S
C2283 C2284 1.400 . S
C2283 C2288 1.490 . S
C2284 H2274 0.930 . S
C2284 C2283 1.400 . S
C2284 C2287 1.386 . S
H2285 C2301 0.930 . S
H2286 C2302 0.931 . S
C2287 H2275 0.929 . S
C2287 C2281 1.390 . S
C2287 C2284 1.386 . S
C2288 C2283 1.490 . S
C2288 C2290 1.395 . S
C2288 C2291 1.403 . S
H2289 C2295 0.930 . S
C2290 H2276 0.930 . S
C2290 C2288 1.395 . S
C2290 C2293 1.403 . S
C2291 C2288 1.403 . S
C2291 C2292 1.524 . S
C2291 C2295 1.400 . S
C2292 H2277 0.960 . S
C2292 H2278 0.960 1_545 S
C2292 H2279 0.960 . S
C2292 C2291 1.524 . S
C2293 C2290 1.403 . S
C2293 C2294 1.392 . S
C2293 C2297 1.495 . S
C2294 C2293 1.392 . S
C2294 C2295 1.385 . S
C2294 C2296 1.478 . S
C2295 H2289 0.930 . S
C2295 C2291 1.400 . S
C2295 C2294 1.385 . S
C2296 C2294 1.478 . S
C2296 C2298 1.381 . S
C2296 C2302 1.383 . S
C2297 C2293 1.495 . S
C2297 H2303 0.959 . S
C2297 H2304 0.961 . S
C2297 H2305 0.960 . S
C2298 C2296 1.381 . S
C2298 C2299 1.394 . S
C2298 H2306 0.930 1_545 S
C2299 C2298 1.394 . S
C2299 C2300 1.383 . S
C2299 H2307 0.929 1_545 S
C2300 C2299 1.383 . S
C2300 C2301 1.377 . S
C2301 H2285 0.930 . S
C2301 C2300 1.377 . S
C2301 C2302 1.379 . S
C2302 H2286 0.931 . S
C2302 C2296 1.383 . S
C2302 C2301 1.379 . S
H2303 C2297 0.959 . S
H2304 C2297 0.961 . S
H2305 C2297 0.960 . S
H2306 C2298 0.930 1_565 S
H2307 C2299 0.929 1_565 S
H2308 C2316 0.929 . S
H2309 C2318 0.930 . S
H2310 C2320 0.930 . S
H2311 C2323 0.929 . S
H2312 C2326 0.930 . S
H2313 C2328 0.960 . S
H2314 C2328 0.960 . S
H2315 C2328 0.960 . S
C2316 H2308 0.929 . S
C2316 C2317 1.377 . S
C2316 C2318 1.384 . S
C2317 C2316 1.377 . S
C2317 C2323 1.390 . S
C2318 H2309 0.930 . S
C2318 C2316 1.384 . S
C2318 C2319 1.372 . S
C2319 C2318 1.372 . S
C2319 C2320 1.400 . S
C2319 C2324 1.490 . S
C2320 H2310 0.930 . S
C2320 C2319 1.400 . S
C2320 C2323 1.386 . S
H2321 C2337 0.930 . S
H2322 C2338 0.931 . S
C2323 H2311 0.929 . S
C2323 C2317 1.390 . S
C2323 C2320 1.386 . S
C2324 C2319 1.490 . S
C2324 C2326 1.395 . S
C2324 C2327 1.403 . S
H2325 C2331 0.930 . S
C2326 H2312 0.930 . S
C2326 C2324 1.395 . S
C2326 C2329 1.403 . S
C2327 C2324 1.403 . S
C2327 C2328 1.524 . S
C2327 C2331 1.400 . S
C2328 H2313 0.960 . S
C2328 H2314 0.960 . S
C2328 H2315 0.960 . S
C2328 C2327 1.524 . S
C2329 C2326 1.403 . S
C2329 C2330 1.392 . S
C2329 C2333 1.495 . S
C2330 C2329 1.392 . S
C2330 C2331 1.385 . S
C2330 C2332 1.478 . S
C2331 H2325 0.930 . S
C2331 C2327 1.400 . S
C2331 C2330 1.385 . S
C2332 C2330 1.478 . S
C2332 C2334 1.381 . S
C2332 C2338 1.383 . S
C2333 C2329 1.495 . S
C2333 H2339 0.959 . S
C2333 H2340 0.961 . S
C2333 H2341 0.960 . S
C2334 C2332 1.381 . S
C2334 C2335 1.394 . S
C2334 H2342 0.930 . S
C2335 C2334 1.394 . S
C2335 C2336 1.383 . S
C2335 H2343 0.929 . S
C2336 C2335 1.383 . S
C2336 C2337 1.377 . S
C2337 H2321 0.930 . S
C2337 C2336 1.377 . S
C2337 C2338 1.379 . S
C2338 H2322 0.931 . S
C2338 C2332 1.383 . S
C2338 C2337 1.379 . S
H2339 C2333 0.959 . S
H2340 C2333 0.961 . S
H2341 C2333 0.960 . S
H2342 C2334 0.930 . S
H2343 C2335 0.929 . S
H2344 C2352 0.929 . S
H2345 C2354 0.930 . S
H2346 C2356 0.930 . S
H2347 C2359 0.929 . S
H2348 C2362 0.930 . S
H2349 C2364 0.960 . S
H2350 C2364 0.960 . S
H2351 C2364 0.960 . S
C2352 H2344 0.929 . S
C2352 C2353 1.377 . S
C2352 C2354 1.384 . S
C2353 C2352 1.377 . S
C2353 C2359 1.390 1_545 S
C2354 H2345 0.930 . S
C2354 C2352 1.384 . S
C2354 C2355 1.372 . S
C2355 C2354 1.372 . S
C2355 C2356 1.400 1_545 S
C2355 C2360 1.490 . S
C2356 H2346 0.930 . S
C2356 C2355 1.400 1_565 S
C2356 C2359 1.386 . S
H2357 C2373 0.930 . S
H2358 C2374 0.931 . S
C2359 H2347 0.929 . S
C2359 C2353 1.390 1_565 S
C2359 C2356 1.386 . S
C2360 C2355 1.490 . S
C2360 C2362 1.395 1_545 S
C2360 C2363 1.403 . S
H2361 C2367 0.930 . S
C2362 H2348 0.930 . S
C2362 C2360 1.395 1_565 S
C2362 C2365 1.403 . S
C2363 C2360 1.403 . S
C2363 C2364 1.524 . S
C2363 C2367 1.400 . S
C2364 H2349 0.960 . S
C2364 H2350 0.960 . S
C2364 H2351 0.960 . S
C2364 C2363 1.524 . S
C2365 C2362 1.403 . S
C2365 C2366 1.392 1_565 S
C2365 C2369 1.495 . S
C2366 C2365 1.392 1_545 S
C2366 C2367 1.385 . S
C2366 C2368 1.478 . S
C2367 H2361 0.930 . S
C2367 C2363 1.400 . S
C2367 C2366 1.385 . S
C2368 C2366 1.478 . S
C2368 C2370 1.381 . S
C2368 C2374 1.383 1_545 S
C2369 C2365 1.495 . S
C2369 H2375 0.959 . S
C2369 H2376 0.961 . S
C2369 H2377 0.960 1_565 S
C2370 C2368 1.381 . S
C2370 C2371 1.394 . S
C2370 H2378 0.930 . S
C2371 C2370 1.394 . S
C2371 C2372 1.383 . S
C2371 H2379 0.929 . S
C2372 C2371 1.383 . S
C2372 C2373 1.377 1_545 S
C2373 H2357 0.930 . S
C2373 C2372 1.377 1_565 S
C2373 C2374 1.379 . S
C2374 H2358 0.931 . S
C2374 C2368 1.383 1_565 S
C2374 C2373 1.379 . S
H2375 C2369 0.959 . S
H2376 C2369 0.961 . S
H2377 C2369 0.960 1_545 S
H2378 C2370 0.930 . S
H2379 C2371 0.929 . S
H2380 C2388 0.929 . S
H2381 C2390 0.930 . S
H2382 C2392 0.930 . S
H2383 C2395 0.929 . S
H2384 C2398 0.930 . S
H2385 C2400 0.960 . S
H2386 C2400 0.960 . S
H2387 C2400 0.960 . S
C2388 H2380 0.929 . S
C2388 C2389 1.377 . S
C2388 C2390 1.384 . S
C2389 C2388 1.377 . S
C2389 C2395 1.390 . S
C2390 H2381 0.930 . S
C2390 C2388 1.384 . S
C2390 C2391 1.372 . S
C2391 C2390 1.372 . S
C2391 C2392 1.400 . S
C2391 C2396 1.490 . S
C2392 H2382 0.930 . S
C2392 C2391 1.400 . S
C2392 C2395 1.386 . S
H2393 C2409 0.930 . S
H2394 C2410 0.931 . S
C2395 H2383 0.929 . S
C2395 C2389 1.390 . S
C2395 C2392 1.386 . S
C2396 C2391 1.490 . S
C2396 C2398 1.395 . S
C2396 C2399 1.403 . S
H2397 C2403 0.930 . S
C2398 H2384 0.930 . S
C2398 C2396 1.395 . S
C2398 C2401 1.403 . S
C2399 C2396 1.403 . S
C2399 C2400 1.524 . S
C2399 C2403 1.400 . S
C2400 H2385 0.960 . S
C2400 H2386 0.960 . S
C2400 H2387 0.960 . S
C2400 C2399 1.524 . S
C2401 C2398 1.403 . S
C2401 C2402 1.392 . S
C2401 C2405 1.495 . S
C2402 C2401 1.392 . S
C2402 C2403 1.385 . S
C2402 C2404 1.478 . S
C2403 H2397 0.930 . S
C2403 C2399 1.400 . S
C2403 C2402 1.385 . S
C2404 C2402 1.478 . S
C2404 C2406 1.381 . S
C2404 C2410 1.383 . S
C2405 C2401 1.495 . S
C2405 H2411 0.959 . S
C2405 H2412 0.961 . S
C2405 H2413 0.960 . S
C2406 C2404 1.381 . S
C2406 C2407 1.394 . S
C2406 H2414 0.930 . S
C2407 C2406 1.394 . S
C2407 C2408 1.383 . S
C2407 H2415 0.929 . S
C2408 C2407 1.383 . S
C2408 C2409 1.377 . S
C2409 H2393 0.930 . S
C2409 C2408 1.377 . S
C2409 C2410 1.379 . S
C2410 H2394 0.931 . S
C2410 C2404 1.383 . S
C2410 C2409 1.379 . S
H2411 C2405 0.959 . S
H2412 C2405 0.961 . S
H2413 C2405 0.960 . S
H2414 C2406 0.930 . S
H2415 C2407 0.929 . S
H2416 C2424 0.929 . S
H2417 C2426 0.930 . S
H2418 C2428 0.930 . S
H2419 C2431 0.929 . S
H2420 C2434 0.930 . S
H2421 C2436 0.960 . S
H2422 C2436 0.972 . S
H2423 C2436 0.948 1_554 S
C2424 H2416 0.929 . S
C2424 C2425 1.377 1_556 S
C2424 C2426 1.384 . S
C2425 C2424 1.377 1_554 S
C2425 C2431 1.390 . S
C2426 H2417 0.930 . S
C2426 C2424 1.384 . S
C2426 C2427 1.372 1_556 S
C2427 C2426 1.372 1_554 S
C2427 C2428 1.400 . S
C2427 C2432 1.490 . S
C2428 H2418 0.930 . S
C2428 C2427 1.400 . S
C2428 C2431 1.386 . S
H2429 C2445 0.930 . S
H2430 C2446 0.931 . S
C2431 H2419 0.929 . S
C2431 C2425 1.390 . S
C2431 C2428 1.386 . S
C2432 C2427 1.490 . S
C2432 C2434 1.395 . S
C2432 C2435 1.403 . S
H2433 C2439 0.930 . S
C2434 H2420 0.930 . S
C2434 C2432 1.395 . S
C2434 C2437 1.403 . S
C2435 C2432 1.403 . S
C2435 C2436 1.524 1_554 S
C2435 C2439 1.400 . S
C2436 H2421 0.960 . S
C2436 H2422 0.972 . S
C2436 H2423 0.948 1_556 S
C2436 C2435 1.524 1_556 S
C2437 C2434 1.403 . S
C2437 C2438 1.392 . S
C2437 C2441 1.495 . S
C2438 C2437 1.392 . S
C2438 C2439 1.385 . S
C2438 C2440 1.478 . S
C2439 H2433 0.930 . S
C2439 C2435 1.400 . S
C2439 C2438 1.385 . S
C2440 C2438 1.478 . S
C2440 C2442 1.381 1_554 S
C2440 C2446 1.383 . S
C2441 C2437 1.495 . S
C2441 H2447 0.959 . S
C2441 H2448 0.961 . S
C2441 H2449 0.957 . S
C2442 C2440 1.381 1_556 S
C2442 C2443 1.394 . S
C2442 H2450 0.930 . S
C2443 C2442 1.394 . S
C2443 C2444 1.383 1_556 S
C2443 H2451 0.929 . S
C2444 C2443 1.383 1_554 S
C2444 C2445 1.377 . S
C2445 H2429 0.930 . S
C2445 C2444 1.377 . S
C2445 C2446 1.379 . S
C2446 H2430 0.931 . S
C2446 C2440 1.383 . S
C2446 C2445 1.379 . S
H2447 C2441 0.959 . S
H2448 C2441 0.961 . S
H2449 C2441 0.957 . S
H2450 C2442 0.930 . S
H2451 C2443 0.929 . S
H2452 C2460 0.929 . S
H2453 C2462 0.930 . S
H2454 C2464 0.930 1_556 S
H2455 C2467 0.929 1_556 S
H2456 C2470 0.930 . S
H2457 C2472 0.960 . S
H2458 C2472 0.958 1_554 S
H2459 C2472 0.960 . S
C2460 H2452 0.929 . S
C2460 C2461 1.377 . S
C2460 C2462 1.384 . S
C2461 C2460 1.377 . S
C2461 C2467 1.390 . S
C2462 H2453 0.930 . S
C2462 C2460 1.384 . S
C2462 C2463 1.372 . S
C2463 C2462 1.372 . S
C2463 C2464 1.400 . S
C2463 C2468 1.490 . S
C2464 H2454 0.930 1_554 S
C2464 C2463 1.400 . S
C2464 C2467 1.386 . S
H2465 C2481 0.874 1_556 S
H2466 C2482 0.931 1_556 S
C2467 H2455 0.929 1_554 S
C2467 C2461 1.390 . S
C2467 C2464 1.386 . S
C2468 C2463 1.490 . S
C2468 C2470 1.395 . S
C2468 C2471 1.403 . S
H2469 C2475 0.930 1_556 S
C2470 H2456 0.930 . S
C2470 C2468 1.395 . S
C2470 C2473 1.403 . S
C2471 C2468 1.403 . S
C2471 C2472 1.524 1_554 S
C2471 C2475 1.400 . S
C2472 H2457 0.960 . S
C2472 H2458 0.958 1_556 S
C2472 H2459 0.960 . S
C2472 C2471 1.524 1_556 S
C2473 C2470 1.403 . S
C2473 C2474 1.392 . S
C2473 C2477 1.495 . S
C2474 C2473 1.392 . S
C2474 C2475 1.385 . S
C2474 C2476 1.478 . S
C2475 H2469 0.930 1_554 S
C2475 C2471 1.400 . S
C2475 C2474 1.385 . S
C2476 C2474 1.478 . S
C2476 C2478 1.381 . S
C2476 C2482 1.383 . S
C2477 C2473 1.495 . S
C2477 H2483 0.959 . S
C2477 H2484 0.961 . S
C2477 H2485 0.960 . S
C2478 C2476 1.381 . S
C2478 C2479 1.394 . S
C2478 H2486 0.930 . S
C2479 C2478 1.394 . S
C2479 C2480 1.383 . S
C2479 H2487 0.929 . S
C2480 C2479 1.383 . S
C2480 C2481 1.417 . S
C2481 H2465 0.874 1_554 S
C2481 C2480 1.417 . S
C2481 C2482 1.397 . S
C2482 H2466 0.931 1_554 S
C2482 C2476 1.383 . S
C2482 C2481 1.397 . S
H2483 C2477 0.959 . S
H2484 C2477 0.961 . S
H2485 C2477 0.960 . S
H2486 C2478 0.930 . S
H2487 C2479 0.929 . S
H2488 C2496 0.929 . S
H2489 C2498 0.930 . S
H2490 C2500 0.930 . S
H2491 C2503 0.929 . S
H2492 C2506 0.930 . S
H2493 C2508 0.960 . S
H2494 C2508 0.960 . S
H2495 C2508 0.960 . S
C2496 H2488 0.929 . S
C2496 C2497 1.377 . S
C2496 C2498 1.384 . S
C2497 C2496 1.377 . S
C2497 C2503 1.390 . S
C2498 H2489 0.930 . S
C2498 C2496 1.384 . S
C2498 C2499 1.372 . S
C2499 C2498 1.372 . S
C2499 C2500 1.400 . S
C2499 C2504 1.490 . S
C2500 H2490 0.930 . S
C2500 C2499 1.400 . S
C2500 C2503 1.386 . S
H2501 C2517 0.930 . S
H2502 C2518 0.931 . S
C2503 H2491 0.929 . S
C2503 C2497 1.390 . S
C2503 C2500 1.386 . S
C2504 C2499 1.490 . S
C2504 C2506 1.395 . S
C2504 C2507 1.403 . S
H2505 C2511 0.930 . S
C2506 H2492 0.930 . S
C2506 C2504 1.395 . S
C2506 C2509 1.403 . S
C2507 C2504 1.403 . S
C2507 C2508 1.524 . S
C2507 C2511 1.400 . S
C2508 H2493 0.960 . S
C2508 H2494 0.960 . S
C2508 H2495 0.960 . S
C2508 C2507 1.524 . S
C2509 C2506 1.403 . S
C2509 C2510 1.392 . S
C2509 C2513 1.495 . S
C2510 C2509 1.392 . S
C2510 C2511 1.385 . S
C2510 C2512 1.478 . S
C2511 H2505 0.930 . S
C2511 C2507 1.400 . S
C2511 C2510 1.385 . S
C2512 C2510 1.478 . S
C2512 C2514 1.381 . S
C2512 C2518 1.383 . S
C2513 C2509 1.495 . S
C2513 H2519 0.959 . S
C2513 H2520 0.961 . S
C2513 H2521 0.960 . S
C2514 C2512 1.381 . S
C2514 C2515 1.394 . S
C2514 H2522 0.930 . S
C2515 C2514 1.394 . S
C2515 C2516 1.383 . S
C2515 H2523 0.929 . S
C2516 C2515 1.383 . S
C2516 C2517 1.377 . S
C2517 H2501 0.930 . S
C2517 C2516 1.377 . S
C2517 C2518 1.379 . S
C2518 H2502 0.931 . S
C2518 C2512 1.383 . S
C2518 C2517 1.379 . S
H2519 C2513 0.959 . S
H2520 C2513 0.961 . S
H2521 C2513 0.960 . S
H2522 C2514 0.930 . S
H2523 C2515 0.929 . S
H2524 C2532 0.929 . S
H2525 C2534 0.930 . S
H2526 C2536 0.930 . S
H2527 C2539 0.929 . S
H2528 C2542 0.930 . S
H2529 C2544 0.960 . S
H2530 C2544 0.960 . S
H2531 C2544 0.960 . S
C2532 H2524 0.929 . S
C2532 C2533 1.377 . S
C2532 C2534 1.384 . S
C2533 C2532 1.377 . S
C2533 C2539 1.390 . S
C2534 H2525 0.930 . S
C2534 C2532 1.384 . S
C2534 C2535 1.372 . S
C2535 C2534 1.372 . S
C2535 C2536 1.400 . S
C2535 C2540 1.490 . S
C2536 H2526 0.930 . S
C2536 C2535 1.400 . S
C2536 C2539 1.386 . S
H2537 C2553 0.930 . S
H2538 C2554 0.931 . S
C2539 H2527 0.929 . S
C2539 C2533 1.390 . S
C2539 C2536 1.386 . S
C2540 C2535 1.490 . S
C2540 C2542 1.395 . S
C2540 C2543 1.403 . S
H2541 C2547 0.930 . S
C2542 H2528 0.930 . S
C2542 C2540 1.395 . S
C2542 C2545 1.403 . S
C2543 C2540 1.403 . S
C2543 C2544 1.524 . S
C2543 C2547 1.400 . S
C2544 H2529 0.960 . S
C2544 H2530 0.960 . S
C2544 H2531 0.960 . S
C2544 C2543 1.524 . S
C2545 C2542 1.403 . S
C2545 C2546 1.392 . S
C2545 C2549 1.495 . S
C2546 C2545 1.392 . S
C2546 C2547 1.385 . S
C2546 C2548 1.478 . S
C2547 H2541 0.930 . S
C2547 C2543 1.400 . S
C2547 C2546 1.385 . S
C2548 C2546 1.478 . S
C2548 C2550 1.381 . S
C2548 C2554 1.383 . S
C2549 C2545 1.495 . S
C2549 H2555 0.959 . S
C2549 H2556 0.961 . S
C2549 H2557 0.960 . S
C2550 C2548 1.381 . S
C2550 C2551 1.394 . S
C2550 H2558 0.930 . S
C2551 C2550 1.394 . S
C2551 C2552 1.383 . S
C2551 H2559 0.929 . S
C2552 C2551 1.383 . S
C2552 C2553 1.377 . S
C2553 H2537 0.930 . S
C2553 C2552 1.377 . S
C2553 C2554 1.379 . S
C2554 H2538 0.931 . S
C2554 C2548 1.383 . S
C2554 C2553 1.379 . S
H2555 C2549 0.959 . S
H2556 C2549 0.961 . S
H2557 C2549 0.960 . S
H2558 C2550 0.930 . S
H2559 C2551 0.929 . S
H2560 C2568 0.929 . S
H2561 C2570 0.930 . S
H2562 C2572 0.930 . S
H2563 C2575 0.929 . S
H2564 C2578 0.930 . S
H2565 C2580 0.960 . S
H2566 C2580 0.960 . S
H2567 C2580 0.960 . S
C2568 H2560 0.929 . S
C2568 C2569 1.376 . S
C2568 C2570 1.384 1_545 S
C2569 C2568 1.376 . S
C2569 C2575 1.373 1_545 S
C2570 H2561 0.930 . S
C2570 C2568 1.384 1_565 S
C2570 C2571 1.372 . S
C2571 C2570 1.372 . S
C2571 C2572 1.400 . S
C2571 C2576 1.490 . S
C2572 H2562 0.930 . S
C2572 C2571 1.400 . S
C2572 C2575 1.386 . S
H2573 C2589 0.930 . S
H2574 C2590 0.931 . S
C2575 H2563 0.929 . S
C2575 C2569 1.373 1_565 S
C2575 C2572 1.386 . S
C2576 C2571 1.490 . S
C2576 C2578 1.395 . S
C2576 C2579 1.403 . S
H2577 C2583 0.930 . S
C2578 H2564 0.930 . S
C2578 C2576 1.395 . S
C2578 C2581 1.403 . S
C2579 C2576 1.403 . S
C2579 C2580 1.524 . S
C2579 C2583 1.400 . S
C2580 H2565 0.960 . S
C2580 H2566 0.960 . S
C2580 H2567 0.960 . S
C2580 C2579 1.524 . S
C2581 C2578 1.403 . S
C2581 C2582 1.392 . S
C2581 C2585 1.495 . S
C2582 C2581 1.392 . S
C2582 C2583 1.385 . S
C2582 C2584 1.478 . S
C2583 H2577 0.930 . S
C2583 C2579 1.400 . S
C2583 C2582 1.385 . S
C2584 C2582 1.478 . S
C2584 C2586 1.381 . S
C2584 C2590 1.383 . S
C2585 C2581 1.495 . S
C2585 H2591 0.959 . S
C2585 H2592 0.961 . S
C2585 H2593 0.960 . S
C2586 C2584 1.381 . S
C2586 C2587 1.394 . S
C2586 H2594 0.930 . S
C2587 C2586 1.394 . S
C2587 C2588 1.383 . S
C2587 H2595 0.929 . S
C2588 C2587 1.383 . S
C2588 C2589 1.377 . S
C2589 H2573 0.930 . S
C2589 C2588 1.377 . S
C2589 C2590 1.379 . S
C2590 H2574 0.931 . S
C2590 C2584 1.383 . S
C2590 C2589 1.379 . S
H2591 C2585 0.959 . S
H2592 C2585 0.961 . S
H2593 C2585 0.960 . S
H2594 C2586 0.930 . S
H2595 C2587 0.929 . S
H2596 C2604 0.929 . S
H2597 C2606 0.930 . S
H2598 C2608 0.930 . S
H2599 C2611 0.929 . S
H2600 C2614 0.930 . S
H2601 C2616 0.960 . S
H2602 C2616 0.960 . S
H2603 C2616 0.960 . S
C2604 H2596 0.929 . S
C2604 C2605 1.377 . S
C2604 C2606 1.384 . S
C2605 C2604 1.377 . S
C2605 C2611 1.390 . S
C2606 H2597 0.930 . S
C2606 C2604 1.384 . S
C2606 C2607 1.372 . S
C2607 C2606 1.372 . S
C2607 C2608 1.400 . S
C2607 C2612 1.490 . S
C2608 H2598 0.930 . S
C2608 C2607 1.400 . S
C2608 C2611 1.386 . S
H2609 C2625 0.930 . S
H2610 C2626 0.931 . S
C2611 H2599 0.929 . S
C2611 C2605 1.390 . S
C2611 C2608 1.386 . S
C2612 C2607 1.490 . S
C2612 C2614 1.395 . S
C2612 C2615 1.403 . S
H2613 C2619 0.930 . S
C2614 H2600 0.930 . S
C2614 C2612 1.395 . S
C2614 C2617 1.403 . S
C2615 C2612 1.403 . S
C2615 C2616 1.524 . S
C2615 C2619 1.400 . S
C2616 H2601 0.960 . S
C2616 H2602 0.960 . S
C2616 H2603 0.960 . S
C2616 C2615 1.524 . S
C2617 C2614 1.403 . S
C2617 C2618 1.392 . S
C2617 C2621 1.495 . S
C2618 C2617 1.392 . S
C2618 C2619 1.385 . S
C2618 C2620 1.478 . S
C2619 H2613 0.930 . S
C2619 C2615 1.400 . S
C2619 C2618 1.385 . S
C2620 C2618 1.478 . S
C2620 C2622 1.381 . S
C2620 C2626 1.383 . S
C2621 C2617 1.495 . S
C2621 H2627 0.959 . S
C2621 H2628 0.961 . S
C2621 H2629 0.960 . S
C2622 C2620 1.381 . S
C2622 C2623 1.394 . S
C2622 H2630 0.930 . S
C2623 C2622 1.394 . S
C2623 C2624 1.383 . S
C2623 H2631 0.929 . S
C2624 C2623 1.383 . S
C2624 C2625 1.377 . S
C2625 H2609 0.930 . S
C2625 C2624 1.377 . S
C2625 C2626 1.379 . S
C2626 H2610 0.931 . S
C2626 C2620 1.383 . S
C2626 C2625 1.379 . S
H2627 C2621 0.959 . S
H2628 C2621 0.961 . S
H2629 C2621 0.960 . S
H2630 C2622 0.930 . S
H2631 C2623 0.929 . S
H2632 C2640 0.929 . S
H2633 C2642 0.930 . S
H2634 C2644 0.930 . S
H2635 C2647 0.929 . S
H2636 C2650 0.930 . S
H2637 C2652 0.960 . S
H2638 C2652 0.960 . S
H2639 C2652 0.960 . S
C2640 H2632 0.929 . S
C2640 C2641 1.377 . S
C2640 C2642 1.384 . S
C2641 C2640 1.377 . S
C2641 C2647 1.390 . S
C2642 H2633 0.930 . S
C2642 C2640 1.384 . S
C2642 C2643 1.372 . S
C2643 C2642 1.372 . S
C2643 C2644 1.400 . S
C2643 C2648 1.490 . S
C2644 H2634 0.930 . S
C2644 C2643 1.400 . S
C2644 C2647 1.386 . S
H2645 C2661 0.930 . S
H2646 C2662 0.931 . S
C2647 H2635 0.929 . S
C2647 C2641 1.390 . S
C2647 C2644 1.386 . S
C2648 C2643 1.490 . S
C2648 C2650 1.395 . S
C2648 C2651 1.403 . S
H2649 C2655 0.930 . S
C2650 H2636 0.930 . S
C2650 C2648 1.395 . S
C2650 C2653 1.403 . S
C2651 C2648 1.403 . S
C2651 C2652 1.524 . S
C2651 C2655 1.400 . S
C2652 H2637 0.960 . S
C2652 H2638 0.960 . S
C2652 H2639 0.960 . S
C2652 C2651 1.524 . S
C2653 C2650 1.403 . S
C2653 C2654 1.392 . S
C2653 C2657 1.495 . S
C2654 C2653 1.392 . S
C2654 C2655 1.385 . S
C2654 C2656 1.478 . S
C2655 H2649 0.930 . S
C2655 C2651 1.400 . S
C2655 C2654 1.385 . S
C2656 C2654 1.478 . S
C2656 C2658 1.381 . S
C2656 C2662 1.383 . S
C2657 C2653 1.495 . S
C2657 H2663 0.959 . S
C2657 H2664 0.961 . S
C2657 H2665 0.960 . S
C2658 C2656 1.381 . S
C2658 C2659 1.394 . S
C2658 H2666 0.930 . S
C2659 C2658 1.394 . S
C2659 C2660 1.383 . S
C2659 H2667 0.929 . S
C2660 C2659 1.383 . S
C2660 C2661 1.377 . S
C2661 H2645 0.930 . S
C2661 C2660 1.377 . S
C2661 C2662 1.379 . S
C2662 H2646 0.931 . S
C2662 C2656 1.383 . S
C2662 C2661 1.379 . S
H2663 C2657 0.959 . S
H2664 C2657 0.961 . S
H2665 C2657 0.960 . S
H2666 C2658 0.930 . S
H2667 C2659 0.929 . S
H2668 C2676 0.929 . S
H2669 C2678 0.930 . S
H2670 C2680 0.930 . S
H2671 C2683 0.929 . S
H2672 C2686 0.930 . S
H2673 C2688 0.960 . S
H2674 C2688 0.960 . S
H2675 C2688 0.960 . S
C2676 H2668 0.929 . S
C2676 C2677 1.377 . S
C2676 C2678 1.384 . S
C2677 C2676 1.377 . S
C2677 C2683 1.390 . S
C2678 H2669 0.930 . S
C2678 C2676 1.384 . S
C2678 C2679 1.372 . S
C2679 C2678 1.372 . S
C2679 C2680 1.400 . S
C2679 C2684 1.490 . S
C2680 H2670 0.930 . S
C2680 C2679 1.400 . S
C2680 C2683 1.386 . S
H2681 C2697 0.930 . S
H2682 C2698 0.931 . S
C2683 H2671 0.929 . S
C2683 C2677 1.390 . S
C2683 C2680 1.386 . S
C2684 C2679 1.490 . S
C2684 C2686 1.395 . S
C2684 C2687 1.403 . S
H2685 C2691 0.930 . S
C2686 H2672 0.930 . S
C2686 C2684 1.395 . S
C2686 C2689 1.403 . S
C2687 C2684 1.403 . S
C2687 C2688 1.524 . S
C2687 C2691 1.400 . S
C2688 H2673 0.960 . S
C2688 H2674 0.960 . S
C2688 H2675 0.960 . S
C2688 C2687 1.524 . S
C2689 C2686 1.403 . S
C2689 C2690 1.392 . S
C2689 C2693 1.495 . S
C2690 C2689 1.392 . S
C2690 C2691 1.385 . S
C2690 C2692 1.478 . S
C2691 H2685 0.930 . S
C2691 C2687 1.400 . S
C2691 C2690 1.385 . S
C2692 C2690 1.478 . S
C2692 C2694 1.381 . S
C2692 C2698 1.383 . S
C2693 C2689 1.495 . S
C2693 H2699 0.959 . S
C2693 H2700 0.961 . S
C2693 H2701 0.960 . S
C2694 C2692 1.381 . S
C2694 C2695 1.394 . S
C2694 H2702 0.930 . S
C2695 C2694 1.394 . S
C2695 C2696 1.383 . S
C2695 H2703 0.929 . S
C2696 C2695 1.383 . S
C2696 C2697 1.377 . S
C2697 H2681 0.930 . S
C2697 C2696 1.377 . S
C2697 C2698 1.379 . S
C2698 H2682 0.931 . S
C2698 C2692 1.383 . S
C2698 C2697 1.379 . S
H2699 C2693 0.959 . S
H2700 C2693 0.961 . S
H2701 C2693 0.960 . S
H2702 C2694 0.930 . S
H2703 C2695 0.929 . S
H2704 C2712 0.929 . S
H2705 C2714 0.930 . S
H2706 C2716 0.930 . S
H2707 C2719 0.929 . S
H2708 C2722 0.930 . S
H2709 C2724 0.960 . S
H2710 C2724 0.960 . S
H2711 C2724 0.960 . S
C2712 H2704 0.929 . S
C2712 C2713 1.377 . S
C2712 C2714 1.384 . S
C2713 C2712 1.377 . S
C2713 C2719 1.390 . S
C2714 H2705 0.930 . S
C2714 C2712 1.384 . S
C2714 C2715 1.372 . S
C2715 C2714 1.372 . S
C2715 C2716 1.400 . S
C2715 C2720 1.490 . S
C2716 H2706 0.930 . S
C2716 C2715 1.400 . S
C2716 C2719 1.386 . S
H2717 C2733 0.930 . S
H2718 C2734 0.931 . S
C2719 H2707 0.929 . S
C2719 C2713 1.390 . S
C2719 C2716 1.386 . S
C2720 C2715 1.490 . S
C2720 C2722 1.395 . S
C2720 C2723 1.403 . S
H2721 C2727 0.930 . S
C2722 H2708 0.930 . S
C2722 C2720 1.395 . S
C2722 C2725 1.403 . S
C2723 C2720 1.403 . S
C2723 C2724 1.524 . S
C2723 C2727 1.400 . S
C2724 H2709 0.960 . S
C2724 H2710 0.960 . S
C2724 H2711 0.960 . S
C2724 C2723 1.524 . S
C2725 C2722 1.403 . S
C2725 C2726 1.392 . S
C2725 C2729 1.495 . S
C2726 C2725 1.392 . S
C2726 C2727 1.385 . S
C2726 C2728 1.478 . S
C2727 H2721 0.930 . S
C2727 C2723 1.400 . S
C2727 C2726 1.385 . S
C2728 C2726 1.478 . S
C2728 C2730 1.381 . S
C2728 C2734 1.383 . S
C2729 C2725 1.495 . S
C2729 H2735 0.959 . S
C2729 H2736 0.961 . S
C2729 H2737 0.960 . S
C2730 C2728 1.381 . S
C2730 C2731 1.394 . S
C2730 H2738 0.930 . S
C2731 C2730 1.394 . S
C2731 C2732 1.383 . S
C2731 H2739 0.929 . S
C2732 C2731 1.383 . S
C2732 C2733 1.377 . S
C2733 H2717 0.930 . S
C2733 C2732 1.377 . S
C2733 C2734 1.379 . S
C2734 H2718 0.931 . S
C2734 C2728 1.383 . S
C2734 C2733 1.379 . S
H2735 C2729 0.959 . S
H2736 C2729 0.961 . S
H2737 C2729 0.960 . S
H2738 C2730 0.930 . S
H2739 C2731 0.929 . S
H2740 C2748 0.929 . S
H2741 C2750 0.930 . S
H2742 C2752 0.930 . S
H2743 C2755 0.929 . S
H2744 C2758 0.930 . S
H2745 C2760 0.960 . S
H2746 C2760 0.960 . S
H2747 C2760 0.960 . S
C2748 H2740 0.929 . S
C2748 C2749 1.377 . S
C2748 C2750 1.384 . S
C2749 C2748 1.377 . S
C2749 C2755 1.390 . S
C2750 H2741 0.930 . S
C2750 C2748 1.384 . S
C2750 C2751 1.372 . S
C2751 C2750 1.372 . S
C2751 C2752 1.400 . S
C2751 C2756 1.490 . S
C2752 H2742 0.930 . S
C2752 C2751 1.400 . S
C2752 C2755 1.386 . S
H2753 C2769 0.930 . S
H2754 C2770 0.931 . S
C2755 H2743 0.929 . S
C2755 C2749 1.390 . S
C2755 C2752 1.386 . S
C2756 C2751 1.490 . S
C2756 C2758 1.395 . S
C2756 C2759 1.403 . S
H2757 C2763 0.930 . S
C2758 H2744 0.930 . S
C2758 C2756 1.395 . S
C2758 C2761 1.403 . S
C2759 C2756 1.403 . S
C2759 C2760 1.524 . S
C2759 C2763 1.400 . S
C2760 H2745 0.960 . S
C2760 H2746 0.960 . S
C2760 H2747 0.960 . S
C2760 C2759 1.524 . S
C2761 C2758 1.403 . S
C2761 C2762 1.392 . S
C2761 C2765 1.495 . S
C2762 C2761 1.392 . S
C2762 C2763 1.385 . S
C2762 C2764 1.478 . S
C2763 H2757 0.930 . S
C2763 C2759 1.400 . S
C2763 C2762 1.385 . S
C2764 C2762 1.478 . S
C2764 C2766 1.381 . S
C2764 C2770 1.383 . S
C2765 C2761 1.495 . S
C2765 H2771 0.959 . S
C2765 H2772 0.961 . S
C2765 H2773 0.960 . S
C2766 C2764 1.381 . S
C2766 C2767 1.394 . S
C2766 H2774 0.930 . S
C2767 C2766 1.394 . S
C2767 C2768 1.383 . S
C2767 H2775 0.929 . S
C2768 C2767 1.383 . S
C2768 C2769 1.377 . S
C2769 H2753 0.930 . S
C2769 C2768 1.377 . S
C2769 C2770 1.379 . S
C2770 H2754 0.931 . S
C2770 C2764 1.383 . S
C2770 C2769 1.379 . S
H2771 C2765 0.959 . S
H2772 C2765 0.961 . S
H2773 C2765 0.960 . S
H2774 C2766 0.930 . S
H2775 C2767 0.929 . S
H2776 C2784 0.929 . S
H2777 C2786 0.930 . S
H2778 C2788 0.930 . S
H2779 C2791 0.929 . S
H2780 C2794 0.930 1_655 S
H2781 C2796 0.960 . S
H2782 C2796 0.960 . S
H2783 C2796 0.960 . S
C2784 H2776 0.929 . S
C2784 C2785 1.377 . S
C2784 C2786 1.384 . S
C2785 C2784 1.377 . S
C2785 C2791 1.390 . S
C2786 H2777 0.930 . S
C2786 C2784 1.384 . S
C2786 C2787 1.372 . S
C2787 C2786 1.372 . S
C2787 C2788 1.400 . S
C2787 C2792 1.490 . S
C2788 H2778 0.930 . S
C2788 C2787 1.400 . S
C2788 C2791 1.386 . S
H2789 C2805 0.930 . S
H2790 C2806 0.931 1_554 S
C2791 H2779 0.929 . S
C2791 C2785 1.390 . S
C2791 C2788 1.386 . S
C2792 C2787 1.490 . S
C2792 C2794 1.395 . S
C2792 C2795 1.403 . S
H2793 C2799 0.930 . S
C2794 H2780 0.930 1_455 S
C2794 C2792 1.395 . S
C2794 C2797 1.403 . S
C2795 C2792 1.403 . S
C2795 C2796 1.524 . S
C2795 C2799 1.400 . S
C2796 H2781 0.960 . S
C2796 H2782 0.960 . S
C2796 H2783 0.960 . S
C2796 C2795 1.524 . S
C2797 C2794 1.403 . S
C2797 C2798 1.392 . S
C2797 C2801 1.495 1_455 S
C2798 C2797 1.392 . S
C2798 C2799 1.385 . S
C2798 C2800 1.478 . S
C2799 H2793 0.930 . S
C2799 C2795 1.400 . S
C2799 C2798 1.385 . S
C2800 C2798 1.478 . S
C2800 C2802 1.381 . S
C2800 C2806 1.383 . S
C2801 C2797 1.495 1_655 S
C2801 H2807 0.959 . S
C2801 H2808 0.961 . S
C2801 H2809 0.960 . S
C2802 C2800 1.381 . S
C2802 C2803 1.394 . S
C2802 H2810 0.930 . S
C2803 C2802 1.394 . S
C2803 C2804 1.335 1_556 S
C2803 H2811 0.929 . S
C2804 C2803 1.335 1_554 S
C2804 C2805 1.407 . S
C2805 H2789 0.930 . S
C2805 C2804 1.407 . S
C2805 C2806 1.379 1_554 S
C2806 H2790 0.931 1_556 S
C2806 C2800 1.383 . S
C2806 C2805 1.379 1_556 S
H2807 C2801 0.959 . S
H2808 C2801 0.961 . S
H2809 C2801 0.960 . S
H2810 C2802 0.930 . S
H2811 C2803 0.929 . S
H2812 C2820 0.929 . S
H2813 C2822 0.930 . S
H2814 C2824 0.930 . S
H2815 C2827 0.929 . S
H2816 C2830 0.930 . S
H2817 C2832 0.960 . S
H2818 C2832 0.960 . S
H2819 C2832 0.960 . S
C2820 H2812 0.929 . S
C2820 C2821 1.377 . S
C2820 C2822 1.384 1_455 S
C2821 C2820 1.377 . S
C2821 C2827 1.390 . S
C2822 H2813 0.930 . S
C2822 C2820 1.384 1_655 S
C2822 C2823 1.372 . S
C2823 C2822 1.372 . S
C2823 C2824 1.400 . S
C2823 C2828 1.490 . S
C2824 H2814 0.930 . S
C2824 C2823 1.400 . S
C2824 C2827 1.386 1_655 S
H2825 C2841 0.930 . S
H2826 C2842 0.931 . S
C2827 H2815 0.929 . S
C2827 C2821 1.390 . S
C2827 C2824 1.386 1_455 S
C2828 C2823 1.490 . S
C2828 C2830 1.395 . S
C2828 C2831 1.403 . S
H2829 C2835 0.930 . S
C2830 H2816 0.930 . S
C2830 C2828 1.395 . S
C2830 C2833 1.403 . S
C2831 C2828 1.403 . S
C2831 C2832 1.524 . S
C2831 C2835 1.400 . S
C2832 H2817 0.960 . S
C2832 H2818 0.960 . S
C2832 H2819 0.960 . S
C2832 C2831 1.524 . S
C2833 C2830 1.403 . S
C2833 C2834 1.392 . S
C2833 C2837 1.495 . S
C2834 C2833 1.392 . S
C2834 C2835 1.385 . S
C2834 C2836 1.478 . S
C2835 H2829 0.930 . S
C2835 C2831 1.400 . S
C2835 C2834 1.385 . S
C2836 C2834 1.478 . S
C2836 C2838 1.381 . S
C2836 C2842 1.383 . S
C2837 C2833 1.495 . S
C2837 H2843 0.959 . S
C2837 H2844 0.961 . S
C2837 H2845 0.960 . S
C2838 C2836 1.381 . S
C2838 C2839 1.394 . S
C2838 H2846 0.930 . S
C2839 C2838 1.394 . S
C2839 C2840 1.383 . S
C2839 H2847 0.929 . S
C2840 C2839 1.383 . S
C2840 C2841 1.377 . S
C2841 H2825 0.930 . S
C2841 C2840 1.377 . S
C2841 C2842 1.379 . S
C2842 H2826 0.931 . S
C2842 C2836 1.383 . S
C2842 C2841 1.379 . S
H2843 C2837 0.959 . S
H2844 C2837 0.961 . S
H2845 C2837 0.960 . S
H2846 C2838 0.930 . S
H2847 C2839 0.929 . S
H2848 C2856 0.929 . S
H2849 C2858 0.930 . S
H2850 C2860 0.930 . S
H2851 C2863 0.929 . S
H2852 C2866 0.930 . S
H2853 C2868 0.960 . S
H2854 C2868 0.960 . S
H2855 C2868 0.960 . S
C2856 H2848 0.929 . S
C2856 C2857 1.377 . S
C2856 C2858 1.384 . S
C2857 C2856 1.377 . S
C2857 C2863 1.390 . S
C2858 H2849 0.930 . S
C2858 C2856 1.384 . S
C2858 C2859 1.372 . S
C2859 C2858 1.372 . S
C2859 C2860 1.400 . S
C2859 C2864 1.490 . S
C2860 H2850 0.930 . S
C2860 C2859 1.400 . S
C2860 C2863 1.386 . S
H2861 C2877 0.930 . S
H2862 C2878 0.931 . S
C2863 H2851 0.929 . S
C2863 C2857 1.390 . S
C2863 C2860 1.386 . S
C2864 C2859 1.490 . S
C2864 C2866 1.395 . S
C2864 C2867 1.403 . S
H2865 C2871 0.930 . S
C2866 H2852 0.930 . S
C2866 C2864 1.395 . S
C2866 C2869 1.403 . S
C2867 C2864 1.403 . S
C2867 C2868 1.524 . S
C2867 C2871 1.400 . S
C2868 H2853 0.960 . S
C2868 H2854 0.960 . S
C2868 H2855 0.960 . S
C2868 C2867 1.524 . S
C2869 C2866 1.403 . S
C2869 C2870 1.392 . S
C2869 C2873 1.495 . S
C2870 C2869 1.392 . S
C2870 C2871 1.385 . S
C2870 C2872 1.478 . S
C2871 H2865 0.930 . S
C2871 C2867 1.400 . S
C2871 C2870 1.385 . S
C2872 C2870 1.478 . S
C2872 C2874 1.381 . S
C2872 C2878 1.383 . S
C2873 C2869 1.495 . S
C2873 H2879 0.959 . S
C2873 H2880 0.961 . S
C2873 H2881 0.960 . S
C2874 C2872 1.381 . S
C2874 C2875 1.394 . S
C2874 H2882 0.930 . S
C2875 C2874 1.394 . S
C2875 C2876 1.383 . S
C2875 H2883 0.929 . S
C2876 C2875 1.383 . S
C2876 C2877 1.377 . S
C2877 H2861 0.930 . S
C2877 C2876 1.377 . S
C2877 C2878 1.379 . S
C2878 H2862 0.931 . S
C2878 C2872 1.383 . S
C2878 C2877 1.379 . S
H2879 C2873 0.959 . S
H2880 C2873 0.961 . S
H2881 C2873 0.960 . S
H2882 C2874 0.930 . S
H2883 C2875 0.929 . S
H2884 C2892 0.929 . S
H2885 C2894 0.930 . S
H2886 C2896 0.930 1_655 S
H2887 C2899 0.929 . S
H2888 C2902 0.930 . S
H2889 C2904 0.960 . S
H2890 C2904 0.960 . S
H2891 C2904 0.960 . S
C2892 H2884 0.929 . S
C2892 C2893 1.377 . S
C2892 C2894 1.384 . S
C2893 C2892 1.377 . S
C2893 C2899 1.390 . S
C2894 H2885 0.930 . S
C2894 C2892 1.384 . S
C2894 C2895 1.372 . S
C2895 C2894 1.372 . S
C2895 C2896 1.400 . S
C2895 C2900 1.490 1_455 S
C2896 H2886 0.930 1_455 S
C2896 C2895 1.400 . S
C2896 C2899 1.386 . S
H2897 C2913 0.930 . S
H2898 C2914 0.931 . S
C2899 H2887 0.929 . S
C2899 C2893 1.390 . S
C2899 C2896 1.386 . S
C2900 C2895 1.490 1_655 S
C2900 C2902 1.395 . S
C2900 C2903 1.403 . S
H2901 C2907 0.930 . S
C2902 H2888 0.930 . S
C2902 C2900 1.395 . S
C2902 C2905 1.403 . S
C2903 C2900 1.403 . S
C2903 C2904 1.524 . S
C2903 C2907 1.400 . S
C2904 H2889 0.960 . S
C2904 H2890 0.960 . S
C2904 H2891 0.960 . S
C2904 C2903 1.524 . S
C2905 C2902 1.403 . S
C2905 C2906 1.392 . S
C2905 C2909 1.495 . S
C2906 C2905 1.392 . S
C2906 C2907 1.385 . S
C2906 C2908 1.478 . S
C2907 H2901 0.930 . S
C2907 C2903 1.400 . S
C2907 C2906 1.385 . S
C2908 C2906 1.478 . S
C2908 C2910 1.381 . S
C2908 C2914 1.383 . S
C2909 C2905 1.495 . S
C2909 H2915 0.959 . S
C2909 H2916 0.961 . S
C2909 H2917 0.960 . S
C2910 C2908 1.381 . S
C2910 C2911 1.394 . S
C2910 H2918 0.930 . S
C2911 C2910 1.394 . S
C2911 C2912 1.383 . S
C2911 H2919 0.929 . S
C2912 C2911 1.383 . S
C2912 C2913 1.377 . S
C2913 H2897 0.930 . S
C2913 C2912 1.377 . S
C2913 C2914 1.379 . S
C2914 H2898 0.931 . S
C2914 C2908 1.383 . S
C2914 C2913 1.379 . S
H2915 C2909 0.959 . S
H2916 C2909 0.961 . S
H2917 C2909 0.960 . S
H2918 C2910 0.930 . S
H2919 C2911 0.929 . S
H2920 C2928 0.929 . S
H2921 C2930 0.930 . S
H2922 C2932 0.930 . S
H2923 C2935 0.929 . S
H2924 C2938 0.930 . S
H2925 C2940 0.960 . S
H2926 C2940 0.960 . S
H2927 C2940 0.960 . S
C2928 H2920 0.929 . S
C2928 C2929 1.377 1_455 S
C2928 C2930 1.384 . S
C2929 C2928 1.377 1_655 S
C2929 C2935 1.390 . S
C2930 H2921 0.930 . S
C2930 C2928 1.384 . S
C2930 C2931 1.372 . S
C2931 C2930 1.372 . S
C2931 C2932 1.400 1_455 S
C2931 C2936 1.490 . S
C2932 H2922 0.930 . S
C2932 C2931 1.400 1_655 S
C2932 C2935 1.386 . S
H2933 C2949 0.930 . S
H2934 C2950 0.931 . S
C2935 H2923 0.929 . S
C2935 C2929 1.390 . S
C2935 C2932 1.386 . S
C2936 C2931 1.490 . S
C2936 C2938 1.395 . S
C2936 C2939 1.403 1_455 S
H2937 C2943 0.930 1_655 S
C2938 H2924 0.930 . S
C2938 C2936 1.395 . S
C2938 C2941 1.403 . S
C2939 C2936 1.403 1_655 S
C2939 C2940 1.524 . S
C2939 C2943 1.400 1_655 S
C2940 H2925 0.960 . S
C2940 H2926 0.960 . S
C2940 H2927 0.960 . S
C2940 C2939 1.524 . S
C2941 C2938 1.403 . S
C2941 C2942 1.392 . S
C2941 C2945 1.495 . S
C2942 C2941 1.392 . S
C2942 C2943 1.385 . S
C2942 C2944 1.478 . S
C2943 H2937 0.930 1_455 S
C2943 C2939 1.400 1_455 S
C2943 C2942 1.385 . S
C2944 C2942 1.478 . S
C2944 C2946 1.381 . S
C2944 C2950 1.383 . S
C2945 C2941 1.495 . S
C2945 H2951 0.959 . S
C2945 H2952 0.961 . S
C2945 H2953 0.960 . S
C2946 C2944 1.381 . S
C2946 C2947 1.394 . S
C2946 H2954 0.930 . S
C2947 C2946 1.394 . S
C2947 C2948 1.383 . S
C2947 H2955 0.929 . S
C2948 C2947 1.383 . S
C2948 C2949 1.377 . S
C2949 H2933 0.930 . S
C2949 C2948 1.377 . S
C2949 C2950 1.379 . S
C2950 H2934 0.931 . S
C2950 C2944 1.383 . S
C2950 C2949 1.379 . S
H2951 C2945 0.959 . S
H2952 C2945 0.961 . S
H2953 C2945 0.960 . S
H2954 C2946 0.930 . S
H2955 C2947 0.929 . S
H2956 C2964 0.929 . S
H2957 C2966 0.930 . S
H2958 C2968 0.930 . S
H2959 C2971 0.929 . S
H2960 C2974 0.930 . S
H2961 C2976 0.960 . S
H2962 C2976 0.960 . S
H2963 C2976 0.960 . S
C2964 H2956 0.929 . S
C2964 C2965 1.377 . S
C2964 C2966 1.384 . S
C2965 C2964 1.377 . S
C2965 C2971 1.390 . S
C2966 H2957 0.930 . S
C2966 C2964 1.384 . S
C2966 C2967 1.372 . S
C2967 C2966 1.372 . S
C2967 C2968 1.400 . S
C2967 C2972 1.490 . S
C2968 H2958 0.930 . S
C2968 C2967 1.400 . S
C2968 C2971 1.386 . S
H2969 C2985 0.930 . S
H2970 C2986 0.931 . S
C2971 H2959 0.929 . S
C2971 C2965 1.390 . S
C2971 C2968 1.386 . S
C2972 C2967 1.490 . S
C2972 C2974 1.395 . S
C2972 C2975 1.403 . S
H2973 C2979 0.930 . S
C2974 H2960 0.930 . S
C2974 C2972 1.395 . S
C2974 C2977 1.403 . S
C2975 C2972 1.403 . S
C2975 C2976 1.524 . S
C2975 C2979 1.400 . S
C2976 H2961 0.960 . S
C2976 H2962 0.960 . S
C2976 H2963 0.960 . S
C2976 C2975 1.524 . S
C2977 C2974 1.403 . S
C2977 C2978 1.392 . S
C2977 C2981 1.495 . S
C2978 C2977 1.392 . S
C2978 C2979 1.385 . S
C2978 C2980 1.478 . S
C2979 H2973 0.930 . S
C2979 C2975 1.400 . S
C2979 C2978 1.385 . S
C2980 C2978 1.478 . S
C2980 C2982 1.381 . S
C2980 C2986 1.383 . S
C2981 C2977 1.495 . S
C2981 H2987 0.959 . S
C2981 H2988 0.961 . S
C2981 H2989 0.960 . S
C2982 C2980 1.381 . S
C2982 C2983 1.394 . S
C2982 H2990 0.930 . S
C2983 C2982 1.394 . S
C2983 C2984 1.383 . S
C2983 H2991 0.929 . S
C2984 C2983 1.383 . S
C2984 C2985 1.377 . S
C2985 H2969 0.930 . S
C2985 C2984 1.377 . S
C2985 C2986 1.379 . S
C2986 H2970 0.931 . S
C2986 C2980 1.383 . S
C2986 C2985 1.379 . S
H2987 C2981 0.959 . S
H2988 C2981 0.961 . S
H2989 C2981 0.960 . S
H2990 C2982 0.930 . S
H2991 C2983 0.929 . S
H2992 C3000 0.929 . S
H2993 C3002 0.930 . S
H2994 C3004 0.930 . S
H2995 C3007 0.929 . S
H2996 C3010 0.930 . S
H2997 C3012 0.960 . S
H2998 C3012 0.960 . S
H2999 C3012 0.960 . S
C3000 H2992 0.929 . S
C3000 C3001 1.377 . S
C3000 C3002 1.384 . S
C3001 C3000 1.377 . S
C3001 C3007 1.390 . S
C3002 H2993 0.930 . S
C3002 C3000 1.384 . S
C3002 C3003 1.372 . S
C3003 C3002 1.372 . S
C3003 C3004 1.400 . S
C3003 C3008 1.490 . S
C3004 H2994 0.930 . S
C3004 C3003 1.400 . S
C3004 C3007 1.386 . S
H3005 C3021 0.930 . S
H3006 C3022 0.931 . S
C3007 H2995 0.929 . S
C3007 C3001 1.390 . S
C3007 C3004 1.386 . S
C3008 C3003 1.490 . S
C3008 C3010 1.395 . S
C3008 C3011 1.403 . S
H3009 C3015 0.930 . S
C3010 H2996 0.930 . S
C3010 C3008 1.395 . S
C3010 C3013 1.403 . S
C3011 C3008 1.403 . S
C3011 C3012 1.524 . S
C3011 C3015 1.400 . S
C3012 H2997 0.960 . S
C3012 H2998 0.960 . S
C3012 H2999 0.960 . S
C3012 C3011 1.524 . S
C3013 C3010 1.403 . S
C3013 C3014 1.392 . S
C3013 C3017 1.495 . S
C3014 C3013 1.392 . S
C3014 C3015 1.385 . S
C3014 C3016 1.478 . S
C3015 H3009 0.930 . S
C3015 C3011 1.400 . S
C3015 C3014 1.385 . S
C3016 C3014 1.478 . S
C3016 C3018 1.381 . S
C3016 C3022 1.383 . S
C3017 C3013 1.495 . S
C3017 H3023 0.959 . S
C3017 H3024 0.961 . S
C3017 H3025 0.960 . S
C3018 C3016 1.381 . S
C3018 C3019 1.394 . S
C3018 H3026 0.930 . S
C3019 C3018 1.394 . S
C3019 C3020 1.383 . S
C3019 H3027 0.929 . S
C3020 C3019 1.383 . S
C3020 C3021 1.377 . S
C3021 H3005 0.930 . S
C3021 C3020 1.377 . S
C3021 C3022 1.379 . S
C3022 H3006 0.931 . S
C3022 C3016 1.383 . S
C3022 C3021 1.379 . S
H3023 C3017 0.959 . S
H3024 C3017 0.961 . S
H3025 C3017 0.960 . S
H3026 C3018 0.930 . S
H3027 C3019 0.929 . S
H3028 C3036 0.929 . S
H3029 C3038 0.930 . S
H3030 C3040 0.930 . S
H3031 C3043 0.929 . S
H3032 C3046 0.930 . S
H3033 C3048 0.960 . S
H3034 C3048 0.960 . S
H3035 C3048 0.960 . S
C3036 H3028 0.929 . S
C3036 C3037 1.377 . S
C3036 C3038 1.384 . S
C3037 C3036 1.377 . S
C3037 C3043 1.390 . S
C3038 H3029 0.930 . S
C3038 C3036 1.384 . S
C3038 C3039 1.372 . S
C3039 C3038 1.372 . S
C3039 C3040 1.400 . S
C3039 C3044 1.490 . S
C3040 H3030 0.930 . S
C3040 C3039 1.400 . S
C3040 C3043 1.386 . S
H3041 C3057 0.930 . S
H3042 C3058 0.931 . S
C3043 H3031 0.929 . S
C3043 C3037 1.390 . S
C3043 C3040 1.386 . S
C3044 C3039 1.490 . S
C3044 C3046 1.395 . S
C3044 C3047 1.403 . S
H3045 C3051 0.930 . S
C3046 H3032 0.930 . S
C3046 C3044 1.395 . S
C3046 C3049 1.403 . S
C3047 C3044 1.403 . S
C3047 C3048 1.524 . S
C3047 C3051 1.400 . S
C3048 H3033 0.960 . S
C3048 H3034 0.960 . S
C3048 H3035 0.960 . S
C3048 C3047 1.524 . S
C3049 C3046 1.403 . S
C3049 C3050 1.392 . S
C3049 C3053 1.495 . S
C3050 C3049 1.392 . S
C3050 C3051 1.385 . S
C3050 C3052 1.478 . S
C3051 H3045 0.930 . S
C3051 C3047 1.400 . S
C3051 C3050 1.385 . S
C3052 C3050 1.478 . S
C3052 C3054 1.381 . S
C3052 C3058 1.383 . S
C3053 C3049 1.495 . S
C3053 H3059 0.959 . S
C3053 H3060 0.961 . S
C3053 H3061 0.960 . S
C3054 C3052 1.381 . S
C3054 C3055 1.394 . S
C3054 H3062 0.930 . S
C3055 C3054 1.394 . S
C3055 C3056 1.383 . S
C3055 H3063 0.929 . S
C3056 C3055 1.383 . S
C3056 C3057 1.377 . S
C3057 H3041 0.930 . S
C3057 C3056 1.377 . S
C3057 C3058 1.379 . S
C3058 H3042 0.931 . S
C3058 C3052 1.383 . S
C3058 C3057 1.379 . S
H3059 C3053 0.959 . S
H3060 C3053 0.961 . S
H3061 C3053 0.960 . S
H3062 C3054 0.930 . S
H3063 C3055 0.929 . S
H3064 C3072 0.929 . S
H3065 C3074 0.930 . S
H3066 C3076 0.930 . S
H3067 C3079 0.929 . S
H3068 C3082 0.930 . S
H3069 C3084 0.960 . S
H3070 C3084 0.960 . S
H3071 C3084 0.960 . S
C3072 H3064 0.929 . S
C3072 C3073 1.377 . S
C3072 C3074 1.384 . S
C3073 C3072 1.377 . S
C3073 C3079 1.390 . S
C3074 H3065 0.930 . S
C3074 C3072 1.384 . S
C3074 C3075 1.372 . S
C3075 C3074 1.372 . S
C3075 C3076 1.400 . S
C3075 C3080 1.490 . S
C3076 H3066 0.930 . S
C3076 C3075 1.400 . S
C3076 C3079 1.386 . S
H3077 C3093 0.930 . S
H3078 C3094 0.931 . S
C3079 H3067 0.929 . S
C3079 C3073 1.390 . S
C3079 C3076 1.386 . S
C3080 C3075 1.490 . S
C3080 C3082 1.395 . S
C3080 C3083 1.403 . S
H3081 C3087 0.930 . S
C3082 H3068 0.930 . S
C3082 C3080 1.395 . S
C3082 C3085 1.403 . S
C3083 C3080 1.403 . S
C3083 C3084 1.524 . S
C3083 C3087 1.400 . S
C3084 H3069 0.960 . S
C3084 H3070 0.960 . S
C3084 H3071 0.960 . S
C3084 C3083 1.524 . S
C3085 C3082 1.403 . S
C3085 C3086 1.392 . S
C3085 C3089 1.495 . S
C3086 C3085 1.392 . S
C3086 C3087 1.385 . S
C3086 C3088 1.478 . S
C3087 H3081 0.930 . S
C3087 C3083 1.400 . S
C3087 C3086 1.385 . S
C3088 C3086 1.478 . S
C3088 C3090 1.381 . S
C3088 C3094 1.383 . S
C3089 C3085 1.495 . S
C3089 H3095 0.959 . S
C3089 H3096 0.961 . S
C3089 H3097 0.960 . S
C3090 C3088 1.381 . S
C3090 C3091 1.394 . S
C3090 H3098 0.930 . S
C3091 C3090 1.394 . S
C3091 C3092 1.383 . S
C3091 H3099 0.929 . S
C3092 C3091 1.383 . S
C3092 C3093 1.377 . S
C3093 H3077 0.930 . S
C3093 C3092 1.377 . S
C3093 C3094 1.379 . S
C3094 H3078 0.931 . S
C3094 C3088 1.383 . S
C3094 C3093 1.379 . S
H3095 C3089 0.959 . S
H3096 C3089 0.961 . S
H3097 C3089 0.960 . S
H3098 C3090 0.930 . S
H3099 C3091 0.929 . S
H3100 C3108 0.929 . S
H3101 C3110 0.930 . S
H3102 C3112 0.930 . S
H3103 C3115 0.929 . S
H3104 C3118 0.930 . S
H3105 C3120 0.960 . S
H3106 C3120 0.960 . S
H3107 C3120 0.960 . S
C3108 H3100 0.929 . S
C3108 C3109 1.377 . S
C3108 C3110 1.384 . S
C3109 C3108 1.377 . S
C3109 C3115 1.390 . S
C3110 H3101 0.930 . S
C3110 C3108 1.384 . S
C3110 C3111 1.372 . S
C3111 C3110 1.372 . S
C3111 C3112 1.400 . S
C3111 C3116 1.490 . S
C3112 H3102 0.930 . S
C3112 C3111 1.400 . S
C3112 C3115 1.386 . S
H3113 C3129 0.930 . S
H3114 C3130 0.931 . S
C3115 H3103 0.929 . S
C3115 C3109 1.390 . S
C3115 C3112 1.386 . S
C3116 C3111 1.490 . S
C3116 C3118 1.395 . S
C3116 C3119 1.403 . S
H3117 C3123 0.930 . S
C3118 H3104 0.930 . S
C3118 C3116 1.395 . S
C3118 C3121 1.403 . S
C3119 C3116 1.403 . S
C3119 C3120 1.524 . S
C3119 C3123 1.400 . S
C3120 H3105 0.960 . S
C3120 H3106 0.960 . S
C3120 H3107 0.960 . S
C3120 C3119 1.524 . S
C3121 C3118 1.403 . S
C3121 C3122 1.392 . S
C3121 C3125 1.495 . S
C3122 C3121 1.392 . S
C3122 C3123 1.385 . S
C3122 C3124 1.478 . S
C3123 H3117 0.930 . S
C3123 C3119 1.400 . S
C3123 C3122 1.385 . S
C3124 C3122 1.478 . S
C3124 C3126 1.381 . S
C3124 C3130 1.383 . S
C3125 C3121 1.495 . S
C3125 H3131 0.959 . S
C3125 H3132 0.961 . S
C3125 H3133 0.960 . S
C3126 C3124 1.381 . S
C3126 C3127 1.394 . S
C3126 H3134 0.930 . S
C3127 C3126 1.394 . S
C3127 C3128 1.383 . S
C3127 H3135 0.929 . S
C3128 C3127 1.383 . S
C3128 C3129 1.377 . S
C3129 H3113 0.930 . S
C3129 C3128 1.377 . S
C3129 C3130 1.379 . S
C3130 H3114 0.931 . S
C3130 C3124 1.383 . S
C3130 C3129 1.379 . S
H3131 C3125 0.959 . S
H3132 C3125 0.961 . S
H3133 C3125 0.960 . S
H3134 C3126 0.930 . S
H3135 C3127 0.929 . S
H3136 C3144 0.929 . S
H3137 C3146 0.930 . S
H3138 C3148 0.930 . S
H3139 C3151 0.929 . S
H3140 C3154 0.930 . S
H3141 C3156 0.960 . S
H3142 C3156 0.960 . S
H3143 C3156 0.960 . S
C3144 H3136 0.929 . S
C3144 C3145 1.377 . S
C3144 C3146 1.384 . S
C3145 C3144 1.377 . S
C3145 C3151 1.390 . S
C3146 H3137 0.930 . S
C3146 C3144 1.384 . S
C3146 C3147 1.372 . S
C3147 C3146 1.372 . S
C3147 C3148 1.400 . S
C3147 C3152 1.490 . S
C3148 H3138 0.930 . S
C3148 C3147 1.400 . S
C3148 C3151 1.386 . S
H3149 C3165 0.930 . S
H3150 C3166 0.931 . S
C3151 H3139 0.929 . S
C3151 C3145 1.390 . S
C3151 C3148 1.386 . S
C3152 C3147 1.490 . S
C3152 C3154 1.395 . S
C3152 C3155 1.403 . S
H3153 C3159 0.930 . S
C3154 H3140 0.930 . S
C3154 C3152 1.395 . S
C3154 C3157 1.403 . S
C3155 C3152 1.403 . S
C3155 C3156 1.524 . S
C3155 C3159 1.400 . S
C3156 H3141 0.960 . S
C3156 H3142 0.960 . S
C3156 H3143 0.960 . S
C3156 C3155 1.524 . S
C3157 C3154 1.403 . S
C3157 C3158 1.392 . S
C3157 C3161 1.495 . S
C3158 C3157 1.392 . S
C3158 C3159 1.385 . S
C3158 C3160 1.478 . S
C3159 H3153 0.930 . S
C3159 C3155 1.400 . S
C3159 C3158 1.385 . S
C3160 C3158 1.478 . S
C3160 C3162 1.381 . S
C3160 C3166 1.383 . S
C3161 C3157 1.495 . S
C3161 H3167 0.959 . S
C3161 H3168 0.961 . S
C3161 H3169 0.960 . S
C3162 C3160 1.381 . S
C3162 C3163 1.394 . S
C3162 H3170 0.930 . S
C3163 C3162 1.394 . S
C3163 C3164 1.383 . S
C3163 H3171 0.929 . S
C3164 C3163 1.383 . S
C3164 C3165 1.377 . S
C3165 H3149 0.930 . S
C3165 C3164 1.377 . S
C3165 C3166 1.379 . S
C3166 H3150 0.931 . S
C3166 C3160 1.383 . S
C3166 C3165 1.379 . S
H3167 C3161 0.959 . S
H3168 C3161 0.961 . S
H3169 C3161 0.960 . S
H3170 C3162 0.930 . S
H3171 C3163 0.929 . S
H3172 C3180 0.929 . S
H3173 C3182 0.930 . S
H3174 C3184 0.930 . S
H3175 C3187 0.929 . S
H3176 C3190 0.930 . S
H3177 C3192 0.960 . S
H3178 C3192 0.960 . S
H3179 C3192 0.960 . S
C3180 H3172 0.929 . S
C3180 C3181 1.377 . S
C3180 C3182 1.384 . S
C3181 C3180 1.377 . S
C3181 C3187 1.390 . S
C3182 H3173 0.930 . S
C3182 C3180 1.384 . S
C3182 C3183 1.372 . S
C3183 C3182 1.372 . S
C3183 C3184 1.400 . S
C3183 C3188 1.490 . S
C3184 H3174 0.930 . S
C3184 C3183 1.400 . S
C3184 C3187 1.386 . S
H3185 C3201 0.930 . S
H3186 C3202 0.931 . S
C3187 H3175 0.929 . S
C3187 C3181 1.390 . S
C3187 C3184 1.386 . S
C3188 C3183 1.490 . S
C3188 C3190 1.395 . S
C3188 C3191 1.403 . S
H3189 C3195 0.930 . S
C3190 H3176 0.930 . S
C3190 C3188 1.395 . S
C3190 C3193 1.403 . S
C3191 C3188 1.403 . S
C3191 C3192 1.524 . S
C3191 C3195 1.400 . S
C3192 H3177 0.960 . S
C3192 H3178 0.960 . S
C3192 H3179 0.960 . S
C3192 C3191 1.524 . S
C3193 C3190 1.403 . S
C3193 C3194 1.392 . S
C3193 C3197 1.495 . S
C3194 C3193 1.392 . S
C3194 C3195 1.385 . S
C3194 C3196 1.478 . S
C3195 H3189 0.930 . S
C3195 C3191 1.400 . S
C3195 C3194 1.385 . S
C3196 C3194 1.478 . S
C3196 C3198 1.381 . S
C3196 C3202 1.383 . S
C3197 C3193 1.495 . S
C3197 H3203 0.959 . S
C3197 H3204 0.961 . S
C3197 H3205 0.960 . S
C3198 C3196 1.381 . S
C3198 C3199 1.394 . S
C3198 H3206 0.930 . S
C3199 C3198 1.394 . S
C3199 C3200 1.383 . S
C3199 H3207 0.929 . S
C3200 C3199 1.383 . S
C3200 C3201 1.377 . S
C3201 H3185 0.930 . S
C3201 C3200 1.377 . S
C3201 C3202 1.379 . S
C3202 H3186 0.931 . S
C3202 C3196 1.383 . S
C3202 C3201 1.379 . S
H3203 C3197 0.959 . S
H3204 C3197 0.961 . S
H3205 C3197 0.960 . S
H3206 C3198 0.930 . S
H3207 C3199 0.929 . S
H3208 C3216 0.929 . S
H3209 C3218 0.930 . S
H3210 C3220 0.930 . S
H3211 C3223 0.929 . S
H3212 C3226 0.930 . S
H3213 C3228 0.960 . S
H3214 C3228 0.960 . S
H3215 C3228 0.960 . S
C3216 H3208 0.929 . S
C3216 C3217 1.377 . S
C3216 C3218 1.384 . S
C3217 C3216 1.377 . S
C3217 C3223 1.390 . S
C3218 H3209 0.930 . S
C3218 C3216 1.384 . S
C3218 C3219 1.372 . S
C3219 C3218 1.372 . S
C3219 C3220 1.400 . S
C3219 C3224 1.490 . S
C3220 H3210 0.930 . S
C3220 C3219 1.400 . S
C3220 C3223 1.386 . S
H3221 C3237 0.930 . S
H3222 C3238 0.931 . S
C3223 H3211 0.929 . S
C3223 C3217 1.390 . S
C3223 C3220 1.386 . S
C3224 C3219 1.490 . S
C3224 C3226 1.395 . S
C3224 C3227 1.403 . S
H3225 C3231 0.930 . S
C3226 H3212 0.930 . S
C3226 C3224 1.395 . S
C3226 C3229 1.403 . S
C3227 C3224 1.403 . S
C3227 C3228 1.524 . S
C3227 C3231 1.400 . S
C3228 H3213 0.960 . S
C3228 H3214 0.960 . S
C3228 H3215 0.960 . S
C3228 C3227 1.524 . S
C3229 C3226 1.403 . S
C3229 C3230 1.392 . S
C3229 C3233 1.495 . S
C3230 C3229 1.392 . S
C3230 C3231 1.385 . S
C3230 C3232 1.478 . S
C3231 H3225 0.930 . S
C3231 C3227 1.400 . S
C3231 C3230 1.385 . S
C3232 C3230 1.478 . S
C3232 C3234 1.381 . S
C3232 C3238 1.383 . S
C3233 C3229 1.495 . S
C3233 H3239 0.959 . S
C3233 H3240 0.961 . S
C3233 H3241 0.960 . S
C3234 C3232 1.381 . S
C3234 C3235 1.394 . S
C3234 H3242 0.930 . S
C3235 C3234 1.394 . S
C3235 C3236 1.383 . S
C3235 H3243 0.929 . S
C3236 C3235 1.383 . S
C3236 C3237 1.377 . S
C3237 H3221 0.930 . S
C3237 C3236 1.377 . S
C3237 C3238 1.379 . S
C3238 H3222 0.931 . S
C3238 C3232 1.383 . S
C3238 C3237 1.379 . S
H3239 C3233 0.959 . S
H3240 C3233 0.961 . S
H3241 C3233 0.960 . S
H3242 C3234 0.930 . S
H3243 C3235 0.929 . S
H3244 C3252 0.929 . S
H3245 C3254 0.930 . S
H3246 C3256 0.930 . S
H3247 C3259 0.929 . S
H3248 C3262 0.930 . S
H3249 C3264 0.960 . S
H3250 C3264 0.960 . S
H3251 C3264 0.960 . S
C3252 H3244 0.929 . S
C3252 C3253 1.377 . S
C3252 C3254 1.384 . S
C3253 C3252 1.377 . S
C3253 C3259 1.390 . S
C3254 H3245 0.930 . S
C3254 C3252 1.384 . S
C3254 C3255 1.372 . S
C3255 C3254 1.372 . S
C3255 C3256 1.400 . S
C3255 C3260 1.490 . S
C3256 H3246 0.930 . S
C3256 C3255 1.400 . S
C3256 C3259 1.386 . S
H3257 C3273 0.930 . S
H3258 C3274 0.931 . S
C3259 H3247 0.929 . S
C3259 C3253 1.390 . S
C3259 C3256 1.386 . S
C3260 C3255 1.490 . S
C3260 C3262 1.395 . S
C3260 C3263 1.403 . S
H3261 C3267 0.930 . S
C3262 H3248 0.930 . S
C3262 C3260 1.395 . S
C3262 C3265 1.403 . S
C3263 C3260 1.403 . S
C3263 C3264 1.524 . S
C3263 C3267 1.400 . S
C3264 H3249 0.960 . S
C3264 H3250 0.960 . S
C3264 H3251 0.960 . S
C3264 C3263 1.524 . S
C3265 C3262 1.403 . S
C3265 C3266 1.392 . S
C3265 C3269 1.495 . S
C3266 C3265 1.392 . S
C3266 C3267 1.385 . S
C3266 C3268 1.478 . S
C3267 H3261 0.930 . S
C3267 C3263 1.400 . S
C3267 C3266 1.385 . S
C3268 C3266 1.478 . S
C3268 C3270 1.381 . S
C3268 C3274 1.383 . S
C3269 C3265 1.495 . S
C3269 H3275 0.959 . S
C3269 H3276 0.961 . S
C3269 H3277 0.960 . S
C3270 C3268 1.381 . S
C3270 C3271 1.394 . S
C3270 H3278 0.930 . S
C3271 C3270 1.394 . S
C3271 C3272 1.383 . S
C3271 H3279 0.929 . S
C3272 C3271 1.383 . S
C3272 C3273 1.377 . S
C3273 H3257 0.930 . S
C3273 C3272 1.377 . S
C3273 C3274 1.379 . S
C3274 H3258 0.931 . S
C3274 C3268 1.383 . S
C3274 C3273 1.379 . S
H3275 C3269 0.959 . S
H3276 C3269 0.961 . S
H3277 C3269 0.960 . S
H3278 C3270 0.930 . S
H3279 C3271 0.929 . S
H3280 C3288 0.929 . S
H3281 C3290 0.930 . S
H3282 C3292 0.930 . S
H3283 C3295 0.929 . S
H3284 C3298 0.930 . S
H3285 C3300 0.960 . S
H3286 C3300 0.960 . S
H3287 C3300 0.960 . S
C3288 H3280 0.929 . S
C3288 C3289 1.377 . S
C3288 C3290 1.384 . S
C3289 C3288 1.377 . S
C3289 C3295 1.390 . S
C3290 H3281 0.930 . S
C3290 C3288 1.384 . S
C3290 C3291 1.372 . S
C3291 C3290 1.372 . S
C3291 C3292 1.400 . S
C3291 C3296 1.490 . S
C3292 H3282 0.930 . S
C3292 C3291 1.400 . S
C3292 C3295 1.386 . S
H3293 C3309 0.930 . S
H3294 C3310 0.931 . S
C3295 H3283 0.929 . S
C3295 C3289 1.390 . S
C3295 C3292 1.386 . S
C3296 C3291 1.490 . S
C3296 C3298 1.395 . S
C3296 C3299 1.403 . S
H3297 C3303 0.930 . S
C3298 H3284 0.930 . S
C3298 C3296 1.395 . S
C3298 C3301 1.403 . S
C3299 C3296 1.403 . S
C3299 C3300 1.524 . S
C3299 C3303 1.400 . S
C3300 H3285 0.960 . S
C3300 H3286 0.960 . S
C3300 H3287 0.960 . S
C3300 C3299 1.524 . S
C3301 C3298 1.403 . S
C3301 C3302 1.392 . S
C3301 C3305 1.495 . S
C3302 C3301 1.392 . S
C3302 C3303 1.385 . S
C3302 C3304 1.478 . S
C3303 H3297 0.930 . S
C3303 C3299 1.400 . S
C3303 C3302 1.385 . S
C3304 C3302 1.478 . S
C3304 C3306 1.381 . S
C3304 C3310 1.383 . S
C3305 C3301 1.495 . S
C3305 H3311 0.959 . S
C3305 H3312 0.961 . S
C3305 H3313 0.960 . S
C3306 C3304 1.381 . S
C3306 C3307 1.394 . S
C3306 H3314 0.930 . S
C3307 C3306 1.394 . S
C3307 C3308 1.383 . S
C3307 H3315 0.929 . S
C3308 C3307 1.383 . S
C3308 C3309 1.377 . S
C3309 H3293 0.930 . S
C3309 C3308 1.377 . S
C3309 C3310 1.379 . S
C3310 H3294 0.931 . S
C3310 C3304 1.383 . S
C3310 C3309 1.379 . S
H3311 C3305 0.959 . S
H3312 C3305 0.961 . S
H3313 C3305 0.960 . S
H3314 C3306 0.930 . S
H3315 C3307 0.929 . S
H3316 C3324 0.929 . S
H3317 C3326 0.930 . S
H3318 C3328 0.930 . S
H3319 C3331 0.929 . S
H3320 C3334 0.930 . S
H3321 C3336 0.960 . S
H3322 C3336 0.960 . S
H3323 C3336 0.960 . S
C3324 H3316 0.929 . S
C3324 C3325 1.377 . S
C3324 C3326 1.384 . S
C3325 C3324 1.377 . S
C3325 C3331 1.390 . S
C3326 H3317 0.930 . S
C3326 C3324 1.384 . S
C3326 C3327 1.372 . S
C3327 C3326 1.372 . S
C3327 C3328 1.400 . S
C3327 C3332 1.490 . S
C3328 H3318 0.930 . S
C3328 C3327 1.400 . S
C3328 C3331 1.386 . S
H3329 C3345 0.930 . S
H3330 C3346 0.931 . S
C3331 H3319 0.929 . S
C3331 C3325 1.390 . S
C3331 C3328 1.386 . S
C3332 C3327 1.490 . S
C3332 C3334 1.395 . S
C3332 C3335 1.403 . S
H3333 C3339 0.930 . S
C3334 H3320 0.930 . S
C3334 C3332 1.395 . S
C3334 C3337 1.403 . S
C3335 C3332 1.403 . S
C3335 C3336 1.524 . S
C3335 C3339 1.400 . S
C3336 H3321 0.960 . S
C3336 H3322 0.960 . S
C3336 H3323 0.960 . S
C3336 C3335 1.524 . S
C3337 C3334 1.403 . S
C3337 C3338 1.392 . S
C3337 C3341 1.495 . S
C3338 C3337 1.392 . S
C3338 C3339 1.385 . S
C3338 C3340 1.478 . S
C3339 H3333 0.930 . S
C3339 C3335 1.400 . S
C3339 C3338 1.385 . S
C3340 C3338 1.478 . S
C3340 C3342 1.381 . S
C3340 C3346 1.383 . S
C3341 C3337 1.495 . S
C3341 H3347 0.959 . S
C3341 H3348 0.961 . S
C3341 H3349 0.960 . S
C3342 C3340 1.381 . S
C3342 C3343 1.394 . S
C3342 H3350 0.930 . S
C3343 C3342 1.394 . S
C3343 C3344 1.383 . S
C3343 H3351 0.929 . S
C3344 C3343 1.383 . S
C3344 C3345 1.377 . S
C3345 H3329 0.930 . S
C3345 C3344 1.377 . S
C3345 C3346 1.379 . S
C3346 H3330 0.931 . S
C3346 C3340 1.383 . S
C3346 C3345 1.379 . S
H3347 C3341 0.959 . S
H3348 C3341 0.961 . S
H3349 C3341 0.960 . S
H3350 C3342 0.930 . S
H3351 C3343 0.929 . S
H3352 C3360 0.929 . S
H3353 C3362 0.930 . S
H3354 C3364 0.930 . S
H3355 C3367 0.929 . S
H3356 C3370 0.930 . S
H3357 C3372 0.960 . S
H3358 C3372 0.960 . S
H3359 C3372 0.960 . S
C3360 H3352 0.929 . S
C3360 C3361 1.377 . S
C3360 C3362 1.384 . S
C3361 C3360 1.377 . S
C3361 C3367 1.390 . S
C3362 H3353 0.930 . S
C3362 C3360 1.384 . S
C3362 C3363 1.372 . S
C3363 C3362 1.372 . S
C3363 C3364 1.400 . S
C3363 C3368 1.490 . S
C3364 H3354 0.930 . S
C3364 C3363 1.400 . S
C3364 C3367 1.386 . S
H3365 C3381 0.930 . S
H3366 C3382 0.931 . S
C3367 H3355 0.929 . S
C3367 C3361 1.390 . S
C3367 C3364 1.386 . S
C3368 C3363 1.490 . S
C3368 C3370 1.395 . S
C3368 C3371 1.403 . S
H3369 C3375 0.930 . S
C3370 H3356 0.930 . S
C3370 C3368 1.395 . S
C3370 C3373 1.403 . S
C3371 C3368 1.403 . S
C3371 C3372 1.524 . S
C3371 C3375 1.400 . S
C3372 H3357 0.960 . S
C3372 H3358 0.960 . S
C3372 H3359 0.960 . S
C3372 C3371 1.524 . S
C3373 C3370 1.403 . S
C3373 C3374 1.392 . S
C3373 C3377 1.495 . S
C3374 C3373 1.392 . S
C3374 C3375 1.385 . S
C3374 C3376 1.478 . S
C3375 H3369 0.930 . S
C3375 C3371 1.400 . S
C3375 C3374 1.385 . S
C3376 C3374 1.478 . S
C3376 C3378 1.381 . S
C3376 C3382 1.383 . S
C3377 C3373 1.495 . S
C3377 H3383 0.959 . S
C3377 H3384 0.961 . S
C3377 H3385 0.960 . S
C3378 C3376 1.381 . S
C3378 C3379 1.394 . S
C3378 H3386 0.930 . S
C3379 C3378 1.394 . S
C3379 C3380 1.383 . S
C3379 H3387 0.929 . S
C3380 C3379 1.383 . S
C3380 C3381 1.377 . S
C3381 H3365 0.930 . S
C3381 C3380 1.377 . S
C3381 C3382 1.379 . S
C3382 H3366 0.931 . S
C3382 C3376 1.383 . S
C3382 C3381 1.379 . S
H3383 C3377 0.959 . S
H3384 C3377 0.961 . S
H3385 C3377 0.960 . S
H3386 C3378 0.930 . S
H3387 C3379 0.929 . S
H3388 C3396 0.929 . S
H3389 C3398 0.930 . S
H3390 C3400 0.930 . S
H3391 C3403 0.929 . S
H3392 C3406 0.930 . S
H3393 C3408 0.960 . S
H3394 C3408 0.960 . S
H3395 C3408 0.960 . S
C3396 H3388 0.929 . S
C3396 C3397 1.377 1_556 S
C3396 C3398 1.384 . S
C3397 C3396 1.377 1_554 S
C3397 C3403 1.390 . S
C3398 H3389 0.930 . S
C3398 C3396 1.384 . S
C3398 C3399 1.372 1_556 S
C3399 C3398 1.372 1_554 S
C3399 C3400 1.400 . S
C3399 C3404 1.490 . S
C3400 H3390 0.930 . S
C3400 C3399 1.400 . S
C3400 C3403 1.386 . S
H3401 C3417 0.930 . S
H3402 C3418 0.938 . S
C3403 H3391 0.929 . S
C3403 C3397 1.390 . S
C3403 C3400 1.386 . S
C3404 C3399 1.490 . S
C3404 C3406 1.395 . S
C3404 C3407 1.403 . S
H3405 C3411 0.930 . S
C3406 H3392 0.930 . S
C3406 C3404 1.395 . S
C3406 C3409 1.403 . S
C3407 C3404 1.403 . S
C3407 C3408 1.524 . S
C3407 C3411 1.400 . S
C3408 H3393 0.960 . S
C3408 H3394 0.960 . S
C3408 H3395 0.960 . S
C3408 C3407 1.524 . S
C3409 C3406 1.403 . S
C3409 C3410 1.392 . S
C3409 C3413 1.489 1_564 S
C3410 C3409 1.392 . S
C3410 C3411 1.385 . S
C3410 C3412 1.478 . S
C3411 H3405 0.930 . S
C3411 C3407 1.400 . S
C3411 C3410 1.385 . S
C3412 C3410 1.478 . S
C3412 C3414 1.381 1_554 S
C3412 C3418 1.383 1_565 S
C3413 C3409 1.489 1_546 S
C3413 H3419 0.962 . S
C3413 H3420 0.953 1_556 S
C3413 H3421 0.971 . S
C3414 C3412 1.381 1_556 S
C3414 C3415 1.394 1_565 S
C3414 H3422 0.930 . S
C3415 C3414 1.394 1_545 S
C3415 C3416 1.383 1_556 S
C3415 H3423 0.929 . S
C3416 C3415 1.383 1_554 S
C3416 C3417 1.377 . S
C3417 H3401 0.930 . S
C3417 C3416 1.377 . S
C3417 C3418 1.379 . S
C3418 H3402 0.938 . S
C3418 C3412 1.383 1_545 S
C3418 C3417 1.379 . S
H3419 C3413 0.962 . S
H3420 C3413 0.953 1_554 S
H3421 C3413 0.971 . S
H3422 C3414 0.930 . S
H3423 C3415 0.929 . S
H3424 C3432 0.929 . S
H3425 C3434 0.930 . S
H3426 C3436 0.930 . S
H3427 C3439 0.929 . S
H3428 C3442 0.930 . S
H3429 C3444 0.960 . S
H3430 C3444 0.960 . S
H3431 C3444 0.960 . S
C3432 H3424 0.929 . S
C3432 C3433 1.377 . S
C3432 C3434 1.384 . S
C3433 C3432 1.377 . S
C3433 C3439 1.390 . S
C3434 H3425 0.930 . S
C3434 C3432 1.384 . S
C3434 C3435 1.372 . S
C3435 C3434 1.372 . S
C3435 C3436 1.400 . S
C3435 C3440 1.490 . S
C3436 H3426 0.930 . S
C3436 C3435 1.400 . S
C3436 C3439 1.386 . S
H3437 C3453 0.930 . S
H3438 C3454 0.931 . S
C3439 H3427 0.929 . S
C3439 C3433 1.390 . S
C3439 C3436 1.386 . S
C3440 C3435 1.490 . S
C3440 C3442 1.395 . S
C3440 C3443 1.403 . S
H3441 C3447 0.930 . S
C3442 H3428 0.930 . S
C3442 C3440 1.395 . S
C3442 C3445 1.403 . S
C3443 C3440 1.403 . S
C3443 C3444 1.524 . S
C3443 C3447 1.400 . S
C3444 H3429 0.960 . S
C3444 H3430 0.960 . S
C3444 H3431 0.960 . S
C3444 C3443 1.524 . S
C3445 C3442 1.403 . S
C3445 C3446 1.392 . S
C3445 C3449 1.495 . S
C3446 C3445 1.392 . S
C3446 C3447 1.385 . S
C3446 C3448 1.478 . S
C3447 H3441 0.930 . S
C3447 C3443 1.400 . S
C3447 C3446 1.385 . S
C3448 C3446 1.478 . S
C3448 C3450 1.381 . S
C3448 C3454 1.383 . S
C3449 C3445 1.495 . S
C3449 H3455 0.959 . S
C3449 H3456 0.961 . S
C3449 H3457 0.960 . S
C3450 C3448 1.381 . S
C3450 C3451 1.394 . S
C3450 H3458 0.930 . S
C3451 C3450 1.394 . S
C3451 C3452 1.383 . S
C3451 H3459 0.929 . S
C3452 C3451 1.383 . S
C3452 C3453 1.377 . S
C3453 H3437 0.930 . S
C3453 C3452 1.377 . S
C3453 C3454 1.379 . S
C3454 H3438 0.931 . S
C3454 C3448 1.383 . S
C3454 C3453 1.379 . S
H3455 C3449 0.959 . S
H3456 C3449 0.961 . S
H3457 C3449 0.960 . S
H3458 C3450 0.930 . S
H3459 C3451 0.929 . S
H3460 C3468 0.929 . S
H3461 C3470 0.930 . S
H3462 C3472 0.930 . S
H3463 C3475 0.929 . S
H3464 C3478 0.930 . S
H3465 C3480 0.960 . S
H3466 C3480 0.960 . S
H3467 C3480 0.960 1_556 S
C3468 H3460 0.929 . S
C3468 C3469 1.377 . S
C3468 C3470 1.384 . S
C3469 C3468 1.377 . S
C3469 C3475 1.390 1_554 S
C3470 H3461 0.930 . S
C3470 C3468 1.384 . S
C3470 C3471 1.372 . S
C3471 C3470 1.372 . S
C3471 C3472 1.400 1_554 S
C3471 C3476 1.490 . S
C3472 H3462 0.930 . S
C3472 C3471 1.400 1_556 S
C3472 C3475 1.386 . S
H3473 C3489 0.930 . S
H3474 C3490 0.931 . S
C3475 H3463 0.929 . S
C3475 C3469 1.390 1_556 S
C3475 C3472 1.386 . S
C3476 C3471 1.490 . S
C3476 C3478 1.395 . S
C3476 C3479 1.403 . S
H3477 C3483 0.930 . S
C3478 H3464 0.930 . S
C3478 C3476 1.395 . S
C3478 C3481 1.403 . S
C3479 C3476 1.403 . S
C3479 C3480 1.524 . S
C3479 C3483 1.400 . S
C3480 H3465 0.960 . S
C3480 H3466 0.960 . S
C3480 H3467 0.960 1_554 S
C3480 C3479 1.524 . S
C3481 C3478 1.403 . S
C3481 C3482 1.392 . S
C3481 C3485 1.495 . S
C3482 C3481 1.392 . S
C3482 C3483 1.385 . S
C3482 C3484 1.478 . S
C3483 H3477 0.930 . S
C3483 C3479 1.400 . S
C3483 C3482 1.385 . S
C3484 C3482 1.478 . S
C3484 C3486 1.381 . S
C3484 C3490 1.383 . S
C3485 C3481 1.495 . S
C3485 H3491 0.959 . S
C3485 H3492 0.961 . S
C3485 H3493 0.960 . S
C3486 C3484 1.381 . S
C3486 C3487 1.394 . S
C3486 H3494 0.930 . S
C3487 C3486 1.394 . S
C3487 C3488 1.383 . S
C3487 H3495 0.929 . S
C3488 C3487 1.383 . S
C3488 C3489 1.377 . S
C3489 H3473 0.930 . S
C3489 C3488 1.377 . S
C3489 C3490 1.379 . S
C3490 H3474 0.931 . S
C3490 C3484 1.383 . S
C3490 C3489 1.379 . S
H3491 C3485 0.959 . S
H3492 C3485 0.961 . S
H3493 C3485 0.960 . S
H3494 C3486 0.930 . S
H3495 C3487 0.929 . S
H3496 C3504 0.929 . S
H3497 C3506 0.930 . S
H3498 C3508 0.930 . S
H3499 C3511 0.929 . S
H3500 C3514 0.930 . S
H3501 C3516 0.960 . S
H3502 C3516 0.960 . S
H3503 C3516 0.960 . S
C3504 H3496 0.929 . S
C3504 C3505 1.377 . S
C3504 C3506 1.384 . S
C3505 C3504 1.377 . S
C3505 C3511 1.390 . S
C3506 H3497 0.930 . S
C3506 C3504 1.384 . S
C3506 C3507 1.372 . S
C3507 C3506 1.372 . S
C3507 C3508 1.400 . S
C3507 C3512 1.490 . S
C3508 H3498 0.930 . S
C3508 C3507 1.400 . S
C3508 C3511 1.386 . S
H3509 C3525 0.930 . S
H3510 C3526 0.931 . S
C3511 H3499 0.929 . S
C3511 C3505 1.390 . S
C3511 C3508 1.386 . S
C3512 C3507 1.490 . S
C3512 C3514 1.395 . S
C3512 C3515 1.403 . S
H3513 C3519 0.930 . S
C3514 H3500 0.930 . S
C3514 C3512 1.395 . S
C3514 C3517 1.403 . S
C3515 C3512 1.403 . S
C3515 C3516 1.524 . S
C3515 C3519 1.400 . S
C3516 H3501 0.960 . S
C3516 H3502 0.960 . S
C3516 H3503 0.960 . S
C3516 C3515 1.524 . S
C3517 C3514 1.403 . S
C3517 C3518 1.392 . S
C3517 C3521 1.495 . S
C3518 C3517 1.392 . S
C3518 C3519 1.385 . S
C3518 C3520 1.478 . S
C3519 H3513 0.930 . S
C3519 C3515 1.400 . S
C3519 C3518 1.385 . S
C3520 C3518 1.478 . S
C3520 C3522 1.381 . S
C3520 C3526 1.383 . S
C3521 C3517 1.495 . S
C3521 H3527 0.959 . S
C3521 H3528 0.961 . S
C3521 H3529 0.960 . S
C3522 C3520 1.381 . S
C3522 C3523 1.394 . S
C3522 H3530 0.930 . S
C3523 C3522 1.394 . S
C3523 C3524 1.383 . S
C3523 H3531 0.929 . S
C3524 C3523 1.383 . S
C3524 C3525 1.377 . S
C3525 H3509 0.930 . S
C3525 C3524 1.377 . S
C3525 C3526 1.379 . S
C3526 H3510 0.931 . S
C3526 C3520 1.383 . S
C3526 C3525 1.379 . S
H3527 C3521 0.959 . S
H3528 C3521 0.961 . S
H3529 C3521 0.960 . S
H3530 C3522 0.930 . S
H3531 C3523 0.929 . S
H3532 C3540 0.929 . S
H3533 C3542 0.930 . S
H3534 C3544 0.930 . S
H3535 C3547 0.929 . S
H3536 C3550 0.930 . S
H3537 C3552 0.960 . S
H3538 C3552 0.960 . S
H3539 C3552 0.960 . S
C3540 H3532 0.929 . S
C3540 C3541 1.377 . S
C3540 C3542 1.384 . S
C3541 C3540 1.377 . S
C3541 C3547 1.390 . S
C3542 H3533 0.930 . S
C3542 C3540 1.384 . S
C3542 C3543 1.372 . S
C3543 C3542 1.372 . S
C3543 C3544 1.400 . S
C3543 C3548 1.490 . S
C3544 H3534 0.930 . S
C3544 C3543 1.400 . S
C3544 C3547 1.386 . S
H3545 C3561 0.930 . S
H3546 C3562 0.931 . S
C3547 H3535 0.929 . S
C3547 C3541 1.390 . S
C3547 C3544 1.386 . S
C3548 C3543 1.490 . S
C3548 C3550 1.395 . S
C3548 C3551 1.403 . S
H3549 C3555 0.930 . S
C3550 H3536 0.930 . S
C3550 C3548 1.395 . S
C3550 C3553 1.403 . S
C3551 C3548 1.403 . S
C3551 C3552 1.524 . S
C3551 C3555 1.400 . S
C3552 H3537 0.960 . S
C3552 H3538 0.960 . S
C3552 H3539 0.960 . S
C3552 C3551 1.524 . S
C3553 C3550 1.403 . S
C3553 C3554 1.392 . S
C3553 C3557 1.495 . S
C3554 C3553 1.392 . S
C3554 C3555 1.385 . S
C3554 C3556 1.478 . S
C3555 H3549 0.930 . S
C3555 C3551 1.400 . S
C3555 C3554 1.385 . S
C3556 C3554 1.478 . S
C3556 C3558 1.381 . S
C3556 C3562 1.383 . S
C3557 C3553 1.495 . S
C3557 H3563 0.959 . S
C3557 H3564 0.961 . S
C3557 H3565 0.960 . S
C3558 C3556 1.381 . S
C3558 C3559 1.394 . S
C3558 H3566 0.930 . S
C3559 C3558 1.394 . S
C3559 C3560 1.383 . S
C3559 H3567 0.929 . S
C3560 C3559 1.383 . S
C3560 C3561 1.377 . S
C3561 H3545 0.930 . S
C3561 C3560 1.377 . S
C3561 C3562 1.379 . S
C3562 H3546 0.931 . S
C3562 C3556 1.383 . S
C3562 C3561 1.379 . S
H3563 C3557 0.959 . S
H3564 C3557 0.961 . S
H3565 C3557 0.960 . S
H3566 C3558 0.930 . S
H3567 C3559 0.929 . S
H3568 C3576 0.929 . S
H3569 C3578 0.930 . S
H3570 C3580 0.930 . S
H3571 C3583 0.929 . S
H3572 C3586 0.930 . S
H3573 C3588 0.960 . S
H3574 C3588 0.960 . S
H3575 C3588 0.960 . S
C3576 H3568 0.929 . S
C3576 C3577 1.377 . S
C3576 C3578 1.384 . S
C3577 C3576 1.377 . S
C3577 C3583 1.390 . S
C3578 H3569 0.930 . S
C3578 C3576 1.384 . S
C3578 C3579 1.372 . S
C3579 C3578 1.372 . S
C3579 C3580 1.400 . S
C3579 C3584 1.490 . S
C3580 H3570 0.930 . S
C3580 C3579 1.400 . S
C3580 C3583 1.386 . S
H3581 C3597 0.930 . S
H3582 C3598 0.931 . S
C3583 H3571 0.929 . S
C3583 C3577 1.390 . S
C3583 C3580 1.386 . S
C3584 C3579 1.490 . S
C3584 C3586 1.395 . S
C3584 C3587 1.403 . S
H3585 C3591 0.930 . S
C3586 H3572 0.930 . S
C3586 C3584 1.395 . S
C3586 C3589 1.403 . S
C3587 C3584 1.403 . S
C3587 C3588 1.524 . S
C3587 C3591 1.400 . S
C3588 H3573 0.960 . S
C3588 H3574 0.960 . S
C3588 H3575 0.960 . S
C3588 C3587 1.524 . S
C3589 C3586 1.403 . S
C3589 C3590 1.392 . S
C3589 C3593 1.495 . S
C3590 C3589 1.392 . S
C3590 C3591 1.385 . S
C3590 C3592 1.478 . S
C3591 H3585 0.930 . S
C3591 C3587 1.400 . S
C3591 C3590 1.385 . S
C3592 C3590 1.478 . S
C3592 C3594 1.381 . S
C3592 C3598 1.383 . S
C3593 C3589 1.495 . S
C3593 H3599 0.959 . S
C3593 H3600 0.961 . S
C3593 H3601 0.960 . S
C3594 C3592 1.381 . S
C3594 C3595 1.394 . S
C3594 H3602 0.930 . S
C3595 C3594 1.394 . S
C3595 C3596 1.383 . S
C3595 H3603 0.929 . S
C3596 C3595 1.383 . S
C3596 C3597 1.377 . S
C3597 H3581 0.930 . S
C3597 C3596 1.377 . S
C3597 C3598 1.379 . S
C3598 H3582 0.931 . S
C3598 C3592 1.383 . S
C3598 C3597 1.379 . S
H3599 C3593 0.959 . S
H3600 C3593 0.961 . S
H3601 C3593 0.960 . S
H3602 C3594 0.930 . S
H3603 C3595 0.929 . S
H3604 C3612 0.929 . S
H3605 C3614 0.930 . S
H3606 C3616 0.930 . S
H3607 C3619 0.929 . S
H3608 C3622 0.930 . S
H3609 C3624 0.960 . S
H3610 C3624 0.960 . S
H3611 C3624 0.960 . S
C3612 H3604 0.929 . S
C3612 C3613 1.377 . S
C3612 C3614 1.384 . S
C3613 C3612 1.377 . S
C3613 C3619 1.390 . S
C3614 H3605 0.930 . S
C3614 C3612 1.384 . S
C3614 C3615 1.372 . S
C3615 C3614 1.372 . S
C3615 C3616 1.400 . S
C3615 C3620 1.490 . S
C3616 H3606 0.930 . S
C3616 C3615 1.400 . S
C3616 C3619 1.386 . S
H3617 C3633 0.930 . S
H3618 C3634 0.931 . S
C3619 H3607 0.929 . S
C3619 C3613 1.390 . S
C3619 C3616 1.386 . S
C3620 C3615 1.490 . S
C3620 C3622 1.395 . S
C3620 C3623 1.403 . S
H3621 C3627 0.930 . S
C3622 H3608 0.930 . S
C3622 C3620 1.395 . S
C3622 C3625 1.403 . S
C3623 C3620 1.403 . S
C3623 C3624 1.524 . S
C3623 C3627 1.400 . S
C3624 H3609 0.960 . S
C3624 H3610 0.960 . S
C3624 H3611 0.960 . S
C3624 C3623 1.524 . S
C3625 C3622 1.403 . S
C3625 C3626 1.392 . S
C3625 C3629 1.495 . S
C3626 C3625 1.392 . S
C3626 C3627 1.385 . S
C3626 C3628 1.478 . S
C3627 H3621 0.930 . S
C3627 C3623 1.400 . S
C3627 C3626 1.385 . S
C3628 C3626 1.478 . S
C3628 C3630 1.381 . S
C3628 C3634 1.383 . S
C3629 C3625 1.495 . S
C3629 H3635 0.959 . S
C3629 H3636 0.961 . S
C3629 H3637 0.960 . S
C3630 C3628 1.381 . S
C3630 C3631 1.394 . S
C3630 H3638 0.930 . S
C3631 C3630 1.394 . S
C3631 C3632 1.383 . S
C3631 H3639 0.929 . S
C3632 C3631 1.383 . S
C3632 C3633 1.377 . S
C3633 H3617 0.930 . S
C3633 C3632 1.377 . S
C3633 C3634 1.379 . S
C3634 H3618 0.931 . S
C3634 C3628 1.383 . S
C3634 C3633 1.379 . S
H3635 C3629 0.959 . S
H3636 C3629 0.961 . S
H3637 C3629 0.960 . S
H3638 C3630 0.930 . S
H3639 C3631 0.929 . S
H3640 C3648 0.929 . S
H3641 C3650 0.930 . S
H3642 C3652 0.930 . S
H3643 C3655 0.929 . S
H3644 C3658 0.930 . S
H3645 C3660 0.960 . S
H3646 C3660 0.960 . S
H3647 C3660 0.960 . S
C3648 H3640 0.929 . S
C3648 C3649 1.377 . S
C3648 C3650 1.384 . S
C3649 C3648 1.377 . S
C3649 C3655 1.390 . S
C3650 H3641 0.930 . S
C3650 C3648 1.384 . S
C3650 C3651 1.372 . S
C3651 C3650 1.372 . S
C3651 C3652 1.400 . S
C3651 C3656 1.490 . S
C3652 H3642 0.930 . S
C3652 C3651 1.400 . S
C3652 C3655 1.386 . S
H3653 C3669 0.930 . S
H3654 C3670 0.931 . S
C3655 H3643 0.929 . S
C3655 C3649 1.390 . S
C3655 C3652 1.386 . S
C3656 C3651 1.490 . S
C3656 C3658 1.395 . S
C3656 C3659 1.403 . S
H3657 C3663 0.930 . S
C3658 H3644 0.930 . S
C3658 C3656 1.395 . S
C3658 C3661 1.403 . S
C3659 C3656 1.403 . S
C3659 C3660 1.524 . S
C3659 C3663 1.400 . S
C3660 H3645 0.960 . S
C3660 H3646 0.960 . S
C3660 H3647 0.960 . S
C3660 C3659 1.524 . S
C3661 C3658 1.403 . S
C3661 C3662 1.392 . S
C3661 C3665 1.495 . S
C3662 C3661 1.392 . S
C3662 C3663 1.385 . S
C3662 C3664 1.478 . S
C3663 H3657 0.930 . S
C3663 C3659 1.400 . S
C3663 C3662 1.385 . S
C3664 C3662 1.478 . S
C3664 C3666 1.381 . S
C3664 C3670 1.383 . S
C3665 C3661 1.495 . S
C3665 H3671 0.959 . S
C3665 H3672 0.961 . S
C3665 H3673 0.960 . S
C3666 C3664 1.381 . S
C3666 C3667 1.394 . S
C3666 H3674 0.930 . S
C3667 C3666 1.394 . S
C3667 C3668 1.383 . S
C3667 H3675 0.929 . S
C3668 C3667 1.383 . S
C3668 C3669 1.377 . S
C3669 H3653 0.930 . S
C3669 C3668 1.377 . S
C3669 C3670 1.379 . S
C3670 H3654 0.931 . S
C3670 C3664 1.383 . S
C3670 C3669 1.379 . S
H3671 C3665 0.959 . S
H3672 C3665 0.961 . S
H3673 C3665 0.960 . S
H3674 C3666 0.930 . S
H3675 C3667 0.929 . S
H3676 C3684 0.929 . S
H3677 C3686 0.930 . S
H3678 C3688 0.930 . S
H3679 C3691 0.929 . S
H3680 C3694 0.930 . S
H3681 C3696 0.960 . S
H3682 C3696 0.960 . S
H3683 C3696 0.960 . S
C3684 H3676 0.929 . S
C3684 C3685 1.377 . S
C3684 C3686 1.384 . S
C3685 C3684 1.377 . S
C3685 C3691 1.390 . S
C3686 H3677 0.930 . S
C3686 C3684 1.384 . S
C3686 C3687 1.372 . S
C3687 C3686 1.372 . S
C3687 C3688 1.400 . S
C3687 C3692 1.490 . S
C3688 H3678 0.930 . S
C3688 C3687 1.400 . S
C3688 C3691 1.386 . S
H3689 C3705 0.930 . S
H3690 C3706 0.931 . S
C3691 H3679 0.929 . S
C3691 C3685 1.390 . S
C3691 C3688 1.386 . S
C3692 C3687 1.490 . S
C3692 C3694 1.395 . S
C3692 C3695 1.403 . S
H3693 C3699 0.930 . S
C3694 H3680 0.930 . S
C3694 C3692 1.395 . S
C3694 C3697 1.403 . S
C3695 C3692 1.403 . S
C3695 C3696 1.524 . S
C3695 C3699 1.400 . S
C3696 H3681 0.960 . S
C3696 H3682 0.960 . S
C3696 H3683 0.960 . S
C3696 C3695 1.524 . S
C3697 C3694 1.403 . S
C3697 C3698 1.392 . S
C3697 C3701 1.495 . S
C3698 C3697 1.392 . S
C3698 C3699 1.385 . S
C3698 C3700 1.478 . S
C3699 H3693 0.930 . S
C3699 C3695 1.400 . S
C3699 C3698 1.385 . S
C3700 C3698 1.478 . S
C3700 C3702 1.381 . S
C3700 C3706 1.383 . S
C3701 C3697 1.495 . S
C3701 H3707 0.959 . S
C3701 H3708 0.961 . S
C3701 H3709 0.960 . S
C3702 C3700 1.381 . S
C3702 C3703 1.394 . S
C3702 H3710 0.930 . S
C3703 C3702 1.394 . S
C3703 C3704 1.383 . S
C3703 H3711 0.929 . S
C3704 C3703 1.383 . S
C3704 C3705 1.377 . S
C3705 H3689 0.930 . S
C3705 C3704 1.377 . S
C3705 C3706 1.379 . S
C3706 H3690 0.931 . S
C3706 C3700 1.383 . S
C3706 C3705 1.379 . S
H3707 C3701 0.959 . S
H3708 C3701 0.961 . S
H3709 C3701 0.960 . S
H3710 C3702 0.930 . S
H3711 C3703 0.929 . S
H3712 C3720 0.929 . S
H3713 C3722 0.930 . S
H3714 C3724 0.930 . S
H3715 C3727 0.929 . S
H3716 C3730 0.930 . S
H3717 C3732 0.960 . S
H3718 C3732 0.960 . S
H3719 C3732 0.960 . S
C3720 H3712 0.929 . S
C3720 C3721 1.377 . S
C3720 C3722 1.384 . S
C3721 C3720 1.377 . S
C3721 C3727 1.390 . S
C3722 H3713 0.930 . S
C3722 C3720 1.384 . S
C3722 C3723 1.372 . S
C3723 C3722 1.372 . S
C3723 C3724 1.400 . S
C3723 C3728 1.490 . S
C3724 H3714 0.930 . S
C3724 C3723 1.400 . S
C3724 C3727 1.386 . S
H3725 C3741 0.930 . S
H3726 C3742 0.931 . S
C3727 H3715 0.929 . S
C3727 C3721 1.390 . S
C3727 C3724 1.386 . S
C3728 C3723 1.490 . S
C3728 C3730 1.395 . S
C3728 C3731 1.403 . S
H3729 C3735 0.930 . S
C3730 H3716 0.930 . S
C3730 C3728 1.395 . S
C3730 C3733 1.403 . S
C3731 C3728 1.403 . S
C3731 C3732 1.524 . S
C3731 C3735 1.400 . S
C3732 H3717 0.960 . S
C3732 H3718 0.960 . S
C3732 H3719 0.960 . S
C3732 C3731 1.524 . S
C3733 C3730 1.403 . S
C3733 C3734 1.392 . S
C3733 C3737 1.495 . S
C3734 C3733 1.392 . S
C3734 C3735 1.385 . S
C3734 C3736 1.478 . S
C3735 H3729 0.930 . S
C3735 C3731 1.400 . S
C3735 C3734 1.385 . S
C3736 C3734 1.478 . S
C3736 C3738 1.381 . S
C3736 C3742 1.383 . S
C3737 C3733 1.495 . S
C3737 H3743 0.959 . S
C3737 H3744 0.961 . S
C3737 H3745 0.960 . S
C3738 C3736 1.381 . S
C3738 C3739 1.394 . S
C3738 H3746 0.930 . S
C3739 C3738 1.394 . S
C3739 C3740 1.383 . S
C3739 H3747 0.929 . S
C3740 C3739 1.383 . S
C3740 C3741 1.377 . S
C3741 H3725 0.930 . S
C3741 C3740 1.377 . S
C3741 C3742 1.379 . S
C3742 H3726 0.931 . S
C3742 C3736 1.383 . S
C3742 C3741 1.379 . S
H3743 C3737 0.959 . S
H3744 C3737 0.961 . S
H3745 C3737 0.960 . S
H3746 C3738 0.930 . S
H3747 C3739 0.929 . S
H3748 C3756 0.929 . S
H3749 C3758 0.930 . S
H3750 C3760 0.930 . S
H3751 C3763 0.929 . S
H3752 C3766 0.930 . S
H3753 C3768 0.960 . S
H3754 C3768 0.960 . S
H3755 C3768 0.960 . S
C3756 H3748 0.929 . S
C3756 C3757 1.377 . S
C3756 C3758 1.384 . S
C3757 C3756 1.377 . S
C3757 C3763 1.390 . S
C3758 H3749 0.930 . S
C3758 C3756 1.384 . S
C3758 C3759 1.372 . S
C3759 C3758 1.372 . S
C3759 C3760 1.400 . S
C3759 C3764 1.490 . S
C3760 H3750 0.930 . S
C3760 C3759 1.400 . S
C3760 C3763 1.386 . S
H3761 C3777 0.930 . S
H3762 C3778 0.931 . S
C3763 H3751 0.929 . S
C3763 C3757 1.390 . S
C3763 C3760 1.386 . S
C3764 C3759 1.490 . S
C3764 C3766 1.395 . S
C3764 C3767 1.403 . S
H3765 C3771 0.930 . S
C3766 H3752 0.930 . S
C3766 C3764 1.395 . S
C3766 C3769 1.403 . S
C3767 C3764 1.403 . S
C3767 C3768 1.524 . S
C3767 C3771 1.400 . S
C3768 H3753 0.960 . S
C3768 H3754 0.960 . S
C3768 H3755 0.960 . S
C3768 C3767 1.524 . S
C3769 C3766 1.403 . S
C3769 C3770 1.392 . S
C3769 C3773 1.495 . S
C3770 C3769 1.392 . S
C3770 C3771 1.385 . S
C3770 C3772 1.478 . S
C3771 H3765 0.930 . S
C3771 C3767 1.400 . S
C3771 C3770 1.385 . S
C3772 C3770 1.478 . S
C3772 C3774 1.381 . S
C3772 C3778 1.383 . S
C3773 C3769 1.495 . S
C3773 H3779 0.959 . S
C3773 H3780 0.961 . S
C3773 H3781 0.960 . S
C3774 C3772 1.381 . S
C3774 C3775 1.394 . S
C3774 H3782 0.930 . S
C3775 C3774 1.394 . S
C3775 C3776 1.383 . S
C3775 H3783 0.929 . S
C3776 C3775 1.383 . S
C3776 C3777 1.377 . S
C3777 H3761 0.930 . S
C3777 C3776 1.377 . S
C3777 C3778 1.379 . S
C3778 H3762 0.931 . S
C3778 C3772 1.383 . S
C3778 C3777 1.379 . S
H3779 C3773 0.959 . S
H3780 C3773 0.961 . S
H3781 C3773 0.960 . S
H3782 C3774 0.930 . S
H3783 C3775 0.929 . S
H3784 C3792 0.929 . S
H3785 C3794 0.930 . S
H3786 C3796 0.930 . S
H3787 C3799 0.929 . S
H3788 C3802 0.930 . S
H3789 C3804 0.960 . S
H3790 C3804 0.960 . S
H3791 C3804 0.960 . S
C3792 H3784 0.929 . S
C3792 C3793 1.377 . S
C3792 C3794 1.384 . S
C3793 C3792 1.377 . S
C3793 C3799 1.390 . S
C3794 H3785 0.930 . S
C3794 C3792 1.384 . S
C3794 C3795 1.372 . S
C3795 C3794 1.372 . S
C3795 C3796 1.400 . S
C3795 C3800 1.490 . S
C3796 H3786 0.930 . S
C3796 C3795 1.400 . S
C3796 C3799 1.386 . S
H3797 C3813 0.930 . S
H3798 C3814 0.931 . S
C3799 H3787 0.929 . S
C3799 C3793 1.390 . S
C3799 C3796 1.386 . S
C3800 C3795 1.490 . S
C3800 C3802 1.395 . S
C3800 C3803 1.403 . S
H3801 C3807 0.930 . S
C3802 H3788 0.930 . S
C3802 C3800 1.395 . S
C3802 C3805 1.403 . S
C3803 C3800 1.403 . S
C3803 C3804 1.524 . S
C3803 C3807 1.400 . S
C3804 H3789 0.960 . S
C3804 H3790 0.960 . S
C3804 H3791 0.960 . S
C3804 C3803 1.524 . S
C3805 C3802 1.403 . S
C3805 C3806 1.392 . S
C3805 C3809 1.495 . S
C3806 C3805 1.392 . S
C3806 C3807 1.385 . S
C3806 C3808 1.478 . S
C3807 H3801 0.930 . S
C3807 C3803 1.400 . S
C3807 C3806 1.385 . S
C3808 C3806 1.478 . S
C3808 C3810 1.381 . S
C3808 C3814 1.383 . S
C3809 C3805 1.495 . S
C3809 H3815 0.959 . S
C3809 H3816 0.961 . S
C3809 H3817 0.960 . S
C3810 C3808 1.381 . S
C3810 C3811 1.394 . S
C3810 H3818 0.930 . S
C3811 C3810 1.394 . S
C3811 C3812 1.383 . S
C3811 H3819 0.929 . S
C3812 C3811 1.383 . S
C3812 C3813 1.377 . S
C3813 H3797 0.930 . S
C3813 C3812 1.377 . S
C3813 C3814 1.379 . S
C3814 H3798 0.931 . S
C3814 C3808 1.383 . S
C3814 C3813 1.379 . S
H3815 C3809 0.959 . S
H3816 C3809 0.961 . S
H3817 C3809 0.960 . S
H3818 C3810 0.930 . S
H3819 C3811 0.929 . S
H3820 C3828 0.929 . S
H3821 C3830 0.930 . S
H3822 C3832 0.930 . S
H3823 C3835 0.929 . S
H3824 C3838 0.930 . S
H3825 C3840 0.960 . S
H3826 C3840 0.960 . S
H3827 C3840 0.960 . S
C3828 H3820 0.929 . S
C3828 C3829 1.377 . S
C3828 C3830 1.384 . S
C3829 C3828 1.377 . S
C3829 C3835 1.390 . S
C3830 H3821 0.930 . S
C3830 C3828 1.384 . S
C3830 C3831 1.372 . S
C3831 C3830 1.372 . S
C3831 C3832 1.400 . S
C3831 C3836 1.490 . S
C3832 H3822 0.930 . S
C3832 C3831 1.400 . S
C3832 C3835 1.386 . S
H3833 C3849 0.930 . S
H3834 C3850 0.931 . S
C3835 H3823 0.929 . S
C3835 C3829 1.390 . S
C3835 C3832 1.386 . S
C3836 C3831 1.490 . S
C3836 C3838 1.395 . S
C3836 C3839 1.403 . S
H3837 C3843 0.930 . S
C3838 H3824 0.930 . S
C3838 C3836 1.395 . S
C3838 C3841 1.403 . S
C3839 C3836 1.403 . S
C3839 C3840 1.524 . S
C3839 C3843 1.400 . S
C3840 H3825 0.960 . S
C3840 H3826 0.960 . S
C3840 H3827 0.960 . S
C3840 C3839 1.524 . S
C3841 C3838 1.403 . S
C3841 C3842 1.392 . S
C3841 C3845 1.495 . S
C3842 C3841 1.392 . S
C3842 C3843 1.385 . S
C3842 C3844 1.478 . S
C3843 H3837 0.930 . S
C3843 C3839 1.400 . S
C3843 C3842 1.385 . S
C3844 C3842 1.478 . S
C3844 C3846 1.381 . S
C3844 C3850 1.383 . S
C3845 C3841 1.495 . S
C3845 H3851 0.959 . S
C3845 H3852 0.961 . S
C3845 H3853 0.960 . S
C3846 C3844 1.381 . S
C3846 C3847 1.394 . S
C3846 H3854 0.930 . S
C3847 C3846 1.394 . S
C3847 C3848 1.383 . S
C3847 H3855 0.929 . S
C3848 C3847 1.383 . S
C3848 C3849 1.377 . S
C3849 H3833 0.930 . S
C3849 C3848 1.377 . S
C3849 C3850 1.379 . S
C3850 H3834 0.931 . S
C3850 C3844 1.383 . S
C3850 C3849 1.379 . S
H3851 C3845 0.959 . S
H3852 C3845 0.961 . S
H3853 C3845 0.960 . S
H3854 C3846 0.930 . S
H3855 C3847 0.929 . S
H3856 C3864 0.929 . S
H3857 C3866 0.930 . S
H3858 C3868 0.930 . S
H3859 C3871 0.929 . S
H3860 C3874 0.930 . S
H3861 C3876 0.960 . S
H3862 C3876 0.960 . S
H3863 C3876 0.960 . S
C3864 H3856 0.929 . S
C3864 C3865 1.377 . S
C3864 C3866 1.384 . S
C3865 C3864 1.377 . S
C3865 C3871 1.390 . S
C3866 H3857 0.930 . S
C3866 C3864 1.384 . S
C3866 C3867 1.372 . S
C3867 C3866 1.372 . S
C3867 C3868 1.400 . S
C3867 C3872 1.490 . S
C3868 H3858 0.930 . S
C3868 C3867 1.400 . S
C3868 C3871 1.386 . S
H3869 C3885 0.930 . S
H3870 C3886 0.931 . S
C3871 H3859 0.929 . S
C3871 C3865 1.390 . S
C3871 C3868 1.386 . S
C3872 C3867 1.490 . S
C3872 C3874 1.395 . S
C3872 C3875 1.403 . S
H3873 C3879 0.930 . S
C3874 H3860 0.930 . S
C3874 C3872 1.395 . S
C3874 C3877 1.403 . S
C3875 C3872 1.403 . S
C3875 C3876 1.524 . S
C3875 C3879 1.400 . S
C3876 H3861 0.960 . S
C3876 H3862 0.960 . S
C3876 H3863 0.960 . S
C3876 C3875 1.524 . S
C3877 C3874 1.403 . S
C3877 C3878 1.392 . S
C3877 C3881 1.495 . S
C3878 C3877 1.392 . S
C3878 C3879 1.385 . S
C3878 C3880 1.478 . S
C3879 H3873 0.930 . S
C3879 C3875 1.400 . S
C3879 C3878 1.385 . S
C3880 C3878 1.478 . S
C3880 C3882 1.381 . S
C3880 C3886 1.383 . S
C3881 C3877 1.495 . S
C3881 H3887 0.959 . S
C3881 H3888 0.961 . S
C3881 H3889 0.960 . S
C3882 C3880 1.381 . S
C3882 C3883 1.394 . S
C3882 H3890 0.930 . S
C3883 C3882 1.394 . S
C3883 C3884 1.383 . S
C3883 H3891 0.929 . S
C3884 C3883 1.383 . S
C3884 C3885 1.377 . S
C3885 H3869 0.930 . S
C3885 C3884 1.377 . S
C3885 C3886 1.379 . S
C3886 H3870 0.931 . S
C3886 C3880 1.383 . S
C3886 C3885 1.379 . S
H3887 C3881 0.959 . S
H3888 C3881 0.961 . S
H3889 C3881 0.960 . S
H3890 C3882 0.930 . S
H3891 C3883 0.929 . S
H3892 C3900 0.929 . S
H3893 C3902 0.930 . S
H3894 C3904 0.930 . S
H3895 C3907 0.929 . S
H3896 C3910 0.930 . S
H3897 C3912 0.960 . S
H3898 C3912 0.960 . S
H3899 C3912 0.960 . S
C3900 H3892 0.929 . S
C3900 C3901 1.377 . S
C3900 C3902 1.384 . S
C3901 C3900 1.377 . S
C3901 C3907 1.390 . S
C3902 H3893 0.930 . S
C3902 C3900 1.384 . S
C3902 C3903 1.372 . S
C3903 C3902 1.372 . S
C3903 C3904 1.400 . S
C3903 C3908 1.490 . S
C3904 H3894 0.930 . S
C3904 C3903 1.400 . S
C3904 C3907 1.386 . S
H3905 C3921 0.930 . S
H3906 C3922 0.931 . S
C3907 H3895 0.929 . S
C3907 C3901 1.390 . S
C3907 C3904 1.386 . S
C3908 C3903 1.490 . S
C3908 C3910 1.395 . S
C3908 C3911 1.403 . S
H3909 C3915 0.930 . S
C3910 H3896 0.930 . S
C3910 C3908 1.395 . S
C3910 C3913 1.403 . S
C3911 C3908 1.403 . S
C3911 C3912 1.524 . S
C3911 C3915 1.400 . S
C3912 H3897 0.960 . S
C3912 H3898 0.960 . S
C3912 H3899 0.960 . S
C3912 C3911 1.524 . S
C3913 C3910 1.403 . S
C3913 C3914 1.392 . S
C3913 C3917 1.495 . S
C3914 C3913 1.392 . S
C3914 C3915 1.385 . S
C3914 C3916 1.478 . S
C3915 H3909 0.930 . S
C3915 C3911 1.400 . S
C3915 C3914 1.385 . S
C3916 C3914 1.478 . S
C3916 C3918 1.381 . S
C3916 C3922 1.383 . S
C3917 C3913 1.495 . S
C3917 H3923 0.959 . S
C3917 H3924 0.961 . S
C3917 H3925 0.960 . S
C3918 C3916 1.381 . S
C3918 C3919 1.394 . S
C3918 H3926 0.930 . S
C3919 C3918 1.394 . S
C3919 C3920 1.383 . S
C3919 H3927 0.929 . S
C3920 C3919 1.383 . S
C3920 C3921 1.377 . S
C3921 H3905 0.930 . S
C3921 C3920 1.377 . S
C3921 C3922 1.379 . S
C3922 H3906 0.931 . S
C3922 C3916 1.383 . S
C3922 C3921 1.379 . S
H3923 C3917 0.959 . S
H3924 C3917 0.961 . S
H3925 C3917 0.960 . S
H3926 C3918 0.930 . S
H3927 C3919 0.929 . S
H3928 C3936 0.929 . S
H3929 C3938 0.930 . S
H3930 C3940 0.930 . S
H3931 C3943 0.929 . S
H3932 C3946 0.930 . S
H3933 C3948 0.960 . S
H3934 C3948 0.960 . S
H3935 C3948 0.960 . S
C3936 H3928 0.929 . S
C3936 C3937 1.377 . S
C3936 C3938 1.384 . S
C3937 C3936 1.377 . S
C3937 C3943 1.390 . S
C3938 H3929 0.930 . S
C3938 C3936 1.384 . S
C3938 C3939 1.372 . S
C3939 C3938 1.372 . S
C3939 C3940 1.400 . S
C3939 C3944 1.490 . S
C3940 H3930 0.930 . S
C3940 C3939 1.400 . S
C3940 C3943 1.386 . S
H3941 C3957 0.930 . S
H3942 C3958 0.957 . S
C3943 H3931 0.929 . S
C3943 C3937 1.390 . S
C3943 C3940 1.386 . S
C3944 C3939 1.490 . S
C3944 C3946 1.395 . S
C3944 C3947 1.403 . S
H3945 C3951 0.930 . S
C3946 H3932 0.930 . S
C3946 C3944 1.395 . S
C3946 C3949 1.403 . S
C3947 C3944 1.403 . S
C3947 C3948 1.524 . S
C3947 C3951 1.400 . S
C3948 H3933 0.960 . S
C3948 H3934 0.960 . S
C3948 H3935 0.960 . S
C3948 C3947 1.524 . S
C3949 C3946 1.403 . S
C3949 C3950 1.392 . S
C3949 C3953 1.495 1_655 S
C3950 C3949 1.392 . S
C3950 C3951 1.385 . S
C3950 C3952 1.474 . S
C3951 H3945 0.930 . S
C3951 C3947 1.400 . S
C3951 C3950 1.385 . S
C3952 C3950 1.474 . S
C3952 C3954 1.386 1_655 S
C3952 C3958 1.372 . S
C3953 C3949 1.495 1_455 S
C3953 H3959 0.959 . S
C3953 H3960 0.961 . S
C3953 H3961 0.960 . S
C3954 C3952 1.386 1_455 S
C3954 C3955 1.394 . S
C3954 H3962 0.930 . S
C3955 C3954 1.394 . S
C3955 C3956 1.383 . S
C3955 H3963 0.929 . S
C3956 C3955 1.383 . S
C3956 C3957 1.377 . S
C3957 H3941 0.930 . S
C3957 C3956 1.377 . S
C3957 C3958 1.364 1_455 S
C3958 H3942 0.957 . S
C3958 C3952 1.372 . S
C3958 C3957 1.364 1_655 S
H3959 C3953 0.959 . S
H3960 C3953 0.961 . S
H3961 C3953 0.960 . S
H3962 C3954 0.930 . S
H3963 C3955 0.929 . S
H3964 C3972 0.929 . S
H3965 C3974 0.930 . S
H3966 C3976 0.930 . S
H3967 C3979 0.929 . S
H3968 C3982 0.930 . S
H3969 C3984 0.960 . S
H3970 C3984 0.960 . S
H3971 C3984 0.960 . S
C3972 H3964 0.929 . S
C3972 C3973 1.377 . S
C3972 C3974 1.384 . S
C3973 C3972 1.377 . S
C3973 C3979 1.390 . S
C3974 H3965 0.930 . S
C3974 C3972 1.384 . S
C3974 C3975 1.372 . S
C3975 C3974 1.372 . S
C3975 C3976 1.400 . S
C3975 C3980 1.490 . S
C3976 H3966 0.930 . S
C3976 C3975 1.400 . S
C3976 C3979 1.386 . S
H3977 C3993 0.930 . S
H3978 C3994 0.931 . S
C3979 H3967 0.929 . S
C3979 C3973 1.390 . S
C3979 C3976 1.386 . S
C3980 C3975 1.490 . S
C3980 C3982 1.395 . S
C3980 C3983 1.403 . S
H3981 C3987 0.930 . S
C3982 H3968 0.930 . S
C3982 C3980 1.395 . S
C3982 C3985 1.403 . S
C3983 C3980 1.403 . S
C3983 C3984 1.524 . S
C3983 C3987 1.400 . S
C3984 H3969 0.960 . S
C3984 H3970 0.960 . S
C3984 H3971 0.960 . S
C3984 C3983 1.524 . S
C3985 C3982 1.403 . S
C3985 C3986 1.392 . S
C3985 C3989 1.495 . S
C3986 C3985 1.392 . S
C3986 C3987 1.385 . S
C3986 C3988 1.478 . S
C3987 H3981 0.930 . S
C3987 C3983 1.400 . S
C3987 C3986 1.385 . S
C3988 C3986 1.478 . S
C3988 C3990 1.381 . S
C3988 C3994 1.383 . S
C3989 C3985 1.495 . S
C3989 H3995 0.959 . S
C3989 H3996 0.961 . S
C3989 H3997 0.960 . S
C3990 C3988 1.381 . S
C3990 C3991 1.394 . S
C3990 H3998 0.930 . S
C3991 C3990 1.394 . S
C3991 C3992 1.383 . S
C3991 H3999 0.929 . S
C3992 C3991 1.383 . S
C3992 C3993 1.377 . S
C3993 H3977 0.930 . S
C3993 C3992 1.377 . S
C3993 C3994 1.379 . S
C3994 H3978 0.931 . S
C3994 C3988 1.383 . S
C3994 C3993 1.379 . S
H3995 C3989 0.959 . S
H3996 C3989 0.961 . S
H3997 C3989 0.960 . S
H3998 C3990 0.930 . S
H3999 C3991 0.929 . S
H4000 C4008 0.929 . S
H4001 C4010 0.930 . S
H4002 C4012 0.930 . S
H4003 C4015 0.929 . S
H4004 C4018 0.930 . S
H4005 C4020 0.960 . S
H4006 C4020 0.960 . S
H4007 C4020 0.960 . S
C4008 H4000 0.929 . S
C4008 C4009 1.377 . S
C4008 C4010 1.384 . S
C4009 C4008 1.377 . S
C4009 C4015 1.390 . S
C4010 H4001 0.930 . S
C4010 C4008 1.384 . S
C4010 C4011 1.372 . S
C4011 C4010 1.372 . S
C4011 C4012 1.400 . S
C4011 C4016 1.490 . S
C4012 H4002 0.930 . S
C4012 C4011 1.400 . S
C4012 C4015 1.386 . S
H4013 C4029 0.930 . S
H4014 C4030 0.931 . S
C4015 H4003 0.929 . S
C4015 C4009 1.390 . S
C4015 C4012 1.386 . S
C4016 C4011 1.490 . S
C4016 C4018 1.395 . S
C4016 C4019 1.403 . S
H4017 C4023 0.930 . S
C4018 H4004 0.930 . S
C4018 C4016 1.395 . S
C4018 C4021 1.403 . S
C4019 C4016 1.403 . S
C4019 C4020 1.524 . S
C4019 C4023 1.400 . S
C4020 H4005 0.960 . S
C4020 H4006 0.960 . S
C4020 H4007 0.960 . S
C4020 C4019 1.524 . S
C4021 C4018 1.403 . S
C4021 C4022 1.392 . S
C4021 C4025 1.495 . S
C4022 C4021 1.392 . S
C4022 C4023 1.385 . S
C4022 C4024 1.478 . S
C4023 H4017 0.930 . S
C4023 C4019 1.400 . S
C4023 C4022 1.385 . S
C4024 C4022 1.478 . S
C4024 C4026 1.381 . S
C4024 C4030 1.383 . S
C4025 C4021 1.495 . S
C4025 H4031 0.959 . S
C4025 H4032 0.961 . S
C4025 H4033 0.960 . S
C4026 C4024 1.381 . S
C4026 C4027 1.394 . S
C4026 H4034 0.930 . S
C4027 C4026 1.394 . S
C4027 C4028 1.383 . S
C4027 H4035 0.929 . S
C4028 C4027 1.383 . S
C4028 C4029 1.377 . S
C4029 H4013 0.930 . S
C4029 C4028 1.377 . S
C4029 C4030 1.379 . S
C4030 H4014 0.931 . S
C4030 C4024 1.383 . S
C4030 C4029 1.379 . S
H4031 C4025 0.959 . S
H4032 C4025 0.961 . S
H4033 C4025 0.960 . S
H4034 C4026 0.930 . S
H4035 C4027 0.929 . S
H4036 C4044 0.929 . S
H4037 C4046 0.930 . S
H4038 C4048 0.930 . S
H4039 C4051 0.929 . S
H4040 C4054 0.930 . S
H4041 C4056 0.960 . S
H4042 C4056 0.960 . S
H4043 C4056 0.960 . S
C4044 H4036 0.929 . S
C4044 C4045 1.377 . S
C4044 C4046 1.384 . S
C4045 C4044 1.377 . S
C4045 C4051 1.390 . S
C4046 H4037 0.930 . S
C4046 C4044 1.384 . S
C4046 C4047 1.372 . S
C4047 C4046 1.372 . S
C4047 C4048 1.400 . S
C4047 C4052 1.490 . S
C4048 H4038 0.930 . S
C4048 C4047 1.400 . S
C4048 C4051 1.386 . S
H4049 C4065 0.930 . S
H4050 C4066 0.931 . S
C4051 H4039 0.929 . S
C4051 C4045 1.390 . S
C4051 C4048 1.386 . S
C4052 C4047 1.490 . S
C4052 C4054 1.395 . S
C4052 C4055 1.403 . S
H4053 C4059 0.930 . S
C4054 H4040 0.930 . S
C4054 C4052 1.395 . S
C4054 C4057 1.403 . S
C4055 C4052 1.403 . S
C4055 C4056 1.524 . S
C4055 C4059 1.400 . S
C4056 H4041 0.960 . S
C4056 H4042 0.960 . S
C4056 H4043 0.960 . S
C4056 C4055 1.524 . S
C4057 C4054 1.403 . S
C4057 C4058 1.392 . S
C4057 C4061 1.495 . S
C4058 C4057 1.392 . S
C4058 C4059 1.385 . S
C4058 C4060 1.478 . S
C4059 H4053 0.930 . S
C4059 C4055 1.400 . S
C4059 C4058 1.385 . S
C4060 C4058 1.478 . S
C4060 C4062 1.381 . S
C4060 C4066 1.383 . S
C4061 C4057 1.495 . S
C4061 H4067 0.959 . S
C4061 H4068 0.961 . S
C4061 H4069 0.960 . S
C4062 C4060 1.381 . S
C4062 C4063 1.394 . S
C4062 H4070 0.930 . S
C4063 C4062 1.394 . S
C4063 C4064 1.383 . S
C4063 H4071 0.929 . S
C4064 C4063 1.383 . S
C4064 C4065 1.377 . S
C4065 H4049 0.930 . S
C4065 C4064 1.377 . S
C4065 C4066 1.379 . S
C4066 H4050 0.931 . S
C4066 C4060 1.383 . S
C4066 C4065 1.379 . S
H4067 C4061 0.959 . S
H4068 C4061 0.961 . S
H4069 C4061 0.960 . S
H4070 C4062 0.930 . S
H4071 C4063 0.929 . S
H4072 C4080 0.929 . S
H4073 C4082 0.930 . S
H4074 C4084 0.930 . S
H4075 C4087 0.929 . S
H4076 C4090 0.930 . S
H4077 C4092 0.960 . S
H4078 C4092 0.960 . S
H4079 C4092 0.960 . S
C4080 H4072 0.929 . S
C4080 C4081 1.377 . S
C4080 C4082 1.384 . S
C4081 C4080 1.377 . S
C4081 C4087 1.390 . S
C4082 H4073 0.930 . S
C4082 C4080 1.384 . S
C4082 C4083 1.372 . S
C4083 C4082 1.372 . S
C4083 C4084 1.400 . S
C4083 C4088 1.490 . S
C4084 H4074 0.930 . S
C4084 C4083 1.400 . S
C4084 C4087 1.386 . S
H4085 C4101 0.930 . S
H4086 C4102 0.931 . S
C4087 H4075 0.929 . S
C4087 C4081 1.390 . S
C4087 C4084 1.386 . S
C4088 C4083 1.490 . S
C4088 C4090 1.395 . S
C4088 C4091 1.403 . S
H4089 C4095 0.930 . S
C4090 H4076 0.930 . S
C4090 C4088 1.395 . S
C4090 C4093 1.403 . S
C4091 C4088 1.403 . S
C4091 C4092 1.524 . S
C4091 C4095 1.400 . S
C4092 H4077 0.960 . S
C4092 H4078 0.960 . S
C4092 H4079 0.960 . S
C4092 C4091 1.524 . S
C4093 C4090 1.403 . S
C4093 C4094 1.392 . S
C4093 C4097 1.495 . S
C4094 C4093 1.392 . S
C4094 C4095 1.385 . S
C4094 C4096 1.478 . S
C4095 H4089 0.930 . S
C4095 C4091 1.400 . S
C4095 C4094 1.385 . S
C4096 C4094 1.478 . S
C4096 C4098 1.381 . S
C4096 C4102 1.383 . S
C4097 C4093 1.495 . S
C4097 H4103 0.959 . S
C4097 H4104 0.961 . S
C4097 H4105 0.960 . S
C4098 C4096 1.381 . S
C4098 C4099 1.394 . S
C4098 H4106 0.930 . S
C4099 C4098 1.394 . S
C4099 C4100 1.383 . S
C4099 H4107 0.929 1_655 S
C4100 C4099 1.383 . S
C4100 C4101 1.377 . S
C4101 H4085 0.930 . S
C4101 C4100 1.377 . S
C4101 C4102 1.379 . S
C4102 H4086 0.931 . S
C4102 C4096 1.383 . S
C4102 C4101 1.379 . S
H4103 C4097 0.959 . S
H4104 C4097 0.961 . S
H4105 C4097 0.960 . S
H4106 C4098 0.930 . S
H4107 C4099 0.929 1_455 S
H4108 C4116 0.929 . S
H4109 C4118 0.930 . S
H4110 C4120 0.930 . S
H4111 C4123 0.929 . S
H4112 C4126 0.930 . S
H4113 C4128 0.960 . S
H4114 C4128 0.960 . S
H4115 C4128 0.960 . S
C4116 H4108 0.929 . S
C4116 C4117 1.377 . S
C4116 C4118 1.384 . S
C4117 C4116 1.377 . S
C4117 C4123 1.390 . S
C4118 H4109 0.930 . S
C4118 C4116 1.384 . S
C4118 C4119 1.372 . S
C4119 C4118 1.372 . S
C4119 C4120 1.400 . S
C4119 C4124 1.490 . S
C4120 H4110 0.930 . S
C4120 C4119 1.400 . S
C4120 C4123 1.386 . S
H4121 C4137 0.930 . S
H4122 C4138 0.931 . S
C4123 H4111 0.929 . S
C4123 C4117 1.390 . S
C4123 C4120 1.386 . S
C4124 C4119 1.490 . S
C4124 C4126 1.395 . S
C4124 C4127 1.403 . S
H4125 C4131 0.930 . S
C4126 H4112 0.930 . S
C4126 C4124 1.395 . S
C4126 C4129 1.403 . S
C4127 C4124 1.403 . S
C4127 C4128 1.524 . S
C4127 C4131 1.400 . S
C4128 H4113 0.960 . S
C4128 H4114 0.960 . S
C4128 H4115 0.960 . S
C4128 C4127 1.524 . S
C4129 C4126 1.403 . S
C4129 C4130 1.392 . S
C4129 C4133 1.495 . S
C4130 C4129 1.392 . S
C4130 C4131 1.385 . S
C4130 C4132 1.478 . S
C4131 H4125 0.930 . S
C4131 C4127 1.400 . S
C4131 C4130 1.385 . S
C4132 C4130 1.478 . S
C4132 C4134 1.381 . S
C4132 C4138 1.383 . S
C4133 C4129 1.495 . S
C4133 H4139 0.959 . S
C4133 H4140 0.961 . S
C4133 H4141 0.960 . S
C4134 C4132 1.381 . S
C4134 C4135 1.394 . S
C4134 H4142 0.930 . S
C4135 C4134 1.394 . S
C4135 C4136 1.383 . S
C4135 H4143 0.929 . S
C4136 C4135 1.383 . S
C4136 C4137 1.377 . S
C4137 H4121 0.930 . S
C4137 C4136 1.377 . S
C4137 C4138 1.379 . S
C4138 H4122 0.931 . S
C4138 C4132 1.383 . S
C4138 C4137 1.379 . S
H4139 C4133 0.959 . S
H4140 C4133 0.961 . S
H4141 C4133 0.960 . S
H4142 C4134 0.930 . S
H4143 C4135 0.929 . S
H4144 C4152 0.929 . S
H4145 C4154 0.930 . S
H4146 C4156 0.930 . S
H4147 C4159 0.929 . S
H4148 C4162 0.930 . S
H4149 C4164 0.960 . S
H4150 C4164 0.960 . S
H4151 C4164 0.960 . S
C4152 H4144 0.929 . S
C4152 C4153 1.377 . S
C4152 C4154 1.384 . S
C4153 C4152 1.377 . S
C4153 C4159 1.390 . S
C4154 H4145 0.930 . S
C4154 C4152 1.384 . S
C4154 C4155 1.372 . S
C4155 C4154 1.372 . S
C4155 C4156 1.400 . S
C4155 C4160 1.490 . S
C4156 H4146 0.930 . S
C4156 C4155 1.400 . S
C4156 C4159 1.386 . S
H4157 C4173 0.930 . S
H4158 C4174 0.931 . S
C4159 H4147 0.929 . S
C4159 C4153 1.390 . S
C4159 C4156 1.386 . S
C4160 C4155 1.490 . S
C4160 C4162 1.395 . S
C4160 C4163 1.403 . S
H4161 C4167 0.930 . S
C4162 H4148 0.930 . S
C4162 C4160 1.395 . S
C4162 C4165 1.403 . S
C4163 C4160 1.403 . S
C4163 C4164 1.524 . S
C4163 C4167 1.400 . S
C4164 H4149 0.960 . S
C4164 H4150 0.960 . S
C4164 H4151 0.960 . S
C4164 C4163 1.524 . S
C4165 C4162 1.403 . S
C4165 C4166 1.392 . S
C4165 C4169 1.495 . S
C4166 C4165 1.392 . S
C4166 C4167 1.385 . S
C4166 C4168 1.478 . S
C4167 H4161 0.930 . S
C4167 C4163 1.400 . S
C4167 C4166 1.385 . S
C4168 C4166 1.478 . S
C4168 C4170 1.381 . S
C4168 C4174 1.383 . S
C4169 C4165 1.495 . S
C4169 H4175 0.959 . S
C4169 H4176 0.961 . S
C4169 H4177 0.960 . S
C4170 C4168 1.381 . S
C4170 C4171 1.394 . S
C4170 H4178 0.930 . S
C4171 C4170 1.394 . S
C4171 C4172 1.383 . S
C4171 H4179 0.929 . S
C4172 C4171 1.383 . S
C4172 C4173 1.377 . S
C4173 H4157 0.930 . S
C4173 C4172 1.377 . S
C4173 C4174 1.379 . S
C4174 H4158 0.931 . S
C4174 C4168 1.383 . S
C4174 C4173 1.379 . S
H4175 C4169 0.959 . S
H4176 C4169 0.961 . S
H4177 C4169 0.960 . S
H4178 C4170 0.930 . S
H4179 C4171 0.929 . S
H4180 C4188 0.929 . S
H4181 C4190 0.930 . S
H4182 C4192 0.930 . S
H4183 C4195 0.929 . S
H4184 C4198 0.930 . S
H4185 C4200 0.960 . S
H4186 C4200 0.960 . S
H4187 C4200 0.960 . S
C4188 H4180 0.929 . S
C4188 C4189 1.377 . S
C4188 C4190 1.384 . S
C4189 C4188 1.377 . S
C4189 C4195 1.390 . S
C4190 H4181 0.930 . S
C4190 C4188 1.384 . S
C4190 C4191 1.372 . S
C4191 C4190 1.372 . S
C4191 C4192 1.400 . S
C4191 C4196 1.490 . S
C4192 H4182 0.930 . S
C4192 C4191 1.400 . S
C4192 C4195 1.386 . S
H4193 C4209 0.930 . S
H4194 C4210 0.931 . S
C4195 H4183 0.929 . S
C4195 C4189 1.390 . S
C4195 C4192 1.386 . S
C4196 C4191 1.490 . S
C4196 C4198 1.395 . S
C4196 C4199 1.403 . S
H4197 C4203 0.930 . S
C4198 H4184 0.930 . S
C4198 C4196 1.395 . S
C4198 C4201 1.403 . S
C4199 C4196 1.403 . S
C4199 C4200 1.524 . S
C4199 C4203 1.400 . S
C4200 H4185 0.960 . S
C4200 H4186 0.960 . S
C4200 H4187 0.960 . S
C4200 C4199 1.524 . S
C4201 C4198 1.403 . S
C4201 C4202 1.392 . S
C4201 C4205 1.495 . S
C4202 C4201 1.392 . S
C4202 C4203 1.385 . S
C4202 C4204 1.478 . S
C4203 H4197 0.930 . S
C4203 C4199 1.400 . S
C4203 C4202 1.385 . S
C4204 C4202 1.478 . S
C4204 C4206 1.381 . S
C4204 C4210 1.383 . S
C4205 C4201 1.495 . S
C4205 H4211 0.959 . S
C4205 H4212 0.961 . S
C4205 H4213 0.960 . S
C4206 C4204 1.381 . S
C4206 C4207 1.394 . S
C4206 H4214 0.930 . S
C4207 C4206 1.394 . S
C4207 C4208 1.383 . S
C4207 H4215 0.929 1_565 S
C4208 C4207 1.383 . S
C4208 C4209 1.377 . S
C4209 H4193 0.930 . S
C4209 C4208 1.377 . S
C4209 C4210 1.379 . S
C4210 H4194 0.931 . S
C4210 C4204 1.383 . S
C4210 C4209 1.379 . S
H4211 C4205 0.959 . S
H4212 C4205 0.961 . S
H4213 C4205 0.960 . S
H4214 C4206 0.930 . S
H4215 C4207 0.929 1_545 S
H4216 C4224 0.929 . S
H4217 C4226 0.930 . S
H4218 C4228 0.930 . S
H4219 C4231 0.929 . S
H4220 C4234 0.930 . S
H4221 C4236 0.960 . S
H4222 C4236 0.960 . S
H4223 C4236 0.960 . S
C4224 H4216 0.929 . S
C4224 C4225 1.377 . S
C4224 C4226 1.384 . S
C4225 C4224 1.377 . S
C4225 C4231 1.390 . S
C4226 H4217 0.930 . S
C4226 C4224 1.384 . S
C4226 C4227 1.372 . S
C4227 C4226 1.372 . S
C4227 C4228 1.400 . S
C4227 C4232 1.490 . S
C4228 H4218 0.930 . S
C4228 C4227 1.400 . S
C4228 C4231 1.386 . S
H4229 C4245 0.930 . S
H4230 C4246 0.931 . S
C4231 H4219 0.929 . S
C4231 C4225 1.390 . S
C4231 C4228 1.386 . S
C4232 C4227 1.490 . S
C4232 C4234 1.395 . S
C4232 C4235 1.403 . S
H4233 C4239 0.930 . S
C4234 H4220 0.930 . S
C4234 C4232 1.395 . S
C4234 C4237 1.403 . S
C4235 C4232 1.403 . S
C4235 C4236 1.524 . S
C4235 C4239 1.400 . S
C4236 H4221 0.960 . S
C4236 H4222 0.960 . S
C4236 H4223 0.960 . S
C4236 C4235 1.524 . S
C4237 C4234 1.403 . S
C4237 C4238 1.392 . S
C4237 C4241 1.495 . S
C4238 C4237 1.392 . S
C4238 C4239 1.385 . S
C4238 C4240 1.478 . S
C4239 H4233 0.930 . S
C4239 C4235 1.400 . S
C4239 C4238 1.385 . S
C4240 C4238 1.478 . S
C4240 C4242 1.381 . S
C4240 C4246 1.383 . S
C4241 C4237 1.495 . S
C4241 H4247 0.959 . S
C4241 H4248 0.961 . S
C4241 H4249 0.960 . S
C4242 C4240 1.381 . S
C4242 C4243 1.394 . S
C4242 H4250 0.930 . S
C4243 C4242 1.394 . S
C4243 C4244 1.383 . S
C4243 H4251 0.929 . S
C4244 C4243 1.383 . S
C4244 C4245 1.377 . S
C4245 H4229 0.930 . S
C4245 C4244 1.377 . S
C4245 C4246 1.379 . S
C4246 H4230 0.931 . S
C4246 C4240 1.383 . S
C4246 C4245 1.379 . S
H4247 C4241 0.959 . S
H4248 C4241 0.961 . S
H4249 C4241 0.960 . S
H4250 C4242 0.930 . S
H4251 C4243 0.929 . S
H4252 C4260 0.929 . S
H4253 C4262 0.930 . S
H4254 C4264 0.930 . S
H4255 C4267 0.929 . S
H4256 C4270 0.930 . S
H4257 C4272 0.960 . S
H4258 C4272 0.960 . S
H4259 C4272 0.960 . S
C4260 H4252 0.929 . S
C4260 C4261 1.377 . S
C4260 C4262 1.384 . S
C4261 C4260 1.377 . S
C4261 C4267 1.390 . S
C4262 H4253 0.930 . S
C4262 C4260 1.384 . S
C4262 C4263 1.372 . S
C4263 C4262 1.372 . S
C4263 C4264 1.400 . S
C4263 C4268 1.490 . S
C4264 H4254 0.930 . S
C4264 C4263 1.400 . S
C4264 C4267 1.386 . S
H4265 C4281 0.930 . S
H4266 C4282 0.931 . S
C4267 H4255 0.929 . S
C4267 C4261 1.390 . S
C4267 C4264 1.386 . S
C4268 C4263 1.490 . S
C4268 C4270 1.395 . S
C4268 C4271 1.403 1_554 S
H4269 C4275 0.930 . S
C4270 H4256 0.930 . S
C4270 C4268 1.395 . S
C4270 C4273 1.403 . S
C4271 C4268 1.403 1_556 S
C4271 C4272 1.524 . S
C4271 C4275 1.400 . S
C4272 H4257 0.960 . S
C4272 H4258 0.960 . S
C4272 H4259 0.960 . S
C4272 C4271 1.524 . S
C4273 C4270 1.403 . S
C4273 C4274 1.392 . S
C4273 C4277 1.495 . S
C4274 C4273 1.392 . S
C4274 C4275 1.385 1_554 S
C4274 C4276 1.478 . S
C4275 H4269 0.930 . S
C4275 C4271 1.400 . S
C4275 C4274 1.385 1_556 S
C4276 C4274 1.478 . S
C4276 C4278 1.381 . S
C4276 C4282 1.383 . S
C4277 C4273 1.495 . S
C4277 H4283 0.959 . S
C4277 H4284 0.961 . S
C4277 H4285 0.960 . S
C4278 C4276 1.381 . S
C4278 C4279 1.394 . S
C4278 H4286 0.930 . S
C4279 C4278 1.394 . S
C4279 C4280 1.383 . S
C4279 H4287 0.929 . S
C4280 C4279 1.383 . S
C4280 C4281 1.377 . S
C4281 H4265 0.930 . S
C4281 C4280 1.377 . S
C4281 C4282 1.379 . S
C4282 H4266 0.931 . S
C4282 C4276 1.383 . S
C4282 C4281 1.379 . S
H4283 C4277 0.959 . S
H4284 C4277 0.961 . S
H4285 C4277 0.960 . S
H4286 C4278 0.930 . S
H4287 C4279 0.929 . S
H4288 C4296 0.929 . S
H4289 C4298 0.930 . S
H4290 C4300 0.930 . S
H4291 C4303 0.929 . S
H4292 C4306 0.930 . S
H4293 C4308 0.960 . S
H4294 C4308 0.960 . S
H4295 C4308 0.960 . S
C4296 H4288 0.929 . S
C4296 C4297 1.377 . S
C4296 C4298 1.384 . S
C4297 C4296 1.377 . S
C4297 C4303 1.390 . S
C4298 H4289 0.930 . S
C4298 C4296 1.384 . S
C4298 C4299 1.372 . S
C4299 C4298 1.372 . S
C4299 C4300 1.400 . S
C4299 C4304 1.490 . S
C4300 H4290 0.930 . S
C4300 C4299 1.400 . S
C4300 C4303 1.386 . S
H4301 C4317 0.930 . S
H4302 C4318 0.931 . S
C4303 H4291 0.929 . S
C4303 C4297 1.390 . S
C4303 C4300 1.386 . S
C4304 C4299 1.490 . S
C4304 C4306 1.395 . S
C4304 C4307 1.403 . S
H4305 C4311 0.930 . S
C4306 H4292 0.930 . S
C4306 C4304 1.395 . S
C4306 C4309 1.403 . S
C4307 C4304 1.403 . S
C4307 C4308 1.524 . S
C4307 C4311 1.400 . S
C4308 H4293 0.960 . S
C4308 H4294 0.960 . S
C4308 H4295 0.960 . S
C4308 C4307 1.524 . S
C4309 C4306 1.403 . S
C4309 C4310 1.392 . S
C4309 C4313 1.495 . S
C4310 C4309 1.392 . S
C4310 C4311 1.385 . S
C4310 C4312 1.478 . S
C4311 H4305 0.930 . S
C4311 C4307 1.400 . S
C4311 C4310 1.385 . S
C4312 C4310 1.478 . S
C4312 C4314 1.381 . S
C4312 C4318 1.383 . S
C4313 C4309 1.495 . S
C4313 H4319 0.959 . S
C4313 H4320 0.961 . S
C4313 H4321 0.960 . S
C4314 C4312 1.381 . S
C4314 C4315 1.394 . S
C4314 H4322 0.930 . S
C4315 C4314 1.394 . S
C4315 C4316 1.383 . S
C4315 H4323 0.929 . S
C4316 C4315 1.383 . S
C4316 C4317 1.377 . S
C4317 H4301 0.930 . S
C4317 C4316 1.377 . S
C4317 C4318 1.379 . S
C4318 H4302 0.931 . S
C4318 C4312 1.383 . S
C4318 C4317 1.379 . S
H4319 C4313 0.959 . S
H4320 C4313 0.961 . S
H4321 C4313 0.960 . S
H4322 C4314 0.930 . S
H4323 C4315 0.929 . S
H4324 C4332 0.929 . S
H4325 C4334 0.930 . S
H4326 C4336 0.964 . S
H4327 C4339 0.929 1_556 S
H4328 C4342 0.934 . S
H4329 C4344 0.960 . S
H4330 C4344 0.960 . S
H4331 C4344 0.960 . S
C4332 H4324 0.929 . S
C4332 C4333 1.377 . S
C4332 C4334 1.384 . S
C4333 C4332 1.377 . S
C4333 C4339 1.390 . S
C4334 H4325 0.930 . S
C4334 C4332 1.384 . S
C4334 C4335 1.372 . S
C4335 C4334 1.372 . S
C4335 C4336 1.380 1_554 S
C4335 C4340 1.490 . S
C4336 H4326 0.964 . S
C4336 C4335 1.380 1_556 S
C4336 C4339 1.375 1_556 S
H4337 C4353 0.930 . S
H4338 C4354 0.931 . S
C4339 H4327 0.929 1_554 S
C4339 C4333 1.390 . S
C4339 C4336 1.375 1_554 S
C4340 C4335 1.490 . S
C4340 C4342 1.387 1_554 S
C4340 C4343 1.403 . S
H4341 C4347 0.930 . S
C4342 H4328 0.934 . S
C4342 C4340 1.387 1_556 S
C4342 C4345 1.408 . S
C4343 C4340 1.403 . S
C4343 C4344 1.524 . S
C4343 C4347 1.400 . S
C4344 H4329 0.960 . S
C4344 H4330 0.960 . S
C4344 H4331 0.960 . S
C4344 C4343 1.524 . S
C4345 C4342 1.408 . S
C4345 C4346 1.392 . S
C4345 C4349 1.495 . S
C4346 C4345 1.392 . S
C4346 C4347 1.385 1_556 S
C4346 C4348 1.478 . S
C4347 H4341 0.930 . S
C4347 C4343 1.400 . S
C4347 C4346 1.385 1_554 S
C4348 C4346 1.478 . S
C4348 C4350 1.381 1_556 S
C4348 C4354 1.383 . S
C4349 C4345 1.495 . S
C4349 H4355 0.959 . S
C4349 H4356 0.961 . S
C4349 H4357 0.960 . S
C4350 C4348 1.381 1_554 S
C4350 C4351 1.394 . S
C4350 H4358 0.930 . S
C4351 C4350 1.394 . S
C4351 C4352 1.383 1_554 S
C4351 H4359 0.929 . S
C4352 C4351 1.383 1_556 S
C4352 C4353 1.377 . S
C4353 H4337 0.930 . S
C4353 C4352 1.377 . S
C4353 C4354 1.379 . S
C4354 H4338 0.931 . S
C4354 C4348 1.383 . S
C4354 C4353 1.379 . S
H4355 C4349 0.959 . S
H4356 C4349 0.961 . S
H4357 C4349 0.960 . S
H4358 C4350 0.930 . S
H4359 C4351 0.929 . S
H4360 C4368 0.929 . S
H4361 C4370 0.930 . S
H4362 C4372 0.930 . S
H4363 C4375 0.929 . S
H4364 C4378 0.930 . S
H4365 C4380 0.960 . S
H4366 C4380 0.960 . S
H4367 C4380 0.960 . S
C4368 H4360 0.929 . S
C4368 C4369 1.377 . S
C4368 C4370 1.384 . S
C4369 C4368 1.377 . S
C4369 C4375 1.390 . S
C4370 H4361 0.930 . S
C4370 C4368 1.384 . S
C4370 C4371 1.372 . S
C4371 C4370 1.372 . S
C4371 C4372 1.400 . S
C4371 C4376 1.490 . S
C4372 H4362 0.930 . S
C4372 C4371 1.400 . S
C4372 C4375 1.386 . S
H4373 C4389 0.930 . S
H4374 C4390 0.931 . S
C4375 H4363 0.929 . S
C4375 C4369 1.390 . S
C4375 C4372 1.386 . S
C4376 C4371 1.490 . S
C4376 C4378 1.395 . S
C4376 C4379 1.403 . S
H4377 C4383 0.930 . S
C4378 H4364 0.930 . S
C4378 C4376 1.395 . S
C4378 C4381 1.403 . S
C4379 C4376 1.403 . S
C4379 C4380 1.524 . S
C4379 C4383 1.400 . S
C4380 H4365 0.960 . S
C4380 H4366 0.960 . S
C4380 H4367 0.960 . S
C4380 C4379 1.524 . S
C4381 C4378 1.403 . S
C4381 C4382 1.392 . S
C4381 C4385 1.495 . S
C4382 C4381 1.392 . S
C4382 C4383 1.385 . S
C4382 C4384 1.478 . S
C4383 H4377 0.930 . S
C4383 C4379 1.400 . S
C4383 C4382 1.385 . S
C4384 C4382 1.478 . S
C4384 C4386 1.381 . S
C4384 C4390 1.383 . S
C4385 C4381 1.495 . S
C4385 H4391 0.959 . S
C4385 H4392 0.961 . S
C4385 H4393 0.960 . S
C4386 C4384 1.381 . S
C4386 C4387 1.394 . S
C4386 H4394 0.930 . S
C4387 C4386 1.394 . S
C4387 C4388 1.383 . S
C4387 H4395 0.929 . S
C4388 C4387 1.383 . S
C4388 C4389 1.377 . S
C4389 H4373 0.930 . S
C4389 C4388 1.377 . S
C4389 C4390 1.379 . S
C4390 H4374 0.931 . S
C4390 C4384 1.383 . S
C4390 C4389 1.379 . S
H4391 C4385 0.959 . S
H4392 C4385 0.961 . S
H4393 C4385 0.960 . S
H4394 C4386 0.930 . S
H4395 C4387 0.929 . S
H4396 C4404 0.929 . S
H4397 C4406 0.930 . S
H4398 C4408 0.930 . S
H4399 C4411 0.929 . S
H4400 C4414 0.930 . S
H4401 C4416 0.960 . S
H4402 C4416 0.960 . S
H4403 C4416 0.960 . S
C4404 H4396 0.929 . S
C4404 C4405 1.377 . S
C4404 C4406 1.384 . S
C4405 C4404 1.377 . S
C4405 C4411 1.390 . S
C4406 H4397 0.930 . S
C4406 C4404 1.384 . S
C4406 C4407 1.372 . S
C4407 C4406 1.372 . S
C4407 C4408 1.400 . S
C4407 C4412 1.490 . S
C4408 H4398 0.930 . S
C4408 C4407 1.400 . S
C4408 C4411 1.386 . S
H4409 C4425 0.930 . S
H4410 C4426 0.931 . S
C4411 H4399 0.929 . S
C4411 C4405 1.390 . S
C4411 C4408 1.386 . S
C4412 C4407 1.490 . S
C4412 C4414 1.395 . S
C4412 C4415 1.403 . S
H4413 C4419 0.930 . S
C4414 H4400 0.930 . S
C4414 C4412 1.395 . S
C4414 C4417 1.403 . S
C4415 C4412 1.403 . S
C4415 C4416 1.524 . S
C4415 C4419 1.400 . S
C4416 H4401 0.960 . S
C4416 H4402 0.960 . S
C4416 H4403 0.960 . S
C4416 C4415 1.524 . S
C4417 C4414 1.403 . S
C4417 C4418 1.392 . S
C4417 C4421 1.495 . S
C4418 C4417 1.392 . S
C4418 C4419 1.385 . S
C4418 C4420 1.478 . S
C4419 H4413 0.930 . S
C4419 C4415 1.400 . S
C4419 C4418 1.385 . S
C4420 C4418 1.478 . S
C4420 C4422 1.381 . S
C4420 C4426 1.383 . S
C4421 C4417 1.495 . S
C4421 H4427 0.959 . S
C4421 H4428 0.961 . S
C4421 H4429 0.960 . S
C4422 C4420 1.381 . S
C4422 C4423 1.394 . S
C4422 H4430 0.930 . S
C4423 C4422 1.394 . S
C4423 C4424 1.383 . S
C4423 H4431 0.929 . S
C4424 C4423 1.383 . S
C4424 C4425 1.377 . S
C4425 H4409 0.930 . S
C4425 C4424 1.377 . S
C4425 C4426 1.379 . S
C4426 H4410 0.931 . S
C4426 C4420 1.383 . S
C4426 C4425 1.379 . S
H4427 C4421 0.959 . S
H4428 C4421 0.961 . S
H4429 C4421 0.960 . S
H4430 C4422 0.930 . S
H4431 C4423 0.929 . S
C985 C109 0.984 . S
C1004 C344 0.970 . S
C1021 C65 1.362 . S
C1040 C378 1.355 . S
C1057 C75 0.491 . S
C1076 C447 0.549 . S
C1112 C485 0.915 . S
C1093 C84 0.902 . S
C1129 C25 1.284 . S
C1148 C525 1.253 . S
C1184 C544 0.154 . S
C1165 C28 0.217 . S
C1220 C578 1.170 . S
C1201 C47 1.155 . S
C1237 C9 1.641 . S
C1256 C647 1.616 . S
C1292 C353 2.490 . S
C1273 C233 2.536 . S
C1309 C249 0.826 . S
C1328 C405 0.810 . S
C1364 C418 1.443 . S
C1345 C275 1.463 . S
C1400 C487 1.232 . S
C1381 C173 1.226 . S
C1417 C224 1.848 . S
C1436 C527 1.863 . S
C1472 C553 1.868 . S
C1453 C243 1.894 . S
C1508 C605 0.179 . S
C1489 C266 0.131 . S
C1544 C618 2.070 . S
C1525 C179 2.091 . S
C1580 C348 2.491 . S
C1561 C163 2.507 . S
C1597 C289 1.989 . S
C1616 C658 1.988 . S
C1652 C708 2.656 . S
C1633 C333 2.669 . S
C1688 C767 1.392 . S
C1669 C308 1.392 . S
C1705 C123 1.338 . S
C1724 C645 1.323 . S
C1741 C126 1.399 . S
C1760 C445 1.415 . S
C1777 C327 2.532 . S
C1796 C778 2.510 . S
C1832 C847 0.845 . S
C1813 C299 0.866 . S
C1868 C365 0.994 . S
C1849 C67 0.994 . S
C1904 C833 1.385 . S
C1885 C98 1.374 . S
C1921 C89 0.526 . S
C1940 C428 0.574 . S
C1957 C79 0.949 . S
C1976 C784 0.942 . S
C2012 C504 1.263 . S
C1993 C11 1.294 . S
C2029 C51 0.177 . S
C2048 C725 0.217 . S
C2084 C593 1.206 1_556 S
C2065 C33 1.230 . S
C2120 C868 1.592 . S
C2101 C14 1.633 . S
C2156 C338 2.486 . S
C2137 C140 2.505 . S
C2192 C824 0.859 . S
C2173 C319 0.822 . S
C2209 C112 1.475 . S
C2228 C433 1.467 . S
C2245 C285 1.257 . S
C2264 C788 1.265 . S
C2281 C149 1.901 . S
C2300 C508 1.907 . S
C2336 C698 1.903 . S
C2317 C313 1.939 . S
C2353 C121 0.203 . S
C2372 C584 0.230 . S
C2389 C291 2.132 . S
C2408 C873 2.104 . S
C2425 C182 2.535 . S
C2444 C367 2.506 1_655 S
C2461 C168 1.983 . S
C2480 C673 2.014 . S
C2497 C263 2.725 . S
C2516 C567 2.722 . S
C2533 C247 1.461 . S
C2552 C748 1.472 . S
C2588 C864 1.344 . S
C2569 C277 1.357 . S
C2605 C219 1.449 . S
C2624 C424 1.411 . S
C2660 C473 2.569 . S
C2641 C257 2.597 . S
C2696 C388 0.878 . S
C2677 C201 0.876 . S
C2713 C81 0.980 . S
C2732 C904 0.997 . S
C2768 C818 1.364 . S
C2749 C93 1.362 . S
C2785 C103 0.492 . S
C2804 C967 0.494 . S
C2821 C56 0.902 . S
C2840 C805 0.886 . S
C2857 C53 1.286 . S
C2876 C685 1.264 . S
C2912 C704 0.224 . S
C2893 C0 0.199 . S
C2948 C738 1.175 . S
C2929 C19 1.152 . S
C2984 C887 1.604 . S
C2965 C37 1.642 . S
C3020 C913 2.490 . S
C3001 C261 2.536 . S
C3037 C193 0.835 . S
C3056 C845 0.854 . S
C3092 C938 1.442 . S
C3073 C205 1.464 . S
C3128 C807 1.223 . S
C3109 C215 1.226 . S
C3164 C687 1.871 . S
C3145 C252 1.848 . S
C3181 C187 1.894 . S
C3200 C713 1.877 . S
C3236 C765 0.311 . S
C3217 C196 0.149 . S
C3253 C221 2.093 . S
C3272 C858 2.085 . S
C3308 C908 2.497 . S
C3289 C317 2.507 . S
C3325 C135 1.990 . S
C3344 C498 1.979 . S
C3380 C548 2.659 . S
C3361 C151 2.669 . S
C3416 C607 1.392 . S
C3397 C154 1.387 . S
C3452 C885 1.316 . S
C3433 C305 1.333 . S
C3469 C280 1.397 . S
C3488 C965 1.409 . S
C3524 C458 2.509 . S
C3505 C145 2.532 . S
C3560 C407 0.847 . S
C3541 C117 0.866 . S
C3577 C95 0.990 . S
C3596 C925 0.988 . S
C3632 C393 1.389 . S
C3613 C70 1.371 . S
C3649 C61 0.525 . S
C3668 C948 0.509 . S
C3685 C107 0.948 . S
C3704 C464 0.933 . S
C3721 C39 1.294 . S
C3740 C664 1.298 . S
C3776 C565 0.149 . S
C3757 C23 0.179 . S
C3793 C5 1.231 . S
C3812 C753 1.223 . S
C3829 C42 1.628 . S
C3848 C628 1.622 . S
C3884 C898 2.467 . S
C3865 C322 2.503 . S
C3901 C165 0.834 . S
C3920 C384 0.808 . S
C3956 C953 1.464 . S
C3937 C294 1.476 . S
C3973 C131 1.261 . S
C3992 C468 1.254 . S
C4009 C331 1.899 . S
C4028 C668 1.898 . S
C4064 C538 1.907 . S
C4045 C159 1.940 . S
C4081 C303 0.221 . S
C4100 C744 0.318 . S
C4136 C633 2.104 . S
C4117 C137 2.132 . S
C4172 C927 2.512 . S
C4153 C238 2.535 . S
C4208 C513 2.015 1_665 S
C4189 C210 1.984 . S
C4225 C235 2.726 . S
C4244 C727 2.717 . S
C4280 C588 1.468 . S
C4261 C191 1.464 . S
C4297 C207 1.336 . S
C4316 C624 1.330 . S
C4333 C177 1.449 . S
C4352 C944 1.430 . S
C4388 C793 2.573 . S
C4369 C229 2.597 1_565 S
C4424 C828 0.894 . S
C4405 C271 0.878 . S
