# Generated by pormake.
# Topology pyr, (3,6)-cn, num edge types: 1
# Building blocks:
#     Node 0, Type 0, BuildingBlock: OLANEW_clean_sbu_2, # of connection points: 3
#     Node 1, Type 0, BuildingBlock: OLANEW_clean_sbu_2, # of connection points: 3
#     Node 2, Type 0, BuildingBlock: OLANEW_clean_sbu_2, # of connection points: 3
#     Node 3, Type 0, BuildingBlock: OLANEW_clean_sbu_2, # of connection points: 3
#     Node 4, Type 0, BuildingBlock: OLANEW_clean_sbu_2, # of connection points: 3
#     Node 5, Type 0, BuildingBlock: OLANEW_clean_sbu_2, # of connection points: 3
#     Node 6, Type 0, BuildingBlock: OLANEW_clean_sbu_2, # of connection points: 3
#     Node 7, Type 0, BuildingBlock: OLANEW_clean_sbu_2, # of connection points: 3
#     Node 8, Type 1, BuildingBlock: PAMTOO_clean_sbu_0, # of connection points: 6
#     Node 9, Type 1, BuildingBlock: PAMTOO_clean_sbu_0, # of connection points: 6
#     Node 10, Type 1, BuildingBlock: PAMTOO_clean_sbu_0, # of connection points: 6
#     Node 11, Type 1, BuildingBlock: PAMTOO_clean_sbu_0, # of connection points: 6
#     Edge 12, Type (0, 1), BuildingBlock: CIFDUS_clean_linker_0, # of connection points: 2
#     Edge 13, Type (0, 1), BuildingBlock: CIFDUS_clean_linker_0, # of connection points: 2
#     Edge 14, Type (0, 1), BuildingBlock: CIFDUS_clean_linker_0, # of connection points: 2
#     Edge 15, Type (0, 1), BuildingBlock: CIFDUS_clean_linker_0, # of connection points: 2
#     Edge 16, Type (0, 1), BuildingBlock: CIFDUS_clean_linker_0, # of connection points: 2
#     Edge 17, Type (0, 1), BuildingBlock: CIFDUS_clean_linker_0, # of connection points: 2
#     Edge 18, Type (0, 1), BuildingBlock: CIFDUS_clean_linker_0, # of connection points: 2
#     Edge 19, Type (0, 1), BuildingBlock: CIFDUS_clean_linker_0, # of connection points: 2
#     Edge 20, Type (0, 1), BuildingBlock: CIFDUS_clean_linker_0, # of connection points: 2
#     Edge 21, Type (0, 1), BuildingBlock: CIFDUS_clean_linker_0, # of connection points: 2
#     Edge 22, Type (0, 1), BuildingBlock: CIFDUS_clean_linker_0, # of connection points: 2
#     Edge 23, Type (0, 1), BuildingBlock: CIFDUS_clean_linker_0, # of connection points: 2
#     Edge 24, Type (0, 1), BuildingBlock: CIFDUS_clean_linker_0, # of connection points: 2
#     Edge 25, Type (0, 1), BuildingBlock: CIFDUS_clean_linker_0, # of connection points: 2
#     Edge 26, Type (0, 1), BuildingBlock: CIFDUS_clean_linker_0, # of connection points: 2
#     Edge 27, Type (0, 1), BuildingBlock: CIFDUS_clean_linker_0, # of connection points: 2
#     Edge 28, Type (0, 1), BuildingBlock: CIFDUS_clean_linker_0, # of connection points: 2
#     Edge 29, Type (0, 1), BuildingBlock: CIFDUS_clean_linker_0, # of connection points: 2
#     Edge 30, Type (0, 1), BuildingBlock: CIFDUS_clean_linker_0, # of connection points: 2
#     Edge 31, Type (0, 1), BuildingBlock: CIFDUS_clean_linker_0, # of connection points: 2
#     Edge 32, Type (0, 1), BuildingBlock: CIFDUS_clean_linker_0, # of connection points: 2
#     Edge 33, Type (0, 1), BuildingBlock: CIFDUS_clean_linker_0, # of connection points: 2
#     Edge 34, Type (0, 1), BuildingBlock: CIFDUS_clean_linker_0, # of connection points: 2
#     Edge 35, Type (0, 1), BuildingBlock: CIFDUS_clean_linker_0, # of connection points: 2
# Relax obj value: 0.147
# Max RMSD: 0.218
# Mean RMSD: 0.128
data_MOF--net-pyr--node1-OLANEW_clean_sbu_2--node2-PAMTOO_clean_sbu_0--edge1-CIFDUS_clean_linker_0
_symmetry_space_group_name_H-M    P1
_symmetry_Int_Tables_number       1
_symmetry_cell_setting            triclinic
loop_
_symmetry_equiv_pos_as_xyz
'x, y, z'
_cell_length_a     34.788103
_cell_length_b     38.116161
_cell_length_c     36.913087
_cell_angle_alpha  94.127045
_cell_angle_beta   89.100229
_cell_angle_gamma 106.42518
loop_
_atom_site_label
_atom_site_type_symbol
_atom_site_fract_x
_atom_site_fract_y
_atom_site_fract_z
_atom_type_partial_charge
O0 O 0.43299 0.29795 0.12657 0.0
Cd1 Cd 0.41072 0.35356 0.13894 0.0
O2 O 0.40985 0.28279 0.18033 0.0
Cd3 Cd 0.39892 0.25051 0.22782 0.0
O4 O 0.37152 0.21376 0.26936 0.0
C5 C 0.33859 0.21681 0.28257 0.0
O6 O 0.32367 0.24216 0.27122 0.0
C7 C 0.42796 0.27593 0.15166 0.0
C8 C 0.33399 0.35473 0.11781 0.0
O9 O 0.3642 0.3647 0.09675 0.0
O10 O 0.33963 0.34254 0.14819 0.0
O11 O 0.16076 0.77446 0.84475 0.0
Cd12 Cd 0.13901 0.73474 0.78985 0.0
O13 O 0.12293 0.81107 0.83804 0.0
Cd14 Cd 0.09601 0.78594 0.78624 0.0
O15 O 0.07465 0.80639 0.73917 0.0
C16 C 0.04425 0.8184 0.7439 0.0
O17 O 0.02548 0.81439 0.77516 0.0
C18 C 0.14903 0.80199 0.85597 0.0
C19 C 0.20803 0.72458 0.75684 0.0
O20 O 0.19264 0.74919 0.74683 0.0
O21 O 0.19003 0.70407 0.78153 0.0
O22 O 0.70974 0.42988 0.88757 0.0
Cd23 Cd 0.64419 0.40656 0.85523 0.0
O24 O 0.70155 0.38983 0.92994 0.0
Cd25 Cd 0.64197 0.3499 0.92311 0.0
O26 O 0.60198 0.29936 0.944 0.0
C27 C 0.61939 0.27707 0.95556 0.0
O28 O 0.65861 0.2851 0.95301 0.0
C29 C 0.72289 0.41793 0.91494 0.0
C30 C 0.62382 0.44973 0.80305 0.0
O31 O 0.61679 0.45451 0.83698 0.0
O32 O 0.64175 0.4254 0.79359 0.0
O33 O 0.92576 0.74882 0.37077 0.0
Cd34 Cd 0.88831 0.69039 0.33781 0.0
O35 O 0.90235 0.72422 0.4217 0.0
Cd36 Cd 0.86175 0.67209 0.40154 0.0
O37 O 0.80363 0.64112 0.42167 0.0
C38 C 0.7946 0.65342 0.45263 0.0
O39 O 0.82047 0.68189 0.46911 0.0
C40 C 0.92362 0.75122 0.40533 0.0
C41 C 0.9227 0.65679 0.28062 0.0
O42 O 0.90261 0.67925 0.27444 0.0
O43 O 0.92822 0.65157 0.31385 0.0
O44 O 0.67363 0.73899 0.78718 0.0
Cd45 Cd 0.64522 0.69458 0.83159 0.0
O46 O 0.6639 0.78051 0.82731 0.0
Cd47 Cd 0.66655 0.83358 0.85583 0.0
O48 O 0.65402 0.87201 0.89825 0.0
C49 C 0.61823 0.87392 0.90164 0.0
O50 O 0.59081 0.85401 0.8787 0.0
C51 C 0.67754 0.77254 0.79657 0.0
C52 C 0.70914 0.68288 0.86859 0.0
O53 O 0.6928 0.66148 0.84127 0.0
O54 O 0.69446 0.70917 0.87905 0.0
O55 O 0.88721 0.26602 0.35613 0.0
Cd56 Cd 0.91512 0.28738 0.41642 0.0
O57 O 0.84326 0.29778 0.3547 0.0
Cd58 Cd 0.85331 0.32858 0.40745 0.0
O59 O 0.81389 0.35559 0.43784 0.0
C60 C 0.78236 0.35414 0.42009 0.0
O61 O 0.77774 0.3377 0.38725 0.0
C62 C 0.85952 0.27447 0.33984 0.0
C63 C 0.9298 0.2269 0.44587 0.0
O64 O 0.95691 0.24889 0.42795 0.0
O65 O 0.89627 0.23422 0.45087 0.0
O66 O 0.42049 0.78439 0.28047 0.0
Cd67 Cd 0.38428 0.72785 0.31132 0.0
O68 O 0.37467 0.77241 0.23697 0.0
Cd69 Cd 0.33142 0.72029 0.24776 0.0
O70 O 0.27367 0.68835 0.22366 0.0
C71 C 0.27233 0.66564 0.19638 0.0
O72 O 0.30574 0.65921 0.18471 0.0
C73 C 0.40674 0.79319 0.25157 0.0
C74 C 0.41831 0.69401 0.36367 0.0
O75 O 0.4182 0.68418 0.32968 0.0
O76 O 0.40455 0.72121 0.37294 0.0
O77 O 0.15715 0.40486 0.80537 0.0
Cd78 Cd 0.19283 0.37565 0.75986 0.0
O79 O 0.12085 0.35037 0.81998 0.0
Cd80 Cd 0.13717 0.31602 0.77555 0.0
O81 O 0.12386 0.26674 0.73793 0.0
C82 C 0.0874 0.25408 0.72806 0.0
O83 O 0.06169 0.27166 0.74 0.0
C84 C 0.1312 0.38513 0.82575 0.0
C85 C 0.24592 0.42052 0.71314 0.0
O86 O 0.21136 0.4008 0.70188 0.0
O87 O 0.25493 0.41999 0.74658 0.0
Dy88 Dy 0.06198 0.01757 0.53778 0.0
Dy89 Dy 0.97017 1.00067 0.57061 0.0
C90 C 0.04127 0.0657 0.6039 0.0
O91 O 0.05477 0.96887 0.57004 0.0
O92 O 0.00292 0.97475 0.60723 0.0
O93 O 0.12298 0.05202 0.53843 0.0
O94 O 0.10589 1.00277 0.50243 0.0
O95 O 0.97469 0.95127 0.53627 0.0
O96 O 0.02009 0.98175 0.49597 0.0
O97 O 0.97 0.03399 0.52331 0.0
O98 O 0.03778 0.06065 0.51701 0.0
O99 O 0.90602 0.97824 0.5643 0.0
O100 O 0.93139 1.00603 0.61554 0.0
C101 C 0.0321 0.96008 0.59868 0.0
O102 O 0.06531 0.04597 0.59332 0.0
O103 O 0.00448 0.057 0.59144 0.0
C104 C 0.15488 0.05387 0.48216 0.0
C105 C 0.1961 0.09891 0.42855 0.0
C106 C 0.15392 0.08759 0.42905 0.0
C107 C 0.13347 0.06535 0.45573 0.0
C108 C 0.19681 0.06458 0.48155 0.0
C109 C 0.2173 0.08694 0.45499 0.0
C110 C 0.13392 0.03275 0.51177 0.0
C111 C 0.99238 0.95229 0.50454 0.0
C112 C 1.00028 0.05945 0.51093 0.0
C113 C 0.87213 0.95739 0.61888 0.0
C114 C 0.82179 0.90313 0.66023 0.0
C115 C 0.83356 0.89404 0.62492 0.0
C116 C 0.85858 0.92085 0.6045 0.0
C117 C 0.85992 0.96662 0.65382 0.0
C118 C 0.8352 0.93981 0.67434 0.0
C119 C 0.89914 0.98631 0.59837 0.0
H120 H 0.13669 0.09595 0.40885 0.0
H121 H 0.101 0.05749 0.45604 0.0
H122 H 0.21372 0.05624 0.50205 0.0
H123 H 0.24974 0.0956 0.45576 0.0
H124 H 0.82334 0.86619 0.61296 0.0
H125 H 0.86737 0.91288 0.57758 0.0
H126 H 0.86994 0.99462 0.66548 0.0
H127 H 0.82732 0.94777 0.70158 0.0
Dy128 Dy 0.46032 0.0293 0.08294 0.0
Dy129 Dy 0.54705 0.04156 0.1227 0.0
C130 C 0.47345 0.9719 0.13644 0.0
O131 O 0.46089 0.05838 0.13751 0.0
O132 O 0.52592 0.09115 0.13761 0.0
O133 O 0.39612 0.01396 0.09014 0.0
O134 O 0.42205 0.0329 0.03881 0.0
O135 O 0.56038 0.07643 0.07545 0.0
O136 O 0.49811 0.08369 0.06531 0.0
O137 O 0.5436 0.99548 0.08056 0.0
O138 O 0.49394 1.00245 0.0434 0.0
O139 O 0.61004 0.04497 0.12247 0.0
O140 O 0.57972 0.05124 0.17331 0.0
C141 C 0.48863 0.08885 0.14601 0.0
O142 O 0.4585 0.97574 0.10501 0.0
O143 O 0.50221 0.99855 0.15204 0.0
C144 C 0.36029 0.98685 0.0372 0.0
C145 C 0.30397 0.92735 1.00061 0.0
C146 C 0.34532 0.93135 0.99711 0.0
C147 C 0.37322 0.96072 1.01542 0.0
C148 C 0.3192 0.98272 0.04133 0.0
C149 C 0.29124 0.95316 1.02329 0.0
C150 C 0.38927 0.01803 0.05632 0.0
C151 C 0.53723 0.09343 0.06052 0.0
C152 C 0.52368 0.9887 0.04959 0.0
C153 C 0.6473 0.08458 0.16931 0.0
C154 C 0.70799 0.14564 0.19776 0.0
C155 C 0.68064 0.14991 0.1719 0.0
C156 C 0.65042 0.11956 0.15781 0.0
C157 C 0.67517 0.08 0.19409 0.0
C158 C 0.70525 0.11023 0.20824 0.0
C159 C 0.61391 0.05299 0.15741 0.0
H160 H 0.35626 0.91233 0.97952 0.0
H161 H 0.40488 0.96324 1.01224 0.0
H162 H 0.30875 1.00241 0.05846 0.0
H163 H 0.25966 0.95059 0.02708 0.0
H164 H 0.68212 0.17675 0.16308 0.0
H165 H 0.62898 0.12347 0.13863 0.0
H166 H 0.67295 0.05315 0.20334 0.0
H167 H 0.72525 0.106 0.22861 0.0
Dy168 Dy 0.50599 0.53239 0.55739 0.0
Dy169 Dy 0.51844 0.60478 0.6156 0.0
C170 C 0.54725 0.53564 0.63473 0.0
O171 O 0.45372 0.51856 0.59503 0.0
O172 O 0.45294 0.57668 0.61527 0.0
O173 O 0.49524 0.47378 0.54795 0.0
O174 O 0.50455 0.50807 0.5026 0.0
O175 O 0.50318 0.6224 0.56242 0.0
O176 O 0.47252 0.56695 0.53194 0.0
O177 O 0.58018 0.60871 0.59487 0.0
O178 O 0.56251 0.57269 0.54171 0.0
O179 O 0.53115 0.66328 0.6283 0.0
O180 O 0.51706 0.62611 0.67125 0.0
C181 C 0.4362 0.54117 0.61224 0.0
O182 O 0.54933 0.52713 0.59975 0.0
O183 O 0.52904 0.55999 0.64661 0.0
C184 C 0.53359 0.45943 0.49935 0.0
C185 C 0.5941 0.42854 0.47278 0.0
C186 C 0.60408 0.46245 0.49331 0.0
C187 C 0.57408 0.47769 0.50654 0.0
C188 C 0.52337 0.42558 0.47912 0.0
C189 C 0.55337 0.41022 0.46595 0.0
C190 C 0.50226 0.47568 0.51326 0.0
C191 C 0.48131 0.60299 0.53528 0.0
C192 C 0.5891 0.59679 0.56237 0.0
C193 C 0.48788 0.67424 0.675 0.0
C194 C 0.41857 0.69053 0.70299 0.0
C195 C 0.42075 0.67958 0.66603 0.0
C196 C 0.45499 0.67129 0.65221 0.0
C197 C 0.48647 0.68657 0.71156 0.0
C198 C 0.45207 0.69465 0.72548 0.0
C199 C 0.52062 0.65923 0.66216 0.0
H200 H 0.63509 0.47752 0.49867 0.0
H201 H 0.58248 0.50387 0.52225 0.0
H202 H 0.49223 0.41104 0.47356 0.0
H203 H 0.54463 0.38383 0.45066 0.0
H204 H 0.39526 0.67567 0.64815 0.0
H205 H 0.45505 0.66105 0.62405 0.0
H206 H 0.51133 0.68853 0.72965 0.0
H207 H 0.45132 0.70332 0.75401 0.0
Dy208 Dy 0.01284 0.56106 1.0197 0.0
Dy209 Dy 0.01164 0.48924 0.06406 0.0
C210 C 0.97578 0.55276 0.09815 0.0
O211 O 0.06318 0.57935 0.06019 0.0
O212 O 0.07519 0.52359 0.06214 0.0
O213 O 0.00977 0.61698 1.01988 0.0
O214 O 0.01489 0.58662 0.96914 0.0
O215 O 0.02708 0.47701 1.00641 0.0
O216 O 0.05595 0.53544 0.99028 0.0
O217 O 0.94771 0.48034 0.04711 0.0
O218 O 0.961 0.51528 0.99795 0.0
O219 O 1.00052 0.4307 0.06684 0.0
O220 O 0.026 0.46767 0.11308 0.0
C221 C 0.08637 0.5593 0.06872 0.0
O222 O 0.96903 0.5592 0.06478 0.0
O223 O 0.99752 0.53073 0.10453 0.0
C224 C 0.97004 0.62213 0.97093 0.0
C225 C 0.89976 0.63179 0.94186 0.0
C226 C 0.89834 0.60019 0.95974 0.0
C227 C 0.9331 0.5956 0.97444 0.0
C228 C 0.97163 0.654 0.95356 0.0
C229 C 0.93657 0.65895 0.93931 0.0
C230 C 0.0065 0.61539 0.98462 0.0
C231 C 0.05016 0.49989 0.98479 0.0
C232 C 0.93645 0.49008 1.01636 0.0
C233 C 0.05093 0.41663 0.10126 0.0
C234 C 0.11744 0.38854 0.10868 0.0
C235 C 0.10336 0.39249 0.07406 0.0
C236 C 0.07064 0.40656 0.07038 0.0
C237 C 0.06427 0.41196 0.13575 0.0
C238 C 0.09718 0.39823 0.13946 0.0
C239 C 0.01845 0.43434 0.09826 0.0
H240 H 0.87028 0.57908 0.96246 0.0
H241 H 0.93126 0.57111 0.98828 0.0
H242 H 0.9999 0.67476 0.9507 0.0
H243 H 0.93836 0.68352 0.92555 0.0
H244 H 0.1177 0.38486 0.0497 0.0
H245 H 0.06123 0.41008 0.04337 0.0
H246 H 0.04982 0.41984 0.15996 0.0
H247 H 0.10743 0.39628 0.16659 0.0
H248 H 0.27022 0.21883 0.31803 0.0
H249 H 0.35797 0.15815 0.3076 0.0
H250 H 0.32126 0.11603 0.35132 0.0
H251 H 0.26398 0.09613 0.39204 0.0
H252 H 0.17744 0.15801 0.40376 0.0
H253 H 0.21362 0.19954 0.35943 0.0
C254 C 0.28137 0.19642 0.32531 0.0
C255 C 0.31679 0.19168 0.30955 0.0
C256 C 0.26019 0.17234 0.35049 0.0
C257 C 0.33083 0.1625 0.31937 0.0
C258 C 0.30982 0.13835 0.34433 0.0
C259 C 0.25321 0.11889 0.38516 0.0
C260 C 0.21796 0.12383 0.40118 0.0
C261 C 0.27447 0.14301 0.36004 0.0
C262 C 0.20411 0.15316 0.39145 0.0
C263 C 0.22495 0.17712 0.3663 0.0
H264 H 0.20631 0.79166 0.90017 0.0
H265 H 0.13727 0.86694 0.88225 0.0
H266 H 0.17751 0.91133 0.92743 0.0
H267 H 0.23653 0.93134 0.96692 0.0
H268 H 0.30525 0.85611 0.98587 0.0
H269 H 0.26106 0.80931 0.94497 0.0
C270 C 0.19965 0.81754 0.9065 0.0
C271 C 0.16911 0.82606 0.88747 0.0
C272 C 0.22321 0.84321 0.93226 0.0
C273 C 0.16072 0.85966 0.89629 0.0
C274 C 0.18384 0.8852 0.92204 0.0
C275 C 0.24139 0.90446 0.96285 0.0
C276 C 0.27451 0.89748 0.97916 0.0
C277 C 0.2158 0.87763 0.93947 0.0
C278 C 0.28052 0.86255 0.97306 0.0
C279 C 0.25513 0.83568 0.94983 0.0
H280 H 0.62711 0.44126 0.72864 0.0
H281 H 0.589 0.50525 0.81583 0.0
H282 H 0.56294 0.53763 0.77184 0.0
H283 H 0.54907 0.54687 0.70875 0.0
H284 H 0.58636 0.48277 0.62115 0.0
H285 H 0.61448 0.4516 0.66503 0.0
C286 C 0.61334 0.46245 0.73804 0.0
C287 C 0.6101 0.47067 0.77569 0.0
C288 C 0.59802 0.48094 0.71246 0.0
C289 C 0.59197 0.4982 0.78718 0.0
C290 C 0.57695 0.51677 0.76197 0.0
C291 C 0.56341 0.52615 0.69912 0.0
C292 C 0.56537 0.51725 0.66149 0.0
C293 C 0.57949 0.5082 0.72456 0.0
C294 C 0.58425 0.49029 0.64982 0.0
C295 C 0.60039 0.47238 0.67497 0.0
H296 H 0.90539 0.65348 0.20845 0.0
H297 H 0.97211 0.61263 0.28474 0.0
H298 H 0.99333 0.576 0.2355 0.0
H299 H 0.99292 0.55537 0.1706 0.0
H300 H 0.92561 0.59611 0.09464 0.0
H301 H 0.90449 0.63252 0.14388 0.0
C302 C 0.92478 0.63675 0.21433 0.0
C303 C 0.93725 0.63603 0.25032 0.0
C304 C 0.93654 0.61539 0.18591 0.0
C305 C 0.9621 0.61387 0.25734 0.0
C306 C 0.97418 0.59279 0.22917 0.0
C307 C 0.97337 0.57196 0.16482 0.0
C308 C 0.96086 0.57279 0.12883 0.0
C309 C 0.96146 0.59319 0.19334 0.0
C310 C 0.93574 0.59477 0.12197 0.0
C311 C 0.92369 0.61577 0.15015 0.0
H312 H 0.39743 0.2085 0.17785 0.0
H313 H 0.49594 0.27175 0.11636 0.0
H314 H 0.5258 0.22067 0.1122 0.0
H315 H 0.52329 0.15757 0.12531 0.0
H316 H 0.42375 0.09407 0.18559 0.0
H317 H 0.39598 0.14638 0.19271 0.0
C318 C 0.426 0.21155 0.16449 0.0
C319 C 0.44492 0.24425 0.14826 0.0
C320 C 0.4431 0.18217 0.16245 0.0
C321 C 0.48081 0.24689 0.12919 0.0
C322 C 0.49807 0.2178 0.12703 0.0
C323 C 0.49606 0.15553 0.14077 0.0
C324 C 0.4759 0.12222 0.15545 0.0
C325 C 0.47955 0.18533 0.14367 0.0
C326 C 0.43998 0.11958 0.17442 0.0
C327 C 0.42394 0.14936 0.17823 0.0
H328 H 0.08628 0.84418 0.68388 0.0
H329 H 0.97898 0.84464 0.74408 0.0
H330 H 0.96546 0.88805 0.70408 0.0
H331 H 0.98583 0.9282 0.65411 0.0
H332 H 0.09367 0.92849 0.59437 0.0
H333 H 0.10523 0.88255 0.63225 0.0
C334 C 0.05968 0.85343 0.68801 0.0
C335 C 0.03379 0.84126 0.71704 0.0
C336 C 0.0524 0.87887 0.66528 0.0
C337 C 0.99951 0.85364 0.72203 0.0
C338 C 0.9918 0.87858 0.69925 0.0
C339 C 0.01193 0.91831 0.64936 0.0
C340 C 0.03902 0.93211 0.62161 0.0
C341 C 0.01842 0.89186 0.6712 0.0
C342 C 0.0724 0.91856 0.61563 0.0
C343 C 0.07903 0.89221 0.63726 0.0
H344 H 0.75842 0.40044 0.97374 0.0
H345 H 0.77996 0.47699 0.88986 0.0
H346 H 0.84757 0.50585 0.91382 0.0
H347 H 0.90097 0.50854 0.95781 0.0
H348 H 0.87863 0.4326 0.04227 0.0
H349 H 0.811 0.40415 1.0185 0.0
C350 C 0.77777 0.42344 0.96056 0.0
C351 C 0.76389 0.43631 0.9298 0.0
C352 C 0.81663 0.43992 0.97448 0.0
C353 C 0.78964 0.46633 0.91343 0.0
C354 C 0.82841 0.48285 0.92712 0.0
C355 C 0.88138 0.48582 0.97117 0.0
C356 C 0.89516 0.47277 1.00189 0.0
C357 C 0.84229 0.46973 0.95751 0.0
C358 C 0.86906 0.44328 1.01866 0.0
C359 C 0.8303 0.42697 1.00505 0.0
H360 H 0.7668 0.6753 0.51709 0.0
H361 H 0.73369 0.59522 0.4258 0.0
H362 H 0.66772 0.57026 0.45239 0.0
H363 H 0.61907 0.5723 0.50035 0.0
H364 H 0.65159 0.65246 0.59167 0.0
H365 H 0.71845 0.67623 0.56614 0.0
C366 C 0.74524 0.65231 0.50301 0.0
C367 C 0.75517 0.63726 0.46938 0.0
C368 C 0.70729 0.63821 0.51836 0.0
C369 C 0.72684 0.6074 0.45163 0.0
C370 C 0.68909 0.59313 0.4668 0.0
C371 C 0.64067 0.595 0.5148 0.0
C372 C 0.63013 0.61074 0.54783 0.0
C373 C 0.67891 0.60853 0.49996 0.0
C374 C 0.6588 0.63987 0.5662 0.0
C375 C 0.69703 0.65351 0.55159 0.0
H376 H 0.2633 0.33207 0.15414 0.0
H377 H 0.31614 0.38931 0.06079 0.0
H378 H 0.2536 0.40358 0.04894 0.0
H379 H 0.18556 0.40359 0.06749 0.0
H380 H 0.13168 0.34443 0.15953 0.0
H381 H 0.1931 0.32769 0.16965 0.0
C382 C 0.26104 0.34736 0.13099 0.0
C383 C 0.29456 0.35976 0.10855 0.0
C384 C 0.22491 0.35557 0.12431 0.0
C385 C 0.29092 0.37939 0.07856 0.0
C386 C 0.25515 0.38772 0.07182 0.0
C387 C 0.18681 0.38642 0.08936 0.0
C388 C 0.15388 0.37572 0.1129 0.0
C389 C 0.22214 0.37644 0.09484 0.0
C390 C 0.15666 0.35388 0.1414 0.0
C391 C 0.19177 0.34402 0.1471 0.0
H392 H 0.64894 0.22397 0.97872 0.0
H393 H 0.53897 0.25432 0.97208 0.0
H394 H 0.5033 0.19987 1.00327 0.0
H395 H 0.50397 0.14406 0.03387 0.0
H396 H 0.61522 0.11536 0.03974 0.0
H397 H 0.64945 0.16862 1.00751 0.0
C398 C 0.61712 0.21875 0.98392 0.0
C399 C 0.59677 0.24336 0.97305 0.0
C400 C 0.59691 0.18755 1.00186 0.0
C401 C 0.55546 0.23588 0.98005 0.0
C402 C 0.53504 0.20474 0.99797 0.0
C403 C 0.53562 0.14932 0.02786 0.0
C404 C 0.55682 0.12549 0.03936 0.0
C405 C 0.55552 0.18041 1.00919 0.0
C406 C 0.59795 0.13304 0.03145 0.0
C407 C 0.61771 0.1636 1.01293 0.0
H408 H 0.95506 0.82105 0.38258 0.0
H409 H 0.93288 0.75969 0.47846 0.0
H410 H 0.9519 0.81618 0.51697 0.0
H411 H 0.97053 0.88285 0.52421 0.0
H412 H 0.99624 0.94599 0.43004 0.0
H413 H 0.98015 0.8892 0.39024 0.0
C414 C 0.95508 0.82007 0.41186 0.0
C415 C 0.94203 0.78599 0.42743 0.0
C416 C 0.96609 0.85303 0.43428 0.0
C417 C 0.94231 0.78537 0.46553 0.0
C418 C 0.95309 0.81774 0.48775 0.0
C419 C 0.97251 0.88421 0.49494 0.0
C420 C 0.98377 0.91848 0.48002 0.0
C421 C 0.96408 0.85167 0.47248 0.0
C422 C 0.98726 0.91984 0.44213 0.0
C423 C 0.97811 0.88739 0.41941 0.0
H424 H 0.25728 0.68915 0.78435 0.0
H425 H 0.24511 0.7525 0.69514 0.0
H426 H 0.30946 0.74802 0.67079 0.0
H427 H 0.36943 0.72634 0.67511 0.0
H428 H 0.38194 0.66421 0.76518 0.0
H429 H 0.31752 0.6685 0.78926 0.0
C430 C 0.26858 0.7018 0.75946 0.0
C431 C 0.24633 0.72091 0.74144 0.0
C432 C 0.30587 0.69966 0.74599 0.0
C433 C 0.26164 0.73757 0.70949 0.0
C434 C 0.29845 0.73507 0.69558 0.0
C435 C 0.35798 0.71373 0.69998 0.0
C436 C 0.38047 0.69509 0.71839 0.0
C437 C 0.32087 0.71626 0.71365 0.0
C438 C 0.36548 0.67918 0.75078 0.0
C439 C 0.3285 0.68135 0.76441 0.0
H440 H 0.73416 0.76671 0.74771 0.0
H441 H 0.6705 0.84211 0.79155 0.0
H442 H 0.7092 0.88903 0.75294 0.0
H443 H 0.76121 0.90843 0.70663 0.0
H444 H 0.82597 0.83299 0.66461 0.0
H445 H 0.78592 0.78598 0.7019 0.0
C446 C 0.7286 0.79338 0.74874 0.0
C447 C 0.69986 0.80108 0.77286 0.0
C448 C 0.75093 0.8201 0.72653 0.0
C449 C 0.69312 0.83577 0.77394 0.0
C450 C 0.71501 0.86249 0.75161 0.0
C451 C 0.76684 0.88183 0.70583 0.0
C452 C 0.79659 0.87436 0.68264 0.0
C453 C 0.74418 0.85501 0.72794 0.0
C454 C 0.80289 0.83943 0.68161 0.0
C455 C 0.78021 0.81256 0.70319 0.0
H456 H 0.79552 0.28053 0.30219 0.0
H457 H 0.88404 0.22063 0.30114 0.0
H458 H 0.84728 0.17803 0.25264 0.0
H459 H 0.78549 0.15311 0.21673 0.0
H460 H 0.6949 0.21079 0.22158 0.0
H461 H 0.73752 0.25937 0.26161 0.0
C462 C 0.80726 0.25857 0.29096 0.0
C463 C 0.84214 0.25345 0.30578 0.0
C464 C 0.78542 0.23358 0.26383 0.0
C465 C 0.85704 0.22503 0.29055 0.0
C466 C 0.83595 0.20054 0.26289 0.0
C467 C 0.77522 0.17647 0.22633 0.0
C468 C 0.73681 0.17799 0.21655 0.0
C469 C 0.79932 0.20375 0.25035 0.0
C470 C 0.72436 0.20891 0.22847 0.0
C471 C 0.74858 0.23659 0.25168 0.0
H472 H 0.42954 0.71174 0.43679 0.0
H473 H 0.43652 0.62871 0.35316 0.0
H474 H 0.45426 0.59231 0.39858 0.0
H475 H 0.46792 0.58369 0.46253 0.0
H476 H 0.46425 0.66836 0.54543 0.0
H477 H 0.44488 0.70399 0.50019 0.0
C478 C 0.4351 0.68577 0.42842 0.0
C479 C 0.43165 0.67315 0.39142 0.0
C480 C 0.44564 0.66495 0.45476 0.0
C481 C 0.4391 0.63935 0.38129 0.0
C482 C 0.44909 0.61834 0.40735 0.0
C483 C 0.4625 0.60978 0.47069 0.0
C484 C 0.46725 0.62313 0.50746 0.0
C485 C 0.45231 0.63074 0.44424 0.0
C486 C 0.46081 0.65735 0.5174 0.0
C487 C 0.44976 0.67783 0.49149 0.0
H488 H 0.14253 0.45826 0.84602 0.0
H489 H 0.07896 0.34946 0.87564 0.0
H490 H 0.0492 0.37534 0.92708 0.0
H491 H 0.04073 0.42824 0.96386 0.0
H492 H 0.10276 0.53756 0.93508 0.0
H493 H 0.1335 0.51204 0.88334 0.0
C494 C 0.12215 0.44023 0.86371 0.0
C495 C 0.11312 0.40189 0.85675 0.0
C496 C 0.1048 0.45533 0.89351 0.0
C497 C 0.08655 0.37903 0.88008 0.0
C498 C 0.06945 0.39379 0.90966 0.0
C499 C 0.06099 0.44663 0.94638 0.0
C500 C 0.06936 0.48482 0.95348 0.0
C501 C 0.07833 0.43183 0.91664 0.0
C502 C 0.0957 0.50805 0.93033 0.0
C503 C 0.11331 0.49346 0.90069 0.0
H504 H 0.54669 0.88849 0.91213 0.0
H505 H 0.66468 0.91084 0.95923 0.0
H506 H 0.64541 0.94712 1.00992 0.0
H507 H 0.59502 0.97279 0.04077 0.0
H508 H 0.47785 0.9517 0.99225 0.0
H509 H 0.49681 0.91449 0.94241 0.0
C510 C 0.56825 0.90129 0.93345 0.0
C511 C 0.60706 0.89688 0.93184 0.0
C512 C 0.55706 0.92226 0.96239 0.0
C513 C 0.63462 0.91384 0.95969 0.0
C514 C 0.6236 0.93452 0.98876 0.0
C515 C 0.57356 0.95982 1.01943 0.0
C516 C 0.53505 0.96495 1.02033 0.0
C517 C 0.58487 0.93887 0.99043 0.0
C518 C 0.50774 0.94831 0.99221 0.0
C519 C 0.51854 0.92701 0.96366 0.0
H520 H 0.99692 0.20365 0.4387 0.0
H521 H 0.87752 0.17471 0.48337 0.0
H522 H 0.88784 0.11904 0.505 0.0
H523 H 0.93121 0.07942 0.51274 0.0
H524 H 0.0513 0.109 0.46965 0.0
H525 H 0.04 0.16331 0.44552 0.0
C526 C 0.97315 0.1852 0.45319 0.0
C527 C 0.93656 0.19349 0.45952 0.0
C528 C 0.97928 0.1532 0.46564 0.0
C529 C 0.90605 0.16915 0.47824 0.0
C530 C 0.91187 0.13721 0.49055 0.0
C531 C 0.95476 0.09744 0.49763 0.0
C532 C 0.992 0.09004 0.49292 0.0
C533 C 0.94837 0.12901 0.48448 0.0
C534 C 0.02234 0.11402 0.47368 0.0
C535 C 0.01596 0.14516 0.45997 0.0
H536 H 0.25582 0.60796 0.14559 0.0
H537 H 0.2036 0.68694 0.20091 0.0
H538 H 0.14252 0.66262 0.16459 0.0
H539 H 0.10369 0.61875 0.11706 0.0
H540 H 0.15424 0.53727 0.06471 0.0
H541 H 0.2163 0.56293 0.09954 0.0
C542 C 0.23105 0.61981 0.14977 0.0
C543 C 0.23438 0.64928 0.17591 0.0
C544 C 0.19581 0.60543 0.12906 0.0
C545 C 0.20183 0.66413 0.18112 0.0
C546 C 0.16693 0.65036 0.16022 0.0
C547 C 0.12853 0.60695 0.11302 0.0
C548 C 0.12468 0.5765 0.08805 0.0
C549 C 0.16363 0.62113 0.134 0.0
C550 C 0.15664 0.56086 0.08366 0.0
C551 C 0.19207 0.57545 0.10363 0.0
H552 H 0.29968 0.4872 0.72651 0.0
H553 H 0.25899 0.39973 0.64319 0.0
H554 H 0.31361 0.42987 0.60351 0.0
H555 H 0.37604 0.47908 0.59443 0.0
H556 H 0.41302 0.56917 0.67581 0.0
H557 H 0.35663 0.54042 0.71407 0.0
C558 C 0.3026 0.47504 0.69949 0.0
C559 C 0.27574 0.44119 0.68785 0.0
C560 C 0.33347 0.49296 0.67653 0.0
C561 C 0.27936 0.42585 0.65265 0.0
C562 C 0.31068 0.44297 0.63004 0.0
C563 C 0.37137 0.49256 0.62034 0.0
C564 C 0.39882 0.52597 0.63243 0.0
C565 C 0.33836 0.47622 0.64195 0.0
C566 C 0.39223 0.54345 0.66585 0.0
C567 C 0.36013 0.52693 0.68787 0.0
H568 H 0.73915 0.62429 0.86068 0.0
H569 H 0.75966 0.73137 0.91671 0.0
H570 H 0.82094 0.72541 0.94375 0.0
H571 H 0.86938 0.69006 0.95081 0.0
H572 H 0.84739 0.58217 0.89656 0.0
H573 H 0.78604 0.58812 0.86947 0.0
C574 C 0.75696 0.64628 0.87889 0.0
C575 C 0.74493 0.67826 0.88655 0.0
C576 C 0.79199 0.64258 0.89455 0.0
C577 C 0.76819 0.70641 0.91042 0.0
C578 C 0.80333 0.7031 0.9258 0.0
C579 C 0.85118 0.66802 0.93289 0.0
C580 C 0.86287 0.63587 0.92544 0.0
C581 C 0.81566 0.67142 0.91787 0.0
C582 C 0.83883 0.60716 0.90269 0.0
C583 C 0.80383 0.61056 0.88718 0.0
H584 H 0.38535 0.81532 0.18869 0.0
H585 H 0.47193 0.85044 0.27588 0.0
H586 H 0.50038 0.90888 0.24817 0.0
H587 H 0.49949 0.95054 0.19933 0.0
H588 H 0.41159 0.91341 0.11318 0.0
H589 H 0.38489 0.85542 0.14059 0.0
C590 C 0.41055 0.83557 0.20183 0.0
C591 C 0.42633 0.82825 0.23454 0.0
C592 C 0.42646 0.869 0.18594 0.0
C593 C 0.45912 0.8551 0.25074 0.0
C594 C 0.47532 0.88862 0.23491 0.0
C595 C 0.47447 0.92978 0.18658 0.0
C596 C 0.45761 0.93667 0.15412 0.0
C597 C 0.45904 0.89601 0.20257 0.0
C598 C 0.42529 0.90921 0.13804 0.0
C599 C 0.40992 0.87587 0.15372 0.0
H600 H 0.13001 0.20656 0.70401 0.0
H601 H 0.01293 0.22412 0.69906 0.0
H602 H 0.98846 0.16737 0.66115 0.0
H603 H 0.99987 0.11291 0.62922 0.0
H604 H 0.11645 0.09435 0.63359 0.0
H605 H 0.14133 0.15113 0.67203 0.0
C606 C 0.09918 0.19801 0.69456 0.0
C607 C 0.07343 0.21972 0.7044 0.0
C608 C 0.08508 0.16505 0.67277 0.0
C609 C 0.0335 0.20807 0.692 0.0
C610 C 0.01938 0.17553 0.67029 0.0
C611 C 0.03072 0.12111 0.63863 0.0
C612 C 0.05619 0.09928 0.62849 0.0
C613 C 0.04486 0.1538 0.66055 0.0
C614 C 0.09609 0.11053 0.641 0.0
C615 C 0.1104 0.14307 0.66293 0.0
H616 H 0.71358 0.35538 0.38753 0.0
H617 H 0.78062 0.38882 0.48766 0.0
H618 H 0.72818 0.41461 0.51288 0.0
H619 H 0.66296 0.42713 0.50652 0.0
H620 H 0.59718 0.39441 0.40564 0.0
H621 H 0.64932 0.36837 0.38093 0.0
C622 C 0.71685 0.36831 0.4149 0.0
C623 C 0.75103 0.37014 0.43566 0.0
C624 C 0.68668 0.38302 0.42917 0.0
C625 C 0.75465 0.38704 0.47106 0.0
C626 C 0.72466 0.40177 0.48551 0.0
C627 C 0.66019 0.41458 0.47901 0.0
C628 C 0.62606 0.41265 0.45804 0.0
C629 C 0.69053 0.39991 0.46479 0.0
C630 C 0.62274 0.39579 0.42262 0.0
C631 C 0.6527 0.38111 0.40835 0.0
loop_
_geom_bond_atom_site_label_1
_geom_bond_atom_site_label_2
_geom_bond_distance
_geom_bond_site_symmetry_2
_ccdc_geom_bond_type
O0 Cd1 2.300 . S
O0 C7 1.275 . S
Cd1 O0 2.300 . S
Cd1 O9 2.381 . S
Cd1 O10 2.378 . S
O2 Cd3 2.385 . S
O2 C7 1.255 . S
Cd3 O2 2.385 . S
Cd3 O4 2.317 . S
O4 Cd3 2.317 . S
O4 C5 1.232 . S
C5 O4 1.232 . S
C5 O6 1.218 . S
O6 C5 1.218 . S
C7 O0 1.275 . S
C7 O2 1.255 . S
C8 O9 1.258 . S
C8 O10 1.256 . S
O9 Cd1 2.381 . S
O9 C8 1.258 . S
O10 Cd1 2.378 . S
O10 C8 1.256 . S
O11 Cd12 2.300 . S
O11 C18 1.275 . S
Cd12 O11 2.300 . S
Cd12 O20 2.381 . S
Cd12 O21 2.378 . S
O13 Cd14 2.385 . S
O13 C18 1.255 . S
Cd14 O13 2.385 . S
Cd14 O15 2.317 . S
O15 Cd14 2.317 . S
O15 C16 1.232 . S
C16 O15 1.232 . S
C16 O17 1.218 . S
O17 C16 1.218 . S
C18 O11 1.275 . S
C18 O13 1.255 . S
C19 O20 1.258 . S
C19 O21 1.256 . S
O20 Cd12 2.381 . S
O20 C19 1.258 . S
O21 Cd12 2.378 . S
O21 C19 1.256 . S
O22 Cd23 2.300 . S
O22 C29 1.275 . S
Cd23 O22 2.300 . S
Cd23 O31 2.381 . S
Cd23 O32 2.378 . S
O24 Cd25 2.385 . S
O24 C29 1.255 . S
Cd25 O24 2.385 . S
Cd25 O26 2.317 . S
O26 Cd25 2.317 . S
O26 C27 1.232 . S
C27 O26 1.232 . S
C27 O28 1.218 . S
O28 C27 1.218 . S
C29 O22 1.275 . S
C29 O24 1.255 . S
C30 O31 1.258 . S
C30 O32 1.256 . S
O31 Cd23 2.381 . S
O31 C30 1.258 . S
O32 Cd23 2.378 . S
O32 C30 1.256 . S
O33 Cd34 2.300 . S
O33 C40 1.275 . S
Cd34 O33 2.300 . S
Cd34 O42 2.381 . S
Cd34 O43 2.378 . S
O35 Cd36 2.385 . S
O35 C40 1.255 . S
Cd36 O35 2.385 . S
Cd36 O37 2.317 . S
O37 Cd36 2.317 . S
O37 C38 1.232 . S
C38 O37 1.232 . S
C38 O39 1.218 . S
O39 C38 1.218 . S
C40 O33 1.275 . S
C40 O35 1.255 . S
C41 O42 1.258 . S
C41 O43 1.256 . S
O42 Cd34 2.381 . S
O42 C41 1.258 . S
O43 Cd34 2.378 . S
O43 C41 1.256 . S
O44 Cd45 2.300 . S
O44 C51 1.275 . S
Cd45 O44 2.300 . S
Cd45 O53 2.381 . S
Cd45 O54 2.378 . S
O46 Cd47 2.385 . S
O46 C51 1.255 . S
Cd47 O46 2.385 . S
Cd47 O48 2.317 . S
O48 Cd47 2.317 . S
O48 C49 1.232 . S
C49 O48 1.232 . S
C49 O50 1.218 . S
O50 C49 1.218 . S
C51 O44 1.275 . S
C51 O46 1.255 . S
C52 O53 1.258 . S
C52 O54 1.256 . S
O53 Cd45 2.381 . S
O53 C52 1.258 . S
O54 Cd45 2.378 . S
O54 C52 1.256 . S
O55 Cd56 2.300 . S
O55 C62 1.275 . S
Cd56 O55 2.300 . S
Cd56 O64 2.381 . S
Cd56 O65 2.378 . S
O57 Cd58 2.385 . S
O57 C62 1.255 . S
Cd58 O57 2.385 . S
Cd58 O59 2.317 . S
O59 Cd58 2.317 . S
O59 C60 1.232 . S
C60 O59 1.232 . S
C60 O61 1.218 . S
O61 C60 1.218 . S
C62 O55 1.275 . S
C62 O57 1.255 . S
C63 O64 1.258 . S
C63 O65 1.256 . S
O64 Cd56 2.381 . S
O64 C63 1.258 . S
O65 Cd56 2.378 . S
O65 C63 1.256 . S
O66 Cd67 2.300 . S
O66 C73 1.275 . S
Cd67 O66 2.300 . S
Cd67 O75 2.381 . S
Cd67 O76 2.378 . S
O68 Cd69 2.385 . S
O68 C73 1.255 . S
Cd69 O68 2.385 . S
Cd69 O70 2.317 . S
O70 Cd69 2.317 . S
O70 C71 1.232 . S
C71 O70 1.232 . S
C71 O72 1.218 . S
O72 C71 1.218 . S
C73 O66 1.275 . S
C73 O68 1.255 . S
C74 O75 1.258 . S
C74 O76 1.256 . S
O75 Cd67 2.381 . S
O75 C74 1.258 . S
O76 Cd67 2.378 . S
O76 C74 1.256 . S
O77 Cd78 2.300 . S
O77 C84 1.275 . S
Cd78 O77 2.300 . S
Cd78 O86 2.381 . S
Cd78 O87 2.378 . S
O79 Cd80 2.385 . S
O79 C84 1.255 . S
Cd80 O79 2.385 . S
Cd80 O81 2.317 . S
O81 Cd80 2.317 . S
O81 C82 1.232 . S
C82 O81 1.232 . S
C82 O83 1.218 . S
O83 C82 1.218 . S
C84 O77 1.275 . S
C84 O79 1.255 . S
C85 O86 1.258 . S
C85 O87 1.256 . S
O86 Cd78 2.381 . S
O86 C85 1.258 . S
O87 Cd78 2.378 . S
O87 C85 1.256 . S
Dy88 O91 2.307 1_545 S
Dy88 O93 2.395 . S
Dy88 O94 2.379 . S
Dy88 O96 2.339 1_545 S
Dy88 O98 2.296 . S
Dy88 O102 2.275 . S
Dy88 C110 2.738 . S
Dy89 O92 2.288 1_655 S
Dy89 O95 2.277 . S
Dy89 O97 2.304 1_565 S
Dy89 O99 2.398 . S
Dy89 O100 2.379 . S
Dy89 O103 2.336 1_565 S
Dy89 C119 2.740 . S
C90 O102 1.254 . S
C90 O103 1.257 1_455 S
O91 Dy88 2.307 1_565 S
O91 C101 1.266 . S
O92 Dy89 2.288 1_455 S
O92 C101 1.248 . S
O93 Dy88 2.395 . S
O93 C110 1.255 . S
O94 Dy88 2.379 . S
O94 C110 1.249 . S
O95 Dy89 2.277 . S
O95 C111 1.254 . S
O96 Dy88 2.339 1_565 S
O96 C111 1.257 1_455 S
O97 Dy89 2.304 1_545 S
O97 C112 1.266 . S
O98 Dy88 2.296 . S
O98 C112 1.238 1_455 S
O99 Dy89 2.398 . S
O99 C119 1.255 . S
O100 Dy89 2.379 . S
O100 C119 1.249 . S
C101 O91 1.266 . S
C101 O92 1.248 . S
O102 Dy88 2.275 . S
O102 C90 1.254 . S
O103 Dy89 2.336 1_545 S
O103 C90 1.257 1_655 S
C104 C107 1.344 . S
C104 C108 1.328 . S
C104 C110 1.516 . S
C105 C106 1.304 . S
C105 C109 1.323 . S
C106 C105 1.304 . S
C106 C107 1.371 . S
C106 H120 0.930 . S
C107 C104 1.344 . S
C107 C106 1.371 . S
C107 H121 0.931 . S
C108 C104 1.328 . S
C108 C109 1.433 . S
C108 H122 0.931 . S
C109 C105 1.323 . S
C109 C108 1.433 . S
C109 H123 0.933 . S
C110 Dy88 2.738 . S
C110 O93 1.255 . S
C110 O94 1.249 . S
C110 C104 1.516 . S
C111 O95 1.254 . S
C111 O96 1.257 1_655 S
C112 O97 1.266 . S
C112 O98 1.238 1_655 S
C113 C116 1.344 . S
C113 C117 1.328 . S
C113 C119 1.516 . S
C114 C115 1.304 . S
C114 C118 1.323 . S
C115 C114 1.304 . S
C115 C116 1.371 . S
C115 H124 0.930 . S
C116 C113 1.344 . S
C116 C115 1.371 . S
C116 H125 0.931 . S
C117 C113 1.328 . S
C117 C118 1.433 . S
C117 H126 0.931 . S
C118 C114 1.323 . S
C118 C117 1.433 . S
C118 H127 0.933 . S
C119 Dy89 2.740 . S
C119 O99 1.255 . S
C119 O100 1.249 . S
C119 C113 1.516 . S
H120 C106 0.930 . S
H121 C107 0.931 . S
H122 C108 0.931 . S
H123 C109 0.933 . S
H124 C115 0.930 . S
H125 C116 0.931 . S
H126 C117 0.931 . S
H127 C118 0.933 . S
Dy128 O131 2.307 . S
Dy128 O133 2.395 1_545 S
Dy128 O134 2.379 1_554 S
Dy128 O136 2.339 . S
Dy128 O138 2.298 1_545 S
Dy128 O142 2.275 1_545 S
Dy128 C150 2.738 1_544 S
Dy129 O132 2.298 . S
Dy129 O135 2.275 . S
Dy129 O137 2.307 1_545 S
Dy129 O139 2.395 . S
Dy129 O140 2.379 . S
Dy129 O143 2.339 1_545 S
Dy129 C159 2.738 . S
C130 O142 1.254 . S
C130 O143 1.257 . S
O131 Dy128 2.307 . S
O131 C141 1.266 . S
O132 Dy129 2.298 . S
O132 C141 1.236 . S
O133 Dy128 2.395 1_565 S
O133 C150 1.255 1_554 S
O134 Dy128 2.379 1_556 S
O134 C150 1.249 1_545 S
O135 Dy129 2.275 . S
O135 C151 1.254 . S
O136 Dy128 2.339 . S
O136 C151 1.257 . S
O137 Dy129 2.307 1_565 S
O137 C152 1.266 . S
O138 Dy128 2.298 1_565 S
O138 C152 1.236 . S
O139 Dy129 2.395 . S
O139 C159 1.255 . S
O140 Dy129 2.379 . S
O140 C159 1.249 . S
C141 O131 1.266 . S
C141 O132 1.236 . S
O142 Dy128 2.275 1_565 S
O142 C130 1.254 . S
O143 Dy129 2.339 1_565 S
O143 C130 1.257 . S
C144 C147 1.344 . S
C144 C148 1.328 . S
C144 C150 1.516 . S
C145 C146 1.304 . S
C145 C149 1.323 . S
C146 C145 1.304 . S
C146 C147 1.371 . S
C146 H160 0.930 . S
C147 C144 1.344 . S
C147 C146 1.371 . S
C147 H161 0.931 . S
C148 C144 1.328 . S
C148 C149 1.433 . S
C148 H162 0.931 . S
C149 C145 1.323 . S
C149 C148 1.433 . S
C149 H163 0.933 . S
C150 Dy128 2.738 1_566 S
C150 O133 1.255 1_556 S
C150 O134 1.249 1_565 S
C150 C144 1.516 . S
C151 O135 1.254 . S
C151 O136 1.257 . S
C152 O137 1.266 . S
C152 O138 1.236 . S
C153 C156 1.344 . S
C153 C157 1.328 . S
C153 C159 1.516 . S
C154 C155 1.304 . S
C154 C158 1.323 . S
C155 C154 1.304 . S
C155 C156 1.371 . S
C155 H164 0.930 . S
C156 C153 1.344 . S
C156 C155 1.371 . S
C156 H165 0.931 . S
C157 C153 1.328 . S
C157 C158 1.433 . S
C157 H166 0.931 . S
C158 C154 1.323 . S
C158 C157 1.433 . S
C158 H167 0.933 . S
C159 Dy129 2.738 . S
C159 O139 1.255 . S
C159 O140 1.249 . S
C159 C153 1.516 . S
H160 C146 0.930 . S
H161 C147 0.931 . S
H162 C148 0.931 . S
H163 C149 0.933 . S
H164 C155 0.930 . S
H165 C156 0.931 . S
H166 C157 0.931 . S
H167 C158 0.933 . S
Dy168 O171 2.307 . S
Dy168 O173 2.395 . S
Dy168 O174 2.379 . S
Dy168 O176 2.339 . S
Dy168 O178 2.298 . S
Dy168 O182 2.275 . S
Dy168 C190 2.738 . S
Dy169 O172 2.298 . S
Dy169 O175 2.275 . S
Dy169 O177 2.307 . S
Dy169 O179 2.395 . S
Dy169 O180 2.379 . S
Dy169 O183 2.339 . S
Dy169 C199 2.738 . S
C170 O182 1.254 . S
C170 O183 1.257 . S
O171 Dy168 2.307 . S
O171 C181 1.266 . S
O172 Dy169 2.298 . S
O172 C181 1.236 . S
O173 Dy168 2.395 . S
O173 C190 1.255 . S
O174 Dy168 2.379 . S
O174 C190 1.249 . S
O175 Dy169 2.275 . S
O175 C191 1.254 . S
O176 Dy168 2.339 . S
O176 C191 1.257 . S
O177 Dy169 2.307 . S
O177 C192 1.266 . S
O178 Dy168 2.298 . S
O178 C192 1.236 . S
O179 Dy169 2.395 . S
O179 C199 1.255 . S
O180 Dy169 2.379 . S
O180 C199 1.249 . S
C181 O171 1.266 . S
C181 O172 1.236 . S
O182 Dy168 2.275 . S
O182 C170 1.254 . S
O183 Dy169 2.339 . S
O183 C170 1.257 . S
C184 C187 1.344 . S
C184 C188 1.328 . S
C184 C190 1.516 . S
C185 C186 1.304 . S
C185 C189 1.323 . S
C186 C185 1.304 . S
C186 C187 1.371 . S
C186 H200 0.930 . S
C187 C184 1.344 . S
C187 C186 1.371 . S
C187 H201 0.931 . S
C188 C184 1.328 . S
C188 C189 1.433 . S
C188 H202 0.931 . S
C189 C185 1.323 . S
C189 C188 1.433 . S
C189 H203 0.933 . S
C190 Dy168 2.738 . S
C190 O173 1.255 . S
C190 O174 1.249 . S
C190 C184 1.516 . S
C191 O175 1.254 . S
C191 O176 1.257 . S
C192 O177 1.266 . S
C192 O178 1.236 . S
C193 C196 1.344 . S
C193 C197 1.328 . S
C193 C199 1.516 . S
C194 C195 1.304 . S
C194 C198 1.323 . S
C195 C194 1.304 . S
C195 C196 1.371 . S
C195 H204 0.930 . S
C196 C193 1.344 . S
C196 C195 1.371 . S
C196 H205 0.931 . S
C197 C193 1.328 . S
C197 C198 1.433 . S
C197 H206 0.931 . S
C198 C194 1.323 . S
C198 C197 1.433 . S
C198 H207 0.933 . S
C199 Dy169 2.738 . S
C199 O179 1.255 . S
C199 O180 1.249 . S
C199 C193 1.516 . S
H200 C186 0.930 . S
H201 C187 0.931 . S
H202 C188 0.931 . S
H203 C189 0.933 . S
H204 C195 0.930 . S
H205 C196 0.931 . S
H206 C197 0.931 . S
H207 C198 0.933 . S
Dy208 O211 2.307 1_556 S
Dy208 O213 2.395 1_455 S
Dy208 O214 2.379 1_455 S
Dy208 O216 2.339 . S
Dy208 O218 2.298 1_455 S
Dy208 O222 2.271 1_456 S
Dy208 C230 2.738 1_455 S
Dy209 O212 2.298 . S
Dy209 O215 2.275 1_554 S
Dy209 O217 2.307 1_455 S
Dy209 O219 2.395 . S
Dy209 O220 2.379 . S
Dy209 O223 2.339 1_455 S
Dy209 C239 2.738 . S
C210 O222 1.260 . S
C210 O223 1.257 . S
O211 Dy208 2.307 1_554 S
O211 C221 1.266 . S
O212 Dy209 2.298 . S
O212 C221 1.236 . S
O213 Dy208 2.395 1_655 S
O213 C230 1.255 . S
O214 Dy208 2.379 1_655 S
O214 C230 1.249 . S
O215 Dy209 2.275 1_556 S
O215 C231 1.254 . S
O216 Dy208 2.339 . S
O216 C231 1.257 . S
O217 Dy209 2.307 1_655 S
O217 C232 1.266 1_554 S
O218 Dy208 2.298 1_655 S
O218 C232 1.236 . S
O219 Dy209 2.395 . S
O219 C239 1.255 . S
O220 Dy209 2.379 . S
O220 C239 1.249 . S
C221 O211 1.266 . S
C221 O212 1.236 . S
O222 Dy208 2.271 1_654 S
O222 C210 1.260 . S
O223 Dy209 2.339 1_655 S
O223 C210 1.257 . S
C224 C227 1.344 . S
C224 C228 1.328 . S
C224 C230 1.516 . S
C225 C226 1.304 . S
C225 C229 1.323 . S
C226 C225 1.304 . S
C226 C227 1.371 . S
C226 H240 0.930 . S
C227 C224 1.344 . S
C227 C226 1.371 . S
C227 H241 0.931 . S
C228 C224 1.328 . S
C228 C229 1.433 . S
C228 H242 0.931 . S
C229 C225 1.323 . S
C229 C228 1.433 . S
C229 H243 0.933 . S
C230 Dy208 2.738 1_655 S
C230 O213 1.255 . S
C230 O214 1.249 . S
C230 C224 1.516 . S
C231 O215 1.254 . S
C231 O216 1.257 . S
C232 O217 1.266 1_556 S
C232 O218 1.236 . S
C233 C236 1.344 . S
C233 C237 1.328 . S
C233 C239 1.516 . S
C234 C235 1.304 . S
C234 C238 1.323 . S
C235 C234 1.304 . S
C235 C236 1.371 . S
C235 H244 0.930 . S
C236 C233 1.344 . S
C236 C235 1.371 . S
C236 H245 0.931 . S
C237 C233 1.328 . S
C237 C238 1.433 . S
C237 H246 0.931 . S
C238 C234 1.323 . S
C238 C237 1.433 . S
C238 H247 0.933 . S
C239 Dy209 2.738 . S
C239 O219 1.255 . S
C239 O220 1.249 . S
C239 C233 1.516 . S
H240 C226 0.930 . S
H241 C227 0.931 . S
H242 C228 0.931 . S
H243 C229 0.933 . S
H244 C235 0.930 . S
H245 C236 0.931 . S
H246 C237 0.931 . S
H247 C238 0.933 . S
H248 C254 0.930 . S
H249 C257 0.930 . S
H250 C258 0.930 . S
H251 C259 0.930 . S
H252 C262 0.930 . S
H253 C263 0.930 . S
C254 H248 0.930 . S
C254 C255 1.355 . S
C254 C256 1.415 . S
C255 C254 1.355 . S
C255 C257 1.419 . S
C256 C254 1.415 . S
C256 C261 1.425 . S
C256 C263 1.409 . S
C257 H249 0.930 . S
C257 C255 1.419 . S
C257 C258 1.362 . S
C258 H250 0.930 . S
C258 C257 1.362 . S
C258 C261 1.409 . S
C259 H251 0.930 . S
C259 C260 1.355 . S
C259 C261 1.415 . S
C260 C259 1.355 . S
C260 C262 1.419 . S
C261 C256 1.425 . S
C261 C258 1.409 . S
C261 C259 1.415 . S
C262 H252 0.930 . S
C262 C260 1.419 . S
C262 C263 1.362 . S
C263 H253 0.930 . S
C263 C256 1.409 . S
C263 C262 1.362 . S
H264 C270 0.930 . S
H265 C273 0.930 . S
H266 C274 0.930 . S
H267 C275 0.930 . S
H268 C278 0.930 . S
H269 C279 0.930 . S
C270 H264 0.930 . S
C270 C271 1.355 . S
C270 C272 1.415 . S
C271 C270 1.355 . S
C271 C273 1.419 . S
C272 C270 1.415 . S
C272 C277 1.425 . S
C272 C279 1.409 . S
C273 H265 0.930 . S
C273 C271 1.419 . S
C273 C274 1.362 . S
C274 H266 0.930 . S
C274 C273 1.362 . S
C274 C277 1.409 . S
C275 H267 0.930 . S
C275 C276 1.355 . S
C275 C277 1.415 . S
C276 C275 1.355 . S
C276 C278 1.419 . S
C277 C272 1.425 . S
C277 C274 1.409 . S
C277 C275 1.415 . S
C278 H268 0.930 . S
C278 C276 1.419 . S
C278 C279 1.362 . S
C279 H269 0.930 . S
C279 C272 1.409 . S
C279 C278 1.362 . S
H280 C286 0.930 . S
H281 C289 0.930 . S
H282 C290 0.930 . S
H283 C291 0.930 . S
H284 C294 0.930 . S
H285 C295 0.930 . S
C286 H280 0.930 . S
C286 C287 1.355 . S
C286 C288 1.415 . S
C287 C286 1.355 . S
C287 C289 1.419 . S
C288 C286 1.415 . S
C288 C293 1.425 . S
C288 C295 1.409 . S
C289 H281 0.930 . S
C289 C287 1.419 . S
C289 C290 1.362 . S
C290 H282 0.930 . S
C290 C289 1.362 . S
C290 C293 1.409 . S
C291 H283 0.930 . S
C291 C292 1.355 . S
C291 C293 1.415 . S
C292 C291 1.355 . S
C292 C294 1.419 . S
C293 C288 1.425 . S
C293 C290 1.409 . S
C293 C291 1.415 . S
C294 H284 0.930 . S
C294 C292 1.419 . S
C294 C295 1.362 . S
C295 H285 0.930 . S
C295 C288 1.409 . S
C295 C294 1.362 . S
H296 C302 0.930 . S
H297 C305 0.930 . S
H298 C306 0.930 . S
H299 C307 0.930 . S
H300 C310 0.915 1_455 S
H301 C311 0.930 1_455 S
C302 H296 0.930 . S
C302 C303 1.355 . S
C302 C304 1.415 . S
C303 C302 1.355 . S
C303 C305 1.419 . S
C304 C302 1.415 . S
C304 C309 1.425 . S
C304 C311 1.409 . S
C305 H297 0.930 . S
C305 C303 1.419 . S
C305 C306 1.362 . S
C306 H298 0.930 . S
C306 C305 1.362 . S
C306 C309 1.409 . S
C307 H299 0.930 . S
C307 C308 1.355 . S
C307 C309 1.415 . S
C308 C307 1.355 . S
C308 C310 1.429 . S
C309 C304 1.425 . S
C309 C306 1.409 . S
C309 C307 1.415 . S
C310 H300 0.915 1_655 S
C310 C308 1.429 . S
C310 C311 1.367 . S
C311 H301 0.930 1_655 S
C311 C304 1.409 . S
C311 C310 1.367 . S
H312 C318 0.930 . S
H313 C321 0.930 . S
H314 C322 0.930 . S
H315 C323 0.930 . S
H316 C326 0.930 . S
H317 C327 0.930 . S
C318 H312 0.930 . S
C318 C319 1.355 . S
C318 C320 1.415 . S
C319 C318 1.355 . S
C319 C321 1.419 . S
C320 C318 1.415 . S
C320 C325 1.425 . S
C320 C327 1.409 . S
C321 H313 0.930 . S
C321 C319 1.419 . S
C321 C322 1.362 . S
C322 H314 0.930 . S
C322 C321 1.362 . S
C322 C325 1.409 . S
C323 H315 0.930 . S
C323 C324 1.355 . S
C323 C325 1.415 . S
C324 C323 1.355 . S
C324 C326 1.419 . S
C325 C320 1.425 . S
C325 C322 1.409 . S
C325 C323 1.415 . S
C326 H316 0.930 . S
C326 C324 1.419 . S
C326 C327 1.362 . S
C327 H317 0.930 . S
C327 C320 1.409 . S
C327 C326 1.362 . S
H328 C334 0.930 . S
H329 C337 0.930 . S
H330 C338 0.930 . S
H331 C339 0.930 . S
H332 C342 0.930 . S
H333 C343 0.930 . S
C334 H328 0.930 . S
C334 C335 1.355 . S
C334 C336 1.415 . S
C335 C334 1.355 . S
C335 C337 1.419 . S
C336 C334 1.415 . S
C336 C341 1.425 . S
C336 C343 1.409 . S
C337 H329 0.930 . S
C337 C335 1.419 . S
C337 C338 1.362 . S
C338 H330 0.930 . S
C338 C337 1.362 . S
C338 C341 1.409 . S
C339 H331 0.930 . S
C339 C340 1.355 . S
C339 C341 1.415 . S
C340 C339 1.355 . S
C340 C342 1.419 . S
C341 C336 1.425 . S
C341 C338 1.409 . S
C341 C339 1.415 . S
C342 H332 0.930 . S
C342 C340 1.419 . S
C342 C343 1.362 . S
C343 H333 0.930 . S
C343 C336 1.409 . S
C343 C342 1.362 . S
H344 C350 0.930 . S
H345 C353 0.930 . S
H346 C354 0.930 . S
H347 C355 0.930 . S
H348 C358 0.930 1_554 S
H349 C359 0.930 . S
C350 H344 0.930 . S
C350 C351 1.355 . S
C350 C352 1.415 . S
C351 C350 1.355 . S
C351 C353 1.419 . S
C352 C350 1.415 . S
C352 C357 1.425 . S
C352 C359 1.409 . S
C353 H345 0.930 . S
C353 C351 1.419 . S
C353 C354 1.362 . S
C354 H346 0.930 . S
C354 C353 1.362 . S
C354 C357 1.409 . S
C355 H347 0.930 . S
C355 C356 1.355 . S
C355 C357 1.415 . S
C356 C355 1.355 . S
C356 C358 1.419 . S
C357 C352 1.425 . S
C357 C354 1.409 . S
C357 C355 1.415 . S
C358 H348 0.930 1_556 S
C358 C356 1.419 . S
C358 C359 1.362 . S
C359 H349 0.930 . S
C359 C352 1.409 . S
C359 C358 1.362 . S
H360 C366 0.930 . S
H361 C369 0.930 . S
H362 C370 0.930 . S
H363 C371 0.930 . S
H364 C374 0.930 . S
H365 C375 0.930 . S
C366 H360 0.930 . S
C366 C367 1.355 . S
C366 C368 1.415 . S
C367 C366 1.355 . S
C367 C369 1.419 . S
C368 C366 1.415 . S
C368 C373 1.425 . S
C368 C375 1.409 . S
C369 H361 0.930 . S
C369 C367 1.419 . S
C369 C370 1.362 . S
C370 H362 0.930 . S
C370 C369 1.362 . S
C370 C373 1.409 . S
C371 H363 0.930 . S
C371 C372 1.355 . S
C371 C373 1.415 . S
C372 C371 1.355 . S
C372 C374 1.419 . S
C373 C368 1.425 . S
C373 C370 1.409 . S
C373 C371 1.415 . S
C374 H364 0.930 . S
C374 C372 1.419 . S
C374 C375 1.362 . S
C375 H365 0.930 . S
C375 C368 1.409 . S
C375 C374 1.362 . S
H376 C382 0.930 . S
H377 C385 0.930 . S
H378 C386 0.930 . S
H379 C387 0.930 . S
H380 C390 0.930 . S
H381 C391 0.930 . S
C382 H376 0.930 . S
C382 C383 1.355 . S
C382 C384 1.415 . S
C383 C382 1.355 . S
C383 C385 1.419 . S
C384 C382 1.415 . S
C384 C389 1.425 . S
C384 C391 1.409 . S
C385 H377 0.930 . S
C385 C383 1.419 . S
C385 C386 1.362 . S
C386 H378 0.930 . S
C386 C385 1.362 . S
C386 C389 1.409 . S
C387 H379 0.930 . S
C387 C388 1.355 . S
C387 C389 1.415 . S
C388 C387 1.355 . S
C388 C390 1.419 . S
C389 C384 1.425 . S
C389 C386 1.409 . S
C389 C387 1.415 . S
C390 H380 0.930 . S
C390 C388 1.419 . S
C390 C391 1.362 . S
C391 H381 0.930 . S
C391 C384 1.409 . S
C391 C390 1.362 . S
H392 C398 0.930 . S
H393 C401 0.930 . S
H394 C402 0.930 1_554 S
H395 C403 0.930 . S
H396 C406 0.930 . S
H397 C407 0.930 . S
C398 H392 0.930 . S
C398 C399 1.355 . S
C398 C400 1.415 . S
C399 C398 1.355 . S
C399 C401 1.419 . S
C400 C398 1.415 . S
C400 C405 1.425 . S
C400 C407 1.409 . S
C401 H393 0.930 . S
C401 C399 1.419 . S
C401 C402 1.362 . S
C402 H394 0.930 1_556 S
C402 C401 1.362 . S
C402 C405 1.409 . S
C403 H395 0.930 . S
C403 C404 1.355 1_554 S
C403 C405 1.415 1_554 S
C404 C403 1.355 1_556 S
C404 C406 1.419 . S
C405 C400 1.425 . S
C405 C402 1.409 . S
C405 C403 1.415 1_556 S
C406 H396 0.930 . S
C406 C404 1.419 . S
C406 C407 1.362 . S
C407 H397 0.930 . S
C407 C400 1.409 . S
C407 C406 1.362 . S
H408 C414 0.930 . S
H409 C417 0.930 . S
H410 C418 0.930 . S
H411 C419 0.930 . S
H412 C422 0.930 . S
H413 C423 0.930 . S
C414 H408 0.930 . S
C414 C415 1.355 . S
C414 C416 1.415 . S
C415 C414 1.355 . S
C415 C417 1.419 . S
C416 C414 1.415 . S
C416 C421 1.425 . S
C416 C423 1.409 . S
C417 H409 0.930 . S
C417 C415 1.419 . S
C417 C418 1.362 . S
C418 H410 0.930 . S
C418 C417 1.362 . S
C418 C421 1.409 . S
C419 H411 0.930 . S
C419 C420 1.355 . S
C419 C421 1.415 . S
C420 C419 1.355 . S
C420 C422 1.419 . S
C421 C416 1.425 . S
C421 C418 1.409 . S
C421 C419 1.415 . S
C422 H412 0.930 . S
C422 C420 1.419 . S
C422 C423 1.362 . S
C423 H413 0.930 . S
C423 C416 1.409 . S
C423 C422 1.362 . S
H424 C430 0.930 . S
H425 C433 0.930 . S
H426 C434 0.930 . S
H427 C435 0.930 . S
H428 C438 0.930 . S
H429 C439 0.930 . S
C430 H424 0.930 . S
C430 C431 1.355 . S
C430 C432 1.415 . S
C431 C430 1.355 . S
C431 C433 1.419 . S
C432 C430 1.415 . S
C432 C437 1.425 . S
C432 C439 1.409 . S
C433 H425 0.930 . S
C433 C431 1.419 . S
C433 C434 1.362 . S
C434 H426 0.930 . S
C434 C433 1.362 . S
C434 C437 1.409 . S
C435 H427 0.930 . S
C435 C436 1.355 . S
C435 C437 1.415 . S
C436 C435 1.355 . S
C436 C438 1.419 . S
C437 C432 1.425 . S
C437 C434 1.409 . S
C437 C435 1.415 . S
C438 H428 0.930 . S
C438 C436 1.419 . S
C438 C439 1.362 . S
C439 H429 0.930 . S
C439 C432 1.409 . S
C439 C438 1.362 . S
H440 C446 0.930 . S
H441 C449 0.930 . S
H442 C450 0.930 . S
H443 C451 0.930 . S
H444 C454 0.930 . S
H445 C455 0.930 . S
C446 H440 0.930 . S
C446 C447 1.355 . S
C446 C448 1.415 . S
C447 C446 1.355 . S
C447 C449 1.419 . S
C448 C446 1.415 . S
C448 C453 1.425 . S
C448 C455 1.409 . S
C449 H441 0.930 . S
C449 C447 1.419 . S
C449 C450 1.362 . S
C450 H442 0.930 . S
C450 C449 1.362 . S
C450 C453 1.409 . S
C451 H443 0.930 . S
C451 C452 1.355 . S
C451 C453 1.415 . S
C452 C451 1.355 . S
C452 C454 1.419 . S
C453 C448 1.425 . S
C453 C450 1.409 . S
C453 C451 1.415 . S
C454 H444 0.930 . S
C454 C452 1.419 . S
C454 C455 1.362 . S
C455 H445 0.930 . S
C455 C448 1.409 . S
C455 C454 1.362 . S
H456 C462 0.930 . S
H457 C465 0.930 . S
H458 C466 0.930 . S
H459 C467 0.930 . S
H460 C470 0.930 . S
H461 C471 0.930 . S
C462 H456 0.930 . S
C462 C463 1.355 . S
C462 C464 1.415 . S
C463 C462 1.355 . S
C463 C465 1.419 . S
C464 C462 1.415 . S
C464 C469 1.425 . S
C464 C471 1.409 . S
C465 H457 0.930 . S
C465 C463 1.419 . S
C465 C466 1.362 . S
C466 H458 0.930 . S
C466 C465 1.362 . S
C466 C469 1.409 . S
C467 H459 0.930 . S
C467 C468 1.355 . S
C467 C469 1.415 . S
C468 C467 1.355 . S
C468 C470 1.419 . S
C469 C464 1.425 . S
C469 C466 1.409 . S
C469 C467 1.415 . S
C470 H460 0.930 . S
C470 C468 1.419 . S
C470 C471 1.362 . S
C471 H461 0.930 . S
C471 C464 1.409 . S
C471 C470 1.362 . S
H472 C478 0.930 . S
H473 C481 0.930 . S
H474 C482 0.930 . S
H475 C483 0.930 . S
H476 C486 0.930 . S
H477 C487 0.930 . S
C478 H472 0.930 . S
C478 C479 1.355 . S
C478 C480 1.415 . S
C479 C478 1.355 . S
C479 C481 1.419 . S
C480 C478 1.415 . S
C480 C485 1.425 . S
C480 C487 1.409 . S
C481 H473 0.930 . S
C481 C479 1.419 . S
C481 C482 1.362 . S
C482 H474 0.930 . S
C482 C481 1.362 . S
C482 C485 1.409 . S
C483 H475 0.930 . S
C483 C484 1.355 . S
C483 C485 1.415 . S
C484 C483 1.355 . S
C484 C486 1.419 . S
C485 C480 1.425 . S
C485 C482 1.409 . S
C485 C483 1.415 . S
C486 H476 0.930 . S
C486 C484 1.419 . S
C486 C487 1.362 . S
C487 H477 0.930 . S
C487 C480 1.409 . S
C487 C486 1.362 . S
H488 C494 0.930 . S
H489 C497 0.930 . S
H490 C498 0.930 . S
H491 C499 0.930 . S
H492 C502 0.930 . S
H493 C503 0.930 . S
C494 H488 0.930 . S
C494 C495 1.355 . S
C494 C496 1.415 . S
C495 C494 1.355 . S
C495 C497 1.419 . S
C496 C494 1.415 . S
C496 C501 1.425 . S
C496 C503 1.409 . S
C497 H489 0.930 . S
C497 C495 1.419 . S
C497 C498 1.362 . S
C498 H490 0.930 . S
C498 C497 1.362 . S
C498 C501 1.409 . S
C499 H491 0.930 . S
C499 C500 1.355 . S
C499 C501 1.415 . S
C500 C499 1.355 . S
C500 C502 1.419 . S
C501 C496 1.425 . S
C501 C498 1.409 . S
C501 C499 1.415 . S
C502 H492 0.930 . S
C502 C500 1.419 . S
C502 C503 1.362 . S
C503 H493 0.930 . S
C503 C496 1.409 . S
C503 C502 1.362 . S
H504 C510 0.930 . S
H505 C513 0.930 . S
H506 C514 0.930 . S
H507 C515 0.930 1_554 S
H508 C518 0.930 . S
H509 C519 0.930 . S
C510 H504 0.930 . S
C510 C511 1.355 . S
C510 C512 1.415 . S
C511 C510 1.355 . S
C511 C513 1.419 . S
C512 C510 1.415 . S
C512 C517 1.425 . S
C512 C519 1.409 . S
C513 H505 0.930 . S
C513 C511 1.419 . S
C513 C514 1.362 . S
C514 H506 0.930 . S
C514 C513 1.362 . S
C514 C517 1.409 . S
C515 H507 0.930 1_556 S
C515 C516 1.355 . S
C515 C517 1.415 . S
C516 C515 1.355 . S
C516 C518 1.419 . S
C517 C512 1.425 . S
C517 C514 1.409 . S
C517 C515 1.415 . S
C518 H508 0.930 . S
C518 C516 1.419 . S
C518 C519 1.362 . S
C519 H509 0.930 . S
C519 C512 1.409 . S
C519 C518 1.362 . S
H520 C526 0.930 1_455 S
H521 C529 0.930 . S
H522 C530 0.930 . S
H523 C531 0.930 . S
H524 C534 0.930 . S
H525 C535 0.930 . S
C526 H520 0.930 1_655 S
C526 C527 1.355 . S
C526 C528 1.415 . S
C527 C526 1.355 . S
C527 C529 1.419 . S
C528 C526 1.415 . S
C528 C533 1.425 . S
C528 C535 1.409 1_655 S
C529 H521 0.930 . S
C529 C527 1.419 . S
C529 C530 1.362 . S
C530 H522 0.930 . S
C530 C529 1.362 . S
C530 C533 1.409 . S
C531 H523 0.930 . S
C531 C532 1.355 . S
C531 C533 1.415 . S
C532 C531 1.355 . S
C532 C534 1.419 1_655 S
C533 C528 1.425 . S
C533 C530 1.409 . S
C533 C531 1.415 . S
C534 H524 0.930 . S
C534 C532 1.419 1_455 S
C534 C535 1.362 . S
C535 H525 0.930 . S
C535 C528 1.409 1_455 S
C535 C534 1.362 . S
H536 C542 0.930 . S
H537 C545 0.930 . S
H538 C546 0.930 . S
H539 C547 0.930 . S
H540 C550 0.930 . S
H541 C551 0.930 . S
C542 H536 0.930 . S
C542 C543 1.355 . S
C542 C544 1.415 . S
C543 C542 1.355 . S
C543 C545 1.419 . S
C544 C542 1.415 . S
C544 C549 1.425 . S
C544 C551 1.409 . S
C545 H537 0.930 . S
C545 C543 1.419 . S
C545 C546 1.362 . S
C546 H538 0.930 . S
C546 C545 1.362 . S
C546 C549 1.409 . S
C547 H539 0.930 . S
C547 C548 1.355 . S
C547 C549 1.415 . S
C548 C547 1.355 . S
C548 C550 1.419 . S
C549 C544 1.425 . S
C549 C546 1.409 . S
C549 C547 1.415 . S
C550 H540 0.930 . S
C550 C548 1.419 . S
C550 C551 1.362 . S
C551 H541 0.930 . S
C551 C544 1.409 . S
C551 C550 1.362 . S
H552 C558 0.930 . S
H553 C561 0.930 . S
H554 C562 0.930 . S
H555 C563 0.930 . S
H556 C566 0.930 . S
H557 C567 0.930 . S
C558 H552 0.930 . S
C558 C559 1.355 . S
C558 C560 1.415 . S
C559 C558 1.355 . S
C559 C561 1.419 . S
C560 C558 1.415 . S
C560 C565 1.425 . S
C560 C567 1.409 . S
C561 H553 0.930 . S
C561 C559 1.419 . S
C561 C562 1.362 . S
C562 H554 0.930 . S
C562 C561 1.362 . S
C562 C565 1.409 . S
C563 H555 0.930 . S
C563 C564 1.355 . S
C563 C565 1.415 . S
C564 C563 1.355 . S
C564 C566 1.419 . S
C565 C560 1.425 . S
C565 C562 1.409 . S
C565 C563 1.415 . S
C566 H556 0.930 . S
C566 C564 1.419 . S
C566 C567 1.362 . S
C567 H557 0.930 . S
C567 C560 1.409 . S
C567 C566 1.362 . S
H568 C574 0.930 . S
H569 C577 0.930 . S
H570 C578 0.930 . S
H571 C579 0.930 . S
H572 C582 0.930 . S
H573 C583 0.930 . S
C574 H568 0.930 . S
C574 C575 1.355 . S
C574 C576 1.415 . S
C575 C574 1.355 . S
C575 C577 1.419 . S
C576 C574 1.415 . S
C576 C581 1.425 . S
C576 C583 1.409 . S
C577 H569 0.930 . S
C577 C575 1.419 . S
C577 C578 1.362 . S
C578 H570 0.930 . S
C578 C577 1.362 . S
C578 C581 1.409 . S
C579 H571 0.930 . S
C579 C580 1.355 . S
C579 C581 1.415 . S
C580 C579 1.355 . S
C580 C582 1.419 . S
C581 C576 1.425 . S
C581 C578 1.409 . S
C581 C579 1.415 . S
C582 H572 0.930 . S
C582 C580 1.419 . S
C582 C583 1.362 . S
C583 H573 0.930 . S
C583 C576 1.409 . S
C583 C582 1.362 . S
H584 C590 0.930 . S
H585 C593 0.930 . S
H586 C594 0.930 . S
H587 C595 0.930 . S
H588 C598 0.930 . S
H589 C599 0.930 . S
C590 H584 0.930 . S
C590 C591 1.355 . S
C590 C592 1.415 . S
C591 C590 1.355 . S
C591 C593 1.419 . S
C592 C590 1.415 . S
C592 C597 1.425 . S
C592 C599 1.409 . S
C593 H585 0.930 . S
C593 C591 1.419 . S
C593 C594 1.362 . S
C594 H586 0.930 . S
C594 C593 1.362 . S
C594 C597 1.409 . S
C595 H587 0.930 . S
C595 C596 1.355 . S
C595 C597 1.415 . S
C596 C595 1.355 . S
C596 C598 1.419 . S
C597 C592 1.425 . S
C597 C594 1.409 . S
C597 C595 1.415 . S
C598 H588 0.930 . S
C598 C596 1.419 . S
C598 C599 1.362 . S
C599 H589 0.930 . S
C599 C592 1.409 . S
C599 C598 1.362 . S
H600 C606 0.930 . S
H601 C609 0.930 . S
H602 C610 0.930 . S
H603 C611 0.930 . S
H604 C614 0.930 . S
H605 C615 0.930 . S
C606 H600 0.930 . S
C606 C607 1.355 . S
C606 C608 1.415 . S
C607 C606 1.355 . S
C607 C609 1.419 . S
C608 C606 1.415 . S
C608 C613 1.425 . S
C608 C615 1.409 . S
C609 H601 0.930 . S
C609 C607 1.419 . S
C609 C610 1.362 . S
C610 H602 0.930 . S
C610 C609 1.362 . S
C610 C613 1.409 . S
C611 H603 0.930 . S
C611 C612 1.355 . S
C611 C613 1.415 . S
C612 C611 1.355 . S
C612 C614 1.419 . S
C613 C608 1.425 . S
C613 C610 1.409 . S
C613 C611 1.415 . S
C614 H604 0.930 . S
C614 C612 1.419 . S
C614 C615 1.362 . S
C615 H605 0.930 . S
C615 C608 1.409 . S
C615 C614 1.362 . S
H616 C622 0.930 . S
H617 C625 0.930 . S
H618 C626 0.930 . S
H619 C627 0.930 . S
H620 C630 0.930 . S
H621 C631 0.930 . S
C622 H616 0.930 . S
C622 C623 1.355 . S
C622 C624 1.415 . S
C623 C622 1.355 . S
C623 C625 1.419 . S
C624 C622 1.415 . S
C624 C629 1.425 . S
C624 C631 1.409 . S
C625 H617 0.930 . S
C625 C623 1.419 . S
C625 C626 1.362 . S
C626 H618 0.930 . S
C626 C625 1.362 . S
C626 C629 1.409 . S
C627 H619 0.930 . S
C627 C628 1.355 . S
C627 C629 1.415 . S
C628 C627 1.355 . S
C628 C630 1.419 . S
C629 C624 1.425 . S
C629 C626 1.409 . S
C629 C627 1.415 . S
C630 H620 0.930 . S
C630 C628 1.419 . S
C630 C631 1.362 . S
C631 H621 0.930 . S
C631 C624 1.409 . S
C631 C630 1.362 . S
C255 C5 0.871 . S
C260 C105 1.173 . S
C271 C18 1.079 . S
C276 C145 1.118 . S
C292 C170 2.273 . S
C287 C30 2.308 . S
C303 C41 2.207 . S
C308 C210 2.147 . S
C324 C141 1.750 . S
C319 C7 1.625 . S
C340 C101 1.812 . S
C335 C16 1.755 . S
C356 C232 1.777 . S
C351 C29 1.738 . S
C372 C192 1.324 . S
C367 C38 1.123 . S
C383 C8 1.326 . S
C388 C234 1.385 . S
C404 C151 2.363 1_556 S
C399 C27 2.163 . S
C415 C40 2.299 . S
C420 C111 2.262 . S
C431 C19 1.288 . S
C436 C194 1.273 . S
C452 C114 1.208 . S
C447 C51 1.074 . S
C463 C62 1.458 . S
C468 C154 1.448 . S
C479 C74 2.435 . S
C484 C191 2.422 . S
C495 C84 2.198 . S
C500 C231 2.260 . S
C511 C49 1.461 . S
C516 C152 2.048 1_556 S
C532 C112 1.851 . S
C527 C63 1.805 . S
C548 C221 1.614 . S
C543 C71 1.372 . S
C564 C181 1.522 . S
C559 C85 1.567 . S
C575 C52 1.331 . S
C580 C225 1.432 . S
C596 C130 2.475 . S
C591 C73 2.501 . S
C612 C90 1.895 . S
C607 C82 1.736 . S
C623 C60 1.358 . S
C628 C185 1.396 . S
