# Generated by pormake.
# Topology cml, (3,6)-cn, num edge types: 1
# Building blocks:
#     Node 0, Type 0, BuildingBlock: WUSLED_clean_sbu_0, # of connection points: 3
#     Node 1, Type 0, BuildingBlock: WUSLED_clean_sbu_0, # of connection points: 3
#     Node 2, Type 0, BuildingBlock: WUSLED_clean_sbu_0, # of connection points: 3
#     Node 3, Type 0, BuildingBlock: WUSLED_clean_sbu_0, # of connection points: 3
#     Node 4, Type 0, BuildingBlock: WUSLED_clean_sbu_0, # of connection points: 3
#     Node 5, Type 0, BuildingBlock: WUSLED_clean_sbu_0, # of connection points: 3
#     Node 6, Type 0, BuildingBlock: WUSLED_clean_sbu_0, # of connection points: 3
#     Node 7, Type 0, BuildingBlock: WUSLED_clean_sbu_0, # of connection points: 3
#     Node 8, Type 1, BuildingBlock: OJICUG_clean_sbu_0, # of connection points: 6
#     Node 9, Type 1, BuildingBlock: OJICUG_clean_sbu_0, # of connection points: 6
#     Node 10, Type 1, BuildingBlock: OJICUG_clean_sbu_0, # of connection points: 6
#     Node 11, Type 1, BuildingBlock: OJICUG_clean_sbu_0, # of connection points: 6
#     Edge 12, Type (0, 1), BuildingBlock: CIFDUS_clean_linker_0, # of connection points: 2
#     Edge 13, Type (0, 1), BuildingBlock: CIFDUS_clean_linker_0, # of connection points: 2
#     Edge 14, Type (0, 1), BuildingBlock: CIFDUS_clean_linker_0, # of connection points: 2
#     Edge 15, Type (0, 1), BuildingBlock: CIFDUS_clean_linker_0, # of connection points: 2
#     Edge 16, Type (0, 1), BuildingBlock: CIFDUS_clean_linker_0, # of connection points: 2
#     Edge 17, Type (0, 1), BuildingBlock: CIFDUS_clean_linker_0, # of connection points: 2
#     Edge 18, Type (0, 1), BuildingBlock: CIFDUS_clean_linker_0, # of connection points: 2
#     Edge 19, Type (0, 1), BuildingBlock: CIFDUS_clean_linker_0, # of connection points: 2
#     Edge 20, Type (0, 1), BuildingBlock: CIFDUS_clean_linker_0, # of connection points: 2
#     Edge 21, Type (0, 1), BuildingBlock: CIFDUS_clean_linker_0, # of connection points: 2
#     Edge 22, Type (0, 1), BuildingBlock: CIFDUS_clean_linker_0, # of connection points: 2
#     Edge 23, Type (0, 1), BuildingBlock: CIFDUS_clean_linker_0, # of connection points: 2
#     Edge 24, Type (0, 1), BuildingBlock: CIFDUS_clean_linker_0, # of connection points: 2
#     Edge 25, Type (0, 1), BuildingBlock: CIFDUS_clean_linker_0, # of connection points: 2
#     Edge 26, Type (0, 1), BuildingBlock: CIFDUS_clean_linker_0, # of connection points: 2
#     Edge 27, Type (0, 1), BuildingBlock: CIFDUS_clean_linker_0, # of connection points: 2
#     Edge 28, Type (0, 1), BuildingBlock: CIFDUS_clean_linker_0, # of connection points: 2
#     Edge 29, Type (0, 1), BuildingBlock: CIFDUS_clean_linker_0, # of connection points: 2
#     Edge 30, Type (0, 1), BuildingBlock: CIFDUS_clean_linker_0, # of connection points: 2
#     Edge 31, Type (0, 1), BuildingBlock: CIFDUS_clean_linker_0, # of connection points: 2
#     Edge 32, Type (0, 1), BuildingBlock: CIFDUS_clean_linker_0, # of connection points: 2
#     Edge 33, Type (0, 1), BuildingBlock: CIFDUS_clean_linker_0, # of connection points: 2
#     Edge 34, Type (0, 1), BuildingBlock: CIFDUS_clean_linker_0, # of connection points: 2
#     Edge 35, Type (0, 1), BuildingBlock: CIFDUS_clean_linker_0, # of connection points: 2
# Relax obj value: 0.068
# Max RMSD: 0.082
# Mean RMSD: 0.077
data_MOF--net-cml--node1-WUSLED_clean_sbu_0--node2-OJICUG_clean_sbu_0--edge1-CIFDUS_clean_linker_0
_symmetry_space_group_name_H-M    P1
_symmetry_Int_Tables_number       1
_symmetry_cell_setting            triclinic
loop_
_symmetry_equiv_pos_as_xyz
'x, y, z'
_cell_length_a     45.262884
_cell_length_b     46.021867
_cell_length_c     43.480773
_cell_angle_alpha  90.212544
_cell_angle_beta   89.840473
_cell_angle_gamma 90.013158
loop_
_atom_site_label
_atom_site_type_symbol
_atom_site_fract_x
_atom_site_fract_y
_atom_site_fract_z
_atom_type_partial_charge
C0 C 0.30824 0.43366 0.93404 0.0
C1 C 0.32948 0.44704 0.95278 0.0
C2 C 0.34377 0.479 0.91074 0.0
C3 C 0.34706 0.46948 0.94127 0.0
C4 C 0.32216 0.4657 0.89215 0.0
C5 C 0.30455 0.4432 0.90374 0.0
U6 U 0.29236 0.38216 0.99889 0.0
O7 O 0.25109 0.36478 0.01819 0.0
O8 O 0.28454 0.3349 0.99952 0.0
C9 C 0.2577 0.33782 0.01073 0.0
C10 C 0.29079 0.40918 0.94592 0.0
C11 C 0.23441 0.32083 0.9952 0.0
C12 C 0.18986 0.31754 0.96419 0.0
C13 C 0.2125 0.33417 0.97732 0.0
C14 C 0.21119 0.27399 0.98597 0.0
C15 C 0.18878 0.28723 0.96857 0.0
C16 C 0.23368 0.29064 0.99919 0.0
C17 C 0.34037 0.39379 0.07185 0.0
C18 C 0.37314 0.36791 0.10666 0.0
C19 C 0.34486 0.409 0.12533 0.0
C20 C 0.33233 0.41233 0.09622 0.0
C21 C 0.36596 0.3872 0.13071 0.0
C22 C 0.36055 0.37121 0.07753 0.0
C23 C 0.33034 0.40039 0.04023 0.0
O24 O 0.30594 0.38522 0.95041 0.0
O25 O 0.27301 0.41556 0.96894 0.0
O26 O 0.30361 0.41125 0.0374 0.0
O27 O 0.33703 0.38152 0.01853 0.0
H28 H 0.33275 0.4398 0.97621 0.0
H29 H 0.36377 0.47886 0.95607 0.0
H30 H 0.31885 0.47269 0.86866 0.0
H31 H 0.28825 0.43309 0.88896 0.0
H32 H 0.17285 0.32852 0.9512 0.0
H33 H 0.21262 0.35746 0.97382 0.0
H34 H 0.21142 0.25069 0.98935 0.0
H35 H 0.25045 0.27991 0.01279 0.0
H36 H 0.38957 0.3511 0.10989 0.0
H37 H 0.33856 0.42399 0.14345 0.0
H38 H 0.31705 0.4301 0.09253 0.0
H39 H 0.36753 0.3567 0.05924 0.0
C40 C 0.70676 0.67571 0.59392 0.0
C41 C 0.70924 0.65509 0.61758 0.0
C42 C 0.67075 0.67964 0.64722 0.0
C43 C 0.69151 0.65707 0.6439 0.0
C44 C 0.66868 0.70055 0.62377 0.0
C45 C 0.68656 0.69865 0.59751 0.0
U46 U 0.72646 0.63639 0.51934 0.0
O47 O 0.7368 0.6529 0.47315 0.0
O48 O 0.7696 0.6269 0.49794 0.0
C49 C 0.76411 0.64316 0.47384 0.0
C50 C 0.72466 0.67341 0.56536 0.0
C51 C 0.78745 0.66418 0.46559 0.0
C52 C 0.80809 0.71302 0.4662 0.0
C53 C 0.78582 0.69345 0.47468 0.0
C54 C 0.83415 0.67421 0.43995 0.0
C55 C 0.83254 0.70369 0.44863 0.0
C56 C 0.81181 0.65473 0.4483 0.0
C57 C 0.67997 0.56652 0.50383 0.0
C58 C 0.67451 0.53882 0.4564 0.0
C59 C 0.65208 0.52145 0.50352 0.0
C60 C 0.66335 0.54546 0.51929 0.0
C61 C 0.65726 0.51787 0.4718 0.0
C62 C 0.68579 0.56299 0.47231 0.0
C63 C 0.68934 0.59247 0.5211 0.0
O64 O 0.74353 0.65172 0.56382 0.0
O65 O 0.71025 0.67743 0.5395 0.0
O66 O 0.6829 0.61776 0.50886 0.0
O67 O 0.71575 0.59166 0.53355 0.0
H68 H 0.72471 0.63721 0.61576 0.0
H69 H 0.69414 0.64089 0.66169 0.0
H70 H 0.65276 0.71804 0.62532 0.0
H71 H 0.68426 0.71493 0.57974 0.0
H72 H 0.8059 0.73557 0.47305 0.0
H73 H 0.76726 0.70122 0.48818 0.0
H74 H 0.85285 0.66606 0.42695 0.0
H75 H 0.81359 0.63218 0.44126 0.0
H76 H 0.67918 0.53663 0.43207 0.0
H77 H 0.63847 0.50619 0.51609 0.0
H78 H 0.65847 0.54793 0.54358 0.0
H79 H 0.69862 0.57906 0.45997 0.0
C80 C 0.69811 0.4251 0.93021 0.0
C81 C 0.67517 0.4355 0.94902 0.0
C82 C 0.66109 0.47031 0.90959 0.0
C83 C 0.65683 0.45791 0.93881 0.0
C84 C 0.68433 0.45992 0.89097 0.0
C85 C 0.70267 0.4375 0.90123 0.0
U86 U 0.7173 0.36948 0.99071 0.0
O87 O 0.72973 0.32334 0.9865 0.0
O88 O 0.76008 0.35439 0.0083 0.0
C89 C 0.75627 0.32782 0.99777 0.0
C90 C 0.7169 0.40102 0.94057 0.0
C91 C 0.78092 0.31551 0.97973 0.0
C92 C 0.82132 0.32053 0.94308 0.0
C93 C 0.79752 0.33263 0.95933 0.0
C94 C 0.81171 0.27396 0.96684 0.0
C95 C 0.82885 0.29105 0.94678 0.0
C96 C 0.78807 0.2861 0.98317 0.0
C97 C 0.66817 0.37124 0.06408 0.0
C98 C 0.65617 0.33354 0.10122 0.0
C99 C 0.64633 0.38403 0.11334 0.0
C100 C 0.65773 0.39221 0.08482 0.0
C101 C 0.64511 0.35458 0.12184 0.0
C102 C 0.66769 0.3418 0.07257 0.0
C103 C 0.6777 0.38086 0.03333 0.0
O104 O 0.73377 0.40689 0.96436 0.0
O105 O 0.70349 0.37578 0.94274 0.0
O106 O 0.67299 0.36289 0.01028 0.0
O107 O 0.7034 0.39409 0.03183 0.0
H108 H 0.67128 0.42607 0.97147 0.0
H109 H 0.63892 0.4651 0.95356 0.0
H110 H 0.68844 0.46921 0.86852 0.0
H111 H 0.72034 0.42974 0.88646 0.0
H112 H 0.83414 0.33442 0.92805 0.0
H113 H 0.79227 0.35539 0.95619 0.0
H114 H 0.81642 0.25107 0.96983 0.0
H115 H 0.77537 0.27248 0.99861 0.0
H116 H 0.65575 0.31071 0.10715 0.0
H117 H 0.63752 0.4008 0.12831 0.0
H118 H 0.65773 0.41501 0.07863 0.0
H119 H 0.67573 0.32522 0.05691 0.0
C120 C 0.33397 0.63377 0.58188 0.0
C121 C 0.36096 0.64864 0.58479 0.0
C122 C 0.35807 0.64545 0.6406 0.0
C123 C 0.37281 0.65455 0.61382 0.0
C124 C 0.33028 0.63206 0.63774 0.0
C125 C 0.31837 0.62623 0.60871 0.0
U126 U 0.28746 0.62974 0.50615 0.0
O127 O 0.24352 0.64583 0.5201 0.0
O128 O 0.27513 0.67516 0.49758 0.0
C129 C 0.24803 0.67156 0.50792 0.0
C130 C 0.32504 0.62228 0.5514 0.0
C131 C 0.22403 0.68304 0.48851 0.0
C132 C 0.17641 0.70718 0.48534 0.0
C133 C 0.19876 0.6944 0.50279 0.0
C134 C 0.20393 0.69685 0.43874 0.0
C135 C 0.1789 0.70904 0.45312 0.0
C136 C 0.22631 0.68394 0.45627 0.0
C137 C 0.31058 0.56894 0.4533 0.0
C138 C 0.3235 0.52632 0.4231 0.0
C139 C 0.35482 0.54133 0.46538 0.0
C140 C 0.33571 0.56451 0.47154 0.0
C141 C 0.3491 0.52206 0.44091 0.0
C142 C 0.30445 0.54959 0.42924 0.0
C143 C 0.29078 0.59361 0.45953 0.0
O144 O 0.33082 0.63843 0.52722 0.0
O145 O 0.2995 0.60876 0.54964 0.0
O146 O 0.2725 0.58992 0.48272 0.0
O147 O 0.30362 0.61924 0.45969 0.0
H148 H 0.37372 0.65435 0.56458 0.0
H149 H 0.3944 0.66461 0.61517 0.0
H150 H 0.31823 0.62508 0.65797 0.0
H151 H 0.29761 0.6146 0.60739 0.0
H152 H 0.15719 0.71575 0.49716 0.0
H153 H 0.19647 0.69377 0.5276 0.0
H154 H 0.20665 0.69802 0.41402 0.0
H155 H 0.24559 0.67518 0.4447 0.0
H156 H 0.31817 0.51165 0.40439 0.0
H157 H 0.37446 0.53897 0.47932 0.0
H158 H 0.34071 0.5792 0.49036 0.0
H159 H 0.285 0.55254 0.41513 0.0
C160 C 0.81699 0.94109 0.94128 0.0
C161 C 0.83438 0.93918 0.91459 0.0
C162 C 0.85685 0.98622 0.92592 0.0
C163 C 0.85416 0.96144 0.90702 0.0
C164 C 0.83895 0.98829 0.95235 0.0
C165 C 0.81939 0.96595 0.96003 0.0
U166 U 0.7933 0.88608 1.00067 0.0
O167 O 0.74933 0.87129 0.01576 0.0
O168 O 0.7814 0.83985 0.99735 0.0
C169 C 0.75413 0.8444 0.00678 0.0
C170 C 0.79768 0.91651 0.95007 0.0
C171 C 0.73052 0.83104 0.98821 0.0
C172 C 0.70918 0.81699 0.93901 0.0
C173 C 0.73163 0.83062 0.95592 0.0
C174 C 0.68403 0.80475 0.98647 0.0
C175 C 0.68523 0.80361 0.95413 0.0
C176 C 0.70647 0.81825 1.00328 0.0
C177 C 0.83745 0.89243 0.07737 0.0
C178 C 0.84868 0.85761 0.11771 0.0
C179 C 0.85681 0.90901 0.12637 0.0
C180 C 0.84645 0.91498 0.0969 0.0
C181 C 0.85834 0.88025 0.13713 0.0
C182 C 0.83827 0.86365 0.08803 0.0
C183 C 0.82947 0.89986 0.04554 0.0
O184 O 0.81119 0.89148 0.95382 0.0
O185 O 0.77792 0.92192 0.97157 0.0
O186 O 0.80373 0.9125 0.04159 0.0
O187 O 0.83596 0.88076 0.02401 0.0
H188 H 0.83307 0.92017 0.89988 0.0
H189 H 0.86785 0.95886 0.88674 0.0
H190 H 0.84004 0.00721 0.96719 0.0
H191 H 0.8064 0.96808 0.98088 0.0
H192 H 0.7109 0.81639 0.91418 0.0
H193 H 0.74996 0.84055 0.94381 0.0
H194 H 0.66566 0.79525 0.99888 0.0
H195 H 0.70508 0.81858 0.02817 0.0
H196 H 0.84935 0.83525 0.12535 0.0
H197 H 0.86458 0.92697 0.14032 0.0
H198 H 0.84624 0.93729 0.08901 0.0
H199 H 0.83141 0.84588 0.0733 0.0
C200 C 0.21303 0.17422 0.58447 0.0
C201 C 0.19016 0.19443 0.58928 0.0
C202 C 0.17632 0.17063 0.63721 0.0
C203 C 0.17196 0.19262 0.6153 0.0
C204 C 0.20016 0.15136 0.63316 0.0
C205 C 0.21827 0.15311 0.60714 0.0
U206 U 0.22756 0.13959 0.50703 0.0
O207 O 0.23455 0.15816 0.46088 0.0
O208 O 0.2682 0.1298 0.48126 0.0
C209 C 0.2612 0.14703 0.45834 0.0
C210 C 0.22982 0.17412 0.55505 0.0
C211 C 0.28459 0.16681 0.44728 0.0
C212 C 0.3292 0.19539 0.45541 0.0
C213 C 0.30612 0.17832 0.4671 0.0
C214 C 0.30905 0.19031 0.40415 0.0
C215 C 0.33116 0.20132 0.42369 0.0
C216 C 0.2861 0.17322 0.41583 0.0
C217 C 0.1777 0.07176 0.49145 0.0
C218 C 0.16815 0.01973 0.48848 0.0
C219 C 0.144 0.0523 0.45295 0.0
C220 C 0.15859 0.07593 0.4664 0.0
C221 C 0.14809 0.02398 0.46427 0.0
C222 C 0.18267 0.04336 0.50198 0.0
C223 C 0.18933 0.09666 0.50941 0.0
O224 O 0.24827 0.15237 0.55077 0.0
O225 O 0.21429 0.18012 0.53035 0.0
O226 O 0.18264 0.12291 0.49982 0.0
O227 O 0.21651 0.09455 0.51976 0.0
H228 H 0.1857 0.21109 0.57238 0.0
H229 H 0.15374 0.20773 0.61759 0.0
H230 H 0.20456 0.13456 0.6499 0.0
H231 H 0.23588 0.13738 0.60449 0.0
H232 H 0.34592 0.20329 0.47112 0.0
H233 H 0.3054 0.17371 0.49151 0.0
H234 H 0.30947 0.19486 0.37974 0.0
H235 H 0.26967 0.16464 0.40015 0.0
H236 H 0.17216 0.99818 0.49748 0.0
H237 H 0.12846 0.05646 0.43459 0.0
H238 H 0.15397 0.09753 0.45788 0.0
H239 H 0.19703 0.03949 0.52143 0.0
C240 C 0.20812 0.93782 0.94156 0.0
C241 C 0.18885 0.93566 0.91639 0.0
C242 C 0.17292 0.98583 0.92387 0.0
C243 C 0.17138 0.95932 0.9077 0.0
C244 C 0.19293 0.98823 0.94847 0.0
C245 C 0.21026 0.96453 0.95726 0.0
U246 U 0.22258 0.87951 1.00125 0.0
O247 O 0.2311 0.83253 0.99663 0.0
O248 O 0.26362 0.86078 0.01934 0.0
C249 C 0.25753 0.8346 0.00889 0.0
C250 C 0.2249 0.91189 0.95178 0.0
C251 C 0.28158 0.81915 0.9927 0.0
C252 C 0.32759 0.81861 0.96348 0.0
C253 C 0.30377 0.83395 0.97636 0.0
C254 C 0.30675 0.77354 0.98221 0.0
C255 C 0.32962 0.78824 0.96674 0.0
C256 C 0.28308 0.78884 0.99508 0.0
C257 C 0.1727 0.88387 0.0737 0.0
C258 C 0.16538 0.84682 0.11278 0.0
C259 C 0.14448 0.89486 0.11981 0.0
C260 C 0.15641 0.90346 0.09166 0.0
C261 C 0.14865 0.8664 0.13073 0.0
C262 C 0.17738 0.85552 0.08448 0.0
C263 C 0.18339 0.89352 0.04344 0.0
O264 O 0.24264 0.91552 0.97541 0.0
O265 O 0.20969 0.88758 0.95321 0.0
O266 O 0.17759 0.8763 0.02004 0.0
O267 O 0.21017 0.90452 0.04262 0.0
H268 H 0.18681 0.9154 0.9038 0.0
H269 H 0.15602 0.95653 0.88887 0.0
H270 H 0.19513 0.00844 0.9611 0.0
H271 H 0.22501 0.96712 0.97664 0.0
H272 H 0.34486 0.83063 0.95184 0.0
H273 H 0.30304 0.85737 0.97411 0.0
H274 H 0.30725 0.75013 0.98462 0.0
H275 H 0.26614 0.77698 0.00746 0.0
H276 H 0.16916 0.82482 0.1206 0.0
H277 H 0.13125 0.91036 0.13261 0.0
H278 H 0.15243 0.92537 0.08362 0.0
H279 H 0.18997 0.84009 0.07088 0.0
C280 C 0.80587 0.16605 0.59272 0.0
C281 C 0.82426 0.18948 0.60051 0.0
C282 C 0.84546 0.16172 0.64271 0.0
C283 C 0.84391 0.18734 0.6252 0.0
C284 C 0.82621 0.13869 0.6355 0.0
C285 C 0.80678 0.14074 0.61071 0.0
U286 U 0.78416 0.13265 0.51683 0.0
O287 O 0.74139 0.12684 0.49386 0.0
O288 O 0.77643 0.15208 0.47128 0.0
C289 C 0.74854 0.14407 0.47094 0.0
C290 C 0.78774 0.16739 0.56452 0.0
C291 C 0.72702 0.16705 0.46347 0.0
C292 C 0.68823 0.20101 0.47837 0.0
C293 C 0.70946 0.18021 0.4863 0.0
C294 C 0.70257 0.19648 0.42487 0.0
C295 C 0.68426 0.20916 0.44747 0.0
C296 C 0.72362 0.1756 0.4328 0.0
C297 C 0.82683 0.06054 0.49986 0.0
C298 C 0.83235 0.03369 0.4519 0.0
C299 C 0.85296 0.01453 0.49902 0.0
C300 C 0.84221 0.03856 0.51514 0.0
C301 C 0.84846 0.01183 0.46713 0.0
C302 C 0.82161 0.05791 0.46817 0.0
C303 C 0.81828 0.08649 0.51758 0.0
O304 O 0.80271 0.17169 0.53899 0.0
O305 O 0.76712 0.14742 0.56165 0.0
O306 O 0.79146 0.08682 0.52921 0.0
O307 O 0.82666 0.11169 0.50643 0.0
H308 H 0.82409 0.20914 0.58687 0.0
H309 H 0.85862 0.20539 0.62983 0.0
H310 H 0.8264 0.11884 0.6488 0.0
H311 H 0.79297 0.12221 0.60528 0.0
H312 H 0.67443 0.21013 0.49635 0.0
H313 H 0.71183 0.17411 0.51021 0.0
H314 H 0.70062 0.20263 0.40095 0.0
H315 H 0.73712 0.16591 0.41488 0.0
H316 H 0.82825 0.0322 0.42743 0.0
H317 H 0.86575 0.99857 0.51148 0.0
H318 H 0.84662 0.04035 0.53957 0.0
H319 H 0.80974 0.07473 0.45599 0.0
Sc320 Sc 1.00999 0.81612 0.32269 0.0
Sc321 Sc 1.00234 0.89243 0.31985 0.0
Sc322 Sc 1.0003 0.85715 0.3912 0.0
O323 O 1.0042 0.85517 0.34457 0.0
C324 C 0.96196 0.80073 0.37473 0.0
C325 C 0.96453 0.84911 0.27832 0.0
C326 C 0.95446 0.90649 0.37209 0.0
C327 C 0.05219 0.85676 0.28303 0.0
C328 C 0.05029 0.80837 0.38256 0.0
C329 C 0.04232 0.91162 0.3766 0.0
O330 O 0.97513 0.79604 0.34926 0.0
O331 O 0.97046 0.87434 0.28864 0.0
O332 O 0.9637 0.88721 0.39058 0.0
O333 O 0.04513 0.83178 0.29311 0.0
O334 O 0.03649 0.8277 0.39781 0.0
O335 O 0.03407 0.9138 0.34878 0.0
O336 O 0.04345 0.80158 0.35504 0.0
O337 O 0.03844 0.87978 0.29056 0.0
O338 O 0.03182 0.8926 0.39489 0.0
O339 O 0.97749 0.82619 0.28764 0.0
O340 O 0.96854 0.82195 0.39233 0.0
O341 O 0.96631 0.91074 0.34598 0.0
Sc342 Sc 0.01138 0.20211 0.82168 0.0
Sc343 Sc 0.01452 0.1269 0.80639 0.0
Sc344 Sc 0.01616 0.15212 0.88302 0.0
O345 O 0.01405 0.16039 0.83704 0.0
C346 C 0.05813 0.20778 0.87656 0.0
C347 C 0.05598 0.17321 0.77288 0.0
C348 C 0.06047 0.10399 0.85669 0.0
C349 C 0.96754 0.16988 0.7755 0.0
C350 C 0.96938 0.20435 0.88097 0.0
C351 C 0.97222 0.10234 0.85922 0.0
O352 O 0.04614 0.21656 0.85185 0.0
O353 O 0.04757 0.14731 0.77809 0.0
O354 O 0.05088 0.12034 0.87813 0.0
O355 O 0.97639 0.19243 0.78971 0.0
O356 O 0.98151 0.18261 0.89373 0.0
O357 O 0.98138 0.10322 0.83155 0.0
O358 O 0.97755 0.21387 0.85484 0.0
O359 O 0.97941 0.14508 0.77907 0.0
O360 O 0.98274 0.11847 0.88041 0.0
O361 O 0.04478 0.19514 0.78657 0.0
O362 O 0.04982 0.18484 0.89044 0.0
O363 O 0.04965 0.10419 0.82973 0.0
Sc364 Sc 0.50858 0.31795 0.31952 0.0
Sc365 Sc 0.5129 0.39412 0.31749 0.0
Sc366 Sc 0.51127 0.35849 0.38895 0.0
O367 O 0.51096 0.3568 0.34206 0.0
C368 C 0.46459 0.30746 0.3764 0.0
C369 C 0.46782 0.3563 0.2767 0.0
C370 C 0.46751 0.41071 0.37069 0.0
C371 C 0.55573 0.35342 0.27885 0.0
C372 C 0.55327 0.30391 0.37449 0.0
C373 C 0.55573 0.4102 0.37368 0.0
O374 O 0.47419 0.30143 0.34956 0.0
O375 O 0.4806 0.37984 0.28429 0.0
O376 O 0.478 0.39285 0.39026 0.0
O377 O 0.54259 0.32996 0.28636 0.0
O378 O 0.54444 0.32432 0.39223 0.0
O379 O 0.54518 0.41432 0.34701 0.0
O380 O 0.5424 0.29955 0.34793 0.0
O381 O 0.54849 0.37816 0.28957 0.0
O382 O 0.54664 0.38999 0.39116 0.0
O383 O 0.47445 0.332 0.28859 0.0
O384 O 0.47576 0.32748 0.39292 0.0
O385 O 0.47748 0.41289 0.34344 0.0
Sc386 Sc 0.51256 0.69767 0.82799 0.0
Sc387 Sc 0.50642 0.62127 0.82146 0.0
Sc388 Sc 0.5064 0.65405 0.8945 0.0
O389 O 0.50848 0.6577 0.84794 0.0
C390 C 0.55508 0.70397 0.88644 0.0
C391 C 0.55454 0.65927 0.78497 0.0
C392 C 0.54799 0.60032 0.87626 0.0
C393 C 0.46683 0.66543 0.78302 0.0
C394 C 0.46623 0.71015 0.88235 0.0
C395 C 0.45988 0.60549 0.8744 0.0
O396 O 0.54662 0.71188 0.85983 0.0
O397 O 0.54156 0.6356 0.79164 0.0
O398 O 0.53808 0.61891 0.89544 0.0
O399 O 0.4793 0.6882 0.79356 0.0
O400 O 0.47449 0.68866 0.89853 0.0
O401 O 0.4709 0.60209 0.8477 0.0
O402 O 0.47789 0.71615 0.85644 0.0
O403 O 0.47372 0.63995 0.79168 0.0
O404 O 0.46999 0.62388 0.89355 0.0
O405 O 0.54723 0.68355 0.7969 0.0
O406 O 0.54262 0.68353 0.90116 0.0
O407 O 0.539 0.59884 0.8486 0.0
H408 H 0.16238 0.29286 0.91246 0.0
H409 H 0.15968 0.24169 0.99543 0.0
H410 H 0.11979 0.21227 0.97416 0.0
H411 H 0.08516 0.20133 0.93229 0.0
H412 H 0.08688 0.25361 0.84999 0.0
H413 H 0.12724 0.28247 0.87098 0.0
C414 C 0.1529 0.27547 0.92605 0.0
C415 C 0.16421 0.26952 0.95549 0.0
C416 C 0.12965 0.2588 0.91385 0.0
C417 C 0.15184 0.24654 0.97251 0.0
C418 C 0.12884 0.22978 0.96045 0.0
C419 C 0.09436 0.21899 0.91888 0.0
C420 C 0.08285 0.22517 0.88956 0.0
C421 C 0.11756 0.2357 0.93113 0.0
C422 C 0.09511 0.24829 0.87265 0.0
C423 C 0.11828 0.26485 0.88462 0.0
H424 H 0.8622 0.70607 0.39388 0.0
H425 H 0.8564 0.74835 0.48248 0.0
H426 H 0.89518 0.78234 0.46734 0.0
H427 H 0.93141 0.79965 0.42924 0.0
H428 H 0.938 0.75613 0.34128 0.0
H429 H 0.89869 0.72287 0.35619 0.0
C430 C 0.86959 0.72248 0.41007 0.0
C431 C 0.85626 0.72451 0.43933 0.0
C432 C 0.8922 0.74177 0.40138 0.0
C433 C 0.86586 0.74641 0.45966 0.0
C434 C 0.88823 0.76578 0.4511 0.0
C435 C 0.92428 0.78293 0.41328 0.0
C436 C 0.93785 0.78054 0.38413 0.0
C437 C 0.90162 0.76365 0.42202 0.0
C438 C 0.92818 0.75859 0.36388 0.0
C439 C 0.9056 0.73949 0.37236 0.0
H440 H 0.86892 0.2522 0.9687 0.0
H441 H 0.84693 0.30099 0.88734 0.0
H442 H 0.8889 0.27941 0.86014 0.0
H443 H 0.93122 0.24563 0.85903 0.0
H444 H 0.95159 0.19581 0.94029 0.0
H445 H 0.91064 0.21852 0.96759 0.0
C446 C 0.87304 0.25792 0.9449 0.0
C447 C 0.85461 0.27816 0.93015 0.0
C448 C 0.89694 0.24515 0.92925 0.0
C449 C 0.86085 0.28574 0.89947 0.0
C450 C 0.88477 0.27325 0.8838 0.0
C451 C 0.92679 0.2398 0.88274 0.0
C452 C 0.9446 0.21893 0.89745 0.0
C453 C 0.90293 0.25283 0.89842 0.0
C454 C 0.93832 0.21165 0.9282 0.0
C455 C 0.91487 0.22467 0.94394 0.0
H456 H 0.151 0.75937 0.46807 0.0
H457 H 0.1552 0.69378 0.39708 0.0
H458 H 0.1167 0.71911 0.36818 0.0
H459 H 0.0805 0.75934 0.364 0.0
H460 H 0.07646 0.82374 0.4365 0.0
H461 H 0.11582 0.79918 0.46385 0.0
C462 C 0.14332 0.75036 0.44643 0.0
C463 C 0.15586 0.72452 0.43498 0.0
C464 C 0.12104 0.76483 0.43015 0.0
C465 C 0.1461 0.71371 0.40643 0.0
C466 C 0.12395 0.72812 0.38995 0.0
C467 C 0.08832 0.76806 0.38571 0.0
C468 C 0.07524 0.79336 0.39811 0.0
C469 C 0.11109 0.75365 0.40168 0.0
C470 C 0.08577 0.80425 0.42635 0.0
C471 C 0.1084 0.79023 0.4421 0.0
H472 H 0.65896 0.75236 0.96861 0.0
H473 H 0.65884 0.81968 0.89984 0.0
H474 H 0.61943 0.79445 0.87205 0.0
H475 H 0.58367 0.75387 0.86832 0.0
H476 H 0.58376 0.68771 0.93862 0.0
H477 H 0.62408 0.71216 0.96481 0.0
C478 C 0.65016 0.76174 0.9477 0.0
C479 C 0.66177 0.78804 0.93654 0.0
C480 C 0.62731 0.74735 0.93209 0.0
C481 C 0.65052 0.79938 0.90892 0.0
C482 C 0.62783 0.78503 0.89309 0.0
C483 C 0.59257 0.74474 0.88929 0.0
C484 C 0.58041 0.71898 0.90143 0.0
C485 C 0.61589 0.75906 0.90457 0.0
C486 C 0.59236 0.70756 0.92871 0.0
C487 C 0.61554 0.72151 0.94378 0.0
H488 H 0.3579 0.24948 0.44812 0.0
H489 H 0.36153 0.19123 0.37017 0.0
H490 H 0.40239 0.219 0.34845 0.0
H491 H 0.43752 0.25962 0.35161 0.0
H492 H 0.43466 0.31716 0.43027 0.0
H493 H 0.39352 0.28966 0.45168 0.0
C494 C 0.36778 0.24267 0.42652 0.0
C495 C 0.35641 0.21831 0.41081 0.0
C496 C 0.39155 0.25861 0.41421 0.0
C497 C 0.36937 0.21014 0.3826 0.0
C498 C 0.39293 0.22592 0.3702 0.0
C499 C 0.42792 0.26623 0.37342 0.0
C500 C 0.43935 0.29054 0.38918 0.0
C501 C 0.4042 0.25023 0.38577 0.0
C502 C 0.42651 0.29857 0.41752 0.0
C503 C 0.40289 0.28285 0.42985 0.0
H504 H 0.35958 0.79519 0.9123 0.0
H505 H 0.35908 0.74457 0.9957 0.0
H506 H 0.40106 0.71641 0.97712 0.0
H507 H 0.43752 0.70556 0.93725 0.0
H508 H 0.43907 0.75617 0.85383 0.0
H509 H 0.39745 0.78508 0.87261 0.0
C510 C 0.36883 0.77817 0.92652 0.0
C511 C 0.35588 0.77187 0.95525 0.0
C512 C 0.39323 0.76203 0.91574 0.0
C513 C 0.3681 0.74956 0.97324 0.0
C514 C 0.39229 0.73353 0.96273 0.0
C515 C 0.42889 0.72293 0.9231 0.0
C516 C 0.44153 0.72852 0.89407 0.0
C517 C 0.40491 0.73944 0.93396 0.0
C518 C 0.42991 0.75128 0.87625 0.0
C519 C 0.40602 0.76784 0.88696 0.0
H520 H 0.64841 0.20619 0.39756 0.0
H521 H 0.66642 0.25895 0.47756 0.0
H522 H 0.62722 0.29267 0.4627 0.0
H523 H 0.58805 0.30754 0.42629 0.0
H524 H 0.57199 0.25454 0.34575 0.0
H525 H 0.61046 0.22107 0.36134 0.0
C526 C 0.64412 0.22526 0.4116 0.0
C527 C 0.66056 0.23001 0.43856 0.0
C528 C 0.62183 0.24468 0.40278 0.0
C529 C 0.65401 0.25453 0.45681 0.0
C530 C 0.63167 0.27394 0.44823 0.0
C531 C 0.59294 0.28867 0.41217 0.0
C532 C 0.57698 0.28379 0.38482 0.0
C533 C 0.61542 0.26927 0.42119 0.0
C534 C 0.58381 0.25913 0.36685 0.0
C535 C 0.60586 0.23982 0.37574 0.0
H536 H 0.36213 0.52878 0.93911 0.0
H537 H 0.37018 0.48069 0.85409 0.0
H538 H 0.40514 0.5166 0.83456 0.0
H539 H 0.4357 0.55998 0.84276 0.0
H540 H 0.42878 0.60724 0.92851 0.0
H541 H 0.39132 0.57322 0.94656 0.0
C542 C 0.37159 0.5261 0.91633 0.0
C543 C 0.36358 0.50195 0.89819 0.0
C544 C 0.39203 0.54662 0.90538 0.0
C545 C 0.37566 0.49917 0.86848 0.0
C546 C 0.39585 0.51961 0.85735 0.0
C547 C 0.42588 0.56305 0.86531 0.0
C548 C 0.43532 0.58614 0.88426 0.0
C549 C 0.40449 0.54321 0.87575 0.0
C550 C 0.42217 0.58965 0.91341 0.0
C551 C 0.40071 0.57016 0.92382 0.0
H552 H 0.63227 0.51817 0.41463 0.0
H553 H 0.65068 0.46161 0.4912 0.0
H554 H 0.62222 0.42283 0.46697 0.0
H555 H 0.58911 0.40606 0.42584 0.0
H556 H 0.57185 0.46231 0.34865 0.0
H557 H 0.60338 0.49967 0.37104 0.0
C558 C 0.63064 0.49719 0.42577 0.0
C559 C 0.64331 0.4931 0.45498 0.0
C560 C 0.61429 0.47484 0.41165 0.0
C561 C 0.64063 0.46571 0.46906 0.0
C562 C 0.62444 0.44341 0.45516 0.0
C563 C 0.59244 0.42637 0.41374 0.0
C564 C 0.57777 0.43134 0.38572 0.0
C565 C 0.61061 0.44794 0.42677 0.0
C566 C 0.58271 0.45776 0.37028 0.0
C567 C 0.6007 0.47927 0.38312 0.0
H568 H 0.63907 0.51664 0.94164 0.0
H569 H 0.63758 0.47594 0.85207 0.0
H570 H 0.60352 0.51304 0.83363 0.0
H571 H 0.57297 0.55608 0.84327 0.0
H572 H 0.57358 0.59635 0.93318 0.0
H573 H 0.60892 0.56022 0.9511 0.0
C574 C 0.63116 0.51578 0.91813 0.0
C575 C 0.64091 0.49347 0.8983 0.0
C576 C 0.61132 0.53707 0.90771 0.0
C577 C 0.63078 0.49302 0.86775 0.0
C578 C 0.61113 0.51414 0.85722 0.0
C579 C 0.58085 0.5571 0.86678 0.0
C580 C 0.57042 0.57897 0.8868 0.0
C581 C 0.60112 0.53617 0.87704 0.0
C582 C 0.58106 0.5798 0.91719 0.0
C583 C 0.60131 0.55911 0.92751 0.0
H584 H 0.3669 0.5046 0.38411 0.0
H585 H 0.37954 0.48654 0.48046 0.0
H586 H 0.41655 0.44971 0.46752 0.0
H587 H 0.4466 0.42366 0.42858 0.0
H588 H 0.43286 0.44239 0.33235 0.0
H589 H 0.39472 0.47734 0.3456 0.0
C590 C 0.37733 0.49229 0.40232 0.0
C591 C 0.37039 0.49841 0.4332 0.0
C592 C 0.39851 0.47118 0.39475 0.0
C593 C 0.38468 0.48257 0.45647 0.0
C594 C 0.40576 0.46139 0.44909 0.0
C595 C 0.43509 0.43521 0.41052 0.0
C596 C 0.4429 0.43044 0.37953 0.0
C597 C 0.41309 0.45567 0.41827 0.0
C598 C 0.42768 0.44571 0.35645 0.0
C599 C 0.40574 0.46577 0.36395 0.0
H600 H 0.87152 0.00768 0.86941 0.0
H601 H 0.89156 0.01713 0.96595 0.0
H602 H 0.92767 0.0548 0.95408 0.0
H603 H 0.9549 0.08401 0.9162 0.0
H604 H 0.93638 0.07278 0.81949 0.0
H605 H 0.89878 0.03666 0.83159 0.0
C606 C 0.88395 0.01775 0.88787 0.0
C607 C 0.87867 0.00948 0.91854 0.0
C608 C 0.90512 0.03909 0.88087 0.0
C609 C 0.89471 0.02327 0.94215 0.0
C610 C 0.91558 0.04472 0.93538 0.0
C611 C 0.94254 0.0738 0.89776 0.0
C612 C 0.9486 0.08115 0.86697 0.0
C613 C 0.92108 0.05272 0.90482 0.0
C614 C 0.93239 0.06751 0.84341 0.0
C615 C 0.91081 0.04682 0.85028 0.0
H616 H 0.1331 0.01263 0.40464 0.0
H617 H 0.12215 0.98006 0.49693 0.0
H618 H 0.08992 0.94153 0.47791 0.0
H619 H 0.06253 0.91864 0.43548 0.0
H620 H 0.07249 0.95238 0.34343 0.0
H621 H 0.107 0.9889 0.36208 0.0
C622 C 0.12362 0.99716 0.42063 0.0
C623 C 0.13008 0.99937 0.45219 0.0
C624 C 0.10467 0.9753 0.40963 0.0
C625 C 0.11794 0.97875 0.47246 0.0
C626 C 0.09927 0.9568 0.46164 0.0
C627 C 0.07235 0.93385 0.41944 0.0
C628 C 0.06461 0.93275 0.3881 0.0
C629 C 0.09217 0.95507 0.43032 0.0
C630 C 0.07773 0.95271 0.36772 0.0
C631 C 0.09756 0.97367 0.37834 0.0
H632 H 0.15597 1.0041 0.86671 0.0
H633 H 0.14454 0.02297 0.96337 0.0
H634 H 0.11059 0.06227 0.951 0.0
H635 H 0.08223 0.08981 0.9131 0.0
H636 H 0.09179 0.06975 0.81648 0.0
H637 H 0.12809 0.03231 0.8286 0.0
C638 C 0.14595 0.01668 0.8851 0.0
C639 C 0.15295 0.01047 0.91595 0.0
C640 C 0.12597 0.03904 0.87788 0.0
C641 C 0.14003 0.02743 0.9394 0.0
C642 C 0.12038 0.04983 0.93237 0.0
C643 C 0.0924 0.07747 0.8946 0.0
C644 C 0.08413 0.08266 0.8639 0.0
C645 C 0.113 0.05568 0.90172 0.0
C646 C 0.09756 0.06624 0.84034 0.0
C647 C 0.11835 0.04476 0.84724 0.0
H648 H 0.87493 0.01288 0.41056 0.0
H649 H 0.85317 0.95502 0.4852 0.0
H650 H 0.8824 0.91656 0.4613 0.0
H651 H 0.91778 0.90078 0.42169 0.0
H652 H 0.93842 0.95824 0.34633 0.0
H653 H 0.90536 0.99498 0.36765 0.0
C654 C 0.87594 0.99167 0.42128 0.0
C655 C 0.86224 0.98715 0.44999 0.0
C656 C 0.89274 0.96951 0.40735 0.0
C657 C 0.86407 0.95945 0.46352 0.0
C658 C 0.8807 0.93734 0.4498 0.0
C659 C 0.91479 0.92118 0.40969 0.0
C660 C 0.93095 0.92677 0.38264 0.0
C661 C 0.8958 0.94238 0.42214 0.0
C662 C 0.92642 0.95326 0.36725 0.0
C663 C 0.90758 0.97442 0.3795 0.0
H664 H 0.38156 0.33926 0.16393 0.0
H665 H 0.38744 0.43288 0.16391 0.0
H666 H 0.41753 0.43161 0.21023 0.0
H667 H 0.44495 0.40403 0.24866 0.0
H668 H 0.44042 0.31028 0.24836 0.0
H669 H 0.40716 0.31158 0.20429 0.0
C670 C 0.38941 0.35937 0.1741 0.0
C671 C 0.38223 0.38611 0.16037 0.0
C672 C 0.40712 0.3585 0.2006 0.0
C673 C 0.39224 0.412 0.17414 0.0
C674 C 0.40969 0.4113 0.20053 0.0
C675 C 0.43659 0.38383 0.23914 0.0
C676 C 0.44549 0.3571 0.25174 0.0
C677 C 0.41764 0.38468 0.21367 0.0
C678 C 0.4341 0.33121 0.23916 0.0
C679 C 0.4151 0.3319 0.21386 0.0
H680 H 0.64406 0.63436 0.67645 0.0
H681 H 0.65229 0.72776 0.67958 0.0
H682 H 0.61795 0.72975 0.72298 0.0
H683 H 0.5845 0.70502 0.75928 0.0
H684 H 0.57745 0.61141 0.75621 0.0
H685 H 0.61291 0.60958 0.71414 0.0
C686 C 0.63879 0.65516 0.68688 0.0
C687 C 0.65079 0.68086 0.67458 0.0
C688 C 0.61921 0.65616 0.71199 0.0
C689 C 0.64311 0.70763 0.68818 0.0
C690 C 0.62358 0.70879 0.71317 0.0
C691 C 0.59088 0.68418 0.74962 0.0
C692 C 0.57806 0.65843 0.76098 0.0
C693 C 0.6113 0.6832 0.72514 0.0
C694 C 0.58672 0.63166 0.74801 0.0
C695 C 0.60704 0.63054 0.72384 0.0
H696 H 0.65047 0.38124 0.1775 0.0
H697 H 0.60723 0.30918 0.13259 0.0
H698 H 0.57842 0.29976 0.17914 0.0
H699 H 0.56116 0.31585 0.23043 0.0
H700 H 0.60229 0.39022 0.27328 0.0
H701 H 0.63611 0.39489 0.22982 0.0
C702 C 0.63482 0.36339 0.1779 0.0
C703 C 0.63079 0.34621 0.15141 0.0
C704 C 0.61772 0.35865 0.20438 0.0
C705 C 0.61093 0.32271 0.15264 0.0
C706 C 0.59424 0.31745 0.1792 0.0
C707 C 0.57795 0.33267 0.2305 0.0
C708 C 0.57908 0.35277 0.25495 0.0
C709 C 0.59685 0.33579 0.20493 0.0
C710 C 0.60079 0.37463 0.25461 0.0
C711 C 0.62012 0.37735 0.22975 0.0
H712 H 0.38985 0.69054 0.66505 0.0
H713 H 0.36082 0.60306 0.68396 0.0
H714 H 0.39004 0.60245 0.7309 0.0
H715 H 0.42693 0.62501 0.76429 0.0
H716 H 0.45675 0.71233 0.74575 0.0
H717 H 0.4241 0.71474 0.70113 0.0
C718 C 0.38979 0.67145 0.67959 0.0
C719 C 0.37319 0.64688 0.67091 0.0
C720 C 0.40695 0.6711 0.70653 0.0
C721 C 0.37307 0.62241 0.6902 0.0
C722 C 0.39 0.62193 0.71696 0.0
C723 C 0.42618 0.64469 0.75066 0.0
C724 C 0.44457 0.66831 0.75821 0.0
C725 C 0.40747 0.64591 0.72501 0.0
C726 C 0.4429 0.69377 0.74049 0.0
C727 C 0.42432 0.69514 0.71486 0.0
H728 H 0.89583 0.8362 0.15331 0.0
H729 H 0.85041 0.9111 0.19035 0.0
H730 H 0.87791 0.90676 0.23818 0.0
H731 H 0.91814 0.88472 0.26754 0.0
H732 H 0.96268 0.8089 0.23184 0.0
H733 H 0.93171 0.81013 0.18578 0.0
C734 C 0.89141 0.85116 0.17208 0.0
C735 C 0.87148 0.87434 0.16788 0.0
C736 C 0.90727 0.84848 0.19973 0.0
C737 C 0.86618 0.89354 0.19255 0.0
C738 C 0.88181 0.89102 0.22001 0.0
C739 C 0.92083 0.86825 0.24984 0.0
C740 C 0.94292 0.84699 0.2529 0.0
C741 C 0.90301 0.86912 0.2235 0.0
C742 C 0.94584 0.82551 0.23002 0.0
C743 C 0.92825 0.82632 0.2036 0.0
H744 H 0.15022 0.21244 0.67321 0.0
H745 H 0.15432 0.11959 0.65927 0.0
H746 H 0.1186 0.11232 0.7005 0.0
H747 H 0.08509 0.13207 0.73935 0.0
H748 H 0.07962 0.22491 0.75307 0.0
H749 H 0.11675 0.23233 0.71296 0.0
C750 C 0.14321 0.19063 0.67912 0.0
C751 C 0.15514 0.16662 0.66316 0.0
C752 C 0.12231 0.18655 0.70276 0.0
C753 C 0.146 0.13848 0.67143 0.0
C754 C 0.12535 0.13428 0.69489 0.0
C755 C 0.09199 0.15398 0.73373 0.0
C756 C 0.07936 0.17787 0.74928 0.0
C757 C 0.11325 0.15813 0.71059 0.0
C758 C 0.08882 0.20606 0.74155 0.0
C759 C 0.11008 0.21035 0.71855 0.0
H760 H 0.14431 0.89736 0.18395 0.0
H761 H 0.1206 0.8149 0.14347 0.0
H762 H 0.09164 0.80277 0.18922 0.0
H763 H 0.06832 0.81814 0.2382 0.0
H764 H 0.08952 0.90234 0.27612 0.0
H765 H 0.12399 0.91124 0.23399 0.0
C766 C 0.13286 0.87669 0.18511 0.0
C767 C 0.13435 0.85728 0.16007 0.0
C768 C 0.11556 0.87024 0.21103 0.0
C769 C 0.11998 0.83026 0.16239 0.0
C770 C 0.10319 0.82338 0.18848 0.0
C771 C 0.08097 0.83815 0.23751 0.0
C772 C 0.07627 0.85962 0.26015 0.0
C773 C 0.10018 0.84354 0.21261 0.0
C774 C 0.09258 0.88558 0.25883 0.0
C775 C 0.11226 0.89072 0.23472 0.0
H776 H 0.86376 0.20233 0.68466 0.0
H777 H 0.8783 0.11355 0.65593 0.0
H778 H 0.91604 0.10793 0.69524 0.0
H779 H 0.94621 0.12848 0.7365 0.0
H780 H 0.9333 0.21782 0.76422 0.0
H781 H 0.89399 0.22294 0.72633 0.0
C782 C 0.8753 0.18181 0.68686 0.0
C783 C 0.868 0.1584 0.66735 0.0
C784 C 0.89743 0.1788 0.70926 0.0
C785 C 0.88298 0.13182 0.6709 0.0
C786 C 0.90479 0.12862 0.69325 0.0
C787 C 0.93476 0.14908 0.73442 0.0
C788 C 0.94287 0.17272 0.75324 0.0
C789 C 0.91232 0.152 0.71243 0.0
C790 C 0.92769 0.19923 0.75005 0.0
C791 C 0.90516 0.20221 0.72836 0.0
loop_
_geom_bond_atom_site_label_1
_geom_bond_atom_site_label_2
_geom_bond_distance
_geom_bond_site_symmetry_2
_ccdc_geom_bond_type
C0 C1 1.264 . S
C0 C5 1.479 . S
C0 C10 1.465 . S
C1 C0 1.264 . S
C1 C3 1.339 . S
C1 H28 0.931 . S
C2 C3 1.395 . S
C2 C4 1.320 . S
C3 C1 1.339 . S
C3 C2 1.395 . S
C3 H29 0.929 . S
C4 C2 1.320 . S
C4 C5 1.405 . S
C4 H30 0.930 . S
C5 C0 1.479 . S
C5 C4 1.405 . S
C5 H31 0.931 . S
U6 O7 2.454 1_554 S
U6 O8 2.458 . S
U6 C9 2.984 1_554 S
U6 C10 2.847 1_554 S
U6 C23 2.882 . S
U6 O24 2.441 1_554 S
U6 O25 2.420 . S
U6 O26 2.455 . S
U6 O27 2.449 . S
O7 U6 2.454 1_556 S
O7 C9 1.353 . S
O8 U6 2.458 . S
O8 C9 1.286 1_554 S
C9 U6 2.984 1_556 S
C9 O7 1.353 . S
C9 O8 1.286 1_556 S
C9 C11 1.363 . S
C10 C0 1.465 . S
C10 U6 2.847 1_556 S
C10 O24 1.249 . S
C10 O25 1.202 1_556 S
C11 C9 1.363 . S
C11 C13 1.408 . S
C11 C16 1.342 . S
C12 C13 1.310 . S
C12 C15 1.461 . S
C12 H32 0.932 . S
C13 C11 1.408 . S
C13 C12 1.310 . S
C13 H33 0.930 . S
C14 C15 1.474 . S
C14 C16 1.285 . S
C14 H34 0.929 . S
C15 C12 1.461 . S
C15 C14 1.474 . S
C16 C11 1.342 . S
C16 C14 1.285 . S
C16 H35 0.930 1_556 S
C17 C20 1.424 . S
C17 C22 1.245 . S
C17 C23 1.428 . S
C18 C21 1.260 . S
C18 C22 1.477 . S
C18 H36 0.932 . S
C19 C20 1.384 . S
C19 C21 1.479 . S
C19 H37 0.929 . S
C20 C17 1.424 . S
C20 C19 1.384 . S
C20 H38 0.928 . S
C21 C18 1.260 . S
C21 C19 1.479 . S
C22 C17 1.245 . S
C22 C18 1.477 . S
C22 H39 0.932 . S
C23 U6 2.882 . S
C23 C17 1.428 . S
C23 O26 1.301 . S
C23 O27 1.282 . S
O24 U6 2.441 1_556 S
O24 C10 1.249 . S
O25 U6 2.420 . S
O25 C10 1.202 1_554 S
O26 U6 2.455 . S
O26 C23 1.301 . S
O27 U6 2.449 . S
O27 C23 1.282 . S
H28 C1 0.931 . S
H29 C3 0.929 . S
H30 C4 0.930 . S
H31 C5 0.931 . S
H32 C12 0.932 . S
H33 C13 0.930 . S
H34 C14 0.929 . S
H35 C16 0.930 1_554 S
H36 C18 0.932 . S
H37 C19 0.929 . S
H38 C20 0.928 . S
H39 C22 0.932 . S
C40 C41 1.264 . S
C40 C45 1.479 . S
C40 C50 1.465 . S
C41 C40 1.264 . S
C41 C43 1.339 . S
C41 H68 0.931 . S
C42 C43 1.395 . S
C42 C44 1.320 . S
C43 C41 1.339 . S
C43 C42 1.395 . S
C43 H69 0.929 . S
C44 C42 1.320 . S
C44 C45 1.405 . S
C44 H70 0.930 . S
C45 C40 1.479 . S
C45 C44 1.405 . S
C45 H71 0.931 . S
U46 O47 2.454 . S
U46 O48 2.458 . S
U46 C49 2.984 . S
U46 C50 2.847 . S
U46 C63 2.882 . S
U46 O64 2.441 . S
U46 O65 2.420 . S
U46 O66 2.455 . S
U46 O67 2.449 . S
O47 U46 2.454 . S
O47 C49 1.353 . S
O48 U46 2.458 . S
O48 C49 1.286 . S
C49 U46 2.984 . S
C49 O47 1.353 . S
C49 O48 1.286 . S
C49 C51 1.363 . S
C50 C40 1.465 . S
C50 U46 2.847 . S
C50 O64 1.249 . S
C50 O65 1.202 . S
C51 C49 1.363 . S
C51 C53 1.408 . S
C51 C56 1.342 . S
C52 C53 1.310 . S
C52 C55 1.461 . S
C52 H72 0.932 . S
C53 C51 1.408 . S
C53 C52 1.310 . S
C53 H73 0.930 . S
C54 C55 1.474 . S
C54 C56 1.285 . S
C54 H74 0.929 . S
C55 C52 1.461 . S
C55 C54 1.474 . S
C56 C51 1.342 . S
C56 C54 1.285 . S
C56 H75 0.930 . S
C57 C60 1.424 . S
C57 C62 1.245 . S
C57 C63 1.428 . S
C58 C61 1.260 . S
C58 C62 1.477 . S
C58 H76 0.932 . S
C59 C60 1.384 . S
C59 C61 1.479 . S
C59 H77 0.929 . S
C60 C57 1.424 . S
C60 C59 1.384 . S
C60 H78 0.928 . S
C61 C58 1.260 . S
C61 C59 1.479 . S
C62 C57 1.245 . S
C62 C58 1.477 . S
C62 H79 0.932 . S
C63 U46 2.882 . S
C63 C57 1.428 . S
C63 O66 1.301 . S
C63 O67 1.282 . S
O64 U46 2.441 . S
O64 C50 1.249 . S
O65 U46 2.420 . S
O65 C50 1.202 . S
O66 U46 2.455 . S
O66 C63 1.301 . S
O67 U46 2.449 . S
O67 C63 1.282 . S
H68 C41 0.931 . S
H69 C43 0.929 . S
H70 C44 0.930 . S
H71 C45 0.931 . S
H72 C52 0.932 . S
H73 C53 0.930 . S
H74 C54 0.929 . S
H75 C56 0.930 . S
H76 C58 0.932 . S
H77 C59 0.929 . S
H78 C60 0.928 . S
H79 C62 0.932 . S
C80 C81 1.264 . S
C80 C85 1.479 . S
C80 C90 1.465 . S
C81 C80 1.264 . S
C81 C83 1.339 . S
C81 H108 0.931 . S
C82 C83 1.395 . S
C82 C84 1.320 . S
C83 C81 1.339 . S
C83 C82 1.395 . S
C83 H109 0.929 . S
C84 C82 1.320 . S
C84 C85 1.405 . S
C84 H110 0.930 . S
C85 C80 1.479 . S
C85 C84 1.405 . S
C85 H111 0.931 . S
U86 O87 2.457 . S
U86 O88 2.457 1_556 S
U86 C89 2.986 . S
U86 C90 2.850 . S
U86 C103 2.877 1_556 S
U86 O104 2.445 . S
U86 O105 2.422 . S
U86 O106 2.450 1_556 S
U86 O107 2.445 1_556 S
O87 U86 2.457 . S
O87 C89 1.353 . S
O88 U86 2.457 1_554 S
O88 C89 1.286 1_554 S
C89 U86 2.986 . S
C89 O87 1.353 . S
C89 O88 1.286 1_556 S
C89 C91 1.363 . S
C90 C80 1.465 . S
C90 U86 2.850 . S
C90 O104 1.249 . S
C90 O105 1.202 . S
C91 C89 1.363 . S
C91 C93 1.408 . S
C91 C96 1.342 . S
C92 C93 1.310 . S
C92 C95 1.461 . S
C92 H112 0.932 . S
C93 C91 1.408 . S
C93 C92 1.310 . S
C93 H113 0.930 . S
C94 C95 1.474 . S
C94 C96 1.285 . S
C94 H114 0.929 . S
C95 C92 1.461 . S
C95 C94 1.474 . S
C96 C91 1.342 . S
C96 C94 1.285 . S
C96 H115 0.930 1_556 S
C97 C100 1.424 . S
C97 C102 1.245 . S
C97 C103 1.428 . S
C98 C101 1.260 . S
C98 C102 1.477 . S
C98 H116 0.932 . S
C99 C100 1.384 . S
C99 C101 1.479 . S
C99 H117 0.929 . S
C100 C97 1.424 . S
C100 C99 1.384 . S
C100 H118 0.928 . S
C101 C98 1.260 . S
C101 C99 1.479 . S
C102 C97 1.245 . S
C102 C98 1.477 . S
C102 H119 0.932 . S
C103 U86 2.877 1_554 S
C103 C97 1.428 . S
C103 O106 1.301 . S
C103 O107 1.282 . S
O104 U86 2.445 . S
O104 C90 1.249 . S
O105 U86 2.422 . S
O105 C90 1.202 . S
O106 U86 2.450 1_554 S
O106 C103 1.301 . S
O107 U86 2.445 1_554 S
O107 C103 1.282 . S
H108 C81 0.931 . S
H109 C83 0.929 . S
H110 C84 0.930 . S
H111 C85 0.931 . S
H112 C92 0.932 . S
H113 C93 0.930 . S
H114 C94 0.929 . S
H115 C96 0.930 1_554 S
H116 C98 0.932 . S
H117 C99 0.929 . S
H118 C100 0.928 . S
H119 C102 0.932 . S
C120 C121 1.264 . S
C120 C125 1.479 . S
C120 C130 1.465 . S
C121 C120 1.264 . S
C121 C123 1.339 . S
C121 H148 0.931 . S
C122 C123 1.395 . S
C122 C124 1.320 . S
C123 C121 1.339 . S
C123 C122 1.395 . S
C123 H149 0.929 . S
C124 C122 1.320 . S
C124 C125 1.405 . S
C124 H150 0.930 . S
C125 C120 1.479 . S
C125 C124 1.405 . S
C125 H151 0.931 . S
U126 O127 2.454 . S
U126 O128 2.458 . S
U126 C129 2.984 . S
U126 C130 2.847 . S
U126 C143 2.882 . S
U126 O144 2.441 . S
U126 O145 2.420 . S
U126 O146 2.455 . S
U126 O147 2.449 . S
O127 U126 2.454 . S
O127 C129 1.353 . S
O128 U126 2.458 . S
O128 C129 1.286 . S
C129 U126 2.984 . S
C129 O127 1.353 . S
C129 O128 1.286 . S
C129 C131 1.363 . S
C130 C120 1.465 . S
C130 U126 2.847 . S
C130 O144 1.249 . S
C130 O145 1.202 . S
C131 C129 1.363 . S
C131 C133 1.408 . S
C131 C136 1.342 . S
C132 C133 1.310 . S
C132 C135 1.461 . S
C132 H152 0.932 . S
C133 C131 1.408 . S
C133 C132 1.310 . S
C133 H153 0.930 . S
C134 C135 1.474 . S
C134 C136 1.285 . S
C134 H154 0.929 . S
C135 C132 1.461 . S
C135 C134 1.474 . S
C136 C131 1.342 . S
C136 C134 1.285 . S
C136 H155 0.930 . S
C137 C140 1.424 . S
C137 C142 1.245 . S
C137 C143 1.428 . S
C138 C141 1.260 . S
C138 C142 1.477 . S
C138 H156 0.932 . S
C139 C140 1.384 . S
C139 C141 1.479 . S
C139 H157 0.929 . S
C140 C137 1.424 . S
C140 C139 1.384 . S
C140 H158 0.928 . S
C141 C138 1.260 . S
C141 C139 1.479 . S
C142 C137 1.245 . S
C142 C138 1.477 . S
C142 H159 0.932 . S
C143 U126 2.882 . S
C143 C137 1.428 . S
C143 O146 1.301 . S
C143 O147 1.282 . S
O144 U126 2.441 . S
O144 C130 1.249 . S
O145 U126 2.420 . S
O145 C130 1.202 . S
O146 U126 2.455 . S
O146 C143 1.301 . S
O147 U126 2.449 . S
O147 C143 1.282 . S
H148 C121 0.931 . S
H149 C123 0.929 . S
H150 C124 0.930 . S
H151 C125 0.931 . S
H152 C132 0.932 . S
H153 C133 0.930 . S
H154 C134 0.929 . S
H155 C136 0.930 . S
H156 C138 0.932 . S
H157 C139 0.929 . S
H158 C140 0.928 . S
H159 C142 0.932 . S
C160 C161 1.255 1_565 S
C160 C165 1.479 . S
C160 C170 1.465 . S
C161 C160 1.255 1_545 S
C161 C163 1.350 . S
C161 H188 0.929 1_545 S
C162 C163 1.395 . S
C162 C164 1.320 . S
C163 C161 1.350 . S
C163 C162 1.395 . S
C163 H189 0.929 . S
C164 C162 1.320 . S
C164 C165 1.405 1_545 S
C164 H190 0.930 . S
C165 C160 1.479 . S
C165 C164 1.405 1_565 S
C165 H191 0.931 . S
U166 O167 2.454 1_554 S
U166 O168 2.458 . S
U166 C169 2.984 1_554 S
U166 C170 2.847 1_554 S
U166 C183 2.882 . S
U166 O184 2.441 1_554 S
U166 O185 2.420 . S
U166 O186 2.455 . S
U166 O187 2.449 . S
O167 U166 2.454 1_556 S
O167 C169 1.353 . S
O168 U166 2.458 . S
O168 C169 1.286 1_554 S
C169 U166 2.984 1_556 S
C169 O167 1.353 . S
C169 O168 1.286 1_556 S
C169 C171 1.363 . S
C170 C160 1.465 . S
C170 U166 2.847 1_556 S
C170 O184 1.249 . S
C170 O185 1.202 1_556 S
C171 C169 1.363 . S
C171 C173 1.408 . S
C171 C176 1.342 . S
C172 C173 1.310 . S
C172 C175 1.461 . S
C172 H192 0.932 . S
C173 C171 1.408 . S
C173 C172 1.310 . S
C173 H193 0.930 . S
C174 C175 1.474 . S
C174 C176 1.285 . S
C174 H194 0.929 . S
C175 C172 1.461 . S
C175 C174 1.474 . S
C176 C171 1.342 . S
C176 C174 1.285 . S
C176 H195 0.930 1_556 S
C177 C180 1.424 . S
C177 C182 1.245 . S
C177 C183 1.428 . S
C178 C181 1.260 . S
C178 C182 1.477 . S
C178 H196 0.932 . S
C179 C180 1.384 . S
C179 C181 1.479 . S
C179 H197 0.929 . S
C180 C177 1.424 . S
C180 C179 1.384 . S
C180 H198 0.928 . S
C181 C178 1.260 . S
C181 C179 1.479 . S
C182 C177 1.245 . S
C182 C178 1.477 . S
C182 H199 0.932 . S
C183 U166 2.882 . S
C183 C177 1.428 . S
C183 O186 1.301 . S
C183 O187 1.282 . S
O184 U166 2.441 1_556 S
O184 C170 1.249 . S
O185 U166 2.420 . S
O185 C170 1.202 1_554 S
O186 U166 2.455 . S
O186 C183 1.301 . S
O187 U166 2.449 . S
O187 C183 1.282 . S
H188 C161 0.929 1_565 S
H189 C163 0.929 . S
H190 C164 0.930 . S
H191 C165 0.931 . S
H192 C172 0.932 . S
H193 C173 0.930 . S
H194 C174 0.929 . S
H195 C176 0.930 1_554 S
H196 C178 0.932 . S
H197 C179 0.929 . S
H198 C180 0.928 . S
H199 C182 0.932 . S
C200 C201 1.264 . S
C200 C205 1.479 . S
C200 C210 1.465 . S
C201 C200 1.264 . S
C201 C203 1.339 . S
C201 H228 0.931 . S
C202 C203 1.395 . S
C202 C204 1.320 . S
C203 C201 1.339 . S
C203 C202 1.395 . S
C203 H229 0.929 . S
C204 C202 1.320 . S
C204 C205 1.405 . S
C204 H230 0.930 . S
C205 C200 1.479 . S
C205 C204 1.405 . S
C205 H231 0.931 . S
U206 O207 2.454 . S
U206 O208 2.458 . S
U206 C209 2.984 . S
U206 C210 2.847 . S
U206 C223 2.882 . S
U206 O224 2.441 . S
U206 O225 2.420 . S
U206 O226 2.455 . S
U206 O227 2.449 . S
O207 U206 2.454 . S
O207 C209 1.353 . S
O208 U206 2.458 . S
O208 C209 1.286 . S
C209 U206 2.984 . S
C209 O207 1.353 . S
C209 O208 1.286 . S
C209 C211 1.363 . S
C210 C200 1.465 . S
C210 U206 2.847 . S
C210 O224 1.249 . S
C210 O225 1.202 . S
C211 C209 1.363 . S
C211 C213 1.408 . S
C211 C216 1.342 . S
C212 C213 1.310 . S
C212 C215 1.461 . S
C212 H232 0.932 . S
C213 C211 1.408 . S
C213 C212 1.310 . S
C213 H233 0.930 . S
C214 C215 1.474 . S
C214 C216 1.285 . S
C214 H234 0.929 . S
C215 C212 1.461 . S
C215 C214 1.474 . S
C216 C211 1.342 . S
C216 C214 1.285 . S
C216 H235 0.930 . S
C217 C220 1.424 . S
C217 C222 1.245 . S
C217 C223 1.428 . S
C218 C221 1.250 1_545 S
C218 C222 1.490 . S
C218 H236 0.929 1_545 S
C219 C220 1.384 1_565 S
C219 C221 1.479 . S
C219 H237 0.929 . S
C220 C217 1.424 . S
C220 C219 1.384 1_545 S
C220 H238 0.928 . S
C221 C218 1.250 1_565 S
C221 C219 1.479 . S
C222 C217 1.245 . S
C222 C218 1.490 . S
C222 H239 0.932 . S
C223 U206 2.882 . S
C223 C217 1.428 . S
C223 O226 1.301 . S
C223 O227 1.282 . S
O224 U206 2.441 . S
O224 C210 1.249 . S
O225 U206 2.420 . S
O225 C210 1.202 . S
O226 U206 2.455 . S
O226 C223 1.301 . S
O227 U206 2.449 . S
O227 C223 1.282 . S
H228 C201 0.931 . S
H229 C203 0.929 . S
H230 C204 0.930 . S
H231 C205 0.931 . S
H232 C212 0.932 . S
H233 C213 0.930 . S
H234 C214 0.929 . S
H235 C216 0.930 . S
H236 C218 0.929 1_565 S
H237 C219 0.929 . S
H238 C220 0.928 . S
H239 C222 0.932 . S
C240 C241 1.264 . S
C240 C245 1.479 . S
C240 C250 1.465 . S
C241 C240 1.264 . S
C241 C243 1.339 1_565 S
C241 H268 0.931 . S
C242 C243 1.395 . S
C242 C244 1.320 . S
C243 C241 1.339 1_545 S
C243 C242 1.395 . S
C243 H269 0.929 . S
C244 C242 1.320 . S
C244 C245 1.405 1_545 S
C244 H270 0.930 . S
C245 C240 1.479 . S
C245 C244 1.405 1_565 S
C245 H271 0.931 . S
U246 O247 2.457 . S
U246 O248 2.457 1_556 S
U246 C249 2.986 . S
U246 C250 2.850 . S
U246 C263 2.878 1_556 S
U246 O264 2.445 . S
U246 O265 2.422 . S
U246 O266 2.450 1_556 S
U246 O267 2.445 1_556 S
O247 U246 2.457 . S
O247 C249 1.353 . S
O248 U246 2.457 1_554 S
O248 C249 1.286 1_554 S
C249 U246 2.986 . S
C249 O247 1.353 . S
C249 O248 1.286 1_556 S
C249 C251 1.363 . S
C250 C240 1.465 . S
C250 U246 2.850 . S
C250 O264 1.249 . S
C250 O265 1.202 . S
C251 C249 1.363 . S
C251 C253 1.408 . S
C251 C256 1.342 . S
C252 C253 1.310 . S
C252 C255 1.461 . S
C252 H272 0.932 . S
C253 C251 1.408 . S
C253 C252 1.310 . S
C253 H273 0.930 . S
C254 C255 1.474 . S
C254 C256 1.285 . S
C254 H274 0.929 . S
C255 C252 1.461 . S
C255 C254 1.474 . S
C256 C251 1.342 . S
C256 C254 1.285 . S
C256 H275 0.930 1_556 S
C257 C260 1.424 . S
C257 C262 1.245 . S
C257 C263 1.428 . S
C258 C261 1.260 . S
C258 C262 1.477 . S
C258 H276 0.932 . S
C259 C260 1.384 . S
C259 C261 1.479 . S
C259 H277 0.929 . S
C260 C257 1.424 . S
C260 C259 1.384 . S
C260 H278 0.928 . S
C261 C258 1.260 . S
C261 C259 1.479 . S
C262 C257 1.245 . S
C262 C258 1.477 . S
C262 H279 0.932 . S
C263 U246 2.878 1_554 S
C263 C257 1.428 . S
C263 O266 1.301 . S
C263 O267 1.282 . S
O264 U246 2.445 . S
O264 C250 1.249 . S
O265 U246 2.422 . S
O265 C250 1.202 . S
O266 U246 2.450 1_554 S
O266 C263 1.301 . S
O267 U246 2.445 1_554 S
O267 C263 1.282 . S
H268 C241 0.931 . S
H269 C243 0.929 . S
H270 C244 0.930 . S
H271 C245 0.931 . S
H272 C252 0.932 . S
H273 C253 0.930 . S
H274 C254 0.929 . S
H275 C256 0.930 1_554 S
H276 C258 0.932 . S
H277 C259 0.929 . S
H278 C260 0.928 . S
H279 C262 0.932 . S
C280 C281 1.264 . S
C280 C285 1.479 . S
C280 C290 1.465 . S
C281 C280 1.264 . S
C281 C283 1.339 . S
C281 H308 0.931 . S
C282 C283 1.395 . S
C282 C284 1.320 . S
C283 C281 1.339 . S
C283 C282 1.395 . S
C283 H309 0.929 . S
C284 C282 1.320 . S
C284 C285 1.405 . S
C284 H310 0.930 . S
C285 C280 1.479 . S
C285 C284 1.405 . S
C285 H311 0.931 . S
U286 O287 2.454 . S
U286 O288 2.458 . S
U286 C289 2.984 . S
U286 C290 2.847 . S
U286 C303 2.882 . S
U286 O304 2.441 . S
U286 O305 2.420 . S
U286 O306 2.455 . S
U286 O307 2.449 . S
O287 U286 2.454 . S
O287 C289 1.353 . S
O288 U286 2.458 . S
O288 C289 1.286 . S
C289 U286 2.984 . S
C289 O287 1.353 . S
C289 O288 1.286 . S
C289 C291 1.363 . S
C290 C280 1.465 . S
C290 U286 2.847 . S
C290 O304 1.249 . S
C290 O305 1.202 . S
C291 C289 1.363 . S
C291 C293 1.408 . S
C291 C296 1.342 . S
C292 C293 1.310 . S
C292 C295 1.461 . S
C292 H312 0.932 . S
C293 C291 1.408 . S
C293 C292 1.310 . S
C293 H313 0.930 . S
C294 C295 1.474 . S
C294 C296 1.285 . S
C294 H314 0.929 . S
C295 C292 1.461 . S
C295 C294 1.474 . S
C296 C291 1.342 . S
C296 C294 1.285 . S
C296 H315 0.930 . S
C297 C300 1.424 . S
C297 C302 1.245 . S
C297 C303 1.428 . S
C298 C301 1.260 . S
C298 C302 1.477 1_565 S
C298 H316 0.932 . S
C299 C300 1.384 1_565 S
C299 C301 1.479 . S
C299 H317 0.929 . S
C300 C297 1.424 . S
C300 C299 1.384 1_545 S
C300 H318 0.928 . S
C301 C298 1.260 . S
C301 C299 1.479 . S
C302 C297 1.245 . S
C302 C298 1.477 1_545 S
C302 H319 0.932 . S
C303 U286 2.882 . S
C303 C297 1.428 . S
C303 O306 1.301 . S
C303 O307 1.282 . S
O304 U286 2.441 . S
O304 C290 1.249 . S
O305 U286 2.420 . S
O305 C290 1.202 . S
O306 U286 2.455 . S
O306 C303 1.301 . S
O307 U286 2.449 . S
O307 C303 1.282 . S
H308 C281 0.931 . S
H309 C283 0.929 . S
H310 C284 0.930 . S
H311 C285 0.931 . S
H312 C292 0.932 . S
H313 C293 0.930 . S
H314 C294 0.929 . S
H315 C296 0.930 . S
H316 C298 0.932 . S
H317 C299 0.929 . S
H318 C300 0.928 . S
H319 C302 0.932 . S
Sc320 O323 2.025 . S
Sc320 O330 2.105 1_455 S
Sc320 O333 2.105 . S
Sc320 O336 2.105 . S
Sc320 O339 2.105 1_455 S
Sc321 O323 2.025 . S
Sc321 O331 2.105 1_455 S
Sc321 O335 2.105 . S
Sc321 O337 2.105 . S
Sc321 O341 2.105 1_455 S
Sc322 O323 2.025 . S
Sc322 O332 2.105 1_455 S
Sc322 O334 2.105 . S
Sc322 O338 2.105 . S
Sc322 O340 2.105 1_455 S
O323 Sc320 2.025 . S
O323 Sc321 2.025 . S
O323 Sc322 2.025 . S
C324 O330 1.268 . S
C324 O340 1.268 . S
C325 O331 1.268 . S
C325 O339 1.268 . S
C326 O332 1.268 . S
C326 O341 1.268 . S
C327 O333 1.268 . S
C327 O337 1.268 . S
C328 O334 1.268 . S
C328 O336 1.268 . S
C329 O335 1.268 . S
C329 O338 1.268 . S
O330 Sc320 2.105 1_655 S
O330 C324 1.268 . S
O331 Sc321 2.105 1_655 S
O331 C325 1.268 . S
O332 Sc322 2.105 1_655 S
O332 C326 1.268 . S
O333 Sc320 2.105 . S
O333 C327 1.268 . S
O334 Sc322 2.105 . S
O334 C328 1.268 . S
O335 Sc321 2.105 . S
O335 C329 1.268 . S
O336 Sc320 2.105 . S
O336 C328 1.268 . S
O337 Sc321 2.105 . S
O337 C327 1.268 . S
O338 Sc322 2.105 . S
O338 C329 1.268 . S
O339 Sc320 2.105 1_655 S
O339 C325 1.268 . S
O340 Sc322 2.105 1_655 S
O340 C324 1.268 . S
O341 Sc321 2.105 1_655 S
O341 C326 1.268 . S
Sc342 O345 2.025 . S
Sc342 O352 2.105 . S
Sc342 O355 2.105 1_455 S
Sc342 O358 2.105 1_455 S
Sc342 O361 2.105 . S
Sc343 O345 2.025 . S
Sc343 O353 2.105 . S
Sc343 O357 2.105 1_455 S
Sc343 O359 2.105 1_455 S
Sc343 O363 2.105 . S
Sc344 O345 2.025 . S
Sc344 O354 2.105 . S
Sc344 O356 2.105 1_455 S
Sc344 O360 2.105 1_455 S
Sc344 O362 2.105 . S
O345 Sc342 2.025 . S
O345 Sc343 2.025 . S
O345 Sc344 2.025 . S
C346 O352 1.268 . S
C346 O362 1.268 . S
C347 O353 1.268 . S
C347 O361 1.268 . S
C348 O354 1.268 . S
C348 O363 1.268 . S
C349 O355 1.268 . S
C349 O359 1.268 . S
C350 O356 1.268 . S
C350 O358 1.268 . S
C351 O357 1.268 . S
C351 O360 1.268 . S
O352 Sc342 2.105 . S
O352 C346 1.268 . S
O353 Sc343 2.105 . S
O353 C347 1.268 . S
O354 Sc344 2.105 . S
O354 C348 1.268 . S
O355 Sc342 2.105 1_655 S
O355 C349 1.268 . S
O356 Sc344 2.105 1_655 S
O356 C350 1.268 . S
O357 Sc343 2.105 1_655 S
O357 C351 1.268 . S
O358 Sc342 2.105 1_655 S
O358 C350 1.268 . S
O359 Sc343 2.105 1_655 S
O359 C349 1.268 . S
O360 Sc344 2.105 1_655 S
O360 C351 1.268 . S
O361 Sc342 2.105 . S
O361 C347 1.268 . S
O362 Sc344 2.105 . S
O362 C346 1.268 . S
O363 Sc343 2.105 . S
O363 C348 1.268 . S
Sc364 O367 2.025 . S
Sc364 O374 2.105 . S
Sc364 O377 2.105 . S
Sc364 O380 2.105 . S
Sc364 O383 2.105 . S
Sc365 O367 2.025 . S
Sc365 O375 2.105 . S
Sc365 O379 2.105 . S
Sc365 O381 2.105 . S
Sc365 O385 2.105 . S
Sc366 O367 2.025 . S
Sc366 O376 2.105 . S
Sc366 O378 2.105 . S
Sc366 O382 2.105 . S
Sc366 O384 2.105 . S
O367 Sc364 2.025 . S
O367 Sc365 2.025 . S
O367 Sc366 2.025 . S
C368 O374 1.268 . S
C368 O384 1.268 . S
C369 O375 1.268 . S
C369 O383 1.268 . S
C370 O376 1.268 . S
C370 O385 1.268 . S
C371 O377 1.268 . S
C371 O381 1.268 . S
C372 O378 1.268 . S
C372 O380 1.268 . S
C373 O379 1.268 . S
C373 O382 1.268 . S
O374 Sc364 2.105 . S
O374 C368 1.268 . S
O375 Sc365 2.105 . S
O375 C369 1.268 . S
O376 Sc366 2.105 . S
O376 C370 1.268 . S
O377 Sc364 2.105 . S
O377 C371 1.268 . S
O378 Sc366 2.105 . S
O378 C372 1.268 . S
O379 Sc365 2.105 . S
O379 C373 1.268 . S
O380 Sc364 2.105 . S
O380 C372 1.268 . S
O381 Sc365 2.105 . S
O381 C371 1.268 . S
O382 Sc366 2.105 . S
O382 C373 1.268 . S
O383 Sc364 2.105 . S
O383 C369 1.268 . S
O384 Sc366 2.105 . S
O384 C368 1.268 . S
O385 Sc365 2.105 . S
O385 C370 1.268 . S
Sc386 O389 2.025 . S
Sc386 O396 2.105 . S
Sc386 O399 2.105 . S
Sc386 O402 2.105 . S
Sc386 O405 2.105 . S
Sc387 O389 2.025 . S
Sc387 O397 2.105 . S
Sc387 O401 2.105 . S
Sc387 O403 2.105 . S
Sc387 O407 2.105 . S
Sc388 O389 2.025 . S
Sc388 O398 2.105 . S
Sc388 O400 2.105 . S
Sc388 O404 2.105 . S
Sc388 O406 2.105 . S
O389 Sc386 2.025 . S
O389 Sc387 2.025 . S
O389 Sc388 2.025 . S
C390 O396 1.268 . S
C390 O406 1.268 . S
C391 O397 1.268 . S
C391 O405 1.268 . S
C392 O398 1.268 . S
C392 O407 1.268 . S
C393 O399 1.268 . S
C393 O403 1.268 . S
C394 O400 1.268 . S
C394 O402 1.268 . S
C395 O401 1.268 . S
C395 O404 1.268 . S
O396 Sc386 2.105 . S
O396 C390 1.268 . S
O397 Sc387 2.105 . S
O397 C391 1.268 . S
O398 Sc388 2.105 . S
O398 C392 1.268 . S
O399 Sc386 2.105 . S
O399 C393 1.268 . S
O400 Sc388 2.105 . S
O400 C394 1.268 . S
O401 Sc387 2.105 . S
O401 C395 1.268 . S
O402 Sc386 2.105 . S
O402 C394 1.268 . S
O403 Sc387 2.105 . S
O403 C393 1.268 . S
O404 Sc388 2.105 . S
O404 C395 1.268 . S
O405 Sc386 2.105 . S
O405 C391 1.268 . S
O406 Sc388 2.105 . S
O406 C390 1.268 . S
O407 Sc387 2.105 . S
O407 C392 1.268 . S
H408 C414 0.930 . S
H409 C417 0.930 . S
H410 C418 0.930 . S
H411 C419 0.930 . S
H412 C422 0.930 . S
H413 C423 0.930 . S
C414 H408 0.930 . S
C414 C415 1.355 . S
C414 C416 1.415 . S
C415 C414 1.355 . S
C415 C417 1.419 . S
C416 C414 1.415 . S
C416 C421 1.425 . S
C416 C423 1.409 . S
C417 H409 0.930 . S
C417 C415 1.419 . S
C417 C418 1.362 . S
C418 H410 0.930 . S
C418 C417 1.362 . S
C418 C421 1.409 . S
C419 H411 0.930 . S
C419 C420 1.355 . S
C419 C421 1.415 . S
C420 C419 1.355 . S
C420 C422 1.419 . S
C421 C416 1.425 . S
C421 C418 1.409 . S
C421 C419 1.415 . S
C422 H412 0.930 . S
C422 C420 1.419 . S
C422 C423 1.362 . S
C423 H413 0.930 . S
C423 C416 1.409 . S
C423 C422 1.362 . S
H424 C430 0.930 . S
H425 C433 0.930 . S
H426 C434 0.930 . S
H427 C435 0.930 . S
H428 C438 0.930 . S
H429 C439 0.930 . S
C430 H424 0.930 . S
C430 C431 1.355 . S
C430 C432 1.415 . S
C431 C430 1.355 . S
C431 C433 1.419 . S
C432 C430 1.415 . S
C432 C437 1.425 . S
C432 C439 1.409 . S
C433 H425 0.930 . S
C433 C431 1.419 . S
C433 C434 1.362 . S
C434 H426 0.930 . S
C434 C433 1.362 . S
C434 C437 1.409 . S
C435 H427 0.930 . S
C435 C436 1.355 . S
C435 C437 1.415 . S
C436 C435 1.355 . S
C436 C438 1.419 . S
C437 C432 1.425 . S
C437 C434 1.409 . S
C437 C435 1.415 . S
C438 H428 0.930 . S
C438 C436 1.419 . S
C438 C439 1.362 . S
C439 H429 0.930 . S
C439 C432 1.409 . S
C439 C438 1.362 . S
H440 C446 0.930 . S
H441 C449 0.930 . S
H442 C450 0.930 . S
H443 C451 0.930 . S
H444 C454 0.930 . S
H445 C455 0.930 . S
C446 H440 0.930 . S
C446 C447 1.355 . S
C446 C448 1.415 . S
C447 C446 1.355 . S
C447 C449 1.419 . S
C448 C446 1.415 . S
C448 C453 1.425 . S
C448 C455 1.409 . S
C449 H441 0.930 . S
C449 C447 1.419 . S
C449 C450 1.362 . S
C450 H442 0.930 . S
C450 C449 1.362 . S
C450 C453 1.409 . S
C451 H443 0.930 . S
C451 C452 1.355 . S
C451 C453 1.415 . S
C452 C451 1.355 . S
C452 C454 1.419 . S
C453 C448 1.425 . S
C453 C450 1.409 . S
C453 C451 1.415 . S
C454 H444 0.930 . S
C454 C452 1.419 . S
C454 C455 1.362 . S
C455 H445 0.930 . S
C455 C448 1.409 . S
C455 C454 1.362 . S
H456 C462 0.930 . S
H457 C465 0.930 . S
H458 C466 0.930 . S
H459 C467 0.930 . S
H460 C470 0.930 . S
H461 C471 0.930 . S
C462 H456 0.930 . S
C462 C463 1.355 . S
C462 C464 1.415 . S
C463 C462 1.355 . S
C463 C465 1.419 . S
C464 C462 1.415 . S
C464 C469 1.425 . S
C464 C471 1.409 . S
C465 H457 0.930 . S
C465 C463 1.419 . S
C465 C466 1.362 . S
C466 H458 0.930 . S
C466 C465 1.362 . S
C466 C469 1.409 . S
C467 H459 0.930 . S
C467 C468 1.355 . S
C467 C469 1.415 . S
C468 C467 1.355 . S
C468 C470 1.419 . S
C469 C464 1.425 . S
C469 C466 1.409 . S
C469 C467 1.415 . S
C470 H460 0.930 . S
C470 C468 1.419 . S
C470 C471 1.362 . S
C471 H461 0.930 . S
C471 C464 1.409 . S
C471 C470 1.362 . S
H472 C478 0.930 . S
H473 C481 0.930 . S
H474 C482 0.930 . S
H475 C483 0.930 . S
H476 C486 0.930 . S
H477 C487 0.930 . S
C478 H472 0.930 . S
C478 C479 1.355 . S
C478 C480 1.415 . S
C479 C478 1.355 . S
C479 C481 1.419 . S
C480 C478 1.415 . S
C480 C485 1.425 . S
C480 C487 1.409 . S
C481 H473 0.930 . S
C481 C479 1.419 . S
C481 C482 1.362 . S
C482 H474 0.930 . S
C482 C481 1.362 . S
C482 C485 1.409 . S
C483 H475 0.930 . S
C483 C484 1.355 . S
C483 C485 1.415 . S
C484 C483 1.355 . S
C484 C486 1.419 . S
C485 C480 1.425 . S
C485 C482 1.409 . S
C485 C483 1.415 . S
C486 H476 0.930 . S
C486 C484 1.419 . S
C486 C487 1.362 . S
C487 H477 0.930 . S
C487 C480 1.409 . S
C487 C486 1.362 . S
H488 C494 0.930 . S
H489 C497 0.930 . S
H490 C498 0.930 . S
H491 C499 0.930 . S
H492 C502 0.930 . S
H493 C503 0.930 . S
C494 H488 0.930 . S
C494 C495 1.355 . S
C494 C496 1.415 . S
C495 C494 1.355 . S
C495 C497 1.419 . S
C496 C494 1.415 . S
C496 C501 1.425 . S
C496 C503 1.409 . S
C497 H489 0.930 . S
C497 C495 1.419 . S
C497 C498 1.362 . S
C498 H490 0.930 . S
C498 C497 1.362 . S
C498 C501 1.409 . S
C499 H491 0.930 . S
C499 C500 1.355 . S
C499 C501 1.415 . S
C500 C499 1.355 . S
C500 C502 1.419 . S
C501 C496 1.425 . S
C501 C498 1.409 . S
C501 C499 1.415 . S
C502 H492 0.930 . S
C502 C500 1.419 . S
C502 C503 1.362 . S
C503 H493 0.930 . S
C503 C496 1.409 . S
C503 C502 1.362 . S
H504 C510 0.930 . S
H505 C513 0.930 . S
H506 C514 0.930 . S
H507 C515 0.930 . S
H508 C518 0.930 . S
H509 C519 0.930 . S
C510 H504 0.930 . S
C510 C511 1.355 . S
C510 C512 1.415 . S
C511 C510 1.355 . S
C511 C513 1.419 . S
C512 C510 1.415 . S
C512 C517 1.425 . S
C512 C519 1.409 . S
C513 H505 0.930 . S
C513 C511 1.419 . S
C513 C514 1.362 . S
C514 H506 0.930 . S
C514 C513 1.362 . S
C514 C517 1.409 . S
C515 H507 0.930 . S
C515 C516 1.355 . S
C515 C517 1.415 . S
C516 C515 1.355 . S
C516 C518 1.419 . S
C517 C512 1.425 . S
C517 C514 1.409 . S
C517 C515 1.415 . S
C518 H508 0.930 . S
C518 C516 1.419 . S
C518 C519 1.362 . S
C519 H509 0.930 . S
C519 C512 1.409 . S
C519 C518 1.362 . S
H520 C526 0.930 . S
H521 C529 0.930 . S
H522 C530 0.930 . S
H523 C531 0.930 . S
H524 C534 0.930 . S
H525 C535 0.930 . S
C526 H520 0.930 . S
C526 C527 1.355 . S
C526 C528 1.415 . S
C527 C526 1.355 . S
C527 C529 1.419 . S
C528 C526 1.415 . S
C528 C533 1.425 . S
C528 C535 1.409 . S
C529 H521 0.930 . S
C529 C527 1.419 . S
C529 C530 1.362 . S
C530 H522 0.930 . S
C530 C529 1.362 . S
C530 C533 1.409 . S
C531 H523 0.930 . S
C531 C532 1.355 . S
C531 C533 1.415 . S
C532 C531 1.355 . S
C532 C534 1.419 . S
C533 C528 1.425 . S
C533 C530 1.409 . S
C533 C531 1.415 . S
C534 H524 0.930 . S
C534 C532 1.419 . S
C534 C535 1.362 . S
C535 H525 0.930 . S
C535 C528 1.409 . S
C535 C534 1.362 . S
H536 C542 0.930 . S
H537 C545 0.930 . S
H538 C546 0.930 . S
H539 C547 0.930 . S
H540 C550 0.930 . S
H541 C551 0.930 . S
C542 H536 0.930 . S
C542 C543 1.355 . S
C542 C544 1.415 . S
C543 C542 1.355 . S
C543 C545 1.419 . S
C544 C542 1.415 . S
C544 C549 1.425 . S
C544 C551 1.409 . S
C545 H537 0.930 . S
C545 C543 1.419 . S
C545 C546 1.362 . S
C546 H538 0.930 . S
C546 C545 1.362 . S
C546 C549 1.409 . S
C547 H539 0.930 . S
C547 C548 1.355 . S
C547 C549 1.415 . S
C548 C547 1.355 . S
C548 C550 1.419 . S
C549 C544 1.425 . S
C549 C546 1.409 . S
C549 C547 1.415 . S
C550 H540 0.930 . S
C550 C548 1.419 . S
C550 C551 1.362 . S
C551 H541 0.930 . S
C551 C544 1.409 . S
C551 C550 1.362 . S
H552 C558 0.930 . S
H553 C561 0.930 . S
H554 C562 0.930 . S
H555 C563 0.930 . S
H556 C566 0.930 . S
H557 C567 0.930 . S
C558 H552 0.930 . S
C558 C559 1.355 . S
C558 C560 1.415 . S
C559 C558 1.355 . S
C559 C561 1.419 . S
C560 C558 1.415 . S
C560 C565 1.425 . S
C560 C567 1.409 . S
C561 H553 0.930 . S
C561 C559 1.419 . S
C561 C562 1.362 . S
C562 H554 0.930 . S
C562 C561 1.362 . S
C562 C565 1.409 . S
C563 H555 0.930 . S
C563 C564 1.355 . S
C563 C565 1.415 . S
C564 C563 1.355 . S
C564 C566 1.419 . S
C565 C560 1.425 . S
C565 C562 1.409 . S
C565 C563 1.415 . S
C566 H556 0.930 . S
C566 C564 1.419 . S
C566 C567 1.362 . S
C567 H557 0.930 . S
C567 C560 1.409 . S
C567 C566 1.362 . S
H568 C574 0.930 . S
H569 C577 0.930 . S
H570 C578 0.930 . S
H571 C579 0.930 . S
H572 C582 0.930 . S
H573 C583 0.930 . S
C574 H568 0.930 . S
C574 C575 1.355 . S
C574 C576 1.415 . S
C575 C574 1.355 . S
C575 C577 1.419 . S
C576 C574 1.415 . S
C576 C581 1.425 . S
C576 C583 1.409 . S
C577 H569 0.930 . S
C577 C575 1.419 . S
C577 C578 1.362 . S
C578 H570 0.930 . S
C578 C577 1.362 . S
C578 C581 1.409 . S
C579 H571 0.930 . S
C579 C580 1.355 . S
C579 C581 1.415 . S
C580 C579 1.355 . S
C580 C582 1.419 . S
C581 C576 1.425 . S
C581 C578 1.409 . S
C581 C579 1.415 . S
C582 H572 0.930 . S
C582 C580 1.419 . S
C582 C583 1.362 . S
C583 H573 0.930 . S
C583 C576 1.409 . S
C583 C582 1.362 . S
H584 C590 0.930 . S
H585 C593 0.930 . S
H586 C594 0.930 . S
H587 C595 0.930 . S
H588 C598 0.930 . S
H589 C599 0.930 . S
C590 H584 0.930 . S
C590 C591 1.355 . S
C590 C592 1.415 . S
C591 C590 1.355 . S
C591 C593 1.419 . S
C592 C590 1.415 . S
C592 C597 1.425 . S
C592 C599 1.409 . S
C593 H585 0.930 . S
C593 C591 1.419 . S
C593 C594 1.362 . S
C594 H586 0.930 . S
C594 C593 1.362 . S
C594 C597 1.409 . S
C595 H587 0.930 . S
C595 C596 1.355 . S
C595 C597 1.415 . S
C596 C595 1.355 . S
C596 C598 1.419 . S
C597 C592 1.425 . S
C597 C594 1.409 . S
C597 C595 1.415 . S
C598 H588 0.930 . S
C598 C596 1.419 . S
C598 C599 1.362 . S
C599 H589 0.930 . S
C599 C592 1.409 . S
C599 C598 1.362 . S
H600 C606 0.930 . S
H601 C609 0.930 . S
H602 C610 0.930 . S
H603 C611 0.930 . S
H604 C614 0.930 . S
H605 C615 0.930 . S
C606 H600 0.930 . S
C606 C607 1.355 . S
C606 C608 1.415 . S
C607 C606 1.355 . S
C607 C609 1.419 . S
C608 C606 1.415 . S
C608 C613 1.425 . S
C608 C615 1.409 . S
C609 H601 0.930 . S
C609 C607 1.419 . S
C609 C610 1.362 . S
C610 H602 0.930 . S
C610 C609 1.362 . S
C610 C613 1.409 . S
C611 H603 0.930 . S
C611 C612 1.355 . S
C611 C613 1.415 . S
C612 C611 1.355 . S
C612 C614 1.419 . S
C613 C608 1.425 . S
C613 C610 1.409 . S
C613 C611 1.415 . S
C614 H604 0.930 . S
C614 C612 1.419 . S
C614 C615 1.362 . S
C615 H605 0.930 . S
C615 C608 1.409 . S
C615 C614 1.362 . S
H616 C622 0.930 . S
H617 C625 0.930 . S
H618 C626 0.930 . S
H619 C627 0.930 . S
H620 C630 0.930 . S
H621 C631 0.930 . S
C622 H616 0.930 . S
C622 C623 1.355 . S
C622 C624 1.415 . S
C623 C622 1.355 . S
C623 C625 1.419 . S
C624 C622 1.415 . S
C624 C629 1.425 . S
C624 C631 1.409 . S
C625 H617 0.930 . S
C625 C623 1.419 . S
C625 C626 1.362 . S
C626 H618 0.930 . S
C626 C625 1.362 . S
C626 C629 1.409 . S
C627 H619 0.930 . S
C627 C628 1.355 . S
C627 C629 1.415 . S
C628 C627 1.355 . S
C628 C630 1.419 . S
C629 C624 1.425 . S
C629 C626 1.409 . S
C629 C627 1.415 . S
C630 H620 0.930 . S
C630 C628 1.419 . S
C630 C631 1.362 . S
C631 H621 0.930 . S
C631 C624 1.409 . S
C631 C630 1.362 . S
H632 C638 0.930 . S
H633 C641 0.930 . S
H634 C642 0.930 . S
H635 C643 0.930 . S
H636 C646 0.930 . S
H637 C647 0.930 . S
C638 H632 0.930 . S
C638 C639 1.355 . S
C638 C640 1.415 . S
C639 C638 1.355 . S
C639 C641 1.419 . S
C640 C638 1.415 . S
C640 C645 1.425 . S
C640 C647 1.409 . S
C641 H633 0.930 . S
C641 C639 1.419 . S
C641 C642 1.362 . S
C642 H634 0.930 . S
C642 C641 1.362 . S
C642 C645 1.409 . S
C643 H635 0.930 . S
C643 C644 1.355 . S
C643 C645 1.415 . S
C644 C643 1.355 . S
C644 C646 1.419 . S
C645 C640 1.425 . S
C645 C642 1.409 . S
C645 C643 1.415 . S
C646 H636 0.930 . S
C646 C644 1.419 . S
C646 C647 1.362 . S
C647 H637 0.930 . S
C647 C640 1.409 . S
C647 C646 1.362 . S
H648 C654 0.930 . S
H649 C657 0.930 . S
H650 C658 0.930 . S
H651 C659 0.930 . S
H652 C662 0.930 . S
H653 C663 0.930 . S
C654 H648 0.930 . S
C654 C655 1.355 . S
C654 C656 1.415 . S
C655 C654 1.355 . S
C655 C657 1.419 . S
C656 C654 1.415 . S
C656 C661 1.425 . S
C656 C663 1.409 . S
C657 H649 0.930 . S
C657 C655 1.419 . S
C657 C658 1.362 . S
C658 H650 0.930 . S
C658 C657 1.362 . S
C658 C661 1.409 . S
C659 H651 0.930 . S
C659 C660 1.355 . S
C659 C661 1.415 . S
C660 C659 1.355 . S
C660 C662 1.419 . S
C661 C656 1.425 . S
C661 C658 1.409 . S
C661 C659 1.415 . S
C662 H652 0.930 . S
C662 C660 1.419 . S
C662 C663 1.362 . S
C663 H653 0.930 . S
C663 C656 1.409 . S
C663 C662 1.362 . S
H664 C670 0.930 . S
H665 C673 0.930 . S
H666 C674 0.930 . S
H667 C675 0.930 . S
H668 C678 0.930 . S
H669 C679 0.930 . S
C670 H664 0.930 . S
C670 C671 1.355 . S
C670 C672 1.415 . S
C671 C670 1.355 . S
C671 C673 1.419 . S
C672 C670 1.415 . S
C672 C677 1.425 . S
C672 C679 1.409 . S
C673 H665 0.930 . S
C673 C671 1.419 . S
C673 C674 1.362 . S
C674 H666 0.930 . S
C674 C673 1.362 . S
C674 C677 1.409 . S
C675 H667 0.930 . S
C675 C676 1.355 . S
C675 C677 1.415 . S
C676 C675 1.355 . S
C676 C678 1.419 . S
C677 C672 1.425 . S
C677 C674 1.409 . S
C677 C675 1.415 . S
C678 H668 0.930 . S
C678 C676 1.419 . S
C678 C679 1.362 . S
C679 H669 0.930 . S
C679 C672 1.409 . S
C679 C678 1.362 . S
H680 C686 0.930 . S
H681 C689 0.930 . S
H682 C690 0.930 . S
H683 C691 0.930 . S
H684 C694 0.930 . S
H685 C695 0.930 . S
C686 H680 0.930 . S
C686 C687 1.355 . S
C686 C688 1.415 . S
C687 C686 1.355 . S
C687 C689 1.419 . S
C688 C686 1.415 . S
C688 C693 1.425 . S
C688 C695 1.409 . S
C689 H681 0.930 . S
C689 C687 1.419 . S
C689 C690 1.362 . S
C690 H682 0.930 . S
C690 C689 1.362 . S
C690 C693 1.409 . S
C691 H683 0.930 . S
C691 C692 1.355 . S
C691 C693 1.415 . S
C692 C691 1.355 . S
C692 C694 1.419 . S
C693 C688 1.425 . S
C693 C690 1.409 . S
C693 C691 1.415 . S
C694 H684 0.930 . S
C694 C692 1.419 . S
C694 C695 1.362 . S
C695 H685 0.930 . S
C695 C688 1.409 . S
C695 C694 1.362 . S
H696 C702 0.930 . S
H697 C705 0.930 . S
H698 C706 0.930 . S
H699 C707 0.930 . S
H700 C710 0.930 . S
H701 C711 0.930 . S
C702 H696 0.930 . S
C702 C703 1.355 . S
C702 C704 1.415 . S
C703 C702 1.355 . S
C703 C705 1.419 . S
C704 C702 1.415 . S
C704 C709 1.425 . S
C704 C711 1.409 . S
C705 H697 0.930 . S
C705 C703 1.419 . S
C705 C706 1.362 . S
C706 H698 0.930 . S
C706 C705 1.362 . S
C706 C709 1.409 . S
C707 H699 0.930 . S
C707 C708 1.355 . S
C707 C709 1.415 . S
C708 C707 1.355 . S
C708 C710 1.419 . S
C709 C704 1.425 . S
C709 C706 1.409 . S
C709 C707 1.415 . S
C710 H700 0.930 . S
C710 C708 1.419 . S
C710 C711 1.362 . S
C711 H701 0.930 . S
C711 C704 1.409 . S
C711 C710 1.362 . S
H712 C718 0.930 . S
H713 C721 0.930 . S
H714 C722 0.930 . S
H715 C723 0.930 . S
H716 C726 0.930 . S
H717 C727 0.930 . S
C718 H712 0.930 . S
C718 C719 1.355 . S
C718 C720 1.415 . S
C719 C718 1.355 . S
C719 C721 1.419 . S
C720 C718 1.415 . S
C720 C725 1.425 . S
C720 C727 1.409 . S
C721 H713 0.930 . S
C721 C719 1.419 . S
C721 C722 1.362 . S
C722 H714 0.930 . S
C722 C721 1.362 . S
C722 C725 1.409 . S
C723 H715 0.930 . S
C723 C724 1.355 . S
C723 C725 1.415 . S
C724 C723 1.355 . S
C724 C726 1.419 . S
C725 C720 1.425 . S
C725 C722 1.409 . S
C725 C723 1.415 . S
C726 H716 0.930 . S
C726 C724 1.419 . S
C726 C727 1.362 . S
C727 H717 0.930 . S
C727 C720 1.409 . S
C727 C726 1.362 . S
H728 C734 0.930 . S
H729 C737 0.930 . S
H730 C738 0.930 . S
H731 C739 0.930 . S
H732 C742 0.930 . S
H733 C743 0.930 . S
C734 H728 0.930 . S
C734 C735 1.355 . S
C734 C736 1.415 . S
C735 C734 1.355 . S
C735 C737 1.419 . S
C736 C734 1.415 . S
C736 C741 1.425 . S
C736 C743 1.409 . S
C737 H729 0.930 . S
C737 C735 1.419 . S
C737 C738 1.362 . S
C738 H730 0.930 . S
C738 C737 1.362 . S
C738 C741 1.409 . S
C739 H731 0.930 . S
C739 C740 1.355 . S
C739 C741 1.415 . S
C740 C739 1.355 . S
C740 C742 1.419 . S
C741 C736 1.425 . S
C741 C738 1.409 . S
C741 C739 1.415 . S
C742 H732 0.930 . S
C742 C740 1.419 . S
C742 C743 1.362 . S
C743 H733 0.930 . S
C743 C736 1.409 . S
C743 C742 1.362 . S
H744 C750 0.930 . S
H745 C753 0.930 . S
H746 C754 0.930 . S
H747 C755 0.930 . S
H748 C758 0.930 . S
H749 C759 0.930 . S
C750 H744 0.930 . S
C750 C751 1.355 . S
C750 C752 1.415 . S
C751 C750 1.355 . S
C751 C753 1.419 . S
C752 C750 1.415 . S
C752 C757 1.425 . S
C752 C759 1.409 . S
C753 H745 0.930 . S
C753 C751 1.419 . S
C753 C754 1.362 . S
C754 H746 0.930 . S
C754 C753 1.362 . S
C754 C757 1.409 . S
C755 H747 0.930 . S
C755 C756 1.355 . S
C755 C757 1.415 . S
C756 C755 1.355 . S
C756 C758 1.419 . S
C757 C752 1.425 . S
C757 C754 1.409 . S
C757 C755 1.415 . S
C758 H748 0.930 . S
C758 C756 1.419 . S
C758 C759 1.362 . S
C759 H749 0.930 . S
C759 C752 1.409 . S
C759 C758 1.362 . S
H760 C766 0.930 . S
H761 C769 0.930 . S
H762 C770 0.930 . S
H763 C771 0.930 . S
H764 C774 0.930 . S
H765 C775 0.930 . S
C766 H760 0.930 . S
C766 C767 1.355 . S
C766 C768 1.415 . S
C767 C766 1.355 . S
C767 C769 1.419 . S
C768 C766 1.415 . S
C768 C773 1.425 . S
C768 C775 1.409 . S
C769 H761 0.930 . S
C769 C767 1.419 . S
C769 C770 1.362 . S
C770 H762 0.930 . S
C770 C769 1.362 . S
C770 C773 1.409 . S
C771 H763 0.930 . S
C771 C772 1.355 . S
C771 C773 1.415 . S
C772 C771 1.355 . S
C772 C774 1.419 . S
C773 C768 1.425 . S
C773 C770 1.409 . S
C773 C771 1.415 . S
C774 H764 0.930 . S
C774 C772 1.419 . S
C774 C775 1.362 . S
C775 H765 0.930 . S
C775 C768 1.409 . S
C775 C774 1.362 . S
H776 C782 0.930 . S
H777 C785 0.930 . S
H778 C786 0.930 . S
H779 C787 0.930 . S
H780 C790 0.930 . S
H781 C791 0.930 . S
C782 H776 0.930 . S
C782 C783 1.355 . S
C782 C784 1.415 . S
C783 C782 1.355 . S
C783 C785 1.419 . S
C784 C782 1.415 . S
C784 C789 1.425 . S
C784 C791 1.409 . S
C785 H777 0.930 . S
C785 C783 1.419 . S
C785 C786 1.362 . S
C786 H778 0.930 . S
C786 C785 1.362 . S
C786 C789 1.409 . S
C787 H779 0.930 . S
C787 C788 1.355 . S
C787 C789 1.415 . S
C788 C787 1.355 . S
C788 C790 1.419 . S
C789 C784 1.425 . S
C789 C786 1.409 . S
C789 C787 1.415 . S
C790 H780 0.930 . S
C790 C788 1.419 . S
C790 C791 1.362 . S
C791 H781 0.930 . S
C791 C784 1.409 . S
C791 C790 1.362 . S
C415 C15 1.576 . S
C420 C346 1.552 . S
C436 C324 1.580 . S
C431 C55 1.605 . S
C452 C350 1.493 . S
C447 C95 1.533 . S
C468 C328 1.586 . S
C463 C135 1.612 . S
C484 C390 1.509 . S
C479 C175 1.548 . S
C500 C368 1.583 . S
C495 C215 1.610 . S
C511 C255 1.572 . S
C516 C394 1.553 . S
C532 C372 1.526 . S
C527 C295 1.577 . S
C543 C2 1.589 . S
C548 C395 1.593 . S
C564 C373 1.655 . S
C559 C61 1.606 . S
C575 C82 1.508 . S
C580 C392 1.593 . S
C591 C141 1.620 . S
C596 C370 1.663 . S
C612 C351 1.581 . S
C607 C162 1.592 . S
C623 C221 1.613 . S
C628 C329 1.650 . S
C644 C348 1.577 . S
C639 C242 1.560 . S
C660 C326 1.651 . S
C655 C301 1.654 . S
C676 C369 1.621 . S
C671 C21 1.571 . S
C692 C391 1.581 . S
C687 C42 1.551 . S
C703 C101 1.487 . S
C708 C371 1.605 . S
C724 C393 1.593 . S
C719 C122 1.607 . S
C740 C325 1.605 . S
C735 C181 1.601 . S
C751 C202 1.564 . S
C756 C347 1.580 . S
C767 C261 1.486 . S
C772 C327 1.603 . S
C783 C282 1.609 . S
C788 C349 1.592 . S
