# Generated by pormake.
# Topology gar, (4,6)-cn, num edge types: 1
# Building blocks:
#     Node 0, Type 0, BuildingBlock: AZAVOO_clean_sbu_0, # of connection points: 4
#     Node 1, Type 0, BuildingBlock: AZAVOO_clean_sbu_0, # of connection points: 4
#     Node 2, Type 0, BuildingBlock: AZAVOO_clean_sbu_0, # of connection points: 4
#     Node 3, Type 0, BuildingBlock: AZAVOO_clean_sbu_0, # of connection points: 4
#     Node 4, Type 0, BuildingBlock: AZAVOO_clean_sbu_0, # of connection points: 4
#     Node 5, Type 0, BuildingBlock: AZAVOO_clean_sbu_0, # of connection points: 4
#     Node 6, Type 0, BuildingBlock: AZAVOO_clean_sbu_0, # of connection points: 4
#     Node 7, Type 0, BuildingBlock: AZAVOO_clean_sbu_0, # of connection points: 4
#     Node 8, Type 0, BuildingBlock: AZAVOO_clean_sbu_0, # of connection points: 4
#     Node 9, Type 0, BuildingBlock: AZAVOO_clean_sbu_0, # of connection points: 4
#     Node 10, Type 0, BuildingBlock: AZAVOO_clean_sbu_0, # of connection points: 4
#     Node 11, Type 0, BuildingBlock: AZAVOO_clean_sbu_0, # of connection points: 4
#     Node 12, Type 0, BuildingBlock: AZAVOO_clean_sbu_0, # of connection points: 4
#     Node 13, Type 0, BuildingBlock: AZAVOO_clean_sbu_0, # of connection points: 4
#     Node 14, Type 0, BuildingBlock: AZAVOO_clean_sbu_0, # of connection points: 4
#     Node 15, Type 0, BuildingBlock: AZAVOO_clean_sbu_0, # of connection points: 4
#     Node 16, Type 0, BuildingBlock: AZAVOO_clean_sbu_0, # of connection points: 4
#     Node 17, Type 0, BuildingBlock: AZAVOO_clean_sbu_0, # of connection points: 4
#     Node 18, Type 0, BuildingBlock: AZAVOO_clean_sbu_0, # of connection points: 4
#     Node 19, Type 0, BuildingBlock: AZAVOO_clean_sbu_0, # of connection points: 4
#     Node 20, Type 0, BuildingBlock: AZAVOO_clean_sbu_0, # of connection points: 4
#     Node 21, Type 0, BuildingBlock: AZAVOO_clean_sbu_0, # of connection points: 4
#     Node 22, Type 0, BuildingBlock: AZAVOO_clean_sbu_0, # of connection points: 4
#     Node 23, Type 0, BuildingBlock: AZAVOO_clean_sbu_0, # of connection points: 4
#     Node 24, Type 1, BuildingBlock: NUHQIS_clean_sbu_0, # of connection points: 6
#     Node 25, Type 1, BuildingBlock: NUHQIS_clean_sbu_0, # of connection points: 6
#     Node 26, Type 1, BuildingBlock: NUHQIS_clean_sbu_0, # of connection points: 6
#     Node 27, Type 1, BuildingBlock: NUHQIS_clean_sbu_0, # of connection points: 6
#     Node 28, Type 1, BuildingBlock: NUHQIS_clean_sbu_0, # of connection points: 6
#     Node 29, Type 1, BuildingBlock: NUHQIS_clean_sbu_0, # of connection points: 6
#     Node 30, Type 1, BuildingBlock: NUHQIS_clean_sbu_0, # of connection points: 6
#     Node 31, Type 1, BuildingBlock: NUHQIS_clean_sbu_0, # of connection points: 6
#     Node 32, Type 1, BuildingBlock: NUHQIS_clean_sbu_0, # of connection points: 6
#     Node 33, Type 1, BuildingBlock: NUHQIS_clean_sbu_0, # of connection points: 6
#     Node 34, Type 1, BuildingBlock: NUHQIS_clean_sbu_0, # of connection points: 6
#     Node 35, Type 1, BuildingBlock: NUHQIS_clean_sbu_0, # of connection points: 6
#     Node 36, Type 1, BuildingBlock: NUHQIS_clean_sbu_0, # of connection points: 6
#     Node 37, Type 1, BuildingBlock: NUHQIS_clean_sbu_0, # of connection points: 6
#     Node 38, Type 1, BuildingBlock: NUHQIS_clean_sbu_0, # of connection points: 6
#     Node 39, Type 1, BuildingBlock: NUHQIS_clean_sbu_0, # of connection points: 6
#     Edge 40, Type (0, 1), BuildingBlock: XIVTED_clean_linker_0, # of connection points: 2
#     Edge 41, Type (0, 1), BuildingBlock: XIVTED_clean_linker_0, # of connection points: 2
#     Edge 42, Type (0, 1), BuildingBlock: XIVTED_clean_linker_0, # of connection points: 2
#     Edge 43, Type (0, 1), BuildingBlock: XIVTED_clean_linker_0, # of connection points: 2
#     Edge 44, Type (0, 1), BuildingBlock: XIVTED_clean_linker_0, # of connection points: 2
#     Edge 45, Type (0, 1), BuildingBlock: XIVTED_clean_linker_0, # of connection points: 2
#     Edge 46, Type (0, 1), BuildingBlock: XIVTED_clean_linker_0, # of connection points: 2
#     Edge 47, Type (0, 1), BuildingBlock: XIVTED_clean_linker_0, # of connection points: 2
#     Edge 48, Type (0, 1), BuildingBlock: XIVTED_clean_linker_0, # of connection points: 2
#     Edge 49, Type (0, 1), BuildingBlock: XIVTED_clean_linker_0, # of connection points: 2
#     Edge 50, Type (0, 1), BuildingBlock: XIVTED_clean_linker_0, # of connection points: 2
#     Edge 51, Type (0, 1), BuildingBlock: XIVTED_clean_linker_0, # of connection points: 2
#     Edge 52, Type (0, 1), BuildingBlock: XIVTED_clean_linker_0, # of connection points: 2
#     Edge 53, Type (0, 1), BuildingBlock: XIVTED_clean_linker_0, # of connection points: 2
#     Edge 54, Type (0, 1), BuildingBlock: XIVTED_clean_linker_0, # of connection points: 2
#     Edge 55, Type (0, 1), BuildingBlock: XIVTED_clean_linker_0, # of connection points: 2
#     Edge 56, Type (0, 1), BuildingBlock: XIVTED_clean_linker_0, # of connection points: 2
#     Edge 57, Type (0, 1), BuildingBlock: XIVTED_clean_linker_0, # of connection points: 2
#     Edge 58, Type (0, 1), BuildingBlock: XIVTED_clean_linker_0, # of connection points: 2
#     Edge 59, Type (0, 1), BuildingBlock: XIVTED_clean_linker_0, # of connection points: 2
#     Edge 60, Type (0, 1), BuildingBlock: XIVTED_clean_linker_0, # of connection points: 2
#     Edge 61, Type (0, 1), BuildingBlock: XIVTED_clean_linker_0, # of connection points: 2
#     Edge 62, Type (0, 1), BuildingBlock: XIVTED_clean_linker_0, # of connection points: 2
#     Edge 63, Type (0, 1), BuildingBlock: XIVTED_clean_linker_0, # of connection points: 2
#     Edge 64, Type (0, 1), BuildingBlock: XIVTED_clean_linker_0, # of connection points: 2
#     Edge 65, Type (0, 1), BuildingBlock: XIVTED_clean_linker_0, # of connection points: 2
#     Edge 66, Type (0, 1), BuildingBlock: XIVTED_clean_linker_0, # of connection points: 2
#     Edge 67, Type (0, 1), BuildingBlock: XIVTED_clean_linker_0, # of connection points: 2
#     Edge 68, Type (0, 1), BuildingBlock: XIVTED_clean_linker_0, # of connection points: 2
#     Edge 69, Type (0, 1), BuildingBlock: XIVTED_clean_linker_0, # of connection points: 2
#     Edge 70, Type (0, 1), BuildingBlock: XIVTED_clean_linker_0, # of connection points: 2
#     Edge 71, Type (0, 1), BuildingBlock: XIVTED_clean_linker_0, # of connection points: 2
#     Edge 72, Type (0, 1), BuildingBlock: XIVTED_clean_linker_0, # of connection points: 2
#     Edge 73, Type (0, 1), BuildingBlock: XIVTED_clean_linker_0, # of connection points: 2
#     Edge 74, Type (0, 1), BuildingBlock: XIVTED_clean_linker_0, # of connection points: 2
#     Edge 75, Type (0, 1), BuildingBlock: XIVTED_clean_linker_0, # of connection points: 2
#     Edge 76, Type (0, 1), BuildingBlock: XIVTED_clean_linker_0, # of connection points: 2
#     Edge 77, Type (0, 1), BuildingBlock: XIVTED_clean_linker_0, # of connection points: 2
#     Edge 78, Type (0, 1), BuildingBlock: XIVTED_clean_linker_0, # of connection points: 2
#     Edge 79, Type (0, 1), BuildingBlock: XIVTED_clean_linker_0, # of connection points: 2
#     Edge 80, Type (0, 1), BuildingBlock: XIVTED_clean_linker_0, # of connection points: 2
#     Edge 81, Type (0, 1), BuildingBlock: XIVTED_clean_linker_0, # of connection points: 2
#     Edge 82, Type (0, 1), BuildingBlock: XIVTED_clean_linker_0, # of connection points: 2
#     Edge 83, Type (0, 1), BuildingBlock: XIVTED_clean_linker_0, # of connection points: 2
#     Edge 84, Type (0, 1), BuildingBlock: XIVTED_clean_linker_0, # of connection points: 2
#     Edge 85, Type (0, 1), BuildingBlock: XIVTED_clean_linker_0, # of connection points: 2
#     Edge 86, Type (0, 1), BuildingBlock: XIVTED_clean_linker_0, # of connection points: 2
#     Edge 87, Type (0, 1), BuildingBlock: XIVTED_clean_linker_0, # of connection points: 2
#     Edge 88, Type (0, 1), BuildingBlock: XIVTED_clean_linker_0, # of connection points: 2
#     Edge 89, Type (0, 1), BuildingBlock: XIVTED_clean_linker_0, # of connection points: 2
#     Edge 90, Type (0, 1), BuildingBlock: XIVTED_clean_linker_0, # of connection points: 2
#     Edge 91, Type (0, 1), BuildingBlock: XIVTED_clean_linker_0, # of connection points: 2
#     Edge 92, Type (0, 1), BuildingBlock: XIVTED_clean_linker_0, # of connection points: 2
#     Edge 93, Type (0, 1), BuildingBlock: XIVTED_clean_linker_0, # of connection points: 2
#     Edge 94, Type (0, 1), BuildingBlock: XIVTED_clean_linker_0, # of connection points: 2
#     Edge 95, Type (0, 1), BuildingBlock: XIVTED_clean_linker_0, # of connection points: 2
#     Edge 96, Type (0, 1), BuildingBlock: XIVTED_clean_linker_0, # of connection points: 2
#     Edge 97, Type (0, 1), BuildingBlock: XIVTED_clean_linker_0, # of connection points: 2
#     Edge 98, Type (0, 1), BuildingBlock: XIVTED_clean_linker_0, # of connection points: 2
#     Edge 99, Type (0, 1), BuildingBlock: XIVTED_clean_linker_0, # of connection points: 2
#     Edge 100, Type (0, 1), BuildingBlock: XIVTED_clean_linker_0, # of connection points: 2
#     Edge 101, Type (0, 1), BuildingBlock: XIVTED_clean_linker_0, # of connection points: 2
#     Edge 102, Type (0, 1), BuildingBlock: XIVTED_clean_linker_0, # of connection points: 2
#     Edge 103, Type (0, 1), BuildingBlock: XIVTED_clean_linker_0, # of connection points: 2
#     Edge 104, Type (0, 1), BuildingBlock: XIVTED_clean_linker_0, # of connection points: 2
#     Edge 105, Type (0, 1), BuildingBlock: XIVTED_clean_linker_0, # of connection points: 2
#     Edge 106, Type (0, 1), BuildingBlock: XIVTED_clean_linker_0, # of connection points: 2
#     Edge 107, Type (0, 1), BuildingBlock: XIVTED_clean_linker_0, # of connection points: 2
#     Edge 108, Type (0, 1), BuildingBlock: XIVTED_clean_linker_0, # of connection points: 2
#     Edge 109, Type (0, 1), BuildingBlock: XIVTED_clean_linker_0, # of connection points: 2
#     Edge 110, Type (0, 1), BuildingBlock: XIVTED_clean_linker_0, # of connection points: 2
#     Edge 111, Type (0, 1), BuildingBlock: XIVTED_clean_linker_0, # of connection points: 2
#     Edge 112, Type (0, 1), BuildingBlock: XIVTED_clean_linker_0, # of connection points: 2
#     Edge 113, Type (0, 1), BuildingBlock: XIVTED_clean_linker_0, # of connection points: 2
#     Edge 114, Type (0, 1), BuildingBlock: XIVTED_clean_linker_0, # of connection points: 2
#     Edge 115, Type (0, 1), BuildingBlock: XIVTED_clean_linker_0, # of connection points: 2
#     Edge 116, Type (0, 1), BuildingBlock: XIVTED_clean_linker_0, # of connection points: 2
#     Edge 117, Type (0, 1), BuildingBlock: XIVTED_clean_linker_0, # of connection points: 2
#     Edge 118, Type (0, 1), BuildingBlock: XIVTED_clean_linker_0, # of connection points: 2
#     Edge 119, Type (0, 1), BuildingBlock: XIVTED_clean_linker_0, # of connection points: 2
#     Edge 120, Type (0, 1), BuildingBlock: XIVTED_clean_linker_0, # of connection points: 2
#     Edge 121, Type (0, 1), BuildingBlock: XIVTED_clean_linker_0, # of connection points: 2
#     Edge 122, Type (0, 1), BuildingBlock: XIVTED_clean_linker_0, # of connection points: 2
#     Edge 123, Type (0, 1), BuildingBlock: XIVTED_clean_linker_0, # of connection points: 2
#     Edge 124, Type (0, 1), BuildingBlock: XIVTED_clean_linker_0, # of connection points: 2
#     Edge 125, Type (0, 1), BuildingBlock: XIVTED_clean_linker_0, # of connection points: 2
#     Edge 126, Type (0, 1), BuildingBlock: XIVTED_clean_linker_0, # of connection points: 2
#     Edge 127, Type (0, 1), BuildingBlock: XIVTED_clean_linker_0, # of connection points: 2
#     Edge 128, Type (0, 1), BuildingBlock: XIVTED_clean_linker_0, # of connection points: 2
#     Edge 129, Type (0, 1), BuildingBlock: XIVTED_clean_linker_0, # of connection points: 2
#     Edge 130, Type (0, 1), BuildingBlock: XIVTED_clean_linker_0, # of connection points: 2
#     Edge 131, Type (0, 1), BuildingBlock: XIVTED_clean_linker_0, # of connection points: 2
#     Edge 132, Type (0, 1), BuildingBlock: XIVTED_clean_linker_0, # of connection points: 2
#     Edge 133, Type (0, 1), BuildingBlock: XIVTED_clean_linker_0, # of connection points: 2
#     Edge 134, Type (0, 1), BuildingBlock: XIVTED_clean_linker_0, # of connection points: 2
#     Edge 135, Type (0, 1), BuildingBlock: XIVTED_clean_linker_0, # of connection points: 2
# Relax obj value: 0.240
# Max RMSD: 0.347
# Mean RMSD: 0.185
data_MOF--net-gar--node1-AZAVOO_clean_sbu_0--node2-NUHQIS_clean_sbu_0--edge1-XIVTED_clean_linker_0
_symmetry_space_group_name_H-M    P1
_symmetry_Int_Tables_number       1
_symmetry_cell_setting            triclinic
loop_
_symmetry_equiv_pos_as_xyz
'x, y, z'
_cell_length_a     59.498567
_cell_length_b     59.000986
_cell_length_c     57.730466
_cell_angle_alpha  96.153266
_cell_angle_beta   96.779261
_cell_angle_gamma 101.61308
loop_
_atom_site_label
_atom_site_type_symbol
_atom_site_fract_x
_atom_site_fract_y
_atom_site_fract_z
_atom_type_partial_charge
Mg0 Mg 0.0679 0.27903 0.39503 0.0
O1 O 0.07107 0.31697 0.42035 0.0
O2 O 0.04205 0.3111 0.44196 0.0
Mg3 Mg 0.0176 0.27419 0.42969 0.0
C4 C 0.05953 0.32472 0.43612 0.0
C5 C 0.11449 0.27667 0.36424 0.0
O6 O 0.09769 0.26191 0.35013 0.0
O7 O 0.07213 0.25009 0.42377 0.0
O8 O 0.04094 0.24848 0.44202 0.0
O9 O 0.04191 0.28862 0.36473 0.0
O10 O 0.02924 0.27433 0.39447 0.0
C11 C 0.05913 0.24084 0.43849 0.0
C12 C 0.02413 0.2821 0.37502 0.0
O13 O 0.10891 0.28633 0.38352 0.0
Mg14 Mg 0.05195 0.80209 0.65748 0.0
O15 O 0.0467 0.75843 0.64749 0.0
O16 O 0.05451 0.76935 0.61397 0.0
Mg17 Mg 0.03678 0.79354 0.636 0.0
C18 C 0.05148 0.75269 0.62657 0.0
C19 C 0.10759 0.81597 0.69011 0.0
O20 O 0.10072 0.83389 0.70025 0.0
O21 O 0.05876 0.84436 0.65377 0.0
O22 O 0.0438 0.82858 0.61827 0.0
O23 O 0.0316 0.80227 0.69105 0.0
O24 O 1.01092 0.80386 0.65853 0.0
C25 C 0.05298 0.84738 0.6322 0.0
C26 C 1.01163 0.80331 0.68079 0.0
O27 O 0.09315 0.80215 0.67352 0.0
Mg28 Mg 0.57095 0.78376 0.89587 0.0
O29 O 0.57511 0.82157 0.92247 0.0
O30 O 0.5457 0.81565 0.9436 0.0
Mg31 Mg 0.52081 0.77901 0.93063 0.0
C32 C 0.56345 0.82926 0.93824 0.0
C33 C 0.62399 0.80246 0.87206 0.0
O34 O 0.6157 0.82075 0.86742 0.0
O35 O 0.57363 0.75282 0.92278 0.0
O36 O 0.54301 0.75184 0.9418 0.0
O37 O 0.54541 0.79579 0.86678 0.0
O38 O 0.53233 0.77966 0.89535 0.0
C39 C 0.56058 0.74347 0.9374 0.0
C40 C 0.52747 0.78876 0.87667 0.0
O41 O 0.61171 0.78749 0.88323 0.0
Mg42 Mg 0.55131 0.30714 0.16416 0.0
O43 O 0.54977 0.26711 0.1415 0.0
O44 O 0.53821 0.27269 0.10576 0.0
Mg45 Mg 0.52543 0.2953 0.13411 0.0
C46 C 0.5458 0.25931 0.11926 0.0
C47 C 0.611 0.31812 0.1817 0.0
O48 O 0.61113 0.33726 0.17195 0.0
O49 O 0.56387 0.33823 0.13835 0.0
O50 O 0.52993 0.32994 0.11698 0.0
O51 O 0.52587 0.29087 0.18995 0.0
O52 O 0.51122 0.31077 0.16498 0.0
C53 C 0.54943 0.3442 0.12276 0.0
C54 C 0.50875 0.30015 0.18325 0.0
O55 O 0.59118 0.30398 0.18098 0.0
Mg56 Mg 0.12168 0.90288 0.1744 0.0
O57 O 0.10915 0.86434 0.16046 0.0
O58 O 0.07069 0.85389 0.15878 0.0
Mg59 Mg 0.05846 0.88692 0.17151 0.0
C60 C 0.09021 0.84901 0.15589 0.0
C61 C 0.17184 0.89098 0.16306 0.0
O62 O 0.18849 0.89422 0.14992 0.0
O63 O 0.10733 0.91234 0.139 0.0
O64 O 0.06898 0.9026 0.13868 0.0
O65 O 0.12358 0.89305 0.21129 0.0
O66 O 0.09309 0.90199 0.19165 0.0
C67 C 0.0866 0.91074 0.12904 0.0
C68 C 0.10217 0.89496 0.21007 0.0
O69 O 0.15603 0.90252 0.16047 0.0
Mg70 Mg 0.50427 0.70951 0.36379 0.0
O71 O 0.50332 0.74481 0.38484 0.0
O72 O 0.47099 0.73853 0.40166 0.0
Mg73 Mg 0.45194 0.70057 0.39214 0.0
C74 C 0.48943 0.752 0.39775 0.0
C75 C 0.54674 0.71488 0.3389 0.0
O76 O 0.53048 0.70005 0.32421 0.0
O77 O 0.51544 0.69633 0.39822 0.0
O78 O 0.48246 0.69027 0.41373 0.0
O79 O 0.48419 0.71863 0.33245 0.0
O80 O 0.46796 0.70041 0.35972 0.0
C81 C 0.50391 0.6898 0.41454 0.0
C82 C 0.46558 0.71059 0.34115 0.0
O83 O 0.54183 0.72273 0.35861 0.0
Mg84 Mg 0.60229 0.3963 0.65912 0.0
O85 O 0.59508 0.35762 0.64424 0.0
O86 O 0.5573 0.34503 0.631 0.0
Mg87 Mg 0.5402 0.37593 0.6377 0.0
C88 C 0.57783 0.34153 0.6345 0.0
C89 C 0.65186 0.40551 0.68217 0.0
O90 O 0.64212 0.4183 0.6963 0.0
O91 O 0.59894 0.40506 0.62151 0.0
O92 O 0.56063 0.39331 0.61053 0.0
O93 O 0.59531 0.38665 0.69384 0.0
O94 O 0.56831 0.39217 0.66653 0.0
C95 C 0.58085 0.40242 0.60628 0.0
C96 C 0.57365 0.38547 0.68662 0.0
O97 O 0.64065 0.39659 0.66204 0.0
Mg98 Mg 1.00149 0.21688 0.86376 0.0
O99 O 1.00115 0.25336 0.88215 0.0
O100 O 0.96802 0.25 0.89754 0.0
Mg101 Mg 0.94836 0.21206 0.89037 0.0
C102 C 0.98709 0.26223 0.89348 0.0
C103 C 0.04386 0.22017 0.83986 0.0
O104 O 0.02736 0.20536 0.82541 0.0
O105 O 1.01089 0.20576 0.89926 0.0
O106 O 0.97772 0.20192 0.91446 0.0
O107 O 0.98329 0.22524 0.83138 0.0
O108 O 0.9654 0.20859 0.85877 0.0
C109 C 0.99907 0.20081 0.91579 0.0
C110 C 0.96423 0.2184 0.83983 0.0
O111 O 0.03918 0.22865 0.85942 0.0
Mg112 Mg 0.51404 0.08533 0.28477 0.0
O113 O 0.48793 0.06496 0.30415 0.0
O114 O 0.49118 0.07754 0.3424 0.0
Mg115 Mg 0.51858 0.1119 0.34586 0.0
C116 C 0.48144 0.06316 0.32419 0.0
C117 C 0.49135 0.04603 0.23875 0.0
O118 O 0.47368 0.03722 0.22219 0.0
O119 O 0.49171 0.11192 0.28267 0.0
O120 O 0.49257 0.12498 0.32063 0.0
O121 O 0.53927 0.06462 0.29853 0.0
O122 O 0.53543 0.09834 0.31654 0.0
C123 C 0.48486 0.12415 0.29886 0.0
C124 C 0.54451 0.08036 0.31688 0.0
O125 O 0.4911 0.06477 0.25167 0.0
Mg126 Mg 0.34032 0.16173 0.52189 0.0
O127 O 0.34276 0.18585 0.55979 0.0
O128 O 0.37267 0.21569 0.56253 0.0
Mg129 Mg 0.3937 0.20681 0.53095 0.0
C130 C 0.35519 0.20515 0.57118 0.0
C131 C 0.28676 0.12569 0.51946 0.0
O132 O 0.2981 0.1097 0.51297 0.0
O133 O 0.33569 0.18897 0.49199 0.0
O134 O 0.36977 0.21422 0.49782 0.0
O135 O 0.36388 0.13615 0.53609 0.0
O136 O 0.37985 0.16727 0.5234 0.0
C137 C 0.34973 0.2063 0.48553 0.0
C138 C 0.38292 0.14835 0.53147 0.0
O139 O 0.2982 0.14714 0.52356 0.0
Mg140 Mg 0.22182 0.04133 0.82479 0.0
O141 O 0.2328 0.08104 0.8273 0.0
O142 O 0.2421 0.09515 0.86555 0.0
Mg143 Mg 0.2333 0.06493 0.88726 0.0
C144 C 0.2403 0.09805 0.84383 0.0
C145 C 0.22198 0.04335 0.76852 0.0
O146 O 0.23193 0.0405 0.74961 0.0
O147 O 0.2589 0.04004 0.83745 0.0
O148 O 0.26444 0.05045 0.87643 0.0
O149 O 0.18432 0.04305 0.82402 0.0
O150 O 0.20907 0.04526 0.85632 0.0
C151 C 0.27143 0.04319 0.85748 0.0
C152 C 0.1887 0.04628 0.84679 0.0
O153 O 0.23043 0.03711 0.78741 0.0
Mg154 Mg 0.32697 0.89443 0.0495 0.0
O155 O 0.32204 0.87014 0.01365 0.0
O156 O 0.3528 0.85378 0.01591 0.0
Mg157 Mg 0.37589 0.86617 0.05182 0.0
C158 C 0.33422 0.85697 1.00443 0.0
C159 C 0.28498 0.91053 0.06227 0.0
O160 O 0.29968 0.91354 0.08178 0.0
O161 O 0.31699 0.86511 0.07182 0.0
O162 O 0.34897 0.85068 0.07544 0.0
O163 O 0.34726 0.92323 0.03385 0.0
O164 O 0.3632 0.8989 0.05335 0.0
C165 C 0.32896 0.85176 0.08096 0.0
C166 C 0.36579 0.91649 0.0417 0.0
O167 O 0.29015 0.90048 0.04363 0.0
Mg168 Mg 0.2997 0.43059 0.04458 0.0
O169 O 0.29796 0.40371 0.00667 0.0
O170 O 0.32839 0.38728 0.01378 0.0
Mg171 Mg 0.35091 0.40087 0.05029 0.0
C172 C 0.31112 0.38988 0.99959 0.0
C173 C 0.25594 0.46181 0.04689 0.0
O174 O 0.27448 0.4774 0.05697 0.0
O175 O 0.29461 0.40351 0.07561 0.0
O176 O 0.32568 0.38758 0.07665 0.0
O177 O 0.32733 0.46155 0.03355 0.0
O178 O 0.33843 0.43352 0.04878 0.0
C179 C 0.30712 0.39006 0.08486 0.0
C180 C 0.34457 0.45259 0.04025 0.0
O181 O 0.25932 0.44117 0.03961 0.0
Mg182 Mg 0.8009 0.19391 0.01008 0.0
O183 O 0.80528 0.21673 0.04647 0.0
O184 O 0.838 0.24349 0.04883 0.0
Mg185 Mg 0.85451 0.23691 0.01506 0.0
C186 C 0.82035 0.23416 0.05781 0.0
C187 C 0.75837 0.15598 0.00696 0.0
O188 O 0.775 0.14549 1.00187 0.0
O189 O 0.7909 0.22134 0.98808 0.0
O190 O 0.82534 0.24509 0.9887 0.0
O191 O 0.82046 0.17003 0.02661 0.0
O192 O 0.83686 0.19946 0.00943 0.0
C193 C 0.8037 0.23843 0.98078 0.0
C194 C 0.83898 0.18179 0.0202 0.0
O195 O 0.76315 0.17806 0.01224 0.0
Mg196 Mg 0.09484 0.43711 0.23993 0.0
O197 O 0.11139 0.47652 0.24702 0.0
O198 O 0.10722 0.48953 0.28382 0.0
Mg199 Mg 0.09065 0.45829 0.30086 0.0
C200 C 0.11397 0.49305 0.26404 0.0
C201 C 0.10791 0.4331 0.1856 0.0
O202 O 0.12083 0.42527 0.17102 0.0
O203 O 0.12674 0.43119 0.26152 0.0
O204 O 0.1241 0.44451 0.29861 0.0
O205 O 0.06043 0.44596 0.22932 0.0
O206 O 0.07421 0.4413 0.26545 0.0
C207 C 0.13484 0.43556 0.28335 0.0
C208 C 0.05858 0.44724 0.25154 0.0
O209 O 0.11223 0.43112 0.20728 0.0
Mg210 Mg 0.80361 0.93192 0.54461 0.0
O211 O 0.80285 0.90494 0.50749 0.0
O212 O 0.8338 0.88958 0.5156 0.0
Mg213 Mg 0.85467 0.90306 0.55293 0.0
C214 C 0.81669 0.89173 0.50092 0.0
C215 C 0.74767 0.94603 0.54778 0.0
O216 O 0.74878 0.93793 0.56811 0.0
O217 O 0.79626 0.90435 0.57505 0.0
O218 O 0.82797 0.8893 0.5777 0.0
O219 O 0.8311 0.96098 0.53121 0.0
O220 O 0.84223 0.93576 0.55147 0.0
C221 C 0.80879 0.89119 0.58489 0.0
C222 C 0.84831 0.95327 0.54053 0.0
O223 O 0.7645 0.94441 0.53548 0.0
Mg224 Mg 0.93031 0.04877 0.21453 0.0
O225 O 0.91371 0.01136 0.22102 0.0
O226 O 0.90145 0.01565 0.25619 0.0
Mg227 Mg 0.91026 0.05367 0.2721 0.0
C228 C 0.90377 1.00295 0.23767 0.0
C229 C 0.94468 0.02252 0.17189 0.0
O230 O 0.95283 0.01235 0.18921 0.0
O231 O 0.89444 0.0566 0.2062 0.0
O232 O 0.88406 0.05966 0.24224 0.0
O233 O 0.96414 0.04495 0.23242 0.0
O234 O 0.93828 0.05917 0.25062 0.0
C235 C 0.8799 0.06001 0.22008 0.0
C236 C 0.95747 0.05212 0.2519 0.0
O237 O 0.93202 0.03698 0.1762 0.0
Mg238 Mg 0.30073 0.69447 0.5162 0.0
O239 O 0.30583 0.71849 0.55196 0.0
O240 O 0.33946 0.74387 0.55355 0.0
Mg241 Mg 0.3545 0.73725 0.51892 0.0
C242 C 0.32175 0.73539 0.56291 0.0
C243 C 0.25072 0.66716 0.50178 0.0
O244 O 0.25932 0.66585 0.48185 0.0
O245 O 0.29028 0.72112 0.49353 0.0
O246 O 0.32459 0.74469 0.49289 0.0
O247 O 0.32094 0.67112 0.53297 0.0
O248 O 0.33638 0.70025 0.51484 0.0
C249 C 0.30285 0.73783 0.48547 0.0
C250 C 0.33912 0.68312 0.52617 0.0
O251 O 0.26342 0.6791 0.52004 0.0
Mg252 Mg 0.43406 0.54051 0.71353 0.0
O253 O 0.41783 0.5064 0.72725 0.0
O254 O 0.41522 0.51604 0.76525 0.0
Mg255 Mg 0.42925 0.55505 0.77566 0.0
C256 C 0.41222 0.50096 0.74696 0.0
C257 C 0.43648 0.5063 0.67149 0.0
O258 O 0.44373 0.49624 0.68931 0.0
O259 O 0.39974 0.55218 0.71215 0.0
O260 O 0.39858 0.56108 0.75062 0.0
O261 O 0.46909 0.53454 0.72434 0.0
O262 O 0.45068 0.55466 0.74729 0.0
C263 C 0.3898 0.5594 0.72904 0.0
C264 C 0.46825 0.5454 0.74478 0.0
O265 O 0.42659 0.52319 0.67563 0.0
Mg266 Mg 0.59653 0.94387 0.75103 0.0
O267 O 0.6095 0.98332 0.76166 0.0
O268 O 0.61174 0.99247 0.80049 0.0
Mg269 Mg 0.60025 0.95776 0.81471 0.0
C270 C 0.6143 0.99833 0.78014 0.0
C271 C 0.58932 0.9407 0.69819 0.0
O272 O 0.57085 0.92628 0.70251 0.0
O273 O 0.63241 0.93948 0.76485 0.0
O274 O 0.63334 0.94779 0.80374 0.0
O275 O 0.56026 0.94827 0.74774 0.0
O276 O 0.57986 0.94145 0.78044 0.0
C277 C 0.64284 0.94201 0.78591 0.0
C278 C 0.56139 0.94627 0.76992 0.0
O279 O 0.60564 0.94912 0.71498 0.0
Mg280 Mg 0.83949 0.66272 0.02333 0.0
O281 O 0.84231 0.68804 0.06045 0.0
O282 O 0.87325 0.71664 0.06274 0.0
Mg283 Mg 0.89301 0.70667 0.03074 0.0
C284 C 0.85557 0.707 0.0716 0.0
C285 C 0.78302 0.63051 0.01384 0.0
O286 O 0.79068 0.61901 0.99678 0.0
O287 O 0.83412 0.68934 0.9927 0.0
O288 O 0.86861 0.71389 0.99807 0.0
O289 O 0.86284 0.63917 0.04172 0.0
O290 O 0.87867 0.66718 0.02406 0.0
C291 C 0.84843 0.70634 0.98598 0.0
C292 C 0.88168 0.64996 0.03526 0.0
O293 O 0.79748 0.64814 0.02636 0.0
Mg294 Mg 0.02427 0.60082 0.80603 0.0
O295 O 1.00304 0.57112 0.82153 0.0
O296 O 0.99266 0.5828 0.85589 0.0
Mg297 Mg 1.00676 0.62238 0.86158 0.0
C298 C 0.99294 0.56677 0.8393 0.0
C299 C 0.0264 0.55599 0.77622 0.0
O300 O 0.03521 0.55351 0.79752 0.0
O301 O 0.9908 0.61212 0.79422 0.0
O302 O 0.98134 0.62469 0.82895 0.0
O303 O 0.05626 0.59574 0.82642 0.0
O304 O 0.03466 0.61915 0.84002 0.0
C305 C 0.97722 0.62067 0.80647 0.0
C306 C 0.05159 0.60876 0.84391 0.0
O307 O 0.02019 0.57495 0.77282 0.0
Mg308 Mg 0.82075 0.39659 0.54539 0.0
O309 O 0.81407 0.37361 0.50863 0.0
O310 O 0.84245 0.35385 0.5097 0.0
Mg311 Mg 0.86763 0.36565 0.54441 0.0
C312 C 0.82443 0.35887 0.49892 0.0
C313 C 0.78075 0.41314 0.56251 0.0
O314 O 0.79585 0.41309 0.58105 0.0
O315 O 0.81015 0.36609 0.56621 0.0
O316 O 0.84136 0.35042 0.56866 0.0
O317 O 0.84116 0.42551 0.53017 0.0
O318 O 0.85655 0.39932 0.5472 0.0
C319 C 0.82159 0.35191 0.57457 0.0
C320 C 0.85935 0.41745 0.53629 0.0
O321 O 0.78466 0.40485 0.54246 0.0
Mg322 Mg 0.73628 0.55625 0.34847 0.0
O323 O 0.75113 0.59525 0.35374 0.0
O324 O 0.7691 0.60831 0.39023 0.0
Mg325 Mg 0.76422 0.57574 0.40934 0.0
C326 C 0.7625 0.61176 0.3693 0.0
C327 C 0.71965 0.57304 0.3037 0.0
O328 O 0.71357 0.5861 0.32071 0.0
O329 O 0.77259 0.55047 0.34854 0.0
O330 O 0.78827 0.56 0.38643 0.0
O331 O 0.7034 0.56202 0.35861 0.0
O332 O 0.73281 0.55814 0.38415 0.0
C333 C 0.78938 0.55238 0.36508 0.0
C334 C 0.71242 0.56262 0.38023 0.0
O335 O 0.73036 0.55725 0.30889 0.0
Tb336 Tb 0.03641 0.04456 0.9876 0.0
Eu337 Eu 0.08668 0.05884 0.02245 0.0
C338 C 0.08238 0.05432 0.9664 0.0
C339 C 0.06305 0.00692 1.00377 0.0
C340 C 0.98059 0.05467 0.96651 0.0
C341 C 0.94321 0.06113 0.97533 0.0
C342 C 0.95751 0.04588 0.96934 0.0
C343 C 0.98889 0.07902 0.96907 0.0
C344 C 0.97465 0.09423 0.97504 0.0
C345 C 0.95175 0.08551 0.97872 0.0
C346 C 0.9968 0.03879 0.96437 0.0
O347 O 0.03012 0.05734 0.02232 0.0
O348 O 0.0586 0.04433 0.04319 0.0
O349 O 0.0736 0.09207 0.02553 0.0
O350 O 0.04824 0.08219 0.99068 0.0
C351 C 0.03811 0.04947 0.04123 0.0
O352 O 0.1069 0.05614 0.05579 0.0
O353 O 0.12413 0.07258 0.02902 0.0
O354 O 0.09204 0.0675 0.98628 0.0
O355 O 0.06225 0.03964 0.96484 0.0
O356 O 0.04271 0.01251 1.00046 0.0
O357 O 0.08198 0.02263 1.00378 0.0
C358 C 0.05966 0.09743 0.00858 0.0
O359 O 0.01587 0.0469 0.95609 0.0
O360 O 1.0009 0.02855 0.98286 0.0
C361 C 0.14298 0.04754 0.05013 0.0
C362 C 0.1709 0.01408 0.05309 0.0
C363 C 0.16277 0.02333 0.07321 0.0
C364 C 0.14904 0.03993 0.07174 0.0
C365 C 0.15111 0.03842 0.03001 0.0
C366 C 0.16501 0.02199 0.0315 0.0
C367 C 0.12667 0.06339 0.04849 0.0
H368 H 0.92554 0.0538 0.97765 0.0
H369 H 0.95077 0.02721 0.9677 0.0
H370 H 1.00671 0.08642 0.96735 0.0
H371 H 0.98193 0.11283 0.97772 0.0
H372 H 0.1666 0.01742 0.09006 0.0
H373 H 0.14273 0.04646 0.08743 0.0
H374 H 0.14654 0.04373 0.013 0.0
H375 H 0.17122 0.0156 0.01571 0.0
Tb376 Tb 0.3005 0.81053 0.2926 0.0
Eu377 Eu 0.27218 0.75887 0.26533 0.0
C378 C 0.24986 0.80432 0.26667 0.0
C379 C 0.27418 0.77415 0.32107 0.0
C380 C 0.33432 0.87236 0.31571 0.0
C381 C 0.34805 0.91142 0.337 0.0
C382 C 0.3357 0.88846 0.33579 0.0
C383 C 0.34459 0.8797 0.29636 0.0
C384 C 0.357 0.90268 0.29757 0.0
C385 C 0.3593 0.91864 0.31813 0.0
C386 C 0.32421 0.8477 0.31659 0.0
O387 O 0.31864 0.7835 0.30192 0.0
O388 O 0.31041 0.76061 0.26667 0.0
O389 O 0.28438 0.7782 0.236 0.0
O390 O 0.30784 0.81244 0.25636 0.0
C391 C 0.32408 0.76829 0.28655 0.0
O392 O 0.27003 0.72147 0.2585 0.0
O393 O 0.24308 0.73634 0.2413 0.0
O394 O 0.24606 0.78175 0.26797 0.0
O395 O 0.27064 0.81792 0.27201 0.0
O396 O 0.27774 0.79578 0.3165 0.0
O397 O 0.27381 0.75682 0.30457 0.0
C398 C 0.29873 0.79846 0.23659 0.0
O399 O 0.30171 0.84153 0.31491 0.0
O400 O 0.33303 0.8322 0.305 0.0
C401 C 0.23274 0.69674 0.24777 0.0
C402 C 0.20221 0.65436 0.25134 0.0
C403 C 0.20275 0.66315 0.22965 0.0
C404 C 0.2179 0.6841 0.22791 0.0
C405 C 0.23169 0.68856 0.26966 0.0
C406 C 0.21657 0.66753 0.27142 0.0
C407 C 0.25021 0.71731 0.24475 0.0
H408 H 0.34916 0.92339 0.3529 0.0
H409 H 0.32785 0.88306 0.35089 0.0
H410 H 0.34374 0.8675 0.28069 0.0
H411 H 0.36564 0.90763 0.2828 0.0
H412 H 0.19164 0.6537 0.21394 0.0
H413 H 0.21843 0.69017 0.21088 0.0
H414 H 0.243 0.69806 0.28525 0.0
H415 H 0.21674 0.6612 0.28836 0.0
Tb416 Tb 0.55077 0.02645 0.52025 0.0
Eu417 Eu 0.58625 0.07601 0.53743 0.0
C418 C 0.56962 0.04044 0.57192 0.0
C419 C 0.52918 0.0731 0.53009 0.0
C420 C 0.52198 0.9649 0.49364 0.0
C421 C 0.49844 0.92963 0.47046 0.0
C422 C 0.50043 0.95199 0.48223 0.0
C423 C 0.54178 0.95552 0.49247 0.0
C424 C 0.5398 0.93303 0.48069 0.0
C425 C 0.518 0.91968 0.46998 0.0
C426 C 0.52297 0.98758 0.50738 0.0
O427 O 0.56675 0.03547 0.4896 0.0
O428 O 0.57489 0.07507 0.49884 0.0
O429 O 0.61083 0.0512 0.52886 0.0
O430 O 0.58518 0.01594 0.52686 0.0
C431 C 0.57147 0.0564 0.48332 0.0
O432 O 0.61172 0.10657 0.53183 0.0
O433 O 0.60237 0.10284 0.56665 0.0
O434 O 0.58797 0.05325 0.56591 0.0
O435 O 0.55026 0.03564 0.55741 0.0
O436 O 0.52662 0.0513 0.51966 0.0
O437 O 0.55014 0.08482 0.54013 0.0
C438 C 0.60689 0.02809 0.52793 0.0
O439 O 0.53697 0.99274 0.52727 0.0
O440 O 0.52378 1.00537 0.49568 0.0
C441 C 0.61061 0.14066 0.55677 0.0
C442 C 0.60481 0.18641 0.56893 0.0
C443 C 0.62716 0.18177 0.56949 0.0
C444 C 0.63002 0.15902 0.56354 0.0
C445 C 0.58833 0.14531 0.55517 0.0
C446 C 0.58543 0.16796 0.56128 0.0
C447 C 0.61353 0.11651 0.5535 0.0
H448 H 0.48149 0.91999 0.46198 0.0
H449 H 0.48501 0.95906 0.48281 0.0
H450 H 0.55863 0.96533 0.50109 0.0
H451 H 0.55515 0.92581 0.48068 0.0
H452 H 0.64245 0.19562 0.57488 0.0
H453 H 0.64734 0.15568 0.56484 0.0
H454 H 0.57314 0.13128 0.55004 0.0
H455 H 0.56797 0.17077 0.56091 0.0
Tb456 Tb 0.29961 0.29846 0.77294 0.0
Eu457 Eu 0.3498 0.29167 0.79339 0.0
C458 C 0.34355 0.33697 0.77024 0.0
C459 C 0.32961 0.27588 0.73748 0.0
C460 C 0.23694 0.29428 0.76601 0.0
C461 C 0.19497 0.28693 0.76035 0.0
C462 C 0.21605 0.29467 0.75225 0.0
C463 C 0.23665 0.28619 0.78797 0.0
C464 C 0.21564 0.27858 0.79613 0.0
C465 C 0.19458 0.27877 0.78237 0.0
C466 C 0.25904 0.30164 0.75732 0.0
O467 O 0.29426 0.26275 0.78123 0.0
O468 O 0.32526 0.26632 0.80965 0.0
O469 O 0.33921 0.31338 0.82432 0.0
O470 O 0.30019 0.30746 0.81185 0.0
C471 C 0.3048 0.25512 0.79908 0.0
O472 O 0.37457 0.26933 0.79857 0.0
O473 O 0.38458 0.30623 0.81206 0.0
O474 O 0.35632 0.32141 0.77191 0.0
O475 O 0.32204 0.33252 0.77429 0.0
O476 O 0.31588 0.29079 0.74062 0.0
O477 O 0.34108 0.27022 0.75629 0.0
C478 C 0.31825 0.31528 0.82868 0.0
O479 O 0.27402 0.31831 0.77088 0.0
O480 O 0.26859 0.28475 0.74995 0.0
C481 C 0.41212 0.28971 0.79506 0.0
C482 C 0.44942 0.30435 0.77061 0.0
C483 C 0.45247 0.30811 0.79536 0.0
C484 C 0.43389 0.30085 0.8075 0.0
C485 C 0.40941 0.28471 0.77044 0.0
C486 C 0.42795 0.29183 0.75834 0.0
C487 C 0.39166 0.28695 0.80721 0.0
H488 H 0.179 0.28744 0.74947 0.0
H489 H 0.21605 0.30082 0.73522 0.0
H490 H 0.25267 0.28557 0.79871 0.0
H491 H 0.21587 0.27208 0.81299 0.0
H492 H 0.46875 0.31787 0.80529 0.0
H493 H 0.43617 0.30511 0.82648 0.0
H494 H 0.39267 0.27634 0.76044 0.0
H495 H 0.42521 0.28835 0.73929 0.0
Tb496 Tb 0.06595 0.03351 0.51512 0.0
Eu497 Eu 0.0695 0.06277 0.565 0.0
C498 C 0.11519 0.06325 0.53886 0.0
C499 C 0.07017 0.0063 0.56166 0.0
C500 C 0.05164 0.01391 0.45119 0.0
C501 C 0.05301 0.01442 0.40944 0.0
C502 C 0.06271 0.01037 0.43143 0.0
C503 C 0.03059 0.02129 0.44872 0.0
C504 C 0.02078 0.02514 0.42673 0.0
C505 C 0.03201 0.02201 0.40688 0.0
C506 C 0.06303 0.0115 0.47445 0.0
O507 O 0.02905 0.0331 0.51892 0.0
O508 O 0.03321 0.03914 0.55892 0.0
O509 O 0.05993 0.08859 0.53989 0.0
O510 O 0.06645 0.06961 0.50546 0.0
C511 C 0.01987 0.03138 0.53861 0.0
O512 O 0.05469 0.07999 0.59332 0.0
O513 O 0.09169 0.08181 0.59638 0.0
O514 O 0.104 0.07575 0.55162 0.0
O515 O 0.1038 0.04265 0.52783 0.0
O516 O 0.06557 1.00536 0.53845 0.0
O517 O 0.07508 0.02696 0.57496 0.0
C518 C 0.06272 0.08874 0.51744 0.0
O519 O 0.08003 0.02877 0.4837 0.0
O520 O 0.04954 1.00492 0.48976 0.0
C521 C 0.07587 0.08215 0.63145 0.0
C522 C 0.0912 0.07712 0.67829 0.0
C523 C 0.08609 0.05776 0.66052 0.0
C524 C 0.07848 0.06027 0.63728 0.0
C525 C 0.07876 0.10091 0.64937 0.0
C526 C 0.08624 0.09839 0.67266 0.0
C527 C 0.07467 0.08666 0.60687 0.0
H528 H 0.06229 0.01217 0.39461 0.0
H529 H 0.07911 1.00496 0.43312 0.0
H530 H 0.02186 0.02436 0.46383 0.0
H531 H 1.0044 0.03059 0.42532 0.0
H532 H 0.08986 0.04116 0.66407 0.0
H533 H 0.0764 0.0456 0.62362 0.0
H534 H 0.0768 0.11793 0.64516 0.0
H535 H 0.08957 0.11352 0.68598 0.0
Tb536 Tb 0.30845 0.77445 0.78515 0.0
Eu537 Eu 0.32678 0.82769 0.77762 0.0
C538 C 0.31503 0.8143 0.82798 0.0
C539 C 0.27193 0.80258 0.7629 0.0
C540 C 0.28994 0.70965 0.77489 0.0
C541 C 0.28941 0.66829 0.77178 0.0
C542 C 0.28874 0.68917 0.78525 0.0
C543 C 0.29017 0.70879 0.75054 0.0
C544 C 0.29068 0.68783 0.73696 0.0
C545 C 0.29127 0.66752 0.74761 0.0
C546 C 0.2946 0.73203 0.7902 0.0
O547 O 0.32183 0.77197 0.75125 0.0
O548 O 0.31812 0.80757 0.74115 0.0
O549 O 0.36012 0.81434 0.7867 0.0
O550 O 0.34443 0.78358 0.80478 0.0
C551 C 0.32008 0.78607 0.73526 0.0
O552 O 0.32046 0.86257 0.77716 0.0
O553 O 0.35299 0.85569 0.76822 0.0
O554 O 0.3288 0.82819 0.81688 0.0
O555 O 0.30161 0.79472 0.81681 0.0
O556 O 0.27835 0.78236 0.76294 0.0
O557 O 0.28704 0.82196 0.77219 0.0
C558 C 0.36292 0.79828 0.80043 0.0
O559 O 0.31618 0.74304 0.79374 0.0
O560 O 0.28077 0.74608 0.78607 0.0
C561 C 0.35258 0.89349 0.78676 0.0
C562 C 0.36271 0.93648 0.81633 0.0
C563 C 0.36441 0.9157 0.82571 0.0
C564 C 0.3592 0.89431 0.81102 0.0
C565 C 0.35314 0.91427 0.77708 0.0
C566 C 0.35816 0.93559 0.79168 0.0
C567 C 0.34089 0.87147 0.77217 0.0
H568 H 0.2902 0.65324 0.78079 0.0
H569 H 0.28878 0.68961 0.80407 0.0
H570 H 0.29119 0.72455 0.74229 0.0
H571 H 0.29175 0.68782 0.71836 0.0
H572 H 0.36829 0.91575 0.84452 0.0
H573 H 0.3588 0.87832 0.81877 0.0
H574 H 0.34791 0.91389 0.75838 0.0
H575 H 0.35637 0.95102 0.78367 0.0
Tb576 Tb 0.57362 0.04098 0.05544 0.0
Eu577 Eu 0.54457 0.0488 0.00653 0.0
C578 C 0.56316 0.99909 0.01082 0.0
C579 C 0.60008 0.0651 0.01626 0.0
C580 C 0.59603 0.02043 0.11181 0.0
C581 C 0.61457 0.01402 0.14954 0.0
C582 C 0.61584 0.02376 0.12859 0.0
C583 C 0.57577 1.00483 0.11474 0.0
C584 C 0.57442 0.99524 0.13573 0.0
C585 C 0.59331 1.00117 0.15409 0.0
C586 C 0.59547 0.03673 0.09439 0.0
O587 O 0.56404 0.07583 0.064 0.0
O588 O 0.55082 0.08502 0.02793 0.0
O589 O 0.52114 0.04175 0.03393 0.0
O590 O 0.53987 0.01764 0.05236 0.0
C591 C 0.55717 0.0911 0.05082 0.0
O592 O 0.53776 0.06416 0.9743 0.0
O593 O 0.51057 0.03911 0.98524 0.0
O594 O 0.55211 0.01193 0.99794 0.0
O595 O 0.57252 0.00729 0.03298 0.0
O596 O 0.59992 0.06024 0.03788 0.0
O597 O 0.58141 0.06087 1.00057 0.0
C598 C 0.52054 0.02358 0.04508 0.0
O599 O 0.60207 0.03126 0.07419 0.0
O600 O 0.57707 0.04561 0.0921 0.0
C601 C 0.51116 0.03871 0.94488 0.0
C602 C 0.50076 0.01425 0.89912 0.0
C603 C 0.51371 1.00596 0.91707 0.0
C604 C 0.51888 0.0181 0.93973 0.0
C605 C 0.49799 0.04699 0.92724 0.0
C606 C 0.49286 0.03486 0.90442 0.0
C607 C 0.51681 0.05139 0.96871 0.0
H608 H 0.62959 0.01846 0.16306 0.0
H609 H 0.63172 0.03558 0.12645 0.0
H610 H 0.56034 1.00189 0.10183 0.0
H611 H 0.55772 0.98543 0.13845 0.0
H612 H 0.52059 0.99049 0.91346 0.0
H613 H 0.52915 0.01153 0.95317 0.0
H614 H 0.49187 0.06289 0.93107 0.0
H615 H 0.48291 0.04166 0.89091 0.0
Tb616 Tb 0.32658 0.31868 0.29629 0.0
Eu617 Eu 0.30716 0.26815 0.26867 0.0
C618 C 0.3284 0.2746 0.32534 0.0
C619 C 0.3614 0.29365 0.26778 0.0
C620 C 0.32671 0.3788 0.31792 0.0
C621 C 0.30489 0.40271 0.33907 0.0
C622 C 0.32151 0.38897 0.33919 0.0
C623 C 0.31636 0.38404 0.29657 0.0
C624 C 0.29984 0.39773 0.29644 0.0
C625 C 0.29324 0.40649 0.31764 0.0
C626 C 0.33931 0.35972 0.31795 0.0
O627 O 0.31053 0.32711 0.26185 0.0
O628 O 0.30525 0.29167 0.23938 0.0
O629 O 0.2737 0.278 0.27888 0.0
O630 O 0.29034 0.31048 0.30515 0.0
C631 C 0.30649 0.3144 0.24074 0.0
O632 O 0.30629 0.24229 0.23831 0.0
O633 O 0.28513 0.23316 0.2651 0.0
O634 O 0.31514 0.2611 0.30703 0.0
O635 O 0.33791 0.29649 0.32293 0.0
O636 O 0.3562 0.31305 0.27733 0.0
O637 O 0.34655 0.27355 0.26717 0.0
C638 C 0.27183 0.294 0.29602 0.0
O639 O 0.32961 0.34191 0.32737 0.0
O640 O 0.34609 0.35299 0.29825 0.0
C641 C 0.30585 0.2059 0.25068 0.0
C642 C 0.33831 0.17755 0.25693 0.0
C643 C 0.32727 0.17864 0.23425 0.0
C644 C 0.31119 0.19279 0.23116 0.0
C645 C 0.31554 0.20342 0.2734 0.0
C646 C 0.33157 0.1894 0.27649 0.0
C647 C 0.29431 0.22536 0.24733 0.0
H648 H 0.30042 0.40948 0.35569 0.0
H649 H 0.32923 0.38509 0.35585 0.0
H650 H 0.31984 0.37634 0.27984 0.0
H651 H 0.29106 0.39997 0.27958 0.0
H652 H 0.33185 0.16944 0.21885 0.0
H653 H 0.30404 0.19462 0.21348 0.0
H654 H 0.31201 0.21356 0.28881 0.0
H655 H 0.33988 0.18931 0.29419 0.0
Tb656 Tb 0.56181 0.53015 0.00553 0.0
Eu657 Eu 0.56457 0.55887 0.05524 0.0
C658 C 0.61184 0.56059 0.02984 0.0
C659 C 0.56649 0.50213 0.05053 0.0
C660 C 0.55825 0.51638 0.94113 0.0
C661 C 0.56375 0.50727 0.90049 0.0
C662 C 0.56459 0.50172 0.92349 0.0
C663 C 0.55252 0.53737 0.93589 0.0
C664 C 0.55129 0.54272 0.91294 0.0
C665 C 0.55617 0.52738 0.89473 0.0
C666 C 0.55573 0.50889 0.96432 0.0
O667 O 0.52807 0.51704 0.018 0.0
O668 O 0.52549 0.54876 0.04261 0.0
O669 O 0.55975 0.58707 0.03158 0.0
O670 O 0.56024 0.56615 0.996 0.0
C671 C 0.51543 0.52844 0.03024 0.0
O672 O 0.55639 0.56032 0.09118 0.0
O673 O 0.57748 0.59047 0.08041 0.0
O674 O 0.60297 0.56349 0.04962 0.0
O675 O 0.59841 0.54915 0.01061 0.0
O676 O 0.5702 0.50359 0.02844 0.0
O677 O 0.56262 0.5207 0.06319 0.0
C678 C 0.55987 0.58633 0.00864 0.0
O679 O 0.57473 0.51116 0.97899 0.0
O680 O 0.53942 0.51585 0.97452 0.0
C681 C 0.58841 0.58118 0.11769 0.0
C682 C 0.62388 0.58219 0.15477 0.0
C683 C 0.60667 0.59508 0.15782 0.0
C684 C 0.58904 0.59457 0.13935 0.0
C685 C 0.60554 0.56836 0.11454 0.0
C686 C 0.62314 0.56888 0.1329 0.0
C687 C 0.57028 0.58059 0.09806 0.0
H688 H 0.56822 0.49533 0.88709 0.0
H689 H 0.56934 0.48558 0.9273 0.0
H690 H 0.54775 0.5491 0.94928 0.0
H691 H 0.5451 0.55821 0.90938 0.0
H692 H 0.60661 0.60524 0.17457 0.0
H693 H 0.5759 0.60454 0.14199 0.0
H694 H 0.6053 0.55798 0.09782 0.0
H695 H 0.63628 0.55901 0.12991 0.0
Tb696 Tb 0.8064 0.26982 0.2811 0.0
Eu697 Eu 0.82696 0.32315 0.27543 0.0
C698 C 0.81023 0.30971 0.32424 0.0
C699 C 0.77181 0.30015 0.25931 0.0
C700 C 0.78592 0.20554 0.26837 0.0
C701 C 0.78446 0.16402 0.26221 0.0
C702 C 0.78542 0.18439 0.27733 0.0
C703 C 0.78403 0.20593 0.24396 0.0
C704 C 0.78303 0.18553 0.22876 0.0
C705 C 0.78403 0.16448 0.23781 0.0
C706 C 0.79091 0.22727 0.28474 0.0
O707 O 0.80709 0.26819 0.24322 0.0
O708 O 0.83355 0.30205 0.24272 0.0
O709 O 0.85465 0.31268 0.30069 0.0
O710 O 0.84505 0.27418 0.28609 0.0
C711 C 0.82093 0.28195 0.23202 0.0
O712 O 0.82279 0.35799 0.26998 0.0
O713 O 0.85702 0.35026 0.27198 0.0
O714 O 0.81269 0.32577 0.31004 0.0
O715 O 0.81028 0.28783 0.31691 0.0
O716 O 0.77476 0.28396 0.27288 0.0
O717 O 0.79011 0.31507 0.2551 0.0
C718 C 0.86027 0.29217 0.29852 0.0
O719 O 0.81265 0.23766 0.2895 0.0
O720 O 0.7779 0.24203 0.28066 0.0
C721 C 0.85434 0.38863 0.28595 0.0
C722 C 0.86562 0.43404 0.31086 0.0
C723 C 0.87453 0.42917 0.28979 0.0
C724 C 0.8688 0.40664 0.27737 0.0
C725 C 0.84713 0.39288 0.30796 0.0
C726 C 0.85266 0.41541 0.32029 0.0
C727 C 0.84494 0.36635 0.27079 0.0
H728 H 0.78566 0.14828 0.26991 0.0
H729 H 0.78697 0.18384 0.29614 0.0
H730 H 0.78431 0.22216 0.23675 0.0
H731 H 0.78249 0.18645 0.21008 0.0
H732 H 0.88493 0.44299 0.28227 0.0
H733 H 0.8747 0.40355 0.26049 0.0
H734 H 0.83609 0.37909 0.31495 0.0
H735 H 0.84528 0.41843 0.33631 0.0
Tb736 Tb 0.06878 0.53554 0.55004 0.0
Eu737 Eu 0.04585 0.54666 0.49987 0.0
C738 C 0.06106 0.49572 0.50389 0.0
C739 C 0.09986 0.56133 0.51605 0.0
C740 C 0.08119 0.50745 0.60285 0.0
C741 C 0.08399 0.49695 0.64223 0.0
C742 C 0.09362 0.50951 0.62535 0.0
C743 C 0.06064 0.49033 0.59632 0.0
C744 C 0.05091 0.47781 0.61324 0.0
C745 C 0.06162 0.48246 0.63682 0.0
C746 C 0.08645 0.52666 0.58896 0.0
O747 O 0.05742 0.5688 0.56006 0.0
O748 O 0.05213 0.5817 0.52417 0.0
O749 O 0.01718 0.53676 0.52151 0.0
O750 O 0.03422 0.51361 0.5437 0.0
C751 C 0.05443 0.58578 0.54742 0.0
O752 O 0.04478 0.56804 0.47135 0.0
O753 O 0.01655 0.53848 0.47157 0.0
O754 O 0.05077 0.50897 0.49087 0.0
O755 O 0.06992 0.50351 0.5262 0.0
O756 O 0.09549 0.56003 0.53763 0.0
O757 O 0.08402 0.55225 0.49793 0.0
C758 C 0.01559 0.51936 0.53394 0.0
O759 O 0.09451 0.52234 0.56929 0.0
O760 O 0.07019 0.53844 0.5865 0.0
C761 C 0.02468 0.54819 0.43453 0.0
C762 C 0.0216 0.53286 0.38611 0.0
C763 C 1.002 0.53728 0.39564 0.0
C764 C 1.00357 0.54496 0.41965 0.0
C765 C 0.04438 0.54407 0.42507 0.0
C766 C 0.04286 0.53658 0.40103 0.0
C767 C 0.0255 0.55496 0.45992 0.0
H768 H 0.0928 0.50101 0.66017 0.0
H769 H 0.10953 0.52263 0.63061 0.0
H770 H 0.05091 0.48844 0.57887 0.0
H771 H 0.03387 0.46645 0.60846 0.0
H772 H 0.98543 0.53466 0.38456 0.0
H773 H 0.98819 0.54804 0.42669 0.0
H774 H 0.0608 0.54623 0.4363 0.0
H775 H 0.05817 0.53292 0.39427 0.0
Tb776 Tb 0.80677 0.79984 0.27563 0.0
Eu777 Eu 0.8602 0.79881 0.29441 0.0
C778 C 0.84746 0.8403 0.26769 0.0
C779 C 0.83718 0.77856 0.23966 0.0
C780 C 0.74288 0.79064 0.27048 0.0
C781 C 0.70084 0.78161 0.26492 0.0
C782 C 0.72171 0.78974 0.25659 0.0
C783 C 0.74304 0.78346 0.29289 0.0
C784 C 0.72217 0.77541 0.30129 0.0
C785 C 0.70083 0.77429 0.28734 0.0
C786 C 0.76467 0.79878 0.26136 0.0
O787 O 0.8055 0.76574 0.28727 0.0
O788 O 0.83919 0.77276 0.31301 0.0
O789 O 0.84835 0.81952 0.32533 0.0
O790 O 0.80887 0.81072 0.31425 0.0
C791 C 0.81844 0.76034 0.30497 0.0
O792 O 0.88867 0.78042 0.29758 0.0
O793 O 0.89403 0.81643 0.31337 0.0
O794 O 0.86249 0.82715 0.27122 0.0
O795 O 0.82625 0.83437 0.27254 0.0
O796 O 0.8217 0.79154 0.24272 0.0
O797 O 0.85095 0.77543 0.25827 0.0
C798 C 0.82722 0.81991 0.33034 0.0
O799 O 0.77889 0.81676 0.27388 0.0
O800 O 0.77542 0.7826 0.25468 0.0
C801 C 0.92558 0.80492 0.29874 0.0
C802 C 0.96823 0.82209 0.2835 0.0
C803 C 0.96759 0.81114 0.30395 0.0
C804 C 0.94637 0.80271 0.31157 0.0
C805 C 0.92607 0.81482 0.27775 0.0
C806 C 0.94722 0.82333 0.2702 0.0
C807 C 0.9037 0.7989 0.30832 0.0
H808 H 0.6847 0.78123 0.25387 0.0
H809 H 0.72131 0.79525 0.23926 0.0
H810 H 0.7593 0.78394 0.3038 0.0
H811 H 0.72275 0.76966 0.31851 0.0
H812 H 0.9835 0.81004 0.31458 0.0
H813 H 0.94624 0.79518 0.32788 0.0
H814 H 0.91015 0.81663 0.26762 0.0
H815 H 0.94716 0.83135 0.25417 0.0
Tb816 Tb 0.79893 0.31671 0.78526 0.0
Eu817 Eu 0.76798 0.26368 0.76361 0.0
C818 C 0.74868 0.30976 0.76256 0.0
C819 C 0.77588 0.28244 0.8194 0.0
C820 C 0.84035 0.37659 0.80347 0.0
C821 C 0.85517 0.41851 0.81034 0.0
C822 C 0.83654 0.39933 0.80629 0.0
C823 C 0.8631 0.37327 0.80365 0.0
C824 C 0.88184 0.39255 0.80764 0.0
C825 C 0.87804 0.41533 0.81169 0.0
C826 C 0.82059 0.35715 0.80367 0.0
O827 O 0.82364 0.29518 0.77771 0.0
O828 O 0.80163 0.25996 0.78297 0.0
O829 O 0.78681 0.27674 0.73388 0.0
O830 O 0.79796 0.31628 0.74737 0.0
C831 C 0.82186 0.27371 0.78273 0.0
O832 O 0.76466 0.22777 0.74692 0.0
O833 O 0.73401 0.24058 0.75416 0.0
O834 O 0.75034 0.29061 0.74992 0.0
O835 O 0.76228 0.31707 0.78263 0.0
O836 O 0.79247 0.29953 0.81592 0.0
O837 O 0.76187 0.26866 0.8018 0.0
C838 C 0.79444 0.29857 0.73043 0.0
O839 O 0.80345 0.35321 0.78646 0.0
O840 O 0.82499 0.33793 0.81042 0.0
C841 C 0.73164 0.19981 0.75306 0.0
C842 C 0.70652 0.15604 0.76114 0.0
C843 C 0.71899 0.15785 0.74192 0.0
C844 C 0.73134 0.17951 0.7379 0.0
C845 C 0.72008 0.19801 0.77288 0.0
C846 C 0.70763 0.17632 0.77687 0.0
C847 C 0.74219 0.22265 0.74654 0.0
H848 H 0.85169 0.43587 0.8129 0.0
H849 H 0.81913 0.40225 0.8063 0.0
H850 H 0.86648 0.35585 0.80161 0.0
H851 H 0.89929 0.38959 0.80859 0.0
H852 H 0.71896 0.14255 0.72973 0.0
H853 H 0.74016 0.1805 0.72253 0.0
H854 H 0.72006 0.21344 0.78487 0.0
H855 H 0.69815 0.17562 0.79177 0.0
Tb856 Tb 0.83098 0.81926 0.79648 0.0
Eu857 Eu 0.80889 0.76882 0.76802 0.0
C858 C 0.83013 0.77448 0.82528 0.0
C859 C 0.86419 0.79382 0.766 0.0
C860 C 0.83274 0.87956 0.82021 0.0
C861 C 0.80208 0.8952 0.83601 0.0
C862 C 0.81817 0.88101 0.83754 0.0
C863 C 0.83268 0.89458 0.80287 0.0
C864 C 0.81661 0.90884 0.80138 0.0
C865 C 0.80039 0.90839 0.81725 0.0
C866 C 0.84511 0.86022 0.81813 0.0
O867 O 0.81794 0.82849 0.76127 0.0
O868 O 0.80366 0.79258 0.73948 0.0
O869 O 0.7768 0.77818 0.78225 0.0
O870 O 0.79397 0.81381 0.80359 0.0
C871 C 0.80924 0.81559 0.74064 0.0
O872 O 0.79815 0.74449 0.73528 0.0
O873 O 0.79541 0.73164 0.76848 0.0
O874 O 0.81851 0.76109 0.80602 0.0
O875 O 0.83879 0.79685 0.82419 0.0
O876 O 0.86217 0.81131 0.78157 0.0
O877 O 0.84654 0.77572 0.7597 0.0
C878 C 0.7755 0.79635 0.79725 0.0
O879 O 0.83711 0.84217 0.82816 0.0
O880 O 0.84952 0.85375 0.7972 0.0
C881 C 0.8089 0.70859 0.74025 0.0
C882 C 0.83954 0.67786 0.74147 0.0
C883 C 0.84664 0.70042 0.73545 0.0
C884 C 0.83147 0.71566 0.73491 0.0
C885 C 0.80115 0.68551 0.74433 0.0
C886 C 0.81633 0.67023 0.74488 0.0
C887 C 0.79524 0.72609 0.74608 0.0
H888 H 0.78983 0.89441 0.84852 0.0
H889 H 0.81802 0.86994 0.85135 0.0
H890 H 0.84402 0.89423 0.78953 0.0
H891 H 0.81607 0.91925 0.78706 0.0
H892 H 0.86442 0.70697 0.73293 0.0
H893 H 0.83794 0.73343 0.73186 0.0
H894 H 0.78384 0.67976 0.74861 0.0
H895 H 0.81025 0.65284 0.74921 0.0
Tb896 Tb 0.55384 0.56271 0.50883 0.0
Eu897 Eu 0.59728 0.57178 0.55315 0.0
C898 C 0.60647 0.57127 0.50023 0.0
C899 C 0.57892 0.52193 0.5175 0.0
C900 C 0.50086 0.57773 0.48483 0.0
C901 C 0.47336 0.60135 0.47363 0.0
C902 C 0.49002 0.58882 0.46785 0.0
C903 C 0.49486 0.5793 0.50764 0.0
C904 C 0.47825 0.59176 0.51343 0.0
C905 C 0.46737 0.60305 0.49656 0.0
C906 C 0.52052 0.56727 0.47992 0.0
O907 O 0.53861 0.54486 0.53595 0.0
O908 O 0.56406 0.56364 0.56899 0.0
O909 O 0.59246 0.60657 0.54271 0.0
O910 O 0.55496 0.59056 0.53667 0.0
C911 C 0.54424 0.54988 0.55891 0.0
O912 O 0.61134 0.56319 0.58699 0.0
O913 O 0.63218 0.58927 0.57016 0.0
O914 O 0.61285 0.56508 0.52064 0.0
O915 O 0.5857 0.57529 0.4944 0.0
O916 O 0.56498 0.52997 0.5025 0.0
O917 O 0.59037 0.53415 0.53735 0.0
C918 C 0.57121 0.60921 0.53828 0.0
O919 O 0.54049 0.58201 0.48417 0.0
O920 O 0.52153 0.54777 0.48837 0.0
C921 C 0.65006 0.56059 0.58594 0.0
C922 C 0.67767 0.52681 0.58255 0.0
C923 C 0.6672 0.53083 0.60282 0.0
C924 C 0.65355 0.54755 0.60448 0.0
C925 C 0.66113 0.55716 0.56604 0.0
C926 C 0.67483 0.54057 0.56441 0.0
C927 C 0.63219 0.57479 0.58579 0.0
H928 H 0.46521 0.60972 0.46017 0.0
H929 H 0.4948 0.5882 0.45029 0.0
H930 H 0.50354 0.57147 0.52123 0.0
H931 H 0.47446 0.59309 0.53136 0.0
H932 H 0.6688 0.52044 0.61705 0.0
H933 H 0.64491 0.54958 0.61983 0.0
H934 H 0.65861 0.56673 0.55129 0.0
H935 H 0.68297 0.53833 0.54876 0.0
Tb936 Tb 0.05094 0.53064 0.02837 0.0
Eu937 Eu 0.08264 0.57599 0.06051 0.0
C938 C 0.05828 0.53297 0.08278 0.0
C939 C 0.02726 0.57434 0.0439 0.0
C940 C 0.02652 0.47506 0.98638 0.0
C941 C 0.04125 0.44012 0.97709 0.0
C942 C 0.04298 0.46147 0.99105 0.0
C943 C 1.00934 0.46783 0.96673 0.0
C944 C 1.00766 0.44659 0.95275 0.0
C945 C 0.02306 0.4321 0.9583 0.0
C946 C 0.02523 0.49533 1.00295 0.0
O947 O 0.07379 0.54861 0.00634 0.0
O948 O 0.07495 0.58499 0.0241 0.0
O949 O 0.10918 0.55364 0.05109 0.0
O950 O 0.08447 0.51874 0.03544 0.0
C951 C 0.07643 0.57103 0.00548 0.0
O952 O 0.11071 0.60703 0.06462 0.0
O953 O 0.09262 0.59828 0.09412 0.0
O954 O 0.07787 0.54781 0.08339 0.0
O955 O 0.04269 0.52851 0.06396 0.0
O956 O 0.02788 0.55659 0.02788 0.0
O957 O 0.04533 0.58224 0.06061 0.0
C958 C 0.10594 0.53105 0.04305 0.0
O959 O 0.03365 0.49564 0.0249 0.0
O960 O 0.03024 0.51583 0.99604 0.0
C961 C 0.10528 0.63819 0.09106 0.0
C962 C 0.10199 0.68493 0.10252 0.0
C963 C 0.12338 0.67943 0.09891 0.0
C964 C 0.125 0.65625 0.09333 0.0
C965 C 0.08377 0.6436 0.09396 0.0
C966 C 0.08217 0.66674 0.09977 0.0
C967 C 0.10743 0.61386 0.086 0.0
H968 H 0.05332 0.42933 0.98187 0.0
H969 H 0.0565 0.4668 0.00608 0.0
H970 H 0.99658 0.47815 0.96278 0.0
H971 H 0.99374 0.44109 0.93811 0.0
H972 H 0.13891 0.69303 0.10041 0.0
H973 H 0.1417 0.65239 0.09093 0.0
H974 H 0.06824 0.62992 0.09209 0.0
H975 H 0.06548 0.67026 0.10267 0.0
H976 H 0.97875 0.18283 0.95213 0.0
H977 H 0.08896 0.13435 0.99641 0.0
H978 H 0.04494 0.20006 0.92718 0.0
H979 H 0.02158 0.11299 0.01723 0.0
H980 H 0.07626 0.16704 0.97991 0.0
H981 H 0.99676 0.16511 0.98368 0.0
C982 C 0.99713 0.18319 0.95344 0.0
C983 C 1.01023 0.19254 0.93664 0.0
C984 C 0.06447 0.1557 0.9888 0.0
C985 C 0.031 0.17232 0.97283 0.0
C986 C 0.07188 0.13731 0.99854 0.0
C987 C 0.0563 0.12126 0.00828 0.0
C988 C 0.04126 0.15765 0.98857 0.0
C989 C 0.03411 0.12527 0.01003 0.0
C990 C 1.00743 0.1731 0.97152 0.0
C991 C 0.03403 0.19267 0.93943 0.0
N992 N 0.02708 0.14284 0.99985 0.0
N993 N 0.04357 0.18244 0.95697 0.0
H994 H 0.17398 0.84559 0.15441 0.0
H995 H 0.24443 0.84909 0.27583 0.0
H996 H 0.17339 0.89953 0.21068 0.0
H997 H 0.21256 0.78306 0.23368 0.0
H998 H 0.2173 0.8676 0.25342 0.0
H999 H 0.18598 0.82141 0.18341 0.0
C1000 C 0.17569 0.85199 0.17298 0.0
C1001 C 0.17249 0.87439 0.18028 0.0
C1002 C 0.21587 0.84896 0.24944 0.0
C1003 C 0.18731 0.84742 0.21346 0.0
C1004 C 0.2314 0.83841 0.26215 0.0
C1005 C 0.23083 0.81455 0.25647 0.0
C1006 C 0.20012 0.8357 0.23045 0.0
C1007 C 0.21358 0.8015 0.23863 0.0
C1008 C 0.18258 0.83824 0.18951 0.0
C1009 C 0.17535 0.88215 0.20446 0.0
N1010 N 0.19924 0.81235 0.22586 0.0
N1011 N 0.18319 0.86891 0.22023 0.0
H1012 H 0.46444 0.77267 0.42705 0.0
H1013 H 0.54576 0.90064 0.44189 0.0
H1014 H 0.52595 0.7878 0.3935 0.0
H1015 H 0.48399 0.88249 0.47432 0.0
H1016 H 0.53989 0.85966 0.42447 0.0
H1017 H 0.47228 0.8131 0.44474 0.0
C1018 C 0.47965 0.78448 0.42337 0.0
C1019 C 0.49453 0.77672 0.40867 0.0
C1020 C 0.52765 0.86471 0.43539 0.0
C1021 C 0.50365 0.82346 0.42907 0.0
C1022 C 0.53104 0.88804 0.4454 0.0
C1023 C 0.51521 0.89504 0.45939 0.0
C1024 C 0.50838 0.84833 0.43953 0.0
C1025 C 0.49638 0.87803 0.46327 0.0
C1026 C 0.48413 0.80767 0.43354 0.0
C1027 C 0.51399 0.79299 0.40469 0.0
N1028 N 0.4935 0.85555 0.4534 0.0
N1029 N 0.51798 0.81564 0.41482 0.0
H1030 H 0.57966 0.36329 0.7253 0.0
H1031 H 0.44403 0.32681 0.73209 0.0
H1032 H 0.52675 0.38197 0.67784 0.0
H1033 H 0.49646 0.30767 0.77978 0.0
H1034 H 0.47421 0.34662 0.71173 0.0
H1035 H 0.54959 0.34306 0.7457 0.0
C1036 C 0.56171 0.3632 0.7192 0.0
C1037 C 0.55567 0.37419 0.69971 0.0
C1038 C 0.47915 0.33802 0.72658 0.0
C1039 C 0.52119 0.35098 0.72292 0.0
C1040 C 0.4619 0.3265 0.7381 0.0
C1041 C 0.46773 0.31539 0.75756 0.0
C1042 C 0.50247 0.33854 0.73459 0.0
C1043 C 0.49122 0.31612 0.76493 0.0
C1044 C 0.54455 0.35158 0.73082 0.0
C1045 C 0.53217 0.37351 0.69259 0.0
N1046 N 0.50776 0.32751 0.75342 0.0
N1047 N 0.51577 0.36205 0.70418 0.0
H1048 H 0.04397 0.85679 0.58625 0.0
H1049 H 0.07901 0.99937 0.60935 0.0
H1050 H 0.06964 0.89419 0.65555 0.0
H1051 H 0.05786 0.95943 0.54059 0.0
H1052 H 0.07554 0.9625 0.62673 0.0
H1053 H 0.04856 0.89402 0.57019 0.0
C1054 C 0.05061 0.87273 0.59833 0.0
C1055 C 0.05635 0.87149 0.62267 0.0
C1056 C 0.0717 0.96168 0.60782 0.0
C1057 C 0.06174 0.91586 0.60362 0.0
C1058 C 0.07373 0.983 0.59771 0.0
C1059 C 0.06892 0.98329 0.57306 0.0
C1060 C 0.06458 0.9397 0.59353 0.0
C1061 C 0.06199 0.96082 0.55952 0.0
C1062 C 0.05326 0.89432 0.58894 0.0
C1063 C 0.06489 0.89355 0.63678 0.0
N1064 N 0.06004 0.94047 0.56976 0.0
N1065 N 0.06722 0.91439 0.62719 0.0
H1066 H 0.48454 0.77044 0.8903 0.0
H1067 H 0.40621 0.82237 0.79246 0.0
H1068 H 0.51354 0.81166 0.8395 0.0
H1069 H 0.3764 0.77173 0.83491 0.0
H1070 H 0.44512 0.82047 0.81094 0.0
H1071 H 0.44537 0.77259 0.87236 0.0
C1072 C 0.48285 0.78012 0.87551 0.0
C1073 C 0.50294 0.79092 0.8667 0.0
C1074 C 0.43013 0.80972 0.81629 0.0
C1075 C 0.45718 0.79349 0.84563 0.0
C1076 C 0.40766 0.8108 0.80565 0.0
C1077 C 0.38739 0.79715 0.81179 0.0
C1078 C 0.433 0.79503 0.8337 0.0
C1079 C 0.39111 0.7826 0.82925 0.0
C1080 C 0.46026 0.78126 0.86513 0.0
C1081 C 0.49897 0.80302 0.84721 0.0
N1082 N 0.41312 0.78202 0.83946 0.0
N1083 N 0.47692 0.80399 0.83756 0.0
H1084 H 0.53771 0.23743 0.0728 0.0
H1085 H 0.56752 0.11244 0.09815 0.0
H1086 H 0.55986 0.22366 0.14262 0.0
H1087 H 0.5443 0.1277 0.02921 0.0
H1088 H 0.56541 0.15224 0.11478 0.0
H1089 H 0.54064 0.19789 0.05709 0.0
C1090 C 0.54331 0.22627 0.08499 0.0
C1091 C 0.54857 0.23466 0.10936 0.0
C1092 C 0.56076 0.14695 0.09599 0.0
C1093 C 0.55194 0.18791 0.09092 0.0
C1094 C 0.56198 0.12397 0.08636 0.0
C1095 C 0.5561 0.11596 0.06192 0.0
C1096 C 0.55362 0.16274 0.08136 0.0
C1097 C 0.54906 0.13245 0.04804 0.0
C1098 C 0.54495 0.20338 0.07587 0.0
C1099 C 0.55563 0.21858 0.12379 0.0
N1100 N 0.54806 0.15456 0.0578 0.0
N1101 N 0.55706 0.19637 0.11448 0.0
H1102 H 0.15738 0.30916 0.38316 0.0
H1103 H 0.22893 0.26309 0.28152 0.0
H1104 H 0.1285 0.25383 0.32614 0.0
H1105 H 0.26059 0.32159 0.33432 0.0
H1106 H 0.19268 0.25993 0.29857 0.0
H1107 H 0.19494 0.31429 0.3673 0.0
C1108 C 0.15869 0.29799 0.36746 0.0
C1109 C 0.13897 0.28092 0.3563 0.0
C1110 C 0.20745 0.27358 0.30653 0.0
C1111 C 0.18289 0.28685 0.33761 0.0
C1112 C 0.22844 0.27546 0.29662 0.0
C1113 C 0.24853 0.29277 0.30605 0.0
C1114 C 0.20574 0.28897 0.32651 0.0
C1115 C 0.24597 0.30797 0.32599 0.0
C1116 C 0.18036 0.30099 0.35827 0.0
C1117 C 0.1426 0.26729 0.33577 0.0
N1118 N 0.22537 0.3057 0.33539 0.0
N1119 N 0.16357 0.2705 0.32739 0.0
H1120 H 0.97747 0.99885 0.15955 0.0
H1121 H 0.99631 0.06124 0.04482 0.0
H1122 H 0.93506 0.04472 0.1337 0.0
H1123 H 0.04535 0.02604 0.07888 0.0
H1124 H 0.97091 0.05139 0.07426 0.0
H1125 H 0.99898 1.00368 0.12631 0.0
C1126 C 0.97241 0.00964 0.14669 0.0
C1127 C 0.95462 0.02164 0.1496 0.0
C1128 C 0.98723 0.04584 0.07528 0.0
C1129 C 0.97939 0.02746 0.11165 0.0
C1130 C 1.00178 0.05152 0.05854 0.0
C1131 C 0.02309 0.04462 0.05952 0.0
C1132 C 0.99394 0.03303 0.09303 0.0
C1133 C 0.0292 0.03192 0.07758 0.0
C1134 C 0.98483 0.01252 0.12779 0.0
C1135 C 0.94878 0.03529 0.13228 0.0
N1136 N 0.01469 0.02653 0.09361 0.0
N1137 N 0.96129 0.03801 0.11415 0.0
H1138 H 0.26554 0.71526 0.45292 0.0
H1139 H 0.28678 0.80637 0.36061 0.0
H1140 H 0.31909 0.77831 0.4673 0.0
H1141 H 0.26081 0.73248 0.33875 0.0
H1142 H 0.29031 0.79923 0.40163 0.0
H1143 H 0.25527 0.72471 0.41326 0.0
C1144 C 0.27476 0.73142 0.44802 0.0
C1145 C 0.29328 0.74602 0.4636 0.0
C1146 C 0.28361 0.78462 0.38787 0.0
C1147 C 0.28154 0.75681 0.41805 0.0
C1148 C 0.28142 0.78865 0.36437 0.0
C1149 C 0.2735 0.76997 0.34603 0.0
C1150 C 0.27748 0.76179 0.3933 0.0
C1151 C 0.26705 0.74741 0.35223 0.0
C1152 C 0.26902 0.73662 0.42525 0.0
C1153 C 0.30474 0.76653 0.45597 0.0
N1154 N 0.26917 0.74394 0.37532 0.0
N1155 N 0.29872 0.77129 0.43377 0.0
H1156 H 0.55388 0.93214 0.66149 0.0
H1157 H 0.6079 0.04475 0.60452 0.0
H1158 H 0.622 0.97542 0.68607 0.0
H1159 H 0.53779 1.00476 0.58377 0.0
H1160 H 0.61403 0.0185 0.63337 0.0
H1161 H 0.54906 0.95646 0.63044 0.0
C1162 C 0.56799 0.94651 0.66012 0.0
C1163 C 0.58826 0.95193 0.67659 0.0
C1164 C 0.59727 0.01554 0.62259 0.0
C1165 C 0.58268 0.98005 0.64136 0.0
C1166 C 0.59369 0.03062 0.60623 0.0
C1167 C 0.57229 0.02695 0.59173 0.0
C1168 C 0.57934 0.99659 0.62442 0.0
C1169 C 0.55454 0.00831 0.59466 0.0
C1170 C 0.56514 0.96051 0.6425 0.0
C1171 C 0.606 0.9707 0.67388 0.0
N1172 N 0.5585 0.99374 0.61061 0.0
N1173 N 0.60269 0.98423 0.65675 0.0
H1174 H 0.33943 0.36299 0.98138 0.0
H1175 H 0.28001 0.33062 0.8448 0.0
H1176 H 0.27921 0.38895 0.9575 0.0
H1177 H 0.34948 0.32537 0.87032 0.0
H1178 H 0.27651 0.34842 0.88475 0.0
H1179 H 0.34007 0.34595 0.94135 0.0
C1180 C 0.32603 0.36513 0.96791 0.0
C1181 C 0.30917 0.37785 0.97384 0.0
C1182 C 0.29254 0.3434 0.88166 0.0
C1183 C 0.30995 0.35735 0.92595 0.0
C1184 C 0.29458 0.33306 0.85864 0.0
C1185 C 0.31518 0.32618 0.85348 0.0
C1186 C 0.31104 0.34679 0.90037 0.0
C1187 C 0.33321 0.33017 0.87278 0.0
C1188 C 0.32656 0.35525 0.94461 0.0
C1189 C 0.29261 0.37946 0.95453 0.0
N1190 N 0.33066 0.33985 0.89487 0.0
N1191 N 0.29339 0.3694 0.93181 0.0
H1192 H 0.95238 0.07141 0.29563 0.0
H1193 H 0.03119 0.9981 0.36317 0.0
H1194 H 0.99066 0.02691 0.26012 0.0
H1195 H 1.01016 0.05748 0.39767 0.0
H1196 H 0.01457 0.00678 0.32528 0.0
H1197 H 0.97146 0.06488 0.33346 0.0
C1198 C 0.96484 0.06031 0.29581 0.0
C1199 C 0.96988 0.04958 0.27476 0.0
C1200 C 1.01368 0.01794 0.34116 0.0
C1201 C 0.99163 0.04198 0.31785 0.0
C1202 C 0.02324 0.01306 0.3628 0.0
C1203 C 0.02203 0.02703 0.38369 0.0
C1204 C 1.00265 0.03681 0.3404 0.0
C1205 C 1.01112 0.04594 0.3821 0.0
C1206 C 0.97577 0.05667 0.31738 0.0
C1207 C 0.9863 0.03554 0.27596 0.0
N1208 N 1.00177 0.05021 0.36084 0.0
N1209 N 0.99647 0.03199 0.29718 0.0
H1210 H 0.35839 0.74957 0.5982 0.0
H1211 H 0.29329 0.79619 0.69778 0.0
H1212 H 0.28393 0.73919 0.58543 0.0
H1213 H 0.3453 0.75693 0.7149 0.0
H1214 H 0.29277 0.7833 0.65574 0.0
H1215 H 0.35748 0.7605 0.64028 0.0
C1216 C 0.34186 0.74988 0.60418 0.0
C1217 C 0.32119 0.74357 0.58817 0.0
C1218 C 0.30424 0.77749 0.66872 0.0
C1219 C 0.32015 0.75636 0.63636 0.0
C1220 C 0.30465 0.7849 0.69268 0.0
C1221 C 0.3194 0.77764 0.70988 0.0
C1222 C 0.31926 0.76335 0.66179 0.0
C1223 C 0.33363 0.76287 0.70224 0.0
C1224 C 0.34137 0.7559 0.62823 0.0
C1225 C 0.30026 0.74396 0.59709 0.0
N1226 N 0.33349 0.75651 0.67875 0.0
N1227 N 0.30029 0.75054 0.62053 0.0
H1228 H 0.53158 0.97478 0.75961 0.0
H1229 H 0.50582 0.03432 0.85892 0.0
H1230 H 0.55101 0.93177 0.81115 0.0
H1231 H 0.48956 0.96734 0.8838 0.0
H1232 H 0.51172 0.01484 0.82143 0.0
H1233 H 0.50651 0.98927 0.78589 0.0
C1234 C 0.53026 0.96813 0.77628 0.0
C1235 C 0.54368 0.95247 0.78357 0.0
C1236 C 0.50597 1.00429 0.83471 0.0
C1237 C 0.51534 0.96888 0.81344 0.0
C1238 C 0.50262 0.01543 0.85619 0.0
C1239 C 0.49778 1.00245 0.87468 0.0
C1240 C 0.50466 0.98009 0.83196 0.0
C1241 C 0.49399 0.97804 0.87021 0.0
C1242 C 0.5161 0.97649 0.79127 0.0
C1243 C 0.54127 0.94421 0.80516 0.0
N1244 N 0.49818 0.96769 0.84952 0.0
N1245 N 0.52748 0.95264 0.81943 0.0
H1246 H 0.28801 0.40473 0.12541 0.0
H1247 H 0.30753 0.2952 0.19479 0.0
H1248 H 0.31697 0.34848 0.09685 0.0
H1249 H 0.30058 0.3598 0.2326 0.0
H1250 H 0.3058 0.3128 0.15816 0.0
H1251 H 0.287 0.38746 0.16276 0.0
C1252 C 0.29367 0.38852 0.12657 0.0
C1253 C 0.30229 0.37817 0.1071 0.0
C1254 C 0.30451 0.32325 0.17435 0.0
C1255 C 0.30137 0.35793 0.15097 0.0
C1256 C 0.30542 0.31306 0.1956 0.0
C1257 C 0.30416 0.32564 0.21758 0.0
C1258 C 0.30191 0.34652 0.17412 0.0
C1259 C 0.30162 0.349 0.21655 0.0
C1260 C 0.29336 0.37871 0.14825 0.0
C1261 C 0.30992 0.35733 0.11076 0.0
N1262 N 0.30048 0.35843 0.19553 0.0
N1263 N 0.30915 0.3481 0.1317 0.0
H1264 H 0.27134 0.93491 0.09894 0.0
H1265 H 0.17102 0.9763 0.02054 0.0
H1266 H 0.25309 0.91253 0.02419 0.0
H1267 H 0.20442 0.01141 0.08917 0.0
H1268 H 0.19652 0.94861 0.02298 0.0
H1269 H 0.24172 0.95801 0.09718 0.0
C1270 C 0.26094 0.93463 0.08216 0.0
C1271 C 0.26491 0.92191 0.06162 0.0
C1272 C 0.19816 0.96235 0.03751 0.0
C1273 C 0.23092 0.94856 0.0595 0.0
C1274 C 0.18372 0.97829 0.0361 0.0
C1275 C 0.1856 0.99643 0.05462 0.0
C1276 C 0.21447 0.96437 0.05767 0.0
C1277 C 0.20204 0.99764 0.07456 0.0
C1278 C 0.24407 0.94795 0.08117 0.0
C1279 C 0.25072 0.92216 0.04043 0.0
N1280 N 0.21581 0.98189 0.07551 0.0
N1281 N 0.23443 0.93542 0.03989 0.0
H1282 H 0.75885 0.64288 0.05127 0.0
H1283 H 0.63707 0.55456 0.99308 0.0
H1284 H 0.74848 0.59786 0.9853 0.0
H1285 H 0.64598 0.59091 0.06346 0.0
H1286 H 0.67743 0.57195 0.99017 0.0
H1287 H 0.71815 0.62641 0.05618 0.0
C1288 C 0.74819 0.6297 0.03773 0.0
C1289 C 0.75771 0.62199 0.01776 0.0
C1290 C 0.67074 0.5762 0.00635 0.0
C1291 C 0.71037 0.60277 0.02336 0.0
C1292 C 0.64741 0.56613 0.00807 0.0
C1293 C 0.63751 0.57091 0.02863 0.0
C1294 C 0.68499 0.59166 0.02521 0.0
C1295 C 0.65246 0.58636 0.04723 0.0
C1296 C 0.7248 0.62017 0.04061 0.0
C1297 C 0.74249 0.60462 1.00107 0.0
N1298 N 0.67513 0.59611 0.04506 0.0
N1299 N 0.72004 0.59586 1.00421 0.0
H1300 H 0.82125 0.53787 0.39512 0.0
H1301 H 0.86185 0.47096 0.28682 0.0
H1302 H 0.80391 0.54618 0.32223 0.0
H1303 H 0.87016 0.45302 0.35746 0.0
H1304 H 0.85251 0.50734 0.30207 0.0
H1305 H 0.84974 0.51562 0.3838 0.0
C1306 C 0.82381 0.53549 0.37682 0.0
C1307 C 0.8098 0.54337 0.35949 0.0
C1308 C 0.85682 0.49567 0.31433 0.0
C1309 C 0.84225 0.51801 0.3465 0.0
C1310 C 0.86243 0.4749 0.30566 0.0
C1311 C 0.86625 0.4585 0.32079 0.0
C1312 C 0.85468 0.50001 0.33826 0.0
C1313 C 0.86657 0.46477 0.34503 0.0
C1314 C 0.84003 0.52275 0.37039 0.0
C1315 C 0.81396 0.53994 0.33609 0.0
N1316 N 0.86031 0.4848 0.35297 0.0
N1317 N 0.82957 0.52724 0.33025 0.0
H1318 H 0.86957 0.45397 0.51132 0.0
H1319 H 1.00578 0.48126 0.55727 0.0
H1320 H 0.90199 0.41065 0.55431 0.0
H1321 H 0.97296 0.52322 0.51282 0.0
H1322 H 0.96815 0.45506 0.55624 0.0
H1323 H 0.90758 0.47861 0.51056 0.0
C1324 C 0.88473 0.44946 0.52038 0.0
C1325 C 0.88257 0.43025 0.53297 0.0
C1326 C 0.96917 0.47002 0.54676 0.0
C1327 C 0.92624 0.45869 0.53248 0.0
C1328 C 0.99065 0.48509 0.54742 0.0
C1329 C 0.99258 0.50455 0.53513 0.0
C1330 C 0.9494 0.47438 0.5337 0.0
C1331 C 0.97234 0.50851 0.52263 0.0
C1332 C 0.90645 0.46364 0.52004 0.0
C1333 C 0.90285 0.42527 0.54436 0.0
N1334 N 0.95163 0.49355 0.52221 0.0
N1335 N 0.92383 0.43952 0.54399 0.0
H1336 H 0.4564 0.13924 0.32799 0.0
H1337 H 0.37317 0.17818 0.22967 0.0
H1338 H 0.46746 0.13253 0.25517 0.0
H1339 H 0.3504 0.15285 0.29236 0.0
H1340 H 0.40963 0.16587 0.23921 0.0
H1341 H 0.42006 0.15085 0.31642 0.0
C1342 C 0.45141 0.14058 0.30961 0.0
C1343 C 0.46496 0.13481 0.2925 0.0
C1344 C 0.39651 0.16285 0.25071 0.0
C1345 C 0.42326 0.14784 0.27918 0.0
C1346 C 0.37558 0.16961 0.24517 0.0
C1347 C 0.35869 0.1667 0.26033 0.0
C1348 C 0.40069 0.15347 0.2717 0.0
C1349 C 0.36307 0.1559 0.28041 0.0
C1350 C 0.43052 0.14693 0.30301 0.0
C1351 C 0.45748 0.13672 0.26892 0.0
N1352 N 0.38376 0.14995 0.28567 0.0
N1353 N 0.43707 0.14308 0.26292 0.0
H1354 H 0.4295 0.17066 0.52841 0.0
H1355 H 0.48156 0.05254 0.52178 0.0
H1356 H 0.38919 0.10333 0.53592 0.0
H1357 H 0.52663 0.12063 0.53933 0.0
H1358 H 0.4478 0.07079 0.52277 0.0
H1359 H 0.46433 0.1535 0.52853 0.0
C1360 C 0.42775 0.15233 0.53018 0.0
C1361 C 0.40568 0.13882 0.53238 0.0
C1362 C 0.46502 0.08189 0.5264 0.0
C1363 C 0.44653 0.11835 0.53189 0.0
C1364 C 0.4846 0.07135 0.52579 0.0
C1365 C 0.50772 0.08465 0.53053 0.0
C1366 C 0.46776 0.10641 0.53132 0.0
C1367 C 0.5096 0.10918 0.53561 0.0
C1368 C 0.44791 0.14241 0.53022 0.0
C1369 C 0.40537 0.11492 0.53438 0.0
N1370 N 0.49028 0.11903 0.53567 0.0
N1371 N 0.42496 0.1057 0.53388 0.0
H1372 H 0.74257 0.62768 0.33114 0.0
H1373 H 0.83859 0.74543 0.34404 0.0
H1374 H 0.79666 0.64932 0.39081 0.0
H1375 H 0.77764 0.72805 0.29144 0.0
H1376 H 0.82361 0.71075 0.36179 0.0
H1377 H 0.75499 0.6648 0.31697 0.0
C1378 C 0.75702 0.6403 0.34137 0.0
C1379 C 0.76872 0.63526 0.36212 0.0
C1380 C 0.81349 0.71459 0.34643 0.0
C1381 C 0.7832 0.67797 0.34579 0.0
C1382 C 0.82207 0.73433 0.3362 0.0
C1383 C 0.80946 0.73955 0.31605 0.0
C1384 C 0.79222 0.69988 0.33638 0.0
C1385 C 0.78805 0.72465 0.30684 0.0
C1386 C 0.76408 0.66158 0.33326 0.0
C1387 C 0.78717 0.65247 0.37472 0.0
N1388 N 0.78019 0.70543 0.317 0.0
N1389 N 0.79401 0.67301 0.36621 0.0
H1390 H 0.96221 0.55109 0.86907 0.0
H1391 H 0.91822 0.42514 0.79215 0.0
H1392 H 0.99301 0.52759 0.80935 0.0
H1393 H 0.88269 0.45191 0.8464 0.0
H1394 H 0.94929 0.4603 0.80209 0.0
H1395 H 0.9366 0.51244 0.86504 0.0
C1396 C 0.96383 0.53775 0.85533 0.0
C1397 C 0.97959 0.54273 0.83935 0.0
C1398 C 0.93474 0.45841 0.8119 0.0
C1399 C 0.95024 0.49853 0.83453 0.0
C1400 C 0.91707 0.43832 0.80628 0.0
C1401 C 0.8977 0.43578 0.81823 0.0
C1402 C 0.93306 0.476 0.82967 0.0
C1403 C 0.89706 0.45341 0.83637 0.0
C1404 C 0.94913 0.51571 0.85297 0.0
C1405 C 0.98095 0.52468 0.82191 0.0
N1406 N 0.9144 0.47281 0.84145 0.0
N1407 N 0.96632 0.50348 0.81985 0.0
H1408 H 0.04506 0.90943 0.10225 0.0
H1409 H 0.1026 0.99078 0.01402 0.0
H1410 H 0.11895 0.93174 0.1032 0.0
H1411 H 0.02923 0.97487 0.01833 0.0
H1412 H 0.10812 0.96237 0.04064 0.0
H1413 H 0.03856 0.9269 0.06636 0.0
C1414 C 0.05996 0.91784 0.09485 0.0
C1415 C 0.08262 0.91941 0.10605 0.0
C1416 C 0.09075 0.96476 0.03543 0.0
C1417 C 0.0752 0.93947 0.06477 0.0
C1418 C 0.08752 0.9809 0.02008 0.0
C1419 C 0.06543 0.98553 0.0142 0.0
C1420 C 0.07176 0.95314 0.04502 0.0
C1421 C 0.04659 0.97204 0.0225 0.0
C1422 C 0.0562 0.92779 0.07428 0.0
C1423 C 0.10118 0.93031 0.09538 0.0
N1424 N 0.05025 0.95673 0.0378 0.0
N1425 N 0.09705 0.94013 0.07547 0.0
H1426 H 0.9201 0.20281 0.84927 0.0
H1427 H 0.86695 0.29353 0.77885 0.0
H1428 H 0.95946 0.24863 0.80794 0.0
H1429 H 0.82485 0.23396 0.80197 0.0
H1430 H 0.90156 0.27901 0.79153 0.0
H1431 H 0.88518 0.21562 0.83418 0.0
C1432 C 0.92137 0.21549 0.83697 0.0
C1433 C 0.94269 0.22471 0.82989 0.0
C1434 C 0.8847 0.26908 0.79367 0.0
C1435 C 0.90296 0.23954 0.81272 0.0
C1436 C 0.86497 0.27738 0.7865 0.0
C1437 C 0.84298 0.26494 0.78933 0.0
C1438 C 0.88241 0.24838 0.80402 0.0
C1439 C 0.84143 0.24411 0.79935 0.0
C1440 C 0.90145 0.22275 0.82832 0.0
C1441 C 0.94335 0.24102 0.81383 0.0
N1442 N 0.86089 0.23657 0.80647 0.0
N1443 N 0.92381 0.24805 0.80592 0.0
H1444 H 0.61697 0.32448 0.64452 0.0
H1445 H 0.57191 0.20929 0.55148 0.0
H1446 H 0.54836 0.30613 0.60435 0.0
H1447 H 0.63016 0.21738 0.60626 0.0
H1448 H 0.56521 0.24684 0.56786 0.0
H1449 H 0.62415 0.28707 0.62811 0.0
C1450 C 0.60338 0.31257 0.63233 0.0
C1451 C 0.58201 0.31846 0.62582 0.0
C1452 C 0.57948 0.24038 0.57625 0.0
C1453 C 0.59025 0.2758 0.60681 0.0
C1454 C 0.5833 0.21892 0.56694 0.0
C1455 C 0.60158 0.21004 0.57754 0.0
C1456 C 0.59415 0.25322 0.59618 0.0
C1457 C 0.61605 0.22361 0.59727 0.0
C1458 C 0.6075 0.29123 0.62299 0.0
C1459 C 0.56505 0.30231 0.60996 0.0
N1460 N 0.61201 0.2445 0.60596 0.0
N1461 N 0.56959 0.28178 0.60089 0.0
H1462 H 0.56152 0.70213 0.29745 0.0
H1463 H 0.689 0.78324 0.33149 0.0
H1464 H 0.58482 0.74562 0.36445 0.0
H1465 H 0.66205 0.74452 0.26273 0.0
H1466 H 0.65198 0.76815 0.3449 0.0
H1467 H 0.59922 0.71598 0.28548 0.0
C1468 C 0.57459 0.71457 0.30971 0.0
C1469 C 0.56994 0.72277 0.33198 0.0
C1470 C 0.65419 0.76297 0.32688 0.0
C1471 C 0.61332 0.7388 0.3183 0.0
C1472 C 0.67534 0.77148 0.31925 0.0
C1473 C 0.6786 0.76521 0.29591 0.0
C1474 C 0.6362 0.74798 0.3111 0.0
C1475 C 0.66022 0.7501 0.28076 0.0
C1476 C 0.59615 0.72251 0.30282 0.0
C1477 C 0.58763 0.73886 0.34709 0.0
N1478 N 0.63986 0.74202 0.28862 0.0
N1479 N 0.60854 0.74638 0.33996 0.0
H1480 H 0.08344 0.20509 0.42659 0.0
H1481 H 0.04934 0.13001 0.53356 0.0
H1482 H 0.0425 0.2256 0.4785 0.0
H1483 H 0.07586 0.10039 0.4739 0.0
H1484 H 0.04984 0.16591 0.51523 0.0
H1485 H 0.08442 0.16893 0.44471 0.0
C1486 C 0.07496 0.20243 0.44197 0.0
C1487 C 0.06303 0.21931 0.45079 0.0
C1488 C 0.05558 0.15164 0.506 0.0
C1489 C 0.06397 0.17668 0.47211 0.0
C1490 C 0.05528 0.13081 0.51659 0.0
C1491 C 0.06242 0.11131 0.50559 0.0
C1492 C 0.06345 0.15398 0.48397 0.0
C1493 C 0.06997 0.11439 0.4834 0.0
C1494 C 0.07535 0.1814 0.45231 0.0
C1495 C 0.0521 0.21374 0.47073 0.0
N1496 N 0.07038 0.13493 0.47363 0.0
N1497 N 0.05293 0.19348 0.48047 0.0
H1498 H 0.65479 0.34474 0.18236 0.0
H1499 H 0.72842 0.27171 0.26171 0.0
H1500 H 0.6214 0.28248 0.20805 0.0
H1501 H 0.75864 0.33234 0.23154 0.0
H1502 H 0.68966 0.27486 0.24345 0.0
H1503 H 0.69224 0.33995 0.20086 0.0
C1504 C 0.65513 0.32993 0.19187 0.0
C1505 C 0.63425 0.31405 0.19333 0.0
C1506 C 0.70474 0.2875 0.24081 0.0
C1507 C 0.67851 0.30841 0.21529 0.0
C1508 C 0.72708 0.28574 0.25134 0.0
C1509 C 0.7474 0.30178 0.24845 0.0
C1510 C 0.70219 0.3055 0.22709 0.0
C1511 C 0.74392 0.31946 0.23455 0.0
C1512 C 0.67685 0.32722 0.20256 0.0
C1513 C 0.63665 0.29529 0.20617 0.0
N1514 N 0.72213 0.32078 0.22462 0.0
N1515 N 0.65813 0.29306 0.21656 0.0
H1516 H 0.57651 0.87084 0.91832 0.0
H1517 H 0.57151 0.96134 0.0335 0.0
H1518 H 0.55886 0.84779 0.98335 0.0
H1519 H 0.55852 0.97896 0.96345 0.0
H1520 H 0.57328 0.92168 0.0165 0.0
H1521 H 0.57679 0.9114 0.93507 0.0
C1522 C 0.57328 0.87417 0.9363 0.0
C1523 C 0.56805 0.85521 0.94931 0.0
C1524 C 0.57013 0.93417 1.00474 0.0
C1525 C 0.56818 0.9027 0.969 0.0
C1526 C 0.56916 0.95712 0.01452 0.0
C1527 C 0.56479 0.97424 1.0002 0.0
C1528 C 0.56733 0.92768 0.98009 0.0
C1529 C 0.56185 0.96684 0.97556 0.0
C1530 C 0.57314 0.89754 0.94584 0.0
C1531 C 0.56332 0.86136 0.97243 0.0
N1532 N 0.56336 0.94459 0.9665 0.0
N1533 N 0.56369 0.88411 0.98137 0.0
H1534 H 1.00921 0.81461 0.72889 0.0
H1535 H 0.8703 0.76938 0.72382 0.0
H1536 H 0.96399 0.79048 0.66331 0.0
H1537 H 0.90989 0.8209 0.78001 0.0
H1538 H 0.90486 0.77225 0.70369 0.0
H1539 H 0.97482 0.81282 0.74943 0.0
C1540 C 0.99215 0.80894 0.71863 0.0
C1541 C 0.99014 0.8029 0.69391 0.0
C1542 C 0.90616 0.78291 0.72047 0.0
C1543 C 0.94959 0.80011 0.71811 0.0
C1544 C 0.88623 0.78119 0.73223 0.0
C1545 C 0.88651 0.7948 0.75411 0.0
C1546 C 0.92747 0.79803 0.7305 0.0
C1547 C 0.90824 0.80989 0.76339 0.0
C1548 C 0.9723 0.80793 0.73054 0.0
C1549 C 0.967 0.79558 0.68218 0.0
N1550 N 0.9275 0.81087 0.75185 0.0
N1551 N 0.94806 0.79419 0.69421 0.0
H1552 H 0.196 0.07548 0.88792 0.0
H1553 H 0.07152 0.02721 0.92291 0.0
H1554 H 0.14185 0.02842 0.83925 0.0
H1555 H 0.12292 0.08429 0.9635 0.0
H1556 H 0.09561 0.02797 0.89114 0.0
H1557 H 0.1683 0.07977 0.91496 0.0
C1558 C 0.17822 0.06605 0.88294 0.0
C1559 C 0.17126 0.05127 0.86157 0.0
C1560 C 0.10142 0.04046 0.90693 0.0
C1561 C 0.13927 0.05598 0.89249 0.0
C1562 C 0.08771 0.04002 0.92507 0.0
C1563 C 0.09533 0.05551 0.94604 0.0
C1564 C 0.12288 0.05643 0.90991 0.0
C1565 C 0.11641 0.07179 0.94783 0.0
C1566 C 0.16231 0.0686 0.89832 0.0
C1567 C 0.14784 0.03995 0.85566 0.0
N1568 N 0.12947 0.07168 0.93013 0.0
N1569 N 0.13267 0.04225 0.87124 0.0
H1570 H 0.78877 0.36108 0.60168 0.0
H1571 H 0.80574 0.27124 0.69335 0.0
H1572 H 0.83685 0.31584 0.59389 0.0
H1573 H 0.78942 0.33821 0.71214 0.0
H1574 H 0.81024 0.28154 0.65355 0.0
H1575 H 0.7809 0.34626 0.63849 0.0
C1576 C 0.79735 0.34768 0.60739 0.0
C1577 C 0.81363 0.33983 0.59456 0.0
C1578 C 0.80566 0.29389 0.66646 0.0
C1579 C 0.80464 0.32279 0.63702 0.0
C1580 C 0.80307 0.28804 0.68912 0.0
C1581 C 0.79744 0.30398 0.70621 0.0
C1582 C 0.80194 0.31554 0.66069 0.0
C1583 C 0.7941 0.32548 0.6997 0.0
C1584 C 0.79298 0.33938 0.62858 0.0
C1585 C 0.82426 0.32251 0.60317 0.0
N1586 N 0.79623 0.33053 0.67752 0.0
N1587 N 0.81962 0.31461 0.62385 0.0
H1588 H 0.56843 0.11281 0.3527 0.0
H1589 H 0.56236 0.02184 0.44552 0.0
H1590 H 0.54617 0.03835 0.33268 0.0
H1591 H 0.58316 0.0967 0.46389 0.0
H1592 H 0.56165 0.02679 0.40394 0.0
H1593 H 0.58005 0.10644 0.39295 0.0
C1594 C 0.56641 0.09505 0.35674 0.0
C1595 C 0.55614 0.07608 0.33945 0.0
C1596 C 0.56658 0.0421 0.41709 0.0
C1597 C 0.56889 0.06862 0.38566 0.0
C1598 C 0.56696 0.03931 0.44085 0.0
C1599 C 0.57255 0.05892 0.45824 0.0
C1600 C 0.57182 0.06466 0.41068 0.0
C1601 C 0.57849 0.08109 0.45113 0.0
C1602 C 0.57296 0.09142 0.37976 0.0
C1603 C 0.55404 0.05344 0.34554 0.0
N1604 N 0.5778 0.08334 0.42792 0.0
N1605 N 0.56 0.05033 0.3683 0.0
H1606 H 0.86377 0.75377 0.09121 0.0
H1607 H 0.84978 0.73662 0.22528 0.0
H1608 H 0.83835 0.68509 0.10876 0.0
H1609 H 0.82987 0.79503 0.19622 0.0
H1610 H 0.85284 0.71916 0.18519 0.0
H1611 H 0.8586 0.77068 0.13075 0.0
C1612 C 0.85704 0.74211 0.10323 0.0
C1613 C 0.85131 0.71771 0.09592 0.0
C1614 C 0.84782 0.73581 0.18751 0.0
C1615 C 0.84609 0.73742 0.14262 0.0
C1616 C 0.84612 0.74595 0.2106 0.0
C1617 C 0.8394 0.76755 0.21472 0.0
C1618 C 0.84362 0.7475 0.16784 0.0
C1619 C 0.83495 0.77839 0.1944 0.0
C1620 C 0.85408 0.7519 0.12601 0.0
C1621 C 0.84281 0.70391 0.11299 0.0
N1622 N 0.83743 0.76856 0.17228 0.0
N1623 N 0.84083 0.7138 0.13528 0.0
H1624 H 0.21906 0.08642 0.75846 0.0
H1625 H 0.08815 0.0412 0.70558 0.0
H1626 H 0.17807 0.02217 0.77337 0.0
H1627 H 0.12738 0.11058 0.70253 0.0
H1628 H 0.11796 0.03665 0.7367 0.0
H1629 H 0.18354 0.09882 0.74499 0.0
C1630 C 0.20245 0.07527 0.75953 0.0
C1631 C 0.2013 0.05335 0.767 0.0
C1632 C 0.11973 0.05309 0.72962 0.0
C1633 C 0.16061 0.06676 0.75062 0.0
C1634 C 0.10275 0.05566 0.71177 0.0
C1635 C 0.10543 0.07612 0.70102 0.0
C1636 C 0.13966 0.071 0.73655 0.0
C1637 C 0.12447 0.09445 0.71015 0.0
C1638 C 0.18216 0.08225 0.75175 0.0
C1639 C 0.17951 0.03931 0.76784 0.0
N1640 N 0.14104 0.09127 0.72701 0.0
N1641 N 0.15994 0.04602 0.7592 0.0
H1642 H 0.83164 0.31844 0.47598 0.0
H1643 H 0.80516 0.35189 0.3467 0.0
H1644 H 0.8025 0.37804 0.46352 0.0
H1645 H 0.81273 0.2831 0.36024 0.0
H1646 H 0.80528 0.36273 0.38905 0.0
H1647 H 0.82571 0.30588 0.43355 0.0
C1648 C 0.82368 0.32874 0.46434 0.0
C1649 C 0.81749 0.34931 0.47346 0.0
C1650 C 0.80672 0.34522 0.38268 0.0
C1651 C 0.81115 0.33525 0.42447 0.0
C1652 C 0.8067 0.33901 0.35848 0.0
C1653 C 0.80894 0.3165 0.34971 0.0
C1654 C 0.80934 0.32895 0.39837 0.0
C1655 C 0.81092 0.30063 0.36599 0.0
C1656 C 0.82034 0.32157 0.44004 0.0
C1657 C 0.80734 0.36196 0.45737 0.0
N1658 N 0.81127 0.3072 0.38941 0.0
N1659 N 0.80478 0.35491 0.43369 0.0
H1660 H 0.5371 0.06707 0.25168 0.0
H1661 H 0.56539 0.96562 0.1717 0.0
H1662 H 0.49111 0.99993 0.22894 0.0
H1663 H 0.61038 0.03367 0.19295 0.0
H1664 H 0.54555 0.97188 0.20574 0.0
H1665 H 0.56994 0.04979 0.24392 0.0
C1666 C 0.53404 0.04849 0.24589 0.0
C1667 C 0.51143 0.03495 0.24056 0.0
C1668 C 0.56027 0.98514 0.20337 0.0
C1669 C 0.54866 0.01524 0.23074 0.0
C1670 C 0.57163 0.98154 0.18392 0.0
C1671 C 0.5888 0.99961 0.17873 0.0
C1672 C 0.56601 0.00704 0.21744 0.0
C1673 C 0.59679 0.01944 0.19572 0.0
C1674 C 0.55277 0.03862 0.2413 0.0
C1675 C 0.50832 0.01105 0.23279 0.0
N1676 N 0.58482 0.02297 0.21388 0.0
N1677 N 0.52667 1.00205 0.22761 0.0
H1678 H 0.87046 0.74835 0.97305 0.0
H1679 H 0.80989 0.73031 0.83617 0.0
H1680 H 0.81565 0.68905 0.94428 0.0
H1681 H 0.85592 0.79422 0.86983 0.0
H1682 H 0.81269 0.71436 0.87395 0.0
H1683 H 0.86607 0.76421 0.93559 0.0
C1684 C 0.85724 0.73855 0.95905 0.0
C1685 C 0.84332 0.71706 0.96279 0.0
C1686 C 0.82227 0.73187 0.87321 0.0
C1687 C 0.83845 0.73566 0.918 0.0
C1688 C 0.82077 0.74113 0.85132 0.0
C1689 C 0.83274 0.76398 0.84895 0.0
C1690 C 0.83608 0.74514 0.89372 0.0
C1691 C 0.84631 0.77662 0.87004 0.0
C1692 C 0.85481 0.74779 0.9373 0.0
C1693 C 0.82676 0.7057 0.94306 0.0
N1694 N 0.84762 0.76715 0.89099 0.0
N1695 N 0.82497 0.71491 0.92191 0.0
H1696 H 0.84872 0.14532 0.04209 0.0
H1697 H 0.94916 0.12856 0.96553 0.0
H1698 H 0.87663 0.19503 0.99759 0.0
H1699 H 0.92159 0.07988 0.01122 0.0
H1700 H 0.92546 0.15496 0.97976 0.0
H1701 H 0.87851 0.1236 0.03451 0.0
C1702 C 0.86141 0.15195 0.0311 0.0
C1703 C 0.86 0.17192 0.02028 0.0
C1704 C 0.92465 0.13853 0.98673 0.0
C1705 C 0.89395 0.14678 0.01108 0.0
C1706 C 0.93822 0.12342 0.97863 0.0
C1707 C 0.93725 0.10177 0.98698 0.0
C1708 C 0.90993 0.132 1.00332 0.0
C1709 C 0.92257 0.0961 1.00384 0.0
C1710 C 0.87835 0.13942 0.02664 0.0
C1711 C 0.87699 0.17969 0.00625 0.0
N1712 N 0.90947 0.11105 0.01135 0.0
N1713 N 0.89305 0.16692 1.00178 0.0
H1714 H 0.36356 0.49827 0.03458 0.0
H1715 H 0.49289 0.48175 0.02003 0.0
H1716 H 0.38379 0.43293 0.04113 0.0
H1717 H 0.47926 0.54891 0.04299 0.0
H1718 H 0.45236 0.4635 0.02246 0.0
H1719 H 0.40417 0.51663 0.03244 0.0
C1720 C 0.37641 0.48762 0.03543 0.0
C1721 C 0.36972 0.46377 0.03808 0.0
C1722 C 0.45814 0.48224 0.02694 0.0
C1723 C 0.41711 0.48505 0.03526 0.0
C1724 C 0.48145 0.49281 0.02546 0.0
C1725 C 0.49003 0.51717 0.03127 0.0
C1726 C 0.44255 0.49594 0.0338 0.0
C1727 C 0.47386 0.53017 0.03833 0.0
C1728 C 0.39979 0.49826 0.0343 0.0
C1729 C 0.38769 0.45127 0.03916 0.0
N1730 N 0.45116 0.51954 0.03916 0.0
N1731 N 0.4102 0.46189 0.03756 0.0
H1732 H 0.35348 0.55559 0.75388 0.0
H1733 H 0.32114 0.66672 0.71482 0.0
H1734 H 0.37782 0.58317 0.69297 0.0
H1735 H 0.27606 0.62093 0.75162 0.0
H1736 H 0.33867 0.63446 0.70244 0.0
H1737 H 0.32219 0.5767 0.75026 0.0
C1738 C 0.35191 0.56576 0.73945 0.0
C1739 C 0.36837 0.56795 0.72389 0.0
C1740 C 0.32455 0.6313 0.71273 0.0
C1741 C 0.33299 0.59257 0.71994 0.0
C1742 C 0.31436 0.64975 0.71975 0.0
C1743 C 0.29744 0.64681 0.7349 0.0
C1744 C 0.31814 0.60989 0.72129 0.0
C1745 C 0.28963 0.62429 0.7407 0.0
C1746 C 0.334 0.57773 0.73731 0.0
C1747 C 0.36549 0.58115 0.70538 0.0
N1748 N 0.30045 0.60687 0.73441 0.0
N1749 N 0.34848 0.59349 0.70426 0.0
H1750 H 0.22996 0.66158 0.54122 0.0
H1751 H 0.11572 0.57158 0.47452 0.0
H1752 H 0.21898 0.64006 0.46614 0.0
H1753 H 0.1353 0.58423 0.55002 0.0
H1754 H 0.15207 0.59811 0.47037 0.0
H1755 H 0.19327 0.63554 0.54406 0.0
C1756 C 0.21976 0.6515 0.5253 0.0
C1757 C 0.22762 0.65293 0.50343 0.0
C1758 C 0.14837 0.59495 0.4878 0.0
C1759 C 0.18558 0.62289 0.50656 0.0
C1760 C 0.12768 0.57976 0.49018 0.0
C1761 C 0.12239 0.57567 0.51265 0.0
C1762 C 0.16372 0.60619 0.50804 0.0
C1763 C 0.13853 0.58682 0.53233 0.0
C1764 C 0.19884 0.63652 0.52694 0.0
C1765 C 0.21363 0.63943 0.48338 0.0
N1766 N 0.15834 0.60161 0.52955 0.0
N1767 N 0.19328 0.62492 0.48543 0.0
H1768 H 0.66945 0.92945 0.75306 0.0
H1769 H 0.779 0.93184 0.84879 0.0
H1770 H 0.67159 0.94824 0.82784 0.0
H1771 H 0.77451 0.90766 0.77475 0.0
H1772 H 0.74143 0.94242 0.84086 0.0
H1773 H 0.70953 0.92517 0.76021 0.0
C1774 C 0.67831 0.93266 0.77098 0.0
C1775 C 0.66703 0.93905 0.78989 0.0
C1776 C 0.74881 0.93505 0.82632 0.0
C1777 C 0.71301 0.93434 0.79816 0.0
C1778 C 0.77025 0.92903 0.83084 0.0
C1779 C 0.77987 0.91873 0.81245 0.0
C1780 C 0.73687 0.93066 0.80325 0.0
C1781 C 0.76792 0.91577 0.78947 0.0
C1782 C 0.70124 0.93029 0.77504 0.0
C1783 C 0.67949 0.94313 0.81272 0.0
N1784 N 0.74695 0.92149 0.78557 0.0
N1785 N 0.70177 0.94064 0.81621 0.0
H1786 H 0.74342 0.98368 0.52132 0.0
H1787 H 0.60854 0.98281 0.53772 0.0
H1788 H 0.70334 0.93551 0.55958 0.0
H1789 H 0.65348 0.04384 0.52108 0.0
H1790 H 0.64156 0.96337 0.54079 0.0
H1791 H 0.71033 1.00338 0.51592 0.0
C1792 C 0.72768 0.97682 0.52825 0.0
C1793 C 0.72673 0.95736 0.54084 0.0
C1794 C 0.64434 0.98099 0.53636 0.0
C1795 C 0.68782 0.98045 0.53463 0.0
C1796 C 0.62522 0.99226 0.53452 0.0
C1797 C 0.62755 0.01541 0.52909 0.0
C1798 C 0.66661 0.99237 0.53237 0.0
C1799 C 0.65025 0.02616 0.52535 0.0
C1800 C 0.70865 0.98836 0.52534 0.0
C1801 C 0.70545 0.95016 0.54965 0.0
N1802 N 0.66847 0.01471 0.52689 0.0
N1803 N 0.68729 0.96135 0.5463 0.0
H1804 H 0.38315 0.4856 0.7776 0.0
H1805 H 0.38323 0.35115 0.75063 0.0
H1806 H 0.41717 0.46071 0.72108 0.0
H1807 H 0.3269 0.37642 0.77771 0.0
H1808 H 0.39977 0.39099 0.74323 0.0
H1809 H 0.36628 0.44532 0.78188 0.0
C1810 C 0.38709 0.47163 0.76609 0.0
C1811 C 0.40157 0.47649 0.74895 0.0
C1812 C 0.38371 0.38765 0.75064 0.0
C1813 C 0.38247 0.43029 0.75395 0.0
C1814 C 0.37434 0.36502 0.75497 0.0
C1815 C 0.35368 0.36048 0.76483 0.0
C1816 C 0.37256 0.40581 0.75671 0.0
C1817 C 0.34282 0.37906 0.77003 0.0
C1818 C 0.37737 0.44865 0.76848 0.0
C1819 C 0.40597 0.45767 0.73442 0.0
N1820 N 0.3525 0.40091 0.76612 0.0
N1821 N 0.39661 0.4353 0.73739 0.0
H1822 H 0.13365 0.50787 0.22601 0.0
H1823 H 0.17682 0.64093 0.28631 0.0
H1824 H 0.1207 0.53311 0.29516 0.0
H1825 H 0.19431 0.61454 0.21963 0.0
H1826 H 0.15424 0.60201 0.28884 0.0
H1827 H 0.15377 0.5474 0.2222 0.0
C1828 C 0.13494 0.52169 0.24037 0.0
C1829 C 0.12553 0.51705 0.261 0.0
C1830 C 0.16295 0.60476 0.27361 0.0
C1831 C 0.14862 0.56242 0.25673 0.0
C1832 C 0.17594 0.62697 0.27221 0.0
C1833 C 0.18754 0.63107 0.25274 0.0
C1834 C 0.16153 0.58645 0.25543 0.0
C1835 C 0.18544 0.61234 0.23482 0.0
C1836 C 0.14648 0.54428 0.23818 0.0
C1837 C 0.12776 0.53576 0.27898 0.0
N1838 N 0.17277 0.59087 0.23664 0.0
N1839 N 0.1391 0.55756 0.27644 0.0
H1840 H 0.48519 0.67606 0.45319 0.0
H1841 H 0.59724 0.63583 0.51058 0.0
H1842 H 0.54916 0.6849 0.42335 0.0
H1843 H 0.53134 0.62461 0.53647 0.0
H1844 H 0.58234 0.65919 0.48205 0.0
H1845 H 0.50391 0.66174 0.48664 0.0
C1846 C 0.50321 0.67505 0.45363 0.0
C1847 C 0.51553 0.68156 0.43522 0.0
C1848 C 0.57133 0.65201 0.49432 0.0
C1849 C 0.53715 0.66504 0.47378 0.0
C1850 C 0.57994 0.63895 0.5108 0.0
C1851 C 0.56547 0.62835 0.5259 0.0
C1852 C 0.54818 0.65439 0.49305 0.0
C1853 C 0.54304 0.63252 0.52513 0.0
C1854 C 0.51391 0.66688 0.47284 0.0
C1855 C 0.53892 0.67995 0.43703 0.0
N1856 N 0.53501 0.64498 0.50882 0.0
N1857 N 0.54894 0.67171 0.4559 0.0
H1858 H 0.6706 0.37123 0.66111 0.0
H1859 H 0.74329 0.35309 0.78103 0.0
H1860 H 0.67693 0.41687 0.72633 0.0
H1861 H 0.72328 0.30177 0.71892 0.0
H1862 H 0.72331 0.37938 0.76051 0.0
H1863 H 0.69592 0.34926 0.68083 0.0
C1864 C 0.67767 0.37694 0.67946 0.0
C1865 C 0.67133 0.39573 0.69216 0.0
C1866 C 0.7233 0.36233 0.75147 0.0
C1867 C 0.70001 0.37033 0.71497 0.0
C1868 C 0.73454 0.34726 0.76322 0.0
C1869 C 0.73484 0.32512 0.75176 0.0
C1870 C 0.71252 0.35524 0.72808 0.0
C1871 C 0.72342 0.31859 0.72856 0.0
C1872 C 0.69197 0.36423 0.69078 0.0
C1873 C 0.68115 0.40234 0.7159 0.0
N1874 N 0.71283 0.33359 0.71751 0.0
N1875 N 0.69479 0.38948 0.72663 0.0
H1876 H 0.95847 0.2883 0.9112 0.0
H1877 H 0.0544 0.40713 0.94331 0.0
H1878 H 0.02826 0.29402 0.89494 0.0
H1879 H 0.98139 0.40146 0.9465 0.0
H1880 H 0.04608 0.36583 0.92632 0.0
H1881 H 0.96748 0.32984 0.92523 0.0
C1882 C 0.97574 0.29827 0.9106 0.0
C1883 C 0.99265 0.28757 0.90193 0.0
C1884 C 0.03191 0.37375 0.93055 0.0
C1885 C 1.00312 0.33544 0.91803 0.0
C1886 C 0.03664 0.39726 0.9403 0.0
C1887 C 0.01855 0.40779 0.94624 0.0
C1888 C 1.00897 0.36071 0.927 0.0
C1889 C 0.99585 0.39424 0.94186 0.0
C1890 C 0.98085 0.32209 0.91854 0.0
C1891 C 0.01469 0.30154 0.90148 0.0
N1892 N 0.99175 0.37143 0.93266 0.0
N1893 N 0.01933 0.32478 0.90954 0.0
H1894 H 0.06896 0.91526 0.22494 0.0
H1895 H 1.00825 0.80543 0.28192 0.0
H1896 H 0.10056 0.85651 0.23363 0.0
H1897 H 0.97925 0.86534 0.2703 0.0
H1898 H 0.04432 0.825 0.26903 0.0
H1899 H 0.03871 0.89899 0.24705 0.0
C1900 C 0.06969 0.89905 0.23194 0.0
C1901 C 0.08716 0.88715 0.22747 0.0
C1902 C 0.03009 0.83386 0.26946 0.0
C1903 C 0.05208 0.86788 0.25224 0.0
C1904 C 1.00954 0.82273 0.27681 0.0
C1905 C 0.99061 0.83363 0.27677 0.0
C1906 C 0.03166 0.85607 0.26225 0.0
C1907 C 0.99318 0.85604 0.27006 0.0
C1908 C 0.05234 0.88966 0.24447 0.0
C1909 C 0.08738 0.86623 0.23689 0.0
N1910 N 1.01322 0.86641 0.26301 0.0
N1911 N 0.0698 0.857 0.24857 0.0
H1912 H 0.51795 0.37156 0.11196 0.0
H1913 H 0.59003 0.46552 0.04161 0.0
H1914 H 0.59006 0.37226 0.10963 0.0
H1915 H 0.54051 0.48428 0.08452 0.0
H1916 H 0.58767 0.42876 0.05933 0.0
H1917 H 0.52283 0.40882 0.09566 0.0
C1918 C 0.53492 0.37935 0.10802 0.0
C1919 C 0.55354 0.36802 0.11266 0.0
C1920 C 0.57731 0.44089 0.06496 0.0
C1921 C 0.55919 0.41183 0.09259 0.0
C1922 C 0.57859 0.46211 0.05468 0.0
C1923 C 0.56561 0.47885 0.06136 0.0
C1924 C 0.56223 0.43526 0.08174 0.0
C1925 C 0.55114 0.47257 0.0786 0.0
C1926 C 0.53768 0.40095 0.09862 0.0
C1927 C 0.57501 0.37983 0.1068 0.0
N1928 N 0.54966 0.45161 0.08768 0.0
N1929 N 0.57708 0.40053 0.09694 0.0
H1930 H 0.98631 0.28917 0.3976 0.0
H1931 H 0.88881 0.26292 0.28339 0.0
H1932 H 1.00506 0.27814 0.32819 0.0
H1933 H 0.88707 0.31589 0.34011 0.0
H1934 H 0.9279 0.26066 0.30169 0.0
H1935 H 0.94712 0.29165 0.37962 0.0
C1936 C 0.9823 0.28714 0.37861 0.0
C1937 C 0.99954 0.28355 0.3646 0.0
C1938 C 0.91895 0.27272 0.31022 0.0
C1939 C 0.95373 0.28567 0.34356 0.0
C1940 C 0.89643 0.27397 0.29976 0.0
C1941 C 0.88418 0.28971 0.30995 0.0
C1942 C 0.92946 0.28669 0.33169 0.0
C1943 C 0.89555 0.30355 0.33131 0.0
C1944 C 0.95979 0.28863 0.3683 0.0
C1945 C 0.99275 0.2811 0.33994 0.0
N1946 N 0.91709 0.30153 0.34145 0.0
N1947 N 0.97063 0.28188 0.33037 0.0
H1948 H 0.04804 0.71121 0.64775 0.0
H1949 H 0.05305 0.6268 0.5278 0.0
H1950 H 0.05669 0.73581 0.58113 0.0
H1951 H 0.05445 0.60193 0.59528 0.0
H1952 H 0.05263 0.66589 0.54704 0.0
H1953 H 0.04876 0.67143 0.62956 0.0
C1954 C 0.05015 0.70847 0.62936 0.0
C1955 C 0.05238 0.72759 0.61628 0.0
C1956 C 0.053 0.65198 0.55778 0.0
C1957 C 0.05298 0.68099 0.5948 0.0
C1958 C 0.0532 0.62933 0.54667 0.0
C1959 C 0.05377 0.61032 0.55958 0.0
C1960 C 0.0532 0.6564 0.58237 0.0
C1961 C 0.05401 0.61557 0.58421 0.0
C1962 C 0.05055 0.68551 0.61888 0.0
C1963 C 0.05497 0.72215 0.59232 0.0
N1964 N 0.05366 0.63773 0.59459 0.0
N1965 N 0.0551 0.69981 0.5826 0.0
H1966 H 0.65965 0.83777 0.86491 0.0
H1967 H 0.73666 0.76017 0.79718 0.0
H1968 H 0.64253 0.76272 0.85769 0.0
H1969 H 0.76152 0.83318 0.82316 0.0
H1970 H 0.70154 0.76054 0.81603 0.0
H1971 H 0.6951 0.83616 0.84763 0.0
C1972 C 0.66326 0.82079 0.85993 0.0
C1973 C 0.64744 0.80039 0.8634 0.0
C1974 C 0.71458 0.77655 0.81763 0.0
C1975 C 0.68923 0.7984 0.84222 0.0
C1976 C 0.73486 0.77643 0.80662 0.0
C1977 C 0.75275 0.79672 0.80808 0.0
C1978 C 0.71128 0.79723 0.83029 0.0
C1979 C 0.74869 0.81697 0.82111 0.0
C1980 C 0.68381 0.81993 0.84986 0.0
C1981 C 0.65384 0.7791 0.856 0.0
N1982 N 0.72873 0.81669 0.83132 0.0
N1983 N 0.67378 0.77872 0.84575 0.0
H1984 H 0.42528 0.52286 0.62997 0.0
H1985 H 0.55257 0.5394 0.60361 0.0
H1986 H 0.47352 0.48701 0.66435 0.0
H1987 H 0.49717 0.53781 0.54759 0.0
H1988 H 0.52375 0.52279 0.62766 0.0
H1989 H 0.45055 0.52976 0.59968 0.0
C1990 C 0.44085 0.51592 0.63082 0.0
C1991 C 0.44747 0.50467 0.64991 0.0
C1992 C 0.51796 0.52591 0.61002 0.0
C1993 C 0.47661 0.51311 0.6159 0.0
C1994 C 0.53435 0.5356 0.59643 0.0
C1995 C 0.52719 0.54006 0.5737 0.0
C1996 C 0.49428 0.52122 0.60098 0.0
C1997 C 0.50338 0.5346 0.56508 0.0
C1998 C 0.45527 0.51994 0.61361 0.0
C1999 C 0.46779 0.49597 0.6501 0.0
N2000 N 0.4877 0.52575 0.57887 0.0
N2001 N 0.48195 0.50089 0.63369 0.0
H2002 H 0.76464 0.21919 0.94873 0.0
H2003 H 0.79754 0.31132 0.85928 0.0
H2004 H 0.82212 0.2788 0.96371 0.0
H2005 H 0.75235 0.24357 0.83669 0.0
H2006 H 0.80067 0.30271 0.8996 0.0
H2007 H 0.7542 0.2311 0.91018 0.0
C2008 C 0.77478 0.23509 0.94421 0.0
C2009 C 0.79441 0.24796 0.95961 0.0
C2010 C 0.78991 0.28974 0.88592 0.0
C2011 C 0.78254 0.26156 0.91527 0.0
C2012 C 0.78805 0.29463 0.86275 0.0
C2013 C 0.77484 0.27804 0.8443 0.0
C2014 C 0.7785 0.26803 0.89102 0.0
C2015 C 0.76278 0.25689 0.85023 0.0
C2016 C 0.76889 0.24173 0.92205 0.0
C2017 C 0.80693 0.26825 0.95251 0.0
N2018 N 0.76505 0.2524 0.87305 0.0
N2019 N 0.80086 0.27431 0.93091 0.0
H2020 H 0.07665 0.41839 0.14614 0.0
H2021 H 0.07706 0.54615 0.12873 0.0
H2022 H 0.09928 0.47477 0.20318 0.0
H2023 H 0.03333 0.48838 0.08144 0.0
H2024 H 0.07979 0.52049 0.15891 0.0
H2025 H 0.05484 0.44255 0.12491 0.0
C2026 C 0.07636 0.43564 0.15451 0.0
C2027 C 0.08975 0.4447 0.17639 0.0
C2028 C 0.06909 0.51349 0.14217 0.0
C2029 C 0.06562 0.47276 0.15194 0.0
C2030 C 0.0676 0.52814 0.12491 0.0
C2031 C 0.05531 0.51922 0.10248 0.0
C2032 C 0.05875 0.48962 0.1367 0.0
C2033 C 0.04315 0.49587 0.09849 0.0
C2034 C 0.06394 0.44946 0.1424 0.0
C2035 C 0.08897 0.46713 0.18648 0.0
N2036 N 0.04566 0.48169 0.11525 0.0
N2037 N 0.07759 0.48066 0.17391 0.0
H2038 H 0.84738 0.86768 0.48298 0.0
H2039 H 0.78802 0.83231 0.34679 0.0
H2040 H 0.7845 0.88907 0.45887 0.0
H2041 H 0.85915 0.8323 0.37153 0.0
H2042 H 0.78391 0.84943 0.38672 0.0
H2043 H 0.84905 0.8513 0.44292 0.0
C2044 C 0.83363 0.86891 0.46944 0.0
C2045 C 0.81566 0.88012 0.47525 0.0
C2046 C 0.80045 0.84573 0.38346 0.0
C2047 C 0.81768 0.86049 0.42749 0.0
C2048 C 0.80285 0.8358 0.36046 0.0
C2049 C 0.82408 0.83062 0.35511 0.0
C2050 C 0.81924 0.85036 0.40197 0.0
C2051 C 0.84242 0.83584 0.37418 0.0
C2052 C 0.83476 0.85945 0.44616 0.0
C2053 C 0.79872 0.88073 0.45593 0.0
N2054 N 0.83952 0.84507 0.39632 0.0
N2055 N 0.8001 0.87109 0.43326 0.0
H2056 H 0.47945 0.5753 0.78591 0.0
H2057 H 0.53925 0.49404 0.85622 0.0
H2058 H 0.49627 0.51442 0.7496 0.0
H2059 H 0.55928 0.56889 0.87599 0.0
H2060 H 0.52266 0.50019 0.81747 0.0
H2061 H 0.50677 0.57266 0.8203 0.0
C2062 C 0.48901 0.56149 0.78516 0.0
C2063 C 0.48557 0.54497 0.76504 0.0
C2064 C 0.53106 0.51524 0.83021 0.0
C2065 C 0.51646 0.54174 0.80412 0.0
C2066 C 0.54075 0.51179 0.85238 0.0
C2067 C 0.5504 0.53097 0.86977 0.0
C2068 C 0.53048 0.53795 0.82556 0.0
C2069 C 0.55134 0.55352 0.86353 0.0
C2070 C 0.50468 0.56011 0.80465 0.0
C2071 C 0.49845 0.52749 0.76483 0.0
N2072 N 0.54099 0.55639 0.84211 0.0
N2073 N 0.51307 0.52607 0.78427 0.0
H2074 H 0.78911 0.21517 0.08602 0.0
H2075 H 0.84843 0.30455 0.20253 0.0
H2076 H 0.84818 0.27165 0.08744 0.0
H2077 H 0.79406 0.24386 0.20249 0.0
H2078 H 0.84751 0.29381 0.16019 0.0
H2079 H 0.78918 0.22677 0.12807 0.0
C2080 C 0.80196 0.23015 0.09504 0.0
C2081 C 0.81867 0.24239 0.08293 0.0
C2082 C 0.83581 0.2828 0.16944 0.0
C2083 C 0.81894 0.25573 0.13149 0.0
C2084 C 0.83635 0.28891 0.19371 0.0
C2085 C 0.82136 0.2751 0.20634 0.0
C2086 C 0.82007 0.26275 0.15746 0.0
C2087 C 0.80606 0.25506 0.1937 0.0
C2088 C 0.80207 0.2367 0.11917 0.0
C2089 C 0.83494 0.26161 0.09585 0.0
N2090 N 0.80578 0.24956 0.17008 0.0
N2091 N 0.83468 0.26761 0.1193 0.0
H2092 H 0.02514 0.42937 0.27634 0.0
H2093 H 0.98767 0.49759 0.36084 0.0
H2094 H 0.05759 0.49304 0.25258 0.0
H2095 H 0.05114 0.5454 0.35442 0.0
H2096 H 0.98785 0.47766 0.32148 0.0
H2097 H 1.00848 0.45201 0.30498 0.0
C2098 C 0.02777 0.4481 0.27646 0.0
C2099 C 0.04233 0.45943 0.26196 0.0
C2100 C 1.00166 0.49258 0.32865 0.0
C2101 C 0.02411 0.4856 0.29514 0.0
C2102 C 1.00145 0.50412 0.351 0.0
C2103 C 0.01969 0.52288 0.36109 0.0
C2104 C 0.02029 0.49984 0.31638 0.0
C2105 C 0.03707 0.53063 0.34752 0.0
C2106 C 0.0183 0.46108 0.29284 0.0
C2107 C 0.046 0.48375 0.26322 0.0
N2108 N 0.03706 0.51893 0.32594 0.0
N2109 N 0.03746 0.49614 0.28005 0.0
H2110 H 0.81198 0.84651 0.59318 0.0
H2111 H 0.81021 0.86268 0.73436 0.0
H2112 H 0.79571 0.90797 0.62821 0.0
H2113 H 0.80254 0.79551 0.6934 0.0
H2114 H 0.80737 0.88036 0.69741 0.0
H2115 H 0.81065 0.82878 0.62979 0.0
C2116 C 0.8076 0.85625 0.60837 0.0
C2117 C 0.80328 0.87882 0.60667 0.0
C2118 C 0.80618 0.86173 0.69641 0.0
C2119 C 0.80288 0.85841 0.65043 0.0
C2120 C 0.80783 0.85146 0.71775 0.0
C2121 C 0.80647 0.82716 0.71772 0.0
C2122 C 0.80365 0.84799 0.67418 0.0
C2123 C 0.80352 0.81413 0.69498 0.0
C2124 C 0.80704 0.84603 0.6296 0.0
C2125 C 0.79848 0.89037 0.62784 0.0
N2126 N 0.80246 0.82456 0.67465 0.0
N2127 N 0.79867 0.88029 0.64851 0.0
H2128 H 0.74991 0.42331 0.52761 0.0
H2129 H 0.70696 0.51357 0.61653 0.0
H2130 H 0.76906 0.43274 0.60306 0.0
H2131 H 0.67879 0.49703 0.5428 0.0
H2132 H 0.72914 0.48324 0.61179 0.0
H2133 H 0.7228 0.44917 0.53254 0.0
C2134 C 0.74821 0.43054 0.54521 0.0
C2135 C 0.76194 0.42597 0.56493 0.0
C2136 C 0.71805 0.48617 0.59664 0.0
C2137 C 0.73122 0.4558 0.57068 0.0
C2138 C 0.70528 0.50348 0.59937 0.0
C2139 C 0.69105 0.50807 0.58002 0.0
C2140 C 0.71676 0.47336 0.57437 0.0
C2141 C 0.68989 0.49451 0.55814 0.0
C2142 C 0.73279 0.44537 0.54801 0.0
C2143 C 0.759 0.43587 0.58731 0.0
N2144 N 0.70265 0.47789 0.55588 0.0
N2145 N 0.74416 0.45044 0.58954 0.0
H2146 H 0.25841 0.0822 0.50556 0.0
H2147 H 0.14322 0.10693 0.55643 0.0
H2148 H 0.25548 0.15009 0.53929 0.0
H2149 H 0.14607 0.04228 0.51567 0.0
H2150 H 0.18374 0.12277 0.55172 0.0
H2151 H 0.21802 0.06772 0.51025 0.0
C2152 C 0.24939 0.09427 0.51397 0.0
C2153 C 0.26103 0.11768 0.52196 0.0
C2154 C 0.17559 0.10511 0.5438 0.0
C2155 C 0.21341 0.10057 0.52765 0.0
C2156 C 0.15226 0.0959 0.54655 0.0
C2157 C 0.14066 0.07295 0.53655 0.0
C2158 C 0.18805 0.09144 0.531 0.0
C2159 C 0.15384 0.05994 0.52385 0.0
C2160 C 0.22602 0.08582 0.51664 0.0
C2161 C 0.24767 0.13202 0.53268 0.0
N2162 N 0.17649 0.06925 0.52155 0.0
N2163 N 0.22487 0.12328 0.53526 0.0
H2164 H 0.30137 0.04705 0.82528 0.0
H2165 H 0.34346 0.93917 0.85725 0.0
H2166 H 0.29198 0.02251 0.89193 0.0
H2167 H 0.37749 0.98277 0.81055 0.0
H2168 H 0.32989 0.97228 0.87463 0.0
H2169 H 0.33354 0.02737 0.82286 0.0
C2170 C 0.30646 0.03791 0.83966 0.0
C2171 C 0.29383 0.03604 0.85863 0.0
C2172 C 0.34086 0.97482 0.86102 0.0
C2173 C 0.33022 0.01301 0.85576 0.0
C2174 C 0.34882 0.95585 0.8511 0.0
C2175 C 0.36106 0.95785 0.83175 0.0
C2176 C 0.34469 0.99576 0.8512 0.0
C2177 C 0.36729 0.98009 0.82474 0.0
C2178 C 0.32489 0.02676 0.83834 0.0
C2179 C 0.30123 0.02421 0.87692 0.0
N2180 N 0.35844 0.998 0.83395 0.0
N2181 N 0.31857 0.01256 0.87473 0.0
H2182 H 0.37603 0.95408 0.01811 0.0
H2183 H 0.51227 0.98294 0.06492 0.0
H2184 H 0.40843 0.91085 0.06124 0.0
H2185 H 0.47726 0.02842 0.02749 0.0
H2186 H 0.47498 0.95556 0.0629 0.0
H2187 H 0.41372 0.98003 0.01936 0.0
C2188 C 0.39113 0.94987 0.02763 0.0
C2189 C 0.38902 0.93027 0.03966 0.0
C2190 C 0.47548 0.97159 0.05524 0.0
C2191 C 0.43236 0.96022 0.04145 0.0
C2192 C 0.49674 0.9873 0.05649 0.0
C2193 C 0.49793 0.00806 0.04639 0.0
C2194 C 0.45527 0.97662 0.0437 0.0
C2195 C 0.47723 0.0127 0.03559 0.0
C2196 C 0.41267 0.96482 0.02847 0.0
C2197 C 0.40924 0.92575 0.0517 0.0
N2198 N 0.45683 0.99708 0.03445 0.0
N2199 N 0.43006 0.94069 0.0524 0.0
H2200 H 0.96633 0.6258 0.75988 0.0
H2201 H 0.84296 0.65329 0.77868 0.0
H2202 H 0.93905 0.62714 0.82596 0.0
H2203 H 0.87661 0.67145 0.71887 0.0
H2204 H 0.87493 0.63583 0.79241 0.0
H2205 H 0.93089 0.63579 0.74141 0.0
C2206 C 0.95287 0.62805 0.77046 0.0
C2207 C 0.95576 0.62586 0.79456 0.0
C2208 C 0.87524 0.64341 0.77614 0.0
C2209 C 0.91523 0.63695 0.77353 0.0
C2210 C 0.85681 0.65315 0.76811 0.0
C2211 C 0.85709 0.66396 0.7476 0.0
C2212 C 0.89419 0.64444 0.76365 0.0
C2213 C 0.87583 0.66358 0.73494 0.0
C2214 C 0.9327 0.63377 0.75992 0.0
C2215 C 0.93774 0.62893 0.80741 0.0
N2216 N 0.89374 0.65413 0.74325 0.0
N2217 N 0.9183 0.63431 0.79674 0.0
H2218 H 0.89984 0.62682 0.07062 0.0
H2219 H 0.99676 0.57933 1.00474 0.0
H2220 H 0.91577 0.65019 0.00522 0.0
H2221 H 1.00814 0.59662 0.08009 0.0
H2222 H 0.96335 0.59847 1.00295 0.0
H2223 H 0.93464 0.60977 0.07314 0.0
C2224 C 0.9106 0.62859 0.05676 0.0
C2225 C 0.90442 0.64061 0.03782 0.0
C2226 C 0.97307 0.59809 0.01994 0.0
C2227 C 0.94484 0.61964 0.04018 0.0
C2228 C 0.99232 0.58696 0.02103 0.0
C2229 C 1.00595 0.58604 0.04264 0.0
C2230 C 0.96622 0.60804 0.04066 0.0
C2231 C 0.99868 0.59666 0.0629 0.0
C2232 C 0.93067 0.61869 0.05824 0.0
C2233 C 0.91951 0.64163 0.02044 0.0
N2234 N 0.97949 0.6067 0.06143 0.0
N2235 N 0.93843 0.63118 0.02187 0.0
H2236 H 0.23162 0.11334 0.80113 0.0
H2237 H 0.31734 0.23757 0.83947 0.0
H2238 H 0.26633 0.13694 0.87219 0.0
H2239 H 0.26753 0.22191 0.77607 0.0
H2240 H 0.30022 0.19997 0.85098 0.0
H2241 H 0.2459 0.15224 0.79076 0.0
C2242 C 0.24219 0.1267 0.81457 0.0
C2243 C 0.24786 0.12182 0.83756 0.0
C2244 C 0.29296 0.20482 0.83461 0.0
C2245 C 0.26436 0.16633 0.82573 0.0
C2246 C 0.30277 0.22625 0.82797 0.0
C2247 C 0.29393 0.23285 0.8067 0.0
C2248 C 0.27434 0.18972 0.81974 0.0
C2249 C 0.27492 0.21753 0.79261 0.0
C2250 C 0.25026 0.14893 0.80865 0.0
C2251 C 0.2615 0.13989 0.85426 0.0
N2252 N 0.26588 0.19658 0.79929 0.0
N2253 N 0.26943 0.16128 0.84797 0.0
H2254 H 0.468 0.04354 0.36314 0.0
H2255 H 0.3638 0.94845 0.28488 0.0
H2256 H 0.44951 0.03917 0.28791 0.0
H2257 H 0.38973 0.94246 0.35653 0.0
H2258 H 0.39161 0.98551 0.28783 0.0
H2259 H 0.43583 0.00998 0.36314 0.0
C2260 C 0.45712 0.03567 0.34672 0.0
C2261 C 0.46161 0.04397 0.32548 0.0
C2262 C 0.39113 0.97617 0.30298 0.0
C2263 C 0.42493 1.00596 0.32536 0.0
C2264 C 0.3753 0.95496 0.30126 0.0
C2265 C 0.37456 0.94222 0.3204 0.0
C2266 C 0.40642 0.98473 0.32397 0.0
C2267 C 0.38958 0.95177 0.34138 0.0
C2268 C 0.43884 0.01653 0.34671 0.0
C2269 C 0.44695 0.03318 0.30468 0.0
N2270 N 0.40503 0.97239 0.34256 0.0
N2271 N 0.42937 0.01476 0.30516 0.0
H2272 H 0.62002 0.4252 0.59052 0.0
H2273 H 0.54384 0.48326 0.50569 0.0
H2274 H 0.54613 0.40079 0.57009 0.0
H2275 H 0.61804 0.50526 0.52342 0.0
H2276 H 0.54602 0.4453 0.51811 0.0
H2277 H 0.62135 0.4467 0.55672 0.0
C2278 C 0.60412 0.42404 0.57875 0.0
C2279 C 0.58282 0.41181 0.58364 0.0
C2280 C 0.56195 0.4581 0.51851 0.0
C2281 C 0.58416 0.43654 0.54497 0.0
C2282 C 0.56069 0.47966 0.5111 0.0
C2283 C 0.58073 0.49741 0.51408 0.0
C2284 C 0.58334 0.45466 0.52915 0.0
C2285 C 0.60215 0.49201 0.52131 0.0
C2286 C 0.60489 0.43627 0.55935 0.0
C2287 C 0.56288 0.41053 0.56743 0.0
N2288 N 0.60285 0.47132 0.52923 0.0
N2289 N 0.56395 0.42318 0.54913 0.0
H2290 H 0.42531 0.70618 0.36101 0.0
H2291 H 0.35032 0.7486 0.25746 0.0
H2292 H 0.45444 0.72644 0.29937 0.0
H2293 H 0.34316 0.76407 0.33064 0.0
H2294 H 0.38407 0.73209 0.26949 0.0
H2295 H 0.3901 0.71859 0.34672 0.0
C2296 C 0.42435 0.71308 0.34445 0.0
C2297 C 0.44312 0.71564 0.33163 0.0
C2298 C 0.37499 0.73907 0.28282 0.0
C2299 C 0.40255 0.72944 0.31494 0.0
C2300 C 0.35577 0.7484 0.276 0.0
C2301 C 0.34409 0.75784 0.2931 0.0
C2302 C 0.38208 0.73867 0.30683 0.0
C2303 C 0.35183 0.75719 0.3169 0.0
C2304 C 0.4042 0.72019 0.33631 0.0
C2305 C 0.44052 0.72441 0.30999 0.0
N2306 N 0.37024 0.74765 0.32305 0.0
N2307 N 0.4206 0.73101 0.3023 0.0
H2308 H 0.05456 0.81298 0.13439 0.0
H2309 H 0.1336 0.71875 0.13263 0.0
H2310 H 0.12822 0.82977 0.15837 0.0
H2311 H 0.06685 0.70702 0.08938 0.0
H2312 H 0.13062 0.75867 0.14503 0.0
H2313 H 0.05725 0.77292 0.12079 0.0
C2314 C 0.07128 0.80826 0.1368 0.0
C2315 C 0.09123 0.82476 0.14745 0.0
C2316 C 0.11666 0.74738 0.13276 0.0
C2317 C 0.09437 0.77911 0.13211 0.0
C2318 C 0.11841 0.72459 0.12552 0.0
C2319 C 0.10049 0.70944 0.10982 0.0
C2320 C 0.09675 0.75509 0.12446 0.0
C2321 C 0.08095 0.71793 0.10174 0.0
C2322 C 0.0728 0.78546 0.12896 0.0
C2323 C 0.11244 0.8177 0.15009 0.0
N2324 N 0.07957 0.74018 0.10922 0.0
N2325 N 0.11344 0.7954 0.14257 0.0
H2326 H 0.08205 0.25076 0.86499 0.0
H2327 H 0.15535 0.25019 0.75736 0.0
H2328 H 0.05783 0.20753 0.79794 0.0
H2329 H 0.18323 0.28732 0.82661 0.0
H2330 H 0.11898 0.23536 0.77177 0.0
H2331 H 0.11908 0.26492 0.85131 0.0
C2332 C 0.08455 0.24416 0.84745 0.0
C2333 C 0.0668 0.22799 0.83256 0.0
C2334 C 0.13304 0.24674 0.78384 0.0
C2335 C 0.10899 0.24421 0.81677 0.0
C2336 C 0.15374 0.25534 0.77557 0.0
C2337 C 0.1723 0.27003 0.79081 0.0
C2338 C 0.13082 0.25295 0.80751 0.0
C2339 C 0.1694 0.27585 0.81433 0.0
C2340 C 0.10568 0.25227 0.83965 0.0
C2341 C 0.071 0.22003 0.81002 0.0
N2342 N 0.14903 0.26734 0.82196 0.0
N2343 N 0.09161 0.2283 0.80278 0.0
H2344 H 0.54653 0.72905 0.97867 0.0
H2345 H 0.56889 0.59664 0.96328 0.0
H2346 H 0.58024 0.70494 0.92187 0.0
H2347 H 0.55218 0.62967 0.0272 0.0
H2348 H 0.5709 0.63381 0.94652 0.0
H2349 H 0.54667 0.69228 0.99488 0.0
C2350 C 0.55427 0.71625 0.96954 0.0
C2351 C 0.56371 0.72112 0.94869 0.0
C2352 C 0.56675 0.63302 0.96421 0.0
C2353 C 0.56323 0.67699 0.96754 0.0
C2354 C 0.56546 0.61149 0.97392 0.0
C2355 C 0.56023 0.60919 0.99705 0.0
C2356 C 0.56249 0.65309 0.9773 0.0
C2357 C 0.55623 0.62985 0.00943 0.0
C2358 C 0.55423 0.69488 0.97896 0.0
C2359 C 0.57308 0.70286 0.93808 0.0
N2360 N 0.55729 0.65033 0.99953 0.0
N2361 N 0.57241 0.68196 0.94737 0.0
H2362 H 0.12876 0.77734 0.68175 0.0
H2363 H 0.25102 0.84068 0.76356 0.0
H2364 H 0.14302 0.84684 0.71961 0.0
H2365 H 0.23619 0.76761 0.73616 0.0
H2366 H 0.2123 0.84307 0.74549 0.0
H2367 H 0.16781 0.7733 0.69878 0.0
C2368 C 0.13996 0.79184 0.69344 0.0
C2369 C 0.13199 0.81253 0.69899 0.0
C2370 C 0.21736 0.82643 0.74334 0.0
C2371 C 0.17751 0.80795 0.71887 0.0
C2372 C 0.23973 0.82502 0.75377 0.0
C2373 C 0.24746 0.80386 0.75174 0.0
C2374 C 0.20193 0.80661 0.73025 0.0
C2375 C 0.23141 0.78437 0.73854 0.0
C2376 C 0.16241 0.78946 0.70332 0.0
C2377 C 0.14783 0.83046 0.71455 0.0
N2378 N 0.20974 0.78622 0.72838 0.0
N2379 N 0.16938 0.82778 0.72368 0.0
H2380 H 0.05581 0.34343 0.4812 0.0
H2381 H 0.05653 0.47588 0.45663 0.0
H2382 H 0.07184 0.36594 0.41545 0.0
H2383 H 0.06858 0.45782 0.52663 0.0
H2384 H 0.05856 0.43592 0.44049 0.0
H2385 H 0.05729 0.38414 0.49712 0.0
C2386 C 0.06003 0.3569 0.47009 0.0
C2387 C 0.06418 0.35064 0.44686 0.0
C2388 C 0.06083 0.44065 0.45939 0.0
C2389 C 0.06491 0.39846 0.46517 0.0
C2390 C 0.05959 0.46366 0.46874 0.0
C2391 C 0.06245 0.4709 0.49331 0.0
C2392 C 0.06442 0.42394 0.47447 0.0
C2393 C 0.06637 0.45364 0.50767 0.0
C2394 C 0.06075 0.38037 0.47928 0.0
C2395 C 0.06903 0.36946 0.43355 0.0
N2396 N 0.06698 0.43133 0.49817 0.0
N2397 N 0.06898 0.39212 0.44269 0.0
H2398 H 0.4914 0.26905 0.21375 0.0
H2399 H 0.38898 0.3314 0.25188 0.0
H2400 H 0.47578 0.32832 0.18296 0.0
H2401 H 0.38591 0.25854 0.25635 0.0
H2402 H 0.42347 0.33284 0.23175 0.0
H2403 H 0.45671 0.26708 0.23379 0.0
C2404 C 0.48087 0.2818 0.21116 0.0
C2405 C 0.48713 0.29889 0.19623 0.0
C2406 C 0.41542 0.31651 0.23719 0.0
C2407 C 0.44655 0.29694 0.22017 0.0
C2408 C 0.39555 0.31565 0.24895 0.0
C2409 C 0.38392 0.29481 0.25631 0.0
C2410 C 0.42478 0.29651 0.23283 0.0
C2411 C 0.39382 0.27514 0.25134 0.0
C2412 C 0.46079 0.28058 0.2227 0.0
C2413 C 0.47213 0.3147 0.19399 0.0
N2414 N 0.41343 0.27654 0.24033 0.0
N2415 N 0.45307 0.31348 0.2058 0.0
H2416 H 0.72301 0.56005 0.42731 0.0
H2417 H 0.60107 0.58446 0.45612 0.0
H2418 H 0.67209 0.5778 0.37672 0.0
H2419 H 0.65027 0.56317 0.5059 0.0
H2420 H 0.62878 0.58622 0.42801 0.0
H2421 H 0.69859 0.5656 0.45782 0.0
C2422 C 0.70684 0.56536 0.42269 0.0
C2423 C 0.69942 0.56822 0.39945 0.0
C2424 C 0.63354 0.58129 0.44515 0.0
C2425 C 0.67141 0.57442 0.43405 0.0
C2426 C 0.6177 0.58025 0.46118 0.0
C2427 C 0.62326 0.57347 0.48332 0.0
C2428 C 0.65504 0.57547 0.45129 0.0
C2429 C 0.64516 0.56837 0.48899 0.0
C2430 C 0.69288 0.56845 0.44007 0.0
C2431 C 0.67835 0.57514 0.39439 0.0
N2432 N 0.66019 0.56934 0.47303 0.0
N2433 N 0.66501 0.57784 0.41152 0.0
H2434 H 0.33998 0.81273 0.09777 0.0
H2435 H 0.30713 0.84291 0.22475 0.0
H2436 H 0.30239 0.86672 0.11244 0.0
H2437 H 0.30186 0.77119 0.19604 0.0
H2438 H 0.31274 0.85453 0.1858 0.0
H2439 H 0.33246 0.79903 0.13552 0.0
C2440 C 0.32987 0.82148 0.10872 0.0
C2441 C 0.32161 0.84077 0.10173 0.0
C2442 C 0.31043 0.83626 0.18811 0.0
C2443 C 0.31384 0.8258 0.14535 0.0
C2444 C 0.30744 0.82965 0.21035 0.0
C2445 C 0.30403 0.80605 0.21368 0.0
C2446 C 0.31065 0.81925 0.16917 0.0
C2447 C 0.30435 0.78958 0.19426 0.0
C2448 C 0.32568 0.81371 0.13028 0.0
C2449 C 0.30883 0.8516 0.11687 0.0
N2450 N 0.30781 0.79649 0.17291 0.0
N2451 N 0.30568 0.84422 0.13806 0.0
H2452 H 0.079 0.57953 0.85833 0.0
H2453 H 0.07275 0.61426 0.99457 0.0
H2454 H 0.04808 0.63553 0.88464 0.0
H2455 H 0.08586 0.54858 0.96503 0.0
H2456 H 0.07247 0.62727 0.95573 0.0
H2457 H 0.09077 0.57353 0.89874 0.0
C2458 C 0.07497 0.59081 0.87261 0.0
C2459 C 0.06208 0.60774 0.86812 0.0
C2460 C 0.07567 0.61013 0.95785 0.0
C2461 C 0.07542 0.60085 0.91436 0.0
C2462 C 0.07589 0.6027 0.98 0.0
C2463 C 0.07902 0.58018 0.98293 0.0
C2464 C 0.07877 0.59498 0.9386 0.0
C2465 C 0.08308 0.56597 0.96348 0.0
C2466 C 0.08162 0.58729 0.89567 0.0
C2467 C 0.05754 0.62195 0.88732 0.0
N2468 N 0.08268 0.57355 0.94209 0.0
N2469 N 0.06398 0.61802 0.90965 0.0
H2470 H 0.33532 0.18222 0.60645 0.0
H2471 H 0.32646 0.29487 0.69497 0.0
H2472 H 0.36351 0.25165 0.59246 0.0
H2473 H 0.34 0.233 0.72194 0.0
H2474 H 0.33242 0.27836 0.6555 0.0
H2475 H 0.32939 0.19881 0.6459 0.0
C2476 C 0.34008 0.20097 0.61139 0.0
C2477 C 0.35002 0.21529 0.59543 0.0
C2478 C 0.33402 0.26829 0.66999 0.0
C2479 C 0.34263 0.23487 0.64151 0.0
C2480 C 0.33051 0.27775 0.69275 0.0
C2481 C 0.33268 0.2656 0.71248 0.0
C2482 C 0.33908 0.24588 0.66609 0.0
C2483 C 0.33814 0.24336 0.70775 0.0
C2484 C 0.33677 0.21049 0.6342 0.0
C2485 C 0.35586 0.23959 0.60368 0.0
N2486 N 0.3408 0.2343 0.68539 0.0
N2487 N 0.35187 0.24843 0.62562 0.0
H2488 H 0.7128 0.54064 0.26422 0.0
H2489 H 0.6483 0.61931 0.1865 0.0
H2490 H 0.70863 0.61144 0.28762 0.0
H2491 H 0.64143 0.54515 0.16772 0.0
H2492 H 0.67671 0.61845 0.22036 0.0
H2493 H 0.69345 0.54398 0.22515 0.0
C2494 C 0.70821 0.557 0.26099 0.0
C2495 C 0.71191 0.57566 0.27918 0.0
C2496 C 0.66912 0.60239 0.20872 0.0
C2497 C 0.68983 0.57957 0.23489 0.0
C2498 C 0.65279 0.60285 0.1895 0.0
C2499 C 0.64226 0.58223 0.17445 0.0
C2500 C 0.67493 0.58114 0.213 0.0
C2501 C 0.64917 0.56149 0.17883 0.0
C2502 C 0.69707 0.55886 0.23879 0.0
C2503 C 0.70569 0.59649 0.27415 0.0
N2504 N 0.66493 0.56143 0.19785 0.0
N2505 N 0.69477 0.59781 0.25254 0.0
H2506 H 0.29274 0.8502 0.97415 0.0
H2507 H 0.35157 0.84043 0.85876 0.0
H2508 H 0.3638 0.84356 0.97564 0.0
H2509 H 0.28157 0.80154 0.85667 0.0
H2510 H 0.35474 0.84908 0.90153 0.0
H2511 H 0.28648 0.83866 0.93105 0.0
C2512 C 0.30694 0.84613 0.96554 0.0
C2513 C 0.32882 0.84779 0.97872 0.0
C2514 C 0.33865 0.83871 0.89172 0.0
C2515 C 0.32191 0.83532 0.92943 0.0
C2516 C 0.33675 0.83386 0.86725 0.0
C2517 C 0.31626 0.8202 0.85398 0.0
C2518 C 0.31976 0.83039 0.90324 0.0
C2519 C 0.29772 0.81206 0.86617 0.0
C2520 C 0.30332 0.83955 0.94097 0.0
C2521 C 0.34658 0.8424 0.96644 0.0
N2522 N 0.29981 0.81745 0.8901 0.0
N2523 N 0.34282 0.83679 0.94262 0.0
H2524 H 0.04443 0.51697 0.77689 0.0
H2525 H 0.01732 0.48786 0.63812 0.0
H2526 H 1.00432 0.55204 0.73107 0.0
H2527 H 0.0742 0.46939 0.68015 0.0
H2528 H 1.00142 0.49778 0.67375 0.0
H2529 H 0.04515 0.48824 0.74335 0.0
C2530 C 0.03552 0.51848 0.75983 0.0
C2531 C 0.02477 0.53726 0.75661 0.0
C2532 C 0.01702 0.4909 0.67513 0.0
C2533 C 0.02526 0.50424 0.71837 0.0
C2534 C 0.02601 0.48488 0.65472 0.0
C2535 C 0.0476 0.47848 0.6562 0.0
C2536 C 0.02972 0.49057 0.69709 0.0
C2537 C 0.0579 0.47497 0.67831 0.0
C2538 C 0.03587 0.502 0.74076 0.0
C2539 C 1.01322 0.53813 0.73423 0.0
N2540 N 0.0492 0.48169 0.69802 0.0
N2541 N 0.01399 0.52198 0.71588 0.0
H2542 H 0.31497 0.18952 0.44571 0.0
H2543 H 0.35729 0.2946 0.36812 0.0
H2544 H 0.37275 0.24711 0.47062 0.0
H2545 H 0.30745 0.23168 0.33846 0.0
H2546 H 0.36145 0.2787 0.4059 0.0
H2547 H 0.30999 0.20544 0.40788 0.0
C2548 C 0.3265 0.20563 0.44359 0.0
C2549 C 0.34431 0.21674 0.46226 0.0
C2550 C 0.34958 0.26825 0.39118 0.0
C2551 C 0.33864 0.23552 0.41765 0.0
C2552 C 0.34719 0.27742 0.36928 0.0
C2553 C 0.33203 0.26474 0.34924 0.0
C2554 C 0.33656 0.24601 0.39393 0.0
C2555 C 0.31951 0.24245 0.35284 0.0
C2556 C 0.32371 0.21474 0.42163 0.0
C2557 C 0.35866 0.23758 0.45738 0.0
N2558 N 0.32197 0.23407 0.3743 0.0
N2559 N 0.3555 0.24607 0.43609 0.0
H2560 H 0.34984 0.64665 0.54751 0.0
H2561 H 0.46152 0.64513 0.48329 0.0
H2562 H 0.37823 0.70053 0.50749 0.0
H2563 H 0.43376 0.59228 0.52475 0.0
H2564 H 0.43292 0.66721 0.49429 0.0
H2565 H 0.3829 0.62874 0.54283 0.0
C2566 C 0.36324 0.65497 0.5381 0.0
C2567 C 0.36113 0.675 0.52768 0.0
C2568 C 0.43319 0.65085 0.5011 0.0
C2569 C 0.39885 0.65433 0.52186 0.0
C2570 C 0.44941 0.63813 0.49467 0.0
C2571 C 0.45008 0.61676 0.50306 0.0
C2572 C 0.41737 0.64211 0.51594 0.0
C2573 C 0.43411 0.60877 0.51804 0.0
C2574 C 0.38207 0.64465 0.53531 0.0
C2575 C 0.37907 0.68502 0.51573 0.0
N2576 N 0.41837 0.62137 0.52389 0.0
N2577 N 0.39702 0.67442 0.51289 0.0
H2578 H 0.86636 0.98305 0.50968 0.0
H2579 H 0.99852 0.01294 0.57453 0.0
H2580 H 0.88863 0.94882 0.5677 0.0
H2581 H 0.98224 0.023 0.50217 0.0
H2582 H 0.95784 0.99367 0.57427 0.0
H2583 H 0.90723 1.00142 0.50835 0.0
C2584 C 0.87975 0.97927 0.52214 0.0
C2585 C 0.8736 0.96405 0.53877 0.0
C2586 C 0.96305 1.0001 0.55841 0.0
C2587 C 0.92114 0.98583 0.53767 0.0
C2588 C 0.98645 0.01131 0.55855 0.0
C2589 C 0.99432 0.01991 0.53835 0.0
C2590 C 0.94666 0.99762 0.53807 0.0
C2591 C 0.97737 0.01681 0.51824 0.0
C2592 C 0.90323 0.98984 0.52134 0.0
C2593 C 0.89216 0.96017 0.55442 0.0
N2594 N 0.95457 0.00624 0.51869 0.0
N2595 N 0.91474 0.97105 0.55364 0.0
H2596 H 0.83785 0.04838 0.23465 0.0
H2597 H 0.81159 0.16482 0.20296 0.0
H2598 H 0.8732 0.08743 0.18566 0.0
H2599 H 0.76688 0.11769 0.23877 0.0
H2600 H 0.82756 0.13249 0.18752 0.0
H2601 H 0.80583 0.068 0.22789 0.0
C2602 C 0.83856 0.06073 0.22201 0.0
C2603 C 0.85835 0.06676 0.21111 0.0
C2604 C 0.81382 0.12902 0.19824 0.0
C2605 C 0.82214 0.08984 0.20379 0.0
C2606 C 0.80453 0.14753 0.20699 0.0
C2607 C 0.78838 0.14414 0.22287 0.0
C2608 C 0.80724 0.10711 0.20578 0.0
C2609 C 0.77996 0.12127 0.22732 0.0
C2610 C 0.82026 0.07193 0.2181 0.0
C2611 C 0.85832 0.08254 0.19462 0.0
N2612 N 0.78993 0.10374 0.21935 0.0
N2613 N 0.84076 0.09408 0.19195 0.0
H2614 H 0.74568 0.10938 0.00873 0.0
H2615 H 0.60919 0.10107 0.98995 0.0
H2616 H 0.7172 0.17068 1.00333 0.0
H2617 H 0.64194 0.05568 0.0297 0.0
H2618 H 0.64788 0.12336 0.98555 0.0
H2619 H 0.7066 0.08608 0.00753 0.0
C2620 C 0.73118 0.11793 0.00721 0.0
C2621 C 0.73468 0.14203 0.00632 0.0
C2622 C 0.64647 0.10836 0.995 0.0
C2623 C 0.68991 0.11536 1.00457 0.0
C2624 C 0.62451 0.09556 0.9973 0.0
C2625 C 0.62253 0.07661 0.01022 0.0
C2626 C 0.66634 0.10171 0.00525 0.0
C2627 C 0.6428 0.07027 0.0197 0.0
C2628 C 0.70891 0.10462 0.00654 0.0
C2629 C 0.71523 0.15218 1.00432 0.0
N2630 N 0.66387 0.08276 0.01699 0.0
N2631 N 0.69359 0.13875 1.00343 0.0
H2632 H 0.15495 0.43069 0.32744 0.0
H2633 H 0.27969 0.43604 0.28782 0.0
H2634 H 0.1689 0.43423 0.25603 0.0
H2635 H 0.25876 0.39964 0.34544 0.0
H2636 H 0.24142 0.44529 0.28134 0.0
H2637 H 0.19527 0.42766 0.33895 0.0
C2638 C 0.16644 0.43078 0.31422 0.0
C2639 C 0.15852 0.43246 0.2907 0.0
C2640 C 0.24537 0.43553 0.29558 0.0
C2641 C 0.20449 0.42973 0.30385 0.0
C2642 C 0.26718 0.43025 0.29931 0.0
C2643 C 0.27233 0.41666 0.31692 0.0
C2644 C 0.22866 0.42739 0.3097 0.0
C2645 C 0.25561 0.41019 0.33168 0.0
C2646 C 0.18937 0.42912 0.32081 0.0
C2647 C 0.17415 0.43264 0.27428 0.0
N2648 N 0.23439 0.41542 0.32759 0.0
N2649 N 0.1964 0.43142 0.2812 0.0
H2650 H 0.24872 0.50568 0.06023 0.0
H2651 H 0.10832 0.48442 0.02762 0.0
H2652 H 0.20825 0.43787 0.02944 0.0
H2653 H 0.15329 0.55018 0.05774 0.0
H2654 H 0.14265 0.46661 0.02764 0.0
H2655 H 0.21358 0.52082 0.05887 0.0
C2656 C 0.23251 0.49365 0.05307 0.0
C2657 C 0.23241 0.47002 0.04496 0.0
C2658 C 0.14511 0.48494 0.03425 0.0
C2659 C 0.19017 0.48825 0.04338 0.0
C2660 C 0.12527 0.4953 0.03427 0.0
C2661 C 0.1272 0.51926 0.04271 0.0
C2662 C 0.16772 0.49831 0.04276 0.0
C2663 C 0.15022 0.53183 0.05099 0.0
C2664 C 0.21207 0.5026 0.05233 0.0
C2665 C 0.20998 0.4561 0.03597 0.0
N2666 N 0.16904 0.52139 0.05079 0.0
N2667 N 0.19013 0.46531 0.03547 0.0
H2668 H 0.92319 0.9665 0.22254 0.0
H2669 H 0.82114 0.87211 0.2586 0.0
H2670 H 0.86276 0.98239 0.24947 0.0
H2671 H 0.89 0.85976 0.25591 0.0
H2672 H 0.83358 0.9102 0.24615 0.0
H2673 H 0.90856 0.92492 0.22581 0.0
C2674 C 0.90665 0.96113 0.22866 0.0
C2675 C 0.89416 0.97773 0.23591 0.0
C2676 C 0.84596 0.89912 0.24818 0.0
C2677 C 0.87744 0.93073 0.23957 0.0
C2678 C 0.83888 0.87734 0.25531 0.0
C2679 C 0.85464 0.86281 0.25867 0.0
C2680 C 0.86897 0.90655 0.2443 0.0
C2681 C 0.87733 0.8705 0.25379 0.0
C2682 C 0.89843 0.93754 0.23068 0.0
C2683 C 0.87297 0.97008 0.24392 0.0
N2684 N 0.88389 0.89196 0.24699 0.0
N2685 N 0.8653 0.94716 0.24557 0.0
H2686 H 0.63354 0.03451 0.81554 0.0
H2687 H 0.67919 0.12298 0.72681 0.0
H2688 H 0.62013 0.01808 0.7398 0.0
H2689 H 0.69953 0.13725 0.80212 0.0
H2690 H 0.65514 0.08564 0.73161 0.0
H2691 H 0.65481 0.07355 0.81131 0.0
C2692 C 0.63482 0.03915 0.79802 0.0
C2693 C 0.62508 0.02286 0.778 0.0
C2694 C 0.66485 0.09691 0.74711 0.0
C2695 C 0.64959 0.06753 0.77307 0.0
C2696 C 0.67877 0.11821 0.74437 0.0
C2697 C 0.69166 0.13327 0.76407 0.0
C2698 C 0.66365 0.0905 0.76974 0.0
C2699 C 0.68983 0.12631 0.78643 0.0
C2700 C 0.64709 0.06143 0.79564 0.0
C2701 C 0.62741 0.02993 0.75576 0.0
N2702 N 0.67615 0.10541 0.78865 0.0
N2703 N 0.63947 0.05166 0.75392 0.0
loop_
_geom_bond_atom_site_label_1
_geom_bond_atom_site_label_2
_geom_bond_distance
_geom_bond_site_symmetry_2
_ccdc_geom_bond_type
Mg0 O1 2.028 . S
Mg0 O7 1.986 . S
Mg0 O9 2.114 . S
Mg0 O10 2.251 . S
Mg0 O13 2.010 . S
O1 Mg0 2.028 . S
O1 C4 1.250 . S
O2 Mg3 2.028 . S
O2 C4 1.248 . S
Mg3 O2 2.028 . S
Mg3 O8 2.032 . S
Mg3 O10 2.079 . S
C4 O1 1.250 . S
C4 O2 1.248 . S
C5 O6 1.264 . S
C5 O13 1.249 . S
O6 C5 1.264 . S
O7 Mg0 1.986 . S
O7 C11 1.246 . S
O8 Mg3 2.032 . S
O8 C11 1.259 . S
O9 Mg0 2.114 . S
O9 C12 1.252 . S
O10 Mg0 2.251 . S
O10 Mg3 2.079 . S
O10 C12 1.273 . S
C11 O7 1.246 . S
C11 O8 1.259 . S
C12 O9 1.252 . S
C12 O10 1.273 . S
O13 Mg0 2.010 . S
O13 C5 1.249 . S
Mg14 O15 2.028 . S
Mg14 O21 1.986 . S
Mg14 O23 2.114 . S
Mg14 O24 2.251 . S
Mg14 O27 2.010 . S
O15 Mg14 2.028 . S
O15 C18 1.250 . S
O16 Mg17 2.033 . S
O16 C18 1.248 . S
Mg17 O16 2.033 . S
Mg17 O22 2.036 . S
Mg17 O24 2.080 . S
C18 O15 1.250 . S
C18 O16 1.248 . S
C19 O20 1.264 . S
C19 O27 1.249 . S
O20 C19 1.264 . S
O21 Mg14 1.986 . S
O21 C25 1.246 . S
O22 Mg17 2.036 . S
O22 C25 1.259 . S
O23 Mg14 2.114 . S
O23 C26 1.252 . S
O24 Mg14 2.251 . S
O24 Mg17 2.080 . S
O24 C26 1.273 . S
C25 O21 1.246 . S
C25 O22 1.259 . S
C26 O23 1.252 . S
C26 O24 1.273 . S
O27 Mg14 2.010 . S
O27 C19 1.249 . S
Mg28 O29 2.028 . S
Mg28 O35 1.986 . S
Mg28 O37 2.114 . S
Mg28 O38 2.251 . S
Mg28 O41 2.010 . S
O29 Mg28 2.028 . S
O29 C32 1.250 . S
O30 Mg31 2.028 . S
O30 C32 1.248 . S
Mg31 O30 2.028 . S
Mg31 O36 2.032 . S
Mg31 O38 2.079 . S
C32 O29 1.250 . S
C32 O30 1.248 . S
C33 O34 1.264 . S
C33 O41 1.249 . S
O34 C33 1.264 . S
O35 Mg28 1.986 . S
O35 C39 1.246 . S
O36 Mg31 2.032 . S
O36 C39 1.259 . S
O37 Mg28 2.114 . S
O37 C40 1.252 . S
O38 Mg28 2.251 . S
O38 Mg31 2.079 . S
O38 C40 1.273 . S
C39 O35 1.246 . S
C39 O36 1.259 . S
C40 O37 1.252 . S
C40 O38 1.273 . S
O41 Mg28 2.010 . S
O41 C33 1.249 . S
Mg42 O43 2.028 . S
Mg42 O49 1.986 . S
Mg42 O51 2.114 . S
Mg42 O52 2.251 . S
Mg42 O55 2.010 . S
O43 Mg42 2.028 . S
O43 C46 1.250 . S
O44 Mg45 2.028 . S
O44 C46 1.248 . S
Mg45 O44 2.028 . S
Mg45 O50 2.032 . S
Mg45 O52 2.079 . S
C46 O43 1.250 . S
C46 O44 1.248 . S
C47 O48 1.264 . S
C47 O55 1.249 . S
O48 C47 1.264 . S
O49 Mg42 1.986 . S
O49 C53 1.246 . S
O50 Mg45 2.032 . S
O50 C53 1.259 . S
O51 Mg42 2.114 . S
O51 C54 1.252 . S
O52 Mg42 2.251 . S
O52 Mg45 2.079 . S
O52 C54 1.273 . S
C53 O49 1.246 . S
C53 O50 1.259 . S
C54 O51 1.252 . S
C54 O52 1.273 . S
O55 Mg42 2.010 . S
O55 C47 1.249 . S
Mg56 O57 2.028 . S
Mg56 O63 1.986 . S
Mg56 O65 2.114 . S
Mg56 O66 2.251 . S
Mg56 O69 2.010 . S
O57 Mg56 2.028 . S
O57 C60 1.250 . S
O58 Mg59 2.028 . S
O58 C60 1.248 . S
Mg59 O58 2.028 . S
Mg59 O64 2.032 . S
Mg59 O66 2.079 . S
C60 O57 1.250 . S
C60 O58 1.248 . S
C61 O62 1.264 . S
C61 O69 1.249 . S
O62 C61 1.264 . S
O63 Mg56 1.986 . S
O63 C67 1.246 . S
O64 Mg59 2.032 . S
O64 C67 1.259 . S
O65 Mg56 2.114 . S
O65 C68 1.252 . S
O66 Mg56 2.251 . S
O66 Mg59 2.079 . S
O66 C68 1.273 . S
C67 O63 1.246 . S
C67 O64 1.259 . S
C68 O65 1.252 . S
C68 O66 1.273 . S
O69 Mg56 2.010 . S
O69 C61 1.249 . S
Mg70 O71 2.028 . S
Mg70 O77 1.986 . S
Mg70 O79 2.114 . S
Mg70 O80 2.251 . S
Mg70 O83 2.010 . S
O71 Mg70 2.028 . S
O71 C74 1.250 . S
O72 Mg73 2.028 . S
O72 C74 1.248 . S
Mg73 O72 2.028 . S
Mg73 O78 2.032 . S
Mg73 O80 2.079 . S
C74 O71 1.250 . S
C74 O72 1.248 . S
C75 O76 1.264 . S
C75 O83 1.249 . S
O76 C75 1.264 . S
O77 Mg70 1.986 . S
O77 C81 1.246 . S
O78 Mg73 2.032 . S
O78 C81 1.259 . S
O79 Mg70 2.114 . S
O79 C82 1.252 . S
O80 Mg70 2.251 . S
O80 Mg73 2.079 . S
O80 C82 1.273 . S
C81 O77 1.246 . S
C81 O78 1.259 . S
C82 O79 1.252 . S
C82 O80 1.273 . S
O83 Mg70 2.010 . S
O83 C75 1.249 . S
Mg84 O85 2.028 . S
Mg84 O91 1.986 . S
Mg84 O93 2.114 . S
Mg84 O94 2.251 . S
Mg84 O97 2.010 . S
O85 Mg84 2.028 . S
O85 C88 1.250 . S
O86 Mg87 2.028 . S
O86 C88 1.248 . S
Mg87 O86 2.028 . S
Mg87 O92 2.032 . S
Mg87 O94 2.079 . S
C88 O85 1.250 . S
C88 O86 1.248 . S
C89 O90 1.264 . S
C89 O97 1.249 . S
O90 C89 1.264 . S
O91 Mg84 1.986 . S
O91 C95 1.246 . S
O92 Mg87 2.032 . S
O92 C95 1.259 . S
O93 Mg84 2.114 . S
O93 C96 1.252 . S
O94 Mg84 2.251 . S
O94 Mg87 2.079 . S
O94 C96 1.273 . S
C95 O91 1.246 . S
C95 O92 1.259 . S
C96 O93 1.252 . S
C96 O94 1.273 . S
O97 Mg84 2.010 . S
O97 C89 1.249 . S
Mg98 O99 2.028 1_655 S
Mg98 O105 1.986 1_655 S
Mg98 O107 2.114 . S
Mg98 O108 2.251 . S
Mg98 O111 2.010 1_655 S
O99 Mg98 2.028 1_455 S
O99 C102 1.256 . S
O100 Mg101 2.028 . S
O100 C102 1.240 1_655 S
Mg101 O100 2.028 . S
Mg101 O106 2.032 . S
Mg101 O108 2.079 . S
C102 O99 1.256 . S
C102 O100 1.240 1_455 S
C103 O104 1.264 . S
C103 O111 1.249 . S
O104 C103 1.264 . S
O105 Mg98 1.986 1_455 S
O105 C109 1.246 1_455 S
O106 Mg101 2.032 . S
O106 C109 1.259 . S
O107 Mg98 2.114 . S
O107 C110 1.252 . S
O108 Mg98 2.251 . S
O108 Mg101 2.079 . S
O108 C110 1.273 . S
C109 O105 1.246 1_655 S
C109 O106 1.259 . S
C110 O107 1.252 . S
C110 O108 1.273 . S
O111 Mg98 2.010 1_455 S
O111 C103 1.249 . S
Mg112 O113 2.028 . S
Mg112 O119 1.986 . S
Mg112 O121 2.114 . S
Mg112 O122 2.251 . S
Mg112 O125 2.010 . S
O113 Mg112 2.028 . S
O113 C116 1.250 . S
O114 Mg115 2.028 . S
O114 C116 1.248 . S
Mg115 O114 2.028 . S
Mg115 O120 2.032 . S
Mg115 O122 2.079 . S
C116 O113 1.250 . S
C116 O114 1.248 . S
C117 O118 1.264 . S
C117 O125 1.249 . S
O118 C117 1.264 . S
O119 Mg112 1.986 . S
O119 C123 1.246 . S
O120 Mg115 2.032 . S
O120 C123 1.259 . S
O121 Mg112 2.114 . S
O121 C124 1.252 . S
O122 Mg112 2.251 . S
O122 Mg115 2.079 . S
O122 C124 1.273 . S
C123 O119 1.246 . S
C123 O120 1.259 . S
C124 O121 1.252 . S
C124 O122 1.273 . S
O125 Mg112 2.010 . S
O125 C117 1.249 . S
Mg126 O127 2.028 . S
Mg126 O133 1.986 . S
Mg126 O135 2.114 . S
Mg126 O136 2.251 . S
Mg126 O139 2.010 . S
O127 Mg126 2.028 . S
O127 C130 1.250 . S
O128 Mg129 2.028 . S
O128 C130 1.248 . S
Mg129 O128 2.028 . S
Mg129 O134 2.032 . S
Mg129 O136 2.079 . S
C130 O127 1.250 . S
C130 O128 1.248 . S
C131 O132 1.264 . S
C131 O139 1.249 . S
O132 C131 1.264 . S
O133 Mg126 1.986 . S
O133 C137 1.246 . S
O134 Mg129 2.032 . S
O134 C137 1.259 . S
O135 Mg126 2.114 . S
O135 C138 1.252 . S
O136 Mg126 2.251 . S
O136 Mg129 2.079 . S
O136 C138 1.273 . S
C137 O133 1.246 . S
C137 O134 1.259 . S
C138 O135 1.252 . S
C138 O136 1.273 . S
O139 Mg126 2.010 . S
O139 C131 1.249 . S
Mg140 O141 2.028 . S
Mg140 O147 1.986 . S
Mg140 O149 2.114 . S
Mg140 O150 2.251 . S
Mg140 O153 2.010 . S
O141 Mg140 2.028 . S
O141 C144 1.250 . S
O142 Mg143 2.028 . S
O142 C144 1.248 . S
Mg143 O142 2.028 . S
Mg143 O148 2.032 . S
Mg143 O150 2.079 . S
C144 O141 1.250 . S
C144 O142 1.248 . S
C145 O146 1.264 . S
C145 O153 1.249 . S
O146 C145 1.264 . S
O147 Mg140 1.986 . S
O147 C151 1.246 . S
O148 Mg143 2.032 . S
O148 C151 1.259 . S
O149 Mg140 2.114 . S
O149 C152 1.252 . S
O150 Mg140 2.251 . S
O150 Mg143 2.079 . S
O150 C152 1.273 . S
C151 O147 1.246 . S
C151 O148 1.259 . S
C152 O149 1.252 . S
C152 O150 1.273 . S
O153 Mg140 2.010 . S
O153 C145 1.249 . S
Mg154 O155 2.028 . S
Mg154 O161 1.986 . S
Mg154 O163 2.114 . S
Mg154 O164 2.251 . S
Mg154 O167 2.010 . S
O155 Mg154 2.028 . S
O155 C158 1.250 . S
O156 Mg157 2.028 . S
O156 C158 1.248 . S
Mg157 O156 2.028 . S
Mg157 O162 2.032 . S
Mg157 O164 2.079 . S
C158 O155 1.250 . S
C158 O156 1.248 . S
C159 O160 1.264 . S
C159 O167 1.249 . S
O160 C159 1.264 . S
O161 Mg154 1.986 . S
O161 C165 1.246 . S
O162 Mg157 2.032 . S
O162 C165 1.259 . S
O163 Mg154 2.114 . S
O163 C166 1.252 . S
O164 Mg154 2.251 . S
O164 Mg157 2.079 . S
O164 C166 1.273 . S
C165 O161 1.246 . S
C165 O162 1.259 . S
C166 O163 1.252 . S
C166 O164 1.273 . S
O167 Mg154 2.010 . S
O167 C159 1.249 . S
Mg168 O169 2.028 . S
Mg168 O175 1.986 . S
Mg168 O177 2.114 . S
Mg168 O178 2.251 . S
Mg168 O181 2.010 . S
O169 Mg168 2.028 . S
O169 C172 1.250 1_554 S
O170 Mg171 2.028 . S
O170 C172 1.248 1_554 S
Mg171 O170 2.028 . S
Mg171 O176 2.032 . S
Mg171 O178 2.079 . S
C172 O169 1.250 1_556 S
C172 O170 1.248 1_556 S
C173 O174 1.264 . S
C173 O181 1.249 . S
O174 C173 1.264 . S
O175 Mg168 1.986 . S
O175 C179 1.246 . S
O176 Mg171 2.032 . S
O176 C179 1.259 . S
O177 Mg168 2.114 . S
O177 C180 1.252 . S
O178 Mg168 2.251 . S
O178 Mg171 2.079 . S
O178 C180 1.273 . S
C179 O175 1.246 . S
C179 O176 1.259 . S
C180 O177 1.252 . S
C180 O178 1.273 . S
O181 Mg168 2.010 . S
O181 C173 1.249 . S
Mg182 O183 2.028 1_556 S
Mg182 O189 1.986 . S
Mg182 O191 2.114 1_556 S
Mg182 O192 2.251 . S
Mg182 O195 2.010 . S
O183 Mg182 2.028 1_554 S
O183 C186 1.250 . S
O184 Mg185 2.028 . S
O184 C186 1.248 . S
Mg185 O184 2.028 . S
Mg185 O190 2.032 1_554 S
Mg185 O192 2.079 1_554 S
C186 O183 1.250 . S
C186 O184 1.248 . S
C187 O188 1.264 . S
C187 O195 1.249 . S
O188 C187 1.264 . S
O189 Mg182 1.986 . S
O189 C193 1.246 . S
O190 Mg185 2.032 1_556 S
O190 C193 1.259 . S
O191 Mg182 2.114 1_554 S
O191 C194 1.252 . S
O192 Mg182 2.251 . S
O192 Mg185 2.079 1_556 S
O192 C194 1.273 1_556 S
C193 O189 1.246 . S
C193 O190 1.259 . S
C194 O191 1.252 . S
C194 O192 1.273 1_554 S
O195 Mg182 2.010 . S
O195 C187 1.249 . S
Mg196 O197 2.028 . S
Mg196 O203 1.986 . S
Mg196 O205 2.114 . S
Mg196 O206 2.251 . S
Mg196 O209 2.010 . S
O197 Mg196 2.028 . S
O197 C200 1.250 . S
O198 Mg199 2.028 . S
O198 C200 1.248 . S
Mg199 O198 2.028 . S
Mg199 O204 2.032 . S
Mg199 O206 2.079 . S
C200 O197 1.250 . S
C200 O198 1.248 . S
C201 O202 1.264 . S
C201 O209 1.249 . S
O202 C201 1.264 . S
O203 Mg196 1.986 . S
O203 C207 1.246 . S
O204 Mg199 2.032 . S
O204 C207 1.259 . S
O205 Mg196 2.114 . S
O205 C208 1.252 . S
O206 Mg196 2.251 . S
O206 Mg199 2.079 . S
O206 C208 1.273 . S
C207 O203 1.246 . S
C207 O204 1.259 . S
C208 O205 1.252 . S
C208 O206 1.273 . S
O209 Mg196 2.010 . S
O209 C201 1.249 . S
Mg210 O211 2.028 . S
Mg210 O217 1.986 . S
Mg210 O219 2.114 . S
Mg210 O220 2.251 . S
Mg210 O223 2.010 . S
O211 Mg210 2.028 . S
O211 C214 1.250 . S
O212 Mg213 2.028 . S
O212 C214 1.248 . S
Mg213 O212 2.028 . S
Mg213 O218 2.032 . S
Mg213 O220 2.079 . S
C214 O211 1.250 . S
C214 O212 1.248 . S
C215 O216 1.264 . S
C215 O223 1.249 . S
O216 C215 1.264 . S
O217 Mg210 1.986 . S
O217 C221 1.246 . S
O218 Mg213 2.032 . S
O218 C221 1.259 . S
O219 Mg210 2.114 . S
O219 C222 1.252 . S
O220 Mg210 2.251 . S
O220 Mg213 2.079 . S
O220 C222 1.273 . S
C221 O217 1.246 . S
C221 O218 1.259 . S
C222 O219 1.252 . S
C222 O220 1.273 . S
O223 Mg210 2.010 . S
O223 C215 1.249 . S
Mg224 O225 2.028 1_545 S
Mg224 O231 1.986 . S
Mg224 O233 2.091 1_545 S
Mg224 O234 2.251 . S
Mg224 O237 2.010 . S
O225 Mg224 2.028 1_565 S
O225 C228 1.250 . S
O226 Mg227 1.992 1_565 S
O226 C228 1.248 . S
Mg227 O226 1.992 1_545 S
Mg227 O232 2.070 . S
Mg227 O234 2.081 . S
C228 O225 1.250 . S
C228 O226 1.248 . S
C229 O230 1.264 . S
C229 O237 1.249 . S
O230 C229 1.264 . S
O231 Mg224 1.986 . S
O231 C235 1.246 . S
O232 Mg227 2.070 . S
O232 C235 1.259 . S
O233 Mg224 2.091 1_565 S
O233 C236 1.241 1_565 S
O234 Mg224 2.251 . S
O234 Mg227 2.081 . S
O234 C236 1.273 . S
C235 O231 1.246 . S
C235 O232 1.259 . S
C236 O233 1.241 1_545 S
C236 O234 1.273 . S
O237 Mg224 2.010 . S
O237 C229 1.249 . S
Mg238 O239 2.028 . S
Mg238 O245 1.986 . S
Mg238 O247 2.114 . S
Mg238 O248 2.251 . S
Mg238 O251 2.010 . S
O239 Mg238 2.028 . S
O239 C242 1.250 . S
O240 Mg241 2.028 . S
O240 C242 1.248 . S
Mg241 O240 2.028 . S
Mg241 O246 2.032 . S
Mg241 O248 2.079 . S
C242 O239 1.250 . S
C242 O240 1.248 . S
C243 O244 1.264 . S
C243 O251 1.249 . S
O244 C243 1.264 . S
O245 Mg238 1.986 . S
O245 C249 1.246 . S
O246 Mg241 2.032 . S
O246 C249 1.259 . S
O247 Mg238 2.114 . S
O247 C250 1.252 . S
O248 Mg238 2.251 . S
O248 Mg241 2.079 . S
O248 C250 1.273 . S
C249 O245 1.246 . S
C249 O246 1.259 . S
C250 O247 1.252 . S
C250 O248 1.273 . S
O251 Mg238 2.010 . S
O251 C243 1.249 . S
Mg252 O253 2.028 . S
Mg252 O259 1.986 . S
Mg252 O261 2.114 . S
Mg252 O262 2.251 . S
Mg252 O265 2.010 . S
O253 Mg252 2.028 . S
O253 C256 1.250 . S
O254 Mg255 2.028 . S
O254 C256 1.248 . S
Mg255 O254 2.028 . S
Mg255 O260 2.032 . S
Mg255 O262 2.079 . S
C256 O253 1.250 . S
C256 O254 1.248 . S
C257 O258 1.264 . S
C257 O265 1.249 . S
O258 C257 1.264 . S
O259 Mg252 1.986 . S
O259 C263 1.246 . S
O260 Mg255 2.032 . S
O260 C263 1.259 . S
O261 Mg252 2.114 . S
O261 C264 1.252 . S
O262 Mg252 2.251 . S
O262 Mg255 2.079 . S
O262 C264 1.273 . S
C263 O259 1.246 . S
C263 O260 1.259 . S
C264 O261 1.252 . S
C264 O262 1.273 . S
O265 Mg252 2.010 . S
O265 C257 1.249 . S
Mg266 O267 2.028 1_565 S
Mg266 O273 1.986 . S
Mg266 O275 2.114 1_565 S
Mg266 O276 2.251 1_565 S
Mg266 O279 2.010 . S
O267 Mg266 2.028 1_545 S
O267 C270 1.250 . S
O268 Mg269 2.028 . S
O268 C270 1.248 . S
Mg269 O268 2.028 . S
Mg269 O274 2.032 1_545 S
Mg269 O276 2.079 . S
C270 O267 1.250 . S
C270 O268 1.248 . S
C271 O272 1.264 . S
C271 O279 1.249 . S
O272 C271 1.264 . S
O273 Mg266 1.986 . S
O273 C277 1.246 . S
O274 Mg269 2.032 1_565 S
O274 C277 1.259 . S
O275 Mg266 2.114 1_545 S
O275 C278 1.252 . S
O276 Mg266 2.251 1_545 S
O276 Mg269 2.079 . S
O276 C278 1.272 . S
C277 O273 1.246 . S
C277 O274 1.259 . S
C278 O275 1.252 . S
C278 O276 1.272 . S
O279 Mg266 2.010 . S
O279 C271 1.249 . S
Mg280 O281 2.028 . S
Mg280 O287 1.986 1_554 S
Mg280 O289 2.114 . S
Mg280 O290 2.251 . S
Mg280 O293 2.010 . S
O281 Mg280 2.028 . S
O281 C284 1.250 . S
O282 Mg283 2.028 . S
O282 C284 1.248 . S
Mg283 O282 2.028 . S
Mg283 O288 2.032 1_554 S
Mg283 O290 2.079 . S
C284 O281 1.250 . S
C284 O282 1.248 . S
C285 O286 1.264 1_554 S
C285 O293 1.249 . S
O286 C285 1.264 1_556 S
O287 Mg280 1.986 1_556 S
O287 C291 1.246 . S
O288 Mg283 2.032 1_556 S
O288 C291 1.259 . S
O289 Mg280 2.114 . S
O289 C292 1.252 . S
O290 Mg280 2.251 . S
O290 Mg283 2.079 . S
O290 C292 1.273 . S
C291 O287 1.246 . S
C291 O288 1.259 . S
C292 O289 1.252 . S
C292 O290 1.273 . S
O293 Mg280 2.010 . S
O293 C285 1.249 . S
Mg294 O295 2.028 1_455 S
Mg294 O301 1.986 1_455 S
Mg294 O303 2.114 . S
Mg294 O304 2.251 . S
Mg294 O307 2.010 . S
O295 Mg294 2.028 1_655 S
O295 C298 1.250 . S
O296 Mg297 2.028 . S
O296 C298 1.248 . S
Mg297 O296 2.028 . S
Mg297 O302 2.032 . S
Mg297 O304 2.079 1_655 S
C298 O295 1.250 . S
C298 O296 1.248 . S
C299 O300 1.264 . S
C299 O307 1.249 . S
O300 C299 1.264 . S
O301 Mg294 1.986 1_655 S
O301 C305 1.246 . S
O302 Mg297 2.032 . S
O302 C305 1.259 . S
O303 Mg294 2.114 . S
O303 C306 1.252 . S
O304 Mg294 2.251 . S
O304 Mg297 2.079 1_455 S
O304 C306 1.273 . S
C305 O301 1.246 . S
C305 O302 1.259 . S
C306 O303 1.252 . S
C306 O304 1.273 . S
O307 Mg294 2.010 . S
O307 C299 1.249 . S
Mg308 O309 2.028 . S
Mg308 O315 1.986 . S
Mg308 O317 2.114 . S
Mg308 O318 2.251 . S
Mg308 O321 2.010 . S
O309 Mg308 2.028 . S
O309 C312 1.250 . S
O310 Mg311 2.028 . S
O310 C312 1.248 . S
Mg311 O310 2.028 . S
Mg311 O316 2.032 . S
Mg311 O318 2.079 . S
C312 O309 1.250 . S
C312 O310 1.248 . S
C313 O314 1.264 . S
C313 O321 1.249 . S
O314 C313 1.264 . S
O315 Mg308 1.986 . S
O315 C319 1.246 . S
O316 Mg311 2.032 . S
O316 C319 1.259 . S
O317 Mg308 2.114 . S
O317 C320 1.252 . S
O318 Mg308 2.251 . S
O318 Mg311 2.079 . S
O318 C320 1.273 . S
C319 O315 1.246 . S
C319 O316 1.259 . S
C320 O317 1.252 . S
C320 O318 1.273 . S
O321 Mg308 2.010 . S
O321 C313 1.249 . S
Mg322 O323 2.028 . S
Mg322 O329 1.986 . S
Mg322 O331 2.114 . S
Mg322 O332 2.251 . S
Mg322 O335 2.010 . S
O323 Mg322 2.028 . S
O323 C326 1.250 . S
O324 Mg325 2.028 . S
O324 C326 1.248 . S
Mg325 O324 2.028 . S
Mg325 O330 2.032 . S
Mg325 O332 2.079 . S
C326 O323 1.250 . S
C326 O324 1.248 . S
C327 O328 1.264 . S
C327 O335 1.249 . S
O328 C327 1.264 . S
O329 Mg322 1.986 . S
O329 C333 1.246 . S
O330 Mg325 2.032 . S
O330 C333 1.259 . S
O331 Mg322 2.114 . S
O331 C334 1.252 . S
O332 Mg322 2.251 . S
O332 Mg325 2.079 . S
O332 C334 1.273 . S
C333 O329 1.246 . S
C333 O330 1.259 . S
C334 O331 1.252 . S
C334 O332 1.273 . S
O335 Mg322 2.010 . S
O335 C327 1.249 . S
Tb336 C346 2.817 1_454 S
Tb336 O347 2.378 . S
Tb336 O350 2.355 1_554 S
Tb336 O355 2.388 1_554 S
Tb336 O356 2.396 1_545 S
Tb336 O359 2.456 1_454 S
Tb336 O360 2.479 1_455 S
Eu337 O348 2.418 . S
Eu337 O349 2.384 . S
Eu337 O352 2.479 . S
Eu337 O353 2.471 . S
Eu337 O354 2.388 . S
Eu337 O357 2.366 . S
Eu337 C367 2.825 . S
C338 O354 1.214 1_556 S
C338 O355 1.265 . S
C339 O356 1.255 . S
C339 O357 1.265 1_565 S
C340 C342 1.380 . S
C340 C343 1.374 . S
C340 C346 1.507 . S
C341 C342 1.384 . S
C341 C345 1.387 . S
C341 H368 0.930 . S
C342 C340 1.380 . S
C342 C341 1.384 . S
C342 H369 0.931 . S
C343 C340 1.374 . S
C343 C344 1.390 . S
C343 H370 0.930 1_556 S
C344 C343 1.390 . S
C344 C345 1.391 . S
C344 H371 0.930 . S
C345 C341 1.387 . S
C345 C344 1.391 . S
C346 Tb336 2.817 1_656 S
C346 C340 1.507 . S
C346 O359 1.238 . S
C346 O360 1.247 1_556 S
O347 Tb336 2.378 . S
O347 C351 1.259 . S
O348 Eu337 2.418 . S
O348 C351 1.265 . S
O349 Eu337 2.384 . S
O349 C358 1.255 . S
O350 Tb336 2.355 1_556 S
O350 C358 1.253 1_556 S
C351 O347 1.259 . S
C351 O348 1.265 . S
O352 Eu337 2.479 . S
O352 C367 1.238 . S
O353 Eu337 2.471 . S
O353 C367 1.247 . S
O354 Eu337 2.388 . S
O354 C338 1.214 1_554 S
O355 Tb336 2.388 1_556 S
O355 C338 1.265 . S
O356 Tb336 2.396 1_565 S
O356 C339 1.255 . S
O357 Eu337 2.366 . S
O357 C339 1.265 1_545 S
C358 O349 1.255 . S
C358 O350 1.253 1_554 S
O359 Tb336 2.456 1_656 S
O359 C346 1.238 . S
O360 Tb336 2.479 1_655 S
O360 C346 1.247 1_554 S
C361 C364 1.380 . S
C361 C365 1.374 . S
C361 C367 1.507 . S
C362 C363 1.387 . S
C362 C366 1.391 . S
C363 C362 1.387 . S
C363 C364 1.384 . S
C363 H372 0.930 . S
C364 C361 1.380 . S
C364 C363 1.384 . S
C364 H373 0.931 . S
C365 C361 1.374 . S
C365 C366 1.390 . S
C365 H374 0.930 . S
C366 C362 1.391 . S
C366 C365 1.390 . S
C366 H375 0.930 1_545 S
C367 Eu337 2.825 . S
C367 O352 1.238 . S
C367 O353 1.247 . S
C367 C361 1.507 . S
H368 C341 0.930 . S
H369 C342 0.931 . S
H370 C343 0.930 1_554 S
H371 C344 0.930 . S
H372 C363 0.930 . S
H373 C364 0.931 . S
H374 C365 0.930 . S
H375 C366 0.930 1_565 S
Tb376 C386 2.825 . S
Tb376 O387 2.347 . S
Tb376 O390 2.366 . S
Tb376 O395 2.418 . S
Tb376 O396 2.384 . S
Tb376 O399 2.479 . S
Tb376 O400 2.471 . S
Eu377 O388 2.418 . S
Eu377 O389 2.384 . S
Eu377 O392 2.479 . S
Eu377 O393 2.471 . S
Eu377 O394 2.347 . S
Eu377 O397 2.366 . S
Eu377 C407 2.825 . S
C378 O394 1.259 . S
C378 O395 1.265 . S
C379 O396 1.255 . S
C379 O397 1.265 . S
C380 C382 1.380 . S
C380 C383 1.374 . S
C380 C386 1.507 . S
C381 C382 1.384 . S
C381 C385 1.387 . S
C381 H408 0.930 . S
C382 C380 1.380 . S
C382 C381 1.384 . S
C382 H409 0.931 . S
C383 C380 1.374 . S
C383 C384 1.390 . S
C383 H410 0.930 . S
C384 C383 1.390 . S
C384 C385 1.391 . S
C384 H411 0.930 . S
C385 C381 1.387 . S
C385 C384 1.391 . S
C386 Tb376 2.825 . S
C386 C380 1.507 . S
C386 O399 1.238 . S
C386 O400 1.247 . S
O387 Tb376 2.347 . S
O387 C391 1.259 . S
O388 Eu377 2.418 . S
O388 C391 1.265 . S
O389 Eu377 2.384 . S
O389 C398 1.255 . S
O390 Tb376 2.366 . S
O390 C398 1.265 . S
C391 O387 1.259 . S
C391 O388 1.265 . S
O392 Eu377 2.479 . S
O392 C407 1.238 . S
O393 Eu377 2.471 . S
O393 C407 1.247 . S
O394 Eu377 2.347 . S
O394 C378 1.259 . S
O395 Tb376 2.418 . S
O395 C378 1.265 . S
O396 Tb376 2.384 . S
O396 C379 1.255 . S
O397 Eu377 2.366 . S
O397 C379 1.265 . S
C398 O389 1.255 . S
C398 O390 1.265 . S
O399 Tb376 2.479 . S
O399 C386 1.238 . S
O400 Tb376 2.471 . S
O400 C386 1.247 . S
C401 C404 1.380 . S
C401 C405 1.374 . S
C401 C407 1.507 . S
C402 C403 1.387 . S
C402 C406 1.391 . S
C403 C402 1.387 . S
C403 C404 1.384 . S
C403 H412 0.930 . S
C404 C401 1.380 . S
C404 C403 1.384 . S
C404 H413 0.931 . S
C405 C401 1.374 . S
C405 C406 1.390 . S
C405 H414 0.930 . S
C406 C402 1.391 . S
C406 C405 1.390 . S
C406 H415 0.930 . S
C407 Eu377 2.825 . S
C407 O392 1.238 . S
C407 O393 1.247 . S
C407 C401 1.507 . S
H408 C381 0.930 . S
H409 C382 0.931 . S
H410 C383 0.930 . S
H411 C384 0.930 . S
H412 C403 0.930 . S
H413 C404 0.931 . S
H414 C405 0.930 . S
H415 C406 0.930 . S
Tb416 C426 2.825 1_545 S
Tb416 O427 2.347 . S
Tb416 O430 2.366 . S
Tb416 O435 2.418 . S
Tb416 O436 2.384 . S
Tb416 O439 2.479 1_545 S
Tb416 O440 2.471 1_545 S
Eu417 O428 2.418 . S
Eu417 O429 2.384 . S
Eu417 O432 2.479 . S
Eu417 O433 2.471 . S
Eu417 O434 2.347 . S
Eu417 O437 2.366 . S
Eu417 C447 2.825 . S
C418 O434 1.259 . S
C418 O435 1.265 . S
C419 O436 1.255 . S
C419 O437 1.265 . S
C420 C422 1.380 . S
C420 C423 1.374 . S
C420 C426 1.507 . S
C421 C422 1.384 . S
C421 C425 1.387 . S
C421 H448 0.930 . S
C422 C420 1.380 . S
C422 C421 1.384 . S
C422 H449 0.931 . S
C423 C420 1.374 . S
C423 C424 1.390 . S
C423 H450 0.930 . S
C424 C423 1.390 . S
C424 C425 1.391 . S
C424 H451 0.930 . S
C425 C421 1.387 . S
C425 C424 1.391 . S
C426 Tb416 2.825 1_565 S
C426 C420 1.507 . S
C426 O439 1.238 . S
C426 O440 1.247 . S
O427 Tb416 2.347 . S
O427 C431 1.259 . S
O428 Eu417 2.418 . S
O428 C431 1.265 . S
O429 Eu417 2.384 . S
O429 C438 1.255 . S
O430 Tb416 2.366 . S
O430 C438 1.265 . S
C431 O427 1.259 . S
C431 O428 1.265 . S
O432 Eu417 2.479 . S
O432 C447 1.238 . S
O433 Eu417 2.471 . S
O433 C447 1.247 . S
O434 Eu417 2.347 . S
O434 C418 1.259 . S
O435 Tb416 2.418 . S
O435 C418 1.265 . S
O436 Tb416 2.384 . S
O436 C419 1.255 . S
O437 Eu417 2.366 . S
O437 C419 1.265 . S
C438 O429 1.255 . S
C438 O430 1.265 . S
O439 Tb416 2.479 1_565 S
O439 C426 1.238 . S
O440 Tb416 2.471 1_565 S
O440 C426 1.247 . S
C441 C444 1.380 . S
C441 C445 1.374 . S
C441 C447 1.507 . S
C442 C443 1.387 . S
C442 C446 1.391 . S
C443 C442 1.387 . S
C443 C444 1.384 . S
C443 H452 0.930 . S
C444 C441 1.380 . S
C444 C443 1.384 . S
C444 H453 0.931 . S
C445 C441 1.374 . S
C445 C446 1.390 . S
C445 H454 0.930 . S
C446 C442 1.391 . S
C446 C445 1.390 . S
C446 H455 0.930 . S
C447 Eu417 2.825 . S
C447 O432 1.238 . S
C447 O433 1.247 . S
C447 C441 1.507 . S
H448 C421 0.930 . S
H449 C422 0.931 . S
H450 C423 0.930 . S
H451 C424 0.930 . S
H452 C443 0.930 . S
H453 C444 0.931 . S
H454 C445 0.930 . S
H455 C446 0.930 . S
Tb456 C466 2.825 . S
Tb456 O467 2.347 . S
Tb456 O470 2.366 . S
Tb456 O475 2.418 . S
Tb456 O476 2.384 . S
Tb456 O479 2.479 . S
Tb456 O480 2.471 . S
Eu457 O468 2.418 . S
Eu457 O469 2.384 . S
Eu457 O472 2.479 . S
Eu457 O473 2.471 . S
Eu457 O474 2.347 . S
Eu457 O477 2.366 . S
Eu457 C487 2.825 . S
C458 O474 1.259 . S
C458 O475 1.265 . S
C459 O476 1.255 . S
C459 O477 1.265 . S
C460 C462 1.380 . S
C460 C463 1.374 . S
C460 C466 1.507 . S
C461 C462 1.384 . S
C461 C465 1.387 . S
C461 H488 0.930 . S
C462 C460 1.380 . S
C462 C461 1.384 . S
C462 H489 0.931 . S
C463 C460 1.374 . S
C463 C464 1.390 . S
C463 H490 0.930 . S
C464 C463 1.390 . S
C464 C465 1.391 . S
C464 H491 0.930 . S
C465 C461 1.387 . S
C465 C464 1.391 . S
C466 Tb456 2.825 . S
C466 C460 1.507 . S
C466 O479 1.238 . S
C466 O480 1.247 . S
O467 Tb456 2.347 . S
O467 C471 1.259 . S
O468 Eu457 2.418 . S
O468 C471 1.265 . S
O469 Eu457 2.384 . S
O469 C478 1.255 . S
O470 Tb456 2.366 . S
O470 C478 1.265 . S
C471 O467 1.259 . S
C471 O468 1.265 . S
O472 Eu457 2.479 . S
O472 C487 1.238 . S
O473 Eu457 2.471 . S
O473 C487 1.247 . S
O474 Eu457 2.347 . S
O474 C458 1.259 . S
O475 Tb456 2.418 . S
O475 C458 1.265 . S
O476 Tb456 2.384 . S
O476 C459 1.255 . S
O477 Eu457 2.366 . S
O477 C459 1.265 . S
C478 O469 1.255 . S
C478 O470 1.265 . S
O479 Tb456 2.479 . S
O479 C466 1.238 . S
O480 Tb456 2.471 . S
O480 C466 1.247 . S
C481 C484 1.380 . S
C481 C485 1.374 . S
C481 C487 1.507 . S
C482 C483 1.387 . S
C482 C486 1.391 . S
C483 C482 1.387 . S
C483 C484 1.384 . S
C483 H492 0.930 . S
C484 C481 1.380 . S
C484 C483 1.384 . S
C484 H493 0.931 . S
C485 C481 1.374 . S
C485 C486 1.390 . S
C485 H494 0.930 . S
C486 C482 1.391 . S
C486 C485 1.390 . S
C486 H495 0.930 . S
C487 Eu457 2.825 . S
C487 O472 1.238 . S
C487 O473 1.247 . S
C487 C481 1.507 . S
H488 C461 0.930 . S
H489 C462 0.931 . S
H490 C463 0.930 . S
H491 C464 0.930 . S
H492 C483 0.930 . S
H493 C484 0.931 . S
H494 C485 0.930 . S
H495 C486 0.930 . S
Tb496 C506 2.825 . S
Tb496 O507 2.347 . S
Tb496 O510 2.366 . S
Tb496 O515 2.418 . S
Tb496 O516 2.406 . S
Tb496 O519 2.479 . S
Tb496 O520 2.471 . S
Eu497 O508 2.418 . S
Eu497 O509 2.384 . S
Eu497 O512 2.479 . S
Eu497 O513 2.471 . S
Eu497 O514 2.347 . S
Eu497 O517 2.366 . S
Eu497 C527 2.825 . S
C498 O514 1.259 . S
C498 O515 1.265 . S
C499 O516 1.256 . S
C499 O517 1.265 . S
C500 C502 1.380 . S
C500 C503 1.374 1_455 S
C500 C506 1.507 . S
C501 C502 1.384 . S
C501 C505 1.387 1_455 S
C501 H528 0.930 . S
C502 C500 1.380 . S
C502 C501 1.384 . S
C502 H529 0.931 . S
C503 C500 1.374 1_655 S
C503 C504 1.390 . S
C503 H530 0.930 . S
C504 C503 1.390 . S
C504 C505 1.391 . S
C504 H531 0.930 . S
C505 C501 1.387 1_655 S
C505 C504 1.391 . S
C506 Tb496 2.825 . S
C506 C500 1.507 . S
C506 O519 1.238 . S
C506 O520 1.247 . S
O507 Tb496 2.347 . S
O507 C511 1.259 . S
O508 Eu497 2.418 . S
O508 C511 1.265 . S
O509 Eu497 2.384 . S
O509 C518 1.255 . S
O510 Tb496 2.366 . S
O510 C518 1.265 . S
C511 O507 1.259 . S
C511 O508 1.265 . S
O512 Eu497 2.479 . S
O512 C527 1.238 . S
O513 Eu497 2.471 . S
O513 C527 1.247 . S
O514 Eu497 2.347 . S
O514 C498 1.259 . S
O515 Tb496 2.418 . S
O515 C498 1.265 . S
O516 Tb496 2.406 . S
O516 C499 1.256 . S
O517 Eu497 2.366 . S
O517 C499 1.265 . S
C518 O509 1.255 . S
C518 O510 1.265 . S
O519 Tb496 2.479 . S
O519 C506 1.238 . S
O520 Tb496 2.471 . S
O520 C506 1.247 . S
C521 C524 1.380 . S
C521 C525 1.374 . S
C521 C527 1.507 . S
C522 C523 1.387 . S
C522 C526 1.391 . S
C523 C522 1.387 . S
C523 C524 1.384 . S
C523 H532 0.930 . S
C524 C521 1.380 . S
C524 C523 1.384 . S
C524 H533 0.931 . S
C525 C521 1.374 . S
C525 C526 1.390 . S
C525 H534 0.930 . S
C526 C522 1.391 . S
C526 C525 1.390 . S
C526 H535 0.930 . S
C527 Eu497 2.825 . S
C527 O512 1.238 . S
C527 O513 1.247 . S
C527 C521 1.507 . S
H528 C501 0.930 . S
H529 C502 0.931 . S
H530 C503 0.930 . S
H531 C504 0.930 . S
H532 C523 0.930 . S
H533 C524 0.931 . S
H534 C525 0.930 . S
H535 C526 0.930 . S
Tb536 C546 2.825 . S
Tb536 O547 2.347 . S
Tb536 O550 2.366 . S
Tb536 O555 2.418 . S
Tb536 O556 2.384 . S
Tb536 O559 2.479 . S
Tb536 O560 2.471 . S
Eu537 O548 2.418 . S
Eu537 O549 2.384 . S
Eu537 O552 2.479 . S
Eu537 O553 2.471 . S
Eu537 O554 2.347 . S
Eu537 O557 2.366 . S
Eu537 C567 2.825 . S
C538 O554 1.259 . S
C538 O555 1.265 . S
C539 O556 1.255 . S
C539 O557 1.265 . S
C540 C542 1.380 . S
C540 C543 1.374 . S
C540 C546 1.507 . S
C541 C542 1.384 . S
C541 C545 1.387 . S
C541 H568 0.930 . S
C542 C540 1.380 . S
C542 C541 1.384 . S
C542 H569 0.931 . S
C543 C540 1.374 . S
C543 C544 1.390 . S
C543 H570 0.930 . S
C544 C543 1.390 . S
C544 C545 1.391 . S
C544 H571 0.930 . S
C545 C541 1.387 . S
C545 C544 1.391 . S
C546 Tb536 2.825 . S
C546 C540 1.507 . S
C546 O559 1.238 . S
C546 O560 1.247 . S
O547 Tb536 2.347 . S
O547 C551 1.259 . S
O548 Eu537 2.418 . S
O548 C551 1.265 . S
O549 Eu537 2.384 . S
O549 C558 1.255 . S
O550 Tb536 2.366 . S
O550 C558 1.265 . S
C551 O547 1.259 . S
C551 O548 1.265 . S
O552 Eu537 2.479 . S
O552 C567 1.238 . S
O553 Eu537 2.471 . S
O553 C567 1.247 . S
O554 Eu537 2.347 . S
O554 C538 1.259 . S
O555 Tb536 2.418 . S
O555 C538 1.265 . S
O556 Tb536 2.384 . S
O556 C539 1.255 . S
O557 Eu537 2.366 . S
O557 C539 1.265 . S
C558 O549 1.255 . S
C558 O550 1.265 . S
O559 Tb536 2.479 . S
O559 C546 1.238 . S
O560 Tb536 2.471 . S
O560 C546 1.247 . S
C561 C564 1.380 . S
C561 C565 1.374 . S
C561 C567 1.507 . S
C562 C563 1.387 . S
C562 C566 1.391 . S
C563 C562 1.387 . S
C563 C564 1.384 . S
C563 H572 0.930 . S
C564 C561 1.380 . S
C564 C563 1.384 . S
C564 H573 0.931 . S
C565 C561 1.374 . S
C565 C566 1.390 . S
C565 H574 0.930 . S
C566 C562 1.391 . S
C566 C565 1.390 . S
C566 H575 0.930 . S
C567 Eu537 2.825 . S
C567 O552 1.238 . S
C567 O553 1.247 . S
C567 C561 1.507 . S
H568 C541 0.930 . S
H569 C542 0.931 . S
H570 C543 0.930 . S
H571 C544 0.930 . S
H572 C563 0.930 . S
H573 C564 0.931 . S
H574 C565 0.930 . S
H575 C566 0.930 . S
Tb576 C586 2.825 . S
Tb576 O587 2.347 . S
Tb576 O590 2.366 . S
Tb576 O595 2.418 1_545 S
Tb576 O596 2.384 . S
Tb576 O599 2.479 . S
Tb576 O600 2.471 . S
Eu577 O588 2.418 1_556 S
Eu577 O589 2.384 1_556 S
Eu577 O592 2.479 . S
Eu577 O593 2.471 . S
Eu577 O594 2.347 1_556 S
Eu577 O597 2.367 . S
Eu577 C607 2.825 . S
C578 O594 1.259 1_565 S
C578 O595 1.265 . S
C579 O596 1.255 . S
C579 O597 1.253 1_554 S
C580 C582 1.380 . S
C580 C583 1.374 . S
C580 C586 1.507 . S
C581 C582 1.384 . S
C581 C585 1.387 . S
C581 H608 0.930 1_545 S
C582 C580 1.380 . S
C582 C581 1.384 . S
C582 H609 0.931 1_545 S
C583 C580 1.374 . S
C583 C584 1.390 . S
C583 H610 0.930 . S
C584 C583 1.390 . S
C584 C585 1.391 . S
C584 H611 0.930 . S
C585 C581 1.387 . S
C585 C584 1.391 . S
C586 Tb576 2.825 . S
C586 C580 1.507 . S
C586 O599 1.238 . S
C586 O600 1.247 . S
O587 Tb576 2.347 . S
O587 C591 1.259 . S
O588 Eu577 2.418 1_554 S
O588 C591 1.265 . S
O589 Eu577 2.384 1_554 S
O589 C598 1.255 . S
O590 Tb576 2.366 . S
O590 C598 1.265 . S
C591 O587 1.259 . S
C591 O588 1.265 . S
O592 Eu577 2.479 . S
O592 C607 1.238 . S
O593 Eu577 2.471 . S
O593 C607 1.247 . S
O594 Eu577 2.347 1_554 S
O594 C578 1.259 1_545 S
O595 Tb576 2.418 1_565 S
O595 C578 1.265 . S
O596 Tb576 2.384 . S
O596 C579 1.255 . S
O597 Eu577 2.367 . S
O597 C579 1.253 1_556 S
C598 O589 1.255 . S
C598 O590 1.265 . S
O599 Tb576 2.479 . S
O599 C586 1.238 . S
O600 Tb576 2.471 . S
O600 C586 1.247 . S
C601 C604 1.380 . S
C601 C605 1.374 . S
C601 C607 1.507 . S
C602 C603 1.387 . S
C602 C606 1.391 . S
C603 C602 1.387 . S
C603 C604 1.384 . S
C603 H612 0.930 . S
C604 C601 1.380 . S
C604 C603 1.384 . S
C604 H613 0.931 . S
C605 C601 1.374 . S
C605 C606 1.390 . S
C605 H614 0.930 . S
C606 C602 1.391 . S
C606 C605 1.390 . S
C606 H615 0.930 . S
C607 Eu577 2.825 . S
C607 O592 1.238 . S
C607 O593 1.247 . S
C607 C601 1.507 . S
H608 C581 0.930 1_565 S
H609 C582 0.931 1_565 S
H610 C583 0.930 . S
H611 C584 0.930 . S
H612 C603 0.930 . S
H613 C604 0.931 . S
H614 C605 0.930 . S
H615 C606 0.930 . S
Tb616 C626 2.825 . S
Tb616 O627 2.347 . S
Tb616 O630 2.366 . S
Tb616 O635 2.418 . S
Tb616 O636 2.384 . S
Tb616 O639 2.479 . S
Tb616 O640 2.471 . S
Eu617 O628 2.418 . S
Eu617 O629 2.384 . S
Eu617 O632 2.479 . S
Eu617 O633 2.471 . S
Eu617 O634 2.347 . S
Eu617 O637 2.366 . S
Eu617 C647 2.825 . S
C618 O634 1.259 . S
C618 O635 1.265 . S
C619 O636 1.255 . S
C619 O637 1.265 . S
C620 C622 1.380 . S
C620 C623 1.374 . S
C620 C626 1.507 . S
C621 C622 1.384 . S
C621 C625 1.387 . S
C621 H648 0.930 . S
C622 C620 1.380 . S
C622 C621 1.384 . S
C622 H649 0.931 . S
C623 C620 1.374 . S
C623 C624 1.390 . S
C623 H650 0.930 . S
C624 C623 1.390 . S
C624 C625 1.391 . S
C624 H651 0.930 . S
C625 C621 1.387 . S
C625 C624 1.391 . S
C626 Tb616 2.825 . S
C626 C620 1.507 . S
C626 O639 1.238 . S
C626 O640 1.247 . S
O627 Tb616 2.347 . S
O627 C631 1.259 . S
O628 Eu617 2.418 . S
O628 C631 1.265 . S
O629 Eu617 2.384 . S
O629 C638 1.255 . S
O630 Tb616 2.366 . S
O630 C638 1.265 . S
C631 O627 1.259 . S
C631 O628 1.265 . S
O632 Eu617 2.479 . S
O632 C647 1.238 . S
O633 Eu617 2.471 . S
O633 C647 1.247 . S
O634 Eu617 2.347 . S
O634 C618 1.259 . S
O635 Tb616 2.418 . S
O635 C618 1.265 . S
O636 Tb616 2.384 . S
O636 C619 1.255 . S
O637 Eu617 2.366 . S
O637 C619 1.265 . S
C638 O629 1.255 . S
C638 O630 1.265 . S
O639 Tb616 2.479 . S
O639 C626 1.238 . S
O640 Tb616 2.471 . S
O640 C626 1.247 . S
C641 C644 1.380 . S
C641 C645 1.374 . S
C641 C647 1.507 . S
C642 C643 1.387 . S
C642 C646 1.391 . S
C643 C642 1.387 . S
C643 C644 1.384 . S
C643 H652 0.930 . S
C644 C641 1.380 . S
C644 C643 1.384 . S
C644 H653 0.931 . S
C645 C641 1.374 . S
C645 C646 1.390 . S
C645 H654 0.930 . S
C646 C642 1.391 . S
C646 C645 1.390 . S
C646 H655 0.930 . S
C647 Eu617 2.825 . S
C647 O632 1.238 . S
C647 O633 1.247 . S
C647 C641 1.507 . S
H648 C621 0.930 . S
H649 C622 0.931 . S
H650 C623 0.930 . S
H651 C624 0.930 . S
H652 C643 0.930 . S
H653 C644 0.931 . S
H654 C645 0.930 . S
H655 C646 0.930 . S
Tb656 C666 2.825 . S
Tb656 O667 2.347 1_556 S
Tb656 O670 2.366 . S
Tb656 O675 2.418 . S
Tb656 O676 2.384 1_556 S
Tb656 O679 2.479 . S
Tb656 O680 2.471 . S
Eu657 O668 2.418 . S
Eu657 O669 2.384 . S
Eu657 O672 2.479 . S
Eu657 O673 2.471 . S
Eu657 O674 2.347 . S
Eu657 O677 2.366 . S
Eu657 C687 2.825 . S
C658 O674 1.259 . S
C658 O675 1.265 1_554 S
C659 O676 1.255 . S
C659 O677 1.265 . S
C660 C662 1.380 . S
C660 C663 1.374 . S
C660 C666 1.507 . S
C661 C662 1.384 . S
C661 C665 1.387 . S
C661 H688 0.930 . S
C662 C660 1.380 . S
C662 C661 1.384 . S
C662 H689 0.931 . S
C663 C660 1.374 . S
C663 C664 1.390 . S
C663 H690 0.930 . S
C664 C663 1.390 . S
C664 C665 1.391 . S
C664 H691 0.930 . S
C665 C661 1.387 . S
C665 C664 1.391 . S
C666 Tb656 2.825 . S
C666 C660 1.507 . S
C666 O679 1.238 . S
C666 O680 1.247 . S
O667 Tb656 2.347 1_554 S
O667 C671 1.259 . S
O668 Eu657 2.418 . S
O668 C671 1.265 . S
O669 Eu657 2.384 . S
O669 C678 1.255 . S
O670 Tb656 2.366 . S
O670 C678 1.265 1_556 S
C671 O667 1.259 . S
C671 O668 1.265 . S
O672 Eu657 2.479 . S
O672 C687 1.238 . S
O673 Eu657 2.471 . S
O673 C687 1.247 . S
O674 Eu657 2.347 . S
O674 C658 1.259 . S
O675 Tb656 2.418 . S
O675 C658 1.265 1_556 S
O676 Tb656 2.384 1_554 S
O676 C659 1.255 . S
O677 Eu657 2.366 . S
O677 C659 1.265 . S
C678 O669 1.255 . S
C678 O670 1.265 1_554 S
O679 Tb656 2.479 . S
O679 C666 1.238 . S
O680 Tb656 2.471 . S
O680 C666 1.247 . S
C681 C684 1.380 . S
C681 C685 1.374 . S
C681 C687 1.507 . S
C682 C683 1.387 . S
C682 C686 1.391 . S
C683 C682 1.387 . S
C683 C684 1.384 . S
C683 H692 0.930 . S
C684 C681 1.380 . S
C684 C683 1.384 . S
C684 H693 0.931 . S
C685 C681 1.374 . S
C685 C686 1.390 . S
C685 H694 0.930 . S
C686 C682 1.391 . S
C686 C685 1.390 . S
C686 H695 0.930 . S
C687 Eu657 2.825 . S
C687 O672 1.238 . S
C687 O673 1.247 . S
C687 C681 1.507 . S
H688 C661 0.930 . S
H689 C662 0.931 . S
H690 C663 0.930 . S
H691 C664 0.930 . S
H692 C683 0.930 . S
H693 C684 0.931 . S
H694 C685 0.930 . S
H695 C686 0.930 . S
Tb696 C706 2.825 . S
Tb696 O707 2.347 . S
Tb696 O710 2.366 . S
Tb696 O715 2.418 . S
Tb696 O716 2.384 . S
Tb696 O719 2.479 . S
Tb696 O720 2.471 . S
Eu697 O708 2.418 . S
Eu697 O709 2.384 . S
Eu697 O712 2.479 . S
Eu697 O713 2.471 . S
Eu697 O714 2.347 . S
Eu697 O717 2.366 . S
Eu697 C727 2.825 . S
C698 O714 1.259 . S
C698 O715 1.265 . S
C699 O716 1.255 . S
C699 O717 1.265 . S
C700 C702 1.380 . S
C700 C703 1.374 . S
C700 C706 1.507 . S
C701 C702 1.384 . S
C701 C705 1.387 . S
C701 H728 0.930 . S
C702 C700 1.380 . S
C702 C701 1.384 . S
C702 H729 0.931 . S
C703 C700 1.374 . S
C703 C704 1.390 . S
C703 H730 0.930 . S
C704 C703 1.390 . S
C704 C705 1.391 . S
C704 H731 0.930 . S
C705 C701 1.387 . S
C705 C704 1.391 . S
C706 Tb696 2.825 . S
C706 C700 1.507 . S
C706 O719 1.238 . S
C706 O720 1.247 . S
O707 Tb696 2.347 . S
O707 C711 1.259 . S
O708 Eu697 2.418 . S
O708 C711 1.265 . S
O709 Eu697 2.384 . S
O709 C718 1.255 . S
O710 Tb696 2.366 . S
O710 C718 1.265 . S
C711 O707 1.259 . S
C711 O708 1.265 . S
O712 Eu697 2.479 . S
O712 C727 1.238 . S
O713 Eu697 2.471 . S
O713 C727 1.247 . S
O714 Eu697 2.347 . S
O714 C698 1.259 . S
O715 Tb696 2.418 . S
O715 C698 1.265 . S
O716 Tb696 2.384 . S
O716 C699 1.255 . S
O717 Eu697 2.366 . S
O717 C699 1.265 . S
C718 O709 1.255 . S
C718 O710 1.265 . S
O719 Tb696 2.479 . S
O719 C706 1.238 . S
O720 Tb696 2.471 . S
O720 C706 1.247 . S
C721 C724 1.380 . S
C721 C725 1.374 . S
C721 C727 1.507 . S
C722 C723 1.387 . S
C722 C726 1.391 . S
C723 C722 1.387 . S
C723 C724 1.384 . S
C723 H732 0.930 . S
C724 C721 1.380 . S
C724 C723 1.384 . S
C724 H733 0.931 . S
C725 C721 1.374 . S
C725 C726 1.390 . S
C725 H734 0.930 . S
C726 C722 1.391 . S
C726 C725 1.390 . S
C726 H735 0.930 . S
C727 Eu697 2.825 . S
C727 O712 1.238 . S
C727 O713 1.247 . S
C727 C721 1.507 . S
H728 C701 0.930 . S
H729 C702 0.931 . S
H730 C703 0.930 . S
H731 C704 0.930 . S
H732 C723 0.930 . S
H733 C724 0.931 . S
H734 C725 0.930 . S
H735 C726 0.930 . S
Tb736 C746 2.825 . S
Tb736 O747 2.347 . S
Tb736 O750 2.366 . S
Tb736 O755 2.418 . S
Tb736 O756 2.384 . S
Tb736 O759 2.479 . S
Tb736 O760 2.471 . S
Eu737 O748 2.418 . S
Eu737 O749 2.384 . S
Eu737 O752 2.479 . S
Eu737 O753 2.471 . S
Eu737 O754 2.347 . S
Eu737 O757 2.366 . S
Eu737 C767 2.825 . S
C738 O754 1.259 . S
C738 O755 1.265 . S
C739 O756 1.255 . S
C739 O757 1.265 . S
C740 C742 1.380 . S
C740 C743 1.374 . S
C740 C746 1.507 . S
C741 C742 1.384 . S
C741 C745 1.387 . S
C741 H768 0.930 . S
C742 C740 1.380 . S
C742 C741 1.384 . S
C742 H769 0.931 . S
C743 C740 1.374 . S
C743 C744 1.390 . S
C743 H770 0.930 . S
C744 C743 1.390 . S
C744 C745 1.391 . S
C744 H771 0.930 . S
C745 C741 1.387 . S
C745 C744 1.391 . S
C746 Tb736 2.825 . S
C746 C740 1.507 . S
C746 O759 1.238 . S
C746 O760 1.247 . S
O747 Tb736 2.347 . S
O747 C751 1.259 . S
O748 Eu737 2.418 . S
O748 C751 1.265 . S
O749 Eu737 2.384 . S
O749 C758 1.255 . S
O750 Tb736 2.366 . S
O750 C758 1.265 . S
C751 O747 1.259 . S
C751 O748 1.265 . S
O752 Eu737 2.479 . S
O752 C767 1.238 . S
O753 Eu737 2.471 . S
O753 C767 1.247 . S
O754 Eu737 2.347 . S
O754 C738 1.259 . S
O755 Tb736 2.418 . S
O755 C738 1.265 . S
O756 Tb736 2.384 . S
O756 C739 1.255 . S
O757 Eu737 2.366 . S
O757 C739 1.265 . S
C758 O749 1.255 . S
C758 O750 1.265 . S
O759 Tb736 2.479 . S
O759 C746 1.238 . S
O760 Tb736 2.471 . S
O760 C746 1.247 . S
C761 C764 1.380 . S
C761 C765 1.374 . S
C761 C767 1.507 . S
C762 C763 1.387 . S
C762 C766 1.391 . S
C763 C762 1.387 . S
C763 C764 1.384 . S
C763 H772 0.930 . S
C764 C761 1.380 . S
C764 C763 1.384 . S
C764 H773 0.931 . S
C765 C761 1.374 . S
C765 C766 1.390 . S
C765 H774 0.930 . S
C766 C762 1.391 . S
C766 C765 1.390 . S
C766 H775 0.930 . S
C767 Eu737 2.825 . S
C767 O752 1.238 . S
C767 O753 1.247 . S
C767 C761 1.507 . S
H768 C741 0.930 . S
H769 C742 0.931 . S
H770 C743 0.930 . S
H771 C744 0.930 . S
H772 C763 0.930 . S
H773 C764 0.931 . S
H774 C765 0.930 . S
H775 C766 0.930 . S
Tb776 C786 2.825 . S
Tb776 O787 2.347 . S
Tb776 O790 2.366 . S
Tb776 O795 2.418 . S
Tb776 O796 2.384 . S
Tb776 O799 2.479 . S
Tb776 O800 2.471 . S
Eu777 O788 2.418 . S
Eu777 O789 2.384 . S
Eu777 O792 2.479 . S
Eu777 O793 2.471 . S
Eu777 O794 2.347 . S
Eu777 O797 2.366 . S
Eu777 C807 2.825 . S
C778 O794 1.259 . S
C778 O795 1.265 . S
C779 O796 1.255 . S
C779 O797 1.265 . S
C780 C782 1.380 . S
C780 C783 1.374 . S
C780 C786 1.507 . S
C781 C782 1.384 . S
C781 C785 1.387 . S
C781 H808 0.930 . S
C782 C780 1.380 . S
C782 C781 1.384 . S
C782 H809 0.931 . S
C783 C780 1.374 . S
C783 C784 1.390 . S
C783 H810 0.930 . S
C784 C783 1.390 . S
C784 C785 1.391 . S
C784 H811 0.930 . S
C785 C781 1.387 . S
C785 C784 1.391 . S
C786 Tb776 2.825 . S
C786 C780 1.507 . S
C786 O799 1.238 . S
C786 O800 1.247 . S
O787 Tb776 2.347 . S
O787 C791 1.259 . S
O788 Eu777 2.418 . S
O788 C791 1.265 . S
O789 Eu777 2.384 . S
O789 C798 1.255 . S
O790 Tb776 2.366 . S
O790 C798 1.265 . S
C791 O787 1.259 . S
C791 O788 1.265 . S
O792 Eu777 2.479 . S
O792 C807 1.238 . S
O793 Eu777 2.471 . S
O793 C807 1.247 . S
O794 Eu777 2.347 . S
O794 C778 1.259 . S
O795 Tb776 2.418 . S
O795 C778 1.265 . S
O796 Tb776 2.384 . S
O796 C779 1.255 . S
O797 Eu777 2.366 . S
O797 C779 1.265 . S
C798 O789 1.255 . S
C798 O790 1.265 . S
O799 Tb776 2.479 . S
O799 C786 1.238 . S
O800 Tb776 2.471 . S
O800 C786 1.247 . S
C801 C804 1.380 . S
C801 C805 1.374 . S
C801 C807 1.507 . S
C802 C803 1.387 . S
C802 C806 1.391 . S
C803 C802 1.387 . S
C803 C804 1.384 . S
C803 H812 0.930 . S
C804 C801 1.380 . S
C804 C803 1.384 . S
C804 H813 0.931 . S
C805 C801 1.374 . S
C805 C806 1.390 . S
C805 H814 0.930 . S
C806 C802 1.391 . S
C806 C805 1.390 . S
C806 H815 0.930 . S
C807 Eu777 2.825 . S
C807 O792 1.238 . S
C807 O793 1.247 . S
C807 C801 1.507 . S
H808 C781 0.930 . S
H809 C782 0.931 . S
H810 C783 0.930 . S
H811 C784 0.930 . S
H812 C803 0.930 . S
H813 C804 0.931 . S
H814 C805 0.930 . S
H815 C806 0.930 . S
Tb816 C826 2.825 . S
Tb816 O827 2.347 . S
Tb816 O830 2.366 . S
Tb816 O835 2.418 . S
Tb816 O836 2.384 . S
Tb816 O839 2.479 . S
Tb816 O840 2.471 . S
Eu817 O828 2.418 . S
Eu817 O829 2.384 . S
Eu817 O832 2.479 . S
Eu817 O833 2.471 . S
Eu817 O834 2.347 . S
Eu817 O837 2.366 . S
Eu817 C847 2.825 . S
C818 O834 1.259 . S
C818 O835 1.265 . S
C819 O836 1.255 . S
C819 O837 1.265 . S
C820 C822 1.380 . S
C820 C823 1.374 . S
C820 C826 1.507 . S
C821 C822 1.384 . S
C821 C825 1.387 . S
C821 H848 0.930 . S
C822 C820 1.380 . S
C822 C821 1.384 . S
C822 H849 0.931 . S
C823 C820 1.374 . S
C823 C824 1.390 . S
C823 H850 0.930 . S
C824 C823 1.390 . S
C824 C825 1.391 . S
C824 H851 0.930 . S
C825 C821 1.387 . S
C825 C824 1.391 . S
C826 Tb816 2.825 . S
C826 C820 1.507 . S
C826 O839 1.238 . S
C826 O840 1.247 . S
O827 Tb816 2.347 . S
O827 C831 1.259 . S
O828 Eu817 2.418 . S
O828 C831 1.265 . S
O829 Eu817 2.384 . S
O829 C838 1.255 . S
O830 Tb816 2.366 . S
O830 C838 1.265 . S
C831 O827 1.259 . S
C831 O828 1.265 . S
O832 Eu817 2.479 . S
O832 C847 1.238 . S
O833 Eu817 2.471 . S
O833 C847 1.247 . S
O834 Eu817 2.347 . S
O834 C818 1.259 . S
O835 Tb816 2.418 . S
O835 C818 1.265 . S
O836 Tb816 2.384 . S
O836 C819 1.255 . S
O837 Eu817 2.366 . S
O837 C819 1.265 . S
C838 O829 1.255 . S
C838 O830 1.265 . S
O839 Tb816 2.479 . S
O839 C826 1.238 . S
O840 Tb816 2.471 . S
O840 C826 1.247 . S
C841 C844 1.380 . S
C841 C845 1.374 . S
C841 C847 1.507 . S
C842 C843 1.387 . S
C842 C846 1.391 . S
C843 C842 1.387 . S
C843 C844 1.384 . S
C843 H852 0.930 . S
C844 C841 1.380 . S
C844 C843 1.384 . S
C844 H853 0.931 . S
C845 C841 1.374 . S
C845 C846 1.390 . S
C845 H854 0.930 . S
C846 C842 1.391 . S
C846 C845 1.390 . S
C846 H855 0.930 . S
C847 Eu817 2.825 . S
C847 O832 1.238 . S
C847 O833 1.247 . S
C847 C841 1.507 . S
H848 C821 0.930 . S
H849 C822 0.931 . S
H850 C823 0.930 . S
H851 C824 0.930 . S
H852 C843 0.930 . S
H853 C844 0.931 . S
H854 C845 0.930 . S
H855 C846 0.930 . S
Tb856 C866 2.825 . S
Tb856 O867 2.347 . S
Tb856 O870 2.366 . S
Tb856 O875 2.418 . S
Tb856 O876 2.384 . S
Tb856 O879 2.479 . S
Tb856 O880 2.471 . S
Eu857 O868 2.418 . S
Eu857 O869 2.384 . S
Eu857 O872 2.479 . S
Eu857 O873 2.471 . S
Eu857 O874 2.347 . S
Eu857 O877 2.366 . S
Eu857 C887 2.825 . S
C858 O874 1.259 . S
C858 O875 1.265 . S
C859 O876 1.255 . S
C859 O877 1.265 . S
C860 C862 1.380 . S
C860 C863 1.374 . S
C860 C866 1.507 . S
C861 C862 1.384 . S
C861 C865 1.387 . S
C861 H888 0.930 . S
C862 C860 1.380 . S
C862 C861 1.384 . S
C862 H889 0.931 . S
C863 C860 1.374 . S
C863 C864 1.390 . S
C863 H890 0.930 . S
C864 C863 1.390 . S
C864 C865 1.391 . S
C864 H891 0.930 . S
C865 C861 1.387 . S
C865 C864 1.391 . S
C866 Tb856 2.825 . S
C866 C860 1.507 . S
C866 O879 1.238 . S
C866 O880 1.247 . S
O867 Tb856 2.347 . S
O867 C871 1.259 . S
O868 Eu857 2.418 . S
O868 C871 1.265 . S
O869 Eu857 2.384 . S
O869 C878 1.255 . S
O870 Tb856 2.366 . S
O870 C878 1.265 . S
C871 O867 1.259 . S
C871 O868 1.265 . S
O872 Eu857 2.479 . S
O872 C887 1.238 . S
O873 Eu857 2.471 . S
O873 C887 1.247 . S
O874 Eu857 2.347 . S
O874 C858 1.259 . S
O875 Tb856 2.418 . S
O875 C858 1.265 . S
O876 Tb856 2.384 . S
O876 C859 1.255 . S
O877 Eu857 2.366 . S
O877 C859 1.265 . S
C878 O869 1.255 . S
C878 O870 1.265 . S
O879 Tb856 2.479 . S
O879 C866 1.238 . S
O880 Tb856 2.471 . S
O880 C866 1.247 . S
C881 C884 1.380 . S
C881 C885 1.374 . S
C881 C887 1.507 . S
C882 C883 1.387 . S
C882 C886 1.391 . S
C883 C882 1.387 . S
C883 C884 1.384 . S
C883 H892 0.930 . S
C884 C881 1.380 . S
C884 C883 1.384 . S
C884 H893 0.931 . S
C885 C881 1.374 . S
C885 C886 1.390 . S
C885 H894 0.930 . S
C886 C882 1.391 . S
C886 C885 1.390 . S
C886 H895 0.930 . S
C887 Eu857 2.825 . S
C887 O872 1.238 . S
C887 O873 1.247 . S
C887 C881 1.507 . S
H888 C861 0.930 . S
H889 C862 0.931 . S
H890 C863 0.930 . S
H891 C864 0.930 . S
H892 C883 0.930 . S
H893 C884 0.931 . S
H894 C885 0.930 . S
H895 C886 0.930 . S
Tb896 C906 2.825 . S
Tb896 O907 2.347 . S
Tb896 O910 2.366 . S
Tb896 O915 2.418 . S
Tb896 O916 2.384 . S
Tb896 O919 2.479 . S
Tb896 O920 2.471 . S
Eu897 O908 2.418 . S
Eu897 O909 2.384 . S
Eu897 O912 2.479 . S
Eu897 O913 2.471 . S
Eu897 O914 2.347 . S
Eu897 O917 2.366 . S
Eu897 C927 2.825 . S
C898 O914 1.259 . S
C898 O915 1.265 . S
C899 O916 1.255 . S
C899 O917 1.265 . S
C900 C902 1.380 . S
C900 C903 1.374 . S
C900 C906 1.507 . S
C901 C902 1.384 . S
C901 C905 1.387 . S
C901 H928 0.930 . S
C902 C900 1.380 . S
C902 C901 1.384 . S
C902 H929 0.931 . S
C903 C900 1.374 . S
C903 C904 1.390 . S
C903 H930 0.930 . S
C904 C903 1.390 . S
C904 C905 1.391 . S
C904 H931 0.930 . S
C905 C901 1.387 . S
C905 C904 1.391 . S
C906 Tb896 2.825 . S
C906 C900 1.507 . S
C906 O919 1.238 . S
C906 O920 1.247 . S
O907 Tb896 2.347 . S
O907 C911 1.259 . S
O908 Eu897 2.418 . S
O908 C911 1.265 . S
O909 Eu897 2.384 . S
O909 C918 1.255 . S
O910 Tb896 2.366 . S
O910 C918 1.265 . S
C911 O907 1.259 . S
C911 O908 1.265 . S
O912 Eu897 2.479 . S
O912 C927 1.238 . S
O913 Eu897 2.471 . S
O913 C927 1.247 . S
O914 Eu897 2.347 . S
O914 C898 1.259 . S
O915 Tb896 2.418 . S
O915 C898 1.265 . S
O916 Tb896 2.384 . S
O916 C899 1.255 . S
O917 Eu897 2.366 . S
O917 C899 1.265 . S
C918 O909 1.255 . S
C918 O910 1.265 . S
O919 Tb896 2.479 . S
O919 C906 1.238 . S
O920 Tb896 2.471 . S
O920 C906 1.247 . S
C921 C924 1.380 . S
C921 C925 1.374 . S
C921 C927 1.507 . S
C922 C923 1.387 . S
C922 C926 1.391 . S
C923 C922 1.387 . S
C923 C924 1.384 . S
C923 H932 0.930 . S
C924 C921 1.380 . S
C924 C923 1.384 . S
C924 H933 0.931 . S
C925 C921 1.374 . S
C925 C926 1.390 . S
C925 H934 0.930 . S
C926 C922 1.391 . S
C926 C925 1.390 . S
C926 H935 0.930 . S
C927 Eu897 2.825 . S
C927 O912 1.238 . S
C927 O913 1.247 . S
C927 C921 1.507 . S
H928 C901 0.930 . S
H929 C902 0.931 . S
H930 C903 0.930 . S
H931 C904 0.930 . S
H932 C923 0.930 . S
H933 C924 0.931 . S
H934 C925 0.930 . S
H935 C926 0.930 . S
Tb936 C946 2.825 1_554 S
Tb936 O947 2.347 1_554 S
Tb936 O950 2.366 . S
Tb936 O955 2.418 . S
Tb936 O956 2.384 . S
Tb936 O959 2.479 . S
Tb936 O960 2.471 1_554 S
Eu937 O948 2.418 1_554 S
Eu937 O949 2.384 . S
Eu937 O952 2.479 . S
Eu937 O953 2.471 . S
Eu937 O954 2.347 . S
Eu937 O957 2.366 . S
Eu937 C967 2.825 . S
C938 O954 1.259 . S
C938 O955 1.265 . S
C939 O956 1.255 . S
C939 O957 1.265 . S
C940 C942 1.380 . S
C940 C943 1.374 . S
C940 C946 1.507 . S
C941 C942 1.384 . S
C941 C945 1.387 . S
C941 H968 0.930 . S
C942 C940 1.380 . S
C942 C941 1.384 . S
C942 H969 0.931 1_556 S
C943 C940 1.374 . S
C943 C944 1.390 . S
C943 H970 0.930 . S
C944 C943 1.390 . S
C944 C945 1.391 . S
C944 H971 0.930 . S
C945 C941 1.387 . S
C945 C944 1.391 . S
C946 Tb936 2.825 1_556 S
C946 C940 1.507 . S
C946 O959 1.238 1_556 S
C946 O960 1.247 . S
O947 Tb936 2.347 1_556 S
O947 C951 1.259 . S
O948 Eu937 2.418 1_556 S
O948 C951 1.265 . S
O949 Eu937 2.384 . S
O949 C958 1.255 . S
O950 Tb936 2.366 . S
O950 C958 1.265 . S
C951 O947 1.259 . S
C951 O948 1.265 . S
O952 Eu937 2.479 . S
O952 C967 1.238 . S
O953 Eu937 2.471 . S
O953 C967 1.247 . S
O954 Eu937 2.347 . S
O954 C938 1.259 . S
O955 Tb936 2.418 . S
O955 C938 1.265 . S
O956 Tb936 2.384 . S
O956 C939 1.255 . S
O957 Eu937 2.366 . S
O957 C939 1.265 . S
C958 O949 1.255 . S
C958 O950 1.265 . S
O959 Tb936 2.479 . S
O959 C946 1.238 1_554 S
O960 Tb936 2.471 1_556 S
O960 C946 1.247 . S
C961 C964 1.380 . S
C961 C965 1.374 . S
C961 C967 1.507 . S
C962 C963 1.387 . S
C962 C966 1.391 . S
C963 C962 1.387 . S
C963 C964 1.384 . S
C963 H972 0.930 . S
C964 C961 1.380 . S
C964 C963 1.384 . S
C964 H973 0.931 . S
C965 C961 1.374 . S
C965 C966 1.390 . S
C965 H974 0.930 . S
C966 C962 1.391 . S
C966 C965 1.390 . S
C966 H975 0.930 . S
C967 Eu937 2.825 . S
C967 O952 1.238 . S
C967 O953 1.247 . S
C967 C961 1.507 . S
H968 C941 0.930 . S
H969 C942 0.931 1_554 S
H970 C943 0.930 . S
H971 C944 0.930 . S
H972 C963 0.930 . S
H973 C964 0.931 . S
H974 C965 0.930 . S
H975 C966 0.930 . S
H976 C982 0.930 . S
H977 C986 0.930 . S
H978 C991 0.929 . S
H979 C989 0.929 . S
H980 C984 0.929 . S
H981 C990 0.929 . S
C982 H976 0.930 . S
C982 C983 1.369 . S
C982 C990 1.378 . S
C983 C982 1.369 . S
C983 C991 1.426 1_655 S
C984 H980 0.929 . S
C984 C986 1.378 1_556 S
C984 C988 1.350 . S
C985 C988 1.463 . S
C985 C990 1.350 1_455 S
C985 N993 1.427 . S
C986 H977 0.930 . S
C986 C984 1.378 1_554 S
C986 C987 1.367 1_554 S
C987 C986 1.367 1_556 S
C987 C989 1.433 . S
C988 C984 1.350 . S
C988 C985 1.463 . S
C988 N992 1.427 . S
C989 H979 0.929 . S
C989 C987 1.433 . S
C989 N992 1.384 . S
C990 H981 0.929 . S
C990 C982 1.378 . S
C990 C985 1.350 1_655 S
C991 H978 0.929 . S
C991 C983 1.426 1_455 S
C991 N993 1.384 . S
N992 C988 1.427 . S
N992 C989 1.384 . S
N993 C985 1.427 . S
N993 C991 1.384 . S
H994 C1000 0.930 . S
H995 C1004 0.930 . S
H996 C1009 0.929 . S
H997 C1007 0.929 . S
H998 C1002 0.929 . S
H999 C1008 0.929 . S
C1000 H994 0.930 . S
C1000 C1001 1.367 . S
C1000 C1008 1.378 . S
C1001 C1000 1.367 . S
C1001 C1009 1.433 . S
C1002 H998 0.929 . S
C1002 C1004 1.378 . S
C1002 C1006 1.350 . S
C1003 C1006 1.463 . S
C1003 C1008 1.350 . S
C1003 N1011 1.427 . S
C1004 H995 0.930 . S
C1004 C1002 1.378 . S
C1004 C1005 1.367 . S
C1005 C1004 1.367 . S
C1005 C1007 1.433 . S
C1006 C1002 1.350 . S
C1006 C1003 1.463 . S
C1006 N1010 1.427 . S
C1007 H997 0.929 . S
C1007 C1005 1.433 . S
C1007 N1010 1.384 . S
C1008 H999 0.929 . S
C1008 C1000 1.378 . S
C1008 C1003 1.350 . S
C1009 H996 0.929 . S
C1009 C1001 1.433 . S
C1009 N1011 1.384 . S
N1010 C1006 1.427 . S
N1010 C1007 1.384 . S
N1011 C1003 1.427 . S
N1011 C1009 1.384 . S
H1012 C1018 0.930 . S
H1013 C1022 0.930 . S
H1014 C1027 0.929 . S
H1015 C1025 0.929 . S
H1016 C1020 0.929 . S
H1017 C1026 0.929 . S
C1018 H1012 0.930 . S
C1018 C1019 1.367 . S
C1018 C1026 1.378 . S
C1019 C1018 1.367 . S
C1019 C1027 1.433 . S
C1020 H1016 0.929 . S
C1020 C1022 1.378 . S
C1020 C1024 1.350 . S
C1021 C1024 1.463 . S
C1021 C1026 1.350 . S
C1021 N1029 1.427 . S
C1022 H1013 0.930 . S
C1022 C1020 1.378 . S
C1022 C1023 1.367 . S
C1023 C1022 1.367 . S
C1023 C1025 1.433 . S
C1024 C1020 1.350 . S
C1024 C1021 1.463 . S
C1024 N1028 1.427 . S
C1025 H1015 0.929 . S
C1025 C1023 1.433 . S
C1025 N1028 1.384 . S
C1026 H1017 0.929 . S
C1026 C1018 1.378 . S
C1026 C1021 1.350 . S
C1027 H1014 0.929 . S
C1027 C1019 1.433 . S
C1027 N1029 1.384 . S
N1028 C1024 1.427 . S
N1028 C1025 1.384 . S
N1029 C1021 1.427 . S
N1029 C1027 1.384 . S
H1030 C1036 0.930 . S
H1031 C1040 0.930 . S
H1032 C1045 0.929 . S
H1033 C1043 0.929 . S
H1034 C1038 0.929 . S
H1035 C1044 0.929 . S
C1036 H1030 0.930 . S
C1036 C1037 1.367 . S
C1036 C1044 1.378 . S
C1037 C1036 1.367 . S
C1037 C1045 1.433 . S
C1038 H1034 0.929 . S
C1038 C1040 1.378 . S
C1038 C1042 1.350 . S
C1039 C1042 1.463 . S
C1039 C1044 1.350 . S
C1039 N1047 1.427 . S
C1040 H1031 0.930 . S
C1040 C1038 1.378 . S
C1040 C1041 1.367 . S
C1041 C1040 1.367 . S
C1041 C1043 1.433 . S
C1042 C1038 1.350 . S
C1042 C1039 1.463 . S
C1042 N1046 1.427 . S
C1043 H1033 0.929 . S
C1043 C1041 1.433 . S
C1043 N1046 1.384 . S
C1044 H1035 0.929 . S
C1044 C1036 1.378 . S
C1044 C1039 1.350 . S
C1045 H1032 0.929 . S
C1045 C1037 1.433 . S
C1045 N1047 1.384 . S
N1046 C1042 1.427 . S
N1046 C1043 1.384 . S
N1047 C1039 1.427 . S
N1047 C1045 1.384 . S
H1048 C1054 0.930 . S
H1049 C1058 0.930 . S
H1050 C1063 0.929 . S
H1051 C1061 0.929 . S
H1052 C1056 0.929 . S
H1053 C1062 0.929 . S
C1054 H1048 0.930 . S
C1054 C1055 1.367 . S
C1054 C1062 1.378 . S
C1055 C1054 1.367 . S
C1055 C1063 1.433 . S
C1056 H1052 0.929 . S
C1056 C1058 1.378 . S
C1056 C1060 1.350 . S
C1057 C1060 1.463 . S
C1057 C1062 1.350 . S
C1057 N1065 1.427 . S
C1058 H1049 0.930 . S
C1058 C1056 1.378 . S
C1058 C1059 1.367 . S
C1059 C1058 1.367 . S
C1059 C1061 1.433 . S
C1060 C1056 1.350 . S
C1060 C1057 1.463 . S
C1060 N1064 1.427 . S
C1061 H1051 0.929 . S
C1061 C1059 1.433 . S
C1061 N1064 1.384 . S
C1062 H1053 0.929 . S
C1062 C1054 1.378 . S
C1062 C1057 1.350 . S
C1063 H1050 0.929 . S
C1063 C1055 1.433 . S
C1063 N1065 1.384 . S
N1064 C1060 1.427 . S
N1064 C1061 1.384 . S
N1065 C1057 1.427 . S
N1065 C1063 1.384 . S
H1066 C1072 0.930 . S
H1067 C1076 0.930 . S
H1068 C1081 0.929 . S
H1069 C1079 0.929 . S
H1070 C1074 0.929 . S
H1071 C1080 0.929 . S
C1072 H1066 0.930 . S
C1072 C1073 1.367 . S
C1072 C1080 1.378 . S
C1073 C1072 1.367 . S
C1073 C1081 1.433 . S
C1074 H1070 0.929 . S
C1074 C1076 1.378 . S
C1074 C1078 1.350 . S
C1075 C1078 1.463 . S
C1075 C1080 1.350 . S
C1075 N1083 1.427 . S
C1076 H1067 0.930 . S
C1076 C1074 1.378 . S
C1076 C1077 1.367 . S
C1077 C1076 1.367 . S
C1077 C1079 1.433 . S
C1078 C1074 1.350 . S
C1078 C1075 1.463 . S
C1078 N1082 1.427 . S
C1079 H1069 0.929 . S
C1079 C1077 1.433 . S
C1079 N1082 1.384 . S
C1080 H1071 0.929 . S
C1080 C1072 1.378 . S
C1080 C1075 1.350 . S
C1081 H1068 0.929 . S
C1081 C1073 1.433 . S
C1081 N1083 1.384 . S
N1082 C1078 1.427 . S
N1082 C1079 1.384 . S
N1083 C1075 1.427 . S
N1083 C1081 1.384 . S
H1084 C1090 0.930 . S
H1085 C1094 0.930 . S
H1086 C1099 0.929 . S
H1087 C1097 0.929 . S
H1088 C1092 0.929 . S
H1089 C1098 0.929 . S
C1090 H1084 0.930 . S
C1090 C1091 1.367 . S
C1090 C1098 1.378 . S
C1091 C1090 1.367 . S
C1091 C1099 1.433 . S
C1092 H1088 0.929 . S
C1092 C1094 1.378 . S
C1092 C1096 1.350 . S
C1093 C1096 1.463 . S
C1093 C1098 1.350 . S
C1093 N1101 1.427 . S
C1094 H1085 0.930 . S
C1094 C1092 1.378 . S
C1094 C1095 1.367 . S
C1095 C1094 1.367 . S
C1095 C1097 1.433 . S
C1096 C1092 1.350 . S
C1096 C1093 1.463 . S
C1096 N1100 1.427 . S
C1097 H1087 0.929 . S
C1097 C1095 1.433 . S
C1097 N1100 1.384 . S
C1098 H1089 0.929 . S
C1098 C1090 1.378 . S
C1098 C1093 1.350 . S
C1099 H1086 0.929 . S
C1099 C1091 1.433 . S
C1099 N1101 1.384 . S
N1100 C1096 1.427 . S
N1100 C1097 1.384 . S
N1101 C1093 1.427 . S
N1101 C1099 1.384 . S
H1102 C1108 0.930 . S
H1103 C1112 0.930 . S
H1104 C1117 0.929 . S
H1105 C1115 0.929 . S
H1106 C1110 0.929 . S
H1107 C1116 0.929 . S
C1108 H1102 0.930 . S
C1108 C1109 1.367 . S
C1108 C1116 1.378 . S
C1109 C1108 1.367 . S
C1109 C1117 1.433 . S
C1110 H1106 0.929 . S
C1110 C1112 1.378 . S
C1110 C1114 1.350 . S
C1111 C1114 1.463 . S
C1111 C1116 1.350 . S
C1111 N1119 1.427 . S
C1112 H1103 0.930 . S
C1112 C1110 1.378 . S
C1112 C1113 1.367 . S
C1113 C1112 1.367 . S
C1113 C1115 1.433 . S
C1114 C1110 1.350 . S
C1114 C1111 1.463 . S
C1114 N1118 1.427 . S
C1115 H1105 0.929 . S
C1115 C1113 1.433 . S
C1115 N1118 1.384 . S
C1116 H1107 0.929 . S
C1116 C1108 1.378 . S
C1116 C1111 1.350 . S
C1117 H1104 0.929 . S
C1117 C1109 1.433 . S
C1117 N1119 1.384 . S
N1118 C1114 1.427 . S
N1118 C1115 1.384 . S
N1119 C1111 1.427 . S
N1119 C1117 1.384 . S
H1120 C1126 0.930 . S
H1121 C1130 0.946 . S
H1122 C1135 0.929 . S
H1123 C1133 0.929 . S
H1124 C1128 0.929 . S
H1125 C1134 0.918 1_565 S
C1126 H1120 0.930 . S
C1126 C1127 1.367 1_565 S
C1126 C1134 1.373 1_565 S
C1127 C1126 1.367 1_545 S
C1127 C1135 1.433 . S
C1128 H1124 0.929 . S
C1128 C1130 1.415 . S
C1128 C1132 1.350 . S
C1129 C1132 1.463 . S
C1129 C1134 1.365 . S
C1129 N1137 1.427 . S
C1130 H1121 0.946 . S
C1130 C1128 1.415 . S
C1130 C1131 1.316 1_655 S
C1131 C1130 1.316 1_455 S
C1131 C1133 1.433 . S
C1132 C1128 1.350 . S
C1132 C1129 1.463 . S
C1132 N1136 1.427 1_655 S
C1133 H1123 0.929 . S
C1133 C1131 1.433 . S
C1133 N1136 1.384 . S
C1134 H1125 0.918 1_545 S
C1134 C1126 1.373 1_545 S
C1134 C1129 1.365 . S
C1135 H1122 0.929 . S
C1135 C1127 1.433 . S
C1135 N1137 1.384 . S
N1136 C1132 1.427 1_455 S
N1136 C1133 1.384 . S
N1137 C1129 1.427 . S
N1137 C1135 1.384 . S
H1138 C1144 0.930 . S
H1139 C1148 0.930 . S
H1140 C1153 0.929 . S
H1141 C1151 0.929 . S
H1142 C1146 0.929 . S
H1143 C1152 0.929 . S
C1144 H1138 0.930 . S
C1144 C1145 1.367 . S
C1144 C1152 1.378 . S
C1145 C1144 1.367 . S
C1145 C1153 1.433 . S
C1146 H1142 0.929 . S
C1146 C1148 1.378 . S
C1146 C1150 1.350 . S
C1147 C1150 1.463 . S
C1147 C1152 1.350 . S
C1147 N1155 1.427 . S
C1148 H1139 0.930 . S
C1148 C1146 1.378 . S
C1148 C1149 1.367 . S
C1149 C1148 1.367 . S
C1149 C1151 1.433 . S
C1150 C1146 1.350 . S
C1150 C1147 1.463 . S
C1150 N1154 1.427 . S
C1151 H1141 0.929 . S
C1151 C1149 1.433 . S
C1151 N1154 1.384 . S
C1152 H1143 0.929 . S
C1152 C1144 1.378 . S
C1152 C1147 1.350 . S
C1153 H1140 0.929 . S
C1153 C1145 1.433 . S
C1153 N1155 1.384 . S
N1154 C1150 1.427 . S
N1154 C1151 1.384 . S
N1155 C1147 1.427 . S
N1155 C1153 1.384 . S
H1156 C1162 0.930 . S
H1157 C1166 0.930 . S
H1158 C1171 0.929 . S
H1159 C1169 0.951 . S
H1160 C1164 0.929 . S
H1161 C1170 0.929 . S
C1162 H1156 0.930 . S
C1162 C1163 1.367 . S
C1162 C1170 1.378 . S
C1163 C1162 1.367 . S
C1163 C1171 1.433 1_565 S
C1164 H1160 0.929 . S
C1164 C1166 1.378 . S
C1164 C1168 1.350 . S
C1165 C1168 1.463 . S
C1165 C1170 1.350 1_545 S
C1165 N1173 1.427 . S
C1166 H1157 0.930 . S
C1166 C1164 1.378 . S
C1166 C1167 1.367 . S
C1167 C1166 1.367 . S
C1167 C1169 1.433 . S
C1168 C1164 1.350 . S
C1168 C1165 1.463 . S
C1168 N1172 1.427 . S
C1169 H1159 0.951 . S
C1169 C1167 1.433 . S
C1169 N1172 1.384 . S
C1170 H1161 0.929 . S
C1170 C1162 1.378 . S
C1170 C1165 1.350 1_565 S
C1171 H1158 0.929 . S
C1171 C1163 1.433 1_545 S
C1171 N1173 1.384 . S
N1172 C1168 1.427 . S
N1172 C1169 1.384 . S
N1173 C1165 1.427 . S
N1173 C1171 1.384 . S
H1174 C1180 0.930 . S
H1175 C1184 0.930 . S
H1176 C1189 0.929 . S
H1177 C1187 0.929 . S
H1178 C1182 0.929 . S
H1179 C1188 0.929 . S
C1180 H1174 0.930 . S
C1180 C1181 1.367 . S
C1180 C1188 1.378 . S
C1181 C1180 1.367 . S
C1181 C1189 1.433 . S
C1182 H1178 0.929 . S
C1182 C1184 1.378 . S
C1182 C1186 1.350 . S
C1183 C1186 1.463 . S
C1183 C1188 1.350 . S
C1183 N1191 1.427 . S
C1184 H1175 0.930 . S
C1184 C1182 1.378 . S
C1184 C1185 1.367 . S
C1185 C1184 1.367 . S
C1185 C1187 1.433 . S
C1186 C1182 1.350 . S
C1186 C1183 1.463 . S
C1186 N1190 1.427 . S
C1187 H1177 0.929 . S
C1187 C1185 1.433 . S
C1187 N1190 1.384 . S
C1188 H1179 0.929 . S
C1188 C1180 1.378 . S
C1188 C1183 1.350 . S
C1189 H1176 0.929 . S
C1189 C1181 1.433 . S
C1189 N1191 1.384 . S
N1190 C1186 1.427 . S
N1190 C1187 1.384 . S
N1191 C1183 1.427 . S
N1191 C1189 1.384 . S
H1192 C1198 0.930 . S
H1193 C1202 0.930 1_455 S
H1194 C1207 0.929 . S
H1195 C1205 0.929 . S
H1196 C1200 0.929 1_565 S
H1197 C1206 0.929 . S
C1198 H1192 0.930 . S
C1198 C1199 1.367 . S
C1198 C1206 1.378 . S
C1199 C1198 1.367 . S
C1199 C1207 1.433 1_545 S
C1200 H1196 0.929 1_545 S
C1200 C1202 1.378 . S
C1200 C1204 1.350 . S
C1201 C1204 1.463 . S
C1201 C1206 1.350 . S
C1201 N1209 1.427 1_545 S
C1202 H1193 0.930 1_655 S
C1202 C1200 1.378 . S
C1202 C1203 1.367 . S
C1203 C1202 1.367 . S
C1203 C1205 1.433 . S
C1204 C1200 1.350 . S
C1204 C1201 1.463 . S
C1204 N1208 1.427 . S
C1205 H1195 0.929 . S
C1205 C1203 1.433 . S
C1205 N1208 1.384 . S
C1206 H1197 0.929 . S
C1206 C1198 1.378 . S
C1206 C1201 1.350 . S
C1207 H1194 0.929 . S
C1207 C1199 1.433 1_565 S
C1207 N1209 1.384 . S
N1208 C1204 1.427 . S
N1208 C1205 1.384 . S
N1209 C1201 1.427 1_565 S
N1209 C1207 1.384 . S
H1210 C1216 0.930 . S
H1211 C1220 0.930 . S
H1212 C1225 0.929 . S
H1213 C1223 0.929 . S
H1214 C1218 0.929 . S
H1215 C1224 0.929 . S
C1216 H1210 0.930 . S
C1216 C1217 1.367 . S
C1216 C1224 1.378 . S
C1217 C1216 1.367 . S
C1217 C1225 1.433 . S
C1218 H1214 0.929 . S
C1218 C1220 1.378 . S
C1218 C1222 1.350 . S
C1219 C1222 1.463 . S
C1219 C1224 1.350 . S
C1219 N1227 1.427 . S
C1220 H1211 0.930 . S
C1220 C1218 1.378 . S
C1220 C1221 1.367 . S
C1221 C1220 1.367 . S
C1221 C1223 1.433 . S
C1222 C1218 1.350 . S
C1222 C1219 1.463 . S
C1222 N1226 1.427 . S
C1223 H1213 0.929 . S
C1223 C1221 1.433 . S
C1223 N1226 1.384 . S
C1224 H1215 0.929 . S
C1224 C1216 1.378 . S
C1224 C1219 1.350 . S
C1225 H1212 0.929 . S
C1225 C1217 1.433 . S
C1225 N1227 1.384 . S
N1226 C1222 1.427 . S
N1226 C1223 1.384 . S
N1227 C1219 1.427 . S
N1227 C1225 1.384 . S
H1228 C1234 0.930 . S
H1229 C1238 0.930 . S
H1230 C1243 0.929 . S
H1231 C1241 0.929 . S
H1232 C1236 0.929 . S
H1233 C1242 0.929 . S
C1234 H1228 0.930 . S
C1234 C1235 1.367 . S
C1234 C1242 1.378 . S
C1235 C1234 1.367 . S
C1235 C1243 1.433 1_545 S
C1236 H1232 0.929 . S
C1236 C1238 1.378 . S
C1236 C1240 1.350 . S
C1237 C1240 1.463 . S
C1237 C1242 1.350 . S
C1237 N1245 1.427 . S
C1238 H1229 0.930 . S
C1238 C1236 1.378 . S
C1238 C1239 1.367 . S
C1239 C1238 1.367 . S
C1239 C1241 1.433 . S
C1240 C1236 1.350 . S
C1240 C1237 1.463 . S
C1240 N1244 1.427 . S
C1241 H1231 0.929 . S
C1241 C1239 1.433 . S
C1241 N1244 1.384 . S
C1242 H1233 0.929 . S
C1242 C1234 1.378 . S
C1242 C1237 1.350 . S
C1243 H1230 0.929 . S
C1243 C1235 1.433 1_565 S
C1243 N1245 1.384 1_565 S
N1244 C1240 1.427 . S
N1244 C1241 1.384 . S
N1245 C1237 1.427 . S
N1245 C1243 1.384 1_545 S
H1246 C1252 0.930 . S
H1247 C1256 0.930 . S
H1248 C1261 0.929 . S
H1249 C1259 0.929 . S
H1250 C1254 0.929 . S
H1251 C1260 0.929 . S
C1252 H1246 0.930 . S
C1252 C1253 1.367 . S
C1252 C1260 1.378 . S
C1253 C1252 1.367 . S
C1253 C1261 1.433 . S
C1254 H1250 0.929 . S
C1254 C1256 1.378 . S
C1254 C1258 1.350 . S
C1255 C1258 1.463 . S
C1255 C1260 1.350 . S
C1255 N1263 1.427 . S
C1256 H1247 0.930 . S
C1256 C1254 1.378 . S
C1256 C1257 1.367 . S
C1257 C1256 1.367 . S
C1257 C1259 1.433 . S
C1258 C1254 1.350 . S
C1258 C1255 1.463 . S
C1258 N1262 1.427 . S
C1259 H1249 0.929 . S
C1259 C1257 1.433 . S
C1259 N1262 1.384 . S
C1260 H1251 0.929 . S
C1260 C1252 1.378 . S
C1260 C1255 1.350 . S
C1261 H1248 0.929 . S
C1261 C1253 1.433 . S
C1261 N1263 1.384 . S
N1262 C1258 1.427 . S
N1262 C1259 1.384 . S
N1263 C1255 1.427 . S
N1263 C1261 1.384 . S
H1264 C1270 0.930 . S
H1265 C1274 0.930 . S
H1266 C1279 0.929 . S
H1267 C1277 0.929 . S
H1268 C1272 0.929 . S
H1269 C1278 0.929 . S
C1270 H1264 0.930 . S
C1270 C1271 1.367 . S
C1270 C1278 1.378 . S
C1271 C1270 1.367 . S
C1271 C1279 1.433 . S
C1272 H1268 0.929 . S
C1272 C1274 1.378 . S
C1272 C1276 1.350 . S
C1273 C1276 1.463 . S
C1273 C1278 1.350 . S
C1273 N1281 1.427 . S
C1274 H1265 0.930 . S
C1274 C1272 1.378 . S
C1274 C1275 1.367 . S
C1275 C1274 1.367 . S
C1275 C1277 1.433 1_565 S
C1276 C1272 1.350 . S
C1276 C1273 1.463 . S
C1276 N1280 1.427 . S
C1277 H1267 0.929 . S
C1277 C1275 1.433 1_545 S
C1277 N1280 1.384 1_545 S
C1278 H1269 0.929 . S
C1278 C1270 1.378 . S
C1278 C1273 1.350 . S
C1279 H1266 0.929 . S
C1279 C1271 1.433 . S
C1279 N1281 1.384 . S
N1280 C1276 1.427 . S
N1280 C1277 1.384 1_565 S
N1281 C1273 1.427 . S
N1281 C1279 1.384 . S
H1282 C1288 0.930 . S
H1283 C1292 0.930 . S
H1284 C1297 0.929 . S
H1285 C1295 0.929 . S
H1286 C1290 0.929 . S
H1287 C1296 0.929 . S
C1288 H1282 0.930 . S
C1288 C1289 1.367 . S
C1288 C1296 1.378 . S
C1289 C1288 1.367 . S
C1289 C1297 1.433 . S
C1290 H1286 0.929 . S
C1290 C1292 1.378 . S
C1290 C1294 1.350 . S
C1291 C1294 1.463 . S
C1291 C1296 1.350 . S
C1291 N1299 1.427 . S
C1292 H1283 0.930 . S
C1292 C1290 1.378 . S
C1292 C1293 1.367 . S
C1293 C1292 1.367 . S
C1293 C1295 1.433 . S
C1294 C1290 1.350 . S
C1294 C1291 1.463 . S
C1294 N1298 1.427 . S
C1295 H1285 0.929 . S
C1295 C1293 1.433 . S
C1295 N1298 1.384 . S
C1296 H1287 0.929 . S
C1296 C1288 1.378 . S
C1296 C1291 1.350 . S
C1297 H1284 0.929 . S
C1297 C1289 1.433 . S
C1297 N1299 1.384 . S
N1298 C1294 1.427 . S
N1298 C1295 1.384 . S
N1299 C1291 1.427 . S
N1299 C1297 1.384 . S
H1300 C1306 0.930 . S
H1301 C1310 0.930 . S
H1302 C1315 0.929 . S
H1303 C1313 0.929 . S
H1304 C1308 0.929 . S
H1305 C1314 0.929 . S
C1306 H1300 0.930 . S
C1306 C1307 1.367 . S
C1306 C1314 1.378 . S
C1307 C1306 1.367 . S
C1307 C1315 1.433 . S
C1308 H1304 0.929 . S
C1308 C1310 1.378 . S
C1308 C1312 1.350 . S
C1309 C1312 1.463 . S
C1309 C1314 1.350 . S
C1309 N1317 1.427 . S
C1310 H1301 0.930 . S
C1310 C1308 1.378 . S
C1310 C1311 1.367 . S
C1311 C1310 1.367 . S
C1311 C1313 1.433 . S
C1312 C1308 1.350 . S
C1312 C1309 1.463 . S
C1312 N1316 1.427 . S
C1313 H1303 0.929 . S
C1313 C1311 1.433 . S
C1313 N1316 1.384 . S
C1314 H1305 0.929 . S
C1314 C1306 1.378 . S
C1314 C1309 1.350 . S
C1315 H1302 0.929 . S
C1315 C1307 1.433 . S
C1315 N1317 1.384 . S
N1316 C1312 1.427 . S
N1316 C1313 1.384 . S
N1317 C1309 1.427 . S
N1317 C1315 1.384 . S
H1318 C1324 0.930 . S
H1319 C1328 0.930 . S
H1320 C1333 0.929 . S
H1321 C1331 0.929 . S
H1322 C1326 0.929 . S
H1323 C1332 0.929 . S
C1324 H1318 0.930 . S
C1324 C1325 1.367 . S
C1324 C1332 1.378 . S
C1325 C1324 1.367 . S
C1325 C1333 1.433 . S
C1326 H1322 0.929 . S
C1326 C1328 1.378 . S
C1326 C1330 1.350 . S
C1327 C1330 1.463 . S
C1327 C1332 1.350 . S
C1327 N1335 1.427 . S
C1328 H1319 0.930 . S
C1328 C1326 1.378 . S
C1328 C1329 1.367 . S
C1329 C1328 1.367 . S
C1329 C1331 1.433 . S
C1330 C1326 1.350 . S
C1330 C1327 1.463 . S
C1330 N1334 1.427 . S
C1331 H1321 0.929 . S
C1331 C1329 1.433 . S
C1331 N1334 1.384 . S
C1332 H1323 0.929 . S
C1332 C1324 1.378 . S
C1332 C1327 1.350 . S
C1333 H1320 0.929 . S
C1333 C1325 1.433 . S
C1333 N1335 1.384 . S
N1334 C1330 1.427 . S
N1334 C1331 1.384 . S
N1335 C1327 1.427 . S
N1335 C1333 1.384 . S
H1336 C1342 0.930 . S
H1337 C1346 0.930 . S
H1338 C1351 0.929 . S
H1339 C1349 0.929 . S
H1340 C1344 0.929 . S
H1341 C1350 0.929 . S
C1342 H1336 0.930 . S
C1342 C1343 1.367 . S
C1342 C1350 1.378 . S
C1343 C1342 1.367 . S
C1343 C1351 1.433 . S
C1344 H1340 0.929 . S
C1344 C1346 1.378 . S
C1344 C1348 1.350 . S
C1345 C1348 1.463 . S
C1345 C1350 1.350 . S
C1345 N1353 1.427 . S
C1346 H1337 0.930 . S
C1346 C1344 1.378 . S
C1346 C1347 1.367 . S
C1347 C1346 1.367 . S
C1347 C1349 1.433 . S
C1348 C1344 1.350 . S
C1348 C1345 1.463 . S
C1348 N1352 1.427 . S
C1349 H1339 0.929 . S
C1349 C1347 1.433 . S
C1349 N1352 1.384 . S
C1350 H1341 0.929 . S
C1350 C1342 1.378 . S
C1350 C1345 1.350 . S
C1351 H1338 0.929 . S
C1351 C1343 1.433 . S
C1351 N1353 1.384 . S
N1352 C1348 1.427 . S
N1352 C1349 1.384 . S
N1353 C1345 1.427 . S
N1353 C1351 1.384 . S
H1354 C1360 0.930 . S
H1355 C1364 0.930 . S
H1356 C1369 0.929 . S
H1357 C1367 0.929 . S
H1358 C1362 0.929 . S
H1359 C1368 0.929 . S
C1360 H1354 0.930 . S
C1360 C1361 1.367 . S
C1360 C1368 1.378 . S
C1361 C1360 1.367 . S
C1361 C1369 1.433 . S
C1362 H1358 0.929 . S
C1362 C1364 1.378 . S
C1362 C1366 1.350 . S
C1363 C1366 1.463 . S
C1363 C1368 1.350 . S
C1363 N1371 1.427 . S
C1364 H1355 0.930 . S
C1364 C1362 1.378 . S
C1364 C1365 1.367 . S
C1365 C1364 1.367 . S
C1365 C1367 1.433 . S
C1366 C1362 1.350 . S
C1366 C1363 1.463 . S
C1366 N1370 1.427 . S
C1367 H1357 0.929 . S
C1367 C1365 1.433 . S
C1367 N1370 1.384 . S
C1368 H1359 0.929 . S
C1368 C1360 1.378 . S
C1368 C1363 1.350 . S
C1369 H1356 0.929 . S
C1369 C1361 1.433 . S
C1369 N1371 1.384 . S
N1370 C1366 1.427 . S
N1370 C1367 1.384 . S
N1371 C1363 1.427 . S
N1371 C1369 1.384 . S
H1372 C1378 0.930 . S
H1373 C1382 0.930 . S
H1374 C1387 0.929 . S
H1375 C1385 0.929 . S
H1376 C1380 0.929 . S
H1377 C1386 0.929 . S
C1378 H1372 0.930 . S
C1378 C1379 1.367 . S
C1378 C1386 1.378 . S
C1379 C1378 1.367 . S
C1379 C1387 1.433 . S
C1380 H1376 0.929 . S
C1380 C1382 1.378 . S
C1380 C1384 1.350 . S
C1381 C1384 1.463 . S
C1381 C1386 1.350 . S
C1381 N1389 1.427 . S
C1382 H1373 0.930 . S
C1382 C1380 1.378 . S
C1382 C1383 1.367 . S
C1383 C1382 1.367 . S
C1383 C1385 1.433 . S
C1384 C1380 1.350 . S
C1384 C1381 1.463 . S
C1384 N1388 1.427 . S
C1385 H1375 0.929 . S
C1385 C1383 1.433 . S
C1385 N1388 1.384 . S
C1386 H1377 0.929 . S
C1386 C1378 1.378 . S
C1386 C1381 1.350 . S
C1387 H1374 0.929 . S
C1387 C1379 1.433 . S
C1387 N1389 1.384 . S
N1388 C1384 1.427 . S
N1388 C1385 1.384 . S
N1389 C1381 1.427 . S
N1389 C1387 1.384 . S
H1390 C1396 0.930 . S
H1391 C1400 0.930 . S
H1392 C1405 0.929 . S
H1393 C1403 0.929 . S
H1394 C1398 0.929 . S
H1395 C1404 0.929 . S
C1396 H1390 0.930 . S
C1396 C1397 1.367 . S
C1396 C1404 1.378 . S
C1397 C1396 1.367 . S
C1397 C1405 1.433 . S
C1398 H1394 0.929 . S
C1398 C1400 1.378 . S
C1398 C1402 1.350 . S
C1399 C1402 1.463 . S
C1399 C1404 1.350 . S
C1399 N1407 1.427 . S
C1400 H1391 0.930 . S
C1400 C1398 1.378 . S
C1400 C1401 1.367 . S
C1401 C1400 1.367 . S
C1401 C1403 1.433 . S
C1402 C1398 1.350 . S
C1402 C1399 1.463 . S
C1402 N1406 1.427 . S
C1403 H1393 0.929 . S
C1403 C1401 1.433 . S
C1403 N1406 1.384 . S
C1404 H1395 0.929 . S
C1404 C1396 1.378 . S
C1404 C1399 1.350 . S
C1405 H1392 0.929 . S
C1405 C1397 1.433 . S
C1405 N1407 1.384 . S
N1406 C1402 1.427 . S
N1406 C1403 1.384 . S
N1407 C1399 1.427 . S
N1407 C1405 1.384 . S
H1408 C1414 0.930 . S
H1409 C1418 0.930 . S
H1410 C1423 0.929 . S
H1411 C1421 0.929 . S
H1412 C1416 0.929 . S
H1413 C1422 0.929 . S
C1414 H1408 0.930 . S
C1414 C1415 1.367 . S
C1414 C1422 1.378 . S
C1415 C1414 1.367 . S
C1415 C1423 1.433 . S
C1416 H1412 0.929 . S
C1416 C1418 1.378 . S
C1416 C1420 1.350 . S
C1417 C1420 1.463 . S
C1417 C1422 1.350 . S
C1417 N1425 1.427 . S
C1418 H1409 0.930 . S
C1418 C1416 1.378 . S
C1418 C1419 1.367 . S
C1419 C1418 1.367 . S
C1419 C1421 1.433 . S
C1420 C1416 1.350 . S
C1420 C1417 1.463 . S
C1420 N1424 1.427 . S
C1421 H1411 0.929 . S
C1421 C1419 1.433 . S
C1421 N1424 1.384 . S
C1422 H1413 0.929 . S
C1422 C1414 1.378 . S
C1422 C1417 1.350 . S
C1423 H1410 0.929 . S
C1423 C1415 1.433 . S
C1423 N1425 1.384 . S
N1424 C1420 1.427 . S
N1424 C1421 1.384 . S
N1425 C1417 1.427 . S
N1425 C1423 1.384 . S
H1426 C1432 0.930 . S
H1427 C1436 0.930 . S
H1428 C1441 0.929 . S
H1429 C1439 0.929 . S
H1430 C1434 0.929 . S
H1431 C1440 0.929 . S
C1432 H1426 0.930 . S
C1432 C1433 1.367 . S
C1432 C1440 1.378 . S
C1433 C1432 1.367 . S
C1433 C1441 1.433 . S
C1434 H1430 0.929 . S
C1434 C1436 1.378 . S
C1434 C1438 1.350 . S
C1435 C1438 1.463 . S
C1435 C1440 1.350 . S
C1435 N1443 1.427 . S
C1436 H1427 0.930 . S
C1436 C1434 1.378 . S
C1436 C1437 1.367 . S
C1437 C1436 1.367 . S
C1437 C1439 1.433 . S
C1438 C1434 1.350 . S
C1438 C1435 1.463 . S
C1438 N1442 1.427 . S
C1439 H1429 0.929 . S
C1439 C1437 1.433 . S
C1439 N1442 1.384 . S
C1440 H1431 0.929 . S
C1440 C1432 1.378 . S
C1440 C1435 1.350 . S
C1441 H1428 0.929 . S
C1441 C1433 1.433 . S
C1441 N1443 1.384 . S
N1442 C1438 1.427 . S
N1442 C1439 1.384 . S
N1443 C1435 1.427 . S
N1443 C1441 1.384 . S
H1444 C1450 0.930 . S
H1445 C1454 0.930 . S
H1446 C1459 0.929 . S
H1447 C1457 0.929 . S
H1448 C1452 0.929 . S
H1449 C1458 0.929 . S
C1450 H1444 0.930 . S
C1450 C1451 1.367 . S
C1450 C1458 1.378 . S
C1451 C1450 1.367 . S
C1451 C1459 1.433 . S
C1452 H1448 0.929 . S
C1452 C1454 1.378 . S
C1452 C1456 1.350 . S
C1453 C1456 1.463 . S
C1453 C1458 1.350 . S
C1453 N1461 1.427 . S
C1454 H1445 0.930 . S
C1454 C1452 1.378 . S
C1454 C1455 1.367 . S
C1455 C1454 1.367 . S
C1455 C1457 1.433 . S
C1456 C1452 1.350 . S
C1456 C1453 1.463 . S
C1456 N1460 1.427 . S
C1457 H1447 0.929 . S
C1457 C1455 1.433 . S
C1457 N1460 1.384 . S
C1458 H1449 0.929 . S
C1458 C1450 1.378 . S
C1458 C1453 1.350 . S
C1459 H1446 0.929 . S
C1459 C1451 1.433 . S
C1459 N1461 1.384 . S
N1460 C1456 1.427 . S
N1460 C1457 1.384 . S
N1461 C1453 1.427 . S
N1461 C1459 1.384 . S
H1462 C1468 0.930 . S
H1463 C1472 0.930 . S
H1464 C1477 0.929 . S
H1465 C1475 0.929 . S
H1466 C1470 0.929 . S
H1467 C1476 0.929 . S
C1468 H1462 0.930 . S
C1468 C1469 1.367 . S
C1468 C1476 1.378 . S
C1469 C1468 1.367 . S
C1469 C1477 1.433 . S
C1470 H1466 0.929 . S
C1470 C1472 1.378 . S
C1470 C1474 1.350 . S
C1471 C1474 1.463 . S
C1471 C1476 1.350 . S
C1471 N1479 1.427 . S
C1472 H1463 0.930 . S
C1472 C1470 1.378 . S
C1472 C1473 1.367 . S
C1473 C1472 1.367 . S
C1473 C1475 1.433 . S
C1474 C1470 1.350 . S
C1474 C1471 1.463 . S
C1474 N1478 1.427 . S
C1475 H1465 0.929 . S
C1475 C1473 1.433 . S
C1475 N1478 1.384 . S
C1476 H1467 0.929 . S
C1476 C1468 1.378 . S
C1476 C1471 1.350 . S
C1477 H1464 0.929 . S
C1477 C1469 1.433 . S
C1477 N1479 1.384 . S
N1478 C1474 1.427 . S
N1478 C1475 1.384 . S
N1479 C1471 1.427 . S
N1479 C1477 1.384 . S
H1480 C1486 0.930 . S
H1481 C1490 0.930 . S
H1482 C1495 0.929 . S
H1483 C1493 0.929 . S
H1484 C1488 0.929 . S
H1485 C1494 0.929 . S
C1486 H1480 0.930 . S
C1486 C1487 1.367 . S
C1486 C1494 1.378 . S
C1487 C1486 1.367 . S
C1487 C1495 1.433 . S
C1488 H1484 0.929 . S
C1488 C1490 1.378 . S
C1488 C1492 1.350 . S
C1489 C1492 1.463 . S
C1489 C1494 1.350 . S
C1489 N1497 1.427 . S
C1490 H1481 0.930 . S
C1490 C1488 1.378 . S
C1490 C1491 1.367 . S
C1491 C1490 1.367 . S
C1491 C1493 1.433 . S
C1492 C1488 1.350 . S
C1492 C1489 1.463 . S
C1492 N1496 1.427 . S
C1493 H1483 0.929 . S
C1493 C1491 1.433 . S
C1493 N1496 1.384 . S
C1494 H1485 0.929 . S
C1494 C1486 1.378 . S
C1494 C1489 1.350 . S
C1495 H1482 0.929 . S
C1495 C1487 1.433 . S
C1495 N1497 1.384 . S
N1496 C1492 1.427 . S
N1496 C1493 1.384 . S
N1497 C1489 1.427 . S
N1497 C1495 1.384 . S
H1498 C1504 0.930 . S
H1499 C1508 0.930 . S
H1500 C1513 0.929 . S
H1501 C1511 0.929 . S
H1502 C1506 0.929 . S
H1503 C1512 0.929 . S
C1504 H1498 0.930 . S
C1504 C1505 1.367 . S
C1504 C1512 1.378 . S
C1505 C1504 1.367 . S
C1505 C1513 1.433 . S
C1506 H1502 0.929 . S
C1506 C1508 1.378 . S
C1506 C1510 1.350 . S
C1507 C1510 1.463 . S
C1507 C1512 1.350 . S
C1507 N1515 1.427 . S
C1508 H1499 0.930 . S
C1508 C1506 1.378 . S
C1508 C1509 1.367 . S
C1509 C1508 1.367 . S
C1509 C1511 1.433 . S
C1510 C1506 1.350 . S
C1510 C1507 1.463 . S
C1510 N1514 1.427 . S
C1511 H1501 0.929 . S
C1511 C1509 1.433 . S
C1511 N1514 1.384 . S
C1512 H1503 0.929 . S
C1512 C1504 1.378 . S
C1512 C1507 1.350 . S
C1513 H1500 0.929 . S
C1513 C1505 1.433 . S
C1513 N1515 1.384 . S
N1514 C1510 1.427 . S
N1514 C1511 1.384 . S
N1515 C1507 1.427 . S
N1515 C1513 1.384 . S
H1516 C1522 0.930 . S
H1517 C1526 0.930 1_554 S
H1518 C1531 0.929 . S
H1519 C1529 0.929 . S
H1520 C1524 0.929 . S
H1521 C1530 0.929 . S
C1522 H1516 0.930 . S
C1522 C1523 1.367 . S
C1522 C1530 1.378 . S
C1523 C1522 1.367 . S
C1523 C1531 1.433 . S
C1524 H1520 0.929 . S
C1524 C1526 1.378 . S
C1524 C1528 1.350 . S
C1525 C1528 1.463 . S
C1525 C1530 1.350 . S
C1525 N1533 1.427 . S
C1526 H1517 0.930 1_556 S
C1526 C1524 1.378 . S
C1526 C1527 1.367 . S
C1527 C1526 1.367 . S
C1527 C1529 1.433 . S
C1528 C1524 1.350 . S
C1528 C1525 1.463 . S
C1528 N1532 1.427 . S
C1529 H1519 0.929 . S
C1529 C1527 1.433 . S
C1529 N1532 1.384 . S
C1530 H1521 0.929 . S
C1530 C1522 1.378 . S
C1530 C1525 1.350 . S
C1531 H1518 0.929 . S
C1531 C1523 1.433 . S
C1531 N1533 1.384 . S
N1532 C1528 1.427 . S
N1532 C1529 1.384 . S
N1533 C1525 1.427 . S
N1533 C1531 1.384 . S
H1534 C1540 0.930 . S
H1535 C1544 0.930 . S
H1536 C1549 0.929 . S
H1537 C1547 0.929 . S
H1538 C1542 0.929 . S
H1539 C1548 0.929 . S
C1540 H1534 0.930 . S
C1540 C1541 1.367 . S
C1540 C1548 1.378 . S
C1541 C1540 1.367 . S
C1541 C1549 1.433 . S
C1542 H1538 0.929 . S
C1542 C1544 1.378 . S
C1542 C1546 1.350 . S
C1543 C1546 1.463 . S
C1543 C1548 1.350 . S
C1543 N1551 1.427 . S
C1544 H1535 0.930 . S
C1544 C1542 1.378 . S
C1544 C1545 1.367 . S
C1545 C1544 1.367 . S
C1545 C1547 1.433 . S
C1546 C1542 1.350 . S
C1546 C1543 1.463 . S
C1546 N1550 1.427 . S
C1547 H1537 0.929 . S
C1547 C1545 1.433 . S
C1547 N1550 1.384 . S
C1548 H1539 0.929 . S
C1548 C1540 1.378 . S
C1548 C1543 1.350 . S
C1549 H1536 0.929 . S
C1549 C1541 1.433 . S
C1549 N1551 1.384 . S
N1550 C1546 1.427 . S
N1550 C1547 1.384 . S
N1551 C1543 1.427 . S
N1551 C1549 1.384 . S
H1552 C1558 0.930 . S
H1553 C1562 0.930 . S
H1554 C1567 0.929 . S
H1555 C1565 0.929 . S
H1556 C1560 0.929 . S
H1557 C1566 0.929 . S
C1558 H1552 0.930 . S
C1558 C1559 1.367 . S
C1558 C1566 1.378 . S
C1559 C1558 1.367 . S
C1559 C1567 1.433 . S
C1560 H1556 0.929 . S
C1560 C1562 1.378 . S
C1560 C1564 1.350 . S
C1561 C1564 1.463 . S
C1561 C1566 1.350 . S
C1561 N1569 1.427 . S
C1562 H1553 0.930 . S
C1562 C1560 1.378 . S
C1562 C1563 1.367 . S
C1563 C1562 1.367 . S
C1563 C1565 1.433 . S
C1564 C1560 1.350 . S
C1564 C1561 1.463 . S
C1564 N1568 1.427 . S
C1565 H1555 0.929 . S
C1565 C1563 1.433 . S
C1565 N1568 1.384 . S
C1566 H1557 0.929 . S
C1566 C1558 1.378 . S
C1566 C1561 1.350 . S
C1567 H1554 0.929 . S
C1567 C1559 1.433 . S
C1567 N1569 1.384 . S
N1568 C1564 1.427 . S
N1568 C1565 1.384 . S
N1569 C1561 1.427 . S
N1569 C1567 1.384 . S
H1570 C1576 0.930 . S
H1571 C1580 0.930 . S
H1572 C1585 0.929 . S
H1573 C1583 0.929 . S
H1574 C1578 0.929 . S
H1575 C1584 0.929 . S
C1576 H1570 0.930 . S
C1576 C1577 1.367 . S
C1576 C1584 1.378 . S
C1577 C1576 1.367 . S
C1577 C1585 1.433 . S
C1578 H1574 0.929 . S
C1578 C1580 1.378 . S
C1578 C1582 1.350 . S
C1579 C1582 1.463 . S
C1579 C1584 1.350 . S
C1579 N1587 1.427 . S
C1580 H1571 0.930 . S
C1580 C1578 1.378 . S
C1580 C1581 1.367 . S
C1581 C1580 1.367 . S
C1581 C1583 1.433 . S
C1582 C1578 1.350 . S
C1582 C1579 1.463 . S
C1582 N1586 1.427 . S
C1583 H1573 0.929 . S
C1583 C1581 1.433 . S
C1583 N1586 1.384 . S
C1584 H1575 0.929 . S
C1584 C1576 1.378 . S
C1584 C1579 1.350 . S
C1585 H1572 0.929 . S
C1585 C1577 1.433 . S
C1585 N1587 1.384 . S
N1586 C1582 1.427 . S
N1586 C1583 1.384 . S
N1587 C1579 1.427 . S
N1587 C1585 1.384 . S
H1588 C1594 0.930 . S
H1589 C1598 0.930 . S
H1590 C1603 0.929 . S
H1591 C1601 0.929 . S
H1592 C1596 0.929 . S
H1593 C1602 0.929 . S
C1594 H1588 0.930 . S
C1594 C1595 1.367 . S
C1594 C1602 1.378 . S
C1595 C1594 1.367 . S
C1595 C1603 1.433 . S
C1596 H1592 0.929 . S
C1596 C1598 1.378 . S
C1596 C1600 1.350 . S
C1597 C1600 1.463 . S
C1597 C1602 1.350 . S
C1597 N1605 1.427 . S
C1598 H1589 0.930 . S
C1598 C1596 1.378 . S
C1598 C1599 1.367 . S
C1599 C1598 1.367 . S
C1599 C1601 1.433 . S
C1600 C1596 1.350 . S
C1600 C1597 1.463 . S
C1600 N1604 1.427 . S
C1601 H1591 0.929 . S
C1601 C1599 1.433 . S
C1601 N1604 1.384 . S
C1602 H1593 0.929 . S
C1602 C1594 1.378 . S
C1602 C1597 1.350 . S
C1603 H1590 0.929 . S
C1603 C1595 1.433 . S
C1603 N1605 1.384 . S
N1604 C1600 1.427 . S
N1604 C1601 1.384 . S
N1605 C1597 1.427 . S
N1605 C1603 1.384 . S
H1606 C1612 0.930 . S
H1607 C1616 0.930 . S
H1608 C1621 0.929 . S
H1609 C1619 0.929 . S
H1610 C1614 0.929 . S
H1611 C1620 0.929 . S
C1612 H1606 0.930 . S
C1612 C1613 1.367 . S
C1612 C1620 1.378 . S
C1613 C1612 1.367 . S
C1613 C1621 1.433 . S
C1614 H1610 0.929 . S
C1614 C1616 1.378 . S
C1614 C1618 1.350 . S
C1615 C1618 1.463 . S
C1615 C1620 1.350 . S
C1615 N1623 1.427 . S
C1616 H1607 0.930 . S
C1616 C1614 1.378 . S
C1616 C1617 1.367 . S
C1617 C1616 1.367 . S
C1617 C1619 1.433 . S
C1618 C1614 1.350 . S
C1618 C1615 1.463 . S
C1618 N1622 1.427 . S
C1619 H1609 0.929 . S
C1619 C1617 1.433 . S
C1619 N1622 1.384 . S
C1620 H1611 0.929 . S
C1620 C1612 1.378 . S
C1620 C1615 1.350 . S
C1621 H1608 0.929 . S
C1621 C1613 1.433 . S
C1621 N1623 1.384 . S
N1622 C1618 1.427 . S
N1622 C1619 1.384 . S
N1623 C1615 1.427 . S
N1623 C1621 1.384 . S
H1624 C1630 0.930 . S
H1625 C1634 0.930 . S
H1626 C1639 0.929 . S
H1627 C1637 0.929 . S
H1628 C1632 0.929 . S
H1629 C1638 0.929 . S
C1630 H1624 0.930 . S
C1630 C1631 1.367 . S
C1630 C1638 1.378 . S
C1631 C1630 1.367 . S
C1631 C1639 1.433 . S
C1632 H1628 0.929 . S
C1632 C1634 1.378 . S
C1632 C1636 1.350 . S
C1633 C1636 1.463 . S
C1633 C1638 1.350 . S
C1633 N1641 1.427 . S
C1634 H1625 0.930 . S
C1634 C1632 1.378 . S
C1634 C1635 1.367 . S
C1635 C1634 1.367 . S
C1635 C1637 1.433 . S
C1636 C1632 1.350 . S
C1636 C1633 1.463 . S
C1636 N1640 1.427 . S
C1637 H1627 0.929 . S
C1637 C1635 1.433 . S
C1637 N1640 1.384 . S
C1638 H1629 0.929 . S
C1638 C1630 1.378 . S
C1638 C1633 1.350 . S
C1639 H1626 0.929 . S
C1639 C1631 1.433 . S
C1639 N1641 1.384 . S
N1640 C1636 1.427 . S
N1640 C1637 1.384 . S
N1641 C1633 1.427 . S
N1641 C1639 1.384 . S
H1642 C1648 0.930 . S
H1643 C1652 0.930 . S
H1644 C1657 0.929 . S
H1645 C1655 0.929 . S
H1646 C1650 0.929 . S
H1647 C1656 0.929 . S
C1648 H1642 0.930 . S
C1648 C1649 1.367 . S
C1648 C1656 1.378 . S
C1649 C1648 1.367 . S
C1649 C1657 1.433 . S
C1650 H1646 0.929 . S
C1650 C1652 1.378 . S
C1650 C1654 1.350 . S
C1651 C1654 1.463 . S
C1651 C1656 1.350 . S
C1651 N1659 1.427 . S
C1652 H1643 0.930 . S
C1652 C1650 1.378 . S
C1652 C1653 1.367 . S
C1653 C1652 1.367 . S
C1653 C1655 1.433 . S
C1654 C1650 1.350 . S
C1654 C1651 1.463 . S
C1654 N1658 1.427 . S
C1655 H1645 0.929 . S
C1655 C1653 1.433 . S
C1655 N1658 1.384 . S
C1656 H1647 0.929 . S
C1656 C1648 1.378 . S
C1656 C1651 1.350 . S
C1657 H1644 0.929 . S
C1657 C1649 1.433 . S
C1657 N1659 1.384 . S
N1658 C1654 1.427 . S
N1658 C1655 1.384 . S
N1659 C1651 1.427 . S
N1659 C1657 1.384 . S
H1660 C1666 0.930 . S
H1661 C1670 0.930 . S
H1662 C1675 0.929 . S
H1663 C1673 0.929 . S
H1664 C1668 0.929 . S
H1665 C1674 0.929 . S
C1666 H1660 0.930 . S
C1666 C1667 1.367 . S
C1666 C1674 1.378 . S
C1667 C1666 1.367 . S
C1667 C1675 1.433 . S
C1668 H1664 0.929 . S
C1668 C1670 1.378 . S
C1668 C1672 1.350 . S
C1669 C1672 1.463 . S
C1669 C1674 1.350 . S
C1669 N1677 1.427 . S
C1670 H1661 0.930 . S
C1670 C1668 1.378 . S
C1670 C1671 1.367 . S
C1671 C1670 1.367 . S
C1671 C1673 1.433 . S
C1672 C1668 1.350 . S
C1672 C1669 1.463 . S
C1672 N1676 1.427 . S
C1673 H1663 0.929 . S
C1673 C1671 1.433 . S
C1673 N1676 1.384 . S
C1674 H1665 0.929 . S
C1674 C1666 1.378 . S
C1674 C1669 1.350 . S
C1675 H1662 0.929 . S
C1675 C1667 1.433 . S
C1675 N1677 1.384 . S
N1676 C1672 1.427 . S
N1676 C1673 1.384 . S
N1677 C1669 1.427 . S
N1677 C1675 1.384 . S
H1678 C1684 0.930 . S
H1679 C1688 0.930 . S
H1680 C1693 0.929 . S
H1681 C1691 0.929 . S
H1682 C1686 0.929 . S
H1683 C1692 0.929 . S
C1684 H1678 0.930 . S
C1684 C1685 1.367 . S
C1684 C1692 1.378 . S
C1685 C1684 1.367 . S
C1685 C1693 1.433 . S
C1686 H1682 0.929 . S
C1686 C1688 1.378 . S
C1686 C1690 1.350 . S
C1687 C1690 1.463 . S
C1687 C1692 1.350 . S
C1687 N1695 1.427 . S
C1688 H1679 0.930 . S
C1688 C1686 1.378 . S
C1688 C1689 1.367 . S
C1689 C1688 1.367 . S
C1689 C1691 1.433 . S
C1690 C1686 1.350 . S
C1690 C1687 1.463 . S
C1690 N1694 1.427 . S
C1691 H1681 0.929 . S
C1691 C1689 1.433 . S
C1691 N1694 1.384 . S
C1692 H1683 0.929 . S
C1692 C1684 1.378 . S
C1692 C1687 1.350 . S
C1693 H1680 0.929 . S
C1693 C1685 1.433 . S
C1693 N1695 1.384 . S
N1694 C1690 1.427 . S
N1694 C1691 1.384 . S
N1695 C1687 1.427 . S
N1695 C1693 1.384 . S
H1696 C1702 0.930 . S
H1697 C1706 0.930 . S
H1698 C1711 0.929 . S
H1699 C1709 0.929 . S
H1700 C1704 0.929 . S
H1701 C1710 0.929 . S
C1702 H1696 0.930 . S
C1702 C1703 1.367 1_554 S
C1702 C1710 1.378 . S
C1703 C1702 1.367 1_556 S
C1703 C1711 1.433 . S
C1704 H1700 0.929 . S
C1704 C1706 1.378 . S
C1704 C1708 1.350 . S
C1705 C1708 1.463 . S
C1705 C1710 1.350 1_556 S
C1705 N1713 1.427 . S
C1706 H1697 0.930 . S
C1706 C1704 1.378 . S
C1706 C1707 1.367 . S
C1707 C1706 1.367 . S
C1707 C1709 1.433 . S
C1708 C1704 1.350 . S
C1708 C1705 1.463 . S
C1708 N1712 1.427 . S
C1709 H1699 0.929 . S
C1709 C1707 1.433 . S
C1709 N1712 1.384 . S
C1710 H1701 0.929 . S
C1710 C1702 1.378 . S
C1710 C1705 1.350 1_554 S
C1711 H1698 0.929 . S
C1711 C1703 1.433 . S
C1711 N1713 1.384 . S
N1712 C1708 1.427 . S
N1712 C1709 1.384 . S
N1713 C1705 1.427 . S
N1713 C1711 1.384 . S
H1714 C1720 0.930 . S
H1715 C1724 0.930 1_556 S
H1716 C1729 0.929 1_556 S
H1717 C1727 0.929 . S
H1718 C1722 0.929 1_556 S
H1719 C1728 0.929 . S
C1720 H1714 0.930 . S
C1720 C1721 1.367 . S
C1720 C1728 1.378 . S
C1721 C1720 1.367 . S
C1721 C1729 1.433 . S
C1722 H1718 0.929 1_554 S
C1722 C1724 1.378 . S
C1722 C1726 1.350 . S
C1723 C1726 1.463 . S
C1723 C1728 1.350 . S
C1723 N1731 1.427 . S
C1724 H1715 0.930 1_554 S
C1724 C1722 1.378 . S
C1724 C1725 1.367 . S
C1725 C1724 1.367 . S
C1725 C1727 1.433 . S
C1726 C1722 1.350 . S
C1726 C1723 1.463 . S
C1726 N1730 1.427 . S
C1727 H1717 0.929 . S
C1727 C1725 1.433 . S
C1727 N1730 1.384 . S
C1728 H1719 0.929 . S
C1728 C1720 1.378 . S
C1728 C1723 1.350 . S
C1729 H1716 0.929 1_554 S
C1729 C1721 1.433 . S
C1729 N1731 1.384 . S
N1730 C1726 1.427 . S
N1730 C1727 1.384 . S
N1731 C1723 1.427 . S
N1731 C1729 1.384 . S
H1732 C1738 0.930 . S
H1733 C1742 0.930 . S
H1734 C1747 0.929 . S
H1735 C1745 0.929 . S
H1736 C1740 0.929 . S
H1737 C1746 0.929 . S
C1738 H1732 0.930 . S
C1738 C1739 1.367 . S
C1738 C1746 1.378 . S
C1739 C1738 1.367 . S
C1739 C1747 1.433 . S
C1740 H1736 0.929 . S
C1740 C1742 1.378 . S
C1740 C1744 1.350 . S
C1741 C1744 1.463 . S
C1741 C1746 1.350 . S
C1741 N1749 1.427 . S
C1742 H1733 0.930 . S
C1742 C1740 1.378 . S
C1742 C1743 1.367 . S
C1743 C1742 1.367 . S
C1743 C1745 1.433 . S
C1744 C1740 1.350 . S
C1744 C1741 1.463 . S
C1744 N1748 1.427 . S
C1745 H1735 0.929 . S
C1745 C1743 1.433 . S
C1745 N1748 1.384 . S
C1746 H1737 0.929 . S
C1746 C1738 1.378 . S
C1746 C1741 1.350 . S
C1747 H1734 0.929 . S
C1747 C1739 1.433 . S
C1747 N1749 1.384 . S
N1748 C1744 1.427 . S
N1748 C1745 1.384 . S
N1749 C1741 1.427 . S
N1749 C1747 1.384 . S
H1750 C1756 0.930 . S
H1751 C1760 0.930 . S
H1752 C1765 0.929 . S
H1753 C1763 0.929 . S
H1754 C1758 0.929 . S
H1755 C1764 0.929 . S
C1756 H1750 0.930 . S
C1756 C1757 1.367 . S
C1756 C1764 1.378 . S
C1757 C1756 1.367 . S
C1757 C1765 1.433 . S
C1758 H1754 0.929 . S
C1758 C1760 1.378 . S
C1758 C1762 1.350 . S
C1759 C1762 1.463 . S
C1759 C1764 1.350 . S
C1759 N1767 1.427 . S
C1760 H1751 0.930 . S
C1760 C1758 1.378 . S
C1760 C1761 1.367 . S
C1761 C1760 1.367 . S
C1761 C1763 1.433 . S
C1762 C1758 1.350 . S
C1762 C1759 1.463 . S
C1762 N1766 1.427 . S
C1763 H1753 0.929 . S
C1763 C1761 1.433 . S
C1763 N1766 1.384 . S
C1764 H1755 0.929 . S
C1764 C1756 1.378 . S
C1764 C1759 1.350 . S
C1765 H1752 0.929 . S
C1765 C1757 1.433 . S
C1765 N1767 1.384 . S
N1766 C1762 1.427 . S
N1766 C1763 1.384 . S
N1767 C1759 1.427 . S
N1767 C1765 1.384 . S
H1768 C1774 0.930 . S
H1769 C1778 0.930 . S
H1770 C1783 0.929 . S
H1771 C1781 0.929 . S
H1772 C1776 0.929 . S
H1773 C1782 0.929 . S
C1774 H1768 0.930 . S
C1774 C1775 1.367 . S
C1774 C1782 1.378 . S
C1775 C1774 1.367 . S
C1775 C1783 1.433 . S
C1776 H1772 0.929 . S
C1776 C1778 1.378 . S
C1776 C1780 1.350 . S
C1777 C1780 1.463 . S
C1777 C1782 1.350 . S
C1777 N1785 1.427 . S
C1778 H1769 0.930 . S
C1778 C1776 1.378 . S
C1778 C1779 1.367 . S
C1779 C1778 1.367 . S
C1779 C1781 1.433 . S
C1780 C1776 1.350 . S
C1780 C1777 1.463 . S
C1780 N1784 1.427 . S
C1781 H1771 0.929 . S
C1781 C1779 1.433 . S
C1781 N1784 1.384 . S
C1782 H1773 0.929 . S
C1782 C1774 1.378 . S
C1782 C1777 1.350 . S
C1783 H1770 0.929 . S
C1783 C1775 1.433 . S
C1783 N1785 1.384 . S
N1784 C1780 1.427 . S
N1784 C1781 1.384 . S
N1785 C1777 1.427 . S
N1785 C1783 1.384 . S
H1786 C1792 0.930 . S
H1787 C1796 0.930 . S
H1788 C1801 0.929 . S
H1789 C1799 0.929 1_545 S
H1790 C1794 0.929 . S
H1791 C1800 0.929 . S
C1792 H1786 0.930 . S
C1792 C1793 1.367 . S
C1792 C1800 1.378 . S
C1793 C1792 1.367 . S
C1793 C1801 1.433 . S
C1794 H1790 0.929 . S
C1794 C1796 1.378 . S
C1794 C1798 1.350 . S
C1795 C1798 1.463 . S
C1795 C1800 1.350 . S
C1795 N1803 1.427 . S
C1796 H1787 0.930 . S
C1796 C1794 1.378 . S
C1796 C1797 1.392 . S
C1797 C1796 1.392 . S
C1797 C1799 1.438 . S
C1798 C1794 1.350 . S
C1798 C1795 1.463 . S
C1798 N1802 1.427 . S
C1799 H1789 0.929 1_565 S
C1799 C1797 1.438 . S
C1799 N1802 1.384 . S
C1800 H1791 0.929 . S
C1800 C1792 1.378 . S
C1800 C1795 1.350 . S
C1801 H1788 0.929 . S
C1801 C1793 1.433 . S
C1801 N1803 1.384 . S
N1802 C1798 1.427 . S
N1802 C1799 1.384 . S
N1803 C1795 1.427 . S
N1803 C1801 1.384 . S
H1804 C1810 0.930 . S
H1805 C1814 0.930 . S
H1806 C1819 0.929 . S
H1807 C1817 0.929 . S
H1808 C1812 0.929 . S
H1809 C1818 0.929 . S
C1810 H1804 0.930 . S
C1810 C1811 1.367 . S
C1810 C1818 1.378 . S
C1811 C1810 1.367 . S
C1811 C1819 1.433 . S
C1812 H1808 0.929 . S
C1812 C1814 1.378 . S
C1812 C1816 1.350 . S
C1813 C1816 1.463 . S
C1813 C1818 1.350 . S
C1813 N1821 1.427 . S
C1814 H1805 0.930 . S
C1814 C1812 1.378 . S
C1814 C1815 1.367 . S
C1815 C1814 1.367 . S
C1815 C1817 1.433 . S
C1816 C1812 1.350 . S
C1816 C1813 1.463 . S
C1816 N1820 1.427 . S
C1817 H1807 0.929 . S
C1817 C1815 1.433 . S
C1817 N1820 1.384 . S
C1818 H1809 0.929 . S
C1818 C1810 1.378 . S
C1818 C1813 1.350 . S
C1819 H1806 0.929 . S
C1819 C1811 1.433 . S
C1819 N1821 1.384 . S
N1820 C1816 1.427 . S
N1820 C1817 1.384 . S
N1821 C1813 1.427 . S
N1821 C1819 1.384 . S
H1822 C1828 0.930 . S
H1823 C1832 0.930 . S
H1824 C1837 0.929 . S
H1825 C1835 0.929 . S
H1826 C1830 0.929 . S
H1827 C1836 0.929 . S
C1828 H1822 0.930 . S
C1828 C1829 1.367 . S
C1828 C1836 1.378 . S
C1829 C1828 1.367 . S
C1829 C1837 1.433 . S
C1830 H1826 0.929 . S
C1830 C1832 1.378 . S
C1830 C1834 1.350 . S
C1831 C1834 1.463 . S
C1831 C1836 1.350 . S
C1831 N1839 1.427 . S
C1832 H1823 0.930 . S
C1832 C1830 1.378 . S
C1832 C1833 1.367 . S
C1833 C1832 1.367 . S
C1833 C1835 1.433 . S
C1834 C1830 1.350 . S
C1834 C1831 1.463 . S
C1834 N1838 1.427 . S
C1835 H1825 0.929 . S
C1835 C1833 1.433 . S
C1835 N1838 1.384 . S
C1836 H1827 0.929 . S
C1836 C1828 1.378 . S
C1836 C1831 1.350 . S
C1837 H1824 0.929 . S
C1837 C1829 1.433 . S
C1837 N1839 1.384 . S
N1838 C1834 1.427 . S
N1838 C1835 1.384 . S
N1839 C1831 1.427 . S
N1839 C1837 1.384 . S
H1840 C1846 0.930 . S
H1841 C1850 0.930 . S
H1842 C1855 0.929 . S
H1843 C1853 0.929 . S
H1844 C1848 0.929 . S
H1845 C1854 0.929 . S
C1846 H1840 0.930 . S
C1846 C1847 1.367 . S
C1846 C1854 1.378 . S
C1847 C1846 1.367 . S
C1847 C1855 1.433 . S
C1848 H1844 0.929 . S
C1848 C1850 1.378 . S
C1848 C1852 1.350 . S
C1849 C1852 1.463 . S
C1849 C1854 1.350 . S
C1849 N1857 1.427 . S
C1850 H1841 0.930 . S
C1850 C1848 1.378 . S
C1850 C1851 1.367 . S
C1851 C1850 1.367 . S
C1851 C1853 1.433 . S
C1852 C1848 1.350 . S
C1852 C1849 1.463 . S
C1852 N1856 1.427 . S
C1853 H1843 0.929 . S
C1853 C1851 1.433 . S
C1853 N1856 1.384 . S
C1854 H1845 0.929 . S
C1854 C1846 1.378 . S
C1854 C1849 1.350 . S
C1855 H1842 0.929 . S
C1855 C1847 1.433 . S
C1855 N1857 1.384 . S
N1856 C1852 1.427 . S
N1856 C1853 1.384 . S
N1857 C1849 1.427 . S
N1857 C1855 1.384 . S
H1858 C1864 0.930 . S
H1859 C1868 0.930 . S
H1860 C1873 0.929 . S
H1861 C1871 0.929 . S
H1862 C1866 0.929 . S
H1863 C1872 0.929 . S
C1864 H1858 0.930 . S
C1864 C1865 1.367 . S
C1864 C1872 1.378 . S
C1865 C1864 1.367 . S
C1865 C1873 1.433 . S
C1866 H1862 0.929 . S
C1866 C1868 1.378 . S
C1866 C1870 1.350 . S
C1867 C1870 1.463 . S
C1867 C1872 1.350 . S
C1867 N1875 1.427 . S
C1868 H1859 0.930 . S
C1868 C1866 1.378 . S
C1868 C1869 1.367 . S
C1869 C1868 1.367 . S
C1869 C1871 1.433 . S
C1870 C1866 1.350 . S
C1870 C1867 1.463 . S
C1870 N1874 1.427 . S
C1871 H1861 0.929 . S
C1871 C1869 1.433 . S
C1871 N1874 1.384 . S
C1872 H1863 0.929 . S
C1872 C1864 1.378 . S
C1872 C1867 1.350 . S
C1873 H1860 0.929 . S
C1873 C1865 1.433 . S
C1873 N1875 1.384 . S
N1874 C1870 1.427 . S
N1874 C1871 1.384 . S
N1875 C1867 1.427 . S
N1875 C1873 1.384 . S
H1876 C1882 0.930 . S
H1877 C1886 0.930 . S
H1878 C1891 0.929 . S
H1879 C1889 0.929 1_655 S
H1880 C1884 0.929 . S
H1881 C1890 0.929 . S
C1882 H1876 0.930 . S
C1882 C1883 1.367 1_655 S
C1882 C1890 1.378 . S
C1883 C1882 1.367 1_455 S
C1883 C1891 1.433 . S
C1884 H1880 0.929 . S
C1884 C1886 1.378 . S
C1884 C1888 1.350 . S
C1885 C1888 1.463 . S
C1885 C1890 1.350 1_455 S
C1885 N1893 1.427 . S
C1886 H1877 0.930 . S
C1886 C1884 1.378 . S
C1886 C1887 1.367 . S
C1887 C1886 1.367 . S
C1887 C1889 1.433 . S
C1888 C1884 1.350 . S
C1888 C1885 1.463 . S
C1888 N1892 1.469 . S
C1889 H1879 0.929 1_455 S
C1889 C1887 1.433 . S
C1889 N1892 1.379 . S
C1890 H1881 0.929 . S
C1890 C1882 1.378 . S
C1890 C1885 1.350 1_655 S
C1891 H1878 0.929 . S
C1891 C1883 1.433 . S
C1891 N1893 1.384 . S
N1892 C1888 1.469 . S
N1892 C1889 1.379 . S
N1893 C1885 1.427 . S
N1893 C1891 1.384 . S
H1894 C1900 0.930 . S
H1895 C1904 0.930 . S
H1896 C1909 0.929 . S
H1897 C1907 0.929 . S
H1898 C1902 0.968 . S
H1899 C1908 0.929 . S
C1900 H1894 0.930 . S
C1900 C1901 1.367 . S
C1900 C1908 1.378 . S
C1901 C1900 1.367 . S
C1901 C1909 1.433 . S
C1902 H1898 0.968 . S
C1902 C1904 1.378 . S
C1902 C1906 1.350 . S
C1903 C1906 1.463 1_455 S
C1903 C1908 1.350 . S
C1903 N1911 1.427 . S
C1904 H1895 0.930 . S
C1904 C1902 1.378 . S
C1904 C1905 1.367 . S
C1905 C1904 1.367 . S
C1905 C1907 1.433 . S
C1906 C1902 1.350 . S
C1906 C1903 1.463 1_655 S
C1906 N1910 1.427 . S
C1907 H1897 0.929 . S
C1907 C1905 1.433 . S
C1907 N1910 1.384 . S
C1908 H1899 0.929 . S
C1908 C1900 1.378 . S
C1908 C1903 1.350 . S
C1909 H1896 0.929 . S
C1909 C1901 1.433 . S
C1909 N1911 1.384 . S
N1910 C1906 1.427 . S
N1910 C1907 1.384 . S
N1911 C1903 1.427 . S
N1911 C1909 1.384 . S
H1912 C1918 0.930 . S
H1913 C1922 0.930 . S
H1914 C1927 0.929 . S
H1915 C1925 0.929 . S
H1916 C1920 0.929 . S
H1917 C1926 0.929 . S
C1918 H1912 0.930 . S
C1918 C1919 1.367 . S
C1918 C1926 1.378 . S
C1919 C1918 1.367 . S
C1919 C1927 1.433 . S
C1920 H1916 0.929 . S
C1920 C1922 1.378 . S
C1920 C1924 1.350 . S
C1921 C1924 1.463 . S
C1921 C1926 1.350 . S
C1921 N1929 1.427 . S
C1922 H1913 0.930 . S
C1922 C1920 1.378 . S
C1922 C1923 1.367 . S
C1923 C1922 1.367 . S
C1923 C1925 1.433 . S
C1924 C1920 1.350 . S
C1924 C1921 1.463 . S
C1924 N1928 1.427 . S
C1925 H1915 0.929 . S
C1925 C1923 1.433 . S
C1925 N1928 1.384 . S
C1926 H1917 0.929 . S
C1926 C1918 1.378 . S
C1926 C1921 1.350 . S
C1927 H1914 0.929 . S
C1927 C1919 1.433 . S
C1927 N1929 1.384 . S
N1928 C1924 1.427 . S
N1928 C1925 1.384 . S
N1929 C1921 1.427 . S
N1929 C1927 1.384 . S
H1930 C1936 0.930 . S
H1931 C1940 0.930 . S
H1932 C1945 0.929 . S
H1933 C1943 0.929 . S
H1934 C1938 0.929 . S
H1935 C1944 0.929 . S
C1936 H1930 0.930 . S
C1936 C1937 1.367 . S
C1936 C1944 1.378 . S
C1937 C1936 1.367 . S
C1937 C1945 1.433 . S
C1938 H1934 0.929 . S
C1938 C1940 1.378 . S
C1938 C1942 1.350 . S
C1939 C1942 1.463 . S
C1939 C1944 1.350 . S
C1939 N1947 1.427 . S
C1940 H1931 0.930 . S
C1940 C1938 1.378 . S
C1940 C1941 1.367 . S
C1941 C1940 1.367 . S
C1941 C1943 1.433 . S
C1942 C1938 1.350 . S
C1942 C1939 1.463 . S
C1942 N1946 1.427 . S
C1943 H1933 0.929 . S
C1943 C1941 1.433 . S
C1943 N1946 1.384 . S
C1944 H1935 0.929 . S
C1944 C1936 1.378 . S
C1944 C1939 1.350 . S
C1945 H1932 0.929 . S
C1945 C1937 1.433 . S
C1945 N1947 1.384 . S
N1946 C1942 1.427 . S
N1946 C1943 1.384 . S
N1947 C1939 1.427 . S
N1947 C1945 1.384 . S
H1948 C1954 0.930 . S
H1949 C1958 0.930 . S
H1950 C1963 0.929 . S
H1951 C1961 0.929 . S
H1952 C1956 0.929 . S
H1953 C1962 0.929 . S
C1954 H1948 0.930 . S
C1954 C1955 1.367 . S
C1954 C1962 1.378 . S
C1955 C1954 1.367 . S
C1955 C1963 1.433 . S
C1956 H1952 0.929 . S
C1956 C1958 1.378 . S
C1956 C1960 1.350 . S
C1957 C1960 1.463 . S
C1957 C1962 1.350 . S
C1957 N1965 1.427 . S
C1958 H1949 0.930 . S
C1958 C1956 1.378 . S
C1958 C1959 1.367 . S
C1959 C1958 1.367 . S
C1959 C1961 1.433 . S
C1960 C1956 1.350 . S
C1960 C1957 1.463 . S
C1960 N1964 1.427 . S
C1961 H1951 0.929 . S
C1961 C1959 1.433 . S
C1961 N1964 1.384 . S
C1962 H1953 0.929 . S
C1962 C1954 1.378 . S
C1962 C1957 1.350 . S
C1963 H1950 0.929 . S
C1963 C1955 1.433 . S
C1963 N1965 1.384 . S
N1964 C1960 1.427 . S
N1964 C1961 1.384 . S
N1965 C1957 1.427 . S
N1965 C1963 1.384 . S
H1966 C1972 0.930 . S
H1967 C1976 0.930 . S
H1968 C1981 0.929 . S
H1969 C1979 0.929 . S
H1970 C1974 0.929 . S
H1971 C1980 0.929 . S
C1972 H1966 0.930 . S
C1972 C1973 1.367 . S
C1972 C1980 1.378 . S
C1973 C1972 1.367 . S
C1973 C1981 1.433 . S
C1974 H1970 0.929 . S
C1974 C1976 1.378 . S
C1974 C1978 1.350 . S
C1975 C1978 1.463 . S
C1975 C1980 1.350 . S
C1975 N1983 1.427 . S
C1976 H1967 0.930 . S
C1976 C1974 1.378 . S
C1976 C1977 1.367 . S
C1977 C1976 1.367 . S
C1977 C1979 1.433 . S
C1978 C1974 1.350 . S
C1978 C1975 1.463 . S
C1978 N1982 1.427 . S
C1979 H1969 0.929 . S
C1979 C1977 1.433 . S
C1979 N1982 1.384 . S
C1980 H1971 0.929 . S
C1980 C1972 1.378 . S
C1980 C1975 1.350 . S
C1981 H1968 0.929 . S
C1981 C1973 1.433 . S
C1981 N1983 1.384 . S
N1982 C1978 1.427 . S
N1982 C1979 1.384 . S
N1983 C1975 1.427 . S
N1983 C1981 1.384 . S
H1984 C1990 0.930 . S
H1985 C1994 0.930 . S
H1986 C1999 0.929 . S
H1987 C1997 0.929 . S
H1988 C1992 0.929 . S
H1989 C1998 0.929 . S
C1990 H1984 0.930 . S
C1990 C1991 1.367 . S
C1990 C1998 1.378 . S
C1991 C1990 1.367 . S
C1991 C1999 1.433 . S
C1992 H1988 0.929 . S
C1992 C1994 1.378 . S
C1992 C1996 1.350 . S
C1993 C1996 1.463 . S
C1993 C1998 1.350 . S
C1993 N2001 1.427 . S
C1994 H1985 0.930 . S
C1994 C1992 1.378 . S
C1994 C1995 1.367 . S
C1995 C1994 1.367 . S
C1995 C1997 1.433 . S
C1996 C1992 1.350 . S
C1996 C1993 1.463 . S
C1996 N2000 1.427 . S
C1997 H1987 0.929 . S
C1997 C1995 1.433 . S
C1997 N2000 1.384 . S
C1998 H1989 0.929 . S
C1998 C1990 1.378 . S
C1998 C1993 1.350 . S
C1999 H1986 0.929 . S
C1999 C1991 1.433 . S
C1999 N2001 1.384 . S
N2000 C1996 1.427 . S
N2000 C1997 1.384 . S
N2001 C1993 1.427 . S
N2001 C1999 1.384 . S
H2002 C2008 0.930 . S
H2003 C2012 0.930 . S
H2004 C2017 0.929 . S
H2005 C2015 0.929 . S
H2006 C2010 0.929 . S
H2007 C2016 0.929 . S
C2008 H2002 0.930 . S
C2008 C2009 1.367 . S
C2008 C2016 1.378 . S
C2009 C2008 1.367 . S
C2009 C2017 1.433 . S
C2010 H2006 0.929 . S
C2010 C2012 1.378 . S
C2010 C2014 1.350 . S
C2011 C2014 1.463 . S
C2011 C2016 1.350 . S
C2011 N2019 1.427 . S
C2012 H2003 0.930 . S
C2012 C2010 1.378 . S
C2012 C2013 1.367 . S
C2013 C2012 1.367 . S
C2013 C2015 1.433 . S
C2014 C2010 1.350 . S
C2014 C2011 1.463 . S
C2014 N2018 1.427 . S
C2015 H2005 0.929 . S
C2015 C2013 1.433 . S
C2015 N2018 1.384 . S
C2016 H2007 0.929 . S
C2016 C2008 1.378 . S
C2016 C2011 1.350 . S
C2017 H2004 0.929 . S
C2017 C2009 1.433 . S
C2017 N2019 1.384 . S
N2018 C2014 1.427 . S
N2018 C2015 1.384 . S
N2019 C2011 1.427 . S
N2019 C2017 1.384 . S
H2020 C2026 0.930 . S
H2021 C2030 0.930 . S
H2022 C2035 0.929 . S
H2023 C2033 0.929 . S
H2024 C2028 0.929 . S
H2025 C2034 0.929 . S
C2026 H2020 0.930 . S
C2026 C2027 1.367 . S
C2026 C2034 1.378 . S
C2027 C2026 1.367 . S
C2027 C2035 1.433 . S
C2028 H2024 0.929 . S
C2028 C2030 1.378 . S
C2028 C2032 1.350 . S
C2029 C2032 1.463 . S
C2029 C2034 1.350 . S
C2029 N2037 1.427 . S
C2030 H2021 0.930 . S
C2030 C2028 1.378 . S
C2030 C2031 1.367 . S
C2031 C2030 1.367 . S
C2031 C2033 1.433 . S
C2032 C2028 1.350 . S
C2032 C2029 1.463 . S
C2032 N2036 1.427 . S
C2033 H2023 0.929 . S
C2033 C2031 1.433 . S
C2033 N2036 1.384 . S
C2034 H2025 0.929 . S
C2034 C2026 1.378 . S
C2034 C2029 1.350 . S
C2035 H2022 0.929 . S
C2035 C2027 1.433 . S
C2035 N2037 1.384 . S
N2036 C2032 1.427 . S
N2036 C2033 1.384 . S
N2037 C2029 1.427 . S
N2037 C2035 1.384 . S
H2038 C2044 0.930 . S
H2039 C2048 0.930 . S
H2040 C2053 0.929 . S
H2041 C2051 0.929 . S
H2042 C2046 0.929 . S
H2043 C2052 0.929 . S
C2044 H2038 0.930 . S
C2044 C2045 1.367 . S
C2044 C2052 1.378 . S
C2045 C2044 1.367 . S
C2045 C2053 1.433 . S
C2046 H2042 0.929 . S
C2046 C2048 1.378 . S
C2046 C2050 1.350 . S
C2047 C2050 1.463 . S
C2047 C2052 1.350 . S
C2047 N2055 1.427 . S
C2048 H2039 0.930 . S
C2048 C2046 1.378 . S
C2048 C2049 1.367 . S
C2049 C2048 1.367 . S
C2049 C2051 1.433 . S
C2050 C2046 1.350 . S
C2050 C2047 1.463 . S
C2050 N2054 1.427 . S
C2051 H2041 0.929 . S
C2051 C2049 1.433 . S
C2051 N2054 1.384 . S
C2052 H2043 0.929 . S
C2052 C2044 1.378 . S
C2052 C2047 1.350 . S
C2053 H2040 0.929 . S
C2053 C2045 1.433 . S
C2053 N2055 1.384 . S
N2054 C2050 1.427 . S
N2054 C2051 1.384 . S
N2055 C2047 1.427 . S
N2055 C2053 1.384 . S
H2056 C2062 0.930 . S
H2057 C2066 0.930 . S
H2058 C2071 0.929 . S
H2059 C2069 0.929 . S
H2060 C2064 0.929 . S
H2061 C2070 0.929 . S
C2062 H2056 0.930 . S
C2062 C2063 1.367 . S
C2062 C2070 1.378 . S
C2063 C2062 1.367 . S
C2063 C2071 1.433 . S
C2064 H2060 0.929 . S
C2064 C2066 1.378 . S
C2064 C2068 1.350 . S
C2065 C2068 1.463 . S
C2065 C2070 1.350 . S
C2065 N2073 1.427 . S
C2066 H2057 0.930 . S
C2066 C2064 1.378 . S
C2066 C2067 1.367 . S
C2067 C2066 1.367 . S
C2067 C2069 1.433 . S
C2068 C2064 1.350 . S
C2068 C2065 1.463 . S
C2068 N2072 1.427 . S
C2069 H2059 0.929 . S
C2069 C2067 1.433 . S
C2069 N2072 1.384 . S
C2070 H2061 0.929 . S
C2070 C2062 1.378 . S
C2070 C2065 1.350 . S
C2071 H2058 0.929 . S
C2071 C2063 1.433 . S
C2071 N2073 1.384 . S
N2072 C2068 1.427 . S
N2072 C2069 1.384 . S
N2073 C2065 1.427 . S
N2073 C2071 1.384 . S
H2074 C2080 0.930 . S
H2075 C2084 0.930 . S
H2076 C2089 0.929 . S
H2077 C2087 0.929 . S
H2078 C2082 0.929 . S
H2079 C2088 0.929 . S
C2080 H2074 0.930 . S
C2080 C2081 1.367 . S
C2080 C2088 1.378 . S
C2081 C2080 1.367 . S
C2081 C2089 1.433 . S
C2082 H2078 0.929 . S
C2082 C2084 1.378 . S
C2082 C2086 1.350 . S
C2083 C2086 1.463 . S
C2083 C2088 1.350 . S
C2083 N2091 1.427 . S
C2084 H2075 0.930 . S
C2084 C2082 1.378 . S
C2084 C2085 1.367 . S
C2085 C2084 1.367 . S
C2085 C2087 1.433 . S
C2086 C2082 1.350 . S
C2086 C2083 1.463 . S
C2086 N2090 1.427 . S
C2087 H2077 0.929 . S
C2087 C2085 1.433 . S
C2087 N2090 1.384 . S
C2088 H2079 0.929 . S
C2088 C2080 1.378 . S
C2088 C2083 1.350 . S
C2089 H2076 0.929 . S
C2089 C2081 1.433 . S
C2089 N2091 1.384 . S
N2090 C2086 1.427 . S
N2090 C2087 1.384 . S
N2091 C2083 1.427 . S
N2091 C2089 1.384 . S
H2092 C2098 0.930 . S
H2093 C2102 0.930 . S
H2094 C2107 0.929 . S
H2095 C2105 0.929 . S
H2096 C2100 0.929 . S
H2097 C2106 0.929 . S
C2098 H2092 0.930 . S
C2098 C2099 1.367 . S
C2098 C2106 1.378 . S
C2099 C2098 1.367 . S
C2099 C2107 1.433 . S
C2100 H2096 0.929 . S
C2100 C2102 1.378 . S
C2100 C2104 1.350 . S
C2101 C2104 1.463 . S
C2101 C2106 1.350 . S
C2101 N2109 1.427 . S
C2102 H2093 0.930 . S
C2102 C2100 1.378 . S
C2102 C2103 1.367 . S
C2103 C2102 1.367 . S
C2103 C2105 1.433 . S
C2104 C2100 1.350 . S
C2104 C2101 1.463 . S
C2104 N2108 1.427 . S
C2105 H2095 0.929 . S
C2105 C2103 1.433 . S
C2105 N2108 1.384 . S
C2106 H2097 0.929 . S
C2106 C2098 1.378 . S
C2106 C2101 1.350 . S
C2107 H2094 0.929 . S
C2107 C2099 1.433 . S
C2107 N2109 1.384 . S
N2108 C2104 1.427 . S
N2108 C2105 1.384 . S
N2109 C2101 1.427 . S
N2109 C2107 1.384 . S
H2110 C2116 0.930 . S
H2111 C2120 0.930 . S
H2112 C2125 0.929 . S
H2113 C2123 0.929 . S
H2114 C2118 0.929 . S
H2115 C2124 0.929 . S
C2116 H2110 0.930 . S
C2116 C2117 1.367 . S
C2116 C2124 1.378 . S
C2117 C2116 1.367 . S
C2117 C2125 1.433 . S
C2118 H2114 0.929 . S
C2118 C2120 1.378 . S
C2118 C2122 1.350 . S
C2119 C2122 1.463 . S
C2119 C2124 1.350 . S
C2119 N2127 1.427 . S
C2120 H2111 0.930 . S
C2120 C2118 1.378 . S
C2120 C2121 1.367 . S
C2121 C2120 1.367 . S
C2121 C2123 1.433 . S
C2122 C2118 1.350 . S
C2122 C2119 1.463 . S
C2122 N2126 1.427 . S
C2123 H2113 0.929 . S
C2123 C2121 1.433 . S
C2123 N2126 1.384 . S
C2124 H2115 0.929 . S
C2124 C2116 1.378 . S
C2124 C2119 1.350 . S
C2125 H2112 0.929 . S
C2125 C2117 1.433 . S
C2125 N2127 1.384 . S
N2126 C2122 1.427 . S
N2126 C2123 1.384 . S
N2127 C2119 1.427 . S
N2127 C2125 1.384 . S
H2128 C2134 0.930 . S
H2129 C2138 0.930 . S
H2130 C2143 0.929 . S
H2131 C2141 0.929 . S
H2132 C2136 0.929 . S
H2133 C2142 0.929 . S
C2134 H2128 0.930 . S
C2134 C2135 1.367 . S
C2134 C2142 1.378 . S
C2135 C2134 1.367 . S
C2135 C2143 1.433 . S
C2136 H2132 0.929 . S
C2136 C2138 1.378 . S
C2136 C2140 1.350 . S
C2137 C2140 1.463 . S
C2137 C2142 1.350 . S
C2137 N2145 1.427 . S
C2138 H2129 0.930 . S
C2138 C2136 1.378 . S
C2138 C2139 1.367 . S
C2139 C2138 1.367 . S
C2139 C2141 1.433 . S
C2140 C2136 1.350 . S
C2140 C2137 1.463 . S
C2140 N2144 1.427 . S
C2141 H2131 0.929 . S
C2141 C2139 1.433 . S
C2141 N2144 1.384 . S
C2142 H2133 0.929 . S
C2142 C2134 1.378 . S
C2142 C2137 1.350 . S
C2143 H2130 0.929 . S
C2143 C2135 1.433 . S
C2143 N2145 1.384 . S
N2144 C2140 1.427 . S
N2144 C2141 1.384 . S
N2145 C2137 1.427 . S
N2145 C2143 1.384 . S
H2146 C2152 0.930 . S
H2147 C2156 0.930 . S
H2148 C2161 0.929 . S
H2149 C2159 0.929 . S
H2150 C2154 0.929 . S
H2151 C2160 0.929 . S
C2152 H2146 0.930 . S
C2152 C2153 1.367 . S
C2152 C2160 1.378 . S
C2153 C2152 1.367 . S
C2153 C2161 1.433 . S
C2154 H2150 0.929 . S
C2154 C2156 1.378 . S
C2154 C2158 1.350 . S
C2155 C2158 1.463 . S
C2155 C2160 1.350 . S
C2155 N2163 1.427 . S
C2156 H2147 0.930 . S
C2156 C2154 1.378 . S
C2156 C2157 1.367 . S
C2157 C2156 1.367 . S
C2157 C2159 1.433 . S
C2158 C2154 1.350 . S
C2158 C2155 1.463 . S
C2158 N2162 1.427 . S
C2159 H2149 0.929 . S
C2159 C2157 1.433 . S
C2159 N2162 1.384 . S
C2160 H2151 0.929 . S
C2160 C2152 1.378 . S
C2160 C2155 1.350 . S
C2161 H2148 0.929 . S
C2161 C2153 1.433 . S
C2161 N2163 1.384 . S
N2162 C2158 1.427 . S
N2162 C2159 1.384 . S
N2163 C2155 1.427 . S
N2163 C2161 1.384 . S
H2164 C2170 0.930 . S
H2165 C2174 0.930 . S
H2166 C2179 0.929 . S
H2167 C2177 0.929 . S
H2168 C2172 0.929 . S
H2169 C2178 0.929 . S
C2170 H2164 0.930 . S
C2170 C2171 1.367 . S
C2170 C2178 1.378 1_545 S
C2171 C2170 1.367 . S
C2171 C2179 1.433 . S
C2172 H2168 0.929 . S
C2172 C2174 1.378 . S
C2172 C2176 1.350 . S
C2173 C2176 1.463 . S
C2173 C2178 1.350 . S
C2173 N2181 1.427 1_565 S
C2174 H2165 0.930 . S
C2174 C2172 1.378 . S
C2174 C2175 1.367 . S
C2175 C2174 1.367 . S
C2175 C2177 1.433 . S
C2176 C2172 1.350 . S
C2176 C2173 1.463 . S
C2176 N2180 1.427 . S
C2177 H2167 0.929 . S
C2177 C2175 1.433 . S
C2177 N2180 1.384 . S
C2178 H2169 0.929 . S
C2178 C2170 1.378 1_565 S
C2178 C2173 1.350 . S
C2179 H2166 0.929 . S
C2179 C2171 1.433 . S
C2179 N2181 1.384 . S
N2180 C2176 1.427 . S
N2180 C2177 1.384 . S
N2181 C2173 1.427 1_545 S
N2181 C2179 1.384 . S
H2182 C2188 0.930 . S
H2183 C2192 0.930 . S
H2184 C2197 0.929 . S
H2185 C2195 0.929 . S
H2186 C2190 0.929 . S
H2187 C2196 0.929 . S
C2188 H2182 0.930 . S
C2188 C2189 1.367 . S
C2188 C2196 1.378 . S
C2189 C2188 1.367 . S
C2189 C2197 1.433 . S
C2190 H2186 0.929 . S
C2190 C2192 1.378 . S
C2190 C2194 1.350 . S
C2191 C2194 1.463 . S
C2191 C2196 1.350 . S
C2191 N2199 1.427 . S
C2192 H2183 0.930 . S
C2192 C2190 1.378 . S
C2192 C2193 1.367 1_565 S
C2193 C2192 1.367 1_545 S
C2193 C2195 1.433 . S
C2194 C2190 1.350 . S
C2194 C2191 1.463 . S
C2194 N2198 1.427 . S
C2195 H2185 0.929 . S
C2195 C2193 1.433 . S
C2195 N2198 1.384 1_545 S
C2196 H2187 0.929 . S
C2196 C2188 1.378 . S
C2196 C2191 1.350 . S
C2197 H2184 0.929 . S
C2197 C2189 1.433 . S
C2197 N2199 1.384 . S
N2198 C2194 1.427 . S
N2198 C2195 1.384 1_565 S
N2199 C2191 1.427 . S
N2199 C2197 1.384 . S
H2200 C2206 0.930 . S
H2201 C2210 0.930 . S
H2202 C2215 0.929 . S
H2203 C2213 0.929 . S
H2204 C2208 0.929 . S
H2205 C2214 0.929 . S
C2206 H2200 0.930 . S
C2206 C2207 1.367 . S
C2206 C2214 1.378 . S
C2207 C2206 1.367 . S
C2207 C2215 1.433 . S
C2208 H2204 0.929 . S
C2208 C2210 1.378 . S
C2208 C2212 1.350 . S
C2209 C2212 1.463 . S
C2209 C2214 1.350 . S
C2209 N2217 1.427 . S
C2210 H2201 0.930 . S
C2210 C2208 1.378 . S
C2210 C2211 1.367 . S
C2211 C2210 1.367 . S
C2211 C2213 1.433 . S
C2212 C2208 1.350 . S
C2212 C2209 1.463 . S
C2212 N2216 1.427 . S
C2213 H2203 0.929 . S
C2213 C2211 1.433 . S
C2213 N2216 1.384 . S
C2214 H2205 0.929 . S
C2214 C2206 1.378 . S
C2214 C2209 1.350 . S
C2215 H2202 0.929 . S
C2215 C2207 1.433 . S
C2215 N2217 1.384 . S
N2216 C2212 1.427 . S
N2216 C2213 1.384 . S
N2217 C2209 1.427 . S
N2217 C2215 1.384 . S
H2218 C2224 0.930 . S
H2219 C2228 0.930 1_556 S
H2220 C2233 0.929 1_556 S
H2221 C2231 0.929 . S
H2222 C2226 0.929 1_556 S
H2223 C2232 0.929 . S
C2224 H2218 0.930 . S
C2224 C2225 1.367 . S
C2224 C2232 1.378 . S
C2225 C2224 1.367 . S
C2225 C2233 1.433 . S
C2226 H2222 0.929 1_554 S
C2226 C2228 1.378 . S
C2226 C2230 1.350 . S
C2227 C2230 1.463 . S
C2227 C2232 1.350 . S
C2227 N2235 1.427 . S
C2228 H2219 0.930 1_554 S
C2228 C2226 1.378 . S
C2228 C2229 1.367 . S
C2229 C2228 1.367 . S
C2229 C2231 1.433 . S
C2230 C2226 1.350 . S
C2230 C2227 1.463 . S
C2230 N2234 1.427 . S
C2231 H2221 0.929 . S
C2231 C2229 1.433 . S
C2231 N2234 1.384 . S
C2232 H2223 0.929 . S
C2232 C2224 1.378 . S
C2232 C2227 1.350 . S
C2233 H2220 0.929 1_554 S
C2233 C2225 1.433 . S
C2233 N2235 1.384 . S
N2234 C2230 1.427 . S
N2234 C2231 1.384 . S
N2235 C2227 1.427 . S
N2235 C2233 1.384 . S
H2236 C2242 0.930 . S
H2237 C2246 0.930 . S
H2238 C2251 0.929 . S
H2239 C2249 0.929 . S
H2240 C2244 0.929 . S
H2241 C2250 0.929 . S
C2242 H2236 0.930 . S
C2242 C2243 1.367 . S
C2242 C2250 1.378 . S
C2243 C2242 1.367 . S
C2243 C2251 1.433 . S
C2244 H2240 0.929 . S
C2244 C2246 1.378 . S
C2244 C2248 1.350 . S
C2245 C2248 1.463 . S
C2245 C2250 1.350 . S
C2245 N2253 1.427 . S
C2246 H2237 0.930 . S
C2246 C2244 1.378 . S
C2246 C2247 1.367 . S
C2247 C2246 1.367 . S
C2247 C2249 1.433 . S
C2248 C2244 1.350 . S
C2248 C2245 1.463 . S
C2248 N2252 1.427 . S
C2249 H2239 0.929 . S
C2249 C2247 1.433 . S
C2249 N2252 1.384 . S
C2250 H2241 0.929 . S
C2250 C2242 1.378 . S
C2250 C2245 1.350 . S
C2251 H2238 0.929 . S
C2251 C2243 1.433 . S
C2251 N2253 1.384 . S
N2252 C2248 1.427 . S
N2252 C2249 1.384 . S
N2253 C2245 1.427 . S
N2253 C2251 1.384 . S
H2254 C2260 0.930 . S
H2255 C2264 0.930 . S
H2256 C2269 0.929 . S
H2257 C2267 0.929 . S
H2258 C2262 0.929 . S
H2259 C2268 0.929 . S
C2260 H2254 0.930 . S
C2260 C2261 1.367 . S
C2260 C2268 1.378 . S
C2261 C2260 1.367 . S
C2261 C2269 1.433 . S
C2262 H2258 0.929 . S
C2262 C2264 1.378 . S
C2262 C2266 1.350 . S
C2263 C2266 1.463 . S
C2263 C2268 1.350 1_565 S
C2263 N2271 1.427 . S
C2264 H2255 0.930 . S
C2264 C2262 1.378 . S
C2264 C2265 1.367 . S
C2265 C2264 1.367 . S
C2265 C2267 1.433 . S
C2266 C2262 1.350 . S
C2266 C2263 1.463 . S
C2266 N2270 1.427 . S
C2267 H2257 0.929 . S
C2267 C2265 1.433 . S
C2267 N2270 1.384 . S
C2268 H2259 0.929 . S
C2268 C2260 1.378 . S
C2268 C2263 1.350 1_545 S
C2269 H2256 0.929 . S
C2269 C2261 1.433 . S
C2269 N2271 1.384 1_545 S
N2270 C2266 1.427 . S
N2270 C2267 1.384 . S
N2271 C2263 1.427 . S
N2271 C2269 1.384 1_565 S
H2272 C2278 0.930 . S
H2273 C2282 0.930 . S
H2274 C2287 0.929 . S
H2275 C2285 0.929 . S
H2276 C2280 0.929 . S
H2277 C2286 0.929 . S
C2278 H2272 0.930 . S
C2278 C2279 1.367 . S
C2278 C2286 1.378 . S
C2279 C2278 1.367 . S
C2279 C2287 1.433 . S
C2280 H2276 0.929 . S
C2280 C2282 1.378 . S
C2280 C2284 1.350 . S
C2281 C2284 1.463 . S
C2281 C2286 1.350 . S
C2281 N2289 1.427 . S
C2282 H2273 0.930 . S
C2282 C2280 1.378 . S
C2282 C2283 1.367 . S
C2283 C2282 1.367 . S
C2283 C2285 1.433 . S
C2284 C2280 1.350 . S
C2284 C2281 1.463 . S
C2284 N2288 1.427 . S
C2285 H2275 0.929 . S
C2285 C2283 1.433 . S
C2285 N2288 1.384 . S
C2286 H2277 0.929 . S
C2286 C2278 1.378 . S
C2286 C2281 1.350 . S
C2287 H2274 0.929 . S
C2287 C2279 1.433 . S
C2287 N2289 1.384 . S
N2288 C2284 1.427 . S
N2288 C2285 1.384 . S
N2289 C2281 1.427 . S
N2289 C2287 1.384 . S
H2290 C2296 0.930 . S
H2291 C2300 0.930 . S
H2292 C2305 0.929 . S
H2293 C2303 0.929 . S
H2294 C2298 0.929 . S
H2295 C2304 0.929 . S
C2296 H2290 0.930 . S
C2296 C2297 1.367 . S
C2296 C2304 1.378 . S
C2297 C2296 1.367 . S
C2297 C2305 1.433 . S
C2298 H2294 0.929 . S
C2298 C2300 1.378 . S
C2298 C2302 1.350 . S
C2299 C2302 1.463 . S
C2299 C2304 1.350 . S
C2299 N2307 1.427 . S
C2300 H2291 0.930 . S
C2300 C2298 1.378 . S
C2300 C2301 1.367 . S
C2301 C2300 1.367 . S
C2301 C2303 1.433 . S
C2302 C2298 1.350 . S
C2302 C2299 1.463 . S
C2302 N2306 1.427 . S
C2303 H2293 0.929 . S
C2303 C2301 1.433 . S
C2303 N2306 1.384 . S
C2304 H2295 0.929 . S
C2304 C2296 1.378 . S
C2304 C2299 1.350 . S
C2305 H2292 0.929 . S
C2305 C2297 1.433 . S
C2305 N2307 1.384 . S
N2306 C2302 1.427 . S
N2306 C2303 1.384 . S
N2307 C2299 1.427 . S
N2307 C2305 1.384 . S
H2308 C2314 0.930 . S
H2309 C2318 0.930 . S
H2310 C2323 0.929 . S
H2311 C2321 0.929 . S
H2312 C2316 0.929 . S
H2313 C2322 0.929 . S
C2314 H2308 0.930 . S
C2314 C2315 1.367 . S
C2314 C2322 1.378 . S
C2315 C2314 1.367 . S
C2315 C2323 1.433 . S
C2316 H2312 0.929 . S
C2316 C2318 1.378 . S
C2316 C2320 1.350 . S
C2317 C2320 1.463 . S
C2317 C2322 1.350 . S
C2317 N2325 1.427 . S
C2318 H2309 0.930 . S
C2318 C2316 1.378 . S
C2318 C2319 1.367 . S
C2319 C2318 1.367 . S
C2319 C2321 1.433 . S
C2320 C2316 1.350 . S
C2320 C2317 1.463 . S
C2320 N2324 1.427 . S
C2321 H2311 0.929 . S
C2321 C2319 1.433 . S
C2321 N2324 1.384 . S
C2322 H2313 0.929 . S
C2322 C2314 1.378 . S
C2322 C2317 1.350 . S
C2323 H2310 0.929 . S
C2323 C2315 1.433 . S
C2323 N2325 1.384 . S
N2324 C2320 1.427 . S
N2324 C2321 1.384 . S
N2325 C2317 1.427 . S
N2325 C2323 1.384 . S
H2326 C2332 0.930 . S
H2327 C2336 0.930 . S
H2328 C2341 0.929 . S
H2329 C2339 0.929 . S
H2330 C2334 0.929 . S
H2331 C2340 0.929 . S
C2332 H2326 0.930 . S
C2332 C2333 1.367 . S
C2332 C2340 1.378 . S
C2333 C2332 1.367 . S
C2333 C2341 1.433 . S
C2334 H2330 0.929 . S
C2334 C2336 1.378 . S
C2334 C2338 1.350 . S
C2335 C2338 1.463 . S
C2335 C2340 1.350 . S
C2335 N2343 1.427 . S
C2336 H2327 0.930 . S
C2336 C2334 1.378 . S
C2336 C2337 1.367 . S
C2337 C2336 1.367 . S
C2337 C2339 1.433 . S
C2338 C2334 1.350 . S
C2338 C2335 1.463 . S
C2338 N2342 1.427 . S
C2339 H2329 0.929 . S
C2339 C2337 1.433 . S
C2339 N2342 1.384 . S
C2340 H2331 0.929 . S
C2340 C2332 1.378 . S
C2340 C2335 1.350 . S
C2341 H2328 0.929 . S
C2341 C2333 1.433 . S
C2341 N2343 1.384 . S
N2342 C2338 1.427 . S
N2342 C2339 1.384 . S
N2343 C2335 1.427 . S
N2343 C2341 1.384 . S
H2344 C2350 0.930 . S
H2345 C2354 0.930 . S
H2346 C2359 0.929 . S
H2347 C2357 0.929 1_554 S
H2348 C2352 0.929 . S
H2349 C2358 0.929 . S
C2350 H2344 0.930 . S
C2350 C2351 1.367 . S
C2350 C2358 1.378 . S
C2351 C2350 1.367 . S
C2351 C2359 1.433 . S
C2352 H2348 0.929 . S
C2352 C2354 1.378 . S
C2352 C2356 1.350 . S
C2353 C2356 1.463 . S
C2353 C2358 1.350 . S
C2353 N2361 1.427 . S
C2354 H2345 0.930 . S
C2354 C2352 1.378 . S
C2354 C2355 1.367 . S
C2355 C2354 1.367 . S
C2355 C2357 1.433 . S
C2356 C2352 1.350 . S
C2356 C2353 1.463 . S
C2356 N2360 1.427 . S
C2357 H2347 0.929 1_556 S
C2357 C2355 1.433 . S
C2357 N2360 1.384 . S
C2358 H2349 0.929 . S
C2358 C2350 1.378 . S
C2358 C2353 1.350 . S
C2359 H2346 0.929 . S
C2359 C2351 1.433 . S
C2359 N2361 1.384 . S
N2360 C2356 1.427 . S
N2360 C2357 1.384 . S
N2361 C2353 1.427 . S
N2361 C2359 1.384 . S
H2362 C2368 0.930 . S
H2363 C2372 0.930 . S
H2364 C2377 0.929 . S
H2365 C2375 0.929 . S
H2366 C2370 0.929 . S
H2367 C2376 0.929 . S
C2368 H2362 0.930 . S
C2368 C2369 1.367 . S
C2368 C2376 1.378 . S
C2369 C2368 1.367 . S
C2369 C2377 1.433 . S
C2370 H2366 0.929 . S
C2370 C2372 1.378 . S
C2370 C2374 1.350 . S
C2371 C2374 1.463 . S
C2371 C2376 1.350 . S
C2371 N2379 1.427 . S
C2372 H2363 0.930 . S
C2372 C2370 1.378 . S
C2372 C2373 1.367 . S
C2373 C2372 1.367 . S
C2373 C2375 1.433 . S
C2374 C2370 1.350 . S
C2374 C2371 1.463 . S
C2374 N2378 1.427 . S
C2375 H2365 0.929 . S
C2375 C2373 1.433 . S
C2375 N2378 1.384 . S
C2376 H2367 0.929 . S
C2376 C2368 1.378 . S
C2376 C2371 1.350 . S
C2377 H2364 0.929 . S
C2377 C2369 1.433 . S
C2377 N2379 1.384 . S
N2378 C2374 1.427 . S
N2378 C2375 1.384 . S
N2379 C2371 1.427 . S
N2379 C2377 1.384 . S
H2380 C2386 0.930 . S
H2381 C2390 0.930 . S
H2382 C2395 0.929 . S
H2383 C2393 0.929 . S
H2384 C2388 0.929 . S
H2385 C2394 0.929 . S
C2386 H2380 0.930 . S
C2386 C2387 1.367 . S
C2386 C2394 1.378 . S
C2387 C2386 1.367 . S
C2387 C2395 1.433 . S
C2388 H2384 0.929 . S
C2388 C2390 1.378 . S
C2388 C2392 1.350 . S
C2389 C2392 1.463 . S
C2389 C2394 1.350 . S
C2389 N2397 1.427 . S
C2390 H2381 0.930 . S
C2390 C2388 1.378 . S
C2390 C2391 1.367 . S
C2391 C2390 1.367 . S
C2391 C2393 1.433 . S
C2392 C2388 1.350 . S
C2392 C2389 1.463 . S
C2392 N2396 1.427 . S
C2393 H2383 0.929 . S
C2393 C2391 1.433 . S
C2393 N2396 1.384 . S
C2394 H2385 0.929 . S
C2394 C2386 1.378 . S
C2394 C2389 1.350 . S
C2395 H2382 0.929 . S
C2395 C2387 1.433 . S
C2395 N2397 1.384 . S
N2396 C2392 1.427 . S
N2396 C2393 1.384 . S
N2397 C2389 1.427 . S
N2397 C2395 1.384 . S
H2398 C2404 0.930 . S
H2399 C2408 0.930 . S
H2400 C2413 0.929 . S
H2401 C2411 0.929 . S
H2402 C2406 0.929 . S
H2403 C2412 0.929 . S
C2404 H2398 0.930 . S
C2404 C2405 1.367 . S
C2404 C2412 1.378 . S
C2405 C2404 1.367 . S
C2405 C2413 1.433 . S
C2406 H2402 0.929 . S
C2406 C2408 1.378 . S
C2406 C2410 1.350 . S
C2407 C2410 1.463 . S
C2407 C2412 1.350 . S
C2407 N2415 1.427 . S
C2408 H2399 0.930 . S
C2408 C2406 1.378 . S
C2408 C2409 1.367 . S
C2409 C2408 1.367 . S
C2409 C2411 1.433 . S
C2410 C2406 1.350 . S
C2410 C2407 1.463 . S
C2410 N2414 1.427 . S
C2411 H2401 0.929 . S
C2411 C2409 1.433 . S
C2411 N2414 1.384 . S
C2412 H2403 0.929 . S
C2412 C2404 1.378 . S
C2412 C2407 1.350 . S
C2413 H2400 0.929 . S
C2413 C2405 1.433 . S
C2413 N2415 1.384 . S
N2414 C2410 1.427 . S
N2414 C2411 1.384 . S
N2415 C2407 1.427 . S
N2415 C2413 1.384 . S
H2416 C2422 0.930 . S
H2417 C2426 0.930 . S
H2418 C2431 0.929 . S
H2419 C2429 0.929 . S
H2420 C2424 0.929 . S
H2421 C2430 0.929 . S
C2422 H2416 0.930 . S
C2422 C2423 1.367 . S
C2422 C2430 1.378 . S
C2423 C2422 1.367 . S
C2423 C2431 1.433 . S
C2424 H2420 0.929 . S
C2424 C2426 1.378 . S
C2424 C2428 1.350 . S
C2425 C2428 1.463 . S
C2425 C2430 1.350 . S
C2425 N2433 1.427 . S
C2426 H2417 0.930 . S
C2426 C2424 1.378 . S
C2426 C2427 1.367 . S
C2427 C2426 1.367 . S
C2427 C2429 1.433 . S
C2428 C2424 1.350 . S
C2428 C2425 1.463 . S
C2428 N2432 1.427 . S
C2429 H2419 0.929 . S
C2429 C2427 1.433 . S
C2429 N2432 1.384 . S
C2430 H2421 0.929 . S
C2430 C2422 1.378 . S
C2430 C2425 1.350 . S
C2431 H2418 0.929 . S
C2431 C2423 1.433 . S
C2431 N2433 1.384 . S
N2432 C2428 1.427 . S
N2432 C2429 1.384 . S
N2433 C2425 1.427 . S
N2433 C2431 1.384 . S
H2434 C2440 0.930 . S
H2435 C2444 0.930 . S
H2436 C2449 0.929 . S
H2437 C2447 0.929 . S
H2438 C2442 0.929 . S
H2439 C2448 0.929 . S
C2440 H2434 0.930 . S
C2440 C2441 1.367 . S
C2440 C2448 1.378 . S
C2441 C2440 1.367 . S
C2441 C2449 1.433 . S
C2442 H2438 0.929 . S
C2442 C2444 1.378 . S
C2442 C2446 1.350 . S
C2443 C2446 1.463 . S
C2443 C2448 1.350 . S
C2443 N2451 1.427 . S
C2444 H2435 0.930 . S
C2444 C2442 1.378 . S
C2444 C2445 1.367 . S
C2445 C2444 1.367 . S
C2445 C2447 1.433 . S
C2446 C2442 1.350 . S
C2446 C2443 1.463 . S
C2446 N2450 1.427 . S
C2447 H2437 0.929 . S
C2447 C2445 1.433 . S
C2447 N2450 1.384 . S
C2448 H2439 0.929 . S
C2448 C2440 1.378 . S
C2448 C2443 1.350 . S
C2449 H2436 0.929 . S
C2449 C2441 1.433 . S
C2449 N2451 1.384 . S
N2450 C2446 1.427 . S
N2450 C2447 1.384 . S
N2451 C2443 1.427 . S
N2451 C2449 1.384 . S
H2452 C2458 0.930 . S
H2453 C2462 0.930 . S
H2454 C2467 0.929 . S
H2455 C2465 0.929 . S
H2456 C2460 0.929 . S
H2457 C2466 0.929 . S
C2458 H2452 0.930 . S
C2458 C2459 1.367 . S
C2458 C2466 1.378 . S
C2459 C2458 1.367 . S
C2459 C2467 1.433 . S
C2460 H2456 0.929 . S
C2460 C2462 1.378 . S
C2460 C2464 1.350 . S
C2461 C2464 1.463 . S
C2461 C2466 1.350 . S
C2461 N2469 1.427 . S
C2462 H2453 0.930 . S
C2462 C2460 1.378 . S
C2462 C2463 1.367 . S
C2463 C2462 1.367 . S
C2463 C2465 1.433 . S
C2464 C2460 1.350 . S
C2464 C2461 1.463 . S
C2464 N2468 1.427 . S
C2465 H2455 0.929 . S
C2465 C2463 1.433 . S
C2465 N2468 1.384 . S
C2466 H2457 0.929 . S
C2466 C2458 1.378 . S
C2466 C2461 1.350 . S
C2467 H2454 0.929 . S
C2467 C2459 1.433 . S
C2467 N2469 1.384 . S
N2468 C2464 1.427 . S
N2468 C2465 1.384 . S
N2469 C2461 1.427 . S
N2469 C2467 1.384 . S
H2470 C2476 0.930 . S
H2471 C2480 0.930 . S
H2472 C2485 0.929 . S
H2473 C2483 0.929 . S
H2474 C2478 0.929 . S
H2475 C2484 0.929 . S
C2476 H2470 0.930 . S
C2476 C2477 1.367 . S
C2476 C2484 1.378 . S
C2477 C2476 1.367 . S
C2477 C2485 1.433 . S
C2478 H2474 0.929 . S
C2478 C2480 1.378 . S
C2478 C2482 1.350 . S
C2479 C2482 1.463 . S
C2479 C2484 1.350 . S
C2479 N2487 1.427 . S
C2480 H2471 0.930 . S
C2480 C2478 1.378 . S
C2480 C2481 1.367 . S
C2481 C2480 1.367 . S
C2481 C2483 1.433 . S
C2482 C2478 1.350 . S
C2482 C2479 1.463 . S
C2482 N2486 1.427 . S
C2483 H2473 0.929 . S
C2483 C2481 1.433 . S
C2483 N2486 1.384 . S
C2484 H2475 0.929 . S
C2484 C2476 1.378 . S
C2484 C2479 1.350 . S
C2485 H2472 0.929 . S
C2485 C2477 1.433 . S
C2485 N2487 1.384 . S
N2486 C2482 1.427 . S
N2486 C2483 1.384 . S
N2487 C2479 1.427 . S
N2487 C2485 1.384 . S
H2488 C2494 0.930 . S
H2489 C2498 0.930 . S
H2490 C2503 0.929 . S
H2491 C2501 0.929 . S
H2492 C2496 0.929 . S
H2493 C2502 0.929 . S
C2494 H2488 0.930 . S
C2494 C2495 1.367 . S
C2494 C2502 1.378 . S
C2495 C2494 1.367 . S
C2495 C2503 1.433 . S
C2496 H2492 0.929 . S
C2496 C2498 1.378 . S
C2496 C2500 1.350 . S
C2497 C2500 1.463 . S
C2497 C2502 1.350 . S
C2497 N2505 1.427 . S
C2498 H2489 0.930 . S
C2498 C2496 1.378 . S
C2498 C2499 1.367 . S
C2499 C2498 1.367 . S
C2499 C2501 1.433 . S
C2500 C2496 1.350 . S
C2500 C2497 1.463 . S
C2500 N2504 1.427 . S
C2501 H2491 0.929 . S
C2501 C2499 1.433 . S
C2501 N2504 1.384 . S
C2502 H2493 0.929 . S
C2502 C2494 1.378 . S
C2502 C2497 1.350 . S
C2503 H2490 0.929 . S
C2503 C2495 1.433 . S
C2503 N2505 1.384 . S
N2504 C2500 1.427 . S
N2504 C2501 1.384 . S
N2505 C2497 1.427 . S
N2505 C2503 1.384 . S
H2506 C2512 0.930 . S
H2507 C2516 0.930 . S
H2508 C2521 0.929 . S
H2509 C2519 0.929 . S
H2510 C2514 0.929 . S
H2511 C2520 0.929 . S
C2512 H2506 0.930 . S
C2512 C2513 1.367 . S
C2512 C2520 1.378 . S
C2513 C2512 1.367 . S
C2513 C2521 1.433 . S
C2514 H2510 0.929 . S
C2514 C2516 1.378 . S
C2514 C2518 1.350 . S
C2515 C2518 1.463 . S
C2515 C2520 1.350 . S
C2515 N2523 1.427 . S
C2516 H2507 0.930 . S
C2516 C2514 1.378 . S
C2516 C2517 1.367 . S
C2517 C2516 1.367 . S
C2517 C2519 1.433 . S
C2518 C2514 1.350 . S
C2518 C2515 1.463 . S
C2518 N2522 1.427 . S
C2519 H2509 0.929 . S
C2519 C2517 1.433 . S
C2519 N2522 1.384 . S
C2520 H2511 0.929 . S
C2520 C2512 1.378 . S
C2520 C2515 1.350 . S
C2521 H2508 0.929 . S
C2521 C2513 1.433 . S
C2521 N2523 1.384 . S
N2522 C2518 1.427 . S
N2522 C2519 1.384 . S
N2523 C2515 1.427 . S
N2523 C2521 1.384 . S
H2524 C2530 0.930 . S
H2525 C2534 0.930 . S
H2526 C2539 0.929 . S
H2527 C2537 0.929 . S
H2528 C2532 0.929 . S
H2529 C2538 0.929 . S
C2530 H2524 0.930 . S
C2530 C2531 1.367 . S
C2530 C2538 1.378 . S
C2531 C2530 1.367 . S
C2531 C2539 1.433 . S
C2532 H2528 0.929 . S
C2532 C2534 1.378 . S
C2532 C2536 1.350 . S
C2533 C2536 1.463 . S
C2533 C2538 1.350 . S
C2533 N2541 1.427 . S
C2534 H2525 0.930 . S
C2534 C2532 1.378 . S
C2534 C2535 1.367 . S
C2535 C2534 1.367 . S
C2535 C2537 1.433 . S
C2536 C2532 1.350 . S
C2536 C2533 1.463 . S
C2536 N2540 1.427 . S
C2537 H2527 0.929 . S
C2537 C2535 1.433 . S
C2537 N2540 1.384 . S
C2538 H2529 0.929 . S
C2538 C2530 1.378 . S
C2538 C2533 1.350 . S
C2539 H2526 0.929 . S
C2539 C2531 1.433 . S
C2539 N2541 1.384 . S
N2540 C2536 1.427 . S
N2540 C2537 1.384 . S
N2541 C2533 1.427 . S
N2541 C2539 1.384 . S
H2542 C2548 0.930 . S
H2543 C2552 0.930 . S
H2544 C2557 0.929 . S
H2545 C2555 0.929 . S
H2546 C2550 0.929 . S
H2547 C2556 0.929 . S
C2548 H2542 0.930 . S
C2548 C2549 1.367 . S
C2548 C2556 1.378 . S
C2549 C2548 1.367 . S
C2549 C2557 1.433 . S
C2550 H2546 0.929 . S
C2550 C2552 1.378 . S
C2550 C2554 1.350 . S
C2551 C2554 1.463 . S
C2551 C2556 1.350 . S
C2551 N2559 1.427 . S
C2552 H2543 0.930 . S
C2552 C2550 1.378 . S
C2552 C2553 1.367 . S
C2553 C2552 1.367 . S
C2553 C2555 1.433 . S
C2554 C2550 1.350 . S
C2554 C2551 1.463 . S
C2554 N2558 1.427 . S
C2555 H2545 0.929 . S
C2555 C2553 1.433 . S
C2555 N2558 1.384 . S
C2556 H2547 0.929 . S
C2556 C2548 1.378 . S
C2556 C2551 1.350 . S
C2557 H2544 0.929 . S
C2557 C2549 1.433 . S
C2557 N2559 1.384 . S
N2558 C2554 1.427 . S
N2558 C2555 1.384 . S
N2559 C2551 1.427 . S
N2559 C2557 1.384 . S
H2560 C2566 0.930 . S
H2561 C2570 0.930 . S
H2562 C2575 0.929 . S
H2563 C2573 0.929 . S
H2564 C2568 0.929 . S
H2565 C2574 0.929 . S
C2566 H2560 0.930 . S
C2566 C2567 1.367 . S
C2566 C2574 1.378 . S
C2567 C2566 1.367 . S
C2567 C2575 1.433 . S
C2568 H2564 0.929 . S
C2568 C2570 1.378 . S
C2568 C2572 1.350 . S
C2569 C2572 1.463 . S
C2569 C2574 1.350 . S
C2569 N2577 1.427 . S
C2570 H2561 0.930 . S
C2570 C2568 1.378 . S
C2570 C2571 1.367 . S
C2571 C2570 1.367 . S
C2571 C2573 1.433 . S
C2572 C2568 1.350 . S
C2572 C2569 1.463 . S
C2572 N2576 1.427 . S
C2573 H2563 0.929 . S
C2573 C2571 1.433 . S
C2573 N2576 1.384 . S
C2574 H2565 0.929 . S
C2574 C2566 1.378 . S
C2574 C2569 1.350 . S
C2575 H2562 0.929 . S
C2575 C2567 1.433 . S
C2575 N2577 1.384 . S
N2576 C2572 1.427 . S
N2576 C2573 1.384 . S
N2577 C2569 1.427 . S
N2577 C2575 1.384 . S
H2578 C2584 0.930 . S
H2579 C2588 0.930 . S
H2580 C2593 0.929 . S
H2581 C2591 0.929 . S
H2582 C2586 0.929 . S
H2583 C2592 0.929 . S
C2584 H2578 0.930 . S
C2584 C2585 1.367 . S
C2584 C2592 1.378 . S
C2585 C2584 1.367 . S
C2585 C2593 1.433 . S
C2586 H2582 0.929 . S
C2586 C2588 1.378 . S
C2586 C2590 1.350 1_545 S
C2587 C2590 1.463 . S
C2587 C2592 1.350 . S
C2587 N2595 1.427 . S
C2588 H2579 0.930 . S
C2588 C2586 1.378 . S
C2588 C2589 1.367 . S
C2589 C2588 1.367 . S
C2589 C2591 1.433 1_545 S
C2590 C2586 1.350 1_565 S
C2590 C2587 1.463 . S
C2590 N2594 1.427 . S
C2591 H2581 0.929 . S
C2591 C2589 1.433 1_565 S
C2591 N2594 1.384 . S
C2592 H2583 0.929 . S
C2592 C2584 1.378 . S
C2592 C2587 1.350 . S
C2593 H2580 0.929 . S
C2593 C2585 1.433 . S
C2593 N2595 1.384 . S
N2594 C2590 1.427 . S
N2594 C2591 1.384 . S
N2595 C2587 1.427 . S
N2595 C2593 1.384 . S
H2596 C2602 0.930 . S
H2597 C2606 0.930 . S
H2598 C2611 0.929 . S
H2599 C2609 0.929 . S
H2600 C2604 0.929 . S
H2601 C2610 0.929 . S
C2602 H2596 0.930 . S
C2602 C2603 1.367 . S
C2602 C2610 1.378 . S
C2603 C2602 1.367 . S
C2603 C2611 1.433 . S
C2604 H2600 0.929 . S
C2604 C2606 1.378 . S
C2604 C2608 1.350 . S
C2605 C2608 1.463 . S
C2605 C2610 1.350 . S
C2605 N2613 1.427 . S
C2606 H2597 0.930 . S
C2606 C2604 1.378 . S
C2606 C2607 1.367 . S
C2607 C2606 1.367 . S
C2607 C2609 1.433 . S
C2608 C2604 1.350 . S
C2608 C2605 1.463 . S
C2608 N2612 1.427 . S
C2609 H2599 0.929 . S
C2609 C2607 1.433 . S
C2609 N2612 1.384 . S
C2610 H2601 0.929 . S
C2610 C2602 1.378 . S
C2610 C2605 1.350 . S
C2611 H2598 0.929 . S
C2611 C2603 1.433 . S
C2611 N2613 1.384 . S
N2612 C2608 1.427 . S
N2612 C2609 1.384 . S
N2613 C2605 1.427 . S
N2613 C2611 1.384 . S
H2614 C2620 0.930 . S
H2615 C2624 0.930 . S
H2616 C2629 0.929 . S
H2617 C2627 0.929 . S
H2618 C2622 0.939 . S
H2619 C2628 0.929 . S
C2620 H2614 0.930 . S
C2620 C2621 1.367 1_554 S
C2620 C2628 1.378 . S
C2621 C2620 1.367 1_556 S
C2621 C2629 1.433 . S
C2622 H2618 0.939 . S
C2622 C2624 1.378 . S
C2622 C2626 1.350 . S
C2623 C2626 1.463 . S
C2623 C2628 1.350 . S
C2623 N2631 1.427 1_554 S
C2624 H2615 0.930 . S
C2624 C2622 1.378 . S
C2624 C2625 1.367 . S
C2625 C2624 1.367 . S
C2625 C2627 1.433 . S
C2626 C2622 1.350 . S
C2626 C2623 1.463 . S
C2626 N2630 1.427 . S
C2627 H2617 0.929 . S
C2627 C2625 1.433 . S
C2627 N2630 1.384 . S
C2628 H2619 0.929 . S
C2628 C2620 1.378 . S
C2628 C2623 1.350 . S
C2629 H2616 0.929 . S
C2629 C2621 1.433 . S
C2629 N2631 1.384 . S
N2630 C2626 1.427 . S
N2630 C2627 1.384 . S
N2631 C2623 1.427 1_556 S
N2631 C2629 1.384 . S
H2632 C2638 0.930 . S
H2633 C2642 0.930 . S
H2634 C2647 0.929 . S
H2635 C2645 0.929 . S
H2636 C2640 0.929 . S
H2637 C2646 0.929 . S
C2638 H2632 0.930 . S
C2638 C2639 1.367 . S
C2638 C2646 1.378 . S
C2639 C2638 1.367 . S
C2639 C2647 1.433 . S
C2640 H2636 0.929 . S
C2640 C2642 1.378 . S
C2640 C2644 1.350 . S
C2641 C2644 1.463 . S
C2641 C2646 1.350 . S
C2641 N2649 1.427 . S
C2642 H2633 0.930 . S
C2642 C2640 1.378 . S
C2642 C2643 1.367 . S
C2643 C2642 1.367 . S
C2643 C2645 1.433 . S
C2644 C2640 1.350 . S
C2644 C2641 1.463 . S
C2644 N2648 1.427 . S
C2645 H2635 0.929 . S
C2645 C2643 1.433 . S
C2645 N2648 1.384 . S
C2646 H2637 0.929 . S
C2646 C2638 1.378 . S
C2646 C2641 1.350 . S
C2647 H2634 0.929 . S
C2647 C2639 1.433 . S
C2647 N2649 1.384 . S
N2648 C2644 1.427 . S
N2648 C2645 1.384 . S
N2649 C2641 1.427 . S
N2649 C2647 1.384 . S
H2650 C2656 0.930 . S
H2651 C2660 0.930 . S
H2652 C2665 0.929 . S
H2653 C2663 0.929 . S
H2654 C2658 0.929 . S
H2655 C2664 0.929 . S
C2656 H2650 0.930 . S
C2656 C2657 1.367 . S
C2656 C2664 1.378 . S
C2657 C2656 1.367 . S
C2657 C2665 1.433 1_554 S
C2658 H2654 0.929 . S
C2658 C2660 1.378 . S
C2658 C2662 1.350 1_556 S
C2659 C2662 1.463 . S
C2659 C2664 1.350 . S
C2659 N2667 1.427 1_554 S
C2660 H2651 0.930 . S
C2660 C2658 1.378 . S
C2660 C2661 1.367 1_556 S
C2661 C2660 1.367 1_554 S
C2661 C2663 1.433 . S
C2662 C2658 1.350 1_554 S
C2662 C2659 1.463 . S
C2662 N2666 1.427 . S
C2663 H2653 0.929 . S
C2663 C2661 1.433 . S
C2663 N2666 1.384 . S
C2664 H2655 0.929 . S
C2664 C2656 1.378 . S
C2664 C2659 1.350 . S
C2665 H2652 0.929 . S
C2665 C2657 1.433 1_556 S
C2665 N2667 1.384 . S
N2666 C2662 1.427 . S
N2666 C2663 1.384 . S
N2667 C2659 1.427 1_556 S
N2667 C2665 1.384 . S
H2668 C2674 0.930 . S
H2669 C2678 0.930 . S
H2670 C2683 0.929 . S
H2671 C2681 0.929 . S
H2672 C2676 0.929 . S
H2673 C2682 0.929 . S
C2674 H2668 0.930 . S
C2674 C2675 1.367 . S
C2674 C2682 1.378 . S
C2675 C2674 1.367 . S
C2675 C2683 1.433 . S
C2676 H2672 0.929 . S
C2676 C2678 1.378 . S
C2676 C2680 1.350 . S
C2677 C2680 1.463 . S
C2677 C2682 1.350 . S
C2677 N2685 1.427 . S
C2678 H2669 0.930 . S
C2678 C2676 1.378 . S
C2678 C2679 1.367 . S
C2679 C2678 1.367 . S
C2679 C2681 1.433 . S
C2680 C2676 1.350 . S
C2680 C2677 1.463 . S
C2680 N2684 1.427 . S
C2681 H2671 0.929 . S
C2681 C2679 1.433 . S
C2681 N2684 1.384 . S
C2682 H2673 0.929 . S
C2682 C2674 1.378 . S
C2682 C2677 1.350 . S
C2683 H2670 0.929 . S
C2683 C2675 1.433 . S
C2683 N2685 1.384 . S
N2684 C2680 1.427 . S
N2684 C2681 1.384 . S
N2685 C2677 1.427 . S
N2685 C2683 1.384 . S
H2686 C2692 0.930 . S
H2687 C2696 0.930 . S
H2688 C2701 0.929 . S
H2689 C2699 0.929 . S
H2690 C2694 0.929 . S
H2691 C2700 0.929 . S
C2692 H2686 0.930 . S
C2692 C2693 1.367 . S
C2692 C2700 1.378 . S
C2693 C2692 1.367 . S
C2693 C2701 1.433 . S
C2694 H2690 0.929 . S
C2694 C2696 1.378 . S
C2694 C2698 1.350 . S
C2695 C2698 1.463 . S
C2695 C2700 1.350 . S
C2695 N2703 1.427 . S
C2696 H2687 0.930 . S
C2696 C2694 1.378 . S
C2696 C2697 1.367 . S
C2697 C2696 1.367 . S
C2697 C2699 1.433 . S
C2698 C2694 1.350 . S
C2698 C2695 1.463 . S
C2698 N2702 1.427 . S
C2699 H2689 0.929 . S
C2699 C2697 1.433 . S
C2699 N2702 1.384 . S
C2700 H2691 0.929 . S
C2700 C2692 1.378 . S
C2700 C2695 1.350 . S
C2701 H2688 0.929 . S
C2701 C2693 1.433 . S
C2701 N2703 1.384 . S
N2702 C2698 1.427 . S
N2702 C2699 1.384 . S
N2703 C2695 1.427 . S
N2703 C2701 1.384 . S
C983 C109 1.686 . S
C987 C358 1.650 1_556 S
C1001 C61 1.120 . S
C1005 C378 1.137 . S
C1019 C74 0.743 . S
C1023 C425 0.744 . S
C1041 C482 1.083 . S
C1037 C96 1.105 . S
C1055 C25 2.465 . S
C1059 C499 2.476 1_565 S
C1077 C558 1.796 . S
C1073 C40 1.787 . S
C1095 C591 2.660 . S
C1091 C46 2.656 . S
C1109 C5 2.085 . S
C1113 C638 2.424 . S
C1131 C351 1.399 . S
C1127 C229 1.039 . S
C1145 C249 1.376 . S
C1149 C379 1.381 . S
C1167 C418 0.529 . S
C1163 C271 0.509 . S
C1185 C478 2.236 . S
C1181 C172 2.129 . S
C1199 C236 0.400 . S
C1203 C505 0.418 . S
C1221 C551 2.458 . S
C1217 C242 2.439 . S
C1239 C602 0.510 . S
C1235 C278 0.469 . S
C1257 C631 2.323 . S
C1253 C179 2.309 . S
C1275 C362 1.729 1_565 S
C1271 C159 1.342 . S
C1289 C285 1.902 . S
C1293 C658 2.097 . S
C1311 C722 1.157 . S
C1307 C333 1.182 . S
C1329 C758 1.307 1_655 S
C1325 C320 1.314 . S
C1343 C123 1.289 . S
C1347 C642 1.268 . S
C1361 C138 2.590 . S
C1365 C419 2.582 . S
C1379 C326 1.422 . S
C1383 C791 1.407 . S
C1401 C825 0.396 . S
C1397 C298 0.350 . S
C1419 C339 1.673 . S
C1415 C67 1.626 . S
C1437 C831 1.082 . S
C1433 C110 1.096 . S
C1451 C88 0.761 . S
C1455 C442 0.759 . S
C1469 C75 0.999 . S
C1473 C785 1.015 . S
C1491 C518 2.385 . S
C1487 C11 2.384 . S
C1505 C47 1.641 . S
C1509 C699 1.827 . S
C1527 C578 2.557 1_556 S
C1523 C32 2.491 . S
C1545 C859 2.494 . S
C1541 C26 2.523 1_655 S
C1563 C338 1.543 . S
C1559 C152 1.527 . S
C1581 C838 1.402 . S
C1577 C319 1.411 . S
C1595 C124 0.532 . S
C1599 C431 0.531 . S
C1613 C284 2.223 . S
C1617 C779 2.229 . S
C1631 C145 0.725 . S
C1635 C522 0.382 . S
C1653 C698 2.354 . S
C1649 C312 2.334 . S
C1667 C117 0.351 . S
C1671 C585 0.578 . S
C1685 C291 2.239 . S
C1689 C858 2.244 . S
C1703 C194 1.908 1_556 S
C1707 C345 1.858 . S
C1721 C180 2.095 . S
C1725 C671 2.072 . S
C1739 C263 1.079 . S
C1743 C545 1.128 . S
C1757 C243 1.079 . S
C1761 C739 1.220 . S
C1779 C865 1.305 . S
C1775 C277 1.243 . S
C1793 C215 2.254 . S
C1797 C438 2.546 1_565 S
C1815 C458 1.321 . S
C1811 C256 1.201 . S
C1833 C402 0.442 . S
C1829 C200 0.501 . S
C1847 C81 1.692 . S
C1851 C918 1.658 . S
C1869 C818 1.124 . S
C1865 C89 1.125 . S
C1883 C102 0.724 . S
C1887 C945 0.739 . S
C1901 C68 1.123 . S
C1905 C802 1.106 . S
C1919 C53 2.461 . S
C1923 C659 2.473 . S
C1941 C718 1.800 . S
C1937 C12 1.792 1_655 S
C1959 C751 2.660 . S
C1955 C18 2.658 . S
C1977 C878 2.412 . S
C1973 C33 2.072 . S
C1995 C911 1.386 . S
C1991 C257 1.009 . S
C2009 C193 1.372 . S
C2013 C819 1.383 . S
C2031 C938 0.528 . S
C2027 C201 0.517 . S
C2049 C798 2.235 . S
C2045 C214 2.128 . S
C2067 C665 0.413 . S
C2063 C264 0.398 . S
C2081 C186 2.445 . S
C2085 C711 2.456 . S
C2103 C762 0.543 . S
C2099 C208 0.489 . S
C2117 C221 2.301 . S
C2121 C871 2.323 . S
C2139 C922 1.732 . S
C2135 C313 1.352 . S
C2153 C131 1.897 . S
C2157 C498 2.104 . S
C2175 C562 1.142 . S
C2171 C151 1.172 . S
C2193 C598 1.307 . S
C2189 C166 1.312 . S
C2211 C882 1.216 . S
C2207 C305 1.240 . S
C2225 C292 2.593 . S
C2229 C939 2.582 1_655 S
C2247 C471 1.413 . S
C2243 C144 1.427 . S
C2265 C385 0.408 . S
C2261 C116 0.381 . S
C2279 C95 1.647 . S
C2283 C899 1.690 . S
C2301 C391 1.037 . S
C2297 C82 1.042 . S
C2315 C60 0.744 . S
C2319 C962 0.748 . S
C2333 C103 0.989 . S
C2337 C465 0.975 . S
C2351 C39 2.382 . S
C2355 C678 2.385 1_556 S
C2373 C539 1.832 . S
C2369 C19 1.663 . S
C2387 C4 2.494 . S
C2391 C738 2.564 . S
C2405 C54 2.518 . S
C2409 C619 2.489 . S
C2427 C898 1.548 . S
C2423 C334 1.533 . S
C2441 C165 1.408 . S
C2445 C398 1.398 . S
C2463 C951 0.498 . S
C2459 C306 0.519 . S
C2477 C130 2.226 . S
C2481 C459 2.232 . S
C2495 C327 0.698 . S
C2499 C682 0.364 . S
C2517 C538 2.358 . S
C2513 C158 2.342 1_556 S
C2531 C299 0.370 . S
C2535 C745 0.544 . S
C2553 C618 2.243 . S
C2549 C137 2.241 . S
C2571 C905 1.864 . S
C2567 C250 1.916 . S
C2589 C511 2.072 1_655 S
C2585 C222 2.100 . S
C2603 C235 1.066 . S
C2607 C705 1.111 . S
C2625 C579 1.209 . S
C2621 C187 1.050 . S
C2639 C207 1.231 . S
C2643 C625 1.298 . S
C2657 C173 2.244 . S
C2661 C958 2.584 . S
C2679 C778 1.320 . S
C2675 C228 1.218 . S
C2697 C842 0.440 . S
C2693 C270 0.512 . S
