# Generated by pormake.
# Topology gar, (4,6)-cn, num edge types: 1
# Building blocks:
#     Node 0, Type 0, BuildingBlock: TATPOV_clean_sbu_0, # of connection points: 4
#     Node 1, Type 0, BuildingBlock: TATPOV_clean_sbu_0, # of connection points: 4
#     Node 2, Type 0, BuildingBlock: TATPOV_clean_sbu_0, # of connection points: 4
#     Node 3, Type 0, BuildingBlock: TATPOV_clean_sbu_0, # of connection points: 4
#     Node 4, Type 0, BuildingBlock: TATPOV_clean_sbu_0, # of connection points: 4
#     Node 5, Type 0, BuildingBlock: TATPOV_clean_sbu_0, # of connection points: 4
#     Node 6, Type 0, BuildingBlock: TATPOV_clean_sbu_0, # of connection points: 4
#     Node 7, Type 0, BuildingBlock: TATPOV_clean_sbu_0, # of connection points: 4
#     Node 8, Type 0, BuildingBlock: TATPOV_clean_sbu_0, # of connection points: 4
#     Node 9, Type 0, BuildingBlock: TATPOV_clean_sbu_0, # of connection points: 4
#     Node 10, Type 0, BuildingBlock: TATPOV_clean_sbu_0, # of connection points: 4
#     Node 11, Type 0, BuildingBlock: TATPOV_clean_sbu_0, # of connection points: 4
#     Node 12, Type 0, BuildingBlock: TATPOV_clean_sbu_0, # of connection points: 4
#     Node 13, Type 0, BuildingBlock: TATPOV_clean_sbu_0, # of connection points: 4
#     Node 14, Type 0, BuildingBlock: TATPOV_clean_sbu_0, # of connection points: 4
#     Node 15, Type 0, BuildingBlock: TATPOV_clean_sbu_0, # of connection points: 4
#     Node 16, Type 0, BuildingBlock: TATPOV_clean_sbu_0, # of connection points: 4
#     Node 17, Type 0, BuildingBlock: TATPOV_clean_sbu_0, # of connection points: 4
#     Node 18, Type 0, BuildingBlock: TATPOV_clean_sbu_0, # of connection points: 4
#     Node 19, Type 0, BuildingBlock: TATPOV_clean_sbu_0, # of connection points: 4
#     Node 20, Type 0, BuildingBlock: TATPOV_clean_sbu_0, # of connection points: 4
#     Node 21, Type 0, BuildingBlock: TATPOV_clean_sbu_0, # of connection points: 4
#     Node 22, Type 0, BuildingBlock: TATPOV_clean_sbu_0, # of connection points: 4
#     Node 23, Type 0, BuildingBlock: TATPOV_clean_sbu_0, # of connection points: 4
#     Node 24, Type 1, BuildingBlock: BETGAK_clean_sbu_0, # of connection points: 6
#     Node 25, Type 1, BuildingBlock: BETGAK_clean_sbu_0, # of connection points: 6
#     Node 26, Type 1, BuildingBlock: BETGAK_clean_sbu_0, # of connection points: 6
#     Node 27, Type 1, BuildingBlock: BETGAK_clean_sbu_0, # of connection points: 6
#     Node 28, Type 1, BuildingBlock: BETGAK_clean_sbu_0, # of connection points: 6
#     Node 29, Type 1, BuildingBlock: BETGAK_clean_sbu_0, # of connection points: 6
#     Node 30, Type 1, BuildingBlock: BETGAK_clean_sbu_0, # of connection points: 6
#     Node 31, Type 1, BuildingBlock: BETGAK_clean_sbu_0, # of connection points: 6
#     Node 32, Type 1, BuildingBlock: BETGAK_clean_sbu_0, # of connection points: 6
#     Node 33, Type 1, BuildingBlock: BETGAK_clean_sbu_0, # of connection points: 6
#     Node 34, Type 1, BuildingBlock: BETGAK_clean_sbu_0, # of connection points: 6
#     Node 35, Type 1, BuildingBlock: BETGAK_clean_sbu_0, # of connection points: 6
#     Node 36, Type 1, BuildingBlock: BETGAK_clean_sbu_0, # of connection points: 6
#     Node 37, Type 1, BuildingBlock: BETGAK_clean_sbu_0, # of connection points: 6
#     Node 38, Type 1, BuildingBlock: BETGAK_clean_sbu_0, # of connection points: 6
#     Node 39, Type 1, BuildingBlock: BETGAK_clean_sbu_0, # of connection points: 6
#     Edge 40, Type (0, 1), BuildingBlock: XIVTED_clean_linker_0, # of connection points: 2
#     Edge 41, Type (0, 1), BuildingBlock: XIVTED_clean_linker_0, # of connection points: 2
#     Edge 42, Type (0, 1), BuildingBlock: XIVTED_clean_linker_0, # of connection points: 2
#     Edge 43, Type (0, 1), BuildingBlock: XIVTED_clean_linker_0, # of connection points: 2
#     Edge 44, Type (0, 1), BuildingBlock: XIVTED_clean_linker_0, # of connection points: 2
#     Edge 45, Type (0, 1), BuildingBlock: XIVTED_clean_linker_0, # of connection points: 2
#     Edge 46, Type (0, 1), BuildingBlock: XIVTED_clean_linker_0, # of connection points: 2
#     Edge 47, Type (0, 1), BuildingBlock: XIVTED_clean_linker_0, # of connection points: 2
#     Edge 48, Type (0, 1), BuildingBlock: XIVTED_clean_linker_0, # of connection points: 2
#     Edge 49, Type (0, 1), BuildingBlock: XIVTED_clean_linker_0, # of connection points: 2
#     Edge 50, Type (0, 1), BuildingBlock: XIVTED_clean_linker_0, # of connection points: 2
#     Edge 51, Type (0, 1), BuildingBlock: XIVTED_clean_linker_0, # of connection points: 2
#     Edge 52, Type (0, 1), BuildingBlock: XIVTED_clean_linker_0, # of connection points: 2
#     Edge 53, Type (0, 1), BuildingBlock: XIVTED_clean_linker_0, # of connection points: 2
#     Edge 54, Type (0, 1), BuildingBlock: XIVTED_clean_linker_0, # of connection points: 2
#     Edge 55, Type (0, 1), BuildingBlock: XIVTED_clean_linker_0, # of connection points: 2
#     Edge 56, Type (0, 1), BuildingBlock: XIVTED_clean_linker_0, # of connection points: 2
#     Edge 57, Type (0, 1), BuildingBlock: XIVTED_clean_linker_0, # of connection points: 2
#     Edge 58, Type (0, 1), BuildingBlock: XIVTED_clean_linker_0, # of connection points: 2
#     Edge 59, Type (0, 1), BuildingBlock: XIVTED_clean_linker_0, # of connection points: 2
#     Edge 60, Type (0, 1), BuildingBlock: XIVTED_clean_linker_0, # of connection points: 2
#     Edge 61, Type (0, 1), BuildingBlock: XIVTED_clean_linker_0, # of connection points: 2
#     Edge 62, Type (0, 1), BuildingBlock: XIVTED_clean_linker_0, # of connection points: 2
#     Edge 63, Type (0, 1), BuildingBlock: XIVTED_clean_linker_0, # of connection points: 2
#     Edge 64, Type (0, 1), BuildingBlock: XIVTED_clean_linker_0, # of connection points: 2
#     Edge 65, Type (0, 1), BuildingBlock: XIVTED_clean_linker_0, # of connection points: 2
#     Edge 66, Type (0, 1), BuildingBlock: XIVTED_clean_linker_0, # of connection points: 2
#     Edge 67, Type (0, 1), BuildingBlock: XIVTED_clean_linker_0, # of connection points: 2
#     Edge 68, Type (0, 1), BuildingBlock: XIVTED_clean_linker_0, # of connection points: 2
#     Edge 69, Type (0, 1), BuildingBlock: XIVTED_clean_linker_0, # of connection points: 2
#     Edge 70, Type (0, 1), BuildingBlock: XIVTED_clean_linker_0, # of connection points: 2
#     Edge 71, Type (0, 1), BuildingBlock: XIVTED_clean_linker_0, # of connection points: 2
#     Edge 72, Type (0, 1), BuildingBlock: XIVTED_clean_linker_0, # of connection points: 2
#     Edge 73, Type (0, 1), BuildingBlock: XIVTED_clean_linker_0, # of connection points: 2
#     Edge 74, Type (0, 1), BuildingBlock: XIVTED_clean_linker_0, # of connection points: 2
#     Edge 75, Type (0, 1), BuildingBlock: XIVTED_clean_linker_0, # of connection points: 2
#     Edge 76, Type (0, 1), BuildingBlock: XIVTED_clean_linker_0, # of connection points: 2
#     Edge 77, Type (0, 1), BuildingBlock: XIVTED_clean_linker_0, # of connection points: 2
#     Edge 78, Type (0, 1), BuildingBlock: XIVTED_clean_linker_0, # of connection points: 2
#     Edge 79, Type (0, 1), BuildingBlock: XIVTED_clean_linker_0, # of connection points: 2
#     Edge 80, Type (0, 1), BuildingBlock: XIVTED_clean_linker_0, # of connection points: 2
#     Edge 81, Type (0, 1), BuildingBlock: XIVTED_clean_linker_0, # of connection points: 2
#     Edge 82, Type (0, 1), BuildingBlock: XIVTED_clean_linker_0, # of connection points: 2
#     Edge 83, Type (0, 1), BuildingBlock: XIVTED_clean_linker_0, # of connection points: 2
#     Edge 84, Type (0, 1), BuildingBlock: XIVTED_clean_linker_0, # of connection points: 2
#     Edge 85, Type (0, 1), BuildingBlock: XIVTED_clean_linker_0, # of connection points: 2
#     Edge 86, Type (0, 1), BuildingBlock: XIVTED_clean_linker_0, # of connection points: 2
#     Edge 87, Type (0, 1), BuildingBlock: XIVTED_clean_linker_0, # of connection points: 2
#     Edge 88, Type (0, 1), BuildingBlock: XIVTED_clean_linker_0, # of connection points: 2
#     Edge 89, Type (0, 1), BuildingBlock: XIVTED_clean_linker_0, # of connection points: 2
#     Edge 90, Type (0, 1), BuildingBlock: XIVTED_clean_linker_0, # of connection points: 2
#     Edge 91, Type (0, 1), BuildingBlock: XIVTED_clean_linker_0, # of connection points: 2
#     Edge 92, Type (0, 1), BuildingBlock: XIVTED_clean_linker_0, # of connection points: 2
#     Edge 93, Type (0, 1), BuildingBlock: XIVTED_clean_linker_0, # of connection points: 2
#     Edge 94, Type (0, 1), BuildingBlock: XIVTED_clean_linker_0, # of connection points: 2
#     Edge 95, Type (0, 1), BuildingBlock: XIVTED_clean_linker_0, # of connection points: 2
#     Edge 96, Type (0, 1), BuildingBlock: XIVTED_clean_linker_0, # of connection points: 2
#     Edge 97, Type (0, 1), BuildingBlock: XIVTED_clean_linker_0, # of connection points: 2
#     Edge 98, Type (0, 1), BuildingBlock: XIVTED_clean_linker_0, # of connection points: 2
#     Edge 99, Type (0, 1), BuildingBlock: XIVTED_clean_linker_0, # of connection points: 2
#     Edge 100, Type (0, 1), BuildingBlock: XIVTED_clean_linker_0, # of connection points: 2
#     Edge 101, Type (0, 1), BuildingBlock: XIVTED_clean_linker_0, # of connection points: 2
#     Edge 102, Type (0, 1), BuildingBlock: XIVTED_clean_linker_0, # of connection points: 2
#     Edge 103, Type (0, 1), BuildingBlock: XIVTED_clean_linker_0, # of connection points: 2
#     Edge 104, Type (0, 1), BuildingBlock: XIVTED_clean_linker_0, # of connection points: 2
#     Edge 105, Type (0, 1), BuildingBlock: XIVTED_clean_linker_0, # of connection points: 2
#     Edge 106, Type (0, 1), BuildingBlock: XIVTED_clean_linker_0, # of connection points: 2
#     Edge 107, Type (0, 1), BuildingBlock: XIVTED_clean_linker_0, # of connection points: 2
#     Edge 108, Type (0, 1), BuildingBlock: XIVTED_clean_linker_0, # of connection points: 2
#     Edge 109, Type (0, 1), BuildingBlock: XIVTED_clean_linker_0, # of connection points: 2
#     Edge 110, Type (0, 1), BuildingBlock: XIVTED_clean_linker_0, # of connection points: 2
#     Edge 111, Type (0, 1), BuildingBlock: XIVTED_clean_linker_0, # of connection points: 2
#     Edge 112, Type (0, 1), BuildingBlock: XIVTED_clean_linker_0, # of connection points: 2
#     Edge 113, Type (0, 1), BuildingBlock: XIVTED_clean_linker_0, # of connection points: 2
#     Edge 114, Type (0, 1), BuildingBlock: XIVTED_clean_linker_0, # of connection points: 2
#     Edge 115, Type (0, 1), BuildingBlock: XIVTED_clean_linker_0, # of connection points: 2
#     Edge 116, Type (0, 1), BuildingBlock: XIVTED_clean_linker_0, # of connection points: 2
#     Edge 117, Type (0, 1), BuildingBlock: XIVTED_clean_linker_0, # of connection points: 2
#     Edge 118, Type (0, 1), BuildingBlock: XIVTED_clean_linker_0, # of connection points: 2
#     Edge 119, Type (0, 1), BuildingBlock: XIVTED_clean_linker_0, # of connection points: 2
#     Edge 120, Type (0, 1), BuildingBlock: XIVTED_clean_linker_0, # of connection points: 2
#     Edge 121, Type (0, 1), BuildingBlock: XIVTED_clean_linker_0, # of connection points: 2
#     Edge 122, Type (0, 1), BuildingBlock: XIVTED_clean_linker_0, # of connection points: 2
#     Edge 123, Type (0, 1), BuildingBlock: XIVTED_clean_linker_0, # of connection points: 2
#     Edge 124, Type (0, 1), BuildingBlock: XIVTED_clean_linker_0, # of connection points: 2
#     Edge 125, Type (0, 1), BuildingBlock: XIVTED_clean_linker_0, # of connection points: 2
#     Edge 126, Type (0, 1), BuildingBlock: XIVTED_clean_linker_0, # of connection points: 2
#     Edge 127, Type (0, 1), BuildingBlock: XIVTED_clean_linker_0, # of connection points: 2
#     Edge 128, Type (0, 1), BuildingBlock: XIVTED_clean_linker_0, # of connection points: 2
#     Edge 129, Type (0, 1), BuildingBlock: XIVTED_clean_linker_0, # of connection points: 2
#     Edge 130, Type (0, 1), BuildingBlock: XIVTED_clean_linker_0, # of connection points: 2
#     Edge 131, Type (0, 1), BuildingBlock: XIVTED_clean_linker_0, # of connection points: 2
#     Edge 132, Type (0, 1), BuildingBlock: XIVTED_clean_linker_0, # of connection points: 2
#     Edge 133, Type (0, 1), BuildingBlock: XIVTED_clean_linker_0, # of connection points: 2
#     Edge 134, Type (0, 1), BuildingBlock: XIVTED_clean_linker_0, # of connection points: 2
#     Edge 135, Type (0, 1), BuildingBlock: XIVTED_clean_linker_0, # of connection points: 2
# Relax obj value: 0.216
# Max RMSD: 0.317
# Mean RMSD: 0.178
data_MOF--net-gar--node1-TATPOV_clean_sbu_0--node2-BETGAK_clean_sbu_0--edge1-XIVTED_clean_linker_0
_symmetry_space_group_name_H-M    P1
_symmetry_Int_Tables_number       1
_symmetry_cell_setting            triclinic
loop_
_symmetry_equiv_pos_as_xyz
'x, y, z'
_cell_length_a     62.360485
_cell_length_b     56.499573
_cell_length_c     56.931801
_cell_angle_alpha  98.760168
_cell_angle_beta   95.615745
_cell_angle_gamma 104.14615
loop_
_atom_site_label
_atom_site_type_symbol
_atom_site_fract_x
_atom_site_fract_y
_atom_site_fract_z
_atom_type_partial_charge
Zn0 Zn 0.07587 0.34194 0.40536 0.0
Zn1 Zn 0.11217 0.35186 0.38899 0.0
O2 O 0.11227 0.38659 0.4074 0.0
O3 O 0.07648 0.37807 0.41094 0.0
O4 O 0.14056 0.35629 0.37369 0.0
O5 O 0.08766 0.32701 0.43179 0.0
O6 O 0.11502 0.32572 0.41048 0.0
C7 C 0.09519 0.39375 0.41279 0.0
C8 C 0.0682 0.32504 0.35651 0.0
O9 O 0.08776 0.33956 0.35915 0.0
O10 O 0.05943 0.31974 0.37478 0.0
C11 C 0.14056 0.33764 0.35804 0.0
O12 O 0.12321 0.31817 0.3541 0.0
C13 C 0.10468 0.31951 0.42778 0.0
Zn14 Zn 0.99891 0.71713 0.72178 0.0
Zn15 Zn 1.00668 0.75444 0.69533 0.0
O16 O 0.97646 0.75423 0.70653 0.0
O17 O 0.96882 0.72346 0.72653 0.0
O18 O 1.01219 0.782 0.67596 0.0
O19 O 0.02699 0.73661 0.74457 0.0
O20 O 0.03335 0.76508 0.72178 0.0
C21 C 0.96346 0.74119 0.7184 0.0
C22 C 1.00754 0.70157 0.67361 0.0
O23 O 1.00862 0.72405 0.67203 0.0
O24 O 1.00319 0.69374 0.69278 0.0
C25 C 1.00252 0.77879 0.65455 0.0
O26 O 0.98841 0.75728 0.6451 0.0
C27 C 0.03926 0.75634 0.73997 0.0
Zn28 Zn 0.55297 0.83961 0.88825 0.0
Zn29 Zn 0.59585 0.85847 0.88946 0.0
O30 O 0.58792 0.88863 0.9085 0.0
O31 O 0.55131 0.87368 0.90364 0.0
O32 O 0.62895 0.86795 0.88756 0.0
O33 O 0.55684 0.81436 0.90784 0.0
O34 O 0.59288 0.8282 0.90694 0.0
C35 C 0.56858 0.89144 0.91142 0.0
C36 C 0.56415 0.83868 0.84164 0.0
O37 O 0.58286 0.8515 0.85339 0.0
O38 O 0.54833 0.82959 0.8526 0.0
C39 C 0.63771 0.88087 0.87279 0.0
O40 O 0.62531 0.89137 0.85998 0.0
C41 C 0.57659 0.81293 0.91307 0.0
Zn42 Zn 0.49311 0.19099 0.16275 0.0
Zn43 Zn 0.50839 0.24068 0.16133 0.0
O44 O 0.47759 0.23698 0.17129 0.0
O45 O 0.4645 0.19771 0.17383 0.0
O46 O 0.51774 0.2762 0.15757 0.0
O47 O 0.52076 0.19707 0.18806 0.0
O48 O 0.53095 0.23719 0.18742 0.0
C49 C 0.4623 0.21964 0.17609 0.0
C50 C 0.50584 0.20088 0.11705 0.0
O51 O 0.51131 0.2231 0.12845 0.0
O52 O 0.4964 0.18328 0.127 0.0
C53 C 0.53651 0.28456 0.15083 0.0
O54 O 0.55008 0.27015 0.14817 0.0
C55 C 0.53394 0.21848 0.19586 0.0
Zn56 Zn 0.14869 0.83873 0.11762 0.0
Zn57 Zn 0.11264 0.82895 0.14032 0.0
O58 O 0.11148 0.86031 0.12548 0.0
O59 O 0.14102 0.86836 0.1069 0.0
O60 O 0.08606 0.8251 0.15902 0.0
O61 O 0.13629 0.80416 0.09734 0.0
O62 O 0.10628 0.79679 0.11536 0.0
C63 C 0.12346 0.87357 0.11285 0.0
C64 C 0.16076 0.83657 0.16654 0.0
O65 O 0.13956 0.83058 0.16588 0.0
O66 O 0.16934 0.84271 0.14839 0.0
C67 C 0.06689 0.81033 0.15104 0.0
O68 O 0.06384 0.79611 0.12982 0.0
C69 C 0.11787 0.78977 0.09978 0.0
Zn70 Zn 0.49219 0.76308 0.44656 0.0
Zn71 Zn 0.51722 0.76048 0.41122 0.0
O72 O 0.52602 0.79749 0.42834 0.0
O73 O 0.50806 0.79894 0.45974 0.0
O74 O 0.54104 0.76029 0.38912 0.0
O75 O 0.50206 0.73629 0.46084 0.0
O76 O 0.5217 0.73317 0.43098 0.0
C77 C 0.52154 0.80977 0.4471 0.0
C78 C 0.46745 0.75161 0.39722 0.0
O79 O 0.48636 0.7521 0.39018 0.0
O80 O 0.46604 0.75534 0.41952 0.0
C81 C 0.5483 0.77797 0.37809 0.0
O82 O 0.53879 0.79637 0.37915 0.0
C83 C 0.51508 0.72606 0.44992 0.0
Zn84 Zn 0.6464 0.32557 0.60842 0.0
Zn85 Zn 0.6125 0.31852 0.63449 0.0
O86 O 0.61072 0.34976 0.61962 0.0
O87 O 0.63798 0.35497 0.59753 0.0
O88 O 0.58607 0.3133 0.65305 0.0
O89 O 0.63315 0.29018 0.58979 0.0
O90 O 0.60493 0.28556 0.61056 0.0
C91 C 0.62171 0.36176 0.6054 0.0
C92 C 0.66127 0.32707 0.65819 0.0
O93 O 0.64032 0.32154 0.65938 0.0
O94 O 0.66836 0.33106 0.63869 0.0
C95 C 0.58439 0.32845 0.6713 0.0
O96 O 0.60076 0.34859 0.67921 0.0
C97 C 0.61503 0.27685 0.5943 0.0
Zn98 Zn 0.99645 0.27531 0.95217 0.0
Zn99 Zn 0.02554 0.27512 0.92105 0.0
O100 O 0.03518 0.31116 0.94051 0.0
O101 O 1.01085 0.31142 0.96597 0.0
O102 O 0.05024 0.27526 0.90033 0.0
O103 O 1.00533 0.24806 0.96693 0.0
O104 O 0.02714 0.24578 0.93899 0.0
C105 C 0.0274 0.32283 0.95721 0.0
C106 C 0.97634 0.26759 0.90219 0.0
O107 O 0.99637 0.26984 0.89781 0.0
O108 O 0.97211 0.26805 0.92358 0.0
C109 C 0.05567 0.2911 0.88683 0.0
O110 O 0.04408 0.30746 0.88505 0.0
C111 C 0.01879 0.23782 0.95682 0.0
Zn112 Zn 0.46927 0.0203 0.27627 0.0
Zn113 Zn 0.43661 0.04251 0.28759 0.0
O114 O 0.46105 0.05792 0.31572 0.0
O115 O 0.48938 0.04407 0.30486 0.0
O116 O 0.41212 0.05828 0.29482 0.0
O117 O 0.46617 0.03055 0.24374 0.0
O118 O 0.44308 0.05231 0.25571 0.0
C119 C 0.48136 0.05747 0.31966 0.0
C120 C 0.4294 0.98659 0.28452 0.0
O121 O 0.42241 1.00601 0.28624 0.0
O122 O 0.44942 0.98761 0.2814 0.0
C123 C 0.39238 0.04824 0.28412 0.0
O124 O 0.38828 0.02704 0.26911 0.0
C125 C 0.45436 0.04529 0.23992 0.0
Zn126 Zn 0.26655 0.22281 0.50342 0.0
Zn127 Zn 0.29146 0.19078 0.50453 0.0
O128 O 0.29782 0.20681 0.47433 0.0
O129 O 0.27924 0.23539 0.47514 0.0
O130 O 0.31411 0.17022 0.50659 0.0
O131 O 0.27888 0.24038 0.53706 0.0
O132 O 0.29873 0.21326 0.53869 0.0
C133 C 0.29219 0.22414 0.46535 0.0
C134 C 0.24101 0.17105 0.49864 0.0
O135 O 0.26005 0.16631 0.5001 0.0
O136 O 0.23968 0.19316 0.49918 0.0
C137 C 0.32146 0.16061 0.48839 0.0
O138 O 0.31326 0.16262 0.46685 0.0
C139 C 0.29241 0.23166 0.54888 0.0
Zn140 Zn 0.16676 0.0569 0.79571 0.0
Zn141 Zn 0.19097 0.02667 0.79146 0.0
O142 O 0.17363 0.02511 0.82609 0.0
O143 O 0.15421 0.05283 0.82656 0.0
O144 O 0.21157 0.99774 0.7894 0.0
O145 O 0.1477 0.04553 0.76341 0.0
O146 O 0.16944 0.02102 0.75513 0.0
C147 C 0.1605 0.03683 0.83675 0.0
C148 C 0.21128 0.08558 0.79432 0.0
O149 O 0.21504 0.06385 0.79301 0.0
O150 O 0.19167 0.08723 0.79643 0.0
C151 C 0.20547 0.97392 0.78927 0.0
O152 O 0.18426 0.96427 0.7904 0.0
C153 C 0.15371 0.03083 0.7479 0.0
Zn154 Zn 0.38225 0.95852 0.02433 0.0
Zn155 Zn 0.33991 0.96085 0.01344 0.0
O156 O 0.34127 0.93337 0.98653 0.0
O157 O 0.377 0.93427 0.99259 0.0
O158 O 0.30928 0.96613 1.00755 0.0
O159 O 0.37471 0.94646 0.05467 0.0
O160 O 0.34066 0.9504 0.04645 0.0
C161 C 0.35781 0.92572 0.98026 0.0
C162 C 0.38015 1.00604 0.01655 0.0
O163 O 0.35963 0.99477 1.01042 0.0
O164 O 0.39371 0.99507 0.02501 0.0
C165 C 0.3051 0.97921 0.99226 0.0
O166 O 0.32033 0.98724 0.97886 0.0
C167 C 0.35535 0.94497 0.06029 0.0
Zn168 Zn 0.36742 0.37633 0.0522 0.0
Zn169 Zn 0.33758 0.40259 0.04918 0.0
O170 O 0.33172 0.38022 0.01552 0.0
O171 O 0.35705 0.35923 0.01764 0.0
O172 O 0.31358 0.42145 0.04783 0.0
O173 O 0.35526 0.36215 0.0798 0.0
O174 O 0.33141 0.38507 0.07878 0.0
C175 C 0.34128 0.36456 1.0056 0.0
C176 C 0.38802 0.42844 0.0578 0.0
O177 O 0.36786 0.42963 0.05339 0.0
O178 O 0.39221 0.40787 0.05934 0.0
C179 C 0.30618 0.42757 0.02863 0.0
O180 O 0.31477 0.42228 1.00894 0.0
C181 C 0.33973 0.36975 0.0885 0.0
Zn182 Zn 0.76096 0.14197 0.03115 0.0
Zn183 Zn 0.78869 0.1175 0.04674 0.0
O184 O 0.79939 0.1265 0.01511 0.0
O185 O 0.77387 0.14344 1.0007 0.0
O186 O 0.81179 0.10089 0.05797 0.0
O187 O 0.77152 0.1695 0.05964 0.0
O188 O 0.7916 0.14676 0.07455 0.0
C189 C 0.79112 0.13579 0.9985 0.0
C190 C 0.73908 0.09274 0.03681 0.0
O191 O 0.75872 0.09071 0.0423 0.0
O192 O 0.73584 0.1129 0.03225 0.0
C193 C 0.80975 0.07787 0.05106 0.0
O194 O 0.79142 0.06419 0.03732 0.0
C195 C 0.7843 0.16609 0.07674 0.0
Zn196 Zn 0.12403 0.57299 0.23066 0.0
Zn197 Zn 0.15072 0.50717 0.24153 0.0
O198 O 0.12412 0.50692 0.26019 0.0
O199 O 0.12433 0.53945 0.24408 0.0
O200 O 0.16499 0.48043 0.24712 0.0
O201 O 0.13309 0.53895 0.22 0.0
O202 O 0.14075 0.5046 0.20539 0.0
C203 C 0.11589 0.52511 0.25811 0.0
C204 C 0.16887 0.55907 0.25186 0.0
O205 O 0.1753 0.53986 0.25439 0.0
O206 O 0.14861 0.55538 0.24235 0.0
C207 C 0.17282 0.48062 0.26861 0.0
O208 O 0.16838 0.49596 0.28608 0.0
C209 C 0.13358 0.52306 0.20157 0.0
Zn210 Zn 0.8625 0.87334 0.55931 0.0
Zn211 Zn 0.83472 0.9019 0.55396 0.0
O212 O 0.82859 0.87806 0.52114 0.0
O213 O 0.85204 0.85502 0.52494 0.0
O214 O 0.81142 0.92135 0.55084 0.0
O215 O 0.84916 0.86183 0.58774 0.0
O216 O 0.82759 0.88704 0.58465 0.0
C217 C 0.83721 0.8611 0.51212 0.0
C218 C 0.88535 0.92508 0.56281 0.0
O219 O 0.86568 0.92749 0.55768 0.0
O220 O 0.88826 0.90419 0.56549 0.0
C221 C 0.80481 0.92692 0.53105 0.0
O222 O 0.81418 0.92112 0.51207 0.0
C223 C 0.83448 0.87166 0.59567 0.0
Zn224 Zn 0.97037 0.03848 0.26407 0.0
Zn225 Zn 0.94737 0.06959 0.26927 0.0
O226 O 0.96826 0.07296 0.30565 0.0
O227 O 0.989 0.04752 0.29668 0.0
O228 O 0.93126 0.10256 0.27204 0.0
O229 O 0.98373 0.04274 0.23371 0.0
O230 O 0.96501 0.07108 0.23475 0.0
C231 C 0.98326 0.06204 0.31259 0.0
C232 C 0.92495 1.011 0.26449 0.0
O233 O 0.92178 0.03309 0.26698 0.0
O234 O 0.94436 1.00892 0.26191 0.0
C235 C 0.91053 0.10374 0.27046 0.0
O236 O 0.89513 0.08252 0.26689 0.0
C237 C 0.97789 0.05919 0.22384 0.0
Zn238 Zn 0.25011 0.63151 0.56061 0.0
Zn239 Zn 0.28605 0.61636 0.56425 0.0
O240 O 0.27958 0.61823 0.5286 0.0
O241 O 0.24586 0.6238 0.52455 0.0
O242 O 0.31428 0.60546 0.56553 0.0
O243 O 0.26635 0.66576 0.57781 0.0
O244 O 0.29438 0.65008 0.58717 0.0
C245 C 0.26269 0.6202 0.5153 0.0
C246 C 0.24585 0.58924 0.58369 0.0
O247 O 0.26437 0.58874 0.5764 0.0
O248 O 0.23685 0.60643 0.58023 0.0
C249 C 0.313 0.58297 0.55692 0.0
O250 O 0.29336 0.56784 0.54788 0.0
C251 C 0.28529 0.66807 0.58948 0.0
Zn252 Zn 0.47125 0.54348 0.76462 0.0
Zn253 Zn 0.44762 0.57395 0.76899 0.0
O254 O 0.46847 0.57812 0.80565 0.0
O255 O 0.49015 0.55366 0.79698 0.0
O256 O 0.42801 0.604 0.77139 0.0
O257 O 0.48411 0.54713 0.73394 0.0
O258 O 0.46515 0.57526 0.73436 0.0
C259 C 0.48392 0.56786 0.81277 0.0
C260 C 0.4264 0.51513 0.7651 0.0
O261 O 0.42282 0.53697 0.76657 0.0
O262 O 0.44602 0.51339 0.76334 0.0
C263 C 0.43457 0.62787 0.77173 0.0
O264 O 0.45585 0.6371 0.77062 0.0
C265 C 0.47806 0.56321 0.72368 0.0
Zn266 Zn 0.66782 0.0734 0.67788 0.0
Zn267 Zn 0.68194 0.04686 0.7088 0.0
O268 O 0.65897 0.06008 0.72578 0.0
O269 O 0.6447 0.07909 0.69953 0.0
O270 O 0.69504 0.02875 0.73115 0.0
O271 O 0.66153 0.04264 0.65294 0.0
O272 O 0.66924 0.01973 0.679 0.0
C273 C 0.64519 0.0721 0.71964 0.0
C274 C 0.71387 0.09239 0.6961 0.0
O275 O 0.70969 0.07387 0.70667 0.0
O276 O 0.69849 0.09692 0.68274 0.0
C277 C 0.706 0.03933 0.7516 0.0
O278 O 0.70646 0.06248 0.75993 0.0
C279 C 0.66285 0.02185 0.65773 0.0
Zn280 Zn 0.76678 0.72585 0.01331 0.0
Zn281 Zn 0.79486 0.69854 1.01103 0.0
O282 O 0.79825 0.71601 0.98114 0.0
O283 O 0.7722 0.73616 0.98198 0.0
O284 O 0.81858 0.67934 1.00979 0.0
O285 O 0.78244 0.74686 0.0446 0.0
O286 O 0.80336 0.72074 0.0453 0.0
C287 C 0.78743 0.72954 0.97174 0.0
C288 C 0.74533 0.67438 1.011 0.0
O289 O 0.76468 0.67157 1.00815 0.0
O290 O 0.74221 0.69587 0.01429 0.0
C291 C 0.8391 0.69121 0.01244 0.0
O292 O 0.84432 0.71559 0.01592 0.0
C293 C 0.79723 0.7392 0.05567 0.0
Zn294 Zn 0.95771 0.54523 0.79854 0.0
Zn295 Zn 0.93212 0.57362 0.81349 0.0
O296 O 0.96126 0.58895 0.83643 0.0
O297 O 0.98424 0.57022 0.8191 0.0
O298 O 0.91118 0.59404 0.82253 0.0
O299 O 0.94813 0.54769 0.76432 0.0
O300 O 0.93262 0.57697 0.77827 0.0
C301 C 0.98086 0.58621 0.83547 0.0
C302 C 0.92159 0.51933 0.81921 0.0
O303 O 0.91589 0.53941 0.819 0.0
O304 O 0.94003 0.51729 0.81281 0.0
C305 C 0.89088 0.58447 0.8134 0.0
O306 O 0.88519 0.56206 0.80031 0.0
C307 C 0.93818 0.56411 0.76075 0.0
Zn308 Zn 0.89158 0.45999 0.50507 0.0
Zn309 Zn 0.85564 0.47647 0.50102 0.0
O310 O 0.84807 0.4445 0.47536 0.0
O311 O 0.87558 0.42764 0.48362 0.0
O312 O 0.82767 0.48817 0.49933 0.0
O313 O 0.89252 0.46358 0.54094 0.0
O314 O 0.85983 0.47175 0.53611 0.0
C315 C 0.85717 0.42662 0.47148 0.0
C316 C 0.89861 0.50601 0.48763 0.0
O317 O 0.87915 0.50531 0.49291 0.0
O318 O 0.90719 0.48825 0.48998 0.0
C319 C 0.82886 0.51019 0.5095 0.0
O320 O 0.84832 0.52462 0.52015 0.0
C321 C 0.87559 0.46774 0.54962 0.0
Zn322 Zn 0.66507 0.55163 0.29441 0.0
Zn323 Zn 0.6883 0.5206 0.2896 0.0
O324 O 0.67105 0.51881 0.32417 0.0
O325 O 0.6533 0.54809 0.32572 0.0
O326 O 0.70778 0.49046 0.28666 0.0
O327 O 0.64528 0.541 0.26263 0.0
O328 O 0.66714 0.51695 0.25322 0.0
C329 C 0.65881 0.53135 0.33541 0.0
C330 C 0.7098 0.57935 0.29323 0.0
O331 O 0.71322 0.5575 0.29249 0.0
O332 O 0.6902 0.58147 0.29439 0.0
C333 C 0.70099 0.46661 0.28622 0.0
O334 O 0.6797 0.45767 0.28749 0.0
C335 C 0.65142 0.52706 0.24654 0.0
La336 La 0.04509 0.033 0.01584 0.0
La337 La 0.08965 0.06874 0.0417 0.0
C338 C 1.00458 1.0091 1.00728 0.0
C339 C 0.98488 1.01258 0.01793 0.0
C340 C 0.96347 0.99967 1.00632 0.0
C341 C 0.94467 1.00444 0.01551 0.0
C342 C 0.94703 0.02211 0.03659 0.0
C343 C 0.96865 0.03438 0.04854 0.0
C344 C 0.98739 0.02986 0.03912 0.0
C345 C 0.07648 0.03396 0.98519 0.0
C346 C 0.05464 0.09134 0.01617 0.0
C347 C 0.13056 0.09009 0.04751 0.0
C348 C 0.14826 0.0803 0.03788 0.0
C349 C 0.17086 0.09257 0.04528 0.0
C350 C 0.18738 0.08168 0.03728 0.0
C351 C 0.18138 0.05832 0.02201 0.0
C352 C 0.1587 0.04654 0.01415 0.0
C353 C 0.14232 0.05744 0.02201 0.0
C354 C 0.05876 0.06671 0.07286 0.0
C355 C 0.07921 1.0116 0.04431 0.0
O356 O 0.01354 0.02648 0.9957 0.0
O357 O 0.01962 1.00327 0.02136 0.0
O358 O 0.05613 0.02014 0.98122 0.0
O359 O 0.07831 0.04565 1.0067 0.0
O360 O 0.03975 0.06948 0.01285 0.0
O361 O 0.07551 0.09511 0.02604 0.0
O362 O 0.12084 0.07808 0.06322 0.0
O363 O 0.11603 0.09407 0.03132 0.0
O364 O 0.07914 0.08065 0.07691 0.0
O365 O 0.05651 0.05548 0.05107 0.0
O366 O 0.09469 0.0323 0.04439 0.0
O367 O 0.05801 1.00874 0.03624 0.0
H368 H 0.96131 0.98643 0.9898 0.0
H369 H 0.92835 0.99497 1.00555 0.0
H370 H 0.97115 0.04782 0.06497 0.0
H371 H 1.00387 0.04026 0.04804 0.0
H372 H 0.17569 0.11019 0.0576 0.0
H373 H 0.20477 0.09106 0.04369 0.0
H374 H 0.15362 0.02871 1.00214 0.0
H375 H 0.12495 0.04773 0.01604 0.0
La376 La 0.30396 0.77001 0.25795 0.0
La377 La 0.29903 0.77999 0.31026 0.0
C378 C 0.30423 0.77292 0.21433 0.0
C379 C 0.30954 0.79395 0.2017 0.0
C380 C 0.32545 0.8161 0.21258 0.0
C381 C 0.32966 0.83635 0.20084 0.0
C382 C 0.31811 0.83477 0.17793 0.0
C383 C 0.30212 0.81255 0.16715 0.0
C384 C 0.29784 0.79234 0.17899 0.0
C385 C 0.33384 0.75855 0.28731 0.0
C386 C 0.3247 0.82402 0.28974 0.0
C387 C 0.29834 0.77701 0.35376 0.0
C388 C 0.29301 0.75563 0.36595 0.0
C389 C 0.30663 0.75558 0.38698 0.0
C390 C 0.30304 0.7346 0.39771 0.0
C391 C 0.28574 0.71329 0.38754 0.0
C392 C 0.272 0.71345 0.36651 0.0
C393 C 0.27565 0.73443 0.35576 0.0
C394 C 0.27056 0.79343 0.28142 0.0
C395 C 0.27747 0.72604 0.27792 0.0
O396 O 0.32092 0.76936 0.22792 0.0
O397 O 0.28636 0.77104 0.22492 0.0
O398 O 0.32597 0.74614 0.2658 0.0
O399 O 0.32583 0.77692 0.29084 0.0
O400 O 0.31583 0.81052 0.26834 0.0
O401 O 0.32281 0.81479 0.30962 0.0
O402 O 0.28181 0.78081 0.34013 0.0
O403 O 0.31636 0.7791 0.34343 0.0
O404 O 0.27895 0.80556 0.30289 0.0
O405 O 0.27721 0.77405 0.27744 0.0
O406 O 0.28593 0.73932 0.29957 0.0
O407 O 0.28048 0.73531 0.25826 0.0
H408 H 0.33466 0.81781 0.23016 0.0
H409 H 0.34188 0.85328 0.20975 0.0
H410 H 0.29319 0.8106 0.14937 0.0
H411 H 0.28541 0.77543 0.17041 0.0
H412 H 0.32022 0.77169 0.39496 0.0
H413 H 0.31364 0.73517 0.41415 0.0
H414 H 0.25865 0.69725 0.35821 0.0
H415 H 0.26506 0.73392 0.33933 0.0
La416 La 0.58869 0.04823 0.5062 0.0
La417 La 0.53904 0.04006 0.51152 0.0
C418 C 0.6291 0.04813 0.50561 0.0
C419 C 0.64491 0.03276 0.50768 0.0
C420 C 0.66462 0.03904 0.49753 0.0
C421 C 0.6806 0.02572 0.49973 0.0
C422 C 0.67726 1.00578 0.51223 0.0
C423 C 0.65738 0.99941 0.5224 0.0
C424 C 0.64124 1.01272 0.52002 0.0
C425 C 0.56451 0.06278 0.47354 0.0
C426 C 0.55524 0.99447 0.49019 0.0
C427 C 0.4986 0.04043 0.51151 0.0
C428 C 0.48325 0.05658 0.51036 0.0
C429 C 0.46692 0.05492 0.52574 0.0
C430 C 0.4507 0.06805 0.52382 0.0
C431 C 0.45039 0.08318 0.50638 0.0
C432 C 0.46714 0.08528 0.49129 0.0
C433 C 0.48343 0.07213 0.49327 0.0
C434 C 0.56315 0.02514 0.54388 0.0
C435 C 0.57346 0.09383 0.52868 0.0
O436 O 0.61414 0.04189 0.48639 0.0
O437 O 0.62092 0.05524 0.52498 0.0
O438 O 0.58545 0.0731 0.48096 0.0
O439 O 0.55833 0.04384 0.48278 0.0
O440 O 0.57587 1.00777 0.49889 0.0
O441 O 0.53799 1.00431 0.48986 0.0
O442 O 0.51294 0.0448 0.53106 0.0
O443 O 0.50729 0.0345 0.49215 0.0
O444 O 0.54224 1.01459 0.53632 0.0
O445 O 0.56916 0.04411 0.53463 0.0
O446 O 0.5525 0.08082 0.52072 0.0
O447 O 0.59039 0.08363 0.52792 0.0
H448 H 0.66779 0.05452 0.48805 0.0
H449 H 0.69582 0.03139 0.49201 0.0
H450 H 0.65423 0.98401 0.53195 0.0
H451 H 0.62601 1.00745 0.52781 0.0
H452 H 0.46633 0.04289 0.53892 0.0
H453 H 0.43795 0.06565 0.53551 0.0
H454 H 0.4676 0.097 0.47787 0.0
H455 H 0.49588 0.07378 0.48119 0.0
La456 La 0.29272 0.30131 0.77506 0.0
La457 La 0.34369 0.29827 0.77929 0.0
C458 C 0.25105 0.28868 0.77495 0.0
C459 C 0.23301 0.29542 0.78726 0.0
C460 C 0.21239 0.29327 0.77368 0.0
C461 C 0.1939 0.29568 0.785 0.0
C462 C 0.19563 0.30008 0.8102 0.0
C463 C 0.21659 0.3033 0.82378 0.0
C464 C 0.23512 0.30107 0.81243 0.0
C465 C 0.32166 0.34611 0.77581 0.0
C466 C 0.32249 0.31458 0.82618 0.0
C467 C 0.38535 0.31186 0.7798 0.0
C468 C 0.40445 0.30621 0.76881 0.0
C469 C 0.42479 0.31006 0.7836 0.0
C470 C 0.44428 0.30933 0.77362 0.0
C471 C 0.44389 0.30483 0.74856 0.0
C472 C 0.42322 0.29964 0.73376 0.0
C473 C 0.40368 0.30036 0.74379 0.0
C474 C 0.31491 0.25357 0.77902 0.0
C475 C 0.31372 0.28423 0.7282 0.0
O476 O 0.26071 0.30335 0.76106 0.0
O477 O 0.26531 0.28027 0.78758 0.0
O478 O 0.30002 0.34179 0.77388 0.0
O479 O 0.32531 0.32526 0.77755 0.0
O480 O 0.30225 0.30945 0.8138 0.0
O481 O 0.34071 0.31352 0.81617 0.0
O482 O 0.37587 0.2974 0.79396 0.0
O483 O 0.37087 0.3191 0.76623 0.0
O484 O 0.33657 0.25792 0.78085 0.0
O485 O 0.31114 0.27434 0.77707 0.0
O486 O 0.33398 0.2893 0.74053 0.0
O487 O 0.29559 0.28583 0.7382 0.0
H488 H 0.21033 0.28873 0.75426 0.0
H489 H 0.17799 0.2929 0.77401 0.0
H490 H 0.21857 0.30709 0.84321 0.0
H491 H 0.25086 0.30289 0.82338 0.0
H492 H 0.4258 0.31468 0.80293 0.0
H493 H 0.45979 0.31292 0.78556 0.0
H494 H 0.42229 0.29624 0.7144 0.0
H495 H 0.3882 0.29738 0.73194 0.0
La496 La 0.06746 0.0707 0.54111 0.0
La497 La 0.06282 0.01728 0.52066 0.0
C498 C 0.07781 0.11747 0.54991 0.0
C499 C 0.08359 0.13799 0.5366 0.0
C500 C 0.0758 0.15901 0.54276 0.0
C501 C 0.08208 0.17941 0.53148 0.0
C502 C 0.09646 0.17928 0.5139 0.0
C503 C 0.10392 0.15793 0.50742 0.0
C504 C 0.09749 0.13742 0.51863 0.0
C505 C 0.0315 0.03932 0.54924 0.0
C506 C 0.04828 0.04968 0.48409 0.0
C507 C 0.05066 0.9705 0.51356 0.0
C508 C 0.04734 0.95153 0.5289 0.0
C509 C 0.04656 0.92697 0.51921 0.0
C510 C 0.04245 0.90852 0.53327 0.0
C511 C 0.03908 0.91434 0.55734 0.0
C512 C 0.0402 0.93912 0.56707 0.0
C513 C 0.04425 0.95754 0.55297 0.0
C514 C 0.09901 0.04834 0.51268 0.0
C515 C 0.08366 0.03901 0.57736 0.0
O516 O 0.05715 0.10376 0.54551 0.0
O517 O 0.09218 0.1042 0.55166 0.0
O518 O 0.04221 0.05933 0.56426 0.0
O519 O 0.04018 0.0385 0.53021 0.0
O520 O 0.05731 0.06921 0.50174 0.0
O521 O 0.04736 0.02679 0.48791 0.0
O522 O 0.07128 0.98327 0.51378 0.0
O523 O 0.03684 0.98463 0.51462 0.0
O524 O 0.08866 0.02796 0.49785 0.0
O525 O 0.08997 0.04944 0.53149 0.0
O526 O 0.07517 0.01936 0.55973 0.0
O527 O 0.08351 0.06164 0.57362 0.0
H528 H 0.065 0.15975 0.5565 0.0
H529 H 0.07555 0.19526 0.53651 0.0
H530 H 0.11508 0.15722 0.49406 0.0
H531 H 0.10366 0.12131 0.5135 0.0
H532 H 0.04893 0.922 0.50068 0.0
H533 H 0.04201 0.8897 0.52531 0.0
H534 H 0.03741 0.94421 0.58542 0.0
H535 H 0.04462 0.97638 0.56076 0.0
La536 La 0.34311 0.8223 0.77702 0.0
La537 La 0.30262 0.78535 0.78377 0.0
C538 C 0.38162 0.85077 0.77988 0.0
C539 C 0.40278 0.84868 0.77154 0.0
C540 C 0.41539 0.86802 0.76185 0.0
C541 C 0.43587 0.86667 0.75445 0.0
C542 C 0.44408 0.84592 0.75668 0.0
C543 C 0.4309 0.82617 0.7656 0.0
C544 C 0.41045 0.82753 0.7729 0.0
C545 C 0.31852 0.79569 0.73694 0.0
C546 C 0.34617 0.76499 0.78079 0.0
C547 C 0.26342 0.75766 0.77724 0.0
C548 C 0.24115 0.76203 0.77777 0.0
C549 C 0.22441 0.74532 0.78615 0.0
C550 C 0.20323 0.74942 0.78685 0.0
C551 C 0.19852 0.77053 0.77944 0.0
C552 C 0.21556 0.7874 0.77142 0.0
C553 C 0.23651 0.78301 0.7703 0.0
C554 C 0.32788 0.80981 0.82387 0.0
C555 C 0.29975 0.84265 0.78142 0.0
O556 O 0.36529 0.84899 0.76292 0.0
O557 O 0.37498 0.83838 0.79673 0.0
O558 O 0.32953 0.81868 0.73915 0.0
O559 O 0.32277 0.78865 0.75623 0.0
O560 O 0.35681 0.78886 0.78093 0.0
O561 O 0.32401 0.75886 0.78021 0.0
O562 O 0.27642 0.76345 0.79789 0.0
O563 O 0.27408 0.76509 0.75984 0.0
O564 O 0.31631 0.78683 0.82077 0.0
O565 O 0.32367 0.81863 0.80544 0.0
O566 O 0.28908 0.81868 0.78 0.0
O567 O 0.32195 0.84884 0.78295 0.0
H568 H 0.40957 0.88437 0.76036 0.0
H569 H 0.44549 0.88211 0.7475 0.0
H570 H 0.43681 0.81011 0.76809 0.0
H571 H 0.40094 0.81231 0.78016 0.0
H572 H 0.22766 0.72897 0.79192 0.0
H573 H 0.19046 0.73574 0.79269 0.0
H574 H 0.21276 0.80404 0.76591 0.0
H575 H 0.24901 0.79599 0.76342 0.0
La576 La 0.55139 0.09558 0.01433 0.0
La577 La 0.55069 0.08109 0.96059 0.0
C578 C 0.54881 0.11787 0.05543 0.0
C579 C 0.53052 0.11789 0.06963 0.0
C580 C 0.50862 0.10451 0.05982 0.0
C581 C 0.49178 0.10164 0.07437 0.0
C582 C 0.49672 0.11178 0.09901 0.0
C583 C 0.51832 0.1269 0.10826 0.0
C584 C 0.53512 0.12991 0.09362 0.0
C585 C 0.54138 0.04716 0.99808 0.0
C586 C 0.50713 0.09017 0.97783 0.0
C587 C 0.55384 0.0619 0.91866 0.0
C588 C 0.55086 0.06765 0.89453 0.0
C589 C 0.55296 0.09219 0.89124 0.0
C590 C 0.55515 0.09827 0.86857 0.0
C591 C 0.55514 0.07985 0.84895 0.0
C592 C 0.55082 0.05495 0.85196 0.0
C593 C 0.54879 0.04893 0.87466 0.0
C594 C 0.55996 0.12954 0.97759 0.0
C595 C 0.59179 0.0811 0.99807 0.0
O596 O 0.55459 0.097 0.05165 0.0
O597 O 0.54708 0.12701 0.03587 0.0
O598 O 0.5509 0.05776 0.01964 0.0
O599 O 0.53601 0.06338 0.98768 0.0
O600 O 0.51853 0.09793 0.99966 0.0
O601 O 0.51554 0.08008 0.95959 0.0
O602 O 0.53585 0.05563 0.92879 0.0
O603 O 0.57049 0.07735 0.93349 0.0
O604 O 0.54954 0.11878 0.95639 0.0
O605 O 0.56614 0.11324 0.98721 0.0
O606 O 0.57869 0.06962 0.97776 0.0
O607 O 0.58616 0.09795 0.01313 0.0
H608 H 0.50475 0.09529 0.04123 0.0
H609 H 0.47522 0.09027 0.06664 0.0
H610 H 0.52275 0.13485 0.12718 0.0
H611 H 0.55193 0.14051 0.10133 0.0
H612 H 0.5544 0.10687 0.90643 0.0
H613 H 0.55831 0.11756 0.86668 0.0
H614 H 0.55096 0.04038 0.83725 0.0
H615 H 0.54711 0.02989 0.87695 0.0
La616 La 0.32461 0.31627 0.28467 0.0
La617 La 0.29265 0.26781 0.26236 0.0
C618 C 0.34365 0.36176 0.29619 0.0
C619 C 0.33385 0.38278 0.29467 0.0
C620 C 0.33247 0.39852 0.31574 0.0
C621 C 0.31851 0.41445 0.31518 0.0
C622 C 0.30584 0.41489 0.29351 0.0
C623 C 0.30856 0.40042 0.27221 0.0
C624 C 0.32241 0.38456 0.27277 0.0
C625 C 0.32174 0.28227 0.31206 0.0
C626 C 0.27215 0.30876 0.28476 0.0
C627 C 0.27182 0.22262 0.25074 0.0
C628 C 0.27903 0.19975 0.25064 0.0
C629 C 0.29928 0.19803 0.24268 0.0
C630 C 0.30844 0.17878 0.24722 0.0
C631 C 0.29737 0.16082 0.25955 0.0
C632 C 0.27634 0.16145 0.26595 0.0
C633 C 0.26727 0.18095 0.26164 0.0
C634 C 0.29709 0.30236 0.23507 0.0
C635 C 0.34475 0.27562 0.26037 0.0
O636 O 0.33608 0.34803 0.31168 0.0
O637 O 0.34468 0.34825 0.2757 0.0
O638 O 0.33977 0.29914 0.31114 0.0
O639 O 0.30575 0.28569 0.2987 0.0
O640 O 0.29187 0.32455 0.28547 0.0
O641 O 0.26901 0.28464 0.2785 0.0
O642 O 0.27932 0.23643 0.23527 0.0
O643 O 0.27337 0.23581 0.27209 0.0
O644 O 0.2786 0.28572 0.23498 0.0
O645 O 0.31202 0.29799 0.24889 0.0
O646 O 0.32534 0.25967 0.26083 0.0
O647 O 0.3478 0.29977 0.26687 0.0
H648 H 0.3411 0.39741 0.33284 0.0
H649 H 0.31695 0.42565 0.33182 0.0
H650 H 0.29883 0.4 0.25524 0.0
H651 H 0.32293 0.37257 0.25618 0.0
H652 H 0.30857 0.21217 0.23395 0.0
H653 H 0.32458 0.1784 0.24188 0.0
H654 H 0.26758 0.14773 0.27551 0.0
H655 H 0.25165 0.18205 0.26797 0.0
La656 La 0.5704 0.57534 0.04097 0.0
La657 La 0.56317 0.52172 0.01969 0.0
C658 C 0.58449 0.62202 0.04863 0.0
C659 C 0.58584 0.64138 0.03387 0.0
C660 C 0.58857 0.66607 0.04484 0.0
C661 C 0.58977 0.6846 0.03092 0.0
C662 C 0.58804 0.67861 1.00579 0.0
C663 C 0.58557 0.65386 0.99491 0.0
C664 C 0.58462 0.63544 1.00884 0.0
C665 C 0.53288 0.54623 0.04772 0.0
C666 C 0.54901 0.55493 0.984 0.0
C667 C 0.54965 0.47518 0.01289 0.0
C668 C 0.55127 0.45654 0.02786 0.0
C669 C 0.57041 0.45956 0.04441 0.0
C670 C 0.57086 0.44274 0.05997 0.0
C671 C 0.55211 0.42279 0.05933 0.0
C672 C 0.53312 0.41966 0.04248 0.0
C673 C 0.53272 0.4364 0.02688 0.0
C674 C 0.60145 0.551 0.01456 0.0
C675 C 0.58455 0.54174 0.07664 0.0
O676 O 0.56439 0.6102 0.05166 0.0
O677 O 0.59702 0.60692 0.0438 0.0
O678 O 0.54432 0.56549 0.06336 0.0
O679 O 0.54184 0.54483 0.0288 0.0
O680 O 0.55818 0.57413 1.00197 0.0
O681 O 0.54782 0.5319 0.98739 0.0
O682 O 0.56826 0.4871 1.00636 0.0
O683 O 0.53749 0.49001 0.02013 0.0
O684 O 0.59064 0.53177 0.99852 0.0
O685 O 0.59138 0.55197 0.03258 0.0
O686 O 0.57585 0.52261 0.05846 0.0
O687 O 0.58525 0.56479 0.07348 0.0
H688 H 0.58965 0.67098 0.06416 0.0
H689 H 0.59149 0.7035 0.03974 0.0
H690 H 0.58446 0.64877 0.97561 0.0
H691 H 0.58298 0.61661 1.00003 0.0
H692 H 0.58485 0.47515 0.04563 0.0
H693 H 0.58564 0.44572 0.0729 0.0
H694 H 0.51854 0.40425 0.04137 0.0
H695 H 0.51777 0.43387 0.01431 0.0
La696 La 0.83428 0.31026 0.27276 0.0
La697 La 0.79437 0.27429 0.28084 0.0
C698 C 0.87301 0.3382 0.27585 0.0
C699 C 0.89441 0.33403 0.27041 0.0
C700 C 0.89539 0.31106 0.25776 0.0
C701 C 0.91603 0.30638 0.25478 0.0
C702 C 0.93597 0.32463 0.2644 0.0
C703 C 0.93478 0.34803 0.27605 0.0
C704 C 0.91414 0.35265 0.27905 0.0
C705 C 0.80946 0.2832 0.23318 0.0
C706 C 0.83783 0.25375 0.27816 0.0
C707 C 0.75617 0.2448 0.2764 0.0
C708 C 0.7329 0.24531 0.2777 0.0
C709 C 0.71903 0.2268 0.28726 0.0
C710 C 0.69623 0.22505 0.28623 0.0
C711 C 0.68691 0.24175 0.27547 0.0
C712 C 0.70114 0.26108 0.267 0.0
C713 C 0.72396 0.26288 0.26816 0.0
C714 C 0.81939 0.30133 0.32038 0.0
C715 C 0.79084 0.33086 0.27618 0.0
O716 O 0.85762 0.33435 0.25733 0.0
O717 O 0.86518 0.32843 0.29374 0.0
O718 O 0.82003 0.30636 0.2353 0.0
O719 O 0.81393 0.27607 0.25247 0.0
O720 O 0.8485 0.27741 0.27781 0.0
O721 O 0.81573 0.24792 0.27765 0.0
O722 O 0.76984 0.25186 0.29659 0.0
O723 O 0.7652 0.25326 0.25845 0.0
O724 O 0.80885 0.27813 0.31831 0.0
O725 O 0.81479 0.30839 0.3011 0.0
O726 O 0.78013 0.307 0.27567 0.0
O727 O 0.81304 0.33688 0.27729 0.0
H728 H 0.88023 0.29652 0.2508 0.0
H729 H 0.9164 0.28825 0.24561 0.0
H730 H 0.94979 0.36234 0.28406 0.0
H731 H 0.91362 0.37046 0.28886 0.0
H732 H 0.72572 0.21319 0.29485 0.0
H733 H 0.68581 0.21022 0.29329 0.0
H734 H 0.69452 0.2741 0.25836 0.0
H735 H 0.73441 0.27743 0.26078 0.0
La736 La 0.05976 0.5603 0.55742 0.0
La737 La 0.08799 0.58085 0.52127 0.0
C738 C 0.03331 0.5543 0.58772 0.0
C739 C 0.01691 0.56702 0.59672 0.0
C740 C 0.99652 0.56516 0.58263 0.0
C741 C 0.98007 0.57459 0.59272 0.0
C742 C 0.9838 0.58612 0.61698 0.0
C743 C 1.00492 0.5897 0.63036 0.0
C744 C 0.02119 0.58008 0.62038 0.0
C745 C 0.06265 0.52757 0.52055 0.0
C746 C 0.04 0.58548 0.51787 0.0
C747 C 0.1096 0.58699 0.48673 0.0
C748 C 0.1016 0.58485 0.46129 0.0
C749 C 0.07902 0.57352 0.45239 0.0
C750 C 0.07139 0.57033 0.428 0.0
C751 C 0.08623 0.57857 0.41215 0.0
C752 C 0.10868 0.5908 0.4213 0.0
C753 C 0.11632 0.59389 0.44575 0.0
C754 C 0.08613 0.61373 0.55896 0.0
C755 C 0.10765 0.55408 0.56115 0.0
O756 O 0.02863 0.5421 0.56556 0.0
O757 O 0.05434 0.56677 0.59329 0.0
O758 O 0.06104 0.52296 0.54199 0.0
O759 O 0.06101 0.54925 0.52001 0.0
O760 O 0.04146 0.58337 0.54072 0.0
O761 O 0.05497 0.58004 0.50467 0.0
O762 O 0.10483 0.56618 0.49495 0.0
O763 O 0.10542 0.60522 0.50101 0.0
O764 O 0.08842 0.61871 0.53777 0.0
O765 O 0.08692 0.59169 0.55856 0.0
O766 O 0.10957 0.56286 0.54089 0.0
O767 O 0.09048 0.55412 0.573 0.0
H768 H 0.99284 0.5555 0.56416 0.0
H769 H 0.96402 0.57169 0.58195 0.0
H770 H 1.00834 0.59817 0.64919 0.0
H771 H 0.0368 0.58187 0.63158 0.0
H772 H 0.06739 0.56662 0.4642 0.0
H773 H 0.05402 0.56096 0.42146 0.0
H774 H 0.12057 0.59699 0.40942 0.0
H775 H 0.13376 0.6028 0.45241 0.0
La776 La 0.79403 0.79802 0.28073 0.0
La777 La 0.84201 0.79271 0.28688 0.0
C778 C 0.75207 0.78567 0.27872 0.0
C779 C 0.73325 0.79088 0.2907 0.0
C780 C 0.71408 0.79251 0.2766 0.0
C781 C 0.69463 0.79332 0.28671 0.0
C782 C 0.69385 0.79229 0.31116 0.0
C783 C 0.71338 0.7917 0.32548 0.0
C784 C 0.73289 0.79106 0.31539 0.0
C785 C 0.8229 0.84277 0.28178 0.0
C786 C 0.82204 0.81032 0.33297 0.0
C787 C 0.88293 0.79494 0.28643 0.0
C788 C 0.90076 0.79971 0.27117 0.0
C789 C 0.89623 0.79362 0.24602 0.0
C790 C 0.91377 0.79617 0.23217 0.0
C791 C 0.93618 0.8049 0.2432 0.0
C792 C 0.94051 0.81161 0.26839 0.0
C793 C 0.92299 0.80903 0.28218 0.0
C794 C 0.81032 0.75282 0.29226 0.0
C795 C 0.81603 0.78642 0.23441 0.0
O796 O 0.76267 0.8021 0.26697 0.0
O797 O 0.76558 0.77555 0.29037 0.0
O798 O 0.80131 0.83847 0.28016 0.0
O799 O 0.82696 0.82209 0.28356 0.0
O800 O 0.80217 0.80497 0.31981 0.0
O801 O 0.84042 0.80922 0.32352 0.0
O802 O 0.86677 0.77459 0.27924 0.0
O803 O 0.87558 0.81381 0.29518 0.0
O804 O 0.83025 0.76062 0.30425 0.0
O805 O 0.80905 0.76715 0.27723 0.0
O806 O 0.83548 0.79063 0.24809 0.0
O807 O 0.7972 0.7861 0.24339 0.0
H808 H 0.71386 0.79214 0.25749 0.0
H809 H 0.67988 0.79357 0.27511 0.0
H810 H 0.71348 0.7913 0.34445 0.0
H811 H 0.74741 0.78984 0.32676 0.0
H812 H 0.8792 0.78646 0.23714 0.0
H813 H 0.90977 0.79118 0.21282 0.0
H814 H 0.95749 0.81809 0.27758 0.0
H815 H 0.92685 0.81372 0.30157 0.0
La816 La 0.82894 0.30636 0.75439 0.0
La817 La 0.81506 0.29535 0.80132 0.0
C818 C 0.83358 0.32169 0.71548 0.0
C819 C 0.84033 0.34553 0.70722 0.0
C820 C 0.82921 0.36424 0.712 0.0
C821 C 0.83507 0.38584 0.70225 0.0
C822 C 0.85225 0.38913 0.68784 0.0
C823 C 0.8638 0.37074 0.68387 0.0
C824 C 0.85783 0.34915 0.69339 0.0
C825 C 0.85972 0.2962 0.78357 0.0
C826 C 0.83193 0.35067 0.79759 0.0
C827 C 0.81049 0.27995 0.84023 0.0
C828 C 0.81649 0.26013 0.85121 0.0
C829 C 0.8135 0.23626 0.83788 0.0
C830 C 0.81904 0.21765 0.84886 0.0
C831 C 0.82754 0.22259 0.87344 0.0
C832 C 0.83119 0.24681 0.88648 0.0
C833 C 0.82575 0.26539 0.87543 0.0
C834 C 0.78458 0.3059 0.77219 0.0
C835 C 0.81386 0.25167 0.75834 0.0
O836 O 0.84928 0.31546 0.72812 0.0
O837 O 0.81451 0.31653 0.72393 0.0
O838 O 0.85732 0.29026 0.76041 0.0
O839 O 0.8462 0.30858 0.78936 0.0
O840 O 0.83085 0.34333 0.77421 0.0
O841 O 0.82882 0.33493 0.81259 0.0
O842 O 0.79491 0.27326 0.82151 0.0
O843 O 0.82737 0.29768 0.83742 0.0
O844 O 0.78724 0.31214 0.79534 0.0
O845 O 0.79765 0.29293 0.76636 0.0
O846 O 0.81746 0.25934 0.78195 0.0
O847 O 0.81376 0.26735 0.74346 0.0
H848 H 0.81574 0.36199 0.7228 0.0
H849 H 0.82596 0.39977 0.70565 0.0
H850 H 0.87682 0.3725 0.67248 0.0
H851 H 0.86657 0.33494 0.68944 0.0
H852 H 0.80648 0.2319 0.81915 0.0
H853 H 0.81618 0.19926 0.83826 0.0
H854 H 0.83727 0.25122 0.90552 0.0
H855 H 0.82833 0.28378 0.88596 0.0
La856 La 0.81774 0.84205 0.80109 0.0
La857 La 0.78407 0.7944 0.7787 0.0
C858 C 0.83874 0.88703 0.81286 0.0
C859 C 0.83155 0.90907 0.80873 0.0
C860 C 0.83705 0.93058 0.82648 0.0
C861 C 0.82825 0.9506 0.82317 0.0
C862 C 0.81407 0.94928 0.80199 0.0
C863 C 0.80882 0.92776 0.78426 0.0
C864 C 0.81736 0.90784 0.78763 0.0
C865 C 0.81339 0.80727 0.82764 0.0
C866 C 0.766 0.8364 0.80321 0.0
C867 C 0.76273 0.74946 0.76701 0.0
C868 C 0.77041 0.72685 0.76691 0.0
C869 C 0.78994 0.72488 0.7573 0.0
C870 C 0.80018 0.70654 0.76225 0.0
C871 C 0.79111 0.68991 0.7769 0.0
C872 C 0.77066 0.69061 0.78493 0.0
C873 C 0.76039 0.70904 0.78 0.0
C874 C 0.78979 0.82899 0.75135 0.0
C875 C 0.8359 0.79987 0.77677 0.0
O876 O 0.8279 0.87446 0.8275 0.0
O877 O 0.84097 0.87255 0.7935 0.0
O878 O 0.83193 0.82378 0.82771 0.0
O879 O 0.79807 0.81199 0.81459 0.0
O880 O 0.78543 0.85156 0.80139 0.0
O881 O 0.76224 0.81214 0.79743 0.0
O882 O 0.76987 0.76334 0.75146 0.0
O883 O 0.76429 0.76265 0.78837 0.0
O884 O 0.77085 0.81323 0.75174 0.0
O885 O 0.80438 0.82405 0.7652 0.0
O886 O 0.81616 0.78475 0.77755 0.0
O887 O 0.83982 0.82417 0.78275 0.0
H888 H 0.84771 0.93165 0.84302 0.0
H889 H 0.8324 0.96696 0.83714 0.0
H890 H 0.79746 0.92595 0.76803 0.0
H891 H 0.81239 0.89121 0.77392 0.0
H892 H 0.79805 0.73832 0.74711 0.0
H893 H 0.81575 0.70605 0.7555 0.0
H894 H 0.76337 0.67796 0.79627 0.0
H895 H 0.7454 0.71035 0.78767 0.0
La896 La 0.54699 0.52771 0.5168 0.0
La897 La 0.59126 0.56351 0.54288 0.0
C898 C 0.50643 0.5042 0.50837 0.0
C899 C 0.48664 0.50993 0.51708 0.0
C900 C 0.46528 0.49639 0.50583 0.0
C901 C 0.44647 0.50307 0.51308 0.0
C902 C 0.4488 0.52338 0.53175 0.0
C903 C 0.47034 0.5365 0.54332 0.0
C904 C 0.4891 0.52995 0.5359 0.0
C905 C 0.57847 0.52852 0.48641 0.0
C906 C 0.55676 0.58544 0.51533 0.0
C907 C 0.6319 0.58671 0.55121 0.0
C908 C 0.65198 0.58045 0.54376 0.0
C909 C 0.67302 0.59322 0.55645 0.0
C910 C 0.69206 0.58618 0.55043 0.0
C911 C 0.69034 0.56625 0.53154 0.0
C912 C 0.66914 0.55381 0.5186 0.0
C913 C 0.65013 0.56073 0.52478 0.0
C914 C 0.55977 0.56267 0.57335 0.0
C915 C 0.58126 0.50599 0.54469 0.0
O916 O 0.51614 0.51906 0.49478 0.0
O917 O 0.52082 0.50014 0.52461 0.0
O918 O 0.55816 0.51458 0.48239 0.0
O919 O 0.58038 0.5403 0.50791 0.0
O920 O 0.54168 0.56387 0.51291 0.0
O921 O 0.57762 0.58918 0.52527 0.0
O922 O 0.62183 0.573 0.56554 0.0
O923 O 0.61781 0.58985 0.53404 0.0
O924 O 0.58021 0.57626 0.57748 0.0
O925 O 0.5578 0.55088 0.55182 0.0
O926 O 0.59665 0.52704 0.54554 0.0
O927 O 0.56014 0.50294 0.53616 0.0
H928 H 0.46317 0.48103 0.49111 0.0
H929 H 0.43016 0.49281 0.50354 0.0
H930 H 0.47275 0.55199 0.55797 0.0
H931 H 0.50556 0.54077 0.54457 0.0
H932 H 0.67468 0.6083 0.57132 0.0
H933 H 0.70803 0.59591 0.56105 0.0
H934 H 0.66719 0.53863 0.50376 0.0
H935 H 0.63392 0.55047 0.51498 0.0
La936 La 0.09852 0.56268 1.01004 0.0
La937 La 0.04773 0.55589 1.00458 0.0
C938 C 0.13813 0.56087 0.02164 0.0
C939 C 0.15189 0.5432 0.02382 0.0
C940 C 0.1493 0.522 1.00619 0.0
C941 C 0.1643 0.50721 1.00751 0.0
C942 C 0.1821 0.51326 0.0265 0.0
C943 C 0.18407 0.534 0.04452 0.0
C944 C 0.16915 0.5488 0.04315 0.0
C945 C 0.08042 0.57211 0.97022 0.0
C946 C 0.06468 0.50886 0.99152 0.0
C947 C 1.00819 0.55836 0.99323 0.0
C948 C 0.99278 0.57417 0.99852 0.0
C949 C 0.97455 0.56557 1.01048 0.0
C950 C 0.95837 0.57873 0.01338 0.0
C951 C 0.9599 0.60077 1.00423 0.0
C952 C 0.97846 0.60968 0.99273 0.0
C953 C 0.99467 0.59651 0.98985 0.0
C954 C 0.06605 0.5472 0.04461 0.0
C955 C 0.08156 0.60995 0.02463 0.0
O956 O 0.12985 0.56213 0.99996 0.0
O957 O 0.12398 0.56222 0.03703 0.0
O958 O 0.10038 0.58381 0.98083 0.0
O959 O 0.07205 0.55498 0.98102 0.0
O960 O 0.08478 0.52207 1.0024 0.0
O961 O 0.0483 0.51931 0.98669 0.0
O962 O 0.01403 0.54686 1.01009 0.0
O963 O 0.02484 0.56676 0.98179 0.0
O964 O 0.04589 0.53568 0.03457 0.0
O965 O 0.0742 0.56393 0.03342 0.0
O966 O 0.06085 0.59635 0.01632 0.0
O967 O 0.09883 0.6002 0.02598 0.0
H968 H 0.13602 0.51718 0.99115 0.0
H969 H 0.16208 0.49116 0.99352 0.0
H970 H 0.19767 0.53941 0.05926 0.0
H971 H 0.17152 0.56512 0.05688 0.0
H972 H 0.9725 0.54831 0.01716 0.0
H973 H 0.94455 0.57148 0.02266 0.0
H974 H 0.98009 0.62641 0.98521 0.0
H975 H 1.00835 0.60355 0.98029 0.0
H976 H 0.02357 0.23074 1.00316 0.0
H977 H 0.02613 0.09038 0.97607 0.0
H978 H 0.02673 0.19637 0.93103 0.0
H979 H 0.06839 0.14039 0.03714 0.0
H980 H 0.01773 0.12625 0.96109 0.0
H981 H 0.032 0.19491 0.01793 0.0
C982 C 0.02602 0.21563 0.99044 0.0
C983 C 0.02457 0.21656 0.96585 0.0
C984 C 0.02875 0.12925 0.97781 0.0
C985 C 0.03354 0.17533 0.98256 0.0
C986 C 0.03339 0.10886 0.98646 0.0
C987 C 0.04795 0.11246 1.00789 0.0
C988 C 0.0382 0.15329 0.99106 0.0
C989 C 0.05712 0.13682 0.02052 0.0
C990 C 0.03085 0.19528 0.99889 0.0
C991 C 0.0279 0.19647 0.95014 0.0
N992 N 0.05191 0.1563 0.01206 0.0
N993 N 0.03195 0.17649 0.95872 0.0
H994 H 0.20261 0.86516 0.18578 0.0
H995 H 0.23843 0.76264 0.24643 0.0
H996 H 0.15296 0.79947 0.19273 0.0
H997 H 0.26523 0.83958 0.27962 0.0
H998 H 0.21021 0.77444 0.22065 0.0
H999 H 0.2291 0.85536 0.21529 0.0
C1000 C 0.1972 0.84891 0.19383 0.0
C1001 C 0.17553 0.83322 0.18704 0.0
C1002 C 0.22226 0.78867 0.23365 0.0
C1003 C 0.20591 0.82143 0.21985 0.0
C1004 C 0.2384 0.782 0.24818 0.0
C1005 C 0.25403 0.8002 0.26517 0.0
C1006 C 0.22224 0.81374 0.23567 0.0
C1007 C 0.25333 0.82502 0.2668 0.0
C1008 C 0.2123 0.84332 0.21056 0.0
C1009 C 0.16942 0.81222 0.19776 0.0
N1010 N 0.23784 0.83115 0.25203 0.0
N1011 N 0.18468 0.80666 0.21332 0.0
H1012 H 0.5353 0.83878 0.49148 0.0
H1013 H 0.52432 0.96316 0.45404 0.0
H1014 H 0.52621 0.84264 0.41624 0.0
H1015 H 0.57739 0.96436 0.5092 0.0
H1016 H 0.51844 0.91796 0.44231 0.0
H1017 H 0.54515 0.88436 0.50122 0.0
C1018 C 0.53563 0.84927 0.47704 0.0
C1019 C 0.53015 0.83705 0.45304 0.0
C1020 C 0.53142 0.92826 0.45689 0.0
C1021 C 0.54048 0.88882 0.46405 0.0
C1022 C 0.53468 0.9539 0.46366 0.0
C1023 C 0.55139 0.96742 0.48253 0.0
C1024 C 0.54448 0.9161 0.46964 0.0
C1025 C 0.56442 0.9546 0.49443 0.0
C1026 C 0.54121 0.87516 0.48259 0.0
C1027 C 0.53062 0.85144 0.43495 0.0
N1028 N 0.56048 0.92958 0.48802 0.0
N1029 N 0.53531 0.87662 0.44083 0.0
H1030 H 0.54629 0.29006 0.65805 0.0
H1031 H 0.48392 0.33951 0.76423 0.0
H1032 H 0.57567 0.35615 0.71138 0.0
H1033 H 0.45231 0.27611 0.70856 0.0
H1034 H 0.51826 0.34437 0.74623 0.0
H1035 H 0.5124 0.28337 0.6772 0.0
C1036 C 0.54567 0.30315 0.67382 0.0
C1037 C 0.56391 0.32376 0.68307 0.0
C1038 C 0.50386 0.32933 0.73796 0.0
C1039 C 0.52506 0.31616 0.70511 0.0
C1040 C 0.48424 0.3264 0.74836 0.0
C1041 C 0.46513 0.30727 0.738 0.0
C1042 C 0.50453 0.31304 0.71695 0.0
C1043 C 0.46653 0.29125 0.71708 0.0
C1044 C 0.52627 0.29931 0.68473 0.0
C1045 C 0.56207 0.34005 0.70356 0.0
N1046 N 0.48587 0.29449 0.70727 0.0
N1047 N 0.54302 0.33591 0.71385 0.0
H1048 H 0.98587 0.77746 0.60789 0.0
H1049 H 0.05471 0.9165 0.60468 0.0
H1050 H 0.03056 0.82573 0.66846 0.0
H1051 H 1.01169 0.86708 0.54364 0.0
H1052 H 0.0456 0.88385 0.62858 0.0
H1053 H 0.9947 0.81037 0.58433 0.0
C1054 C 0.99752 0.79499 0.61627 0.0
C1055 C 1.00749 0.7988 0.64022 0.0
C1056 C 0.03817 0.88014 0.60995 0.0
C1057 C 0.01772 0.83665 0.61326 0.0
C1058 C 0.04328 0.89882 0.59631 0.0
C1059 C 0.03398 0.89456 0.57207 0.0
C1060 C 0.02358 0.85698 0.59934 0.0
C1061 C 0.01951 0.87113 0.56214 0.0
C1062 C 1.00258 0.81379 0.60278 0.0
C1063 C 0.02247 0.82194 0.65008 0.0
N1064 N 0.01474 0.85328 0.5758 0.0
N1065 N 0.02713 0.83996 0.63657 0.0
H1066 H 0.57348 0.8773 0.81769 0.0
H1067 H 0.46011 0.80702 0.73737 0.0
H1068 H 0.54153 0.79902 0.80757 0.0
H1069 H 0.48152 0.88517 0.76801 0.0
H1070 H 0.49879 0.80485 0.74471 0.0
H1071 H 0.55003 0.87978 0.7815 0.0
C1072 C 0.56237 0.86039 0.80712 0.0
C1073 C 0.55884 0.83805 0.81583 0.0
C1074 C 0.49509 0.82264 0.74905 0.0
C1075 C 0.53192 0.84081 0.77498 0.0
C1076 C 0.47299 0.82387 0.74504 0.0
C1077 C 0.4674 0.84606 0.75311 0.0
C1078 C 0.5116 0.8437 0.7613 0.0
C1079 C 0.4849 0.8675 0.76198 0.0
C1080 C 0.54887 0.86185 0.78658 0.0
C1081 C 0.54428 0.81669 0.8016 0.0
N1082 N 0.50615 0.86565 0.76646 0.0
N1083 N 0.53091 0.81868 0.78214 0.0
H1084 H 0.48657 0.16118 0.08086 0.0
H1085 H 0.58601 0.16484 0.01425 0.0
H1086 H 0.54029 0.22844 0.09868 0.0
H1087 H 0.52008 0.14123 0.9735 0.0
H1088 H 0.5718 0.18942 0.04555 0.0
H1089 H 0.49972 0.15168 0.04221 0.0
C1090 C 0.50094 0.17406 0.07651 0.0
C1091 C 0.51231 0.19564 0.09291 0.0
C1092 C 0.56063 0.17942 0.02941 0.0
C1093 C 0.52759 0.1847 0.04909 0.0
C1094 C 0.56874 0.16552 1.01155 0.0
C1095 C 0.55399 0.15047 0.99174 0.0
C1096 C 0.53757 0.17725 0.02764 0.0
C1097 C 0.53181 0.15204 0.98891 0.0
C1098 C 0.50833 0.16874 0.05443 0.0
C1099 C 0.53096 0.21166 0.08644 0.0
N1100 N 0.52401 0.16433 1.00717 0.0
N1101 N 0.53833 0.20562 0.0652 0.0
H1102 H 0.1411 0.30498 0.31806 0.0
H1103 H 0.27219 0.35296 0.31334 0.0
H1104 H 0.18317 0.36927 0.36684 0.0
H1105 H 0.22828 0.28482 0.2723 0.0
H1106 H 0.23963 0.36366 0.329 0.0
H1107 H 0.17259 0.30181 0.2971 0.0
C1108 C 0.15701 0.31852 0.32437 0.0
C1109 C 0.15956 0.3372 0.34447 0.0
C1110 C 0.2372 0.34651 0.31639 0.0
C1111 C 0.19603 0.33357 0.32047 0.0
C1112 C 0.25571 0.34046 0.30737 0.0
C1113 C 0.25295 0.31776 0.29183 0.0
C1114 C 0.2159 0.32981 0.30955 0.0
C1115 C 0.23127 0.30229 0.28458 0.0
C1116 C 0.17505 0.31672 0.31232 0.0
C1117 C 0.18054 0.35445 0.35151 0.0
N1118 N 0.2137 0.30853 0.29361 0.0
N1119 N 0.1981 0.35207 0.33967 0.0
H1120 H 0.99549 0.10227 0.20405 0.0
H1121 H 0.02471 0.02672 0.08181 0.0
H1122 H 0.98004 0.02258 0.18705 0.0
H1123 H 0.05717 0.10368 0.10973 0.0
H1124 H 1.00354 0.02575 0.11647 0.0
H1125 H 0.01306 0.10422 0.16683 0.0
C1126 C 0.99522 0.08514 0.1924 0.0
C1127 C 0.98575 0.06218 0.19919 0.0
C1128 C 0.01509 0.04299 0.11493 0.0
C1129 C 1.00639 0.06427 0.15567 0.0
C1130 C 0.02712 0.04361 0.09478 0.0
C1131 C 0.04279 0.06545 0.09209 0.0
C1132 C 0.0183 0.06442 0.13291 0.0
C1133 C 0.04528 0.08637 0.11047 0.0
C1134 C 1.00557 0.08624 0.17106 0.0
C1135 C 0.9868 0.04082 0.183 0.0
N1136 N 0.03334 0.08537 0.12963 0.0
N1137 N 0.99664 0.04238 0.16243 0.0
H1138 H 0.229 0.6206 0.48089 0.0
H1139 H 0.31637 0.6918 0.40714 0.0
H1140 H 0.29959 0.62572 0.49214 0.0
H1141 H 0.24557 0.68513 0.39525 0.0
H1142 H 0.30952 0.65996 0.43213 0.0
H1143 H 0.2335 0.63539 0.44317 0.0
C1144 C 0.24538 0.62434 0.47518 0.0
C1145 C 0.26407 0.62259 0.49 0.0
C1146 C 0.29543 0.66514 0.42374 0.0
C1147 C 0.2694 0.63995 0.44706 0.0
C1148 C 0.29936 0.68343 0.40961 0.0
C1149 C 0.28155 0.69147 0.39955 0.0
C1150 C 0.27357 0.65504 0.42805 0.0
C1151 C 0.25979 0.67958 0.40278 0.0
C1152 C 0.24795 0.63284 0.45364 0.0
C1153 C 0.28479 0.62723 0.48149 0.0
N1154 N 0.25645 0.66226 0.4171 0.0
N1155 N 0.287 0.63625 0.46082 0.0
H1156 H 0.6788 1.01151 0.61603 0.0
H1157 H 0.55427 0.97836 0.55478 0.0
H1158 H 0.62511 0.98488 0.65533 0.0
H1159 H 0.60637 0.04622 0.56239 0.0
H1160 H 0.58073 0.96043 0.5767 0.0
H1161 H 0.65271 0.99794 0.57886 0.0
C1162 C 0.66181 1.0012 0.61663 0.0
C1163 C 0.65373 1.0002 0.63865 0.0
C1164 C 0.58638 0.97889 0.57269 0.0
C1165 C 0.62396 0.9856 0.59672 0.0
C1166 C 0.57136 0.98926 0.56061 0.0
C1167 C 0.57842 1.01368 0.5565 0.0
C1168 C 0.60853 0.99295 0.57997 0.0
C1169 C 0.60056 0.02709 0.56439 0.0
C1170 C 0.64688 0.99366 0.59543 0.0
C1171 C 0.6317 0.98658 0.63857 0.0
N1172 N 0.61484 0.01655 0.57572 0.0
N1173 N 0.61714 0.98075 0.61789 0.0
H1174 H 0.308 0.37061 0.97323 0.0
H1175 H 0.35811 0.31657 0.85936 0.0
H1176 H 0.36266 0.33634 0.97803 0.0
H1177 H 0.29211 0.32845 0.85356 0.0
H1178 H 0.36125 0.32706 0.90299 0.0
H1179 H 0.30256 0.35776 0.92942 0.0
C1180 C 0.31869 0.36018 0.96515 0.0
C1181 C 0.33585 0.35461 0.97941 0.0
C1182 C 0.34606 0.32733 0.89217 0.0
C1183 C 0.32996 0.34028 0.92932 0.0
C1184 C 0.3443 0.32149 0.86722 0.0
C1185 C 0.32482 0.32163 0.85269 0.0
C1186 C 0.32833 0.33368 0.9028 0.0
C1187 C 0.30743 0.32802 0.86401 0.0
C1188 C 0.3156 0.3529 0.94014 0.0
C1189 C 0.34922 0.34109 0.96787 0.0
N1190 N 0.30964 0.33391 0.88838 0.0
N1191 N 0.34613 0.33463 0.94357 0.0
H1192 H 1.00665 0.03141 0.32923 0.0
H1193 H 0.03726 0.09141 0.47017 0.0
H1194 H 0.9823 0.0937 0.35707 0.0
H1195 H 0.03692 0.01647 0.44063 0.0
H1196 H 0.02113 0.09603 0.43015 0.0
H1197 H 0.0215 0.02953 0.36967 0.0
C1198 C 1.00443 0.04502 0.34373 0.0
C1199 C 0.99293 0.06288 0.33886 0.0
C1200 C 0.02455 0.07857 0.4324 0.0
C1201 C 1.01076 0.06064 0.38701 0.0
C1202 C 0.03394 0.07588 0.4554 0.0
C1203 C 0.03871 0.05341 0.45935 0.0
C1204 C 0.02012 0.05884 0.4126 0.0
C1205 C 0.03371 0.03417 0.43902 0.0
C1206 C 0.01301 0.04373 0.36719 0.0
C1207 C 0.9909 0.07955 0.35932 0.0
N1208 N 0.02503 0.0374 0.41693 0.0
N1209 N 0.99978 0.07813 0.38223 0.0
H1210 H 0.31793 0.67384 0.62713 0.0
H1211 H 0.30789 0.74559 0.7307 0.0
H1212 H 0.27443 0.7125 0.59479 0.0
H1213 H 0.31606 0.80588 0.69114 0.0
H1214 H 0.30357 0.7165 0.69327 0.0
H1215 H 0.32757 0.70685 0.66256 0.0
C1216 C 0.31076 0.68949 0.62725 0.0
C1217 C 0.29499 0.6902 0.60825 0.0
C1218 C 0.30645 0.73612 0.69283 0.0
C1219 C 0.30571 0.7276 0.64865 0.0
C1220 C 0.30863 0.75271 0.71409 0.0
C1221 C 0.31263 0.7782 0.71397 0.0
C1222 C 0.30796 0.74502 0.67123 0.0
C1223 C 0.31316 0.78634 0.6919 0.0
C1224 C 0.31611 0.70813 0.64753 0.0
C1225 C 0.28634 0.71105 0.60931 0.0
N1226 N 0.31074 0.76968 0.67121 0.0
N1227 N 0.29167 0.72892 0.62937 0.0
H1228 H 0.60126 0.07175 0.70962 0.0
H1229 H 0.59221 0.11613 0.84691 0.0
H1230 H 0.65538 0.08701 0.76774 0.0
H1231 H 0.53932 0.05856 0.80166 0.0
H1232 H 0.61273 0.11991 0.81275 0.0
H1233 H 0.57623 0.07983 0.73912 0.0
C1234 C 0.60788 0.07714 0.72853 0.0
C1235 C 0.63023 0.07848 0.73646 0.0
C1236 C 0.59636 0.10694 0.8102 0.0
C1237 C 0.60224 0.08842 0.7697 0.0
C1238 C 0.58451 0.10491 0.82958 0.0
C1239 C 0.56414 0.08678 0.82714 0.0
C1240 C 0.5877 0.09089 0.78823 0.0
C1241 C 0.55514 0.07251 0.8043 0.0
C1242 C 0.59368 0.08172 0.74521 0.0
C1243 C 0.63815 0.0855 0.76104 0.0
N1244 N 0.56716 0.07462 0.78568 0.0
N1245 N 0.62416 0.09028 0.77681 0.0
H1246 H 0.36342 0.35223 0.12116 0.0
H1247 H 0.26765 0.30951 0.19918 0.0
H1248 H 0.30006 0.36909 0.10692 0.0
H1249 H 0.33787 0.32647 0.22585 0.0
H1250 H 0.27727 0.32839 0.16401 0.0
H1251 H 0.3525 0.33886 0.15784 0.0
C1252 C 0.34712 0.35306 0.1257 0.0
C1253 C 0.33261 0.36174 0.11083 0.0
C1254 C 0.29049 0.32821 0.17776 0.0
C1255 C 0.31991 0.34625 0.15311 0.0
C1256 C 0.28503 0.31746 0.19778 0.0
C1257 C 0.30201 0.31626 0.21534 0.0
C1258 C 0.31305 0.33738 0.17521 0.0
C1259 C 0.32425 0.32688 0.21271 0.0
C1260 C 0.34096 0.34556 0.1468 0.0
C1261 C 0.31177 0.36256 0.11788 0.0
N1262 N 0.3291 0.33666 0.19291 0.0
N1263 N 0.30591 0.35465 0.13844 0.0
H1264 H 0.29676 0.01777 0.97241 0.0
H1265 H 0.18091 1.01024 0.02344 0.0
H1266 H 0.26781 0.96221 0.0128 0.0
H1267 H 0.2207 0.07717 1.00537 0.0
H1268 H 0.20944 0.98916 0.01291 0.0
H1269 H 0.26549 0.03625 0.97736 0.0
C1270 C 0.28367 1.00923 0.98202 0.0
C1271 C 0.28496 0.98851 0.99237 0.0
C1272 C 0.2119 1.00843 1.01117 0.0
C1273 C 0.24927 1.0096 0.9981 0.0
C1274 C 0.1956 0.02043 0.01706 0.0
C1275 C 0.19851 0.04548 0.01527 0.0
C1276 C 0.23117 0.02149 1.00324 0.0
C1277 C 0.21795 0.05791 1.00719 0.0
C1278 C 0.26594 0.01991 0.98496 0.0
C1279 C 0.26756 0.97828 1.00468 0.0
N1280 N 0.23357 0.04575 1.00141 0.0
N1281 N 0.25045 0.98898 1.00727 0.0
H1282 H 0.73311 0.6271 0.98358 0.0
H1283 H 0.62859 0.58353 0.05181 0.0
H1284 H 0.71423 0.67397 0.04063 0.0
H1285 H 0.62627 0.55322 0.97705 0.0
H1286 H 0.66518 0.61114 0.05137 0.0
H1287 H 0.69874 0.59427 0.98419 0.0
C1288 C 0.72192 0.6303 0.99639 0.0
C1289 C 0.72636 0.65322 0.01201 0.0
C1290 C 0.65671 0.59845 0.03503 0.0
C1291 C 0.68765 0.61611 0.01299 0.0
C1292 C 0.63576 0.58278 0.03522 0.0
C1293 C 0.62415 0.56657 0.01425 0.0
C1294 C 0.66639 0.59775 0.0138 0.0
C1295 C 0.63461 0.56576 0.9935 0.0
C1296 C 0.70234 0.61174 0.99661 0.0
C1297 C 0.71133 0.65663 0.02816 0.0
N1298 N 0.6552 0.58129 0.99373 0.0
N1299 N 0.69275 0.63829 0.02828 0.0
H1300 H 0.68767 0.41579 0.2835 0.0
H1301 H 0.80727 0.38231 0.27857 0.0
H1302 H 0.74826 0.4726 0.28463 0.0
H1303 H 0.74493 0.32795 0.27634 0.0
H1304 H 0.78722 0.41508 0.28075 0.0
H1305 H 0.70878 0.38463 0.28096 0.0
C1306 C 0.70548 0.42206 0.28322 0.0
C1307 C 0.71567 0.44771 0.28434 0.0
C1308 C 0.77781 0.39603 0.27975 0.0
C1309 C 0.74093 0.41036 0.28134 0.0
C1310 C 0.78936 0.37699 0.27847 0.0
C1311 C 0.77817 0.35159 0.27716 0.0
C1312 C 0.75443 0.39031 0.27982 0.0
C1313 C 0.75474 0.34681 0.27723 0.0
C1314 C 0.71768 0.40382 0.28174 0.0
C1315 C 0.73913 0.4535 0.28383 0.0
N1316 N 0.74397 0.3656 0.27853 0.0
N1317 N 0.75071 0.43527 0.28241 0.0
H1318 H 0.90497 0.55392 0.50994 0.0
H1319 H 0.02367 0.57563 0.46999 0.0
H1320 H 0.92492 0.50876 0.45248 0.0
H1321 H 1.00865 0.60349 0.53965 0.0
H1322 H 0.98442 0.5682 0.45361 0.0
H1323 H 0.93841 0.58748 0.50981 0.0
C1324 C 0.91587 0.55153 0.49656 0.0
C1325 C 0.91273 0.52849 0.48165 0.0
C1326 C 0.98988 0.57674 0.47231 0.0
C1327 C 0.95073 0.56633 0.48151 0.0
C1328 C 1.01229 0.58099 0.48168 0.0
C1329 C 0.01912 0.58911 0.50641 0.0
C1330 C 0.97439 0.58051 0.48787 0.0
C1331 C 1.00381 0.59626 0.52062 0.0
C1332 C 0.93496 0.57061 0.49655 0.0
C1333 C 0.92719 0.52618 0.46464 0.0
N1334 N 0.98198 0.59117 0.51127 0.0
N1335 N 0.94587 0.54471 0.46535 0.0
H1336 H 0.34923 0.03408 0.26132 0.0
H1337 H 0.33803 0.17164 0.28604 0.0
H1338 H 0.39645 0.09397 0.31077 0.0
H1339 H 0.2828 0.11 0.25148 0.0
H1340 H 0.35868 0.14259 0.29708 0.0
H1341 H 0.32331 0.06021 0.25956 0.0
C1342 C 0.35402 0.05257 0.27208 0.0
C1343 C 0.3752 0.06205 0.28585 0.0
C1344 C 0.34197 0.1353 0.2873 0.0
C1345 C 0.34577 0.09198 0.28378 0.0
C1346 C 0.33027 0.15188 0.28088 0.0
C1347 C 0.30892 0.14305 0.26758 0.0
C1348 C 0.33237 0.10968 0.28001 0.0
C1349 C 0.29935 0.11739 0.26163 0.0
C1350 C 0.3392 0.06745 0.27108 0.0
C1351 C 0.38044 0.08602 0.29962 0.0
N1352 N 0.31131 0.10149 0.26759 0.0
N1353 N 0.36595 0.10028 0.29795 0.0
H1354 H 0.34392 0.15496 0.53034 0.0
H1355 H 0.42792 0.08912 0.46454 0.0
H1356 H 0.3418 0.13937 0.45341 0.0
H1357 H 0.43088 0.10586 0.54153 0.0
H1358 H 0.39673 0.10794 0.46015 0.0
H1359 H 0.37562 0.13687 0.53481 0.0
C1360 C 0.35003 0.14765 0.51437 0.0
C1361 C 0.3401 0.14871 0.49145 0.0
C1362 C 0.40423 0.10755 0.47802 0.0
C1363 C 0.37658 0.12804 0.49647 0.0
C1364 C 0.4222 0.09697 0.48055 0.0
C1365 C 0.43212 0.09582 0.50346 0.0
C1366 C 0.39602 0.11712 0.49851 0.0
C1367 C 0.42362 0.10597 0.5235 0.0
C1368 C 0.3682 0.13737 0.51694 0.0
C1369 C 0.34885 0.13897 0.47144 0.0
N1370 N 0.40609 0.11613 0.52055 0.0
N1371 N 0.36656 0.12909 0.47442 0.0
H1372 H 0.75585 0.59743 0.31191 0.0
H1373 H 0.76888 0.72859 0.26479 0.0
H1374 H 0.70306 0.61609 0.27004 0.0
H1375 H 0.81786 0.71712 0.31757 0.0
H1376 H 0.74606 0.68606 0.26393 0.0
H1377 H 0.78048 0.63905 0.31126 0.0
C1378 C 0.74949 0.60994 0.30225 0.0
C1379 C 0.72713 0.60284 0.291 0.0
C1380 C 0.76182 0.69279 0.27572 0.0
C1381 C 0.75537 0.65101 0.2903 0.0
C1382 C 0.77489 0.71725 0.27624 0.0
C1383 C 0.79545 0.72687 0.29136 0.0
C1384 C 0.76927 0.67733 0.29023 0.0
C1385 C 0.80218 0.71081 0.30564 0.0
C1386 C 0.76352 0.63391 0.30206 0.0
C1387 C 0.72001 0.62042 0.2791 0.0
N1388 N 0.78931 0.6871 0.30468 0.0
N1389 N 0.73387 0.64328 0.27907 0.0
H1390 H 0.93122 0.48096 0.83803 0.0
H1391 H 0.82352 0.38806 0.77639 0.0
H1392 H 0.87617 0.50812 0.81189 0.0
H1393 H 0.85763 0.37367 0.84021 0.0
H1394 H 0.84191 0.43237 0.78912 0.0
H1395 H 0.90476 0.44158 0.83985 0.0
C1396 C 0.91351 0.47874 0.8331 0.0
C1397 C 0.9058 0.49754 0.8245 0.0
C1398 C 0.8449 0.41957 0.80063 0.0
C1399 C 0.87572 0.45272 0.8261 0.0
C1400 C 0.83454 0.39436 0.79332 0.0
C1401 C 0.83933 0.37736 0.8072 0.0
C1402 C 0.86062 0.42756 0.82149 0.0
C1403 C 0.8536 0.38631 0.82903 0.0
C1404 C 0.89845 0.45641 0.83429 0.0
C1405 C 0.88273 0.49394 0.8185 0.0
N1406 N 0.86428 0.41084 0.83524 0.0
N1407 N 0.86847 0.47162 0.8188 0.0
H1408 H 0.08292 0.88491 0.11287 0.0
H1409 H 0.12144 1.00611 0.05437 0.0
H1410 H 0.14856 0.91004 0.09287 0.0
H1411 H 0.05227 0.97068 0.05703 0.0
H1412 H 0.13218 0.9731 0.07191 0.0
H1413 H 0.07193 0.91852 0.09628 0.0
C1414 C 0.09506 0.89756 0.10516 0.0
C1415 C 0.11669 0.89457 0.10423 0.0
C1416 C 0.11465 0.9725 0.06861 0.0
C1417 C 0.10423 0.93305 0.08523 0.0
C1418 C 0.10849 0.99138 0.05861 0.0
C1419 C 0.08589 0.99118 0.05414 0.0
C1420 C 0.09814 0.95335 0.07449 0.0
C1421 C 0.06987 0.97154 0.06001 0.0
C1422 C 0.08874 0.91666 0.09558 0.0
C1423 C 0.13168 0.9115 0.09392 0.0
N1424 N 0.07631 0.95349 0.06997 0.0
N1425 N 0.12519 0.92998 0.08488 0.0
H1426 H 0.97715 0.26409 0.85331 0.0
H1427 H 0.8681 0.31069 0.83223 0.0
H1428 H 0.93428 0.27156 0.9076 0.0
H1429 H 0.89013 0.26965 0.7734 0.0
H1430 H 0.89516 0.30042 0.86024 0.0
H1431 H 0.94811 0.26923 0.82346 0.0
C1432 C 0.9616 0.26651 0.85892 0.0
C1433 C 0.95824 0.26747 0.88307 0.0
C1434 C 0.89398 0.29347 0.84122 0.0
C1435 C 0.92529 0.27388 0.84919 0.0
C1436 C 0.87841 0.29921 0.82524 0.0
C1437 C 0.8765 0.29054 0.80053 0.0
C1438 C 0.90822 0.27949 0.83242 0.0
C1439 C 0.89098 0.27655 0.79238 0.0
C1440 C 0.94507 0.26945 0.84189 0.0
C1441 C 0.93772 0.2707 0.88926 0.0
N1442 N 0.90637 0.27157 0.80828 0.0
N1443 N 0.92222 0.2741 0.87255 0.0
H1444 H 0.57508 0.24344 0.5961 0.0
H1445 H 0.61401 0.12764 0.53498 0.0
H1446 H 0.63627 0.24988 0.56511 0.0
H1447 H 0.54478 0.12207 0.54231 0.0
H1448 H 0.62277 0.17222 0.54905 0.0
H1449 H 0.56371 0.19893 0.57894 0.0
C1450 C 0.58604 0.23559 0.58553 0.0
C1451 C 0.60673 0.25048 0.58214 0.0
C1452 C 0.60563 0.16131 0.54754 0.0
C1453 C 0.59393 0.19955 0.5628 0.0
C1454 C 0.60061 0.13575 0.53964 0.0
C1455 C 0.5786 0.12098 0.53753 0.0
C1456 C 0.58864 0.17237 0.55374 0.0
C1457 C 0.56197 0.13273 0.54366 0.0
C1458 C 0.57951 0.21019 0.57575 0.0
C1459 C 0.6202 0.23923 0.56825 0.0
N1460 N 0.56735 0.15775 0.55167 0.0
N1461 N 0.61367 0.21447 0.55933 0.0
H1462 H 0.56702 0.81148 0.35079 0.0
H1463 H 0.67654 0.76219 0.34199 0.0
H1464 H 0.57655 0.74755 0.37908 0.0
H1465 H 0.66209 0.81766 0.30319 0.0
H1466 H 0.64083 0.7581 0.35739 0.0
H1467 H 0.60222 0.81504 0.33427 0.0
C1468 C 0.57642 0.79808 0.35342 0.0
C1469 C 0.56875 0.77918 0.36639 0.0
C1470 C 0.64545 0.77118 0.34551 0.0
C1471 C 0.60929 0.78335 0.3477 0.0
C1472 C 0.66596 0.7737 0.33687 0.0
C1473 C 0.67244 0.79038 0.32132 0.0
C1474 C 0.63124 0.78555 0.33872 0.0
C1475 C 0.65776 0.80444 0.31498 0.0
C1476 C 0.59655 0.80015 0.34398 0.0
C1477 C 0.58172 0.76239 0.36918 0.0
N1478 N 0.63792 0.80177 0.32375 0.0
N1479 N 0.60137 0.76496 0.36006 0.0
H1480 H 0.12222 0.2806 0.41312 0.0
H1481 H 0.10706 0.22836 0.53509 0.0
H1482 H 0.10033 0.31787 0.47448 0.0
H1483 H 0.10216 0.18082 0.46669 0.0
H1484 H 0.11473 0.26439 0.51543 0.0
H1485 H 0.12529 0.24712 0.43526 0.0
C1486 C 0.11861 0.28201 0.43143 0.0
C1487 C 0.11084 0.30184 0.44199 0.0
C1488 C 0.11216 0.24607 0.50477 0.0
C1489 C 0.11432 0.26394 0.46722 0.0
C1490 C 0.1076 0.22545 0.51593 0.0
C1491 C 0.10345 0.20141 0.50246 0.0
C1492 C 0.11275 0.24275 0.47995 0.0
C1493 C 0.1052 0.19896 0.47782 0.0
C1494 C 0.12018 0.26287 0.44394 0.0
C1495 C 0.10618 0.30276 0.46565 0.0
N1496 N 0.10952 0.21937 0.46729 0.0
N1497 N 0.1079 0.28402 0.47743 0.0
H1498 H 0.5617 0.26195 0.22108 0.0
H1499 H 0.65501 0.19747 0.2616 0.0
H1500 H 0.55133 0.18246 0.21131 0.0
H1501 H 0.66272 0.27652 0.27826 0.0
H1502 H 0.61545 0.19126 0.24817 0.0
H1503 H 0.59691 0.26735 0.24655 0.0
C1504 C 0.56673 0.2456 0.22449 0.0
C1505 C 0.55373 0.22171 0.21373 0.0
C1506 C 0.6257 0.20995 0.25508 0.0
C1507 C 0.59416 0.2278 0.24279 0.0
C1508 C 0.64832 0.21352 0.26295 0.0
C1509 C 0.66233 0.23762 0.27082 0.0
C1510 C 0.61702 0.23062 0.25484 0.0
C1511 C 0.65267 0.25767 0.27181 0.0
C1512 C 0.58683 0.24871 0.2391 0.0
C1513 C 0.56093 0.20122 0.21906 0.0
N1514 N 0.63068 0.25374 0.2636 0.0
N1515 N 0.58084 0.20475 0.23295 0.0
H1516 H 0.59901 0.92853 0.94381 0.0
H1517 H 0.51899 0.01926 0.95543 0.0
H1518 H 0.5315 0.9085 0.90695 0.0
H1519 H 0.57138 0.02231 0.01206 0.0
H1520 H 0.52639 0.98183 0.93355 0.0
H1521 H 0.59242 0.9668 0.9652 0.0
C1522 C 0.5829 0.93226 0.94011 0.0
C1523 C 0.56574 0.91527 0.92371 0.0
C1524 C 0.53618 0.99065 0.95082 0.0
C1525 C 0.5582 0.95884 0.94781 0.0
C1526 C 0.53196 1.01193 0.96326 0.0
C1527 C 0.54447 0.02366 0.98558 0.0
C1528 C 0.55331 0.98135 0.96063 0.0
C1529 C 0.56117 1.01357 0.995 0.0
C1530 C 0.57912 0.95396 0.95238 0.0
C1531 C 0.54514 0.92097 0.9196 0.0
N1532 N 0.56524 0.99306 0.98238 0.0
N1533 N 0.54198 0.94229 0.93149 0.0
H1534 H 0.94947 0.78137 0.70877 0.0
H1535 H 0.84016 0.7522 0.77343 0.0
H1536 H 0.93051 0.71648 0.74134 0.0
H1537 H 0.87212 0.82434 0.75901 0.0
H1538 H 0.86986 0.73606 0.75702 0.0
H1539 H 0.91734 0.79436 0.72169 0.0
C1540 C 0.93846 0.76973 0.71847 0.0
C1541 C 0.94284 0.74791 0.72416 0.0
C1542 C 0.8703 0.75541 0.75748 0.0
C1543 C 0.906 0.76278 0.73911 0.0
C1544 C 0.85336 0.76458 0.76676 0.0
C1545 C 0.85373 0.78964 0.76763 0.0
C1546 C 0.88747 0.77138 0.74877 0.0
C1547 C 0.87128 0.80496 0.75891 0.0
C1548 C 0.92016 0.77722 0.72594 0.0
C1549 C 0.92788 0.73354 0.73671 0.0
N1550 N 0.88737 0.79557 0.74979 0.0
N1551 N 0.91014 0.74128 0.74386 0.0
H1552 H 0.16563 0.07377 0.8759 0.0
H1553 H 0.07478 0.99693 0.94745 0.0
H1554 H 0.13588 0.99532 0.85422 0.0
H1555 H 0.11485 0.07074 0.97795 0.0
H1556 H 0.09671 0.99629 0.91401 0.0
H1557 H 0.14798 0.07319 0.91267 0.0
C1558 C 0.15583 0.05616 0.87903 0.0
C1559 C 0.15309 0.03443 0.86162 0.0
C1560 C 0.101 1.01263 0.928 0.0
C1561 C 0.13139 0.03386 0.90447 0.0
C1562 C 0.08839 1.01306 0.94742 0.0
C1563 C 0.09273 0.03382 0.96631 0.0
C1564 C 0.11837 0.03337 0.92643 0.0
C1565 C 0.11072 0.05405 0.96441 0.0
C1566 C 0.1455 0.05594 0.9002 0.0
C1567 C 0.13934 1.01252 0.86698 0.0
N1568 N 0.12253 0.05337 0.94499 0.0
N1569 N 0.12904 1.0129 0.88749 0.0
H1570 H 0.83843 0.46568 0.57217 0.0
H1571 H 0.89287 0.418 0.68196 0.0
H1572 H 0.90766 0.4649 0.58463 0.0
H1573 H 0.82202 0.40786 0.66363 0.0
H1574 H 0.8998 0.44572 0.65293 0.0
H1575 H 0.83365 0.45496 0.61171 0.0
C1576 C 0.85272 0.46369 0.58337 0.0
C1577 C 0.87335 0.46561 0.57486 0.0
C1578 C 0.88274 0.4378 0.65556 0.0
C1579 C 0.86797 0.45333 0.62003 0.0
C1580 C 0.87879 0.42197 0.67211 0.0
C1581 C 0.85683 0.41022 0.67481 0.0
C1582 C 0.86459 0.44172 0.64148 0.0
C1583 C 0.83921 0.41642 0.66202 0.0
C1584 C 0.84997 0.45753 0.60592 0.0
C1585 C 0.89133 0.46309 0.59025 0.0
N1586 N 0.84346 0.4314 0.64555 0.0
N1587 N 0.88815 0.45675 0.61194 0.0
H1588 H 0.52685 0.07168 0.33129 0.0
H1589 H 0.5212 0.04097 0.45432 0.0
H1590 H 0.46575 0.0693 0.36168 0.0
H1591 H 0.57889 0.0979 0.44651 0.0
H1592 H 0.50063 0.04965 0.41946 0.0
H1593 H 0.54748 0.08133 0.372 0.0
C1594 C 0.51788 0.07381 0.34651 0.0
C1595 C 0.49456 0.06928 0.34321 0.0
C1596 C 0.51763 0.06065 0.42574 0.0
C1597 C 0.51783 0.07967 0.38936 0.0
C1598 C 0.52932 0.05576 0.4457 0.0
C1599 C 0.55158 0.06901 0.45353 0.0
C1600 C 0.52862 0.07816 0.41296 0.0
C1601 C 0.56168 0.08732 0.44099 0.0
C1602 C 0.52965 0.0794 0.36965 0.0
C1603 C 0.48371 0.07244 0.36347 0.0
N1604 N 0.55025 0.091 0.42087 0.0
N1605 N 0.49537 0.07671 0.38577 0.0
H1606 H 0.82622 0.72568 0.08776 0.0
H1607 H 0.78498 0.79314 0.20063 0.0
H1608 H 0.78479 0.77632 0.08287 0.0
H1609 H 0.8451 0.76841 0.20804 0.0
H1610 H 0.78335 0.78431 0.15705 0.0
H1611 H 0.83299 0.73915 0.1316 0.0
C1612 C 0.81884 0.73987 0.0958 0.0
C1613 C 0.80475 0.74969 0.08155 0.0
C1614 C 0.79701 0.78097 0.1682 0.0
C1615 C 0.81206 0.76474 0.13157 0.0
C1616 C 0.79787 0.78587 0.19308 0.0
C1617 C 0.81523 0.78155 0.208 0.0
C1618 C 0.8134 0.77124 0.15804 0.0
C1619 C 0.83154 0.77222 0.1972 0.0
C1620 C 0.82266 0.74748 0.12081 0.0
C1621 C 0.79563 0.76802 0.09303 0.0
N1622 N 0.83012 0.76713 0.17284 0.0
N1623 N 0.79919 0.77467 0.1173 0.0
H1624 H 0.15674 0.99948 0.70424 0.0
H1625 H 0.09342 0.07246 0.62024 0.0
H1626 H 0.12667 0.05761 0.73045 0.0
H1627 H 0.09776 0.99891 0.59183 0.0
H1628 H 0.11008 0.0686 0.65973 0.0
H1629 H 0.13984 0.99972 0.66281 0.0
C1630 C 0.14663 1.01219 0.70157 0.0
C1631 C 0.14332 0.02843 0.72161 0.0
C1632 C 0.10747 0.05319 0.64496 0.0
C1633 C 0.12408 0.0292 0.67351 0.0
C1634 C 0.09787 0.05541 0.62213 0.0
C1635 C 0.09386 0.03603 0.6021 0.0
C1636 C 0.11382 0.03151 0.64849 0.0
C1637 C 0.10027 1.01445 0.60643 0.0
C1638 C 0.13692 1.01232 0.67774 0.0
C1639 C 0.12995 0.04449 0.71623 0.0
N1640 N 0.10996 1.01287 0.62885 0.0
N1641 N 0.12123 0.04455 0.69321 0.0
H1642 H 0.82869 0.42575 0.43153 0.0
H1643 H 0.8282 0.29077 0.36518 0.0
H1644 H 0.86499 0.38071 0.46483 0.0
H1645 H 0.82407 0.35105 0.32812 0.0
H1646 H 0.83511 0.31991 0.40367 0.0
H1647 H 0.81862 0.39387 0.39512 0.0
C1648 C 0.83417 0.40896 0.43135 0.0
C1649 C 0.84785 0.40593 0.4511 0.0
C1650 C 0.83272 0.32663 0.38703 0.0
C1651 C 0.83651 0.3696 0.40963 0.0
C1652 C 0.82889 0.31012 0.36517 0.0
C1653 C 0.82563 0.31858 0.34354 0.0
C1654 C 0.83277 0.35151 0.38707 0.0
C1655 C 0.82657 0.34377 0.3444 0.0
C1656 C 0.82861 0.39092 0.41052 0.0
C1657 C 0.85459 0.38384 0.44986 0.0
N1658 N 0.82986 0.3593 0.36582 0.0
N1659 N 0.8489 0.36649 0.4294 0.0
H1660 H 0.44633 0.08894 0.23153 0.0
H1661 H 0.47132 0.06461 0.09676 0.0
H1662 H 0.46136 0.0227 0.19673 0.0
H1663 H 0.48726 0.13813 0.13983 0.0
H1664 H 0.45378 0.0478 0.12911 0.0
H1665 H 0.449 0.10544 0.19409 0.0
C1666 C 0.44987 0.07776 0.21592 0.0
C1667 C 0.45399 0.05462 0.2172 0.0
C1668 C 0.46068 0.06769 0.13124 0.0
C1669 C 0.45652 0.07303 0.1746 0.0
C1670 C 0.4705 0.07739 0.11267 0.0
C1671 C 0.48111 0.10284 0.11572 0.0
C1672 C 0.46148 0.08349 0.15298 0.0
C1673 C 0.47967 0.11835 0.13693 0.0
C1674 C 0.45137 0.08716 0.19467 0.0
C1675 C 0.45845 0.0408 0.19655 0.0
N1676 N 0.47036 0.10837 0.155 0.0
N1677 N 0.45965 0.05026 0.17608 0.0
H1678 H 0.82572 0.73368 0.95023 0.0
H1679 H 0.77348 0.78152 0.83792 0.0
H1680 H 0.75892 0.74288 0.94039 0.0
H1681 H 0.84457 0.79687 0.85888 0.0
H1682 H 0.76726 0.75883 0.87097 0.0
H1683 H 0.83234 0.74912 0.91264 0.0
C1684 C 0.81244 0.73873 0.9401 0.0
C1685 C 0.79184 0.73726 0.94857 0.0
C1686 C 0.78424 0.76699 0.86825 0.0
C1687 C 0.79914 0.7545 0.90567 0.0
C1688 C 0.78779 0.77983 0.84931 0.0
C1689 C 0.80956 0.79127 0.84585 0.0
C1690 C 0.8026 0.76547 0.88382 0.0
C1691 C 0.82751 0.78849 0.86114 0.0
C1692 C 0.81623 0.74758 0.91874 0.0
C1693 C 0.77517 0.74401 0.93473 0.0
N1694 N 0.82365 0.77598 0.8796 0.0
N1695 N 0.77918 0.7523 0.91404 0.0
H1696 H 0.81171 0.02974 0.03849 0.0
H1697 H 0.94383 0.06834 0.05621 0.0
H1698 H 0.85195 0.10258 0.07324 0.0
H1699 H 0.90474 0.99203 0.03566 0.0
H1700 H 0.91042 0.08035 0.06573 0.0
H1701 H 0.84524 1.01461 0.0403 0.0
C1702 C 0.82753 0.04247 0.04679 0.0
C1703 C 0.82908 0.06756 0.05537 0.0
C1704 C 0.90916 0.06092 0.05942 0.0
C1705 C 0.86751 0.05043 0.05731 0.0
C1706 C 0.92833 0.05397 0.0541 0.0
C1707 C 0.92717 0.0291 0.04489 0.0
C1708 C 0.88852 0.04297 0.0552 0.0
C1709 C 0.90639 1.0115 0.04218 0.0
C1710 C 0.84667 0.03381 0.04784 0.0
C1711 C 0.84999 0.08316 0.06614 0.0
N1712 N 0.88784 0.01882 0.04702 0.0
N1713 N 0.86842 0.07441 0.06649 0.0
H1714 H 0.39362 0.46253 0.02807 0.0
H1715 H 0.51671 0.53779 0.08922 0.0
H1716 H 0.42609 0.44286 0.0898 0.0
H1717 H 0.49898 0.51976 0.01228 0.0
H1718 H 0.47988 0.51188 0.09344 0.0
H1719 H 0.42866 0.49341 0.02608 0.0
C1720 C 0.40793 0.46523 0.04157 0.0
C1721 C 0.40706 0.45028 0.05917 0.0
C1722 C 0.48407 0.51376 0.07567 0.0
C1723 C 0.44681 0.48529 0.05704 0.0
C1724 C 0.50499 0.52847 0.07325 0.0
C1725 C 0.51083 0.53072 0.05038 0.0
C1726 C 0.46872 0.50182 0.05508 0.0
C1727 C 0.49511 0.5183 0.03022 0.0
C1728 C 0.4279 0.48257 0.04026 0.0
C1729 C 0.42615 0.4541 0.07599 0.0
N1730 N 0.47466 0.50448 0.03303 0.0
N1731 N 0.44525 0.47129 0.07457 0.0
H1732 H 0.3874 0.62104 0.77355 0.0
H1733 H 0.39194 0.76833 0.77999 0.0
H1734 H 0.4471 0.67869 0.77356 0.0
H1735 H 0.33029 0.71338 0.77913 0.0
H1736 H 0.41166 0.73546 0.77794 0.0
H1737 H 0.36603 0.65299 0.77581 0.0
C1738 C 0.3962 0.6402 0.77403 0.0
C1739 C 0.41958 0.64645 0.77331 0.0
C1740 C 0.3938 0.73039 0.77822 0.0
C1741 C 0.39456 0.68412 0.77598 0.0
C1742 C 0.38235 0.74947 0.77943 0.0
C1743 C 0.359 0.74439 0.77984 0.0
C1744 C 0.38227 0.70525 0.77737 0.0
C1745 C 0.34814 0.71888 0.77895 0.0
C1746 C 0.38384 0.65868 0.77533 0.0
C1747 C 0.42936 0.67218 0.77402 0.0
N1748 N 0.35965 0.70069 0.77779 0.0
N1749 N 0.4171 0.68951 0.77529 0.0
H1750 H 0.22832 0.59038 0.6254 0.0
H1751 H 0.13081 0.52726 0.5355 0.0
H1752 H 0.23186 0.54104 0.56128 0.0
H1753 H 0.12485 0.55745 0.60804 0.0
H1754 H 0.16529 0.51805 0.54999 0.0
H1755 H 0.19149 0.56442 0.62764 0.0
C1756 C 0.22175 0.57327 0.61249 0.0
C1757 C 0.23251 0.56825 0.59258 0.0
C1758 C 0.15629 0.52613 0.56297 0.0
C1759 C 0.18996 0.53954 0.59398 0.0
C1760 C 0.13668 0.5316 0.55461 0.0
C1761 C 0.12563 0.54403 0.57055 0.0
C1762 C 0.16547 0.53435 0.58727 0.0
C1763 C 0.13337 0.5485 0.59515 0.0
C1764 C 0.20057 0.55849 0.61359 0.0
C1765 C 0.22363 0.54581 0.57653 0.0
N1766 N 0.1533 0.54442 0.60273 0.0
N1767 N 0.20234 0.53272 0.57695 0.0
H1768 H 0.73031 0.05319 0.79695 0.0
H1769 H 0.81068 0.96956 0.76196 0.0
H1770 H 0.71823 0.99875 0.73167 0.0
H1771 H 0.7928 0.97403 0.83354 0.0
H1772 H 0.78522 0.99448 0.75238 0.0
H1773 H 0.76012 0.0355 0.81254 0.0
C1774 C 0.73375 0.03746 0.78604 0.0
C1775 C 0.72182 0.02746 0.76296 0.0
C1776 C 0.78722 0.99035 0.77031 0.0
C1777 C 0.756 1.0081 0.78021 0.0
C1778 C 0.80171 0.97623 0.7758 0.0
C1779 C 0.80339 0.96931 0.79838 0.0
C1780 C 0.77449 0.99779 0.78756 0.0
C1781 C 0.7918 0.97889 0.81587 0.0
C1782 C 0.75072 0.02753 0.7949 0.0
C1783 C 0.72693 1.00711 0.74953 0.0
N1784 N 0.77746 0.99246 0.80999 0.0
N1785 N 0.74383 0.99836 0.75823 0.0
H1786 H 0.78007 0.93967 0.56605 0.0
H1787 H 0.70111 0.9906 0.47775 0.0
H1788 H 0.78618 0.94033 0.49126 0.0
H1789 H 0.69335 0.98986 0.55213 0.0
H1790 H 0.7318 0.97127 0.4825 0.0
H1791 H 0.74815 0.95752 0.56158 0.0
C1792 C 0.77477 0.94362 0.54871 0.0
C1793 C 0.7859 0.9385 0.52901 0.0
C1794 C 0.7234 0.97525 0.49782 0.0
C1795 C 0.74927 0.95883 0.52376 0.0
C1796 C 0.70587 0.98637 0.49512 0.0
C1797 C 0.69473 0.99209 0.51462 0.0
C1798 C 0.73 0.96977 0.52022 0.0
C1799 C 0.70139 0.98569 0.53658 0.0
C1800 C 0.75649 0.95376 0.54617 0.0
C1801 C 0.7782 0.94397 0.50698 0.0
N1802 N 0.71868 0.97502 0.53883 0.0
N1803 N 0.76041 0.95381 0.50497 0.0
H1804 H 0.37916 0.50389 0.76453 0.0
H1805 H 0.36856 0.3619 0.78382 0.0
H1806 H 0.43424 0.47042 0.76966 0.0
H1807 H 0.31092 0.38823 0.76607 0.0
H1808 H 0.39267 0.40264 0.78099 0.0
H1809 H 0.35371 0.46338 0.76733 0.0
C1810 C 0.38601 0.48829 0.76622 0.0
C1811 C 0.40918 0.49112 0.76668 0.0
C1812 C 0.37473 0.39955 0.77758 0.0
C1813 C 0.37992 0.44427 0.7702 0.0
C1814 C 0.36089 0.376 0.77901 0.0
C1815 C 0.33748 0.37101 0.77467 0.0
C1816 C 0.36532 0.41879 0.77206 0.0
C1817 C 0.32881 0.39085 0.76939 0.0
C1818 C 0.37141 0.46502 0.76782 0.0
C1819 C 0.41669 0.46971 0.76901 0.0
N1820 N 0.34255 0.41358 0.76825 0.0
N1821 N 0.40235 0.44769 0.77072 0.0
H1822 H 0.16351 0.60071 0.23632 0.0
H1823 H 0.27447 0.69407 0.31021 0.0
H1824 H 0.20921 0.57433 0.28102 0.0
H1825 H 0.24584 0.70128 0.24031 0.0
H1826 H 0.24752 0.65314 0.30567 0.0
H1827 H 0.19017 0.64158 0.24421 0.0
C1828 C 0.17906 0.60359 0.248 0.0
C1829 C 0.18425 0.58413 0.25794 0.0
C1830 C 0.24732 0.66377 0.29138 0.0
C1831 C 0.21473 0.63078 0.26706 0.0
C1832 C 0.2626 0.68704 0.29395 0.0
C1833 C 0.26243 0.70097 0.27555 0.0
C1834 C 0.23158 0.65487 0.27055 0.0
C1835 C 0.24672 0.69107 0.25485 0.0
C1836 C 0.1943 0.62685 0.25237 0.0
C1837 C 0.2047 0.58887 0.27288 0.0
N1838 N 0.23183 0.66874 0.253 0.0
N1839 N 0.21927 0.61182 0.27706 0.0
H1840 H 0.52448 0.72267 0.49681 0.0
H1841 H 0.52673 0.58243 0.47591 0.0
H1842 H 0.52215 0.68364 0.42497 0.0
H1843 H 0.57217 0.63534 0.53289 0.0
H1844 H 0.51759 0.61702 0.45923 0.0
H1845 H 0.53516 0.68858 0.51282 0.0
C1846 C 0.52624 0.70691 0.48442 0.0
C1847 C 0.52251 0.70598 0.45953 0.0
C1848 C 0.52953 0.62096 0.47539 0.0
C1849 C 0.53409 0.66674 0.47773 0.0
C1850 C 0.53461 0.6013 0.48503 0.0
C1851 C 0.55021 0.60606 0.50584 0.0
C1852 C 0.53961 0.64549 0.48705 0.0
C1853 C 0.5601 0.63088 0.5168 0.0
C1854 C 0.53238 0.68756 0.49357 0.0
C1855 C 0.52504 0.68514 0.44427 0.0
N1856 N 0.55444 0.64968 0.50744 0.0
N1857 N 0.53037 0.66613 0.4536 0.0
H1858 H 0.69885 0.36291 0.67949 0.0
H1859 H 0.76146 0.275 0.7311 0.0
H1860 H 0.66131 0.28849 0.68154 0.0
H1861 H 0.76608 0.34505 0.77637 0.0
H1862 H 0.72968 0.28074 0.70536 0.0
H1863 H 0.72869 0.3584 0.70887 0.0
C1864 C 0.69677 0.34581 0.68647 0.0
C1865 C 0.67752 0.32617 0.67849 0.0
C1866 C 0.73773 0.2948 0.72095 0.0
C1867 C 0.71182 0.32052 0.71087 0.0
C1868 C 0.75587 0.29164 0.73548 0.0
C1869 C 0.76625 0.30956 0.75586 0.0
C1870 C 0.73049 0.31639 0.72642 0.0
C1871 C 0.75837 0.33078 0.76085 0.0
C1872 C 0.71375 0.34324 0.70308 0.0
C1873 C 0.67575 0.30419 0.68765 0.0
N1874 N 0.74111 0.3338 0.74604 0.0
N1875 N 0.6929 0.30175 0.70303 0.0
H1876 H 0.0655 0.35424 0.94713 0.0
H1877 H 0.02413 0.47489 0.98396 0.0
H1878 H 1.00758 0.35406 0.983 0.0
H1879 H 0.09459 0.48042 0.98607 0.0
H1880 H 0.01656 0.42971 0.97676 0.0
H1881 H 0.07581 0.39995 0.95564 0.0
C1882 C 0.0551 0.36374 0.95698 0.0
C1883 C 0.03563 0.35023 0.96436 0.0
C1884 C 0.03368 0.44082 0.97875 0.0
C1885 C 0.04701 0.40226 0.97351 0.0
C1886 C 0.03801 0.46661 0.98267 0.0
C1887 C 0.06003 0.48147 0.98561 0.0
C1888 C 0.05143 0.42967 0.97731 0.0
C1889 C 0.07736 0.46964 0.98397 0.0
C1890 C 0.06098 0.38977 0.96179 0.0
C1891 C 0.02275 0.36358 0.977 0.0
N1892 N 0.07269 0.44438 0.97977 0.0
N1893 N 0.02851 0.38877 0.98088 0.0
H1894 H 0.06531 0.8414 0.19261 0.0
H1895 H 0.93916 0.77189 0.20361 0.0
H1896 H 0.02517 0.7779 0.14141 0.0
H1897 H 0.9764 0.84047 0.24984 0.0
H1898 H 0.97075 0.77328 0.18118 0.0
H1899 H 0.03345 0.84053 0.2147 0.0
C1900 C 0.04984 0.82721 0.18604 0.0
C1901 C 0.04795 0.80971 0.16507 0.0
C1902 C 0.97199 0.78808 0.19618 0.0
C1903 C 1.01134 0.80862 0.19032 0.0
C1904 C 0.95386 0.7874 0.20893 0.0
C1905 C 0.95501 0.8061 0.22871 0.0
C1906 C 0.99156 0.80757 0.20323 0.0
C1907 C 0.97479 0.82545 0.23496 0.0
C1908 C 0.03161 0.82678 0.19863 0.0
C1909 C 0.02742 0.79182 0.15742 0.0
N1910 N 0.99224 0.82564 0.22232 0.0
N1911 N 1.00997 0.79172 0.17003 0.0
H1912 H 0.51097 0.31767 0.15156 0.0
H1913 H 0.58527 0.40123 0.07236 0.0
H1914 H 0.57301 0.30615 0.13097 0.0
H1915 H 0.519 0.40498 0.08511 0.0
H1916 H 0.58387 0.37073 0.09888 0.0
H1917 H 0.51671 0.35428 0.13274 0.0
C1918 C 0.52594 0.32299 0.14333 0.0
C1919 C 0.54139 0.30863 0.14256 0.0
C1920 C 0.5697 0.37835 0.09597 0.0
C1921 C 0.54796 0.35045 0.12079 0.0
C1922 C 0.57053 0.3958 0.08093 0.0
C1923 C 0.55212 0.4054 0.07633 0.0
C1924 C 0.55037 0.37058 0.10657 0.0
C1925 C 0.53339 0.39767 0.0878 0.0
C1926 C 0.52917 0.34388 0.13251 0.0
C1927 C 0.56056 0.31656 0.1318 0.0
N1928 N 0.53296 0.38064 0.1023 0.0
N1929 N 0.5632 0.33682 0.12112 0.0
H1930 H 0.03467 0.28294 0.3408 0.0
H1931 H 0.97666 0.35338 0.25785 0.0
H1932 H 0.06947 0.35009 0.31897 0.0
H1933 H 0.94511 0.2819 0.27399 0.0
H1934 H 0.01314 0.3472 0.27069 0.0
H1935 H 1.00511 0.27635 0.30732 0.0
C1936 C 0.03631 0.29598 0.32854 0.0
C1937 C 0.05418 0.31739 0.33291 0.0
C1938 C 0.99826 0.33257 0.27083 0.0
C1939 C 0.0201 0.31049 0.29504 0.0
C1940 C 0.97742 0.33615 0.26359 0.0
C1941 C 0.9578 0.31845 0.26551 0.0
C1942 C 0.9994 0.31131 0.28034 0.0
C1943 C 0.95975 0.29618 0.27243 0.0
C1944 C 0.01942 0.29225 0.30941 0.0
C1945 C 0.05576 0.3335 0.31634 0.0
N1946 N 0.98016 0.29351 0.28011 0.0
N1947 N 0.03856 0.33011 0.29848 0.0
H1948 H 0.01243 0.7089 0.62776 0.0
H1949 H 0.0837 0.60994 0.60584 0.0
H1950 H 0.02035 0.65898 0.67635 0.0
H1951 H 0.06331 0.64776 0.55083 0.0
H1952 H 0.06161 0.62894 0.63262 0.0
H1953 H 0.03095 0.6869 0.59923 0.0
C1954 C 0.01775 0.69307 0.63228 0.0
C1955 C 0.01492 0.68584 0.65452 0.0
C1956 C 0.06189 0.63301 0.61466 0.0
C1957 C 0.03656 0.66095 0.6222 0.0
C1958 C 0.07451 0.62222 0.59945 0.0
C1959 C 0.07506 0.6271 0.57612 0.0
C1960 C 0.04992 0.64895 0.60646 0.0
C1961 C 0.06335 0.64358 0.56877 0.0
C1962 C 0.0284 0.68058 0.61602 0.0
C1963 C 0.02216 0.66521 0.65942 0.0
N1964 N 0.05119 0.65388 0.58388 0.0
N1965 N 0.03288 0.65367 0.6435 0.0
H1966 H 0.66449 0.85396 0.89022 0.0
H1967 H 0.75878 0.88311 0.80568 0.0
H1968 H 0.66174 0.90467 0.84108 0.0
H1969 H 0.73424 0.81214 0.82654 0.0
H1970 H 0.72967 0.89801 0.82535 0.0
H1971 H 0.69778 0.84625 0.87491 0.0
C1972 C 0.67106 0.86382 0.87649 0.0
C1973 C 0.66005 0.87971 0.86667 0.0
C1974 C 0.73081 0.87921 0.82553 0.0
C1975 C 0.69823 0.87086 0.84905 0.0
C1976 C 0.74732 0.87072 0.81435 0.0
C1977 C 0.74872 0.84627 0.81423 0.0
C1978 C 0.71621 0.8633 0.83718 0.0
C1979 C 0.73359 0.831 0.82585 0.0
C1980 C 0.69002 0.85929 0.86768 0.0
C1981 C 0.66955 0.89206 0.84898 0.0
N1982 N 0.71812 0.83981 0.83693 0.0
N1983 N 0.68805 0.88723 0.84056 0.0
H1984 H 0.49952 0.60515 0.70452 0.0
H1985 H 0.52254 0.52517 0.58116 0.0
H1986 H 0.47595 0.5256 0.68598 0.0
H1987 H 0.56053 0.60009 0.6106 0.0
H1988 H 0.50101 0.5262 0.61558 0.0
H1989 H 0.51718 0.60513 0.66731 0.0
C1990 C 0.49742 0.58771 0.69247 0.0
C1991 C 0.48557 0.56538 0.69878 0.0
C1992 C 0.5139 0.54256 0.61442 0.0
C1993 C 0.50649 0.56512 0.65534 0.0
C1994 C 0.52617 0.54203 0.59443 0.0
C1995 C 0.54355 0.56266 0.59229 0.0
C1996 C 0.51858 0.56399 0.63273 0.0
C1997 C 0.54739 0.58365 0.61095 0.0
C1998 C 0.50784 0.58765 0.67114 0.0
C1999 C 0.48447 0.54344 0.68218 0.0
N2000 N 0.53522 0.58378 0.6299 0.0
N2001 N 0.49451 0.54388 0.66166 0.0
H2002 H 0.8358 0.14891 0.99416 0.0
H2003 H 0.85985 0.22298 0.91025 0.0
H2004 H 0.76997 0.1292 0.95343 0.0
H2005 H 0.79989 0.17563 0.86633 0.0
H2006 H 0.85668 0.19389 0.93798 0.0
H2007 H 0.85161 0.16263 0.95911 0.0
C2008 C 0.82478 0.14701 0.97766 0.0
C2009 C 0.80157 0.13862 0.97672 0.0
C2010 C 0.84468 0.18926 0.92184 0.0
C2011 C 0.81922 0.15465 0.93702 0.0
C2012 C 0.84635 0.20611 0.90609 0.0
C2013 C 0.82974 0.20215 0.88631 0.0
C2014 C 0.82619 0.16836 0.91772 0.0
C2015 C 0.813 0.17967 0.88143 0.0
C2016 C 0.83374 0.15511 0.95776 0.0
C2017 C 0.78794 0.13621 0.95499 0.0
N2018 N 0.81137 0.16396 0.89734 0.0
N2019 N 0.79695 0.14446 0.93611 0.0
H2020 H 0.13293 0.56626 0.18685 0.0
H2021 H 0.05662 0.50495 0.06343 0.0
H2022 H 0.1167 0.48713 0.16162 0.0
H2023 H 0.10099 0.57866 0.0751 0.0
H2024 H 0.07526 0.49802 0.10086 0.0
H2025 H 0.11809 0.57151 0.14724 0.0
C2026 C 0.12625 0.55001 0.1729 0.0
C2027 C 0.12586 0.52623 0.17739 0.0
C2028 C 0.08099 0.51559 0.09504 0.0
C2029 C 0.10875 0.53206 0.13232 0.0
C2030 C 0.07032 0.5196 0.07389 0.0
C2031 C 0.07734 0.5424 0.06643 0.0
C2032 C 0.09838 0.53477 0.10888 0.0
C2033 C 0.09519 0.56081 0.08035 0.0
C2034 C 0.11793 0.55303 0.15032 0.0
C2035 C 0.11727 0.50577 0.15873 0.0
N2036 N 0.10498 0.55669 0.10112 0.0
N2037 N 0.10873 0.50911 0.13696 0.0
H2038 H 0.80497 0.86753 0.47876 0.0
H2039 H 0.85673 0.81184 0.36714 0.0
H2040 H 0.85824 0.83145 0.48564 0.0
H2041 H 0.79095 0.82416 0.3593 0.0
H2042 H 0.8588 0.82219 0.41068 0.0
H2043 H 0.80026 0.85421 0.43506 0.0
C2044 C 0.81549 0.85658 0.47116 0.0
C2045 C 0.83205 0.85065 0.48599 0.0
C2046 C 0.84389 0.82258 0.39945 0.0
C2047 C 0.82702 0.83581 0.43596 0.0
C2048 C 0.84274 0.81682 0.37454 0.0
C2049 C 0.82365 0.81716 0.35946 0.0
C2050 C 0.82595 0.82908 0.40949 0.0
C2051 C 0.806 0.82361 0.3702 0.0
C2052 C 0.81281 0.84903 0.4462 0.0
C2053 C 0.84523 0.83647 0.47503 0.0
N2054 N 0.80763 0.82946 0.39454 0.0
N2055 N 0.84259 0.82979 0.45074 0.0
H2056 H 0.50772 0.53771 0.82954 0.0
H2057 H 0.53854 0.59724 0.97045 0.0
H2058 H 0.48246 0.59934 0.85728 0.0
H2059 H 0.53694 0.52198 0.94056 0.0
H2060 H 0.52231 0.60218 0.93054 0.0
H2061 H 0.52254 0.53593 0.86996 0.0
C2062 C 0.50529 0.5512 0.84401 0.0
C2063 C 0.49354 0.56883 0.8391 0.0
C2064 C 0.52546 0.58457 0.93272 0.0
C2065 C 0.51136 0.56672 0.88729 0.0
C2066 C 0.5349 0.58171 0.95564 0.0
C2067 C 0.53933 0.55903 0.95945 0.0
C2068 C 0.52067 0.56483 0.91286 0.0
C2069 C 0.53398 0.53982 0.93907 0.0
C2070 C 0.51385 0.54997 0.86748 0.0
C2071 C 0.49126 0.58537 0.85956 0.0
N2072 N 0.52528 0.54322 0.91708 0.0
N2073 N 0.50014 0.58401 0.88249 0.0
H2074 H 0.80056 0.15937 0.12102 0.0
H2075 H 0.80339 0.29479 0.18859 0.0
H2076 H 0.77903 0.21309 0.08472 0.0
H2077 H 0.8019 0.2329 0.225 0.0
H2078 H 0.79758 0.26643 0.15 0.0
H2079 H 0.80548 0.18791 0.15927 0.0
C2080 C 0.79708 0.17724 0.12107 0.0
C2081 C 0.78932 0.18385 0.09969 0.0
C2082 C 0.79836 0.25907 0.16645 0.0
C2083 C 0.7948 0.21644 0.14327 0.0
C2084 C 0.80159 0.2752 0.18841 0.0
C2085 C 0.80317 0.26614 0.20991 0.0
C2086 C 0.79702 0.23383 0.16612 0.0
C2087 C 0.80079 0.24063 0.20879 0.0
C2088 C 0.79971 0.19342 0.1429 0.0
C2089 C 0.78495 0.2072 0.1008 0.0
N2090 N 0.79805 0.22539 0.18724 0.0
N2091 N 0.78778 0.22268 0.12224 0.0
H2092 H 0.10499 0.56926 0.26738 0.0
H2093 H 0.0614 0.53386 0.38651 0.0
H2094 H 0.0912 0.4959 0.28506 0.0
H2095 H 0.09522 0.60782 0.3782 0.0
H2096 H 0.0575 0.52023 0.34318 0.0
H2097 H 0.08676 0.58285 0.30108 0.0
C2098 C 0.09757 0.55582 0.27791 0.0
C2099 C 0.10014 0.53161 0.27394 0.0
C2100 C 0.06526 0.53958 0.35078 0.0
C2101 C 0.07941 0.54704 0.31234 0.0
C2102 C 0.06741 0.54742 0.37549 0.0
C2103 C 0.07915 0.57188 0.38595 0.0
C2104 C 0.07502 0.55629 0.33655 0.0
C2105 C 0.08661 0.58864 0.37084 0.0
C2106 C 0.08721 0.56362 0.29715 0.0
C2107 C 0.09003 0.51491 0.28795 0.0
N2108 N 0.08479 0.58042 0.34687 0.0
N2109 N 0.08043 0.52306 0.30685 0.0
H2110 H 0.85562 0.85375 0.6303 0.0
H2111 H 0.76111 0.83426 0.71369 0.0
H2112 H 0.79643 0.87829 0.61403 0.0
H2113 H 0.83111 0.84868 0.74031 0.0
H2114 H 0.77135 0.84679 0.67579 0.0
H2115 H 0.84441 0.84675 0.66899 0.0
C2116 C 0.84015 0.85753 0.63478 0.0
C2117 C 0.82693 0.86659 0.6188 0.0
C2118 C 0.7844 0.8475 0.69011 0.0
C2119 C 0.81395 0.8585 0.66333 0.0
C2120 C 0.77859 0.84041 0.7117 0.0
C2121 C 0.79528 0.84022 0.73008 0.0
C2122 C 0.80699 0.85394 0.68682 0.0
C2123 C 0.81768 0.84837 0.72659 0.0
C2124 C 0.83387 0.85371 0.657 0.0
C2125 C 0.80714 0.87132 0.6258 0.0
N2126 N 0.82284 0.85449 0.70529 0.0
N2127 N 0.80111 0.86701 0.6475 0.0
H2128 H 0.82614 0.5574 0.52538 0.0
H2129 H 0.69358 0.51856 0.51846 0.0
H2130 H 0.78524 0.48329 0.49606 0.0
H2131 H 0.73304 0.59485 0.53209 0.0
H2132 H 0.72698 0.50518 0.51084 0.0
H2133 H 0.79232 0.57139 0.5289 0.0
C2134 C 0.81005 0.54408 0.51959 0.0
C2135 C 0.80852 0.51911 0.51049 0.0
C2136 C 0.7283 0.52486 0.51536 0.0
C2137 C 0.76972 0.53499 0.51461 0.0
C2138 C 0.70919 0.53255 0.51959 0.0
C2139 C 0.71043 0.55792 0.52597 0.0
C2140 C 0.7489 0.5426 0.51772 0.0
C2141 C 0.73129 0.5751 0.52763 0.0
C2142 C 0.79074 0.5521 0.52156 0.0
C2143 C 0.7872 0.50271 0.50318 0.0
N2144 N 0.74971 0.56712 0.52365 0.0
N2145 N 0.76864 0.51091 0.50556 0.0
H2146 H 0.23142 0.12051 0.4817 0.0
H2147 H 0.12507 0.08719 0.5457 0.0
H2148 H 0.20353 0.17727 0.51615 0.0
H2149 H 0.12239 0.04721 0.47419 0.0
H2150 H 0.15951 0.11653 0.54074 0.0
H2151 H 0.19656 0.0891 0.48376 0.0
C2152 C 0.21802 0.12634 0.48962 0.0
C2153 C 0.22031 0.15151 0.49869 0.0
C2154 C 0.15132 0.10135 0.52613 0.0
C2155 C 0.1811 0.11596 0.50159 0.0
C2156 C 0.13155 0.08478 0.52882 0.0
C2157 C 0.12044 0.06529 0.51002 0.0
C2158 C 0.16053 0.09793 0.50478 0.0
C2159 C 0.1303 0.06227 0.48898 0.0
C2160 C 0.19821 0.1085 0.49069 0.0
C2161 C 0.20245 0.15812 0.50877 0.0
N2162 N 0.14994 0.07842 0.48692 0.0
N2163 N 0.18376 0.14045 0.51024 0.0
H2164 H 0.19383 0.92333 0.78804 0.0
H2165 H 0.31511 0.89414 0.78248 0.0
H2166 H 0.25283 0.98168 0.78734 0.0
H2167 H 0.25402 0.83889 0.78301 0.0
H2168 H 0.29407 0.92608 0.78421 0.0
H2169 H 0.21617 0.89339 0.78615 0.0
C2170 C 0.21154 0.93019 0.78749 0.0
C2171 C 0.22091 0.95586 0.7879 0.0
C2172 C 0.28516 0.90699 0.7839 0.0
C2173 C 0.24764 0.92 0.78566 0.0
C2174 C 0.29729 0.88845 0.7829 0.0
C2175 C 0.28672 0.86304 0.78242 0.0
C2176 C 0.26184 0.90068 0.78451 0.0
C2177 C 0.26336 0.85772 0.7831 0.0
C2178 C 0.22446 0.91266 0.7864 0.0
C2179 C 0.24432 0.96249 0.78709 0.0
N2180 N 0.25204 0.876 0.78409 0.0
N2181 N 0.25662 0.94494 0.78604 0.0
H2182 H 0.40798 0.04744 0.04448 0.0
H2183 H 0.47267 0.06039 0.94431 0.0
H2184 H 0.37412 0.01783 0.97247 0.0
H2185 H 0.48739 0.11912 1.00624 0.0
H2186 H 0.43337 0.05058 0.95012 0.0
H2187 H 0.43319 0.08014 0.02948 0.0
C2188 C 0.40536 0.0485 0.02561 0.0
C2189 C 0.38929 0.02995 1.00959 0.0
C2190 C 0.44505 0.06625 0.9619 0.0
C2191 C 0.41863 0.06628 0.99205 0.0
C2192 C 0.46751 0.07182 0.95858 0.0
C2193 C 0.48334 0.08985 0.97546 0.0
C2194 C 0.43876 0.07855 0.98245 0.0
C2195 C 0.47575 0.10438 0.9934 0.0
C2196 C 0.41973 0.06712 0.01697 0.0
C2197 C 0.3865 0.03189 0.98529 0.0
N2198 N 0.45408 0.09791 0.99692 0.0
N2199 N 0.40164 0.04922 0.97703 0.0
H2200 H 0.89865 0.63404 0.83134 0.0
H2201 H 0.77694 0.64021 0.77819 0.0
H2202 H 0.84617 0.56924 0.79693 0.0
H2203 H 0.83484 0.70313 0.79606 0.0
H2204 H 0.7998 0.61397 0.79217 0.0
H2205 H 0.87276 0.65966 0.82642 0.0
C2206 C 0.8816 0.62515 0.82307 0.0
C2207 C 0.87464 0.59954 0.81416 0.0
C2208 C 0.80742 0.63355 0.7931 0.0
C2209 C 0.84505 0.62873 0.80833 0.0
C2210 C 0.79441 0.64846 0.78516 0.0
C2211 C 0.80417 0.67368 0.78563 0.0
C2212 C 0.83019 0.64412 0.80181 0.0
C2213 C 0.82683 0.68361 0.79492 0.0
C2214 C 0.86687 0.63979 0.82017 0.0
C2215 C 0.85231 0.58898 0.80375 0.0
N2216 N 0.83908 0.66879 0.80258 0.0
N2217 N 0.83833 0.60367 0.80089 0.0
H2218 H 0.88432 0.71141 0.01774 0.0
H2219 H 0.91451 0.58039 0.99906 0.0
H2220 H 0.83478 0.64085 1.00522 0.0
H2221 H 0.96394 0.65112 0.01317 0.0
H2222 H 0.88518 0.6021 1.00157 0.0
H2223 H 0.9136 0.68961 0.01615 0.0
C2224 C 0.87956 0.69131 0.01466 0.0
C2225 C 0.85698 0.67798 1.01159 0.0
C2226 C 0.90244 0.61289 1.00415 0.0
C2227 C 0.89061 0.65279 1.00975 0.0
C2228 C 0.91926 0.60049 1.00289 0.0
C2229 C 0.94185 0.61389 1.00598 0.0
C2230 C 0.90812 0.63895 1.00852 0.0
C2231 C 0.94681 0.63995 1.01039 0.0
C2232 C 0.89634 0.67886 0.01376 0.0
C2233 C 0.85193 0.65193 1.00767 0.0
N2234 N 0.93012 0.65159 1.01154 0.0
N2235 N 0.86859 0.64021 1.00685 0.0
H2236 H 0.25832 0.09677 0.79383 0.0
H2237 H 0.26801 0.23756 0.77139 0.0
H2238 H 0.20309 0.13006 0.78925 0.0
H2239 H 0.32593 0.2119 0.78965 0.0
H2240 H 0.24411 0.19711 0.77535 0.0
H2241 H 0.28347 0.13701 0.78986 0.0
C2242 C 0.25138 0.11229 0.79202 0.0
C2243 C 0.22826 0.10949 0.79207 0.0
C2244 C 0.26207 0.2003 0.77862 0.0
C2245 C 0.25718 0.15602 0.78718 0.0
C2246 C 0.27579 0.22369 0.77656 0.0
C2247 C 0.29921 0.22879 0.78072 0.0
C2248 C 0.27162 0.18131 0.78459 0.0
C2249 C 0.30802 0.20919 0.78645 0.0
C2250 C 0.2658 0.1354 0.78975 0.0
C2251 C 0.22061 0.13077 0.78953 0.0
N2252 N 0.29439 0.1866 0.78819 0.0
N2253 N 0.23479 0.15265 0.78717 0.0
H2254 H 0.43944 0.94664 0.30016 0.0
H2255 H 0.31988 0.8555 0.25914 0.0
H2256 H 0.38424 0.97289 0.27273 0.0
H2257 H 0.36104 0.84954 0.32234 0.0
H2258 H 0.34528 0.89604 0.25881 0.0
H2259 H 0.41288 0.90759 0.30328 0.0
C2260 C 0.42177 0.94411 0.29471 0.0
C2261 C 0.41394 0.96289 0.28617 0.0
C2262 C 0.34856 0.88592 0.27286 0.0
C2263 C 0.38382 0.91858 0.28944 0.0
C2264 C 0.33417 0.86287 0.27305 0.0
C2265 C 0.33843 0.84936 0.29086 0.0
C2266 C 0.36757 0.8951 0.29023 0.0
C2267 C 0.35713 0.85959 0.30847 0.0
C2268 C 0.40669 0.92201 0.29667 0.0
C2269 C 0.3909 0.95885 0.27949 0.0
N2270 N 0.37127 0.8818 0.30753 0.0
N2271 N 0.37661 0.93698 0.28102 0.0
H2272 H 0.58281 0.37614 0.60901 0.0
H2273 H 0.62336 0.49946 0.55416 0.0
H2274 H 0.64677 0.39719 0.58416 0.0
H2275 H 0.55394 0.46494 0.55654 0.0
H2276 H 0.63335 0.46487 0.56977 0.0
H2277 H 0.57304 0.41152 0.59467 0.0
C2278 C 0.59483 0.38824 0.60067 0.0
C2279 C 0.61561 0.38357 0.59771 0.0
C2280 C 0.61593 0.46488 0.56684 0.0
C2281 C 0.60459 0.4242 0.58141 0.0
C2282 C 0.61021 0.48465 0.55797 0.0
C2283 C 0.58775 0.4851 0.5539 0.0
C2284 C 0.59912 0.44557 0.57206 0.0
C2285 C 0.57146 0.46533 0.5592 0.0
C2286 C 0.58921 0.40837 0.5924 0.0
C2287 C 0.63051 0.39992 0.58671 0.0
N2288 N 0.57746 0.44648 0.56809 0.0
N2289 N 0.62475 0.41948 0.57905 0.0
H2290 H 0.45994 0.73551 0.34785 0.0
H2291 H 0.35467 0.78803 0.32964 0.0
H2292 H 0.42878 0.76259 0.40706 0.0
H2293 H 0.35795 0.72368 0.28 0.0
H2294 H 0.38629 0.78376 0.35581 0.0
H2295 H 0.42675 0.73504 0.32009 0.0
C2296 C 0.44614 0.74116 0.35503 0.0
C2297 C 0.44721 0.74912 0.37987 0.0
C2298 C 0.38 0.77043 0.33929 0.0
C2299 C 0.40968 0.7491 0.3483 0.0
C2300 C 0.3618 0.77272 0.32441 0.0
C2301 C 0.3532 0.75574 0.30293 0.0
C2302 C 0.39024 0.75145 0.33241 0.0
C2303 C 0.36389 0.73696 0.29659 0.0
C2304 C 0.42725 0.74083 0.33921 0.0
C2305 C 0.4288 0.75626 0.38814 0.0
N2306 N 0.38201 0.73537 0.31122 0.0
N2307 N 0.41102 0.75639 0.37242 0.0
H2308 H 0.14156 0.76709 0.06997 0.0
H2309 H 0.05087 0.63553 0.03712 0.0
H2310 H 0.0785 0.75382 0.09769 0.0
H2311 H 0.12119 0.64567 0.03285 0.0
H2312 H 0.05838 0.68001 0.05345 0.0
H2313 H 0.13169 0.72384 0.04987 0.0
C2314 C 0.12552 0.75517 0.07167 0.0
C2315 C 0.11091 0.76413 0.08572 0.0
C2316 C 0.0721 0.67243 0.04887 0.0
C2317 C 0.09954 0.71441 0.06267 0.0
C2318 C 0.06785 0.6471 0.03949 0.0
C2319 C 0.08547 0.63683 0.03376 0.0
C2320 C 0.09406 0.68761 0.05214 0.0
C2321 C 0.10713 0.6527 0.03721 0.0
C2322 C 0.11996 0.73041 0.06026 0.0
C2323 C 0.09034 0.7477 0.08717 0.0
N2324 N 0.11078 0.67727 0.04611 0.0
N2325 N 0.08527 0.72358 0.07583 0.0
H2326 H 0.07036 0.31999 0.85396 0.0
H2327 H 0.18357 0.27766 0.84805 0.0
H2328 H 0.08697 0.2649 0.89198 0.0
H2329 H 0.16131 0.32114 0.79941 0.0
H2330 H 0.14952 0.27543 0.86642 0.0
H2331 H 0.10448 0.32274 0.83541 0.0
C2332 C 0.08112 0.30841 0.85836 0.0
C2333 C 0.07574 0.29217 0.87457 0.0
C2334 C 0.15207 0.2855 0.85176 0.0
C2335 C 0.11497 0.29542 0.85354 0.0
C2336 C 0.17163 0.28697 0.84139 0.0
C2337 C 0.17538 0.29968 0.82218 0.0
C2338 C 0.13609 0.29693 0.84302 0.0
C2339 C 0.15905 0.31099 0.81405 0.0
C2340 C 0.10061 0.30999 0.84775 0.0
C2341 C 0.09037 0.27764 0.87956 0.0
N2342 N 0.14016 0.3094 0.82453 0.0
N2343 N 0.10932 0.27969 0.86919 0.0
H2344 H 0.61503 0.81044 0.93983 0.0
H2345 H 0.55935 0.67538 0.96546 0.0
H2346 H 0.54631 0.76993 0.91502 0.0
H2347 H 0.61621 0.72552 0.01216 0.0
H2348 H 0.55817 0.70757 0.9416 0.0
H2349 H 0.61936 0.77714 0.96175 0.0
C2350 C 0.60094 0.79453 0.93889 0.0
C2351 C 0.58024 0.793 0.92575 0.0
C2352 C 0.57096 0.71153 0.95703 0.0
C2353 C 0.58513 0.75502 0.95036 0.0
C2354 C 0.57172 0.69312 0.97055 0.0
C2355 C 0.58785 0.69785 0.99084 0.0
C2356 C 0.58656 0.73481 0.96367 0.0
C2357 C 0.60335 0.72127 0.99678 0.0
C2358 C 0.60339 0.77565 0.95144 0.0
C2359 C 0.5625 0.77201 0.92512 0.0
N2360 N 0.60236 0.73893 0.98321 0.0
N2361 N 0.56538 0.75386 0.93717 0.0
H2362 H 0.07219 0.79447 0.73106 0.0
H2363 H 0.16813 0.75917 0.81087 0.0
H2364 H 0.05879 0.74132 0.7784 0.0
H2365 H 0.17653 0.79043 0.74658 0.0
H2366 H 0.12943 0.76198 0.80694 0.0
H2367 H 0.11194 0.80379 0.74579 0.0
C2368 C 0.07751 0.78515 0.74494 0.0
C2369 C 0.06215 0.76663 0.75308 0.0
C2370 C 0.13994 0.76852 0.79395 0.0
C2371 C 0.10766 0.7771 0.7698 0.0
C2372 C 0.16196 0.76672 0.79602 0.0
C2373 C 0.17568 0.77428 0.77888 0.0
C2374 C 0.13163 0.77817 0.77476 0.0
C2375 C 0.16684 0.78458 0.76042 0.0
C2376 C 0.10024 0.7904 0.75324 0.0
C2377 C 0.07007 0.75541 0.7713 0.0
N2378 N 0.14538 0.78606 0.75879 0.0
N2379 N 0.09235 0.76053 0.77879 0.0
H2380 H 0.12672 0.42426 0.44845 0.0
H2381 H 0.05604 0.52413 0.47179 0.0
H2382 H 0.06664 0.42116 0.40231 0.0
H2383 H 0.08908 0.4971 0.52806 0.0
H2384 H 0.06934 0.49679 0.44185 0.0
H2385 H 0.12291 0.46235 0.47312 0.0
C2386 C 0.11323 0.43213 0.44304 0.0
C2387 C 0.09687 0.41963 0.42352 0.0
C2388 C 0.07391 0.49721 0.46079 0.0
C2389 C 0.09243 0.46276 0.4514 0.0
C2390 C 0.06636 0.51273 0.47777 0.0
C2391 C 0.07134 0.51257 0.50227 0.0
C2392 C 0.08685 0.48196 0.46854 0.0
C2393 C 0.08466 0.49745 0.50927 0.0
C2394 C 0.11095 0.45364 0.45719 0.0
C2395 C 0.07949 0.43029 0.41739 0.0
N2396 N 0.09197 0.48273 0.49248 0.0
N2397 N 0.0776 0.45118 0.4314 0.0
H2398 H 0.4282 0.18929 0.19361 0.0
H2399 H 0.38242 0.30348 0.24757 0.0
H2400 H 0.45305 0.26469 0.183 0.0
H2401 H 0.3481 0.22753 0.24886 0.0
H2402 H 0.41001 0.28895 0.22639 0.0
H2403 H 0.39939 0.2021 0.215 0.0
C2404 C 0.42747 0.20843 0.19553 0.0
C2405 C 0.44316 0.22596 0.18657 0.0
C2406 C 0.39646 0.27538 0.23126 0.0
C2407 C 0.41056 0.24073 0.21126 0.0
C2408 C 0.38074 0.28369 0.24357 0.0
C2409 C 0.36272 0.26668 0.24982 0.0
C2410 C 0.39434 0.24981 0.22515 0.0
C2411 C 0.3615 0.24126 0.24406 0.0
C2412 C 0.4111 0.21573 0.20782 0.0
C2413 C 0.44144 0.25052 0.18965 0.0
N2414 N 0.37709 0.23355 0.23197 0.0
N2415 N 0.42558 0.25715 0.20184 0.0
H2416 H 0.63852 0.48883 0.35444 0.0
H2417 H 0.61519 0.56659 0.47877 0.0
H2418 H 0.66006 0.56849 0.37318 0.0
H2419 H 0.57792 0.4915 0.44889 0.0
H2420 H 0.63637 0.5664 0.44405 0.0
H2421 H 0.62124 0.48799 0.39186 0.0
C2422 C 0.64022 0.50613 0.36655 0.0
C2423 C 0.65132 0.52876 0.36023 0.0
C2424 C 0.62372 0.54981 0.44519 0.0
C2425 C 0.63096 0.52799 0.40392 0.0
C2426 C 0.61166 0.54987 0.46532 0.0
C2427 C 0.59457 0.52894 0.4674 0.0
C2428 C 0.61914 0.52857 0.42669 0.0
C2429 C 0.59085 0.50814 0.44858 0.0
C2430 C 0.63003 0.50569 0.388 0.0
C2431 C 0.65203 0.55047 0.37694 0.0
N2432 N 0.60283 0.50847 0.42948 0.0
N2433 N 0.64227 0.54954 0.3976 0.0
H2434 H 0.31372 0.9296 0.07349 0.0
H2435 H 0.35924 0.86497 0.17586 0.0
H2436 H 0.38353 0.93686 0.09616 0.0
H2437 H 0.28919 0.85236 0.15011 0.0
H2438 H 0.36809 0.89703 0.15153 0.0
H2439 H 0.30422 0.90705 0.10609 0.0
C2440 C 0.32707 0.92679 0.08553 0.0
C2441 C 0.34943 0.93476 0.08187 0.0
C2442 C 0.35075 0.88741 0.15133 0.0
C2443 C 0.33868 0.90892 0.11903 0.0
C2444 C 0.34567 0.86918 0.16536 0.0
C2445 C 0.32344 0.85575 0.16483 0.0
C2446 C 0.33352 0.8922 0.13655 0.0
C2447 C 0.3066 0.86188 0.15065 0.0
C2448 C 0.32162 0.91385 0.10408 0.0
C2449 C 0.36604 0.93072 0.09808 0.0
N2450 N 0.312 0.87952 0.13689 0.0
N2451 N 0.3603 0.91787 0.11579 0.0
H2452 H 0.97556 0.60053 0.88193 0.0
H2453 H 0.09339 0.61387 0.95069 0.0
H2454 H 0.02605 0.59489 0.83618 0.0
H2455 H 0.04032 0.54692 0.94431 0.0
H2456 H 0.07145 0.62653 0.91863 0.0
H2457 H 1.00293 0.60337 0.91684 0.0
C2458 C 0.99263 0.60104 0.87929 0.0
C2459 C 0.9985 0.597 0.85614 0.0
C2460 C 0.06471 0.60926 0.9246 0.0
C2461 C 0.02959 0.60055 0.89579 0.0
C2462 C 0.07713 0.60195 0.94264 0.0
C2463 C 0.06835 0.57955 0.95036 0.0
C2464 C 0.04338 0.59424 0.91487 0.0
C2465 C 0.04739 0.56461 0.93927 0.0
C2466 C 1.00812 0.60253 0.89918 0.0
C2467 C 0.02084 0.59763 0.85376 0.0
N2468 N 0.03544 0.57237 0.92224 0.0
N2469 N 0.03558 0.59884 0.8734 0.0
H2470 H 0.3223 0.21972 0.5813 0.0
H2471 H 0.27907 0.28444 0.69487 0.0
H2472 H 0.27603 0.2651 0.57652 0.0
H2473 H 0.34265 0.26663 0.70113 0.0
H2474 H 0.27554 0.27278 0.6513 0.0
H2475 H 0.32853 0.23293 0.6252 0.0
C2476 C 0.31364 0.23261 0.58938 0.0
C2477 C 0.29858 0.24124 0.57511 0.0
C2478 C 0.29029 0.27145 0.6622 0.0
C2479 C 0.30529 0.25596 0.62521 0.0
C2480 C 0.29226 0.27797 0.68712 0.0
C2481 C 0.31119 0.27655 0.70174 0.0
C2482 C 0.3072 0.26307 0.65171 0.0
C2483 C 0.32779 0.26812 0.69056 0.0
C2484 C 0.31718 0.2401 0.61442 0.0
C2485 C 0.28779 0.25789 0.58666 0.0
N2486 N 0.32536 0.26155 0.66621 0.0
N2487 N 0.29117 0.26446 0.61095 0.0
H2488 H 0.62509 0.55537 0.23087 0.0
H2489 H 0.59738 0.50026 0.08899 0.0
H2490 H 0.65435 0.49773 0.20137 0.0
H2491 H 0.5949 0.57354 0.12083 0.0
H2492 H 0.61395 0.49494 0.12855 0.0
H2493 H 0.60991 0.55771 0.19075 0.0
C2494 C 0.62833 0.54286 0.21607 0.0
C2495 C 0.64134 0.52619 0.2204 0.0
C2496 C 0.60982 0.5122 0.1269 0.0
C2497 C 0.62307 0.52897 0.17258 0.0
C2498 C 0.60017 0.51527 0.10417 0.0
C2499 C 0.59447 0.53749 0.10101 0.0
C2500 C 0.61357 0.53125 0.14721 0.0
C2501 C 0.59884 0.55607 0.12183 0.0
C2502 C 0.61955 0.54442 0.19279 0.0
C2503 C 0.64456 0.5109 0.19955 0.0
N2504 N 0.60777 0.55244 0.14363 0.0
N2505 N 0.63545 0.51255 0.1768 0.0
H2506 H 0.3207 0.88829 0.96111 0.0
H2507 H 0.3553 0.85678 0.83469 0.0
H2508 H 0.38796 0.92129 0.94938 0.0
H2509 H 0.31793 0.79843 0.867 0.0
H2510 H 0.36475 0.88415 0.87422 0.0
H2511 H 0.31575 0.85821 0.92374 0.0
C2512 C 0.33439 0.88915 0.95065 0.0
C2513 C 0.35476 0.90718 0.95823 0.0
C2514 C 0.35474 0.86523 0.8726 0.0
C2515 C 0.34909 0.87337 0.9156 0.0
C2516 C 0.34938 0.84967 0.85016 0.0
C2517 C 0.33591 0.82539 0.84772 0.0
C2518 C 0.34595 0.85657 0.89239 0.0
C2519 C 0.32844 0.81703 0.86821 0.0
C2520 C 0.33161 0.87197 0.92951 0.0
C2521 C 0.37205 0.90753 0.94414 0.0
N2522 N 0.33324 0.83278 0.88968 0.0
N2523 N 0.36872 0.89106 0.92323 0.0
H2524 H 0.92886 0.53029 0.71945 0.0
H2525 H 0.94197 0.55464 0.61176 0.0
H2526 H 0.93748 0.60807 0.74645 0.0
H2527 H 0.9826 0.62479 0.65223 0.0
H2528 H 0.91851 0.55132 0.64348 0.0
H2529 H 0.92784 0.53865 0.67885 0.0
C2530 C 0.93006 0.5491 0.71668 0.0
C2531 C 0.9337 0.56861 0.73621 0.0
C2532 C 0.93234 0.56767 0.64524 0.0
C2533 C 0.9324 0.57849 0.68969 0.0
C2534 C 0.94556 0.56983 0.62691 0.0
C2535 C 0.96497 0.58948 0.62995 0.0
C2536 C 0.93899 0.58498 0.66681 0.0
C2537 C 0.9684 0.60876 0.64976 0.0
C2538 C 0.92911 0.55388 0.69342 0.0
C2539 C 0.93488 0.59259 0.73175 0.0
N2540 N 0.95598 0.60566 0.66791 0.0
N2541 N 0.93493 0.59702 0.70893 0.0
H2542 H 0.31315 0.26986 0.45789 0.0
H2543 H 0.2868 0.24447 0.31877 0.0
H2544 H 0.28757 0.19371 0.42194 0.0
H2545 H 0.35024 0.29282 0.35384 0.0
H2546 H 0.2817 0.22764 0.35593 0.0
H2547 H 0.32216 0.28168 0.41952 0.0
C2548 C 0.30969 0.25563 0.44191 0.0
C2549 C 0.2999 0.23079 0.44298 0.0
C2550 C 0.29682 0.24173 0.35524 0.0
C2551 C 0.30927 0.24424 0.39912 0.0
C2552 C 0.29971 0.25134 0.33413 0.0
C2553 C 0.31894 0.27006 0.33321 0.0
C2554 C 0.31294 0.25152 0.37566 0.0
C2555 C 0.33514 0.2784 0.35372 0.0
C2556 C 0.31479 0.26235 0.42012 0.0
C2557 C 0.29543 0.21302 0.42178 0.0
N2558 N 0.33159 0.26942 0.37422 0.0
N2559 N 0.29979 0.22014 0.40053 0.0
H2560 H 0.35652 0.61054 0.56841 0.0
H2561 H 0.40705 0.49456 0.5347 0.0
H2562 H 0.3159 0.53542 0.5435 0.0
H2563 H 0.44527 0.571 0.54356 0.0
H2564 H 0.3741 0.50878 0.54304 0.0
H2565 H 0.38997 0.59579 0.56483 0.0
C2566 C 0.35463 0.59092 0.56232 0.0
C2567 C 0.33339 0.57419 0.55608 0.0
C2568 C 0.38975 0.52241 0.54326 0.0
C2569 C 0.37157 0.55723 0.55197 0.0
C2570 C 0.40854 0.51432 0.5384 0.0
C2571 C 0.42897 0.53159 0.5383 0.0
C2572 C 0.39141 0.54795 0.54815 0.0
C2573 C 0.42999 0.55698 0.54371 0.0
C2574 C 0.37373 0.58254 0.56023 0.0
C2575 C 0.33194 0.54899 0.54834 0.0
N2576 N 0.41146 0.56438 0.54834 0.0
N2577 N 0.35079 0.54127 0.54645 0.0
H2578 H 0.92332 0.93791 0.59493 0.0
H2579 H 0.99834 1.01189 0.51359 0.0
H2580 H 0.89312 0.95823 0.53226 0.0
H2581 H 0.01475 0.03115 0.59063 0.0
H2582 H 0.96133 0.98691 0.51832 0.0
H2583 H 0.95867 0.96771 0.59261 0.0
C2584 C 0.92408 0.94899 0.58093 0.0
C2585 C 0.90531 0.94583 0.56387 0.0
C2586 C 0.97303 0.99671 0.53415 0.0
C2587 C 0.94575 0.97908 0.5606 0.0
C2588 C 0.99415 1.01075 0.53148 0.0
C2589 C 1.00952 0.02355 0.55179 0.0
C2590 C 0.96752 0.99495 0.55725 0.0
C2591 C 1.00329 0.02158 0.57456 0.0
C2592 C 0.9442 0.9659 0.57961 0.0
C2593 C 0.90717 0.9604 0.54592 0.0
N2594 N 0.98283 1.00729 0.57672 0.0
N2595 N 0.9272 0.9761 0.54446 0.0
H2596 H 0.93391 0.15539 0.27454 0.0
H2597 H 0.82019 0.2033 0.27705 0.0
H2598 H 0.86745 0.10839 0.27062 0.0
H2599 H 0.88388 0.25477 0.27773 0.0
H2600 H 0.83844 0.16946 0.27557 0.0
H2601 H 0.91791 0.19183 0.27656 0.0
C2602 C 0.91605 0.15245 0.27415 0.0
C2603 C 0.90236 0.12795 0.27237 0.0
C2604 C 0.84865 0.18808 0.27608 0.0
C2605 C 0.88346 0.17066 0.27473 0.0
C2606 C 0.83808 0.20777 0.27696 0.0
C2607 C 0.85009 0.23269 0.27762 0.0
C2608 C 0.87194 0.19243 0.27583 0.0
C2609 C 0.87349 0.23627 0.27734 0.0
C2610 C 0.90681 0.17353 0.27528 0.0
C2611 C 0.87918 0.12631 0.27193 0.0
N2612 N 0.88344 0.21671 0.2765 0.0
N2613 N 0.87079 0.14681 0.2731 0.0
H2614 H 0.71861 0.05899 0.99724 0.0
H2615 H 0.6133 0.08729 0.04338 0.0
H2616 H 0.71383 0.08224 0.07165 0.0
H2617 H 0.61437 0.05457 0.97004 0.0
H2618 H 0.64676 0.07493 0.05563 0.0
H2619 H 0.67797 0.04417 0.98887 0.0
C2620 C 0.70899 0.05958 0.01208 0.0
C2621 C 0.71934 0.0721 0.03506 0.0
C2622 C 0.63963 0.07017 0.03687 0.0
C2623 C 0.67307 0.05666 0.02554 0.0
C2624 C 0.62066 0.07756 0.02981 0.0
C2625 C 0.61157 0.07276 1.00553 0.0
C2626 C 0.64993 0.05838 0.01945 0.0
C2627 C 0.62126 0.05922 0.98887 0.0
C2628 C 0.68575 0.05152 1.00725 0.0
C2629 C 0.7063 0.07278 0.05364 0.0
N2630 N 0.64024 0.05297 0.99607 0.0
N2631 N 0.68371 0.06594 0.04836 0.0
H2632 H 0.19384 0.45824 0.23556 0.0
H2633 H 0.2764 0.41793 0.32591 0.0
H2634 H 0.19263 0.47521 0.31195 0.0
H2635 H 0.29407 0.44088 0.25979 0.0
H2636 H 0.24312 0.43346 0.32108 0.0
H2637 H 0.22711 0.44381 0.24343 0.0
C2638 C 0.20036 0.4586 0.254 0.0
C2639 C 0.19056 0.46814 0.27317 0.0
C2640 C 0.25449 0.43529 0.30784 0.0
C2641 C 0.22871 0.4518 0.2822 0.0
C2642 C 0.27358 0.4267 0.31067 0.0
C2643 C 0.28797 0.42796 0.29311 0.0
C2644 C 0.24966 0.44473 0.28715 0.0
C2645 C 0.28322 0.43907 0.27351 0.0
C2646 C 0.21949 0.4506 0.25845 0.0
C2647 C 0.19978 0.46813 0.29668 0.0
N2648 N 0.2643 0.44672 0.27088 0.0
N2649 N 0.21844 0.46009 0.30059 0.0
H2650 H 0.28523 0.44089 0.99011 0.0
H2651 H 0.20238 0.49934 0.06536 0.0
H2652 H 0.28467 0.44211 0.06603 0.0
H2653 H 0.20119 0.49463 0.98885 0.0
H2654 H 0.23227 0.47822 0.06605 0.0
H2655 H 0.25442 0.46051 0.98943 0.0
C2656 C 0.27867 0.44531 1.00667 0.0
C2657 C 0.28764 0.43984 0.02818 0.0
C2658 C 0.22541 0.48171 0.04909 0.0
C2659 C 0.25217 0.46236 0.0275 0.0
C2660 C 0.20837 0.49386 0.04869 0.0
C2661 C 0.19922 0.49887 0.02702 0.0
C2662 C 0.23351 0.47456 0.02768 0.0
C2663 C 0.2075 0.49096 1.00595 0.0
C2664 C 0.261 0.45648 1.00625 0.0
C2665 C 0.27834 0.44598 0.04904 0.0
N2666 N 0.2242 0.47934 1.00683 0.0
N2667 N 0.26116 0.45692 0.04818 0.0
H2668 H 0.88091 1.00227 0.27716 0.0
H2669 H 0.8681 0.85499 0.2755 0.0
H2670 H 0.92947 0.96362 0.25547 0.0
H2671 H 0.8133 0.88789 0.28413 0.0
H2672 H 0.89149 0.89567 0.27099 0.0
H2673 H 0.85631 0.962 0.2819 0.0
C2674 C 0.88643 0.98555 0.27317 0.0
C2675 C 0.90761 0.98695 0.26582 0.0
C2676 C 0.87436 0.89409 0.27398 0.0
C2677 C 0.87944 0.94032 0.27175 0.0
C2678 C 0.86099 0.87072 0.2767 0.0
C2679 C 0.83855 0.86767 0.28033 0.0
C2680 C 0.8655 0.915 0.27504 0.0
C2681 C 0.83044 0.88909 0.2814 0.0
C2682 C 0.87237 0.96243 0.27602 0.0
C2683 C 0.91354 0.96413 0.26123 0.0
N2684 N 0.84375 0.91156 0.27886 0.0
N2685 N 0.89982 0.94226 0.26436 0.0
H2686 H 0.73307 0.12503 0.66878 0.0
H2687 H 0.80939 0.21198 0.78192 0.0
H2688 H 0.74476 0.10058 0.73596 0.0
H2689 H 0.80547 0.23028 0.71101 0.0
H2690 H 0.79213 0.16845 0.76418 0.0
H2691 H 0.76566 0.16029 0.68187 0.0
C2692 C 0.74277 0.1269 0.68614 0.0
C2693 C 0.73598 0.1103 0.70156 0.0
C2694 C 0.79542 0.18195 0.75248 0.0
C2695 C 0.77295 0.15086 0.71695 0.0
C2696 C 0.80513 0.20686 0.76265 0.0
C2697 C 0.80796 0.22494 0.74806 0.0
C2698 C 0.78847 0.17527 0.72759 0.0
C2699 C 0.80293 0.2171 0.72308 0.0
C2700 C 0.76142 0.14701 0.69363 0.0
C2701 C 0.74932 0.11323 0.72367 0.0
N2702 N 0.79304 0.19293 0.71369 0.0
N2703 N 0.7669 0.13355 0.731 0.0
loop_
_geom_bond_atom_site_label_1
_geom_bond_atom_site_label_2
_geom_bond_distance
_geom_bond_site_symmetry_2
_ccdc_geom_bond_type
Zn0 O3 2.031 . S
Zn0 O5 2.049 . S
Zn0 O10 2.067 . S
Zn1 O2 1.962 . S
Zn1 O4 1.986 . S
Zn1 O6 1.996 . S
Zn1 O9 1.943 . S
O2 Zn1 1.962 . S
O2 C7 1.254 . S
O3 Zn0 2.031 . S
O3 C7 1.269 . S
O4 Zn1 1.986 . S
O4 C11 1.262 . S
O5 Zn0 2.049 . S
O5 C13 1.260 . S
O6 Zn1 1.996 . S
O6 C13 1.257 . S
C7 O2 1.254 . S
C7 O3 1.269 . S
C8 O9 1.249 . S
C8 O10 1.270 . S
O9 Zn1 1.943 . S
O9 C8 1.249 . S
O10 Zn0 2.067 . S
O10 C8 1.270 . S
C11 O4 1.262 . S
C11 O12 1.232 . S
O12 C11 1.232 . S
C13 O5 1.260 . S
C13 O6 1.257 . S
Zn14 O17 2.031 1_455 S
Zn14 O19 2.049 . S
Zn14 O24 2.067 . S
Zn15 O16 1.944 1_455 S
Zn15 O18 1.993 . S
Zn15 O20 2.011 . S
Zn15 O23 1.947 1_455 S
O16 Zn15 1.944 1_655 S
O16 C21 1.254 . S
O17 Zn14 2.031 1_655 S
O17 C21 1.269 . S
O18 Zn15 1.993 . S
O18 C25 1.262 . S
O19 Zn14 2.049 . S
O19 C27 1.260 . S
O20 Zn15 2.011 . S
O20 C27 1.257 . S
C21 O16 1.254 . S
C21 O17 1.269 . S
C22 O23 1.249 . S
C22 O24 1.270 1_655 S
O23 Zn15 1.947 1_655 S
O23 C22 1.249 . S
O24 Zn14 2.067 . S
O24 C22 1.270 1_455 S
C25 O18 1.262 . S
C25 O26 1.232 1_455 S
O26 C25 1.232 1_655 S
C27 O19 1.260 . S
C27 O20 1.257 . S
Zn28 O31 2.031 . S
Zn28 O33 2.049 . S
Zn28 O38 2.067 . S
Zn29 O30 1.962 . S
Zn29 O32 1.986 . S
Zn29 O34 1.996 . S
Zn29 O37 1.943 . S
O30 Zn29 1.962 . S
O30 C35 1.254 . S
O31 Zn28 2.031 . S
O31 C35 1.269 . S
O32 Zn29 1.986 . S
O32 C39 1.262 . S
O33 Zn28 2.049 . S
O33 C41 1.260 . S
O34 Zn29 1.996 . S
O34 C41 1.257 . S
C35 O30 1.254 . S
C35 O31 1.269 . S
C36 O37 1.249 . S
C36 O38 1.270 . S
O37 Zn29 1.943 . S
O37 C36 1.249 . S
O38 Zn28 2.067 . S
O38 C36 1.270 . S
C39 O32 1.262 . S
C39 O40 1.232 . S
O40 C39 1.232 . S
C41 O33 1.260 . S
C41 O34 1.257 . S
Zn42 O45 2.031 . S
Zn42 O47 2.049 . S
Zn42 O52 2.067 . S
Zn43 O44 1.962 . S
Zn43 O46 1.986 . S
Zn43 O48 1.996 . S
Zn43 O51 1.943 . S
O44 Zn43 1.962 . S
O44 C49 1.254 . S
O45 Zn42 2.031 . S
O45 C49 1.269 . S
O46 Zn43 1.986 . S
O46 C53 1.262 . S
O47 Zn42 2.049 . S
O47 C55 1.260 . S
O48 Zn43 1.996 . S
O48 C55 1.257 . S
C49 O44 1.254 . S
C49 O45 1.269 . S
C50 O51 1.249 . S
C50 O52 1.270 . S
O51 Zn43 1.943 . S
O51 C50 1.249 . S
O52 Zn42 2.067 . S
O52 C50 1.270 . S
C53 O46 1.262 . S
C53 O54 1.232 . S
O54 C53 1.232 . S
C55 O47 1.260 . S
C55 O48 1.257 . S
Zn56 O59 2.031 . S
Zn56 O61 2.049 . S
Zn56 O66 2.067 . S
Zn57 O58 1.962 . S
Zn57 O60 1.986 . S
Zn57 O62 1.996 . S
Zn57 O65 1.943 . S
O58 Zn57 1.962 . S
O58 C63 1.254 . S
O59 Zn56 2.031 . S
O59 C63 1.269 . S
O60 Zn57 1.986 . S
O60 C67 1.262 . S
O61 Zn56 2.049 . S
O61 C69 1.260 . S
O62 Zn57 1.996 . S
O62 C69 1.257 . S
C63 O58 1.254 . S
C63 O59 1.269 . S
C64 O65 1.249 . S
C64 O66 1.270 . S
O65 Zn57 1.943 . S
O65 C64 1.249 . S
O66 Zn56 2.067 . S
O66 C64 1.270 . S
C67 O60 1.262 . S
C67 O68 1.232 . S
O68 C67 1.232 . S
C69 O61 1.260 . S
C69 O62 1.257 . S
Zn70 O73 2.031 . S
Zn70 O75 2.049 . S
Zn70 O80 2.067 . S
Zn71 O72 1.962 . S
Zn71 O74 1.986 . S
Zn71 O76 1.996 . S
Zn71 O79 1.943 . S
O72 Zn71 1.962 . S
O72 C77 1.254 . S
O73 Zn70 2.031 . S
O73 C77 1.269 . S
O74 Zn71 1.986 . S
O74 C81 1.262 . S
O75 Zn70 2.049 . S
O75 C83 1.260 . S
O76 Zn71 1.996 . S
O76 C83 1.257 . S
C77 O72 1.254 . S
C77 O73 1.269 . S
C78 O79 1.249 . S
C78 O80 1.270 . S
O79 Zn71 1.943 . S
O79 C78 1.249 . S
O80 Zn70 2.067 . S
O80 C78 1.270 . S
C81 O74 1.262 . S
C81 O82 1.232 . S
O82 C81 1.232 . S
C83 O75 1.260 . S
C83 O76 1.257 . S
Zn84 O87 2.031 . S
Zn84 O89 2.049 . S
Zn84 O94 2.067 . S
Zn85 O86 1.962 . S
Zn85 O88 1.986 . S
Zn85 O90 1.996 . S
Zn85 O93 1.943 . S
O86 Zn85 1.962 . S
O86 C91 1.254 . S
O87 Zn84 2.031 . S
O87 C91 1.269 . S
O88 Zn85 1.986 . S
O88 C95 1.262 . S
O89 Zn84 2.049 . S
O89 C97 1.260 . S
O90 Zn85 1.996 . S
O90 C97 1.257 . S
C91 O86 1.254 . S
C91 O87 1.269 . S
C92 O93 1.249 . S
C92 O94 1.270 . S
O93 Zn85 1.943 . S
O93 C92 1.249 . S
O94 Zn84 2.067 . S
O94 C92 1.270 . S
C95 O88 1.262 . S
C95 O96 1.232 . S
O96 C95 1.232 . S
C97 O89 1.260 . S
C97 O90 1.257 . S
Zn98 O101 2.031 1_655 S
Zn98 O103 2.049 . S
Zn98 O108 2.067 . S
Zn99 O100 1.962 . S
Zn99 O102 1.986 . S
Zn99 O104 1.996 . S
Zn99 O107 1.943 . S
O100 Zn99 1.962 . S
O100 C105 1.254 . S
O101 Zn98 2.031 1_455 S
O101 C105 1.269 . S
O102 Zn99 1.986 . S
O102 C109 1.262 . S
O103 Zn98 2.049 . S
O103 C111 1.260 1_655 S
O104 Zn99 1.996 . S
O104 C111 1.257 . S
C105 O100 1.254 . S
C105 O101 1.269 . S
C106 O107 1.249 1_655 S
C106 O108 1.270 . S
O107 Zn99 1.943 . S
O107 C106 1.249 1_455 S
O108 Zn98 2.067 . S
O108 C106 1.270 . S
C109 O102 1.262 . S
C109 O110 1.232 . S
O110 C109 1.232 . S
C111 O103 1.260 1_455 S
C111 O104 1.257 . S
Zn112 O115 2.031 . S
Zn112 O117 2.049 . S
Zn112 O122 2.067 . S
Zn113 O114 1.962 . S
Zn113 O116 1.986 . S
Zn113 O118 1.996 . S
Zn113 O121 1.943 1_545 S
O114 Zn113 1.962 . S
O114 C119 1.254 . S
O115 Zn112 2.031 . S
O115 C119 1.269 1_565 S
O116 Zn113 1.986 . S
O116 C123 1.262 . S
O117 Zn112 2.049 . S
O117 C125 1.260 . S
O118 Zn113 1.996 . S
O118 C125 1.257 1_545 S
C119 O114 1.254 . S
C119 O115 1.269 1_545 S
C120 O121 1.249 . S
C120 O122 1.270 . S
O121 Zn113 1.943 1_565 S
O121 C120 1.249 . S
O122 Zn112 2.067 . S
O122 C120 1.270 . S
C123 O116 1.262 . S
C123 O124 1.232 . S
O124 C123 1.232 . S
C125 O117 1.260 . S
C125 O118 1.257 1_565 S
Zn126 O129 2.031 . S
Zn126 O131 2.049 . S
Zn126 O136 2.067 . S
Zn127 O128 1.962 . S
Zn127 O130 1.986 . S
Zn127 O132 1.996 . S
Zn127 O135 1.943 . S
O128 Zn127 1.962 . S
O128 C133 1.254 . S
O129 Zn126 2.031 . S
O129 C133 1.269 . S
O130 Zn127 1.986 . S
O130 C137 1.262 . S
O131 Zn126 2.049 . S
O131 C139 1.260 . S
O132 Zn127 1.996 . S
O132 C139 1.257 . S
C133 O128 1.254 . S
C133 O129 1.269 . S
C134 O135 1.249 . S
C134 O136 1.270 . S
O135 Zn127 1.943 . S
O135 C134 1.249 . S
O136 Zn126 2.067 . S
O136 C134 1.270 . S
C137 O130 1.262 . S
C137 O138 1.232 . S
O138 C137 1.232 . S
C139 O131 1.260 . S
C139 O132 1.257 . S
Zn140 O143 2.031 . S
Zn140 O145 2.049 . S
Zn140 O150 2.067 . S
Zn141 O142 1.962 . S
Zn141 O144 1.986 . S
Zn141 O146 1.996 . S
Zn141 O149 1.943 1_565 S
O142 Zn141 1.962 . S
O142 C147 1.254 1_565 S
O143 Zn140 2.031 . S
O143 C147 1.269 . S
O144 Zn141 1.986 . S
O144 C151 1.262 . S
O145 Zn140 2.049 . S
O145 C153 1.260 . S
O146 Zn141 1.996 . S
O146 C153 1.257 1_565 S
C147 O142 1.254 1_545 S
C147 O143 1.269 . S
C148 O149 1.249 . S
C148 O150 1.270 . S
O149 Zn141 1.943 1_545 S
O149 C148 1.249 . S
O150 Zn140 2.067 . S
O150 C148 1.270 . S
C151 O144 1.262 . S
C151 O152 1.232 . S
O152 C151 1.232 . S
C153 O145 1.260 . S
C153 O146 1.257 1_545 S
Zn154 O157 2.031 1_554 S
Zn154 O159 2.049 . S
Zn154 O164 2.067 . S
Zn155 O156 1.962 1_554 S
Zn155 O158 1.986 . S
Zn155 O160 1.996 . S
Zn155 O163 1.943 . S
O156 Zn155 1.962 1_556 S
O156 C161 1.254 . S
O157 Zn154 2.031 1_556 S
O157 C161 1.269 . S
O158 Zn155 1.986 . S
O158 C165 1.262 . S
O159 Zn154 2.049 . S
O159 C167 1.260 . S
O160 Zn155 1.996 . S
O160 C167 1.257 . S
C161 O156 1.254 . S
C161 O157 1.269 . S
C162 O163 1.249 . S
C162 O164 1.270 . S
O163 Zn155 1.943 . S
O163 C162 1.249 . S
O164 Zn154 2.067 . S
O164 C162 1.270 . S
C165 O158 1.262 . S
C165 O166 1.232 1_554 S
O166 C165 1.232 1_556 S
C167 O159 1.260 . S
C167 O160 1.257 . S
Zn168 O171 2.031 1_554 S
Zn168 O173 2.049 . S
Zn168 O178 2.067 . S
Zn169 O170 1.962 1_554 S
Zn169 O172 1.986 . S
Zn169 O174 1.996 . S
Zn169 O177 1.943 . S
O170 Zn169 1.962 1_556 S
O170 C175 1.254 . S
O171 Zn168 2.031 1_556 S
O171 C175 1.269 . S
O172 Zn169 1.986 . S
O172 C179 1.262 . S
O173 Zn168 2.049 . S
O173 C181 1.260 . S
O174 Zn169 1.996 . S
O174 C181 1.257 . S
C175 O170 1.254 . S
C175 O171 1.269 . S
C176 O177 1.249 . S
C176 O178 1.270 . S
O177 Zn169 1.943 . S
O177 C176 1.249 . S
O178 Zn168 2.067 . S
O178 C176 1.270 . S
C179 O172 1.262 . S
C179 O180 1.253 . S
O180 C179 1.253 . S
C181 O173 1.260 . S
C181 O174 1.257 . S
Zn182 O185 2.031 1_554 S
Zn182 O187 2.049 . S
Zn182 O192 2.067 . S
Zn183 O184 1.962 1_554 S
Zn183 O186 1.986 . S
Zn183 O188 1.996 . S
Zn183 O191 1.943 . S
O184 Zn183 1.962 1_556 S
O184 C189 1.254 . S
O185 Zn182 2.031 1_556 S
O185 C189 1.269 . S
O186 Zn183 1.986 . S
O186 C193 1.262 . S
O187 Zn182 2.049 . S
O187 C195 1.260 . S
O188 Zn183 1.996 . S
O188 C195 1.257 . S
C189 O184 1.254 . S
C189 O185 1.269 . S
C190 O191 1.249 . S
C190 O192 1.270 . S
O191 Zn183 1.943 . S
O191 C190 1.249 . S
O192 Zn182 2.067 . S
O192 C190 1.270 . S
C193 O186 1.262 . S
C193 O194 1.224 1_554 S
O194 C193 1.224 1_556 S
C195 O187 1.260 . S
C195 O188 1.257 . S
Zn196 O199 2.031 . S
Zn196 O201 2.049 . S
Zn196 O206 2.067 . S
Zn197 O198 1.962 . S
Zn197 O200 1.986 . S
Zn197 O202 1.996 . S
Zn197 O205 1.943 . S
O198 Zn197 1.962 . S
O198 C203 1.254 . S
O199 Zn196 2.031 . S
O199 C203 1.269 . S
O200 Zn197 1.986 . S
O200 C207 1.262 . S
O201 Zn196 2.049 . S
O201 C209 1.260 . S
O202 Zn197 1.996 . S
O202 C209 1.257 . S
C203 O198 1.254 . S
C203 O199 1.269 . S
C204 O205 1.249 . S
C204 O206 1.270 . S
O205 Zn197 1.943 . S
O205 C204 1.249 . S
O206 Zn196 2.067 . S
O206 C204 1.270 . S
C207 O200 1.262 . S
C207 O208 1.232 . S
O208 C207 1.232 . S
C209 O201 1.260 . S
C209 O202 1.257 . S
Zn210 O213 2.031 . S
Zn210 O215 2.049 . S
Zn210 O220 2.067 . S
Zn211 O212 1.962 . S
Zn211 O214 1.986 . S
Zn211 O216 1.996 . S
Zn211 O219 1.943 . S
O212 Zn211 1.962 . S
O212 C217 1.254 . S
O213 Zn210 2.031 . S
O213 C217 1.269 . S
O214 Zn211 1.986 . S
O214 C221 1.262 . S
O215 Zn210 2.049 . S
O215 C223 1.260 . S
O216 Zn211 1.996 . S
O216 C223 1.257 . S
C217 O212 1.254 . S
C217 O213 1.269 . S
C218 O219 1.249 . S
C218 O220 1.270 . S
O219 Zn211 1.943 . S
O219 C218 1.249 . S
O220 Zn210 2.067 . S
O220 C218 1.270 . S
C221 O214 1.262 . S
C221 O222 1.232 . S
O222 C221 1.232 . S
C223 O215 1.260 . S
C223 O216 1.257 . S
Zn224 O227 2.031 . S
Zn224 O229 2.049 . S
Zn224 O234 2.067 . S
Zn225 O226 1.962 . S
Zn225 O228 1.986 . S
Zn225 O230 1.996 . S
Zn225 O233 1.943 . S
O226 Zn225 1.962 . S
O226 C231 1.254 . S
O227 Zn224 2.031 . S
O227 C231 1.269 . S
O228 Zn225 1.986 . S
O228 C235 1.262 . S
O229 Zn224 2.049 . S
O229 C237 1.260 . S
O230 Zn225 1.996 . S
O230 C237 1.257 . S
C231 O226 1.254 . S
C231 O227 1.269 . S
C232 O233 1.249 . S
C232 O234 1.270 . S
O233 Zn225 1.943 . S
O233 C232 1.249 . S
O234 Zn224 2.067 . S
O234 C232 1.270 . S
C235 O228 1.262 . S
C235 O236 1.232 . S
O236 C235 1.232 . S
C237 O229 1.260 . S
C237 O230 1.257 . S
Zn238 O241 2.031 . S
Zn238 O243 2.049 . S
Zn238 O248 2.067 . S
Zn239 O240 1.962 . S
Zn239 O242 1.986 . S
Zn239 O244 1.996 . S
Zn239 O247 1.943 . S
O240 Zn239 1.962 . S
O240 C245 1.254 . S
O241 Zn238 2.031 . S
O241 C245 1.269 . S
O242 Zn239 1.986 . S
O242 C249 1.262 . S
O243 Zn238 2.049 . S
O243 C251 1.260 . S
O244 Zn239 1.996 . S
O244 C251 1.257 . S
C245 O240 1.254 . S
C245 O241 1.269 . S
C246 O247 1.249 . S
C246 O248 1.270 . S
O247 Zn239 1.943 . S
O247 C246 1.249 . S
O248 Zn238 2.067 . S
O248 C246 1.270 . S
C249 O242 1.262 . S
C249 O250 1.232 . S
O250 C249 1.232 . S
C251 O243 1.260 . S
C251 O244 1.257 . S
Zn252 O255 2.031 . S
Zn252 O257 2.049 . S
Zn252 O262 2.067 . S
Zn253 O254 1.962 . S
Zn253 O256 1.986 . S
Zn253 O258 1.996 . S
Zn253 O261 1.943 . S
O254 Zn253 1.962 . S
O254 C259 1.254 . S
O255 Zn252 2.031 . S
O255 C259 1.269 . S
O256 Zn253 1.986 . S
O256 C263 1.262 . S
O257 Zn252 2.049 . S
O257 C265 1.260 . S
O258 Zn253 1.996 . S
O258 C265 1.257 . S
C259 O254 1.254 . S
C259 O255 1.269 . S
C260 O261 1.249 . S
C260 O262 1.270 . S
O261 Zn253 1.943 . S
O261 C260 1.249 . S
O262 Zn252 2.067 . S
O262 C260 1.270 . S
C263 O256 1.262 . S
C263 O264 1.232 . S
O264 C263 1.232 . S
C265 O257 1.260 . S
C265 O258 1.257 . S
Zn266 O269 2.031 . S
Zn266 O271 2.049 . S
Zn266 O276 2.067 . S
Zn267 O268 1.962 . S
Zn267 O270 1.986 . S
Zn267 O272 1.996 . S
Zn267 O275 1.943 . S
O268 Zn267 1.962 . S
O268 C273 1.254 . S
O269 Zn266 2.031 . S
O269 C273 1.269 . S
O270 Zn267 1.986 . S
O270 C277 1.262 . S
O271 Zn266 2.049 . S
O271 C279 1.260 . S
O272 Zn267 1.996 . S
O272 C279 1.257 . S
C273 O268 1.254 . S
C273 O269 1.269 . S
C274 O275 1.249 . S
C274 O276 1.270 . S
O275 Zn267 1.943 . S
O275 C274 1.249 . S
O276 Zn266 2.067 . S
O276 C274 1.270 . S
C277 O270 1.262 . S
C277 O278 1.232 . S
O278 C277 1.232 . S
C279 O271 1.260 . S
C279 O272 1.257 . S
Zn280 O283 2.031 1_554 S
Zn280 O285 2.049 . S
Zn280 O290 2.067 . S
Zn281 O282 1.962 1_554 S
Zn281 O284 1.986 . S
Zn281 O286 1.996 . S
Zn281 O289 1.943 . S
O282 Zn281 1.962 1_556 S
O282 C287 1.254 . S
O283 Zn280 2.031 1_556 S
O283 C287 1.269 . S
O284 Zn281 1.986 . S
O284 C291 1.262 . S
O285 Zn280 2.049 . S
O285 C293 1.260 . S
O286 Zn281 1.996 . S
O286 C293 1.257 . S
C287 O282 1.254 . S
C287 O283 1.269 . S
C288 O289 1.249 . S
C288 O290 1.270 . S
O289 Zn281 1.943 . S
O289 C288 1.249 . S
O290 Zn280 2.067 . S
O290 C288 1.270 . S
C291 O284 1.262 . S
C291 O292 1.232 1_554 S
O292 C291 1.232 1_556 S
C293 O285 1.260 . S
C293 O286 1.257 . S
Zn294 O297 2.031 . S
Zn294 O299 2.049 . S
Zn294 O304 2.067 . S
Zn295 O296 1.962 . S
Zn295 O298 1.986 . S
Zn295 O300 1.996 . S
Zn295 O303 1.943 . S
O296 Zn295 1.962 . S
O296 C301 1.254 . S
O297 Zn294 2.031 . S
O297 C301 1.269 . S
O298 Zn295 1.986 . S
O298 C305 1.262 . S
O299 Zn294 2.049 . S
O299 C307 1.260 . S
O300 Zn295 1.996 . S
O300 C307 1.257 . S
C301 O296 1.254 . S
C301 O297 1.269 . S
C302 O303 1.249 . S
C302 O304 1.270 . S
O303 Zn295 1.943 . S
O303 C302 1.249 . S
O304 Zn294 2.067 . S
O304 C302 1.270 . S
C305 O298 1.262 . S
C305 O306 1.232 . S
O306 C305 1.232 . S
C307 O299 1.260 . S
C307 O300 1.257 . S
Zn308 O311 2.031 . S
Zn308 O313 2.049 . S
Zn308 O318 2.067 . S
Zn309 O310 1.962 . S
Zn309 O312 1.986 . S
Zn309 O314 1.996 . S
Zn309 O317 1.943 . S
O310 Zn309 1.962 . S
O310 C315 1.254 . S
O311 Zn308 2.031 . S
O311 C315 1.269 . S
O312 Zn309 1.986 . S
O312 C319 1.262 . S
O313 Zn308 2.049 . S
O313 C321 1.260 . S
O314 Zn309 1.996 . S
O314 C321 1.257 . S
C315 O310 1.254 . S
C315 O311 1.269 . S
C316 O317 1.249 . S
C316 O318 1.270 . S
O317 Zn309 1.943 . S
O317 C316 1.249 . S
O318 Zn308 2.067 . S
O318 C316 1.270 . S
C319 O312 1.262 . S
C319 O320 1.232 . S
O320 C319 1.232 . S
C321 O313 1.260 . S
C321 O314 1.257 . S
Zn322 O325 2.031 . S
Zn322 O327 2.049 . S
Zn322 O332 2.067 . S
Zn323 O324 1.962 . S
Zn323 O326 1.986 . S
Zn323 O328 1.996 . S
Zn323 O331 1.943 . S
O324 Zn323 1.962 . S
O324 C329 1.254 . S
O325 Zn322 2.031 . S
O325 C329 1.269 . S
O326 Zn323 1.986 . S
O326 C333 1.262 . S
O327 Zn322 2.049 . S
O327 C335 1.260 . S
O328 Zn323 1.996 . S
O328 C335 1.257 . S
C329 O324 1.254 . S
C329 O325 1.269 . S
C330 O331 1.249 . S
C330 O332 1.270 . S
O331 Zn323 1.943 . S
O331 C330 1.249 . S
O332 Zn322 2.067 . S
O332 C330 1.270 . S
C333 O326 1.262 . S
C333 O334 1.232 . S
O334 C333 1.232 . S
C335 O327 1.260 . S
C335 O328 1.257 . S
La336 C338 2.921 1_454 S
La336 O356 2.496 1_454 S
La336 O357 2.640 1_455 S
La336 O358 2.507 1_554 S
La336 O359 2.740 1_554 S
La336 O360 2.453 1_554 S
La336 O365 2.519 . S
La336 O367 2.523 1_545 S
La337 C347 2.928 . S
La337 O359 2.482 1_554 S
La337 O361 2.503 . S
La337 O362 2.521 . S
La337 O363 2.628 . S
La337 O364 2.554 . S
La337 O365 2.757 . S
La337 O366 2.470 . S
C338 La336 2.921 1_656 S
C338 C339 1.503 . S
C338 O356 1.261 . S
C338 O357 1.243 1_556 S
C339 C338 1.503 . S
C339 C340 1.394 . S
C339 C344 1.373 1_556 S
C340 C339 1.394 . S
C340 C341 1.380 . S
C340 H368 0.930 . S
C341 C340 1.380 . S
C341 C342 1.376 . S
C341 H369 0.930 . S
C342 C341 1.376 . S
C342 C343 1.370 . S
C343 C342 1.370 . S
C343 C344 1.396 1_556 S
C343 H370 0.929 1_556 S
C344 C339 1.373 1_554 S
C344 C343 1.396 1_554 S
C344 H371 0.929 . S
C345 O358 1.240 . S
C345 O359 1.289 . S
C346 O360 1.258 1_554 S
C346 O361 1.256 . S
C347 La337 2.928 . S
C347 C348 1.503 . S
C347 O362 1.261 . S
C347 O363 1.243 . S
C348 C347 1.503 . S
C348 C349 1.394 . S
C348 C353 1.373 . S
C349 C348 1.394 . S
C349 C350 1.380 . S
C349 H372 0.930 . S
C350 C349 1.380 . S
C350 C351 1.376 . S
C350 H373 0.930 . S
C351 C350 1.376 . S
C351 C352 1.370 1_545 S
C352 C351 1.370 1_565 S
C352 C353 1.396 1_565 S
C352 H374 0.929 . S
C353 C348 1.373 . S
C353 C352 1.396 1_545 S
C353 H375 0.929 . S
C354 O364 1.240 . S
C354 O365 1.289 . S
C355 O366 1.258 1_565 S
C355 O367 1.256 . S
O356 La336 2.496 1_656 S
O356 C338 1.261 . S
O357 La336 2.640 1_655 S
O357 C338 1.243 1_554 S
O358 La336 2.507 1_556 S
O358 C345 1.240 . S
O359 La336 2.740 1_556 S
O359 La337 2.482 1_556 S
O359 C345 1.289 . S
O360 La336 2.453 1_556 S
O360 C346 1.258 1_556 S
O361 La337 2.503 . S
O361 C346 1.256 . S
O362 La337 2.521 . S
O362 C347 1.261 . S
O363 La337 2.628 . S
O363 C347 1.243 . S
O364 La337 2.554 . S
O364 C354 1.240 . S
O365 La336 2.519 . S
O365 La337 2.757 . S
O365 C354 1.289 . S
O366 La337 2.470 . S
O366 C355 1.258 1_545 S
O367 La336 2.523 1_565 S
O367 C355 1.256 . S
H368 C340 0.930 . S
H369 C341 0.930 . S
H370 C343 0.929 1_554 S
H371 C344 0.929 . S
H372 C349 0.930 . S
H373 C350 0.930 . S
H374 C352 0.929 . S
H375 C353 0.929 . S
La376 C378 2.928 . S
La376 O396 2.521 . S
La376 O397 2.628 . S
La376 O398 2.554 . S
La376 O399 2.757 . S
La376 O400 2.470 . S
La376 O405 2.482 . S
La376 O407 2.503 . S
La377 C387 2.928 . S
La377 O399 2.482 . S
La377 O401 2.503 . S
La377 O402 2.521 . S
La377 O403 2.628 . S
La377 O404 2.554 . S
La377 O405 2.757 . S
La377 O406 2.470 . S
C378 La376 2.928 . S
C378 C379 1.503 . S
C378 O396 1.261 . S
C378 O397 1.243 . S
C379 C378 1.503 . S
C379 C380 1.394 . S
C379 C384 1.373 . S
C380 C379 1.394 . S
C380 C381 1.380 . S
C380 H408 0.930 . S
C381 C380 1.380 . S
C381 C382 1.376 . S
C381 H409 0.930 . S
C382 C381 1.376 . S
C382 C383 1.370 . S
C383 C382 1.370 . S
C383 C384 1.396 . S
C383 H410 0.929 . S
C384 C379 1.373 . S
C384 C383 1.396 . S
C384 H411 0.929 . S
C385 O398 1.240 . S
C385 O399 1.289 . S
C386 O400 1.258 . S
C386 O401 1.256 . S
C387 La377 2.928 . S
C387 C388 1.503 . S
C387 O402 1.261 . S
C387 O403 1.243 . S
C388 C387 1.503 . S
C388 C389 1.394 . S
C388 C393 1.373 . S
C389 C388 1.394 . S
C389 C390 1.380 . S
C389 H412 0.930 . S
C390 C389 1.380 . S
C390 C391 1.376 . S
C390 H413 0.930 . S
C391 C390 1.376 . S
C391 C392 1.370 . S
C392 C391 1.370 . S
C392 C393 1.396 . S
C392 H414 0.929 . S
C393 C388 1.373 . S
C393 C392 1.396 . S
C393 H415 0.929 . S
C394 O404 1.240 . S
C394 O405 1.289 . S
C395 O406 1.258 . S
C395 O407 1.256 . S
O396 La376 2.521 . S
O396 C378 1.261 . S
O397 La376 2.628 . S
O397 C378 1.243 . S
O398 La376 2.554 . S
O398 C385 1.240 . S
O399 La376 2.757 . S
O399 La377 2.482 . S
O399 C385 1.289 . S
O400 La376 2.470 . S
O400 C386 1.258 . S
O401 La377 2.503 . S
O401 C386 1.256 . S
O402 La377 2.521 . S
O402 C387 1.261 . S
O403 La377 2.628 . S
O403 C387 1.243 . S
O404 La377 2.554 . S
O404 C394 1.240 . S
O405 La376 2.482 . S
O405 La377 2.757 . S
O405 C394 1.289 . S
O406 La377 2.470 . S
O406 C395 1.258 . S
O407 La376 2.503 . S
O407 C395 1.256 . S
H408 C380 0.930 . S
H409 C381 0.930 . S
H410 C383 0.929 . S
H411 C384 0.929 . S
H412 C389 0.930 . S
H413 C390 0.930 . S
H414 C392 0.929 . S
H415 C393 0.929 . S
La416 C418 2.928 . S
La416 O436 2.521 . S
La416 O437 2.628 . S
La416 O438 2.554 . S
La416 O439 2.757 . S
La416 O440 2.470 1_545 S
La416 O445 2.482 . S
La416 O447 2.503 . S
La417 C427 2.928 . S
La417 O439 2.482 . S
La417 O441 2.503 1_545 S
La417 O442 2.521 . S
La417 O443 2.628 . S
La417 O444 2.554 . S
La417 O445 2.757 . S
La417 O446 2.470 . S
C418 La416 2.928 . S
C418 C419 1.503 1_545 S
C418 O436 1.261 . S
C418 O437 1.243 . S
C419 C418 1.503 1_565 S
C419 C420 1.394 . S
C419 C424 1.373 . S
C420 C419 1.394 . S
C420 C421 1.380 . S
C420 H448 0.922 1_565 S
C421 C420 1.380 . S
C421 C422 1.376 . S
C421 H449 0.930 . S
C422 C421 1.376 . S
C422 C423 1.370 . S
C423 C422 1.370 . S
C423 C424 1.396 . S
C423 H450 0.929 . S
C424 C419 1.373 . S
C424 C423 1.396 . S
C424 H451 0.929 . S
C425 O438 1.240 . S
C425 O439 1.289 . S
C426 O440 1.258 . S
C426 O441 1.256 . S
C427 La417 2.928 . S
C427 C428 1.503 . S
C427 O442 1.261 . S
C427 O443 1.243 . S
C428 C427 1.503 . S
C428 C429 1.394 . S
C428 C433 1.373 . S
C429 C428 1.394 . S
C429 C430 1.380 . S
C429 H452 0.930 . S
C430 C429 1.380 . S
C430 C431 1.376 . S
C430 H453 0.930 . S
C431 C430 1.376 . S
C431 C432 1.370 . S
C432 C431 1.370 . S
C432 C433 1.396 . S
C432 H454 0.929 . S
C433 C428 1.373 . S
C433 C432 1.396 . S
C433 H455 0.929 . S
C434 O444 1.240 . S
C434 O445 1.289 . S
C435 O446 1.258 . S
C435 O447 1.256 . S
O436 La416 2.521 . S
O436 C418 1.261 . S
O437 La416 2.628 . S
O437 C418 1.243 . S
O438 La416 2.554 . S
O438 C425 1.240 . S
O439 La416 2.757 . S
O439 La417 2.482 . S
O439 C425 1.289 . S
O440 La416 2.470 1_565 S
O440 C426 1.258 . S
O441 La417 2.503 1_565 S
O441 C426 1.256 . S
O442 La417 2.521 . S
O442 C427 1.261 . S
O443 La417 2.628 . S
O443 C427 1.243 . S
O444 La417 2.554 . S
O444 C434 1.240 . S
O445 La416 2.482 . S
O445 La417 2.757 . S
O445 C434 1.289 . S
O446 La417 2.470 . S
O446 C435 1.258 . S
O447 La416 2.503 . S
O447 C435 1.256 . S
H448 C420 0.922 1_545 S
H449 C421 0.930 . S
H450 C423 0.929 . S
H451 C424 0.929 . S
H452 C429 0.930 . S
H453 C430 0.930 . S
H454 C432 0.929 . S
H455 C433 0.929 . S
La456 C458 2.928 . S
La456 O476 2.521 . S
La456 O477 2.628 . S
La456 O478 2.554 . S
La456 O479 2.757 . S
La456 O480 2.470 . S
La456 O485 2.482 . S
La456 O487 2.503 . S
La457 C467 2.928 . S
La457 O479 2.482 . S
La457 O481 2.503 . S
La457 O482 2.521 . S
La457 O483 2.628 . S
La457 O484 2.554 . S
La457 O485 2.757 . S
La457 O486 2.470 . S
C458 La456 2.928 . S
C458 C459 1.503 . S
C458 O476 1.261 . S
C458 O477 1.243 . S
C459 C458 1.503 . S
C459 C460 1.394 . S
C459 C464 1.373 . S
C460 C459 1.394 . S
C460 C461 1.380 . S
C460 H488 0.930 . S
C461 C460 1.380 . S
C461 C462 1.376 . S
C461 H489 0.930 . S
C462 C461 1.376 . S
C462 C463 1.370 . S
C463 C462 1.370 . S
C463 C464 1.396 . S
C463 H490 0.929 . S
C464 C459 1.373 . S
C464 C463 1.396 . S
C464 H491 0.929 . S
C465 O478 1.240 . S
C465 O479 1.289 . S
C466 O480 1.258 . S
C466 O481 1.256 . S
C467 La457 2.928 . S
C467 C468 1.503 . S
C467 O482 1.261 . S
C467 O483 1.243 . S
C468 C467 1.503 . S
C468 C469 1.394 . S
C468 C473 1.373 . S
C469 C468 1.394 . S
C469 C470 1.380 . S
C469 H492 0.930 . S
C470 C469 1.380 . S
C470 C471 1.376 . S
C470 H493 0.930 . S
C471 C470 1.376 . S
C471 C472 1.370 . S
C472 C471 1.370 . S
C472 C473 1.396 . S
C472 H494 0.929 . S
C473 C468 1.373 . S
C473 C472 1.396 . S
C473 H495 0.929 . S
C474 O484 1.240 . S
C474 O485 1.289 . S
C475 O486 1.258 . S
C475 O487 1.256 . S
O476 La456 2.521 . S
O476 C458 1.261 . S
O477 La456 2.628 . S
O477 C458 1.243 . S
O478 La456 2.554 . S
O478 C465 1.240 . S
O479 La456 2.757 . S
O479 La457 2.482 . S
O479 C465 1.289 . S
O480 La456 2.470 . S
O480 C466 1.258 . S
O481 La457 2.503 . S
O481 C466 1.256 . S
O482 La457 2.521 . S
O482 C467 1.261 . S
O483 La457 2.628 . S
O483 C467 1.243 . S
O484 La457 2.554 . S
O484 C474 1.240 . S
O485 La456 2.482 . S
O485 La457 2.757 . S
O485 C474 1.289 . S
O486 La457 2.470 . S
O486 C475 1.258 . S
O487 La456 2.503 . S
O487 C475 1.256 . S
H488 C460 0.930 . S
H489 C461 0.930 . S
H490 C463 0.929 . S
H491 C464 0.929 . S
H492 C469 0.930 . S
H493 C470 0.930 . S
H494 C472 0.929 . S
H495 C473 0.929 . S
La496 C498 2.928 . S
La496 O516 2.521 . S
La496 O517 2.628 . S
La496 O518 2.554 . S
La496 O519 2.757 . S
La496 O520 2.470 . S
La496 O525 2.482 . S
La496 O527 2.503 . S
La497 C507 2.928 . S
La497 O519 2.482 1_565 S
La497 O521 2.503 1_565 S
La497 O522 2.521 . S
La497 O523 2.628 . S
La497 O524 2.554 1_565 S
La497 O525 2.757 1_565 S
La497 O526 2.470 1_565 S
C498 La496 2.928 . S
C498 C499 1.503 . S
C498 O516 1.261 . S
C498 O517 1.243 . S
C499 C498 1.503 . S
C499 C500 1.394 . S
C499 C504 1.373 . S
C500 C499 1.394 . S
C500 C501 1.380 . S
C500 H528 0.930 . S
C501 C500 1.380 . S
C501 C502 1.376 . S
C501 H529 0.930 . S
C502 C501 1.376 . S
C502 C503 1.370 . S
C503 C502 1.370 . S
C503 C504 1.396 . S
C503 H530 0.929 . S
C504 C499 1.373 . S
C504 C503 1.396 . S
C504 H531 0.929 . S
C505 O518 1.240 . S
C505 O519 1.289 . S
C506 O520 1.258 . S
C506 O521 1.256 . S
C507 La497 2.928 . S
C507 C508 1.503 . S
C507 O522 1.261 . S
C507 O523 1.243 . S
C508 C507 1.503 . S
C508 C509 1.394 . S
C508 C513 1.373 . S
C509 C508 1.394 . S
C509 C510 1.380 . S
C509 H532 0.930 . S
C510 C509 1.380 . S
C510 C511 1.376 . S
C510 H533 0.930 . S
C511 C510 1.376 . S
C511 C512 1.370 . S
C512 C511 1.370 . S
C512 C513 1.396 . S
C512 H534 0.929 . S
C513 C508 1.373 . S
C513 C512 1.396 . S
C513 H535 0.929 . S
C514 O524 1.240 . S
C514 O525 1.289 . S
C515 O526 1.258 . S
C515 O527 1.256 . S
O516 La496 2.521 . S
O516 C498 1.261 . S
O517 La496 2.628 . S
O517 C498 1.243 . S
O518 La496 2.554 . S
O518 C505 1.240 . S
O519 La496 2.757 . S
O519 La497 2.482 1_545 S
O519 C505 1.289 . S
O520 La496 2.470 . S
O520 C506 1.258 . S
O521 La497 2.503 1_545 S
O521 C506 1.256 . S
O522 La497 2.521 . S
O522 C507 1.261 . S
O523 La497 2.628 . S
O523 C507 1.243 . S
O524 La497 2.554 1_545 S
O524 C514 1.240 . S
O525 La496 2.482 . S
O525 La497 2.757 1_545 S
O525 C514 1.289 . S
O526 La497 2.470 1_545 S
O526 C515 1.258 . S
O527 La496 2.503 . S
O527 C515 1.256 . S
H528 C500 0.930 . S
H529 C501 0.930 . S
H530 C503 0.929 . S
H531 C504 0.929 . S
H532 C509 0.930 . S
H533 C510 0.930 . S
H534 C512 0.929 . S
H535 C513 0.929 . S
La536 C538 2.928 . S
La536 O556 2.521 . S
La536 O557 2.628 . S
La536 O558 2.554 . S
La536 O559 2.757 . S
La536 O560 2.470 . S
La536 O565 2.482 . S
La536 O567 2.503 . S
La537 C547 2.928 . S
La537 O559 2.482 . S
La537 O561 2.503 . S
La537 O562 2.521 . S
La537 O563 2.628 . S
La537 O564 2.554 . S
La537 O565 2.757 . S
La537 O566 2.470 . S
C538 La536 2.928 . S
C538 C539 1.503 . S
C538 O556 1.261 . S
C538 O557 1.243 . S
C539 C538 1.503 . S
C539 C540 1.394 . S
C539 C544 1.373 . S
C540 C539 1.394 . S
C540 C541 1.380 . S
C540 H568 0.930 . S
C541 C540 1.380 . S
C541 C542 1.376 . S
C541 H569 0.930 . S
C542 C541 1.376 . S
C542 C543 1.370 . S
C543 C542 1.370 . S
C543 C544 1.396 . S
C543 H570 0.929 . S
C544 C539 1.373 . S
C544 C543 1.396 . S
C544 H571 0.929 . S
C545 O558 1.240 . S
C545 O559 1.289 . S
C546 O560 1.258 . S
C546 O561 1.256 . S
C547 La537 2.928 . S
C547 C548 1.503 . S
C547 O562 1.261 . S
C547 O563 1.243 . S
C548 C547 1.503 . S
C548 C549 1.394 . S
C548 C553 1.373 . S
C549 C548 1.394 . S
C549 C550 1.380 . S
C549 H572 0.930 . S
C550 C549 1.380 . S
C550 C551 1.376 . S
C550 H573 0.930 . S
C551 C550 1.376 . S
C551 C552 1.370 . S
C552 C551 1.370 . S
C552 C553 1.396 . S
C552 H574 0.929 . S
C553 C548 1.373 . S
C553 C552 1.396 . S
C553 H575 0.929 . S
C554 O564 1.240 . S
C554 O565 1.289 . S
C555 O566 1.258 . S
C555 O567 1.256 . S
O556 La536 2.521 . S
O556 C538 1.261 . S
O557 La536 2.628 . S
O557 C538 1.243 . S
O558 La536 2.554 . S
O558 C545 1.240 . S
O559 La536 2.757 . S
O559 La537 2.482 . S
O559 C545 1.289 . S
O560 La536 2.470 . S
O560 C546 1.258 . S
O561 La537 2.503 . S
O561 C546 1.256 . S
O562 La537 2.521 . S
O562 C547 1.261 . S
O563 La537 2.628 . S
O563 C547 1.243 . S
O564 La537 2.554 . S
O564 C554 1.240 . S
O565 La536 2.482 . S
O565 La537 2.757 . S
O565 C554 1.289 . S
O566 La537 2.470 . S
O566 C555 1.258 . S
O567 La536 2.503 . S
O567 C555 1.256 . S
H568 C540 0.930 . S
H569 C541 0.930 . S
H570 C543 0.929 . S
H571 C544 0.929 . S
H572 C549 0.930 . S
H573 C550 0.930 . S
H574 C552 0.929 . S
H575 C553 0.929 . S
La576 C578 2.928 . S
La576 O596 2.521 . S
La576 O597 2.628 . S
La576 O598 2.554 1_545 S
La576 O599 2.757 1_554 S
La576 O600 2.470 . S
La576 O605 2.482 . S
La576 O607 2.503 . S
La577 C587 2.928 . S
La577 O599 2.482 . S
La577 O601 2.503 . S
La577 O602 2.521 . S
La577 O603 2.628 . S
La577 O604 2.554 . S
La577 O605 2.757 1_556 S
La577 O606 2.470 . S
C578 La576 2.928 . S
C578 C579 1.503 . S
C578 O596 1.261 . S
C578 O597 1.243 . S
C579 C578 1.503 . S
C579 C580 1.394 1_545 S
C579 C584 1.373 . S
C580 C579 1.394 1_565 S
C580 C581 1.380 . S
C580 H608 0.930 . S
C581 C580 1.380 . S
C581 C582 1.376 . S
C581 H609 0.930 . S
C582 C581 1.376 . S
C582 C583 1.370 1_565 S
C583 C582 1.370 1_545 S
C583 C584 1.396 . S
C583 H610 0.929 . S
C584 C579 1.373 . S
C584 C583 1.396 . S
C584 H611 0.929 . S
C585 O598 1.240 1_556 S
C585 O599 1.289 1_565 S
C586 O600 1.258 . S
C586 O601 1.256 1_554 S
C587 La577 2.928 . S
C587 C588 1.503 . S
C587 O602 1.261 . S
C587 O603 1.243 . S
C588 C587 1.503 . S
C588 C589 1.394 . S
C588 C593 1.373 . S
C589 C588 1.394 . S
C589 C590 1.380 . S
C589 H612 0.930 . S
C590 C589 1.380 . S
C590 C591 1.376 . S
C590 H613 0.930 . S
C591 C590 1.376 . S
C591 C592 1.370 . S
C592 C591 1.370 . S
C592 C593 1.396 . S
C592 H614 0.929 . S
C593 C588 1.373 . S
C593 C592 1.396 . S
C593 H615 0.929 . S
C594 O604 1.240 1_554 S
C594 O605 1.289 . S
C595 O606 1.258 1_554 S
C595 O607 1.256 . S
O596 La576 2.521 . S
O596 C578 1.261 . S
O597 La576 2.628 . S
O597 C578 1.243 . S
O598 La576 2.554 1_565 S
O598 C585 1.240 1_554 S
O599 La576 2.757 1_556 S
O599 La577 2.482 . S
O599 C585 1.289 1_545 S
O600 La576 2.470 . S
O600 C586 1.258 . S
O601 La577 2.503 . S
O601 C586 1.256 1_556 S
O602 La577 2.521 . S
O602 C587 1.261 . S
O603 La577 2.628 . S
O603 C587 1.243 . S
O604 La577 2.554 . S
O604 C594 1.240 1_556 S
O605 La576 2.482 . S
O605 La577 2.757 1_554 S
O605 C594 1.289 . S
O606 La577 2.470 . S
O606 C595 1.258 1_556 S
O607 La576 2.503 . S
O607 C595 1.256 . S
H608 C580 0.930 . S
H609 C581 0.930 . S
H610 C583 0.929 . S
H611 C584 0.929 . S
H612 C589 0.930 . S
H613 C590 0.930 . S
H614 C592 0.929 . S
H615 C593 0.929 . S
La616 C618 2.928 . S
La616 O636 2.521 . S
La616 O637 2.628 . S
La616 O638 2.554 . S
La616 O639 2.757 . S
La616 O640 2.470 . S
La616 O645 2.482 . S
La616 O647 2.503 . S
La617 C627 2.928 . S
La617 O639 2.482 . S
La617 O641 2.503 . S
La617 O642 2.521 . S
La617 O643 2.628 . S
La617 O644 2.554 . S
La617 O645 2.757 . S
La617 O646 2.470 . S
C618 La616 2.928 . S
C618 C619 1.503 . S
C618 O636 1.261 . S
C618 O637 1.243 . S
C619 C618 1.503 . S
C619 C620 1.394 . S
C619 C624 1.373 . S
C620 C619 1.394 . S
C620 C621 1.380 . S
C620 H648 0.930 . S
C621 C620 1.380 . S
C621 C622 1.376 . S
C621 H649 0.930 . S
C622 C621 1.376 . S
C622 C623 1.370 . S
C623 C622 1.370 . S
C623 C624 1.396 . S
C623 H650 0.929 . S
C624 C619 1.373 . S
C624 C623 1.396 . S
C624 H651 0.929 . S
C625 O638 1.240 . S
C625 O639 1.289 . S
C626 O640 1.258 . S
C626 O641 1.256 . S
C627 La617 2.928 . S
C627 C628 1.503 . S
C627 O642 1.261 . S
C627 O643 1.243 . S
C628 C627 1.503 . S
C628 C629 1.394 . S
C628 C633 1.373 . S
C629 C628 1.394 . S
C629 C630 1.380 . S
C629 H652 0.930 . S
C630 C629 1.380 . S
C630 C631 1.376 . S
C630 H653 0.930 . S
C631 C630 1.376 . S
C631 C632 1.370 . S
C632 C631 1.370 . S
C632 C633 1.396 . S
C632 H654 0.929 . S
C633 C628 1.373 . S
C633 C632 1.396 . S
C633 H655 0.929 . S
C634 O644 1.240 . S
C634 O645 1.289 . S
C635 O646 1.258 . S
C635 O647 1.256 . S
O636 La616 2.521 . S
O636 C618 1.261 . S
O637 La616 2.628 . S
O637 C618 1.243 . S
O638 La616 2.554 . S
O638 C625 1.240 . S
O639 La616 2.757 . S
O639 La617 2.482 . S
O639 C625 1.289 . S
O640 La616 2.470 . S
O640 C626 1.258 . S
O641 La617 2.503 . S
O641 C626 1.256 . S
O642 La617 2.521 . S
O642 C627 1.261 . S
O643 La617 2.628 . S
O643 C627 1.243 . S
O644 La617 2.554 . S
O644 C634 1.240 . S
O645 La616 2.482 . S
O645 La617 2.757 . S
O645 C634 1.289 . S
O646 La617 2.470 . S
O646 C635 1.258 . S
O647 La616 2.503 . S
O647 C635 1.256 . S
H648 C620 0.930 . S
H649 C621 0.930 . S
H650 C623 0.929 . S
H651 C624 0.929 . S
H652 C629 0.930 . S
H653 C630 0.930 . S
H654 C632 0.929 . S
H655 C633 0.929 . S
La656 C658 2.928 1_554 S
La656 O676 2.521 . S
La656 O677 2.628 1_554 S
La656 O678 2.554 . S
La656 O679 2.757 . S
La656 O680 2.470 1_554 S
La656 O685 2.482 . S
La656 O687 2.503 . S
La657 C667 2.928 1_556 S
La657 O679 2.482 1_556 S
La657 O681 2.503 . S
La657 O682 2.521 1_556 S
La657 O683 2.628 1_556 S
La657 O684 2.554 . S
La657 O685 2.757 1_556 S
La657 O686 2.470 1_556 S
C658 La656 2.928 1_556 S
C658 C659 1.503 . S
C658 O676 1.261 1_556 S
C658 O677 1.243 . S
C659 C658 1.503 . S
C659 C660 1.394 . S
C659 C664 1.373 . S
C660 C659 1.394 . S
C660 C661 1.380 . S
C660 H688 0.930 1_556 S
C661 C660 1.380 . S
C661 C662 1.376 . S
C661 H689 0.930 . S
C662 C661 1.376 . S
C662 C663 1.370 . S
C663 C662 1.370 . S
C663 C664 1.396 . S
C663 H690 0.929 . S
C664 C659 1.373 . S
C664 C663 1.396 . S
C664 H691 0.929 . S
C665 O678 1.240 . S
C665 O679 1.289 . S
C666 O680 1.258 . S
C666 O681 1.256 . S
C667 La657 2.928 1_554 S
C667 C668 1.503 . S
C667 O682 1.261 . S
C667 O683 1.243 . S
C668 C667 1.503 . S
C668 C669 1.394 . S
C668 C673 1.373 . S
C669 C668 1.394 . S
C669 C670 1.380 . S
C669 H692 0.930 . S
C670 C669 1.380 . S
C670 C671 1.376 . S
C670 H693 0.930 . S
C671 C670 1.376 . S
C671 C672 1.370 . S
C672 C671 1.370 . S
C672 C673 1.396 . S
C672 H694 0.929 . S
C673 C668 1.373 . S
C673 C672 1.396 . S
C673 H695 0.929 . S
C674 O684 1.240 1_554 S
C674 O685 1.289 . S
C675 O686 1.258 . S
C675 O687 1.256 . S
O676 La656 2.521 . S
O676 C658 1.261 1_554 S
O677 La656 2.628 1_556 S
O677 C658 1.243 . S
O678 La656 2.554 . S
O678 C665 1.240 . S
O679 La656 2.757 . S
O679 La657 2.482 1_554 S
O679 C665 1.289 . S
O680 La656 2.470 1_556 S
O680 C666 1.258 . S
O681 La657 2.503 . S
O681 C666 1.256 . S
O682 La657 2.521 1_554 S
O682 C667 1.261 . S
O683 La657 2.628 1_554 S
O683 C667 1.243 . S
O684 La657 2.554 . S
O684 C674 1.240 1_556 S
O685 La656 2.482 . S
O685 La657 2.757 1_554 S
O685 C674 1.289 . S
O686 La657 2.470 1_554 S
O686 C675 1.258 . S
O687 La656 2.503 . S
O687 C675 1.256 . S
H688 C660 0.930 1_554 S
H689 C661 0.930 . S
H690 C663 0.929 . S
H691 C664 0.929 . S
H692 C669 0.930 . S
H693 C670 0.930 . S
H694 C672 0.929 . S
H695 C673 0.929 . S
La696 C698 2.928 . S
La696 O716 2.521 . S
La696 O717 2.628 . S
La696 O718 2.554 . S
La696 O719 2.757 . S
La696 O720 2.470 . S
La696 O725 2.482 . S
La696 O727 2.503 . S
La697 C707 2.928 . S
La697 O719 2.482 . S
La697 O721 2.503 . S
La697 O722 2.521 . S
La697 O723 2.628 . S
La697 O724 2.554 . S
La697 O725 2.757 . S
La697 O726 2.470 . S
C698 La696 2.928 . S
C698 C699 1.503 . S
C698 O716 1.261 . S
C698 O717 1.243 . S
C699 C698 1.503 . S
C699 C700 1.394 . S
C699 C704 1.373 . S
C700 C699 1.394 . S
C700 C701 1.380 . S
C700 H728 0.930 . S
C701 C700 1.380 . S
C701 C702 1.376 . S
C701 H729 0.930 . S
C702 C701 1.376 . S
C702 C703 1.370 . S
C703 C702 1.370 . S
C703 C704 1.396 . S
C703 H730 0.929 . S
C704 C699 1.373 . S
C704 C703 1.396 . S
C704 H731 0.929 . S
C705 O718 1.240 . S
C705 O719 1.289 . S
C706 O720 1.258 . S
C706 O721 1.256 . S
C707 La697 2.928 . S
C707 C708 1.503 . S
C707 O722 1.261 . S
C707 O723 1.243 . S
C708 C707 1.503 . S
C708 C709 1.394 . S
C708 C713 1.373 . S
C709 C708 1.394 . S
C709 C710 1.380 . S
C709 H732 0.930 . S
C710 C709 1.380 . S
C710 C711 1.376 . S
C710 H733 0.930 . S
C711 C710 1.376 . S
C711 C712 1.370 . S
C712 C711 1.370 . S
C712 C713 1.396 . S
C712 H734 0.929 . S
C713 C708 1.373 . S
C713 C712 1.396 . S
C713 H735 0.929 . S
C714 O724 1.240 . S
C714 O725 1.289 . S
C715 O726 1.258 . S
C715 O727 1.256 . S
O716 La696 2.521 . S
O716 C698 1.261 . S
O717 La696 2.628 . S
O717 C698 1.243 . S
O718 La696 2.554 . S
O718 C705 1.240 . S
O719 La696 2.757 . S
O719 La697 2.482 . S
O719 C705 1.289 . S
O720 La696 2.470 . S
O720 C706 1.258 . S
O721 La697 2.503 . S
O721 C706 1.256 . S
O722 La697 2.521 . S
O722 C707 1.261 . S
O723 La697 2.628 . S
O723 C707 1.243 . S
O724 La697 2.554 . S
O724 C714 1.240 . S
O725 La696 2.482 . S
O725 La697 2.757 . S
O725 C714 1.289 . S
O726 La697 2.470 . S
O726 C715 1.258 . S
O727 La696 2.503 . S
O727 C715 1.256 . S
H728 C700 0.930 . S
H729 C701 0.930 . S
H730 C703 0.929 . S
H731 C704 0.929 . S
H732 C709 0.930 . S
H733 C710 0.930 . S
H734 C712 0.929 . S
H735 C713 0.929 . S
La736 C738 2.928 . S
La736 O756 2.521 . S
La736 O757 2.628 . S
La736 O758 2.554 . S
La736 O759 2.757 . S
La736 O760 2.470 . S
La736 O765 2.482 . S
La736 O767 2.503 . S
La737 C747 2.928 . S
La737 O759 2.482 . S
La737 O761 2.503 . S
La737 O762 2.521 . S
La737 O763 2.628 . S
La737 O764 2.554 . S
La737 O765 2.757 . S
La737 O766 2.470 . S
C738 La736 2.928 . S
C738 C739 1.503 . S
C738 O756 1.261 . S
C738 O757 1.243 . S
C739 C738 1.503 . S
C739 C740 1.394 . S
C739 C744 1.373 1_455 S
C740 C739 1.394 . S
C740 C741 1.380 . S
C740 H768 0.930 . S
C741 C740 1.380 . S
C741 C742 1.376 1_455 S
C741 H769 0.930 . S
C742 C741 1.376 1_655 S
C742 C743 1.370 . S
C743 C742 1.370 . S
C743 C744 1.396 . S
C743 H770 0.929 . S
C744 C739 1.373 1_655 S
C744 C743 1.396 . S
C744 H771 0.929 . S
C745 O758 1.240 . S
C745 O759 1.289 . S
C746 O760 1.241 1_655 S
C746 O761 1.252 1_655 S
C747 La737 2.928 . S
C747 C748 1.503 . S
C747 O762 1.261 . S
C747 O763 1.243 . S
C748 C747 1.503 . S
C748 C749 1.394 . S
C748 C753 1.373 . S
C749 C748 1.394 . S
C749 C750 1.380 . S
C749 H772 0.930 . S
C750 C749 1.380 . S
C750 C751 1.376 . S
C750 H773 0.930 . S
C751 C750 1.376 . S
C751 C752 1.370 . S
C752 C751 1.370 . S
C752 C753 1.396 . S
C752 H774 0.929 . S
C753 C748 1.373 . S
C753 C752 1.396 . S
C753 H775 0.929 . S
C754 O764 1.240 . S
C754 O765 1.289 . S
C755 O766 1.258 . S
C755 O767 1.256 . S
O756 La736 2.521 . S
O756 C738 1.261 . S
O757 La736 2.628 . S
O757 C738 1.243 . S
O758 La736 2.554 . S
O758 C745 1.240 . S
O759 La736 2.757 . S
O759 La737 2.482 . S
O759 C745 1.289 . S
O760 La736 2.470 . S
O760 C746 1.241 1_455 S
O761 La737 2.503 . S
O761 C746 1.252 1_455 S
O762 La737 2.521 . S
O762 C747 1.261 . S
O763 La737 2.628 . S
O763 C747 1.243 . S
O764 La737 2.554 . S
O764 C754 1.240 . S
O765 La736 2.482 . S
O765 La737 2.757 . S
O765 C754 1.289 . S
O766 La737 2.470 . S
O766 C755 1.258 . S
O767 La736 2.503 . S
O767 C755 1.256 . S
H768 C740 0.930 . S
H769 C741 0.930 . S
H770 C743 0.929 . S
H771 C744 0.929 . S
H772 C749 0.930 . S
H773 C750 0.930 . S
H774 C752 0.929 . S
H775 C753 0.929 . S
La776 C778 2.928 . S
La776 O796 2.521 . S
La776 O797 2.628 . S
La776 O798 2.554 . S
La776 O799 2.757 . S
La776 O800 2.470 . S
La776 O805 2.482 . S
La776 O807 2.503 . S
La777 C787 2.928 . S
La777 O799 2.482 . S
La777 O801 2.503 . S
La777 O802 2.521 . S
La777 O803 2.628 . S
La777 O804 2.554 . S
La777 O805 2.757 . S
La777 O806 2.470 . S
C778 La776 2.928 . S
C778 C779 1.503 . S
C778 O796 1.261 . S
C778 O797 1.243 . S
C779 C778 1.503 . S
C779 C780 1.394 . S
C779 C784 1.373 . S
C780 C779 1.394 . S
C780 C781 1.380 . S
C780 H808 0.930 . S
C781 C780 1.380 . S
C781 C782 1.376 . S
C781 H809 0.930 . S
C782 C781 1.376 . S
C782 C783 1.370 . S
C783 C782 1.370 . S
C783 C784 1.396 . S
C783 H810 0.929 . S
C784 C779 1.373 . S
C784 C783 1.396 . S
C784 H811 0.929 . S
C785 O798 1.240 . S
C785 O799 1.289 . S
C786 O800 1.258 . S
C786 O801 1.256 . S
C787 La777 2.928 . S
C787 C788 1.503 . S
C787 O802 1.261 . S
C787 O803 1.243 . S
C788 C787 1.503 . S
C788 C789 1.394 . S
C788 C793 1.373 . S
C789 C788 1.394 . S
C789 C790 1.380 . S
C789 H812 0.930 . S
C790 C789 1.380 . S
C790 C791 1.376 . S
C790 H813 0.930 . S
C791 C790 1.376 . S
C791 C792 1.370 . S
C792 C791 1.370 . S
C792 C793 1.396 . S
C792 H814 0.929 . S
C793 C788 1.373 . S
C793 C792 1.396 . S
C793 H815 0.929 . S
C794 O804 1.240 . S
C794 O805 1.289 . S
C795 O806 1.258 . S
C795 O807 1.256 . S
O796 La776 2.521 . S
O796 C778 1.261 . S
O797 La776 2.628 . S
O797 C778 1.243 . S
O798 La776 2.554 . S
O798 C785 1.240 . S
O799 La776 2.757 . S
O799 La777 2.482 . S
O799 C785 1.289 . S
O800 La776 2.470 . S
O800 C786 1.258 . S
O801 La777 2.503 . S
O801 C786 1.256 . S
O802 La777 2.521 . S
O802 C787 1.261 . S
O803 La777 2.628 . S
O803 C787 1.243 . S
O804 La777 2.554 . S
O804 C794 1.240 . S
O805 La776 2.482 . S
O805 La777 2.757 . S
O805 C794 1.289 . S
O806 La777 2.470 . S
O806 C795 1.258 . S
O807 La776 2.503 . S
O807 C795 1.256 . S
H808 C780 0.930 . S
H809 C781 0.930 . S
H810 C783 0.929 . S
H811 C784 0.929 . S
H812 C789 0.930 . S
H813 C790 0.930 . S
H814 C792 0.929 . S
H815 C793 0.929 . S
La816 C818 2.928 . S
La816 O836 2.521 . S
La816 O837 2.628 . S
La816 O838 2.554 . S
La816 O839 2.757 . S
La816 O840 2.470 . S
La816 O845 2.482 . S
La816 O847 2.503 . S
La817 C827 2.928 . S
La817 O839 2.482 . S
La817 O841 2.503 . S
La817 O842 2.521 . S
La817 O843 2.628 . S
La817 O844 2.554 . S
La817 O845 2.757 . S
La817 O846 2.470 . S
C818 La816 2.928 . S
C818 C819 1.503 . S
C818 O836 1.261 . S
C818 O837 1.243 . S
C819 C818 1.503 . S
C819 C820 1.394 . S
C819 C824 1.373 . S
C820 C819 1.394 . S
C820 C821 1.380 . S
C820 H848 0.930 . S
C821 C820 1.380 . S
C821 C822 1.376 . S
C821 H849 0.930 . S
C822 C821 1.376 . S
C822 C823 1.370 . S
C823 C822 1.370 . S
C823 C824 1.396 . S
C823 H850 0.929 . S
C824 C819 1.373 . S
C824 C823 1.396 . S
C824 H851 0.929 . S
C825 O838 1.240 . S
C825 O839 1.289 . S
C826 O840 1.258 . S
C826 O841 1.256 . S
C827 La817 2.928 . S
C827 C828 1.503 . S
C827 O842 1.261 . S
C827 O843 1.243 . S
C828 C827 1.503 . S
C828 C829 1.394 . S
C828 C833 1.373 . S
C829 C828 1.394 . S
C829 C830 1.380 . S
C829 H852 0.930 . S
C830 C829 1.380 . S
C830 C831 1.376 . S
C830 H853 0.930 . S
C831 C830 1.376 . S
C831 C832 1.370 . S
C832 C831 1.370 . S
C832 C833 1.396 . S
C832 H854 0.929 . S
C833 C828 1.373 . S
C833 C832 1.396 . S
C833 H855 0.929 . S
C834 O844 1.240 . S
C834 O845 1.289 . S
C835 O846 1.258 . S
C835 O847 1.256 . S
O836 La816 2.521 . S
O836 C818 1.261 . S
O837 La816 2.628 . S
O837 C818 1.243 . S
O838 La816 2.554 . S
O838 C825 1.240 . S
O839 La816 2.757 . S
O839 La817 2.482 . S
O839 C825 1.289 . S
O840 La816 2.470 . S
O840 C826 1.258 . S
O841 La817 2.503 . S
O841 C826 1.256 . S
O842 La817 2.521 . S
O842 C827 1.261 . S
O843 La817 2.628 . S
O843 C827 1.243 . S
O844 La817 2.554 . S
O844 C834 1.240 . S
O845 La816 2.482 . S
O845 La817 2.757 . S
O845 C834 1.289 . S
O846 La817 2.470 . S
O846 C835 1.258 . S
O847 La816 2.503 . S
O847 C835 1.256 . S
H848 C820 0.930 . S
H849 C821 0.930 . S
H850 C823 0.929 . S
H851 C824 0.929 . S
H852 C829 0.930 . S
H853 C830 0.930 . S
H854 C832 0.929 . S
H855 C833 0.929 . S
La856 C858 2.928 . S
La856 O876 2.521 . S
La856 O877 2.628 . S
La856 O878 2.554 . S
La856 O879 2.757 . S
La856 O880 2.470 . S
La856 O885 2.482 . S
La856 O887 2.503 . S
La857 C867 2.928 . S
La857 O879 2.482 . S
La857 O881 2.503 . S
La857 O882 2.521 . S
La857 O883 2.628 . S
La857 O884 2.554 . S
La857 O885 2.757 . S
La857 O886 2.470 . S
C858 La856 2.928 . S
C858 C859 1.503 . S
C858 O876 1.261 . S
C858 O877 1.243 . S
C859 C858 1.503 . S
C859 C860 1.394 . S
C859 C864 1.373 . S
C860 C859 1.394 . S
C860 C861 1.380 . S
C860 H888 0.930 . S
C861 C860 1.380 . S
C861 C862 1.376 . S
C861 H889 0.930 . S
C862 C861 1.376 . S
C862 C863 1.370 . S
C863 C862 1.370 . S
C863 C864 1.396 . S
C863 H890 0.929 . S
C864 C859 1.373 . S
C864 C863 1.396 . S
C864 H891 0.929 . S
C865 O878 1.240 . S
C865 O879 1.289 . S
C866 O880 1.258 . S
C866 O881 1.256 . S
C867 La857 2.928 . S
C867 C868 1.503 . S
C867 O882 1.261 . S
C867 O883 1.243 . S
C868 C867 1.503 . S
C868 C869 1.394 . S
C868 C873 1.373 . S
C869 C868 1.394 . S
C869 C870 1.380 . S
C869 H892 0.930 . S
C870 C869 1.380 . S
C870 C871 1.376 . S
C870 H893 0.930 . S
C871 C870 1.376 . S
C871 C872 1.370 . S
C872 C871 1.370 . S
C872 C873 1.396 . S
C872 H894 0.929 . S
C873 C868 1.373 . S
C873 C872 1.396 . S
C873 H895 0.929 . S
C874 O884 1.240 . S
C874 O885 1.289 . S
C875 O886 1.258 . S
C875 O887 1.256 . S
O876 La856 2.521 . S
O876 C858 1.261 . S
O877 La856 2.628 . S
O877 C858 1.243 . S
O878 La856 2.554 . S
O878 C865 1.240 . S
O879 La856 2.757 . S
O879 La857 2.482 . S
O879 C865 1.289 . S
O880 La856 2.470 . S
O880 C866 1.258 . S
O881 La857 2.503 . S
O881 C866 1.256 . S
O882 La857 2.521 . S
O882 C867 1.261 . S
O883 La857 2.628 . S
O883 C867 1.243 . S
O884 La857 2.554 . S
O884 C874 1.240 . S
O885 La856 2.482 . S
O885 La857 2.757 . S
O885 C874 1.289 . S
O886 La857 2.470 . S
O886 C875 1.258 . S
O887 La856 2.503 . S
O887 C875 1.256 . S
H888 C860 0.930 . S
H889 C861 0.930 . S
H890 C863 0.929 . S
H891 C864 0.929 . S
H892 C869 0.930 . S
H893 C870 0.930 . S
H894 C872 0.929 . S
H895 C873 0.929 . S
La896 C898 2.928 . S
La896 O916 2.521 . S
La896 O917 2.628 . S
La896 O918 2.554 . S
La896 O919 2.757 . S
La896 O920 2.470 . S
La896 O925 2.482 . S
La896 O927 2.503 . S
La897 C907 2.928 . S
La897 O919 2.482 . S
La897 O921 2.503 . S
La897 O922 2.521 . S
La897 O923 2.628 . S
La897 O924 2.554 . S
La897 O925 2.757 . S
La897 O926 2.470 . S
C898 La896 2.928 . S
C898 C899 1.503 . S
C898 O916 1.261 . S
C898 O917 1.243 . S
C899 C898 1.503 . S
C899 C900 1.394 . S
C899 C904 1.373 . S
C900 C899 1.394 . S
C900 C901 1.380 . S
C900 H928 0.930 . S
C901 C900 1.380 . S
C901 C902 1.376 . S
C901 H929 0.930 . S
C902 C901 1.376 . S
C902 C903 1.370 . S
C903 C902 1.370 . S
C903 C904 1.396 . S
C903 H930 0.929 . S
C904 C899 1.373 . S
C904 C903 1.396 . S
C904 H931 0.929 . S
C905 O918 1.240 . S
C905 O919 1.289 . S
C906 O920 1.258 . S
C906 O921 1.256 . S
C907 La897 2.928 . S
C907 C908 1.503 . S
C907 O922 1.261 . S
C907 O923 1.243 . S
C908 C907 1.503 . S
C908 C909 1.394 . S
C908 C913 1.373 . S
C909 C908 1.394 . S
C909 C910 1.380 . S
C909 H932 0.930 . S
C910 C909 1.380 . S
C910 C911 1.376 . S
C910 H933 0.930 . S
C911 C910 1.376 . S
C911 C912 1.370 . S
C912 C911 1.370 . S
C912 C913 1.396 . S
C912 H934 0.929 . S
C913 C908 1.373 . S
C913 C912 1.396 . S
C913 H935 0.929 . S
C914 O924 1.240 . S
C914 O925 1.289 . S
C915 O926 1.258 . S
C915 O927 1.256 . S
O916 La896 2.521 . S
O916 C898 1.261 . S
O917 La896 2.628 . S
O917 C898 1.243 . S
O918 La896 2.554 . S
O918 C905 1.240 . S
O919 La896 2.757 . S
O919 La897 2.482 . S
O919 C905 1.289 . S
O920 La896 2.470 . S
O920 C906 1.258 . S
O921 La897 2.503 . S
O921 C906 1.256 . S
O922 La897 2.521 . S
O922 C907 1.261 . S
O923 La897 2.628 . S
O923 C907 1.243 . S
O924 La897 2.554 . S
O924 C914 1.240 . S
O925 La896 2.482 . S
O925 La897 2.757 . S
O925 C914 1.289 . S
O926 La897 2.470 . S
O926 C915 1.258 . S
O927 La896 2.503 . S
O927 C915 1.256 . S
H928 C900 0.930 . S
H929 C901 0.930 . S
H930 C903 0.929 . S
H931 C904 0.929 . S
H932 C909 0.930 . S
H933 C910 0.930 . S
H934 C912 0.929 . S
H935 C913 0.929 . S
La936 C938 2.928 1_554 S
La936 O956 2.521 1_554 S
La936 O957 2.628 . S
La936 O958 2.554 1_554 S
La936 O959 2.757 1_554 S
La936 O960 2.470 1_554 S
La936 O965 2.482 . S
La936 O967 2.503 . S
La937 C947 2.928 1_455 S
La937 O959 2.482 1_554 S
La937 O961 2.503 . S
La937 O962 2.521 1_455 S
La937 O963 2.628 1_455 S
La937 O964 2.554 . S
La937 O965 2.757 . S
La937 O966 2.470 . S
C938 La936 2.928 1_556 S
C938 C939 1.503 . S
C938 O956 1.261 . S
C938 O957 1.243 1_556 S
C939 C938 1.503 . S
C939 C940 1.394 . S
C939 C944 1.373 1_556 S
C940 C939 1.394 . S
C940 C941 1.380 . S
C940 H968 0.930 . S
C941 C940 1.380 . S
C941 C942 1.376 . S
C941 H969 0.930 . S
C942 C941 1.376 . S
C942 C943 1.370 1_556 S
C943 C942 1.370 1_554 S
C943 C944 1.396 . S
C943 H970 0.929 . S
C944 C939 1.373 1_554 S
C944 C943 1.396 . S
C944 H971 0.929 . S
C945 O958 1.240 . S
C945 O959 1.289 . S
C946 O960 1.258 1_554 S
C946 O961 1.256 . S
C947 La937 2.928 1_655 S
C947 C948 1.503 . S
C947 O962 1.261 . S
C947 O963 1.243 . S
C948 C947 1.503 . S
C948 C949 1.394 . S
C948 C953 1.373 . S
C949 C948 1.394 . S
C949 C950 1.380 . S
C949 H972 0.930 . S
C950 C949 1.380 . S
C950 C951 1.376 . S
C950 H973 0.930 . S
C951 C950 1.376 . S
C951 C952 1.370 . S
C952 C951 1.370 . S
C952 C953 1.396 . S
C952 H974 0.929 . S
C953 C948 1.373 . S
C953 C952 1.396 . S
C953 H975 0.929 . S
C954 O964 1.240 . S
C954 O965 1.289 . S
C955 O966 1.258 . S
C955 O967 1.256 . S
O956 La936 2.521 1_556 S
O956 C938 1.261 . S
O957 La936 2.628 . S
O957 C938 1.243 1_554 S
O958 La936 2.554 1_556 S
O958 C945 1.240 . S
O959 La936 2.757 1_556 S
O959 La937 2.482 1_556 S
O959 C945 1.289 . S
O960 La936 2.470 1_556 S
O960 C946 1.258 1_556 S
O961 La937 2.503 . S
O961 C946 1.256 . S
O962 La937 2.521 1_655 S
O962 C947 1.261 . S
O963 La937 2.628 1_655 S
O963 C947 1.243 . S
O964 La937 2.554 . S
O964 C954 1.240 . S
O965 La936 2.482 . S
O965 La937 2.757 . S
O965 C954 1.289 . S
O966 La937 2.470 . S
O966 C955 1.258 . S
O967 La936 2.503 . S
O967 C955 1.256 . S
H968 C940 0.930 . S
H969 C941 0.930 . S
H970 C943 0.929 . S
H971 C944 0.929 . S
H972 C949 0.930 . S
H973 C950 0.930 . S
H974 C952 0.929 . S
H975 C953 0.929 . S
H976 C982 0.930 . S
H977 C986 0.930 . S
H978 C991 0.929 . S
H979 C989 0.929 . S
H980 C984 0.929 . S
H981 C990 0.929 1_554 S
C982 H976 0.930 . S
C982 C983 1.367 . S
C982 C990 1.378 . S
C983 C982 1.367 . S
C983 C991 1.433 . S
C984 H980 0.929 . S
C984 C986 1.378 . S
C984 C988 1.350 . S
C985 C988 1.463 . S
C985 C990 1.350 . S
C985 N993 1.427 . S
C986 H977 0.930 . S
C986 C984 1.378 . S
C986 C987 1.367 . S
C987 C986 1.367 . S
C987 C989 1.433 1_556 S
C988 C984 1.350 . S
C988 C985 1.463 . S
C988 N992 1.427 1_556 S
C989 H979 0.929 . S
C989 C987 1.433 1_554 S
C989 N992 1.384 . S
C990 H981 0.929 1_556 S
C990 C982 1.378 . S
C990 C985 1.350 . S
C991 H978 0.929 . S
C991 C983 1.433 . S
C991 N993 1.384 . S
N992 C988 1.427 1_554 S
N992 C989 1.384 . S
N993 C985 1.427 . S
N993 C991 1.384 . S
H994 C1000 0.930 . S
H995 C1004 0.930 . S
H996 C1009 0.929 . S
H997 C1007 0.929 . S
H998 C1002 0.929 . S
H999 C1008 0.929 . S
C1000 H994 0.930 . S
C1000 C1001 1.367 . S
C1000 C1008 1.378 . S
C1001 C1000 1.367 . S
C1001 C1009 1.433 . S
C1002 H998 0.929 . S
C1002 C1004 1.378 . S
C1002 C1006 1.350 . S
C1003 C1006 1.463 . S
C1003 C1008 1.350 . S
C1003 N1011 1.427 . S
C1004 H995 0.930 . S
C1004 C1002 1.378 . S
C1004 C1005 1.367 . S
C1005 C1004 1.367 . S
C1005 C1007 1.433 . S
C1006 C1002 1.350 . S
C1006 C1003 1.463 . S
C1006 N1010 1.427 . S
C1007 H997 0.929 . S
C1007 C1005 1.433 . S
C1007 N1010 1.384 . S
C1008 H999 0.929 . S
C1008 C1000 1.378 . S
C1008 C1003 1.350 . S
C1009 H996 0.929 . S
C1009 C1001 1.433 . S
C1009 N1011 1.384 . S
N1010 C1006 1.427 . S
N1010 C1007 1.384 . S
N1011 C1003 1.427 . S
N1011 C1009 1.384 . S
H1012 C1018 0.930 . S
H1013 C1022 0.930 . S
H1014 C1027 0.929 . S
H1015 C1025 0.929 . S
H1016 C1020 0.929 . S
H1017 C1026 0.929 . S
C1018 H1012 0.930 . S
C1018 C1019 1.367 . S
C1018 C1026 1.378 . S
C1019 C1018 1.367 . S
C1019 C1027 1.433 . S
C1020 H1016 0.929 . S
C1020 C1022 1.378 . S
C1020 C1024 1.350 . S
C1021 C1024 1.463 . S
C1021 C1026 1.350 . S
C1021 N1029 1.427 . S
C1022 H1013 0.930 . S
C1022 C1020 1.378 . S
C1022 C1023 1.367 . S
C1023 C1022 1.367 . S
C1023 C1025 1.433 . S
C1024 C1020 1.350 . S
C1024 C1021 1.463 . S
C1024 N1028 1.427 . S
C1025 H1015 0.929 . S
C1025 C1023 1.433 . S
C1025 N1028 1.384 . S
C1026 H1017 0.929 . S
C1026 C1018 1.378 . S
C1026 C1021 1.350 . S
C1027 H1014 0.929 . S
C1027 C1019 1.433 . S
C1027 N1029 1.384 . S
N1028 C1024 1.427 . S
N1028 C1025 1.384 . S
N1029 C1021 1.427 . S
N1029 C1027 1.384 . S
H1030 C1036 0.930 . S
H1031 C1040 0.930 . S
H1032 C1045 0.929 . S
H1033 C1043 0.929 . S
H1034 C1038 0.929 . S
H1035 C1044 0.929 . S
C1036 H1030 0.930 . S
C1036 C1037 1.367 . S
C1036 C1044 1.378 . S
C1037 C1036 1.367 . S
C1037 C1045 1.433 . S
C1038 H1034 0.929 . S
C1038 C1040 1.378 . S
C1038 C1042 1.350 . S
C1039 C1042 1.463 . S
C1039 C1044 1.350 . S
C1039 N1047 1.427 . S
C1040 H1031 0.930 . S
C1040 C1038 1.378 . S
C1040 C1041 1.367 . S
C1041 C1040 1.367 . S
C1041 C1043 1.433 . S
C1042 C1038 1.350 . S
C1042 C1039 1.463 . S
C1042 N1046 1.427 . S
C1043 H1033 0.929 . S
C1043 C1041 1.433 . S
C1043 N1046 1.384 . S
C1044 H1035 0.929 . S
C1044 C1036 1.378 . S
C1044 C1039 1.350 . S
C1045 H1032 0.929 . S
C1045 C1037 1.433 . S
C1045 N1047 1.384 . S
N1046 C1042 1.427 . S
N1046 C1043 1.384 . S
N1047 C1039 1.427 . S
N1047 C1045 1.384 . S
H1048 C1054 0.930 1_655 S
H1049 C1058 0.930 . S
H1050 C1063 0.929 . S
H1051 C1061 0.929 . S
H1052 C1056 0.929 . S
H1053 C1062 0.929 . S
C1054 H1048 0.930 1_455 S
C1054 C1055 1.367 . S
C1054 C1062 1.378 . S
C1055 C1054 1.367 . S
C1055 C1063 1.433 . S
C1056 H1052 0.929 . S
C1056 C1058 1.378 . S
C1056 C1060 1.350 . S
C1057 C1060 1.463 . S
C1057 C1062 1.350 . S
C1057 N1065 1.427 . S
C1058 H1049 0.930 . S
C1058 C1056 1.378 . S
C1058 C1059 1.367 . S
C1059 C1058 1.367 . S
C1059 C1061 1.433 . S
C1060 C1056 1.350 . S
C1060 C1057 1.463 . S
C1060 N1064 1.427 . S
C1061 H1051 0.929 . S
C1061 C1059 1.433 . S
C1061 N1064 1.384 . S
C1062 H1053 0.929 . S
C1062 C1054 1.378 . S
C1062 C1057 1.350 . S
C1063 H1050 0.929 . S
C1063 C1055 1.433 . S
C1063 N1065 1.384 . S
N1064 C1060 1.427 . S
N1064 C1061 1.384 . S
N1065 C1057 1.427 . S
N1065 C1063 1.384 . S
H1066 C1072 0.930 . S
H1067 C1076 0.930 . S
H1068 C1081 0.929 . S
H1069 C1079 0.929 . S
H1070 C1074 0.929 . S
H1071 C1080 0.929 . S
C1072 H1066 0.930 . S
C1072 C1073 1.367 . S
C1072 C1080 1.378 . S
C1073 C1072 1.367 . S
C1073 C1081 1.433 . S
C1074 H1070 0.929 . S
C1074 C1076 1.378 . S
C1074 C1078 1.350 . S
C1075 C1078 1.463 . S
C1075 C1080 1.350 . S
C1075 N1083 1.427 . S
C1076 H1067 0.930 . S
C1076 C1074 1.378 . S
C1076 C1077 1.367 . S
C1077 C1076 1.367 . S
C1077 C1079 1.433 . S
C1078 C1074 1.350 . S
C1078 C1075 1.463 . S
C1078 N1082 1.427 . S
C1079 H1069 0.929 . S
C1079 C1077 1.433 . S
C1079 N1082 1.384 . S
C1080 H1071 0.929 . S
C1080 C1072 1.378 . S
C1080 C1075 1.350 . S
C1081 H1068 0.929 . S
C1081 C1073 1.433 . S
C1081 N1083 1.384 . S
N1082 C1078 1.427 . S
N1082 C1079 1.384 . S
N1083 C1075 1.427 . S
N1083 C1081 1.384 . S
H1084 C1090 0.930 . S
H1085 C1094 0.930 . S
H1086 C1099 0.929 . S
H1087 C1097 0.929 . S
H1088 C1092 0.929 . S
H1089 C1098 0.929 . S
C1090 H1084 0.930 . S
C1090 C1091 1.367 . S
C1090 C1098 1.378 . S
C1091 C1090 1.367 . S
C1091 C1099 1.433 . S
C1092 H1088 0.929 . S
C1092 C1094 1.378 . S
C1092 C1096 1.350 . S
C1093 C1096 1.463 . S
C1093 C1098 1.350 . S
C1093 N1101 1.427 . S
C1094 H1085 0.930 . S
C1094 C1092 1.378 . S
C1094 C1095 1.367 . S
C1095 C1094 1.367 . S
C1095 C1097 1.433 . S
C1096 C1092 1.350 . S
C1096 C1093 1.463 . S
C1096 N1100 1.427 . S
C1097 H1087 0.929 . S
C1097 C1095 1.433 . S
C1097 N1100 1.384 . S
C1098 H1089 0.929 . S
C1098 C1090 1.378 . S
C1098 C1093 1.350 . S
C1099 H1086 0.929 . S
C1099 C1091 1.433 . S
C1099 N1101 1.384 . S
N1100 C1096 1.427 . S
N1100 C1097 1.384 . S
N1101 C1093 1.427 . S
N1101 C1099 1.384 . S
H1102 C1108 0.930 . S
H1103 C1112 0.930 . S
H1104 C1117 0.929 . S
H1105 C1115 0.929 . S
H1106 C1110 0.929 . S
H1107 C1116 0.929 . S
C1108 H1102 0.930 . S
C1108 C1109 1.367 . S
C1108 C1116 1.378 . S
C1109 C1108 1.367 . S
C1109 C1117 1.433 . S
C1110 H1106 0.929 . S
C1110 C1112 1.378 . S
C1110 C1114 1.350 . S
C1111 C1114 1.463 . S
C1111 C1116 1.350 . S
C1111 N1119 1.427 . S
C1112 H1103 0.930 . S
C1112 C1110 1.378 . S
C1112 C1113 1.367 . S
C1113 C1112 1.367 . S
C1113 C1115 1.433 . S
C1114 C1110 1.350 . S
C1114 C1111 1.463 . S
C1114 N1118 1.427 . S
C1115 H1105 0.929 . S
C1115 C1113 1.433 . S
C1115 N1118 1.384 . S
C1116 H1107 0.929 . S
C1116 C1108 1.378 . S
C1116 C1111 1.350 . S
C1117 H1104 0.929 . S
C1117 C1109 1.433 . S
C1117 N1119 1.384 . S
N1118 C1114 1.427 . S
N1118 C1115 1.384 . S
N1119 C1111 1.427 . S
N1119 C1117 1.384 . S
H1120 C1126 0.930 . S
H1121 C1130 0.930 . S
H1122 C1135 0.929 . S
H1123 C1133 0.929 . S
H1124 C1128 0.929 1_655 S
H1125 C1134 0.929 . S
C1126 H1120 0.930 . S
C1126 C1127 1.367 1_455 S
C1126 C1134 1.378 . S
C1127 C1126 1.367 1_655 S
C1127 C1135 1.433 . S
C1128 H1124 0.929 1_455 S
C1128 C1130 1.378 . S
C1128 C1132 1.350 . S
C1129 C1132 1.463 . S
C1129 C1134 1.350 . S
C1129 N1137 1.427 1_455 S
C1130 H1121 0.930 . S
C1130 C1128 1.378 . S
C1130 C1131 1.367 . S
C1131 C1130 1.367 . S
C1131 C1133 1.433 . S
C1132 C1128 1.350 . S
C1132 C1129 1.463 . S
C1132 N1136 1.427 . S
C1133 H1123 0.929 . S
C1133 C1131 1.433 . S
C1133 N1136 1.384 . S
C1134 H1125 0.929 . S
C1134 C1126 1.378 . S
C1134 C1129 1.350 . S
C1135 H1122 0.929 . S
C1135 C1127 1.433 . S
C1135 N1137 1.384 . S
N1136 C1132 1.427 . S
N1136 C1133 1.384 . S
N1137 C1129 1.427 1_655 S
N1137 C1135 1.384 . S
H1138 C1144 0.930 . S
H1139 C1148 0.930 . S
H1140 C1153 0.929 . S
H1141 C1151 0.929 . S
H1142 C1146 0.929 . S
H1143 C1152 0.929 . S
C1144 H1138 0.930 . S
C1144 C1145 1.367 . S
C1144 C1152 1.378 . S
C1145 C1144 1.367 . S
C1145 C1153 1.433 . S
C1146 H1142 0.929 . S
C1146 C1148 1.378 . S
C1146 C1150 1.350 . S
C1147 C1150 1.463 . S
C1147 C1152 1.350 . S
C1147 N1155 1.427 . S
C1148 H1139 0.930 . S
C1148 C1146 1.378 . S
C1148 C1149 1.367 . S
C1149 C1148 1.367 . S
C1149 C1151 1.433 . S
C1150 C1146 1.350 . S
C1150 C1147 1.463 . S
C1150 N1154 1.427 . S
C1151 H1141 0.929 . S
C1151 C1149 1.433 . S
C1151 N1154 1.384 . S
C1152 H1143 0.929 . S
C1152 C1144 1.378 . S
C1152 C1147 1.350 . S
C1153 H1140 0.929 . S
C1153 C1145 1.433 . S
C1153 N1155 1.384 . S
N1154 C1150 1.427 . S
N1154 C1151 1.384 . S
N1155 C1147 1.427 . S
N1155 C1153 1.384 . S
H1156 C1162 0.930 . S
H1157 C1166 0.930 1_565 S
H1158 C1171 0.929 . S
H1159 C1169 0.929 . S
H1160 C1164 0.929 . S
H1161 C1170 0.929 . S
C1162 H1156 0.930 . S
C1162 C1163 1.367 . S
C1162 C1170 1.378 . S
C1163 C1162 1.367 . S
C1163 C1171 1.433 . S
C1164 H1160 0.929 . S
C1164 C1166 1.378 . S
C1164 C1168 1.350 . S
C1165 C1168 1.463 . S
C1165 C1170 1.350 . S
C1165 N1173 1.427 . S
C1166 H1157 0.930 1_545 S
C1166 C1164 1.378 . S
C1166 C1167 1.367 . S
C1167 C1166 1.367 . S
C1167 C1169 1.433 . S
C1168 C1164 1.350 . S
C1168 C1165 1.463 . S
C1168 N1172 1.427 . S
C1169 H1159 0.929 . S
C1169 C1167 1.433 . S
C1169 N1172 1.384 . S
C1170 H1161 0.929 . S
C1170 C1162 1.378 . S
C1170 C1165 1.350 . S
C1171 H1158 0.929 . S
C1171 C1163 1.433 . S
C1171 N1173 1.384 . S
N1172 C1168 1.427 . S
N1172 C1169 1.384 . S
N1173 C1165 1.427 . S
N1173 C1171 1.384 . S
H1174 C1180 0.930 . S
H1175 C1184 0.930 . S
H1176 C1189 0.929 . S
H1177 C1187 0.929 . S
H1178 C1182 0.929 . S
H1179 C1188 0.929 . S
C1180 H1174 0.930 . S
C1180 C1181 1.367 . S
C1180 C1188 1.378 . S
C1181 C1180 1.367 . S
C1181 C1189 1.433 . S
C1182 H1178 0.929 . S
C1182 C1184 1.378 . S
C1182 C1186 1.350 . S
C1183 C1186 1.463 . S
C1183 C1188 1.350 . S
C1183 N1191 1.427 . S
C1184 H1175 0.930 . S
C1184 C1182 1.378 . S
C1184 C1185 1.367 . S
C1185 C1184 1.367 . S
C1185 C1187 1.433 . S
C1186 C1182 1.350 . S
C1186 C1183 1.463 . S
C1186 N1190 1.427 . S
C1187 H1177 0.929 . S
C1187 C1185 1.433 . S
C1187 N1190 1.384 . S
C1188 H1179 0.929 . S
C1188 C1180 1.378 . S
C1188 C1183 1.350 . S
C1189 H1176 0.929 . S
C1189 C1181 1.433 . S
C1189 N1191 1.384 . S
N1190 C1186 1.427 . S
N1190 C1187 1.384 . S
N1191 C1183 1.427 . S
N1191 C1189 1.384 . S
H1192 C1198 0.930 1_455 S
H1193 C1202 0.930 . S
H1194 C1207 0.929 . S
H1195 C1205 0.929 . S
H1196 C1200 0.929 1_655 S
H1197 C1206 0.929 . S
C1198 H1192 0.930 1_655 S
C1198 C1199 1.367 . S
C1198 C1206 1.378 1_655 S
C1199 C1198 1.367 . S
C1199 C1207 1.433 . S
C1200 H1196 0.929 1_455 S
C1200 C1202 1.378 . S
C1200 C1204 1.350 . S
C1201 C1204 1.463 . S
C1201 C1206 1.350 . S
C1201 N1209 1.427 1_455 S
C1202 H1193 0.930 . S
C1202 C1200 1.378 . S
C1202 C1203 1.367 . S
C1203 C1202 1.367 . S
C1203 C1205 1.433 . S
C1204 C1200 1.350 . S
C1204 C1201 1.463 . S
C1204 N1208 1.427 . S
C1205 H1195 0.929 . S
C1205 C1203 1.433 . S
C1205 N1208 1.384 . S
C1206 H1197 0.929 . S
C1206 C1198 1.378 1_455 S
C1206 C1201 1.350 . S
C1207 H1194 0.929 . S
C1207 C1199 1.433 . S
C1207 N1209 1.384 . S
N1208 C1204 1.427 . S
N1208 C1205 1.384 . S
N1209 C1201 1.427 1_655 S
N1209 C1207 1.384 . S
H1210 C1216 0.930 . S
H1211 C1220 0.930 . S
H1212 C1225 0.929 . S
H1213 C1223 0.929 . S
H1214 C1218 0.929 . S
H1215 C1224 0.929 . S
C1216 H1210 0.930 . S
C1216 C1217 1.367 . S
C1216 C1224 1.378 . S
C1217 C1216 1.367 . S
C1217 C1225 1.433 . S
C1218 H1214 0.929 . S
C1218 C1220 1.378 . S
C1218 C1222 1.350 . S
C1219 C1222 1.463 . S
C1219 C1224 1.350 . S
C1219 N1227 1.427 . S
C1220 H1211 0.930 . S
C1220 C1218 1.378 . S
C1220 C1221 1.367 . S
C1221 C1220 1.367 . S
C1221 C1223 1.433 . S
C1222 C1218 1.350 . S
C1222 C1219 1.463 . S
C1222 N1226 1.427 . S
C1223 H1213 0.929 . S
C1223 C1221 1.433 . S
C1223 N1226 1.384 . S
C1224 H1215 0.929 . S
C1224 C1216 1.378 . S
C1224 C1219 1.350 . S
C1225 H1212 0.929 . S
C1225 C1217 1.433 . S
C1225 N1227 1.384 . S
N1226 C1222 1.427 . S
N1226 C1223 1.384 . S
N1227 C1219 1.427 . S
N1227 C1225 1.384 . S
H1228 C1234 0.930 . S
H1229 C1238 0.930 . S
H1230 C1243 0.929 . S
H1231 C1241 0.929 . S
H1232 C1236 0.929 . S
H1233 C1242 0.929 . S
C1234 H1228 0.930 . S
C1234 C1235 1.367 . S
C1234 C1242 1.378 . S
C1235 C1234 1.367 . S
C1235 C1243 1.433 . S
C1236 H1232 0.929 . S
C1236 C1238 1.378 . S
C1236 C1240 1.350 . S
C1237 C1240 1.463 . S
C1237 C1242 1.350 . S
C1237 N1245 1.427 . S
C1238 H1229 0.930 . S
C1238 C1236 1.378 . S
C1238 C1239 1.367 . S
C1239 C1238 1.367 . S
C1239 C1241 1.433 . S
C1240 C1236 1.350 . S
C1240 C1237 1.463 . S
C1240 N1244 1.427 . S
C1241 H1231 0.929 . S
C1241 C1239 1.433 . S
C1241 N1244 1.384 . S
C1242 H1233 0.929 . S
C1242 C1234 1.378 . S
C1242 C1237 1.350 . S
C1243 H1230 0.929 . S
C1243 C1235 1.433 . S
C1243 N1245 1.384 . S
N1244 C1240 1.427 . S
N1244 C1241 1.384 . S
N1245 C1237 1.427 . S
N1245 C1243 1.384 . S
H1246 C1252 0.930 . S
H1247 C1256 0.930 . S
H1248 C1261 0.929 . S
H1249 C1259 0.929 . S
H1250 C1254 0.929 . S
H1251 C1260 0.929 . S
C1252 H1246 0.930 . S
C1252 C1253 1.367 . S
C1252 C1260 1.378 . S
C1253 C1252 1.367 . S
C1253 C1261 1.433 . S
C1254 H1250 0.929 . S
C1254 C1256 1.378 . S
C1254 C1258 1.350 . S
C1255 C1258 1.463 . S
C1255 C1260 1.350 . S
C1255 N1263 1.427 . S
C1256 H1247 0.930 . S
C1256 C1254 1.378 . S
C1256 C1257 1.367 . S
C1257 C1256 1.367 . S
C1257 C1259 1.433 . S
C1258 C1254 1.350 . S
C1258 C1255 1.463 . S
C1258 N1262 1.427 . S
C1259 H1249 0.929 . S
C1259 C1257 1.433 . S
C1259 N1262 1.384 . S
C1260 H1251 0.929 . S
C1260 C1252 1.378 . S
C1260 C1255 1.350 . S
C1261 H1248 0.929 . S
C1261 C1253 1.433 . S
C1261 N1263 1.384 . S
N1262 C1258 1.427 . S
N1262 C1259 1.384 . S
N1263 C1255 1.427 . S
N1263 C1261 1.384 . S
H1264 C1270 0.930 1_556 S
H1265 C1274 0.930 . S
H1266 C1279 0.929 . S
H1267 C1277 0.929 . S
H1268 C1272 0.929 . S
H1269 C1278 0.929 1_545 S
C1270 H1264 0.930 1_554 S
C1270 C1271 1.367 . S
C1270 C1278 1.378 . S
C1271 C1270 1.367 . S
C1271 C1279 1.433 . S
C1272 H1268 0.929 . S
C1272 C1274 1.378 . S
C1272 C1276 1.350 . S
C1273 C1276 1.463 . S
C1273 C1278 1.350 . S
C1273 N1281 1.427 . S
C1274 H1265 0.930 . S
C1274 C1272 1.378 . S
C1274 C1275 1.372 . S
C1275 C1274 1.372 . S
C1275 C1277 1.431 1_565 S
C1276 C1272 1.350 . S
C1276 C1273 1.463 . S
C1276 N1280 1.427 1_565 S
C1277 H1267 0.929 . S
C1277 C1275 1.431 1_545 S
C1277 N1280 1.384 . S
C1278 H1269 0.929 1_565 S
C1278 C1270 1.378 . S
C1278 C1273 1.350 . S
C1279 H1266 0.929 . S
C1279 C1271 1.433 . S
C1279 N1281 1.384 . S
N1280 C1276 1.427 1_545 S
N1280 C1277 1.384 . S
N1281 C1273 1.427 . S
N1281 C1279 1.384 . S
H1282 C1288 0.930 . S
H1283 C1292 0.930 . S
H1284 C1297 0.929 . S
H1285 C1295 0.929 . S
H1286 C1290 0.929 . S
H1287 C1296 0.929 . S
C1288 H1282 0.930 . S
C1288 C1289 1.367 . S
C1288 C1296 1.378 . S
C1289 C1288 1.367 . S
C1289 C1297 1.433 1_556 S
C1290 H1286 0.929 . S
C1290 C1292 1.378 . S
C1290 C1294 1.371 . S
C1291 C1294 1.456 1_556 S
C1291 C1296 1.350 . S
C1291 N1299 1.427 1_556 S
C1292 H1283 0.930 . S
C1292 C1290 1.378 . S
C1292 C1293 1.367 . S
C1293 C1292 1.367 . S
C1293 C1295 1.433 1_554 S
C1294 C1290 1.371 . S
C1294 C1291 1.456 1_554 S
C1294 N1298 1.411 1_554 S
C1295 H1285 0.929 . S
C1295 C1293 1.433 1_556 S
C1295 N1298 1.384 . S
C1296 H1287 0.929 . S
C1296 C1288 1.378 . S
C1296 C1291 1.350 . S
C1297 H1284 0.929 . S
C1297 C1289 1.433 1_554 S
C1297 N1299 1.384 . S
N1298 C1294 1.411 1_556 S
N1298 C1295 1.384 . S
N1299 C1291 1.427 1_554 S
N1299 C1297 1.384 . S
H1300 C1306 0.930 . S
H1301 C1310 0.930 . S
H1302 C1315 0.929 . S
H1303 C1313 0.929 . S
H1304 C1308 0.929 . S
H1305 C1314 0.929 . S
C1306 H1300 0.930 . S
C1306 C1307 1.367 . S
C1306 C1314 1.378 . S
C1307 C1306 1.367 . S
C1307 C1315 1.433 . S
C1308 H1304 0.929 . S
C1308 C1310 1.378 . S
C1308 C1312 1.350 . S
C1309 C1312 1.463 . S
C1309 C1314 1.350 . S
C1309 N1317 1.427 . S
C1310 H1301 0.930 . S
C1310 C1308 1.378 . S
C1310 C1311 1.367 . S
C1311 C1310 1.367 . S
C1311 C1313 1.433 . S
C1312 C1308 1.350 . S
C1312 C1309 1.463 . S
C1312 N1316 1.427 . S
C1313 H1303 0.929 . S
C1313 C1311 1.433 . S
C1313 N1316 1.384 . S
C1314 H1305 0.929 . S
C1314 C1306 1.378 . S
C1314 C1309 1.350 . S
C1315 H1302 0.929 . S
C1315 C1307 1.433 . S
C1315 N1317 1.384 . S
N1316 C1312 1.427 . S
N1316 C1313 1.384 . S
N1317 C1309 1.427 . S
N1317 C1315 1.384 . S
H1318 C1324 0.930 . S
H1319 C1328 0.930 . S
H1320 C1333 0.929 . S
H1321 C1331 0.929 . S
H1322 C1326 0.929 . S
H1323 C1332 0.929 . S
C1324 H1318 0.930 . S
C1324 C1325 1.367 . S
C1324 C1332 1.378 . S
C1325 C1324 1.367 . S
C1325 C1333 1.433 . S
C1326 H1322 0.929 . S
C1326 C1328 1.378 . S
C1326 C1330 1.350 . S
C1327 C1330 1.463 . S
C1327 C1332 1.350 . S
C1327 N1335 1.427 . S
C1328 H1319 0.930 . S
C1328 C1326 1.378 . S
C1328 C1329 1.367 . S
C1329 C1328 1.367 . S
C1329 C1331 1.433 . S
C1330 C1326 1.350 . S
C1330 C1327 1.463 . S
C1330 N1334 1.427 . S
C1331 H1321 0.929 . S
C1331 C1329 1.433 . S
C1331 N1334 1.384 . S
C1332 H1323 0.929 . S
C1332 C1324 1.378 . S
C1332 C1327 1.350 . S
C1333 H1320 0.929 . S
C1333 C1325 1.433 . S
C1333 N1335 1.384 . S
N1334 C1330 1.427 . S
N1334 C1331 1.384 . S
N1335 C1327 1.427 . S
N1335 C1333 1.384 . S
H1336 C1342 0.930 . S
H1337 C1346 0.930 . S
H1338 C1351 0.929 . S
H1339 C1349 0.929 . S
H1340 C1344 0.929 . S
H1341 C1350 0.929 . S
C1342 H1336 0.930 . S
C1342 C1343 1.367 . S
C1342 C1350 1.378 . S
C1343 C1342 1.367 . S
C1343 C1351 1.433 . S
C1344 H1340 0.929 . S
C1344 C1346 1.378 . S
C1344 C1348 1.350 . S
C1345 C1348 1.463 . S
C1345 C1350 1.350 . S
C1345 N1353 1.427 . S
C1346 H1337 0.930 . S
C1346 C1344 1.378 . S
C1346 C1347 1.367 . S
C1347 C1346 1.367 . S
C1347 C1349 1.433 . S
C1348 C1344 1.350 . S
C1348 C1345 1.463 . S
C1348 N1352 1.427 . S
C1349 H1339 0.929 . S
C1349 C1347 1.433 . S
C1349 N1352 1.384 . S
C1350 H1341 0.929 . S
C1350 C1342 1.378 . S
C1350 C1345 1.350 . S
C1351 H1338 0.929 . S
C1351 C1343 1.433 . S
C1351 N1353 1.384 . S
N1352 C1348 1.427 . S
N1352 C1349 1.384 . S
N1353 C1345 1.427 . S
N1353 C1351 1.384 . S
H1354 C1360 0.930 . S
H1355 C1364 0.930 . S
H1356 C1369 0.929 . S
H1357 C1367 0.929 . S
H1358 C1362 0.929 . S
H1359 C1368 0.929 . S
C1360 H1354 0.930 . S
C1360 C1361 1.367 . S
C1360 C1368 1.378 . S
C1361 C1360 1.367 . S
C1361 C1369 1.433 . S
C1362 H1358 0.929 . S
C1362 C1364 1.378 . S
C1362 C1366 1.350 . S
C1363 C1366 1.463 . S
C1363 C1368 1.350 . S
C1363 N1371 1.427 . S
C1364 H1355 0.930 . S
C1364 C1362 1.378 . S
C1364 C1365 1.367 . S
C1365 C1364 1.367 . S
C1365 C1367 1.433 . S
C1366 C1362 1.350 . S
C1366 C1363 1.463 . S
C1366 N1370 1.427 . S
C1367 H1357 0.929 . S
C1367 C1365 1.433 . S
C1367 N1370 1.384 . S
C1368 H1359 0.929 . S
C1368 C1360 1.378 . S
C1368 C1363 1.350 . S
C1369 H1356 0.929 . S
C1369 C1361 1.433 . S
C1369 N1371 1.384 . S
N1370 C1366 1.427 . S
N1370 C1367 1.384 . S
N1371 C1363 1.427 . S
N1371 C1369 1.384 . S
H1372 C1378 0.930 . S
H1373 C1382 0.930 . S
H1374 C1387 0.929 . S
H1375 C1385 0.929 . S
H1376 C1380 0.929 . S
H1377 C1386 0.929 . S
C1378 H1372 0.930 . S
C1378 C1379 1.367 . S
C1378 C1386 1.378 . S
C1379 C1378 1.367 . S
C1379 C1387 1.433 . S
C1380 H1376 0.929 . S
C1380 C1382 1.378 . S
C1380 C1384 1.350 . S
C1381 C1384 1.463 . S
C1381 C1386 1.350 . S
C1381 N1389 1.427 . S
C1382 H1373 0.930 . S
C1382 C1380 1.378 . S
C1382 C1383 1.367 . S
C1383 C1382 1.367 . S
C1383 C1385 1.433 . S
C1384 C1380 1.350 . S
C1384 C1381 1.463 . S
C1384 N1388 1.427 . S
C1385 H1375 0.929 . S
C1385 C1383 1.433 . S
C1385 N1388 1.384 . S
C1386 H1377 0.929 . S
C1386 C1378 1.378 . S
C1386 C1381 1.350 . S
C1387 H1374 0.929 . S
C1387 C1379 1.433 . S
C1387 N1389 1.384 . S
N1388 C1384 1.427 . S
N1388 C1385 1.384 . S
N1389 C1381 1.427 . S
N1389 C1387 1.384 . S
H1390 C1396 0.930 . S
H1391 C1400 0.930 . S
H1392 C1405 0.929 . S
H1393 C1403 0.929 . S
H1394 C1398 0.929 . S
H1395 C1404 0.929 . S
C1396 H1390 0.930 . S
C1396 C1397 1.367 . S
C1396 C1404 1.378 . S
C1397 C1396 1.367 . S
C1397 C1405 1.433 . S
C1398 H1394 0.929 . S
C1398 C1400 1.378 . S
C1398 C1402 1.350 . S
C1399 C1402 1.463 . S
C1399 C1404 1.350 . S
C1399 N1407 1.427 . S
C1400 H1391 0.930 . S
C1400 C1398 1.378 . S
C1400 C1401 1.367 . S
C1401 C1400 1.367 . S
C1401 C1403 1.433 . S
C1402 C1398 1.350 . S
C1402 C1399 1.463 . S
C1402 N1406 1.427 . S
C1403 H1393 0.929 . S
C1403 C1401 1.433 . S
C1403 N1406 1.384 . S
C1404 H1395 0.929 . S
C1404 C1396 1.378 . S
C1404 C1399 1.350 . S
C1405 H1392 0.929 . S
C1405 C1397 1.433 . S
C1405 N1407 1.384 . S
N1406 C1402 1.427 . S
N1406 C1403 1.384 . S
N1407 C1399 1.427 . S
N1407 C1405 1.384 . S
H1408 C1414 0.930 . S
H1409 C1418 0.930 . S
H1410 C1423 0.929 . S
H1411 C1421 0.929 . S
H1412 C1416 0.929 . S
H1413 C1422 0.929 . S
C1414 H1408 0.930 . S
C1414 C1415 1.367 . S
C1414 C1422 1.378 . S
C1415 C1414 1.367 . S
C1415 C1423 1.433 . S
C1416 H1412 0.929 . S
C1416 C1418 1.378 . S
C1416 C1420 1.350 . S
C1417 C1420 1.463 . S
C1417 C1422 1.350 . S
C1417 N1425 1.427 . S
C1418 H1409 0.930 . S
C1418 C1416 1.378 . S
C1418 C1419 1.367 . S
C1419 C1418 1.367 . S
C1419 C1421 1.433 . S
C1420 C1416 1.350 . S
C1420 C1417 1.463 . S
C1420 N1424 1.427 . S
C1421 H1411 0.929 . S
C1421 C1419 1.433 . S
C1421 N1424 1.384 . S
C1422 H1413 0.929 . S
C1422 C1414 1.378 . S
C1422 C1417 1.350 . S
C1423 H1410 0.929 . S
C1423 C1415 1.433 . S
C1423 N1425 1.384 . S
N1424 C1420 1.427 . S
N1424 C1421 1.384 . S
N1425 C1417 1.427 . S
N1425 C1423 1.384 . S
H1426 C1432 0.930 . S
H1427 C1436 0.930 . S
H1428 C1441 0.929 . S
H1429 C1439 0.929 . S
H1430 C1434 0.929 . S
H1431 C1440 0.929 . S
C1432 H1426 0.930 . S
C1432 C1433 1.367 . S
C1432 C1440 1.378 . S
C1433 C1432 1.367 . S
C1433 C1441 1.433 . S
C1434 H1430 0.929 . S
C1434 C1436 1.378 . S
C1434 C1438 1.350 . S
C1435 C1438 1.463 . S
C1435 C1440 1.350 . S
C1435 N1443 1.427 . S
C1436 H1427 0.930 . S
C1436 C1434 1.378 . S
C1436 C1437 1.367 . S
C1437 C1436 1.367 . S
C1437 C1439 1.433 . S
C1438 C1434 1.350 . S
C1438 C1435 1.463 . S
C1438 N1442 1.427 . S
C1439 H1429 0.929 . S
C1439 C1437 1.433 . S
C1439 N1442 1.384 . S
C1440 H1431 0.929 . S
C1440 C1432 1.378 . S
C1440 C1435 1.350 . S
C1441 H1428 0.929 . S
C1441 C1433 1.433 . S
C1441 N1443 1.384 . S
N1442 C1438 1.427 . S
N1442 C1439 1.384 . S
N1443 C1435 1.427 . S
N1443 C1441 1.384 . S
H1444 C1450 0.930 . S
H1445 C1454 0.930 . S
H1446 C1459 0.929 . S
H1447 C1457 0.929 . S
H1448 C1452 0.929 . S
H1449 C1458 0.929 . S
C1450 H1444 0.930 . S
C1450 C1451 1.367 . S
C1450 C1458 1.378 . S
C1451 C1450 1.367 . S
C1451 C1459 1.433 . S
C1452 H1448 0.929 . S
C1452 C1454 1.378 . S
C1452 C1456 1.350 . S
C1453 C1456 1.463 . S
C1453 C1458 1.350 . S
C1453 N1461 1.427 . S
C1454 H1445 0.930 . S
C1454 C1452 1.378 . S
C1454 C1455 1.367 . S
C1455 C1454 1.367 . S
C1455 C1457 1.433 . S
C1456 C1452 1.350 . S
C1456 C1453 1.463 . S
C1456 N1460 1.427 . S
C1457 H1447 0.929 . S
C1457 C1455 1.433 . S
C1457 N1460 1.384 . S
C1458 H1449 0.929 . S
C1458 C1450 1.378 . S
C1458 C1453 1.350 . S
C1459 H1446 0.929 . S
C1459 C1451 1.433 . S
C1459 N1461 1.384 . S
N1460 C1456 1.427 . S
N1460 C1457 1.384 . S
N1461 C1453 1.427 . S
N1461 C1459 1.384 . S
H1462 C1468 0.930 . S
H1463 C1472 0.930 . S
H1464 C1477 0.929 . S
H1465 C1475 0.929 . S
H1466 C1470 0.929 . S
H1467 C1476 0.929 . S
C1468 H1462 0.930 . S
C1468 C1469 1.367 . S
C1468 C1476 1.378 . S
C1469 C1468 1.367 . S
C1469 C1477 1.433 . S
C1470 H1466 0.929 . S
C1470 C1472 1.378 . S
C1470 C1474 1.350 . S
C1471 C1474 1.463 . S
C1471 C1476 1.350 . S
C1471 N1479 1.427 . S
C1472 H1463 0.930 . S
C1472 C1470 1.378 . S
C1472 C1473 1.367 . S
C1473 C1472 1.367 . S
C1473 C1475 1.433 . S
C1474 C1470 1.350 . S
C1474 C1471 1.463 . S
C1474 N1478 1.427 . S
C1475 H1465 0.929 . S
C1475 C1473 1.433 . S
C1475 N1478 1.384 . S
C1476 H1467 0.929 . S
C1476 C1468 1.378 . S
C1476 C1471 1.350 . S
C1477 H1464 0.929 . S
C1477 C1469 1.433 . S
C1477 N1479 1.384 . S
N1478 C1474 1.427 . S
N1478 C1475 1.384 . S
N1479 C1471 1.427 . S
N1479 C1477 1.384 . S
H1480 C1486 0.930 . S
H1481 C1490 0.930 . S
H1482 C1495 0.929 . S
H1483 C1493 0.929 . S
H1484 C1488 0.929 . S
H1485 C1494 0.929 . S
C1486 H1480 0.930 . S
C1486 C1487 1.367 . S
C1486 C1494 1.378 . S
C1487 C1486 1.367 . S
C1487 C1495 1.433 . S
C1488 H1484 0.929 . S
C1488 C1490 1.378 . S
C1488 C1492 1.350 . S
C1489 C1492 1.463 . S
C1489 C1494 1.350 . S
C1489 N1497 1.427 . S
C1490 H1481 0.930 . S
C1490 C1488 1.378 . S
C1490 C1491 1.367 . S
C1491 C1490 1.367 . S
C1491 C1493 1.433 . S
C1492 C1488 1.350 . S
C1492 C1489 1.463 . S
C1492 N1496 1.427 . S
C1493 H1483 0.929 . S
C1493 C1491 1.433 . S
C1493 N1496 1.384 . S
C1494 H1485 0.929 . S
C1494 C1486 1.378 . S
C1494 C1489 1.350 . S
C1495 H1482 0.929 . S
C1495 C1487 1.433 . S
C1495 N1497 1.384 . S
N1496 C1492 1.427 . S
N1496 C1493 1.384 . S
N1497 C1489 1.427 . S
N1497 C1495 1.384 . S
H1498 C1504 0.930 . S
H1499 C1508 0.930 . S
H1500 C1513 0.929 . S
H1501 C1511 0.929 . S
H1502 C1506 0.929 . S
H1503 C1512 0.929 . S
C1504 H1498 0.930 . S
C1504 C1505 1.367 . S
C1504 C1512 1.378 . S
C1505 C1504 1.367 . S
C1505 C1513 1.433 . S
C1506 H1502 0.929 . S
C1506 C1508 1.378 . S
C1506 C1510 1.350 . S
C1507 C1510 1.463 . S
C1507 C1512 1.350 . S
C1507 N1515 1.427 . S
C1508 H1499 0.930 . S
C1508 C1506 1.378 . S
C1508 C1509 1.367 . S
C1509 C1508 1.367 . S
C1509 C1511 1.433 . S
C1510 C1506 1.350 . S
C1510 C1507 1.463 . S
C1510 N1514 1.427 . S
C1511 H1501 0.929 . S
C1511 C1509 1.433 . S
C1511 N1514 1.384 . S
C1512 H1503 0.929 . S
C1512 C1504 1.378 . S
C1512 C1507 1.350 . S
C1513 H1500 0.929 . S
C1513 C1505 1.433 . S
C1513 N1515 1.384 . S
N1514 C1510 1.427 . S
N1514 C1511 1.384 . S
N1515 C1507 1.427 . S
N1515 C1513 1.384 . S
H1516 C1522 0.930 . S
H1517 C1526 0.930 . S
H1518 C1531 0.929 . S
H1519 C1529 0.929 1_554 S
H1520 C1524 0.929 . S
H1521 C1530 0.929 . S
C1522 H1516 0.930 . S
C1522 C1523 1.367 . S
C1522 C1530 1.378 . S
C1523 C1522 1.367 . S
C1523 C1531 1.433 . S
C1524 H1520 0.929 . S
C1524 C1526 1.378 . S
C1524 C1528 1.350 . S
C1525 C1528 1.463 . S
C1525 C1530 1.350 . S
C1525 N1533 1.427 . S
C1526 H1517 0.930 . S
C1526 C1524 1.378 . S
C1526 C1527 1.367 . S
C1527 C1526 1.367 . S
C1527 C1529 1.433 . S
C1528 C1524 1.350 . S
C1528 C1525 1.463 . S
C1528 N1532 1.427 . S
C1529 H1519 0.929 1_556 S
C1529 C1527 1.433 . S
C1529 N1532 1.384 . S
C1530 H1521 0.929 . S
C1530 C1522 1.378 . S
C1530 C1525 1.350 . S
C1531 H1518 0.929 . S
C1531 C1523 1.433 . S
C1531 N1533 1.384 . S
N1532 C1528 1.427 . S
N1532 C1529 1.384 . S
N1533 C1525 1.427 . S
N1533 C1531 1.384 . S
H1534 C1540 0.930 . S
H1535 C1544 0.930 . S
H1536 C1549 0.929 . S
H1537 C1547 0.929 . S
H1538 C1542 0.929 . S
H1539 C1548 0.929 . S
C1540 H1534 0.930 . S
C1540 C1541 1.367 . S
C1540 C1548 1.378 . S
C1541 C1540 1.367 . S
C1541 C1549 1.433 . S
C1542 H1538 0.929 . S
C1542 C1544 1.378 . S
C1542 C1546 1.350 . S
C1543 C1546 1.463 . S
C1543 C1548 1.350 . S
C1543 N1551 1.427 . S
C1544 H1535 0.930 . S
C1544 C1542 1.378 . S
C1544 C1545 1.367 . S
C1545 C1544 1.367 . S
C1545 C1547 1.433 . S
C1546 C1542 1.350 . S
C1546 C1543 1.463 . S
C1546 N1550 1.427 . S
C1547 H1537 0.929 . S
C1547 C1545 1.433 . S
C1547 N1550 1.384 . S
C1548 H1539 0.929 . S
C1548 C1540 1.378 . S
C1548 C1543 1.350 . S
C1549 H1536 0.929 . S
C1549 C1541 1.433 . S
C1549 N1551 1.384 . S
N1550 C1546 1.427 . S
N1550 C1547 1.384 . S
N1551 C1543 1.427 . S
N1551 C1549 1.384 . S
H1552 C1558 0.930 . S
H1553 C1562 0.930 . S
H1554 C1567 0.929 . S
H1555 C1565 0.929 . S
H1556 C1560 0.929 . S
H1557 C1566 0.929 . S
C1558 H1552 0.930 . S
C1558 C1559 1.367 . S
C1558 C1566 1.378 . S
C1559 C1558 1.367 . S
C1559 C1567 1.433 1_545 S
C1560 H1556 0.929 . S
C1560 C1562 1.378 . S
C1560 C1564 1.350 1_565 S
C1561 C1564 1.463 . S
C1561 C1566 1.350 . S
C1561 N1569 1.427 1_545 S
C1562 H1553 0.930 . S
C1562 C1560 1.378 . S
C1562 C1563 1.367 1_565 S
C1563 C1562 1.367 1_545 S
C1563 C1565 1.433 . S
C1564 C1560 1.350 1_545 S
C1564 C1561 1.463 . S
C1564 N1568 1.427 . S
C1565 H1555 0.929 . S
C1565 C1563 1.433 . S
C1565 N1568 1.384 . S
C1566 H1557 0.929 . S
C1566 C1558 1.378 . S
C1566 C1561 1.350 . S
C1567 H1554 0.929 . S
C1567 C1559 1.433 1_565 S
C1567 N1569 1.384 . S
N1568 C1564 1.427 . S
N1568 C1565 1.384 . S
N1569 C1561 1.427 1_565 S
N1569 C1567 1.384 . S
H1570 C1576 0.930 . S
H1571 C1580 0.930 . S
H1572 C1585 0.929 . S
H1573 C1583 0.929 . S
H1574 C1578 0.929 . S
H1575 C1584 0.929 . S
C1576 H1570 0.930 . S
C1576 C1577 1.367 . S
C1576 C1584 1.378 . S
C1577 C1576 1.367 . S
C1577 C1585 1.433 . S
C1578 H1574 0.929 . S
C1578 C1580 1.378 . S
C1578 C1582 1.350 . S
C1579 C1582 1.463 . S
C1579 C1584 1.350 . S
C1579 N1587 1.427 . S
C1580 H1571 0.930 . S
C1580 C1578 1.378 . S
C1580 C1581 1.367 . S
C1581 C1580 1.367 . S
C1581 C1583 1.433 . S
C1582 C1578 1.350 . S
C1582 C1579 1.463 . S
C1582 N1586 1.427 . S
C1583 H1573 0.929 . S
C1583 C1581 1.433 . S
C1583 N1586 1.384 . S
C1584 H1575 0.929 . S
C1584 C1576 1.378 . S
C1584 C1579 1.350 . S
C1585 H1572 0.929 . S
C1585 C1577 1.433 . S
C1585 N1587 1.384 . S
N1586 C1582 1.427 . S
N1586 C1583 1.384 . S
N1587 C1579 1.427 . S
N1587 C1585 1.384 . S
H1588 C1594 0.930 . S
H1589 C1598 0.930 1_565 S
H1590 C1603 0.929 . S
H1591 C1601 0.929 . S
H1592 C1596 0.907 1_565 S
H1593 C1602 0.929 . S
C1594 H1588 0.930 . S
C1594 C1595 1.367 . S
C1594 C1602 1.378 . S
C1595 C1594 1.367 . S
C1595 C1603 1.433 1_545 S
C1596 H1592 0.907 1_545 S
C1596 C1598 1.374 . S
C1596 C1600 1.376 . S
C1597 C1600 1.463 . S
C1597 C1602 1.350 . S
C1597 N1605 1.427 1_545 S
C1598 H1589 0.930 1_545 S
C1598 C1596 1.374 . S
C1598 C1599 1.367 . S
C1599 C1598 1.367 . S
C1599 C1601 1.433 . S
C1600 C1596 1.376 . S
C1600 C1597 1.463 . S
C1600 N1604 1.427 . S
C1601 H1591 0.929 . S
C1601 C1599 1.433 . S
C1601 N1604 1.384 . S
C1602 H1593 0.929 . S
C1602 C1594 1.378 . S
C1602 C1597 1.350 . S
C1603 H1590 0.929 . S
C1603 C1595 1.433 1_565 S
C1603 N1605 1.384 . S
N1604 C1600 1.427 . S
N1604 C1601 1.384 . S
N1605 C1597 1.427 1_565 S
N1605 C1603 1.384 . S
H1606 C1612 0.930 . S
H1607 C1616 0.930 . S
H1608 C1621 0.929 . S
H1609 C1619 0.929 . S
H1610 C1614 0.929 . S
H1611 C1620 0.929 . S
C1612 H1606 0.930 . S
C1612 C1613 1.367 . S
C1612 C1620 1.378 . S
C1613 C1612 1.367 . S
C1613 C1621 1.433 . S
C1614 H1610 0.929 . S
C1614 C1616 1.378 . S
C1614 C1618 1.350 . S
C1615 C1618 1.463 . S
C1615 C1620 1.350 . S
C1615 N1623 1.427 . S
C1616 H1607 0.930 . S
C1616 C1614 1.378 . S
C1616 C1617 1.367 . S
C1617 C1616 1.367 . S
C1617 C1619 1.433 . S
C1618 C1614 1.350 . S
C1618 C1615 1.463 . S
C1618 N1622 1.427 . S
C1619 H1609 0.929 . S
C1619 C1617 1.433 . S
C1619 N1622 1.384 . S
C1620 H1611 0.929 . S
C1620 C1612 1.378 . S
C1620 C1615 1.350 . S
C1621 H1608 0.929 . S
C1621 C1613 1.433 . S
C1621 N1623 1.384 . S
N1622 C1618 1.427 . S
N1622 C1619 1.384 . S
N1623 C1615 1.427 . S
N1623 C1621 1.384 . S
H1624 C1630 0.930 . S
H1625 C1634 0.930 . S
H1626 C1639 0.929 . S
H1627 C1637 0.942 . S
H1628 C1632 0.929 . S
H1629 C1638 0.929 . S
C1630 H1624 0.930 . S
C1630 C1631 1.367 . S
C1630 C1638 1.378 . S
C1631 C1630 1.367 . S
C1631 C1639 1.433 1_565 S
C1632 H1628 0.929 . S
C1632 C1634 1.378 . S
C1632 C1636 1.350 . S
C1633 C1636 1.463 . S
C1633 C1638 1.350 1_545 S
C1633 N1641 1.427 . S
C1634 H1625 0.930 . S
C1634 C1632 1.378 . S
C1634 C1635 1.367 . S
C1635 C1634 1.367 . S
C1635 C1637 1.406 1_545 S
C1636 C1632 1.350 . S
C1636 C1633 1.463 . S
C1636 N1640 1.427 1_545 S
C1637 H1627 0.942 . S
C1637 C1635 1.406 1_565 S
C1637 N1640 1.398 . S
C1638 H1629 0.929 . S
C1638 C1630 1.378 . S
C1638 C1633 1.350 1_565 S
C1639 H1626 0.929 . S
C1639 C1631 1.433 1_545 S
C1639 N1641 1.384 . S
N1640 C1636 1.427 1_565 S
N1640 C1637 1.398 . S
N1641 C1633 1.427 . S
N1641 C1639 1.384 . S
H1642 C1648 0.930 . S
H1643 C1652 0.930 . S
H1644 C1657 0.929 . S
H1645 C1655 0.929 . S
H1646 C1650 0.929 . S
H1647 C1656 0.929 . S
C1648 H1642 0.930 . S
C1648 C1649 1.367 . S
C1648 C1656 1.378 . S
C1649 C1648 1.367 . S
C1649 C1657 1.433 . S
C1650 H1646 0.929 . S
C1650 C1652 1.378 . S
C1650 C1654 1.350 . S
C1651 C1654 1.463 . S
C1651 C1656 1.350 . S
C1651 N1659 1.427 . S
C1652 H1643 0.930 . S
C1652 C1650 1.378 . S
C1652 C1653 1.367 . S
C1653 C1652 1.367 . S
C1653 C1655 1.433 . S
C1654 C1650 1.350 . S
C1654 C1651 1.463 . S
C1654 N1658 1.427 . S
C1655 H1645 0.929 . S
C1655 C1653 1.433 . S
C1655 N1658 1.384 . S
C1656 H1647 0.929 . S
C1656 C1648 1.378 . S
C1656 C1651 1.350 . S
C1657 H1644 0.929 . S
C1657 C1649 1.433 . S
C1657 N1659 1.384 . S
N1658 C1654 1.427 . S
N1658 C1655 1.384 . S
N1659 C1651 1.427 . S
N1659 C1657 1.384 . S
H1660 C1666 0.930 . S
H1661 C1670 0.930 . S
H1662 C1675 0.929 . S
H1663 C1673 0.929 . S
H1664 C1668 0.929 . S
H1665 C1674 0.929 . S
C1666 H1660 0.930 . S
C1666 C1667 1.372 1_565 S
C1666 C1674 1.378 . S
C1667 C1666 1.372 1_545 S
C1667 C1675 1.428 . S
C1668 H1664 0.929 . S
C1668 C1670 1.378 . S
C1668 C1672 1.350 . S
C1669 C1672 1.463 . S
C1669 C1674 1.350 . S
C1669 N1677 1.425 . S
C1670 H1661 0.930 . S
C1670 C1668 1.378 . S
C1670 C1671 1.367 . S
C1671 C1670 1.367 . S
C1671 C1673 1.433 . S
C1672 C1668 1.350 . S
C1672 C1669 1.463 . S
C1672 N1676 1.427 . S
C1673 H1663 0.929 . S
C1673 C1671 1.433 . S
C1673 N1676 1.384 . S
C1674 H1665 0.929 . S
C1674 C1666 1.378 . S
C1674 C1669 1.350 . S
C1675 H1662 0.929 . S
C1675 C1667 1.428 . S
C1675 N1677 1.383 1_545 S
N1676 C1672 1.427 . S
N1676 C1673 1.384 . S
N1677 C1669 1.425 . S
N1677 C1675 1.383 1_565 S
H1678 C1684 0.930 . S
H1679 C1688 0.930 . S
H1680 C1693 0.929 . S
H1681 C1691 0.929 . S
H1682 C1686 0.929 . S
H1683 C1692 0.929 . S
C1684 H1678 0.930 . S
C1684 C1685 1.367 . S
C1684 C1692 1.378 . S
C1685 C1684 1.367 . S
C1685 C1693 1.433 . S
C1686 H1682 0.929 . S
C1686 C1688 1.378 . S
C1686 C1690 1.350 . S
C1687 C1690 1.463 . S
C1687 C1692 1.350 . S
C1687 N1695 1.427 . S
C1688 H1679 0.930 . S
C1688 C1686 1.378 . S
C1688 C1689 1.367 . S
C1689 C1688 1.367 . S
C1689 C1691 1.433 . S
C1690 C1686 1.350 . S
C1690 C1687 1.463 . S
C1690 N1694 1.427 . S
C1691 H1681 0.929 . S
C1691 C1689 1.433 . S
C1691 N1694 1.384 . S
C1692 H1683 0.929 . S
C1692 C1684 1.378 . S
C1692 C1687 1.350 . S
C1693 H1680 0.929 . S
C1693 C1685 1.433 . S
C1693 N1695 1.384 . S
N1694 C1690 1.427 . S
N1694 C1691 1.384 . S
N1695 C1687 1.427 . S
N1695 C1693 1.384 . S
H1696 C1702 0.930 . S
H1697 C1706 0.930 . S
H1698 C1711 0.929 . S
H1699 C1709 0.929 . S
H1700 C1704 0.929 . S
H1701 C1710 0.929 . S
C1702 H1696 0.930 . S
C1702 C1703 1.367 . S
C1702 C1710 1.378 . S
C1703 C1702 1.367 . S
C1703 C1711 1.433 . S
C1704 H1700 0.929 . S
C1704 C1706 1.378 . S
C1704 C1708 1.350 . S
C1705 C1708 1.459 1_554 S
C1705 C1710 1.354 . S
C1705 N1713 1.427 . S
C1706 H1697 0.930 . S
C1706 C1704 1.378 . S
C1706 C1707 1.367 . S
C1707 C1706 1.367 . S
C1707 C1709 1.433 . S
C1708 C1704 1.350 . S
C1708 C1705 1.459 1_556 S
C1708 N1712 1.427 . S
C1709 H1699 0.929 . S
C1709 C1707 1.433 . S
C1709 N1712 1.384 . S
C1710 H1701 0.929 . S
C1710 C1702 1.378 . S
C1710 C1705 1.354 . S
C1711 H1698 0.929 . S
C1711 C1703 1.433 . S
C1711 N1713 1.384 . S
N1712 C1708 1.427 . S
N1712 C1709 1.384 . S
N1713 C1705 1.427 . S
N1713 C1711 1.384 . S
H1714 C1720 0.919 1_556 S
H1715 C1724 0.930 . S
H1716 C1729 0.929 . S
H1717 C1727 0.929 . S
H1718 C1722 0.929 . S
H1719 C1728 0.961 . S
C1720 H1714 0.919 1_554 S
C1720 C1721 1.382 . S
C1720 C1728 1.366 1_554 S
C1721 C1720 1.382 . S
C1721 C1729 1.433 . S
C1722 H1718 0.929 . S
C1722 C1724 1.378 . S
C1722 C1726 1.350 . S
C1723 C1726 1.463 . S
C1723 C1728 1.326 1_554 S
C1723 N1731 1.427 . S
C1724 H1715 0.930 . S
C1724 C1722 1.378 . S
C1724 C1725 1.367 . S
C1725 C1724 1.367 . S
C1725 C1727 1.433 1_554 S
C1726 C1722 1.350 . S
C1726 C1723 1.463 . S
C1726 N1730 1.427 1_554 S
C1727 H1717 0.929 . S
C1727 C1725 1.433 1_556 S
C1727 N1730 1.384 . S
C1728 H1719 0.961 . S
C1728 C1720 1.366 1_556 S
C1728 C1723 1.326 1_556 S
C1729 H1716 0.929 . S
C1729 C1721 1.433 . S
C1729 N1731 1.384 . S
N1730 C1726 1.427 1_556 S
N1730 C1727 1.384 . S
N1731 C1723 1.427 . S
N1731 C1729 1.384 . S
H1732 C1738 0.930 . S
H1733 C1742 0.930 . S
H1734 C1747 0.929 . S
H1735 C1745 0.929 . S
H1736 C1740 0.929 . S
H1737 C1746 0.929 . S
C1738 H1732 0.930 . S
C1738 C1739 1.367 . S
C1738 C1746 1.378 . S
C1739 C1738 1.367 . S
C1739 C1747 1.433 . S
C1740 H1736 0.929 . S
C1740 C1742 1.378 . S
C1740 C1744 1.350 . S
C1741 C1744 1.463 . S
C1741 C1746 1.350 . S
C1741 N1749 1.427 . S
C1742 H1733 0.930 . S
C1742 C1740 1.378 . S
C1742 C1743 1.367 . S
C1743 C1742 1.367 . S
C1743 C1745 1.433 . S
C1744 C1740 1.350 . S
C1744 C1741 1.463 . S
C1744 N1748 1.427 . S
C1745 H1735 0.929 . S
C1745 C1743 1.433 . S
C1745 N1748 1.384 . S
C1746 H1737 0.929 . S
C1746 C1738 1.378 . S
C1746 C1741 1.350 . S
C1747 H1734 0.929 . S
C1747 C1739 1.433 . S
C1747 N1749 1.384 . S
N1748 C1744 1.427 . S
N1748 C1745 1.384 . S
N1749 C1741 1.427 . S
N1749 C1747 1.384 . S
H1750 C1756 0.930 . S
H1751 C1760 0.930 . S
H1752 C1765 0.929 . S
H1753 C1763 0.929 . S
H1754 C1758 0.929 . S
H1755 C1764 0.929 . S
C1756 H1750 0.930 . S
C1756 C1757 1.367 . S
C1756 C1764 1.378 . S
C1757 C1756 1.367 . S
C1757 C1765 1.433 . S
C1758 H1754 0.929 . S
C1758 C1760 1.378 . S
C1758 C1762 1.350 . S
C1759 C1762 1.463 . S
C1759 C1764 1.350 . S
C1759 N1767 1.427 . S
C1760 H1751 0.930 . S
C1760 C1758 1.378 . S
C1760 C1761 1.367 . S
C1761 C1760 1.367 . S
C1761 C1763 1.433 . S
C1762 C1758 1.350 . S
C1762 C1759 1.463 . S
C1762 N1766 1.427 . S
C1763 H1753 0.929 . S
C1763 C1761 1.433 . S
C1763 N1766 1.384 . S
C1764 H1755 0.929 . S
C1764 C1756 1.378 . S
C1764 C1759 1.350 . S
C1765 H1752 0.929 . S
C1765 C1757 1.433 . S
C1765 N1767 1.384 . S
N1766 C1762 1.427 . S
N1766 C1763 1.384 . S
N1767 C1759 1.427 . S
N1767 C1765 1.384 . S
H1768 C1774 0.931 . S
H1769 C1778 0.930 . S
H1770 C1783 0.929 . S
H1771 C1781 0.929 . S
H1772 C1776 0.929 . S
H1773 C1782 0.929 . S
C1774 H1768 0.931 . S
C1774 C1775 1.368 . S
C1774 C1782 1.376 1_545 S
C1775 C1774 1.368 . S
C1775 C1783 1.433 . S
C1776 H1772 0.929 . S
C1776 C1778 1.378 . S
C1776 C1780 1.350 . S
C1777 C1780 1.463 . S
C1777 C1782 1.350 . S
C1777 N1785 1.427 . S
C1778 H1769 0.930 . S
C1778 C1776 1.378 . S
C1778 C1779 1.367 . S
C1779 C1778 1.367 . S
C1779 C1781 1.433 . S
C1780 C1776 1.350 . S
C1780 C1777 1.463 . S
C1780 N1784 1.427 . S
C1781 H1771 0.929 . S
C1781 C1779 1.433 . S
C1781 N1784 1.384 . S
C1782 H1773 0.929 . S
C1782 C1774 1.376 1_565 S
C1782 C1777 1.350 . S
C1783 H1770 0.929 . S
C1783 C1775 1.433 . S
C1783 N1785 1.384 1_545 S
N1784 C1780 1.427 . S
N1784 C1781 1.384 . S
N1785 C1777 1.427 . S
N1785 C1783 1.384 1_565 S
H1786 C1792 0.930 . S
H1787 C1796 0.930 . S
H1788 C1801 0.929 . S
H1789 C1799 0.929 . S
H1790 C1794 0.929 . S
H1791 C1800 0.929 . S
C1792 H1786 0.930 . S
C1792 C1793 1.367 . S
C1792 C1800 1.378 . S
C1793 C1792 1.367 . S
C1793 C1801 1.433 . S
C1794 H1790 0.929 . S
C1794 C1796 1.378 . S
C1794 C1798 1.350 . S
C1795 C1798 1.463 . S
C1795 C1800 1.350 . S
C1795 N1803 1.427 . S
C1796 H1787 0.930 . S
C1796 C1794 1.378 . S
C1796 C1797 1.367 . S
C1797 C1796 1.367 . S
C1797 C1799 1.433 . S
C1798 C1794 1.350 . S
C1798 C1795 1.463 . S
C1798 N1802 1.427 . S
C1799 H1789 0.929 . S
C1799 C1797 1.433 . S
C1799 N1802 1.384 . S
C1800 H1791 0.929 . S
C1800 C1792 1.378 . S
C1800 C1795 1.350 . S
C1801 H1788 0.929 . S
C1801 C1793 1.433 . S
C1801 N1803 1.384 . S
N1802 C1798 1.427 . S
N1802 C1799 1.384 . S
N1803 C1795 1.427 . S
N1803 C1801 1.384 . S
H1804 C1810 0.930 . S
H1805 C1814 0.930 . S
H1806 C1819 0.929 . S
H1807 C1817 0.929 . S
H1808 C1812 0.929 . S
H1809 C1818 0.929 . S
C1810 H1804 0.930 . S
C1810 C1811 1.367 . S
C1810 C1818 1.378 . S
C1811 C1810 1.367 . S
C1811 C1819 1.433 . S
C1812 H1808 0.929 . S
C1812 C1814 1.378 . S
C1812 C1816 1.350 . S
C1813 C1816 1.463 . S
C1813 C1818 1.350 . S
C1813 N1821 1.427 . S
C1814 H1805 0.930 . S
C1814 C1812 1.378 . S
C1814 C1815 1.367 . S
C1815 C1814 1.367 . S
C1815 C1817 1.433 . S
C1816 C1812 1.350 . S
C1816 C1813 1.463 . S
C1816 N1820 1.427 . S
C1817 H1807 0.929 . S
C1817 C1815 1.433 . S
C1817 N1820 1.384 . S
C1818 H1809 0.929 . S
C1818 C1810 1.378 . S
C1818 C1813 1.350 . S
C1819 H1806 0.929 . S
C1819 C1811 1.433 . S
C1819 N1821 1.384 . S
N1820 C1816 1.427 . S
N1820 C1817 1.384 . S
N1821 C1813 1.427 . S
N1821 C1819 1.384 . S
H1822 C1828 0.930 . S
H1823 C1832 0.930 . S
H1824 C1837 0.929 . S
H1825 C1835 0.929 . S
H1826 C1830 0.929 . S
H1827 C1836 0.929 . S
C1828 H1822 0.930 . S
C1828 C1829 1.367 . S
C1828 C1836 1.378 . S
C1829 C1828 1.367 . S
C1829 C1837 1.433 . S
C1830 H1826 0.929 . S
C1830 C1832 1.378 . S
C1830 C1834 1.350 . S
C1831 C1834 1.463 . S
C1831 C1836 1.350 . S
C1831 N1839 1.427 . S
C1832 H1823 0.930 . S
C1832 C1830 1.378 . S
C1832 C1833 1.367 . S
C1833 C1832 1.367 . S
C1833 C1835 1.433 . S
C1834 C1830 1.350 . S
C1834 C1831 1.463 . S
C1834 N1838 1.427 . S
C1835 H1825 0.929 . S
C1835 C1833 1.433 . S
C1835 N1838 1.384 . S
C1836 H1827 0.929 . S
C1836 C1828 1.378 . S
C1836 C1831 1.350 . S
C1837 H1824 0.929 . S
C1837 C1829 1.433 . S
C1837 N1839 1.384 . S
N1838 C1834 1.427 . S
N1838 C1835 1.384 . S
N1839 C1831 1.427 . S
N1839 C1837 1.384 . S
H1840 C1846 0.930 . S
H1841 C1850 0.930 . S
H1842 C1855 0.929 . S
H1843 C1853 0.929 . S
H1844 C1848 0.929 . S
H1845 C1854 0.929 . S
C1846 H1840 0.930 . S
C1846 C1847 1.367 . S
C1846 C1854 1.378 . S
C1847 C1846 1.367 . S
C1847 C1855 1.433 . S
C1848 H1844 0.929 . S
C1848 C1850 1.378 . S
C1848 C1852 1.350 . S
C1849 C1852 1.463 . S
C1849 C1854 1.350 . S
C1849 N1857 1.427 . S
C1850 H1841 0.930 . S
C1850 C1848 1.378 . S
C1850 C1851 1.367 . S
C1851 C1850 1.367 . S
C1851 C1853 1.433 . S
C1852 C1848 1.350 . S
C1852 C1849 1.463 . S
C1852 N1856 1.427 . S
C1853 H1843 0.929 . S
C1853 C1851 1.433 . S
C1853 N1856 1.384 . S
C1854 H1845 0.929 . S
C1854 C1846 1.378 . S
C1854 C1849 1.350 . S
C1855 H1842 0.929 . S
C1855 C1847 1.433 . S
C1855 N1857 1.384 . S
N1856 C1852 1.427 . S
N1856 C1853 1.384 . S
N1857 C1849 1.427 . S
N1857 C1855 1.384 . S
H1858 C1864 0.930 . S
H1859 C1868 0.930 . S
H1860 C1873 0.929 . S
H1861 C1871 0.929 . S
H1862 C1866 0.929 . S
H1863 C1872 0.929 . S
C1864 H1858 0.930 . S
C1864 C1865 1.367 . S
C1864 C1872 1.378 . S
C1865 C1864 1.367 . S
C1865 C1873 1.433 . S
C1866 H1862 0.929 . S
C1866 C1868 1.378 . S
C1866 C1870 1.350 . S
C1867 C1870 1.463 . S
C1867 C1872 1.350 . S
C1867 N1875 1.427 . S
C1868 H1859 0.930 . S
C1868 C1866 1.378 . S
C1868 C1869 1.367 . S
C1869 C1868 1.367 . S
C1869 C1871 1.433 . S
C1870 C1866 1.350 . S
C1870 C1867 1.463 . S
C1870 N1874 1.427 . S
C1871 H1861 0.929 . S
C1871 C1869 1.433 . S
C1871 N1874 1.384 . S
C1872 H1863 0.929 . S
C1872 C1864 1.378 . S
C1872 C1867 1.350 . S
C1873 H1860 0.929 . S
C1873 C1865 1.433 . S
C1873 N1875 1.384 . S
N1874 C1870 1.427 . S
N1874 C1871 1.384 . S
N1875 C1867 1.427 . S
N1875 C1873 1.384 . S
H1876 C1882 0.930 . S
H1877 C1886 0.930 . S
H1878 C1891 0.929 . S
H1879 C1889 0.929 . S
H1880 C1884 0.929 . S
H1881 C1890 0.929 . S
C1882 H1876 0.930 . S
C1882 C1883 1.367 . S
C1882 C1890 1.378 . S
C1883 C1882 1.367 . S
C1883 C1891 1.433 . S
C1884 H1880 0.929 . S
C1884 C1886 1.378 . S
C1884 C1888 1.350 1_554 S
C1885 C1888 1.463 . S
C1885 C1890 1.350 . S
C1885 N1893 1.427 . S
C1886 H1877 0.930 . S
C1886 C1884 1.378 . S
C1886 C1887 1.386 . S
C1887 C1886 1.386 . S
C1887 C1889 1.409 1_554 S
C1888 C1884 1.350 1_556 S
C1888 C1885 1.463 . S
C1888 N1892 1.427 . S
C1889 H1879 0.929 . S
C1889 C1887 1.409 1_556 S
C1889 N1892 1.384 . S
C1890 H1881 0.929 . S
C1890 C1882 1.378 . S
C1890 C1885 1.350 . S
C1891 H1878 0.929 . S
C1891 C1883 1.433 . S
C1891 N1893 1.384 . S
N1892 C1888 1.427 . S
N1892 C1889 1.384 . S
N1893 C1885 1.427 . S
N1893 C1891 1.384 . S
H1894 C1900 0.930 . S
H1895 C1904 0.930 . S
H1896 C1909 0.929 . S
H1897 C1907 0.929 . S
H1898 C1902 0.929 . S
H1899 C1908 0.929 . S
C1900 H1894 0.930 . S
C1900 C1901 1.367 . S
C1900 C1908 1.378 1_455 S
C1901 C1900 1.367 . S
C1901 C1909 1.433 . S
C1902 H1898 0.929 . S
C1902 C1904 1.378 . S
C1902 C1906 1.350 . S
C1903 C1906 1.463 . S
C1903 C1908 1.350 . S
C1903 N1911 1.427 1_655 S
C1904 H1895 0.930 . S
C1904 C1902 1.378 . S
C1904 C1905 1.367 . S
C1905 C1904 1.367 . S
C1905 C1907 1.433 . S
C1906 C1902 1.350 . S
C1906 C1903 1.463 . S
C1906 N1910 1.427 . S
C1907 H1897 0.929 . S
C1907 C1905 1.433 . S
C1907 N1910 1.384 . S
C1908 H1899 0.929 . S
C1908 C1900 1.378 1_655 S
C1908 C1903 1.350 . S
C1909 H1896 0.929 . S
C1909 C1901 1.433 . S
C1909 N1911 1.384 . S
N1910 C1906 1.427 . S
N1910 C1907 1.384 . S
N1911 C1903 1.427 1_455 S
N1911 C1909 1.384 . S
H1912 C1918 0.930 . S
H1913 C1922 0.930 . S
H1914 C1927 0.929 . S
H1915 C1925 0.929 . S
H1916 C1920 0.929 . S
H1917 C1926 0.929 . S
C1918 H1912 0.930 . S
C1918 C1919 1.367 . S
C1918 C1926 1.378 . S
C1919 C1918 1.367 . S
C1919 C1927 1.433 . S
C1920 H1916 0.929 . S
C1920 C1922 1.378 . S
C1920 C1924 1.350 . S
C1921 C1924 1.463 . S
C1921 C1926 1.350 . S
C1921 N1929 1.427 . S
C1922 H1913 0.930 . S
C1922 C1920 1.378 . S
C1922 C1923 1.367 . S
C1923 C1922 1.367 . S
C1923 C1925 1.433 . S
C1924 C1920 1.350 . S
C1924 C1921 1.463 . S
C1924 N1928 1.427 . S
C1925 H1915 0.929 . S
C1925 C1923 1.433 . S
C1925 N1928 1.384 . S
C1926 H1917 0.929 . S
C1926 C1918 1.378 . S
C1926 C1921 1.350 . S
C1927 H1914 0.929 . S
C1927 C1919 1.433 . S
C1927 N1929 1.384 . S
N1928 C1924 1.427 . S
N1928 C1925 1.384 . S
N1929 C1921 1.427 . S
N1929 C1927 1.384 . S
H1930 C1936 0.930 . S
H1931 C1940 0.930 . S
H1932 C1945 0.929 . S
H1933 C1943 0.929 . S
H1934 C1938 0.929 . S
H1935 C1944 0.929 . S
C1936 H1930 0.930 . S
C1936 C1937 1.367 . S
C1936 C1944 1.378 . S
C1937 C1936 1.367 . S
C1937 C1945 1.433 . S
C1938 H1934 0.929 . S
C1938 C1940 1.378 . S
C1938 C1942 1.350 . S
C1939 C1942 1.463 1_455 S
C1939 C1944 1.350 . S
C1939 N1947 1.427 . S
C1940 H1931 0.930 . S
C1940 C1938 1.378 . S
C1940 C1941 1.367 . S
C1941 C1940 1.367 . S
C1941 C1943 1.433 . S
C1942 C1938 1.350 . S
C1942 C1939 1.463 1_655 S
C1942 N1946 1.427 . S
C1943 H1933 0.929 . S
C1943 C1941 1.433 . S
C1943 N1946 1.384 . S
C1944 H1935 0.929 . S
C1944 C1936 1.378 . S
C1944 C1939 1.350 . S
C1945 H1932 0.929 . S
C1945 C1937 1.433 . S
C1945 N1947 1.384 . S
N1946 C1942 1.427 . S
N1946 C1943 1.384 . S
N1947 C1939 1.427 . S
N1947 C1945 1.384 . S
H1948 C1954 0.930 . S
H1949 C1958 0.930 . S
H1950 C1963 0.929 . S
H1951 C1961 0.929 . S
H1952 C1956 0.929 . S
H1953 C1962 0.929 . S
C1954 H1948 0.930 . S
C1954 C1955 1.367 . S
C1954 C1962 1.378 1_655 S
C1955 C1954 1.367 . S
C1955 C1963 1.433 . S
C1956 H1952 0.929 . S
C1956 C1958 1.378 . S
C1956 C1960 1.350 . S
C1957 C1960 1.463 . S
C1957 C1962 1.350 . S
C1957 N1965 1.427 . S
C1958 H1949 0.930 . S
C1958 C1956 1.378 . S
C1958 C1959 1.367 . S
C1959 C1958 1.367 . S
C1959 C1961 1.433 . S
C1960 C1956 1.350 . S
C1960 C1957 1.463 . S
C1960 N1964 1.427 . S
C1961 H1951 0.929 . S
C1961 C1959 1.433 . S
C1961 N1964 1.384 . S
C1962 H1953 0.929 . S
C1962 C1954 1.378 1_455 S
C1962 C1957 1.350 . S
C1963 H1950 0.929 . S
C1963 C1955 1.433 . S
C1963 N1965 1.384 1_655 S
N1964 C1960 1.427 . S
N1964 C1961 1.384 . S
N1965 C1957 1.427 . S
N1965 C1963 1.384 1_455 S
H1966 C1972 0.930 . S
H1967 C1976 0.930 . S
H1968 C1981 0.929 . S
H1969 C1979 0.929 . S
H1970 C1974 0.929 . S
H1971 C1980 0.929 . S
C1972 H1966 0.930 . S
C1972 C1973 1.367 . S
C1972 C1980 1.378 . S
C1973 C1972 1.367 . S
C1973 C1981 1.433 . S
C1974 H1970 0.929 . S
C1974 C1976 1.378 . S
C1974 C1978 1.350 . S
C1975 C1978 1.463 . S
C1975 C1980 1.350 . S
C1975 N1983 1.427 . S
C1976 H1967 0.930 . S
C1976 C1974 1.378 . S
C1976 C1977 1.367 . S
C1977 C1976 1.367 . S
C1977 C1979 1.433 . S
C1978 C1974 1.350 . S
C1978 C1975 1.463 . S
C1978 N1982 1.427 . S
C1979 H1969 0.929 . S
C1979 C1977 1.433 . S
C1979 N1982 1.384 . S
C1980 H1971 0.929 . S
C1980 C1972 1.378 . S
C1980 C1975 1.350 . S
C1981 H1968 0.929 . S
C1981 C1973 1.433 . S
C1981 N1983 1.384 . S
N1982 C1978 1.427 . S
N1982 C1979 1.384 . S
N1983 C1975 1.427 . S
N1983 C1981 1.384 . S
H1984 C1990 0.930 . S
H1985 C1994 0.930 . S
H1986 C1999 0.929 . S
H1987 C1997 0.929 . S
H1988 C1992 0.929 . S
H1989 C1998 0.929 . S
C1990 H1984 0.930 . S
C1990 C1991 1.367 . S
C1990 C1998 1.378 . S
C1991 C1990 1.367 . S
C1991 C1999 1.433 . S
C1992 H1988 0.929 . S
C1992 C1994 1.378 . S
C1992 C1996 1.350 . S
C1993 C1996 1.463 . S
C1993 C1998 1.350 . S
C1993 N2001 1.427 . S
C1994 H1985 0.930 . S
C1994 C1992 1.378 . S
C1994 C1995 1.367 . S
C1995 C1994 1.367 . S
C1995 C1997 1.433 . S
C1996 C1992 1.350 . S
C1996 C1993 1.463 . S
C1996 N2000 1.427 . S
C1997 H1987 0.929 . S
C1997 C1995 1.433 . S
C1997 N2000 1.384 . S
C1998 H1989 0.929 . S
C1998 C1990 1.378 . S
C1998 C1993 1.350 . S
C1999 H1986 0.929 . S
C1999 C1991 1.433 . S
C1999 N2001 1.384 . S
N2000 C1996 1.427 . S
N2000 C1997 1.384 . S
N2001 C1993 1.427 . S
N2001 C1999 1.384 . S
H2002 C2008 0.930 1_554 S
H2003 C2012 0.930 . S
H2004 C2017 0.929 . S
H2005 C2015 0.929 . S
H2006 C2010 0.929 . S
H2007 C2016 0.929 . S
C2008 H2002 0.930 1_556 S
C2008 C2009 1.367 . S
C2008 C2016 1.378 . S
C2009 C2008 1.367 . S
C2009 C2017 1.433 . S
C2010 H2006 0.929 . S
C2010 C2012 1.378 . S
C2010 C2014 1.350 . S
C2011 C2014 1.463 . S
C2011 C2016 1.350 . S
C2011 N2019 1.427 . S
C2012 H2003 0.930 . S
C2012 C2010 1.378 . S
C2012 C2013 1.367 . S
C2013 C2012 1.367 . S
C2013 C2015 1.433 . S
C2014 C2010 1.350 . S
C2014 C2011 1.463 . S
C2014 N2018 1.427 . S
C2015 H2005 0.929 . S
C2015 C2013 1.433 . S
C2015 N2018 1.384 . S
C2016 H2007 0.929 . S
C2016 C2008 1.378 . S
C2016 C2011 1.350 . S
C2017 H2004 0.929 . S
C2017 C2009 1.433 . S
C2017 N2019 1.384 . S
N2018 C2014 1.427 . S
N2018 C2015 1.384 . S
N2019 C2011 1.427 . S
N2019 C2017 1.384 . S
H2020 C2026 0.930 . S
H2021 C2030 0.930 . S
H2022 C2035 0.929 . S
H2023 C2033 0.929 . S
H2024 C2028 0.929 . S
H2025 C2034 0.929 . S
C2026 H2020 0.930 . S
C2026 C2027 1.367 . S
C2026 C2034 1.378 . S
C2027 C2026 1.367 . S
C2027 C2035 1.433 . S
C2028 H2024 0.929 . S
C2028 C2030 1.378 . S
C2028 C2032 1.350 . S
C2029 C2032 1.463 . S
C2029 C2034 1.350 . S
C2029 N2037 1.427 . S
C2030 H2021 0.930 . S
C2030 C2028 1.378 . S
C2030 C2031 1.367 . S
C2031 C2030 1.367 . S
C2031 C2033 1.433 . S
C2032 C2028 1.350 . S
C2032 C2029 1.463 . S
C2032 N2036 1.427 . S
C2033 H2023 0.929 . S
C2033 C2031 1.433 . S
C2033 N2036 1.384 . S
C2034 H2025 0.929 . S
C2034 C2026 1.378 . S
C2034 C2029 1.350 . S
C2035 H2022 0.929 . S
C2035 C2027 1.433 . S
C2035 N2037 1.384 . S
N2036 C2032 1.427 . S
N2036 C2033 1.384 . S
N2037 C2029 1.427 . S
N2037 C2035 1.384 . S
H2038 C2044 0.930 . S
H2039 C2048 0.930 . S
H2040 C2053 0.929 . S
H2041 C2051 0.929 . S
H2042 C2046 0.929 . S
H2043 C2052 0.929 . S
C2044 H2038 0.930 . S
C2044 C2045 1.367 . S
C2044 C2052 1.378 . S
C2045 C2044 1.367 . S
C2045 C2053 1.433 . S
C2046 H2042 0.929 . S
C2046 C2048 1.378 . S
C2046 C2050 1.350 . S
C2047 C2050 1.463 . S
C2047 C2052 1.350 . S
C2047 N2055 1.427 . S
C2048 H2039 0.930 . S
C2048 C2046 1.378 . S
C2048 C2049 1.367 . S
C2049 C2048 1.367 . S
C2049 C2051 1.433 . S
C2050 C2046 1.350 . S
C2050 C2047 1.463 . S
C2050 N2054 1.427 . S
C2051 H2041 0.929 . S
C2051 C2049 1.433 . S
C2051 N2054 1.384 . S
C2052 H2043 0.929 . S
C2052 C2044 1.378 . S
C2052 C2047 1.350 . S
C2053 H2040 0.929 . S
C2053 C2045 1.433 . S
C2053 N2055 1.384 . S
N2054 C2050 1.427 . S
N2054 C2051 1.384 . S
N2055 C2047 1.427 . S
N2055 C2053 1.384 . S
H2056 C2062 0.930 . S
H2057 C2066 0.930 . S
H2058 C2071 0.929 . S
H2059 C2069 0.929 . S
H2060 C2064 0.929 . S
H2061 C2070 0.929 . S
C2062 H2056 0.930 . S
C2062 C2063 1.367 . S
C2062 C2070 1.378 . S
C2063 C2062 1.367 . S
C2063 C2071 1.433 . S
C2064 H2060 0.929 . S
C2064 C2066 1.378 . S
C2064 C2068 1.350 . S
C2065 C2068 1.463 . S
C2065 C2070 1.350 . S
C2065 N2073 1.427 . S
C2066 H2057 0.930 . S
C2066 C2064 1.378 . S
C2066 C2067 1.367 . S
C2067 C2066 1.367 . S
C2067 C2069 1.433 . S
C2068 C2064 1.350 . S
C2068 C2065 1.463 . S
C2068 N2072 1.427 . S
C2069 H2059 0.929 . S
C2069 C2067 1.433 . S
C2069 N2072 1.384 . S
C2070 H2061 0.929 . S
C2070 C2062 1.378 . S
C2070 C2065 1.350 . S
C2071 H2058 0.929 . S
C2071 C2063 1.433 . S
C2071 N2073 1.384 . S
N2072 C2068 1.427 . S
N2072 C2069 1.384 . S
N2073 C2065 1.427 . S
N2073 C2071 1.384 . S
H2074 C2080 0.930 . S
H2075 C2084 0.930 . S
H2076 C2089 0.929 . S
H2077 C2087 0.929 . S
H2078 C2082 0.929 . S
H2079 C2088 0.929 . S
C2080 H2074 0.930 . S
C2080 C2081 1.367 . S
C2080 C2088 1.378 . S
C2081 C2080 1.367 . S
C2081 C2089 1.433 . S
C2082 H2078 0.929 . S
C2082 C2084 1.378 . S
C2082 C2086 1.350 . S
C2083 C2086 1.463 . S
C2083 C2088 1.350 . S
C2083 N2091 1.427 . S
C2084 H2075 0.930 . S
C2084 C2082 1.378 . S
C2084 C2085 1.367 . S
C2085 C2084 1.367 . S
C2085 C2087 1.433 . S
C2086 C2082 1.350 . S
C2086 C2083 1.463 . S
C2086 N2090 1.427 . S
C2087 H2077 0.929 . S
C2087 C2085 1.433 . S
C2087 N2090 1.384 . S
C2088 H2079 0.929 . S
C2088 C2080 1.378 . S
C2088 C2083 1.350 . S
C2089 H2076 0.929 . S
C2089 C2081 1.433 . S
C2089 N2091 1.384 . S
N2090 C2086 1.427 . S
N2090 C2087 1.384 . S
N2091 C2083 1.427 . S
N2091 C2089 1.384 . S
H2092 C2098 0.930 . S
H2093 C2102 0.930 . S
H2094 C2107 0.929 . S
H2095 C2105 0.929 . S
H2096 C2100 0.929 . S
H2097 C2106 0.929 . S
C2098 H2092 0.930 . S
C2098 C2099 1.367 . S
C2098 C2106 1.378 . S
C2099 C2098 1.367 . S
C2099 C2107 1.433 . S
C2100 H2096 0.929 . S
C2100 C2102 1.378 . S
C2100 C2104 1.350 . S
C2101 C2104 1.463 . S
C2101 C2106 1.350 . S
C2101 N2109 1.427 . S
C2102 H2093 0.930 . S
C2102 C2100 1.378 . S
C2102 C2103 1.367 . S
C2103 C2102 1.367 . S
C2103 C2105 1.433 . S
C2104 C2100 1.350 . S
C2104 C2101 1.463 . S
C2104 N2108 1.427 . S
C2105 H2095 0.929 . S
C2105 C2103 1.433 . S
C2105 N2108 1.384 . S
C2106 H2097 0.929 . S
C2106 C2098 1.378 . S
C2106 C2101 1.350 . S
C2107 H2094 0.929 . S
C2107 C2099 1.433 . S
C2107 N2109 1.384 . S
N2108 C2104 1.427 . S
N2108 C2105 1.384 . S
N2109 C2101 1.427 . S
N2109 C2107 1.384 . S
H2110 C2116 0.930 . S
H2111 C2120 0.930 . S
H2112 C2125 0.929 . S
H2113 C2123 0.929 . S
H2114 C2118 0.929 . S
H2115 C2124 0.929 . S
C2116 H2110 0.930 . S
C2116 C2117 1.367 . S
C2116 C2124 1.378 . S
C2117 C2116 1.367 . S
C2117 C2125 1.433 . S
C2118 H2114 0.929 . S
C2118 C2120 1.378 . S
C2118 C2122 1.350 . S
C2119 C2122 1.463 . S
C2119 C2124 1.350 . S
C2119 N2127 1.427 . S
C2120 H2111 0.930 . S
C2120 C2118 1.378 . S
C2120 C2121 1.367 . S
C2121 C2120 1.367 . S
C2121 C2123 1.433 . S
C2122 C2118 1.350 . S
C2122 C2119 1.463 . S
C2122 N2126 1.427 . S
C2123 H2113 0.929 . S
C2123 C2121 1.433 . S
C2123 N2126 1.384 . S
C2124 H2115 0.929 . S
C2124 C2116 1.378 . S
C2124 C2119 1.350 . S
C2125 H2112 0.929 . S
C2125 C2117 1.433 . S
C2125 N2127 1.384 . S
N2126 C2122 1.427 . S
N2126 C2123 1.384 . S
N2127 C2119 1.427 . S
N2127 C2125 1.384 . S
H2128 C2134 0.930 . S
H2129 C2138 0.930 . S
H2130 C2143 0.929 . S
H2131 C2141 0.929 . S
H2132 C2136 0.929 . S
H2133 C2142 0.929 . S
C2134 H2128 0.930 . S
C2134 C2135 1.367 . S
C2134 C2142 1.378 . S
C2135 C2134 1.367 . S
C2135 C2143 1.433 . S
C2136 H2132 0.929 . S
C2136 C2138 1.378 . S
C2136 C2140 1.350 . S
C2137 C2140 1.463 . S
C2137 C2142 1.350 . S
C2137 N2145 1.427 . S
C2138 H2129 0.930 . S
C2138 C2136 1.378 . S
C2138 C2139 1.367 . S
C2139 C2138 1.367 . S
C2139 C2141 1.433 . S
C2140 C2136 1.350 . S
C2140 C2137 1.463 . S
C2140 N2144 1.427 . S
C2141 H2131 0.929 . S
C2141 C2139 1.433 . S
C2141 N2144 1.384 . S
C2142 H2133 0.929 . S
C2142 C2134 1.378 . S
C2142 C2137 1.350 . S
C2143 H2130 0.929 . S
C2143 C2135 1.433 . S
C2143 N2145 1.384 . S
N2144 C2140 1.427 . S
N2144 C2141 1.384 . S
N2145 C2137 1.427 . S
N2145 C2143 1.384 . S
H2146 C2152 0.930 . S
H2147 C2156 0.930 . S
H2148 C2161 0.929 . S
H2149 C2159 0.929 . S
H2150 C2154 0.929 . S
H2151 C2160 0.929 . S
C2152 H2146 0.930 . S
C2152 C2153 1.367 . S
C2152 C2160 1.378 . S
C2153 C2152 1.367 . S
C2153 C2161 1.433 . S
C2154 H2150 0.929 . S
C2154 C2156 1.378 . S
C2154 C2158 1.350 . S
C2155 C2158 1.463 . S
C2155 C2160 1.350 . S
C2155 N2163 1.427 . S
C2156 H2147 0.930 . S
C2156 C2154 1.378 . S
C2156 C2157 1.367 . S
C2157 C2156 1.367 . S
C2157 C2159 1.433 . S
C2158 C2154 1.350 . S
C2158 C2155 1.463 . S
C2158 N2162 1.427 . S
C2159 H2149 0.929 . S
C2159 C2157 1.433 . S
C2159 N2162 1.384 . S
C2160 H2151 0.929 . S
C2160 C2152 1.378 . S
C2160 C2155 1.350 . S
C2161 H2148 0.929 . S
C2161 C2153 1.433 . S
C2161 N2163 1.384 . S
N2162 C2158 1.427 . S
N2162 C2159 1.384 . S
N2163 C2155 1.427 . S
N2163 C2161 1.384 . S
H2164 C2170 0.930 . S
H2165 C2174 0.930 . S
H2166 C2179 0.929 . S
H2167 C2177 0.929 . S
H2168 C2172 0.929 . S
H2169 C2178 0.929 . S
C2170 H2164 0.930 . S
C2170 C2171 1.367 . S
C2170 C2178 1.378 . S
C2171 C2170 1.367 . S
C2171 C2179 1.433 . S
C2172 H2168 0.929 . S
C2172 C2174 1.378 . S
C2172 C2176 1.350 . S
C2173 C2176 1.463 . S
C2173 C2178 1.350 . S
C2173 N2181 1.427 . S
C2174 H2165 0.930 . S
C2174 C2172 1.378 . S
C2174 C2175 1.367 . S
C2175 C2174 1.367 . S
C2175 C2177 1.433 . S
C2176 C2172 1.350 . S
C2176 C2173 1.463 . S
C2176 N2180 1.427 . S
C2177 H2167 0.929 . S
C2177 C2175 1.433 . S
C2177 N2180 1.384 . S
C2178 H2169 0.929 . S
C2178 C2170 1.378 . S
C2178 C2173 1.350 . S
C2179 H2166 0.929 . S
C2179 C2171 1.433 . S
C2179 N2181 1.384 . S
N2180 C2176 1.427 . S
N2180 C2177 1.384 . S
N2181 C2173 1.427 . S
N2181 C2179 1.384 . S
H2182 C2188 0.930 . S
H2183 C2192 0.930 . S
H2184 C2197 0.929 . S
H2185 C2195 0.929 . S
H2186 C2190 0.929 . S
H2187 C2196 0.929 . S
C2188 H2182 0.930 . S
C2188 C2189 1.367 . S
C2188 C2196 1.378 . S
C2189 C2188 1.367 . S
C2189 C2197 1.433 1_554 S
C2190 H2186 0.929 . S
C2190 C2192 1.378 . S
C2190 C2194 1.350 1_546 S
C2191 C2194 1.463 . S
C2191 C2196 1.350 . S
C2191 N2199 1.427 1_554 S
C2192 H2183 0.930 . S
C2192 C2190 1.378 . S
C2192 C2193 1.367 1_556 S
C2193 C2192 1.367 1_554 S
C2193 C2195 1.433 . S
C2194 C2190 1.350 1_564 S
C2194 C2191 1.463 . S
C2194 N2198 1.427 . S
C2195 H2185 0.929 . S
C2195 C2193 1.433 . S
C2195 N2198 1.384 1_545 S
C2196 H2187 0.929 . S
C2196 C2188 1.378 . S
C2196 C2191 1.350 . S
C2197 H2184 0.929 . S
C2197 C2189 1.433 1_556 S
C2197 N2199 1.384 . S
N2198 C2194 1.427 . S
N2198 C2195 1.384 1_565 S
N2199 C2191 1.427 1_556 S
N2199 C2197 1.384 . S
H2200 C2206 0.930 . S
H2201 C2210 0.930 . S
H2202 C2215 0.929 . S
H2203 C2213 0.929 . S
H2204 C2208 0.929 . S
H2205 C2214 0.929 . S
C2206 H2200 0.930 . S
C2206 C2207 1.367 . S
C2206 C2214 1.378 . S
C2207 C2206 1.367 . S
C2207 C2215 1.433 . S
C2208 H2204 0.929 . S
C2208 C2210 1.378 . S
C2208 C2212 1.350 . S
C2209 C2212 1.463 . S
C2209 C2214 1.350 . S
C2209 N2217 1.427 . S
C2210 H2201 0.930 . S
C2210 C2208 1.378 . S
C2210 C2211 1.367 . S
C2211 C2210 1.367 . S
C2211 C2213 1.433 . S
C2212 C2208 1.350 . S
C2212 C2209 1.463 . S
C2212 N2216 1.427 . S
C2213 H2203 0.929 . S
C2213 C2211 1.433 . S
C2213 N2216 1.384 . S
C2214 H2205 0.929 . S
C2214 C2206 1.378 . S
C2214 C2209 1.350 . S
C2215 H2202 0.929 . S
C2215 C2207 1.433 . S
C2215 N2217 1.384 . S
N2216 C2212 1.427 . S
N2216 C2213 1.384 . S
N2217 C2209 1.427 . S
N2217 C2215 1.384 . S
H2218 C2224 0.930 1_556 S
H2219 C2228 0.930 . S
H2220 C2233 0.929 . S
H2221 C2231 0.929 . S
H2222 C2226 0.929 . S
H2223 C2232 0.929 . S
C2224 H2218 0.930 1_554 S
C2224 C2225 1.367 . S
C2224 C2232 1.378 . S
C2225 C2224 1.367 . S
C2225 C2233 1.433 . S
C2226 H2222 0.929 . S
C2226 C2228 1.378 . S
C2226 C2230 1.350 . S
C2227 C2230 1.463 . S
C2227 C2232 1.350 . S
C2227 N2235 1.427 . S
C2228 H2219 0.930 . S
C2228 C2226 1.378 . S
C2228 C2229 1.367 . S
C2229 C2228 1.367 . S
C2229 C2231 1.433 . S
C2230 C2226 1.350 . S
C2230 C2227 1.463 . S
C2230 N2234 1.427 . S
C2231 H2221 0.929 . S
C2231 C2229 1.433 . S
C2231 N2234 1.384 . S
C2232 H2223 0.929 . S
C2232 C2224 1.378 . S
C2232 C2227 1.350 . S
C2233 H2220 0.929 . S
C2233 C2225 1.433 . S
C2233 N2235 1.384 . S
N2234 C2230 1.427 . S
N2234 C2231 1.384 . S
N2235 C2227 1.427 . S
N2235 C2233 1.384 . S
H2236 C2242 0.930 . S
H2237 C2246 0.930 . S
H2238 C2251 0.929 . S
H2239 C2249 0.929 . S
H2240 C2244 0.929 . S
H2241 C2250 0.929 . S
C2242 H2236 0.930 . S
C2242 C2243 1.367 . S
C2242 C2250 1.378 . S
C2243 C2242 1.367 . S
C2243 C2251 1.433 . S
C2244 H2240 0.929 . S
C2244 C2246 1.378 . S
C2244 C2248 1.350 . S
C2245 C2248 1.463 . S
C2245 C2250 1.350 . S
C2245 N2253 1.427 . S
C2246 H2237 0.930 . S
C2246 C2244 1.378 . S
C2246 C2247 1.367 . S
C2247 C2246 1.367 . S
C2247 C2249 1.433 . S
C2248 C2244 1.350 . S
C2248 C2245 1.463 . S
C2248 N2252 1.427 . S
C2249 H2239 0.929 . S
C2249 C2247 1.433 . S
C2249 N2252 1.384 . S
C2250 H2241 0.929 . S
C2250 C2242 1.378 . S
C2250 C2245 1.350 . S
C2251 H2238 0.929 . S
C2251 C2243 1.433 . S
C2251 N2253 1.384 . S
N2252 C2248 1.427 . S
N2252 C2249 1.384 . S
N2253 C2245 1.427 . S
N2253 C2251 1.384 . S
H2254 C2260 0.930 . S
H2255 C2264 0.930 . S
H2256 C2269 0.929 . S
H2257 C2267 0.929 . S
H2258 C2262 0.929 . S
H2259 C2268 0.929 . S
C2260 H2254 0.930 . S
C2260 C2261 1.367 . S
C2260 C2268 1.378 . S
C2261 C2260 1.367 . S
C2261 C2269 1.433 . S
C2262 H2258 0.929 . S
C2262 C2264 1.378 . S
C2262 C2266 1.350 . S
C2263 C2266 1.463 . S
C2263 C2268 1.350 . S
C2263 N2271 1.427 . S
C2264 H2255 0.930 . S
C2264 C2262 1.378 . S
C2264 C2265 1.367 . S
C2265 C2264 1.367 . S
C2265 C2267 1.433 . S
C2266 C2262 1.350 . S
C2266 C2263 1.463 . S
C2266 N2270 1.427 . S
C2267 H2257 0.929 . S
C2267 C2265 1.433 . S
C2267 N2270 1.384 . S
C2268 H2259 0.929 . S
C2268 C2260 1.378 . S
C2268 C2263 1.350 . S
C2269 H2256 0.929 . S
C2269 C2261 1.433 . S
C2269 N2271 1.384 . S
N2270 C2266 1.427 . S
N2270 C2267 1.384 . S
N2271 C2263 1.427 . S
N2271 C2269 1.384 . S
H2272 C2278 0.930 . S
H2273 C2282 0.930 . S
H2274 C2287 0.929 . S
H2275 C2285 0.929 . S
H2276 C2280 0.929 . S
H2277 C2286 0.929 . S
C2278 H2272 0.930 . S
C2278 C2279 1.367 . S
C2278 C2286 1.378 . S
C2279 C2278 1.367 . S
C2279 C2287 1.433 . S
C2280 H2276 0.929 . S
C2280 C2282 1.378 . S
C2280 C2284 1.350 . S
C2281 C2284 1.463 . S
C2281 C2286 1.350 . S
C2281 N2289 1.427 . S
C2282 H2273 0.930 . S
C2282 C2280 1.378 . S
C2282 C2283 1.367 . S
C2283 C2282 1.367 . S
C2283 C2285 1.433 . S
C2284 C2280 1.350 . S
C2284 C2281 1.463 . S
C2284 N2288 1.427 . S
C2285 H2275 0.929 . S
C2285 C2283 1.433 . S
C2285 N2288 1.384 . S
C2286 H2277 0.929 . S
C2286 C2278 1.378 . S
C2286 C2281 1.350 . S
C2287 H2274 0.929 . S
C2287 C2279 1.433 . S
C2287 N2289 1.384 . S
N2288 C2284 1.427 . S
N2288 C2285 1.384 . S
N2289 C2281 1.427 . S
N2289 C2287 1.384 . S
H2290 C2296 0.930 . S
H2291 C2300 0.930 . S
H2292 C2305 0.929 . S
H2293 C2303 0.929 . S
H2294 C2298 0.929 . S
H2295 C2304 0.929 . S
C2296 H2290 0.930 . S
C2296 C2297 1.367 . S
C2296 C2304 1.378 . S
C2297 C2296 1.367 . S
C2297 C2305 1.433 . S
C2298 H2294 0.929 . S
C2298 C2300 1.378 . S
C2298 C2302 1.350 . S
C2299 C2302 1.463 . S
C2299 C2304 1.350 . S
C2299 N2307 1.427 . S
C2300 H2291 0.930 . S
C2300 C2298 1.378 . S
C2300 C2301 1.367 . S
C2301 C2300 1.367 . S
C2301 C2303 1.433 . S
C2302 C2298 1.350 . S
C2302 C2299 1.463 . S
C2302 N2306 1.427 . S
C2303 H2293 0.929 . S
C2303 C2301 1.433 . S
C2303 N2306 1.384 . S
C2304 H2295 0.929 . S
C2304 C2296 1.378 . S
C2304 C2299 1.350 . S
C2305 H2292 0.929 . S
C2305 C2297 1.433 . S
C2305 N2307 1.384 . S
N2306 C2302 1.427 . S
N2306 C2303 1.384 . S
N2307 C2299 1.427 . S
N2307 C2305 1.384 . S
H2308 C2314 0.930 . S
H2309 C2318 0.930 . S
H2310 C2323 0.929 . S
H2311 C2321 0.929 1_556 S
H2312 C2316 0.929 . S
H2313 C2322 0.929 . S
C2314 H2308 0.930 . S
C2314 C2315 1.367 . S
C2314 C2322 1.378 . S
C2315 C2314 1.367 . S
C2315 C2323 1.433 . S
C2316 H2312 0.929 . S
C2316 C2318 1.378 . S
C2316 C2320 1.350 . S
C2317 C2320 1.463 . S
C2317 C2322 1.350 . S
C2317 N2325 1.427 . S
C2318 H2309 0.930 . S
C2318 C2316 1.378 . S
C2318 C2319 1.367 . S
C2319 C2318 1.367 . S
C2319 C2321 1.433 . S
C2320 C2316 1.350 . S
C2320 C2317 1.463 . S
C2320 N2324 1.427 . S
C2321 H2311 0.929 1_554 S
C2321 C2319 1.433 . S
C2321 N2324 1.384 . S
C2322 H2313 0.929 . S
C2322 C2314 1.378 . S
C2322 C2317 1.350 . S
C2323 H2310 0.929 . S
C2323 C2315 1.433 . S
C2323 N2325 1.384 . S
N2324 C2320 1.427 . S
N2324 C2321 1.384 . S
N2325 C2317 1.427 . S
N2325 C2323 1.384 . S
H2326 C2332 0.930 . S
H2327 C2336 0.930 . S
H2328 C2341 0.929 . S
H2329 C2339 0.929 . S
H2330 C2334 0.929 . S
H2331 C2340 0.929 . S
C2332 H2326 0.930 . S
C2332 C2333 1.367 . S
C2332 C2340 1.378 . S
C2333 C2332 1.367 . S
C2333 C2341 1.433 . S
C2334 H2330 0.929 . S
C2334 C2336 1.378 . S
C2334 C2338 1.350 . S
C2335 C2338 1.463 . S
C2335 C2340 1.350 . S
C2335 N2343 1.427 . S
C2336 H2327 0.930 . S
C2336 C2334 1.378 . S
C2336 C2337 1.367 . S
C2337 C2336 1.367 . S
C2337 C2339 1.433 . S
C2338 C2334 1.350 . S
C2338 C2335 1.463 . S
C2338 N2342 1.427 . S
C2339 H2329 0.929 . S
C2339 C2337 1.433 . S
C2339 N2342 1.384 . S
C2340 H2331 0.929 . S
C2340 C2332 1.378 . S
C2340 C2335 1.350 . S
C2341 H2328 0.929 . S
C2341 C2333 1.433 . S
C2341 N2343 1.384 . S
N2342 C2338 1.427 . S
N2342 C2339 1.384 . S
N2343 C2335 1.427 . S
N2343 C2341 1.384 . S
H2344 C2350 0.930 . S
H2345 C2354 0.930 . S
H2346 C2359 0.929 . S
H2347 C2357 0.929 . S
H2348 C2352 0.929 . S
H2349 C2358 0.929 . S
C2350 H2344 0.930 . S
C2350 C2351 1.367 . S
C2350 C2358 1.378 . S
C2351 C2350 1.367 . S
C2351 C2359 1.433 . S
C2352 H2348 0.929 . S
C2352 C2354 1.378 . S
C2352 C2356 1.350 . S
C2353 C2356 1.463 . S
C2353 C2358 1.350 . S
C2353 N2361 1.427 . S
C2354 H2345 0.930 . S
C2354 C2352 1.378 . S
C2354 C2355 1.367 . S
C2355 C2354 1.367 . S
C2355 C2357 1.433 . S
C2356 C2352 1.350 . S
C2356 C2353 1.463 . S
C2356 N2360 1.427 . S
C2357 H2347 0.929 . S
C2357 C2355 1.433 . S
C2357 N2360 1.384 . S
C2358 H2349 0.929 . S
C2358 C2350 1.378 . S
C2358 C2353 1.350 . S
C2359 H2346 0.929 . S
C2359 C2351 1.433 . S
C2359 N2361 1.384 . S
N2360 C2356 1.427 . S
N2360 C2357 1.384 . S
N2361 C2353 1.427 . S
N2361 C2359 1.384 . S
H2362 C2368 0.930 . S
H2363 C2372 0.930 . S
H2364 C2377 0.929 . S
H2365 C2375 0.929 . S
H2366 C2370 0.929 . S
H2367 C2376 0.929 . S
C2368 H2362 0.930 . S
C2368 C2369 1.367 . S
C2368 C2376 1.378 . S
C2369 C2368 1.367 . S
C2369 C2377 1.433 . S
C2370 H2366 0.929 . S
C2370 C2372 1.378 . S
C2370 C2374 1.350 . S
C2371 C2374 1.463 . S
C2371 C2376 1.350 . S
C2371 N2379 1.427 . S
C2372 H2363 0.930 . S
C2372 C2370 1.378 . S
C2372 C2373 1.367 . S
C2373 C2372 1.367 . S
C2373 C2375 1.433 . S
C2374 C2370 1.350 . S
C2374 C2371 1.463 . S
C2374 N2378 1.427 . S
C2375 H2365 0.929 . S
C2375 C2373 1.433 . S
C2375 N2378 1.384 . S
C2376 H2367 0.929 . S
C2376 C2368 1.378 . S
C2376 C2371 1.350 . S
C2377 H2364 0.929 . S
C2377 C2369 1.433 . S
C2377 N2379 1.384 . S
N2378 C2374 1.427 . S
N2378 C2375 1.384 . S
N2379 C2371 1.427 . S
N2379 C2377 1.384 . S
H2380 C2386 0.930 . S
H2381 C2390 0.930 . S
H2382 C2395 0.929 . S
H2383 C2393 0.929 . S
H2384 C2388 0.929 . S
H2385 C2394 0.929 . S
C2386 H2380 0.930 . S
C2386 C2387 1.367 . S
C2386 C2394 1.378 . S
C2387 C2386 1.367 . S
C2387 C2395 1.433 . S
C2388 H2384 0.929 . S
C2388 C2390 1.378 . S
C2388 C2392 1.350 . S
C2389 C2392 1.463 . S
C2389 C2394 1.350 . S
C2389 N2397 1.427 . S
C2390 H2381 0.930 . S
C2390 C2388 1.378 . S
C2390 C2391 1.367 . S
C2391 C2390 1.367 . S
C2391 C2393 1.433 . S
C2392 C2388 1.350 . S
C2392 C2389 1.463 . S
C2392 N2396 1.427 . S
C2393 H2383 0.929 . S
C2393 C2391 1.433 . S
C2393 N2396 1.384 . S
C2394 H2385 0.929 . S
C2394 C2386 1.378 . S
C2394 C2389 1.350 . S
C2395 H2382 0.929 . S
C2395 C2387 1.433 . S
C2395 N2397 1.384 . S
N2396 C2392 1.427 . S
N2396 C2393 1.384 . S
N2397 C2389 1.427 . S
N2397 C2395 1.384 . S
H2398 C2404 0.930 . S
H2399 C2408 0.930 . S
H2400 C2413 0.929 . S
H2401 C2411 0.929 . S
H2402 C2406 0.929 . S
H2403 C2412 0.929 . S
C2404 H2398 0.930 . S
C2404 C2405 1.367 . S
C2404 C2412 1.378 . S
C2405 C2404 1.367 . S
C2405 C2413 1.433 . S
C2406 H2402 0.929 . S
C2406 C2408 1.378 . S
C2406 C2410 1.350 . S
C2407 C2410 1.463 . S
C2407 C2412 1.350 . S
C2407 N2415 1.427 . S
C2408 H2399 0.930 . S
C2408 C2406 1.378 . S
C2408 C2409 1.367 . S
C2409 C2408 1.367 . S
C2409 C2411 1.433 . S
C2410 C2406 1.350 . S
C2410 C2407 1.463 . S
C2410 N2414 1.427 . S
C2411 H2401 0.929 . S
C2411 C2409 1.433 . S
C2411 N2414 1.384 . S
C2412 H2403 0.929 . S
C2412 C2404 1.378 . S
C2412 C2407 1.350 . S
C2413 H2400 0.929 . S
C2413 C2405 1.433 . S
C2413 N2415 1.384 . S
N2414 C2410 1.427 . S
N2414 C2411 1.384 . S
N2415 C2407 1.427 . S
N2415 C2413 1.384 . S
H2416 C2422 0.930 . S
H2417 C2426 0.930 . S
H2418 C2431 0.929 . S
H2419 C2429 0.929 . S
H2420 C2424 0.929 . S
H2421 C2430 0.929 . S
C2422 H2416 0.930 . S
C2422 C2423 1.367 . S
C2422 C2430 1.378 . S
C2423 C2422 1.367 . S
C2423 C2431 1.433 . S
C2424 H2420 0.929 . S
C2424 C2426 1.378 . S
C2424 C2428 1.350 . S
C2425 C2428 1.463 . S
C2425 C2430 1.350 . S
C2425 N2433 1.427 . S
C2426 H2417 0.930 . S
C2426 C2424 1.378 . S
C2426 C2427 1.367 . S
C2427 C2426 1.367 . S
C2427 C2429 1.433 . S
C2428 C2424 1.350 . S
C2428 C2425 1.463 . S
C2428 N2432 1.427 . S
C2429 H2419 0.929 . S
C2429 C2427 1.433 . S
C2429 N2432 1.384 . S
C2430 H2421 0.929 . S
C2430 C2422 1.378 . S
C2430 C2425 1.350 . S
C2431 H2418 0.929 . S
C2431 C2423 1.433 . S
C2431 N2433 1.384 . S
N2432 C2428 1.427 . S
N2432 C2429 1.384 . S
N2433 C2425 1.427 . S
N2433 C2431 1.384 . S
H2434 C2440 0.930 . S
H2435 C2444 0.930 . S
H2436 C2449 0.929 . S
H2437 C2447 0.929 . S
H2438 C2442 0.929 . S
H2439 C2448 0.929 . S
C2440 H2434 0.930 . S
C2440 C2441 1.367 . S
C2440 C2448 1.378 . S
C2441 C2440 1.367 . S
C2441 C2449 1.433 . S
C2442 H2438 0.929 . S
C2442 C2444 1.378 . S
C2442 C2446 1.350 . S
C2443 C2446 1.463 . S
C2443 C2448 1.350 . S
C2443 N2451 1.427 . S
C2444 H2435 0.930 . S
C2444 C2442 1.378 . S
C2444 C2445 1.367 . S
C2445 C2444 1.367 . S
C2445 C2447 1.433 . S
C2446 C2442 1.350 . S
C2446 C2443 1.463 . S
C2446 N2450 1.427 . S
C2447 H2437 0.929 . S
C2447 C2445 1.433 . S
C2447 N2450 1.384 . S
C2448 H2439 0.929 . S
C2448 C2440 1.378 . S
C2448 C2443 1.350 . S
C2449 H2436 0.929 . S
C2449 C2441 1.433 . S
C2449 N2451 1.384 . S
N2450 C2446 1.427 . S
N2450 C2447 1.384 . S
N2451 C2443 1.427 . S
N2451 C2449 1.384 . S
H2452 C2458 0.930 . S
H2453 C2462 0.930 . S
H2454 C2467 0.929 . S
H2455 C2465 0.929 . S
H2456 C2460 0.929 . S
H2457 C2466 0.929 . S
C2458 H2452 0.930 . S
C2458 C2459 1.367 . S
C2458 C2466 1.378 . S
C2459 C2458 1.367 . S
C2459 C2467 1.433 . S
C2460 H2456 0.929 . S
C2460 C2462 1.378 . S
C2460 C2464 1.350 . S
C2461 C2464 1.463 1_655 S
C2461 C2466 1.350 . S
C2461 N2469 1.427 . S
C2462 H2453 0.930 . S
C2462 C2460 1.378 . S
C2462 C2463 1.367 . S
C2463 C2462 1.367 . S
C2463 C2465 1.433 . S
C2464 C2460 1.350 . S
C2464 C2461 1.463 1_455 S
C2464 N2468 1.427 1_455 S
C2465 H2455 0.929 . S
C2465 C2463 1.433 . S
C2465 N2468 1.384 1_455 S
C2466 H2457 0.929 . S
C2466 C2458 1.378 . S
C2466 C2461 1.350 . S
C2467 H2454 0.929 . S
C2467 C2459 1.433 . S
C2467 N2469 1.384 . S
N2468 C2464 1.427 1_655 S
N2468 C2465 1.384 1_655 S
N2469 C2461 1.427 . S
N2469 C2467 1.384 . S
H2470 C2476 0.930 . S
H2471 C2480 0.930 . S
H2472 C2485 0.929 . S
H2473 C2483 0.929 . S
H2474 C2478 0.929 . S
H2475 C2484 0.929 . S
C2476 H2470 0.930 . S
C2476 C2477 1.367 . S
C2476 C2484 1.378 . S
C2477 C2476 1.367 . S
C2477 C2485 1.433 . S
C2478 H2474 0.929 . S
C2478 C2480 1.378 . S
C2478 C2482 1.350 . S
C2479 C2482 1.463 . S
C2479 C2484 1.350 . S
C2479 N2487 1.427 . S
C2480 H2471 0.930 . S
C2480 C2478 1.378 . S
C2480 C2481 1.367 . S
C2481 C2480 1.367 . S
C2481 C2483 1.433 . S
C2482 C2478 1.350 . S
C2482 C2479 1.463 . S
C2482 N2486 1.427 . S
C2483 H2473 0.929 . S
C2483 C2481 1.433 . S
C2483 N2486 1.384 . S
C2484 H2475 0.929 . S
C2484 C2476 1.378 . S
C2484 C2479 1.350 . S
C2485 H2472 0.929 . S
C2485 C2477 1.433 . S
C2485 N2487 1.384 . S
N2486 C2482 1.427 . S
N2486 C2483 1.384 . S
N2487 C2479 1.427 . S
N2487 C2485 1.384 . S
H2488 C2494 0.930 . S
H2489 C2498 0.930 . S
H2490 C2503 0.929 . S
H2491 C2501 0.929 . S
H2492 C2496 0.929 . S
H2493 C2502 0.929 . S
C2494 H2488 0.930 . S
C2494 C2495 1.367 . S
C2494 C2502 1.378 . S
C2495 C2494 1.367 . S
C2495 C2503 1.433 . S
C2496 H2492 0.929 . S
C2496 C2498 1.378 . S
C2496 C2500 1.350 . S
C2497 C2500 1.463 . S
C2497 C2502 1.350 . S
C2497 N2505 1.427 . S
C2498 H2489 0.930 . S
C2498 C2496 1.378 . S
C2498 C2499 1.367 . S
C2499 C2498 1.367 . S
C2499 C2501 1.433 . S
C2500 C2496 1.350 . S
C2500 C2497 1.463 . S
C2500 N2504 1.427 . S
C2501 H2491 0.929 . S
C2501 C2499 1.433 . S
C2501 N2504 1.384 . S
C2502 H2493 0.929 . S
C2502 C2494 1.378 . S
C2502 C2497 1.350 . S
C2503 H2490 0.929 . S
C2503 C2495 1.433 . S
C2503 N2505 1.384 . S
N2504 C2500 1.427 . S
N2504 C2501 1.384 . S
N2505 C2497 1.427 . S
N2505 C2503 1.384 . S
H2506 C2512 0.930 . S
H2507 C2516 0.930 . S
H2508 C2521 0.929 . S
H2509 C2519 0.929 . S
H2510 C2514 0.929 . S
H2511 C2520 0.929 . S
C2512 H2506 0.930 . S
C2512 C2513 1.367 . S
C2512 C2520 1.378 . S
C2513 C2512 1.367 . S
C2513 C2521 1.433 . S
C2514 H2510 0.929 . S
C2514 C2516 1.378 . S
C2514 C2518 1.350 . S
C2515 C2518 1.463 . S
C2515 C2520 1.350 . S
C2515 N2523 1.427 . S
C2516 H2507 0.930 . S
C2516 C2514 1.378 . S
C2516 C2517 1.367 . S
C2517 C2516 1.367 . S
C2517 C2519 1.433 . S
C2518 C2514 1.350 . S
C2518 C2515 1.463 . S
C2518 N2522 1.427 . S
C2519 H2509 0.929 . S
C2519 C2517 1.433 . S
C2519 N2522 1.384 . S
C2520 H2511 0.929 . S
C2520 C2512 1.378 . S
C2520 C2515 1.350 . S
C2521 H2508 0.929 . S
C2521 C2513 1.433 . S
C2521 N2523 1.384 . S
N2522 C2518 1.427 . S
N2522 C2519 1.384 . S
N2523 C2515 1.427 . S
N2523 C2521 1.384 . S
H2524 C2530 0.930 . S
H2525 C2534 0.930 1_455 S
H2526 C2539 0.929 . S
H2527 C2537 0.929 . S
H2528 C2532 0.929 . S
H2529 C2538 0.929 . S
C2530 H2524 0.930 . S
C2530 C2531 1.367 . S
C2530 C2538 1.378 . S
C2531 C2530 1.367 . S
C2531 C2539 1.433 . S
C2532 H2528 0.929 . S
C2532 C2534 1.378 . S
C2532 C2536 1.350 . S
C2533 C2536 1.463 . S
C2533 C2538 1.350 . S
C2533 N2541 1.427 . S
C2534 H2525 0.930 1_655 S
C2534 C2532 1.378 . S
C2534 C2535 1.367 . S
C2535 C2534 1.367 . S
C2535 C2537 1.433 . S
C2536 C2532 1.350 . S
C2536 C2533 1.463 . S
C2536 N2540 1.427 . S
C2537 H2527 0.929 . S
C2537 C2535 1.433 . S
C2537 N2540 1.384 . S
C2538 H2529 0.929 . S
C2538 C2530 1.378 . S
C2538 C2533 1.350 . S
C2539 H2526 0.929 . S
C2539 C2531 1.433 . S
C2539 N2541 1.384 . S
N2540 C2536 1.427 . S
N2540 C2537 1.384 . S
N2541 C2533 1.427 . S
N2541 C2539 1.384 . S
H2542 C2548 0.930 . S
H2543 C2552 0.930 . S
H2544 C2557 0.929 . S
H2545 C2555 0.929 . S
H2546 C2550 0.929 . S
H2547 C2556 0.929 . S
C2548 H2542 0.930 . S
C2548 C2549 1.367 . S
C2548 C2556 1.378 . S
C2549 C2548 1.367 . S
C2549 C2557 1.433 . S
C2550 H2546 0.929 . S
C2550 C2552 1.378 . S
C2550 C2554 1.350 . S
C2551 C2554 1.463 . S
C2551 C2556 1.350 . S
C2551 N2559 1.427 . S
C2552 H2543 0.930 . S
C2552 C2550 1.378 . S
C2552 C2553 1.367 . S
C2553 C2552 1.367 . S
C2553 C2555 1.433 . S
C2554 C2550 1.350 . S
C2554 C2551 1.463 . S
C2554 N2558 1.427 . S
C2555 H2545 0.929 . S
C2555 C2553 1.433 . S
C2555 N2558 1.384 . S
C2556 H2547 0.929 . S
C2556 C2548 1.378 . S
C2556 C2551 1.350 . S
C2557 H2544 0.929 . S
C2557 C2549 1.433 . S
C2557 N2559 1.384 . S
N2558 C2554 1.427 . S
N2558 C2555 1.384 . S
N2559 C2551 1.427 . S
N2559 C2557 1.384 . S
H2560 C2566 0.930 . S
H2561 C2570 0.930 . S
H2562 C2575 0.929 . S
H2563 C2573 0.929 . S
H2564 C2568 0.929 . S
H2565 C2574 0.929 . S
C2566 H2560 0.930 . S
C2566 C2567 1.367 . S
C2566 C2574 1.378 . S
C2567 C2566 1.367 . S
C2567 C2575 1.433 . S
C2568 H2564 0.929 . S
C2568 C2570 1.378 . S
C2568 C2572 1.350 . S
C2569 C2572 1.463 . S
C2569 C2574 1.350 . S
C2569 N2577 1.427 . S
C2570 H2561 0.930 . S
C2570 C2568 1.378 . S
C2570 C2571 1.367 . S
C2571 C2570 1.367 . S
C2571 C2573 1.433 . S
C2572 C2568 1.350 . S
C2572 C2569 1.463 . S
C2572 N2576 1.427 . S
C2573 H2563 0.929 . S
C2573 C2571 1.433 . S
C2573 N2576 1.384 . S
C2574 H2565 0.929 . S
C2574 C2566 1.378 . S
C2574 C2569 1.350 . S
C2575 H2562 0.929 . S
C2575 C2567 1.433 . S
C2575 N2577 1.384 . S
N2576 C2572 1.427 . S
N2576 C2573 1.384 . S
N2577 C2569 1.427 . S
N2577 C2575 1.384 . S
H2578 C2584 0.930 . S
H2579 C2588 0.942 . S
H2580 C2593 0.929 . S
H2581 C2591 0.929 . S
H2582 C2586 0.929 . S
H2583 C2592 0.929 . S
C2584 H2578 0.930 . S
C2584 C2585 1.367 . S
C2584 C2592 1.378 . S
C2585 C2584 1.367 . S
C2585 C2593 1.433 . S
C2586 H2582 0.929 . S
C2586 C2588 1.373 1_565 S
C2586 C2590 1.350 . S
C2587 C2590 1.463 . S
C2587 C2592 1.350 . S
C2587 N2595 1.427 . S
C2588 H2579 0.942 . S
C2588 C2586 1.373 1_545 S
C2588 C2589 1.361 1_545 S
C2589 C2588 1.361 1_565 S
C2589 C2591 1.433 . S
C2590 C2586 1.350 . S
C2590 C2587 1.463 . S
C2590 N2594 1.427 . S
C2591 H2581 0.929 . S
C2591 C2589 1.433 . S
C2591 N2594 1.384 . S
C2592 H2583 0.929 . S
C2592 C2584 1.378 . S
C2592 C2587 1.350 . S
C2593 H2580 0.929 . S
C2593 C2585 1.433 . S
C2593 N2595 1.384 . S
N2594 C2590 1.427 . S
N2594 C2591 1.384 . S
N2595 C2587 1.427 . S
N2595 C2593 1.384 . S
H2596 C2602 0.930 . S
H2597 C2606 0.930 . S
H2598 C2611 0.929 . S
H2599 C2609 0.929 . S
H2600 C2604 0.929 . S
H2601 C2610 0.929 . S
C2602 H2596 0.930 . S
C2602 C2603 1.367 . S
C2602 C2610 1.378 . S
C2603 C2602 1.367 . S
C2603 C2611 1.433 . S
C2604 H2600 0.929 . S
C2604 C2606 1.378 . S
C2604 C2608 1.350 . S
C2605 C2608 1.463 . S
C2605 C2610 1.350 . S
C2605 N2613 1.427 . S
C2606 H2597 0.930 . S
C2606 C2604 1.378 . S
C2606 C2607 1.367 . S
C2607 C2606 1.367 . S
C2607 C2609 1.433 . S
C2608 C2604 1.350 . S
C2608 C2605 1.463 . S
C2608 N2612 1.427 . S
C2609 H2599 0.929 . S
C2609 C2607 1.433 . S
C2609 N2612 1.384 . S
C2610 H2601 0.929 . S
C2610 C2602 1.378 . S
C2610 C2605 1.350 . S
C2611 H2598 0.929 . S
C2611 C2603 1.433 . S
C2611 N2613 1.384 . S
N2612 C2608 1.427 . S
N2612 C2609 1.384 . S
N2613 C2605 1.427 . S
N2613 C2611 1.384 . S
H2614 C2620 0.930 . S
H2615 C2624 0.930 . S
H2616 C2629 0.929 . S
H2617 C2627 0.929 . S
H2618 C2622 0.929 . S
H2619 C2628 0.929 . S
C2620 H2614 0.930 . S
C2620 C2621 1.367 1_556 S
C2620 C2628 1.378 . S
C2621 C2620 1.367 1_554 S
C2621 C2629 1.433 . S
C2622 H2618 0.929 . S
C2622 C2624 1.378 . S
C2622 C2626 1.350 . S
C2623 C2626 1.463 . S
C2623 C2628 1.350 1_554 S
C2623 N2631 1.427 . S
C2624 H2615 0.930 . S
C2624 C2622 1.378 . S
C2624 C2625 1.367 . S
C2625 C2624 1.367 . S
C2625 C2627 1.433 1_554 S
C2626 C2622 1.350 . S
C2626 C2623 1.463 . S
C2626 N2630 1.427 1_554 S
C2627 H2617 0.929 . S
C2627 C2625 1.433 1_556 S
C2627 N2630 1.384 . S
C2628 H2619 0.929 . S
C2628 C2620 1.378 . S
C2628 C2623 1.350 1_556 S
C2629 H2616 0.929 . S
C2629 C2621 1.433 . S
C2629 N2631 1.384 . S
N2630 C2626 1.427 1_556 S
N2630 C2627 1.384 . S
N2631 C2623 1.427 . S
N2631 C2629 1.384 . S
H2632 C2638 0.930 . S
H2633 C2642 0.930 . S
H2634 C2647 0.929 . S
H2635 C2645 0.929 . S
H2636 C2640 0.929 . S
H2637 C2646 0.929 . S
C2638 H2632 0.930 . S
C2638 C2639 1.367 . S
C2638 C2646 1.378 . S
C2639 C2638 1.367 . S
C2639 C2647 1.433 . S
C2640 H2636 0.929 . S
C2640 C2642 1.378 . S
C2640 C2644 1.350 . S
C2641 C2644 1.463 . S
C2641 C2646 1.350 . S
C2641 N2649 1.427 . S
C2642 H2633 0.930 . S
C2642 C2640 1.378 . S
C2642 C2643 1.367 . S
C2643 C2642 1.367 . S
C2643 C2645 1.433 . S
C2644 C2640 1.350 . S
C2644 C2641 1.463 . S
C2644 N2648 1.427 . S
C2645 H2635 0.929 . S
C2645 C2643 1.433 . S
C2645 N2648 1.384 . S
C2646 H2637 0.929 . S
C2646 C2638 1.378 . S
C2646 C2641 1.350 . S
C2647 H2634 0.929 . S
C2647 C2639 1.433 . S
C2647 N2649 1.384 . S
N2648 C2644 1.427 . S
N2648 C2645 1.384 . S
N2649 C2641 1.427 . S
N2649 C2647 1.384 . S
H2650 C2656 0.930 . S
H2651 C2660 0.930 . S
H2652 C2665 0.929 . S
H2653 C2663 0.929 . S
H2654 C2658 0.929 . S
H2655 C2664 0.929 . S
C2656 H2650 0.930 . S
C2656 C2657 1.367 . S
C2656 C2664 1.378 1_554 S
C2657 C2656 1.367 . S
C2657 C2665 1.433 . S
C2658 H2654 0.929 . S
C2658 C2660 1.378 1_554 S
C2658 C2662 1.350 1_554 S
C2659 C2662 1.463 1_554 S
C2659 C2664 1.350 1_554 S
C2659 N2667 1.427 . S
C2660 H2651 0.930 . S
C2660 C2658 1.378 1_556 S
C2660 C2661 1.367 . S
C2661 C2660 1.367 . S
C2661 C2663 1.433 . S
C2662 C2658 1.350 1_556 S
C2662 C2659 1.463 1_556 S
C2662 N2666 1.427 . S
C2663 H2653 0.929 . S
C2663 C2661 1.433 . S
C2663 N2666 1.384 . S
C2664 H2655 0.929 . S
C2664 C2656 1.378 1_556 S
C2664 C2659 1.350 1_556 S
C2665 H2652 0.929 . S
C2665 C2657 1.433 . S
C2665 N2667 1.384 . S
N2666 C2662 1.427 . S
N2666 C2663 1.384 . S
N2667 C2659 1.427 . S
N2667 C2665 1.384 . S
H2668 C2674 0.930 . S
H2669 C2678 0.930 . S
H2670 C2683 0.929 . S
H2671 C2681 0.929 . S
H2672 C2676 0.929 . S
H2673 C2682 0.929 . S
C2674 H2668 0.930 . S
C2674 C2675 1.367 . S
C2674 C2682 1.378 . S
C2675 C2674 1.367 . S
C2675 C2683 1.433 . S
C2676 H2672 0.929 . S
C2676 C2678 1.378 . S
C2676 C2680 1.350 . S
C2677 C2680 1.463 . S
C2677 C2682 1.350 . S
C2677 N2685 1.427 . S
C2678 H2669 0.930 . S
C2678 C2676 1.378 . S
C2678 C2679 1.367 . S
C2679 C2678 1.367 . S
C2679 C2681 1.433 . S
C2680 C2676 1.350 . S
C2680 C2677 1.463 . S
C2680 N2684 1.427 . S
C2681 H2671 0.929 . S
C2681 C2679 1.433 . S
C2681 N2684 1.384 . S
C2682 H2673 0.929 . S
C2682 C2674 1.378 . S
C2682 C2677 1.350 . S
C2683 H2670 0.929 . S
C2683 C2675 1.433 . S
C2683 N2685 1.384 . S
N2684 C2680 1.427 . S
N2684 C2681 1.384 . S
N2685 C2677 1.427 . S
N2685 C2683 1.384 . S
H2686 C2692 0.930 . S
H2687 C2696 0.930 . S
H2688 C2701 0.929 . S
H2689 C2699 0.929 . S
H2690 C2694 0.929 . S
H2691 C2700 0.929 . S
C2692 H2686 0.930 . S
C2692 C2693 1.367 . S
C2692 C2700 1.378 . S
C2693 C2692 1.367 . S
C2693 C2701 1.433 . S
C2694 H2690 0.929 . S
C2694 C2696 1.378 . S
C2694 C2698 1.350 . S
C2695 C2698 1.463 . S
C2695 C2700 1.350 . S
C2695 N2703 1.427 . S
C2696 H2687 0.930 . S
C2696 C2694 1.378 . S
C2696 C2697 1.367 . S
C2697 C2696 1.367 . S
C2697 C2699 1.433 . S
C2698 C2694 1.350 . S
C2698 C2695 1.463 . S
C2698 N2702 1.427 . S
C2699 H2689 0.929 . S
C2699 C2697 1.433 . S
C2699 N2702 1.384 . S
C2700 H2691 0.929 . S
C2700 C2692 1.378 . S
C2700 C2695 1.350 . S
C2701 H2688 0.929 . S
C2701 C2693 1.433 . S
C2701 N2703 1.384 . S
N2702 C2698 1.427 . S
N2702 C2699 1.384 . S
N2703 C2695 1.427 . S
N2703 C2701 1.384 . S
C983 C111 2.221 . S
C987 C346 2.205 1_556 S
C1001 C64 2.107 . S
C1005 C394 2.177 . S
C1019 C77 1.134 . S
C1023 C426 1.099 . S
C1041 C471 1.178 . S
C1037 C95 1.194 . S
C1055 C25 1.174 . S
C1059 C511 1.125 . S
C1077 C542 0.496 . S
C1073 C36 0.547 . S
C1095 C594 1.339 . S
C1091 C50 1.244 . S
C1109 C11 1.782 . S
C1113 C626 1.687 . S
C1131 C354 2.430 . S
C1127 C237 2.306 . S
C1145 C245 0.504 . S
C1149 C391 0.543 . S
C1167 C434 1.147 . S
C1163 C279 1.081 . S
C1185 C466 1.285 . S
C1181 C175 1.294 . S
C1199 C231 1.760 . S
C1203 C506 1.751 . S
C1221 C545 1.355 . S
C1217 C251 1.289 . S
C1239 C591 0.430 . S
C1235 C273 0.326 . S
C1257 C634 2.055 . S
C1253 C181 2.014 . S
C1275 C351 1.393 1_565 S
C1271 C165 1.442 . S
C1289 C288 1.886 1_556 S
C1293 C674 1.942 . S
C1311 C715 2.572 . S
C1307 C333 2.640 . S
C1329 C746 0.583 . S
C1325 C316 0.572 . S
C1343 C123 1.463 . S
C1347 C631 1.392 . S
C1361 C137 1.479 . S
C1365 C431 1.435 . S
C1379 C330 2.178 . S
C1383 C794 2.236 . S
C1401 C826 0.570 . S
C1397 C302 0.481 . S
C1419 C355 2.317 . S
C1415 C63 2.356 . S
C1437 C825 2.199 . S
C1433 C106 2.203 . S
C1451 C97 1.211 . S
C1455 C435 1.219 . S
C1469 C81 1.246 . S
C1473 C782 1.250 . S
C1491 C502 1.215 . S
C1487 C13 1.122 . S
C1505 C55 0.592 . S
C1509 C711 0.500 . S
C1527 C585 1.357 . S
C1523 C35 1.311 . S
C1545 C875 1.862 . S
C1541 C21 1.925 . S
C1563 C345 2.532 . S
C1559 C147 2.546 . S
C1581 C822 0.506 . S
C1577 C321 0.603 . S
C1595 C119 1.233 . S
C1599 C425 1.216 . S
C1613 C293 1.388 . S
C1617 C795 1.426 . S
C1631 C153 1.801 1_565 S
C1635 C515 1.949 . S
C1653 C714 1.379 . S
C1649 C315 1.405 . S
C1667 C125 0.452 1_545 S
C1671 C582 0.364 . S
C1685 C287 2.181 . S
C1689 C865 2.151 . S
C1703 C193 1.450 . S
C1707 C342 1.446 . S
C1721 C176 1.953 . S
C1725 C665 1.962 . S
C1739 C263 2.593 . S
C1743 C546 2.516 . S
C1757 C246 0.777 . S
C1761 C755 0.813 . S
C1779 C862 1.400 . S
C1775 C277 1.406 . S
C1793 C221 1.469 . S
C1797 C422 1.472 . S
C1815 C465 2.286 . S
C1811 C260 2.273 . S
C1833 C395 0.661 . S
C1829 C204 0.623 . S
C1847 C83 2.221 . S
C1851 C906 2.205 . S
C1869 C834 2.178 . S
C1865 C92 2.109 . S
C1883 C105 1.131 . S
C1887 C946 1.109 . S
C1901 C67 1.193 . S
C1905 C791 1.184 . S
C1919 C53 1.174 . S
C1923 C671 1.132 . S
C1941 C702 0.501 . S
C1937 C8 0.527 . S
C1959 C754 1.336 . S
C1955 C22 1.233 . S
C1977 C866 1.700 . S
C1973 C39 1.784 . S
C1995 C914 2.429 . S
C1991 C265 2.311 . S
C2009 C189 0.484 . S
C2013 C831 0.534 . S
C2031 C954 1.146 . S
C2027 C209 1.081 . S
C2049 C786 1.274 . S
C2045 C217 1.299 . S
C2067 C666 1.751 . S
C2063 C259 1.759 . S
C2081 C195 1.302 . S
C2085 C705 1.355 . S
C2103 C751 0.393 . S
C2099 C203 0.308 . S
C2117 C223 2.017 . S
C2121 C874 2.052 . S
C2139 C911 1.384 . S
C2135 C319 1.438 . S
C2153 C134 1.887 . S
C2157 C514 1.943 . S
C2175 C555 2.572 . S
C2171 C151 2.640 . S
C2193 C586 0.558 . S
C2189 C162 0.572 . S
C2211 C871 1.378 . S
C2207 C305 1.455 . S
C2225 C291 1.480 . S
C2229 C951 1.445 . S
C2247 C474 2.236 . S
C2243 C148 2.177 . S
C2265 C386 0.567 . S
C2261 C120 0.478 . S
C2279 C91 2.356 . S
C2283 C915 2.317 . S
C2301 C385 2.200 . S
C2297 C78 2.202 . S
C2315 C69 1.196 . S
C2319 C955 1.213 . S
C2333 C109 1.248 . S
C2337 C462 1.250 . S
C2351 C41 1.111 . S
C2355 C662 1.214 . S
C2373 C551 0.505 . S
C2369 C27 0.566 . S
C2387 C7 1.304 . S
C2391 C745 1.353 . S
C2405 C49 1.918 . S
C2409 C635 1.849 . S
C2427 C905 2.535 . S
C2423 C329 2.545 . S
C2441 C167 0.605 . S
C2445 C382 0.513 . S
C2463 C945 1.217 . S
C2459 C301 1.231 . S
C2477 C139 1.389 . S
C2481 C475 1.425 . S
C2495 C335 1.792 . S
C2499 C675 1.947 . S
C2517 C554 1.386 . S
C2513 C161 1.402 . S
C2531 C307 0.455 . S
C2535 C742 0.347 . S
C2553 C625 2.150 . S
C2549 C133 2.181 . S
C2571 C902 1.442 . S
C2567 C249 1.438 . S
C2589 C505 1.962 1_665 S
C2585 C218 1.948 . S
C2603 C235 2.595 . S
C2607 C706 2.519 . S
C2625 C595 0.801 . S
C2621 C190 0.812 . S
C2639 C207 1.423 . S
C2643 C622 1.414 . S
C2657 C179 1.461 . S
C2661 C942 1.463 . S
C2679 C785 2.287 . S
C2675 C232 2.273 1_565 S
C2697 C835 0.654 . S
C2693 C274 0.625 . S
