# Generated by pormake.
# Topology gar, (4,6)-cn, num edge types: 1
# Building blocks:
#     Node 0, Type 0, BuildingBlock: QUQFOY_clean_sbu_1, # of connection points: 4
#     Node 1, Type 0, BuildingBlock: QUQFOY_clean_sbu_1, # of connection points: 4
#     Node 2, Type 0, BuildingBlock: QUQFOY_clean_sbu_1, # of connection points: 4
#     Node 3, Type 0, BuildingBlock: QUQFOY_clean_sbu_1, # of connection points: 4
#     Node 4, Type 0, BuildingBlock: QUQFOY_clean_sbu_1, # of connection points: 4
#     Node 5, Type 0, BuildingBlock: QUQFOY_clean_sbu_1, # of connection points: 4
#     Node 6, Type 0, BuildingBlock: QUQFOY_clean_sbu_1, # of connection points: 4
#     Node 7, Type 0, BuildingBlock: QUQFOY_clean_sbu_1, # of connection points: 4
#     Node 8, Type 0, BuildingBlock: QUQFOY_clean_sbu_1, # of connection points: 4
#     Node 9, Type 0, BuildingBlock: QUQFOY_clean_sbu_1, # of connection points: 4
#     Node 10, Type 0, BuildingBlock: QUQFOY_clean_sbu_1, # of connection points: 4
#     Node 11, Type 0, BuildingBlock: QUQFOY_clean_sbu_1, # of connection points: 4
#     Node 12, Type 0, BuildingBlock: QUQFOY_clean_sbu_1, # of connection points: 4
#     Node 13, Type 0, BuildingBlock: QUQFOY_clean_sbu_1, # of connection points: 4
#     Node 14, Type 0, BuildingBlock: QUQFOY_clean_sbu_1, # of connection points: 4
#     Node 15, Type 0, BuildingBlock: QUQFOY_clean_sbu_1, # of connection points: 4
#     Node 16, Type 0, BuildingBlock: QUQFOY_clean_sbu_1, # of connection points: 4
#     Node 17, Type 0, BuildingBlock: QUQFOY_clean_sbu_1, # of connection points: 4
#     Node 18, Type 0, BuildingBlock: QUQFOY_clean_sbu_1, # of connection points: 4
#     Node 19, Type 0, BuildingBlock: QUQFOY_clean_sbu_1, # of connection points: 4
#     Node 20, Type 0, BuildingBlock: QUQFOY_clean_sbu_1, # of connection points: 4
#     Node 21, Type 0, BuildingBlock: QUQFOY_clean_sbu_1, # of connection points: 4
#     Node 22, Type 0, BuildingBlock: QUQFOY_clean_sbu_1, # of connection points: 4
#     Node 23, Type 0, BuildingBlock: QUQFOY_clean_sbu_1, # of connection points: 4
#     Node 24, Type 1, BuildingBlock: CUKXOW_clean_sbu_0, # of connection points: 6
#     Node 25, Type 1, BuildingBlock: CUKXOW_clean_sbu_0, # of connection points: 6
#     Node 26, Type 1, BuildingBlock: CUKXOW_clean_sbu_0, # of connection points: 6
#     Node 27, Type 1, BuildingBlock: CUKXOW_clean_sbu_0, # of connection points: 6
#     Node 28, Type 1, BuildingBlock: CUKXOW_clean_sbu_0, # of connection points: 6
#     Node 29, Type 1, BuildingBlock: CUKXOW_clean_sbu_0, # of connection points: 6
#     Node 30, Type 1, BuildingBlock: CUKXOW_clean_sbu_0, # of connection points: 6
#     Node 31, Type 1, BuildingBlock: CUKXOW_clean_sbu_0, # of connection points: 6
#     Node 32, Type 1, BuildingBlock: CUKXOW_clean_sbu_0, # of connection points: 6
#     Node 33, Type 1, BuildingBlock: CUKXOW_clean_sbu_0, # of connection points: 6
#     Node 34, Type 1, BuildingBlock: CUKXOW_clean_sbu_0, # of connection points: 6
#     Node 35, Type 1, BuildingBlock: CUKXOW_clean_sbu_0, # of connection points: 6
#     Node 36, Type 1, BuildingBlock: CUKXOW_clean_sbu_0, # of connection points: 6
#     Node 37, Type 1, BuildingBlock: CUKXOW_clean_sbu_0, # of connection points: 6
#     Node 38, Type 1, BuildingBlock: CUKXOW_clean_sbu_0, # of connection points: 6
#     Node 39, Type 1, BuildingBlock: CUKXOW_clean_sbu_0, # of connection points: 6
#     Edge 40, Type (0, 1), BuildingBlock: TEMPAE_clean_linker_10, # of connection points: 2
#     Edge 41, Type (0, 1), BuildingBlock: TEMPAE_clean_linker_10, # of connection points: 2
#     Edge 42, Type (0, 1), BuildingBlock: TEMPAE_clean_linker_10, # of connection points: 2
#     Edge 43, Type (0, 1), BuildingBlock: TEMPAE_clean_linker_10, # of connection points: 2
#     Edge 44, Type (0, 1), BuildingBlock: TEMPAE_clean_linker_10, # of connection points: 2
#     Edge 45, Type (0, 1), BuildingBlock: TEMPAE_clean_linker_10, # of connection points: 2
#     Edge 46, Type (0, 1), BuildingBlock: TEMPAE_clean_linker_10, # of connection points: 2
#     Edge 47, Type (0, 1), BuildingBlock: TEMPAE_clean_linker_10, # of connection points: 2
#     Edge 48, Type (0, 1), BuildingBlock: TEMPAE_clean_linker_10, # of connection points: 2
#     Edge 49, Type (0, 1), BuildingBlock: TEMPAE_clean_linker_10, # of connection points: 2
#     Edge 50, Type (0, 1), BuildingBlock: TEMPAE_clean_linker_10, # of connection points: 2
#     Edge 51, Type (0, 1), BuildingBlock: TEMPAE_clean_linker_10, # of connection points: 2
#     Edge 52, Type (0, 1), BuildingBlock: TEMPAE_clean_linker_10, # of connection points: 2
#     Edge 53, Type (0, 1), BuildingBlock: TEMPAE_clean_linker_10, # of connection points: 2
#     Edge 54, Type (0, 1), BuildingBlock: TEMPAE_clean_linker_10, # of connection points: 2
#     Edge 55, Type (0, 1), BuildingBlock: TEMPAE_clean_linker_10, # of connection points: 2
#     Edge 56, Type (0, 1), BuildingBlock: TEMPAE_clean_linker_10, # of connection points: 2
#     Edge 57, Type (0, 1), BuildingBlock: TEMPAE_clean_linker_10, # of connection points: 2
#     Edge 58, Type (0, 1), BuildingBlock: TEMPAE_clean_linker_10, # of connection points: 2
#     Edge 59, Type (0, 1), BuildingBlock: TEMPAE_clean_linker_10, # of connection points: 2
#     Edge 60, Type (0, 1), BuildingBlock: TEMPAE_clean_linker_10, # of connection points: 2
#     Edge 61, Type (0, 1), BuildingBlock: TEMPAE_clean_linker_10, # of connection points: 2
#     Edge 62, Type (0, 1), BuildingBlock: TEMPAE_clean_linker_10, # of connection points: 2
#     Edge 63, Type (0, 1), BuildingBlock: TEMPAE_clean_linker_10, # of connection points: 2
#     Edge 64, Type (0, 1), BuildingBlock: TEMPAE_clean_linker_10, # of connection points: 2
#     Edge 65, Type (0, 1), BuildingBlock: TEMPAE_clean_linker_10, # of connection points: 2
#     Edge 66, Type (0, 1), BuildingBlock: TEMPAE_clean_linker_10, # of connection points: 2
#     Edge 67, Type (0, 1), BuildingBlock: TEMPAE_clean_linker_10, # of connection points: 2
#     Edge 68, Type (0, 1), BuildingBlock: TEMPAE_clean_linker_10, # of connection points: 2
#     Edge 69, Type (0, 1), BuildingBlock: TEMPAE_clean_linker_10, # of connection points: 2
#     Edge 70, Type (0, 1), BuildingBlock: TEMPAE_clean_linker_10, # of connection points: 2
#     Edge 71, Type (0, 1), BuildingBlock: TEMPAE_clean_linker_10, # of connection points: 2
#     Edge 72, Type (0, 1), BuildingBlock: TEMPAE_clean_linker_10, # of connection points: 2
#     Edge 73, Type (0, 1), BuildingBlock: TEMPAE_clean_linker_10, # of connection points: 2
#     Edge 74, Type (0, 1), BuildingBlock: TEMPAE_clean_linker_10, # of connection points: 2
#     Edge 75, Type (0, 1), BuildingBlock: TEMPAE_clean_linker_10, # of connection points: 2
#     Edge 76, Type (0, 1), BuildingBlock: TEMPAE_clean_linker_10, # of connection points: 2
#     Edge 77, Type (0, 1), BuildingBlock: TEMPAE_clean_linker_10, # of connection points: 2
#     Edge 78, Type (0, 1), BuildingBlock: TEMPAE_clean_linker_10, # of connection points: 2
#     Edge 79, Type (0, 1), BuildingBlock: TEMPAE_clean_linker_10, # of connection points: 2
#     Edge 80, Type (0, 1), BuildingBlock: TEMPAE_clean_linker_10, # of connection points: 2
#     Edge 81, Type (0, 1), BuildingBlock: TEMPAE_clean_linker_10, # of connection points: 2
#     Edge 82, Type (0, 1), BuildingBlock: TEMPAE_clean_linker_10, # of connection points: 2
#     Edge 83, Type (0, 1), BuildingBlock: TEMPAE_clean_linker_10, # of connection points: 2
#     Edge 84, Type (0, 1), BuildingBlock: TEMPAE_clean_linker_10, # of connection points: 2
#     Edge 85, Type (0, 1), BuildingBlock: TEMPAE_clean_linker_10, # of connection points: 2
#     Edge 86, Type (0, 1), BuildingBlock: TEMPAE_clean_linker_10, # of connection points: 2
#     Edge 87, Type (0, 1), BuildingBlock: TEMPAE_clean_linker_10, # of connection points: 2
#     Edge 88, Type (0, 1), BuildingBlock: TEMPAE_clean_linker_10, # of connection points: 2
#     Edge 89, Type (0, 1), BuildingBlock: TEMPAE_clean_linker_10, # of connection points: 2
#     Edge 90, Type (0, 1), BuildingBlock: TEMPAE_clean_linker_10, # of connection points: 2
#     Edge 91, Type (0, 1), BuildingBlock: TEMPAE_clean_linker_10, # of connection points: 2
#     Edge 92, Type (0, 1), BuildingBlock: TEMPAE_clean_linker_10, # of connection points: 2
#     Edge 93, Type (0, 1), BuildingBlock: TEMPAE_clean_linker_10, # of connection points: 2
#     Edge 94, Type (0, 1), BuildingBlock: TEMPAE_clean_linker_10, # of connection points: 2
#     Edge 95, Type (0, 1), BuildingBlock: TEMPAE_clean_linker_10, # of connection points: 2
#     Edge 96, Type (0, 1), BuildingBlock: TEMPAE_clean_linker_10, # of connection points: 2
#     Edge 97, Type (0, 1), BuildingBlock: TEMPAE_clean_linker_10, # of connection points: 2
#     Edge 98, Type (0, 1), BuildingBlock: TEMPAE_clean_linker_10, # of connection points: 2
#     Edge 99, Type (0, 1), BuildingBlock: TEMPAE_clean_linker_10, # of connection points: 2
#     Edge 100, Type (0, 1), BuildingBlock: TEMPAE_clean_linker_10, # of connection points: 2
#     Edge 101, Type (0, 1), BuildingBlock: TEMPAE_clean_linker_10, # of connection points: 2
#     Edge 102, Type (0, 1), BuildingBlock: TEMPAE_clean_linker_10, # of connection points: 2
#     Edge 103, Type (0, 1), BuildingBlock: TEMPAE_clean_linker_10, # of connection points: 2
#     Edge 104, Type (0, 1), BuildingBlock: TEMPAE_clean_linker_10, # of connection points: 2
#     Edge 105, Type (0, 1), BuildingBlock: TEMPAE_clean_linker_10, # of connection points: 2
#     Edge 106, Type (0, 1), BuildingBlock: TEMPAE_clean_linker_10, # of connection points: 2
#     Edge 107, Type (0, 1), BuildingBlock: TEMPAE_clean_linker_10, # of connection points: 2
#     Edge 108, Type (0, 1), BuildingBlock: TEMPAE_clean_linker_10, # of connection points: 2
#     Edge 109, Type (0, 1), BuildingBlock: TEMPAE_clean_linker_10, # of connection points: 2
#     Edge 110, Type (0, 1), BuildingBlock: TEMPAE_clean_linker_10, # of connection points: 2
#     Edge 111, Type (0, 1), BuildingBlock: TEMPAE_clean_linker_10, # of connection points: 2
#     Edge 112, Type (0, 1), BuildingBlock: TEMPAE_clean_linker_10, # of connection points: 2
#     Edge 113, Type (0, 1), BuildingBlock: TEMPAE_clean_linker_10, # of connection points: 2
#     Edge 114, Type (0, 1), BuildingBlock: TEMPAE_clean_linker_10, # of connection points: 2
#     Edge 115, Type (0, 1), BuildingBlock: TEMPAE_clean_linker_10, # of connection points: 2
#     Edge 116, Type (0, 1), BuildingBlock: TEMPAE_clean_linker_10, # of connection points: 2
#     Edge 117, Type (0, 1), BuildingBlock: TEMPAE_clean_linker_10, # of connection points: 2
#     Edge 118, Type (0, 1), BuildingBlock: TEMPAE_clean_linker_10, # of connection points: 2
#     Edge 119, Type (0, 1), BuildingBlock: TEMPAE_clean_linker_10, # of connection points: 2
#     Edge 120, Type (0, 1), BuildingBlock: TEMPAE_clean_linker_10, # of connection points: 2
#     Edge 121, Type (0, 1), BuildingBlock: TEMPAE_clean_linker_10, # of connection points: 2
#     Edge 122, Type (0, 1), BuildingBlock: TEMPAE_clean_linker_10, # of connection points: 2
#     Edge 123, Type (0, 1), BuildingBlock: TEMPAE_clean_linker_10, # of connection points: 2
#     Edge 124, Type (0, 1), BuildingBlock: TEMPAE_clean_linker_10, # of connection points: 2
#     Edge 125, Type (0, 1), BuildingBlock: TEMPAE_clean_linker_10, # of connection points: 2
#     Edge 126, Type (0, 1), BuildingBlock: TEMPAE_clean_linker_10, # of connection points: 2
#     Edge 127, Type (0, 1), BuildingBlock: TEMPAE_clean_linker_10, # of connection points: 2
#     Edge 128, Type (0, 1), BuildingBlock: TEMPAE_clean_linker_10, # of connection points: 2
#     Edge 129, Type (0, 1), BuildingBlock: TEMPAE_clean_linker_10, # of connection points: 2
#     Edge 130, Type (0, 1), BuildingBlock: TEMPAE_clean_linker_10, # of connection points: 2
#     Edge 131, Type (0, 1), BuildingBlock: TEMPAE_clean_linker_10, # of connection points: 2
#     Edge 132, Type (0, 1), BuildingBlock: TEMPAE_clean_linker_10, # of connection points: 2
#     Edge 133, Type (0, 1), BuildingBlock: TEMPAE_clean_linker_10, # of connection points: 2
#     Edge 134, Type (0, 1), BuildingBlock: TEMPAE_clean_linker_10, # of connection points: 2
#     Edge 135, Type (0, 1), BuildingBlock: TEMPAE_clean_linker_10, # of connection points: 2
# Relax obj value: 0.115
# Max RMSD: 0.227
# Mean RMSD: 0.160
data_MOF--net-gar--node1-QUQFOY_clean_sbu_1--node2-CUKXOW_clean_sbu_0--edge1-TEMPAE_clean_linker_10
_symmetry_space_group_name_H-M    P1
_symmetry_Int_Tables_number       1
_symmetry_cell_setting            triclinic
loop_
_symmetry_equiv_pos_as_xyz
'x, y, z'
_cell_length_a     57.027503
_cell_length_b     55.437605
_cell_length_c     55.692073
_cell_angle_alpha  94.420143
_cell_angle_beta   96.013821
_cell_angle_gamma 102.28027
loop_
_atom_site_label
_atom_site_type_symbol
_atom_site_fract_x
_atom_site_fract_y
_atom_site_fract_z
_atom_type_partial_charge
O0 O 0.03492 0.23463 0.44273 0.0
Cd1 Cd 0.03323 0.26013 0.4183 0.0
Cd2 Cd 0.01618 0.28353 0.45691 0.0
O3 O 0.02247 0.2535 0.47365 0.0
O4 O 0.04437 0.24398 0.39014 0.0
O5 O 0.06342 0.28083 0.40826 0.0
C6 C 0.06174 0.26321 0.39117 0.0
C7 C 0.03074 0.32285 0.47687 0.0
C8 C 0.02985 0.23529 0.46436 0.0
C9 C 0.9834 0.27097 0.41052 0.0
O10 O 0.98552 0.27952 0.43263 0.0
O11 O 1.00042 0.26303 0.40208 0.0
O12 O 0.01289 0.30762 0.48373 0.0
O13 O 0.04093 0.31545 0.45888 0.0
O14 O 0.99288 0.75445 0.61666 0.0
Cd15 Cd 1.00018 0.78632 0.64044 0.0
Cd16 Cd 0.02061 0.80688 0.604 0.0
O17 O 0.00725 0.77243 0.58571 0.0
O18 O 0.98212 0.77679 0.66794 0.0
O19 O 0.97494 0.806 0.64508 0.0
C20 C 0.97021 0.79354 0.66332 0.0
C21 C 0.0103 0.8402 0.58676 0.0
C22 C 0.99693 0.7532 0.59465 0.0
C23 C 0.05351 0.80889 0.64898 0.0
O24 O 0.05252 0.81292 0.62681 0.0
O25 O 0.03451 0.79914 0.65774 0.0
O26 O 0.02593 0.82922 0.57827 0.0
O27 O 1.00048 0.83226 0.60538 0.0
O28 O 0.57979 0.77841 0.92268 0.0
Cd29 Cd 0.56066 0.77917 0.95201 0.0
Cd30 Cd 0.52384 0.78385 0.91948 0.0
O31 O 0.5486 0.77966 0.8963 0.0
O32 O 0.56832 0.75503 0.97452 0.0
O33 O 0.53234 0.75153 0.95302 0.0
C34 C 0.54621 0.74295 0.96837 0.0
C35 C 0.48461 0.76581 0.90243 0.0
C36 C 0.57043 0.77807 0.90091 0.0
C37 C 0.54324 0.82469 0.9612 0.0
O38 O 0.5286 0.81622 0.94213 0.0
O39 O 0.55851 0.81264 0.96919 0.0
O40 O 0.49627 0.78622 0.89586 0.0
O41 O 0.49485 0.75557 0.91934 0.0
O42 O 0.48614 0.25092 0.09886 0.0
Cd43 Cd 0.49427 0.28136 0.12442 0.0
Cd44 Cd 0.51787 0.30141 0.08933 0.0
O45 O 0.5026 0.26842 0.06864 0.0
O46 O 0.47282 0.27017 0.1491 0.0
O47 O 0.47174 0.30389 0.13047 0.0
C48 C 0.46374 0.28925 0.14617 0.0
C49 C 0.51219 0.33866 0.07626 0.0
C50 C 0.4909 0.2495 0.07709 0.0
C51 C 0.54793 0.29745 0.13517 0.0
O52 O 0.54815 0.30214 0.11322 0.0
O53 O 0.52811 0.29 0.14357 0.0
O54 O 0.52688 0.32695 0.06689 0.0
O55 O 0.50036 0.32889 0.09301 0.0
O56 O 0.99367 0.72324 0.16483 0.0
Cd57 Cd 0.99573 0.75534 0.18759 0.0
Cd58 Cd 0.01286 0.77753 0.14876 0.0
O59 O 1.00124 0.74189 0.13195 0.0
O60 O 0.97287 0.74733 0.21235 0.0
O61 O 0.96859 0.77368 0.18526 0.0
C62 C 0.96071 0.76236 0.20327 0.0
C63 C 0.00708 0.80989 0.12552 0.0
C64 C 0.99583 0.72216 0.14228 0.0
C65 C 0.04784 0.78106 0.1948 0.0
O66 O 0.0446 0.78443 0.17246 0.0
O67 O 0.03001 0.77125 0.20543 0.0
O68 O 0.02269 0.79692 0.12129 0.0
O69 O 0.9944 0.80442 0.14304 0.0
O70 O 0.58112 0.79743 0.37188 0.0
Cd71 Cd 0.55333 0.79525 0.39362 0.0
Cd72 Cd 0.53365 0.81555 0.35284 0.0
O73 O 0.56373 0.80814 0.33824 0.0
O74 O 0.56464 0.77822 0.42154 0.0
O75 O 0.53212 0.7614 0.39578 0.0
C76 C 0.54673 0.75968 0.41462 0.0
C77 C 0.49397 0.80212 0.33314 0.0
C78 C 0.58163 0.80196 0.34985 0.0
C79 C 0.54159 0.84622 0.40069 0.0
O80 O 0.5387 0.84633 0.37776 0.0
O81 O 0.54558 0.82712 0.41023 0.0
O82 O 0.50926 0.81981 0.32574 0.0
O83 O 0.50157 0.79112 0.35107 0.0
O84 O 0.49091 0.21667 0.66163 0.0
Cd85 Cd 0.49289 0.24865 0.68469 0.0
Cd86 Cd 0.50984 0.27098 0.64611 0.0
O87 O 0.49859 0.23545 0.62883 0.0
O88 O 0.47008 0.24066 0.70958 0.0
O89 O 0.46583 0.26716 0.68266 0.0
C90 C 0.45802 0.25588 0.70072 0.0
C91 C 0.50293 0.30399 0.62435 0.0
C92 C 0.49323 0.21566 0.6391 0.0
C93 C 0.54504 0.27438 0.69187 0.0
O94 O 0.54174 0.27785 0.66956 0.0
O95 O 0.52724 0.26451 0.70251 0.0
O96 O 0.51882 0.29166 0.61925 0.0
O97 O 0.49053 0.29739 0.64181 0.0
O98 O 0.03276 0.2489 0.87748 0.0
Cd99 Cd 0.03381 0.27414 0.85165 0.0
Cd100 Cd 0.01906 0.30259 0.89083 0.0
O101 O 0.02679 0.27334 0.90844 0.0
O102 O 0.05317 0.2637 0.82622 0.0
O103 O 0.06623 0.29773 0.8517 0.0
C104 C 0.07014 0.28284 0.8343 0.0
C105 C 0.02452 0.34058 0.91497 0.0
C106 C 0.03072 0.25284 0.89992 0.0
C107 C 0.98475 0.28681 0.8435 0.0
O108 O 0.98875 0.29594 0.86556 0.0
O109 O 1.00095 0.27831 0.83369 0.0
O110 O 0.00797 0.32158 0.91761 0.0
O111 O 0.03869 0.33802 0.89879 0.0
O112 O 0.41463 0.0874 0.20417 0.0
Cd113 Cd 0.39036 0.08933 0.22938 0.0
Cd114 Cd 0.42844 0.07096 0.25823 0.0
O115 O 0.44442 0.07655 0.22659 0.0
O116 O 0.36658 0.10782 0.21488 0.0
O117 O 0.39005 0.12147 0.24937 0.0
C118 C 0.37319 0.12445 0.23322 0.0
C119 C 0.45177 0.07485 0.2966 0.0
C120 C 0.43538 0.08207 0.20635 0.0
C121 C 0.37661 0.03906 0.24751 0.0
O122 O 0.3987 0.04208 0.25604 0.0
O123 O 0.36921 0.05599 0.23678 0.0
O124 O 0.45193 0.05753 0.27988 0.0
O125 O 0.43966 0.09127 0.29105 0.0
O126 O 0.27779 0.15077 0.53771 0.0
Cd127 Cd 0.27085 0.12577 0.50714 0.0
Cd128 Cd 0.26515 0.16747 0.48502 0.0
O129 O 0.27777 0.18443 0.51924 0.0
O130 O 0.2796 0.09619 0.52033 0.0
O131 O 0.29839 0.11585 0.49228 0.0
C132 C 0.29651 0.09838 0.50651 0.0
C133 C 0.2811 0.18957 0.45443 0.0
C134 C 0.28073 0.17417 0.53854 0.0
C135 C 0.22157 0.12554 0.48236 0.0
O136 O 0.22944 0.1481 0.47894 0.0
O137 O 0.23566 0.11305 0.49188 0.0
O138 O 0.26612 0.19719 0.46726 0.0
O139 O 0.28672 0.16873 0.45836 0.0
O140 O 0.1582 0.99446 0.74923 0.0
Cd141 Cd 0.18336 1.00014 0.77977 0.0
Cd142 Cd 0.14375 0.01136 0.80166 0.0
O143 O 0.12617 0.99606 0.76784 0.0
O144 O 0.21043 0.98536 0.76983 0.0
O145 O 0.18742 0.97034 0.79719 0.0
C146 C 0.20484 0.96874 0.78448 0.0
C147 C 0.12139 0.00379 0.83463 0.0
C148 C 0.13549 0.99234 0.74852 0.0
C149 C 0.1878 0.05307 0.79945 0.0
O150 O 0.16583 0.04657 0.8033 0.0
O151 O 0.19898 0.03689 0.79208 0.0
O152 O 0.11582 0.01747 0.81828 0.0
O153 O 0.13985 0.99414 0.83245 0.0
O154 O 0.22213 0.89261 0.07752 0.0
Cd155 Cd 0.22088 0.91739 0.05111 0.0
Cd156 Cd 0.23534 0.87551 0.02349 0.0
O157 O 0.22894 0.86007 0.05582 0.0
O158 O 0.20597 0.94455 0.06488 0.0
O159 O 0.18903 0.91982 0.03199 0.0
C160 C 0.18846 0.93828 0.0474 0.0
C161 C 0.22902 0.85185 0.9851 0.0
C162 C 0.22547 0.8705 0.076 0.0
C163 C 0.27023 0.92643 0.03334 0.0
O164 O 0.2658 0.90345 0.02608 0.0
O165 O 0.25433 0.93596 0.04255 0.0
O166 O 0.24447 0.84855 1.00241 0.0
O167 O 0.21578 0.86737 0.98995 0.0
O168 O 0.22473 0.41136 0.09192 0.0
Cd169 Cd 0.23802 0.43757 0.06986 0.0
Cd170 Cd 0.24958 0.39999 0.04376 0.0
O171 O 0.23124 0.38031 0.0684 0.0
O172 O 0.21892 0.46323 0.07136 0.0
O173 O 0.21995 0.43933 0.03764 0.0
C174 C 0.21195 0.45683 0.04851 0.0
C175 C 0.24506 0.37861 0.00534 0.0
C176 C 0.22307 0.38829 0.08703 0.0
C177 C 0.28977 0.44386 0.06649 0.0
O178 O 0.28345 0.42279 0.05408 0.0
O179 O 0.27404 0.45388 0.07516 0.0
O180 O 0.25746 0.37249 0.0236 0.0
O181 O 0.23499 0.39714 0.00882 0.0
O182 O 0.81934 0.18243 0.05742 0.0
Cd183 Cd 0.81637 0.15593 0.02784 0.0
Cd184 Cd 0.79766 0.19551 0.0051 0.0
O185 O 0.80905 0.21389 0.03993 0.0
O186 O 0.83491 0.13124 0.04033 0.0
O187 O 0.84414 0.15139 0.00884 0.0
C188 C 0.84858 0.13542 0.02341 0.0
C189 C 0.79915 0.21617 0.96922 0.0
C190 C 0.81564 0.20438 0.05897 0.0
C191 C 0.76361 0.14506 0.00798 0.0
O192 O 0.76712 0.16751 0.00317 0.0
O193 O 0.78115 0.1361 0.01656 0.0
O194 O 0.78546 0.22035 0.98531 0.0
O195 O 0.8132 0.20125 0.97402 0.0
O196 O 0.10967 0.48746 0.23418 0.0
Cd197 Cd 0.1373 0.48986 0.26267 0.0
Cd198 Cd 0.10398 0.51525 0.28701 0.0
O199 O 0.08495 0.50663 0.25241 0.0
O200 O 0.15916 0.4695 0.24916 0.0
O201 O 0.14206 0.46118 0.28211 0.0
C202 C 0.1562 0.4559 0.2668 0.0
C203 C 0.0835 0.51405 0.32197 0.0
C204 C 0.09054 0.49599 0.2334 0.0
C205 C 0.15477 0.54429 0.28246 0.0
O206 O 0.13412 0.54371 0.28939 0.0
O207 O 0.15967 0.52491 0.27224 0.0
O208 O 0.08168 0.52992 0.30656 0.0
O209 O 0.09634 0.4981 0.31724 0.0
O210 O 0.73196 0.91879 0.59572 0.0
Cd211 Cd 0.746 0.94478 0.57375 0.0
Cd212 Cd 0.75395 0.90621 0.54584 0.0
O213 O 0.73437 0.88734 0.57018 0.0
O214 O 0.72778 0.97129 0.57471 0.0
O215 O 0.72799 0.94631 0.54147 0.0
C216 C 0.72046 0.96433 0.552 0.0
C217 C 0.74819 0.88507 0.50714 0.0
C218 C 0.72787 0.89561 0.58969 0.0
C219 C 0.79694 0.94731 0.56895 0.0
O220 O 0.78891 0.92651 0.55631 0.0
O221 O 0.78249 0.95881 0.57814 0.0
O222 O 0.75972 0.87778 0.52528 0.0
O223 O 0.7397 0.90465 0.51088 0.0
O224 O 0.88612 0.07077 0.19994 0.0
Cd225 Cd 0.86183 0.06679 0.22537 0.0
Cd226 Cd 0.90065 0.06001 0.25431 0.0
O227 O 0.91864 0.07146 0.22538 0.0
O228 O 0.83655 0.08526 0.21521 0.0
O229 O 0.86111 0.09534 0.24973 0.0
C230 C 0.84372 0.09975 0.23509 0.0
C231 C 0.91939 0.07404 0.29384 0.0
C232 C 0.9089 0.0732 0.20417 0.0
C233 C 0.85732 0.01645 0.24191 0.0
O234 O 0.87934 0.02435 0.25091 0.0
O235 O 0.84588 0.03096 0.23157 0.0
O236 O 0.92748 0.05894 0.27989 0.0
O237 O 0.90087 0.08198 0.28513 0.0
O238 O 0.31383 0.68116 0.55662 0.0
Cd239 Cd 0.31047 0.65545 0.52648 0.0
Cd240 Cd 0.29225 0.69606 0.50501 0.0
O241 O 0.3037 0.71329 0.54029 0.0
O242 O 0.32767 0.62972 0.53871 0.0
O243 O 0.33856 0.65065 0.50817 0.0
C244 C 0.34199 0.63403 0.52237 0.0
C245 C 0.29484 0.71832 0.47026 0.0
C246 C 0.31039 0.70317 0.55888 0.0
C247 C 0.25783 0.64543 0.50596 0.0
O248 O 0.26145 0.66806 0.50172 0.0
O249 O 0.27523 0.63633 0.51461 0.0
O250 O 0.28078 0.72189 0.48618 0.0
O251 O 0.30857 0.70299 0.47461 0.0
O252 O 0.38042 0.56568 0.69785 0.0
Cd253 Cd 0.35728 0.56149 0.72445 0.0
Cd254 Cd 0.3962 0.55444 0.75227 0.0
O255 O 0.41317 0.56632 0.723 0.0
O256 O 0.3307 0.57929 0.71759 0.0
O257 O 0.35942 0.59088 0.74888 0.0
C258 C 0.34013 0.59443 0.73661 0.0
C259 C 0.41627 0.568 0.79135 0.0
C260 C 0.40325 0.5683 0.70193 0.0
C261 C 0.35326 0.51088 0.74068 0.0
O262 O 0.3754 0.51866 0.74918 0.0
O263 O 0.34168 0.52557 0.73092 0.0
O264 O 0.42355 0.55271 0.77686 0.0
O265 O 0.39784 0.57646 0.78333 0.0
O266 O 0.60555 0.97696 0.73037 0.0
Cd267 Cd 0.63301 0.97989 0.75907 0.0
Cd268 Cd 0.6006 0.00495 0.78269 0.0
O269 O 0.58079 0.99603 0.74852 0.0
O270 O 0.65398 0.95778 0.74703 0.0
O271 O 0.6367 0.95251 0.78051 0.0
C272 C 0.65044 0.94561 0.76558 0.0
C273 C 0.58148 0.00315 0.8184 0.0
C274 C 0.58634 0.98533 0.72954 0.0
C275 C 0.65083 0.03438 0.77725 0.0
O276 O 0.63023 0.03382 0.78426 0.0
O277 O 0.65583 0.01485 0.76751 0.0
O278 O 0.5786 0.01888 0.80312 0.0
O279 O 0.59459 0.98762 0.81308 0.0
O280 O 0.77413 0.65082 0.04329 0.0
Cd281 Cd 0.76628 0.6246 0.01367 0.0
Cd282 Cd 0.76195 0.66499 0.98978 0.0
O283 O 0.77627 0.68355 0.02303 0.0
O284 O 0.77584 0.59564 0.02732 0.0
O285 O 0.79334 0.61463 0.99813 0.0
C286 C 0.79228 0.5977 0.01294 0.0
C287 C 0.7767 0.6844 0.95716 0.0
C288 C 0.77857 0.6742 0.04295 0.0
C289 C 0.71723 0.62485 0.98956 0.0
O290 O 0.72584 0.64702 0.9854 0.0
O291 O 0.73086 0.61197 0.99921 0.0
O292 O 0.76291 0.69355 0.97042 0.0
O293 O 0.78196 0.66364 0.96204 0.0
O294 O 0.90734 0.58239 0.70572 0.0
Cd295 Cd 0.88262 0.58255 0.73079 0.0
Cd296 Cd 0.92213 0.56622 0.76012 0.0
O297 O 0.93756 0.57225 0.72821 0.0
O298 O 0.8562 0.59738 0.71565 0.0
O299 O 0.87914 0.61418 0.7497 0.0
C300 C 0.86121 0.6145 0.73358 0.0
C301 C 0.94577 0.57217 0.7985 0.0
C302 C 0.92838 0.57769 0.70798 0.0
C303 C 0.87164 0.53205 0.74939 0.0
O304 O 0.89369 0.53604 0.75835 0.0
O305 O 0.86361 0.54839 0.73831 0.0
O306 O 0.94681 0.55481 0.78219 0.0
O307 O 0.93251 0.5875 0.79252 0.0
O308 O 0.71795 0.38694 0.57648 0.0
Cd309 Cd 0.71715 0.41409 0.55246 0.0
Cd310 Cd 0.73266 0.37388 0.5221 0.0
O311 O 0.7267 0.35634 0.55352 0.0
O312 O 0.70066 0.43858 0.56883 0.0
O313 O 0.68655 0.41872 0.53267 0.0
C314 C 0.68446 0.43456 0.55015 0.0
C315 C 0.72664 0.35195 0.48276 0.0
C316 C 0.72218 0.36523 0.57393 0.0
C317 C 0.7665 0.42564 0.5349 0.0
O318 O 0.76221 0.40316 0.52577 0.0
O319 O 0.75069 0.434 0.54552 0.0
O320 O 0.74263 0.34862 0.49952 0.0
O321 O 0.71284 0.36658 0.48861 0.0
O322 O 0.64659 0.49989 0.25288 0.0
Cd323 Cd 0.67508 0.50633 0.28044 0.0
Cd324 Cd 0.63889 0.52229 0.30608 0.0
O325 O 0.61836 0.51051 0.27299 0.0
O326 O 0.69848 0.48917 0.26588 0.0
O327 O 0.68236 0.4781 0.29882 0.0
C328 C 0.69614 0.47431 0.28258 0.0
C329 C 0.61794 0.51495 0.33971 0.0
C330 C 0.62503 0.50246 0.25343 0.0
C331 C 0.68524 0.56007 0.30048 0.0
O332 O 0.66467 0.55515 0.30814 0.0
O333 O 0.69332 0.54301 0.28973 0.0
O334 O 0.61519 0.53243 0.32654 0.0
O335 O 0.63289 0.50154 0.33416 0.0
Tb336 Tb 0.02752 0.0653 0.01725 0.0
C337 C 0.03337 0.02239 0.97926 0.0
Tb338 Tb 0.01043 0.01016 0.02774 0.0
O339 O 0.06529 0.06199 0.01868 0.0
O340 O 0.04135 0.03941 0.03761 0.0
O341 O 0.03098 0.04564 0.98301 0.0
C342 C 0.00913 0.96531 0.04265 0.0
O343 O 0.02771 0.00561 0.99479 0.0
C344 C 0.97542 0.03247 0.01397 0.0
C345 C 0.00613 0.05313 0.06666 0.0
O346 O 0.99602 0.96971 0.02359 0.0
O347 O 0.02288 0.986 0.05284 0.0
O348 O 0.9722 0.01258 0.02525 0.0
O349 O 0.9966 0.03631 0.00802 0.0
O350 O 0.00744 0.02956 0.06238 0.0
O351 O 0.01205 0.07 0.05126 0.0
C352 C 0.02761 0.1091 1.00046 0.0
O353 O 0.04197 0.10562 0.01904 0.0
O354 O 0.01335 0.08812 0.99173 0.0
C355 C 0.06231 0.0429 0.03113 0.0
Tb356 Tb 0.27585 0.82002 0.27294 0.0
C357 C 0.31771 0.791 0.27556 0.0
Tb358 Tb 0.26182 0.76332 0.26706 0.0
O359 O 0.29158 0.8207 0.31058 0.0
O360 O 0.26296 0.79168 0.29515 0.0
O361 O 0.31176 0.81257 0.27253 0.0
C362 C 0.25284 0.71489 0.27288 0.0
O363 O 0.30135 0.76982 0.27492 0.0
C364 C 0.25804 0.78464 0.22671 0.0
C365 C 0.22019 0.79225 0.26563 0.0
O366 O 0.25521 0.73277 0.28998 0.0
O367 O 0.25583 0.7243 0.2525 0.0
O368 O 0.24472 0.76338 0.23007 0.0
O369 O 0.27415 0.7917 0.24476 0.0
O370 O 0.22642 0.77118 0.27044 0.0
O371 O 0.23644 0.81301 0.26408 0.0
C372 C 0.28445 0.86757 0.264 0.0
O373 O 0.2766 0.85923 0.28355 0.0
O374 O 0.28736 0.84915 0.2497 0.0
C375 C 0.27848 0.79917 0.31361 0.0
Tb376 Tb 0.54152 0.03757 0.51209 0.0
C377 C 0.52564 0.01798 0.56102 0.0
Tb378 Tb 0.4878 0.02785 0.51862 0.0
O379 O 0.55114 0.06977 0.53925 0.0
O380 O 0.51641 0.05927 0.51995 0.0
O381 O 0.54233 0.01998 0.54582 0.0
C382 C 0.44457 0.03299 0.52916 0.0
O383 O 0.50359 0.02185 0.5549 0.0
C384 C 0.50128 0.99198 0.49416 0.0
C385 C 0.50389 0.04807 0.46978 0.0
O386 O 0.45045 0.01184 0.52471 0.0
O387 O 0.46298 0.05084 0.52788 0.0
O388 O 0.47972 0.99627 0.49072 0.0
O389 O 0.51323 0.00606 0.51215 0.0
O390 O 0.4864 0.04351 0.48389 0.0
O391 O 0.52642 0.04633 0.47681 0.0
C392 C 0.58313 0.03201 0.49697 0.0
O393 O 0.56236 0.01667 0.49132 0.0
O394 O 0.58043 0.0507 0.51111 0.0
C395 C 0.52915 0.073 0.53788 0.0
Tb396 Tb 0.27248 0.29102 0.79684 0.0
C397 C 0.2802 0.33186 0.76078 0.0
Tb398 Tb 0.26349 0.27391 0.74342 0.0
O399 O 0.31179 0.30031 0.7959 0.0
O400 O 0.28968 0.27167 0.77223 0.0
O401 O 0.27527 0.32698 0.78289 0.0
C402 C 0.27087 0.2633 0.69781 0.0
O403 O 0.27821 0.3139 0.74292 0.0
C404 C 0.22512 0.27926 0.7634 0.0
C405 C 0.25545 0.23299 0.7796 0.0
O406 O 0.24981 0.26177 0.70523 0.0
O407 O 0.28759 0.27103 0.71596 0.0
O408 O 0.22453 0.26297 0.74516 0.0
O409 O 0.24604 0.29299 0.768 0.0
O410 O 0.25962 0.23772 0.75721 0.0
O411 O 0.25832 0.25097 0.79765 0.0
C412 C 0.26499 0.30227 0.84229 0.0
O413 O 0.24843 0.2912 0.82489 0.0
O414 O 0.28587 0.30664 0.83423 0.0
C415 C 0.31093 0.2845 0.77719 0.0
Tb416 Tb 0.99695 0.0423 0.50589 0.0
C417 C 0.9662 0.02778 0.54759 0.0
Tb418 Tb 0.02359 0.03558 0.55545 0.0
O419 O 0.98157 0.00233 0.50035 0.0
O420 O 0.01537 0.01639 0.52039 0.0
O421 O 0.96766 0.04011 0.52805 0.0
C422 C 0.04096 0.01936 0.59607 0.0
O423 O 0.98534 0.02194 0.55955 0.0
C424 C 0.02192 0.08094 0.54789 0.0
C425 C 0.05458 0.05158 0.51361 0.0
O426 O 0.03594 0.04096 0.5944 0.0
O427 O 0.03611 0.00679 0.57485 0.0
O428 O 0.03934 0.07526 0.56166 0.0
O429 O 0.00563 0.06176 0.54092 0.0
O430 O 0.05405 0.04145 0.53451 0.0
O431 O 0.03486 0.05473 0.50035 0.0
C432 C 0.9792 0.05648 0.46419 0.0
O433 O 0.97771 0.03382 0.46918 0.0
O434 O 0.9908 0.07143 0.48277 0.0
C435 C 0.99939 0.99698 0.5137 0.0
Tb436 Tb 0.29678 0.78037 0.78323 0.0
C437 C 0.25841 0.78872 0.81806 0.0
Tb438 Tb 0.24523 0.77817 0.76025 0.0
O439 O 0.30227 0.81974 0.79566 0.0
O440 O 0.27869 0.80409 0.76433 0.0
O441 O 0.28026 0.78432 0.8165 0.0
C442 C 0.20375 0.78944 0.74437 0.0
O443 O 0.24229 0.7878 0.79872 0.0
C444 C 0.25686 0.73531 0.76457 0.0
C445 C 0.28374 0.77159 0.72532 0.0
O446 O 0.20629 0.76739 0.74864 0.0
O447 O 0.22445 0.80499 0.74906 0.0
O448 O 0.24126 0.73906 0.74732 0.0
O449 O 0.2634 0.75467 0.77922 0.0
O450 O 0.26265 0.77774 0.72721 0.0
O451 O 0.29902 0.77006 0.74466 0.0
C452 C 0.33629 0.76582 0.79985 0.0
O453 O 0.33613 0.78657 0.79047 0.0
O454 O 0.31431 0.75351 0.79995 0.0
C455 C 0.286 0.82345 0.77901 0.0
Tb456 Tb 0.48873 0.02591 0.01523 0.0
C457 C 0.52571 0.99229 0.02288 0.0
Tb458 Tb 0.54256 0.05058 0.02015 0.0
O459 O 0.49078 0.00467 0.98112 0.0
O460 O 0.51405 0.03938 0.99117 0.0
O461 O 0.50328 0.99441 0.02517 0.0
C462 C 0.5897 0.06428 0.01568 0.0
O463 O 0.543 0.01128 0.01911 0.0
C464 C 0.5213 0.05638 0.05912 0.0
C465 C 0.50587 0.08405 0.012 0.0
O466 O 0.58061 0.06164 0.03597 0.0
O467 O 0.57225 0.05936 0.99793 0.0
O468 O 0.53968 0.07236 0.05373 0.0
O469 O 0.51717 0.03726 0.04408 0.0
O470 O 0.528 0.08151 0.00884 0.0
O471 O 0.48872 0.06546 0.01694 0.0
C472 C 0.44196 0.01237 0.02118 0.0
O473 O 0.45021 0.01968 1.00148 0.0
O474 O 0.46005 0.01251 0.03742 0.0
C475 C 0.50945 0.0204 0.97588 0.0
Tb476 Tb 0.23717 0.27367 0.27274 0.0
C477 C 0.28059 0.28488 0.31313 0.0
Tb478 Tb 0.28879 0.30116 0.26196 0.0
O479 O 0.24745 0.23763 0.27211 0.0
O480 O 0.26552 0.26545 0.25379 0.0
O481 O 0.25809 0.28737 0.30774 0.0
C482 C 0.33111 0.31008 0.24461 0.0
O483 O 0.29612 0.28712 0.29684 0.0
C484 C 0.26354 0.33274 0.27873 0.0
C485 C 0.24298 0.29075 0.22115 0.0
O486 O 0.32685 0.29877 0.26383 0.0
O487 O 0.31181 0.31667 0.23571 0.0
O488 O 0.28534 0.33963 0.27298 0.0
O489 O 0.25901 0.30949 0.27648 0.0
O490 O 0.2669 0.29447 0.22643 0.0
O491 O 0.22758 0.28359 0.23683 0.0
C492 C 0.19349 0.26213 0.28701 0.0
O493 O 0.1988 0.27476 0.26889 0.0
O494 O 0.21258 0.25562 0.29658 0.0
C495 C 0.26622 0.24463 0.26096 0.0
Tb496 Tb 0.49006 0.5462 0.00769 0.0
C497 C 0.45728 0.53313 0.04867 0.0
Tb498 Tb 0.51446 0.54389 0.05924 0.0
O499 O 0.47989 0.50555 1.00151 0.0
O500 O 0.51035 0.52322 0.02509 0.0
O501 O 0.45939 0.54407 0.02832 0.0
C502 C 0.53142 0.52937 0.10091 0.0
O503 O 0.47632 0.52948 0.06263 0.0
C504 C 0.50879 0.58788 0.04947 0.0
C505 C 0.5474 0.55901 0.01858 0.0
O506 O 0.51813 0.51476 0.083 0.0
O507 O 0.53487 0.55204 0.09542 0.0
O508 O 0.52526 0.58427 0.06584 0.0
O509 O 0.49483 0.56737 0.04169 0.0
O510 O 0.5459 0.54907 0.03952 0.0
O511 O 0.52806 0.56114 0.0041 0.0
C512 C 0.4737 0.55889 0.96477 0.0
O513 O 0.49195 0.57187 0.97943 0.0
O514 O 0.46478 0.53885 0.97426 0.0
C515 C 0.49676 0.50251 0.01768 0.0
Tb516 Tb 0.79576 0.2903 0.27937 0.0
C517 C 0.75528 0.29478 0.31341 0.0
Tb518 Tb 0.74223 0.28009 0.25615 0.0
O519 O 0.79797 0.32964 0.28968 0.0
O520 O 0.77276 0.31007 0.2611 0.0
O521 O 0.77788 0.29254 0.31203 0.0
C522 C 0.70007 0.28629 0.23585 0.0
O523 O 0.73875 0.29191 0.29402 0.0
C524 C 0.75942 0.24036 0.26182 0.0
C525 C 0.78276 0.27592 0.22201 0.0
O526 O 0.70265 0.2699 0.25083 0.0
O527 O 0.72106 0.29891 0.23226 0.0
O528 O 0.74048 0.24044 0.2467 0.0
O529 O 0.76518 0.26083 0.27489 0.0
O530 O 0.76006 0.27786 0.22339 0.0
O531 O 0.79927 0.27916 0.24142 0.0
C532 C 0.83711 0.28269 0.30005 0.0
O533 O 0.8353 0.29979 0.28566 0.0
O534 O 0.81581 0.2701 0.30268 0.0
C535 C 0.77884 0.33015 0.27498 0.0
Tb536 Tb 0.98279 0.53049 0.51506 0.0
C537 C 0.01864 0.49513 0.52155 0.0
Tb538 Tb 0.0371 0.55358 0.52142 0.0
O539 O 0.98465 0.51185 0.47952 0.0
O540 O 0.00877 0.54548 0.49219 0.0
O541 O 0.996 0.49748 0.52196 0.0
C542 C 0.08415 0.56689 0.51629 0.0
O543 O 0.03702 0.51414 0.52065 0.0
C544 C 0.0158 0.55685 0.56074 0.0
C545 C 1.00171 0.5887 0.51579 0.0
O546 O 0.06706 0.55598 0.49931 0.0
O547 O 0.07475 0.57028 0.53615 0.0
O548 O 0.03484 0.57274 0.55662 0.0
O549 O 0.01109 0.53891 0.54426 0.0
O550 O 0.02328 0.58538 0.51129 0.0
O551 O 0.98414 0.57021 0.52009 0.0
C552 C 0.93613 0.51691 0.52146 0.0
O553 O 0.94414 0.5253 0.50202 0.0
O554 O 0.95437 0.51608 0.53709 0.0
C555 C 0.00383 0.52769 0.47553 0.0
Tb556 Tb 0.775 0.79662 0.29901 0.0
C557 C 0.78342 0.83793 0.26326 0.0
Tb558 Tb 0.7657 0.78034 0.24511 0.0
O559 O 0.8143 0.80511 0.29826 0.0
O560 O 0.79173 0.77738 0.27387 0.0
O561 O 0.77839 0.83285 0.28532 0.0
C562 C 0.7728 0.76996 0.19937 0.0
O563 O 0.78114 0.82016 0.24517 0.0
C564 C 0.7276 0.78655 0.26528 0.0
C565 C 0.75729 0.73883 0.2808 0.0
O566 O 0.78964 0.77775 0.21741 0.0
O567 O 0.75182 0.76828 0.20699 0.0
O568 O 0.72655 0.77104 0.24628 0.0
O569 O 0.74889 0.79938 0.27028 0.0
O570 O 0.76108 0.74386 0.25839 0.0
O571 O 0.76069 0.75652 0.29921 0.0
C572 C 0.76742 0.80761 0.34449 0.0
O573 O 0.75105 0.79595 0.32719 0.0
O574 O 0.78825 0.81256 0.33635 0.0
C575 C 0.81313 0.78979 0.27908 0.0
Tb576 Tb 0.77322 0.31019 0.76816 0.0
C577 C 0.81398 0.28006 0.76928 0.0
Tb578 Tb 0.7578 0.25387 0.76279 0.0
O579 O 0.79072 0.31083 0.80505 0.0
O580 O 0.76084 0.28245 0.79129 0.0
O581 O 0.80841 0.30158 0.76522 0.0
C582 C 0.74834 0.20545 0.76854 0.0
O583 O 0.79722 0.25959 0.77049 0.0
C584 C 0.75334 0.27493 0.72225 0.0
C585 C 0.71718 0.28383 0.76213 0.0
O586 O 0.75288 0.2149 0.74848 0.0
O587 O 0.74933 0.22327 0.78536 0.0
O588 O 0.73964 0.2541 0.72618 0.0
O589 O 0.77001 0.28167 0.73981 0.0
O590 O 0.72296 0.2626 0.76701 0.0
O591 O 0.73378 0.30413 0.75999 0.0
C592 C 0.78223 0.35807 0.76057 0.0
O593 O 0.7741 0.34916 0.77974 0.0
O594 O 0.7852 0.34004 0.74581 0.0
C595 C 0.77738 0.28977 0.80897 0.0
Tb596 Tb 0.72642 0.76658 0.76705 0.0
C597 C 0.76803 0.76777 0.80785 0.0
Tb598 Tb 0.77821 0.78595 0.75698 0.0
O599 O 0.73233 0.72876 0.76774 0.0
O600 O 0.7512 0.75338 0.74649 0.0
O601 O 0.74584 0.77141 0.80322 0.0
C602 C 0.8229 0.78967 0.74571 0.0
O603 O 0.78342 0.77019 0.79145 0.0
C604 C 0.75503 0.82041 0.76847 0.0
C605 C 0.73561 0.78512 0.71584 0.0
O606 O 0.81654 0.80514 0.76113 0.0
O607 O 0.80428 0.77231 0.7371 0.0
O608 O 0.77253 0.82343 0.75506 0.0
O609 O 0.75318 0.79969 0.77704 0.0
O610 O 0.75914 0.7865 0.72124 0.0
O611 O 0.71963 0.77823 0.73106 0.0
C612 C 0.68113 0.7621 0.77726 0.0
O613 O 0.69311 0.74469 0.77752 0.0
O614 O 0.69454 0.78186 0.77079 0.0
C615 C 0.74956 0.73235 0.75409 0.0
Tb616 Tb 0.52397 0.5595 0.51783 0.0
C617 C 0.51766 0.51542 0.47602 0.0
Tb618 Tb 0.50029 0.50385 0.52664 0.0
O619 O 0.55771 0.55778 0.5405 0.0
O620 O 0.5348 0.52592 0.52319 0.0
O621 O 0.51754 0.53924 0.48143 0.0
C622 C 0.4981 0.4604 0.54457 0.0
O623 O 0.51374 0.49854 0.4918 0.0
C624 C 0.46735 0.52948 0.51341 0.0
C625 C 0.50296 0.54862 0.56705 0.0
O626 O 0.48684 0.46342 0.52376 0.0
O627 O 0.51043 0.48176 0.55501 0.0
O628 O 0.4619 0.50624 0.51756 0.0
O629 O 0.49002 0.53546 0.51568 0.0
O630 O 0.50231 0.52462 0.56205 0.0
O631 O 0.50966 0.56553 0.55197 0.0
C632 C 0.53207 0.60372 0.5001 0.0
O633 O 0.51553 0.59583 0.51369 0.0
O634 O 0.54446 0.58686 0.49684 0.0
C635 C 0.55354 0.53359 0.53808 0.0
Tb636 Tb 0.04093 0.54324 0.01445 0.0
C637 C 0.0265 0.52606 0.06475 0.0
Tb638 Tb 0.98754 0.53487 0.02277 0.0
O639 O 0.05204 0.57644 0.04033 0.0
O640 O 0.01655 0.56561 0.02264 0.0
O641 O 0.04262 0.52711 0.04898 0.0
C642 C 0.94455 0.53982 0.03416 0.0
O643 O 0.00446 0.53015 0.05905 0.0
C644 C 1.00006 0.49826 0.99864 0.0
C645 C 1.00228 0.55343 0.97285 0.0
O646 O 0.95104 0.51881 0.03116 0.0
O647 O 0.96224 0.55774 0.03098 0.0
O648 O 0.97858 0.50276 0.99537 0.0
O649 O 0.01237 0.51257 0.01623 0.0
O650 O 0.98526 0.54948 0.98755 0.0
O651 O 0.02491 0.55165 0.97937 0.0
C652 C 0.08042 0.53405 0.99733 0.0
O653 O 0.07972 0.55359 0.01148 0.0
O654 O 0.05889 0.52 0.99281 0.0
C655 C 0.03011 0.57983 0.03977 0.0
C656 C 0.02539 0.23567 0.93982 0.0
C657 C 0.03213 0.23318 0.91636 0.0
C658 C 0.02544 0.21682 0.95527 0.0
C659 C 0.03264 0.19499 0.94719 0.0
C660 C 0.04011 0.19262 0.92381 0.0
C661 C 0.03964 0.21167 0.90862 0.0
C662 C 0.01708 0.21995 0.97994 0.0
C663 C 0.04813 0.1697 0.91463 0.0
C664 C 0.04917 0.15153 0.99272 0.0
C665 C 0.02833 0.13238 0.98914 0.0
C666 C 0.05078 0.17229 0.97944 0.0
C667 C 0.03092 0.17398 0.96256 0.0
C668 C 0.00946 0.15513 0.95977 0.0
C669 C 0.00852 0.13448 0.97295 0.0
C670 C 0.07399 0.19194 0.98281 0.0
C671 C 0.98769 0.15642 0.94237 0.0
H672 H 0.01952 0.25219 0.94601 0.0
H673 H 0.04503 0.20962 0.89062 0.0
H674 H 1.0004 0.20565 0.98086 0.0
H675 H 0.031 0.21719 0.99429 0.0
H676 H 0.01322 0.23856 0.98399 0.0
H677 H 0.05489 0.1714 0.89671 0.0
H678 H 0.06265 0.16606 0.9278 0.0
H679 H 0.03275 0.15334 0.91289 0.0
H680 H 0.06454 0.14981 0.00516 0.0
H681 H 0.99231 0.11972 0.97032 0.0
H682 H 0.07025 0.21051 0.98719 0.0
H683 H 0.08225 0.19246 0.96562 0.0
H684 H 0.08731 0.18851 0.99745 0.0
H685 H 0.98239 0.17433 0.94615 0.0
H686 H 0.9719 0.14106 0.94352 0.0
H687 H 0.99227 0.15551 0.9235 0.0
C688 C 0.09272 0.79041 0.19431 0.0
C689 C 0.0729 0.78639 0.20766 0.0
C690 C 0.11642 0.79266 0.20553 0.0
C691 C 0.12059 0.79132 0.23086 0.0
C692 C 0.10082 0.78837 0.24464 0.0
C693 C 0.0772 0.78571 0.23286 0.0
C694 C 0.13691 0.79544 0.19007 0.0
C695 C 0.10458 0.78737 0.27175 0.0
C696 C 0.17732 0.7695 0.25262 0.0
C697 C 0.19414 0.79204 0.2596 0.0
C698 C 0.15318 0.76901 0.24391 0.0
C699 C 0.14547 0.79158 0.24249 0.0
C700 C 0.16208 0.81435 0.25056 0.0
C701 C 0.18626 0.81432 0.25879 0.0
C702 C 0.1362 0.74433 0.23513 0.0
C703 C 0.15451 0.83879 0.24974 0.0
H704 H 0.08967 0.79086 0.17483 0.0
H705 H 0.06205 0.78273 0.24335 0.0
H706 H 0.15122 0.81209 0.19714 0.0
H707 H 0.14525 0.77912 0.19086 0.0
H708 H 0.13079 0.79706 0.17077 0.0
H709 H 0.08772 0.78726 0.28014 0.0
H710 H 0.11095 0.77039 0.27578 0.0
H711 H 0.11876 0.80352 0.2804 0.0
H712 H 0.18323 0.75218 0.25297 0.0
H713 H 0.19908 0.83183 0.26421 0.0
H714 H 0.13061 0.7435 0.21534 0.0
H715 H 0.11957 0.74225 0.24419 0.0
H716 H 0.14463 0.72841 0.23858 0.0
H717 H 0.15053 0.84237 0.23058 0.0
H718 H 0.16876 0.85456 0.25907 0.0
H719 H 0.13771 0.83813 0.25832 0.0
C720 C 0.54577 0.892 0.40942 0.0
C721 C 0.53874 0.86799 0.41632 0.0
C722 C 0.54171 0.91263 0.42332 0.0
C723 C 0.5295 0.90905 0.44409 0.0
C724 C 0.5227 0.88485 0.45133 0.0
C725 C 0.52776 0.86466 0.43756 0.0
C726 C 0.55009 0.93824 0.41556 0.0
C727 C 0.50909 0.88011 0.47296 0.0
C728 C 0.53034 0.96417 0.48982 0.0
C729 C 0.50882 0.97095 0.48153 0.0
C730 C 0.53749 0.94422 0.47771 0.0
C731 C 0.52243 0.93036 0.45723 0.0
C732 C 0.50043 0.93688 0.44914 0.0
C733 C 0.494 0.9572 0.46127 0.0
C734 C 0.56107 0.93791 0.48694 0.0
C735 C 0.48358 0.9223 0.42771 0.0
H736 H 0.55447 0.89464 0.39312 0.0
H737 H 0.52214 0.84608 0.44283 0.0
H738 H 0.53422 0.94604 0.41 0.0
H739 H 0.56113 0.95085 0.43101 0.0
H740 H 0.56099 0.9381 0.40016 0.0
H741 H 0.50599 0.86039 0.47679 0.0
H742 H 0.51914 0.89191 0.48935 0.0
H743 H 0.4913 0.88515 0.46959 0.0
H744 H 0.54155 0.97436 0.50586 0.0
H745 H 0.47725 0.96227 0.45492 0.0
H746 H 0.57183 0.93577 0.47175 0.0
H747 H 0.5574 0.91993 0.49483 0.0
H748 H 0.57206 0.95226 0.50109 0.0
H749 H 0.49281 0.92343 0.41113 0.0
H750 H 0.46672 0.92918 0.4243 0.0
H751 H 0.47864 0.90242 0.43082 0.0
C752 C 0.42137 0.27465 0.70004 0.0
C753 C 0.43598 0.26014 0.71109 0.0
C754 C 0.40052 0.27866 0.7098 0.0
C755 C 0.39421 0.26819 0.73132 0.0
C756 C 0.40886 0.25349 0.74248 0.0
C757 C 0.42944 0.24959 0.73222 0.0
C758 C 0.38532 0.29427 0.69718 0.0
C759 C 0.40289 0.24199 0.76543 0.0
C760 C 0.35459 0.29706 0.77101 0.0
C761 C 0.33208 0.28044 0.76522 0.0
C762 C 0.37485 0.29346 0.75993 0.0
C763 C 0.37254 0.27283 0.74245 0.0
C764 C 0.34973 0.25616 0.73632 0.0
C765 C 0.3299 0.25998 0.74802 0.0
C766 C 0.3988 0.31162 0.76713 0.0
C767 C 0.34628 0.23413 0.71756 0.0
H768 H 0.42618 0.28283 0.68368 0.0
H769 H 0.44054 0.23836 0.74094 0.0
H770 H 0.36604 0.28432 0.69407 0.0
H771 H 0.38643 0.31168 0.70892 0.0
H772 H 0.39131 0.29916 0.67948 0.0
H773 H 0.41603 0.23098 0.77186 0.0
H774 H 0.40274 0.25673 0.78004 0.0
H775 H 0.38454 0.22968 0.76233 0.0
H776 H 0.35641 0.3129 0.78431 0.0
H777 H 0.31266 0.24681 0.74375 0.0
H778 H 0.40553 0.31978 0.75089 0.0
H779 H 0.41243 0.30181 0.77488 0.0
H780 H 0.39754 0.32692 0.7807 0.0
H781 H 0.35294 0.2402 0.7005 0.0
H782 H 0.32702 0.22414 0.71338 0.0
H783 H 0.35704 0.22097 0.72422 0.0
C784 C 0.0062 0.86334 0.55081 0.0
C785 C 0.00442 0.86163 0.57553 0.0
C786 C 0.00287 0.88454 0.54006 0.0
C787 C 0.9983 0.90469 0.55459 0.0
C788 C 0.99579 0.90279 0.57945 0.0
C789 C 0.99858 0.88103 0.5896 0.0
C790 C 0.00515 0.88572 0.51337 0.0
C791 C 0.99154 0.92421 0.59559 0.0
C792 C 0.02059 0.96772 0.53342 0.0
C793 C 0.99902 0.97304 0.52331 0.0
C794 C 0.0205 0.94575 0.54421 0.0
C795 C 0.99831 0.92845 0.54418 0.0
C796 C 0.97648 0.93352 0.5335 0.0
C797 C 0.97709 0.95589 0.52317 0.0
C798 C 0.04419 0.94102 0.55544 0.0
C799 C 0.95256 0.91532 0.5329 0.0
H800 H 0.01047 0.84816 0.53991 0.0
H801 H 0.99737 0.87969 0.60877 0.0
H802 H 0.98952 0.89179 0.50414 0.0
H803 H 0.02172 0.89959 0.51111 0.0
H804 H 0.0062 0.86754 0.50417 0.0
H805 H 0.98823 0.9191 0.61403 0.0
H806 H 0.00761 0.93986 0.59736 0.0
H807 H 0.97588 0.93098 0.5874 0.0
H808 H 0.03757 0.98087 0.53302 0.0
H809 H 0.9604 0.9601 0.5153 0.0
H810 H 0.04911 0.92593 0.54413 0.0
H811 H 0.04251 0.93484 0.57378 0.0
H812 H 0.05917 0.95777 0.55696 0.0
H813 H 0.95315 0.89742 0.52286 0.0
H814 H 0.9372 0.92224 0.52414 0.0
H815 H 0.94909 0.91149 0.55162 0.0
C816 C 0.44072 0.76283 0.89804 0.0
C817 C 0.46044 0.75474 0.89016 0.0
C818 C 0.41887 0.75882 0.88274 0.0
C819 C 0.41708 0.74669 0.85905 0.0
C820 C 0.43628 0.73638 0.85201 0.0
C821 C 0.45796 0.74075 0.86769 0.0
C822 C 0.39868 0.76988 0.89098 0.0
C823 C 0.43489 0.72299 0.82709 0.0
C824 C 0.35529 0.73675 0.82277 0.0
C825 C 0.35773 0.75883 0.81165 0.0
C826 C 0.37494 0.7316 0.83719 0.0
C827 C 0.3973 0.74912 0.84058 0.0
C828 C 0.40018 0.77065 0.82803 0.0
C829 C 0.38029 0.77522 0.81364 0.0
C830 C 0.37132 0.70823 0.84985 0.0
C831 C 0.42387 0.78965 0.83094 0.0
H832 H 0.44299 0.77392 0.91539 0.0
H833 H 0.47351 0.73481 0.86167 0.0
H834 H 0.39757 0.78648 0.88135 0.0
H835 H 0.38105 0.75643 0.88646 0.0
H836 H 0.40159 0.77559 0.91082 0.0
H837 H 0.44874 0.71165 0.82637 0.0
H838 H 0.41673 0.71076 0.82147 0.0
H839 H 0.43803 0.7368 0.8137 0.0
H840 H 0.3378 0.72393 0.82098 0.0
H841 H 0.38215 0.79218 0.80483 0.0
H842 H 0.36943 0.7129 0.86918 0.0
H843 H 0.38715 0.6996 0.8494 0.0
H844 H 0.3548 0.69442 0.84154 0.0
H845 H 0.42791 0.79854 0.84991 0.0
H846 H 0.42354 0.8044 0.81856 0.0
H847 H 0.43887 0.78057 0.82732 0.0
C848 C 0.483 0.20347 0.07501 0.0
C849 C 0.48605 0.22496 0.06288 0.0
C850 C 0.48345 0.1805 0.06295 0.0
C851 C 0.48636 0.17889 0.03798 0.0
C852 C 0.48729 0.20006 0.02514 0.0
C853 C 0.48747 0.22299 0.03784 0.0
C854 C 0.48271 0.1584 0.07741 0.0
C855 C 0.48953 0.1988 0.99833 0.0
C856 C 0.52011 0.12974 0.02093 0.0
C857 C 0.50102 0.10916 0.01358 0.0
C858 C 0.51557 0.15302 0.02765 0.0
C859 C 0.49137 0.15583 0.02639 0.0
C860 C 0.47214 0.13562 0.01696 0.0
C861 C 0.47718 0.11236 0.01096 0.0
C862 C 0.53659 0.17403 0.03798 0.0
C863 C 0.44618 0.13813 0.01463 0.0
H864 H 0.4819 0.20483 0.09437 0.0
H865 H 0.48957 0.23951 0.02832 0.0
H866 H 0.46853 0.14235 0.06861 0.0
H867 H 0.50028 0.15274 0.07797 0.0
H868 H 0.47911 0.16244 0.09636 0.0
H869 H 0.48561 0.21546 0.99027 0.0
H870 H 0.50819 0.19753 0.99544 0.0
H871 H 0.47703 0.182 0.98851 0.0
H872 H 0.53856 0.12733 0.02312 0.0
H873 H 0.46238 0.09649 0.00505 0.0
H874 H 0.5356 0.17854 0.05756 0.0
H875 H 0.53574 0.19096 0.02887 0.0
H876 H 0.55433 0.16933 0.03602 0.0
H877 H 0.43991 0.13842 0.03282 0.0
H878 H 0.43405 0.12244 1.00271 0.0
H879 H 0.44448 0.15579 0.00726 0.0
C880 C 0.10018 0.28333 0.37607 0.0
C881 C 0.07908 0.26453 0.37323 0.0
C882 C 0.1174 0.2835 0.35982 0.0
C883 C 0.11323 0.2645 0.34034 0.0
C884 C 0.09146 0.24616 0.33678 0.0
C885 C 0.07466 0.24636 0.35333 0.0
C886 C 0.1405 0.30335 0.3641 0.0
C887 C 0.08636 0.22571 0.31612 0.0
C888 C 0.15377 0.27301 0.29047 0.0
C889 C 0.17123 0.2601 0.2984 0.0
C890 C 0.1344 0.27432 0.30372 0.0
C891 C 0.13263 0.26232 0.32521 0.0
C892 C 0.14973 0.24842 0.33267 0.0
C893 C 0.16886 0.24748 0.31913 0.0
C894 C 0.11638 0.2892 0.29524 0.0
C895 C 0.14832 0.23524 0.35542 0.0
H896 H 0.10357 0.29748 0.39134 0.0
H897 H 0.05821 0.23194 0.35085 0.0
H898 H 0.156 0.29482 0.36919 0.0
H899 H 0.14386 0.31222 0.34722 0.0
H900 H 0.14005 0.31796 0.37876 0.0
H901 H 0.06759 0.21436 0.31451 0.0
H902 H 0.08926 0.2336 0.29868 0.0
H903 H 0.09909 0.2133 0.31901 0.0
H904 H 0.1557 0.28279 0.27443 0.0
H905 H 0.18243 0.23752 0.32524 0.0
H906 H 0.11751 0.30527 0.30882 0.0
H907 H 0.09771 0.27771 0.29364 0.0
H908 H 0.11959 0.29624 0.27745 0.0
H909 H 0.15005 0.24896 0.37146 0.0
H910 H 0.16271 0.22467 0.35827 0.0
H911 H 0.13048 0.22221 0.3545 0.0
C912 C 0.94912 0.08459 0.18865 0.0
C913 C 0.92396 0.07572 0.18395 0.0
C914 C 0.96389 0.08429 0.16998 0.0
C915 C 0.95332 0.07436 0.14616 0.0
C916 C 0.92784 0.06628 0.14114 0.0
C917 C 0.91347 0.06727 0.16004 0.0
C918 C 0.9909 0.09363 0.17597 0.0
C919 C 0.91573 0.05495 0.11621 0.0
C920 C 0.98814 0.08278 0.09146 0.0
C921 C 0.99533 0.06011 0.0886 0.0
C922 C 0.97504 0.08804 0.11051 0.0
C923 C 0.96892 0.07021 0.12705 0.0
C924 C 0.97672 0.04765 0.12465 0.0
C925 C 0.98989 0.04294 0.10558 0.0
C926 C 0.96694 0.11224 0.11242 0.0
C927 C 0.97032 0.02798 0.14166 0.0
H928 H 0.95734 0.09133 0.20705 0.0
H929 H 0.89408 0.06019 0.15626 0.0
H930 H 0.99991 0.0778 0.17449 0.0
H931 H 0.99794 0.10656 0.16282 0.0
H932 H 0.99601 0.10331 0.19461 0.0
H933 H 0.89624 0.05537 0.11375 0.0
H934 H 0.92461 0.06462 0.10176 0.0
H935 H 0.91722 0.0353 0.11376 0.0
H936 H 0.99201 0.0961 0.07835 0.0
H937 H 0.9953 0.02537 0.1036 0.0
H938 H 0.9731 0.12216 0.13082 0.0
H939 H 0.94689 0.10854 0.10979 0.0
H940 H 0.97396 0.12457 0.09875 0.0
H941 H 0.97661 0.03585 0.16074 0.0
H942 H 0.97839 0.01175 0.1378 0.0
H943 H 0.95037 0.0214 0.14004 0.0
C944 C 0.28134 0.74937 0.44463 0.0
C945 C 0.29401 0.73042 0.44725 0.0
C946 C 0.27899 0.76006 0.42263 0.0
C947 C 0.28931 0.75147 0.40248 0.0
C948 C 0.30221 0.73238 0.40499 0.0
C949 C 0.30454 0.72221 0.42735 0.0
C950 C 0.26536 0.78055 0.42095 0.0
C951 C 0.31329 0.72249 0.38394 0.0
C952 C 0.26377 0.76566 0.34013 0.0
C953 C 0.28123 0.7863 0.33586 0.0
C954 C 0.26652 0.75362 0.36131 0.0
C955 C 0.28692 0.76285 0.37901 0.0
C956 C 0.30456 0.78375 0.37473 0.0
C957 C 0.30155 0.7951 0.35322 0.0
C958 C 0.24743 0.73119 0.36488 0.0
C959 C 0.32647 0.79441 0.39308 0.0
H960 H 0.27312 0.75587 0.45984 0.0
H961 H 0.31417 0.70743 0.42907 0.0
H962 H 0.27724 0.79745 0.4158 0.0
H963 H 0.24969 0.77488 0.40657 0.0
H964 H 0.25864 0.78536 0.43832 0.0
H965 H 0.32264 0.70754 0.38872 0.0
H966 H 0.29903 0.71506 0.36844 0.0
H967 H 0.3265 0.73771 0.37768 0.0
H968 H 0.24774 0.75914 0.32709 0.0
H969 H 0.31514 0.81107 0.35006 0.0
H970 H 0.23354 0.72535 0.34877 0.0
H971 H 0.23831 0.73536 0.38085 0.0
H972 H 0.25591 0.7154 0.36862 0.0
H973 H 0.32065 0.80067 0.41046 0.0
H974 H 0.3388 0.81038 0.38682 0.0
H975 H 0.33672 0.77993 0.39688 0.0
C976 C 0.56054 0.00551 0.70192 0.0
C977 C 0.57243 0.9861 0.70553 0.0
C978 C 0.55102 0.00943 0.67856 0.0
C979 C 0.55273 0.99311 0.65826 0.0
C980 C 0.5633 0.97252 0.662 0.0
C981 C 0.57338 0.96951 0.68549 0.0
C982 C 0.54054 0.03199 0.67546 0.0
C983 C 0.56483 0.95421 0.64104 0.0
C984 C 0.51483 0.99762 0.59851 0.0
C985 C 0.53221 0.01128 0.58578 0.0
C986 C 0.52129 0.99099 0.62185 0.0
C987 C 0.54553 0.99893 0.63306 0.0
C988 C 0.56302 0.01303 0.62034 0.0
C989 C 0.55624 0.01867 0.5968 0.0
C990 C 0.50224 0.97532 0.63442 0.0
C991 C 0.58891 0.02253 0.63176 0.0
H992 H 0.55995 0.01862 0.7172 0.0
H993 H 0.58246 0.95443 0.6881 0.0
H994 H 0.55221 0.04498 0.66514 0.0
H995 H 0.52234 0.02664 0.66484 0.0
H996 H 0.53909 0.04197 0.69314 0.0
H997 H 0.57047 0.93751 0.64727 0.0
H998 H 0.54708 0.94827 0.62955 0.0
H999 H 0.57814 0.96317 0.62946 0.0
H1000 H 0.49627 0.99169 0.59002 0.0
H1001 H 0.56972 0.02944 0.58717 0.0
H1002 H 0.49983 0.9857 0.65148 0.0
H1003 H 0.50814 0.95835 0.63944 0.0
H1004 H 0.48448 0.96972 0.62287 0.0
H1005 H 0.58945 0.03402 0.64912 0.0
H1006 H 0.60013 0.03387 0.61976 0.0
H1007 H 0.59718 0.00674 0.63603 0.0
C1008 C 0.23714 0.37582 0.9601 0.0
C1009 C 0.2435 0.36517 0.98114 0.0
C1010 C 0.2385 0.36433 0.93709 0.0
C1011 C 0.24611 0.34162 0.93525 0.0
C1012 C 0.25115 0.33012 0.95638 0.0
C1013 C 0.24995 0.34213 0.9791 0.0
C1014 C 0.23289 0.37702 0.91485 0.0
C1015 C 0.25867 0.30556 0.95504 0.0
C1016 C 0.23721 0.30442 0.8736 0.0
C1017 C 0.26036 0.31113 0.86649 0.0
C1018 C 0.23229 0.31389 0.89615 0.0
C1019 C 0.25085 0.33092 0.9115 0.0
C1020 C 0.27429 0.33763 0.90437 0.0
C1021 C 0.27881 0.32746 0.88199 0.0
C1022 C 0.20716 0.30601 0.90323 0.0
C1023 C 0.29452 0.3558 0.92026 0.0
H1024 H 0.23209 0.3936 0.96164 0.0
H1025 H 0.25453 0.33365 0.99534 0.0
H1026 H 0.24951 0.38251 0.90601 0.0
H1027 H 0.21932 0.36404 0.90148 0.0
H1028 H 0.22587 0.39384 0.91925 0.0
H1029 H 0.25991 0.29809 0.97296 0.0
H1030 H 0.24557 0.29172 0.94199 0.0
H1031 H 0.27658 0.30784 0.94833 0.0
H1032 H 0.2229 0.29185 0.8615 0.0
H1033 H 0.29668 0.33274 0.87637 0.0
H1034 H 0.19728 0.32096 0.90037 0.0
H1035 H 0.20778 0.30281 0.92269 0.0
H1036 H 0.19675 0.28879 0.8922 0.0
H1037 H 0.28918 0.37371 0.92392 0.0
H1038 H 0.31159 0.35934 0.91184 0.0
H1039 H 0.29805 0.34859 0.93801 0.0
C1040 C 0.91562 0.08521 0.33746 0.0
C1041 C 0.92991 0.07999 0.31959 0.0
C1042 C 0.92391 0.08574 0.36223 0.0
C1043 C 0.94715 0.08134 0.36917 0.0
C1044 C 0.9624 0.07831 0.3512 0.0
C1045 C 0.95351 0.07741 0.32663 0.0
C1046 C 0.90703 0.08889 0.38078 0.0
C1047 C 0.98747 0.07405 0.35778 0.0
C1048 C 0.97478 0.08835 0.43544 0.0
C1049 C 0.96989 0.06358 0.44066 0.0
C1050 C 0.96706 0.0947 0.41239 0.0
C1051 C 0.954 0.07578 0.39436 0.0
C1052 C 0.94847 0.05085 0.39992 0.0
C1053 C 0.95656 0.04508 0.42294 0.0
C1054 C 0.97343 0.12144 0.40713 0.0
C1055 C 0.9345 0.03008 0.38134 0.0
H1056 H 0.89735 0.08718 0.33209 0.0
H1057 H 0.96472 0.07367 0.31285 0.0
H1058 H 0.90007 0.07068 0.38743 0.0
H1059 H 0.91671 0.10176 0.39667 0.0
H1060 H 0.89136 0.096 0.37306 0.0
H1061 H 0.99829 0.07589 0.34228 0.0
H1062 H 0.9973 0.08737 0.3733 0.0
H1063 H 0.98607 0.05508 0.36343 0.0
H1064 H 0.98503 0.10267 0.44919 0.0
H1065 H 0.95267 0.02591 0.42698 0.0
H1066 H 0.95692 0.12746 0.40002 0.0
H1067 H 0.98572 0.12338 0.39287 0.0
H1068 H 0.98244 0.13407 0.42349 0.0
H1069 H 0.91714 0.03432 0.37402 0.0
H1070 H 0.93055 0.01194 0.38899 0.0
H1071 H 0.94502 0.02829 0.36588 0.0
C1072 C 0.30968 0.70156 0.60372 0.0
C1073 C 0.31106 0.71567 0.58378 0.0
C1074 C 0.30678 0.7119 0.6268 0.0
C1075 C 0.30577 0.73721 0.63041 0.0
C1076 C 0.30838 0.75191 0.61069 0.0
C1077 C 0.31068 0.74092 0.58758 0.0
C1078 C 0.30363 0.69533 0.64706 0.0
C1079 C 0.30807 0.77912 0.61383 0.0
C1080 C 0.27121 0.75582 0.68138 0.0
C1081 C 0.28974 0.76459 0.70067 0.0
C1082 C 0.27622 0.74713 0.65847 0.0
C1083 C 0.30046 0.74774 0.65439 0.0
C1084 C 0.31933 0.75728 0.67359 0.0
C1085 C 0.31374 0.76523 0.69656 0.0
C1086 C 0.25543 0.73653 0.63883 0.0
C1087 C 0.34544 0.75881 0.66997 0.0
H1088 H 0.30975 0.682 0.60109 0.0
H1089 H 0.31179 0.75204 0.57239 0.0
H1090 H 0.31707 0.70329 0.66306 0.0
H1091 H 0.28539 0.69412 0.6528 0.0
H1092 H 0.30564 0.67625 0.64158 0.0
H1093 H 0.31281 0.78855 0.59754 0.0
H1094 H 0.28981 0.78129 0.61735 0.0
H1095 H 0.32098 0.7886 0.62976 0.0
H1096 H 0.25259 0.7549 0.68442 0.0
H1097 H 0.3282 0.77199 0.71131 0.0
H1098 H 0.25522 0.71679 0.63341 0.0
H1099 H 0.25774 0.74659 0.62248 0.0
H1100 H 0.23765 0.73764 0.64476 0.0
H1101 H 0.34864 0.73986 0.66668 0.0
H1102 H 0.35809 0.7687 0.68594 0.0
H1103 H 0.34972 0.76853 0.65374 0.0
C1104 C 0.55098 0.01475 0.84366 0.0
C1105 C 0.57083 0.00384 0.84163 0.0
C1106 C 0.54138 0.01689 0.86578 0.0
C1107 C 0.55225 0.0085 0.88666 0.0
C1108 C 0.57235 0.99748 0.88475 0.0
C1109 C 0.5812 0.99499 0.86219 0.0
C1110 C 0.51959 0.02818 0.86679 0.0
C1111 C 0.58482 0.98881 0.90665 0.0
C1112 C 0.53902 0.03651 0.94723 0.0
C1113 C 0.52125 0.01733 0.95366 0.0
C1114 C 0.55001 0.03354 0.92601 0.0
C1115 C 0.54238 0.01115 0.91036 0.0
C1116 C 0.52437 0.99175 0.9168 0.0
C1117 C 0.51423 0.99499 0.93845 0.0
C1118 C 0.56955 0.05448 0.92022 0.0
C1119 C 0.51534 0.96776 0.90052 0.0
H1120 H 0.54283 0.02158 0.82784 0.0
H1121 H 0.59673 0.98681 0.86083 0.0
H1122 H 0.50482 0.01506 0.87361 0.0
H1123 H 0.52426 0.04528 0.87964 0.0
H1124 H 0.51271 0.03296 0.84877 0.0
H1125 H 0.60029 0.98077 0.90222 0.0
H1126 H 0.59156 0.00463 0.92091 0.0
H1127 H 0.5718 0.97464 0.91447 0.0
H1128 H 0.54409 0.05401 0.95856 0.0
H1129 H 0.50046 0.98007 0.94328 0.0
H1130 H 0.5631 0.06225 0.90364 0.0
H1131 H 0.58578 0.04748 0.91644 0.0
H1132 H 0.57496 0.06969 0.93527 0.0
H1133 H 0.50713 0.97163 0.88266 0.0
H1134 H 0.50166 0.95428 0.90839 0.0
H1135 H 0.53063 0.95903 0.89714 0.0
C1136 C 0.20813 0.34523 0.09732 0.0
C1137 C 0.21476 0.37081 0.10458 0.0
C1138 C 0.20606 0.32805 0.11457 0.0
C1139 C 0.21136 0.33679 0.13947 0.0
C1140 C 0.21542 0.36252 0.14684 0.0
C1141 C 0.21685 0.37928 0.12922 0.0
C1142 C 0.20047 0.30069 0.1061 0.0
C1143 C 0.22093 0.37254 0.17331 0.0
C1144 C 0.20896 0.29785 0.19237 0.0
C1145 C 0.23345 0.2972 0.1974 0.0
C1146 C 0.20086 0.30905 0.17231 0.0
C1147 C 0.21778 0.32008 0.15732 0.0
C1148 C 0.24208 0.31767 0.1612 0.0
C1149 C 0.24955 0.30605 0.18108 0.0
C1150 C 0.17465 0.31053 0.1683 0.0
C1151 C 0.26072 0.3291 0.14553 0.0
H1152 H 0.20592 0.33863 0.0782 0.0
H1153 H 0.2217 0.39904 0.13488 0.0
H1154 H 0.21755 0.29407 0.10692 0.0
H1155 H 0.18873 0.28989 0.11802 0.0
H1156 H 0.19145 0.2968 0.0871 0.0
H1157 H 0.22094 0.3926 0.17607 0.0
H1158 H 0.20751 0.36225 0.18401 0.0
H1159 H 0.23901 0.36996 0.18061 0.0
H1160 H 0.19629 0.29083 0.20476 0.0
H1161 H 0.26843 0.30529 0.18459 0.0
H1162 H 0.16813 0.30969 0.14871 0.0
H1163 H 0.17258 0.3284 0.17727 0.0
H1164 H 0.16295 0.2953 0.17627 0.0
H1165 H 0.25446 0.32268 0.12611 0.0
H1166 H 0.27854 0.32445 0.15028 0.0
H1167 H 0.26328 0.3496 0.14769 0.0
C1168 C 0.1718 0.97563 0.05817 0.0
C1169 C 0.16877 0.95227 0.04505 0.0
C1170 C 0.15384 0.98954 0.05588 0.0
C1171 C 0.13195 0.97979 0.0404 0.0
C1172 C 0.12855 0.95601 0.02742 0.0
C1173 C 0.14706 0.94267 0.0297 0.0
C1174 C 0.15846 0.01489 0.06984 0.0
C1175 C 0.10536 0.94469 0.01109 0.0
C1176 C 0.07885 0.00982 0.05146 0.0
C1177 C 0.07941 0.02607 0.03336 0.0
C1178 C 0.09533 0.99414 0.05357 0.0
C1179 C 0.11306 0.99493 0.03736 0.0
C1180 C 0.11355 0.01128 0.01896 0.0
C1181 C 0.09678 0.02658 0.01721 0.0
C1182 C 0.09379 0.97676 0.07321 0.0
C1183 C 0.13209 0.01296 1.00133 0.0
H1184 H 0.18849 0.98332 0.07001 0.0
H1185 H 0.14445 0.92461 0.01958 0.0
H1186 H 0.15762 0.02915 0.05703 0.0
H1187 H 0.14422 0.01558 0.08184 0.0
H1188 H 0.17637 0.01985 0.08114 0.0
H1189 H 0.10513 0.92571 1.00288 0.0
H1190 H 0.08971 0.94375 0.02153 0.0
H1191 H 0.10285 0.95653 0.99627 0.0
H1192 H 0.06594 0.00982 0.06438 0.0
H1193 H 0.09728 0.03904 0.00309 0.0
H1194 H 0.11169 0.97905 0.08412 0.0
H1195 H 0.08844 0.95728 0.06477 0.0
H1196 H 0.08044 0.97985 0.0856 0.0
H1197 H 0.15054 0.01913 0.01138 0.0
H1198 H 0.12967 0.02611 0.98767 0.0
H1199 H 0.13094 0.99444 0.99161 0.0
C1200 C 0.68165 0.58912 0.98406 0.0
C1201 C 0.69086 0.61483 0.98612 0.0
C1202 C 0.65714 0.57933 0.98552 0.0
C1203 C 0.6417 0.59569 0.98968 0.0
C1204 C 0.65055 0.62162 0.99013 0.0
C1205 C 0.67506 0.63089 0.98808 0.0
C1206 C 0.64818 0.55154 0.98428 0.0
C1207 C 0.63469 0.63967 0.99479 0.0
C1208 C 0.57394 0.57089 0.98646 0.0
C1209 C 0.57147 0.5677 0.01089 0.0
C1210 C 0.59675 0.57971 0.97913 0.0
C1211 C 0.61738 0.58592 0.99674 0.0
C1212 C 0.61495 0.58284 0.02144 0.0
C1213 C 0.59204 0.57353 0.02817 0.0
C1214 C 0.59878 0.58232 0.95259 0.0
C1215 C 0.63652 0.58963 0.04083 0.0
H1216 H 0.6938 0.57666 0.98225 0.0
H1217 H 0.68215 0.65079 0.98975 0.0
H1218 H 0.64519 0.5462 1.00269 0.0
H1219 H 0.63063 0.54545 0.97249 0.0
H1220 H 0.66131 0.54143 0.97725 0.0
H1221 H 0.6434 0.65888 0.99163 0.0
H1222 H 0.6171 0.63394 0.98305 0.0
H1223 H 0.63081 0.63975 0.01391 0.0
H1224 H 0.55807 0.56631 0.97302 0.0
H1225 H 0.59018 0.57134 0.0471 0.0
H1226 H 0.61145 0.57133 0.94613 0.0
H1227 H 0.60631 0.60198 0.95004 0.0
H1228 H 0.58104 0.57604 0.9411 0.0
H1229 H 0.64984 0.57833 0.03701 0.0
H1230 H 0.63142 0.58669 0.05927 0.0
H1231 H 0.64567 0.60941 0.04075 0.0
C1232 C 0.71683 0.44525 0.261 0.0
C1233 C 0.70822 0.45309 0.28229 0.0
C1234 C 0.72777 0.42485 0.2599 0.0
C1235 C 0.73065 0.41219 0.28075 0.0
C1236 C 0.72214 0.42007 0.30239 0.0
C1237 C 0.7108 0.44029 0.30284 0.0
C1238 C 0.73615 0.41676 0.23635 0.0
C1239 C 0.72511 0.4072 0.32508 0.0
C1240 C 0.74108 0.34669 0.27154 0.0
C1241 C 0.76629 0.35092 0.27585 0.0
C1242 C 0.72916 0.36638 0.27321 0.0
C1243 C 0.74285 0.39091 0.27985 0.0
C1244 C 0.76834 0.3952 0.28498 0.0
C1245 C 0.77973 0.37513 0.28295 0.0
C1246 C 0.70195 0.3609 0.26765 0.0
C1247 C 0.7836 0.42099 0.29251 0.0
H1248 H 0.71468 0.45486 0.24496 0.0
H1249 H 0.70418 0.44625 0.31934 0.0
H1250 H 0.75591 0.41783 0.23908 0.0
H1251 H 0.72712 0.39712 0.23032 0.0
H1252 H 0.73222 0.42832 0.22166 0.0
H1253 H 0.7176 0.41562 0.34045 0.0
H1254 H 0.71592 0.38729 0.32146 0.0
H1255 H 0.74456 0.40807 0.33061 0.0
H1256 H 0.73058 0.32795 0.2678 0.0
H1257 H 0.79925 0.37841 0.28683 0.0
H1258 H 0.69692 0.36872 0.2506 0.0
H1259 H 0.69392 0.36983 0.28226 0.0
H1260 H 0.69381 0.34066 0.26547 0.0
H1261 H 0.78154 0.43302 0.27776 0.0
H1262 H 0.80309 0.42107 0.29676 0.0
H1263 H 0.77735 0.42935 0.30873 0.0
C1264 C 0.80837 0.43151 0.52335 0.0
C1265 C 0.7906 0.44179 0.53329 0.0
C1266 C 0.83148 0.44591 0.522 0.0
C1267 C 0.83711 0.4714 0.53066 0.0
C1268 C 0.81926 0.48207 0.54047 0.0
C1269 C 0.7962 0.46712 0.54175 0.0
C1270 C 0.84999 0.43371 0.51151 0.0
C1271 C 0.82457 0.50923 0.54973 0.0
C1272 C 0.90449 0.49814 0.54635 0.0
C1273 C 0.91049 0.50797 0.52479 0.0
C1274 C 0.88043 0.48735 0.54903 0.0
C1275 C 0.86192 0.48645 0.52969 0.0
C1276 C 0.86778 0.49753 0.50836 0.0
C1277 C 0.89204 0.50811 0.50613 0.0
C1278 C 0.87503 0.47575 0.57207 0.0
C1279 C 0.84858 0.49714 0.48741 0.0
H1280 H 0.80436 0.41198 0.51676 0.0
H1281 H 0.78262 0.47526 0.54941 0.0
H1282 H 0.8564 0.44318 0.49579 0.0
H1283 H 0.86595 0.43549 0.52529 0.0
H1284 H 0.84268 0.41371 0.50542 0.0
H1285 H 0.80856 0.51487 0.55619 0.0
H1286 H 0.83953 0.51333 0.5649 0.0
H1287 H 0.83064 0.52075 0.53516 0.0
H1288 H 0.91872 0.49818 0.56089 0.0
H1289 H 0.89664 0.51588 0.48951 0.0
H1290 H 0.8696 0.45527 0.56806 0.0
H1291 H 0.8597 0.48199 0.57935 0.0
H1292 H 0.89091 0.48036 0.58632 0.0
H1293 H 0.84177 0.47785 0.47876 0.0
H1294 H 0.85557 0.50903 0.47341 0.0
H1295 H 0.83298 0.5035 0.49396 0.0
C1296 C 0.34122 0.14679 0.21907 0.0
C1297 C 0.36087 0.14549 0.236 0.0
C1298 C 0.32785 0.16511 0.22238 0.0
C1299 C 0.33428 0.18278 0.24306 0.0
C1300 C 0.35479 0.18233 0.25963 0.0
C1301 C 0.36777 0.16364 0.25597 0.0
C1302 C 0.30608 0.16476 0.20429 0.0
C1303 C 0.36244 0.20097 0.28177 0.0
C1304 C 0.30358 0.23783 0.24343 0.0
C1305 C 0.28439 0.2297 0.25679 0.0
C1306 C 0.32051 0.2232 0.23939 0.0
C1307 C 0.3179 0.19974 0.24863 0.0
C1308 C 0.29866 0.19169 0.26236 0.0
C1309 C 0.28228 0.20678 0.26634 0.0
C1310 C 0.34099 0.23272 0.22505 0.0
C1311 C 0.29502 0.16682 0.27247 0.0
H1312 H 0.33575 0.13298 0.20351 0.0
H1313 H 0.383 0.16293 0.26908 0.0
H1314 H 0.28938 0.15993 0.21314 0.0
H1315 H 0.30695 0.18341 0.19804 0.0
H1316 H 0.3046 0.15112 0.1882 0.0
H1317 H 0.38027 0.2 0.29131 0.0
H1318 H 0.36344 0.22007 0.27663 0.0
H1319 H 0.34878 0.19749 0.29462 0.0
H1320 H 0.30521 0.25549 0.23593 0.0
H1321 H 0.26754 0.20044 0.27677 0.0
H1322 H 0.33972 0.21999 0.20836 0.0
H1323 H 0.35858 0.23318 0.23589 0.0
H1324 H 0.34094 0.25164 0.21977 0.0
H1325 H 0.29175 0.15174 0.25739 0.0
H1326 H 0.27952 0.16357 0.28325 0.0
H1327 H 0.31156 0.16552 0.28422 0.0
C1328 C 0.31543 0.06828 0.52818 0.0
C1329 C 0.31432 0.08261 0.50856 0.0
C1330 C 0.33437 0.05609 0.53258 0.0
C1331 C 0.35239 0.05808 0.51679 0.0
C1332 C 0.3504 0.07105 0.49599 0.0
C1333 C 0.33145 0.08334 0.49221 0.0
C1334 C 0.33599 0.04261 0.55503 0.0
C1335 C 0.36909 0.07319 0.47849 0.0
C1336 C 0.41746 0.06025 0.53968 0.0
C1337 C 0.4201 0.03696 0.53038 0.0
C1338 C 0.39503 0.06672 0.53671 0.0
C1339 C 0.37492 0.04961 0.52359 0.0
C1340 C 0.37718 0.02549 0.51536 0.0
C1341 C 0.39985 0.01933 0.51906 0.0
C1342 C 0.39329 0.09245 0.54629 0.0
C1343 C 0.35616 0.00685 0.50117 0.0
H1344 H 0.30219 0.06757 0.54087 0.0
H1345 H 0.33051 0.09418 0.47688 0.0
H1346 H 0.3403 0.0243 0.55071 0.0
H1347 H 0.35085 0.05359 0.56855 0.0
H1348 H 0.31894 0.03977 0.56349 0.0
H1349 H 0.36336 0.0812 0.46176 0.0
H1350 H 0.38636 0.08528 0.48741 0.0
H1351 H 0.37269 0.05471 0.47329 0.0
H1352 H 0.4332 0.07386 0.54836 0.0
H1353 H 0.40204 1.00138 0.51166 0.0
H1354 H 0.37759 0.09148 0.55665 0.0
H1355 H 0.39044 0.10348 0.53087 0.0
H1356 H 0.40989 0.10246 0.55824 0.0
H1357 H 0.33952 0.00602 0.51004 0.0
H1358 H 0.35986 0.98796 0.49916 0.0
H1359 H 0.35252 0.01271 0.48279 0.0
C1360 C 0.72249 0.59262 0.29652 0.0
C1361 C 0.69853 0.58642 0.30179 0.0
C1362 C 0.7341 0.61746 0.29506 0.0
C1363 C 0.72129 0.6365 0.29844 0.0
C1364 C 0.6974 0.63042 0.30452 0.0
C1365 C 0.68643 0.60555 0.30636 0.0
C1366 C 0.75979 0.62324 0.2891 0.0
C1367 C 0.68293 0.65004 0.3079 0.0
C1368 C 0.75254 0.70512 0.30879 0.0
C1369 C 0.74928 0.71249 0.28535 0.0
C1370 C 0.74433 0.68026 0.31322 0.0
C1371 C 0.73205 0.66248 0.29386 0.0
C1372 C 0.72887 0.66983 0.27015 0.0
C1373 C 0.73774 0.69464 0.26615 0.0
C1374 C 0.74853 0.67307 0.33864 0.0
C1375 C 0.71547 0.65163 0.24907 0.0
H1376 H 0.73204 0.57801 0.29309 0.0
H1377 H 0.66789 0.60103 0.31034 0.0
H1378 H 0.76012 0.62947 0.27066 0.0
H1379 H 0.77104 0.63861 0.30201 0.0
H1380 H 0.76811 0.60687 0.28968 0.0
H1381 H 0.665 0.64247 0.31372 0.0
H1382 H 0.69299 0.66528 0.32163 0.0
H1383 H 0.68004 0.65827 0.29058 0.0
H1384 H 0.7616 0.71876 0.32369 0.0
H1385 H 0.73498 0.7002 0.24802 0.0
H1386 H 0.75741 0.65709 0.33853 0.0
H1387 H 0.73096 0.6671 0.3457 0.0
H1388 H 0.75995 0.68861 0.35129 0.0
H1389 H 0.7242 0.63566 0.24695 0.0
H1390 H 0.71486 0.6602 0.23169 0.0
H1391 H 0.69664 0.64421 0.25266 0.0
C1392 C 0.86501 0.48916 0.76218 0.0
C1393 C 0.85552 0.50765 0.75137 0.0
C1394 C 0.85055 0.46555 0.7633 0.0
C1395 C 0.82588 0.46023 0.75351 0.0
C1396 C 0.81596 0.47891 0.74305 0.0
C1397 C 0.83093 0.50242 0.74203 0.0
C1398 C 0.86186 0.44612 0.77456 0.0
C1399 C 0.78967 0.47393 0.73261 0.0
C1400 C 0.80008 0.39157 0.73634 0.0
C1401 C 0.78996 0.38458 0.7573 0.0
C1402 C 0.81062 0.41646 0.73425 0.0
C1403 C 0.81095 0.43474 0.75357 0.0
C1404 C 0.79938 0.42795 0.77412 0.0
C1405 C 0.78904 0.40286 0.77577 0.0
C1406 C 0.82273 0.42291 0.71201 0.0
C1407 C 0.79913 0.44693 0.79498 0.0
H1408 H 0.88395 0.49296 0.76949 0.0
H1409 H 0.8234 0.5166 0.73372 0.0
H1410 H 0.85192 0.43901 0.78956 0.0
H1411 H 0.86059 0.43015 0.76082 0.0
H1412 H 0.88119 0.45341 0.78183 0.0
H1413 H 0.78442 0.49081 0.72635 0.0
H1414 H 0.78603 0.45939 0.71702 0.0
H1415 H 0.77798 0.46681 0.74639 0.0
H1416 H 0.80063 0.37744 0.72195 0.0
H1417 H 0.78107 0.39746 0.79193 0.0
H1418 H 0.84262 0.42827 0.71707 0.0
H1419 H 0.817 0.43901 0.70453 0.0
H1420 H 0.81856 0.40711 0.69754 0.0
H1421 H 0.81764 0.45334 0.80485 0.0
H1422 H 0.78674 0.43929 0.80802 0.0
H1423 H 0.79357 0.46342 0.78818 0.0
C1424 C 0.01813 0.83542 0.09161 0.0
C1425 C 0.0046 0.83081 0.11108 0.0
C1426 C 0.01749 0.85609 0.07872 0.0
C1427 C 0.003 0.87265 0.08547 0.0
C1428 C 0.98864 0.86766 0.10456 0.0
C1429 C 0.98959 0.84677 0.11714 0.0
C1430 C 0.03305 0.86071 0.05847 0.0
C1431 C 0.97296 0.8849 0.11229 0.0
C1432 C 0.02354 0.9398 0.07327 0.0
C1433 C 0.0078 0.94121 0.05261 0.0
C1434 C 0.02216 0.9176 0.08403 0.0
C1435 C 0.0045 0.89623 0.07395 0.0
C1436 C 0.98867 0.89745 0.0529 0.0
C1437 C 0.99053 0.92 0.04243 0.0
C1438 C 0.03953 0.9171 0.10632 0.0
C1439 C 0.96969 0.87503 0.0416 0.0
H1440 H 0.02968 0.82311 0.08667 0.0
H1441 H 0.97902 0.84331 0.1321 0.0
H1442 H 0.02205 0.8637 0.04178 0.0
H1443 H 0.04739 0.87782 0.06369 0.0
H1444 H 0.0418 0.84508 0.0542 0.0
H1445 H 0.96145 0.87741 0.12612 0.0
H1446 H 0.98456 0.90311 0.12002 0.0
H1447 H 0.96111 0.88827 0.09638 0.0
H1448 H 0.03688 0.95619 0.08121 0.0
H1449 H 0.9783 0.9211 0.02648 0.0
H1450 H 0.05011 0.90281 0.10295 0.0
H1451 H 0.02931 0.91196 0.12175 0.0
H1452 H 0.05234 0.93528 0.11172 0.0
H1453 H 0.97838 0.85959 0.03653 0.0
H1454 H 0.95891 0.87898 0.02516 0.0
H1455 H 0.95723 0.86854 0.05496 0.0
C1456 C 0.94243 0.2932 0.84175 0.0
C1457 C 0.96055 0.28562 0.82975 0.0
C1458 C 0.9192 0.29167 0.82971 0.0
C1459 C 0.91375 0.28248 0.80487 0.0
C1460 C 0.93194 0.27503 0.79248 0.0
C1461 C 0.95511 0.27662 0.80507 0.0
C1462 C 0.90037 0.29969 0.84372 0.0
C1463 C 0.92687 0.26525 0.76598 0.0
C1464 C 0.84643 0.25854 0.78429 0.0
C1465 C 0.83995 0.27939 0.77501 0.0
C1466 C 0.87057 0.25885 0.79296 0.0
C1467 C 0.88882 0.28047 0.79226 0.0
C1468 C 0.88261 0.3011 0.78174 0.0
C1469 C 0.85829 0.30035 0.77334 0.0
C1470 C 0.8763 0.23648 0.80413 0.0
C1471 C 0.90148 0.32448 0.78049 0.0
H1472 H 0.94628 0.30015 0.8608 0.0
H1473 H 0.96891 0.27073 0.79559 0.0
H1474 H 0.89362 0.31466 0.83502 0.0
H1475 H 0.88465 0.28391 0.84348 0.0
H1476 H 0.90752 0.30654 0.86292 0.0
H1477 H 0.94306 0.26079 0.75878 0.0
H1478 H 0.91216 0.24825 0.76335 0.0
H1479 H 0.92055 0.27914 0.75514 0.0
H1480 H 0.83249 0.24223 0.78575 0.0
H1481 H 0.8536 0.31654 0.76612 0.0
H1482 H 0.88142 0.24114 0.82399 0.0
H1483 H 0.89193 0.23111 0.79661 0.0
H1484 H 0.86068 0.22027 0.80103 0.0
H1485 H 0.90794 0.3338 0.79908 0.0
H1486 H 0.89432 0.33773 0.76937 0.0
H1487 H 0.91735 0.31996 0.77273 0.0
C1488 C 0.50455 0.17459 0.63645 0.0
C1489 C 0.49328 0.19173 0.62536 0.0
C1490 C 0.50907 0.15408 0.6227 0.0
C1491 C 0.50139 0.1502 0.59739 0.0
C1492 C 0.48854 0.16657 0.58644 0.0
C1493 C 0.48508 0.18743 0.60046 0.0
C1494 C 0.52337 0.13749 0.63502 0.0
C1495 C 0.47925 0.16256 0.55972 0.0
C1496 C 0.53632 0.11662 0.55649 0.0
C1497 C 0.52171 0.09261 0.55277 0.0
C1498 C 0.52996 0.13547 0.57107 0.0
C1499 C 0.50838 0.13018 0.5821 0.0
C1500 C 0.49382 0.10577 0.57875 0.0
C1501 C 0.50097 0.08718 0.56451 0.0
C1502 C 0.54644 0.16102 0.5748 0.0
C1503 C 0.47067 0.0993 0.5901 0.0
H1504 H 0.51125 0.17807 0.65563 0.0
H1505 H 0.47634 0.20067 0.59186 0.0
H1506 H 0.51387 0.11773 0.63081 0.0
H1507 H 0.54115 0.1396 0.62805 0.0
H1508 H 0.52655 0.14196 0.65505 0.0
H1509 H 0.49472 0.16548 0.54892 0.0
H1510 H 0.46884 0.14318 0.55477 0.0
H1511 H 0.4675 0.1754 0.55452 0.0
H1512 H 0.55273 0.12066 0.5479 0.0
H1513 H 0.49081 0.06824 0.56332 0.0
H1514 H 0.55198 0.16668 0.59448 0.0
H1515 H 0.53667 0.17475 0.56763 0.0
H1516 H 0.56297 0.16186 0.56567 0.0
H1517 H 0.47406 0.10492 0.60991 0.0
H1518 H 0.46224 0.07914 0.58704 0.0
H1519 H 0.45759 0.1097 0.58227 0.0
C1520 C 0.62058 0.7879 0.34807 0.0
C1521 C 0.60342 0.80017 0.33779 0.0
C1522 C 0.64122 0.78596 0.33691 0.0
C1523 C 0.64503 0.79677 0.31501 0.0
C1524 C 0.62796 0.80948 0.30471 0.0
C1525 C 0.60731 0.81086 0.3161 0.0
C1526 C 0.65858 0.77173 0.34825 0.0
C1527 C 0.6315 0.82158 0.28159 0.0
C1528 C 0.7085 0.80935 0.29577 0.0
C1529 C 0.70669 0.78936 0.27813 0.0
C1530 C 0.68868 0.81191 0.30808 0.0
C1531 C 0.66645 0.79417 0.30246 0.0
C1532 C 0.66462 0.77391 0.2847 0.0
C1533 C 0.68472 0.7718 0.27274 0.0
C1534 C 0.69155 0.83356 0.32715 0.0
C1535 C 0.64143 0.75438 0.27838 0.0
H1536 H 0.61772 0.77943 0.36474 0.0
H1537 H 0.5943 0.82054 0.30808 0.0
H1538 H 0.6566 0.7538 0.33707 0.0
H1539 H 0.67757 0.78207 0.34873 0.0
H1540 H 0.65519 0.76781 0.367 0.0
H1541 H 0.61702 0.83147 0.27632 0.0
H1542 H 0.64922 0.83503 0.28379 0.0
H1543 H 0.63174 0.80734 0.26654 0.0
H1544 H 0.72541 0.82306 0.2999 0.0
H1545 H 0.68326 0.75625 0.25918 0.0
H1546 H 0.68785 0.82669 0.34488 0.0
H1547 H 0.6782 0.84483 0.32219 0.0
H1548 H 0.71001 0.84571 0.32943 0.0
H1549 H 0.63619 0.74566 0.29488 0.0
H1550 H 0.64304 0.73961 0.2644 0.0
H1551 H 0.62656 0.76307 0.27153 0.0
C1552 C 0.03565 0.19222 0.46689 0.0
C1553 C 0.03114 0.21395 0.47828 0.0
C1554 C 0.0349 0.17106 0.4792 0.0
C1555 C 0.02974 0.1718 0.50349 0.0
C1556 C 0.02594 0.19387 0.51536 0.0
C1557 C 0.02662 0.21472 0.50257 0.0
C1558 C 0.03908 0.14776 0.46603 0.0
C1559 C 0.02062 0.19526 0.54137 0.0
C1560 C 0.00299 0.11047 0.52577 0.0
C1561 C 0.0235 0.10488 0.53806 0.0
C1562 C 0.00473 0.1324 0.51456 0.0
C1563 C 0.02748 0.14915 0.51617 0.0
C1564 C 0.04812 0.14391 0.52924 0.0
C1565 C 0.04587 0.12173 0.54008 0.0
C1566 C 0.98239 0.13737 0.50056 0.0
C1567 C 0.07265 0.16139 0.53127 0.0
H1568 H 0.03918 0.19149 0.44813 0.0
H1569 H 0.02325 0.2315 0.5115 0.0
H1570 H 0.05502 0.14241 0.47549 0.0
H1571 H 0.02329 0.13217 0.46619 0.0
H1572 H 0.04213 0.15007 0.44688 0.0
H1573 H 0.0193 0.21419 0.54832 0.0
H1574 H 0.00332 0.18214 0.54286 0.0
H1575 H 0.03499 0.18962 0.55321 0.0
H1576 H 0.98566 0.09747 0.52459 0.0
H1577 H 0.06174 0.1173 0.54962 0.0
H1578 H 0.98545 0.1398 0.48145 0.0
H1579 H 0.97853 0.15488 0.5085 0.0
H1580 H 0.96622 0.12211 0.50061 0.0
H1581 H 0.07868 0.16274 0.51303 0.0
H1582 H 0.08656 0.1552 0.54328 0.0
H1583 H 0.07156 0.1803 0.53844 0.0
C1584 C 0.59076 0.29374 0.14078 0.0
C1585 C 0.57075 0.29918 0.15079 0.0
C1586 C 0.61177 0.29268 0.15574 0.0
C1587 C 0.6129 0.29792 0.18118 0.0
C1588 C 0.59313 0.30454 0.19128 0.0
C1589 C 0.57207 0.30471 0.17594 0.0
C1590 C 0.63238 0.28508 0.14441 0.0
C1591 C 0.59407 0.31104 0.21825 0.0
C1592 C 0.65667 0.27028 0.22032 0.0
C1593 C 0.67712 0.2898 0.2239 0.0
C1594 C 0.63539 0.27279 0.20667 0.0
C1595 C 0.63454 0.29564 0.1972 0.0
C1596 C 0.65484 0.31581 0.20194 0.0
C1597 C 0.6761 0.31247 0.21486 0.0
C1598 C 0.61423 0.25072 0.20151 0.0
C1599 C 0.65431 0.34069 0.19285 0.0
H1600 H 0.58962 0.28927 0.12134 0.0
H1601 H 0.5566 0.3091 0.18362 0.0
H1602 H 0.64918 0.29971 0.14921 0.0
H1603 H 0.63586 0.2679 0.15167 0.0
H1604 H 0.62859 0.28164 0.12432 0.0
H1605 H 0.57792 0.31773 0.22292 0.0
H1606 H 0.59522 0.29451 0.22795 0.0
H1607 H 0.6105 0.32562 0.22507 0.0
H1608 H 0.65765 0.25274 0.22727 0.0
H1609 H 0.69201 0.32758 0.21783 0.0
H1610 H 0.61038 0.24522 0.18166 0.0
H1611 H 0.59777 0.25565 0.20753 0.0
H1612 H 0.61766 0.23449 0.21069 0.0
H1613 H 0.6534 0.33904 0.17279 0.0
H1614 H 0.67058 0.35517 0.20054 0.0
H1615 H 0.63796 0.3469 0.19758 0.0
C1616 C 0.55199 0.8555 0.99821 0.0
C1617 C 0.54226 0.84882 0.97382 0.0
C1618 C 0.55042 0.87823 0.01025 0.0
C1619 C 0.53926 0.89471 0.9974 0.0
C1620 C 0.52962 0.88811 0.97273 0.0
C1621 C 0.53107 0.86519 0.96132 0.0
C1622 C 0.56059 0.8846 0.03666 0.0
C1623 C 0.51796 0.90538 0.95824 0.0
C1624 C 0.51356 0.94639 0.02495 0.0
C1625 C 0.53111 0.9673 0.02141 0.0
C1626 C 0.51686 0.92235 0.01908 0.0
C1627 C 0.53805 0.91926 0.00921 0.0
C1628 C 0.55658 0.94025 0.00734 0.0
C1629 C 0.55295 0.964 0.01362 0.0
C1630 C 0.49689 0.90036 0.02176 0.0
C1631 C 0.57937 0.93778 0.99671 0.0
H1632 H 0.5605 0.84282 0.00798 0.0
H1633 H 0.52365 0.86021 0.94242 0.0
H1634 H 0.57506 0.90179 0.03888 0.0
H1635 H 0.54624 0.88831 0.04748 0.0
H1636 H 0.56817 0.8695 0.04421 0.0
H1637 H 0.5115 0.89747 0.93916 0.0
H1638 H 0.50235 0.90948 0.96682 0.0
H1639 H 0.53108 0.92329 0.95808 0.0
H1640 H 0.49675 0.94873 0.03124 0.0
H1641 H 0.56674 0.98 0.01097 0.0
H1642 H 0.50444 0.88547 0.02972 0.0
H1643 H 0.48714 0.89262 0.00359 0.0
H1644 H 0.48363 0.90553 0.03332 0.0
H1645 H 0.58713 0.92305 0.00472 0.0
H1646 H 0.59334 0.95542 0.99964 0.0
H1647 H 0.57497 0.93234 0.97688 0.0
C1648 C 0.95016 0.78755 0.70065 0.0
C1649 C 0.95143 0.79772 0.6784 0.0
C1650 C 0.93117 0.78915 0.71426 0.0
C1651 C 0.9129 0.80095 0.70522 0.0
C1652 C 0.91477 0.81245 0.68345 0.0
C1653 C 0.93416 0.81081 0.67031 0.0
C1654 C 0.92991 0.7769 0.73754 0.0
C1655 C 0.89551 0.82508 0.67322 0.0
C1656 C 0.84982 0.77438 0.71925 0.0
C1657 C 0.84662 0.79231 0.73695 0.0
C1658 C 0.87138 0.77701 0.70893 0.0
C1659 C 0.89027 0.79809 0.71661 0.0
C1660 C 0.8874 0.81606 0.73492 0.0
C1661 C 0.86545 0.81297 0.74491 0.0
C1662 C 0.87375 0.75735 0.68952 0.0
C1663 C 0.90733 0.8386 0.74367 0.0
H1664 H 0.96372 0.77776 0.70719 0.0
H1665 H 0.93518 0.81882 0.65319 0.0
H1666 H 0.92567 0.78943 0.75217 0.0
H1667 H 0.91517 0.75991 0.73471 0.0
H1668 H 0.9471 0.77157 0.74373 0.0
H1669 H 0.90105 0.83561 0.65779 0.0
H1670 H 0.87867 0.81092 0.66675 0.0
H1671 H 0.8912 0.83798 0.68747 0.0
H1672 H 0.83522 0.75844 0.71308 0.0
H1673 H 0.86288 0.82684 0.75859 0.0
H1674 H 0.88928 0.74912 0.69527 0.0
H1675 H 0.87736 0.76583 0.67249 0.0
H1676 H 0.85722 0.74218 0.68556 0.0
H1677 H 0.9242 0.83283 0.75004 0.0
H1678 H 0.90256 0.85033 0.75867 0.0
H1679 H 0.91125 0.85001 0.72845 0.0
C1680 C 0.08325 0.00289 0.853 0.0
C1681 C 0.10729 1.00029 0.85547 0.0
C1682 C 0.07024 0.00263 0.87304 0.0
C1683 C 0.0817 1.00032 0.89629 0.0
C1684 C 0.10562 0.99652 0.89872 0.0
C1685 C 0.11807 0.99628 0.87818 0.0
C1686 C 0.04464 0.00625 0.86951 0.0
C1687 C 0.11864 0.9944 0.92325 0.0
C1688 C 0.06017 0.03517 0.94781 0.0
C1689 C 0.04529 0.01607 0.95794 0.0
C1690 C 0.07259 0.03011 0.9283 0.0
C1691 C 0.06981 0.0053 0.9182 0.0
C1692 C 0.05493 0.98583 0.92836 0.0
C1693 C 0.04303 0.99142 0.94833 0.0
C1694 C 0.08862 0.05144 0.91839 0.0
C1695 C 0.05126 0.95919 0.91787 0.0
H1696 H 0.07473 0.00569 0.83541 0.0
H1697 H 0.13667 0.99432 0.88017 0.0
H1698 H 0.03261 0.99258 0.87887 0.0
H1699 H 0.04418 0.02504 0.87764 0.0
H1700 H 0.03727 0.00438 0.85002 0.0
H1701 H 0.13591 0.98851 0.92174 0.0
H1702 H 0.12269 0.01267 0.93429 0.0
H1703 H 0.10706 0.98097 0.93322 0.0
H1704 H 0.0625 0.05425 0.95543 0.0
H1705 H 0.03171 0.97656 0.95618 0.0
H1706 H 0.08144 0.05287 0.89938 0.0
H1707 H 0.10711 0.04811 0.91821 0.0
H1708 H 0.0899 0.06949 0.92918 0.0
H1709 H 0.0427 0.95702 0.89876 0.0
H1710 H 0.03968 0.94614 0.92823 0.0
H1711 H 0.06896 0.95394 0.91769 0.0
C1712 C 0.72015 0.36097 0.61858 0.0
C1713 C 0.7243 0.3512 0.59573 0.0
C1714 C 0.72439 0.34922 0.63968 0.0
C1715 C 0.73312 0.32711 0.63812 0.0
C1716 C 0.73692 0.3169 0.61508 0.0
C1717 C 0.73244 0.32897 0.59426 0.0
C1718 C 0.71987 0.36069 0.66376 0.0
C1719 C 0.74616 0.29337 0.61248 0.0
C1720 C 0.76627 0.30783 0.69447 0.0
C1721 C 0.74834 0.2891 0.70138 0.0
C1722 C 0.76149 0.32065 0.67421 0.0
C1723 C 0.73821 0.31456 0.66046 0.0
C1724 C 0.71996 0.29592 0.66771 0.0
C1725 C 0.72528 0.28339 0.68794 0.0
C1726 C 0.78147 0.34046 0.66731 0.0
C1727 C 0.69481 0.28903 0.65398 0.0
H1728 H 0.71393 0.37813 0.62009 0.0
H1729 H 0.73587 0.32121 0.57685 0.0
H1730 H 0.70702 0.34703 0.67232 0.0
H1731 H 0.73701 0.36586 0.6763 0.0
H1732 H 0.71244 0.3775 0.6619 0.0
H1733 H 0.74803 0.28766 0.59334 0.0
H1734 H 0.76406 0.29604 0.62352 0.0
H1735 H 0.73369 0.27804 0.61947 0.0
H1736 H 0.78419 0.3121 0.70459 0.0
H1737 H 0.71125 0.26906 0.69329 0.0
H1738 H 0.77564 0.35829 0.66693 0.0
H1739 H 0.78547 0.33524 0.64879 0.0
H1740 H 0.79837 0.34339 0.68011 0.0
H1741 H 0.68691 0.30566 0.6535 0.0
H1742 H 0.68251 0.27452 0.66224 0.0
H1743 H 0.69561 0.28213 0.63492 0.0
C1744 C 0.46422 0.09349 0.34002 0.0
C1745 C 0.4631 0.07417 0.32181 0.0
C1746 C 0.47255 0.09153 0.36439 0.0
C1747 C 0.47951 0.06955 0.37078 0.0
C1748 C 0.47904 0.05032 0.35234 0.0
C1749 C 0.47107 0.05295 0.32815 0.0
C1750 C 0.47323 0.11267 0.3834 0.0
C1751 C 0.48596 0.02642 0.3583 0.0
C1752 C 0.51593 0.06591 0.43146 0.0
C1753 C 0.49776 0.05502 0.44497 0.0
C1754 C 0.51023 0.0716 0.40762 0.0
C1755 C 0.48581 0.06584 0.39681 0.0
C1756 C 0.46739 0.05512 0.41048 0.0
C1757 C 0.47355 0.05006 0.43438 0.0
C1758 C 0.53038 0.08341 0.39386 0.0
C1759 C 0.44117 0.04827 0.39959 0.0
H1760 H 0.45817 0.10997 0.33532 0.0
H1761 H 0.4702 0.03784 0.31429 0.0
H1762 H 0.45953 0.10679 0.39577 0.0
H1763 H 0.49117 0.11779 0.39459 0.0
H1764 H 0.46951 0.12936 0.37527 0.0
H1765 H 0.48555 0.01367 0.34179 0.0
H1766 H 0.50437 0.03039 0.36848 0.0
H1767 H 0.4733 0.01677 0.37013 0.0
H1768 H 0.53467 0.06998 0.43949 0.0
H1769 H 0.45936 0.04152 0.44455 0.0
H1770 H 0.52639 0.10034 0.38651 0.0
H1771 H 0.53177 0.0704 0.37819 0.0
H1772 H 0.54815 0.0885 0.40541 0.0
H1773 H 0.43553 0.06475 0.39289 0.0
H1774 H 0.42895 0.04071 0.41281 0.0
H1775 H 0.4388 0.03414 0.38377 0.0
C1776 C 0.78775 0.71645 0.06563 0.0
C1777 C 0.78417 0.69063 0.06594 0.0
C1778 C 0.78935 0.73198 0.08708 0.0
C1779 C 0.78726 0.72139 0.10926 0.0
C1780 C 0.78538 0.69559 0.10994 0.0
C1781 C 0.78388 0.68049 0.08823 0.0
C1782 C 0.79178 0.7595 0.0858 0.0
C1783 C 0.78336 0.6837 0.13336 0.0
C1784 C 0.80034 0.76007 0.17022 0.0
C1785 C 0.77686 0.76062 0.17516 0.0
C1786 C 0.80423 0.7482 0.14832 0.0
C1787 C 0.78409 0.73663 0.1312 0.0
C1788 C 0.76044 0.73819 0.13571 0.0
C1789 C 0.75712 0.75022 0.1577 0.0
C1790 C 0.82971 0.74701 0.14413 0.0
C1791 C 0.73853 0.72617 0.11779 0.0
H1792 H 0.78831 0.72449 0.04851 0.0
H1793 H 0.78138 0.66059 0.08867 0.0
H1794 H 0.77448 0.76454 0.08909 0.0
H1795 H 0.80597 0.77023 0.10011 0.0
H1796 H 0.7963 0.76519 0.06784 0.0
H1797 H 0.78444 0.66389 0.13118 0.0
H1798 H 0.79791 0.69378 0.14766 0.0
H1799 H 0.76582 0.68479 0.13983 0.0
H1800 H 0.81563 0.76814 0.1838 0.0
H1801 H 0.73898 0.75073 0.16158 0.0
H1802 H 0.83283 0.75041 0.12523 0.0
H1803 H 0.83253 0.72818 0.14693 0.0
H1804 H 0.8434 0.76069 0.15682 0.0
H1805 H 0.74079 0.73261 0.09963 0.0
H1806 H 0.72158 0.73029 0.12348 0.0
H1807 H 0.73659 0.70574 0.11589 0.0
C1808 C 0.13069 0.99267 0.70339 0.0
C1809 C 0.1201 0.98862 0.72478 0.0
C1810 C 0.11656 0.99396 0.68153 0.0
C1811 C 0.0912 0.99076 0.68097 0.0
C1812 C 0.08021 0.9846 0.70198 0.0
C1813 C 0.0948 0.98378 0.7237 0.0
C1814 C 0.129 1.00067 0.65955 0.0
C1815 C 0.05317 0.98047 0.70196 0.0
C1816 C 0.06171 0.02875 0.63827 0.0
C1817 C 0.0523 0.01137 0.61817 0.0
C1818 C 0.07412 0.02211 0.6589 0.0
C1819 C 0.07679 0.99732 0.6596 0.0
C1820 C 0.06654 0.97945 0.63964 0.0
C1821 C 0.05462 0.98678 0.61899 0.0
C1822 C 0.08494 0.04181 0.67969 0.0
C1823 C 0.06853 0.95275 0.63988 0.0
H1824 H 0.1502 0.99635 0.70401 0.0
H1825 H 0.08642 0.98031 0.74007 0.0
H1826 H 0.11992 0.98804 0.64328 0.0
H1827 H 0.1278 0.01979 0.65585 0.0
H1828 H 0.14839 0.99986 0.66214 0.0
H1829 H 0.04716 0.97201 0.71836 0.0
H1830 H 0.04773 0.9985 0.70146 0.0
H1831 H 0.04355 0.9683 0.68558 0.0
H1832 H 0.05994 0.04779 0.63761 0.0
H1833 H 0.04723 0.97334 0.60345 0.0
H1834 H 0.10484 0.0439 0.68268 0.0
H1835 H 0.07776 0.03622 0.69667 0.0
H1836 H 0.08104 0.06015 0.67634 0.0
H1837 H 0.0876 0.95154 0.63909 0.0
H1838 H 0.05709 0.94064 0.62429 0.0
H1839 H 0.06315 0.9455 0.65699 0.0
C1840 C 0.71954 0.35383 0.43769 0.0
C1841 C 0.72596 0.3411 0.4573 0.0
C1842 C 0.72247 0.34579 0.41374 0.0
C1843 C 0.73137 0.32406 0.40915 0.0
C1844 C 0.73656 0.3104 0.42878 0.0
C1845 C 0.7342 0.31929 0.45259 0.0
C1846 C 0.71733 0.36134 0.39357 0.0
C1847 C 0.74541 0.28678 0.42475 0.0
C1848 C 0.72516 0.29445 0.34359 0.0
C1849 C 0.74877 0.30208 0.33772 0.0
C1850 C 0.71922 0.30121 0.36678 0.0
C1851 C 0.73709 0.31668 0.38427 0.0
C1852 C 0.7608 0.3249 0.37814 0.0
C1853 C 0.7664 0.31722 0.35516 0.0
C1854 C 0.69394 0.29146 0.37271 0.0
C1855 C 0.78029 0.34195 0.39583 0.0
H1856 H 0.71346 0.37086 0.4412 0.0
H1857 H 0.73914 0.30932 0.46763 0.0
H1858 H 0.73442 0.36923 0.38633 0.0
H1859 H 0.70494 0.34972 0.37835 0.0
H1860 H 0.70916 0.37685 0.39978 0.0
H1861 H 0.74594 0.27685 0.44131 0.0
H1862 H 0.73357 0.27417 0.40978 0.0
H1863 H 0.76389 0.29117 0.41932 0.0
H1864 H 0.71146 0.28271 0.33023 0.0
H1865 H 0.7846 0.32352 0.35067 0.0
H1866 H 0.68552 0.30711 0.37775 0.0
H1867 H 0.69463 0.28062 0.38861 0.0
H1868 H 0.68218 0.27943 0.35727 0.0
H1869 H 0.77406 0.35882 0.40187 0.0
H1870 H 0.79742 0.34774 0.38784 0.0
H1871 H 0.7841 0.33254 0.41219 0.0
C1872 C 0.47104 0.07413 0.18639 0.0
C1873 C 0.44834 0.08036 0.18453 0.0
C1874 C 0.4826 0.07053 0.1657 0.0
C1875 C 0.47125 0.07313 0.14246 0.0
C1876 C 0.44854 0.07981 0.14046 0.0
C1877 C 0.43741 0.08338 0.16146 0.0
C1878 C 0.5069 0.06364 0.1687 0.0
C1879 C 0.4358 0.08279 0.11606 0.0
C1880 C 0.5113 0.08435 0.09193 0.0
C1881 C 0.5077 0.06048 0.07979 0.0
C1882 C 0.49929 0.0888 0.11205 0.0
C1883 C 0.48321 0.06888 0.12031 0.0
C1884 C 0.47916 0.04478 0.10779 0.0
C1885 C 0.49156 0.04086 0.08777 0.0
C1886 C 0.50403 0.11479 0.12464 0.0
C1887 C 0.46197 0.02307 0.11577 0.0
H1888 H 0.47971 0.07171 0.20403 0.0
H1889 H 0.41986 0.0881 0.1597 0.0
H1890 H 0.50565 0.04532 0.15848 0.0
H1891 H 0.52045 0.07741 0.16103 0.0
H1892 H 0.51353 0.06271 0.18801 0.0
H1893 H 0.41839 0.0884 0.11757 0.0
H1894 H 0.44754 0.09696 0.10695 0.0
H1895 H 0.43216 0.06506 0.10418 0.0
H1896 H 0.52366 0.09963 0.08573 0.0
H1897 H 0.48898 0.02233 0.07866 0.0
H1898 H 0.51157 0.11499 0.14387 0.0
H1899 H 0.48683 0.12111 0.12466 0.0
H1900 H 0.51685 0.12828 0.11583 0.0
H1901 H 0.46856 0.01972 0.13441 0.0
H1902 H 0.46001 0.00579 0.1035 0.0
H1903 H 0.44386 0.02729 0.11632 0.0
C1904 C 0.79044 0.72318 0.93849 0.0
C1905 C 0.78502 0.69721 0.93645 0.0
C1906 C 0.79342 0.73601 0.91795 0.0
C1907 C 0.79008 0.72243 0.89482 0.0
C1908 C 0.78663 0.69622 0.89293 0.0
C1909 C 0.7844 0.68387 0.91395 0.0
C1910 C 0.79785 0.76398 0.92082 0.0
C1911 C 0.78272 0.68107 0.86856 0.0
C1912 C 0.75643 0.74943 0.84536 0.0
C1913 C 0.77462 0.75824 0.83108 0.0
C1914 C 0.76135 0.73767 0.866 0.0
C1915 C 0.78521 0.73504 0.8729 0.0
C1916 C 0.80389 0.74454 0.85905 0.0
C1917 C 0.79831 0.75584 0.83808 0.0
C1918 C 0.74081 0.72762 0.88016 0.0
C1919 C 0.82961 0.74251 0.86621 0.0
H1920 H 0.79125 0.73346 0.95604 0.0
H1921 H 0.78019 0.66375 0.91246 0.0
H1922 H 0.81097 0.77219 0.90871 0.0
H1923 H 0.78063 0.76966 0.91567 0.0
H1924 H 0.80477 0.77181 0.93984 0.0
H1925 H 0.78433 0.66164 0.87033 0.0
H1926 H 0.76433 0.68068 0.85951 0.0
H1927 H 0.79587 0.6895 0.85658 0.0
H1928 H 0.73802 0.75099 0.84003 0.0
H1929 H 0.81245 0.76256 0.82708 0.0
H1930 H 0.74453 0.7368 0.899 0.0
H1931 H 0.7392 0.70743 0.88123 0.0
H1932 H 0.72317 0.73053 0.87188 0.0
H1933 H 0.83561 0.75001 0.88544 0.0
H1934 H 0.84233 0.7526 0.85465 0.0
H1935 H 0.83067 0.72272 0.86465 0.0
C1936 C 0.87776 0.11938 0.99869 0.0
C1937 C 0.86844 0.12202 0.02086 0.0
C1938 C 0.89562 0.10555 0.99594 0.0
C1939 C 0.90485 0.09455 0.01598 0.0
C1940 C 0.89603 0.09788 0.03859 0.0
C1941 C 0.87777 0.11122 0.04066 0.0
C1942 C 0.90426 0.10228 0.97144 0.0
C1943 C 0.90574 0.08715 0.06065 0.0
C1944 C 0.93294 0.03811 0.00784 0.0
C1945 C 0.95779 0.04882 0.01194 0.0
C1946 C 0.91559 0.05282 0.00809 0.0
C1947 C 0.92318 0.07895 0.01328 0.0
C1948 C 0.94829 0.08988 0.01726 0.0
C1949 C 0.9652 0.0747 0.01645 0.0
C1950 C 0.88909 0.0403 0.00333 0.0
C1951 C 0.9574 0.1175 0.02359 0.0
H1952 H 0.87063 0.12758 0.98327 0.0
H1953 H 0.87086 0.11331 0.05793 0.0
H1954 H 0.92414 0.1093 0.97297 0.0
H1955 H 0.90037 0.08225 0.96487 0.0
H1956 H 0.8955 0.11214 0.95771 0.0
H1957 H 0.8986 0.0932 0.07736 0.0
H1958 H 0.90077 0.06659 0.05771 0.0
H1959 H 0.92579 0.09275 0.0636 0.0
H1960 H 0.92702 0.01809 0.00459 0.0
H1961 H 0.98414 0.08316 0.02068 0.0
H1962 H 0.87982 0.04909 0.98904 0.0
H1963 H 0.88043 0.04263 0.02003 0.0
H1964 H 0.88615 0.02014 0.99755 0.0
H1965 H 0.94837 0.12786 0.0106 0.0
H1966 H 0.97728 0.1234 0.02359 0.0
H1967 H 0.95296 0.12281 0.04191 0.0
C1968 C 0.33237 0.44696 0.05814 0.0
C1969 C 0.31532 0.4575 0.06905 0.0
C1970 C 0.35594 0.46064 0.05775 0.0
C1971 C 0.36266 0.48542 0.06865 0.0
C1972 C 0.34598 0.49579 0.08079 0.0
C1973 C 0.32243 0.4817 0.08082 0.0
C1974 C 0.3733 0.44892 0.04468 0.0
C1975 C 0.35268 0.52208 0.09284 0.0
C1976 C 0.4301 0.51236 0.07697 0.0
C1977 C 0.43292 0.52409 0.05567 0.0
C1978 C 0.40712 0.50078 0.08218 0.0
C1979 C 0.38657 0.50086 0.06563 0.0
C1980 C 0.38918 0.51379 0.04478 0.0
C1981 C 0.41234 0.52531 0.04008 0.0
C1982 C 0.40497 0.48735 0.10471 0.0
C1983 C 0.36764 0.51427 0.0267 0.0
H1984 H 0.3271 0.42823 0.04914 0.0
H1985 H 0.3094 0.48994 0.08942 0.0
H1986 H 0.3778 0.45887 0.02864 0.0
H1987 H 0.39045 0.45054 0.05672 0.0
H1988 H 0.36571 0.429 0.03842 0.0
H1989 H 0.33856 0.52645 0.1037 0.0
H1990 H 0.37006 0.52528 0.10488 0.0
H1991 H 0.35523 0.53523 0.0788 0.0
H1992 H 0.44589 0.51146 0.08923 0.0
H1993 H 0.41432 0.53442 0.02364 0.0
H1994 H 0.40004 0.46703 0.09947 0.0
H1995 H 0.39041 0.49219 0.11457 0.0
H1996 H 0.42214 0.49177 0.11724 0.0
H1997 H 0.35985 0.49529 0.01766 0.0
H1998 H 0.37251 0.52684 0.01253 0.0
H1999 H 0.35333 0.52032 0.03608 0.0
C2000 C 0.30386 0.61205 0.74069 0.0
C2001 C 0.32906 0.61528 0.74384 0.0
C2002 C 0.29289 0.63182 0.74634 0.0
C2003 C 0.3075 0.65569 0.75441 0.0
C2004 C 0.33302 0.65901 0.75783 0.0
C2005 C 0.34349 0.63861 0.75293 0.0
C2006 C 0.26562 0.62722 0.74328 0.0
C2007 C 0.34928 0.6843 0.76559 0.0
C2008 C 0.27627 0.70779 0.73976 0.0
C2009 C 0.27041 0.7155 0.76246 0.0
C2010 C 0.28949 0.68931 0.7372 0.0
C2011 C 0.29595 0.6773 0.75764 0.0
C2012 C 0.28996 0.68501 0.78067 0.0
C2013 C 0.2776 0.70436 0.78287 0.0
C2014 C 0.29637 0.68256 0.71252 0.0
C2015 C 0.29584 0.67225 0.80278 0.0
H2016 H 0.29268 0.59395 0.73387 0.0
H2017 H 0.36301 0.64114 0.75521 0.0
H2018 H 0.25934 0.63472 0.7599 0.0
H2019 H 0.25938 0.63701 0.72805 0.0
H2020 H 0.25692 0.60717 0.73946 0.0
H2021 H 0.3687 0.68364 0.76818 0.0
H2022 H 0.34656 0.69704 0.75164 0.0
H2023 H 0.34456 0.69237 0.78278 0.0
H2024 H 0.27082 0.71652 0.72399 0.0
H2025 H 0.27297 0.71035 0.80041 0.0
H2026 H 0.28601 0.66369 0.70523 0.0
H2027 H 0.31587 0.68232 0.7139 0.0
H2028 H 0.29264 0.69578 0.69938 0.0
H2029 H 0.29082 0.68108 0.8195 0.0
H2030 H 0.31542 0.67248 0.80562 0.0
H2031 H 0.28598 0.6525 0.79995 0.0
C2032 C 0.21337 0.64121 0.49489 0.0
C2033 C 0.23258 0.63044 0.5029 0.0
C2034 C 0.18924 0.62886 0.49512 0.0
C2035 C 0.18407 0.605 0.50336 0.0
C2036 C 0.20327 0.59338 0.51012 0.0
C2037 C 0.22732 0.60626 0.50989 0.0
C2038 C 0.16933 0.64196 0.4878 0.0
C2039 C 0.19846 0.56781 0.51869 0.0
C2040 C 0.12611 0.58937 0.53241 0.0
C2041 C 0.10992 0.57523 0.51328 0.0
C2042 C 0.15042 0.59865 0.52954 0.0
C2043 C 0.15879 0.59344 0.50705 0.0
C2044 C 0.14262 0.57854 0.48787 0.0
C2045 C 0.11829 0.56971 0.49117 0.0
C2046 C 0.16698 0.61467 0.55038 0.0
C2047 C 0.15089 0.57236 0.46372 0.0
H2048 H 0.21714 0.65979 0.48929 0.0
H2049 H 0.24198 0.59769 0.51599 0.0
H2050 H 0.1553 0.62981 0.47424 0.0
H2051 H 0.16042 0.64622 0.5039 0.0
H2052 H 0.17621 0.65959 0.48002 0.0
H2053 H 0.21498 0.56017 0.52048 0.0
H2054 H 0.19169 0.56864 0.53663 0.0
H2055 H 0.18425 0.55484 0.50594 0.0
H2056 H 0.11965 0.59366 0.54951 0.0
H2057 H 0.10577 0.55869 0.47638 0.0
H2058 H 0.17351 0.63357 0.54501 0.0
H2059 H 0.1831 0.60691 0.55494 0.0
H2060 H 0.15786 0.61627 0.56692 0.0
H2061 H 0.15636 0.58957 0.45485 0.0
H2062 H 0.13651 0.55918 0.45127 0.0
H2063 H 0.16698 0.56414 0.46644 0.0
C2064 C 0.65623 0.90292 0.75467 0.0
C2065 C 0.66283 0.9252 0.76989 0.0
C2066 C 0.66974 0.8845 0.75668 0.0
C2067 C 0.69086 0.88889 0.77374 0.0
C2068 C 0.69722 0.91122 0.78954 0.0
C2069 C 0.68294 0.92899 0.78759 0.0
C2070 C 0.66194 0.86073 0.73992 0.0
C2071 C 0.71991 0.91706 0.80746 0.0
C2072 C 0.72164 0.83551 0.78725 0.0
C2073 C 0.73874 0.83789 0.77075 0.0
C2074 C 0.70584 0.85189 0.78849 0.0
C2075 C 0.70756 0.87138 0.77321 0.0
C2076 C 0.72525 0.87412 0.75696 0.0
C2077 C 0.74044 0.8573 0.75584 0.0
C2078 C 0.68731 0.84834 0.80609 0.0
C2079 C 0.72815 0.89485 0.74067 0.0
H2080 H 0.64071 0.90009 0.7409 0.0
H2081 H 0.68819 0.94641 0.79911 0.0
H2082 H 0.6752 0.86006 0.72679 0.0
H2083 H 0.66149 0.84447 0.75046 0.0
H2084 H 0.64382 0.85899 0.72957 0.0
H2085 H 0.72124 0.93417 0.81979 0.0
H2086 H 0.72061 0.90142 0.81857 0.0
H2087 H 0.73597 0.91965 0.79748 0.0
H2088 H 0.72059 0.82086 0.79917 0.0
H2089 H 0.75366 0.85933 0.74307 0.0
H2090 H 0.66912 0.84788 0.79655 0.0
H2091 H 0.69157 0.86425 0.82036 0.0
H2092 H 0.6867 0.83102 0.81501 0.0
H2093 H 0.71139 0.89281 0.72792 0.0
H2094 H 0.74355 0.89514 0.72994 0.0
H2095 H 0.73109 0.91303 0.75169 0.0
C2096 C 0.68358 0.98094 0.5506 0.0
C2097 C 0.70274 0.97583 0.53892 0.0
C2098 C 0.66583 0.99111 0.53853 0.0
C2099 C 0.66792 0.99728 0.5145 0.0
C2100 C 0.68761 0.99266 0.50276 0.0
C2101 C 0.70461 0.98143 0.515 0.0
C2102 C 0.64467 0.99492 0.55147 0.0
C2103 C 0.69072 0.99967 0.47745 0.0
C2104 C 0.6068 1.00132 0.48522 0.0
C2105 C 0.60643 0.02558 0.49399 0.0
C2106 C 0.62786 0.9923 0.48932 0.0
C2107 C 0.649 0.00819 0.50204 0.0
C2108 C 0.64956 0.03368 0.50761 0.0
C2109 C 0.62807 0.04206 0.50378 0.0
C2110 C 0.62628 0.96501 0.48282 0.0
C2111 C 0.67209 0.05147 0.52011 0.0
H2112 H 0.68211 0.97632 0.56904 0.0
H2113 H 0.71962 0.97751 0.50611 0.0
H2114 H 0.64467 0.01497 0.55393 0.0
H2115 H 0.6274 0.98532 0.5404 0.0
H2116 H 0.64514 0.98784 0.5696 0.0
H2117 H 0.70739 0.99543 0.47115 0.0
H2118 H 0.67492 0.9896 0.46453 0.0
H2119 H 0.69153 0.0198 0.47692 0.0
H2120 H 0.59012 0.98868 0.47716 0.0
H2121 H 0.62788 0.061 0.51012 0.0
H2122 H 0.61986 0.95465 0.49803 0.0
H2123 H 0.64399 0.96105 0.47959 0.0
H2124 H 0.61315 0.95785 0.46634 0.0
H2125 H 0.67394 0.0492 0.53979 0.0
H2126 H 0.67134 0.07107 0.51797 0.0
H2127 H 0.68846 0.0476 0.51285 0.0
C2128 C 0.35451 0.46821 0.75188 0.0
C2129 C 0.34117 0.48457 0.74225 0.0
C2130 C 0.34353 0.44335 0.75377 0.0
C2131 C 0.31853 0.43451 0.74591 0.0
C2132 C 0.30494 0.45083 0.73602 0.0
C2133 C 0.31642 0.47565 0.73427 0.0
C2134 C 0.35871 0.42658 0.76438 0.0
C2135 C 0.27823 0.44212 0.72751 0.0
C2136 C 0.29659 0.3643 0.73401 0.0
C2137 C 0.28813 0.3582 0.75604 0.0
C2138 C 0.30586 0.38912 0.73015 0.0
C2139 C 0.30664 0.40834 0.74872 0.0
C2140 C 0.29741 0.40237 0.77067 0.0
C2141 C 0.28833 0.37743 0.77408 0.0
C2142 C 0.31555 0.3947 0.70649 0.0
C2143 C 0.29781 0.42228 0.7909 0.0
H2144 H 0.37364 0.47481 0.75805 0.0
H2145 H 0.30594 0.4881 0.7268 0.0
H2146 H 0.35167 0.41971 0.78101 0.0
H2147 H 0.35756 0.41013 0.75128 0.0
H2148 H 0.37803 0.43615 0.76912 0.0
H2149 H 0.27033 0.45692 0.71976 0.0
H2150 H 0.27505 0.426 0.71355 0.0
H2151 H 0.26848 0.43581 0.74292 0.0
H2152 H 0.29655 0.34963 0.71995 0.0
H2153 H 0.28174 0.37301 0.79113 0.0
H2154 H 0.33533 0.4025 0.70995 0.0
H2155 H 0.30716 0.40889 0.69819 0.0
H2156 H 0.31214 0.37791 0.69327 0.0
H2157 H 0.3168 0.43141 0.79798 0.0
H2158 H 0.28852 0.41476 0.80619 0.0
H2159 H 0.28899 0.43681 0.78396 0.0
C2160 C 0.16424 0.59058 0.28709 0.0
C2161 C 0.17239 0.56847 0.2844 0.0
C2162 C 0.17985 0.61369 0.28646 0.0
C2163 C 0.20444 0.61488 0.28362 0.0
C2164 C 0.2131 0.59275 0.28203 0.0
C2165 C 0.19689 0.56974 0.28211 0.0
C2166 C 0.16973 0.63678 0.2878 0.0
C2167 C 0.23933 0.59334 0.27965 0.0
C2168 C 0.2339 0.67173 0.25501 0.0
C2169 C 0.24396 0.68836 0.27552 0.0
C2170 C 0.2219 0.64732 0.25736 0.0
C2171 C 0.22043 0.63923 0.28079 0.0
C2172 C 0.23203 0.65552 0.3015 0.0
C2173 C 0.2434 0.68004 0.29863 0.0
C2174 C 0.2094 0.63075 0.23484 0.0
C2175 C 0.23143 0.64744 0.32674 0.0
H2176 H 0.14533 0.58981 0.28873 0.0
H2177 H 0.20335 0.55275 0.28019 0.0
H2178 H 0.17997 0.65033 0.30294 0.0
H2179 H 0.17175 0.6458 0.27079 0.0
H2180 H 0.1503 0.63271 0.29047 0.0
H2181 H 0.24372 0.57489 0.28121 0.0
H2182 H 0.24361 0.5994 0.26179 0.0
H2183 H 0.2512 0.60698 0.29383 0.0
H2184 H 0.23426 0.67819 0.23713 0.0
H2185 H 0.25132 0.69289 0.31451 0.0
H2186 H 0.18953 0.62706 0.23509 0.0
H2187 H 0.21467 0.6126 0.23441 0.0
H2188 H 0.21371 0.63919 0.21792 0.0
H2189 H 0.2129 0.64556 0.33187 0.0
H2190 H 0.24413 0.66097 0.34045 0.0
H2191 H 0.23607 0.62903 0.32733 0.0
C2192 C 0.55839 0.73694 0.44947 0.0
C2193 C 0.54362 0.73707 0.42769 0.0
C2194 C 0.55645 0.71554 0.46174 0.0
C2195 C 0.53945 0.69359 0.45194 0.0
C2196 C 0.52432 0.69363 0.43007 0.0
C2197 C 0.52652 0.7154 0.41825 0.0
C2198 C 0.57276 0.71637 0.48513 0.0
C2199 C 0.50604 0.67057 0.41899 0.0
C2200 C 0.55079 0.63218 0.47121 0.0
C2201 C 0.53467 0.62706 0.48844 0.0
C2202 C 0.55243 0.6537 0.45909 0.0
C2203 C 0.53772 0.67056 0.46449 0.0
C2204 C 0.52159 0.66553 0.48209 0.0
C2205 C 0.52019 0.64378 0.49378 0.0
C2206 C 0.56976 0.6583 0.44036 0.0
C2207 C 0.50576 0.68309 0.48855 0.0
H2208 H 0.57161 0.7536 0.45697 0.0
H2209 H 0.51508 0.71531 0.40141 0.0
H2210 H 0.56173 0.71103 0.49994 0.0
H2211 H 0.58434 0.70279 0.48307 0.0
H2212 H 0.58461 0.73506 0.49065 0.0
H2213 H 0.49547 0.67369 0.40204 0.0
H2214 H 0.51539 0.65541 0.4148 0.0
H2215 H 0.49331 0.66412 0.43211 0.0
H2216 H 0.56189 0.61919 0.46695 0.0
H2217 H 0.50765 0.63981 0.50706 0.0
H2218 H 0.58307 0.67614 0.44567 0.0
H2219 H 0.55973 0.65986 0.42258 0.0
H2220 H 0.57973 0.64327 0.43808 0.0
H2221 H 0.51715 0.7017 0.49526 0.0
H2222 H 0.49423 0.67652 0.50268 0.0
H2223 H 0.49388 0.68531 0.47216 0.0
C2224 C 0.57452 0.27944 0.7299 0.0
C2225 C 0.57014 0.27966 0.70465 0.0
C2226 C 0.59816 0.28207 0.74165 0.0
C2227 C 0.61784 0.28445 0.72777 0.0
C2228 C 0.6136 0.28534 0.70237 0.0
C2229 C 0.58989 0.28318 0.69119 0.0
C2230 C 0.602 0.2816 0.76882 0.0
C2231 C 0.63398 0.28749 0.6868 0.0
C2232 C 0.6838 0.30664 0.75515 0.0
C2233 C 0.69121 0.28414 0.75632 0.0
C2234 C 0.65968 0.30704 0.74701 0.0
C2235 C 0.64268 0.28443 0.73937 0.0
C2236 C 0.64992 0.26166 0.74116 0.0
C2237 C 0.67399 0.26179 0.7498 0.0
C2238 C 0.65261 0.3317 0.74582 0.0
C2239 C 0.63253 0.23712 0.73282 0.0
H2240 H 0.55942 0.27686 0.74047 0.0
H2241 H 0.58677 0.28327 0.67167 0.0
H2242 H 0.60805 0.26453 0.77318 0.0
H2243 H 0.61646 0.29766 0.77715 0.0
H2244 H 0.58527 0.28206 0.77725 0.0
H2245 H 0.62781 0.28878 0.66745 0.0
H2246 H 0.64846 0.30411 0.69356 0.0
H2247 H 0.64213 0.27106 0.68791 0.0
H2248 H 0.69694 0.32401 0.76021 0.0
H2249 H 0.67953 0.24429 0.75042 0.0
H2250 H 0.63586 0.33154 0.75437 0.0
H2251 H 0.64873 0.33506 0.72658 0.0
H2252 H 0.66709 0.34736 0.75498 0.0
H2253 H 0.61601 0.23557 0.74201 0.0
H2254 H 0.64064 0.22104 0.73648 0.0
H2255 H 0.62682 0.23603 0.71302 0.0
C2256 C 0.01192 0.36558 0.9484 0.0
C2257 C 0.02593 0.36465 0.92922 0.0
C2258 C 0.01053 0.38827 0.96045 0.0
C2259 C 0.02337 0.41069 0.95311 0.0
C2260 C 0.03854 0.4099 0.93461 0.0
C2261 C 0.03964 0.38685 0.92284 0.0
C2262 C 0.99447 0.38826 0.98036 0.0
C2263 C 0.05271 0.43342 0.92647 0.0
C2264 C 0.99394 0.46504 0.96449 0.0
C2265 C 0.00741 0.47714 0.98615 0.0
C2266 C 0.99967 0.444 0.953 0.0
C2267 C 0.01924 0.43475 0.96357 0.0
C2268 C 0.03338 0.4474 0.9851 0.0
C2269 C 0.02723 0.46845 0.99619 0.0
C2270 C 0.98424 0.43118 0.92997 0.0
C2271 C 0.05427 0.43815 0.99714 0.0
H2272 H 1.00147 0.34851 0.95364 0.0
H2273 H 0.05054 0.38628 0.90807 0.0
H2274 H 0.00473 0.39955 0.99697 0.0
H2275 H 0.97917 0.39684 0.97458 0.0
H2276 H 0.98698 0.36925 0.98501 0.0
H2277 H 0.04018 0.44229 0.91547 0.0
H2278 H 0.06145 0.44687 0.94231 0.0
H2279 H 0.06683 0.42974 0.91527 0.0
H2280 H 0.97868 0.47185 0.95666 0.0
H2281 H 0.03757 0.47769 0.01308 0.0
H2282 H 0.97446 0.41242 0.9333 0.0
H2283 H 0.9958 0.42874 0.91554 0.0
H2284 H 0.97074 0.44166 0.92323 0.0
H2285 H 0.04716 0.42287 0.00799 0.0
H2286 H 0.06694 0.45305 0.00955 0.0
H2287 H 0.06445 0.43068 0.98353 0.0
C2288 C 0.93152 0.75529 0.23411 0.0
C2289 C 0.93843 0.7663 0.21331 0.0
C2290 C 0.9107 0.75887 0.24406 0.0
C2291 C 0.89622 0.77375 0.23294 0.0
C2292 C 0.90287 0.78465 0.21174 0.0
C2293 C 0.92393 0.7809 0.20225 0.0
C2294 C 0.90432 0.7469 0.26667 0.0
C2295 C 0.88783 0.80044 0.19918 0.0
C2296 C 0.8318 0.76569 0.24927 0.0
C2297 C 0.83414 0.78583 0.26689 0.0
C2298 C 0.85163 0.76193 0.23753 0.0
C2299 C 0.87453 0.77837 0.24398 0.0
C2300 C 0.87695 0.79873 0.26181 0.0
C2301 C 0.85673 0.80224 0.27297 0.0
C2302 C 0.8481 0.74017 0.21845 0.0
C2303 C 0.90099 0.81666 0.26932 0.0
H2304 H 0.94252 0.74395 0.24281 0.0
H2305 H 0.92902 0.7894 0.18612 0.0
H2306 H 0.90419 0.7614 0.28152 0.0
H2307 H 0.88588 0.73479 0.26323 0.0
H2308 H 0.91723 0.73558 0.27294 0.0
H2309 H 0.89443 0.80614 0.18195 0.0
H2310 H 0.86867 0.7902 0.19519 0.0
H2311 H 0.88824 0.81738 0.21135 0.0
H2312 H 0.81448 0.7527 0.24477 0.0
H2313 H 0.85865 0.81783 0.28658 0.0
H2314 H 0.85846 0.72665 0.22504 0.0
H2315 H 0.85516 0.74642 0.20162 0.0
H2316 H 0.82877 0.73053 0.2139 0.0
H2317 H 0.91442 0.80662 0.27706 0.0
H2318 H 0.89976 0.83186 0.28301 0.0
H2319 H 0.90795 0.82496 0.25325 0.0
C2320 C 0.51838 0.37039 0.04681 0.0
C2321 C 0.50939 0.36275 0.06814 0.0
C2322 C 0.51631 0.39331 0.03891 0.0
C2323 C 0.50523 0.40912 0.05282 0.0
C2324 C 0.49628 0.40164 0.07449 0.0
C2325 C 0.4983 0.37841 0.08181 0.0
C2326 C 0.5259 0.40057 0.0156 0.0
C2327 C 0.48472 0.41825 0.08998 0.0
C2328 C 0.51973 0.47705 0.04171 0.0
C2329 C 0.49904 0.4787 0.02658 0.0
C2330 C 0.52169 0.45468 0.05105 0.0
C2331 C 0.50279 0.43334 0.04441 0.0
C2332 C 0.48197 0.43487 0.02888 0.0
C2333 C 0.48031 0.45762 0.02021 0.0
C2334 C 0.54403 0.45387 0.06783 0.0
C2335 C 0.46155 0.41245 0.02125 0.0
H2336 H 0.52693 0.35834 0.03614 0.0
H2337 H 0.49149 0.37267 0.09842 0.0
H2338 H 0.51111 0.404 1.00263 0.0
H2339 H 0.53994 0.4181 0.01924 0.0
H2340 H 0.53389 0.38607 0.00682 0.0
H2341 H 0.47913 0.40991 0.10658 0.0
H2342 H 0.49755 0.43637 0.09551 0.0
H2343 H 0.46857 0.42206 0.07935 0.0
H2344 H 0.53442 0.49328 0.04627 0.0
H2345 H 0.46431 0.4589 0.00847 0.0
H2346 H 0.55604 0.47256 0.07286 0.0
H2347 H 0.5544 0.44169 0.05892 0.0
H2348 H 0.53891 0.44585 0.08469 0.0
H2349 H 0.46836 0.39772 0.01137 0.0
H2350 H 0.44646 0.41687 0.00935 0.0
H2351 H 0.45437 0.40476 0.03749 0.0
C2352 C 0.95908 0.26045 0.36982 0.0
C2353 C 0.96154 0.27109 0.39391 0.0
C2354 C 0.93922 0.26149 0.35327 0.0
C2355 C 0.92141 0.27347 0.36104 0.0
C2356 C 0.92354 0.28396 0.38538 0.0
C2357 C 0.94362 0.28262 0.40159 0.0
C2358 C 0.93738 0.24998 0.32746 0.0
C2359 C 0.90472 0.29681 0.3942 0.0
C2360 C 0.88088 0.29738 0.31482 0.0
C2361 C 0.85945 0.27925 0.3134 0.0
C2362 C 0.90148 0.29549 0.32998 0.0
C2363 C 0.90043 0.27492 0.34372 0.0
C2364 C 0.87909 0.25603 0.34146 0.0
C2365 C 0.85877 0.25848 0.32631 0.0
C2366 C 0.92407 0.31586 0.33192 0.0
C2367 C 0.87746 0.23367 0.3556 0.0
H2368 H 0.97283 0.25143 0.36374 0.0
H2369 H 0.94544 0.29091 0.42015 0.0
H2370 H 0.92022 0.23581 0.32282 0.0
H2371 H 0.93707 0.26438 0.31473 0.0
H2372 H 0.95268 0.24108 0.32444 0.0
H2373 H 0.90904 0.30392 0.41372 0.0
H2374 H 0.90325 0.3126 0.38347 0.0
H2375 H 0.88675 0.28378 0.39145 0.0
H2376 H 0.88128 0.31342 0.30477 0.0
H2377 H 0.84216 0.24436 0.32497 0.0
H2378 H 0.93977 0.30792 0.32818 0.0
H2379 H 0.92815 0.32527 0.35068 0.0
H2380 H 0.92225 0.32997 0.31913 0.0
H2381 H 0.89244 0.22437 0.35249 0.0
H2382 H 0.86002 0.21994 0.35056 0.0
H2383 H 0.87936 0.23968 0.37531 0.0
C2384 C 0.99021 0.70711 0.5912 0.0
C2385 C 0.99173 0.729 0.57988 0.0
C2386 C 0.98921 0.68447 0.57767 0.0
C2387 C 0.98923 0.68371 0.55219 0.0
C2388 C 0.98897 0.7054 0.54048 0.0
C2389 C 0.9905 0.7279 0.55452 0.0
C2390 C 0.98968 0.66169 0.59082 0.0
C2391 C 0.98828 0.70509 0.51328 0.0
C2392 C 0.01833 0.63389 0.5266 0.0
C2393 C 0.9982 0.6142 0.51993 0.0
C2394 C 0.01553 0.65711 0.53603 0.0
C2395 C 0.99202 0.66078 0.53836 0.0
C2396 C 0.97155 0.64161 0.52974 0.0
C2397 C 0.97489 0.6184 0.52082 0.0
C2398 C 0.03784 0.67707 0.54524 0.0
C2399 C 0.94619 0.64508 0.53134 0.0
H2400 H 0.99116 0.70789 0.6108 0.0
H2401 H 0.99136 0.74476 0.54568 0.0
H2402 H 0.97444 0.64621 0.58294 0.0
H2403 H 0.00667 0.65551 0.58856 0.0
H2404 H 0.98858 0.66518 0.61054 0.0
H2405 H 0.98458 0.72251 0.50673 0.0
H2406 H 0.00593 0.70279 0.50792 0.0
H2407 H 0.97423 0.68917 0.50398 0.0
H2408 H 0.03639 0.63074 0.52606 0.0
H2409 H 0.95926 0.60326 0.51548 0.0
H2410 H 0.03926 0.68049 0.56529 0.0
H2411 H 0.03657 0.69476 0.53771 0.0
H2412 H 0.05468 0.67189 0.54044 0.0
H2413 H 0.94239 0.64483 0.55046 0.0
H2414 H 0.93242 0.63017 0.52007 0.0
H2415 H 0.94421 0.66329 0.52546 0.0
C2416 C 0.57256 0.76722 0.85705 0.0
C2417 C 0.58454 0.77519 0.88056 0.0
C2418 C 0.58552 0.76396 0.83748 0.0
C2419 C 0.61104 0.76916 0.8415 0.0
C2420 C 0.62327 0.77755 0.86511 0.0
C2421 C 0.60984 0.78024 0.88444 0.0
C2422 C 0.57194 0.75487 0.81256 0.0
C2423 C 0.65055 0.78372 0.86993 0.0
C2424 C 0.64956 0.74136 0.80093 0.0
C2425 C 0.65921 0.76182 0.789 0.0
C2426 C 0.63251 0.74296 0.817 0.0
C2427 C 0.62515 0.7656 0.82117 0.0
C2428 C 0.6333 0.78557 0.80752 0.0
C2429 C 0.65026 0.78339 0.79149 0.0
C2430 C 0.62372 0.72106 0.83078 0.0
C2431 C 0.62575 0.80996 0.81121 0.0
H2432 H 0.55297 0.76316 0.85396 0.0
H2433 H 0.61915 0.78655 0.90255 0.0
H2434 H 0.57742 0.76867 0.79964 0.0
H2435 H 0.57657 0.73735 0.80572 0.0
H2436 H 0.55202 0.75153 0.81253 0.0
H2437 H 0.65727 0.79059 0.88922 0.0
H2438 H 0.65758 0.76701 0.86514 0.0
H2439 H 0.65813 0.79812 0.85834 0.0
H2440 H 0.65638 0.72459 0.79884 0.0
H2441 H 0.65756 0.79911 0.78199 0.0
H2442 H 0.6038 0.71744 0.83052 0.0
H2443 H 0.63187 0.72526 0.85004 0.0
H2444 H 0.62863 0.70394 0.82318 0.0
H2445 H 0.60663 0.80723 0.81474 0.0
H2446 H 0.62808 0.82059 0.79518 0.0
H2447 H 0.6372 0.8213 0.82719 0.0
C2448 C 0.44348 0.58084 0.68695 0.0
C2449 C 0.41842 0.57143 0.68185 0.0
C2450 C 0.45867 0.5807 0.66868 0.0
C2451 C 0.44863 0.57045 0.64482 0.0
C2452 C 0.42321 0.56203 0.63931 0.0
C2453 C 0.40839 0.5628 0.65786 0.0
C2454 C 0.48558 0.59042 0.67518 0.0
C2455 C 0.41172 0.55056 0.61422 0.0
C2456 C 0.48514 0.57866 0.59135 0.0
C2457 C 0.49243 0.55601 0.589 0.0
C2458 C 0.47139 0.58397 0.60981 0.0
C2459 C 0.46479 0.56623 0.62629 0.0
C2460 C 0.47289 0.54379 0.62457 0.0
C2461 C 0.48665 0.53901 0.60603 0.0
C2462 C 0.46303 0.60805 0.611 0.0
C2463 C 0.46614 0.5243 0.64169 0.0
H2464 H 0.45134 0.58777 0.70542 0.0
H2465 H 0.38907 0.55536 0.6538 0.0
H2466 H 0.49484 0.57474 0.67428 0.0
H2467 H 0.49281 0.60319 0.66197 0.0
H2468 H 0.49022 0.60039 0.69372 0.0
H2469 H 0.39199 0.54983 0.61157 0.0
H2470 H 0.4203 0.56095 0.60003 0.0
H2471 H 0.41437 0.53132 0.61156 0.0
H2472 H 0.48923 0.59183 0.57815 0.0
H2473 H 0.49216 0.52147 0.60442 0.0
H2474 H 0.46758 0.61769 0.62965 0.0
H2475 H 0.44308 0.60416 0.60657 0.0
H2476 H 0.47127 0.62071 0.59813 0.0
H2477 H 0.47191 0.53242 0.66077 0.0
H2478 H 0.47447 0.50816 0.63837 0.0
H2479 H 0.4462 0.51755 0.63957 0.0
C2480 C 0.80722 0.21772 0.92558 0.0
C2481 C 0.79748 0.22703 0.94554 0.0
C2482 C 0.80405 0.22666 0.90268 0.0
C2483 C 0.79109 0.24564 0.89964 0.0
C2484 C 0.78156 0.25534 0.91984 0.0
C2485 C 0.78472 0.24585 0.94239 0.0
C2486 C 0.8143 0.21559 0.88163 0.0
C2487 C 0.76797 0.27582 0.91762 0.0
C2488 C 0.80175 0.28671 0.84812 0.0
C2489 C 0.78086 0.27753 0.83154 0.0
C2490 C 0.80547 0.27626 0.87005 0.0
C2491 C 0.78797 0.25588 0.8756 0.0
C2492 C 0.76705 0.24615 0.85865 0.0
C2493 C 0.76362 0.25727 0.83697 0.0
C2494 C 0.82795 0.28742 0.88751 0.0
C2495 C 0.7481 0.2242 0.86357 0.0
H2496 H 0.8169 0.20303 0.92771 0.0
H2497 H 0.77709 0.25319 0.95763 0.0
H2498 H 0.79957 0.20765 0.86669 0.0
H2499 H 0.82731 0.23026 0.8744 0.0
H2500 H 0.82367 0.20078 0.88682 0.0
H2501 H 0.76185 0.28152 0.93505 0.0
H2502 H 0.77965 0.29227 0.91147 0.0
H2503 H 0.7519 0.26964 0.90376 0.0
H2504 H 0.81521 0.30235 0.84406 0.0
H2505 H 0.74724 0.25038 0.8245 0.0
H2506 H 0.83809 0.27297 0.89179 0.0
H2507 H 0.8228 0.29478 0.90482 0.0
H2508 H 0.84018 0.30272 0.88018 0.0
H2509 H 0.75662 0.20859 0.86796 0.0
H2510 H 0.73385 0.21768 0.84785 0.0
H2511 H 0.73942 0.2293 0.87956 0.0
C2512 C 0.07712 0.47997 0.18943 0.0
C2513 C 0.07658 0.4968 0.20941 0.0
C2514 C 0.06668 0.48277 0.166 0.0
C2515 C 0.05615 0.50339 0.16225 0.0
C2516 C 0.05497 0.52003 0.18249 0.0
C2517 C 0.06483 0.51632 0.2058 0.0
C2518 C 0.06767 0.46412 0.14513 0.0
C2519 C 0.04458 0.54264 0.17936 0.0
C2520 C 0.05794 0.52758 0.10002 0.0
C2521 C 0.03371 0.52008 0.08965 0.0
C2522 C 0.06535 0.52246 0.12361 0.0
C2523 C 0.04828 0.50876 0.13704 0.0
C2524 C 0.02381 0.50076 0.1265 0.0
C2525 C 0.01673 0.50688 0.10311 0.0
C2526 C 0.09145 0.53205 0.13428 0.0
C2527 C 0.00517 0.4855 0.13984 0.0
H2528 H 0.08609 0.46481 0.19204 0.0
H2529 H 0.06456 0.52962 0.22103 0.0
H2530 H 0.04967 0.458 0.13414 0.0
H2531 H 0.08056 0.47284 0.13304 0.0
H2532 H 0.07353 0.44754 0.15142 0.0
H2533 H 0.04374 0.55302 0.19701 0.0
H2534 H 0.05592 0.55528 0.16846 0.0
H2535 H 0.02611 0.53725 0.16929 0.0
H2536 H 0.07112 0.53799 0.08982 0.0
H2537 H 0.99801 0.50086 0.09512 0.0
H2538 H 0.09982 0.51632 0.13853 0.0
H2539 H 0.09248 0.54384 0.15157 0.0
H2540 H 0.10228 0.54311 0.12181 0.0
H2541 H 0.01112 0.46856 0.14489 0.0
H2542 H 0.98713 0.47985 0.12881 0.0
H2543 H 0.00334 0.49621 0.15693 0.0
C2544 C 0.74119 0.88335 0.46191 0.0
C2545 C 0.74595 0.87174 0.48278 0.0
C2546 C 0.74222 0.87184 0.43881 0.0
C2547 C 0.74786 0.84814 0.43671 0.0
C2548 C 0.75113 0.83573 0.45762 0.0
C2549 C 0.7503 0.84776 0.48044 0.0
C2550 C 0.73855 0.88553 0.41681 0.0
C2551 C 0.75651 0.81017 0.45599 0.0
C2552 C 0.73891 0.81161 0.37469 0.0
C2553 C 0.76253 0.81674 0.3685 0.0
C2554 C 0.73376 0.82158 0.39695 0.0
C2555 C 0.75267 0.8373 0.41305 0.0
C2556 C 0.77656 0.84241 0.40684 0.0
C2557 C 0.78122 0.83194 0.38464 0.0
C2558 C 0.70808 0.81565 0.40293 0.0
C2559 C 0.79719 0.85912 0.42356 0.0
H2560 H 0.73776 0.90186 0.46368 0.0
H2561 H 0.75361 0.83856 0.49654 0.0
H2562 H 0.75576 0.89025 0.40879 0.0
H2563 H 0.72494 0.87355 0.40275 0.0
H2564 H 0.73252 0.90294 0.42131 0.0
H2565 H 0.75637 0.80217 0.47368 0.0
H2566 H 0.74304 0.79741 0.44235 0.0
H2567 H 0.77457 0.81113 0.44991 0.0
H2568 H 0.7244 0.80002 0.36204 0.0
H2569 H 0.79945 0.83601 0.37973 0.0
H2570 H 0.69994 0.83191 0.40042 0.0
H2571 H 0.70751 0.81168 0.42211 0.0
H2572 H 0.69673 0.79948 0.39104 0.0
H2573 H 0.79312 0.87765 0.42734 0.0
H2574 H 0.81461 0.86157 0.41578 0.0
H2575 H 0.7994 0.85128 0.44118 0.0
C2576 C 0.41725 0.58662 0.83408 0.0
C2577 C 0.42757 0.57369 0.8169 0.0
C2578 C 0.42567 0.5885 0.85895 0.0
C2579 C 0.44473 0.57708 0.86671 0.0
C2580 C 0.45625 0.56549 0.84929 0.0
C2581 C 0.44757 0.56399 0.82462 0.0
C2582 C 0.41321 0.60136 0.87698 0.0
C2583 C 0.47669 0.55313 0.85677 0.0
C2584 C 0.4769 0.58643 0.93121 0.0
C2585 C 0.46518 0.56498 0.94056 0.0
C2586 C 0.46972 0.59138 0.9075 0.0
C2587 C 0.45064 0.57424 0.89285 0.0
C2588 C 0.43832 0.55295 0.90259 0.0
C2589 C 0.4457 0.54864 0.92636 0.0
C2590 C 0.48312 0.6144 0.89788 0.0
C2591 C 0.41794 0.53415 0.88757 0.0
H2592 H 0.40189 0.59432 0.82824 0.0
H2593 H 0.45584 0.5542 0.81146 0.0
H2594 H 0.40185 0.58729 0.88652 0.0
H2595 H 0.42668 0.6137 0.89093 0.0
H2596 H 0.40143 0.61252 0.86806 0.0
H2597 H 0.48525 0.54713 0.841 0.0
H2598 H 0.49077 0.56589 0.8698 0.0
H2599 H 0.46967 0.53656 0.86606 0.0
H2600 H 0.49201 0.59906 0.94221 0.0
H2601 H 0.43657 0.53208 0.93362 0.0
H2602 H 0.47021 0.62417 0.88868 0.0
H2603 H 0.49442 0.60911 0.8842 0.0
H2604 H 0.49507 0.62747 0.9125 0.0
H2605 H 0.40382 0.54342 0.87997 0.0
H2606 H 0.40941 0.5193 0.89826 0.0
H2607 H 0.42492 0.52538 0.87205 0.0
C2608 C 0.81362 0.24233 0.08629 0.0
C2609 C 0.81569 0.21748 0.08353 0.0
C2610 C 0.81033 0.25367 0.10889 0.0
C2611 C 0.80854 0.23977 0.12924 0.0
C2612 C 0.8114 0.21496 0.12676 0.0
C2613 C 0.81515 0.20425 0.10411 0.0
C2614 C 0.80794 0.28032 0.11079 0.0
C2615 C 0.80933 0.19926 0.14778 0.0
C2616 C 0.81392 0.27075 0.19411 0.0
C2617 C 0.78956 0.2683 0.19782 0.0
C2618 C 0.8204 0.26226 0.17172 0.0
C2619 C 0.80213 0.25051 0.15264 0.0
C2620 C 0.77753 0.24815 0.15625 0.0
C2621 C 0.77158 0.25723 0.17861 0.0
C2622 C 0.84683 0.26559 0.1686 0.0
C2623 C 0.7574 0.23536 0.13669 0.0
H2624 H 0.81404 0.2528 0.07064 0.0
H2625 H 0.81654 0.18502 0.10231 0.0
H2626 H 0.7892 0.28115 0.11384 0.0
H2627 H 0.8202 0.29112 0.12657 0.0
H2628 H 0.81216 0.28935 0.09415 0.0
H2629 H 0.81313 0.1807 0.1433 0.0
H2630 H 0.82205 0.20875 0.16381 0.0
H2631 H 0.7908 0.19664 0.15308 0.0
H2632 H 0.828 0.27927 0.20874 0.0
H2633 H 0.7527 0.25495 0.18126 0.0
H2634 H 0.85062 0.27498 0.15208 0.0
H2635 H 0.85147 0.24719 0.16608 0.0
H2636 H 0.85881 0.27662 0.18446 0.0
H2637 H 0.7591 0.2447 0.11984 0.0
H2638 H 0.73921 0.23525 0.14217 0.0
H2639 H 0.75879 0.21588 0.13228 0.0
C2640 C 0.05279 0.52717 0.34608 0.0
C2641 C 0.07186 0.51495 0.34464 0.0
C2642 C 0.04211 0.52917 0.36759 0.0
C2643 C 0.05102 0.51924 0.38847 0.0
C2644 C 0.0704 0.50703 0.38719 0.0
C2645 C 0.08039 0.50477 0.36523 0.0
C2646 C 0.02117 0.54185 0.36791 0.0
C2647 C 0.08081 0.49666 0.40915 0.0
C2648 C 0.03528 0.5448 0.44901 0.0
C2649 C 0.01637 0.5257 0.45361 0.0
C2650 C 0.04735 0.54258 0.42839 0.0
C2651 C 0.03963 0.52119 0.4114 0.0
C2652 C 0.02027 0.50203 0.41583 0.0
C2653 C 0.00909 0.5044 0.43697 0.0
C2654 C 0.06828 0.5632 0.42475 0.0
C2655 C 0.01106 0.47915 0.39804 0.0
H2656 H 0.04606 0.53506 0.33026 0.0
H2657 H 0.09529 0.49556 0.36436 0.0
H2658 H 0.00519 0.52899 0.37308 0.0
H2659 H 0.02588 0.55819 0.38172 0.0
H2660 H 0.01603 0.54813 0.35003 0.0
H2661 H 0.09618 0.48815 0.40537 0.0
H2662 H 0.08717 0.51164 0.42428 0.0
H2663 H 0.06663 0.48241 0.41542 0.0
H2664 H 0.04056 0.56159 0.46142 0.0
H2665 H 0.9944 0.48959 0.44033 0.0
H2666 H 0.06358 0.5721 0.4083 0.0
H2667 H 0.08436 0.55556 0.42184 0.0
H2668 H 0.07325 0.57764 0.44051 0.0
H2669 H 0.00484 0.48456 0.3801 0.0
H2670 H 0.99585 0.46593 0.40414 0.0
H2671 H 0.02586 0.46944 0.39543 0.0
C2672 C 0.70874 0.8529 0.5981 0.0
C2673 C 0.71841 0.8779 0.60661 0.0
C2674 C 0.705 0.83476 0.61431 0.0
C2675 C 0.71166 0.84184 0.63942 0.0
C2676 C 0.71901 0.86731 0.6482 0.0
C2677 C 0.72212 0.88512 0.63162 0.0
C2678 C 0.69602 0.80787 0.60442 0.0
C2679 C 0.72605 0.87558 0.67495 0.0
C2680 C 0.70409 0.79911 0.6892 0.0
C2681 C 0.72744 0.79461 0.69314 0.0
C2682 C 0.69793 0.81313 0.67058 0.0
C2683 C 0.71565 0.823 0.65588 0.0
C2684 C 0.7386 0.81688 0.65861 0.0
C2685 C 0.74414 0.80259 0.6771 0.0
C2686 C 0.67307 0.81873 0.66789 0.0
C2687 C 0.75802 0.82698 0.64319 0.0
H2688 H 0.70532 0.84733 0.57873 0.0
H2689 H 0.72937 0.90446 0.63825 0.0
H2690 H 0.71154 0.79873 0.60447 0.0
H2691 H 0.68322 0.79791 0.61595 0.0
H2692 H 0.68692 0.8059 0.58551 0.0
H2693 H 0.72851 0.89596 0.67901 0.0
H2694 H 0.71214 0.86614 0.68566 0.0
H2695 H 0.74329 0.87041 0.68113 0.0
H2696 H 0.69098 0.79291 0.70144 0.0
H2697 H 0.76211 0.79893 0.67981 0.0
H2698 H 0.66655 0.81984 0.64861 0.0
H2699 H 0.67381 0.83691 0.67812 0.0
H2700 H 0.65975 0.80445 0.6753 0.0
H2701 H 0.75109 0.82246 0.62365 0.0
H2702 H 0.77446 0.81944 0.64687 0.0
H2703 H 0.76331 0.8475 0.64682 0.0
C2704 C 0.65462 0.45421 0.52664 0.0
C2705 C 0.66441 0.44802 0.5489 0.0
C2706 C 0.63663 0.46822 0.52551 0.0
C2707 C 0.62754 0.47549 0.54705 0.0
C2708 C 0.63688 0.46857 0.56947 0.0
C2709 C 0.65548 0.45538 0.57017 0.0
C2710 C 0.62772 0.47569 0.5013 0.0
C2711 C 0.62708 0.47493 0.59272 0.0
C2712 C 0.59677 0.53057 0.54875 0.0
C2713 C 0.5723 0.51884 0.54252 0.0
C2714 C 0.6149 0.51675 0.55016 0.0
C2715 C 0.6084 0.49045 0.54615 0.0
C2716 C 0.58361 0.47851 0.54076 0.0
C2717 C 0.56603 0.49285 0.53835 0.0
C2718 C 0.64109 0.53035 0.55516 0.0
C2719 C 0.57558 0.45058 0.53719 0.0
H2720 H 0.66156 0.44876 0.51016 0.0
H2721 H 0.66282 0.45048 0.58741 0.0
H2722 H 0.60804 0.46782 0.49674 0.0
H2723 H 0.63044 0.49619 0.50227 0.0
H2724 H 0.63715 0.46934 0.48637 0.0
H2725 H 0.63535 0.46712 0.60843 0.0
H2726 H 0.63051 0.49536 0.59681 0.0
H2727 H 0.60718 0.46772 0.59063 0.0
H2728 H 0.60186 0.55066 0.55158 0.0
H2729 H 0.54732 0.48363 0.53283 0.0
H2730 H 0.65088 0.52559 0.53989 0.0
H2731 H 0.64987 0.52448 0.57175 0.0
H2732 H 0.64321 0.55082 0.55758 0.0
H2733 H 0.58113 0.44344 0.52002 0.0
H2734 H 0.55564 0.4442 0.5364 0.0
H2735 H 0.58436 0.44223 0.55218 0.0
C2736 C 0.1872 0.08863 0.47514 0.0
C2737 C 0.19539 0.11449 0.47853 0.0
C2738 C 0.16301 0.07751 0.47675 0.0
C2739 C 0.14686 0.09265 0.48243 0.0
C2740 C 0.15461 0.11882 0.48411 0.0
C2741 C 0.17881 0.12946 0.48187 0.0
C2742 C 0.15525 0.04955 0.47418 0.0
C2743 C 0.13798 0.13558 0.49041 0.0
C2744 C 0.07973 0.06498 0.48078 0.0
C2745 C 0.07823 0.06065 0.50513 0.0
C2746 C 0.10202 0.07499 0.47292 0.0
C2747 C 0.12313 0.08124 0.48994 0.0
C2748 C 0.12171 0.07681 0.51451 0.0
C2749 C 0.0993 0.06635 0.52175 0.0
C2750 C 0.10298 0.07903 0.44651 0.0
C2751 C 0.14379 0.08356 0.53329 0.0
H2752 H 0.19996 0.07703 0.4723 0.0
H2753 H 0.18511 0.14946 0.4846 0.0
H2754 H 0.15323 0.04302 0.49234 0.0
H2755 H 0.13744 0.04324 0.46287 0.0
H2756 H 0.16863 0.04066 0.46593 0.0
H2757 H 0.14576 0.15528 0.48805 0.0
H2758 H 0.1202 0.12961 0.47902 0.0
H2759 H 0.13466 0.13438 0.50961 0.0
H2760 H 0.06347 0.06054 0.46785 0.0
H2761 H 0.09821 0.06332 0.54064 0.0
H2762 H 0.11627 0.06949 0.43901 0.0
H2763 H 0.10916 0.0991 0.4447 0.0
H2764 H 0.08511 0.0721 0.43539 0.0
H2765 H 0.15757 0.07334 0.52817 0.0
H2766 H 0.1395 0.07924 0.55171 0.0
H2767 H 0.15203 0.10368 0.53408 0.0
C2768 C 0.24101 0.95096 0.77945 0.0
C2769 C 0.21742 0.94797 0.78563 0.0
C2770 C 0.25276 0.9311 0.77898 0.0
C2771 C 0.24039 0.90746 0.78415 0.0
C2772 C 0.21653 0.90433 0.7904 0.0
C2773 C 0.20546 0.92473 0.79141 0.0
C2774 C 0.27837 0.9354 0.77278 0.0
C2775 C 0.20244 0.87926 0.79528 0.0
C2776 C 0.2623 0.85132 0.75917 0.0
C2777 C 0.27493 0.84528 0.77997 0.0
C2778 C 0.25072 0.87131 0.7603 0.0
C2779 C 0.2523 0.88596 0.7827 0.0
C2780 C 0.26553 0.8802 0.80365 0.0
C2781 C 0.27664 0.85991 0.80203 0.0
C2782 C 0.23696 0.87683 0.73746 0.0
C2783 C 0.26793 0.89546 0.8278 0.0
H2784 H 0.25034 0.96892 0.77501 0.0
H2785 H 0.18711 0.92225 0.79588 0.0
H2786 H 0.2902 0.92947 0.78724 0.0
H2787 H 0.27894 0.92402 0.75567 0.0
H2788 H 0.28593 0.95517 0.77057 0.0
H2789 H 0.18411 0.8799 0.79996 0.0
H2790 H 0.20055 0.8658 0.779 0.0
H2791 H 0.21235 0.87214 0.8104 0.0
H2792 H 0.26145 0.84036 0.74199 0.0
H2793 H 0.28643 0.85529 0.81816 0.0
H2794 H 0.24729 0.89384 0.73095 0.0
H2795 H 0.21916 0.88034 0.74108 0.0
H2796 H 0.23399 0.8614 0.72272 0.0
H2797 H 0.27613 0.91517 0.82605 0.0
H2798 H 0.27922 0.88883 0.84225 0.0
H2799 H 0.24979 0.89478 0.83359 0.0
C2800 C 0.30096 0.96723 0.03944 0.0
C2801 C 0.29467 0.94176 0.03155 0.0
C2802 C 0.32445 0.98131 0.0384 0.0
C2803 C 0.34201 0.96961 0.02937 0.0
C2804 C 0.33567 0.944 0.0212 0.0
C2805 C 0.31216 0.93047 0.02232 0.0
C2806 C 0.33053 0.00863 0.04712 0.0
C2807 C 0.35384 0.93075 0.01149 0.0
C2808 C 0.39815 0.00401 0.00513 0.0
C2809 C 0.41619 0.00387 0.0242 0.0
C2810 C 0.37369 0.99415 0.00707 0.0
C2811 C 0.36719 0.98378 0.02855 0.0
C2812 C 0.3853 0.9846 0.04826 0.0
C2813 C 0.40961 0.99469 0.04585 0.0
C2814 C 0.35494 0.99381 0.98573 0.0
C2815 C 0.37918 0.9737 0.07145 0.0
H2816 H 0.28761 0.97614 0.04658 0.0
H2817 H 0.30759 0.91083 0.01614 0.0
H2818 H 0.3452 0.01253 0.06257 0.0
H2819 H 0.33733 0.01961 0.03244 0.0
H2820 H 0.31469 0.0151 0.053 0.0
H2821 H 0.34598 0.91077 0.00576 0.0
H2822 H 0.36085 0.93959 0.9957 0.0
H2823 H 0.36948 0.9323 0.0256 0.0
H2824 H 0.40321 0.01129 0.98843 0.0
H2825 H 0.42354 0.99474 0.0607 0.0
H2826 H 0.33956 1.00103 0.99175 0.0
H2827 H 0.34762 0.97443 0.97754 0.0
H2828 H 0.36251 0.00502 0.97149 0.0
H2829 H 0.36408 0.98076 0.0783 0.0
H2830 H 0.3949 0.97805 0.08587 0.0
H2831 H 0.3731 0.95323 0.0678 0.0
C2832 C 0.85448 0.65559 0.75062 0.0
C2833 C 0.84592 0.63298 0.73603 0.0
C2834 C 0.83966 0.67276 0.75331 0.0
C2835 C 0.81551 0.66687 0.74169 0.0
C2836 C 0.80683 0.64403 0.727 0.0
C2837 C 0.82219 0.62756 0.72413 0.0
C2838 C 0.84981 0.69717 0.76861 0.0
C2839 C 0.78111 0.63676 0.71464 0.0
C2840 C 0.76881 0.69829 0.76726 0.0
C2841 C 0.76642 0.71572 0.75075 0.0
C2842 C 0.78494 0.68254 0.76472 0.0
C2843 C 0.79907 0.68425 0.74518 0.0
C2844 C 0.79666 0.70184 0.72842 0.0
C2845 C 0.78023 0.71723 0.73133 0.0
C2846 C 0.78664 0.66387 0.78282 0.0
C2847 C 0.81143 0.70438 0.70742 0.0
H2848 H 0.87283 0.65995 0.75978 0.0
H2849 H 0.81536 0.61005 0.71298 0.0
H2850 H 0.84808 0.71278 0.7577 0.0
H2851 H 0.83933 0.69868 0.78413 0.0
H2852 H 0.86915 0.69932 0.77578 0.0
H2853 H 0.77713 0.61834 0.70385 0.0
H2854 H 0.76834 0.63621 0.72842 0.0
H2855 H 0.7776 0.6508 0.7024 0.0
H2856 H 0.75815 0.69706 0.78232 0.0
H2857 H 0.77796 0.73024 0.71819 0.0
H2858 H 0.80554 0.66672 0.79159 0.0
H2859 H 0.78155 0.64481 0.77332 0.0
H2860 H 0.77471 0.66514 0.79719 0.0
H2861 H 0.83096 0.70997 0.71443 0.0
H2862 H 0.80683 0.71831 0.69551 0.0
H2863 H 0.80855 0.68629 0.69629 0.0
C2864 C 0.81348 0.56998 0.03574 0.0
C2865 C 0.81068 0.58264 0.01512 0.0
C2866 C 0.83325 0.55897 0.0402 0.0
C2867 C 0.85035 0.56038 0.02345 0.0
C2868 C 0.8466 0.57147 1.0017 0.0
C2869 C 0.82688 0.58268 0.99789 0.0
C2870 C 0.83675 0.54751 0.06368 0.0
C2871 C 0.86424 0.57286 0.98316 0.0
C2872 C 0.9167 0.56662 0.04373 0.0
C2873 C 0.91995 0.54312 0.03591 0.0
C2874 C 0.89375 0.57194 0.04121 0.0
C2875 C 0.87371 0.55341 0.02999 0.0
C2876 C 0.87668 0.52918 0.02326 0.0
C2877 C 0.89989 0.52422 0.02654 0.0
C2878 C 0.89127 0.59785 0.0492 0.0
C2879 C 0.85575 0.50906 0.01106 0.0
H2880 H 0.80097 0.56984 0.04913 0.0
H2881 H 0.82463 0.59221 0.9818 0.0
H2882 H 0.84184 0.52942 0.06041 0.0
H2883 H 0.85176 0.5599 0.07604 0.0
H2884 H 0.82023 0.54466 0.073 0.0
H2885 H 0.85714 0.57916 0.96596 0.0
H2886 H 0.88142 0.58607 0.99061 0.0
H2887 H 0.8685 0.55448 0.97907 0.0
H2888 H 0.9323 0.5812 0.05093 0.0
H2889 H 0.90253 0.5061 0.02029 0.0
H2890 H 0.87613 0.59713 0.06032 0.0
H2891 H 0.88706 0.60739 0.03303 0.0
H2892 H 0.90806 0.60916 0.05995 0.0
H2893 H 0.83961 0.50834 0.02072 0.0
H2894 H 0.86027 0.4905 0.01018 0.0
H2895 H 0.8508 0.51324 0.99227 0.0
C2896 C 0.18555 0.09787 0.80268 0.0
C2897 C 0.19956 0.07993 0.80112 0.0
C2898 C 0.19559 0.12304 0.80102 0.0
C2899 C 0.22036 0.13063 0.79808 0.0
C2900 C 0.2349 0.11284 0.79775 0.0
C2901 C 0.2243 0.0877 0.79908 0.0
C2902 C 0.17936 0.14131 0.8012 0.0
C2903 C 0.26147 0.12024 0.79509 0.0
C2904 C 0.23851 0.18813 0.76523 0.0
C2905 C 0.24752 0.20671 0.78454 0.0
C2906 C 0.22985 0.16334 0.76943 0.0
C2907 C 0.23051 0.15678 0.79353 0.0
C2908 C 0.24007 0.17533 0.81311 0.0
C2909 C 0.24826 0.20011 0.80839 0.0
C2910 C 0.21949 0.14425 0.74803 0.0
C2911 C 0.24144 0.16904 0.83903 0.0
H2912 H 0.16642 0.09213 0.80418 0.0
H2913 H 0.23532 0.07405 0.79799 0.0
H2914 H 0.18721 0.15729 0.815 0.0
H2915 H 0.17793 0.14873 0.78329 0.0
H2916 H 0.16087 0.13276 0.80508 0.0
H2917 H 0.27078 0.10476 0.79765 0.0
H2918 H 0.2637 0.12618 0.77674 0.0
H2919 H 0.27053 0.13624 0.80846 0.0
H2920 H 0.23769 0.19303 0.74674 0.0
H2921 H 0.25529 0.2143 0.82343 0.0
H2922 H 0.20027 0.13589 0.74951 0.0
H2923 H 0.22935 0.12903 0.74801 0.0
H2924 H 0.2205 0.1523 0.73041 0.0
H2925 H 0.22296 0.16201 0.84374 0.0
H2926 H 0.25055 0.18531 0.85211 0.0
H2927 H 0.2514 0.15403 0.8412 0.0
C2928 C 0.36874 0.99629 0.26059 0.0
C2929 C 0.35977 0.01515 0.24986 0.0
C2930 C 0.35366 0.97317 0.26236 0.0
C2931 C 0.32883 0.96866 0.25331 0.0
C2932 C 0.31944 0.98769 0.24287 0.0
C2933 C 0.33505 0.01073 0.24119 0.0
C2934 C 0.36448 0.95338 0.27356 0.0
C2935 C 0.29302 0.98358 0.23321 0.0
C2936 C 0.30125 0.90006 0.23821 0.0
C2937 C 0.29202 0.89389 0.25982 0.0
C2938 C 0.31186 0.9247 0.23516 0.0
C2939 C 0.31322 0.94361 0.2542 0.0
C2940 C 0.3024 0.93767 0.2754 0.0
C2941 C 0.29195 0.9128 0.27798 0.0
C2942 C 0.32311 0.93018 0.21224 0.0
C2943 C 0.30324 0.95731 0.29599 0.0
H2944 H 0.38777 0.99943 0.26741 0.0
H2945 H 0.32791 0.02518 0.23295 0.0
H2946 H 0.35491 0.94705 0.28907 0.0
H2947 H 0.36217 0.93702 0.26002 0.0
H2948 H 0.38405 0.96002 0.28012 0.0
H2949 H 0.28829 1.00063 0.22679 0.0
H2950 H 0.28842 0.9687 0.21789 0.0
H2951 H 0.28163 0.97731 0.2475 0.0
H2952 H 0.30111 0.88546 0.22402 0.0
H2953 H 0.28466 0.90806 0.29465 0.0
H2954 H 0.3431 0.93479 0.21647 0.0
H2955 H 0.31775 0.94647 0.20479 0.0
H2956 H 0.31785 0.91413 0.19804 0.0
H2957 H 0.32198 0.96328 0.3054 0.0
H2958 H 0.29105 0.95043 0.30949 0.0
H2959 H 0.2981 0.97392 0.289 0.0
C2960 C 0.51422 0.33241 0.59263 0.0
C2961 C 0.49979 0.32546 0.61097 0.0
C2962 C 0.51271 0.35351 0.58069 0.0
C2963 C 0.49631 0.36807 0.58716 0.0
C2964 C 0.48118 0.36079 0.60517 0.0
C2965 C 0.48312 0.33958 0.61689 0.0
C2966 C 0.52922 0.36066 0.56165 0.0
C2967 C 0.46343 0.37581 0.61253 0.0
C2968 C 0.51226 0.43618 0.57667 0.0
C2969 C 0.49735 0.43666 0.55513 0.0
C2970 C 0.51193 0.41403 0.58732 0.0
C2971 C 0.49622 0.39176 0.57622 0.0
C2972 C 0.48106 0.39213 0.55444 0.0
C2973 C 0.48186 0.41462 0.54409 0.0
C2974 C 0.52856 0.41444 0.6104 0.0
C2975 C 0.46409 0.36877 0.54208 0.0
H2976 H 0.52712 0.3216 0.58785 0.0
H2977 H 0.47185 0.33431 0.63098 0.0
H2978 H 0.51851 0.36297 0.54451 0.0
H2979 H 0.54185 0.37875 0.56784 0.0
H2980 H 0.54001 0.34665 0.55776 0.0
H2981 H 0.45184 0.36679 0.6256 0.0
H2982 H 0.47339 0.39443 0.62101 0.0
H2983 H 0.45165 0.37862 0.5963 0.0
H2984 H 0.52434 0.4532 0.5852 0.0
H2985 H 0.47031 0.41498 0.52744 0.0
H2986 H 0.54109 0.40201 0.60737 0.0
H2987 H 0.51786 0.40738 0.62492 0.0
H2988 H 0.53945 0.43336 0.61689 0.0
H2989 H 0.47456 0.35489 0.53685 0.0
H2990 H 0.45311 0.37227 0.52556 0.0
H2991 H 0.45169 0.36044 0.55479 0.0
C2992 C 0.44995 0.78623 0.33645 0.0
C2993 C 0.46813 0.79619 0.32256 0.0
C2994 C 0.42533 0.78375 0.32793 0.0
C2995 C 0.41867 0.7908 0.30468 0.0
C2996 C 0.43694 0.79961 0.29008 0.0
C2997 C 0.46142 0.80253 0.29932 0.0
C2998 C 0.40652 0.77479 0.34432 0.0
C2999 C 0.43068 0.80674 0.26498 0.0
C3000 C 0.35243 0.76944 0.27717 0.0
C3001 C 0.34372 0.79099 0.2817 0.0
C3002 C 0.37687 0.76919 0.28407 0.0
C3003 C 0.39282 0.79077 0.29642 0.0
C3004 C 0.38403 0.81251 0.30111 0.0
C3005 C 0.35973 0.81244 0.29344 0.0
C3006 C 0.38563 0.74584 0.27818 0.0
C3007 C 0.40017 0.83577 0.3147 0.0
H3008 H 0.45499 0.7815 0.35451 0.0
H3009 H 0.47537 0.81013 0.28843 0.0
H3010 H 0.39735 0.78991 0.3492 0.0
H3011 H 0.39246 0.75903 0.33478 0.0
H3012 H 0.41449 0.7688 0.36131 0.0
H3013 H 0.4467 0.81068 0.25496 0.0
H3014 H 0.41666 0.79167 0.25428 0.0
H3015 H 0.42306 0.82355 0.26631 0.0
H3016 H 0.34017 0.75281 0.2681 0.0
H3017 H 0.35309 0.82906 0.29735 0.0
H3018 H 0.39201 0.73874 0.29518 0.0
H3019 H 0.40124 0.74995 0.26765 0.0
H3020 H 0.37127 0.731 0.26755 0.0
H3021 H 0.40761 0.83166 0.33276 0.0
H3022 H 0.39044 0.85095 0.31733 0.0
H3023 H 0.41572 0.84245 0.30469 0.0
C3024 C 0.98772 0.69424 0.10354 0.0
C3025 C 0.99555 0.6982 0.12852 0.0
C3026 C 0.99106 0.67339 0.08946 0.0
C3027 C 0.00334 0.65662 0.10048 0.0
C3028 C 0.01053 0.66008 0.12587 0.0
C3029 C 0.0062 0.68065 0.13965 0.0
C3030 C 0.98234 0.66985 0.06261 0.0
C3031 C 0.02416 0.64298 0.13826 0.0
C3032 C 1.00219 0.59398 0.06665 0.0
C3033 C 0.02316 0.59929 0.05528 0.0
C3034 C 0.99526 0.61247 0.08118 0.0
C3035 C 0.01027 0.63663 0.08518 0.0
C3036 C 0.03214 0.64176 0.07462 0.0
C3037 C 0.03828 0.62301 0.05973 0.0
C3038 C 0.9718 0.60618 0.09202 0.0
C3039 C 0.04907 0.66706 0.07906 0.0
H3040 H 0.97944 0.70778 0.09491 0.0
H3041 H 0.01258 0.68386 0.15891 0.0
H3042 H 0.99808 0.6727 0.0522 0.0
H3043 H 0.97173 0.6506 0.05727 0.0
H3044 H 0.97093 0.68298 0.05733 0.0
H3045 H 0.02685 0.6471 0.15833 0.0
H3046 H 0.01443 0.62335 0.13359 0.0
H3047 H 0.04216 0.64495 0.13178 0.0
H3048 H 0.99164 0.57518 0.0649 0.0
H3049 H 0.05486 0.62694 0.0514 0.0
H3050 H 0.95906 0.61687 0.08406 0.0
H3051 H 0.97484 0.61157 0.11188 0.0
H3052 H 0.96312 0.58609 0.08866 0.0
H3053 H 0.03983 0.68118 0.07187 0.0
H3054 H 0.06582 0.66771 0.07034 0.0
H3055 H 0.05419 0.67232 0.09884 0.0
C3056 C 0.11532 0.29108 0.84079 0.0
C3057 C 0.09382 0.28647 0.8248 0.0
C3058 C 0.13769 0.29122 0.83213 0.0
C3059 C 0.13868 0.28767 0.80679 0.0
C3060 C 0.11708 0.28432 0.79056 0.0
C3061 C 0.09486 0.28315 0.79978 0.0
C3062 C 0.16 0.29381 0.85014 0.0
C3063 C 0.11735 0.28146 0.76342 0.0
C3064 C 0.1997 0.30516 0.78254 0.0
C3065 C 0.20404 0.28175 0.77595 0.0
C3066 C 0.17852 0.30746 0.79262 0.0
C3067 C 0.1619 0.28585 0.79721 0.0
C3068 C 0.16698 0.26223 0.79166 0.0
C3069 C 0.18767 0.26046 0.78056 0.0
C3070 C 0.17344 0.33291 0.79738 0.0
C3071 C 0.15044 0.23876 0.79722 0.0
H3072 H 0.11446 0.29327 0.86018 0.0
H3073 H 0.07823 0.2796 0.7874 0.0
H3074 H 0.16678 0.27648 0.84853 0.0
H3075 H 0.17467 0.30906 0.8462 0.0
H3076 H 0.15639 0.29749 0.86914 0.0
H3077 H 0.09964 0.28203 0.75333 0.0
H3078 H 0.13151 0.29639 0.75803 0.0
H3079 H 0.1218 0.26349 0.75782 0.0
H3080 H 0.21236 0.32162 0.77885 0.0
H3081 H 0.19121 0.24237 0.77569 0.0
H3082 H 0.17069 0.33645 0.81664 0.0
H3083 H 0.15647 0.3339 0.78614 0.0
H3084 H 0.18832 0.34786 0.79317 0.0
H3085 H 0.14669 0.24059 0.81636 0.0
H3086 H 0.15827 0.22222 0.79422 0.0
H3087 H 0.13288 0.23556 0.78552 0.0
C3088 C 0.54697 0.69929 0.97396 0.0
C3089 C 0.53703 0.71986 0.9787 0.0
C3090 C 0.53905 0.67733 0.98449 0.0
C3091 C 0.52152 0.67646 1.00084 0.0
C3092 C 0.51116 0.69718 0.00532 0.0
C3093 C 0.5188 0.71859 0.99379 0.0
C3094 C 0.54991 0.6553 0.97865 0.0
C3095 C 0.49308 0.69725 0.02326 0.0
C3096 C 0.49315 0.61322 0.01897 0.0
C3097 C 0.50967 0.61146 0.03883 0.0
C3098 C 0.49645 0.63449 0.00645 0.0
C3099 C 0.51598 0.65479 0.01494 0.0
C3100 C 0.53147 0.65379 0.03625 0.0
C3101 C 0.52831 0.63198 0.04774 0.0
C3102 C 0.47975 0.63481 0.98363 0.0
C3103 C 0.55204 0.67536 0.04634 0.0
H3104 H 0.56093 0.70043 0.96201 0.0
H3105 H 0.51129 0.73472 0.99735 0.0
H3106 H 0.56133 0.65203 0.99493 0.0
H3107 H 0.53539 0.63829 0.97352 0.0
H3108 H 0.56126 0.65808 0.96362 0.0
H3109 H 0.48522 0.71394 0.02308 0.0
H3110 H 0.47818 0.68047 0.01938 0.0
H3111 H 0.50211 0.69682 0.04182 0.0
H3112 H 0.47817 0.59765 0.01272 0.0
H3113 H 0.54087 0.63079 0.0634 0.0
H3114 H 0.49042 0.63859 0.96823 0.0
H3115 H 0.47 0.64996 0.98597 0.0
H3116 H 0.46623 0.61699 0.97879 0.0
H3117 H 0.56612 0.67763 0.03386 0.0
H3118 H 0.56056 0.67266 0.06452 0.0
H3119 H 0.54554 0.69284 0.04779 0.0
C3120 C 0.0774 0.81416 0.68975 0.0
C3121 C 0.07689 0.81346 0.66446 0.0
C3122 C 0.09874 0.81412 0.7046 0.0
C3123 C 0.11989 0.81306 0.69382 0.0
C3124 C 0.11996 0.8143 0.66853 0.0
C3125 C 0.09839 0.81461 0.6541 0.0
C3126 C 0.09824 0.81357 0.73162 0.0
C3127 C 0.14234 0.81344 0.65651 0.0
C3128 C 0.18038 0.8204 0.7321 0.0
C3129 C 0.18153 0.79556 0.73345 0.0
C3130 C 0.16007 0.82656 0.71986 0.0
C3131 C 0.14084 0.80731 0.70839 0.0
C3132 C 0.14171 0.78217 0.71029 0.0
C3133 C 0.16206 0.7766 0.723 0.0
C3134 C 0.15966 0.85357 0.7186 0.0
C3135 C 0.12147 0.76113 0.69832 0.0
H3136 H 0.06088 0.81376 0.69788 0.0
H3137 H 0.09808 0.81424 0.63457 0.0
H3138 H 0.09943 0.79485 0.73667 0.0
H3139 H 0.11402 0.82706 0.74177 0.0
H3140 H 0.08141 0.81787 0.73747 0.0
H3141 H 0.14008 0.81707 0.63716 0.0
H3142 H 0.15811 0.82728 0.6662 0.0
H3143 H 0.14652 0.79485 0.65744 0.0
H3144 H 0.19548 0.83501 0.74038 0.0
H3145 H 0.16305 0.75739 0.72408 0.0
H3146 H 0.14142 0.85691 0.72061 0.0
H3147 H 0.16427 0.85903 0.70063 0.0
H3148 H 0.17295 0.86578 0.73284 0.0
H3149 H 0.10417 0.7628 0.705 0.0
H3150 H 0.12487 0.74264 0.70184 0.0
H3151 H 0.11918 0.76211 0.67841 0.0
C3152 C 0.04478 0.36792 0.47341 0.0
C3153 C 0.03721 0.34878 0.48776 0.0
C3154 C 0.04524 0.39261 0.48158 0.0
C3155 C 0.03856 0.39813 0.50483 0.0
C3156 C 0.03333 0.37912 0.52029 0.0
C3157 C 0.03237 0.35455 0.51141 0.0
C3158 C 0.05063 0.41233 0.46443 0.0
C3159 C 0.02688 0.38442 0.54547 0.0
C3160 C 0.04671 0.46633 0.52652 0.0
C3161 C 0.02337 0.46998 0.52004 0.0
C3162 C 0.05184 0.44278 0.52258 0.0
C3163 C 0.03332 0.42271 0.51132 0.0
C3164 C 0.00961 0.42622 0.50526 0.0
C3165 C 0.00487 0.44976 0.50996 0.0
C3166 C 0.07713 0.43952 0.52988 0.0
C3167 C 0.98941 0.40532 0.49292 0.0
H3168 H 0.04844 0.36342 0.45508 0.0
H3169 H 0.02678 0.33972 0.52261 0.0
H3170 H 0.03368 0.41799 0.4581 0.0
H3171 H 0.06351 0.42908 0.4738 0.0
H3172 H 0.05829 0.40566 0.4483 0.0
H3173 H 0.02772 0.36877 0.55662 0.0
H3174 H 0.03919 0.4015 0.55495 0.0
H3175 H 0.00822 0.38752 0.54417 0.0
H3176 H 0.06103 0.48195 0.53443 0.0
H3177 H 0.98687 0.45254 0.50469 0.0
H3178 H 0.08569 0.43572 0.51343 0.0
H3179 H 0.0766 0.42336 0.54055 0.0
H3180 H 0.0887 0.45625 0.54081 0.0
H3181 H 0.99429 0.39835 0.47532 0.0
H3182 H 0.972 0.41117 0.48946 0.0
H3183 H 0.9867 0.38961 0.50427 0.0
C3184 C 0.44453 0.31846 0.16924 0.0
C3185 C 0.44499 0.29414 0.16083 0.0
C3186 C 0.42758 0.32306 0.18453 0.0
C3187 C 0.41024 0.30288 0.19067 0.0
C3188 C 0.41045 0.2783 0.18184 0.0
C3189 C 0.42815 0.27421 0.16737 0.0
C3190 C 0.42832 0.34943 0.19428 0.0
C3191 C 0.39176 0.25635 0.18735 0.0
C3192 C 0.37402 0.307 0.24362 0.0
C3193 C 0.35246 0.31092 0.23185 0.0
C3194 C 0.39361 0.30566 0.23065 0.0
C3195 C 0.39104 0.30737 0.20529 0.0
C3196 C 0.36934 0.31167 0.19348 0.0
C3197 C 0.35045 0.31381 0.20702 0.0
C3198 C 0.41676 0.30177 0.24393 0.0
C3199 C 0.36558 0.31272 0.16634 0.0
H3200 H 0.45785 0.3338 0.16442 0.0
H3201 H 0.42856 0.2554 0.16077 0.0
H3202 H 0.41137 0.35479 0.18745 0.0
H3203 H 0.42957 0.35092 0.21438 0.0
H3204 H 0.44386 0.36285 0.18898 0.0
H3205 H 0.39396 0.23852 0.17832 0.0
H3206 H 0.39305 0.25511 0.2072 0.0
H3207 H 0.37331 0.25879 0.18131 0.0
H3208 H 0.37548 0.30477 0.26285 0.0
H3209 H 0.33363 0.31659 0.19788 0.0
H3210 H 0.43256 0.31501 0.2389 0.0
H3211 H 0.41899 0.28277 0.23862 0.0
H3212 H 0.41695 0.30414 0.26394 0.0
H3213 H 0.38008 0.32712 0.16076 0.0
H3214 H 0.34782 0.31682 0.16009 0.0
H3215 H 0.36658 0.29467 0.15688 0.0
C3216 C 0.58458 0.49004 0.35879 0.0
C3217 C 0.60395 0.5106 0.36028 0.0
C3218 C 0.56884 0.48768 0.37674 0.0
C3219 C 0.57305 0.50607 0.3968 0.0
C3220 C 0.59329 0.52634 0.39875 0.0
C3221 C 0.60825 0.52858 0.3802 0.0
C3222 C 0.54718 0.46615 0.37371 0.0
C3223 C 0.59883 0.546 0.42014 0.0
C3224 C 0.524 0.52074 0.43287 0.0
C3225 C 0.52799 0.509 0.4538 0.0
C3226 C 0.53741 0.51844 0.41337 0.0
C3227 C 0.55588 0.50488 0.41532 0.0
C3228 C 0.55932 0.49222 0.43609 0.0
C3229 C 0.54506 0.49413 0.45493 0.0
C3230 C 0.53266 0.53159 0.39123 0.0
C3231 C 0.57928 0.47825 0.43933 0.0
H3232 H 0.58113 0.47641 0.34306 0.0
H3233 H 0.62318 0.54457 0.38111 0.0
H3234 H 0.54688 0.45599 0.39011 0.0
H3235 H 0.53035 0.47322 0.37164 0.0
H3236 H 0.54702 0.45291 0.35764 0.0
H3237 H 0.61636 0.55932 0.41994 0.0
H3238 H 0.58431 0.55652 0.41997 0.0
H3239 H 0.59938 0.53724 0.43739 0.0
H3240 H 0.51087 0.53232 0.43204 0.0
H3241 H 0.54855 0.48545 0.47133 0.0
H3242 H 0.53152 0.51903 0.37444 0.0
H3243 H 0.54785 0.54775 0.39082 0.0
H3244 H 0.51565 0.53835 0.39107 0.0
H3245 H 0.57928 0.46586 0.42272 0.0
H3246 H 0.57766 0.46696 0.45496 0.0
H3247 H 0.59702 0.4917 0.44252 0.0
C3248 C 0.23565 0.83524 0.09795 0.0
C3249 C 0.22787 0.85767 0.09855 0.0
C3250 C 0.24042 0.82416 0.11932 0.0
C3251 C 0.2372 0.83557 0.14205 0.0
C3252 C 0.22884 0.8579 0.14278 0.0
C3253 C 0.22437 0.8687 0.12111 0.0
C3254 C 0.24931 0.80038 0.11762 0.0
C3255 C 0.22488 0.87057 0.16652 0.0
C3256 C 0.22957 0.7934 0.19304 0.0
C3257 C 0.25283 0.79894 0.20605 0.0
C3258 C 0.22407 0.80569 0.17272 0.0
C3259 C 0.24236 0.82386 0.16489 0.0
C3260 C 0.2658 0.8299 0.17829 0.0
C3261 C 0.27075 0.81738 0.19872 0.0
C3262 C 0.19873 0.79894 0.15942 0.0
C3263 C 0.28584 0.84918 0.17071 0.0
H3264 H 0.23859 0.82653 0.08076 0.0
H3265 H 0.21843 0.88603 0.12193 0.0
H3266 H 0.26724 0.80315 0.12862 0.0
H3267 H 0.23672 0.78558 0.12516 0.0
H3268 H 0.25099 0.79385 0.09864 0.0
H3269 H 0.21767 0.88743 0.16401 0.0
H3270 H 0.21203 0.85758 0.17576 0.0
H3271 H 0.24217 0.87596 0.17878 0.0
H3272 H 0.21556 0.77931 0.19876 0.0
H3273 H 0.28881 0.82153 0.20854 0.0
H3274 H 0.19908 0.79121 0.14052 0.0
H3275 H 0.1912 0.81576 0.15842 0.0
H3276 H 0.18637 0.78508 0.16832 0.0
H3277 H 0.28959 0.84326 0.15228 0.0
H3278 H 0.30282 0.8523 0.18341 0.0
H3279 H 0.28019 0.86708 0.1698 0.0
C3280 C 0.96619 0.55216 0.83091 0.0
C3281 C 0.95751 0.57274 0.82379 0.0
C3282 C 0.97471 0.55071 0.85525 0.0
C3283 C 0.97506 0.57054 0.87301 0.0
C3284 C 0.96735 0.59188 0.86579 0.0
C3285 C 0.95843 0.59262 0.84132 0.0
C3286 C 0.98237 0.52743 0.8621 0.0
C3287 C 0.96789 0.61363 0.88403 0.0
C3288 C 0.97102 0.55375 0.93775 0.0
C3289 C 0.99541 0.55946 0.94784 0.0
C3290 C 0.96417 0.55772 0.91364 0.0
C3291 C 0.98206 0.56809 0.89923 0.0
C3292 C 0.00664 0.57466 0.90954 0.0
C3293 C 0.01305 0.57003 0.93361 0.0
C3294 C 0.93781 0.54999 0.90332 0.0
C3295 C 0.02623 0.5862 0.895 0.0
H3296 H 0.96546 0.53661 0.81759 0.0
H3297 H 0.95183 0.60861 0.83601 0.0
H3298 H 1.00098 0.53214 0.87188 0.0
H3299 H 0.97023 0.51817 0.8746 0.0
H3300 H 0.98185 0.51405 0.84604 0.0
H3301 H 0.96354 0.62973 0.87524 0.0
H3302 H 0.9546 0.60806 0.89688 0.0
H3303 H 0.986 0.61955 0.89484 0.0
H3304 H 0.95724 0.54542 0.94848 0.0
H3305 H 0.03192 0.57466 0.94125 0.0
H3306 H 0.93541 0.53527 0.88802 0.0
H3307 H 0.9316 0.56592 0.896 0.0
H3308 H 0.92604 0.54285 0.91707 0.0
H3309 H 0.02767 0.57266 0.87979 0.0
H3310 H 0.04416 0.59214 0.9062 0.0
H3311 H 0.0216 0.60254 0.88695 0.0
C3312 C 0.28487 0.1781 0.58384 0.0
C3313 C 0.28537 0.18944 0.5622 0.0
C3314 C 0.28553 0.192 0.60609 0.0
C3315 C 0.28681 0.21782 0.60664 0.0
C3316 C 0.28903 0.22965 0.58514 0.0
C3317 C 0.28825 0.2153 0.56312 0.0
C3318 C 0.28334 0.17881 0.62877 0.0
C3319 C 0.29082 0.25722 0.58517 0.0
C3320 C 0.25564 0.24397 0.65587 0.0
C3321 C 0.27518 0.25428 0.67357 0.0
C3322 C 0.25933 0.23268 0.63365 0.0
C3323 C 0.28314 0.2318 0.62916 0.0
C3324 C 0.30305 0.24313 0.64664 0.0
C3325 C 0.2988 0.25423 0.66875 0.0
C3326 C 0.23766 0.22088 0.61535 0.0
C3327 C 0.32868 0.24262 0.64246 0.0
H3328 H 0.28286 0.15817 0.58331 0.0
H3329 H 0.28896 0.22427 0.54651 0.0
H3330 H 0.29755 0.1885 0.64356 0.0
H3331 H 0.26557 0.17907 0.63508 0.0
H3332 H 0.28486 0.15919 0.62568 0.0
H3333 H 0.29534 0.26399 0.56758 0.0
H3334 H 0.2733 0.26155 0.58872 0.0
H3335 H 0.30477 0.26761 0.59987 0.0
H3336 H 0.23739 0.24406 0.65967 0.0
H3337 H 0.31393 0.26222 0.68253 0.0
H3338 H 0.23621 0.20056 0.61255 0.0
H3339 H 0.23986 0.22827 0.59758 0.0
H3340 H 0.22048 0.2242 0.62122 0.0
H3341 H 0.33157 0.22358 0.64385 0.0
H3342 H 0.34217 0.25556 0.65599 0.0
H3343 H 0.33206 0.24752 0.624 0.0
C3344 C 0.61691 0.49549 0.20813 0.0
C3345 C 0.60825 0.49857 0.23058 0.0
C3346 C 0.60247 0.49633 0.18634 0.0
C3347 C 0.57877 0.50013 0.18705 0.0
C3348 C 0.56923 0.50106 0.20947 0.0
C3349 C 0.58412 0.50038 0.231 0.0
C3350 C 0.61334 0.49525 0.1628 0.0
C3351 C 0.5439 0.50469 0.21093 0.0
C3352 C 0.55768 0.53944 0.14029 0.0
C3353 C 0.54241 0.52156 0.12325 0.0
C3354 C 0.56942 0.5326 0.16117 0.0
C3355 C 0.56566 0.50721 0.16517 0.0
C3356 C 0.54993 0.48904 0.14816 0.0
C3357 C 0.53849 0.49646 0.12728 0.0
C3358 C 0.58615 0.55257 0.17878 0.0
C3359 C 0.54539 0.46184 0.1519 0.0
H3360 H 0.63546 0.49386 0.20757 0.0
H3361 H 0.57714 0.50239 0.24824 0.0
H3362 H 0.60044 0.48288 0.14843 0.0
H3363 H 0.61727 0.51407 0.15657 0.0
H3364 H 0.63044 0.48862 0.16482 0.0
H3365 H 0.53787 0.50095 0.22888 0.0
H3366 H 0.54331 0.52413 0.20796 0.0
H3367 H 0.53091 0.4924 0.19657 0.0
H3368 H 0.56074 0.55886 0.13714 0.0
H3369 H 0.52667 0.48263 0.11402 0.0
H3370 H 0.60469 0.54911 0.18054 0.0
H3371 H 0.58002 0.55216 0.19703 0.0
H3372 H 0.58701 0.57144 0.17298 0.0
H3373 H 0.56259 0.45547 0.15247 0.0
H3374 H 0.53215 0.45015 0.13728 0.0
H3375 H 0.53852 0.45888 0.1696 0.0
C3376 C 0.22336 0.85254 0.93985 0.0
C3377 C 0.22856 0.84007 0.96006 0.0
C3378 C 0.22672 0.84359 0.91635 0.0
C3379 C 0.23479 0.82122 0.91281 0.0
C3380 C 0.23876 0.80788 0.93301 0.0
C3381 C 0.23601 0.81767 0.95639 0.0
C3382 C 0.22289 0.85879 0.89552 0.0
C3383 C 0.24667 0.78362 0.93007 0.0
C3384 C 0.22845 0.78984 0.84803 0.0
C3385 C 0.25224 0.79631 0.84238 0.0
C3386 C 0.22253 0.79744 0.87095 0.0
C3387 C 0.24065 0.81263 0.88838 0.0
C3388 C 0.26462 0.81956 0.88251 0.0
C3389 C 0.27017 0.81101 0.8598 0.0
C3390 C 0.19693 0.78902 0.87662 0.0
C3391 C 0.28439 0.83633 0.90013 0.0
H3392 H 0.21792 0.87003 0.94258 0.0
H3393 H 0.24005 0.80792 0.97191 0.0
H3394 H 0.24034 0.86544 0.88841 0.0
H3395 H 0.21029 0.84724 0.8804 0.0
H3396 H 0.21554 0.87513 0.90099 0.0
H3397 H 0.24643 0.77422 0.94698 0.0
H3398 H 0.23472 0.77093 0.91522 0.0
H3399 H 0.2653 0.787 0.925 0.0
H3400 H 0.21452 0.77848 0.83463 0.0
H3401 H 0.28851 0.81644 0.8554 0.0
H3402 H 0.18907 0.80533 0.88059 0.0
H3403 H 0.19688 0.77896 0.8931 0.0
H3404 H 0.18512 0.77666 0.86143 0.0
H3405 H 0.27896 0.85391 0.90531 0.0
H3406 H 0.30183 0.84085 0.89245 0.0
H3407 H 0.28726 0.82734 0.91698 0.0
C3408 C 0.96382 0.56935 0.68789 0.0
C3409 C 0.94155 0.57651 0.68624 0.0
C3410 C 0.97553 0.56617 0.66722 0.0
C3411 C 0.96482 0.57027 0.6442 0.0
C3412 C 0.94257 0.5779 0.64242 0.0
C3413 C 0.93123 0.58092 0.66339 0.0
C3414 C 0.99929 0.55816 0.67 0.0
C3415 C 0.9306 0.58261 0.61828 0.0
C3416 C 0.00624 0.58331 0.59503 0.0
C3417 C 1.00203 0.56005 0.5815 0.0
C3418 C 0.99408 0.58694 0.61524 0.0
C3419 C 0.97713 0.56685 0.6221 0.0
C3420 C 0.97253 0.54337 0.60826 0.0
C3421 C 0.98517 0.54022 0.58822 0.0
C3422 C 0.99954 0.61227 0.62937 0.0
C3423 C 0.95449 0.52149 0.61479 0.0
H3424 H 0.97201 0.56581 0.70534 0.0
H3425 H 0.91403 0.58639 0.66178 0.0
H3426 H 0.99759 0.54029 0.6588 0.0
H3427 H 0.01351 0.57207 0.66333 0.0
H3428 H 0.00533 0.55586 0.68915 0.0
H3429 H 0.94297 0.59714 0.61017 0.0
H3430 H 0.92674 0.5655 0.60547 0.0
H3431 H 0.9134 0.58862 0.61992 0.0
H3432 H 0.01918 0.59876 0.58985 0.0
H3433 H 0.9822 0.52212 0.57812 0.0
H3434 H 0.00564 0.61092 0.6487 0.0
H3435 H 0.98288 0.61963 0.62882 0.0
H3436 H 0.01373 0.62575 0.62213 0.0
H3437 H 0.96015 0.51718 0.63335 0.0
H3438 H 0.95262 0.50465 0.60194 0.0
H3439 H 0.9365 0.52611 0.61489 0.0
C3440 C 0.29746 0.23024 0.44019 0.0
C3441 C 0.29072 0.20437 0.43545 0.0
C3442 C 0.30203 0.24526 0.42136 0.0
C3443 C 0.29878 0.23408 0.3972 0.0
C3444 C 0.29388 0.20785 0.3926 0.0
C3445 C 0.29021 0.19323 0.41195 0.0
C3446 C 0.30817 0.2731 0.42712 0.0
C3447 C 0.28998 0.19522 0.36705 0.0
C3448 C 0.26821 0.26704 0.3506 0.0
C3449 C 0.28675 0.27536 0.33651 0.0
C3450 C 0.2721 0.2538 0.37043 0.0
C3451 C 0.29535 0.24934 0.3769 0.0
C3452 C 0.31459 0.25894 0.36373 0.0
C3453 C 0.30998 0.27158 0.3434 0.0
C3454 C 0.25095 0.24373 0.38382 0.0
C3455 C 0.33978 0.25519 0.37057 0.0
H3456 H 0.29816 0.23877 0.45852 0.0
H3457 H 0.28497 0.17318 0.4084 0.0
H3458 H 0.32203 0.28192 0.41601 0.0
H3459 H 0.29174 0.28043 0.42273 0.0
H3460 H 0.31494 0.27867 0.44663 0.0
H3461 H 0.28971 0.1751 0.36674 0.0
H3462 H 0.27242 0.19732 0.35782 0.0
H3463 H 0.30432 0.20396 0.35644 0.0
H3464 H 0.25017 0.26979 0.34549 0.0
H3465 H 0.3244 0.27794 0.33261 0.0
H3466 H 0.25485 0.25134 0.40318 0.0
H3467 H 0.24803 0.22323 0.38322 0.0
H3468 H 0.2339 0.24836 0.37603 0.0
H3469 H 0.34497 0.25877 0.3905 0.0
H3470 H 0.3534 0.26747 0.36146 0.0
H3471 H 0.34032 0.23566 0.36516 0.0
C3472 C 0.37317 0.6199 0.49912 0.0
C3473 C 0.36148 0.6201 0.52008 0.0
C3474 C 0.39093 0.60593 0.49659 0.0
C3475 C 0.39746 0.5921 0.5156 0.0
C3476 C 0.3861 0.59274 0.53702 0.0
C3477 C 0.36816 0.60649 0.53889 0.0
C3478 C 0.40248 0.6057 0.47343 0.0
C3479 C 0.39287 0.57882 0.558 0.0
C3480 C 0.42548 0.53618 0.50378 0.0
C3481 C 0.45005 0.54612 0.51167 0.0
C3482 C 0.40833 0.55111 0.50414 0.0
C3483 C 0.41582 0.57657 0.51307 0.0
C3484 C 0.44069 0.58673 0.52081 0.0
C3485 C 0.45742 0.57141 0.51992 0.0
C3486 C 0.38208 0.53946 0.49555 0.0
C3487 C 0.44956 0.61356 0.531 0.0
H3488 H 0.36813 0.6303 0.48448 0.0
H3489 H 0.35941 0.60666 0.55525 0.0
H3490 H 0.42239 0.6123 0.47756 0.0
H3491 H 0.39893 0.58643 0.46456 0.0
H3492 H 0.39561 0.61755 0.46042 0.0
H3493 H 0.38308 0.58197 0.57377 0.0
H3494 H 0.38879 0.55863 0.55216 0.0
H3495 H 0.4126 0.58467 0.56397 0.0
H3496 H 0.41959 0.51658 0.49756 0.0
H3497 H 0.47609 0.57906 0.52681 0.0
H3498 H 0.37483 0.55028 0.48175 0.0
H3499 H 0.37132 0.53981 0.511 0.0
H3500 H 0.3794 0.51993 0.48759 0.0
H3501 H 0.44275 0.6259 0.51854 0.0
H3502 H 0.46963 0.61917 0.53412 0.0
H3503 H 0.44248 0.61653 0.54855 0.0
C3504 C 0.83852 0.94726 0.55883 0.0
C3505 C 0.82307 0.95885 0.57126 0.0
C3506 C 0.86265 0.95921 0.55821 0.0
C3507 C 0.87159 0.98325 0.57049 0.0
C3508 C 0.85656 0.99448 0.58425 0.0
C3509 C 0.83239 0.98217 0.58441 0.0
C3510 C 0.87816 0.94663 0.5433 0.0
C3511 C 0.86566 0.01995 0.59786 0.0
C3512 C 0.93966 0.00578 0.57584 0.0
C3513 C 0.94215 0.01907 0.55546 0.0
C3514 C 0.91671 0.99499 0.58177 0.0
C3515 C 0.89587 0.9974 0.56682 0.0
C3516 C 0.89827 0.0117 0.54687 0.0
C3517 C 0.92138 0.02245 0.5415 0.0
C3518 C 0.91479 0.9801 0.60335 0.0
C3519 C 0.87644 0.01458 0.53041 0.0
H3520 H 0.83155 0.92918 0.54875 0.0
H3521 H 0.82063 0.99116 0.59423 0.0
H3522 H 0.88256 0.95718 0.5276 0.0
H3523 H 0.89551 0.94646 0.55426 0.0
H3524 H 0.86902 0.92723 0.53633 0.0
H3525 H 0.85276 0.02474 0.61006 0.0
H3526 H 0.88335 0.02114 0.60882 0.0
H3527 H 0.86852 0.03405 0.58473 0.0
H3528 H 0.95561 0.00317 0.58682 0.0
H3529 H 0.9231 0.03274 0.52576 0.0
H3530 H 0.90839 0.96009 0.59694 0.0
H3531 H 0.90137 0.98534 0.61461 0.0
H3532 H 0.93243 0.98274 0.6149 0.0
H3533 H 0.86696 0.99625 0.52084 0.0
H3534 H 0.88137 0.02759 0.51662 0.0
H3535 H 0.86347 0.02143 0.54121 0.0
C3536 C 0.83182 0.13003 0.26472 0.0
C3537 C 0.83241 0.12091 0.24065 0.0
C3538 C 0.82034 0.14956 0.27004 0.0
C3539 C 0.80986 0.1607 0.25081 0.0
C3540 C 0.81106 0.15199 0.22647 0.0
C3541 C 0.82196 0.13195 0.2217 0.0
C3542 C 0.81904 0.158 0.2962 0.0
C3543 C 0.80087 0.16386 0.20542 0.0
C3544 C 0.75986 0.19543 0.25855 0.0
C3545 C 0.77273 0.22018 0.26157 0.0
C3546 C 0.77185 0.17584 0.25615 0.0
C3547 C 0.79727 0.18119 0.25597 0.0
C3548 C 0.81035 0.2062 0.25923 0.0
C3549 C 0.79791 0.22534 0.26209 0.0
C3550 C 0.75725 0.14944 0.25326 0.0
C3551 C 0.83735 0.21286 0.2585 0.0
H3552 H 0.8398 0.12147 0.27941 0.0
H3553 H 0.82261 0.12514 0.20306 0.0
H3554 H 0.82782 0.17798 0.30032 0.0
H3555 H 0.79985 0.15586 0.29937 0.0
H3556 H 0.82793 0.14733 0.30903 0.0
H3557 H 0.80438 0.15575 0.18764 0.0
H3558 H 0.78105 0.16153 0.20531 0.0
H3559 H 0.8089 0.1841 0.20743 0.0
H3560 H 0.74034 0.19139 0.25794 0.0
H3561 H 0.80785 0.24432 0.26343 0.0
H3562 H 0.76521 0.13843 0.26642 0.0
H3563 H 0.75776 0.14066 0.23479 0.0
H3564 H 0.73806 0.14836 0.25602 0.0
H3565 H 0.84664 0.20243 0.27119 0.0
H3566 H 0.84508 0.23303 0.26328 0.0
H3567 H 0.84134 0.20756 0.23999 0.0
C3568 C 0.73324 0.10489 0.009 0.0
C3569 C 0.73834 0.13021 0.00556 0.0
C3570 C 0.70927 0.0916 0.00898 0.0
C3571 C 0.69003 0.10404 0.00589 0.0
C3572 C 0.69504 0.12937 1.00172 0.0
C3573 C 0.71902 0.14204 1.00139 0.0
C3574 C 0.70458 0.06446 0.01296 0.0
C3575 C 0.67513 0.14345 0.99864 0.0
C3576 C 0.6238 0.07127 0.99047 0.0
C3577 C 0.61563 0.07258 0.0133 0.0
C3578 C 0.64829 0.08027 0.98789 0.0
C3579 C 0.66481 0.09128 0.00859 0.0
C3580 C 0.65666 0.09209 0.03176 0.0
C3581 C 0.63219 0.08251 0.03385 0.0
C3582 C 0.65633 0.07863 0.96296 0.0
C3583 C 0.67356 0.10404 0.05423 0.0
H3584 H 0.748 0.09555 0.01211 0.0
H3585 H 0.72266 0.16159 0.99874 0.0
H3586 H 0.69795 0.06188 0.03082 0.0
H3587 H 0.69027 0.05349 0.99889 0.0
H3588 H 0.7211 0.05691 0.01255 0.0
H3589 H 0.68195 0.16286 0.99469 0.0
H3590 H 0.66103 0.13396 0.98368 0.0
H3591 H 0.6663 0.14387 0.01547 0.0
H3592 H 0.61101 0.06339 0.97458 0.0
H3593 H 0.62588 0.08352 0.05151 0.0
H3594 H 0.67254 0.07052 0.96337 0.0
H3595 H 0.66148 0.09752 0.95711 0.0
H3596 H 0.6419 0.06722 0.94922 0.0
H3597 H 0.68959 0.09568 0.05611 0.0
H3598 H 0.66466 0.10207 0.07101 0.0
H3599 H 0.68018 0.1241 0.05259 0.0
C3600 C 0.17191 0.42526 0.29172 0.0
C3601 C 0.16935 0.43553 0.26959 0.0
C3602 C 0.18598 0.40739 0.29491 0.0
C3603 C 0.19748 0.39929 0.2754 0.0
C3604 C 0.19417 0.40895 0.25276 0.0
C3605 C 0.18038 0.42704 0.25021 0.0
C3606 C 0.18916 0.39776 0.31938 0.0
C3607 C 0.2056 0.40049 0.23129 0.0
C3608 C 0.25498 0.37485 0.28601 0.0
C3609 C 0.24624 0.34917 0.28079 0.0
C3610 C 0.2392 0.39122 0.28535 0.0
C3611 C 0.21402 0.38177 0.27882 0.0
C3612 C 0.20505 0.35575 0.27401 0.0
C3613 C 0.22127 0.33979 0.27529 0.0
C3614 C 0.24961 0.41875 0.29086 0.0
C3615 C 0.17844 0.34481 0.26669 0.0
H3616 H 0.16353 0.43173 0.30682 0.0
H3617 H 0.17837 0.43468 0.23297 0.0
H3618 H 0.18388 0.3772 0.31745 0.0
H3619 H 0.2085 0.40312 0.32711 0.0
H3620 H 0.17827 0.40509 0.33242 0.0
H3621 H 0.19987 0.4084 0.21449 0.0
H3622 H 0.22559 0.40615 0.23524 0.0
H3623 H 0.20076 0.37995 0.22788 0.0
H3624 H 0.27431 0.38222 0.29022 0.0
H3625 H 0.2145 0.32008 0.27088 0.0
H3626 H 0.24 0.42675 0.30471 0.0
H3627 H 0.24699 0.42814 0.27422 0.0
H3628 H 0.26924 0.42298 0.29756 0.0
H3629 H 0.16807 0.34908 0.28163 0.0
H3630 H 0.17455 0.32437 0.26224 0.0
H3631 H 0.17175 0.35322 0.25062 0.0
C3632 C 0.1766 0.47595 0.04784 0.0
C3633 C 0.19457 0.46884 0.03555 0.0
C3634 C 0.15961 0.48731 0.03615 0.0
C3635 C 0.16121 0.49249 0.01178 0.0
C3636 C 0.1796 0.4857 0.99933 0.0
C3637 C 0.19591 0.47348 0.0113 0.0
C3638 C 0.13981 0.49356 0.04991 0.0
C3639 C 0.1822 0.49159 0.9736 0.0
C3640 C 0.10065 0.50054 0.98515 0.0
C3641 C 0.10249 0.52549 0.99331 0.0
C3642 C 0.12072 0.48982 0.98843 0.0
C3643 C 0.14307 0.50464 0.99973 0.0
C3644 C 0.14573 0.53059 0.00463 0.0
C3645 C 0.12522 0.54073 1.00162 0.0
C3646 C 0.117 0.46209 0.98283 0.0
C3647 C 0.16954 0.54716 0.01574 0.0
H3648 H 0.17552 0.47213 0.06656 0.0
H3649 H 0.21003 0.4681 1.00193 0.0
H3650 H 0.14134 0.51392 0.05177 0.0
H3651 H 0.12182 0.48481 0.03977 0.0
H3652 H 0.14056 0.48721 0.06836 0.0
H3653 H 0.19738 0.48487 0.96644 0.0
H3654 H 0.16525 0.48308 0.96152 0.0
H3655 H 0.18535 0.51195 0.97282 0.0
H3656 H 0.08308 0.48878 0.97835 0.0
H3657 H 0.1267 0.56016 0.00752 0.0
H3658 H 0.11264 0.45302 0.99939 0.0
H3659 H 0.13345 0.45678 0.97726 0.0
H3660 H 0.10177 0.45477 0.96822 0.0
H3661 H 0.17204 0.5456 0.03555 0.0
H3662 H 0.17014 0.56693 0.01304 0.0
H3663 H 0.18487 0.5415 0.00787 0.0
C3664 C 0.82028 0.98149 0.23638 0.0
C3665 C 0.84516 0.99023 0.24374 0.0
C3666 C 0.8087 0.9568 0.23856 0.0
C3667 C 0.82234 0.94042 0.24822 0.0
C3668 C 0.84748 0.94906 0.25542 0.0
C3669 C 0.85854 0.9738 0.25316 0.0
C3670 C 0.78184 0.94831 0.23077 0.0
C3671 C 0.86273 0.93218 0.26569 0.0
C3672 C 0.79251 0.88351 0.27692 0.0
C3673 C 0.79167 0.86428 0.25869 0.0
C3674 C 0.80172 0.90842 0.27345 0.0
C3675 C 0.81042 0.91432 0.25124 0.0
C3676 C 0.80905 0.89508 0.23252 0.0
C3677 C 0.79967 0.87032 0.23645 0.0
C3678 C 0.80275 0.92837 0.29384 0.0
C3679 C 0.8182 0.90058 0.20861 0.0
H3680 H 0.80976 0.994 0.2291 0.0
H3681 H 0.87778 0.98026 0.25883 0.0
H3682 H 0.77819 0.93214 0.2168 0.0
H3683 H 0.77252 0.94213 0.24647 0.0
H3684 H 0.77387 0.96318 0.22327 0.0
H3685 H 0.88213 0.94161 0.26999 0.0
H3686 H 0.85606 0.92544 0.28252 0.0
H3687 H 0.86118 0.91565 0.25256 0.0
H3688 H 0.78629 0.87912 0.29414 0.0
H3689 H 0.79913 0.85566 0.22222 0.0
H3690 H 0.79389 0.94299 0.28719 0.0
H3691 H 0.82189 0.93735 0.30047 0.0
H3692 H 0.79384 0.92091 0.30936 0.0
H3693 H 0.80968 0.91479 0.20051 0.0
H3694 H 0.81448 0.88377 0.19537 0.0
H3695 H 0.838 0.90831 0.21163 0.0
C3696 C 0.6598 0.0806 0.78036 0.0
C3697 C 0.66826 0.05862 0.77871 0.0
C3698 C 0.67533 0.10373 0.77967 0.0
C3699 C 0.70014 0.10508 0.77788 0.0
C3700 C 0.70905 0.08308 0.77716 0.0
C3701 C 0.69292 0.06003 0.77725 0.0
C3702 C 0.66495 0.12666 0.78001 0.0
C3703 C 0.73551 0.08389 0.77591 0.0
C3704 C 0.73061 0.16218 0.75025 0.0
C3705 C 0.73955 0.17887 0.77097 0.0
C3706 C 0.7187 0.13764 0.75224 0.0
C3707 C 0.71623 0.12952 0.77555 0.0
C3708 C 0.72677 0.14589 0.79653 0.0
C3709 C 0.73804 0.17052 0.79398 0.0
C3710 C 0.70732 0.12098 0.72942 0.0
C3711 C 0.72509 0.13779 0.82167 0.0
H3712 H 0.64074 0.07969 0.78131 0.0
H3713 H 0.6996 0.04312 0.77612 0.0
H3714 H 0.67436 0.1403 0.79545 0.0
H3715 H 0.66787 0.13565 0.76311 0.0
H3716 H 0.64527 0.12242 0.78158 0.0
H3717 H 0.73992 0.06547 0.77764 0.0
H3718 H 0.74057 0.09021 0.75836 0.0
H3719 H 0.74678 0.09745 0.79052 0.0
H3720 H 0.73172 0.16866 0.73244 0.0
H3721 H 0.74512 0.18343 0.81003 0.0
H3722 H 0.68733 0.11721 0.72863 0.0
H3723 H 0.71263 0.10287 0.72954 0.0
H3724 H 0.71252 0.1294 0.71275 0.0
H3725 H 0.70622 0.13571 0.8259 0.0
H3726 H 0.73716 0.15141 0.83577 0.0
H3727 H 0.72985 0.11947 0.82267 0.0
loop_
_geom_bond_atom_site_label_1
_geom_bond_atom_site_label_2
_geom_bond_distance
_geom_bond_site_symmetry_2
_ccdc_geom_bond_type
O0 Cd1 2.223 . S
O0 C8 1.315 . S
Cd1 O0 2.223 . S
Cd1 O4 2.297 . S
Cd1 O5 2.439 . S
Cd1 O11 2.240 1_455 S
Cd2 O3 2.240 . S
Cd2 O10 2.223 1_455 S
Cd2 O12 2.295 1_455 S
Cd2 O13 2.439 . S
O3 Cd2 2.240 . S
O3 C8 1.279 . S
O4 Cd1 2.297 . S
O4 C6 1.247 . S
O5 Cd1 2.439 . S
O5 C6 1.208 . S
C6 O4 1.247 . S
C6 O5 1.208 . S
C7 O12 1.243 1_455 S
C7 O13 1.208 . S
C8 O0 1.315 . S
C8 O3 1.279 . S
C9 O10 1.315 . S
C9 O11 1.279 . S
O10 Cd2 2.223 1_655 S
O10 C9 1.315 . S
O11 Cd1 2.240 1_655 S
O11 C9 1.279 . S
O12 Cd2 2.295 1_655 S
O12 C7 1.243 1_655 S
O13 Cd2 2.439 . S
O13 C7 1.208 . S
O14 Cd15 2.227 . S
O14 C22 1.316 . S
Cd15 O14 2.227 . S
Cd15 O18 2.297 . S
Cd15 O19 2.439 . S
Cd15 O25 2.240 1_655 S
Cd16 O17 2.240 1_455 S
Cd16 O24 2.223 . S
Cd16 O26 2.297 . S
Cd16 O27 2.427 1_455 S
O17 Cd16 2.240 1_655 S
O17 C22 1.279 . S
O18 Cd15 2.297 . S
O18 C20 1.247 . S
O19 Cd15 2.439 . S
O19 C20 1.208 . S
C20 O18 1.247 . S
C20 O19 1.208 . S
C21 O26 1.247 . S
C21 O27 1.194 1_455 S
C22 O14 1.316 . S
C22 O17 1.279 . S
C23 O24 1.315 . S
C23 O25 1.279 . S
O24 Cd16 2.223 . S
O24 C23 1.315 . S
O25 Cd15 2.240 1_455 S
O25 C23 1.279 . S
O26 Cd16 2.297 . S
O26 C21 1.247 . S
O27 Cd16 2.427 1_655 S
O27 C21 1.194 1_655 S
O28 Cd29 2.223 . S
O28 C36 1.315 . S
Cd29 O28 2.223 . S
Cd29 O32 2.297 . S
Cd29 O33 2.439 . S
Cd29 O39 2.240 . S
Cd30 O31 2.240 . S
Cd30 O38 2.223 . S
Cd30 O40 2.297 . S
Cd30 O41 2.439 . S
O31 Cd30 2.240 . S
O31 C36 1.279 . S
O32 Cd29 2.297 . S
O32 C34 1.247 . S
O33 Cd29 2.439 . S
O33 C34 1.208 . S
C34 O32 1.247 . S
C34 O33 1.208 . S
C35 O40 1.247 . S
C35 O41 1.208 . S
C36 O28 1.315 . S
C36 O31 1.279 . S
C37 O38 1.315 . S
C37 O39 1.279 . S
O38 Cd30 2.223 . S
O38 C37 1.315 . S
O39 Cd29 2.240 . S
O39 C37 1.279 . S
O40 Cd30 2.297 . S
O40 C35 1.247 . S
O41 Cd30 2.439 . S
O41 C35 1.208 . S
O42 Cd43 2.223 . S
O42 C50 1.315 . S
Cd43 O42 2.223 . S
Cd43 O46 2.297 . S
Cd43 O47 2.439 . S
Cd43 O53 2.240 . S
Cd44 O45 2.240 . S
Cd44 O52 2.223 . S
Cd44 O54 2.297 . S
Cd44 O55 2.439 . S
O45 Cd44 2.240 . S
O45 C50 1.279 . S
O46 Cd43 2.297 . S
O46 C48 1.247 . S
O47 Cd43 2.439 . S
O47 C48 1.208 . S
C48 O46 1.247 . S
C48 O47 1.208 . S
C49 O54 1.247 . S
C49 O55 1.208 . S
C50 O42 1.315 . S
C50 O45 1.279 . S
C51 O52 1.315 . S
C51 O53 1.279 . S
O52 Cd44 2.223 . S
O52 C51 1.315 . S
O53 Cd43 2.240 . S
O53 C51 1.279 . S
O54 Cd44 2.297 . S
O54 C49 1.247 . S
O55 Cd44 2.439 . S
O55 C49 1.208 . S
O56 Cd57 2.223 . S
O56 C64 1.315 . S
Cd57 O56 2.223 . S
Cd57 O60 2.297 1_455 S
Cd57 O61 2.439 1_455 S
Cd57 O67 2.240 . S
Cd58 O59 2.240 1_455 S
Cd58 O66 2.223 . S
Cd58 O68 2.297 . S
Cd58 O69 2.439 . S
O59 Cd58 2.240 1_655 S
O59 C64 1.279 1_655 S
O60 Cd57 2.297 1_655 S
O60 C62 1.247 . S
O61 Cd57 2.439 1_655 S
O61 C62 1.208 . S
C62 O60 1.247 . S
C62 O61 1.208 . S
C63 O68 1.247 . S
C63 O69 1.208 . S
C64 O56 1.315 . S
C64 O59 1.279 1_455 S
C65 O66 1.315 . S
C65 O67 1.279 . S
O66 Cd58 2.223 . S
O66 C65 1.315 . S
O67 Cd57 2.240 . S
O67 C65 1.279 . S
O68 Cd58 2.297 . S
O68 C63 1.247 . S
O69 Cd58 2.439 . S
O69 C63 1.208 . S
O70 Cd71 2.223 . S
O70 C78 1.315 . S
Cd71 O70 2.223 . S
Cd71 O74 2.297 . S
Cd71 O75 2.439 . S
Cd71 O81 2.240 . S
Cd72 O73 2.240 . S
Cd72 O80 2.223 . S
Cd72 O82 2.297 . S
Cd72 O83 2.439 . S
O73 Cd72 2.240 . S
O73 C78 1.279 . S
O74 Cd71 2.297 . S
O74 C76 1.247 . S
O75 Cd71 2.439 . S
O75 C76 1.208 . S
C76 O74 1.247 . S
C76 O75 1.208 . S
C77 O82 1.247 . S
C77 O83 1.208 . S
C78 O70 1.315 . S
C78 O73 1.279 . S
C79 O80 1.315 . S
C79 O81 1.279 . S
O80 Cd72 2.223 . S
O80 C79 1.315 . S
O81 Cd71 2.240 . S
O81 C79 1.279 . S
O82 Cd72 2.297 . S
O82 C77 1.247 . S
O83 Cd72 2.439 . S
O83 C77 1.208 . S
O84 Cd85 2.223 . S
O84 C92 1.315 . S
Cd85 O84 2.223 . S
Cd85 O88 2.297 . S
Cd85 O89 2.439 . S
Cd85 O95 2.240 . S
Cd86 O87 2.240 . S
Cd86 O94 2.223 . S
Cd86 O96 2.297 . S
Cd86 O97 2.439 . S
O87 Cd86 2.240 . S
O87 C92 1.279 . S
O88 Cd85 2.297 . S
O88 C90 1.247 . S
O89 Cd85 2.439 . S
O89 C90 1.208 . S
C90 O88 1.247 . S
C90 O89 1.208 . S
C91 O96 1.247 . S
C91 O97 1.208 . S
C92 O84 1.315 . S
C92 O87 1.279 . S
C93 O94 1.315 . S
C93 O95 1.279 . S
O94 Cd86 2.223 . S
O94 C93 1.315 . S
O95 Cd85 2.240 . S
O95 C93 1.279 . S
O96 Cd86 2.297 . S
O96 C91 1.247 . S
O97 Cd86 2.439 . S
O97 C91 1.208 . S
O98 Cd99 2.223 . S
O98 C106 1.315 . S
Cd99 O98 2.223 . S
Cd99 O102 2.297 . S
Cd99 O103 2.439 . S
Cd99 O109 2.240 1_455 S
Cd100 O101 2.240 . S
Cd100 O108 2.223 1_455 S
Cd100 O110 2.297 1_455 S
Cd100 O111 2.439 . S
O101 Cd100 2.240 . S
O101 C106 1.279 . S
O102 Cd99 2.297 . S
O102 C104 1.247 . S
O103 Cd99 2.439 . S
O103 C104 1.208 . S
C104 O102 1.247 . S
C104 O103 1.208 . S
C105 O110 1.247 1_455 S
C105 O111 1.208 . S
C106 O98 1.315 . S
C106 O101 1.279 . S
C107 O108 1.315 . S
C107 O109 1.279 . S
O108 Cd100 2.223 1_655 S
O108 C107 1.315 . S
O109 Cd99 2.240 1_655 S
O109 C107 1.279 . S
O110 Cd100 2.297 1_655 S
O110 C105 1.247 1_655 S
O111 Cd100 2.439 . S
O111 C105 1.208 . S
O112 Cd113 2.223 . S
O112 C120 1.315 . S
Cd113 O112 2.223 . S
Cd113 O116 2.297 . S
Cd113 O117 2.439 . S
Cd113 O123 2.240 . S
Cd114 O115 2.240 . S
Cd114 O122 2.223 . S
Cd114 O124 2.297 . S
Cd114 O125 2.439 . S
O115 Cd114 2.240 . S
O115 C120 1.279 . S
O116 Cd113 2.297 . S
O116 C118 1.247 . S
O117 Cd113 2.439 . S
O117 C118 1.208 . S
C118 O116 1.247 . S
C118 O117 1.208 . S
C119 O124 1.247 . S
C119 O125 1.208 . S
C120 O112 1.315 . S
C120 O115 1.279 . S
C121 O122 1.315 . S
C121 O123 1.279 . S
O122 Cd114 2.223 . S
O122 C121 1.315 . S
O123 Cd113 2.240 . S
O123 C121 1.279 . S
O124 Cd114 2.297 . S
O124 C119 1.247 . S
O125 Cd114 2.439 . S
O125 C119 1.208 . S
O126 Cd127 2.223 . S
O126 C134 1.315 . S
Cd127 O126 2.223 . S
Cd127 O130 2.297 . S
Cd127 O131 2.439 . S
Cd127 O137 2.240 . S
Cd128 O129 2.240 . S
Cd128 O136 2.223 . S
Cd128 O138 2.297 . S
Cd128 O139 2.439 . S
O129 Cd128 2.240 . S
O129 C134 1.279 . S
O130 Cd127 2.297 . S
O130 C132 1.247 . S
O131 Cd127 2.439 . S
O131 C132 1.208 . S
C132 O130 1.247 . S
C132 O131 1.208 . S
C133 O138 1.247 . S
C133 O139 1.208 . S
C134 O126 1.315 . S
C134 O129 1.279 . S
C135 O136 1.315 . S
C135 O137 1.279 . S
O136 Cd128 2.223 . S
O136 C135 1.315 . S
O137 Cd127 2.240 . S
O137 C135 1.279 . S
O138 Cd128 2.297 . S
O138 C133 1.247 . S
O139 Cd128 2.439 . S
O139 C133 1.208 . S
O140 Cd141 2.223 1_545 S
O140 C148 1.315 1_545 S
Cd141 O140 2.223 1_565 S
Cd141 O144 2.297 . S
Cd141 O145 2.439 . S
Cd141 O151 2.240 1_565 S
Cd142 O143 2.240 1_545 S
Cd142 O150 2.223 . S
Cd142 O152 2.297 . S
Cd142 O153 2.439 1_545 S
O143 Cd142 2.240 1_565 S
O143 C148 1.279 . S
O144 Cd141 2.297 . S
O144 C146 1.247 . S
O145 Cd141 2.439 . S
O145 C146 1.208 . S
C146 O144 1.247 . S
C146 O145 1.208 . S
C147 O152 1.247 . S
C147 O153 1.208 1_545 S
C148 O140 1.315 1_565 S
C148 O143 1.279 . S
C149 O150 1.315 . S
C149 O151 1.279 . S
O150 Cd142 2.223 . S
O150 C149 1.315 . S
O151 Cd141 2.240 1_545 S
O151 C149 1.279 . S
O152 Cd142 2.297 . S
O152 C147 1.247 . S
O153 Cd142 2.439 1_565 S
O153 C147 1.208 1_565 S
O154 Cd155 2.223 . S
O154 C162 1.315 . S
Cd155 O154 2.223 . S
Cd155 O158 2.297 . S
Cd155 O159 2.439 . S
Cd155 O165 2.240 . S
Cd156 O157 2.240 . S
Cd156 O164 2.223 . S
Cd156 O166 2.297 1_554 S
Cd156 O167 2.439 1_554 S
O157 Cd156 2.240 . S
O157 C162 1.279 . S
O158 Cd155 2.297 . S
O158 C160 1.247 . S
O159 Cd155 2.439 . S
O159 C160 1.208 . S
C160 O158 1.247 . S
C160 O159 1.208 . S
C161 O166 1.247 . S
C161 O167 1.208 . S
C162 O154 1.315 . S
C162 O157 1.279 . S
C163 O164 1.315 . S
C163 O165 1.279 . S
O164 Cd156 2.223 . S
O164 C163 1.315 . S
O165 Cd155 2.240 . S
O165 C163 1.279 . S
O166 Cd156 2.297 1_556 S
O166 C161 1.247 . S
O167 Cd156 2.439 1_556 S
O167 C161 1.208 . S
O168 Cd169 2.223 . S
O168 C176 1.315 . S
Cd169 O168 2.223 . S
Cd169 O172 2.297 . S
Cd169 O173 2.439 . S
Cd169 O179 2.240 . S
Cd170 O171 2.240 . S
Cd170 O178 2.223 . S
Cd170 O180 2.297 1_554 S
Cd170 O181 2.439 1_554 S
O171 Cd170 2.240 . S
O171 C176 1.279 . S
O172 Cd169 2.297 . S
O172 C174 1.247 . S
O173 Cd169 2.439 . S
O173 C174 1.208 . S
C174 O172 1.247 . S
C174 O173 1.208 . S
C175 O180 1.247 . S
C175 O181 1.208 . S
C176 O168 1.315 . S
C176 O171 1.279 . S
C177 O178 1.315 . S
C177 O179 1.279 . S
O178 Cd170 2.223 . S
O178 C177 1.315 . S
O179 Cd169 2.240 . S
O179 C177 1.279 . S
O180 Cd170 2.297 1_556 S
O180 C175 1.247 . S
O181 Cd170 2.439 1_556 S
O181 C175 1.208 . S
O182 Cd183 2.223 . S
O182 C190 1.315 . S
Cd183 O182 2.223 . S
Cd183 O186 2.297 . S
Cd183 O187 2.439 1_554 S
Cd183 O193 2.240 1_554 S
Cd184 O185 2.240 1_556 S
Cd184 O192 2.223 1_556 S
Cd184 O194 2.297 . S
Cd184 O195 2.439 . S
O185 Cd184 2.240 1_554 S
O185 C190 1.279 . S
O186 Cd183 2.297 . S
O186 C188 1.247 . S
O187 Cd183 2.439 1_556 S
O187 C188 1.208 1_556 S
C188 O186 1.247 . S
C188 O187 1.208 1_554 S
C189 O194 1.247 . S
C189 O195 1.208 . S
C190 O182 1.315 . S
C190 O185 1.279 . S
C191 O192 1.315 1_556 S
C191 O193 1.279 . S
O192 Cd184 2.223 1_554 S
O192 C191 1.315 1_554 S
O193 Cd183 2.240 1_556 S
O193 C191 1.279 . S
O194 Cd184 2.297 . S
O194 C189 1.247 . S
O195 Cd184 2.439 . S
O195 C189 1.208 . S
O196 Cd197 2.223 . S
O196 C204 1.315 . S
Cd197 O196 2.223 . S
Cd197 O200 2.297 . S
Cd197 O201 2.439 . S
Cd197 O207 2.240 . S
Cd198 O199 2.240 . S
Cd198 O206 2.223 . S
Cd198 O208 2.297 . S
Cd198 O209 2.439 . S
O199 Cd198 2.240 . S
O199 C204 1.279 . S
O200 Cd197 2.297 . S
O200 C202 1.247 . S
O201 Cd197 2.439 . S
O201 C202 1.208 . S
C202 O200 1.247 . S
C202 O201 1.208 . S
C203 O208 1.247 . S
C203 O209 1.208 . S
C204 O196 1.315 . S
C204 O199 1.279 . S
C205 O206 1.315 . S
C205 O207 1.279 . S
O206 Cd198 2.223 . S
O206 C205 1.315 . S
O207 Cd197 2.240 . S
O207 C205 1.279 . S
O208 Cd198 2.297 . S
O208 C203 1.247 . S
O209 Cd198 2.439 . S
O209 C203 1.208 . S
O210 Cd211 2.223 . S
O210 C218 1.315 . S
Cd211 O210 2.223 . S
Cd211 O214 2.297 . S
Cd211 O215 2.439 . S
Cd211 O221 2.240 . S
Cd212 O213 2.240 . S
Cd212 O220 2.223 . S
Cd212 O222 2.297 . S
Cd212 O223 2.439 . S
O213 Cd212 2.240 . S
O213 C218 1.279 . S
O214 Cd211 2.297 . S
O214 C216 1.247 . S
O215 Cd211 2.439 . S
O215 C216 1.208 . S
C216 O214 1.247 . S
C216 O215 1.208 . S
C217 O222 1.247 . S
C217 O223 1.208 . S
C218 O210 1.315 . S
C218 O213 1.279 . S
C219 O220 1.315 . S
C219 O221 1.279 . S
O220 Cd212 2.223 . S
O220 C219 1.315 . S
O221 Cd211 2.240 . S
O221 C219 1.279 . S
O222 Cd212 2.297 . S
O222 C217 1.247 . S
O223 Cd212 2.439 . S
O223 C217 1.208 . S
O224 Cd225 2.223 . S
O224 C232 1.315 . S
Cd225 O224 2.223 . S
Cd225 O228 2.297 . S
Cd225 O229 2.439 . S
Cd225 O235 2.240 . S
Cd226 O227 2.240 . S
Cd226 O234 2.223 . S
Cd226 O236 2.297 . S
Cd226 O237 2.439 . S
O227 Cd226 2.240 . S
O227 C232 1.279 . S
O228 Cd225 2.297 . S
O228 C230 1.247 . S
O229 Cd225 2.439 . S
O229 C230 1.208 . S
C230 O228 1.247 . S
C230 O229 1.208 . S
C231 O236 1.247 . S
C231 O237 1.208 . S
C232 O224 1.315 . S
C232 O227 1.279 . S
C233 O234 1.315 . S
C233 O235 1.279 . S
O234 Cd226 2.223 . S
O234 C233 1.315 . S
O235 Cd225 2.240 . S
O235 C233 1.279 . S
O236 Cd226 2.297 . S
O236 C231 1.247 . S
O237 Cd226 2.439 . S
O237 C231 1.208 . S
O238 Cd239 2.223 . S
O238 C246 1.315 . S
Cd239 O238 2.223 . S
Cd239 O242 2.297 . S
Cd239 O243 2.439 . S
Cd239 O249 2.240 . S
Cd240 O241 2.240 . S
Cd240 O248 2.223 . S
Cd240 O250 2.297 . S
Cd240 O251 2.439 . S
O241 Cd240 2.240 . S
O241 C246 1.279 . S
O242 Cd239 2.297 . S
O242 C244 1.247 . S
O243 Cd239 2.439 . S
O243 C244 1.208 . S
C244 O242 1.247 . S
C244 O243 1.208 . S
C245 O250 1.247 . S
C245 O251 1.208 . S
C246 O238 1.315 . S
C246 O241 1.279 . S
C247 O248 1.315 . S
C247 O249 1.279 . S
O248 Cd240 2.223 . S
O248 C247 1.315 . S
O249 Cd239 2.240 . S
O249 C247 1.279 . S
O250 Cd240 2.297 . S
O250 C245 1.247 . S
O251 Cd240 2.439 . S
O251 C245 1.208 . S
O252 Cd253 2.223 . S
O252 C260 1.315 . S
Cd253 O252 2.223 . S
Cd253 O256 2.297 . S
Cd253 O257 2.439 . S
Cd253 O263 2.240 . S
Cd254 O255 2.240 . S
Cd254 O262 2.223 . S
Cd254 O264 2.297 . S
Cd254 O265 2.439 . S
O255 Cd254 2.240 . S
O255 C260 1.279 . S
O256 Cd253 2.297 . S
O256 C258 1.247 . S
O257 Cd253 2.439 . S
O257 C258 1.208 . S
C258 O256 1.247 . S
C258 O257 1.208 . S
C259 O264 1.247 . S
C259 O265 1.208 . S
C260 O252 1.315 . S
C260 O255 1.279 . S
C261 O262 1.315 . S
C261 O263 1.279 . S
O262 Cd254 2.223 . S
O262 C261 1.315 . S
O263 Cd253 2.240 . S
O263 C261 1.279 . S
O264 Cd254 2.297 . S
O264 C259 1.247 . S
O265 Cd254 2.439 . S
O265 C259 1.208 . S
O266 Cd267 2.223 . S
O266 C274 1.315 . S
Cd267 O266 2.223 . S
Cd267 O270 2.297 1_545 S
Cd267 O271 2.439 1_545 S
Cd267 O277 2.240 . S
Cd268 O269 2.240 . S
Cd268 O276 2.223 . S
Cd268 O278 2.297 . S
Cd268 O279 2.439 . S
O269 Cd268 2.240 . S
O269 C274 1.279 . S
O270 Cd267 2.297 1_565 S
O270 C272 1.247 . S
O271 Cd267 2.439 1_565 S
O271 C272 1.208 . S
C272 O270 1.247 . S
C272 O271 1.208 . S
C273 O278 1.247 . S
C273 O279 1.208 . S
C274 O266 1.315 . S
C274 O269 1.279 . S
C275 O276 1.315 . S
C275 O277 1.279 . S
O276 Cd268 2.223 . S
O276 C275 1.315 . S
O277 Cd267 2.240 . S
O277 C275 1.279 . S
O278 Cd268 2.297 . S
O278 C273 1.247 . S
O279 Cd268 2.439 . S
O279 C273 1.208 . S
O280 Cd281 2.223 . S
O280 C288 1.315 . S
Cd281 O280 2.223 . S
Cd281 O284 2.297 . S
Cd281 O285 2.439 . S
Cd281 O291 2.255 . S
Cd282 O283 2.240 . S
Cd282 O290 2.223 . S
Cd282 O292 2.297 1_554 S
Cd282 O293 2.439 1_554 S
O283 Cd282 2.240 . S
O283 C288 1.279 . S
O284 Cd281 2.297 . S
O284 C286 1.247 . S
O285 Cd281 2.439 . S
O285 C286 1.208 . S
C286 O284 1.247 . S
C286 O285 1.208 . S
C287 O292 1.247 . S
C287 O293 1.208 . S
C288 O280 1.315 . S
C288 O283 1.279 . S
C289 O290 1.315 . S
C289 O291 1.291 . S
O290 Cd282 2.223 . S
O290 C289 1.315 . S
O291 Cd281 2.255 . S
O291 C289 1.291 . S
O292 Cd282 2.297 1_556 S
O292 C287 1.247 . S
O293 Cd282 2.439 1_556 S
O293 C287 1.208 . S
O294 Cd295 2.223 . S
O294 C302 1.315 . S
Cd295 O294 2.223 . S
Cd295 O298 2.297 . S
Cd295 O299 2.439 . S
Cd295 O305 2.240 . S
Cd296 O297 2.240 . S
Cd296 O304 2.223 . S
Cd296 O306 2.297 . S
Cd296 O307 2.439 . S
O297 Cd296 2.240 . S
O297 C302 1.279 . S
O298 Cd295 2.297 . S
O298 C300 1.247 . S
O299 Cd295 2.439 . S
O299 C300 1.208 . S
C300 O298 1.247 . S
C300 O299 1.208 . S
C301 O306 1.247 . S
C301 O307 1.208 . S
C302 O294 1.315 . S
C302 O297 1.279 . S
C303 O304 1.315 . S
C303 O305 1.279 . S
O304 Cd296 2.223 . S
O304 C303 1.315 . S
O305 Cd295 2.240 . S
O305 C303 1.279 . S
O306 Cd296 2.297 . S
O306 C301 1.247 . S
O307 Cd296 2.439 . S
O307 C301 1.208 . S
O308 Cd309 2.223 . S
O308 C316 1.315 . S
Cd309 O308 2.223 . S
Cd309 O312 2.297 . S
Cd309 O313 2.439 . S
Cd309 O319 2.240 . S
Cd310 O311 2.240 . S
Cd310 O318 2.223 . S
Cd310 O320 2.297 . S
Cd310 O321 2.439 . S
O311 Cd310 2.240 . S
O311 C316 1.279 . S
O312 Cd309 2.297 . S
O312 C314 1.247 . S
O313 Cd309 2.439 . S
O313 C314 1.208 . S
C314 O312 1.247 . S
C314 O313 1.208 . S
C315 O320 1.247 . S
C315 O321 1.208 . S
C316 O308 1.315 . S
C316 O311 1.279 . S
C317 O318 1.315 . S
C317 O319 1.279 . S
O318 Cd310 2.223 . S
O318 C317 1.315 . S
O319 Cd309 2.240 . S
O319 C317 1.279 . S
O320 Cd310 2.297 . S
O320 C315 1.247 . S
O321 Cd310 2.439 . S
O321 C315 1.208 . S
O322 Cd323 2.223 . S
O322 C330 1.315 . S
Cd323 O322 2.223 . S
Cd323 O326 2.297 . S
Cd323 O327 2.439 . S
Cd323 O333 2.240 . S
Cd324 O325 2.240 . S
Cd324 O332 2.223 . S
Cd324 O334 2.297 . S
Cd324 O335 2.439 . S
O325 Cd324 2.240 . S
O325 C330 1.279 . S
O326 Cd323 2.297 . S
O326 C328 1.247 . S
O327 Cd323 2.439 . S
O327 C328 1.208 . S
C328 O326 1.247 . S
C328 O327 1.208 . S
C329 O334 1.247 . S
C329 O335 1.208 . S
C330 O322 1.315 . S
C330 O325 1.279 . S
C331 O332 1.315 . S
C331 O333 1.279 . S
O332 Cd324 2.223 . S
O332 C331 1.315 . S
O333 Cd323 2.240 . S
O333 C331 1.279 . S
O334 Cd324 2.297 . S
O334 C329 1.247 . S
O335 Cd324 2.439 . S
O335 C329 1.208 . S
Tb336 O339 2.453 . S
Tb336 O340 2.596 . S
Tb336 O341 2.374 1_554 S
Tb336 O349 2.343 1_455 S
Tb336 O351 2.353 . S
Tb336 O353 2.427 . S
Tb336 O354 2.513 1_554 S
C337 O341 1.251 . S
C337 O343 1.263 . S
Tb338 O340 2.343 1_655 S
Tb338 O343 2.353 1_654 S
Tb338 O346 2.427 1_645 S
Tb338 O347 2.513 1_645 S
Tb338 O348 2.453 . S
Tb338 O349 2.596 . S
Tb338 O350 2.374 . S
O339 Tb336 2.453 . S
O339 C355 1.245 . S
O340 Tb336 2.596 . S
O340 Tb338 2.343 1_455 S
O340 C355 1.259 . S
O341 Tb336 2.374 1_556 S
O341 C337 1.251 . S
C342 O346 1.275 . S
C342 O347 1.246 . S
O343 C337 1.263 . S
O343 Tb338 2.353 1_456 S
C344 O348 1.245 . S
C344 O349 1.259 . S
C345 O350 1.250 1_455 S
C345 O351 1.263 . S
O346 Tb338 2.427 1_465 S
O346 C342 1.275 . S
O347 Tb338 2.513 1_465 S
O347 C342 1.246 . S
O348 Tb338 2.453 . S
O348 C344 1.245 . S
O349 Tb336 2.343 1_655 S
O349 Tb338 2.596 . S
O349 C344 1.259 . S
O350 Tb338 2.374 . S
O350 C345 1.250 1_655 S
O351 Tb336 2.353 . S
O351 C345 1.263 . S
C352 O353 1.275 . S
C352 O354 1.246 1_554 S
O353 Tb336 2.427 . S
O353 C352 1.275 . S
O354 Tb336 2.513 1_556 S
O354 C352 1.246 1_556 S
C355 O339 1.245 . S
C355 O340 1.259 . S
Tb356 O359 2.453 . S
Tb356 O360 2.596 . S
Tb356 O361 2.374 . S
Tb356 O369 2.343 . S
Tb356 O371 2.353 . S
Tb356 O373 2.427 . S
Tb356 O374 2.513 . S
C357 O361 1.251 . S
C357 O363 1.263 . S
Tb358 O360 2.343 . S
Tb358 O363 2.353 . S
Tb358 O366 2.427 . S
Tb358 O367 2.513 . S
Tb358 O368 2.453 . S
Tb358 O369 2.596 . S
Tb358 O370 2.374 . S
O359 Tb356 2.453 . S
O359 C375 1.245 . S
O360 Tb356 2.596 . S
O360 Tb358 2.343 . S
O360 C375 1.259 . S
O361 Tb356 2.374 . S
O361 C357 1.251 . S
C362 O366 1.275 . S
C362 O367 1.246 . S
O363 C357 1.263 . S
O363 Tb358 2.353 . S
C364 O368 1.245 . S
C364 O369 1.259 . S
C365 O370 1.250 . S
C365 O371 1.263 . S
O366 Tb358 2.427 . S
O366 C362 1.275 . S
O367 Tb358 2.513 . S
O367 C362 1.246 . S
O368 Tb358 2.453 . S
O368 C364 1.245 . S
O369 Tb356 2.343 . S
O369 Tb358 2.596 . S
O369 C364 1.259 . S
O370 Tb358 2.374 . S
O370 C365 1.250 . S
O371 Tb356 2.353 . S
O371 C365 1.263 . S
C372 O373 1.275 . S
C372 O374 1.246 . S
O373 Tb356 2.427 . S
O373 C372 1.275 . S
O374 Tb356 2.513 . S
O374 C372 1.246 . S
C375 O359 1.245 . S
C375 O360 1.259 . S
Tb376 O379 2.453 . S
Tb376 O380 2.596 . S
Tb376 O381 2.374 . S
Tb376 O389 2.343 . S
Tb376 O391 2.353 . S
Tb376 O393 2.427 . S
Tb376 O394 2.513 . S
C377 O381 1.251 . S
C377 O383 1.263 . S
Tb378 O380 2.343 . S
Tb378 O383 2.353 . S
Tb378 O386 2.427 . S
Tb378 O387 2.513 . S
Tb378 O388 2.453 1_545 S
Tb378 O389 2.596 . S
Tb378 O390 2.374 . S
O379 Tb376 2.453 . S
O379 C395 1.245 . S
O380 Tb376 2.596 . S
O380 Tb378 2.343 . S
O380 C395 1.259 . S
O381 Tb376 2.374 . S
O381 C377 1.251 . S
C382 O386 1.275 . S
C382 O387 1.246 . S
O383 C377 1.263 . S
O383 Tb378 2.353 . S
C384 O388 1.245 . S
C384 O389 1.259 1_565 S
C385 O390 1.250 . S
C385 O391 1.263 . S
O386 Tb378 2.427 . S
O386 C382 1.275 . S
O387 Tb378 2.513 . S
O387 C382 1.246 . S
O388 Tb378 2.453 1_565 S
O388 C384 1.245 . S
O389 Tb376 2.343 . S
O389 Tb378 2.596 . S
O389 C384 1.259 1_545 S
O390 Tb378 2.374 . S
O390 C385 1.250 . S
O391 Tb376 2.353 . S
O391 C385 1.263 . S
C392 O393 1.275 . S
C392 O394 1.246 . S
O393 Tb376 2.427 . S
O393 C392 1.275 . S
O394 Tb376 2.513 . S
O394 C392 1.246 . S
C395 O379 1.245 . S
C395 O380 1.259 . S
Tb396 O399 2.453 . S
Tb396 O400 2.596 . S
Tb396 O401 2.374 . S
Tb396 O409 2.343 . S
Tb396 O411 2.353 . S
Tb396 O413 2.427 . S
Tb396 O414 2.513 . S
C397 O401 1.251 . S
C397 O403 1.263 . S
Tb398 O400 2.343 . S
Tb398 O403 2.353 . S
Tb398 O406 2.427 . S
Tb398 O407 2.513 . S
Tb398 O408 2.453 . S
Tb398 O409 2.596 . S
Tb398 O410 2.374 . S
O399 Tb396 2.453 . S
O399 C415 1.245 . S
O400 Tb396 2.596 . S
O400 Tb398 2.343 . S
O400 C415 1.259 . S
O401 Tb396 2.374 . S
O401 C397 1.251 . S
C402 O406 1.275 . S
C402 O407 1.246 . S
O403 C397 1.263 . S
O403 Tb398 2.353 . S
C404 O408 1.245 . S
C404 O409 1.259 . S
C405 O410 1.250 . S
C405 O411 1.263 . S
O406 Tb398 2.427 . S
O406 C402 1.275 . S
O407 Tb398 2.513 . S
O407 C402 1.246 . S
O408 Tb398 2.453 . S
O408 C404 1.245 . S
O409 Tb396 2.343 . S
O409 Tb398 2.596 . S
O409 C404 1.259 . S
O410 Tb398 2.374 . S
O410 C405 1.250 . S
O411 Tb396 2.353 . S
O411 C405 1.263 . S
C412 O413 1.275 . S
C412 O414 1.246 . S
O413 Tb396 2.427 . S
O413 C412 1.275 . S
O414 Tb396 2.513 . S
O414 C412 1.246 . S
C415 O399 1.245 . S
C415 O400 1.259 . S
Tb416 O419 2.453 1_545 S
Tb416 O420 2.596 . S
Tb416 O421 2.374 1_455 S
Tb416 O429 2.343 . S
Tb416 O431 2.353 . S
Tb416 O433 2.427 . S
Tb416 O434 2.513 1_455 S
C417 O421 1.251 . S
C417 O423 1.263 . S
Tb418 O420 2.343 . S
Tb418 O423 2.353 1_455 S
Tb418 O426 2.427 . S
Tb418 O427 2.513 . S
Tb418 O428 2.453 . S
Tb418 O429 2.596 . S
Tb418 O430 2.374 . S
O419 Tb416 2.453 1_565 S
O419 C435 1.245 . S
O420 Tb416 2.596 . S
O420 Tb418 2.343 . S
O420 C435 1.259 1_545 S
O421 Tb416 2.374 1_655 S
O421 C417 1.251 . S
C422 O426 1.275 . S
C422 O427 1.246 . S
O423 C417 1.263 . S
O423 Tb418 2.353 1_655 S
C424 O428 1.245 . S
C424 O429 1.259 . S
C425 O430 1.250 . S
C425 O431 1.263 . S
O426 Tb418 2.427 . S
O426 C422 1.275 . S
O427 Tb418 2.513 . S
O427 C422 1.246 . S
O428 Tb418 2.453 . S
O428 C424 1.245 . S
O429 Tb416 2.343 . S
O429 Tb418 2.596 . S
O429 C424 1.259 . S
O430 Tb418 2.374 . S
O430 C425 1.250 . S
O431 Tb416 2.353 . S
O431 C425 1.263 . S
C432 O433 1.275 1_655 S
C432 O434 1.246 . S
O433 Tb416 2.427 . S
O433 C432 1.275 1_455 S
O434 Tb416 2.513 1_655 S
O434 C432 1.246 . S
C435 O419 1.245 . S
C435 O420 1.259 1_565 S
Tb436 O439 2.453 . S
Tb436 O440 2.596 . S
Tb436 O441 2.374 . S
Tb436 O449 2.343 . S
Tb436 O451 2.353 . S
Tb436 O453 2.427 . S
Tb436 O454 2.513 . S
C437 O441 1.251 . S
C437 O443 1.263 . S
Tb438 O440 2.343 . S
Tb438 O443 2.353 . S
Tb438 O446 2.427 . S
Tb438 O447 2.513 . S
Tb438 O448 2.453 . S
Tb438 O449 2.596 . S
Tb438 O450 2.374 . S
O439 Tb436 2.453 . S
O439 C455 1.245 . S
O440 Tb436 2.596 . S
O440 Tb438 2.343 . S
O440 C455 1.259 . S
O441 Tb436 2.374 . S
O441 C437 1.251 . S
C442 O446 1.275 . S
C442 O447 1.246 . S
O443 C437 1.263 . S
O443 Tb438 2.353 . S
C444 O448 1.245 . S
C444 O449 1.259 . S
C445 O450 1.250 . S
C445 O451 1.263 . S
O446 Tb438 2.427 . S
O446 C442 1.275 . S
O447 Tb438 2.513 . S
O447 C442 1.246 . S
O448 Tb438 2.453 . S
O448 C444 1.245 . S
O449 Tb436 2.343 . S
O449 Tb438 2.596 . S
O449 C444 1.259 . S
O450 Tb438 2.374 . S
O450 C445 1.250 . S
O451 Tb436 2.353 . S
O451 C445 1.263 . S
C452 O453 1.275 . S
C452 O454 1.246 . S
O453 Tb436 2.427 . S
O453 C452 1.275 . S
O454 Tb436 2.513 . S
O454 C452 1.246 . S
C455 O439 1.245 . S
C455 O440 1.259 . S
Tb456 O459 2.453 1_554 S
Tb456 O460 2.596 . S
Tb456 O461 2.374 1_545 S
Tb456 O469 2.343 . S
Tb456 O471 2.353 . S
Tb456 O473 2.427 . S
Tb456 O474 2.513 1_545 S
C457 O461 1.251 . S
C457 O463 1.263 . S
Tb458 O460 2.343 . S
Tb458 O463 2.353 1_545 S
Tb458 O466 2.427 . S
Tb458 O467 2.513 . S
Tb458 O468 2.453 . S
Tb458 O469 2.596 . S
Tb458 O470 2.374 . S
O459 Tb456 2.453 1_556 S
O459 C475 1.245 . S
O460 Tb456 2.596 . S
O460 Tb458 2.343 . S
O460 C475 1.259 1_554 S
O461 Tb456 2.374 1_565 S
O461 C457 1.251 . S
C462 O466 1.275 . S
C462 O467 1.246 . S
O463 C457 1.263 . S
O463 Tb458 2.353 1_565 S
C464 O468 1.245 . S
C464 O469 1.259 . S
C465 O470 1.250 . S
C465 O471 1.263 . S
O466 Tb458 2.427 . S
O466 C462 1.275 . S
O467 Tb458 2.513 . S
O467 C462 1.246 . S
O468 Tb458 2.453 . S
O468 C464 1.245 . S
O469 Tb456 2.343 . S
O469 Tb458 2.596 . S
O469 C464 1.259 . S
O470 Tb458 2.374 . S
O470 C465 1.250 . S
O471 Tb456 2.353 . S
O471 C465 1.263 . S
C472 O473 1.275 . S
C472 O474 1.246 1_545 S
O473 Tb456 2.427 . S
O473 C472 1.275 . S
O474 Tb456 2.513 1_565 S
O474 C472 1.246 1_565 S
C475 O459 1.245 . S
C475 O460 1.259 1_556 S
Tb476 O479 2.453 . S
Tb476 O480 2.596 . S
Tb476 O481 2.374 . S
Tb476 O489 2.343 . S
Tb476 O491 2.353 . S
Tb476 O493 2.427 . S
Tb476 O494 2.513 . S
C477 O481 1.251 . S
C477 O483 1.263 . S
Tb478 O480 2.343 . S
Tb478 O483 2.353 . S
Tb478 O486 2.427 . S
Tb478 O487 2.513 . S
Tb478 O488 2.453 . S
Tb478 O489 2.596 . S
Tb478 O490 2.374 . S
O479 Tb476 2.453 . S
O479 C495 1.245 . S
O480 Tb476 2.596 . S
O480 Tb478 2.343 . S
O480 C495 1.259 . S
O481 Tb476 2.374 . S
O481 C477 1.251 . S
C482 O486 1.275 . S
C482 O487 1.246 . S
O483 C477 1.263 . S
O483 Tb478 2.353 . S
C484 O488 1.245 . S
C484 O489 1.259 . S
C485 O490 1.250 . S
C485 O491 1.263 . S
O486 Tb478 2.427 . S
O486 C482 1.275 . S
O487 Tb478 2.513 . S
O487 C482 1.246 . S
O488 Tb478 2.453 . S
O488 C484 1.245 . S
O489 Tb476 2.343 . S
O489 Tb478 2.596 . S
O489 C484 1.259 . S
O490 Tb478 2.374 . S
O490 C485 1.250 . S
O491 Tb476 2.353 . S
O491 C485 1.263 . S
C492 O493 1.275 . S
C492 O494 1.246 . S
O493 Tb476 2.427 . S
O493 C492 1.275 . S
O494 Tb476 2.513 . S
O494 C492 1.246 . S
C495 O479 1.245 . S
C495 O480 1.259 . S
Tb496 O499 2.453 1_556 S
Tb496 O500 2.596 1_556 S
Tb496 O501 2.374 1_556 S
Tb496 O509 2.343 1_556 S
Tb496 O511 2.353 1_556 S
Tb496 O513 2.427 . S
Tb496 O514 2.513 . S
C497 O501 1.251 . S
C497 O503 1.263 . S
Tb498 O500 2.343 . S
Tb498 O503 2.353 . S
Tb498 O506 2.427 . S
Tb498 O507 2.513 . S
Tb498 O508 2.453 . S
Tb498 O509 2.596 . S
Tb498 O510 2.374 . S
O499 Tb496 2.453 1_554 S
O499 C515 1.245 . S
O500 Tb496 2.596 1_554 S
O500 Tb498 2.343 . S
O500 C515 1.259 . S
O501 Tb496 2.374 1_554 S
O501 C497 1.251 . S
C502 O506 1.275 . S
C502 O507 1.246 . S
O503 C497 1.263 . S
O503 Tb498 2.353 . S
C504 O508 1.245 . S
C504 O509 1.259 . S
C505 O510 1.250 . S
C505 O511 1.263 . S
O506 Tb498 2.427 . S
O506 C502 1.275 . S
O507 Tb498 2.513 . S
O507 C502 1.246 . S
O508 Tb498 2.453 . S
O508 C504 1.245 . S
O509 Tb496 2.343 1_554 S
O509 Tb498 2.596 . S
O509 C504 1.259 . S
O510 Tb498 2.374 . S
O510 C505 1.250 . S
O511 Tb496 2.353 1_554 S
O511 C505 1.263 . S
C512 O513 1.275 . S
C512 O514 1.246 . S
O513 Tb496 2.427 . S
O513 C512 1.275 . S
O514 Tb496 2.513 . S
O514 C512 1.246 . S
C515 O499 1.245 . S
C515 O500 1.259 . S
Tb516 O519 2.453 . S
Tb516 O520 2.596 . S
Tb516 O521 2.374 . S
Tb516 O529 2.343 . S
Tb516 O531 2.353 . S
Tb516 O533 2.427 . S
Tb516 O534 2.513 . S
C517 O521 1.251 . S
C517 O523 1.263 . S
Tb518 O520 2.343 . S
Tb518 O523 2.353 . S
Tb518 O526 2.427 . S
Tb518 O527 2.513 . S
Tb518 O528 2.453 . S
Tb518 O529 2.596 . S
Tb518 O530 2.374 . S
O519 Tb516 2.453 . S
O519 C535 1.245 . S
O520 Tb516 2.596 . S
O520 Tb518 2.343 . S
O520 C535 1.259 . S
O521 Tb516 2.374 . S
O521 C517 1.251 . S
C522 O526 1.275 . S
C522 O527 1.246 . S
O523 C517 1.263 . S
O523 Tb518 2.353 . S
C524 O528 1.245 . S
C524 O529 1.259 . S
C525 O530 1.250 . S
C525 O531 1.263 . S
O526 Tb518 2.427 . S
O526 C522 1.275 . S
O527 Tb518 2.513 . S
O527 C522 1.246 . S
O528 Tb518 2.453 . S
O528 C524 1.245 . S
O529 Tb516 2.343 . S
O529 Tb518 2.596 . S
O529 C524 1.259 . S
O530 Tb518 2.374 . S
O530 C525 1.250 . S
O531 Tb516 2.353 . S
O531 C525 1.263 . S
C532 O533 1.275 . S
C532 O534 1.246 . S
O533 Tb516 2.427 . S
O533 C532 1.275 . S
O534 Tb516 2.513 . S
O534 C532 1.246 . S
C535 O519 1.245 . S
C535 O520 1.259 . S
Tb536 O539 2.479 . S
Tb536 O540 2.596 1_655 S
Tb536 O541 2.374 . S
Tb536 O549 2.343 . S
Tb536 O551 2.353 . S
Tb536 O553 2.427 . S
Tb536 O554 2.513 . S
C537 O541 1.251 1_455 S
C537 O543 1.263 . S
Tb538 O540 2.343 . S
Tb538 O543 2.353 . S
Tb538 O546 2.427 . S
Tb538 O547 2.513 . S
Tb538 O548 2.453 . S
Tb538 O549 2.596 1_455 S
Tb538 O550 2.374 . S
O539 Tb536 2.479 . S
O539 C555 1.205 1_655 S
O540 Tb536 2.596 1_455 S
O540 Tb538 2.343 . S
O540 C555 1.259 . S
O541 Tb536 2.374 . S
O541 C537 1.251 1_655 S
C542 O546 1.275 . S
C542 O547 1.246 . S
O543 C537 1.263 . S
O543 Tb538 2.353 . S
C544 O548 1.245 1_655 S
C544 O549 1.259 . S
C545 O550 1.250 . S
C545 O551 1.263 1_455 S
O546 Tb538 2.427 . S
O546 C542 1.275 . S
O547 Tb538 2.513 . S
O547 C542 1.246 . S
O548 Tb538 2.453 . S
O548 C544 1.245 1_455 S
O549 Tb536 2.343 . S
O549 Tb538 2.596 1_655 S
O549 C544 1.259 . S
O550 Tb538 2.374 . S
O550 C545 1.250 . S
O551 Tb536 2.353 . S
O551 C545 1.263 1_655 S
C552 O553 1.275 . S
C552 O554 1.246 . S
O553 Tb536 2.427 . S
O553 C552 1.275 . S
O554 Tb536 2.513 . S
O554 C552 1.246 . S
C555 O539 1.205 1_455 S
C555 O540 1.259 . S
Tb556 O559 2.453 . S
Tb556 O560 2.596 . S
Tb556 O561 2.374 . S
Tb556 O569 2.343 . S
Tb556 O571 2.353 . S
Tb556 O573 2.427 . S
Tb556 O574 2.513 . S
C557 O561 1.251 . S
C557 O563 1.263 . S
Tb558 O560 2.343 . S
Tb558 O563 2.353 . S
Tb558 O566 2.427 . S
Tb558 O567 2.513 . S
Tb558 O568 2.453 . S
Tb558 O569 2.596 . S
Tb558 O570 2.374 . S
O559 Tb556 2.453 . S
O559 C575 1.245 . S
O560 Tb556 2.596 . S
O560 Tb558 2.343 . S
O560 C575 1.259 . S
O561 Tb556 2.374 . S
O561 C557 1.251 . S
C562 O566 1.275 . S
C562 O567 1.246 . S
O563 C557 1.263 . S
O563 Tb558 2.353 . S
C564 O568 1.245 . S
C564 O569 1.259 . S
C565 O570 1.250 . S
C565 O571 1.263 . S
O566 Tb558 2.427 . S
O566 C562 1.275 . S
O567 Tb558 2.513 . S
O567 C562 1.246 . S
O568 Tb558 2.453 . S
O568 C564 1.245 . S
O569 Tb556 2.343 . S
O569 Tb558 2.596 . S
O569 C564 1.259 . S
O570 Tb558 2.374 . S
O570 C565 1.250 . S
O571 Tb556 2.353 . S
O571 C565 1.263 . S
C572 O573 1.275 . S
C572 O574 1.246 . S
O573 Tb556 2.427 . S
O573 C572 1.275 . S
O574 Tb556 2.513 . S
O574 C572 1.246 . S
C575 O559 1.245 . S
C575 O560 1.259 . S
Tb576 O579 2.453 . S
Tb576 O580 2.596 . S
Tb576 O581 2.374 . S
Tb576 O589 2.343 . S
Tb576 O591 2.353 . S
Tb576 O593 2.427 . S
Tb576 O594 2.513 . S
C577 O581 1.251 . S
C577 O583 1.263 . S
Tb578 O580 2.343 . S
Tb578 O583 2.353 . S
Tb578 O586 2.427 . S
Tb578 O587 2.513 . S
Tb578 O588 2.453 . S
Tb578 O589 2.596 . S
Tb578 O590 2.374 . S
O579 Tb576 2.453 . S
O579 C595 1.245 . S
O580 Tb576 2.596 . S
O580 Tb578 2.343 . S
O580 C595 1.259 . S
O581 Tb576 2.374 . S
O581 C577 1.251 . S
C582 O586 1.275 . S
C582 O587 1.246 . S
O583 C577 1.263 . S
O583 Tb578 2.353 . S
C584 O588 1.245 . S
C584 O589 1.259 . S
C585 O590 1.250 . S
C585 O591 1.263 . S
O586 Tb578 2.427 . S
O586 C582 1.275 . S
O587 Tb578 2.513 . S
O587 C582 1.246 . S
O588 Tb578 2.453 . S
O588 C584 1.245 . S
O589 Tb576 2.343 . S
O589 Tb578 2.596 . S
O589 C584 1.259 . S
O590 Tb578 2.374 . S
O590 C585 1.250 . S
O591 Tb576 2.353 . S
O591 C585 1.263 . S
C592 O593 1.275 . S
C592 O594 1.246 . S
O593 Tb576 2.427 . S
O593 C592 1.275 . S
O594 Tb576 2.513 . S
O594 C592 1.246 . S
C595 O579 1.245 . S
C595 O580 1.259 . S
Tb596 O599 2.453 . S
Tb596 O600 2.596 . S
Tb596 O601 2.374 . S
Tb596 O609 2.343 . S
Tb596 O611 2.353 . S
Tb596 O613 2.427 . S
Tb596 O614 2.513 . S
C597 O601 1.251 . S
C597 O603 1.263 . S
Tb598 O600 2.343 . S
Tb598 O603 2.353 . S
Tb598 O606 2.427 . S
Tb598 O607 2.513 . S
Tb598 O608 2.453 . S
Tb598 O609 2.596 . S
Tb598 O610 2.374 . S
O599 Tb596 2.453 . S
O599 C615 1.245 . S
O600 Tb596 2.596 . S
O600 Tb598 2.343 . S
O600 C615 1.259 . S
O601 Tb596 2.374 . S
O601 C597 1.251 . S
C602 O606 1.275 . S
C602 O607 1.246 . S
O603 C597 1.263 . S
O603 Tb598 2.353 . S
C604 O608 1.245 . S
C604 O609 1.259 . S
C605 O610 1.250 . S
C605 O611 1.263 . S
O606 Tb598 2.427 . S
O606 C602 1.275 . S
O607 Tb598 2.513 . S
O607 C602 1.246 . S
O608 Tb598 2.453 . S
O608 C604 1.245 . S
O609 Tb596 2.343 . S
O609 Tb598 2.596 . S
O609 C604 1.259 . S
O610 Tb598 2.374 . S
O610 C605 1.250 . S
O611 Tb596 2.353 . S
O611 C605 1.263 . S
C612 O613 1.275 . S
C612 O614 1.246 . S
O613 Tb596 2.427 . S
O613 C612 1.275 . S
O614 Tb596 2.513 . S
O614 C612 1.246 . S
C615 O599 1.245 . S
C615 O600 1.259 . S
Tb616 O619 2.453 . S
Tb616 O620 2.596 . S
Tb616 O621 2.374 . S
Tb616 O629 2.343 . S
Tb616 O631 2.353 . S
Tb616 O633 2.427 . S
Tb616 O634 2.513 . S
C617 O621 1.251 . S
C617 O623 1.263 . S
Tb618 O620 2.343 . S
Tb618 O623 2.353 . S
Tb618 O626 2.427 . S
Tb618 O627 2.513 . S
Tb618 O628 2.453 . S
Tb618 O629 2.596 . S
Tb618 O630 2.374 . S
O619 Tb616 2.453 . S
O619 C635 1.245 . S
O620 Tb616 2.596 . S
O620 Tb618 2.343 . S
O620 C635 1.259 . S
O621 Tb616 2.374 . S
O621 C617 1.251 . S
C622 O626 1.275 . S
C622 O627 1.246 . S
O623 C617 1.263 . S
O623 Tb618 2.353 . S
C624 O628 1.245 . S
C624 O629 1.259 . S
C625 O630 1.250 . S
C625 O631 1.263 . S
O626 Tb618 2.427 . S
O626 C622 1.275 . S
O627 Tb618 2.513 . S
O627 C622 1.246 . S
O628 Tb618 2.453 . S
O628 C624 1.245 . S
O629 Tb616 2.343 . S
O629 Tb618 2.596 . S
O629 C624 1.259 . S
O630 Tb618 2.374 . S
O630 C625 1.250 . S
O631 Tb616 2.353 . S
O631 C625 1.263 . S
C632 O633 1.275 . S
C632 O634 1.246 . S
O633 Tb616 2.427 . S
O633 C632 1.275 . S
O634 Tb616 2.513 . S
O634 C632 1.246 . S
C635 O619 1.245 . S
C635 O620 1.259 . S
Tb636 O639 2.453 . S
Tb636 O640 2.596 . S
Tb636 O641 2.374 . S
Tb636 O649 2.343 . S
Tb636 O651 2.353 1_554 S
Tb636 O653 2.427 . S
Tb636 O654 2.513 . S
C637 O641 1.251 . S
C637 O643 1.258 1_455 S
Tb638 O640 2.343 1_655 S
Tb638 O643 2.356 . S
Tb638 O646 2.427 . S
Tb638 O647 2.513 . S
Tb638 O648 2.453 . S
Tb638 O649 2.596 1_655 S
Tb638 O650 2.374 1_554 S
O639 Tb636 2.453 . S
O639 C655 1.245 . S
O640 Tb636 2.596 . S
O640 Tb638 2.343 1_455 S
O640 C655 1.259 . S
O641 Tb636 2.374 . S
O641 C637 1.251 . S
C642 O646 1.275 . S
C642 O647 1.246 . S
O643 C637 1.258 1_655 S
O643 Tb638 2.356 . S
C644 O648 1.245 1_455 S
C644 O649 1.259 . S
C645 O650 1.250 1_455 S
C645 O651 1.263 . S
O646 Tb638 2.427 . S
O646 C642 1.275 . S
O647 Tb638 2.513 . S
O647 C642 1.246 . S
O648 Tb638 2.453 . S
O648 C644 1.245 1_655 S
O649 Tb636 2.343 . S
O649 Tb638 2.596 1_455 S
O649 C644 1.259 . S
O650 Tb638 2.374 1_556 S
O650 C645 1.250 1_655 S
O651 Tb636 2.353 1_556 S
O651 C645 1.263 . S
C652 O653 1.275 . S
C652 O654 1.246 . S
O653 Tb636 2.427 . S
O653 C652 1.275 . S
O654 Tb636 2.513 . S
O654 C652 1.246 . S
C655 O639 1.245 . S
C655 O640 1.259 . S
C656 C657 1.391 . S
C656 C658 1.391 . S
C656 H672 0.935 . S
C657 C656 1.391 . S
C657 C661 1.376 . S
C658 C656 1.391 . S
C658 C659 1.384 . S
C658 C662 1.515 1_455 S
C659 C658 1.384 . S
C659 C660 1.410 . S
C659 C667 1.503 . S
C660 C659 1.410 . S
C660 C661 1.392 . S
C660 C663 1.511 . S
C661 C657 1.376 . S
C661 C660 1.392 . S
C661 H673 0.929 . S
C662 C658 1.515 1_655 S
C662 H674 0.971 . S
C662 H675 0.938 1_655 S
C662 H676 0.981 . S
C663 C660 1.511 . S
C663 H677 0.961 . S
C663 H678 0.961 . S
C663 H679 0.961 1_455 S
C664 C665 1.370 . S
C664 C666 1.363 . S
C664 H680 0.931 . S
C665 C664 1.370 . S
C665 C669 1.408 1_455 S
C666 C664 1.363 . S
C666 C667 1.370 . S
C666 C670 1.524 . S
C667 C659 1.503 . S
C667 C666 1.370 . S
C667 C668 1.403 1_455 S
C668 C667 1.403 1_655 S
C668 C669 1.404 . S
C668 C671 1.539 . S
C669 C665 1.408 1_655 S
C669 C668 1.404 . S
C669 H681 0.930 . S
C670 C666 1.524 . S
C670 H682 0.956 . S
C670 H683 0.961 . S
C670 H684 0.961 . S
C671 C668 1.539 . S
C671 H685 0.958 . S
C671 H686 0.961 . S
C671 H687 0.960 . S
H672 C656 0.935 . S
H673 C661 0.929 . S
H674 C662 0.971 . S
H675 C662 0.938 1_455 S
H676 C662 0.981 . S
H677 C663 0.961 . S
H678 C663 0.961 . S
H679 C663 0.961 1_655 S
H680 C664 0.931 . S
H681 C669 0.930 . S
H682 C670 0.956 . S
H683 C670 0.961 . S
H684 C670 0.961 . S
H685 C671 0.958 . S
H686 C671 0.961 . S
H687 C671 0.960 . S
C688 C689 1.391 . S
C688 C690 1.394 . S
C688 H704 0.931 . S
C689 C688 1.391 . S
C689 C693 1.376 . S
C690 C688 1.394 . S
C690 C691 1.369 . S
C690 C694 1.531 . S
C691 C690 1.369 . S
C691 C692 1.410 . S
C691 C699 1.503 . S
C692 C691 1.410 . S
C692 C693 1.392 . S
C692 C695 1.511 . S
C693 C689 1.376 . S
C693 C692 1.392 . S
C693 H705 0.929 . S
C694 C690 1.531 . S
C694 H706 0.960 . S
C694 H707 0.962 . S
C694 H708 0.960 . S
C695 C692 1.511 . S
C695 H709 0.961 . S
C695 H710 0.961 . S
C695 H711 0.961 . S
C696 C697 1.370 . S
C696 C698 1.363 . S
C696 H712 0.931 . S
C697 C696 1.370 . S
C697 C701 1.408 . S
C698 C696 1.363 . S
C698 C699 1.370 . S
C698 C702 1.524 . S
C699 C691 1.503 . S
C699 C698 1.370 . S
C699 C700 1.403 . S
C700 C699 1.403 . S
C700 C701 1.404 . S
C700 C703 1.539 . S
C701 C697 1.408 . S
C701 C700 1.404 . S
C701 H713 0.930 . S
C702 C698 1.524 . S
C702 H714 0.956 . S
C702 H715 0.961 . S
C702 H716 0.961 . S
C703 C700 1.539 . S
C703 H717 0.958 . S
C703 H718 0.961 . S
C703 H719 0.960 . S
H704 C688 0.931 . S
H705 C693 0.929 . S
H706 C694 0.960 . S
H707 C694 0.962 . S
H708 C694 0.960 . S
H709 C695 0.961 . S
H710 C695 0.961 . S
H711 C695 0.961 . S
H712 C696 0.931 . S
H713 C701 0.930 . S
H714 C702 0.956 . S
H715 C702 0.961 . S
H716 C702 0.961 . S
H717 C703 0.958 . S
H718 C703 0.961 . S
H719 C703 0.960 . S
C720 C721 1.391 . S
C720 C722 1.394 . S
C720 H736 0.931 . S
C721 C720 1.391 . S
C721 C725 1.376 . S
C722 C720 1.394 . S
C722 C723 1.369 . S
C722 C726 1.531 . S
C723 C722 1.369 . S
C723 C724 1.410 . S
C723 C731 1.503 . S
C724 C723 1.410 . S
C724 C725 1.392 . S
C724 C727 1.511 . S
C725 C721 1.376 . S
C725 C724 1.392 . S
C725 H737 0.929 . S
C726 C722 1.531 . S
C726 H738 0.960 . S
C726 H739 0.962 . S
C726 H740 0.960 . S
C727 C724 1.511 . S
C727 H741 0.961 . S
C727 H742 0.961 . S
C727 H743 0.961 . S
C728 C729 1.370 . S
C728 C730 1.363 . S
C728 H744 0.931 . S
C729 C728 1.370 . S
C729 C733 1.408 . S
C730 C728 1.363 . S
C730 C731 1.370 . S
C730 C734 1.524 . S
C731 C723 1.503 . S
C731 C730 1.370 . S
C731 C732 1.403 . S
C732 C731 1.403 . S
C732 C733 1.404 . S
C732 C735 1.539 . S
C733 C729 1.408 . S
C733 C732 1.404 . S
C733 H745 0.930 . S
C734 C730 1.524 . S
C734 H746 0.956 . S
C734 H747 0.961 . S
C734 H748 0.961 . S
C735 C732 1.539 . S
C735 H749 0.958 . S
C735 H750 0.961 . S
C735 H751 0.960 . S
H736 C720 0.931 . S
H737 C725 0.929 . S
H738 C726 0.960 . S
H739 C726 0.962 . S
H740 C726 0.960 . S
H741 C727 0.961 . S
H742 C727 0.961 . S
H743 C727 0.961 . S
H744 C728 0.931 . S
H745 C733 0.930 . S
H746 C734 0.956 . S
H747 C734 0.961 . S
H748 C734 0.961 . S
H749 C735 0.958 . S
H750 C735 0.961 . S
H751 C735 0.960 . S
C752 C753 1.391 . S
C752 C754 1.394 . S
C752 H768 0.931 . S
C753 C752 1.391 . S
C753 C757 1.376 . S
C754 C752 1.394 . S
C754 C755 1.369 . S
C754 C758 1.531 . S
C755 C754 1.369 . S
C755 C756 1.410 . S
C755 C763 1.503 . S
C756 C755 1.410 . S
C756 C757 1.392 . S
C756 C759 1.511 . S
C757 C753 1.376 . S
C757 C756 1.392 . S
C757 H769 0.929 . S
C758 C754 1.531 . S
C758 H770 0.960 . S
C758 H771 0.962 . S
C758 H772 0.960 . S
C759 C756 1.511 . S
C759 H773 0.961 . S
C759 H774 0.961 . S
C759 H775 0.961 . S
C760 C761 1.370 . S
C760 C762 1.363 . S
C760 H776 0.931 . S
C761 C760 1.370 . S
C761 C765 1.408 . S
C762 C760 1.363 . S
C762 C763 1.370 . S
C762 C766 1.524 . S
C763 C755 1.503 . S
C763 C762 1.370 . S
C763 C764 1.403 . S
C764 C763 1.403 . S
C764 C765 1.404 . S
C764 C767 1.539 . S
C765 C761 1.408 . S
C765 C764 1.404 . S
C765 H777 0.930 . S
C766 C762 1.524 . S
C766 H778 0.956 . S
C766 H779 0.961 . S
C766 H780 0.961 . S
C767 C764 1.539 . S
C767 H781 0.958 . S
C767 H782 0.961 . S
C767 H783 0.960 . S
H768 C752 0.931 . S
H769 C757 0.929 . S
H770 C758 0.960 . S
H771 C758 0.962 . S
H772 C758 0.960 . S
H773 C759 0.961 . S
H774 C759 0.961 . S
H775 C759 0.961 . S
H776 C760 0.931 . S
H777 C765 0.930 . S
H778 C766 0.956 . S
H779 C766 0.961 . S
H780 C766 0.961 . S
H781 C767 0.958 . S
H782 C767 0.961 . S
H783 C767 0.960 . S
C784 C785 1.391 . S
C784 C786 1.394 . S
C784 H800 0.931 . S
C785 C784 1.391 . S
C785 C789 1.376 1_455 S
C786 C784 1.394 . S
C786 C787 1.369 . S
C786 C790 1.531 . S
C787 C786 1.369 . S
C787 C788 1.410 1_455 S
C787 C795 1.503 . S
C788 C787 1.410 1_655 S
C788 C789 1.392 . S
C788 C791 1.511 . S
C789 C785 1.376 1_655 S
C789 C788 1.392 . S
C789 H801 0.929 . S
C790 C786 1.531 . S
C790 H802 0.960 . S
C790 H803 0.962 . S
C790 H804 0.960 . S
C791 C788 1.511 . S
C791 H805 0.961 . S
C791 H806 0.961 . S
C791 H807 0.961 . S
C792 C793 1.370 . S
C792 C794 1.363 . S
C792 H808 0.931 . S
C793 C792 1.370 . S
C793 C797 1.408 . S
C794 C792 1.363 . S
C794 C795 1.370 . S
C794 C798 1.524 . S
C795 C787 1.503 . S
C795 C794 1.370 . S
C795 C796 1.403 . S
C796 C795 1.403 . S
C796 C797 1.404 . S
C796 C799 1.539 1_455 S
C797 C793 1.408 . S
C797 C796 1.404 . S
C797 H809 0.930 1_455 S
C798 C794 1.524 . S
C798 H810 0.956 . S
C798 H811 0.961 . S
C798 H812 0.961 . S
C799 C796 1.539 1_655 S
C799 H813 0.958 . S
C799 H814 0.961 . S
C799 H815 0.960 . S
H800 C784 0.931 . S
H801 C789 0.929 . S
H802 C790 0.960 . S
H803 C790 0.962 . S
H804 C790 0.960 . S
H805 C791 0.961 . S
H806 C791 0.961 . S
H807 C791 0.961 . S
H808 C792 0.931 . S
H809 C797 0.930 1_655 S
H810 C798 0.956 . S
H811 C798 0.961 . S
H812 C798 0.961 . S
H813 C799 0.958 . S
H814 C799 0.961 . S
H815 C799 0.960 . S
C816 C817 1.391 . S
C816 C818 1.394 . S
C816 H832 0.931 . S
C817 C816 1.391 . S
C817 C821 1.376 . S
C818 C816 1.394 . S
C818 C819 1.369 . S
C818 C822 1.531 . S
C819 C818 1.369 . S
C819 C820 1.410 . S
C819 C827 1.503 . S
C820 C819 1.410 . S
C820 C821 1.392 . S
C820 C823 1.511 . S
C821 C817 1.376 . S
C821 C820 1.392 . S
C821 H833 0.929 . S
C822 C818 1.531 . S
C822 H834 0.960 . S
C822 H835 0.962 . S
C822 H836 0.960 . S
C823 C820 1.511 . S
C823 H837 0.961 . S
C823 H838 0.961 . S
C823 H839 0.961 . S
C824 C825 1.370 . S
C824 C826 1.363 . S
C824 H840 0.931 . S
C825 C824 1.370 . S
C825 C829 1.408 . S
C826 C824 1.363 . S
C826 C827 1.370 . S
C826 C830 1.524 . S
C827 C819 1.503 . S
C827 C826 1.370 . S
C827 C828 1.403 . S
C828 C827 1.403 . S
C828 C829 1.404 . S
C828 C831 1.539 . S
C829 C825 1.408 . S
C829 C828 1.404 . S
C829 H841 0.930 . S
C830 C826 1.524 . S
C830 H842 0.956 . S
C830 H843 0.961 . S
C830 H844 0.961 . S
C831 C828 1.539 . S
C831 H845 0.958 . S
C831 H846 0.961 . S
C831 H847 0.960 . S
H832 C816 0.931 . S
H833 C821 0.929 . S
H834 C822 0.960 . S
H835 C822 0.962 . S
H836 C822 0.960 . S
H837 C823 0.961 . S
H838 C823 0.961 . S
H839 C823 0.961 . S
H840 C824 0.931 . S
H841 C829 0.930 . S
H842 C830 0.956 . S
H843 C830 0.961 . S
H844 C830 0.961 . S
H845 C831 0.958 . S
H846 C831 0.961 . S
H847 C831 0.960 . S
C848 C849 1.391 . S
C848 C850 1.394 . S
C848 H864 0.931 . S
C849 C848 1.391 . S
C849 C853 1.376 . S
C850 C848 1.394 . S
C850 C851 1.369 . S
C850 C854 1.531 . S
C851 C850 1.369 . S
C851 C852 1.410 . S
C851 C859 1.503 . S
C852 C851 1.410 . S
C852 C853 1.392 . S
C852 C855 1.511 . S
C853 C849 1.376 . S
C853 C852 1.392 . S
C853 H865 0.929 . S
C854 C850 1.531 . S
C854 H866 0.960 . S
C854 H867 0.962 . S
C854 H868 0.960 . S
C855 C852 1.511 . S
C855 H869 0.961 . S
C855 H870 0.961 . S
C855 H871 0.961 . S
C856 C857 1.370 . S
C856 C858 1.363 . S
C856 H872 0.931 . S
C857 C856 1.370 . S
C857 C861 1.408 . S
C858 C856 1.363 . S
C858 C859 1.370 . S
C858 C862 1.524 . S
C859 C851 1.503 . S
C859 C858 1.370 . S
C859 C860 1.403 . S
C860 C859 1.403 . S
C860 C861 1.404 . S
C860 C863 1.539 . S
C861 C857 1.408 . S
C861 C860 1.404 . S
C861 H873 0.930 . S
C862 C858 1.524 . S
C862 H874 0.956 . S
C862 H875 0.961 . S
C862 H876 0.961 . S
C863 C860 1.539 . S
C863 H877 0.958 . S
C863 H878 0.961 . S
C863 H879 0.960 . S
H864 C848 0.931 . S
H865 C853 0.929 . S
H866 C854 0.960 . S
H867 C854 0.962 . S
H868 C854 0.960 . S
H869 C855 0.961 . S
H870 C855 0.961 . S
H871 C855 0.961 . S
H872 C856 0.931 . S
H873 C861 0.930 . S
H874 C862 0.956 . S
H875 C862 0.961 . S
H876 C862 0.961 . S
H877 C863 0.958 . S
H878 C863 0.961 . S
H879 C863 0.960 . S
C880 C881 1.391 . S
C880 C882 1.394 . S
C880 H896 0.931 . S
C881 C880 1.391 . S
C881 C885 1.376 . S
C882 C880 1.394 . S
C882 C883 1.369 . S
C882 C886 1.531 . S
C883 C882 1.369 . S
C883 C884 1.410 . S
C883 C891 1.503 . S
C884 C883 1.410 . S
C884 C885 1.392 . S
C884 C887 1.511 . S
C885 C881 1.376 . S
C885 C884 1.392 . S
C885 H897 0.929 . S
C886 C882 1.531 . S
C886 H898 0.960 . S
C886 H899 0.962 . S
C886 H900 0.960 . S
C887 C884 1.511 . S
C887 H901 0.961 . S
C887 H902 0.961 . S
C887 H903 0.961 . S
C888 C889 1.370 . S
C888 C890 1.363 . S
C888 H904 0.931 . S
C889 C888 1.370 . S
C889 C893 1.408 . S
C890 C888 1.363 . S
C890 C891 1.370 . S
C890 C894 1.524 . S
C891 C883 1.503 . S
C891 C890 1.370 . S
C891 C892 1.403 . S
C892 C891 1.403 . S
C892 C893 1.404 . S
C892 C895 1.539 . S
C893 C889 1.408 . S
C893 C892 1.404 . S
C893 H905 0.930 . S
C894 C890 1.524 . S
C894 H906 0.956 . S
C894 H907 0.961 . S
C894 H908 0.961 . S
C895 C892 1.539 . S
C895 H909 0.958 . S
C895 H910 0.961 . S
C895 H911 0.960 . S
H896 C880 0.931 . S
H897 C885 0.929 . S
H898 C886 0.960 . S
H899 C886 0.962 . S
H900 C886 0.960 . S
H901 C887 0.961 . S
H902 C887 0.961 . S
H903 C887 0.961 . S
H904 C888 0.931 . S
H905 C893 0.930 . S
H906 C894 0.956 . S
H907 C894 0.961 . S
H908 C894 0.961 . S
H909 C895 0.958 . S
H910 C895 0.961 . S
H911 C895 0.960 . S
C912 C913 1.391 . S
C912 C914 1.394 . S
C912 H928 0.931 . S
C913 C912 1.391 . S
C913 C917 1.376 . S
C914 C912 1.394 . S
C914 C915 1.369 . S
C914 C918 1.531 . S
C915 C914 1.369 . S
C915 C916 1.410 . S
C915 C923 1.503 . S
C916 C915 1.410 . S
C916 C917 1.392 . S
C916 C919 1.511 . S
C917 C913 1.376 . S
C917 C916 1.392 . S
C917 H929 0.929 . S
C918 C914 1.531 . S
C918 H930 0.960 . S
C918 H931 0.962 . S
C918 H932 0.960 1_545 S
C919 C916 1.511 . S
C919 H933 0.961 . S
C919 H934 0.961 . S
C919 H935 0.961 . S
C920 C921 1.370 . S
C920 C922 1.363 . S
C920 H936 0.931 1_655 S
C921 C920 1.370 . S
C921 C925 1.408 . S
C922 C920 1.363 . S
C922 C923 1.370 . S
C922 C926 1.524 . S
C923 C915 1.503 . S
C923 C922 1.370 . S
C923 C924 1.403 . S
C924 C923 1.403 . S
C924 C925 1.404 . S
C924 C927 1.539 . S
C925 C921 1.408 . S
C925 C924 1.404 . S
C925 H937 0.930 . S
C926 C922 1.524 . S
C926 H938 0.956 . S
C926 H939 0.961 . S
C926 H940 0.961 1_655 S
C927 C924 1.539 . S
C927 H941 0.958 . S
C927 H942 0.961 . S
C927 H943 0.960 . S
H928 C912 0.931 . S
H929 C917 0.929 . S
H930 C918 0.960 . S
H931 C918 0.962 . S
H932 C918 0.960 1_565 S
H933 C919 0.961 . S
H934 C919 0.961 . S
H935 C919 0.961 . S
H936 C920 0.931 1_455 S
H937 C925 0.930 . S
H938 C926 0.956 . S
H939 C926 0.961 . S
H940 C926 0.961 1_455 S
H941 C927 0.958 . S
H942 C927 0.961 . S
H943 C927 0.960 . S
C944 C945 1.391 . S
C944 C946 1.394 . S
C944 H960 0.931 . S
C945 C944 1.391 . S
C945 C949 1.376 . S
C946 C944 1.394 . S
C946 C947 1.369 . S
C946 C950 1.531 . S
C947 C946 1.369 . S
C947 C948 1.410 . S
C947 C955 1.503 . S
C948 C947 1.410 . S
C948 C949 1.392 . S
C948 C951 1.511 . S
C949 C945 1.376 . S
C949 C948 1.392 . S
C949 H961 0.929 . S
C950 C946 1.531 . S
C950 H962 0.960 . S
C950 H963 0.962 . S
C950 H964 0.960 . S
C951 C948 1.511 . S
C951 H965 0.961 . S
C951 H966 0.961 . S
C951 H967 0.961 . S
C952 C953 1.370 . S
C952 C954 1.363 . S
C952 H968 0.931 . S
C953 C952 1.370 . S
C953 C957 1.408 . S
C954 C952 1.363 . S
C954 C955 1.370 . S
C954 C958 1.524 . S
C955 C947 1.503 . S
C955 C954 1.370 . S
C955 C956 1.403 . S
C956 C955 1.403 . S
C956 C957 1.404 . S
C956 C959 1.539 . S
C957 C953 1.408 . S
C957 C956 1.404 . S
C957 H969 0.930 . S
C958 C954 1.524 . S
C958 H970 0.956 . S
C958 H971 0.961 . S
C958 H972 0.961 . S
C959 C956 1.539 . S
C959 H973 0.958 . S
C959 H974 0.961 . S
C959 H975 0.960 . S
H960 C944 0.931 . S
H961 C949 0.929 . S
H962 C950 0.960 . S
H963 C950 0.962 . S
H964 C950 0.960 . S
H965 C951 0.961 . S
H966 C951 0.961 . S
H967 C951 0.961 . S
H968 C952 0.931 . S
H969 C957 0.930 . S
H970 C958 0.956 . S
H971 C958 0.961 . S
H972 C958 0.961 . S
H973 C959 0.958 . S
H974 C959 0.961 . S
H975 C959 0.960 . S
C976 C977 1.391 . S
C976 C978 1.394 . S
C976 H992 0.931 . S
C977 C976 1.391 . S
C977 C981 1.377 . S
C978 C976 1.394 . S
C978 C979 1.369 . S
C978 C982 1.531 . S
C979 C978 1.369 . S
C979 C980 1.410 . S
C979 C987 1.503 . S
C980 C979 1.410 . S
C980 C981 1.393 . S
C980 C983 1.511 1_545 S
C981 C977 1.377 . S
C981 C980 1.393 . S
C981 H993 0.927 1_545 S
C982 C978 1.531 . S
C982 H994 0.960 . S
C982 H995 0.962 . S
C982 H996 0.960 . S
C983 C980 1.511 1_565 S
C983 H997 0.961 . S
C983 H998 0.961 . S
C983 H999 0.961 . S
C984 C985 1.370 . S
C984 C986 1.363 . S
C984 H1000 0.931 . S
C985 C984 1.370 . S
C985 C989 1.408 . S
C986 C984 1.363 . S
C986 C987 1.370 . S
C986 C990 1.524 . S
C987 C979 1.503 . S
C987 C986 1.370 . S
C987 C988 1.403 . S
C988 C987 1.403 . S
C988 C989 1.404 . S
C988 C991 1.539 . S
C989 C985 1.408 . S
C989 C988 1.404 . S
C989 H1001 0.930 . S
C990 C986 1.524 . S
C990 H1002 0.956 . S
C990 H1003 0.961 1_545 S
C990 H1004 0.961 . S
C991 C988 1.539 . S
C991 H1005 0.958 . S
C991 H1006 0.961 . S
C991 H1007 0.960 . S
H992 C976 0.931 . S
H993 C981 0.927 1_565 S
H994 C982 0.960 . S
H995 C982 0.962 . S
H996 C982 0.960 . S
H997 C983 0.961 . S
H998 C983 0.961 . S
H999 C983 0.961 . S
H1000 C984 0.931 . S
H1001 C989 0.930 . S
H1002 C990 0.956 . S
H1003 C990 0.961 1_565 S
H1004 C990 0.961 . S
H1005 C991 0.958 . S
H1006 C991 0.961 . S
H1007 C991 0.960 . S
C1008 C1009 1.391 . S
C1008 C1010 1.394 . S
C1008 H1024 0.931 . S
C1009 C1008 1.391 . S
C1009 C1013 1.376 . S
C1010 C1008 1.394 . S
C1010 C1011 1.369 . S
C1010 C1014 1.531 . S
C1011 C1010 1.369 . S
C1011 C1012 1.410 . S
C1011 C1019 1.503 . S
C1012 C1011 1.410 . S
C1012 C1013 1.392 . S
C1012 C1015 1.511 . S
C1013 C1009 1.376 . S
C1013 C1012 1.392 . S
C1013 H1025 0.929 . S
C1014 C1010 1.531 . S
C1014 H1026 0.960 . S
C1014 H1027 0.962 . S
C1014 H1028 0.960 . S
C1015 C1012 1.511 . S
C1015 H1029 0.961 . S
C1015 H1030 0.961 . S
C1015 H1031 0.961 . S
C1016 C1017 1.370 . S
C1016 C1018 1.363 . S
C1016 H1032 0.931 . S
C1017 C1016 1.370 . S
C1017 C1021 1.408 . S
C1018 C1016 1.363 . S
C1018 C1019 1.370 . S
C1018 C1022 1.524 . S
C1019 C1011 1.503 . S
C1019 C1018 1.370 . S
C1019 C1020 1.403 . S
C1020 C1019 1.403 . S
C1020 C1021 1.404 . S
C1020 C1023 1.539 . S
C1021 C1017 1.408 . S
C1021 C1020 1.404 . S
C1021 H1033 0.930 . S
C1022 C1018 1.524 . S
C1022 H1034 0.956 . S
C1022 H1035 0.961 . S
C1022 H1036 0.961 . S
C1023 C1020 1.539 . S
C1023 H1037 0.958 . S
C1023 H1038 0.961 . S
C1023 H1039 0.960 . S
H1024 C1008 0.931 . S
H1025 C1013 0.929 . S
H1026 C1014 0.960 . S
H1027 C1014 0.962 . S
H1028 C1014 0.960 . S
H1029 C1015 0.961 . S
H1030 C1015 0.961 . S
H1031 C1015 0.961 . S
H1032 C1016 0.931 . S
H1033 C1021 0.930 . S
H1034 C1022 0.956 . S
H1035 C1022 0.961 . S
H1036 C1022 0.961 . S
H1037 C1023 0.958 . S
H1038 C1023 0.961 . S
H1039 C1023 0.960 . S
C1040 C1041 1.391 . S
C1040 C1042 1.394 . S
C1040 H1056 0.931 . S
C1041 C1040 1.391 . S
C1041 C1045 1.376 . S
C1042 C1040 1.394 . S
C1042 C1043 1.369 . S
C1042 C1046 1.531 . S
C1043 C1042 1.369 . S
C1043 C1044 1.410 . S
C1043 C1051 1.503 . S
C1044 C1043 1.410 . S
C1044 C1045 1.392 . S
C1044 C1047 1.511 . S
C1045 C1041 1.376 . S
C1045 C1044 1.392 . S
C1045 H1057 0.929 . S
C1046 C1042 1.531 . S
C1046 H1058 0.960 . S
C1046 H1059 0.962 . S
C1046 H1060 0.960 . S
C1047 C1044 1.511 . S
C1047 H1061 0.961 . S
C1047 H1062 0.961 . S
C1047 H1063 0.961 1_655 S
C1048 C1049 1.370 . S
C1048 C1050 1.363 . S
C1048 H1064 0.931 . S
C1049 C1048 1.370 . S
C1049 C1053 1.428 . S
C1050 C1048 1.363 . S
C1050 C1051 1.370 . S
C1050 C1054 1.524 . S
C1051 C1043 1.503 . S
C1051 C1050 1.370 . S
C1051 C1052 1.403 . S
C1052 C1051 1.403 . S
C1052 C1053 1.423 . S
C1052 C1055 1.539 . S
C1053 C1049 1.428 . S
C1053 C1052 1.423 . S
C1053 H1065 0.894 1_655 S
C1054 C1050 1.524 . S
C1054 H1066 0.956 . S
C1054 H1067 0.961 . S
C1054 H1068 0.961 . S
C1055 C1052 1.539 . S
C1055 H1069 0.958 . S
C1055 H1070 0.961 1_655 S
C1055 H1071 0.960 . S
H1056 C1040 0.931 . S
H1057 C1045 0.929 . S
H1058 C1046 0.960 . S
H1059 C1046 0.962 . S
H1060 C1046 0.960 . S
H1061 C1047 0.961 . S
H1062 C1047 0.961 . S
H1063 C1047 0.961 1_455 S
H1064 C1048 0.931 . S
H1065 C1053 0.894 1_455 S
H1066 C1054 0.956 . S
H1067 C1054 0.961 . S
H1068 C1054 0.961 . S
H1069 C1055 0.958 . S
H1070 C1055 0.961 1_455 S
H1071 C1055 0.960 . S
C1072 C1073 1.391 . S
C1072 C1074 1.394 . S
C1072 H1088 0.931 . S
C1073 C1072 1.391 . S
C1073 C1077 1.376 . S
C1074 C1072 1.394 . S
C1074 C1075 1.369 . S
C1074 C1078 1.531 . S
C1075 C1074 1.369 . S
C1075 C1076 1.410 . S
C1075 C1083 1.503 . S
C1076 C1075 1.410 . S
C1076 C1077 1.392 . S
C1076 C1079 1.511 . S
C1077 C1073 1.376 . S
C1077 C1076 1.392 . S
C1077 H1089 0.929 . S
C1078 C1074 1.531 . S
C1078 H1090 0.960 . S
C1078 H1091 0.962 . S
C1078 H1092 0.960 . S
C1079 C1076 1.511 . S
C1079 H1093 0.961 . S
C1079 H1094 0.961 . S
C1079 H1095 0.961 . S
C1080 C1081 1.370 . S
C1080 C1082 1.363 . S
C1080 H1096 0.931 . S
C1081 C1080 1.370 . S
C1081 C1085 1.408 . S
C1082 C1080 1.363 . S
C1082 C1083 1.370 . S
C1082 C1086 1.524 . S
C1083 C1075 1.503 . S
C1083 C1082 1.370 . S
C1083 C1084 1.403 . S
C1084 C1083 1.403 . S
C1084 C1085 1.404 . S
C1084 C1087 1.539 . S
C1085 C1081 1.408 . S
C1085 C1084 1.404 . S
C1085 H1097 0.930 . S
C1086 C1082 1.524 . S
C1086 H1098 0.956 . S
C1086 H1099 0.961 . S
C1086 H1100 0.961 . S
C1087 C1084 1.539 . S
C1087 H1101 0.958 . S
C1087 H1102 0.961 . S
C1087 H1103 0.960 . S
H1088 C1072 0.931 . S
H1089 C1077 0.929 . S
H1090 C1078 0.960 . S
H1091 C1078 0.962 . S
H1092 C1078 0.960 . S
H1093 C1079 0.961 . S
H1094 C1079 0.961 . S
H1095 C1079 0.961 . S
H1096 C1080 0.931 . S
H1097 C1085 0.930 . S
H1098 C1086 0.956 . S
H1099 C1086 0.961 . S
H1100 C1086 0.961 . S
H1101 C1087 0.958 . S
H1102 C1087 0.961 . S
H1103 C1087 0.960 . S
C1104 C1105 1.391 . S
C1104 C1106 1.394 . S
C1104 H1120 0.931 . S
C1105 C1104 1.391 . S
C1105 C1109 1.376 . S
C1106 C1104 1.394 . S
C1106 C1107 1.369 . S
C1106 C1110 1.531 . S
C1107 C1106 1.369 . S
C1107 C1108 1.410 . S
C1107 C1115 1.503 . S
C1108 C1107 1.410 . S
C1108 C1109 1.392 . S
C1108 C1111 1.511 . S
C1109 C1105 1.376 . S
C1109 C1108 1.392 . S
C1109 H1121 0.929 . S
C1110 C1106 1.531 . S
C1110 H1122 0.960 . S
C1110 H1123 0.962 . S
C1110 H1124 0.960 . S
C1111 C1108 1.511 . S
C1111 H1125 0.961 . S
C1111 H1126 0.961 . S
C1111 H1127 0.961 . S
C1112 C1113 1.370 . S
C1112 C1114 1.363 . S
C1112 H1128 0.931 . S
C1113 C1112 1.370 . S
C1113 C1117 1.408 . S
C1114 C1112 1.363 . S
C1114 C1115 1.370 . S
C1114 C1118 1.524 . S
C1115 C1107 1.503 . S
C1115 C1114 1.370 . S
C1115 C1116 1.403 . S
C1116 C1115 1.403 . S
C1116 C1117 1.404 . S
C1116 C1119 1.539 1_545 S
C1117 C1113 1.408 . S
C1117 C1116 1.404 . S
C1117 H1129 0.930 . S
C1118 C1114 1.524 . S
C1118 H1130 0.956 . S
C1118 H1131 0.961 . S
C1118 H1132 0.961 . S
C1119 C1116 1.539 1_565 S
C1119 H1133 0.958 . S
C1119 H1134 0.961 . S
C1119 H1135 0.960 . S
H1120 C1104 0.931 . S
H1121 C1109 0.929 . S
H1122 C1110 0.960 . S
H1123 C1110 0.962 . S
H1124 C1110 0.960 . S
H1125 C1111 0.961 . S
H1126 C1111 0.961 . S
H1127 C1111 0.961 . S
H1128 C1112 0.931 . S
H1129 C1117 0.930 . S
H1130 C1118 0.956 . S
H1131 C1118 0.961 . S
H1132 C1118 0.961 . S
H1133 C1119 0.958 . S
H1134 C1119 0.961 . S
H1135 C1119 0.960 . S
C1136 C1137 1.391 . S
C1136 C1138 1.394 . S
C1136 H1152 0.931 . S
C1137 C1136 1.391 . S
C1137 C1141 1.376 . S
C1138 C1136 1.394 . S
C1138 C1139 1.369 . S
C1138 C1142 1.531 . S
C1139 C1138 1.369 . S
C1139 C1140 1.410 . S
C1139 C1147 1.503 . S
C1140 C1139 1.410 . S
C1140 C1141 1.392 . S
C1140 C1143 1.511 . S
C1141 C1137 1.376 . S
C1141 C1140 1.392 . S
C1141 H1153 0.929 . S
C1142 C1138 1.531 . S
C1142 H1154 0.960 . S
C1142 H1155 0.962 . S
C1142 H1156 0.960 . S
C1143 C1140 1.511 . S
C1143 H1157 0.961 . S
C1143 H1158 0.961 . S
C1143 H1159 0.961 . S
C1144 C1145 1.370 . S
C1144 C1146 1.363 . S
C1144 H1160 0.931 . S
C1145 C1144 1.370 . S
C1145 C1149 1.408 . S
C1146 C1144 1.363 . S
C1146 C1147 1.370 . S
C1146 C1150 1.524 . S
C1147 C1139 1.503 . S
C1147 C1146 1.370 . S
C1147 C1148 1.403 . S
C1148 C1147 1.403 . S
C1148 C1149 1.404 . S
C1148 C1151 1.539 . S
C1149 C1145 1.408 . S
C1149 C1148 1.404 . S
C1149 H1161 0.930 . S
C1150 C1146 1.524 . S
C1150 H1162 0.956 . S
C1150 H1163 0.961 . S
C1150 H1164 0.961 . S
C1151 C1148 1.539 . S
C1151 H1165 0.958 . S
C1151 H1166 0.961 . S
C1151 H1167 0.960 . S
H1152 C1136 0.931 . S
H1153 C1141 0.929 . S
H1154 C1142 0.960 . S
H1155 C1142 0.962 . S
H1156 C1142 0.960 . S
H1157 C1143 0.961 . S
H1158 C1143 0.961 . S
H1159 C1143 0.961 . S
H1160 C1144 0.931 . S
H1161 C1149 0.930 . S
H1162 C1150 0.956 . S
H1163 C1150 0.961 . S
H1164 C1150 0.961 . S
H1165 C1151 0.958 . S
H1166 C1151 0.961 . S
H1167 C1151 0.960 . S
C1168 C1169 1.391 . S
C1168 C1170 1.394 . S
C1168 H1184 0.931 . S
C1169 C1168 1.391 . S
C1169 C1173 1.376 . S
C1170 C1168 1.394 . S
C1170 C1171 1.369 . S
C1170 C1174 1.531 1_565 S
C1171 C1170 1.369 . S
C1171 C1172 1.410 . S
C1171 C1179 1.503 . S
C1172 C1171 1.410 . S
C1172 C1173 1.392 . S
C1172 C1175 1.527 . S
C1173 C1169 1.376 . S
C1173 C1172 1.392 . S
C1173 H1185 0.929 . S
C1174 C1170 1.531 1_545 S
C1174 H1186 0.960 . S
C1174 H1187 0.962 . S
C1174 H1188 0.960 . S
C1175 C1172 1.527 . S
C1175 H1189 0.961 . S
C1175 H1190 0.983 . S
C1175 H1191 0.919 1_554 S
C1176 C1177 1.370 1_565 S
C1176 C1178 1.363 . S
C1176 H1192 0.931 . S
C1177 C1176 1.370 1_545 S
C1177 C1181 1.408 . S
C1178 C1176 1.363 . S
C1178 C1179 1.370 . S
C1178 C1182 1.524 . S
C1179 C1171 1.503 . S
C1179 C1178 1.370 . S
C1179 C1180 1.372 1_565 S
C1180 C1179 1.372 1_545 S
C1180 C1181 1.434 . S
C1180 C1183 1.540 1_554 S
C1181 C1177 1.408 . S
C1181 C1180 1.434 . S
C1181 H1193 0.930 . S
C1182 C1178 1.524 . S
C1182 H1194 0.956 . S
C1182 H1195 0.961 . S
C1182 H1196 0.961 . S
C1183 C1180 1.540 1_556 S
C1183 H1197 0.958 . S
C1183 H1198 0.961 . S
C1183 H1199 0.960 1_545 S
H1184 C1168 0.931 . S
H1185 C1173 0.929 . S
H1186 C1174 0.960 . S
H1187 C1174 0.962 . S
H1188 C1174 0.960 . S
H1189 C1175 0.961 . S
H1190 C1175 0.983 . S
H1191 C1175 0.919 1_556 S
H1192 C1176 0.931 . S
H1193 C1181 0.930 . S
H1194 C1182 0.956 . S
H1195 C1182 0.961 . S
H1196 C1182 0.961 . S
H1197 C1183 0.958 . S
H1198 C1183 0.961 . S
H1199 C1183 0.960 1_565 S
C1200 C1201 1.391 1_556 S
C1200 C1202 1.391 1_556 S
C1200 H1216 0.931 . S
C1201 C1200 1.391 1_554 S
C1201 C1205 1.376 . S
C1202 C1200 1.391 1_554 S
C1202 C1203 1.378 . S
C1202 C1206 1.525 1_554 S
C1203 C1202 1.378 . S
C1203 C1204 1.410 . S
C1203 C1211 1.503 . S
C1204 C1203 1.410 . S
C1204 C1205 1.392 . S
C1204 C1207 1.511 . S
C1205 C1201 1.376 . S
C1205 C1204 1.392 . S
C1205 H1217 0.929 . S
C1206 C1202 1.525 1_556 S
C1206 H1218 0.960 . S
C1206 H1219 0.962 . S
C1206 H1220 0.960 . S
C1207 C1204 1.511 . S
C1207 H1221 0.961 . S
C1207 H1222 0.961 . S
C1207 H1223 0.961 . S
C1208 C1209 1.370 1_556 S
C1208 C1210 1.363 . S
C1208 H1224 0.931 . S
C1209 C1208 1.370 1_554 S
C1209 C1213 1.408 . S
C1210 C1208 1.363 . S
C1210 C1211 1.370 1_556 S
C1210 C1214 1.524 . S
C1211 C1203 1.503 . S
C1211 C1210 1.370 1_554 S
C1211 C1212 1.403 . S
C1212 C1211 1.403 . S
C1212 C1213 1.404 . S
C1212 C1215 1.539 . S
C1213 C1209 1.408 . S
C1213 C1212 1.404 . S
C1213 H1225 0.930 . S
C1214 C1210 1.524 . S
C1214 H1226 0.956 . S
C1214 H1227 0.961 . S
C1214 H1228 0.961 . S
C1215 C1212 1.539 . S
C1215 H1229 0.958 . S
C1215 H1230 0.961 . S
C1215 H1231 0.960 . S
H1216 C1200 0.931 . S
H1217 C1205 0.929 . S
H1218 C1206 0.960 . S
H1219 C1206 0.962 . S
H1220 C1206 0.960 . S
H1221 C1207 0.961 . S
H1222 C1207 0.961 . S
H1223 C1207 0.961 . S
H1224 C1208 0.931 . S
H1225 C1213 0.930 . S
H1226 C1214 0.956 . S
H1227 C1214 0.961 . S
H1228 C1214 0.961 . S
H1229 C1215 0.958 . S
H1230 C1215 0.961 . S
H1231 C1215 0.960 . S
C1232 C1233 1.391 . S
C1232 C1234 1.394 . S
C1232 H1248 0.931 . S
C1233 C1232 1.391 . S
C1233 C1237 1.376 . S
C1234 C1232 1.394 . S
C1234 C1235 1.369 . S
C1234 C1238 1.531 . S
C1235 C1234 1.369 . S
C1235 C1236 1.410 . S
C1235 C1243 1.503 . S
C1236 C1235 1.410 . S
C1236 C1237 1.392 . S
C1236 C1239 1.511 . S
C1237 C1233 1.376 . S
C1237 C1236 1.392 . S
C1237 H1249 0.929 . S
C1238 C1234 1.531 . S
C1238 H1250 0.960 . S
C1238 H1251 0.962 . S
C1238 H1252 0.960 . S
C1239 C1236 1.511 . S
C1239 H1253 0.961 . S
C1239 H1254 0.961 . S
C1239 H1255 0.961 . S
C1240 C1241 1.370 . S
C1240 C1242 1.363 . S
C1240 H1256 0.931 . S
C1241 C1240 1.370 . S
C1241 C1245 1.408 . S
C1242 C1240 1.363 . S
C1242 C1243 1.370 . S
C1242 C1246 1.524 . S
C1243 C1235 1.503 . S
C1243 C1242 1.370 . S
C1243 C1244 1.403 . S
C1244 C1243 1.403 . S
C1244 C1245 1.404 . S
C1244 C1247 1.539 . S
C1245 C1241 1.408 . S
C1245 C1244 1.404 . S
C1245 H1257 0.930 . S
C1246 C1242 1.524 . S
C1246 H1258 0.956 . S
C1246 H1259 0.961 . S
C1246 H1260 0.961 . S
C1247 C1244 1.539 . S
C1247 H1261 0.958 . S
C1247 H1262 0.961 . S
C1247 H1263 0.960 . S
H1248 C1232 0.931 . S
H1249 C1237 0.929 . S
H1250 C1238 0.960 . S
H1251 C1238 0.962 . S
H1252 C1238 0.960 . S
H1253 C1239 0.961 . S
H1254 C1239 0.961 . S
H1255 C1239 0.961 . S
H1256 C1240 0.931 . S
H1257 C1245 0.930 . S
H1258 C1246 0.956 . S
H1259 C1246 0.961 . S
H1260 C1246 0.961 . S
H1261 C1247 0.958 . S
H1262 C1247 0.961 . S
H1263 C1247 0.960 . S
C1264 C1265 1.391 . S
C1264 C1266 1.394 . S
C1264 H1280 0.931 . S
C1265 C1264 1.391 . S
C1265 C1269 1.376 . S
C1266 C1264 1.394 . S
C1266 C1267 1.369 . S
C1266 C1270 1.531 . S
C1267 C1266 1.369 . S
C1267 C1268 1.410 . S
C1267 C1275 1.503 . S
C1268 C1267 1.410 . S
C1268 C1269 1.392 . S
C1268 C1271 1.511 . S
C1269 C1265 1.376 . S
C1269 C1268 1.392 . S
C1269 H1281 0.929 . S
C1270 C1266 1.531 . S
C1270 H1282 0.960 . S
C1270 H1283 0.962 . S
C1270 H1284 0.960 . S
C1271 C1268 1.511 . S
C1271 H1285 0.961 . S
C1271 H1286 0.961 . S
C1271 H1287 0.961 . S
C1272 C1273 1.370 . S
C1272 C1274 1.363 . S
C1272 H1288 0.931 . S
C1273 C1272 1.370 . S
C1273 C1277 1.408 . S
C1274 C1272 1.363 . S
C1274 C1275 1.370 . S
C1274 C1278 1.524 . S
C1275 C1267 1.503 . S
C1275 C1274 1.370 . S
C1275 C1276 1.403 . S
C1276 C1275 1.403 . S
C1276 C1277 1.404 . S
C1276 C1279 1.539 . S
C1277 C1273 1.408 . S
C1277 C1276 1.404 . S
C1277 H1289 0.930 . S
C1278 C1274 1.524 . S
C1278 H1290 0.956 . S
C1278 H1291 0.961 . S
C1278 H1292 0.961 . S
C1279 C1276 1.539 . S
C1279 H1293 0.958 . S
C1279 H1294 0.961 . S
C1279 H1295 0.960 . S
H1280 C1264 0.931 . S
H1281 C1269 0.929 . S
H1282 C1270 0.960 . S
H1283 C1270 0.962 . S
H1284 C1270 0.960 . S
H1285 C1271 0.961 . S
H1286 C1271 0.961 . S
H1287 C1271 0.961 . S
H1288 C1272 0.931 . S
H1289 C1277 0.930 . S
H1290 C1278 0.956 . S
H1291 C1278 0.961 . S
H1292 C1278 0.961 . S
H1293 C1279 0.958 . S
H1294 C1279 0.961 . S
H1295 C1279 0.960 . S
C1296 C1297 1.391 . S
C1296 C1298 1.394 . S
C1296 H1312 0.931 . S
C1297 C1296 1.391 . S
C1297 C1301 1.376 . S
C1298 C1296 1.394 . S
C1298 C1299 1.369 . S
C1298 C1302 1.531 . S
C1299 C1298 1.369 . S
C1299 C1300 1.410 . S
C1299 C1307 1.503 . S
C1300 C1299 1.410 . S
C1300 C1301 1.392 . S
C1300 C1303 1.511 . S
C1301 C1297 1.376 . S
C1301 C1300 1.392 . S
C1301 H1313 0.929 . S
C1302 C1298 1.531 . S
C1302 H1314 0.960 . S
C1302 H1315 0.962 . S
C1302 H1316 0.960 . S
C1303 C1300 1.511 . S
C1303 H1317 0.961 . S
C1303 H1318 0.961 . S
C1303 H1319 0.961 . S
C1304 C1305 1.370 . S
C1304 C1306 1.363 . S
C1304 H1320 0.931 . S
C1305 C1304 1.370 . S
C1305 C1309 1.408 . S
C1306 C1304 1.363 . S
C1306 C1307 1.370 . S
C1306 C1310 1.524 . S
C1307 C1299 1.503 . S
C1307 C1306 1.370 . S
C1307 C1308 1.403 . S
C1308 C1307 1.403 . S
C1308 C1309 1.404 . S
C1308 C1311 1.539 . S
C1309 C1305 1.408 . S
C1309 C1308 1.404 . S
C1309 H1321 0.930 . S
C1310 C1306 1.524 . S
C1310 H1322 0.956 . S
C1310 H1323 0.961 . S
C1310 H1324 0.961 . S
C1311 C1308 1.539 . S
C1311 H1325 0.958 . S
C1311 H1326 0.961 . S
C1311 H1327 0.960 . S
H1312 C1296 0.931 . S
H1313 C1301 0.929 . S
H1314 C1302 0.960 . S
H1315 C1302 0.962 . S
H1316 C1302 0.960 . S
H1317 C1303 0.961 . S
H1318 C1303 0.961 . S
H1319 C1303 0.961 . S
H1320 C1304 0.931 . S
H1321 C1309 0.930 . S
H1322 C1310 0.956 . S
H1323 C1310 0.961 . S
H1324 C1310 0.961 . S
H1325 C1311 0.958 . S
H1326 C1311 0.961 . S
H1327 C1311 0.960 . S
C1328 C1329 1.391 . S
C1328 C1330 1.394 . S
C1328 H1344 0.931 . S
C1329 C1328 1.391 . S
C1329 C1333 1.376 . S
C1330 C1328 1.394 . S
C1330 C1331 1.369 . S
C1330 C1334 1.531 . S
C1331 C1330 1.369 . S
C1331 C1332 1.410 . S
C1331 C1339 1.503 . S
C1332 C1331 1.410 . S
C1332 C1333 1.392 . S
C1332 C1335 1.511 . S
C1333 C1329 1.376 . S
C1333 C1332 1.392 . S
C1333 H1345 0.929 . S
C1334 C1330 1.531 . S
C1334 H1346 0.960 . S
C1334 H1347 0.962 . S
C1334 H1348 0.960 . S
C1335 C1332 1.511 . S
C1335 H1349 0.961 . S
C1335 H1350 0.961 . S
C1335 H1351 0.961 . S
C1336 C1337 1.370 . S
C1336 C1338 1.363 . S
C1336 H1352 0.931 . S
C1337 C1336 1.370 . S
C1337 C1341 1.408 . S
C1338 C1336 1.363 . S
C1338 C1339 1.370 . S
C1338 C1342 1.524 . S
C1339 C1331 1.503 . S
C1339 C1338 1.370 . S
C1339 C1340 1.403 . S
C1340 C1339 1.403 . S
C1340 C1341 1.404 . S
C1340 C1343 1.539 . S
C1341 C1337 1.408 . S
C1341 C1340 1.404 . S
C1341 H1353 0.930 . S
C1342 C1338 1.524 . S
C1342 H1354 0.956 . S
C1342 H1355 0.961 . S
C1342 H1356 0.961 . S
C1343 C1340 1.539 . S
C1343 H1357 0.958 . S
C1343 H1358 0.961 . S
C1343 H1359 0.960 . S
H1344 C1328 0.931 . S
H1345 C1333 0.929 . S
H1346 C1334 0.960 . S
H1347 C1334 0.962 . S
H1348 C1334 0.960 . S
H1349 C1335 0.961 . S
H1350 C1335 0.961 . S
H1351 C1335 0.961 . S
H1352 C1336 0.931 . S
H1353 C1341 0.930 . S
H1354 C1342 0.956 . S
H1355 C1342 0.961 . S
H1356 C1342 0.961 . S
H1357 C1343 0.958 . S
H1358 C1343 0.961 . S
H1359 C1343 0.960 . S
C1360 C1361 1.391 . S
C1360 C1362 1.394 . S
C1360 H1376 0.931 . S
C1361 C1360 1.391 . S
C1361 C1365 1.376 . S
C1362 C1360 1.394 . S
C1362 C1363 1.369 . S
C1362 C1366 1.531 . S
C1363 C1362 1.369 . S
C1363 C1364 1.410 . S
C1363 C1371 1.503 . S
C1364 C1363 1.410 . S
C1364 C1365 1.392 . S
C1364 C1367 1.511 . S
C1365 C1361 1.376 . S
C1365 C1364 1.392 . S
C1365 H1377 0.929 . S
C1366 C1362 1.531 . S
C1366 H1378 0.960 . S
C1366 H1379 0.962 . S
C1366 H1380 0.960 . S
C1367 C1364 1.511 . S
C1367 H1381 0.961 . S
C1367 H1382 0.961 . S
C1367 H1383 0.961 . S
C1368 C1369 1.370 . S
C1368 C1370 1.363 . S
C1368 H1384 0.931 . S
C1369 C1368 1.370 . S
C1369 C1373 1.408 . S
C1370 C1368 1.363 . S
C1370 C1371 1.370 . S
C1370 C1374 1.524 . S
C1371 C1363 1.503 . S
C1371 C1370 1.370 . S
C1371 C1372 1.403 . S
C1372 C1371 1.403 . S
C1372 C1373 1.404 . S
C1372 C1375 1.539 . S
C1373 C1369 1.408 . S
C1373 C1372 1.404 . S
C1373 H1385 0.930 . S
C1374 C1370 1.524 . S
C1374 H1386 0.956 . S
C1374 H1387 0.961 . S
C1374 H1388 0.961 . S
C1375 C1372 1.539 . S
C1375 H1389 0.958 . S
C1375 H1390 0.961 . S
C1375 H1391 0.960 . S
H1376 C1360 0.931 . S
H1377 C1365 0.929 . S
H1378 C1366 0.960 . S
H1379 C1366 0.962 . S
H1380 C1366 0.960 . S
H1381 C1367 0.961 . S
H1382 C1367 0.961 . S
H1383 C1367 0.961 . S
H1384 C1368 0.931 . S
H1385 C1373 0.930 . S
H1386 C1374 0.956 . S
H1387 C1374 0.961 . S
H1388 C1374 0.961 . S
H1389 C1375 0.958 . S
H1390 C1375 0.961 . S
H1391 C1375 0.960 . S
C1392 C1393 1.391 . S
C1392 C1394 1.394 . S
C1392 H1408 0.931 . S
C1393 C1392 1.391 . S
C1393 C1397 1.376 . S
C1394 C1392 1.394 . S
C1394 C1395 1.369 . S
C1394 C1398 1.531 . S
C1395 C1394 1.369 . S
C1395 C1396 1.410 . S
C1395 C1403 1.503 . S
C1396 C1395 1.410 . S
C1396 C1397 1.392 . S
C1396 C1399 1.511 . S
C1397 C1393 1.376 . S
C1397 C1396 1.392 . S
C1397 H1409 0.929 . S
C1398 C1394 1.531 . S
C1398 H1410 0.960 . S
C1398 H1411 0.962 . S
C1398 H1412 0.960 . S
C1399 C1396 1.511 . S
C1399 H1413 0.961 . S
C1399 H1414 0.961 . S
C1399 H1415 0.961 . S
C1400 C1401 1.370 . S
C1400 C1402 1.363 . S
C1400 H1416 0.931 . S
C1401 C1400 1.370 . S
C1401 C1405 1.408 . S
C1402 C1400 1.363 . S
C1402 C1403 1.370 . S
C1402 C1406 1.524 . S
C1403 C1395 1.503 . S
C1403 C1402 1.370 . S
C1403 C1404 1.403 . S
C1404 C1403 1.403 . S
C1404 C1405 1.404 . S
C1404 C1407 1.539 . S
C1405 C1401 1.408 . S
C1405 C1404 1.404 . S
C1405 H1417 0.930 . S
C1406 C1402 1.524 . S
C1406 H1418 0.956 . S
C1406 H1419 0.961 . S
C1406 H1420 0.961 . S
C1407 C1404 1.539 . S
C1407 H1421 0.958 . S
C1407 H1422 0.961 . S
C1407 H1423 0.960 . S
H1408 C1392 0.931 . S
H1409 C1397 0.929 . S
H1410 C1398 0.960 . S
H1411 C1398 0.962 . S
H1412 C1398 0.960 . S
H1413 C1399 0.961 . S
H1414 C1399 0.961 . S
H1415 C1399 0.961 . S
H1416 C1400 0.931 . S
H1417 C1405 0.930 . S
H1418 C1406 0.956 . S
H1419 C1406 0.961 . S
H1420 C1406 0.961 . S
H1421 C1407 0.958 . S
H1422 C1407 0.961 . S
H1423 C1407 0.960 . S
C1424 C1425 1.391 . S
C1424 C1426 1.394 . S
C1424 H1440 0.931 . S
C1425 C1424 1.391 . S
C1425 C1429 1.376 . S
C1426 C1424 1.394 . S
C1426 C1427 1.369 . S
C1426 C1430 1.531 . S
C1427 C1426 1.369 . S
C1427 C1428 1.410 1_455 S
C1427 C1435 1.503 . S
C1428 C1427 1.410 1_655 S
C1428 C1429 1.392 1_655 S
C1428 C1431 1.511 . S
C1429 C1425 1.376 . S
C1429 C1428 1.392 1_455 S
C1429 H1441 0.929 1_455 S
C1430 C1426 1.531 . S
C1430 H1442 0.960 . S
C1430 H1443 0.962 . S
C1430 H1444 0.960 . S
C1431 C1428 1.511 . S
C1431 H1445 0.961 . S
C1431 H1446 0.961 . S
C1431 H1447 0.961 . S
C1432 C1433 1.370 . S
C1432 C1434 1.363 . S
C1432 H1448 0.931 . S
C1433 C1432 1.370 . S
C1433 C1437 1.408 1_455 S
C1434 C1432 1.363 . S
C1434 C1435 1.370 . S
C1434 C1438 1.524 . S
C1435 C1427 1.503 . S
C1435 C1434 1.370 . S
C1435 C1436 1.403 1_455 S
C1436 C1435 1.403 1_655 S
C1436 C1437 1.404 . S
C1436 C1439 1.539 . S
C1437 C1433 1.408 1_655 S
C1437 C1436 1.404 . S
C1437 H1449 0.930 . S
C1438 C1434 1.524 . S
C1438 H1450 0.956 . S
C1438 H1451 0.961 . S
C1438 H1452 0.961 . S
C1439 C1436 1.539 . S
C1439 H1453 0.958 . S
C1439 H1454 0.961 . S
C1439 H1455 0.960 . S
H1440 C1424 0.931 . S
H1441 C1429 0.929 1_655 S
H1442 C1430 0.960 . S
H1443 C1430 0.962 . S
H1444 C1430 0.960 . S
H1445 C1431 0.961 . S
H1446 C1431 0.961 . S
H1447 C1431 0.961 . S
H1448 C1432 0.931 . S
H1449 C1437 0.930 . S
H1450 C1438 0.956 . S
H1451 C1438 0.961 . S
H1452 C1438 0.961 . S
H1453 C1439 0.958 . S
H1454 C1439 0.961 . S
H1455 C1439 0.960 . S
C1456 C1457 1.391 . S
C1456 C1458 1.394 . S
C1456 H1472 0.931 . S
C1457 C1456 1.391 . S
C1457 C1461 1.376 . S
C1458 C1456 1.394 . S
C1458 C1459 1.369 . S
C1458 C1462 1.531 . S
C1459 C1458 1.369 . S
C1459 C1460 1.410 . S
C1459 C1467 1.503 . S
C1460 C1459 1.410 . S
C1460 C1461 1.392 . S
C1460 C1463 1.511 . S
C1461 C1457 1.376 . S
C1461 C1460 1.392 . S
C1461 H1473 0.929 . S
C1462 C1458 1.531 . S
C1462 H1474 0.960 . S
C1462 H1475 0.962 . S
C1462 H1476 0.960 . S
C1463 C1460 1.511 . S
C1463 H1477 0.961 . S
C1463 H1478 0.961 . S
C1463 H1479 0.961 . S
C1464 C1465 1.370 . S
C1464 C1466 1.363 . S
C1464 H1480 0.931 . S
C1465 C1464 1.370 . S
C1465 C1469 1.408 . S
C1466 C1464 1.363 . S
C1466 C1467 1.370 . S
C1466 C1470 1.524 . S
C1467 C1459 1.503 . S
C1467 C1466 1.370 . S
C1467 C1468 1.403 . S
C1468 C1467 1.403 . S
C1468 C1469 1.404 . S
C1468 C1471 1.539 . S
C1469 C1465 1.408 . S
C1469 C1468 1.404 . S
C1469 H1481 0.930 . S
C1470 C1466 1.524 . S
C1470 H1482 0.956 . S
C1470 H1483 0.961 . S
C1470 H1484 0.961 . S
C1471 C1468 1.539 . S
C1471 H1485 0.958 . S
C1471 H1486 0.961 . S
C1471 H1487 0.960 . S
H1472 C1456 0.931 . S
H1473 C1461 0.929 . S
H1474 C1462 0.960 . S
H1475 C1462 0.962 . S
H1476 C1462 0.960 . S
H1477 C1463 0.961 . S
H1478 C1463 0.961 . S
H1479 C1463 0.961 . S
H1480 C1464 0.931 . S
H1481 C1469 0.930 . S
H1482 C1470 0.956 . S
H1483 C1470 0.961 . S
H1484 C1470 0.961 . S
H1485 C1471 0.958 . S
H1486 C1471 0.961 . S
H1487 C1471 0.960 . S
C1488 C1489 1.391 . S
C1488 C1490 1.394 . S
C1488 H1504 0.931 . S
C1489 C1488 1.391 . S
C1489 C1493 1.376 . S
C1490 C1488 1.394 . S
C1490 C1491 1.369 . S
C1490 C1494 1.531 . S
C1491 C1490 1.369 . S
C1491 C1492 1.410 . S
C1491 C1499 1.503 . S
C1492 C1491 1.410 . S
C1492 C1493 1.392 . S
C1492 C1495 1.511 . S
C1493 C1489 1.376 . S
C1493 C1492 1.392 . S
C1493 H1505 0.929 . S
C1494 C1490 1.531 . S
C1494 H1506 0.960 . S
C1494 H1507 0.962 . S
C1494 H1508 0.960 . S
C1495 C1492 1.511 . S
C1495 H1509 0.961 . S
C1495 H1510 0.961 . S
C1495 H1511 0.961 . S
C1496 C1497 1.370 . S
C1496 C1498 1.363 . S
C1496 H1512 0.931 . S
C1497 C1496 1.370 . S
C1497 C1501 1.408 . S
C1498 C1496 1.363 . S
C1498 C1499 1.370 . S
C1498 C1502 1.524 . S
C1499 C1491 1.503 . S
C1499 C1498 1.370 . S
C1499 C1500 1.403 . S
C1500 C1499 1.403 . S
C1500 C1501 1.404 . S
C1500 C1503 1.539 . S
C1501 C1497 1.408 . S
C1501 C1500 1.404 . S
C1501 H1513 0.930 . S
C1502 C1498 1.524 . S
C1502 H1514 0.956 . S
C1502 H1515 0.961 . S
C1502 H1516 0.961 . S
C1503 C1500 1.539 . S
C1503 H1517 0.958 . S
C1503 H1518 0.961 . S
C1503 H1519 0.960 . S
H1504 C1488 0.931 . S
H1505 C1493 0.929 . S
H1506 C1494 0.960 . S
H1507 C1494 0.962 . S
H1508 C1494 0.960 . S
H1509 C1495 0.961 . S
H1510 C1495 0.961 . S
H1511 C1495 0.961 . S
H1512 C1496 0.931 . S
H1513 C1501 0.930 . S
H1514 C1502 0.956 . S
H1515 C1502 0.961 . S
H1516 C1502 0.961 . S
H1517 C1503 0.958 . S
H1518 C1503 0.961 . S
H1519 C1503 0.960 . S
C1520 C1521 1.391 . S
C1520 C1522 1.394 . S
C1520 H1536 0.931 . S
C1521 C1520 1.391 . S
C1521 C1525 1.376 . S
C1522 C1520 1.394 . S
C1522 C1523 1.369 . S
C1522 C1526 1.531 . S
C1523 C1522 1.369 . S
C1523 C1524 1.410 . S
C1523 C1531 1.503 . S
C1524 C1523 1.410 . S
C1524 C1525 1.392 . S
C1524 C1527 1.511 . S
C1525 C1521 1.376 . S
C1525 C1524 1.392 . S
C1525 H1537 0.929 . S
C1526 C1522 1.531 . S
C1526 H1538 0.960 . S
C1526 H1539 0.962 . S
C1526 H1540 0.960 . S
C1527 C1524 1.511 . S
C1527 H1541 0.961 . S
C1527 H1542 0.961 . S
C1527 H1543 0.961 . S
C1528 C1529 1.370 . S
C1528 C1530 1.363 . S
C1528 H1544 0.931 . S
C1529 C1528 1.370 . S
C1529 C1533 1.408 . S
C1530 C1528 1.363 . S
C1530 C1531 1.370 . S
C1530 C1534 1.524 . S
C1531 C1523 1.503 . S
C1531 C1530 1.370 . S
C1531 C1532 1.403 . S
C1532 C1531 1.403 . S
C1532 C1533 1.404 . S
C1532 C1535 1.539 . S
C1533 C1529 1.408 . S
C1533 C1532 1.404 . S
C1533 H1545 0.930 . S
C1534 C1530 1.524 . S
C1534 H1546 0.956 . S
C1534 H1547 0.961 . S
C1534 H1548 0.961 . S
C1535 C1532 1.539 . S
C1535 H1549 0.958 . S
C1535 H1550 0.961 . S
C1535 H1551 0.960 . S
H1536 C1520 0.931 . S
H1537 C1525 0.929 . S
H1538 C1526 0.960 . S
H1539 C1526 0.962 . S
H1540 C1526 0.960 . S
H1541 C1527 0.961 . S
H1542 C1527 0.961 . S
H1543 C1527 0.961 . S
H1544 C1528 0.931 . S
H1545 C1533 0.930 . S
H1546 C1534 0.956 . S
H1547 C1534 0.961 . S
H1548 C1534 0.961 . S
H1549 C1535 0.958 . S
H1550 C1535 0.961 . S
H1551 C1535 0.960 . S
C1552 C1553 1.391 . S
C1552 C1554 1.394 . S
C1552 H1568 0.931 . S
C1553 C1552 1.391 . S
C1553 C1557 1.376 1_455 S
C1554 C1552 1.394 . S
C1554 C1555 1.369 . S
C1554 C1558 1.531 . S
C1555 C1554 1.369 . S
C1555 C1556 1.410 1_455 S
C1555 C1563 1.503 . S
C1556 C1555 1.410 1_655 S
C1556 C1557 1.392 . S
C1556 C1559 1.511 . S
C1557 C1553 1.376 1_655 S
C1557 C1556 1.392 . S
C1557 H1569 0.929 . S
C1558 C1554 1.531 . S
C1558 H1570 0.960 . S
C1558 H1571 0.962 . S
C1558 H1572 0.960 . S
C1559 C1556 1.511 . S
C1559 H1573 0.961 . S
C1559 H1574 0.961 . S
C1559 H1575 0.961 . S
C1560 C1561 1.370 . S
C1560 C1562 1.363 . S
C1560 H1576 0.931 . S
C1561 C1560 1.370 . S
C1561 C1565 1.408 . S
C1562 C1560 1.363 . S
C1562 C1563 1.370 . S
C1562 C1566 1.524 . S
C1563 C1555 1.503 . S
C1563 C1562 1.370 . S
C1563 C1564 1.403 . S
C1564 C1563 1.403 . S
C1564 C1565 1.404 . S
C1564 C1567 1.539 1_455 S
C1565 C1561 1.408 . S
C1565 C1564 1.404 . S
C1565 H1577 0.930 1_455 S
C1566 C1562 1.524 . S
C1566 H1578 0.956 . S
C1566 H1579 0.961 . S
C1566 H1580 0.961 . S
C1567 C1564 1.539 1_655 S
C1567 H1581 0.958 1_655 S
C1567 H1582 0.961 . S
C1567 H1583 0.960 . S
H1568 C1552 0.931 . S
H1569 C1557 0.929 . S
H1570 C1558 0.960 . S
H1571 C1558 0.962 . S
H1572 C1558 0.960 . S
H1573 C1559 0.961 . S
H1574 C1559 0.961 . S
H1575 C1559 0.961 . S
H1576 C1560 0.931 . S
H1577 C1565 0.930 1_655 S
H1578 C1566 0.956 . S
H1579 C1566 0.961 . S
H1580 C1566 0.961 . S
H1581 C1567 0.958 1_455 S
H1582 C1567 0.961 . S
H1583 C1567 0.960 . S
C1584 C1585 1.391 . S
C1584 C1586 1.394 . S
C1584 H1600 0.931 . S
C1585 C1584 1.391 . S
C1585 C1589 1.376 . S
C1586 C1584 1.394 . S
C1586 C1587 1.369 . S
C1586 C1590 1.531 . S
C1587 C1586 1.369 . S
C1587 C1588 1.410 . S
C1587 C1595 1.503 . S
C1588 C1587 1.410 . S
C1588 C1589 1.392 . S
C1588 C1591 1.511 . S
C1589 C1585 1.376 . S
C1589 C1588 1.392 . S
C1589 H1601 0.929 . S
C1590 C1586 1.531 . S
C1590 H1602 0.960 . S
C1590 H1603 0.962 . S
C1590 H1604 0.960 . S
C1591 C1588 1.511 . S
C1591 H1605 0.961 . S
C1591 H1606 0.961 . S
C1591 H1607 0.961 . S
C1592 C1593 1.370 . S
C1592 C1594 1.363 . S
C1592 H1608 0.931 . S
C1593 C1592 1.370 . S
C1593 C1597 1.408 . S
C1594 C1592 1.363 . S
C1594 C1595 1.370 . S
C1594 C1598 1.524 . S
C1595 C1587 1.503 . S
C1595 C1594 1.370 . S
C1595 C1596 1.403 . S
C1596 C1595 1.403 . S
C1596 C1597 1.404 . S
C1596 C1599 1.539 . S
C1597 C1593 1.408 . S
C1597 C1596 1.404 . S
C1597 H1609 0.930 . S
C1598 C1594 1.524 . S
C1598 H1610 0.956 . S
C1598 H1611 0.961 . S
C1598 H1612 0.961 . S
C1599 C1596 1.539 . S
C1599 H1613 0.958 . S
C1599 H1614 0.961 . S
C1599 H1615 0.960 . S
H1600 C1584 0.931 . S
H1601 C1589 0.929 . S
H1602 C1590 0.960 . S
H1603 C1590 0.962 . S
H1604 C1590 0.960 . S
H1605 C1591 0.961 . S
H1606 C1591 0.961 . S
H1607 C1591 0.961 . S
H1608 C1592 0.931 . S
H1609 C1597 0.930 . S
H1610 C1598 0.956 . S
H1611 C1598 0.961 . S
H1612 C1598 0.961 . S
H1613 C1599 0.958 . S
H1614 C1599 0.961 . S
H1615 C1599 0.960 . S
C1616 C1617 1.391 . S
C1616 C1618 1.394 . S
C1616 H1632 0.931 . S
C1617 C1616 1.391 . S
C1617 C1621 1.376 . S
C1618 C1616 1.394 . S
C1618 C1619 1.369 . S
C1618 C1622 1.531 . S
C1619 C1618 1.369 . S
C1619 C1620 1.410 . S
C1619 C1627 1.503 . S
C1620 C1619 1.410 . S
C1620 C1621 1.392 . S
C1620 C1623 1.511 . S
C1621 C1617 1.376 . S
C1621 C1620 1.392 . S
C1621 H1633 0.929 . S
C1622 C1618 1.531 . S
C1622 H1634 0.960 . S
C1622 H1635 0.962 . S
C1622 H1636 0.960 . S
C1623 C1620 1.511 . S
C1623 H1637 0.961 . S
C1623 H1638 0.961 . S
C1623 H1639 0.961 . S
C1624 C1625 1.371 1_554 S
C1624 C1626 1.364 1_554 S
C1624 H1640 0.930 . S
C1625 C1624 1.371 1_556 S
C1625 C1629 1.408 . S
C1626 C1624 1.364 1_556 S
C1626 C1627 1.370 . S
C1626 C1630 1.524 . S
C1627 C1619 1.503 . S
C1627 C1626 1.370 . S
C1627 C1628 1.403 . S
C1628 C1627 1.403 . S
C1628 C1629 1.404 . S
C1628 C1631 1.539 . S
C1629 C1625 1.408 . S
C1629 C1628 1.404 . S
C1629 H1641 0.930 . S
C1630 C1626 1.524 . S
C1630 H1642 0.956 . S
C1630 H1643 0.961 . S
C1630 H1644 0.961 1_556 S
C1631 C1628 1.539 . S
C1631 H1645 0.958 . S
C1631 H1646 0.961 . S
C1631 H1647 0.960 . S
H1632 C1616 0.931 . S
H1633 C1621 0.929 . S
H1634 C1622 0.960 . S
H1635 C1622 0.962 . S
H1636 C1622 0.960 . S
H1637 C1623 0.961 . S
H1638 C1623 0.961 . S
H1639 C1623 0.961 . S
H1640 C1624 0.930 . S
H1641 C1629 0.930 . S
H1642 C1630 0.956 . S
H1643 C1630 0.961 . S
H1644 C1630 0.961 1_554 S
H1645 C1631 0.958 . S
H1646 C1631 0.961 . S
H1647 C1631 0.960 . S
C1648 C1649 1.391 . S
C1648 C1650 1.394 . S
C1648 H1664 0.931 . S
C1649 C1648 1.391 . S
C1649 C1653 1.376 . S
C1650 C1648 1.394 . S
C1650 C1651 1.369 . S
C1650 C1654 1.531 . S
C1651 C1650 1.369 . S
C1651 C1652 1.410 . S
C1651 C1659 1.503 . S
C1652 C1651 1.410 . S
C1652 C1653 1.392 . S
C1652 C1655 1.511 . S
C1653 C1649 1.376 . S
C1653 C1652 1.392 . S
C1653 H1665 0.929 . S
C1654 C1650 1.531 . S
C1654 H1666 0.960 . S
C1654 H1667 0.962 . S
C1654 H1668 0.960 . S
C1655 C1652 1.511 . S
C1655 H1669 0.961 . S
C1655 H1670 0.961 . S
C1655 H1671 0.961 . S
C1656 C1657 1.370 . S
C1656 C1658 1.363 . S
C1656 H1672 0.931 . S
C1657 C1656 1.370 . S
C1657 C1661 1.408 . S
C1658 C1656 1.363 . S
C1658 C1659 1.370 . S
C1658 C1662 1.524 . S
C1659 C1651 1.503 . S
C1659 C1658 1.370 . S
C1659 C1660 1.403 . S
C1660 C1659 1.403 . S
C1660 C1661 1.404 . S
C1660 C1663 1.539 . S
C1661 C1657 1.408 . S
C1661 C1660 1.404 . S
C1661 H1673 0.930 . S
C1662 C1658 1.524 . S
C1662 H1674 0.956 . S
C1662 H1675 0.961 . S
C1662 H1676 0.961 . S
C1663 C1660 1.539 . S
C1663 H1677 0.958 . S
C1663 H1678 0.961 . S
C1663 H1679 0.960 . S
H1664 C1648 0.931 . S
H1665 C1653 0.929 . S
H1666 C1654 0.960 . S
H1667 C1654 0.962 . S
H1668 C1654 0.960 . S
H1669 C1655 0.961 . S
H1670 C1655 0.961 . S
H1671 C1655 0.961 . S
H1672 C1656 0.931 . S
H1673 C1661 0.930 . S
H1674 C1662 0.956 . S
H1675 C1662 0.961 . S
H1676 C1662 0.961 . S
H1677 C1663 0.958 . S
H1678 C1663 0.961 . S
H1679 C1663 0.960 . S
C1680 C1681 1.391 1_565 S
C1680 C1682 1.394 . S
C1680 H1696 0.931 . S
C1681 C1680 1.391 1_545 S
C1681 C1685 1.376 . S
C1682 C1680 1.394 . S
C1682 C1683 1.369 1_565 S
C1682 C1686 1.531 . S
C1683 C1682 1.369 1_545 S
C1683 C1684 1.410 . S
C1683 C1691 1.503 . S
C1684 C1683 1.410 . S
C1684 C1685 1.392 . S
C1684 C1687 1.511 . S
C1685 C1681 1.376 . S
C1685 C1684 1.392 . S
C1685 H1697 0.929 . S
C1686 C1682 1.531 . S
C1686 H1698 0.960 . S
C1686 H1699 0.962 . S
C1686 H1700 0.960 . S
C1687 C1684 1.511 . S
C1687 H1701 0.961 . S
C1687 H1702 0.961 . S
C1687 H1703 0.961 . S
C1688 C1689 1.370 . S
C1688 C1690 1.363 . S
C1688 H1704 0.931 . S
C1689 C1688 1.370 . S
C1689 C1693 1.408 . S
C1690 C1688 1.363 . S
C1690 C1691 1.370 . S
C1690 C1694 1.524 . S
C1691 C1683 1.503 . S
C1691 C1690 1.370 . S
C1691 C1692 1.403 . S
C1692 C1691 1.403 . S
C1692 C1693 1.404 . S
C1692 C1695 1.539 1_545 S
C1693 C1689 1.408 . S
C1693 C1692 1.404 . S
C1693 H1705 0.930 1_545 S
C1694 C1690 1.524 . S
C1694 H1706 0.956 . S
C1694 H1707 0.961 . S
C1694 H1708 0.961 . S
C1695 C1692 1.539 1_565 S
C1695 H1709 0.958 . S
C1695 H1710 0.961 . S
C1695 H1711 0.960 . S
H1696 C1680 0.931 . S
H1697 C1685 0.929 . S
H1698 C1686 0.960 . S
H1699 C1686 0.962 . S
H1700 C1686 0.960 . S
H1701 C1687 0.961 . S
H1702 C1687 0.961 . S
H1703 C1687 0.961 . S
H1704 C1688 0.931 . S
H1705 C1693 0.930 1_565 S
H1706 C1694 0.956 . S
H1707 C1694 0.961 . S
H1708 C1694 0.961 . S
H1709 C1695 0.958 . S
H1710 C1695 0.961 . S
H1711 C1695 0.960 . S
C1712 C1713 1.391 . S
C1712 C1714 1.394 . S
C1712 H1728 0.931 . S
C1713 C1712 1.391 . S
C1713 C1717 1.376 . S
C1714 C1712 1.394 . S
C1714 C1715 1.369 . S
C1714 C1718 1.531 . S
C1715 C1714 1.369 . S
C1715 C1716 1.410 . S
C1715 C1723 1.503 . S
C1716 C1715 1.410 . S
C1716 C1717 1.392 . S
C1716 C1719 1.511 . S
C1717 C1713 1.376 . S
C1717 C1716 1.392 . S
C1717 H1729 0.929 . S
C1718 C1714 1.531 . S
C1718 H1730 0.960 . S
C1718 H1731 0.962 . S
C1718 H1732 0.960 . S
C1719 C1716 1.511 . S
C1719 H1733 0.961 . S
C1719 H1734 0.961 . S
C1719 H1735 0.961 . S
C1720 C1721 1.370 . S
C1720 C1722 1.363 . S
C1720 H1736 0.931 . S
C1721 C1720 1.370 . S
C1721 C1725 1.408 . S
C1722 C1720 1.363 . S
C1722 C1723 1.370 . S
C1722 C1726 1.524 . S
C1723 C1715 1.503 . S
C1723 C1722 1.370 . S
C1723 C1724 1.403 . S
C1724 C1723 1.403 . S
C1724 C1725 1.404 . S
C1724 C1727 1.539 . S
C1725 C1721 1.408 . S
C1725 C1724 1.404 . S
C1725 H1737 0.930 . S
C1726 C1722 1.524 . S
C1726 H1738 0.956 . S
C1726 H1739 0.961 . S
C1726 H1740 0.961 . S
C1727 C1724 1.539 . S
C1727 H1741 0.958 . S
C1727 H1742 0.961 . S
C1727 H1743 0.960 . S
H1728 C1712 0.931 . S
H1729 C1717 0.929 . S
H1730 C1718 0.960 . S
H1731 C1718 0.962 . S
H1732 C1718 0.960 . S
H1733 C1719 0.961 . S
H1734 C1719 0.961 . S
H1735 C1719 0.961 . S
H1736 C1720 0.931 . S
H1737 C1725 0.930 . S
H1738 C1726 0.956 . S
H1739 C1726 0.961 . S
H1740 C1726 0.961 . S
H1741 C1727 0.958 . S
H1742 C1727 0.961 . S
H1743 C1727 0.960 . S
C1744 C1745 1.391 . S
C1744 C1746 1.394 . S
C1744 H1760 0.931 . S
C1745 C1744 1.391 . S
C1745 C1749 1.376 . S
C1746 C1744 1.394 . S
C1746 C1747 1.369 . S
C1746 C1750 1.531 . S
C1747 C1746 1.369 . S
C1747 C1748 1.410 . S
C1747 C1755 1.503 . S
C1748 C1747 1.410 . S
C1748 C1749 1.392 . S
C1748 C1751 1.511 . S
C1749 C1745 1.376 . S
C1749 C1748 1.392 . S
C1749 H1761 0.929 . S
C1750 C1746 1.531 . S
C1750 H1762 0.960 . S
C1750 H1763 0.962 . S
C1750 H1764 0.960 . S
C1751 C1748 1.511 . S
C1751 H1765 0.961 . S
C1751 H1766 0.961 . S
C1751 H1767 0.961 . S
C1752 C1753 1.370 . S
C1752 C1754 1.363 . S
C1752 H1768 0.931 . S
C1753 C1752 1.370 . S
C1753 C1757 1.408 . S
C1754 C1752 1.363 . S
C1754 C1755 1.370 . S
C1754 C1758 1.524 . S
C1755 C1747 1.503 . S
C1755 C1754 1.370 . S
C1755 C1756 1.403 . S
C1756 C1755 1.403 . S
C1756 C1757 1.404 . S
C1756 C1759 1.539 . S
C1757 C1753 1.408 . S
C1757 C1756 1.404 . S
C1757 H1769 0.930 . S
C1758 C1754 1.524 . S
C1758 H1770 0.956 . S
C1758 H1771 0.961 . S
C1758 H1772 0.961 . S
C1759 C1756 1.539 . S
C1759 H1773 0.958 . S
C1759 H1774 0.961 . S
C1759 H1775 0.960 . S
H1760 C1744 0.931 . S
H1761 C1749 0.929 . S
H1762 C1750 0.960 . S
H1763 C1750 0.962 . S
H1764 C1750 0.960 . S
H1765 C1751 0.961 . S
H1766 C1751 0.961 . S
H1767 C1751 0.961 . S
H1768 C1752 0.931 . S
H1769 C1757 0.930 . S
H1770 C1758 0.956 . S
H1771 C1758 0.961 . S
H1772 C1758 0.961 . S
H1773 C1759 0.958 . S
H1774 C1759 0.961 . S
H1775 C1759 0.960 . S
C1776 C1777 1.391 . S
C1776 C1778 1.394 . S
C1776 H1792 0.931 . S
C1777 C1776 1.391 . S
C1777 C1781 1.376 . S
C1778 C1776 1.394 . S
C1778 C1779 1.369 . S
C1778 C1782 1.531 . S
C1779 C1778 1.369 . S
C1779 C1780 1.410 . S
C1779 C1787 1.503 . S
C1780 C1779 1.410 . S
C1780 C1781 1.392 . S
C1780 C1783 1.511 . S
C1781 C1777 1.376 . S
C1781 C1780 1.392 . S
C1781 H1793 0.929 . S
C1782 C1778 1.531 . S
C1782 H1794 0.960 . S
C1782 H1795 0.962 . S
C1782 H1796 0.960 . S
C1783 C1780 1.511 . S
C1783 H1797 0.961 . S
C1783 H1798 0.961 . S
C1783 H1799 0.961 . S
C1784 C1785 1.370 . S
C1784 C1786 1.363 . S
C1784 H1800 0.931 . S
C1785 C1784 1.370 . S
C1785 C1789 1.408 . S
C1786 C1784 1.363 . S
C1786 C1787 1.370 . S
C1786 C1790 1.524 . S
C1787 C1779 1.503 . S
C1787 C1786 1.370 . S
C1787 C1788 1.403 . S
C1788 C1787 1.403 . S
C1788 C1789 1.404 . S
C1788 C1791 1.539 . S
C1789 C1785 1.408 . S
C1789 C1788 1.404 . S
C1789 H1801 0.930 . S
C1790 C1786 1.524 . S
C1790 H1802 0.956 . S
C1790 H1803 0.961 . S
C1790 H1804 0.961 . S
C1791 C1788 1.539 . S
C1791 H1805 0.958 . S
C1791 H1806 0.961 . S
C1791 H1807 0.960 . S
H1792 C1776 0.931 . S
H1793 C1781 0.929 . S
H1794 C1782 0.960 . S
H1795 C1782 0.962 . S
H1796 C1782 0.960 . S
H1797 C1783 0.961 . S
H1798 C1783 0.961 . S
H1799 C1783 0.961 . S
H1800 C1784 0.931 . S
H1801 C1789 0.930 . S
H1802 C1790 0.956 . S
H1803 C1790 0.961 . S
H1804 C1790 0.961 . S
H1805 C1791 0.958 . S
H1806 C1791 0.961 . S
H1807 C1791 0.960 . S
C1808 C1809 1.391 1_545 S
C1808 C1810 1.394 . S
C1808 H1824 0.931 . S
C1809 C1808 1.391 1_565 S
C1809 C1813 1.379 . S
C1810 C1808 1.394 . S
C1810 C1811 1.369 . S
C1810 C1814 1.531 . S
C1811 C1810 1.369 . S
C1811 C1812 1.410 . S
C1811 C1819 1.503 . S
C1812 C1811 1.410 . S
C1812 C1813 1.387 1_545 S
C1812 C1815 1.511 . S
C1813 C1809 1.379 . S
C1813 C1812 1.387 1_565 S
C1813 H1825 0.930 . S
C1814 C1810 1.531 . S
C1814 H1826 0.960 . S
C1814 H1827 0.962 . S
C1814 H1828 0.946 1_545 S
C1815 C1812 1.511 . S
C1815 H1829 0.961 . S
C1815 H1830 0.961 . S
C1815 H1831 0.961 1_545 S
C1816 C1817 1.370 . S
C1816 C1818 1.363 . S
C1816 H1832 0.931 . S
C1817 C1816 1.370 . S
C1817 C1821 1.417 . S
C1818 C1816 1.363 . S
C1818 C1819 1.370 . S
C1818 C1822 1.524 . S
C1819 C1811 1.503 . S
C1819 C1818 1.370 . S
C1819 C1820 1.403 1_545 S
C1820 C1819 1.403 1_565 S
C1820 C1821 1.400 1_565 S
C1820 C1823 1.539 . S
C1821 C1817 1.417 . S
C1821 C1820 1.400 1_545 S
C1821 H1833 0.925 1_545 S
C1822 C1818 1.524 . S
C1822 H1834 0.956 . S
C1822 H1835 0.961 . S
C1822 H1836 0.961 . S
C1823 C1820 1.539 . S
C1823 H1837 0.958 . S
C1823 H1838 0.961 . S
C1823 H1839 0.960 . S
H1824 C1808 0.931 . S
H1825 C1813 0.930 . S
H1826 C1814 0.960 . S
H1827 C1814 0.962 . S
H1828 C1814 0.946 1_565 S
H1829 C1815 0.961 . S
H1830 C1815 0.961 . S
H1831 C1815 0.961 1_565 S
H1832 C1816 0.931 . S
H1833 C1821 0.925 1_565 S
H1834 C1822 0.956 . S
H1835 C1822 0.961 . S
H1836 C1822 0.961 . S
H1837 C1823 0.958 . S
H1838 C1823 0.961 . S
H1839 C1823 0.960 . S
C1840 C1841 1.391 . S
C1840 C1842 1.394 . S
C1840 H1856 0.931 . S
C1841 C1840 1.391 . S
C1841 C1845 1.376 . S
C1842 C1840 1.394 . S
C1842 C1843 1.369 . S
C1842 C1846 1.531 . S
C1843 C1842 1.369 . S
C1843 C1844 1.410 . S
C1843 C1851 1.503 . S
C1844 C1843 1.410 . S
C1844 C1845 1.392 . S
C1844 C1847 1.511 . S
C1845 C1841 1.376 . S
C1845 C1844 1.392 . S
C1845 H1857 0.929 . S
C1846 C1842 1.531 . S
C1846 H1858 0.960 . S
C1846 H1859 0.962 . S
C1846 H1860 0.960 . S
C1847 C1844 1.511 . S
C1847 H1861 0.961 . S
C1847 H1862 0.961 . S
C1847 H1863 0.961 . S
C1848 C1849 1.370 . S
C1848 C1850 1.363 . S
C1848 H1864 0.931 . S
C1849 C1848 1.370 . S
C1849 C1853 1.408 . S
C1850 C1848 1.363 . S
C1850 C1851 1.370 . S
C1850 C1854 1.524 . S
C1851 C1843 1.503 . S
C1851 C1850 1.370 . S
C1851 C1852 1.403 . S
C1852 C1851 1.403 . S
C1852 C1853 1.404 . S
C1852 C1855 1.539 . S
C1853 C1849 1.408 . S
C1853 C1852 1.404 . S
C1853 H1865 0.930 . S
C1854 C1850 1.524 . S
C1854 H1866 0.956 . S
C1854 H1867 0.961 . S
C1854 H1868 0.961 . S
C1855 C1852 1.539 . S
C1855 H1869 0.958 . S
C1855 H1870 0.961 . S
C1855 H1871 0.960 . S
H1856 C1840 0.931 . S
H1857 C1845 0.929 . S
H1858 C1846 0.960 . S
H1859 C1846 0.962 . S
H1860 C1846 0.960 . S
H1861 C1847 0.961 . S
H1862 C1847 0.961 . S
H1863 C1847 0.961 . S
H1864 C1848 0.931 . S
H1865 C1853 0.930 . S
H1866 C1854 0.956 . S
H1867 C1854 0.961 . S
H1868 C1854 0.961 . S
H1869 C1855 0.958 . S
H1870 C1855 0.961 . S
H1871 C1855 0.960 . S
C1872 C1873 1.391 . S
C1872 C1874 1.394 . S
C1872 H1888 0.931 . S
C1873 C1872 1.391 . S
C1873 C1877 1.376 . S
C1874 C1872 1.394 . S
C1874 C1875 1.369 . S
C1874 C1878 1.531 . S
C1875 C1874 1.369 . S
C1875 C1876 1.410 . S
C1875 C1883 1.503 . S
C1876 C1875 1.410 . S
C1876 C1877 1.392 . S
C1876 C1879 1.511 . S
C1877 C1873 1.376 . S
C1877 C1876 1.392 . S
C1877 H1889 0.929 . S
C1878 C1874 1.531 . S
C1878 H1890 0.960 . S
C1878 H1891 0.962 . S
C1878 H1892 0.960 . S
C1879 C1876 1.511 . S
C1879 H1893 0.961 . S
C1879 H1894 0.961 . S
C1879 H1895 0.961 . S
C1880 C1881 1.370 . S
C1880 C1882 1.363 . S
C1880 H1896 0.931 . S
C1881 C1880 1.370 . S
C1881 C1885 1.408 . S
C1882 C1880 1.363 . S
C1882 C1883 1.370 . S
C1882 C1886 1.524 . S
C1883 C1875 1.503 . S
C1883 C1882 1.370 . S
C1883 C1884 1.403 . S
C1884 C1883 1.403 . S
C1884 C1885 1.404 . S
C1884 C1887 1.539 1_545 S
C1885 C1881 1.408 . S
C1885 C1884 1.404 . S
C1885 H1897 0.930 1_545 S
C1886 C1882 1.524 . S
C1886 H1898 0.956 . S
C1886 H1899 0.961 . S
C1886 H1900 0.961 . S
C1887 C1884 1.539 1_565 S
C1887 H1901 0.958 . S
C1887 H1902 0.961 . S
C1887 H1903 0.960 . S
H1888 C1872 0.931 . S
H1889 C1877 0.929 . S
H1890 C1878 0.960 . S
H1891 C1878 0.962 . S
H1892 C1878 0.960 . S
H1893 C1879 0.961 . S
H1894 C1879 0.961 . S
H1895 C1879 0.961 . S
H1896 C1880 0.931 . S
H1897 C1885 0.930 1_565 S
H1898 C1886 0.956 . S
H1899 C1886 0.961 . S
H1900 C1886 0.961 . S
H1901 C1887 0.958 . S
H1902 C1887 0.961 . S
H1903 C1887 0.960 . S
C1904 C1905 1.391 . S
C1904 C1906 1.394 . S
C1904 H1920 0.931 . S
C1905 C1904 1.391 . S
C1905 C1909 1.376 . S
C1906 C1904 1.394 . S
C1906 C1907 1.369 . S
C1906 C1910 1.531 . S
C1907 C1906 1.369 . S
C1907 C1908 1.410 . S
C1907 C1915 1.503 . S
C1908 C1907 1.410 . S
C1908 C1909 1.392 . S
C1908 C1911 1.511 . S
C1909 C1905 1.376 . S
C1909 C1908 1.392 . S
C1909 H1921 0.929 . S
C1910 C1906 1.531 . S
C1910 H1922 0.960 . S
C1910 H1923 0.962 . S
C1910 H1924 0.960 . S
C1911 C1908 1.511 . S
C1911 H1925 0.961 . S
C1911 H1926 0.961 . S
C1911 H1927 0.961 . S
C1912 C1913 1.370 . S
C1912 C1914 1.363 . S
C1912 H1928 0.931 . S
C1913 C1912 1.370 . S
C1913 C1917 1.408 . S
C1914 C1912 1.363 . S
C1914 C1915 1.370 . S
C1914 C1918 1.524 . S
C1915 C1907 1.503 . S
C1915 C1914 1.370 . S
C1915 C1916 1.403 . S
C1916 C1915 1.403 . S
C1916 C1917 1.404 . S
C1916 C1919 1.539 . S
C1917 C1913 1.408 . S
C1917 C1916 1.404 . S
C1917 H1929 0.930 . S
C1918 C1914 1.524 . S
C1918 H1930 0.956 . S
C1918 H1931 0.961 . S
C1918 H1932 0.961 . S
C1919 C1916 1.539 . S
C1919 H1933 0.958 . S
C1919 H1934 0.961 . S
C1919 H1935 0.960 . S
H1920 C1904 0.931 . S
H1921 C1909 0.929 . S
H1922 C1910 0.960 . S
H1923 C1910 0.962 . S
H1924 C1910 0.960 . S
H1925 C1911 0.961 . S
H1926 C1911 0.961 . S
H1927 C1911 0.961 . S
H1928 C1912 0.931 . S
H1929 C1917 0.930 . S
H1930 C1918 0.956 . S
H1931 C1918 0.961 . S
H1932 C1918 0.961 . S
H1933 C1919 0.958 . S
H1934 C1919 0.961 . S
H1935 C1919 0.960 . S
C1936 C1937 1.391 1_556 S
C1936 C1938 1.394 . S
C1936 H1952 0.931 . S
C1937 C1936 1.391 1_554 S
C1937 C1941 1.376 . S
C1938 C1936 1.394 . S
C1938 C1939 1.369 1_556 S
C1938 C1942 1.531 . S
C1939 C1938 1.369 1_554 S
C1939 C1940 1.410 . S
C1939 C1947 1.503 . S
C1940 C1939 1.410 . S
C1940 C1941 1.392 . S
C1940 C1943 1.511 . S
C1941 C1937 1.376 . S
C1941 C1940 1.392 . S
C1941 H1953 0.929 . S
C1942 C1938 1.531 . S
C1942 H1954 0.960 . S
C1942 H1955 0.962 . S
C1942 H1956 0.960 . S
C1943 C1940 1.511 . S
C1943 H1957 0.961 . S
C1943 H1958 0.961 . S
C1943 H1959 0.961 . S
C1944 C1945 1.369 1_556 S
C1944 C1946 1.363 1_556 S
C1944 H1960 0.933 . S
C1945 C1944 1.369 1_554 S
C1945 C1949 1.408 . S
C1946 C1944 1.363 1_554 S
C1946 C1947 1.370 . S
C1946 C1950 1.524 1_554 S
C1947 C1939 1.503 . S
C1947 C1946 1.370 . S
C1947 C1948 1.403 . S
C1948 C1947 1.403 . S
C1948 C1949 1.404 . S
C1948 C1951 1.539 . S
C1949 C1945 1.408 . S
C1949 C1948 1.404 . S
C1949 H1961 0.930 . S
C1950 C1946 1.524 1_556 S
C1950 H1962 0.956 . S
C1950 H1963 0.961 1_556 S
C1950 H1964 0.961 . S
C1951 C1948 1.539 . S
C1951 H1965 0.958 . S
C1951 H1966 0.961 . S
C1951 H1967 0.960 . S
H1952 C1936 0.931 . S
H1953 C1941 0.929 . S
H1954 C1942 0.960 . S
H1955 C1942 0.962 . S
H1956 C1942 0.960 . S
H1957 C1943 0.961 . S
H1958 C1943 0.961 . S
H1959 C1943 0.961 . S
H1960 C1944 0.933 . S
H1961 C1949 0.930 . S
H1962 C1950 0.956 . S
H1963 C1950 0.961 1_554 S
H1964 C1950 0.961 . S
H1965 C1951 0.958 . S
H1966 C1951 0.961 . S
H1967 C1951 0.960 . S
C1968 C1969 1.391 . S
C1968 C1970 1.394 . S
C1968 H1984 0.931 . S
C1969 C1968 1.391 . S
C1969 C1973 1.376 . S
C1970 C1968 1.394 . S
C1970 C1971 1.369 . S
C1970 C1974 1.531 1_554 S
C1971 C1970 1.369 . S
C1971 C1972 1.410 . S
C1971 C1979 1.503 . S
C1972 C1971 1.410 . S
C1972 C1973 1.392 . S
C1972 C1975 1.511 . S
C1973 C1969 1.376 . S
C1973 C1972 1.392 . S
C1973 H1985 0.929 . S
C1974 C1970 1.531 1_556 S
C1974 H1986 0.960 . S
C1974 H1987 0.962 . S
C1974 H1988 0.960 . S
C1975 C1972 1.511 . S
C1975 H1989 0.961 . S
C1975 H1990 0.961 . S
C1975 H1991 0.961 . S
C1976 C1977 1.370 . S
C1976 C1978 1.363 . S
C1976 H1992 0.931 . S
C1977 C1976 1.370 . S
C1977 C1981 1.408 . S
C1978 C1976 1.363 . S
C1978 C1979 1.370 . S
C1978 C1982 1.524 . S
C1979 C1971 1.503 . S
C1979 C1978 1.370 . S
C1979 C1980 1.403 . S
C1980 C1979 1.403 . S
C1980 C1981 1.404 . S
C1980 C1983 1.539 . S
C1981 C1977 1.408 . S
C1981 C1980 1.404 . S
C1981 H1993 0.930 . S
C1982 C1978 1.524 . S
C1982 H1994 0.956 . S
C1982 H1995 0.961 . S
C1982 H1996 0.961 . S
C1983 C1980 1.539 . S
C1983 H1997 0.958 . S
C1983 H1998 0.961 . S
C1983 H1999 0.960 . S
H1984 C1968 0.931 . S
H1985 C1973 0.929 . S
H1986 C1974 0.960 . S
H1987 C1974 0.962 . S
H1988 C1974 0.960 . S
H1989 C1975 0.961 . S
H1990 C1975 0.961 . S
H1991 C1975 0.961 . S
H1992 C1976 0.931 . S
H1993 C1981 0.930 . S
H1994 C1982 0.956 . S
H1995 C1982 0.961 . S
H1996 C1982 0.961 . S
H1997 C1983 0.958 . S
H1998 C1983 0.961 . S
H1999 C1983 0.960 . S
C2000 C2001 1.391 . S
C2000 C2002 1.394 . S
C2000 H2016 0.931 . S
C2001 C2000 1.391 . S
C2001 C2005 1.376 . S
C2002 C2000 1.394 . S
C2002 C2003 1.369 . S
C2002 C2006 1.531 . S
C2003 C2002 1.369 . S
C2003 C2004 1.410 . S
C2003 C2011 1.503 . S
C2004 C2003 1.410 . S
C2004 C2005 1.392 . S
C2004 C2007 1.511 . S
C2005 C2001 1.376 . S
C2005 C2004 1.392 . S
C2005 H2017 0.929 . S
C2006 C2002 1.531 . S
C2006 H2018 0.960 . S
C2006 H2019 0.962 . S
C2006 H2020 0.960 . S
C2007 C2004 1.511 . S
C2007 H2021 0.961 . S
C2007 H2022 0.961 . S
C2007 H2023 0.961 . S
C2008 C2009 1.370 . S
C2008 C2010 1.363 . S
C2008 H2024 0.931 . S
C2009 C2008 1.370 . S
C2009 C2013 1.408 . S
C2010 C2008 1.363 . S
C2010 C2011 1.370 . S
C2010 C2014 1.524 . S
C2011 C2003 1.503 . S
C2011 C2010 1.370 . S
C2011 C2012 1.403 . S
C2012 C2011 1.403 . S
C2012 C2013 1.404 . S
C2012 C2015 1.539 . S
C2013 C2009 1.408 . S
C2013 C2012 1.404 . S
C2013 H2025 0.930 . S
C2014 C2010 1.524 . S
C2014 H2026 0.956 . S
C2014 H2027 0.961 . S
C2014 H2028 0.961 . S
C2015 C2012 1.539 . S
C2015 H2029 0.958 . S
C2015 H2030 0.961 . S
C2015 H2031 0.960 . S
H2016 C2000 0.931 . S
H2017 C2005 0.929 . S
H2018 C2006 0.960 . S
H2019 C2006 0.962 . S
H2020 C2006 0.960 . S
H2021 C2007 0.961 . S
H2022 C2007 0.961 . S
H2023 C2007 0.961 . S
H2024 C2008 0.931 . S
H2025 C2013 0.930 . S
H2026 C2014 0.956 . S
H2027 C2014 0.961 . S
H2028 C2014 0.961 . S
H2029 C2015 0.958 . S
H2030 C2015 0.961 . S
H2031 C2015 0.960 . S
C2032 C2033 1.391 . S
C2032 C2034 1.394 . S
C2032 H2048 0.931 . S
C2033 C2032 1.391 . S
C2033 C2037 1.376 . S
C2034 C2032 1.394 . S
C2034 C2035 1.369 . S
C2034 C2038 1.531 . S
C2035 C2034 1.369 . S
C2035 C2036 1.410 . S
C2035 C2043 1.503 . S
C2036 C2035 1.410 . S
C2036 C2037 1.392 . S
C2036 C2039 1.511 . S
C2037 C2033 1.376 . S
C2037 C2036 1.392 . S
C2037 H2049 0.929 . S
C2038 C2034 1.531 . S
C2038 H2050 0.960 . S
C2038 H2051 0.962 . S
C2038 H2052 0.960 . S
C2039 C2036 1.511 . S
C2039 H2053 0.961 . S
C2039 H2054 0.961 . S
C2039 H2055 0.961 . S
C2040 C2041 1.370 . S
C2040 C2042 1.363 . S
C2040 H2056 0.931 . S
C2041 C2040 1.370 . S
C2041 C2045 1.408 . S
C2042 C2040 1.363 . S
C2042 C2043 1.370 . S
C2042 C2046 1.524 . S
C2043 C2035 1.503 . S
C2043 C2042 1.370 . S
C2043 C2044 1.403 . S
C2044 C2043 1.403 . S
C2044 C2045 1.404 . S
C2044 C2047 1.539 . S
C2045 C2041 1.408 . S
C2045 C2044 1.404 . S
C2045 H2057 0.930 . S
C2046 C2042 1.524 . S
C2046 H2058 0.956 . S
C2046 H2059 0.961 . S
C2046 H2060 0.961 . S
C2047 C2044 1.539 . S
C2047 H2061 0.958 . S
C2047 H2062 0.961 . S
C2047 H2063 0.960 . S
H2048 C2032 0.931 . S
H2049 C2037 0.929 . S
H2050 C2038 0.960 . S
H2051 C2038 0.962 . S
H2052 C2038 0.960 . S
H2053 C2039 0.961 . S
H2054 C2039 0.961 . S
H2055 C2039 0.961 . S
H2056 C2040 0.931 . S
H2057 C2045 0.930 . S
H2058 C2046 0.956 . S
H2059 C2046 0.961 . S
H2060 C2046 0.961 . S
H2061 C2047 0.958 . S
H2062 C2047 0.961 . S
H2063 C2047 0.960 . S
C2064 C2065 1.391 . S
C2064 C2066 1.394 . S
C2064 H2080 0.931 . S
C2065 C2064 1.391 . S
C2065 C2069 1.376 . S
C2066 C2064 1.394 . S
C2066 C2067 1.369 . S
C2066 C2070 1.531 . S
C2067 C2066 1.369 . S
C2067 C2068 1.410 . S
C2067 C2075 1.503 . S
C2068 C2067 1.410 . S
C2068 C2069 1.392 . S
C2068 C2071 1.511 . S
C2069 C2065 1.376 . S
C2069 C2068 1.392 . S
C2069 H2081 0.929 . S
C2070 C2066 1.531 . S
C2070 H2082 0.960 . S
C2070 H2083 0.962 . S
C2070 H2084 0.960 . S
C2071 C2068 1.511 . S
C2071 H2085 0.961 . S
C2071 H2086 0.961 . S
C2071 H2087 0.961 . S
C2072 C2073 1.370 . S
C2072 C2074 1.363 . S
C2072 H2088 0.931 . S
C2073 C2072 1.370 . S
C2073 C2077 1.408 . S
C2074 C2072 1.363 . S
C2074 C2075 1.370 . S
C2074 C2078 1.524 . S
C2075 C2067 1.503 . S
C2075 C2074 1.370 . S
C2075 C2076 1.403 . S
C2076 C2075 1.403 . S
C2076 C2077 1.404 . S
C2076 C2079 1.539 . S
C2077 C2073 1.408 . S
C2077 C2076 1.404 . S
C2077 H2089 0.930 . S
C2078 C2074 1.524 . S
C2078 H2090 0.956 . S
C2078 H2091 0.961 . S
C2078 H2092 0.961 . S
C2079 C2076 1.539 . S
C2079 H2093 0.958 . S
C2079 H2094 0.961 . S
C2079 H2095 0.960 . S
H2080 C2064 0.931 . S
H2081 C2069 0.929 . S
H2082 C2070 0.960 . S
H2083 C2070 0.962 . S
H2084 C2070 0.960 . S
H2085 C2071 0.961 . S
H2086 C2071 0.961 . S
H2087 C2071 0.961 . S
H2088 C2072 0.931 . S
H2089 C2077 0.930 . S
H2090 C2078 0.956 . S
H2091 C2078 0.961 . S
H2092 C2078 0.961 . S
H2093 C2079 0.958 . S
H2094 C2079 0.961 . S
H2095 C2079 0.960 . S
C2096 C2097 1.391 . S
C2096 C2098 1.394 . S
C2096 H2112 0.931 . S
C2097 C2096 1.391 . S
C2097 C2101 1.376 . S
C2098 C2096 1.394 . S
C2098 C2099 1.369 . S
C2098 C2102 1.531 . S
C2099 C2098 1.369 . S
C2099 C2100 1.410 . S
C2099 C2107 1.503 . S
C2100 C2099 1.410 . S
C2100 C2101 1.392 . S
C2100 C2103 1.511 . S
C2101 C2097 1.376 . S
C2101 C2100 1.392 . S
C2101 H2113 0.929 . S
C2102 C2098 1.531 . S
C2102 H2114 0.960 . S
C2102 H2115 0.962 . S
C2102 H2116 0.960 . S
C2103 C2100 1.511 . S
C2103 H2117 0.961 . S
C2103 H2118 0.961 . S
C2103 H2119 0.961 1_565 S
C2104 C2105 1.370 . S
C2104 C2106 1.363 . S
C2104 H2120 0.931 . S
C2105 C2104 1.370 . S
C2105 C2109 1.408 . S
C2106 C2104 1.363 . S
C2106 C2107 1.370 . S
C2106 C2110 1.524 . S
C2107 C2099 1.503 . S
C2107 C2106 1.370 . S
C2107 C2108 1.403 . S
C2108 C2107 1.403 . S
C2108 C2109 1.404 . S
C2108 C2111 1.539 . S
C2109 C2105 1.408 . S
C2109 C2108 1.404 . S
C2109 H2121 0.930 1_565 S
C2110 C2106 1.524 . S
C2110 H2122 0.956 . S
C2110 H2123 0.961 . S
C2110 H2124 0.961 . S
C2111 C2108 1.539 . S
C2111 H2125 0.958 . S
C2111 H2126 0.961 1_565 S
C2111 H2127 0.960 . S
H2112 C2096 0.931 . S
H2113 C2101 0.929 . S
H2114 C2102 0.960 . S
H2115 C2102 0.962 . S
H2116 C2102 0.960 . S
H2117 C2103 0.961 . S
H2118 C2103 0.961 . S
H2119 C2103 0.961 1_545 S
H2120 C2104 0.931 . S
H2121 C2109 0.930 1_545 S
H2122 C2110 0.956 . S
H2123 C2110 0.961 . S
H2124 C2110 0.961 . S
H2125 C2111 0.958 . S
H2126 C2111 0.961 1_545 S
H2127 C2111 0.960 . S
C2128 C2129 1.391 . S
C2128 C2130 1.394 . S
C2128 H2144 0.931 . S
C2129 C2128 1.391 . S
C2129 C2133 1.376 . S
C2130 C2128 1.394 . S
C2130 C2131 1.369 . S
C2130 C2134 1.531 . S
C2131 C2130 1.369 . S
C2131 C2132 1.410 . S
C2131 C2139 1.503 . S
C2132 C2131 1.410 . S
C2132 C2133 1.392 . S
C2132 C2135 1.511 . S
C2133 C2129 1.376 . S
C2133 C2132 1.392 . S
C2133 H2145 0.929 . S
C2134 C2130 1.531 . S
C2134 H2146 0.960 . S
C2134 H2147 0.962 . S
C2134 H2148 0.960 . S
C2135 C2132 1.511 . S
C2135 H2149 0.961 . S
C2135 H2150 0.961 . S
C2135 H2151 0.961 . S
C2136 C2137 1.370 . S
C2136 C2138 1.363 . S
C2136 H2152 0.931 . S
C2137 C2136 1.370 . S
C2137 C2141 1.408 . S
C2138 C2136 1.363 . S
C2138 C2139 1.370 . S
C2138 C2142 1.524 . S
C2139 C2131 1.503 . S
C2139 C2138 1.370 . S
C2139 C2140 1.403 . S
C2140 C2139 1.403 . S
C2140 C2141 1.404 . S
C2140 C2143 1.539 . S
C2141 C2137 1.408 . S
C2141 C2140 1.404 . S
C2141 H2153 0.930 . S
C2142 C2138 1.524 . S
C2142 H2154 0.956 . S
C2142 H2155 0.961 . S
C2142 H2156 0.961 . S
C2143 C2140 1.539 . S
C2143 H2157 0.958 . S
C2143 H2158 0.961 . S
C2143 H2159 0.960 . S
H2144 C2128 0.931 . S
H2145 C2133 0.929 . S
H2146 C2134 0.960 . S
H2147 C2134 0.962 . S
H2148 C2134 0.960 . S
H2149 C2135 0.961 . S
H2150 C2135 0.961 . S
H2151 C2135 0.961 . S
H2152 C2136 0.931 . S
H2153 C2141 0.930 . S
H2154 C2142 0.956 . S
H2155 C2142 0.961 . S
H2156 C2142 0.961 . S
H2157 C2143 0.958 . S
H2158 C2143 0.961 . S
H2159 C2143 0.960 . S
C2160 C2161 1.391 . S
C2160 C2162 1.394 . S
C2160 H2176 0.931 . S
C2161 C2160 1.391 . S
C2161 C2165 1.376 . S
C2162 C2160 1.394 . S
C2162 C2163 1.369 . S
C2162 C2166 1.531 . S
C2163 C2162 1.369 . S
C2163 C2164 1.410 . S
C2163 C2171 1.503 . S
C2164 C2163 1.410 . S
C2164 C2165 1.392 . S
C2164 C2167 1.511 . S
C2165 C2161 1.376 . S
C2165 C2164 1.392 . S
C2165 H2177 0.929 . S
C2166 C2162 1.531 . S
C2166 H2178 0.960 . S
C2166 H2179 0.962 . S
C2166 H2180 0.960 . S
C2167 C2164 1.511 . S
C2167 H2181 0.961 . S
C2167 H2182 0.961 . S
C2167 H2183 0.961 . S
C2168 C2169 1.370 . S
C2168 C2170 1.363 . S
C2168 H2184 0.931 . S
C2169 C2168 1.370 . S
C2169 C2173 1.408 . S
C2170 C2168 1.363 . S
C2170 C2171 1.370 . S
C2170 C2174 1.524 . S
C2171 C2163 1.503 . S
C2171 C2170 1.370 . S
C2171 C2172 1.403 . S
C2172 C2171 1.403 . S
C2172 C2173 1.404 . S
C2172 C2175 1.539 . S
C2173 C2169 1.408 . S
C2173 C2172 1.404 . S
C2173 H2185 0.930 . S
C2174 C2170 1.524 . S
C2174 H2186 0.956 . S
C2174 H2187 0.961 . S
C2174 H2188 0.961 . S
C2175 C2172 1.539 . S
C2175 H2189 0.958 . S
C2175 H2190 0.961 . S
C2175 H2191 0.960 . S
H2176 C2160 0.931 . S
H2177 C2165 0.929 . S
H2178 C2166 0.960 . S
H2179 C2166 0.962 . S
H2180 C2166 0.960 . S
H2181 C2167 0.961 . S
H2182 C2167 0.961 . S
H2183 C2167 0.961 . S
H2184 C2168 0.931 . S
H2185 C2173 0.930 . S
H2186 C2174 0.956 . S
H2187 C2174 0.961 . S
H2188 C2174 0.961 . S
H2189 C2175 0.958 . S
H2190 C2175 0.961 . S
H2191 C2175 0.960 . S
C2192 C2193 1.391 . S
C2192 C2194 1.394 . S
C2192 H2208 0.931 . S
C2193 C2192 1.391 . S
C2193 C2197 1.376 . S
C2194 C2192 1.394 . S
C2194 C2195 1.369 . S
C2194 C2198 1.531 . S
C2195 C2194 1.369 . S
C2195 C2196 1.410 . S
C2195 C2203 1.503 . S
C2196 C2195 1.410 . S
C2196 C2197 1.392 . S
C2196 C2199 1.511 . S
C2197 C2193 1.376 . S
C2197 C2196 1.392 . S
C2197 H2209 0.929 . S
C2198 C2194 1.531 . S
C2198 H2210 0.960 . S
C2198 H2211 0.962 . S
C2198 H2212 0.960 . S
C2199 C2196 1.511 . S
C2199 H2213 0.961 . S
C2199 H2214 0.961 . S
C2199 H2215 0.961 . S
C2200 C2201 1.370 . S
C2200 C2202 1.363 . S
C2200 H2216 0.931 . S
C2201 C2200 1.370 . S
C2201 C2205 1.408 . S
C2202 C2200 1.363 . S
C2202 C2203 1.370 . S
C2202 C2206 1.524 . S
C2203 C2195 1.503 . S
C2203 C2202 1.370 . S
C2203 C2204 1.403 . S
C2204 C2203 1.403 . S
C2204 C2205 1.404 . S
C2204 C2207 1.539 . S
C2205 C2201 1.408 . S
C2205 C2204 1.404 . S
C2205 H2217 0.930 . S
C2206 C2202 1.524 . S
C2206 H2218 0.956 . S
C2206 H2219 0.961 . S
C2206 H2220 0.961 . S
C2207 C2204 1.539 . S
C2207 H2221 0.958 . S
C2207 H2222 0.961 . S
C2207 H2223 0.960 . S
H2208 C2192 0.931 . S
H2209 C2197 0.929 . S
H2210 C2198 0.960 . S
H2211 C2198 0.962 . S
H2212 C2198 0.960 . S
H2213 C2199 0.961 . S
H2214 C2199 0.961 . S
H2215 C2199 0.961 . S
H2216 C2200 0.931 . S
H2217 C2205 0.930 . S
H2218 C2206 0.956 . S
H2219 C2206 0.961 . S
H2220 C2206 0.961 . S
H2221 C2207 0.958 . S
H2222 C2207 0.961 . S
H2223 C2207 0.960 . S
C2224 C2225 1.391 . S
C2224 C2226 1.394 . S
C2224 H2240 0.931 . S
C2225 C2224 1.391 . S
C2225 C2229 1.376 . S
C2226 C2224 1.394 . S
C2226 C2227 1.369 . S
C2226 C2230 1.531 . S
C2227 C2226 1.369 . S
C2227 C2228 1.410 . S
C2227 C2235 1.503 . S
C2228 C2227 1.410 . S
C2228 C2229 1.392 . S
C2228 C2231 1.511 . S
C2229 C2225 1.376 . S
C2229 C2228 1.392 . S
C2229 H2241 0.929 . S
C2230 C2226 1.531 . S
C2230 H2242 0.960 . S
C2230 H2243 0.962 . S
C2230 H2244 0.960 . S
C2231 C2228 1.511 . S
C2231 H2245 0.961 . S
C2231 H2246 0.961 . S
C2231 H2247 0.961 . S
C2232 C2233 1.370 . S
C2232 C2234 1.363 . S
C2232 H2248 0.931 . S
C2233 C2232 1.370 . S
C2233 C2237 1.408 . S
C2234 C2232 1.363 . S
C2234 C2235 1.370 . S
C2234 C2238 1.524 . S
C2235 C2227 1.503 . S
C2235 C2234 1.370 . S
C2235 C2236 1.403 . S
C2236 C2235 1.403 . S
C2236 C2237 1.404 . S
C2236 C2239 1.539 . S
C2237 C2233 1.408 . S
C2237 C2236 1.404 . S
C2237 H2249 0.930 . S
C2238 C2234 1.524 . S
C2238 H2250 0.956 . S
C2238 H2251 0.961 . S
C2238 H2252 0.961 . S
C2239 C2236 1.539 . S
C2239 H2253 0.958 . S
C2239 H2254 0.961 . S
C2239 H2255 0.960 . S
H2240 C2224 0.931 . S
H2241 C2229 0.929 . S
H2242 C2230 0.960 . S
H2243 C2230 0.962 . S
H2244 C2230 0.960 . S
H2245 C2231 0.961 . S
H2246 C2231 0.961 . S
H2247 C2231 0.961 . S
H2248 C2232 0.931 . S
H2249 C2237 0.930 . S
H2250 C2238 0.956 . S
H2251 C2238 0.961 . S
H2252 C2238 0.961 . S
H2253 C2239 0.958 . S
H2254 C2239 0.961 . S
H2255 C2239 0.960 . S
C2256 C2257 1.391 . S
C2256 C2258 1.394 . S
C2256 H2272 0.931 1_455 S
C2257 C2256 1.391 . S
C2257 C2261 1.376 . S
C2258 C2256 1.394 . S
C2258 C2259 1.369 . S
C2258 C2262 1.531 1_455 S
C2259 C2258 1.369 . S
C2259 C2260 1.410 . S
C2259 C2267 1.503 . S
C2260 C2259 1.410 . S
C2260 C2261 1.392 . S
C2260 C2263 1.511 . S
C2261 C2257 1.376 . S
C2261 C2260 1.392 . S
C2261 H2273 0.929 . S
C2262 C2258 1.531 1_655 S
C2262 H2274 0.960 . S
C2262 H2275 0.962 . S
C2262 H2276 0.960 . S
C2263 C2260 1.511 . S
C2263 H2277 0.961 . S
C2263 H2278 0.961 . S
C2263 H2279 0.961 . S
C2264 C2265 1.370 1_656 S
C2264 C2266 1.363 . S
C2264 H2280 0.931 . S
C2265 C2264 1.370 1_454 S
C2265 C2269 1.408 . S
C2266 C2264 1.363 . S
C2266 C2267 1.370 1_655 S
C2266 C2270 1.524 . S
C2267 C2259 1.503 . S
C2267 C2266 1.370 1_455 S
C2267 C2268 1.403 . S
C2268 C2267 1.403 . S
C2268 C2269 1.404 1_556 S
C2268 C2271 1.539 1_556 S
C2269 C2265 1.408 . S
C2269 C2268 1.404 1_554 S
C2269 H2281 0.930 . S
C2270 C2266 1.524 . S
C2270 H2282 0.956 . S
C2270 H2283 0.961 . S
C2270 H2284 0.961 . S
C2271 C2268 1.539 1_554 S
C2271 H2285 0.958 . S
C2271 H2286 0.961 . S
C2271 H2287 0.960 1_554 S
H2272 C2256 0.931 1_655 S
H2273 C2261 0.929 . S
H2274 C2262 0.960 . S
H2275 C2262 0.962 . S
H2276 C2262 0.960 . S
H2277 C2263 0.961 . S
H2278 C2263 0.961 . S
H2279 C2263 0.961 . S
H2280 C2264 0.931 . S
H2281 C2269 0.930 . S
H2282 C2270 0.956 . S
H2283 C2270 0.961 . S
H2284 C2270 0.961 . S
H2285 C2271 0.958 . S
H2286 C2271 0.961 . S
H2287 C2271 0.960 1_556 S
C2288 C2289 1.391 . S
C2288 C2290 1.394 . S
C2288 H2304 0.931 . S
C2289 C2288 1.391 . S
C2289 C2293 1.376 . S
C2290 C2288 1.394 . S
C2290 C2291 1.369 . S
C2290 C2294 1.531 . S
C2291 C2290 1.369 . S
C2291 C2292 1.410 . S
C2291 C2299 1.503 . S
C2292 C2291 1.410 . S
C2292 C2293 1.392 . S
C2292 C2295 1.511 . S
C2293 C2289 1.376 . S
C2293 C2292 1.392 . S
C2293 H2305 0.929 . S
C2294 C2290 1.531 . S
C2294 H2306 0.960 . S
C2294 H2307 0.962 . S
C2294 H2308 0.960 . S
C2295 C2292 1.511 . S
C2295 H2309 0.961 . S
C2295 H2310 0.961 . S
C2295 H2311 0.961 . S
C2296 C2297 1.370 . S
C2296 C2298 1.363 . S
C2296 H2312 0.931 . S
C2297 C2296 1.370 . S
C2297 C2301 1.408 . S
C2298 C2296 1.363 . S
C2298 C2299 1.370 . S
C2298 C2302 1.524 . S
C2299 C2291 1.503 . S
C2299 C2298 1.370 . S
C2299 C2300 1.403 . S
C2300 C2299 1.403 . S
C2300 C2301 1.404 . S
C2300 C2303 1.539 . S
C2301 C2297 1.408 . S
C2301 C2300 1.404 . S
C2301 H2313 0.930 . S
C2302 C2298 1.524 . S
C2302 H2314 0.956 . S
C2302 H2315 0.961 . S
C2302 H2316 0.961 . S
C2303 C2300 1.539 . S
C2303 H2317 0.958 . S
C2303 H2318 0.961 . S
C2303 H2319 0.960 . S
H2304 C2288 0.931 . S
H2305 C2293 0.929 . S
H2306 C2294 0.960 . S
H2307 C2294 0.962 . S
H2308 C2294 0.960 . S
H2309 C2295 0.961 . S
H2310 C2295 0.961 . S
H2311 C2295 0.961 . S
H2312 C2296 0.931 . S
H2313 C2301 0.930 . S
H2314 C2302 0.956 . S
H2315 C2302 0.961 . S
H2316 C2302 0.961 . S
H2317 C2303 0.958 . S
H2318 C2303 0.961 . S
H2319 C2303 0.960 . S
C2320 C2321 1.391 . S
C2320 C2322 1.394 . S
C2320 H2336 0.931 . S
C2321 C2320 1.391 . S
C2321 C2325 1.376 . S
C2322 C2320 1.394 . S
C2322 C2323 1.369 . S
C2322 C2326 1.531 . S
C2323 C2322 1.369 . S
C2323 C2324 1.410 . S
C2323 C2331 1.503 . S
C2324 C2323 1.410 . S
C2324 C2325 1.392 . S
C2324 C2327 1.511 . S
C2325 C2321 1.376 . S
C2325 C2324 1.392 . S
C2325 H2337 0.929 . S
C2326 C2322 1.531 . S
C2326 H2338 0.960 . S
C2326 H2339 0.962 . S
C2326 H2340 0.960 . S
C2327 C2324 1.511 . S
C2327 H2341 0.961 . S
C2327 H2342 0.961 . S
C2327 H2343 0.961 . S
C2328 C2329 1.370 . S
C2328 C2330 1.363 . S
C2328 H2344 0.931 . S
C2329 C2328 1.370 . S
C2329 C2333 1.408 . S
C2330 C2328 1.363 . S
C2330 C2331 1.370 . S
C2330 C2334 1.524 . S
C2331 C2323 1.503 . S
C2331 C2330 1.370 . S
C2331 C2332 1.403 . S
C2332 C2331 1.403 . S
C2332 C2333 1.404 . S
C2332 C2335 1.539 . S
C2333 C2329 1.408 . S
C2333 C2332 1.404 . S
C2333 H2345 0.930 . S
C2334 C2330 1.524 . S
C2334 H2346 0.956 . S
C2334 H2347 0.961 . S
C2334 H2348 0.961 . S
C2335 C2332 1.539 . S
C2335 H2349 0.958 . S
C2335 H2350 0.961 . S
C2335 H2351 0.960 . S
H2336 C2320 0.931 . S
H2337 C2325 0.929 . S
H2338 C2326 0.960 . S
H2339 C2326 0.962 . S
H2340 C2326 0.960 . S
H2341 C2327 0.961 . S
H2342 C2327 0.961 . S
H2343 C2327 0.961 . S
H2344 C2328 0.931 . S
H2345 C2333 0.930 . S
H2346 C2334 0.956 . S
H2347 C2334 0.961 . S
H2348 C2334 0.961 . S
H2349 C2335 0.958 . S
H2350 C2335 0.961 . S
H2351 C2335 0.960 . S
C2352 C2353 1.391 . S
C2352 C2354 1.394 . S
C2352 H2368 0.931 . S
C2353 C2352 1.391 . S
C2353 C2357 1.376 . S
C2354 C2352 1.394 . S
C2354 C2355 1.369 . S
C2354 C2358 1.531 . S
C2355 C2354 1.369 . S
C2355 C2356 1.410 . S
C2355 C2363 1.503 . S
C2356 C2355 1.410 . S
C2356 C2357 1.392 . S
C2356 C2359 1.511 . S
C2357 C2353 1.376 . S
C2357 C2356 1.392 . S
C2357 H2369 0.929 . S
C2358 C2354 1.531 . S
C2358 H2370 0.960 . S
C2358 H2371 0.962 . S
C2358 H2372 0.960 . S
C2359 C2356 1.511 . S
C2359 H2373 0.961 . S
C2359 H2374 0.961 . S
C2359 H2375 0.961 . S
C2360 C2361 1.370 . S
C2360 C2362 1.363 . S
C2360 H2376 0.931 . S
C2361 C2360 1.370 . S
C2361 C2365 1.408 . S
C2362 C2360 1.363 . S
C2362 C2363 1.370 . S
C2362 C2366 1.524 . S
C2363 C2355 1.503 . S
C2363 C2362 1.370 . S
C2363 C2364 1.403 . S
C2364 C2363 1.403 . S
C2364 C2365 1.404 . S
C2364 C2367 1.539 . S
C2365 C2361 1.408 . S
C2365 C2364 1.404 . S
C2365 H2377 0.930 . S
C2366 C2362 1.524 . S
C2366 H2378 0.956 . S
C2366 H2379 0.961 . S
C2366 H2380 0.961 . S
C2367 C2364 1.539 . S
C2367 H2381 0.958 . S
C2367 H2382 0.961 . S
C2367 H2383 0.960 . S
H2368 C2352 0.931 . S
H2369 C2357 0.929 . S
H2370 C2358 0.960 . S
H2371 C2358 0.962 . S
H2372 C2358 0.960 . S
H2373 C2359 0.961 . S
H2374 C2359 0.961 . S
H2375 C2359 0.961 . S
H2376 C2360 0.931 . S
H2377 C2365 0.930 . S
H2378 C2366 0.956 . S
H2379 C2366 0.961 . S
H2380 C2366 0.961 . S
H2381 C2367 0.958 . S
H2382 C2367 0.961 . S
H2383 C2367 0.960 . S
C2384 C2385 1.391 1_455 S
C2384 C2386 1.394 . S
C2384 H2400 0.931 . S
C2385 C2384 1.391 1_655 S
C2385 C2389 1.376 . S
C2386 C2384 1.394 . S
C2386 C2387 1.369 1_455 S
C2386 C2390 1.531 . S
C2387 C2386 1.369 1_655 S
C2387 C2388 1.410 . S
C2387 C2395 1.503 . S
C2388 C2387 1.410 . S
C2388 C2389 1.392 . S
C2388 C2391 1.511 . S
C2389 C2385 1.376 . S
C2389 C2388 1.392 . S
C2389 H2401 0.929 . S
C2390 C2386 1.531 . S
C2390 H2402 0.960 . S
C2390 H2403 0.962 . S
C2390 H2404 0.960 . S
C2391 C2388 1.511 . S
C2391 H2405 0.961 . S
C2391 H2406 0.961 . S
C2391 H2407 0.961 . S
C2392 C2393 1.372 1_455 S
C2392 C2394 1.369 . S
C2392 H2408 0.931 . S
C2393 C2392 1.372 1_655 S
C2393 C2397 1.412 . S
C2394 C2392 1.369 . S
C2394 C2395 1.367 1_455 S
C2394 C2398 1.522 . S
C2395 C2387 1.503 . S
C2395 C2394 1.367 1_655 S
C2395 C2396 1.403 . S
C2396 C2395 1.403 . S
C2396 C2397 1.404 . S
C2396 C2399 1.539 . S
C2397 C2393 1.412 . S
C2397 C2396 1.404 . S
C2397 H2409 0.930 . S
C2398 C2394 1.522 . S
C2398 H2410 0.956 . S
C2398 H2411 0.961 1_455 S
C2398 H2412 0.961 . S
C2399 C2396 1.539 . S
C2399 H2413 0.958 1_655 S
C2399 H2414 0.961 . S
C2399 H2415 0.960 . S
H2400 C2384 0.931 . S
H2401 C2389 0.929 . S
H2402 C2390 0.960 . S
H2403 C2390 0.962 . S
H2404 C2390 0.960 . S
H2405 C2391 0.961 . S
H2406 C2391 0.961 . S
H2407 C2391 0.961 . S
H2408 C2392 0.931 . S
H2409 C2397 0.930 . S
H2410 C2398 0.956 . S
H2411 C2398 0.961 1_655 S
H2412 C2398 0.961 . S
H2413 C2399 0.958 1_455 S
H2414 C2399 0.961 . S
H2415 C2399 0.960 . S
C2416 C2417 1.391 . S
C2416 C2418 1.394 . S
C2416 H2432 0.931 . S
C2417 C2416 1.391 . S
C2417 C2421 1.376 . S
C2418 C2416 1.394 . S
C2418 C2419 1.369 . S
C2418 C2422 1.531 . S
C2419 C2418 1.369 . S
C2419 C2420 1.410 . S
C2419 C2427 1.503 . S
C2420 C2419 1.410 . S
C2420 C2421 1.392 . S
C2420 C2423 1.511 . S
C2421 C2417 1.376 . S
C2421 C2420 1.392 . S
C2421 H2433 0.929 . S
C2422 C2418 1.531 . S
C2422 H2434 0.960 . S
C2422 H2435 0.962 . S
C2422 H2436 0.960 . S
C2423 C2420 1.511 . S
C2423 H2437 0.961 . S
C2423 H2438 0.961 . S
C2423 H2439 0.961 . S
C2424 C2425 1.370 . S
C2424 C2426 1.363 . S
C2424 H2440 0.931 . S
C2425 C2424 1.370 . S
C2425 C2429 1.408 . S
C2426 C2424 1.363 . S
C2426 C2427 1.370 . S
C2426 C2430 1.524 . S
C2427 C2419 1.503 . S
C2427 C2426 1.370 . S
C2427 C2428 1.403 . S
C2428 C2427 1.403 . S
C2428 C2429 1.404 . S
C2428 C2431 1.539 . S
C2429 C2425 1.408 . S
C2429 C2428 1.404 . S
C2429 H2441 0.930 . S
C2430 C2426 1.524 . S
C2430 H2442 0.956 . S
C2430 H2443 0.961 . S
C2430 H2444 0.961 . S
C2431 C2428 1.539 . S
C2431 H2445 0.958 . S
C2431 H2446 0.961 . S
C2431 H2447 0.960 . S
H2432 C2416 0.931 . S
H2433 C2421 0.929 . S
H2434 C2422 0.960 . S
H2435 C2422 0.962 . S
H2436 C2422 0.960 . S
H2437 C2423 0.961 . S
H2438 C2423 0.961 . S
H2439 C2423 0.961 . S
H2440 C2424 0.931 . S
H2441 C2429 0.930 . S
H2442 C2430 0.956 . S
H2443 C2430 0.961 . S
H2444 C2430 0.961 . S
H2445 C2431 0.958 . S
H2446 C2431 0.961 . S
H2447 C2431 0.960 . S
C2448 C2449 1.391 . S
C2448 C2450 1.394 . S
C2448 H2464 0.931 . S
C2449 C2448 1.391 . S
C2449 C2453 1.376 . S
C2450 C2448 1.394 . S
C2450 C2451 1.369 . S
C2450 C2454 1.531 . S
C2451 C2450 1.369 . S
C2451 C2452 1.410 . S
C2451 C2459 1.503 . S
C2452 C2451 1.410 . S
C2452 C2453 1.392 . S
C2452 C2455 1.511 . S
C2453 C2449 1.376 . S
C2453 C2452 1.392 . S
C2453 H2465 0.929 . S
C2454 C2450 1.531 . S
C2454 H2466 0.960 . S
C2454 H2467 0.962 . S
C2454 H2468 0.960 . S
C2455 C2452 1.511 . S
C2455 H2469 0.961 . S
C2455 H2470 0.961 . S
C2455 H2471 0.961 . S
C2456 C2457 1.370 . S
C2456 C2458 1.363 . S
C2456 H2472 0.931 . S
C2457 C2456 1.370 . S
C2457 C2461 1.408 . S
C2458 C2456 1.363 . S
C2458 C2459 1.370 . S
C2458 C2462 1.524 . S
C2459 C2451 1.503 . S
C2459 C2458 1.370 . S
C2459 C2460 1.403 . S
C2460 C2459 1.403 . S
C2460 C2461 1.404 . S
C2460 C2463 1.539 . S
C2461 C2457 1.408 . S
C2461 C2460 1.404 . S
C2461 H2473 0.930 . S
C2462 C2458 1.524 . S
C2462 H2474 0.956 . S
C2462 H2475 0.961 . S
C2462 H2476 0.961 . S
C2463 C2460 1.539 . S
C2463 H2477 0.958 . S
C2463 H2478 0.961 . S
C2463 H2479 0.960 . S
H2464 C2448 0.931 . S
H2465 C2453 0.929 . S
H2466 C2454 0.960 . S
H2467 C2454 0.962 . S
H2468 C2454 0.960 . S
H2469 C2455 0.961 . S
H2470 C2455 0.961 . S
H2471 C2455 0.961 . S
H2472 C2456 0.931 . S
H2473 C2461 0.930 . S
H2474 C2462 0.956 . S
H2475 C2462 0.961 . S
H2476 C2462 0.961 . S
H2477 C2463 0.958 . S
H2478 C2463 0.961 . S
H2479 C2463 0.960 . S
C2480 C2481 1.391 . S
C2480 C2482 1.394 . S
C2480 H2496 0.931 . S
C2481 C2480 1.391 . S
C2481 C2485 1.376 . S
C2482 C2480 1.394 . S
C2482 C2483 1.369 . S
C2482 C2486 1.531 . S
C2483 C2482 1.369 . S
C2483 C2484 1.410 . S
C2483 C2491 1.503 . S
C2484 C2483 1.410 . S
C2484 C2485 1.392 . S
C2484 C2487 1.511 . S
C2485 C2481 1.376 . S
C2485 C2484 1.392 . S
C2485 H2497 0.929 . S
C2486 C2482 1.531 . S
C2486 H2498 0.960 . S
C2486 H2499 0.962 . S
C2486 H2500 0.960 . S
C2487 C2484 1.511 . S
C2487 H2501 0.961 . S
C2487 H2502 0.961 . S
C2487 H2503 0.961 . S
C2488 C2489 1.370 . S
C2488 C2490 1.363 . S
C2488 H2504 0.931 . S
C2489 C2488 1.370 . S
C2489 C2493 1.408 . S
C2490 C2488 1.363 . S
C2490 C2491 1.370 . S
C2490 C2494 1.524 . S
C2491 C2483 1.503 . S
C2491 C2490 1.370 . S
C2491 C2492 1.403 . S
C2492 C2491 1.403 . S
C2492 C2493 1.404 . S
C2492 C2495 1.539 . S
C2493 C2489 1.408 . S
C2493 C2492 1.404 . S
C2493 H2505 0.930 . S
C2494 C2490 1.524 . S
C2494 H2506 0.956 . S
C2494 H2507 0.961 . S
C2494 H2508 0.961 . S
C2495 C2492 1.539 . S
C2495 H2509 0.958 . S
C2495 H2510 0.961 . S
C2495 H2511 0.960 . S
H2496 C2480 0.931 . S
H2497 C2485 0.929 . S
H2498 C2486 0.960 . S
H2499 C2486 0.962 . S
H2500 C2486 0.960 . S
H2501 C2487 0.961 . S
H2502 C2487 0.961 . S
H2503 C2487 0.961 . S
H2504 C2488 0.931 . S
H2505 C2493 0.930 . S
H2506 C2494 0.956 . S
H2507 C2494 0.961 . S
H2508 C2494 0.961 . S
H2509 C2495 0.958 . S
H2510 C2495 0.961 . S
H2511 C2495 0.960 . S
C2512 C2513 1.391 . S
C2512 C2514 1.394 . S
C2512 H2528 0.931 . S
C2513 C2512 1.391 . S
C2513 C2517 1.376 . S
C2514 C2512 1.394 . S
C2514 C2515 1.369 . S
C2514 C2518 1.531 . S
C2515 C2514 1.369 . S
C2515 C2516 1.410 . S
C2515 C2523 1.503 . S
C2516 C2515 1.410 . S
C2516 C2517 1.392 . S
C2516 C2519 1.511 . S
C2517 C2513 1.376 . S
C2517 C2516 1.392 . S
C2517 H2529 0.929 . S
C2518 C2514 1.531 . S
C2518 H2530 0.960 . S
C2518 H2531 0.962 . S
C2518 H2532 0.960 . S
C2519 C2516 1.511 . S
C2519 H2533 0.961 . S
C2519 H2534 0.961 . S
C2519 H2535 0.961 . S
C2520 C2521 1.370 . S
C2520 C2522 1.363 . S
C2520 H2536 0.931 . S
C2521 C2520 1.370 . S
C2521 C2525 1.408 . S
C2522 C2520 1.363 . S
C2522 C2523 1.370 . S
C2522 C2526 1.524 . S
C2523 C2515 1.503 . S
C2523 C2522 1.370 . S
C2523 C2524 1.403 . S
C2524 C2523 1.403 . S
C2524 C2525 1.404 . S
C2524 C2527 1.539 . S
C2525 C2521 1.408 . S
C2525 C2524 1.404 . S
C2525 H2537 0.930 . S
C2526 C2522 1.524 . S
C2526 H2538 0.956 . S
C2526 H2539 0.961 . S
C2526 H2540 0.961 . S
C2527 C2524 1.539 . S
C2527 H2541 0.958 . S
C2527 H2542 0.961 . S
C2527 H2543 0.960 . S
H2528 C2512 0.931 . S
H2529 C2517 0.929 . S
H2530 C2518 0.960 . S
H2531 C2518 0.962 . S
H2532 C2518 0.960 . S
H2533 C2519 0.961 . S
H2534 C2519 0.961 . S
H2535 C2519 0.961 . S
H2536 C2520 0.931 . S
H2537 C2525 0.930 . S
H2538 C2526 0.956 . S
H2539 C2526 0.961 . S
H2540 C2526 0.961 . S
H2541 C2527 0.958 . S
H2542 C2527 0.961 . S
H2543 C2527 0.960 . S
C2544 C2545 1.391 . S
C2544 C2546 1.394 . S
C2544 H2560 0.931 . S
C2545 C2544 1.391 . S
C2545 C2549 1.376 . S
C2546 C2544 1.394 . S
C2546 C2547 1.369 . S
C2546 C2550 1.531 . S
C2547 C2546 1.369 . S
C2547 C2548 1.410 . S
C2547 C2555 1.503 . S
C2548 C2547 1.410 . S
C2548 C2549 1.392 . S
C2548 C2551 1.511 . S
C2549 C2545 1.376 . S
C2549 C2548 1.392 . S
C2549 H2561 0.929 . S
C2550 C2546 1.531 . S
C2550 H2562 0.960 . S
C2550 H2563 0.962 . S
C2550 H2564 0.960 . S
C2551 C2548 1.511 . S
C2551 H2565 0.961 . S
C2551 H2566 0.961 . S
C2551 H2567 0.961 . S
C2552 C2553 1.370 . S
C2552 C2554 1.363 . S
C2552 H2568 0.931 . S
C2553 C2552 1.370 . S
C2553 C2557 1.408 . S
C2554 C2552 1.363 . S
C2554 C2555 1.370 . S
C2554 C2558 1.524 . S
C2555 C2547 1.503 . S
C2555 C2554 1.370 . S
C2555 C2556 1.403 . S
C2556 C2555 1.403 . S
C2556 C2557 1.404 . S
C2556 C2559 1.539 . S
C2557 C2553 1.408 . S
C2557 C2556 1.404 . S
C2557 H2569 0.930 . S
C2558 C2554 1.524 . S
C2558 H2570 0.956 . S
C2558 H2571 0.961 . S
C2558 H2572 0.961 . S
C2559 C2556 1.539 . S
C2559 H2573 0.958 . S
C2559 H2574 0.961 . S
C2559 H2575 0.960 . S
H2560 C2544 0.931 . S
H2561 C2549 0.929 . S
H2562 C2550 0.960 . S
H2563 C2550 0.962 . S
H2564 C2550 0.960 . S
H2565 C2551 0.961 . S
H2566 C2551 0.961 . S
H2567 C2551 0.961 . S
H2568 C2552 0.931 . S
H2569 C2557 0.930 . S
H2570 C2558 0.956 . S
H2571 C2558 0.961 . S
H2572 C2558 0.961 . S
H2573 C2559 0.958 . S
H2574 C2559 0.961 . S
H2575 C2559 0.960 . S
C2576 C2577 1.391 . S
C2576 C2578 1.394 . S
C2576 H2592 0.931 . S
C2577 C2576 1.391 . S
C2577 C2581 1.376 . S
C2578 C2576 1.394 . S
C2578 C2579 1.369 . S
C2578 C2582 1.531 . S
C2579 C2578 1.369 . S
C2579 C2580 1.410 . S
C2579 C2587 1.503 . S
C2580 C2579 1.410 . S
C2580 C2581 1.392 . S
C2580 C2583 1.511 . S
C2581 C2577 1.376 . S
C2581 C2580 1.392 . S
C2581 H2593 0.929 . S
C2582 C2578 1.531 . S
C2582 H2594 0.960 . S
C2582 H2595 0.962 . S
C2582 H2596 0.960 . S
C2583 C2580 1.511 . S
C2583 H2597 0.961 . S
C2583 H2598 0.961 . S
C2583 H2599 0.961 . S
C2584 C2585 1.370 . S
C2584 C2586 1.363 . S
C2584 H2600 0.931 . S
C2585 C2584 1.370 . S
C2585 C2589 1.408 . S
C2586 C2584 1.363 . S
C2586 C2587 1.370 . S
C2586 C2590 1.524 . S
C2587 C2579 1.503 . S
C2587 C2586 1.370 . S
C2587 C2588 1.403 . S
C2588 C2587 1.403 . S
C2588 C2589 1.404 . S
C2588 C2591 1.539 . S
C2589 C2585 1.408 . S
C2589 C2588 1.404 . S
C2589 H2601 0.930 . S
C2590 C2586 1.524 . S
C2590 H2602 0.956 . S
C2590 H2603 0.961 . S
C2590 H2604 0.961 . S
C2591 C2588 1.539 . S
C2591 H2605 0.958 . S
C2591 H2606 0.961 . S
C2591 H2607 0.960 . S
H2592 C2576 0.931 . S
H2593 C2581 0.929 . S
H2594 C2582 0.960 . S
H2595 C2582 0.962 . S
H2596 C2582 0.960 . S
H2597 C2583 0.961 . S
H2598 C2583 0.961 . S
H2599 C2583 0.961 . S
H2600 C2584 0.931 . S
H2601 C2589 0.930 . S
H2602 C2590 0.956 . S
H2603 C2590 0.961 . S
H2604 C2590 0.961 . S
H2605 C2591 0.958 . S
H2606 C2591 0.961 . S
H2607 C2591 0.960 . S
C2608 C2609 1.391 . S
C2608 C2610 1.394 . S
C2608 H2624 0.931 . S
C2609 C2608 1.391 . S
C2609 C2613 1.376 . S
C2610 C2608 1.394 . S
C2610 C2611 1.369 . S
C2610 C2614 1.531 . S
C2611 C2610 1.369 . S
C2611 C2612 1.410 . S
C2611 C2619 1.503 . S
C2612 C2611 1.410 . S
C2612 C2613 1.392 . S
C2612 C2615 1.511 . S
C2613 C2609 1.376 . S
C2613 C2612 1.392 . S
C2613 H2625 0.929 . S
C2614 C2610 1.531 . S
C2614 H2626 0.960 . S
C2614 H2627 0.962 . S
C2614 H2628 0.960 . S
C2615 C2612 1.511 . S
C2615 H2629 0.961 . S
C2615 H2630 0.961 . S
C2615 H2631 0.961 . S
C2616 C2617 1.370 . S
C2616 C2618 1.363 . S
C2616 H2632 0.931 . S
C2617 C2616 1.370 . S
C2617 C2621 1.408 . S
C2618 C2616 1.363 . S
C2618 C2619 1.370 . S
C2618 C2622 1.524 . S
C2619 C2611 1.503 . S
C2619 C2618 1.370 . S
C2619 C2620 1.403 . S
C2620 C2619 1.403 . S
C2620 C2621 1.404 . S
C2620 C2623 1.539 . S
C2621 C2617 1.408 . S
C2621 C2620 1.404 . S
C2621 H2633 0.930 . S
C2622 C2618 1.524 . S
C2622 H2634 0.956 . S
C2622 H2635 0.961 . S
C2622 H2636 0.961 . S
C2623 C2620 1.539 . S
C2623 H2637 0.958 . S
C2623 H2638 0.961 . S
C2623 H2639 0.960 . S
H2624 C2608 0.931 . S
H2625 C2613 0.929 . S
H2626 C2614 0.960 . S
H2627 C2614 0.962 . S
H2628 C2614 0.960 . S
H2629 C2615 0.961 . S
H2630 C2615 0.961 . S
H2631 C2615 0.961 . S
H2632 C2616 0.931 . S
H2633 C2621 0.930 . S
H2634 C2622 0.956 . S
H2635 C2622 0.961 . S
H2636 C2622 0.961 . S
H2637 C2623 0.958 . S
H2638 C2623 0.961 . S
H2639 C2623 0.960 . S
C2640 C2641 1.391 . S
C2640 C2642 1.394 . S
C2640 H2656 0.931 . S
C2641 C2640 1.391 . S
C2641 C2645 1.376 . S
C2642 C2640 1.394 . S
C2642 C2643 1.369 . S
C2642 C2646 1.531 . S
C2643 C2642 1.369 . S
C2643 C2644 1.410 . S
C2643 C2651 1.503 . S
C2644 C2643 1.410 . S
C2644 C2645 1.392 . S
C2644 C2647 1.511 . S
C2645 C2641 1.376 . S
C2645 C2644 1.392 . S
C2645 H2657 0.929 . S
C2646 C2642 1.531 . S
C2646 H2658 0.960 . S
C2646 H2659 0.962 . S
C2646 H2660 0.960 . S
C2647 C2644 1.511 . S
C2647 H2661 0.961 . S
C2647 H2662 0.961 . S
C2647 H2663 0.961 . S
C2648 C2649 1.370 . S
C2648 C2650 1.363 . S
C2648 H2664 0.931 . S
C2649 C2648 1.370 . S
C2649 C2653 1.408 . S
C2650 C2648 1.363 . S
C2650 C2651 1.370 . S
C2650 C2654 1.524 . S
C2651 C2643 1.503 . S
C2651 C2650 1.370 . S
C2651 C2652 1.403 . S
C2652 C2651 1.403 . S
C2652 C2653 1.404 . S
C2652 C2655 1.539 . S
C2653 C2649 1.408 . S
C2653 C2652 1.404 . S
C2653 H2665 0.930 . S
C2654 C2650 1.524 . S
C2654 H2666 0.956 . S
C2654 H2667 0.961 . S
C2654 H2668 0.961 . S
C2655 C2652 1.539 . S
C2655 H2669 0.958 . S
C2655 H2670 0.961 . S
C2655 H2671 0.960 . S
H2656 C2640 0.931 . S
H2657 C2645 0.929 . S
H2658 C2646 0.960 . S
H2659 C2646 0.962 . S
H2660 C2646 0.960 . S
H2661 C2647 0.961 . S
H2662 C2647 0.961 . S
H2663 C2647 0.961 . S
H2664 C2648 0.931 . S
H2665 C2653 0.930 . S
H2666 C2654 0.956 . S
H2667 C2654 0.961 . S
H2668 C2654 0.961 . S
H2669 C2655 0.958 . S
H2670 C2655 0.961 . S
H2671 C2655 0.960 . S
C2672 C2673 1.391 . S
C2672 C2674 1.394 . S
C2672 H2688 0.931 . S
C2673 C2672 1.391 . S
C2673 C2677 1.376 . S
C2674 C2672 1.394 . S
C2674 C2675 1.369 . S
C2674 C2678 1.531 . S
C2675 C2674 1.369 . S
C2675 C2676 1.410 . S
C2675 C2683 1.503 . S
C2676 C2675 1.410 . S
C2676 C2677 1.392 . S
C2676 C2679 1.511 . S
C2677 C2673 1.376 . S
C2677 C2676 1.392 . S
C2677 H2689 0.929 . S
C2678 C2674 1.531 . S
C2678 H2690 0.960 . S
C2678 H2691 0.962 . S
C2678 H2692 0.960 . S
C2679 C2676 1.511 . S
C2679 H2693 0.961 . S
C2679 H2694 0.961 . S
C2679 H2695 0.961 . S
C2680 C2681 1.370 . S
C2680 C2682 1.363 . S
C2680 H2696 0.931 . S
C2681 C2680 1.370 . S
C2681 C2685 1.408 . S
C2682 C2680 1.363 . S
C2682 C2683 1.370 . S
C2682 C2686 1.524 . S
C2683 C2675 1.503 . S
C2683 C2682 1.370 . S
C2683 C2684 1.403 . S
C2684 C2683 1.403 . S
C2684 C2685 1.404 . S
C2684 C2687 1.539 . S
C2685 C2681 1.408 . S
C2685 C2684 1.404 . S
C2685 H2697 0.930 . S
C2686 C2682 1.524 . S
C2686 H2698 0.956 . S
C2686 H2699 0.961 . S
C2686 H2700 0.961 . S
C2687 C2684 1.539 . S
C2687 H2701 0.958 . S
C2687 H2702 0.961 . S
C2687 H2703 0.960 . S
H2688 C2672 0.931 . S
H2689 C2677 0.929 . S
H2690 C2678 0.960 . S
H2691 C2678 0.962 . S
H2692 C2678 0.960 . S
H2693 C2679 0.961 . S
H2694 C2679 0.961 . S
H2695 C2679 0.961 . S
H2696 C2680 0.931 . S
H2697 C2685 0.930 . S
H2698 C2686 0.956 . S
H2699 C2686 0.961 . S
H2700 C2686 0.961 . S
H2701 C2687 0.958 . S
H2702 C2687 0.961 . S
H2703 C2687 0.960 . S
C2704 C2705 1.391 . S
C2704 C2706 1.394 . S
C2704 H2720 0.931 . S
C2705 C2704 1.391 . S
C2705 C2709 1.376 . S
C2706 C2704 1.394 . S
C2706 C2707 1.369 . S
C2706 C2710 1.531 . S
C2707 C2706 1.369 . S
C2707 C2708 1.410 . S
C2707 C2715 1.503 . S
C2708 C2707 1.410 . S
C2708 C2709 1.392 . S
C2708 C2711 1.511 . S
C2709 C2705 1.376 . S
C2709 C2708 1.392 . S
C2709 H2721 0.929 . S
C2710 C2706 1.531 . S
C2710 H2722 0.960 . S
C2710 H2723 0.962 . S
C2710 H2724 0.960 . S
C2711 C2708 1.511 . S
C2711 H2725 0.961 . S
C2711 H2726 0.961 . S
C2711 H2727 0.961 . S
C2712 C2713 1.370 . S
C2712 C2714 1.363 . S
C2712 H2728 0.931 . S
C2713 C2712 1.370 . S
C2713 C2717 1.408 . S
C2714 C2712 1.363 . S
C2714 C2715 1.370 . S
C2714 C2718 1.524 . S
C2715 C2707 1.503 . S
C2715 C2714 1.370 . S
C2715 C2716 1.403 . S
C2716 C2715 1.403 . S
C2716 C2717 1.404 . S
C2716 C2719 1.539 . S
C2717 C2713 1.408 . S
C2717 C2716 1.404 . S
C2717 H2729 0.930 . S
C2718 C2714 1.524 . S
C2718 H2730 0.956 . S
C2718 H2731 0.961 . S
C2718 H2732 0.961 . S
C2719 C2716 1.539 . S
C2719 H2733 0.958 . S
C2719 H2734 0.961 . S
C2719 H2735 0.960 . S
H2720 C2704 0.931 . S
H2721 C2709 0.929 . S
H2722 C2710 0.960 . S
H2723 C2710 0.962 . S
H2724 C2710 0.960 . S
H2725 C2711 0.961 . S
H2726 C2711 0.961 . S
H2727 C2711 0.961 . S
H2728 C2712 0.931 . S
H2729 C2717 0.930 . S
H2730 C2718 0.956 . S
H2731 C2718 0.961 . S
H2732 C2718 0.961 . S
H2733 C2719 0.958 . S
H2734 C2719 0.961 . S
H2735 C2719 0.960 . S
C2736 C2737 1.391 . S
C2736 C2738 1.394 . S
C2736 H2752 0.931 . S
C2737 C2736 1.391 . S
C2737 C2741 1.376 . S
C2738 C2736 1.394 . S
C2738 C2739 1.369 . S
C2738 C2742 1.531 . S
C2739 C2738 1.369 . S
C2739 C2740 1.410 . S
C2739 C2747 1.503 . S
C2740 C2739 1.410 . S
C2740 C2741 1.392 . S
C2740 C2743 1.511 . S
C2741 C2737 1.376 . S
C2741 C2740 1.392 . S
C2741 H2753 0.929 . S
C2742 C2738 1.531 . S
C2742 H2754 0.960 . S
C2742 H2755 0.962 . S
C2742 H2756 0.960 . S
C2743 C2740 1.511 . S
C2743 H2757 0.961 . S
C2743 H2758 0.961 . S
C2743 H2759 0.961 . S
C2744 C2745 1.370 . S
C2744 C2746 1.363 . S
C2744 H2760 0.931 . S
C2745 C2744 1.370 . S
C2745 C2749 1.408 . S
C2746 C2744 1.363 . S
C2746 C2747 1.370 . S
C2746 C2750 1.524 . S
C2747 C2739 1.503 . S
C2747 C2746 1.370 . S
C2747 C2748 1.403 . S
C2748 C2747 1.403 . S
C2748 C2749 1.404 . S
C2748 C2751 1.539 . S
C2749 C2745 1.408 . S
C2749 C2748 1.404 . S
C2749 H2761 0.930 . S
C2750 C2746 1.524 . S
C2750 H2762 0.956 . S
C2750 H2763 0.961 . S
C2750 H2764 0.961 . S
C2751 C2748 1.539 . S
C2751 H2765 0.958 . S
C2751 H2766 0.961 . S
C2751 H2767 0.960 . S
H2752 C2736 0.931 . S
H2753 C2741 0.929 . S
H2754 C2742 0.960 . S
H2755 C2742 0.962 . S
H2756 C2742 0.960 . S
H2757 C2743 0.961 . S
H2758 C2743 0.961 . S
H2759 C2743 0.961 . S
H2760 C2744 0.931 . S
H2761 C2749 0.930 . S
H2762 C2750 0.956 . S
H2763 C2750 0.961 . S
H2764 C2750 0.961 . S
H2765 C2751 0.958 . S
H2766 C2751 0.961 . S
H2767 C2751 0.960 . S
C2768 C2769 1.391 . S
C2768 C2770 1.394 . S
C2768 H2784 0.931 . S
C2769 C2768 1.391 . S
C2769 C2773 1.376 . S
C2770 C2768 1.394 . S
C2770 C2771 1.369 . S
C2770 C2774 1.531 . S
C2771 C2770 1.369 . S
C2771 C2772 1.410 . S
C2771 C2779 1.503 . S
C2772 C2771 1.410 . S
C2772 C2773 1.392 . S
C2772 C2775 1.511 . S
C2773 C2769 1.376 . S
C2773 C2772 1.392 . S
C2773 H2785 0.929 . S
C2774 C2770 1.531 . S
C2774 H2786 0.960 . S
C2774 H2787 0.962 . S
C2774 H2788 0.960 . S
C2775 C2772 1.511 . S
C2775 H2789 0.961 . S
C2775 H2790 0.961 . S
C2775 H2791 0.961 . S
C2776 C2777 1.370 . S
C2776 C2778 1.363 . S
C2776 H2792 0.931 . S
C2777 C2776 1.370 . S
C2777 C2781 1.408 . S
C2778 C2776 1.363 . S
C2778 C2779 1.370 . S
C2778 C2782 1.524 . S
C2779 C2771 1.503 . S
C2779 C2778 1.370 . S
C2779 C2780 1.403 . S
C2780 C2779 1.403 . S
C2780 C2781 1.404 . S
C2780 C2783 1.539 . S
C2781 C2777 1.408 . S
C2781 C2780 1.404 . S
C2781 H2793 0.930 . S
C2782 C2778 1.524 . S
C2782 H2794 0.956 . S
C2782 H2795 0.961 . S
C2782 H2796 0.961 . S
C2783 C2780 1.539 . S
C2783 H2797 0.958 . S
C2783 H2798 0.961 . S
C2783 H2799 0.960 . S
H2784 C2768 0.931 . S
H2785 C2773 0.929 . S
H2786 C2774 0.960 . S
H2787 C2774 0.962 . S
H2788 C2774 0.960 . S
H2789 C2775 0.961 . S
H2790 C2775 0.961 . S
H2791 C2775 0.961 . S
H2792 C2776 0.931 . S
H2793 C2781 0.930 . S
H2794 C2782 0.956 . S
H2795 C2782 0.961 . S
H2796 C2782 0.961 . S
H2797 C2783 0.958 . S
H2798 C2783 0.961 . S
H2799 C2783 0.960 . S
C2800 C2801 1.391 . S
C2800 C2802 1.394 . S
C2800 H2816 0.931 . S
C2801 C2800 1.391 . S
C2801 C2805 1.376 . S
C2802 C2800 1.394 . S
C2802 C2803 1.369 . S
C2802 C2806 1.531 . S
C2803 C2802 1.369 . S
C2803 C2804 1.410 . S
C2803 C2811 1.503 . S
C2804 C2803 1.410 . S
C2804 C2805 1.392 . S
C2804 C2807 1.511 1_554 S
C2805 C2801 1.376 . S
C2805 C2804 1.392 . S
C2805 H2817 0.929 1_554 S
C2806 C2802 1.531 . S
C2806 H2818 0.960 . S
C2806 H2819 0.962 . S
C2806 H2820 0.960 . S
C2807 C2804 1.511 1_556 S
C2807 H2821 0.961 . S
C2807 H2822 0.961 . S
C2807 H2823 0.961 . S
C2808 C2809 1.370 1_545 S
C2808 C2810 1.363 1_545 S
C2808 H2824 0.931 . S
C2809 C2808 1.370 1_565 S
C2809 C2813 1.408 . S
C2810 C2808 1.363 1_565 S
C2810 C2811 1.370 . S
C2810 C2814 1.524 1_565 S
C2811 C2803 1.503 . S
C2811 C2810 1.370 . S
C2811 C2812 1.403 . S
C2812 C2811 1.403 . S
C2812 C2813 1.404 . S
C2812 C2815 1.539 . S
C2813 C2809 1.408 . S
C2813 C2812 1.404 . S
C2813 H2825 0.930 . S
C2814 C2810 1.524 1_545 S
C2814 H2826 0.956 . S
C2814 H2827 0.961 1_545 S
C2814 H2828 0.961 . S
C2815 C2812 1.539 . S
C2815 H2829 0.958 . S
C2815 H2830 0.961 . S
C2815 H2831 0.960 . S
H2816 C2800 0.931 . S
H2817 C2805 0.929 1_556 S
H2818 C2806 0.960 . S
H2819 C2806 0.962 . S
H2820 C2806 0.960 . S
H2821 C2807 0.961 . S
H2822 C2807 0.961 . S
H2823 C2807 0.961 . S
H2824 C2808 0.931 . S
H2825 C2813 0.930 . S
H2826 C2814 0.956 . S
H2827 C2814 0.961 1_565 S
H2828 C2814 0.961 . S
H2829 C2815 0.958 . S
H2830 C2815 0.961 . S
H2831 C2815 0.960 . S
C2832 C2833 1.391 . S
C2832 C2834 1.394 . S
C2832 H2848 0.931 . S
C2833 C2832 1.391 . S
C2833 C2837 1.376 . S
C2834 C2832 1.394 . S
C2834 C2835 1.369 . S
C2834 C2838 1.531 . S
C2835 C2834 1.369 . S
C2835 C2836 1.410 . S
C2835 C2843 1.503 . S
C2836 C2835 1.410 . S
C2836 C2837 1.392 . S
C2836 C2839 1.511 . S
C2837 C2833 1.376 . S
C2837 C2836 1.392 . S
C2837 H2849 0.929 . S
C2838 C2834 1.531 . S
C2838 H2850 0.960 . S
C2838 H2851 0.962 . S
C2838 H2852 0.960 . S
C2839 C2836 1.511 . S
C2839 H2853 0.961 . S
C2839 H2854 0.961 . S
C2839 H2855 0.961 . S
C2840 C2841 1.370 . S
C2840 C2842 1.363 . S
C2840 H2856 0.931 . S
C2841 C2840 1.370 . S
C2841 C2845 1.408 . S
C2842 C2840 1.363 . S
C2842 C2843 1.370 . S
C2842 C2846 1.524 . S
C2843 C2835 1.503 . S
C2843 C2842 1.370 . S
C2843 C2844 1.403 . S
C2844 C2843 1.403 . S
C2844 C2845 1.404 . S
C2844 C2847 1.539 . S
C2845 C2841 1.408 . S
C2845 C2844 1.404 . S
C2845 H2857 0.930 . S
C2846 C2842 1.524 . S
C2846 H2858 0.956 . S
C2846 H2859 0.961 . S
C2846 H2860 0.961 . S
C2847 C2844 1.539 . S
C2847 H2861 0.958 . S
C2847 H2862 0.961 . S
C2847 H2863 0.960 . S
H2848 C2832 0.931 . S
H2849 C2837 0.929 . S
H2850 C2838 0.960 . S
H2851 C2838 0.962 . S
H2852 C2838 0.960 . S
H2853 C2839 0.961 . S
H2854 C2839 0.961 . S
H2855 C2839 0.961 . S
H2856 C2840 0.931 . S
H2857 C2845 0.930 . S
H2858 C2846 0.956 . S
H2859 C2846 0.961 . S
H2860 C2846 0.961 . S
H2861 C2847 0.958 . S
H2862 C2847 0.961 . S
H2863 C2847 0.960 . S
C2864 C2865 1.391 . S
C2864 C2866 1.394 . S
C2864 H2880 0.931 . S
C2865 C2864 1.391 . S
C2865 C2869 1.376 . S
C2866 C2864 1.394 . S
C2866 C2867 1.369 . S
C2866 C2870 1.531 . S
C2867 C2866 1.369 . S
C2867 C2868 1.410 . S
C2867 C2875 1.503 . S
C2868 C2867 1.410 . S
C2868 C2869 1.392 . S
C2868 C2871 1.511 . S
C2869 C2865 1.376 . S
C2869 C2868 1.392 . S
C2869 H2881 0.921 1_554 S
C2870 C2866 1.531 . S
C2870 H2882 0.960 . S
C2870 H2883 0.962 . S
C2870 H2884 0.960 . S
C2871 C2868 1.511 . S
C2871 H2885 0.961 1_554 S
C2871 H2886 0.961 . S
C2871 H2887 0.961 1_554 S
C2872 C2873 1.370 . S
C2872 C2874 1.363 . S
C2872 H2888 0.931 . S
C2873 C2872 1.370 . S
C2873 C2877 1.408 . S
C2874 C2872 1.363 . S
C2874 C2875 1.370 . S
C2874 C2878 1.524 . S
C2875 C2867 1.503 . S
C2875 C2874 1.370 . S
C2875 C2876 1.403 . S
C2876 C2875 1.403 . S
C2876 C2877 1.404 . S
C2876 C2879 1.539 . S
C2877 C2873 1.408 . S
C2877 C2876 1.404 . S
C2877 H2889 0.930 . S
C2878 C2874 1.524 . S
C2878 H2890 0.956 . S
C2878 H2891 0.961 . S
C2878 H2892 0.961 . S
C2879 C2876 1.539 . S
C2879 H2893 0.958 . S
C2879 H2894 0.961 1_554 S
C2879 H2895 0.960 1_554 S
H2880 C2864 0.931 . S
H2881 C2869 0.921 1_556 S
H2882 C2870 0.960 . S
H2883 C2870 0.962 . S
H2884 C2870 0.960 . S
H2885 C2871 0.961 1_556 S
H2886 C2871 0.961 . S
H2887 C2871 0.961 1_556 S
H2888 C2872 0.931 . S
H2889 C2877 0.930 . S
H2890 C2878 0.956 . S
H2891 C2878 0.961 . S
H2892 C2878 0.961 . S
H2893 C2879 0.958 . S
H2894 C2879 0.961 1_556 S
H2895 C2879 0.960 1_556 S
C2896 C2897 1.391 . S
C2896 C2898 1.394 . S
C2896 H2912 0.931 . S
C2897 C2896 1.391 . S
C2897 C2901 1.376 . S
C2898 C2896 1.394 . S
C2898 C2899 1.369 . S
C2898 C2902 1.531 . S
C2899 C2898 1.369 . S
C2899 C2900 1.410 . S
C2899 C2907 1.503 . S
C2900 C2899 1.410 . S
C2900 C2901 1.392 . S
C2900 C2903 1.511 . S
C2901 C2897 1.376 . S
C2901 C2900 1.392 . S
C2901 H2913 0.929 . S
C2902 C2898 1.531 . S
C2902 H2914 0.960 . S
C2902 H2915 0.962 . S
C2902 H2916 0.960 . S
C2903 C2900 1.511 . S
C2903 H2917 0.961 . S
C2903 H2918 0.961 . S
C2903 H2919 0.961 . S
C2904 C2905 1.370 . S
C2904 C2906 1.363 . S
C2904 H2920 0.931 . S
C2905 C2904 1.370 . S
C2905 C2909 1.408 . S
C2906 C2904 1.363 . S
C2906 C2907 1.370 . S
C2906 C2910 1.524 . S
C2907 C2899 1.503 . S
C2907 C2906 1.370 . S
C2907 C2908 1.403 . S
C2908 C2907 1.403 . S
C2908 C2909 1.404 . S
C2908 C2911 1.539 . S
C2909 C2905 1.408 . S
C2909 C2908 1.404 . S
C2909 H2921 0.930 . S
C2910 C2906 1.524 . S
C2910 H2922 0.956 . S
C2910 H2923 0.961 . S
C2910 H2924 0.961 . S
C2911 C2908 1.539 . S
C2911 H2925 0.958 . S
C2911 H2926 0.961 . S
C2911 H2927 0.960 . S
H2912 C2896 0.931 . S
H2913 C2901 0.929 . S
H2914 C2902 0.960 . S
H2915 C2902 0.962 . S
H2916 C2902 0.960 . S
H2917 C2903 0.961 . S
H2918 C2903 0.961 . S
H2919 C2903 0.961 . S
H2920 C2904 0.931 . S
H2921 C2909 0.930 . S
H2922 C2910 0.956 . S
H2923 C2910 0.961 . S
H2924 C2910 0.961 . S
H2925 C2911 0.958 . S
H2926 C2911 0.961 . S
H2927 C2911 0.960 . S
C2928 C2929 1.391 . S
C2928 C2930 1.394 . S
C2928 H2944 0.931 . S
C2929 C2928 1.391 . S
C2929 C2933 1.376 . S
C2930 C2928 1.394 . S
C2930 C2931 1.369 . S
C2930 C2934 1.531 . S
C2931 C2930 1.369 . S
C2931 C2932 1.410 . S
C2931 C2939 1.503 . S
C2932 C2931 1.410 . S
C2932 C2933 1.392 . S
C2932 C2935 1.511 . S
C2933 C2929 1.376 . S
C2933 C2932 1.392 . S
C2933 H2945 0.929 . S
C2934 C2930 1.531 . S
C2934 H2946 0.960 . S
C2934 H2947 0.962 . S
C2934 H2948 0.960 . S
C2935 C2932 1.511 . S
C2935 H2949 0.961 . S
C2935 H2950 0.961 . S
C2935 H2951 0.961 . S
C2936 C2937 1.370 . S
C2936 C2938 1.363 . S
C2936 H2952 0.931 . S
C2937 C2936 1.370 . S
C2937 C2941 1.408 . S
C2938 C2936 1.363 . S
C2938 C2939 1.370 . S
C2938 C2942 1.524 . S
C2939 C2931 1.503 . S
C2939 C2938 1.370 . S
C2939 C2940 1.403 . S
C2940 C2939 1.403 . S
C2940 C2941 1.404 . S
C2940 C2943 1.539 . S
C2941 C2937 1.408 . S
C2941 C2940 1.404 . S
C2941 H2953 0.930 . S
C2942 C2938 1.524 . S
C2942 H2954 0.956 . S
C2942 H2955 0.961 . S
C2942 H2956 0.961 . S
C2943 C2940 1.539 . S
C2943 H2957 0.958 . S
C2943 H2958 0.961 . S
C2943 H2959 0.960 . S
H2944 C2928 0.931 . S
H2945 C2933 0.929 . S
H2946 C2934 0.960 . S
H2947 C2934 0.962 . S
H2948 C2934 0.960 . S
H2949 C2935 0.961 . S
H2950 C2935 0.961 . S
H2951 C2935 0.961 . S
H2952 C2936 0.931 . S
H2953 C2941 0.930 . S
H2954 C2942 0.956 . S
H2955 C2942 0.961 . S
H2956 C2942 0.961 . S
H2957 C2943 0.958 . S
H2958 C2943 0.961 . S
H2959 C2943 0.960 . S
C2960 C2961 1.391 . S
C2960 C2962 1.394 . S
C2960 H2976 0.931 . S
C2961 C2960 1.391 . S
C2961 C2965 1.376 . S
C2962 C2960 1.394 . S
C2962 C2963 1.369 . S
C2962 C2966 1.531 . S
C2963 C2962 1.369 . S
C2963 C2964 1.410 . S
C2963 C2971 1.503 . S
C2964 C2963 1.410 . S
C2964 C2965 1.392 . S
C2964 C2967 1.511 . S
C2965 C2961 1.376 . S
C2965 C2964 1.392 . S
C2965 H2977 0.929 . S
C2966 C2962 1.531 . S
C2966 H2978 0.960 . S
C2966 H2979 0.962 . S
C2966 H2980 0.960 . S
C2967 C2964 1.511 . S
C2967 H2981 0.961 . S
C2967 H2982 0.961 . S
C2967 H2983 0.961 . S
C2968 C2969 1.370 . S
C2968 C2970 1.363 . S
C2968 H2984 0.931 . S
C2969 C2968 1.370 . S
C2969 C2973 1.408 . S
C2970 C2968 1.363 . S
C2970 C2971 1.370 . S
C2970 C2974 1.524 . S
C2971 C2963 1.503 . S
C2971 C2970 1.370 . S
C2971 C2972 1.403 . S
C2972 C2971 1.403 . S
C2972 C2973 1.404 . S
C2972 C2975 1.539 . S
C2973 C2969 1.408 . S
C2973 C2972 1.404 . S
C2973 H2985 0.930 . S
C2974 C2970 1.524 . S
C2974 H2986 0.956 . S
C2974 H2987 0.961 . S
C2974 H2988 0.961 . S
C2975 C2972 1.539 . S
C2975 H2989 0.958 . S
C2975 H2990 0.961 . S
C2975 H2991 0.960 . S
H2976 C2960 0.931 . S
H2977 C2965 0.929 . S
H2978 C2966 0.960 . S
H2979 C2966 0.962 . S
H2980 C2966 0.960 . S
H2981 C2967 0.961 . S
H2982 C2967 0.961 . S
H2983 C2967 0.961 . S
H2984 C2968 0.931 . S
H2985 C2973 0.930 . S
H2986 C2974 0.956 . S
H2987 C2974 0.961 . S
H2988 C2974 0.961 . S
H2989 C2975 0.958 . S
H2990 C2975 0.961 . S
H2991 C2975 0.960 . S
C2992 C2993 1.391 . S
C2992 C2994 1.394 . S
C2992 H3008 0.931 . S
C2993 C2992 1.391 . S
C2993 C2997 1.376 . S
C2994 C2992 1.394 . S
C2994 C2995 1.369 . S
C2994 C2998 1.531 . S
C2995 C2994 1.369 . S
C2995 C2996 1.410 . S
C2995 C3003 1.503 . S
C2996 C2995 1.410 . S
C2996 C2997 1.392 . S
C2996 C2999 1.511 . S
C2997 C2993 1.376 . S
C2997 C2996 1.392 . S
C2997 H3009 0.929 . S
C2998 C2994 1.531 . S
C2998 H3010 0.960 . S
C2998 H3011 0.962 . S
C2998 H3012 0.960 . S
C2999 C2996 1.511 . S
C2999 H3013 0.961 . S
C2999 H3014 0.961 . S
C2999 H3015 0.961 . S
C3000 C3001 1.370 . S
C3000 C3002 1.363 . S
C3000 H3016 0.931 . S
C3001 C3000 1.370 . S
C3001 C3005 1.408 . S
C3002 C3000 1.363 . S
C3002 C3003 1.370 . S
C3002 C3006 1.524 . S
C3003 C2995 1.503 . S
C3003 C3002 1.370 . S
C3003 C3004 1.403 . S
C3004 C3003 1.403 . S
C3004 C3005 1.404 . S
C3004 C3007 1.539 . S
C3005 C3001 1.408 . S
C3005 C3004 1.404 . S
C3005 H3017 0.930 . S
C3006 C3002 1.524 . S
C3006 H3018 0.956 . S
C3006 H3019 0.961 . S
C3006 H3020 0.961 . S
C3007 C3004 1.539 . S
C3007 H3021 0.958 . S
C3007 H3022 0.961 . S
C3007 H3023 0.960 . S
H3008 C2992 0.931 . S
H3009 C2997 0.929 . S
H3010 C2998 0.960 . S
H3011 C2998 0.962 . S
H3012 C2998 0.960 . S
H3013 C2999 0.961 . S
H3014 C2999 0.961 . S
H3015 C2999 0.961 . S
H3016 C3000 0.931 . S
H3017 C3005 0.930 . S
H3018 C3006 0.956 . S
H3019 C3006 0.961 . S
H3020 C3006 0.961 . S
H3021 C3007 0.958 . S
H3022 C3007 0.961 . S
H3023 C3007 0.960 . S
C3024 C3025 1.391 . S
C3024 C3026 1.394 . S
C3024 H3040 0.933 1_455 S
C3025 C3024 1.391 . S
C3025 C3029 1.376 . S
C3026 C3024 1.394 . S
C3026 C3027 1.369 . S
C3026 C3030 1.531 . S
C3027 C3026 1.369 . S
C3027 C3028 1.410 . S
C3027 C3035 1.503 . S
C3028 C3027 1.410 . S
C3028 C3029 1.392 . S
C3028 C3031 1.511 . S
C3029 C3025 1.376 . S
C3029 C3028 1.392 . S
C3029 H3041 0.929 . S
C3030 C3026 1.531 . S
C3030 H3042 0.960 . S
C3030 H3043 0.962 1_455 S
C3030 H3044 0.960 . S
C3031 C3028 1.511 . S
C3031 H3045 0.961 . S
C3031 H3046 0.961 . S
C3031 H3047 0.961 . S
C3032 C3033 1.370 1_655 S
C3032 C3034 1.363 . S
C3032 H3048 0.931 . S
C3033 C3032 1.370 1_455 S
C3033 C3037 1.408 . S
C3034 C3032 1.363 . S
C3034 C3035 1.370 1_655 S
C3034 C3038 1.524 . S
C3035 C3027 1.503 . S
C3035 C3034 1.370 1_455 S
C3035 C3036 1.403 . S
C3036 C3035 1.403 . S
C3036 C3037 1.404 . S
C3036 C3039 1.539 . S
C3037 C3033 1.408 . S
C3037 C3036 1.404 . S
C3037 H3049 0.930 . S
C3038 C3034 1.524 . S
C3038 H3050 0.956 . S
C3038 H3051 0.961 . S
C3038 H3052 0.961 . S
C3039 C3036 1.539 . S
C3039 H3053 0.958 . S
C3039 H3054 0.961 . S
C3039 H3055 0.960 . S
H3040 C3024 0.933 1_655 S
H3041 C3029 0.929 . S
H3042 C3030 0.960 . S
H3043 C3030 0.962 1_655 S
H3044 C3030 0.960 . S
H3045 C3031 0.961 . S
H3046 C3031 0.961 . S
H3047 C3031 0.961 . S
H3048 C3032 0.931 . S
H3049 C3037 0.930 . S
H3050 C3038 0.956 . S
H3051 C3038 0.961 . S
H3052 C3038 0.961 . S
H3053 C3039 0.958 . S
H3054 C3039 0.961 . S
H3055 C3039 0.960 . S
C3056 C3057 1.391 . S
C3056 C3058 1.394 . S
C3056 H3072 0.931 . S
C3057 C3056 1.391 . S
C3057 C3061 1.376 . S
C3058 C3056 1.394 . S
C3058 C3059 1.369 . S
C3058 C3062 1.531 . S
C3059 C3058 1.369 . S
C3059 C3060 1.410 . S
C3059 C3067 1.503 . S
C3060 C3059 1.410 . S
C3060 C3061 1.392 . S
C3060 C3063 1.511 . S
C3061 C3057 1.376 . S
C3061 C3060 1.392 . S
C3061 H3073 0.929 . S
C3062 C3058 1.531 . S
C3062 H3074 0.960 . S
C3062 H3075 0.962 . S
C3062 H3076 0.960 . S
C3063 C3060 1.511 . S
C3063 H3077 0.961 . S
C3063 H3078 0.961 . S
C3063 H3079 0.961 . S
C3064 C3065 1.370 . S
C3064 C3066 1.363 . S
C3064 H3080 0.931 . S
C3065 C3064 1.370 . S
C3065 C3069 1.408 . S
C3066 C3064 1.363 . S
C3066 C3067 1.370 . S
C3066 C3070 1.524 . S
C3067 C3059 1.503 . S
C3067 C3066 1.370 . S
C3067 C3068 1.403 . S
C3068 C3067 1.403 . S
C3068 C3069 1.404 . S
C3068 C3071 1.539 . S
C3069 C3065 1.408 . S
C3069 C3068 1.404 . S
C3069 H3081 0.930 . S
C3070 C3066 1.524 . S
C3070 H3082 0.956 . S
C3070 H3083 0.961 . S
C3070 H3084 0.961 . S
C3071 C3068 1.539 . S
C3071 H3085 0.958 . S
C3071 H3086 0.961 . S
C3071 H3087 0.960 . S
H3072 C3056 0.931 . S
H3073 C3061 0.929 . S
H3074 C3062 0.960 . S
H3075 C3062 0.962 . S
H3076 C3062 0.960 . S
H3077 C3063 0.961 . S
H3078 C3063 0.961 . S
H3079 C3063 0.961 . S
H3080 C3064 0.931 . S
H3081 C3069 0.930 . S
H3082 C3070 0.956 . S
H3083 C3070 0.961 . S
H3084 C3070 0.961 . S
H3085 C3071 0.958 . S
H3086 C3071 0.961 . S
H3087 C3071 0.960 . S
C3088 C3089 1.391 . S
C3088 C3090 1.394 . S
C3088 H3104 0.931 . S
C3089 C3088 1.391 . S
C3089 C3093 1.376 . S
C3090 C3088 1.394 . S
C3090 C3091 1.369 . S
C3090 C3094 1.531 . S
C3091 C3090 1.369 . S
C3091 C3092 1.410 . S
C3091 C3099 1.503 . S
C3092 C3091 1.410 . S
C3092 C3093 1.392 . S
C3092 C3095 1.511 . S
C3093 C3089 1.376 . S
C3093 C3092 1.392 . S
C3093 H3105 0.929 . S
C3094 C3090 1.531 . S
C3094 H3106 0.960 . S
C3094 H3107 0.962 . S
C3094 H3108 0.960 . S
C3095 C3092 1.511 . S
C3095 H3109 0.961 . S
C3095 H3110 0.961 . S
C3095 H3111 0.961 1_556 S
C3096 C3097 1.370 . S
C3096 C3098 1.363 . S
C3096 H3112 0.931 . S
C3097 C3096 1.370 . S
C3097 C3101 1.408 . S
C3098 C3096 1.363 . S
C3098 C3099 1.370 . S
C3098 C3102 1.524 . S
C3099 C3091 1.503 . S
C3099 C3098 1.370 . S
C3099 C3100 1.403 . S
C3100 C3099 1.403 . S
C3100 C3101 1.404 . S
C3100 C3103 1.539 . S
C3101 C3097 1.408 . S
C3101 C3100 1.404 . S
C3101 H3113 0.930 1_556 S
C3102 C3098 1.524 . S
C3102 H3114 0.956 . S
C3102 H3115 0.961 . S
C3102 H3116 0.961 . S
C3103 C3100 1.539 . S
C3103 H3117 0.958 . S
C3103 H3118 0.961 1_556 S
C3103 H3119 0.960 . S
H3104 C3088 0.931 . S
H3105 C3093 0.929 . S
H3106 C3094 0.960 . S
H3107 C3094 0.962 . S
H3108 C3094 0.960 . S
H3109 C3095 0.961 . S
H3110 C3095 0.961 . S
H3111 C3095 0.961 1_554 S
H3112 C3096 0.931 . S
H3113 C3101 0.930 1_554 S
H3114 C3102 0.956 . S
H3115 C3102 0.961 . S
H3116 C3102 0.961 . S
H3117 C3103 0.958 . S
H3118 C3103 0.961 1_554 S
H3119 C3103 0.960 . S
C3120 C3121 1.391 . S
C3120 C3122 1.394 . S
C3120 H3136 0.931 . S
C3121 C3120 1.391 . S
C3121 C3125 1.376 . S
C3122 C3120 1.394 . S
C3122 C3123 1.369 . S
C3122 C3126 1.531 . S
C3123 C3122 1.369 . S
C3123 C3124 1.410 . S
C3123 C3131 1.503 . S
C3124 C3123 1.410 . S
C3124 C3125 1.392 . S
C3124 C3127 1.511 . S
C3125 C3121 1.376 . S
C3125 C3124 1.392 . S
C3125 H3137 0.929 . S
C3126 C3122 1.531 . S
C3126 H3138 0.960 . S
C3126 H3139 0.962 . S
C3126 H3140 0.960 . S
C3127 C3124 1.511 . S
C3127 H3141 0.961 . S
C3127 H3142 0.961 . S
C3127 H3143 0.961 . S
C3128 C3129 1.370 . S
C3128 C3130 1.363 . S
C3128 H3144 0.931 . S
C3129 C3128 1.370 . S
C3129 C3133 1.408 . S
C3130 C3128 1.363 . S
C3130 C3131 1.370 . S
C3130 C3134 1.524 . S
C3131 C3123 1.503 . S
C3131 C3130 1.370 . S
C3131 C3132 1.403 . S
C3132 C3131 1.403 . S
C3132 C3133 1.404 . S
C3132 C3135 1.539 . S
C3133 C3129 1.408 . S
C3133 C3132 1.404 . S
C3133 H3145 0.930 . S
C3134 C3130 1.524 . S
C3134 H3146 0.956 . S
C3134 H3147 0.961 . S
C3134 H3148 0.961 . S
C3135 C3132 1.539 . S
C3135 H3149 0.958 . S
C3135 H3150 0.961 . S
C3135 H3151 0.960 . S
H3136 C3120 0.931 . S
H3137 C3125 0.929 . S
H3138 C3126 0.960 . S
H3139 C3126 0.962 . S
H3140 C3126 0.960 . S
H3141 C3127 0.961 . S
H3142 C3127 0.961 . S
H3143 C3127 0.961 . S
H3144 C3128 0.931 . S
H3145 C3133 0.930 . S
H3146 C3134 0.956 . S
H3147 C3134 0.961 . S
H3148 C3134 0.961 . S
H3149 C3135 0.958 . S
H3150 C3135 0.961 . S
H3151 C3135 0.960 . S
C3152 C3153 1.391 . S
C3152 C3154 1.394 . S
C3152 H3168 0.931 . S
C3153 C3152 1.391 . S
C3153 C3157 1.376 . S
C3154 C3152 1.394 . S
C3154 C3155 1.369 . S
C3154 C3158 1.531 . S
C3155 C3154 1.369 . S
C3155 C3156 1.410 . S
C3155 C3163 1.503 . S
C3156 C3155 1.410 . S
C3156 C3157 1.392 . S
C3156 C3159 1.511 1_455 S
C3157 C3153 1.376 . S
C3157 C3156 1.392 . S
C3157 H3169 0.929 . S
C3158 C3154 1.531 . S
C3158 H3170 0.960 . S
C3158 H3171 0.962 . S
C3158 H3172 0.960 . S
C3159 C3156 1.511 1_655 S
C3159 H3173 0.961 1_655 S
C3159 H3174 0.961 1_655 S
C3159 H3175 0.961 . S
C3160 C3161 1.370 . S
C3160 C3162 1.363 . S
C3160 H3176 0.931 . S
C3161 C3160 1.370 . S
C3161 C3165 1.408 1_455 S
C3162 C3160 1.363 . S
C3162 C3163 1.370 . S
C3162 C3166 1.524 . S
C3163 C3155 1.503 . S
C3163 C3162 1.370 . S
C3163 C3164 1.403 1_455 S
C3164 C3163 1.403 1_655 S
C3164 C3165 1.404 . S
C3164 C3167 1.539 . S
C3165 C3161 1.408 1_655 S
C3165 C3164 1.404 . S
C3165 H3177 0.930 . S
C3166 C3162 1.524 . S
C3166 H3178 0.956 . S
C3166 H3179 0.961 . S
C3166 H3180 0.961 . S
C3167 C3164 1.539 . S
C3167 H3181 0.958 . S
C3167 H3182 0.961 . S
C3167 H3183 0.960 . S
H3168 C3152 0.931 . S
H3169 C3157 0.929 . S
H3170 C3158 0.960 . S
H3171 C3158 0.962 . S
H3172 C3158 0.960 . S
H3173 C3159 0.961 1_455 S
H3174 C3159 0.961 1_455 S
H3175 C3159 0.961 . S
H3176 C3160 0.931 . S
H3177 C3165 0.930 . S
H3178 C3166 0.956 . S
H3179 C3166 0.961 . S
H3180 C3166 0.961 . S
H3181 C3167 0.958 . S
H3182 C3167 0.961 . S
H3183 C3167 0.960 . S
C3184 C3185 1.391 . S
C3184 C3186 1.394 . S
C3184 H3200 0.931 . S
C3185 C3184 1.391 . S
C3185 C3189 1.376 . S
C3186 C3184 1.394 . S
C3186 C3187 1.369 . S
C3186 C3190 1.531 . S
C3187 C3186 1.369 . S
C3187 C3188 1.410 . S
C3187 C3195 1.503 . S
C3188 C3187 1.410 . S
C3188 C3189 1.392 . S
C3188 C3191 1.511 . S
C3189 C3185 1.376 . S
C3189 C3188 1.392 . S
C3189 H3201 0.929 . S
C3190 C3186 1.531 . S
C3190 H3202 0.960 . S
C3190 H3203 0.962 . S
C3190 H3204 0.960 . S
C3191 C3188 1.511 . S
C3191 H3205 0.961 . S
C3191 H3206 0.961 . S
C3191 H3207 0.961 . S
C3192 C3193 1.370 . S
C3192 C3194 1.363 . S
C3192 H3208 0.931 . S
C3193 C3192 1.370 . S
C3193 C3197 1.408 . S
C3194 C3192 1.363 . S
C3194 C3195 1.370 . S
C3194 C3198 1.524 . S
C3195 C3187 1.503 . S
C3195 C3194 1.370 . S
C3195 C3196 1.403 . S
C3196 C3195 1.403 . S
C3196 C3197 1.404 . S
C3196 C3199 1.539 . S
C3197 C3193 1.408 . S
C3197 C3196 1.404 . S
C3197 H3209 0.930 . S
C3198 C3194 1.524 . S
C3198 H3210 0.956 . S
C3198 H3211 0.961 . S
C3198 H3212 0.961 . S
C3199 C3196 1.539 . S
C3199 H3213 0.958 . S
C3199 H3214 0.961 . S
C3199 H3215 0.960 . S
H3200 C3184 0.931 . S
H3201 C3189 0.929 . S
H3202 C3190 0.960 . S
H3203 C3190 0.962 . S
H3204 C3190 0.960 . S
H3205 C3191 0.961 . S
H3206 C3191 0.961 . S
H3207 C3191 0.961 . S
H3208 C3192 0.931 . S
H3209 C3197 0.930 . S
H3210 C3198 0.956 . S
H3211 C3198 0.961 . S
H3212 C3198 0.961 . S
H3213 C3199 0.958 . S
H3214 C3199 0.961 . S
H3215 C3199 0.960 . S
C3216 C3217 1.391 . S
C3216 C3218 1.394 . S
C3216 H3232 0.931 . S
C3217 C3216 1.391 . S
C3217 C3221 1.376 . S
C3218 C3216 1.394 . S
C3218 C3219 1.369 . S
C3218 C3222 1.531 . S
C3219 C3218 1.369 . S
C3219 C3220 1.410 . S
C3219 C3227 1.503 . S
C3220 C3219 1.410 . S
C3220 C3221 1.392 . S
C3220 C3223 1.511 . S
C3221 C3217 1.376 . S
C3221 C3220 1.392 . S
C3221 H3233 0.929 . S
C3222 C3218 1.531 . S
C3222 H3234 0.960 . S
C3222 H3235 0.962 . S
C3222 H3236 0.960 . S
C3223 C3220 1.511 . S
C3223 H3237 0.961 . S
C3223 H3238 0.961 . S
C3223 H3239 0.961 . S
C3224 C3225 1.370 . S
C3224 C3226 1.363 . S
C3224 H3240 0.931 . S
C3225 C3224 1.370 . S
C3225 C3229 1.408 . S
C3226 C3224 1.363 . S
C3226 C3227 1.370 . S
C3226 C3230 1.524 . S
C3227 C3219 1.503 . S
C3227 C3226 1.370 . S
C3227 C3228 1.403 . S
C3228 C3227 1.403 . S
C3228 C3229 1.404 . S
C3228 C3231 1.539 . S
C3229 C3225 1.408 . S
C3229 C3228 1.404 . S
C3229 H3241 0.930 . S
C3230 C3226 1.524 . S
C3230 H3242 0.956 . S
C3230 H3243 0.961 . S
C3230 H3244 0.961 . S
C3231 C3228 1.539 . S
C3231 H3245 0.958 . S
C3231 H3246 0.961 . S
C3231 H3247 0.960 . S
H3232 C3216 0.931 . S
H3233 C3221 0.929 . S
H3234 C3222 0.960 . S
H3235 C3222 0.962 . S
H3236 C3222 0.960 . S
H3237 C3223 0.961 . S
H3238 C3223 0.961 . S
H3239 C3223 0.961 . S
H3240 C3224 0.931 . S
H3241 C3229 0.930 . S
H3242 C3230 0.956 . S
H3243 C3230 0.961 . S
H3244 C3230 0.961 . S
H3245 C3231 0.958 . S
H3246 C3231 0.961 . S
H3247 C3231 0.960 . S
C3248 C3249 1.391 . S
C3248 C3250 1.394 . S
C3248 H3264 0.931 . S
C3249 C3248 1.391 . S
C3249 C3253 1.376 . S
C3250 C3248 1.394 . S
C3250 C3251 1.369 . S
C3250 C3254 1.531 . S
C3251 C3250 1.369 . S
C3251 C3252 1.410 . S
C3251 C3259 1.503 . S
C3252 C3251 1.410 . S
C3252 C3253 1.392 . S
C3252 C3255 1.511 . S
C3253 C3249 1.376 . S
C3253 C3252 1.392 . S
C3253 H3265 0.929 . S
C3254 C3250 1.531 . S
C3254 H3266 0.960 . S
C3254 H3267 0.962 . S
C3254 H3268 0.960 . S
C3255 C3252 1.511 . S
C3255 H3269 0.961 . S
C3255 H3270 0.961 . S
C3255 H3271 0.961 . S
C3256 C3257 1.370 . S
C3256 C3258 1.363 . S
C3256 H3272 0.931 . S
C3257 C3256 1.370 . S
C3257 C3261 1.408 . S
C3258 C3256 1.363 . S
C3258 C3259 1.370 . S
C3258 C3262 1.524 . S
C3259 C3251 1.503 . S
C3259 C3258 1.370 . S
C3259 C3260 1.403 . S
C3260 C3259 1.403 . S
C3260 C3261 1.404 . S
C3260 C3263 1.539 . S
C3261 C3257 1.408 . S
C3261 C3260 1.404 . S
C3261 H3273 0.930 . S
C3262 C3258 1.524 . S
C3262 H3274 0.956 . S
C3262 H3275 0.961 . S
C3262 H3276 0.961 . S
C3263 C3260 1.539 . S
C3263 H3277 0.958 . S
C3263 H3278 0.961 . S
C3263 H3279 0.960 . S
H3264 C3248 0.931 . S
H3265 C3253 0.929 . S
H3266 C3254 0.960 . S
H3267 C3254 0.962 . S
H3268 C3254 0.960 . S
H3269 C3255 0.961 . S
H3270 C3255 0.961 . S
H3271 C3255 0.961 . S
H3272 C3256 0.931 . S
H3273 C3261 0.930 . S
H3274 C3262 0.956 . S
H3275 C3262 0.961 . S
H3276 C3262 0.961 . S
H3277 C3263 0.958 . S
H3278 C3263 0.961 . S
H3279 C3263 0.960 . S
C3280 C3281 1.391 . S
C3280 C3282 1.394 . S
C3280 H3296 0.931 . S
C3281 C3280 1.391 . S
C3281 C3285 1.376 . S
C3282 C3280 1.394 . S
C3282 C3283 1.369 . S
C3282 C3286 1.531 . S
C3283 C3282 1.369 . S
C3283 C3284 1.410 . S
C3283 C3291 1.503 . S
C3284 C3283 1.410 . S
C3284 C3285 1.392 . S
C3284 C3287 1.511 . S
C3285 C3281 1.376 . S
C3285 C3284 1.392 . S
C3285 H3297 0.929 . S
C3286 C3282 1.531 . S
C3286 H3298 0.960 . S
C3286 H3299 0.962 . S
C3286 H3300 0.960 . S
C3287 C3284 1.511 . S
C3287 H3301 0.961 . S
C3287 H3302 0.961 . S
C3287 H3303 0.961 . S
C3288 C3289 1.370 . S
C3288 C3290 1.363 . S
C3288 H3304 0.931 . S
C3289 C3288 1.370 . S
C3289 C3293 1.408 1_655 S
C3290 C3288 1.363 . S
C3290 C3291 1.370 . S
C3290 C3294 1.524 . S
C3291 C3283 1.503 . S
C3291 C3290 1.370 . S
C3291 C3292 1.403 1_655 S
C3292 C3291 1.403 1_455 S
C3292 C3293 1.404 . S
C3292 C3295 1.539 . S
C3293 C3289 1.408 1_455 S
C3293 C3292 1.404 . S
C3293 H3305 0.930 . S
C3294 C3290 1.524 . S
C3294 H3306 0.956 . S
C3294 H3307 0.961 . S
C3294 H3308 0.961 . S
C3295 C3292 1.539 . S
C3295 H3309 0.958 . S
C3295 H3310 0.961 . S
C3295 H3311 0.960 . S
H3296 C3280 0.931 . S
H3297 C3285 0.929 . S
H3298 C3286 0.960 . S
H3299 C3286 0.962 . S
H3300 C3286 0.960 . S
H3301 C3287 0.961 . S
H3302 C3287 0.961 . S
H3303 C3287 0.961 . S
H3304 C3288 0.931 . S
H3305 C3293 0.930 . S
H3306 C3294 0.956 . S
H3307 C3294 0.961 . S
H3308 C3294 0.961 . S
H3309 C3295 0.958 . S
H3310 C3295 0.961 . S
H3311 C3295 0.960 . S
C3312 C3313 1.391 . S
C3312 C3314 1.394 . S
C3312 H3328 0.931 . S
C3313 C3312 1.391 . S
C3313 C3317 1.376 . S
C3314 C3312 1.394 . S
C3314 C3315 1.369 . S
C3314 C3318 1.531 . S
C3315 C3314 1.369 . S
C3315 C3316 1.410 . S
C3315 C3323 1.503 . S
C3316 C3315 1.410 . S
C3316 C3317 1.392 . S
C3316 C3319 1.511 . S
C3317 C3313 1.376 . S
C3317 C3316 1.392 . S
C3317 H3329 0.929 . S
C3318 C3314 1.531 . S
C3318 H3330 0.960 . S
C3318 H3331 0.962 . S
C3318 H3332 0.960 . S
C3319 C3316 1.511 . S
C3319 H3333 0.961 . S
C3319 H3334 0.961 . S
C3319 H3335 0.961 . S
C3320 C3321 1.370 . S
C3320 C3322 1.363 . S
C3320 H3336 0.931 . S
C3321 C3320 1.370 . S
C3321 C3325 1.408 . S
C3322 C3320 1.363 . S
C3322 C3323 1.370 . S
C3322 C3326 1.524 . S
C3323 C3315 1.503 . S
C3323 C3322 1.370 . S
C3323 C3324 1.403 . S
C3324 C3323 1.403 . S
C3324 C3325 1.404 . S
C3324 C3327 1.539 . S
C3325 C3321 1.408 . S
C3325 C3324 1.404 . S
C3325 H3337 0.930 . S
C3326 C3322 1.524 . S
C3326 H3338 0.956 . S
C3326 H3339 0.961 . S
C3326 H3340 0.961 . S
C3327 C3324 1.539 . S
C3327 H3341 0.958 . S
C3327 H3342 0.961 . S
C3327 H3343 0.960 . S
H3328 C3312 0.931 . S
H3329 C3317 0.929 . S
H3330 C3318 0.960 . S
H3331 C3318 0.962 . S
H3332 C3318 0.960 . S
H3333 C3319 0.961 . S
H3334 C3319 0.961 . S
H3335 C3319 0.961 . S
H3336 C3320 0.931 . S
H3337 C3325 0.930 . S
H3338 C3326 0.956 . S
H3339 C3326 0.961 . S
H3340 C3326 0.961 . S
H3341 C3327 0.958 . S
H3342 C3327 0.961 . S
H3343 C3327 0.960 . S
C3344 C3345 1.391 . S
C3344 C3346 1.394 . S
C3344 H3360 0.931 . S
C3345 C3344 1.391 . S
C3345 C3349 1.376 . S
C3346 C3344 1.394 . S
C3346 C3347 1.369 . S
C3346 C3350 1.531 . S
C3347 C3346 1.369 . S
C3347 C3348 1.410 . S
C3347 C3355 1.503 . S
C3348 C3347 1.410 . S
C3348 C3349 1.392 . S
C3348 C3351 1.511 . S
C3349 C3345 1.376 . S
C3349 C3348 1.392 . S
C3349 H3361 0.929 . S
C3350 C3346 1.531 . S
C3350 H3362 0.960 . S
C3350 H3363 0.962 . S
C3350 H3364 0.960 . S
C3351 C3348 1.511 . S
C3351 H3365 0.961 . S
C3351 H3366 0.961 . S
C3351 H3367 0.961 . S
C3352 C3353 1.370 . S
C3352 C3354 1.363 . S
C3352 H3368 0.931 . S
C3353 C3352 1.370 . S
C3353 C3357 1.408 . S
C3354 C3352 1.363 . S
C3354 C3355 1.370 . S
C3354 C3358 1.524 . S
C3355 C3347 1.503 . S
C3355 C3354 1.370 . S
C3355 C3356 1.403 . S
C3356 C3355 1.403 . S
C3356 C3357 1.404 . S
C3356 C3359 1.539 . S
C3357 C3353 1.408 . S
C3357 C3356 1.404 . S
C3357 H3369 0.930 . S
C3358 C3354 1.524 . S
C3358 H3370 0.956 . S
C3358 H3371 0.961 . S
C3358 H3372 0.961 . S
C3359 C3356 1.539 . S
C3359 H3373 0.958 . S
C3359 H3374 0.961 . S
C3359 H3375 0.960 . S
H3360 C3344 0.931 . S
H3361 C3349 0.929 . S
H3362 C3350 0.960 . S
H3363 C3350 0.962 . S
H3364 C3350 0.960 . S
H3365 C3351 0.961 . S
H3366 C3351 0.961 . S
H3367 C3351 0.961 . S
H3368 C3352 0.931 . S
H3369 C3357 0.930 . S
H3370 C3358 0.956 . S
H3371 C3358 0.961 . S
H3372 C3358 0.961 . S
H3373 C3359 0.958 . S
H3374 C3359 0.961 . S
H3375 C3359 0.960 . S
C3376 C3377 1.391 . S
C3376 C3378 1.394 . S
C3376 H3392 0.931 . S
C3377 C3376 1.391 . S
C3377 C3381 1.376 . S
C3378 C3376 1.394 . S
C3378 C3379 1.369 . S
C3378 C3382 1.531 . S
C3379 C3378 1.369 . S
C3379 C3380 1.410 . S
C3379 C3387 1.503 . S
C3380 C3379 1.410 . S
C3380 C3381 1.392 . S
C3380 C3383 1.511 . S
C3381 C3377 1.376 . S
C3381 C3380 1.392 . S
C3381 H3393 0.929 . S
C3382 C3378 1.531 . S
C3382 H3394 0.960 . S
C3382 H3395 0.962 . S
C3382 H3396 0.960 . S
C3383 C3380 1.511 . S
C3383 H3397 0.961 . S
C3383 H3398 0.961 . S
C3383 H3399 0.961 . S
C3384 C3385 1.370 . S
C3384 C3386 1.363 . S
C3384 H3400 0.931 . S
C3385 C3384 1.370 . S
C3385 C3389 1.408 . S
C3386 C3384 1.363 . S
C3386 C3387 1.370 . S
C3386 C3390 1.524 . S
C3387 C3379 1.503 . S
C3387 C3386 1.370 . S
C3387 C3388 1.403 . S
C3388 C3387 1.403 . S
C3388 C3389 1.404 . S
C3388 C3391 1.539 . S
C3389 C3385 1.408 . S
C3389 C3388 1.404 . S
C3389 H3401 0.930 . S
C3390 C3386 1.524 . S
C3390 H3402 0.956 . S
C3390 H3403 0.961 . S
C3390 H3404 0.961 . S
C3391 C3388 1.539 . S
C3391 H3405 0.958 . S
C3391 H3406 0.961 . S
C3391 H3407 0.960 . S
H3392 C3376 0.931 . S
H3393 C3381 0.929 . S
H3394 C3382 0.960 . S
H3395 C3382 0.962 . S
H3396 C3382 0.960 . S
H3397 C3383 0.961 . S
H3398 C3383 0.961 . S
H3399 C3383 0.961 . S
H3400 C3384 0.931 . S
H3401 C3389 0.930 . S
H3402 C3390 0.956 . S
H3403 C3390 0.961 . S
H3404 C3390 0.961 . S
H3405 C3391 0.958 . S
H3406 C3391 0.961 . S
H3407 C3391 0.960 . S
C3408 C3409 1.391 . S
C3408 C3410 1.394 . S
C3408 H3424 0.931 . S
C3409 C3408 1.391 . S
C3409 C3413 1.376 . S
C3410 C3408 1.394 . S
C3410 C3411 1.369 . S
C3410 C3414 1.531 . S
C3411 C3410 1.369 . S
C3411 C3412 1.410 . S
C3411 C3419 1.503 . S
C3412 C3411 1.410 . S
C3412 C3413 1.392 . S
C3412 C3415 1.511 . S
C3413 C3409 1.376 . S
C3413 C3412 1.392 . S
C3413 H3425 0.929 . S
C3414 C3410 1.531 . S
C3414 H3426 0.960 . S
C3414 H3427 0.962 . S
C3414 H3428 0.960 . S
C3415 C3412 1.511 . S
C3415 H3429 0.961 . S
C3415 H3430 0.961 . S
C3415 H3431 0.961 . S
C3416 C3417 1.370 . S
C3416 C3418 1.363 . S
C3416 H3432 0.931 1_655 S
C3417 C3416 1.370 . S
C3417 C3421 1.408 . S
C3418 C3416 1.363 . S
C3418 C3419 1.370 . S
C3418 C3422 1.524 . S
C3419 C3411 1.503 . S
C3419 C3418 1.370 . S
C3419 C3420 1.403 . S
C3420 C3419 1.403 . S
C3420 C3421 1.404 . S
C3420 C3423 1.539 . S
C3421 C3417 1.408 . S
C3421 C3420 1.404 . S
C3421 H3433 0.930 . S
C3422 C3418 1.524 . S
C3422 H3434 0.956 . S
C3422 H3435 0.961 . S
C3422 H3436 0.961 1_655 S
C3423 C3420 1.539 . S
C3423 H3437 0.958 . S
C3423 H3438 0.961 . S
C3423 H3439 0.960 . S
H3424 C3408 0.931 . S
H3425 C3413 0.929 . S
H3426 C3414 0.960 . S
H3427 C3414 0.962 . S
H3428 C3414 0.960 . S
H3429 C3415 0.961 . S
H3430 C3415 0.961 . S
H3431 C3415 0.961 . S
H3432 C3416 0.931 1_455 S
H3433 C3421 0.930 . S
H3434 C3422 0.956 . S
H3435 C3422 0.961 . S
H3436 C3422 0.961 1_455 S
H3437 C3423 0.958 . S
H3438 C3423 0.961 . S
H3439 C3423 0.960 . S
C3440 C3441 1.391 . S
C3440 C3442 1.394 . S
C3440 H3456 0.931 . S
C3441 C3440 1.391 . S
C3441 C3445 1.376 . S
C3442 C3440 1.394 . S
C3442 C3443 1.369 . S
C3442 C3446 1.531 . S
C3443 C3442 1.369 . S
C3443 C3444 1.410 . S
C3443 C3451 1.503 . S
C3444 C3443 1.410 . S
C3444 C3445 1.392 . S
C3444 C3447 1.511 . S
C3445 C3441 1.376 . S
C3445 C3444 1.392 . S
C3445 H3457 0.929 . S
C3446 C3442 1.531 . S
C3446 H3458 0.960 . S
C3446 H3459 0.962 . S
C3446 H3460 0.960 . S
C3447 C3444 1.511 . S
C3447 H3461 0.961 . S
C3447 H3462 0.961 . S
C3447 H3463 0.961 . S
C3448 C3449 1.370 . S
C3448 C3450 1.363 . S
C3448 H3464 0.931 . S
C3449 C3448 1.370 . S
C3449 C3453 1.408 . S
C3450 C3448 1.363 . S
C3450 C3451 1.370 . S
C3450 C3454 1.524 . S
C3451 C3443 1.503 . S
C3451 C3450 1.370 . S
C3451 C3452 1.403 . S
C3452 C3451 1.403 . S
C3452 C3453 1.404 . S
C3452 C3455 1.539 . S
C3453 C3449 1.408 . S
C3453 C3452 1.404 . S
C3453 H3465 0.930 . S
C3454 C3450 1.524 . S
C3454 H3466 0.956 . S
C3454 H3467 0.961 . S
C3454 H3468 0.961 . S
C3455 C3452 1.539 . S
C3455 H3469 0.958 . S
C3455 H3470 0.961 . S
C3455 H3471 0.960 . S
H3456 C3440 0.931 . S
H3457 C3445 0.929 . S
H3458 C3446 0.960 . S
H3459 C3446 0.962 . S
H3460 C3446 0.960 . S
H3461 C3447 0.961 . S
H3462 C3447 0.961 . S
H3463 C3447 0.961 . S
H3464 C3448 0.931 . S
H3465 C3453 0.930 . S
H3466 C3454 0.956 . S
H3467 C3454 0.961 . S
H3468 C3454 0.961 . S
H3469 C3455 0.958 . S
H3470 C3455 0.961 . S
H3471 C3455 0.960 . S
C3472 C3473 1.391 . S
C3472 C3474 1.394 . S
C3472 H3488 0.931 . S
C3473 C3472 1.391 . S
C3473 C3477 1.376 . S
C3474 C3472 1.394 . S
C3474 C3475 1.369 . S
C3474 C3478 1.531 . S
C3475 C3474 1.369 . S
C3475 C3476 1.410 . S
C3475 C3483 1.503 . S
C3476 C3475 1.410 . S
C3476 C3477 1.392 . S
C3476 C3479 1.511 . S
C3477 C3473 1.376 . S
C3477 C3476 1.392 . S
C3477 H3489 0.929 . S
C3478 C3474 1.531 . S
C3478 H3490 0.960 . S
C3478 H3491 0.962 . S
C3478 H3492 0.960 . S
C3479 C3476 1.511 . S
C3479 H3493 0.961 . S
C3479 H3494 0.961 . S
C3479 H3495 0.961 . S
C3480 C3481 1.370 . S
C3480 C3482 1.363 . S
C3480 H3496 0.931 . S
C3481 C3480 1.370 . S
C3481 C3485 1.408 . S
C3482 C3480 1.363 . S
C3482 C3483 1.370 . S
C3482 C3486 1.524 . S
C3483 C3475 1.503 . S
C3483 C3482 1.370 . S
C3483 C3484 1.403 . S
C3484 C3483 1.403 . S
C3484 C3485 1.404 . S
C3484 C3487 1.539 . S
C3485 C3481 1.408 . S
C3485 C3484 1.404 . S
C3485 H3497 0.930 . S
C3486 C3482 1.524 . S
C3486 H3498 0.956 . S
C3486 H3499 0.961 . S
C3486 H3500 0.961 . S
C3487 C3484 1.539 . S
C3487 H3501 0.958 . S
C3487 H3502 0.961 . S
C3487 H3503 0.960 . S
H3488 C3472 0.931 . S
H3489 C3477 0.929 . S
H3490 C3478 0.960 . S
H3491 C3478 0.962 . S
H3492 C3478 0.960 . S
H3493 C3479 0.961 . S
H3494 C3479 0.961 . S
H3495 C3479 0.961 . S
H3496 C3480 0.931 . S
H3497 C3485 0.930 . S
H3498 C3486 0.956 . S
H3499 C3486 0.961 . S
H3500 C3486 0.961 . S
H3501 C3487 0.958 . S
H3502 C3487 0.961 . S
H3503 C3487 0.960 . S
C3504 C3505 1.391 . S
C3504 C3506 1.394 . S
C3504 H3520 0.931 . S
C3505 C3504 1.391 . S
C3505 C3509 1.376 . S
C3506 C3504 1.394 . S
C3506 C3507 1.369 . S
C3506 C3510 1.531 . S
C3507 C3506 1.369 . S
C3507 C3508 1.410 . S
C3507 C3515 1.503 . S
C3508 C3507 1.410 . S
C3508 C3509 1.392 . S
C3508 C3511 1.511 . S
C3509 C3505 1.376 . S
C3509 C3508 1.392 . S
C3509 H3521 0.929 . S
C3510 C3506 1.531 . S
C3510 H3522 0.960 . S
C3510 H3523 0.962 . S
C3510 H3524 0.960 . S
C3511 C3508 1.511 . S
C3511 H3525 0.961 . S
C3511 H3526 0.961 . S
C3511 H3527 0.961 . S
C3512 C3513 1.370 1_545 S
C3512 C3514 1.363 1_545 S
C3512 H3528 0.931 . S
C3513 C3512 1.370 1_565 S
C3513 C3517 1.408 . S
C3514 C3512 1.363 1_565 S
C3514 C3515 1.370 . S
C3514 C3518 1.524 . S
C3515 C3507 1.503 . S
C3515 C3514 1.370 . S
C3515 C3516 1.403 . S
C3516 C3515 1.403 . S
C3516 C3517 1.404 . S
C3516 C3519 1.539 . S
C3517 C3513 1.408 . S
C3517 C3516 1.404 . S
C3517 H3529 0.930 . S
C3518 C3514 1.524 . S
C3518 H3530 0.956 . S
C3518 H3531 0.961 . S
C3518 H3532 0.961 1_565 S
C3519 C3516 1.539 . S
C3519 H3533 0.958 . S
C3519 H3534 0.961 . S
C3519 H3535 0.960 . S
H3520 C3504 0.931 . S
H3521 C3509 0.929 . S
H3522 C3510 0.960 . S
H3523 C3510 0.962 . S
H3524 C3510 0.960 . S
H3525 C3511 0.961 . S
H3526 C3511 0.961 . S
H3527 C3511 0.961 . S
H3528 C3512 0.931 . S
H3529 C3517 0.930 . S
H3530 C3518 0.956 . S
H3531 C3518 0.961 . S
H3532 C3518 0.961 1_545 S
H3533 C3519 0.958 . S
H3534 C3519 0.961 . S
H3535 C3519 0.960 . S
C3536 C3537 1.391 . S
C3536 C3538 1.394 . S
C3536 H3552 0.931 . S
C3537 C3536 1.391 . S
C3537 C3541 1.376 . S
C3538 C3536 1.394 . S
C3538 C3539 1.369 . S
C3538 C3542 1.531 . S
C3539 C3538 1.369 . S
C3539 C3540 1.410 . S
C3539 C3547 1.503 . S
C3540 C3539 1.410 . S
C3540 C3541 1.392 . S
C3540 C3543 1.511 . S
C3541 C3537 1.376 . S
C3541 C3540 1.392 . S
C3541 H3553 0.929 . S
C3542 C3538 1.531 . S
C3542 H3554 0.960 . S
C3542 H3555 0.962 . S
C3542 H3556 0.960 . S
C3543 C3540 1.511 . S
C3543 H3557 0.961 . S
C3543 H3558 0.961 . S
C3543 H3559 0.961 . S
C3544 C3545 1.370 . S
C3544 C3546 1.363 . S
C3544 H3560 0.931 . S
C3545 C3544 1.370 . S
C3545 C3549 1.408 . S
C3546 C3544 1.363 . S
C3546 C3547 1.370 . S
C3546 C3550 1.524 . S
C3547 C3539 1.503 . S
C3547 C3546 1.370 . S
C3547 C3548 1.403 . S
C3548 C3547 1.403 . S
C3548 C3549 1.404 . S
C3548 C3551 1.539 . S
C3549 C3545 1.408 . S
C3549 C3548 1.404 . S
C3549 H3561 0.930 . S
C3550 C3546 1.524 . S
C3550 H3562 0.956 . S
C3550 H3563 0.961 . S
C3550 H3564 0.961 . S
C3551 C3548 1.539 . S
C3551 H3565 0.958 . S
C3551 H3566 0.961 . S
C3551 H3567 0.960 . S
H3552 C3536 0.931 . S
H3553 C3541 0.929 . S
H3554 C3542 0.960 . S
H3555 C3542 0.962 . S
H3556 C3542 0.960 . S
H3557 C3543 0.961 . S
H3558 C3543 0.961 . S
H3559 C3543 0.961 . S
H3560 C3544 0.931 . S
H3561 C3549 0.930 . S
H3562 C3550 0.956 . S
H3563 C3550 0.961 . S
H3564 C3550 0.961 . S
H3565 C3551 0.958 . S
H3566 C3551 0.961 . S
H3567 C3551 0.960 . S
C3568 C3569 1.391 . S
C3568 C3570 1.394 . S
C3568 H3584 0.931 . S
C3569 C3568 1.391 . S
C3569 C3573 1.376 1_554 S
C3570 C3568 1.394 . S
C3570 C3571 1.369 . S
C3570 C3574 1.531 . S
C3571 C3570 1.369 . S
C3571 C3572 1.410 1_554 S
C3571 C3579 1.503 . S
C3572 C3571 1.410 1_556 S
C3572 C3573 1.392 . S
C3572 C3575 1.511 . S
C3573 C3569 1.376 1_556 S
C3573 C3572 1.392 . S
C3573 H3585 0.929 . S
C3574 C3570 1.531 . S
C3574 H3586 0.960 . S
C3574 H3587 0.962 . S
C3574 H3588 0.960 . S
C3575 C3572 1.511 . S
C3575 H3589 0.961 . S
C3575 H3590 0.961 . S
C3575 H3591 0.976 . S
C3576 C3577 1.370 1_556 S
C3576 C3578 1.363 . S
C3576 H3592 0.931 . S
C3577 C3576 1.370 1_554 S
C3577 C3581 1.408 . S
C3578 C3576 1.363 . S
C3578 C3579 1.370 1_556 S
C3578 C3582 1.524 . S
C3579 C3571 1.503 . S
C3579 C3578 1.370 1_554 S
C3579 C3580 1.403 . S
C3580 C3579 1.403 . S
C3580 C3581 1.404 . S
C3580 C3583 1.539 . S
C3581 C3577 1.408 . S
C3581 C3580 1.404 . S
C3581 H3593 0.930 . S
C3582 C3578 1.524 . S
C3582 H3594 0.956 . S
C3582 H3595 0.961 . S
C3582 H3596 0.961 . S
C3583 C3580 1.539 . S
C3583 H3597 0.958 . S
C3583 H3598 0.961 . S
C3583 H3599 0.960 . S
H3584 C3568 0.931 . S
H3585 C3573 0.929 . S
H3586 C3574 0.960 . S
H3587 C3574 0.962 . S
H3588 C3574 0.960 . S
H3589 C3575 0.961 . S
H3590 C3575 0.961 . S
H3591 C3575 0.976 . S
H3592 C3576 0.931 . S
H3593 C3581 0.930 . S
H3594 C3582 0.956 . S
H3595 C3582 0.961 . S
H3596 C3582 0.961 . S
H3597 C3583 0.958 . S
H3598 C3583 0.961 . S
H3599 C3583 0.960 . S
C3600 C3601 1.391 . S
C3600 C3602 1.394 . S
C3600 H3616 0.931 . S
C3601 C3600 1.391 . S
C3601 C3605 1.376 . S
C3602 C3600 1.394 . S
C3602 C3603 1.369 . S
C3602 C3606 1.531 . S
C3603 C3602 1.369 . S
C3603 C3604 1.410 . S
C3603 C3611 1.503 . S
C3604 C3603 1.410 . S
C3604 C3605 1.392 . S
C3604 C3607 1.511 . S
C3605 C3601 1.376 . S
C3605 C3604 1.392 . S
C3605 H3617 0.929 . S
C3606 C3602 1.531 . S
C3606 H3618 0.960 . S
C3606 H3619 0.962 . S
C3606 H3620 0.960 . S
C3607 C3604 1.511 . S
C3607 H3621 0.961 . S
C3607 H3622 0.961 . S
C3607 H3623 0.961 . S
C3608 C3609 1.370 . S
C3608 C3610 1.363 . S
C3608 H3624 0.931 . S
C3609 C3608 1.370 . S
C3609 C3613 1.408 . S
C3610 C3608 1.363 . S
C3610 C3611 1.370 . S
C3610 C3614 1.524 . S
C3611 C3603 1.503 . S
C3611 C3610 1.370 . S
C3611 C3612 1.403 . S
C3612 C3611 1.403 . S
C3612 C3613 1.404 . S
C3612 C3615 1.539 . S
C3613 C3609 1.408 . S
C3613 C3612 1.404 . S
C3613 H3625 0.930 . S
C3614 C3610 1.524 . S
C3614 H3626 0.956 . S
C3614 H3627 0.961 . S
C3614 H3628 0.961 . S
C3615 C3612 1.539 . S
C3615 H3629 0.958 . S
C3615 H3630 0.961 . S
C3615 H3631 0.960 . S
H3616 C3600 0.931 . S
H3617 C3605 0.929 . S
H3618 C3606 0.960 . S
H3619 C3606 0.962 . S
H3620 C3606 0.960 . S
H3621 C3607 0.961 . S
H3622 C3607 0.961 . S
H3623 C3607 0.961 . S
H3624 C3608 0.931 . S
H3625 C3613 0.930 . S
H3626 C3614 0.956 . S
H3627 C3614 0.961 . S
H3628 C3614 0.961 . S
H3629 C3615 0.958 . S
H3630 C3615 0.961 . S
H3631 C3615 0.960 . S
C3632 C3633 1.391 . S
C3632 C3634 1.394 . S
C3632 H3648 0.931 . S
C3633 C3632 1.391 . S
C3633 C3637 1.376 . S
C3634 C3632 1.394 . S
C3634 C3635 1.369 . S
C3634 C3638 1.531 . S
C3635 C3634 1.369 . S
C3635 C3636 1.410 . S
C3635 C3643 1.503 . S
C3636 C3635 1.410 . S
C3636 C3637 1.392 . S
C3636 C3639 1.511 1_554 S
C3637 C3633 1.376 . S
C3637 C3636 1.392 . S
C3637 H3649 0.929 . S
C3638 C3634 1.531 . S
C3638 H3650 0.960 . S
C3638 H3651 0.962 . S
C3638 H3652 0.960 . S
C3639 C3636 1.511 1_556 S
C3639 H3653 0.961 . S
C3639 H3654 0.961 . S
C3639 H3655 0.966 . S
C3640 C3641 1.370 . S
C3640 C3642 1.363 . S
C3640 H3656 0.947 . S
C3641 C3640 1.370 . S
C3641 C3645 1.408 . S
C3642 C3640 1.363 . S
C3642 C3643 1.370 . S
C3642 C3646 1.524 . S
C3643 C3635 1.503 . S
C3643 C3642 1.370 . S
C3643 C3644 1.403 . S
C3644 C3643 1.403 . S
C3644 C3645 1.404 . S
C3644 C3647 1.539 . S
C3645 C3641 1.408 . S
C3645 C3644 1.404 . S
C3645 H3657 0.930 . S
C3646 C3642 1.524 . S
C3646 H3658 0.956 . S
C3646 H3659 0.961 1_554 S
C3646 H3660 0.961 1_554 S
C3647 C3644 1.539 . S
C3647 H3661 0.958 . S
C3647 H3662 0.961 . S
C3647 H3663 0.960 . S
H3648 C3632 0.931 . S
H3649 C3637 0.929 . S
H3650 C3638 0.960 . S
H3651 C3638 0.962 . S
H3652 C3638 0.960 . S
H3653 C3639 0.961 . S
H3654 C3639 0.961 . S
H3655 C3639 0.966 . S
H3656 C3640 0.947 . S
H3657 C3645 0.930 . S
H3658 C3646 0.956 . S
H3659 C3646 0.961 1_556 S
H3660 C3646 0.961 1_556 S
H3661 C3647 0.958 . S
H3662 C3647 0.961 . S
H3663 C3647 0.960 . S
C3664 C3665 1.391 . S
C3664 C3666 1.394 . S
C3664 H3680 0.931 . S
C3665 C3664 1.391 . S
C3665 C3669 1.376 . S
C3666 C3664 1.394 . S
C3666 C3667 1.369 . S
C3666 C3670 1.531 . S
C3667 C3666 1.369 . S
C3667 C3668 1.410 . S
C3667 C3675 1.503 . S
C3668 C3667 1.410 . S
C3668 C3669 1.392 . S
C3668 C3671 1.511 . S
C3669 C3665 1.376 . S
C3669 C3668 1.392 . S
C3669 H3681 0.929 . S
C3670 C3666 1.531 . S
C3670 H3682 0.960 . S
C3670 H3683 0.962 . S
C3670 H3684 0.960 . S
C3671 C3668 1.511 . S
C3671 H3685 0.961 . S
C3671 H3686 0.961 . S
C3671 H3687 0.961 . S
C3672 C3673 1.370 . S
C3672 C3674 1.363 . S
C3672 H3688 0.931 . S
C3673 C3672 1.370 . S
C3673 C3677 1.408 . S
C3674 C3672 1.363 . S
C3674 C3675 1.370 . S
C3674 C3678 1.524 . S
C3675 C3667 1.503 . S
C3675 C3674 1.370 . S
C3675 C3676 1.403 . S
C3676 C3675 1.403 . S
C3676 C3677 1.404 . S
C3676 C3679 1.539 . S
C3677 C3673 1.408 . S
C3677 C3676 1.404 . S
C3677 H3689 0.930 . S
C3678 C3674 1.524 . S
C3678 H3690 0.956 . S
C3678 H3691 0.961 . S
C3678 H3692 0.961 . S
C3679 C3676 1.539 . S
C3679 H3693 0.958 . S
C3679 H3694 0.961 . S
C3679 H3695 0.960 . S
H3680 C3664 0.931 . S
H3681 C3669 0.929 . S
H3682 C3670 0.960 . S
H3683 C3670 0.962 . S
H3684 C3670 0.960 . S
H3685 C3671 0.961 . S
H3686 C3671 0.961 . S
H3687 C3671 0.961 . S
H3688 C3672 0.931 . S
H3689 C3677 0.930 . S
H3690 C3678 0.956 . S
H3691 C3678 0.961 . S
H3692 C3678 0.961 . S
H3693 C3679 0.958 . S
H3694 C3679 0.961 . S
H3695 C3679 0.960 . S
C3696 C3697 1.391 . S
C3696 C3698 1.394 . S
C3696 H3712 0.931 . S
C3697 C3696 1.391 . S
C3697 C3701 1.376 . S
C3698 C3696 1.394 . S
C3698 C3699 1.369 . S
C3698 C3702 1.531 . S
C3699 C3698 1.369 . S
C3699 C3700 1.410 . S
C3699 C3707 1.503 . S
C3700 C3699 1.410 . S
C3700 C3701 1.392 . S
C3700 C3703 1.511 . S
C3701 C3697 1.376 . S
C3701 C3700 1.392 . S
C3701 H3713 0.929 . S
C3702 C3698 1.531 . S
C3702 H3714 0.960 . S
C3702 H3715 0.962 . S
C3702 H3716 0.960 . S
C3703 C3700 1.511 . S
C3703 H3717 0.961 . S
C3703 H3718 0.961 . S
C3703 H3719 0.961 . S
C3704 C3705 1.370 . S
C3704 C3706 1.363 . S
C3704 H3720 0.931 . S
C3705 C3704 1.370 . S
C3705 C3709 1.408 . S
C3706 C3704 1.363 . S
C3706 C3707 1.370 . S
C3706 C3710 1.524 . S
C3707 C3699 1.503 . S
C3707 C3706 1.370 . S
C3707 C3708 1.403 . S
C3708 C3707 1.403 . S
C3708 C3709 1.404 . S
C3708 C3711 1.539 . S
C3709 C3705 1.408 . S
C3709 C3708 1.404 . S
C3709 H3721 0.930 . S
C3710 C3706 1.524 . S
C3710 H3722 0.956 . S
C3710 H3723 0.961 . S
C3710 H3724 0.961 . S
C3711 C3708 1.539 . S
C3711 H3725 0.958 . S
C3711 H3726 0.961 . S
C3711 H3727 0.960 . S
H3712 C3696 0.931 . S
H3713 C3701 0.929 . S
H3714 C3702 0.960 . S
H3715 C3702 0.962 . S
H3716 C3702 0.960 . S
H3717 C3703 0.961 . S
H3718 C3703 0.961 . S
H3719 C3703 0.961 . S
H3720 C3704 0.931 . S
H3721 C3709 0.930 . S
H3722 C3710 0.956 . S
H3723 C3710 0.961 . S
H3724 C3710 0.961 . S
H3725 C3711 0.958 . S
H3726 C3711 0.961 . S
H3727 C3711 0.960 . S
C657 C106 1.598 . S
C665 C352 1.545 1_556 S
C689 C65 1.270 . S
C697 C365 1.289 . S
C721 C79 1.679 . S
C729 C384 1.710 . S
C761 C415 1.675 . S
C753 C90 1.694 . S
C785 C21 1.462 . S
C793 C435 1.493 . S
C825 C452 0.899 . S
C817 C35 0.825 . S
C857 C465 1.533 . S
C849 C50 1.525 . S
C881 C6 1.088 . S
C889 C492 1.035 . S
C921 C345 1.412 1_655 S
C913 C232 1.440 . S
C945 C245 1.409 . S
C953 C375 1.465 . S
C985 C377 1.695 . S
C977 C274 1.739 . S
C1017 C412 0.852 . S
C1009 C175 0.895 . S
C1041 C231 0.909 . S
C1049 C432 0.968 . S
C1081 C445 1.740 . S
C1073 C246 1.748 . S
C1113 C475 1.161 . S
C1105 C273 1.168 . S
C1145 C485 1.325 . S
C1137 C176 1.377 . S
C1177 C355 1.644 . S
C1169 C160 1.589 . S
C1201 C289 1.803 . S
C1209 C505 1.784 . S
C1241 C535 1.631 . S
C1233 C328 1.541 . S
C1273 C552 1.297 . S
C1265 C317 1.315 . S
C1297 C118 1.856 . S
C1305 C495 1.948 . S
C1329 C132 1.163 . S
C1337 C382 1.216 . S
C1361 C331 1.928 . S
C1369 C565 1.909 . S
C1401 C592 1.144 . S
C1393 C303 1.150 . S
C1433 C342 1.173 . S
C1425 C63 1.126 . S
C1465 C577 1.615 . S
C1457 C107 1.602 . S
C1489 C92 1.460 . S
C1497 C395 1.454 . S
C1521 C78 2.268 . S
C1529 C564 2.257 . S
C1561 C424 2.028 . S
C1553 C8 2.055 . S
C1585 C51 0.963 . S
C1593 C522 0.966 . S
C1625 C457 1.821 1_556 S
C1617 C37 1.785 . S
C1657 C602 0.950 . S
C1649 C20 0.997 . S
C1689 C337 1.234 . S
C1681 C147 1.233 . S
C1721 C584 1.623 . S
C1713 C316 1.650 . S
C1745 C119 1.687 . S
C1753 C385 1.647 . S
C1777 C288 0.951 . S
C1785 C562 0.948 . S
C1809 C148 1.258 . S
C1817 C422 1.250 . S
C1849 C517 1.734 . S
C1841 C315 1.699 . S
C1873 C120 1.474 . S
C1881 C464 1.455 . S
C1905 C287 1.164 . S
C1913 C597 1.197 . S
C1937 C188 1.496 . S
C1945 C344 1.498 . S
C1969 C177 2.047 . S
C1977 C497 2.055 . S
C2001 C258 1.722 . S
C2009 C444 1.768 . S
C2033 C247 1.395 . S
C2041 C542 1.379 . S
C2073 C604 1.789 . S
C2065 C272 1.729 . S
C2097 C216 1.105 . S
C2105 C392 1.099 1_565 S
C2137 C397 2.116 . S
C2129 C261 2.084 . S
C2169 C362 1.173 . S
C2161 C205 1.187 . S
C2193 C76 1.171 . S
C2201 C632 1.253 . S
C2233 C585 1.338 . S
C2225 C93 1.341 . S
C2257 C105 1.293 . S
C2265 C644 1.364 . S
C2289 C62 1.718 . S
C2297 C575 1.712 . S
C2321 C49 1.432 . S
C2329 C515 1.461 . S
C2361 C532 1.223 . S
C2353 C9 1.252 . S
C2393 C545 1.473 1_655 S
C2385 C22 1.472 . S
C2425 C612 1.354 . S
C2417 C36 1.386 . S
C2457 C625 1.342 . S
C2449 C260 1.385 . S
C2481 C189 1.296 . S
C2489 C595 1.318 . S
C2521 C637 1.642 . S
C2513 C204 1.693 . S
C2553 C572 0.696 . S
C2545 C217 0.733 . S
C2585 C512 1.123 . S
C2577 C259 1.141 . S
C2609 C190 1.819 . S
C2617 C525 1.807 . S
C2649 C555 1.314 . S
C2641 C203 1.266 . S
C2673 C218 1.460 . S
C2681 C605 1.409 . S
C2713 C635 1.597 . S
C2705 C314 1.556 . S
C2737 C135 1.850 . S
C2745 C425 1.841 . S
C2777 C455 1.583 . S
C2769 C146 1.523 . S
C2809 C472 1.351 1_565 S
C2801 C163 1.366 . S
C2841 C615 2.008 . S
C2833 C300 1.942 . S
C2865 C286 1.146 . S
C2873 C642 1.175 . S
C2905 C405 1.852 . S
C2897 C149 1.848 . S
C2937 C372 1.115 . S
C2929 C121 1.122 1_565 S
C2961 C91 1.105 . S
C2969 C622 1.124 . S
C3001 C357 1.268 . S
C2993 C77 1.281 . S
C3025 C64 1.429 . S
C3033 C655 1.402 . S
C3057 C104 1.879 . S
C3065 C404 1.907 . S
C3089 C34 1.644 . S
C3097 C504 1.691 1_556 S
C3129 C442 0.930 . S
C3121 C23 0.946 . S
C3153 C7 1.356 . S
C3161 C537 1.406 . S
C3185 C48 0.956 . S
C3193 C482 0.913 . S
C3225 C617 1.221 . S
C3217 C329 1.228 . S
C3249 C162 1.642 . S
C3257 C364 1.624 . S
C3289 C645 1.647 1_655 S
C3281 C301 1.630 . S
C3313 C134 0.962 . S
C3321 C402 0.977 . S
C3345 C330 1.268 . S
C3353 C502 1.256 . S
C3385 C437 1.713 . S
C3377 C161 1.664 . S
C3409 C302 1.459 . S
C3417 C544 1.451 . S
C3449 C477 1.183 . S
C3441 C133 1.156 . S
C3481 C624 1.745 . S
C3473 C244 1.721 . S
C3513 C417 2.035 1_565 S
C3505 C219 1.996 . S
C3537 C230 1.508 . S
C3545 C524 1.541 . S
C3577 C462 1.328 . S
C3569 C191 1.355 1_554 S
C3601 C202 2.006 . S
C3609 C484 2.044 . S
C3633 C174 1.255 . S
C3641 C652 1.296 . S
C3673 C557 2.119 . S
C3665 C233 2.088 1_565 S
C3705 C582 1.138 . S
C3697 C275 1.170 . S
