# Generated by pormake.
# Topology pth, (4,4)-cn, num edge types: 1
# Building blocks:
#     Node 0, Type 0, BuildingBlock: QUQFOY_clean_sbu_1, # of connection points: 4
#     Node 1, Type 0, BuildingBlock: QUQFOY_clean_sbu_1, # of connection points: 4
#     Node 2, Type 0, BuildingBlock: QUQFOY_clean_sbu_1, # of connection points: 4
#     Node 3, Type 1, BuildingBlock: KOZSID_clean_sbu_0, # of connection points: 4
#     Node 4, Type 1, BuildingBlock: KOZSID_clean_sbu_0, # of connection points: 4
#     Node 5, Type 1, BuildingBlock: KOZSID_clean_sbu_0, # of connection points: 4
#     Edge 6, Type (0, 1), BuildingBlock: FUNLAD_clean_linker_0, # of connection points: 2
#     Edge 7, Type (0, 1), BuildingBlock: FUNLAD_clean_linker_0, # of connection points: 2
#     Edge 8, Type (0, 1), BuildingBlock: FUNLAD_clean_linker_0, # of connection points: 2
#     Edge 9, Type (0, 1), BuildingBlock: FUNLAD_clean_linker_0, # of connection points: 2
#     Edge 10, Type (0, 1), BuildingBlock: FUNLAD_clean_linker_0, # of connection points: 2
#     Edge 11, Type (0, 1), BuildingBlock: FUNLAD_clean_linker_0, # of connection points: 2
#     Edge 12, Type (0, 1), BuildingBlock: FUNLAD_clean_linker_0, # of connection points: 2
#     Edge 13, Type (0, 1), BuildingBlock: FUNLAD_clean_linker_0, # of connection points: 2
#     Edge 14, Type (0, 1), BuildingBlock: FUNLAD_clean_linker_0, # of connection points: 2
#     Edge 15, Type (0, 1), BuildingBlock: FUNLAD_clean_linker_0, # of connection points: 2
#     Edge 16, Type (0, 1), BuildingBlock: FUNLAD_clean_linker_0, # of connection points: 2
#     Edge 17, Type (0, 1), BuildingBlock: FUNLAD_clean_linker_0, # of connection points: 2
# Relax obj value: 0.022
# Max RMSD: 0.125
# Mean RMSD: 0.072
data_MOF--net-pth--node1-QUQFOY_clean_sbu_1--node2-KOZSID_clean_sbu_0--edge1-FUNLAD_clean_linker_0
_symmetry_space_group_name_H-M    P1
_symmetry_Int_Tables_number       1
_symmetry_cell_setting            triclinic
loop_
_symmetry_equiv_pos_as_xyz
'x, y, z'
_cell_length_a     29.430554
_cell_length_b     32.021499
_cell_length_c     71.636995
_cell_angle_alpha  87.660988
_cell_angle_beta   87.623148
_cell_angle_gamma 120.15256
loop_
_atom_site_label
_atom_site_type_symbol
_atom_site_fract_x
_atom_site_fract_y
_atom_site_fract_z
_atom_type_partial_charge
O0 O 0.08984 0.12326 0.03509 0.0
Cd1 Cd 0.02602 0.07303 0.05237 0.0
Cd2 Cd 0.08276 0.02704 0.05063 0.0
O3 O 0.14217 0.09306 0.03838 0.0
O4 O 0.9905 0.1092 0.06044 0.0
O5 O 0.03071 0.08513 0.07983 0.0
C6 C 0.00636 0.10871 0.07691 0.0
C7 C 0.09491 0.9839 0.07516 0.0
C8 C 0.13447 0.1266 0.0321 0.0
C9 C 0.97866 0.98062 0.03315 0.0
O10 O 0.02314 0.98356 0.03428 0.0
O11 O 0.96931 0.01081 0.04095 0.0
O12 O 0.11398 0.98675 0.0583 0.0
O13 O 0.07149 0.00819 0.07835 0.0
O14 O 0.00262 0.09876 0.39001 0.0
Cd15 Cd 0.06846 0.11702 0.37266 0.0
Cd16 Cd 0.0199 0.01687 0.37345 0.0
O17 O 0.95816 0.02 0.38706 0.0
O18 O 0.09583 0.18644 0.36455 0.0
O19 O 0.06446 0.12818 0.34499 0.0
C20 C 0.08294 0.17332 0.34789 0.0
C21 C 0.00458 0.96008 0.35127 0.0
C22 C 0.96119 0.05771 0.39349 0.0
C23 C 0.12479 0.07253 0.39096 0.0
O24 O 0.08384 0.03227 0.38861 0.0
O25 O 0.12896 0.11202 0.38449 0.0
O26 O 0.99075 0.94718 0.36879 0.0
O27 O 0.02511 0.00544 0.34606 0.0
O28 O 0.98502 0.02539 0.70207 0.0
Cd29 Cd 0.03524 0.01098 0.71665 0.0
Cd30 Cd 0.08825 0.10768 0.7171 0.0
O31 O 0.02072 0.10271 0.70714 0.0
O32 O 0.99183 0.94101 0.72533 0.0
O33 O 0.02207 0.99975 0.74471 0.0
C34 C 0.99401 0.95411 0.74222 0.0
C35 C 0.12916 0.15164 0.7426 0.0
C36 C 0.98447 0.06482 0.70058 0.0
C37 C 0.13915 0.0628 0.69467 0.0
O38 O 0.1382 0.10104 0.69803 0.0
O39 O 0.10324 0.0219 0.70209 0.0
O40 O 0.13098 0.17308 0.72671 0.0
O41 O 0.10166 0.10488 0.74432 0.0
C42 C 0.10747 0.64402 0.17993 0.0
C43 C 0.15624 0.67807 0.17134 0.0
C44 C 0.19295 0.67189 0.1801 0.0
C45 C 0.16461 0.63436 0.19338 0.0
N46 N 0.11196 0.61575 0.19347 0.0
Co47 Co 0.05636 0.56079 0.21044 0.0
N48 N 0.11072 0.55695 0.22527 0.0
C49 C 0.16357 0.5864 0.22284 0.0
C50 C 0.19095 0.57484 0.235 0.0
C51 C 0.15341 0.53534 0.24575 0.0
C52 C 0.10506 0.52502 0.23947 0.0
N53 N 1.00079 0.50436 0.22692 0.0
C54 C 0.00563 0.47589 0.24032 0.0
C55 C 0.95689 0.43826 0.24749 0.0
C56 C 0.91991 0.44255 0.23806 0.0
C57 C 0.94806 0.48236 0.22572 0.0
N58 N 0.00207 0.56635 0.19615 0.0
C59 C 0.94911 0.53892 0.19931 0.0
C60 C 0.92193 0.55364 0.18836 0.0
C61 C 0.95975 0.59351 0.17783 0.0
C62 C 0.00803 0.60063 0.1829 0.0
N63 N 0.05688 0.51381 0.19312 0.0
C64 C 0.05425 0.43971 0.17211 0.0
C65 C 0.00927 0.44339 0.17539 0.0
C66 C 0.01141 0.48021 0.18581 0.0
C67 C 0.1012 0.47529 0.17886 0.0
C68 C 0.10172 0.51188 0.18908 0.0
N69 N 0.05547 0.60742 0.22777 0.0
C70 C 0.00658 0.6335 0.24729 0.0
C71 C 0.05228 0.67731 0.24976 0.0
C72 C 0.09992 0.68487 0.24144 0.0
C73 C 0.10067 0.64964 0.23069 0.0
C74 C 0.00905 0.59939 0.23639 0.0
H75 H 0.13819 0.65758 0.22469 0.0
H76 H 0.97265 0.56715 0.23489 0.0
H77 H 0.9754 0.48012 0.18799 0.0
H78 H 0.13873 0.53761 0.19387 0.0
C79 C 0.18642 0.6205 0.20756 0.0
C80 C 0.05842 0.64165 0.17539 0.0
C81 C 0.05534 0.48255 0.2465 0.0
C82 C 0.92624 0.50012 0.21291 0.0
H83 H 0.16452 0.70555 0.16029 0.0
H84 H 0.23535 0.69365 0.17767 0.0
H85 H 0.23325 0.59173 0.23543 0.0
H86 H 0.16096 0.51538 0.25653 0.0
H87 H 0.94897 0.41031 0.25828 0.0
H88 H 0.87757 0.41911 0.23984 0.0
H89 H 0.87967 0.53794 0.18836 0.0
H90 H 0.95255 0.61545 0.16785 0.0
H91 H 0.97219 0.41784 0.17001 0.0
H92 H 0.13731 0.47436 0.17677 0.0
H93 H 0.96861 0.62589 0.25332 0.0
H94 H 0.13661 0.71779 0.24324 0.0
C95 C 0.46149 0.01876 0.57341 0.0
C96 C 0.41965 0.97339 0.57965 0.0
C97 C 0.4243 0.94058 0.56945 0.0
C98 C 0.4683 0.96759 0.55755 0.0
N99 N 0.49212 0.01581 0.55945 0.0
Co100 Co 0.55698 0.06812 0.54475 0.0
N101 N 0.56328 0.01955 0.52964 0.0
C102 C 0.53039 0.97099 0.53094 0.0
C103 C 0.54356 0.94711 0.51835 0.0
C104 C 0.58759 0.98242 0.50836 0.0
C105 C 0.59904 0.02603 0.51558 0.0
N106 N 0.62222 0.12034 0.53019 0.0
C107 C 0.65313 0.11725 0.51636 0.0
C108 C 0.6958 0.16244 0.51049 0.0
C109 C 0.69139 0.19529 0.52077 0.0
C110 C 0.64672 0.16846 0.53239 0.0
N111 N 0.55025 0.1167 0.55973 0.0
C112 C 0.58239 0.16537 0.55813 0.0
C113 C 0.56809 0.18929 0.57033 0.0
C114 C 0.52407 0.15386 0.58034 0.0
C115 C 0.5139 0.11017 0.57357 0.0
N116 N 0.60137 0.06217 0.56369 0.0
C117 C 0.66468 0.05411 0.59054 0.0
C118 C 0.67184 0.09917 0.5845 0.0
C119 C 0.64017 0.10234 0.57119 0.0
C120 C 0.62515 0.01308 0.58291 0.0
C121 C 0.59415 0.01788 0.56966 0.0
N122 N 0.51269 0.07426 0.52583 0.0
C123 C 0.49228 0.12425 0.50563 0.0
C124 C 0.44983 0.08343 0.49904 0.0
C125 C 0.43951 0.0379 0.50609 0.0
C126 C 0.47112 0.03418 0.51933 0.0
C127 C 0.52285 0.11889 0.51888 0.0
H128 H 0.46114 0.99848 0.52408 0.0
H129 H 0.55439 0.15147 0.52332 0.0
H130 H 0.64808 0.13779 0.56716 0.0
H131 H 0.56456 0.98523 0.56447 0.0
C132 C 0.48738 0.9488 0.54414 0.0
C133 C 0.46977 0.06349 0.58099 0.0
C134 C 0.64405 0.07253 0.50848 0.0
C135 C 0.62656 0.18745 0.54537 0.0
H136 H 0.38865 0.96481 0.59037 0.0
H137 H 0.3984 0.90168 0.57046 0.0
H138 H 0.52339 0.90861 0.51659 0.0
H139 H 0.60866 0.97662 0.49697 0.0
H140 H 0.72707 0.17089 0.4999 0.0
H141 H 0.71767 0.23412 0.5199 0.0
H142 H 0.58764 0.22786 0.5719 0.0
H143 H 0.50219 0.15956 0.59147 0.0
H144 H 0.70242 0.13213 0.58978 0.0
H145 H 0.61765 0.97726 0.58728 0.0
H146 H 0.50155 0.16037 0.50084 0.0
H147 H 0.40749 0.00509 0.50126 0.0
C148 C 0.65961 0.59217 0.86054 0.0
C149 C 0.69892 0.58487 0.8528 0.0
C150 C 0.69337 0.54428 0.862 0.0
C151 C 0.65121 0.52914 0.87477 0.0
N152 N 0.62936 0.55753 0.87429 0.0
Co153 Co 0.56675 0.54786 0.89028 0.0
N154 N 0.56213 0.49102 0.90498 0.0
C155 C 0.59599 0.47425 0.90335 0.0
C156 C 0.58398 0.43586 0.91577 0.0
C157 C 0.53947 0.42728 0.92588 0.0
C158 C 0.52658 0.46079 0.91884 0.0
N159 N 0.50234 0.53648 0.9056 0.0
C160 C 0.47043 0.50004 0.91857 0.0
C161 C 0.42701 0.50344 0.92458 0.0
C162 C 0.43159 0.54333 0.91508 0.0
C163 C 0.47706 0.56174 0.90374 0.0
N164 N 0.57345 0.60658 0.87629 0.0
C165 C 0.54264 0.62626 0.87914 0.0
C166 C 0.55824 0.66786 0.86812 0.0
C167 C 0.60213 0.67567 0.85776 0.0
C168 C 0.61071 0.63815 0.86307 0.0
N169 N 0.51956 0.50453 0.87183 0.0
C170 C 0.44366 0.43835 0.84891 0.0
C171 C 0.44828 0.48328 0.85164 0.0
C172 C 0.48577 0.51527 0.86306 0.0
C173 C 0.47976 0.42828 0.85714 0.0
C174 C 0.51743 0.46181 0.86828 0.0
N175 N 0.61341 0.5911 0.90879 0.0
C176 C 0.63389 0.65375 0.93021 0.0
C177 C 0.68131 0.65608 0.93387 0.0
C178 C 0.69366 0.62452 0.92502 0.0
C179 C 0.65943 0.59257 0.91264 0.0
C180 C 0.60087 0.62133 0.91779 0.0
H181 H 0.67129 0.56977 0.90619 0.0
H182 H 0.56553 0.6217 0.91563 0.0
H183 H 0.48593 0.54817 0.86476 0.0
H184 H 0.54379 0.45196 0.87415 0.0
C185 C 0.63523 0.492 0.88876 0.0
C186 C 0.65432 0.63378 0.85497 0.0
C187 C 0.47877 0.46074 0.92512 0.0
C188 C 0.49784 0.60335 0.89159 0.0
H189 H 0.72937 0.60726 0.84197 0.0
H190 H 0.71832 0.5287 0.86009 0.0
H191 H 0.60417 0.41554 0.91693 0.0
H192 H 0.51816 0.39878 0.93686 0.0
H193 H 0.39495 0.47931 0.93461 0.0
H194 H 0.40473 0.55707 0.9162 0.0
H195 H 0.53971 0.68971 0.86759 0.0
H196 H 0.62511 0.70549 0.84741 0.0
H197 H 0.42286 0.49397 0.84506 0.0
H198 H 0.47832 0.3942 0.85545 0.0
H199 H 0.62195 0.6767 0.93698 0.0
H200 H 0.73012 0.62509 0.92729 0.0
C201 C 0.03597 0.15533 0.10558 0.0
C202 C 1.00102 0.13829 0.09127 0.0
C203 C 0.0359 0.18908 0.11743 0.0
C204 C 1.00033 0.2059 0.11533 0.0
C205 C 0.96355 0.18678 0.1017 0.0
C206 C 0.96431 0.15384 0.08964 0.0
C207 C 1.00068 0.24346 0.12699 0.0
C208 C 0.04535 0.28057 0.13266 0.0
C209 C 0.0466 0.32068 0.14291 0.0
C210 C 0.09204 0.36677 0.1408 0.0
C211 C 0.09451 0.40541 0.1501 0.0
C212 C 0.05178 0.39872 0.16201 0.0
H213 H 0.96895 0.27837 0.15739 0.0
C214 C 0.00665 0.35218 0.16439 0.0
C215 C 0.00401 0.31371 0.15494 0.0
H216 H 0.97348 0.34512 0.17383 0.0
H217 H 0.0648 0.14409 0.10716 0.0
H218 H 0.06388 0.20216 0.12812 0.0
H219 H 0.93533 0.1987 0.09993 0.0
H220 H 0.93677 0.14127 0.07879 0.0
H221 H 0.96368 0.24285 0.12946 0.0
H222 H 0.08291 0.28369 0.12847 0.0
H223 H 0.12555 0.37314 0.13168 0.0
H224 H 0.12972 0.44066 0.14771 0.0
C225 C 0.91819 0.09621 0.4111 0.0
C226 C 0.91757 0.05402 0.40593 0.0
C227 C 0.87958 0.09344 0.42395 0.0
C228 C 0.83929 0.0483 0.43198 0.0
C229 C 0.83827 0.00611 0.42665 0.0
C230 C 0.87671 0.00885 0.41365 0.0
C231 C 0.80018 0.04434 0.44683 0.0
C232 C 0.78548 0.07776 0.44849 0.0
C233 C 0.74876 0.07514 0.464 0.0
C234 C 0.71781 0.09648 0.46096 0.0
C235 C 0.68374 0.09558 0.47538 0.0
C236 C 0.6808 0.07414 0.49319 0.0
H237 H 0.77041 0.03848 0.48496 0.0
C238 C 0.71235 0.05358 0.4964 0.0
C239 C 0.74596 0.05392 0.48193 0.0
H240 H 0.71089 0.03722 0.51012 0.0
H241 H 0.94918 0.13164 0.40549 0.0
H242 H 0.88268 0.12688 0.42804 0.0
H243 H 0.80792 0.97089 0.43272 0.0
H244 H 0.87521 0.97567 0.41007 0.0
H245 H 0.78216 0.0122 0.45647 0.0
H246 H 0.79931 0.10741 0.43781 0.0
H247 H 0.71965 0.11351 0.44735 0.0
H248 H 0.65965 0.11163 0.47266 0.0
C249 C 0.92986 0.869 0.75458 0.0
C250 C 0.96205 0.91804 0.75794 0.0
C251 C 0.89559 0.83546 0.76887 0.0
C252 C 0.89243 0.85023 0.78688 0.0
C253 C 0.92632 0.89882 0.79045 0.0
C254 C 0.96057 0.93246 0.77612 0.0
C255 C 0.85471 0.81592 0.80223 0.0
C256 C 0.8084 0.77648 0.79904 0.0
C257 C 0.76933 0.74117 0.81391 0.0
C258 C 0.72923 0.69636 0.80856 0.0
C259 C 0.69162 0.66177 0.82185 0.0
C260 C 0.69315 0.67135 0.84079 0.0
H261 H 0.79919 0.78521 0.83775 0.0
C262 C 0.73235 0.71619 0.84626 0.0
C263 C 0.77011 0.75091 0.83296 0.0
H264 H 0.73385 0.72419 0.86084 0.0
H265 H 0.93038 0.8565 0.74079 0.0
H266 H 0.87183 0.79804 0.76569 0.0
H267 H 0.92533 0.91109 0.80425 0.0
H268 H 0.98498 0.96992 0.7792 0.0
H269 H 0.86525 0.8246 0.81646 0.0
H270 H 0.79815 0.76912 0.78468 0.0
H271 H 0.72723 0.68783 0.79403 0.0
H272 H 0.66151 0.62733 0.81739 0.0
C273 C 0.11762 0.92127 0.08544 0.0
C274 C 0.09612 0.95048 0.08986 0.0
C275 C 0.11387 0.88589 0.09855 0.0
C276 C 0.08832 0.8787 0.11642 0.0
C277 C 0.06899 0.90939 0.12114 0.0
C278 C 0.07251 0.94469 0.10798 0.0
C279 C 0.08169 0.83992 0.13043 0.0
C280 C 0.07777 0.79802 0.1255 0.0
C281 C 0.07055 0.75812 0.13905 0.0
C282 C 0.05183 0.71169 0.13263 0.0
C283 C 0.0467 0.67359 0.14453 0.0
C284 C 0.06036 0.68118 0.1631 0.0
H285 H 0.10001 0.80086 0.16318 0.0
C286 C 0.07901 0.72734 0.16964 0.0
C287 C 0.0841 0.76553 0.15776 0.0
H288 H 0.09044 0.73398 0.18389 0.0
H289 H 0.13649 0.92497 0.07168 0.0
H290 H 0.13108 0.8643 0.09458 0.0
H291 H 0.0498 0.90516 0.13489 0.0
H292 H 0.05567 0.96666 0.11187 0.0
H293 H 0.07684 0.84511 0.1451 0.0
H294 H 0.07777 0.79149 0.11074 0.0
H295 H 0.04151 0.70491 0.11828 0.0
H296 H 0.03286 0.63835 0.13916 0.0
C297 C 0.20745 0.11586 0.40818 0.0
C298 C 0.16617 0.07266 0.40217 0.0
C299 C 0.2435 0.11478 0.42011 0.0
C300 C 0.23918 0.07038 0.42616 0.0
C301 C 0.19865 0.02753 0.41976 0.0
C302 C 0.16274 0.02859 0.40792 0.0
C303 C 0.2736 0.06626 0.43992 0.0
C304 C 0.32012 0.10328 0.44437 0.0
C305 C 0.35257 0.09735 0.45851 0.0
C306 C 0.40731 0.12902 0.45716 0.0
C307 C 0.4389 0.12445 0.47022 0.0
C308 C 0.41637 0.08832 0.48507 0.0
H309 H 0.2877 0.03773 0.47554 0.0
C310 C 0.36145 0.05714 0.4866 0.0
C311 C 0.3299 0.06167 0.47354 0.0
H312 H 0.34262 0.02971 0.49811 0.0
H313 H 0.21102 0.15039 0.40411 0.0
H314 H 0.2734 0.14864 0.42497 0.0
H315 H 0.19417 0.99279 0.42416 0.0
H316 H 0.13161 0.99456 0.40355 0.0
H317 H 0.26025 0.03027 0.44632 0.0
H318 H 0.33639 0.13859 0.43694 0.0
H319 H 0.42581 0.15707 0.44584 0.0
H320 H 0.4811 0.14888 0.46853 0.0
C321 C 0.18393 0.23058 0.75677 0.0
C322 C 0.16106 0.17996 0.75779 0.0
C323 C 0.21855 0.25814 0.76996 0.0
C324 C 0.23139 0.23571 0.78445 0.0
C325 C 0.20804 0.18508 0.78561 0.0
C326 C 0.17278 0.15739 0.77254 0.0
C327 C 0.27148 0.26452 0.79771 0.0
C328 C 0.27946 0.30738 0.8031 0.0
C329 C 0.32092 0.33783 0.81562 0.0
C330 C 0.31246 0.36816 0.82703 0.0
C331 C 0.35166 0.39964 0.83811 0.0
C332 C 0.40109 0.40258 0.83775 0.0
H333 H 0.37805 0.31757 0.80653 0.0
C334 C 0.4094 0.37176 0.82641 0.0
C335 C 0.36972 0.33963 0.81551 0.0
H336 H 0.44705 0.37335 0.82551 0.0
H337 H 0.17599 0.2491 0.7455 0.0
H338 H 0.23671 0.29715 0.76832 0.0
H339 H 0.21751 0.16691 0.79655 0.0
H340 H 0.15621 0.11851 0.77362 0.0
H341 H 0.29394 0.24928 0.80356 0.0
H342 H 0.25339 0.32017 0.79871 0.0
H343 H 0.27527 0.36753 0.82738 0.0
H344 H 0.34302 0.42173 0.84697 0.0
C345 C 0.90078 0.02413 0.68419 0.0
C346 C 0.94278 0.06676 0.69026 0.0
C347 C 0.86338 0.02589 0.6733 0.0
C348 C 0.86738 0.0705 0.668 0.0
C349 C 0.9082 0.11289 0.67467 0.0
C350 C 0.94557 0.11111 0.68564 0.0
C351 C 0.82982 0.07426 0.65566 0.0
C352 C 0.80184 0.04079 0.64357 0.0
C353 C 0.76604 0.04488 0.63043 0.0
C354 C 0.75121 0.01578 0.61512 0.0
C355 C 0.71806 0.01843 0.6023 0.0
C356 C 0.6987 0.05022 0.60449 0.0
H357 H 0.75454 0.09791 0.64474 0.0
C358 C 0.7127 0.07877 0.61998 0.0
C359 C 0.74576 0.07602 0.63285 0.0
H360 H 0.69757 0.1029 0.62229 0.0
H361 H 0.89692 0.98922 0.68772 0.0
H362 H 0.83144 0.9921 0.66917 0.0
H363 H 0.91192 0.14771 0.67103 0.0
H364 H 0.97725 0.14464 0.69013 0.0
H365 H 0.82803 0.10726 0.65579 0.0
H366 H 0.80734 0.00991 0.64239 0.0
H367 H 0.76585 0.99121 0.61292 0.0
H368 H 0.70843 0.99622 0.59045 0.0
C369 C 0.94993 0.91011 0.01328 0.0
C370 C 0.93842 0.94228 0.0223 0.0
C371 C 0.91317 0.87482 0.00254 0.0
C372 C 0.86355 0.8704 1.00065 0.0
C373 C 0.85205 0.90256 0.00965 0.0
C374 C 0.88893 0.938 0.02041 0.0
C375 C 0.8241 0.83453 0.98868 0.0
C376 C 0.82378 0.7941 0.98378 0.0
C377 C 0.786 0.75922 0.97113 0.0
C378 C 0.77829 0.71217 0.97139 0.0
C379 C 0.74443 0.67869 0.95936 0.0
C380 C 0.7176 0.69157 0.94667 0.0
H381 H 0.76571 0.80856 0.95707 0.0
C382 C 0.72572 0.73882 0.94626 0.0
C383 C 0.75958 0.77229 0.95828 0.0
H384 H 0.70663 0.75032 0.93637 0.0
H385 H 0.9878 0.91254 0.01427 0.0
H386 H 0.92461 0.85206 0.99539 0.0
H387 H 0.81439 0.90038 0.00831 0.0
H388 H 0.87879 0.96225 0.02709 0.0
H389 H 0.7935 0.84137 0.98421 0.0
H390 H 0.85136 0.78499 0.98966 0.0
H391 H 0.79842 0.70114 0.981 0.0
H392 H 0.73882 0.64253 0.96016 0.0
C393 C 0.02809 0.93867 0.32032 0.0
C394 C 1.00012 0.92405 0.33799 0.0
C395 C 0.02821 0.90438 0.30877 0.0
C396 C 1.00006 0.85471 0.31466 0.0
C397 C 0.9703 0.84017 0.33194 0.0
C398 C 0.97066 0.87436 0.34354 0.0
C399 C 1.00038 0.81678 0.30335 0.0
C400 C 0.04047 0.82491 0.29104 0.0
C401 C 0.04244 0.78612 0.28076 0.0
C402 C 0.07645 0.79935 0.2645 0.0
C403 C 0.08003 0.76426 0.25454 0.0
C404 C 0.04986 0.71493 0.26067 0.0
H405 H 0.98784 0.72486 0.29991 0.0
C406 C 0.01653 0.70172 0.27713 0.0
C407 C 0.01298 0.73678 0.28709 0.0
H408 H 0.9936 0.66419 0.28249 0.0
H409 H 0.05105 0.97669 0.31563 0.0
H410 H 0.05031 0.91698 0.29529 0.0
H411 H 0.94776 0.80219 0.33676 0.0
H412 H 0.94843 0.8618 0.35701 0.0
H413 H 0.96702 0.78037 0.30602 0.0
H414 H 0.07374 0.86143 0.28838 0.0
H415 H 0.10002 0.83702 0.25935 0.0
H416 H 0.10577 0.77575 0.24184 0.0
C417 C 0.18507 0.02518 0.67787 0.0
C418 C 0.18131 0.06623 0.68148 0.0
C419 C 0.22365 0.02859 0.66475 0.0
C420 C 0.25927 0.07321 0.65495 0.0
C421 C 0.25553 0.1141 0.65864 0.0
C422 C 0.21733 0.11079 0.6718 0.0
C423 C 0.29892 0.07823 0.64011 0.0
C424 C 0.31909 0.0487 0.63936 0.0
C425 C 0.35851 0.05431 0.62429 0.0
C426 C 0.3936 0.03788 0.62807 0.0
C427 C 0.43043 0.0417 0.61411 0.0
C428 C 0.43226 0.06138 0.59605 0.0
H429 H 0.33311 0.08569 0.60247 0.0
C430 C 0.39712 0.07753 0.59215 0.0
C431 C 0.36052 0.07403 0.60612 0.0
H432 H 0.3976 0.09226 0.5782 0.0
H433 H 0.15778 0.99026 0.68499 0.0
H434 H 0.22437 0.99596 0.66196 0.0
H435 H 0.28218 0.14883 0.65124 0.0
H436 H 0.21558 0.14317 0.67415 0.0
H437 H 0.31362 0.10892 0.62986 0.0
H438 H 0.30842 0.02084 0.65057 0.0
H439 H 0.39265 0.02219 0.64187 0.0
H440 H 0.45714 0.02883 0.61732 0.0
C441 C 0.22197 0.17032 0.01331 0.0
C442 C 0.17719 0.16998 0.02116 0.0
C443 C 0.26106 0.21102 0.00244 0.0
C444 C 0.25627 0.25232 0.99936 0.0
C445 C 0.21227 0.25235 0.00764 0.0
C446 C 0.17295 0.21157 0.01825 0.0
C447 C 0.29666 0.2963 0.98793 0.0
C448 C 0.32563 0.29475 0.9732 0.0
C449 C 0.36382 0.33841 0.96107 0.0
C450 C 0.37481 0.33285 0.94236 0.0
C451 C 0.41109 0.37283 0.9306 0.0
C452 C 0.43764 0.41907 0.93738 0.0
H453 H 0.38428 0.39049 0.9823 0.0
C454 C 0.42719 0.42487 0.95608 0.0
C455 C 0.39052 0.38493 0.96784 0.0
H456 H 0.44803 0.46018 0.96164 0.0
H457 H 0.22653 0.13896 0.01537 0.0
H458 H 0.29518 0.21021 0.99668 0.0
H459 H 0.20783 0.28382 0.00565 0.0
H460 H 0.13923 0.21275 0.02422 0.0
H461 H 0.29962 0.33053 0.99093 0.0
H462 H 0.3188 0.25987 0.9691 0.0
H463 H 0.35515 0.29747 0.93681 0.0
H464 H 0.41903 0.36761 0.91623 0.0
C465 C 0.10292 0.25663 0.33713 0.0
C466 C 0.08544 0.20845 0.33312 0.0
C467 C 0.10033 0.28882 0.32403 0.0
C468 C 0.07988 0.27357 0.30657 0.0
C469 C 0.0646 0.22605 0.30224 0.0
C470 C 0.06703 0.19372 0.3154 0.0
C471 C 0.07466 0.3064 0.29254 0.0
C472 C 0.06769 0.34329 0.29735 0.0
C473 C 0.06283 0.37741 0.28385 0.0
C474 C 0.06773 0.42018 0.29046 0.0
C475 C 0.06438 0.45389 0.27842 0.0
C476 C 0.05578 0.44542 0.25952 0.0
H477 H 0.04756 0.33581 0.25918 0.0
C478 C 0.04961 0.40243 0.25285 0.0
C479 C 0.053 0.36862 0.26488 0.0
H480 H 0.04272 0.3953 0.23828 0.0
H481 H 0.11782 0.26939 0.35057 0.0
H482 H 0.11459 0.32563 0.32767 0.0
H483 H 0.04943 0.21348 0.28881 0.0
H484 H 0.05339 0.15692 0.31183 0.0
H485 H 0.07541 0.29878 0.27796 0.0
H486 H 0.0658 0.34945 0.31208 0.0
H487 H 0.07489 0.42793 0.30497 0.0
H488 H 0.06918 0.4869 0.2838 0.0
loop_
_geom_bond_atom_site_label_1
_geom_bond_atom_site_label_2
_geom_bond_distance
_geom_bond_site_symmetry_2
_ccdc_geom_bond_type
O0 Cd1 2.223 . S
O0 C8 1.315 . S
Cd1 O0 2.223 . S
Cd1 O4 2.297 . S
Cd1 O5 2.439 . S
Cd1 O11 2.240 . S
Cd2 O3 2.240 . S
Cd2 O10 2.223 1_545 S
Cd2 O12 2.297 1_545 S
Cd2 O13 2.439 1_545 S
O3 Cd2 2.240 . S
O3 C8 1.279 . S
O4 Cd1 2.297 . S
O4 C6 1.247 . S
O5 Cd1 2.439 . S
O5 C6 1.208 . S
C6 O4 1.247 . S
C6 O5 1.208 . S
C7 O12 1.247 . S
C7 O13 1.208 . S
C8 O0 1.315 . S
C8 O3 1.279 . S
C9 O10 1.315 . S
C9 O11 1.279 1_565 S
O10 Cd2 2.223 1_565 S
O10 C9 1.315 . S
O11 Cd1 2.240 . S
O11 C9 1.279 1_545 S
O12 Cd2 2.297 1_565 S
O12 C7 1.247 . S
O13 Cd2 2.439 1_565 S
O13 C7 1.208 . S
O14 Cd15 2.223 . S
O14 C22 1.315 1_455 S
Cd15 O14 2.223 . S
Cd15 O18 2.297 . S
Cd15 O19 2.439 . S
Cd15 O25 2.240 . S
Cd16 O17 2.240 . S
Cd16 O24 2.223 1_655 S
Cd16 O26 2.297 1_645 S
Cd16 O27 2.439 1_655 S
O17 Cd16 2.240 . S
O17 C22 1.279 . S
O18 Cd15 2.297 . S
O18 C20 1.247 . S
O19 Cd15 2.439 . S
O19 C20 1.208 . S
C20 O18 1.247 . S
C20 O19 1.208 . S
C21 O26 1.247 . S
C21 O27 1.208 1_565 S
C22 O14 1.315 1_655 S
C22 O17 1.279 . S
C23 O24 1.315 . S
C23 O25 1.279 . S
O24 Cd16 2.223 1_455 S
O24 C23 1.315 . S
O25 Cd15 2.240 . S
O25 C23 1.279 . S
O26 Cd16 2.297 1_465 S
O26 C21 1.247 . S
O27 Cd16 2.439 1_455 S
O27 C21 1.208 1_545 S
O28 Cd29 2.223 1_655 S
O28 C36 1.315 1_565 S
Cd29 O28 2.223 1_455 S
Cd29 O32 2.297 1_455 S
Cd29 O33 2.433 1_455 S
Cd29 O39 2.240 1_565 S
Cd30 O31 2.240 . S
Cd30 O38 2.223 . S
Cd30 O40 2.297 . S
Cd30 O41 2.439 . S
O31 Cd30 2.240 . S
O31 C36 1.279 1_455 S
O32 Cd29 2.297 1_655 S
O32 C34 1.247 . S
O33 Cd29 2.433 1_655 S
O33 C34 1.216 . S
C34 O32 1.247 . S
C34 O33 1.216 . S
C35 O40 1.247 . S
C35 O41 1.208 . S
C36 O28 1.315 1_545 S
C36 O31 1.279 1_655 S
C37 O38 1.315 . S
C37 O39 1.279 . S
O38 Cd30 2.223 . S
O38 C37 1.315 . S
O39 Cd29 2.240 1_545 S
O39 C37 1.279 . S
O40 Cd30 2.297 . S
O40 C35 1.247 . S
O41 Cd30 2.439 . S
O41 C35 1.208 . S
C42 C43 1.443 . S
C42 N46 1.376 . S
C42 C80 1.389 . S
C43 C42 1.443 . S
C43 C44 1.340 . S
C43 H83 0.951 . S
C44 C43 1.340 . S
C44 C45 1.439 . S
C44 H84 0.950 . S
C45 C44 1.439 . S
C45 N46 1.374 . S
C45 C79 1.395 . S
N46 C42 1.376 . S
N46 C45 1.374 . S
N46 Co47 2.008 . S
Co47 N46 2.008 . S
Co47 N48 1.995 . S
Co47 N53 2.008 1_455 S
Co47 N58 1.995 1_455 S
Co47 N63 2.282 . S
Co47 N69 2.282 . S
N48 Co47 1.995 . S
N48 C49 1.376 . S
N48 C52 1.383 . S
C49 N48 1.376 . S
C49 C50 1.446 . S
C49 C79 1.391 . S
C50 C49 1.446 . S
C50 C51 1.339 . S
C50 H85 0.949 . S
C51 C50 1.339 . S
C51 C52 1.439 . S
C51 H86 0.950 . S
C52 N48 1.383 . S
C52 C51 1.439 . S
C52 C81 1.392 . S
N53 Co47 2.008 1_655 S
N53 C54 1.376 . S
N53 C57 1.374 . S
C54 N53 1.376 . S
C54 C55 1.443 . S
C54 C81 1.389 1_655 S
C55 C54 1.443 . S
C55 C56 1.340 . S
C55 H87 0.951 . S
C56 C55 1.340 . S
C56 C57 1.439 . S
C56 H88 0.950 . S
C57 N53 1.374 . S
C57 C56 1.439 . S
C57 C82 1.395 . S
N58 Co47 1.995 1_655 S
N58 C59 1.376 . S
N58 C62 1.383 . S
C59 N58 1.376 . S
C59 C60 1.446 . S
C59 C82 1.391 . S
C60 C59 1.446 . S
C60 C61 1.339 . S
C60 H89 0.949 . S
C61 C60 1.339 . S
C61 C62 1.439 . S
C61 H90 0.950 . S
C62 N58 1.383 . S
C62 C61 1.439 . S
C62 C80 1.392 1_655 S
N63 Co47 2.282 . S
N63 C66 1.332 . S
N63 C68 1.332 . S
C64 C65 1.386 . S
C64 C67 1.388 . S
C65 C64 1.386 . S
C65 C66 1.382 . S
C65 H91 0.950 1_455 S
C66 N63 1.332 . S
C66 C65 1.382 . S
C66 H77 0.952 1_455 S
C67 C64 1.388 . S
C67 C68 1.382 . S
C67 H92 0.950 . S
C68 N63 1.332 . S
C68 C67 1.382 . S
C68 H78 0.948 . S
N69 Co47 2.282 . S
N69 C73 1.332 . S
N69 C74 1.332 1_455 S
C70 C71 1.388 1_655 S
C70 C74 1.382 . S
C70 H93 0.950 . S
C71 C70 1.388 1_455 S
C71 C72 1.386 . S
C72 C71 1.386 . S
C72 C73 1.382 . S
C72 H94 0.950 . S
C73 N69 1.332 . S
C73 C72 1.382 . S
C73 H75 0.952 . S
C74 N69 1.332 1_655 S
C74 C70 1.382 . S
C74 H76 0.948 . S
H75 C73 0.952 . S
H76 C74 0.948 . S
H77 C66 0.952 1_655 S
H78 C68 0.948 . S
C79 C45 1.395 . S
C79 C49 1.391 . S
C80 C42 1.389 . S
C80 C62 1.392 1_455 S
C81 C52 1.392 . S
C81 C54 1.389 1_455 S
C82 C57 1.395 . S
C82 C59 1.391 . S
H83 C43 0.951 . S
H84 C44 0.950 . S
H85 C50 0.949 . S
H86 C51 0.950 . S
H87 C55 0.951 . S
H88 C56 0.950 . S
H89 C60 0.949 . S
H90 C61 0.950 . S
H91 C65 0.950 1_655 S
H92 C67 0.950 . S
H93 C70 0.950 . S
H94 C72 0.950 . S
C95 C96 1.443 1_545 S
C95 N99 1.376 . S
C95 C133 1.389 . S
C96 C95 1.443 1_565 S
C96 C97 1.340 . S
C96 H136 0.951 . S
C97 C96 1.340 . S
C97 C98 1.439 . S
C97 H137 0.950 . S
C98 C97 1.439 . S
C98 N99 1.374 1_565 S
C98 C132 1.395 . S
N99 C95 1.376 . S
N99 C98 1.374 1_545 S
N99 Co100 2.008 . S
Co100 N99 2.008 . S
Co100 N101 1.995 . S
Co100 N106 2.008 . S
Co100 N111 1.995 . S
Co100 N116 2.282 . S
Co100 N122 2.282 . S
N101 Co100 1.995 . S
N101 C102 1.376 1_545 S
N101 C105 1.383 . S
C102 N101 1.376 1_565 S
C102 C103 1.446 . S
C102 C132 1.391 . S
C103 C102 1.446 . S
C103 C104 1.339 . S
C103 H138 0.949 . S
C104 C103 1.339 . S
C104 C105 1.439 1_565 S
C104 H139 0.950 . S
C105 N101 1.383 . S
C105 C104 1.439 1_545 S
C105 C134 1.392 . S
N106 Co100 2.008 . S
N106 C107 1.376 . S
N106 C110 1.374 . S
C107 N106 1.376 . S
C107 C108 1.443 . S
C107 C134 1.389 . S
C108 C107 1.443 . S
C108 C109 1.340 . S
C108 H140 0.951 . S
C109 C108 1.340 . S
C109 C110 1.439 . S
C109 H141 0.950 . S
C110 N106 1.374 . S
C110 C109 1.439 . S
C110 C135 1.395 . S
N111 Co100 1.995 . S
N111 C112 1.376 . S
N111 C115 1.383 . S
C112 N111 1.376 . S
C112 C113 1.446 . S
C112 C135 1.391 . S
C113 C112 1.446 . S
C113 C114 1.339 . S
C113 H142 0.949 . S
C114 C113 1.339 . S
C114 C115 1.439 . S
C114 H143 0.950 . S
C115 N111 1.383 . S
C115 C114 1.439 . S
C115 C133 1.392 . S
N116 Co100 2.282 . S
N116 C119 1.332 . S
N116 C121 1.332 . S
C117 C118 1.386 . S
C117 C120 1.388 . S
C118 C117 1.386 . S
C118 C119 1.382 . S
C118 H144 0.950 . S
C119 N116 1.332 . S
C119 C118 1.382 . S
C119 H130 0.952 . S
C120 C117 1.388 . S
C120 C121 1.382 . S
C120 H145 0.950 1_545 S
C121 N116 1.332 . S
C121 C120 1.382 . S
C121 H131 0.948 1_545 S
N122 Co100 2.282 . S
N122 C126 1.332 . S
N122 C127 1.332 . S
C123 C124 1.388 . S
C123 C127 1.382 . S
C123 H146 0.950 . S
C124 C123 1.388 . S
C124 C125 1.386 . S
C125 C124 1.386 . S
C125 C126 1.382 . S
C125 H147 0.950 . S
C126 N122 1.332 . S
C126 C125 1.382 . S
C126 H128 0.952 . S
C127 N122 1.332 . S
C127 C123 1.382 . S
C127 H129 0.948 . S
H128 C126 0.952 . S
H129 C127 0.948 . S
H130 C119 0.952 . S
H131 C121 0.948 1_565 S
C132 C98 1.395 . S
C132 C102 1.391 . S
C133 C95 1.389 . S
C133 C115 1.392 . S
C134 C105 1.392 . S
C134 C107 1.389 . S
C135 C110 1.395 . S
C135 C112 1.391 . S
H136 C96 0.951 . S
H137 C97 0.950 . S
H138 C103 0.949 . S
H139 C104 0.950 . S
H140 C108 0.951 . S
H141 C109 0.950 . S
H142 C113 0.949 . S
H143 C114 0.950 . S
H144 C118 0.950 . S
H145 C120 0.950 1_565 S
H146 C123 0.950 . S
H147 C125 0.950 . S
C148 C149 1.443 . S
C148 N152 1.376 . S
C148 C186 1.389 . S
C149 C148 1.443 . S
C149 C150 1.340 . S
C149 H189 0.951 . S
C150 C149 1.340 . S
C150 C151 1.439 . S
C150 H190 0.950 . S
C151 C150 1.439 . S
C151 N152 1.374 . S
C151 C185 1.395 . S
N152 C148 1.376 . S
N152 C151 1.374 . S
N152 Co153 2.008 . S
Co153 N152 2.008 . S
Co153 N154 1.995 . S
Co153 N159 2.008 . S
Co153 N164 1.995 . S
Co153 N169 2.282 . S
Co153 N175 2.282 . S
N154 Co153 1.995 . S
N154 C155 1.376 . S
N154 C158 1.383 . S
C155 N154 1.376 . S
C155 C156 1.446 . S
C155 C185 1.391 . S
C156 C155 1.446 . S
C156 C157 1.339 . S
C156 H191 0.949 . S
C157 C156 1.339 . S
C157 C158 1.439 . S
C157 H192 0.950 . S
C158 N154 1.383 . S
C158 C157 1.439 . S
C158 C187 1.392 . S
N159 Co153 2.008 . S
N159 C160 1.376 . S
N159 C163 1.374 . S
C160 N159 1.376 . S
C160 C161 1.443 . S
C160 C187 1.389 . S
C161 C160 1.443 . S
C161 C162 1.340 . S
C161 H193 0.951 . S
C162 C161 1.340 . S
C162 C163 1.439 . S
C162 H194 0.950 . S
C163 N159 1.374 . S
C163 C162 1.439 . S
C163 C188 1.395 . S
N164 Co153 1.995 . S
N164 C165 1.376 . S
N164 C168 1.383 . S
C165 N164 1.376 . S
C165 C166 1.446 . S
C165 C188 1.391 . S
C166 C165 1.446 . S
C166 C167 1.339 . S
C166 H195 0.949 . S
C167 C166 1.339 . S
C167 C168 1.439 . S
C167 H196 0.950 . S
C168 N164 1.383 . S
C168 C167 1.439 . S
C168 C186 1.392 . S
N169 Co153 2.282 . S
N169 C172 1.332 . S
N169 C174 1.332 . S
C170 C171 1.386 . S
C170 C173 1.388 . S
C171 C170 1.386 . S
C171 C172 1.382 . S
C171 H197 0.950 . S
C172 N169 1.332 . S
C172 C171 1.382 . S
C172 H183 0.952 . S
C173 C170 1.388 . S
C173 C174 1.382 . S
C173 H198 0.950 . S
C174 N169 1.332 . S
C174 C173 1.382 . S
C174 H184 0.948 . S
N175 Co153 2.282 . S
N175 C179 1.332 . S
N175 C180 1.332 . S
C176 C177 1.388 . S
C176 C180 1.382 . S
C176 H199 0.950 . S
C177 C176 1.388 . S
C177 C178 1.386 . S
C178 C177 1.386 . S
C178 C179 1.382 . S
C178 H200 0.950 . S
C179 N175 1.332 . S
C179 C178 1.382 . S
C179 H181 0.952 . S
C180 N175 1.332 . S
C180 C176 1.382 . S
C180 H182 0.948 . S
H181 C179 0.952 . S
H182 C180 0.948 . S
H183 C172 0.952 . S
H184 C174 0.948 . S
C185 C151 1.395 . S
C185 C155 1.391 . S
C186 C148 1.389 . S
C186 C168 1.392 . S
C187 C158 1.392 . S
C187 C160 1.389 . S
C188 C163 1.395 . S
C188 C165 1.391 . S
H189 C149 0.951 . S
H190 C150 0.950 . S
H191 C156 0.949 . S
H192 C157 0.950 . S
H193 C161 0.951 . S
H194 C162 0.950 . S
H195 C166 0.949 . S
H196 C167 0.950 . S
H197 C171 0.950 . S
H198 C173 0.950 . S
H199 C176 0.950 . S
H200 C178 0.950 . S
C201 C202 1.386 . S
C201 C203 1.383 . S
C201 H217 0.951 . S
C202 C201 1.386 . S
C202 C206 1.383 . S
C203 C201 1.383 . S
C203 C204 1.402 . S
C203 H218 0.951 . S
C204 C203 1.402 . S
C204 C205 1.375 1_455 S
C204 C207 1.481 . S
C205 C204 1.375 1_655 S
C205 C206 1.367 1_655 S
C205 H219 0.951 . S
C206 C202 1.383 . S
C206 C205 1.367 1_455 S
C206 H220 0.950 1_455 S
C207 C204 1.481 . S
C207 C208 1.297 . S
C207 H221 0.950 1_455 S
C208 C207 1.297 . S
C208 C209 1.479 . S
C208 H222 0.950 . S
C209 C208 1.479 . S
C209 C210 1.375 . S
C209 C215 1.404 . S
C210 C209 1.375 . S
C210 C211 1.369 . S
C210 H223 0.950 . S
C211 C210 1.369 . S
C211 C212 1.392 . S
C211 H224 0.951 . S
C212 C211 1.392 . S
C212 C214 1.384 . S
H213 C215 0.949 1_655 S
C214 C212 1.384 . S
C214 C215 1.385 . S
C214 H216 0.950 1_455 S
C215 C209 1.404 . S
C215 H213 0.949 1_455 S
C215 C214 1.385 . S
H216 C214 0.950 1_655 S
H217 C201 0.951 . S
H218 C203 0.951 . S
H219 C205 0.951 . S
H220 C206 0.950 1_655 S
H221 C207 0.950 1_655 S
H222 C208 0.950 . S
H223 C210 0.950 . S
H224 C211 0.951 . S
C225 C226 1.386 . S
C225 C227 1.383 . S
C225 H241 0.951 . S
C226 C225 1.386 . S
C226 C230 1.383 . S
C227 C225 1.383 . S
C227 C228 1.402 . S
C227 H242 0.951 . S
C228 C227 1.402 . S
C228 C229 1.375 . S
C228 C231 1.481 . S
C229 C228 1.375 . S
C229 C230 1.367 . S
C229 H243 0.951 . S
C230 C226 1.383 . S
C230 C229 1.367 . S
C230 H244 0.950 . S
C231 C228 1.481 . S
C231 C232 1.297 . S
C231 H245 0.950 . S
C232 C231 1.297 . S
C232 C233 1.479 . S
C232 H246 0.950 . S
C233 C232 1.479 . S
C233 C234 1.375 . S
C233 C239 1.404 . S
C234 C233 1.375 . S
C234 C235 1.369 . S
C234 H247 0.950 . S
C235 C234 1.369 . S
C235 C236 1.392 . S
C235 H248 0.951 . S
C236 C235 1.392 . S
C236 C238 1.384 . S
H237 C239 0.949 . S
C238 C236 1.384 . S
C238 C239 1.385 . S
C238 H240 0.950 . S
C239 C233 1.404 . S
C239 H237 0.949 . S
C239 C238 1.385 . S
H240 C238 0.950 . S
H241 C225 0.951 . S
H242 C227 0.951 . S
H243 C229 0.951 . S
H244 C230 0.950 . S
H245 C231 0.950 . S
H246 C232 0.950 . S
H247 C234 0.950 . S
H248 C235 0.951 . S
C249 C250 1.386 . S
C249 C251 1.383 . S
C249 H265 0.951 . S
C250 C249 1.386 . S
C250 C254 1.383 . S
C251 C249 1.383 . S
C251 C252 1.402 . S
C251 H266 0.951 . S
C252 C251 1.402 . S
C252 C253 1.375 . S
C252 C255 1.481 . S
C253 C252 1.375 . S
C253 C254 1.367 . S
C253 H267 0.951 . S
C254 C250 1.383 . S
C254 C253 1.367 . S
C254 H268 0.950 . S
C255 C252 1.481 . S
C255 C256 1.297 . S
C255 H269 0.950 . S
C256 C255 1.297 . S
C256 C257 1.479 . S
C256 H270 0.950 . S
C257 C256 1.479 . S
C257 C258 1.375 . S
C257 C263 1.404 . S
C258 C257 1.375 . S
C258 C259 1.369 . S
C258 H271 0.950 . S
C259 C258 1.369 . S
C259 C260 1.392 . S
C259 H272 0.951 . S
C260 C259 1.392 . S
C260 C262 1.384 . S
H261 C263 0.949 . S
C262 C260 1.384 . S
C262 C263 1.385 . S
C262 H264 0.950 . S
C263 C257 1.404 . S
C263 H261 0.949 . S
C263 C262 1.385 . S
H264 C262 0.950 . S
H265 C249 0.951 . S
H266 C251 0.951 . S
H267 C253 0.951 . S
H268 C254 0.950 . S
H269 C255 0.950 . S
H270 C256 0.950 . S
H271 C258 0.950 . S
H272 C259 0.951 . S
C273 C274 1.386 . S
C273 C275 1.383 . S
C273 H289 0.951 1_455 S
C274 C273 1.386 . S
C274 C278 1.383 . S
C275 C273 1.383 . S
C275 C276 1.402 . S
C275 H290 0.951 . S
C276 C275 1.402 . S
C276 C277 1.375 . S
C276 C279 1.481 . S
C277 C276 1.375 . S
C277 C278 1.367 . S
C277 H291 0.951 . S
C278 C274 1.383 . S
C278 C277 1.367 . S
C278 H292 0.950 . S
C279 C276 1.481 . S
C279 C280 1.297 . S
C279 H293 0.950 . S
C280 C279 1.297 . S
C280 C281 1.479 . S
C280 H294 0.950 . S
C281 C280 1.479 . S
C281 C282 1.375 . S
C281 C287 1.404 . S
C282 C281 1.375 . S
C282 C283 1.369 . S
C282 H295 0.950 1_455 S
C283 C282 1.369 . S
C283 C284 1.392 . S
C283 H296 0.951 1_455 S
C284 C283 1.392 . S
C284 C286 1.384 . S
H285 C287 0.949 . S
C286 C284 1.384 . S
C286 C287 1.385 . S
C286 H288 0.950 . S
C287 C281 1.404 . S
C287 H285 0.949 . S
C287 C286 1.385 . S
H288 C286 0.950 . S
H289 C273 0.951 1_655 S
H290 C275 0.951 . S
H291 C277 0.951 . S
H292 C278 0.950 . S
H293 C279 0.950 . S
H294 C280 0.950 . S
H295 C282 0.950 1_655 S
H296 C283 0.951 1_655 S
C297 C298 1.386 . S
C297 C299 1.383 . S
C297 H313 0.951 . S
C298 C297 1.386 . S
C298 C302 1.383 . S
C299 C297 1.383 . S
C299 C300 1.402 . S
C299 H314 0.951 . S
C300 C299 1.402 . S
C300 C301 1.375 . S
C300 C303 1.481 . S
C301 C300 1.375 . S
C301 C302 1.367 . S
C301 H315 0.951 . S
C302 C298 1.383 . S
C302 C301 1.367 . S
C302 H316 0.950 . S
C303 C300 1.481 . S
C303 C304 1.297 . S
C303 H317 0.950 . S
C304 C303 1.297 . S
C304 C305 1.479 . S
C304 H318 0.950 . S
C305 C304 1.479 . S
C305 C306 1.375 . S
C305 C311 1.404 . S
C306 C305 1.375 . S
C306 C307 1.369 . S
C306 H319 0.950 . S
C307 C306 1.369 . S
C307 C308 1.392 . S
C307 H320 0.951 . S
C308 C307 1.392 . S
C308 C310 1.384 . S
H309 C311 0.949 . S
C310 C308 1.384 . S
C310 C311 1.385 . S
C310 H312 0.950 . S
C311 C305 1.404 . S
C311 H309 0.949 . S
C311 C310 1.385 . S
H312 C310 0.950 . S
H313 C297 0.951 . S
H314 C299 0.951 . S
H315 C301 0.951 . S
H316 C302 0.950 . S
H317 C303 0.950 . S
H318 C304 0.950 . S
H319 C306 0.950 . S
H320 C307 0.951 . S
C321 C322 1.386 . S
C321 C323 1.383 . S
C321 H337 0.951 . S
C322 C321 1.386 . S
C322 C326 1.383 . S
C323 C321 1.383 . S
C323 C324 1.402 . S
C323 H338 0.951 . S
C324 C323 1.402 . S
C324 C325 1.375 . S
C324 C327 1.481 . S
C325 C324 1.375 . S
C325 C326 1.367 . S
C325 H339 0.951 . S
C326 C322 1.383 . S
C326 C325 1.367 . S
C326 H340 0.950 . S
C327 C324 1.481 . S
C327 C328 1.297 . S
C327 H341 0.950 . S
C328 C327 1.297 . S
C328 C329 1.479 . S
C328 H342 0.950 . S
C329 C328 1.479 . S
C329 C330 1.375 . S
C329 C335 1.404 . S
C330 C329 1.375 . S
C330 C331 1.369 . S
C330 H343 0.950 . S
C331 C330 1.369 . S
C331 C332 1.392 . S
C331 H344 0.951 . S
C332 C331 1.392 . S
C332 C334 1.384 . S
H333 C335 0.949 . S
C334 C332 1.384 . S
C334 C335 1.385 . S
C334 H336 0.950 . S
C335 C329 1.404 . S
C335 H333 0.949 . S
C335 C334 1.385 . S
H336 C334 0.950 . S
H337 C321 0.951 . S
H338 C323 0.951 . S
H339 C325 0.951 . S
H340 C326 0.950 . S
H341 C327 0.950 . S
H342 C328 0.950 . S
H343 C330 0.950 . S
H344 C331 0.951 . S
C345 C346 1.386 . S
C345 C347 1.383 . S
C345 H361 0.956 . S
C346 C345 1.386 . S
C346 C350 1.383 . S
C347 C345 1.383 . S
C347 C348 1.402 . S
C347 H362 0.951 . S
C348 C347 1.402 . S
C348 C349 1.375 . S
C348 C351 1.481 . S
C349 C348 1.375 . S
C349 C350 1.367 . S
C349 H363 0.951 . S
C350 C346 1.383 . S
C350 C349 1.367 . S
C350 H364 0.950 . S
C351 C348 1.481 . S
C351 C352 1.297 . S
C351 H365 0.950 . S
C352 C351 1.297 . S
C352 C353 1.479 . S
C352 H366 0.950 . S
C353 C352 1.479 . S
C353 C354 1.375 . S
C353 C359 1.404 . S
C354 C353 1.375 . S
C354 C355 1.369 . S
C354 H367 0.950 1_545 S
C355 C354 1.369 . S
C355 C356 1.392 . S
C355 H368 0.951 . S
C356 C355 1.392 . S
C356 C358 1.384 . S
H357 C359 0.949 . S
C358 C356 1.384 . S
C358 C359 1.385 . S
C358 H360 0.950 . S
C359 C353 1.404 . S
C359 H357 0.949 . S
C359 C358 1.385 . S
H360 C358 0.950 . S
H361 C345 0.956 . S
H362 C347 0.951 . S
H363 C349 0.951 . S
H364 C350 0.950 . S
H365 C351 0.950 . S
H366 C352 0.950 . S
H367 C354 0.950 1_565 S
H368 C355 0.951 . S
C369 C370 1.386 . S
C369 C371 1.383 1_554 S
C369 H385 0.951 . S
C370 C369 1.386 . S
C370 C374 1.383 1_554 S
C371 C369 1.383 1_556 S
C371 C372 1.402 . S
C371 H386 0.950 . S
C372 C371 1.402 . S
C372 C373 1.375 . S
C372 C375 1.481 . S
C373 C372 1.375 . S
C373 C374 1.367 . S
C373 H387 0.951 . S
C374 C370 1.383 1_556 S
C374 C373 1.367 . S
C374 H388 0.950 1_565 S
C375 C372 1.481 . S
C375 C376 1.297 . S
C375 H389 0.950 . S
C376 C375 1.297 . S
C376 C377 1.479 . S
C376 H390 0.950 . S
C377 C376 1.479 . S
C377 C378 1.375 . S
C377 C383 1.404 . S
C378 C377 1.375 . S
C378 C379 1.369 . S
C378 H391 0.950 . S
C379 C378 1.369 . S
C379 C380 1.392 . S
C379 H392 0.951 . S
C380 C379 1.392 . S
C380 C382 1.384 . S
H381 C383 0.949 . S
C382 C380 1.384 . S
C382 C383 1.385 . S
C382 H384 0.950 . S
C383 C377 1.404 . S
C383 H381 0.949 . S
C383 C382 1.385 . S
H384 C382 0.950 . S
H385 C369 0.951 . S
H386 C371 0.950 . S
H387 C373 0.951 . S
H388 C374 0.950 1_545 S
H389 C375 0.950 . S
H390 C376 0.950 . S
H391 C378 0.950 . S
H392 C379 0.951 . S
C393 C394 1.386 . S
C393 C395 1.383 . S
C393 H409 0.951 . S
C394 C393 1.386 . S
C394 C398 1.383 1_455 S
C395 C393 1.383 . S
C395 C396 1.402 . S
C395 H410 0.951 . S
C396 C395 1.402 . S
C396 C397 1.375 1_455 S
C396 C399 1.481 . S
C397 C396 1.375 1_655 S
C397 C398 1.367 . S
C397 H411 0.951 . S
C398 C394 1.383 1_655 S
C398 C397 1.367 . S
C398 H412 0.950 . S
C399 C396 1.481 . S
C399 C400 1.297 . S
C399 H413 0.950 1_455 S
C400 C399 1.297 . S
C400 C401 1.479 . S
C400 H414 0.950 . S
C401 C400 1.479 . S
C401 C402 1.375 . S
C401 C407 1.404 . S
C402 C401 1.375 . S
C402 C403 1.369 . S
C402 H415 0.950 . S
C403 C402 1.369 . S
C403 C404 1.392 . S
C403 H416 0.951 . S
C404 C403 1.392 . S
C404 C406 1.384 . S
H405 C407 0.949 1_655 S
C406 C404 1.384 . S
C406 C407 1.385 . S
C406 H408 0.950 1_455 S
C407 C401 1.404 . S
C407 H405 0.949 1_455 S
C407 C406 1.385 . S
H408 C406 0.950 1_655 S
H409 C393 0.951 . S
H410 C395 0.951 . S
H411 C397 0.951 . S
H412 C398 0.950 . S
H413 C399 0.950 1_655 S
H414 C400 0.950 . S
H415 C402 0.950 . S
H416 C403 0.951 . S
C417 C418 1.386 . S
C417 C419 1.383 . S
C417 H433 0.951 . S
C418 C417 1.386 . S
C418 C422 1.383 . S
C419 C417 1.383 . S
C419 C420 1.402 . S
C419 H434 0.951 . S
C420 C419 1.402 . S
C420 C421 1.375 . S
C420 C423 1.481 . S
C421 C420 1.375 . S
C421 C422 1.367 . S
C421 H435 0.951 . S
C422 C418 1.383 . S
C422 C421 1.367 . S
C422 H436 0.950 . S
C423 C420 1.481 . S
C423 C424 1.297 . S
C423 H437 0.950 . S
C424 C423 1.297 . S
C424 C425 1.479 . S
C424 H438 0.950 . S
C425 C424 1.479 . S
C425 C426 1.375 . S
C425 C431 1.404 . S
C426 C425 1.375 . S
C426 C427 1.369 . S
C426 H439 0.950 1_545 S
C427 C426 1.369 . S
C427 C428 1.392 . S
C427 H440 0.951 . S
C428 C427 1.392 . S
C428 C430 1.384 . S
H429 C431 0.949 . S
C430 C428 1.384 . S
C430 C431 1.385 . S
C430 H432 0.950 . S
C431 C425 1.404 . S
C431 H429 0.949 . S
C431 C430 1.385 . S
H432 C430 0.950 . S
H433 C417 0.951 . S
H434 C419 0.951 . S
H435 C421 0.951 . S
H436 C422 0.950 . S
H437 C423 0.950 . S
H438 C424 0.950 . S
H439 C426 0.950 1_565 S
H440 C427 0.951 . S
C441 C442 1.386 1_556 S
C441 C443 1.383 . S
C441 H457 0.951 . S
C442 C441 1.386 1_554 S
C442 C446 1.383 . S
C443 C441 1.383 . S
C443 C444 1.402 . S
C443 H458 0.951 . S
C444 C443 1.402 . S
C444 C445 1.375 . S
C444 C447 1.481 . S
C445 C444 1.375 . S
C445 C446 1.367 1_556 S
C445 H459 0.951 . S
C446 C442 1.383 . S
C446 C445 1.367 1_554 S
C446 H460 0.950 . S
C447 C444 1.481 . S
C447 C448 1.297 . S
C447 H461 0.950 . S
C448 C447 1.297 . S
C448 C449 1.479 . S
C448 H462 0.950 . S
C449 C448 1.479 . S
C449 C450 1.375 . S
C449 C455 1.404 . S
C450 C449 1.375 . S
C450 C451 1.369 . S
C450 H463 0.950 . S
C451 C450 1.369 . S
C451 C452 1.392 . S
C451 H464 0.951 . S
C452 C451 1.392 . S
C452 C454 1.384 . S
H453 C455 0.949 . S
C454 C452 1.384 . S
C454 C455 1.385 . S
C454 H456 0.950 . S
C455 C449 1.404 . S
C455 H453 0.949 . S
C455 C454 1.385 . S
H456 C454 0.950 . S
H457 C441 0.951 . S
H458 C443 0.951 . S
H459 C445 0.951 . S
H460 C446 0.950 . S
H461 C447 0.950 . S
H462 C448 0.950 . S
H463 C450 0.950 . S
H464 C451 0.951 . S
C465 C466 1.386 . S
C465 C467 1.383 . S
C465 H481 0.951 . S
C466 C465 1.386 . S
C466 C470 1.383 . S
C467 C465 1.383 . S
C467 C468 1.402 . S
C467 H482 0.951 . S
C468 C467 1.402 . S
C468 C469 1.375 . S
C468 C471 1.481 . S
C469 C468 1.375 . S
C469 C470 1.367 . S
C469 H483 0.951 . S
C470 C466 1.383 . S
C470 C469 1.367 . S
C470 H484 0.950 . S
C471 C468 1.481 . S
C471 C472 1.297 . S
C471 H485 0.950 . S
C472 C471 1.297 . S
C472 C473 1.479 . S
C472 H486 0.950 . S
C473 C472 1.479 . S
C473 C474 1.375 . S
C473 C479 1.404 . S
C474 C473 1.375 . S
C474 C475 1.369 . S
C474 H487 0.950 . S
C475 C474 1.369 . S
C475 C476 1.392 . S
C475 H488 0.951 . S
C476 C475 1.392 . S
C476 C478 1.384 . S
H477 C479 0.949 . S
C478 C476 1.384 . S
C478 C479 1.385 . S
C478 H480 0.950 . S
C479 C473 1.404 . S
C479 H477 0.949 . S
C479 C478 1.385 . S
H480 C478 0.950 . S
H481 C465 0.951 . S
H482 C467 0.951 . S
H483 C469 0.951 . S
H484 C470 0.950 . S
H485 C471 0.950 . S
H486 C472 0.950 . S
H487 C474 0.950 . S
H488 C475 0.951 . S
C212 C64 1.466 . S
C202 C6 1.440 . S
C226 C22 1.593 . S
C236 C134 1.590 . S
C250 C34 1.258 . S
C260 C186 1.261 . S
C274 C7 1.445 . S
C284 C80 1.466 . S
C308 C124 1.592 . S
C298 C23 1.573 . S
C322 C35 1.266 . S
C332 C170 1.266 . S
C356 C117 1.576 . S
C346 C36 1.571 . S
C370 C9 1.799 1_655 S
C380 C177 1.807 . S
C404 C71 1.465 . S
C394 C21 1.434 . S
C428 C133 1.595 . S
C418 C37 1.585 . S
C452 C187 1.844 . S
C442 C8 1.803 . S
C466 C20 1.460 . S
C476 C81 1.473 . S
