# Generated by pormake.
# Topology gar, (4,6)-cn, num edge types: 1
# Building blocks:
#     Node 0, Type 0, BuildingBlock: UXUYUI_clean_sbu_0, # of connection points: 4
#     Node 1, Type 0, BuildingBlock: UXUYUI_clean_sbu_0, # of connection points: 4
#     Node 2, Type 0, BuildingBlock: UXUYUI_clean_sbu_0, # of connection points: 4
#     Node 3, Type 0, BuildingBlock: UXUYUI_clean_sbu_0, # of connection points: 4
#     Node 4, Type 0, BuildingBlock: UXUYUI_clean_sbu_0, # of connection points: 4
#     Node 5, Type 0, BuildingBlock: UXUYUI_clean_sbu_0, # of connection points: 4
#     Node 6, Type 0, BuildingBlock: UXUYUI_clean_sbu_0, # of connection points: 4
#     Node 7, Type 0, BuildingBlock: UXUYUI_clean_sbu_0, # of connection points: 4
#     Node 8, Type 0, BuildingBlock: UXUYUI_clean_sbu_0, # of connection points: 4
#     Node 9, Type 0, BuildingBlock: UXUYUI_clean_sbu_0, # of connection points: 4
#     Node 10, Type 0, BuildingBlock: UXUYUI_clean_sbu_0, # of connection points: 4
#     Node 11, Type 0, BuildingBlock: UXUYUI_clean_sbu_0, # of connection points: 4
#     Node 12, Type 0, BuildingBlock: UXUYUI_clean_sbu_0, # of connection points: 4
#     Node 13, Type 0, BuildingBlock: UXUYUI_clean_sbu_0, # of connection points: 4
#     Node 14, Type 0, BuildingBlock: UXUYUI_clean_sbu_0, # of connection points: 4
#     Node 15, Type 0, BuildingBlock: UXUYUI_clean_sbu_0, # of connection points: 4
#     Node 16, Type 0, BuildingBlock: UXUYUI_clean_sbu_0, # of connection points: 4
#     Node 17, Type 0, BuildingBlock: UXUYUI_clean_sbu_0, # of connection points: 4
#     Node 18, Type 0, BuildingBlock: UXUYUI_clean_sbu_0, # of connection points: 4
#     Node 19, Type 0, BuildingBlock: UXUYUI_clean_sbu_0, # of connection points: 4
#     Node 20, Type 0, BuildingBlock: UXUYUI_clean_sbu_0, # of connection points: 4
#     Node 21, Type 0, BuildingBlock: UXUYUI_clean_sbu_0, # of connection points: 4
#     Node 22, Type 0, BuildingBlock: UXUYUI_clean_sbu_0, # of connection points: 4
#     Node 23, Type 0, BuildingBlock: UXUYUI_clean_sbu_0, # of connection points: 4
#     Node 24, Type 1, BuildingBlock: BETDEL_clean_sbu_0, # of connection points: 6
#     Node 25, Type 1, BuildingBlock: BETDEL_clean_sbu_0, # of connection points: 6
#     Node 26, Type 1, BuildingBlock: BETDEL_clean_sbu_0, # of connection points: 6
#     Node 27, Type 1, BuildingBlock: BETDEL_clean_sbu_0, # of connection points: 6
#     Node 28, Type 1, BuildingBlock: BETDEL_clean_sbu_0, # of connection points: 6
#     Node 29, Type 1, BuildingBlock: BETDEL_clean_sbu_0, # of connection points: 6
#     Node 30, Type 1, BuildingBlock: BETDEL_clean_sbu_0, # of connection points: 6
#     Node 31, Type 1, BuildingBlock: BETDEL_clean_sbu_0, # of connection points: 6
#     Node 32, Type 1, BuildingBlock: BETDEL_clean_sbu_0, # of connection points: 6
#     Node 33, Type 1, BuildingBlock: BETDEL_clean_sbu_0, # of connection points: 6
#     Node 34, Type 1, BuildingBlock: BETDEL_clean_sbu_0, # of connection points: 6
#     Node 35, Type 1, BuildingBlock: BETDEL_clean_sbu_0, # of connection points: 6
#     Node 36, Type 1, BuildingBlock: BETDEL_clean_sbu_0, # of connection points: 6
#     Node 37, Type 1, BuildingBlock: BETDEL_clean_sbu_0, # of connection points: 6
#     Node 38, Type 1, BuildingBlock: BETDEL_clean_sbu_0, # of connection points: 6
#     Node 39, Type 1, BuildingBlock: BETDEL_clean_sbu_0, # of connection points: 6
#     Edge 40, Type (0, 1), BuildingBlock: UVAHIK_clean_linker_0, # of connection points: 2
#     Edge 41, Type (0, 1), BuildingBlock: UVAHIK_clean_linker_0, # of connection points: 2
#     Edge 42, Type (0, 1), BuildingBlock: UVAHIK_clean_linker_0, # of connection points: 2
#     Edge 43, Type (0, 1), BuildingBlock: UVAHIK_clean_linker_0, # of connection points: 2
#     Edge 44, Type (0, 1), BuildingBlock: UVAHIK_clean_linker_0, # of connection points: 2
#     Edge 45, Type (0, 1), BuildingBlock: UVAHIK_clean_linker_0, # of connection points: 2
#     Edge 46, Type (0, 1), BuildingBlock: UVAHIK_clean_linker_0, # of connection points: 2
#     Edge 47, Type (0, 1), BuildingBlock: UVAHIK_clean_linker_0, # of connection points: 2
#     Edge 48, Type (0, 1), BuildingBlock: UVAHIK_clean_linker_0, # of connection points: 2
#     Edge 49, Type (0, 1), BuildingBlock: UVAHIK_clean_linker_0, # of connection points: 2
#     Edge 50, Type (0, 1), BuildingBlock: UVAHIK_clean_linker_0, # of connection points: 2
#     Edge 51, Type (0, 1), BuildingBlock: UVAHIK_clean_linker_0, # of connection points: 2
#     Edge 52, Type (0, 1), BuildingBlock: UVAHIK_clean_linker_0, # of connection points: 2
#     Edge 53, Type (0, 1), BuildingBlock: UVAHIK_clean_linker_0, # of connection points: 2
#     Edge 54, Type (0, 1), BuildingBlock: UVAHIK_clean_linker_0, # of connection points: 2
#     Edge 55, Type (0, 1), BuildingBlock: UVAHIK_clean_linker_0, # of connection points: 2
#     Edge 56, Type (0, 1), BuildingBlock: UVAHIK_clean_linker_0, # of connection points: 2
#     Edge 57, Type (0, 1), BuildingBlock: UVAHIK_clean_linker_0, # of connection points: 2
#     Edge 58, Type (0, 1), BuildingBlock: UVAHIK_clean_linker_0, # of connection points: 2
#     Edge 59, Type (0, 1), BuildingBlock: UVAHIK_clean_linker_0, # of connection points: 2
#     Edge 60, Type (0, 1), BuildingBlock: UVAHIK_clean_linker_0, # of connection points: 2
#     Edge 61, Type (0, 1), BuildingBlock: UVAHIK_clean_linker_0, # of connection points: 2
#     Edge 62, Type (0, 1), BuildingBlock: UVAHIK_clean_linker_0, # of connection points: 2
#     Edge 63, Type (0, 1), BuildingBlock: UVAHIK_clean_linker_0, # of connection points: 2
#     Edge 64, Type (0, 1), BuildingBlock: UVAHIK_clean_linker_0, # of connection points: 2
#     Edge 65, Type (0, 1), BuildingBlock: UVAHIK_clean_linker_0, # of connection points: 2
#     Edge 66, Type (0, 1), BuildingBlock: UVAHIK_clean_linker_0, # of connection points: 2
#     Edge 67, Type (0, 1), BuildingBlock: UVAHIK_clean_linker_0, # of connection points: 2
#     Edge 68, Type (0, 1), BuildingBlock: UVAHIK_clean_linker_0, # of connection points: 2
#     Edge 69, Type (0, 1), BuildingBlock: UVAHIK_clean_linker_0, # of connection points: 2
#     Edge 70, Type (0, 1), BuildingBlock: UVAHIK_clean_linker_0, # of connection points: 2
#     Edge 71, Type (0, 1), BuildingBlock: UVAHIK_clean_linker_0, # of connection points: 2
#     Edge 72, Type (0, 1), BuildingBlock: UVAHIK_clean_linker_0, # of connection points: 2
#     Edge 73, Type (0, 1), BuildingBlock: UVAHIK_clean_linker_0, # of connection points: 2
#     Edge 74, Type (0, 1), BuildingBlock: UVAHIK_clean_linker_0, # of connection points: 2
#     Edge 75, Type (0, 1), BuildingBlock: UVAHIK_clean_linker_0, # of connection points: 2
#     Edge 76, Type (0, 1), BuildingBlock: UVAHIK_clean_linker_0, # of connection points: 2
#     Edge 77, Type (0, 1), BuildingBlock: UVAHIK_clean_linker_0, # of connection points: 2
#     Edge 78, Type (0, 1), BuildingBlock: UVAHIK_clean_linker_0, # of connection points: 2
#     Edge 79, Type (0, 1), BuildingBlock: UVAHIK_clean_linker_0, # of connection points: 2
#     Edge 80, Type (0, 1), BuildingBlock: UVAHIK_clean_linker_0, # of connection points: 2
#     Edge 81, Type (0, 1), BuildingBlock: UVAHIK_clean_linker_0, # of connection points: 2
#     Edge 82, Type (0, 1), BuildingBlock: UVAHIK_clean_linker_0, # of connection points: 2
#     Edge 83, Type (0, 1), BuildingBlock: UVAHIK_clean_linker_0, # of connection points: 2
#     Edge 84, Type (0, 1), BuildingBlock: UVAHIK_clean_linker_0, # of connection points: 2
#     Edge 85, Type (0, 1), BuildingBlock: UVAHIK_clean_linker_0, # of connection points: 2
#     Edge 86, Type (0, 1), BuildingBlock: UVAHIK_clean_linker_0, # of connection points: 2
#     Edge 87, Type (0, 1), BuildingBlock: UVAHIK_clean_linker_0, # of connection points: 2
#     Edge 88, Type (0, 1), BuildingBlock: UVAHIK_clean_linker_0, # of connection points: 2
#     Edge 89, Type (0, 1), BuildingBlock: UVAHIK_clean_linker_0, # of connection points: 2
#     Edge 90, Type (0, 1), BuildingBlock: UVAHIK_clean_linker_0, # of connection points: 2
#     Edge 91, Type (0, 1), BuildingBlock: UVAHIK_clean_linker_0, # of connection points: 2
#     Edge 92, Type (0, 1), BuildingBlock: UVAHIK_clean_linker_0, # of connection points: 2
#     Edge 93, Type (0, 1), BuildingBlock: UVAHIK_clean_linker_0, # of connection points: 2
#     Edge 94, Type (0, 1), BuildingBlock: UVAHIK_clean_linker_0, # of connection points: 2
#     Edge 95, Type (0, 1), BuildingBlock: UVAHIK_clean_linker_0, # of connection points: 2
#     Edge 96, Type (0, 1), BuildingBlock: UVAHIK_clean_linker_0, # of connection points: 2
#     Edge 97, Type (0, 1), BuildingBlock: UVAHIK_clean_linker_0, # of connection points: 2
#     Edge 98, Type (0, 1), BuildingBlock: UVAHIK_clean_linker_0, # of connection points: 2
#     Edge 99, Type (0, 1), BuildingBlock: UVAHIK_clean_linker_0, # of connection points: 2
#     Edge 100, Type (0, 1), BuildingBlock: UVAHIK_clean_linker_0, # of connection points: 2
#     Edge 101, Type (0, 1), BuildingBlock: UVAHIK_clean_linker_0, # of connection points: 2
#     Edge 102, Type (0, 1), BuildingBlock: UVAHIK_clean_linker_0, # of connection points: 2
#     Edge 103, Type (0, 1), BuildingBlock: UVAHIK_clean_linker_0, # of connection points: 2
#     Edge 104, Type (0, 1), BuildingBlock: UVAHIK_clean_linker_0, # of connection points: 2
#     Edge 105, Type (0, 1), BuildingBlock: UVAHIK_clean_linker_0, # of connection points: 2
#     Edge 106, Type (0, 1), BuildingBlock: UVAHIK_clean_linker_0, # of connection points: 2
#     Edge 107, Type (0, 1), BuildingBlock: UVAHIK_clean_linker_0, # of connection points: 2
#     Edge 108, Type (0, 1), BuildingBlock: UVAHIK_clean_linker_0, # of connection points: 2
#     Edge 109, Type (0, 1), BuildingBlock: UVAHIK_clean_linker_0, # of connection points: 2
#     Edge 110, Type (0, 1), BuildingBlock: UVAHIK_clean_linker_0, # of connection points: 2
#     Edge 111, Type (0, 1), BuildingBlock: UVAHIK_clean_linker_0, # of connection points: 2
#     Edge 112, Type (0, 1), BuildingBlock: UVAHIK_clean_linker_0, # of connection points: 2
#     Edge 113, Type (0, 1), BuildingBlock: UVAHIK_clean_linker_0, # of connection points: 2
#     Edge 114, Type (0, 1), BuildingBlock: UVAHIK_clean_linker_0, # of connection points: 2
#     Edge 115, Type (0, 1), BuildingBlock: UVAHIK_clean_linker_0, # of connection points: 2
#     Edge 116, Type (0, 1), BuildingBlock: UVAHIK_clean_linker_0, # of connection points: 2
#     Edge 117, Type (0, 1), BuildingBlock: UVAHIK_clean_linker_0, # of connection points: 2
#     Edge 118, Type (0, 1), BuildingBlock: UVAHIK_clean_linker_0, # of connection points: 2
#     Edge 119, Type (0, 1), BuildingBlock: UVAHIK_clean_linker_0, # of connection points: 2
#     Edge 120, Type (0, 1), BuildingBlock: UVAHIK_clean_linker_0, # of connection points: 2
#     Edge 121, Type (0, 1), BuildingBlock: UVAHIK_clean_linker_0, # of connection points: 2
#     Edge 122, Type (0, 1), BuildingBlock: UVAHIK_clean_linker_0, # of connection points: 2
#     Edge 123, Type (0, 1), BuildingBlock: UVAHIK_clean_linker_0, # of connection points: 2
#     Edge 124, Type (0, 1), BuildingBlock: UVAHIK_clean_linker_0, # of connection points: 2
#     Edge 125, Type (0, 1), BuildingBlock: UVAHIK_clean_linker_0, # of connection points: 2
#     Edge 126, Type (0, 1), BuildingBlock: UVAHIK_clean_linker_0, # of connection points: 2
#     Edge 127, Type (0, 1), BuildingBlock: UVAHIK_clean_linker_0, # of connection points: 2
#     Edge 128, Type (0, 1), BuildingBlock: UVAHIK_clean_linker_0, # of connection points: 2
#     Edge 129, Type (0, 1), BuildingBlock: UVAHIK_clean_linker_0, # of connection points: 2
#     Edge 130, Type (0, 1), BuildingBlock: UVAHIK_clean_linker_0, # of connection points: 2
#     Edge 131, Type (0, 1), BuildingBlock: UVAHIK_clean_linker_0, # of connection points: 2
#     Edge 132, Type (0, 1), BuildingBlock: UVAHIK_clean_linker_0, # of connection points: 2
#     Edge 133, Type (0, 1), BuildingBlock: UVAHIK_clean_linker_0, # of connection points: 2
#     Edge 134, Type (0, 1), BuildingBlock: UVAHIK_clean_linker_0, # of connection points: 2
#     Edge 135, Type (0, 1), BuildingBlock: UVAHIK_clean_linker_0, # of connection points: 2
# Relax obj value: 0.171
# Max RMSD: 0.261
# Mean RMSD: 0.193
data_MOF--net-gar--node1-UXUYUI_clean_sbu_0--node2-BETDEL_clean_sbu_0--edge1-UVAHIK_clean_linker_0
_symmetry_space_group_name_H-M    P1
_symmetry_Int_Tables_number       1
_symmetry_cell_setting            triclinic
loop_
_symmetry_equiv_pos_as_xyz
'x, y, z'
_cell_length_a     83.818423
_cell_length_b     81.19757
_cell_length_c     82.647432
_cell_angle_alpha  95.152773
_cell_angle_beta   92.55619
_cell_angle_gamma 100.08202
loop_
_atom_site_label
_atom_site_type_symbol
_atom_site_fract_x
_atom_site_fract_y
_atom_site_fract_z
_atom_type_partial_charge
Li0 Li -0.00261 0.2585 0.37155 0.0
Li1 Li 0.01188 0.27917 0.392 0.0
Li2 Li 0.02667 0.26197 0.37235 0.0
Li3 Li 0.01058 0.2493 0.39457 0.0
C4 C 0.00642 0.28764 0.35704 0.0
N5 N 0.99232 0.30459 0.33437 0.0
C6 C 0.99232 0.29395 0.36039 0.0
C7 C 0.01334 0.28992 0.34213 0.0
C8 C 0.98537 0.30248 0.34878 0.0
C9 C 0.00604 0.29855 0.33085 0.0
C10 C 0.98524 0.26817 0.40778 0.0
C11 C 0.98616 0.27749 0.43642 0.0
N12 N 0.97124 0.28168 0.43433 0.0
C13 C 0.96992 0.2726 0.40592 0.0
C14 C 0.99343 0.27067 0.42315 0.0
C15 C 0.96305 0.2794 0.41949 0.0
C16 C 0.964 0.24983 0.36337 0.0
N17 N 0.97859 0.25391 0.35688 0.0
C18 C 0.9657 0.25756 0.33145 0.0
C19 C 0.97964 0.25666 0.34095 0.0
C20 C 0.95056 0.2552 0.33838 0.0
C21 C 0.94973 0.25036 0.35428 0.0
H22 H 0.96352 0.24698 0.37588 0.0
H23 H 0.99139 0.25929 0.33591 0.0
C24 C 0.02818 0.30936 0.40943 0.0
N25 N 0.01341 0.3011 0.40306 0.0
C26 C 0.02987 0.32563 0.41723 0.0
C27 C 0.00114 0.32456 0.41174 0.0
C28 C 3e-05 0.30841 0.40398 0.0
C29 C 0.01621 0.33346 0.41845 0.0
H30 H 0.03868 0.30336 0.40831 0.0
H31 H 0.98846 0.30177 0.39867 0.0
C32 C 0.00237 0.22915 0.35994 0.0
N33 N 0.98394 0.20631 0.33665 0.0
C34 C 0.98939 0.21755 0.36446 0.0
C35 C 0.00605 0.22911 0.34361 0.0
C36 C 0.98019 0.20611 0.35249 0.0
C37 C -0.00343 0.21746 0.33201 0.0
C38 C 0.04111 0.26379 0.40796 0.0
C39 C 0.05234 0.25367 0.40337 0.0
C40 C 0.0411 0.27021 0.42423 0.0
C41 C 0.06313 0.24978 0.41521 0.0
C42 C 0.05209 0.26605 0.43571 0.0
N43 N 0.06277 0.25599 0.431 0.0
C44 C 0.05258 0.27705 0.35541 0.0
C45 C 0.05023 0.24756 0.35571 0.0
C46 C 0.06568 0.27755 0.34553 0.0
N47 N 0.04509 0.26218 0.3601 0.0
C48 C 0.06346 0.2475 0.34605 0.0
C49 C 0.07131 0.26263 0.34067 0.0
H50 H 0.04819 0.28847 0.35914 0.0
H51 H 0.044 0.23593 0.3597 0.0
C52 C -0.00191 0.22903 0.41944 0.0
N53 N 0.00985 0.2319 0.40868 0.0
C54 C -0.00253 0.21566 0.42904 0.0
C55 C 0.02073 0.20808 0.41593 0.0
C56 C 0.02094 0.22164 0.40667 0.0
C57 C 0.00884 0.20493 0.42726 0.0
H58 H 0.98889 0.23678 0.4203 0.0
H59 H 0.02977 0.2238 0.3976 0.0
O60 O 0.01325 0.27897 0.36812 0.0
O61 O 0.99234 0.26178 0.39459 0.0
O62 O 0.01128 0.24066 0.37142 0.0
O63 O 0.03044 0.2677 0.39652 0.0
H64 H 0.98653 0.29184 0.37162 0.0
H65 H 0.02411 0.28491 0.33921 0.0
H66 H 0.97437 0.3073 0.35116 0.0
H67 H 0.01123 0.30036 0.31925 0.0
H68 H 0.99237 0.27945 0.44837 0.0
H69 H 0.9635 0.27112 0.39409 0.0
H70 H 0.00524 0.26727 0.4248 0.0
H71 H 0.95123 0.28294 0.41821 0.0
H72 H 0.96697 0.26123 0.31923 0.0
H73 H 0.93825 0.2478 0.35991 0.0
H74 H 0.04179 0.33208 0.42201 0.0
H75 H 0.99022 0.32993 0.41259 0.0
H76 H 0.98638 0.21749 0.37706 0.0
H77 H 0.01601 0.2381 0.33993 0.0
H78 H 0.97006 0.1971 0.35578 0.0
H79 H -0.00078 0.21733 0.31931 0.0
H80 H 0.0526 0.24871 0.39082 0.0
H81 H 0.03281 0.27844 0.42795 0.0
H82 H 0.07178 0.24184 0.41184 0.0
H83 H 0.05218 0.27088 0.44835 0.0
H84 H 0.07113 0.28948 0.34152 0.0
H85 H 0.06752 0.23574 0.34294 0.0
H86 H 0.98789 0.2134 0.43737 0.0
H87 H 0.0297 0.20007 0.41416 0.0
Li88 Li -0.00086 0.79132 0.62654 0.0
Li89 Li 0.01059 0.78041 0.65021 0.0
Li90 Li 0.99498 0.76059 0.62768 0.0
Li91 Li 0.98166 0.77745 0.64722 0.0
C92 C 0.02574 0.77852 0.61455 0.0
N93 N 0.04595 0.78208 0.58908 0.0
C94 C 0.04196 0.78639 0.61747 0.0
C95 C 0.0199 0.77219 0.5987 0.0
C96 C 0.05196 0.78816 0.60443 0.0
C97 C 0.03028 0.77417 0.58598 0.0
C98 C 0.00658 0.81052 0.66148 0.0
C99 C 0.01521 0.82006 0.68951 0.0
N100 N 0.02471 0.83386 0.68462 0.0
C101 C 0.01633 0.82485 0.65675 0.0
C102 C 0.0059 0.80816 0.678 0.0
C103 C 0.02544 0.83648 0.66863 0.0
C104 C 0.98845 0.81268 0.60501 0.0
N105 N 0.00188 0.80879 0.61251 0.0
C106 C 0.01899 0.83062 0.60063 0.0
C107 C 0.01696 0.81749 0.61057 0.0
C108 C 0.00535 0.83488 0.59266 0.0
C109 C 0.98992 0.82567 0.59489 0.0
H110 H 0.97657 0.8058 0.60705 0.0
H111 H 0.02739 0.81448 0.61702 0.0
C112 C 0.02891 0.77087 0.67554 0.0
N113 N 0.02886 0.78287 0.66511 0.0
C114 C 0.04275 0.77058 0.68536 0.0
C115 C 0.05619 0.7953 0.67386 0.0
C116 C 0.04199 0.79519 0.66433 0.0
C117 C 0.05677 0.78262 0.68425 0.0
H118 H 0.01846 0.76103 0.67569 0.0
H119 H 0.04164 0.80454 0.65585 0.0
C120 C 0.96835 0.76791 0.60968 0.0
N121 N 0.94799 0.75432 0.58275 0.0
C122 C 0.9528 0.75903 0.61163 0.0
C123 C 0.9734 0.77015 0.59401 0.0
C124 C 0.94273 0.75218 0.59788 0.0
C125 C 0.96297 0.76311 0.58055 0.0
C126 C 0.98539 0.74993 0.66167 0.0
C127 C 0.97701 0.73393 0.6558 0.0
C128 C 0.98446 0.75586 0.67796 0.0
C129 C 0.96765 0.72422 0.66626 0.0
C130 C 0.97494 0.74578 0.68803 0.0
N131 N 0.9668 0.73031 0.68202 0.0
C132 C 0.00954 0.73496 0.61387 0.0
C133 C 0.98092 0.72897 0.60925 0.0
C134 C 0.01093 0.71975 0.60529 0.0
N135 N 0.99475 0.7394 0.61548 0.0
C136 C 0.98172 0.71348 0.60073 0.0
C137 C -0.00309 0.70879 0.59858 0.0
H138 H 0.02032 0.74325 0.61933 0.0
H139 H 0.96926 0.73249 0.61108 0.0
C140 C 0.962 0.7925 0.66849 0.0
N141 N 0.96285 0.77808 0.65913 0.0
C142 C 0.94918 0.79319 0.67857 0.0
C143 C 0.93809 0.7643 0.66884 0.0
C144 C 0.9511 0.76419 0.65892 0.0
C145 C 0.93712 0.77889 0.67898 0.0
H146 H 0.97142 0.80341 0.66834 0.0
H147 H 0.95201 0.7529 0.65133 0.0
O148 O 0.01576 0.77675 0.6272 0.0
O149 O -0.00232 0.79891 0.65001 0.0
O150 O 0.97834 0.77476 0.62304 0.0
O151 O 0.99456 0.75965 0.65156 0.0
H152 H 0.04677 0.79119 0.62966 0.0
H153 H 0.00756 0.76561 0.59627 0.0
H154 H 0.0645 0.79434 0.60651 0.0
H155 H 0.02589 0.76936 0.57366 0.0
H156 H 0.01487 0.81834 0.70232 0.0
H157 H 0.01689 0.82698 0.64406 0.0
H158 H -0.00166 0.79722 0.6819 0.0
H159 H 0.03309 0.8476 0.66513 0.0
H160 H 0.03111 0.83738 0.59922 0.0
H161 H 0.97906 0.82874 0.58923 0.0
H162 H 0.04278 0.7604 0.69298 0.0
H163 H 0.06676 0.80483 0.67272 0.0
H164 H 0.94858 0.75737 0.62363 0.0
H165 H 0.98515 0.77743 0.59222 0.0
H166 H 0.93072 0.74517 0.59923 0.0
H167 H 0.96676 0.76471 0.56836 0.0
H168 H 0.97767 0.72907 0.64329 0.0
H169 H 0.99093 0.76815 0.68275 0.0
H170 H 0.96105 0.71184 0.66185 0.0
H171 H 0.97403 0.75028 0.70062 0.0
H172 H 0.02283 0.71645 0.60417 0.0
H173 H 0.97063 0.70533 0.59578 0.0
H174 H 0.94894 0.80467 0.68625 0.0
H175 H 0.9289 0.75309 0.66857 0.0
Li176 Li 0.49961 0.76157 0.87119 0.0
Li177 Li 0.51468 0.78094 0.89324 0.0
Li178 Li 0.52954 0.76489 0.87338 0.0
Li179 Li 0.51338 0.75159 0.89441 0.0
C180 C 0.51673 0.78933 0.85543 0.0
N181 N 0.51817 0.80433 0.82672 0.0
C182 C 0.51841 0.80678 0.85575 0.0
C183 C 0.51576 0.77949 0.84053 0.0
C184 C 0.51912 0.81413 0.84109 0.0
C185 C 0.51652 0.78732 0.82614 0.0
C186 C 0.48491 0.77152 0.9038 0.0
C187 C 0.47916 0.78505 0.92953 0.0
N188 N 0.4651 0.78816 0.92261 0.0
C189 C 0.47033 0.77472 0.89698 0.0
C190 C 0.4893 0.77659 0.92024 0.0
C191 C 0.46051 0.78319 0.90667 0.0
C192 C 0.47261 0.74435 0.84939 0.0
N193 N 0.48144 0.75929 0.85605 0.0
C194 C 0.46445 0.77445 0.84163 0.0
C195 C 0.47747 0.77415 0.85254 0.0
C196 C 0.45512 0.75928 0.83458 0.0
C197 C 0.45923 0.74406 0.83858 0.0
H198 H 0.47569 0.73268 0.85263 0.0
H199 H 0.48422 0.78583 0.85851 0.0
C200 C 0.52807 0.80956 0.9148 0.0
N201 N 0.51528 0.80252 0.9043 0.0
C202 C 0.52883 0.82572 0.92252 0.0
C203 C 0.50319 0.82697 0.90851 0.0
C204 C 0.50309 0.81093 0.90085 0.0
C205 C 0.51622 0.83465 0.91951 0.0
H206 H 0.53779 0.80271 0.917 0.0
H207 H 0.49325 0.80514 0.89214 0.0
C208 C 0.50797 0.72976 0.86089 0.0
N209 N 0.49676 0.70067 0.84065 0.0
C210 C 0.49775 0.71633 0.86668 0.0
C211 C 0.51259 0.72834 0.84485 0.0
C212 C 0.4922 0.70173 0.85625 0.0
C213 C 0.50675 0.71355 0.8348 0.0
C214 C 0.54151 0.76332 0.90953 0.0
C215 C 0.55328 0.75364 0.90556 0.0
C216 C 0.53782 0.76612 0.92576 0.0
C217 C 0.56103 0.74671 0.91791 0.0
C218 C 0.54583 0.75896 0.93775 0.0
N219 N 0.55716 0.74948 0.93361 0.0
C220 C 0.5547 0.77952 0.85476 0.0
C221 C 0.55329 0.75049 0.85745 0.0
C222 C 0.56734 0.77942 0.84436 0.0
N223 N 0.54782 0.76513 0.86082 0.0
C224 C 0.56611 0.74987 0.84734 0.0
C225 C 0.57321 0.76443 0.84045 0.0
H226 H 0.55021 0.79103 0.85777 0.0
H227 H 0.54759 0.73926 0.86253 0.0
C228 C 0.50285 0.73317 0.92089 0.0
N229 N 0.51232 0.73378 0.90795 0.0
C230 C 0.50171 0.71964 0.93036 0.0
C231 C 0.52012 0.70773 0.91299 0.0
C232 C 0.52097 0.7215 0.90394 0.0
C233 C 0.51026 0.7066 0.9263 0.0
H234 H 0.49601 0.74305 0.92373 0.0
H235 H 0.52838 0.72234 0.89355 0.0
O236 O 0.51581 0.78195 0.86968 0.0
O237 O 0.49469 0.76325 0.89447 0.0
O238 O 0.51375 0.74405 0.87099 0.0
O239 O 0.53349 0.76983 0.89757 0.0
H240 H 0.51912 0.81454 0.8672 0.0
H241 H 0.51432 0.76597 0.8401 0.0
H242 H 0.52041 0.82763 0.84114 0.0
H243 H 0.51576 0.77987 0.81451 0.0
H244 H 0.48248 0.78917 0.94223 0.0
H245 H 0.4666 0.77066 0.88435 0.0
H246 H 0.5005 0.77419 0.92573 0.0
H247 H 0.44922 0.78578 0.90154 0.0
H248 H 0.46132 0.78643 0.83921 0.0
H249 H 0.4521 0.73212 0.83352 0.0
H250 H 0.53933 0.83121 0.93056 0.0
H251 H 0.49306 0.83316 0.90593 0.0
H252 H 0.49401 0.71723 0.87904 0.0
H253 H 0.52065 0.73851 0.84022 0.0
H254 H 0.48424 0.69127 0.86054 0.0
H255 H 0.5102 0.7123 0.82235 0.0
H256 H 0.55628 0.75136 0.89306 0.0
H257 H 0.52881 0.77365 0.92904 0.0
H258 H 0.57009 0.73911 0.91501 0.0
H259 H 0.54302 0.76093 0.95035 0.0
H260 H 0.57222 0.79091 0.83923 0.0
H261 H 0.57042 0.73812 0.84503 0.0
H262 H 0.49386 0.71915 0.94043 0.0
H263 H 0.52706 0.69803 0.90958 0.0
Li264 Li 0.49993 0.29471 0.12907 0.0
Li265 Li 0.51096 0.28338 0.15265 0.0
Li266 Li 0.49478 0.26396 0.13027 0.0
Li267 Li 0.48221 0.28152 0.14981 0.0
C268 C 0.52555 0.27914 0.11669 0.0
N269 N 0.54513 0.27849 0.09068 0.0
C270 C 0.54213 0.28581 0.11888 0.0
C271 C 0.519 0.27189 0.10132 0.0
C272 C 0.55181 0.28545 0.10556 0.0
C273 C 0.52907 0.27174 0.08831 0.0
C274 C 0.50847 0.31383 0.16368 0.0
C275 C 0.51833 0.32326 0.19142 0.0
N276 N 0.52828 0.33653 0.18613 0.0
C277 C 0.51872 0.3276 0.15852 0.0
C278 C 0.50819 0.31168 0.18027 0.0
C279 C 0.52866 0.33893 0.17006 0.0
C280 C 0.48982 0.31785 0.10939 0.0
N281 N 0.50312 0.3122 0.11511 0.0
C282 C 0.5206 0.33238 0.10163 0.0
C283 C 0.51833 0.3192 0.11151 0.0
C284 C 0.50708 0.33843 0.09546 0.0
C285 C 0.49152 0.33093 0.09939 0.0
H286 H 0.47789 0.31227 0.11272 0.0
H287 H 0.52872 0.31481 0.11657 0.0
C288 C 0.52867 0.27382 0.17852 0.0
N289 N 0.52927 0.28523 0.16741 0.0
C290 C 0.54243 0.27309 0.18831 0.0
C291 C 0.55711 0.2962 0.17536 0.0
C292 C 0.54298 0.29657 0.16589 0.0
C293 C 0.557 0.28407 0.18647 0.0
H294 H 0.51774 0.26475 0.17927 0.0
H295 H 0.5431 0.30548 0.15691 0.0
C296 C 0.46906 0.27389 0.11169 0.0
N297 N 0.44934 0.26427 0.0835 0.0
C298 C 0.45291 0.26606 0.11248 0.0
C299 C 0.4751 0.27703 0.09655 0.0
C300 C 0.44316 0.26124 0.0981 0.0
C301 C 0.46497 0.27201 0.08245 0.0
C302 C 0.48459 0.2536 0.16385 0.0
C303 C 0.47558 0.23805 0.15747 0.0
C304 C 0.48353 0.25926 0.18018 0.0
C305 C 0.46554 0.22847 0.16752 0.0
C306 C 0.47332 0.24934 0.18982 0.0
N307 N 0.4646 0.23428 0.18335 0.0
C308 C 0.50596 0.23443 0.12329 0.0
C309 C 0.48215 0.23512 0.10701 0.0
C310 C 0.50677 0.21842 0.11607 0.0
N311 N 0.4938 0.24241 0.1187 0.0
C312 C 0.48256 0.21916 0.09935 0.0
C313 C 0.49498 0.21055 0.10387 0.0
H314 H 0.51499 0.24051 0.13271 0.0
H315 H 0.47253 0.24158 0.10357 0.0
C316 C 0.46316 0.29591 0.17247 0.0
N317 N 0.46344 0.28234 0.16167 0.0
C318 C 0.45032 0.29603 0.18264 0.0
C319 C 0.4381 0.26842 0.17001 0.0
C320 C 0.45113 0.26887 0.16005 0.0
C321 C 0.43771 0.28203 0.18164 0.0
H322 H 0.47308 0.30649 0.17345 0.0
H323 H 0.45167 0.25823 0.15139 0.0
O324 O 0.51593 0.2794 0.12964 0.0
O325 O 0.49875 0.30252 0.15256 0.0
O326 O 0.47873 0.27874 0.12569 0.0
O327 O 0.4944 0.26321 0.15415 0.0
H328 H 0.54748 0.29131 0.13071 0.0
H329 H 0.50632 0.26627 0.09945 0.0
H330 H 0.56463 0.29068 0.10707 0.0
H331 H 0.52413 0.2662 0.07635 0.0
H332 H 0.51831 0.32169 0.20428 0.0
H333 H 0.51903 0.32951 0.14576 0.0
H334 H 0.50033 0.30109 0.18447 0.0
H335 H 0.5367 0.34962 0.16623 0.0
H336 H 0.53281 0.33781 0.09889 0.0
H337 H 0.4808 0.33543 0.09515 0.0
H338 H 0.54191 0.26336 0.19651 0.0
H339 H 0.56811 0.30493 0.17365 0.0
H340 H 0.44794 0.26369 0.12406 0.0
H341 H 0.48743 0.28337 0.09566 0.0
H342 H 0.43067 0.2551 0.09855 0.0
H343 H 0.46951 0.27433 0.07066 0.0
H344 H 0.47622 0.23345 0.14487 0.0
H345 H 0.49038 0.27128 0.18532 0.0
H346 H 0.45845 0.21644 0.16273 0.0
H347 H 0.47229 0.25363 0.20245 0.0
H348 H 0.51641 0.21222 0.1202 0.0
H349 H 0.47333 0.21374 0.08986 0.0
H350 H 0.45051 0.30675 0.19149 0.0
H351 H 0.42849 0.25749 0.16867 0.0
Li352 Li 0.01269 0.7911 0.11934 0.0
Li353 Li 0.02846 0.77911 0.1396 0.0
Li354 Li 0.01062 0.7609 0.11722 0.0
Li355 Li -0.00141 0.77449 0.14035 0.0
C356 C 0.03948 0.7862 0.10464 0.0
N357 N 0.05777 0.80307 0.08223 0.0
C358 C 0.05419 0.79679 0.10967 0.0
C359 C 0.03417 0.784 0.08819 0.0
C360 C 0.06325 0.80525 0.09816 0.0
C361 C 0.04355 0.79271 0.07706 0.0
C362 C 0.01992 0.80643 0.15728 0.0
C363 C 0.02363 0.8109 0.18654 0.0
N364 N 0.03118 0.82697 0.18539 0.0
C365 C 0.02757 0.82302 0.15638 0.0
C366 C 0.01781 0.80034 0.17247 0.0
C367 C 0.03324 0.8332 0.17074 0.0
C368 C -0.00132 0.80949 0.09726 0.0
N369 N 0.01223 0.80962 0.10696 0.0
C370 C 0.02504 0.83543 0.0977 0.0
C371 C 0.0252 0.82236 0.10755 0.0
C372 C 0.01131 0.83544 0.0873 0.0
C373 C -0.00203 0.82229 0.08724 0.0
H374 H 0.98842 0.7994 0.09723 0.0
H375 H 0.03571 0.82232 0.1156 0.0
C376 C 0.05355 0.76588 0.15355 0.0
N377 N 0.04873 0.78074 0.15155 0.0
C378 C 0.06881 0.7656 0.16087 0.0
C379 C 0.07393 0.79598 0.16402 0.0
C380 C 0.05854 0.79566 0.1566 0.0
C381 C 0.0793 0.7808 0.1661 0.0
H382 H 0.04562 0.75419 0.14915 0.0
H383 H 0.05468 0.80731 0.15441 0.0
C384 C 0.98102 0.76467 0.10561 0.0
N385 N 0.95782 0.74605 0.08321 0.0
C386 C 0.96669 0.75573 0.11084 0.0
C387 C 0.98347 0.76426 0.08896 0.0
C388 C 0.95512 0.74637 0.09933 0.0
C389 C 0.97163 0.75474 0.07784 0.0
C390 C 0.00897 0.74629 0.15162 0.0
C391 C -0.00028 0.73048 0.14648 0.0
C392 C 0.01423 0.7503 0.168 0.0
C393 C 0.99559 0.71904 0.15793 0.0
C394 C 0.00984 0.73852 0.17908 0.0
N395 N 0.00067 0.72328 0.17386 0.0
C396 C 0.02467 0.74008 0.09613 0.0
C397 C -0.00322 0.72951 0.09852 0.0
C398 C 0.02599 0.72639 0.08518 0.0
N399 N 0.01023 0.74148 0.10245 0.0
C400 C -0.00252 0.71567 0.08742 0.0
C401 C 0.01227 0.71395 0.08061 0.0
H402 H 0.0353 0.74953 0.09977 0.0
H403 H 0.98553 0.73063 0.10401 0.0
C404 C 0.97701 0.78867 0.15953 0.0
N405 N 0.98077 0.77358 0.15414 0.0
C406 C 0.96378 0.78946 0.16905 0.0
C407 C 0.95832 0.75911 0.16725 0.0
C408 C 0.97171 0.75892 0.15777 0.0
C409 C 0.95414 0.77455 0.17296 0.0
H410 H 0.98421 0.80014 0.15626 0.0
H411 H 0.97456 0.74706 0.15296 0.0
O412 O 0.03034 0.77798 0.11577 0.0
O413 O 0.01433 0.79629 0.14335 0.0
O414 O 0.99246 0.77394 0.11671 0.0
O415 O 0.01321 0.75759 0.14056 0.0
H416 H 0.05852 0.79858 0.12233 0.0
H417 H 0.02292 0.77569 0.08408 0.0
H418 H 0.07461 0.81358 0.10189 0.0
H419 H 0.03954 0.7912 0.0643 0.0
H420 H 0.02211 0.80634 0.19838 0.0
H421 H 0.02919 0.82797 0.14472 0.0
H422 H 0.01163 0.78763 0.17337 0.0
H423 H 0.03927 0.84604 0.17023 0.0
H424 H 0.03547 0.84549 0.09834 0.0
H425 H 0.98718 0.82176 0.07937 0.0
H426 H 0.07235 0.75361 0.16238 0.0
H427 H 0.08172 0.80798 0.16763 0.0
H428 H 0.96452 0.756 0.12364 0.0
H429 H 0.99442 0.77119 0.08468 0.0
H430 H 0.94401 0.73935 0.10322 0.0
H431 H 0.97342 0.75425 0.06493 0.0
H432 H 0.99566 0.72714 0.13382 0.0
H433 H 0.02173 0.76231 0.17211 0.0
H434 H 0.98834 0.70681 0.15415 0.0
H435 H 0.01378 0.74147 0.19181 0.0
H436 H 0.03774 0.72541 0.08065 0.0
H437 H 0.98655 0.70646 0.08422 0.0
H438 H 0.96116 0.80165 0.17331 0.0
H439 H 0.95107 0.7473 0.1697 0.0
Li440 Li 0.50232 0.77681 0.40198 0.0
Li441 Li 0.48296 0.76207 0.3811 0.0
Li442 Li 0.49866 0.74657 0.40026 0.0
Li443 Li 0.51214 0.76286 0.37853 0.0
C444 C 0.47423 0.76745 0.41719 0.0
N445 N 0.45863 0.7815 0.44223 0.0
C446 C 0.46793 0.78206 0.41535 0.0
C447 C 0.47253 0.75993 0.43173 0.0
C448 C 0.46013 0.789 0.42817 0.0
C449 C 0.4646 0.76723 0.44425 0.0
C450 C 0.49593 0.78907 0.36554 0.0
C451 C 0.49063 0.78748 0.33646 0.0
N452 N 0.48637 0.80292 0.33814 0.0
C453 C 0.49147 0.80494 0.36698 0.0
C454 C 0.49547 0.78027 0.35016 0.0
C455 C 0.48668 0.81171 0.35299 0.0
C456 C 0.50954 0.81141 0.41143 0.0
N457 N 0.50633 0.79623 0.41741 0.0
C458 C 0.50408 0.8093 0.44407 0.0
C459 C 0.50441 0.79496 0.43354 0.0
C460 C 0.50587 0.82502 0.43789 0.0
C461 C 0.50928 0.82607 0.4215 0.0
H462 H 0.5117 0.81208 0.39872 0.0
H463 H 0.50227 0.78274 0.43807 0.0
C464 C 0.45369 0.74678 0.36272 0.0
N465 N 0.46236 0.76148 0.3701 0.0
C466 C 0.43845 0.74645 0.35492 0.0
C467 C 0.44144 0.77633 0.36249 0.0
C468 C 0.45645 0.77604 0.37028 0.0
C469 C 0.43225 0.76143 0.35466 0.0
H470 H 0.45858 0.73532 0.36295 0.0
H471 H 0.46333 0.78746 0.37655 0.0
C472 C 0.53086 0.77209 0.41232 0.0
N473 N 0.55369 0.79208 0.43412 0.0
C474 C 0.54198 0.78506 0.40695 0.0
C475 C 0.53136 0.76923 0.42875 0.0
C476 C 0.55343 0.79504 0.41818 0.0
C477 C 0.543 0.7795 0.43958 0.0
C478 C 0.49694 0.73085 0.36419 0.0
C479 C 0.50511 0.71804 0.36825 0.0
C480 C 0.49137 0.73123 0.34806 0.0
C481 C 0.508 0.70611 0.35599 0.0
C482 C 0.4945 0.71906 0.33615 0.0
N483 N 0.5027 0.70688 0.34033 0.0
C484 C 0.48441 0.71811 0.41552 0.0
C485 C 0.51318 0.7246 0.41728 0.0
C486 C 0.4847 0.70484 0.42513 0.0
N487 N 0.49854 0.72771 0.41196 0.0
C488 C 0.51404 0.71159 0.42699 0.0
C489 C 0.49968 0.70154 0.43113 0.0
H490 H 0.47295 0.72091 0.41106 0.0
H491 H 0.5242 0.73244 0.41418 0.0
C492 C 0.53459 0.77608 0.35567 0.0
N493 N 0.52964 0.76291 0.36443 0.0
C494 C 0.54767 0.77596 0.34578 0.0
C495 C 0.55079 0.74908 0.35462 0.0
C496 C 0.53765 0.74973 0.36431 0.0
C497 C 0.55595 0.7623 0.34512 0.0
H498 H 0.52857 0.78681 0.35649 0.0
H499 H 0.53406 0.73985 0.37203 0.0
O500 O 0.48208 0.76054 0.40487 0.0
O501 O 0.50024 0.78201 0.37916 0.0
O502 O 0.5194 0.76237 0.40156 0.0
O503 O 0.49397 0.74261 0.37605 0.0
H504 H 0.46942 0.78821 0.40432 0.0
H505 H 0.47739 0.74866 0.43338 0.0
H506 H 0.45535 0.8004 0.42697 0.0
H507 H 0.46323 0.76158 0.45558 0.0
H508 H 0.49027 0.78079 0.32448 0.0
H509 H 0.49134 0.81182 0.37877 0.0
H510 H 0.49892 0.76805 0.34882 0.0
H511 H 0.48312 0.82393 0.35394 0.0
H512 H 0.5015 0.80798 0.45666 0.0
H513 H 0.51121 0.83804 0.41639 0.0
H514 H 0.43169 0.7347 0.34899 0.0
H515 H 0.43695 0.78808 0.3628 0.0
H516 H 0.54169 0.78745 0.39427 0.0
H517 H 0.52272 0.75935 0.43312 0.0
H518 H 0.56209 0.80517 0.41422 0.0
H519 H 0.54348 0.7775 0.45235 0.0
H520 H 0.50933 0.71744 0.3807 0.0
H521 H 0.48458 0.74071 0.34476 0.0
H522 H 0.51446 0.69623 0.35894 0.0
H523 H 0.49033 0.71926 0.32361 0.0
H524 H 0.47333 0.69726 0.4278 0.0
H525 H 0.52585 0.70969 0.43148 0.0
H526 H 0.55124 0.78646 0.33871 0.0
H527 H 0.55709 0.73854 0.3549 0.0
Li528 Li 0.51546 0.29191 0.6226 0.0
Li529 Li 0.53044 0.27834 0.6423 0.0
Li530 Li 0.51311 0.2611 0.61904 0.0
Li531 Li 0.50092 0.27382 0.64262 0.0
C532 C 0.54127 0.28289 0.60552 0.0
N533 N 0.55848 0.29161 0.57889 0.0
C534 C 0.55739 0.29124 0.60769 0.0
C535 C 0.53396 0.27882 0.58981 0.0
C536 C 0.56587 0.29559 0.59407 0.0
C537 C 0.54285 0.28338 0.5765 0.0
C538 C 0.52443 0.30633 0.65933 0.0
C539 C 0.53251 0.31273 0.68788 0.0
N540 N 0.54062 0.32805 0.6848 0.0
C541 C 0.53272 0.32218 0.65645 0.0
C542 C 0.5242 0.30159 0.67516 0.0
C543 C 0.54088 0.33297 0.6695 0.0
C544 C 0.50075 0.31404 0.60562 0.0
N545 N 0.51539 0.31107 0.61117 0.0
C546 C 0.52921 0.33458 0.59885 0.0
C547 C 0.52948 0.32116 0.60824 0.0
C548 C 0.51429 0.33746 0.59239 0.0
C549 C 0.49992 0.32712 0.59597 0.0
H550 H 0.48971 0.30612 0.60854 0.0
H551 H 0.54093 0.31875 0.61312 0.0
C552 C 0.55427 0.26597 0.66024 0.0
N553 N 0.55067 0.28009 0.65437 0.0
C554 C 0.56946 0.26619 0.668 0.0
C555 C 0.57694 0.29552 0.66367 0.0
C556 C 0.56166 0.29468 0.65583 0.0
C557 C 0.58104 0.2811 0.66976 0.0
H558 H 0.54545 0.25443 0.65861 0.0
H559 H 0.55873 0.30555 0.65054 0.0
C560 C 0.48341 0.26897 0.60705 0.0
N561 N 0.45905 0.25783 0.58288 0.0
C562 C 0.46897 0.25883 0.61057 0.0
C563 C 0.48543 0.27351 0.59124 0.0
C564 C 0.45681 0.25331 0.59818 0.0
C565 C 0.47298 0.26773 0.57919 0.0
C566 C 0.50884 0.24478 0.65198 0.0
C567 C 0.50008 0.2293 0.64511 0.0
C568 C 0.51112 0.24805 0.66889 0.0
C569 C 0.49355 0.21739 0.65534 0.0
C570 C 0.50437 0.23583 0.6787 0.0
N571 N 0.49579 0.22088 0.67178 0.0
C572 C 0.52776 0.23724 0.60301 0.0
C573 C 0.50082 0.23572 0.59228 0.0
C574 C 0.53022 0.22463 0.59128 0.0
N575 N 0.5133 0.2426 0.60324 0.0
C576 C 0.50283 0.22328 0.58014 0.0
C577 C 0.51772 0.21756 0.57947 0.0
H578 H 0.53747 0.24292 0.61191 0.0
H579 H 0.48935 0.23991 0.59272 0.0
C580 C 0.48035 0.28693 0.66397 0.0
N581 N 0.48279 0.27223 0.65609 0.0
C582 C 0.46696 0.28734 0.67335 0.0
C583 C 0.45875 0.25741 0.66647 0.0
C584 C 0.47231 0.2576 0.65716 0.0
C585 C 0.45586 0.27246 0.67461 0.0
H586 H 0.4887 0.29845 0.66277 0.0
H587 H 0.47421 0.24613 0.65047 0.0
O588 O 0.53278 0.27865 0.61873 0.0
O589 O 0.51637 0.29561 0.64672 0.0
O590 O 0.49539 0.27456 0.61907 0.0
O591 O 0.5154 0.25654 0.64218 0.0
H592 H 0.56326 0.29441 0.61977 0.0
H593 H 0.52158 0.27217 0.5879 0.0
H594 H 0.57833 0.30213 0.59557 0.0
H595 H 0.53732 0.28034 0.56427 0.0
H596 H 0.53248 0.30921 0.7002 0.0
H597 H 0.53291 0.32607 0.64427 0.0
H598 H 0.51765 0.28945 0.6776 0.0
H599 H 0.54742 0.34525 0.66745 0.0
H600 H 0.54052 0.34242 0.59641 0.0
H601 H 0.48818 0.32922 0.59148 0.0
H602 H 0.57211 0.25482 0.67261 0.0
H603 H 0.58561 0.30719 0.66455 0.0
H604 H 0.46718 0.25521 0.62271 0.0
H605 H 0.49647 0.28139 0.58826 0.0
H606 H 0.44559 0.24542 0.60074 0.0
H607 H 0.4744 0.27112 0.56691 0.0
H608 H 0.49829 0.22657 0.63202 0.0
H609 H 0.51805 0.25989 0.67437 0.0
H610 H 0.48668 0.20537 0.65021 0.0
H611 H 0.50599 0.23821 0.69181 0.0
H612 H 0.54177 0.2204 0.59161 0.0
H613 H 0.49285 0.2184 0.57126 0.0
H614 H 0.46532 0.2992 0.67954 0.0
H615 H 0.45039 0.24569 0.6669 0.0
Li616 Li 0.00367 0.27987 0.90309 0.0
Li617 Li 0.9845 0.26356 0.88193 0.0
Li618 Li 0.0004 0.24989 0.90094 0.0
Li619 Li 0.01373 0.26512 0.87938 0.0
C620 C 0.97355 0.25443 0.91538 0.0
N621 N 0.9533 0.23468 0.93435 0.0
C622 C 0.95787 0.24692 0.90935 0.0
C623 C 0.9789 0.25193 0.9311 0.0
C624 C 0.94782 0.23698 0.91913 0.0
C625 C 0.96849 0.24187 0.94048 0.0
C626 C 0.99534 0.29146 0.86747 0.0
C627 C 0.98678 0.29137 0.83921 0.0
N628 N 0.98185 0.30632 0.8427 0.0
C629 C 0.9902 0.30683 0.87079 0.0
C630 C 0.99363 0.28367 0.85156 0.0
C631 C 0.98341 0.31413 0.8581 0.0
C632 C 0.01216 0.31493 0.91293 0.0
N633 N 0.00667 0.29957 0.91794 0.0
C634 C 0.00158 0.31202 0.94404 0.0
C635 C 0.00174 0.29789 0.93323 0.0
C636 C 0.00628 0.32806 0.93893 0.0
C637 C 0.01194 0.32948 0.92327 0.0
H638 H 0.01614 0.31589 0.90073 0.0
H639 H -0.00257 0.28558 0.93689 0.0
C640 C 0.9566 0.24949 0.86056 0.0
N641 N 0.96395 0.26306 0.87073 0.0
C642 C 0.94151 0.24953 0.85259 0.0
C643 C 0.94196 0.27747 0.86567 0.0
C644 C 0.9568 0.27673 0.87366 0.0
C645 C 0.93416 0.26375 0.85498 0.0
H646 H 0.9624 0.23864 0.85869 0.0
H647 H 0.96267 0.28711 0.88221 0.0
C648 C 0.03276 0.27713 0.91197 0.0
N649 N 0.05564 0.30065 0.93066 0.0
C650 C 0.04401 0.28835 0.90449 0.0
C651 C 0.03314 0.27787 0.92895 0.0
C652 C 0.05549 0.30014 0.91416 0.0
C653 C 0.0448 0.28985 0.93818 0.0
C654 C 0.00059 0.23322 0.86595 0.0
C655 C 0.0092 0.2212 0.87115 0.0
C656 C -0.00337 0.23334 0.84936 0.0
C657 C 0.01394 0.20964 0.85962 0.0
C658 C 0.00159 0.22157 0.83821 0.0
N659 N 0.01009 0.21007 0.84352 0.0
C660 C 0.98759 0.21807 0.91151 0.0
C661 C 0.01374 0.2309 0.92292 0.0
C662 C 0.9874 0.20476 0.92113 0.0
N663 N 0.00051 0.23092 0.91282 0.0
C664 C 0.01411 0.21784 0.93269 0.0
C665 C 0.00076 0.20461 0.93199 0.0
H666 H 0.97731 0.21833 0.9032 0.0
H667 H 0.02397 0.24111 0.9235 0.0
C668 C 0.03452 0.27678 0.85436 0.0
N669 N 0.03113 0.26506 0.86508 0.0
C670 C 0.04762 0.27659 0.84448 0.0
C671 C 0.05369 0.25248 0.85703 0.0
C672 C 0.04056 0.25321 0.86673 0.0
C673 C 0.05738 0.26427 0.84569 0.0
H674 H 0.02723 0.28644 0.85363 0.0
H675 H 0.03803 0.24447 0.8758 0.0
O676 O 0.98356 0.26425 0.90597 0.0
O677 O 0.00175 0.28393 0.87977 0.0
O678 O 0.02117 0.26578 0.90271 0.0
O679 O 0.99581 0.24463 0.87706 0.0
H680 H 0.95346 0.24871 0.89727 0.0
H681 H 0.99111 0.25723 0.93587 0.0
H682 H 0.93567 0.23109 0.9146 0.0
H683 H 0.97255 0.23969 0.95258 0.0
H684 H 0.98536 0.28546 0.82684 0.0
H685 H 0.99122 0.31294 0.88306 0.0
H686 H -0.00247 0.27179 0.8488 0.0
H687 H 0.97933 0.32599 0.8605 0.0
H688 H -0.00298 0.31043 0.95597 0.0
H689 H 0.01578 0.34168 0.91898 0.0
H690 H 0.9358 0.23871 0.84443 0.0
H691 H 0.93654 0.28855 0.86798 0.0
H692 H 0.04379 0.28808 0.89137 0.0
H693 H 0.02435 0.26948 0.93496 0.0
H694 H 0.06424 0.30893 0.90854 0.0
H695 H 0.04518 0.29063 0.95133 0.0
H696 H 0.01236 0.22089 0.88394 0.0
H697 H 0.98974 0.24236 0.84513 0.0
H698 H 0.02071 0.20033 0.86346 0.0
H699 H -0.00135 0.22155 0.82532 0.0
H700 H 0.97698 0.19466 0.92003 0.0
H701 H 0.02463 0.21827 0.94093 0.0
H702 H 0.05004 0.28594 0.83593 0.0
H703 H 0.0611 0.24302 0.85869 0.0
Li704 Li 0.39497 0.03412 0.28115 0.0
Li705 Li 0.37438 0.02015 0.26146 0.0
Li706 Li 0.39871 0.03319 0.25196 0.0
Li707 Li 0.37847 0.04982 0.26338 0.0
C708 C 0.41077 0.00972 0.26889 0.0
N709 N 0.44063 0.0008 0.27527 0.0
C710 C 0.41189 0.99292 0.27031 0.0
C711 C 0.42488 0.02196 0.27074 0.0
C712 C 0.42708 0.98867 0.27354 0.0
C713 C 0.43985 0.01721 0.27395 0.0
C714 C 0.35913 0.02664 0.28819 0.0
C715 C 0.33134 0.0224 0.29569 0.0
N716 N 0.33357 0.00824 0.30245 0.0
C717 C 0.36118 0.01213 0.29532 0.0
C718 C 0.34412 0.03189 0.28842 0.0
C719 C 0.34809 0.00295 0.30241 0.0
C720 C 0.4122 0.04947 0.31039 0.0
N721 N 0.40547 0.03457 0.30191 0.0
C722 C 0.41548 0.01929 0.32224 0.0
C723 C 0.40667 0.01965 0.30765 0.0
C724 C 0.42289 0.03443 0.33109 0.0
C725 C 0.42098 0.0497 0.32521 0.0
H726 H 0.41098 0.06114 0.3055 0.0
H727 H 0.40104 0.00799 0.30076 0.0
C728 C 0.3625 0.98566 0.25697 0.0
N729 N 0.35769 0.00081 0.25758 0.0
C730 C 0.35103 0.97092 0.25597 0.0
C731 C 0.32978 0.98756 0.25524 0.0
C732 C 0.34169 0.00202 0.25644 0.0
C733 C 0.33447 0.97183 0.25541 0.0
H734 H 0.37526 0.98507 0.25768 0.0
H735 H 0.33817 0.01423 0.25698 0.0
C736 C 0.41348 0.06707 0.265 0.0
N737 N 0.4353 0.09487 0.25813 0.0
C738 C 0.40925 0.0772 0.2533 0.0
C739 C 0.42876 0.07118 0.27332 0.0
C740 C 0.42046 0.09118 0.24996 0.0
C741 C 0.43964 0.08524 0.26963 0.0
C742 C 0.365 0.02618 0.23209 0.0
C743 C 0.36798 0.01245 0.22197 0.0
C744 C 0.34989 0.03116 0.23076 0.0
C745 C 0.3557 0.00382 0.21077 0.0
C746 C 0.33794 0.02222 0.2194 0.0
N747 N 0.34107 0.00884 0.20973 0.0
C748 C 0.41423 0.0143 0.23067 0.0
C749 C 0.42305 0.04344 0.2292 0.0
C750 C 0.42481 0.01037 0.21905 0.0
N751 N 0.41366 0.03058 0.23568 0.0
C752 C 0.43358 0.04008 0.2172 0.0
C753 C 0.43458 0.02333 0.21198 0.0
H754 H 0.4064 0.00426 0.23573 0.0
H755 H 0.42225 0.05627 0.23308 0.0
C756 C 0.36287 0.07456 0.27725 0.0
N757 N 0.36808 0.06852 0.26296 0.0
C758 C 0.35258 0.08631 0.2774 0.0
C759 C 0.35401 0.0861 0.24821 0.0
C760 C 0.36417 0.07423 0.24862 0.0
C761 C 0.34771 0.09194 0.26268 0.0
H762 H 0.36608 0.0696 0.28843 0.0
H763 H 0.36839 0.06906 0.23742 0.0
O764 O 0.39588 0.01404 0.26584 0.0
O765 O 0.37173 0.0356 0.28092 0.0
O766 O 0.40258 0.0535 0.26866 0.0
O767 O 0.37685 0.03476 0.24317 0.0
H768 H 0.40114 0.98324 0.26904 0.0
H769 H 0.42435 0.03496 0.26964 0.0
H770 H 0.4281 0.97572 0.27469 0.0
H771 H 0.45084 0.02658 0.27538 0.0
H772 H 0.31963 0.02626 0.29589 0.0
H773 H 0.37265 0.00779 0.29507 0.0
H774 H 0.34228 0.04304 0.28288 0.0
H775 H 0.34947 0.9916 0.30782 0.0
H776 H 0.41651 0.00728 0.32655 0.0
H777 H 0.42657 0.06162 0.33175 0.0
H778 H 0.35505 0.95894 0.25593 0.0
H779 H 0.31708 0.98869 0.25491 0.0
H780 H 0.39757 0.07414 0.24664 0.0
H781 H 0.43219 0.06361 0.28257 0.0
H782 H 0.41738 0.09906 0.24085 0.0
H783 H 0.45151 0.08853 0.27595 0.0
H784 H 0.37958 0.00843 0.22283 0.0
H785 H 0.34729 0.04162 0.23861 0.0
H786 H 0.35781 0.99313 0.20291 0.0
H787 H 0.32616 0.02586 0.21833 0.0
H788 H 0.42526 -0.00272 0.21568 0.0
H789 H 0.44058 0.05051 0.21187 0.0
H790 H 0.34788 0.09028 0.28882 0.0
H791 H 0.35081 0.09032 0.23664 0.0
Li792 Li 0.26605 0.17226 0.51592 0.0
Li793 Li 0.27672 0.14819 0.50288 0.0
Li794 Li 0.26367 0.16695 0.48629 0.0
Li795 Li 0.24678 0.14634 0.50256 0.0
C796 C 0.29619 0.18552 0.5053 0.0
N797 N 0.3212 0.21207 0.5149 0.0
C798 C 0.31058 0.18262 0.51282 0.0
C799 C 0.29459 0.20189 0.5025 0.0
C800 C 0.32307 0.19622 0.51761 0.0
C801 C 0.30735 0.21515 0.5075 0.0
C802 C 0.26486 0.13824 0.53314 0.0
C803 C 0.26202 0.11037 0.54181 0.0
N804 N 0.26934 0.11699 0.55655 0.0
C805 C 0.27225 0.1448 0.5484 0.0
C806 C 0.25961 0.12092 0.52982 0.0
C807 C 0.27445 0.13384 0.56007 0.0
C808 C 0.2529 0.19178 0.53897 0.0
N809 N 0.26745 0.18879 0.53401 0.0
C810 C 0.28144 0.20798 0.55579 0.0
C811 C 0.28161 0.19656 0.54213 0.0
C812 C 0.26654 0.21109 0.56143 0.0
C813 C 0.25214 0.20286 0.5527 0.0
H814 H 0.2418 0.18517 0.53248 0.0
H815 H 0.29302 0.19371 0.53827 0.0
C816 C 0.29829 0.12795 0.48959 0.0
N817 N 0.29388 0.13535 0.5037 0.0
C818 C 0.31076 0.1186 0.48971 0.0
C819 C 0.31458 0.12529 0.51884 0.0
C820 C 0.30187 0.13433 0.51816 0.0
C821 C 0.31917 0.11717 0.50447 0.0
H822 H 0.29227 0.1294 0.47815 0.0
H823 H 0.29862 0.14084 0.52916 0.0
C824 C 0.23756 0.1817 0.49537 0.0
N825 N 0.21988 0.20398 0.48315 0.0
C826 C 0.22198 0.17588 0.4881 0.0
C827 C 0.24408 0.19885 0.49663 0.0
C828 C 0.21325 0.18735 0.48194 0.0
C829 C 0.23497 0.20991 0.49031 0.0
C830 C 0.26025 0.1286 0.47311 0.0
C831 C 0.26478 0.13109 0.45732 0.0
C832 C 0.25608 0.11227 0.47756 0.0
C833 C 0.26519 0.11715 0.44624 0.0
C834 C 0.25663 0.09866 0.46612 0.0
N835 N 0.26115 0.10136 0.45084 0.0
C836 C 0.27905 0.18456 0.46194 0.0
C837 C 0.25059 0.17638 0.45687 0.0
C838 C 0.28028 0.19226 0.44751 0.0
N839 N 0.26436 0.17703 0.46642 0.0
C840 C 0.25123 0.18402 0.44237 0.0
C841 C 0.26623 0.19217 0.43754 0.0
H842 H 0.28987 0.18449 0.46954 0.0
H843 H 0.23912 0.16992 0.46048 0.0
C844 C 0.21994 0.1316 0.51867 0.0
N845 N 0.22644 0.13227 0.50392 0.0
C846 C 0.20481 0.12162 0.52016 0.0
C847 C 0.20341 0.11318 0.49124 0.0
C848 C 0.21852 0.1234 0.4903 0.0
C849 C 0.19635 0.11222 0.50632 0.0
H850 H 0.22652 0.13887 0.52927 0.0
H851 H 0.2239 0.12437 0.47869 0.0
O852 O 0.28387 0.17235 0.50049 0.0
O853 O 0.26256 0.14881 0.52163 0.0
O854 O 0.24629 0.17064 0.5014 0.0
O855 O 0.25994 0.14213 0.48413 0.0
H856 H 0.31206 0.17002 0.51497 0.0
H857 H 0.28362 0.20432 0.49651 0.0
H858 H 0.33424 0.19417 0.5235 0.0
H859 H 0.30625 0.22789 0.50547 0.0
H860 H 0.25805 0.09693 0.5394 0.0
H861 H 0.2763 0.15821 0.55117 0.0
H862 H 0.25369 0.11569 0.51815 0.0
H863 H 0.2802 0.13872 0.57192 0.0
H864 H 0.29289 0.2141 0.56197 0.0
H865 H 0.24034 0.20445 0.55671 0.0
H866 H 0.31369 0.11252 0.47831 0.0
H867 H 0.32093 0.12496 0.53047 0.0
H868 H 0.21675 0.16263 0.48713 0.0
H869 H 0.25601 0.20356 0.50246 0.0
H870 H 0.20122 0.18302 0.47619 0.0
H871 H 0.23988 0.22322 0.49114 0.0
H872 H 0.26805 0.14367 0.4537 0.0
H873 H 0.25247 0.11013 0.48969 0.0
H874 H 0.26874 0.11889 0.434 0.0
H875 H 0.25347 0.08594 0.4694 0.0
H876 H 0.29215 0.19802 0.44411 0.0
H877 H 0.24007 0.1837 0.43515 0.0
H878 H 0.19987 0.12114 0.53203 0.0
H879 H 0.1972 0.10635 0.48023 0.0
Li880 Li 0.1382 0.01877 0.7741 0.0
Li881 Li 0.11768 0.00055 0.78768 0.0
Li882 Li 0.13726 0.98809 0.77051 0.0
Li883 Li 0.11472 -0.00071 0.7586 0.0
C884 C 0.15617 0.00928 0.79991 0.0
N885 N 0.18531 0.02091 0.81772 0.0
C886 C 0.15631 0.0157 0.8162 0.0
C887 C 0.17086 0.00846 0.7928 0.0
C888 C 0.17116 0.02161 0.82496 0.0
C889 C 0.18546 0.01448 0.80197 0.0
C890 C 0.10477 0.02777 0.78317 0.0
C891 C 0.07834 0.03034 0.79241 0.0
N892 N 0.08491 0.04517 0.80113 0.0
C893 C 0.11123 0.04311 0.79211 0.0
C894 C 0.08816 0.0214 0.78319 0.0
C895 C 0.101 0.05169 0.80115 0.0
C896 C 0.15292 0.04702 0.76003 0.0
N897 N 0.15121 0.04049 0.77456 0.0
C898 C 0.16591 0.06604 0.78859 0.0
C899 C 0.15749 0.04962 0.78872 0.0
C900 C 0.16779 0.07315 0.77375 0.0
C901 C 0.16128 0.06334 0.75932 0.0
H902 H 0.14755 0.03958 0.74898 0.0
H903 H 0.15549 0.04439 0.80017 0.0
C904 C 0.09448 0.98603 0.80862 0.0
N905 N 0.1063 -0.00059 0.80692 0.0
C906 C 0.08563 0.98563 0.82253 0.0
C907 C 0.10159 0.0126 0.8328 0.0
C908 C 0.11001 0.01253 0.81865 0.0
C909 C 0.0891 -0.00092 0.83485 0.0
H910 H 0.09183 0.97573 0.79911 0.0
H911 H 0.11943 0.02304 0.81693 0.0
C912 C 0.14949 0.00247 0.74266 0.0
N913 N 0.17289 -0.00046 0.72055 0.0
C914 C 0.14518 0.99373 0.7273 0.0
C915 C 0.16566 0.01005 0.74662 0.0
C916 C 0.15719 0.99229 0.71633 0.0
C917 C 0.17732 0.00834 0.73532 0.0
C918 C 0.10149 0.96821 0.76379 0.0
C919 C 0.1053 0.95399 0.75508 0.0
C920 C 0.08531 0.97032 0.7641 0.0
C921 C 0.09287 0.94225 0.7466 0.0
C922 C 0.07322 0.95831 0.75546 0.0
N923 N 0.07723 0.94464 0.74695 0.0
C924 C 0.15754 0.96677 0.78184 0.0
C925 C 0.15103 0.96257 0.75341 0.0
C926 C 0.16679 0.95405 0.78077 0.0
N927 N 0.15003 0.97088 0.76825 0.0
C928 C 0.16007 0.94969 0.75178 0.0
C929 C 0.16811 0.94526 0.76558 0.0
H930 H 0.15626 0.97331 0.79356 0.0
H931 H 0.14445 0.96561 0.74289 0.0
C932 C 0.09253 0.01138 0.73903 0.0
N933 N 0.10013 -0.00196 0.74016 0.0
C934 C 0.08346 0.01281 0.72487 0.0
C935 C 0.08977 0.98642 0.71339 0.0
C936 C 0.09869 0.98547 0.72785 0.0
C937 C 0.08236 0.00046 0.71165 0.0
H938 H 0.09416 0.02138 0.74881 0.0
H939 H 0.10503 0.97509 0.72898 0.0
O940 O 0.14171 0.0036 0.7911 0.0
O941 O 0.11463 0.01911 0.77433 0.0
O942 O 0.13786 0.00401 0.75354 0.0
O943 O 0.11351 0.97987 0.77214 0.0
H944 H 0.14511 0.01617 0.82204 0.0
H945 H 0.171 0.00302 0.78041 0.0
H946 H 0.17143 0.02673 0.83754 0.0
H947 H 0.19691 0.01396 0.79658 0.0
H948 H 0.06548 0.02549 0.79261 0.0
H949 H 0.12401 0.0483 0.79215 0.0
H950 H 0.08291 0.00969 0.77618 0.0
H951 H 0.10586 0.06353 0.80818 0.0
H952 H 0.17046 0.07325 0.80003 0.0
H953 H 0.16258 0.06824 0.74759 0.0
H954 H 0.076 0.97503 0.82347 0.0
H955 H 0.10494 0.02311 0.84205 0.0
H956 H 0.13273 0.98796 0.72392 0.0
H957 H 0.16916 0.01738 0.75818 0.0
H958 H 0.15403 0.98541 0.70447 0.0
H959 H 0.18988 0.01409 0.73827 0.0
H960 H 0.1177 0.95201 0.75487 0.0
H961 H 0.08211 0.98113 0.7709 0.0
H962 H 0.09566 0.93122 0.73976 0.0
H963 H 0.06067 0.95984 0.75553 0.0
H964 H 0.17286 0.95116 0.79172 0.0
H965 H 0.1604 0.943 0.73989 0.0
H966 H 0.07823 0.024 0.72395 0.0
H967 H 0.08914 0.97658 0.7035 0.0
Li968 Li 0.22978 0.90592 0.01364 0.0
Li969 Li 0.24149 0.88338 0.02545 0.0
Li970 Li 0.25881 0.9087 0.01954 0.0
Li971 Li 0.24662 0.8882 -0.00222 0.0
C972 C 0.24882 0.91825 0.04716 0.0
N973 N 0.26514 0.94194 0.07107 0.0
C974 C 0.25988 0.91376 0.05839 0.0
C975 C 0.24609 0.93479 0.04806 0.0
C976 C 0.268 0.92592 0.07039 0.0
C977 C 0.25445 0.94658 0.06025 0.0
C978 C 0.21384 0.86848 0.01135 0.0
C979 C 0.20169 0.83914 0.00972 0.0
N980 N 0.19212 0.84263 0.02198 0.0
C981 C 0.2038 0.87182 0.02384 0.0
C982 C 0.21273 0.85205 0.00415 0.0
C983 C 0.19293 0.85856 0.02907 0.0
C984 C 0.20846 0.92336 -0.00165 0.0
N985 N 0.21254 0.91787 0.01274 0.0
C986 C 0.1936 0.9321 0.02635 0.0
C987 C 0.20528 0.9218 0.02657 0.0
C988 C 0.18944 0.93842 0.01175 0.0
C989 C 0.19689 0.93374 -0.00243 0.0
H990 H 0.2145 0.91999 0.98757 0.0
H991 H 0.20883 0.91723 0.03784 0.0
C992 C 0.2403 0.8514 0.0385 0.0
N993 N 0.23799 0.86756 0.04129 0.0
C994 C 0.24051 0.84139 0.05134 0.0
C995 C 0.23471 0.86438 0.06944 0.0
C996 C 0.23445 0.87386 0.05624 0.0
C997 C 0.23835 0.84816 0.06712 0.0
H998 H 0.24257 0.84638 0.02652 0.0
H999 H 0.23212 0.88654 0.05808 0.0
C1000 C 0.25758 0.92227 0.98968 0.0
N1001 N 0.27849 0.942 0.9713 0.0
C1002 C 0.27313 0.91885 0.98736 0.0
C1003 C 0.25272 0.93583 0.98277 0.0
C1004 C 0.28352 0.92894 0.97801 0.0
C1005 C 0.26344 0.94561 0.97347 0.0
C1006 C 0.27062 0.87295 0.00992 0.0
C1007 C 0.28758 0.87593 0.01003 0.0
C1008 C 0.26189 0.85739 0.00324 0.0
C1009 C 0.29549 0.86316 0.00381 0.0
C1010 C 0.27023 0.84494 -0.00287 0.0
N1011 N 0.28672 0.84805 -0.00244 0.0
C1012 C 0.29067 0.91911 0.03264 0.0
C1013 C 0.27859 0.94112 0.02329 0.0
C1014 C 0.30581 0.92955 0.03457 0.0
N1015 N 0.27769 0.9248 0.02628 0.0
C1016 C 0.29348 0.9521 0.02525 0.0
C1017 C 0.30737 0.94604 0.03027 0.0
H1018 H 0.28936 0.90626 0.03553 0.0
H1019 H 0.26794 0.94534 0.0185 0.0
C1020 C 0.23553 0.87094 0.96715 0.0
N1021 N 0.24912 0.87795 0.97657 0.0
C1022 C 0.23673 0.86185 0.95222 0.0
C1023 C 0.2659 0.86741 0.957 0.0
C1024 C 0.26414 0.87681 0.97152 0.0
C1025 C 0.25208 0.85958 0.9471 0.0
H1026 H 0.22372 0.87219 0.97137 0.0
H1027 H 0.27483 0.88256 0.97907 0.0
O1028 O 0.24101 0.9066 0.03511 0.0
O1029 O 0.22491 0.88122 0.00645 0.0
O1030 O 0.24748 0.91302 -0.00062 0.0
O1031 O 0.2626 0.88549 0.01547 0.0
H1032 H 0.26236 0.90109 0.05768 0.0
H1033 H 0.23775 0.93853 0.03933 0.0
H1034 H 0.27663 0.92264 0.07912 0.0
H1035 H 0.2525 0.95944 0.06108 0.0
H1036 H 0.20074 0.82634 0.00432 0.0
H1037 H 0.20459 0.88446 0.02958 0.0
H1038 H 0.22031 0.84927 0.99438 0.0
H1039 H 0.18517 0.86093 0.03881 0.0
H1040 H 0.18797 0.93516 0.0375 0.0
H1041 H 0.19419 0.93844 0.9861 0.0
H1042 H 0.24326 0.82887 0.0491 0.0
H1043 H 0.23265 0.86987 0.08143 0.0
H1044 H 0.27732 0.90884 0.99316 0.0
H1045 H 0.24084 0.93886 0.98469 0.0
H1046 H 0.29563 0.92649 0.97622 0.0
H1047 H 0.25984 0.95615 0.96805 0.0
H1048 H 0.29463 0.88802 0.01458 0.0
H1049 H 0.2488 0.85517 0.0022 0.0
H1050 H 0.3086 0.86532 0.00384 0.0
H1051 H 0.26357 0.83288 0.99186 0.0
H1052 H 0.31632 0.92461 0.03868 0.0
H1053 H 0.29433 0.96479 0.02184 0.0
H1054 H 0.22569 0.85658 0.94489 0.0
H1055 H 0.27801 0.86592 0.95395 0.0
Li1056 Li 0.23411 0.39366 0.02045 0.0
Li1057 Li 0.24589 0.3726 0.03596 0.0
Li1058 Li 0.2635 0.39338 0.01945 0.0
Li1059 Li 0.24383 0.37051 0.00658 0.0
C1060 C 0.24923 0.41016 0.05072 0.0
N1061 N 0.24537 0.43492 0.07469 0.0
C1062 C 0.24175 0.40584 0.06491 0.0
C1063 C 0.25498 0.42707 0.04885 0.0
C1064 C 0.23985 0.41854 0.07685 0.0
C1065 C 0.25285 0.4394 0.06107 0.0
C1066 C 0.21496 0.35643 0.01387 0.0
C1067 C 0.20313 0.32698 0.00989 0.0
N1068 N 0.1934 0.33005 -0.00269 0.0
C1069 C 0.2048 0.35934 0.00096 0.0
C1070 C 0.21411 0.34016 0.01843 0.0
C1071 C 0.194 0.34581 0.99272 0.0
C1072 C 0.21148 0.41075 0.00598 0.0
N1073 N 0.2172 0.40674 0.0205 0.0
C1074 C 0.19791 0.42026 0.03452 0.0
C1075 C 0.21053 0.41108 0.0346 0.0
C1076 C 0.19188 0.42477 0.01973 0.0
C1077 C 0.19884 0.41987 0.00531 0.0
H1078 H 0.2167 0.40679 0.99488 0.0
H1079 H 0.21475 0.40715 0.0459 0.0
C1080 C 0.25902 0.35923 0.06281 0.0
N1081 N 0.24501 0.36168 0.05527 0.0
C1082 C 0.25862 0.35141 0.0772 0.0
C1083 C 0.22941 0.34907 0.07589 0.0
C1084 C 0.23037 0.35679 0.06145 0.0
C1085 C 0.24367 0.34628 0.08394 0.0
H1086 H 0.27049 0.36339 0.05764 0.0
H1087 H 0.21944 0.35901 0.0552 0.0
C1088 C 0.2527 0.40863 0.99431 0.0
N1089 N 0.26368 0.43804 0.98057 0.0
C1090 C 0.25999 0.4081 0.97941 0.0
C1091 C 0.25108 0.42414 0.00221 0.0
C1092 C 0.26545 0.4231 0.97267 0.0
C1093 C 0.25667 0.43886 0.99507 0.0
C1094 C 0.2692 0.35569 0.01417 0.0
C1095 C 0.27742 0.35709 -0.00013 0.0
C1096 C 0.2672 0.34056 0.02133 0.0
C1097 C 0.28339 0.34325 0.99287 0.0
C1098 C 0.2734 0.32703 0.01399 0.0
N1099 N 0.28127 0.32864 2e-05 0.0
C1100 C 0.29194 0.41599 0.03226 0.0
C1101 C 0.29256 0.40536 0.00472 0.0
C1102 C 0.30764 0.4252 0.032 0.0
N1103 N 0.28472 0.40639 0.01872 0.0
C1104 C 0.30832 0.41421 0.00394 0.0
C1105 C 0.31613 0.42432 0.01772 0.0
H1106 H 0.28558 0.41639 0.04334 0.0
H1107 H 0.28667 0.39749 0.99416 0.0
C1108 C 0.23922 0.36183 0.9731 0.0
N1109 N 0.24012 0.35487 0.98738 0.0
C1110 C 0.23962 0.35219 0.95837 0.0
C1111 C 0.24017 0.32789 0.97312 0.0
C1112 C 0.23987 0.33808 0.98763 0.0
C1113 C 0.2407 0.33515 0.95832 0.0
H1114 H 0.23875 0.37502 0.97318 0.0
H1115 H 0.24022 0.33271 -0.0009 0.0
O1116 O 0.25131 0.39785 0.03897 0.0
O1117 O 0.22578 0.36945 0.02191 0.0
O1118 O 0.24745 0.39405 0.0012 0.0
O1119 O 0.26319 0.36905 0.02118 0.0
H1120 H 0.23732 0.39284 0.06664 0.0
H1121 H 0.26118 0.43066 0.03817 0.0
H1122 H 0.23397 0.41537 0.08784 0.0
H1123 H 0.25721 0.45253 0.05975 0.0
H1124 H 0.2024 0.31429 0.01322 0.0
H1125 H 0.20537 0.37188 -0.00272 0.0
H1126 H 0.22198 0.3377 0.02833 0.0
H1127 H 0.18612 0.34784 0.98265 0.0
H1128 H 0.19265 0.42342 0.04587 0.0
H1129 H 0.19461 0.4231 0.99364 0.0
H1130 H 0.2699 0.34965 0.08314 0.0
H1131 H 0.21765 0.34518 0.08063 0.0
H1132 H 0.26166 0.39628 0.97321 0.0
H1133 H 0.24553 0.42485 0.01372 0.0
H1134 H 0.27114 0.42286 0.96118 0.0
H1135 H 0.25545 0.45093 0.00107 0.0
H1136 H 0.27889 0.3686 0.99405 0.0
H1137 H 0.26079 0.33921 0.03234 0.0
H1138 H 0.28963 0.34412 0.98172 0.0
H1139 H 0.27188 0.31523 0.01936 0.0
H1140 H 0.31302 0.43297 0.04288 0.0
H1141 H 0.3144 0.41284 0.99274 0.0
H1142 H 0.23956 0.35812 0.94714 0.0
H1143 H 0.24089 0.31475 0.97354 0.0
Li1144 Li 0.76954 0.15385 0.02471 0.0
Li1145 Li 0.78542 0.1354 0.00818 0.0
Li1146 Li 0.77281 0.15615 -0.00372 0.0
Li1147 Li 0.75646 0.13089 0.00275 0.0
C1148 C 0.80082 0.17271 0.00891 0.0
N1149 N 0.82149 0.19842 -0.00318 0.0
C1150 C 0.81121 0.16906 -0.00313 0.0
C1151 C 0.80099 0.18939 0.0149 0.0
C1152 C 0.82156 0.18225 0.99089 0.0
C1153 C 0.81152 0.20222 0.0086 0.0
C1154 C 0.77352 0.11873 0.03411 0.0
C1155 C 0.77787 0.09135 0.04042 0.0
N1156 N 0.78457 0.09818 0.05534 0.0
C1157 C 0.78028 0.12544 0.04958 0.0
C1158 C 0.77213 0.10151 0.02956 0.0
C1159 C 0.78585 0.11486 0.06012 0.0
C1160 C 0.75139 0.16374 0.05013 0.0
N1161 N 0.76668 0.16512 0.04497 0.0
C1162 C 0.77739 0.18336 0.06866 0.0
C1163 C 0.77962 0.17463 0.05385 0.0
C1164 C 0.76169 0.1823 0.07429 0.0
C1165 C 0.74858 0.17231 0.06483 0.0
H1166 H 0.74137 0.15604 0.04275 0.0
H1167 H 0.79164 0.17545 0.04938 0.0
C1168 C 0.80683 0.11568 0.99501 0.0
N1169 N 0.80332 0.12404 0.009 0.0
C1170 C 0.81796 0.10483 0.99536 0.0
C1171 C 0.82289 0.11267 0.02431 0.0
C1172 C 0.81155 0.12331 0.02338 0.0
C1173 C 0.82587 0.10288 0.01023 0.0
H1174 H 0.80062 0.117 0.98361 0.0
H1175 H 0.809 0.13063 0.03421 0.0
C1176 C 0.74261 0.16308 9e-05 0.0
N1177 N 0.72332 0.18192 0.98458 0.0
C1178 C 0.73745 0.15876 0.98371 0.0
C1179 C 0.73791 0.17693 0.00862 0.0
C1180 C 0.72773 0.16847 0.97607 0.0
C1181 C 0.72815 0.1863 0.00055 0.0
C1182 C 0.7679 0.11955 0.9755 0.0
C1183 C 0.76189 0.12179 0.95994 0.0
C1184 C 0.76802 0.10327 0.97971 0.0
C1185 C 0.75614 0.10771 0.94888 0.0
C1186 C 0.76216 0.08953 0.96833 0.0
N1187 N 0.75639 0.09201 0.95327 0.0
C1188 C 0.77882 0.16861 0.96593 0.0
C1189 C 0.77173 0.18836 0.986 0.0
C1190 C 0.77806 0.17965 0.95407 0.0
N1191 N 0.775 0.17286 0.98136 0.0
C1192 C 0.77106 0.19991 0.97458 0.0
C1193 C 0.77374 0.19534 0.95831 0.0
H1194 H 0.78208 0.1565 0.96277 0.0
H1195 H 0.76909 0.19155 -0.00154 0.0
C1196 C 0.73205 0.10588 0.01091 0.0
N1197 N 0.73742 0.11438 -0.00178 0.0
C1198 C 0.71745 0.09448 0.00921 0.0
C1199 C 0.71449 0.10023 0.98115 0.0
C1200 C 0.72899 0.11177 0.98351 0.0
C1201 C 0.70829 0.09175 0.99425 0.0
H1202 H 0.73878 0.10844 0.02259 0.0
H1203 H 0.73322 0.11892 0.97369 0.0
O1204 O 0.79034 0.16 0.01461 0.0
O1205 O 0.76804 0.12892 0.02363 0.0
O1206 O 0.75236 0.15393 0.00773 0.0
O1207 O 0.77357 0.13317 0.98657 0.0
H1208 H 0.81115 0.15619 0.99208 0.0
H1209 H 0.79292 0.19241 0.02414 0.0
H1210 H 0.82962 0.17964 0.9815 0.0
H1211 H 0.81173 0.21521 0.01304 0.0
H1212 H 0.77695 0.07803 0.03701 0.0
H1213 H 0.78138 0.1387 0.05337 0.0
H1214 H 0.7666 0.09601 0.01781 0.0
H1215 H 0.79121 0.11991 0.07207 0.0
H1216 H 0.78779 0.19105 0.07551 0.0
H1217 H 0.73634 0.17099 0.06884 0.0
H1218 H 0.81985 0.0976 0.98418 0.0
H1219 H 0.82908 0.11197 0.03594 0.0
H1220 H 0.74124 0.14829 0.97688 0.0
H1221 H 0.74187 0.18049 0.02129 0.0
H1222 H 0.72378 0.16537 0.96335 0.0
H1223 H 0.72446 0.19708 0.00697 0.0
H1224 H 0.76128 0.13419 0.95648 0.0
H1225 H 0.77261 0.10128 0.99165 0.0
H1226 H 0.75138 0.10927 0.93685 0.0
H1227 H 0.7622 0.07689 0.97147 0.0
H1228 H 0.78052 0.17588 0.94165 0.0
H1229 H 0.76775 0.21194 0.97827 0.0
H1230 H 0.71304 0.0886 0.0198 0.0
H1231 H 0.70796 0.09843 0.96934 0.0
Li1232 Li 0.13573 0.52315 0.2597 0.0
Li1233 Li 0.11043 0.50719 0.26824 0.0
Li1234 Li 0.1315 0.49306 0.25698 0.0
Li1235 Li 0.11491 0.50737 0.23991 0.0
C1236 C 0.14234 0.51712 0.28992 0.0
N1237 N 0.16157 0.53661 0.31506 0.0
C1238 C 0.13521 0.52463 0.30294 0.0
C1239 C 0.15926 0.51947 0.28973 0.0
C1240 C 0.14514 0.53443 0.31553 0.0
C1241 C 0.16877 0.52939 0.30253 0.0
C1242 C 0.10577 0.53681 0.24682 0.0
C1243 C 0.08192 0.54215 0.23225 0.0
N1244 N 0.09085 0.55625 0.22728 0.0
C1245 C 0.11469 0.55141 0.24168 0.0
C1246 C 0.08923 0.5322 0.2422 0.0
C1247 C 0.10692 0.56106 0.23178 0.0
C1248 C 0.16398 0.545 0.25363 0.0
N1249 N 0.15151 0.54294 0.26362 0.0
C1250 C 0.16203 0.56921 0.27895 0.0
C1251 C 0.15019 0.55474 0.27598 0.0
C1252 C 0.17513 0.57169 0.26884 0.0
C1253 C 0.17597 0.55935 0.25602 0.0
H1254 H 0.16449 0.53563 0.24365 0.0
H1255 H 0.13995 0.55287 0.28354 0.0
C1256 C 0.09395 0.49499 0.29482 0.0
N1257 N 0.09491 0.50696 0.28426 0.0
C1258 C 0.08325 0.49491 0.30726 0.0
C1259 C 0.07502 0.51973 0.29799 0.0
C1260 C 0.08573 0.51919 0.28557 0.0
C1261 C 0.07374 0.50754 0.30915 0.0
H1262 H 0.10167 0.48564 0.2937 0.0
H1263 H 0.087 0.52877 0.27721 0.0
C1264 C 0.1488 0.50039 0.23158 0.0
N1265 N 0.16908 0.48285 0.2144 0.0
C1266 C 0.14346 0.49173 0.21639 0.0
C1267 C 0.16449 0.50024 0.23799 0.0
C1268 C 0.1539 0.48292 0.20789 0.0
C1269 C 0.17454 0.49125 0.22914 0.0
C1270 C 0.09546 0.47658 0.25693 0.0
C1271 C 0.09873 0.46291 0.26481 0.0
C1272 C 0.0795 0.47931 0.25509 0.0
C1273 C 0.08594 0.45225 0.2709 0.0
C1274 C 0.06706 0.46839 0.26138 0.0
N1275 N 0.07051 0.45521 0.26909 0.0
C1276 C 0.15288 0.47506 0.27123 0.0
C1277 C 0.14168 0.4629 0.24513 0.0
C1278 C 0.1635 0.46368 0.27152 0.0
N1279 N 0.14266 0.4748 0.25797 0.0
C1280 C 0.15214 0.45126 0.24487 0.0
C1281 C 0.16349 0.45185 0.25805 0.0
H1282 H 0.1532 0.48447 0.28137 0.0
H1283 H 0.13328 0.46291 0.23482 0.0
C1284 C 0.11097 0.52034 0.21006 0.0
N1285 N 0.10507 0.50759 0.21895 0.0
C1286 C 0.10306 0.52207 0.19529 0.0
C1287 C 0.08396 0.49669 0.19849 0.0
C1288 C 0.09202 0.49567 0.2134 0.0
C1289 C 0.08932 0.51022 0.18949 0.0
H1290 H 0.12157 0.52943 0.21469 0.0
H1291 H 0.08773 0.48559 0.22069 0.0
O1292 O 0.13281 0.50755 0.27742 0.0
O1293 O 0.11324 0.52701 0.25622 0.0
O1294 O 0.13868 0.50889 0.24019 0.0
O1295 O 0.10783 0.48726 0.25105 0.0
H1296 H 0.12215 0.523 0.3033 0.0
H1297 H 0.16499 0.51391 0.27967 0.0
H1298 H 0.13979 0.54036 0.32566 0.0
H1299 H 0.18187 0.53141 0.30248 0.0
H1300 H 0.06917 0.53863 0.22843 0.0
H1301 H 0.1275 0.55516 0.24514 0.0
H1302 H 0.08217 0.52091 0.24605 0.0
H1303 H 0.11368 0.57234 0.22763 0.0
H1304 H 0.16092 0.57833 0.28904 0.0
H1305 H 0.18557 0.56092 0.24764 0.0
H1306 H 0.08254 0.48507 0.31535 0.0
H1307 H 0.06818 0.52988 0.2991 0.0
H1308 H 0.13135 0.49168 0.21126 0.0
H1309 H 0.16878 0.5068 0.24978 0.0
H1310 H 0.14991 0.4761 0.19615 0.0
H1311 H 0.18665 0.49089 0.23402 0.0
H1312 H 0.11102 0.46062 0.26632 0.0
H1313 H 0.07678 0.48986 0.24904 0.0
H1314 H 0.08829 0.44167 0.2771 0.0
H1315 H 0.05466 0.47041 0.26015 0.0
H1316 H 0.17208 0.46463 0.2819 0.0
H1317 H 0.15155 0.44213 0.23438 0.0
H1318 H 0.10754 0.53257 0.18851 0.0
H1319 H 0.07338 0.48735 0.19427 0.0
Li1320 Li 0.73115 0.89508 0.52057 0.0
Li1321 Li 0.74338 0.87393 0.53585 0.0
Li1322 Li 0.76053 0.89451 0.51865 0.0
Li1323 Li 0.74038 0.87166 0.5064 0.0
C1324 C 0.74843 0.91218 0.55012 0.0
N1325 N 0.74761 0.9384 0.57365 0.0
C1326 C 0.74267 0.90892 0.56534 0.0
C1327 C 0.75395 0.92878 0.54695 0.0
C1328 C 0.7423 0.92235 0.57705 0.0
C1329 C 0.75339 0.94186 0.55898 0.0
C1330 C 0.71225 0.85709 0.51526 0.0
C1331 C 0.70157 0.82737 0.51318 0.0
N1332 N 0.69116 0.82922 0.50065 0.0
C1333 C 0.70141 0.85874 0.50242 0.0
C1334 C 0.71233 0.84131 0.52074 0.0
C1335 C 0.69085 0.84447 0.49517 0.0
C1336 C 0.70677 0.91015 0.50655 0.0
N1337 N 0.71442 0.90849 0.52102 0.0
C1338 C 0.69791 0.92547 0.53524 0.0
C1339 C 0.71009 0.91573 0.53524 0.0
C1340 C 0.68988 0.92755 0.52047 0.0
C1341 C 0.6944 0.91966 0.50599 0.0
H1342 H 0.71033 0.90411 0.49542 0.0
H1343 H 0.71592 0.91385 0.54664 0.0
C1344 C 0.75674 0.85842 0.56129 0.0
N1345 N 0.74303 0.86317 0.55535 0.0
C1346 C 0.75658 0.85032 0.57552 0.0
C1347 C 0.72838 0.85276 0.57758 0.0
C1348 C 0.72899 0.86051 0.56314 0.0
C1349 C 0.74227 0.84747 0.58386 0.0
H1350 H 0.76778 0.86089 0.55494 0.0
H1351 H 0.71831 0.86449 0.55814 0.0
C1352 C 0.74883 0.90949 0.4935 0.0
N1353 N 0.75903 0.93835 0.47858 0.0
C1354 C 0.75609 0.90856 0.47861 0.0
C1355 C 0.74676 0.92514 0.50076 0.0
C1356 C 0.76117 0.92328 0.47127 0.0
C1357 C 0.75199 0.93957 0.49304 0.0
C1358 C 0.76596 0.85686 0.51292 0.0
C1359 C 0.77386 0.85856 0.49846 0.0
C1360 C 0.76403 0.8415 0.51967 0.0
C1361 C 0.77961 0.84483 0.49093 0.0
C1362 C 0.77001 0.82809 0.51181 0.0
N1363 N 0.7776 0.83001 0.49772 0.0
C1364 C 0.78939 0.91709 0.53074 0.0
C1365 C 0.78917 0.90651 0.50305 0.0
C1366 C 0.80495 0.92646 0.52997 0.0
N1367 N 0.78176 0.9075 0.51733 0.0
C1368 C 0.80481 0.91546 0.50181 0.0
C1369 C 0.81287 0.92564 0.51537 0.0
H1370 H 0.78348 0.91732 0.54208 0.0
H1371 H 0.78301 0.89869 0.4926 0.0
C1372 C 0.73519 0.86291 0.47293 0.0
N1373 N 0.73617 0.85595 0.48719 0.0
C1374 C 0.73581 0.85337 0.45818 0.0
C1375 C 0.73659 0.82908 0.47287 0.0
C1376 C 0.73603 0.83917 0.4874 0.0
C1377 C 0.73721 0.83639 0.4581 0.0
H1378 H 0.7346 0.87608 0.47302 0.0
H1379 H 0.7364 0.83378 0.49885 0.0
O1380 O 0.74889 0.89915 0.53853 0.0
O1381 O 0.72284 0.87083 0.52236 0.0
O1382 O 0.74386 0.89517 0.50089 0.0
O1383 O 0.76016 0.87013 0.52043 0.0
H1384 H 0.73844 0.89618 0.56806 0.0
H1385 H 0.7588 0.93155 0.5354 0.0
H1386 H 0.7378 0.92001 0.58885 0.0
H1387 H 0.7576 0.95476 0.55667 0.0
H1388 H 0.70154 0.81506 0.51723 0.0
H1389 H 0.70125 0.87087 0.49803 0.0
H1390 H 0.72073 0.83983 0.53061 0.0
H1391 H 0.68244 0.84553 0.48516 0.0
H1392 H 0.69459 0.93104 0.54672 0.0
H1393 H 0.68858 0.92097 0.49433 0.0
H1394 H 0.76756 0.84656 0.5801 0.0
H1395 H 0.71712 0.85071 0.58367 0.0
H1396 H 0.75803 0.89664 0.47285 0.0
H1397 H 0.7412 0.92619 0.51223 0.0
H1398 H 0.76686 0.92272 0.45979 0.0
H1399 H 0.75045 0.95174 0.49856 0.0
H1400 H 0.77522 0.87021 0.4929 0.0
H1401 H 0.75775 0.83985 0.53072 0.0
H1402 H 0.78561 0.84594 0.47966 0.0
H1403 H 0.76853 0.81612 0.51687 0.0
H1404 H 0.81089 0.93399 0.54077 0.0
H1405 H 0.8105 0.91454 0.49033 0.0
H1406 H 0.73576 0.85934 0.44698 0.0
H1407 H 0.73752 0.81599 0.4733 0.0
Li1408 Li 0.89713 0.04329 0.26064 0.0
Li1409 Li 0.8748 0.02235 0.24883 0.0
Li1410 Li 0.89376 0.04061 0.23155 0.0
Li1411 Li 0.87428 0.05268 0.24939 0.0
C1412 C 0.90922 0.01419 0.25056 0.0
N1413 N 0.93182 0.99588 0.2611 0.0
C1414 C 0.90655 0.00528 0.26417 0.0
C1415 C 0.92332 0.01373 0.24223 0.0
C1416 C 0.91815 0.99612 0.26934 0.0
C1417 C 0.93461 0.00441 0.24777 0.0
C1418 C 0.86032 0.03589 0.275 0.0
C1419 C 0.83105 0.0309 0.2729 0.0
N1420 N 0.83092 0.0295 0.28917 0.0
C1421 C 0.8599 0.03441 0.2917 0.0
C1422 C 0.8458 0.03412 0.26551 0.0
C1423 C 0.84492 0.03117 0.29864 0.0
C1424 C 0.90646 0.05405 0.29277 0.0
N1425 N 0.91235 0.04762 0.27902 0.0
C1426 C 0.93597 0.04318 0.29403 0.0
C1427 C 0.92724 0.04313 0.27923 0.0
C1428 C 0.92943 0.04829 0.30863 0.0
C1429 C 0.9149 0.05467 0.30776 0.0
H1430 H 0.8948 0.05801 0.29217 0.0
H1431 H 0.93199 0.03867 0.26807 0.0
C1432 C 0.85673 0.99118 0.2354 0.0
N1433 N 0.86271 0.00044 0.24957 0.0
C1434 C 0.84821 0.9748 0.23558 0.0
C1435 C 0.85235 0.97778 0.26492 0.0
C1436 C 0.86071 0.99411 0.26417 0.0
C1437 C 0.84599 0.96788 0.25049 0.0
H1438 H 0.85873 -0.00353 0.22396 0.0
H1439 H 0.86576 0.00169 0.27524 0.0
C1440 C 0.91091 0.07207 0.25331 0.0
N1441 N 0.93841 0.09215 0.26862 0.0
C1442 C 0.90949 0.08485 0.26537 0.0
C1443 C 0.92628 0.06951 0.24898 0.0
C1444 C 0.92356 0.09486 0.27298 0.0
C1445 C 0.94005 0.0798 0.25688 0.0
C1446 C 0.85859 0.03592 0.21798 0.0
C1447 C 0.86334 0.04588 0.20547 0.0
C1448 C 0.84276 0.02681 0.21743 0.0
C1449 C 0.85209 0.04673 0.19272 0.0
C1450 C 0.83187 0.02801 0.20448 0.0
N1451 N 0.83672 0.03787 0.1925 0.0
C1452 C 0.90443 0.02585 0.20315 0.0
C1453 C 0.91045 0.05566 0.20629 0.0
C1454 C 0.91226 0.02544 0.18861 0.0
N1455 N 0.90379 0.0408 0.21165 0.0
C1456 C 0.91834 0.05584 0.19178 0.0
C1457 C 0.91941 0.04058 0.18278 0.0
H1458 H 0.89905 0.01426 0.20781 0.0
H1459 H 0.90965 0.06734 0.21333 0.0
C1460 C 0.86098 0.07721 0.26726 0.0
N1461 N 0.86092 0.06935 0.25202 0.0
C1462 C 0.85177 0.0898 0.27027 0.0
C1463 C 0.84256 0.08594 0.24183 0.0
C1464 C 0.85199 0.07349 0.23937 0.0
C1465 C 0.84241 0.09431 0.25743 0.0
H1466 H 0.86825 0.07372 0.2771 0.0
H1467 H 0.85227 0.06733 0.22733 0.0
O1468 O 0.89807 0.02324 0.24528 0.0
O1469 O 0.87494 0.03893 0.26807 0.0
O1470 O 0.89732 0.06187 0.24601 0.0
O1471 O 0.86948 0.03476 0.23047 0.0
H1472 H 0.89576 0.00562 0.2708 0.0
H1473 H 0.92557 0.0206 0.23169 0.0
H1474 H 0.9163 0.98924 0.27991 0.0
H1475 H 0.9456 0.00399 0.24149 0.0
H1476 H 0.81972 0.02953 0.2657 0.0
H1477 H 0.87105 0.03566 0.29921 0.0
H1478 H 0.8459 0.0353 0.25262 0.0
H1479 H 0.84441 0.02996 0.31154 0.0
H1480 H 0.94717 0.03826 0.29405 0.0
H1481 H 0.90968 0.05932 0.31863 0.0
H1482 H 0.8437 0.96752 0.22416 0.0
H1483 H 0.85078 0.973 0.27667 0.0
H1484 H 0.89767 0.08693 0.26889 0.0
H1485 H 0.92757 0.05954 0.23979 0.0
H1486 H 0.92266 0.10477 0.28238 0.0
H1487 H 0.95203 0.07792 0.25372 0.0
H1488 H 0.8755 0.05307 0.20573 0.0
H1489 H 0.83891 0.01886 0.22687 0.0
H1490 H 0.85558 0.05447 0.18302 0.0
H1491 H 0.81957 0.02108 0.20393 0.0
H1492 H 0.91299 0.01338 0.18222 0.0
H1493 H 0.92347 0.0678 0.18762 0.0
H1494 H 0.85192 0.09587 0.2825 0.0
H1495 H 0.83573 0.08923 0.23153 0.0
Li1496 Li 0.26968 0.65543 0.52519 0.0
Li1497 Li 0.2828 0.63534 0.50753 0.0
Li1498 Li 0.26984 0.65604 0.4962 0.0
Li1499 Li 0.2539 0.63203 0.50542 0.0
C1500 C 0.29937 0.67198 0.50574 0.0
N1501 N 0.31976 0.69614 0.49129 0.0
C1502 C 0.30848 0.66725 0.49293 0.0
C1503 C 0.30071 0.68896 0.51129 0.0
C1504 C 0.3187 0.67967 0.48576 0.0
C1505 C 0.31107 0.701 0.5038 0.0
C1506 C 0.27509 0.62111 0.53504 0.0
C1507 C 0.28295 0.59481 0.5404 0.0
N1508 N 0.29066 0.60227 0.55471 0.0
C1509 C 0.283 0.62847 0.54986 0.0
C1510 C 0.27496 0.6041 0.53033 0.0
C1511 C 0.29082 0.61874 0.55962 0.0
C1512 C 0.25449 0.66636 0.55202 0.0
N1513 N 0.26914 0.66777 0.5454 0.0
C1514 C 0.28155 0.68725 0.56761 0.0
C1515 C 0.2826 0.67785 0.55283 0.0
C1516 C 0.26648 0.68626 0.57464 0.0
C1517 C 0.25285 0.67561 0.56669 0.0
H1518 H 0.24405 0.65815 0.54578 0.0
H1519 H 0.2941 0.6786 0.54725 0.0
C1520 C 0.30121 0.61278 0.49342 0.0
N1521 N 0.30033 0.62346 0.50684 0.0
C1522 C 0.31249 0.60205 0.49328 0.0
C1523 C 0.32249 0.61434 0.52037 0.0
C1524 C 0.31103 0.62488 0.51995 0.0
C1525 C 0.32305 0.60248 0.50704 0.0
H1526 H 0.29291 0.61228 0.48296 0.0
H1527 H 0.31031 0.63383 0.53028 0.0
C1528 C 0.24182 0.66622 0.50379 0.0
N1529 N 0.2236 0.68798 0.49135 0.0
C1530 C 0.2346 0.66276 0.48799 0.0
C1531 C 0.23972 0.68074 0.51328 0.0
C1532 C 0.22547 0.67393 0.48191 0.0
C1533 C 0.23046 0.69158 0.50678 0.0
C1534 C 0.25972 0.61958 0.47708 0.0
C1535 C 0.25082 0.62296 0.46343 0.0
C1536 C 0.25912 0.60292 0.48045 0.0
C1537 C 0.24149 0.60964 0.45341 0.0
C1538 C 0.24962 0.58995 0.47016 0.0
N1539 N 0.24108 0.59355 0.45696 0.0
C1540 C 0.27361 0.66655 0.46474 0.0
C1541 C 0.26963 0.68796 0.48481 0.0
C1542 C 0.27264 0.67718 0.45253 0.0
N1543 N 0.27139 0.67186 0.4804 0.0
C1544 C 0.26872 0.69907 0.47303 0.0
C1545 C 0.26973 0.6935 0.45661 0.0
H1546 H 0.27575 0.65394 0.46169 0.0
H1547 H 0.26839 0.69202 0.49743 0.0
C1548 C 0.23208 0.60526 0.51529 0.0
N1549 N 0.23422 0.61608 0.50362 0.0
C1550 C 0.21766 0.59376 0.51531 0.0
C1551 C 0.20792 0.60456 0.49115 0.0
C1552 C 0.22251 0.61593 0.49166 0.0
C1553 C 0.2053 0.59344 0.50322 0.0
H1554 H 0.24142 0.60579 0.52483 0.0
H1555 H 0.22434 0.62476 0.48264 0.0
O1556 O 0.28905 0.66004 0.51266 0.0
O1557 O 0.26746 0.63048 0.52526 0.0
O1558 O 0.25094 0.65553 0.50994 0.0
O1559 O 0.26889 0.63246 0.48713 0.0
H1560 H 0.30752 0.65414 0.48848 0.0
H1561 H 0.29364 0.69283 0.52112 0.0
H1562 H 0.32576 0.67621 0.47578 0.0
H1563 H 0.31214 0.7142 0.50789 0.0
H1564 H 0.28304 0.58168 0.53683 0.0
H1565 H 0.28321 0.64157 0.55376 0.0
H1566 H 0.26882 0.59814 0.51897 0.0
H1567 H 0.29705 0.6243 0.57108 0.0
H1568 H 0.29232 0.69538 0.57336 0.0
H1569 H 0.24109 0.6743 0.57185 0.0
H1570 H 0.31253 0.59313 0.48273 0.0
H1571 H 0.33068 0.61535 0.53106 0.0
H1572 H 0.23642 0.65184 0.48035 0.0
H1573 H 0.2453 0.68371 0.52549 0.0
H1574 H 0.21997 0.67148 0.46964 0.0
H1575 H 0.22878 0.70288 0.51397 0.0
H1576 H 0.25084 0.63572 0.46068 0.0
H1577 H 0.2658 0.60002 0.49098 0.0
H1578 H 0.23449 0.61211 0.44287 0.0
H1579 H 0.24902 0.57702 0.47269 0.0
H1580 H 0.27387 0.67261 0.44001 0.0
H1581 H 0.26654 0.7116 0.47664 0.0
H1582 H 0.21611 0.58535 0.52481 0.0
H1583 H 0.19857 0.6049 0.48177 0.0
Li1584 Li 0.3743 0.52196 0.74872 0.0
Li1585 Li 0.39681 0.54264 0.76052 0.0
Li1586 Li 0.37406 0.55242 0.74942 0.0
Li1587 Li 0.39326 0.54014 0.73141 0.0
C1588 C 0.35981 0.53591 0.7747 0.0
N1589 N 0.33007 0.5306 0.78834 0.0
C1590 C 0.35903 0.53575 0.79154 0.0
C1591 C 0.34547 0.53336 0.7648 0.0
C1592 C 0.34388 0.53304 0.79821 0.0
C1593 C 0.33056 0.5307 0.77192 0.0
C1594 C 0.40837 0.5131 0.74972 0.0
C1595 C 0.43331 0.50266 0.74608 0.0
N1596 N 0.43036 0.49355 0.759 0.0
C1597 C 0.40554 0.5036 0.76293 0.0
C1598 C 0.42232 0.51261 0.74118 0.0
C1599 C 0.41683 0.49382 0.76745 0.0
C1600 C 0.35719 0.49045 0.73515 0.0
N1601 N 0.36222 0.50003 0.74939 0.0
C1602 C 0.35139 0.47748 0.76466 0.0
C1603 C 0.35951 0.49392 0.764 0.0
C1604 C 0.34609 0.4672 0.75015 0.0
C1605 C 0.34901 0.47392 0.73524 0.0
H1606 H 0.3597 0.4956 0.72372 0.0
H1607 H 0.36395 0.5017 0.77514 0.0
C1608 C 0.40664 0.55363 0.79256 0.0
N1609 N 0.41214 0.54666 0.77883 0.0
C1610 C 0.41523 0.55434 0.80749 0.0
C1611 C 0.43562 0.5417 0.79375 0.0
C1612 C 0.42675 0.54155 0.77901 0.0
C1613 C 0.4295 0.5475 0.80835 0.0
H1614 H 0.39519 0.55801 0.79198 0.0
H1615 H 0.43121 0.53663 0.76787 0.0
C1616 C 0.35861 0.53567 0.71757 0.0
N1617 N 0.33779 0.5375 0.69119 0.0
C1618 C 0.36359 0.5464 0.70573 0.0
C1619 C 0.34308 0.5258 0.71595 0.0
C1620 C 0.35287 0.54716 0.69249 0.0
C1621 C 0.33272 0.52694 0.70254 0.0
C1622 C 0.41101 0.57124 0.75311 0.0
C1623 C 0.41006 0.58432 0.76501 0.0
C1624 C 0.42618 0.56804 0.74877 0.0
C1625 C 0.42438 0.59399 0.77245 0.0
C1626 C 0.44021 0.578 0.75649 0.0
N1627 N 0.43903 0.59065 0.76808 0.0
C1628 C 0.36163 0.57756 0.76729 0.0
C1629 C 0.35098 0.57264 0.7399 0.0
C1630 C 0.35247 0.59016 0.77045 0.0
N1631 N 0.36076 0.56913 0.75221 0.0
C1632 C 0.34159 0.58511 0.74252 0.0
C1633 C 0.3423 0.5941 0.75794 0.0
H1634 H 0.36948 0.57448 0.77687 0.0
H1635 H 0.35049 0.56591 0.72801 0.0
C1636 C 0.40326 0.52529 0.70265 0.0
N1637 N 0.40314 0.54024 0.71139 0.0
C1638 C 0.41096 0.52481 0.68804 0.0
C1639 C 0.418 0.55516 0.69163 0.0
C1640 C 0.41021 0.55504 0.7062 0.0
C1641 C 0.41854 0.53988 0.68239 0.0
H1642 H 0.39755 0.51374 0.70718 0.0
H1643 H 0.40982 0.56673 0.71342 0.0
O1644 O 0.37461 0.53858 0.76807 0.0
O1645 O 0.39747 0.5227 0.74502 0.0
O1646 O 0.36898 0.53455 0.73052 0.0
O1647 O 0.39716 0.56136 0.74598 0.0
H1648 H 0.37002 0.53766 0.79938 0.0
H1649 H 0.34584 0.53351 0.75178 0.0
H1650 H 0.34309 0.53288 0.81122 0.0
H1651 H 0.31936 0.52874 0.76439 0.0
H1652 H 0.44419 0.50219 0.73962 0.0
H1653 H 0.39483 0.50393 0.76971 0.0
H1654 H 0.42469 0.51992 0.73095 0.0
H1655 H 0.41485 0.48645 0.77769 0.0
H1656 H 0.34964 0.47274 0.77642 0.0
H1657 H 0.34501 0.46651 0.72377 0.0
H1658 H 0.41034 0.55949 0.81833 0.0
H1659 H 0.44659 0.53637 0.79375 0.0
H1660 H 0.3755 0.55422 0.70685 0.0
H1661 H 0.33906 0.51734 0.72495 0.0
H1662 H 0.35653 0.55546 0.68326 0.0
H1663 H 0.32066 0.5194 0.70116 0.0
H1664 H 0.3984 0.58691 0.76854 0.0
H1665 H 0.4271 0.55782 0.7397 0.0
H1666 H 0.42384 0.60413 0.78173 0.0
H1667 H 0.45204 0.57562 0.75333 0.0
H1668 H 0.35326 0.59667 0.78256 0.0
H1669 H 0.3341 0.5879 0.73247 0.0
H1670 H 0.41127 0.51274 0.68145 0.0
H1671 H 0.42346 0.56708 0.68762 0.0
Li1672 Li 0.60776 0.00334 0.76874 0.0
Li1673 Li 0.63253 0.02094 0.76153 0.0
Li1674 Li 0.61363 0.00386 0.74085 0.0
Li1675 Li 0.63054 0.99114 0.75898 0.0
C1676 C 0.60186 0.03184 0.74649 0.0
N1677 N 0.58609 0.04946 0.72575 0.0
C1678 C 0.61013 0.04662 0.74107 0.0
C1679 C 0.58554 0.02608 0.74145 0.0
C1680 C 0.60194 0.05534 0.73059 0.0
C1681 C 0.57779 0.03514 0.73092 0.0
C1682 C 0.63803 0.01621 0.79182 0.0
C1683 C 0.66309 0.03083 0.80581 0.0
N1684 N 0.65447 0.03854 0.81677 0.0
C1685 C 0.62942 0.02427 0.80323 0.0
C1686 C 0.65501 0.01949 0.79312 0.0
C1687 C 0.63796 0.03551 0.81576 0.0
C1688 C 0.59091 0.99026 0.79458 0.0
N1689 N 0.59142 0.00197 0.78379 0.0
C1690 C 0.57054 0.01374 0.79676 0.0
C1691 C 0.58146 0.0135 0.78453 0.0
C1692 C 0.56992 0.00199 0.80831 0.0
C1693 C 0.58003 0.98988 0.80685 0.0
H1694 H 0.59925 0.98151 0.79391 0.0
H1695 H 0.58244 0.02293 0.77604 0.0
C1696 C 0.66154 0.04365 0.76027 0.0
N1697 N 0.64669 0.04173 0.76649 0.0
C1698 C 0.67237 0.05878 0.76351 0.0
C1699 C 0.65235 0.06979 0.77943 0.0
C1700 C 0.64192 0.05434 0.77596 0.0
C1701 C 0.66778 0.07212 0.7731 0.0
H1702 H 0.66489 0.03353 0.75259 0.0
H1703 H 0.62997 0.05242 0.78067 0.0
C1704 C 0.5953 0.97208 0.75732 0.0
N1705 N 0.57108 0.94901 0.76851 0.0
C1706 C 0.59925 0.95876 0.76536 0.0
C1707 C 0.57903 0.97359 0.75486 0.0
C1708 C 0.58683 0.94724 0.77094 0.0
C1709 C 0.56697 0.96183 0.76066 0.0
C1710 C 0.64844 -0.00066 0.73422 0.0
C1711 C 0.64409 0.99113 0.71864 0.0
C1712 C 0.66385 -0.00073 0.74142 0.0
C1713 C 0.65522 0.98294 0.71054 0.0
C1714 C 0.67461 0.99089 0.73295 0.0
N1715 N 0.67011 0.98297 0.71782 0.0
C1716 C 0.60987 0.01533 0.71009 0.0
C1717 C 0.59212 0.99007 0.71407 0.0
C1718 C 0.60245 0.01554 0.6947 0.0
N1719 N 0.60438 0.00291 0.7195 0.0
C1720 C 0.58447 0.98967 0.69869 0.0
C1721 C 0.58945 0.00266 0.68887 0.0
H1722 H 0.6198 0.02526 0.71471 0.0
H1723 H 0.58822 0.98022 0.72174 0.0
C1724 C 0.65291 0.97451 0.77393 0.0
N1725 N 0.64271 0.9738 0.76056 0.0
C1726 C 0.66407 0.96369 0.77434 0.0
C1727 C 0.65332 0.95095 0.74759 0.0
C1728 C 0.6423 0.96199 0.74774 0.0
C1729 C 0.66464 0.95202 0.76087 0.0
H1730 H 0.65279 0.98388 0.78402 0.0
H1731 H 0.63392 0.96168 0.73733 0.0
O1732 O 0.60972 0.023 0.75659 0.0
O1733 O 0.6299 0.00539 0.77928 0.0
O1734 O 0.6073 0.98357 0.75189 0.0
O1735 O 0.63765 0.00732 0.74239 0.0
H1736 H 0.62279 0.05122 0.74479 0.0
H1737 H 0.57898 0.01463 0.74547 0.0
H1738 H 0.60821 0.06676 0.72624 0.0
H1739 H 0.5652 0.03076 0.72682 0.0
H1740 H 0.67622 0.03358 0.80689 0.0
H1741 H 0.6163 0.022 0.80238 0.0
H1742 H 0.66189 0.01359 0.78425 0.0
H1743 H 0.63145 0.04187 0.82465 0.0
H1744 H 0.5632 0.02347 0.79757 0.0
H1745 H 0.57983 0.98043 0.81533 0.0
H1746 H 0.68401 0.06019 0.75812 0.0
H1747 H 0.64839 0.07979 0.78689 0.0
H1748 H 0.61178 0.95741 0.76737 0.0
H1749 H 0.57577 0.98385 0.74871 0.0
H1750 H 0.58971 0.93692 0.77724 0.0
H1751 H 0.55434 0.96291 0.75894 0.0
H1752 H 0.63223 0.99097 0.71287 0.0
H1753 H 0.66735 0.00527 0.75359 0.0
H1754 H 0.652 0.9765 0.6985 0.0
H1755 H 0.68649 0.99058 0.73846 0.0
H1756 H 0.6066 0.0259 0.68765 0.0
H1757 H 0.57476 0.9793 0.69456 0.0
H1758 H 0.67261 0.96494 0.7848 0.0
H1759 H 0.6532 0.94192 0.73709 0.0
Li1760 Li 0.76877 0.67126 0.0161 0.0
Li1761 Li 0.77819 0.64754 0.00134 0.0
Li1762 Li 0.76587 0.66786 0.98693 0.0
Li1763 Li 0.74934 0.64749 0.00259 0.0
C1764 C 0.79793 0.68336 0.00951 0.0
N1765 N 0.8206 0.70645 0.02887 0.0
C1766 C 0.80949 0.67789 0.01942 0.0
C1767 C 0.7979 0.70056 0.0094 0.0
C1768 C 0.82085 0.68977 0.02912 0.0
C1769 C 0.80946 0.71204 0.0193 0.0
C1770 C 0.75721 0.63697 0.03075 0.0
C1771 C 0.74565 0.60908 0.03696 0.0
N1772 N 0.73917 0.61583 0.05025 0.0
C1773 C 0.75044 0.64364 0.04446 0.0
C1774 C 0.75483 0.61956 0.02697 0.0
C1775 C 0.74137 0.63274 0.05417 0.0
C1776 C 0.76587 0.70083 0.03599 0.0
N1777 N 0.77232 0.68657 0.03525 0.0
C1778 C 0.7802 0.69122 0.06364 0.0
C1779 C 0.77985 0.68191 0.04855 0.0
C1780 C 0.77297 0.70558 0.06489 0.0
C1781 C 0.76621 0.7107 0.05077 0.0
H1782 H 0.75981 0.70416 0.02528 0.0
H1783 H 0.78482 0.67045 0.0476 0.0
C1784 C 0.80462 0.63532 0.9878 0.0
N1785 N 0.79491 0.63431 0.00054 0.0
C1786 C 0.81711 0.62602 0.98669 0.0
C1787 C 0.80984 0.61529 0.01221 0.0
C1788 C 0.79735 0.62466 0.01272 0.0
C1789 C 0.81994 0.61584 -0.00096 0.0
H1790 H 0.80267 0.64342 0.97848 0.0
H1791 H 0.78977 0.62444 0.02296 0.0
C1792 C 0.73995 0.68101 0.99419 0.0
N1793 N 0.72172 0.6993 0.9766 0.0
C1794 C 0.72434 0.6737 0.98777 0.0
C1795 C 0.74626 0.69765 0.99171 0.0
C1796 C 0.71532 0.68316 0.97892 0.0
C1797 C 0.73687 0.70667 0.98275 0.0
C1798 C 0.76614 0.63125 0.97264 0.0
C1799 C 0.77337 0.63592 0.95843 0.0
C1800 C 0.76444 0.61457 0.97626 0.0
C1801 C 0.77894 0.62382 0.94814 0.0
C1802 C 0.77019 0.60285 0.96568 0.0
N1803 N 0.77727 0.60768 0.95196 0.0
C1804 C 0.78013 0.6894 0.96443 0.0
C1805 C 0.75321 0.67558 0.95672 0.0
C1806 C 0.78096 0.69731 0.95009 0.0
N1807 N 0.76637 0.67886 0.96749 0.0
C1808 C 0.75343 0.68339 0.94234 0.0
C1809 C 0.76747 0.6944 0.9388 0.0
H1810 H 0.79055 0.69149 0.97304 0.0
H1811 H 0.74253 0.6669 0.95933 0.0
C1812 C 0.7192 0.63837 0.0162 0.0
N1813 N 0.72852 0.63402 0.00404 0.0
C1814 C 0.70398 0.62871 0.01788 0.0
C1815 C 0.70792 0.61063 0.99409 0.0
C1816 C 0.72317 0.62053 0.993 0.0
C1817 C 0.69809 0.6146 0.00672 0.0
H1818 H 0.72365 0.64935 0.02464 0.0
H1819 H 0.73068 0.61754 0.98326 0.0
O1820 O 0.78645 0.67193 0.00024 0.0
O1821 O 0.766 0.64744 0.02098 0.0
O1822 O 0.749 0.67193 0.00284 0.0
O1823 O 0.76074 0.64294 0.98295 0.0
H1824 H 0.8096 0.66462 0.01972 0.0
H1825 H 0.78894 0.70499 0.0019 0.0
H1826 H 0.82985 0.68572 0.03689 0.0
H1827 H 0.80954 0.72538 0.01941 0.0
H1828 H 0.74366 0.59558 0.03414 0.0
H1829 H 0.75194 0.65707 0.04747 0.0
H1830 H 0.75992 0.61419 0.01638 0.0
H1831 H 0.73601 0.63772 0.06478 0.0
H1832 H 0.78557 0.68696 0.07431 0.0
H1833 H 0.7604 0.72164 0.05134 0.0
H1834 H 0.8244 0.62676 0.97621 0.0
H1835 H 0.81175 0.60797 0.02221 0.0
H1836 H 0.71927 0.66085 0.98953 0.0
H1837 H 0.7584 0.70343 -0.00362 0.0
H1838 H 0.70324 0.67766 0.97386 0.0
H1839 H 0.74165 0.7195 0.98063 0.0
H1840 H 0.7748 0.64877 0.95543 0.0
H1841 H 0.75885 0.61073 0.98718 0.0
H1842 H 0.78463 0.62728 0.93714 0.0
H1843 H 0.76904 0.58992 0.96838 0.0
H1844 H 0.79218 0.70537 0.94778 0.0
H1845 H 0.74264 0.68088 0.93416 0.0
H1846 H 0.69698 0.63221 0.02791 0.0
H1847 H 0.7038 0.60014 0.98497 0.0
Li1848 Li 0.87196 0.5194 0.76232 0.0
Li1849 Li 0.89339 0.53389 0.78227 0.0
Li1850 Li 0.87959 0.54973 0.76362 0.0
Li1851 Li 0.89836 0.53224 0.75375 0.0
C1852 C 0.85785 0.53425 0.79065 0.0
N1853 N 0.83244 0.53057 0.81105 0.0
C1854 C 0.85927 0.52678 0.80513 0.0
C1855 C 0.84356 0.54007 0.78671 0.0
C1856 C 0.84628 0.52495 0.81522 0.0
C1857 C 0.83084 0.53804 0.79714 0.0
C1858 C 0.90698 0.50643 0.77002 0.0
C1859 C 0.93552 0.5097 0.77784 0.0
N1860 N 0.93448 0.49275 0.77533 0.0
C1861 C 0.9062 0.48906 0.76751 0.0
C1862 C 0.92176 0.51686 0.77521 0.0
C1863 C 0.92024 0.48238 0.77026 0.0
C1864 C 0.84901 0.49466 0.74308 0.0
N1865 N 0.85447 0.50102 0.75851 0.0
C1866 C 0.83465 0.48104 0.76956 0.0
C1867 C 0.84777 0.49431 0.77163 0.0
C1868 C 0.82849 0.47442 0.75378 0.0
C1869 C 0.83587 0.48136 0.74041 0.0
H1870 H 0.8549 0.49982 0.73282 0.0
H1871 H 0.8528 0.49903 0.78373 0.0
C1872 C 0.9105 0.54896 0.81124 0.0
N1873 N 0.90286 0.5341 0.80334 0.0
C1874 C 0.91885 0.54929 0.82628 0.0
C1875 C 0.91091 0.51904 0.82483 0.0
C1876 C 0.90273 0.51931 0.80985 0.0
C1877 C 0.91931 0.53415 0.83313 0.0
H1878 H 0.91038 0.5605 0.80567 0.0
H1879 H 0.89645 0.5077 0.80327 0.0
C1880 C 0.8641 0.53438 0.73327 0.0
N1881 N 0.83857 0.53623 0.71158 0.0
C1882 C 0.86669 0.53549 0.71679 0.0
C1883 C 0.84854 0.5342 0.73872 0.0
C1884 C 0.85362 0.5364 0.70601 0.0
C1885 C 0.83579 0.53517 0.72758 0.0
C1886 C 0.91162 0.5661 0.76312 0.0
C1887 C 0.9076 0.56896 0.74714 0.0
C1888 C 0.92439 0.57692 0.77212 0.0
C1889 C 0.91639 0.5827 0.74047 0.0
C1890 C 0.93289 0.59051 0.765 0.0
N1891 N 0.92875 0.5931 0.74946 0.0
C1892 C 0.86626 0.57632 0.77676 0.0
C1893 C 0.86668 0.5749 0.748 0.0
C1894 C 0.8564 0.58846 0.77685 0.0
N1895 N 0.87061 0.56937 0.76244 0.0
C1896 C 0.85689 0.5871 0.74752 0.0
C1897 C 0.85116 0.5936 0.76203 0.0
H1898 H 0.86963 0.57167 0.78804 0.0
H1899 H 0.87051 0.56934 0.7368 0.0
C1900 C 0.90903 0.51973 0.72451 0.0
N1901 N 0.91409 0.52955 0.7386 0.0
C1902 C 0.91997 0.51756 0.71263 0.0
C1903 C 0.9412 0.53534 0.7302 0.0
C1904 C 0.92984 0.53715 0.74174 0.0
C1905 C 0.93627 0.52558 0.71534 0.0
H1906 H 0.89642 0.51376 0.72245 0.0
H1907 H 0.93359 0.54471 0.75316 0.0
O1908 O 0.87062 0.5364 0.78077 0.0
O1909 O 0.89331 0.51311 0.76734 0.0
O1910 O 0.87677 0.53328 0.7439 0.0
O1911 O 0.90342 0.55259 0.7699 0.0
H1912 H 0.87021 0.52227 0.80847 0.0
H1913 H 0.84228 0.54629 0.77582 0.0
H1914 H 0.8472 0.51908 0.82639 0.0
H1915 H 0.81973 0.54248 0.7942 0.0
H1916 H 0.94702 0.51762 0.78187 0.0
H1917 H 0.89485 0.48083 0.76347 0.0
H1918 H 0.9226 0.53034 0.77723 0.0
H1919 H 0.91981 0.46895 0.76837 0.0
H1920 H 0.82974 0.47567 0.78021 0.0
H1921 H 0.8316 0.47652 0.72805 0.0
H1922 H 0.92528 0.56118 0.83223 0.0
H1923 H 0.91072 0.50713 0.82983 0.0
H1924 H 0.87868 0.53563 0.71238 0.0
H1925 H 0.84632 0.53306 0.75135 0.0
H1926 H 0.85544 0.53723 0.69321 0.0
H1927 H 0.82368 0.53499 0.73164 0.0
H1928 H 0.89792 0.56059 0.73991 0.0
H1929 H 0.92774 0.57478 0.78445 0.0
H1930 H 0.91342 0.58507 0.72812 0.0
H1931 H 0.94281 0.59898 0.77182 0.0
H1932 H 0.85222 0.59304 0.78832 0.0
H1933 H 0.85344 0.591 0.73587 0.0
H1934 H 0.91562 0.51009 0.70126 0.0
H1935 H 0.95369 0.54156 0.73284 0.0
Li1936 Li 0.74672 0.3831 0.52267 0.0
Li1937 Li 0.7323 0.40296 0.50958 0.0
Li1938 Li 0.74997 0.38607 0.49468 0.0
Li1939 Li 0.76195 0.40972 0.51445 0.0
C1940 C 0.71881 0.36515 0.50977 0.0
N1941 N 0.69788 0.33905 0.52104 0.0
C1942 C 0.70401 0.36783 0.51567 0.0
C1943 C 0.72289 0.34915 0.50945 0.0
C1944 C 0.6936 0.35448 0.52134 0.0
C1945 C 0.71217 0.33614 0.51525 0.0
C1946 C 0.74838 0.41607 0.54504 0.0
C1947 C 0.74845 0.44192 0.56192 0.0
N1948 N 0.75558 0.43558 0.57449 0.0
C1949 C 0.75563 0.40978 0.55816 0.0
C1950 C 0.74466 0.43224 0.54695 0.0
C1951 C 0.7592 0.41985 0.57293 0.0
C1952 C 0.75775 0.3594 0.5413 0.0
N1953 N 0.74549 0.36807 0.53907 0.0
C1954 C 0.73135 0.3553 0.56048 0.0
C1955 C 0.73253 0.3664 0.54847 0.0
C1956 C 0.74383 0.34613 0.56312 0.0
C1957 C 0.75719 0.34834 0.55333 0.0
H1958 H 0.76808 0.36124 0.53388 0.0
H1959 H 0.72307 0.37366 0.54658 0.0
C1960 C 0.70802 0.41752 0.49453 0.0
N1961 N 0.71376 0.41322 0.50889 0.0
C1962 C 0.69562 0.42692 0.49422 0.0
C1963 C 0.6946 0.4264 0.52337 0.0
C1964 C 0.70717 0.41718 0.52313 0.0
C1965 C 0.68885 0.43166 0.50881 0.0
H1966 H 0.71338 0.41403 0.48336 0.0
H1967 H 0.71187 0.41339 0.53434 0.0
C1968 C 0.77828 0.3793 0.50363 0.0
N1969 N 0.79945 0.36407 0.48534 0.0
C1970 C 0.79239 0.38891 0.49866 0.0
C1971 C 0.77505 0.36191 0.49948 0.0
C1972 C 0.80292 0.38097 0.48939 0.0
C1973 C 0.78586 0.35446 0.49016 0.0
C1974 C 0.74746 0.4247 0.48765 0.0
C1975 C 0.74557 0.42502 0.4708 0.0
C1976 C 0.74748 0.43933 0.49793 0.0
C1977 C 0.74366 0.44001 0.46451 0.0
C1978 C 0.74555 0.45408 0.49118 0.0
N1979 N 0.74368 0.45411 0.47475 0.0
C1980 C 0.74272 0.35981 0.46952 0.0
C1981 C 0.76493 0.381 0.46503 0.0
C1982 C 0.74516 0.35033 0.45524 0.0
N1983 N 0.75271 0.37467 0.47424 0.0
C1984 C 0.7679 0.37187 0.45068 0.0
C1985 C 0.75806 0.35619 0.44572 0.0
H1986 H 0.73295 0.35521 0.47695 0.0
H1987 H 0.77262 0.39294 0.46906 0.0
C1988 C 0.78595 0.4338 0.53415 0.0
N1989 N 0.77968 0.42797 0.51883 0.0
C1990 C 0.79892 0.44731 0.53661 0.0
C1991 C 0.799 0.44828 0.50748 0.0
C1992 C 0.786 0.43485 0.5056 0.0
C1993 C 0.80566 0.45468 0.52315 0.0
H1994 H 0.78112 0.42789 0.54447 0.0
H1995 H 0.78114 0.42967 0.49352 0.0
O1996 O 0.72921 0.37811 0.50431 0.0
O1997 O 0.74467 0.40635 0.53051 0.0
O1998 O 0.76762 0.3869 0.51238 0.0
O1999 O 0.74914 0.41006 0.49396 0.0
H2000 H 0.70062 0.3801 0.51594 0.0
H2001 H 0.73432 0.34687 0.50498 0.0
H2002 H 0.68214 0.35639 0.52601 0.0
H2003 H 0.71524 0.32374 0.5152 0.0
H2004 H 0.74569 0.45447 0.56355 0.0
H2005 H 0.75867 0.39735 0.55691 0.0
H2006 H 0.73888 0.43726 0.53703 0.0
H2007 H 0.76489 0.41517 0.58316 0.0
H2008 H 0.72071 0.3539 0.56755 0.0
H2009 H 0.76728 0.34187 0.55512 0.0
H2010 H 0.69172 0.4308 0.48271 0.0
H2011 H 0.68951 0.4294 0.53484 0.0
H2012 H 0.79514 0.40235 0.50183 0.0
H2013 H 0.76416 0.3543 0.50319 0.0
H2014 H 0.81384 0.38827 0.48538 0.0
H2015 H 0.78341 0.34105 0.48671 0.0
H2016 H 0.74552 0.41377 0.46269 0.0
H2017 H 0.74901 0.43929 0.51098 0.0
H2018 H 0.74215 0.44044 0.4515 0.0
H2019 H 0.74553 0.4655 0.499 0.0
H2020 H 0.737 0.33854 0.45168 0.0
H2021 H 0.77802 0.37685 0.44378 0.0
H2022 H 0.8037 0.4518 0.54891 0.0
H2023 H 0.8041 0.45318 0.4967 0.0
Li2024 Li 0.61849 0.50095 0.28768 0.0
Li2025 Li 0.63791 0.52019 0.2728 0.0
Li2026 Li 0.61475 0.49904 0.2585 0.0
Li2027 Li 0.63801 0.48999 0.27086 0.0
C2028 C 0.60384 0.52712 0.28259 0.0
N2029 N 0.58334 0.54361 0.30057 0.0
C2030 C 0.60947 0.54328 0.29025 0.0
C2031 C 0.58775 0.5194 0.28393 0.0
C2032 C 0.59891 0.5514 0.29931 0.0
C2033 C 0.57759 0.52792 0.29314 0.0
C2034 C 0.65418 0.5008 0.29906 0.0
C2035 C 0.68216 0.49822 0.30386 0.0
N2036 N 0.67772 0.48761 0.31536 0.0
C2037 C 0.64988 0.48994 0.31096 0.0
C2038 C 0.67044 0.50507 0.29552 0.0
C2039 C 0.66197 0.48338 0.31906 0.0
C2040 C 0.59762 0.48544 0.31013 0.0
N2041 N 0.60781 0.49974 0.30735 0.0
C2042 C 0.60194 0.51369 0.33245 0.0
C2043 C 0.61041 0.51358 0.31832 0.0
C2044 C 0.59106 0.49925 0.33547 0.0
C2045 C 0.58912 0.48488 0.32428 0.0
H2046 H 0.59599 0.47454 0.30129 0.0
H2047 H 0.61887 0.52463 0.31593 0.0
C2048 C 0.64873 0.55005 0.25905 0.0
N2049 N 0.64972 0.5422 0.2728 0.0
C2050 C 0.65703 0.56645 0.25855 0.0
C2051 C 0.66704 0.56639 0.28645 0.0
C2052 C 0.65862 0.54994 0.28637 0.0
C2053 C 0.6663 0.57488 0.27241 0.0
H2054 H 0.64152 0.54352 0.24846 0.0
H2055 H 0.65903 0.54336 0.29716 0.0
C2056 C 0.60382 0.46782 0.26401 0.0
N2057 N 0.58159 0.4426 0.2466 0.0
C2058 C 0.60916 0.45541 0.25391 0.0
C2059 C 0.58719 0.46738 0.26531 0.0
C2060 C 0.59773 0.44276 0.2452 0.0
C2061 C 0.57614 0.45454 0.25638 0.0
C2062 C 0.6499 0.5051 0.24245 0.0
C2063 C 0.64699 0.49637 0.22694 0.0
C2064 C 0.6652 0.51481 0.24696 0.0
C2065 C 0.65947 0.49742 0.21622 0.0
C2066 C 0.67736 0.51555 0.23589 0.0
N2067 N 0.67427 0.50691 0.22088 0.0
C2068 C 0.59064 0.50883 0.23925 0.0
C2069 C 0.60003 0.48491 0.22738 0.0
C2070 C 0.58173 0.50998 0.22489 0.0
N2071 N 0.59983 0.49668 0.24012 0.0
C2072 C 0.59125 0.48556 0.21275 0.0
C2073 C 0.58237 0.49857 0.21122 0.0
H2074 H 0.59099 0.51829 0.24936 0.0
H2075 H 0.60766 0.47557 0.22826 0.0
C2076 C 0.64653 0.46005 0.27889 0.0
N2077 N 0.65138 0.47306 0.26991 0.0
C2078 C 0.65504 0.44676 0.27902 0.0
C2079 C 0.67363 0.46054 0.26085 0.0
C2080 C 0.66477 0.47361 0.26112 0.0
C2081 C 0.6687 0.4468 0.26977 0.0
H2082 H 0.63593 0.45999 0.2859 0.0
H2083 H 0.66862 0.48405 0.25423 0.0
O2084 O 0.61403 0.51892 0.27378 0.0
O2085 O 0.64248 0.50706 0.29076 0.0
O2086 O 0.61482 0.48029 0.27268 0.0
O2087 O 0.63767 0.50458 0.25291 0.0
H2088 H 0.62187 0.54946 0.28928 0.0
H2089 H 0.5832 0.50693 0.27802 0.0
H2090 H 0.60311 0.56389 0.30536 0.0
H2091 H 0.56515 0.52206 0.29437 0.0
H2092 H 0.69479 0.50133 0.30119 0.0
H2093 H 0.63733 0.4865 0.31381 0.0
H2094 H 0.67394 0.51348 0.28634 0.0
H2095 H 0.65883 0.47489 0.32826 0.0
H2096 H 0.60389 0.52492 0.34094 0.0
H2097 H 0.58083 0.47352 0.32626 0.0
H2098 H 0.6563 0.57238 0.24739 0.0
H2099 H 0.67383 0.57246 0.29748 0.0
H2100 H 0.62198 0.45562 0.25264 0.0
H2101 H 0.58286 0.47687 0.27309 0.0
H2102 H 0.60168 0.4331 0.23729 0.0
H2103 H 0.56323 0.45407 0.25724 0.0
H2104 H 0.63521 0.48888 0.2232 0.0
H2105 H 0.66774 0.52157 0.25892 0.0
H2106 H 0.65738 0.49072 0.20418 0.0
H2107 H 0.68927 0.52296 0.23924 0.0
H2108 H 0.57533 0.5204 0.22422 0.0
H2109 H 0.59197 0.47642 0.20256 0.0
H2110 H 0.65096 0.43658 0.28631 0.0
H2111 H 0.68401 0.46104 0.25345 0.0
Dy2112 Dy 0.98718 0.01621 0.00702 0.0
C2113 C 0.05668 0.02418 0.00868 0.0
C2114 C 0.95458 0.01514 0.00766 0.0
Dy2115 Dy 0.02454 0.02435 0.01207 0.0
O2116 O 0.96278 0.01616 0.99473 0.0
O2117 O 0.96419 0.01465 0.02031 0.0
O2118 O 0.98979 0.00126 0.9834 0.0
O2119 O 0.00712 0.02284 0.99158 0.0
C2120 C 0.0035 0.01061 0.9808 0.0
C2121 C 0.00848 0.02946 0.03868 0.0
O2122 O 0.0202 0.04874 0.00417 0.0
O2123 O 0.99289 0.04458 0.00956 0.0
O2124 O 0.05065 0.03026 0.02165 0.0
O2125 O 0.04516 0.01843 -0.00246 0.0
O2126 O 0.02261 0.03827 0.03651 0.0
O2127 O 0.00464 0.0177 0.02747 0.0
O2128 O 0.99098 0.99133 0.01407 0.0
O2129 O 0.01899 0.99611 0.01192 0.0
C2130 C 0.00648 0.05446 0.00619 0.0
C2131 C 0.00503 0.98599 0.01377 0.0
Dy2132 Dy 0.25871 0.77022 0.2452 0.0
C2133 C 0.24723 0.77005 0.31319 0.0
C2134 C 0.26181 0.77324 0.21293 0.0
Dy2135 Dy 0.2499 0.77261 0.2808 0.0
O2136 O 0.27227 0.78053 0.22454 0.0
O2137 O 0.24956 0.76415 0.21893 0.0
O2138 O 0.28208 0.76194 0.25185 0.0
O2139 O 0.27234 0.77794 0.2686 0.0
C2140 C 0.28307 0.76897 0.26668 0.0
C2141 C 0.22555 0.77406 0.25927 0.0
O2142 O 0.25769 0.79982 0.27836 0.0
O2143 O 0.2548 0.79684 0.25013 0.0
O2144 O 0.25896 0.77964 0.30696 0.0
O2145 O 0.23696 0.76198 0.30174 0.0
O2146 O 0.22698 0.7816 0.27394 0.0
O2147 O 0.23618 0.76492 0.25743 0.0
O2148 O 0.25182 0.74288 0.24773 0.0
O2149 O 0.25427 0.74621 0.27599 0.0
C2150 C 0.25682 0.80628 0.26427 0.0
C2151 C 0.25278 0.73666 0.26195 0.0
Dy2152 Dy 0.52361 0.01934 0.51087 0.0
C2153 C 0.45547 0.03122 0.50965 0.0
C2154 C 0.55353 0.01267 0.51899 0.0
Dy2155 Dy 0.48545 0.02265 0.51232 0.0
O2156 O 0.54007 0.0059 0.52489 0.0
O2157 O 0.55068 0.02342 0.50893 0.0
O2158 O 0.52366 0.01676 0.4831 0.0
O2159 O 0.50302 0.01912 0.49501 0.0
C2160 C 0.50842 0.01795 0.48122 0.0
C2161 C 0.50144 0.01834 0.53988 0.0
O2162 O 0.48329 0.99523 0.50465 0.0
O2163 O 0.51005 0.99323 0.5127 0.0
O2164 O 0.4645 0.03258 0.52305 0.0
O2165 O 0.46273 0.02496 0.49758 0.0
O2166 O 0.48595 0.01286 0.5369 0.0
O2167 O 0.50715 0.02671 0.52871 0.0
O2168 O 0.52564 0.04724 0.51553 0.0
O2169 O 0.49834 0.04876 0.50942 0.0
C2170 C 0.49476 0.98638 0.50798 0.0
C2171 C 0.51388 0.05586 0.51247 0.0
Dy2172 Dy 0.23937 0.2703 0.76108 0.0
C2173 C 0.30834 0.27466 0.75686 0.0
C2174 C 0.20717 0.26747 0.76691 0.0
Dy2175 Dy 0.276 0.26938 0.76243 0.0
O2176 O 0.21768 0.28136 0.76827 0.0
O2177 O 0.21417 0.25498 0.76203 0.0
O2178 O 0.24438 0.29457 0.74978 0.0
O2179 O 0.26159 0.28891 0.76679 0.0
C2180 C 0.25878 0.29922 0.75695 0.0
C2181 C 0.25679 0.24024 0.76623 0.0
O2182 O 0.27372 0.27846 0.78835 0.0
O2183 O 0.246 0.26826 0.78743 0.0
O2184 O 0.30063 0.26189 0.76343 0.0
O2185 O 0.29846 0.28478 0.75373 0.0
O2186 O 0.2714 0.24463 0.77298 0.0
O2187 O 0.25386 0.25079 0.75672 0.0
O2188 O 0.24102 0.26312 0.73457 0.0
O2189 O 0.2693 0.26776 0.73563 0.0
C2190 C 0.2601 0.27408 0.7957 0.0
C2191 C 0.25496 0.26448 0.72736 0.0
Dy2192 Dy 0.00152 0.01187 0.49172 0.0
C2193 C 0.0281 0.03854 0.5567 0.0
C2194 C 0.98981 0.00425 0.46017 0.0
Dy2195 Dy 0.01008 0.02756 0.52849 0.0
O2196 O 0.0049 0.00969 0.46496 0.0
O2197 O 0.98104 0.00255 0.47272 0.0
O2198 O 0.02752 0.00848 0.49076 0.0
O2199 O 0.02164 0.02872 0.50551 0.0
C2200 C 0.033 0.02125 0.50139 0.0
C2201 C 0.97854 0.01306 0.52397 0.0
O2202 O 0.00756 0.05093 0.51694 0.0
O2203 O -0.00361 0.03808 0.49149 0.0
O2204 O 0.01412 0.04257 0.55296 0.0
O2205 O 0.03231 0.02886 0.54486 0.0
O2206 O 0.98512 0.02026 0.53796 0.0
O2207 O 0.98927 0.01444 0.51381 0.0
O2208 O 0.00014 0.98833 0.50382 0.0
O2209 O 0.01456 0.00094 0.52792 0.0
C2210 C 0.00081 0.05154 0.50219 0.0
C2211 C 0.00795 0.98743 0.51795 0.0
Dy2212 Dy 0.272 0.77883 0.76444 0.0
C2213 C 0.20651 0.74761 0.74579 0.0
C2214 C 0.30261 0.79005 0.77794 0.0
Dy2215 Dy 0.23721 0.75949 0.75878 0.0
O2216 O 0.29805 0.79098 0.76287 0.0
O2217 O 0.2903 0.78348 0.78567 0.0
O2218 O 0.27275 0.78293 0.738 0.0
O2219 O 0.25886 0.76097 0.74519 0.0
C2220 C 0.26227 0.76936 0.73333 0.0
C2221 C 0.2473 0.76937 0.78981 0.0
O2222 O 0.2495 0.73729 0.75868 0.0
O2223 O 0.27427 0.75248 0.7697 0.0
O2224 O 0.21093 0.74874 0.76117 0.0
O2225 O 0.21894 0.75264 0.73753 0.0
O2226 O 0.23722 0.75544 0.78542 0.0
O2227 O 0.25029 0.77753 0.77777 0.0
O2228 O 0.25958 0.80092 0.7649 0.0
O2229 O 0.23505 0.78583 0.75317 0.0
C2230 C 0.26431 0.73798 0.76532 0.0
C2231 C 0.24492 0.80032 0.75791 0.0
Dy2232 Dy 0.50933 0.01909 0.0312 0.0
C2233 C 0.5075 0.02144 0.96321 0.0
C2234 C 0.50802 0.01513 0.06344 0.0
Dy2235 Dy 0.50404 0.02482 0.9958 0.0
O2236 O 0.51327 0.02931 0.05763 0.0
O2237 O 0.50343 0.00335 0.05169 0.0
O2238 O 0.52226 -0.00188 0.02353 0.0
O2239 O 0.50278 0.00254 0.00863 0.0
C2240 C 0.51386 0.99393 0.00976 0.0
C2241 C 0.50017 0.05066 0.01665 0.0
O2242 O 0.47947 0.01118 0.00018 0.0
O2243 O 0.48255 0.01891 0.02791 0.0
O2244 O 0.49784 0.03044 0.97019 0.0
O2245 O 0.51491 0.01433 0.97396 0.0
O2246 O 0.49249 0.04722 0.00238 0.0
O2247 O 0.51065 0.04142 0.01818 0.0
O2248 O 0.53484 0.03073 0.02795 0.0
O2249 O 0.53114 0.03166 -1e-05 0.0
C2250 C 0.47326 0.01327 0.01449 0.0
C2251 C 0.54056 0.03354 0.0136 0.0
Dy2252 Dy 0.25753 0.29143 0.26545 0.0
C2253 C 0.25484 0.22018 0.26258 0.0
C2254 C 0.25624 0.32452 0.26397 0.0
Dy2255 Dy 0.25268 0.25281 0.2595 0.0
O2256 O 0.25624 0.31714 0.27726 0.0
O2257 O 0.25698 0.31383 0.2515 0.0
O2258 O 0.27089 0.29043 0.28941 0.0
O2259 O 0.25192 0.27072 0.28038 0.0
C2260 C 0.26295 0.27558 0.2915 0.0
C2261 C 0.24739 0.26842 0.23322 0.0
O2262 O 0.22803 0.2552 0.26714 0.0
O2263 O 0.23029 0.2836 0.26358 0.0
O2264 O 0.24873 0.22552 0.24974 0.0
O2265 O 0.25969 0.23263 0.27365 0.0
O2266 O 0.2399 0.25334 0.23513 0.0
O2267 O 0.25822 0.27345 0.2445 0.0
O2268 O 0.28254 0.28943 0.25868 0.0
O2269 O 0.27988 0.2605 0.25958 0.0
C2270 C 0.22154 0.26884 0.26604 0.0
C2271 C 0.28881 0.27552 0.25836 0.0
Dy2272 Dy 0.50301 0.51407 0.99223 0.0
C2273 C 0.53001 0.54135 0.05702 0.0
C2274 C 0.49095 0.50613 0.9608 0.0
Dy2275 Dy 0.51184 0.5304 0.02884 0.0
O2276 O 0.50613 0.51126 0.96542 0.0
O2277 O 0.4823 0.50486 0.97346 0.0
O2278 O 0.52917 0.51123 0.99112 0.0
O2279 O 0.52299 0.53148 0.00564 0.0
C2280 C 0.5345 0.52424 0.00152 0.0
C2281 C 0.48048 0.51515 0.0248 0.0
O2282 O 0.50873 0.55349 0.01712 0.0
O2283 O 0.49741 0.54013 0.9919 0.0
O2284 O 0.51587 0.54513 0.05346 0.0
O2285 O 0.53435 0.53206 0.04495 0.0
O2286 O 0.4871 0.52268 0.03865 0.0
O2287 O 0.49108 0.51665 0.01451 0.0
O2288 O 0.50212 0.49077 0.00469 0.0
O2289 O 0.517 0.50405 0.02831 0.0
C2290 C 0.50169 0.55376 0.00243 0.0
C2291 C 0.51035 0.49031 0.01869 0.0
Dy2292 Dy 0.7723 0.27914 0.26108 0.0
C2293 C 0.70594 0.24772 0.24788 0.0
C2294 C 0.80421 0.29106 0.27007 0.0
Dy2295 Dy 0.7373 0.25967 0.25885 0.0
O2296 O 0.79836 0.28628 0.25527 0.0
O2297 O 0.79253 0.28969 0.27995 0.0
O2298 O 0.76954 0.28337 0.23469 0.0
O2299 O 0.75732 0.26121 0.24308 0.0
C2300 C 0.75912 0.26952 0.23093 0.0
C2301 C 0.75046 0.26878 0.28898 0.0
O2302 O 0.74986 0.23769 0.2575 0.0
O2303 O 0.775 0.25315 0.26721 0.0
O2304 O 0.71124 0.24954 0.26307 0.0
O2305 O 0.71786 0.25209 0.23875 0.0
O2306 O 0.73976 0.25514 0.28515 0.0
O2307 O 0.75231 0.27731 0.27698 0.0
O2308 O 0.76002 0.3014 0.26232 0.0
O2309 O 0.73424 0.28607 0.2547 0.0
C2310 C 0.76501 0.23857 0.26331 0.0
C2311 C 0.74447 0.3006 0.25794 0.0
Dy2312 Dy 0.00577 0.5175 0.5296 0.0
C2313 C 0.00089 0.51385 0.45972 0.0
C2314 C 0.0042 0.51854 0.5624 0.0
Dy2315 Dy 0.0023 0.52086 0.4926 0.0
O2316 O -0.00133 0.50549 0.55217 0.0
O2317 O 0.01062 0.53114 0.55472 0.0
O2318 O 0.01819 0.49546 0.52433 0.0
O2319 O 0.00024 0.50002 0.50762 0.0
C2320 C 0.01068 0.49095 0.51014 0.0
C2321 C 0.00842 0.55 0.5118 0.0
O2322 O 0.9759 0.51492 0.49726 0.0
O2323 O 0.97887 0.51496 0.52555 0.0
O2324 O 0.99449 0.52571 0.4672 0.0
O2325 O 0.00762 0.50583 0.47022 0.0
O2326 O 0.01308 0.54849 0.49702 0.0
O2327 O -0.00029 0.53648 0.51474 0.0
O2328 O 0.03091 0.5297 0.52502 0.0
O2329 O 0.02874 0.52097 0.49742 0.0
C2330 C 0.96979 0.5138 0.51177 0.0
C2331 C 0.03755 0.52707 0.511 0.0
Dy2332 Dy 0.73887 0.7709 0.26259 0.0
C2333 C 0.80787 0.77778 0.25675 0.0
C2334 C 0.70677 0.7674 0.26884 0.0
Dy2335 Dy 0.77565 0.77147 0.26275 0.0
O2336 O 0.71712 0.78139 0.2705 0.0
O2337 O 0.71388 0.75515 0.26351 0.0
O2338 O 0.74274 0.79534 0.25151 0.0
O2339 O 0.76063 0.79024 0.26809 0.0
C2340 C 0.75715 0.80051 0.25852 0.0
C2341 C 0.75757 0.74145 0.26592 0.0
O2342 O 0.77356 0.78008 0.28888 0.0
O2343 O 0.74629 0.76819 0.28856 0.0
O2344 O 0.80082 0.76533 0.2642 0.0
O2345 O 0.79738 0.78703 0.25292 0.0
O2346 O 0.7723 0.74609 0.27226 0.0
O2347 O 0.754 0.75225 0.25706 0.0
O2348 O 0.74009 0.76339 0.2361 0.0
O2349 O 0.76823 0.77102 0.23613 0.0
C2350 C 0.76036 0.77473 0.29655 0.0
C2351 C 0.75367 0.76645 0.22838 0.0
Dy2352 Dy 0.75985 0.26862 0.74198 0.0
C2353 C 0.75453 0.27012 0.81314 0.0
C2354 C 0.75217 0.27043 0.71001 0.0
Dy2355 Dy 0.75499 0.27288 0.78068 0.0
O2356 O 0.76167 0.26072 0.71535 0.0
O2357 O 0.74692 0.27889 0.72211 0.0
O2358 O 0.78723 0.26894 0.74432 0.0
O2359 O 0.77386 0.27151 0.76443 0.0
C2360 C 0.78786 0.27071 0.76021 0.0
C2361 C 0.73007 0.2763 0.76065 0.0
O2362 O 0.76572 0.29927 0.77692 0.0
O2363 O 0.76296 0.29638 0.74837 0.0
O2364 O 0.76614 0.27927 0.80625 0.0
O2365 O 0.74324 0.26266 0.80232 0.0
O2366 O 0.73272 0.28378 0.77535 0.0
O2367 O 0.7398 0.26627 0.75813 0.0
O2368 O 0.75097 0.24205 0.74661 0.0
O2369 O 0.75642 0.24566 0.77487 0.0
C2370 C 0.76615 0.30559 0.76263 0.0
C2371 C 0.7526 0.236 0.76089 0.0
Dy2372 Dy 0.75727 0.79087 0.76478 0.0
C2373 C 0.75638 0.72012 0.76239 0.0
C2374 C 0.75585 0.82415 0.76518 0.0
Dy2375 Dy 0.75328 0.75234 0.75846 0.0
O2376 O 0.75219 0.81503 0.77706 0.0
O2377 O 0.76035 0.8151 0.75307 0.0
O2378 O 0.77086 0.78985 0.78861 0.0
O2379 O 0.75221 0.76991 0.77957 0.0
C2380 C 0.76324 0.77489 0.79067 0.0
C2381 C 0.74707 0.76756 0.73217 0.0
O2382 O 0.72858 0.75447 0.76619 0.0
O2383 O 0.73019 0.78246 0.76134 0.0
O2384 O 0.74872 0.72468 0.75 0.0
O2385 O 0.76225 0.73313 0.77251 0.0
O2386 O 0.74105 0.75192 0.73367 0.0
O2387 O 0.75775 0.77321 0.74351 0.0
O2388 O 0.78241 0.7895 0.75788 0.0
O2389 O 0.78029 0.76054 0.75797 0.0
C2390 C 0.72171 0.76775 0.76433 0.0
C2391 C 0.78892 0.77574 0.75702 0.0
Dy2392 Dy 0.48655 0.51519 0.50604 0.0
C2393 C 0.55569 0.51961 0.50927 0.0
C2394 C 0.45419 0.51587 0.50591 0.0
Dy2395 Dy 0.5238 0.52149 0.51208 0.0
O2396 O 0.46277 0.51675 0.49323 0.0
O2397 O 0.46328 0.51454 0.51869 0.0
O2398 O 0.48902 0.49997 0.48254 0.0
O2399 O 0.50713 0.52074 0.49109 0.0
C2400 C 0.50328 0.50846 0.4804 0.0
C2401 C 0.50733 0.52762 0.53817 0.0
O2402 O 0.52101 0.54645 0.50446 0.0
O2403 O 0.49354 0.54345 0.50906 0.0
O2404 O 0.54949 0.52449 0.52261 0.0
O2405 O 0.54451 0.51603 0.49748 0.0
O2406 O 0.52183 0.53582 0.53631 0.0
O2407 O 0.50329 0.5159 0.52693 0.0
O2408 O 0.48883 0.49008 0.51354 0.0
O2409 O 0.51683 0.49329 0.51169 0.0
C2410 C 0.50759 0.5528 0.50617 0.0
C2411 C 0.50246 0.48391 0.51352 0.0
Dy2412 Dy 0.02272 0.51547 0.01004 0.0
C2413 C 0.95642 0.53029 0.00181 0.0
C2414 C 0.05112 0.50381 0.01315 0.0
Dy2415 Dy 0.98553 0.52229 0.01089 0.0
O2416 O 0.04721 0.51589 0.02281 0.0
O2417 O 0.0396 0.49832 0.00192 0.0
O2418 O 0.02308 0.52308 0.98452 0.0
O2419 O 0.00111 0.51216 0.99362 0.0
C2420 C 0.00741 0.51904 0.98185 0.0
C2421 C 0.00098 0.52516 0.04068 0.0
O2422 O 0.98186 0.49423 0.00731 0.0
O2423 O 0.00791 0.49157 0.01688 0.0
O2424 O 0.95841 0.5195 0.01215 0.0
O2425 O 0.97027 0.53639 -0.00375 0.0
O2426 O 0.9861 0.52758 0.03869 0.0
O2427 O 0.0058 0.5219 0.02693 0.0
O2428 O 0.02697 0.54343 0.01519 0.0
O2429 O 0.0008 0.54688 0.00656 0.0
C2430 C 0.99244 0.48516 0.01254 0.0
C2431 C 0.01638 0.55288 0.01078 0.0
C2432 C 0.9869 0.18433 0.95037 0.0
C2433 C 0.00086 0.19076 0.94253 0.0
C2434 C 0.98704 0.17126 0.96026 0.0
C2435 C 0.0147 0.14895 0.98256 0.0
H2436 H 0.97863 0.11146 0.97617 0.0
C2437 C 0.01959 0.08235 -0.00199 0.0
C2438 C 0.00595 0.0721 0.00337 0.0
C2439 C 0.01863 0.09839 0.99368 0.0
C2440 C 0.98866 0.12195 0.97838 0.0
H2441 H 0.02586 0.18846 0.93884 0.0
H2442 H 0.02608 0.16565 0.956 0.0
H2443 H 0.97743 0.13662 0.96258 0.0
H2444 H 0.98084 0.07108 0.00929 0.0
H2445 H 0.97924 0.09916 0.00187 0.0
H2446 H 0.0261 0.13407 -0.00195 0.0
C2447 C 0.01512 0.1709 0.95477 0.0
C2448 C 0.98798 0.13638 0.97056 0.0
C2449 C 0.01498 0.18394 0.94489 0.0
C2450 C 0.99154 0.07857 0.00505 0.0
C2451 C 0.99059 0.09464 0.00074 0.0
C2452 C 0.01537 0.13452 0.99041 0.0
C2453 C 0.00114 0.16436 0.96252 0.0
C2454 C 0.00114 0.14987 0.97226 0.0
C2455 C 0.00402 0.10457 0.99466 0.0
C2456 C 0.00251 0.12071 0.98811 0.0
H2457 H 0.97591 0.18951 0.94899 0.0
H2458 H 0.97613 0.1666 0.96621 0.0
H2459 H 0.02491 0.15928 0.98436 0.0
H2460 H 0.0309 0.0778 -0.0034 0.0
H2461 H 0.02916 0.10563 0.98888 0.0
C2462 C 0.10522 0.76921 0.16709 0.0
C2463 C 0.09582 0.78074 0.17344 0.0
C2464 C 0.12061 0.7689 0.17419 0.0
C2465 C 0.15372 0.7943 0.20183 0.0
H2466 H 0.16482 0.75109 0.20935 0.0
C2467 C 0.20242 0.78715 0.25032 0.0
C2468 C 0.21253 0.77534 0.24708 0.0
C2469 C 0.18965 0.78824 0.2393 0.0
C2470 C 0.16204 0.76325 0.20709 0.0
H2471 H 0.09528 0.801 0.19226 0.0
H2472 H 0.12206 0.80044 0.20469 0.0
H2473 H 0.13957 0.7522 0.19395 0.0
H2474 H 0.21748 0.75559 0.22966 0.0
H2475 H 0.19499 0.75744 0.21023 0.0
H2476 H 0.176 0.80534 0.2153 0.0
C2477 C 0.11765 0.7918 0.19404 0.0
C2478 C 0.14755 0.76389 0.19828 0.0
C2479 C 0.10227 0.7921 0.18694 0.0
C2480 C 0.20983 0.76479 0.23244 0.0
C2481 C 0.19693 0.76581 0.22138 0.0
C2482 C 0.16817 0.79365 0.21064 0.0
C2483 C 0.12698 0.78014 0.18781 0.0
C2484 C 0.14306 0.77943 0.19585 0.0
C2485 C 0.18665 0.7775 0.22476 0.0
C2486 C 0.17233 0.77813 0.21369 0.0
H2487 H 0.10074 0.76048 0.15651 0.0
H2488 H 0.12757 0.75993 0.16895 0.0
H2489 H 0.1508 0.80647 0.19986 0.0
H2490 H 0.20425 0.79548 0.26151 0.0
H2491 H 0.18183 0.7972 0.2424 0.0
C2492 C 0.49312 0.85054 0.44163 0.0
C2493 C 0.50292 0.84002 0.44805 0.0
C2494 C 0.48996 0.86457 0.45108 0.0
C2495 C 0.5073 0.8949 0.48501 0.0
H2496 H 0.46487 0.90781 0.48321 0.0
C2497 C 0.49942 0.95854 0.5153 0.0
C2498 C 0.49094 0.96791 0.50564 0.0
C2499 C 0.49826 0.9413 0.5114 0.0
C2500 C 0.47679 0.90441 0.4838 0.0
H2501 H 0.51694 0.83579 0.46947 0.0
H2502 H 0.51152 0.86055 0.48605 0.0
H2503 H 0.46825 0.8805 0.47023 0.0
H2504 H 0.47382 0.96659 0.48496 0.0
H2505 H 0.47216 0.93649 0.47772 0.0
H2506 H 0.51611 0.91897 0.49784 0.0
C2507 C 0.5063 0.85787 0.47367 0.0
C2508 C 0.47872 0.88877 0.47641 0.0
C2509 C 0.50936 0.84371 0.46422 0.0
C2510 C 0.48043 0.95959 0.49263 0.0
C2511 C 0.47946 0.94234 0.48853 0.0
C2512 C 0.50542 0.91055 0.49229 0.0
C2513 C 0.49659 0.86844 0.46716 0.0
C2514 C 0.49406 0.88402 0.47666 0.0
C2515 C 0.48884 0.93312 0.49754 0.0
C2516 C 0.49021 0.91565 0.49152 0.0
H2517 H 0.48776 0.84784 0.4293 0.0
H2518 H 0.48261 0.8726 0.44568 0.0
H2519 H 0.51931 0.89167 0.48523 0.0
H2520 H 0.50743 0.96466 0.52557 0.0
H2521 H 0.50527 0.93451 0.51887 0.0
C2522 C 0.43238 0.28597 0.68313 0.0
C2523 C 0.44118 0.2728 0.68405 0.0
C2524 C 0.41866 0.28645 0.69205 0.0
C2525 C 0.38747 0.25958 0.71301 0.0
H2526 H 0.37988 0.30226 0.73329 0.0
C2527 C 0.33405 0.26337 0.75397 0.0
C2528 C 0.325 0.27598 0.75134 0.0
C2529 C 0.349 0.26347 0.74706 0.0
C2530 C 0.38176 0.29026 0.7276 0.0
H2531 H 0.44245 0.24984 0.69515 0.0
H2532 H 0.41851 0.25069 0.71078 0.0
H2533 H 0.40428 0.30123 0.71849 0.0
H2534 H 0.32464 0.29889 0.73988 0.0
H2535 H 0.35069 0.29906 0.72772 0.0
H2536 H 0.3649 0.24863 0.72201 0.0
C2537 C 0.42212 0.26055 0.70299 0.0
C2538 C 0.39574 0.28967 0.71909 0.0
C2539 C 0.43585 0.26006 0.69403 0.0
C2540 C 0.33141 0.28905 0.74216 0.0
C2541 C 0.34636 0.28916 0.73524 0.0
C2542 C 0.3735 0.26018 0.72153 0.0
C2543 C 0.41338 0.27378 0.70214 0.0
C2544 C 0.39873 0.27433 0.7116 0.0
C2545 C 0.3552 0.27619 0.73735 0.0
C2546 C 0.37042 0.27553 0.72887 0.0
H2547 H 0.43596 0.29582 0.67532 0.0
H2548 H 0.41204 0.29663 0.69083 0.0
H2549 H 0.38925 0.2476 0.7072 0.0
H2550 H 0.3294 0.25316 0.76103 0.0
H2551 H 0.35561 0.25345 0.74916 0.0
C2552 C -0.00203 0.84818 0.56774 0.0
C2553 C 0.00712 0.84926 0.5826 0.0
C2554 C -0.00086 0.86201 0.55866 0.0
C2555 C 0.0247 0.90336 0.55404 0.0
H2556 H 0.98451 0.91406 0.53642 0.0
C2557 C 0.01888 0.96932 0.53709 0.0
C2558 C 0.00923 0.97068 0.52309 0.0
C2559 C 0.01957 0.95363 0.54244 0.0
C2560 C 0.99587 0.91111 0.54103 0.0
H2561 H 0.02468 0.86569 0.59955 0.0
H2562 H 0.02663 0.88982 0.58381 0.0
H2563 H 0.984 0.88813 0.54927 0.0
H2564 H 0.99297 0.95652 0.50354 0.0
H2565 H 0.99418 0.92908 0.51294 0.0
H2566 H 0.03649 0.9266 0.54617 0.0
C2567 C 0.01879 0.8782 0.57899 0.0
C2568 C 0.99559 0.89624 0.54839 0.0
C2569 C 0.01766 0.86437 0.58804 0.0
C2570 C 0.00051 0.95594 0.51439 0.0
C2571 C 0.00113 0.94022 0.51981 0.0
C2572 C 0.02497 0.91825 0.54673 0.0
C2573 C 0.00945 0.87724 0.56426 0.0
C2574 C 0.00997 0.89232 0.55521 0.0
C2575 C 0.01058 0.93892 0.53397 0.0
C2576 C 0.01053 0.92242 0.54038 0.0
H2577 H 0.98992 0.83661 0.56313 0.0
H2578 H 0.99196 0.86077 0.54725 0.0
H2579 H 0.03603 0.90056 0.55891 0.0
H2580 H 0.0258 0.9804 0.54409 0.0
H2581 H 0.0268 0.95307 0.55351 0.0
C2582 C 0.44093 0.7703 0.81183 0.0
C2583 C 0.44035 0.75966 0.82435 0.0
C2584 C 0.4266 0.77305 0.80414 0.0
C2585 C 0.38166 0.75865 0.80076 0.0
H2586 H 0.3812 0.80549 0.79493 0.0
C2587 C 0.32296 0.78483 0.79864 0.0
C2588 C 0.31957 0.79136 0.78397 0.0
C2589 C 0.33854 0.78208 0.8026 0.0
C2590 C 0.38124 0.79237 0.79641 0.0
H2591 H 0.42457 0.74294 0.83818 0.0
H2592 H 0.39955 0.74803 0.82516 0.0
H2593 H 0.40681 0.79676 0.80218 0.0
H2594 H 0.32995 0.80148 0.7626 0.0
H2595 H 0.3575 0.79711 0.76987 0.0
H2596 H 0.35591 0.75455 0.79578 0.0
C2597 C 0.41097 0.75399 0.82092 0.0
C2598 C 0.39589 0.78729 0.8004 0.0
C2599 C 0.4253 0.75107 0.82843 0.0
C2600 C 0.3323 0.79643 0.77399 0.0
C2601 C 0.34799 0.7939 0.77809 0.0
C2602 C 0.36702 0.7638 0.79705 0.0
C2603 C 0.41144 0.76541 0.80902 0.0
C2604 C 0.39623 0.77041 0.80289 0.0
C2605 C 0.35101 0.78606 0.79208 0.0
C2606 C 0.36669 0.78072 0.79512 0.0
H2607 H 0.45245 0.77693 0.8084 0.0
H2608 H 0.42741 0.78158 0.79474 0.0
H2609 H 0.3815 0.7455 0.80221 0.0
H2610 H 0.31336 0.78083 0.80656 0.0
H2611 H 0.34072 0.77622 0.81357 0.0
C2612 C 0.48131 0.1818 0.09151 0.0
C2613 C 0.49564 0.19348 0.09597 0.0
C2614 C 0.48194 0.16582 0.08401 0.0
C2615 C 0.50969 0.14186 0.06184 0.0
H2616 H 0.47725 0.10349 0.06953 0.0
C2617 C 0.51256 0.07301 0.03857 0.0
C2618 C 0.49932 0.06567 0.02773 0.0
C2619 C 0.5122 0.08804 0.04811 0.0
C2620 C 0.48637 0.11413 0.06733 0.0
H2621 H 0.52193 0.19739 0.09593 0.0
H2622 H 0.52307 0.16936 0.08367 0.0
H2623 H 0.4768 0.13095 0.08408 0.0
H2624 H 0.47508 0.06763 0.01889 0.0
H2625 H 0.47424 0.09369 0.03607 0.0
H2626 H 0.51945 0.12477 0.04541 0.0
C2627 C 0.51128 0.17264 0.08558 0.0
C2628 C 0.48607 0.12989 0.07553 0.0
C2629 C 0.51063 0.18869 0.09288 0.0
C2630 C 0.48546 0.07316 0.02709 0.0
C2631 C 0.48495 0.08796 0.03692 0.0
C2632 C 0.51017 0.12604 0.05391 0.0
C2633 C 0.49694 0.161 0.08096 0.0
C2634 C 0.49762 0.14403 0.07275 0.0
C2635 C 0.49844 0.09567 0.04726 0.0
C2636 C 0.49842 0.11211 0.05647 0.0
H2637 H 0.46954 0.18493 0.0939 0.0
H2638 H 0.47061 0.15735 0.08043 0.0
H2639 H 0.51859 0.15244 0.05909 0.0
H2640 H 0.52338 0.06744 0.03927 0.0
H2641 H 0.52271 0.0938 0.05605 0.0
C2642 C 0.09817 0.27667 0.33164 0.0
C2643 C 0.08524 0.26287 0.33009 0.0
C2644 C 0.11126 0.27689 0.32177 0.0
C2645 C 0.13471 0.24964 0.30075 0.0
H2646 H 0.15088 0.28816 0.27777 0.0
C2647 C 0.19357 0.25236 0.26733 0.0
C2648 C 0.20421 0.26791 0.26906 0.0
C2649 C 0.17755 0.25127 0.27173 0.0
C2650 C 0.14663 0.27736 0.28423 0.0
H2651 H 0.07595 0.23861 0.31657 0.0
H2652 H 0.09927 0.23875 0.29987 0.0
H2653 H 0.12578 0.2873 0.29182 0.0
H2654 H 0.20633 0.29458 0.27625 0.0
H2655 H 0.1787 0.29264 0.28456 0.0
H2656 H 0.15589 0.24006 0.29414 0.0
C2657 C 0.09906 0.24941 0.3087 0.0
C2658 C 0.13222 0.27686 0.29217 0.0
C2659 C 0.0858 0.2493 0.31838 0.0
C2660 C 0.19838 0.28243 0.27471 0.0
C2661 C 0.18246 0.2813 0.27938 0.0
C2662 C 0.14927 0.25026 0.29307 0.0
C2663 C 0.11188 0.26321 0.31032 0.0
C2664 C 0.12628 0.2631 0.30068 0.0
C2665 C 0.17191 0.26566 0.27824 0.0
C2666 C 0.15557 0.26426 0.28491 0.0
H2667 H 0.09837 0.28719 0.34072 0.0
H2668 H 0.12116 0.28756 0.3234 0.0
H2669 H 0.13042 0.23896 0.30737 0.0
H2670 H 0.19769 0.24099 0.2628 0.0
H2671 H 0.16968 0.23908 0.27028 0.0
C2672 C 0.94276 0.05172 0.16644 0.0
C2673 C 0.92818 0.0404 0.16757 0.0
C2674 C 0.9513 0.05116 0.15233 0.0
C2675 C 0.95727 0.02241 0.11737 0.0
H2676 H 0.97493 0.06296 0.09801 0.0
C2677 C 0.98533 0.01955 0.05532 0.0
C2678 C -0.00074 0.03136 0.05326 0.0
C2679 C 0.97659 0.02114 0.06916 0.0
C2680 C 0.97026 0.05154 0.10339 0.0
H2681 H 0.91091 0.01997 0.15453 0.0
H2682 H 0.92595 0.01886 0.12999 0.0
H2683 H 0.95971 0.06494 0.12243 0.0
H2684 H 0.01515 0.05401 0.06404 0.0
H2685 H 0.00013 0.05659 0.08855 0.0
H2686 H 0.96797 0.00899 0.09861 0.0
C2687 C 0.93083 0.02803 0.14012 0.0
C2688 C 0.96151 0.05268 0.11733 0.0
C2689 C 0.92224 0.02865 0.15418 0.0
C2690 C 0.00438 0.04478 0.06533 0.0
C2691 C 0.99571 0.04631 0.07929 0.0
C2692 C 0.9661 0.02127 0.10353 0.0
C2693 C 0.94549 0.03921 0.1391 0.0
C2694 C 0.95486 0.03811 0.12439 0.0
C2695 C 0.98173 0.03447 0.08138 0.0
C2696 C 0.97262 0.03581 0.0963 0.0
H2697 H 0.9478 0.06076 0.17661 0.0
H2698 H 0.96266 0.0598 0.15193 0.0
H2699 H 0.95252 0.011 0.12273 0.0
H2700 H 0.98124 0.00897 0.04629 0.0
H2701 H 0.96576 0.01194 0.07025 0.0
C2702 C 0.25585 0.69765 0.43039 0.0
C2703 C 0.26673 0.70427 0.44374 0.0
C2704 C 0.25251 0.70781 0.41841 0.0
C2705 C 0.27014 0.74421 0.39894 0.0
H2706 H 0.22601 0.74266 0.38179 0.0
C2707 C 0.25803 0.77669 0.34207 0.0
C2708 C 0.2468 0.76692 0.3304 0.0
C2709 C 0.25897 0.77228 0.35799 0.0
C2710 C 0.2384 0.74319 0.38639 0.0
H2711 H 0.2827 0.72663 0.45509 0.0
H2712 H 0.27706 0.74441 0.43383 0.0
H2713 H 0.23088 0.72823 0.4057 0.0
H2714 H 0.22725 0.74542 0.32621 0.0
H2715 H 0.22921 0.73733 0.35371 0.0
H2716 H 0.27782 0.75827 0.37921 0.0
C2717 C 0.27105 0.73138 0.43277 0.0
C2718 C 0.24116 0.73498 0.4001 0.0
C2719 C 0.27424 0.72125 0.4449 0.0
C2720 C 0.236 0.75318 0.33502 0.0
C2721 C 0.23707 0.74862 0.35085 0.0
C2722 C 0.2674 0.75224 0.38512 0.0
C2723 C 0.26011 0.72474 0.41947 0.0
C2724 C 0.25707 0.73512 0.40626 0.0
C2725 C 0.24884 0.75787 0.36243 0.0
C2726 C 0.25152 0.75149 0.37844 0.0
H2727 H 0.24974 0.68465 0.42932 0.0
H2728 H 0.24418 0.70234 0.40816 0.0
H2729 H 0.28252 0.74437 0.4034 0.0
H2730 H 0.26639 0.78745 0.33879 0.0
H2731 H 0.26794 0.77988 0.36669 0.0
C2732 C 0.58952 0.00866 0.65959 0.0
C2733 C 0.58089 0.003 0.67284 0.0
C2734 C 0.58134 0.00953 0.64469 0.0
C2735 C 0.54392 0.99255 0.6199 0.0
H2736 H 0.55259 0.03435 0.59988 0.0
C2737 C 0.50341 0.00629 0.5664 0.0
C2738 C 0.51092 0.01556 0.55443 0.0
C2739 C 0.51234 0.00407 0.58045 0.0
C2740 C 0.55021 0.02248 0.60513 0.0
H2741 H 0.55687 0.99386 0.68078 0.0
H2742 H 0.5427 0.99499 0.65463 0.0
H2743 H 0.56771 0.03149 0.62502 0.0
H2744 H 0.53355 0.02975 0.54758 0.0
H2745 H 0.54934 0.02527 0.57173 0.0
H2746 H 0.52658 0.98341 0.59996 0.0
C2747 C 0.5558 -0.00133 0.65582 0.0
C2748 C 0.55884 0.02089 0.61956 0.0
C2749 C 0.56394 -0.00202 0.67076 0.0
C2750 C 0.52751 0.02243 0.55661 0.0
C2751 C 0.5365 0.02002 0.57053 0.0
C2752 C 0.53541 0.99406 0.60536 0.0
C2753 C 0.56442 0.00457 0.6427 0.0
C2754 C 0.55569 0.00596 0.62711 0.0
C2755 C 0.52899 0.01096 0.5827 0.0
C2756 C 0.53838 0.00909 0.59787 0.0
H2757 H 0.60261 0.01235 0.66069 0.0
H2758 H 0.58826 0.01396 0.63468 0.0
H2759 H 0.5414 0.98085 0.62544 0.0
H2760 H 0.49058 0.00094 0.56502 0.0
H2761 H 0.5061 -0.00274 0.58969 0.0
C2762 C 0.23449 0.30941 0.93819 0.0
C2763 C 0.24359 0.32547 0.94303 0.0
C2764 C 0.23712 0.30073 0.92342 0.0
C2765 C 0.26698 0.29871 0.89216 0.0
H2766 H 0.22942 0.28348 0.86207 0.0
C2767 C 0.27198 0.2882 0.82282 0.0
C2768 C 0.26019 0.27619 0.81362 0.0
C2769 C 0.27085 0.2914 0.8396 0.0
C2770 C 0.24005 0.28728 0.87038 0.0
H2771 H 0.26303 0.34471 0.93671 0.0
H2772 H 0.26763 0.32958 0.91102 0.0
H2773 H 0.22568 0.29379 0.88994 0.0
H2774 H 0.23865 0.25726 0.81485 0.0
H2775 H 0.237 0.26241 0.84412 0.0
H2776 H 0.2814 0.29237 0.87261 0.0
C2777 C 0.25845 0.32371 0.91854 0.0
C2778 C 0.23787 0.29323 0.88636 0.0
C2779 C 0.25568 0.33244 0.93314 0.0
C2780 C 0.24777 0.26681 0.82161 0.0
C2781 C 0.24678 0.26982 0.83838 0.0
C2782 C 0.26917 0.29259 0.87621 0.0
C2783 C 0.2491 0.30785 0.91344 0.0
C2784 C 0.25133 0.29938 0.89728 0.0
C2785 C 0.25803 0.28248 0.84754 0.0
C2786 C 0.25574 0.28718 0.865 0.0
H2787 H 0.22512 0.30377 0.94564 0.0
H2788 H 0.22978 0.28848 0.91976 0.0
H2789 H 0.27757 0.3032 0.90042 0.0
H2790 H 0.28165 0.29564 0.81696 0.0
H2791 H 0.27964 0.30138 0.84619 0.0
C2792 C 0.92623 0.03934 0.33665 0.0
C2793 C 0.93655 0.04514 0.32461 0.0
C2794 C 0.93253 0.03483 0.35113 0.0
C2795 C 0.96731 0.01949 0.36835 0.0
H2796 H 0.94986 0.03172 0.40951 0.0
C2797 C 0.99421 0.00783 0.43109 0.0
C2798 C 0.98341 0.0041 0.4433 0.0
C2799 C 0.98849 0.01125 0.41586 0.0
C2800 C 0.95467 0.02796 0.39807 0.0
H2801 H 0.96173 0.05115 0.31864 0.0
H2802 H 0.97277 0.04299 0.34404 0.0
H2803 H 0.94071 0.04259 0.3849 0.0
H2804 H 0.95812 -0.00024 0.44893 0.0
H2805 H 0.94802 0.00546 0.42217 0.0
H2806 H 0.98125 0.0048 0.38157 0.0
C2807 C 0.95975 0.04191 0.34209 0.0
C2808 C 0.94951 0.03429 0.38401 0.0
C2809 C 0.95342 0.04657 0.32757 0.0
C2810 C 0.96669 0.00265 0.43971 0.0
C2811 C 0.96095 0.00608 0.42447 0.0
C2812 C 0.97246 0.01311 0.38245 0.0
C2813 C 0.94932 0.03586 0.35394 0.0
C2814 C 0.95569 0.03004 0.36899 0.0
C2815 C 0.97186 0.011 0.41259 0.0
C2816 C 0.9661 0.0172 0.39744 0.0
H2817 H 0.91316 0.03762 0.33467 0.0
H2818 H 0.92418 0.02996 0.35992 0.0
H2819 H 0.97212 0.01583 0.35689 0.0
H2820 H 0.00718 0.00901 0.43357 0.0
H2821 H -0.00279 0.01504 0.40701 0.0
C2822 C 0.25179 0.70446 0.59245 0.0
C2823 C 0.26497 0.69606 0.5903 0.0
C2824 C 0.25001 0.71313 0.60744 0.0
C2825 C 0.2612 0.71389 0.65081 0.0
H2826 H 0.25066 0.75869 0.6544 0.0
C2827 C 0.24981 0.74604 0.71252 0.0
C2828 C 0.25879 0.76234 0.71625 0.0
C2829 C 0.24822 0.73849 0.69656 0.0
C2830 C 0.25358 0.74617 0.65355 0.0
H2831 H 0.28667 0.69025 0.60204 0.0
H2832 H 0.28361 0.70547 0.62822 0.0
H2833 H 0.25339 0.7445 0.6275 0.0
H2834 H 0.2723 0.78394 0.70623 0.0
H2835 H 0.26967 0.77066 0.67828 0.0
H2836 H 0.26176 0.7156 0.67677 0.0
C2837 C 0.27461 0.70526 0.61834 0.0
C2838 C 0.25504 0.73803 0.63819 0.0
C2839 C 0.27646 0.6967 0.60333 0.0
C2840 C 0.26539 0.77132 0.70365 0.0
C2841 C 0.26379 0.76376 0.68766 0.0
C2842 C 0.25964 0.72196 0.66611 0.0
C2843 C 0.2613 0.71343 0.62058 0.0
C2844 C 0.25908 0.7219 0.63671 0.0
C2845 C 0.25559 0.7471 0.68405 0.0
C2846 C 0.25597 0.73823 0.66766 0.0
H2847 H 0.24284 0.7043 0.58254 0.0
H2848 H 0.23961 0.71927 0.60886 0.0
H2849 H 0.26412 0.70138 0.65001 0.0
H2850 H 0.24449 0.73889 0.72201 0.0
H2851 H 0.2416 0.72573 0.69407 0.0
C2852 C 0.54431 0.00761 0.82092 0.0
C2853 C 0.55974 0.00309 0.82246 0.0
C2854 C 0.53512 0.0091 0.83454 0.0
C2855 C 0.52979 0.99405 0.87439 0.0
H2856 H 0.51728 0.03652 0.88884 0.0
C2857 C 0.52335 0.01201 0.94089 0.0
C2858 C 0.51041 0.01971 0.9458 0.0
C2859 C 0.52632 0.00971 0.92453 0.0
C2860 C 0.52036 0.02447 0.88479 0.0
H2861 H 0.57776 -0.00288 0.83965 0.0
H2862 H 0.56154 -0.00086 0.86309 0.0
H2863 H 0.52785 0.03254 0.8618 0.0
H2864 H 0.49058 0.03143 0.93764 0.0
H2865 H 0.49569 0.02715 0.90858 0.0
H2866 H 0.52282 0.98603 0.89735 0.0
C2867 C 0.55651 0.00138 0.85135 0.0
C2868 C 0.5264 0.02222 0.86937 0.0
C2869 C 0.56575 0.00011 0.83788 0.0
C2870 C 0.5006 0.02539 0.93407 0.0
C2871 C 0.50354 0.02299 0.91752 0.0
C2872 C 0.52367 0.99623 0.88965 0.0
C2873 C 0.54114 0.00584 0.84981 0.0
C2874 C 0.53175 0.00721 0.86438 0.0
C2875 C 0.5163 0.01488 0.91263 0.0
C2876 C 0.51957 0.0117 0.89529 0.0
H2877 H 0.53929 0.00989 0.80921 0.0
H2878 H 0.52326 0.01256 0.83312 0.0
H2879 H 0.53363 0.98228 0.87068 0.0
H2880 H 0.53127 0.00776 0.94971 0.0
H2881 H 0.53655 0.0039 0.92119 0.0
C2882 C 0.25211 0.32555 0.10184 0.0
C2883 C 0.24298 0.33816 0.09934 0.0
C2884 C 0.25155 0.31798 0.11638 0.0
C2885 C 0.24309 0.32512 0.15932 0.0
H2886 H 0.23949 0.27677 0.15857 0.0
C2887 C 0.25633 0.29178 0.21608 0.0
C2888 C 0.24563 0.27694 0.2184 0.0
C2889 C 0.25497 0.29954 0.20178 0.0
C2890 C 0.24037 0.29027 0.15897 0.0
H2891 H 0.22621 0.35282 0.11017 0.0
H2892 H 0.22525 0.33959 0.13563 0.0
H2893 H 0.23895 0.2896 0.13297 0.0
H2894 H 0.22507 0.25861 0.20771 0.0
H2895 H 0.22278 0.27209 0.18262 0.0
H2896 H 0.24463 0.32579 0.18533 0.0
C2897 C 0.23284 0.33558 0.12631 0.0
C2898 C 0.24022 0.29762 0.14433 0.0
C2899 C 0.23328 0.34304 0.1117 0.0
C2900 C 0.2335 0.27003 0.20621 0.0
C2901 C 0.23222 0.27771 0.19185 0.0
C2902 C 0.2434 0.31777 0.17397 0.0
C2903 C 0.24196 0.32296 0.12879 0.0
C2904 C 0.24165 0.31512 0.14434 0.0
C2905 C 0.243 0.2925 0.18945 0.0
C2906 C 0.2421 0.30028 0.17394 0.0
H2907 H 0.2596 0.32144 0.09248 0.0
H2908 H 0.25882 0.30839 0.118 0.0
H2909 H 0.24432 0.33865 0.1597 0.0
H2910 H 0.26597 0.29722 0.22516 0.0
H2911 H 0.26358 0.3108 0.20019 0.0
C2912 C 0.17788 0.96275 0.02427 0.0
C2913 C 0.17772 0.95015 0.01138 0.0
C2914 C 0.16692 0.97384 0.02389 0.0
C2915 C 0.13983 0.99106 -0.00388 0.0
H2916 H 0.1157 -0.00234 0.0344 0.0
C2917 C 0.07794 0.01211 0.99409 0.0
C2918 C 0.07349 0.02136 0.00778 0.0
C2919 C 0.09292 0.00685 0.99426 0.0
C2920 C 0.12257 -0.0037 0.02371 0.0
H2921 H 0.16581 0.93929 0.98805 0.0
H2922 H 0.14675 0.95873 0.98735 0.0
H2923 H 0.13751 0.98149 0.0354 0.0
H2924 H 0.08152 0.03347 0.03191 0.0
H2925 H 0.1079 0.02457 0.03212 0.0
H2926 H 0.12468 0.00562 0.98434 0.0
C2927 C 0.15552 0.96014 -0.00236 0.0
C2928 C 0.13503 0.98697 0.02428 0.0
C2929 C 0.16642 0.94899 -0.00194 0.0
C2930 C 0.08466 0.02624 0.02123 0.0
C2931 C 0.09969 0.02104 0.02139 0.0
C2932 C 0.12742 0.00048 0.99557 0.0
C2933 C 0.15563 0.97265 0.01057 0.0
C2934 C 0.14354 0.98394 0.01039 0.0
C2935 C 0.10376 0.01081 0.00811 0.0
C2936 C 0.1184 0.00289 0.00926 0.0
H2937 H 0.18662 0.96418 0.03458 0.0
H2938 H 0.16736 0.98346 0.03395 0.0
H2939 H 0.1464 0.98915 0.98532 0.0
H2940 H 0.06952 0.00819 0.98355 0.0
H2941 H 0.09558 -0.00113 0.98389 0.0
C2942 C 0.67897 0.58673 0.00404 0.0
C2943 C 0.68175 0.60425 0.00808 0.0
C2944 C 0.66352 0.5771 0.00483 0.0
C2945 C 0.62439 0.57677 0.02334 0.0
H2946 H 0.60692 0.54575 0.98577 0.0
C2947 C 0.55626 0.54784 0.0133 0.0
C2948 C 0.55179 0.53167 0.00508 0.0
C2949 C 0.57255 0.55566 0.01517 0.0
C2950 C 0.61168 0.55408 -0.00348 0.0
H2951 H 0.67028 0.62529 0.0162 0.0
H2952 H 0.64347 0.6084 0.01793 0.0
H2953 H 0.63456 0.5613 0.98625 0.0
H2954 H 0.56081 0.51062 0.99312 0.0
H2955 H 0.58934 0.52403 -0.00322 0.0
H2956 H 0.60157 0.56952 0.03369 0.0
C2957 C 0.65332 0.60215 0.01421 0.0
C2958 C 0.62752 0.56305 -0.00326 0.0
C2959 C 0.66872 0.61182 0.01325 0.0
C2960 C 0.56394 0.52316 -0.00061 0.0
C2961 C 0.58026 0.53091 0.00139 0.0
C2962 C 0.60858 0.56766 0.0232 0.0
C2963 C 0.65053 0.58472 0.00986 0.0
C2964 C 0.63399 0.57461 0.01007 0.0
C2965 C 0.58476 0.54742 0.00899 0.0
C2966 C 0.60195 0.55632 0.00971 0.0
H2967 H 0.68875 0.58039 0.00034 0.0
H2968 H 0.66176 0.56365 0.00159 0.0
H2969 H 0.62914 0.58546 0.03386 0.0
H2970 H 0.54711 0.55471 0.0178 0.0
H2971 H 0.57548 0.56843 0.02093 0.0
C2972 C 0.69451 0.43496 0.26915 0.0
C2973 C 0.67747 0.43237 0.2691 0.0
C2974 C 0.70265 0.42129 0.26826 0.0
C2975 C 0.69703 0.37615 0.27471 0.0
H2976 H 0.73303 0.37551 0.24688 0.0
C2977 C 0.72089 0.31558 0.25657 0.0
C2978 C 0.73778 0.31632 0.25801 0.0
C2979 C 0.71434 0.33025 0.25796 0.0
C2980 C 0.7231 0.37561 0.25482 0.0
H2981 H 0.65563 0.41337 0.26775 0.0
H2982 H 0.66977 0.38962 0.2662 0.0
H2983 H 0.72004 0.40027 0.24958 0.0
H2984 H 0.76108 0.33316 0.26149 0.0
H2985 H 0.74955 0.35891 0.26374 0.0
H2986 H 0.69989 0.3514 0.27972 0.0
C2987 C 0.67689 0.4022 0.26724 0.0
C2988 C 0.71569 0.38978 0.25641 0.0
C2989 C 0.66877 0.41583 0.26814 0.0
C2990 C 0.74801 0.33215 0.26037 0.0
C2991 C 0.74143 0.34689 0.2616 0.0
C2992 C 0.70437 0.36199 0.27305 0.0
C2993 C 0.69393 0.40475 0.2673 0.0
C2994 C 0.70243 0.39013 0.26623 0.0
C2995 C 0.72452 0.34605 0.26069 0.0
C2996 C 0.71735 0.36148 0.26295 0.0
H2997 H 0.70158 0.44755 0.27008 0.0
H2998 H 0.71579 0.42369 0.26853 0.0
H2999 H 0.6871 0.37614 0.28266 0.0
H3000 H 0.71262 0.30363 0.25473 0.0
H3001 H 0.70127 0.32924 0.25696 0.0
C3002 C 0.82258 0.48084 0.51473 0.0
C3003 C 0.82041 0.46797 0.52517 0.0
C3004 C 0.83759 0.49146 0.51463 0.0
C3005 C 0.87802 0.5049 0.5361 0.0
H3006 H 0.89411 0.49967 0.493 0.0
C3007 C 0.9451 0.5057 0.52693 0.0
C3008 C 0.95209 0.51187 0.51305 0.0
C3009 C 0.92852 0.50451 0.52874 0.0
C3010 C 0.88981 0.50169 0.50505 0.0
H3011 H 0.83196 0.45705 0.54458 0.0
H3012 H 0.85798 0.47574 0.54457 0.0
H3013 H 0.86528 0.49157 0.49658 0.0
H3014 H 0.94725 0.52189 0.49025 0.0
H3015 H 0.91818 0.52009 0.49353 0.0
H3016 H 0.90259 0.51468 0.54465 0.0
C3017 C 0.84808 0.47761 0.53647 0.0
C3018 C 0.87325 0.49703 0.5071 0.0
C3019 C 0.83314 0.46689 0.53646 0.0
C3020 C 0.94214 0.51689 0.50099 0.0
C3021 C 0.92551 0.51589 0.5029 0.0
C3022 C 0.89456 0.50977 0.53403 0.0
C3023 C 0.85062 0.48954 0.52512 0.0
C3024 C 0.86732 0.49799 0.52271 0.0
C3025 C 0.91851 0.50967 0.51681 0.0
C3026 C 0.90073 0.50753 0.51858 0.0
H3027 H 0.81287 0.48228 0.50616 0.0
H3028 H 0.83921 0.50071 0.50589 0.0
H3029 H 0.87369 0.50593 0.54824 0.0
H3030 H 0.95243 0.50162 0.53639 0.0
H3031 H 0.92352 0.49921 0.53939 0.0
C3032 C 0.32323 0.10052 0.24963 0.0
C3033 C 0.3354 0.10303 0.26235 0.0
C3034 C 0.3113 0.11054 0.24959 0.0
C3035 C 0.29102 0.13793 0.27627 0.0
H3036 H 0.28396 0.15985 0.23747 0.0
C3037 C 0.26676 0.19952 0.2774 0.0
C3038 C 0.2582 0.20313 0.26358 0.0
C3039 C 0.27245 0.18439 0.27743 0.0
C3040 C 0.28542 0.15353 0.24829 0.0
H3041 H 0.34465 0.1182 0.28488 0.0
H3042 H 0.32367 0.13554 0.28488 0.0
H3043 H 0.30162 0.13904 0.23697 0.0
H3044 H 0.24769 0.19339 0.23946 0.0
H3045 H 0.25737 0.16669 0.23959 0.0
H3046 H 0.27505 0.1526 0.28771 0.0
C3047 C 0.32331 0.12568 0.27505 0.0
C3048 C 0.29563 0.14167 0.24801 0.0
C3049 C 0.33533 0.11577 0.27503 0.0
C3050 C 0.2544 0.19091 0.25021 0.0
C3051 C 0.26002 0.1757 0.25026 0.0
C3052 C 0.28069 0.14968 0.27653 0.0
C3053 C 0.31119 0.12315 0.26233 0.0
C3054 C 0.29887 0.13413 0.26212 0.0
C3055 C 0.2696 0.17253 0.26366 0.0
C3056 C 0.27816 0.15799 0.26268 0.0
H3057 H 0.32271 0.0906 0.23985 0.0
H3058 H 0.30202 0.10829 0.23969 0.0
H3059 H 0.29313 0.13204 0.28724 0.0
H3060 H 0.26979 0.20874 0.28789 0.0
H3061 H 0.2799 0.18248 0.28789 0.0
C3062 C 0.33541 0.0983 0.51805 0.0
C3063 C 0.33272 0.10745 0.50482 0.0
C3064 C 0.34815 0.08926 0.51836 0.0
C3065 C 0.37426 0.06841 0.49233 0.0
H3066 H 0.40418 0.07534 0.53045 0.0
C3067 C 0.43402 0.04165 0.49345 0.0
C3068 C 0.44001 0.03743 0.50835 0.0
C3069 C 0.4203 0.04929 0.49274 0.0
C3070 C 0.39579 0.07294 0.51981 0.0
H3071 H 0.34167 0.11436 0.48163 0.0
H3072 H 0.36349 0.09811 0.482 0.0
H3073 H 0.38139 0.09021 0.52991 0.0
H3074 H 0.43601 0.03702 0.53402 0.0
H3075 H 0.41166 0.04946 0.53272 0.0
H3076 H 0.38833 0.05084 0.48233 0.0
C3077 C 0.35566 0.09795 0.49208 0.0
C3078 C 0.38278 0.08158 0.5195 0.0
C3079 C 0.34308 0.10721 0.49187 0.0
C3080 C 0.43169 0.0403 0.52239 0.0
C3081 C 0.41782 0.04761 0.52164 0.0
C3082 C 0.38713 0.05954 0.49274 0.0
C3083 C 0.35835 0.08894 0.50535 0.0
C3084 C 0.37193 0.07947 0.50574 0.0
C3085 C 0.41213 0.0526 0.50689 0.0
C3086 C 0.39813 0.06172 0.50647 0.0
H3087 H 0.32756 0.09791 0.52811 0.0
H3088 H 0.3499 0.08229 0.52869 0.0
H3089 H 0.36597 0.06646 0.48162 0.0
H3090 H 0.44032 0.03966 0.48247 0.0
H3091 H 0.41646 0.0531 0.48118 0.0
C3092 C 0.69064 0.59759 0.28005 0.0
C3093 C 0.67511 0.59242 0.27219 0.0
C3094 C 0.69894 0.61405 0.27976 0.0
C3095 C 0.70134 0.65069 0.2564 0.0
H3096 H 0.724 0.67505 0.29567 0.0
C3097 C 0.73222 0.72032 0.25856 0.0
C3098 C 0.74739 0.72493 0.26717 0.0
C3099 C 0.72276 0.7045 0.25957 0.0
C3100 C 0.71788 0.66836 0.28456 0.0
H3101 H 0.65601 0.60068 0.25813 0.0
H3102 H 0.67062 0.62933 0.25744 0.0
H3103 H 0.70884 0.64667 0.29661 0.0
H3104 H 0.76463 0.71674 0.28359 0.0
H3105 H 0.74834 0.689 0.28509 0.0
H3106 H 0.71059 0.67221 0.24425 0.0
C3107 C 0.67642 0.62056 0.26369 0.0
C3108 C 0.70918 0.65211 0.28511 0.0
C3109 C 0.66807 0.60414 0.26406 0.0
C3110 C 0.75294 0.71351 0.27686 0.0
C3111 C 0.74354 0.69767 0.2778 0.0
C3112 C 0.71012 0.6669 0.25582 0.0
C3113 C 0.69194 0.62569 0.27154 0.0
C3114 C 0.70088 0.64308 0.27103 0.0
C3115 C 0.72835 0.69294 0.26914 0.0
C3116 C 0.71857 0.67591 0.26987 0.0
H3117 H 0.69654 0.58884 0.28619 0.0
H3118 H 0.71099 0.61757 0.28572 0.0
H3119 H 0.69522 0.64395 0.2453 0.0
H3120 H 0.7277 0.72889 0.25095 0.0
H3121 H 0.71104 0.70136 0.2529 0.0
C3122 C 0.80273 0.4576 0.76214 0.0
C3123 C 0.81543 0.45941 0.75152 0.0
C3124 C 0.79231 0.4422 0.76215 0.0
C3125 C 0.77957 0.39986 0.74043 0.0
H3126 H 0.78366 0.38453 0.7833 0.0
C3127 C 0.77672 0.33059 0.74856 0.0
C3128 C 0.76975 0.32391 0.76222 0.0
C3129 C 0.77892 0.34778 0.74722 0.0
C3130 C 0.78201 0.38863 0.77133 0.0
H3131 H 0.82631 0.44692 0.73167 0.0
H3132 H 0.808 0.42014 0.73156 0.0
H3133 H 0.79183 0.41418 0.77986 0.0
H3134 H 0.75964 0.32984 0.78524 0.0
H3135 H 0.7632 0.36005 0.78279 0.0
H3136 H 0.77006 0.37427 0.7318 0.0
C3137 C 0.80609 0.43063 0.73986 0.0
C3138 C 0.78669 0.40564 0.76936 0.0
C3139 C 0.81659 0.44598 0.73993 0.0
C3140 C 0.76522 0.33475 0.77467 0.0
C3141 C 0.76721 0.35201 0.77323 0.0
C3142 C 0.7747 0.38287 0.74241 0.0
C3143 C 0.79432 0.42842 0.75142 0.0
C3144 C 0.78606 0.41129 0.75381 0.0
C3145 C 0.77396 0.35868 0.7594 0.0
C3146 C 0.77649 0.37698 0.75778 0.0
H3147 H 0.80131 0.46788 0.77095 0.0
H3148 H 0.78317 0.44082 0.77104 0.0
H3149 H 0.77883 0.40397 0.72834 0.0
H3150 H 0.78048 0.3225 0.73885 0.0
H3151 H 0.78465 0.35252 0.73667 0.0
C3152 C 0.02452 0.85556 0.06845 0.0
C3153 C 0.01082 0.84914 0.07667 0.0
C3154 C 0.02412 0.8687 0.05872 0.0
C3155 C 0.9962 0.89146 0.03749 0.0
H3156 H 0.03238 0.92883 0.04408 0.0
C3157 C 0.99166 0.95824 0.02205 0.0
C3158 C 0.00542 0.9684 0.01681 0.0
C3159 C 0.99249 0.9422 0.02647 0.0
C3160 C 0.02231 0.91839 0.04181 0.0
H3161 H 0.98595 0.85145 0.08108 0.0
H3162 H 0.98526 0.87437 0.06413 0.0
H3163 H 0.03361 0.90346 0.05726 0.0
H3164 H 0.03058 0.96928 0.01113 0.0
H3165 H 0.03193 0.94119 0.01862 0.0
H3166 H 0.98477 0.90657 0.02229 0.0
C3167 C -0.00377 0.86907 0.065 0.0
C3168 C 0.02302 0.90384 0.0494 0.0
C3169 C -0.00337 0.85596 0.07474 0.0
C3170 C 0.01981 0.96186 0.01533 0.0
C3171 C 0.02061 0.94579 0.01967 0.0
C3172 C 0.99551 0.90601 0.02985 0.0
C3173 C 0.01 0.87567 0.05698 0.0
C3174 C 0.00985 0.89036 0.04758 0.0
C3175 C 0.00707 0.93593 0.02565 0.0
C3176 C 0.00844 0.91976 0.03218 0.0
H3177 H 0.03554 0.85036 0.06948 0.0
H3178 H 0.03486 0.8734 0.05253 0.0
H3179 H 0.98597 0.88115 0.03566 0.0
H3180 H 0.98038 0.96287 0.02332 0.0
H3181 H 0.98188 0.93502 0.03119 0.0
C3182 C 0.91708 0.27798 0.83718 0.0
C3183 C 0.91851 0.26446 0.84625 0.0
C3184 C 0.90237 0.27875 0.82887 0.0
C3185 C 0.86258 0.2522 0.81376 0.0
H3186 H 0.85118 0.29556 0.80736 0.0
C3187 C 0.80045 0.26675 0.78728 0.0
C3188 C 0.80223 0.27062 0.77114 0.0
C3189 C 0.8141 0.26608 0.79743 0.0
C3190 C 0.85424 0.2834 0.80915 0.0
H3191 H 0.90569 0.24133 0.85411 0.0
H3192 H 0.87976 0.24294 0.8402 0.0
H3193 H 0.87578 0.29425 0.82382 0.0
H3194 H 0.81952 0.27698 0.75299 0.0
H3195 H 0.84347 0.27625 0.77096 0.0
H3196 H 0.84064 0.24151 0.79932 0.0
C3197 C 0.89009 0.25271 0.83898 0.0
C3198 C 0.8684 0.28259 0.81843 0.0
C3199 C 0.90491 0.25179 0.84703 0.0
C3200 C 0.81785 0.27398 0.76539 0.0
C3201 C 0.8315 0.27359 0.77562 0.0
C3202 C 0.84828 0.25304 0.80471 0.0
C3203 C 0.88861 0.26617 0.82969 0.0
C3204 C 0.87294 0.26698 0.82066 0.0
C3205 C 0.8297 0.26953 0.79166 0.0
C3206 C 0.84415 0.26864 0.80218 0.0
H3207 H 0.92745 0.28783 0.83628 0.0
H3208 H 0.90193 0.28911 0.82158 0.0
H3209 H 0.86569 0.23996 0.81494 0.0
H3210 H 0.78851 0.26388 0.79192 0.0
H3211 H 0.8125 0.26287 0.80977 0.0
C3212 C 0.50706 0.19095 0.5614 0.0
C3213 C 0.52005 0.20399 0.5669 0.0
C3214 C 0.50944 0.17764 0.55045 0.0
C3215 C 0.53867 0.15212 0.54156 0.0
H3216 H 0.50935 0.13349 0.50423 0.0
C3217 C 0.53396 0.08308 0.51598 0.0
C3218 C 0.51787 0.07441 0.51325 0.0
C3219 C 0.5373 0.10068 0.51792 0.0
C3220 C 0.51766 0.1385 0.51462 0.0
H3221 H 0.54563 0.21356 0.56434 0.0
H3222 H 0.54989 0.18967 0.54589 0.0
H3223 H 0.50907 0.16193 0.51648 0.0
H3224 H 0.49276 0.07752 0.50973 0.0
H3225 H 0.49845 0.10778 0.51365 0.0
H3226 H 0.54627 0.12832 0.54077 0.0
C3227 C 0.53786 0.19002 0.55003 0.0
C3228 C 0.51756 0.15482 0.52152 0.0
C3229 C 0.53541 0.20356 0.56074 0.0
C3230 C 0.50531 0.08371 0.51186 0.0
C3231 C 0.50861 0.10119 0.51391 0.0
C3232 C 0.53856 0.13568 0.53486 0.0
C3233 C 0.52491 0.17689 0.54495 0.0
C3234 C 0.52763 0.16149 0.53541 0.0
C3235 C 0.5246 0.10994 0.51726 0.0
C3236 C 0.52752 0.12842 0.52177 0.0
H3237 H 0.49513 0.1906 0.56602 0.0
H3238 H 0.49933 0.16748 0.5469 0.0
H3239 H 0.54649 0.15701 0.55234 0.0
H3240 H 0.54394 0.0763 0.51694 0.0
H3241 H 0.54978 0.10702 0.52028 0.0
C3242 C 0.57271 0.74699 0.32655 0.0
C3243 C 0.5702 0.76204 0.33503 0.0
C3244 C 0.58637 0.74667 0.31748 0.0
C3245 C 0.61817 0.77406 0.29781 0.0
H3246 H 0.64318 0.73873 0.30285 0.0
C3247 C 0.68424 0.78013 0.28018 0.0
C3248 C 0.68987 0.7658 0.27365 0.0
C3249 C 0.66867 0.77881 0.28579 0.0
C3250 C 0.6362 0.74852 0.30105 0.0
H3251 H 0.58019 0.78856 0.34066 0.0
H3252 H 0.6039 0.78803 0.32476 0.0
H3253 H 0.61773 0.73806 0.3162 0.0
H3254 H 0.68357 0.73887 0.26754 0.0
H3255 H 0.65609 0.73652 0.27718 0.0
H3256 H 0.63666 0.78463 0.2828 0.0
C3257 C 0.59519 0.7765 0.32495 0.0
C3258 C 0.62162 0.74816 0.30874 0.0
C3259 C 0.58158 0.77681 0.33406 0.0
C3260 C 0.67951 0.75012 0.27253 0.0
C3261 C 0.66384 0.74878 0.27815 0.0
C3262 C 0.63269 0.77439 0.29007 0.0
C3263 C 0.59779 0.76142 0.31662 0.0
C3264 C 0.6126 0.76109 0.30744 0.0
C3265 C 0.65829 0.76312 0.28497 0.0
C3266 C 0.64205 0.7618 0.29184 0.0
H3267 H 0.56407 0.73544 0.32683 0.0
H3268 H 0.58794 0.7349 0.31104 0.0
H3269 H 0.61134 0.78404 0.29632 0.0
H3270 H 0.69201 0.79239 0.28127 0.0
H3271 H 0.66495 0.79007 0.29122 0.0
C3272 C 0.00929 0.17439 0.42863 0.0
C3273 C 0.00786 0.19004 0.43657 0.0
C3274 C 0.00835 0.16028 0.43722 0.0
C3275 C 0.99452 0.14317 0.47536 0.0
H3276 H 0.02164 0.11066 0.46273 0.0
C3277 C 0.0023 0.08284 0.50745 0.0
C3278 C -0.00049 0.06811 0.4966 0.0
C3279 C 0.00267 0.09858 0.50163 0.0
C3280 C 0.01402 0.11966 0.46637 0.0
H3281 H 0.0043 0.2032 0.45975 0.0
H3282 H 0.00298 0.17853 0.47493 0.0
H3283 H 0.02434 0.13678 0.44994 0.0
H3284 H 0.99434 0.05838 0.47117 0.0
H3285 H 0.99535 0.08574 0.46114 0.0
H3286 H 0.98444 0.12586 0.49204 0.0
C3287 C 0.00456 0.17712 0.46198 0.0
C3288 C 0.01546 0.13457 0.45899 0.0
C3289 C 0.00536 0.19126 0.45331 0.0
C3290 C -0.00344 0.06942 0.47991 0.0
C3291 C -0.00282 0.08508 0.47412 0.0
C3292 C 0.99325 0.12828 0.48294 0.0
C3293 C 0.00613 0.16147 0.45404 0.0
C3294 C 0.00546 0.14634 0.46307 0.0
C3295 C 0.00053 0.0998 0.48486 0.0
C3296 C 0.00275 0.11627 0.47822 0.0
H3297 H 0.01088 0.17299 0.41567 0.0
H3298 H 0.00916 0.14836 0.43059 0.0
H3299 H 0.98656 0.1519 0.47873 0.0
H3300 H 0.00454 0.08225 0.52038 0.0
H3301 H 0.00527 0.10982 0.51011 0.0
C3302 C 0.57274 0.27766 0.21094 0.0
C3303 C 0.57226 0.28137 0.19465 0.0
C3304 C 0.58639 0.27258 0.21781 0.0
C3305 C 0.61981 0.25168 0.20565 0.0
H3306 H 0.64033 0.2696 0.24805 0.0
C3307 C 0.68464 0.2457 0.22561 0.0
C3308 C 0.68876 0.24518 0.24216 0.0
C3309 C 0.6689 0.24704 0.22047 0.0
C3310 C 0.63452 0.26418 0.23634 0.0
H3311 H 0.58587 0.28323 0.17297 0.0
H3312 H 0.60974 0.27453 0.18503 0.0
H3313 H 0.61624 0.27959 0.23809 0.0
H3314 H 0.6795 0.24426 0.26619 0.0
H3315 H 0.65179 0.24629 0.25715 0.0
H3316 H 0.6381 0.23637 0.20378 0.0
C3317 C 0.59951 0.2754 0.19241 0.0
C3318 C 0.6208 0.27 0.23062 0.0
C3319 C 0.58594 0.2806 0.1856 0.0
C3320 C 0.67661 0.24471 0.25335 0.0
C3321 C 0.66081 0.24603 0.2482 0.0
C3322 C 0.63344 0.24578 0.21141 0.0
C3323 C 0.59971 0.27096 0.20844 0.0
C3324 C 0.61356 0.26407 0.21507 0.0
C3325 C 0.65695 0.24782 0.23179 0.0
C3326 C 0.64117 0.25223 0.22667 0.0
H3327 H 0.56238 0.27826 0.21821 0.0
H3328 H 0.58627 0.26926 0.23022 0.0
H3329 H 0.61422 0.24663 0.19376 0.0
H3330 H 0.69381 0.24608 0.21674 0.0
H3331 H 0.6664 0.24852 0.20776 0.0
C3332 C 0.51009 0.864 0.91992 0.0
C3333 C 0.51658 0.85178 0.92784 0.0
C3334 C 0.50998 0.87988 0.92797 0.0
C3335 C 0.5137 0.90216 0.96966 0.0
H3336 H 0.51951 0.94223 0.94673 0.0
C3337 C 0.52576 0.96836 0.0032 0.0
C3338 C 0.51507 0.97893 -0.00121 0.0
C3339 C 0.52621 0.95343 0.99362 0.0
C3340 C 0.51779 0.9311 0.95322 0.0
H3341 H 0.52819 0.84693 0.95051 0.0
H3342 H 0.52886 0.87475 0.96411 0.0
H3343 H 0.52012 0.91491 0.93188 0.0
H3344 H 0.49694 0.98264 0.98059 0.0
H3345 H 0.49799 0.95652 0.96354 0.0
H3346 H 0.51188 0.91846 0.99106 0.0
C3347 C 0.52338 0.87195 0.95183 0.0
C3348 C 0.51806 0.91544 0.94474 0.0
C3349 C 0.52326 0.85601 0.9439 0.0
C3350 C 0.50527 0.97466 0.98426 0.0
C3351 C 0.5059 0.95979 0.97451 0.0
C3352 C 0.51369 0.91779 0.97814 0.0
C3353 C 0.51656 0.88404 0.94407 0.0
C3354 C 0.51609 0.90076 0.95289 0.0
C3355 C 0.51613 0.9489 0.97932 0.0
C3356 C 0.5158 0.9324 0.97002 0.0
H3357 H 0.50511 0.86137 0.90746 0.0
H3358 H 0.50449 0.88877 0.92162 0.0
H3359 H 0.51169 0.89115 0.97629 0.0
H3360 H 0.53353 0.9714 0.01428 0.0
H3361 H 0.53433 0.94532 -0.00253 0.0
C3362 C 0.91595 0.79316 0.69188 0.0
C3363 C 0.92365 0.77912 0.68998 0.0
C3364 C 0.90296 0.79315 0.70189 0.0
C3365 C 0.87075 0.76407 0.7183 0.0
H3366 H 0.8647 0.80363 0.74561 0.0
C3367 C 0.81403 0.76322 0.75459 0.0
C3368 C 0.80622 0.77709 0.75355 0.0
C3369 C 0.8298 0.76383 0.74963 0.0
C3370 C 0.86619 0.79251 0.73799 0.0
H3371 H 0.92421 0.75435 0.69762 0.0
H3372 H 0.90143 0.75428 0.715 0.0
H3373 H 0.88971 0.80401 0.73142 0.0
H3374 H 0.80912 0.80276 0.74721 0.0
H3375 H 0.83648 0.80369 0.73823 0.0
H3376 H 0.84714 0.7527 0.72437 0.0
C3377 C 0.90531 0.7652 0.70856 0.0
C3378 C 0.8805 0.79273 0.72988 0.0
C3379 C 0.9183 0.76522 0.69858 0.0
C3380 C 0.81478 0.79185 0.74816 0.0
C3381 C 0.83053 0.79242 0.74309 0.0
C3382 C 0.85646 0.76386 0.72634 0.0
C3383 C 0.89739 0.77909 0.71019 0.0
C3384 C 0.88283 0.77857 0.71979 0.0
C3385 C 0.83807 0.77828 0.74341 0.0
C3386 C 0.85391 0.77815 0.73612 0.0
H3387 H 0.91969 0.804 0.68529 0.0
H3388 H 0.89695 0.80394 0.70272 0.0
H3389 H 0.87208 0.75305 0.71042 0.0
H3390 H 0.80785 0.75173 0.75891 0.0
H3391 H 0.8354 0.75284 0.75035 0.0
C3392 C 0.07475 0.98416 0.85695 0.0
C3393 C 0.07981 -0.00088 0.84974 0.0
C3394 C 0.06642 0.98438 0.87122 0.0
C3395 C 0.06237 0.01094 0.90753 0.0
H3396 H 0.01979 0.98381 0.91003 0.0
C3397 C 0.02345 0.02194 0.96144 0.0
C3398 C 0.01278 0.00829 0.96639 0.0
C3399 C 0.03189 0.01999 0.94744 0.0
C3400 C 0.03182 0.99123 0.9097 0.0
H3401 H 0.07949 0.02593 0.85163 0.0
H3402 H 0.06553 0.02631 0.87687 0.0
H3403 H 0.03402 0.9816 0.88502 0.0
H3404 H 0.00285 0.9818 0.96109 0.0
H3405 H 0.01822 0.97807 0.93704 0.0
H3406 H 0.06062 0.02024 0.93223 0.0
C3407 C 0.06809 0.01448 0.87142 0.0
C3408 C 0.03988 0.99001 0.89533 0.0
C3409 C 0.07616 0.01424 0.85704 0.0
C3410 C 0.01092 0.99254 0.95737 0.0
C3411 C 0.01965 0.99047 0.94354 0.0
C3412 C 0.0545 0.01191 0.922 0.0
C3413 C 0.06324 -0.00042 0.87865 0.0
C3414 C 0.05509 6e-05 0.89408 0.0
C3415 C 0.03014 0.00422 0.93829 0.0
C3416 C 0.03898 0.00229 0.92321 0.0
H3417 H 0.07753 0.97233 0.85179 0.0
H3418 H 0.06283 0.97276 0.87668 0.0
H3419 H 0.07422 0.01865 0.90685 0.0
H3420 H 0.02498 0.03425 0.96818 0.0
H3421 H 0.03952 0.03098 0.94365 0.0
C3422 C 0.74937 0.31967 0.57435 0.0
C3423 C 0.74315 0.33471 0.57629 0.0
C3424 C 0.74911 0.30926 0.58698 0.0
C3425 C 0.72833 0.29877 0.62371 0.0
H3426 H 0.76892 0.28764 0.63974 0.0
C3427 C 0.7385 0.28414 0.68914 0.0
C3428 C 0.74885 0.27299 0.69287 0.0
C3429 C 0.73643 0.28818 0.67326 0.0
C3430 C 0.75739 0.29026 0.63522 0.0
H3431 H 0.73194 0.35059 0.59322 0.0
H3432 H 0.73104 0.33219 0.61492 0.0
H3433 H 0.76792 0.30134 0.61468 0.0
H3434 H 0.76467 0.25677 0.68288 0.0
H3435 H 0.76086 0.26365 0.65483 0.0
H3436 H 0.71777 0.28792 0.64423 0.0
C3437 C 0.73602 0.32844 0.60358 0.0
C3438 C 0.75685 0.29816 0.6209 0.0
C3439 C 0.73649 0.33895 0.59109 0.0
C3440 C 0.75664 0.26543 0.68029 0.0
C3441 C 0.75453 0.26946 0.66429 0.0
C3442 C 0.7288 0.2907 0.63789 0.0
C3443 C 0.74239 0.31355 0.60168 0.0
C3444 C 0.74244 0.30297 0.61534 0.0
C3445 C 0.74458 0.28109 0.66065 0.0
C3446 C 0.74347 0.28689 0.64414 0.0
H3447 H 0.75436 0.31585 0.56305 0.0
H3448 H 0.75403 0.2978 0.58521 0.0
H3449 H 0.717 0.30211 0.6195 0.0
H3450 H 0.73235 0.29017 0.69861 0.0
H3451 H 0.72891 0.29741 0.67102 0.0
C3452 C 0.44449 0.02372 0.34653 0.0
C3453 C 0.43278 0.03412 0.34625 0.0
C3454 C 0.45332 0.02264 0.36097 0.0
C3455 C 0.46438 0.0437 0.40267 0.0
H3456 H 0.47254 -0.00037 0.41132 0.0
C3457 C 0.48685 0.02843 0.46566 0.0
C3458 C 0.49976 0.01956 0.4658 0.0
C3459 C 0.47898 0.03053 0.45096 0.0
C3460 C 0.47045 0.01202 0.40899 0.0
H3461 H 0.4212 0.05173 0.36065 0.0
H3462 H 0.43634 0.04957 0.3861 0.0
H3463 H 0.45823 0.00295 0.38585 0.0
H3464 H 0.51485 0.0061 0.45093 0.0
H3465 H 0.5009 0.00953 0.42509 0.0
H3466 H 0.47631 0.0526 0.42608 0.0
C3467 C 0.43897 0.04249 0.3751 0.0
C3468 C 0.46232 0.01397 0.39438 0.0
C3469 C 0.43026 0.04371 0.36058 0.0
C3470 C 0.5048 0.01286 0.45107 0.0
C3471 C 0.49681 0.01478 0.43635 0.0
C3472 C 0.47237 0.0417 0.41735 0.0
C3473 C 0.45048 0.0318 0.37549 0.0
C3474 C 0.45922 0.02984 0.39102 0.0
C3475 C 0.48387 0.02369 0.43618 0.0
C3476 C 0.47549 0.02585 0.42062 0.0
H3477 H 0.44682 0.0164 0.33555 0.0
H3478 H 0.46236 0.01461 0.36074 0.0
H3479 H 0.46242 0.05613 0.40037 0.0
H3480 H 0.48315 0.03415 0.47687 0.0
H3481 H 0.46902 0.03743 0.45115 0.0
C3482 C 0.77551 0.73162 0.08436 0.0
C3483 C 0.77092 0.71411 0.08103 0.0
C3484 C 0.77287 0.73954 0.0995 0.0
C3485 C 0.74663 0.73595 0.13307 0.0
H3486 H 0.78335 0.75968 0.161 0.0
C3487 C 0.74223 0.75024 0.2021 0.0
C3488 C 0.75301 0.76375 0.2105 0.0
C3489 C 0.74326 0.74633 0.18539 0.0
C3490 C 0.77285 0.75351 0.15329 0.0
H3491 H 0.75971 0.69119 0.09063 0.0
H3492 H 0.75477 0.7051 0.11696 0.0
H3493 H 0.78753 0.74915 0.13329 0.0
H3494 H 0.77248 0.78457 0.20804 0.0
H3495 H 0.77367 0.77847 0.17878 0.0
H3496 H 0.73181 0.74046 0.15277 0.0
C3497 C 0.76057 0.71262 0.10795 0.0
C3498 C 0.77532 0.74739 0.13743 0.0
C3499 C 0.76352 0.70468 0.09299 0.0
C3500 C 0.76417 0.77392 0.20182 0.0
C3501 C 0.76493 0.7703 0.18507 0.0
C3502 C 0.74407 0.74238 0.1488 0.0
C3503 C 0.76522 0.73009 0.11133 0.0
C3504 C 0.7623 0.73824 0.12735 0.0
C3505 C 0.75486 0.75612 0.17669 0.0
C3506 C 0.75721 0.7509 0.1593 0.0
H3507 H 0.7812 0.73912 0.07527 0.0
H3508 H 0.77657 0.75304 0.10191 0.0
H3509 H 0.73639 0.72903 0.12539 0.0
H3510 H 0.7336 0.74214 0.20858 0.0
H3511 H 0.73543 0.73518 0.17953 0.0
C3512 C 0.06118 0.01064 0.69471 0.0
C3513 C 0.07519 0.00338 0.69568 0.0
C3514 C 0.05596 0.01588 0.68005 0.0
C3515 C 0.07219 0.02939 0.64183 0.0
H3516 H 0.02694 0.02297 0.62648 0.0
C3517 C 0.05053 0.03499 0.57597 0.0
C3518 C 0.03599 0.04088 0.57319 0.0
C3519 C 0.05619 0.03349 0.5918 0.0
C3520 C 0.0396 0.02516 0.63077 0.0
H3521 H 0.09431 0.99525 0.68185 0.0
H3522 H 0.08496 0.00396 0.6562 0.0
H3523 H 0.03422 0.01247 0.65202 0.0
H3524 H 0.0166 0.05112 0.58464 0.0
H3525 H 0.02657 0.04861 0.61242 0.0
H3526 H 0.07759 0.04179 0.62041 0.0
C3527 C 0.07819 0.00591 0.66686 0.0
C3528 C 0.04377 0.01906 0.64535 0.0
C3529 C 0.08339 0.00067 0.68149 0.0
C3530 C 0.02785 0.0465 0.5865 0.0
C3531 C 0.03346 0.04492 0.60235 0.0
C3532 C 0.06802 0.03547 0.62725 0.0
C3533 C 0.06469 0.01397 0.66608 0.0
C3534 C 0.06013 0.02089 0.6509 0.0
C3535 C 0.04736 0.03781 0.60511 0.0
C3536 C 0.05171 0.03322 0.62146 0.0
H3537 H 0.05452 0.01273 0.70542 0.0
H3538 H 0.0455 0.02203 0.67983 0.0
H3539 H 0.08488 0.03133 0.64599 0.0
H3540 H 0.05704 0.0306 0.56589 0.0
H3541 H 0.0669 0.02791 0.59351 0.0
C3542 C 0.76572 0.3536 0.41666 0.0
C3543 C 0.76111 0.34595 0.43075 0.0
C3544 C 0.76773 0.34383 0.40235 0.0
C3545 C 0.75297 0.30229 0.38132 0.0
H3546 H 0.78758 0.31447 0.35265 0.0
C3547 C 0.75269 0.26558 0.31869 0.0
C3548 C 0.756 0.27553 0.3058 0.0
C3549 C 0.75629 0.27259 0.33478 0.0
C3550 C 0.7778 0.31094 0.36049 0.0
H3551 H 0.75586 0.32206 0.44106 0.0
H3552 H 0.75902 0.30503 0.41597 0.0
H3553 H 0.78818 0.33015 0.3794 0.0
H3554 H 0.76637 0.30031 0.29946 0.0
H3555 H 0.77225 0.31268 0.32745 0.0
H3556 H 0.74213 0.28365 0.3623 0.0
C3557 C 0.76093 0.31858 0.41599 0.0
C3558 C 0.77817 0.3199 0.3758 0.0
C3559 C 0.75903 0.32834 0.43032 0.0
C3560 C 0.76367 0.29236 0.3092 0.0
C3561 C 0.76715 0.29941 0.32527 0.0
C3562 C 0.75251 0.29344 0.36599 0.0
C3563 C 0.76509 0.32621 0.40182 0.0
C3564 C 0.76562 0.31582 0.38624 0.0
C3565 C 0.76314 0.28972 0.33827 0.0
C3566 C 0.76476 0.29784 0.35526 0.0
H3567 H 0.76725 0.36711 0.4165 0.0
H3568 H 0.77075 0.35003 0.39153 0.0
H3569 H 0.74303 0.299 0.38904 0.0
H3570 H 0.74694 0.2525 0.31635 0.0
H3571 H 0.75336 0.26467 0.3445 0.0
C3572 C 0.44022 0.00505 0.18755 0.0
C3573 C 0.44517 0.01931 0.19877 0.0
C3574 C 0.44968 0.00165 0.17467 0.0
C3575 C 0.48998 0.01477 0.15758 0.0
H3576 H 0.46495 -0.00061 0.11676 0.0
C3577 C 0.51015 0.02634 0.09274 0.0
C3578 C 0.50573 0.01284 0.08065 0.0
C3579 C 0.50575 0.02457 0.10869 0.0
C3580 C 0.47213 0.00342 0.12811 0.0
H3581 H 0.46443 0.04077 0.20555 0.0
H3582 H 0.48035 0.0355 0.18242 0.0
H3583 H 0.45106 0.00122 0.14173 0.0
H3584 H 0.49439 0.98659 0.07578 0.0
H3585 H 0.48645 0.98363 0.10355 0.0
H3586 H 0.51098 0.01801 0.1434 0.0
C3587 C 0.46936 0.02665 0.18384 0.0
C3588 C 0.46418 0.0044 0.14248 0.0
C3589 C 0.46004 0.02987 0.19696 0.0
C3590 C 0.49781 -0.00275 0.08488 0.0
C3591 C 0.49329 0.99553 0.10074 0.0
C3592 C 0.49792 0.01407 0.14307 0.0
C3593 C 0.46414 0.01265 0.17237 0.0
C3594 C 0.47296 0.01027 0.15739 0.0
C3595 C 0.49677 0.00932 0.11262 0.0
C3596 C 0.489 0.00853 0.12824 0.0
H3597 H 0.42876 -0.00329 0.18835 0.0
H3598 H 0.44543 0.99055 0.16629 0.0
H3599 H 0.49715 0.01908 0.16887 0.0
H3600 H 0.51634 0.03845 0.08974 0.0
H3601 H 0.50845 0.03539 0.11768 0.0
C3602 C 0.76015 0.69411 0.90887 0.0
C3603 C 0.76809 0.70265 0.92337 0.0
C3604 C 0.76061 0.70188 0.89444 0.0
C3605 C 0.76905 0.74396 0.87897 0.0
H3606 H 0.7699 0.71758 0.83759 0.0
C3607 C 0.77663 0.77369 0.81807 0.0
C3608 C 0.76521 0.76625 0.8054 0.0
C3609 C 0.77798 0.76585 0.83233 0.0
C3610 C 0.76961 0.72508 0.84907 0.0
H3611 H 0.78275 0.72622 0.93393 0.0
H3612 H 0.78416 0.73944 0.90867 0.0
H3613 H 0.77063 0.70415 0.86279 0.0
H3614 H 0.74631 0.74479 0.79763 0.0
H3615 H 0.74896 0.73089 0.82238 0.0
H3616 H 0.76828 0.76493 0.86514 0.0
C3617 C 0.77726 0.72684 0.90851 0.0
C3618 C 0.76994 0.71738 0.86352 0.0
C3619 C 0.77665 0.71914 0.92299 0.0
C3620 C 0.75535 0.75071 0.80713 0.0
C3621 C 0.75687 0.74276 0.82128 0.0
C3622 C 0.76892 0.75168 0.86453 0.0
C3623 C 0.76918 0.71835 0.89404 0.0
C3624 C 0.76949 0.72668 0.87867 0.0
C3625 C 0.76808 0.75033 0.83409 0.0
C3626 C 0.76904 0.74228 0.84943 0.0
H3627 H 0.75364 0.68132 0.90858 0.0
H3628 H 0.75404 0.695 0.88363 0.0
H3629 H 0.7684 0.75148 0.89034 0.0
H3630 H 0.78437 0.78567 0.81705 0.0
H3631 H 0.78679 0.7719 0.84199 0.0
C3632 C 0.84664 0.0874 -0.00178 0.0
C3633 C 0.83671 0.09031 0.01106 0.0
C3634 C 0.85629 0.07508 -0.00136 0.0
C3635 C 0.87822 0.05404 0.02623 0.0
H3636 H 0.88061 0.02325 0.98808 0.0
C3637 C 0.92966 0.01621 0.02285 0.0
C3638 C 0.93748 0.01694 0.00821 0.0
C3639 C 0.91427 0.02049 0.02385 0.0
C3640 C 0.88011 0.03176 -0.00116 0.0
H3641 H 0.82908 0.0824 0.03436 0.0
H3642 H 0.84654 0.06131 0.03533 0.0
H3643 H 0.85965 0.04068 0.98864 0.0
H3644 H 0.93513 0.02166 0.9829 0.0
H3645 H 0.90867 0.02966 0.98469 0.0
H3646 H 0.89928 0.04614 0.03605 0.0
C3647 C 0.84665 0.06853 0.02492 0.0
C3648 C 0.86809 0.04167 -0.00085 0.0
C3649 C 0.8368 0.08071 0.02441 0.0
C3650 C 0.92934 0.02102 0.99435 0.0
C3651 C 0.91408 0.02547 0.99537 0.0
C3652 C 0.8904 0.04431 0.02583 0.0
C3653 C 0.85639 0.06556 0.01199 0.0
C3654 C 0.86736 0.05324 0.01266 0.0
C3655 C 0.90656 0.02576 0.01025 0.0
C3656 C 0.89182 0.03346 0.01191 0.0
H3657 H 0.84711 0.09475 0.9879 0.0
H3658 H 0.86397 0.07325 0.98867 0.0
H3659 H 0.87793 0.06294 0.03675 0.0
H3660 H 0.93568 0.01295 0.03367 0.0
H3661 H 0.90868 0.02026 0.03541 0.0
C3662 C 0.34396 0.43548 0.03108 0.0
C3663 C 0.33309 0.4336 0.01729 0.0
C3664 C 0.35978 0.44436 0.03082 0.0
C3665 C 0.39216 0.45801 0.00427 0.0
H3666 H 0.40764 0.49214 0.04002 0.0
C3667 C 0.45579 0.50117 0.00706 0.0
C3668 C 0.46383 0.5054 0.02252 0.0
C3669 C 0.4397 0.49248 0.00545 0.0
C3670 C 0.40365 0.4825 0.03005 0.0
H3671 H 0.33057 0.43963 0.99232 0.0
H3672 H 0.35841 0.45474 0.9918 0.0
H3673 H 0.38002 0.47654 0.03913 0.0
H3674 H 0.46171 0.50344 0.04833 0.0
H3675 H 0.43411 0.48786 0.04556 0.0
H3676 H 0.41596 0.4636 0.99543 0.0
C3677 C 0.35455 0.44931 0.0028 0.0
C3678 C 0.38777 0.47363 0.02952 0.0
C3679 C 0.33862 0.4406 0.00311 0.0
C3680 C 0.45572 0.50051 0.03626 0.0
C3681 C 0.43982 0.49167 0.03466 0.0
C3682 C 0.40818 0.46675 0.0049 0.0
C3683 C 0.36522 0.4514 0.0167 0.0
C3684 C 0.38191 0.46119 0.01673 0.0
C3685 C 0.43146 0.48776 0.01928 0.0
C3686 C 0.41419 0.47898 0.01793 0.0
H3687 H 0.34033 0.42994 0.04209 0.0
H3688 H 0.36785 0.44559 0.04164 0.0
H3689 H 0.38793 0.44843 0.99429 0.0
H3690 H 0.46177 0.50495 -0.00368 0.0
H3691 H 0.43362 0.48982 0.99342 0.0
C3692 C 0.33975 0.62302 0.76979 0.0
C3693 C 0.33275 0.60774 0.7608 0.0
C3694 C 0.33105 0.63619 0.77173 0.0
C3695 C 0.29714 0.65212 0.75237 0.0
H3696 H 0.30069 0.68147 0.79256 0.0
C3697 C 0.26148 0.70665 0.76009 0.0
C3698 C 0.27051 0.72217 0.76689 0.0
C3699 C 0.26789 0.69192 0.76061 0.0
C3700 C 0.29965 0.67342 0.78124 0.0
H3701 H 0.3109 0.59407 0.74737 0.0
H3702 H 0.29571 0.61702 0.75081 0.0
H3703 H 0.31408 0.65702 0.79119 0.0
H3704 H 0.29314 0.73425 0.78005 0.0
H3705 H 0.30428 0.70859 0.78087 0.0
H3706 H 0.2829 0.66861 0.74235 0.0
C3707 C 0.30803 0.61894 0.75609 0.0
C3708 C 0.30733 0.65944 0.78044 0.0
C3709 C 0.31673 0.60579 0.75413 0.0
C3710 C 0.28586 0.72253 0.77464 0.0
C3711 C 0.29223 0.7078 0.77522 0.0
C3712 C 0.28945 0.66607 0.75318 0.0
C3713 C 0.31515 0.63436 0.76475 0.0
C3714 C 0.30629 0.64871 0.76595 0.0
C3715 C 0.28341 0.69236 0.76801 0.0
C3716 C 0.29074 0.67697 0.76756 0.0
H3717 H 0.35213 0.62499 0.77491 0.0
H3718 H 0.33699 0.64798 0.77828 0.0
H3719 H 0.29632 0.64429 0.74094 0.0
H3720 H 0.2496 0.7059 0.75406 0.0
H3721 H 0.26073 0.68017 0.75511 0.0
C3722 C 0.18183 0.58144 0.51867 0.0
C3723 C 0.18934 0.58247 0.50385 0.0
C3724 C 0.16611 0.57245 0.51913 0.0
C3725 C 0.12906 0.55892 0.49278 0.0
H3726 H 0.11407 0.53474 0.52924 0.0
C3727 C 0.0625 0.52763 0.49555 0.0
C3728 C 0.05536 0.53089 0.5103 0.0
C3729 C 0.07925 0.53166 0.49458 0.0
C3730 C 0.11811 0.54151 0.51902 0.0
H3731 H 0.1867 0.57423 0.47804 0.0
H3732 H 0.15921 0.55833 0.47884 0.0
H3733 H 0.14307 0.54514 0.52758 0.0
H3734 H 0.06025 0.54059 0.53571 0.0
H3735 H 0.08961 0.5478 0.53394 0.0
H3736 H 0.10413 0.55554 0.48434 0.0
C3737 C 0.16537 0.56474 0.49005 0.0
C3738 C 0.13467 0.54744 0.51806 0.0
C3739 C 0.18108 0.57381 0.48959 0.0
C3740 C 0.06538 0.53794 0.52416 0.0
C3741 C 0.08219 0.54196 0.52318 0.0
C3742 C 0.11253 0.55294 0.49371 0.0
C3743 C 0.1576 0.56427 0.50478 0.0
C3744 C 0.14029 0.55643 0.50504 0.0
C3745 C 0.08924 0.53903 0.50833 0.0
C3746 C 0.10688 0.54438 0.50694 0.0
H3747 H 0.18782 0.58818 0.52982 0.0
H3748 H 0.16038 0.57256 0.53062 0.0
H3749 H 0.13294 0.56606 0.48275 0.0
H3750 H 0.05517 0.52207 0.48465 0.0
H3751 H 0.0844 0.52906 0.48303 0.0
C3752 C 0.68579 0.93927 0.74631 0.0
C3753 C 0.6774 0.94152 0.76046 0.0
C3754 C 0.69809 0.92969 0.74604 0.0
C3755 C 0.72571 0.91184 0.77291 0.0
H3756 H 0.72342 0.87733 0.73686 0.0
C3757 C 0.74729 0.84962 0.77834 0.0
C3758 C 0.7531 0.84147 0.76475 0.0
C3759 C 0.74229 0.865 0.77727 0.0
C3760 C 0.72454 0.88715 0.74684 0.0
H3761 H 0.67524 0.93548 0.78538 0.0
H3762 H 0.69663 0.91865 0.7849 0.0
H3763 H 0.70602 0.89827 0.73582 0.0
H3764 H 0.75934 0.84335 0.73974 0.0
H3765 H 0.75065 0.87039 0.73785 0.0
H3766 H 0.74381 0.90029 0.78419 0.0
C3767 C 0.69392 0.92455 0.77411 0.0
C3768 C 0.71452 0.89912 0.74626 0.0
C3769 C 0.68162 0.9341 0.77436 0.0
C3770 C 0.7548 0.84939 0.75036 0.0
C3771 C 0.74978 0.8648 0.74927 0.0
C3772 C 0.73576 0.89988 0.77348 0.0
C3773 C 0.70226 0.92222 0.75994 0.0
C3774 C 0.71462 0.91124 0.75952 0.0
C3775 C 0.74301 0.87249 0.76257 0.0
C3776 C 0.73488 0.88707 0.76069 0.0
H3777 H 0.68299 0.94511 0.7355 0.0
H3778 H 0.70441 0.9282 0.735 0.0
H3779 H 0.72627 0.92126 0.78317 0.0
H3780 H 0.7459 0.84376 0.78959 0.0
H3781 H 0.73696 0.87048 0.78768 0.0
C3782 C 0.66233 0.93198 0.51045 0.0
C3783 C 0.67671 0.93767 0.52027 0.0
C3784 C 0.64977 0.94128 0.51062 0.0
C3785 C 0.63316 0.97303 0.53605 0.0
H3786 H 0.6099 0.97861 0.49586 0.0
C3787 C 0.58207 0.0123 0.51167 0.0
C3788 C 0.56915 0.0069 0.5213 0.0
C3789 C 0.59605 0.00511 0.51222 0.0
C3790 C 0.61637 0.97724 0.50717 0.0
H3791 H 0.68935 0.95786 0.53763 0.0
H3792 H 0.66742 0.97409 0.53794 0.0
H3793 H 0.6326 0.96337 0.49498 0.0
H3794 H 0.56095 0.99034 0.53958 0.0
H3795 H 0.58556 0.97798 0.54077 0.0
H3796 H 0.61671 0.98671 0.54822 0.0
C3797 C 0.66576 0.96229 0.53031 0.0
C3798 C 0.62926 0.9684 0.50668 0.0
C3799 C 0.67832 0.95299 0.53013 0.0
C3800 C 0.57076 0.99476 0.53206 0.0
C3801 C 0.58482 0.98771 0.53275 0.0
C3802 C 0.62013 0.98169 0.53655 0.0
C3803 C 0.65131 0.9565 0.52062 0.0
C3804 C 0.63779 0.96617 0.52111 0.0
C3805 C 0.59744 0.99255 0.52257 0.0
C3806 C 0.61161 0.98387 0.52211 0.0
H3807 H 0.66061 0.92012 0.50289 0.0
H3808 H 0.6387 0.93637 0.50319 0.0
H3809 H 0.63941 0.97141 0.54739 0.0
H3810 H 0.58114 0.02165 0.50328 0.0
H3811 H 0.60568 0.00917 0.50437 0.0
C3812 C 0.34153 0.43666 0.73956 0.0
C3813 C 0.33786 0.44949 0.75059 0.0
C3814 C 0.33395 0.41998 0.7401 0.0
C3815 C 0.3118 0.39127 0.7671 0.0
H3816 H 0.29639 0.36383 0.72673 0.0
C3817 C 0.26474 0.32618 0.74436 0.0
C3818 C 0.26928 0.31551 0.75549 0.0
C3819 C 0.27417 0.34199 0.7434 0.0
C3820 C 0.3006 0.37134 0.73811 0.0
H3821 H 0.32317 0.45486 0.77068 0.0
H3822 H 0.30993 0.42575 0.7716 0.0
H3823 H 0.31043 0.39268 0.72595 0.0
H3824 H 0.28739 0.31277 0.77412 0.0
H3825 H 0.30399 0.34047 0.7724 0.0
H3826 H 0.3016 0.37005 0.77927 0.0
C3827 C 0.31887 0.42856 0.76271 0.0
C3828 C 0.30877 0.38782 0.73766 0.0
C3829 C 0.32644 0.44524 0.76217 0.0
C3830 C 0.2836 0.32079 0.76546 0.0
C3831 C 0.29303 0.33666 0.76454 0.0
C3832 C 0.30366 0.37476 0.76755 0.0
C3833 C 0.32254 0.41573 0.75168 0.0
C3834 C 0.31435 0.39802 0.75216 0.0
C3835 C 0.28834 0.34749 0.75358 0.0
C3836 C 0.29784 0.36467 0.75307 0.0
H3837 H 0.35048 0.43946 0.73068 0.0
H3838 H 0.3372 0.41036 0.73158 0.0
H3839 H 0.31612 0.39874 0.77848 0.0
H3840 H 0.25375 0.3224 0.73652 0.0
H3841 H 0.27011 0.35009 0.73497 0.0
C3842 C 0.20374 0.58726 0.26803 0.0
C3843 C 0.18737 0.58743 0.27103 0.0
C3844 C 0.21492 0.60228 0.2687 0.0
C3845 C 0.22176 0.64684 0.28447 0.0
H3846 H 0.24488 0.65499 0.2455 0.0
C3847 C 0.24477 0.70702 0.24922 0.0
C3848 C 0.25163 0.71841 0.26253 0.0
C3849 C 0.24142 0.68979 0.25083 0.0
C3850 C 0.23862 0.65283 0.25651 0.0
H3851 H 0.17002 0.60355 0.2774 0.0
H3852 H 0.18956 0.62961 0.27897 0.0
H3853 H 0.22984 0.62685 0.24849 0.0
H3854 H 0.26189 0.72066 0.2874 0.0
H3855 H 0.25615 0.69064 0.29012 0.0
H3856 H 0.22974 0.67287 0.29219 0.0
C3857 C 0.19375 0.61785 0.27617 0.0
C3858 C 0.23014 0.63673 0.25828 0.0
C3859 C 0.18256 0.60289 0.27531 0.0
C3860 C 0.25626 0.7122 0.27703 0.0
C3861 C 0.253 0.69502 0.2786 0.0
C3862 C 0.23029 0.66285 0.28276 0.0
C3863 C 0.20996 0.6177 0.27263 0.0
C3864 C 0.22121 0.63377 0.27204 0.0
C3865 C 0.24497 0.68371 0.26574 0.0
C3866 C 0.2384 0.66613 0.26855 0.0
H3867 H 0.20791 0.57553 0.26499 0.0
H3868 H 0.22739 0.60187 0.26605 0.0
H3869 H 0.21507 0.64481 0.29525 0.0
H3870 H 0.24115 0.71146 0.23788 0.0
H3871 H 0.23512 0.68138 0.24074 0.0
C3872 C 0.51272 0.67812 0.44028 0.0
C3873 C 0.50042 0.68783 0.44175 0.0
C3874 C 0.51373 0.66552 0.45048 0.0
C3875 C 0.4892 0.63629 0.4741 0.0
H3876 H 0.53081 0.63077 0.49323 0.0
C3877 C 0.4948 0.57849 0.5077 0.0
C3878 C 0.50791 0.57062 0.50358 0.0
C3879 C 0.49431 0.59473 0.50362 0.0
C3880 C 0.51911 0.63209 0.48792 0.0
H3881 H 0.47958 0.69192 0.45524 0.0
H3882 H 0.4811 0.66947 0.47277 0.0
H3883 H 0.52892 0.65547 0.47897 0.0
H3884 H 0.53115 0.57386 0.4926 0.0
H3885 H 0.53009 0.60188 0.48507 0.0
H3886 H 0.47947 0.61259 0.48225 0.0
C3887 C 0.48997 0.67176 0.46371 0.0
C3888 C 0.51804 0.64625 0.47981 0.0
C3889 C 0.48906 0.68451 0.4536 0.0
C3890 C 0.52087 0.57958 0.49597 0.0
C3891 C 0.5203 0.59573 0.49174 0.0
C3892 C 0.4903 0.62204 0.48207 0.0
C3893 C 0.50236 0.6622 0.46228 0.0
C3894 C 0.50314 0.64828 0.47251 0.0
C3895 C 0.50685 0.60336 0.49519 0.0
C3896 C 0.50534 0.61957 0.48874 0.0
H3897 H 0.52148 0.68009 0.43109 0.0
H3898 H 0.5232 0.6581 0.4489 0.0
H3899 H 0.4776 0.6375 0.46848 0.0
H3900 H 0.48472 0.57199 0.51378 0.0
H3901 H 0.48392 0.60037 0.50677 0.0
C3902 C 0.60602 0.26847 0.67402 0.0
C3903 C 0.59735 0.28153 0.67775 0.0
C3904 C 0.62123 0.2687 0.68182 0.0
C3905 C 0.64532 0.2855 0.71961 0.0
H3906 H 0.68181 0.27409 0.69652 0.0
C3907 C 0.70772 0.29108 0.75292 0.0
C3908 C 0.71648 0.27811 0.7494 0.0
C3909 C 0.69408 0.2923 0.74311 0.0
C3910 C 0.67169 0.27713 0.70317 0.0
H3911 H 0.59788 0.30512 0.69246 0.0
H3912 H 0.62441 0.3055 0.70613 0.0
H3913 H 0.65615 0.27458 0.6814 0.0
H3914 H 0.71823 0.25653 0.7326 0.0
H3915 H 0.6941 0.25841 0.71554 0.0
H3916 H 0.66052 0.28767 0.74138 0.0
C3917 C 0.61943 0.29507 0.69719 0.0
C3918 C 0.65701 0.27745 0.6945 0.0
C3919 C 0.6043 0.29492 0.68929 0.0
C3920 C 0.71166 0.26666 0.73557 0.0
C3921 C 0.69789 0.2678 0.72577 0.0
C3922 C 0.65989 0.28506 0.72826 0.0
C3923 C 0.62801 0.28191 0.69362 0.0
C3924 C 0.64369 0.28169 0.70264 0.0
C3925 C 0.68874 0.28046 0.72962 0.0
C3926 C 0.6733 0.28095 0.72018 0.0
H3927 H 0.60105 0.25808 0.66504 0.0
H3928 H 0.62751 0.25834 0.67888 0.0
H3929 H 0.63518 0.28849 0.72626 0.0
H3930 H 0.71131 0.30021 0.7634 0.0
H3931 H 0.6876 0.30246 0.74621 0.0
C3932 C 0.00894 0.34517 0.96602 0.0
C3933 C 0.00388 0.34305 0.9494 0.0
C3934 C 0.00554 0.35873 0.97609 0.0
C3935 C 0.9777 0.3888 0.97978 0.0
H3936 H 0.01339 0.41847 0.00461 0.0
C3937 C 0.97719 0.45828 -0.00155 0.0
C3938 C 0.9878 0.46674 0.01133 0.0
C3939 C 0.97621 0.44102 0.99452 0.0
C3940 C 0.00312 0.41014 -0.00183 0.0
H3941 H 0.99119 0.35324 0.93032 0.0
H3942 H 0.98524 0.37693 0.94794 0.0
H3943 H 0.01803 0.39241 0.99037 0.0
H3944 H 0.00415 0.46368 0.03144 0.0
H3945 H 0.00185 0.43343 0.02511 0.0
H3946 H 0.96278 0.40655 0.98742 0.0
C3947 C 0.9918 0.36811 0.95315 0.0
C3948 C 0.00586 0.39524 0.98991 0.0
C3949 C 0.9954 0.35472 0.94304 0.0
C3950 C 0.99606 0.45744 0.02128 0.0
C3951 C 0.99484 0.44015 0.01755 0.0
C3952 C 0.97488 0.4036 0.98824 0.0
C3953 C -0.00322 0.3702 0.96977 0.0
C3954 C 0.9933 0.38472 0.98025 0.0
C3955 C 0.98565 0.4319 0.00357 0.0
C3956 C 0.98769 0.41474 -0.00288 0.0
H3957 H 0.01549 0.33631 0.97119 0.0
H3958 H 0.00954 0.36012 0.98887 0.0
H3959 H 0.96775 0.38071 0.97259 0.0
H3960 H 0.97073 0.46518 0.99055 0.0
H3961 H 0.96905 0.43519 0.98362 0.0
C3962 C 0.92961 0.78698 0.18004 0.0
C3963 C 0.93965 0.77516 0.18263 0.0
C3964 C 0.91609 0.78774 0.18919 0.0
C3965 C 0.88746 0.7627 0.214 0.0
H3966 H 0.87772 0.80608 0.22975 0.0
C3967 C 0.83438 0.76791 0.25496 0.0
C3968 C 0.82448 0.77945 0.2511 0.0
C3969 C 0.84929 0.76811 0.24797 0.0
C3970 C 0.88019 0.79387 0.22534 0.0
H3971 H 0.94331 0.7549 0.19699 0.0
H3972 H 0.91963 0.75616 0.21291 0.0
H3973 H 0.90187 0.80472 0.21461 0.0
H3974 H 0.82258 0.80061 0.23738 0.0
H3975 H 0.84854 0.8009 0.22504 0.0
H3976 H 0.86569 0.75183 0.22448 0.0
C3977 C 0.92218 0.76476 0.20367 0.0
C3978 C 0.89403 0.79309 0.21666 0.0
C3979 C 0.93574 0.76402 0.19453 0.0
C3980 C 0.83002 0.79161 0.24062 0.0
C3981 C 0.84492 0.7918 0.23359 0.0
C3982 C 0.87361 0.76348 0.22265 0.0
C3983 C 0.91223 0.77667 0.20115 0.0
C3984 C 0.89778 0.77749 0.21081 0.0
C3985 C 0.85459 0.77983 0.23693 0.0
C3986 C 0.86975 0.77907 0.22836 0.0
H3987 H 0.93205 0.79553 0.17075 0.0
H3988 H 0.90851 0.79685 0.18672 0.0
H3989 H 0.88986 0.75049 0.20947 0.0
H3990 H 0.83041 0.75842 0.26304 0.0
H3991 H 0.85656 0.75893 0.25106 0.0
C3992 C 0.49871 0.35324 0.07194 0.0
C3993 C 0.5092 0.353 0.08564 0.0
C3994 C 0.5001 0.36744 0.06335 0.0
C3995 C 0.51442 0.41293 0.06948 0.0
H3996 H 0.51038 0.41078 0.02237 0.0
C3997 C 0.52319 0.47303 0.03721 0.0
C3998 C 0.51197 0.47384 0.02428 0.0
C3999 C 0.52394 0.4578 0.0435 0.0
C4000 C 0.51139 0.41156 0.03554 0.0
H4001 H 0.52955 0.36735 0.10089 0.0
H4002 H 0.53207 0.39204 0.08581 0.0
H4003 H 0.50972 0.3849 0.03559 0.0
H4004 H 0.4931 0.45916 0.00744 0.0
H4005 H 0.49421 0.43253 0.01865 0.0
H4006 H 0.51577 0.43943 0.06958 0.0
C4007 C 0.5227 0.38129 0.08179 0.0
C4008 C 0.51103 0.39676 0.04309 0.0
C4009 C 0.52136 0.36709 0.09032 0.0
C4010 C 0.50189 0.45895 0.0174 0.0
C4011 C 0.50257 0.44368 0.02378 0.0
C4012 C 0.51471 0.42767 0.06197 0.0
C4013 C 0.51194 0.38171 0.06835 0.0
C4014 C 0.51258 0.39731 0.06015 0.0
C4015 C 0.5134 0.44301 0.03711 0.0
C4016 C 0.51324 0.42719 0.04491 0.0
H4017 H 0.48933 0.3425 0.06795 0.0
H4018 H 0.49158 0.36743 0.0531 0.0
H4019 H 0.5153 0.41374 0.08266 0.0
H4020 H 0.5313 0.48422 0.04266 0.0
H4021 H 0.53268 0.45767 0.05351 0.0
C4022 C 0.93338 0.25648 0.31286 0.0
C4023 C 0.93614 0.25961 0.32985 0.0
C4024 C 0.92056 0.26207 0.30488 0.0
C4025 C 0.89248 0.29252 0.31092 0.0
H4026 H 0.86609 0.26379 0.27614 0.0
C4027 C 0.8266 0.29695 0.29178 0.0
C4028 C 0.82156 0.29362 0.27522 0.0
C4029 C 0.84244 0.29594 0.29702 0.0
C4030 C 0.87353 0.2721 0.28563 0.0
H4031 H 0.92752 0.27113 0.35175 0.0
H4032 H 0.90487 0.28009 0.33801 0.0
H4033 H 0.88986 0.25486 0.2881 0.0
H4034 H 0.82928 0.28783 0.251 0.0
H4035 H 0.85697 0.28597 0.26019 0.0
H4036 H 0.87565 0.3094 0.30887 0.0
C4037 C 0.91278 0.27366 0.33075 0.0
C4038 C 0.88715 0.26697 0.2925 0.0
C4039 C 0.92561 0.26819 0.33869 0.0
C4040 C 0.83287 0.29041 0.26386 0.0
C4041 C 0.84866 0.28924 0.26911 0.0
C4042 C 0.87878 0.29756 0.30415 0.0
C4043 C 0.91021 0.27087 0.31374 0.0
C4044 C 0.8966 0.27697 0.30544 0.0
C4045 C 0.85342 0.29145 0.28578 0.0
C4046 C 0.86903 0.28727 0.29162 0.0
H4047 H 0.94118 0.24982 0.30569 0.0
H4048 H 0.91894 0.25976 0.29175 0.0
H4049 H 0.89972 0.30071 0.32062 0.0
H4050 H 0.81808 0.29945 0.30077 0.0
H4051 H 0.84575 0.29762 0.30996 0.0
C4052 C 0.9882 0.67755 0.59285 0.0
C4053 C -0.00177 0.6925 0.58958 0.0
C4054 C 0.98995 0.66212 0.5848 0.0
C4055 C 0.00487 0.64334 0.54773 0.0
H4056 H 0.00674 0.60526 0.57246 0.0
C4057 C 0.0183 0.58098 0.51719 0.0
C4058 C 0.00924 0.56613 0.52182 0.0
C4059 C 0.01799 0.59644 0.52602 0.0
C4060 C 0.00606 0.6157 0.56532 0.0
H4061 H 0.01768 0.70309 0.57511 0.0
H4062 H 0.02064 0.67616 0.56093 0.0
H4063 H 0.00342 0.6321 0.58647 0.0
H4064 H 0.9931 0.55562 0.53954 0.0
H4065 H 0.99222 0.58253 0.55471 0.0
H4066 H 0.00709 0.62696 0.52654 0.0
C4067 C 0.01148 0.67637 0.56976 0.0
C4068 C 0.00418 0.63107 0.57337 0.0
C4069 C 0.00986 0.69175 0.57794 0.0
C4070 C 0.00023 0.5669 0.5357 0.0
C4071 C -0.0002 0.58234 0.54446 0.0
C4072 C 0.00659 0.62793 0.53965 0.0
C4073 C 0.00162 0.66138 0.57318 0.0
C4074 C 0.00356 0.64504 0.56465 0.0
C4075 C 0.00851 0.59735 0.53961 0.0
C4076 C 0.0072 0.61389 0.54834 0.0
H4077 H 0.97922 0.67775 0.60186 0.0
H4078 H 0.9821 0.65078 0.58758 0.0
H4079 H 0.00425 0.65385 0.54068 0.0
H4080 H 0.02545 0.5807 0.5066 0.0
H4081 H 0.02511 0.60768 0.52213 0.0
C4082 C 0.58712 0.74957 0.81868 0.0
C4083 C 0.58664 0.76401 0.82932 0.0
C4084 C 0.59998 0.74904 0.80858 0.0
C4085 C 0.63183 0.77511 0.78887 0.0
H4086 H 0.65692 0.73991 0.79413 0.0
C4087 C 0.69794 0.78109 0.77137 0.0
C4088 C 0.70429 0.76653 0.76704 0.0
C4089 C 0.68196 0.77987 0.7759 0.0
C4090 C 0.64989 0.7496 0.79213 0.0
H4091 H 0.59944 0.78925 0.83752 0.0
H4092 H 0.62149 0.78846 0.81944 0.0
H4093 H 0.63167 0.73939 0.80765 0.0
H4094 H 0.69861 0.73934 0.76294 0.0
H4095 H 0.67053 0.73721 0.77021 0.0
H4096 H 0.64991 0.78534 0.7733 0.0
C4097 C 0.61186 0.77759 0.81899 0.0
C4098 C 0.63546 0.74932 0.79998 0.0
C4099 C 0.59917 0.77803 0.8293 0.0
C4100 C 0.6941 0.75077 0.76644 0.0
C4101 C 0.67803 0.74956 0.77071 0.0
C4102 C 0.64613 0.77525 0.78077 0.0
C4103 C 0.61244 0.76305 0.80867 0.0
C4104 C 0.62655 0.76229 0.79873 0.0
C4105 C 0.67189 0.76407 0.77594 0.0
C4106 C 0.65558 0.76274 0.78266 0.0
H4107 H 0.57753 0.73866 0.81807 0.0
H4108 H 0.60017 0.73772 0.80064 0.0
H4109 H 0.62502 0.78514 0.78761 0.0
H4110 H 0.70552 0.79342 0.77202 0.0
H4111 H 0.67781 0.79132 0.78008 0.0
C4112 C 0.42091 0.52821 0.65359 0.0
C4113 C 0.42722 0.53962 0.66711 0.0
C4114 C 0.42938 0.52753 0.63945 0.0
C4115 C 0.46069 0.55172 0.6169 0.0
H4116 H 0.46551 0.50782 0.59722 0.0
C4117 C 0.50341 0.54299 0.56487 0.0
C4118 C 0.49797 0.52986 0.5526 0.0
C4119 C 0.49466 0.5447 0.57875 0.0
C4120 C 0.4641 0.52017 0.60241 0.0
H4121 H 0.44738 0.55931 0.67631 0.0
H4122 H 0.46204 0.55825 0.65151 0.0
H4123 H 0.45019 0.50995 0.62142 0.0
H4124 H 0.47921 0.50819 0.54515 0.0
H4125 H 0.46363 0.51149 0.56898 0.0
H4126 H 0.47447 0.56196 0.59779 0.0
C4127 C 0.45047 0.54993 0.65186 0.0
C4128 C 0.45534 0.52138 0.6163 0.0
C4129 C 0.44206 0.55055 0.66604 0.0
C4130 C 0.48359 0.51855 0.55435 0.0
C4131 C 0.47478 0.52032 0.56812 0.0
C4132 C 0.46937 0.55052 0.60292 0.0
C4133 C 0.44429 0.53831 0.63848 0.0
C4134 C 0.45353 0.53715 0.62367 0.0
C4135 C 0.48027 0.53331 0.58057 0.0
C4136 C 0.47115 0.53472 0.59549 0.0
H4137 H 0.40937 0.51984 0.65389 0.0
H4138 H 0.4242 0.51862 0.62922 0.0
H4139 H 0.45936 0.56404 0.62227 0.0
H4140 H 0.51451 0.55184 0.56381 0.0
H4141 H 0.49934 0.55472 0.58819 0.0
C4142 C 0.77846 0.22337 0.94717 0.0
C4143 C 0.77101 0.20637 0.94561 0.0
C4144 C 0.77584 0.23362 0.93494 0.0
C4145 C 0.74752 0.23795 0.90135 0.0
H4146 H 0.7853 0.25849 0.88022 0.0
C4147 C 0.74343 0.25412 0.8356 0.0
C4148 C 0.75475 0.26713 0.83043 0.0
C4149 C 0.74449 0.24996 0.85156 0.0
C4150 C 0.7746 0.25326 0.88618 0.0
H4151 H 0.75459 0.18683 0.93052 0.0
H4152 H 0.74983 0.20478 0.90926 0.0
H4153 H 0.78888 0.24525 0.9051 0.0
H4154 H 0.77551 0.28665 0.83796 0.0
H4155 H 0.77707 0.2798 0.86614 0.0
H4156 H 0.73317 0.24583 0.88251 0.0
C4157 C 0.75776 0.21015 0.91984 0.0
C4158 C 0.77669 0.24561 0.9004 0.0
C4159 C 0.76061 0.19986 0.93188 0.0
C4160 C 0.76672 0.27646 0.84166 0.0
C4161 C 0.76765 0.27246 0.85775 0.0
C4162 C 0.74541 0.24584 0.88729 0.0
C4163 C 0.76545 0.22706 0.9212 0.0
C4164 C 0.76318 0.23744 0.90779 0.0
C4165 C 0.75677 0.25889 0.8628 0.0
C4166 C 0.75893 0.25308 0.87919 0.0
H4167 H 0.78651 0.22863 0.95769 0.0
H4168 H 0.7819 0.24663 0.93621 0.0
H4169 H 0.73692 0.23189 0.90699 0.0
H4170 H 0.73412 0.24668 0.82713 0.0
H4171 H 0.73608 0.23924 0.85483 0.0
C4172 C 0.07833 0.49988 0.1612 0.0
C4173 C 0.08026 0.5123 0.17438 0.0
C4174 C 0.06963 0.50185 0.14693 0.0
C4175 C 0.05283 0.53399 0.12517 0.0
H4176 H 0.02825 0.49435 0.09994 0.0
C4177 C 0.00577 0.53313 0.07057 0.0
C4178 C 0.01003 0.52484 0.0562 0.0
C4179 C 0.01425 0.53237 0.08537 0.0
C4180 C 0.03508 0.50549 0.10692 0.0
H4181 H 0.07457 0.53632 0.18336 0.0
H4182 H 0.05865 0.53949 0.15876 0.0
H4183 H 0.04287 0.49138 0.12535 0.0
H4184 H 0.02611 0.50909 0.04587 0.0
H4185 H 0.04064 0.50739 0.07183 0.0
H4186 H 0.04438 0.54805 0.1068 0.0
C4187 C 0.0643 0.5285 0.15907 0.0
C4188 C 0.04359 0.50382 0.12139 0.0
C4189 C 0.0733 0.52667 0.17321 0.0
C4190 C 0.02277 0.51574 0.05679 0.0
C4191 C 0.03098 0.51468 0.07159 0.0
C4192 C 0.04402 0.53567 0.11085 0.0
C4193 C 0.06236 0.51612 0.14571 0.0
C4194 C 0.05278 0.51802 0.13061 0.0
C4195 C 0.02677 0.52296 0.08596 0.0
C4196 C 0.03527 0.5214 0.10155 0.0
H4197 H 0.08374 0.48876 0.16189 0.0
H4198 H 0.06876 0.49224 0.13681 0.0
H4199 H 0.05995 0.54519 0.13176 0.0
H4200 H 0.99595 0.5402 0.07034 0.0
H4201 H 0.01082 0.53879 0.09638 0.0
C4202 C 0.7526 0.83435 0.43308 0.0
C4203 C 0.74063 0.82692 0.44287 0.0
C4204 C 0.75597 0.82574 0.41864 0.0
C4205 C 0.73714 0.7938 0.38664 0.0
H4206 H 0.78123 0.7957 0.37348 0.0
C4207 C 0.74897 0.76687 0.32271 0.0
C4208 C 0.76074 0.77688 0.3145 0.0
C4209 C 0.74788 0.7701 0.33945 0.0
C4210 C 0.76885 0.79513 0.37692 0.0
H4211 H 0.723 0.80451 0.44541 0.0
H4212 H 0.72875 0.78943 0.41985 0.0
H4213 H 0.77652 0.80674 0.40098 0.0
H4214 H 0.78108 0.79764 0.31744 0.0
H4215 H 0.77889 0.80369 0.34663 0.0
H4216 H 0.72936 0.78297 0.36249 0.0
C4217 C 0.73551 0.80195 0.42345 0.0
C4218 C 0.76616 0.80139 0.39269 0.0
C4219 C 0.73226 0.81053 0.43805 0.0
C4220 C 0.77192 0.78969 0.32348 0.0
C4221 C 0.77068 0.7931 0.34023 0.0
C4222 C 0.73981 0.78768 0.37084 0.0
C4223 C 0.74738 0.80952 0.41358 0.0
C4224 C 0.75028 0.80107 0.3976 0.0
C4225 C 0.75838 0.78359 0.34836 0.0
C4226 C 0.7557 0.78854 0.36568 0.0
H4227 H 0.75943 0.84687 0.43663 0.0
H4228 H 0.76504 0.83197 0.41121 0.0
H4229 H 0.72477 0.79357 0.39002 0.0
H4230 H 0.74035 0.75671 0.31613 0.0
H4231 H 0.73855 0.76223 0.34535 0.0
C4232 C 0.45369 0.54571 0.82701 0.0
C4233 C 0.43683 0.54472 0.82437 0.0
C4234 C 0.46017 0.54142 0.84163 0.0
C4235 C 0.45071 0.53574 0.88417 0.0
H4236 H 0.48149 0.50519 0.88211 0.0
C4237 C 0.46773 0.50496 0.94055 0.0
C4238 C 0.48442 0.50592 0.94395 0.0
C4239 C 0.46195 0.5083 0.92528 0.0
C4240 C 0.47298 0.5138 0.88288 0.0
H4241 H 0.41363 0.53842 0.83516 0.0
H4242 H 0.42494 0.53141 0.86057 0.0
H4243 H 0.47221 0.51563 0.85716 0.0
H4244 H 0.50807 0.5099 0.93387 0.0
H4245 H 0.49802 0.51573 0.90725 0.0
H4246 H 0.45147 0.53402 0.90982 0.0
C4247 C 0.43317 0.53564 0.85144 0.0
C4248 C 0.46774 0.51984 0.86862 0.0
C4249 C 0.4267 0.53977 0.83685 0.0
C4250 C 0.49512 0.5091 0.93154 0.0
C4251 C 0.48936 0.5124 0.91628 0.0
C4252 C 0.45595 0.52974 0.89839 0.0
C4253 C 0.44993 0.53621 0.85392 0.0
C4254 C 0.45645 0.53076 0.86912 0.0
C4255 C 0.47279 0.51262 0.91318 0.0
C4256 C 0.46703 0.51859 0.8979 0.0
H4257 H 0.46187 0.54965 0.81775 0.0
H4258 H 0.47318 0.54215 0.84332 0.0
H4259 H 0.44218 0.54434 0.88495 0.0
H4260 H 0.45923 0.50251 0.94992 0.0
H4261 H 0.44907 0.50804 0.92313 0.0
C4262 C 0.74589 0.20001 0.09148 0.0
C4263 C 0.75904 0.19145 0.09 0.0
C4264 C 0.74348 0.20864 0.10632 0.0
C4265 C 0.75354 0.21032 0.1503 0.0
H4266 H 0.74427 0.25559 0.15212 0.0
C4267 C 0.74532 0.24567 0.21135 0.0
C4268 C 0.75446 0.26199 0.21413 0.0
C4269 C 0.74281 0.23745 0.19564 0.0
C4270 C 0.74683 0.24295 0.15179 0.0
H4271 H 0.77984 0.18507 0.10294 0.0
H4272 H 0.77575 0.20026 0.12875 0.0
H4273 H 0.74649 0.24017 0.12572 0.0
H4274 H 0.76732 0.28294 0.20266 0.0
H4275 H 0.76322 0.26846 0.17517 0.0
H4276 H 0.75448 0.21319 0.17626 0.0
C4277 C 0.76724 0.20022 0.11848 0.0
C4278 C 0.74797 0.23408 0.13669 0.0
C4279 C 0.76969 0.19167 0.10365 0.0
C4280 C 0.76027 0.27033 0.20083 0.0
C4281 C 0.75783 0.26206 0.18509 0.0
C4282 C 0.75237 0.21913 0.16534 0.0
C4283 C 0.7541 0.20877 0.11999 0.0
C4284 C 0.75162 0.21778 0.13583 0.0
C4285 C 0.74951 0.24534 0.18241 0.0
C4286 C 0.74921 0.23563 0.16628 0.0
H4287 H 0.73757 0.20018 0.08112 0.0
H4288 H 0.7332 0.21506 0.10716 0.0
H4289 H 0.75616 0.1977 0.15001 0.0
H4290 H 0.74065 0.23896 0.22138 0.0
H4291 H 0.73608 0.2247 0.19393 0.0
C4292 C 0.04796 0.51359 0.32121 0.0
C4293 C 0.063 0.50823 0.32297 0.0
C4294 C 0.03793 0.51404 0.33428 0.0
C4295 C 0.02698 0.49352 0.36977 0.0
H4296 H 0.0187 0.5355 0.39096 0.0
C4297 C 0.01213 0.49961 0.43626 0.0
C4298 C 0.00277 0.51133 0.44209 0.0
C4299 C 0.01601 0.49846 0.42005 0.0
C4300 C 0.02049 0.5236 0.38499 0.0
H4301 H 0.07946 0.4998 0.34018 0.0
H4302 H 0.06163 0.49989 0.36261 0.0
H4303 H 0.03222 0.5354 0.36532 0.0
H4304 H 0.98944 0.53053 0.43545 0.0
H4305 H 0.99581 0.52817 0.40674 0.0
H4306 H 0.01535 0.48158 0.38918 0.0
C4307 C 0.05767 0.50368 0.35107 0.0
C4308 C 0.02831 0.5236 0.37037 0.0
C4309 C 0.0678 0.50351 0.33816 0.0
C4310 C -0.0033 0.52139 0.43122 0.0
C4311 C 0.00047 0.52012 0.41484 0.0
C4312 C 0.01891 0.49345 0.38416 0.0
C4313 C 0.04266 0.50886 0.34922 0.0
C4314 C 0.03208 0.50863 0.363 0.0
C4315 C 0.01044 0.50885 0.40914 0.0
C4316 C 0.01615 0.50858 0.39232 0.0
H4317 H 0.04379 0.51715 0.30966 0.0
H4318 H 0.02636 0.51806 0.33265 0.0
H4319 H 0.02965 0.48182 0.36414 0.0
H4320 H 0.01705 0.49174 0.44439 0.0
H4321 H 0.02401 0.48989 0.4163 0.0
C4322 C 0.73612 0.84643 0.61317 0.0
C4323 C 0.74188 0.83909 0.59907 0.0
C4324 C 0.73608 0.83869 0.62762 0.0
C4325 C 0.7345 0.7982 0.64371 0.0
H4326 H 0.7557 0.82377 0.68306 0.0
C4327 C 0.7455 0.76632 0.7019 0.0
C4328 C 0.74541 0.77555 0.71705 0.0
C4329 C 0.74453 0.77404 0.68752 0.0
C4330 C 0.74944 0.81648 0.6723 0.0
H4331 H 0.7518 0.81782 0.58885 0.0
H4332 H 0.75136 0.80404 0.61408 0.0
H4333 H 0.75465 0.83732 0.658 0.0
H4334 H 0.74307 0.79961 0.72915 0.0
H4335 H 0.74092 0.81314 0.70417 0.0
H4336 H 0.72882 0.77749 0.65794 0.0
C4337 C 0.74704 0.81585 0.61396 0.0
C4338 C 0.74894 0.82427 0.65792 0.0
C4339 C 0.74738 0.82376 0.5996 0.0
C4340 C 0.74377 0.79246 0.71762 0.0
C4341 C 0.74251 0.80015 0.70326 0.0
C4342 C 0.73474 0.79048 0.65816 0.0
C4343 C 0.7415 0.82331 0.62813 0.0
C4344 C 0.74159 0.81516 0.64347 0.0
C4345 C 0.74307 0.79111 0.68798 0.0
C4346 C 0.74234 0.79947 0.67265 0.0
H4347 H 0.73189 0.85829 0.61308 0.0
H4348 H 0.7317 0.84465 0.63838 0.0
H4349 H 0.7286 0.79097 0.63274 0.0
H4350 H 0.74676 0.75322 0.70119 0.0
H4351 H 0.74526 0.76668 0.67608 0.0
C4352 C 0.67564 0.45469 0.5217 0.0
C4353 C 0.67603 0.44221 0.50883 0.0
C4354 C 0.66362 0.46464 0.52165 0.0
C4355 C 0.62295 0.46538 0.50252 0.0
H4356 H 0.63226 0.51255 0.51901 0.0
C4357 C 0.57632 0.50752 0.49376 0.0
C4358 C 0.57203 0.51548 0.50828 0.0
C4359 C 0.59045 0.50067 0.49346 0.0
C4360 C 0.62955 0.49939 0.5144 0.0
H4361 H 0.66399 0.43043 0.48583 0.0
H4362 H 0.64359 0.44821 0.48537 0.0
H4363 H 0.65399 0.49594 0.51928 0.0
H4364 H 0.57963 0.52369 0.53356 0.0
H4365 H 0.60456 0.5118 0.53299 0.0
H4366 H 0.59863 0.46888 0.49741 0.0
C4367 C 0.65232 0.45009 0.49572 0.0
C4368 C 0.64192 0.48984 0.51463 0.0
C4369 C 0.6642 0.44003 0.49586 0.0
C4370 C 0.58268 0.51758 0.52222 0.0
C4371 C 0.59693 0.51082 0.52189 0.0
C4372 C 0.61071 0.47495 0.50209 0.0
C4373 C 0.65179 0.46244 0.50866 0.0
C4374 C 0.63876 0.47271 0.50864 0.0
C4375 C 0.60058 0.50178 0.50766 0.0
C4376 C 0.61389 0.49203 0.50796 0.0
H4377 H 0.68471 0.45691 0.53178 0.0
H4378 H 0.66349 0.4739 0.5319 0.0
H4379 H 0.61994 0.45215 0.49822 0.0
H4380 H 0.56835 0.50582 0.48282 0.0
H4381 H 0.59314 0.49395 0.48229 0.0
C4382 C 0.16845 0.10764 0.51696 0.0
C4383 C 0.18016 0.10163 0.50753 0.0
C4384 C 0.15304 0.09788 0.51765 0.0
C4385 C 0.12473 0.06264 0.49471 0.0
H4386 H 0.10183 0.06225 0.53447 0.0
C4387 C 0.0623 0.02065 0.4976 0.0
C4388 C 0.05037 0.02849 0.50482 0.0
C4389 C 0.07861 0.02845 0.49933 0.0
C4390 C 0.10804 0.0623 0.52326 0.0
H4391 H 0.18507 0.08042 0.49191 0.0
H4392 H 0.15826 0.06333 0.49321 0.0
H4393 H 0.12946 0.07809 0.53472 0.0
H4394 H 0.04614 0.05024 0.52011 0.0
H4395 H 0.07462 0.0639 0.52312 0.0
H4396 H 0.10332 0.047 0.48321 0.0
C4397 C 0.16085 0.07574 0.4998 0.0
C4398 C 0.12386 0.0714 0.52338 0.0
C4399 C 0.17622 0.08552 0.49906 0.0
C4400 C 0.0551 0.04391 0.5144 0.0
C4401 C 0.07142 0.0517 0.51618 0.0
C4402 C 0.10896 0.05352 0.4946 0.0
C4403 C 0.149 0.08185 0.50898 0.0
C4404 C 0.13237 0.07175 0.50908 0.0
C4405 C 0.08332 0.04423 0.50837 0.0
C4406 C 0.10039 0.0533 0.50884 0.0
H4407 H 0.17105 0.12009 0.52348 0.0
H4408 H 0.14415 0.10309 0.52464 0.0
H4409 H 0.13077 0.06287 0.4834 0.0
H4410 H 0.05898 0.00871 0.49022 0.0
H4411 H 0.08752 0.02224 0.49339 0.0
C4412 C 0.18675 0.92885 0.75075 0.0
C4413 C 0.17742 0.93126 0.76421 0.0
C4414 C 0.1952 0.91544 0.74933 0.0
C4415 C 0.21199 0.88573 0.77336 0.0
H4416 H 0.20926 0.85813 0.73216 0.0
C4417 C 0.22348 0.81605 0.74884 0.0
C4418 C 0.23876 0.81619 0.75664 0.0
C4419 C 0.21714 0.83085 0.74868 0.0
C4420 C 0.21012 0.86573 0.74374 0.0
H4421 H 0.16952 0.9213 0.78661 0.0
H4422 H 0.18442 0.8981 0.78422 0.0
H4423 H 0.19587 0.8826 0.73434 0.0
H4424 H 0.25958 0.83211 0.76998 0.0
H4425 H 0.24849 0.8579 0.76967 0.0
H4426 H 0.22594 0.86869 0.78287 0.0
C4427 C 0.18534 0.9067 0.77487 0.0
C4428 C 0.20259 0.8798 0.74495 0.0
C4429 C 0.17683 0.92003 0.77625 0.0
C4430 C 0.24775 0.83153 0.7639 0.0
C4431 C 0.24137 0.84631 0.76381 0.0
C4432 C 0.21961 0.87173 0.77212 0.0
C4433 C 0.19457 0.90423 0.76138 0.0
C4434 C 0.20329 0.88983 0.75983 0.0
C4435 C 0.22592 0.84608 0.75639 0.0
C4436 C 0.21862 0.86149 0.75735 0.0
H4437 H 0.18767 0.93741 0.74138 0.0
H4438 H 0.20237 0.91395 0.73889 0.0
H4439 H 0.21287 0.89332 0.78494 0.0
H4440 H 0.21624 0.80446 0.7431 0.0
H4441 H 0.20513 0.83025 0.74299 0.0
C4442 C 0.32838 0.97203 0.03728 0.0
C4443 C 0.32361 0.95598 0.0289 0.0
C4444 C 0.34388 0.98123 0.03563 0.0
C4445 C 0.3767 0.98635 0.00819 0.0
H4446 H 0.40628 -0.00256 0.04657 0.0
C4447 C 0.44573 -0.00163 0.00371 0.0
C4448 C 0.45554 0.00951 0.01559 0.0
C4449 C 0.429 0.99442 0.0051 0.0
C4450 C 0.39814 0.99483 0.03574 0.0
H4451 H 0.33073 0.93711 0.01189 0.0
H4452 H 0.35766 0.9533 0.00874 0.0
H4453 H 0.37767 0.98648 0.04948 0.0
H4454 H 0.45557 0.02583 0.03786 0.0
H4455 H 0.42631 0.01941 0.04 0.0
H4456 H 0.39699 0.99465 0.99437 0.0
C4457 C 0.34957 0.95869 0.01669 0.0
C4458 C 0.38177 0.98852 0.03745 0.0
C4459 C 0.33429 0.9494 0.0186 0.0
C4460 C 0.4483 0.01699 0.02864 0.0
C4461 C 0.43153 0.01327 0.02989 0.0
C4462 C 0.39299 0.99292 0.00648 0.0
C4463 C 0.35451 0.97462 0.02523 0.0
C4464 C 0.37106 0.98381 0.02365 0.0
C4465 C 0.42169 0.00176 0.01825 0.0
C4466 C 0.40402 -0.00323 0.0202 0.0
H4467 H 0.32022 0.97731 0.04522 0.0
H4468 H 0.34753 0.99351 0.04233 0.0
H4469 H 0.36855 0.9829 -0.0026 0.0
H4470 H 0.45103 0.99237 0.99356 0.0
H4471 H 0.42188 0.98525 -0.00393 0.0
C4472 C 0.82609 0.60151 0.74958 0.0
C4473 C 0.83888 0.60469 0.7617 0.0
C4474 C 0.81399 0.61133 0.74976 0.0
C4475 C 0.79477 0.63944 0.77678 0.0
H4476 H 0.78451 0.65909 0.73743 0.0
C4477 C 0.76971 0.70044 0.77715 0.0
C4478 C 0.76006 0.70326 0.76374 0.0
C4479 C 0.77559 0.68543 0.77737 0.0
C4480 C 0.78688 0.65339 0.74844 0.0
H4481 H 0.84911 0.62089 0.78334 0.0
H4482 H 0.82788 0.63795 0.7837 0.0
H4483 H 0.80261 0.63869 0.73661 0.0
H4484 H 0.74787 0.69227 0.74062 0.0
H4485 H 0.75795 0.66579 0.74107 0.0
H4486 H 0.77929 0.65437 0.78871 0.0
C4487 C 0.82715 0.62769 0.7742 0.0
C4488 C 0.79733 0.64177 0.74797 0.0
C4489 C 0.83932 0.61797 0.77396 0.0
C4490 C 0.75542 0.6904 0.75105 0.0
C4491 C 0.76126 0.67532 0.75127 0.0
C4492 C 0.78421 0.65096 0.77723 0.0
C4493 C 0.81435 0.62443 0.76213 0.0
C4494 C 0.80174 0.63508 0.76223 0.0
C4495 C 0.77186 0.67291 0.76419 0.0
C4496 C 0.78055 0.65847 0.76317 0.0
H4497 H 0.8252 0.59116 0.74016 0.0
H4498 H 0.80419 0.6085 0.74037 0.0
H4499 H 0.79776 0.6342 0.78789 0.0
H4500 H 0.7734 0.71016 0.78714 0.0
H4501 H 0.78384 0.68411 0.78743 0.0
C4502 C 0.83189 0.59017 0.00403 0.0
C4503 C 0.83351 0.60616 -0.00168 0.0
C4504 C 0.84472 0.58122 0.0035 0.0
C4505 C 0.88937 0.58725 -0.00025 0.0
H4506 H 0.88114 0.53872 0.99061 0.0
C4507 C 0.9413 0.55041 0.98952 0.0
C4508 C 0.94124 0.53669 -0.00128 0.0
C4509 C 0.92762 0.55799 0.98829 0.0
C4510 C 0.88359 0.55227 0.99325 0.0
H4511 H 0.85012 0.62524 0.98766 0.0
H4512 H 0.8721 0.60941 0.98609 0.0
H4513 H 0.85839 0.55388 0.99088 0.0
H4514 H 0.92665 0.51959 0.01321 0.0
H4515 H 0.90258 0.53274 0.01089 0.0
H4516 H 0.91458 0.58563 0.00191 0.0
C4517 C 0.86103 0.60388 0.99129 0.0
C4518 C 0.87057 0.56097 0.99348 0.0
C4519 C 0.84828 0.61288 0.99196 0.0
C4520 C 0.927 0.53016 0.00603 0.0
C4521 C 0.91323 0.53766 0.00468 0.0
C4522 C 0.90237 0.57858 -0.00065 0.0
C4523 C 0.85948 0.58796 -0.00287 0.0
C4524 C 0.87329 0.5786 -0.00324 0.0
C4525 C 0.91355 0.55191 -0.00388 0.0
C4526 C 0.89963 0.561 -0.00389 0.0
H4527 H 0.82065 0.58447 0.00882 0.0
H4528 H 0.84311 0.5691 0.00829 0.0
H4529 H 0.89197 0.60076 0.00269 0.0
H4530 H 0.95211 0.55567 0.98371 0.0
H4531 H 0.92813 0.56881 0.98142 0.0
C4532 C 0.19011 0.09742 0.78344 0.0
C4533 C 0.1761 0.09083 0.77333 0.0
C4534 C 0.19787 0.11406 0.78304 0.0
C4535 C 0.20231 0.1489 0.75695 0.0
H4536 H 0.21927 0.17605 0.79706 0.0
C4537 C 0.23166 0.21897 0.7581 0.0
C4538 C 0.24618 0.22403 0.76778 0.0
C4539 C 0.22205 0.20323 0.7592 0.0
C4540 C 0.2147 0.16859 0.78574 0.0
H4541 H 0.15904 0.09674 0.75515 0.0
H4542 H 0.17264 0.12573 0.7544 0.0
H4543 H 0.20466 0.14745 0.79809 0.0
H4544 H 0.26194 0.21689 0.7864 0.0
H4545 H 0.24531 0.1894 0.78822 0.0
H4546 H 0.2125 0.16997 0.74459 0.0
C4547 C 0.17776 0.11794 0.76246 0.0
C4548 C 0.20635 0.1522 0.78634 0.0
C4549 C 0.16999 0.10131 0.76287 0.0
C4550 C 0.2508 0.21327 0.77878 0.0
C4551 C 0.2412 0.19758 0.7799 0.0
C4552 C 0.21067 0.16529 0.75636 0.0
C4553 C 0.1918 0.1245 0.77253 0.0
C4554 C 0.20018 0.14212 0.77194 0.0
C4555 C 0.22679 0.19231 0.77004 0.0
C4556 C 0.21708 0.17527 0.77074 0.0
H4557 H 0.19525 0.08962 0.79148 0.0
H4558 H 0.20881 0.11866 0.79077 0.0
H4559 H 0.19789 0.14138 0.74563 0.0
H4560 H 0.22785 0.22705 0.74951 0.0
H4561 H 0.21092 0.19961 0.75156 0.0
C4562 C 0.30883 0.95231 0.24492 0.0
C4563 C 0.32228 0.95652 0.2562 0.0
C4564 C 0.29762 0.93748 0.24563 0.0
C4565 C 0.2821 0.90612 0.27294 0.0
H4566 H 0.27696 0.87362 0.23491 0.0
C4567 C 0.26694 0.83534 0.27737 0.0
C4568 C 0.25888 0.82465 0.26412 0.0
C4569 C 0.27068 0.85264 0.27642 0.0
C4570 C 0.27784 0.88263 0.24554 0.0
H4571 H 0.33435 0.94908 0.27737 0.0
H4572 H 0.31471 0.92331 0.27873 0.0
H4573 H 0.2908 0.90229 0.23302 0.0
H4574 H 0.24732 0.82369 0.23996 0.0
H4575 H 0.25339 0.85397 0.23849 0.0
H4576 H 0.26939 0.88652 0.28558 0.0
C4577 C 0.31284 0.93138 0.26932 0.0
C4578 C 0.28583 0.89904 0.24443 0.0
C4579 C 0.32414 0.94598 0.26844 0.0
C4580 C 0.25378 0.83164 0.25027 0.0
C4581 C 0.25731 0.84898 0.24941 0.0
C4582 C 0.27391 0.88979 0.274 0.0
C4583 C 0.29957 0.92693 0.25786 0.0
C4584 C 0.28851 0.91072 0.25826 0.0
C4585 C 0.26622 0.85964 0.26228 0.0
C4586 C 0.27222 0.87767 0.26047 0.0
H4587 H 0.30719 0.96029 0.23537 0.0
H4588 H 0.28748 0.93424 0.23665 0.0
H4589 H 0.28389 0.91503 0.28372 0.0
H4590 H 0.27107 0.83029 0.28817 0.0
H4591 H 0.27778 0.86039 0.28648 0.0
C4592 C 0.50438 0.34842 0.56721 0.0
C4593 C 0.51358 0.35134 0.58216 0.0
C4594 C 0.50305 0.3617 0.5579 0.0
C4595 C 0.50302 0.40629 0.56242 0.0
H4596 H 0.5117 0.4059 0.51666 0.0
C4597 C 0.4884 0.45799 0.52461 0.0
C4598 C 0.50194 0.46645 0.5174 0.0
C4599 C 0.4888 0.44249 0.5305 0.0
C4600 C 0.50917 0.40608 0.52941 0.0
H4601 H 0.52873 0.37025 0.59904 0.0
H4602 H 0.52613 0.39358 0.58288 0.0
H4603 H 0.51516 0.38166 0.5314 0.0
H4604 H 0.52604 0.46472 0.50962 0.0
H4605 H 0.5266 0.43746 0.51979 0.0
H4606 H 0.49699 0.4306 0.56054 0.0
C4607 C 0.52007 0.381 0.57836 0.0
C4608 C 0.51111 0.39227 0.53779 0.0
C4609 C 0.52163 0.36769 0.58753 0.0
C4610 C 0.51547 0.45858 0.51525 0.0
C4611 C 0.51577 0.44295 0.52097 0.0
C4612 C 0.50082 0.41992 0.55401 0.0
C4613 C 0.51067 0.37813 0.56354 0.0
C4614 C 0.50824 0.39239 0.55442 0.0
C4615 C 0.50264 0.43505 0.52909 0.0
C4616 C 0.504 0.42001 0.53748 0.0
H4617 H 0.49816 0.33587 0.56278 0.0
H4618 H 0.49569 0.35922 0.54654 0.0
H4619 H 0.5006 0.40658 0.5752 0.0
H4620 H 0.47777 0.46368 0.52642 0.0
H4621 H 0.47847 0.43654 0.53661 0.0
C4622 C 0.40251 0.74991 0.3491 0.0
C4623 C 0.41627 0.76169 0.34636 0.0
C4624 C 0.38729 0.75088 0.34195 0.0
C4625 C 0.36538 0.78064 0.32208 0.0
H4626 H 0.33499 0.74015 0.30605 0.0
C4627 C 0.31223 0.77872 0.27482 0.0
C4628 C 0.2971 0.76968 0.27808 0.0
C4629 C 0.32596 0.77838 0.28491 0.0
C4630 C 0.34329 0.75155 0.31067 0.0
H4631 H 0.42507 0.7833 0.33357 0.0
H4632 H 0.39874 0.78471 0.32069 0.0
H4633 H 0.36078 0.73788 0.31982 0.0
H4634 H 0.28413 0.75324 0.29421 0.0
H4635 H 0.30836 0.75223 0.31175 0.0
H4636 H 0.3481 0.79423 0.31223 0.0
C4637 C 0.39948 0.77506 0.32878 0.0
C4638 C 0.35806 0.75028 0.31859 0.0
C4639 C 0.41461 0.7742 0.33606 0.0
C4640 C 0.29575 0.76039 0.29161 0.0
C4641 C 0.30955 0.75975 0.30154 0.0
C4642 C 0.35073 0.78189 0.31396 0.0
C4643 C 0.38556 0.76355 0.33177 0.0
C4644 C 0.36941 0.76481 0.3242 0.0
C4645 C 0.3248 0.76868 0.2982 0.0
C4646 C 0.33964 0.76736 0.30802 0.0
H4647 H 0.40345 0.74023 0.35712 0.0
H4648 H 0.37684 0.74191 0.34468 0.0
H4649 H 0.37359 0.79212 0.3266 0.0
H4650 H 0.31346 0.78587 0.26434 0.0
H4651 H 0.33759 0.78524 0.282 0.0
C4652 C 0.02404 0.70036 0.05645 0.0
C4653 C 0.01361 0.69898 0.06936 0.0
C4654 C 0.02602 0.68608 0.04651 0.0
C4655 C 0.00609 0.64323 0.03254 0.0
H4656 H 0.04933 0.63292 0.02853 0.0
C4657 C 0.03293 0.57993 0.02355 0.0
C4658 C 0.02148 0.57122 0.01146 0.0
C4659 C 0.03467 0.5974 0.02665 0.0
C4660 C 0.03722 0.63574 0.02942 0.0
H4661 H -0.00296 0.68142 0.08181 0.0
H4662 H 0.0001 0.65671 0.06414 0.0
H4663 H 0.04594 0.66015 0.04205 0.0
H4664 H 0.00441 0.57392 0.9918 0.0
H4665 H 0.00765 0.60436 -0.00298 0.0
H4666 H -0.00278 0.61875 0.0206 0.0
C4667 C 0.00672 0.66886 0.06175 0.0
C4668 C 0.03529 0.6513 0.03705 0.0
C4669 C 0.00492 0.68305 0.07182 0.0
C4670 C 0.01309 0.58034 0.00142 0.0
C4671 C 0.01493 0.59774 0.00441 0.0
C4672 C 0.00801 0.62781 0.02481 0.0
C4673 C 0.01738 0.67023 0.04912 0.0
C4674 C 0.01967 0.65494 0.03906 0.0
C4675 C 0.02506 0.60633 0.01761 0.0
C4676 C 0.02356 0.62372 0.02351 0.0
H4677 H 0.03071 0.71246 0.05401 0.0
H4678 H 0.0342 0.68744 0.03675 0.0
H4679 H 0.99394 0.64582 0.03386 0.0
H4680 H 0.03955 0.57316 0.03143 0.0
H4681 H 0.04256 0.60368 0.03693 0.0
C4682 C 0.08196 0.2789 0.83294 0.0
C4683 C 0.07158 0.26392 0.83554 0.0
C4684 C 0.09561 0.27853 0.82386 0.0
C4685 C 0.12367 0.25046 0.81006 0.0
H4686 H 0.13681 0.28475 0.78115 0.0
C4687 C 0.18014 0.2505 0.77202 0.0
C4688 C 0.19033 0.26618 0.77192 0.0
C4689 C 0.16469 0.24945 0.77813 0.0
C4690 C 0.13337 0.27513 0.78925 0.0
H4691 H 0.06721 0.23681 0.83026 0.0
H4692 H 0.09099 0.23615 0.81438 0.0
H4693 H 0.11175 0.28447 0.79508 0.0
H4694 H 0.19229 0.29304 0.77779 0.0
H4695 H 0.16554 0.29125 0.78851 0.0
H4696 H 0.14542 0.24129 0.80442 0.0
C4697 C 0.08873 0.24819 0.81959 0.0
C4698 C 0.119 0.27499 0.79726 0.0
C4699 C 0.07509 0.24856 0.82868 0.0
C4700 C 0.18467 0.28078 0.77764 0.0
C4701 C 0.16928 0.27975 0.78372 0.0
C4702 C 0.13805 0.25061 0.80205 0.0
C4703 C 0.09922 0.26316 0.81713 0.0
C4704 C 0.11406 0.26277 0.80792 0.0
C4705 C 0.15914 0.26407 0.78422 0.0
C4706 C 0.14319 0.26308 0.7917 0.0
H4707 H 0.07976 0.29093 0.83825 0.0
H4708 H 0.10356 0.29029 0.82246 0.0
H4709 H 0.12036 0.24099 0.81834 0.0
H4710 H 0.18422 0.23905 0.76769 0.0
H4711 H 0.15713 0.23719 0.77817 0.0
C4712 C 0.50897 0.69314 0.95257 0.0
C4713 C 0.50851 0.69157 0.93547 0.0
C4714 C 0.50766 0.67885 0.96108 0.0
C4715 C 0.51257 0.63426 0.95545 0.0
H4716 H 0.48801 0.62964 0.99399 0.0
C4717 C 0.49495 0.57087 0.98029 0.0
C4718 C 0.49986 0.57013 -0.00333 0.0
C4719 C 0.49517 0.5863 0.9741 0.0
C4720 C 0.49499 0.63087 0.98331 0.0
H4721 H 0.50558 0.67384 0.91386 0.0
H4722 H 0.50305 0.64901 0.92858 0.0
H4723 H 0.49019 0.65558 0.9805 0.0
H4724 H 0.50786 0.5851 0.01962 0.0
H4725 H 0.50801 0.61222 0.00869 0.0
H4726 H 0.51701 0.60946 0.95798 0.0
C4727 C 0.50492 0.66123 0.9355 0.0
C4728 C 0.4963 0.6457 0.97562 0.0
C4729 C 0.50634 0.67547 0.92705 0.0
C4730 C 0.50411 0.58522 0.00693 0.0
C4731 C 0.50415 0.60073 0.00072 0.0
C4732 C 0.51111 0.61946 0.963 0.0
C4733 C 0.50577 0.66273 0.95262 0.0
C4734 C 0.50494 0.64746 0.96145 0.0
C4735 C 0.50014 0.60136 0.98413 0.0
C4736 C 0.50215 0.61753 0.97686 0.0
H4737 H 0.5107 0.70542 0.95937 0.0
H4738 H 0.5085 0.68047 0.97425 0.0
H4739 H 0.51969 0.63534 0.94485 0.0
H4740 H 0.49148 0.55955 0.97201 0.0
H4741 H 0.49181 0.58647 0.96131 0.0
C4742 C 0.07282 0.77576 0.70827 0.0
C4743 C 0.07228 0.78052 0.69235 0.0
C4744 C 0.08679 0.77104 0.71485 0.0
C4745 C 0.1216 0.75302 0.70158 0.0
H4746 H 0.14031 0.76782 0.74531 0.0
C4747 C 0.18625 0.74716 0.72284 0.0
C4748 C 0.18959 0.74514 0.73924 0.0
C4749 C 0.17064 0.74859 0.7173 0.0
C4750 C 0.13503 0.76327 0.73319 0.0
H4751 H 0.08612 0.78473 0.67107 0.0
H4752 H 0.11056 0.77673 0.68265 0.0
H4753 H 0.11607 0.77775 0.73573 0.0
H4754 H 0.17912 0.74159 0.76246 0.0
H4755 H 0.15168 0.74376 0.75271 0.0
H4756 H 0.14057 0.73864 0.69895 0.0
C4757 C 0.10013 0.77646 0.68996 0.0
C4758 C 0.12123 0.76907 0.72769 0.0
C4759 C 0.08622 0.78127 0.68343 0.0
C4760 C 0.17684 0.74323 0.74975 0.0
C4761 C 0.16119 0.74463 0.74421 0.0
C4762 C 0.13534 0.74716 0.7071 0.0
C4763 C 0.10039 0.77088 0.70555 0.0
C4764 C 0.11457 0.76423 0.71173 0.0
C4765 C 0.15808 0.74796 0.72808 0.0
C4766 C 0.14237 0.75245 0.72287 0.0
H4767 H 0.06226 0.77519 0.71544 0.0
H4768 H 0.0867 0.76683 0.72692 0.0
H4769 H 0.11649 0.74881 0.68933 0.0
H4770 H 0.19589 0.74866 0.71449 0.0
H4771 H 0.1687 0.75124 0.70483 0.0
C4772 C 0.00833 0.36201 0.42075 0.0
C4773 C 0.01755 0.35071 0.42675 0.0
C4774 C 0.00884 0.37787 0.42904 0.0
C4775 C 0.01898 0.4008 0.46991 0.0
H4776 H 0.01575 0.43993 0.44711 0.0
C4777 C 0.02479 0.46686 0.50366 0.0
C4778 C 0.01275 0.47602 0.49949 0.0
C4779 C 0.02636 0.45221 0.49413 0.0
C4780 C 0.01658 0.42907 0.45361 0.0
H4781 H 0.03484 0.34747 0.44601 0.0
H4782 H 0.03617 0.37534 0.46014 0.0
H4783 H 0.01718 0.4132 0.43161 0.0
H4784 H 0.99301 0.47725 0.48204 0.0
H4785 H 0.99591 0.45169 0.46519 0.0
H4786 H 0.01848 0.41671 0.49189 0.0
C4787 C 0.02826 0.37179 0.44921 0.0
C4788 C 0.01736 0.41376 0.44476 0.0
C4789 C 0.02766 0.35587 0.44098 0.0
C4790 C 0.00251 0.47049 0.48543 0.0
C4791 C 0.00417 0.4559 0.47579 0.0
C4792 C 0.01834 0.41612 0.47874 0.0
C4793 C 0.01868 0.3829 0.44347 0.0
C4794 C 0.01849 0.3994 0.45281 0.0
C4795 C 0.01598 0.44649 0.48019 0.0
C4796 C 0.01706 0.43039 0.47069 0.0
H4797 H 0.00062 0.35857 0.40967 0.0
H4798 H 0.00119 0.38602 0.42433 0.0
H4799 H 0.0195 0.38996 0.47652 0.0
H4800 H 0.0329 0.47089 0.5144 0.0
H4801 H 0.03569 0.44531 0.4977 0.0
C4802 C 0.41849 0.26667 0.19988 0.0
C4803 C 0.4243 0.28149 0.19278 0.0
C4804 C 0.40548 0.26592 0.20992 0.0
C4805 C 0.38125 0.29214 0.23391 0.0
H4806 H 0.34701 0.25312 0.22484 0.0
C4807 C 0.31533 0.29155 0.25095 0.0
C4808 C 0.30615 0.27651 0.25515 0.0
C4809 C 0.33118 0.29204 0.24622 0.0
C4810 C 0.35657 0.26396 0.22779 0.0
H4811 H 0.42121 0.30721 0.19084 0.0
H4812 H 0.39841 0.30588 0.2083 0.0
H4813 H 0.37214 0.25419 0.21109 0.0
H4814 H 0.30676 0.25044 0.25864 0.0
H4815 H 0.33448 0.25137 0.25058 0.0
H4816 H 0.36546 0.30205 0.25036 0.0
C4817 C 0.40406 0.29492 0.20629 0.0
C4818 C 0.37098 0.26458 0.21988 0.0
C4819 C 0.41709 0.29567 0.19625 0.0
C4820 C 0.31343 0.26219 0.25529 0.0
C4821 C 0.32929 0.26269 0.25061 0.0
C4822 C 0.36682 0.29151 0.24186 0.0
C4823 C 0.398 0.27997 0.21307 0.0
C4824 C 0.38336 0.27879 0.22263 0.0
C4825 C 0.3382 0.27751 0.24565 0.0
C4826 C 0.35421 0.27753 0.23867 0.0
H4827 H 0.42403 0.25565 0.19769 0.0
H4828 H 0.40124 0.25432 0.21517 0.0
H4829 H 0.39069 0.30315 0.23646 0.0
H4830 H 0.31012 0.30283 0.25072 0.0
H4831 H 0.33763 0.30361 0.24231 0.0
C4832 C 0.57301 0.51245 0.35385 0.0
C4833 C 0.58158 0.49936 0.35012 0.0
C4834 C 0.56427 0.51283 0.36781 0.0
C4835 C 0.54651 0.48642 0.39913 0.0
H4836 H 0.54759 0.52967 0.42362 0.0
C4837 C 0.51991 0.4932 0.46235 0.0
C4838 C 0.51177 0.50669 0.46546 0.0
C4839 C 0.5285 0.49192 0.44831 0.0
C4840 C 0.547 0.51751 0.41684 0.0
H4841 H 0.58778 0.4764 0.35793 0.0
H4842 H 0.57285 0.47726 0.38266 0.0
H4843 H 0.56235 0.52808 0.39905 0.0
H4844 H 0.50576 0.52925 0.45664 0.0
H4845 H 0.52019 0.52677 0.43174 0.0
H4846 H 0.53117 0.47587 0.41702 0.0
C4847 C 0.57256 0.48704 0.37462 0.0
C4848 C 0.55546 0.51659 0.40273 0.0
C4849 C 0.58116 0.48656 0.36052 0.0
C4850 C 0.51208 0.5188 0.4544 0.0
C4851 C 0.52043 0.51741 0.44025 0.0
C4852 C 0.53804 0.48733 0.41329 0.0
C4853 C 0.56408 0.50024 0.37847 0.0
C4854 C 0.55525 0.50106 0.39364 0.0
C4855 C 0.52887 0.50404 0.4371 0.0
C4856 C 0.53812 0.50291 0.42225 0.0
H4857 H 0.57296 0.52232 0.34586 0.0
H4858 H 0.55759 0.52297 0.3702 0.0
H4859 H 0.54593 0.47427 0.39232 0.0
H4860 H 0.5199 0.48386 0.47094 0.0
H4861 H 0.53508 0.48163 0.44638 0.0
C4862 C 0.25214 0.84738 0.09421 0.0
C4863 C 0.2415 0.83909 0.08127 0.0
C4864 C 0.25581 0.83889 0.1074 0.0
C4865 C 0.25352 0.79617 0.12105 0.0
H4866 H 0.25851 0.82127 0.16371 0.0
C4867 C 0.2504 0.76923 0.18415 0.0
C4868 C 0.26255 0.77713 0.19595 0.0
C4869 C 0.24974 0.77498 0.16873 0.0
C4870 C 0.25732 0.81418 0.15184 0.0
H4871 H 0.22638 0.81546 0.07183 0.0
H4872 H 0.23223 0.80068 0.09531 0.0
H4873 H 0.25266 0.83518 0.13991 0.0
H4874 H 0.28414 0.79637 0.20071 0.0
H4875 H 0.28273 0.80663 0.17392 0.0
H4876 H 0.25744 0.77492 0.13343 0.0
C4877 C 0.23808 0.81364 0.09508 0.0
C4878 C 0.25403 0.82213 0.13817 0.0
C4879 C 0.23461 0.8221 0.08171 0.0
C4880 C 0.27459 0.79012 0.19184 0.0
C4881 C 0.2738 0.796 0.17655 0.0
C4882 C 0.25654 0.78811 0.13484 0.0
C4883 C 0.2487 0.82197 0.10811 0.0
C4884 C 0.25215 0.81328 0.12258 0.0
C4885 C 0.2611 0.78882 0.16508 0.0
C4886 C 0.25853 0.79712 0.1503 0.0
H4887 H 0.25792 0.86038 0.09396 0.0
H4888 H 0.26436 0.84561 0.11698 0.0
H4889 H 0.25237 0.78903 0.10922 0.0
H4890 H 0.24102 0.75915 0.18706 0.0
H4891 H 0.2398 0.76933 0.16005 0.0
C4892 C 0.9382 0.5214 0.85035 0.0
C4893 C 0.92885 0.53397 0.8486 0.0
C4894 C 0.94688 0.52086 0.865 0.0
C4895 C 0.96461 0.54603 0.90255 0.0
H4896 H 0.96103 0.50262 0.91958 0.0
C4897 C 0.98162 0.51548 0.96483 0.0
C4898 C -0.00178 0.52228 0.96732 0.0
C4899 C 0.97294 0.51801 0.95078 0.0
C4900 C 0.96205 0.51484 0.91503 0.0
H4901 H 0.92146 0.55599 0.86072 0.0
H4902 H 0.93678 0.55506 0.88641 0.0
H4903 H 0.94642 0.50496 0.89398 0.0
H4904 H 0.01874 0.53738 0.95744 0.0
H4905 H 0.00351 0.54178 0.93271 0.0
H4906 H 0.9803 0.55587 0.9237 0.0
C4907 C 0.93741 0.54571 0.87636 0.0
C4908 C 0.95383 0.51615 0.90032 0.0
C4909 C 0.92866 0.54623 0.86169 0.0
C4910 C 0.00595 0.53196 0.95573 0.0
C4911 C -0.00277 0.53458 0.94168 0.0
C4912 C 0.97296 0.5447 0.91726 0.0
C4913 C 0.94645 0.5329 0.87819 0.0
C4914 C 0.95507 0.53173 0.89391 0.0
C4915 C 0.9807 0.52742 0.93899 0.0
C4916 C 0.97173 0.52908 0.92361 0.0
H4917 H 0.93889 0.51202 0.84035 0.0
H4918 H 0.954 0.51103 0.866 0.0
H4919 H 0.96583 0.55818 0.89782 0.0
H4920 H 0.97539 0.508 0.97364 0.0
H4921 H 0.96016 0.51252 0.94907 0.0
C4922 C 0.25339 0.23127 0.57906 0.0
C4923 C 0.26588 0.22184 0.5769 0.0
C4924 C 0.25171 0.23973 0.59422 0.0
C4925 C 0.27305 0.25666 0.63344 0.0
H4926 H 0.23221 0.24187 0.65258 0.0
C4927 C 0.26909 0.25889 0.70214 0.0
C4928 C 0.25496 0.26202 0.70942 0.0
C4929 C 0.26961 0.25695 0.68528 0.0
C4930 C 0.24356 0.24648 0.64736 0.0
H4931 H 0.28671 0.21452 0.58906 0.0
H4932 H 0.2841 0.2298 0.61515 0.0
H4933 H 0.23503 0.2341 0.62376 0.0
H4934 H 0.23024 0.26567 0.70467 0.0
H4935 H 0.23121 0.26255 0.67499 0.0
H4936 H 0.28171 0.26894 0.65692 0.0
C4937 C 0.2756 0.23055 0.6051 0.0
C4938 C 0.24517 0.24199 0.63085 0.0
C4939 C 0.27712 0.22184 0.59007 0.0
C4940 C 0.24127 0.26315 0.6994 0.0
C4941 C 0.24184 0.26136 0.68242 0.0
C4942 C 0.27138 0.26136 0.64985 0.0
C4943 C 0.26268 0.23924 0.60741 0.0
C4944 C 0.2601 0.24656 0.62392 0.0
C4945 C 0.25607 0.25829 0.67516 0.0
C4946 C 0.25683 0.25575 0.65718 0.0
H4947 H 0.24472 0.23191 0.56913 0.0
H4948 H 0.24172 0.24649 0.5957 0.0
H4949 H 0.28462 0.26052 0.62828 0.0
H4950 H 0.27982 0.25774 0.70946 0.0
H4951 H 0.28061 0.25409 0.6802 0.0
C4952 C 0.56097 0.50791 0.19374 0.0
C4953 C 0.57554 0.50166 0.19511 0.0
C4954 C 0.55597 0.51338 0.17911 0.0
C4955 C 0.57308 0.52911 0.14188 0.0
H4956 H 0.5281 0.52181 0.12547 0.0
C4957 C 0.55234 0.53727 0.07619 0.0
C4958 C 0.53772 0.54308 0.07357 0.0
C4959 C 0.55779 0.535 0.09189 0.0
C4960 C 0.54068 0.52421 0.13006 0.0
H4961 H 0.59589 0.49555 0.18189 0.0
H4962 H 0.58687 0.50448 0.15628 0.0
H4963 H 0.53514 0.5105 0.15064 0.0
H4964 H 0.51796 0.55235 0.08528 0.0
H4965 H 0.52753 0.54845 0.11282 0.0
H4966 H 0.57864 0.5425 0.12107 0.0
C4967 C 0.57951 0.50555 0.16664 0.0
C4968 C 0.54472 0.51767 0.14445 0.0
C4969 C 0.58453 0.50015 0.18126 0.0
C4970 C 0.52928 0.54783 0.08699 0.0
C4971 C 0.53466 0.54545 0.10272 0.0
C4972 C 0.56905 0.53559 0.12747 0.0
C4973 C 0.56542 0.51267 0.16552 0.0
C4974 C 0.56099 0.51988 0.15042 0.0
C4975 C 0.54865 0.53842 0.10524 0.0
C4976 C 0.55283 0.53307 0.12133 0.0
H4977 H 0.55366 0.50904 0.20413 0.0
H4978 H 0.54505 0.51879 0.17865 0.0
H4979 H 0.5857 0.53137 0.14635 0.0
H4980 H 0.55908 0.53352 0.06602 0.0
H4981 H 0.56858 0.52951 0.09344 0.0
C4982 C 0.24142 0.83528 0.92596 0.0
C4983 C 0.25373 0.8489 0.9318 0.0
C4984 C 0.24291 0.82539 0.91159 0.0
C4985 C 0.26718 0.82569 0.87469 0.0
H4986 H 0.24243 0.78048 0.86632 0.0
C4987 C 0.25405 0.7945 0.80981 0.0
C4988 C 0.25086 0.77695 0.80668 0.0
C4989 C 0.25647 0.80204 0.82573 0.0
C4990 C 0.24974 0.79294 0.86848 0.0
H4991 H 0.27748 0.86248 0.9268 0.0
H4992 H 0.28074 0.84438 0.90294 0.0
H4993 H 0.24343 0.79527 0.8932 0.0
H4994 H 0.24836 0.75342 0.81749 0.0
H4995 H 0.25362 0.76657 0.84549 0.0
H4996 H 0.27446 0.82295 0.8504 0.0
C4997 C 0.26952 0.84174 0.90898 0.0
C4998 C 0.25001 0.80164 0.88391 0.0
C4999 C 0.26777 0.852 0.92301 0.0
C5000 C 0.25067 0.767 0.8197 0.0
C5001 C 0.25358 0.77458 0.83571 0.0
C5002 C 0.26736 0.8168 0.8595 0.0
C5003 C 0.257 0.82844 0.90286 0.0
C5004 C 0.25827 0.81837 0.88708 0.0
C5005 C 0.25629 0.79223 0.83896 0.0
C5006 C 0.25811 0.80056 0.85594 0.0
H5007 H 0.23056 0.83211 0.93247 0.0
H5008 H 0.23281 0.81553 0.90726 0.0
H5009 H 0.27361 0.83854 0.8764 0.0
H5010 H 0.2541 0.80246 0.79997 0.0
H5011 H 0.25799 0.8156 0.82757 0.0
C5012 C 0.94758 0.50935 0.69269 0.0
C5013 C 0.94777 0.52454 0.70235 0.0
C5014 C 0.95729 0.50884 0.67942 0.0
C5015 C 0.97572 0.53655 0.65029 0.0
H5016 H -0.00373 0.4989 0.63628 0.0
C5017 C 0.00687 0.53435 0.58998 0.0
C5018 C 0.00226 0.51919 0.58002 0.0
C5019 C 0.00348 0.53523 0.6064 0.0
C5020 C 0.99058 0.50949 0.64005 0.0
H5021 H 0.95872 0.55097 0.70604 0.0
H5022 H 0.97585 0.55 0.68307 0.0
H5023 H 0.98427 0.49993 0.66271 0.0
H5024 H 0.99125 0.49289 0.57938 0.0
H5025 H 0.98516 0.49445 0.60797 0.0
H5026 H 0.98151 0.54588 0.62753 0.0
C5027 C 0.96807 0.53853 0.68565 0.0
C5028 C 0.98371 0.51007 0.65515 0.0
C5029 C 0.95837 0.53904 0.6989 0.0
C5030 C 0.99488 0.50476 0.58683 0.0
C5031 C 0.99151 0.50562 0.60323 0.0
C5032 C 0.98257 0.53597 0.63524 0.0
C5033 C 0.96736 0.52352 0.67555 0.0
C5034 C 0.97601 0.5235 0.66031 0.0
C5035 C 0.99544 0.52096 0.6131 0.0
C5036 C 0.98985 0.52232 0.62984 0.0
H5037 H 0.93969 0.49792 0.69519 0.0
H5038 H 0.9564 0.4971 0.6718 0.0
H5039 H 0.9696 0.5469 0.65377 0.0
H5040 H 0.01265 0.54563 0.585 0.0
H5041 H 0.00683 0.54717 0.61378 0.0
C5042 C 0.25749 0.19331 0.40822 0.0
C5043 C 0.26725 0.20051 0.42222 0.0
C5044 C 0.25832 0.20126 0.39389 0.0
C5045 C 0.27117 0.24278 0.37876 0.0
H5046 H 0.2669 0.21643 0.33676 0.0
C5047 C 0.27726 0.27322 0.31815 0.0
C5048 C 0.26501 0.26664 0.30599 0.0
C5049 C 0.27881 0.26497 0.33214 0.0
C5050 C 0.26804 0.22394 0.34841 0.0
H5051 H 0.28554 0.22181 0.43207 0.0
H5052 H 0.28736 0.23537 0.40696 0.0
H5053 H 0.26734 0.20236 0.36161 0.0
H5054 H 0.24477 0.24634 0.29884 0.0
H5055 H 0.24759 0.23184 0.32311 0.0
H5056 H 0.2719 0.26436 0.3655 0.0
C5057 C 0.27887 0.22369 0.40712 0.0
C5058 C 0.26824 0.21589 0.36265 0.0
C5059 C 0.27797 0.21579 0.42148 0.0
C5060 C 0.25445 0.25159 0.30794 0.0
C5061 C 0.25609 0.24327 0.32182 0.0
C5062 C 0.27109 0.25084 0.36452 0.0
C5063 C 0.26901 0.21656 0.39317 0.0
C5064 C 0.2696 0.22519 0.37801 0.0
C5065 C 0.2682 0.24994 0.33412 0.0
C5066 C 0.26933 0.24148 0.3492 0.0
H5067 H 0.24925 0.18145 0.40827 0.0
H5068 H 0.25039 0.1955 0.38345 0.0
H5069 H 0.272 0.25033 0.39036 0.0
H5070 H 0.28557 0.2848 0.31693 0.0
H5071 H 0.28833 0.27033 0.34137 0.0
C5072 C 0.33653 0.58246 0.5218 0.0
C5073 C 0.33428 0.59031 0.50759 0.0
C5074 C 0.34694 0.57082 0.52225 0.0
C5075 C 0.36781 0.54318 0.49601 0.0
H5076 H 0.39987 0.54986 0.53237 0.0
C5077 C 0.42956 0.52264 0.49208 0.0
C5078 C 0.43728 0.51843 0.50613 0.0
C5079 C 0.41445 0.52754 0.49277 0.0
C5080 C 0.39079 0.54749 0.52231 0.0
H5081 H 0.34121 0.59214 0.48275 0.0
H5082 H 0.3594 0.57183 0.48355 0.0
H5083 H 0.37818 0.56618 0.53274 0.0
H5084 H 0.43493 0.51483 0.53163 0.0
H5085 H 0.40829 0.52307 0.53281 0.0
H5086 H 0.38068 0.52478 0.48539 0.0
C5087 C 0.3529 0.57448 0.49425 0.0
C5088 C 0.37838 0.55691 0.5225 0.0
C5089 C 0.34254 0.58615 0.49381 0.0
C5090 C 0.42924 0.51816 0.52066 0.0
C5091 C 0.41406 0.52296 0.52134 0.0
C5092 C 0.38018 0.53368 0.49585 0.0
C5093 C 0.35525 0.56675 0.50849 0.0
C5094 C 0.36704 0.55518 0.50916 0.0
C5095 C 0.40673 0.52821 0.50752 0.0
C5096 C 0.39208 0.53609 0.50879 0.0
H5097 H 0.33009 0.58517 0.53251 0.0
H5098 H 0.34843 0.56493 0.53334 0.0
H5099 H 0.35904 0.54139 0.48569 0.0
H5100 H 0.43553 0.52294 0.48072 0.0
H5101 H 0.40927 0.53169 0.48195 0.0
C5102 C 0.83344 0.95222 0.52025 0.0
C5103 C 0.82953 0.93515 0.51439 0.0
C5104 C 0.84924 0.9611 0.5197 0.0
C5105 C 0.88912 0.95888 0.50172 0.0
H5106 H 0.90522 0.99173 0.53831 0.0
C5107 C 0.9538 5e-05 0.50586 0.0
C5108 C 0.96173 0.00376 0.52141 0.0
C5109 C 0.93755 0.99184 0.50398 0.0
C5110 C 0.90103 0.98248 0.52806 0.0
H5111 H 0.83901 0.91397 0.50331 0.0
H5112 H 0.86675 0.92923 0.50287 0.0
H5113 H 0.87742 0.97701 0.53704 0.0
H5114 H 0.95921 0.00133 0.54709 0.0
H5115 H 0.93132 0.98655 0.54386 0.0
H5116 H 0.91312 0.96382 0.49324 0.0
C5117 C 0.85757 0.93597 0.50747 0.0
C5118 C 0.88491 0.97421 0.52718 0.0
C5119 C 0.84169 0.92717 0.5078 0.0
C5120 C 0.95333 -0.0012 0.53496 0.0
C5121 C 0.93726 0.99043 0.5331 0.0
C5122 C 0.90537 0.96704 0.50272 0.0
C5123 C 0.86161 0.95304 0.51353 0.0
C5124 C 0.87871 0.96223 0.51404 0.0
C5125 C 0.92902 0.98707 0.51763 0.0
C5126 C 0.91158 0.97884 0.516 0.0
H5127 H 0.82423 0.95873 0.52517 0.0
H5128 H 0.85174 0.9743 0.52413 0.0
H5129 H 0.88476 0.94993 0.49129 0.0
H5130 H 0.96 0.0039 0.49525 0.0
H5131 H 0.93158 0.98961 0.49189 0.0
C5132 C 0.83967 0.12303 0.26956 0.0
C5133 C 0.83289 0.10797 0.26012 0.0
C5134 C 0.83107 0.13629 0.27127 0.0
C5135 C 0.7981 0.15282 0.25076 0.0
H5136 H 0.80076 0.18199 0.29098 0.0
C5137 C 0.76234 0.2073 0.25799 0.0
C5138 C 0.77133 0.22283 0.26479 0.0
C5139 C 0.76876 0.19258 0.25856 0.0
C5140 C 0.79997 0.17398 0.27966 0.0
H5141 H 0.81152 0.0947 0.24566 0.0
H5142 H 0.79643 0.11777 0.24878 0.0
H5143 H 0.81385 0.15733 0.29002 0.0
H5144 H 0.79393 0.23499 0.27794 0.0
H5145 H 0.8051 0.20931 0.27891 0.0
H5146 H 0.78432 0.16951 0.24038 0.0
C5147 C 0.80853 0.11949 0.25456 0.0
C5148 C 0.80748 0.15988 0.27909 0.0
C5149 C 0.81716 0.10627 0.25279 0.0
C5150 C 0.7867 0.22325 0.27254 0.0
C5151 C 0.79306 0.20852 0.2732 0.0
C5152 C 0.79053 0.16685 0.25136 0.0
C5153 C 0.81547 0.13475 0.26364 0.0
C5154 C 0.80677 0.14922 0.26459 0.0
C5155 C 0.78425 0.19307 0.26603 0.0
C5156 C 0.79151 0.17766 0.26576 0.0
H5157 H 0.85184 0.12479 0.2752 0.0
H5158 H 0.83688 0.14794 0.27816 0.0
H5159 H 0.79755 0.14506 0.23931 0.0
H5160 H 0.75046 0.20651 0.25195 0.0
H5161 H 0.76163 0.18082 0.25308 0.0
C5162 C 0.68741 0.06811 0.00219 0.0
C5163 C 0.69153 0.08189 0.99305 0.0
C5164 C 0.67115 0.0611 0.00364 0.0
C5165 C 0.63159 0.07456 0.00152 0.0
H5166 H 0.61396 0.02782 0.00583 0.0
C5167 C 0.56358 0.04852 -0.0003 0.0
C5168 C 0.55806 0.03912 0.01243 0.0
C5169 C 0.58012 0.05317 -0.00211 0.0
C5170 C 0.61885 0.04092 0.0048 0.0
H5171 H 0.68173 0.09809 0.97714 0.0
H5172 H 0.65367 0.08527 0.97891 0.0
H5173 H 0.64248 0.03587 -0.00024 0.0
H5174 H 0.56536 0.02712 0.03325 0.0
H5175 H 0.59458 0.03508 0.02986 0.0
H5176 H 0.60792 0.07955 0.00615 0.0
C5177 C 0.66295 0.08031 0.98549 0.0
C5178 C 0.6351 0.04553 0.00131 0.0
C5179 C 0.67912 0.08748 0.98424 0.0
C5180 C 0.56936 0.03449 0.02341 0.0
C5181 C 0.58599 0.03889 0.02141 0.0
C5182 C 0.61539 0.06994 0.00481 0.0
C5183 C 0.65875 0.06761 0.99581 0.0
C5184 C 0.64157 0.06239 -0.00054 0.0
C5185 C 0.59143 0.04827 0.00863 0.0
C5186 C 0.60887 0.0531 0.00634 0.0
H5187 H 0.6967 0.06321 0.0088 0.0
H5188 H 0.66832 0.05123 0.0116 0.0
H5189 H 0.63632 0.08774 0.00069 0.0
H5190 H 0.5551 0.05229 0.99109 0.0
H5191 H 0.58409 0.06035 0.98791 0.0
C5192 C 0.18371 0.43783 0.24321 0.0
C5193 C 0.17579 0.44077 0.25754 0.0
C5194 C 0.1958 0.42796 0.24294 0.0
C5195 C 0.22433 0.41137 0.26962 0.0
H5196 H 0.22052 0.37501 0.23514 0.0
C5197 C 0.24893 0.35086 0.27674 0.0
C5198 C 0.25323 0.34169 0.26294 0.0
C5199 C 0.24334 0.36589 0.27529 0.0
C5200 C 0.22208 0.38533 0.24465 0.0
H5201 H 0.17415 0.43549 0.28274 0.0
H5202 H 0.19526 0.41832 0.28227 0.0
H5203 H 0.20281 0.39562 0.23392 0.0
H5204 H 0.25645 0.34154 0.23706 0.0
H5205 H 0.24706 0.36808 0.23455 0.0
H5206 H 0.24336 0.40086 0.28056 0.0
C5207 C 0.19231 0.42387 0.27133 0.0
C5208 C 0.21186 0.39711 0.24397 0.0
C5209 C 0.18018 0.43364 0.27158 0.0
C5210 C 0.25302 0.34835 0.24786 0.0
C5211 C 0.24757 0.36347 0.24642 0.0
C5212 C 0.23465 0.39966 0.27025 0.0
C5213 C 0.20024 0.42095 0.25702 0.0
C5214 C 0.21255 0.40993 0.25669 0.0
C5215 C 0.24208 0.37208 0.26001 0.0
C5216 C 0.2333 0.3862 0.25802 0.0
H5217 H 0.18081 0.44341 0.23228 0.0
H5218 H 0.20179 0.42597 0.23177 0.0
H5219 H 0.22529 0.42134 0.27944 0.0
H5220 H 0.24901 0.34597 0.28851 0.0
H5221 H 0.23907 0.37207 0.28598 0.0
C5222 C 0.16559 0.42973 0.00704 0.0
C5223 C 0.17817 0.43415 0.0193 0.0
C5224 C 0.15258 0.43838 0.00671 0.0
C5225 C 0.1307 0.46529 0.03268 0.0
H5226 H 0.113 0.47503 0.99119 0.0
C5227 C 0.07837 0.50339 0.02689 0.0
C5228 C 0.06628 0.497 0.01451 0.0
C5229 C 0.09269 0.49673 0.02787 0.0
C5230 C 0.11773 0.4723 0.00287 0.0
H5231 H 0.18705 0.45131 0.04071 0.0
H5232 H 0.16434 0.46646 0.04011 0.0
H5233 H 0.13675 0.46157 0.99208 0.0
H5234 H 0.05952 0.47857 0.99359 0.0
H5235 H 0.08428 0.46691 0.99536 0.0
H5236 H 0.11153 0.47593 0.04343 0.0
C5237 C 0.16443 0.45613 0.03088 0.0
C5238 C 0.13134 0.46456 0.00338 0.0
C5239 C 0.17745 0.44746 0.03122 0.0
C5240 C 0.06869 0.48383 0.00321 0.0
C5241 C 0.08293 0.47721 0.00416 0.0
C5242 C 0.11706 0.47306 0.03217 0.0
C5243 C 0.15183 0.45169 0.01862 0.0
C5244 C 0.13787 0.46075 0.01825 0.0
C5245 C 0.09515 0.48361 0.01644 0.0
C5246 C 0.11028 0.47643 0.01723 0.0
H5247 H 0.16562 0.41936 -0.00216 0.0
H5248 H 0.14293 0.43442 -0.00273 0.0
H5249 H 0.13533 0.46238 0.04433 0.0
H5250 H 0.07679 0.51354 0.03577 0.0
H5251 H 0.10191 0.50199 0.03742 0.0
C5252 C 0.84307 0.93968 0.26136 0.0
C5253 C 0.83724 0.9504 0.25099 0.0
C5254 C 0.8348 0.92325 0.26188 0.0
C5255 C 0.79449 0.89664 0.25291 0.0
H5256 H 0.81816 0.85976 0.25443 0.0
C5257 C 0.76169 0.82779 0.24637 0.0
C5258 C 0.76711 0.81707 0.25696 0.0
C5259 C 0.77066 0.84381 0.24532 0.0
C5260 C 0.81139 0.86995 0.25418 0.0
H5261 H 0.81809 0.95228 0.2331 0.0
H5262 H 0.80374 0.92353 0.23387 0.0
H5263 H 0.83298 0.88829 0.25327 0.0
H5264 H 0.78626 0.81446 0.27451 0.0
H5265 H 0.80195 0.84257 0.27279 0.0
H5266 H 0.77292 0.87838 0.25389 0.0
C5267 C 0.81466 0.92788 0.24169 0.0
C5268 C 0.81988 0.88629 0.25351 0.0
C5269 C 0.82296 0.9443 0.24112 0.0
C5270 C 0.78183 0.8225 0.26625 0.0
C5271 C 0.79083 0.83855 0.2652 0.0
C5272 C 0.78602 0.88034 0.25359 0.0
C5273 C 0.82047 0.91718 0.25209 0.0
C5274 C 0.81151 0.89981 0.25283 0.0
C5275 C 0.78524 0.84946 0.25484 0.0
C5276 C 0.79436 0.86678 0.25419 0.0
H5277 H 0.85414 0.94396 0.26899 0.0
H5278 H 0.83951 0.91537 0.27013 0.0
H5279 H 0.78771 0.90683 0.25269 0.0
H5280 H 0.75044 0.82386 0.23898 0.0
H5281 H 0.76617 0.85177 0.23701 0.0
C5282 C 0.67254 0.10339 0.77322 0.0
C5283 C 0.6787 0.08866 0.77541 0.0
C5284 C 0.68308 0.11873 0.77327 0.0
C5285 C 0.7136 0.14829 0.78623 0.0
H5286 H 0.73182 0.15498 0.74443 0.0
C5287 C 0.75343 0.21071 0.77573 0.0
C5288 C 0.74877 0.21768 0.76169 0.0
C5289 C 0.7478 0.19384 0.77763 0.0
C5290 C 0.72689 0.15326 0.75618 0.0
H5291 H 0.70056 0.07858 0.7803 0.0
H5292 H 0.71903 0.10555 0.78009 0.0
H5293 H 0.71566 0.1277 0.74878 0.0
H5294 H 0.73535 0.21224 0.7382 0.0
H5295 H 0.72529 0.18283 0.74163 0.0
H5296 H 0.72424 0.1739 0.79357 0.0
C5297 C 0.70606 0.10505 0.77831 0.0
C5298 C 0.71777 0.13769 0.75866 0.0
C5299 C 0.69552 0.0897 0.77836 0.0
C5300 C 0.73917 0.20722 0.74915 0.0
C5301 C 0.73345 0.19035 0.75109 0.0
C5302 C 0.7228 0.16383 0.7838 0.0
C5303 C 0.69987 0.11952 0.77548 0.0
C5304 C 0.71089 0.13526 0.7736 0.0
C5305 C 0.73733 0.18363 0.76556 0.0
C5306 C 0.72928 0.16657 0.76864 0.0
H5307 H 0.65967 0.10293 0.77071 0.0
H5308 H 0.67818 0.12985 0.77096 0.0
H5309 H 0.70826 0.14656 0.79779 0.0
H5310 H 0.76104 0.21841 0.78551 0.0
H5311 H 0.75125 0.18891 0.78876 0.0
loop_
_geom_bond_atom_site_label_1
_geom_bond_atom_site_label_2
_geom_bond_distance
_geom_bond_site_symmetry_2
_ccdc_geom_bond_type
Li0 N17 1.990 . S
Li0 O60 1.956 1_655 S
Li0 O61 1.970 . S
Li0 O62 1.961 1_655 S
Li1 N25 1.990 . S
Li1 O60 1.970 . S
Li1 O61 1.956 1_455 S
Li1 O63 1.961 . S
Li2 N47 1.990 . S
Li2 O60 1.961 . S
Li2 O62 1.956 . S
Li2 O63 1.970 . S
Li3 N53 1.990 . S
Li3 O61 1.961 1_455 S
Li3 O62 1.970 . S
Li3 O63 1.956 . S
C4 C6 1.348 . S
C4 C7 1.356 . S
C4 O60 1.325 . S
N5 C8 1.314 . S
N5 C9 1.279 . S
C6 C4 1.348 . S
C6 C8 1.353 . S
C6 H64 0.929 . S
C7 C4 1.356 . S
C7 C9 1.358 . S
C7 H65 0.930 . S
C8 N5 1.314 . S
C8 C6 1.353 . S
C8 H66 0.930 . S
C9 N5 1.279 . S
C9 C7 1.358 . S
C9 H67 0.930 . S
C10 C13 1.348 . S
C10 C14 1.356 . S
C10 O61 1.325 . S
C11 N12 1.279 . S
C11 C14 1.358 . S
C11 H68 0.930 . S
N12 C11 1.279 . S
N12 C15 1.314 . S
C13 C10 1.348 . S
C13 C15 1.353 . S
C13 H69 0.929 . S
C14 C10 1.356 . S
C14 C11 1.358 . S
C14 H70 0.930 . S
C15 N12 1.314 . S
C15 C13 1.353 . S
C15 H71 0.930 . S
C16 N17 1.314 . S
C16 C21 1.353 . S
C16 H22 0.930 . S
N17 Li0 1.990 . S
N17 C16 1.314 . S
N17 C19 1.279 . S
C18 C19 1.358 . S
C18 C20 1.356 . S
C18 H72 0.930 . S
C19 N17 1.279 . S
C19 C18 1.358 . S
C19 H23 0.930 . S
C20 C18 1.356 . S
C20 C21 1.348 . S
C21 C16 1.353 . S
C21 C20 1.348 . S
C21 H73 0.929 . S
H22 C16 0.930 . S
H23 C19 0.930 . S
C24 N25 1.314 . S
C24 C26 1.353 . S
C24 H30 0.930 . S
N25 Li1 1.990 . S
N25 C24 1.314 . S
N25 C28 1.279 . S
C26 C24 1.353 . S
C26 C29 1.348 . S
C26 H74 0.929 . S
C27 C28 1.358 . S
C27 C29 1.356 . S
C27 H75 0.930 1_455 S
C28 N25 1.279 . S
C28 C27 1.358 . S
C28 H31 0.930 1_455 S
C29 C26 1.348 . S
C29 C27 1.356 . S
H30 C24 0.930 . S
H31 C28 0.930 1_655 S
C32 C34 1.348 . S
C32 C35 1.356 . S
C32 O62 1.325 . S
N33 C36 1.314 . S
N33 C37 1.279 . S
C34 C32 1.348 . S
C34 C36 1.353 . S
C34 H76 0.929 . S
C35 C32 1.356 . S
C35 C37 1.358 . S
C35 H77 0.930 . S
C36 N33 1.314 . S
C36 C34 1.353 . S
C36 H78 0.930 . S
C37 N33 1.279 . S
C37 C35 1.358 . S
C37 H79 0.943 . S
C38 C39 1.348 . S
C38 C40 1.356 . S
C38 O63 1.325 . S
C39 C38 1.348 . S
C39 C41 1.353 . S
C39 H80 0.929 . S
C40 C38 1.356 . S
C40 C42 1.358 . S
C40 H81 0.930 . S
C41 C39 1.353 . S
C41 N43 1.314 . S
C41 H82 0.930 . S
C42 C40 1.358 . S
C42 N43 1.279 . S
C42 H83 0.930 . S
N43 C41 1.314 . S
N43 C42 1.279 . S
C44 C46 1.353 . S
C44 N47 1.314 . S
C44 H50 0.930 . S
C45 N47 1.279 . S
C45 C48 1.358 . S
C45 H51 0.930 . S
C46 C44 1.353 . S
C46 C49 1.348 . S
C46 H84 0.929 . S
N47 Li2 1.990 . S
N47 C44 1.314 . S
N47 C45 1.279 . S
C48 C45 1.358 . S
C48 C49 1.356 . S
C48 H85 0.930 . S
C49 C46 1.348 . S
C49 C48 1.356 . S
H50 C44 0.930 . S
H51 C45 0.930 . S
C52 N53 1.314 1_655 S
C52 C54 1.353 . S
C52 H58 0.930 . S
N53 Li3 1.990 . S
N53 C52 1.314 1_455 S
N53 C56 1.279 . S
C54 C52 1.353 . S
C54 C57 1.348 1_655 S
C54 H86 0.929 . S
C55 C56 1.358 . S
C55 C57 1.356 . S
C55 H87 0.930 . S
C56 N53 1.279 . S
C56 C55 1.358 . S
C56 H59 0.930 . S
C57 C54 1.348 1_455 S
C57 C55 1.356 . S
H58 C52 0.930 . S
H59 C56 0.930 . S
O60 Li0 1.956 1_455 S
O60 Li1 1.970 . S
O60 Li2 1.961 . S
O60 C4 1.325 . S
O61 Li0 1.970 . S
O61 Li1 1.956 1_655 S
O61 Li3 1.961 1_655 S
O61 C10 1.325 . S
O62 Li0 1.961 1_455 S
O62 Li2 1.956 . S
O62 Li3 1.970 . S
O62 C32 1.325 . S
O63 Li1 1.961 . S
O63 Li2 1.970 . S
O63 Li3 1.956 . S
O63 C38 1.325 . S
H64 C6 0.929 . S
H65 C7 0.930 . S
H66 C8 0.930 . S
H67 C9 0.930 . S
H68 C11 0.930 . S
H69 C13 0.929 . S
H70 C14 0.930 . S
H71 C15 0.930 . S
H72 C18 0.930 . S
H73 C21 0.929 . S
H74 C26 0.929 . S
H75 C27 0.930 1_655 S
H76 C34 0.929 . S
H77 C35 0.930 . S
H78 C36 0.930 . S
H79 C37 0.943 . S
H80 C39 0.929 . S
H81 C40 0.930 . S
H82 C41 0.930 . S
H83 C42 0.930 . S
H84 C46 0.929 . S
H85 C48 0.930 . S
H86 C54 0.929 . S
H87 C55 0.930 . S
Li88 N105 1.990 . S
Li88 O148 1.956 . S
Li88 O149 1.970 . S
Li88 O150 1.961 1_455 S
Li89 N113 1.990 . S
Li89 O148 1.970 . S
Li89 O149 1.956 . S
Li89 O151 1.961 . S
Li90 N135 1.990 . S
Li90 O148 1.961 . S
Li90 O150 1.956 1_455 S
Li90 O151 1.970 . S
Li91 N141 1.990 . S
Li91 O149 1.961 1_655 S
Li91 O150 1.970 . S
Li91 O151 1.956 1_655 S
C92 C94 1.348 . S
C92 C95 1.356 . S
C92 O148 1.325 . S
N93 C96 1.314 . S
N93 C97 1.279 . S
C94 C92 1.348 . S
C94 C96 1.353 . S
C94 H152 0.929 . S
C95 C92 1.356 . S
C95 C97 1.358 . S
C95 H153 0.930 . S
C96 N93 1.314 . S
C96 C94 1.353 . S
C96 H154 0.930 . S
C97 N93 1.279 . S
C97 C95 1.358 . S
C97 H155 0.930 . S
C98 C101 1.348 . S
C98 C102 1.356 . S
C98 O149 1.325 . S
C99 N100 1.279 . S
C99 C102 1.358 . S
C99 H156 0.930 . S
N100 C99 1.279 . S
N100 C103 1.314 . S
C101 C98 1.348 . S
C101 C103 1.353 . S
C101 H157 0.929 . S
C102 C98 1.356 . S
C102 C99 1.358 . S
C102 H158 0.930 . S
C103 N100 1.314 . S
C103 C101 1.353 . S
C103 H159 0.930 . S
C104 N105 1.314 1_655 S
C104 C109 1.353 . S
C104 H110 0.930 . S
N105 Li88 1.990 . S
N105 C104 1.314 1_455 S
N105 C107 1.279 . S
C106 C107 1.358 . S
C106 C108 1.356 . S
C106 H160 0.930 . S
C107 N105 1.279 . S
C107 C106 1.358 . S
C107 H111 0.930 . S
C108 C106 1.356 . S
C108 C109 1.348 1_455 S
C109 C104 1.353 . S
C109 C108 1.348 1_655 S
C109 H161 0.929 . S
H110 C104 0.930 . S
H111 C107 0.930 . S
C112 N113 1.314 . S
C112 C114 1.353 . S
C112 H118 0.930 . S
N113 Li89 1.990 . S
N113 C112 1.314 . S
N113 C116 1.279 . S
C114 C112 1.353 . S
C114 C117 1.348 . S
C114 H162 0.929 . S
C115 C116 1.358 . S
C115 C117 1.356 . S
C115 H163 0.930 . S
C116 N113 1.279 . S
C116 C115 1.358 . S
C116 H119 0.930 . S
C117 C114 1.348 . S
C117 C115 1.356 . S
H118 C112 0.930 . S
H119 C116 0.930 . S
C120 C122 1.348 . S
C120 C123 1.356 . S
C120 O150 1.325 . S
N121 C124 1.314 . S
N121 C125 1.279 . S
C122 C120 1.348 . S
C122 C124 1.353 . S
C122 H164 0.929 . S
C123 C120 1.356 . S
C123 C125 1.358 . S
C123 H165 0.930 . S
C124 N121 1.314 . S
C124 C122 1.353 . S
C124 H166 0.930 . S
C125 N121 1.279 . S
C125 C123 1.358 . S
C125 H167 0.930 . S
C126 C127 1.343 1_455 S
C126 C128 1.356 . S
C126 O151 1.325 . S
C127 C126 1.343 1_655 S
C127 C129 1.352 . S
C127 H168 0.936 . S
C128 C126 1.356 . S
C128 C130 1.358 . S
C128 H169 0.930 . S
C129 C127 1.352 . S
C129 N131 1.314 1_655 S
C129 H170 0.930 . S
C130 C128 1.358 . S
C130 N131 1.279 . S
C130 H171 0.930 . S
N131 C129 1.314 1_455 S
N131 C130 1.279 . S
C132 C134 1.353 . S
C132 N135 1.314 . S
C132 H138 0.930 . S
C133 N135 1.279 1_655 S
C133 C136 1.358 . S
C133 H139 0.930 . S
C134 C132 1.353 . S
C134 C137 1.367 . S
C134 H172 0.929 . S
N135 Li90 1.990 . S
N135 C132 1.314 . S
N135 C133 1.279 1_455 S
C136 C133 1.358 . S
C136 C137 1.334 1_655 S
C136 H173 0.930 . S
C137 C134 1.367 . S
C137 C136 1.334 1_455 S
H138 C132 0.930 . S
H139 C133 0.930 . S
C140 N141 1.314 . S
C140 C142 1.353 . S
C140 H146 0.930 . S
N141 Li91 1.990 . S
N141 C140 1.314 . S
N141 C144 1.279 . S
C142 C140 1.353 . S
C142 C145 1.348 . S
C142 H174 0.929 . S
C143 C144 1.358 . S
C143 C145 1.356 . S
C143 H175 0.930 . S
C144 N141 1.279 . S
C144 C143 1.358 . S
C144 H147 0.930 . S
C145 C142 1.348 . S
C145 C143 1.356 . S
H146 C140 0.930 . S
H147 C144 0.930 . S
O148 Li88 1.956 . S
O148 Li89 1.970 . S
O148 Li90 1.961 . S
O148 C92 1.325 . S
O149 Li88 1.970 . S
O149 Li89 1.956 . S
O149 Li91 1.961 1_455 S
O149 C98 1.325 . S
O150 Li88 1.961 1_655 S
O150 Li90 1.956 1_655 S
O150 Li91 1.970 . S
O150 C120 1.325 . S
O151 Li89 1.961 . S
O151 Li90 1.970 . S
O151 Li91 1.956 1_455 S
O151 C126 1.325 . S
H152 C94 0.929 . S
H153 C95 0.930 . S
H154 C96 0.930 . S
H155 C97 0.930 . S
H156 C99 0.930 . S
H157 C101 0.929 . S
H158 C102 0.930 . S
H159 C103 0.930 . S
H160 C106 0.930 . S
H161 C109 0.929 . S
H162 C114 0.929 . S
H163 C115 0.930 . S
H164 C122 0.929 . S
H165 C123 0.930 . S
H166 C124 0.930 . S
H167 C125 0.930 . S
H168 C127 0.936 . S
H169 C128 0.930 . S
H170 C129 0.930 . S
H171 C130 0.930 . S
H172 C134 0.929 . S
H173 C136 0.930 . S
H174 C142 0.929 . S
H175 C143 0.930 . S
Li176 N193 1.990 . S
Li176 O236 1.956 . S
Li176 O237 1.970 . S
Li176 O238 1.961 . S
Li177 N201 1.990 . S
Li177 O236 1.970 . S
Li177 O237 1.956 . S
Li177 O239 1.961 . S
Li178 N223 1.990 . S
Li178 O236 1.961 . S
Li178 O238 1.956 . S
Li178 O239 1.970 . S
Li179 N229 1.990 . S
Li179 O237 1.961 . S
Li179 O238 1.970 . S
Li179 O239 1.956 . S
C180 C182 1.348 . S
C180 C183 1.356 . S
C180 O236 1.325 . S
N181 C184 1.314 . S
N181 C185 1.279 . S
C182 C180 1.348 . S
C182 C184 1.353 . S
C182 H240 0.929 . S
C183 C180 1.356 . S
C183 C185 1.358 . S
C183 H241 0.930 . S
C184 N181 1.314 . S
C184 C182 1.353 . S
C184 H242 0.930 . S
C185 N181 1.279 . S
C185 C183 1.358 . S
C185 H243 0.930 . S
C186 C189 1.348 . S
C186 C190 1.356 . S
C186 O237 1.325 . S
C187 N188 1.279 . S
C187 C190 1.358 . S
C187 H244 0.930 . S
N188 C187 1.279 . S
N188 C191 1.314 . S
C189 C186 1.348 . S
C189 C191 1.353 . S
C189 H245 0.929 . S
C190 C186 1.356 . S
C190 C187 1.358 . S
C190 H246 0.930 . S
C191 N188 1.314 . S
C191 C189 1.353 . S
C191 H247 0.930 . S
C192 N193 1.314 . S
C192 C197 1.353 . S
C192 H198 0.930 . S
N193 Li176 1.990 . S
N193 C192 1.314 . S
N193 C195 1.279 . S
C194 C195 1.358 . S
C194 C196 1.356 . S
C194 H248 0.930 . S
C195 N193 1.279 . S
C195 C194 1.358 . S
C195 H199 0.930 . S
C196 C194 1.356 . S
C196 C197 1.348 . S
C197 C192 1.353 . S
C197 C196 1.348 . S
C197 H249 0.929 . S
H198 C192 0.930 . S
H199 C195 0.930 . S
C200 N201 1.314 . S
C200 C202 1.353 . S
C200 H206 0.930 . S
N201 Li177 1.990 . S
N201 C200 1.314 . S
N201 C204 1.279 . S
C202 C200 1.353 . S
C202 C205 1.348 . S
C202 H250 0.929 . S
C203 C204 1.358 . S
C203 C205 1.356 . S
C203 H251 0.930 . S
C204 N201 1.279 . S
C204 C203 1.358 . S
C204 H207 0.930 . S
C205 C202 1.348 . S
C205 C203 1.356 . S
H206 C200 0.930 . S
H207 C204 0.930 . S
C208 C210 1.348 . S
C208 C211 1.356 . S
C208 O238 1.325 . S
N209 C212 1.314 . S
N209 C213 1.279 . S
C210 C208 1.348 . S
C210 C212 1.353 . S
C210 H252 0.929 . S
C211 C208 1.356 . S
C211 C213 1.358 . S
C211 H253 0.930 . S
C212 N209 1.314 . S
C212 C210 1.353 . S
C212 H254 0.930 . S
C213 N209 1.279 . S
C213 C211 1.358 . S
C213 H255 0.930 . S
C214 C215 1.348 . S
C214 C216 1.356 . S
C214 O239 1.325 . S
C215 C214 1.348 . S
C215 C217 1.353 . S
C215 H256 0.929 . S
C216 C214 1.356 . S
C216 C218 1.358 . S
C216 H257 0.930 . S
C217 C215 1.353 . S
C217 N219 1.314 . S
C217 H258 0.930 . S
C218 C216 1.358 . S
C218 N219 1.279 . S
C218 H259 0.930 . S
N219 C217 1.314 . S
N219 C218 1.279 . S
C220 C222 1.353 . S
C220 N223 1.314 . S
C220 H226 0.930 . S
C221 N223 1.279 . S
C221 C224 1.358 . S
C221 H227 0.930 . S
C222 C220 1.353 . S
C222 C225 1.348 . S
C222 H260 0.929 . S
N223 Li178 1.990 . S
N223 C220 1.314 . S
N223 C221 1.279 . S
C224 C221 1.358 . S
C224 C225 1.356 . S
C224 H261 0.930 . S
C225 C222 1.348 . S
C225 C224 1.356 . S
H226 C220 0.930 . S
H227 C221 0.930 . S
C228 N229 1.314 . S
C228 C230 1.353 . S
C228 H234 0.930 . S
N229 Li179 1.990 . S
N229 C228 1.314 . S
N229 C232 1.279 . S
C230 C228 1.353 . S
C230 C233 1.348 . S
C230 H262 0.929 . S
C231 C232 1.358 . S
C231 C233 1.356 . S
C231 H263 0.930 . S
C232 N229 1.279 . S
C232 C231 1.358 . S
C232 H235 0.930 . S
C233 C230 1.348 . S
C233 C231 1.356 . S
H234 C228 0.930 . S
H235 C232 0.930 . S
O236 Li176 1.956 . S
O236 Li177 1.970 . S
O236 Li178 1.961 . S
O236 C180 1.325 . S
O237 Li176 1.970 . S
O237 Li177 1.956 . S
O237 Li179 1.961 . S
O237 C186 1.325 . S
O238 Li176 1.961 . S
O238 Li178 1.956 . S
O238 Li179 1.970 . S
O238 C208 1.325 . S
O239 Li177 1.961 . S
O239 Li178 1.970 . S
O239 Li179 1.956 . S
O239 C214 1.325 . S
H240 C182 0.929 . S
H241 C183 0.930 . S
H242 C184 0.930 . S
H243 C185 0.930 . S
H244 C187 0.930 . S
H245 C189 0.929 . S
H246 C190 0.930 . S
H247 C191 0.930 . S
H248 C194 0.930 . S
H249 C197 0.929 . S
H250 C202 0.929 . S
H251 C203 0.930 . S
H252 C210 0.929 . S
H253 C211 0.930 . S
H254 C212 0.930 . S
H255 C213 0.930 . S
H256 C215 0.929 . S
H257 C216 0.930 . S
H258 C217 0.930 . S
H259 C218 0.930 . S
H260 C222 0.929 . S
H261 C224 0.930 . S
H262 C230 0.929 . S
H263 C231 0.930 . S
Li264 N281 1.990 . S
Li264 O324 1.956 . S
Li264 O325 1.970 . S
Li264 O326 1.961 . S
Li265 N289 1.990 . S
Li265 O324 1.970 . S
Li265 O325 1.956 . S
Li265 O327 1.961 . S
Li266 N311 1.990 . S
Li266 O324 1.961 . S
Li266 O326 1.956 . S
Li266 O327 1.970 . S
Li267 N317 1.990 . S
Li267 O325 1.961 . S
Li267 O326 1.970 . S
Li267 O327 1.956 . S
C268 C270 1.348 . S
C268 C271 1.356 . S
C268 O324 1.325 . S
N269 C272 1.314 . S
N269 C273 1.279 . S
C270 C268 1.348 . S
C270 C272 1.353 . S
C270 H328 0.929 . S
C271 C268 1.356 . S
C271 C273 1.358 . S
C271 H329 0.930 . S
C272 N269 1.314 . S
C272 C270 1.353 . S
C272 H330 0.930 . S
C273 N269 1.279 . S
C273 C271 1.358 . S
C273 H331 0.930 . S
C274 C277 1.348 . S
C274 C278 1.356 . S
C274 O325 1.325 . S
C275 N276 1.279 . S
C275 C278 1.358 . S
C275 H332 0.930 . S
N276 C275 1.279 . S
N276 C279 1.314 . S
C277 C274 1.348 . S
C277 C279 1.353 . S
C277 H333 0.929 . S
C278 C274 1.356 . S
C278 C275 1.358 . S
C278 H334 0.930 . S
C279 N276 1.314 . S
C279 C277 1.353 . S
C279 H335 0.930 . S
C280 N281 1.314 . S
C280 C285 1.353 . S
C280 H286 0.930 . S
N281 Li264 1.990 . S
N281 C280 1.314 . S
N281 C283 1.279 . S
C282 C283 1.358 . S
C282 C284 1.356 . S
C282 H336 0.930 . S
C283 N281 1.279 . S
C283 C282 1.358 . S
C283 H287 0.930 . S
C284 C282 1.356 . S
C284 C285 1.348 . S
C285 C280 1.353 . S
C285 C284 1.348 . S
C285 H337 0.929 . S
H286 C280 0.930 . S
H287 C283 0.930 . S
C288 N289 1.314 . S
C288 C290 1.353 . S
C288 H294 0.930 . S
N289 Li265 1.990 . S
N289 C288 1.314 . S
N289 C292 1.279 . S
C290 C288 1.353 . S
C290 C293 1.348 . S
C290 H338 0.929 . S
C291 C292 1.358 . S
C291 C293 1.356 . S
C291 H339 0.930 . S
C292 N289 1.279 . S
C292 C291 1.358 . S
C292 H295 0.930 . S
C293 C290 1.348 . S
C293 C291 1.356 . S
H294 C288 0.930 . S
H295 C292 0.930 . S
C296 C298 1.348 . S
C296 C299 1.356 . S
C296 O326 1.325 . S
N297 C300 1.314 . S
N297 C301 1.279 . S
C298 C296 1.348 . S
C298 C300 1.353 . S
C298 H340 0.929 . S
C299 C296 1.356 . S
C299 C301 1.358 . S
C299 H341 0.930 . S
C300 N297 1.314 . S
C300 C298 1.353 . S
C300 H342 0.930 . S
C301 N297 1.279 . S
C301 C299 1.358 . S
C301 H343 0.930 . S
C302 C303 1.348 . S
C302 C304 1.356 . S
C302 O327 1.325 . S
C303 C302 1.348 . S
C303 C305 1.353 . S
C303 H344 0.929 . S
C304 C302 1.356 . S
C304 C306 1.358 . S
C304 H345 0.930 . S
C305 C303 1.353 . S
C305 N307 1.314 . S
C305 H346 0.930 . S
C306 C304 1.358 . S
C306 N307 1.279 . S
C306 H347 0.930 . S
N307 C305 1.314 . S
N307 C306 1.279 . S
C308 C310 1.353 . S
C308 N311 1.314 . S
C308 H314 0.930 . S
C309 N311 1.279 . S
C309 C312 1.358 . S
C309 H315 0.930 . S
C310 C308 1.353 . S
C310 C313 1.348 . S
C310 H348 0.929 . S
N311 Li266 1.990 . S
N311 C308 1.314 . S
N311 C309 1.279 . S
C312 C309 1.358 . S
C312 C313 1.356 . S
C312 H349 0.930 . S
C313 C310 1.348 . S
C313 C312 1.356 . S
H314 C308 0.930 . S
H315 C309 0.930 . S
C316 N317 1.314 . S
C316 C318 1.353 . S
C316 H322 0.930 . S
N317 Li267 1.990 . S
N317 C316 1.314 . S
N317 C320 1.279 . S
C318 C316 1.353 . S
C318 C321 1.348 . S
C318 H350 0.929 . S
C319 C320 1.358 . S
C319 C321 1.356 . S
C319 H351 0.930 . S
C320 N317 1.279 . S
C320 C319 1.358 . S
C320 H323 0.930 . S
C321 C318 1.348 . S
C321 C319 1.356 . S
H322 C316 0.930 . S
H323 C320 0.930 . S
O324 Li264 1.956 . S
O324 Li265 1.970 . S
O324 Li266 1.961 . S
O324 C268 1.325 . S
O325 Li264 1.970 . S
O325 Li265 1.956 . S
O325 Li267 1.961 . S
O325 C274 1.325 . S
O326 Li264 1.961 . S
O326 Li266 1.956 . S
O326 Li267 1.970 . S
O326 C296 1.325 . S
O327 Li265 1.961 . S
O327 Li266 1.970 . S
O327 Li267 1.956 . S
O327 C302 1.325 . S
H328 C270 0.929 . S
H329 C271 0.930 . S
H330 C272 0.930 . S
H331 C273 0.930 . S
H332 C275 0.930 . S
H333 C277 0.929 . S
H334 C278 0.930 . S
H335 C279 0.930 . S
H336 C282 0.930 . S
H337 C285 0.929 . S
H338 C290 0.929 . S
H339 C291 0.930 . S
H340 C298 0.929 . S
H341 C299 0.930 . S
H342 C300 0.930 . S
H343 C301 0.930 . S
H344 C303 0.929 . S
H345 C304 0.930 . S
H346 C305 0.930 . S
H347 C306 0.930 . S
H348 C310 0.929 . S
H349 C312 0.930 . S
H350 C318 0.929 . S
H351 C319 0.930 . S
Li352 N369 1.990 . S
Li352 O412 1.956 . S
Li352 O413 1.970 . S
Li352 O414 1.961 1_455 S
Li353 N377 1.990 . S
Li353 O412 1.970 . S
Li353 O413 1.956 . S
Li353 O415 1.961 . S
Li354 N399 1.990 . S
Li354 O412 1.961 . S
Li354 O414 1.956 1_455 S
Li354 O415 1.970 . S
Li355 N405 1.940 1_455 S
Li355 O413 1.998 . S
Li355 O414 1.968 1_455 S
Li355 O415 2.004 . S
C356 C358 1.348 . S
C356 C359 1.356 . S
C356 O412 1.325 . S
N357 C360 1.314 . S
N357 C361 1.279 . S
C358 C356 1.348 . S
C358 C360 1.353 . S
C358 H416 0.929 . S
C359 C356 1.356 . S
C359 C361 1.358 . S
C359 H417 0.930 . S
C360 N357 1.314 . S
C360 C358 1.353 . S
C360 H418 0.930 . S
C361 N357 1.279 . S
C361 C359 1.358 . S
C361 H419 0.930 . S
C362 C365 1.348 . S
C362 C366 1.356 . S
C362 O413 1.325 . S
C363 N364 1.279 . S
C363 C366 1.358 . S
C363 H420 0.930 . S
N364 C363 1.279 . S
N364 C367 1.314 . S
C365 C362 1.348 . S
C365 C367 1.353 . S
C365 H421 0.929 . S
C366 C362 1.356 . S
C366 C363 1.358 . S
C366 H422 0.930 . S
C367 N364 1.314 . S
C367 C365 1.353 . S
C367 H423 0.930 . S
C368 N369 1.314 . S
C368 C373 1.353 . S
C368 H374 0.930 1_455 S
N369 Li352 1.990 . S
N369 C368 1.314 . S
N369 C371 1.279 . S
C370 C371 1.358 . S
C370 C372 1.356 . S
C370 H424 0.930 . S
C371 N369 1.279 . S
C371 C370 1.358 . S
C371 H375 0.930 . S
C372 C370 1.356 . S
C372 C373 1.348 . S
C373 C368 1.353 . S
C373 C372 1.348 . S
C373 H425 0.929 1_455 S
H374 C368 0.930 1_655 S
H375 C371 0.930 . S
C376 N377 1.314 . S
C376 C378 1.353 . S
C376 H382 0.930 . S
N377 Li353 1.990 . S
N377 C376 1.314 . S
N377 C380 1.279 . S
C378 C376 1.353 . S
C378 C381 1.348 . S
C378 H426 0.929 . S
C379 C380 1.358 . S
C379 C381 1.356 . S
C379 H427 0.930 . S
C380 N377 1.279 . S
C380 C379 1.358 . S
C380 H383 0.930 . S
C381 C378 1.348 . S
C381 C379 1.356 . S
H382 C376 0.930 . S
H383 C380 0.930 . S
C384 C386 1.348 . S
C384 C387 1.356 . S
C384 O414 1.325 . S
N385 C388 1.314 . S
N385 C389 1.279 . S
C386 C384 1.348 . S
C386 C388 1.353 . S
C386 H428 0.929 . S
C387 C384 1.356 . S
C387 C389 1.358 . S
C387 H429 0.930 . S
C388 N385 1.314 . S
C388 C386 1.353 . S
C388 H430 0.930 . S
C389 N385 1.279 . S
C389 C387 1.358 . S
C389 H431 0.930 . S
C390 C391 1.348 . S
C390 C392 1.356 . S
C390 O415 1.325 . S
C391 C390 1.348 . S
C391 C393 1.353 . S
C391 H432 0.929 . S
C392 C390 1.356 . S
C392 C394 1.358 . S
C392 H433 0.930 . S
C393 C391 1.353 . S
C393 N395 1.314 . S
C393 H434 0.930 . S
C394 C392 1.358 . S
C394 N395 1.279 . S
C394 H435 0.930 . S
N395 C393 1.314 . S
N395 C394 1.279 . S
C396 C398 1.353 . S
C396 N399 1.314 . S
C396 H402 0.930 . S
C397 N399 1.279 1_655 S
C397 C400 1.358 . S
C397 H403 0.930 . S
C398 C396 1.353 . S
C398 C401 1.348 . S
C398 H436 0.929 . S
N399 Li354 1.990 . S
N399 C396 1.314 . S
N399 C397 1.279 1_455 S
C400 C397 1.358 . S
C400 C401 1.356 1_655 S
C400 H437 0.930 . S
C401 C398 1.348 . S
C401 C400 1.356 1_455 S
H402 C396 0.930 . S
H403 C397 0.930 . S
C404 N405 1.314 . S
C404 C406 1.353 . S
C404 H410 0.930 . S
N405 Li355 1.940 1_655 S
N405 C404 1.314 . S
N405 C408 1.279 . S
C406 C404 1.353 . S
C406 C409 1.348 . S
C406 H438 0.929 . S
C407 C408 1.358 . S
C407 C409 1.356 . S
C407 H439 0.930 . S
C408 N405 1.279 . S
C408 C407 1.358 . S
C408 H411 0.930 . S
C409 C406 1.348 . S
C409 C407 1.356 . S
H410 C404 0.930 . S
H411 C408 0.930 . S
O412 Li352 1.956 . S
O412 Li353 1.970 . S
O412 Li354 1.961 . S
O412 C356 1.325 . S
O413 Li352 1.970 . S
O413 Li353 1.956 . S
O413 Li355 1.998 . S
O413 C362 1.325 . S
O414 Li352 1.961 1_655 S
O414 Li354 1.956 1_655 S
O414 Li355 1.968 1_655 S
O414 C384 1.325 . S
O415 Li353 1.961 . S
O415 Li354 1.970 . S
O415 Li355 2.004 . S
O415 C390 1.325 . S
H416 C358 0.929 . S
H417 C359 0.930 . S
H418 C360 0.930 . S
H419 C361 0.930 . S
H420 C363 0.930 . S
H421 C365 0.929 . S
H422 C366 0.930 . S
H423 C367 0.930 . S
H424 C370 0.930 . S
H425 C373 0.929 1_655 S
H426 C378 0.929 . S
H427 C379 0.930 . S
H428 C386 0.929 . S
H429 C387 0.930 . S
H430 C388 0.930 . S
H431 C389 0.930 . S
H432 C391 0.929 . S
H433 C392 0.930 . S
H434 C393 0.930 . S
H435 C394 0.930 . S
H436 C398 0.929 . S
H437 C400 0.930 . S
H438 C406 0.929 . S
H439 C407 0.930 . S
Li440 N457 1.990 . S
Li440 O500 1.956 . S
Li440 O501 1.970 . S
Li440 O502 1.961 . S
Li441 N465 1.990 . S
Li441 O500 1.970 . S
Li441 O501 1.956 . S
Li441 O503 1.961 . S
Li442 N487 1.990 . S
Li442 O500 1.961 . S
Li442 O502 1.956 . S
Li442 O503 1.970 . S
Li443 N493 1.990 . S
Li443 O501 1.961 . S
Li443 O502 1.970 . S
Li443 O503 1.956 . S
C444 C446 1.348 . S
C444 C447 1.356 . S
C444 O500 1.325 . S
N445 C448 1.314 . S
N445 C449 1.279 . S
C446 C444 1.348 . S
C446 C448 1.353 . S
C446 H504 0.929 . S
C447 C444 1.356 . S
C447 C449 1.358 . S
C447 H505 0.930 . S
C448 N445 1.314 . S
C448 C446 1.353 . S
C448 H506 0.930 . S
C449 N445 1.279 . S
C449 C447 1.358 . S
C449 H507 0.930 . S
C450 C453 1.348 . S
C450 C454 1.356 . S
C450 O501 1.325 . S
C451 N452 1.279 . S
C451 C454 1.358 . S
C451 H508 0.930 . S
N452 C451 1.279 . S
N452 C455 1.314 . S
C453 C450 1.348 . S
C453 C455 1.353 . S
C453 H509 0.929 . S
C454 C450 1.356 . S
C454 C451 1.358 . S
C454 H510 0.930 . S
C455 N452 1.314 . S
C455 C453 1.353 . S
C455 H511 0.930 . S
C456 N457 1.314 . S
C456 C461 1.353 . S
C456 H462 0.930 . S
N457 Li440 1.990 . S
N457 C456 1.314 . S
N457 C459 1.279 . S
C458 C459 1.358 . S
C458 C460 1.356 . S
C458 H512 0.930 . S
C459 N457 1.279 . S
C459 C458 1.358 . S
C459 H463 0.930 . S
C460 C458 1.356 . S
C460 C461 1.348 . S
C461 C456 1.353 . S
C461 C460 1.348 . S
C461 H513 0.929 . S
H462 C456 0.930 . S
H463 C459 0.930 . S
C464 N465 1.314 . S
C464 C466 1.353 . S
C464 H470 0.930 . S
N465 Li441 1.990 . S
N465 C464 1.314 . S
N465 C468 1.279 . S
C466 C464 1.353 . S
C466 C469 1.348 . S
C466 H514 0.929 . S
C467 C468 1.358 . S
C467 C469 1.356 . S
C467 H515 0.930 . S
C468 N465 1.279 . S
C468 C467 1.358 . S
C468 H471 0.930 . S
C469 C466 1.348 . S
C469 C467 1.356 . S
H470 C464 0.930 . S
H471 C468 0.930 . S
C472 C474 1.348 . S
C472 C475 1.356 . S
C472 O502 1.325 . S
N473 C476 1.314 . S
N473 C477 1.279 . S
C474 C472 1.348 . S
C474 C476 1.353 . S
C474 H516 0.929 . S
C475 C472 1.356 . S
C475 C477 1.358 . S
C475 H517 0.930 . S
C476 N473 1.314 . S
C476 C474 1.353 . S
C476 H518 0.930 . S
C477 N473 1.279 . S
C477 C475 1.358 . S
C477 H519 0.930 . S
C478 C479 1.348 . S
C478 C480 1.356 . S
C478 O503 1.325 . S
C479 C478 1.348 . S
C479 C481 1.353 . S
C479 H520 0.929 . S
C480 C478 1.356 . S
C480 C482 1.358 . S
C480 H521 0.930 . S
C481 C479 1.353 . S
C481 N483 1.314 . S
C481 H522 0.930 . S
C482 C480 1.358 . S
C482 N483 1.279 . S
C482 H523 0.930 . S
N483 C481 1.314 . S
N483 C482 1.279 . S
C484 C486 1.353 . S
C484 N487 1.314 . S
C484 H490 0.930 . S
C485 N487 1.279 . S
C485 C488 1.358 . S
C485 H491 0.930 . S
C486 C484 1.353 . S
C486 C489 1.348 . S
C486 H524 0.929 . S
N487 Li442 1.990 . S
N487 C484 1.314 . S
N487 C485 1.279 . S
C488 C485 1.358 . S
C488 C489 1.356 . S
C488 H525 0.930 . S
C489 C486 1.348 . S
C489 C488 1.356 . S
H490 C484 0.930 . S
H491 C485 0.930 . S
C492 N493 1.314 . S
C492 C494 1.353 . S
C492 H498 0.930 . S
N493 Li443 1.990 . S
N493 C492 1.314 . S
N493 C496 1.279 . S
C494 C492 1.353 . S
C494 C497 1.348 . S
C494 H526 0.929 . S
C495 C496 1.358 . S
C495 C497 1.356 . S
C495 H527 0.930 . S
C496 N493 1.279 . S
C496 C495 1.358 . S
C496 H499 0.930 . S
C497 C494 1.348 . S
C497 C495 1.356 . S
H498 C492 0.930 . S
H499 C496 0.930 . S
O500 Li440 1.956 . S
O500 Li441 1.970 . S
O500 Li442 1.961 . S
O500 C444 1.325 . S
O501 Li440 1.970 . S
O501 Li441 1.956 . S
O501 Li443 1.961 . S
O501 C450 1.325 . S
O502 Li440 1.961 . S
O502 Li442 1.956 . S
O502 Li443 1.970 . S
O502 C472 1.325 . S
O503 Li441 1.961 . S
O503 Li442 1.970 . S
O503 Li443 1.956 . S
O503 C478 1.325 . S
H504 C446 0.929 . S
H505 C447 0.930 . S
H506 C448 0.930 . S
H507 C449 0.930 . S
H508 C451 0.930 . S
H509 C453 0.929 . S
H510 C454 0.930 . S
H511 C455 0.930 . S
H512 C458 0.930 . S
H513 C461 0.929 . S
H514 C466 0.929 . S
H515 C467 0.930 . S
H516 C474 0.929 . S
H517 C475 0.930 . S
H518 C476 0.930 . S
H519 C477 0.930 . S
H520 C479 0.929 . S
H521 C480 0.930 . S
H522 C481 0.930 . S
H523 C482 0.930 . S
H524 C486 0.929 . S
H525 C488 0.930 . S
H526 C494 0.929 . S
H527 C495 0.930 . S
Li528 N545 1.990 . S
Li528 O588 1.956 . S
Li528 O589 1.970 . S
Li528 O590 1.961 . S
Li529 N553 1.990 . S
Li529 O588 1.970 . S
Li529 O589 1.956 . S
Li529 O591 1.961 . S
Li530 N575 1.990 . S
Li530 O588 1.961 . S
Li530 O590 1.956 . S
Li530 O591 1.970 . S
Li531 N581 1.990 . S
Li531 O589 1.961 . S
Li531 O590 1.970 . S
Li531 O591 1.956 . S
C532 C534 1.348 . S
C532 C535 1.356 . S
C532 O588 1.325 . S
N533 C536 1.314 . S
N533 C537 1.279 . S
C534 C532 1.348 . S
C534 C536 1.353 . S
C534 H592 0.929 . S
C535 C532 1.356 . S
C535 C537 1.358 . S
C535 H593 0.930 . S
C536 N533 1.314 . S
C536 C534 1.353 . S
C536 H594 0.930 . S
C537 N533 1.279 . S
C537 C535 1.358 . S
C537 H595 0.930 . S
C538 C541 1.348 . S
C538 C542 1.356 . S
C538 O589 1.325 . S
C539 N540 1.279 . S
C539 C542 1.358 . S
C539 H596 0.930 . S
N540 C539 1.279 . S
N540 C543 1.314 . S
C541 C538 1.348 . S
C541 C543 1.353 . S
C541 H597 0.929 . S
C542 C538 1.356 . S
C542 C539 1.358 . S
C542 H598 0.930 . S
C543 N540 1.314 . S
C543 C541 1.353 . S
C543 H599 0.930 . S
C544 N545 1.314 . S
C544 C549 1.353 . S
C544 H550 0.930 . S
N545 Li528 1.990 . S
N545 C544 1.314 . S
N545 C547 1.279 . S
C546 C547 1.358 . S
C546 C548 1.356 . S
C546 H600 0.930 . S
C547 N545 1.279 . S
C547 C546 1.358 . S
C547 H551 0.930 . S
C548 C546 1.356 . S
C548 C549 1.348 . S
C549 C544 1.353 . S
C549 C548 1.348 . S
C549 H601 0.929 . S
H550 C544 0.930 . S
H551 C547 0.930 . S
C552 N553 1.314 . S
C552 C554 1.353 . S
C552 H558 0.930 . S
N553 Li529 1.990 . S
N553 C552 1.314 . S
N553 C556 1.279 . S
C554 C552 1.353 . S
C554 C557 1.348 . S
C554 H602 0.929 . S
C555 C556 1.358 . S
C555 C557 1.356 . S
C555 H603 0.930 . S
C556 N553 1.279 . S
C556 C555 1.358 . S
C556 H559 0.930 . S
C557 C554 1.348 . S
C557 C555 1.356 . S
H558 C552 0.930 . S
H559 C556 0.930 . S
C560 C562 1.348 . S
C560 C563 1.356 . S
C560 O590 1.325 . S
N561 C564 1.314 . S
N561 C565 1.279 . S
C562 C560 1.348 . S
C562 C564 1.353 . S
C562 H604 0.929 . S
C563 C560 1.356 . S
C563 C565 1.358 . S
C563 H605 0.930 . S
C564 N561 1.314 . S
C564 C562 1.353 . S
C564 H606 0.930 . S
C565 N561 1.279 . S
C565 C563 1.358 . S
C565 H607 0.930 . S
C566 C567 1.348 . S
C566 C568 1.356 . S
C566 O591 1.325 . S
C567 C566 1.348 . S
C567 C569 1.353 . S
C567 H608 0.929 . S
C568 C566 1.356 . S
C568 C570 1.358 . S
C568 H609 0.930 . S
C569 C567 1.353 . S
C569 N571 1.314 . S
C569 H610 0.930 . S
C570 C568 1.358 . S
C570 N571 1.279 . S
C570 H611 0.930 . S
N571 C569 1.314 . S
N571 C570 1.279 . S
C572 C574 1.353 . S
C572 N575 1.314 . S
C572 H578 0.930 . S
C573 N575 1.279 . S
C573 C576 1.358 . S
C573 H579 0.930 . S
C574 C572 1.353 . S
C574 C577 1.348 . S
C574 H612 0.929 . S
N575 Li530 1.990 . S
N575 C572 1.314 . S
N575 C573 1.279 . S
C576 C573 1.358 . S
C576 C577 1.356 . S
C576 H613 0.930 . S
C577 C574 1.348 . S
C577 C576 1.356 . S
H578 C572 0.930 . S
H579 C573 0.930 . S
C580 N581 1.314 . S
C580 C582 1.353 . S
C580 H586 0.930 . S
N581 Li531 1.990 . S
N581 C580 1.314 . S
N581 C584 1.279 . S
C582 C580 1.353 . S
C582 C585 1.348 . S
C582 H614 0.929 . S
C583 C584 1.358 . S
C583 C585 1.356 . S
C583 H615 0.930 . S
C584 N581 1.279 . S
C584 C583 1.358 . S
C584 H587 0.930 . S
C585 C582 1.348 . S
C585 C583 1.356 . S
H586 C580 0.930 . S
H587 C584 0.930 . S
O588 Li528 1.956 . S
O588 Li529 1.970 . S
O588 Li530 1.961 . S
O588 C532 1.325 . S
O589 Li528 1.970 . S
O589 Li529 1.956 . S
O589 Li531 1.961 . S
O589 C538 1.325 . S
O590 Li528 1.961 . S
O590 Li530 1.956 . S
O590 Li531 1.970 . S
O590 C560 1.325 . S
O591 Li529 1.961 . S
O591 Li530 1.970 . S
O591 Li531 1.956 . S
O591 C566 1.325 . S
H592 C534 0.929 . S
H593 C535 0.930 . S
H594 C536 0.930 . S
H595 C537 0.930 . S
H596 C539 0.930 . S
H597 C541 0.929 . S
H598 C542 0.930 . S
H599 C543 0.930 . S
H600 C546 0.930 . S
H601 C549 0.929 . S
H602 C554 0.929 . S
H603 C555 0.930 . S
H604 C562 0.929 . S
H605 C563 0.930 . S
H606 C564 0.930 . S
H607 C565 0.930 . S
H608 C567 0.929 . S
H609 C568 0.930 . S
H610 C569 0.930 . S
H611 C570 0.930 . S
H612 C574 0.929 . S
H613 C576 0.930 . S
H614 C582 0.929 . S
H615 C583 0.930 . S
Li616 N633 1.990 . S
Li616 O676 1.956 1_455 S
Li616 O677 1.970 . S
Li616 O678 1.961 . S
Li617 N641 1.990 . S
Li617 O676 1.970 . S
Li617 O677 1.956 1_655 S
Li617 O679 1.932 1_655 S
Li618 N663 1.990 . S
Li618 O676 1.961 1_455 S
Li618 O678 1.956 . S
Li618 O679 1.971 . S
Li619 N669 1.990 . S
Li619 O677 1.961 . S
Li619 O678 1.970 . S
Li619 O679 1.982 . S
C620 C622 1.348 . S
C620 C623 1.356 . S
C620 O676 1.325 . S
N621 C624 1.314 . S
N621 C625 1.279 . S
C622 C620 1.348 . S
C622 C624 1.353 . S
C622 H680 0.929 . S
C623 C620 1.356 . S
C623 C625 1.358 . S
C623 H681 0.930 . S
C624 N621 1.314 . S
C624 C622 1.353 . S
C624 H682 0.930 . S
C625 N621 1.279 . S
C625 C623 1.358 . S
C625 H683 0.930 . S
C626 C629 1.348 . S
C626 C630 1.356 . S
C626 O677 1.325 . S
C627 N628 1.279 . S
C627 C630 1.358 . S
C627 H684 0.930 . S
N628 C627 1.279 . S
N628 C631 1.314 . S
C629 C626 1.348 . S
C629 C631 1.353 . S
C629 H685 0.911 1_455 S
C630 C626 1.356 . S
C630 C627 1.358 . S
C630 H686 0.930 . S
C631 N628 1.314 . S
C631 C629 1.353 . S
C631 H687 0.952 . S
C632 N633 1.314 . S
C632 C637 1.353 . S
C632 H638 0.930 . S
N633 Li616 1.990 . S
N633 C632 1.314 . S
N633 C635 1.279 1_455 S
C634 C635 1.358 . S
C634 C636 1.356 1_655 S
C634 H688 0.930 . S
C635 N633 1.279 1_655 S
C635 C634 1.358 . S
C635 H639 0.930 . S
C636 C634 1.356 1_455 S
C636 C637 1.348 . S
C637 C632 1.353 . S
C637 C636 1.348 . S
C637 H689 0.929 . S
H638 C632 0.930 . S
H639 C635 0.930 . S
C640 N641 1.314 . S
C640 C642 1.353 . S
C640 H646 0.930 . S
N641 Li617 1.990 . S
N641 C640 1.314 . S
N641 C644 1.279 . S
C642 C640 1.353 . S
C642 C645 1.348 . S
C642 H690 0.929 . S
C643 C644 1.358 . S
C643 C645 1.356 . S
C643 H691 0.930 . S
C644 N641 1.279 . S
C644 C643 1.358 . S
C644 H647 0.930 . S
C645 C642 1.348 . S
C645 C643 1.356 . S
H646 C640 0.930 . S
H647 C644 0.930 . S
C648 C650 1.348 . S
C648 C651 1.356 . S
C648 O678 1.325 . S
N649 C652 1.314 . S
N649 C653 1.279 . S
C650 C648 1.348 . S
C650 C652 1.353 . S
C650 H692 0.929 . S
C651 C648 1.356 . S
C651 C653 1.358 . S
C651 H693 0.930 . S
C652 N649 1.314 . S
C652 C650 1.353 . S
C652 H694 0.930 . S
C653 N649 1.279 . S
C653 C651 1.358 . S
C653 H695 0.930 . S
C654 C655 1.337 1_655 S
C654 C656 1.361 . S
C654 O679 1.335 1_655 S
C655 C654 1.337 1_455 S
C655 C657 1.353 . S
C655 H696 0.929 . S
C656 C654 1.361 . S
C656 C658 1.358 . S
C656 H697 0.930 . S
C657 C655 1.353 . S
C657 N659 1.314 1_455 S
C657 H698 0.930 . S
C658 C656 1.358 . S
C658 N659 1.279 . S
C658 H699 0.930 . S
N659 C657 1.314 1_655 S
N659 C658 1.279 . S
C660 C662 1.353 . S
C660 N663 1.314 1_655 S
C660 H666 0.930 . S
C661 N663 1.279 . S
C661 C664 1.358 . S
C661 H667 0.930 . S
C662 C660 1.353 . S
C662 C665 1.409 . S
C662 H700 0.929 . S
N663 Li618 1.990 . S
N663 C660 1.314 1_455 S
N663 C661 1.279 . S
C664 C661 1.358 . S
C664 C665 1.302 1_455 S
C664 H701 0.930 . S
C665 C662 1.409 . S
C665 C664 1.302 1_655 S
H666 C660 0.930 . S
H667 C661 0.930 . S
C668 N669 1.314 . S
C668 C670 1.353 . S
C668 H674 0.930 . S
N669 Li619 1.990 . S
N669 C668 1.314 . S
N669 C672 1.279 . S
C670 C668 1.353 . S
C670 C673 1.348 . S
C670 H702 0.929 . S
C671 C672 1.358 . S
C671 C673 1.356 . S
C671 H703 0.930 . S
C672 N669 1.279 . S
C672 C671 1.358 . S
C672 H675 0.930 . S
C673 C670 1.348 . S
C673 C671 1.356 . S
H674 C668 0.930 . S
H675 C672 0.930 . S
O676 Li616 1.956 1_655 S
O676 Li617 1.970 . S
O676 Li618 1.961 1_655 S
O676 C620 1.325 . S
O677 Li616 1.970 . S
O677 Li617 1.956 1_455 S
O677 Li619 1.961 . S
O677 C626 1.325 . S
O678 Li616 1.961 . S
O678 Li618 1.956 . S
O678 Li619 1.970 . S
O678 C648 1.325 . S
O679 Li617 1.932 1_455 S
O679 Li618 1.971 . S
O679 Li619 1.982 . S
O679 C654 1.335 1_455 S
H680 C622 0.929 . S
H681 C623 0.930 . S
H682 C624 0.930 . S
H683 C625 0.930 . S
H684 C627 0.930 . S
H685 C629 0.911 1_655 S
H686 C630 0.930 . S
H687 C631 0.952 . S
H688 C634 0.930 . S
H689 C637 0.929 . S
H690 C642 0.929 . S
H691 C643 0.930 . S
H692 C650 0.929 . S
H693 C651 0.930 . S
H694 C652 0.930 . S
H695 C653 0.930 . S
H696 C655 0.929 . S
H697 C656 0.930 . S
H698 C657 0.930 . S
H699 C658 0.930 . S
H700 C662 0.929 . S
H701 C664 0.930 . S
H702 C670 0.929 . S
H703 C671 0.930 . S
Li704 N721 1.990 . S
Li704 O764 1.956 . S
Li704 O765 1.970 . S
Li704 O766 1.961 . S
Li705 N729 1.990 1_545 S
Li705 O764 1.970 . S
Li705 O765 1.956 . S
Li705 O767 1.961 . S
Li706 N751 1.990 . S
Li706 O764 1.961 . S
Li706 O766 1.956 . S
Li706 O767 1.970 . S
Li707 N757 1.990 . S
Li707 O765 1.961 . S
Li707 O766 1.970 . S
Li707 O767 1.956 . S
C708 C710 1.348 . S
C708 C711 1.356 . S
C708 O764 1.325 1_565 S
N709 C712 1.314 . S
N709 C713 1.279 . S
C710 C708 1.348 . S
C710 C712 1.353 . S
C710 H768 0.929 . S
C711 C708 1.356 . S
C711 C713 1.358 . S
C711 H769 0.930 1_565 S
C712 N709 1.314 . S
C712 C710 1.353 . S
C712 H770 0.930 . S
C713 N709 1.279 . S
C713 C711 1.358 . S
C713 H771 0.930 . S
C714 C717 1.348 . S
C714 C718 1.356 . S
C714 O765 1.325 . S
C715 N716 1.279 . S
C715 C718 1.358 . S
C715 H772 0.930 . S
N716 C715 1.279 . S
N716 C719 1.314 . S
C717 C714 1.348 . S
C717 C719 1.353 . S
C717 H773 0.929 . S
C718 C714 1.356 . S
C718 C715 1.358 . S
C718 H774 0.930 . S
C719 N716 1.314 . S
C719 C717 1.353 . S
C719 H775 0.930 . S
C720 N721 1.314 . S
C720 C725 1.353 . S
C720 H726 0.930 . S
N721 Li704 1.990 . S
N721 C720 1.314 . S
N721 C723 1.279 . S
C722 C723 1.358 . S
C722 C724 1.356 . S
C722 H776 0.930 . S
C723 N721 1.279 . S
C723 C722 1.358 . S
C723 H727 0.930 . S
C724 C722 1.356 . S
C724 C725 1.348 . S
C725 C720 1.353 . S
C725 C724 1.348 . S
C725 H777 0.929 . S
H726 C720 0.930 . S
H727 C723 0.930 . S
C728 N729 1.314 . S
C728 C730 1.353 . S
C728 H734 0.930 . S
N729 Li705 1.990 1_565 S
N729 C728 1.314 . S
N729 C732 1.279 . S
C730 C728 1.353 . S
C730 C733 1.348 . S
C730 H778 0.929 . S
C731 C732 1.358 . S
C731 C733 1.356 . S
C731 H779 0.930 . S
C732 N729 1.279 . S
C732 C731 1.358 . S
C732 H735 0.930 . S
C733 C730 1.348 . S
C733 C731 1.356 . S
H734 C728 0.930 . S
H735 C732 0.930 . S
C736 C738 1.348 . S
C736 C739 1.356 . S
C736 O766 1.325 . S
N737 C740 1.314 . S
N737 C741 1.279 . S
C738 C736 1.348 . S
C738 C740 1.353 . S
C738 H780 0.929 . S
C739 C736 1.356 . S
C739 C741 1.358 . S
C739 H781 0.930 . S
C740 N737 1.314 . S
C740 C738 1.353 . S
C740 H782 0.930 . S
C741 N737 1.279 . S
C741 C739 1.358 . S
C741 H783 0.930 . S
C742 C743 1.348 . S
C742 C744 1.356 . S
C742 O767 1.325 . S
C743 C742 1.348 . S
C743 C745 1.353 . S
C743 H784 0.929 . S
C744 C742 1.356 . S
C744 C746 1.358 . S
C744 H785 0.930 . S
C745 C743 1.353 . S
C745 N747 1.314 . S
C745 H786 0.930 . S
C746 C744 1.358 . S
C746 N747 1.279 . S
C746 H787 0.930 . S
N747 C745 1.314 . S
N747 C746 1.279 . S
C748 C750 1.353 . S
C748 N751 1.314 . S
C748 H754 0.930 . S
C749 N751 1.279 . S
C749 C752 1.358 . S
C749 H755 0.930 . S
C750 C748 1.353 . S
C750 C753 1.348 . S
C750 H788 0.929 . S
N751 Li706 1.990 . S
N751 C748 1.314 . S
N751 C749 1.279 . S
C752 C749 1.358 . S
C752 C753 1.356 . S
C752 H789 0.930 . S
C753 C750 1.348 . S
C753 C752 1.356 . S
H754 C748 0.930 . S
H755 C749 0.930 . S
C756 N757 1.314 . S
C756 C758 1.353 . S
C756 H762 0.930 . S
N757 Li707 1.990 . S
N757 C756 1.314 . S
N757 C760 1.279 . S
C758 C756 1.353 . S
C758 C761 1.348 . S
C758 H790 0.929 . S
C759 C760 1.358 . S
C759 C761 1.356 . S
C759 H791 0.930 . S
C760 N757 1.279 . S
C760 C759 1.358 . S
C760 H763 0.930 . S
C761 C758 1.348 . S
C761 C759 1.356 . S
H762 C756 0.930 . S
H763 C760 0.930 . S
O764 Li704 1.956 . S
O764 Li705 1.970 . S
O764 Li706 1.961 . S
O764 C708 1.325 1_545 S
O765 Li704 1.970 . S
O765 Li705 1.956 . S
O765 Li707 1.961 . S
O765 C714 1.325 . S
O766 Li704 1.961 . S
O766 Li706 1.956 . S
O766 Li707 1.970 . S
O766 C736 1.325 . S
O767 Li705 1.961 . S
O767 Li706 1.970 . S
O767 Li707 1.956 . S
O767 C742 1.325 . S
H768 C710 0.929 . S
H769 C711 0.930 1_545 S
H770 C712 0.930 . S
H771 C713 0.930 . S
H772 C715 0.930 . S
H773 C717 0.929 . S
H774 C718 0.930 . S
H775 C719 0.930 . S
H776 C722 0.930 . S
H777 C725 0.929 . S
H778 C730 0.929 . S
H779 C731 0.930 . S
H780 C738 0.929 . S
H781 C739 0.930 . S
H782 C740 0.930 . S
H783 C741 0.930 . S
H784 C743 0.929 . S
H785 C744 0.930 . S
H786 C745 0.930 . S
H787 C746 0.930 . S
H788 C750 0.929 . S
H789 C752 0.930 . S
H790 C758 0.929 . S
H791 C759 0.930 . S
Li792 N809 1.990 . S
Li792 O852 1.956 . S
Li792 O853 1.970 . S
Li792 O854 1.961 . S
Li793 N817 1.990 . S
Li793 O852 1.970 . S
Li793 O853 1.956 . S
Li793 O855 1.961 . S
Li794 N839 1.990 . S
Li794 O852 1.961 . S
Li794 O854 1.956 . S
Li794 O855 1.970 . S
Li795 N845 1.990 . S
Li795 O853 1.961 . S
Li795 O854 1.970 . S
Li795 O855 1.956 . S
C796 C798 1.348 . S
C796 C799 1.356 . S
C796 O852 1.325 . S
N797 C800 1.314 . S
N797 C801 1.279 . S
C798 C796 1.348 . S
C798 C800 1.353 . S
C798 H856 0.929 . S
C799 C796 1.356 . S
C799 C801 1.358 . S
C799 H857 0.930 . S
C800 N797 1.314 . S
C800 C798 1.353 . S
C800 H858 0.930 . S
C801 N797 1.279 . S
C801 C799 1.358 . S
C801 H859 0.930 . S
C802 C805 1.348 . S
C802 C806 1.356 . S
C802 O853 1.325 . S
C803 N804 1.279 . S
C803 C806 1.358 . S
C803 H860 0.930 . S
N804 C803 1.279 . S
N804 C807 1.314 . S
C805 C802 1.348 . S
C805 C807 1.353 . S
C805 H861 0.929 . S
C806 C802 1.356 . S
C806 C803 1.358 . S
C806 H862 0.930 . S
C807 N804 1.314 . S
C807 C805 1.353 . S
C807 H863 0.930 . S
C808 N809 1.314 . S
C808 C813 1.353 . S
C808 H814 0.930 . S
N809 Li792 1.990 . S
N809 C808 1.314 . S
N809 C811 1.279 . S
C810 C811 1.358 . S
C810 C812 1.356 . S
C810 H864 0.930 . S
C811 N809 1.279 . S
C811 C810 1.358 . S
C811 H815 0.930 . S
C812 C810 1.356 . S
C812 C813 1.348 . S
C813 C808 1.353 . S
C813 C812 1.348 . S
C813 H865 0.929 . S
H814 C808 0.930 . S
H815 C811 0.930 . S
C816 N817 1.314 . S
C816 C818 1.353 . S
C816 H822 0.930 . S
N817 Li793 1.990 . S
N817 C816 1.314 . S
N817 C820 1.279 . S
C818 C816 1.353 . S
C818 C821 1.348 . S
C818 H866 0.929 . S
C819 C820 1.358 . S
C819 C821 1.356 . S
C819 H867 0.930 . S
C820 N817 1.279 . S
C820 C819 1.358 . S
C820 H823 0.930 . S
C821 C818 1.348 . S
C821 C819 1.356 . S
H822 C816 0.930 . S
H823 C820 0.930 . S
C824 C826 1.348 . S
C824 C827 1.356 . S
C824 O854 1.325 . S
N825 C828 1.314 . S
N825 C829 1.279 . S
C826 C824 1.348 . S
C826 C828 1.353 . S
C826 H868 0.929 . S
C827 C824 1.356 . S
C827 C829 1.358 . S
C827 H869 0.930 . S
C828 N825 1.314 . S
C828 C826 1.353 . S
C828 H870 0.930 . S
C829 N825 1.279 . S
C829 C827 1.358 . S
C829 H871 0.930 . S
C830 C831 1.348 . S
C830 C832 1.356 . S
C830 O855 1.325 . S
C831 C830 1.348 . S
C831 C833 1.353 . S
C831 H872 0.929 . S
C832 C830 1.356 . S
C832 C834 1.358 . S
C832 H873 0.930 . S
C833 C831 1.353 . S
C833 N835 1.314 . S
C833 H874 0.930 . S
C834 C832 1.358 . S
C834 N835 1.279 . S
C834 H875 0.930 . S
N835 C833 1.314 . S
N835 C834 1.279 . S
C836 C838 1.353 . S
C836 N839 1.314 . S
C836 H842 0.930 . S
C837 N839 1.279 . S
C837 C840 1.358 . S
C837 H843 0.930 . S
C838 C836 1.353 . S
C838 C841 1.348 . S
C838 H876 0.929 . S
N839 Li794 1.990 . S
N839 C836 1.314 . S
N839 C837 1.279 . S
C840 C837 1.358 . S
C840 C841 1.356 . S
C840 H877 0.930 . S
C841 C838 1.348 . S
C841 C840 1.356 . S
H842 C836 0.930 . S
H843 C837 0.930 . S
C844 N845 1.314 . S
C844 C846 1.353 . S
C844 H850 0.930 . S
N845 Li795 1.990 . S
N845 C844 1.314 . S
N845 C848 1.279 . S
C846 C844 1.353 . S
C846 C849 1.348 . S
C846 H878 0.929 . S
C847 C848 1.358 . S
C847 C849 1.356 . S
C847 H879 0.930 . S
C848 N845 1.279 . S
C848 C847 1.358 . S
C848 H851 0.930 . S
C849 C846 1.348 . S
C849 C847 1.356 . S
H850 C844 0.930 . S
H851 C848 0.930 . S
O852 Li792 1.956 . S
O852 Li793 1.970 . S
O852 Li794 1.961 . S
O852 C796 1.325 . S
O853 Li792 1.970 . S
O853 Li793 1.956 . S
O853 Li795 1.961 . S
O853 C802 1.325 . S
O854 Li792 1.961 . S
O854 Li794 1.956 . S
O854 Li795 1.970 . S
O854 C824 1.325 . S
O855 Li793 1.961 . S
O855 Li794 1.970 . S
O855 Li795 1.956 . S
O855 C830 1.325 . S
H856 C798 0.929 . S
H857 C799 0.930 . S
H858 C800 0.930 . S
H859 C801 0.930 . S
H860 C803 0.930 . S
H861 C805 0.929 . S
H862 C806 0.930 . S
H863 C807 0.930 . S
H864 C810 0.930 . S
H865 C813 0.929 . S
H866 C818 0.929 . S
H867 C819 0.930 . S
H868 C826 0.929 . S
H869 C827 0.930 . S
H870 C828 0.930 . S
H871 C829 0.930 . S
H872 C831 0.929 . S
H873 C832 0.930 . S
H874 C833 0.930 . S
H875 C834 0.930 . S
H876 C838 0.929 . S
H877 C840 0.930 . S
H878 C846 0.929 . S
H879 C847 0.930 . S
Li880 N897 1.990 . S
Li880 O940 1.956 . S
Li880 O941 1.970 . S
Li880 O942 1.961 . S
Li881 N905 1.991 . S
Li881 O940 1.970 1_565 S
Li881 O941 1.961 1_565 S
Li881 O943 1.956 . S
Li882 N927 1.990 . S
Li882 O940 1.961 1_565 S
Li882 O942 1.956 1_565 S
Li882 O943 1.970 . S
Li883 N933 1.990 . S
Li883 O941 1.961 1_565 S
Li883 O942 1.970 1_565 S
Li883 O943 1.956 . S
C884 C886 1.348 . S
C884 C887 1.356 . S
C884 O940 1.325 . S
N885 C888 1.314 . S
N885 C889 1.279 . S
C886 C884 1.348 . S
C886 C888 1.353 . S
C886 H944 0.929 . S
C887 C884 1.356 . S
C887 C889 1.358 . S
C887 H945 0.937 . S
C888 N885 1.314 . S
C888 C886 1.353 . S
C888 H946 0.930 . S
C889 N885 1.279 . S
C889 C887 1.358 . S
C889 H947 0.930 . S
C890 C893 1.348 . S
C890 C894 1.356 . S
C890 O941 1.325 . S
C891 N892 1.279 . S
C891 C894 1.358 . S
C891 H948 0.930 . S
N892 C891 1.279 . S
N892 C895 1.314 . S
C893 C890 1.348 . S
C893 C895 1.353 . S
C893 H949 0.929 . S
C894 C890 1.356 . S
C894 C891 1.358 . S
C894 H950 0.930 . S
C895 N892 1.314 . S
C895 C893 1.353 . S
C895 H951 0.930 . S
C896 N897 1.314 . S
C896 C901 1.353 . S
C896 H902 0.930 . S
N897 Li880 1.990 . S
N897 C896 1.314 . S
N897 C899 1.279 . S
C898 C899 1.358 . S
C898 C900 1.356 . S
C898 H952 0.930 . S
C899 N897 1.279 . S
C899 C898 1.358 . S
C899 H903 0.930 . S
C900 C898 1.356 . S
C900 C901 1.348 . S
C901 C896 1.353 . S
C901 C900 1.348 . S
C901 H953 0.929 . S
H902 C896 0.930 . S
H903 C899 0.930 . S
C904 N905 1.343 . S
C904 C906 1.353 . S
C904 H910 0.930 . S
N905 Li881 1.991 . S
N905 C904 1.343 . S
N905 C908 1.251 1_565 S
C906 C904 1.353 . S
C906 C909 1.348 . S
C906 H954 0.929 . S
C907 C908 1.358 . S
C907 C909 1.356 1_545 S
C907 H955 0.930 . S
C908 N905 1.251 1_545 S
C908 C907 1.358 . S
C908 H911 0.930 . S
C909 C906 1.348 . S
C909 C907 1.356 1_565 S
H910 C904 0.930 . S
H911 C908 0.930 . S
C912 C914 1.348 1_545 S
C912 C915 1.356 . S
C912 O942 1.325 . S
N913 C916 1.306 1_545 S
N913 C917 1.293 . S
C914 C912 1.348 1_565 S
C914 C916 1.353 . S
C914 H956 0.929 . S
C915 C912 1.356 . S
C915 C917 1.358 . S
C915 H957 0.930 . S
C916 N913 1.306 1_565 S
C916 C914 1.353 . S
C916 H958 0.930 . S
C917 N913 1.293 . S
C917 C915 1.358 . S
C917 H959 0.930 . S
C918 C919 1.348 . S
C918 C920 1.356 . S
C918 O943 1.325 . S
C919 C918 1.348 . S
C919 C921 1.353 . S
C919 H960 0.929 . S
C920 C918 1.356 . S
C920 C922 1.358 . S
C920 H961 0.930 . S
C921 C919 1.353 . S
C921 N923 1.314 . S
C921 H962 0.930 . S
C922 C920 1.358 . S
C922 N923 1.279 . S
C922 H963 0.930 . S
N923 C921 1.314 . S
N923 C922 1.279 . S
C924 C926 1.353 . S
C924 N927 1.314 . S
C924 H930 0.930 . S
C925 N927 1.279 . S
C925 C928 1.358 . S
C925 H931 0.930 . S
C926 C924 1.353 . S
C926 C929 1.348 . S
C926 H964 0.929 . S
N927 Li882 1.990 . S
N927 C924 1.314 . S
N927 C925 1.279 . S
C928 C925 1.358 . S
C928 C929 1.356 . S
C928 H965 0.930 . S
C929 C926 1.348 . S
C929 C928 1.356 . S
H930 C924 0.930 . S
H931 C925 0.930 . S
C932 N933 1.314 1_545 S
C932 C934 1.353 . S
C932 H938 0.930 . S
N933 Li883 1.990 . S
N933 C932 1.314 1_565 S
N933 C936 1.279 . S
C934 C932 1.353 . S
C934 C937 1.348 1_545 S
C934 H966 0.929 . S
C935 C936 1.358 . S
C935 C937 1.356 . S
C935 H967 0.930 . S
C936 N933 1.279 . S
C936 C935 1.358 . S
C936 H939 0.930 . S
C937 C934 1.348 1_565 S
C937 C935 1.356 . S
H938 C932 0.930 . S
H939 C936 0.930 . S
O940 Li880 1.956 . S
O940 Li881 1.970 1_545 S
O940 Li882 1.961 1_545 S
O940 C884 1.325 . S
O941 Li880 1.970 . S
O941 Li881 1.961 1_545 S
O941 Li883 1.961 1_545 S
O941 C890 1.325 . S
O942 Li880 1.961 . S
O942 Li882 1.956 1_545 S
O942 Li883 1.970 1_545 S
O942 C912 1.325 . S
O943 Li881 1.956 . S
O943 Li882 1.970 . S
O943 Li883 1.956 . S
O943 C918 1.325 . S
H944 C886 0.929 . S
H945 C887 0.937 . S
H946 C888 0.930 . S
H947 C889 0.930 . S
H948 C891 0.930 . S
H949 C893 0.929 . S
H950 C894 0.930 . S
H951 C895 0.930 . S
H952 C898 0.930 . S
H953 C901 0.929 . S
H954 C906 0.929 . S
H955 C907 0.930 . S
H956 C914 0.929 . S
H957 C915 0.930 . S
H958 C916 0.930 . S
H959 C917 0.930 . S
H960 C919 0.929 . S
H961 C920 0.930 . S
H962 C921 0.930 . S
H963 C922 0.930 . S
H964 C926 0.929 . S
H965 C928 0.930 . S
H966 C934 0.929 . S
H967 C935 0.930 . S
Li968 N985 1.990 . S
Li968 O1028 1.956 . S
Li968 O1029 1.970 . S
Li968 O1030 1.961 . S
Li969 N993 1.990 . S
Li969 O1028 1.970 . S
Li969 O1029 1.956 . S
Li969 O1031 1.961 . S
Li970 N1015 1.990 . S
Li970 O1028 1.961 . S
Li970 O1030 1.956 . S
Li970 O1031 1.970 . S
Li971 N1021 1.990 1_554 S
Li971 O1029 1.961 . S
Li971 O1030 1.970 . S
Li971 O1031 1.956 . S
C972 C974 1.348 . S
C972 C975 1.356 . S
C972 O1028 1.325 . S
N973 C976 1.314 . S
N973 C977 1.279 . S
C974 C972 1.348 . S
C974 C976 1.353 . S
C974 H1032 0.929 . S
C975 C972 1.356 . S
C975 C977 1.358 . S
C975 H1033 0.930 . S
C976 N973 1.314 . S
C976 C974 1.353 . S
C976 H1034 0.930 . S
C977 N973 1.279 . S
C977 C975 1.358 . S
C977 H1035 0.930 . S
C978 C981 1.348 . S
C978 C982 1.356 . S
C978 O1029 1.325 . S
C979 N980 1.279 . S
C979 C982 1.358 . S
C979 H1036 0.930 . S
N980 C979 1.279 . S
N980 C983 1.314 . S
C981 C978 1.348 . S
C981 C983 1.353 . S
C981 H1037 0.929 . S
C982 C978 1.356 . S
C982 C979 1.358 . S
C982 H1038 0.930 . S
C983 N980 1.314 . S
C983 C981 1.353 . S
C983 H1039 0.930 . S
C984 N985 1.314 . S
C984 C989 1.353 . S
C984 H990 0.930 . S
N985 Li968 1.990 . S
N985 C984 1.314 . S
N985 C987 1.279 . S
C986 C987 1.358 . S
C986 C988 1.356 . S
C986 H1040 0.930 . S
C987 N985 1.279 . S
C987 C986 1.358 . S
C987 H991 0.930 . S
C988 C986 1.356 . S
C988 C989 1.348 . S
C989 C984 1.353 . S
C989 C988 1.348 . S
C989 H1041 0.929 . S
H990 C984 0.930 . S
H991 C987 0.930 . S
C992 N993 1.314 . S
C992 C994 1.353 . S
C992 H998 0.930 . S
N993 Li969 1.990 . S
N993 C992 1.314 . S
N993 C996 1.279 . S
C994 C992 1.353 . S
C994 C997 1.348 . S
C994 H1042 0.929 . S
C995 C996 1.358 . S
C995 C997 1.356 . S
C995 H1043 0.930 . S
C996 N993 1.279 . S
C996 C995 1.358 . S
C996 H999 0.930 . S
C997 C994 1.348 . S
C997 C995 1.356 . S
H998 C992 0.930 . S
H999 C996 0.930 . S
C1000 C1002 1.337 1_554 S
C1000 C1003 1.356 . S
C1000 O1030 1.334 . S
N1001 C1004 1.314 . S
N1001 C1005 1.279 . S
C1002 C1000 1.337 1_556 S
C1002 C1004 1.353 . S
C1002 H1044 0.929 . S
C1003 C1000 1.356 . S
C1003 C1005 1.358 1_554 S
C1003 H1045 0.930 . S
C1004 N1001 1.314 . S
C1004 C1002 1.353 . S
C1004 H1046 0.930 . S
C1005 N1001 1.279 . S
C1005 C1003 1.358 1_556 S
C1005 H1047 0.930 . S
C1006 C1007 1.348 . S
C1006 C1008 1.356 . S
C1006 O1031 1.325 . S
C1007 C1006 1.348 . S
C1007 C1009 1.353 . S
C1007 H1048 0.929 . S
C1008 C1006 1.356 . S
C1008 C1010 1.358 . S
C1008 H1049 0.930 . S
C1009 C1007 1.353 . S
C1009 N1011 1.314 . S
C1009 H1050 0.930 . S
C1010 C1008 1.358 . S
C1010 N1011 1.279 . S
C1010 H1051 0.930 . S
N1011 C1009 1.314 . S
N1011 C1010 1.279 . S
C1012 C1014 1.353 . S
C1012 N1015 1.314 . S
C1012 H1018 0.930 . S
C1013 N1015 1.279 . S
C1013 C1016 1.358 . S
C1013 H1019 0.930 . S
C1014 C1012 1.353 . S
C1014 C1017 1.348 . S
C1014 H1052 0.929 . S
N1015 Li970 1.990 . S
N1015 C1012 1.314 . S
N1015 C1013 1.279 . S
C1016 C1013 1.358 . S
C1016 C1017 1.356 . S
C1016 H1053 0.930 . S
C1017 C1014 1.348 . S
C1017 C1016 1.356 . S
H1018 C1012 0.930 . S
H1019 C1013 0.930 . S
C1020 N1021 1.314 . S
C1020 C1022 1.353 . S
C1020 H1026 0.930 . S
N1021 Li971 1.990 1_556 S
N1021 C1020 1.314 . S
N1021 C1024 1.279 . S
C1022 C1020 1.353 . S
C1022 C1025 1.348 . S
C1022 H1054 0.929 . S
C1023 C1024 1.358 . S
C1023 C1025 1.356 . S
C1023 H1055 0.930 . S
C1024 N1021 1.279 . S
C1024 C1023 1.358 . S
C1024 H1027 0.930 . S
C1025 C1022 1.348 . S
C1025 C1023 1.356 . S
H1026 C1020 0.930 . S
H1027 C1024 0.930 . S
O1028 Li968 1.956 . S
O1028 Li969 1.970 . S
O1028 Li970 1.961 . S
O1028 C972 1.325 . S
O1029 Li968 1.970 . S
O1029 Li969 1.956 . S
O1029 Li971 1.961 . S
O1029 C978 1.325 . S
O1030 Li968 1.961 . S
O1030 Li970 1.956 . S
O1030 Li971 1.970 . S
O1030 C1000 1.334 . S
O1031 Li969 1.961 . S
O1031 Li970 1.970 . S
O1031 Li971 1.956 . S
O1031 C1006 1.325 . S
H1032 C974 0.929 . S
H1033 C975 0.930 . S
H1034 C976 0.930 . S
H1035 C977 0.930 . S
H1036 C979 0.930 . S
H1037 C981 0.929 . S
H1038 C982 0.930 . S
H1039 C983 0.930 . S
H1040 C986 0.930 . S
H1041 C989 0.929 . S
H1042 C994 0.929 . S
H1043 C995 0.930 . S
H1044 C1002 0.929 . S
H1045 C1003 0.930 . S
H1046 C1004 0.930 . S
H1047 C1005 0.930 . S
H1048 C1007 0.929 . S
H1049 C1008 0.930 . S
H1050 C1009 0.930 . S
H1051 C1010 0.930 . S
H1052 C1014 0.929 . S
H1053 C1016 0.930 . S
H1054 C1022 0.929 . S
H1055 C1023 0.930 . S
Li1056 N1073 1.990 . S
Li1056 O1116 1.956 . S
Li1056 O1117 1.970 . S
Li1056 O1118 1.961 1_554 S
Li1057 N1081 1.990 . S
Li1057 O1116 1.970 . S
Li1057 O1117 1.956 . S
Li1057 O1119 1.961 . S
Li1058 N1103 1.990 . S
Li1058 O1116 1.961 . S
Li1058 O1118 1.956 1_554 S
Li1058 O1119 1.970 . S
Li1059 N1109 1.990 . S
Li1059 O1117 1.961 1_556 S
Li1059 O1118 1.970 . S
Li1059 O1119 1.956 1_556 S
C1060 C1062 1.348 . S
C1060 C1063 1.356 . S
C1060 O1116 1.325 . S
N1061 C1064 1.314 . S
N1061 C1065 1.279 . S
C1062 C1060 1.348 . S
C1062 C1064 1.353 . S
C1062 H1120 0.929 . S
C1063 C1060 1.356 . S
C1063 C1065 1.358 . S
C1063 H1121 0.930 . S
C1064 N1061 1.314 . S
C1064 C1062 1.353 . S
C1064 H1122 0.930 . S
C1065 N1061 1.279 . S
C1065 C1063 1.358 . S
C1065 H1123 0.930 . S
C1066 C1069 1.348 . S
C1066 C1070 1.356 . S
C1066 O1117 1.325 . S
C1067 N1068 1.279 . S
C1067 C1070 1.358 . S
C1067 H1124 0.930 . S
N1068 C1067 1.279 . S
N1068 C1071 1.314 . S
C1069 C1066 1.348 . S
C1069 C1071 1.353 . S
C1069 H1125 0.929 . S
C1070 C1066 1.356 . S
C1070 C1067 1.358 . S
C1070 H1126 0.930 . S
C1071 N1068 1.314 . S
C1071 C1069 1.353 . S
C1071 H1127 0.930 . S
C1072 N1073 1.314 . S
C1072 C1077 1.353 . S
C1072 H1078 0.930 1_554 S
N1073 Li1056 1.990 . S
N1073 C1072 1.314 . S
N1073 C1075 1.279 . S
C1074 C1075 1.358 . S
C1074 C1076 1.356 . S
C1074 H1128 0.930 . S
C1075 N1073 1.279 . S
C1075 C1074 1.358 . S
C1075 H1079 0.930 . S
C1076 C1074 1.356 . S
C1076 C1077 1.348 . S
C1077 C1072 1.353 . S
C1077 C1076 1.348 . S
C1077 H1129 0.929 1_554 S
H1078 C1072 0.930 1_556 S
H1079 C1075 0.930 . S
C1080 N1081 1.314 . S
C1080 C1082 1.353 . S
C1080 H1086 0.930 . S
N1081 Li1057 1.990 . S
N1081 C1080 1.314 . S
N1081 C1084 1.279 . S
C1082 C1080 1.353 . S
C1082 C1085 1.348 . S
C1082 H1130 0.929 . S
C1083 C1084 1.358 . S
C1083 C1085 1.356 . S
C1083 H1131 0.930 . S
C1084 N1081 1.279 . S
C1084 C1083 1.358 . S
C1084 H1087 0.930 . S
C1085 C1082 1.348 . S
C1085 C1083 1.356 . S
H1086 C1080 0.930 . S
H1087 C1084 0.930 . S
C1088 C1090 1.348 . S
C1088 C1091 1.356 . S
C1088 O1118 1.325 . S
N1089 C1092 1.314 . S
N1089 C1093 1.279 . S
C1090 C1088 1.348 . S
C1090 C1092 1.353 . S
C1090 H1132 0.929 . S
C1091 C1088 1.356 . S
C1091 C1093 1.358 . S
C1091 H1133 0.930 . S
C1092 N1089 1.314 . S
C1092 C1090 1.353 . S
C1092 H1134 0.930 . S
C1093 N1089 1.279 . S
C1093 C1091 1.358 . S
C1093 H1135 0.930 . S
C1094 C1095 1.348 . S
C1094 C1096 1.356 . S
C1094 O1119 1.325 . S
C1095 C1094 1.348 . S
C1095 C1097 1.353 . S
C1095 H1136 0.929 . S
C1096 C1094 1.356 . S
C1096 C1098 1.358 . S
C1096 H1137 0.930 . S
C1097 C1095 1.353 . S
C1097 N1099 1.314 . S
C1097 H1138 0.930 . S
C1098 C1096 1.358 . S
C1098 N1099 1.279 . S
C1098 H1139 0.930 . S
N1099 C1097 1.314 . S
N1099 C1098 1.279 . S
C1100 C1102 1.353 . S
C1100 N1103 1.314 . S
C1100 H1106 0.930 . S
C1101 N1103 1.279 . S
C1101 C1104 1.358 . S
C1101 H1107 0.930 1_554 S
C1102 C1100 1.353 . S
C1102 C1105 1.348 . S
C1102 H1140 0.929 . S
N1103 Li1058 1.990 . S
N1103 C1100 1.314 . S
N1103 C1101 1.279 . S
C1104 C1101 1.358 . S
C1104 C1105 1.356 . S
C1104 H1141 0.930 1_554 S
C1105 C1102 1.348 . S
C1105 C1104 1.356 . S
H1106 C1100 0.930 . S
H1107 C1101 0.930 1_556 S
C1108 N1109 1.314 . S
C1108 C1110 1.353 . S
C1108 H1114 0.930 . S
N1109 Li1059 1.990 . S
N1109 C1108 1.314 . S
N1109 C1112 1.279 . S
C1110 C1108 1.353 . S
C1110 C1113 1.348 . S
C1110 H1142 0.929 . S
C1111 C1112 1.358 . S
C1111 C1113 1.356 . S
C1111 H1143 0.930 . S
C1112 N1109 1.279 . S
C1112 C1111 1.358 . S
C1112 H1115 0.930 . S
C1113 C1110 1.348 . S
C1113 C1111 1.356 . S
H1114 C1108 0.930 . S
H1115 C1112 0.930 . S
O1116 Li1056 1.956 . S
O1116 Li1057 1.970 . S
O1116 Li1058 1.961 . S
O1116 C1060 1.325 . S
O1117 Li1056 1.970 . S
O1117 Li1057 1.956 . S
O1117 Li1059 1.961 1_554 S
O1117 C1066 1.325 . S
O1118 Li1056 1.961 1_556 S
O1118 Li1058 1.956 1_556 S
O1118 Li1059 1.970 . S
O1118 C1088 1.325 . S
O1119 Li1057 1.961 . S
O1119 Li1058 1.970 . S
O1119 Li1059 1.956 1_554 S
O1119 C1094 1.325 . S
H1120 C1062 0.929 . S
H1121 C1063 0.930 . S
H1122 C1064 0.930 . S
H1123 C1065 0.930 . S
H1124 C1067 0.930 . S
H1125 C1069 0.929 . S
H1126 C1070 0.930 . S
H1127 C1071 0.930 . S
H1128 C1074 0.930 . S
H1129 C1077 0.929 1_556 S
H1130 C1082 0.929 . S
H1131 C1083 0.930 . S
H1132 C1090 0.929 . S
H1133 C1091 0.930 . S
H1134 C1092 0.930 . S
H1135 C1093 0.930 . S
H1136 C1095 0.929 . S
H1137 C1096 0.930 . S
H1138 C1097 0.930 . S
H1139 C1098 0.930 . S
H1140 C1102 0.929 . S
H1141 C1104 0.930 1_556 S
H1142 C1110 0.929 . S
H1143 C1111 0.930 . S
Li1144 N1161 1.990 . S
Li1144 O1204 2.001 . S
Li1144 O1205 1.970 . S
Li1144 O1206 1.998 . S
Li1145 N1169 1.990 . S
Li1145 O1204 1.975 . S
Li1145 O1205 1.966 . S
Li1145 O1207 1.951 1_554 S
Li1146 N1191 1.990 . S
Li1146 O1204 1.922 1_556 S
Li1146 O1206 1.915 1_556 S
Li1146 O1207 1.970 . S
Li1147 N1197 1.990 . S
Li1147 O1205 1.961 1_556 S
Li1147 O1206 1.971 1_556 S
Li1147 O1207 1.956 . S
C1148 C1150 1.348 . S
C1148 C1151 1.360 . S
C1148 O1204 1.325 . S
N1149 C1152 1.314 . S
N1149 C1153 1.279 . S
C1150 C1148 1.348 . S
C1150 C1152 1.353 . S
C1150 H1208 0.929 . S
C1151 C1148 1.360 . S
C1151 C1153 1.358 . S
C1151 H1209 0.926 1_554 S
C1152 N1149 1.314 . S
C1152 C1150 1.353 . S
C1152 H1210 0.930 . S
C1153 N1149 1.279 . S
C1153 C1151 1.358 . S
C1153 H1211 0.926 1_554 S
C1154 C1157 1.348 . S
C1154 C1158 1.356 . S
C1154 O1205 1.325 . S
C1155 N1156 1.279 . S
C1155 C1158 1.358 . S
C1155 H1212 0.930 . S
N1156 C1155 1.279 . S
N1156 C1159 1.314 . S
C1157 C1154 1.348 . S
C1157 C1159 1.353 . S
C1157 H1213 0.929 . S
C1158 C1154 1.356 . S
C1158 C1155 1.358 . S
C1158 H1214 0.930 . S
C1159 N1156 1.314 . S
C1159 C1157 1.353 . S
C1159 H1215 0.930 . S
C1160 N1161 1.314 . S
C1160 C1165 1.353 . S
C1160 H1166 0.930 . S
N1161 Li1144 1.990 . S
N1161 C1160 1.314 . S
N1161 C1163 1.279 . S
C1162 C1163 1.358 . S
C1162 C1164 1.356 . S
C1162 H1216 0.930 . S
C1163 N1161 1.279 . S
C1163 C1162 1.358 . S
C1163 H1167 0.930 . S
C1164 C1162 1.356 . S
C1164 C1165 1.348 . S
C1165 C1160 1.353 . S
C1165 C1164 1.348 . S
C1165 H1217 0.929 . S
H1166 C1160 0.930 . S
H1167 C1163 0.930 . S
C1168 N1169 1.313 1_556 S
C1168 C1170 1.353 . S
C1168 H1174 0.930 . S
N1169 Li1145 1.990 . S
N1169 C1168 1.313 1_554 S
N1169 C1172 1.281 . S
C1170 C1168 1.353 . S
C1170 C1173 1.401 . S
C1170 H1218 0.929 . S
C1171 C1172 1.358 . S
C1171 C1173 1.304 1_554 S
C1171 H1219 0.930 . S
C1172 N1169 1.281 . S
C1172 C1171 1.358 . S
C1172 H1175 0.930 . S
C1173 C1170 1.401 . S
C1173 C1171 1.304 1_556 S
H1174 C1168 0.930 . S
H1175 C1172 0.930 . S
C1176 C1178 1.337 1_554 S
C1176 C1179 1.363 . S
C1176 O1206 1.324 . S
N1177 C1180 1.314 . S
N1177 C1181 1.280 1_556 S
C1178 C1176 1.337 1_556 S
C1178 C1180 1.353 . S
C1178 H1220 0.929 . S
C1179 C1176 1.363 . S
C1179 C1181 1.358 . S
C1179 H1221 0.930 . S
C1180 N1177 1.314 . S
C1180 C1178 1.353 . S
C1180 H1222 0.930 . S
C1181 N1177 1.280 1_554 S
C1181 C1179 1.358 . S
C1181 H1223 0.930 . S
C1182 C1183 1.348 . S
C1182 C1184 1.356 . S
C1182 O1207 1.325 . S
C1183 C1182 1.348 . S
C1183 C1185 1.353 . S
C1183 H1224 0.929 . S
C1184 C1182 1.356 . S
C1184 C1186 1.358 . S
C1184 H1225 0.930 . S
C1185 C1183 1.353 . S
C1185 N1187 1.314 . S
C1185 H1226 0.930 . S
C1186 C1184 1.358 . S
C1186 N1187 1.279 . S
C1186 H1227 0.930 . S
N1187 C1185 1.314 . S
N1187 C1186 1.279 . S
C1188 C1190 1.353 . S
C1188 N1191 1.314 . S
C1188 H1194 0.930 . S
C1189 N1191 1.279 . S
C1189 C1192 1.358 . S
C1189 H1195 0.930 . S
C1190 C1188 1.353 . S
C1190 C1193 1.348 . S
C1190 H1228 0.929 . S
N1191 Li1146 1.990 . S
N1191 C1188 1.314 . S
N1191 C1189 1.279 . S
C1192 C1189 1.358 . S
C1192 C1193 1.356 . S
C1192 H1229 0.930 . S
C1193 C1190 1.348 . S
C1193 C1192 1.356 . S
H1194 C1188 0.930 . S
H1195 C1189 0.930 . S
C1196 N1197 1.314 1_554 S
C1196 C1198 1.353 . S
C1196 H1202 0.930 . S
N1197 Li1147 1.990 . S
N1197 C1196 1.314 1_556 S
N1197 C1200 1.279 . S
C1198 C1196 1.353 . S
C1198 C1201 1.348 1_554 S
C1198 H1230 0.929 . S
C1199 C1200 1.358 . S
C1199 C1201 1.356 . S
C1199 H1231 0.930 . S
C1200 N1197 1.279 . S
C1200 C1199 1.358 . S
C1200 H1203 0.930 . S
C1201 C1198 1.348 1_556 S
C1201 C1199 1.356 . S
H1202 C1196 0.930 . S
H1203 C1200 0.930 . S
O1204 Li1144 2.001 . S
O1204 Li1145 1.975 . S
O1204 Li1146 1.922 1_554 S
O1204 C1148 1.325 . S
O1205 Li1144 1.970 . S
O1205 Li1145 1.966 . S
O1205 Li1147 1.961 1_554 S
O1205 C1154 1.325 . S
O1206 Li1144 1.998 . S
O1206 Li1146 1.915 1_554 S
O1206 Li1147 1.971 1_554 S
O1206 C1176 1.324 . S
O1207 Li1145 1.951 1_556 S
O1207 Li1146 1.970 . S
O1207 Li1147 1.956 . S
O1207 C1182 1.325 . S
H1208 C1150 0.929 . S
H1209 C1151 0.926 1_556 S
H1210 C1152 0.930 . S
H1211 C1153 0.926 1_556 S
H1212 C1155 0.930 . S
H1213 C1157 0.929 . S
H1214 C1158 0.930 . S
H1215 C1159 0.930 . S
H1216 C1162 0.930 . S
H1217 C1165 0.929 . S
H1218 C1170 0.929 . S
H1219 C1171 0.930 . S
H1220 C1178 0.929 . S
H1221 C1179 0.930 . S
H1222 C1180 0.930 . S
H1223 C1181 0.930 . S
H1224 C1183 0.929 . S
H1225 C1184 0.930 . S
H1226 C1185 0.930 . S
H1227 C1186 0.930 . S
H1228 C1190 0.929 . S
H1229 C1192 0.930 . S
H1230 C1198 0.929 . S
H1231 C1199 0.930 . S
Li1232 N1249 1.990 . S
Li1232 O1292 1.956 . S
Li1232 O1293 1.970 . S
Li1232 O1294 1.961 . S
Li1233 N1257 1.990 . S
Li1233 O1292 1.970 . S
Li1233 O1293 1.956 . S
Li1233 O1295 1.961 . S
Li1234 N1279 1.990 . S
Li1234 O1292 1.961 . S
Li1234 O1294 1.956 . S
Li1234 O1295 1.970 . S
Li1235 N1285 1.990 . S
Li1235 O1293 1.961 . S
Li1235 O1294 1.970 . S
Li1235 O1295 1.956 . S
C1236 C1238 1.348 . S
C1236 C1239 1.356 . S
C1236 O1292 1.325 . S
N1237 C1240 1.314 . S
N1237 C1241 1.279 . S
C1238 C1236 1.348 . S
C1238 C1240 1.353 . S
C1238 H1296 0.929 . S
C1239 C1236 1.356 . S
C1239 C1241 1.358 . S
C1239 H1297 0.930 . S
C1240 N1237 1.314 . S
C1240 C1238 1.353 . S
C1240 H1298 0.930 . S
C1241 N1237 1.279 . S
C1241 C1239 1.358 . S
C1241 H1299 0.930 . S
C1242 C1245 1.348 . S
C1242 C1246 1.356 . S
C1242 O1293 1.325 . S
C1243 N1244 1.279 . S
C1243 C1246 1.358 . S
C1243 H1300 0.930 . S
N1244 C1243 1.279 . S
N1244 C1247 1.314 . S
C1245 C1242 1.348 . S
C1245 C1247 1.353 . S
C1245 H1301 0.929 . S
C1246 C1242 1.356 . S
C1246 C1243 1.358 . S
C1246 H1302 0.930 . S
C1247 N1244 1.314 . S
C1247 C1245 1.353 . S
C1247 H1303 0.930 . S
C1248 N1249 1.314 . S
C1248 C1253 1.353 . S
C1248 H1254 0.930 . S
N1249 Li1232 1.990 . S
N1249 C1248 1.314 . S
N1249 C1251 1.279 . S
C1250 C1251 1.358 . S
C1250 C1252 1.356 . S
C1250 H1304 0.930 . S
C1251 N1249 1.279 . S
C1251 C1250 1.358 . S
C1251 H1255 0.930 . S
C1252 C1250 1.356 . S
C1252 C1253 1.348 . S
C1253 C1248 1.353 . S
C1253 C1252 1.348 . S
C1253 H1305 0.929 . S
H1254 C1248 0.930 . S
H1255 C1251 0.930 . S
C1256 N1257 1.314 . S
C1256 C1258 1.353 . S
C1256 H1262 0.930 . S
N1257 Li1233 1.990 . S
N1257 C1256 1.314 . S
N1257 C1260 1.279 . S
C1258 C1256 1.353 . S
C1258 C1261 1.348 . S
C1258 H1306 0.929 . S
C1259 C1260 1.358 . S
C1259 C1261 1.356 . S
C1259 H1307 0.930 . S
C1260 N1257 1.279 . S
C1260 C1259 1.358 . S
C1260 H1263 0.930 . S
C1261 C1258 1.348 . S
C1261 C1259 1.356 . S
H1262 C1256 0.930 . S
H1263 C1260 0.930 . S
C1264 C1266 1.348 . S
C1264 C1267 1.356 . S
C1264 O1294 1.325 . S
N1265 C1268 1.314 . S
N1265 C1269 1.279 . S
C1266 C1264 1.348 . S
C1266 C1268 1.353 . S
C1266 H1308 0.929 . S
C1267 C1264 1.356 . S
C1267 C1269 1.358 . S
C1267 H1309 0.930 . S
C1268 N1265 1.314 . S
C1268 C1266 1.353 . S
C1268 H1310 0.930 . S
C1269 N1265 1.279 . S
C1269 C1267 1.358 . S
C1269 H1311 0.930 . S
C1270 C1271 1.348 . S
C1270 C1272 1.356 . S
C1270 O1295 1.325 . S
C1271 C1270 1.348 . S
C1271 C1273 1.353 . S
C1271 H1312 0.929 . S
C1272 C1270 1.356 . S
C1272 C1274 1.358 . S
C1272 H1313 0.930 . S
C1273 C1271 1.353 . S
C1273 N1275 1.314 . S
C1273 H1314 0.930 . S
C1274 C1272 1.358 . S
C1274 N1275 1.279 . S
C1274 H1315 0.930 . S
N1275 C1273 1.314 . S
N1275 C1274 1.279 . S
C1276 C1278 1.353 . S
C1276 N1279 1.314 . S
C1276 H1282 0.930 . S
C1277 N1279 1.279 . S
C1277 C1280 1.358 . S
C1277 H1283 0.930 . S
C1278 C1276 1.353 . S
C1278 C1281 1.348 . S
C1278 H1316 0.929 . S
N1279 Li1234 1.990 . S
N1279 C1276 1.314 . S
N1279 C1277 1.279 . S
C1280 C1277 1.358 . S
C1280 C1281 1.356 . S
C1280 H1317 0.930 . S
C1281 C1278 1.348 . S
C1281 C1280 1.356 . S
H1282 C1276 0.930 . S
H1283 C1277 0.930 . S
C1284 N1285 1.314 . S
C1284 C1286 1.353 . S
C1284 H1290 0.930 . S
N1285 Li1235 1.990 . S
N1285 C1284 1.314 . S
N1285 C1288 1.279 . S
C1286 C1284 1.353 . S
C1286 C1289 1.348 . S
C1286 H1318 0.929 . S
C1287 C1288 1.358 . S
C1287 C1289 1.356 . S
C1287 H1319 0.930 . S
C1288 N1285 1.279 . S
C1288 C1287 1.358 . S
C1288 H1291 0.930 . S
C1289 C1286 1.348 . S
C1289 C1287 1.356 . S
H1290 C1284 0.930 . S
H1291 C1288 0.930 . S
O1292 Li1232 1.956 . S
O1292 Li1233 1.970 . S
O1292 Li1234 1.961 . S
O1292 C1236 1.325 . S
O1293 Li1232 1.970 . S
O1293 Li1233 1.956 . S
O1293 Li1235 1.961 . S
O1293 C1242 1.325 . S
O1294 Li1232 1.961 . S
O1294 Li1234 1.956 . S
O1294 Li1235 1.970 . S
O1294 C1264 1.325 . S
O1295 Li1233 1.961 . S
O1295 Li1234 1.970 . S
O1295 Li1235 1.956 . S
O1295 C1270 1.325 . S
H1296 C1238 0.929 . S
H1297 C1239 0.930 . S
H1298 C1240 0.930 . S
H1299 C1241 0.930 . S
H1300 C1243 0.930 . S
H1301 C1245 0.929 . S
H1302 C1246 0.930 . S
H1303 C1247 0.930 . S
H1304 C1250 0.930 . S
H1305 C1253 0.929 . S
H1306 C1258 0.929 . S
H1307 C1259 0.930 . S
H1308 C1266 0.929 . S
H1309 C1267 0.930 . S
H1310 C1268 0.930 . S
H1311 C1269 0.930 . S
H1312 C1271 0.929 . S
H1313 C1272 0.930 . S
H1314 C1273 0.930 . S
H1315 C1274 0.930 . S
H1316 C1278 0.929 . S
H1317 C1280 0.930 . S
H1318 C1286 0.929 . S
H1319 C1287 0.930 . S
Li1320 N1337 1.990 . S
Li1320 O1380 1.956 . S
Li1320 O1381 1.970 . S
Li1320 O1382 1.961 . S
Li1321 N1345 1.990 . S
Li1321 O1380 1.970 . S
Li1321 O1381 1.956 . S
Li1321 O1383 1.961 . S
Li1322 N1367 1.990 . S
Li1322 O1380 1.961 . S
Li1322 O1382 1.956 . S
Li1322 O1383 1.970 . S
Li1323 N1373 1.990 . S
Li1323 O1381 1.961 . S
Li1323 O1382 1.970 . S
Li1323 O1383 1.956 . S
C1324 C1326 1.348 . S
C1324 C1327 1.356 . S
C1324 O1380 1.325 . S
N1325 C1328 1.314 . S
N1325 C1329 1.279 . S
C1326 C1324 1.348 . S
C1326 C1328 1.353 . S
C1326 H1384 0.929 . S
C1327 C1324 1.356 . S
C1327 C1329 1.358 . S
C1327 H1385 0.930 . S
C1328 N1325 1.314 . S
C1328 C1326 1.353 . S
C1328 H1386 0.930 . S
C1329 N1325 1.279 . S
C1329 C1327 1.358 . S
C1329 H1387 0.930 . S
C1330 C1333 1.348 . S
C1330 C1334 1.356 . S
C1330 O1381 1.325 . S
C1331 N1332 1.279 . S
C1331 C1334 1.358 . S
C1331 H1388 0.930 . S
N1332 C1331 1.279 . S
N1332 C1335 1.314 . S
C1333 C1330 1.348 . S
C1333 C1335 1.353 . S
C1333 H1389 0.929 . S
C1334 C1330 1.356 . S
C1334 C1331 1.358 . S
C1334 H1390 0.930 . S
C1335 N1332 1.314 . S
C1335 C1333 1.353 . S
C1335 H1391 0.930 . S
C1336 N1337 1.314 . S
C1336 C1341 1.353 . S
C1336 H1342 0.930 . S
N1337 Li1320 1.990 . S
N1337 C1336 1.314 . S
N1337 C1339 1.279 . S
C1338 C1339 1.358 . S
C1338 C1340 1.356 . S
C1338 H1392 0.930 . S
C1339 N1337 1.279 . S
C1339 C1338 1.358 . S
C1339 H1343 0.930 . S
C1340 C1338 1.356 . S
C1340 C1341 1.348 . S
C1341 C1336 1.353 . S
C1341 C1340 1.348 . S
C1341 H1393 0.929 . S
H1342 C1336 0.930 . S
H1343 C1339 0.930 . S
C1344 N1345 1.314 . S
C1344 C1346 1.353 . S
C1344 H1350 0.930 . S
N1345 Li1321 1.990 . S
N1345 C1344 1.314 . S
N1345 C1348 1.279 . S
C1346 C1344 1.353 . S
C1346 C1349 1.348 . S
C1346 H1394 0.929 . S
C1347 C1348 1.358 . S
C1347 C1349 1.356 . S
C1347 H1395 0.930 . S
C1348 N1345 1.279 . S
C1348 C1347 1.358 . S
C1348 H1351 0.930 . S
C1349 C1346 1.348 . S
C1349 C1347 1.356 . S
H1350 C1344 0.930 . S
H1351 C1348 0.930 . S
C1352 C1354 1.348 . S
C1352 C1355 1.356 . S
C1352 O1382 1.325 . S
N1353 C1356 1.314 . S
N1353 C1357 1.279 . S
C1354 C1352 1.348 . S
C1354 C1356 1.353 . S
C1354 H1396 0.929 . S
C1355 C1352 1.356 . S
C1355 C1357 1.358 . S
C1355 H1397 0.930 . S
C1356 N1353 1.314 . S
C1356 C1354 1.353 . S
C1356 H1398 0.930 . S
C1357 N1353 1.279 . S
C1357 C1355 1.358 . S
C1357 H1399 0.930 . S
C1358 C1359 1.348 . S
C1358 C1360 1.356 . S
C1358 O1383 1.325 . S
C1359 C1358 1.348 . S
C1359 C1361 1.353 . S
C1359 H1400 0.929 . S
C1360 C1358 1.356 . S
C1360 C1362 1.358 . S
C1360 H1401 0.930 . S
C1361 C1359 1.353 . S
C1361 N1363 1.314 . S
C1361 H1402 0.930 . S
C1362 C1360 1.358 . S
C1362 N1363 1.279 . S
C1362 H1403 0.930 . S
N1363 C1361 1.314 . S
N1363 C1362 1.279 . S
C1364 C1366 1.353 . S
C1364 N1367 1.314 . S
C1364 H1370 0.930 . S
C1365 N1367 1.279 . S
C1365 C1368 1.358 . S
C1365 H1371 0.930 . S
C1366 C1364 1.353 . S
C1366 C1369 1.348 . S
C1366 H1404 0.929 . S
N1367 Li1322 1.990 . S
N1367 C1364 1.314 . S
N1367 C1365 1.279 . S
C1368 C1365 1.358 . S
C1368 C1369 1.356 . S
C1368 H1405 0.930 . S
C1369 C1366 1.348 . S
C1369 C1368 1.356 . S
H1370 C1364 0.930 . S
H1371 C1365 0.930 . S
C1372 N1373 1.314 . S
C1372 C1374 1.353 . S
C1372 H1378 0.930 . S
N1373 Li1323 1.990 . S
N1373 C1372 1.314 . S
N1373 C1376 1.279 . S
C1374 C1372 1.353 . S
C1374 C1377 1.348 . S
C1374 H1406 0.929 . S
C1375 C1376 1.358 . S
C1375 C1377 1.356 . S
C1375 H1407 0.930 . S
C1376 N1373 1.279 . S
C1376 C1375 1.358 . S
C1376 H1379 0.930 . S
C1377 C1374 1.348 . S
C1377 C1375 1.356 . S
H1378 C1372 0.930 . S
H1379 C1376 0.930 . S
O1380 Li1320 1.956 . S
O1380 Li1321 1.970 . S
O1380 Li1322 1.961 . S
O1380 C1324 1.325 . S
O1381 Li1320 1.970 . S
O1381 Li1321 1.956 . S
O1381 Li1323 1.961 . S
O1381 C1330 1.325 . S
O1382 Li1320 1.961 . S
O1382 Li1322 1.956 . S
O1382 Li1323 1.970 . S
O1382 C1352 1.325 . S
O1383 Li1321 1.961 . S
O1383 Li1322 1.970 . S
O1383 Li1323 1.956 . S
O1383 C1358 1.325 . S
H1384 C1326 0.929 . S
H1385 C1327 0.930 . S
H1386 C1328 0.930 . S
H1387 C1329 0.930 . S
H1388 C1331 0.930 . S
H1389 C1333 0.929 . S
H1390 C1334 0.930 . S
H1391 C1335 0.930 . S
H1392 C1338 0.930 . S
H1393 C1341 0.929 . S
H1394 C1346 0.929 . S
H1395 C1347 0.930 . S
H1396 C1354 0.929 . S
H1397 C1355 0.930 . S
H1398 C1356 0.930 . S
H1399 C1357 0.930 . S
H1400 C1359 0.929 . S
H1401 C1360 0.930 . S
H1402 C1361 0.930 . S
H1403 C1362 0.930 . S
H1404 C1366 0.929 . S
H1405 C1368 0.930 . S
H1406 C1374 0.929 . S
H1407 C1375 0.930 . S
Li1408 N1425 1.990 . S
Li1408 O1468 1.956 . S
Li1408 O1469 1.970 . S
Li1408 O1470 1.961 . S
Li1409 N1433 1.990 . S
Li1409 O1468 1.970 . S
Li1409 O1469 1.956 . S
Li1409 O1471 1.961 . S
Li1410 N1455 1.990 . S
Li1410 O1468 1.961 . S
Li1410 O1470 1.956 . S
Li1410 O1471 1.970 . S
Li1411 N1461 1.990 . S
Li1411 O1469 1.961 . S
Li1411 O1470 1.970 . S
Li1411 O1471 1.956 . S
C1412 C1414 1.348 . S
C1412 C1415 1.356 . S
C1412 O1468 1.325 . S
N1413 C1416 1.314 . S
N1413 C1417 1.279 1_565 S
C1414 C1412 1.348 . S
C1414 C1416 1.353 1_545 S
C1414 H1472 0.939 . S
C1415 C1412 1.356 . S
C1415 C1417 1.358 . S
C1415 H1473 0.930 . S
C1416 N1413 1.314 . S
C1416 C1414 1.353 1_565 S
C1416 H1474 0.930 . S
C1417 N1413 1.279 1_545 S
C1417 C1415 1.358 . S
C1417 H1475 0.930 . S
C1418 C1421 1.348 . S
C1418 C1422 1.356 . S
C1418 O1469 1.325 . S
C1419 N1420 1.279 . S
C1419 C1422 1.358 . S
C1419 H1476 0.930 . S
N1420 C1419 1.279 . S
N1420 C1423 1.314 . S
C1421 C1418 1.348 . S
C1421 C1423 1.353 . S
C1421 H1477 0.929 . S
C1422 C1418 1.356 . S
C1422 C1419 1.358 . S
C1422 H1478 0.930 . S
C1423 N1420 1.314 . S
C1423 C1421 1.353 . S
C1423 H1479 0.930 . S
C1424 N1425 1.314 . S
C1424 C1429 1.353 . S
C1424 H1430 0.930 . S
N1425 Li1408 1.990 . S
N1425 C1424 1.314 . S
N1425 C1427 1.279 . S
C1426 C1427 1.358 . S
C1426 C1428 1.356 . S
C1426 H1480 0.930 . S
C1427 N1425 1.279 . S
C1427 C1426 1.358 . S
C1427 H1431 0.930 . S
C1428 C1426 1.356 . S
C1428 C1429 1.348 . S
C1429 C1424 1.353 . S
C1429 C1428 1.348 . S
C1429 H1481 0.929 . S
H1430 C1424 0.930 . S
H1431 C1427 0.930 . S
C1432 N1433 1.279 1_565 S
C1432 C1434 1.409 . S
C1432 H1438 0.911 1_565 S
N1433 Li1409 1.990 . S
N1433 C1432 1.279 1_545 S
N1433 C1436 1.279 . S
C1434 C1432 1.409 . S
C1434 C1437 1.348 . S
C1434 H1482 0.929 . S
C1435 C1436 1.358 1_565 S
C1435 C1437 1.356 . S
C1435 H1483 0.930 . S
C1436 N1433 1.279 . S
C1436 C1435 1.358 1_545 S
C1436 H1439 0.930 . S
C1437 C1434 1.348 . S
C1437 C1435 1.356 . S
H1438 C1432 0.911 1_545 S
H1439 C1436 0.930 . S
C1440 C1442 1.348 . S
C1440 C1443 1.356 . S
C1440 O1470 1.325 . S
N1441 C1444 1.314 . S
N1441 C1445 1.279 . S
C1442 C1440 1.348 . S
C1442 C1444 1.353 . S
C1442 H1484 0.929 . S
C1443 C1440 1.356 . S
C1443 C1445 1.358 . S
C1443 H1485 0.930 . S
C1444 N1441 1.314 . S
C1444 C1442 1.353 . S
C1444 H1486 0.930 . S
C1445 N1441 1.279 . S
C1445 C1443 1.358 . S
C1445 H1487 0.930 . S
C1446 C1447 1.348 . S
C1446 C1448 1.356 . S
C1446 O1471 1.325 . S
C1447 C1446 1.348 . S
C1447 C1449 1.353 . S
C1447 H1488 0.929 . S
C1448 C1446 1.356 . S
C1448 C1450 1.358 . S
C1448 H1489 0.930 . S
C1449 C1447 1.353 . S
C1449 N1451 1.314 . S
C1449 H1490 0.930 . S
C1450 C1448 1.358 . S
C1450 N1451 1.279 . S
C1450 H1491 0.930 . S
N1451 C1449 1.314 . S
N1451 C1450 1.279 . S
C1452 C1454 1.353 . S
C1452 N1455 1.314 . S
C1452 H1458 0.930 . S
C1453 N1455 1.279 . S
C1453 C1456 1.358 . S
C1453 H1459 0.930 . S
C1454 C1452 1.353 . S
C1454 C1457 1.348 . S
C1454 H1492 0.929 . S
N1455 Li1410 1.990 . S
N1455 C1452 1.314 . S
N1455 C1453 1.279 . S
C1456 C1453 1.358 . S
C1456 C1457 1.356 . S
C1456 H1493 0.930 . S
C1457 C1454 1.348 . S
C1457 C1456 1.356 . S
H1458 C1452 0.930 . S
H1459 C1453 0.930 . S
C1460 N1461 1.314 . S
C1460 C1462 1.353 . S
C1460 H1466 0.930 . S
N1461 Li1411 1.990 . S
N1461 C1460 1.314 . S
N1461 C1464 1.279 . S
C1462 C1460 1.353 . S
C1462 C1465 1.348 . S
C1462 H1494 0.929 . S
C1463 C1464 1.358 . S
C1463 C1465 1.356 . S
C1463 H1495 0.930 . S
C1464 N1461 1.279 . S
C1464 C1463 1.358 . S
C1464 H1467 0.930 . S
C1465 C1462 1.348 . S
C1465 C1463 1.356 . S
H1466 C1460 0.930 . S
H1467 C1464 0.930 . S
O1468 Li1408 1.956 . S
O1468 Li1409 1.970 . S
O1468 Li1410 1.961 . S
O1468 C1412 1.325 . S
O1469 Li1408 1.970 . S
O1469 Li1409 1.956 . S
O1469 Li1411 1.961 . S
O1469 C1418 1.325 . S
O1470 Li1408 1.961 . S
O1470 Li1410 1.956 . S
O1470 Li1411 1.970 . S
O1470 C1440 1.325 . S
O1471 Li1409 1.961 . S
O1471 Li1410 1.970 . S
O1471 Li1411 1.956 . S
O1471 C1446 1.325 . S
H1472 C1414 0.939 . S
H1473 C1415 0.930 . S
H1474 C1416 0.930 . S
H1475 C1417 0.930 . S
H1476 C1419 0.930 . S
H1477 C1421 0.929 . S
H1478 C1422 0.930 . S
H1479 C1423 0.930 . S
H1480 C1426 0.930 . S
H1481 C1429 0.929 . S
H1482 C1434 0.929 . S
H1483 C1435 0.930 . S
H1484 C1442 0.929 . S
H1485 C1443 0.930 . S
H1486 C1444 0.930 . S
H1487 C1445 0.930 . S
H1488 C1447 0.929 . S
H1489 C1448 0.930 . S
H1490 C1449 0.930 . S
H1491 C1450 0.930 . S
H1492 C1454 0.929 . S
H1493 C1456 0.930 . S
H1494 C1462 0.929 . S
H1495 C1463 0.930 . S
Li1496 N1513 1.990 . S
Li1496 O1556 1.956 . S
Li1496 O1557 1.970 . S
Li1496 O1558 1.961 . S
Li1497 N1521 1.990 . S
Li1497 O1556 1.970 . S
Li1497 O1557 1.956 . S
Li1497 O1559 1.961 . S
Li1498 N1543 1.990 . S
Li1498 O1556 1.961 . S
Li1498 O1558 1.956 . S
Li1498 O1559 1.970 . S
Li1499 N1549 1.990 . S
Li1499 O1557 1.961 . S
Li1499 O1558 1.970 . S
Li1499 O1559 1.956 . S
C1500 C1502 1.348 . S
C1500 C1503 1.356 . S
C1500 O1556 1.325 . S
N1501 C1504 1.314 . S
N1501 C1505 1.279 . S
C1502 C1500 1.348 . S
C1502 C1504 1.353 . S
C1502 H1560 0.929 . S
C1503 C1500 1.356 . S
C1503 C1505 1.358 . S
C1503 H1561 0.930 . S
C1504 N1501 1.314 . S
C1504 C1502 1.353 . S
C1504 H1562 0.930 . S
C1505 N1501 1.279 . S
C1505 C1503 1.358 . S
C1505 H1563 0.930 . S
C1506 C1509 1.348 . S
C1506 C1510 1.356 . S
C1506 O1557 1.325 . S
C1507 N1508 1.279 . S
C1507 C1510 1.358 . S
C1507 H1564 0.930 . S
N1508 C1507 1.279 . S
N1508 C1511 1.314 . S
C1509 C1506 1.348 . S
C1509 C1511 1.353 . S
C1509 H1565 0.929 . S
C1510 C1506 1.356 . S
C1510 C1507 1.358 . S
C1510 H1566 0.930 . S
C1511 N1508 1.314 . S
C1511 C1509 1.353 . S
C1511 H1567 0.930 . S
C1512 N1513 1.314 . S
C1512 C1517 1.353 . S
C1512 H1518 0.930 . S
N1513 Li1496 1.990 . S
N1513 C1512 1.314 . S
N1513 C1515 1.279 . S
C1514 C1515 1.358 . S
C1514 C1516 1.356 . S
C1514 H1568 0.930 . S
C1515 N1513 1.279 . S
C1515 C1514 1.358 . S
C1515 H1519 0.930 . S
C1516 C1514 1.356 . S
C1516 C1517 1.348 . S
C1517 C1512 1.353 . S
C1517 C1516 1.348 . S
C1517 H1569 0.929 . S
H1518 C1512 0.930 . S
H1519 C1515 0.930 . S
C1520 N1521 1.314 . S
C1520 C1522 1.353 . S
C1520 H1526 0.930 . S
N1521 Li1497 1.990 . S
N1521 C1520 1.314 . S
N1521 C1524 1.279 . S
C1522 C1520 1.353 . S
C1522 C1525 1.348 . S
C1522 H1570 0.929 . S
C1523 C1524 1.358 . S
C1523 C1525 1.356 . S
C1523 H1571 0.930 . S
C1524 N1521 1.279 . S
C1524 C1523 1.358 . S
C1524 H1527 0.930 . S
C1525 C1522 1.348 . S
C1525 C1523 1.356 . S
H1526 C1520 0.930 . S
H1527 C1524 0.930 . S
C1528 C1530 1.348 . S
C1528 C1531 1.356 . S
C1528 O1558 1.325 . S
N1529 C1532 1.314 . S
N1529 C1533 1.279 . S
C1530 C1528 1.348 . S
C1530 C1532 1.353 . S
C1530 H1572 0.929 . S
C1531 C1528 1.356 . S
C1531 C1533 1.358 . S
C1531 H1573 0.930 . S
C1532 N1529 1.314 . S
C1532 C1530 1.353 . S
C1532 H1574 0.930 . S
C1533 N1529 1.279 . S
C1533 C1531 1.358 . S
C1533 H1575 0.930 . S
C1534 C1535 1.348 . S
C1534 C1536 1.356 . S
C1534 O1559 1.325 . S
C1535 C1534 1.348 . S
C1535 C1537 1.353 . S
C1535 H1576 0.929 . S
C1536 C1534 1.356 . S
C1536 C1538 1.358 . S
C1536 H1577 0.930 . S
C1537 C1535 1.353 . S
C1537 N1539 1.314 . S
C1537 H1578 0.930 . S
C1538 C1536 1.358 . S
C1538 N1539 1.279 . S
C1538 H1579 0.930 . S
N1539 C1537 1.314 . S
N1539 C1538 1.279 . S
C1540 C1542 1.353 . S
C1540 N1543 1.314 . S
C1540 H1546 0.930 . S
C1541 N1543 1.279 . S
C1541 C1544 1.358 . S
C1541 H1547 0.930 . S
C1542 C1540 1.353 . S
C1542 C1545 1.348 . S
C1542 H1580 0.929 . S
N1543 Li1498 1.990 . S
N1543 C1540 1.314 . S
N1543 C1541 1.279 . S
C1544 C1541 1.358 . S
C1544 C1545 1.356 . S
C1544 H1581 0.930 . S
C1545 C1542 1.348 . S
C1545 C1544 1.356 . S
H1546 C1540 0.930 . S
H1547 C1541 0.930 . S
C1548 N1549 1.314 . S
C1548 C1550 1.353 . S
C1548 H1554 0.930 . S
N1549 Li1499 1.990 . S
N1549 C1548 1.314 . S
N1549 C1552 1.279 . S
C1550 C1548 1.353 . S
C1550 C1553 1.348 . S
C1550 H1582 0.929 . S
C1551 C1552 1.358 . S
C1551 C1553 1.356 . S
C1551 H1583 0.930 . S
C1552 N1549 1.279 . S
C1552 C1551 1.358 . S
C1552 H1555 0.930 . S
C1553 C1550 1.348 . S
C1553 C1551 1.356 . S
H1554 C1548 0.930 . S
H1555 C1552 0.930 . S
O1556 Li1496 1.956 . S
O1556 Li1497 1.970 . S
O1556 Li1498 1.961 . S
O1556 C1500 1.325 . S
O1557 Li1496 1.970 . S
O1557 Li1497 1.956 . S
O1557 Li1499 1.961 . S
O1557 C1506 1.325 . S
O1558 Li1496 1.961 . S
O1558 Li1498 1.956 . S
O1558 Li1499 1.970 . S
O1558 C1528 1.325 . S
O1559 Li1497 1.961 . S
O1559 Li1498 1.970 . S
O1559 Li1499 1.956 . S
O1559 C1534 1.325 . S
H1560 C1502 0.929 . S
H1561 C1503 0.930 . S
H1562 C1504 0.930 . S
H1563 C1505 0.930 . S
H1564 C1507 0.930 . S
H1565 C1509 0.929 . S
H1566 C1510 0.930 . S
H1567 C1511 0.930 . S
H1568 C1514 0.930 . S
H1569 C1517 0.929 . S
H1570 C1522 0.929 . S
H1571 C1523 0.930 . S
H1572 C1530 0.929 . S
H1573 C1531 0.930 . S
H1574 C1532 0.930 . S
H1575 C1533 0.930 . S
H1576 C1535 0.929 . S
H1577 C1536 0.930 . S
H1578 C1537 0.930 . S
H1579 C1538 0.930 . S
H1580 C1542 0.929 . S
H1581 C1544 0.930 . S
H1582 C1550 0.929 . S
H1583 C1551 0.930 . S
Li1584 N1601 1.990 . S
Li1584 O1644 1.956 . S
Li1584 O1645 1.970 . S
Li1584 O1646 1.961 . S
Li1585 N1609 1.990 . S
Li1585 O1644 1.970 . S
Li1585 O1645 1.956 . S
Li1585 O1647 1.961 . S
Li1586 N1631 1.990 . S
Li1586 O1644 1.961 . S
Li1586 O1646 1.956 . S
Li1586 O1647 1.970 . S
Li1587 N1637 1.990 . S
Li1587 O1645 1.961 . S
Li1587 O1646 1.970 . S
Li1587 O1647 1.956 . S
C1588 C1590 1.348 . S
C1588 C1591 1.356 . S
C1588 O1644 1.325 . S
N1589 C1592 1.314 . S
N1589 C1593 1.279 . S
C1590 C1588 1.348 . S
C1590 C1592 1.353 . S
C1590 H1648 0.929 . S
C1591 C1588 1.356 . S
C1591 C1593 1.358 . S
C1591 H1649 0.930 . S
C1592 N1589 1.314 . S
C1592 C1590 1.353 . S
C1592 H1650 0.930 . S
C1593 N1589 1.279 . S
C1593 C1591 1.358 . S
C1593 H1651 0.930 . S
C1594 C1597 1.348 . S
C1594 C1598 1.356 . S
C1594 O1645 1.325 . S
C1595 N1596 1.279 . S
C1595 C1598 1.358 . S
C1595 H1652 0.930 . S
N1596 C1595 1.279 . S
N1596 C1599 1.314 . S
C1597 C1594 1.348 . S
C1597 C1599 1.353 . S
C1597 H1653 0.929 . S
C1598 C1594 1.356 . S
C1598 C1595 1.358 . S
C1598 H1654 0.930 . S
C1599 N1596 1.314 . S
C1599 C1597 1.353 . S
C1599 H1655 0.930 . S
C1600 N1601 1.314 . S
C1600 C1605 1.353 . S
C1600 H1606 0.930 . S
N1601 Li1584 1.990 . S
N1601 C1600 1.314 . S
N1601 C1603 1.279 . S
C1602 C1603 1.358 . S
C1602 C1604 1.356 . S
C1602 H1656 0.930 . S
C1603 N1601 1.279 . S
C1603 C1602 1.358 . S
C1603 H1607 0.930 . S
C1604 C1602 1.356 . S
C1604 C1605 1.348 . S
C1605 C1600 1.353 . S
C1605 C1604 1.348 . S
C1605 H1657 0.929 . S
H1606 C1600 0.930 . S
H1607 C1603 0.930 . S
C1608 N1609 1.314 . S
C1608 C1610 1.353 . S
C1608 H1614 0.930 . S
N1609 Li1585 1.990 . S
N1609 C1608 1.314 . S
N1609 C1612 1.279 . S
C1610 C1608 1.353 . S
C1610 C1613 1.348 . S
C1610 H1658 0.929 . S
C1611 C1612 1.358 . S
C1611 C1613 1.356 . S
C1611 H1659 0.930 . S
C1612 N1609 1.279 . S
C1612 C1611 1.358 . S
C1612 H1615 0.930 . S
C1613 C1610 1.348 . S
C1613 C1611 1.356 . S
H1614 C1608 0.930 . S
H1615 C1612 0.930 . S
C1616 C1618 1.348 . S
C1616 C1619 1.356 . S
C1616 O1646 1.325 . S
N1617 C1620 1.314 . S
N1617 C1621 1.279 . S
C1618 C1616 1.348 . S
C1618 C1620 1.353 . S
C1618 H1660 0.929 . S
C1619 C1616 1.356 . S
C1619 C1621 1.358 . S
C1619 H1661 0.930 . S
C1620 N1617 1.314 . S
C1620 C1618 1.353 . S
C1620 H1662 0.930 . S
C1621 N1617 1.279 . S
C1621 C1619 1.358 . S
C1621 H1663 0.930 . S
C1622 C1623 1.348 . S
C1622 C1624 1.356 . S
C1622 O1647 1.325 . S
C1623 C1622 1.348 . S
C1623 C1625 1.353 . S
C1623 H1664 0.929 . S
C1624 C1622 1.356 . S
C1624 C1626 1.358 . S
C1624 H1665 0.930 . S
C1625 C1623 1.353 . S
C1625 N1627 1.314 . S
C1625 H1666 0.930 . S
C1626 C1624 1.358 . S
C1626 N1627 1.279 . S
C1626 H1667 0.930 . S
N1627 C1625 1.314 . S
N1627 C1626 1.279 . S
C1628 C1630 1.353 . S
C1628 N1631 1.314 . S
C1628 H1634 0.930 . S
C1629 N1631 1.279 . S
C1629 C1632 1.358 . S
C1629 H1635 0.930 . S
C1630 C1628 1.353 . S
C1630 C1633 1.348 . S
C1630 H1668 0.929 . S
N1631 Li1586 1.990 . S
N1631 C1628 1.314 . S
N1631 C1629 1.279 . S
C1632 C1629 1.358 . S
C1632 C1633 1.356 . S
C1632 H1669 0.930 . S
C1633 C1630 1.348 . S
C1633 C1632 1.356 . S
H1634 C1628 0.930 . S
H1635 C1629 0.930 . S
C1636 N1637 1.314 . S
C1636 C1638 1.353 . S
C1636 H1642 0.930 . S
N1637 Li1587 1.990 . S
N1637 C1636 1.314 . S
N1637 C1640 1.279 . S
C1638 C1636 1.353 . S
C1638 C1641 1.348 . S
C1638 H1670 0.929 . S
C1639 C1640 1.358 . S
C1639 C1641 1.356 . S
C1639 H1671 0.930 . S
C1640 N1637 1.279 . S
C1640 C1639 1.358 . S
C1640 H1643 0.930 . S
C1641 C1638 1.348 . S
C1641 C1639 1.356 . S
H1642 C1636 0.930 . S
H1643 C1640 0.930 . S
O1644 Li1584 1.956 . S
O1644 Li1585 1.970 . S
O1644 Li1586 1.961 . S
O1644 C1588 1.325 . S
O1645 Li1584 1.970 . S
O1645 Li1585 1.956 . S
O1645 Li1587 1.961 . S
O1645 C1594 1.325 . S
O1646 Li1584 1.961 . S
O1646 Li1586 1.956 . S
O1646 Li1587 1.970 . S
O1646 C1616 1.325 . S
O1647 Li1585 1.961 . S
O1647 Li1586 1.970 . S
O1647 Li1587 1.956 . S
O1647 C1622 1.325 . S
H1648 C1590 0.929 . S
H1649 C1591 0.930 . S
H1650 C1592 0.930 . S
H1651 C1593 0.930 . S
H1652 C1595 0.930 . S
H1653 C1597 0.929 . S
H1654 C1598 0.930 . S
H1655 C1599 0.930 . S
H1656 C1602 0.930 . S
H1657 C1605 0.929 . S
H1658 C1610 0.929 . S
H1659 C1611 0.930 . S
H1660 C1618 0.929 . S
H1661 C1619 0.930 . S
H1662 C1620 0.930 . S
H1663 C1621 0.930 . S
H1664 C1623 0.929 . S
H1665 C1624 0.930 . S
H1666 C1625 0.930 . S
H1667 C1626 0.930 . S
H1668 C1630 0.929 . S
H1669 C1632 0.930 . S
H1670 C1638 0.929 . S
H1671 C1639 0.930 . S
Li1672 N1689 1.990 . S
Li1672 O1732 1.956 . S
Li1672 O1733 1.970 . S
Li1672 O1734 1.961 . S
Li1673 N1697 1.990 . S
Li1673 O1732 1.970 . S
Li1673 O1733 1.956 . S
Li1673 O1735 1.961 . S
Li1674 N1719 1.990 . S
Li1674 O1732 1.961 . S
Li1674 O1734 1.956 . S
Li1674 O1735 1.970 . S
Li1675 N1725 1.990 1_545 S
Li1675 O1733 1.961 . S
Li1675 O1734 1.970 . S
Li1675 O1735 1.956 . S
C1676 C1678 1.348 . S
C1676 C1679 1.356 . S
C1676 O1732 1.325 . S
N1677 C1680 1.314 . S
N1677 C1681 1.279 . S
C1678 C1676 1.348 . S
C1678 C1680 1.353 . S
C1678 H1736 0.929 . S
C1679 C1676 1.356 . S
C1679 C1681 1.358 . S
C1679 H1737 0.930 . S
C1680 N1677 1.314 . S
C1680 C1678 1.353 . S
C1680 H1738 0.930 . S
C1681 N1677 1.279 . S
C1681 C1679 1.358 . S
C1681 H1739 0.930 . S
C1682 C1685 1.348 . S
C1682 C1686 1.356 . S
C1682 O1733 1.325 . S
C1683 N1684 1.279 . S
C1683 C1686 1.358 . S
C1683 H1740 0.930 . S
N1684 C1683 1.279 . S
N1684 C1687 1.314 . S
C1685 C1682 1.348 . S
C1685 C1687 1.353 . S
C1685 H1741 0.929 . S
C1686 C1682 1.356 . S
C1686 C1683 1.358 . S
C1686 H1742 0.930 . S
C1687 N1684 1.314 . S
C1687 C1685 1.353 . S
C1687 H1743 0.930 . S
C1688 N1689 1.314 . S
C1688 C1693 1.353 . S
C1688 H1694 0.944 . S
N1689 Li1672 1.990 . S
N1689 C1688 1.314 . S
N1689 C1691 1.279 . S
C1690 C1691 1.358 . S
C1690 C1692 1.356 . S
C1690 H1744 0.930 . S
C1691 N1689 1.279 . S
C1691 C1690 1.358 . S
C1691 H1695 0.930 . S
C1692 C1690 1.356 . S
C1692 C1693 1.348 . S
C1693 C1688 1.353 . S
C1693 C1692 1.348 . S
C1693 H1745 0.929 1_545 S
H1694 C1688 0.944 . S
H1695 C1691 0.930 . S
C1696 N1697 1.314 . S
C1696 C1698 1.353 . S
C1696 H1702 0.930 . S
N1697 Li1673 1.990 . S
N1697 C1696 1.314 . S
N1697 C1700 1.279 . S
C1698 C1696 1.353 . S
C1698 C1701 1.348 . S
C1698 H1746 0.929 . S
C1699 C1700 1.358 . S
C1699 C1701 1.356 . S
C1699 H1747 0.930 . S
C1700 N1697 1.279 . S
C1700 C1699 1.358 . S
C1700 H1703 0.930 . S
C1701 C1698 1.348 . S
C1701 C1699 1.356 . S
H1702 C1696 0.930 . S
H1703 C1700 0.930 . S
C1704 C1706 1.348 . S
C1704 C1707 1.356 . S
C1704 O1734 1.325 1_565 S
N1705 C1708 1.314 . S
N1705 C1709 1.279 . S
C1706 C1704 1.348 . S
C1706 C1708 1.353 . S
C1706 H1748 0.929 . S
C1707 C1704 1.356 . S
C1707 C1709 1.358 . S
C1707 H1749 0.930 . S
C1708 N1705 1.314 . S
C1708 C1706 1.353 . S
C1708 H1750 0.930 . S
C1709 N1705 1.279 . S
C1709 C1707 1.358 . S
C1709 H1751 0.930 . S
C1710 C1711 1.348 . S
C1710 C1712 1.356 . S
C1710 O1735 1.325 . S
C1711 C1710 1.348 . S
C1711 C1713 1.353 . S
C1711 H1752 0.929 . S
C1712 C1710 1.356 . S
C1712 C1714 1.358 . S
C1712 H1753 0.930 . S
C1713 C1711 1.353 . S
C1713 N1715 1.314 . S
C1713 H1754 0.930 . S
C1714 C1712 1.358 . S
C1714 N1715 1.279 . S
C1714 H1755 0.930 . S
N1715 C1713 1.314 . S
N1715 C1714 1.279 . S
C1716 C1718 1.353 . S
C1716 N1719 1.314 . S
C1716 H1722 0.930 . S
C1717 N1719 1.279 . S
C1717 C1720 1.358 . S
C1717 H1723 0.930 1_545 S
C1718 C1716 1.353 . S
C1718 C1721 1.348 . S
C1718 H1756 0.929 . S
N1719 Li1674 1.990 . S
N1719 C1716 1.314 . S
N1719 C1717 1.279 . S
C1720 C1717 1.358 . S
C1720 C1721 1.356 . S
C1720 H1757 0.930 1_545 S
C1721 C1718 1.348 . S
C1721 C1720 1.356 . S
H1722 C1716 0.930 . S
H1723 C1717 0.930 1_565 S
C1724 N1725 1.314 . S
C1724 C1726 1.353 . S
C1724 H1730 0.930 . S
N1725 Li1675 1.990 1_565 S
N1725 C1724 1.314 . S
N1725 C1728 1.279 . S
C1726 C1724 1.353 . S
C1726 C1729 1.348 . S
C1726 H1758 0.929 . S
C1727 C1728 1.358 . S
C1727 C1729 1.356 . S
C1727 H1759 0.930 . S
C1728 N1725 1.279 . S
C1728 C1727 1.358 . S
C1728 H1731 0.930 . S
C1729 C1726 1.348 . S
C1729 C1727 1.356 . S
H1730 C1724 0.930 . S
H1731 C1728 0.930 . S
O1732 Li1672 1.956 . S
O1732 Li1673 1.970 . S
O1732 Li1674 1.961 . S
O1732 C1676 1.325 . S
O1733 Li1672 1.970 . S
O1733 Li1673 1.956 . S
O1733 Li1675 1.961 . S
O1733 C1682 1.325 . S
O1734 Li1672 1.961 . S
O1734 Li1674 1.956 . S
O1734 Li1675 1.970 . S
O1734 C1704 1.325 1_545 S
O1735 Li1673 1.961 . S
O1735 Li1674 1.970 . S
O1735 Li1675 1.956 . S
O1735 C1710 1.325 . S
H1736 C1678 0.929 . S
H1737 C1679 0.930 . S
H1738 C1680 0.930 . S
H1739 C1681 0.930 . S
H1740 C1683 0.930 . S
H1741 C1685 0.929 . S
H1742 C1686 0.930 . S
H1743 C1687 0.930 . S
H1744 C1690 0.930 . S
H1745 C1693 0.929 1_565 S
H1746 C1698 0.929 . S
H1747 C1699 0.930 . S
H1748 C1706 0.929 . S
H1749 C1707 0.930 . S
H1750 C1708 0.930 . S
H1751 C1709 0.930 . S
H1752 C1711 0.929 . S
H1753 C1712 0.930 . S
H1754 C1713 0.930 . S
H1755 C1714 0.930 . S
H1756 C1718 0.929 . S
H1757 C1720 0.930 1_565 S
H1758 C1726 0.929 . S
H1759 C1727 0.930 . S
Li1760 N1777 1.990 . S
Li1760 O1820 1.956 . S
Li1760 O1821 1.970 . S
Li1760 O1822 1.961 . S
Li1761 N1785 1.990 . S
Li1761 O1820 1.970 . S
Li1761 O1821 1.956 . S
Li1761 O1823 1.961 1_554 S
Li1762 N1807 1.994 . S
Li1762 O1820 1.958 1_556 S
Li1762 O1822 1.953 1_556 S
Li1762 O1823 1.971 . S
Li1763 N1813 1.990 . S
Li1763 O1821 1.961 . S
Li1763 O1822 1.970 . S
Li1763 O1823 1.956 1_554 S
C1764 C1766 1.348 . S
C1764 C1767 1.356 . S
C1764 O1820 1.325 . S
N1765 C1768 1.314 . S
N1765 C1769 1.279 . S
C1766 C1764 1.348 . S
C1766 C1768 1.353 . S
C1766 H1824 0.929 . S
C1767 C1764 1.356 . S
C1767 C1769 1.358 . S
C1767 H1825 0.930 . S
C1768 N1765 1.314 . S
C1768 C1766 1.353 . S
C1768 H1826 0.930 . S
C1769 N1765 1.279 . S
C1769 C1767 1.358 . S
C1769 H1827 0.930 . S
C1770 C1773 1.348 . S
C1770 C1774 1.356 . S
C1770 O1821 1.325 . S
C1771 N1772 1.279 . S
C1771 C1774 1.358 . S
C1771 H1828 0.930 . S
N1772 C1771 1.279 . S
N1772 C1775 1.314 . S
C1773 C1770 1.348 . S
C1773 C1775 1.353 . S
C1773 H1829 0.929 . S
C1774 C1770 1.356 . S
C1774 C1771 1.358 . S
C1774 H1830 0.930 . S
C1775 N1772 1.314 . S
C1775 C1773 1.353 . S
C1775 H1831 0.930 . S
C1776 N1777 1.314 . S
C1776 C1781 1.353 . S
C1776 H1782 0.930 . S
N1777 Li1760 1.990 . S
N1777 C1776 1.314 . S
N1777 C1779 1.279 . S
C1778 C1779 1.358 . S
C1778 C1780 1.356 . S
C1778 H1832 0.930 . S
C1779 N1777 1.279 . S
C1779 C1778 1.358 . S
C1779 H1783 0.930 . S
C1780 C1778 1.356 . S
C1780 C1781 1.348 . S
C1781 C1776 1.353 . S
C1781 C1780 1.348 . S
C1781 H1833 0.929 . S
H1782 C1776 0.930 . S
H1783 C1779 0.930 . S
C1784 N1785 1.314 . S
C1784 C1786 1.359 . S
C1784 H1790 0.930 1_554 S
N1785 Li1761 1.990 . S
N1785 C1784 1.314 . S
N1785 C1788 1.279 . S
C1786 C1784 1.359 . S
C1786 C1789 1.400 . S
C1786 H1834 0.874 1_554 S
C1787 C1788 1.358 . S
C1787 C1789 1.356 . S
C1787 H1835 0.930 . S
C1788 N1785 1.279 . S
C1788 C1787 1.358 . S
C1788 H1791 0.930 . S
C1789 C1786 1.400 . S
C1789 C1787 1.356 . S
H1790 C1784 0.930 1_556 S
H1791 C1788 0.930 . S
C1792 C1794 1.348 . S
C1792 C1795 1.356 . S
C1792 O1822 1.325 . S
N1793 C1796 1.314 . S
N1793 C1797 1.279 . S
C1794 C1792 1.348 . S
C1794 C1796 1.353 . S
C1794 H1836 0.929 . S
C1795 C1792 1.356 . S
C1795 C1797 1.358 . S
C1795 H1837 0.930 . S
C1796 N1793 1.314 . S
C1796 C1794 1.353 . S
C1796 H1838 0.930 . S
C1797 N1793 1.279 . S
C1797 C1795 1.358 . S
C1797 H1839 0.930 . S
C1798 C1799 1.348 . S
C1798 C1800 1.356 . S
C1798 O1823 1.325 . S
C1799 C1798 1.348 . S
C1799 C1801 1.353 . S
C1799 H1840 0.929 . S
C1800 C1798 1.356 . S
C1800 C1802 1.358 . S
C1800 H1841 0.930 . S
C1801 C1799 1.353 . S
C1801 N1803 1.314 . S
C1801 H1842 0.930 . S
C1802 C1800 1.358 . S
C1802 N1803 1.279 . S
C1802 H1843 0.930 . S
N1803 C1801 1.314 . S
N1803 C1802 1.279 . S
C1804 C1806 1.353 . S
C1804 N1807 1.314 . S
C1804 H1810 0.930 . S
C1805 N1807 1.279 . S
C1805 C1808 1.358 . S
C1805 H1811 0.930 . S
C1806 C1804 1.353 . S
C1806 C1809 1.348 . S
C1806 H1844 0.929 . S
N1807 Li1762 1.994 . S
N1807 C1804 1.314 . S
N1807 C1805 1.279 . S
C1808 C1805 1.358 . S
C1808 C1809 1.356 . S
C1808 H1845 0.930 . S
C1809 C1806 1.348 . S
C1809 C1808 1.356 . S
H1810 C1804 0.930 . S
H1811 C1805 0.930 . S
C1812 N1813 1.314 . S
C1812 C1814 1.353 . S
C1812 H1818 0.930 . S
N1813 Li1763 1.990 . S
N1813 C1812 1.314 . S
N1813 C1816 1.279 1_554 S
C1814 C1812 1.353 . S
C1814 C1817 1.348 . S
C1814 H1846 0.929 . S
C1815 C1816 1.358 . S
C1815 C1817 1.356 1_556 S
C1815 H1847 0.930 . S
C1816 N1813 1.279 1_556 S
C1816 C1815 1.358 . S
C1816 H1819 0.930 . S
C1817 C1814 1.348 . S
C1817 C1815 1.356 1_554 S
H1818 C1812 0.930 . S
H1819 C1816 0.930 . S
O1820 Li1760 1.956 . S
O1820 Li1761 1.970 . S
O1820 Li1762 1.958 1_554 S
O1820 C1764 1.325 . S
O1821 Li1760 1.970 . S
O1821 Li1761 1.956 . S
O1821 Li1763 1.961 . S
O1821 C1770 1.325 . S
O1822 Li1760 1.961 . S
O1822 Li1762 1.953 1_554 S
O1822 Li1763 1.970 . S
O1822 C1792 1.325 . S
O1823 Li1761 1.961 1_556 S
O1823 Li1762 1.971 . S
O1823 Li1763 1.956 1_556 S
O1823 C1798 1.325 . S
H1824 C1766 0.929 . S
H1825 C1767 0.930 . S
H1826 C1768 0.930 . S
H1827 C1769 0.930 . S
H1828 C1771 0.930 . S
H1829 C1773 0.929 . S
H1830 C1774 0.930 . S
H1831 C1775 0.930 . S
H1832 C1778 0.930 . S
H1833 C1781 0.929 . S
H1834 C1786 0.874 1_556 S
H1835 C1787 0.930 . S
H1836 C1794 0.929 . S
H1837 C1795 0.930 . S
H1838 C1796 0.930 . S
H1839 C1797 0.930 . S
H1840 C1799 0.929 . S
H1841 C1800 0.930 . S
H1842 C1801 0.930 . S
H1843 C1802 0.930 . S
H1844 C1806 0.929 . S
H1845 C1808 0.930 . S
H1846 C1814 0.929 . S
H1847 C1815 0.930 . S
Li1848 N1865 1.990 . S
Li1848 O1908 1.956 . S
Li1848 O1909 1.970 . S
Li1848 O1910 1.961 . S
Li1849 N1873 1.990 . S
Li1849 O1908 1.970 . S
Li1849 O1909 1.956 . S
Li1849 O1911 1.961 . S
Li1850 N1895 1.990 . S
Li1850 O1908 1.961 . S
Li1850 O1910 1.956 . S
Li1850 O1911 1.970 . S
Li1851 N1901 1.990 . S
Li1851 O1909 1.961 . S
Li1851 O1910 1.970 . S
Li1851 O1911 1.956 . S
C1852 C1854 1.348 . S
C1852 C1855 1.356 . S
C1852 O1908 1.325 . S
N1853 C1856 1.314 . S
N1853 C1857 1.279 . S
C1854 C1852 1.348 . S
C1854 C1856 1.353 . S
C1854 H1912 0.929 . S
C1855 C1852 1.356 . S
C1855 C1857 1.358 . S
C1855 H1913 0.930 . S
C1856 N1853 1.314 . S
C1856 C1854 1.353 . S
C1856 H1914 0.930 . S
C1857 N1853 1.279 . S
C1857 C1855 1.358 . S
C1857 H1915 0.930 . S
C1858 C1861 1.348 . S
C1858 C1862 1.356 . S
C1858 O1909 1.325 . S
C1859 N1860 1.279 . S
C1859 C1862 1.358 . S
C1859 H1916 0.930 . S
N1860 C1859 1.279 . S
N1860 C1863 1.314 . S
C1861 C1858 1.348 . S
C1861 C1863 1.353 . S
C1861 H1917 0.929 . S
C1862 C1858 1.356 . S
C1862 C1859 1.358 . S
C1862 H1918 0.930 . S
C1863 N1860 1.314 . S
C1863 C1861 1.353 . S
C1863 H1919 0.930 . S
C1864 N1865 1.314 . S
C1864 C1869 1.353 . S
C1864 H1870 0.930 . S
N1865 Li1848 1.990 . S
N1865 C1864 1.314 . S
N1865 C1867 1.279 . S
C1866 C1867 1.358 . S
C1866 C1868 1.356 . S
C1866 H1920 0.930 . S
C1867 N1865 1.279 . S
C1867 C1866 1.358 . S
C1867 H1871 0.930 . S
C1868 C1866 1.356 . S
C1868 C1869 1.348 . S
C1869 C1864 1.353 . S
C1869 C1868 1.348 . S
C1869 H1921 0.929 . S
H1870 C1864 0.930 . S
H1871 C1867 0.930 . S
C1872 N1873 1.314 . S
C1872 C1874 1.353 . S
C1872 H1878 0.930 . S
N1873 Li1849 1.990 . S
N1873 C1872 1.314 . S
N1873 C1876 1.279 . S
C1874 C1872 1.353 . S
C1874 C1877 1.348 . S
C1874 H1922 0.929 . S
C1875 C1876 1.358 . S
C1875 C1877 1.356 . S
C1875 H1923 0.930 . S
C1876 N1873 1.279 . S
C1876 C1875 1.358 . S
C1876 H1879 0.930 . S
C1877 C1874 1.348 . S
C1877 C1875 1.356 . S
H1878 C1872 0.930 . S
H1879 C1876 0.930 . S
C1880 C1882 1.348 . S
C1880 C1883 1.356 . S
C1880 O1910 1.325 . S
N1881 C1884 1.314 . S
N1881 C1885 1.279 . S
C1882 C1880 1.348 . S
C1882 C1884 1.353 . S
C1882 H1924 0.929 . S
C1883 C1880 1.356 . S
C1883 C1885 1.358 . S
C1883 H1925 0.930 . S
C1884 N1881 1.314 . S
C1884 C1882 1.353 . S
C1884 H1926 0.930 . S
C1885 N1881 1.279 . S
C1885 C1883 1.358 . S
C1885 H1927 0.930 . S
C1886 C1887 1.348 . S
C1886 C1888 1.356 . S
C1886 O1911 1.325 . S
C1887 C1886 1.348 . S
C1887 C1889 1.353 . S
C1887 H1928 0.929 . S
C1888 C1886 1.356 . S
C1888 C1890 1.358 . S
C1888 H1929 0.930 . S
C1889 C1887 1.353 . S
C1889 N1891 1.314 . S
C1889 H1930 0.930 . S
C1890 C1888 1.358 . S
C1890 N1891 1.279 . S
C1890 H1931 0.930 . S
N1891 C1889 1.314 . S
N1891 C1890 1.279 . S
C1892 C1894 1.353 . S
C1892 N1895 1.314 . S
C1892 H1898 0.930 . S
C1893 N1895 1.279 . S
C1893 C1896 1.358 . S
C1893 H1899 0.930 . S
C1894 C1892 1.353 . S
C1894 C1897 1.348 . S
C1894 H1932 0.929 . S
N1895 Li1850 1.990 . S
N1895 C1892 1.314 . S
N1895 C1893 1.279 . S
C1896 C1893 1.358 . S
C1896 C1897 1.356 . S
C1896 H1933 0.930 . S
C1897 C1894 1.348 . S
C1897 C1896 1.356 . S
H1898 C1892 0.930 . S
H1899 C1893 0.930 . S
C1900 N1901 1.314 . S
C1900 C1902 1.353 . S
C1900 H1906 0.930 . S
N1901 Li1851 1.990 . S
N1901 C1900 1.314 . S
N1901 C1904 1.279 . S
C1902 C1900 1.353 . S
C1902 C1905 1.348 . S
C1902 H1934 0.929 . S
C1903 C1904 1.358 . S
C1903 C1905 1.356 . S
C1903 H1935 0.930 . S
C1904 N1901 1.279 . S
C1904 C1903 1.358 . S
C1904 H1907 0.930 . S
C1905 C1902 1.348 . S
C1905 C1903 1.356 . S
H1906 C1900 0.930 . S
H1907 C1904 0.930 . S
O1908 Li1848 1.956 . S
O1908 Li1849 1.970 . S
O1908 Li1850 1.961 . S
O1908 C1852 1.325 . S
O1909 Li1848 1.970 . S
O1909 Li1849 1.956 . S
O1909 Li1851 1.961 . S
O1909 C1858 1.325 . S
O1910 Li1848 1.961 . S
O1910 Li1850 1.956 . S
O1910 Li1851 1.970 . S
O1910 C1880 1.325 . S
O1911 Li1849 1.961 . S
O1911 Li1850 1.970 . S
O1911 Li1851 1.956 . S
O1911 C1886 1.325 . S
H1912 C1854 0.929 . S
H1913 C1855 0.930 . S
H1914 C1856 0.930 . S
H1915 C1857 0.930 . S
H1916 C1859 0.930 . S
H1917 C1861 0.929 . S
H1918 C1862 0.930 . S
H1919 C1863 0.930 . S
H1920 C1866 0.930 . S
H1921 C1869 0.929 . S
H1922 C1874 0.929 . S
H1923 C1875 0.930 . S
H1924 C1882 0.929 . S
H1925 C1883 0.930 . S
H1926 C1884 0.930 . S
H1927 C1885 0.930 . S
H1928 C1887 0.929 . S
H1929 C1888 0.930 . S
H1930 C1889 0.930 . S
H1931 C1890 0.930 . S
H1932 C1894 0.929 . S
H1933 C1896 0.930 . S
H1934 C1902 0.929 . S
H1935 C1903 0.930 . S
Li1936 N1953 1.990 . S
Li1936 O1996 1.956 . S
Li1936 O1997 1.970 . S
Li1936 O1998 1.961 . S
Li1937 N1961 1.990 . S
Li1937 O1996 1.970 . S
Li1937 O1997 1.956 . S
Li1937 O1999 1.961 . S
Li1938 N1983 1.990 . S
Li1938 O1996 1.961 . S
Li1938 O1998 1.956 . S
Li1938 O1999 1.970 . S
Li1939 N1989 1.990 . S
Li1939 O1997 1.961 . S
Li1939 O1998 1.970 . S
Li1939 O1999 1.956 . S
C1940 C1942 1.348 . S
C1940 C1943 1.356 . S
C1940 O1996 1.325 . S
N1941 C1944 1.314 . S
N1941 C1945 1.279 . S
C1942 C1940 1.348 . S
C1942 C1944 1.353 . S
C1942 H2000 0.929 . S
C1943 C1940 1.356 . S
C1943 C1945 1.358 . S
C1943 H2001 0.930 . S
C1944 N1941 1.314 . S
C1944 C1942 1.353 . S
C1944 H2002 0.930 . S
C1945 N1941 1.279 . S
C1945 C1943 1.358 . S
C1945 H2003 0.930 . S
C1946 C1949 1.348 . S
C1946 C1950 1.356 . S
C1946 O1997 1.325 . S
C1947 N1948 1.279 . S
C1947 C1950 1.358 . S
C1947 H2004 0.930 . S
N1948 C1947 1.279 . S
N1948 C1951 1.314 . S
C1949 C1946 1.348 . S
C1949 C1951 1.353 . S
C1949 H2005 0.929 . S
C1950 C1946 1.356 . S
C1950 C1947 1.358 . S
C1950 H2006 0.930 . S
C1951 N1948 1.314 . S
C1951 C1949 1.353 . S
C1951 H2007 0.930 . S
C1952 N1953 1.314 . S
C1952 C1957 1.353 . S
C1952 H1958 0.930 . S
N1953 Li1936 1.990 . S
N1953 C1952 1.314 . S
N1953 C1955 1.279 . S
C1954 C1955 1.358 . S
C1954 C1956 1.356 . S
C1954 H2008 0.930 . S
C1955 N1953 1.279 . S
C1955 C1954 1.358 . S
C1955 H1959 0.930 . S
C1956 C1954 1.356 . S
C1956 C1957 1.348 . S
C1957 C1952 1.353 . S
C1957 C1956 1.348 . S
C1957 H2009 0.929 . S
H1958 C1952 0.930 . S
H1959 C1955 0.930 . S
C1960 N1961 1.314 . S
C1960 C1962 1.353 . S
C1960 H1966 0.930 . S
N1961 Li1937 1.990 . S
N1961 C1960 1.314 . S
N1961 C1964 1.279 . S
C1962 C1960 1.353 . S
C1962 C1965 1.348 . S
C1962 H2010 0.929 . S
C1963 C1964 1.358 . S
C1963 C1965 1.356 . S
C1963 H2011 0.930 . S
C1964 N1961 1.279 . S
C1964 C1963 1.358 . S
C1964 H1967 0.930 . S
C1965 C1962 1.348 . S
C1965 C1963 1.356 . S
H1966 C1960 0.930 . S
H1967 C1964 0.930 . S
C1968 C1970 1.348 . S
C1968 C1971 1.356 . S
C1968 O1998 1.325 . S
N1969 C1972 1.314 . S
N1969 C1973 1.279 . S
C1970 C1968 1.348 . S
C1970 C1972 1.353 . S
C1970 H2012 0.929 . S
C1971 C1968 1.356 . S
C1971 C1973 1.358 . S
C1971 H2013 0.930 . S
C1972 N1969 1.314 . S
C1972 C1970 1.353 . S
C1972 H2014 0.930 . S
C1973 N1969 1.279 . S
C1973 C1971 1.358 . S
C1973 H2015 0.930 . S
C1974 C1975 1.348 . S
C1974 C1976 1.356 . S
C1974 O1999 1.325 . S
C1975 C1974 1.348 . S
C1975 C1977 1.353 . S
C1975 H2016 0.929 . S
C1976 C1974 1.356 . S
C1976 C1978 1.358 . S
C1976 H2017 0.930 . S
C1977 C1975 1.353 . S
C1977 N1979 1.314 . S
C1977 H2018 0.930 . S
C1978 C1976 1.358 . S
C1978 N1979 1.279 . S
C1978 H2019 0.930 . S
N1979 C1977 1.314 . S
N1979 C1978 1.279 . S
C1980 C1982 1.353 . S
C1980 N1983 1.314 . S
C1980 H1986 0.930 . S
C1981 N1983 1.279 . S
C1981 C1984 1.358 . S
C1981 H1987 0.930 . S
C1982 C1980 1.353 . S
C1982 C1985 1.348 . S
C1982 H2020 0.929 . S
N1983 Li1938 1.990 . S
N1983 C1980 1.314 . S
N1983 C1981 1.279 . S
C1984 C1981 1.358 . S
C1984 C1985 1.356 . S
C1984 H2021 0.930 . S
C1985 C1982 1.348 . S
C1985 C1984 1.356 . S
H1986 C1980 0.930 . S
H1987 C1981 0.930 . S
C1988 N1989 1.314 . S
C1988 C1990 1.353 . S
C1988 H1994 0.930 . S
N1989 Li1939 1.990 . S
N1989 C1988 1.314 . S
N1989 C1992 1.279 . S
C1990 C1988 1.353 . S
C1990 C1993 1.348 . S
C1990 H2022 0.929 . S
C1991 C1992 1.358 . S
C1991 C1993 1.356 . S
C1991 H2023 0.930 . S
C1992 N1989 1.279 . S
C1992 C1991 1.358 . S
C1992 H1995 0.930 . S
C1993 C1990 1.348 . S
C1993 C1991 1.356 . S
H1994 C1988 0.930 . S
H1995 C1992 0.930 . S
O1996 Li1936 1.956 . S
O1996 Li1937 1.970 . S
O1996 Li1938 1.961 . S
O1996 C1940 1.325 . S
O1997 Li1936 1.970 . S
O1997 Li1937 1.956 . S
O1997 Li1939 1.961 . S
O1997 C1946 1.325 . S
O1998 Li1936 1.961 . S
O1998 Li1938 1.956 . S
O1998 Li1939 1.970 . S
O1998 C1968 1.325 . S
O1999 Li1937 1.961 . S
O1999 Li1938 1.970 . S
O1999 Li1939 1.956 . S
O1999 C1974 1.325 . S
H2000 C1942 0.929 . S
H2001 C1943 0.930 . S
H2002 C1944 0.930 . S
H2003 C1945 0.930 . S
H2004 C1947 0.930 . S
H2005 C1949 0.929 . S
H2006 C1950 0.930 . S
H2007 C1951 0.930 . S
H2008 C1954 0.930 . S
H2009 C1957 0.929 . S
H2010 C1962 0.929 . S
H2011 C1963 0.930 . S
H2012 C1970 0.929 . S
H2013 C1971 0.930 . S
H2014 C1972 0.930 . S
H2015 C1973 0.930 . S
H2016 C1975 0.929 . S
H2017 C1976 0.930 . S
H2018 C1977 0.930 . S
H2019 C1978 0.930 . S
H2020 C1982 0.929 . S
H2021 C1984 0.930 . S
H2022 C1990 0.929 . S
H2023 C1991 0.930 . S
Li2024 N2041 1.990 . S
Li2024 O2084 1.956 . S
Li2024 O2085 1.970 . S
Li2024 O2086 1.961 . S
Li2025 N2049 1.990 . S
Li2025 O2084 1.970 . S
Li2025 O2085 1.956 . S
Li2025 O2087 1.961 . S
Li2026 N2071 1.990 . S
Li2026 O2084 1.961 . S
Li2026 O2086 1.956 . S
Li2026 O2087 1.970 . S
Li2027 N2077 1.990 . S
Li2027 O2085 1.961 . S
Li2027 O2086 1.970 . S
Li2027 O2087 1.956 . S
C2028 C2030 1.348 . S
C2028 C2031 1.356 . S
C2028 O2084 1.325 . S
N2029 C2032 1.314 . S
N2029 C2033 1.279 . S
C2030 C2028 1.348 . S
C2030 C2032 1.353 . S
C2030 H2088 0.929 . S
C2031 C2028 1.356 . S
C2031 C2033 1.358 . S
C2031 H2089 0.930 . S
C2032 N2029 1.314 . S
C2032 C2030 1.353 . S
C2032 H2090 0.930 . S
C2033 N2029 1.279 . S
C2033 C2031 1.358 . S
C2033 H2091 0.930 . S
C2034 C2037 1.348 . S
C2034 C2038 1.356 . S
C2034 O2085 1.325 . S
C2035 N2036 1.279 . S
C2035 C2038 1.358 . S
C2035 H2092 0.930 . S
N2036 C2035 1.279 . S
N2036 C2039 1.314 . S
C2037 C2034 1.348 . S
C2037 C2039 1.353 . S
C2037 H2093 0.929 . S
C2038 C2034 1.356 . S
C2038 C2035 1.358 . S
C2038 H2094 0.930 . S
C2039 N2036 1.314 . S
C2039 C2037 1.353 . S
C2039 H2095 0.930 . S
C2040 N2041 1.314 . S
C2040 C2045 1.353 . S
C2040 H2046 0.930 . S
N2041 Li2024 1.990 . S
N2041 C2040 1.314 . S
N2041 C2043 1.279 . S
C2042 C2043 1.358 . S
C2042 C2044 1.356 . S
C2042 H2096 0.930 . S
C2043 N2041 1.279 . S
C2043 C2042 1.358 . S
C2043 H2047 0.930 . S
C2044 C2042 1.356 . S
C2044 C2045 1.348 . S
C2045 C2040 1.353 . S
C2045 C2044 1.348 . S
C2045 H2097 0.929 . S
H2046 C2040 0.930 . S
H2047 C2043 0.930 . S
C2048 N2049 1.314 . S
C2048 C2050 1.353 . S
C2048 H2054 0.930 . S
N2049 Li2025 1.990 . S
N2049 C2048 1.314 . S
N2049 C2052 1.279 . S
C2050 C2048 1.353 . S
C2050 C2053 1.348 . S
C2050 H2098 0.929 . S
C2051 C2052 1.358 . S
C2051 C2053 1.356 . S
C2051 H2099 0.930 . S
C2052 N2049 1.279 . S
C2052 C2051 1.358 . S
C2052 H2055 0.930 . S
C2053 C2050 1.348 . S
C2053 C2051 1.356 . S
H2054 C2048 0.930 . S
H2055 C2052 0.930 . S
C2056 C2058 1.348 . S
C2056 C2059 1.356 . S
C2056 O2086 1.325 . S
N2057 C2060 1.314 . S
N2057 C2061 1.279 . S
C2058 C2056 1.348 . S
C2058 C2060 1.353 . S
C2058 H2100 0.929 . S
C2059 C2056 1.356 . S
C2059 C2061 1.358 . S
C2059 H2101 0.930 . S
C2060 N2057 1.314 . S
C2060 C2058 1.353 . S
C2060 H2102 0.930 . S
C2061 N2057 1.279 . S
C2061 C2059 1.358 . S
C2061 H2103 0.930 . S
C2062 C2063 1.348 . S
C2062 C2064 1.356 . S
C2062 O2087 1.325 . S
C2063 C2062 1.348 . S
C2063 C2065 1.353 . S
C2063 H2104 0.929 . S
C2064 C2062 1.356 . S
C2064 C2066 1.358 . S
C2064 H2105 0.930 . S
C2065 C2063 1.353 . S
C2065 N2067 1.314 . S
C2065 H2106 0.930 . S
C2066 C2064 1.358 . S
C2066 N2067 1.279 . S
C2066 H2107 0.930 . S
N2067 C2065 1.314 . S
N2067 C2066 1.279 . S
C2068 C2070 1.353 . S
C2068 N2071 1.314 . S
C2068 H2074 0.930 . S
C2069 N2071 1.279 . S
C2069 C2072 1.358 . S
C2069 H2075 0.930 . S
C2070 C2068 1.353 . S
C2070 C2073 1.348 . S
C2070 H2108 0.929 . S
N2071 Li2026 1.990 . S
N2071 C2068 1.314 . S
N2071 C2069 1.279 . S
C2072 C2069 1.358 . S
C2072 C2073 1.356 . S
C2072 H2109 0.930 . S
C2073 C2070 1.348 . S
C2073 C2072 1.356 . S
H2074 C2068 0.930 . S
H2075 C2069 0.930 . S
C2076 N2077 1.314 . S
C2076 C2078 1.353 . S
C2076 H2082 0.930 . S
N2077 Li2027 1.990 . S
N2077 C2076 1.314 . S
N2077 C2080 1.279 . S
C2078 C2076 1.353 . S
C2078 C2081 1.348 . S
C2078 H2110 0.929 . S
C2079 C2080 1.358 . S
C2079 C2081 1.356 . S
C2079 H2111 0.930 . S
C2080 N2077 1.279 . S
C2080 C2079 1.358 . S
C2080 H2083 0.930 . S
C2081 C2078 1.348 . S
C2081 C2079 1.356 . S
H2082 C2076 0.930 . S
H2083 C2080 0.930 . S
O2084 Li2024 1.956 . S
O2084 Li2025 1.970 . S
O2084 Li2026 1.961 . S
O2084 C2028 1.325 . S
O2085 Li2024 1.970 . S
O2085 Li2025 1.956 . S
O2085 Li2027 1.961 . S
O2085 C2034 1.325 . S
O2086 Li2024 1.961 . S
O2086 Li2026 1.956 . S
O2086 Li2027 1.970 . S
O2086 C2056 1.325 . S
O2087 Li2025 1.961 . S
O2087 Li2026 1.970 . S
O2087 Li2027 1.956 . S
O2087 C2062 1.325 . S
H2088 C2030 0.929 . S
H2089 C2031 0.930 . S
H2090 C2032 0.930 . S
H2091 C2033 0.930 . S
H2092 C2035 0.930 . S
H2093 C2037 0.929 . S
H2094 C2038 0.930 . S
H2095 C2039 0.930 . S
H2096 C2042 0.930 . S
H2097 C2045 0.929 . S
H2098 C2050 0.929 . S
H2099 C2051 0.930 . S
H2100 C2058 0.929 . S
H2101 C2059 0.930 . S
H2102 C2060 0.930 . S
H2103 C2061 0.930 . S
H2104 C2063 0.929 . S
H2105 C2064 0.930 . S
H2106 C2065 0.930 . S
H2107 C2066 0.930 . S
H2108 C2070 0.929 . S
H2109 C2072 0.930 . S
H2110 C2078 0.929 . S
H2111 C2079 0.930 . S
Dy2112 O2116 2.398 1_554 S
Dy2112 O2117 2.491 . S
Dy2112 O2118 2.403 1_554 S
Dy2112 O2119 2.657 1_654 S
Dy2112 O2123 2.358 . S
Dy2112 O2127 2.310 1_655 S
Dy2112 O2128 2.351 1_545 S
C2113 O2124 1.185 . S
C2113 O2125 1.355 . S
C2114 O2116 1.185 . S
C2114 O2117 1.355 1_556 S
Dy2115 O2119 2.288 1_554 S
Dy2115 O2122 2.351 . S
Dy2115 O2124 2.398 . S
Dy2115 O2125 2.491 . S
Dy2115 O2126 2.403 . S
Dy2115 O2127 2.664 . S
Dy2115 O2129 2.326 . S
O2116 Dy2112 2.398 1_556 S
O2116 C2114 1.185 . S
O2117 Dy2112 2.491 . S
O2117 C2114 1.355 1_554 S
O2118 Dy2112 2.403 1_556 S
O2118 C2120 1.254 1_655 S
O2119 Dy2112 2.657 1_456 S
O2119 Dy2115 2.288 1_556 S
O2119 C2120 1.294 . S
C2120 O2118 1.254 1_455 S
C2120 O2119 1.294 . S
C2121 O2126 1.254 . S
C2121 O2127 1.268 . S
O2122 Dy2115 2.351 . S
O2122 C2130 1.249 . S
O2123 Dy2112 2.358 . S
O2123 C2130 1.239 1_655 S
O2124 C2113 1.185 . S
O2124 Dy2115 2.398 . S
O2125 C2113 1.355 . S
O2125 Dy2115 2.491 . S
O2126 Dy2115 2.403 . S
O2126 C2121 1.254 . S
O2127 Dy2112 2.310 1_455 S
O2127 Dy2115 2.664 . S
O2127 C2121 1.268 . S
O2128 Dy2112 2.351 1_565 S
O2128 C2131 1.249 1_655 S
O2129 Dy2115 2.326 . S
O2129 C2131 1.267 1_545 S
C2130 O2122 1.249 . S
C2130 O2123 1.239 1_455 S
C2131 O2128 1.249 1_455 S
C2131 O2129 1.267 1_565 S
Dy2132 O2136 2.398 . S
Dy2132 O2137 2.491 . S
Dy2132 O2138 2.403 . S
Dy2132 O2139 2.664 . S
Dy2132 O2143 2.326 . S
Dy2132 O2147 2.310 . S
Dy2132 O2148 2.351 . S
C2133 O2144 1.185 . S
C2133 O2145 1.355 . S
C2134 O2136 1.185 . S
C2134 O2137 1.355 . S
Dy2135 O2139 2.310 . S
Dy2135 O2142 2.351 . S
Dy2135 O2144 2.398 . S
Dy2135 O2145 2.491 . S
Dy2135 O2146 2.403 . S
Dy2135 O2147 2.664 . S
Dy2135 O2149 2.326 . S
O2136 Dy2132 2.398 . S
O2136 C2134 1.185 . S
O2137 Dy2132 2.491 . S
O2137 C2134 1.355 . S
O2138 Dy2132 2.403 . S
O2138 C2140 1.254 . S
O2139 Dy2132 2.664 . S
O2139 Dy2135 2.310 . S
O2139 C2140 1.268 . S
C2140 O2138 1.254 . S
C2140 O2139 1.268 . S
C2141 O2146 1.254 . S
C2141 O2147 1.268 . S
O2142 Dy2135 2.351 . S
O2142 C2150 1.249 . S
O2143 Dy2132 2.326 . S
O2143 C2150 1.267 . S
O2144 C2133 1.185 . S
O2144 Dy2135 2.398 . S
O2145 C2133 1.355 . S
O2145 Dy2135 2.491 . S
O2146 Dy2135 2.403 . S
O2146 C2141 1.254 . S
O2147 Dy2132 2.310 . S
O2147 Dy2135 2.664 . S
O2147 C2141 1.268 . S
O2148 Dy2132 2.351 . S
O2148 C2151 1.249 . S
O2149 Dy2135 2.326 . S
O2149 C2151 1.267 . S
C2150 O2142 1.249 . S
C2150 O2143 1.267 . S
C2151 O2148 1.249 . S
C2151 O2149 1.267 . S
Dy2152 O2156 2.398 . S
Dy2152 O2157 2.491 . S
Dy2152 O2158 2.403 . S
Dy2152 O2159 2.664 . S
Dy2152 O2163 2.340 . S
Dy2152 O2167 2.310 . S
Dy2152 O2168 2.351 . S
C2153 O2164 1.185 . S
C2153 O2165 1.355 . S
C2154 O2156 1.185 . S
C2154 O2157 1.355 . S
Dy2155 O2159 2.310 . S
Dy2155 O2162 2.351 1_545 S
Dy2155 O2164 2.398 . S
Dy2155 O2165 2.491 . S
Dy2155 O2166 2.403 . S
Dy2155 O2167 2.664 . S
Dy2155 O2169 2.326 . S
O2156 Dy2152 2.398 . S
O2156 C2154 1.185 . S
O2157 Dy2152 2.491 . S
O2157 C2154 1.355 . S
O2158 Dy2152 2.403 . S
O2158 C2160 1.254 . S
O2159 Dy2152 2.664 . S
O2159 Dy2155 2.310 . S
O2159 C2160 1.268 . S
C2160 O2158 1.254 . S
C2160 O2159 1.268 . S
C2161 O2166 1.254 . S
C2161 O2167 1.268 . S
O2162 Dy2155 2.351 1_565 S
O2162 C2170 1.249 . S
O2163 Dy2152 2.340 . S
O2163 C2170 1.259 1_545 S
O2164 C2153 1.185 . S
O2164 Dy2155 2.398 . S
O2165 C2153 1.355 . S
O2165 Dy2155 2.491 . S
O2166 Dy2155 2.403 . S
O2166 C2161 1.254 . S
O2167 Dy2152 2.310 . S
O2167 Dy2155 2.664 . S
O2167 C2161 1.268 . S
O2168 Dy2152 2.351 . S
O2168 C2171 1.249 . S
O2169 Dy2155 2.326 . S
O2169 C2171 1.267 . S
C2170 O2162 1.249 . S
C2170 O2163 1.259 1_565 S
C2171 O2168 1.249 . S
C2171 O2169 1.267 . S
Dy2172 O2176 2.398 . S
Dy2172 O2177 2.491 . S
Dy2172 O2178 2.403 . S
Dy2172 O2179 2.664 . S
Dy2172 O2183 2.326 . S
Dy2172 O2187 2.310 . S
Dy2172 O2188 2.351 . S
C2173 O2184 1.185 . S
C2173 O2185 1.355 . S
C2174 O2176 1.185 . S
C2174 O2177 1.355 . S
Dy2175 O2179 2.310 . S
Dy2175 O2182 2.351 . S
Dy2175 O2184 2.398 . S
Dy2175 O2185 2.491 . S
Dy2175 O2186 2.403 . S
Dy2175 O2187 2.664 . S
Dy2175 O2189 2.326 . S
O2176 Dy2172 2.398 . S
O2176 C2174 1.185 . S
O2177 Dy2172 2.491 . S
O2177 C2174 1.355 . S
O2178 Dy2172 2.403 . S
O2178 C2180 1.254 . S
O2179 Dy2172 2.664 . S
O2179 Dy2175 2.310 . S
O2179 C2180 1.268 . S
C2180 O2178 1.254 . S
C2180 O2179 1.268 . S
C2181 O2186 1.254 . S
C2181 O2187 1.268 . S
O2182 Dy2175 2.351 . S
O2182 C2190 1.249 . S
O2183 Dy2172 2.326 . S
O2183 C2190 1.267 . S
O2184 C2173 1.185 . S
O2184 Dy2175 2.398 . S
O2185 C2173 1.355 . S
O2185 Dy2175 2.491 . S
O2186 Dy2175 2.403 . S
O2186 C2181 1.254 . S
O2187 Dy2172 2.310 . S
O2187 Dy2175 2.664 . S
O2187 C2181 1.268 . S
O2188 Dy2172 2.351 . S
O2188 C2191 1.249 . S
O2189 Dy2175 2.326 . S
O2189 C2191 1.267 . S
C2190 O2182 1.249 . S
C2190 O2183 1.267 . S
C2191 O2188 1.249 . S
C2191 O2189 1.267 . S
Dy2192 O2196 2.398 . S
Dy2192 O2197 2.491 1_455 S
Dy2192 O2198 2.403 . S
Dy2192 O2199 2.664 . S
Dy2192 O2203 2.326 . S
Dy2192 O2207 2.310 1_455 S
Dy2192 O2208 2.351 1_545 S
C2193 O2204 1.185 . S
C2193 O2205 1.355 . S
C2194 O2196 1.185 1_655 S
C2194 O2197 1.355 . S
Dy2195 O2199 2.310 . S
Dy2195 O2202 2.351 . S
Dy2195 O2204 2.398 . S
Dy2195 O2205 2.491 . S
Dy2195 O2206 2.403 1_455 S
Dy2195 O2207 2.664 1_455 S
Dy2195 O2209 2.326 . S
O2196 Dy2192 2.398 . S
O2196 C2194 1.185 1_455 S
O2197 Dy2192 2.491 1_655 S
O2197 C2194 1.355 . S
O2198 Dy2192 2.403 . S
O2198 C2200 1.254 . S
O2199 Dy2192 2.664 . S
O2199 Dy2195 2.310 . S
O2199 C2200 1.268 . S
C2200 O2198 1.254 . S
C2200 O2199 1.268 . S
C2201 O2206 1.254 . S
C2201 O2207 1.268 . S
O2202 Dy2195 2.351 . S
O2202 C2210 1.249 . S
O2203 Dy2192 2.326 . S
O2203 C2210 1.267 . S
O2204 C2193 1.185 . S
O2204 Dy2195 2.398 . S
O2205 C2193 1.355 . S
O2205 Dy2195 2.491 . S
O2206 Dy2195 2.403 1_655 S
O2206 C2201 1.254 . S
O2207 Dy2192 2.310 1_655 S
O2207 Dy2195 2.664 1_655 S
O2207 C2201 1.268 . S
O2208 Dy2192 2.351 1_565 S
O2208 C2211 1.249 . S
O2209 Dy2195 2.326 . S
O2209 C2211 1.267 1_545 S
C2210 O2202 1.249 . S
C2210 O2203 1.267 . S
C2211 O2208 1.249 . S
C2211 O2209 1.267 1_565 S
Dy2212 O2216 2.398 . S
Dy2212 O2217 2.491 . S
Dy2212 O2218 2.403 . S
Dy2212 O2219 2.664 . S
Dy2212 O2223 2.326 . S
Dy2212 O2227 2.310 . S
Dy2212 O2228 2.351 . S
C2213 O2224 1.185 . S
C2213 O2225 1.355 . S
C2214 O2216 1.185 . S
C2214 O2217 1.355 . S
Dy2215 O2219 2.310 . S
Dy2215 O2222 2.351 . S
Dy2215 O2224 2.398 . S
Dy2215 O2225 2.491 . S
Dy2215 O2226 2.403 . S
Dy2215 O2227 2.664 . S
Dy2215 O2229 2.326 . S
O2216 Dy2212 2.398 . S
O2216 C2214 1.185 . S
O2217 Dy2212 2.491 . S
O2217 C2214 1.355 . S
O2218 Dy2212 2.403 . S
O2218 C2220 1.254 . S
O2219 Dy2212 2.664 . S
O2219 Dy2215 2.310 . S
O2219 C2220 1.268 . S
C2220 O2218 1.254 . S
C2220 O2219 1.268 . S
C2221 O2226 1.254 . S
C2221 O2227 1.268 . S
O2222 Dy2215 2.351 . S
O2222 C2230 1.249 . S
O2223 Dy2212 2.326 . S
O2223 C2230 1.267 . S
O2224 C2213 1.185 . S
O2224 Dy2215 2.398 . S
O2225 C2213 1.355 . S
O2225 Dy2215 2.491 . S
O2226 Dy2215 2.403 . S
O2226 C2221 1.254 . S
O2227 Dy2212 2.310 . S
O2227 Dy2215 2.664 . S
O2227 C2221 1.268 . S
O2228 Dy2212 2.351 . S
O2228 C2231 1.249 . S
O2229 Dy2215 2.326 . S
O2229 C2231 1.267 . S
C2230 O2222 1.249 . S
C2230 O2223 1.267 . S
C2231 O2228 1.249 . S
C2231 O2229 1.267 . S
Dy2232 O2236 2.398 . S
Dy2232 O2237 2.491 . S
Dy2232 O2238 2.403 1_545 S
Dy2232 O2239 2.664 . S
Dy2232 O2243 2.326 . S
Dy2232 O2247 2.310 . S
Dy2232 O2248 2.351 . S
C2233 O2244 1.185 . S
C2233 O2245 1.355 . S
C2234 O2236 1.185 . S
C2234 O2237 1.355 . S
Dy2235 O2239 2.310 1_556 S
Dy2235 O2242 2.351 1_556 S
Dy2235 O2244 2.398 . S
Dy2235 O2245 2.491 . S
Dy2235 O2246 2.403 1_556 S
Dy2235 O2247 2.664 1_556 S
Dy2235 O2249 2.326 1_556 S
O2236 Dy2232 2.398 . S
O2236 C2234 1.185 . S
O2237 Dy2232 2.491 . S
O2237 C2234 1.355 . S
O2238 Dy2232 2.403 1_565 S
O2238 C2240 1.254 . S
O2239 Dy2232 2.664 . S
O2239 Dy2235 2.310 1_554 S
O2239 C2240 1.268 1_545 S
C2240 O2238 1.254 . S
C2240 O2239 1.268 1_565 S
C2241 O2246 1.254 . S
C2241 O2247 1.268 . S
O2242 Dy2235 2.351 1_554 S
O2242 C2250 1.249 . S
O2243 Dy2232 2.326 . S
O2243 C2250 1.267 . S
O2244 C2233 1.185 . S
O2244 Dy2235 2.398 . S
O2245 C2233 1.355 . S
O2245 Dy2235 2.491 . S
O2246 Dy2235 2.403 1_554 S
O2246 C2241 1.254 . S
O2247 Dy2232 2.310 . S
O2247 Dy2235 2.664 1_554 S
O2247 C2241 1.268 . S
O2248 Dy2232 2.351 . S
O2248 C2251 1.249 . S
O2249 Dy2235 2.326 1_554 S
O2249 C2251 1.267 . S
C2250 O2242 1.249 . S
C2250 O2243 1.267 . S
C2251 O2248 1.249 . S
C2251 O2249 1.267 . S
Dy2252 O2256 2.398 . S
Dy2252 O2257 2.491 . S
Dy2252 O2258 2.403 . S
Dy2252 O2259 2.664 . S
Dy2252 O2263 2.326 . S
Dy2252 O2267 2.310 . S
Dy2252 O2268 2.351 . S
C2253 O2264 1.185 . S
C2253 O2265 1.355 . S
C2254 O2256 1.185 . S
C2254 O2257 1.355 . S
Dy2255 O2259 2.310 . S
Dy2255 O2262 2.351 . S
Dy2255 O2264 2.398 . S
Dy2255 O2265 2.491 . S
Dy2255 O2266 2.403 . S
Dy2255 O2267 2.664 . S
Dy2255 O2269 2.326 . S
O2256 Dy2252 2.398 . S
O2256 C2254 1.185 . S
O2257 Dy2252 2.491 . S
O2257 C2254 1.355 . S
O2258 Dy2252 2.403 . S
O2258 C2260 1.254 . S
O2259 Dy2252 2.664 . S
O2259 Dy2255 2.310 . S
O2259 C2260 1.268 . S
C2260 O2258 1.254 . S
C2260 O2259 1.268 . S
C2261 O2266 1.254 . S
C2261 O2267 1.268 . S
O2262 Dy2255 2.351 . S
O2262 C2270 1.249 . S
O2263 Dy2252 2.326 . S
O2263 C2270 1.267 . S
O2264 C2253 1.185 . S
O2264 Dy2255 2.398 . S
O2265 C2253 1.355 . S
O2265 Dy2255 2.491 . S
O2266 Dy2255 2.403 . S
O2266 C2261 1.254 . S
O2267 Dy2252 2.310 . S
O2267 Dy2255 2.664 . S
O2267 C2261 1.268 . S
O2268 Dy2252 2.351 . S
O2268 C2271 1.249 . S
O2269 Dy2255 2.326 . S
O2269 C2271 1.267 . S
C2270 O2262 1.249 . S
C2270 O2263 1.267 . S
C2271 O2268 1.249 . S
C2271 O2269 1.267 . S
Dy2272 O2276 2.398 . S
Dy2272 O2277 2.491 . S
Dy2272 O2278 2.403 . S
Dy2272 O2279 2.664 1_556 S
Dy2272 O2283 2.326 . S
Dy2272 O2287 2.310 1_556 S
Dy2272 O2288 2.351 1_556 S
C2273 O2284 1.185 . S
C2273 O2285 1.355 . S
C2274 O2276 1.185 . S
C2274 O2277 1.355 . S
Dy2275 O2279 2.310 . S
Dy2275 O2282 2.351 . S
Dy2275 O2284 2.398 . S
Dy2275 O2285 2.491 . S
Dy2275 O2286 2.403 . S
Dy2275 O2287 2.664 . S
Dy2275 O2289 2.326 . S
O2276 Dy2272 2.398 . S
O2276 C2274 1.185 . S
O2277 Dy2272 2.491 . S
O2277 C2274 1.355 . S
O2278 Dy2272 2.403 . S
O2278 C2280 1.254 1_556 S
O2279 Dy2272 2.664 1_554 S
O2279 Dy2275 2.310 . S
O2279 C2280 1.268 . S
C2280 O2278 1.254 1_554 S
C2280 O2279 1.268 . S
C2281 O2286 1.254 . S
C2281 O2287 1.268 . S
O2282 Dy2275 2.351 . S
O2282 C2290 1.249 . S
O2283 Dy2272 2.326 . S
O2283 C2290 1.267 1_556 S
O2284 C2273 1.185 . S
O2284 Dy2275 2.398 . S
O2285 C2273 1.355 . S
O2285 Dy2275 2.491 . S
O2286 Dy2275 2.403 . S
O2286 C2281 1.254 . S
O2287 Dy2272 2.310 1_554 S
O2287 Dy2275 2.664 . S
O2287 C2281 1.268 . S
O2288 Dy2272 2.351 1_554 S
O2288 C2291 1.249 . S
O2289 Dy2275 2.326 . S
O2289 C2291 1.267 . S
C2290 O2282 1.249 . S
C2290 O2283 1.267 1_554 S
C2291 O2288 1.249 . S
C2291 O2289 1.267 . S
Dy2292 O2296 2.398 . S
Dy2292 O2297 2.491 . S
Dy2292 O2298 2.403 . S
Dy2292 O2299 2.664 . S
Dy2292 O2303 2.326 . S
Dy2292 O2307 2.310 . S
Dy2292 O2308 2.351 . S
C2293 O2304 1.185 . S
C2293 O2305 1.355 . S
C2294 O2296 1.185 . S
C2294 O2297 1.355 . S
Dy2295 O2299 2.310 . S
Dy2295 O2302 2.351 . S
Dy2295 O2304 2.398 . S
Dy2295 O2305 2.491 . S
Dy2295 O2306 2.403 . S
Dy2295 O2307 2.664 . S
Dy2295 O2309 2.326 . S
O2296 Dy2292 2.398 . S
O2296 C2294 1.185 . S
O2297 Dy2292 2.491 . S
O2297 C2294 1.355 . S
O2298 Dy2292 2.403 . S
O2298 C2300 1.254 . S
O2299 Dy2292 2.664 . S
O2299 Dy2295 2.310 . S
O2299 C2300 1.268 . S
C2300 O2298 1.254 . S
C2300 O2299 1.268 . S
C2301 O2306 1.254 . S
C2301 O2307 1.268 . S
O2302 Dy2295 2.351 . S
O2302 C2310 1.249 . S
O2303 Dy2292 2.326 . S
O2303 C2310 1.267 . S
O2304 C2293 1.185 . S
O2304 Dy2295 2.398 . S
O2305 C2293 1.355 . S
O2305 Dy2295 2.491 . S
O2306 Dy2295 2.403 . S
O2306 C2301 1.254 . S
O2307 Dy2292 2.310 . S
O2307 Dy2295 2.664 . S
O2307 C2301 1.268 . S
O2308 Dy2292 2.351 . S
O2308 C2311 1.249 . S
O2309 Dy2295 2.326 . S
O2309 C2311 1.267 . S
C2310 O2302 1.249 . S
C2310 O2303 1.267 . S
C2311 O2308 1.249 . S
C2311 O2309 1.267 . S
Dy2312 O2316 2.397 . S
Dy2312 O2317 2.491 1_455 S
Dy2312 O2318 2.403 . S
Dy2312 O2319 2.664 . S
Dy2312 O2323 2.326 1_455 S
Dy2312 O2327 2.310 . S
Dy2312 O2328 2.351 . S
C2313 O2324 1.185 . S
C2313 O2325 1.355 . S
C2314 O2316 1.186 1_655 S
C2314 O2317 1.355 . S
Dy2315 O2319 2.310 . S
Dy2315 O2322 2.351 1_455 S
Dy2315 O2324 2.398 . S
Dy2315 O2325 2.491 . S
Dy2315 O2326 2.403 . S
Dy2315 O2327 2.664 . S
Dy2315 O2329 2.326 . S
O2316 Dy2312 2.397 . S
O2316 C2314 1.186 1_455 S
O2317 Dy2312 2.491 1_655 S
O2317 C2314 1.355 . S
O2318 Dy2312 2.403 . S
O2318 C2320 1.254 . S
O2319 Dy2312 2.664 . S
O2319 Dy2315 2.310 . S
O2319 C2320 1.268 . S
C2320 O2318 1.254 . S
C2320 O2319 1.268 . S
C2321 O2326 1.254 . S
C2321 O2327 1.268 . S
O2322 Dy2315 2.351 1_655 S
O2322 C2330 1.249 . S
O2323 Dy2312 2.326 1_655 S
O2323 C2330 1.267 . S
O2324 C2313 1.185 . S
O2324 Dy2315 2.398 . S
O2325 C2313 1.355 . S
O2325 Dy2315 2.491 . S
O2326 Dy2315 2.403 . S
O2326 C2321 1.254 . S
O2327 Dy2312 2.310 . S
O2327 Dy2315 2.664 . S
O2327 C2321 1.268 . S
O2328 Dy2312 2.351 . S
O2328 C2331 1.249 . S
O2329 Dy2315 2.326 . S
O2329 C2331 1.267 . S
C2330 O2322 1.249 . S
C2330 O2323 1.267 . S
C2331 O2328 1.249 . S
C2331 O2329 1.267 . S
Dy2332 O2336 2.398 . S
Dy2332 O2337 2.491 . S
Dy2332 O2338 2.403 . S
Dy2332 O2339 2.664 . S
Dy2332 O2343 2.326 . S
Dy2332 O2347 2.310 . S
Dy2332 O2348 2.351 . S
C2333 O2344 1.185 . S
C2333 O2345 1.355 . S
C2334 O2336 1.185 . S
C2334 O2337 1.355 . S
Dy2335 O2339 2.310 . S
Dy2335 O2342 2.351 . S
Dy2335 O2344 2.398 . S
Dy2335 O2345 2.491 . S
Dy2335 O2346 2.403 . S
Dy2335 O2347 2.664 . S
Dy2335 O2349 2.326 . S
O2336 Dy2332 2.398 . S
O2336 C2334 1.185 . S
O2337 Dy2332 2.491 . S
O2337 C2334 1.355 . S
O2338 Dy2332 2.403 . S
O2338 C2340 1.254 . S
O2339 Dy2332 2.664 . S
O2339 Dy2335 2.310 . S
O2339 C2340 1.268 . S
C2340 O2338 1.254 . S
C2340 O2339 1.268 . S
C2341 O2346 1.254 . S
C2341 O2347 1.268 . S
O2342 Dy2335 2.351 . S
O2342 C2350 1.249 . S
O2343 Dy2332 2.326 . S
O2343 C2350 1.267 . S
O2344 C2333 1.185 . S
O2344 Dy2335 2.398 . S
O2345 C2333 1.355 . S
O2345 Dy2335 2.491 . S
O2346 Dy2335 2.403 . S
O2346 C2341 1.254 . S
O2347 Dy2332 2.310 . S
O2347 Dy2335 2.664 . S
O2347 C2341 1.268 . S
O2348 Dy2332 2.351 . S
O2348 C2351 1.249 . S
O2349 Dy2335 2.326 . S
O2349 C2351 1.267 . S
C2350 O2342 1.249 . S
C2350 O2343 1.267 . S
C2351 O2348 1.249 . S
C2351 O2349 1.267 . S
Dy2352 O2356 2.398 . S
Dy2352 O2357 2.491 . S
Dy2352 O2358 2.403 . S
Dy2352 O2359 2.664 . S
Dy2352 O2363 2.326 . S
Dy2352 O2367 2.310 . S
Dy2352 O2368 2.351 . S
C2353 O2364 1.185 . S
C2353 O2365 1.355 . S
C2354 O2356 1.185 . S
C2354 O2357 1.355 . S
Dy2355 O2359 2.310 . S
Dy2355 O2362 2.351 . S
Dy2355 O2364 2.398 . S
Dy2355 O2365 2.491 . S
Dy2355 O2366 2.403 . S
Dy2355 O2367 2.664 . S
Dy2355 O2369 2.326 . S
O2356 Dy2352 2.398 . S
O2356 C2354 1.185 . S
O2357 Dy2352 2.491 . S
O2357 C2354 1.355 . S
O2358 Dy2352 2.403 . S
O2358 C2360 1.254 . S
O2359 Dy2352 2.664 . S
O2359 Dy2355 2.310 . S
O2359 C2360 1.268 . S
C2360 O2358 1.254 . S
C2360 O2359 1.268 . S
C2361 O2366 1.254 . S
C2361 O2367 1.268 . S
O2362 Dy2355 2.351 . S
O2362 C2370 1.249 . S
O2363 Dy2352 2.326 . S
O2363 C2370 1.267 . S
O2364 C2353 1.185 . S
O2364 Dy2355 2.398 . S
O2365 C2353 1.355 . S
O2365 Dy2355 2.491 . S
O2366 Dy2355 2.403 . S
O2366 C2361 1.254 . S
O2367 Dy2352 2.310 . S
O2367 Dy2355 2.664 . S
O2367 C2361 1.268 . S
O2368 Dy2352 2.351 . S
O2368 C2371 1.249 . S
O2369 Dy2355 2.326 . S
O2369 C2371 1.267 . S
C2370 O2362 1.249 . S
C2370 O2363 1.267 . S
C2371 O2368 1.249 . S
C2371 O2369 1.267 . S
Dy2372 O2376 2.398 . S
Dy2372 O2377 2.491 . S
Dy2372 O2378 2.403 . S
Dy2372 O2379 2.664 . S
Dy2372 O2383 2.326 . S
Dy2372 O2387 2.310 . S
Dy2372 O2388 2.351 . S
C2373 O2384 1.185 . S
C2373 O2385 1.355 . S
C2374 O2376 1.185 . S
C2374 O2377 1.355 . S
Dy2375 O2379 2.310 . S
Dy2375 O2382 2.351 . S
Dy2375 O2384 2.398 . S
Dy2375 O2385 2.491 . S
Dy2375 O2386 2.403 . S
Dy2375 O2387 2.664 . S
Dy2375 O2389 2.326 . S
O2376 Dy2372 2.398 . S
O2376 C2374 1.185 . S
O2377 Dy2372 2.491 . S
O2377 C2374 1.355 . S
O2378 Dy2372 2.403 . S
O2378 C2380 1.254 . S
O2379 Dy2372 2.664 . S
O2379 Dy2375 2.310 . S
O2379 C2380 1.268 . S
C2380 O2378 1.254 . S
C2380 O2379 1.268 . S
C2381 O2386 1.254 . S
C2381 O2387 1.268 . S
O2382 Dy2375 2.351 . S
O2382 C2390 1.249 . S
O2383 Dy2372 2.326 . S
O2383 C2390 1.267 . S
O2384 C2373 1.185 . S
O2384 Dy2375 2.398 . S
O2385 C2373 1.355 . S
O2385 Dy2375 2.491 . S
O2386 Dy2375 2.403 . S
O2386 C2381 1.254 . S
O2387 Dy2372 2.310 . S
O2387 Dy2375 2.664 . S
O2387 C2381 1.268 . S
O2388 Dy2372 2.351 . S
O2388 C2391 1.249 . S
O2389 Dy2375 2.326 . S
O2389 C2391 1.267 . S
C2390 O2382 1.249 . S
C2390 O2383 1.267 . S
C2391 O2388 1.249 . S
C2391 O2389 1.267 . S
Dy2392 O2396 2.398 . S
Dy2392 O2397 2.491 . S
Dy2392 O2398 2.403 . S
Dy2392 O2399 2.664 . S
Dy2392 O2403 2.326 . S
Dy2392 O2407 2.310 . S
Dy2392 O2408 2.351 . S
C2393 O2404 1.185 . S
C2393 O2405 1.355 . S
C2394 O2396 1.185 . S
C2394 O2397 1.355 . S
Dy2395 O2399 2.310 . S
Dy2395 O2402 2.351 . S
Dy2395 O2404 2.398 . S
Dy2395 O2405 2.491 . S
Dy2395 O2406 2.403 . S
Dy2395 O2407 2.664 . S
Dy2395 O2409 2.326 . S
O2396 Dy2392 2.398 . S
O2396 C2394 1.185 . S
O2397 Dy2392 2.491 . S
O2397 C2394 1.355 . S
O2398 Dy2392 2.403 . S
O2398 C2400 1.254 . S
O2399 Dy2392 2.664 . S
O2399 Dy2395 2.310 . S
O2399 C2400 1.268 . S
C2400 O2398 1.254 . S
C2400 O2399 1.268 . S
C2401 O2406 1.254 . S
C2401 O2407 1.268 . S
O2402 Dy2395 2.351 . S
O2402 C2410 1.249 . S
O2403 Dy2392 2.326 . S
O2403 C2410 1.267 . S
O2404 C2393 1.185 . S
O2404 Dy2395 2.398 . S
O2405 C2393 1.355 . S
O2405 Dy2395 2.491 . S
O2406 Dy2395 2.403 . S
O2406 C2401 1.254 . S
O2407 Dy2392 2.310 . S
O2407 Dy2395 2.664 . S
O2407 C2401 1.268 . S
O2408 Dy2392 2.351 . S
O2408 C2411 1.249 . S
O2409 Dy2395 2.326 . S
O2409 C2411 1.267 . S
C2410 O2402 1.249 . S
C2410 O2403 1.267 . S
C2411 O2408 1.249 . S
C2411 O2409 1.267 . S
Dy2412 O2416 2.398 1_554 S
Dy2412 O2417 2.491 . S
Dy2412 O2418 2.403 1_554 S
Dy2412 O2419 2.647 1_554 S
Dy2412 O2423 2.331 . S
Dy2412 O2427 2.310 . S
Dy2412 O2428 2.351 . S
C2413 O2424 1.185 . S
C2413 O2425 1.355 . S
C2414 O2416 1.185 1_554 S
C2414 O2417 1.355 . S
Dy2415 O2419 2.251 1_654 S
Dy2415 O2422 2.351 . S
Dy2415 O2424 2.398 . S
Dy2415 O2425 2.491 . S
Dy2415 O2426 2.403 . S
Dy2415 O2427 2.664 1_655 S
Dy2415 O2429 2.326 1_655 S
O2416 Dy2412 2.398 1_556 S
O2416 C2414 1.185 1_556 S
O2417 Dy2412 2.491 . S
O2417 C2414 1.355 . S
O2418 Dy2412 2.403 1_556 S
O2418 C2420 1.254 . S
O2419 Dy2412 2.647 1_556 S
O2419 Dy2415 2.251 1_456 S
O2419 C2420 1.336 . S
C2420 O2418 1.254 . S
C2420 O2419 1.336 . S
C2421 O2426 1.254 1_455 S
C2421 O2427 1.268 . S
O2422 Dy2415 2.351 . S
O2422 C2430 1.249 1_655 S
O2423 Dy2412 2.331 . S
O2423 C2430 1.281 . S
O2424 C2413 1.185 . S
O2424 Dy2415 2.398 . S
O2425 C2413 1.355 . S
O2425 Dy2415 2.491 . S
O2426 Dy2415 2.403 . S
O2426 C2421 1.254 1_655 S
O2427 Dy2412 2.310 . S
O2427 Dy2415 2.664 1_455 S
O2427 C2421 1.268 . S
O2428 Dy2412 2.351 . S
O2428 C2431 1.249 . S
O2429 Dy2415 2.326 1_455 S
O2429 C2431 1.267 . S
C2430 O2422 1.249 1_455 S
C2430 O2423 1.281 . S
C2431 O2428 1.249 . S
C2431 O2429 1.267 . S
C2432 C2433 1.349 . S
C2432 C2434 1.327 . S
C2432 H2457 0.950 . S
C2433 C2432 1.349 . S
C2433 C2449 1.349 1_655 S
C2434 C2432 1.327 . S
C2434 C2453 1.429 1_655 S
C2434 H2458 0.950 . S
C2435 C2452 1.574 . S
C2435 C2454 1.368 . S
C2435 H2459 0.949 . S
H2436 C2440 0.949 . S
C2437 C2438 1.360 . S
C2437 C2439 1.315 1_554 S
C2437 H2460 0.952 . S
C2438 C2437 1.360 . S
C2438 C2450 1.349 1_455 S
C2439 C2437 1.315 1_556 S
C2439 C2455 1.429 . S
C2439 H2461 0.950 . S
C2440 H2436 0.949 . S
C2440 C2448 1.574 . S
C2440 C2456 1.368 1_655 S
H2441 C2449 0.950 . S
H2442 C2447 0.950 . S
H2443 C2448 0.949 . S
H2444 C2450 0.950 . S
H2445 C2451 0.950 . S
H2446 C2452 0.949 . S
C2447 H2442 0.950 . S
C2447 C2449 1.327 . S
C2447 C2453 1.429 . S
C2448 C2440 1.574 . S
C2448 H2443 0.949 . S
C2448 C2454 1.368 1_655 S
C2449 C2433 1.349 1_455 S
C2449 H2441 0.950 . S
C2449 C2447 1.327 . S
C2450 C2438 1.349 1_655 S
C2450 H2444 0.950 . S
C2450 C2451 1.327 1_554 S
C2451 H2445 0.950 . S
C2451 C2450 1.327 1_556 S
C2451 C2455 1.429 1_655 S
C2452 C2435 1.574 . S
C2452 H2446 0.949 . S
C2452 C2456 1.368 . S
C2453 C2434 1.429 1_455 S
C2453 C2447 1.429 . S
C2453 C2454 1.523 . S
C2454 C2435 1.368 . S
C2454 C2448 1.368 1_455 S
C2454 C2453 1.523 . S
C2455 C2439 1.429 . S
C2455 C2451 1.429 1_455 S
C2455 C2456 1.523 . S
C2456 C2440 1.368 1_455 S
C2456 C2452 1.368 . S
C2456 C2455 1.523 . S
H2457 C2432 0.950 . S
H2458 C2434 0.950 . S
H2459 C2435 0.949 . S
H2460 C2437 0.952 . S
H2461 C2439 0.950 . S
C2462 C2463 1.349 . S
C2462 C2464 1.327 . S
C2462 H2487 0.950 . S
C2463 C2462 1.349 . S
C2463 C2479 1.349 . S
C2464 C2462 1.327 . S
C2464 C2483 1.429 . S
C2464 H2488 0.950 . S
C2465 C2482 1.574 . S
C2465 C2484 1.368 . S
C2465 H2489 0.949 . S
H2466 C2470 0.949 . S
C2467 C2468 1.349 . S
C2467 C2469 1.327 . S
C2467 H2490 0.950 . S
C2468 C2467 1.349 . S
C2468 C2480 1.349 . S
C2469 C2467 1.327 . S
C2469 C2485 1.429 . S
C2469 H2491 0.950 . S
C2470 H2466 0.949 . S
C2470 C2478 1.574 . S
C2470 C2486 1.368 . S
H2471 C2479 0.950 . S
H2472 C2477 0.950 . S
H2473 C2478 0.949 . S
H2474 C2480 0.950 . S
H2475 C2481 0.950 . S
H2476 C2482 0.949 . S
C2477 H2472 0.950 . S
C2477 C2479 1.327 . S
C2477 C2483 1.429 . S
C2478 C2470 1.574 . S
C2478 H2473 0.949 . S
C2478 C2484 1.368 . S
C2479 C2463 1.349 . S
C2479 H2471 0.950 . S
C2479 C2477 1.327 . S
C2480 C2468 1.349 . S
C2480 H2474 0.950 . S
C2480 C2481 1.327 . S
C2481 H2475 0.950 . S
C2481 C2480 1.327 . S
C2481 C2485 1.429 . S
C2482 C2465 1.574 . S
C2482 H2476 0.949 . S
C2482 C2486 1.368 . S
C2483 C2464 1.429 . S
C2483 C2477 1.429 . S
C2483 C2484 1.523 . S
C2484 C2465 1.368 . S
C2484 C2478 1.368 . S
C2484 C2483 1.523 . S
C2485 C2469 1.429 . S
C2485 C2481 1.429 . S
C2485 C2486 1.523 . S
C2486 C2470 1.368 . S
C2486 C2482 1.368 . S
C2486 C2485 1.523 . S
H2487 C2462 0.950 . S
H2488 C2464 0.950 . S
H2489 C2465 0.949 . S
H2490 C2467 0.950 . S
H2491 C2469 0.950 . S
C2492 C2493 1.349 . S
C2492 C2494 1.327 . S
C2492 H2517 0.950 . S
C2493 C2492 1.349 . S
C2493 C2509 1.349 . S
C2494 C2492 1.327 . S
C2494 C2513 1.429 . S
C2494 H2518 0.950 . S
C2495 C2512 1.574 . S
C2495 C2514 1.368 . S
C2495 H2519 0.949 . S
H2496 C2500 0.949 . S
C2497 C2498 1.349 . S
C2497 C2499 1.327 . S
C2497 H2520 0.950 . S
C2498 C2497 1.349 . S
C2498 C2510 1.349 . S
C2499 C2497 1.327 . S
C2499 C2515 1.429 . S
C2499 H2521 0.950 . S
C2500 H2496 0.949 . S
C2500 C2508 1.574 . S
C2500 C2516 1.368 . S
H2501 C2509 0.950 . S
H2502 C2507 0.950 . S
H2503 C2508 0.949 . S
H2504 C2510 0.950 . S
H2505 C2511 0.950 . S
H2506 C2512 0.949 . S
C2507 H2502 0.950 . S
C2507 C2509 1.327 . S
C2507 C2513 1.429 . S
C2508 C2500 1.574 . S
C2508 H2503 0.949 . S
C2508 C2514 1.368 . S
C2509 C2493 1.349 . S
C2509 H2501 0.950 . S
C2509 C2507 1.327 . S
C2510 C2498 1.349 . S
C2510 H2504 0.950 . S
C2510 C2511 1.327 . S
C2511 H2505 0.950 . S
C2511 C2510 1.327 . S
C2511 C2515 1.429 . S
C2512 C2495 1.574 . S
C2512 H2506 0.949 . S
C2512 C2516 1.368 . S
C2513 C2494 1.429 . S
C2513 C2507 1.429 . S
C2513 C2514 1.523 . S
C2514 C2495 1.368 . S
C2514 C2508 1.368 . S
C2514 C2513 1.523 . S
C2515 C2499 1.429 . S
C2515 C2511 1.429 . S
C2515 C2516 1.523 . S
C2516 C2500 1.368 . S
C2516 C2512 1.368 . S
C2516 C2515 1.523 . S
H2517 C2492 0.950 . S
H2518 C2494 0.950 . S
H2519 C2495 0.949 . S
H2520 C2497 0.950 . S
H2521 C2499 0.950 . S
C2522 C2523 1.349 . S
C2522 C2524 1.327 . S
C2522 H2547 0.950 . S
C2523 C2522 1.349 . S
C2523 C2539 1.349 . S
C2524 C2522 1.327 . S
C2524 C2543 1.429 . S
C2524 H2548 0.950 . S
C2525 C2542 1.574 . S
C2525 C2544 1.368 . S
C2525 H2549 0.949 . S
H2526 C2530 0.949 . S
C2527 C2528 1.349 . S
C2527 C2529 1.327 . S
C2527 H2550 0.950 . S
C2528 C2527 1.349 . S
C2528 C2540 1.349 . S
C2529 C2527 1.327 . S
C2529 C2545 1.429 . S
C2529 H2551 0.950 . S
C2530 H2526 0.949 . S
C2530 C2538 1.574 . S
C2530 C2546 1.368 . S
H2531 C2539 0.950 . S
H2532 C2537 0.950 . S
H2533 C2538 0.949 . S
H2534 C2540 0.950 . S
H2535 C2541 0.950 . S
H2536 C2542 0.949 . S
C2537 H2532 0.950 . S
C2537 C2539 1.327 . S
C2537 C2543 1.429 . S
C2538 C2530 1.574 . S
C2538 H2533 0.949 . S
C2538 C2544 1.368 . S
C2539 C2523 1.349 . S
C2539 H2531 0.950 . S
C2539 C2537 1.327 . S
C2540 C2528 1.349 . S
C2540 H2534 0.950 . S
C2540 C2541 1.327 . S
C2541 H2535 0.950 . S
C2541 C2540 1.327 . S
C2541 C2545 1.429 . S
C2542 C2525 1.574 . S
C2542 H2536 0.949 . S
C2542 C2546 1.368 . S
C2543 C2524 1.429 . S
C2543 C2537 1.429 . S
C2543 C2544 1.523 . S
C2544 C2525 1.368 . S
C2544 C2538 1.368 . S
C2544 C2543 1.523 . S
C2545 C2529 1.429 . S
C2545 C2541 1.429 . S
C2545 C2546 1.523 . S
C2546 C2530 1.368 . S
C2546 C2542 1.368 . S
C2546 C2545 1.523 . S
H2547 C2522 0.950 . S
H2548 C2524 0.950 . S
H2549 C2525 0.949 . S
H2550 C2527 0.950 . S
H2551 C2529 0.950 . S
C2552 C2553 1.349 . S
C2552 C2554 1.327 . S
C2552 H2577 0.950 1_455 S
C2553 C2552 1.349 . S
C2553 C2569 1.349 . S
C2554 C2552 1.327 . S
C2554 C2573 1.429 . S
C2554 H2578 0.950 1_455 S
C2555 C2572 1.574 . S
C2555 C2574 1.368 . S
C2555 H2579 0.949 . S
H2556 C2560 0.949 1_655 S
C2557 C2558 1.349 . S
C2557 C2559 1.327 . S
C2557 H2580 0.950 . S
C2558 C2557 1.349 . S
C2558 C2570 1.349 . S
C2559 C2557 1.327 . S
C2559 C2575 1.429 . S
C2559 H2581 0.950 . S
C2560 H2556 0.949 1_455 S
C2560 C2568 1.574 . S
C2560 C2576 1.368 . S
H2561 C2569 0.950 . S
H2562 C2567 0.950 . S
H2563 C2568 0.949 1_655 S
H2564 C2570 0.950 . S
H2565 C2571 0.930 1_655 S
H2566 C2572 0.949 . S
C2567 H2562 0.950 . S
C2567 C2569 1.327 . S
C2567 C2573 1.429 . S
C2568 C2560 1.574 . S
C2568 H2563 0.949 1_455 S
C2568 C2574 1.368 . S
C2569 C2553 1.349 . S
C2569 H2561 0.950 . S
C2569 C2567 1.327 . S
C2570 C2558 1.349 . S
C2570 H2564 0.950 . S
C2570 C2571 1.327 . S
C2571 H2565 0.930 1_455 S
C2571 C2570 1.327 . S
C2571 C2575 1.429 . S
C2572 C2555 1.574 . S
C2572 H2566 0.949 . S
C2572 C2576 1.368 . S
C2573 C2554 1.429 . S
C2573 C2567 1.429 . S
C2573 C2574 1.523 . S
C2574 C2555 1.368 . S
C2574 C2568 1.368 . S
C2574 C2573 1.523 . S
C2575 C2559 1.429 . S
C2575 C2571 1.429 . S
C2575 C2576 1.523 . S
C2576 C2560 1.368 . S
C2576 C2572 1.368 . S
C2576 C2575 1.523 . S
H2577 C2552 0.950 1_655 S
H2578 C2554 0.950 1_655 S
H2579 C2555 0.949 . S
H2580 C2557 0.950 . S
H2581 C2559 0.950 . S
C2582 C2583 1.349 . S
C2582 C2584 1.327 . S
C2582 H2607 0.950 . S
C2583 C2582 1.349 . S
C2583 C2599 1.349 . S
C2584 C2582 1.327 . S
C2584 C2603 1.429 . S
C2584 H2608 0.950 . S
C2585 C2602 1.574 . S
C2585 C2604 1.368 . S
C2585 H2609 0.949 . S
H2586 C2590 0.949 . S
C2587 C2588 1.349 . S
C2587 C2589 1.327 . S
C2587 H2610 0.950 . S
C2588 C2587 1.349 . S
C2588 C2600 1.349 . S
C2589 C2587 1.327 . S
C2589 C2605 1.429 . S
C2589 H2611 0.950 . S
C2590 H2586 0.949 . S
C2590 C2598 1.574 . S
C2590 C2606 1.368 . S
H2591 C2599 0.950 . S
H2592 C2597 0.950 . S
H2593 C2598 0.949 . S
H2594 C2600 0.950 . S
H2595 C2601 0.950 . S
H2596 C2602 0.949 . S
C2597 H2592 0.950 . S
C2597 C2599 1.327 . S
C2597 C2603 1.429 . S
C2598 C2590 1.574 . S
C2598 H2593 0.949 . S
C2598 C2604 1.368 . S
C2599 C2583 1.349 . S
C2599 H2591 0.950 . S
C2599 C2597 1.327 . S
C2600 C2588 1.349 . S
C2600 H2594 0.950 . S
C2600 C2601 1.327 . S
C2601 H2595 0.950 . S
C2601 C2600 1.327 . S
C2601 C2605 1.429 . S
C2602 C2585 1.574 . S
C2602 H2596 0.949 . S
C2602 C2606 1.368 . S
C2603 C2584 1.429 . S
C2603 C2597 1.429 . S
C2603 C2604 1.523 . S
C2604 C2585 1.368 . S
C2604 C2598 1.368 . S
C2604 C2603 1.523 . S
C2605 C2589 1.429 . S
C2605 C2601 1.429 . S
C2605 C2606 1.523 . S
C2606 C2590 1.368 . S
C2606 C2602 1.368 . S
C2606 C2605 1.523 . S
H2607 C2582 0.950 . S
H2608 C2584 0.950 . S
H2609 C2585 0.949 . S
H2610 C2587 0.950 . S
H2611 C2589 0.950 . S
C2612 C2613 1.349 . S
C2612 C2614 1.327 . S
C2612 H2637 0.950 . S
C2613 C2612 1.349 . S
C2613 C2629 1.349 . S
C2614 C2612 1.327 . S
C2614 C2633 1.429 . S
C2614 H2638 0.950 . S
C2615 C2632 1.574 . S
C2615 C2634 1.368 . S
C2615 H2639 0.949 . S
H2616 C2620 0.949 . S
C2617 C2618 1.349 . S
C2617 C2619 1.327 . S
C2617 H2640 0.950 . S
C2618 C2617 1.349 . S
C2618 C2630 1.349 . S
C2619 C2617 1.327 . S
C2619 C2635 1.429 . S
C2619 H2641 0.950 . S
C2620 H2616 0.949 . S
C2620 C2628 1.574 . S
C2620 C2636 1.368 . S
H2621 C2629 0.950 . S
H2622 C2627 0.950 . S
H2623 C2628 0.949 . S
H2624 C2630 0.950 . S
H2625 C2631 0.950 . S
H2626 C2632 0.949 . S
C2627 H2622 0.950 . S
C2627 C2629 1.327 . S
C2627 C2633 1.429 . S
C2628 C2620 1.574 . S
C2628 H2623 0.949 . S
C2628 C2634 1.368 . S
C2629 C2613 1.349 . S
C2629 H2621 0.950 . S
C2629 C2627 1.327 . S
C2630 C2618 1.349 . S
C2630 H2624 0.950 . S
C2630 C2631 1.327 . S
C2631 H2625 0.950 . S
C2631 C2630 1.327 . S
C2631 C2635 1.429 . S
C2632 C2615 1.574 . S
C2632 H2626 0.949 . S
C2632 C2636 1.368 . S
C2633 C2614 1.429 . S
C2633 C2627 1.429 . S
C2633 C2634 1.523 . S
C2634 C2615 1.368 . S
C2634 C2628 1.368 . S
C2634 C2633 1.523 . S
C2635 C2619 1.429 . S
C2635 C2631 1.429 . S
C2635 C2636 1.523 . S
C2636 C2620 1.368 . S
C2636 C2632 1.368 . S
C2636 C2635 1.523 . S
H2637 C2612 0.950 . S
H2638 C2614 0.950 . S
H2639 C2615 0.949 . S
H2640 C2617 0.950 . S
H2641 C2619 0.950 . S
C2642 C2643 1.349 . S
C2642 C2644 1.327 . S
C2642 H2667 0.950 . S
C2643 C2642 1.349 . S
C2643 C2659 1.349 . S
C2644 C2642 1.327 . S
C2644 C2663 1.429 . S
C2644 H2668 0.950 . S
C2645 C2662 1.574 . S
C2645 C2664 1.368 . S
C2645 H2669 0.949 . S
H2646 C2650 0.949 . S
C2647 C2648 1.349 . S
C2647 C2649 1.327 . S
C2647 H2670 0.950 . S
C2648 C2647 1.349 . S
C2648 C2660 1.349 . S
C2649 C2647 1.327 . S
C2649 C2665 1.429 . S
C2649 H2671 0.950 . S
C2650 H2646 0.949 . S
C2650 C2658 1.574 . S
C2650 C2666 1.368 . S
H2651 C2659 0.950 . S
H2652 C2657 0.950 . S
H2653 C2658 0.949 . S
H2654 C2660 0.950 . S
H2655 C2661 0.950 . S
H2656 C2662 0.949 . S
C2657 H2652 0.950 . S
C2657 C2659 1.327 . S
C2657 C2663 1.429 . S
C2658 C2650 1.574 . S
C2658 H2653 0.949 . S
C2658 C2664 1.368 . S
C2659 C2643 1.349 . S
C2659 H2651 0.950 . S
C2659 C2657 1.327 . S
C2660 C2648 1.349 . S
C2660 H2654 0.950 . S
C2660 C2661 1.327 . S
C2661 H2655 0.950 . S
C2661 C2660 1.327 . S
C2661 C2665 1.429 . S
C2662 C2645 1.574 . S
C2662 H2656 0.949 . S
C2662 C2666 1.368 . S
C2663 C2644 1.429 . S
C2663 C2657 1.429 . S
C2663 C2664 1.523 . S
C2664 C2645 1.368 . S
C2664 C2658 1.368 . S
C2664 C2663 1.523 . S
C2665 C2649 1.429 . S
C2665 C2661 1.429 . S
C2665 C2666 1.523 . S
C2666 C2650 1.368 . S
C2666 C2662 1.368 . S
C2666 C2665 1.523 . S
H2667 C2642 0.950 . S
H2668 C2644 0.950 . S
H2669 C2645 0.949 . S
H2670 C2647 0.950 . S
H2671 C2649 0.950 . S
C2672 C2673 1.349 . S
C2672 C2674 1.327 . S
C2672 H2697 0.950 . S
C2673 C2672 1.349 . S
C2673 C2689 1.349 . S
C2674 C2672 1.327 . S
C2674 C2693 1.429 . S
C2674 H2698 0.950 . S
C2675 C2692 1.574 . S
C2675 C2694 1.368 . S
C2675 H2699 0.949 . S
H2676 C2680 0.949 . S
C2677 C2678 1.349 . S
C2677 C2679 1.327 . S
C2677 H2700 0.950 . S
C2678 C2677 1.349 . S
C2678 C2690 1.349 1_655 S
C2679 C2677 1.327 . S
C2679 C2695 1.429 . S
C2679 H2701 0.950 . S
C2680 H2676 0.949 . S
C2680 C2688 1.574 . S
C2680 C2696 1.368 . S
H2681 C2689 0.950 . S
H2682 C2687 0.950 . S
H2683 C2688 0.949 . S
H2684 C2690 0.950 . S
H2685 C2691 0.950 1_455 S
H2686 C2692 0.949 . S
C2687 H2682 0.950 . S
C2687 C2689 1.327 . S
C2687 C2693 1.429 . S
C2688 C2680 1.574 . S
C2688 H2683 0.949 . S
C2688 C2694 1.368 . S
C2689 C2673 1.349 . S
C2689 H2681 0.950 . S
C2689 C2687 1.327 . S
C2690 C2678 1.349 1_455 S
C2690 H2684 0.950 . S
C2690 C2691 1.327 1_455 S
C2691 H2685 0.950 1_655 S
C2691 C2690 1.327 1_655 S
C2691 C2695 1.429 . S
C2692 C2675 1.574 . S
C2692 H2686 0.949 . S
C2692 C2696 1.368 . S
C2693 C2674 1.429 . S
C2693 C2687 1.429 . S
C2693 C2694 1.523 . S
C2694 C2675 1.368 . S
C2694 C2688 1.368 . S
C2694 C2693 1.523 . S
C2695 C2679 1.429 . S
C2695 C2691 1.429 . S
C2695 C2696 1.523 . S
C2696 C2680 1.368 . S
C2696 C2692 1.368 . S
C2696 C2695 1.523 . S
H2697 C2672 0.950 . S
H2698 C2674 0.950 . S
H2699 C2675 0.949 . S
H2700 C2677 0.950 . S
H2701 C2679 0.950 . S
C2702 C2703 1.349 . S
C2702 C2704 1.327 . S
C2702 H2727 0.950 . S
C2703 C2702 1.349 . S
C2703 C2719 1.349 . S
C2704 C2702 1.327 . S
C2704 C2723 1.429 . S
C2704 H2728 0.950 . S
C2705 C2722 1.574 . S
C2705 C2724 1.368 . S
C2705 H2729 0.949 . S
H2706 C2710 0.949 . S
C2707 C2708 1.349 . S
C2707 C2709 1.327 . S
C2707 H2730 0.950 . S
C2708 C2707 1.349 . S
C2708 C2720 1.349 . S
C2709 C2707 1.327 . S
C2709 C2725 1.429 . S
C2709 H2731 0.950 . S
C2710 H2706 0.949 . S
C2710 C2718 1.574 . S
C2710 C2726 1.368 . S
H2711 C2719 0.950 . S
H2712 C2717 0.950 . S
H2713 C2718 0.949 . S
H2714 C2720 0.950 . S
H2715 C2721 0.950 . S
H2716 C2722 0.949 . S
C2717 H2712 0.950 . S
C2717 C2719 1.327 . S
C2717 C2723 1.429 . S
C2718 C2710 1.574 . S
C2718 H2713 0.949 . S
C2718 C2724 1.368 . S
C2719 C2703 1.349 . S
C2719 H2711 0.950 . S
C2719 C2717 1.327 . S
C2720 C2708 1.349 . S
C2720 H2714 0.950 . S
C2720 C2721 1.327 . S
C2721 H2715 0.950 . S
C2721 C2720 1.327 . S
C2721 C2725 1.429 . S
C2722 C2705 1.574 . S
C2722 H2716 0.949 . S
C2722 C2726 1.368 . S
C2723 C2704 1.429 . S
C2723 C2717 1.429 . S
C2723 C2724 1.523 . S
C2724 C2705 1.368 . S
C2724 C2718 1.368 . S
C2724 C2723 1.523 . S
C2725 C2709 1.429 . S
C2725 C2721 1.429 . S
C2725 C2726 1.523 . S
C2726 C2710 1.368 . S
C2726 C2722 1.368 . S
C2726 C2725 1.523 . S
H2727 C2702 0.950 . S
H2728 C2704 0.950 . S
H2729 C2705 0.949 . S
H2730 C2707 0.950 . S
H2731 C2709 0.950 . S
C2732 C2733 1.349 . S
C2732 C2734 1.327 . S
C2732 H2757 0.950 . S
C2733 C2732 1.349 . S
C2733 C2749 1.349 . S
C2734 C2732 1.327 . S
C2734 C2753 1.429 . S
C2734 H2758 0.950 . S
C2735 C2752 1.574 . S
C2735 C2754 1.368 . S
C2735 H2759 0.949 1_545 S
H2736 C2740 0.949 . S
C2737 C2738 1.349 . S
C2737 C2739 1.327 . S
C2737 H2760 0.950 1_545 S
C2738 C2737 1.349 . S
C2738 C2750 1.349 . S
C2739 C2737 1.327 . S
C2739 C2755 1.429 . S
C2739 H2761 0.950 1_545 S
C2740 H2736 0.949 . S
C2740 C2748 1.574 . S
C2740 C2756 1.368 . S
H2741 C2749 0.950 1_565 S
H2742 C2747 0.950 1_565 S
H2743 C2748 0.949 . S
H2744 C2750 0.950 . S
H2745 C2751 0.950 . S
H2746 C2752 0.949 1_565 S
C2747 H2742 0.950 1_545 S
C2747 C2749 1.327 . S
C2747 C2753 1.429 . S
C2748 C2740 1.574 . S
C2748 H2743 0.949 . S
C2748 C2754 1.368 . S
C2749 C2733 1.349 . S
C2749 H2741 0.950 1_545 S
C2749 C2747 1.327 . S
C2750 C2738 1.349 . S
C2750 H2744 0.950 . S
C2750 C2751 1.327 . S
C2751 H2745 0.950 . S
C2751 C2750 1.327 . S
C2751 C2755 1.429 . S
C2752 C2735 1.574 . S
C2752 H2746 0.949 1_545 S
C2752 C2756 1.368 . S
C2753 C2734 1.429 . S
C2753 C2747 1.429 . S
C2753 C2754 1.523 . S
C2754 C2735 1.368 . S
C2754 C2748 1.368 . S
C2754 C2753 1.523 . S
C2755 C2739 1.429 . S
C2755 C2751 1.429 . S
C2755 C2756 1.523 . S
C2756 C2740 1.368 . S
C2756 C2752 1.368 . S
C2756 C2755 1.523 . S
H2757 C2732 0.950 . S
H2758 C2734 0.950 . S
H2759 C2735 0.949 1_565 S
H2760 C2737 0.950 1_565 S
H2761 C2739 0.950 1_565 S
C2762 C2763 1.349 . S
C2762 C2764 1.327 . S
C2762 H2787 0.950 . S
C2763 C2762 1.349 . S
C2763 C2779 1.349 . S
C2764 C2762 1.327 . S
C2764 C2783 1.429 . S
C2764 H2788 0.950 . S
C2765 C2782 1.574 . S
C2765 C2784 1.368 . S
C2765 H2789 0.949 . S
H2766 C2770 0.949 . S
C2767 C2768 1.349 . S
C2767 C2769 1.327 . S
C2767 H2790 0.950 . S
C2768 C2767 1.349 . S
C2768 C2780 1.349 . S
C2769 C2767 1.327 . S
C2769 C2785 1.429 . S
C2769 H2791 0.950 . S
C2770 H2766 0.949 . S
C2770 C2778 1.574 . S
C2770 C2786 1.368 . S
H2771 C2779 0.950 . S
H2772 C2777 0.950 . S
H2773 C2778 0.949 . S
H2774 C2780 0.950 . S
H2775 C2781 0.950 . S
H2776 C2782 0.949 . S
C2777 H2772 0.950 . S
C2777 C2779 1.327 . S
C2777 C2783 1.429 . S
C2778 C2770 1.574 . S
C2778 H2773 0.949 . S
C2778 C2784 1.368 . S
C2779 C2763 1.349 . S
C2779 H2771 0.950 . S
C2779 C2777 1.327 . S
C2780 C2768 1.349 . S
C2780 H2774 0.950 . S
C2780 C2781 1.327 . S
C2781 H2775 0.950 . S
C2781 C2780 1.327 . S
C2781 C2785 1.429 . S
C2782 C2765 1.574 . S
C2782 H2776 0.949 . S
C2782 C2786 1.368 . S
C2783 C2764 1.429 . S
C2783 C2777 1.429 . S
C2783 C2784 1.523 . S
C2784 C2765 1.368 . S
C2784 C2778 1.368 . S
C2784 C2783 1.523 . S
C2785 C2769 1.429 . S
C2785 C2781 1.429 . S
C2785 C2786 1.523 . S
C2786 C2770 1.368 . S
C2786 C2782 1.368 . S
C2786 C2785 1.523 . S
H2787 C2762 0.950 . S
H2788 C2764 0.950 . S
H2789 C2765 0.949 . S
H2790 C2767 0.950 . S
H2791 C2769 0.950 . S
C2792 C2793 1.349 . S
C2792 C2794 1.327 . S
C2792 H2817 0.950 . S
C2793 C2792 1.349 . S
C2793 C2809 1.349 . S
C2794 C2792 1.327 . S
C2794 C2813 1.429 . S
C2794 H2818 0.950 . S
C2795 C2812 1.574 . S
C2795 C2814 1.368 . S
C2795 H2819 0.949 . S
H2796 C2800 0.949 . S
C2797 C2798 1.335 1_455 S
C2797 C2799 1.317 1_455 S
C2797 H2820 0.975 . S
C2798 C2797 1.335 1_655 S
C2798 C2810 1.349 . S
C2799 C2797 1.317 1_655 S
C2799 C2815 1.429 . S
C2799 H2821 0.979 . S
C2800 H2796 0.949 . S
C2800 C2808 1.574 . S
C2800 C2816 1.368 . S
H2801 C2809 0.950 . S
H2802 C2807 0.950 . S
H2803 C2808 0.949 . S
H2804 C2810 0.950 . S
H2805 C2811 0.950 . S
H2806 C2812 0.949 . S
C2807 H2802 0.950 . S
C2807 C2809 1.327 . S
C2807 C2813 1.429 . S
C2808 C2800 1.574 . S
C2808 H2803 0.949 . S
C2808 C2814 1.368 . S
C2809 C2793 1.349 . S
C2809 H2801 0.950 . S
C2809 C2807 1.327 . S
C2810 C2798 1.349 . S
C2810 H2804 0.950 . S
C2810 C2811 1.327 . S
C2811 H2805 0.950 . S
C2811 C2810 1.327 . S
C2811 C2815 1.429 . S
C2812 C2795 1.574 . S
C2812 H2806 0.949 . S
C2812 C2816 1.368 . S
C2813 C2794 1.429 . S
C2813 C2807 1.429 . S
C2813 C2814 1.523 . S
C2814 C2795 1.368 . S
C2814 C2808 1.368 . S
C2814 C2813 1.523 . S
C2815 C2799 1.429 . S
C2815 C2811 1.429 . S
C2815 C2816 1.523 . S
C2816 C2800 1.368 . S
C2816 C2812 1.368 . S
C2816 C2815 1.523 . S
H2817 C2792 0.950 . S
H2818 C2794 0.950 . S
H2819 C2795 0.949 . S
H2820 C2797 0.975 . S
H2821 C2799 0.979 . S
C2822 C2823 1.349 . S
C2822 C2824 1.327 . S
C2822 H2847 0.950 . S
C2823 C2822 1.349 . S
C2823 C2839 1.349 . S
C2824 C2822 1.327 . S
C2824 C2843 1.429 . S
C2824 H2848 0.950 . S
C2825 C2842 1.574 . S
C2825 C2844 1.368 . S
C2825 H2849 0.949 . S
H2826 C2830 0.949 . S
C2827 C2828 1.349 . S
C2827 C2829 1.327 . S
C2827 H2850 0.950 . S
C2828 C2827 1.349 . S
C2828 C2840 1.349 . S
C2829 C2827 1.327 . S
C2829 C2845 1.429 . S
C2829 H2851 0.950 . S
C2830 H2826 0.949 . S
C2830 C2838 1.574 . S
C2830 C2846 1.368 . S
H2831 C2839 0.950 . S
H2832 C2837 0.950 . S
H2833 C2838 0.949 . S
H2834 C2840 0.950 . S
H2835 C2841 0.950 . S
H2836 C2842 0.949 . S
C2837 H2832 0.950 . S
C2837 C2839 1.327 . S
C2837 C2843 1.429 . S
C2838 C2830 1.574 . S
C2838 H2833 0.949 . S
C2838 C2844 1.368 . S
C2839 C2823 1.349 . S
C2839 H2831 0.950 . S
C2839 C2837 1.327 . S
C2840 C2828 1.349 . S
C2840 H2834 0.950 . S
C2840 C2841 1.327 . S
C2841 H2835 0.950 . S
C2841 C2840 1.327 . S
C2841 C2845 1.429 . S
C2842 C2825 1.574 . S
C2842 H2836 0.949 . S
C2842 C2846 1.368 . S
C2843 C2824 1.429 . S
C2843 C2837 1.429 . S
C2843 C2844 1.523 . S
C2844 C2825 1.368 . S
C2844 C2838 1.368 . S
C2844 C2843 1.523 . S
C2845 C2829 1.429 . S
C2845 C2841 1.429 . S
C2845 C2846 1.523 . S
C2846 C2830 1.368 . S
C2846 C2842 1.368 . S
C2846 C2845 1.523 . S
H2847 C2822 0.950 . S
H2848 C2824 0.950 . S
H2849 C2825 0.949 . S
H2850 C2827 0.950 . S
H2851 C2829 0.950 . S
C2852 C2853 1.349 . S
C2852 C2854 1.327 . S
C2852 H2877 0.950 . S
C2853 C2852 1.349 . S
C2853 C2869 1.349 . S
C2854 C2852 1.327 . S
C2854 C2873 1.429 . S
C2854 H2878 0.950 . S
C2855 C2872 1.574 . S
C2855 C2874 1.368 . S
C2855 H2879 0.949 . S
H2856 C2860 0.949 . S
C2857 C2858 1.349 . S
C2857 C2859 1.327 . S
C2857 H2880 0.950 . S
C2858 C2857 1.349 . S
C2858 C2870 1.349 . S
C2859 C2857 1.327 . S
C2859 C2875 1.429 . S
C2859 H2881 0.950 . S
C2860 H2856 0.949 . S
C2860 C2868 1.574 . S
C2860 C2876 1.368 . S
H2861 C2869 0.950 . S
H2862 C2867 0.950 . S
H2863 C2868 0.949 . S
H2864 C2870 0.950 . S
H2865 C2871 0.950 . S
H2866 C2872 0.949 . S
C2867 H2862 0.950 . S
C2867 C2869 1.327 . S
C2867 C2873 1.429 . S
C2868 C2860 1.574 . S
C2868 H2863 0.949 . S
C2868 C2874 1.368 . S
C2869 C2853 1.349 . S
C2869 H2861 0.950 . S
C2869 C2867 1.327 . S
C2870 C2858 1.349 . S
C2870 H2864 0.950 . S
C2870 C2871 1.327 . S
C2871 H2865 0.950 . S
C2871 C2870 1.327 . S
C2871 C2875 1.429 . S
C2872 C2855 1.574 . S
C2872 H2866 0.949 . S
C2872 C2876 1.368 . S
C2873 C2854 1.429 . S
C2873 C2867 1.429 . S
C2873 C2874 1.523 . S
C2874 C2855 1.368 . S
C2874 C2868 1.368 . S
C2874 C2873 1.523 . S
C2875 C2859 1.429 . S
C2875 C2871 1.429 . S
C2875 C2876 1.523 . S
C2876 C2860 1.368 . S
C2876 C2872 1.368 . S
C2876 C2875 1.523 . S
H2877 C2852 0.950 . S
H2878 C2854 0.950 . S
H2879 C2855 0.949 . S
H2880 C2857 0.950 . S
H2881 C2859 0.950 . S
C2882 C2883 1.349 . S
C2882 C2884 1.327 . S
C2882 H2907 0.950 . S
C2883 C2882 1.349 . S
C2883 C2899 1.349 . S
C2884 C2882 1.327 . S
C2884 C2903 1.429 . S
C2884 H2908 0.950 . S
C2885 C2902 1.574 . S
C2885 C2904 1.368 . S
C2885 H2909 0.949 . S
H2886 C2890 0.949 . S
C2887 C2888 1.349 . S
C2887 C2889 1.327 . S
C2887 H2910 0.950 . S
C2888 C2887 1.349 . S
C2888 C2900 1.349 . S
C2889 C2887 1.327 . S
C2889 C2905 1.429 . S
C2889 H2911 0.950 . S
C2890 H2886 0.949 . S
C2890 C2898 1.574 . S
C2890 C2906 1.368 . S
H2891 C2899 0.950 . S
H2892 C2897 0.950 . S
H2893 C2898 0.949 . S
H2894 C2900 0.950 . S
H2895 C2901 0.950 . S
H2896 C2902 0.949 . S
C2897 H2892 0.950 . S
C2897 C2899 1.327 . S
C2897 C2903 1.429 . S
C2898 C2890 1.574 . S
C2898 H2893 0.949 . S
C2898 C2904 1.368 . S
C2899 C2883 1.349 . S
C2899 H2891 0.950 . S
C2899 C2897 1.327 . S
C2900 C2888 1.349 . S
C2900 H2894 0.950 . S
C2900 C2901 1.327 . S
C2901 H2895 0.950 . S
C2901 C2900 1.327 . S
C2901 C2905 1.429 . S
C2902 C2885 1.574 . S
C2902 H2896 0.949 . S
C2902 C2906 1.368 . S
C2903 C2884 1.429 . S
C2903 C2897 1.429 . S
C2903 C2904 1.523 . S
C2904 C2885 1.368 . S
C2904 C2898 1.368 . S
C2904 C2903 1.523 . S
C2905 C2889 1.429 . S
C2905 C2901 1.429 . S
C2905 C2906 1.523 . S
C2906 C2890 1.368 . S
C2906 C2902 1.368 . S
C2906 C2905 1.523 . S
H2907 C2882 0.950 . S
H2908 C2884 0.950 . S
H2909 C2885 0.949 . S
H2910 C2887 0.950 . S
H2911 C2889 0.950 . S
C2912 C2913 1.349 . S
C2912 C2914 1.327 . S
C2912 H2937 0.950 . S
C2913 C2912 1.349 . S
C2913 C2929 1.349 . S
C2914 C2912 1.327 . S
C2914 C2933 1.429 . S
C2914 H2938 0.950 . S
C2915 C2932 1.574 . S
C2915 C2934 1.368 . S
C2915 H2939 0.949 . S
H2916 C2920 0.949 . S
C2917 C2918 1.349 1_565 S
C2917 C2919 1.327 . S
C2917 H2940 0.950 . S
C2918 C2917 1.349 1_545 S
C2918 C2930 1.349 . S
C2919 C2917 1.327 . S
C2919 C2935 1.429 . S
C2919 H2941 0.950 . S
C2920 H2916 0.949 . S
C2920 C2928 1.574 . S
C2920 C2936 1.368 . S
H2921 C2929 0.950 . S
H2922 C2927 0.950 . S
H2923 C2928 0.949 . S
H2924 C2930 0.950 . S
H2925 C2931 0.950 . S
H2926 C2932 0.949 . S
C2927 H2922 0.950 . S
C2927 C2929 1.327 . S
C2927 C2933 1.429 . S
C2928 C2920 1.574 . S
C2928 H2923 0.949 . S
C2928 C2934 1.368 . S
C2929 C2913 1.349 . S
C2929 H2921 0.950 . S
C2929 C2927 1.327 . S
C2930 C2918 1.349 . S
C2930 H2924 0.950 . S
C2930 C2931 1.327 . S
C2931 H2925 0.950 . S
C2931 C2930 1.327 . S
C2931 C2935 1.429 1_545 S
C2932 C2915 1.574 . S
C2932 H2926 0.949 . S
C2932 C2936 1.368 . S
C2933 C2914 1.429 . S
C2933 C2927 1.429 . S
C2933 C2934 1.523 . S
C2934 C2915 1.368 . S
C2934 C2928 1.368 . S
C2934 C2933 1.523 . S
C2935 C2919 1.429 . S
C2935 C2931 1.429 1_565 S
C2935 C2936 1.523 . S
C2936 C2920 1.368 . S
C2936 C2932 1.368 . S
C2936 C2935 1.523 . S
H2937 C2912 0.950 . S
H2938 C2914 0.950 . S
H2939 C2915 0.949 . S
H2940 C2917 0.950 . S
H2941 C2919 0.950 . S
C2942 C2943 1.349 . S
C2942 C2944 1.327 . S
C2942 H2967 0.950 1_554 S
C2943 C2942 1.349 . S
C2943 C2959 1.349 . S
C2944 C2942 1.327 . S
C2944 C2963 1.429 . S
C2944 H2968 0.950 1_554 S
C2945 C2962 1.574 . S
C2945 C2964 1.368 . S
C2945 H2969 0.949 . S
H2946 C2950 0.949 1_556 S
C2947 C2948 1.349 . S
C2947 C2949 1.327 . S
C2947 H2970 0.950 . S
C2948 C2947 1.349 . S
C2948 C2960 1.349 . S
C2949 C2947 1.327 . S
C2949 C2965 1.429 . S
C2949 H2971 0.950 . S
C2950 H2946 0.949 1_554 S
C2950 C2958 1.574 . S
C2950 C2966 1.368 . S
H2951 C2959 0.950 . S
H2952 C2957 0.950 . S
H2953 C2958 0.949 1_556 S
H2954 C2960 0.950 1_556 S
H2955 C2961 0.950 1_556 S
H2956 C2962 0.949 . S
C2957 H2952 0.950 . S
C2957 C2959 1.327 . S
C2957 C2963 1.429 . S
C2958 C2950 1.574 . S
C2958 H2953 0.949 1_554 S
C2958 C2964 1.368 . S
C2959 C2943 1.349 . S
C2959 H2951 0.950 . S
C2959 C2957 1.327 . S
C2960 C2948 1.349 . S
C2960 H2954 0.950 1_554 S
C2960 C2961 1.327 . S
C2961 H2955 0.950 1_554 S
C2961 C2960 1.327 . S
C2961 C2965 1.429 . S
C2962 C2945 1.574 . S
C2962 H2956 0.949 . S
C2962 C2966 1.368 . S
C2963 C2944 1.429 . S
C2963 C2957 1.429 . S
C2963 C2964 1.523 . S
C2964 C2945 1.368 . S
C2964 C2958 1.368 . S
C2964 C2963 1.523 . S
C2965 C2949 1.429 . S
C2965 C2961 1.429 . S
C2965 C2966 1.523 . S
C2966 C2950 1.368 . S
C2966 C2962 1.368 . S
C2966 C2965 1.523 . S
H2967 C2942 0.950 1_556 S
H2968 C2944 0.950 1_556 S
H2969 C2945 0.949 . S
H2970 C2947 0.950 . S
H2971 C2949 0.950 . S
C2972 C2973 1.349 . S
C2972 C2974 1.327 . S
C2972 H2997 0.950 . S
C2973 C2972 1.349 . S
C2973 C2989 1.349 . S
C2974 C2972 1.327 . S
C2974 C2993 1.429 . S
C2974 H2998 0.950 . S
C2975 C2992 1.574 . S
C2975 C2994 1.368 . S
C2975 H2999 0.949 . S
H2976 C2980 0.949 . S
C2977 C2978 1.349 . S
C2977 C2979 1.327 . S
C2977 H3000 0.950 . S
C2978 C2977 1.349 . S
C2978 C2990 1.349 . S
C2979 C2977 1.327 . S
C2979 C2995 1.429 . S
C2979 H3001 0.950 . S
C2980 H2976 0.949 . S
C2980 C2988 1.574 . S
C2980 C2996 1.368 . S
H2981 C2989 0.950 . S
H2982 C2987 0.950 . S
H2983 C2988 0.949 . S
H2984 C2990 0.950 . S
H2985 C2991 0.950 . S
H2986 C2992 0.949 . S
C2987 H2982 0.950 . S
C2987 C2989 1.327 . S
C2987 C2993 1.429 . S
C2988 C2980 1.574 . S
C2988 H2983 0.949 . S
C2988 C2994 1.368 . S
C2989 C2973 1.349 . S
C2989 H2981 0.950 . S
C2989 C2987 1.327 . S
C2990 C2978 1.349 . S
C2990 H2984 0.950 . S
C2990 C2991 1.327 . S
C2991 H2985 0.950 . S
C2991 C2990 1.327 . S
C2991 C2995 1.429 . S
C2992 C2975 1.574 . S
C2992 H2986 0.949 . S
C2992 C2996 1.368 . S
C2993 C2974 1.429 . S
C2993 C2987 1.429 . S
C2993 C2994 1.523 . S
C2994 C2975 1.368 . S
C2994 C2988 1.368 . S
C2994 C2993 1.523 . S
C2995 C2979 1.429 . S
C2995 C2991 1.429 . S
C2995 C2996 1.523 . S
C2996 C2980 1.368 . S
C2996 C2992 1.368 . S
C2996 C2995 1.523 . S
H2997 C2972 0.950 . S
H2998 C2974 0.950 . S
H2999 C2975 0.949 . S
H3000 C2977 0.950 . S
H3001 C2979 0.950 . S
C3002 C3003 1.349 . S
C3002 C3004 1.327 . S
C3002 H3027 0.950 . S
C3003 C3002 1.349 . S
C3003 C3019 1.349 . S
C3004 C3002 1.327 . S
C3004 C3023 1.429 . S
C3004 H3028 0.950 . S
C3005 C3022 1.574 . S
C3005 C3024 1.368 . S
C3005 H3029 0.949 . S
H3006 C3010 0.949 . S
C3007 C3008 1.349 . S
C3007 C3009 1.327 . S
C3007 H3030 0.950 . S
C3008 C3007 1.349 . S
C3008 C3020 1.349 . S
C3009 C3007 1.327 . S
C3009 C3025 1.429 . S
C3009 H3031 0.950 . S
C3010 H3006 0.949 . S
C3010 C3018 1.574 . S
C3010 C3026 1.368 . S
H3011 C3019 0.950 . S
H3012 C3017 0.950 . S
H3013 C3018 0.949 . S
H3014 C3020 0.950 . S
H3015 C3021 0.950 . S
H3016 C3022 0.949 . S
C3017 H3012 0.950 . S
C3017 C3019 1.327 . S
C3017 C3023 1.429 . S
C3018 C3010 1.574 . S
C3018 H3013 0.949 . S
C3018 C3024 1.368 . S
C3019 C3003 1.349 . S
C3019 H3011 0.950 . S
C3019 C3017 1.327 . S
C3020 C3008 1.349 . S
C3020 H3014 0.950 . S
C3020 C3021 1.327 . S
C3021 H3015 0.950 . S
C3021 C3020 1.327 . S
C3021 C3025 1.429 . S
C3022 C3005 1.574 . S
C3022 H3016 0.949 . S
C3022 C3026 1.368 . S
C3023 C3004 1.429 . S
C3023 C3017 1.429 . S
C3023 C3024 1.523 . S
C3024 C3005 1.368 . S
C3024 C3018 1.368 . S
C3024 C3023 1.523 . S
C3025 C3009 1.429 . S
C3025 C3021 1.429 . S
C3025 C3026 1.523 . S
C3026 C3010 1.368 . S
C3026 C3022 1.368 . S
C3026 C3025 1.523 . S
H3027 C3002 0.950 . S
H3028 C3004 0.950 . S
H3029 C3005 0.949 . S
H3030 C3007 0.950 . S
H3031 C3009 0.950 . S
C3032 C3033 1.349 . S
C3032 C3034 1.327 . S
C3032 H3057 0.950 . S
C3033 C3032 1.349 . S
C3033 C3049 1.349 . S
C3034 C3032 1.327 . S
C3034 C3053 1.429 . S
C3034 H3058 0.950 . S
C3035 C3052 1.574 . S
C3035 C3054 1.368 . S
C3035 H3059 0.949 . S
H3036 C3040 0.949 . S
C3037 C3038 1.349 . S
C3037 C3039 1.327 . S
C3037 H3060 0.950 . S
C3038 C3037 1.349 . S
C3038 C3050 1.349 . S
C3039 C3037 1.327 . S
C3039 C3055 1.429 . S
C3039 H3061 0.950 . S
C3040 H3036 0.949 . S
C3040 C3048 1.574 . S
C3040 C3056 1.368 . S
H3041 C3049 0.950 . S
H3042 C3047 0.950 . S
H3043 C3048 0.949 . S
H3044 C3050 0.950 . S
H3045 C3051 0.950 . S
H3046 C3052 0.949 . S
C3047 H3042 0.950 . S
C3047 C3049 1.327 . S
C3047 C3053 1.429 . S
C3048 C3040 1.574 . S
C3048 H3043 0.949 . S
C3048 C3054 1.368 . S
C3049 C3033 1.349 . S
C3049 H3041 0.950 . S
C3049 C3047 1.327 . S
C3050 C3038 1.349 . S
C3050 H3044 0.950 . S
C3050 C3051 1.327 . S
C3051 H3045 0.950 . S
C3051 C3050 1.327 . S
C3051 C3055 1.429 . S
C3052 C3035 1.574 . S
C3052 H3046 0.949 . S
C3052 C3056 1.368 . S
C3053 C3034 1.429 . S
C3053 C3047 1.429 . S
C3053 C3054 1.523 . S
C3054 C3035 1.368 . S
C3054 C3048 1.368 . S
C3054 C3053 1.523 . S
C3055 C3039 1.429 . S
C3055 C3051 1.429 . S
C3055 C3056 1.523 . S
C3056 C3040 1.368 . S
C3056 C3052 1.368 . S
C3056 C3055 1.523 . S
H3057 C3032 0.950 . S
H3058 C3034 0.950 . S
H3059 C3035 0.949 . S
H3060 C3037 0.950 . S
H3061 C3039 0.950 . S
C3062 C3063 1.349 . S
C3062 C3064 1.327 . S
C3062 H3087 0.950 . S
C3063 C3062 1.349 . S
C3063 C3079 1.349 . S
C3064 C3062 1.327 . S
C3064 C3083 1.429 . S
C3064 H3088 0.950 . S
C3065 C3082 1.574 . S
C3065 C3084 1.368 . S
C3065 H3089 0.949 . S
H3066 C3070 0.949 . S
C3067 C3068 1.349 . S
C3067 C3069 1.327 . S
C3067 H3090 0.950 . S
C3068 C3067 1.349 . S
C3068 C3080 1.349 . S
C3069 C3067 1.327 . S
C3069 C3085 1.429 . S
C3069 H3091 0.950 . S
C3070 H3066 0.949 . S
C3070 C3078 1.574 . S
C3070 C3086 1.368 . S
H3071 C3079 0.950 . S
H3072 C3077 0.950 . S
H3073 C3078 0.949 . S
H3074 C3080 0.950 . S
H3075 C3081 0.950 . S
H3076 C3082 0.949 . S
C3077 H3072 0.950 . S
C3077 C3079 1.327 . S
C3077 C3083 1.429 . S
C3078 C3070 1.574 . S
C3078 H3073 0.949 . S
C3078 C3084 1.368 . S
C3079 C3063 1.349 . S
C3079 H3071 0.950 . S
C3079 C3077 1.327 . S
C3080 C3068 1.349 . S
C3080 H3074 0.950 . S
C3080 C3081 1.327 . S
C3081 H3075 0.950 . S
C3081 C3080 1.327 . S
C3081 C3085 1.429 . S
C3082 C3065 1.574 . S
C3082 H3076 0.949 . S
C3082 C3086 1.368 . S
C3083 C3064 1.429 . S
C3083 C3077 1.429 . S
C3083 C3084 1.523 . S
C3084 C3065 1.368 . S
C3084 C3078 1.368 . S
C3084 C3083 1.523 . S
C3085 C3069 1.429 . S
C3085 C3081 1.429 . S
C3085 C3086 1.523 . S
C3086 C3070 1.368 . S
C3086 C3082 1.368 . S
C3086 C3085 1.523 . S
H3087 C3062 0.950 . S
H3088 C3064 0.950 . S
H3089 C3065 0.949 . S
H3090 C3067 0.950 . S
H3091 C3069 0.950 . S
C3092 C3093 1.349 . S
C3092 C3094 1.327 . S
C3092 H3117 0.950 . S
C3093 C3092 1.349 . S
C3093 C3109 1.349 . S
C3094 C3092 1.327 . S
C3094 C3113 1.429 . S
C3094 H3118 0.950 . S
C3095 C3112 1.574 . S
C3095 C3114 1.368 . S
C3095 H3119 0.949 . S
H3096 C3100 0.949 . S
C3097 C3098 1.349 . S
C3097 C3099 1.327 . S
C3097 H3120 0.950 . S
C3098 C3097 1.349 . S
C3098 C3110 1.349 . S
C3099 C3097 1.327 . S
C3099 C3115 1.429 . S
C3099 H3121 0.950 . S
C3100 H3096 0.949 . S
C3100 C3108 1.574 . S
C3100 C3116 1.368 . S
H3101 C3109 0.950 . S
H3102 C3107 0.950 . S
H3103 C3108 0.949 . S
H3104 C3110 0.950 . S
H3105 C3111 0.950 . S
H3106 C3112 0.949 . S
C3107 H3102 0.950 . S
C3107 C3109 1.327 . S
C3107 C3113 1.429 . S
C3108 C3100 1.574 . S
C3108 H3103 0.949 . S
C3108 C3114 1.368 . S
C3109 C3093 1.349 . S
C3109 H3101 0.950 . S
C3109 C3107 1.327 . S
C3110 C3098 1.349 . S
C3110 H3104 0.950 . S
C3110 C3111 1.327 . S
C3111 H3105 0.950 . S
C3111 C3110 1.327 . S
C3111 C3115 1.429 . S
C3112 C3095 1.574 . S
C3112 H3106 0.949 . S
C3112 C3116 1.368 . S
C3113 C3094 1.429 . S
C3113 C3107 1.429 . S
C3113 C3114 1.523 . S
C3114 C3095 1.368 . S
C3114 C3108 1.368 . S
C3114 C3113 1.523 . S
C3115 C3099 1.429 . S
C3115 C3111 1.429 . S
C3115 C3116 1.523 . S
C3116 C3100 1.368 . S
C3116 C3112 1.368 . S
C3116 C3115 1.523 . S
H3117 C3092 0.950 . S
H3118 C3094 0.950 . S
H3119 C3095 0.949 . S
H3120 C3097 0.950 . S
H3121 C3099 0.950 . S
C3122 C3123 1.349 . S
C3122 C3124 1.327 . S
C3122 H3147 0.950 . S
C3123 C3122 1.349 . S
C3123 C3139 1.349 . S
C3124 C3122 1.327 . S
C3124 C3143 1.429 . S
C3124 H3148 0.950 . S
C3125 C3142 1.574 . S
C3125 C3144 1.368 . S
C3125 H3149 0.949 . S
H3126 C3130 0.949 . S
C3127 C3128 1.349 . S
C3127 C3129 1.327 . S
C3127 H3150 0.950 . S
C3128 C3127 1.349 . S
C3128 C3140 1.349 . S
C3129 C3127 1.327 . S
C3129 C3145 1.429 . S
C3129 H3151 0.950 . S
C3130 H3126 0.949 . S
C3130 C3138 1.574 . S
C3130 C3146 1.368 . S
H3131 C3139 0.950 . S
H3132 C3137 0.950 . S
H3133 C3138 0.949 . S
H3134 C3140 0.950 . S
H3135 C3141 0.950 . S
H3136 C3142 0.949 . S
C3137 H3132 0.950 . S
C3137 C3139 1.327 . S
C3137 C3143 1.429 . S
C3138 C3130 1.574 . S
C3138 H3133 0.949 . S
C3138 C3144 1.368 . S
C3139 C3123 1.349 . S
C3139 H3131 0.950 . S
C3139 C3137 1.327 . S
C3140 C3128 1.349 . S
C3140 H3134 0.950 . S
C3140 C3141 1.327 . S
C3141 H3135 0.950 . S
C3141 C3140 1.327 . S
C3141 C3145 1.429 . S
C3142 C3125 1.574 . S
C3142 H3136 0.949 . S
C3142 C3146 1.368 . S
C3143 C3124 1.429 . S
C3143 C3137 1.429 . S
C3143 C3144 1.523 . S
C3144 C3125 1.368 . S
C3144 C3138 1.368 . S
C3144 C3143 1.523 . S
C3145 C3129 1.429 . S
C3145 C3141 1.429 . S
C3145 C3146 1.523 . S
C3146 C3130 1.368 . S
C3146 C3142 1.368 . S
C3146 C3145 1.523 . S
H3147 C3122 0.950 . S
H3148 C3124 0.950 . S
H3149 C3125 0.949 . S
H3150 C3127 0.950 . S
H3151 C3129 0.950 . S
C3152 C3153 1.349 . S
C3152 C3154 1.327 . S
C3152 H3177 0.950 . S
C3153 C3152 1.349 . S
C3153 C3169 1.349 . S
C3154 C3152 1.327 . S
C3154 C3173 1.429 . S
C3154 H3178 0.950 . S
C3155 C3172 1.574 . S
C3155 C3174 1.368 . S
C3155 H3179 0.949 1_455 S
H3156 C3160 0.949 . S
C3157 C3158 1.349 1_655 S
C3157 C3159 1.332 . S
C3157 H3180 0.950 . S
C3158 C3157 1.349 1_455 S
C3158 C3170 1.349 . S
C3159 C3157 1.332 . S
C3159 C3175 1.408 1_655 S
C3159 H3181 0.966 . S
C3160 H3156 0.949 . S
C3160 C3168 1.574 . S
C3160 C3176 1.368 . S
H3161 C3169 0.907 1_655 S
H3162 C3167 0.950 1_655 S
H3163 C3168 0.949 . S
H3164 C3170 0.950 . S
H3165 C3171 0.950 . S
H3166 C3172 0.949 1_655 S
C3167 H3162 0.950 1_455 S
C3167 C3169 1.327 . S
C3167 C3173 1.429 . S
C3168 C3160 1.574 . S
C3168 H3163 0.949 . S
C3168 C3174 1.368 . S
C3169 C3153 1.349 . S
C3169 H3161 0.907 1_455 S
C3169 C3167 1.327 . S
C3170 C3158 1.349 . S
C3170 H3164 0.950 . S
C3170 C3171 1.327 . S
C3171 H3165 0.950 . S
C3171 C3170 1.327 . S
C3171 C3175 1.429 . S
C3172 C3155 1.574 . S
C3172 H3166 0.949 1_455 S
C3172 C3176 1.368 . S
C3173 C3154 1.429 . S
C3173 C3167 1.429 . S
C3173 C3174 1.523 . S
C3174 C3155 1.368 . S
C3174 C3168 1.368 . S
C3174 C3173 1.523 . S
C3175 C3159 1.408 1_455 S
C3175 C3171 1.429 . S
C3175 C3176 1.523 . S
C3176 C3160 1.368 . S
C3176 C3172 1.368 . S
C3176 C3175 1.523 . S
H3177 C3152 0.950 . S
H3178 C3154 0.950 . S
H3179 C3155 0.949 1_655 S
H3180 C3157 0.950 . S
H3181 C3159 0.966 . S
C3182 C3183 1.349 . S
C3182 C3184 1.327 . S
C3182 H3207 0.950 . S
C3183 C3182 1.349 . S
C3183 C3199 1.349 . S
C3184 C3182 1.327 . S
C3184 C3203 1.429 . S
C3184 H3208 0.950 . S
C3185 C3202 1.574 . S
C3185 C3204 1.368 . S
C3185 H3209 0.949 . S
H3186 C3190 0.949 . S
C3187 C3188 1.349 . S
C3187 C3189 1.327 . S
C3187 H3210 0.950 . S
C3188 C3187 1.349 . S
C3188 C3200 1.349 . S
C3189 C3187 1.327 . S
C3189 C3205 1.429 . S
C3189 H3211 0.950 . S
C3190 H3186 0.949 . S
C3190 C3198 1.574 . S
C3190 C3206 1.368 . S
H3191 C3199 0.950 . S
H3192 C3197 0.950 . S
H3193 C3198 0.949 . S
H3194 C3200 0.950 . S
H3195 C3201 0.950 . S
H3196 C3202 0.949 . S
C3197 H3192 0.950 . S
C3197 C3199 1.327 . S
C3197 C3203 1.429 . S
C3198 C3190 1.574 . S
C3198 H3193 0.949 . S
C3198 C3204 1.368 . S
C3199 C3183 1.349 . S
C3199 H3191 0.950 . S
C3199 C3197 1.327 . S
C3200 C3188 1.349 . S
C3200 H3194 0.950 . S
C3200 C3201 1.327 . S
C3201 H3195 0.950 . S
C3201 C3200 1.327 . S
C3201 C3205 1.429 . S
C3202 C3185 1.574 . S
C3202 H3196 0.949 . S
C3202 C3206 1.368 . S
C3203 C3184 1.429 . S
C3203 C3197 1.429 . S
C3203 C3204 1.523 . S
C3204 C3185 1.368 . S
C3204 C3198 1.368 . S
C3204 C3203 1.523 . S
C3205 C3189 1.429 . S
C3205 C3201 1.429 . S
C3205 C3206 1.523 . S
C3206 C3190 1.368 . S
C3206 C3202 1.368 . S
C3206 C3205 1.523 . S
H3207 C3182 0.950 . S
H3208 C3184 0.950 . S
H3209 C3185 0.949 . S
H3210 C3187 0.950 . S
H3211 C3189 0.950 . S
C3212 C3213 1.349 . S
C3212 C3214 1.327 . S
C3212 H3237 0.950 . S
C3213 C3212 1.349 . S
C3213 C3229 1.349 . S
C3214 C3212 1.327 . S
C3214 C3233 1.429 . S
C3214 H3238 0.950 . S
C3215 C3232 1.574 . S
C3215 C3234 1.368 . S
C3215 H3239 0.949 . S
H3216 C3220 0.949 . S
C3217 C3218 1.349 . S
C3217 C3219 1.327 . S
C3217 H3240 0.950 . S
C3218 C3217 1.349 . S
C3218 C3230 1.349 . S
C3219 C3217 1.327 . S
C3219 C3235 1.429 . S
C3219 H3241 0.950 . S
C3220 H3216 0.949 . S
C3220 C3228 1.574 . S
C3220 C3236 1.368 . S
H3221 C3229 0.950 . S
H3222 C3227 0.950 . S
H3223 C3228 0.949 . S
H3224 C3230 0.950 . S
H3225 C3231 0.950 . S
H3226 C3232 0.949 . S
C3227 H3222 0.950 . S
C3227 C3229 1.327 . S
C3227 C3233 1.429 . S
C3228 C3220 1.574 . S
C3228 H3223 0.949 . S
C3228 C3234 1.368 . S
C3229 C3213 1.349 . S
C3229 H3221 0.950 . S
C3229 C3227 1.327 . S
C3230 C3218 1.349 . S
C3230 H3224 0.950 . S
C3230 C3231 1.327 . S
C3231 H3225 0.950 . S
C3231 C3230 1.327 . S
C3231 C3235 1.429 . S
C3232 C3215 1.574 . S
C3232 H3226 0.949 . S
C3232 C3236 1.368 . S
C3233 C3214 1.429 . S
C3233 C3227 1.429 . S
C3233 C3234 1.523 . S
C3234 C3215 1.368 . S
C3234 C3228 1.368 . S
C3234 C3233 1.523 . S
C3235 C3219 1.429 . S
C3235 C3231 1.429 . S
C3235 C3236 1.523 . S
C3236 C3220 1.368 . S
C3236 C3232 1.368 . S
C3236 C3235 1.523 . S
H3237 C3212 0.950 . S
H3238 C3214 0.950 . S
H3239 C3215 0.949 . S
H3240 C3217 0.950 . S
H3241 C3219 0.950 . S
C3242 C3243 1.349 . S
C3242 C3244 1.327 . S
C3242 H3267 0.950 . S
C3243 C3242 1.349 . S
C3243 C3259 1.349 . S
C3244 C3242 1.327 . S
C3244 C3263 1.429 . S
C3244 H3268 0.950 . S
C3245 C3262 1.574 . S
C3245 C3264 1.368 . S
C3245 H3269 0.949 . S
H3246 C3250 0.949 . S
C3247 C3248 1.349 . S
C3247 C3249 1.327 . S
C3247 H3270 0.950 . S
C3248 C3247 1.349 . S
C3248 C3260 1.349 . S
C3249 C3247 1.327 . S
C3249 C3265 1.429 . S
C3249 H3271 0.950 . S
C3250 H3246 0.949 . S
C3250 C3258 1.574 . S
C3250 C3266 1.368 . S
H3251 C3259 0.950 . S
H3252 C3257 0.950 . S
H3253 C3258 0.949 . S
H3254 C3260 0.950 . S
H3255 C3261 0.950 . S
H3256 C3262 0.949 . S
C3257 H3252 0.950 . S
C3257 C3259 1.327 . S
C3257 C3263 1.429 . S
C3258 C3250 1.574 . S
C3258 H3253 0.949 . S
C3258 C3264 1.368 . S
C3259 C3243 1.349 . S
C3259 H3251 0.950 . S
C3259 C3257 1.327 . S
C3260 C3248 1.349 . S
C3260 H3254 0.950 . S
C3260 C3261 1.327 . S
C3261 H3255 0.950 . S
C3261 C3260 1.327 . S
C3261 C3265 1.429 . S
C3262 C3245 1.574 . S
C3262 H3256 0.949 . S
C3262 C3266 1.368 . S
C3263 C3244 1.429 . S
C3263 C3257 1.429 . S
C3263 C3264 1.523 . S
C3264 C3245 1.368 . S
C3264 C3258 1.368 . S
C3264 C3263 1.523 . S
C3265 C3249 1.429 . S
C3265 C3261 1.429 . S
C3265 C3266 1.523 . S
C3266 C3250 1.368 . S
C3266 C3262 1.368 . S
C3266 C3265 1.523 . S
H3267 C3242 0.950 . S
H3268 C3244 0.950 . S
H3269 C3245 0.949 . S
H3270 C3247 0.950 . S
H3271 C3249 0.950 . S
C3272 C3273 1.349 . S
C3272 C3274 1.327 . S
C3272 H3297 0.950 . S
C3273 C3272 1.349 . S
C3273 C3289 1.349 1_455 S
C3274 C3272 1.327 . S
C3274 C3293 1.429 . S
C3274 H3298 0.950 . S
C3275 C3292 1.574 . S
C3275 C3294 1.368 1_655 S
C3275 H3299 0.949 . S
H3276 C3280 0.949 . S
C3277 C3278 1.333 1_655 S
C3277 C3279 1.327 . S
C3277 H3300 0.950 . S
C3278 C3277 1.333 1_455 S
C3278 C3290 1.364 . S
C3279 C3277 1.327 . S
C3279 C3295 1.429 1_655 S
C3279 H3301 0.950 . S
C3280 H3276 0.949 . S
C3280 C3288 1.574 . S
C3280 C3296 1.368 . S
H3281 C3289 0.950 . S
H3282 C3287 0.950 . S
H3283 C3288 0.949 . S
H3284 C3290 0.950 . S
H3285 C3291 0.950 . S
H3286 C3292 0.949 . S
C3287 H3282 0.950 . S
C3287 C3289 1.327 . S
C3287 C3293 1.429 1_655 S
C3288 C3280 1.574 . S
C3288 H3283 0.949 . S
C3288 C3294 1.368 . S
C3289 C3273 1.349 1_655 S
C3289 H3281 0.950 . S
C3289 C3287 1.327 . S
C3290 C3278 1.364 . S
C3290 H3284 0.950 . S
C3290 C3291 1.327 . S
C3291 H3285 0.950 . S
C3291 C3290 1.327 . S
C3291 C3295 1.429 . S
C3292 C3275 1.574 . S
C3292 H3286 0.949 . S
C3292 C3296 1.368 1_655 S
C3293 C3274 1.429 . S
C3293 C3287 1.429 1_455 S
C3293 C3294 1.523 . S
C3294 C3275 1.368 1_455 S
C3294 C3288 1.368 . S
C3294 C3293 1.523 . S
C3295 C3279 1.429 1_455 S
C3295 C3291 1.429 . S
C3295 C3296 1.523 . S
C3296 C3280 1.368 . S
C3296 C3292 1.368 1_455 S
C3296 C3295 1.523 . S
H3297 C3272 0.950 . S
H3298 C3274 0.950 . S
H3299 C3275 0.949 . S
H3300 C3277 0.950 . S
H3301 C3279 0.950 . S
C3302 C3303 1.349 . S
C3302 C3304 1.327 . S
C3302 H3327 0.950 . S
C3303 C3302 1.349 . S
C3303 C3319 1.349 . S
C3304 C3302 1.327 . S
C3304 C3323 1.429 . S
C3304 H3328 0.950 . S
C3305 C3322 1.574 . S
C3305 C3324 1.368 . S
C3305 H3329 0.949 . S
H3306 C3310 0.949 . S
C3307 C3308 1.349 . S
C3307 C3309 1.327 . S
C3307 H3330 0.950 . S
C3308 C3307 1.349 . S
C3308 C3320 1.349 . S
C3309 C3307 1.327 . S
C3309 C3325 1.429 . S
C3309 H3331 0.950 . S
C3310 H3306 0.949 . S
C3310 C3318 1.574 . S
C3310 C3326 1.368 . S
H3311 C3319 0.950 . S
H3312 C3317 0.950 . S
H3313 C3318 0.949 . S
H3314 C3320 0.950 . S
H3315 C3321 0.950 . S
H3316 C3322 0.949 . S
C3317 H3312 0.950 . S
C3317 C3319 1.327 . S
C3317 C3323 1.429 . S
C3318 C3310 1.574 . S
C3318 H3313 0.949 . S
C3318 C3324 1.368 . S
C3319 C3303 1.349 . S
C3319 H3311 0.950 . S
C3319 C3317 1.327 . S
C3320 C3308 1.349 . S
C3320 H3314 0.950 . S
C3320 C3321 1.327 . S
C3321 H3315 0.950 . S
C3321 C3320 1.327 . S
C3321 C3325 1.429 . S
C3322 C3305 1.574 . S
C3322 H3316 0.949 . S
C3322 C3326 1.368 . S
C3323 C3304 1.429 . S
C3323 C3317 1.429 . S
C3323 C3324 1.523 . S
C3324 C3305 1.368 . S
C3324 C3318 1.368 . S
C3324 C3323 1.523 . S
C3325 C3309 1.429 . S
C3325 C3321 1.429 . S
C3325 C3326 1.523 . S
C3326 C3310 1.368 . S
C3326 C3322 1.368 . S
C3326 C3325 1.523 . S
H3327 C3302 0.950 . S
H3328 C3304 0.950 . S
H3329 C3305 0.949 . S
H3330 C3307 0.950 . S
H3331 C3309 0.950 . S
C3332 C3333 1.349 . S
C3332 C3334 1.327 . S
C3332 H3357 0.950 . S
C3333 C3332 1.349 . S
C3333 C3349 1.349 . S
C3334 C3332 1.327 . S
C3334 C3353 1.429 . S
C3334 H3358 0.950 . S
C3335 C3352 1.574 . S
C3335 C3354 1.368 . S
C3335 H3359 0.949 . S
H3336 C3340 0.949 . S
C3337 C3338 1.364 . S
C3337 C3339 1.327 1_554 S
C3337 H3360 0.950 . S
C3338 C3337 1.364 . S
C3338 C3350 1.315 1_554 S
C3339 C3337 1.327 1_556 S
C3339 C3355 1.429 . S
C3339 H3361 0.940 1_556 S
C3340 H3336 0.949 . S
C3340 C3348 1.574 . S
C3340 C3356 1.368 . S
H3341 C3349 0.950 . S
H3342 C3347 0.950 . S
H3343 C3348 0.949 . S
H3344 C3350 0.950 . S
H3345 C3351 0.950 . S
H3346 C3352 0.949 . S
C3347 H3342 0.950 . S
C3347 C3349 1.327 . S
C3347 C3353 1.429 . S
C3348 C3340 1.574 . S
C3348 H3343 0.949 . S
C3348 C3354 1.368 . S
C3349 C3333 1.349 . S
C3349 H3341 0.950 . S
C3349 C3347 1.327 . S
C3350 C3338 1.315 1_556 S
C3350 H3344 0.950 . S
C3350 C3351 1.327 . S
C3351 H3345 0.950 . S
C3351 C3350 1.327 . S
C3351 C3355 1.429 . S
C3352 C3335 1.574 . S
C3352 H3346 0.949 . S
C3352 C3356 1.368 . S
C3353 C3334 1.429 . S
C3353 C3347 1.429 . S
C3353 C3354 1.523 . S
C3354 C3335 1.368 . S
C3354 C3348 1.368 . S
C3354 C3353 1.523 . S
C3355 C3339 1.429 . S
C3355 C3351 1.429 . S
C3355 C3356 1.523 . S
C3356 C3340 1.368 . S
C3356 C3352 1.368 . S
C3356 C3355 1.523 . S
H3357 C3332 0.950 . S
H3358 C3334 0.950 . S
H3359 C3335 0.949 . S
H3360 C3337 0.950 . S
H3361 C3339 0.940 1_554 S
C3362 C3363 1.349 . S
C3362 C3364 1.327 . S
C3362 H3387 0.950 . S
C3363 C3362 1.349 . S
C3363 C3379 1.349 . S
C3364 C3362 1.327 . S
C3364 C3383 1.429 . S
C3364 H3388 0.950 . S
C3365 C3382 1.574 . S
C3365 C3384 1.368 . S
C3365 H3389 0.949 . S
H3366 C3370 0.949 . S
C3367 C3368 1.349 . S
C3367 C3369 1.327 . S
C3367 H3390 0.950 . S
C3368 C3367 1.349 . S
C3368 C3380 1.349 . S
C3369 C3367 1.327 . S
C3369 C3385 1.429 . S
C3369 H3391 0.950 . S
C3370 H3366 0.949 . S
C3370 C3378 1.574 . S
C3370 C3386 1.368 . S
H3371 C3379 0.950 . S
H3372 C3377 0.950 . S
H3373 C3378 0.949 . S
H3374 C3380 0.950 . S
H3375 C3381 0.950 . S
H3376 C3382 0.949 . S
C3377 H3372 0.950 . S
C3377 C3379 1.327 . S
C3377 C3383 1.429 . S
C3378 C3370 1.574 . S
C3378 H3373 0.949 . S
C3378 C3384 1.368 . S
C3379 C3363 1.349 . S
C3379 H3371 0.950 . S
C3379 C3377 1.327 . S
C3380 C3368 1.349 . S
C3380 H3374 0.950 . S
C3380 C3381 1.327 . S
C3381 H3375 0.950 . S
C3381 C3380 1.327 . S
C3381 C3385 1.429 . S
C3382 C3365 1.574 . S
C3382 H3376 0.949 . S
C3382 C3386 1.368 . S
C3383 C3364 1.429 . S
C3383 C3377 1.429 . S
C3383 C3384 1.523 . S
C3384 C3365 1.368 . S
C3384 C3378 1.368 . S
C3384 C3383 1.523 . S
C3385 C3369 1.429 . S
C3385 C3381 1.429 . S
C3385 C3386 1.523 . S
C3386 C3370 1.368 . S
C3386 C3382 1.368 . S
C3386 C3385 1.523 . S
H3387 C3362 0.950 . S
H3388 C3364 0.950 . S
H3389 C3365 0.949 . S
H3390 C3367 0.950 . S
H3391 C3369 0.950 . S
C3392 C3393 1.349 . S
C3392 C3394 1.327 . S
C3392 H3417 0.950 . S
C3393 C3392 1.349 . S
C3393 C3409 1.349 1_565 S
C3394 C3392 1.327 . S
C3394 C3413 1.429 1_565 S
C3394 H3418 0.950 . S
C3395 C3412 1.574 . S
C3395 C3414 1.368 . S
C3395 H3419 0.949 . S
H3396 C3400 0.949 . S
C3397 C3398 1.349 . S
C3397 C3399 1.327 . S
C3397 H3420 0.950 . S
C3398 C3397 1.349 . S
C3398 C3410 1.349 . S
C3399 C3397 1.327 . S
C3399 C3415 1.429 . S
C3399 H3421 0.950 . S
C3400 H3396 0.949 . S
C3400 C3408 1.574 . S
C3400 C3416 1.368 1_565 S
H3401 C3409 0.950 . S
H3402 C3407 0.950 . S
H3403 C3408 0.949 . S
H3404 C3410 0.950 1_565 S
H3405 C3411 0.973 . S
H3406 C3412 0.949 . S
C3407 H3402 0.950 . S
C3407 C3409 1.327 . S
C3407 C3413 1.429 . S
C3408 C3400 1.574 . S
C3408 H3403 0.949 . S
C3408 C3414 1.368 1_565 S
C3409 C3393 1.349 1_545 S
C3409 H3401 0.950 . S
C3409 C3407 1.327 . S
C3410 C3398 1.349 . S
C3410 H3404 0.950 1_545 S
C3410 C3411 1.324 1_545 S
C3411 H3405 0.973 . S
C3411 C3410 1.324 1_565 S
C3411 C3415 1.409 1_565 S
C3412 C3395 1.574 . S
C3412 H3406 0.949 . S
C3412 C3416 1.368 . S
C3413 C3394 1.429 1_545 S
C3413 C3407 1.429 . S
C3413 C3414 1.523 . S
C3414 C3395 1.368 . S
C3414 C3408 1.368 1_545 S
C3414 C3413 1.523 . S
C3415 C3399 1.429 . S
C3415 C3411 1.409 1_545 S
C3415 C3416 1.523 . S
C3416 C3400 1.368 1_545 S
C3416 C3412 1.368 . S
C3416 C3415 1.523 . S
H3417 C3392 0.950 . S
H3418 C3394 0.950 . S
H3419 C3395 0.949 . S
H3420 C3397 0.950 . S
H3421 C3399 0.950 . S
C3422 C3423 1.349 . S
C3422 C3424 1.327 . S
C3422 H3447 0.950 . S
C3423 C3422 1.349 . S
C3423 C3439 1.349 . S
C3424 C3422 1.327 . S
C3424 C3443 1.429 . S
C3424 H3448 0.950 . S
C3425 C3442 1.574 . S
C3425 C3444 1.368 . S
C3425 H3449 0.949 . S
H3426 C3430 0.949 . S
C3427 C3428 1.349 . S
C3427 C3429 1.327 . S
C3427 H3450 0.950 . S
C3428 C3427 1.349 . S
C3428 C3440 1.349 . S
C3429 C3427 1.327 . S
C3429 C3445 1.429 . S
C3429 H3451 0.950 . S
C3430 H3426 0.949 . S
C3430 C3438 1.574 . S
C3430 C3446 1.368 . S
H3431 C3439 0.950 . S
H3432 C3437 0.950 . S
H3433 C3438 0.949 . S
H3434 C3440 0.950 . S
H3435 C3441 0.950 . S
H3436 C3442 0.949 . S
C3437 H3432 0.950 . S
C3437 C3439 1.327 . S
C3437 C3443 1.429 . S
C3438 C3430 1.574 . S
C3438 H3433 0.949 . S
C3438 C3444 1.368 . S
C3439 C3423 1.349 . S
C3439 H3431 0.950 . S
C3439 C3437 1.327 . S
C3440 C3428 1.349 . S
C3440 H3434 0.950 . S
C3440 C3441 1.327 . S
C3441 H3435 0.950 . S
C3441 C3440 1.327 . S
C3441 C3445 1.429 . S
C3442 C3425 1.574 . S
C3442 H3436 0.949 . S
C3442 C3446 1.368 . S
C3443 C3424 1.429 . S
C3443 C3437 1.429 . S
C3443 C3444 1.523 . S
C3444 C3425 1.368 . S
C3444 C3438 1.368 . S
C3444 C3443 1.523 . S
C3445 C3429 1.429 . S
C3445 C3441 1.429 . S
C3445 C3446 1.523 . S
C3446 C3430 1.368 . S
C3446 C3442 1.368 . S
C3446 C3445 1.523 . S
H3447 C3422 0.950 . S
H3448 C3424 0.950 . S
H3449 C3425 0.949 . S
H3450 C3427 0.950 . S
H3451 C3429 0.950 . S
C3452 C3453 1.349 . S
C3452 C3454 1.327 . S
C3452 H3477 0.950 . S
C3453 C3452 1.349 . S
C3453 C3469 1.349 . S
C3454 C3452 1.327 . S
C3454 C3473 1.429 . S
C3454 H3478 0.950 . S
C3455 C3472 1.574 . S
C3455 C3474 1.368 . S
C3455 H3479 0.949 . S
H3456 C3460 0.949 . S
C3457 C3458 1.349 . S
C3457 C3459 1.327 . S
C3457 H3480 0.950 . S
C3458 C3457 1.349 . S
C3458 C3470 1.349 . S
C3459 C3457 1.327 . S
C3459 C3475 1.429 . S
C3459 H3481 0.950 . S
C3460 H3456 0.949 . S
C3460 C3468 1.574 . S
C3460 C3476 1.368 . S
H3461 C3469 0.950 . S
H3462 C3467 0.950 . S
H3463 C3468 0.949 . S
H3464 C3470 0.950 . S
H3465 C3471 0.950 . S
H3466 C3472 0.949 . S
C3467 H3462 0.950 . S
C3467 C3469 1.327 . S
C3467 C3473 1.429 . S
C3468 C3460 1.574 . S
C3468 H3463 0.949 . S
C3468 C3474 1.368 . S
C3469 C3453 1.349 . S
C3469 H3461 0.950 . S
C3469 C3467 1.327 . S
C3470 C3458 1.349 . S
C3470 H3464 0.950 . S
C3470 C3471 1.327 . S
C3471 H3465 0.950 . S
C3471 C3470 1.327 . S
C3471 C3475 1.429 . S
C3472 C3455 1.574 . S
C3472 H3466 0.949 . S
C3472 C3476 1.368 . S
C3473 C3454 1.429 . S
C3473 C3467 1.429 . S
C3473 C3474 1.523 . S
C3474 C3455 1.368 . S
C3474 C3468 1.368 . S
C3474 C3473 1.523 . S
C3475 C3459 1.429 . S
C3475 C3471 1.429 . S
C3475 C3476 1.523 . S
C3476 C3460 1.368 . S
C3476 C3472 1.368 . S
C3476 C3475 1.523 . S
H3477 C3452 0.950 . S
H3478 C3454 0.950 . S
H3479 C3455 0.949 . S
H3480 C3457 0.950 . S
H3481 C3459 0.950 . S
C3482 C3483 1.349 . S
C3482 C3484 1.327 . S
C3482 H3507 0.950 . S
C3483 C3482 1.349 . S
C3483 C3499 1.349 . S
C3484 C3482 1.327 . S
C3484 C3503 1.429 . S
C3484 H3508 0.950 . S
C3485 C3502 1.574 . S
C3485 C3504 1.368 . S
C3485 H3509 0.949 . S
H3486 C3490 0.949 . S
C3487 C3488 1.349 . S
C3487 C3489 1.327 . S
C3487 H3510 0.950 . S
C3488 C3487 1.349 . S
C3488 C3500 1.349 . S
C3489 C3487 1.327 . S
C3489 C3505 1.429 . S
C3489 H3511 0.950 . S
C3490 H3486 0.949 . S
C3490 C3498 1.574 . S
C3490 C3506 1.368 . S
H3491 C3499 0.950 . S
H3492 C3497 0.950 . S
H3493 C3498 0.949 . S
H3494 C3500 0.950 . S
H3495 C3501 0.950 . S
H3496 C3502 0.949 . S
C3497 H3492 0.950 . S
C3497 C3499 1.327 . S
C3497 C3503 1.429 . S
C3498 C3490 1.574 . S
C3498 H3493 0.949 . S
C3498 C3504 1.368 . S
C3499 C3483 1.349 . S
C3499 H3491 0.950 . S
C3499 C3497 1.327 . S
C3500 C3488 1.349 . S
C3500 H3494 0.950 . S
C3500 C3501 1.327 . S
C3501 H3495 0.950 . S
C3501 C3500 1.327 . S
C3501 C3505 1.429 . S
C3502 C3485 1.574 . S
C3502 H3496 0.949 . S
C3502 C3506 1.368 . S
C3503 C3484 1.429 . S
C3503 C3497 1.429 . S
C3503 C3504 1.523 . S
C3504 C3485 1.368 . S
C3504 C3498 1.368 . S
C3504 C3503 1.523 . S
C3505 C3489 1.429 . S
C3505 C3501 1.429 . S
C3505 C3506 1.523 . S
C3506 C3490 1.368 . S
C3506 C3502 1.368 . S
C3506 C3505 1.523 . S
H3507 C3482 0.950 . S
H3508 C3484 0.950 . S
H3509 C3485 0.949 . S
H3510 C3487 0.950 . S
H3511 C3489 0.950 . S
C3512 C3513 1.349 . S
C3512 C3514 1.327 . S
C3512 H3537 0.950 . S
C3513 C3512 1.349 . S
C3513 C3529 1.349 1_565 S
C3514 C3512 1.327 . S
C3514 C3533 1.429 . S
C3514 H3538 0.950 . S
C3515 C3532 1.574 . S
C3515 C3534 1.368 . S
C3515 H3539 0.949 . S
H3516 C3520 0.949 . S
C3517 C3518 1.349 . S
C3517 C3519 1.327 . S
C3517 H3540 0.950 . S
C3518 C3517 1.349 . S
C3518 C3530 1.349 . S
C3519 C3517 1.327 . S
C3519 C3535 1.429 . S
C3519 H3541 0.950 . S
C3520 H3516 0.949 . S
C3520 C3528 1.574 . S
C3520 C3536 1.368 1_565 S
H3521 C3529 0.950 . S
H3522 C3527 0.950 . S
H3523 C3528 0.949 . S
H3524 C3530 0.951 . S
H3525 C3531 0.950 1_565 S
H3526 C3532 0.949 . S
C3527 H3522 0.950 . S
C3527 C3529 1.327 . S
C3527 C3533 1.429 1_545 S
C3528 C3520 1.574 . S
C3528 H3523 0.949 . S
C3528 C3534 1.368 1_565 S
C3529 C3513 1.349 1_545 S
C3529 H3521 0.950 . S
C3529 C3527 1.327 . S
C3530 C3518 1.349 . S
C3530 H3524 0.951 . S
C3530 C3531 1.327 . S
C3531 H3525 0.950 1_545 S
C3531 C3530 1.327 . S
C3531 C3535 1.429 . S
C3532 C3515 1.574 . S
C3532 H3526 0.949 . S
C3532 C3536 1.368 . S
C3533 C3514 1.429 . S
C3533 C3527 1.429 1_565 S
C3533 C3534 1.523 1_565 S
C3534 C3515 1.368 . S
C3534 C3528 1.368 1_545 S
C3534 C3533 1.523 1_545 S
C3535 C3519 1.429 . S
C3535 C3531 1.429 . S
C3535 C3536 1.523 . S
C3536 C3520 1.368 1_545 S
C3536 C3532 1.368 . S
C3536 C3535 1.523 . S
H3537 C3512 0.950 . S
H3538 C3514 0.950 . S
H3539 C3515 0.949 . S
H3540 C3517 0.950 . S
H3541 C3519 0.950 . S
C3542 C3543 1.349 . S
C3542 C3544 1.327 . S
C3542 H3567 0.950 . S
C3543 C3542 1.349 . S
C3543 C3559 1.349 . S
C3544 C3542 1.327 . S
C3544 C3563 1.429 . S
C3544 H3568 0.950 . S
C3545 C3562 1.574 . S
C3545 C3564 1.368 . S
C3545 H3569 0.949 . S
H3546 C3550 0.949 . S
C3547 C3548 1.349 . S
C3547 C3549 1.327 . S
C3547 H3570 0.950 . S
C3548 C3547 1.349 . S
C3548 C3560 1.349 . S
C3549 C3547 1.327 . S
C3549 C3565 1.429 . S
C3549 H3571 0.950 . S
C3550 H3546 0.949 . S
C3550 C3558 1.574 . S
C3550 C3566 1.368 . S
H3551 C3559 0.950 . S
H3552 C3557 0.950 . S
H3553 C3558 0.949 . S
H3554 C3560 0.950 . S
H3555 C3561 0.950 . S
H3556 C3562 0.949 . S
C3557 H3552 0.950 . S
C3557 C3559 1.327 . S
C3557 C3563 1.429 . S
C3558 C3550 1.574 . S
C3558 H3553 0.949 . S
C3558 C3564 1.368 . S
C3559 C3543 1.349 . S
C3559 H3551 0.950 . S
C3559 C3557 1.327 . S
C3560 C3548 1.349 . S
C3560 H3554 0.950 . S
C3560 C3561 1.327 . S
C3561 H3555 0.950 . S
C3561 C3560 1.327 . S
C3561 C3565 1.429 . S
C3562 C3545 1.574 . S
C3562 H3556 0.949 . S
C3562 C3566 1.368 . S
C3563 C3544 1.429 . S
C3563 C3557 1.429 . S
C3563 C3564 1.523 . S
C3564 C3545 1.368 . S
C3564 C3558 1.368 . S
C3564 C3563 1.523 . S
C3565 C3549 1.429 . S
C3565 C3561 1.429 . S
C3565 C3566 1.523 . S
C3566 C3550 1.368 . S
C3566 C3562 1.368 . S
C3566 C3565 1.523 . S
H3567 C3542 0.950 . S
H3568 C3544 0.950 . S
H3569 C3545 0.949 . S
H3570 C3547 0.950 . S
H3571 C3549 0.950 . S
C3572 C3573 1.349 . S
C3572 C3574 1.327 . S
C3572 H3597 0.950 . S
C3573 C3572 1.349 . S
C3573 C3589 1.349 . S
C3574 C3572 1.327 . S
C3574 C3593 1.429 . S
C3574 H3598 0.950 . S
C3575 C3592 1.574 . S
C3575 C3594 1.368 . S
C3575 H3599 0.949 . S
H3576 C3580 0.949 . S
C3577 C3578 1.349 . S
C3577 C3579 1.327 . S
C3577 H3600 0.950 . S
C3578 C3577 1.349 . S
C3578 C3590 1.349 . S
C3579 C3577 1.327 . S
C3579 C3595 1.429 . S
C3579 H3601 0.950 . S
C3580 H3576 0.949 . S
C3580 C3588 1.574 . S
C3580 C3596 1.368 . S
H3581 C3589 0.950 . S
H3582 C3587 0.950 . S
H3583 C3588 0.949 . S
H3584 C3590 0.950 . S
H3585 C3591 0.950 . S
H3586 C3592 0.949 . S
C3587 H3582 0.950 . S
C3587 C3589 1.327 . S
C3587 C3593 1.429 . S
C3588 C3580 1.574 . S
C3588 H3583 0.949 . S
C3588 C3594 1.368 . S
C3589 C3573 1.349 . S
C3589 H3581 0.950 . S
C3589 C3587 1.327 . S
C3590 C3578 1.349 . S
C3590 H3584 0.950 . S
C3590 C3591 1.327 . S
C3591 H3585 0.950 . S
C3591 C3590 1.327 . S
C3591 C3595 1.429 . S
C3592 C3575 1.574 . S
C3592 H3586 0.949 . S
C3592 C3596 1.368 . S
C3593 C3574 1.429 . S
C3593 C3587 1.429 . S
C3593 C3594 1.523 . S
C3594 C3575 1.368 . S
C3594 C3588 1.368 . S
C3594 C3593 1.523 . S
C3595 C3579 1.429 . S
C3595 C3591 1.429 . S
C3595 C3596 1.523 . S
C3596 C3580 1.368 . S
C3596 C3592 1.368 . S
C3596 C3595 1.523 . S
H3597 C3572 0.950 . S
H3598 C3574 0.950 . S
H3599 C3575 0.949 . S
H3600 C3577 0.950 . S
H3601 C3579 0.950 . S
C3602 C3603 1.349 . S
C3602 C3604 1.327 . S
C3602 H3627 0.950 . S
C3603 C3602 1.349 . S
C3603 C3619 1.349 . S
C3604 C3602 1.327 . S
C3604 C3623 1.429 . S
C3604 H3628 0.950 . S
C3605 C3622 1.574 . S
C3605 C3624 1.368 . S
C3605 H3629 0.949 . S
H3606 C3610 0.949 . S
C3607 C3608 1.349 . S
C3607 C3609 1.327 . S
C3607 H3630 0.950 . S
C3608 C3607 1.349 . S
C3608 C3620 1.349 . S
C3609 C3607 1.327 . S
C3609 C3625 1.429 . S
C3609 H3631 0.950 . S
C3610 H3606 0.949 . S
C3610 C3618 1.574 . S
C3610 C3626 1.368 . S
H3611 C3619 0.950 . S
H3612 C3617 0.950 . S
H3613 C3618 0.949 . S
H3614 C3620 0.950 . S
H3615 C3621 0.950 . S
H3616 C3622 0.949 . S
C3617 H3612 0.950 . S
C3617 C3619 1.327 . S
C3617 C3623 1.429 . S
C3618 C3610 1.574 . S
C3618 H3613 0.949 . S
C3618 C3624 1.368 . S
C3619 C3603 1.349 . S
C3619 H3611 0.950 . S
C3619 C3617 1.327 . S
C3620 C3608 1.349 . S
C3620 H3614 0.950 . S
C3620 C3621 1.327 . S
C3621 H3615 0.950 . S
C3621 C3620 1.327 . S
C3621 C3625 1.429 . S
C3622 C3605 1.574 . S
C3622 H3616 0.949 . S
C3622 C3626 1.368 . S
C3623 C3604 1.429 . S
C3623 C3617 1.429 . S
C3623 C3624 1.523 . S
C3624 C3605 1.368 . S
C3624 C3618 1.368 . S
C3624 C3623 1.523 . S
C3625 C3609 1.429 . S
C3625 C3621 1.429 . S
C3625 C3626 1.523 . S
C3626 C3610 1.368 . S
C3626 C3622 1.368 . S
C3626 C3625 1.523 . S
H3627 C3602 0.950 . S
H3628 C3604 0.950 . S
H3629 C3605 0.949 . S
H3630 C3607 0.950 . S
H3631 C3609 0.950 . S
C3632 C3633 1.349 . S
C3632 C3634 1.327 . S
C3632 H3657 0.950 . S
C3633 C3632 1.349 . S
C3633 C3649 1.349 1_556 S
C3634 C3632 1.327 . S
C3634 C3653 1.429 . S
C3634 H3658 0.950 . S
C3635 C3652 1.574 . S
C3635 C3654 1.368 1_554 S
C3635 H3659 0.949 . S
H3636 C3640 0.949 . S
C3637 C3638 1.349 1_554 S
C3637 C3639 1.327 . S
C3637 H3660 0.950 . S
C3638 C3637 1.349 1_556 S
C3638 C3650 1.349 . S
C3639 C3637 1.327 . S
C3639 C3655 1.429 1_554 S
C3639 H3661 0.950 . S
C3640 H3636 0.949 . S
C3640 C3648 1.574 . S
C3640 C3656 1.368 . S
H3641 C3649 0.950 . S
H3642 C3647 0.950 . S
H3643 C3648 0.949 . S
H3644 C3650 0.950 . S
H3645 C3651 0.950 . S
H3646 C3652 0.949 . S
C3647 H3642 0.950 . S
C3647 C3649 1.327 . S
C3647 C3653 1.429 1_554 S
C3648 C3640 1.574 . S
C3648 H3643 0.949 . S
C3648 C3654 1.368 . S
C3649 C3633 1.349 1_554 S
C3649 H3641 0.950 . S
C3649 C3647 1.327 . S
C3650 C3638 1.349 . S
C3650 H3644 0.950 . S
C3650 C3651 1.327 . S
C3651 H3645 0.950 . S
C3651 C3650 1.327 . S
C3651 C3655 1.429 . S
C3652 C3635 1.574 . S
C3652 H3646 0.949 . S
C3652 C3656 1.368 1_554 S
C3653 C3634 1.429 . S
C3653 C3647 1.429 1_556 S
C3653 C3654 1.523 . S
C3654 C3635 1.368 1_556 S
C3654 C3648 1.368 . S
C3654 C3653 1.523 . S
C3655 C3639 1.429 1_556 S
C3655 C3651 1.429 . S
C3655 C3656 1.523 . S
C3656 C3640 1.368 . S
C3656 C3652 1.368 1_556 S
C3656 C3655 1.523 . S
H3657 C3632 0.950 . S
H3658 C3634 0.950 . S
H3659 C3635 0.949 . S
H3660 C3637 0.950 . S
H3661 C3639 0.950 . S
C3662 C3663 1.349 . S
C3662 C3664 1.327 . S
C3662 H3687 0.950 . S
C3663 C3662 1.349 . S
C3663 C3679 1.349 . S
C3664 C3662 1.327 . S
C3664 C3683 1.429 . S
C3664 H3688 0.950 . S
C3665 C3682 1.574 . S
C3665 C3684 1.368 . S
C3665 H3689 0.934 1_554 S
H3666 C3670 0.949 . S
C3667 C3668 1.349 . S
C3667 C3669 1.327 . S
C3667 H3690 0.920 1_554 S
C3668 C3667 1.349 . S
C3668 C3680 1.349 . S
C3669 C3667 1.327 . S
C3669 C3685 1.429 . S
C3669 H3691 0.911 1_554 S
C3670 H3666 0.949 . S
C3670 C3678 1.574 . S
C3670 C3686 1.368 . S
H3671 C3679 0.985 . S
H3672 C3677 0.953 1_556 S
H3673 C3678 0.949 . S
H3674 C3680 0.950 . S
H3675 C3681 0.950 . S
H3676 C3682 0.912 1_556 S
C3677 H3672 0.953 1_554 S
C3677 C3679 1.327 . S
C3677 C3683 1.429 . S
C3678 C3670 1.574 . S
C3678 H3673 0.949 . S
C3678 C3684 1.368 . S
C3679 C3663 1.349 . S
C3679 H3671 0.985 . S
C3679 C3677 1.327 . S
C3680 C3668 1.349 . S
C3680 H3674 0.950 . S
C3680 C3681 1.327 . S
C3681 H3675 0.950 . S
C3681 C3680 1.327 . S
C3681 C3685 1.429 . S
C3682 C3665 1.574 . S
C3682 H3676 0.912 1_554 S
C3682 C3686 1.368 . S
C3683 C3664 1.429 . S
C3683 C3677 1.429 . S
C3683 C3684 1.523 . S
C3684 C3665 1.368 . S
C3684 C3678 1.368 . S
C3684 C3683 1.523 . S
C3685 C3669 1.429 . S
C3685 C3681 1.429 . S
C3685 C3686 1.523 . S
C3686 C3670 1.368 . S
C3686 C3682 1.368 . S
C3686 C3685 1.523 . S
H3687 C3662 0.950 . S
H3688 C3664 0.950 . S
H3689 C3665 0.934 1_556 S
H3690 C3667 0.920 1_556 S
H3691 C3669 0.911 1_556 S
C3692 C3693 1.349 . S
C3692 C3694 1.327 . S
C3692 H3717 0.950 . S
C3693 C3692 1.349 . S
C3693 C3709 1.349 . S
C3694 C3692 1.327 . S
C3694 C3713 1.429 . S
C3694 H3718 0.950 . S
C3695 C3712 1.574 . S
C3695 C3714 1.368 . S
C3695 H3719 0.949 . S
H3696 C3700 0.949 . S
C3697 C3698 1.349 . S
C3697 C3699 1.327 . S
C3697 H3720 0.950 . S
C3698 C3697 1.349 . S
C3698 C3710 1.349 . S
C3699 C3697 1.327 . S
C3699 C3715 1.429 . S
C3699 H3721 0.950 . S
C3700 H3696 0.949 . S
C3700 C3708 1.574 . S
C3700 C3716 1.368 . S
H3701 C3709 0.950 . S
H3702 C3707 0.950 . S
H3703 C3708 0.949 . S
H3704 C3710 0.950 . S
H3705 C3711 0.950 . S
H3706 C3712 0.949 . S
C3707 H3702 0.950 . S
C3707 C3709 1.327 . S
C3707 C3713 1.429 . S
C3708 C3700 1.574 . S
C3708 H3703 0.949 . S
C3708 C3714 1.368 . S
C3709 C3693 1.349 . S
C3709 H3701 0.950 . S
C3709 C3707 1.327 . S
C3710 C3698 1.349 . S
C3710 H3704 0.950 . S
C3710 C3711 1.327 . S
C3711 H3705 0.950 . S
C3711 C3710 1.327 . S
C3711 C3715 1.429 . S
C3712 C3695 1.574 . S
C3712 H3706 0.949 . S
C3712 C3716 1.368 . S
C3713 C3694 1.429 . S
C3713 C3707 1.429 . S
C3713 C3714 1.523 . S
C3714 C3695 1.368 . S
C3714 C3708 1.368 . S
C3714 C3713 1.523 . S
C3715 C3699 1.429 . S
C3715 C3711 1.429 . S
C3715 C3716 1.523 . S
C3716 C3700 1.368 . S
C3716 C3712 1.368 . S
C3716 C3715 1.523 . S
H3717 C3692 0.950 . S
H3718 C3694 0.950 . S
H3719 C3695 0.949 . S
H3720 C3697 0.950 . S
H3721 C3699 0.950 . S
C3722 C3723 1.349 . S
C3722 C3724 1.327 . S
C3722 H3747 0.950 . S
C3723 C3722 1.349 . S
C3723 C3739 1.349 . S
C3724 C3722 1.327 . S
C3724 C3743 1.429 . S
C3724 H3748 0.950 . S
C3725 C3742 1.574 . S
C3725 C3744 1.368 . S
C3725 H3749 0.949 . S
H3726 C3730 0.949 . S
C3727 C3728 1.349 . S
C3727 C3729 1.327 . S
C3727 H3750 0.950 . S
C3728 C3727 1.349 . S
C3728 C3740 1.349 . S
C3729 C3727 1.327 . S
C3729 C3745 1.429 . S
C3729 H3751 0.950 . S
C3730 H3726 0.949 . S
C3730 C3738 1.574 . S
C3730 C3746 1.368 . S
H3731 C3739 0.950 . S
H3732 C3737 0.950 . S
H3733 C3738 0.949 . S
H3734 C3740 0.950 . S
H3735 C3741 0.950 . S
H3736 C3742 0.949 . S
C3737 H3732 0.950 . S
C3737 C3739 1.327 . S
C3737 C3743 1.429 . S
C3738 C3730 1.574 . S
C3738 H3733 0.949 . S
C3738 C3744 1.368 . S
C3739 C3723 1.349 . S
C3739 H3731 0.950 . S
C3739 C3737 1.327 . S
C3740 C3728 1.349 . S
C3740 H3734 0.950 . S
C3740 C3741 1.327 . S
C3741 H3735 0.950 . S
C3741 C3740 1.327 . S
C3741 C3745 1.429 . S
C3742 C3725 1.574 . S
C3742 H3736 0.949 . S
C3742 C3746 1.368 . S
C3743 C3724 1.429 . S
C3743 C3737 1.429 . S
C3743 C3744 1.523 . S
C3744 C3725 1.368 . S
C3744 C3738 1.368 . S
C3744 C3743 1.523 . S
C3745 C3729 1.429 . S
C3745 C3741 1.429 . S
C3745 C3746 1.523 . S
C3746 C3730 1.368 . S
C3746 C3742 1.368 . S
C3746 C3745 1.523 . S
H3747 C3722 0.950 . S
H3748 C3724 0.950 . S
H3749 C3725 0.949 . S
H3750 C3727 0.950 . S
H3751 C3729 0.950 . S
C3752 C3753 1.349 . S
C3752 C3754 1.327 . S
C3752 H3777 0.950 . S
C3753 C3752 1.349 . S
C3753 C3769 1.349 . S
C3754 C3752 1.327 . S
C3754 C3773 1.429 . S
C3754 H3778 0.950 . S
C3755 C3772 1.574 . S
C3755 C3774 1.368 . S
C3755 H3779 0.949 . S
H3756 C3760 0.949 . S
C3757 C3758 1.349 . S
C3757 C3759 1.327 . S
C3757 H3780 0.950 . S
C3758 C3757 1.349 . S
C3758 C3770 1.349 . S
C3759 C3757 1.327 . S
C3759 C3775 1.429 . S
C3759 H3781 0.950 . S
C3760 H3756 0.949 . S
C3760 C3768 1.574 . S
C3760 C3776 1.368 . S
H3761 C3769 0.950 . S
H3762 C3767 0.950 . S
H3763 C3768 0.949 . S
H3764 C3770 0.950 . S
H3765 C3771 0.950 . S
H3766 C3772 0.949 . S
C3767 H3762 0.950 . S
C3767 C3769 1.327 . S
C3767 C3773 1.429 . S
C3768 C3760 1.574 . S
C3768 H3763 0.949 . S
C3768 C3774 1.368 . S
C3769 C3753 1.349 . S
C3769 H3761 0.950 . S
C3769 C3767 1.327 . S
C3770 C3758 1.349 . S
C3770 H3764 0.950 . S
C3770 C3771 1.327 . S
C3771 H3765 0.950 . S
C3771 C3770 1.327 . S
C3771 C3775 1.429 . S
C3772 C3755 1.574 . S
C3772 H3766 0.949 . S
C3772 C3776 1.368 . S
C3773 C3754 1.429 . S
C3773 C3767 1.429 . S
C3773 C3774 1.523 . S
C3774 C3755 1.368 . S
C3774 C3768 1.368 . S
C3774 C3773 1.523 . S
C3775 C3759 1.429 . S
C3775 C3771 1.429 . S
C3775 C3776 1.523 . S
C3776 C3760 1.368 . S
C3776 C3772 1.368 . S
C3776 C3775 1.523 . S
H3777 C3752 0.950 . S
H3778 C3754 0.950 . S
H3779 C3755 0.949 . S
H3780 C3757 0.950 . S
H3781 C3759 0.950 . S
C3782 C3783 1.349 . S
C3782 C3784 1.327 . S
C3782 H3807 0.950 . S
C3783 C3782 1.349 . S
C3783 C3799 1.349 . S
C3784 C3782 1.327 . S
C3784 C3803 1.429 . S
C3784 H3808 0.950 . S
C3785 C3802 1.574 . S
C3785 C3804 1.368 . S
C3785 H3809 0.949 . S
H3786 C3790 0.949 . S
C3787 C3788 1.349 1_545 S
C3787 C3789 1.327 1_545 S
C3787 H3810 0.950 . S
C3788 C3787 1.349 1_565 S
C3788 C3800 1.349 . S
C3789 C3787 1.327 1_565 S
C3789 C3805 1.429 . S
C3789 H3811 0.942 1_565 S
C3790 H3786 0.949 . S
C3790 C3798 1.574 . S
C3790 C3806 1.368 . S
H3791 C3799 0.950 . S
H3792 C3797 0.950 . S
H3793 C3798 0.949 . S
H3794 C3800 0.950 . S
H3795 C3801 0.950 . S
H3796 C3802 0.949 . S
C3797 H3792 0.950 . S
C3797 C3799 1.327 . S
C3797 C3803 1.429 . S
C3798 C3790 1.574 . S
C3798 H3793 0.949 . S
C3798 C3804 1.368 . S
C3799 C3783 1.349 . S
C3799 H3791 0.950 . S
C3799 C3797 1.327 . S
C3800 C3788 1.349 . S
C3800 H3794 0.950 . S
C3800 C3801 1.327 . S
C3801 H3795 0.950 . S
C3801 C3800 1.327 . S
C3801 C3805 1.429 . S
C3802 C3785 1.574 . S
C3802 H3796 0.949 . S
C3802 C3806 1.368 . S
C3803 C3784 1.429 . S
C3803 C3797 1.429 . S
C3803 C3804 1.523 . S
C3804 C3785 1.368 . S
C3804 C3798 1.368 . S
C3804 C3803 1.523 . S
C3805 C3789 1.429 . S
C3805 C3801 1.429 . S
C3805 C3806 1.523 . S
C3806 C3790 1.368 . S
C3806 C3802 1.368 . S
C3806 C3805 1.523 . S
H3807 C3782 0.950 . S
H3808 C3784 0.950 . S
H3809 C3785 0.949 . S
H3810 C3787 0.950 . S
H3811 C3789 0.942 1_545 S
C3812 C3813 1.349 . S
C3812 C3814 1.327 . S
C3812 H3837 0.950 . S
C3813 C3812 1.349 . S
C3813 C3829 1.349 . S
C3814 C3812 1.327 . S
C3814 C3833 1.429 . S
C3814 H3838 0.950 . S
C3815 C3832 1.574 . S
C3815 C3834 1.368 . S
C3815 H3839 0.949 . S
H3816 C3820 0.949 . S
C3817 C3818 1.349 . S
C3817 C3819 1.327 . S
C3817 H3840 0.950 . S
C3818 C3817 1.349 . S
C3818 C3830 1.349 . S
C3819 C3817 1.327 . S
C3819 C3835 1.429 . S
C3819 H3841 0.950 . S
C3820 H3816 0.949 . S
C3820 C3828 1.574 . S
C3820 C3836 1.368 . S
H3821 C3829 0.950 . S
H3822 C3827 0.950 . S
H3823 C3828 0.949 . S
H3824 C3830 0.950 . S
H3825 C3831 0.950 . S
H3826 C3832 0.949 . S
C3827 H3822 0.950 . S
C3827 C3829 1.327 . S
C3827 C3833 1.429 . S
C3828 C3820 1.574 . S
C3828 H3823 0.949 . S
C3828 C3834 1.368 . S
C3829 C3813 1.349 . S
C3829 H3821 0.950 . S
C3829 C3827 1.327 . S
C3830 C3818 1.349 . S
C3830 H3824 0.950 . S
C3830 C3831 1.327 . S
C3831 H3825 0.950 . S
C3831 C3830 1.327 . S
C3831 C3835 1.429 . S
C3832 C3815 1.574 . S
C3832 H3826 0.949 . S
C3832 C3836 1.368 . S
C3833 C3814 1.429 . S
C3833 C3827 1.429 . S
C3833 C3834 1.523 . S
C3834 C3815 1.368 . S
C3834 C3828 1.368 . S
C3834 C3833 1.523 . S
C3835 C3819 1.429 . S
C3835 C3831 1.429 . S
C3835 C3836 1.523 . S
C3836 C3820 1.368 . S
C3836 C3832 1.368 . S
C3836 C3835 1.523 . S
H3837 C3812 0.950 . S
H3838 C3814 0.950 . S
H3839 C3815 0.949 . S
H3840 C3817 0.950 . S
H3841 C3819 0.950 . S
C3842 C3843 1.349 . S
C3842 C3844 1.327 . S
C3842 H3867 0.950 . S
C3843 C3842 1.349 . S
C3843 C3859 1.349 . S
C3844 C3842 1.327 . S
C3844 C3863 1.429 . S
C3844 H3868 0.950 . S
C3845 C3862 1.574 . S
C3845 C3864 1.368 . S
C3845 H3869 0.949 . S
H3846 C3850 0.949 . S
C3847 C3848 1.349 . S
C3847 C3849 1.327 . S
C3847 H3870 0.950 . S
C3848 C3847 1.349 . S
C3848 C3860 1.349 . S
C3849 C3847 1.327 . S
C3849 C3865 1.429 . S
C3849 H3871 0.950 . S
C3850 H3846 0.949 . S
C3850 C3858 1.574 . S
C3850 C3866 1.368 . S
H3851 C3859 0.950 . S
H3852 C3857 0.950 . S
H3853 C3858 0.949 . S
H3854 C3860 0.950 . S
H3855 C3861 0.950 . S
H3856 C3862 0.949 . S
C3857 H3852 0.950 . S
C3857 C3859 1.327 . S
C3857 C3863 1.429 . S
C3858 C3850 1.574 . S
C3858 H3853 0.949 . S
C3858 C3864 1.368 . S
C3859 C3843 1.349 . S
C3859 H3851 0.950 . S
C3859 C3857 1.327 . S
C3860 C3848 1.349 . S
C3860 H3854 0.950 . S
C3860 C3861 1.327 . S
C3861 H3855 0.950 . S
C3861 C3860 1.327 . S
C3861 C3865 1.429 . S
C3862 C3845 1.574 . S
C3862 H3856 0.949 . S
C3862 C3866 1.368 . S
C3863 C3844 1.429 . S
C3863 C3857 1.429 . S
C3863 C3864 1.523 . S
C3864 C3845 1.368 . S
C3864 C3858 1.368 . S
C3864 C3863 1.523 . S
C3865 C3849 1.429 . S
C3865 C3861 1.429 . S
C3865 C3866 1.523 . S
C3866 C3850 1.368 . S
C3866 C3862 1.368 . S
C3866 C3865 1.523 . S
H3867 C3842 0.950 . S
H3868 C3844 0.950 . S
H3869 C3845 0.949 . S
H3870 C3847 0.950 . S
H3871 C3849 0.950 . S
C3872 C3873 1.349 . S
C3872 C3874 1.327 . S
C3872 H3897 0.950 . S
C3873 C3872 1.349 . S
C3873 C3889 1.349 . S
C3874 C3872 1.327 . S
C3874 C3893 1.429 . S
C3874 H3898 0.950 . S
C3875 C3892 1.574 . S
C3875 C3894 1.368 . S
C3875 H3899 0.949 . S
H3876 C3880 0.949 . S
C3877 C3878 1.349 . S
C3877 C3879 1.327 . S
C3877 H3900 0.950 . S
C3878 C3877 1.349 . S
C3878 C3890 1.349 . S
C3879 C3877 1.327 . S
C3879 C3895 1.429 . S
C3879 H3901 0.950 . S
C3880 H3876 0.949 . S
C3880 C3888 1.574 . S
C3880 C3896 1.368 . S
H3881 C3889 0.950 . S
H3882 C3887 0.950 . S
H3883 C3888 0.949 . S
H3884 C3890 0.950 . S
H3885 C3891 0.950 . S
H3886 C3892 0.949 . S
C3887 H3882 0.950 . S
C3887 C3889 1.327 . S
C3887 C3893 1.429 . S
C3888 C3880 1.574 . S
C3888 H3883 0.949 . S
C3888 C3894 1.368 . S
C3889 C3873 1.349 . S
C3889 H3881 0.950 . S
C3889 C3887 1.327 . S
C3890 C3878 1.349 . S
C3890 H3884 0.950 . S
C3890 C3891 1.327 . S
C3891 H3885 0.950 . S
C3891 C3890 1.327 . S
C3891 C3895 1.429 . S
C3892 C3875 1.574 . S
C3892 H3886 0.949 . S
C3892 C3896 1.368 . S
C3893 C3874 1.429 . S
C3893 C3887 1.429 . S
C3893 C3894 1.523 . S
C3894 C3875 1.368 . S
C3894 C3888 1.368 . S
C3894 C3893 1.523 . S
C3895 C3879 1.429 . S
C3895 C3891 1.429 . S
C3895 C3896 1.523 . S
C3896 C3880 1.368 . S
C3896 C3892 1.368 . S
C3896 C3895 1.523 . S
H3897 C3872 0.950 . S
H3898 C3874 0.950 . S
H3899 C3875 0.949 . S
H3900 C3877 0.950 . S
H3901 C3879 0.950 . S
C3902 C3903 1.349 . S
C3902 C3904 1.327 . S
C3902 H3927 0.950 . S
C3903 C3902 1.349 . S
C3903 C3919 1.349 . S
C3904 C3902 1.327 . S
C3904 C3923 1.429 . S
C3904 H3928 0.950 . S
C3905 C3922 1.574 . S
C3905 C3924 1.368 . S
C3905 H3929 0.949 . S
H3906 C3910 0.949 . S
C3907 C3908 1.349 . S
C3907 C3909 1.327 . S
C3907 H3930 0.950 . S
C3908 C3907 1.349 . S
C3908 C3920 1.349 . S
C3909 C3907 1.327 . S
C3909 C3925 1.429 . S
C3909 H3931 0.950 . S
C3910 H3906 0.949 . S
C3910 C3918 1.574 . S
C3910 C3926 1.368 . S
H3911 C3919 0.950 . S
H3912 C3917 0.950 . S
H3913 C3918 0.949 . S
H3914 C3920 0.950 . S
H3915 C3921 0.950 . S
H3916 C3922 0.949 . S
C3917 H3912 0.950 . S
C3917 C3919 1.327 . S
C3917 C3923 1.429 . S
C3918 C3910 1.574 . S
C3918 H3913 0.949 . S
C3918 C3924 1.368 . S
C3919 C3903 1.349 . S
C3919 H3911 0.950 . S
C3919 C3917 1.327 . S
C3920 C3908 1.349 . S
C3920 H3914 0.950 . S
C3920 C3921 1.327 . S
C3921 H3915 0.950 . S
C3921 C3920 1.327 . S
C3921 C3925 1.429 . S
C3922 C3905 1.574 . S
C3922 H3916 0.949 . S
C3922 C3926 1.368 . S
C3923 C3904 1.429 . S
C3923 C3917 1.429 . S
C3923 C3924 1.523 . S
C3924 C3905 1.368 . S
C3924 C3918 1.368 . S
C3924 C3923 1.523 . S
C3925 C3909 1.429 . S
C3925 C3921 1.429 . S
C3925 C3926 1.523 . S
C3926 C3910 1.368 . S
C3926 C3922 1.368 . S
C3926 C3925 1.523 . S
H3927 C3902 0.950 . S
H3928 C3904 0.950 . S
H3929 C3905 0.949 . S
H3930 C3907 0.950 . S
H3931 C3909 0.950 . S
C3932 C3933 1.349 . S
C3932 C3934 1.327 . S
C3932 H3957 0.950 . S
C3933 C3932 1.349 . S
C3933 C3949 1.351 1_455 S
C3934 C3932 1.327 . S
C3934 C3953 1.429 . S
C3934 H3958 0.950 . S
C3935 C3952 1.574 . S
C3935 C3954 1.368 1_655 S
C3935 H3959 0.949 . S
H3936 C3940 0.949 1_554 S
C3937 C3938 1.349 1_656 S
C3937 C3939 1.327 . S
C3937 H3960 0.950 . S
C3938 C3937 1.349 1_454 S
C3938 C3950 1.349 . S
C3939 C3937 1.327 . S
C3939 C3955 1.429 1_655 S
C3939 H3961 0.950 . S
C3940 H3936 0.949 1_556 S
C3940 C3948 1.574 . S
C3940 C3956 1.368 . S
H3941 C3949 0.948 . S
H3942 C3947 1.000 . S
H3943 C3948 0.949 . S
H3944 C3950 0.950 . S
H3945 C3951 0.950 . S
H3946 C3952 0.949 . S
C3947 H3942 1.000 . S
C3947 C3949 1.313 . S
C3947 C3953 1.396 1_655 S
C3948 C3940 1.574 . S
C3948 H3943 0.949 . S
C3948 C3954 1.368 . S
C3949 C3933 1.351 1_655 S
C3949 H3941 0.948 . S
C3949 C3947 1.313 . S
C3950 C3938 1.349 . S
C3950 H3944 0.950 . S
C3950 C3951 1.327 . S
C3951 H3945 0.950 . S
C3951 C3950 1.327 . S
C3951 C3955 1.429 1_554 S
C3952 C3935 1.574 . S
C3952 H3946 0.949 . S
C3952 C3956 1.368 1_655 S
C3953 C3934 1.429 . S
C3953 C3947 1.396 1_455 S
C3953 C3954 1.523 . S
C3954 C3935 1.368 1_455 S
C3954 C3948 1.368 . S
C3954 C3953 1.523 . S
C3955 C3939 1.429 1_455 S
C3955 C3951 1.429 1_556 S
C3955 C3956 1.523 . S
C3956 C3940 1.368 . S
C3956 C3952 1.368 1_455 S
C3956 C3955 1.523 . S
H3957 C3932 0.950 . S
H3958 C3934 0.950 . S
H3959 C3935 0.949 . S
H3960 C3937 0.950 . S
H3961 C3939 0.950 . S
C3962 C3963 1.349 . S
C3962 C3964 1.327 . S
C3962 H3987 0.950 . S
C3963 C3962 1.349 . S
C3963 C3979 1.349 . S
C3964 C3962 1.327 . S
C3964 C3983 1.429 . S
C3964 H3988 0.950 . S
C3965 C3982 1.574 . S
C3965 C3984 1.368 . S
C3965 H3989 0.949 . S
H3966 C3970 0.949 . S
C3967 C3968 1.349 . S
C3967 C3969 1.327 . S
C3967 H3990 0.950 . S
C3968 C3967 1.349 . S
C3968 C3980 1.349 . S
C3969 C3967 1.327 . S
C3969 C3985 1.429 . S
C3969 H3991 0.950 . S
C3970 H3966 0.949 . S
C3970 C3978 1.574 . S
C3970 C3986 1.368 . S
H3971 C3979 0.950 . S
H3972 C3977 0.950 . S
H3973 C3978 0.949 . S
H3974 C3980 0.950 . S
H3975 C3981 0.950 . S
H3976 C3982 0.949 . S
C3977 H3972 0.950 . S
C3977 C3979 1.327 . S
C3977 C3983 1.429 . S
C3978 C3970 1.574 . S
C3978 H3973 0.949 . S
C3978 C3984 1.368 . S
C3979 C3963 1.349 . S
C3979 H3971 0.950 . S
C3979 C3977 1.327 . S
C3980 C3968 1.349 . S
C3980 H3974 0.950 . S
C3980 C3981 1.327 . S
C3981 H3975 0.950 . S
C3981 C3980 1.327 . S
C3981 C3985 1.429 . S
C3982 C3965 1.574 . S
C3982 H3976 0.949 . S
C3982 C3986 1.368 . S
C3983 C3964 1.429 . S
C3983 C3977 1.429 . S
C3983 C3984 1.523 . S
C3984 C3965 1.368 . S
C3984 C3978 1.368 . S
C3984 C3983 1.523 . S
C3985 C3969 1.429 . S
C3985 C3981 1.429 . S
C3985 C3986 1.523 . S
C3986 C3970 1.368 . S
C3986 C3982 1.368 . S
C3986 C3985 1.523 . S
H3987 C3962 0.950 . S
H3988 C3964 0.950 . S
H3989 C3965 0.949 . S
H3990 C3967 0.950 . S
H3991 C3969 0.950 . S
C3992 C3993 1.349 . S
C3992 C3994 1.327 . S
C3992 H4017 0.950 . S
C3993 C3992 1.349 . S
C3993 C4009 1.349 . S
C3994 C3992 1.327 . S
C3994 C4013 1.429 . S
C3994 H4018 0.950 . S
C3995 C4012 1.574 . S
C3995 C4014 1.368 . S
C3995 H4019 0.949 . S
H3996 C4000 0.949 . S
C3997 C3998 1.349 . S
C3997 C3999 1.327 . S
C3997 H4020 0.950 . S
C3998 C3997 1.349 . S
C3998 C4010 1.349 . S
C3999 C3997 1.327 . S
C3999 C4015 1.429 . S
C3999 H4021 0.950 . S
C4000 H3996 0.949 . S
C4000 C4008 1.574 . S
C4000 C4016 1.368 . S
H4001 C4009 0.950 . S
H4002 C4007 0.950 . S
H4003 C4008 0.949 . S
H4004 C4010 0.950 . S
H4005 C4011 0.950 . S
H4006 C4012 0.949 . S
C4007 H4002 0.950 . S
C4007 C4009 1.327 . S
C4007 C4013 1.429 . S
C4008 C4000 1.574 . S
C4008 H4003 0.949 . S
C4008 C4014 1.368 . S
C4009 C3993 1.349 . S
C4009 H4001 0.950 . S
C4009 C4007 1.327 . S
C4010 C3998 1.349 . S
C4010 H4004 0.950 . S
C4010 C4011 1.327 . S
C4011 H4005 0.950 . S
C4011 C4010 1.327 . S
C4011 C4015 1.429 . S
C4012 C3995 1.574 . S
C4012 H4006 0.949 . S
C4012 C4016 1.368 . S
C4013 C3994 1.429 . S
C4013 C4007 1.429 . S
C4013 C4014 1.523 . S
C4014 C3995 1.368 . S
C4014 C4008 1.368 . S
C4014 C4013 1.523 . S
C4015 C3999 1.429 . S
C4015 C4011 1.429 . S
C4015 C4016 1.523 . S
C4016 C4000 1.368 . S
C4016 C4012 1.368 . S
C4016 C4015 1.523 . S
H4017 C3992 0.950 . S
H4018 C3994 0.950 . S
H4019 C3995 0.949 . S
H4020 C3997 0.950 . S
H4021 C3999 0.950 . S
C4022 C4023 1.349 . S
C4022 C4024 1.327 . S
C4022 H4047 0.950 . S
C4023 C4022 1.349 . S
C4023 C4039 1.349 . S
C4024 C4022 1.327 . S
C4024 C4043 1.429 . S
C4024 H4048 0.950 . S
C4025 C4042 1.574 . S
C4025 C4044 1.368 . S
C4025 H4049 0.949 . S
H4026 C4030 0.949 . S
C4027 C4028 1.349 . S
C4027 C4029 1.327 . S
C4027 H4050 0.950 . S
C4028 C4027 1.349 . S
C4028 C4040 1.349 . S
C4029 C4027 1.327 . S
C4029 C4045 1.429 . S
C4029 H4051 0.950 . S
C4030 H4026 0.949 . S
C4030 C4038 1.574 . S
C4030 C4046 1.368 . S
H4031 C4039 0.950 . S
H4032 C4037 0.950 . S
H4033 C4038 0.949 . S
H4034 C4040 0.950 . S
H4035 C4041 0.950 . S
H4036 C4042 0.949 . S
C4037 H4032 0.950 . S
C4037 C4039 1.327 . S
C4037 C4043 1.429 . S
C4038 C4030 1.574 . S
C4038 H4033 0.949 . S
C4038 C4044 1.368 . S
C4039 C4023 1.349 . S
C4039 H4031 0.950 . S
C4039 C4037 1.327 . S
C4040 C4028 1.349 . S
C4040 H4034 0.950 . S
C4040 C4041 1.327 . S
C4041 H4035 0.950 . S
C4041 C4040 1.327 . S
C4041 C4045 1.429 . S
C4042 C4025 1.574 . S
C4042 H4036 0.949 . S
C4042 C4046 1.368 . S
C4043 C4024 1.429 . S
C4043 C4037 1.429 . S
C4043 C4044 1.523 . S
C4044 C4025 1.368 . S
C4044 C4038 1.368 . S
C4044 C4043 1.523 . S
C4045 C4029 1.429 . S
C4045 C4041 1.429 . S
C4045 C4046 1.523 . S
C4046 C4030 1.368 . S
C4046 C4042 1.368 . S
C4046 C4045 1.523 . S
H4047 C4022 0.950 . S
H4048 C4024 0.950 . S
H4049 C4025 0.949 . S
H4050 C4027 0.950 . S
H4051 C4029 0.950 . S
C4052 C4053 1.348 . S
C4052 C4054 1.327 . S
C4052 H4077 0.950 . S
C4053 C4052 1.348 . S
C4053 C4069 1.351 1_655 S
C4054 C4052 1.327 . S
C4054 C4073 1.429 1_655 S
C4054 H4078 0.950 . S
C4055 C4072 1.574 . S
C4055 C4074 1.368 . S
C4055 H4079 0.949 . S
H4056 C4060 0.949 . S
C4057 C4058 1.349 . S
C4057 C4059 1.327 . S
C4057 H4080 0.950 . S
C4058 C4057 1.349 . S
C4058 C4070 1.349 1_455 S
C4059 C4057 1.327 . S
C4059 C4075 1.429 . S
C4059 H4081 0.950 . S
C4060 H4056 0.949 . S
C4060 C4068 1.574 . S
C4060 C4076 1.368 1_655 S
H4061 C4069 0.950 . S
H4062 C4067 0.950 . S
H4063 C4068 0.949 . S
H4064 C4070 0.950 . S
H4065 C4071 0.950 . S
H4066 C4072 0.949 . S
C4067 H4062 0.950 . S
C4067 C4069 1.327 . S
C4067 C4073 1.429 . S
C4068 C4060 1.574 . S
C4068 H4063 0.949 . S
C4068 C4074 1.368 1_655 S
C4069 C4053 1.351 1_455 S
C4069 H4061 0.950 . S
C4069 C4067 1.327 . S
C4070 C4058 1.349 1_655 S
C4070 H4064 0.950 . S
C4070 C4071 1.327 . S
C4071 H4065 0.950 . S
C4071 C4070 1.327 . S
C4071 C4075 1.429 1_655 S
C4072 C4055 1.574 . S
C4072 H4066 0.949 . S
C4072 C4076 1.368 . S
C4073 C4054 1.429 1_455 S
C4073 C4067 1.429 . S
C4073 C4074 1.523 . S
C4074 C4055 1.368 . S
C4074 C4068 1.368 1_455 S
C4074 C4073 1.523 . S
C4075 C4059 1.429 . S
C4075 C4071 1.429 1_455 S
C4075 C4076 1.523 . S
C4076 C4060 1.368 1_455 S
C4076 C4072 1.368 . S
C4076 C4075 1.523 . S
H4077 C4052 0.950 . S
H4078 C4054 0.950 . S
H4079 C4055 0.949 . S
H4080 C4057 0.950 . S
H4081 C4059 0.950 . S
C4082 C4083 1.349 . S
C4082 C4084 1.327 . S
C4082 H4107 0.950 . S
C4083 C4082 1.349 . S
C4083 C4099 1.349 . S
C4084 C4082 1.327 . S
C4084 C4103 1.429 . S
C4084 H4108 0.950 . S
C4085 C4102 1.574 . S
C4085 C4104 1.368 . S
C4085 H4109 0.949 . S
H4086 C4090 0.949 . S
C4087 C4088 1.349 . S
C4087 C4089 1.327 . S
C4087 H4110 0.950 . S
C4088 C4087 1.349 . S
C4088 C4100 1.349 . S
C4089 C4087 1.327 . S
C4089 C4105 1.429 . S
C4089 H4111 0.950 . S
C4090 H4086 0.949 . S
C4090 C4098 1.574 . S
C4090 C4106 1.368 . S
H4091 C4099 0.950 . S
H4092 C4097 0.950 . S
H4093 C4098 0.949 . S
H4094 C4100 0.950 . S
H4095 C4101 0.950 . S
H4096 C4102 0.949 . S
C4097 H4092 0.950 . S
C4097 C4099 1.327 . S
C4097 C4103 1.429 . S
C4098 C4090 1.574 . S
C4098 H4093 0.949 . S
C4098 C4104 1.368 . S
C4099 C4083 1.349 . S
C4099 H4091 0.950 . S
C4099 C4097 1.327 . S
C4100 C4088 1.349 . S
C4100 H4094 0.950 . S
C4100 C4101 1.327 . S
C4101 H4095 0.950 . S
C4101 C4100 1.327 . S
C4101 C4105 1.429 . S
C4102 C4085 1.574 . S
C4102 H4096 0.949 . S
C4102 C4106 1.368 . S
C4103 C4084 1.429 . S
C4103 C4097 1.429 . S
C4103 C4104 1.523 . S
C4104 C4085 1.368 . S
C4104 C4098 1.368 . S
C4104 C4103 1.523 . S
C4105 C4089 1.429 . S
C4105 C4101 1.429 . S
C4105 C4106 1.523 . S
C4106 C4090 1.368 . S
C4106 C4102 1.368 . S
C4106 C4105 1.523 . S
H4107 C4082 0.950 . S
H4108 C4084 0.950 . S
H4109 C4085 0.949 . S
H4110 C4087 0.950 . S
H4111 C4089 0.950 . S
C4112 C4113 1.349 . S
C4112 C4114 1.327 . S
C4112 H4137 0.950 . S
C4113 C4112 1.349 . S
C4113 C4129 1.349 . S
C4114 C4112 1.327 . S
C4114 C4133 1.429 . S
C4114 H4138 0.950 . S
C4115 C4132 1.574 . S
C4115 C4134 1.368 . S
C4115 H4139 0.949 . S
H4116 C4120 0.949 . S
C4117 C4118 1.349 . S
C4117 C4119 1.327 . S
C4117 H4140 0.950 . S
C4118 C4117 1.349 . S
C4118 C4130 1.349 . S
C4119 C4117 1.327 . S
C4119 C4135 1.429 . S
C4119 H4141 0.950 . S
C4120 H4116 0.949 . S
C4120 C4128 1.574 . S
C4120 C4136 1.368 . S
H4121 C4129 0.950 . S
H4122 C4127 0.950 . S
H4123 C4128 0.949 . S
H4124 C4130 0.950 . S
H4125 C4131 0.950 . S
H4126 C4132 0.949 . S
C4127 H4122 0.950 . S
C4127 C4129 1.327 . S
C4127 C4133 1.429 . S
C4128 C4120 1.574 . S
C4128 H4123 0.949 . S
C4128 C4134 1.368 . S
C4129 C4113 1.349 . S
C4129 H4121 0.950 . S
C4129 C4127 1.327 . S
C4130 C4118 1.349 . S
C4130 H4124 0.950 . S
C4130 C4131 1.327 . S
C4131 H4125 0.950 . S
C4131 C4130 1.327 . S
C4131 C4135 1.429 . S
C4132 C4115 1.574 . S
C4132 H4126 0.949 . S
C4132 C4136 1.368 . S
C4133 C4114 1.429 . S
C4133 C4127 1.429 . S
C4133 C4134 1.523 . S
C4134 C4115 1.368 . S
C4134 C4128 1.368 . S
C4134 C4133 1.523 . S
C4135 C4119 1.429 . S
C4135 C4131 1.429 . S
C4135 C4136 1.523 . S
C4136 C4120 1.368 . S
C4136 C4132 1.368 . S
C4136 C4135 1.523 . S
H4137 C4112 0.950 . S
H4138 C4114 0.950 . S
H4139 C4115 0.949 . S
H4140 C4117 0.950 . S
H4141 C4119 0.950 . S
C4142 C4143 1.349 . S
C4142 C4144 1.327 . S
C4142 H4167 0.950 . S
C4143 C4142 1.349 . S
C4143 C4159 1.349 . S
C4144 C4142 1.327 . S
C4144 C4163 1.429 . S
C4144 H4168 0.950 . S
C4145 C4162 1.574 . S
C4145 C4164 1.368 . S
C4145 H4169 0.949 . S
H4146 C4150 0.949 . S
C4147 C4148 1.349 . S
C4147 C4149 1.327 . S
C4147 H4170 0.950 . S
C4148 C4147 1.349 . S
C4148 C4160 1.349 . S
C4149 C4147 1.327 . S
C4149 C4165 1.429 . S
C4149 H4171 0.950 . S
C4150 H4146 0.949 . S
C4150 C4158 1.574 . S
C4150 C4166 1.368 . S
H4151 C4159 0.950 . S
H4152 C4157 0.950 . S
H4153 C4158 0.949 . S
H4154 C4160 0.950 . S
H4155 C4161 0.950 . S
H4156 C4162 0.949 . S
C4157 H4152 0.950 . S
C4157 C4159 1.327 . S
C4157 C4163 1.429 . S
C4158 C4150 1.574 . S
C4158 H4153 0.949 . S
C4158 C4164 1.368 . S
C4159 C4143 1.349 . S
C4159 H4151 0.950 . S
C4159 C4157 1.327 . S
C4160 C4148 1.349 . S
C4160 H4154 0.950 . S
C4160 C4161 1.327 . S
C4161 H4155 0.950 . S
C4161 C4160 1.327 . S
C4161 C4165 1.429 . S
C4162 C4145 1.574 . S
C4162 H4156 0.949 . S
C4162 C4166 1.368 . S
C4163 C4144 1.429 . S
C4163 C4157 1.429 . S
C4163 C4164 1.523 . S
C4164 C4145 1.368 . S
C4164 C4158 1.368 . S
C4164 C4163 1.523 . S
C4165 C4149 1.429 . S
C4165 C4161 1.429 . S
C4165 C4166 1.523 . S
C4166 C4150 1.368 . S
C4166 C4162 1.368 . S
C4166 C4165 1.523 . S
H4167 C4142 0.950 . S
H4168 C4144 0.950 . S
H4169 C4145 0.949 . S
H4170 C4147 0.950 . S
H4171 C4149 0.950 . S
C4172 C4173 1.349 . S
C4172 C4174 1.327 . S
C4172 H4197 0.950 . S
C4173 C4172 1.349 . S
C4173 C4189 1.349 . S
C4174 C4172 1.327 . S
C4174 C4193 1.429 . S
C4174 H4198 0.950 . S
C4175 C4192 1.574 . S
C4175 C4194 1.368 . S
C4175 H4199 0.949 . S
H4176 C4180 0.949 . S
C4177 C4178 1.349 . S
C4177 C4179 1.327 . S
C4177 H4200 0.950 . S
C4178 C4177 1.349 . S
C4178 C4190 1.349 . S
C4179 C4177 1.327 . S
C4179 C4195 1.429 . S
C4179 H4201 0.950 . S
C4180 H4176 0.949 . S
C4180 C4188 1.574 . S
C4180 C4196 1.368 . S
H4181 C4189 0.950 . S
H4182 C4187 0.950 . S
H4183 C4188 0.949 . S
H4184 C4190 0.950 . S
H4185 C4191 0.950 . S
H4186 C4192 0.949 . S
C4187 H4182 0.950 . S
C4187 C4189 1.327 . S
C4187 C4193 1.429 . S
C4188 C4180 1.574 . S
C4188 H4183 0.949 . S
C4188 C4194 1.368 . S
C4189 C4173 1.349 . S
C4189 H4181 0.950 . S
C4189 C4187 1.327 . S
C4190 C4178 1.349 . S
C4190 H4184 0.950 . S
C4190 C4191 1.327 . S
C4191 H4185 0.950 . S
C4191 C4190 1.327 . S
C4191 C4195 1.429 . S
C4192 C4175 1.574 . S
C4192 H4186 0.949 . S
C4192 C4196 1.368 . S
C4193 C4174 1.429 . S
C4193 C4187 1.429 . S
C4193 C4194 1.523 . S
C4194 C4175 1.368 . S
C4194 C4188 1.368 . S
C4194 C4193 1.523 . S
C4195 C4179 1.429 . S
C4195 C4191 1.429 . S
C4195 C4196 1.523 . S
C4196 C4180 1.368 . S
C4196 C4192 1.368 . S
C4196 C4195 1.523 . S
H4197 C4172 0.950 . S
H4198 C4174 0.950 . S
H4199 C4175 0.949 . S
H4200 C4177 0.950 . S
H4201 C4179 0.950 . S
C4202 C4203 1.349 . S
C4202 C4204 1.327 . S
C4202 H4227 0.950 . S
C4203 C4202 1.349 . S
C4203 C4219 1.349 . S
C4204 C4202 1.327 . S
C4204 C4223 1.429 . S
C4204 H4228 0.950 . S
C4205 C4222 1.574 . S
C4205 C4224 1.368 . S
C4205 H4229 0.949 . S
H4206 C4210 0.949 . S
C4207 C4208 1.349 . S
C4207 C4209 1.327 . S
C4207 H4230 0.950 . S
C4208 C4207 1.349 . S
C4208 C4220 1.349 . S
C4209 C4207 1.327 . S
C4209 C4225 1.429 . S
C4209 H4231 0.950 . S
C4210 H4206 0.949 . S
C4210 C4218 1.574 . S
C4210 C4226 1.368 . S
H4211 C4219 0.950 . S
H4212 C4217 0.950 . S
H4213 C4218 0.949 . S
H4214 C4220 0.950 . S
H4215 C4221 0.950 . S
H4216 C4222 0.949 . S
C4217 H4212 0.950 . S
C4217 C4219 1.327 . S
C4217 C4223 1.429 . S
C4218 C4210 1.574 . S
C4218 H4213 0.949 . S
C4218 C4224 1.368 . S
C4219 C4203 1.349 . S
C4219 H4211 0.950 . S
C4219 C4217 1.327 . S
C4220 C4208 1.349 . S
C4220 H4214 0.950 . S
C4220 C4221 1.327 . S
C4221 H4215 0.950 . S
C4221 C4220 1.327 . S
C4221 C4225 1.429 . S
C4222 C4205 1.574 . S
C4222 H4216 0.949 . S
C4222 C4226 1.368 . S
C4223 C4204 1.429 . S
C4223 C4217 1.429 . S
C4223 C4224 1.523 . S
C4224 C4205 1.368 . S
C4224 C4218 1.368 . S
C4224 C4223 1.523 . S
C4225 C4209 1.429 . S
C4225 C4221 1.429 . S
C4225 C4226 1.523 . S
C4226 C4210 1.368 . S
C4226 C4222 1.368 . S
C4226 C4225 1.523 . S
H4227 C4202 0.950 . S
H4228 C4204 0.950 . S
H4229 C4205 0.949 . S
H4230 C4207 0.950 . S
H4231 C4209 0.950 . S
C4232 C4233 1.349 . S
C4232 C4234 1.327 . S
C4232 H4257 0.950 . S
C4233 C4232 1.349 . S
C4233 C4249 1.349 . S
C4234 C4232 1.327 . S
C4234 C4253 1.429 . S
C4234 H4258 0.950 . S
C4235 C4252 1.574 . S
C4235 C4254 1.368 . S
C4235 H4259 0.949 . S
H4236 C4240 0.949 . S
C4237 C4238 1.349 . S
C4237 C4239 1.327 . S
C4237 H4260 0.950 . S
C4238 C4237 1.349 . S
C4238 C4250 1.349 . S
C4239 C4237 1.327 . S
C4239 C4255 1.429 . S
C4239 H4261 0.950 . S
C4240 H4236 0.949 . S
C4240 C4248 1.574 . S
C4240 C4256 1.368 . S
H4241 C4249 0.950 . S
H4242 C4247 0.950 . S
H4243 C4248 0.949 . S
H4244 C4250 0.950 . S
H4245 C4251 0.950 . S
H4246 C4252 0.949 . S
C4247 H4242 0.950 . S
C4247 C4249 1.327 . S
C4247 C4253 1.429 . S
C4248 C4240 1.574 . S
C4248 H4243 0.949 . S
C4248 C4254 1.368 . S
C4249 C4233 1.349 . S
C4249 H4241 0.950 . S
C4249 C4247 1.327 . S
C4250 C4238 1.349 . S
C4250 H4244 0.950 . S
C4250 C4251 1.327 . S
C4251 H4245 0.950 . S
C4251 C4250 1.327 . S
C4251 C4255 1.429 . S
C4252 C4235 1.574 . S
C4252 H4246 0.949 . S
C4252 C4256 1.368 . S
C4253 C4234 1.429 . S
C4253 C4247 1.429 . S
C4253 C4254 1.523 . S
C4254 C4235 1.368 . S
C4254 C4248 1.368 . S
C4254 C4253 1.523 . S
C4255 C4239 1.429 . S
C4255 C4251 1.429 . S
C4255 C4256 1.523 . S
C4256 C4240 1.368 . S
C4256 C4252 1.368 . S
C4256 C4255 1.523 . S
H4257 C4232 0.950 . S
H4258 C4234 0.950 . S
H4259 C4235 0.949 . S
H4260 C4237 0.950 . S
H4261 C4239 0.950 . S
C4262 C4263 1.349 . S
C4262 C4264 1.327 . S
C4262 H4287 0.950 . S
C4263 C4262 1.349 . S
C4263 C4279 1.349 . S
C4264 C4262 1.327 . S
C4264 C4283 1.429 . S
C4264 H4288 0.950 . S
C4265 C4282 1.574 . S
C4265 C4284 1.368 . S
C4265 H4289 0.949 . S
H4266 C4270 0.949 . S
C4267 C4268 1.349 . S
C4267 C4269 1.327 . S
C4267 H4290 0.950 . S
C4268 C4267 1.349 . S
C4268 C4280 1.349 . S
C4269 C4267 1.327 . S
C4269 C4285 1.429 . S
C4269 H4291 0.950 . S
C4270 H4266 0.949 . S
C4270 C4278 1.574 . S
C4270 C4286 1.368 . S
H4271 C4279 0.950 . S
H4272 C4277 0.950 . S
H4273 C4278 0.949 . S
H4274 C4280 0.950 . S
H4275 C4281 0.950 . S
H4276 C4282 0.949 . S
C4277 H4272 0.950 . S
C4277 C4279 1.327 . S
C4277 C4283 1.429 . S
C4278 C4270 1.574 . S
C4278 H4273 0.949 . S
C4278 C4284 1.368 . S
C4279 C4263 1.349 . S
C4279 H4271 0.950 . S
C4279 C4277 1.327 . S
C4280 C4268 1.349 . S
C4280 H4274 0.950 . S
C4280 C4281 1.327 . S
C4281 H4275 0.950 . S
C4281 C4280 1.327 . S
C4281 C4285 1.429 . S
C4282 C4265 1.574 . S
C4282 H4276 0.949 . S
C4282 C4286 1.368 . S
C4283 C4264 1.429 . S
C4283 C4277 1.429 . S
C4283 C4284 1.523 . S
C4284 C4265 1.368 . S
C4284 C4278 1.368 . S
C4284 C4283 1.523 . S
C4285 C4269 1.429 . S
C4285 C4281 1.429 . S
C4285 C4286 1.523 . S
C4286 C4270 1.368 . S
C4286 C4282 1.368 . S
C4286 C4285 1.523 . S
H4287 C4262 0.950 . S
H4288 C4264 0.950 . S
H4289 C4265 0.949 . S
H4290 C4267 0.950 . S
H4291 C4269 0.950 . S
C4292 C4293 1.349 . S
C4292 C4294 1.327 . S
C4292 H4317 0.950 . S
C4293 C4292 1.349 . S
C4293 C4309 1.349 . S
C4294 C4292 1.327 . S
C4294 C4313 1.429 . S
C4294 H4318 0.950 . S
C4295 C4312 1.574 . S
C4295 C4314 1.368 . S
C4295 H4319 0.949 . S
H4296 C4300 0.949 . S
C4297 C4298 1.349 . S
C4297 C4299 1.327 . S
C4297 H4320 0.950 . S
C4298 C4297 1.349 . S
C4298 C4310 1.349 . S
C4299 C4297 1.327 . S
C4299 C4315 1.429 . S
C4299 H4321 0.950 . S
C4300 H4296 0.949 . S
C4300 C4308 1.574 . S
C4300 C4316 1.368 . S
H4301 C4309 0.950 . S
H4302 C4307 0.950 . S
H4303 C4308 0.949 . S
H4304 C4310 0.950 . S
H4305 C4311 0.950 . S
H4306 C4312 0.949 . S
C4307 H4302 0.950 . S
C4307 C4309 1.327 . S
C4307 C4313 1.429 . S
C4308 C4300 1.574 . S
C4308 H4303 0.949 . S
C4308 C4314 1.368 . S
C4309 C4293 1.349 . S
C4309 H4301 0.950 . S
C4309 C4307 1.327 . S
C4310 C4298 1.349 . S
C4310 H4304 0.950 . S
C4310 C4311 1.327 . S
C4311 H4305 0.950 . S
C4311 C4310 1.327 . S
C4311 C4315 1.429 . S
C4312 C4295 1.574 . S
C4312 H4306 0.949 . S
C4312 C4316 1.368 . S
C4313 C4294 1.429 . S
C4313 C4307 1.429 . S
C4313 C4314 1.523 . S
C4314 C4295 1.368 . S
C4314 C4308 1.368 . S
C4314 C4313 1.523 . S
C4315 C4299 1.429 . S
C4315 C4311 1.429 . S
C4315 C4316 1.523 . S
C4316 C4300 1.368 . S
C4316 C4312 1.368 . S
C4316 C4315 1.523 . S
H4317 C4292 0.950 . S
H4318 C4294 0.950 . S
H4319 C4295 0.949 . S
H4320 C4297 0.950 . S
H4321 C4299 0.950 . S
C4322 C4323 1.349 . S
C4322 C4324 1.327 . S
C4322 H4347 0.950 . S
C4323 C4322 1.349 . S
C4323 C4339 1.349 . S
C4324 C4322 1.327 . S
C4324 C4343 1.429 . S
C4324 H4348 0.950 . S
C4325 C4342 1.574 . S
C4325 C4344 1.368 . S
C4325 H4349 0.949 . S
H4326 C4330 0.949 . S
C4327 C4328 1.349 . S
C4327 C4329 1.327 . S
C4327 H4350 0.950 . S
C4328 C4327 1.349 . S
C4328 C4340 1.349 . S
C4329 C4327 1.327 . S
C4329 C4345 1.429 . S
C4329 H4351 0.950 . S
C4330 H4326 0.949 . S
C4330 C4338 1.574 . S
C4330 C4346 1.368 . S
H4331 C4339 0.950 . S
H4332 C4337 0.950 . S
H4333 C4338 0.949 . S
H4334 C4340 0.950 . S
H4335 C4341 0.950 . S
H4336 C4342 0.949 . S
C4337 H4332 0.950 . S
C4337 C4339 1.327 . S
C4337 C4343 1.429 . S
C4338 C4330 1.574 . S
C4338 H4333 0.949 . S
C4338 C4344 1.368 . S
C4339 C4323 1.349 . S
C4339 H4331 0.950 . S
C4339 C4337 1.327 . S
C4340 C4328 1.349 . S
C4340 H4334 0.950 . S
C4340 C4341 1.327 . S
C4341 H4335 0.950 . S
C4341 C4340 1.327 . S
C4341 C4345 1.429 . S
C4342 C4325 1.574 . S
C4342 H4336 0.949 . S
C4342 C4346 1.368 . S
C4343 C4324 1.429 . S
C4343 C4337 1.429 . S
C4343 C4344 1.523 . S
C4344 C4325 1.368 . S
C4344 C4338 1.368 . S
C4344 C4343 1.523 . S
C4345 C4329 1.429 . S
C4345 C4341 1.429 . S
C4345 C4346 1.523 . S
C4346 C4330 1.368 . S
C4346 C4342 1.368 . S
C4346 C4345 1.523 . S
H4347 C4322 0.950 . S
H4348 C4324 0.950 . S
H4349 C4325 0.949 . S
H4350 C4327 0.950 . S
H4351 C4329 0.950 . S
C4352 C4353 1.349 . S
C4352 C4354 1.327 . S
C4352 H4377 0.950 . S
C4353 C4352 1.349 . S
C4353 C4369 1.349 . S
C4354 C4352 1.327 . S
C4354 C4373 1.429 . S
C4354 H4378 0.950 . S
C4355 C4372 1.574 . S
C4355 C4374 1.368 . S
C4355 H4379 0.949 . S
H4356 C4360 0.949 . S
C4357 C4358 1.349 . S
C4357 C4359 1.327 . S
C4357 H4380 0.950 . S
C4358 C4357 1.349 . S
C4358 C4370 1.349 . S
C4359 C4357 1.327 . S
C4359 C4375 1.429 . S
C4359 H4381 0.950 . S
C4360 H4356 0.949 . S
C4360 C4368 1.574 . S
C4360 C4376 1.368 . S
H4361 C4369 0.950 . S
H4362 C4367 0.950 . S
H4363 C4368 0.949 . S
H4364 C4370 0.950 . S
H4365 C4371 0.950 . S
H4366 C4372 0.949 . S
C4367 H4362 0.950 . S
C4367 C4369 1.327 . S
C4367 C4373 1.429 . S
C4368 C4360 1.574 . S
C4368 H4363 0.949 . S
C4368 C4374 1.368 . S
C4369 C4353 1.349 . S
C4369 H4361 0.950 . S
C4369 C4367 1.327 . S
C4370 C4358 1.349 . S
C4370 H4364 0.950 . S
C4370 C4371 1.327 . S
C4371 H4365 0.950 . S
C4371 C4370 1.327 . S
C4371 C4375 1.429 . S
C4372 C4355 1.574 . S
C4372 H4366 0.949 . S
C4372 C4376 1.368 . S
C4373 C4354 1.429 . S
C4373 C4367 1.429 . S
C4373 C4374 1.523 . S
C4374 C4355 1.368 . S
C4374 C4368 1.368 . S
C4374 C4373 1.523 . S
C4375 C4359 1.429 . S
C4375 C4371 1.429 . S
C4375 C4376 1.523 . S
C4376 C4360 1.368 . S
C4376 C4372 1.368 . S
C4376 C4375 1.523 . S
H4377 C4352 0.950 . S
H4378 C4354 0.950 . S
H4379 C4355 0.949 . S
H4380 C4357 0.950 . S
H4381 C4359 0.950 . S
C4382 C4383 1.349 . S
C4382 C4384 1.327 . S
C4382 H4407 0.950 . S
C4383 C4382 1.349 . S
C4383 C4399 1.349 . S
C4384 C4382 1.327 . S
C4384 C4403 1.429 . S
C4384 H4408 0.950 . S
C4385 C4402 1.574 . S
C4385 C4404 1.368 . S
C4385 H4409 0.949 . S
H4386 C4390 0.949 . S
C4387 C4388 1.349 . S
C4387 C4389 1.327 . S
C4387 H4410 0.950 . S
C4388 C4387 1.349 . S
C4388 C4400 1.349 . S
C4389 C4387 1.327 . S
C4389 C4405 1.429 . S
C4389 H4411 0.950 . S
C4390 H4386 0.949 . S
C4390 C4398 1.574 . S
C4390 C4406 1.368 . S
H4391 C4399 0.950 . S
H4392 C4397 0.950 . S
H4393 C4398 0.949 . S
H4394 C4400 0.950 . S
H4395 C4401 0.950 . S
H4396 C4402 0.949 . S
C4397 H4392 0.950 . S
C4397 C4399 1.327 . S
C4397 C4403 1.429 . S
C4398 C4390 1.574 . S
C4398 H4393 0.949 . S
C4398 C4404 1.368 . S
C4399 C4383 1.349 . S
C4399 H4391 0.950 . S
C4399 C4397 1.327 . S
C4400 C4388 1.349 . S
C4400 H4394 0.950 . S
C4400 C4401 1.327 . S
C4401 H4395 0.950 . S
C4401 C4400 1.327 . S
C4401 C4405 1.429 . S
C4402 C4385 1.574 . S
C4402 H4396 0.949 . S
C4402 C4406 1.368 . S
C4403 C4384 1.429 . S
C4403 C4397 1.429 . S
C4403 C4404 1.523 . S
C4404 C4385 1.368 . S
C4404 C4398 1.368 . S
C4404 C4403 1.523 . S
C4405 C4389 1.429 . S
C4405 C4401 1.429 . S
C4405 C4406 1.523 . S
C4406 C4390 1.368 . S
C4406 C4402 1.368 . S
C4406 C4405 1.523 . S
H4407 C4382 0.950 . S
H4408 C4384 0.950 . S
H4409 C4385 0.949 . S
H4410 C4387 0.950 . S
H4411 C4389 0.950 . S
C4412 C4413 1.349 . S
C4412 C4414 1.327 . S
C4412 H4437 0.950 . S
C4413 C4412 1.349 . S
C4413 C4429 1.349 . S
C4414 C4412 1.327 . S
C4414 C4433 1.429 . S
C4414 H4438 0.950 . S
C4415 C4432 1.574 . S
C4415 C4434 1.368 . S
C4415 H4439 0.949 . S
H4416 C4420 0.949 . S
C4417 C4418 1.349 . S
C4417 C4419 1.327 . S
C4417 H4440 0.950 . S
C4418 C4417 1.349 . S
C4418 C4430 1.349 . S
C4419 C4417 1.327 . S
C4419 C4435 1.429 . S
C4419 H4441 0.950 . S
C4420 H4416 0.949 . S
C4420 C4428 1.574 . S
C4420 C4436 1.368 . S
H4421 C4429 0.950 . S
H4422 C4427 0.950 . S
H4423 C4428 0.949 . S
H4424 C4430 0.950 . S
H4425 C4431 0.950 . S
H4426 C4432 0.949 . S
C4427 H4422 0.950 . S
C4427 C4429 1.327 . S
C4427 C4433 1.429 . S
C4428 C4420 1.574 . S
C4428 H4423 0.949 . S
C4428 C4434 1.368 . S
C4429 C4413 1.349 . S
C4429 H4421 0.950 . S
C4429 C4427 1.327 . S
C4430 C4418 1.349 . S
C4430 H4424 0.950 . S
C4430 C4431 1.327 . S
C4431 H4425 0.950 . S
C4431 C4430 1.327 . S
C4431 C4435 1.429 . S
C4432 C4415 1.574 . S
C4432 H4426 0.949 . S
C4432 C4436 1.368 . S
C4433 C4414 1.429 . S
C4433 C4427 1.429 . S
C4433 C4434 1.523 . S
C4434 C4415 1.368 . S
C4434 C4428 1.368 . S
C4434 C4433 1.523 . S
C4435 C4419 1.429 . S
C4435 C4431 1.429 . S
C4435 C4436 1.523 . S
C4436 C4420 1.368 . S
C4436 C4432 1.368 . S
C4436 C4435 1.523 . S
H4437 C4412 0.950 . S
H4438 C4414 0.950 . S
H4439 C4415 0.949 . S
H4440 C4417 0.950 . S
H4441 C4419 0.950 . S
C4442 C4443 1.349 . S
C4442 C4444 1.327 . S
C4442 H4467 0.950 . S
C4443 C4442 1.349 . S
C4443 C4459 1.349 . S
C4444 C4442 1.327 . S
C4444 C4463 1.429 . S
C4444 H4468 0.950 . S
C4445 C4462 1.574 . S
C4445 C4464 1.368 . S
C4445 H4469 0.949 . S
H4446 C4450 0.949 . S
C4447 C4448 1.349 . S
C4447 C4449 1.327 . S
C4447 H4470 0.950 1_554 S
C4448 C4447 1.349 . S
C4448 C4460 1.349 . S
C4449 C4447 1.327 . S
C4449 C4465 1.429 1_545 S
C4449 H4471 0.950 1_544 S
C4450 H4446 0.949 . S
C4450 C4458 1.574 . S
C4450 C4466 1.368 . S
H4451 C4459 0.950 . S
H4452 C4457 0.950 . S
H4453 C4458 0.949 . S
H4454 C4460 0.950 . S
H4455 C4461 0.950 . S
H4456 C4462 0.885 1_556 S
C4457 H4452 0.950 . S
C4457 C4459 1.327 . S
C4457 C4463 1.429 . S
C4458 C4450 1.574 . S
C4458 H4453 0.949 . S
C4458 C4464 1.368 . S
C4459 C4443 1.349 . S
C4459 H4451 0.950 . S
C4459 C4457 1.327 . S
C4460 C4448 1.349 . S
C4460 H4454 0.950 . S
C4460 C4461 1.327 . S
C4461 H4455 0.950 . S
C4461 C4460 1.327 . S
C4461 C4465 1.429 1_545 S
C4462 C4445 1.574 . S
C4462 H4456 0.885 1_554 S
C4462 C4466 1.368 . S
C4463 C4444 1.429 . S
C4463 C4457 1.429 . S
C4463 C4464 1.523 . S
C4464 C4445 1.368 . S
C4464 C4458 1.368 . S
C4464 C4463 1.523 . S
C4465 C4449 1.429 1_565 S
C4465 C4461 1.429 1_565 S
C4465 C4466 1.523 . S
C4466 C4450 1.368 . S
C4466 C4462 1.368 . S
C4466 C4465 1.523 . S
H4467 C4442 0.950 . S
H4468 C4444 0.950 . S
H4469 C4445 0.949 . S
H4470 C4447 0.950 1_556 S
H4471 C4449 0.950 1_566 S
C4472 C4473 1.349 . S
C4472 C4474 1.327 . S
C4472 H4497 0.950 . S
C4473 C4472 1.349 . S
C4473 C4489 1.349 . S
C4474 C4472 1.327 . S
C4474 C4493 1.429 . S
C4474 H4498 0.950 . S
C4475 C4492 1.574 . S
C4475 C4494 1.368 . S
C4475 H4499 0.949 . S
H4476 C4480 0.949 . S
C4477 C4478 1.349 . S
C4477 C4479 1.327 . S
C4477 H4500 0.950 . S
C4478 C4477 1.349 . S
C4478 C4490 1.349 . S
C4479 C4477 1.327 . S
C4479 C4495 1.429 . S
C4479 H4501 0.950 . S
C4480 H4476 0.949 . S
C4480 C4488 1.574 . S
C4480 C4496 1.368 . S
H4481 C4489 0.950 . S
H4482 C4487 0.950 . S
H4483 C4488 0.949 . S
H4484 C4490 0.950 . S
H4485 C4491 0.950 . S
H4486 C4492 0.949 . S
C4487 H4482 0.950 . S
C4487 C4489 1.327 . S
C4487 C4493 1.429 . S
C4488 C4480 1.574 . S
C4488 H4483 0.949 . S
C4488 C4494 1.368 . S
C4489 C4473 1.349 . S
C4489 H4481 0.950 . S
C4489 C4487 1.327 . S
C4490 C4478 1.349 . S
C4490 H4484 0.950 . S
C4490 C4491 1.327 . S
C4491 H4485 0.950 . S
C4491 C4490 1.327 . S
C4491 C4495 1.429 . S
C4492 C4475 1.574 . S
C4492 H4486 0.949 . S
C4492 C4496 1.368 . S
C4493 C4474 1.429 . S
C4493 C4487 1.429 . S
C4493 C4494 1.523 . S
C4494 C4475 1.368 . S
C4494 C4488 1.368 . S
C4494 C4493 1.523 . S
C4495 C4479 1.429 . S
C4495 C4491 1.429 . S
C4495 C4496 1.523 . S
C4496 C4480 1.368 . S
C4496 C4492 1.368 . S
C4496 C4495 1.523 . S
H4497 C4472 0.950 . S
H4498 C4474 0.950 . S
H4499 C4475 0.949 . S
H4500 C4477 0.950 . S
H4501 C4479 0.950 . S
C4502 C4503 1.349 . S
C4502 C4504 1.327 . S
C4502 H4527 0.950 . S
C4503 C4502 1.349 . S
C4503 C4519 1.349 . S
C4504 C4502 1.327 . S
C4504 C4523 1.429 . S
C4504 H4528 0.950 . S
C4505 C4522 1.574 . S
C4505 C4524 1.368 . S
C4505 H4529 0.949 . S
H4506 C4510 0.949 . S
C4507 C4508 1.349 . S
C4507 C4509 1.327 . S
C4507 H4530 0.950 . S
C4508 C4507 1.349 . S
C4508 C4520 1.349 . S
C4509 C4507 1.327 . S
C4509 C4525 1.429 . S
C4509 H4531 0.950 . S
C4510 H4506 0.949 . S
C4510 C4518 1.574 . S
C4510 C4526 1.368 . S
H4511 C4519 0.950 . S
H4512 C4517 0.950 . S
H4513 C4518 0.949 . S
H4514 C4520 0.950 . S
H4515 C4521 0.950 . S
H4516 C4522 0.949 . S
C4517 H4512 0.950 . S
C4517 C4519 1.327 . S
C4517 C4523 1.429 . S
C4518 C4510 1.574 . S
C4518 H4513 0.949 . S
C4518 C4524 1.368 . S
C4519 C4503 1.349 . S
C4519 H4511 0.950 . S
C4519 C4517 1.327 . S
C4520 C4508 1.349 . S
C4520 H4514 0.950 . S
C4520 C4521 1.327 . S
C4521 H4515 0.950 . S
C4521 C4520 1.327 . S
C4521 C4525 1.429 . S
C4522 C4505 1.574 . S
C4522 H4516 0.949 . S
C4522 C4526 1.368 . S
C4523 C4504 1.429 . S
C4523 C4517 1.429 . S
C4523 C4524 1.523 . S
C4524 C4505 1.368 . S
C4524 C4518 1.368 . S
C4524 C4523 1.523 . S
C4525 C4509 1.429 . S
C4525 C4521 1.429 . S
C4525 C4526 1.523 . S
C4526 C4510 1.368 . S
C4526 C4522 1.368 . S
C4526 C4525 1.523 . S
H4527 C4502 0.950 . S
H4528 C4504 0.950 . S
H4529 C4505 0.949 . S
H4530 C4507 0.950 . S
H4531 C4509 0.950 . S
C4532 C4533 1.349 . S
C4532 C4534 1.327 . S
C4532 H4557 0.950 . S
C4533 C4532 1.349 . S
C4533 C4549 1.349 . S
C4534 C4532 1.327 . S
C4534 C4553 1.429 . S
C4534 H4558 0.950 . S
C4535 C4552 1.574 . S
C4535 C4554 1.368 . S
C4535 H4559 0.949 . S
H4536 C4540 0.949 . S
C4537 C4538 1.349 . S
C4537 C4539 1.327 . S
C4537 H4560 0.950 . S
C4538 C4537 1.349 . S
C4538 C4550 1.349 . S
C4539 C4537 1.327 . S
C4539 C4555 1.429 . S
C4539 H4561 0.950 . S
C4540 H4536 0.949 . S
C4540 C4548 1.574 . S
C4540 C4556 1.368 . S
H4541 C4549 0.950 . S
H4542 C4547 0.950 . S
H4543 C4548 0.949 . S
H4544 C4550 0.950 . S
H4545 C4551 0.950 . S
H4546 C4552 0.949 . S
C4547 H4542 0.950 . S
C4547 C4549 1.327 . S
C4547 C4553 1.429 . S
C4548 C4540 1.574 . S
C4548 H4543 0.949 . S
C4548 C4554 1.368 . S
C4549 C4533 1.349 . S
C4549 H4541 0.950 . S
C4549 C4547 1.327 . S
C4550 C4538 1.349 . S
C4550 H4544 0.950 . S
C4550 C4551 1.327 . S
C4551 H4545 0.950 . S
C4551 C4550 1.327 . S
C4551 C4555 1.429 . S
C4552 C4535 1.574 . S
C4552 H4546 0.949 . S
C4552 C4556 1.368 . S
C4553 C4534 1.429 . S
C4553 C4547 1.429 . S
C4553 C4554 1.523 . S
C4554 C4535 1.368 . S
C4554 C4548 1.368 . S
C4554 C4553 1.523 . S
C4555 C4539 1.429 . S
C4555 C4551 1.429 . S
C4555 C4556 1.523 . S
C4556 C4540 1.368 . S
C4556 C4552 1.368 . S
C4556 C4555 1.523 . S
H4557 C4532 0.950 . S
H4558 C4534 0.950 . S
H4559 C4535 0.949 . S
H4560 C4537 0.950 . S
H4561 C4539 0.950 . S
C4562 C4563 1.349 . S
C4562 C4564 1.327 . S
C4562 H4587 0.950 . S
C4563 C4562 1.349 . S
C4563 C4579 1.349 . S
C4564 C4562 1.327 . S
C4564 C4583 1.429 . S
C4564 H4588 0.950 . S
C4565 C4582 1.574 . S
C4565 C4584 1.368 . S
C4565 H4589 0.949 . S
H4566 C4570 0.949 . S
C4567 C4568 1.349 . S
C4567 C4569 1.327 . S
C4567 H4590 0.950 . S
C4568 C4567 1.349 . S
C4568 C4580 1.349 . S
C4569 C4567 1.327 . S
C4569 C4585 1.429 . S
C4569 H4591 0.950 . S
C4570 H4566 0.949 . S
C4570 C4578 1.574 . S
C4570 C4586 1.368 . S
H4571 C4579 0.950 . S
H4572 C4577 0.950 . S
H4573 C4578 0.949 . S
H4574 C4580 0.950 . S
H4575 C4581 0.950 . S
H4576 C4582 0.949 . S
C4577 H4572 0.950 . S
C4577 C4579 1.327 . S
C4577 C4583 1.429 . S
C4578 C4570 1.574 . S
C4578 H4573 0.949 . S
C4578 C4584 1.368 . S
C4579 C4563 1.349 . S
C4579 H4571 0.950 . S
C4579 C4577 1.327 . S
C4580 C4568 1.349 . S
C4580 H4574 0.950 . S
C4580 C4581 1.327 . S
C4581 H4575 0.950 . S
C4581 C4580 1.327 . S
C4581 C4585 1.429 . S
C4582 C4565 1.574 . S
C4582 H4576 0.949 . S
C4582 C4586 1.368 . S
C4583 C4564 1.429 . S
C4583 C4577 1.429 . S
C4583 C4584 1.523 . S
C4584 C4565 1.368 . S
C4584 C4578 1.368 . S
C4584 C4583 1.523 . S
C4585 C4569 1.429 . S
C4585 C4581 1.429 . S
C4585 C4586 1.523 . S
C4586 C4570 1.368 . S
C4586 C4582 1.368 . S
C4586 C4585 1.523 . S
H4587 C4562 0.950 . S
H4588 C4564 0.950 . S
H4589 C4565 0.949 . S
H4590 C4567 0.950 . S
H4591 C4569 0.950 . S
C4592 C4593 1.349 . S
C4592 C4594 1.327 . S
C4592 H4617 0.950 . S
C4593 C4592 1.349 . S
C4593 C4609 1.349 . S
C4594 C4592 1.327 . S
C4594 C4613 1.429 . S
C4594 H4618 0.950 . S
C4595 C4612 1.574 . S
C4595 C4614 1.368 . S
C4595 H4619 0.949 . S
H4596 C4600 0.949 . S
C4597 C4598 1.349 . S
C4597 C4599 1.327 . S
C4597 H4620 0.950 . S
C4598 C4597 1.349 . S
C4598 C4610 1.349 . S
C4599 C4597 1.327 . S
C4599 C4615 1.429 . S
C4599 H4621 0.950 . S
C4600 H4596 0.949 . S
C4600 C4608 1.574 . S
C4600 C4616 1.368 . S
H4601 C4609 0.950 . S
H4602 C4607 0.950 . S
H4603 C4608 0.949 . S
H4604 C4610 0.950 . S
H4605 C4611 0.950 . S
H4606 C4612 0.949 . S
C4607 H4602 0.950 . S
C4607 C4609 1.327 . S
C4607 C4613 1.429 . S
C4608 C4600 1.574 . S
C4608 H4603 0.949 . S
C4608 C4614 1.368 . S
C4609 C4593 1.349 . S
C4609 H4601 0.950 . S
C4609 C4607 1.327 . S
C4610 C4598 1.349 . S
C4610 H4604 0.950 . S
C4610 C4611 1.327 . S
C4611 H4605 0.950 . S
C4611 C4610 1.327 . S
C4611 C4615 1.429 . S
C4612 C4595 1.574 . S
C4612 H4606 0.949 . S
C4612 C4616 1.368 . S
C4613 C4594 1.429 . S
C4613 C4607 1.429 . S
C4613 C4614 1.523 . S
C4614 C4595 1.368 . S
C4614 C4608 1.368 . S
C4614 C4613 1.523 . S
C4615 C4599 1.429 . S
C4615 C4611 1.429 . S
C4615 C4616 1.523 . S
C4616 C4600 1.368 . S
C4616 C4612 1.368 . S
C4616 C4615 1.523 . S
H4617 C4592 0.950 . S
H4618 C4594 0.950 . S
H4619 C4595 0.949 . S
H4620 C4597 0.950 . S
H4621 C4599 0.950 . S
C4622 C4623 1.349 . S
C4622 C4624 1.327 . S
C4622 H4647 0.950 . S
C4623 C4622 1.349 . S
C4623 C4639 1.349 . S
C4624 C4622 1.327 . S
C4624 C4643 1.429 . S
C4624 H4648 0.950 . S
C4625 C4642 1.574 . S
C4625 C4644 1.368 . S
C4625 H4649 0.949 . S
H4626 C4630 0.949 . S
C4627 C4628 1.349 . S
C4627 C4629 1.327 . S
C4627 H4650 0.950 . S
C4628 C4627 1.349 . S
C4628 C4640 1.349 . S
C4629 C4627 1.327 . S
C4629 C4645 1.429 . S
C4629 H4651 0.950 . S
C4630 H4626 0.949 . S
C4630 C4638 1.574 . S
C4630 C4646 1.368 . S
H4631 C4639 0.950 . S
H4632 C4637 0.950 . S
H4633 C4638 0.949 . S
H4634 C4640 0.950 . S
H4635 C4641 0.950 . S
H4636 C4642 0.949 . S
C4637 H4632 0.950 . S
C4637 C4639 1.327 . S
C4637 C4643 1.429 . S
C4638 C4630 1.574 . S
C4638 H4633 0.949 . S
C4638 C4644 1.368 . S
C4639 C4623 1.349 . S
C4639 H4631 0.950 . S
C4639 C4637 1.327 . S
C4640 C4628 1.349 . S
C4640 H4634 0.950 . S
C4640 C4641 1.327 . S
C4641 H4635 0.950 . S
C4641 C4640 1.327 . S
C4641 C4645 1.429 . S
C4642 C4625 1.574 . S
C4642 H4636 0.949 . S
C4642 C4646 1.368 . S
C4643 C4624 1.429 . S
C4643 C4637 1.429 . S
C4643 C4644 1.523 . S
C4644 C4625 1.368 . S
C4644 C4638 1.368 . S
C4644 C4643 1.523 . S
C4645 C4629 1.429 . S
C4645 C4641 1.429 . S
C4645 C4646 1.523 . S
C4646 C4630 1.368 . S
C4646 C4642 1.368 . S
C4646 C4645 1.523 . S
H4647 C4622 0.950 . S
H4648 C4624 0.950 . S
H4649 C4625 0.949 . S
H4650 C4627 0.950 . S
H4651 C4629 0.950 . S
C4652 C4653 1.349 . S
C4652 C4654 1.327 . S
C4652 H4677 0.950 . S
C4653 C4652 1.349 . S
C4653 C4669 1.369 . S
C4654 C4652 1.327 . S
C4654 C4673 1.429 . S
C4654 H4678 0.950 . S
C4655 C4672 1.574 . S
C4655 C4674 1.368 . S
C4655 H4679 0.949 1_455 S
H4656 C4660 0.949 . S
C4657 C4658 1.349 . S
C4657 C4659 1.327 . S
C4657 H4680 0.937 1_455 S
C4658 C4657 1.349 . S
C4658 C4670 1.349 . S
C4659 C4657 1.327 . S
C4659 C4675 1.429 . S
C4659 H4681 0.950 1_455 S
C4660 H4656 0.949 . S
C4660 C4668 1.574 . S
C4660 C4676 1.368 . S
H4661 C4669 0.919 1_655 S
H4662 C4667 0.950 1_655 S
H4663 C4668 0.949 . S
H4664 C4670 0.950 . S
H4665 C4671 0.950 . S
H4666 C4672 0.949 1_655 S
C4667 H4662 0.950 1_455 S
C4667 C4669 1.340 . S
C4667 C4673 1.429 . S
C4668 C4660 1.574 . S
C4668 H4663 0.949 . S
C4668 C4674 1.368 . S
C4669 C4653 1.369 . S
C4669 H4661 0.919 1_455 S
C4669 C4667 1.340 . S
C4670 C4658 1.349 . S
C4670 H4664 0.950 . S
C4670 C4671 1.327 . S
C4671 H4665 0.950 . S
C4671 C4670 1.327 . S
C4671 C4675 1.429 . S
C4672 C4655 1.574 . S
C4672 H4666 0.949 1_455 S
C4672 C4676 1.368 . S
C4673 C4654 1.429 . S
C4673 C4667 1.429 . S
C4673 C4674 1.523 . S
C4674 C4655 1.368 . S
C4674 C4668 1.368 . S
C4674 C4673 1.523 . S
C4675 C4659 1.429 . S
C4675 C4671 1.429 . S
C4675 C4676 1.523 . S
C4676 C4660 1.368 . S
C4676 C4672 1.368 . S
C4676 C4675 1.523 . S
H4677 C4652 0.950 . S
H4678 C4654 0.950 . S
H4679 C4655 0.949 1_655 S
H4680 C4657 0.937 1_655 S
H4681 C4659 0.950 1_655 S
C4682 C4683 1.349 . S
C4682 C4684 1.327 . S
C4682 H4707 0.950 . S
C4683 C4682 1.349 . S
C4683 C4699 1.349 . S
C4684 C4682 1.327 . S
C4684 C4703 1.429 . S
C4684 H4708 0.950 . S
C4685 C4702 1.574 . S
C4685 C4704 1.368 . S
C4685 H4709 0.949 . S
H4686 C4690 0.949 . S
C4687 C4688 1.349 . S
C4687 C4689 1.327 . S
C4687 H4710 0.950 . S
C4688 C4687 1.349 . S
C4688 C4700 1.349 . S
C4689 C4687 1.327 . S
C4689 C4705 1.429 . S
C4689 H4711 0.950 . S
C4690 H4686 0.949 . S
C4690 C4698 1.574 . S
C4690 C4706 1.368 . S
H4691 C4699 0.950 . S
H4692 C4697 0.950 . S
H4693 C4698 0.949 . S
H4694 C4700 0.950 . S
H4695 C4701 0.950 . S
H4696 C4702 0.949 . S
C4697 H4692 0.950 . S
C4697 C4699 1.327 . S
C4697 C4703 1.429 . S
C4698 C4690 1.574 . S
C4698 H4693 0.949 . S
C4698 C4704 1.368 . S
C4699 C4683 1.349 . S
C4699 H4691 0.950 . S
C4699 C4697 1.327 . S
C4700 C4688 1.349 . S
C4700 H4694 0.950 . S
C4700 C4701 1.327 . S
C4701 H4695 0.950 . S
C4701 C4700 1.327 . S
C4701 C4705 1.429 . S
C4702 C4685 1.574 . S
C4702 H4696 0.949 . S
C4702 C4706 1.368 . S
C4703 C4684 1.429 . S
C4703 C4697 1.429 . S
C4703 C4704 1.523 . S
C4704 C4685 1.368 . S
C4704 C4698 1.368 . S
C4704 C4703 1.523 . S
C4705 C4689 1.429 . S
C4705 C4701 1.429 . S
C4705 C4706 1.523 . S
C4706 C4690 1.368 . S
C4706 C4702 1.368 . S
C4706 C4705 1.523 . S
H4707 C4682 0.950 . S
H4708 C4684 0.950 . S
H4709 C4685 0.949 . S
H4710 C4687 0.950 . S
H4711 C4689 0.950 . S
C4712 C4713 1.349 . S
C4712 C4714 1.327 . S
C4712 H4737 0.950 . S
C4713 C4712 1.349 . S
C4713 C4729 1.349 . S
C4714 C4712 1.327 . S
C4714 C4733 1.429 . S
C4714 H4738 0.950 . S
C4715 C4732 1.574 . S
C4715 C4734 1.368 . S
C4715 H4739 0.949 . S
H4716 C4720 0.949 . S
C4717 C4718 1.349 . S
C4717 C4719 1.327 . S
C4717 H4740 0.950 . S
C4718 C4717 1.349 . S
C4718 C4730 1.349 1_556 S
C4719 C4717 1.327 . S
C4719 C4735 1.429 . S
C4719 H4741 0.950 . S
C4720 H4716 0.949 . S
C4720 C4728 1.574 . S
C4720 C4736 1.368 . S
H4721 C4729 0.950 . S
H4722 C4727 0.950 . S
H4723 C4728 0.949 . S
H4724 C4730 0.950 . S
H4725 C4731 0.950 1_554 S
H4726 C4732 0.949 . S
C4727 H4722 0.950 . S
C4727 C4729 1.327 . S
C4727 C4733 1.429 . S
C4728 C4720 1.574 . S
C4728 H4723 0.949 . S
C4728 C4734 1.368 . S
C4729 C4713 1.349 . S
C4729 H4721 0.950 . S
C4729 C4727 1.327 . S
C4730 C4718 1.349 1_554 S
C4730 H4724 0.950 . S
C4730 C4731 1.327 1_554 S
C4731 H4725 0.950 1_556 S
C4731 C4730 1.327 1_556 S
C4731 C4735 1.429 . S
C4732 C4715 1.574 . S
C4732 H4726 0.949 . S
C4732 C4736 1.368 . S
C4733 C4714 1.429 . S
C4733 C4727 1.429 . S
C4733 C4734 1.523 . S
C4734 C4715 1.368 . S
C4734 C4728 1.368 . S
C4734 C4733 1.523 . S
C4735 C4719 1.429 . S
C4735 C4731 1.429 . S
C4735 C4736 1.523 . S
C4736 C4720 1.368 . S
C4736 C4732 1.368 . S
C4736 C4735 1.523 . S
H4737 C4712 0.950 . S
H4738 C4714 0.950 . S
H4739 C4715 0.949 . S
H4740 C4717 0.950 . S
H4741 C4719 0.950 . S
C4742 C4743 1.349 . S
C4742 C4744 1.327 . S
C4742 H4767 0.950 . S
C4743 C4742 1.349 . S
C4743 C4759 1.349 . S
C4744 C4742 1.327 . S
C4744 C4763 1.429 . S
C4744 H4768 0.950 . S
C4745 C4762 1.574 . S
C4745 C4764 1.368 . S
C4745 H4769 0.949 . S
H4746 C4750 0.949 . S
C4747 C4748 1.349 . S
C4747 C4749 1.327 . S
C4747 H4770 0.950 . S
C4748 C4747 1.349 . S
C4748 C4760 1.349 . S
C4749 C4747 1.327 . S
C4749 C4765 1.429 . S
C4749 H4771 0.950 . S
C4750 H4746 0.949 . S
C4750 C4758 1.574 . S
C4750 C4766 1.368 . S
H4751 C4759 0.950 . S
H4752 C4757 0.950 . S
H4753 C4758 0.949 . S
H4754 C4760 0.950 . S
H4755 C4761 0.950 . S
H4756 C4762 0.949 . S
C4757 H4752 0.950 . S
C4757 C4759 1.327 . S
C4757 C4763 1.429 . S
C4758 C4750 1.574 . S
C4758 H4753 0.949 . S
C4758 C4764 1.368 . S
C4759 C4743 1.349 . S
C4759 H4751 0.950 . S
C4759 C4757 1.327 . S
C4760 C4748 1.349 . S
C4760 H4754 0.950 . S
C4760 C4761 1.327 . S
C4761 H4755 0.950 . S
C4761 C4760 1.327 . S
C4761 C4765 1.429 . S
C4762 C4745 1.574 . S
C4762 H4756 0.949 . S
C4762 C4766 1.368 . S
C4763 C4744 1.429 . S
C4763 C4757 1.429 . S
C4763 C4764 1.523 . S
C4764 C4745 1.368 . S
C4764 C4758 1.368 . S
C4764 C4763 1.523 . S
C4765 C4749 1.429 . S
C4765 C4761 1.429 . S
C4765 C4766 1.523 . S
C4766 C4750 1.368 . S
C4766 C4762 1.368 . S
C4766 C4765 1.523 . S
H4767 C4742 0.950 . S
H4768 C4744 0.950 . S
H4769 C4745 0.949 . S
H4770 C4747 0.950 . S
H4771 C4749 0.950 . S
C4772 C4773 1.349 . S
C4772 C4774 1.327 . S
C4772 H4797 0.950 . S
C4773 C4772 1.349 . S
C4773 C4789 1.349 . S
C4774 C4772 1.327 . S
C4774 C4793 1.429 . S
C4774 H4798 0.950 . S
C4775 C4792 1.574 . S
C4775 C4794 1.368 . S
C4775 H4799 0.949 . S
H4776 C4780 0.949 . S
C4777 C4778 1.349 . S
C4777 C4779 1.327 . S
C4777 H4800 0.950 . S
C4778 C4777 1.349 . S
C4778 C4790 1.349 . S
C4779 C4777 1.327 . S
C4779 C4795 1.429 . S
C4779 H4801 0.950 . S
C4780 H4776 0.949 . S
C4780 C4788 1.574 . S
C4780 C4796 1.368 . S
H4781 C4789 0.950 . S
H4782 C4787 0.950 . S
H4783 C4788 0.949 . S
H4784 C4790 0.950 . S
H4785 C4791 0.950 . S
H4786 C4792 0.949 . S
C4787 H4782 0.950 . S
C4787 C4789 1.327 . S
C4787 C4793 1.429 . S
C4788 C4780 1.574 . S
C4788 H4783 0.949 . S
C4788 C4794 1.368 . S
C4789 C4773 1.349 . S
C4789 H4781 0.950 . S
C4789 C4787 1.327 . S
C4790 C4778 1.349 . S
C4790 H4784 0.950 . S
C4790 C4791 1.327 . S
C4791 H4785 0.950 . S
C4791 C4790 1.327 . S
C4791 C4795 1.429 . S
C4792 C4775 1.574 . S
C4792 H4786 0.949 . S
C4792 C4796 1.368 . S
C4793 C4774 1.429 . S
C4793 C4787 1.429 . S
C4793 C4794 1.523 . S
C4794 C4775 1.368 . S
C4794 C4788 1.368 . S
C4794 C4793 1.523 . S
C4795 C4779 1.429 . S
C4795 C4791 1.429 . S
C4795 C4796 1.523 . S
C4796 C4780 1.368 . S
C4796 C4792 1.368 . S
C4796 C4795 1.523 . S
H4797 C4772 0.950 . S
H4798 C4774 0.950 . S
H4799 C4775 0.949 . S
H4800 C4777 0.950 . S
H4801 C4779 0.950 . S
C4802 C4803 1.349 . S
C4802 C4804 1.327 . S
C4802 H4827 0.950 . S
C4803 C4802 1.349 . S
C4803 C4819 1.349 . S
C4804 C4802 1.327 . S
C4804 C4823 1.429 . S
C4804 H4828 0.950 . S
C4805 C4822 1.574 . S
C4805 C4824 1.368 . S
C4805 H4829 0.949 . S
H4806 C4810 0.949 . S
C4807 C4808 1.349 . S
C4807 C4809 1.327 . S
C4807 H4830 0.950 . S
C4808 C4807 1.349 . S
C4808 C4820 1.349 . S
C4809 C4807 1.327 . S
C4809 C4825 1.429 . S
C4809 H4831 0.950 . S
C4810 H4806 0.949 . S
C4810 C4818 1.574 . S
C4810 C4826 1.368 . S
H4811 C4819 0.950 . S
H4812 C4817 0.950 . S
H4813 C4818 0.949 . S
H4814 C4820 0.950 . S
H4815 C4821 0.950 . S
H4816 C4822 0.949 . S
C4817 H4812 0.950 . S
C4817 C4819 1.327 . S
C4817 C4823 1.429 . S
C4818 C4810 1.574 . S
C4818 H4813 0.949 . S
C4818 C4824 1.368 . S
C4819 C4803 1.349 . S
C4819 H4811 0.950 . S
C4819 C4817 1.327 . S
C4820 C4808 1.349 . S
C4820 H4814 0.950 . S
C4820 C4821 1.327 . S
C4821 H4815 0.950 . S
C4821 C4820 1.327 . S
C4821 C4825 1.429 . S
C4822 C4805 1.574 . S
C4822 H4816 0.949 . S
C4822 C4826 1.368 . S
C4823 C4804 1.429 . S
C4823 C4817 1.429 . S
C4823 C4824 1.523 . S
C4824 C4805 1.368 . S
C4824 C4818 1.368 . S
C4824 C4823 1.523 . S
C4825 C4809 1.429 . S
C4825 C4821 1.429 . S
C4825 C4826 1.523 . S
C4826 C4810 1.368 . S
C4826 C4822 1.368 . S
C4826 C4825 1.523 . S
H4827 C4802 0.950 . S
H4828 C4804 0.950 . S
H4829 C4805 0.949 . S
H4830 C4807 0.950 . S
H4831 C4809 0.950 . S
C4832 C4833 1.349 . S
C4832 C4834 1.327 . S
C4832 H4857 0.950 . S
C4833 C4832 1.349 . S
C4833 C4849 1.349 . S
C4834 C4832 1.327 . S
C4834 C4853 1.429 . S
C4834 H4858 0.950 . S
C4835 C4852 1.574 . S
C4835 C4854 1.368 . S
C4835 H4859 0.949 . S
H4836 C4840 0.949 . S
C4837 C4838 1.349 . S
C4837 C4839 1.327 . S
C4837 H4860 0.950 . S
C4838 C4837 1.349 . S
C4838 C4850 1.349 . S
C4839 C4837 1.327 . S
C4839 C4855 1.429 . S
C4839 H4861 0.950 . S
C4840 H4836 0.949 . S
C4840 C4848 1.574 . S
C4840 C4856 1.368 . S
H4841 C4849 0.950 . S
H4842 C4847 0.950 . S
H4843 C4848 0.949 . S
H4844 C4850 0.950 . S
H4845 C4851 0.950 . S
H4846 C4852 0.949 . S
C4847 H4842 0.950 . S
C4847 C4849 1.327 . S
C4847 C4853 1.429 . S
C4848 C4840 1.574 . S
C4848 H4843 0.949 . S
C4848 C4854 1.368 . S
C4849 C4833 1.349 . S
C4849 H4841 0.950 . S
C4849 C4847 1.327 . S
C4850 C4838 1.349 . S
C4850 H4844 0.950 . S
C4850 C4851 1.327 . S
C4851 H4845 0.950 . S
C4851 C4850 1.327 . S
C4851 C4855 1.429 . S
C4852 C4835 1.574 . S
C4852 H4846 0.949 . S
C4852 C4856 1.368 . S
C4853 C4834 1.429 . S
C4853 C4847 1.429 . S
C4853 C4854 1.523 . S
C4854 C4835 1.368 . S
C4854 C4848 1.368 . S
C4854 C4853 1.523 . S
C4855 C4839 1.429 . S
C4855 C4851 1.429 . S
C4855 C4856 1.523 . S
C4856 C4840 1.368 . S
C4856 C4852 1.368 . S
C4856 C4855 1.523 . S
H4857 C4832 0.950 . S
H4858 C4834 0.950 . S
H4859 C4835 0.949 . S
H4860 C4837 0.950 . S
H4861 C4839 0.950 . S
C4862 C4863 1.349 . S
C4862 C4864 1.327 . S
C4862 H4887 0.950 . S
C4863 C4862 1.349 . S
C4863 C4879 1.349 . S
C4864 C4862 1.327 . S
C4864 C4883 1.429 . S
C4864 H4888 0.950 . S
C4865 C4882 1.574 . S
C4865 C4884 1.368 . S
C4865 H4889 0.949 . S
H4866 C4870 0.949 . S
C4867 C4868 1.349 . S
C4867 C4869 1.327 . S
C4867 H4890 0.950 . S
C4868 C4867 1.349 . S
C4868 C4880 1.349 . S
C4869 C4867 1.327 . S
C4869 C4885 1.429 . S
C4869 H4891 0.950 . S
C4870 H4866 0.949 . S
C4870 C4878 1.574 . S
C4870 C4886 1.368 . S
H4871 C4879 0.950 . S
H4872 C4877 0.950 . S
H4873 C4878 0.949 . S
H4874 C4880 0.950 . S
H4875 C4881 0.950 . S
H4876 C4882 0.949 . S
C4877 H4872 0.950 . S
C4877 C4879 1.327 . S
C4877 C4883 1.429 . S
C4878 C4870 1.574 . S
C4878 H4873 0.949 . S
C4878 C4884 1.368 . S
C4879 C4863 1.349 . S
C4879 H4871 0.950 . S
C4879 C4877 1.327 . S
C4880 C4868 1.349 . S
C4880 H4874 0.950 . S
C4880 C4881 1.327 . S
C4881 H4875 0.950 . S
C4881 C4880 1.327 . S
C4881 C4885 1.429 . S
C4882 C4865 1.574 . S
C4882 H4876 0.949 . S
C4882 C4886 1.368 . S
C4883 C4864 1.429 . S
C4883 C4877 1.429 . S
C4883 C4884 1.523 . S
C4884 C4865 1.368 . S
C4884 C4878 1.368 . S
C4884 C4883 1.523 . S
C4885 C4869 1.429 . S
C4885 C4881 1.429 . S
C4885 C4886 1.523 . S
C4886 C4870 1.368 . S
C4886 C4882 1.368 . S
C4886 C4885 1.523 . S
H4887 C4862 0.950 . S
H4888 C4864 0.950 . S
H4889 C4865 0.949 . S
H4890 C4867 0.950 . S
H4891 C4869 0.950 . S
C4892 C4893 1.349 . S
C4892 C4894 1.327 . S
C4892 H4917 0.950 . S
C4893 C4892 1.349 . S
C4893 C4909 1.349 . S
C4894 C4892 1.327 . S
C4894 C4913 1.429 . S
C4894 H4918 0.950 . S
C4895 C4912 1.574 . S
C4895 C4914 1.368 . S
C4895 H4919 0.949 . S
H4896 C4900 0.949 . S
C4897 C4898 1.349 . S
C4897 C4899 1.327 . S
C4897 H4920 0.950 . S
C4898 C4897 1.349 . S
C4898 C4910 1.349 1_655 S
C4899 C4897 1.327 . S
C4899 C4915 1.429 . S
C4899 H4921 0.950 . S
C4900 H4896 0.949 . S
C4900 C4908 1.574 . S
C4900 C4916 1.368 . S
H4901 C4909 0.950 . S
H4902 C4907 0.950 . S
H4903 C4908 0.949 . S
H4904 C4910 0.950 . S
H4905 C4911 0.950 . S
H4906 C4912 0.949 . S
C4907 H4902 0.950 . S
C4907 C4909 1.327 . S
C4907 C4913 1.429 . S
C4908 C4900 1.574 . S
C4908 H4903 0.949 . S
C4908 C4914 1.368 . S
C4909 C4893 1.349 . S
C4909 H4901 0.950 . S
C4909 C4907 1.327 . S
C4910 C4898 1.349 1_455 S
C4910 H4904 0.950 . S
C4910 C4911 1.327 1_455 S
C4911 H4905 0.950 . S
C4911 C4910 1.327 1_655 S
C4911 C4915 1.429 . S
C4912 C4895 1.574 . S
C4912 H4906 0.949 . S
C4912 C4916 1.368 . S
C4913 C4894 1.429 . S
C4913 C4907 1.429 . S
C4913 C4914 1.523 . S
C4914 C4895 1.368 . S
C4914 C4908 1.368 . S
C4914 C4913 1.523 . S
C4915 C4899 1.429 . S
C4915 C4911 1.429 . S
C4915 C4916 1.523 . S
C4916 C4900 1.368 . S
C4916 C4912 1.368 . S
C4916 C4915 1.523 . S
H4917 C4892 0.950 . S
H4918 C4894 0.950 . S
H4919 C4895 0.949 . S
H4920 C4897 0.950 . S
H4921 C4899 0.950 . S
C4922 C4923 1.349 . S
C4922 C4924 1.327 . S
C4922 H4947 0.950 . S
C4923 C4922 1.349 . S
C4923 C4939 1.349 . S
C4924 C4922 1.327 . S
C4924 C4943 1.429 . S
C4924 H4948 0.950 . S
C4925 C4942 1.574 . S
C4925 C4944 1.368 . S
C4925 H4949 0.949 . S
H4926 C4930 0.949 . S
C4927 C4928 1.349 . S
C4927 C4929 1.327 . S
C4927 H4950 0.950 . S
C4928 C4927 1.349 . S
C4928 C4940 1.349 . S
C4929 C4927 1.327 . S
C4929 C4945 1.429 . S
C4929 H4951 0.950 . S
C4930 H4926 0.949 . S
C4930 C4938 1.574 . S
C4930 C4946 1.368 . S
H4931 C4939 0.950 . S
H4932 C4937 0.950 . S
H4933 C4938 0.949 . S
H4934 C4940 0.950 . S
H4935 C4941 0.950 . S
H4936 C4942 0.949 . S
C4937 H4932 0.950 . S
C4937 C4939 1.327 . S
C4937 C4943 1.429 . S
C4938 C4930 1.574 . S
C4938 H4933 0.949 . S
C4938 C4944 1.368 . S
C4939 C4923 1.349 . S
C4939 H4931 0.950 . S
C4939 C4937 1.327 . S
C4940 C4928 1.349 . S
C4940 H4934 0.950 . S
C4940 C4941 1.327 . S
C4941 H4935 0.950 . S
C4941 C4940 1.327 . S
C4941 C4945 1.429 . S
C4942 C4925 1.574 . S
C4942 H4936 0.949 . S
C4942 C4946 1.368 . S
C4943 C4924 1.429 . S
C4943 C4937 1.429 . S
C4943 C4944 1.523 . S
C4944 C4925 1.368 . S
C4944 C4938 1.368 . S
C4944 C4943 1.523 . S
C4945 C4929 1.429 . S
C4945 C4941 1.429 . S
C4945 C4946 1.523 . S
C4946 C4930 1.368 . S
C4946 C4942 1.368 . S
C4946 C4945 1.523 . S
H4947 C4922 0.950 . S
H4948 C4924 0.950 . S
H4949 C4925 0.949 . S
H4950 C4927 0.950 . S
H4951 C4929 0.950 . S
C4952 C4953 1.349 . S
C4952 C4954 1.327 . S
C4952 H4977 0.950 . S
C4953 C4952 1.349 . S
C4953 C4969 1.349 . S
C4954 C4952 1.327 . S
C4954 C4973 1.429 . S
C4954 H4978 0.950 . S
C4955 C4972 1.574 . S
C4955 C4974 1.368 . S
C4955 H4979 0.949 . S
H4956 C4960 0.949 . S
C4957 C4958 1.349 . S
C4957 C4959 1.327 . S
C4957 H4980 0.950 . S
C4958 C4957 1.349 . S
C4958 C4970 1.349 . S
C4959 C4957 1.327 . S
C4959 C4975 1.429 . S
C4959 H4981 0.950 . S
C4960 H4956 0.949 . S
C4960 C4968 1.574 . S
C4960 C4976 1.368 . S
H4961 C4969 0.950 . S
H4962 C4967 0.950 . S
H4963 C4968 0.949 . S
H4964 C4970 0.950 . S
H4965 C4971 0.950 . S
H4966 C4972 0.949 . S
C4967 H4962 0.950 . S
C4967 C4969 1.327 . S
C4967 C4973 1.429 . S
C4968 C4960 1.574 . S
C4968 H4963 0.949 . S
C4968 C4974 1.368 . S
C4969 C4953 1.349 . S
C4969 H4961 0.950 . S
C4969 C4967 1.327 . S
C4970 C4958 1.349 . S
C4970 H4964 0.950 . S
C4970 C4971 1.327 . S
C4971 H4965 0.950 . S
C4971 C4970 1.327 . S
C4971 C4975 1.429 . S
C4972 C4955 1.574 . S
C4972 H4966 0.949 . S
C4972 C4976 1.368 . S
C4973 C4954 1.429 . S
C4973 C4967 1.429 . S
C4973 C4974 1.523 . S
C4974 C4955 1.368 . S
C4974 C4968 1.368 . S
C4974 C4973 1.523 . S
C4975 C4959 1.429 . S
C4975 C4971 1.429 . S
C4975 C4976 1.523 . S
C4976 C4960 1.368 . S
C4976 C4972 1.368 . S
C4976 C4975 1.523 . S
H4977 C4952 0.950 . S
H4978 C4954 0.950 . S
H4979 C4955 0.949 . S
H4980 C4957 0.950 . S
H4981 C4959 0.950 . S
C4982 C4983 1.349 . S
C4982 C4984 1.327 . S
C4982 H5007 0.950 . S
C4983 C4982 1.349 . S
C4983 C4999 1.349 . S
C4984 C4982 1.327 . S
C4984 C5003 1.429 . S
C4984 H5008 0.950 . S
C4985 C5002 1.574 . S
C4985 C5004 1.368 . S
C4985 H5009 0.949 . S
H4986 C4990 0.949 . S
C4987 C4988 1.349 . S
C4987 C4989 1.327 . S
C4987 H5010 0.950 . S
C4988 C4987 1.349 . S
C4988 C5000 1.349 . S
C4989 C4987 1.327 . S
C4989 C5005 1.429 . S
C4989 H5011 0.950 . S
C4990 H4986 0.949 . S
C4990 C4998 1.574 . S
C4990 C5006 1.368 . S
H4991 C4999 0.950 . S
H4992 C4997 0.950 . S
H4993 C4998 0.949 . S
H4994 C5000 0.950 . S
H4995 C5001 0.950 . S
H4996 C5002 0.949 . S
C4997 H4992 0.950 . S
C4997 C4999 1.327 . S
C4997 C5003 1.429 . S
C4998 C4990 1.574 . S
C4998 H4993 0.949 . S
C4998 C5004 1.368 . S
C4999 C4983 1.349 . S
C4999 H4991 0.950 . S
C4999 C4997 1.327 . S
C5000 C4988 1.349 . S
C5000 H4994 0.950 . S
C5000 C5001 1.327 . S
C5001 H4995 0.950 . S
C5001 C5000 1.327 . S
C5001 C5005 1.429 . S
C5002 C4985 1.574 . S
C5002 H4996 0.949 . S
C5002 C5006 1.368 . S
C5003 C4984 1.429 . S
C5003 C4997 1.429 . S
C5003 C5004 1.523 . S
C5004 C4985 1.368 . S
C5004 C4998 1.368 . S
C5004 C5003 1.523 . S
C5005 C4989 1.429 . S
C5005 C5001 1.429 . S
C5005 C5006 1.523 . S
C5006 C4990 1.368 . S
C5006 C5002 1.368 . S
C5006 C5005 1.523 . S
H5007 C4982 0.950 . S
H5008 C4984 0.950 . S
H5009 C4985 0.949 . S
H5010 C4987 0.950 . S
H5011 C4989 0.950 . S
C5012 C5013 1.349 . S
C5012 C5014 1.327 . S
C5012 H5037 0.950 . S
C5013 C5012 1.349 . S
C5013 C5029 1.349 . S
C5014 C5012 1.327 . S
C5014 C5033 1.429 . S
C5014 H5038 0.950 . S
C5015 C5032 1.574 . S
C5015 C5034 1.368 . S
C5015 H5039 0.949 . S
H5016 C5020 0.949 . S
C5017 C5018 1.349 . S
C5017 C5019 1.327 . S
C5017 H5040 0.950 . S
C5018 C5017 1.349 . S
C5018 C5030 1.349 . S
C5019 C5017 1.327 . S
C5019 C5035 1.429 . S
C5019 H5041 0.950 . S
C5020 H5016 0.949 . S
C5020 C5028 1.574 . S
C5020 C5036 1.368 . S
H5021 C5029 0.950 . S
H5022 C5027 0.950 . S
H5023 C5028 0.949 . S
H5024 C5030 0.950 1_455 S
H5025 C5031 0.950 . S
H5026 C5032 0.949 . S
C5027 H5022 0.950 . S
C5027 C5029 1.327 . S
C5027 C5033 1.429 . S
C5028 C5020 1.574 . S
C5028 H5023 0.949 . S
C5028 C5034 1.368 . S
C5029 C5013 1.349 . S
C5029 H5021 0.950 . S
C5029 C5027 1.327 . S
C5030 C5018 1.349 . S
C5030 H5024 0.950 1_655 S
C5030 C5031 1.327 . S
C5031 H5025 0.950 . S
C5031 C5030 1.327 . S
C5031 C5035 1.429 . S
C5032 C5015 1.574 . S
C5032 H5026 0.949 . S
C5032 C5036 1.368 . S
C5033 C5014 1.429 . S
C5033 C5027 1.429 . S
C5033 C5034 1.523 . S
C5034 C5015 1.368 . S
C5034 C5028 1.368 . S
C5034 C5033 1.523 . S
C5035 C5019 1.429 . S
C5035 C5031 1.429 . S
C5035 C5036 1.523 . S
C5036 C5020 1.368 . S
C5036 C5032 1.368 . S
C5036 C5035 1.523 . S
H5037 C5012 0.950 . S
H5038 C5014 0.950 . S
H5039 C5015 0.949 . S
H5040 C5017 0.950 . S
H5041 C5019 0.950 . S
C5042 C5043 1.349 . S
C5042 C5044 1.327 . S
C5042 H5067 0.950 . S
C5043 C5042 1.349 . S
C5043 C5059 1.349 . S
C5044 C5042 1.327 . S
C5044 C5063 1.429 . S
C5044 H5068 0.950 . S
C5045 C5062 1.574 . S
C5045 C5064 1.368 . S
C5045 H5069 0.949 . S
H5046 C5050 0.949 . S
C5047 C5048 1.349 . S
C5047 C5049 1.327 . S
C5047 H5070 0.950 . S
C5048 C5047 1.349 . S
C5048 C5060 1.349 . S
C5049 C5047 1.327 . S
C5049 C5065 1.429 . S
C5049 H5071 0.950 . S
C5050 H5046 0.949 . S
C5050 C5058 1.574 . S
C5050 C5066 1.368 . S
H5051 C5059 0.950 . S
H5052 C5057 0.950 . S
H5053 C5058 0.949 . S
H5054 C5060 0.950 . S
H5055 C5061 0.950 . S
H5056 C5062 0.949 . S
C5057 H5052 0.950 . S
C5057 C5059 1.327 . S
C5057 C5063 1.429 . S
C5058 C5050 1.574 . S
C5058 H5053 0.949 . S
C5058 C5064 1.368 . S
C5059 C5043 1.349 . S
C5059 H5051 0.950 . S
C5059 C5057 1.327 . S
C5060 C5048 1.349 . S
C5060 H5054 0.950 . S
C5060 C5061 1.327 . S
C5061 H5055 0.950 . S
C5061 C5060 1.327 . S
C5061 C5065 1.429 . S
C5062 C5045 1.574 . S
C5062 H5056 0.949 . S
C5062 C5066 1.368 . S
C5063 C5044 1.429 . S
C5063 C5057 1.429 . S
C5063 C5064 1.523 . S
C5064 C5045 1.368 . S
C5064 C5058 1.368 . S
C5064 C5063 1.523 . S
C5065 C5049 1.429 . S
C5065 C5061 1.429 . S
C5065 C5066 1.523 . S
C5066 C5050 1.368 . S
C5066 C5062 1.368 . S
C5066 C5065 1.523 . S
H5067 C5042 0.950 . S
H5068 C5044 0.950 . S
H5069 C5045 0.949 . S
H5070 C5047 0.950 . S
H5071 C5049 0.950 . S
C5072 C5073 1.349 . S
C5072 C5074 1.327 . S
C5072 H5097 0.950 . S
C5073 C5072 1.349 . S
C5073 C5089 1.349 . S
C5074 C5072 1.327 . S
C5074 C5093 1.429 . S
C5074 H5098 0.950 . S
C5075 C5092 1.574 . S
C5075 C5094 1.368 . S
C5075 H5099 0.949 . S
H5076 C5080 0.949 . S
C5077 C5078 1.349 . S
C5077 C5079 1.327 . S
C5077 H5100 0.950 . S
C5078 C5077 1.349 . S
C5078 C5090 1.349 . S
C5079 C5077 1.327 . S
C5079 C5095 1.429 . S
C5079 H5101 0.950 . S
C5080 H5076 0.949 . S
C5080 C5088 1.574 . S
C5080 C5096 1.368 . S
H5081 C5089 0.950 . S
H5082 C5087 0.950 . S
H5083 C5088 0.949 . S
H5084 C5090 0.950 . S
H5085 C5091 0.950 . S
H5086 C5092 0.949 . S
C5087 H5082 0.950 . S
C5087 C5089 1.327 . S
C5087 C5093 1.429 . S
C5088 C5080 1.574 . S
C5088 H5083 0.949 . S
C5088 C5094 1.368 . S
C5089 C5073 1.349 . S
C5089 H5081 0.950 . S
C5089 C5087 1.327 . S
C5090 C5078 1.349 . S
C5090 H5084 0.950 . S
C5090 C5091 1.327 . S
C5091 H5085 0.950 . S
C5091 C5090 1.327 . S
C5091 C5095 1.429 . S
C5092 C5075 1.574 . S
C5092 H5086 0.949 . S
C5092 C5096 1.368 . S
C5093 C5074 1.429 . S
C5093 C5087 1.429 . S
C5093 C5094 1.523 . S
C5094 C5075 1.368 . S
C5094 C5088 1.368 . S
C5094 C5093 1.523 . S
C5095 C5079 1.429 . S
C5095 C5091 1.429 . S
C5095 C5096 1.523 . S
C5096 C5080 1.368 . S
C5096 C5092 1.368 . S
C5096 C5095 1.523 . S
H5097 C5072 0.950 . S
H5098 C5074 0.950 . S
H5099 C5075 0.949 . S
H5100 C5077 0.950 . S
H5101 C5079 0.950 . S
C5102 C5103 1.349 . S
C5102 C5104 1.327 . S
C5102 H5127 0.950 . S
C5103 C5102 1.349 . S
C5103 C5119 1.349 . S
C5104 C5102 1.327 . S
C5104 C5123 1.429 . S
C5104 H5128 0.950 . S
C5105 C5122 1.574 . S
C5105 C5124 1.368 . S
C5105 H5129 0.949 . S
H5106 C5110 0.949 . S
C5107 C5108 1.349 . S
C5107 C5109 1.327 1_545 S
C5107 H5130 0.950 . S
C5108 C5107 1.349 . S
C5108 C5120 1.364 . S
C5109 C5107 1.327 1_565 S
C5109 C5125 1.429 . S
C5109 H5131 0.950 . S
C5110 H5106 0.949 . S
C5110 C5118 1.574 . S
C5110 C5126 1.368 . S
H5111 C5119 0.950 . S
H5112 C5117 0.950 . S
H5113 C5118 0.949 . S
H5114 C5120 0.949 . S
H5115 C5121 0.950 . S
H5116 C5122 0.949 . S
C5117 H5112 0.950 . S
C5117 C5119 1.327 . S
C5117 C5123 1.429 . S
C5118 C5110 1.574 . S
C5118 H5113 0.949 . S
C5118 C5124 1.368 . S
C5119 C5103 1.349 . S
C5119 H5111 0.950 . S
C5119 C5117 1.327 . S
C5120 C5108 1.364 . S
C5120 H5114 0.949 . S
C5120 C5121 1.315 1_545 S
C5121 H5115 0.950 . S
C5121 C5120 1.315 1_565 S
C5121 C5125 1.429 . S
C5122 C5105 1.574 . S
C5122 H5116 0.949 . S
C5122 C5126 1.368 . S
C5123 C5104 1.429 . S
C5123 C5117 1.429 . S
C5123 C5124 1.523 . S
C5124 C5105 1.368 . S
C5124 C5118 1.368 . S
C5124 C5123 1.523 . S
C5125 C5109 1.429 . S
C5125 C5121 1.429 . S
C5125 C5126 1.523 . S
C5126 C5110 1.368 . S
C5126 C5122 1.368 . S
C5126 C5125 1.523 . S
H5127 C5102 0.950 . S
H5128 C5104 0.950 . S
H5129 C5105 0.949 . S
H5130 C5107 0.950 . S
H5131 C5109 0.950 . S
C5132 C5133 1.349 . S
C5132 C5134 1.327 . S
C5132 H5157 0.950 . S
C5133 C5132 1.349 . S
C5133 C5149 1.349 . S
C5134 C5132 1.327 . S
C5134 C5153 1.429 . S
C5134 H5158 0.950 . S
C5135 C5152 1.574 . S
C5135 C5154 1.368 . S
C5135 H5159 0.949 . S
H5136 C5140 0.949 . S
C5137 C5138 1.349 . S
C5137 C5139 1.327 . S
C5137 H5160 0.950 . S
C5138 C5137 1.349 . S
C5138 C5150 1.349 . S
C5139 C5137 1.327 . S
C5139 C5155 1.429 . S
C5139 H5161 0.950 . S
C5140 H5136 0.949 . S
C5140 C5148 1.574 . S
C5140 C5156 1.368 . S
H5141 C5149 0.950 . S
H5142 C5147 0.950 . S
H5143 C5148 0.949 . S
H5144 C5150 0.950 . S
H5145 C5151 0.950 . S
H5146 C5152 0.949 . S
C5147 H5142 0.950 . S
C5147 C5149 1.327 . S
C5147 C5153 1.429 . S
C5148 C5140 1.574 . S
C5148 H5143 0.949 . S
C5148 C5154 1.368 . S
C5149 C5133 1.349 . S
C5149 H5141 0.950 . S
C5149 C5147 1.327 . S
C5150 C5138 1.349 . S
C5150 H5144 0.950 . S
C5150 C5151 1.327 . S
C5151 H5145 0.950 . S
C5151 C5150 1.327 . S
C5151 C5155 1.429 . S
C5152 C5135 1.574 . S
C5152 H5146 0.949 . S
C5152 C5156 1.368 . S
C5153 C5134 1.429 . S
C5153 C5147 1.429 . S
C5153 C5154 1.523 . S
C5154 C5135 1.368 . S
C5154 C5148 1.368 . S
C5154 C5153 1.523 . S
C5155 C5139 1.429 . S
C5155 C5151 1.429 . S
C5155 C5156 1.523 . S
C5156 C5140 1.368 . S
C5156 C5152 1.368 . S
C5156 C5155 1.523 . S
H5157 C5132 0.950 . S
H5158 C5134 0.950 . S
H5159 C5135 0.949 . S
H5160 C5137 0.950 . S
H5161 C5139 0.950 . S
C5162 C5163 1.359 . S
C5162 C5164 1.321 1_556 S
C5162 H5187 0.946 1_556 S
C5163 C5162 1.359 . S
C5163 C5179 1.349 . S
C5164 C5162 1.321 1_554 S
C5164 C5183 1.422 1_554 S
C5164 H5188 0.950 . S
C5165 C5182 1.574 1_556 S
C5165 C5184 1.368 1_556 S
C5165 H5189 0.949 . S
H5166 C5170 0.949 . S
C5167 C5168 1.349 . S
C5167 C5169 1.327 . S
C5167 H5190 0.950 . S
C5168 C5167 1.349 . S
C5168 C5180 1.349 . S
C5169 C5167 1.327 . S
C5169 C5185 1.429 . S
C5169 H5191 0.950 . S
C5170 H5166 0.949 . S
C5170 C5178 1.574 . S
C5170 C5186 1.368 . S
H5171 C5179 0.950 . S
H5172 C5177 0.950 . S
H5173 C5178 0.949 . S
H5174 C5180 0.950 . S
H5175 C5181 0.950 . S
H5176 C5182 0.946 1_556 S
C5177 H5172 0.950 . S
C5177 C5179 1.327 . S
C5177 C5183 1.447 . S
C5178 C5170 1.574 . S
C5178 H5173 0.949 . S
C5178 C5184 1.368 . S
C5179 C5163 1.349 . S
C5179 H5171 0.950 . S
C5179 C5177 1.327 . S
C5180 C5168 1.349 . S
C5180 H5174 0.950 . S
C5180 C5181 1.327 . S
C5181 H5175 0.950 . S
C5181 C5180 1.327 . S
C5181 C5185 1.429 . S
C5182 C5165 1.574 1_554 S
C5182 H5176 0.946 1_554 S
C5182 C5186 1.368 . S
C5183 C5164 1.422 1_556 S
C5183 C5177 1.447 . S
C5183 C5184 1.514 1_556 S
C5184 C5165 1.368 1_554 S
C5184 C5178 1.368 . S
C5184 C5183 1.514 1_554 S
C5185 C5169 1.429 . S
C5185 C5181 1.429 . S
C5185 C5186 1.523 . S
C5186 C5170 1.368 . S
C5186 C5182 1.368 . S
C5186 C5185 1.523 . S
H5187 C5162 0.946 1_554 S
H5188 C5164 0.950 . S
H5189 C5165 0.949 . S
H5190 C5167 0.950 . S
H5191 C5169 0.950 . S
C5192 C5193 1.349 . S
C5192 C5194 1.327 . S
C5192 H5217 0.950 . S
C5193 C5192 1.349 . S
C5193 C5209 1.349 . S
C5194 C5192 1.327 . S
C5194 C5213 1.429 . S
C5194 H5218 0.950 . S
C5195 C5212 1.574 . S
C5195 C5214 1.368 . S
C5195 H5219 0.949 . S
H5196 C5200 0.949 . S
C5197 C5198 1.349 . S
C5197 C5199 1.327 . S
C5197 H5220 0.950 . S
C5198 C5197 1.349 . S
C5198 C5210 1.349 . S
C5199 C5197 1.327 . S
C5199 C5215 1.429 . S
C5199 H5221 0.950 . S
C5200 H5196 0.949 . S
C5200 C5208 1.574 . S
C5200 C5216 1.368 . S
H5201 C5209 0.950 . S
H5202 C5207 0.950 . S
H5203 C5208 0.949 . S
H5204 C5210 0.950 . S
H5205 C5211 0.950 . S
H5206 C5212 0.949 . S
C5207 H5202 0.950 . S
C5207 C5209 1.327 . S
C5207 C5213 1.429 . S
C5208 C5200 1.574 . S
C5208 H5203 0.949 . S
C5208 C5214 1.368 . S
C5209 C5193 1.349 . S
C5209 H5201 0.950 . S
C5209 C5207 1.327 . S
C5210 C5198 1.349 . S
C5210 H5204 0.950 . S
C5210 C5211 1.327 . S
C5211 H5205 0.950 . S
C5211 C5210 1.327 . S
C5211 C5215 1.429 . S
C5212 C5195 1.574 . S
C5212 H5206 0.949 . S
C5212 C5216 1.368 . S
C5213 C5194 1.429 . S
C5213 C5207 1.429 . S
C5213 C5214 1.523 . S
C5214 C5195 1.368 . S
C5214 C5208 1.368 . S
C5214 C5213 1.523 . S
C5215 C5199 1.429 . S
C5215 C5211 1.429 . S
C5215 C5216 1.523 . S
C5216 C5200 1.368 . S
C5216 C5212 1.368 . S
C5216 C5215 1.523 . S
H5217 C5192 0.950 . S
H5218 C5194 0.950 . S
H5219 C5195 0.949 . S
H5220 C5197 0.950 . S
H5221 C5199 0.950 . S
C5222 C5223 1.349 . S
C5222 C5224 1.327 . S
C5222 H5247 0.950 . S
C5223 C5222 1.349 . S
C5223 C5239 1.349 . S
C5224 C5222 1.327 . S
C5224 C5243 1.429 . S
C5224 H5248 0.950 . S
C5225 C5242 1.574 . S
C5225 C5244 1.368 . S
C5225 H5249 0.949 . S
H5226 C5230 0.949 1_556 S
C5227 C5228 1.349 . S
C5227 C5229 1.327 . S
C5227 H5250 0.950 . S
C5228 C5227 1.349 . S
C5228 C5240 1.349 1_554 S
C5229 C5227 1.327 . S
C5229 C5245 1.429 . S
C5229 H5251 0.950 . S
C5230 H5226 0.949 1_554 S
C5230 C5238 1.574 . S
C5230 C5246 1.368 . S
H5231 C5239 0.950 . S
H5232 C5237 0.950 . S
H5233 C5238 0.949 . S
H5234 C5240 0.950 . S
H5235 C5241 0.956 . S
H5236 C5242 0.949 . S
C5237 H5232 0.950 . S
C5237 C5239 1.327 . S
C5237 C5243 1.429 . S
C5238 C5230 1.574 . S
C5238 H5233 0.949 . S
C5238 C5244 1.368 . S
C5239 C5223 1.349 . S
C5239 H5231 0.950 . S
C5239 C5237 1.327 . S
C5240 C5228 1.349 1_556 S
C5240 H5234 0.950 . S
C5240 C5241 1.332 . S
C5241 H5235 0.956 . S
C5241 C5240 1.332 . S
C5241 C5245 1.420 1_556 S
C5242 C5225 1.574 . S
C5242 H5236 0.949 . S
C5242 C5246 1.368 . S
C5243 C5224 1.429 . S
C5243 C5237 1.429 . S
C5243 C5244 1.523 . S
C5244 C5225 1.368 . S
C5244 C5238 1.368 . S
C5244 C5243 1.523 . S
C5245 C5229 1.429 . S
C5245 C5241 1.420 1_554 S
C5245 C5246 1.523 . S
C5246 C5230 1.368 . S
C5246 C5242 1.368 . S
C5246 C5245 1.523 . S
H5247 C5222 0.950 . S
H5248 C5224 0.950 . S
H5249 C5225 0.949 . S
H5250 C5227 0.950 . S
H5251 C5229 0.950 . S
C5252 C5253 1.349 . S
C5252 C5254 1.327 . S
C5252 H5277 0.950 . S
C5253 C5252 1.349 . S
C5253 C5269 1.349 . S
C5254 C5252 1.327 . S
C5254 C5273 1.429 . S
C5254 H5278 0.950 . S
C5255 C5272 1.574 . S
C5255 C5274 1.368 . S
C5255 H5279 0.949 . S
H5256 C5260 0.949 . S
C5257 C5258 1.349 . S
C5257 C5259 1.327 . S
C5257 H5280 0.950 . S
C5258 C5257 1.349 . S
C5258 C5270 1.349 . S
C5259 C5257 1.327 . S
C5259 C5275 1.429 . S
C5259 H5281 0.950 . S
C5260 H5256 0.949 . S
C5260 C5268 1.574 . S
C5260 C5276 1.368 . S
H5261 C5269 0.950 . S
H5262 C5267 0.950 . S
H5263 C5268 0.949 . S
H5264 C5270 0.950 . S
H5265 C5271 0.950 . S
H5266 C5272 0.949 . S
C5267 H5262 0.950 . S
C5267 C5269 1.327 . S
C5267 C5273 1.429 . S
C5268 C5260 1.574 . S
C5268 H5263 0.949 . S
C5268 C5274 1.368 . S
C5269 C5253 1.349 . S
C5269 H5261 0.950 . S
C5269 C5267 1.327 . S
C5270 C5258 1.349 . S
C5270 H5264 0.950 . S
C5270 C5271 1.327 . S
C5271 H5265 0.950 . S
C5271 C5270 1.327 . S
C5271 C5275 1.429 . S
C5272 C5255 1.574 . S
C5272 H5266 0.949 . S
C5272 C5276 1.368 . S
C5273 C5254 1.429 . S
C5273 C5267 1.429 . S
C5273 C5274 1.523 . S
C5274 C5255 1.368 . S
C5274 C5268 1.368 . S
C5274 C5273 1.523 . S
C5275 C5259 1.429 . S
C5275 C5271 1.429 . S
C5275 C5276 1.523 . S
C5276 C5260 1.368 . S
C5276 C5272 1.368 . S
C5276 C5275 1.523 . S
H5277 C5252 0.950 . S
H5278 C5254 0.950 . S
H5279 C5255 0.949 . S
H5280 C5257 0.950 . S
H5281 C5259 0.950 . S
C5282 C5283 1.349 . S
C5282 C5284 1.327 . S
C5282 H5307 0.950 . S
C5283 C5282 1.349 . S
C5283 C5299 1.349 . S
C5284 C5282 1.327 . S
C5284 C5303 1.429 . S
C5284 H5308 0.950 . S
C5285 C5302 1.574 . S
C5285 C5304 1.368 . S
C5285 H5309 0.949 . S
H5286 C5290 0.949 . S
C5287 C5288 1.349 . S
C5287 C5289 1.327 . S
C5287 H5310 0.950 . S
C5288 C5287 1.349 . S
C5288 C5300 1.349 . S
C5289 C5287 1.327 . S
C5289 C5305 1.429 . S
C5289 H5311 0.950 . S
C5290 H5286 0.949 . S
C5290 C5298 1.574 . S
C5290 C5306 1.368 . S
H5291 C5299 0.950 . S
H5292 C5297 0.950 . S
H5293 C5298 0.949 . S
H5294 C5300 0.950 . S
H5295 C5301 0.950 . S
H5296 C5302 0.949 . S
C5297 H5292 0.950 . S
C5297 C5299 1.327 . S
C5297 C5303 1.429 . S
C5298 C5290 1.574 . S
C5298 H5293 0.949 . S
C5298 C5304 1.368 . S
C5299 C5283 1.349 . S
C5299 H5291 0.950 . S
C5299 C5297 1.327 . S
C5300 C5288 1.349 . S
C5300 H5294 0.950 . S
C5300 C5301 1.327 . S
C5301 H5295 0.950 . S
C5301 C5300 1.327 . S
C5301 C5305 1.429 . S
C5302 C5285 1.574 . S
C5302 H5296 0.949 . S
C5302 C5306 1.368 . S
C5303 C5284 1.429 . S
C5303 C5297 1.429 . S
C5303 C5304 1.523 . S
C5304 C5285 1.368 . S
C5304 C5298 1.368 . S
C5304 C5303 1.523 . S
C5305 C5289 1.429 . S
C5305 C5301 1.429 . S
C5305 C5306 1.523 . S
C5306 C5290 1.368 . S
C5306 C5302 1.368 . S
C5306 C5305 1.523 . S
H5307 C5282 0.950 . S
H5308 C5284 0.950 . S
H5309 C5285 0.949 . S
H5310 C5287 0.950 . S
H5311 C5289 0.950 . S
C2433 C665 1.371 . S
C2438 C2130 1.362 . S
C2463 C381 1.473 . S
C2468 C2141 1.466 . S
C2493 C460 0.637 . S
C2498 C2170 0.640 . S
C2528 C2173 1.398 . S
C2523 C585 1.410 . S
C2553 C108 1.511 . S
C2558 C2211 1.466 . S
C2588 C2214 0.586 . S
C2583 C196 0.596 . S
C2618 C2241 1.297 . S
C2613 C313 1.307 . S
C2643 C49 1.535 . S
C2648 C2270 1.503 . S
C2678 C2121 1.381 1_655 S
C2673 C1457 1.393 . S
C2703 C1545 0.488 . S
C2708 C2133 0.515 . S
C2738 C2161 1.608 . S
C2733 C1721 1.621 . S
C2768 C2190 0.857 . S
C2763 C1113 0.853 . S
C2793 C1428 0.738 . S
C2798 C2194 0.737 . S
C2828 C2220 1.633 . S
C2823 C1516 1.652 . S
C2858 C2233 0.450 . S
C2853 C1692 0.414 . S
C2888 C2261 1.490 . S
C2883 C1085 1.502 . S
C2918 C2113 1.463 . S
C2913 C988 1.480 . S
C2943 C1817 1.726 . S
C2948 C2280 1.702 . S
C2978 C2311 1.334 . S
C2973 C2081 1.384 . S
C3008 C2330 0.662 . S
C3003 C1993 0.661 . S
C3033 C761 1.234 . S
C3038 C2253 1.217 . S
C3063 C821 1.302 . S
C3068 C2153 1.289 . S
C3093 C2053 1.561 . S
C3098 C2341 1.543 . S
C3128 C2370 0.618 . S
C3123 C1868 0.610 . S
C3158 C2131 1.358 . S
C3153 C372 1.376 . S
C3188 C2360 1.462 . S
C3183 C645 1.468 . S
C3213 C577 0.630 . S
C3218 C2171 0.634 . S
C3243 C497 1.406 . S
C3248 C2334 1.394 . S
C3278 C2210 1.470 . S
C3273 C57 1.507 . S
C3303 C293 0.590 . S
C3308 C2293 0.581 . S
C3338 C2240 1.324 . S
C3333 C205 1.301 . S
C3368 C2391 1.499 . S
C3363 C145 1.533 . S
C3398 C2120 1.377 . S
C3393 C909 1.388 . S
C3428 C2354 0.510 . S
C3423 C1956 0.481 . S
C3453 C724 1.616 . S
C3458 C2160 1.604 . S
C3483 C1780 0.847 . S
C3488 C2351 0.850 . S
C3513 C937 0.733 . S
C3518 C2193 0.728 . S
C3548 C2301 1.630 . S
C3543 C1985 1.647 . S
C3573 C753 0.406 . S
C3578 C2234 0.445 . S
C3603 C1809 1.498 . S
C3608 C2380 1.486 . S
C3633 C1173 1.480 . S
C3638 C2114 1.459 . S
C3663 C1105 1.722 . S
C3668 C2281 1.699 . S
C3693 C1633 1.382 . S
C3698 C2230 1.331 . S
C3723 C1553 0.654 . S
C3728 C2331 0.655 . S
C3758 C2374 1.214 . S
C3753 C1729 1.232 . S
C3783 C1340 1.300 . S
C3788 C2154 1.286 1_565 S
C3818 C2180 1.539 . S
C3813 C1604 1.556 . S
C3848 C2151 0.613 . S
C3843 C1252 0.603 . S
C3873 C489 1.378 . S
C3878 C2410 1.362 . S
C3908 C2361 1.466 . S
C3903 C557 1.473 . S
C3933 C636 0.637 . S
C3938 C2430 0.639 . S
C3963 C409 1.410 . S
C3968 C2333 1.398 . S
C3993 C284 1.511 . S
C3998 C2291 1.466 . S
C4028 C2294 0.586 . S
C4023 C20 0.596 . S
C4058 C2321 1.298 . S
C4053 C137 1.310 1_655 S
C4088 C2390 1.503 . S
C4083 C225 1.535 . S
C4118 C2401 1.381 . S
C4113 C1641 1.393 . S
C4143 C1193 0.488 . S
C4148 C2353 0.516 . S
C4178 C2421 1.608 . S
C4173 C1289 1.621 . S
C4208 C2350 0.857 . S
C4203 C1377 0.853 . S
C4238 C2274 0.737 . S
C4233 C1613 0.738 . S
C4263 C1164 1.651 . S
C4268 C2300 1.630 . S
C4298 C2313 0.450 . S
C4293 C1261 0.414 . S
C4323 C1349 1.502 . S
C4328 C2381 1.490 . S
C4358 C2393 1.463 . S
C4353 C1965 1.480 . S
C4383 C849 1.726 . S
C4388 C2200 1.702 . S
C4418 C2231 1.335 . S
C4413 C929 1.392 . S
C4448 C2250 0.662 . S
C4443 C1017 0.661 . S
C4478 C2373 1.217 . S
C4473 C1897 1.234 . S
C4503 C1789 1.302 . S
C4508 C2413 1.289 . S
C4538 C2181 1.541 . S
C4533 C900 1.553 . S
C4568 C2150 0.618 . S
C4563 C733 0.610 . S
C4593 C548 1.376 . S
C4598 C2411 1.358 . S
C4628 C2140 1.462 . S
C4623 C469 1.468 . S
C4653 C401 0.631 . S
C4658 C2431 0.634 . S
C4683 C673 1.407 . S
C4688 C2174 1.395 . S
C4713 C233 1.507 . S
C4718 C2290 1.462 1_556 S
C4748 C2213 0.581 . S
C4743 C117 0.590 . S
C4773 C29 1.301 . S
C4778 C2320 1.293 . S
C4803 C321 1.532 . S
C4808 C2271 1.499 . S
C4838 C2400 1.377 . S
C4833 C2044 1.388 . S
C4863 C997 0.481 . S
C4868 C2134 0.510 . S
C4898 C2420 1.605 1_655 S
C4893 C1877 1.616 . S
C4923 C812 0.848 . S
C4928 C2191 0.851 . S
C4953 C2073 0.733 . S
C4958 C2273 0.732 . S
C4988 C2221 1.629 . S
C4983 C1025 1.647 . S
C5013 C1905 0.406 . S
C5018 C2314 0.446 . S
C5048 C2260 1.486 . S
C5043 C841 1.498 . S
C5078 C2394 1.460 . S
C5073 C1525 1.477 . S
C5108 C2201 1.699 . S
C5103 C1369 1.722 . S
C5133 C1465 1.382 . S
C5138 C2310 1.331 . S
C5168 C2251 0.655 . S
C5163 C1201 0.654 . S
C5193 C1281 1.231 . S
C5198 C2254 1.214 . S
C5223 C1076 1.300 . S
C5228 C2414 1.286 . S
C5258 C2340 1.539 . S
C5253 C1437 1.557 . S
C5288 C2371 0.613 . S
C5283 C1701 0.603 . S
