# Generated by pormake.
# Topology gar, (4,6)-cn, num edge types: 1
# Building blocks:
#     Node 0, Type 0, BuildingBlock: QUQFOY_clean_sbu_1, # of connection points: 4
#     Node 1, Type 0, BuildingBlock: QUQFOY_clean_sbu_1, # of connection points: 4
#     Node 2, Type 0, BuildingBlock: QUQFOY_clean_sbu_1, # of connection points: 4
#     Node 3, Type 0, BuildingBlock: QUQFOY_clean_sbu_1, # of connection points: 4
#     Node 4, Type 0, BuildingBlock: QUQFOY_clean_sbu_1, # of connection points: 4
#     Node 5, Type 0, BuildingBlock: QUQFOY_clean_sbu_1, # of connection points: 4
#     Node 6, Type 0, BuildingBlock: QUQFOY_clean_sbu_1, # of connection points: 4
#     Node 7, Type 0, BuildingBlock: QUQFOY_clean_sbu_1, # of connection points: 4
#     Node 8, Type 0, BuildingBlock: QUQFOY_clean_sbu_1, # of connection points: 4
#     Node 9, Type 0, BuildingBlock: QUQFOY_clean_sbu_1, # of connection points: 4
#     Node 10, Type 0, BuildingBlock: QUQFOY_clean_sbu_1, # of connection points: 4
#     Node 11, Type 0, BuildingBlock: QUQFOY_clean_sbu_1, # of connection points: 4
#     Node 12, Type 0, BuildingBlock: QUQFOY_clean_sbu_1, # of connection points: 4
#     Node 13, Type 0, BuildingBlock: QUQFOY_clean_sbu_1, # of connection points: 4
#     Node 14, Type 0, BuildingBlock: QUQFOY_clean_sbu_1, # of connection points: 4
#     Node 15, Type 0, BuildingBlock: QUQFOY_clean_sbu_1, # of connection points: 4
#     Node 16, Type 0, BuildingBlock: QUQFOY_clean_sbu_1, # of connection points: 4
#     Node 17, Type 0, BuildingBlock: QUQFOY_clean_sbu_1, # of connection points: 4
#     Node 18, Type 0, BuildingBlock: QUQFOY_clean_sbu_1, # of connection points: 4
#     Node 19, Type 0, BuildingBlock: QUQFOY_clean_sbu_1, # of connection points: 4
#     Node 20, Type 0, BuildingBlock: QUQFOY_clean_sbu_1, # of connection points: 4
#     Node 21, Type 0, BuildingBlock: QUQFOY_clean_sbu_1, # of connection points: 4
#     Node 22, Type 0, BuildingBlock: QUQFOY_clean_sbu_1, # of connection points: 4
#     Node 23, Type 0, BuildingBlock: QUQFOY_clean_sbu_1, # of connection points: 4
#     Node 24, Type 1, BuildingBlock: BETFEN_clean_sbu_0, # of connection points: 6
#     Node 25, Type 1, BuildingBlock: BETFEN_clean_sbu_0, # of connection points: 6
#     Node 26, Type 1, BuildingBlock: BETFEN_clean_sbu_0, # of connection points: 6
#     Node 27, Type 1, BuildingBlock: BETFEN_clean_sbu_0, # of connection points: 6
#     Node 28, Type 1, BuildingBlock: BETFEN_clean_sbu_0, # of connection points: 6
#     Node 29, Type 1, BuildingBlock: BETFEN_clean_sbu_0, # of connection points: 6
#     Node 30, Type 1, BuildingBlock: BETFEN_clean_sbu_0, # of connection points: 6
#     Node 31, Type 1, BuildingBlock: BETFEN_clean_sbu_0, # of connection points: 6
#     Node 32, Type 1, BuildingBlock: BETFEN_clean_sbu_0, # of connection points: 6
#     Node 33, Type 1, BuildingBlock: BETFEN_clean_sbu_0, # of connection points: 6
#     Node 34, Type 1, BuildingBlock: BETFEN_clean_sbu_0, # of connection points: 6
#     Node 35, Type 1, BuildingBlock: BETFEN_clean_sbu_0, # of connection points: 6
#     Node 36, Type 1, BuildingBlock: BETFEN_clean_sbu_0, # of connection points: 6
#     Node 37, Type 1, BuildingBlock: BETFEN_clean_sbu_0, # of connection points: 6
#     Node 38, Type 1, BuildingBlock: BETFEN_clean_sbu_0, # of connection points: 6
#     Node 39, Type 1, BuildingBlock: BETFEN_clean_sbu_0, # of connection points: 6
#     Edge 40, Type (0, 1), BuildingBlock: MIFKUJ_clean_linker_0, # of connection points: 2
#     Edge 41, Type (0, 1), BuildingBlock: MIFKUJ_clean_linker_0, # of connection points: 2
#     Edge 42, Type (0, 1), BuildingBlock: MIFKUJ_clean_linker_0, # of connection points: 2
#     Edge 43, Type (0, 1), BuildingBlock: MIFKUJ_clean_linker_0, # of connection points: 2
#     Edge 44, Type (0, 1), BuildingBlock: MIFKUJ_clean_linker_0, # of connection points: 2
#     Edge 45, Type (0, 1), BuildingBlock: MIFKUJ_clean_linker_0, # of connection points: 2
#     Edge 46, Type (0, 1), BuildingBlock: MIFKUJ_clean_linker_0, # of connection points: 2
#     Edge 47, Type (0, 1), BuildingBlock: MIFKUJ_clean_linker_0, # of connection points: 2
#     Edge 48, Type (0, 1), BuildingBlock: MIFKUJ_clean_linker_0, # of connection points: 2
#     Edge 49, Type (0, 1), BuildingBlock: MIFKUJ_clean_linker_0, # of connection points: 2
#     Edge 50, Type (0, 1), BuildingBlock: MIFKUJ_clean_linker_0, # of connection points: 2
#     Edge 51, Type (0, 1), BuildingBlock: MIFKUJ_clean_linker_0, # of connection points: 2
#     Edge 52, Type (0, 1), BuildingBlock: MIFKUJ_clean_linker_0, # of connection points: 2
#     Edge 53, Type (0, 1), BuildingBlock: MIFKUJ_clean_linker_0, # of connection points: 2
#     Edge 54, Type (0, 1), BuildingBlock: MIFKUJ_clean_linker_0, # of connection points: 2
#     Edge 55, Type (0, 1), BuildingBlock: MIFKUJ_clean_linker_0, # of connection points: 2
#     Edge 56, Type (0, 1), BuildingBlock: MIFKUJ_clean_linker_0, # of connection points: 2
#     Edge 57, Type (0, 1), BuildingBlock: MIFKUJ_clean_linker_0, # of connection points: 2
#     Edge 58, Type (0, 1), BuildingBlock: MIFKUJ_clean_linker_0, # of connection points: 2
#     Edge 59, Type (0, 1), BuildingBlock: MIFKUJ_clean_linker_0, # of connection points: 2
#     Edge 60, Type (0, 1), BuildingBlock: MIFKUJ_clean_linker_0, # of connection points: 2
#     Edge 61, Type (0, 1), BuildingBlock: MIFKUJ_clean_linker_0, # of connection points: 2
#     Edge 62, Type (0, 1), BuildingBlock: MIFKUJ_clean_linker_0, # of connection points: 2
#     Edge 63, Type (0, 1), BuildingBlock: MIFKUJ_clean_linker_0, # of connection points: 2
#     Edge 64, Type (0, 1), BuildingBlock: MIFKUJ_clean_linker_0, # of connection points: 2
#     Edge 65, Type (0, 1), BuildingBlock: MIFKUJ_clean_linker_0, # of connection points: 2
#     Edge 66, Type (0, 1), BuildingBlock: MIFKUJ_clean_linker_0, # of connection points: 2
#     Edge 67, Type (0, 1), BuildingBlock: MIFKUJ_clean_linker_0, # of connection points: 2
#     Edge 68, Type (0, 1), BuildingBlock: MIFKUJ_clean_linker_0, # of connection points: 2
#     Edge 69, Type (0, 1), BuildingBlock: MIFKUJ_clean_linker_0, # of connection points: 2
#     Edge 70, Type (0, 1), BuildingBlock: MIFKUJ_clean_linker_0, # of connection points: 2
#     Edge 71, Type (0, 1), BuildingBlock: MIFKUJ_clean_linker_0, # of connection points: 2
#     Edge 72, Type (0, 1), BuildingBlock: MIFKUJ_clean_linker_0, # of connection points: 2
#     Edge 73, Type (0, 1), BuildingBlock: MIFKUJ_clean_linker_0, # of connection points: 2
#     Edge 74, Type (0, 1), BuildingBlock: MIFKUJ_clean_linker_0, # of connection points: 2
#     Edge 75, Type (0, 1), BuildingBlock: MIFKUJ_clean_linker_0, # of connection points: 2
#     Edge 76, Type (0, 1), BuildingBlock: MIFKUJ_clean_linker_0, # of connection points: 2
#     Edge 77, Type (0, 1), BuildingBlock: MIFKUJ_clean_linker_0, # of connection points: 2
#     Edge 78, Type (0, 1), BuildingBlock: MIFKUJ_clean_linker_0, # of connection points: 2
#     Edge 79, Type (0, 1), BuildingBlock: MIFKUJ_clean_linker_0, # of connection points: 2
#     Edge 80, Type (0, 1), BuildingBlock: MIFKUJ_clean_linker_0, # of connection points: 2
#     Edge 81, Type (0, 1), BuildingBlock: MIFKUJ_clean_linker_0, # of connection points: 2
#     Edge 82, Type (0, 1), BuildingBlock: MIFKUJ_clean_linker_0, # of connection points: 2
#     Edge 83, Type (0, 1), BuildingBlock: MIFKUJ_clean_linker_0, # of connection points: 2
#     Edge 84, Type (0, 1), BuildingBlock: MIFKUJ_clean_linker_0, # of connection points: 2
#     Edge 85, Type (0, 1), BuildingBlock: MIFKUJ_clean_linker_0, # of connection points: 2
#     Edge 86, Type (0, 1), BuildingBlock: MIFKUJ_clean_linker_0, # of connection points: 2
#     Edge 87, Type (0, 1), BuildingBlock: MIFKUJ_clean_linker_0, # of connection points: 2
#     Edge 88, Type (0, 1), BuildingBlock: MIFKUJ_clean_linker_0, # of connection points: 2
#     Edge 89, Type (0, 1), BuildingBlock: MIFKUJ_clean_linker_0, # of connection points: 2
#     Edge 90, Type (0, 1), BuildingBlock: MIFKUJ_clean_linker_0, # of connection points: 2
#     Edge 91, Type (0, 1), BuildingBlock: MIFKUJ_clean_linker_0, # of connection points: 2
#     Edge 92, Type (0, 1), BuildingBlock: MIFKUJ_clean_linker_0, # of connection points: 2
#     Edge 93, Type (0, 1), BuildingBlock: MIFKUJ_clean_linker_0, # of connection points: 2
#     Edge 94, Type (0, 1), BuildingBlock: MIFKUJ_clean_linker_0, # of connection points: 2
#     Edge 95, Type (0, 1), BuildingBlock: MIFKUJ_clean_linker_0, # of connection points: 2
#     Edge 96, Type (0, 1), BuildingBlock: MIFKUJ_clean_linker_0, # of connection points: 2
#     Edge 97, Type (0, 1), BuildingBlock: MIFKUJ_clean_linker_0, # of connection points: 2
#     Edge 98, Type (0, 1), BuildingBlock: MIFKUJ_clean_linker_0, # of connection points: 2
#     Edge 99, Type (0, 1), BuildingBlock: MIFKUJ_clean_linker_0, # of connection points: 2
#     Edge 100, Type (0, 1), BuildingBlock: MIFKUJ_clean_linker_0, # of connection points: 2
#     Edge 101, Type (0, 1), BuildingBlock: MIFKUJ_clean_linker_0, # of connection points: 2
#     Edge 102, Type (0, 1), BuildingBlock: MIFKUJ_clean_linker_0, # of connection points: 2
#     Edge 103, Type (0, 1), BuildingBlock: MIFKUJ_clean_linker_0, # of connection points: 2
#     Edge 104, Type (0, 1), BuildingBlock: MIFKUJ_clean_linker_0, # of connection points: 2
#     Edge 105, Type (0, 1), BuildingBlock: MIFKUJ_clean_linker_0, # of connection points: 2
#     Edge 106, Type (0, 1), BuildingBlock: MIFKUJ_clean_linker_0, # of connection points: 2
#     Edge 107, Type (0, 1), BuildingBlock: MIFKUJ_clean_linker_0, # of connection points: 2
#     Edge 108, Type (0, 1), BuildingBlock: MIFKUJ_clean_linker_0, # of connection points: 2
#     Edge 109, Type (0, 1), BuildingBlock: MIFKUJ_clean_linker_0, # of connection points: 2
#     Edge 110, Type (0, 1), BuildingBlock: MIFKUJ_clean_linker_0, # of connection points: 2
#     Edge 111, Type (0, 1), BuildingBlock: MIFKUJ_clean_linker_0, # of connection points: 2
#     Edge 112, Type (0, 1), BuildingBlock: MIFKUJ_clean_linker_0, # of connection points: 2
#     Edge 113, Type (0, 1), BuildingBlock: MIFKUJ_clean_linker_0, # of connection points: 2
#     Edge 114, Type (0, 1), BuildingBlock: MIFKUJ_clean_linker_0, # of connection points: 2
#     Edge 115, Type (0, 1), BuildingBlock: MIFKUJ_clean_linker_0, # of connection points: 2
#     Edge 116, Type (0, 1), BuildingBlock: MIFKUJ_clean_linker_0, # of connection points: 2
#     Edge 117, Type (0, 1), BuildingBlock: MIFKUJ_clean_linker_0, # of connection points: 2
#     Edge 118, Type (0, 1), BuildingBlock: MIFKUJ_clean_linker_0, # of connection points: 2
#     Edge 119, Type (0, 1), BuildingBlock: MIFKUJ_clean_linker_0, # of connection points: 2
#     Edge 120, Type (0, 1), BuildingBlock: MIFKUJ_clean_linker_0, # of connection points: 2
#     Edge 121, Type (0, 1), BuildingBlock: MIFKUJ_clean_linker_0, # of connection points: 2
#     Edge 122, Type (0, 1), BuildingBlock: MIFKUJ_clean_linker_0, # of connection points: 2
#     Edge 123, Type (0, 1), BuildingBlock: MIFKUJ_clean_linker_0, # of connection points: 2
#     Edge 124, Type (0, 1), BuildingBlock: MIFKUJ_clean_linker_0, # of connection points: 2
#     Edge 125, Type (0, 1), BuildingBlock: MIFKUJ_clean_linker_0, # of connection points: 2
#     Edge 126, Type (0, 1), BuildingBlock: MIFKUJ_clean_linker_0, # of connection points: 2
#     Edge 127, Type (0, 1), BuildingBlock: MIFKUJ_clean_linker_0, # of connection points: 2
#     Edge 128, Type (0, 1), BuildingBlock: MIFKUJ_clean_linker_0, # of connection points: 2
#     Edge 129, Type (0, 1), BuildingBlock: MIFKUJ_clean_linker_0, # of connection points: 2
#     Edge 130, Type (0, 1), BuildingBlock: MIFKUJ_clean_linker_0, # of connection points: 2
#     Edge 131, Type (0, 1), BuildingBlock: MIFKUJ_clean_linker_0, # of connection points: 2
#     Edge 132, Type (0, 1), BuildingBlock: MIFKUJ_clean_linker_0, # of connection points: 2
#     Edge 133, Type (0, 1), BuildingBlock: MIFKUJ_clean_linker_0, # of connection points: 2
#     Edge 134, Type (0, 1), BuildingBlock: MIFKUJ_clean_linker_0, # of connection points: 2
#     Edge 135, Type (0, 1), BuildingBlock: MIFKUJ_clean_linker_0, # of connection points: 2
# Relax obj value: 0.179
# Max RMSD: 0.295
# Mean RMSD: 0.184
data_MOF--net-gar--node1-QUQFOY_clean_sbu_1--node2-BETFEN_clean_sbu_0--edge1-MIFKUJ_clean_linker_0
_symmetry_space_group_name_H-M    P1
_symmetry_Int_Tables_number       1
_symmetry_cell_setting            triclinic
loop_
_symmetry_equiv_pos_as_xyz
'x, y, z'
_cell_length_a     81.261317
_cell_length_b     73.920156
_cell_length_c     74.324542
_cell_angle_alpha  94.937291
_cell_angle_beta   98.372319
_cell_angle_gamma 104.3698
loop_
_atom_site_label
_atom_site_type_symbol
_atom_site_fract_x
_atom_site_fract_y
_atom_site_fract_z
_atom_type_partial_charge
O0 O 0.02197 0.26877 0.41985 0.0
Cd1 Cd 0.02353 0.28899 0.4016 0.0
Cd2 Cd 0.01159 0.30794 0.43399 0.0
O3 O 0.0169 0.28359 0.44505 0.0
O4 O 0.03305 0.27908 0.38029 0.0
O5 O 0.04734 0.30468 0.39904 0.0
C6 C 0.04669 0.29291 0.3849 0.0
C7 C 0.01807 0.33993 0.44876 0.0
C8 C 0.01986 0.26911 0.43656 0.0
C9 C 0.98865 0.29823 0.39589 0.0
O10 O 0.99036 0.30254 0.41313 0.0
O11 O 1.00078 0.29403 0.38878 0.0
O12 O 1.00577 0.32669 0.45237 0.0
O13 O 0.02773 0.33488 0.438 0.0
O14 O 0.0532 0.79503 0.64835 0.0
Cd15 Cd 0.05634 0.81884 0.66664 0.0
Cd16 Cd 0.07151 0.83536 0.63804 0.0
O17 O 0.06174 0.80762 0.62413 0.0
O18 O 0.04166 0.80968 0.68529 0.0
O19 O 0.03835 0.83303 0.66967 0.0
C20 C 0.03366 0.82231 0.68184 0.0
C21 C 0.06965 0.86414 0.62675 0.0
C22 C 0.05601 0.79315 0.63197 0.0
C23 C 0.09442 0.83454 0.67401 0.0
O24 O 0.09315 0.83794 0.65746 0.0
O25 O 0.08103 0.82827 0.68091 0.0
O26 O 0.0797 0.85462 0.62117 0.0
O27 O 0.05979 0.85676 0.63784 0.0
O28 O 0.54775 0.79609 0.90989 0.0
Cd29 Cd 0.53146 0.79383 0.92952 0.0
Cd30 Cd 0.51168 0.80593 0.89914 0.0
O31 O 0.53089 0.80061 0.88551 0.0
O32 O 0.54067 0.7769 0.94668 0.0
O33 O 0.5149 0.76754 0.92963 0.0
C34 C 0.5268 0.76353 0.94089 0.0
C35 C 0.48315 0.79808 0.88344 0.0
C36 C 0.54512 0.79801 0.8929 0.0
C37 C 0.52453 0.83327 0.93493 0.0
O38 O 0.51801 0.82998 0.91795 0.0
O39 O 0.52966 0.82038 0.94295 0.0
O40 O 0.49485 0.81158 0.8794 0.0
O41 O 0.48757 0.78845 0.8961 0.0
O42 O 0.55941 0.28539 0.14914 0.0
Cd43 Cd 0.56092 0.31009 0.1657 0.0
Cd44 Cd 0.57384 0.32502 0.13641 0.0
O45 O 0.56291 0.29721 0.12316 0.0
O46 O 0.54711 0.30312 0.18567 0.0
O47 O 0.54052 0.32125 0.16515 0.0
C48 C 0.53706 0.31295 0.17929 0.0
C49 C 0.57108 0.35378 0.12571 0.0
C50 C 0.56 0.28302 0.13209 0.0
C51 C 0.59846 0.32639 0.1713 0.0
O52 O 0.59645 0.32678 0.15405 0.0
O53 O 0.58551 0.32295 0.17942 0.0
O54 O 0.57945 0.34347 0.11801 0.0
O55 O 0.56348 0.34743 0.13888 0.0
O56 O 0.0551 0.80009 0.14682 0.0
Cd57 Cd 0.05787 0.82399 0.16408 0.0
Cd58 Cd 0.07237 0.83966 0.13541 0.0
O59 O 0.06328 0.81192 0.1222 0.0
O60 O 0.04391 0.81423 0.18299 0.0
O61 O 0.03646 0.8333 0.16391 0.0
C62 C 0.03282 0.82283 0.17659 0.0
C63 C 0.06724 0.86683 0.12273 0.0
C64 C 0.05766 0.79776 0.13045 0.0
C65 C 0.09603 0.83923 0.17115 0.0
O66 O 0.09453 0.84215 0.15443 0.0
O67 O 0.08276 0.83398 0.17857 0.0
O68 O 0.07857 0.85882 0.11776 0.0
O69 O 0.05844 0.85922 0.13459 0.0
O70 O 0.54902 0.80572 0.4176 0.0
Cd71 Cd 0.53112 0.80102 0.43492 0.0
Cd72 Cd 0.51219 0.81385 0.40165 0.0
O73 O 0.53413 0.81021 0.39156 0.0
O74 O 0.54112 0.78817 0.45537 0.0
O75 O 0.51756 0.7738 0.43565 0.0
C76 C 0.52898 0.77305 0.4494 0.0
C77 C 0.48449 0.81001 0.3834 0.0
C78 C 0.54818 0.8088 0.40093 0.0
C79 C 0.52357 0.83918 0.43886 0.0
O80 O 0.51777 0.83635 0.42174 0.0
O81 O 0.52809 0.82632 0.44723 0.0
O82 O 0.49789 0.82264 0.38118 0.0
O83 O 0.48693 0.79857 0.39509 0.0
O84 O 0.56246 0.29495 0.64526 0.0
Cd85 Cd 0.56392 0.31775 0.66341 0.0
Cd86 Cd 0.57744 0.33418 0.63501 0.0
O87 O 0.56726 0.30733 0.61992 0.0
O88 O 0.54797 0.30479 0.67928 0.0
O89 O 0.54298 0.32792 0.6642 0.0
C90 C 0.53778 0.31494 0.67423 0.0
C91 C 0.57204 0.36208 0.62395 0.0
C92 C 0.56339 0.29298 0.62838 0.0
C93 C 0.60168 0.33216 0.67074 0.0
O94 O 0.59975 0.33501 0.65392 0.0
O95 O 0.5886 0.32775 0.67867 0.0
O96 O 0.58314 0.35426 0.61808 0.0
O97 O 0.56388 0.35407 0.63608 0.0
O98 O 0.02672 0.27565 0.92275 0.0
Cd99 Cd 0.02621 0.29671 0.9056 0.0
Cd100 Cd 0.01547 0.31326 0.93562 0.0
O101 O 0.02015 0.28957 0.94724 0.0
O102 O 0.04066 0.29262 0.88636 0.0
O103 O 0.04925 0.31652 0.90851 0.0
C104 C 0.05252 0.30721 0.89455 0.0
C105 C 0.02704 0.34443 0.94967 0.0
C106 C 0.02431 0.27576 0.93933 0.0
C107 C 0.99051 0.30546 0.89987 0.0
O108 O 0.99304 0.3103 0.9171 0.0
O109 O 1.00209 0.30011 0.89248 0.0
O110 O 0.0153 0.33281 0.95601 0.0
O111 O 0.03309 0.33813 0.936 0.0
O112 O 0.45246 0.14282 0.28379 0.0
Cd113 Cd 0.43983 0.1474 0.30498 0.0
Cd114 Cd 0.46706 0.13698 0.31923 0.0
O115 O 0.47881 0.14573 0.29798 0.0
O116 O 0.42029 0.15375 0.29006 0.0
O117 O 0.43615 0.17224 0.31467 0.0
C118 C 0.42347 0.16891 0.30117 0.0
C119 C 0.47914 0.13868 0.34939 0.0
C120 C 0.46799 0.14284 0.28319 0.0
C121 C 0.43337 0.10895 0.31102 0.0
O122 O 0.4494 0.11181 0.31126 0.0
O123 O 0.42682 0.12275 0.31255 0.0
O124 O 0.48387 0.12924 0.33664 0.0
O125 O 0.46878 0.14891 0.34491 0.0
O126 O 0.29499 0.20737 0.5509 0.0
Cd127 Cd 0.29301 0.18841 0.52838 0.0
Cd128 Cd 0.28002 0.21816 0.51279 0.0
O129 O 0.29009 0.23269 0.53963 0.0
O130 O 0.30576 0.17033 0.53893 0.0
O131 O 0.31542 0.1886 0.51882 0.0
C132 C 0.31785 0.17654 0.52982 0.0
C133 C 0.28388 0.23092 0.48416 0.0
C134 C 0.29391 0.22423 0.55338 0.0
C135 C 0.25473 0.17986 0.51616 0.0
O136 O 0.25742 0.19709 0.51336 0.0
O137 O 0.26737 0.17256 0.51966 0.0
O138 O 0.27346 0.23536 0.49424 0.0
O139 O 0.29266 0.21975 0.49049 0.0
O140 O 0.17082 0.07231 0.8138 0.0
Cd141 Cd 0.18549 0.07093 0.838 0.0
Cd142 Cd 0.15896 0.07599 0.8456 0.0
O143 O 0.14615 0.05996 0.82198 0.0
O144 O 0.20292 0.06169 0.82748 0.0
O145 O 0.18494 0.04476 0.84331 0.0
C146 C 0.19607 0.04566 0.83242 0.0
C147 C 0.14726 0.07408 0.87111 0.0
C148 C 0.1548 0.0647 0.80954 0.0
C149 C 0.1895 0.10818 0.84653 0.0
O150 O 0.17326 0.10202 0.84239 0.0
O151 O 0.19845 0.09693 0.85101 0.0
O152 O 0.14149 0.08244 0.85805 0.0
O153 O 0.15956 0.06616 0.8694 0.0
O154 O 0.29659 0.92306 0.06698 0.0
Cd155 Cd 0.29397 0.94239 0.04914 0.0
Cd156 Cd 0.30363 0.90975 0.02664 0.0
O157 O 0.29894 0.8972 0.05084 0.0
O158 O 0.28602 0.96222 0.06368 0.0
O159 O 0.2698 0.94443 0.03907 0.0
C160 C 0.27154 0.95739 0.05253 0.0
C161 C 0.29924 0.89497 0.99524 0.0
C162 C 0.29815 0.90629 0.06611 0.0
C163 C 0.32917 0.94947 0.03933 0.0
O164 O 0.32534 0.93214 0.03294 0.0
O165 O 0.31779 0.95711 0.04419 0.0
O166 O 0.31126 0.89302 0.00772 0.0
O167 O 0.28881 0.90409 1.00064 0.0
O168 O 0.29884 0.41824 0.07335 0.0
Cd169 Cd 0.30093 0.43519 0.05198 0.0
Cd170 Cd 0.30872 0.40419 0.03491 0.0
O171 O 0.30147 0.39227 0.0583 0.0
O172 O 0.28838 0.45534 0.05658 0.0
O173 O 0.27826 0.43187 0.0342 0.0
C174 C 0.2762 0.44665 0.04324 0.0
C175 C 0.29856 0.39024 0.00415 0.0
C176 C 0.2989 0.40094 0.07283 0.0
C177 C 0.33756 0.44001 0.04271 0.0
O178 O 0.3332 0.42223 0.03839 0.0
O179 O 0.32639 0.44828 0.04734 0.0
O180 O 0.30819 0.38326 0.01541 0.0
O181 O 0.29364 0.40446 0.01058 0.0
O182 O 0.78771 0.20618 0.0483 0.0
Cd183 Cd 0.78381 0.18745 0.02434 0.0
Cd184 Cd 0.76796 0.21323 0.00936 0.0
O185 O 0.77585 0.2274 0.03635 0.0
O186 O 0.79865 0.16955 0.02919 0.0
O187 O 0.80248 0.18892 0.00834 0.0
C188 C 0.80717 0.17593 0.01671 0.0
C189 C 0.77137 0.22504 0.98126 0.0
C190 C 0.78313 0.22144 0.05023 0.0
C191 C 0.74508 0.17515 0.01056 0.0
O192 O 0.74609 0.19168 0.00662 0.0
O193 O 0.75851 0.1704 0.01724 0.0
O194 O 0.76122 0.23007 0.99137 0.0
O195 O 0.78077 0.21456 0.98786 0.0
O196 O 0.13984 0.48955 0.24032 0.0
Cd197 Cd 0.1537 0.48704 0.26503 0.0
Cd198 Cd 0.12713 0.49413 0.27269 0.0
O199 O 0.11401 0.48158 0.24754 0.0
O200 O 0.17287 0.4777 0.25806 0.0
O201 O 0.15398 0.46223 0.27379 0.0
C202 C 0.16749 0.46326 0.26625 0.0
C203 C 0.11935 0.49473 0.30083 0.0
C204 C 0.12358 0.48603 0.23568 0.0
C205 C 0.15784 0.52494 0.27801 0.0
O206 O 0.14198 0.52027 0.27124 0.0
O207 O 0.16579 0.51242 0.28054 0.0
O208 O 0.11091 0.50055 0.28747 0.0
O209 O 0.13066 0.48589 0.29749 0.0
O210 O 0.80283 0.92032 0.57897 0.0
Cd211 Cd 0.80349 0.93616 0.55673 0.0
Cd212 Cd 0.81111 0.90567 0.54116 0.0
O213 O 0.80258 0.89325 0.5639 0.0
O214 O 0.78915 0.95421 0.5619 0.0
O215 O 0.78142 0.9322 0.53802 0.0
C216 C 0.7779 0.94566 0.54771 0.0
C217 C 0.80032 0.89329 0.51019 0.0
C218 C 0.80144 0.90273 0.57865 0.0
C219 C 0.83955 0.94187 0.5474 0.0
O220 O 0.83584 0.92393 0.54502 0.0
O221 O 0.82798 0.95006 0.55077 0.0
O222 O 0.80977 0.88537 0.52065 0.0
O223 O 0.79608 0.9076 0.51748 0.0
O224 O 0.90837 0.04289 0.18919 0.0
Cd225 Cd 0.89392 0.04296 0.20979 0.0
Cd226 Cd 0.91959 0.03603 0.22795 0.0
O227 O 0.93229 0.04862 0.20946 0.0
O228 O 0.87912 0.06053 0.20705 0.0
O229 O 0.90279 0.0658 0.22802 0.0
C230 C 0.88981 0.07131 0.22065 0.0
C231 C 0.93092 0.04254 0.2584 0.0
C232 C 0.92473 0.04737 0.19312 0.0
C233 C 0.88988 0.00537 0.22108 0.0
O234 O 0.90582 0.00907 0.22068 0.0
O235 O 0.88208 0.01819 0.21918 0.0
O236 O 0.93761 0.03338 0.24725 0.0
O237 O 0.91809 0.0488 0.25204 0.0
O238 O 0.28651 0.70402 0.54421 0.0
Cd239 Cd 0.28305 0.68475 0.52079 0.0
Cd240 Cd 0.2684 0.71226 0.50559 0.0
O241 O 0.27723 0.72688 0.5323 0.0
O242 O 0.29804 0.66738 0.52778 0.0
O243 O 0.30202 0.68461 0.50533 0.0
C244 C 0.30685 0.67265 0.51517 0.0
C245 C 0.27039 0.72422 0.47709 0.0
C246 C 0.28316 0.71998 0.54628 0.0
C247 C 0.24445 0.67424 0.50801 0.0
O248 O 0.24644 0.69102 0.50433 0.0
O249 O 0.25751 0.66825 0.5136 0.0
O250 O 0.26069 0.72903 0.48787 0.0
O251 O 0.28004 0.71373 0.48307 0.0
O252 O 0.41033 0.54615 0.6931 0.0
Cd253 Cd 0.39492 0.54416 0.71271 0.0
Cd254 Cd 0.42179 0.54171 0.73411 0.0
O255 O 0.43392 0.55192 0.71404 0.0
O256 O 0.37836 0.55991 0.71068 0.0
O257 O 0.40216 0.56645 0.73173 0.0
C258 C 0.38845 0.57079 0.72461 0.0
C259 C 0.43399 0.54936 0.76425 0.0
C260 C 0.42665 0.5505 0.69753 0.0
C261 C 0.3936 0.50756 0.72561 0.0
O262 O 0.40967 0.51421 0.73016 0.0
O263 O 0.38417 0.51775 0.7194 0.0
O264 O 0.44058 0.54019 0.75305 0.0
O265 O 0.42132 0.55591 0.75801 0.0
O266 O 0.63981 0.98942 0.73384 0.0
Cd267 Cd 0.65185 0.98799 0.75969 0.0
Cd268 Cd 0.62529 0.99488 0.76544 0.0
O269 O 0.61397 0.98017 0.74062 0.0
O270 O 0.67217 0.97923 0.75656 0.0
O271 O 0.6507 0.96362 0.7695 0.0
C272 C 0.66551 0.96508 0.76454 0.0
C273 C 0.61937 0.99237 0.79406 0.0
C274 C 0.62357 0.98466 0.7288 0.0
C275 C 0.65485 0.02605 0.77186 0.0
O276 O 0.63927 0.02157 0.7639 0.0
O277 O 0.66211 0.01324 0.7757 0.0
O278 O 0.60908 0.99758 0.78183 0.0
O279 O 0.6318 0.98611 0.78922 0.0
O280 O 0.79367 0.71328 0.05711 0.0
Cd281 Cd 0.79208 0.69366 0.0356 0.0
Cd282 Cd 0.77761 0.72236 0.01893 0.0
O283 O 0.7865 0.73745 0.04569 0.0
O284 O 0.80508 0.67752 0.04906 0.0
O285 O 0.81423 0.69222 0.02645 0.0
C286 C 0.81701 0.68223 0.03941 0.0
C287 C 0.78203 0.73537 0.99075 0.0
C288 C 0.79141 0.72961 0.05946 0.0
C289 C 0.75386 0.68295 0.02186 0.0
O290 O 0.75569 0.69986 0.01826 0.0
O291 O 0.76692 0.67693 0.02732 0.0
O292 O 0.77073 0.73895 1.00007 0.0
O293 O 0.79132 0.72493 0.99763 0.0
O294 O 0.94804 0.64441 0.7908 0.0
Cd295 Cd 0.93557 0.64916 0.81208 0.0
Cd296 Cd 0.96389 0.63943 0.82691 0.0
O297 O 0.97463 0.64802 0.80474 0.0
O298 O 0.91593 0.65564 0.7973 0.0
O299 O 0.93252 0.67463 0.82111 0.0
C300 C 0.91974 0.67138 0.8077 0.0
C301 C 0.97759 0.64149 0.85687 0.0
C302 C 0.96365 0.645 0.79004 0.0
C303 C 0.93018 0.61103 0.81972 0.0
O304 O 0.94619 0.61413 0.81969 0.0
O305 O 0.92307 0.62447 0.82032 0.0
O306 O 0.98238 0.63295 0.84354 0.0
O307 O 0.96606 0.65051 0.85307 0.0
O308 O 0.799 0.42102 0.57096 0.0
Cd309 Cd 0.7955 0.43918 0.55225 0.0
Cd310 Cd 0.80685 0.40772 0.53167 0.0
O311 O 0.80286 0.39541 0.55601 0.0
O312 O 0.78795 0.459 0.56695 0.0
O313 O 0.77115 0.44088 0.54278 0.0
C314 C 0.7733 0.45402 0.55617 0.0
C315 C 0.80216 0.39309 0.50037 0.0
C316 C 0.80152 0.4047 0.57091 0.0
C317 C 0.83071 0.448 0.54303 0.0
O318 O 0.82802 0.43057 0.53764 0.0
O319 O 0.81858 0.45489 0.54686 0.0
O320 O 0.81445 0.3913 0.51261 0.0
O321 O 0.79163 0.40193 0.50603 0.0
O322 O 0.67709 0.57427 0.31767 0.0
Cd323 Cd 0.69163 0.57229 0.34158 0.0
Cd324 Cd 0.66525 0.5762 0.35119 0.0
O325 O 0.654 0.55913 0.32722 0.0
O326 O 0.70729 0.55856 0.33307 0.0
O327 O 0.68702 0.54658 0.34927 0.0
C328 C 0.69842 0.54428 0.33945 0.0
C329 C 0.65092 0.57326 0.37526 0.0
C330 C 0.66147 0.56491 0.31423 0.0
C331 C 0.69502 0.60954 0.35277 0.0
O332 O 0.67875 0.6032 0.349 0.0
O333 O 0.70431 0.59814 0.35519 0.0
O334 O 0.64513 0.57988 0.36091 0.0
O335 O 0.66498 0.56797 0.37586 0.0
Pr336 Pr 0.02465 0.06934 0.0351 0.0
Pr337 Pr 0.06629 0.0836 0.04844 0.0
C338 C 0.99087 0.06874 0.02979 0.0
C339 C 0.979 0.08029 0.02319 0.0
C340 C 0.96709 0.07402 0.00673 0.0
C341 C 0.95446 0.08345 1.00149 0.0
C342 C 0.95353 0.09952 0.01247 0.0
C343 C 0.9659 0.10632 0.02848 0.0
C344 C 0.97841 0.09678 0.03385 0.0
C345 C 0.04509 0.06624 0.00927 0.0
C346 C 0.04696 0.11494 0.03251 0.0
C347 C 0.09982 0.08304 0.05291 0.0
C348 C 0.11106 0.07049 0.05859 0.0
C349 C 0.12447 0.07656 0.07382 0.0
C350 C 0.13638 0.06596 0.07807 0.0
C351 C 0.13516 0.04892 0.06725 0.0
C352 C 0.1213 0.04243 0.0525 0.0
C353 C 0.10944 0.05306 0.04819 0.0
C354 C 0.046 0.0873 0.07431 0.0
C355 C 0.044 0.03789 0.0502 0.0
O356 O 1.00131 0.07484 0.04553 0.0
O357 O 0.99781 0.06053 0.01766 0.0
O358 O 0.04765 0.07962 0.0217 0.0
O359 O 0.03056 0.05361 0.0088 0.0
O360 O 0.06214 0.11094 0.03594 0.0
O361 O 0.03231 0.10246 0.03369 0.0
O362 O 0.08921 0.07795 0.03718 0.0
O363 O 0.09332 0.0911 0.06556 0.0
O364 O 0.04317 0.07365 0.06205 0.0
O365 O 0.06104 0.09914 0.07515 0.0
O366 O 0.02882 0.04193 0.04729 0.0
O367 O 0.05855 0.05046 0.04902 0.0
H368 H 0.96717 0.06143 0.99817 0.0
H369 H 0.94515 0.07794 0.98903 0.0
H370 H 0.96541 0.11856 0.03731 0.0
H371 H 0.98729 0.10205 0.04663 0.0
H372 H 0.12605 0.08982 0.08219 0.0
H373 H 0.14675 0.07127 0.08967 0.0
H374 H 0.12003 0.02947 0.04378 0.0
H375 H 0.09934 0.04787 0.03633 0.0
Pr376 Pr 0.29323 0.8398 0.28639 0.0
Pr377 Pr 0.28394 0.79786 0.262 0.0
C378 C 0.31128 0.87336 0.30351 0.0
C379 C 0.31715 0.89069 0.2954 0.0
C380 C 0.31264 0.90701 0.30138 0.0
C381 C 0.31832 0.92352 0.29371 0.0
C382 C 0.32861 0.92385 0.28005 0.0
C383 C 0.33213 0.9072 0.27323 0.0
C384 C 0.32641 0.89073 0.28081 0.0
C385 C 0.25943 0.83072 0.26688 0.0
C386 C 0.2966 0.83559 0.24118 0.0
C387 C 0.26554 0.76444 0.24465 0.0
C388 C 0.25969 0.74638 0.25169 0.0
C389 C 0.2691 0.73287 0.25079 0.0
C390 C 0.26357 0.71589 0.25768 0.0
C391 C 0.2486 0.71226 0.26556 0.0
C392 C 0.23959 0.726 0.26717 0.0
C393 C 0.24501 0.74289 0.26018 0.0
C394 C 0.3176 0.80776 0.28268 0.0
C395 C 0.27957 0.8015 0.30647 0.0
O396 O 0.31856 0.85988 0.29958 0.0
O397 O 0.29458 0.86746 0.30285 0.0
O398 O 0.26998 0.82067 0.26681 0.0
O399 O 0.26645 0.84609 0.27809 0.0
O400 O 0.28996 0.81715 0.23943 0.0
O401 O 0.30016 0.84652 0.25721 0.0
O402 O 0.25851 0.77762 0.25005 0.0
O403 O 0.28215 0.77057 0.24457 0.0
O404 O 0.30656 0.81706 0.28155 0.0
O405 O 0.31124 0.79192 0.27197 0.0
O406 O 0.28597 0.82006 0.3088 0.0
O407 O 0.27691 0.79082 0.29053 0.0
H408 H 0.30507 0.90708 0.31222 0.0
H409 H 0.31551 0.93625 0.29923 0.0
H410 H 0.33989 0.90712 0.26255 0.0
H411 H 0.32956 0.87815 0.27544 0.0
H412 H 0.28058 0.7353 0.24456 0.0
H413 H 0.27065 0.70534 0.25636 0.0
H414 H 0.22786 0.72329 0.27298 0.0
H415 H 0.23752 0.75306 0.26123 0.0
Pr416 Pr 0.56918 0.0679 0.54089 0.0
Pr417 Pr 0.52994 0.06225 0.54246 0.0
C418 C 0.60175 0.06549 0.53961 0.0
C419 C 0.61232 0.05214 0.53647 0.0
C420 C 0.62501 0.05657 0.52542 0.0
C421 C 0.63616 0.04512 0.52325 0.0
C422 C 0.63492 0.02884 0.53208 0.0
C423 C 0.62172 0.02405 0.54263 0.0
C424 C 0.61057 0.03557 0.54482 0.0
C425 C 0.54997 0.07861 0.51179 0.0
C426 C 0.54128 0.02578 0.52711 0.0
C427 C 0.4976 0.06626 0.54138 0.0
C428 C 0.48804 0.07989 0.54731 0.0
C429 C 0.47792 0.07612 0.56106 0.0
C430 C 0.46726 0.08759 0.56532 0.0
C431 C 0.46632 0.10311 0.55584 0.0
C432 C 0.47707 0.10735 0.54266 0.0
C433 C 0.48777 0.09591 0.53845 0.0
C434 C 0.54882 0.0525 0.57245 0.0
C435 C 0.55806 0.10439 0.55696 0.0
O436 O 0.59534 0.06582 0.55475 0.0
O437 O 0.59137 0.068 0.52546 0.0
O438 O 0.54505 0.0637 0.51882 0.0
O439 O 0.56537 0.08836 0.51949 0.0
O440 O 0.52837 0.03377 0.52518 0.0
O441 O 0.55693 0.03519 0.53557 0.0
O442 O 0.50649 0.06998 0.52818 0.0
O443 O 0.50507 0.05827 0.55405 0.0
O444 O 0.5541 0.06677 0.56463 0.0
O445 O 0.53296 0.04346 0.5657 0.0
O446 O 0.57121 0.09674 0.55799 0.0
O447 O 0.54221 0.09471 0.54955 0.0
H448 H 0.6266 0.06924 0.51879 0.0
H449 H 0.64618 0.04948 0.51517 0.0
H450 H 0.62006 0.01144 0.54933 0.0
H451 H 0.60076 0.03166 0.55325 0.0
H452 H 0.47786 0.06393 0.5682 0.0
H453 H 0.45947 0.08405 0.5758 0.0
H454 H 0.47666 0.11904 0.53492 0.0
H455 H 0.49539 0.09931 0.52781 0.0
Pr456 Pr 0.27421 0.30341 0.77707 0.0
Pr457 Pr 0.31304 0.3025 0.78263 0.0
C458 C 0.24114 0.30148 0.78079 0.0
C459 C 0.23039 0.30678 0.79406 0.0
C460 C 0.22417 0.32284 0.79263 0.0
C461 C 0.21252 0.32678 0.80365 0.0
C462 C 0.20658 0.31468 0.81636 0.0
C463 C 0.21332 0.29897 0.81823 0.0
C464 C 0.22501 0.29507 0.80724 0.0
C465 C 0.2974 0.3351 0.76977 0.0
C466 C 0.2994 0.31698 0.81858 0.0
C467 C 0.34593 0.30315 0.7799 0.0
C468 C 0.35651 0.29833 0.76643 0.0
C469 C 0.36265 0.28214 0.76715 0.0
C470 C 0.37454 0.27892 0.75615 0.0
C471 C 0.38069 0.29199 0.74444 0.0
C472 C 0.3738 0.30756 0.74296 0.0
C473 C 0.36179 0.31064 0.75374 0.0
C474 C 0.28979 0.27059 0.78936 0.0
C475 C 0.28879 0.29052 0.74085 0.0
O476 O 0.24855 0.28798 0.78406 0.0
O477 O 0.25063 0.31493 0.77347 0.0
O478 O 0.29987 0.32632 0.78324 0.0
O479 O 0.28214 0.32822 0.75993 0.0
O480 O 0.31337 0.31911 0.81097 0.0
O481 O 0.2838 0.3089 0.80912 0.0
O482 O 0.33958 0.31767 0.7779 0.0
O483 O 0.33547 0.28924 0.78564 0.0
O484 O 0.28736 0.27958 0.77606 0.0
O485 O 0.30482 0.27768 0.79957 0.0
O486 O 0.2746 0.28771 0.74824 0.0
O487 O 0.30423 0.29853 0.75063 0.0
H488 H 0.22797 0.33219 0.78263 0.0
H489 H 0.20798 0.33922 0.80198 0.0
H490 H 0.20902 0.28917 0.82766 0.0
H491 H 0.22942 0.28251 0.80873 0.0
H492 H 0.35879 0.27233 0.77674 0.0
H493 H 0.37964 0.2668 0.75758 0.0
H494 H 0.3781 0.31765 0.73378 0.0
H495 H 0.35709 0.32304 0.75258 0.0
Pr496 Pr 0.04517 0.05555 0.51662 0.0
Pr497 Pr 0.04702 0.07621 0.54786 0.0
C498 C 0.03742 0.03721 0.48271 0.0
C499 C 0.03309 0.04412 0.4653 0.0
C500 C 0.04504 0.04709 0.45328 0.0
C501 C 0.04147 0.05504 0.43735 0.0
C502 C 0.02591 0.06005 0.43335 0.0
C503 C 0.01416 0.05742 0.44556 0.0
C504 C 0.0177 0.04952 0.46139 0.0
C505 C 0.07974 0.07648 0.52814 0.0
C506 C 0.0379 0.09802 0.51389 0.0
C507 C 0.05482 0.09346 0.58226 0.0
C508 C 0.06246 0.08697 0.59863 0.0
C509 C 0.05471 0.08683 0.61424 0.0
C510 C 0.06144 0.07973 0.62956 0.0
C511 C 0.076 0.07276 0.62934 0.0
C512 C 0.08337 0.07229 0.61349 0.0
C513 C 0.07662 0.0793 0.59819 0.0
C514 C 0.01285 0.05358 0.53628 0.0
C515 C 0.05559 0.03481 0.55057 0.0
O516 O 0.02615 0.03625 0.49369 0.0
O517 O 0.05328 0.04419 0.49113 0.0
O518 O 0.06679 0.08315 0.52821 0.0
O519 O 0.07487 0.0584 0.52349 0.0
O520 O 0.04505 0.10116 0.53121 0.0
O521 O 0.03415 0.08066 0.50535 0.0
O522 O 0.06481 0.0977 0.57017 0.0
O523 O 0.03926 0.08363 0.575 0.0
O524 O 0.02635 0.0479 0.53691 0.0
O525 O 0.01686 0.07182 0.53986 0.0
O526 O 0.04732 0.03102 0.53368 0.0
O527 O 0.05952 0.05226 0.55874 0.0
H528 H 0.05711 0.04329 0.45623 0.0
H529 H 0.05058 0.05683 0.42793 0.0
H530 H 1.00184 0.06066 0.44249 0.0
H531 H 0.00828 0.04761 0.47046 0.0
H532 H 0.04353 0.09227 0.61459 0.0
H533 H 0.05568 0.08035 0.64178 0.0
H534 H 0.09452 0.06681 0.61307 0.0
H535 H 0.08254 0.07876 0.58608 0.0
Pr536 Pr 0.28624 0.79178 0.77256 0.0
Pr537 Pr 0.2981 0.8355 0.76465 0.0
C538 C 0.28266 0.75462 0.77102 0.0
C539 C 0.29495 0.74296 0.7722 0.0
C540 C 0.29368 0.72947 0.78442 0.0
C541 C 0.30536 0.71847 0.78604 0.0
C542 C 0.31849 0.72069 0.77537 0.0
C543 C 0.32012 0.73469 0.76358 0.0
C544 C 0.30849 0.7458 0.76206 0.0
C545 C 0.28713 0.816 0.80473 0.0
C546 C 0.32804 0.81584 0.78032 0.0
C547 C 0.30184 0.87267 0.76596 0.0
C548 C 0.28949 0.88425 0.766 0.0
C549 C 0.28572 0.89332 0.75067 0.0
C550 C 0.27328 0.90342 0.75006 0.0
C551 C 0.26448 0.90471 0.76484 0.0
C552 C 0.2683 0.89563 0.78018 0.0
C553 C 0.28059 0.88542 0.78071 0.0
C554 C 0.29586 0.81116 0.73217 0.0
C555 C 0.25636 0.81162 0.75673 0.0
O556 O 0.28086 0.763 0.75631 0.0
O557 O 0.28311 0.76526 0.78614 0.0
O558 O 0.29071 0.82088 0.78946 0.0
O559 O 0.28186 0.79778 0.80303 0.0
O560 O 0.32441 0.83201 0.77816 0.0
O561 O 0.31639 0.79935 0.77697 0.0
O562 O 0.30495 0.86457 0.78063 0.0
O563 O 0.30026 0.86172 0.7507 0.0
O564 O 0.29309 0.80642 0.7477 0.0
O565 O 0.30103 0.82938 0.73371 0.0
O566 O 0.25975 0.79537 0.75927 0.0
O567 O 0.2681 0.82803 0.76012 0.0
H568 H 0.28357 0.7274 0.79267 0.0
H569 H 0.30397 0.70801 0.79545 0.0
H570 H 0.33001 0.73663 0.75506 0.0
H571 H 0.30999 0.75643 0.75283 0.0
H572 H 0.29229 0.89245 0.73907 0.0
H573 H 0.27052 0.91016 0.73802 0.0
H574 H 0.26204 0.89669 0.79199 0.0
H575 H 0.28308 0.87847 0.79268 0.0
Pr576 Pr 0.54707 0.05301 0.05825 0.0
Pr577 Pr 0.53505 0.06226 0.01742 0.0
C578 C 0.55036 0.05349 0.09477 0.0
C579 C 0.53822 0.0521 0.10779 0.0
C580 C 0.53974 0.04116 0.12212 0.0
C581 C 0.52899 0.04048 0.13522 0.0
C582 C 0.51645 0.0506 0.13404 0.0
C583 C 0.51418 0.06061 0.11907 0.0
C584 C 0.525 0.06136 0.106 0.0
C585 C 0.54444 0.02094 0.03304 0.0
C586 C 0.50496 0.04281 0.03944 0.0
C587 C 0.53175 0.06434 0.9814 0.0
C588 C 0.54511 0.06797 0.96994 0.0
C589 C 0.54376 0.07886 0.95553 0.0
C590 C 0.55614 0.08143 0.94409 0.0
C591 C 0.56992 0.07318 0.94713 0.0
C592 C 0.57212 0.0639 0.96261 0.0
C593 C 0.55975 0.06124 0.97391 0.0
C594 C 0.53814 0.09415 0.04286 0.0
C595 C 0.57722 0.07207 0.03557 0.0
O596 O 0.55358 0.06886 0.08687 0.0
O597 O 0.54853 0.03822 0.08361 0.0
O598 O 0.5415 0.03639 0.02901 0.0
O599 O 0.55017 0.02269 0.05051 0.0
O600 O 0.50828 0.04702 0.02325 0.0
O601 O 0.51688 0.04526 0.05421 0.0
O602 O 0.52902 0.04823 0.98811 0.0
O603 O 0.53232 0.07857 0.99334 0.0
O604 O 0.54088 0.07859 0.04651 0.0
O605 O 0.53245 0.09278 0.02548 0.0
O606 O 0.57393 0.06867 0.05205 0.0
O607 O 0.56506 0.06872 0.0209 0.0
H608 H 0.5496 0.03359 0.12349 0.0
H609 H 0.53091 0.0327 0.1467 0.0
H610 H 0.50472 0.06872 0.11807 0.0
H611 H 0.52336 0.0696 0.09482 0.0
H612 H 0.53278 0.08465 0.95267 0.0
H613 H 0.55419 0.08845 0.93205 0.0
H614 H 0.58263 0.05731 0.96504 0.0
H615 H 0.56126 0.0532 0.98527 0.0
Pr616 Pr 0.26716 0.29083 0.26855 0.0
Pr617 Pr 0.30791 0.32042 0.27613 0.0
C618 C 0.23543 0.2727 0.27421 0.0
C619 C 0.22004 0.27741 0.28004 0.0
C620 C 0.20341 0.26791 0.27069 0.0
C621 C 0.1887 0.27097 0.27697 0.0
C622 C 0.19026 0.28361 0.29284 0.0
C623 C 0.207 0.29376 0.30165 0.0
C624 C 0.22167 0.29069 0.29536 0.0
C625 C 0.27652 0.30792 0.23714 0.0
C626 C 0.27481 0.33738 0.28134 0.0
C627 C 0.33906 0.3386 0.26919 0.0
C628 C 0.35499 0.33396 0.26496 0.0
C629 C 0.37125 0.34549 0.27338 0.0
C630 C 0.38638 0.34239 0.26824 0.0
C631 C 0.38561 0.32765 0.25454 0.0
C632 C 0.3693 0.31562 0.24672 0.0
C633 C 0.3542 0.31872 0.25185 0.0
C634 C 0.29942 0.30334 0.30775 0.0
C635 C 0.30035 0.27362 0.26436 0.0
O636 O 0.24939 0.27604 0.28662 0.0
O637 O 0.2387 0.27645 0.258 0.0
O638 O 0.28519 0.3096 0.25297 0.0
O639 O 0.26162 0.29615 0.23698 0.0
O640 O 0.29094 0.34167 0.27825 0.0
O641 O 0.26532 0.31997 0.28112 0.0
O642 O 0.3252 0.33263 0.25657 0.0
O643 O 0.33581 0.33747 0.28589 0.0
O644 O 0.29004 0.30149 0.29216 0.0
O645 O 0.31421 0.31507 0.30727 0.0
O646 O 0.28403 0.26949 0.26685 0.0
O647 O 0.31013 0.29093 0.2647 0.0
H648 H 0.20176 0.25771 0.25875 0.0
H649 H 0.17612 0.26285 0.26978 0.0
H650 H 0.20882 0.30399 0.31359 0.0
H651 H 0.2343 0.29848 0.30273 0.0
H652 H 0.37224 0.35724 0.28361 0.0
H653 H 0.39865 0.35193 0.27463 0.0
H654 H 0.36817 0.3038 0.2365 0.0
H655 H 0.34188 0.30938 0.24529 0.0
Pr656 Pr 0.54818 0.54915 0.0199 0.0
Pr657 Pr 0.54857 0.56845 0.05183 0.0
C658 C 0.54086 0.53186 0.98559 0.0
C659 C 0.53746 0.53925 0.96828 0.0
C660 C 0.54763 0.53758 0.95488 0.0
C661 C 0.54436 0.54458 0.93831 0.0
C662 C 0.53091 0.5533 0.93514 0.0
C663 C 0.52138 0.55587 0.94896 0.0
C664 C 0.52463 0.54892 0.96543 0.0
C665 C 0.58233 0.57054 0.03329 0.0
C666 C 0.53987 0.59127 0.01797 0.0
C667 C 0.55555 0.58481 0.08655 0.0
C668 C 0.56435 0.57955 0.10304 0.0
C669 C 0.55547 0.57553 0.11763 0.0
C670 C 0.56327 0.56942 0.133 0.0
C671 C 0.5801 0.56751 0.13398 0.0
C672 C 0.58888 0.5711 0.11928 0.0
C673 C 0.58099 0.57694 0.10378 0.0
C674 C 0.51456 0.54678 0.03851 0.0
C675 C 0.55764 0.52701 0.05325 0.0
O676 O 0.52922 0.53129 0.99609 0.0
O677 O 0.55664 0.538 0.99449 0.0
O678 O 0.56908 0.57669 0.03333 0.0
O679 O 0.57798 0.55274 0.02712 0.0
O680 O 0.54374 0.59317 0.03592 0.0
O681 O 0.53954 0.57521 0.00846 0.0
O682 O 0.56503 0.59069 0.07439 0.0
O683 O 0.5407 0.57319 0.07937 0.0
O684 O 0.52789 0.54072 0.0388 0.0
O685 O 0.51887 0.5648 0.04359 0.0
O686 O 0.55021 0.52408 0.03606 0.0
O687 O 0.56103 0.54413 0.06214 0.0
H688 H 0.55784 0.53056 0.95709 0.0
H689 H 0.5518 0.54252 0.92772 0.0
H690 H 0.51072 0.56224 0.94664 0.0
H691 H 0.51682 0.55078 0.97573 0.0
H692 H 0.54251 0.57711 0.1171 0.0
H693 H 0.55643 0.56686 0.14439 0.0
H694 H 0.60188 0.56962 0.11991 0.0
H695 H 0.58795 0.57944 0.09248 0.0
Pr696 Pr 0.78896 0.28803 0.27909 0.0
Pr697 Pr 0.80084 0.33148 0.27039 0.0
C698 C 0.78478 0.25074 0.2774 0.0
C699 C 0.79647 0.23839 0.27865 0.0
C700 C 0.7958 0.22608 0.29208 0.0
C701 C 0.80645 0.21385 0.29308 0.0
C702 C 0.81776 0.2138 0.28058 0.0
C703 C 0.8189 0.22652 0.26759 0.0
C704 C 0.80842 0.23884 0.26669 0.0
C705 C 0.78869 0.31255 0.31043 0.0
C706 C 0.83075 0.31267 0.28937 0.0
C707 C 0.80366 0.36839 0.26948 0.0
C708 C 0.79185 0.38037 0.27103 0.0
C709 C 0.79336 0.39613 0.26153 0.0
C710 C 0.78202 0.40748 0.2627 0.0
C711 C 0.76901 0.40319 0.27342 0.0
C712 C 0.76704 0.38685 0.28219 0.0
C713 C 0.77835 0.37552 0.28099 0.0
C714 C 0.79956 0.30652 0.23864 0.0
C715 C 0.75907 0.30741 0.26346 0.0
O716 O 0.78365 0.25937 0.26278 0.0
O717 O 0.78511 0.26133 0.29251 0.0
O718 O 0.79269 0.31734 0.29526 0.0
O719 O 0.78319 0.29434 0.30888 0.0
O720 O 0.82738 0.32846 0.28482 0.0
O721 O 0.81906 0.29623 0.28697 0.0
O722 O 0.80899 0.36159 0.28432 0.0
O723 O 0.79944 0.35607 0.2548 0.0
O724 O 0.79623 0.3022 0.25412 0.0
O725 O 0.80536 0.32465 0.23999 0.0
O726 O 0.76292 0.29121 0.26457 0.0
O727 O 0.77064 0.32392 0.26768 0.0
H728 H 0.78681 0.22569 0.30156 0.0
H729 H 0.80539 0.20399 0.30309 0.0
H730 H 0.8276 0.22655 0.25783 0.0
H731 H 0.80946 0.2484 0.25641 0.0
H732 H 0.80343 0.39976 0.25336 0.0
H733 H 0.7838 0.41994 0.25575 0.0
H734 H 0.75686 0.38294 0.29017 0.0
H735 H 0.77662 0.36305 0.28793 0.0
Pr736 Pr 0.04544 0.56176 0.56173 0.0
Pr737 Pr 0.03353 0.57071 0.52342 0.0
C738 C 0.04734 0.557 0.59747 0.0
C739 C 0.03556 0.55653 0.61091 0.0
C740 C 0.03594 0.54468 0.62465 0.0
C741 C 0.0259 0.54523 0.63838 0.0
C742 C 0.01522 0.5575 0.63842 0.0
C743 C 0.01411 0.56861 0.62414 0.0
C744 C 0.02416 0.5681 0.61043 0.0
C745 C 0.04416 0.53307 0.5338 0.0
C746 C 1.00306 0.55351 0.54502 0.0
C747 C 0.02966 0.56935 0.48688 0.0
C748 C 0.04246 0.57406 0.47482 0.0
C749 C 0.03855 0.58189 0.45873 0.0
C750 C 0.04984 0.5839 0.44607 0.0
C751 C 0.06503 0.57806 0.4495 0.0
C752 C 0.06968 0.57193 0.46635 0.0
C753 C 0.05849 0.56999 0.47897 0.0
C754 C 0.03754 0.60388 0.54696 0.0
C755 C 0.07563 0.5822 0.54056 0.0
O756 O 0.05333 0.57325 0.59182 0.0
O757 O 0.04307 0.54293 0.58432 0.0
O758 O 0.03293 0.54225 0.53466 0.0
O759 O 0.05688 0.53914 0.54755 0.0
O760 O 0.00613 0.55839 0.52903 0.0
O761 O 0.01538 0.55469 0.55908 0.0
O762 O 0.03005 0.55464 0.49537 0.0
O763 O 0.02761 0.58347 0.49733 0.0
O764 O 0.04035 0.58884 0.55221 0.0
O765 O 0.03143 0.60143 0.52958 0.0
O766 O 0.07241 0.57877 0.55698 0.0
O767 O 0.06342 0.57802 0.52599 0.0
H768 H 0.04446 0.53548 0.62513 0.0
H769 H 0.02704 0.53672 0.64942 0.0
H770 H 0.00612 0.57838 0.62411 0.0
H771 H 0.02347 0.5772 0.59982 0.0
H772 H 0.02639 0.58544 0.45551 0.0
H773 H 0.04602 0.58846 0.43301 0.0
H774 H 0.08129 0.5672 0.46909 0.0
H775 H 0.06193 0.56421 0.49143 0.0
Pr776 Pr 0.76881 0.80791 0.28222 0.0
Pr777 Pr 0.80877 0.80712 0.28625 0.0
C778 C 0.73562 0.80261 0.28719 0.0
C779 C 0.72439 0.80902 0.29926 0.0
C780 C 0.71567 0.82255 0.2942 0.0
C781 C 0.70371 0.82716 0.30442 0.0
C782 C 0.70008 0.81834 0.31998 0.0
C783 C 0.70916 0.80522 0.32536 0.0
C784 C 0.72107 0.80055 0.3151 0.0
C785 C 0.79153 0.84111 0.27741 0.0
C786 C 0.79511 0.82034 0.32327 0.0
C787 C 0.8421 0.80966 0.28337 0.0
C788 C 0.85303 0.80316 0.27116 0.0
C789 C 0.86258 0.79058 0.27687 0.0
C790 C 0.87437 0.78589 0.26654 0.0
C791 C 0.87693 0.79368 0.25023 0.0
C792 C 0.86689 0.80568 0.24412 0.0
C793 C 0.85514 0.81044 0.25449 0.0
C794 C 0.78517 0.77403 0.29011 0.0
C795 C 0.78326 0.79606 0.24501 0.0
O796 O 0.74571 0.79254 0.29385 0.0
O797 O 0.7426 0.81406 0.2762 0.0
O798 O 0.79478 0.83027 0.28881 0.0
O799 O 0.77541 0.83633 0.26962 0.0
O800 O 0.80893 0.82236 0.31534 0.0
O801 O 0.7793 0.81301 0.314 0.0
O802 O 0.83389 0.82184 0.27785 0.0
O803 O 0.83323 0.79734 0.29234 0.0
O804 O 0.78274 0.78494 0.27861 0.0
O805 O 0.80058 0.77945 0.29978 0.0
O806 O 0.76928 0.7936 0.25278 0.0
O807 O 0.79904 0.80312 0.25442 0.0
H808 H 0.71776 0.82927 0.28204 0.0
H809 H 0.69709 0.83745 0.29994 0.0
H810 H 0.70652 0.79793 0.33708 0.0
H811 H 0.72732 0.78988 0.31933 0.0
H812 H 0.8613 0.78479 0.28966 0.0
H813 H 0.8818 0.77647 0.27153 0.0
H814 H 0.8687 0.8121 0.23175 0.0
H815 H 0.8481 0.82026 0.24969 0.0
Pr816 Pr 0.80073 0.33642 0.79034 0.0
Pr817 Pr 0.79336 0.29587 0.7667 0.0
C818 C 0.81824 0.37038 0.80707 0.0
C819 C 0.82249 0.38848 0.79965 0.0
C820 C 0.81269 0.40144 0.80198 0.0
C821 C 0.81717 0.41882 0.79548 0.0
C822 C 0.83149 0.42345 0.78664 0.0
C823 C 0.84053 0.41005 0.78317 0.0
C824 C 0.83612 0.39273 0.78969 0.0
C825 C 0.76705 0.32721 0.77015 0.0
C826 C 0.8054 0.33323 0.74567 0.0
C827 C 0.77613 0.26222 0.74898 0.0
C828 C 0.76884 0.24488 0.75656 0.0
C829 C 0.77706 0.23027 0.75657 0.0
C830 C 0.77017 0.21391 0.76393 0.0
C831 C 0.75495 0.21201 0.77121 0.0
C832 C 0.74725 0.22695 0.7721 0.0
C833 C 0.75411 0.24326 0.76483 0.0
C834 C 0.82649 0.30431 0.78854 0.0
C835 C 0.78649 0.29871 0.81026 0.0
O836 O 0.82583 0.35786 0.80125 0.0
O837 O 0.802 0.36325 0.80821 0.0
O838 O 0.77778 0.31735 0.77013 0.0
O839 O 0.77371 0.34237 0.78175 0.0
O840 O 0.80047 0.31468 0.74414 0.0
O841 O 0.80717 0.34405 0.7614 0.0
O842 O 0.76877 0.27587 0.75159 0.0
O843 O 0.79299 0.26793 0.75141 0.0
O844 O 0.81606 0.31458 0.78785 0.0
O845 O 0.81993 0.28937 0.77667 0.0
O846 O 0.79306 0.31719 0.81281 0.0
O847 O 0.78442 0.28823 0.79433 0.0
H848 H 0.80191 0.39838 0.80927 0.0
H849 H 0.81005 0.42905 0.79825 0.0
H850 H 0.85178 0.41345 0.77659 0.0
H851 H 0.84378 0.38295 0.78738 0.0
H852 H 0.7886 0.23135 0.75059 0.0
H853 H 0.77616 0.20238 0.76302 0.0
H854 H 0.73549 0.22565 0.77773 0.0
H855 H 0.74764 0.25441 0.76543 0.0
Pr856 Pr 0.76818 0.80053 0.7774 0.0
Pr857 Pr 0.80746 0.82648 0.7839 0.0
C858 C 0.73425 0.7847 0.77765 0.0
C859 C 0.71888 0.78631 0.78575 0.0
C860 C 0.70236 0.77761 0.7757 0.0
C861 C 0.6875 0.77829 0.78299 0.0
C862 C 0.68869 0.78782 0.80058 0.0
C863 C 0.70537 0.79689 0.81049 0.0
C864 C 0.72027 0.79611 0.80319 0.0
C865 C 0.78035 0.81466 0.74614 0.0
C866 C 0.777 0.84541 0.79261 0.0
C867 C 0.83804 0.84469 0.77543 0.0
C868 C 0.85498 0.84203 0.77196 0.0
C869 C 0.86889 0.84326 0.78618 0.0
C870 C 0.88478 0.84115 0.78215 0.0
C871 C 0.88705 0.83771 0.76385 0.0
C872 C 0.87322 0.83682 0.74975 0.0
C873 C 0.85748 0.83895 0.75374 0.0
C874 C 0.80095 0.81032 0.81641 0.0
C875 C 0.79876 0.78015 0.77403 0.0
O876 O 0.74681 0.78016 0.78784 0.0
O877 O 0.73973 0.79689 0.76668 0.0
O878 O 0.78325 0.82354 0.7621 0.0
O879 O 0.77075 0.79765 0.74594 0.0
O880 O 0.79212 0.84904 0.78717 0.0
O881 O 0.76863 0.8283 0.7949 0.0
O882 O 0.82454 0.83553 0.7633 0.0
O883 O 0.83479 0.84591 0.79223 0.0
O884 O 0.79054 0.80818 0.80149 0.0
O885 O 0.81561 0.8216 0.8148 0.0
O886 O 0.78341 0.77774 0.77881 0.0
O887 O 0.80812 0.79665 0.77123 0.0
H888 H 0.70092 0.77003 0.76218 0.0
H889 H 0.67507 0.77099 0.77488 0.0
H890 H 0.707 0.80484 0.82385 0.0
H891 H 0.73285 0.80314 0.81116 0.0
H892 H 0.8675 0.84584 0.80037 0.0
H893 H 0.8952 0.84193 0.79333 0.0
H894 H 0.87457 0.83454 0.7355 0.0
H895 H 0.84719 0.83823 0.74246 0.0
Pr896 Pr 0.52764 0.56652 0.53985 0.0
Pr897 Pr 0.56916 0.57879 0.55404 0.0
C898 C 0.49391 0.56667 0.5343 0.0
C899 C 0.48179 0.57835 0.52861 0.0
C900 C 0.47278 0.57599 0.51047 0.0
C901 C 0.45977 0.5852 0.50583 0.0
C902 C 0.45525 0.59683 0.51927 0.0
C903 C 0.46482 0.59981 0.53717 0.0
C904 C 0.47782 0.59073 0.54177 0.0
C905 C 0.54805 0.56262 0.51397 0.0
C906 C 0.55156 0.61126 0.53828 0.0
C907 C 0.60305 0.57981 0.56162 0.0
C908 C 0.61494 0.56765 0.56585 0.0
C909 C 0.62375 0.56837 0.58382 0.0
C910 C 0.63655 0.55871 0.58729 0.0
C911 C 0.64099 0.54839 0.57281 0.0
C912 C 0.63167 0.54701 0.55505 0.0
C913 C 0.61884 0.55647 0.5516 0.0
C914 C 0.54844 0.58386 0.5791 0.0
C915 C 0.54596 0.53364 0.55387 0.0
O916 O 0.50418 0.57187 0.55023 0.0
O917 O 0.50105 0.55926 0.52184 0.0
O918 O 0.55125 0.57575 0.52684 0.0
O919 O 0.5328 0.55113 0.51294 0.0
O920 O 0.56616 0.60602 0.54089 0.0
O921 O 0.53653 0.59983 0.53995 0.0
O922 O 0.59417 0.57712 0.545 0.0
O923 O 0.59443 0.58418 0.57417 0.0
O924 O 0.54549 0.5699 0.56716 0.0
O925 O 0.56349 0.59552 0.57971 0.0
O926 O 0.53119 0.53866 0.55187 0.0
O927 O 0.56072 0.54549 0.55215 0.0
H928 H 0.47538 0.56653 0.49995 0.0
H929 H 0.45271 0.58253 0.49192 0.0
H930 H 0.462 0.60892 0.54784 0.0
H931 H 0.48439 0.59299 0.55586 0.0
H932 H 0.62113 0.57688 0.59511 0.0
H933 H 0.64347 0.55997 0.60114 0.0
H934 H 0.63456 0.53886 0.54367 0.0
H935 H 0.61236 0.55544 0.5376 0.0
Pr936 Pr 0.06653 0.57077 0.05018 0.0
Pr937 Pr 0.02731 0.56589 0.05188 0.0
C938 C 0.0987 0.56588 0.05146 0.0
C939 C 0.10876 0.55234 0.04639 0.0
C940 C 0.11865 0.55555 0.03237 0.0
C941 C 0.1298 0.54441 0.02882 0.0
C942 C 0.13157 0.52975 0.03927 0.0
C943 C 0.12115 0.52609 0.05286 0.0
C944 C 0.10995 0.53723 0.05639 0.0
C945 C 0.04763 0.58084 0.02025 0.0
C946 C 0.03754 0.52929 0.03495 0.0
C947 C 0.99507 0.56985 0.0513 0.0
C948 C 0.98578 0.58356 0.05735 0.0
C949 C 0.97142 0.57745 0.06589 0.0
C950 C 0.96103 0.58941 0.0695 0.0
C951 C 0.96478 0.60782 0.06466 0.0
C952 C 0.97988 0.6143 0.05727 0.0
C953 C 0.99022 0.6023 0.05357 0.0
C954 C 0.04629 0.55575 0.08158 0.0
C955 C 0.05581 0.60788 0.06647 0.0
O956 O 0.08982 0.5628 0.06477 0.0
O957 O 0.09116 0.57327 0.03832 0.0
O958 O 0.04233 0.56662 0.02814 0.0
O959 O 0.06355 0.58975 0.02703 0.0
O960 O 0.02487 0.53763 0.03377 0.0
O961 O 0.05343 0.53824 0.04301 0.0
O962 O 1.00388 0.57376 0.03808 0.0
O963 O 1.00262 0.56186 0.0639 0.0
O964 O 0.05148 0.57018 0.07393 0.0
O965 O 0.03062 0.54635 0.07434 0.0
O966 O 0.06904 0.60045 0.06616 0.0
O967 O 0.03974 0.59817 0.0601 0.0
H968 H 0.11812 0.56707 0.02441 0.0
H969 H 0.13724 0.54752 0.01798 0.0
H970 H 0.12215 0.51509 0.06135 0.0
H971 H 0.10261 0.53432 0.06735 0.0
H972 H 0.96781 0.56312 0.06907 0.0
H973 H 0.94954 0.58385 0.07517 0.0
H974 H 0.98348 0.62855 0.05389 0.0
H975 H 1.00138 0.60755 0.04726 0.0
H976 H 0.05183 0.26058 0.94251 0.0
H977 H 0.05632 0.23479 0.95942 0.0
H978 H 0.00608 0.22779 0.9748 0.0
H979 H 1.00249 0.25493 0.95937 0.0
H980 H 0.02306 0.22056 1.00107 0.0
H981 H 0.01893 0.19634 0.9387 0.0
H982 H 0.02562 0.19575 0.90736 0.0
H983 H 0.078 0.19679 0.92835 0.0
H984 H 0.07166 0.19757 0.95984 0.0
H985 H 0.01832 0.1284 0.02639 0.0
H986 H 0.01475 0.15558 0.01151 0.0
H987 H 0.06849 0.1699 0.00645 0.0
H988 H 0.07208 0.14221 0.02106 0.0
H989 H 0.04949 0.17288 0.97509 0.0
H990 H 0.0498 0.19581 0.03892 0.0
H991 H 0.03941 0.19488 0.06851 0.0
H992 H 0.98837 0.19238 0.04129 0.0
H993 H 0.99843 0.19317 0.01155 0.0
C994 C 0.04178 0.25354 0.94956 0.0
C995 C 0.02678 0.25978 0.94952 0.0
C996 C 0.04423 0.23852 0.95909 0.0
C997 C 0.03136 0.22855 0.96812 0.0
C998 C 0.01634 0.23494 0.96808 0.0
C999 C 0.01421 0.25048 0.95915 0.0
C1000 C 0.03367 0.21187 0.97787 0.0
C1001 C 0.0286 0.21005 0.99511 0.0
C1002 C 0.04103 0.19789 0.97055 0.0
C1003 C 0.04485 0.19719 0.95163 0.0
C1004 C 0.03189 0.19653 0.93663 0.0
C1005 C 0.03562 0.19615 0.91884 0.0
C1006 C 0.05223 0.19628 0.91587 0.0
C1007 C 0.06514 0.19671 0.93068 0.0
C1008 C 0.06148 0.19709 0.94849 0.0
C1009 C 0.02952 0.13738 0.02235 0.0
C1010 C 0.04557 0.13298 0.02515 0.0
C1011 C 0.02744 0.15313 0.01385 0.0
C1012 C 0.04137 0.16522 0.00797 0.0
C1013 C 0.05748 0.16098 0.01087 0.0
C1014 C 0.05957 0.14514 0.01939 0.0
C1015 C 0.03894 0.18175 0.99819 0.0
C1016 C 0.04395 0.18347 0.98094 0.0
C1017 C 0.03089 0.1952 0.00516 0.0
C1018 C 0.02485 0.19443 0.02302 0.0
C1019 C 0.03634 0.19493 0.03924 0.0
C1020 C 0.03051 0.19447 0.05604 0.0
C1021 C 0.01324 0.19355 0.05678 0.0
C1022 C 1.00174 0.19309 0.04071 0.0
C1023 C 0.00751 0.19358 0.02389 0.0
H1024 H 0.00876 0.19322 0.0698 0.0
H1025 H 0.0551 0.19602 0.9021 0.0
H1026 H 0.12176 0.86362 0.19652 0.0
H1027 H 0.14923 0.858 0.21032 0.0
H1028 H 0.13446 0.80261 0.17944 0.0
H1029 H 0.10717 0.80829 0.16563 0.0
H1030 H 0.1489 0.80199 0.21528 0.0
H1031 H 0.16371 0.83519 0.16537 0.0
H1032 H 0.165 0.86036 0.14548 0.0
H1033 H 0.19278 0.90157 0.19108 0.0
H1034 H 0.19151 0.87663 0.21128 0.0
H1035 H 0.24046 0.8 0.24119 0.0
H1036 H 0.21171 0.79646 0.22273 0.0
H1037 H 0.21056 0.85035 0.24897 0.0
H1038 H 0.23856 0.85372 0.26739 0.0
H1039 H 0.20423 0.84675 0.21039 0.0
H1040 H 0.18701 0.81235 0.26067 0.0
H1041 H 0.18476 0.78645 0.27975 0.0
H1042 H 0.16118 0.74622 0.23211 0.0
H1043 H 0.16352 0.77188 0.21269 0.0
C1044 C 0.12446 0.8503 0.19275 0.0
C1045 C 0.11251 0.83642 0.18001 0.0
C1046 C 0.14011 0.84708 0.20056 0.0
C1047 C 0.14397 0.8299 0.19582 0.0
C1048 C 0.13181 0.81593 0.18333 0.0
C1049 C 0.11628 0.81922 0.17542 0.0
C1050 C 0.16081 0.82667 0.20371 0.0
C1051 C 0.16103 0.81159 0.21398 0.0
C1052 C 0.17665 0.83903 0.2019 0.0
C1053 C 0.1774 0.85408 0.18985 0.0
C1054 C 0.16998 0.84964 0.17117 0.0
C1055 C 0.17074 0.86386 0.15984 0.0
C1056 C 0.17894 0.88256 0.16702 0.0
C1057 C 0.18643 0.88708 0.18554 0.0
C1058 C 0.18573 0.8729 0.19693 0.0
C1059 C 0.23393 0.81089 0.24317 0.0
C1060 C 0.24185 0.82709 0.25584 0.0
C1061 C 0.21752 0.80888 0.23261 0.0
C1062 C 0.20899 0.82319 0.23446 0.0
C1063 C 0.21686 0.83915 0.24725 0.0
C1064 C 0.23295 0.84102 0.25781 0.0
C1065 C 0.19233 0.8226 0.22269 0.0
C1066 C 0.19213 0.83694 0.2115 0.0
C1067 C 0.17658 0.80945 0.22359 0.0
C1068 C 0.17575 0.79401 0.23518 0.0
C1069 C 0.18161 0.79796 0.25421 0.0
C1070 C 0.18024 0.78332 0.26511 0.0
C1071 C 0.17292 0.76469 0.25714 0.0
C1072 C 0.16692 0.76065 0.23826 0.0
C1073 C 0.16828 0.77523 0.2273 0.0
H1074 H 0.17182 0.75339 0.2656 0.0
H1075 H 0.17951 0.89355 0.15822 0.0
H1076 H 0.50813 0.86608 0.42785 0.0
H1077 H 0.51333 0.89832 0.44213 0.0
H1078 H 0.55096 0.8888 0.48505 0.0
H1079 H 0.54532 0.85612 0.47104 0.0
H1080 H 0.53213 0.90546 0.49987 0.0
H1081 H 0.56155 0.91859 0.44985 0.0
H1082 H 0.56772 0.91969 0.41838 0.0
H1083 H 0.52672 0.94583 0.40452 0.0
H1084 H 0.52014 0.94466 0.43581 0.0
H1085 H 0.56141 1.00243 0.53622 0.0
H1086 H 0.55926 0.9711 0.52113 0.0
H1087 H 0.51384 0.97329 0.4842 0.0
H1088 H 0.51592 0.00486 0.49931 0.0
H1089 H 0.5386 0.96144 0.46658 0.0
H1090 H 0.50966 0.9466 0.51812 0.0
H1091 H 0.50744 0.94857 0.55094 0.0
H1092 H 0.55208 0.92752 0.56245 0.0
H1093 H 0.5547 0.92567 0.52972 0.0
C1094 C 0.51748 0.87079 0.44039 0.0
C1095 C 0.52613 0.8584 0.44845 0.0
C1096 C 0.52064 0.88939 0.44841 0.0
C1097 C 0.53277 0.89624 0.46454 0.0
C1098 C 0.54153 0.88391 0.47259 0.0
C1099 C 0.5382 0.86517 0.46468 0.0
C1100 C 0.53507 0.91562 0.47386 0.0
C1101 C 0.53387 0.9177 0.49256 0.0
C1102 C 0.53702 0.93171 0.46437 0.0
C1103 C 0.54021 0.9313 0.44516 0.0
C1104 C 0.55366 0.92428 0.44002 0.0
C1105 C 0.55728 0.92501 0.42222 0.0
C1106 C 0.54758 0.93277 0.40944 0.0
C1107 C 0.5342 0.93977 0.41441 0.0
C1108 C 0.53052 0.93908 0.43218 0.0
C1109 C 0.55086 0.99622 0.52498 0.0
C1110 C 0.53879 0.00611 0.51898 0.0
C1111 C 0.54965 0.97829 0.51639 0.0
C1112 C 0.53637 0.96984 0.50159 0.0
C1113 C 0.52419 0.97958 0.49562 0.0
C1114 C 0.5253 0.99752 0.50435 0.0
C1115 C 0.5354 0.95094 0.49227 0.0
C1116 C 0.53688 0.94906 0.47369 0.0
C1117 C 0.53407 0.93509 0.50186 0.0
C1118 C 0.53245 0.93615 0.52151 0.0
C1119 C 0.51907 0.94253 0.52768 0.0
C1120 C 0.51773 0.9436 0.54626 0.0
C1121 C 0.52963 0.93821 0.55878 0.0
C1122 C 0.54288 0.9317 0.55274 0.0
C1123 C 0.54429 0.93062 0.53418 0.0
H1124 H 0.52857 0.93906 0.57316 0.0
H1125 H 0.55047 0.9334 0.39571 0.0
H1126 H 0.51447 0.28085 0.6689 0.0
H1127 H 0.48557 0.2729 0.67723 0.0
H1128 H 0.49283 0.33105 0.69827 0.0
H1129 H 0.52147 0.33918 0.68923 0.0
H1130 H 0.48437 0.30167 0.72335 0.0
H1131 H 0.46621 0.31661 0.6624 0.0
H1132 H 0.46186 0.31292 0.62863 0.0
H1133 H 0.43251 0.25559 0.6265 0.0
H1134 H 0.43692 0.25883 0.6603 0.0
H1135 H 0.40985 0.3196 0.74541 0.0
H1136 H 0.43492 0.31825 0.73147 0.0
H1137 H 0.41072 0.26032 0.70917 0.0
H1138 H 0.3853 0.2616 0.72334 0.0
H1139 H 0.42671 0.28265 0.68366 0.0
H1140 H 0.44242 0.2663 0.74237 0.0
H1141 H 0.44605 0.2675 0.776 0.0
H1142 H 0.47964 0.32339 0.7822 0.0
H1143 H 0.47607 0.3226 0.74859 0.0
C1144 C 0.50977 0.29194 0.67514 0.0
C1145 C 0.52017 0.3106 0.6786 0.0
C1146 C 0.49326 0.2874 0.67975 0.0
C1147 C 0.48705 0.30139 0.6883 0.0
C1148 C 0.49735 0.32009 0.69154 0.0
C1149 C 0.51368 0.32472 0.68644 0.0
C1150 C 0.47067 0.29633 0.69559 0.0
C1151 C 0.47176 0.29766 0.71467 0.0
C1152 C 0.45425 0.29 0.6842 0.0
C1153 C 0.45217 0.28787 0.66391 0.0
C1154 C 0.45909 0.30311 0.65476 0.0
C1155 C 0.45654 0.30113 0.6356 0.0
C1156 C 0.44699 0.28401 0.62542 0.0
C1157 C 0.43996 0.26883 0.63439 0.0
C1158 C 0.44249 0.27073 0.65355 0.0
C1159 C 0.40976 0.30659 0.73742 0.0
C1160 C 0.39558 0.29074 0.73537 0.0
C1161 C 0.42417 0.30579 0.72957 0.0
C1162 C 0.42477 0.28916 0.71939 0.0
C1163 C 0.41053 0.27329 0.71702 0.0
C1164 C 0.39609 0.27401 0.72515 0.0
C1165 C 0.44047 0.28885 0.71144 0.0
C1166 C 0.43932 0.28639 0.69232 0.0
C1167 C 0.45691 0.2937 0.72272 0.0
C1168 C 0.45888 0.29444 0.74296 0.0
C1169 C 0.45045 0.27892 0.7509 0.0
C1170 C 0.45254 0.2795 0.76996 0.0
C1171 C 0.46305 0.29552 0.78123 0.0
C1172 C 0.4715 0.31099 0.77346 0.0
C1173 C 0.46948 0.31047 0.7544 0.0
H1174 H 0.46467 0.29594 0.79599 0.0
H1175 H 0.44498 0.28253 0.61059 0.0
H1176 H 0.09426 0.88726 0.61121 0.0
H1177 H 0.09442 0.91818 0.60142 0.0
H1178 H 0.04593 0.91516 0.6196 0.0
H1179 H 0.04585 0.88445 0.62972 0.0
H1180 H 0.04537 0.92246 0.58383 0.0
H1181 H 0.08143 0.94688 0.64209 0.0
H1182 H 0.10631 0.95304 0.66721 0.0
H1183 H 0.14058 0.97473 0.63067 0.0
H1184 H 0.11592 0.9685 0.60526 0.0
H1185 H 0.03384 0.01199 0.56855 0.0
H1186 H 0.03791 0.98427 0.5827 0.0
H1187 H 0.08864 0.99381 0.5683 0.0
H1188 H 0.08455 0.02178 0.5543 0.0
H1189 H 0.0895 0.98352 0.60213 0.0
H1190 H 0.05438 0.95809 0.54382 0.0
H1191 H 0.02991 0.95169 0.51817 0.0
H1192 H 0.99468 0.93135 0.55425 0.0
H1193 H 0.01893 0.93778 0.58015 0.0
C1194 C 0.08365 0.8932 0.61321 0.0
C1195 C 0.0699 0.88315 0.62104 0.0
C1196 C 0.08386 0.91102 0.60776 0.0
C1197 C 0.07022 0.91917 0.6098 0.0
C1198 C 0.05664 0.90929 0.6179 0.0
C1199 C 0.05657 0.89163 0.62362 0.0
C1200 C 0.06909 0.93688 0.60178 0.0
C1201 C 0.05492 0.93587 0.58809 0.0
C1202 C 0.08187 0.95431 0.60672 0.0
C1203 C 0.09682 0.95692 0.62167 0.0
C1204 C 0.09429 0.95264 0.63931 0.0
C1205 C 0.10835 0.95625 0.65364 0.0
C1206 C 0.12502 0.9642 0.65052 0.0
C1207 C 0.12767 0.96851 0.63306 0.0
C1208 C 0.11365 0.96494 0.61869 0.0
C1209 C 0.04594 0.00828 0.56863 0.0
C1210 C 0.05896 0.01916 0.56057 0.0
C1211 C 0.04822 0.99231 0.57657 0.0
C1212 C 0.06353 0.98664 0.57646 0.0
C1213 C 0.07671 0.99778 0.56865 0.0
C1214 C 0.07441 0.0138 0.56069 0.0
C1215 C 0.06561 0.9691 0.58437 0.0
C1216 C 0.07998 0.9701 0.59791 0.0
C1217 C 0.0531 0.95154 0.57924 0.0
C1218 C 0.03843 0.94865 0.56395 0.0
C1219 C 0.04139 0.9525 0.54633 0.0
C1220 C 0.02757 0.94879 0.53173 0.0
C1221 C 0.01075 0.94117 0.53459 0.0
C1222 C 0.00771 0.93729 0.55206 0.0
C1223 C 0.02148 0.94096 0.5667 0.0
H1224 H 1.00008 0.93823 0.52326 0.0
H1225 H 0.13587 0.96708 0.66166 0.0
H1226 H 0.45855 0.81163 0.8963 0.0
H1227 H 0.43078 0.81245 0.87892 0.0
H1228 H 0.43972 0.77869 0.83281 0.0
H1229 H 0.46783 0.77857 0.85007 0.0
H1230 H 0.43249 0.80778 0.82171 0.0
H1231 H 0.40564 0.76299 0.85843 0.0
H1232 H 0.39725 0.7483 0.88544 0.0
H1233 H 0.37924 0.79573 0.9029 0.0
H1234 H 0.38773 0.81084 0.87615 0.0
H1235 H 0.34676 0.79209 0.77063 0.0
H1236 H 0.3736 0.78885 0.78831 0.0
H1237 H 0.3744 0.83567 0.82763 0.0
H1238 H 0.34786 0.83935 0.80964 0.0
H1239 H 0.37576 0.79967 0.84167 0.0
H1240 H 0.40342 0.84432 0.80481 0.0
H1241 H 0.40761 0.85618 0.77535 0.0
H1242 H 0.42138 0.80616 0.75686 0.0
H1243 H 0.41702 0.79388 0.78615 0.0
C1244 C 0.45428 0.80394 0.88265 0.0
C1245 C 0.46512 0.79488 0.87451 0.0
C1246 C 0.43839 0.80435 0.87272 0.0
C1247 C 0.43304 0.79555 0.85453 0.0
C1248 C 0.44355 0.78561 0.8468 0.0
C1249 C 0.45953 0.78543 0.85665 0.0
C1250 C 0.41778 0.7988 0.84287 0.0
C1251 C 0.42004 0.80566 0.82605 0.0
C1252 C 0.40158 0.79664 0.84862 0.0
C1253 C 0.39759 0.78818 0.86541 0.0
C1254 C 0.40018 0.77045 0.8682 0.0
C1255 C 0.39532 0.762 0.88342 0.0
C1256 C 0.38778 0.77111 0.89592 0.0
C1257 C 0.38513 0.78871 0.89325 0.0
C1258 C 0.38998 0.79723 0.87807 0.0
C1259 C 0.35297 0.80196 0.78279 0.0
C1260 C 0.34548 0.81603 0.7888 0.0
C1261 C 0.36818 0.80007 0.79287 0.0
C1262 C 0.37581 0.81198 0.80925 0.0
C1263 C 0.36862 0.82641 0.81498 0.0
C1264 C 0.35364 0.8286 0.80465 0.0
C1265 C 0.39072 0.80854 0.82092 0.0
C1266 C 0.38833 0.80172 0.83759 0.0
C1267 C 0.40671 0.81058 0.81504 0.0
C1268 C 0.40981 0.81814 0.79762 0.0
C1269 C 0.40726 0.83581 0.79443 0.0
C1270 C 0.40967 0.84261 0.77777 0.0
C1271 C 0.41474 0.83192 0.76423 0.0
C1272 C 0.41746 0.81443 0.76736 0.0
C1273 C 0.41505 0.80755 0.784 0.0
H1274 H 0.41658 0.83719 0.75133 0.0
H1275 H 0.38394 0.76449 0.90763 0.0
H1276 H 0.57361 0.25668 0.14746 0.0
H1277 H 0.57226 0.22477 0.13404 0.0
H1278 H 0.5429 0.23336 0.08387 0.0
H1279 H 0.54477 0.26571 0.09709 0.0
H1280 H 0.5282 0.19932 0.0993 0.0
H1281 H 0.5822 0.23265 0.08405 0.0
H1282 H 0.61188 0.25318 0.09087 0.0
H1283 H 0.62762 0.21435 0.12497 0.0
H1284 H 0.59792 0.19374 0.11866 0.0
H1285 H 0.52387 0.12256 0.03601 0.0
H1286 H 0.52944 0.15345 0.0533 0.0
H1287 H 0.56455 0.13854 0.0951 0.0
H1288 H 0.55902 0.10703 0.07739 0.0
H1289 H 0.5778 0.17504 0.08734 0.0
H1290 H 0.52569 0.14205 0.10403 0.0
H1291 H 0.49607 0.1217 0.10046 0.0
H1292 H 0.47718 0.15965 0.06753 0.0
H1293 H 0.50673 0.18011 0.07068 0.0
C1294 C 0.56689 0.25181 0.13353 0.0
C1295 C 0.55913 0.26372 0.1234 0.0
C1296 C 0.56624 0.23356 0.12583 0.0
C1297 C 0.5575 0.22655 0.1079 0.0
C1298 C 0.54977 0.23842 0.09771 0.0
C1299 C 0.55083 0.25692 0.10526 0.0
C1300 C 0.5556 0.20653 0.10018 0.0
C1301 C 0.53904 0.19411 0.09645 0.0
C1302 C 0.56984 0.19938 0.09733 0.0
C1303 C 0.58774 0.21174 0.10106 0.0
C1304 C 0.59192 0.22857 0.09318 0.0
C1305 C 0.60877 0.24022 0.09692 0.0
C1306 C 0.62161 0.23511 0.1084 0.0
C1307 C 0.61764 0.21831 0.11612 0.0
C1308 C 0.6008 0.20664 0.11246 0.0
C1309 C 0.53266 0.12562 0.04899 0.0
C1310 C 0.54079 0.11206 0.05535 0.0
C1311 C 0.53584 0.14345 0.05893 0.0
C1312 C 0.54729 0.14852 0.07572 0.0
C1313 C 0.55558 0.13506 0.08224 0.0
C1314 C 0.55227 0.11695 0.07222 0.0
C1315 C 0.55025 0.1679 0.08598 0.0
C1316 C 0.56697 0.18021 0.09026 0.0
C1317 C 0.53621 0.17497 0.08974 0.0
C1318 C 0.51846 0.16252 0.08745 0.0
C1319 C 0.51525 0.14595 0.09586 0.0
C1320 C 0.49846 0.13442 0.09395 0.0
C1321 C 0.48476 0.13935 0.08373 0.0
C1322 C 0.48781 0.15583 0.07541 0.0
C1323 C 0.50458 0.16741 0.07727 0.0
H1324 H 0.47176 0.13042 0.08229 0.0
H1325 H 0.63465 0.24413 0.11127 0.0
H1326 H 0.08134 0.30421 0.39818 0.0
H1327 H 0.10494 0.3042 0.38119 0.0
H1328 H 0.0682 0.28705 0.33065 0.0
H1329 H 0.0446 0.28543 0.34797 0.0
H1330 H 0.08862 0.26852 0.32825 0.0
H1331 H 0.09991 0.33483 0.34666 0.0
H1332 H 0.10581 0.36438 0.36751 0.0
H1333 H 0.1515 0.35324 0.39584 0.0
H1334 H 0.14574 0.32349 0.37537 0.0
H1335 H 0.1577 0.28294 0.2747 0.0
H1336 H 0.13241 0.28552 0.28817 0.0
H1337 H 0.16211 0.29115 0.34232 0.0
H1338 H 0.18718 0.28827 0.3291 0.0
H1339 H 0.14454 0.31713 0.34028 0.0
H1340 H 0.13187 0.25008 0.32113 0.0
H1341 H 0.12493 0.22061 0.29998 0.0
H1342 H 0.0807 0.23448 0.27152 0.0
H1343 H 0.08757 0.26423 0.29225 0.0
C1344 C 0.07837 0.3006 0.38342 0.0
C1345 C 0.06114 0.29482 0.37441 0.0
C1346 C 0.09191 0.30077 0.37361 0.0
C1347 C 0.08862 0.29597 0.3544 0.0
C1348 C 0.07131 0.29074 0.3454 0.0
C1349 C 0.05776 0.2899 0.3553 0.0
C1350 C 0.10295 0.29516 0.34382 0.0
C1351 C 0.10068 0.27945 0.33066 0.0
C1352 C 0.119 0.30909 0.34703 0.0
C1353 C 0.12228 0.32683 0.35956 0.0
C1354 C 0.11112 0.33859 0.35744 0.0
C1355 C 0.11446 0.35539 0.36918 0.0
C1356 C 0.12899 0.36066 0.38302 0.0
C1357 C 0.14023 0.34913 0.38514 0.0
C1358 C 0.13693 0.33231 0.37347 0.0
C1359 C 0.15884 0.28457 0.28948 0.0
C1360 C 0.17467 0.28551 0.30075 0.0
C1361 C 0.14431 0.28605 0.29718 0.0
C1362 C 0.14525 0.28846 0.31632 0.0
C1363 C 0.16101 0.28941 0.32753 0.0
C1364 C 0.17545 0.28789 0.3199 0.0
C1365 C 0.13015 0.2905 0.32496 0.0
C1366 C 0.13232 0.30643 0.33774 0.0
C1367 C 0.11392 0.27696 0.32117 0.0
C1368 C 0.11042 0.25957 0.30808 0.0
C1369 C 0.12085 0.24703 0.31016 0.0
C1370 C 0.11688 0.23022 0.29829 0.0
C1371 C 0.10243 0.22571 0.28437 0.0
C1372 C 0.09194 0.23802 0.28225 0.0
C1373 C 0.09588 0.25487 0.29403 0.0
H1374 H 0.09932 0.21263 0.27527 0.0
H1375 H 0.13157 0.37369 0.39207 0.0
H1376 H 0.92205 0.06673 0.16381 0.0
H1377 H 0.94267 0.07273 0.14251 0.0
H1378 H 0.97119 0.03755 0.16945 0.0
H1379 H 0.95118 0.03232 0.19109 0.0
H1380 H 0.99181 0.06987 0.16623 0.0
H1381 H 0.94742 0.02242 0.12686 0.0
H1382 H 0.91689 0.00814 0.11323 0.0
H1383 H 0.91595 0.05659 0.08551 0.0
H1384 H 0.94645 0.07127 0.09917 0.0
H1385 H 0.04699 0.06595 0.10142 0.0
H1386 H 0.02508 0.05772 0.12084 0.0
H1387 H 0.99878 0.0964 0.0971 0.0
H1388 H 0.02068 0.10439 0.07739 0.0
H1389 H 0.97685 0.06138 0.09832 0.0
H1390 H 0.0229 0.10805 0.13936 0.0
H1391 H 0.05281 0.12134 0.15556 0.0
H1392 H 0.05033 0.07129 0.18157 0.0
H1393 H 0.02049 0.05759 0.1653 0.0
C1394 C 0.93261 0.06013 0.16487 0.0
C1395 C 0.93527 0.04921 0.17891 0.0
C1396 C 0.9443 0.0635 0.15279 0.0
C1397 C 0.95834 0.05549 0.15447 0.0
C1398 C 0.96048 0.04391 0.16808 0.0
C1399 C 0.94908 0.04092 0.18033 0.0
C1400 C 0.97145 0.06001 0.14278 0.0
C1401 C 0.9886 0.06777 0.15138 0.0
C1402 C 0.96709 0.05736 0.12349 0.0
C1403 C 0.94921 0.04796 0.11405 0.0
C1404 C 0.94072 0.03 0.11779 0.0
C1405 C 0.92341 0.02185 0.11011 0.0
C1406 C 0.91448 0.03145 0.09852 0.0
C1407 C 0.9229 0.04915 0.09446 0.0
C1408 C 0.94022 0.05738 0.10213 0.0
C1409 C 0.03683 0.07313 0.1009 0.0
C1410 C 0.03569 0.0863 0.08866 0.0
C1411 C 0.02428 0.06828 0.11175 0.0
C1412 C 0.0105 0.07663 0.11045 0.0
C1413 C 0.00944 0.08996 0.0983 0.0
C1414 C 0.02203 0.09478 0.08739 0.0
C1415 C 0.99721 0.07139 0.12183 0.0
C1416 C 0.98004 0.06341 0.11317 0.0
C1417 C 1.00159 0.07345 0.14114 0.0
C1418 C 0.01951 0.08175 0.151 0.0
C1419 C 0.02878 0.09983 0.14843 0.0
C1420 C 0.04571 0.10744 0.15764 0.0
C1421 C 0.05348 0.09715 0.16956 0.0
C1422 C 0.04431 0.07924 0.17232 0.0
C1423 C 0.02738 0.07155 0.16312 0.0
H1424 H 0.06659 0.10308 0.17668 0.0
H1425 H 0.90105 0.02518 0.09268 0.0
H1426 H 0.28986 0.71731 0.45123 0.0
H1427 H 0.28874 0.72667 0.42033 0.0
H1428 H 0.24802 0.75261 0.42883 0.0
H1429 H 0.24897 0.74319 0.45968 0.0
H1430 H 0.24262 0.7346 0.39291 0.0
H1431 H 0.28907 0.7785 0.43556 0.0
H1432 H 0.3157 0.78782 0.45866 0.0
H1433 H 0.34288 0.76533 0.42067 0.0
H1434 H 0.31631 0.75555 0.39746 0.0
H1435 H 0.25997 0.80766 0.33232 0.0
H1436 H 0.25549 0.79068 0.35913 0.0
H1437 H 0.28879 0.75687 0.344 0.0
H1438 H 0.2926 0.77313 0.3169 0.0
H1439 H 0.29694 0.77691 0.38172 0.0
H1440 H 0.25253 0.73509 0.33819 0.0
H1441 H 0.22688 0.72606 0.31386 0.0
H1442 H 0.19652 0.74325 0.35136 0.0
H1443 H 0.22214 0.75297 0.37584 0.0
C1444 C 0.28066 0.725 0.44656 0.0
C1445 C 0.26977 0.72982 0.45818 0.0
C1446 C 0.27996 0.73027 0.42881 0.0
C1447 C 0.2684 0.74055 0.42222 0.0
C1448 C 0.25706 0.74473 0.43352 0.0
C1449 C 0.25777 0.7395 0.45129 0.0
C1450 C 0.26923 0.74838 0.40434 0.0
C1451 C 0.25445 0.74399 0.39054 0.0
C1452 C 0.28473 0.76029 0.40091 0.0
C1453 C 0.30066 0.7661 0.41488 0.0
C1454 C 0.30068 0.77539 0.4322 0.0
C1455 C 0.31577 0.78076 0.4453 0.0
C1456 C 0.33096 0.77712 0.44116 0.0
C1457 C 0.3311 0.7681 0.42388 0.0
C1458 C 0.31603 0.76263 0.41076 0.0
C1459 C 0.2662 0.79652 0.33473 0.0
C1460 C 0.27666 0.79169 0.32267 0.0
C1461 C 0.26356 0.78677 0.34992 0.0
C1462 C 0.27174 0.77244 0.35347 0.0
C1463 C 0.28226 0.76776 0.34144 0.0
C1464 C 0.28446 0.77707 0.32602 0.0
C1465 C 0.27042 0.76328 0.37044 0.0
C1466 C 0.28512 0.76747 0.38407 0.0
C1467 C 0.25493 0.75106 0.37348 0.0
C1468 C 0.23938 0.74506 0.35884 0.0
C1469 C 0.24047 0.73722 0.34123 0.0
C1470 C 0.22591 0.73192 0.3274 0.0
C1471 C 0.21009 0.73411 0.33105 0.0
C1472 C 0.2088 0.7416 0.34855 0.0
C1473 C 0.22335 0.74703 0.36241 0.0
H1474 H 0.19883 0.72996 0.32034 0.0
H1475 H 0.34264 0.78132 0.45131 0.0
H1476 H 0.64013 0.99543 0.70043 0.0
H1477 H 0.63009 0.01174 0.67544 0.0
H1478 H 0.58204 0.00664 0.69534 0.0
H1479 H 0.59166 0.99002 0.71988 0.0
H1480 H 0.57711 0.99378 0.6607 0.0
H1481 H 0.61092 0.04914 0.69942 0.0
H1482 H 0.63555 0.07335 0.71776 0.0
H1483 H 0.66109 0.07827 0.67107 0.0
H1484 H 0.63669 0.05388 0.65246 0.0
H1485 H 0.53563 0.04371 0.60283 0.0
H1486 H 0.55056 0.03588 0.6309 0.0
H1487 H 0.59735 0.0442 0.60794 0.0
H1488 H 0.58259 0.05317 0.58038 0.0
H1489 H 0.60464 0.05615 0.64364 0.0
H1490 H 0.56816 0.99868 0.60577 0.0
H1491 H 0.54067 0.97764 0.58895 0.0
H1492 H 0.5182 0.97952 0.63771 0.0
H1493 H 0.5455 1.00062 0.65474 0.0
C1494 C 0.62729 0.99749 0.69924 0.0
C1495 C 0.61652 0.99105 0.71188 0.0
C1496 C 0.62176 0.00717 0.68524 0.0
C1497 C 0.60546 0.01061 0.68378 0.0
C1498 C 0.59471 0.00415 0.69633 0.0
C1499 C 0.60011 0.99434 0.71014 0.0
C1500 C 0.59846 0.01858 0.66786 0.0
C1501 C 0.58307 0.00755 0.65714 0.0
C1502 C 0.60653 0.03631 0.66299 0.0
C1503 C 0.62203 0.04946 0.6746 0.0
C1504 C 0.62194 0.05504 0.69315 0.0
C1505 C 0.6358 0.0689 0.70356 0.0
C1506 C 0.64982 0.07735 0.69557 0.0
C1507 C 0.65019 0.07171 0.67723 0.0
C1508 C 0.63635 0.05786 0.66675 0.0
C1509 C 0.54915 0.04402 0.60393 0.0
C1510 C 0.55805 0.04884 0.58953 0.0
C1511 C 0.55764 0.03953 0.61988 0.0
C1512 C 0.57492 0.03895 0.62125 0.0
C1513 C 0.58399 0.04448 0.60711 0.0
C1514 C 0.5756 0.04956 0.59138 0.0
C1515 C 0.58313 0.03147 0.63689 0.0
C1516 C 0.59882 0.0424 0.6473 0.0
C1517 C 0.57523 0.01376 0.64185 0.0
C1518 C 0.5588 1.00129 0.63146 0.0
C1519 C 0.55731 0.99468 0.61284 0.0
C1520 C 0.54178 0.98272 0.60329 0.0
C1521 C 0.52769 0.97727 0.61225 0.0
C1522 C 0.5291 0.98374 0.63078 0.0
C1523 C 0.5446 0.99567 0.64038 0.0
H1524 H 0.51569 0.96799 0.60483 0.0
H1525 H 0.66028 0.08841 0.70356 0.0
H1526 H 0.2984 0.41065 0.97514 0.0
H1527 H 0.29762 0.39945 0.94295 0.0
H1528 H 0.2889 0.3424 0.95602 0.0
H1529 H 0.29107 0.35386 0.98833 0.0
H1530 H 0.31155 0.34634 0.93735 0.0
H1531 H 0.25831 0.36455 0.92898 0.0
H1532 H 0.23852 0.38497 0.92918 0.0
H1533 H 0.26678 0.41995 0.89471 0.0
H1534 H 0.28714 0.40019 0.89487 0.0
H1535 H 0.28572 0.29888 0.84537 0.0
H1536 H 0.28521 0.31253 0.87654 0.0
H1537 H 0.31407 0.36666 0.86571 0.0
H1538 H 0.31518 0.3528 0.83471 0.0
H1539 H 0.28208 0.36549 0.88186 0.0
H1540 H 0.33537 0.34754 0.89136 0.0
H1541 H 0.35323 0.32526 0.88859 0.0
H1542 H 0.32199 0.28802 0.91908 0.0
H1543 H 0.30374 0.30995 0.92176 0.0
C1544 C 0.29599 0.39568 0.97102 0.0
C1545 C 0.29478 0.38312 0.98425 0.0
C1546 C 0.29547 0.38923 0.95253 0.0
C1547 C 0.29311 0.36995 0.94674 0.0
C1548 C 0.29093 0.35735 0.95994 0.0
C1549 C 0.29204 0.36387 0.97845 0.0
C1550 C 0.29445 0.36294 0.92754 0.0
C1551 C 0.30478 0.35042 0.92533 0.0
C1552 C 0.28625 0.36861 0.91153 0.0
C1553 C 0.27443 0.381 0.91218 0.0
C1554 C 0.26049 0.37676 0.92169 0.0
C1555 C 0.24912 0.3882 0.92169 0.0
C1556 C 0.25136 0.40373 0.91195 0.0
C1557 C 0.26507 0.40795 0.90229 0.0
C1558 C 0.27657 0.39668 0.90241 0.0
C1559 C 0.29219 0.31362 0.84979 0.0
C1560 C 0.3007 0.32477 0.83783 0.0
C1561 C 0.29181 0.32141 0.86752 0.0
C1562 C 0.29954 0.34063 0.8734 0.0
C1563 C 0.30803 0.35182 0.86143 0.0
C1564 C 0.30882 0.34388 0.84385 0.0
C1565 C 0.29874 0.3489 0.89212 0.0
C1566 C 0.28867 0.3616 0.89411 0.0
C1567 C 0.30698 0.34336 0.90794 0.0
C1568 C 0.31811 0.33031 0.90663 0.0
C1569 C 0.33223 0.33453 0.89735 0.0
C1570 C 0.34243 0.32198 0.89582 0.0
C1571 C 0.33872 0.30521 0.90362 0.0
C1572 C 0.32483 0.301 0.91303 0.0
C1573 C 0.31456 0.3135 0.91457 0.0
H1574 H 0.34664 0.29551 0.90241 0.0
H1575 H 0.24247 0.41247 0.91186 0.0
H1576 H 0.92629 0.06818 0.28453 0.0
H1577 H 0.93934 0.07361 0.31711 0.0
H1578 H 0.9632 0.02821 0.30849 0.0
H1579 H 0.95026 0.02268 0.27626 0.0
H1580 H 0.95114 0.02824 0.34028 0.0
H1581 H 0.98431 0.07174 0.3057 0.0
H1582 H 0.99013 0.09739 0.28648 0.0
H1583 H 0.9786 0.13496 0.32726 0.0
H1584 H 0.97238 0.10938 0.34657 0.0
H1585 H 0.0268 0.04124 0.40094 0.0
H1586 H 0.00807 0.04112 0.37217 0.0
H1587 H 0.99202 0.0877 0.39638 0.0
H1588 H 0.01126 0.08832 0.42514 0.0
H1589 H 0.99524 0.0892 0.36038 0.0
H1590 H 0.9681 0.04335 0.39729 0.0
H1591 H 0.96545 0.01624 0.41488 0.0
H1592 H 0.96979 0.98121 0.36758 0.0
H1593 H 0.97265 0.00813 0.34977 0.0
C1594 C 0.93417 0.05928 0.28972 0.0
C1595 C 0.93762 0.04528 0.27798 0.0
C1596 C 0.94153 0.06236 0.30822 0.0
C1597 C 0.95224 0.05137 0.31496 0.0
C1598 C 0.95491 0.03678 0.30342 0.0
C1599 C 0.9477 0.0338 0.28501 0.0
C1600 C 0.96213 0.05593 0.33355 0.0
C1601 C 0.96073 0.04159 0.3448 0.0
C1602 C 0.97445 0.07343 0.33929 0.0
C1603 C 0.97751 0.08857 0.32738 0.0
C1604 C 0.98273 0.08538 0.31042 0.0
C1605 C 0.98616 0.09992 0.29955 0.0
C1606 C 0.98464 0.11777 0.3056 0.0
C1607 C 0.97968 0.1211 0.32254 0.0
C1608 C 0.97616 0.10658 0.33343 0.0
C1609 C 0.01991 0.05202 0.39986 0.0
C1610 C 0.02016 0.06462 0.41518 0.0
C1611 C 0.00899 0.05168 0.3836 0.0
C1612 C 0.99826 0.06387 0.38266 0.0
C1613 C 1.00002 0.07795 0.39718 0.0
C1614 C 0.01104 0.07838 0.41344 0.0
C1615 C 0.98466 0.06129 0.36679 0.0
C1616 C 0.98532 0.07605 0.35615 0.0
C1617 C 0.97204 0.04392 0.36135 0.0
C1618 C 0.97067 0.02781 0.37223 0.0
C1619 C 0.96864 0.02991 0.39069 0.0
C1620 C 0.96706 0.01456 0.40068 0.0
C1621 C 0.96746 0.99702 0.39236 0.0
C1622 C 0.96947 0.9948 0.37402 0.0
C1623 C 0.97104 0.01009 0.36396 0.0
H1624 H 0.9662 0.98515 0.40011 0.0
H1625 H 0.98739 0.12904 0.2972 0.0
H1626 H 0.27369 0.75209 0.55735 0.0
H1627 H 0.27374 0.76556 0.58867 0.0
H1628 H 0.29504 0.72233 0.61013 0.0
H1629 H 0.29477 0.70864 0.57894 0.0
H1630 H 0.27059 0.72848 0.62932 0.0
H1631 H 0.32055 0.76789 0.61044 0.0
H1632 H 0.33401 0.78701 0.58821 0.0
H1633 H 0.30188 0.82446 0.59472 0.0
H1634 H 0.28808 0.80541 0.61684 0.0
H1635 H 0.29719 0.77392 0.72335 0.0
H1636 H 0.29401 0.75709 0.69238 0.0
H1637 H 0.28195 0.80454 0.66871 0.0
H1638 H 0.28606 0.82145 0.69922 0.0
H1639 H 0.30167 0.79534 0.65017 0.0
H1640 H 0.25153 0.75723 0.66887 0.0
H1641 H 0.23474 0.7366 0.68788 0.0
H1642 H 0.26386 0.69626 0.67998 0.0
H1643 H 0.28096 0.71676 0.6611 0.0
C1644 C 0.27857 0.74554 0.56871 0.0
C1645 C 0.28449 0.72938 0.56542 0.0
C1646 C 0.27854 0.75324 0.58672 0.0
C1647 C 0.28457 0.74516 0.60203 0.0
C1648 C 0.29031 0.72894 0.59874 0.0
C1649 C 0.29031 0.72121 0.58077 0.0
C1650 C 0.28552 0.75394 0.62142 0.0
C1651 C 0.27755 0.74306 0.63397 0.0
C1652 C 0.29421 0.77307 0.62756 0.0
C1653 C 0.30328 0.78523 0.61526 0.0
C1654 C 0.31641 0.78025 0.60718 0.0
C1655 C 0.32406 0.79104 0.59456 0.0
C1656 C 0.31879 0.80694 0.59005 0.0
C1657 C 0.30595 0.81216 0.59825 0.0
C1658 C 0.29824 0.8014 0.61086 0.0
C1659 C 0.29369 0.78062 0.71151 0.0
C1660 C 0.292 0.79914 0.71388 0.0
C1661 C 0.29177 0.77094 0.69367 0.0
C1662 C 0.28767 0.77935 0.67776 0.0
C1663 C 0.28535 0.79758 0.68039 0.0
C1664 C 0.28763 0.80729 0.69802 0.0
C1665 C 0.28656 0.76998 0.65841 0.0
C1666 C 0.29462 0.78077 0.64575 0.0
C1667 C 0.27772 0.7508 0.65214 0.0
C1668 C 0.26769 0.73865 0.66379 0.0
C1669 C 0.25448 0.74406 0.67135 0.0
C1670 C 0.24487 0.73236 0.68207 0.0
C1671 C 0.24828 0.71517 0.6852 0.0
C1672 C 0.26127 0.70961 0.67759 0.0
C1673 C 0.27092 0.72125 0.66688 0.0
H1674 H 0.24082 0.70613 0.69348 0.0
H1675 H 0.32467 0.81522 0.58021 0.0
H1676 H 0.60053 0.97667 0.81911 0.0
H1677 H 0.59718 0.99386 0.84756 0.0
H1678 H 0.63545 0.04274 0.83839 0.0
H1679 H 0.63966 0.02512 0.81088 0.0
H1680 H 0.63588 0.04288 0.8739 0.0
H1681 H 0.59174 0.03562 0.82029 0.0
H1682 H 0.56982 0.01697 0.79444 0.0
H1683 H 0.54174 0.9867 0.83208 0.0
H1684 H 0.56356 0.00506 0.85812 0.0
H1685 H 0.59362 0.09729 0.93107 0.0
H1686 H 0.60642 0.08827 0.9045 0.0
H1687 H 0.57723 0.03051 0.90288 0.0
H1688 H 0.56459 0.03941 0.92874 0.0
H1689 H 0.57426 0.04236 0.86972 0.0
H1690 H 0.61979 0.04703 0.92295 0.0
H1691 H 0.64142 0.06551 0.94908 0.0
H1692 H 0.66644 0.10078 0.91266 0.0
H1693 H 0.64475 0.08268 0.88635 0.0
C1694 C 0.60872 0.99075 0.82374 0.0
C1695 C 0.62037 0.99966 0.81312 0.0
C1696 C 0.60672 1.00064 0.8398 0.0
C1697 C 0.61568 0.01977 0.84469 0.0
C1698 C 0.62837 0.02806 0.83484 0.0
C1699 C 0.63075 0.018 0.81917 0.0
C1700 C 0.61018 0.03175 0.85831 0.0
C1701 C 0.62243 0.0429 0.87293 0.0
C1702 C 0.59273 0.03221 0.85675 0.0
C1703 C 0.5793 0.02167 0.84112 0.0
C1704 C 0.58088 0.02499 0.82303 0.0
C1705 C 0.56849 0.01446 0.80835 0.0
C1706 C 0.5544 1.00065 0.81162 0.0
C1707 C 0.55264 0.99741 0.82957 0.0
C1708 C 0.56499 0.0079 0.84429 0.0
C1709 C 0.5901 0.08275 0.92489 0.0
C1710 C 0.57837 0.06892 0.93183 0.0
C1711 C 0.59735 0.07762 0.90986 0.0
C1712 C 0.5927 0.05874 0.90181 0.0
C1713 C 0.58093 0.04515 0.90886 0.0
C1714 C 0.57383 0.05019 0.92368 0.0
C1715 C 0.59969 0.05235 0.88597 0.0
C1716 C 0.58775 0.04254 0.87058 0.0
C1717 C 0.61735 0.0531 0.88695 0.0
C1718 C 0.63055 0.06366 0.90273 0.0
C1719 C 0.62984 0.0588 0.92054 0.0
C1720 C 0.64211 0.0692 0.93538 0.0
C1721 C 0.65526 0.08435 0.93254 0.0
C1722 C 0.65622 0.08908 0.91484 0.0
C1723 C 0.64394 0.07876 0.89997 0.0
H1724 H 0.66475 0.09239 0.94405 0.0
H1725 H 0.54485 0.99247 0.80023 0.0
H1726 H 0.28273 0.40929 0.10132 0.0
H1727 H 0.27957 0.39371 0.1288 0.0
H1728 H 0.30784 0.3554 0.11051 0.0
H1729 H 0.30994 0.3702 0.08241 0.0
H1730 H 0.2855 0.33628 0.12522 0.0
H1731 H 0.32444 0.39675 0.14774 0.0
H1732 H 0.33434 0.43144 0.15232 0.0
H1733 H 0.29125 0.43415 0.17873 0.0
H1734 H 0.28097 0.39948 0.17412 0.0
H1735 H 0.29937 0.3037 0.21403 0.0
H1736 H 0.30393 0.31888 0.18621 0.0
H1737 H 0.2681 0.35113 0.19687 0.0
H1738 H 0.26337 0.33573 0.22436 0.0
H1739 H 0.29562 0.37333 0.18647 0.0
H1740 H 0.25725 0.31201 0.16324 0.0
H1741 H 0.24725 0.27739 0.15665 0.0
H1742 H 0.29116 0.27651 0.13101 0.0
H1743 H 0.30153 0.3111 0.13766 0.0
C1744 C 0.28824 0.3975 0.10312 0.0
C1745 C 0.29665 0.3911 0.08956 0.0
C1746 C 0.2866 0.38865 0.11906 0.0
C1747 C 0.29387 0.37352 0.12236 0.0
C1748 C 0.30209 0.367 0.10864 0.0
C1749 C 0.30333 0.37553 0.09246 0.0
C1750 C 0.29268 0.36429 0.1398 0.0
C1751 C 0.28809 0.3445 0.13861 0.0
C1752 C 0.29563 0.37469 0.15752 0.0
C1753 C 0.30187 0.39552 0.16045 0.0
C1754 C 0.31703 0.40475 0.15444 0.0
C1755 C 0.32271 0.42441 0.15705 0.0
C1756 C 0.31341 0.43499 0.16577 0.0
C1757 C 0.29843 0.42593 0.17196 0.0
C1758 C 0.29269 0.40628 0.16937 0.0
C1759 C 0.29266 0.31421 0.21053 0.0
C1760 C 0.28116 0.31868 0.22157 0.0
C1761 C 0.29512 0.32278 0.19447 0.0
C1762 C 0.28626 0.33617 0.1891 0.0
C1763 C 0.27513 0.34091 0.20049 0.0
C1764 C 0.27246 0.33213 0.2163 0.0
C1765 C 0.28852 0.34537 0.17183 0.0
C1766 C 0.29326 0.36516 0.17307 0.0
C1767 C 0.28601 0.33497 0.1542 0.0
C1768 C 0.28031 0.31412 0.15122 0.0
C1769 C 0.26493 0.30441 0.15648 0.0
C1770 C 0.25915 0.2848 0.15265 0.0
C1771 C 0.2686 0.27475 0.14348 0.0
C1772 C 0.28388 0.2843 0.13816 0.0
C1773 C 0.28972 0.3039 0.14198 0.0
H1774 H 0.26405 0.25958 0.14044 0.0
H1775 H 0.31782 0.45021 0.16777 0.0
H1776 H 0.27359 0.99452 0.062 0.0
H1777 H 0.25026 0.00875 0.06711 0.0
H1778 H 0.21423 0.95361 0.05702 0.0
H1779 H 0.23738 0.93972 0.05016 0.0
H1780 H 0.19814 0.97393 0.04343 0.0
H1781 H 0.23181 0.98306 0.10307 0.0
H1782 H 0.25869 0.99261 0.12583 0.0
H1783 H 0.26589 0.04993 0.11502 0.0
H1784 H 0.23912 0.04069 0.09206 0.0
H1785 H 0.13129 0.01106 0.06913 0.0
H1786 H 0.15375 0.99412 0.07147 0.0
H1787 H 0.19254 0.0465 0.07393 0.0
H1788 H 0.17021 0.0635 0.07268 0.0
H1789 H 0.20609 0.02528 0.09401 0.0
H1790 H 0.1712 0.01227 0.03187 0.0
H1791 H 0.14351 1.00002 0.01056 0.0
H1792 H 0.13756 0.94586 0.0295 0.0
H1793 H 0.16509 0.95788 0.05108 0.0
C1794 C 0.26065 0.98549 0.06077 0.0
C1795 C 0.2573 0.96603 0.05556 0.0
C1796 C 0.24727 0.9936 0.06398 0.0
C1797 C 0.2303 0.98235 0.06303 0.0
C1798 C 0.22705 0.9628 0.05789 0.0
C1799 C 0.24032 0.9548 0.05396 0.0
C1800 C 0.21588 0.99094 0.06669 0.0
C1801 C 0.19992 0.98491 0.05474 0.0
C1802 C 0.21782 0.00537 0.08139 0.0
C1803 C 0.23351 0.01116 0.09577 0.0
C1804 C 0.23912 0.9977 0.10555 0.0
C1805 C 0.25435 1.00305 0.11847 0.0
C1806 C 0.26401 0.02186 0.12184 0.0
C1807 C 0.25839 0.03537 0.11239 0.0
C1808 C 0.24316 0.03009 0.09946 0.0
C1809 C 0.14463 0.01897 0.07035 0.0
C1810 C 0.14889 0.03864 0.07045 0.0
C1811 C 0.15752 0.00925 0.07158 0.0
C1812 C 0.17497 0.01883 0.0722 0.0
C1813 C 0.17927 0.0386 0.07327 0.0
C1814 C 0.16644 0.04836 0.07252 0.0
C1815 C 0.18858 0.00843 0.07054 0.0
C1816 C 0.20437 0.01413 0.08286 0.0
C1817 C 0.18634 0.99327 0.05652 0.0
C1818 C 0.17011 0.986 0.04314 0.0
C1819 C 0.16397 0.99776 0.03148 0.0
C1820 C 0.14829 0.99086 0.01939 0.0
C1821 C 0.13877 0.97218 0.0187 0.0
C1822 C 0.14493 0.96033 0.03005 0.0
C1823 C 0.16057 0.96717 0.0422 0.0
H1824 H 0.12663 0.96689 0.00936 0.0
H1825 H 0.27583 0.02596 0.13178 0.0
H1826 H 0.72979 0.65789 0.99542 0.0
H1827 H 0.70065 0.63996 0.99849 0.0
H1828 H 0.70942 0.66504 0.05483 0.0
H1829 H 0.73853 0.68267 0.05175 0.0
H1830 H 0.69365 0.62902 0.05276 0.0
H1831 H 0.68281 0.67923 0.02206 0.0
H1832 H 0.68529 0.70112 0.99877 0.0
H1833 H 0.66194 0.65495 0.9562 0.0
H1834 H 0.65947 0.63273 0.97926 0.0
H1835 H 0.60175 0.6004 0.05862 0.0
H1836 H 0.63104 0.62012 0.05818 0.0
H1837 H 0.63156 0.58868 0.00678 0.0
H1838 H 0.60276 0.56856 0.00759 0.0
H1839 H 0.64233 0.62984 0.00796 0.0
H1840 H 0.65424 0.57996 0.04199 0.0
H1841 H 0.65362 0.56034 0.06722 0.0
H1842 H 0.67551 0.60981 0.10637 0.0
H1843 H 0.67607 0.62975 0.08137 0.0
C1844 C 0.72545 0.65947 0.00843 0.0
C1845 C 0.73638 0.67159 0.02335 0.0
C1846 C 0.70876 0.64932 0.01019 0.0
C1847 C 0.70262 0.65119 0.02689 0.0
C1848 C 0.71372 0.66322 0.04183 0.0
C1849 C 0.73036 0.67333 0.04005 0.0
C1850 C 0.6847 0.64059 0.02877 0.0
C1851 C 0.68243 0.62945 0.04309 0.0
C1852 C 0.6699 0.64105 0.01629 0.0
C1853 C 0.67107 0.6543 0.00236 0.0
C1854 C 0.67828 0.67373 0.00772 0.0
C1855 C 0.67967 0.6862 0.99457 0.0
C1856 C 0.67381 0.67943 0.97601 0.0
C1857 C 0.66648 0.66017 0.97058 0.0
C1858 C 0.66504 0.64763 0.98369 0.0
C1859 C 0.60817 0.5977 0.04727 0.0
C1860 C 0.59995 0.58287 0.03318 0.0
C1861 C 0.62493 0.60894 0.04704 0.0
C1862 C 0.63362 0.60593 0.03244 0.0
C1863 C 0.62524 0.59132 0.01822 0.0
C1864 C 0.60876 0.57977 0.01873 0.0
C1865 C 0.65134 0.61798 0.03174 0.0
C1866 C 0.65355 0.62949 0.01767 0.0
C1867 C 0.66603 0.61824 0.04477 0.0
C1868 C 0.66493 0.60635 0.05984 0.0
C1869 C 0.65865 0.58667 0.056 0.0
C1870 C 0.6584 0.57549 0.07025 0.0
C1871 C 0.66445 0.58382 0.08839 0.0
C1872 C 0.67077 0.60337 0.09232 0.0
C1873 C 0.67106 0.61462 0.07812 0.0
H1874 H 0.66431 0.57513 0.0994 0.0
H1875 H 0.67492 0.6891 0.96584 0.0
H1876 H 0.71323 0.51953 0.35653 0.0
H1877 H 0.71948 0.4919 0.34099 0.0
H1878 H 0.69122 0.50011 0.28987 0.0
H1879 H 0.68489 0.52754 0.3054 0.0
H1880 H 0.68996 0.46135 0.29283 0.0
H1881 H 0.72992 0.52118 0.29634 0.0
H1882 H 0.74719 0.5522 0.31224 0.0
H1883 H 0.77649 0.52536 0.34896 0.0
H1884 H 0.75914 0.49414 0.33348 0.0
H1885 H 0.75338 0.42213 0.24853 0.0
H1886 H 0.73603 0.44407 0.25493 0.0
H1887 H 0.74463 0.43704 0.31221 0.0
H1888 H 0.76136 0.4148 0.30596 0.0
H1889 H 0.75376 0.47686 0.29895 0.0
H1890 H 0.71042 0.41559 0.29313 0.0
H1891 H 0.69201 0.38617 0.27512 0.0
H1892 H 0.66834 0.41784 0.23841 0.0
H1893 H 0.68701 0.44751 0.25592 0.0
C1894 C 0.70786 0.51493 0.34217 0.0
C1895 C 0.69877 0.5255 0.33202 0.0
C1896 C 0.71138 0.49922 0.33331 0.0
C1897 C 0.70597 0.49421 0.31426 0.0
C1898 C 0.69545 0.50374 0.30454 0.0
C1899 C 0.69197 0.51942 0.31338 0.0
C1900 C 0.71405 0.48171 0.30416 0.0
C1901 C 0.70387 0.46475 0.29397 0.0
C1902 C 0.73213 0.48661 0.30504 0.0
C1903 C 0.74317 0.50533 0.31383 0.0
C1904 C 0.74002 0.5219 0.30784 0.0
C1905 C 0.7498 0.53951 0.31679 0.0
C1906 C 0.76291 0.54075 0.33162 0.0
C1907 C 0.76633 0.52438 0.33747 0.0
C1908 C 0.75653 0.50671 0.32861 0.0
C1909 C 0.75131 0.42502 0.26242 0.0
C1910 C 0.75836 0.41635 0.27669 0.0
C1911 C 0.74142 0.43752 0.26601 0.0
C1912 C 0.73894 0.44184 0.28397 0.0
C1913 C 0.74624 0.43356 0.29822 0.0
C1914 C 0.75572 0.42081 0.2946 0.0
C1915 C 0.72979 0.45595 0.28861 0.0
C1916 C 0.73981 0.4735 0.29757 0.0
C1917 C 0.71159 0.45171 0.28609 0.0
C1918 C 0.7004 0.4338 0.27564 0.0
C1919 C 0.70154 0.41632 0.28103 0.0
C1920 C 0.69099 0.39957 0.27095 0.0
C1921 C 0.67908 0.40012 0.25556 0.0
C1922 C 0.67764 0.41743 0.25027 0.0
C1923 C 0.68822 0.43421 0.26026 0.0
H1924 H 0.67091 0.38714 0.24779 0.0
H1925 H 0.77045 0.55441 0.33857 0.0
H1926 H 0.84226 0.48652 0.5463 0.0
H1927 H 0.87238 0.50538 0.55137 0.0
H1928 H 0.88968 0.45492 0.55435 0.0
H1929 H 0.85979 0.43599 0.54901 0.0
H1930 H 0.91085 0.48877 0.58018 0.0
H1931 H 0.8884 0.46555 0.51658 0.0
H1932 H 0.86593 0.45899 0.48896 0.0
H1933 H 0.86983 0.51811 0.49008 0.0
H1934 H 0.89215 0.52496 0.51794 0.0
H1935 H 0.99323 0.51945 0.55583 0.0
H1936 H 0.96401 0.50164 0.55761 0.0
H1937 H 0.94451 0.54782 0.54024 0.0
H1938 H 0.97378 0.56508 0.53713 0.0
H1939 H 0.92445 0.51591 0.52353 0.0
H1940 H 0.95164 0.53823 0.58668 0.0
H1941 H 0.97604 0.54195 0.6118 0.0
H1942 H 0.96474 0.48192 0.61088 0.0
H1943 H 0.94059 0.47782 0.58523 0.0
C1944 C 0.85248 0.47949 0.54815 0.0
C1945 C 0.84868 0.45978 0.54672 0.0
C1946 C 0.86963 0.49025 0.55125 0.0
C1947 C 0.88314 0.48146 0.55325 0.0
C1948 C 0.87939 0.46192 0.55297 0.0
C1949 C 0.86231 0.45114 0.54957 0.0
C1950 C 0.90086 0.49221 0.55257 0.0
C1951 C 0.91391 0.49476 0.56787 0.0
C1952 C 0.90477 0.49969 0.5364 0.0
C1953 C 0.89177 0.49574 0.51939 0.0
C1954 C 0.88437 0.47713 0.51099 0.0
C1955 C 0.87168 0.47336 0.4953 0.0
C1956 C 0.86642 0.48812 0.4878 0.0
C1957 C 0.8739 0.50669 0.49593 0.0
C1958 C 0.88658 0.51053 0.51166 0.0
C1959 C 0.98265 0.52577 0.55251 0.0
C1960 C 0.98555 0.54364 0.54666 0.0
C1961 C 0.96602 0.51566 0.5536 0.0
C1962 C 0.95216 0.52364 0.54961 0.0
C1963 C 0.95507 0.5415 0.54355 0.0
C1964 C 0.9717 0.55136 0.54185 0.0
C1965 C 0.93455 0.51319 0.55136 0.0
C1966 C 0.92146 0.51037 0.53607 0.0
C1967 C 0.93081 0.50526 0.5675 0.0
C1968 C 0.9443 0.50773 0.58399 0.0
C1969 C 0.9543 0.52582 0.59188 0.0
C1970 C 0.96815 0.52799 0.60617 0.0
C1971 C 0.97192 0.51218 0.613 0.0
C1972 C 0.96178 0.49416 0.6056 0.0
C1973 C 0.94802 0.4919 0.59116 0.0
H1974 H 0.98271 0.51389 0.62401 0.0
H1975 H 0.85657 0.48518 0.47566 0.0
H1976 H 0.40032 0.17509 0.32203 0.0
H1977 H 0.378 0.19164 0.31407 0.0
H1978 H 0.399 0.20656 0.26562 0.0
H1979 H 0.421 0.18963 0.27335 0.0
H1980 H 0.39145 0.23627 0.28696 0.0
H1981 H 0.36486 0.17263 0.25896 0.0
H1982 H 0.35585 0.13822 0.25895 0.0
H1983 H 0.32442 0.14501 0.29943 0.0
H1984 H 0.3334 0.1795 0.29981 0.0
H1985 H 0.32502 0.27107 0.24418 0.0
H1986 H 0.34583 0.25246 0.24943 0.0
H1987 H 0.31848 0.22592 0.28993 0.0
H1988 H 0.29728 0.24412 0.28421 0.0
H1989 H 0.32956 0.20144 0.2724 0.0
H1990 H 0.35597 0.26539 0.30035 0.0
H1991 H 0.36963 0.29959 0.30545 0.0
H1992 H 0.40402 0.29247 0.26825 0.0
H1993 H 0.39006 0.25861 0.26228 0.0
C1994 C 0.40031 0.18229 0.30994 0.0
C1995 C 0.41238 0.18153 0.29841 0.0
C1996 C 0.38751 0.19147 0.30529 0.0
C1997 C 0.38683 0.20006 0.28918 0.0
C1998 C 0.39934 0.1999 0.27806 0.0
C1999 C 0.41191 0.19042 0.28252 0.0
C2000 C 0.37311 0.20933 0.28391 0.0
C2001 C 0.37789 0.22872 0.28345 0.0
C2002 C 0.35553 0.19933 0.27991 0.0
C2003 C 0.34993 0.17862 0.27954 0.0
C2004 C 0.35612 0.16678 0.26795 0.0
C2005 C 0.351 0.14727 0.26786 0.0
C2006 C 0.33961 0.13943 0.27922 0.0
C2007 C 0.33325 0.1511 0.29065 0.0
C2008 C 0.33833 0.17063 0.29079 0.0
C2009 C 0.32317 0.2608 0.25377 0.0
C2010 C 0.30952 0.25887 0.2637 0.0
C2011 C 0.33522 0.25042 0.25698 0.0
C2012 C 0.33402 0.23822 0.27047 0.0
C2013 C 0.31972 0.23535 0.27953 0.0
C2014 C 0.30749 0.24556 0.27611 0.0
C2015 C 0.34779 0.22873 0.27538 0.0
C2016 C 0.34306 0.20917 0.27577 0.0
C2017 C 0.36552 0.23866 0.2794 0.0
C2018 C 0.37185 0.25944 0.28074 0.0
C2019 C 0.36608 0.27122 0.29284 0.0
C2020 C 0.37393 0.29059 0.29593 0.0
C2021 C 0.38768 0.29827 0.28719 0.0
C2022 C 0.39329 0.28669 0.27493 0.0
C2023 C 0.38534 0.26742 0.2716 0.0
H2024 H 0.39405 0.31315 0.29005 0.0
H2025 H 0.33567 0.12432 0.27915 0.0
H2026 H 0.3503 0.19692 0.52677 0.0
H2027 H 0.37763 0.1888 0.53507 0.0
H2028 H 0.3499 0.13503 0.54797 0.0
H2029 H 0.32279 0.14374 0.54094 0.0
H2030 H 0.37608 0.14663 0.57229 0.0
H2031 H 0.36984 0.14577 0.50556 0.0
H2032 H 0.36786 0.1595 0.47646 0.0
H2033 H 0.41588 0.20094 0.49676 0.0
H2034 H 0.418 0.18764 0.52606 0.0
H2035 H 0.43316 0.08942 0.56179 0.0
H2036 H 0.4107 0.10589 0.5621 0.0
H2037 H 0.44686 0.1576 0.55581 0.0
H2038 H 0.46955 0.14119 0.55566 0.0
H2039 H 0.41951 0.15202 0.5313 0.0
H2040 H 0.42839 0.1518 0.59551 0.0
H2041 H 0.43186 0.13983 0.62541 0.0
H2042 H 0.38091 0.10247 0.61131 0.0
H2043 H 0.37719 0.11401 0.58122 0.0
C2044 C 0.35005 0.18328 0.53118 0.0
C2045 C 0.33432 0.17088 0.53297 0.0
C2046 C 0.36574 0.17858 0.53589 0.0
C2047 C 0.36604 0.16106 0.54187 0.0
C2048 C 0.35023 0.14864 0.54345 0.0
C2049 C 0.33465 0.15356 0.53927 0.0
C2050 C 0.38261 0.15554 0.54678 0.0
C2051 C 0.38543 0.14759 0.56315 0.0
C2052 C 0.39551 0.15769 0.53553 0.0
C2053 C 0.39394 0.16588 0.51807 0.0
C2054 C 0.37987 0.15793 0.50387 0.0
C2055 C 0.37874 0.16562 0.48734 0.0
C2056 C 0.3917 0.18112 0.48479 0.0
C2057 C 0.40582 0.18898 0.49876 0.0
C2058 C 0.40698 0.18139 0.51534 0.0
C2059 C 0.43655 0.10441 0.56098 0.0
C2060 C 0.45325 0.11386 0.55852 0.0
C2061 C 0.4236 0.11387 0.56117 0.0
C2062 C 0.42697 0.13307 0.55901 0.0
C2063 C 0.44383 0.14277 0.5574 0.0
C2064 C 0.45681 0.13331 0.55721 0.0
C2065 C 0.41252 0.14235 0.55633 0.0
C2066 C 0.41018 0.15112 0.54048 0.0
C2067 C 0.40018 0.14111 0.56814 0.0
C2068 C 0.40257 0.13368 0.58601 0.0
C2069 C 0.41799 0.14087 0.59868 0.0
C2070 C 0.41999 0.1342 0.6157 0.0
C2071 C 0.40663 0.12037 0.62024 0.0
C2072 C 0.39125 0.11317 0.60777 0.0
C2073 C 0.38919 0.11979 0.59074 0.0
H2074 H 0.40818 0.11527 0.63343 0.0
H2075 H 0.39082 0.18702 0.47196 0.0
H2076 H 0.70355 0.6126 0.31985 0.0
H2077 H 0.71349 0.64133 0.30618 0.0
H2078 H 0.71186 0.6747 0.35621 0.0
H2079 H 0.70083 0.64557 0.36958 0.0
H2080 H 0.70204 0.6904 0.32487 0.0
H2081 H 0.74869 0.66443 0.3492 0.0
H2082 H 0.76219 0.63815 0.35203 0.0
H2083 H 0.76349 0.63316 0.29429 0.0
H2084 H 0.74966 0.65916 0.29106 0.0
H2085 H 0.76633 0.77305 0.31705 0.0
H2086 H 0.74638 0.74539 0.32488 0.0
H2087 H 0.75416 0.71173 0.27795 0.0
H2088 H 0.77444 0.7395 0.27042 0.0
H2089 H 0.75928 0.69585 0.30663 0.0
H2090 H 0.71481 0.72321 0.28199 0.0
H2091 H 0.70029 0.74858 0.27828 0.0
H2092 H 0.6941 0.75085 0.33474 0.0
H2093 H 0.70889 0.72573 0.33892 0.0
C2094 C 0.70547 0.62612 0.32794 0.0
C2095 C 0.70228 0.62715 0.34597 0.0
C2096 C 0.71092 0.64245 0.32008 0.0
C2097 C 0.7138 0.66009 0.33037 0.0
C2098 C 0.70985 0.66117 0.34816 0.0
C2099 C 0.70391 0.64467 0.35589 0.0
C2100 C 0.72265 0.67715 0.32312 0.0
C2101 C 0.71462 0.69177 0.32101 0.0
C2102 C 0.73886 0.6786 0.31771 0.0
C2103 C 0.74807 0.66368 0.31987 0.0
C2104 C 0.75185 0.65772 0.33711 0.0
C2105 C 0.75952 0.64284 0.33877 0.0
C2106 C 0.76368 0.63398 0.32335 0.0
C2107 C 0.76026 0.64003 0.30623 0.0
C2108 C 0.75252 0.65485 0.30447 0.0
C2109 C 0.76351 0.75974 0.30834 0.0
C2110 C 0.77181 0.75809 0.29331 0.0
C2111 C 0.75201 0.74402 0.31266 0.0
C2112 C 0.74866 0.7265 0.30192 0.0
C2113 C 0.75652 0.72513 0.28638 0.0
C2114 C 0.76803 0.74089 0.28208 0.0
C2115 C 0.73869 0.70928 0.30813 0.0
C2116 C 0.74661 0.69457 0.31024 0.0
C2117 C 0.72238 0.70783 0.31339 0.0
C2118 C 0.71309 0.72264 0.3108 0.0
C2119 C 0.71045 0.72918 0.29365 0.0
C2120 C 0.70216 0.74352 0.29147 0.0
C2121 C 0.69629 0.75133 0.30627 0.0
C2122 C 0.69866 0.74478 0.32329 0.0
C2123 C 0.70698 0.73047 0.32557 0.0
H2124 H 0.6899 0.76244 0.30455 0.0
H2125 H 0.76957 0.62242 0.32465 0.0
H2126 H 0.92176 0.59399 0.78536 0.0
H2127 H 0.90644 0.56096 0.7749 0.0
H2128 H 0.9007 0.5522 0.83061 0.0
H2129 H 0.91625 0.58539 0.8411 0.0
H2130 H 0.91124 0.52375 0.81155 0.0
H2131 H 0.86864 0.55914 0.80283 0.0
H2132 H 0.85723 0.58442 0.79067 0.0
H2133 H 0.85603 0.56035 0.73565 0.0
H2134 H 0.86782 0.53514 0.74753 0.0
H2135 H 0.83941 0.45249 0.81333 0.0
H2136 H 0.85793 0.48386 0.81323 0.0
H2137 H 0.86089 0.47023 0.75637 0.0
H2138 H 0.84235 0.43828 0.75645 0.0
H2139 H 0.85481 0.50837 0.76962 0.0
H2140 H 0.89305 0.46941 0.77937 0.0
H2141 H 0.90437 0.44454 0.79254 0.0
H2142 H 0.91337 0.47509 0.84639 0.0
H2143 H 0.90174 0.49997 0.83362 0.0
C2144 C 0.917 0.58497 0.79526 0.0
C2145 C 0.91965 0.59196 0.81387 0.0
C2146 C 0.90843 0.56621 0.78933 0.0
C2147 C 0.90244 0.55433 0.80201 0.0
C2148 C 0.9053 0.56129 0.82071 0.0
C2149 C 0.9139 0.58013 0.82664 0.0
C2150 C 0.89253 0.5348 0.79565 0.0
C2151 C 0.8989 0.52032 0.80241 0.0
C2152 C 0.87678 0.53052 0.78321 0.0
C2153 C 0.86932 0.54541 0.77606 0.0
C2154 C 0.86608 0.55933 0.78814 0.0
C2155 C 0.85954 0.57364 0.78131 0.0
C2156 C 0.85597 0.57403 0.7624 0.0
C2157 C 0.85886 0.56006 0.75029 0.0
C2158 C 0.86548 0.54576 0.75707 0.0
C2159 C 0.84356 0.45633 0.80064 0.0
C2160 C 0.8394 0.44316 0.78485 0.0
C2161 C 0.85429 0.47411 0.80068 0.0
C2162 C 0.86086 0.47903 0.78489 0.0
C2163 C 0.85593 0.46641 0.76868 0.0
C2164 C 0.84536 0.44836 0.76872 0.0
C2165 C 0.87326 0.49737 0.78598 0.0
C2166 C 0.86739 0.51172 0.77832 0.0
C2167 C 0.88943 0.50152 0.79768 0.0
C2168 C 0.89637 0.48652 0.80551 0.0
C2169 C 0.89724 0.47074 0.79404 0.0
C2170 C 0.90376 0.45665 0.80144 0.0
C2171 C 0.90956 0.45822 0.82029 0.0
C2172 C 0.90886 0.47389 0.83179 0.0
C2173 C 0.90231 0.488 0.82447 0.0
H2174 H 0.91462 0.44731 0.82599 0.0
H2175 H 0.85091 0.58513 0.75713 0.0
H2176 H 0.03836 0.88023 0.11971 0.0
H2177 H 0.03434 0.90885 0.10719 0.0
H2178 H 0.08663 0.92229 0.09711 0.0
H2179 H 0.09053 0.8934 0.10906 0.0
H2180 H 0.07706 0.95401 0.11367 0.0
H2181 H 0.05821 0.90693 0.0622 0.0
H2182 H 0.04202 0.87602 0.04524 0.0
H2183 H 0.99422 0.88894 0.05105 0.0
H2184 H 0.01017 0.91987 0.06835 0.0
H2185 H 0.07315 0.02546 0.05677 0.0
H2186 H 0.07662 0.99679 0.06875 0.0
H2187 H 0.02221 0.97941 0.07039 0.0
H2188 H 0.01853 0.00825 0.05801 0.0
H2189 H 0.03294 0.94962 0.05861 0.0
H2190 H 0.05402 0.99868 0.11006 0.0
H2191 H 0.07203 0.02919 0.12647 0.0
H2192 H 0.11786 0.01241 0.11933 0.0
H2193 H 0.10012 0.98188 0.10271 0.0
C2194 C 0.049 0.88926 0.11482 0.0
C2195 C 0.06474 0.88439 0.11532 0.0
C2196 C 0.04669 0.90565 0.10764 0.0
C2197 C 0.06017 0.91785 0.10115 0.0
C2198 C 0.07601 0.91322 0.10202 0.0
C2199 C 0.07819 0.89659 0.10877 0.0
C2200 C 0.05757 0.93515 0.09309 0.0
C2201 C 0.06752 0.95303 0.10153 0.0
C2202 C 0.04507 0.93404 0.07733 0.0
C2203 C 0.03537 0.91561 0.06676 0.0
C2204 C 0.04424 0.90312 0.06001 0.0
C2205 C 0.03511 0.88561 0.05031 0.0
C2206 C 0.0171 0.88049 0.04712 0.0
C2207 C 0.00818 0.89291 0.05357 0.0
C2208 C 0.01726 0.91044 0.06332 0.0
C2209 C 0.0618 0.01559 0.05955 0.0
C2210 C 0.04551 0.01942 0.05641 0.0
C2211 C 0.06387 0.99912 0.06659 0.0
C2212 C 0.04979 0.98591 0.07096 0.0
C2213 C 0.03338 0.98935 0.06732 0.0
C2214 C 0.03127 0.0059 0.06021 0.0
C2215 C 0.0523 0.96865 0.07929 0.0
C2216 C 0.04238 0.95069 0.07085 0.0
C2217 C 0.06505 0.96971 0.09493 0.0
C2218 C 0.07573 0.98804 0.10502 0.0
C2219 C 0.06794 1.00154 0.1119 0.0
C2220 C 0.0781 0.01883 0.12126 0.0
C2221 C 0.09608 0.02275 0.12392 0.0
C2222 C 0.10393 0.00937 0.11726 0.0
C2223 C 0.09383 0.99205 0.10789 0.0
H2224 H 0.10392 0.03614 0.13117 0.0
H2225 H 0.01005 0.86692 0.03962 0.0
H2226 H 0.97126 0.28238 0.86888 0.0
H2227 H 0.94364 0.28383 0.85164 0.0
H2228 H 0.94522 0.33357 0.8875 0.0
H2229 H 0.97209 0.33115 0.90557 0.0
H2230 H 0.91423 0.31596 0.88024 0.0
H2231 H 0.95493 0.33221 0.83936 0.0
H2232 H 0.97772 0.32737 0.82235 0.0
H2233 H 0.94387 0.27545 0.79388 0.0
H2234 H 0.92094 0.2799 0.81084 0.0
H2235 H 0.844 0.33374 0.81652 0.0
H2236 H 0.872 0.33687 0.83639 0.0
H2237 H 0.87494 0.28427 0.80887 0.0
H2238 H 0.84771 0.28143 0.78906 0.0
H2239 H 0.90461 0.30737 0.81234 0.0
H2240 H 0.86406 0.29122 0.85414 0.0
H2241 H 0.84174 0.29611 0.87184 0.0
H2242 H 0.87553 0.34879 0.89866 0.0
H2243 H 0.89796 0.34433 0.88094 0.0
C2244 C 0.96574 0.29365 0.87303 0.0
C2245 C 0.97404 0.3067 0.88856 0.0
C2246 C 0.94991 0.29461 0.86304 0.0
C2247 C 0.94224 0.30918 0.86774 0.0
C2248 C 0.95059 0.32218 0.88334 0.0
C2249 C 0.96611 0.32085 0.89367 0.0
C2250 C 0.92564 0.31087 0.8565 0.0
C2251 C 0.9123 0.31434 0.86538 0.0
C2252 C 0.92269 0.30871 0.83703 0.0
C2253 C 0.93627 0.30634 0.82642 0.0
C2254 C 0.95236 0.31976 0.82947 0.0
C2255 C 0.96531 0.31708 0.81986 0.0
C2256 C 0.96225 0.3011 0.80707 0.0
C2257 C 0.94622 0.28782 0.80379 0.0
C2258 C 0.93323 0.29043 0.81336 0.0
C2259 C 0.85071 0.32295 0.81468 0.0
C2260 C 0.84354 0.3074 0.801 0.0
C2261 C 0.8667 0.32464 0.82618 0.0
C2262 C 0.87581 0.31074 0.82434 0.0
C2263 C 0.86849 0.29531 0.81069 0.0
C2264 C 0.85274 0.29368 0.79929 0.0
C2265 C 0.89304 0.31194 0.83603 0.0
C2266 C 0.90657 0.30912 0.8272 0.0
C2267 C 0.89614 0.31483 0.8555 0.0
C2268 C 0.8826 0.31755 0.86604 0.0
C2269 C 0.86667 0.30393 0.86369 0.0
C2270 C 0.85401 0.30661 0.87375 0.0
C2271 C 0.85719 0.32278 0.88632 0.0
C2272 C 0.87306 0.33629 0.88889 0.0
C2273 C 0.88575 0.33369 0.87884 0.0
H2274 H 0.84739 0.32482 0.8941 0.0
H2275 H 0.97231 0.29902 0.79968 0.0
H2276 H 0.54438 0.27246 0.59578 0.0
H2277 H 0.54279 0.23938 0.58489 0.0
H2278 H 0.57981 0.23795 0.63228 0.0
H2279 H 0.58118 0.27043 0.64321 0.0
H2280 H 0.58803 0.22477 0.59978 0.0
H2281 H 0.54098 0.21547 0.63232 0.0
H2282 H 0.51349 0.21775 0.64138 0.0
H2283 H 0.48655 0.19392 0.58714 0.0
H2284 H 0.51393 0.19174 0.57768 0.0
H2285 H 0.58178 0.12572 0.58605 0.0
H2286 H 0.58279 0.15751 0.59985 0.0
H2287 H 0.54055 0.15923 0.55803 0.0
H2288 H 0.53915 0.12754 0.54471 0.0
H2289 H 0.53513 0.17181 0.59007 0.0
H2290 H 0.58416 0.18353 0.55773 0.0
H2291 H 0.61171 0.17858 0.55105 0.0
H2292 H 0.63491 0.19633 0.60759 0.0
H2293 H 0.60744 0.20124 0.6146 0.0
C2294 C 0.55224 0.26504 0.60368 0.0
C2295 C 0.563 0.27395 0.62021 0.0
C2296 C 0.5512 0.24617 0.59761 0.0
C2297 C 0.56113 0.23623 0.60788 0.0
C2298 C 0.57202 0.24532 0.62419 0.0
C2299 C 0.57282 0.26388 0.63037 0.0
C2300 C 0.56097 0.21664 0.60137 0.0
C2301 C 0.57647 0.21317 0.59775 0.0
C2302 C 0.54593 0.20151 0.59885 0.0
C2303 C 0.52958 0.20377 0.60419 0.0
C2304 C 0.52925 0.21105 0.62222 0.0
C2305 C 0.51367 0.21222 0.62746 0.0
C2306 C 0.49829 0.20608 0.61482 0.0
C2307 C 0.49848 0.19875 0.5969 0.0
C2308 C 0.51403 0.19755 0.59159 0.0
C2309 C 0.57291 0.13305 0.57972 0.0
C2310 C 0.56044 0.12422 0.56431 0.0
C2311 C 0.57344 0.15117 0.58762 0.0
C2312 C 0.56177 0.16083 0.57992 0.0
C2313 C 0.54958 0.15206 0.56431 0.0
C2314 C 0.54888 0.13397 0.55664 0.0
C2315 C 0.56205 0.18008 0.58787 0.0
C2316 C 0.54664 0.18346 0.59194 0.0
C2317 C 0.57718 0.19514 0.59098 0.0
C2318 C 0.59377 0.19263 0.58669 0.0
C2319 C 0.59514 0.18633 0.56873 0.0
C2320 C 0.61073 0.18354 0.56489 0.0
C2321 C 0.62504 0.18711 0.57889 0.0
C2322 C 0.62382 0.19357 0.59676 0.0
C2323 C 0.60826 0.19639 0.60066 0.0
H2324 H 0.63709 0.1849 0.5759 0.0
H2325 H 0.48624 0.20693 0.61893 0.0
H2326 H 0.58125 0.81625 0.41939 0.0
H2327 H 0.608 0.82245 0.40695 0.0
H2328 H 0.57892 0.81608 0.35237 0.0
H2329 H 0.55196 0.80994 0.36476 0.0
H2330 H 0.60174 0.79462 0.35503 0.0
H2331 H 0.60327 0.85897 0.37373 0.0
H2332 H 0.60348 0.88664 0.39488 0.0
H2333 H 0.6495 0.88163 0.42828 0.0
H2334 H 0.64944 0.85373 0.4075 0.0
H2335 H 0.6681 0.82081 0.3047 0.0
H2336 H 0.64393 0.82301 0.32005 0.0
H2337 H 0.67547 0.82538 0.37254 0.0
H2338 H 0.69989 0.82322 0.35721 0.0
H2339 H 0.65256 0.84996 0.37256 0.0
H2340 H 0.65075 0.78578 0.3565 0.0
H2341 H 0.65124 0.75738 0.33684 0.0
H2342 H 0.60607 0.76108 0.30093 0.0
H2343 H 0.60553 0.78976 0.32019 0.0
C2344 C 0.58047 0.81613 0.40471 0.0
C2345 C 0.56435 0.81231 0.39304 0.0
C2346 C 0.59586 0.81994 0.39765 0.0
C2347 C 0.59554 0.81991 0.37873 0.0
C2348 C 0.5795 0.81627 0.36704 0.0
C2349 C 0.56408 0.81267 0.37412 0.0
C2350 C 0.61173 0.8219 0.37098 0.0
C2351 C 0.6127 0.80691 0.35863 0.0
C2352 C 0.62641 0.83755 0.37636 0.0
C2353 C 0.62622 0.85408 0.38913 0.0
C2354 C 0.61332 0.8636 0.3857 0.0
C2355 C 0.61344 0.87938 0.3976 0.0
C2356 C 0.62646 0.88586 0.41294 0.0
C2357 C 0.6394 0.87658 0.41641 0.0
C2358 C 0.63933 0.86078 0.40457 0.0
C2359 C 0.67007 0.82217 0.31953 0.0
C2360 C 0.68596 0.82169 0.32967 0.0
C2361 C 0.65618 0.82336 0.3283 0.0
C2362 C 0.65781 0.82421 0.34745 0.0
C2363 C 0.67388 0.82472 0.35776 0.0
C2364 C 0.68779 0.82332 0.34895 0.0
C2365 C 0.64226 0.82286 0.35629 0.0
C2366 C 0.6415 0.83779 0.36893 0.0
C2367 C 0.62777 0.80705 0.35148 0.0
C2368 C 0.62825 0.79006 0.33964 0.0
C2369 C 0.64107 0.78069 0.34427 0.0
C2370 C 0.64133 0.76451 0.33323 0.0
C2371 C 0.62873 0.75746 0.31761 0.0
C2372 C 0.61585 0.76659 0.313 0.0
C2373 C 0.61557 0.78281 0.32397 0.0
H2374 H 0.62892 0.7449 0.30911 0.0
H2375 H 0.62656 0.8981 0.42211 0.0
H2376 H 0.9937 0.23732 0.43565 0.0
H2377 H 0.99533 0.20755 0.44721 0.0
H2378 H 0.04939 0.23153 0.46865 0.0
H2379 H 0.04773 0.26118 0.45674 0.0
H2380 H 0.0451 0.19696 0.45281 0.0
H2381 H 0.01482 0.22352 0.49563 0.0
H2382 H 0.99109 0.236 0.50394 0.0
H2383 H 0.9544 0.18396 0.47999 0.0
H2384 H 0.97788 0.17129 0.47125 0.0
H2385 H 0.05992 0.13297 0.51661 0.0
H2386 H 0.05561 0.16037 0.50204 0.0
H2387 H 1.00477 0.12819 0.4755 0.0
H2388 H 0.00941 0.10034 0.48951 0.0
H2389 H 1.00554 0.16504 0.4921 0.0
H2390 H 0.03256 0.13725 0.45015 0.0
H2391 H 0.0537 0.12286 0.43821 0.0
H2392 H 0.09343 0.17433 0.45595 0.0
H2393 H 0.0726 0.18893 0.46844 0.0
C2394 C 1.00585 0.23635 0.44316 0.0
C2395 C 0.02047 0.25188 0.44572 0.0
C2396 C 0.00681 0.21923 0.4498 0.0
C2397 C 0.02245 0.21705 0.45924 0.0
C2398 C 0.03709 0.23261 0.46162 0.0
C2399 C 0.03612 0.24972 0.45497 0.0
C2400 C 0.02371 0.19862 0.46628 0.0
C2401 C 0.0366 0.19024 0.46167 0.0
C2402 C 0.01215 0.18897 0.47713 0.0
C2403 C 0.9981 0.19654 0.48263 0.0
C2404 C 1.00168 0.21479 0.49204 0.0
C2405 C 0.98827 0.22189 0.49682 0.0
C2406 C 0.97124 0.2108 0.49245 0.0
C2407 C 0.96759 0.19255 0.48334 0.0
C2408 C 0.98095 0.18541 0.47846 0.0
C2409 C 0.04785 0.13164 0.50755 0.0
C2410 C 0.03506 0.11434 0.50419 0.0
C2411 C 0.04539 0.14739 0.49918 0.0
C2412 C 0.02984 0.14658 0.48757 0.0
C2413 C 0.01691 0.12934 0.48434 0.0
C2414 C 0.0196 0.11334 0.49228 0.0
C2415 C 0.02723 0.1638 0.47905 0.0
C2416 C 0.01409 0.17187 0.48334 0.0
C2417 C 0.03829 0.17293 0.46754 0.0
C2418 C 0.05105 0.16411 0.46053 0.0
C2419 C 0.04587 0.14543 0.4518 0.0
C2420 C 0.05779 0.13724 0.44487 0.0
C2421 C 0.07492 0.14765 0.44639 0.0
C2422 C 0.08016 0.16626 0.45485 0.0
C2423 C 0.0683 0.1745 0.46188 0.0
H2424 H 0.08413 0.1413 0.44095 0.0
H2425 H 0.96088 0.21633 0.49617 0.0
H2426 H 0.62336 0.31402 0.1575 0.0
H2427 H 0.64972 0.30929 0.17456 0.0
H2428 H 0.63834 0.33328 0.22473 0.0
H2429 H 0.61151 0.33754 0.20779 0.0
H2430 H 0.6746 0.34703 0.21448 0.0
H2431 H 0.63006 0.28991 0.22034 0.0
H2432 H 0.60692 0.26126 0.20745 0.0
H2433 H 0.64135 0.2412 0.17709 0.0
H2434 H 0.66463 0.26982 0.18964 0.0
H2435 H 0.74063 0.33042 0.27563 0.0
H2436 H 0.71201 0.33209 0.26147 0.0
H2437 H 0.70973 0.2866 0.21977 0.0
H2438 H 0.73777 0.28405 0.23478 0.0
H2439 H 0.67966 0.28311 0.22519 0.0
H2440 H 0.72165 0.33379 0.21262 0.0
H2441 H 0.74708 0.36115 0.21794 0.0
H2442 H 0.72112 0.39249 0.25004 0.0
H2443 H 0.69561 0.36515 0.24516 0.0
C2444 C 0.62659 0.3186 0.17212 0.0
C2445 C 0.61549 0.32633 0.18133 0.0
C2446 C 0.64154 0.31568 0.18184 0.0
C2447 C 0.64576 0.32076 0.20085 0.0
C2448 C 0.63511 0.32916 0.21004 0.0
C2449 C 0.61991 0.33168 0.20037 0.0
C2450 C 0.66151 0.31754 0.21106 0.0
C2451 C 0.67566 0.33313 0.2172 0.0
C2452 C 0.66312 0.29923 0.21337 0.0
C2453 C 0.64903 0.2821 0.2058 0.0
C2454 C 0.63265 0.27948 0.21078 0.0
C2455 C 0.61952 0.26322 0.20357 0.0
C2456 C 0.62265 0.24944 0.19142 0.0
C2457 C 0.63893 0.25188 0.18649 0.0
C2458 C 0.65209 0.26811 0.19366 0.0
C2459 C 0.73381 0.3206 0.26363 0.0
C2460 C 0.74128 0.30718 0.25618 0.0
C2461 C 0.71755 0.32162 0.25547 0.0
C2462 C 0.70889 0.30982 0.23924 0.0
C2463 C 0.71612 0.29588 0.23224 0.0
C2464 C 0.73214 0.29445 0.24078 0.0
C2465 C 0.69281 0.31272 0.22911 0.0
C2466 C 0.67864 0.29709 0.22277 0.0
C2467 C 0.6915 0.33088 0.22553 0.0
C2468 C 0.7068 0.34737 0.2287 0.0
C2469 C 0.72142 0.34646 0.22096 0.0
C2470 C 0.73584 0.36195 0.22387 0.0
C2471 C 0.73573 0.37851 0.23433 0.0
C2472 C 0.72121 0.37963 0.24196 0.0
C2473 C 0.70675 0.36414 0.23912 0.0
H2474 H 0.7469 0.39044 0.2364 0.0
H2475 H 0.61247 0.23686 0.18587 0.0
H2476 H 0.51493 0.86286 0.92054 0.0
H2477 H 0.51742 0.89432 0.93527 0.0
H2478 H 0.54048 0.88026 0.98632 0.0
H2479 H 0.53772 0.84827 0.97157 0.0
H2480 H 0.51855 0.89935 0.99312 0.0
H2481 H 0.56312 0.91008 0.95571 0.0
H2482 H 0.57536 0.90994 0.92723 0.0
H2483 H 0.5424 0.94279 0.90498 0.0
H2484 H 0.52974 0.94284 0.93318 0.0
H2485 H 0.55173 0.98915 0.04324 0.0
H2486 H 0.54708 0.95864 0.02559 0.0
H2487 H 0.5259 0.9793 0.9774 0.0
H2488 H 0.53091 0.01058 0.99532 0.0
H2489 H 0.54469 0.95722 0.96732 0.0
H2490 H 0.50009 0.94737 0.00271 0.0
H2491 H 0.48558 0.94716 0.02964 0.0
H2492 H 0.51567 0.91242 0.05384 0.0
H2493 H 0.53054 0.91265 0.02718 0.0
C2494 C 0.5206 0.8663 0.93493 0.0
C2495 C 0.52617 0.85268 0.94473 0.0
C2496 C 0.52216 0.88459 0.94337 0.0
C2497 C 0.52951 0.89022 0.96198 0.0
C2498 C 0.53487 0.87659 0.97193 0.0
C2499 C 0.5333 0.85817 0.96345 0.0
C2500 C 0.53101 0.90994 0.97115 0.0
C2501 C 0.52457 0.91195 0.98757 0.0
C2502 C 0.53799 0.92671 0.96363 0.0
C2503 C 0.54534 0.92627 0.9465 0.0
C2504 C 0.55834 0.91708 0.94467 0.0
C2505 C 0.56538 0.91706 0.92858 0.0
C2506 C 0.55963 0.9263 0.91429 0.0
C2507 C 0.54682 0.93559 0.91604 0.0
C2508 C 0.5397 0.93561 0.93207 0.0
C2509 C 0.54608 0.9874 0.02886 0.0
C2510 C 0.54171 1.0026 0.02085 0.0
C2511 C 0.54324 0.96966 0.01873 0.0
C2512 C 0.5357 0.9661 1.00007 0.0
C2513 C 0.5316 0.98136 0.99178 0.0
C2514 C 0.53448 0.99934 0.00205 0.0
C2515 C 0.53265 0.94659 0.98956 0.0
C2516 C 0.5387 0.94461 0.97288 0.0
C2517 C 0.52502 0.92979 0.99664 0.0
C2518 C 0.51657 0.9302 0.01301 0.0
C2519 C 0.50377 0.93988 0.01387 0.0
C2520 C 0.49544 0.93971 0.02907 0.0
C2521 C 0.49973 0.92982 0.04346 0.0
C2522 C 0.51238 0.9201 0.0427 0.0
C2523 C 0.52076 0.92025 0.02755 0.0
H2524 H 0.49322 0.92965 0.05518 0.0
H2525 H 0.56514 0.92631 0.90188 0.0
H2526 H 0.03377 0.84965 0.70892 0.0
H2527 H 0.01008 0.85175 0.72555 0.0
H2528 H 0.9778 0.8009 0.69277 0.0
H2529 H 1.00159 0.79862 0.6765 0.0
H2530 H 0.96146 0.82965 0.69506 0.0
H2531 H 0.99275 0.79802 0.73523 0.0
H2532 H 0.01887 0.79359 0.75372 0.0
H2533 H 0.02533 0.84579 0.7876 0.0
H2534 H 0.99931 0.85063 0.76914 0.0
H2535 H 0.8909 0.81054 0.73897 0.0
H2536 H 0.91702 0.80705 0.72846 0.0
H2537 H 0.94692 0.85542 0.7664 0.0
H2538 H 0.92056 0.85829 0.77775 0.0
H2539 H 0.96544 0.82928 0.76233 0.0
H2540 H 0.93268 0.85983 0.72104 0.0
H2541 H 0.90599 0.86237 0.70204 0.0
H2542 H 0.90212 0.81011 0.66948 0.0
H2543 H 0.92867 0.80716 0.68843 0.0
C2544 C 0.02157 0.83901 0.7053 0.0
C2545 C 0.01934 0.82407 0.69139 0.0
C2546 C 0.00811 0.84013 0.71485 0.0
C2547 C 0.99216 0.82644 0.71045 0.0
C2548 C 0.98996 0.81161 0.6964 0.0
C2549 C 1.00351 0.81032 0.68711 0.0
C2550 C 0.97759 0.82779 0.72011 0.0
C2551 C 0.9623 0.8294 0.70974 0.0
C2552 C 0.97876 0.82779 0.73931 0.0
C2553 C 0.99418 0.82479 0.7507 0.0
C2554 C 0.9998 0.80862 0.74656 0.0
C2555 C 0.01457 0.80602 0.75704 0.0
C2556 C 0.02379 0.81943 0.7718 0.0
C2557 C 0.01818 0.83542 0.77615 0.0
C2558 C 1.00341 0.83809 0.7657 0.0
C2559 C 0.90302 0.82021 0.74536 0.0
C2560 C 0.90353 0.83476 0.75908 0.0
C2561 C 0.91801 0.81829 0.73925 0.0
C2562 C 0.93395 0.8313 0.7462 0.0
C2563 C 0.93477 0.84528 0.76067 0.0
C2564 C 0.91969 0.84693 0.76713 0.0
C2565 C 0.94923 0.83105 0.73722 0.0
C2566 C 0.96466 0.82968 0.74768 0.0
C2567 C 0.9482 0.83114 0.718 0.0
C2568 C 0.9326 0.83325 0.70619 0.0
C2569 C 0.92612 0.84889 0.70983 0.0
C2570 C 0.91101 0.85038 0.69909 0.0
C2571 C 0.90236 0.8364 0.68457 0.0
C2572 C 0.90884 0.82094 0.68072 0.0
C2573 C 0.92393 0.81936 0.69143 0.0
H2574 H 0.89064 0.83756 0.6763 0.0
H2575 H 0.03524 0.81741 0.77988 0.0
H2576 H 0.13621 0.04391 0.88846 0.0
H2577 H 0.12 0.04305 0.91395 0.0
H2578 H 0.12564 0.10286 0.91587 0.0
H2579 H 0.14127 0.10364 0.89 0.0
H2580 H 0.13255 0.08722 0.95119 0.0
H2581 H 0.0914 0.08221 0.89688 0.0
H2582 H 0.0762 0.0698 0.86538 0.0
H2583 H 0.05876 0.01498 0.88185 0.0
H2584 H 0.07418 0.02699 0.9134 0.0
H2585 H 0.06795 0.09657 0.00217 0.0
H2586 H 0.0879 0.09773 0.98079 0.0
H2587 H 0.06987 0.03731 0.96689 0.0
H2588 H 0.04902 0.03622 0.98789 0.0
H2589 H 0.07017 0.05406 0.93769 0.0
H2590 H 0.11177 0.06155 0.99393 0.0
H2591 H 0.12765 0.07618 0.0247 0.0
H2592 H 0.14359 0.12924 0.00437 0.0
H2593 H 0.12791 0.11495 0.97346 0.0
C2594 C 0.13418 0.05684 0.8946 0.0
C2595 C 0.13981 0.07382 0.88759 0.0
C2596 C 0.12494 0.05634 0.90895 0.0
C2597 C 0.12172 0.07289 0.91646 0.0
C2598 C 0.12811 0.09004 0.91005 0.0
C2599 C 0.13693 0.09045 0.89541 0.0
C2600 C 0.111 0.07209 0.93054 0.0
C2601 C 0.11887 0.08009 0.94838 0.0
C2602 C 0.09329 0.06275 0.92647 0.0
C2603 C 0.08421 0.05542 0.90744 0.0
C2604 C 0.08456 0.06744 0.89373 0.0
C2605 C 0.07585 0.0605 0.87588 0.0
C2606 C 0.06659 0.04159 0.87159 0.0
C2607 C 0.066 0.02961 0.88517 0.0
C2608 C 0.07473 0.03647 0.90304 0.0
C2609 C 0.0683 0.08349 0.99463 0.0
C2610 C 0.05699 0.06627 0.99647 0.0
C2611 C 0.07986 0.08417 0.98262 0.0
C2612 C 0.08062 0.06756 0.97266 0.0
C2613 C 0.06949 0.05024 0.97467 0.0
C2614 C 0.05759 0.04961 0.98648 0.0
C2615 C 0.09176 0.06859 0.95878 0.0
C2616 C 0.0839 0.0609 0.94075 0.0
C2617 C 0.10945 0.07853 0.96269 0.0
C2618 C 0.11853 0.08719 0.98141 0.0
C2619 C 0.11853 0.07637 0.99606 0.0
C2620 C 0.12751 0.0846 0.01352 0.0
C2621 C 0.13649 0.10364 0.01653 0.0
C2622 C 0.13659 0.1145 0.00205 0.0
C2623 C 0.12771 0.10633 0.98454 0.0
H2624 H 0.14343 0.10995 0.03007 0.0
H2625 H 0.05982 0.03625 0.85777 0.0
H2626 H 0.80835 0.42534 0.6046 0.0
H2627 H 0.81209 0.41492 0.63468 0.0
H2628 H 0.80505 0.35819 0.60941 0.0
H2629 H 0.80123 0.36859 0.57886 0.0
H2630 H 0.78436 0.35999 0.63467 0.0
H2631 H 0.84517 0.3876 0.63318 0.0
H2632 H 0.87174 0.41223 0.63236 0.0
H2633 H 0.86323 0.44476 0.67913 0.0
H2634 H 0.83648 0.42054 0.68005 0.0
H2635 H 0.80272 0.31549 0.71115 0.0
H2636 H 0.80386 0.32933 0.6827 0.0
H2637 H 0.81418 0.38475 0.71257 0.0
H2638 H 0.81327 0.37095 0.7414 0.0
H2639 H 0.83312 0.38571 0.68623 0.0
H2640 H 0.77455 0.36319 0.68931 0.0
H2641 H 0.74755 0.3412 0.69355 0.0
H2642 H 0.74942 0.30413 0.64658 0.0
H2643 H 0.77666 0.32568 0.64229 0.0
C2644 C 0.8076 0.41058 0.60529 0.0
C2645 C 0.8042 0.39772 0.58913 0.0
C2646 C 0.81 0.40472 0.62264 0.0
C2647 C 0.80906 0.38581 0.62444 0.0
C2648 C 0.80594 0.37292 0.6084 0.0
C2649 C 0.80369 0.37883 0.59091 0.0
C2650 C 0.80958 0.37919 0.64291 0.0
C2651 C 0.7952 0.36537 0.6458 0.0
C2652 C 0.82318 0.38717 0.65795 0.0
C2653 C 0.83865 0.40231 0.6565 0.0
C2654 C 0.84878 0.40015 0.64308 0.0
C2655 C 0.86393 0.41402 0.64266 0.0
C2656 C 0.86914 0.43007 0.65564 0.0
C2657 C 0.85917 0.43236 0.66904 0.0
C2658 C 0.844 0.41857 0.66949 0.0
C2659 C 0.80538 0.33065 0.71181 0.0
C2660 C 0.8078 0.34207 0.72866 0.0
C2661 C 0.80592 0.33855 0.69543 0.0
C2662 C 0.80876 0.35806 0.69539 0.0
C2663 C 0.81186 0.36963 0.71222 0.0
C2664 C 0.81133 0.36172 0.7287 0.0
C2665 C 0.8082 0.36611 0.67765 0.0
C2666 C 0.82236 0.38029 0.675 0.0
C2667 C 0.79413 0.3591 0.66303 0.0
C2668 C 0.77779 0.34597 0.66561 0.0
C2669 C 0.76932 0.35024 0.68 0.0
C2670 C 0.75395 0.33787 0.6824 0.0
C2671 C 0.7468 0.32125 0.67037 0.0
C2672 C 0.755 0.31699 0.65591 0.0
C2673 C 0.77042 0.32928 0.6535 0.0
H2674 H 0.73489 0.31171 0.67223 0.0
H2675 H 0.88093 0.44072 0.65536 0.0
H2676 H 0.46297 0.10773 0.36222 0.0
H2677 H 0.47147 0.09679 0.39143 0.0
H2678 H 0.51185 0.1485 0.40742 0.0
H2679 H 0.50342 0.15931 0.37792 0.0
H2680 H 0.52376 0.11789 0.40898 0.0
H2681 H 0.47537 0.13689 0.42839 0.0
H2682 H 0.44484 0.13686 0.42688 0.0
H2683 H 0.43115 0.07739 0.42997 0.0
H2684 H 0.46155 0.077 0.43121 0.0
H2685 H 0.55744 0.11188 0.4983 0.0
H2686 H 0.54201 0.12077 0.47131 0.0
H2687 H 0.50449 0.06668 0.46291 0.0
H2688 H 0.51977 0.05783 0.49041 0.0
H2689 H 0.48935 0.09455 0.45618 0.0
H2690 H 0.53576 0.07424 0.43724 0.0
H2691 H 0.56565 0.07206 0.43822 0.0
H2692 H 0.58211 0.13083 0.43252 0.0
H2693 H 0.55236 0.13343 0.43179 0.0
C2694 C 0.47336 0.11692 0.37226 0.0
C2695 C 0.48254 0.13435 0.36813 0.0
C2696 C 0.47815 0.11071 0.38891 0.0
C2697 C 0.49218 0.1219 0.40164 0.0
C2698 C 0.5009 0.13973 0.39778 0.0
C2699 C 0.49609 0.14594 0.38106 0.0
C2700 C 0.49917 0.1141 0.41782 0.0
C2701 C 0.51631 0.11311 0.41947 0.0
C2702 C 0.48906 0.1067 0.43082 0.0
C2703 C 0.47073 0.1069 0.42967 0.0
C2704 C 0.46582 0.12377 0.42852 0.0
C2705 C 0.44854 0.12383 0.42777 0.0
C2706 C 0.43606 0.10712 0.42827 0.0
C2707 C 0.44082 0.09031 0.42954 0.0
C2708 C 0.45808 0.09017 0.43027 0.0
C2709 C 0.54587 0.10191 0.49076 0.0
C2710 C 0.5399 0.0841 0.4962 0.0
C2711 C 0.5371 0.10697 0.47533 0.0
C2712 C 0.52238 0.09419 0.4649 0.0
C2713 C 0.51594 0.07664 0.47072 0.0
C2714 C 0.52466 0.07161 0.48634 0.0
C2715 C 0.51414 0.09928 0.44772 0.0
C2716 C 0.49675 0.09941 0.44569 0.0
C2717 C 0.52387 0.10555 0.43409 0.0
C2718 C 0.54183 0.10406 0.4346 0.0
C2719 C 0.54577 0.08673 0.43635 0.0
C2720 C 0.56269 0.08542 0.43683 0.0
C2721 C 0.57578 0.1013 0.43546 0.0
C2722 C 0.57197 0.11854 0.43359 0.0
C2723 C 0.55507 0.11994 0.43312 0.0
H2724 H 0.58887 0.10025 0.43582 0.0
H2725 H 0.4227 0.10722 0.42774 0.0
H2726 H 0.79595 0.76688 0.07437 0.0
H2727 H 0.79625 0.77828 0.10672 0.0
H2728 H 0.789 0.72162 0.12023 0.0
H2729 H 0.78907 0.71032 0.0887 0.0
H2730 H 0.7654 0.73904 0.13226 0.0
H2731 H 0.82513 0.74801 0.13606 0.0
H2732 H 0.85436 0.75872 0.1288 0.0
H2733 H 0.85365 0.81632 0.14115 0.0
H2734 H 0.82428 0.80594 0.14825 0.0
H2735 H 0.77508 0.75958 0.2299 0.0
H2736 H 0.77801 0.74775 0.19896 0.0
H2737 H 0.79219 0.8048 0.18601 0.0
H2738 H 0.79011 0.81655 0.21726 0.0
H2739 H 0.81303 0.78567 0.17419 0.0
H2740 H 0.75012 0.77229 0.17025 0.0
H2741 H 0.72329 0.75765 0.18125 0.0
H2742 H 0.73287 0.70329 0.17222 0.0
H2743 H 0.75983 0.71765 0.16131 0.0
C2744 C 0.79457 0.75694 0.0843 0.0
C2745 C 0.7925 0.7377 0.07883 0.0
C2746 C 0.7948 0.76345 0.10276 0.0
C2747 C 0.79259 0.75075 0.11587 0.0
C2748 C 0.7907 0.73167 0.11041 0.0
C2749 C 0.79081 0.72528 0.09226 0.0
C2750 C 0.79124 0.7569 0.13508 0.0
C2751 C 0.77584 0.74923 0.14142 0.0
C2752 C 0.80496 0.76982 0.14721 0.0
C2753 C 0.82235 0.7762 0.14233 0.0
C2754 C 0.83108 0.76297 0.13693 0.0
C2755 C 0.84771 0.76897 0.13293 0.0
C2756 C 0.85582 0.78819 0.13441 0.0
C2757 C 0.84732 0.80144 0.13993 0.0
C2758 C 0.83067 0.7955 0.14394 0.0
C2759 C 0.7784 0.76949 0.22023 0.0
C2760 C 0.78188 0.78891 0.22563 0.0
C2761 C 0.78017 0.76276 0.2026 0.0
C2762 C 0.78506 0.77536 0.18996 0.0
C2763 C 0.78836 0.79479 0.19543 0.0
C2764 C 0.78694 0.8015 0.21316 0.0
C2765 C 0.7869 0.76848 0.17108 0.0
C2766 C 0.80249 0.77577 0.16489 0.0
C2767 C 0.77354 0.75475 0.15924 0.0
C2768 C 0.75698 0.74605 0.16503 0.0
C2769 C 0.74647 0.75722 0.1706 0.0
C2770 C 0.73127 0.74897 0.17684 0.0
C2771 C 0.72639 0.72955 0.17745 0.0
C2772 C 0.73666 0.71832 0.17173 0.0
C2773 C 0.75188 0.7265 0.16547 0.0
H2774 H 0.71465 0.72321 0.18235 0.0
H2775 H 0.86872 0.79281 0.13136 0.0
H2776 H 0.12099 0.04859 0.79473 0.0
H2777 H 0.10691 0.05013 0.76363 0.0
H2778 H 0.1553 0.08245 0.75184 0.0
H2779 H 0.16945 0.08096 0.78254 0.0
H2780 H 0.12651 0.09601 0.73958 0.0
H2781 H 0.1457 0.03991 0.7394 0.0
H2782 H 0.14786 0.01158 0.75355 0.0
H2783 H 0.09312 0.98818 0.73815 0.0
H2784 H 0.09048 0.0171 0.72502 0.0
H2785 H 0.10987 0.08532 0.64371 0.0
H2786 H 0.12355 0.0825 0.67444 0.0
H2787 H 0.07519 0.04797 0.68416 0.0
H2788 H 0.06145 0.05046 0.65319 0.0
H2789 H 0.10379 0.03582 0.69788 0.0
H2790 H 0.08547 0.09357 0.69804 0.0
H2791 H 0.0841 0.12451 0.68886 0.0
H2792 H 0.13906 0.14534 0.70455 0.0
H2793 H 0.14079 0.11444 0.71361 0.0
C2794 C 0.12857 0.05595 0.78546 0.0
C2795 C 0.14628 0.06445 0.79087 0.0
C2796 C 0.12054 0.05696 0.76789 0.0
C2797 C 0.1302 0.06646 0.75576 0.0
C2798 C 0.14775 0.07522 0.76123 0.0
C2799 C 0.1558 0.0741 0.77865 0.0
C2800 C 0.12242 0.06594 0.73678 0.0
C2801 C 0.12162 0.08294 0.73034 0.0
C2802 C 0.1162 0.04877 0.72507 0.0
C2803 C 0.11787 0.03073 0.73139 0.0
C2804 C 0.1341 0.02876 0.7391 0.0
C2805 C 0.1354 0.01262 0.747 0.0
C2806 C 0.12064 0.99798 0.74663 0.0
C2807 C 0.10454 0.99952 0.7384 0.0
C2808 C 0.10311 0.01585 0.73084 0.0
C2809 C 0.1023 0.07669 0.65223 0.0
C2810 C 0.08464 0.06818 0.64632 0.0
C2811 C 0.11006 0.07526 0.66974 0.0
C2812 C 0.10019 0.06537 0.68145 0.0
C2813 C 0.08285 0.05578 0.67518 0.0
C2814 C 0.07506 0.05724 0.65765 0.0
C2815 C 0.10769 0.06595 0.70059 0.0
C2816 C 0.10859 0.04893 0.70706 0.0
C2817 C 0.11426 0.0832 0.71227 0.0
C2818 C 0.11327 0.1016 0.70627 0.0
C2819 C 0.09729 0.10467 0.69931 0.0
C2820 C 0.09644 0.12222 0.69419 0.0
C2821 C 0.11149 0.13686 0.69606 0.0
C2822 C 0.12742 0.13398 0.70306 0.0
C2823 C 0.12834 0.11645 0.70819 0.0
H2824 H 0.1108 0.15046 0.69214 0.0
H2825 H 0.12164 0.98547 0.75278 0.0
H2826 H 0.82853 0.39422 0.48092 0.0
H2827 H 0.82679 0.38379 0.4482 0.0
H2828 H 0.77141 0.36569 0.44185 0.0
H2829 H 0.77307 0.37693 0.47441 0.0
H2830 H 0.78802 0.33789 0.42759 0.0
H2831 H 0.78694 0.40208 0.42385 0.0
H2832 H 0.79749 0.43662 0.43058 0.0
H2833 H 0.84383 0.43502 0.40988 0.0
H2834 H 0.83367 0.4004 0.4033 0.0
H2835 H 0.76518 0.30829 0.33309 0.0
H2836 H 0.76779 0.32377 0.36404 0.0
H2837 H 0.8181 0.35836 0.36018 0.0
H2838 H 0.81483 0.34351 0.32838 0.0
H2839 H 0.80586 0.37863 0.38045 0.0
H2840 H 0.80884 0.31541 0.38551 0.0
H2841 H 0.80041 0.28066 0.38085 0.0
H2842 H 0.75332 0.28005 0.40085 0.0
H2843 H 0.76138 0.31477 0.40546 0.0
C2844 C 0.81596 0.38804 0.47255 0.0
C2845 C 0.80093 0.3863 0.48042 0.0
C2846 C 0.81497 0.38219 0.45375 0.0
C2847 C 0.79896 0.37394 0.44232 0.0
C2848 C 0.78394 0.37206 0.45021 0.0
C2849 C 0.7849 0.37847 0.46889 0.0
C2850 C 0.79786 0.36634 0.4225 0.0
C2851 C 0.79169 0.34685 0.41723 0.0
C2852 C 0.80333 0.37783 0.40898 0.0
C2853 C 0.80964 0.3986 0.41332 0.0
C2854 C 0.79949 0.40905 0.42097 0.0
C2855 C 0.80537 0.42866 0.4247 0.0
C2856 C 0.82135 0.43801 0.42073 0.0
C2857 C 0.83147 0.42776 0.413 0.0
C2858 C 0.82566 0.40814 0.40927 0.0
C2859 C 0.77667 0.3195 0.33865 0.0
C2860 C 0.78966 0.32476 0.32803 0.0
C2861 C 0.77834 0.32818 0.35666 0.0
C2862 C 0.79346 0.34193 0.36519 0.0
C2863 C 0.80629 0.34775 0.35431 0.0
C2864 C 0.80438 0.33934 0.33596 0.0
C2865 C 0.79571 0.34997 0.38528 0.0
C2866 C 0.80219 0.36956 0.3907 0.0
C2867 C 0.79083 0.33853 0.39913 0.0
C2868 C 0.78564 0.31768 0.39563 0.0
C2869 C 0.7966 0.30785 0.38872 0.0
C2870 C 0.79191 0.28817 0.38614 0.0
C2871 C 0.77632 0.27816 0.3905 0.0
C2872 C 0.76537 0.28781 0.39744 0.0
C2873 C 0.77 0.30748 0.40005 0.0
H2874 H 0.77274 0.26292 0.38856 0.0
H2875 H 0.82586 0.45319 0.42358 0.0
H2876 H 0.44407 0.11878 0.25682 0.0
H2877 H 0.44901 0.09783 0.23233 0.0
H2878 H 0.50388 0.12197 0.2478 0.0
H2879 H 0.49911 0.14287 0.27293 0.0
H2880 H 0.48912 0.12077 0.21001 0.0
H2881 H 0.48645 0.08073 0.25862 0.0
H2882 H 0.47259 0.06292 0.28141 0.0
H2883 H 0.43253 0.02952 0.2387 0.0
H2884 H 0.4459 0.04742 0.21566 0.0
H2885 H 0.53252 0.06616 0.16798 0.0
H2886 H 0.51963 0.07679 0.19319 0.0
H2887 H 0.46882 0.05282 0.16132 0.0
H2888 H 0.48181 0.04259 0.13558 0.0
H2889 H 0.4764 0.0511 0.20525 0.0
H2890 H 0.47595 0.09011 0.15727 0.0
H2891 H 0.4872 0.10787 0.13311 0.0
H2892 H 0.52877 0.14327 0.17309 0.0
H2893 H 0.51809 0.12528 0.1974 0.0
C2894 C 0.45724 0.11995 0.25491 0.0
C2895 C 0.47127 0.1328 0.26664 0.0
C2896 C 0.45998 0.10767 0.24109 0.0
C2897 C 0.47677 0.10819 0.23854 0.0
C2898 C 0.49082 0.12128 0.24982 0.0
C2899 C 0.4881 0.13336 0.26396 0.0
C2900 C 0.47964 0.0963 0.22302 0.0
C2901 C 0.48646 0.10555 0.20906 0.0
C2902 C 0.47515 0.07634 0.2214 0.0
C2903 C 0.46707 0.06568 0.23539 0.0
C2904 C 0.47455 0.0698 0.25408 0.0
C2905 C 0.4668 0.05963 0.26705 0.0
C2906 C 0.45164 0.04516 0.26152 0.0
C2907 C 0.44423 0.04078 0.24298 0.0
C2908 C 0.4519 0.05095 0.22996 0.0
C2909 C 0.51859 0.06267 0.16654 0.0
C2910 C 0.50811 0.05359 0.14994 0.0
C2911 C 0.51126 0.0687 0.18093 0.0
C2912 C 0.49334 0.06554 0.17903 0.0
C2913 C 0.48269 0.05524 0.16297 0.0
C2914 C 0.49008 0.04952 0.14832 0.0
C2915 C 0.4864 0.07576 0.19268 0.0
C2916 C 0.47881 0.06629 0.20619 0.0
C2917 C 0.48964 0.09553 0.19376 0.0
C2918 C 0.4964 0.10609 0.1791 0.0
C2919 C 0.4877 0.10142 0.16086 0.0
C2920 C 0.49393 0.11158 0.14714 0.0
C2921 C 0.50874 0.12663 0.15154 0.0
C2922 C 0.51735 0.13154 0.16968 0.0
C2923 C 0.51124 0.12133 0.18342 0.0
H2924 H 0.51349 0.13455 0.14091 0.0
H2925 H 0.44568 0.03731 0.27158 0.0
H2926 H 0.75877 0.7484 0.96822 0.0
H2927 H 0.76122 0.75954 0.93833 0.0
H2928 H 0.81178 0.75019 0.94195 0.0
H2929 H 0.80922 0.73857 0.97172 0.0
H2930 H 0.81065 0.78546 0.93099 0.0
H2931 H 0.77945 0.72083 0.91256 0.0
H2932 H 0.75602 0.69206 0.91164 0.0
H2933 H 0.71867 0.72074 0.89111 0.0
H2934 H 0.74189 0.74976 0.89208 0.0
H2935 H 0.82486 0.80262 0.84197 0.0
H2936 H 0.82113 0.78885 0.8702 0.0
H2937 H 0.76657 0.7843 0.85845 0.0
H2938 H 0.77023 0.79697 0.82924 0.0
H2939 H 0.76922 0.75611 0.87406 0.0
H2940 H 0.79982 0.82101 0.89303 0.0
H2941 H 0.8229 0.85032 0.89486 0.0
H2942 H 0.86075 0.82227 0.91547 0.0
H2943 H 0.8379 0.79277 0.91363 0.0
C2944 C 0.77044 0.74868 0.9627 0.0
C2945 C 0.78381 0.74255 0.97255 0.0
C2946 C 0.77178 0.75499 0.94546 0.0
C2947 C 0.78665 0.75568 0.93762 0.0
C2948 C 0.80013 0.7498 0.94754 0.0
C2949 C 0.79864 0.74312 0.96462 0.0
C2950 C 0.78829 0.76296 0.91937 0.0
C2951 C 0.80171 0.77887 0.91851 0.0
C2952 C 0.77639 0.75486 0.90302 0.0
C2953 C 0.76239 0.73752 0.90258 0.0
C2954 C 0.76623 0.72106 0.90801 0.0
C2955 C 0.75299 0.70469 0.90744 0.0
C2956 C 0.73586 0.70459 0.90137 0.0
C2957 C 0.73194 0.72085 0.89583 0.0
C2958 C 0.74514 0.73725 0.89637 0.0
C2959 C 0.81202 0.79865 0.84533 0.0
C2960 C 0.79789 0.8011 0.83332 0.0
C2961 C 0.80989 0.79092 0.86174 0.0
C2962 C 0.79363 0.78603 0.86722 0.0
C2963 C 0.77935 0.78803 0.85493 0.0
C2964 C 0.78142 0.79533 0.83815 0.0
C2965 C 0.79167 0.77877 0.88556 0.0
C2966 C 0.77817 0.76283 0.88649 0.0
C2967 C 0.80341 0.78699 0.90209 0.0
C2968 C 0.81717 0.80466 0.90305 0.0
C2969 C 0.81308 0.82108 0.89784 0.0
C2970 C 0.82612 0.83773 0.89891 0.0
C2971 C 0.84328 0.83815 0.90524 0.0
C2972 C 0.84745 0.82193 0.91055 0.0
C2973 C 0.83446 0.80525 0.90953 0.0
H2974 H 0.85335 0.85105 0.90606 0.0
H2975 H 0.72563 0.6919 0.90092 0.0
H2976 H 0.83499 0.19326 1.00135 0.0
H2977 H 0.86032 0.18189 0.99727 0.0
H2978 H 0.83758 0.13028 0.01782 0.0
H2979 H 0.81288 0.14201 0.02278 0.0
H2980 H 0.86835 0.14107 0.03348 0.0
H2981 H 0.84236 0.1357 0.96963 0.0
H2982 H 0.83083 0.14751 0.94175 0.0
H2983 H 0.87973 0.18752 0.94413 0.0
H2984 H 0.8915 0.17606 0.97214 0.0
H2985 H 0.91928 0.08216 0.00833 0.0
H2986 H 0.89504 0.09652 0.00509 0.0
H2987 H 0.93004 0.15056 0.00375 0.0
H2988 H 0.9545 0.13625 0.00753 0.0
H2989 H 0.89524 0.14108 0.97769 0.0
H2990 H 0.9209 0.14622 0.04116 0.0
H2991 H 0.9327 0.13373 0.06844 0.0
H2992 H 0.88376 0.09379 0.0661 0.0
H2993 H 0.87177 0.10582 0.03856 0.0
C2994 C 0.83537 0.17943 0.00486 0.0
C2995 C 0.82193 0.16861 0.01253 0.0
C2996 C 0.84986 0.17285 0.0024 0.0
C2997 C 0.85101 0.15507 0.0071 0.0
C2998 C 0.83725 0.14409 0.01419 0.0
C2999 C 0.82303 0.15081 0.017 0.0
C3000 C 0.86678 0.14811 0.00582 0.0
C3001 C 0.87396 0.14091 0.02111 0.0
C3002 C 0.87477 0.14838 0.99 0.0
C3003 C 0.86775 0.15515 0.97309 0.0
C3004 C 0.85062 0.14709 0.96427 0.0
C3005 C 0.84405 0.15371 0.94844 0.0
C3006 C 0.85452 0.1683 0.94121 0.0
C3007 C 0.87162 0.17624 0.94976 0.0
C3008 C 0.87825 0.16968 0.9656 0.0
C3009 C 0.92179 0.09703 0.00701 0.0
C3010 C 0.9388 0.10808 0.00825 0.0
C3011 C 0.90791 0.10523 0.00513 0.0
C3012 C 0.91066 0.12464 0.00414 0.0
C3013 C 0.92757 0.13556 0.00438 0.0
C3014 C 0.94153 0.12741 0.00667 0.0
C3015 C 0.89618 0.13365 0.00511 0.0
C3016 C 0.88943 0.14129 0.98993 0.0
C3017 C 0.88846 0.1338 0.02097 0.0
C3018 C 0.8955 0.12679 0.03772 0.0
C3019 C 0.9127 0.13467 0.04639 0.0
C3020 C 0.91942 0.12769 0.0619 0.0
C3021 C 0.909 0.11295 0.06898 0.0
C3022 C 0.89182 0.10519 0.06059 0.0
C3023 C 0.88506 0.11209 0.04503 0.0
H3024 H 0.91423 0.10755 0.08099 0.0
H3025 H 0.84941 0.17341 0.92896 0.0
H3026 H 0.36294 0.42659 0.03011 0.0
H3027 H 0.39264 0.44332 0.02926 0.0
H3028 H 0.38407 0.49449 0.05369 0.0
H3029 H 0.35397 0.47781 0.05409 0.0
H3030 H 0.40183 0.50261 0.02785 0.0
H3031 H 0.4084 0.46528 0.0774 0.0
H3032 H 0.40482 0.43588 0.09157 0.0
H3033 H 0.4315 0.41392 0.05272 0.0
H3034 H 0.43504 0.44308 0.03816 0.0
H3035 H 0.48759 0.55775 0.04964 0.0
H3036 H 0.45871 0.53879 0.05074 0.0
H3037 H 0.47139 0.4893 0.02809 0.0
H3038 H 0.50093 0.50833 0.02787 0.0
H3039 H 0.45169 0.479 0.0519 0.0
H3040 H 0.44505 0.51442 1.00199 0.0
H3041 H 0.44845 0.54275 0.98614 0.0
H3042 H 0.42146 0.5667 0.02335 0.0
H3043 H 0.41809 0.5386 0.03957 0.0
C3044 C 0.36729 0.44142 0.03538 0.0
C3045 C 0.35585 0.45074 0.04226 0.0
C3046 C 0.38448 0.451 0.03501 0.0
C3047 C 0.39102 0.47024 0.04177 0.0
C3048 C 0.37957 0.47966 0.04847 0.0
C3049 C 0.36227 0.47008 0.04872 0.0
C3050 C 0.4095 0.48063 0.04128 0.0
C3051 C 0.41269 0.49753 0.03342 0.0
C3052 C 0.42391 0.47381 0.04776 0.0
C3053 C 0.42186 0.45631 0.05659 0.0
C3054 C 0.41341 0.45413 0.0718 0.0
C3055 C 0.4114 0.43752 0.07992 0.0
C3056 C 0.41789 0.42303 0.07303 0.0
C3057 C 0.42645 0.42514 0.05803 0.0
C3058 C 0.42848 0.44172 0.04986 0.0
C3059 C 0.4843 0.54284 0.04479 0.0
C3060 C 0.49666 0.53471 0.03843 0.0
C3061 C 0.4676 0.53193 0.04533 0.0
C3062 C 0.46238 0.51251 0.03902 0.0
C3063 C 0.47482 0.50422 0.03294 0.0
C3064 C 0.49175 0.51515 0.0327 0.0
C3065 C 0.44399 0.50118 0.03878 0.0
C3066 C 0.44082 0.48409 0.04639 0.0
C3067 C 0.42952 0.50763 0.03184 0.0
C3068 C 0.43143 0.52448 0.02206 0.0
C3069 C 0.43992 0.52578 0.00685 0.0
C3070 C 0.44184 0.54179 0.99779 0.0
C3071 C 0.4352 0.55653 0.00375 0.0
C3072 C 0.4266 0.55528 0.01876 0.0
C3073 C 0.42466 0.5393 0.02787 0.0
H3074 H 0.4367 0.56892 0.99673 0.0
H3075 H 0.41632 0.41018 0.07933 0.0
H3076 H 0.3571 0.57367 0.73001 0.0
H3077 H 0.34955 0.60161 0.74231 0.0
H3078 H 0.40262 0.63392 0.74826 0.0
H3079 H 0.41043 0.60537 0.73715 0.0
H3080 H 0.38851 0.64522 0.7759 0.0
H3081 H 0.37278 0.63745 0.71052 0.0
H3082 H 0.36019 0.61894 0.68024 0.0
H3083 H 0.31051 0.60386 0.69658 0.0
H3084 H 0.32282 0.62228 0.72696 0.0
H3085 H 0.35331 0.72806 0.77484 0.0
H3086 H 0.36968 0.7048 0.76971 0.0
H3087 H 0.32428 0.65991 0.77011 0.0
H3088 H 0.30786 0.68279 0.77486 0.0
H3089 H 0.33883 0.6591 0.73768 0.0
H3090 H 0.3561 0.66613 0.80412 0.0
H3091 H 0.36967 0.68417 0.83439 0.0
H3092 H 0.41772 0.7021 0.81511 0.0
H3093 H 0.40438 0.68425 0.78467 0.0
C3094 C 0.36713 0.58672 0.73403 0.0
C3095 C 0.38423 0.58759 0.7324 0.0
C3096 C 0.36284 0.60268 0.741 0.0
C3097 C 0.37544 0.61998 0.74562 0.0
C3098 C 0.3927 0.62074 0.74462 0.0
C3099 C 0.39711 0.60452 0.7382 0.0
C3100 C 0.37014 0.63724 0.75065 0.0
C3101 C 0.37787 0.6485 0.7674 0.0
C3102 C 0.35635 0.64159 0.73951 0.0
C3103 C 0.34871 0.63124 0.72098 0.0
C3104 C 0.35916 0.63022 0.70762 0.0
C3105 C 0.35208 0.61975 0.69045 0.0
C3106 C 0.33456 0.61023 0.68649 0.0
C3107 C 0.32406 0.61129 0.69965 0.0
C3108 C 0.33106 0.62181 0.71681 0.0
C3109 C 0.34692 0.71322 0.77407 0.0
C3110 C 0.32928 0.70723 0.77513 0.0
C3111 C 0.35631 0.70002 0.77131 0.0
C3112 C 0.34811 0.68072 0.76953 0.0
C3113 C 0.33079 0.67478 0.77152 0.0
C3114 C 0.32146 0.68789 0.77433 0.0
C3115 C 0.35667 0.66656 0.76326 0.0
C3116 C 0.34965 0.65601 0.74607 0.0
C3117 C 0.37124 0.66318 0.77388 0.0
C3118 C 0.3792 0.67404 0.79209 0.0
C3119 C 0.36951 0.67407 0.80629 0.0
C3120 C 0.37718 0.6842 0.82349 0.0
C3121 C 0.39453 0.69432 0.82665 0.0
C3122 C 0.40427 0.69428 0.81263 0.0
C3123 C 0.39667 0.68413 0.79542 0.0
H3124 H 0.40044 0.70216 0.83998 0.0
H3125 H 0.32912 0.60204 0.67322 0.0
H3126 H 0.21414 0.68131 0.49341 0.0
H3127 H 0.18508 0.66561 0.49772 0.0
H3128 H 0.20517 0.62611 0.52779 0.0
H3129 H 0.23431 0.64154 0.52319 0.0
H3130 H 0.17597 0.6086 0.50601 0.0
H3131 H 0.19502 0.66721 0.54828 0.0
H3132 H 0.20397 0.70155 0.55764 0.0
H3133 H 0.15795 0.70719 0.52468 0.0
H3134 H 0.14887 0.67296 0.51489 0.0
H3135 H 0.10666 0.57637 0.55528 0.0
H3136 H 0.13517 0.59126 0.54791 0.0
H3137 H 0.11198 0.62474 0.51245 0.0
H3138 H 0.08367 0.60966 0.51935 0.0
H3139 H 0.1417 0.6455 0.53569 0.0
H3140 H 0.12175 0.59061 0.49291 0.0
H3141 H 0.11024 0.55695 0.48108 0.0
H3142 H 0.15508 0.54512 0.5106 0.0
H3143 H 0.16673 0.5787 0.52293 0.0
C3144 C 0.21238 0.66911 0.50074 0.0
C3145 C 0.22663 0.66275 0.50805 0.0
C3146 C 0.19573 0.66026 0.50336 0.0
C3147 C 0.19295 0.64498 0.51353 0.0
C3148 C 0.207 0.638 0.52004 0.0
C3149 C 0.22367 0.64678 0.51732 0.0
C3150 C 0.17547 0.6362 0.51745 0.0
C3151 C 0.16863 0.61665 0.51279 0.0
C3152 C 0.16541 0.64682 0.52544 0.0
C3153 C 0.17139 0.66753 0.53066 0.0
C3154 C 0.18694 0.67581 0.54281 0.0
C3155 C 0.192 0.69525 0.54825 0.0
C3156 C 0.18157 0.70655 0.54172 0.0
C3157 C 0.16606 0.69844 0.52969 0.0
C3158 C 0.16096 0.67903 0.52418 0.0
C3159 C 0.10777 0.58702 0.54606 0.0
C3160 C 0.09307 0.5919 0.53785 0.0
C3161 C 0.12396 0.59539 0.54175 0.0
C3162 C 0.12561 0.60899 0.52953 0.0
C3163 C 0.11097 0.61424 0.52184 0.0
C3164 C 0.09484 0.60561 0.52579 0.0
C3165 C 0.14259 0.61795 0.52476 0.0
C3166 C 0.14918 0.63749 0.52907 0.0
C3167 C 0.15219 0.60745 0.516 0.0
C3168 C 0.14499 0.58715 0.5091 0.0
C3169 C 0.12904 0.5808 0.49714 0.0
C3170 C 0.12252 0.56174 0.49028 0.0
C3171 C 0.13189 0.54889 0.49515 0.0
C3172 C 0.14781 0.55508 0.50689 0.0
C3173 C 0.15437 0.57413 0.51384 0.0
H3174 H 0.12685 0.53414 0.48977 0.0
H3175 H 0.18547 0.72158 0.54602 0.0
H3176 H 0.69348 0.97091 0.79042 0.0
H3177 H 0.71257 0.95017 0.79507 0.0
H3178 H 0.67927 0.90922 0.75148 0.0
H3179 H 0.65977 0.92977 0.7474 0.0
H3180 H 0.68963 0.89319 0.77989 0.0
H3181 H 0.71729 0.93884 0.74413 0.0
H3182 H 0.72873 0.9712 0.73733 0.0
H3183 H 0.76493 0.98366 0.78784 0.0
H3184 H 0.75358 0.95143 0.79504 0.0
H3185 H 0.74718 0.83845 0.76977 0.0
H3186 H 0.72802 0.8588 0.76509 0.0
H3187 H 0.76342 0.90214 0.80509 0.0
H3188 H 0.78321 0.88177 0.80918 0.0
H3189 H 0.75191 0.91724 0.77773 0.0
H3190 H 0.72364 0.87377 0.81491 0.0
H3191 H 0.70768 0.84563 0.82668 0.0
H3192 H 0.67122 0.83066 0.77636 0.0
H3193 H 0.68704 0.85863 0.76419 0.0
C3194 C 0.69019 0.95731 0.78211 0.0
C3195 C 0.67531 0.95163 0.7687 0.0
C3196 C 0.70113 0.94564 0.78458 0.0
C3197 C 0.69752 0.92847 0.77326 0.0
C3198 C 0.68229 0.92254 0.76021 0.0
C3199 C 0.67117 0.93411 0.75796 0.0
C3200 C 0.70956 0.91659 0.77527 0.0
C3201 C 0.7032 0.89824 0.77902 0.0
C3202 C 0.72731 0.92359 0.77476 0.0
C3203 C 0.73454 0.94276 0.77015 0.0
C3204 C 0.72767 0.9485 0.7538 0.0
C3205 C 0.73413 0.96682 0.74988 0.0
C3206 C 0.74753 0.97948 0.76215 0.0
C3207 C 0.75456 0.97383 0.77834 0.0
C3208 C 0.74814 0.95553 0.78233 0.0
C3209 C 0.75082 0.85233 0.77762 0.0
C3210 C 0.76641 0.85858 0.79008 0.0
C3211 C 0.73982 0.86386 0.77503 0.0
C3212 C 0.74402 0.88173 0.78516 0.0
C3213 C 0.75988 0.88826 0.7973 0.0
C3214 C 0.77114 0.87674 0.79965 0.0
C3215 C 0.732 0.89367 0.78251 0.0
C3216 C 0.73834 0.91204 0.77846 0.0
C3217 C 0.71416 0.8867 0.78281 0.0
C3218 C 0.70657 0.86825 0.78864 0.0
C3219 C 0.71249 0.86423 0.80617 0.0
C3220 C 0.7034 0.8484 0.81296 0.0
C3221 C 0.68838 0.83658 0.80234 0.0
C3222 C 0.68281 0.83996 0.78459 0.0
C3223 C 0.69184 0.85576 0.77773 0.0
H3224 H 0.68092 0.82504 0.80806 0.0
H3225 H 0.75248 0.99368 0.75912 0.0
H3226 H 0.75775 0.95418 0.57162 0.0
H3227 H 0.73076 0.96348 0.56495 0.0
H3228 H 0.73359 0.95852 0.50736 0.0
H3229 H 0.76028 0.94831 0.51392 0.0
H3230 H 0.73002 0.99454 0.52352 0.0
H3231 H 0.70237 0.92923 0.5171 0.0
H3232 H 0.69339 0.89653 0.5239 0.0
H3233 H 0.67516 0.91524 0.5717 0.0
H3234 H 0.68427 0.9481 0.56536 0.0
H3235 H 0.65054 0.0209 0.50275 0.0
H3236 H 0.67309 0.00436 0.50203 0.0
H3237 H 0.67123 0.99442 0.5581 0.0
H3238 H 0.64901 0.01121 0.55909 0.0
H3239 H 0.67295 0.96348 0.53816 0.0
H3240 H 0.70298 0.02929 0.54581 0.0
H3241 H 0.71086 0.06175 0.53808 0.0
H3242 H 0.72441 0.04192 0.4877 0.0
H3243 H 0.71629 0.00928 0.49496 0.0
C3244 C 0.75253 0.9549 0.55751 0.0
C3245 C 0.76122 0.95067 0.54331 0.0
C3246 C 0.73702 0.96007 0.5537 0.0
C3247 C 0.73005 0.96163 0.53565 0.0
C3248 C 0.73863 0.95728 0.52139 0.0
C3249 C 0.75389 0.9515 0.52514 0.0
C3250 C 0.71486 0.96962 0.53211 0.0
C3251 C 0.71743 0.98758 0.52638 0.0
C3252 C 0.6985 0.96075 0.5362 0.0
C3253 C 0.69428 0.9412 0.54089 0.0
C3254 C 0.69678 0.92644 0.52927 0.0
C3255 C 0.69156 0.90785 0.53298 0.0
C3256 C 0.68378 0.90382 0.54826 0.0
C3257 C 0.68125 0.91838 0.5599 0.0
C3258 C 0.68645 0.937 0.55626 0.0
C3259 C 0.65498 0.01533 0.515 0.0
C3260 C 0.64788 0.01756 0.53103 0.0
C3261 C 0.6679 0.0058 0.51454 0.0
C3262 C 0.67409 0.99827 0.53008 0.0
C3263 C 0.66672 1.00005 0.5459 0.0
C3264 C 0.65387 0.0096 0.5464 0.0
C3265 C 0.68826 0.98862 0.53008 0.0
C3266 C 0.6855 0.97038 0.53516 0.0
C3267 C 0.70447 0.99726 0.52547 0.0
C3268 C 0.70877 0.0168 0.5208 0.0
C3269 C 0.70739 0.03181 0.53296 0.0
C3270 C 0.71196 0.05025 0.52869 0.0
C3271 C 0.71807 0.05389 0.51238 0.0
C3272 C 0.71961 0.03908 0.5003 0.0
C3273 C 0.71501 0.0206 0.50447 0.0
H3274 H 0.72167 0.06818 0.50914 0.0
H3275 H 0.67964 0.8894 0.55104 0.0
H3276 H 0.36698 0.48042 0.70502 0.0
H3277 H 0.35437 0.44906 0.71302 0.0
H3278 H 0.39053 0.46172 0.76404 0.0
H3279 H 0.40383 0.49244 0.75551 0.0
H3280 H 0.38492 0.42616 0.7514 0.0
H3281 H 0.3497 0.46744 0.76298 0.0
H3282 H 0.33444 0.49128 0.75453 0.0
H3283 H 0.30133 0.45187 0.71024 0.0
H3284 H 0.31651 0.42785 0.71833 0.0
H3285 H 0.32737 0.35529 0.79164 0.0
H3286 H 0.34762 0.38348 0.78494 0.0
H3287 H 0.31742 0.37751 0.73088 0.0
H3288 H 0.29696 0.34981 0.73772 0.0
H3289 H 0.3216 0.41123 0.74917 0.0
H3290 H 0.35985 0.37089 0.73744 0.0
H3291 H 0.37794 0.34949 0.74526 0.0
H3292 H 0.40578 0.3882 0.79259 0.0
H3293 H 0.38821 0.41018 0.78468 0.0
C3294 C 0.37224 0.47633 0.71782 0.0
C3295 C 0.38611 0.48869 0.72977 0.0
C3296 C 0.36511 0.45853 0.7224 0.0
C3297 C 0.37131 0.45333 0.73932 0.0
C3298 C 0.38558 0.46549 0.75095 0.0
C3299 C 0.39304 0.48302 0.74612 0.0
C3300 C 0.36203 0.43587 0.74548 0.0
C3301 C 0.3711 0.42291 0.75111 0.0
C3302 C 0.3441 0.43189 0.7454 0.0
C3303 C 0.33424 0.44588 0.74124 0.0
C3304 C 0.33912 0.46385 0.75148 0.0
C3305 C 0.33052 0.47741 0.74673 0.0
C3306 C 0.31693 0.4731 0.73186 0.0
C3307 C 0.31183 0.45518 0.72178 0.0
C3308 C 0.32039 0.44157 0.72647 0.0
C3309 C 0.32522 0.35996 0.77828 0.0
C3310 C 0.31049 0.35076 0.76529 0.0
C3311 C 0.33685 0.3759 0.77442 0.0
C3312 C 0.33396 0.38254 0.75744 0.0
C3313 C 0.31977 0.37264 0.74412 0.0
C3314 C 0.30807 0.35691 0.74805 0.0
C3315 C 0.34429 0.40094 0.75411 0.0
C3316 C 0.33542 0.41437 0.74945 0.0
C3317 C 0.36242 0.40544 0.75551 0.0
C3318 C 0.37256 0.39201 0.76062 0.0
C3319 C 0.36971 0.37474 0.74961 0.0
C3320 C 0.37991 0.36253 0.75404 0.0
C3321 C 0.39281 0.36729 0.76959 0.0
C3322 C 0.39571 0.38444 0.78062 0.0
C3323 C 0.38572 0.39685 0.7761 0.0
H3324 H 0.40064 0.35775 0.77299 0.0
H3325 H 0.31034 0.48364 0.72813 0.0
H3326 H 0.16608 0.54183 0.24912 0.0
H3327 H 0.18063 0.57503 0.24896 0.0
H3328 H 0.18445 0.58479 0.30774 0.0
H3329 H 0.16969 0.55135 0.30785 0.0
H3330 H 0.17423 0.61339 0.28692 0.0
H3331 H 0.21795 0.57816 0.29284 0.0
H3332 H 0.22963 0.55195 0.28279 0.0
H3333 H 0.23114 0.57092 0.2299 0.0
H3334 H 0.21922 0.59708 0.23956 0.0
H3335 H 0.23777 0.70153 0.29708 0.0
H3336 H 0.2217 0.66982 0.30143 0.0
H3337 H 0.22479 0.64937 0.2461 0.0
H3338 H 0.24121 0.68062 0.24205 0.0
H3339 H 0.23147 0.62613 0.26746 0.0
H3340 H 0.18846 0.65988 0.25828 0.0
H3341 H 0.17434 0.68516 0.26425 0.0
H3342 H 0.16829 0.66887 0.31748 0.0
H3343 H 0.18269 0.6437 0.31198 0.0
C3344 C 0.17016 0.55113 0.26197 0.0
C3345 C 0.16734 0.54435 0.27856 0.0
C3346 C 0.17826 0.56997 0.26185 0.0
C3347 C 0.18364 0.58212 0.27836 0.0
C3348 C 0.18036 0.57545 0.29493 0.0
C3349 C 0.17224 0.55649 0.29504 0.0
C3350 C 0.19385 0.60142 0.27832 0.0
C3351 C 0.18688 0.61636 0.28299 0.0
C3352 C 0.20999 0.60492 0.27251 0.0
C3353 C 0.21763 0.58951 0.26691 0.0
C3354 C 0.22072 0.57669 0.27906 0.0
C3355 C 0.22737 0.56184 0.27342 0.0
C3356 C 0.23111 0.55976 0.25571 0.0
C3357 C 0.22825 0.57256 0.24361 0.0
C3358 C 0.22156 0.58741 0.24917 0.0
C3359 C 0.23515 0.6901 0.28604 0.0
C3360 C 0.24079 0.69323 0.26933 0.0
C3361 C 0.22589 0.67215 0.28844 0.0
C3362 C 0.22193 0.65739 0.27399 0.0
C3363 C 0.2278 0.66058 0.25743 0.0
C3364 C 0.23726 0.67834 0.25516 0.0
C3365 C 0.21192 0.6384 0.27597 0.0
C3366 C 0.21892 0.6234 0.27163 0.0
C3367 C 0.19558 0.63491 0.2815 0.0
C3368 C 0.18691 0.65007 0.28483 0.0
C3369 C 0.1843 0.66181 0.27134 0.0
C3370 C 0.17622 0.67611 0.27463 0.0
C3371 C 0.1705 0.67868 0.29127 0.0
C3372 C 0.17279 0.66691 0.30462 0.0
C3373 C 0.18092 0.65263 0.30143 0.0
H3374 H 0.16423 0.68975 0.29378 0.0
H3375 H 0.23625 0.54824 0.25138 0.0
H3376 H 0.53375 0.74051 0.43341 0.0
H3377 H 0.53712 0.71281 0.44791 0.0
H3378 H 0.52641 0.73756 0.49825 0.0
H3379 H 0.52458 0.76585 0.48406 0.0
H3380 H 0.54982 0.72434 0.50806 0.0
H3381 H 0.49809 0.6953 0.46519 0.0
H3382 H 0.47845 0.68501 0.43548 0.0
H3383 H 0.51281 0.65492 0.41645 0.0
H3384 H 0.53278 0.66525 0.44593 0.0
H3385 H 0.53562 0.63774 0.54935 0.0
H3386 H 0.53183 0.66516 0.53433 0.0
H3387 H 0.56129 0.6516 0.4938 0.0
H3388 H 0.56567 0.62461 0.50927 0.0
H3389 H 0.52836 0.65809 0.47899 0.0
H3390 H 0.57943 0.68812 0.52373 0.0
H3391 H 0.5971 0.69789 0.55458 0.0
H3392 H 0.55989 0.72518 0.57127 0.0
H3393 H 0.54188 0.71534 0.54059 0.0
C3394 C 0.53193 0.73987 0.44752 0.0
C3395 C 0.52881 0.7553 0.45758 0.0
C3396 C 0.53371 0.72389 0.45584 0.0
C3397 C 0.5318 0.7226 0.4743 0.0
C3398 C 0.52811 0.73794 0.48409 0.0
C3399 C 0.52692 0.75415 0.47595 0.0
C3400 C 0.53486 0.70614 0.48387 0.0
C3401 C 0.54472 0.70988 0.50167 0.0
C3402 C 0.5288 0.68702 0.47568 0.0
C3403 C 0.51705 0.68127 0.45772 0.0
C3404 C 0.50156 0.68668 0.4546 0.0
C3405 C 0.49035 0.68079 0.4378 0.0
C3406 C 0.49441 0.66937 0.42406 0.0
C3407 C 0.5097 0.66381 0.42708 0.0
C3408 C 0.52097 0.66968 0.44383 0.0
C3409 C 0.54159 0.64087 0.53747 0.0
C3410 C 0.55118 0.6292 0.53069 0.0
C3411 C 0.53937 0.6565 0.52883 0.0
C3412 C 0.54624 0.66053 0.51286 0.0
C3413 C 0.55589 0.64889 0.5061 0.0
C3414 C 0.55853 0.63356 0.51506 0.0
C3415 C 0.54297 0.67653 0.503 0.0
C3416 C 0.5332 0.67264 0.48522 0.0
C3417 C 0.54868 0.69546 0.51132 0.0
C3418 C 0.55921 0.7008 0.52993 0.0
C3419 C 0.5749 0.69598 0.53405 0.0
C3420 C 0.58501 0.70159 0.55149 0.0
C3421 C 0.5796 0.7121 0.56489 0.0
C3422 C 0.56405 0.717 0.56089 0.0
C3423 C 0.55389 0.71142 0.54349 0.0
H3424 H 0.58747 0.71649 0.57836 0.0
H3425 H 0.48569 0.66479 0.4111 0.0
H3426 H 0.61587 0.34067 0.70745 0.0
H3427 H 0.64356 0.33673 0.7226 0.0
H3428 H 0.65327 0.31522 0.67056 0.0
H3429 H 0.62601 0.31982 0.65529 0.0
H3430 H 0.66027 0.29366 0.7029 0.0
H3431 H 0.67492 0.35449 0.68232 0.0
H3432 H 0.6712 0.3861 0.67839 0.0
H3433 H 0.67985 0.40047 0.73685 0.0
H3434 H 0.68337 0.36879 0.7411 0.0
H3435 H 0.75217 0.3038 0.73723 0.0
H3436 H 0.72366 0.30129 0.71871 0.0
H3437 H 0.71319 0.33867 0.76082 0.0
H3438 H 0.74137 0.34149 0.77881 0.0
H3439 H 0.70674 0.35084 0.72998 0.0
H3440 H 0.69236 0.28946 0.75061 0.0
H3441 H 0.69421 0.25712 0.75417 0.0
H3442 H 0.68441 0.24294 0.69566 0.0
H3443 H 0.68273 0.27528 0.69175 0.0
C3444 C 0.62399 0.33529 0.69923 0.0
C3445 C 0.61886 0.33095 0.68011 0.0
C3446 C 0.63975 0.33289 0.7079 0.0
C3447 C 0.6505 0.32555 0.69775 0.0
C3448 C 0.64522 0.32082 0.67872 0.0
C3449 C 0.62972 0.32371 0.66998 0.0
C3450 C 0.66769 0.32394 0.70688 0.0
C3451 C 0.67055 0.30613 0.70866 0.0
C3452 C 0.68108 0.34013 0.71447 0.0
C3453 C 0.67925 0.35925 0.71202 0.0
C3454 C 0.6759 0.36435 0.69433 0.0
C3455 C 0.67385 0.38227 0.69204 0.0
C3456 C 0.67525 0.39527 0.70736 0.0
C3457 C 0.67876 0.39038 0.725 0.0
C3458 C 0.68079 0.37245 0.72735 0.0
C3459 C 0.74361 0.31117 0.74261 0.0
C3460 C 0.74912 0.3229 0.75951 0.0
C3461 C 0.72728 0.30975 0.73202 0.0
C3462 C 0.7161 0.31988 0.73823 0.0
C3463 C 0.72146 0.33086 0.75547 0.0
C3464 C 0.73766 0.33241 0.76584 0.0
C3465 C 0.69941 0.32046 0.72669 0.0
C3466 C 0.69661 0.33823 0.72428 0.0
C3467 C 0.68615 0.30415 0.71855 0.0
C3468 C 0.68769 0.28489 0.72089 0.0
C3469 C 0.69083 0.27953 0.73851 0.0
C3470 C 0.69179 0.26117 0.74059 0.0
C3471 C 0.6895 0.24801 0.72516 0.0
C3472 C 0.68624 0.25317 0.70761 0.0
C3473 C 0.68528 0.27151 0.70545 0.0
H3474 H 0.6902 0.2338 0.7268 0.0
H3475 H 0.67365 0.40915 0.70557 0.0
H3476 H 0.02372 0.37364 0.93088 0.0
H3477 H 0.02612 0.40599 0.94378 0.0
H3478 H 0.04427 0.39318 0.99754 0.0
H3479 H 0.0404 0.36048 0.98476 0.0
H3480 H 0.02189 0.40893 1.00152 0.0
H3481 H 0.06906 0.42523 0.96836 0.0
H3482 H 0.08503 0.42873 0.94252 0.0
H3483 H 0.05067 0.45834 0.91685 0.0
H3484 H 0.03429 0.45472 0.94233 0.0
H3485 H 0.05217 0.50256 0.04739 0.0
H3486 H 0.05019 0.47156 0.03135 0.0
H3487 H 0.01519 0.48154 0.98616 0.0
H3488 H 0.01684 0.51256 0.00243 0.0
H3489 H 0.04457 0.46846 0.97662 0.0
H3490 H 0.99828 0.45214 0.0109 0.0
H3491 H 0.98575 0.45255 0.03917 0.0
H3492 H 0.02237 0.4253 0.06445 0.0
H3493 H 0.03527 0.42496 0.0364 0.0
C3494 C 0.02857 0.37793 0.94539 0.0
C3495 C 0.03196 0.36466 0.95686 0.0
C3496 C 0.03004 0.3965 0.95278 0.0
C3497 C 0.03547 0.40231 0.97173 0.0
C3498 C 0.03986 0.38917 0.98293 0.0
C3499 C 0.0378 0.37049 0.97564 0.0
C3500 C 0.03486 0.42121 0.98031 0.0
C3501 C 0.02718 0.42187 0.99609 0.0
C3502 C 0.04106 0.43832 0.97305 0.0
C3503 C 0.05027 0.43942 0.95716 0.0
C3504 C 0.06472 0.43219 0.95706 0.0
C3505 C 0.07389 0.43427 0.9425 0.0
C3506 C 0.06883 0.44368 0.92802 0.0
C3507 C 0.05454 0.45099 0.92803 0.0
C3508 C 0.0453 0.44889 0.94251 0.0
C3509 C 0.04387 0.49802 0.03414 0.0
C3510 C 0.03457 0.50984 0.02616 0.0
C3511 C 0.04279 0.48036 0.02499 0.0
C3512 C 0.0326 0.47431 0.00756 0.0
C3513 C 0.02313 0.486 0.9996 0.0
C3514 C 0.02394 0.50357 0.00896 0.0
C3515 C 0.03209 0.4558 0.9977 0.0
C3516 C 0.03938 0.4553 0.98178 0.0
C3517 C 0.02582 0.43887 0.00489 0.0
C3518 C 0.01779 0.43862 0.02159 0.0
C3519 C 1.00371 0.44631 0.02252 0.0
C3520 C 0.99654 0.44653 0.0385 0.0
C3521 C 1.00327 0.43898 0.05361 0.0
C3522 C 0.01716 0.43114 0.05274 0.0
C3523 C 0.02438 0.4309 0.03679 0.0
H3524 H 0.99772 0.43918 0.06598 0.0
H3525 H 0.07602 0.44538 0.91683 0.0
H3526 H 1.0014 0.81544 0.15488 0.0
H3527 H 0.97312 0.80505 0.16394 0.0
H3528 H 0.99775 0.81174 0.22057 0.0
H3529 H 0.02603 0.8205 0.2112 0.0
H3530 H 0.97364 0.78199 0.21521 0.0
H3531 H 0.97563 0.84465 0.19713 0.0
H3532 H 0.97806 0.86783 0.17499 0.0
H3533 H 0.93429 0.83148 0.13843 0.0
H3534 H 0.93176 0.80799 0.16022 0.0
H3535 H 0.90999 0.7956 0.26553 0.0
H3536 H 0.93435 0.79552 0.25002 0.0
H3537 H 0.90063 0.78524 0.19757 0.0
H3538 H 0.87617 0.78598 0.21317 0.0
H3539 H 0.92674 0.81193 0.1963 0.0
H3540 H 0.92203 0.75132 0.21539 0.0
H3541 H 0.91907 0.72731 0.23664 0.0
H3542 H 0.96696 0.7584 0.27036 0.0
H3543 H 0.97013 0.7827 0.24943 0.0
C3544 C 1.00069 0.81493 0.16928 0.0
C3545 C 0.01583 0.81913 0.18242 0.0
C3546 C 0.98451 0.80901 0.17448 0.0
C3547 C 0.98312 0.80799 0.19305 0.0
C3548 C 0.99835 0.81239 0.20616 0.0
C3549 C 0.01452 0.81761 0.20087 0.0
C3550 C 0.96596 0.80227 0.199 0.0
C3551 C 0.96347 0.78872 0.21122 0.0
C3552 C 0.95221 0.81021 0.19312 0.0
C3553 C 0.95362 0.82451 0.18022 0.0
C3554 C 0.96658 0.84159 0.18433 0.0
C3555 C 0.96798 0.85477 0.17184 0.0
C3556 C 0.95637 0.85111 0.15529 0.0
C3557 C 0.94329 0.83428 0.15123 0.0
C3558 C 0.94187 0.82104 0.16364 0.0
C3559 C 0.90765 0.79288 0.2507 0.0
C3560 C 0.89113 0.79085 0.2406 0.0
C3561 C 0.92164 0.79275 0.2418 0.0
C3562 C 0.91941 0.79014 0.22255 0.0
C3563 C 0.90275 0.78731 0.21242 0.0
C3564 C 0.88877 0.78774 0.22134 0.0
C3565 C 0.93474 0.79231 0.21319 0.0
C3566 C 0.93683 0.80507 0.20021 0.0
C3567 C 0.94807 0.78356 0.2183 0.0
C3568 C 0.94626 0.76889 0.23087 0.0
C3569 C 0.93188 0.75309 0.22739 0.0
C3570 C 0.93018 0.73942 0.23937 0.0
C3571 C 0.9428 0.74134 0.25485 0.0
C3572 C 0.95719 0.75692 0.25836 0.0
C3573 C 0.95896 0.77062 0.24641 0.0
H3574 H 0.94145 0.73076 0.26412 0.0
H3575 H 0.95748 0.86132 0.14564 0.0
H3576 H 0.55574 0.36118 0.09305 0.0
H3577 H 0.55576 0.39189 0.08302 0.0
H3578 H 0.58691 0.41958 0.13475 0.0
H3579 H 0.58586 0.38866 0.14518 0.0
H3580 H 0.56568 0.43911 0.12552 0.0
H3581 H 0.60453 0.41729 0.09241 0.0
H3582 H 0.61368 0.39359 0.07366 0.0
H3583 H 0.57138 0.39023 0.03038 0.0
H3584 H 0.56198 0.4139 0.0489 0.0
H3585 H 0.57713 0.52717 0.08731 0.0
H3586 H 0.58289 0.49995 0.10137 0.0
H3587 H 0.55215 0.46282 0.05384 0.0
H3588 H 0.54707 0.48976 0.03958 0.0
H3589 H 0.57792 0.45021 0.06337 0.0
H3590 H 0.53849 0.47132 0.09892 0.0
H3591 H 0.5297 0.49409 0.11922 0.0
H3592 H 0.57501 0.49933 0.15919 0.0
H3593 H 0.58411 0.47667 0.13905 0.0
C3594 C 0.56248 0.37384 0.1023 0.0
C3595 C 0.57073 0.37251 0.11989 0.0
C3596 C 0.56268 0.39148 0.0965 0.0
C3597 C 0.57173 0.40836 0.10786 0.0
C3598 C 0.57984 0.40697 0.1256 0.0
C3599 C 0.57926 0.38926 0.13157 0.0
C3600 C 0.5726 0.42725 0.10113 0.0
C3601 C 0.56864 0.44159 0.11203 0.0
C3602 C 0.5765 0.43086 0.08357 0.0
C3603 C 0.58254 0.4173 0.07204 0.0
C3604 C 0.59721 0.41151 0.07887 0.0
C3605 C 0.60243 0.39809 0.0683 0.0
C3606 C 0.5931 0.3904 0.05085 0.0
C3607 C 0.57861 0.39623 0.04388 0.0
C3608 C 0.57337 0.40971 0.05438 0.0
C3609 C 0.57165 0.51319 0.07986 0.0
C3610 C 0.56157 0.51078 0.06228 0.0
C3611 C 0.57485 0.49753 0.08798 0.0
C3612 C 0.56775 0.47901 0.07891 0.0
C3613 C 0.55788 0.47676 0.06128 0.0
C3614 C 0.5549 0.49232 0.0531 0.0
C3615 C 0.57027 0.46183 0.08745 0.0
C3616 C 0.57506 0.44782 0.07692 0.0
C3617 C 0.56737 0.45868 0.10546 0.0
C3618 C 0.56201 0.47242 0.11745 0.0
C3619 C 0.54661 0.47741 0.112 0.0
C3620 C 0.54157 0.49027 0.12348 0.0
C3621 C 0.55177 0.49811 0.14049 0.0
C3622 C 0.5671 0.4932 0.14603 0.0
C3623 C 0.5722 0.48035 0.1346 0.0
H3624 H 0.54776 0.50794 0.14941 0.0
H3625 H 0.59711 0.37993 0.04273 0.0
H3626 H 0.98324 0.30169 0.35916 0.0
H3627 H 0.95661 0.30389 0.3402 0.0
H3628 H 0.93046 0.29727 0.38664 0.0
H3629 H 0.95706 0.2954 0.40575 0.0
H3630 H 0.91066 0.27553 0.35359 0.0
H3631 H 0.94218 0.33906 0.37657 0.0
H3632 H 0.96715 0.36699 0.38287 0.0
H3633 H 0.96741 0.36698 0.32513 0.0
H3634 H 0.94253 0.33887 0.31851 0.0
H3635 H 0.83708 0.30527 0.32393 0.0
H3636 H 0.86436 0.30328 0.34131 0.0
H3637 H 0.8897 0.31853 0.29551 0.0
H3638 H 0.86231 0.32148 0.2784 0.0
H3639 H 0.91019 0.33474 0.32691 0.0
H3640 H 0.87588 0.27181 0.30437 0.0
H3641 H 0.84894 0.24636 0.2996 0.0
H3642 H 0.8528 0.24596 0.35779 0.0
H3643 H 0.87957 0.27176 0.36294 0.0
C3644 C 0.9718 0.30058 0.36531 0.0
C3645 C 0.97232 0.29849 0.38401 0.0
C3646 C 0.9566 0.30188 0.35447 0.0
C3647 C 0.94156 0.30083 0.36203 0.0
C3648 C 0.94189 0.29812 0.38052 0.0
C3649 C 0.95715 0.29715 0.39144 0.0
C3650 C 0.92569 0.30327 0.35086 0.0
C3651 C 0.91052 0.28849 0.34782 0.0
C3652 C 0.92553 0.32009 0.34315 0.0
C3653 C 0.94068 0.33672 0.34706 0.0
C3654 C 0.9477 0.34487 0.36523 0.0
C3655 C 0.96179 0.36077 0.36886 0.0
C3656 C 0.96891 0.36871 0.35441 0.0
C3657 C 0.96191 0.36078 0.33631 0.0
C3658 C 0.94782 0.34488 0.33261 0.0
C3659 C 0.84856 0.3084 0.3177 0.0
C3660 C 0.84772 0.3134 0.29988 0.0
C3661 C 0.8641 0.30712 0.32755 0.0
C3662 C 0.87901 0.31017 0.31954 0.0
C3663 C 0.87833 0.31592 0.30192 0.0
C3664 C 0.86276 0.31762 0.29216 0.0
C3665 C 0.89513 0.30699 0.3295 0.0
C3666 C 0.91035 0.32164 0.33239 0.0
C3667 C 0.89527 0.29006 0.33714 0.0
C3668 C 0.8797 0.27381 0.33405 0.0
C3669 C 0.87098 0.26631 0.31616 0.0
C3670 C 0.85571 0.25186 0.31339 0.0
C3671 C 0.84914 0.24457 0.32839 0.0
C3672 C 0.8579 0.25164 0.34619 0.0
C3673 C 0.87313 0.26618 0.34904 0.0
H3674 H 0.83728 0.23341 0.32622 0.0
H3675 H 0.9798 0.38105 0.35724 0.0
H3676 H 0.03728 0.77338 0.599 0.0
H3677 H 0.03512 0.74046 0.5872 0.0
H3678 H 0.07135 0.73678 0.63434 0.0
H3679 H 0.07298 0.76924 0.64643 0.0
H3680 H 0.07788 0.72119 0.5994 0.0
H3681 H 0.03436 0.71492 0.63638 0.0
H3682 H 0.0094 0.72151 0.64833 0.0
H3683 H 0.97832 0.7043 0.59478 0.0
H3684 H 1.00318 0.69775 0.58248 0.0
H3685 H 0.05932 0.61866 0.58025 0.0
H3686 H 0.06417 0.65041 0.59705 0.0
H3687 H 0.02578 0.66189 0.55644 0.0
H3688 H 0.0212 0.63076 0.53966 0.0
H3689 H 0.02185 0.67295 0.59176 0.0
H3690 H 0.06765 0.67999 0.5554 0.0
H3691 H 0.0935 0.67359 0.54533 0.0
H3692 H 0.12133 0.68894 0.6005 0.0
H3693 H 0.09557 0.69525 0.61092 0.0
C3694 C 0.04483 0.76555 0.60673 0.0
C3695 C 0.05529 0.77387 0.62361 0.0
C3696 C 0.04357 0.74673 0.60004 0.0
C3697 C 0.05308 0.73607 0.60987 0.0
C3698 C 0.06391 0.74463 0.62646 0.0
C3699 C 0.0648 0.76318 0.63336 0.0
C3700 C 0.0514 0.71588 0.6031 0.0
C3701 C 0.06568 0.71059 0.59795 0.0
C3702 C 0.03559 0.70193 0.60129 0.0
C3703 C 0.02066 0.70607 0.60847 0.0
C3704 C 0.02225 0.71273 0.62711 0.0
C3705 C 0.00811 0.71639 0.63396 0.0
C3706 C 0.9923 0.71338 0.62231 0.0
C3707 C 0.99059 0.70665 0.60378 0.0
C3708 C 1.00469 0.70294 0.59687 0.0
C3709 C 0.05183 0.62793 0.57506 0.0
C3710 C 0.03984 0.62213 0.55862 0.0
C3711 C 0.05469 0.64613 0.58459 0.0
C3712 C 0.04539 0.6587 0.578 0.0
C3713 C 0.03313 0.65259 0.56187 0.0
C3714 C 0.03053 0.6347 0.55226 0.0
C3715 C 0.0482 0.67826 0.58751 0.0
C3716 C 0.0341 0.68348 0.59328 0.0
C3717 C 0.06428 0.69203 0.59013 0.0
C3718 C 0.07962 0.68782 0.58397 0.0
C3719 C 0.07922 0.68178 0.56542 0.0
C3720 C 0.09387 0.67824 0.55964 0.0
C3721 C 0.10903 0.68079 0.57228 0.0
C3722 C 0.10957 0.68692 0.59073 0.0
C3723 C 0.09495 0.69049 0.59658 0.0
H3724 H 0.12037 0.67807 0.56777 0.0
H3725 H 0.98136 0.71621 0.62763 0.0
H3726 H 0.57858 0.79788 0.90506 0.0
H3727 H 0.60149 0.79786 0.88718 0.0
H3728 H 0.56642 0.79764 0.83765 0.0
H3729 H 0.5433 0.79759 0.85551 0.0
H3730 H 0.58482 0.77322 0.83202 0.0
H3731 H 0.59791 0.8371 0.85596 0.0
H3732 H 0.60326 0.86496 0.87891 0.0
H3733 H 0.64751 0.85102 0.90724 0.0
H3734 H 0.64226 0.82286 0.88464 0.0
H3735 H 0.65657 0.78868 0.78245 0.0
H3736 H 0.63116 0.791 0.7955 0.0
H3737 H 0.65886 0.79147 0.84965 0.0
H3738 H 0.68419 0.78873 0.83678 0.0
H3739 H 0.64256 0.81842 0.84976 0.0
H3740 H 0.62659 0.75228 0.82448 0.0
H3741 H 0.619 0.72473 0.80074 0.0
H3742 H 0.57832 0.74487 0.77277 0.0
H3743 H 0.58587 0.77271 0.79616 0.0
C3744 C 0.57567 0.79782 0.89037 0.0
C3745 C 0.55901 0.79773 0.8818 0.0
C3746 C 0.58887 0.79795 0.88013 0.0
C3747 C 0.58584 0.79798 0.86102 0.0
C3748 C 0.56917 0.79768 0.85236 0.0
C3749 C 0.55594 0.79768 0.86262 0.0
C3750 C 0.6 0.79777 0.8502 0.0
C3751 C 0.59737 0.78332 0.83569 0.0
C3752 C 0.61642 0.81089 0.85493 0.0
C3753 C 0.61959 0.82774 0.86868 0.0
C3754 C 0.60869 0.83985 0.86719 0.0
C3755 C 0.61172 0.85572 0.88012 0.0
C3756 C 0.62569 0.85973 0.89455 0.0
C3757 C 0.63668 0.84788 0.89606 0.0
C3758 C 0.63368 0.83196 0.88319 0.0
C3759 C 0.65724 0.78882 0.79711 0.0
C3760 C 0.67266 0.78838 0.80845 0.0
C3761 C 0.64261 0.79028 0.80459 0.0
C3762 C 0.64291 0.79128 0.82363 0.0
C3763 C 0.65821 0.79078 0.83494 0.0
C3764 C 0.6728 0.78928 0.8275 0.0
C3765 C 0.62762 0.79339 0.83199 0.0
C3766 C 0.63 0.80836 0.84599 0.0
C3767 C 0.61086 0.78095 0.8265 0.0
C3768 C 0.607 0.76474 0.81193 0.0
C3769 C 0.61623 0.751 0.81311 0.0
C3770 C 0.61188 0.73529 0.79974 0.0
C3771 C 0.59823 0.73309 0.78522 0.0
C3772 C 0.58893 0.74663 0.78398 0.0
C3773 C 0.59326 0.76238 0.79727 0.0
H3774 H 0.59482 0.72086 0.77495 0.0
H3775 H 0.62804 0.87204 0.90453 0.0
H3776 H 0.42438 0.56827 0.66704 0.0
H3777 H 0.44497 0.57238 0.64562 0.0
H3778 H 0.47299 0.53838 0.67524 0.0
H3779 H 0.45305 0.53506 0.69698 0.0
H3780 H 0.49376 0.57005 0.67102 0.0
H3781 H 0.44983 0.52159 0.63248 0.0
H3782 H 0.41965 0.50655 0.618 0.0
H3783 H 0.41919 0.55345 0.5878 0.0
H3784 H 0.44934 0.56888 0.60226 0.0
H3785 H 0.54951 0.56372 0.60713 0.0
H3786 H 0.52768 0.55654 0.62678 0.0
H3787 H 0.50148 0.59443 0.60128 0.0
H3788 H 0.52333 0.6014 0.58139 0.0
H3789 H 0.47971 0.55941 0.60305 0.0
H3790 H 0.52509 0.6073 0.64362 0.0
H3791 H 0.5548 0.62118 0.66017 0.0
H3792 H 0.55228 0.57214 0.68782 0.0
H3793 H 0.52264 0.55786 0.67123 0.0
C3794 C 0.43486 0.56157 0.66871 0.0
C3795 C 0.43745 0.55162 0.68357 0.0
C3796 C 0.44649 0.5638 0.65653 0.0
C3797 C 0.46039 0.5556 0.65893 0.0
C3798 C 0.4624 0.54489 0.67331 0.0
C3799 C 0.45107 0.54304 0.68566 0.0
C3800 C 0.47368 0.55943 0.6474 0.0
C3801 C 0.49075 0.56744 0.65616 0.0
C3802 C 0.46957 0.55615 0.6281 0.0
C3803 C 0.45182 0.54642 0.61849 0.0
C3804 C 0.4433 0.52869 0.62273 0.0
C3805 C 0.42619 0.52011 0.61455 0.0
C3806 C 0.4175 0.52905 0.60201 0.0
C3807 C 0.42595 0.54653 0.59751 0.0
C3808 C 0.44307 0.55518 0.60565 0.0
C3809 C 0.53939 0.57096 0.60627 0.0
C3810 C 0.5382 0.58355 0.59343 0.0
C3811 C 0.5269 0.56673 0.61726 0.0
C3812 C 0.51315 0.57511 0.61548 0.0
C3813 C 0.51212 0.58796 0.60282 0.0
C3814 C 0.52466 0.59218 0.59178 0.0
C3815 C 0.49974 0.57021 0.62673 0.0
C3816 C 0.48268 0.56191 0.61791 0.0
C3817 C 0.50389 0.57283 0.64605 0.0
C3818 C 0.5217 0.58146 0.65607 0.0
C3819 C 0.53092 0.59943 0.65313 0.0
C3820 C 0.54774 0.60737 0.66253 0.0
C3821 C 0.55544 0.59753 0.67501 0.0
C3822 C 0.54632 0.57974 0.67813 0.0
C3823 C 0.5295 0.57172 0.66875 0.0
H3824 H 0.56846 0.60372 0.68228 0.0
H3825 H 0.40423 0.52244 0.59577 0.0
H3826 H 0.7908 0.21631 0.95612 0.0
H3827 H 0.79047 0.22475 0.92493 0.0
H3828 H 0.75117 0.25336 0.93192 0.0
H3829 H 0.75129 0.2448 0.96302 0.0
H3830 H 0.7455 0.2345 0.89662 0.0
H3831 H 0.79301 0.27707 0.93908 0.0
H3832 H 0.81955 0.28551 0.96228 0.0
H3833 H 0.84576 0.26071 0.9248 0.0
H3834 H 0.81925 0.25175 0.90151 0.0
H3835 H 0.76627 0.30566 0.8351 0.0
H3836 H 0.76056 0.289 0.86184 0.0
H3837 H 0.79302 0.25359 0.84813 0.0
H3838 H 0.79811 0.2696 0.82112 0.0
H3839 H 0.80117 0.27378 0.88524 0.0
H3840 H 0.75576 0.23262 0.84219 0.0
H3841 H 0.73022 0.22413 0.81772 0.0
H3842 H 0.70088 0.24517 0.85417 0.0
H3843 H 0.72639 0.25415 0.87881 0.0
C3844 C 0.7821 0.22442 0.95106 0.0
C3845 C 0.77137 0.23024 0.9623 0.0
C3846 C 0.78184 0.22914 0.93315 0.0
C3847 C 0.77093 0.2399 0.92609 0.0
C3848 C 0.75972 0.24509 0.93702 0.0
C3849 C 0.75997 0.24037 0.95491 0.0
C3850 C 0.77231 0.24718 0.90807 0.0
C3851 C 0.75763 0.24322 0.89419 0.0
C3852 C 0.7882 0.2582 0.90461 0.0
C3853 C 0.80409 0.26352 0.91865 0.0
C3854 C 0.80438 0.27324 0.93586 0.0
C3855 C 0.81942 0.27813 0.94902 0.0
C3856 C 0.83432 0.27359 0.94504 0.0
C3857 C 0.8342 0.26416 0.92788 0.0
C3858 C 0.81917 0.25915 0.91471 0.0
C3859 C 0.77201 0.2942 0.83778 0.0
C3860 C 0.78261 0.28884 0.82616 0.0
C3861 C 0.76868 0.28464 0.85292 0.0
C3862 C 0.77629 0.26999 0.85686 0.0
C3863 C 0.7869 0.26473 0.84523 0.0
C3864 C 0.78981 0.27387 0.82986 0.0
C3865 C 0.77446 0.26121 0.87393 0.0
C3866 C 0.78905 0.26496 0.88763 0.0
C3867 C 0.75858 0.24988 0.87702 0.0
C3868 C 0.7431 0.24433 0.86231 0.0
C3869 C 0.74394 0.23566 0.84496 0.0
C3870 C 0.72945 0.23071 0.83105 0.0
C3871 C 0.71395 0.23418 0.83437 0.0
C3872 C 0.71291 0.24254 0.85162 0.0
C3873 C 0.72739 0.24756 0.86557 0.0
H3874 H 0.70275 0.23034 0.82359 0.0
H3875 H 0.84596 0.27743 0.95524 0.0
H3876 H 0.14175 0.51168 0.21699 0.0
H3877 H 0.13047 0.52726 0.19231 0.0
H3878 H 0.07902 0.4934 0.19263 0.0
H3879 H 0.09016 0.47788 0.21781 0.0
H3880 H 0.09086 0.49332 0.15807 0.0
H3881 H 0.08905 0.53696 0.20973 0.0
H3882 H 0.10066 0.55994 0.23751 0.0
H3883 H 0.13413 0.59565 0.20779 0.0
H3884 H 0.12295 0.57271 0.17989 0.0
H3885 H 0.03467 0.52826 0.10187 0.0
H3886 H 0.05051 0.51949 0.12861 0.0
H3887 H 0.09578 0.56325 0.12481 0.0
H3888 H 0.07964 0.57262 0.09817 0.0
H3889 H 0.09118 0.56071 0.16046 0.0
H3890 H 0.09383 0.51902 0.10933 0.0
H3891 H 0.08284 0.49708 0.08073 0.0
H3892 H 0.05012 0.4586 0.10893 0.0
H3893 H 0.0607 0.48045 0.13762 0.0
C3894 C 0.12804 0.50728 0.21167 0.0
C3895 C 0.11682 0.49321 0.21907 0.0
C3896 C 0.12163 0.51649 0.1978 0.0
C3897 C 0.10396 0.51161 0.19092 0.0
C3898 C 0.09272 0.49741 0.198 0.0
C3899 C 0.09909 0.4884 0.21216 0.0
C3900 C 0.09737 0.52 0.17509 0.0
C3901 C 0.09074 0.50801 0.15864 0.0
C3902 C 0.0982 0.53942 0.17574 0.0
C3903 C 0.10534 0.55291 0.19274 0.0
C3904 C 0.09909 0.54954 0.20916 0.0
C3905 C 0.10555 0.56262 0.22493 0.0
C3906 C 0.11818 0.5792 0.22444 0.0
C3907 C 0.12438 0.58276 0.20818 0.0
C3908 C 0.118 0.56972 0.19238 0.0
C3909 C 0.04798 0.53607 0.10673 0.0
C3910 C 0.05603 0.55094 0.09787 0.0
C3911 C 0.05702 0.53104 0.12199 0.0
C3912 C 0.07439 0.54049 0.12843 0.0
C3913 C 0.0824 0.55574 0.11994 0.0
C3914 C 0.07323 0.56096 0.10471 0.0
C3915 C 0.08405 0.5338 0.14368 0.0
C3916 C 0.09145 0.54607 0.1599 0.0
C3917 C 0.0843 0.51469 0.14284 0.0
C3918 C 0.07799 0.50144 0.12561 0.0
C3919 C 0.0842 0.50594 0.10941 0.0
C3920 C 0.07806 0.49351 0.09318 0.0
C3921 C 0.06577 0.47647 0.09301 0.0
C3922 C 0.05964 0.47181 0.10907 0.0
C3923 C 0.06571 0.4842 0.12533 0.0
H3924 H 0.06101 0.46687 0.08043 0.0
H3925 H 0.12311 0.58933 0.23664 0.0
H3926 H 0.80934 0.91437 0.48328 0.0
H3927 H 0.80755 0.90332 0.45091 0.0
H3928 H 0.77957 0.84775 0.45943 0.0
H3929 H 0.78286 0.85857 0.49215 0.0
H3930 H 0.801 0.84251 0.44191 0.0
H3931 H 0.76283 0.88205 0.43143 0.0
H3932 H 0.752 0.91042 0.43173 0.0
H3933 H 0.79354 0.93814 0.40584 0.0
H3934 H 0.80477 0.91007 0.40562 0.0
H3935 H 0.77481 0.8063 0.34738 0.0
H3936 H 0.7754 0.82001 0.37869 0.0
H3937 H 0.81907 0.86544 0.37423 0.0
H3938 H 0.81873 0.8515 0.34282 0.0
H3939 H 0.79038 0.87634 0.38846 0.0
H3940 H 0.82724 0.83473 0.39909 0.0
H3941 H 0.83393 0.80403 0.39492 0.0
H3942 H 0.78979 0.77831 0.41814 0.0
H3943 H 0.7827 0.80883 0.42222 0.0
C3944 C 0.80254 0.89989 0.4781 0.0
C3945 C 0.7962 0.88731 0.49016 0.0
C3946 C 0.80138 0.89356 0.45949 0.0
C3947 C 0.79328 0.87462 0.45237 0.0
C3948 C 0.78607 0.86237 0.46439 0.0
C3949 C 0.78781 0.86855 0.48311 0.0
C3950 C 0.79387 0.86707 0.43311 0.0
C3951 C 0.79833 0.84991 0.43031 0.0
C3952 C 0.79096 0.87674 0.41768 0.0
C3953 C 0.78478 0.89402 0.41877 0.0
C3954 C 0.76981 0.8943 0.42606 0.0
C3955 C 0.76356 0.91031 0.42614 0.0
C3956 C 0.77211 0.9261 0.41887 0.0
C3957 C 0.78696 0.92593 0.41153 0.0
C3958 C 0.79327 0.90998 0.41143 0.0
C3959 C 0.78467 0.81909 0.35315 0.0
C3960 C 0.79682 0.82776 0.34276 0.0
C3961 C 0.78497 0.82693 0.371 0.0
C3962 C 0.79727 0.84374 0.37877 0.0
C3963 C 0.80948 0.85245 0.36847 0.0
C3964 C 0.80939 0.84439 0.35064 0.0
C3965 C 0.79722 0.85204 0.39769 0.0
C3966 C 0.79297 0.86921 0.4003 0.0
C3967 C 0.7999 0.84227 0.41288 0.0
C3968 C 0.8044 0.82403 0.41088 0.0
C3969 C 0.81892 0.82251 0.40324 0.0
C3970 C 0.82278 0.80514 0.40089 0.0
C3971 C 0.81228 0.78922 0.40625 0.0
C3972 C 0.79792 0.79065 0.41401 0.0
C3973 C 0.79399 0.80798 0.41637 0.0
H3974 H 0.81528 0.77579 0.4044 0.0
H3975 H 0.76721 0.93843 0.41887 0.0
H3976 H 0.44398 0.52268 0.78172 0.0
H3977 H 0.45633 0.52515 0.81397 0.0
H3978 H 0.4492 0.581 0.82302 0.0
H3979 H 0.43647 0.57843 0.79048 0.0
H3980 H 0.48341 0.57838 0.83026 0.0
H3981 H 0.42856 0.54861 0.84544 0.0
H3982 H 0.40084 0.52439 0.84138 0.0
H3983 H 0.4277 0.4817 0.84934 0.0
H3984 H 0.45559 0.50561 0.8532 0.0
H3985 H 0.52272 0.58471 0.92436 0.0
H3986 H 0.50408 0.58582 0.89563 0.0
H3987 H 0.50483 0.52931 0.87629 0.0
H3988 H 0.52339 0.52811 0.90483 0.0
H3989 H 0.47136 0.53483 0.87678 0.0
H3990 H 0.52397 0.55992 0.85601 0.0
H3991 H 0.55298 0.58112 0.85784 0.0
H3992 H 0.53162 0.62873 0.8571 0.0
H3993 H 0.50247 0.60781 0.85564 0.0
C3994 C 0.44488 0.53539 0.79067 0.0
C3995 C 0.43983 0.55061 0.78381 0.0
C3996 C 0.45162 0.53664 0.80907 0.0
C3997 C 0.4535 0.55321 0.82071 0.0
C3998 C 0.4476 0.56808 0.8141 0.0
C3999 C 0.44054 0.56668 0.79564 0.0
C4000 C 0.46453 0.55604 0.83859 0.0
C4001 C 0.48058 0.56931 0.84077 0.0
C4002 C 0.46099 0.54339 0.85159 0.0
C4003 C 0.4442 0.52895 0.84956 0.0
C4004 C 0.42857 0.53405 0.84623 0.0
C4005 C 0.41282 0.52037 0.84398 0.0
C4006 C 0.41251 0.50152 0.84509 0.0
C4007 C 0.42796 0.49631 0.84851 0.0
C4008 C 0.44375 0.50994 0.85077 0.0
C4009 C 0.51934 0.57283 0.91367 0.0
C4010 C 0.52441 0.55636 0.91661 0.0
C4011 C 0.50866 0.57341 0.89746 0.0
C4012 C 0.50303 0.55751 0.88423 0.0
C4013 C 0.50904 0.54157 0.88659 0.0
C4014 C 0.51982 0.54105 0.90269 0.0
C4015 C 0.4901 0.55715 0.86832 0.0
C4016 C 0.47389 0.54426 0.86651 0.0
C4017 C 0.49361 0.56971 0.85533 0.0
C4018 C 0.51107 0.58234 0.85599 0.0
C4019 C 0.52547 0.57493 0.85644 0.0
C4020 C 0.54194 0.58689 0.85737 0.0
C4021 C 0.54415 0.60627 0.85765 0.0
C4022 C 0.52989 0.61372 0.85693 0.0
C4023 C 0.51339 0.60182 0.85606 0.0
H4024 H 0.55692 0.61551 0.85837 0.0
H4025 H 0.4003 0.49095 0.84332 0.0
H4026 H 0.75659 0.21992 0.06892 0.0
H4027 H 0.7577 0.23197 0.10095 0.0
H4028 H 0.81262 0.2558 0.10644 0.0
H4029 H 0.81152 0.24256 0.07466 0.0
H4030 H 0.80757 0.24196 0.13552 0.0
H4031 H 0.77838 0.28172 0.10241 0.0
H4032 H 0.7554 0.28701 0.07953 0.0
H4033 H 0.71706 0.25904 0.1092 0.0
H4034 H 0.7398 0.25331 0.13211 0.0
H4035 H 0.82224 0.30835 0.2151 0.0
H4036 H 0.81771 0.29233 0.18387 0.0
H4037 H 0.76653 0.26185 0.18945 0.0
H4038 H 0.77129 0.27767 0.2212 0.0
H4039 H 0.7673 0.2771 0.15535 0.0
H4040 H 0.79605 0.23853 0.18876 0.0
H4041 H 0.81832 0.23028 0.21028 0.0
H4042 H 0.85688 0.2545 0.1791 0.0
H4043 H 0.8349 0.26322 0.15758 0.0
C4044 C 0.76886 0.22795 0.07694 0.0
C4045 C 0.78392 0.23061 0.06915 0.0
C4046 C 0.7695 0.23497 0.09532 0.0
C4047 C 0.78519 0.24536 0.10638 0.0
C4048 C 0.80027 0.24799 0.09845 0.0
C4049 C 0.79967 0.24055 0.08017 0.0
C4050 C 0.7861 0.25294 0.12625 0.0
C4051 C 0.79891 0.24993 0.13968 0.0
C4052 C 0.77441 0.26274 0.1322 0.0
C4053 C 0.7608 0.26699 0.11893 0.0
C4054 C 0.76505 0.2767 0.10406 0.0
C4055 C 0.75206 0.27974 0.09106 0.0
C4056 C 0.73478 0.27334 0.09289 0.0
C4057 C 0.73045 0.26398 0.10779 0.0
C4058 C 0.74339 0.26085 0.1208 0.0
C4059 C 0.81016 0.29786 0.2099 0.0
C4060 C 0.79735 0.29395 0.22096 0.0
C4061 C 0.80752 0.28877 0.19189 0.0
C4062 C 0.79177 0.27572 0.18404 0.0
C4063 C 0.77884 0.27175 0.19504 0.0
C4064 C 0.78166 0.2806 0.21334 0.0
C4065 C 0.78913 0.26654 0.16441 0.0
C4066 C 0.77599 0.26921 0.15109 0.0
C4067 C 0.8005 0.25642 0.15847 0.0
C4068 C 0.81385 0.25172 0.17168 0.0
C4069 C 0.80932 0.24232 0.18663 0.0
C4070 C 0.82188 0.23751 0.1988 0.0
C4071 C 0.83901 0.24191 0.19608 0.0
C4072 C 0.84362 0.25114 0.18121 0.0
C4073 C 0.83111 0.25603 0.16902 0.0
H4074 H 0.84871 0.23811 0.20548 0.0
H4075 H 0.72474 0.27565 0.08279 0.0
H4076 H 0.13592 0.53002 0.31452 0.0
H4077 H 0.13118 0.54797 0.34152 0.0
H4078 H 0.09874 0.49716 0.35537 0.0
H4079 H 0.10309 0.47927 0.3278 0.0
H4080 H 0.0821 0.52338 0.35018 0.0
H4081 H 0.13858 0.52346 0.38287 0.0
H4082 H 0.17029 0.52996 0.38808 0.0
H4083 H 0.17485 0.58875 0.38534 0.0
H4084 H 0.14317 0.58257 0.37987 0.0
H4085 H 0.06251 0.54336 0.43445 0.0
H4086 H 0.0749 0.53371 0.40854 0.0
H4087 H 0.0981 0.59195 0.40374 0.0
H4088 H 0.0855 0.60175 0.43012 0.0
H4089 H 0.12049 0.56846 0.40155 0.0
H4090 H 0.06537 0.56982 0.37142 0.0
H4091 H 0.03379 0.56468 0.36604 0.0
H4092 H 0.02692 0.50493 0.36295 0.0
H4093 H 0.05844 0.5097 0.36849 0.0
C4094 C 0.12825 0.52263 0.32374 0.0
C4095 C 0.11982 0.50339 0.31932 0.0
C4096 C 0.12565 0.53286 0.33918 0.0
C4097 C 0.11465 0.5239 0.35045 0.0
C4098 C 0.10731 0.50429 0.34679 0.0
C4099 C 0.1098 0.49406 0.33118 0.0
C4100 C 0.10836 0.53526 0.36388 0.0
C4101 C 0.09051 0.53301 0.36158 0.0
C4102 C 0.11945 0.54891 0.37787 0.0
C4103 C 0.13849 0.5525 0.38073 0.0
C4104 C 0.14634 0.53773 0.38315 0.0
C4105 C 0.16431 0.54138 0.38621 0.0
C4106 C 0.17458 0.55975 0.38698 0.0
C4107 C 0.16689 0.57452 0.3847 0.0
C4108 C 0.14893 0.57095 0.38163 0.0
C4109 C 0.07031 0.55409 0.42789 0.0
C4110 C 0.07319 0.57322 0.43412 0.0
C4111 C 0.07725 0.5486 0.41305 0.0
C4112 C 0.08714 0.56214 0.4041 0.0
C4113 C 0.09034 0.58137 0.41045 0.0
C4114 C 0.0832 0.58693 0.42538 0.0
C4115 C 0.09425 0.55558 0.38842 0.0
C4116 C 0.11218 0.55892 0.39004 0.0
C4117 C 0.0833 0.54309 0.37356 0.0
C4118 C 0.06429 0.54014 0.37044 0.0
C4119 C 0.05713 0.55559 0.36973 0.0
C4120 C 0.03923 0.55274 0.36661 0.0
C4121 C 0.02835 0.53449 0.36417 0.0
C4122 C 0.03535 0.51906 0.36482 0.0
C4123 C 0.05324 0.52183 0.36791 0.0
H4124 H 0.0145 0.53231 0.36174 0.0
H4125 H 0.18849 0.56254 0.38939 0.0
H4126 H 0.78932 0.86493 0.58209 0.0
H4127 H 0.7857 0.85036 0.61027 0.0
H4128 H 0.80483 0.90502 0.64232 0.0
H4129 H 0.80814 0.91965 0.61426 0.0
H4130 H 0.81973 0.87885 0.6577 0.0
H4131 H 0.76297 0.88374 0.63619 0.0
H4132 H 0.73647 0.8795 0.61359 0.0
H4133 H 0.72794 0.81948 0.60953 0.0
H4134 H 0.75456 0.82338 0.63194 0.0
H4135 H 0.79737 0.85137 0.74334 0.0
H4136 H 0.80125 0.86633 0.71548 0.0
H4137 H 0.77469 0.81349 0.68234 0.0
H4138 H 0.77059 0.79863 0.71016 0.0
H4139 H 0.76357 0.83931 0.66734 0.0
H4140 H 0.82095 0.83451 0.68827 0.0
H4141 H 0.84857 0.83899 0.7091 0.0
H4142 H 0.85643 0.89895 0.71377 0.0
H4143 H 0.82886 0.89482 0.69287 0.0
C4144 C 0.79272 0.87388 0.59512 0.0
C4145 C 0.79901 0.89355 0.59575 0.0
C4146 C 0.7906 0.86551 0.61129 0.0
C4147 C 0.79493 0.87651 0.62862 0.0
C4148 C 0.80137 0.89611 0.62926 0.0
C4149 C 0.80319 0.9045 0.6131 0.0
C4150 C 0.79291 0.86767 0.64605 0.0
C4151 C 0.80738 0.8704 0.65989 0.0
C4152 C 0.77692 0.8563 0.64896 0.0
C4153 C 0.76085 0.85386 0.63559 0.0
C4154 C 0.75552 0.86964 0.63037 0.0
C4155 C 0.74047 0.8673 0.61761 0.0
C4156 C 0.73055 0.84923 0.61009 0.0
C4157 C 0.73565 0.83346 0.61535 0.0
C4158 C 0.75071 0.83573 0.62809 0.0
C4159 C 0.79247 0.84288 0.73012 0.0
C4160 C 0.78371 0.8237 0.72913 0.0
C4161 C 0.79477 0.85146 0.71408 0.0
C4162 C 0.78846 0.84115 0.69648 0.0
C4163 C 0.77974 0.82196 0.69555 0.0
C4164 C 0.77746 0.81338 0.71156 0.0
C4165 C 0.79049 0.8503 0.67911 0.0
C4166 C 0.77596 0.8477 0.66523 0.0
C4167 C 0.80646 0.86182 0.67616 0.0
C4168 C 0.82273 0.86434 0.68922 0.0
C4169 C 0.82847 0.84864 0.6939 0.0
C4170 C 0.84415 0.85113 0.70567 0.0
C4171 C 0.85419 0.86924 0.71289 0.0
C4172 C 0.84861 0.88492 0.70825 0.0
C4173 C 0.83298 0.88252 0.6964 0.0
H4174 H 0.86632 0.87112 0.72201 0.0
H4175 H 0.7189 0.84744 0.60021 0.0
H4176 H 0.7743 0.49107 0.55721 0.0
H4177 H 0.75186 0.50623 0.56355 0.0
H4178 H 0.71937 0.45243 0.57094 0.0
H4179 H 0.74137 0.43714 0.56292 0.0
H4180 H 0.6996 0.46874 0.55597 0.0
H4181 H 0.74263 0.49 0.60838 0.0
H4182 H 0.77196 0.503 0.62616 0.0
H4183 H 0.77508 0.55555 0.60456 0.0
H4184 H 0.74582 0.54279 0.58646 0.0
H4185 H 0.64847 0.52566 0.59867 0.0
H4186 H 0.67089 0.50839 0.60008 0.0
H4187 H 0.69044 0.53617 0.55594 0.0
H4188 H 0.66749 0.55236 0.5537 0.0
H4189 H 0.7152 0.53057 0.59482 0.0
H4190 H 0.66986 0.50226 0.53946 0.0
H4191 H 0.63959 0.48645 0.52602 0.0
H4192 H 0.64018 0.44274 0.56042 0.0
H4193 H 0.67031 0.4587 0.57453 0.0
C4194 C 0.76227 0.48252 0.56002 0.0
C4195 C 0.75945 0.46297 0.55944 0.0
C4196 C 0.7495 0.49121 0.56394 0.0
C4197 C 0.73393 0.48067 0.56831 0.0
C4198 C 0.73117 0.46102 0.56766 0.0
C4199 C 0.74373 0.45224 0.56308 0.0
C4200 C 0.72045 0.49011 0.57296 0.0
C4201 C 0.70312 0.48209 0.56473 0.0
C4202 C 0.72464 0.50741 0.58473 0.0
C4203 C 0.74206 0.51539 0.59597 0.0
C4204 C 0.74958 0.50431 0.60738 0.0
C4205 C 0.7662 0.51164 0.61751 0.0
C4206 C 0.77539 0.53008 0.61646 0.0
C4207 C 0.76794 0.54127 0.60535 0.0
C4208 C 0.75132 0.53401 0.59518 0.0
C4209 C 0.65747 0.52792 0.58923 0.0
C4210 C 0.65584 0.53983 0.57567 0.0
C4211 C 0.67035 0.5182 0.59013 0.0
C4212 C 0.68218 0.52085 0.57794 0.0
C4213 C 0.68134 0.5338 0.56536 0.0
C4214 C 0.66817 0.54297 0.56404 0.0
C4215 C 0.69482 0.50942 0.57729 0.0
C4216 C 0.71188 0.51706 0.58632 0.0
C4217 C 0.69028 0.49141 0.56693 0.0
C4218 C 0.67221 0.48191 0.55833 0.0
C4219 C 0.66345 0.4895 0.54442 0.0
C4220 C 0.64632 0.48047 0.53664 0.0
C4221 C 0.63793 0.46365 0.54243 0.0
C4222 C 0.64666 0.45582 0.55601 0.0
C4223 C 0.66374 0.46488 0.56394 0.0
H4224 H 0.62469 0.45665 0.53634 0.0
H4225 H 0.78827 0.5357 0.62427 0.0
H4226 H 0.22963 0.1939 0.52816 0.0
H4227 H 0.20082 0.17679 0.5325 0.0
H4228 H 0.21036 0.1245 0.51263 0.0
H4229 H 0.23956 0.14154 0.50891 0.0
H4230 H 0.17879 0.13014 0.49531 0.0
H4231 H 0.20923 0.13193 0.55487 0.0
H4232 H 0.22619 0.14254 0.58589 0.0
H4233 H 0.18969 0.17242 0.5994 0.0
H4234 H 0.17278 0.16256 0.56822 0.0
H4235 H 0.10576 0.06443 0.51578 0.0
H4236 H 0.13491 0.08269 0.51415 0.0
H4237 H 0.12413 0.13275 0.53817 0.0
H4238 H 0.09462 0.11444 0.53955 0.0
H4239 H 0.15621 0.12912 0.55379 0.0
H4240 H 0.12612 0.12701 0.49298 0.0
H4241 H 0.10832 0.11299 0.4629 0.0
H4242 H 0.14449 0.08134 0.45274 0.0
H4243 H 0.16238 0.09495 0.48288 0.0
C4244 C 0.2256 0.17875 0.52462 0.0
C4245 C 0.23688 0.16915 0.51785 0.0
C4246 C 0.20914 0.16895 0.52733 0.0
C4247 C 0.20331 0.14929 0.52298 0.0
C4248 C 0.21451 0.13965 0.51616 0.0
C4249 C 0.2312 0.14941 0.51394 0.0
C4250 C 0.18517 0.139 0.52434 0.0
C4251 C 0.17396 0.12975 0.50817 0.0
C4252 C 0.17859 0.13886 0.54103 0.0
C4253 C 0.18982 0.14669 0.55903 0.0
C4254 C 0.20503 0.14119 0.56424 0.0
C4255 C 0.21459 0.14697 0.58192 0.0
C4256 C 0.20898 0.15806 0.59462 0.0
C4257 C 0.19399 0.16377 0.58955 0.0
C4258 C 0.18447 0.15818 0.57184 0.0
C4259 C 0.10952 0.07933 0.52075 0.0
C4260 C 0.09774 0.08792 0.52781 0.0
C4261 C 0.12625 0.08982 0.5197 0.0
C4262 C 0.13185 0.10924 0.52584 0.0
C4263 C 0.12021 0.11783 0.53324 0.0
C4264 C 0.10331 0.10735 0.53402 0.0
C4265 C 0.14988 0.12029 0.52477 0.0
C4266 C 0.16105 0.1297 0.54094 0.0
C4267 C 0.15652 0.12052 0.50813 0.0
C4268 C 0.14547 0.11183 0.49029 0.0
C4269 C 0.13016 0.11687 0.48444 0.0
C4270 C 0.12008 0.10904 0.46735 0.0
C4271 C 0.12524 0.09623 0.45595 0.0
C4272 C 0.14048 0.09122 0.46161 0.0
C4273 C 0.15059 0.09899 0.47869 0.0
H4274 H 0.11745 0.09023 0.44269 0.0
H4275 H 0.21622 0.1622 0.60839 0.0
H4276 H 0.2075 0.04264 0.80031 0.0
H4277 H 0.21123 0.01469 0.7836 0.0
H4278 H 0.19344 0.98187 0.82566 0.0
H4279 H 0.18942 0.01009 0.84259 0.0
H4280 H 0.22575 0.98164 0.8202 0.0
H4281 H 0.16993 0.96729 0.78103 0.0
H4282 H 0.14559 0.97147 0.75931 0.0
H4283 H 0.18007 0.99323 0.72297 0.0
H4284 H 0.20459 0.98884 0.74438 0.0
H4285 H 0.23389 0.89687 0.77751 0.0
H4286 H 0.21721 0.91913 0.78427 0.0
H4287 H 0.24985 0.96086 0.7587 0.0
H4288 H 0.26726 0.93909 0.75271 0.0
H4289 H 0.2078 0.9548 0.75462 0.0
H4290 H 0.26382 0.97186 0.79444 0.0
H4291 H 0.28817 0.96572 0.81469 0.0
H4292 H 0.25386 0.94093 0.85001 0.0
H4293 H 0.22925 0.9466 0.82971 0.0
C4294 C 0.20438 0.02949 0.80608 0.0
C4295 C 0.1987 0.02859 0.82305 0.0
C4296 C 0.20612 0.01345 0.79625 0.0
C4297 C 0.20236 0.99623 0.80328 0.0
C4298 C 0.19617 0.99508 0.81996 0.0
C4299 C 0.19416 0.01118 0.82972 0.0
C4300 C 0.20832 0.98073 0.79511 0.0
C4301 C 0.22148 0.97544 0.80598 0.0
C4302 C 0.20338 0.97343 0.77633 0.0
C4303 C 0.18907 0.97785 0.76434 0.0
C4304 C 0.17234 0.97321 0.76853 0.0
C4305 C 0.1585 0.97546 0.75619 0.0
C4306 C 0.16127 0.98255 0.73972 0.0
C4307 C 0.17793 0.98764 0.73568 0.0
C4308 C 0.19179 0.9852 0.74787 0.0
C4309 C 0.23744 0.91071 0.77315 0.0
C4310 C 0.25215 0.91641 0.76502 0.0
C4311 C 0.22779 0.92328 0.77684 0.0
C4312 C 0.23253 0.94153 0.77211 0.0
C4313 C 0.2461 0.94673 0.76237 0.0
C4314 C 0.25598 0.93426 0.75895 0.0
C4315 C 0.22495 0.95578 0.77982 0.0
C4316 C 0.21177 0.96091 0.76889 0.0
C4317 C 0.23003 0.96326 0.79849 0.0
C4318 C 0.24466 0.95923 0.81034 0.0
C4319 C 0.26142 0.96475 0.80632 0.0
C4320 C 0.27528 0.96145 0.81785 0.0
C4321 C 0.27255 0.95282 0.83356 0.0
C4322 C 0.25595 0.94751 0.83778 0.0
C4323 C 0.24204 0.95073 0.82625 0.0
H4324 H 0.2833 0.95033 0.84251 0.0
H4325 H 0.15051 0.98409 0.73009 0.0
H4326 H 0.34336 0.9877 0.04829 0.0
H4327 H 0.37408 0.00458 0.05355 0.0
H4328 H 0.38736 0.95195 0.04467 0.0
H4329 H 0.35692 0.93505 0.03924 0.0
H4330 H 0.41139 0.9792 0.07332 0.0
H4331 H 0.38441 0.972 0.00987 0.0
H4332 H 0.36117 0.97381 0.98531 0.0
H4333 H 0.37219 0.03345 1.001 0.0
H4334 H 0.39534 0.0319 0.02587 0.0
H4335 H 0.49131 0.00634 0.04227 0.0
H4336 H 0.4616 0.99133 0.04555 0.0
H4337 H 0.44947 0.04497 0.04452 0.0
H4338 H 0.47906 0.05973 0.04035 0.0
H4339 H 0.42501 0.01822 0.02355 0.0
H4340 H 0.45621 0.025 0.08505 0.0
H4341 H 0.48052 0.02142 0.10725 0.0
H4342 H 0.4628 0.96132 0.0943 0.0
H4343 H 0.4386 0.96453 0.07167 0.0
C4344 C 0.35282 0.97974 0.04752 0.0
C4345 C 0.34763 0.96009 0.04283 0.0
C4346 C 0.37035 0.98935 0.05074 0.0
C4347 C 0.38294 0.97946 0.04951 0.0
C4348 C 0.37786 0.95981 0.04581 0.0
C4349 C 0.36039 0.95023 0.04239 0.0
C4350 C 0.40102 0.98965 0.04917 0.0
C4351 C 0.41444 0.98777 0.06251 0.0
C4352 C 0.40495 1.00071 0.03502 0.0
C4353 C 0.39145 1.00181 0.01979 0.0
C4354 C 0.3818 0.98548 0.00812 0.0
C4355 C 0.36865 0.98645 0.99416 0.0
C4356 C 0.36517 0.00373 0.99162 0.0
C4357 C 0.37489 0.02008 0.003 0.0
C4358 C 0.38803 0.01916 0.01702 0.0
C4359 C 0.4822 0.01481 0.04271 0.0
C4360 C 0.48719 0.03405 0.0411 0.0
C4361 C 0.46534 0.00632 0.04474 0.0
C4362 C 0.45343 0.01713 0.04568 0.0
C4363 C 0.45849 0.03641 0.04392 0.0
C4364 C 0.47529 0.04482 0.04154 0.0
C4365 C 0.43553 0.00819 0.04789 0.0
C4366 C 0.42207 0.01007 0.0347 0.0
C4367 C 0.43172 0.99706 0.06212 0.0
C4368 C 0.44557 0.99501 0.07663 0.0
C4369 C 0.45746 0.01101 0.08696 0.0
C4370 C 0.47125 0.00906 0.0996 0.0
C4371 C 0.47317 0.99116 0.10223 0.0
C4372 C 0.46127 0.97517 0.09228 0.0
C4373 C 0.44749 0.97705 0.07955 0.0
H4374 H 0.48389 0.98968 0.11197 0.0
H4375 H 0.35497 0.00446 0.98082 0.0
H4376 H 0.91473 0.69865 0.83209 0.0
H4377 H 0.8949 0.71858 0.82613 0.0
H4378 H 0.88205 0.69447 0.76928 0.0
H4379 H 0.90154 0.67449 0.77516 0.0
H4380 H 0.88566 0.7331 0.7739 0.0
H4381 H 0.85615 0.67677 0.79584 0.0
H4382 H 0.85192 0.65316 0.81741 0.0
H4383 H 0.85128 0.69589 0.86009 0.0
H4384 H 0.85574 0.71981 0.83878 0.0
H4385 H 0.80769 0.75838 0.74757 0.0
H4386 H 0.82855 0.73952 0.75265 0.0
H4387 H 0.83369 0.75395 0.81118 0.0
H4388 H 0.8118 0.77119 0.80601 0.0
H4389 H 0.83516 0.72078 0.80573 0.0
H4390 H 0.86168 0.77712 0.77966 0.0
H4391 H 0.86311 0.79756 0.75513 0.0
H4392 H 0.86862 0.75281 0.71761 0.0
H4393 H 0.86658 0.73186 0.74171 0.0
C4394 C 0.90785 0.69786 0.8183 0.0
C4395 C 0.90949 0.68494 0.80412 0.0
C4396 C 0.89655 0.70918 0.81492 0.0
C4397 C 0.88698 0.70785 0.79729 0.0
C4398 C 0.88934 0.69569 0.78296 0.0
C4399 C 0.90038 0.68421 0.78637 0.0
C4400 C 0.87346 0.71791 0.79393 0.0
C4401 C 0.87458 0.7305 0.78083 0.0
C4402 C 0.85907 0.71436 0.80295 0.0
C4403 C 0.85651 0.70009 0.81581 0.0
C4404 C 0.85528 0.68115 0.80988 0.0
C4405 C 0.8528 0.66771 0.82204 0.0
C4406 C 0.8514 0.67303 0.84013 0.0
C4407 C 0.85242 0.6918 0.84608 0.0
C4408 C 0.85492 0.7053 0.83397 0.0
C4409 C 0.81287 0.7568 0.76146 0.0
C4410 C 0.80797 0.76568 0.77643 0.0
C4411 C 0.82503 0.74642 0.76439 0.0
C4412 C 0.83312 0.74574 0.78231 0.0
C4413 C 0.8277 0.75422 0.79723 0.0
C4414 C 0.81512 0.76395 0.7943 0.0
C4415 C 0.84732 0.73645 0.78583 0.0
C4416 C 0.84632 0.72382 0.79896 0.0
C4417 C 0.86172 0.73986 0.77662 0.0
C4418 C 0.86371 0.75283 0.76244 0.0
C4419 C 0.8631 0.77161 0.76616 0.0
C4420 C 0.86397 0.78327 0.7523 0.0
C4421 C 0.86581 0.77645 0.73477 0.0
C4422 C 0.86705 0.75803 0.73114 0.0
C4423 C 0.86598 0.74624 0.74488 0.0
H4424 H 0.86633 0.78544 0.72401 0.0
H4425 H 0.84946 0.6626 0.84953 0.0
H4426 H 0.82864 0.66756 0.06984 0.0
H4427 H 0.85595 0.65928 0.07741 0.0
H4428 H 0.87064 0.67759 0.02713 0.0
H4429 H 0.84335 0.68603 0.01951 0.0
H4430 H 0.8733 0.64224 0.03098 0.0
H4431 H 0.89255 0.70257 0.06833 0.0
H4432 H 0.89235 0.72773 0.0923 0.0
H4433 H 0.89335 0.68991 0.13292 0.0
H4434 H 0.8935 0.66449 0.10917 0.0
H4435 H 0.95585 0.63056 0.03992 0.0
H4436 H 0.93306 0.64659 0.03917 0.0
H4437 H 0.92121 0.62673 0.08985 0.0
H4438 H 0.94469 0.61117 0.09117 0.0
H4439 H 0.91735 0.6631 0.08754 0.0
H4440 H 0.89608 0.6026 0.05092 0.0
H4441 H 0.89729 0.57716 0.02778 0.0
H4442 H 0.89981 0.61491 0.98684 0.0
H4443 H 0.89863 0.64058 0.00978 0.0
C4444 C 0.83768 0.66987 0.06038 0.0
C4445 C 0.83366 0.6772 0.04389 0.0
C4446 C 0.85341 0.66534 0.06486 0.0
C4447 C 0.86545 0.66793 0.05292 0.0
C4448 C 0.86159 0.67552 0.0366 0.0
C4449 C 0.84593 0.68025 0.0322 0.0
C4450 C 0.88114 0.66085 0.05641 0.0
C4451 C 0.88303 0.64709 0.04324 0.0
C4452 C 0.89357 0.66654 0.07274 0.0
C4453 C 0.8928 0.68156 0.08692 0.0
C4454 C 0.89251 0.69955 0.08233 0.0
C4455 C 0.89249 0.71389 0.09589 0.0
C4456 C 0.89277 0.7104 0.11411 0.0
C4457 C 0.8931 0.69258 0.1188 0.0
C4458 C 0.89318 0.67821 0.1053 0.0
C4459 C 0.94881 0.62998 0.05123 0.0
C4460 C 0.95214 0.61941 0.06556 0.0
C4461 C 0.9356 0.63903 0.05067 0.0
C4462 C 0.92518 0.63759 0.06426 0.0
C4463 C 0.929 0.62794 0.07914 0.0
C4464 C 0.94233 0.6189 0.07977 0.0
C4465 C 0.90953 0.64483 0.06192 0.0
C4466 C 0.90758 0.65839 0.07531 0.0
C4467 C 0.89685 0.63887 0.0459 0.0
C4468 C 0.89735 0.62348 0.03203 0.0
C4469 C 0.89694 0.60546 0.03698 0.0
C4470 C 0.89759 0.59101 0.02391 0.0
C4471 C 0.89865 0.59442 0.00585 0.0
C4472 C 0.89897 0.61228 1.00082 0.0
C4473 C 0.89825 0.62677 0.01383 0.0
H4474 H 0.89919 0.58322 0.99575 0.0
H4475 H 0.89279 0.72153 0.12458 0.0
H4476 H 0.17406 0.12784 0.82334 0.0
H4477 H 0.18795 0.15522 0.8098 0.0
H4478 H 0.237 0.15604 0.84168 0.0
H4479 H 0.22325 0.12833 0.85522 0.0
H4480 H 0.22702 0.19021 0.84421 0.0
H4481 H 0.22796 0.13957 0.79831 0.0
H4482 H 0.21527 0.11239 0.77443 0.0
H4483 H 0.18881 0.14576 0.74271 0.0
H4484 H 0.20102 0.17306 0.76659 0.0
H4485 H 0.2948 0.24772 0.81482 0.0
H4486 H 0.27384 0.22046 0.8215 0.0
H4487 H 0.23534 0.22895 0.77889 0.0
H4488 H 0.25667 0.2559 0.7715 0.0
H4489 H 0.23408 0.19198 0.77913 0.0
H4490 H 0.23414 0.24287 0.82294 0.0
H4491 H 0.24665 0.27064 0.84621 0.0
H4492 H 0.26988 0.2372 0.88124 0.0
H4493 H 0.25778 0.20932 0.85806 0.0
C4494 C 0.18778 0.13399 0.82773 0.0
C4495 C 0.19761 0.12617 0.84061 0.0
C4496 C 0.19568 0.14941 0.81971 0.0
C4497 C 0.21342 0.15732 0.82463 0.0
C4498 C 0.22324 0.14984 0.83769 0.0
C4499 C 0.2154 0.13423 0.84554 0.0
C4500 C 0.22169 0.17441 0.81738 0.0
C4501 C 0.22868 0.19062 0.83 0.0
C4502 C 0.22284 0.17495 0.7986 0.0
C4503 C 0.21518 0.15831 0.78446 0.0
C4504 C 0.2192 0.14106 0.78642 0.0
C4505 C 0.21214 0.12563 0.77283 0.0
C4506 C 0.20117 0.12732 0.75711 0.0
C4507 C 0.19725 0.14445 0.75493 0.0
C4508 C 0.20422 0.15989 0.7685 0.0
C4509 C 0.2819 0.24374 0.80683 0.0
C4510 C 0.2772 0.25397 0.79287 0.0
C4511 C 0.26994 0.22825 0.81069 0.0
C4512 C 0.25299 0.22307 0.80097 0.0
C4513 C 0.24835 0.23292 0.78662 0.0
C4514 C 0.26046 0.2483 0.78252 0.0
C4515 C 0.24027 0.20746 0.80625 0.0
C4516 C 0.23219 0.19166 0.79326 0.0
C4517 C 0.23785 0.20724 0.82468 0.0
C4518 C 0.24509 0.22401 0.83871 0.0
C4519 C 0.242 0.24146 0.83556 0.0
C4520 C 0.24902 0.25723 0.84874 0.0
C4521 C 0.25907 0.25569 0.86519 0.0
C4522 C 0.26209 0.23838 0.8685 0.0
C4523 C 0.25514 0.22258 0.85535 0.0
H4524 H 0.2645 0.26792 0.87538 0.0
H4525 H 0.19576 0.11538 0.74659 0.0
H4526 H 0.39849 0.09826 0.30081 0.0
H4527 H 0.38047 0.06651 0.28966 0.0
H4528 H 0.42521 0.0447 0.29815 0.0
H4529 H 0.44345 0.07648 0.30902 0.0
H4530 H 0.40279 0.02824 0.26562 0.0
H4531 H 0.40187 0.03992 0.32939 0.0
H4532 H 0.4002 0.06005 0.35692 0.0
H4533 H 0.34838 0.05954 0.33412 0.0
H4534 H 0.34984 0.03958 0.3063 0.0
H4535 H 0.36274 0.93518 0.27971 0.0
H4536 H 0.37975 0.96709 0.27913 0.0
H4537 H 0.33322 0.98568 0.27012 0.0
H4538 H 0.31596 0.95348 0.27092 0.0
H4539 H 0.35626 0.00422 0.3009 0.0
H4540 H 0.3586 0.98711 0.23709 0.0
H4541 H 0.36339 0.96602 0.21196 0.0
H4542 H 0.41593 0.97455 0.23811 0.0
H4543 H 0.4114 0.99554 0.26349 0.0
C4544 C 0.40447 0.0867 0.30047 0.0
C4545 C 0.42229 0.08975 0.30606 0.0
C4546 C 0.39423 0.06866 0.29391 0.0
C4547 C 0.40161 0.05343 0.29318 0.0
C4548 C 0.4194 0.0564 0.29854 0.0
C4549 C 0.4297 0.07447 0.30498 0.0
C4550 C 0.39044 0.03424 0.28836 0.0
C4551 C 0.39262 0.02288 0.27329 0.0
C4552 C 0.37739 0.02743 0.29858 0.0
C4553 C 0.37598 0.03834 0.31575 0.0
C4554 C 0.39011 0.04409 0.33026 0.0
C4555 C 0.38922 0.05549 0.3459 0.0
C4556 C 0.3742 0.0611 0.34726 0.0
C4557 C 0.36 0.05518 0.33304 0.0
C4558 C 0.36083 0.04378 0.31735 0.0
C4559 C 0.35607 0.94589 0.27689 0.0
C4560 C 0.33807 0.94197 0.27536 0.0
C4561 C 0.36581 0.96412 0.27657 0.0
C4562 C 0.35768 0.97861 0.27447 0.0
C4563 C 0.33963 0.97455 0.27172 0.0
C4564 C 0.32984 0.95627 0.27218 0.0
C4565 C 0.36819 0.99821 0.27776 0.0
C4566 C 0.36611 0.00964 0.29287 0.0
C4567 C 0.38166 0.00477 0.2679 0.0
C4568 C 0.38463 0.99286 0.25222 0.0
C4569 C 0.37117 0.98448 0.23749 0.0
C4570 C 0.37384 0.97253 0.2232 0.0
C4571 C 0.38995 0.96893 0.22345 0.0
C4572 C 0.40346 0.97737 0.23792 0.0
C4573 C 0.40087 0.98933 0.25224 0.0
H4574 H 0.39196 0.95962 0.21241 0.0
H4575 H 0.37356 0.07001 0.35934 0.0
H4576 H 0.54671 0.3796 0.63011 0.0
H4577 H 0.54153 0.40812 0.61847 0.0
H4578 H 0.58496 0.41312 0.5904 0.0
H4579 H 0.59017 0.38461 0.60195 0.0
H4580 H 0.58496 0.44718 0.60746 0.0
H4581 H 0.5436 0.39718 0.56679 0.0
H4582 H 0.51986 0.36807 0.55954 0.0
H4583 H 0.4872 0.39551 0.5857 0.0
H4584 H 0.51084 0.42474 0.59331 0.0
H4585 H 0.57132 0.51576 0.55073 0.0
H4586 H 0.57481 0.48694 0.56246 0.0
H4587 H 0.52687 0.48007 0.58284 0.0
H4588 H 0.523 0.5088 0.57039 0.0
H4589 H 0.52869 0.44704 0.57109 0.0
H4590 H 0.5699 0.49793 0.61046 0.0
H4591 H 0.59435 0.52623 0.6196 0.0
H4592 H 0.62789 0.49674 0.59769 0.0
H4593 H 0.60362 0.4686 0.58796 0.0
C4594 C 0.55517 0.38673 0.62145 0.0
C4595 C 0.56884 0.37963 0.61697 0.0
C4596 C 0.55214 0.40307 0.61471 0.0
C4597 C 0.56272 0.41287 0.60333 0.0
C4598 C 0.57654 0.40595 0.59909 0.0
C4599 C 0.57948 0.38953 0.60568 0.0
C4600 C 0.55946 0.43026 0.59587 0.0
C4601 C 0.57272 0.44708 0.5993 0.0
C4602 C 0.54335 0.43047 0.58564 0.0
C4603 C 0.52902 0.41308 0.58075 0.0
C4604 C 0.53138 0.39697 0.57107 0.0
C4605 C 0.51794 0.38046 0.56689 0.0
C4606 C 0.50204 0.37992 0.57219 0.0
C4607 C 0.49953 0.39594 0.58162 0.0
C4608 C 0.51293 0.41249 0.58585 0.0
C4609 C 0.56138 0.5081 0.55757 0.0
C4610 C 0.54686 0.5148 0.55958 0.0
C4611 C 0.56351 0.49158 0.56451 0.0
C4612 C 0.55141 0.48132 0.57414 0.0
C4613 C 0.53656 0.48762 0.57564 0.0
C4614 C 0.53429 0.5041 0.56844 0.0
C4615 C 0.5543 0.46413 0.5825 0.0
C4616 C 0.54095 0.44729 0.57927 0.0
C4617 C 0.57037 0.46394 0.593 0.0
C4618 C 0.58487 0.48119 0.59831 0.0
C4619 C 0.58244 0.49759 0.60737 0.0
C4620 C 0.59629 0.51363 0.61266 0.0
C4621 C 0.61267 0.51338 0.60916 0.0
C4622 C 0.61522 0.49708 0.60031 0.0
C4623 C 0.60141 0.48107 0.59488 0.0
H4624 H 0.62337 0.52578 0.6134 0.0
H4625 H 0.49166 0.36711 0.56897 0.0
H4626 H 0.45301 0.79256 0.39181 0.0
H4627 H 0.42441 0.79425 0.37752 0.0
H4628 H 0.44742 0.82832 0.33876 0.0
H4629 H 0.47605 0.82741 0.35362 0.0
H4630 H 0.42382 0.84214 0.34827 0.0
H4631 H 0.4245 0.77783 0.32984 0.0
H4632 H 0.42685 0.74589 0.3346 0.0
H4633 H 0.38476 0.73834 0.36453 0.0
H4634 H 0.38235 0.77036 0.36022 0.0
H4635 H 0.34939 0.82804 0.27804 0.0
H4636 H 0.37725 0.83068 0.29754 0.0
H4637 H 0.35077 0.79947 0.33607 0.0
H4638 H 0.32302 0.79663 0.31637 0.0
H4639 H 0.3753 0.78488 0.3289 0.0
H4640 H 0.3728 0.84755 0.34567 0.0
H4641 H 0.36994 0.87943 0.34159 0.0
H4642 H 0.41468 0.8903 0.31567 0.0
H4643 H 0.41764 0.85835 0.31927 0.0
C4644 C 0.45197 0.80025 0.38012 0.0
C4645 C 0.46689 0.80964 0.37376 0.0
C4646 C 0.43553 0.80119 0.37188 0.0
C4647 C 0.43348 0.81114 0.3567 0.0
C4648 C 0.44844 0.82051 0.35037 0.0
C4649 C 0.46487 0.81986 0.35882 0.0
C4650 C 0.41594 0.81198 0.34745 0.0
C4651 C 0.41331 0.82954 0.34381 0.0
C4652 C 0.40181 0.79574 0.34217 0.0
C4653 C 0.40339 0.77657 0.34489 0.0
C4654 C 0.41585 0.76942 0.33757 0.0
C4655 C 0.41718 0.7513 0.34018 0.0
C4656 C 0.40599 0.74012 0.34991 0.0
C4657 C 0.39344 0.74703 0.35704 0.0
C4658 C 0.3921 0.76516 0.35453 0.0
C4659 C 0.34957 0.82217 0.2909 0.0
C4660 C 0.33408 0.81232 0.29582 0.0
C4661 C 0.3655 0.82367 0.30209 0.0
C4662 C 0.36629 0.81535 0.31846 0.0
C4663 C 0.35066 0.80601 0.32358 0.0
C4664 C 0.33477 0.80449 0.31238 0.0
C4665 C 0.38328 0.81497 0.32938 0.0
C4666 C 0.3858 0.79749 0.33337 0.0
C4667 C 0.39724 0.83129 0.33502 0.0
C4668 C 0.39532 0.85043 0.33255 0.0
C4669 C 0.38192 0.85664 0.3389 0.0
C4670 C 0.3803 0.87475 0.33671 0.0
C4671 C 0.39209 0.88687 0.32833 0.0
C4672 C 0.40553 0.88089 0.32213 0.0
C4673 C 0.40718 0.86278 0.32423 0.0
H4674 H 0.39084 0.9009 0.32668 0.0
H4675 H 0.40703 0.72608 0.35188 0.0
H4676 H 0.03741 0.76529 0.13867 0.0
H4677 H 0.03826 0.73308 0.12943 0.0
H4678 H 0.07658 0.75386 0.0963 0.0
H4679 H 0.07528 0.78611 0.105 0.0
H4680 H 0.05427 0.72501 0.07832 0.0
H4681 H 0.08494 0.73694 0.14176 0.0
H4682 H 0.08881 0.74374 0.17544 0.0
H4683 H 0.04526 0.69719 0.17636 0.0
H4684 H 0.04104 0.69022 0.14271 0.0
H4685 H 0.07997 0.64 0.06237 0.0
H4686 H 0.08067 0.67262 0.07357 0.0
H4687 H 0.03741 0.65191 0.10048 0.0
H4688 H 0.03649 0.6196 0.08912 0.0
H4689 H 0.06255 0.68011 0.12247 0.0
H4690 H 0.02553 0.67486 0.06368 0.0
H4691 H 0.0156 0.66833 0.03025 0.0
H4692 H 0.0653 0.69937 0.0214 0.0
H4693 H 0.07519 0.70694 0.0549 0.0
C4694 C 0.04584 0.76296 0.12918 0.0
C4695 C 0.05618 0.77825 0.12241 0.0
C4696 C 0.04654 0.74453 0.12417 0.0
C4697 C 0.05785 0.74098 0.11257 0.0
C4698 C 0.06783 0.7562 0.1054 0.0
C4699 C 0.06695 0.77464 0.11019 0.0
C4700 C 0.05862 0.7214 0.10694 0.0
C4701 C 0.05655 0.71544 0.0881 0.0
C4702 C 0.06051 0.70833 0.11954 0.0
C4703 C 0.06258 0.71319 0.13968 0.0
C4704 C 0.07606 0.72831 0.14912 0.0
C4705 C 0.07835 0.73215 0.16822 0.0
C4706 C 0.06727 0.72094 0.17802 0.0
C4707 C 0.05383 0.70589 0.16875 0.0
C4708 C 0.05149 0.70199 0.14968 0.0
C4709 C 0.07083 0.64249 0.07091 0.0
C4710 C 0.05823 0.62737 0.07495 0.0
C4711 C 0.0711 0.66107 0.07713 0.0
C4712 C 0.05896 0.66467 0.08771 0.0
C4713 C 0.04684 0.64948 0.0923 0.0
C4714 C 0.04636 0.63105 0.08583 0.0
C4715 C 0.05879 0.68423 0.09402 0.0
C4716 C 0.06072 0.69 0.11286 0.0
C4717 C 0.05627 0.69702 0.08155 0.0
C4718 C 0.05119 0.69107 0.06165 0.0
C4719 C 0.03441 0.68 0.05456 0.0
C4720 C 0.02875 0.67623 0.03563 0.0
C4721 C 0.03992 0.68305 0.02367 0.0
C4722 C 0.05672 0.69392 0.03066 0.0
C4723 C 0.06231 0.6981 0.04962 0.0
H4724 H 0.03551 0.68009 0.009 0.0
H4725 H 0.06912 0.72388 0.19281 0.0
H4726 H 0.06031 0.3206 0.86287 0.0
H4727 H 0.08801 0.32608 0.85206 0.0
H4728 H 0.11075 0.30879 0.90164 0.0
H4729 H 0.08327 0.30467 0.91296 0.0
H4730 H 0.13458 0.33427 0.89208 0.0
H4731 H 0.09508 0.27801 0.85828 0.0
H4732 H 0.06757 0.25938 0.83939 0.0
H4733 H 0.07554 0.29528 0.79724 0.0
H4734 H 0.10302 0.31421 0.81596 0.0
H4735 H 0.20239 0.30789 0.85174 0.0
H4736 H 0.17807 0.30993 0.86702 0.0
H4737 H 0.15498 0.3309 0.82003 0.0
H4738 H 0.17873 0.32811 0.80439 0.0
H4739 H 0.13202 0.3038 0.82927 0.0
H4740 H 0.17311 0.35912 0.86332 0.0
H4741 H 0.20048 0.37712 0.88288 0.0
H4742 H 0.19018 0.34171 0.92498 0.0
H4743 H 0.16281 0.32338 0.90561 0.0
C4744 C 0.07132 0.31828 0.87155 0.0
C4745 C 0.06965 0.31221 0.88872 0.0
C4746 C 0.08716 0.32122 0.86531 0.0
C4747 C 0.10155 0.3173 0.8757 0.0
C4748 C 0.09998 0.31186 0.89321 0.0
C4749 C 0.08424 0.30946 0.89969 0.0
C4750 C 0.11778 0.31791 0.86791 0.0
C4751 C 0.134 0.32743 0.87841 0.0
C4752 C 0.11729 0.30919 0.85 0.0
C4753 C 0.10101 0.29758 0.83855 0.0
C4754 C 0.09093 0.28194 0.84499 0.0
C4755 C 0.07535 0.27134 0.83432 0.0
C4756 C 0.0698 0.27617 0.81714 0.0
C4757 C 0.07985 0.29156 0.81055 0.0
C4758 C 0.09544 0.30221 0.82116 0.0
C4759 C 0.19215 0.31294 0.84462 0.0
C4760 C 0.19264 0.31772 0.82668 0.0
C4761 C 0.1783 0.31435 0.85352 0.0
C4762 C 0.16459 0.32069 0.84481 0.0
C4763 C 0.16532 0.32597 0.82715 0.0
C4764 C 0.17909 0.32452 0.81823 0.0
C4765 C 0.14882 0.32041 0.85326 0.0
C4766 C 0.13265 0.31077 0.8429 0.0
C4767 C 0.14947 0.32885 0.87133 0.0
C4768 C 0.16598 0.33977 0.88294 0.0
C4769 C 0.17674 0.35507 0.87668 0.0
C4770 C 0.19224 0.36536 0.88775 0.0
C4771 C 0.19707 0.36053 0.90513 0.0
C4772 C 0.18642 0.34542 0.9115 0.0
C4773 C 0.1709 0.3351 0.9005 0.0
H4774 H 0.20904 0.36853 0.91369 0.0
H4775 H 0.05771 0.26797 0.80892 0.0
H4776 H 0.54505 0.73879 0.93127 0.0
H4777 H 0.5442 0.70765 0.94107 0.0
H4778 H 0.50476 0.71309 0.97253 0.0
H4779 H 0.50522 0.74397 0.9622 0.0
H4780 H 0.5318 0.70439 0.99316 0.0
H4781 H 0.49538 0.67923 0.93502 0.0
H4782 H 0.48548 0.67149 0.90162 0.0
H4783 H 0.52908 0.64964 0.89652 0.0
H4784 H 0.53936 0.65743 0.92985 0.0
H4785 H 0.52342 0.61735 0.02913 0.0
H4786 H 0.51844 0.6442 0.01431 0.0
H4787 H 0.54537 0.6301 0.97139 0.0
H4788 H 0.54874 0.60211 0.98538 0.0
H4789 H 0.5236 0.64306 0.95575 0.0
H4790 H 0.56205 0.67057 0.0127 0.0
H4791 H 0.57182 0.67648 0.04623 0.0
H4792 H 0.52629 0.69396 0.05322 0.0
H4793 H 0.51622 0.68805 0.01976 0.0
C4794 C 0.53602 0.73322 0.94009 0.0
C4795 C 0.52527 0.74399 0.94602 0.0
C4796 C 0.53546 0.71528 0.9456 0.0
C4797 C 0.52437 0.70771 0.95757 0.0
C4798 C 0.5134 0.71838 0.96325 0.0
C4799 C 0.51368 0.73612 0.95736 0.0
C4800 C 0.52555 0.68986 0.96575 0.0
C4801 C 0.52978 0.69094 0.98491 0.0
C4802 C 0.52357 0.67224 0.95517 0.0
C4803 C 0.5183 0.66923 0.93494 0.0
C4804 C 0.50306 0.67315 0.92674 0.0
C4805 C 0.49732 0.66863 0.90782 0.0
C4806 C 0.50668 0.66016 0.89694 0.0
C4807 C 0.52187 0.65627 0.90494 0.0
C4808 C 0.52766 0.66076 0.92385 0.0
C4809 C 0.52818 0.61992 0.01646 0.0
C4810 C 0.53653 0.60752 0.00853 0.0
C4811 C 0.52558 0.63559 0.00804 0.0
C4812 C 0.53204 0.64006 0.99186 0.0
C4813 C 0.54021 0.62741 0.98382 0.0
C4814 C 0.54221 0.61129 0.99188 0.0
C4815 C 0.53016 0.65761 0.98324 0.0
C4816 C 0.52579 0.65652 0.96402 0.0
C4817 C 0.53238 0.67538 0.99369 0.0
C4818 C 0.53833 0.67871 0.01378 0.0
C4819 C 0.55409 0.67557 0.02142 0.0
C4820 C 0.55968 0.67894 0.0404 0.0
C4821 C 0.54966 0.68555 0.05185 0.0
C4822 C 0.53403 0.68883 0.04434 0.0
C4823 C 0.52839 0.6855 0.02538 0.0
H4824 H 0.55402 0.68816 0.06653 0.0
H4825 H 0.50214 0.65654 0.88233 0.0
H4826 H 0.10137 0.82018 0.70598 0.0
H4827 H 0.12883 0.81569 0.71989 0.0
H4828 H 0.15375 0.8449 0.67925 0.0
H4829 H 0.12609 0.84899 0.66482 0.0
H4830 H 0.16324 0.81345 0.68286 0.0
H4831 H 0.16076 0.86553 0.72365 0.0
H4832 H 0.14755 0.88383 0.74386 0.0
H4833 H 0.14232 0.84086 0.7796 0.0
H4834 H 0.15531 0.82218 0.75947 0.0
H4835 H 0.2489 0.83204 0.73015 0.0
H4836 H 0.22055 0.83413 0.71596 0.0
H4837 H 0.19651 0.79401 0.74946 0.0
H4838 H 0.22517 0.79157 0.7636 0.0
H4839 H 0.18653 0.82974 0.74946 0.0
H4840 H 0.19171 0.77882 0.70729 0.0
H4841 H 0.20785 0.76408 0.68743 0.0
H4842 H 0.2111 0.8092 0.65428 0.0
H4843 H 0.19516 0.82435 0.67409 0.0
C4844 C 0.11272 0.82601 0.70018 0.0
C4845 C 0.11153 0.83499 0.6843 0.0
C4846 C 0.12843 0.82338 0.70814 0.0
C4847 C 0.14334 0.83002 0.70064 0.0
C4848 C 0.14236 0.83959 0.68519 0.0
C4849 C 0.12658 0.84206 0.67707 0.0
C4850 C 0.1598 0.82642 0.70871 0.0
C4851 C 0.16841 0.81718 0.69738 0.0
C4852 C 0.16645 0.8311 0.72769 0.0
C4853 C 0.15885 0.84238 0.73997 0.0
C4854 C 0.15669 0.85993 0.73576 0.0
C4855 C 0.14926 0.87038 0.74721 0.0
C4856 C 0.14405 0.86349 0.76297 0.0
C4857 C 0.14634 0.84616 0.76737 0.0
C4858 C 0.15376 0.83565 0.75596 0.0
C4859 C 0.23756 0.82362 0.73445 0.0
C4860 C 0.23907 0.81179 0.74803 0.0
C4861 C 0.22143 0.82474 0.72627 0.0
C4862 C 0.20656 0.81418 0.73167 0.0
C4863 C 0.20795 0.80218 0.74514 0.0
C4864 C 0.2242 0.80077 0.75313 0.0
C4865 C 0.18972 0.8166 0.72368 0.0
C4866 C 0.18116 0.82579 0.73499 0.0
C4867 C 0.18337 0.81226 0.70466 0.0
C4868 C 0.19228 0.80275 0.69222 0.0
C4869 C 0.19589 0.78562 0.69578 0.0
C4870 C 0.20501 0.77719 0.68454 0.0
C4871 C 0.21051 0.78571 0.66962 0.0
C4872 C 0.20681 0.80261 0.66584 0.0
C4873 C 0.1977 0.8111 0.67704 0.0
H4874 H 0.21763 0.7792 0.66098 0.0
H4875 H 0.13828 0.87159 0.77181 0.0
H4876 H 0.04774 0.36931 0.45621 0.0
H4877 H 0.05096 0.40236 0.46811 0.0
H4878 H 0.9963 0.39017 0.46795 0.0
H4879 H 0.99312 0.357 0.45676 0.0
H4880 H 0.01274 0.42732 0.45419 0.0
H4881 H 0.01686 0.39223 0.50568 0.0
H4882 H 0.02833 0.36988 0.52319 0.0
H4883 H 0.07958 0.40623 0.52948 0.0
H4884 H 0.06842 0.42862 0.51162 0.0
H4885 H 0.01377 0.51099 0.51266 0.0
H4886 H 0.00824 0.479 0.49678 0.0
H4887 H 0.06168 0.48037 0.5136 0.0
H4888 H 0.06698 0.51192 0.53004 0.0
H4889 H 0.04451 0.44818 0.51778 0.0
H4890 H 0.04103 0.48412 0.46732 0.0
H4891 H 0.03019 0.50653 0.44927 0.0
H4892 H 0.97899 0.46963 0.44014 0.0
H4893 H 0.98947 0.44714 0.45843 0.0
C4894 C 0.0364 0.37364 0.45871 0.0
C4895 C 0.02022 0.36029 0.45578 0.0
C4896 C 0.03823 0.39263 0.46542 0.0
C4897 C 0.02387 0.39899 0.46891 0.0
C4898 C 0.0076 0.38582 0.46534 0.0
C4899 C 1.00584 0.36673 0.45912 0.0
C4900 C 0.02611 0.41884 0.47783 0.0
C4901 C 0.01954 0.43184 0.46815 0.0
C4902 C 0.03518 0.42507 0.49595 0.0
C4903 C 0.04185 0.41198 0.50717 0.0
C4904 C 0.03059 0.39539 0.51068 0.0
C4905 C 0.03703 0.38271 0.52067 0.0
C4906 C 0.05468 0.38661 0.5274 0.0
C4907 C 0.06592 0.40322 0.52422 0.0
C4908 C 0.05954 0.41591 0.51417 0.0
C4909 C 0.02438 0.50453 0.51282 0.0
C4910 C 0.04087 0.51418 0.52262 0.0
C4911 C 0.02122 0.48614 0.50362 0.0
C4912 C 0.03455 0.47696 0.50361 0.0
C4913 C 0.05105 0.4868 0.51326 0.0
C4914 C 0.05414 0.50502 0.52263 0.0
C4915 C 0.03141 0.45705 0.49415 0.0
C4916 C 0.03776 0.44388 0.50378 0.0
C4917 C 0.02225 0.45082 0.47592 0.0
C4918 C 0.01601 0.46401 0.46439 0.0
C4919 C 0.02744 0.48081 0.46152 0.0
C4920 C 0.02137 0.49354 0.45126 0.0
C4921 C 1.00391 0.48952 0.4436 0.0
C4922 C 0.99251 0.47273 0.44611 0.0
C4923 C 0.99851 0.45998 0.45641 0.0
H4924 H 0.99922 0.49941 0.43569 0.0
H4925 H 0.05965 0.37677 0.53512 0.0
H4926 H 0.50621 0.31689 0.16254 0.0
H4927 H 0.48094 0.31813 0.17633 0.0
H4928 H 0.50888 0.31462 0.22942 0.0
H4929 H 0.53371 0.31186 0.21527 0.0
H4930 H 0.47857 0.29545 0.2281 0.0
H4931 H 0.50033 0.35799 0.21345 0.0
H4932 H 0.5103 0.38201 0.19353 0.0
H4933 H 0.4609 0.36458 0.15823 0.0
H4934 H 0.45071 0.34032 0.17781 0.0
H4935 H 0.41808 0.33204 0.27476 0.0
H4936 H 0.4441 0.32818 0.26355 0.0
H4937 H 0.41566 0.31423 0.20836 0.0
H4938 H 0.38964 0.31786 0.21935 0.0
H4939 H 0.44697 0.34303 0.21279 0.0
H4940 H 0.4254 0.28096 0.22901 0.0
H4941 H 0.41638 0.25661 0.24885 0.0
H4942 H 0.46649 0.27416 0.28269 0.0
H4943 H 0.47576 0.29884 0.26322 0.0
C4944 C 0.50695 0.31644 0.17716 0.0
C4945 C 0.52197 0.31444 0.18784 0.0
C4946 C 0.49252 0.31729 0.18511 0.0
C4947 C 0.493 0.31703 0.20412 0.0
C4948 C 0.50805 0.31493 0.21478 0.0
C4949 C 0.5223 0.31344 0.20669 0.0
C4950 C 0.47781 0.3188 0.21279 0.0
C4951 C 0.47189 0.30611 0.22499 0.0
C4952 C 0.46877 0.33248 0.20864 0.0
C4953 C 0.47481 0.34727 0.19703 0.0
C4954 C 0.49162 0.35925 0.2014 0.0
C4955 C 0.49731 0.3729 0.19017 0.0
C4956 C 0.48625 0.3748 0.17461 0.0
C4957 C 0.46946 0.36309 0.17028 0.0
C4958 C 0.46371 0.34941 0.18145 0.0
C4959 C 0.41732 0.32815 0.26022 0.0
C4960 C 0.40161 0.32514 0.248 0.0
C4961 C 0.4322 0.32576 0.25388 0.0
C4962 C 0.43181 0.32076 0.23513 0.0
C4963 C 0.41624 0.31794 0.22291 0.0
C4964 C 0.40132 0.31994 0.22926 0.0
C4965 C 0.44776 0.31965 0.22792 0.0
C4966 C 0.45382 0.33253 0.21603 0.0
C4967 C 0.45702 0.30635 0.23262 0.0
C4968 C 0.45119 0.29201 0.2448 0.0
C4969 C 0.43441 0.27989 0.24087 0.0
C4970 C 0.42927 0.26596 0.25202 0.0
C4971 C 0.44081 0.26392 0.2671 0.0
C4972 C 0.45753 0.27581 0.27106 0.0
C4973 C 0.46274 0.28978 0.25997 0.0
H4974 H 0.43682 0.25307 0.27566 0.0
H4975 H 0.49068 0.38535 0.16592 0.0
H4976 H 0.61657 0.56623 0.37336 0.0
H4977 H 0.60087 0.56612 0.39888 0.0
H4978 H 0.6489 0.57942 0.43716 0.0
H4979 H 0.66463 0.5785 0.41146 0.0
H4980 H 0.62659 0.55374 0.44804 0.0
H4981 H 0.62603 0.6129 0.4287 0.0
H4982 H 0.62233 0.63592 0.40737 0.0
H4983 H 0.56827 0.60821 0.39287 0.0
H4984 H 0.57166 0.58483 0.41388 0.0
H4985 H 0.57998 0.58532 0.51646 0.0
H4986 H 0.59935 0.58627 0.49436 0.0
H4987 H 0.5603 0.54333 0.45758 0.0
H4988 H 0.54121 0.541 0.48063 0.0
H4989 H 0.58036 0.5867 0.44879 0.0
H4990 H 0.58404 0.52555 0.46794 0.0
H4991 H 0.58968 0.50515 0.49133 0.0
H4992 H 0.641 0.54097 0.50873 0.0
H4993 H 0.63547 0.56192 0.48576 0.0
C4994 C 0.62373 0.56905 0.38725 0.0
C4995 C 0.64169 0.5723 0.39064 0.0
C4996 C 0.61481 0.56921 0.40177 0.0
C4997 C 0.6238 0.57325 0.41984 0.0
C4998 C 0.64179 0.57639 0.42326 0.0
C4999 C 0.65071 0.57576 0.40868 0.0
C5000 C 0.61415 0.57306 0.43506 0.0
C5001 C 0.61667 0.56119 0.44835 0.0
C5002 C 0.60126 0.58286 0.43543 0.0
C5003 C 0.59914 0.597 0.4228 0.0
C5004 C 0.61337 0.61162 0.42087 0.0
C5005 C 0.61132 0.62475 0.40884 0.0
C5006 C 0.59509 0.62351 0.39874 0.0
C5007 C 0.58085 0.60915 0.40069 0.0
C5008 C 0.58282 0.59597 0.41268 0.0
C5009 C 0.57578 0.57545 0.50407 0.0
C5010 C 0.55942 0.56254 0.5005 0.0
C5011 C 0.58676 0.57623 0.49139 0.0
C5012 C 0.58121 0.56465 0.47468 0.0
C5013 C 0.56473 0.55206 0.47072 0.0
C5014 C 0.55393 0.55075 0.48378 0.0
C5015 C 0.59238 0.56677 0.46095 0.0
C5016 C 0.59032 0.57932 0.4483 0.0
C5017 C 0.60596 0.55802 0.46145 0.0
C5018 C 0.6092 0.54551 0.47537 0.0
C5019 C 0.5964 0.5293 0.47698 0.0
C5020 C 0.59961 0.51758 0.49012 0.0
C5021 C 0.61566 0.52181 0.50158 0.0
C5022 C 0.62854 0.53775 0.4999 0.0
C5023 C 0.62537 0.54957 0.48685 0.0
H5024 H 0.61813 0.51268 0.5117 0.0
H5025 H 0.59354 0.63368 0.38943 0.0
H5026 H 0.31466 0.9259 0.09895 0.0
H5027 H 0.31718 0.91508 0.12906 0.0
H5028 H 0.28974 0.85871 0.1044 0.0
H5029 H 0.28735 0.86953 0.07387 0.0
H5030 H 0.27614 0.87191 0.13395 0.0
H5031 H 0.33312 0.87132 0.12137 0.0
H5032 H 0.36242 0.88443 0.11512 0.0
H5033 H 0.3742 0.92369 0.16421 0.0
H5034 H 0.34487 0.91111 0.17057 0.0
H5035 H 0.2848 0.81876 0.20594 0.0
H5036 H 0.28727 0.83263 0.17767 0.0
H5037 H 0.31655 0.88579 0.20852 0.0
H5038 H 0.31407 0.87193 0.23727 0.0
H5039 H 0.33001 0.87731 0.17756 0.0
H5040 H 0.27688 0.88158 0.19164 0.0
H5041 H 0.24852 0.8717 0.2011 0.0
H5042 H 0.22975 0.83181 0.15243 0.0
H5043 H 0.25817 0.8411 0.14287 0.0
C5044 C 0.30926 0.91112 0.09984 0.0
C5045 C 0.30066 0.89858 0.08394 0.0
C5046 C 0.31085 0.90494 0.11713 0.0
C5047 C 0.30374 0.88605 0.11911 0.0
C5048 C 0.2954 0.87336 0.10323 0.0
C5049 C 0.29406 0.87951 0.08577 0.0
C5050 C 0.30388 0.87993 0.1378 0.0
C5051 C 0.28795 0.87278 0.14332 0.0
C5052 C 0.31927 0.8823 0.15065 0.0
C5053 C 0.33666 0.89041 0.1463 0.0
C5054 C 0.34184 0.88295 0.13067 0.0
C5055 C 0.3585 0.89025 0.12715 0.0
C5056 C 0.37015 0.90492 0.13923 0.0
C5057 C 0.36516 0.91237 0.15483 0.0
C5058 C 0.34851 0.90517 0.15838 0.0
C5059 C 0.2919 0.83339 0.20687 0.0
C5060 C 0.2992 0.84421 0.22403 0.0
C5061 C 0.29323 0.84133 0.19059 0.0
C5062 C 0.30191 0.86032 0.19089 0.0
C5063 C 0.30972 0.87111 0.20792 0.0
C5064 C 0.30825 0.86318 0.22435 0.0
C5065 C 0.30232 0.86867 0.1733 0.0
C5066 C 0.31825 0.87642 0.16811 0.0
C5067 C 0.28696 0.86759 0.161 0.0
C5068 C 0.26977 0.86189 0.16663 0.0
C5069 C 0.26679 0.87054 0.18303 0.0
C5070 C 0.25068 0.86506 0.18841 0.0
C5071 C 0.23735 0.8511 0.1774 0.0
C5072 C 0.2401 0.8426 0.16097 0.0
C5073 C 0.25622 0.84796 0.15557 0.0
H5074 H 0.22487 0.8469 0.18157 0.0
H5075 H 0.38306 0.91048 0.13652 0.0
H5076 H 0.01013 0.64335 0.87327 0.0
H5077 H 0.01857 0.63172 0.90208 0.0
H5078 H 0.9656 0.61795 0.91037 0.0
H5079 H 0.95742 0.63091 0.88214 0.0
H5080 H 0.98475 0.62841 0.94184 0.0
H5081 H 0.98458 0.58285 0.89247 0.0
H5082 H 0.99111 0.5706 0.86313 0.0
H5083 H 0.04534 0.58944 0.88466 0.0
H5084 H 0.03914 0.60188 0.91408 0.0
H5085 H 0.01312 0.56728 0.00649 0.0
H5086 H 0.99706 0.57605 0.97941 0.0
H5087 H 0.04428 0.6127 0.96957 0.0
H5088 H 0.06015 0.60477 0.99694 0.0
H5089 H 0.02244 0.58514 0.93846 0.0
H5090 H 0.01993 0.62974 0.98954 0.0
H5091 H 0.01088 0.63687 0.01884 0.0
H5092 H 0.95772 0.61688 0.99325 0.0
H5093 H 0.96645 0.60795 0.96403 0.0
C5094 C 1.00043 0.63835 0.88157 0.0
C5095 C 0.98322 0.6382 0.87571 0.0
C5096 C 1.00517 0.63141 0.89785 0.0
C5097 C 0.99262 0.62334 0.90811 0.0
C5098 C 0.9755 0.624 0.90267 0.0
C5099 C 0.97086 0.63152 0.88664 0.0
C5100 C 0.99745 0.61385 0.92415 0.0
C5101 C 0.99274 0.61869 0.94102 0.0
C5102 C 0.00761 0.60087 0.92309 0.0
C5103 C 0.0114 0.59338 0.90543 0.0
C5104 C 0.9979 0.58445 0.8909 0.0
C5105 C 1.00154 0.57745 0.87428 0.0
C5106 C 0.01863 0.57927 0.87203 0.0
C5107 C 0.03211 0.58803 0.88642 0.0
C5108 C 0.02854 0.59501 0.90309 0.0
C5109 C 0.01997 0.57739 0.99865 0.0
C5110 C 0.03781 0.58556 0.00389 0.0
C5111 C 0.01083 0.58228 0.98319 0.0
C5112 C 0.01954 0.59502 0.97261 0.0
C5113 C 0.03738 0.60285 0.97764 0.0
C5114 C 0.0464 0.59836 0.99328 0.0
C5115 C 0.01041 0.6004 0.95613 0.0
C5116 C 0.0142 0.59462 0.93915 0.0
C5117 C 0.99906 0.61206 0.95708 0.0
C5118 C 0.99388 0.61782 0.97461 0.0
C5119 C 0.00631 0.62647 0.99017 0.0
C5120 C 1.00123 0.63091 0.00679 0.0
C5121 C 0.98374 0.62757 0.00787 0.0
C5122 C 0.97127 0.61947 0.99238 0.0
C5123 C 0.97629 0.61453 0.97583 0.0
H5124 H 0.97984 0.63128 0.02069 0.0
H5125 H 0.02142 0.57387 0.85914 0.0
H5126 H 0.29364 0.20591 0.58358 0.0
H5127 H 0.29354 0.21786 0.61498 0.0
H5128 H 0.29724 0.2734 0.59956 0.0
H5129 H 0.29703 0.26137 0.56747 0.0
H5130 H 0.31972 0.2719 0.63378 0.0
H5131 H 0.25982 0.24922 0.6055 0.0
H5132 H 0.23258 0.22717 0.58956 0.0
H5133 H 0.23661 0.18925 0.62963 0.0
H5134 H 0.26406 0.2109 0.6456 0.0
H5135 H 0.29868 0.31195 0.71455 0.0
H5136 H 0.30103 0.30122 0.68315 0.0
H5137 H 0.28189 0.24353 0.6927 0.0
H5138 H 0.27854 0.25449 0.72374 0.0
H5139 H 0.26819 0.24591 0.66133 0.0
H5140 H 0.32708 0.2656 0.68973 0.0
H5141 H 0.3541 0.28634 0.70769 0.0
H5142 H 0.35334 0.3271 0.66997 0.0
H5143 H 0.3263 0.30657 0.65176 0.0
C5144 C 0.29458 0.22075 0.5867 0.0
C5145 C 0.29532 0.23266 0.57278 0.0
C5146 C 0.29444 0.22753 0.60479 0.0
C5147 C 0.29522 0.24648 0.60968 0.0
C5148 C 0.29657 0.25867 0.59608 0.0
C5149 C 0.29643 0.25179 0.57774 0.0
C5150 C 0.29417 0.25317 0.62893 0.0
C5151 C 0.30836 0.26646 0.63975 0.0
C5152 C 0.27973 0.24538 0.63708 0.0
C5153 C 0.26409 0.23159 0.62661 0.0
C5154 C 0.25509 0.23601 0.61069 0.0
C5155 C 0.23957 0.22362 0.6017 0.0
C5156 C 0.23289 0.20684 0.60857 0.0
C5157 C 0.24182 0.20224 0.62429 0.0
C5158 C 0.25737 0.21455 0.6333 0.0
C5159 C 0.29468 0.297 0.70974 0.0
C5160 C 0.28807 0.28405 0.72133 0.0
C5161 C 0.29634 0.29083 0.6919 0.0
C5162 C 0.29203 0.27148 0.68548 0.0
C5163 C 0.28531 0.25853 0.69716 0.0
C5164 C 0.28324 0.26476 0.71486 0.0
C5165 C 0.29368 0.26481 0.66635 0.0
C5166 C 0.27965 0.25138 0.65552 0.0
C5167 C 0.30847 0.27208 0.65842 0.0
C5168 C 0.32457 0.28462 0.66948 0.0
C5169 C 0.3326 0.27906 0.68535 0.0
C5170 C 0.34795 0.29076 0.69556 0.0
C5171 C 0.3554 0.30808 0.69004 0.0
C5172 C 0.34755 0.3137 0.67425 0.0
C5173 C 0.33224 0.30201 0.66395 0.0
H5174 H 0.36728 0.31712 0.69795 0.0
H5175 H 0.22072 0.19755 0.60175 0.0
H5176 H 0.63402 0.53658 0.29669 0.0
H5177 H 0.6183 0.53513 0.26545 0.0
H5178 H 0.65091 0.58967 0.26058 0.0
H5179 H 0.66681 0.59101 0.29131 0.0
H5180 H 0.61465 0.58435 0.24844 0.0
H5181 H 0.66177 0.55781 0.24225 0.0
H5182 H 0.68019 0.53664 0.2498 0.0
H5183 H 0.63715 0.48857 0.23013 0.0
H5184 H 0.61836 0.50952 0.22284 0.0
H5185 H 0.60972 0.58958 0.15377 0.0
H5186 H 0.62235 0.58683 0.18505 0.0
H5187 H 0.5831 0.53513 0.18422 0.0
H5188 H 0.57017 0.53811 0.15295 0.0
H5189 H 0.62081 0.53745 0.19957 0.0
H5190 H 0.57443 0.56791 0.20399 0.0
H5191 H 0.55854 0.5918 0.19799 0.0
H5192 H 0.60412 0.63586 0.22083 0.0
H5193 H 0.62034 0.61223 0.22676 0.0
C5194 C 0.63771 0.54818 0.28886 0.0
C5195 C 0.65166 0.56373 0.29603 0.0
C5196 C 0.62879 0.54738 0.27122 0.0
C5197 C 0.63362 0.56231 0.261 0.0
C5198 C 0.64712 0.57811 0.26844 0.0
C5199 C 0.65624 0.57873 0.28582 0.0
C5200 C 0.62531 0.56114 0.24207 0.0
C5201 C 0.61593 0.57412 0.2377 0.0
C5202 C 0.6273 0.54785 0.22832 0.0
C5203 C 0.6386 0.53521 0.23226 0.0
C5204 C 0.65619 0.54272 0.23971 0.0
C5205 C 0.6667 0.53078 0.24392 0.0
C5206 C 0.65983 0.51127 0.24052 0.0
C5207 C 0.64244 0.50369 0.23281 0.0
C5208 C 0.63185 0.51559 0.22865 0.0
C5209 C 0.60407 0.57743 0.16016 0.0
C5210 C 0.58909 0.56397 0.15122 0.0
C5211 C 0.61118 0.57596 0.17793 0.0
C5212 C 0.60344 0.56091 0.18672 0.0
C5213 C 0.58908 0.54684 0.17746 0.0
C5214 C 0.58178 0.54849 0.15976 0.0
C5215 C 0.60993 0.56051 0.20595 0.0
C5216 C 0.61919 0.5474 0.21035 0.0
C5217 C 0.60824 0.57406 0.21967 0.0
C5218 C 0.59863 0.5883 0.21561 0.0
C5219 C 0.58112 0.5827 0.20751 0.0
C5220 C 0.57204 0.59619 0.20419 0.0
C5221 C 0.58032 0.61533 0.20898 0.0
C5222 C 0.59772 0.62103 0.21709 0.0
C5223 C 0.60686 0.60759 0.22045 0.0
H5224 H 0.57325 0.62575 0.20645 0.0
H5225 H 0.66798 0.50203 0.24381 0.0
H5226 H 0.27069 0.87634 0.96935 0.0
H5227 H 0.26965 0.86518 0.93688 0.0
H5228 H 0.32461 0.8882 0.94311 0.0
H5229 H 0.32578 0.89851 0.97576 0.0
H5230 H 0.30274 0.89579 0.90864 0.0
H5231 H 0.31491 0.84594 0.94147 0.0
H5232 H 0.30975 0.82353 0.96407 0.0
H5233 H 0.25876 0.79789 0.93396 0.0
H5234 H 0.26354 0.82038 0.91133 0.0
H5235 H 0.31124 0.84948 0.82116 0.0
H5236 H 0.31464 0.86475 0.85278 0.0
H5237 H 0.26828 0.82463 0.86013 0.0
H5238 H 0.26561 0.80895 0.82928 0.0
H5239 H 0.28797 0.82712 0.88875 0.0
H5240 H 0.275 0.87675 0.85574 0.0
H5241 H 0.27897 0.90042 0.83416 0.0
H5242 H 0.32966 0.92734 0.86437 0.0
H5243 H 0.32609 0.90368 0.88598 0.0
C5244 C 0.28255 0.87899 0.96382 0.0
C5245 C 0.29833 0.88819 0.97531 0.0
C5246 C 0.28196 0.87265 0.94518 0.0
C5247 C 0.29704 0.87589 0.93728 0.0
C5248 C 0.31275 0.88553 0.94866 0.0
C5249 C 0.31342 0.8913 0.96743 0.0
C5250 C 0.29649 0.86836 0.91751 0.0
C5251 C 0.29966 0.88077 0.90429 0.0
C5252 C 0.29228 0.8488 0.91155 0.0
C5253 C 0.28952 0.83494 0.92482 0.0
C5254 C 0.30256 0.8356 0.93974 0.0
C5255 C 0.29971 0.82288 0.95254 0.0
C5256 C 0.28392 0.80933 0.95048 0.0
C5257 C 0.27097 0.80842 0.93555 0.0
C5258 C 0.27375 0.82113 0.92272 0.0
C5259 C 0.3016 0.84421 0.82943 0.0
C5260 C 0.28802 0.82805 0.82246 0.0
C5261 C 0.30353 0.85298 0.84767 0.0
C5262 C 0.29167 0.84613 0.85933 0.0
C5263 C 0.27782 0.83036 0.85192 0.0
C5264 C 0.27616 0.82143 0.83402 0.0
C5265 C 0.29373 0.85448 0.87934 0.0
C5266 C 0.29095 0.84218 0.8928 0.0
C5267 C 0.29814 0.87418 0.88541 0.0
C5268 C 0.30035 0.88832 0.87236 0.0
C5269 C 0.28705 0.88763 0.85769 0.0
C5270 C 0.28921 0.90106 0.84547 0.0
C5271 C 0.30457 0.91534 0.84787 0.0
C5272 C 0.31778 0.91625 0.86251 0.0
C5273 C 0.31569 0.90284 0.87475 0.0
H5274 H 0.30621 0.92574 0.83841 0.0
H5275 H 0.28173 0.7995 0.96042 0.0
H5276 H 0.99496 0.64827 0.77879 0.0
H5277 H 1.00044 0.62993 0.75213 0.0
H5278 H 0.94612 0.60239 0.73729 0.0
H5279 H 0.94043 0.62094 0.76318 0.0
H5280 H 0.9701 0.57748 0.73833 0.0
H5281 H 0.95589 0.62848 0.71107 0.0
H5282 H 0.95671 0.66179 0.70903 0.0
H5283 H 0.01093 0.67446 0.70731 0.0
H5284 H 0.01047 0.64122 0.70963 0.0
H5285 H 0.98205 0.54412 0.64482 0.0
H5286 H 0.97001 0.55487 0.6711 0.0
H5287 H 0.02028 0.59089 0.69501 0.0
H5288 H 0.03221 0.58019 0.66896 0.0
H5289 H 0.99297 0.60908 0.68748 0.0
H5290 H 1.0049 0.55467 0.71454 0.0
H5291 H 1.00135 0.52094 0.71714 0.0
H5292 H 0.9473 0.51333 0.71766 0.0
H5293 H 0.95047 0.54697 0.71477 0.0
C5294 C 0.9842 0.63859 0.76962 0.0
C5295 C 0.96729 0.63633 0.77292 0.0
C5296 C 0.98733 0.62801 0.75457 0.0
C5297 C 0.97365 0.61474 0.74296 0.0
C5298 C 0.95681 0.61249 0.74619 0.0
C5299 C 0.95362 0.62335 0.76086 0.0
C5300 C 0.97693 0.60365 0.72705 0.0
C5301 C 0.97492 0.58424 0.72704 0.0
C5302 C 0.98281 0.61251 0.71229 0.0
C5303 C 0.98319 0.63244 0.71071 0.0
C5304 C 0.96802 0.63841 0.71042 0.0
C5305 C 0.96841 0.65726 0.70918 0.0
C5306 C 0.98387 0.67025 0.70809 0.0
C5307 C 0.99897 0.66439 0.70818 0.0
C5308 C 0.99865 0.64554 0.70944 0.0
C5309 C 0.99049 0.55407 0.65586 0.0
C5310 C 0.00799 0.56148 0.65494 0.0
C5311 C 0.98366 0.56009 0.67087 0.0
C5312 C 0.9943 0.57366 0.68494 0.0
C5313 C 0.01191 0.58036 0.68431 0.0
C5314 C 0.0187 0.57428 0.66947 0.0
C5315 C 0.98705 0.58296 0.69909 0.0
C5316 C 0.98807 0.60215 0.69864 0.0
C5317 C 0.97985 0.57367 0.71312 0.0
C5318 C 0.97788 0.5533 0.7141 0.0
C5319 C 0.9922 0.54576 0.71488 0.0
C5320 C 0.99027 0.52666 0.7165 0.0
C5321 C 0.9741 0.51498 0.71747 0.0
C5322 C 0.95981 0.52237 0.71683 0.0
C5323 C 0.96167 0.54145 0.7152 0.0
H5324 H 0.97265 0.50023 0.7188 0.0
H5325 H 0.98415 0.68485 0.70714 0.0
H5326 H 0.30962 0.23194 0.46323 0.0
H5327 H 0.31133 0.24313 0.43316 0.0
H5328 H 0.26258 0.25637 0.43272 0.0
H5329 H 0.261 0.24563 0.4629 0.0
H5330 H 0.26453 0.23798 0.39863 0.0
H5331 H 0.29922 0.29081 0.4417 0.0
H5332 H 0.32281 0.30724 0.46697 0.0
H5333 H 0.35997 0.29413 0.43604 0.0
H5334 H 0.33658 0.27734 0.4107 0.0
H5335 H 0.26849 0.29112 0.32093 0.0
H5336 H 0.26463 0.27808 0.34989 0.0
H5337 H 0.31857 0.27928 0.36029 0.0
H5338 H 0.32248 0.29319 0.33217 0.0
H5339 H 0.31313 0.29021 0.3899 0.0
H5340 H 0.28007 0.23684 0.34716 0.0
H5341 H 0.25732 0.21867 0.32184 0.0
H5342 H 0.21843 0.23005 0.35112 0.0
H5343 H 0.24095 0.24856 0.37649 0.0
C5344 C 0.29927 0.23729 0.45679 0.0
C5345 C 0.2852 0.23791 0.46574 0.0
C5346 C 0.30026 0.24373 0.43951 0.0
C5347 C 0.2871 0.25073 0.43041 0.0
C5348 C 0.27294 0.25108 0.43922 0.0
C5349 C 0.2721 0.245 0.45664 0.0
C5350 C 0.28814 0.25787 0.41195 0.0
C5351 C 0.27509 0.24954 0.39676 0.0
C5352 C 0.30207 0.27264 0.40911 0.0
C5353 C 0.31612 0.28262 0.42439 0.0
C5354 C 0.31241 0.29126 0.44036 0.0
C5355 C 0.32575 0.30067 0.45469 0.0
C5356 C 0.34287 0.30168 0.45314 0.0
C5357 C 0.3467 0.2933 0.43724 0.0
C5358 C 0.33341 0.28384 0.4229 0.0
C5359 C 0.27943 0.28831 0.32928 0.0
C5360 C 0.2958 0.29316 0.32406 0.0
C5361 C 0.27724 0.28076 0.34597 0.0
C5362 C 0.29127 0.27736 0.35769 0.0
C5363 C 0.30744 0.28178 0.35198 0.0
C5364 C 0.30968 0.28968 0.33567 0.0
C5365 C 0.28964 0.27012 0.37617 0.0
C5366 C 0.30257 0.27853 0.39152 0.0
C5367 C 0.27576 0.25515 0.379 0.0
C5368 C 0.26222 0.2443 0.36362 0.0
C5369 C 0.26667 0.23564 0.34812 0.0
C5370 C 0.25381 0.22525 0.33377 0.0
C5371 C 0.23644 0.22326 0.33485 0.0
C5372 C 0.23189 0.23165 0.35028 0.0
C5373 C 0.2447 0.2421 0.36464 0.0
H5374 H 0.2265 0.21518 0.32374 0.0
H5375 H 0.35318 0.309 0.46423 0.0
H5376 H 0.32155 0.65049 0.53643 0.0
H5377 H 0.34717 0.63969 0.53346 0.0
H5378 H 0.35303 0.6677 0.48536 0.0
H5379 H 0.32716 0.67862 0.48826 0.0
H5380 H 0.35974 0.63327 0.48062 0.0
H5381 H 0.37973 0.68696 0.5254 0.0
H5382 H 0.38072 0.70832 0.55314 0.0
H5383 H 0.38678 0.66513 0.58666 0.0
H5384 H 0.3856 0.64342 0.5591 0.0
H5385 H 0.44492 0.61388 0.48916 0.0
H5386 H 0.42048 0.62808 0.48425 0.0
H5387 H 0.40614 0.61113 0.53514 0.0
H5388 H 0.43049 0.59754 0.54022 0.0
H5389 H 0.40603 0.64524 0.53495 0.0
H5390 H 0.38422 0.5907 0.48748 0.0
H5391 H 0.38299 0.571 0.45852 0.0
H5392 H 0.38131 0.61793 0.4287 0.0
H5393 H 0.38281 0.63798 0.4575 0.0
C5394 C 0.3282 0.65437 0.52515 0.0
C5395 C 0.32224 0.66556 0.51265 0.0
C5396 C 0.34298 0.64822 0.52351 0.0
C5397 C 0.35232 0.65305 0.50933 0.0
C5398 C 0.34617 0.66381 0.49648 0.0
C5399 C 0.33138 0.6701 0.49819 0.0
C5400 C 0.36854 0.64694 0.50831 0.0
C5401 C 0.37 0.63608 0.49242 0.0
C5402 C 0.38207 0.65064 0.52358 0.0
C5403 C 0.38243 0.66351 0.54016 0.0
C5404 C 0.3811 0.68195 0.53867 0.0
C5405 C 0.38174 0.69414 0.55437 0.0
C5406 C 0.38377 0.68807 0.57165 0.0
C5407 C 0.38518 0.6698 0.57327 0.0
C5408 C 0.38455 0.65756 0.55762 0.0
C5409 C 0.43646 0.6131 0.49923 0.0
C5410 C 0.43993 0.60479 0.51528 0.0
C5411 C 0.42238 0.62117 0.49636 0.0
C5412 C 0.41124 0.62079 0.5093 0.0
C5413 C 0.41449 0.61192 0.52496 0.0
C5414 C 0.42856 0.60416 0.52792 0.0
C5415 C 0.39684 0.63042 0.50767 0.0
C5416 C 0.39583 0.64231 0.52308 0.0
C5417 C 0.38391 0.62779 0.49184 0.0
C5418 C 0.38391 0.61592 0.47471 0.0
C5419 C 0.38387 0.5969 0.4748 0.0
C5420 C 0.38305 0.58565 0.45839 0.0
C5421 C 0.38214 0.59323 0.44179 0.0
C5422 C 0.38208 0.61209 0.44157 0.0
C5423 C 0.38294 0.6234 0.45793 0.0
H5424 H 0.38141 0.58447 0.4291 0.0
H5425 H 0.3843 0.69754 0.58379 0.0
H5426 H 0.85081 0.97906 0.54146 0.0
H5427 H 0.88001 0.99651 0.5383 0.0
H5428 H 0.89816 0.94738 0.54694 0.0
H5429 H 0.86905 0.92983 0.5498 0.0
H5430 H 0.92057 0.97855 0.56692 0.0
H5431 H 0.89371 0.96004 0.50512 0.0
H5432 H 0.87171 0.95585 0.47743 0.0
H5433 H 0.88108 0.01581 0.47931 0.0
H5434 H 0.903 0.02038 0.50721 0.0
H5435 H 1.00351 0.01588 0.54072 0.0
H5436 H 0.97471 0.99602 0.54224 0.0
H5437 H 0.95321 0.04296 0.53358 0.0
H5438 H 0.98197 0.06286 0.53225 0.0
H5439 H 0.9327 0.01108 0.5128 0.0
H5440 H 0.96036 0.02796 0.57636 0.0
H5441 H 0.98208 0.02973 0.6038 0.0
H5442 H 0.97139 0.96944 0.59738 0.0
H5443 H 0.94977 0.96732 0.56975 0.0
C5444 C 0.86101 0.97197 0.54274 0.0
C5445 C 0.85744 0.95298 0.54596 0.0
C5446 C 0.87775 0.98195 0.54081 0.0
C5447 C 0.89147 0.97334 0.54229 0.0
C5448 C 0.88795 0.95447 0.54573 0.0
C5449 C 0.8712 0.9444 0.54734 0.0
C5450 C 0.90949 0.98403 0.54055 0.0
C5451 C 0.92322 0.98545 0.55496 0.0
C5452 C 0.91317 0.99318 0.52502 0.0
C5453 C 0.89984 0.99055 0.50841 0.0
C5454 C 0.89095 0.97234 0.49976 0.0
C5455 C 0.87852 0.96989 0.484 0.0
C5456 C 0.87495 0.98555 0.47665 0.0
C5457 C 0.88383 0.0037 0.48505 0.0
C5458 C 0.89627 0.00623 0.50083 0.0
C5459 C 0.99264 0.02197 0.53906 0.0
C5460 C 0.99515 0.04106 0.53634 0.0
C5461 C 0.97612 0.01059 0.54005 0.0
C5462 C 0.96157 0.01789 0.53819 0.0
C5463 C 0.96407 0.03685 0.5351 0.0
C5464 C 0.98059 0.04828 0.53436 0.0
C5465 C 0.94379 0.00596 0.53938 0.0
C5466 C 0.93007 0.00421 0.52479 0.0
C5467 C 0.94019 0.99619 0.55461 0.0
C5468 C 0.95362 0.99751 0.57083 0.0
C5469 C 0.96281 0.0151 0.58065 0.0
C5470 C 0.97506 0.01616 0.59628 0.0
C5471 C 0.97816 0.99972 0.60229 0.0
C5472 C 0.96901 0.98217 0.59268 0.0
C5473 C 0.95677 0.98103 0.57703 0.0
H5474 H 0.9876 1.00057 0.61443 0.0
H5475 H 0.86534 0.98363 0.46443 0.0
H5476 H 0.86377 0.08648 0.20824 0.0
H5477 H 0.85768 0.11475 0.2217 0.0
H5478 H 0.90338 0.12514 0.26291 0.0
H5479 H 0.90945 0.09648 0.24965 0.0
H5480 H 0.87554 0.12693 0.27782 0.0
H5481 H 0.90219 0.15612 0.23079 0.0
H5482 H 0.90853 0.15906 0.19954 0.0
H5483 H 0.85533 0.15534 0.17955 0.0
H5484 H 0.84867 0.1523 0.21065 0.0
H5485 H 0.84651 0.2108 0.30315 0.0
H5486 H 0.86398 0.18886 0.29706 0.0
H5487 H 0.82639 0.16186 0.24899 0.0
H5488 H 0.80934 0.18399 0.25481 0.0
H5489 H 0.85859 0.17455 0.2414 0.0
H5490 H 0.8313 0.14033 0.28715 0.0
H5491 H 0.82445 0.13566 0.31795 0.0
H5492 H 0.87842 0.14783 0.34009 0.0
H5493 H 0.8856 0.15282 0.30945 0.0
C5494 C 0.87265 0.09487 0.22003 0.0
C5495 C 0.88701 0.08923 0.22794 0.0
C5496 C 0.86924 0.11112 0.22762 0.0
C5497 C 0.88024 0.12216 0.24313 0.0
C5498 C 0.89483 0.11683 0.25086 0.0
C5499 C 0.89824 0.10049 0.24327 0.0
C5500 C 0.87536 0.13819 0.252 0.0
C5501 C 0.87226 0.1377 0.27007 0.0
C5502 C 0.87101 0.15209 0.2418 0.0
C5503 C 0.87495 0.15396 0.22306 0.0
C5504 C 0.89184 0.15585 0.21971 0.0
C5505 C 0.89549 0.15757 0.20203 0.0
C5506 C 0.88234 0.15738 0.18757 0.0
C5507 C 0.86551 0.15552 0.19077 0.0
C5508 C 0.86181 0.15387 0.20843 0.0
C5509 C 0.84195 0.19995 0.29152 0.0
C5510 C 0.82681 0.19904 0.27927 0.0
C5511 C 0.85185 0.18744 0.28809 0.0
C5512 C 0.8465 0.17392 0.27249 0.0
C5513 C 0.83077 0.17233 0.261 0.0
C5514 C 0.82105 0.18487 0.26432 0.0
C5515 C 0.8578 0.16254 0.26678 0.0
C5516 C 0.8623 0.16412 0.24936 0.0
C5517 C 0.86335 0.14965 0.27758 0.0
C5518 C 0.859 0.14727 0.29607 0.0
C5519 C 0.84172 0.14229 0.29863 0.0
C5520 C 0.83777 0.1395 0.31605 0.0
C5521 C 0.85099 0.14153 0.33098 0.0
C5522 C 0.86819 0.14634 0.32853 0.0
C5523 C 0.87221 0.14915 0.31114 0.0
H5524 H 0.84791 0.1393 0.34444 0.0
H5525 H 0.88519 0.15868 0.17389 0.0
H5526 H 0.73198 0.16911 0.04105 0.0
H5527 H 0.70262 0.15262 0.0437 0.0
H5528 H 0.68987 0.13835 0.98489 0.0
H5529 H 0.71927 0.15616 0.98221 0.0
H5530 H 0.66288 0.1465 0.99857 0.0
H5531 H 0.69879 0.1053 0.01185 0.0
H5532 H 0.72525 0.09813 0.02657 0.0
H5533 H 0.71334 0.11171 0.0797 0.0
H5534 H 0.68688 0.11914 0.06526 0.0
H5535 H 0.58991 0.07247 0.00368 0.0
H5536 H 0.61802 0.09001 0.99852 0.0
H5537 H 0.63307 0.10974 0.05636 0.0
H5538 H 0.60476 0.09201 0.0617 0.0
H5539 H 0.65836 0.09823 0.04146 0.0
H5540 H 0.62134 0.13883 0.02678 0.0
H5541 H 0.59486 0.14514 0.01098 0.0
H5542 H 0.60818 0.13076 0.95878 0.0
H5543 H 0.6347 0.12422 0.97428 0.0
C5544 C 0.72296 0.16223 0.02872 0.0
C5545 C 0.72793 0.16324 0.0115 0.0
C5546 C 0.70617 0.15292 0.03021 0.0
C5547 C 0.69413 0.1438 0.01454 0.0
C5548 C 0.69897 0.14515 0.99718 0.0
C5549 C 0.71576 0.15502 0.99566 0.0
C5550 C 0.67694 0.13215 0.01671 0.0
C5551 C 0.66186 0.13576 0.00772 0.0
C5552 C 0.67556 0.11822 0.02877 0.0
C5553 C 0.69091 0.11279 0.03749 0.0
C5554 C 0.70181 0.10671 0.02667 0.0
C5555 C 0.71682 0.10264 0.03496 0.0
C5556 C 0.72098 0.10447 0.05406 0.0
C5557 C 0.71008 0.11027 0.06491 0.0
C5558 C 0.69505 0.11435 0.05668 0.0
C5559 C 0.59918 0.08047 0.01536 0.0
C5560 C 0.59504 0.08095 0.0331 0.0
C5561 C 0.61523 0.09057 0.01234 0.0
C5562 C 0.62749 0.1015 0.02698 0.0
C5563 C 0.62371 0.10148 0.04485 0.0
C5564 C 0.60759 0.09128 0.0479 0.0
C5565 C 0.64431 0.11273 0.02357 0.0
C5566 C 0.65934 0.10896 0.03229 0.0
C5567 C 0.64553 0.12625 0.01106 0.0
C5568 C 0.62997 0.13096 1.0017 0.0
C5569 C 0.61862 0.137 0.01193 0.0
C5570 C 0.6036 0.14061 0.00303 0.0
C5571 C 0.59983 0.13833 0.98389 0.0
C5572 C 0.61113 0.13254 0.97361 0.0
C5573 C 0.62619 0.12893 0.98245 0.0
H5574 H 0.58816 0.14106 0.97702 0.0
H5575 H 0.73265 0.1014 0.06046 0.0
H5576 H 0.19736 0.46365 0.25385 0.0
H5577 H 0.214 0.4406 0.25657 0.0
H5578 H 0.1758 0.40665 0.28321 0.0
H5579 H 0.15913 0.43009 0.28095 0.0
H5580 H 0.20702 0.41022 0.30119 0.0
H5581 H 0.17963 0.39218 0.23959 0.0
H5582 H 0.16899 0.3967 0.20796 0.0
H5583 H 0.22104 0.41872 0.19964 0.0
H5584 H 0.23201 0.41458 0.23134 0.0
H5585 H 0.24626 0.335 0.29671 0.0
H5586 H 0.22706 0.35532 0.29398 0.0
H5587 H 0.26286 0.39348 0.26804 0.0
H5588 H 0.28197 0.37239 0.26981 0.0
H5589 H 0.23048 0.38529 0.24919 0.0
H5590 H 0.25646 0.40328 0.31375 0.0
H5591 H 0.26455 0.39676 0.34536 0.0
H5592 H 0.21138 0.3711 0.34728 0.0
H5593 H 0.20301 0.37725 0.31561 0.0
C5594 C 0.19238 0.45123 0.26017 0.0
C5595 C 0.17693 0.44866 0.26719 0.0
C5596 C 0.20187 0.43799 0.2616 0.0
C5597 C 0.19599 0.42178 0.26982 0.0
C5598 C 0.18049 0.41905 0.27674 0.0
C5599 C 0.171 0.43241 0.27542 0.0
C5600 C 0.20669 0.40838 0.27206 0.0
C5601 C 0.21193 0.40449 0.28978 0.0
C5602 C 0.21312 0.40104 0.25715 0.0
C5603 C 0.20665 0.40319 0.23791 0.0
C5604 C 0.18882 0.39808 0.23106 0.0
C5605 C 0.18272 0.40056 0.21311 0.0
C5606 C 0.19433 0.40803 0.20181 0.0
C5607 C 0.21206 0.41294 0.20841 0.0
C5608 C 0.21823 0.4105 0.22637 0.0
C5609 C 0.25027 0.34787 0.29067 0.0
C5610 C 0.26567 0.35212 0.28347 0.0
C5611 C 0.23925 0.35953 0.28921 0.0
C5612 C 0.2436 0.37601 0.28099 0.0
C5613 C 0.25933 0.3808 0.27448 0.0
C5614 C 0.27034 0.36893 0.27573 0.0
C5615 C 0.23124 0.38765 0.27843 0.0
C5616 C 0.22557 0.39104 0.26059 0.0
C5617 C 0.22406 0.39414 0.29317 0.0
C5618 C 0.22914 0.39065 0.31229 0.0
C5619 C 0.24652 0.39617 0.32089 0.0
C5620 C 0.25114 0.39254 0.33882 0.0
C5621 C 0.23849 0.38351 0.34832 0.0
C5622 C 0.22117 0.3781 0.33992 0.0
C5623 C 0.21648 0.38168 0.32199 0.0
H5624 H 0.2421 0.38071 0.3622 0.0
H5625 H 0.18959 0.40997 0.18792 0.0
H5626 H 0.24244 0.42561 0.03755 0.0
H5627 H 0.21641 0.43698 0.03493 0.0
H5628 H 0.24776 0.49368 0.03587 0.0
H5629 H 0.27371 0.48243 0.0403 0.0
H5630 H 0.22771 0.49693 0.05573 0.0
H5631 H 0.21551 0.45931 0.99575 0.0
H5632 H 0.20939 0.43057 0.97368 0.0
H5633 H 0.16626 0.40479 0.99833 0.0
H5634 H 0.17227 0.43321 0.02073 0.0
H5635 H 0.16397 0.54329 0.03097 0.0
H5636 H 0.18628 0.5269 0.02863 0.0
H5637 H 0.15255 0.47596 0.04027 0.0
H5638 H 0.12973 0.49211 0.0419 0.0
H5639 H 0.17171 0.46788 0.01489 0.0
H5640 H 0.1833 0.50451 0.07378 0.0
H5641 H 0.18778 0.53331 0.09529 0.0
H5642 H 0.23143 0.56048 0.07205 0.0
H5643 H 0.22701 0.53195 0.05017 0.0
C5644 C 0.24369 0.44048 0.037 0.0
C5645 C 0.26017 0.45312 0.03913 0.0
C5646 C 0.22871 0.44702 0.03532 0.0
C5647 C 0.22973 0.46633 0.03493 0.0
C5648 C 0.24629 0.47876 0.0363 0.0
C5649 C 0.26124 0.47232 0.03871 0.0
C5650 C 0.21408 0.47409 0.03457 0.0
C5651 C 0.21567 0.49063 0.0464 0.0
C5652 C 0.19773 0.46562 0.02324 0.0
C5653 C 0.19451 0.44833 0.01009 0.0
C5654 C 0.20485 0.44744 0.9966 0.0
C5655 C 0.20137 0.43121 0.98401 0.0
C5656 C 0.18749 0.41584 0.98465 0.0
C5657 C 0.17704 0.41667 0.99788 0.0
C5658 C 0.1805 0.43282 0.01054 0.0
C5659 C 0.16104 0.5285 0.03268 0.0
C5660 C 0.1449 0.51917 0.03676 0.0
C5661 C 0.17397 0.51914 0.03151 0.0
C5662 C 0.17134 0.50021 0.0346 0.0
C5663 C 0.15504 0.49059 0.03795 0.0
C5664 C 0.14203 0.49995 0.03907 0.0
C5665 C 0.18591 0.49094 0.03533 0.0
C5666 C 0.18396 0.47412 0.0239 0.0
C5667 C 0.20197 0.49905 0.04696 0.0
C5668 C 0.20475 0.51614 0.06025 0.0
C5669 C 0.19379 0.51667 0.07318 0.0
C5670 C 0.19631 0.53295 0.08544 0.0
C5671 C 0.20986 0.54872 0.08501 0.0
C5672 C 0.22093 0.54825 0.07235 0.0
C5673 C 0.21842 0.53203 0.06002 0.0
H5674 H 0.2118 0.56131 0.09452 0.0
H5675 H 0.18479 0.40332 0.97485 0.0
H5676 H 0.86072 0.99693 0.23618 0.0
H5677 H 0.84928 0.96822 0.24942 0.0
H5678 H 0.88957 0.94511 0.2334 0.0
H5679 H 0.90109 0.9737 0.22011 0.0
H5680 H 0.8572 0.92138 0.22296 0.0
H5681 H 0.8922 0.95696 0.27736 0.0
H5682 H 0.90446 0.98466 0.30077 0.0
H5683 H 0.85419 0.98162 0.3139 0.0
H5684 H 0.84159 0.95402 0.29043 0.0
H5685 H 0.81878 0.84046 0.26096 0.0
H5686 H 0.84107 0.86728 0.25533 0.0
H5687 H 0.81306 0.90487 0.27596 0.0
H5688 H 0.79196 0.87788 0.2836 0.0
H5689 H 0.84569 0.92006 0.28663 0.0
H5690 H 0.81048 0.88775 0.22839 0.0
H5691 H 0.79832 0.86177 0.20313 0.0
H5692 H 0.84939 0.86012 0.19575 0.0
H5693 H 0.86184 0.88587 0.22118 0.0
C5694 C 0.86698 0.98563 0.23527 0.0
C5695 C 0.88162 0.98739 0.22693 0.0
C5696 C 0.86065 0.96942 0.24311 0.0
C5697 C 0.86883 0.95481 0.24262 0.0
C5698 C 0.88325 0.95639 0.23403 0.0
C5699 C 0.88968 0.97262 0.22633 0.0
C5700 C 0.86129 0.93719 0.24963 0.0
C5701 C 0.85499 0.9209 0.23699 0.0
C5702 C 0.85841 0.93684 0.26788 0.0
C5703 C 0.86593 0.95346 0.28204 0.0
C5704 C 0.88373 0.96227 0.28514 0.0
C5705 C 0.89075 0.97794 0.29845 0.0
C5706 C 0.88011 0.98491 0.3088 0.0
C5707 C 0.86242 0.9762 0.30588 0.0
C5708 C 0.85534 0.96051 0.2926 0.0
C5709 C 0.81806 0.8545 0.26524 0.0
C5710 C 0.80434 0.8573 0.2735 0.0
C5711 C 0.83043 0.8698 0.2615 0.0
C5712 C 0.82868 0.88811 0.2651 0.0
C5713 C 0.81476 0.89088 0.27322 0.0
C5714 C 0.80266 0.87553 0.27742 0.0
C5715 C 0.84078 0.90437 0.25966 0.0
C5716 C 0.84812 0.92038 0.27267 0.0
C5717 C 0.84461 0.90451 0.24166 0.0
C5718 C 0.83707 0.88851 0.22689 0.0
C5719 C 0.8191 0.88166 0.22155 0.0
C5720 C 0.81216 0.86701 0.20717 0.0
C5721 C 0.82307 0.85924 0.1979 0.0
C5722 C 0.84095 0.86609 0.203 0.0
C5723 C 0.84795 0.88068 0.21741 0.0
H5724 H 0.81767 0.84795 0.18672 0.0
H5725 H 0.88556 0.99704 0.31909 0.0
H5726 H 0.64793 0.05437 0.75371 0.0
H5727 H 0.66692 0.086 0.75518 0.0
H5728 H 0.70389 0.07315 0.7966 0.0
H5729 H 0.68506 0.04144 0.79513 0.0
H5730 H 0.69708 0.10765 0.80463 0.0
H5731 H 0.70901 0.07053 0.75504 0.0
H5732 H 0.70423 0.05033 0.72568 0.0
H5733 H 0.69134 0.09407 0.69673 0.0
H5734 H 0.69485 0.11414 0.72596 0.0
H5735 H 0.76595 0.18874 0.79416 0.0
H5736 H 0.75 0.15635 0.797 0.0
H5737 H 0.70712 0.16162 0.75797 0.0
H5738 H 0.72275 0.19369 0.75527 0.0
H5739 H 0.72006 0.12992 0.74988 0.0
H5740 H 0.70346 0.16451 0.79921 0.0
H5741 H 0.70866 0.18544 0.82826 0.0
H5742 H 0.73115 0.14682 0.85664 0.0
H5743 H 0.72653 0.1259 0.82762 0.0
C5744 C 0.65999 0.05841 0.76332 0.0
C5745 C 0.66511 0.04559 0.77434 0.0
C5746 C 0.67084 0.07634 0.764 0.0
C5747 C 0.68678 0.08161 0.77581 0.0
C5748 C 0.69162 0.06912 0.78734 0.0
C5749 C 0.68089 0.05112 0.78651 0.0
C5750 C 0.69843 0.10027 0.77628 0.0
C5751 C 0.70232 0.11247 0.79274 0.0
C5752 C 0.70496 0.10636 0.76056 0.0
C5753 C 0.70192 0.09381 0.7429 0.0
C5754 C 0.70468 0.07572 0.74251 0.0
C5755 C 0.7022 0.06426 0.72583 0.0
C5756 C 0.69736 0.07086 0.70935 0.0
C5757 C 0.69496 0.08892 0.70952 0.0
C5758 C 0.69705 0.10028 0.72617 0.0
C5759 C 0.75303 0.18293 0.78645 0.0
C5760 C 0.74539 0.1935 0.77464 0.0
C5761 C 0.74401 0.1646 0.78806 0.0
C5762 C 0.72751 0.15685 0.77764 0.0
C5763 C 0.71987 0.16753 0.76607 0.0
C5764 C 0.72871 0.18579 0.76467 0.0
C5765 C 0.71822 0.1373 0.778 0.0
C5766 C 0.71485 0.12494 0.76173 0.0
C5767 C 0.71204 0.13109 0.79376 0.0
C5768 C 0.71494 0.14379 0.81116 0.0
C5769 C 0.70977 0.16061 0.81157 0.0
C5770 C 0.71257 0.17246 0.82805 0.0
C5771 C 0.7203 0.16751 0.84427 0.0
C5772 C 0.72523 0.15069 0.84405 0.0
C5773 C 0.72256 0.13885 0.82758 0.0
H5774 H 0.72242 0.17668 0.85703 0.0
H5775 H 0.69556 0.06202 0.69645 0.0
loop_
_geom_bond_atom_site_label_1
_geom_bond_atom_site_label_2
_geom_bond_distance
_geom_bond_site_symmetry_2
_ccdc_geom_bond_type
O0 Cd1 2.223 1_655 S
O0 C8 1.315 1_655 S
Cd1 O0 2.223 1_455 S
Cd1 O4 2.297 . S
Cd1 O5 2.439 . S
Cd1 O11 2.240 1_455 S
Cd2 O3 2.240 . S
Cd2 O10 2.223 1_455 S
Cd2 O12 2.297 1_455 S
Cd2 O13 2.439 . S
O3 Cd2 2.240 . S
O3 C8 1.279 . S
O4 Cd1 2.297 . S
O4 C6 1.247 . S
O5 Cd1 2.439 . S
O5 C6 1.208 . S
C6 O4 1.247 . S
C6 O5 1.208 . S
C7 O12 1.247 1_455 S
C7 O13 1.208 . S
C8 O0 1.315 1_455 S
C8 O3 1.279 . S
C9 O10 1.315 . S
C9 O11 1.279 . S
O10 Cd2 2.223 1_655 S
O10 C9 1.315 . S
O11 Cd1 2.240 1_655 S
O11 C9 1.279 . S
O12 Cd2 2.297 1_655 S
O12 C7 1.247 1_655 S
O13 Cd2 2.439 . S
O13 C7 1.208 . S
O14 Cd15 2.223 . S
O14 C22 1.315 . S
Cd15 O14 2.223 . S
Cd15 O18 2.297 . S
Cd15 O19 2.439 . S
Cd15 O25 2.240 . S
Cd16 O17 2.240 . S
Cd16 O24 2.223 . S
Cd16 O26 2.297 . S
Cd16 O27 2.439 . S
O17 Cd16 2.240 . S
O17 C22 1.279 . S
O18 Cd15 2.297 . S
O18 C20 1.247 . S
O19 Cd15 2.439 . S
O19 C20 1.208 . S
C20 O18 1.247 . S
C20 O19 1.208 . S
C21 O26 1.247 . S
C21 O27 1.208 . S
C22 O14 1.315 . S
C22 O17 1.279 . S
C23 O24 1.315 . S
C23 O25 1.279 . S
O24 Cd16 2.223 . S
O24 C23 1.315 . S
O25 Cd15 2.240 . S
O25 C23 1.279 . S
O26 Cd16 2.297 . S
O26 C21 1.247 . S
O27 Cd16 2.439 . S
O27 C21 1.208 . S
O28 Cd29 2.223 . S
O28 C36 1.315 . S
Cd29 O28 2.223 . S
Cd29 O32 2.297 . S
Cd29 O33 2.439 . S
Cd29 O39 2.240 . S
Cd30 O31 2.240 . S
Cd30 O38 2.223 . S
Cd30 O40 2.297 . S
Cd30 O41 2.439 . S
O31 Cd30 2.240 . S
O31 C36 1.279 . S
O32 Cd29 2.297 . S
O32 C34 1.247 . S
O33 Cd29 2.439 . S
O33 C34 1.208 . S
C34 O32 1.247 . S
C34 O33 1.208 . S
C35 O40 1.247 . S
C35 O41 1.208 . S
C36 O28 1.315 . S
C36 O31 1.279 . S
C37 O38 1.315 . S
C37 O39 1.279 . S
O38 Cd30 2.223 . S
O38 C37 1.315 . S
O39 Cd29 2.240 . S
O39 C37 1.279 . S
O40 Cd30 2.297 . S
O40 C35 1.247 . S
O41 Cd30 2.439 . S
O41 C35 1.208 . S
O42 Cd43 2.223 . S
O42 C50 1.315 . S
Cd43 O42 2.223 . S
Cd43 O46 2.297 . S
Cd43 O47 2.439 . S
Cd43 O53 2.240 . S
Cd44 O45 2.240 . S
Cd44 O52 2.223 . S
Cd44 O54 2.297 . S
Cd44 O55 2.439 . S
O45 Cd44 2.240 . S
O45 C50 1.279 . S
O46 Cd43 2.297 . S
O46 C48 1.247 . S
O47 Cd43 2.439 . S
O47 C48 1.208 . S
C48 O46 1.247 . S
C48 O47 1.208 . S
C49 O54 1.247 . S
C49 O55 1.208 . S
C50 O42 1.315 . S
C50 O45 1.279 . S
C51 O52 1.315 . S
C51 O53 1.279 . S
O52 Cd44 2.223 . S
O52 C51 1.315 . S
O53 Cd43 2.240 . S
O53 C51 1.279 . S
O54 Cd44 2.297 . S
O54 C49 1.247 . S
O55 Cd44 2.439 . S
O55 C49 1.208 . S
O56 Cd57 2.223 . S
O56 C64 1.315 . S
Cd57 O56 2.223 . S
Cd57 O60 2.297 . S
Cd57 O61 2.439 . S
Cd57 O67 2.240 . S
Cd58 O59 2.240 . S
Cd58 O66 2.223 . S
Cd58 O68 2.297 . S
Cd58 O69 2.439 . S
O59 Cd58 2.240 . S
O59 C64 1.279 . S
O60 Cd57 2.297 . S
O60 C62 1.247 . S
O61 Cd57 2.439 . S
O61 C62 1.208 . S
C62 O60 1.247 . S
C62 O61 1.208 . S
C63 O68 1.247 . S
C63 O69 1.208 . S
C64 O56 1.315 . S
C64 O59 1.279 . S
C65 O66 1.315 . S
C65 O67 1.279 . S
O66 Cd58 2.223 . S
O66 C65 1.315 . S
O67 Cd57 2.240 . S
O67 C65 1.279 . S
O68 Cd58 2.297 . S
O68 C63 1.247 . S
O69 Cd58 2.439 . S
O69 C63 1.208 . S
O70 Cd71 2.223 . S
O70 C78 1.315 . S
Cd71 O70 2.223 . S
Cd71 O74 2.297 . S
Cd71 O75 2.439 . S
Cd71 O81 2.240 . S
Cd72 O73 2.240 . S
Cd72 O80 2.223 . S
Cd72 O82 2.297 . S
Cd72 O83 2.439 . S
O73 Cd72 2.240 . S
O73 C78 1.279 . S
O74 Cd71 2.297 . S
O74 C76 1.247 . S
O75 Cd71 2.439 . S
O75 C76 1.208 . S
C76 O74 1.247 . S
C76 O75 1.208 . S
C77 O82 1.247 . S
C77 O83 1.208 . S
C78 O70 1.315 . S
C78 O73 1.279 . S
C79 O80 1.315 . S
C79 O81 1.279 . S
O80 Cd72 2.223 . S
O80 C79 1.315 . S
O81 Cd71 2.240 . S
O81 C79 1.279 . S
O82 Cd72 2.297 . S
O82 C77 1.247 . S
O83 Cd72 2.439 . S
O83 C77 1.208 . S
O84 Cd85 2.223 . S
O84 C92 1.315 . S
Cd85 O84 2.223 . S
Cd85 O88 2.297 . S
Cd85 O89 2.439 . S
Cd85 O95 2.240 . S
Cd86 O87 2.240 . S
Cd86 O94 2.223 . S
Cd86 O96 2.297 . S
Cd86 O97 2.439 . S
O87 Cd86 2.240 . S
O87 C92 1.279 . S
O88 Cd85 2.297 . S
O88 C90 1.247 . S
O89 Cd85 2.439 . S
O89 C90 1.208 . S
C90 O88 1.247 . S
C90 O89 1.208 . S
C91 O96 1.247 . S
C91 O97 1.208 . S
C92 O84 1.315 . S
C92 O87 1.279 . S
C93 O94 1.315 . S
C93 O95 1.279 . S
O94 Cd86 2.223 . S
O94 C93 1.315 . S
O95 Cd85 2.240 . S
O95 C93 1.279 . S
O96 Cd86 2.297 . S
O96 C91 1.247 . S
O97 Cd86 2.439 . S
O97 C91 1.208 . S
O98 Cd99 2.223 . S
O98 C106 1.315 . S
Cd99 O98 2.223 . S
Cd99 O102 2.297 . S
Cd99 O103 2.439 . S
Cd99 O109 2.240 . S
Cd100 O101 2.240 . S
Cd100 O108 2.223 1_455 S
Cd100 O110 2.297 . S
Cd100 O111 2.439 . S
O101 Cd100 2.240 . S
O101 C106 1.279 . S
O102 Cd99 2.297 . S
O102 C104 1.247 . S
O103 Cd99 2.439 . S
O103 C104 1.208 . S
C104 O102 1.247 . S
C104 O103 1.208 . S
C105 O110 1.247 . S
C105 O111 1.208 . S
C106 O98 1.315 . S
C106 O101 1.279 . S
C107 O108 1.315 . S
C107 O109 1.279 1_655 S
O108 Cd100 2.223 1_655 S
O108 C107 1.315 . S
O109 Cd99 2.240 . S
O109 C107 1.279 1_455 S
O110 Cd100 2.297 . S
O110 C105 1.247 . S
O111 Cd100 2.439 . S
O111 C105 1.208 . S
O112 Cd113 2.223 . S
O112 C120 1.315 . S
Cd113 O112 2.223 . S
Cd113 O116 2.297 . S
Cd113 O117 2.439 . S
Cd113 O123 2.240 . S
Cd114 O115 2.240 . S
Cd114 O122 2.223 . S
Cd114 O124 2.297 . S
Cd114 O125 2.439 . S
O115 Cd114 2.240 . S
O115 C120 1.279 . S
O116 Cd113 2.297 . S
O116 C118 1.247 . S
O117 Cd113 2.439 . S
O117 C118 1.208 . S
C118 O116 1.247 . S
C118 O117 1.208 . S
C119 O124 1.247 . S
C119 O125 1.208 . S
C120 O112 1.315 . S
C120 O115 1.279 . S
C121 O122 1.315 . S
C121 O123 1.279 . S
O122 Cd114 2.223 . S
O122 C121 1.315 . S
O123 Cd113 2.240 . S
O123 C121 1.279 . S
O124 Cd114 2.297 . S
O124 C119 1.247 . S
O125 Cd114 2.439 . S
O125 C119 1.208 . S
O126 Cd127 2.223 . S
O126 C134 1.315 . S
Cd127 O126 2.223 . S
Cd127 O130 2.297 . S
Cd127 O131 2.439 . S
Cd127 O137 2.240 . S
Cd128 O129 2.240 . S
Cd128 O136 2.223 . S
Cd128 O138 2.297 . S
Cd128 O139 2.439 . S
O129 Cd128 2.240 . S
O129 C134 1.279 . S
O130 Cd127 2.297 . S
O130 C132 1.247 . S
O131 Cd127 2.439 . S
O131 C132 1.208 . S
C132 O130 1.247 . S
C132 O131 1.208 . S
C133 O138 1.247 . S
C133 O139 1.208 . S
C134 O126 1.315 . S
C134 O129 1.279 . S
C135 O136 1.315 . S
C135 O137 1.279 . S
O136 Cd128 2.223 . S
O136 C135 1.315 . S
O137 Cd127 2.240 . S
O137 C135 1.279 . S
O138 Cd128 2.297 . S
O138 C133 1.247 . S
O139 Cd128 2.439 . S
O139 C133 1.208 . S
O140 Cd141 2.223 . S
O140 C148 1.315 . S
Cd141 O140 2.223 . S
Cd141 O144 2.297 . S
Cd141 O145 2.439 . S
Cd141 O151 2.240 . S
Cd142 O143 2.240 . S
Cd142 O150 2.223 . S
Cd142 O152 2.297 . S
Cd142 O153 2.439 . S
O143 Cd142 2.240 . S
O143 C148 1.279 . S
O144 Cd141 2.297 . S
O144 C146 1.247 . S
O145 Cd141 2.439 . S
O145 C146 1.208 . S
C146 O144 1.247 . S
C146 O145 1.208 . S
C147 O152 1.247 . S
C147 O153 1.208 . S
C148 O140 1.315 . S
C148 O143 1.279 . S
C149 O150 1.315 . S
C149 O151 1.279 . S
O150 Cd142 2.223 . S
O150 C149 1.315 . S
O151 Cd141 2.240 . S
O151 C149 1.279 . S
O152 Cd142 2.297 . S
O152 C147 1.247 . S
O153 Cd142 2.439 . S
O153 C147 1.208 . S
O154 Cd155 2.223 . S
O154 C162 1.315 . S
Cd155 O154 2.223 . S
Cd155 O158 2.297 . S
Cd155 O159 2.439 . S
Cd155 O165 2.240 . S
Cd156 O157 2.240 . S
Cd156 O164 2.223 . S
Cd156 O166 2.297 . S
Cd156 O167 2.439 . S
O157 Cd156 2.240 . S
O157 C162 1.279 . S
O158 Cd155 2.297 . S
O158 C160 1.247 . S
O159 Cd155 2.439 . S
O159 C160 1.208 . S
C160 O158 1.247 . S
C160 O159 1.208 . S
C161 O166 1.247 . S
C161 O167 1.208 . S
C162 O154 1.315 . S
C162 O157 1.279 . S
C163 O164 1.315 . S
C163 O165 1.279 . S
O164 Cd156 2.223 . S
O164 C163 1.315 . S
O165 Cd155 2.240 . S
O165 C163 1.279 . S
O166 Cd156 2.297 . S
O166 C161 1.247 . S
O167 Cd156 2.439 . S
O167 C161 1.208 . S
O168 Cd169 2.223 . S
O168 C176 1.315 . S
Cd169 O168 2.223 . S
Cd169 O172 2.297 . S
Cd169 O173 2.439 . S
Cd169 O179 2.240 . S
Cd170 O171 2.240 . S
Cd170 O178 2.223 . S
Cd170 O180 2.297 1_554 S
Cd170 O181 2.439 1_554 S
O171 Cd170 2.240 . S
O171 C176 1.279 . S
O172 Cd169 2.297 . S
O172 C174 1.247 . S
O173 Cd169 2.439 . S
O173 C174 1.208 . S
C174 O172 1.247 . S
C174 O173 1.208 . S
C175 O180 1.247 . S
C175 O181 1.208 . S
C176 O168 1.315 . S
C176 O171 1.279 . S
C177 O178 1.315 . S
C177 O179 1.279 . S
O178 Cd170 2.223 . S
O178 C177 1.315 . S
O179 Cd169 2.240 . S
O179 C177 1.279 . S
O180 Cd170 2.297 1_556 S
O180 C175 1.247 . S
O181 Cd170 2.439 1_556 S
O181 C175 1.208 . S
O182 Cd183 2.223 . S
O182 C190 1.315 . S
Cd183 O182 2.223 . S
Cd183 O186 2.297 . S
Cd183 O187 2.439 1_554 S
Cd183 O193 2.240 1_554 S
Cd184 O185 2.240 1_556 S
Cd184 O192 2.223 1_556 S
Cd184 O194 2.297 . S
Cd184 O195 2.439 . S
O185 Cd184 2.240 1_554 S
O185 C190 1.279 . S
O186 Cd183 2.297 . S
O186 C188 1.247 . S
O187 Cd183 2.439 1_556 S
O187 C188 1.208 1_556 S
C188 O186 1.247 . S
C188 O187 1.208 1_554 S
C189 O194 1.247 . S
C189 O195 1.208 . S
C190 O182 1.315 . S
C190 O185 1.279 . S
C191 O192 1.315 1_556 S
C191 O193 1.279 . S
O192 Cd184 2.223 1_554 S
O192 C191 1.315 1_554 S
O193 Cd183 2.240 1_556 S
O193 C191 1.279 . S
O194 Cd184 2.297 . S
O194 C189 1.247 . S
O195 Cd184 2.439 . S
O195 C189 1.208 . S
O196 Cd197 2.223 . S
O196 C204 1.315 . S
Cd197 O196 2.223 . S
Cd197 O200 2.297 . S
Cd197 O201 2.439 . S
Cd197 O207 2.240 . S
Cd198 O199 2.240 . S
Cd198 O206 2.223 . S
Cd198 O208 2.297 . S
Cd198 O209 2.439 . S
O199 Cd198 2.240 . S
O199 C204 1.279 . S
O200 Cd197 2.297 . S
O200 C202 1.247 . S
O201 Cd197 2.439 . S
O201 C202 1.208 . S
C202 O200 1.247 . S
C202 O201 1.208 . S
C203 O208 1.247 . S
C203 O209 1.208 . S
C204 O196 1.315 . S
C204 O199 1.279 . S
C205 O206 1.315 . S
C205 O207 1.279 . S
O206 Cd198 2.223 . S
O206 C205 1.315 . S
O207 Cd197 2.240 . S
O207 C205 1.279 . S
O208 Cd198 2.297 . S
O208 C203 1.247 . S
O209 Cd198 2.439 . S
O209 C203 1.208 . S
O210 Cd211 2.223 . S
O210 C218 1.315 . S
Cd211 O210 2.223 . S
Cd211 O214 2.297 . S
Cd211 O215 2.439 . S
Cd211 O221 2.240 . S
Cd212 O213 2.240 . S
Cd212 O220 2.223 . S
Cd212 O222 2.297 . S
Cd212 O223 2.439 . S
O213 Cd212 2.240 . S
O213 C218 1.279 . S
O214 Cd211 2.297 . S
O214 C216 1.247 . S
O215 Cd211 2.439 . S
O215 C216 1.208 . S
C216 O214 1.247 . S
C216 O215 1.208 . S
C217 O222 1.247 . S
C217 O223 1.208 . S
C218 O210 1.315 . S
C218 O213 1.279 . S
C219 O220 1.315 . S
C219 O221 1.279 . S
O220 Cd212 2.223 . S
O220 C219 1.315 . S
O221 Cd211 2.240 . S
O221 C219 1.279 . S
O222 Cd212 2.297 . S
O222 C217 1.247 . S
O223 Cd212 2.439 . S
O223 C217 1.208 . S
O224 Cd225 2.223 . S
O224 C232 1.315 . S
Cd225 O224 2.223 . S
Cd225 O228 2.297 . S
Cd225 O229 2.439 . S
Cd225 O235 2.240 . S
Cd226 O227 2.240 . S
Cd226 O234 2.223 . S
Cd226 O236 2.297 . S
Cd226 O237 2.439 . S
O227 Cd226 2.240 . S
O227 C232 1.279 . S
O228 Cd225 2.297 . S
O228 C230 1.247 . S
O229 Cd225 2.439 . S
O229 C230 1.208 . S
C230 O228 1.247 . S
C230 O229 1.208 . S
C231 O236 1.247 . S
C231 O237 1.208 . S
C232 O224 1.315 . S
C232 O227 1.279 . S
C233 O234 1.315 . S
C233 O235 1.279 . S
O234 Cd226 2.223 . S
O234 C233 1.315 . S
O235 Cd225 2.240 . S
O235 C233 1.279 . S
O236 Cd226 2.297 . S
O236 C231 1.247 . S
O237 Cd226 2.439 . S
O237 C231 1.208 . S
O238 Cd239 2.223 . S
O238 C246 1.315 . S
Cd239 O238 2.223 . S
Cd239 O242 2.297 . S
Cd239 O243 2.439 . S
Cd239 O249 2.240 . S
Cd240 O241 2.240 . S
Cd240 O248 2.223 . S
Cd240 O250 2.297 . S
Cd240 O251 2.439 . S
O241 Cd240 2.240 . S
O241 C246 1.279 . S
O242 Cd239 2.297 . S
O242 C244 1.247 . S
O243 Cd239 2.439 . S
O243 C244 1.208 . S
C244 O242 1.247 . S
C244 O243 1.208 . S
C245 O250 1.247 . S
C245 O251 1.208 . S
C246 O238 1.315 . S
C246 O241 1.279 . S
C247 O248 1.315 . S
C247 O249 1.279 . S
O248 Cd240 2.223 . S
O248 C247 1.315 . S
O249 Cd239 2.240 . S
O249 C247 1.279 . S
O250 Cd240 2.297 . S
O250 C245 1.247 . S
O251 Cd240 2.439 . S
O251 C245 1.208 . S
O252 Cd253 2.223 . S
O252 C260 1.315 . S
Cd253 O252 2.223 . S
Cd253 O256 2.297 . S
Cd253 O257 2.439 . S
Cd253 O263 2.240 . S
Cd254 O255 2.240 . S
Cd254 O262 2.223 . S
Cd254 O264 2.297 . S
Cd254 O265 2.439 . S
O255 Cd254 2.240 . S
O255 C260 1.279 . S
O256 Cd253 2.297 . S
O256 C258 1.247 . S
O257 Cd253 2.439 . S
O257 C258 1.208 . S
C258 O256 1.247 . S
C258 O257 1.208 . S
C259 O264 1.247 . S
C259 O265 1.208 . S
C260 O252 1.315 . S
C260 O255 1.279 . S
C261 O262 1.315 . S
C261 O263 1.279 . S
O262 Cd254 2.223 . S
O262 C261 1.315 . S
O263 Cd253 2.240 . S
O263 C261 1.279 . S
O264 Cd254 2.297 . S
O264 C259 1.247 . S
O265 Cd254 2.439 . S
O265 C259 1.208 . S
O266 Cd267 2.223 1_545 S
O266 C274 1.315 1_545 S
Cd267 O266 2.223 1_565 S
Cd267 O270 2.297 . S
Cd267 O271 2.439 . S
Cd267 O277 2.240 1_565 S
Cd268 O269 2.240 1_545 S
Cd268 O276 2.223 . S
Cd268 O278 2.297 . S
Cd268 O279 2.439 1_545 S
O269 Cd268 2.240 1_565 S
O269 C274 1.279 . S
O270 Cd267 2.297 . S
O270 C272 1.247 . S
O271 Cd267 2.439 . S
O271 C272 1.208 . S
C272 O270 1.247 . S
C272 O271 1.208 . S
C273 O278 1.247 . S
C273 O279 1.208 1_545 S
C274 O266 1.315 1_565 S
C274 O269 1.279 . S
C275 O276 1.315 . S
C275 O277 1.279 . S
O276 Cd268 2.223 . S
O276 C275 1.315 . S
O277 Cd267 2.240 1_545 S
O277 C275 1.279 . S
O278 Cd268 2.297 . S
O278 C273 1.247 . S
O279 Cd268 2.439 1_565 S
O279 C273 1.208 1_565 S
O280 Cd281 2.223 . S
O280 C288 1.315 . S
Cd281 O280 2.223 . S
Cd281 O284 2.297 . S
Cd281 O285 2.439 . S
Cd281 O291 2.240 . S
Cd282 O283 2.240 . S
Cd282 O290 2.223 . S
Cd282 O292 2.297 1_554 S
Cd282 O293 2.441 . S
O283 Cd282 2.240 . S
O283 C288 1.279 . S
O284 Cd281 2.297 . S
O284 C286 1.247 . S
O285 Cd281 2.439 . S
O285 C286 1.208 . S
C286 O284 1.247 . S
C286 O285 1.208 . S
C287 O292 1.247 . S
C287 O293 1.207 1_556 S
C288 O280 1.315 . S
C288 O283 1.279 . S
C289 O290 1.315 . S
C289 O291 1.279 . S
O290 Cd282 2.223 . S
O290 C289 1.315 . S
O291 Cd281 2.240 . S
O291 C289 1.279 . S
O292 Cd282 2.297 1_556 S
O292 C287 1.247 . S
O293 Cd282 2.441 . S
O293 C287 1.207 1_554 S
O294 Cd295 2.223 . S
O294 C302 1.315 . S
Cd295 O294 2.223 . S
Cd295 O298 2.297 . S
Cd295 O299 2.439 . S
Cd295 O305 2.240 . S
Cd296 O297 2.240 . S
Cd296 O304 2.223 . S
Cd296 O306 2.297 . S
Cd296 O307 2.439 . S
O297 Cd296 2.240 . S
O297 C302 1.279 . S
O298 Cd295 2.297 . S
O298 C300 1.247 . S
O299 Cd295 2.439 . S
O299 C300 1.208 . S
C300 O298 1.247 . S
C300 O299 1.208 . S
C301 O306 1.247 . S
C301 O307 1.208 . S
C302 O294 1.315 . S
C302 O297 1.279 . S
C303 O304 1.315 . S
C303 O305 1.279 . S
O304 Cd296 2.223 . S
O304 C303 1.315 . S
O305 Cd295 2.240 . S
O305 C303 1.279 . S
O306 Cd296 2.297 . S
O306 C301 1.247 . S
O307 Cd296 2.439 . S
O307 C301 1.208 . S
O308 Cd309 2.223 . S
O308 C316 1.315 . S
Cd309 O308 2.223 . S
Cd309 O312 2.297 . S
Cd309 O313 2.439 . S
Cd309 O319 2.240 . S
Cd310 O311 2.240 . S
Cd310 O318 2.223 . S
Cd310 O320 2.297 . S
Cd310 O321 2.439 . S
O311 Cd310 2.240 . S
O311 C316 1.279 . S
O312 Cd309 2.297 . S
O312 C314 1.247 . S
O313 Cd309 2.439 . S
O313 C314 1.208 . S
C314 O312 1.247 . S
C314 O313 1.208 . S
C315 O320 1.247 . S
C315 O321 1.208 . S
C316 O308 1.315 . S
C316 O311 1.279 . S
C317 O318 1.315 . S
C317 O319 1.279 . S
O318 Cd310 2.223 . S
O318 C317 1.315 . S
O319 Cd309 2.240 . S
O319 C317 1.279 . S
O320 Cd310 2.297 . S
O320 C315 1.247 . S
O321 Cd310 2.439 . S
O321 C315 1.208 . S
O322 Cd323 2.223 . S
O322 C330 1.315 . S
Cd323 O322 2.223 . S
Cd323 O326 2.297 . S
Cd323 O327 2.439 . S
Cd323 O333 2.240 . S
Cd324 O325 2.240 . S
Cd324 O332 2.223 . S
Cd324 O334 2.297 . S
Cd324 O335 2.439 . S
O325 Cd324 2.240 . S
O325 C330 1.279 . S
O326 Cd323 2.297 . S
O326 C328 1.247 . S
O327 Cd323 2.439 . S
O327 C328 1.208 . S
C328 O326 1.247 . S
C328 O327 1.208 . S
C329 O334 1.247 . S
C329 O335 1.208 . S
C330 O322 1.315 . S
C330 O325 1.279 . S
C331 O332 1.315 . S
C331 O333 1.279 . S
O332 Cd324 2.223 . S
O332 C331 1.315 . S
O333 Cd323 2.240 . S
O333 C331 1.279 . S
O334 Cd324 2.297 . S
O334 C329 1.247 . S
O335 Cd324 2.439 . S
O335 C329 1.208 . S
Pr336 C338 2.880 1_455 S
Pr336 O356 2.562 1_455 S
Pr336 O357 2.490 1_455 S
Pr336 O358 2.695 . S
Pr336 O359 2.512 1_554 S
Pr336 O361 2.437 . S
Pr336 O364 2.436 . S
Pr336 O366 2.438 . S
Pr337 C347 2.880 . S
Pr337 O358 2.436 . S
Pr337 O360 2.438 . S
Pr337 O362 2.562 . S
Pr337 O363 2.490 . S
Pr337 O364 2.695 . S
Pr337 O365 2.512 . S
Pr337 O367 2.437 . S
C338 Pr336 2.880 1_655 S
C338 C339 1.491 . S
C338 O356 1.254 . S
C338 O357 1.225 . S
C339 C338 1.491 . S
C339 C340 1.392 1_554 S
C339 C344 1.356 . S
C340 C339 1.392 1_556 S
C340 C341 1.368 . S
C340 H368 0.929 . S
C341 C340 1.368 . S
C341 C342 1.386 . S
C341 H369 0.929 . S
C342 C341 1.386 . S
C342 C343 1.373 1_556 S
C343 C342 1.373 1_554 S
C343 C344 1.409 . S
C343 H370 0.931 . S
C344 C339 1.356 . S
C344 C343 1.409 . S
C344 H371 0.930 . S
C345 O358 1.270 . S
C345 O359 1.248 1_554 S
C346 O360 1.267 . S
C346 O361 1.278 . S
C347 Pr337 2.880 . S
C347 C348 1.491 . S
C347 O362 1.254 . S
C347 O363 1.225 . S
C348 C347 1.491 . S
C348 C349 1.392 . S
C348 C353 1.356 . S
C349 C348 1.392 . S
C349 C350 1.368 . S
C349 H372 0.929 . S
C350 C349 1.368 . S
C350 C351 1.386 . S
C350 H373 0.929 . S
C351 C350 1.386 . S
C351 C352 1.373 . S
C352 C351 1.373 . S
C352 C353 1.409 . S
C352 H374 0.931 . S
C353 C348 1.356 . S
C353 C352 1.409 . S
C353 H375 0.930 . S
C354 O364 1.270 . S
C354 O365 1.248 . S
C355 O366 1.267 . S
C355 O367 1.278 . S
O356 Pr336 2.562 1_655 S
O356 C338 1.254 . S
O357 Pr336 2.490 1_655 S
O357 C338 1.225 . S
O358 Pr336 2.695 . S
O358 Pr337 2.436 . S
O358 C345 1.270 . S
O359 Pr336 2.512 1_556 S
O359 C345 1.248 1_556 S
O360 Pr337 2.438 . S
O360 C346 1.267 . S
O361 Pr336 2.437 . S
O361 C346 1.278 . S
O362 Pr337 2.562 . S
O362 C347 1.254 . S
O363 Pr337 2.490 . S
O363 C347 1.225 . S
O364 Pr336 2.436 . S
O364 Pr337 2.695 . S
O364 C354 1.270 . S
O365 Pr337 2.512 . S
O365 C354 1.248 . S
O366 Pr336 2.438 . S
O366 C355 1.267 . S
O367 Pr337 2.437 . S
O367 C355 1.278 . S
H368 C340 0.929 . S
H369 C341 0.929 . S
H370 C343 0.931 . S
H371 C344 0.930 . S
H372 C349 0.929 . S
H373 C350 0.929 . S
H374 C352 0.931 . S
H375 C353 0.930 . S
Pr376 C378 2.880 . S
Pr376 O396 2.562 . S
Pr376 O397 2.490 . S
Pr376 O398 2.695 . S
Pr376 O399 2.512 . S
Pr376 O401 2.437 . S
Pr376 O404 2.436 . S
Pr376 O406 2.438 . S
Pr377 C387 2.880 . S
Pr377 O398 2.436 . S
Pr377 O400 2.438 . S
Pr377 O402 2.562 . S
Pr377 O403 2.490 . S
Pr377 O404 2.695 . S
Pr377 O405 2.512 . S
Pr377 O407 2.437 . S
C378 Pr376 2.880 . S
C378 C379 1.491 . S
C378 O396 1.254 . S
C378 O397 1.225 . S
C379 C378 1.491 . S
C379 C380 1.392 . S
C379 C384 1.356 . S
C380 C379 1.392 . S
C380 C381 1.368 . S
C380 H408 0.929 . S
C381 C380 1.368 . S
C381 C382 1.386 . S
C381 H409 0.929 . S
C382 C381 1.386 . S
C382 C383 1.373 . S
C383 C382 1.373 . S
C383 C384 1.409 . S
C383 H410 0.931 . S
C384 C379 1.356 . S
C384 C383 1.409 . S
C384 H411 0.930 . S
C385 O398 1.270 . S
C385 O399 1.248 . S
C386 O400 1.267 . S
C386 O401 1.278 . S
C387 Pr377 2.880 . S
C387 C388 1.491 . S
C387 O402 1.254 . S
C387 O403 1.225 . S
C388 C387 1.491 . S
C388 C389 1.392 . S
C388 C393 1.356 . S
C389 C388 1.392 . S
C389 C390 1.368 . S
C389 H412 0.929 . S
C390 C389 1.368 . S
C390 C391 1.386 . S
C390 H413 0.929 . S
C391 C390 1.386 . S
C391 C392 1.373 . S
C392 C391 1.373 . S
C392 C393 1.409 . S
C392 H414 0.931 . S
C393 C388 1.356 . S
C393 C392 1.409 . S
C393 H415 0.930 . S
C394 O404 1.270 . S
C394 O405 1.248 . S
C395 O406 1.267 . S
C395 O407 1.278 . S
O396 Pr376 2.562 . S
O396 C378 1.254 . S
O397 Pr376 2.490 . S
O397 C378 1.225 . S
O398 Pr376 2.695 . S
O398 Pr377 2.436 . S
O398 C385 1.270 . S
O399 Pr376 2.512 . S
O399 C385 1.248 . S
O400 Pr377 2.438 . S
O400 C386 1.267 . S
O401 Pr376 2.437 . S
O401 C386 1.278 . S
O402 Pr377 2.562 . S
O402 C387 1.254 . S
O403 Pr377 2.490 . S
O403 C387 1.225 . S
O404 Pr376 2.436 . S
O404 Pr377 2.695 . S
O404 C394 1.270 . S
O405 Pr377 2.512 . S
O405 C394 1.248 . S
O406 Pr376 2.438 . S
O406 C395 1.267 . S
O407 Pr377 2.437 . S
O407 C395 1.278 . S
H408 C380 0.929 . S
H409 C381 0.929 . S
H410 C383 0.931 . S
H411 C384 0.930 . S
H412 C389 0.929 . S
H413 C390 0.929 . S
H414 C392 0.931 . S
H415 C393 0.930 . S
Pr416 C418 2.880 . S
Pr416 O436 2.562 . S
Pr416 O437 2.490 . S
Pr416 O438 2.695 . S
Pr416 O439 2.512 . S
Pr416 O441 2.437 . S
Pr416 O444 2.436 . S
Pr416 O446 2.438 . S
Pr417 C427 2.880 . S
Pr417 O438 2.436 . S
Pr417 O440 2.438 . S
Pr417 O442 2.562 . S
Pr417 O443 2.490 . S
Pr417 O444 2.695 . S
Pr417 O445 2.512 . S
Pr417 O447 2.437 . S
C418 Pr416 2.880 . S
C418 C419 1.491 . S
C418 O436 1.254 . S
C418 O437 1.225 . S
C419 C418 1.491 . S
C419 C420 1.392 . S
C419 C424 1.356 . S
C420 C419 1.392 . S
C420 C421 1.368 . S
C420 H448 0.929 . S
C421 C420 1.368 . S
C421 C422 1.386 . S
C421 H449 0.929 . S
C422 C421 1.386 . S
C422 C423 1.373 . S
C423 C422 1.373 . S
C423 C424 1.409 . S
C423 H450 0.931 . S
C424 C419 1.356 . S
C424 C423 1.409 . S
C424 H451 0.930 . S
C425 O438 1.270 . S
C425 O439 1.248 . S
C426 O440 1.267 . S
C426 O441 1.278 . S
C427 Pr417 2.880 . S
C427 C428 1.491 . S
C427 O442 1.254 . S
C427 O443 1.225 . S
C428 C427 1.491 . S
C428 C429 1.392 . S
C428 C433 1.356 . S
C429 C428 1.392 . S
C429 C430 1.368 . S
C429 H452 0.929 . S
C430 C429 1.368 . S
C430 C431 1.386 . S
C430 H453 0.929 . S
C431 C430 1.386 . S
C431 C432 1.373 . S
C432 C431 1.373 . S
C432 C433 1.409 . S
C432 H454 0.931 . S
C433 C428 1.356 . S
C433 C432 1.409 . S
C433 H455 0.930 . S
C434 O444 1.270 . S
C434 O445 1.248 . S
C435 O446 1.267 . S
C435 O447 1.278 . S
O436 Pr416 2.562 . S
O436 C418 1.254 . S
O437 Pr416 2.490 . S
O437 C418 1.225 . S
O438 Pr416 2.695 . S
O438 Pr417 2.436 . S
O438 C425 1.270 . S
O439 Pr416 2.512 . S
O439 C425 1.248 . S
O440 Pr417 2.438 . S
O440 C426 1.267 . S
O441 Pr416 2.437 . S
O441 C426 1.278 . S
O442 Pr417 2.562 . S
O442 C427 1.254 . S
O443 Pr417 2.490 . S
O443 C427 1.225 . S
O444 Pr416 2.436 . S
O444 Pr417 2.695 . S
O444 C434 1.270 . S
O445 Pr417 2.512 . S
O445 C434 1.248 . S
O446 Pr416 2.438 . S
O446 C435 1.267 . S
O447 Pr417 2.437 . S
O447 C435 1.278 . S
H448 C420 0.929 . S
H449 C421 0.929 . S
H450 C423 0.931 . S
H451 C424 0.930 . S
H452 C429 0.929 . S
H453 C430 0.929 . S
H454 C432 0.931 . S
H455 C433 0.930 . S
Pr456 C458 2.880 . S
Pr456 O476 2.562 . S
Pr456 O477 2.490 . S
Pr456 O478 2.695 . S
Pr456 O479 2.512 . S
Pr456 O481 2.437 . S
Pr456 O484 2.436 . S
Pr456 O486 2.438 . S
Pr457 C467 2.880 . S
Pr457 O478 2.436 . S
Pr457 O480 2.438 . S
Pr457 O482 2.562 . S
Pr457 O483 2.490 . S
Pr457 O484 2.695 . S
Pr457 O485 2.512 . S
Pr457 O487 2.437 . S
C458 Pr456 2.880 . S
C458 C459 1.491 . S
C458 O476 1.254 . S
C458 O477 1.225 . S
C459 C458 1.491 . S
C459 C460 1.392 . S
C459 C464 1.356 . S
C460 C459 1.392 . S
C460 C461 1.368 . S
C460 H488 0.929 . S
C461 C460 1.368 . S
C461 C462 1.386 . S
C461 H489 0.929 . S
C462 C461 1.386 . S
C462 C463 1.373 . S
C463 C462 1.373 . S
C463 C464 1.409 . S
C463 H490 0.931 . S
C464 C459 1.356 . S
C464 C463 1.409 . S
C464 H491 0.930 . S
C465 O478 1.270 . S
C465 O479 1.248 . S
C466 O480 1.267 . S
C466 O481 1.278 . S
C467 Pr457 2.880 . S
C467 C468 1.491 . S
C467 O482 1.254 . S
C467 O483 1.225 . S
C468 C467 1.491 . S
C468 C469 1.392 . S
C468 C473 1.356 . S
C469 C468 1.392 . S
C469 C470 1.368 . S
C469 H492 0.929 . S
C470 C469 1.368 . S
C470 C471 1.386 . S
C470 H493 0.929 . S
C471 C470 1.386 . S
C471 C472 1.373 . S
C472 C471 1.373 . S
C472 C473 1.409 . S
C472 H494 0.931 . S
C473 C468 1.356 . S
C473 C472 1.409 . S
C473 H495 0.930 . S
C474 O484 1.270 . S
C474 O485 1.248 . S
C475 O486 1.267 . S
C475 O487 1.278 . S
O476 Pr456 2.562 . S
O476 C458 1.254 . S
O477 Pr456 2.490 . S
O477 C458 1.225 . S
O478 Pr456 2.695 . S
O478 Pr457 2.436 . S
O478 C465 1.270 . S
O479 Pr456 2.512 . S
O479 C465 1.248 . S
O480 Pr457 2.438 . S
O480 C466 1.267 . S
O481 Pr456 2.437 . S
O481 C466 1.278 . S
O482 Pr457 2.562 . S
O482 C467 1.254 . S
O483 Pr457 2.490 . S
O483 C467 1.225 . S
O484 Pr456 2.436 . S
O484 Pr457 2.695 . S
O484 C474 1.270 . S
O485 Pr457 2.512 . S
O485 C474 1.248 . S
O486 Pr456 2.438 . S
O486 C475 1.267 . S
O487 Pr457 2.437 . S
O487 C475 1.278 . S
H488 C460 0.929 . S
H489 C461 0.929 . S
H490 C463 0.931 . S
H491 C464 0.930 . S
H492 C469 0.929 . S
H493 C470 0.929 . S
H494 C472 0.931 . S
H495 C473 0.930 . S
Pr496 C498 2.880 . S
Pr496 O516 2.562 . S
Pr496 O517 2.490 . S
Pr496 O518 2.695 . S
Pr496 O519 2.512 . S
Pr496 O521 2.437 . S
Pr496 O524 2.436 . S
Pr496 O526 2.438 . S
Pr497 C507 2.880 . S
Pr497 O518 2.436 . S
Pr497 O520 2.438 . S
Pr497 O522 2.562 . S
Pr497 O523 2.490 . S
Pr497 O524 2.695 . S
Pr497 O525 2.512 . S
Pr497 O527 2.437 . S
C498 Pr496 2.880 . S
C498 C499 1.491 . S
C498 O516 1.254 . S
C498 O517 1.225 . S
C499 C498 1.491 . S
C499 C500 1.392 . S
C499 C504 1.356 . S
C500 C499 1.392 . S
C500 C501 1.368 . S
C500 H528 0.929 . S
C501 C500 1.368 . S
C501 C502 1.386 . S
C501 H529 0.929 . S
C502 C501 1.386 . S
C502 C503 1.373 1_455 S
C503 C502 1.373 1_655 S
C503 C504 1.409 1_655 S
C503 H530 0.931 . S
C504 C499 1.356 . S
C504 C503 1.409 1_455 S
C504 H531 0.930 1_455 S
C505 O518 1.270 . S
C505 O519 1.248 . S
C506 O520 1.267 . S
C506 O521 1.278 . S
C507 Pr497 2.880 . S
C507 C508 1.491 . S
C507 O522 1.254 . S
C507 O523 1.225 . S
C508 C507 1.491 . S
C508 C509 1.392 . S
C508 C513 1.356 . S
C509 C508 1.392 . S
C509 C510 1.368 . S
C509 H532 0.929 . S
C510 C509 1.368 . S
C510 C511 1.386 . S
C510 H533 0.929 . S
C511 C510 1.386 . S
C511 C512 1.373 . S
C512 C511 1.373 . S
C512 C513 1.409 . S
C512 H534 0.931 . S
C513 C508 1.356 . S
C513 C512 1.409 . S
C513 H535 0.930 . S
C514 O524 1.270 . S
C514 O525 1.248 . S
C515 O526 1.267 . S
C515 O527 1.278 . S
O516 Pr496 2.562 . S
O516 C498 1.254 . S
O517 Pr496 2.490 . S
O517 C498 1.225 . S
O518 Pr496 2.695 . S
O518 Pr497 2.436 . S
O518 C505 1.270 . S
O519 Pr496 2.512 . S
O519 C505 1.248 . S
O520 Pr497 2.438 . S
O520 C506 1.267 . S
O521 Pr496 2.437 . S
O521 C506 1.278 . S
O522 Pr497 2.562 . S
O522 C507 1.254 . S
O523 Pr497 2.490 . S
O523 C507 1.225 . S
O524 Pr496 2.436 . S
O524 Pr497 2.695 . S
O524 C514 1.270 . S
O525 Pr497 2.512 . S
O525 C514 1.248 . S
O526 Pr496 2.438 . S
O526 C515 1.267 . S
O527 Pr497 2.437 . S
O527 C515 1.278 . S
H528 C500 0.929 . S
H529 C501 0.929 . S
H530 C503 0.931 . S
H531 C504 0.930 1_655 S
H532 C509 0.929 . S
H533 C510 0.929 . S
H534 C512 0.931 . S
H535 C513 0.930 . S
Pr536 C538 2.880 . S
Pr536 O556 2.562 . S
Pr536 O557 2.490 . S
Pr536 O558 2.695 . S
Pr536 O559 2.512 . S
Pr536 O561 2.437 . S
Pr536 O564 2.436 . S
Pr536 O566 2.438 . S
Pr537 C547 2.880 . S
Pr537 O558 2.436 . S
Pr537 O560 2.438 . S
Pr537 O562 2.562 . S
Pr537 O563 2.490 . S
Pr537 O564 2.695 . S
Pr537 O565 2.512 . S
Pr537 O567 2.437 . S
C538 Pr536 2.880 . S
C538 C539 1.491 . S
C538 O556 1.254 . S
C538 O557 1.225 . S
C539 C538 1.491 . S
C539 C540 1.392 . S
C539 C544 1.356 . S
C540 C539 1.392 . S
C540 C541 1.368 . S
C540 H568 0.929 . S
C541 C540 1.368 . S
C541 C542 1.386 . S
C541 H569 0.929 . S
C542 C541 1.386 . S
C542 C543 1.373 . S
C543 C542 1.373 . S
C543 C544 1.409 . S
C543 H570 0.931 . S
C544 C539 1.356 . S
C544 C543 1.409 . S
C544 H571 0.930 . S
C545 O558 1.270 . S
C545 O559 1.248 . S
C546 O560 1.267 . S
C546 O561 1.278 . S
C547 Pr537 2.880 . S
C547 C548 1.491 . S
C547 O562 1.254 . S
C547 O563 1.225 . S
C548 C547 1.491 . S
C548 C549 1.392 . S
C548 C553 1.356 . S
C549 C548 1.392 . S
C549 C550 1.368 . S
C549 H572 0.929 . S
C550 C549 1.368 . S
C550 C551 1.386 . S
C550 H573 0.929 . S
C551 C550 1.386 . S
C551 C552 1.373 . S
C552 C551 1.373 . S
C552 C553 1.409 . S
C552 H574 0.931 . S
C553 C548 1.356 . S
C553 C552 1.409 . S
C553 H575 0.930 . S
C554 O564 1.270 . S
C554 O565 1.248 . S
C555 O566 1.267 . S
C555 O567 1.278 . S
O556 Pr536 2.562 . S
O556 C538 1.254 . S
O557 Pr536 2.490 . S
O557 C538 1.225 . S
O558 Pr536 2.695 . S
O558 Pr537 2.436 . S
O558 C545 1.270 . S
O559 Pr536 2.512 . S
O559 C545 1.248 . S
O560 Pr537 2.438 . S
O560 C546 1.267 . S
O561 Pr536 2.437 . S
O561 C546 1.278 . S
O562 Pr537 2.562 . S
O562 C547 1.254 . S
O563 Pr537 2.490 . S
O563 C547 1.225 . S
O564 Pr536 2.436 . S
O564 Pr537 2.695 . S
O564 C554 1.270 . S
O565 Pr537 2.512 . S
O565 C554 1.248 . S
O566 Pr536 2.438 . S
O566 C555 1.267 . S
O567 Pr537 2.437 . S
O567 C555 1.278 . S
H568 C540 0.929 . S
H569 C541 0.929 . S
H570 C543 0.931 . S
H571 C544 0.930 . S
H572 C549 0.929 . S
H573 C550 0.929 . S
H574 C552 0.931 . S
H575 C553 0.930 . S
Pr576 C578 2.880 . S
Pr576 O596 2.562 . S
Pr576 O597 2.490 . S
Pr576 O598 2.695 . S
Pr576 O599 2.512 . S
Pr576 O601 2.437 . S
Pr576 O604 2.436 . S
Pr576 O606 2.438 . S
Pr577 C587 2.880 1_554 S
Pr577 O598 2.436 . S
Pr577 O600 2.438 . S
Pr577 O602 2.562 1_554 S
Pr577 O603 2.490 1_554 S
Pr577 O604 2.695 . S
Pr577 O605 2.512 . S
Pr577 O607 2.437 . S
C578 Pr576 2.880 . S
C578 C579 1.491 . S
C578 O596 1.254 . S
C578 O597 1.225 . S
C579 C578 1.491 . S
C579 C580 1.392 . S
C579 C584 1.356 . S
C580 C579 1.392 . S
C580 C581 1.368 . S
C580 H608 0.929 . S
C581 C580 1.368 . S
C581 C582 1.386 . S
C581 H609 0.929 . S
C582 C581 1.386 . S
C582 C583 1.373 . S
C583 C582 1.373 . S
C583 C584 1.409 . S
C583 H610 0.931 . S
C584 C579 1.356 . S
C584 C583 1.409 . S
C584 H611 0.930 . S
C585 O598 1.270 . S
C585 O599 1.248 . S
C586 O600 1.267 . S
C586 O601 1.278 . S
C587 Pr577 2.880 1_556 S
C587 C588 1.491 . S
C587 O602 1.254 . S
C587 O603 1.225 . S
C588 C587 1.491 . S
C588 C589 1.392 . S
C588 C593 1.356 . S
C589 C588 1.392 . S
C589 C590 1.368 . S
C589 H612 0.929 . S
C590 C589 1.368 . S
C590 C591 1.386 . S
C590 H613 0.929 . S
C591 C590 1.386 . S
C591 C592 1.373 . S
C592 C591 1.373 . S
C592 C593 1.409 . S
C592 H614 0.931 . S
C593 C588 1.356 . S
C593 C592 1.409 . S
C593 H615 0.930 . S
C594 O604 1.270 . S
C594 O605 1.248 . S
C595 O606 1.267 . S
C595 O607 1.278 . S
O596 Pr576 2.562 . S
O596 C578 1.254 . S
O597 Pr576 2.490 . S
O597 C578 1.225 . S
O598 Pr576 2.695 . S
O598 Pr577 2.436 . S
O598 C585 1.270 . S
O599 Pr576 2.512 . S
O599 C585 1.248 . S
O600 Pr577 2.438 . S
O600 C586 1.267 . S
O601 Pr576 2.437 . S
O601 C586 1.278 . S
O602 Pr577 2.562 1_556 S
O602 C587 1.254 . S
O603 Pr577 2.490 1_556 S
O603 C587 1.225 . S
O604 Pr576 2.436 . S
O604 Pr577 2.695 . S
O604 C594 1.270 . S
O605 Pr577 2.512 . S
O605 C594 1.248 . S
O606 Pr576 2.438 . S
O606 C595 1.267 . S
O607 Pr577 2.437 . S
O607 C595 1.278 . S
H608 C580 0.929 . S
H609 C581 0.929 . S
H610 C583 0.931 . S
H611 C584 0.930 . S
H612 C589 0.929 . S
H613 C590 0.929 . S
H614 C592 0.931 . S
H615 C593 0.930 . S
Pr616 C618 2.880 . S
Pr616 O636 2.562 . S
Pr616 O637 2.490 . S
Pr616 O638 2.695 . S
Pr616 O639 2.512 . S
Pr616 O641 2.437 . S
Pr616 O644 2.436 . S
Pr616 O646 2.438 . S
Pr617 C627 2.880 . S
Pr617 O638 2.436 . S
Pr617 O640 2.438 . S
Pr617 O642 2.562 . S
Pr617 O643 2.490 . S
Pr617 O644 2.695 . S
Pr617 O645 2.512 . S
Pr617 O647 2.437 . S
C618 Pr616 2.880 . S
C618 C619 1.491 . S
C618 O636 1.254 . S
C618 O637 1.225 . S
C619 C618 1.491 . S
C619 C620 1.392 . S
C619 C624 1.356 . S
C620 C619 1.392 . S
C620 C621 1.368 . S
C620 H648 0.929 . S
C621 C620 1.368 . S
C621 C622 1.386 . S
C621 H649 0.929 . S
C622 C621 1.386 . S
C622 C623 1.373 . S
C623 C622 1.373 . S
C623 C624 1.409 . S
C623 H650 0.931 . S
C624 C619 1.356 . S
C624 C623 1.409 . S
C624 H651 0.930 . S
C625 O638 1.270 . S
C625 O639 1.248 . S
C626 O640 1.267 . S
C626 O641 1.278 . S
C627 Pr617 2.880 . S
C627 C628 1.491 . S
C627 O642 1.254 . S
C627 O643 1.225 . S
C628 C627 1.491 . S
C628 C629 1.392 . S
C628 C633 1.356 . S
C629 C628 1.392 . S
C629 C630 1.368 . S
C629 H652 0.929 . S
C630 C629 1.368 . S
C630 C631 1.386 . S
C630 H653 0.929 . S
C631 C630 1.386 . S
C631 C632 1.373 . S
C632 C631 1.373 . S
C632 C633 1.409 . S
C632 H654 0.931 . S
C633 C628 1.356 . S
C633 C632 1.409 . S
C633 H655 0.930 . S
C634 O644 1.270 . S
C634 O645 1.248 . S
C635 O646 1.267 . S
C635 O647 1.278 . S
O636 Pr616 2.562 . S
O636 C618 1.254 . S
O637 Pr616 2.490 . S
O637 C618 1.225 . S
O638 Pr616 2.695 . S
O638 Pr617 2.436 . S
O638 C625 1.270 . S
O639 Pr616 2.512 . S
O639 C625 1.248 . S
O640 Pr617 2.438 . S
O640 C626 1.267 . S
O641 Pr616 2.437 . S
O641 C626 1.278 . S
O642 Pr617 2.562 . S
O642 C627 1.254 . S
O643 Pr617 2.490 . S
O643 C627 1.225 . S
O644 Pr616 2.436 . S
O644 Pr617 2.695 . S
O644 C634 1.270 . S
O645 Pr617 2.512 . S
O645 C634 1.248 . S
O646 Pr616 2.438 . S
O646 C635 1.267 . S
O647 Pr617 2.437 . S
O647 C635 1.278 . S
H648 C620 0.929 . S
H649 C621 0.929 . S
H650 C623 0.931 . S
H651 C624 0.930 . S
H652 C629 0.929 . S
H653 C630 0.929 . S
H654 C632 0.931 . S
H655 C633 0.930 . S
Pr656 C658 2.880 1_554 S
Pr656 O676 2.562 1_554 S
Pr656 O677 2.490 1_554 S
Pr656 O678 2.695 . S
Pr656 O679 2.512 . S
Pr656 O681 2.437 . S
Pr656 O684 2.436 . S
Pr656 O686 2.438 . S
Pr657 C667 2.880 . S
Pr657 O678 2.436 . S
Pr657 O680 2.438 . S
Pr657 O682 2.562 . S
Pr657 O683 2.490 . S
Pr657 O684 2.695 . S
Pr657 O685 2.512 . S
Pr657 O687 2.437 . S
C658 Pr656 2.880 1_556 S
C658 C659 1.491 . S
C658 O676 1.254 . S
C658 O677 1.225 . S
C659 C658 1.491 . S
C659 C660 1.392 . S
C659 C664 1.356 . S
C660 C659 1.392 . S
C660 C661 1.368 . S
C660 H688 0.929 . S
C661 C660 1.368 . S
C661 C662 1.386 . S
C661 H689 0.929 . S
C662 C661 1.386 . S
C662 C663 1.373 . S
C663 C662 1.373 . S
C663 C664 1.409 . S
C663 H690 0.931 . S
C664 C659 1.356 . S
C664 C663 1.409 . S
C664 H691 0.930 . S
C665 O678 1.270 . S
C665 O679 1.248 . S
C666 O680 1.267 . S
C666 O681 1.278 . S
C667 Pr657 2.880 . S
C667 C668 1.491 . S
C667 O682 1.254 . S
C667 O683 1.225 . S
C668 C667 1.491 . S
C668 C669 1.392 . S
C668 C673 1.356 . S
C669 C668 1.392 . S
C669 C670 1.368 . S
C669 H692 0.929 . S
C670 C669 1.368 . S
C670 C671 1.386 . S
C670 H693 0.929 . S
C671 C670 1.386 . S
C671 C672 1.373 . S
C672 C671 1.373 . S
C672 C673 1.409 . S
C672 H694 0.931 . S
C673 C668 1.356 . S
C673 C672 1.409 . S
C673 H695 0.930 . S
C674 O684 1.270 . S
C674 O685 1.248 . S
C675 O686 1.267 . S
C675 O687 1.278 . S
O676 Pr656 2.562 1_556 S
O676 C658 1.254 . S
O677 Pr656 2.490 1_556 S
O677 C658 1.225 . S
O678 Pr656 2.695 . S
O678 Pr657 2.436 . S
O678 C665 1.270 . S
O679 Pr656 2.512 . S
O679 C665 1.248 . S
O680 Pr657 2.438 . S
O680 C666 1.267 . S
O681 Pr656 2.437 . S
O681 C666 1.278 . S
O682 Pr657 2.562 . S
O682 C667 1.254 . S
O683 Pr657 2.490 . S
O683 C667 1.225 . S
O684 Pr656 2.436 . S
O684 Pr657 2.695 . S
O684 C674 1.270 . S
O685 Pr657 2.512 . S
O685 C674 1.248 . S
O686 Pr656 2.438 . S
O686 C675 1.267 . S
O687 Pr657 2.437 . S
O687 C675 1.278 . S
H688 C660 0.929 . S
H689 C661 0.929 . S
H690 C663 0.931 . S
H691 C664 0.930 . S
H692 C669 0.929 . S
H693 C670 0.929 . S
H694 C672 0.931 . S
H695 C673 0.930 . S
Pr696 C698 2.880 . S
Pr696 O716 2.562 . S
Pr696 O717 2.490 . S
Pr696 O718 2.695 . S
Pr696 O719 2.512 . S
Pr696 O721 2.437 . S
Pr696 O724 2.436 . S
Pr696 O726 2.438 . S
Pr697 C707 2.880 . S
Pr697 O718 2.436 . S
Pr697 O720 2.438 . S
Pr697 O722 2.562 . S
Pr697 O723 2.490 . S
Pr697 O724 2.695 . S
Pr697 O725 2.512 . S
Pr697 O727 2.437 . S
C698 Pr696 2.880 . S
C698 C699 1.491 . S
C698 O716 1.254 . S
C698 O717 1.225 . S
C699 C698 1.491 . S
C699 C700 1.392 . S
C699 C704 1.356 . S
C700 C699 1.392 . S
C700 C701 1.368 . S
C700 H728 0.929 . S
C701 C700 1.368 . S
C701 C702 1.386 . S
C701 H729 0.929 . S
C702 C701 1.386 . S
C702 C703 1.373 . S
C703 C702 1.373 . S
C703 C704 1.409 . S
C703 H730 0.931 . S
C704 C699 1.356 . S
C704 C703 1.409 . S
C704 H731 0.930 . S
C705 O718 1.270 . S
C705 O719 1.248 . S
C706 O720 1.267 . S
C706 O721 1.278 . S
C707 Pr697 2.880 . S
C707 C708 1.491 . S
C707 O722 1.254 . S
C707 O723 1.225 . S
C708 C707 1.491 . S
C708 C709 1.392 . S
C708 C713 1.356 . S
C709 C708 1.392 . S
C709 C710 1.368 . S
C709 H732 0.929 . S
C710 C709 1.368 . S
C710 C711 1.386 . S
C710 H733 0.929 . S
C711 C710 1.386 . S
C711 C712 1.373 . S
C712 C711 1.373 . S
C712 C713 1.409 . S
C712 H734 0.931 . S
C713 C708 1.356 . S
C713 C712 1.409 . S
C713 H735 0.930 . S
C714 O724 1.270 . S
C714 O725 1.248 . S
C715 O726 1.267 . S
C715 O727 1.278 . S
O716 Pr696 2.562 . S
O716 C698 1.254 . S
O717 Pr696 2.490 . S
O717 C698 1.225 . S
O718 Pr696 2.695 . S
O718 Pr697 2.436 . S
O718 C705 1.270 . S
O719 Pr696 2.512 . S
O719 C705 1.248 . S
O720 Pr697 2.438 . S
O720 C706 1.267 . S
O721 Pr696 2.437 . S
O721 C706 1.278 . S
O722 Pr697 2.562 . S
O722 C707 1.254 . S
O723 Pr697 2.490 . S
O723 C707 1.225 . S
O724 Pr696 2.436 . S
O724 Pr697 2.695 . S
O724 C714 1.270 . S
O725 Pr697 2.512 . S
O725 C714 1.248 . S
O726 Pr696 2.438 . S
O726 C715 1.267 . S
O727 Pr697 2.437 . S
O727 C715 1.278 . S
H728 C700 0.929 . S
H729 C701 0.929 . S
H730 C703 0.931 . S
H731 C704 0.930 . S
H732 C709 0.929 . S
H733 C710 0.929 . S
H734 C712 0.931 . S
H735 C713 0.930 . S
Pr736 C738 2.880 . S
Pr736 O756 2.562 . S
Pr736 O757 2.490 . S
Pr736 O758 2.695 . S
Pr736 O759 2.512 . S
Pr736 O761 2.437 . S
Pr736 O764 2.436 . S
Pr736 O766 2.438 . S
Pr737 C747 2.880 . S
Pr737 O758 2.436 . S
Pr737 O760 2.424 1_455 S
Pr737 O762 2.562 . S
Pr737 O763 2.490 . S
Pr737 O764 2.695 . S
Pr737 O765 2.512 . S
Pr737 O767 2.437 . S
C738 Pr736 2.880 . S
C738 C739 1.491 . S
C738 O756 1.254 . S
C738 O757 1.225 . S
C739 C738 1.491 . S
C739 C740 1.392 . S
C739 C744 1.356 . S
C740 C739 1.392 . S
C740 C741 1.368 . S
C740 H768 0.929 . S
C741 C740 1.368 . S
C741 C742 1.386 1_455 S
C741 H769 0.929 . S
C742 C741 1.386 1_655 S
C742 C743 1.373 . S
C743 C742 1.373 . S
C743 C744 1.409 1_655 S
C743 H770 0.931 . S
C744 C739 1.356 . S
C744 C743 1.409 1_455 S
C744 H771 0.930 . S
C745 O758 1.270 . S
C745 O759 1.248 . S
C746 O760 1.271 . S
C746 O761 1.278 1_655 S
C747 Pr737 2.880 . S
C747 C748 1.491 . S
C747 O762 1.254 . S
C747 O763 1.225 . S
C748 C747 1.491 . S
C748 C749 1.392 . S
C748 C753 1.356 . S
C749 C748 1.392 . S
C749 C750 1.368 . S
C749 H772 0.929 . S
C750 C749 1.368 . S
C750 C751 1.386 . S
C750 H773 0.929 . S
C751 C750 1.386 . S
C751 C752 1.373 . S
C752 C751 1.373 . S
C752 C753 1.409 . S
C752 H774 0.931 . S
C753 C748 1.356 . S
C753 C752 1.409 . S
C753 H775 0.930 . S
C754 O764 1.270 . S
C754 O765 1.248 . S
C755 O766 1.267 . S
C755 O767 1.278 . S
O756 Pr736 2.562 . S
O756 C738 1.254 . S
O757 Pr736 2.490 . S
O757 C738 1.225 . S
O758 Pr736 2.695 . S
O758 Pr737 2.436 . S
O758 C745 1.270 . S
O759 Pr736 2.512 . S
O759 C745 1.248 . S
O760 Pr737 2.424 1_655 S
O760 C746 1.271 . S
O761 Pr736 2.437 . S
O761 C746 1.278 1_455 S
O762 Pr737 2.562 . S
O762 C747 1.254 . S
O763 Pr737 2.490 . S
O763 C747 1.225 . S
O764 Pr736 2.436 . S
O764 Pr737 2.695 . S
O764 C754 1.270 . S
O765 Pr737 2.512 . S
O765 C754 1.248 . S
O766 Pr736 2.438 . S
O766 C755 1.267 . S
O767 Pr737 2.437 . S
O767 C755 1.278 . S
H768 C740 0.929 . S
H769 C741 0.929 . S
H770 C743 0.931 . S
H771 C744 0.930 . S
H772 C749 0.929 . S
H773 C750 0.929 . S
H774 C752 0.931 . S
H775 C753 0.930 . S
Pr776 C778 2.880 . S
Pr776 O796 2.562 . S
Pr776 O797 2.490 . S
Pr776 O798 2.695 . S
Pr776 O799 2.512 . S
Pr776 O801 2.437 . S
Pr776 O804 2.436 . S
Pr776 O806 2.438 . S
Pr777 C787 2.880 . S
Pr777 O798 2.436 . S
Pr777 O800 2.438 . S
Pr777 O802 2.562 . S
Pr777 O803 2.490 . S
Pr777 O804 2.695 . S
Pr777 O805 2.512 . S
Pr777 O807 2.437 . S
C778 Pr776 2.880 . S
C778 C779 1.491 . S
C778 O796 1.254 . S
C778 O797 1.225 . S
C779 C778 1.491 . S
C779 C780 1.392 . S
C779 C784 1.356 . S
C780 C779 1.392 . S
C780 C781 1.368 . S
C780 H808 0.929 . S
C781 C780 1.368 . S
C781 C782 1.386 . S
C781 H809 0.929 . S
C782 C781 1.386 . S
C782 C783 1.373 . S
C783 C782 1.373 . S
C783 C784 1.409 . S
C783 H810 0.931 . S
C784 C779 1.356 . S
C784 C783 1.409 . S
C784 H811 0.930 . S
C785 O798 1.270 . S
C785 O799 1.248 . S
C786 O800 1.267 . S
C786 O801 1.278 . S
C787 Pr777 2.880 . S
C787 C788 1.491 . S
C787 O802 1.254 . S
C787 O803 1.225 . S
C788 C787 1.491 . S
C788 C789 1.392 . S
C788 C793 1.356 . S
C789 C788 1.392 . S
C789 C790 1.368 . S
C789 H812 0.929 . S
C790 C789 1.368 . S
C790 C791 1.386 . S
C790 H813 0.929 . S
C791 C790 1.386 . S
C791 C792 1.373 . S
C792 C791 1.373 . S
C792 C793 1.409 . S
C792 H814 0.931 . S
C793 C788 1.356 . S
C793 C792 1.409 . S
C793 H815 0.930 . S
C794 O804 1.270 . S
C794 O805 1.248 . S
C795 O806 1.267 . S
C795 O807 1.278 . S
O796 Pr776 2.562 . S
O796 C778 1.254 . S
O797 Pr776 2.490 . S
O797 C778 1.225 . S
O798 Pr776 2.695 . S
O798 Pr777 2.436 . S
O798 C785 1.270 . S
O799 Pr776 2.512 . S
O799 C785 1.248 . S
O800 Pr777 2.438 . S
O800 C786 1.267 . S
O801 Pr776 2.437 . S
O801 C786 1.278 . S
O802 Pr777 2.562 . S
O802 C787 1.254 . S
O803 Pr777 2.490 . S
O803 C787 1.225 . S
O804 Pr776 2.436 . S
O804 Pr777 2.695 . S
O804 C794 1.270 . S
O805 Pr777 2.512 . S
O805 C794 1.248 . S
O806 Pr776 2.438 . S
O806 C795 1.267 . S
O807 Pr777 2.437 . S
O807 C795 1.278 . S
H808 C780 0.929 . S
H809 C781 0.929 . S
H810 C783 0.931 . S
H811 C784 0.930 . S
H812 C789 0.929 . S
H813 C790 0.929 . S
H814 C792 0.931 . S
H815 C793 0.930 . S
Pr816 C818 2.880 . S
Pr816 O836 2.562 . S
Pr816 O837 2.490 . S
Pr816 O838 2.695 . S
Pr816 O839 2.512 . S
Pr816 O841 2.437 . S
Pr816 O844 2.436 . S
Pr816 O846 2.438 . S
Pr817 C827 2.880 . S
Pr817 O838 2.436 . S
Pr817 O840 2.438 . S
Pr817 O842 2.562 . S
Pr817 O843 2.490 . S
Pr817 O844 2.695 . S
Pr817 O845 2.512 . S
Pr817 O847 2.437 . S
C818 Pr816 2.880 . S
C818 C819 1.491 . S
C818 O836 1.254 . S
C818 O837 1.225 . S
C819 C818 1.491 . S
C819 C820 1.392 . S
C819 C824 1.356 . S
C820 C819 1.392 . S
C820 C821 1.368 . S
C820 H848 0.929 . S
C821 C820 1.368 . S
C821 C822 1.386 . S
C821 H849 0.929 . S
C822 C821 1.386 . S
C822 C823 1.373 . S
C823 C822 1.373 . S
C823 C824 1.409 . S
C823 H850 0.931 . S
C824 C819 1.356 . S
C824 C823 1.409 . S
C824 H851 0.930 . S
C825 O838 1.270 . S
C825 O839 1.248 . S
C826 O840 1.267 . S
C826 O841 1.278 . S
C827 Pr817 2.880 . S
C827 C828 1.491 . S
C827 O842 1.254 . S
C827 O843 1.225 . S
C828 C827 1.491 . S
C828 C829 1.392 . S
C828 C833 1.356 . S
C829 C828 1.392 . S
C829 C830 1.368 . S
C829 H852 0.929 . S
C830 C829 1.368 . S
C830 C831 1.386 . S
C830 H853 0.929 . S
C831 C830 1.386 . S
C831 C832 1.373 . S
C832 C831 1.373 . S
C832 C833 1.409 . S
C832 H854 0.931 . S
C833 C828 1.356 . S
C833 C832 1.409 . S
C833 H855 0.930 . S
C834 O844 1.270 . S
C834 O845 1.248 . S
C835 O846 1.267 . S
C835 O847 1.278 . S
O836 Pr816 2.562 . S
O836 C818 1.254 . S
O837 Pr816 2.490 . S
O837 C818 1.225 . S
O838 Pr816 2.695 . S
O838 Pr817 2.436 . S
O838 C825 1.270 . S
O839 Pr816 2.512 . S
O839 C825 1.248 . S
O840 Pr817 2.438 . S
O840 C826 1.267 . S
O841 Pr816 2.437 . S
O841 C826 1.278 . S
O842 Pr817 2.562 . S
O842 C827 1.254 . S
O843 Pr817 2.490 . S
O843 C827 1.225 . S
O844 Pr816 2.436 . S
O844 Pr817 2.695 . S
O844 C834 1.270 . S
O845 Pr817 2.512 . S
O845 C834 1.248 . S
O846 Pr816 2.438 . S
O846 C835 1.267 . S
O847 Pr817 2.437 . S
O847 C835 1.278 . S
H848 C820 0.929 . S
H849 C821 0.929 . S
H850 C823 0.931 . S
H851 C824 0.930 . S
H852 C829 0.929 . S
H853 C830 0.929 . S
H854 C832 0.931 . S
H855 C833 0.930 . S
Pr856 C858 2.880 . S
Pr856 O876 2.562 . S
Pr856 O877 2.490 . S
Pr856 O878 2.695 . S
Pr856 O879 2.512 . S
Pr856 O881 2.437 . S
Pr856 O884 2.436 . S
Pr856 O886 2.438 . S
Pr857 C867 2.880 . S
Pr857 O878 2.436 . S
Pr857 O880 2.438 . S
Pr857 O882 2.562 . S
Pr857 O883 2.490 . S
Pr857 O884 2.695 . S
Pr857 O885 2.512 . S
Pr857 O887 2.437 . S
C858 Pr856 2.880 . S
C858 C859 1.491 . S
C858 O876 1.254 . S
C858 O877 1.225 . S
C859 C858 1.491 . S
C859 C860 1.392 . S
C859 C864 1.356 . S
C860 C859 1.392 . S
C860 C861 1.368 . S
C860 H888 0.929 . S
C861 C860 1.368 . S
C861 C862 1.386 . S
C861 H889 0.929 . S
C862 C861 1.386 . S
C862 C863 1.373 . S
C863 C862 1.373 . S
C863 C864 1.409 . S
C863 H890 0.931 . S
C864 C859 1.356 . S
C864 C863 1.409 . S
C864 H891 0.930 . S
C865 O878 1.270 . S
C865 O879 1.248 . S
C866 O880 1.267 . S
C866 O881 1.278 . S
C867 Pr857 2.880 . S
C867 C868 1.491 . S
C867 O882 1.254 . S
C867 O883 1.225 . S
C868 C867 1.491 . S
C868 C869 1.392 . S
C868 C873 1.356 . S
C869 C868 1.392 . S
C869 C870 1.368 . S
C869 H892 0.929 . S
C870 C869 1.368 . S
C870 C871 1.386 . S
C870 H893 0.929 . S
C871 C870 1.386 . S
C871 C872 1.373 . S
C872 C871 1.373 . S
C872 C873 1.409 . S
C872 H894 0.931 . S
C873 C868 1.356 . S
C873 C872 1.409 . S
C873 H895 0.930 . S
C874 O884 1.270 . S
C874 O885 1.248 . S
C875 O886 1.267 . S
C875 O887 1.278 . S
O876 Pr856 2.562 . S
O876 C858 1.254 . S
O877 Pr856 2.490 . S
O877 C858 1.225 . S
O878 Pr856 2.695 . S
O878 Pr857 2.436 . S
O878 C865 1.270 . S
O879 Pr856 2.512 . S
O879 C865 1.248 . S
O880 Pr857 2.438 . S
O880 C866 1.267 . S
O881 Pr856 2.437 . S
O881 C866 1.278 . S
O882 Pr857 2.562 . S
O882 C867 1.254 . S
O883 Pr857 2.490 . S
O883 C867 1.225 . S
O884 Pr856 2.436 . S
O884 Pr857 2.695 . S
O884 C874 1.270 . S
O885 Pr857 2.512 . S
O885 C874 1.248 . S
O886 Pr856 2.438 . S
O886 C875 1.267 . S
O887 Pr857 2.437 . S
O887 C875 1.278 . S
H888 C860 0.929 . S
H889 C861 0.929 . S
H890 C863 0.931 . S
H891 C864 0.930 . S
H892 C869 0.929 . S
H893 C870 0.929 . S
H894 C872 0.931 . S
H895 C873 0.930 . S
Pr896 C898 2.880 . S
Pr896 O916 2.562 . S
Pr896 O917 2.490 . S
Pr896 O918 2.695 . S
Pr896 O919 2.512 . S
Pr896 O921 2.437 . S
Pr896 O924 2.436 . S
Pr896 O926 2.438 . S
Pr897 C907 2.880 . S
Pr897 O918 2.436 . S
Pr897 O920 2.438 . S
Pr897 O922 2.562 . S
Pr897 O923 2.490 . S
Pr897 O924 2.695 . S
Pr897 O925 2.512 . S
Pr897 O927 2.437 . S
C898 Pr896 2.880 . S
C898 C899 1.491 . S
C898 O916 1.254 . S
C898 O917 1.225 . S
C899 C898 1.491 . S
C899 C900 1.392 . S
C899 C904 1.356 . S
C900 C899 1.392 . S
C900 C901 1.368 . S
C900 H928 0.929 . S
C901 C900 1.368 . S
C901 C902 1.386 . S
C901 H929 0.929 . S
C902 C901 1.386 . S
C902 C903 1.373 . S
C903 C902 1.373 . S
C903 C904 1.409 . S
C903 H930 0.931 . S
C904 C899 1.356 . S
C904 C903 1.409 . S
C904 H931 0.930 . S
C905 O918 1.270 . S
C905 O919 1.248 . S
C906 O920 1.267 . S
C906 O921 1.278 . S
C907 Pr897 2.880 . S
C907 C908 1.491 . S
C907 O922 1.254 . S
C907 O923 1.225 . S
C908 C907 1.491 . S
C908 C909 1.392 . S
C908 C913 1.356 . S
C909 C908 1.392 . S
C909 C910 1.368 . S
C909 H932 0.929 . S
C910 C909 1.368 . S
C910 C911 1.386 . S
C910 H933 0.929 . S
C911 C910 1.386 . S
C911 C912 1.373 . S
C912 C911 1.373 . S
C912 C913 1.409 . S
C912 H934 0.931 . S
C913 C908 1.356 . S
C913 C912 1.409 . S
C913 H935 0.930 . S
C914 O924 1.270 . S
C914 O925 1.248 . S
C915 O926 1.267 . S
C915 O927 1.278 . S
O916 Pr896 2.562 . S
O916 C898 1.254 . S
O917 Pr896 2.490 . S
O917 C898 1.225 . S
O918 Pr896 2.695 . S
O918 Pr897 2.436 . S
O918 C905 1.270 . S
O919 Pr896 2.512 . S
O919 C905 1.248 . S
O920 Pr897 2.438 . S
O920 C906 1.267 . S
O921 Pr896 2.437 . S
O921 C906 1.278 . S
O922 Pr897 2.562 . S
O922 C907 1.254 . S
O923 Pr897 2.490 . S
O923 C907 1.225 . S
O924 Pr896 2.436 . S
O924 Pr897 2.695 . S
O924 C914 1.270 . S
O925 Pr897 2.512 . S
O925 C914 1.248 . S
O926 Pr896 2.438 . S
O926 C915 1.267 . S
O927 Pr897 2.437 . S
O927 C915 1.278 . S
H928 C900 0.929 . S
H929 C901 0.929 . S
H930 C903 0.931 . S
H931 C904 0.930 . S
H932 C909 0.929 . S
H933 C910 0.929 . S
H934 C912 0.931 . S
H935 C913 0.930 . S
Pr936 C938 2.880 . S
Pr936 O956 2.562 . S
Pr936 O957 2.490 . S
Pr936 O958 2.695 . S
Pr936 O959 2.512 . S
Pr936 O961 2.437 . S
Pr936 O964 2.436 . S
Pr936 O966 2.438 . S
Pr937 C947 2.880 1_455 S
Pr937 O958 2.436 . S
Pr937 O960 2.438 . S
Pr937 O962 2.562 1_455 S
Pr937 O963 2.490 1_455 S
Pr937 O964 2.695 . S
Pr937 O965 2.512 . S
Pr937 O967 2.437 . S
C938 Pr936 2.880 . S
C938 C939 1.491 . S
C938 O956 1.254 . S
C938 O957 1.225 . S
C939 C938 1.491 . S
C939 C940 1.392 . S
C939 C944 1.356 . S
C940 C939 1.392 . S
C940 C941 1.368 . S
C940 H968 0.929 . S
C941 C940 1.368 . S
C941 C942 1.386 . S
C941 H969 0.929 . S
C942 C941 1.386 . S
C942 C943 1.373 . S
C943 C942 1.373 . S
C943 C944 1.409 . S
C943 H970 0.931 . S
C944 C939 1.356 . S
C944 C943 1.409 . S
C944 H971 0.930 . S
C945 O958 1.270 . S
C945 O959 1.248 . S
C946 O960 1.267 . S
C946 O961 1.278 . S
C947 Pr937 2.880 1_655 S
C947 C948 1.491 . S
C947 O962 1.254 . S
C947 O963 1.225 . S
C948 C947 1.491 . S
C948 C949 1.392 . S
C948 C953 1.356 . S
C949 C948 1.392 . S
C949 C950 1.368 . S
C949 H972 0.929 . S
C950 C949 1.368 . S
C950 C951 1.386 . S
C950 H973 0.929 . S
C951 C950 1.386 . S
C951 C952 1.373 . S
C952 C951 1.373 . S
C952 C953 1.409 . S
C952 H974 0.931 . S
C953 C948 1.356 . S
C953 C952 1.409 . S
C953 H975 0.930 . S
C954 O964 1.270 . S
C954 O965 1.248 . S
C955 O966 1.267 . S
C955 O967 1.278 . S
O956 Pr936 2.562 . S
O956 C938 1.254 . S
O957 Pr936 2.490 . S
O957 C938 1.225 . S
O958 Pr936 2.695 . S
O958 Pr937 2.436 . S
O958 C945 1.270 . S
O959 Pr936 2.512 . S
O959 C945 1.248 . S
O960 Pr937 2.438 . S
O960 C946 1.267 . S
O961 Pr936 2.437 . S
O961 C946 1.278 . S
O962 Pr937 2.562 1_655 S
O962 C947 1.254 . S
O963 Pr937 2.490 1_655 S
O963 C947 1.225 . S
O964 Pr936 2.436 . S
O964 Pr937 2.695 . S
O964 C954 1.270 . S
O965 Pr937 2.512 . S
O965 C954 1.248 . S
O966 Pr936 2.438 . S
O966 C955 1.267 . S
O967 Pr937 2.437 . S
O967 C955 1.278 . S
H968 C940 0.929 . S
H969 C941 0.929 . S
H970 C943 0.931 . S
H971 C944 0.930 . S
H972 C949 0.929 . S
H973 C950 0.929 . S
H974 C952 0.931 . S
H975 C953 0.930 . S
H976 C994 0.951 . S
H977 C996 0.951 . S
H978 C998 0.950 1_655 S
H979 C999 0.950 1_655 S
H980 C1001 0.950 . S
H981 C1004 0.950 . S
H982 C1005 0.950 . S
H983 C1007 0.950 . S
H984 C1008 0.950 . S
H985 C1009 0.951 . S
H986 C1011 0.951 . S
H987 C1013 0.950 . S
H988 C1014 0.950 . S
H989 C1016 0.950 . S
H990 C1019 0.950 . S
H991 C1020 0.950 . S
H992 C1022 0.950 . S
H993 C1023 0.950 . S
C994 H976 0.951 . S
C994 C995 1.366 . S
C994 C996 1.388 . S
C995 C994 1.366 . S
C995 C999 1.385 . S
C996 H977 0.951 . S
C996 C994 1.388 . S
C996 C997 1.366 . S
C997 C996 1.366 . S
C997 C998 1.414 . S
C997 C1000 1.499 . S
C998 H978 0.950 1_455 S
C998 C997 1.414 . S
C998 C999 1.374 . S
C999 H979 0.950 1_455 S
C999 C995 1.385 . S
C999 C998 1.374 . S
C1000 C997 1.499 . S
C1000 C1001 1.373 . S
C1000 C1002 1.389 . S
C1001 H980 0.950 . S
C1001 C1000 1.373 . S
C1001 C1017 1.377 . S
C1002 C1000 1.389 . S
C1002 C1003 1.524 . S
C1002 C1016 1.377 . S
C1003 C1002 1.524 . S
C1003 C1004 1.397 . S
C1003 C1008 1.363 . S
C1004 H981 0.950 . S
C1004 C1003 1.397 . S
C1004 C1005 1.334 . S
C1005 H982 0.950 . S
C1005 C1004 1.334 . S
C1005 C1006 1.287 . S
C1006 C1005 1.287 . S
C1006 C1007 1.524 . S
C1006 H1025 0.913 . S
C1007 H983 0.950 . S
C1007 C1006 1.524 . S
C1007 C1008 1.415 . S
C1008 H984 0.950 . S
C1008 C1003 1.363 . S
C1008 C1007 1.415 . S
C1009 H985 0.951 . S
C1009 C1010 1.366 . S
C1009 C1011 1.388 . S
C1010 C1009 1.366 . S
C1010 C1014 1.385 . S
C1011 H986 0.951 . S
C1011 C1009 1.388 . S
C1011 C1012 1.366 . S
C1012 C1011 1.366 . S
C1012 C1013 1.414 . S
C1012 C1015 1.499 1_554 S
C1013 H987 0.950 . S
C1013 C1012 1.414 . S
C1013 C1014 1.374 . S
C1014 H988 0.950 . S
C1014 C1010 1.385 . S
C1014 C1013 1.374 . S
C1015 C1012 1.499 1_556 S
C1015 C1016 1.373 . S
C1015 C1017 1.389 . S
C1016 H989 0.950 . S
C1016 C1002 1.377 . S
C1016 C1015 1.373 . S
C1017 C1001 1.377 . S
C1017 C1015 1.389 . S
C1017 C1018 1.524 1_556 S
C1018 C1017 1.524 1_554 S
C1018 C1019 1.397 . S
C1018 C1023 1.363 1_455 S
C1019 H990 0.950 . S
C1019 C1018 1.397 . S
C1019 C1020 1.334 . S
C1020 H991 0.950 . S
C1020 C1019 1.334 . S
C1020 C1021 1.287 . S
C1021 C1020 1.287 . S
C1021 C1022 1.524 1_455 S
C1021 H1024 0.999 . S
C1022 H992 0.950 . S
C1022 C1021 1.524 1_655 S
C1022 C1023 1.415 . S
C1023 H993 0.950 . S
C1023 C1018 1.363 1_655 S
C1023 C1022 1.415 . S
H1024 C1021 0.999 . S
H1025 C1006 0.913 . S
H1026 C1044 0.951 . S
H1027 C1046 0.951 . S
H1028 C1048 0.950 . S
H1029 C1049 0.950 . S
H1030 C1051 0.950 . S
H1031 C1054 0.950 . S
H1032 C1055 0.950 . S
H1033 C1057 0.950 . S
H1034 C1058 0.950 . S
H1035 C1059 0.951 . S
H1036 C1061 0.951 . S
H1037 C1063 0.950 . S
H1038 C1064 0.950 . S
H1039 C1066 0.950 . S
H1040 C1069 0.950 . S
H1041 C1070 0.950 . S
H1042 C1072 0.950 . S
H1043 C1073 0.950 . S
C1044 H1026 0.951 . S
C1044 C1045 1.366 . S
C1044 C1046 1.388 . S
C1045 C1044 1.366 . S
C1045 C1049 1.385 . S
C1046 H1027 0.951 . S
C1046 C1044 1.388 . S
C1046 C1047 1.366 . S
C1047 C1046 1.366 . S
C1047 C1048 1.414 . S
C1047 C1050 1.499 . S
C1048 H1028 0.950 . S
C1048 C1047 1.414 . S
C1048 C1049 1.374 . S
C1049 H1029 0.950 . S
C1049 C1045 1.385 . S
C1049 C1048 1.374 . S
C1050 C1047 1.499 . S
C1050 C1051 1.373 . S
C1050 C1052 1.389 . S
C1051 H1030 0.950 . S
C1051 C1050 1.373 . S
C1051 C1067 1.377 . S
C1052 C1050 1.389 . S
C1052 C1053 1.524 . S
C1052 C1066 1.377 . S
C1053 C1052 1.524 . S
C1053 C1054 1.397 . S
C1053 C1058 1.363 . S
C1054 H1031 0.950 . S
C1054 C1053 1.397 . S
C1054 C1055 1.334 . S
C1055 H1032 0.950 . S
C1055 C1054 1.334 . S
C1055 C1056 1.287 . S
C1056 C1055 1.287 . S
C1056 C1057 1.524 . S
C1056 H1075 0.913 . S
C1057 H1033 0.950 . S
C1057 C1056 1.524 . S
C1057 C1058 1.415 . S
C1058 H1034 0.950 . S
C1058 C1053 1.363 . S
C1058 C1057 1.415 . S
C1059 H1035 0.951 . S
C1059 C1060 1.366 . S
C1059 C1061 1.388 . S
C1060 C1059 1.366 . S
C1060 C1064 1.385 . S
C1061 H1036 0.951 . S
C1061 C1059 1.388 . S
C1061 C1062 1.366 . S
C1062 C1061 1.366 . S
C1062 C1063 1.414 . S
C1062 C1065 1.499 . S
C1063 H1037 0.950 . S
C1063 C1062 1.414 . S
C1063 C1064 1.374 . S
C1064 H1038 0.950 . S
C1064 C1060 1.385 . S
C1064 C1063 1.374 . S
C1065 C1062 1.499 . S
C1065 C1066 1.373 . S
C1065 C1067 1.389 . S
C1066 H1039 0.950 . S
C1066 C1052 1.377 . S
C1066 C1065 1.373 . S
C1067 C1051 1.377 . S
C1067 C1065 1.389 . S
C1067 C1068 1.524 . S
C1068 C1067 1.524 . S
C1068 C1069 1.397 . S
C1068 C1073 1.363 . S
C1069 H1040 0.950 . S
C1069 C1068 1.397 . S
C1069 C1070 1.334 . S
C1070 H1041 0.950 . S
C1070 C1069 1.334 . S
C1070 C1071 1.287 . S
C1071 C1070 1.287 . S
C1071 C1072 1.524 . S
C1071 H1074 0.999 . S
C1072 H1042 0.950 . S
C1072 C1071 1.524 . S
C1072 C1073 1.415 . S
C1073 H1043 0.950 . S
C1073 C1068 1.363 . S
C1073 C1072 1.415 . S
H1074 C1071 0.999 . S
H1075 C1056 0.913 . S
H1076 C1094 0.951 . S
H1077 C1096 0.951 . S
H1078 C1098 0.950 . S
H1079 C1099 0.950 . S
H1080 C1101 0.950 . S
H1081 C1104 0.950 . S
H1082 C1105 0.950 . S
H1083 C1107 0.950 . S
H1084 C1108 0.950 . S
H1085 C1109 0.951 . S
H1086 C1111 0.951 . S
H1087 C1113 0.950 . S
H1088 C1114 0.911 1_545 S
H1089 C1116 0.950 . S
H1090 C1119 0.950 . S
H1091 C1120 0.950 . S
H1092 C1122 0.950 . S
H1093 C1123 0.950 . S
C1094 H1076 0.951 . S
C1094 C1095 1.366 . S
C1094 C1096 1.388 . S
C1095 C1094 1.366 . S
C1095 C1099 1.385 . S
C1096 H1077 0.951 . S
C1096 C1094 1.388 . S
C1096 C1097 1.366 . S
C1097 C1096 1.366 . S
C1097 C1098 1.414 . S
C1097 C1100 1.499 . S
C1098 H1078 0.950 . S
C1098 C1097 1.414 . S
C1098 C1099 1.374 . S
C1099 H1079 0.950 . S
C1099 C1095 1.385 . S
C1099 C1098 1.374 . S
C1100 C1097 1.499 . S
C1100 C1101 1.373 . S
C1100 C1102 1.389 . S
C1101 H1080 0.950 . S
C1101 C1100 1.373 . S
C1101 C1117 1.377 . S
C1102 C1100 1.389 . S
C1102 C1103 1.524 . S
C1102 C1116 1.377 . S
C1103 C1102 1.524 . S
C1103 C1104 1.397 . S
C1103 C1108 1.363 . S
C1104 H1081 0.950 . S
C1104 C1103 1.397 . S
C1104 C1105 1.334 . S
C1105 H1082 0.950 . S
C1105 C1104 1.334 . S
C1105 C1106 1.287 . S
C1106 C1105 1.287 . S
C1106 C1107 1.524 . S
C1106 H1125 0.913 . S
C1107 H1083 0.950 . S
C1107 C1106 1.524 . S
C1107 C1108 1.415 . S
C1108 H1084 0.950 . S
C1108 C1103 1.363 . S
C1108 C1107 1.415 . S
C1109 H1085 0.951 . S
C1109 C1110 1.366 1_565 S
C1109 C1111 1.388 . S
C1110 C1109 1.366 1_545 S
C1110 C1114 1.383 1_545 S
C1111 H1086 0.951 . S
C1111 C1109 1.388 . S
C1111 C1112 1.366 . S
C1112 C1111 1.366 . S
C1112 C1113 1.414 . S
C1112 C1115 1.499 . S
C1113 H1087 0.950 . S
C1113 C1112 1.414 . S
C1113 C1114 1.416 . S
C1114 H1088 0.911 1_565 S
C1114 C1110 1.383 1_565 S
C1114 C1113 1.416 . S
C1115 C1112 1.499 . S
C1115 C1116 1.373 . S
C1115 C1117 1.389 . S
C1116 H1089 0.950 . S
C1116 C1102 1.377 . S
C1116 C1115 1.373 . S
C1117 C1101 1.377 . S
C1117 C1115 1.389 . S
C1117 C1118 1.524 . S
C1118 C1117 1.524 . S
C1118 C1119 1.397 . S
C1118 C1123 1.363 . S
C1119 H1090 0.950 . S
C1119 C1118 1.397 . S
C1119 C1120 1.334 . S
C1120 H1091 0.950 . S
C1120 C1119 1.334 . S
C1120 C1121 1.287 . S
C1121 C1120 1.287 . S
C1121 C1122 1.524 . S
C1121 H1124 0.999 . S
C1122 H1092 0.950 . S
C1122 C1121 1.524 . S
C1122 C1123 1.415 . S
C1123 H1093 0.950 . S
C1123 C1118 1.363 . S
C1123 C1122 1.415 . S
H1124 C1121 0.999 . S
H1125 C1106 0.913 . S
H1126 C1144 0.951 . S
H1127 C1146 0.951 . S
H1128 C1148 0.950 . S
H1129 C1149 0.950 . S
H1130 C1151 0.950 . S
H1131 C1154 0.950 . S
H1132 C1155 0.950 . S
H1133 C1157 0.950 . S
H1134 C1158 0.950 . S
H1135 C1159 0.951 . S
H1136 C1161 0.951 . S
H1137 C1163 0.950 . S
H1138 C1164 0.950 . S
H1139 C1166 0.950 . S
H1140 C1169 0.950 . S
H1141 C1170 0.950 . S
H1142 C1172 0.950 . S
H1143 C1173 0.950 . S
C1144 H1126 0.951 . S
C1144 C1145 1.366 . S
C1144 C1146 1.388 . S
C1145 C1144 1.366 . S
C1145 C1149 1.385 . S
C1146 H1127 0.951 . S
C1146 C1144 1.388 . S
C1146 C1147 1.366 . S
C1147 C1146 1.366 . S
C1147 C1148 1.414 . S
C1147 C1150 1.499 . S
C1148 H1128 0.950 . S
C1148 C1147 1.414 . S
C1148 C1149 1.374 . S
C1149 H1129 0.950 . S
C1149 C1145 1.385 . S
C1149 C1148 1.374 . S
C1150 C1147 1.499 . S
C1150 C1151 1.373 . S
C1150 C1152 1.389 . S
C1151 H1130 0.950 . S
C1151 C1150 1.373 . S
C1151 C1167 1.377 . S
C1152 C1150 1.389 . S
C1152 C1153 1.524 . S
C1152 C1166 1.377 . S
C1153 C1152 1.524 . S
C1153 C1154 1.397 . S
C1153 C1158 1.363 . S
C1154 H1131 0.950 . S
C1154 C1153 1.397 . S
C1154 C1155 1.334 . S
C1155 H1132 0.950 . S
C1155 C1154 1.334 . S
C1155 C1156 1.287 . S
C1156 C1155 1.287 . S
C1156 C1157 1.524 . S
C1156 H1175 0.913 . S
C1157 H1133 0.950 . S
C1157 C1156 1.524 . S
C1157 C1158 1.415 . S
C1158 H1134 0.950 . S
C1158 C1153 1.363 . S
C1158 C1157 1.415 . S
C1159 H1135 0.951 . S
C1159 C1160 1.366 . S
C1159 C1161 1.388 . S
C1160 C1159 1.366 . S
C1160 C1164 1.385 . S
C1161 H1136 0.951 . S
C1161 C1159 1.388 . S
C1161 C1162 1.366 . S
C1162 C1161 1.366 . S
C1162 C1163 1.414 . S
C1162 C1165 1.499 . S
C1163 H1137 0.950 . S
C1163 C1162 1.414 . S
C1163 C1164 1.374 . S
C1164 H1138 0.950 . S
C1164 C1160 1.385 . S
C1164 C1163 1.374 . S
C1165 C1162 1.499 . S
C1165 C1166 1.373 . S
C1165 C1167 1.389 . S
C1166 H1139 0.950 . S
C1166 C1152 1.377 . S
C1166 C1165 1.373 . S
C1167 C1151 1.377 . S
C1167 C1165 1.389 . S
C1167 C1168 1.524 . S
C1168 C1167 1.524 . S
C1168 C1169 1.397 . S
C1168 C1173 1.363 . S
C1169 H1140 0.950 . S
C1169 C1168 1.397 . S
C1169 C1170 1.334 . S
C1170 H1141 0.950 . S
C1170 C1169 1.334 . S
C1170 C1171 1.287 . S
C1171 C1170 1.287 . S
C1171 C1172 1.524 . S
C1171 H1174 0.999 . S
C1172 H1142 0.950 . S
C1172 C1171 1.524 . S
C1172 C1173 1.415 . S
C1173 H1143 0.950 . S
C1173 C1168 1.363 . S
C1173 C1172 1.415 . S
H1174 C1171 0.999 . S
H1175 C1156 0.913 . S
H1176 C1194 0.951 . S
H1177 C1196 0.951 . S
H1178 C1198 0.950 . S
H1179 C1199 0.950 . S
H1180 C1201 0.950 . S
H1181 C1204 0.950 . S
H1182 C1205 0.950 . S
H1183 C1207 0.950 . S
H1184 C1208 0.950 . S
H1185 C1209 0.951 . S
H1186 C1211 0.951 . S
H1187 C1213 0.950 . S
H1188 C1214 0.950 . S
H1189 C1216 0.950 . S
H1190 C1219 0.950 . S
H1191 C1220 0.950 . S
H1192 C1222 0.950 1_655 S
H1193 C1223 0.950 . S
C1194 H1176 0.951 . S
C1194 C1195 1.366 . S
C1194 C1196 1.388 . S
C1195 C1194 1.366 . S
C1195 C1199 1.385 . S
C1196 H1177 0.951 . S
C1196 C1194 1.388 . S
C1196 C1197 1.366 . S
C1197 C1196 1.366 . S
C1197 C1198 1.414 . S
C1197 C1200 1.499 . S
C1198 H1178 0.950 . S
C1198 C1197 1.414 . S
C1198 C1199 1.374 . S
C1199 H1179 0.950 . S
C1199 C1195 1.385 . S
C1199 C1198 1.374 . S
C1200 C1197 1.499 . S
C1200 C1201 1.373 . S
C1200 C1202 1.389 . S
C1201 H1180 0.950 . S
C1201 C1200 1.373 . S
C1201 C1217 1.377 . S
C1202 C1200 1.389 . S
C1202 C1203 1.524 . S
C1202 C1216 1.377 . S
C1203 C1202 1.524 . S
C1203 C1204 1.397 . S
C1203 C1208 1.363 . S
C1204 H1181 0.950 . S
C1204 C1203 1.397 . S
C1204 C1205 1.334 . S
C1205 H1182 0.950 . S
C1205 C1204 1.334 . S
C1205 C1206 1.287 . S
C1206 C1205 1.287 . S
C1206 C1207 1.524 . S
C1206 H1225 0.913 . S
C1207 H1183 0.950 . S
C1207 C1206 1.524 . S
C1207 C1208 1.415 . S
C1208 H1184 0.950 . S
C1208 C1203 1.363 . S
C1208 C1207 1.415 . S
C1209 H1185 0.951 . S
C1209 C1210 1.366 . S
C1209 C1211 1.388 1_545 S
C1210 C1209 1.366 . S
C1210 C1214 1.385 . S
C1211 H1186 0.951 . S
C1211 C1209 1.388 1_565 S
C1211 C1212 1.366 . S
C1212 C1211 1.366 . S
C1212 C1213 1.414 . S
C1212 C1215 1.499 . S
C1213 H1187 0.950 . S
C1213 C1212 1.414 . S
C1213 C1214 1.374 1_565 S
C1214 H1188 0.950 . S
C1214 C1210 1.385 . S
C1214 C1213 1.374 1_545 S
C1215 C1212 1.499 . S
C1215 C1216 1.373 . S
C1215 C1217 1.389 . S
C1216 H1189 0.950 . S
C1216 C1202 1.377 . S
C1216 C1215 1.373 . S
C1217 C1201 1.377 . S
C1217 C1215 1.389 . S
C1217 C1218 1.524 . S
C1218 C1217 1.524 . S
C1218 C1219 1.397 . S
C1218 C1223 1.363 . S
C1219 H1190 0.950 . S
C1219 C1218 1.397 . S
C1219 C1220 1.334 . S
C1220 H1191 0.950 . S
C1220 C1219 1.334 . S
C1220 C1221 1.287 . S
C1221 C1220 1.287 . S
C1221 C1222 1.524 . S
C1221 H1224 1.021 . S
C1222 H1192 0.950 1_455 S
C1222 C1221 1.524 . S
C1222 C1223 1.415 . S
C1223 H1193 0.950 . S
C1223 C1218 1.363 . S
C1223 C1222 1.415 . S
H1224 C1221 1.021 . S
H1225 C1206 0.913 . S
H1226 C1244 0.951 . S
H1227 C1246 0.951 . S
H1228 C1248 0.950 . S
H1229 C1249 0.950 . S
H1230 C1251 0.950 . S
H1231 C1254 0.950 . S
H1232 C1255 0.950 . S
H1233 C1257 0.950 . S
H1234 C1258 0.950 . S
H1235 C1259 0.951 . S
H1236 C1261 0.951 . S
H1237 C1263 0.950 . S
H1238 C1264 0.950 . S
H1239 C1266 0.950 . S
H1240 C1269 0.950 . S
H1241 C1270 0.950 . S
H1242 C1272 0.950 . S
H1243 C1273 0.950 . S
C1244 H1226 0.951 . S
C1244 C1245 1.366 . S
C1244 C1246 1.388 . S
C1245 C1244 1.366 . S
C1245 C1249 1.385 . S
C1246 H1227 0.951 . S
C1246 C1244 1.388 . S
C1246 C1247 1.366 . S
C1247 C1246 1.366 . S
C1247 C1248 1.414 . S
C1247 C1250 1.499 . S
C1248 H1228 0.950 . S
C1248 C1247 1.414 . S
C1248 C1249 1.374 . S
C1249 H1229 0.950 . S
C1249 C1245 1.385 . S
C1249 C1248 1.374 . S
C1250 C1247 1.499 . S
C1250 C1251 1.373 . S
C1250 C1252 1.389 . S
C1251 H1230 0.950 . S
C1251 C1250 1.373 . S
C1251 C1267 1.377 . S
C1252 C1250 1.389 . S
C1252 C1253 1.524 . S
C1252 C1266 1.377 . S
C1253 C1252 1.524 . S
C1253 C1254 1.397 . S
C1253 C1258 1.363 . S
C1254 H1231 0.950 . S
C1254 C1253 1.397 . S
C1254 C1255 1.334 . S
C1255 H1232 0.950 . S
C1255 C1254 1.334 . S
C1255 C1256 1.287 . S
C1256 C1255 1.287 . S
C1256 C1257 1.524 . S
C1256 H1275 0.913 . S
C1257 H1233 0.950 . S
C1257 C1256 1.524 . S
C1257 C1258 1.415 . S
C1258 H1234 0.950 . S
C1258 C1253 1.363 . S
C1258 C1257 1.415 . S
C1259 H1235 0.951 . S
C1259 C1260 1.366 . S
C1259 C1261 1.388 . S
C1260 C1259 1.366 . S
C1260 C1264 1.385 . S
C1261 H1236 0.951 . S
C1261 C1259 1.388 . S
C1261 C1262 1.366 . S
C1262 C1261 1.366 . S
C1262 C1263 1.414 . S
C1262 C1265 1.499 . S
C1263 H1237 0.950 . S
C1263 C1262 1.414 . S
C1263 C1264 1.374 . S
C1264 H1238 0.950 . S
C1264 C1260 1.385 . S
C1264 C1263 1.374 . S
C1265 C1262 1.499 . S
C1265 C1266 1.373 . S
C1265 C1267 1.389 . S
C1266 H1239 0.950 . S
C1266 C1252 1.377 . S
C1266 C1265 1.373 . S
C1267 C1251 1.377 . S
C1267 C1265 1.389 . S
C1267 C1268 1.524 . S
C1268 C1267 1.524 . S
C1268 C1269 1.397 . S
C1268 C1273 1.363 . S
C1269 H1240 0.950 . S
C1269 C1268 1.397 . S
C1269 C1270 1.334 . S
C1270 H1241 0.950 . S
C1270 C1269 1.334 . S
C1270 C1271 1.287 . S
C1271 C1270 1.287 . S
C1271 C1272 1.524 . S
C1271 H1274 0.999 . S
C1272 H1242 0.950 . S
C1272 C1271 1.524 . S
C1272 C1273 1.415 . S
C1273 H1243 0.950 . S
C1273 C1268 1.363 . S
C1273 C1272 1.415 . S
H1274 C1271 0.999 . S
H1275 C1256 0.913 . S
H1276 C1294 0.951 . S
H1277 C1296 0.951 . S
H1278 C1298 0.950 . S
H1279 C1299 0.950 . S
H1280 C1301 0.950 . S
H1281 C1304 0.950 . S
H1282 C1305 0.950 . S
H1283 C1307 0.950 . S
H1284 C1308 0.950 . S
H1285 C1309 0.951 . S
H1286 C1311 0.951 . S
H1287 C1313 0.950 . S
H1288 C1314 0.950 . S
H1289 C1316 0.950 . S
H1290 C1319 0.950 . S
H1291 C1320 0.950 . S
H1292 C1322 0.950 . S
H1293 C1323 0.950 . S
C1294 H1276 0.951 . S
C1294 C1295 1.366 . S
C1294 C1296 1.388 . S
C1295 C1294 1.366 . S
C1295 C1299 1.385 . S
C1296 H1277 0.951 . S
C1296 C1294 1.388 . S
C1296 C1297 1.366 . S
C1297 C1296 1.366 . S
C1297 C1298 1.414 . S
C1297 C1300 1.499 . S
C1298 H1278 0.950 . S
C1298 C1297 1.414 . S
C1298 C1299 1.374 . S
C1299 H1279 0.950 . S
C1299 C1295 1.385 . S
C1299 C1298 1.374 . S
C1300 C1297 1.499 . S
C1300 C1301 1.373 . S
C1300 C1302 1.389 . S
C1301 H1280 0.950 . S
C1301 C1300 1.373 . S
C1301 C1317 1.377 . S
C1302 C1300 1.389 . S
C1302 C1303 1.524 . S
C1302 C1316 1.377 . S
C1303 C1302 1.524 . S
C1303 C1304 1.397 . S
C1303 C1308 1.363 . S
C1304 H1281 0.950 . S
C1304 C1303 1.397 . S
C1304 C1305 1.334 . S
C1305 H1282 0.950 . S
C1305 C1304 1.334 . S
C1305 C1306 1.287 . S
C1306 C1305 1.287 . S
C1306 C1307 1.524 . S
C1306 H1325 0.913 . S
C1307 H1283 0.950 . S
C1307 C1306 1.524 . S
C1307 C1308 1.415 . S
C1308 H1284 0.950 . S
C1308 C1303 1.363 . S
C1308 C1307 1.415 . S
C1309 H1285 0.951 . S
C1309 C1310 1.366 . S
C1309 C1311 1.388 . S
C1310 C1309 1.366 . S
C1310 C1314 1.385 . S
C1311 H1286 0.951 . S
C1311 C1309 1.388 . S
C1311 C1312 1.366 . S
C1312 C1311 1.366 . S
C1312 C1313 1.414 . S
C1312 C1315 1.499 . S
C1313 H1287 0.950 . S
C1313 C1312 1.414 . S
C1313 C1314 1.374 . S
C1314 H1288 0.950 . S
C1314 C1310 1.385 . S
C1314 C1313 1.374 . S
C1315 C1312 1.499 . S
C1315 C1316 1.373 . S
C1315 C1317 1.389 . S
C1316 H1289 0.950 . S
C1316 C1302 1.377 . S
C1316 C1315 1.373 . S
C1317 C1301 1.377 . S
C1317 C1315 1.389 . S
C1317 C1318 1.524 . S
C1318 C1317 1.524 . S
C1318 C1319 1.397 . S
C1318 C1323 1.363 . S
C1319 H1290 0.950 . S
C1319 C1318 1.397 . S
C1319 C1320 1.334 . S
C1320 H1291 0.950 . S
C1320 C1319 1.334 . S
C1320 C1321 1.287 . S
C1321 C1320 1.287 . S
C1321 C1322 1.524 . S
C1321 H1324 0.999 . S
C1322 H1292 0.950 . S
C1322 C1321 1.524 . S
C1322 C1323 1.415 . S
C1323 H1293 0.950 . S
C1323 C1318 1.363 . S
C1323 C1322 1.415 . S
H1324 C1321 0.999 . S
H1325 C1306 0.913 . S
H1326 C1344 0.951 . S
H1327 C1346 0.951 . S
H1328 C1348 0.950 . S
H1329 C1349 0.950 . S
H1330 C1351 0.950 . S
H1331 C1354 0.950 . S
H1332 C1355 0.950 . S
H1333 C1357 0.950 . S
H1334 C1358 0.950 . S
H1335 C1359 0.951 . S
H1336 C1361 0.951 . S
H1337 C1363 0.950 . S
H1338 C1364 0.950 . S
H1339 C1366 0.950 . S
H1340 C1369 0.950 . S
H1341 C1370 0.950 . S
H1342 C1372 0.950 . S
H1343 C1373 0.950 . S
C1344 H1326 0.951 . S
C1344 C1345 1.366 . S
C1344 C1346 1.388 . S
C1345 C1344 1.366 . S
C1345 C1349 1.385 . S
C1346 H1327 0.951 . S
C1346 C1344 1.388 . S
C1346 C1347 1.366 . S
C1347 C1346 1.366 . S
C1347 C1348 1.414 . S
C1347 C1350 1.499 . S
C1348 H1328 0.950 . S
C1348 C1347 1.414 . S
C1348 C1349 1.374 . S
C1349 H1329 0.950 . S
C1349 C1345 1.385 . S
C1349 C1348 1.374 . S
C1350 C1347 1.499 . S
C1350 C1351 1.373 . S
C1350 C1352 1.389 . S
C1351 H1330 0.950 . S
C1351 C1350 1.373 . S
C1351 C1367 1.377 . S
C1352 C1350 1.389 . S
C1352 C1353 1.524 . S
C1352 C1366 1.377 . S
C1353 C1352 1.524 . S
C1353 C1354 1.397 . S
C1353 C1358 1.363 . S
C1354 H1331 0.950 . S
C1354 C1353 1.397 . S
C1354 C1355 1.334 . S
C1355 H1332 0.950 . S
C1355 C1354 1.334 . S
C1355 C1356 1.287 . S
C1356 C1355 1.287 . S
C1356 C1357 1.524 . S
C1356 H1375 0.913 . S
C1357 H1333 0.950 . S
C1357 C1356 1.524 . S
C1357 C1358 1.415 . S
C1358 H1334 0.950 . S
C1358 C1353 1.363 . S
C1358 C1357 1.415 . S
C1359 H1335 0.951 . S
C1359 C1360 1.366 . S
C1359 C1361 1.388 . S
C1360 C1359 1.366 . S
C1360 C1364 1.385 . S
C1361 H1336 0.951 . S
C1361 C1359 1.388 . S
C1361 C1362 1.366 . S
C1362 C1361 1.366 . S
C1362 C1363 1.414 . S
C1362 C1365 1.499 . S
C1363 H1337 0.950 . S
C1363 C1362 1.414 . S
C1363 C1364 1.374 . S
C1364 H1338 0.950 . S
C1364 C1360 1.385 . S
C1364 C1363 1.374 . S
C1365 C1362 1.499 . S
C1365 C1366 1.373 . S
C1365 C1367 1.389 . S
C1366 H1339 0.950 . S
C1366 C1352 1.377 . S
C1366 C1365 1.373 . S
C1367 C1351 1.377 . S
C1367 C1365 1.389 . S
C1367 C1368 1.524 . S
C1368 C1367 1.524 . S
C1368 C1369 1.397 . S
C1368 C1373 1.363 . S
C1369 H1340 0.950 . S
C1369 C1368 1.397 . S
C1369 C1370 1.334 . S
C1370 H1341 0.950 . S
C1370 C1369 1.334 . S
C1370 C1371 1.287 . S
C1371 C1370 1.287 . S
C1371 C1372 1.524 . S
C1371 H1374 0.999 . S
C1372 H1342 0.950 . S
C1372 C1371 1.524 . S
C1372 C1373 1.415 . S
C1373 H1343 0.950 . S
C1373 C1368 1.363 . S
C1373 C1372 1.415 . S
H1374 C1371 0.999 . S
H1375 C1356 0.913 . S
H1376 C1394 0.951 . S
H1377 C1396 0.951 . S
H1378 C1398 0.950 . S
H1379 C1399 0.950 . S
H1380 C1401 0.950 . S
H1381 C1404 0.950 . S
H1382 C1405 0.950 . S
H1383 C1407 0.950 . S
H1384 C1408 0.950 . S
H1385 C1409 0.951 . S
H1386 C1411 0.951 . S
H1387 C1413 0.950 . S
H1388 C1414 0.950 . S
H1389 C1416 0.950 . S
H1390 C1419 0.950 . S
H1391 C1420 0.950 . S
H1392 C1422 0.950 . S
H1393 C1423 0.950 . S
C1394 H1376 0.951 . S
C1394 C1395 1.366 . S
C1394 C1396 1.388 . S
C1395 C1394 1.366 . S
C1395 C1399 1.385 . S
C1396 H1377 0.951 . S
C1396 C1394 1.388 . S
C1396 C1397 1.366 . S
C1397 C1396 1.366 . S
C1397 C1398 1.414 . S
C1397 C1400 1.499 . S
C1398 H1378 0.950 . S
C1398 C1397 1.414 . S
C1398 C1399 1.374 . S
C1399 H1379 0.950 . S
C1399 C1395 1.385 . S
C1399 C1398 1.374 . S
C1400 C1397 1.499 . S
C1400 C1401 1.373 . S
C1400 C1402 1.389 . S
C1401 H1380 0.950 . S
C1401 C1400 1.373 . S
C1401 C1417 1.377 . S
C1402 C1400 1.389 . S
C1402 C1403 1.524 . S
C1402 C1416 1.377 . S
C1403 C1402 1.524 . S
C1403 C1404 1.397 . S
C1403 C1408 1.363 . S
C1404 H1381 0.950 . S
C1404 C1403 1.397 . S
C1404 C1405 1.334 . S
C1405 H1382 0.950 . S
C1405 C1404 1.334 . S
C1405 C1406 1.287 . S
C1406 C1405 1.287 . S
C1406 C1407 1.524 . S
C1406 H1425 0.913 . S
C1407 H1383 0.950 . S
C1407 C1406 1.524 . S
C1407 C1408 1.415 . S
C1408 H1384 0.950 . S
C1408 C1403 1.363 . S
C1408 C1407 1.415 . S
C1409 H1385 0.951 . S
C1409 C1410 1.366 . S
C1409 C1411 1.388 . S
C1410 C1409 1.366 . S
C1410 C1414 1.385 . S
C1411 H1386 0.951 . S
C1411 C1409 1.388 . S
C1411 C1412 1.366 1_455 S
C1412 C1411 1.366 1_655 S
C1412 C1413 1.414 . S
C1412 C1415 1.499 . S
C1413 H1387 0.950 . S
C1413 C1412 1.414 . S
C1413 C1414 1.374 1_655 S
C1414 H1388 0.950 . S
C1414 C1410 1.385 . S
C1414 C1413 1.374 1_455 S
C1415 C1412 1.499 . S
C1415 C1416 1.373 . S
C1415 C1417 1.389 . S
C1416 H1389 0.950 . S
C1416 C1402 1.377 . S
C1416 C1415 1.373 . S
C1417 C1401 1.377 . S
C1417 C1415 1.389 . S
C1417 C1418 1.524 1_655 S
C1418 C1417 1.524 1_455 S
C1418 C1419 1.397 . S
C1418 C1423 1.363 . S
C1419 H1390 0.950 . S
C1419 C1418 1.397 . S
C1419 C1420 1.334 . S
C1420 H1391 0.950 . S
C1420 C1419 1.334 . S
C1420 C1421 1.287 . S
C1421 C1420 1.287 . S
C1421 C1422 1.524 . S
C1421 H1424 0.999 . S
C1422 H1392 0.950 . S
C1422 C1421 1.524 . S
C1422 C1423 1.415 . S
C1423 H1393 0.950 . S
C1423 C1418 1.363 . S
C1423 C1422 1.415 . S
H1424 C1421 0.999 . S
H1425 C1406 0.913 . S
H1426 C1444 0.951 . S
H1427 C1446 0.951 . S
H1428 C1448 0.950 . S
H1429 C1449 0.950 . S
H1430 C1451 0.950 . S
H1431 C1454 0.950 . S
H1432 C1455 0.950 . S
H1433 C1457 0.950 . S
H1434 C1458 0.950 . S
H1435 C1459 0.951 . S
H1436 C1461 0.951 . S
H1437 C1463 0.950 . S
H1438 C1464 0.950 . S
H1439 C1466 0.950 . S
H1440 C1469 0.950 . S
H1441 C1470 0.950 . S
H1442 C1472 0.950 . S
H1443 C1473 0.950 . S
C1444 H1426 0.951 . S
C1444 C1445 1.366 . S
C1444 C1446 1.388 . S
C1445 C1444 1.366 . S
C1445 C1449 1.385 . S
C1446 H1427 0.951 . S
C1446 C1444 1.388 . S
C1446 C1447 1.366 . S
C1447 C1446 1.366 . S
C1447 C1448 1.414 . S
C1447 C1450 1.499 . S
C1448 H1428 0.950 . S
C1448 C1447 1.414 . S
C1448 C1449 1.374 . S
C1449 H1429 0.950 . S
C1449 C1445 1.385 . S
C1449 C1448 1.374 . S
C1450 C1447 1.499 . S
C1450 C1451 1.373 . S
C1450 C1452 1.389 . S
C1451 H1430 0.950 . S
C1451 C1450 1.373 . S
C1451 C1467 1.377 . S
C1452 C1450 1.389 . S
C1452 C1453 1.524 . S
C1452 C1466 1.377 . S
C1453 C1452 1.524 . S
C1453 C1454 1.397 . S
C1453 C1458 1.363 . S
C1454 H1431 0.950 . S
C1454 C1453 1.397 . S
C1454 C1455 1.334 . S
C1455 H1432 0.950 . S
C1455 C1454 1.334 . S
C1455 C1456 1.287 . S
C1456 C1455 1.287 . S
C1456 C1457 1.524 . S
C1456 H1475 0.913 . S
C1457 H1433 0.950 . S
C1457 C1456 1.524 . S
C1457 C1458 1.415 . S
C1458 H1434 0.950 . S
C1458 C1453 1.363 . S
C1458 C1457 1.415 . S
C1459 H1435 0.951 . S
C1459 C1460 1.366 . S
C1459 C1461 1.388 . S
C1460 C1459 1.366 . S
C1460 C1464 1.385 . S
C1461 H1436 0.951 . S
C1461 C1459 1.388 . S
C1461 C1462 1.366 . S
C1462 C1461 1.366 . S
C1462 C1463 1.414 . S
C1462 C1465 1.499 . S
C1463 H1437 0.950 . S
C1463 C1462 1.414 . S
C1463 C1464 1.374 . S
C1464 H1438 0.950 . S
C1464 C1460 1.385 . S
C1464 C1463 1.374 . S
C1465 C1462 1.499 . S
C1465 C1466 1.373 . S
C1465 C1467 1.389 . S
C1466 H1439 0.950 . S
C1466 C1452 1.377 . S
C1466 C1465 1.373 . S
C1467 C1451 1.377 . S
C1467 C1465 1.389 . S
C1467 C1468 1.524 . S
C1468 C1467 1.524 . S
C1468 C1469 1.397 . S
C1468 C1473 1.363 . S
C1469 H1440 0.950 . S
C1469 C1468 1.397 . S
C1469 C1470 1.334 . S
C1470 H1441 0.950 . S
C1470 C1469 1.334 . S
C1470 C1471 1.287 . S
C1471 C1470 1.287 . S
C1471 C1472 1.524 . S
C1471 H1474 0.999 . S
C1472 H1442 0.950 . S
C1472 C1471 1.524 . S
C1472 C1473 1.415 . S
C1473 H1443 0.950 . S
C1473 C1468 1.363 . S
C1473 C1472 1.415 . S
H1474 C1471 0.999 . S
H1475 C1456 0.913 . S
H1476 C1494 0.951 . S
H1477 C1496 0.951 . S
H1478 C1498 0.950 . S
H1479 C1499 0.950 . S
H1480 C1501 0.948 . S
H1481 C1504 0.950 . S
H1482 C1505 0.950 . S
H1483 C1507 0.950 . S
H1484 C1508 0.950 . S
H1485 C1509 0.951 . S
H1486 C1511 0.951 . S
H1487 C1513 0.950 . S
H1488 C1514 0.950 . S
H1489 C1516 0.950 . S
H1490 C1519 0.950 . S
H1491 C1520 0.950 . S
H1492 C1522 0.950 . S
H1493 C1523 0.950 1_545 S
C1494 H1476 0.951 . S
C1494 C1495 1.366 . S
C1494 C1496 1.388 . S
C1495 C1494 1.366 . S
C1495 C1499 1.385 . S
C1496 H1477 0.951 . S
C1496 C1494 1.388 . S
C1496 C1497 1.366 . S
C1497 C1496 1.366 . S
C1497 C1498 1.414 . S
C1497 C1500 1.499 . S
C1498 H1478 0.950 . S
C1498 C1497 1.414 . S
C1498 C1499 1.374 . S
C1499 H1479 0.950 . S
C1499 C1495 1.385 . S
C1499 C1498 1.374 . S
C1500 C1497 1.499 . S
C1500 C1501 1.373 . S
C1500 C1502 1.389 . S
C1501 H1480 0.948 . S
C1501 C1500 1.373 . S
C1501 C1517 1.377 . S
C1502 C1500 1.389 . S
C1502 C1503 1.524 . S
C1502 C1516 1.377 . S
C1503 C1502 1.524 . S
C1503 C1504 1.397 . S
C1503 C1508 1.363 . S
C1504 H1481 0.950 . S
C1504 C1503 1.397 . S
C1504 C1505 1.334 . S
C1505 H1482 0.950 . S
C1505 C1504 1.334 . S
C1505 C1506 1.287 . S
C1506 C1505 1.287 . S
C1506 C1507 1.524 . S
C1506 H1525 0.913 . S
C1507 H1483 0.950 . S
C1507 C1506 1.524 . S
C1507 C1508 1.415 . S
C1508 H1484 0.950 . S
C1508 C1503 1.363 . S
C1508 C1507 1.415 . S
C1509 H1485 0.951 . S
C1509 C1510 1.366 . S
C1509 C1511 1.388 . S
C1510 C1509 1.366 . S
C1510 C1514 1.385 . S
C1511 H1486 0.951 . S
C1511 C1509 1.388 . S
C1511 C1512 1.366 . S
C1512 C1511 1.366 . S
C1512 C1513 1.414 . S
C1512 C1515 1.499 . S
C1513 H1487 0.950 . S
C1513 C1512 1.414 . S
C1513 C1514 1.374 . S
C1514 H1488 0.950 . S
C1514 C1510 1.385 . S
C1514 C1513 1.374 . S
C1515 C1512 1.499 . S
C1515 C1516 1.373 . S
C1515 C1517 1.389 . S
C1516 H1489 0.950 . S
C1516 C1502 1.377 . S
C1516 C1515 1.373 . S
C1517 C1501 1.377 . S
C1517 C1515 1.389 . S
C1517 C1518 1.524 . S
C1518 C1517 1.524 . S
C1518 C1519 1.397 1_545 S
C1518 C1523 1.363 1_545 S
C1519 H1490 0.950 . S
C1519 C1518 1.397 1_565 S
C1519 C1520 1.334 . S
C1520 H1491 0.950 . S
C1520 C1519 1.334 . S
C1520 C1521 1.287 . S
C1521 C1520 1.287 . S
C1521 C1522 1.524 . S
C1521 H1524 0.999 . S
C1522 H1492 0.950 . S
C1522 C1521 1.524 . S
C1522 C1523 1.415 . S
C1523 H1493 0.950 1_565 S
C1523 C1518 1.363 1_565 S
C1523 C1522 1.415 . S
H1524 C1521 0.999 . S
H1525 C1506 0.913 . S
H1526 C1544 0.951 . S
H1527 C1546 0.951 . S
H1528 C1548 0.950 . S
H1529 C1549 0.950 . S
H1530 C1551 0.950 . S
H1531 C1554 0.950 . S
H1532 C1555 0.950 . S
H1533 C1557 0.950 . S
H1534 C1558 0.950 . S
H1535 C1559 0.951 . S
H1536 C1561 0.951 . S
H1537 C1563 0.950 . S
H1538 C1564 0.950 . S
H1539 C1566 0.950 . S
H1540 C1569 0.950 . S
H1541 C1570 0.950 . S
H1542 C1572 0.950 . S
H1543 C1573 0.950 . S
C1544 H1526 0.951 . S
C1544 C1545 1.366 . S
C1544 C1546 1.388 . S
C1545 C1544 1.366 . S
C1545 C1549 1.385 . S
C1546 H1527 0.951 . S
C1546 C1544 1.388 . S
C1546 C1547 1.366 . S
C1547 C1546 1.366 . S
C1547 C1548 1.414 . S
C1547 C1550 1.499 . S
C1548 H1528 0.950 . S
C1548 C1547 1.414 . S
C1548 C1549 1.374 . S
C1549 H1529 0.950 . S
C1549 C1545 1.385 . S
C1549 C1548 1.374 . S
C1550 C1547 1.499 . S
C1550 C1551 1.373 . S
C1550 C1552 1.389 . S
C1551 H1530 0.950 . S
C1551 C1550 1.373 . S
C1551 C1567 1.377 . S
C1552 C1550 1.389 . S
C1552 C1553 1.524 . S
C1552 C1566 1.377 . S
C1553 C1552 1.524 . S
C1553 C1554 1.397 . S
C1553 C1558 1.363 . S
C1554 H1531 0.950 . S
C1554 C1553 1.397 . S
C1554 C1555 1.334 . S
C1555 H1532 0.950 . S
C1555 C1554 1.334 . S
C1555 C1556 1.287 . S
C1556 C1555 1.287 . S
C1556 C1557 1.524 . S
C1556 H1575 0.913 . S
C1557 H1533 0.950 . S
C1557 C1556 1.524 . S
C1557 C1558 1.415 . S
C1558 H1534 0.950 . S
C1558 C1553 1.363 . S
C1558 C1557 1.415 . S
C1559 H1535 0.951 . S
C1559 C1560 1.366 . S
C1559 C1561 1.388 . S
C1560 C1559 1.366 . S
C1560 C1564 1.385 . S
C1561 H1536 0.951 . S
C1561 C1559 1.388 . S
C1561 C1562 1.366 . S
C1562 C1561 1.366 . S
C1562 C1563 1.414 . S
C1562 C1565 1.499 . S
C1563 H1537 0.950 . S
C1563 C1562 1.414 . S
C1563 C1564 1.374 . S
C1564 H1538 0.950 . S
C1564 C1560 1.385 . S
C1564 C1563 1.374 . S
C1565 C1562 1.499 . S
C1565 C1566 1.373 . S
C1565 C1567 1.389 . S
C1566 H1539 0.950 . S
C1566 C1552 1.377 . S
C1566 C1565 1.373 . S
C1567 C1551 1.377 . S
C1567 C1565 1.389 . S
C1567 C1568 1.524 . S
C1568 C1567 1.524 . S
C1568 C1569 1.397 . S
C1568 C1573 1.363 . S
C1569 H1540 0.950 . S
C1569 C1568 1.397 . S
C1569 C1570 1.334 . S
C1570 H1541 0.950 . S
C1570 C1569 1.334 . S
C1570 C1571 1.287 . S
C1571 C1570 1.287 . S
C1571 C1572 1.524 . S
C1571 H1574 0.999 . S
C1572 H1542 0.950 . S
C1572 C1571 1.524 . S
C1572 C1573 1.415 . S
C1573 H1543 0.950 . S
C1573 C1568 1.363 . S
C1573 C1572 1.415 . S
H1574 C1571 0.999 . S
H1575 C1556 0.913 . S
H1576 C1594 0.951 . S
H1577 C1596 0.951 . S
H1578 C1598 0.950 . S
H1579 C1599 0.950 . S
H1580 C1601 0.950 . S
H1581 C1604 0.950 . S
H1582 C1605 0.950 . S
H1583 C1607 0.950 . S
H1584 C1608 0.950 . S
H1585 C1609 0.951 . S
H1586 C1611 0.956 . S
H1587 C1613 0.950 . S
H1588 C1614 0.950 . S
H1589 C1616 0.950 . S
H1590 C1619 0.950 . S
H1591 C1620 0.950 . S
H1592 C1622 0.950 . S
H1593 C1623 0.950 . S
C1594 H1576 0.951 . S
C1594 C1595 1.366 . S
C1594 C1596 1.388 . S
C1595 C1594 1.366 . S
C1595 C1599 1.385 . S
C1596 H1577 0.951 . S
C1596 C1594 1.388 . S
C1596 C1597 1.366 . S
C1597 C1596 1.366 . S
C1597 C1598 1.414 . S
C1597 C1600 1.499 . S
C1598 H1578 0.950 . S
C1598 C1597 1.414 . S
C1598 C1599 1.374 . S
C1599 H1579 0.950 . S
C1599 C1595 1.385 . S
C1599 C1598 1.374 . S
C1600 C1597 1.499 . S
C1600 C1601 1.373 . S
C1600 C1602 1.389 . S
C1601 H1580 0.950 . S
C1601 C1600 1.373 . S
C1601 C1617 1.377 . S
C1602 C1600 1.389 . S
C1602 C1603 1.524 . S
C1602 C1616 1.377 . S
C1603 C1602 1.524 . S
C1603 C1604 1.397 . S
C1603 C1608 1.363 . S
C1604 H1581 0.950 . S
C1604 C1603 1.397 . S
C1604 C1605 1.334 . S
C1605 H1582 0.950 . S
C1605 C1604 1.334 . S
C1605 C1606 1.287 . S
C1606 C1605 1.287 . S
C1606 C1607 1.524 . S
C1606 H1625 0.913 . S
C1607 H1583 0.950 . S
C1607 C1606 1.524 . S
C1607 C1608 1.415 . S
C1608 H1584 0.950 . S
C1608 C1603 1.363 . S
C1608 C1607 1.415 . S
C1609 H1585 0.951 . S
C1609 C1610 1.366 . S
C1609 C1611 1.388 1_455 S
C1610 C1609 1.366 . S
C1610 C1614 1.385 . S
C1611 H1586 0.956 . S
C1611 C1609 1.388 1_655 S
C1611 C1612 1.366 . S
C1612 C1611 1.366 . S
C1612 C1613 1.414 . S
C1612 C1615 1.499 . S
C1613 H1587 0.950 . S
C1613 C1612 1.414 . S
C1613 C1614 1.374 1_655 S
C1614 H1588 0.950 . S
C1614 C1610 1.385 . S
C1614 C1613 1.374 1_455 S
C1615 C1612 1.499 . S
C1615 C1616 1.373 . S
C1615 C1617 1.389 . S
C1616 H1589 0.950 . S
C1616 C1602 1.377 . S
C1616 C1615 1.373 . S
C1617 C1601 1.377 . S
C1617 C1615 1.389 . S
C1617 C1618 1.524 . S
C1618 C1617 1.524 . S
C1618 C1619 1.397 . S
C1618 C1623 1.363 . S
C1619 H1590 0.950 . S
C1619 C1618 1.397 . S
C1619 C1620 1.334 . S
C1620 H1591 0.950 . S
C1620 C1619 1.334 . S
C1620 C1621 1.287 1_545 S
C1621 C1620 1.287 1_565 S
C1621 C1622 1.524 . S
C1621 H1624 0.999 . S
C1622 H1592 0.950 . S
C1622 C1621 1.524 . S
C1622 C1623 1.415 1_565 S
C1623 H1593 0.950 . S
C1623 C1618 1.363 . S
C1623 C1622 1.415 1_545 S
H1624 C1621 0.999 . S
H1625 C1606 0.913 . S
H1626 C1644 0.951 . S
H1627 C1646 0.951 . S
H1628 C1648 0.950 . S
H1629 C1649 0.950 . S
H1630 C1651 0.950 . S
H1631 C1654 0.950 . S
H1632 C1655 0.950 . S
H1633 C1657 0.950 . S
H1634 C1658 0.950 . S
H1635 C1659 0.951 . S
H1636 C1661 0.951 . S
H1637 C1663 0.950 . S
H1638 C1664 0.950 . S
H1639 C1666 0.950 . S
H1640 C1669 0.950 . S
H1641 C1670 0.950 . S
H1642 C1672 0.950 . S
H1643 C1673 0.950 . S
C1644 H1626 0.951 . S
C1644 C1645 1.366 . S
C1644 C1646 1.388 . S
C1645 C1644 1.366 . S
C1645 C1649 1.385 . S
C1646 H1627 0.951 . S
C1646 C1644 1.388 . S
C1646 C1647 1.366 . S
C1647 C1646 1.366 . S
C1647 C1648 1.414 . S
C1647 C1650 1.499 . S
C1648 H1628 0.950 . S
C1648 C1647 1.414 . S
C1648 C1649 1.374 . S
C1649 H1629 0.950 . S
C1649 C1645 1.385 . S
C1649 C1648 1.374 . S
C1650 C1647 1.499 . S
C1650 C1651 1.373 . S
C1650 C1652 1.389 . S
C1651 H1630 0.950 . S
C1651 C1650 1.373 . S
C1651 C1667 1.377 . S
C1652 C1650 1.389 . S
C1652 C1653 1.524 . S
C1652 C1666 1.377 . S
C1653 C1652 1.524 . S
C1653 C1654 1.397 . S
C1653 C1658 1.363 . S
C1654 H1631 0.950 . S
C1654 C1653 1.397 . S
C1654 C1655 1.334 . S
C1655 H1632 0.950 . S
C1655 C1654 1.334 . S
C1655 C1656 1.287 . S
C1656 C1655 1.287 . S
C1656 C1657 1.524 . S
C1656 H1675 0.913 . S
C1657 H1633 0.950 . S
C1657 C1656 1.524 . S
C1657 C1658 1.415 . S
C1658 H1634 0.950 . S
C1658 C1653 1.363 . S
C1658 C1657 1.415 . S
C1659 H1635 0.951 . S
C1659 C1660 1.366 . S
C1659 C1661 1.388 . S
C1660 C1659 1.366 . S
C1660 C1664 1.385 . S
C1661 H1636 0.951 . S
C1661 C1659 1.388 . S
C1661 C1662 1.366 . S
C1662 C1661 1.366 . S
C1662 C1663 1.414 . S
C1662 C1665 1.499 . S
C1663 H1637 0.950 . S
C1663 C1662 1.414 . S
C1663 C1664 1.374 . S
C1664 H1638 0.950 . S
C1664 C1660 1.385 . S
C1664 C1663 1.374 . S
C1665 C1662 1.499 . S
C1665 C1666 1.373 . S
C1665 C1667 1.389 . S
C1666 H1639 0.950 . S
C1666 C1652 1.377 . S
C1666 C1665 1.373 . S
C1667 C1651 1.377 . S
C1667 C1665 1.389 . S
C1667 C1668 1.524 . S
C1668 C1667 1.524 . S
C1668 C1669 1.397 . S
C1668 C1673 1.363 . S
C1669 H1640 0.950 . S
C1669 C1668 1.397 . S
C1669 C1670 1.334 . S
C1670 H1641 0.950 . S
C1670 C1669 1.334 . S
C1670 C1671 1.287 . S
C1671 C1670 1.287 . S
C1671 C1672 1.524 . S
C1671 H1674 0.999 . S
C1672 H1642 0.950 . S
C1672 C1671 1.524 . S
C1672 C1673 1.415 . S
C1673 H1643 0.950 . S
C1673 C1668 1.363 . S
C1673 C1672 1.415 . S
H1674 C1671 0.999 . S
H1675 C1656 0.913 . S
H1676 C1694 0.951 . S
H1677 C1696 0.951 1_565 S
H1678 C1698 0.950 . S
H1679 C1699 0.950 . S
H1680 C1701 0.950 . S
H1681 C1704 0.950 . S
H1682 C1705 0.950 . S
H1683 C1707 0.950 . S
H1684 C1708 0.948 1_565 S
H1685 C1709 0.951 . S
H1686 C1711 0.951 . S
H1687 C1713 0.950 . S
H1688 C1714 0.950 . S
H1689 C1716 0.950 . S
H1690 C1719 0.950 . S
H1691 C1720 0.950 . S
H1692 C1722 0.950 . S
H1693 C1723 0.950 . S
C1694 H1676 0.951 . S
C1694 C1695 1.366 1_565 S
C1694 C1696 1.388 1_565 S
C1695 C1694 1.366 1_545 S
C1695 C1699 1.385 . S
C1696 H1677 0.951 1_545 S
C1696 C1694 1.388 1_545 S
C1696 C1697 1.366 . S
C1697 C1696 1.366 . S
C1697 C1698 1.414 . S
C1697 C1700 1.499 . S
C1698 H1678 0.950 . S
C1698 C1697 1.414 . S
C1698 C1699 1.374 . S
C1699 H1679 0.950 . S
C1699 C1695 1.385 . S
C1699 C1698 1.374 . S
C1700 C1697 1.499 . S
C1700 C1701 1.373 . S
C1700 C1702 1.389 . S
C1701 H1680 0.950 . S
C1701 C1700 1.373 . S
C1701 C1717 1.377 . S
C1702 C1700 1.389 . S
C1702 C1703 1.524 . S
C1702 C1716 1.377 . S
C1703 C1702 1.524 . S
C1703 C1704 1.397 . S
C1703 C1708 1.363 . S
C1704 H1681 0.950 . S
C1704 C1703 1.397 . S
C1704 C1705 1.334 . S
C1705 H1682 0.950 . S
C1705 C1704 1.334 . S
C1705 C1706 1.281 1_545 S
C1706 C1705 1.281 1_565 S
C1706 C1707 1.528 . S
C1706 H1725 0.916 . S
C1707 H1683 0.950 . S
C1707 C1706 1.528 . S
C1707 C1708 1.415 1_565 S
C1708 H1684 0.948 1_545 S
C1708 C1703 1.363 . S
C1708 C1707 1.415 1_545 S
C1709 H1685 0.951 . S
C1709 C1710 1.366 . S
C1709 C1711 1.388 . S
C1710 C1709 1.366 . S
C1710 C1714 1.385 . S
C1711 H1686 0.951 . S
C1711 C1709 1.388 . S
C1711 C1712 1.366 . S
C1712 C1711 1.366 . S
C1712 C1713 1.414 . S
C1712 C1715 1.499 . S
C1713 H1687 0.950 . S
C1713 C1712 1.414 . S
C1713 C1714 1.374 . S
C1714 H1688 0.950 . S
C1714 C1710 1.385 . S
C1714 C1713 1.374 . S
C1715 C1712 1.499 . S
C1715 C1716 1.373 . S
C1715 C1717 1.389 . S
C1716 H1689 0.950 . S
C1716 C1702 1.377 . S
C1716 C1715 1.373 . S
C1717 C1701 1.377 . S
C1717 C1715 1.389 . S
C1717 C1718 1.524 . S
C1718 C1717 1.524 . S
C1718 C1719 1.397 . S
C1718 C1723 1.363 . S
C1719 H1690 0.950 . S
C1719 C1718 1.397 . S
C1719 C1720 1.334 . S
C1720 H1691 0.950 . S
C1720 C1719 1.334 . S
C1720 C1721 1.287 . S
C1721 C1720 1.287 . S
C1721 C1722 1.524 . S
C1721 H1724 0.999 . S
C1722 H1692 0.950 . S
C1722 C1721 1.524 . S
C1722 C1723 1.415 . S
C1723 H1693 0.950 . S
C1723 C1718 1.363 . S
C1723 C1722 1.415 . S
H1724 C1721 0.999 . S
H1725 C1706 0.916 . S
H1726 C1744 0.951 . S
H1727 C1746 0.951 . S
H1728 C1748 0.950 . S
H1729 C1749 0.950 . S
H1730 C1751 0.950 . S
H1731 C1754 0.950 . S
H1732 C1755 0.950 . S
H1733 C1757 0.950 . S
H1734 C1758 0.950 . S
H1735 C1759 0.951 . S
H1736 C1761 0.951 . S
H1737 C1763 0.950 . S
H1738 C1764 0.950 . S
H1739 C1766 0.950 . S
H1740 C1769 0.950 . S
H1741 C1770 0.950 . S
H1742 C1772 0.950 . S
H1743 C1773 0.950 . S
C1744 H1726 0.951 . S
C1744 C1745 1.366 . S
C1744 C1746 1.388 . S
C1745 C1744 1.366 . S
C1745 C1749 1.385 . S
C1746 H1727 0.951 . S
C1746 C1744 1.388 . S
C1746 C1747 1.366 . S
C1747 C1746 1.366 . S
C1747 C1748 1.414 . S
C1747 C1750 1.499 . S
C1748 H1728 0.950 . S
C1748 C1747 1.414 . S
C1748 C1749 1.374 . S
C1749 H1729 0.950 . S
C1749 C1745 1.385 . S
C1749 C1748 1.374 . S
C1750 C1747 1.499 . S
C1750 C1751 1.373 . S
C1750 C1752 1.389 . S
C1751 H1730 0.950 . S
C1751 C1750 1.373 . S
C1751 C1767 1.377 . S
C1752 C1750 1.389 . S
C1752 C1753 1.524 . S
C1752 C1766 1.377 . S
C1753 C1752 1.524 . S
C1753 C1754 1.397 . S
C1753 C1758 1.363 . S
C1754 H1731 0.950 . S
C1754 C1753 1.397 . S
C1754 C1755 1.334 . S
C1755 H1732 0.950 . S
C1755 C1754 1.334 . S
C1755 C1756 1.287 . S
C1756 C1755 1.287 . S
C1756 C1757 1.524 . S
C1756 H1775 0.913 . S
C1757 H1733 0.950 . S
C1757 C1756 1.524 . S
C1757 C1758 1.415 . S
C1758 H1734 0.950 . S
C1758 C1753 1.363 . S
C1758 C1757 1.415 . S
C1759 H1735 0.951 . S
C1759 C1760 1.366 . S
C1759 C1761 1.388 . S
C1760 C1759 1.366 . S
C1760 C1764 1.385 . S
C1761 H1736 0.951 . S
C1761 C1759 1.388 . S
C1761 C1762 1.366 . S
C1762 C1761 1.366 . S
C1762 C1763 1.414 . S
C1762 C1765 1.499 . S
C1763 H1737 0.950 . S
C1763 C1762 1.414 . S
C1763 C1764 1.374 . S
C1764 H1738 0.950 . S
C1764 C1760 1.385 . S
C1764 C1763 1.374 . S
C1765 C1762 1.499 . S
C1765 C1766 1.373 . S
C1765 C1767 1.389 . S
C1766 H1739 0.950 . S
C1766 C1752 1.377 . S
C1766 C1765 1.373 . S
C1767 C1751 1.377 . S
C1767 C1765 1.389 . S
C1767 C1768 1.524 . S
C1768 C1767 1.524 . S
C1768 C1769 1.397 . S
C1768 C1773 1.363 . S
C1769 H1740 0.950 . S
C1769 C1768 1.397 . S
C1769 C1770 1.334 . S
C1770 H1741 0.950 . S
C1770 C1769 1.334 . S
C1770 C1771 1.287 . S
C1771 C1770 1.287 . S
C1771 C1772 1.524 . S
C1771 H1774 0.999 . S
C1772 H1742 0.950 . S
C1772 C1771 1.524 . S
C1772 C1773 1.415 . S
C1773 H1743 0.950 . S
C1773 C1768 1.363 . S
C1773 C1772 1.415 . S
H1774 C1771 0.999 . S
H1775 C1756 0.913 . S
H1776 C1794 0.951 . S
H1777 C1796 0.951 . S
H1778 C1798 0.950 . S
H1779 C1799 0.950 . S
H1780 C1801 0.950 . S
H1781 C1804 0.950 . S
H1782 C1805 0.950 . S
H1783 C1807 0.950 . S
H1784 C1808 0.950 . S
H1785 C1809 0.951 . S
H1786 C1811 0.951 1_565 S
H1787 C1813 0.950 . S
H1788 C1814 0.950 . S
H1789 C1816 0.950 . S
H1790 C1819 0.950 1_545 S
H1791 C1820 0.950 . S
H1792 C1822 0.950 . S
H1793 C1823 0.950 . S
C1794 H1776 0.951 . S
C1794 C1795 1.366 . S
C1794 C1796 1.388 . S
C1795 C1794 1.366 . S
C1795 C1799 1.385 . S
C1796 H1777 0.951 . S
C1796 C1794 1.388 . S
C1796 C1797 1.366 . S
C1797 C1796 1.366 . S
C1797 C1798 1.414 . S
C1797 C1800 1.499 . S
C1798 H1778 0.950 . S
C1798 C1797 1.414 . S
C1798 C1799 1.374 . S
C1799 H1779 0.950 . S
C1799 C1795 1.385 . S
C1799 C1798 1.374 . S
C1800 C1797 1.499 . S
C1800 C1801 1.373 . S
C1800 C1802 1.389 . S
C1801 H1780 0.950 . S
C1801 C1800 1.373 . S
C1801 C1817 1.377 . S
C1802 C1800 1.389 . S
C1802 C1803 1.524 1_565 S
C1802 C1816 1.377 1_565 S
C1803 C1802 1.524 1_545 S
C1803 C1804 1.397 1_545 S
C1803 C1808 1.363 . S
C1804 H1781 0.950 . S
C1804 C1803 1.397 1_565 S
C1804 C1805 1.334 . S
C1805 H1782 0.950 . S
C1805 C1804 1.334 . S
C1805 C1806 1.287 1_565 S
C1806 C1805 1.287 1_545 S
C1806 C1807 1.524 . S
C1806 H1825 0.913 . S
C1807 H1783 0.950 . S
C1807 C1806 1.524 . S
C1807 C1808 1.415 . S
C1808 H1784 0.950 . S
C1808 C1803 1.363 . S
C1808 C1807 1.415 . S
C1809 H1785 0.951 . S
C1809 C1810 1.366 . S
C1809 C1811 1.388 . S
C1810 C1809 1.366 . S
C1810 C1814 1.385 . S
C1811 H1786 0.951 1_545 S
C1811 C1809 1.388 . S
C1811 C1812 1.366 . S
C1812 C1811 1.366 . S
C1812 C1813 1.414 . S
C1812 C1815 1.499 . S
C1813 H1787 0.950 . S
C1813 C1812 1.414 . S
C1813 C1814 1.374 . S
C1814 H1788 0.950 . S
C1814 C1810 1.385 . S
C1814 C1813 1.374 . S
C1815 C1812 1.499 . S
C1815 C1816 1.373 . S
C1815 C1817 1.389 1_545 S
C1816 H1789 0.950 . S
C1816 C1802 1.377 1_545 S
C1816 C1815 1.373 . S
C1817 C1801 1.377 . S
C1817 C1815 1.389 1_565 S
C1817 C1818 1.524 . S
C1818 C1817 1.524 . S
C1818 C1819 1.397 . S
C1818 C1823 1.363 . S
C1819 H1790 0.950 1_565 S
C1819 C1818 1.397 . S
C1819 C1820 1.334 . S
C1820 H1791 0.950 . S
C1820 C1819 1.334 . S
C1820 C1821 1.287 . S
C1821 C1820 1.287 . S
C1821 C1822 1.524 . S
C1821 H1824 0.999 . S
C1822 H1792 0.950 . S
C1822 C1821 1.524 . S
C1822 C1823 1.415 . S
C1823 H1793 0.950 . S
C1823 C1818 1.363 . S
C1823 C1822 1.415 . S
H1824 C1821 0.999 . S
H1825 C1806 0.913 . S
H1826 C1844 0.951 . S
H1827 C1846 0.951 . S
H1828 C1848 0.950 . S
H1829 C1849 0.950 . S
H1830 C1851 0.950 . S
H1831 C1854 0.950 . S
H1832 C1855 0.960 . S
H1833 C1857 0.950 . S
H1834 C1858 0.950 . S
H1835 C1859 0.951 . S
H1836 C1861 0.951 . S
H1837 C1863 0.950 . S
H1838 C1864 0.950 . S
H1839 C1866 0.950 . S
H1840 C1869 0.950 . S
H1841 C1870 0.950 . S
H1842 C1872 0.950 . S
H1843 C1873 0.950 . S
C1844 H1826 0.951 . S
C1844 C1845 1.366 . S
C1844 C1846 1.388 . S
C1845 C1844 1.366 . S
C1845 C1849 1.385 . S
C1846 H1827 0.951 . S
C1846 C1844 1.388 . S
C1846 C1847 1.366 . S
C1847 C1846 1.366 . S
C1847 C1848 1.414 . S
C1847 C1850 1.499 . S
C1848 H1828 0.950 . S
C1848 C1847 1.414 . S
C1848 C1849 1.374 . S
C1849 H1829 0.950 . S
C1849 C1845 1.385 . S
C1849 C1848 1.374 . S
C1850 C1847 1.499 . S
C1850 C1851 1.373 . S
C1850 C1852 1.389 . S
C1851 H1830 0.950 . S
C1851 C1850 1.373 . S
C1851 C1867 1.377 . S
C1852 C1850 1.389 . S
C1852 C1853 1.524 . S
C1852 C1866 1.377 . S
C1853 C1852 1.524 . S
C1853 C1854 1.397 . S
C1853 C1858 1.363 1_554 S
C1854 H1831 0.950 . S
C1854 C1853 1.397 . S
C1854 C1855 1.334 1_554 S
C1855 H1832 0.960 . S
C1855 C1854 1.334 1_556 S
C1855 C1856 1.287 . S
C1856 C1855 1.287 . S
C1856 C1857 1.524 . S
C1856 H1875 0.913 . S
C1857 H1833 0.950 . S
C1857 C1856 1.524 . S
C1857 C1858 1.415 . S
C1858 H1834 0.950 . S
C1858 C1853 1.363 1_556 S
C1858 C1857 1.415 . S
C1859 H1835 0.951 . S
C1859 C1860 1.366 . S
C1859 C1861 1.388 . S
C1860 C1859 1.366 . S
C1860 C1864 1.385 . S
C1861 H1836 0.951 . S
C1861 C1859 1.388 . S
C1861 C1862 1.366 . S
C1862 C1861 1.366 . S
C1862 C1863 1.414 . S
C1862 C1865 1.499 . S
C1863 H1837 0.950 . S
C1863 C1862 1.414 . S
C1863 C1864 1.374 . S
C1864 H1838 0.950 . S
C1864 C1860 1.385 . S
C1864 C1863 1.374 . S
C1865 C1862 1.499 . S
C1865 C1866 1.373 . S
C1865 C1867 1.389 . S
C1866 H1839 0.950 . S
C1866 C1852 1.377 . S
C1866 C1865 1.373 . S
C1867 C1851 1.377 . S
C1867 C1865 1.389 . S
C1867 C1868 1.524 . S
C1868 C1867 1.524 . S
C1868 C1869 1.397 . S
C1868 C1873 1.363 . S
C1869 H1840 0.950 . S
C1869 C1868 1.397 . S
C1869 C1870 1.334 . S
C1870 H1841 0.950 . S
C1870 C1869 1.334 . S
C1870 C1871 1.287 . S
C1871 C1870 1.287 . S
C1871 C1872 1.524 . S
C1871 H1874 0.999 . S
C1872 H1842 0.950 . S
C1872 C1871 1.524 . S
C1872 C1873 1.415 . S
C1873 H1843 0.950 . S
C1873 C1868 1.363 . S
C1873 C1872 1.415 . S
H1874 C1871 0.999 . S
H1875 C1856 0.913 . S
H1876 C1894 0.951 . S
H1877 C1896 0.951 . S
H1878 C1898 0.950 . S
H1879 C1899 0.950 . S
H1880 C1901 0.950 . S
H1881 C1904 0.950 . S
H1882 C1905 0.950 . S
H1883 C1907 0.950 . S
H1884 C1908 0.950 . S
H1885 C1909 0.951 . S
H1886 C1911 0.951 . S
H1887 C1913 0.950 . S
H1888 C1914 0.950 . S
H1889 C1916 0.950 . S
H1890 C1919 0.950 . S
H1891 C1920 0.950 . S
H1892 C1922 0.950 . S
H1893 C1923 0.950 . S
C1894 H1876 0.951 . S
C1894 C1895 1.366 . S
C1894 C1896 1.388 . S
C1895 C1894 1.366 . S
C1895 C1899 1.385 . S
C1896 H1877 0.951 . S
C1896 C1894 1.388 . S
C1896 C1897 1.366 . S
C1897 C1896 1.366 . S
C1897 C1898 1.414 . S
C1897 C1900 1.499 . S
C1898 H1878 0.950 . S
C1898 C1897 1.414 . S
C1898 C1899 1.374 . S
C1899 H1879 0.950 . S
C1899 C1895 1.385 . S
C1899 C1898 1.374 . S
C1900 C1897 1.499 . S
C1900 C1901 1.373 . S
C1900 C1902 1.389 . S
C1901 H1880 0.950 . S
C1901 C1900 1.373 . S
C1901 C1917 1.377 . S
C1902 C1900 1.389 . S
C1902 C1903 1.524 . S
C1902 C1916 1.377 . S
C1903 C1902 1.524 . S
C1903 C1904 1.397 . S
C1903 C1908 1.363 . S
C1904 H1881 0.950 . S
C1904 C1903 1.397 . S
C1904 C1905 1.334 . S
C1905 H1882 0.950 . S
C1905 C1904 1.334 . S
C1905 C1906 1.287 . S
C1906 C1905 1.287 . S
C1906 C1907 1.524 . S
C1906 H1925 0.913 . S
C1907 H1883 0.950 . S
C1907 C1906 1.524 . S
C1907 C1908 1.415 . S
C1908 H1884 0.950 . S
C1908 C1903 1.363 . S
C1908 C1907 1.415 . S
C1909 H1885 0.951 . S
C1909 C1910 1.366 . S
C1909 C1911 1.388 . S
C1910 C1909 1.366 . S
C1910 C1914 1.385 . S
C1911 H1886 0.951 . S
C1911 C1909 1.388 . S
C1911 C1912 1.366 . S
C1912 C1911 1.366 . S
C1912 C1913 1.414 . S
C1912 C1915 1.499 . S
C1913 H1887 0.950 . S
C1913 C1912 1.414 . S
C1913 C1914 1.374 . S
C1914 H1888 0.950 . S
C1914 C1910 1.385 . S
C1914 C1913 1.374 . S
C1915 C1912 1.499 . S
C1915 C1916 1.373 . S
C1915 C1917 1.389 . S
C1916 H1889 0.950 . S
C1916 C1902 1.377 . S
C1916 C1915 1.373 . S
C1917 C1901 1.377 . S
C1917 C1915 1.389 . S
C1917 C1918 1.524 . S
C1918 C1917 1.524 . S
C1918 C1919 1.397 . S
C1918 C1923 1.363 . S
C1919 H1890 0.950 . S
C1919 C1918 1.397 . S
C1919 C1920 1.334 . S
C1920 H1891 0.950 . S
C1920 C1919 1.334 . S
C1920 C1921 1.287 . S
C1921 C1920 1.287 . S
C1921 C1922 1.524 . S
C1921 H1924 0.999 . S
C1922 H1892 0.950 . S
C1922 C1921 1.524 . S
C1922 C1923 1.415 . S
C1923 H1893 0.950 . S
C1923 C1918 1.363 . S
C1923 C1922 1.415 . S
H1924 C1921 0.999 . S
H1925 C1906 0.913 . S
H1926 C1944 0.951 . S
H1927 C1946 0.951 . S
H1928 C1948 0.950 . S
H1929 C1949 0.950 . S
H1930 C1951 0.950 . S
H1931 C1954 0.950 . S
H1932 C1955 0.950 . S
H1933 C1957 0.950 . S
H1934 C1958 0.950 . S
H1935 C1959 0.951 . S
H1936 C1961 0.951 . S
H1937 C1963 0.950 . S
H1938 C1964 0.950 . S
H1939 C1966 0.950 . S
H1940 C1969 0.950 . S
H1941 C1970 0.950 . S
H1942 C1972 0.950 . S
H1943 C1973 0.950 . S
C1944 H1926 0.951 . S
C1944 C1945 1.366 . S
C1944 C1946 1.388 . S
C1945 C1944 1.366 . S
C1945 C1949 1.385 . S
C1946 H1927 0.951 . S
C1946 C1944 1.388 . S
C1946 C1947 1.366 . S
C1947 C1946 1.366 . S
C1947 C1948 1.414 . S
C1947 C1950 1.499 . S
C1948 H1928 0.950 . S
C1948 C1947 1.414 . S
C1948 C1949 1.374 . S
C1949 H1929 0.950 . S
C1949 C1945 1.385 . S
C1949 C1948 1.374 . S
C1950 C1947 1.499 . S
C1950 C1951 1.373 . S
C1950 C1952 1.389 . S
C1951 H1930 0.950 . S
C1951 C1950 1.373 . S
C1951 C1967 1.377 . S
C1952 C1950 1.389 . S
C1952 C1953 1.524 . S
C1952 C1966 1.377 . S
C1953 C1952 1.524 . S
C1953 C1954 1.397 . S
C1953 C1958 1.363 . S
C1954 H1931 0.950 . S
C1954 C1953 1.397 . S
C1954 C1955 1.334 . S
C1955 H1932 0.950 . S
C1955 C1954 1.334 . S
C1955 C1956 1.287 . S
C1956 C1955 1.287 . S
C1956 C1957 1.524 . S
C1956 H1975 0.913 . S
C1957 H1933 0.950 . S
C1957 C1956 1.524 . S
C1957 C1958 1.415 . S
C1958 H1934 0.950 . S
C1958 C1953 1.363 . S
C1958 C1957 1.415 . S
C1959 H1935 0.951 . S
C1959 C1960 1.366 . S
C1959 C1961 1.388 . S
C1960 C1959 1.366 . S
C1960 C1964 1.385 . S
C1961 H1936 0.951 . S
C1961 C1959 1.388 . S
C1961 C1962 1.366 . S
C1962 C1961 1.366 . S
C1962 C1963 1.414 . S
C1962 C1965 1.499 . S
C1963 H1937 0.950 . S
C1963 C1962 1.414 . S
C1963 C1964 1.374 . S
C1964 H1938 0.950 . S
C1964 C1960 1.385 . S
C1964 C1963 1.374 . S
C1965 C1962 1.499 . S
C1965 C1966 1.373 . S
C1965 C1967 1.389 . S
C1966 H1939 0.950 . S
C1966 C1952 1.377 . S
C1966 C1965 1.373 . S
C1967 C1951 1.377 . S
C1967 C1965 1.389 . S
C1967 C1968 1.524 . S
C1968 C1967 1.524 . S
C1968 C1969 1.397 . S
C1968 C1973 1.363 . S
C1969 H1940 0.950 . S
C1969 C1968 1.397 . S
C1969 C1970 1.334 . S
C1970 H1941 0.950 . S
C1970 C1969 1.334 . S
C1970 C1971 1.287 . S
C1971 C1970 1.287 . S
C1971 C1972 1.524 . S
C1971 H1974 0.999 . S
C1972 H1942 0.950 . S
C1972 C1971 1.524 . S
C1972 C1973 1.415 . S
C1973 H1943 0.950 . S
C1973 C1968 1.363 . S
C1973 C1972 1.415 . S
H1974 C1971 0.999 . S
H1975 C1956 0.913 . S
H1976 C1994 0.951 . S
H1977 C1996 0.951 . S
H1978 C1998 0.950 . S
H1979 C1999 0.950 . S
H1980 C2001 0.950 . S
H1981 C2004 0.950 . S
H1982 C2005 0.950 . S
H1983 C2007 0.950 . S
H1984 C2008 0.950 . S
H1985 C2009 0.951 . S
H1986 C2011 0.951 . S
H1987 C2013 0.950 . S
H1988 C2014 0.950 . S
H1989 C2016 0.950 . S
H1990 C2019 0.950 . S
H1991 C2020 0.950 . S
H1992 C2022 0.950 . S
H1993 C2023 0.950 . S
C1994 H1976 0.951 . S
C1994 C1995 1.366 . S
C1994 C1996 1.388 . S
C1995 C1994 1.366 . S
C1995 C1999 1.385 . S
C1996 H1977 0.951 . S
C1996 C1994 1.388 . S
C1996 C1997 1.366 . S
C1997 C1996 1.366 . S
C1997 C1998 1.414 . S
C1997 C2000 1.499 . S
C1998 H1978 0.950 . S
C1998 C1997 1.414 . S
C1998 C1999 1.374 . S
C1999 H1979 0.950 . S
C1999 C1995 1.385 . S
C1999 C1998 1.374 . S
C2000 C1997 1.499 . S
C2000 C2001 1.373 . S
C2000 C2002 1.389 . S
C2001 H1980 0.950 . S
C2001 C2000 1.373 . S
C2001 C2017 1.377 . S
C2002 C2000 1.389 . S
C2002 C2003 1.524 . S
C2002 C2016 1.377 . S
C2003 C2002 1.524 . S
C2003 C2004 1.397 . S
C2003 C2008 1.363 . S
C2004 H1981 0.950 . S
C2004 C2003 1.397 . S
C2004 C2005 1.334 . S
C2005 H1982 0.950 . S
C2005 C2004 1.334 . S
C2005 C2006 1.287 . S
C2006 C2005 1.287 . S
C2006 C2007 1.524 . S
C2006 H2025 0.913 . S
C2007 H1983 0.950 . S
C2007 C2006 1.524 . S
C2007 C2008 1.415 . S
C2008 H1984 0.950 . S
C2008 C2003 1.363 . S
C2008 C2007 1.415 . S
C2009 H1985 0.951 . S
C2009 C2010 1.366 . S
C2009 C2011 1.388 . S
C2010 C2009 1.366 . S
C2010 C2014 1.385 . S
C2011 H1986 0.951 . S
C2011 C2009 1.388 . S
C2011 C2012 1.366 . S
C2012 C2011 1.366 . S
C2012 C2013 1.414 . S
C2012 C2015 1.499 . S
C2013 H1987 0.950 . S
C2013 C2012 1.414 . S
C2013 C2014 1.374 . S
C2014 H1988 0.950 . S
C2014 C2010 1.385 . S
C2014 C2013 1.374 . S
C2015 C2012 1.499 . S
C2015 C2016 1.373 . S
C2015 C2017 1.389 . S
C2016 H1989 0.950 . S
C2016 C2002 1.377 . S
C2016 C2015 1.373 . S
C2017 C2001 1.377 . S
C2017 C2015 1.389 . S
C2017 C2018 1.524 . S
C2018 C2017 1.524 . S
C2018 C2019 1.397 . S
C2018 C2023 1.363 . S
C2019 H1990 0.950 . S
C2019 C2018 1.397 . S
C2019 C2020 1.334 . S
C2020 H1991 0.950 . S
C2020 C2019 1.334 . S
C2020 C2021 1.287 . S
C2021 C2020 1.287 . S
C2021 C2022 1.524 . S
C2021 H2024 0.999 . S
C2022 H1992 0.950 . S
C2022 C2021 1.524 . S
C2022 C2023 1.415 . S
C2023 H1993 0.950 . S
C2023 C2018 1.363 . S
C2023 C2022 1.415 . S
H2024 C2021 0.999 . S
H2025 C2006 0.913 . S
H2026 C2044 0.951 . S
H2027 C2046 0.951 . S
H2028 C2048 0.950 . S
H2029 C2049 0.950 . S
H2030 C2051 0.950 . S
H2031 C2054 0.950 . S
H2032 C2055 0.950 . S
H2033 C2057 0.950 . S
H2034 C2058 0.950 . S
H2035 C2059 0.951 . S
H2036 C2061 0.951 . S
H2037 C2063 0.950 . S
H2038 C2064 0.950 . S
H2039 C2066 0.950 . S
H2040 C2069 0.950 . S
H2041 C2070 0.950 . S
H2042 C2072 0.950 . S
H2043 C2073 0.950 . S
C2044 H2026 0.951 . S
C2044 C2045 1.366 . S
C2044 C2046 1.388 . S
C2045 C2044 1.366 . S
C2045 C2049 1.385 . S
C2046 H2027 0.951 . S
C2046 C2044 1.388 . S
C2046 C2047 1.366 . S
C2047 C2046 1.366 . S
C2047 C2048 1.414 . S
C2047 C2050 1.499 . S
C2048 H2028 0.950 . S
C2048 C2047 1.414 . S
C2048 C2049 1.374 . S
C2049 H2029 0.950 . S
C2049 C2045 1.385 . S
C2049 C2048 1.374 . S
C2050 C2047 1.499 . S
C2050 C2051 1.373 . S
C2050 C2052 1.389 . S
C2051 H2030 0.950 . S
C2051 C2050 1.373 . S
C2051 C2067 1.377 . S
C2052 C2050 1.389 . S
C2052 C2053 1.524 . S
C2052 C2066 1.377 . S
C2053 C2052 1.524 . S
C2053 C2054 1.397 . S
C2053 C2058 1.363 . S
C2054 H2031 0.950 . S
C2054 C2053 1.397 . S
C2054 C2055 1.334 . S
C2055 H2032 0.950 . S
C2055 C2054 1.334 . S
C2055 C2056 1.287 . S
C2056 C2055 1.287 . S
C2056 C2057 1.524 . S
C2056 H2075 0.913 . S
C2057 H2033 0.950 . S
C2057 C2056 1.524 . S
C2057 C2058 1.415 . S
C2058 H2034 0.950 . S
C2058 C2053 1.363 . S
C2058 C2057 1.415 . S
C2059 H2035 0.951 . S
C2059 C2060 1.366 . S
C2059 C2061 1.388 . S
C2060 C2059 1.366 . S
C2060 C2064 1.385 . S
C2061 H2036 0.951 . S
C2061 C2059 1.388 . S
C2061 C2062 1.366 . S
C2062 C2061 1.366 . S
C2062 C2063 1.414 . S
C2062 C2065 1.499 . S
C2063 H2037 0.950 . S
C2063 C2062 1.414 . S
C2063 C2064 1.374 . S
C2064 H2038 0.950 . S
C2064 C2060 1.385 . S
C2064 C2063 1.374 . S
C2065 C2062 1.499 . S
C2065 C2066 1.373 . S
C2065 C2067 1.389 . S
C2066 H2039 0.950 . S
C2066 C2052 1.377 . S
C2066 C2065 1.373 . S
C2067 C2051 1.377 . S
C2067 C2065 1.389 . S
C2067 C2068 1.524 . S
C2068 C2067 1.524 . S
C2068 C2069 1.397 . S
C2068 C2073 1.363 . S
C2069 H2040 0.950 . S
C2069 C2068 1.397 . S
C2069 C2070 1.334 . S
C2070 H2041 0.950 . S
C2070 C2069 1.334 . S
C2070 C2071 1.287 . S
C2071 C2070 1.287 . S
C2071 C2072 1.524 . S
C2071 H2074 0.999 . S
C2072 H2042 0.950 . S
C2072 C2071 1.524 . S
C2072 C2073 1.415 . S
C2073 H2043 0.950 . S
C2073 C2068 1.363 . S
C2073 C2072 1.415 . S
H2074 C2071 0.999 . S
H2075 C2056 0.913 . S
H2076 C2094 0.951 . S
H2077 C2096 0.951 . S
H2078 C2098 0.950 . S
H2079 C2099 0.950 . S
H2080 C2101 0.950 . S
H2081 C2104 0.950 . S
H2082 C2105 0.950 . S
H2083 C2107 0.950 . S
H2084 C2108 0.950 . S
H2085 C2109 0.951 . S
H2086 C2111 0.951 . S
H2087 C2113 0.950 . S
H2088 C2114 0.950 . S
H2089 C2116 0.950 . S
H2090 C2119 0.950 . S
H2091 C2120 0.950 . S
H2092 C2122 0.950 . S
H2093 C2123 0.950 . S
C2094 H2076 0.951 . S
C2094 C2095 1.366 . S
C2094 C2096 1.388 . S
C2095 C2094 1.366 . S
C2095 C2099 1.385 . S
C2096 H2077 0.951 . S
C2096 C2094 1.388 . S
C2096 C2097 1.366 . S
C2097 C2096 1.366 . S
C2097 C2098 1.414 . S
C2097 C2100 1.499 . S
C2098 H2078 0.950 . S
C2098 C2097 1.414 . S
C2098 C2099 1.374 . S
C2099 H2079 0.950 . S
C2099 C2095 1.385 . S
C2099 C2098 1.374 . S
C2100 C2097 1.499 . S
C2100 C2101 1.373 . S
C2100 C2102 1.389 . S
C2101 H2080 0.950 . S
C2101 C2100 1.373 . S
C2101 C2117 1.377 . S
C2102 C2100 1.389 . S
C2102 C2103 1.524 . S
C2102 C2116 1.377 . S
C2103 C2102 1.524 . S
C2103 C2104 1.397 . S
C2103 C2108 1.363 . S
C2104 H2081 0.950 . S
C2104 C2103 1.397 . S
C2104 C2105 1.334 . S
C2105 H2082 0.950 . S
C2105 C2104 1.334 . S
C2105 C2106 1.287 . S
C2106 C2105 1.287 . S
C2106 C2107 1.524 . S
C2106 H2125 0.913 . S
C2107 H2083 0.950 . S
C2107 C2106 1.524 . S
C2107 C2108 1.415 . S
C2108 H2084 0.950 . S
C2108 C2103 1.363 . S
C2108 C2107 1.415 . S
C2109 H2085 0.951 . S
C2109 C2110 1.366 . S
C2109 C2111 1.388 . S
C2110 C2109 1.366 . S
C2110 C2114 1.385 . S
C2111 H2086 0.951 . S
C2111 C2109 1.388 . S
C2111 C2112 1.366 . S
C2112 C2111 1.366 . S
C2112 C2113 1.414 . S
C2112 C2115 1.499 . S
C2113 H2087 0.950 . S
C2113 C2112 1.414 . S
C2113 C2114 1.374 . S
C2114 H2088 0.950 . S
C2114 C2110 1.385 . S
C2114 C2113 1.374 . S
C2115 C2112 1.499 . S
C2115 C2116 1.373 . S
C2115 C2117 1.389 . S
C2116 H2089 0.950 . S
C2116 C2102 1.377 . S
C2116 C2115 1.373 . S
C2117 C2101 1.377 . S
C2117 C2115 1.389 . S
C2117 C2118 1.524 . S
C2118 C2117 1.524 . S
C2118 C2119 1.397 . S
C2118 C2123 1.363 . S
C2119 H2090 0.950 . S
C2119 C2118 1.397 . S
C2119 C2120 1.334 . S
C2120 H2091 0.950 . S
C2120 C2119 1.334 . S
C2120 C2121 1.287 . S
C2121 C2120 1.287 . S
C2121 C2122 1.524 . S
C2121 H2124 0.999 . S
C2122 H2092 0.950 . S
C2122 C2121 1.524 . S
C2122 C2123 1.415 . S
C2123 H2093 0.950 . S
C2123 C2118 1.363 . S
C2123 C2122 1.415 . S
H2124 C2121 0.999 . S
H2125 C2106 0.913 . S
H2126 C2144 0.951 . S
H2127 C2146 0.951 . S
H2128 C2148 0.950 . S
H2129 C2149 0.950 . S
H2130 C2151 0.950 . S
H2131 C2154 0.950 . S
H2132 C2155 0.950 . S
H2133 C2157 0.950 . S
H2134 C2158 0.950 . S
H2135 C2159 0.951 . S
H2136 C2161 0.951 . S
H2137 C2163 0.950 . S
H2138 C2164 0.950 . S
H2139 C2166 0.950 . S
H2140 C2169 0.950 . S
H2141 C2170 0.950 . S
H2142 C2172 0.950 . S
H2143 C2173 0.950 . S
C2144 H2126 0.951 . S
C2144 C2145 1.366 . S
C2144 C2146 1.388 . S
C2145 C2144 1.366 . S
C2145 C2149 1.385 . S
C2146 H2127 0.951 . S
C2146 C2144 1.388 . S
C2146 C2147 1.366 . S
C2147 C2146 1.366 . S
C2147 C2148 1.414 . S
C2147 C2150 1.499 . S
C2148 H2128 0.950 . S
C2148 C2147 1.414 . S
C2148 C2149 1.374 . S
C2149 H2129 0.950 . S
C2149 C2145 1.385 . S
C2149 C2148 1.374 . S
C2150 C2147 1.499 . S
C2150 C2151 1.373 . S
C2150 C2152 1.389 . S
C2151 H2130 0.950 . S
C2151 C2150 1.373 . S
C2151 C2167 1.377 . S
C2152 C2150 1.389 . S
C2152 C2153 1.524 . S
C2152 C2166 1.377 . S
C2153 C2152 1.524 . S
C2153 C2154 1.397 . S
C2153 C2158 1.363 . S
C2154 H2131 0.950 . S
C2154 C2153 1.397 . S
C2154 C2155 1.334 . S
C2155 H2132 0.950 . S
C2155 C2154 1.334 . S
C2155 C2156 1.287 . S
C2156 C2155 1.287 . S
C2156 C2157 1.524 . S
C2156 H2175 0.913 . S
C2157 H2133 0.950 . S
C2157 C2156 1.524 . S
C2157 C2158 1.415 . S
C2158 H2134 0.950 . S
C2158 C2153 1.363 . S
C2158 C2157 1.415 . S
C2159 H2135 0.951 . S
C2159 C2160 1.366 . S
C2159 C2161 1.388 . S
C2160 C2159 1.366 . S
C2160 C2164 1.385 . S
C2161 H2136 0.951 . S
C2161 C2159 1.388 . S
C2161 C2162 1.366 . S
C2162 C2161 1.366 . S
C2162 C2163 1.414 . S
C2162 C2165 1.499 . S
C2163 H2137 0.950 . S
C2163 C2162 1.414 . S
C2163 C2164 1.374 . S
C2164 H2138 0.950 . S
C2164 C2160 1.385 . S
C2164 C2163 1.374 . S
C2165 C2162 1.499 . S
C2165 C2166 1.373 . S
C2165 C2167 1.389 . S
C2166 H2139 0.950 . S
C2166 C2152 1.377 . S
C2166 C2165 1.373 . S
C2167 C2151 1.377 . S
C2167 C2165 1.389 . S
C2167 C2168 1.524 . S
C2168 C2167 1.524 . S
C2168 C2169 1.397 . S
C2168 C2173 1.363 . S
C2169 H2140 0.950 . S
C2169 C2168 1.397 . S
C2169 C2170 1.334 . S
C2170 H2141 0.950 . S
C2170 C2169 1.334 . S
C2170 C2171 1.287 . S
C2171 C2170 1.287 . S
C2171 C2172 1.524 . S
C2171 H2174 0.999 . S
C2172 H2142 0.950 . S
C2172 C2171 1.524 . S
C2172 C2173 1.415 . S
C2173 H2143 0.950 . S
C2173 C2168 1.363 . S
C2173 C2172 1.415 . S
H2174 C2171 0.999 . S
H2175 C2156 0.913 . S
H2176 C2194 0.951 . S
H2177 C2196 0.951 . S
H2178 C2198 0.950 . S
H2179 C2199 0.950 . S
H2180 C2201 0.950 . S
H2181 C2204 0.950 . S
H2182 C2205 0.950 . S
H2183 C2207 0.950 1_655 S
H2184 C2208 0.950 . S
H2185 C2209 0.951 . S
H2186 C2211 0.951 . S
H2187 C2213 0.950 . S
H2188 C2214 0.948 1_545 S
H2189 C2216 0.950 . S
H2190 C2219 0.950 . S
H2191 C2220 0.950 . S
H2192 C2222 0.950 . S
H2193 C2223 0.950 . S
C2194 H2176 0.951 . S
C2194 C2195 1.366 . S
C2194 C2196 1.388 . S
C2195 C2194 1.366 . S
C2195 C2199 1.385 . S
C2196 H2177 0.951 . S
C2196 C2194 1.388 . S
C2196 C2197 1.366 . S
C2197 C2196 1.366 . S
C2197 C2198 1.414 . S
C2197 C2200 1.499 . S
C2198 H2178 0.950 . S
C2198 C2197 1.414 . S
C2198 C2199 1.374 . S
C2199 H2179 0.950 . S
C2199 C2195 1.385 . S
C2199 C2198 1.374 . S
C2200 C2197 1.499 . S
C2200 C2201 1.373 . S
C2200 C2202 1.389 . S
C2201 H2180 0.950 . S
C2201 C2200 1.373 . S
C2201 C2217 1.377 . S
C2202 C2200 1.389 . S
C2202 C2203 1.524 . S
C2202 C2216 1.377 . S
C2203 C2202 1.524 . S
C2203 C2204 1.397 . S
C2203 C2208 1.363 . S
C2204 H2181 0.950 . S
C2204 C2203 1.397 . S
C2204 C2205 1.334 . S
C2205 H2182 0.950 . S
C2205 C2204 1.334 . S
C2205 C2206 1.287 . S
C2206 C2205 1.287 . S
C2206 C2207 1.524 . S
C2206 H2225 0.913 . S
C2207 H2183 0.950 1_455 S
C2207 C2206 1.524 . S
C2207 C2208 1.415 . S
C2208 H2184 0.950 . S
C2208 C2203 1.363 . S
C2208 C2207 1.415 . S
C2209 H2185 0.951 . S
C2209 C2210 1.366 . S
C2209 C2211 1.388 1_545 S
C2210 C2209 1.366 . S
C2210 C2214 1.385 1_545 S
C2211 H2186 0.951 . S
C2211 C2209 1.388 1_565 S
C2211 C2212 1.366 . S
C2212 C2211 1.366 . S
C2212 C2213 1.414 . S
C2212 C2215 1.499 . S
C2213 H2187 0.950 . S
C2213 C2212 1.414 . S
C2213 C2214 1.374 . S
C2214 H2188 0.948 1_565 S
C2214 C2210 1.385 1_565 S
C2214 C2213 1.374 . S
C2215 C2212 1.499 . S
C2215 C2216 1.373 . S
C2215 C2217 1.389 . S
C2216 H2189 0.950 . S
C2216 C2202 1.377 . S
C2216 C2215 1.373 . S
C2217 C2201 1.377 . S
C2217 C2215 1.389 . S
C2217 C2218 1.524 . S
C2218 C2217 1.524 . S
C2218 C2219 1.397 . S
C2218 C2223 1.363 . S
C2219 H2190 0.950 . S
C2219 C2218 1.397 . S
C2219 C2220 1.334 1_565 S
C2220 H2191 0.950 . S
C2220 C2219 1.334 1_545 S
C2220 C2221 1.287 . S
C2221 C2220 1.287 . S
C2221 C2222 1.524 . S
C2221 H2224 0.999 . S
C2222 H2192 0.950 . S
C2222 C2221 1.524 . S
C2222 C2223 1.415 1_545 S
C2223 H2193 0.950 . S
C2223 C2218 1.363 . S
C2223 C2222 1.415 1_565 S
H2224 C2221 0.999 . S
H2225 C2206 0.913 . S
H2226 C2244 0.951 . S
H2227 C2246 0.951 . S
H2228 C2248 0.950 . S
H2229 C2249 0.950 . S
H2230 C2251 0.950 . S
H2231 C2254 0.950 . S
H2232 C2255 0.950 . S
H2233 C2257 0.950 . S
H2234 C2258 0.950 . S
H2235 C2259 0.951 . S
H2236 C2261 0.951 . S
H2237 C2263 0.950 . S
H2238 C2264 0.950 . S
H2239 C2266 0.950 . S
H2240 C2269 0.950 . S
H2241 C2270 0.950 . S
H2242 C2272 0.950 . S
H2243 C2273 0.950 . S
C2244 H2226 0.951 . S
C2244 C2245 1.366 . S
C2244 C2246 1.388 . S
C2245 C2244 1.366 . S
C2245 C2249 1.385 . S
C2246 H2227 0.951 . S
C2246 C2244 1.388 . S
C2246 C2247 1.366 . S
C2247 C2246 1.366 . S
C2247 C2248 1.414 . S
C2247 C2250 1.499 . S
C2248 H2228 0.950 . S
C2248 C2247 1.414 . S
C2248 C2249 1.374 . S
C2249 H2229 0.950 . S
C2249 C2245 1.385 . S
C2249 C2248 1.374 . S
C2250 C2247 1.499 . S
C2250 C2251 1.373 . S
C2250 C2252 1.389 . S
C2251 H2230 0.950 . S
C2251 C2250 1.373 . S
C2251 C2267 1.377 . S
C2252 C2250 1.389 . S
C2252 C2253 1.524 . S
C2252 C2266 1.377 . S
C2253 C2252 1.524 . S
C2253 C2254 1.397 . S
C2253 C2258 1.363 . S
C2254 H2231 0.950 . S
C2254 C2253 1.397 . S
C2254 C2255 1.334 . S
C2255 H2232 0.950 . S
C2255 C2254 1.334 . S
C2255 C2256 1.287 . S
C2256 C2255 1.287 . S
C2256 C2257 1.524 . S
C2256 H2275 0.913 . S
C2257 H2233 0.950 . S
C2257 C2256 1.524 . S
C2257 C2258 1.415 . S
C2258 H2234 0.950 . S
C2258 C2253 1.363 . S
C2258 C2257 1.415 . S
C2259 H2235 0.951 . S
C2259 C2260 1.366 . S
C2259 C2261 1.388 . S
C2260 C2259 1.366 . S
C2260 C2264 1.385 . S
C2261 H2236 0.951 . S
C2261 C2259 1.388 . S
C2261 C2262 1.366 . S
C2262 C2261 1.366 . S
C2262 C2263 1.414 . S
C2262 C2265 1.499 . S
C2263 H2237 0.950 . S
C2263 C2262 1.414 . S
C2263 C2264 1.374 . S
C2264 H2238 0.950 . S
C2264 C2260 1.385 . S
C2264 C2263 1.374 . S
C2265 C2262 1.499 . S
C2265 C2266 1.373 . S
C2265 C2267 1.389 . S
C2266 H2239 0.950 . S
C2266 C2252 1.377 . S
C2266 C2265 1.373 . S
C2267 C2251 1.377 . S
C2267 C2265 1.389 . S
C2267 C2268 1.524 . S
C2268 C2267 1.524 . S
C2268 C2269 1.397 . S
C2268 C2273 1.363 . S
C2269 H2240 0.950 . S
C2269 C2268 1.397 . S
C2269 C2270 1.334 . S
C2270 H2241 0.950 . S
C2270 C2269 1.334 . S
C2270 C2271 1.287 . S
C2271 C2270 1.287 . S
C2271 C2272 1.524 . S
C2271 H2274 0.999 . S
C2272 H2242 0.950 . S
C2272 C2271 1.524 . S
C2272 C2273 1.415 . S
C2273 H2243 0.950 . S
C2273 C2268 1.363 . S
C2273 C2272 1.415 . S
H2274 C2271 0.999 . S
H2275 C2256 0.913 . S
H2276 C2294 0.951 . S
H2277 C2296 0.951 . S
H2278 C2298 0.950 . S
H2279 C2299 0.950 . S
H2280 C2301 0.950 . S
H2281 C2304 0.950 . S
H2282 C2305 0.950 . S
H2283 C2307 0.950 . S
H2284 C2308 0.950 . S
H2285 C2309 0.951 . S
H2286 C2311 0.951 . S
H2287 C2313 0.950 . S
H2288 C2314 0.950 . S
H2289 C2316 0.950 . S
H2290 C2319 0.950 . S
H2291 C2320 0.950 . S
H2292 C2322 0.950 . S
H2293 C2323 0.950 . S
C2294 H2276 0.951 . S
C2294 C2295 1.366 . S
C2294 C2296 1.388 . S
C2295 C2294 1.366 . S
C2295 C2299 1.385 . S
C2296 H2277 0.951 . S
C2296 C2294 1.388 . S
C2296 C2297 1.366 . S
C2297 C2296 1.366 . S
C2297 C2298 1.414 . S
C2297 C2300 1.499 . S
C2298 H2278 0.950 . S
C2298 C2297 1.414 . S
C2298 C2299 1.374 . S
C2299 H2279 0.950 . S
C2299 C2295 1.385 . S
C2299 C2298 1.374 . S
C2300 C2297 1.499 . S
C2300 C2301 1.373 . S
C2300 C2302 1.389 . S
C2301 H2280 0.950 . S
C2301 C2300 1.373 . S
C2301 C2317 1.377 . S
C2302 C2300 1.389 . S
C2302 C2303 1.524 . S
C2302 C2316 1.377 . S
C2303 C2302 1.524 . S
C2303 C2304 1.397 . S
C2303 C2308 1.363 . S
C2304 H2281 0.950 . S
C2304 C2303 1.397 . S
C2304 C2305 1.334 . S
C2305 H2282 0.950 . S
C2305 C2304 1.334 . S
C2305 C2306 1.287 . S
C2306 C2305 1.287 . S
C2306 C2307 1.524 . S
C2306 H2325 0.913 . S
C2307 H2283 0.950 . S
C2307 C2306 1.524 . S
C2307 C2308 1.415 . S
C2308 H2284 0.950 . S
C2308 C2303 1.363 . S
C2308 C2307 1.415 . S
C2309 H2285 0.951 . S
C2309 C2310 1.366 . S
C2309 C2311 1.388 . S
C2310 C2309 1.366 . S
C2310 C2314 1.385 . S
C2311 H2286 0.951 . S
C2311 C2309 1.388 . S
C2311 C2312 1.366 . S
C2312 C2311 1.366 . S
C2312 C2313 1.414 . S
C2312 C2315 1.499 . S
C2313 H2287 0.950 . S
C2313 C2312 1.414 . S
C2313 C2314 1.374 . S
C2314 H2288 0.950 . S
C2314 C2310 1.385 . S
C2314 C2313 1.374 . S
C2315 C2312 1.499 . S
C2315 C2316 1.373 . S
C2315 C2317 1.389 . S
C2316 H2289 0.950 . S
C2316 C2302 1.377 . S
C2316 C2315 1.373 . S
C2317 C2301 1.377 . S
C2317 C2315 1.389 . S
C2317 C2318 1.524 . S
C2318 C2317 1.524 . S
C2318 C2319 1.397 . S
C2318 C2323 1.363 . S
C2319 H2290 0.950 . S
C2319 C2318 1.397 . S
C2319 C2320 1.334 . S
C2320 H2291 0.950 . S
C2320 C2319 1.334 . S
C2320 C2321 1.287 . S
C2321 C2320 1.287 . S
C2321 C2322 1.524 . S
C2321 H2324 0.999 . S
C2322 H2292 0.950 . S
C2322 C2321 1.524 . S
C2322 C2323 1.415 . S
C2323 H2293 0.950 . S
C2323 C2318 1.363 . S
C2323 C2322 1.415 . S
H2324 C2321 0.999 . S
H2325 C2306 0.913 . S
H2326 C2344 0.951 . S
H2327 C2346 0.951 . S
H2328 C2348 0.950 . S
H2329 C2349 0.950 . S
H2330 C2351 0.950 . S
H2331 C2354 0.950 . S
H2332 C2355 0.950 . S
H2333 C2357 0.950 . S
H2334 C2358 0.950 . S
H2335 C2359 0.951 . S
H2336 C2361 0.951 . S
H2337 C2363 0.950 . S
H2338 C2364 0.950 . S
H2339 C2366 0.950 . S
H2340 C2369 0.950 . S
H2341 C2370 0.950 . S
H2342 C2372 0.950 . S
H2343 C2373 0.950 . S
C2344 H2326 0.951 . S
C2344 C2345 1.366 . S
C2344 C2346 1.388 . S
C2345 C2344 1.366 . S
C2345 C2349 1.385 . S
C2346 H2327 0.951 . S
C2346 C2344 1.388 . S
C2346 C2347 1.366 . S
C2347 C2346 1.366 . S
C2347 C2348 1.414 . S
C2347 C2350 1.499 . S
C2348 H2328 0.950 . S
C2348 C2347 1.414 . S
C2348 C2349 1.374 . S
C2349 H2329 0.950 . S
C2349 C2345 1.385 . S
C2349 C2348 1.374 . S
C2350 C2347 1.499 . S
C2350 C2351 1.373 . S
C2350 C2352 1.389 . S
C2351 H2330 0.950 . S
C2351 C2350 1.373 . S
C2351 C2367 1.377 . S
C2352 C2350 1.389 . S
C2352 C2353 1.524 . S
C2352 C2366 1.377 . S
C2353 C2352 1.524 . S
C2353 C2354 1.397 . S
C2353 C2358 1.363 . S
C2354 H2331 0.950 . S
C2354 C2353 1.397 . S
C2354 C2355 1.334 . S
C2355 H2332 0.950 . S
C2355 C2354 1.334 . S
C2355 C2356 1.287 . S
C2356 C2355 1.287 . S
C2356 C2357 1.524 . S
C2356 H2375 0.913 . S
C2357 H2333 0.950 . S
C2357 C2356 1.524 . S
C2357 C2358 1.415 . S
C2358 H2334 0.950 . S
C2358 C2353 1.363 . S
C2358 C2357 1.415 . S
C2359 H2335 0.951 . S
C2359 C2360 1.366 . S
C2359 C2361 1.388 . S
C2360 C2359 1.366 . S
C2360 C2364 1.385 . S
C2361 H2336 0.951 . S
C2361 C2359 1.388 . S
C2361 C2362 1.366 . S
C2362 C2361 1.366 . S
C2362 C2363 1.414 . S
C2362 C2365 1.499 . S
C2363 H2337 0.950 . S
C2363 C2362 1.414 . S
C2363 C2364 1.374 . S
C2364 H2338 0.950 . S
C2364 C2360 1.385 . S
C2364 C2363 1.374 . S
C2365 C2362 1.499 . S
C2365 C2366 1.373 . S
C2365 C2367 1.389 . S
C2366 H2339 0.950 . S
C2366 C2352 1.377 . S
C2366 C2365 1.373 . S
C2367 C2351 1.377 . S
C2367 C2365 1.389 . S
C2367 C2368 1.524 . S
C2368 C2367 1.524 . S
C2368 C2369 1.397 . S
C2368 C2373 1.363 . S
C2369 H2340 0.950 . S
C2369 C2368 1.397 . S
C2369 C2370 1.334 . S
C2370 H2341 0.950 . S
C2370 C2369 1.334 . S
C2370 C2371 1.287 . S
C2371 C2370 1.287 . S
C2371 C2372 1.524 . S
C2371 H2374 0.999 . S
C2372 H2342 0.950 . S
C2372 C2371 1.524 . S
C2372 C2373 1.415 . S
C2373 H2343 0.950 . S
C2373 C2368 1.363 . S
C2373 C2372 1.415 . S
H2374 C2371 0.999 . S
H2375 C2356 0.913 . S
H2376 C2394 0.951 . S
H2377 C2396 0.951 . S
H2378 C2398 0.950 . S
H2379 C2399 0.950 . S
H2380 C2401 0.950 . S
H2381 C2404 0.950 1_455 S
H2382 C2405 0.950 . S
H2383 C2407 0.950 . S
H2384 C2408 0.950 . S
H2385 C2409 0.951 . S
H2386 C2411 0.951 . S
H2387 C2413 0.950 1_655 S
H2388 C2414 0.950 . S
H2389 C2416 0.950 1_655 S
H2390 C2419 0.950 . S
H2391 C2420 0.950 . S
H2392 C2422 0.950 . S
H2393 C2423 0.950 . S
C2394 H2376 0.951 . S
C2394 C2395 1.366 1_655 S
C2394 C2396 1.388 . S
C2395 C2394 1.366 1_455 S
C2395 C2399 1.385 . S
C2396 H2377 0.951 . S
C2396 C2394 1.388 . S
C2396 C2397 1.366 1_655 S
C2397 C2396 1.366 1_455 S
C2397 C2398 1.414 . S
C2397 C2400 1.499 . S
C2398 H2378 0.950 . S
C2398 C2397 1.414 . S
C2398 C2399 1.374 . S
C2399 H2379 0.950 . S
C2399 C2395 1.385 . S
C2399 C2398 1.374 . S
C2400 C2397 1.499 . S
C2400 C2401 1.373 . S
C2400 C2402 1.389 . S
C2401 H2380 0.950 . S
C2401 C2400 1.373 . S
C2401 C2417 1.377 . S
C2402 C2400 1.389 . S
C2402 C2403 1.524 1_455 S
C2402 C2416 1.377 . S
C2403 C2402 1.524 1_655 S
C2403 C2404 1.397 . S
C2403 C2408 1.363 . S
C2404 H2381 0.950 1_655 S
C2404 C2403 1.397 . S
C2404 C2405 1.334 . S
C2405 H2382 0.950 . S
C2405 C2404 1.334 . S
C2405 C2406 1.287 . S
C2406 C2405 1.287 . S
C2406 C2407 1.524 . S
C2406 H2425 0.913 . S
C2407 H2383 0.950 . S
C2407 C2406 1.524 . S
C2407 C2408 1.415 . S
C2408 H2384 0.950 . S
C2408 C2403 1.363 . S
C2408 C2407 1.415 . S
C2409 H2385 0.951 . S
C2409 C2410 1.366 . S
C2409 C2411 1.388 . S
C2410 C2409 1.366 . S
C2410 C2414 1.385 . S
C2411 H2386 0.951 . S
C2411 C2409 1.388 . S
C2411 C2412 1.366 . S
C2412 C2411 1.366 . S
C2412 C2413 1.414 . S
C2412 C2415 1.499 . S
C2413 H2387 0.950 1_455 S
C2413 C2412 1.414 . S
C2413 C2414 1.374 . S
C2414 H2388 0.950 . S
C2414 C2410 1.385 . S
C2414 C2413 1.374 . S
C2415 C2412 1.499 . S
C2415 C2416 1.373 . S
C2415 C2417 1.389 . S
C2416 H2389 0.950 1_455 S
C2416 C2402 1.377 . S
C2416 C2415 1.373 . S
C2417 C2401 1.377 . S
C2417 C2415 1.389 . S
C2417 C2418 1.524 . S
C2418 C2417 1.524 . S
C2418 C2419 1.397 . S
C2418 C2423 1.363 . S
C2419 H2390 0.950 . S
C2419 C2418 1.397 . S
C2419 C2420 1.334 . S
C2420 H2391 0.950 . S
C2420 C2419 1.334 . S
C2420 C2421 1.287 . S
C2421 C2420 1.287 . S
C2421 C2422 1.524 . S
C2421 H2424 0.999 . S
C2422 H2392 0.950 . S
C2422 C2421 1.524 . S
C2422 C2423 1.415 . S
C2423 H2393 0.950 . S
C2423 C2418 1.363 . S
C2423 C2422 1.415 . S
H2424 C2421 0.999 . S
H2425 C2406 0.913 . S
H2426 C2444 0.951 . S
H2427 C2446 0.951 . S
H2428 C2448 0.950 . S
H2429 C2449 0.950 . S
H2430 C2451 0.950 . S
H2431 C2454 0.950 . S
H2432 C2455 0.950 . S
H2433 C2457 0.950 . S
H2434 C2458 0.950 . S
H2435 C2459 0.951 . S
H2436 C2461 0.951 . S
H2437 C2463 0.950 . S
H2438 C2464 0.950 . S
H2439 C2466 0.950 . S
H2440 C2469 0.950 . S
H2441 C2470 0.950 . S
H2442 C2472 0.950 . S
H2443 C2473 0.950 . S
C2444 H2426 0.951 . S
C2444 C2445 1.366 . S
C2444 C2446 1.388 . S
C2445 C2444 1.366 . S
C2445 C2449 1.385 . S
C2446 H2427 0.951 . S
C2446 C2444 1.388 . S
C2446 C2447 1.366 . S
C2447 C2446 1.366 . S
C2447 C2448 1.414 . S
C2447 C2450 1.499 . S
C2448 H2428 0.950 . S
C2448 C2447 1.414 . S
C2448 C2449 1.374 . S
C2449 H2429 0.950 . S
C2449 C2445 1.385 . S
C2449 C2448 1.374 . S
C2450 C2447 1.499 . S
C2450 C2451 1.373 . S
C2450 C2452 1.389 . S
C2451 H2430 0.950 . S
C2451 C2450 1.373 . S
C2451 C2467 1.377 . S
C2452 C2450 1.389 . S
C2452 C2453 1.524 . S
C2452 C2466 1.377 . S
C2453 C2452 1.524 . S
C2453 C2454 1.397 . S
C2453 C2458 1.363 . S
C2454 H2431 0.950 . S
C2454 C2453 1.397 . S
C2454 C2455 1.334 . S
C2455 H2432 0.950 . S
C2455 C2454 1.334 . S
C2455 C2456 1.287 . S
C2456 C2455 1.287 . S
C2456 C2457 1.524 . S
C2456 H2475 0.913 . S
C2457 H2433 0.950 . S
C2457 C2456 1.524 . S
C2457 C2458 1.415 . S
C2458 H2434 0.950 . S
C2458 C2453 1.363 . S
C2458 C2457 1.415 . S
C2459 H2435 0.951 . S
C2459 C2460 1.366 . S
C2459 C2461 1.388 . S
C2460 C2459 1.366 . S
C2460 C2464 1.385 . S
C2461 H2436 0.951 . S
C2461 C2459 1.388 . S
C2461 C2462 1.366 . S
C2462 C2461 1.366 . S
C2462 C2463 1.414 . S
C2462 C2465 1.499 . S
C2463 H2437 0.950 . S
C2463 C2462 1.414 . S
C2463 C2464 1.374 . S
C2464 H2438 0.950 . S
C2464 C2460 1.385 . S
C2464 C2463 1.374 . S
C2465 C2462 1.499 . S
C2465 C2466 1.373 . S
C2465 C2467 1.389 . S
C2466 H2439 0.950 . S
C2466 C2452 1.377 . S
C2466 C2465 1.373 . S
C2467 C2451 1.377 . S
C2467 C2465 1.389 . S
C2467 C2468 1.524 . S
C2468 C2467 1.524 . S
C2468 C2469 1.397 . S
C2468 C2473 1.363 . S
C2469 H2440 0.950 . S
C2469 C2468 1.397 . S
C2469 C2470 1.334 . S
C2470 H2441 0.950 . S
C2470 C2469 1.334 . S
C2470 C2471 1.287 . S
C2471 C2470 1.287 . S
C2471 C2472 1.524 . S
C2471 H2474 0.999 . S
C2472 H2442 0.950 . S
C2472 C2471 1.524 . S
C2472 C2473 1.415 . S
C2473 H2443 0.950 . S
C2473 C2468 1.363 . S
C2473 C2472 1.415 . S
H2474 C2471 0.999 . S
H2475 C2456 0.913 . S
H2476 C2494 0.951 . S
H2477 C2496 0.951 . S
H2478 C2498 0.950 . S
H2479 C2499 0.950 . S
H2480 C2501 0.950 . S
H2481 C2504 0.950 . S
H2482 C2505 0.950 . S
H2483 C2507 0.950 . S
H2484 C2508 0.950 . S
H2485 C2509 0.951 . S
H2486 C2511 0.951 . S
H2487 C2513 0.950 . S
H2488 C2514 0.950 1_545 S
H2489 C2516 0.950 . S
H2490 C2519 0.950 1_556 S
H2491 C2520 0.950 . S
H2492 C2522 0.950 . S
H2493 C2523 0.950 . S
C2494 H2476 0.951 . S
C2494 C2495 1.366 . S
C2494 C2496 1.388 . S
C2495 C2494 1.366 . S
C2495 C2499 1.385 . S
C2496 H2477 0.951 . S
C2496 C2494 1.388 . S
C2496 C2497 1.366 . S
C2497 C2496 1.366 . S
C2497 C2498 1.414 . S
C2497 C2500 1.499 . S
C2498 H2478 0.950 . S
C2498 C2497 1.414 . S
C2498 C2499 1.374 . S
C2499 H2479 0.950 . S
C2499 C2495 1.385 . S
C2499 C2498 1.374 . S
C2500 C2497 1.499 . S
C2500 C2501 1.373 . S
C2500 C2502 1.389 . S
C2501 H2480 0.950 . S
C2501 C2500 1.373 . S
C2501 C2517 1.377 . S
C2502 C2500 1.389 . S
C2502 C2503 1.524 . S
C2502 C2516 1.377 . S
C2503 C2502 1.524 . S
C2503 C2504 1.397 . S
C2503 C2508 1.363 . S
C2504 H2481 0.950 . S
C2504 C2503 1.397 . S
C2504 C2505 1.334 . S
C2505 H2482 0.950 . S
C2505 C2504 1.334 . S
C2505 C2506 1.287 . S
C2506 C2505 1.287 . S
C2506 C2507 1.524 . S
C2506 H2525 0.913 . S
C2507 H2483 0.950 . S
C2507 C2506 1.524 . S
C2507 C2508 1.415 . S
C2508 H2484 0.950 . S
C2508 C2503 1.363 . S
C2508 C2507 1.415 . S
C2509 H2485 0.951 . S
C2509 C2510 1.366 . S
C2509 C2511 1.388 . S
C2510 C2509 1.366 . S
C2510 C2514 1.385 1_554 S
C2511 H2486 0.951 . S
C2511 C2509 1.388 . S
C2511 C2512 1.366 1_554 S
C2512 C2511 1.366 1_556 S
C2512 C2513 1.414 . S
C2512 C2515 1.499 . S
C2513 H2487 0.950 . S
C2513 C2512 1.414 . S
C2513 C2514 1.374 . S
C2514 H2488 0.950 1_565 S
C2514 C2510 1.385 1_556 S
C2514 C2513 1.374 . S
C2515 C2512 1.499 . S
C2515 C2516 1.373 . S
C2515 C2517 1.389 . S
C2516 H2489 0.950 . S
C2516 C2502 1.377 . S
C2516 C2515 1.373 . S
C2517 C2501 1.377 . S
C2517 C2515 1.389 . S
C2517 C2518 1.524 1_556 S
C2518 C2517 1.524 1_554 S
C2518 C2519 1.397 . S
C2518 C2523 1.363 . S
C2519 H2490 0.950 1_554 S
C2519 C2518 1.397 . S
C2519 C2520 1.334 . S
C2520 H2491 0.950 . S
C2520 C2519 1.334 . S
C2520 C2521 1.287 . S
C2521 C2520 1.287 . S
C2521 C2522 1.524 . S
C2521 H2524 0.999 . S
C2522 H2492 0.950 . S
C2522 C2521 1.524 . S
C2522 C2523 1.415 . S
C2523 H2493 0.950 . S
C2523 C2518 1.363 . S
C2523 C2522 1.415 . S
H2524 C2521 0.999 . S
H2525 C2506 0.913 . S
H2526 C2544 0.951 . S
H2527 C2546 0.951 . S
H2528 C2548 0.950 . S
H2529 C2549 0.950 . S
H2530 C2551 0.950 . S
H2531 C2554 0.950 . S
H2532 C2555 0.950 . S
H2533 C2557 0.950 . S
H2534 C2558 0.950 . S
H2535 C2559 0.951 . S
H2536 C2561 0.951 . S
H2537 C2563 0.950 . S
H2538 C2564 0.950 . S
H2539 C2566 0.950 . S
H2540 C2569 0.950 . S
H2541 C2570 0.950 . S
H2542 C2572 0.950 . S
H2543 C2573 0.950 . S
C2544 H2526 0.951 . S
C2544 C2545 1.366 . S
C2544 C2546 1.388 . S
C2545 C2544 1.366 . S
C2545 C2549 1.385 1_455 S
C2546 H2527 0.951 . S
C2546 C2544 1.388 . S
C2546 C2547 1.366 1_455 S
C2547 C2546 1.366 1_655 S
C2547 C2548 1.414 . S
C2547 C2550 1.499 . S
C2548 H2528 0.950 . S
C2548 C2547 1.414 . S
C2548 C2549 1.374 . S
C2549 H2529 0.950 . S
C2549 C2545 1.385 1_655 S
C2549 C2548 1.374 . S
C2550 C2547 1.499 . S
C2550 C2551 1.373 . S
C2550 C2552 1.389 . S
C2551 H2530 0.950 . S
C2551 C2550 1.373 . S
C2551 C2567 1.377 . S
C2552 C2550 1.389 . S
C2552 C2553 1.524 . S
C2552 C2566 1.377 . S
C2553 C2552 1.524 . S
C2553 C2554 1.397 . S
C2553 C2558 1.363 . S
C2554 H2531 0.950 . S
C2554 C2553 1.397 . S
C2554 C2555 1.334 1_655 S
C2555 H2532 0.950 . S
C2555 C2554 1.334 1_455 S
C2555 C2556 1.287 . S
C2556 C2555 1.287 . S
C2556 C2557 1.524 . S
C2556 H2575 0.913 . S
C2557 H2533 0.950 . S
C2557 C2556 1.524 . S
C2557 C2558 1.415 1_455 S
C2558 H2534 0.950 . S
C2558 C2553 1.363 . S
C2558 C2557 1.415 1_655 S
C2559 H2535 0.951 . S
C2559 C2560 1.366 . S
C2559 C2561 1.388 . S
C2560 C2559 1.366 . S
C2560 C2564 1.385 . S
C2561 H2536 0.951 . S
C2561 C2559 1.388 . S
C2561 C2562 1.366 . S
C2562 C2561 1.366 . S
C2562 C2563 1.414 . S
C2562 C2565 1.499 . S
C2563 H2537 0.950 . S
C2563 C2562 1.414 . S
C2563 C2564 1.374 . S
C2564 H2538 0.950 . S
C2564 C2560 1.385 . S
C2564 C2563 1.374 . S
C2565 C2562 1.499 . S
C2565 C2566 1.373 . S
C2565 C2567 1.389 . S
C2566 H2539 0.950 . S
C2566 C2552 1.377 . S
C2566 C2565 1.373 . S
C2567 C2551 1.377 . S
C2567 C2565 1.389 . S
C2567 C2568 1.524 . S
C2568 C2567 1.524 . S
C2568 C2569 1.397 . S
C2568 C2573 1.363 . S
C2569 H2540 0.950 . S
C2569 C2568 1.397 . S
C2569 C2570 1.334 . S
C2570 H2541 0.950 . S
C2570 C2569 1.334 . S
C2570 C2571 1.287 . S
C2571 C2570 1.287 . S
C2571 C2572 1.524 . S
C2571 H2574 0.999 . S
C2572 H2542 0.950 . S
C2572 C2571 1.524 . S
C2572 C2573 1.415 . S
C2573 H2543 0.950 . S
C2573 C2568 1.363 . S
C2573 C2572 1.415 . S
H2574 C2571 0.999 . S
H2575 C2556 0.913 . S
H2576 C2594 0.951 . S
H2577 C2596 0.951 . S
H2578 C2598 0.950 . S
H2579 C2599 0.950 . S
H2580 C2601 0.950 . S
H2581 C2604 0.950 . S
H2582 C2605 0.950 . S
H2583 C2607 0.950 . S
H2584 C2608 0.950 . S
H2585 C2609 0.951 . S
H2586 C2611 0.951 . S
H2587 C2613 0.950 . S
H2588 C2614 0.950 . S
H2589 C2616 0.950 . S
H2590 C2619 0.950 . S
H2591 C2620 0.950 . S
H2592 C2622 0.950 . S
H2593 C2623 0.950 . S
C2594 H2576 0.951 . S
C2594 C2595 1.366 . S
C2594 C2596 1.388 . S
C2595 C2594 1.366 . S
C2595 C2599 1.385 . S
C2596 H2577 0.951 . S
C2596 C2594 1.388 . S
C2596 C2597 1.366 . S
C2597 C2596 1.366 . S
C2597 C2598 1.414 . S
C2597 C2600 1.499 . S
C2598 H2578 0.950 . S
C2598 C2597 1.414 . S
C2598 C2599 1.374 . S
C2599 H2579 0.950 . S
C2599 C2595 1.385 . S
C2599 C2598 1.374 . S
C2600 C2597 1.499 . S
C2600 C2601 1.373 . S
C2600 C2602 1.389 . S
C2601 H2580 0.950 . S
C2601 C2600 1.373 . S
C2601 C2617 1.377 . S
C2602 C2600 1.389 . S
C2602 C2603 1.524 . S
C2602 C2616 1.377 . S
C2603 C2602 1.524 . S
C2603 C2604 1.397 . S
C2603 C2608 1.363 . S
C2604 H2581 0.950 . S
C2604 C2603 1.397 . S
C2604 C2605 1.334 . S
C2605 H2582 0.950 . S
C2605 C2604 1.334 . S
C2605 C2606 1.287 . S
C2606 C2605 1.287 . S
C2606 C2607 1.524 . S
C2606 H2625 0.913 . S
C2607 H2583 0.950 . S
C2607 C2606 1.524 . S
C2607 C2608 1.415 . S
C2608 H2584 0.950 . S
C2608 C2603 1.363 . S
C2608 C2607 1.415 . S
C2609 H2585 0.951 . S
C2609 C2610 1.366 . S
C2609 C2611 1.388 . S
C2610 C2609 1.366 . S
C2610 C2614 1.385 . S
C2611 H2586 0.951 . S
C2611 C2609 1.388 . S
C2611 C2612 1.366 . S
C2612 C2611 1.366 . S
C2612 C2613 1.414 . S
C2612 C2615 1.499 . S
C2613 H2587 0.950 . S
C2613 C2612 1.414 . S
C2613 C2614 1.374 . S
C2614 H2588 0.950 . S
C2614 C2610 1.385 . S
C2614 C2613 1.374 . S
C2615 C2612 1.499 . S
C2615 C2616 1.373 . S
C2615 C2617 1.389 . S
C2616 H2589 0.950 . S
C2616 C2602 1.377 . S
C2616 C2615 1.373 . S
C2617 C2601 1.377 . S
C2617 C2615 1.389 . S
C2617 C2618 1.524 . S
C2618 C2617 1.524 . S
C2618 C2619 1.397 . S
C2618 C2623 1.363 . S
C2619 H2590 0.950 . S
C2619 C2618 1.397 . S
C2619 C2620 1.334 1_556 S
C2620 H2591 0.950 . S
C2620 C2619 1.334 1_554 S
C2620 C2621 1.287 . S
C2621 C2620 1.287 . S
C2621 C2622 1.524 1_554 S
C2621 H2624 0.999 . S
C2622 H2592 0.950 . S
C2622 C2621 1.524 1_556 S
C2622 C2623 1.415 . S
C2623 H2593 0.950 . S
C2623 C2618 1.363 . S
C2623 C2622 1.415 . S
H2624 C2621 0.999 . S
H2625 C2606 0.913 . S
H2626 C2644 0.951 . S
H2627 C2646 0.951 . S
H2628 C2648 0.950 . S
H2629 C2649 0.950 . S
H2630 C2651 0.950 . S
H2631 C2654 0.950 . S
H2632 C2655 0.950 . S
H2633 C2657 0.950 . S
H2634 C2658 0.950 . S
H2635 C2659 0.951 . S
H2636 C2661 0.951 . S
H2637 C2663 0.950 . S
H2638 C2664 0.950 . S
H2639 C2666 0.950 . S
H2640 C2669 0.950 . S
H2641 C2670 0.950 . S
H2642 C2672 0.950 . S
H2643 C2673 0.950 . S
C2644 H2626 0.951 . S
C2644 C2645 1.366 . S
C2644 C2646 1.388 . S
C2645 C2644 1.366 . S
C2645 C2649 1.385 . S
C2646 H2627 0.951 . S
C2646 C2644 1.388 . S
C2646 C2647 1.366 . S
C2647 C2646 1.366 . S
C2647 C2648 1.414 . S
C2647 C2650 1.499 . S
C2648 H2628 0.950 . S
C2648 C2647 1.414 . S
C2648 C2649 1.374 . S
C2649 H2629 0.950 . S
C2649 C2645 1.385 . S
C2649 C2648 1.374 . S
C2650 C2647 1.499 . S
C2650 C2651 1.373 . S
C2650 C2652 1.389 . S
C2651 H2630 0.950 . S
C2651 C2650 1.373 . S
C2651 C2667 1.377 . S
C2652 C2650 1.389 . S
C2652 C2653 1.524 . S
C2652 C2666 1.377 . S
C2653 C2652 1.524 . S
C2653 C2654 1.397 . S
C2653 C2658 1.363 . S
C2654 H2631 0.950 . S
C2654 C2653 1.397 . S
C2654 C2655 1.334 . S
C2655 H2632 0.950 . S
C2655 C2654 1.334 . S
C2655 C2656 1.287 . S
C2656 C2655 1.287 . S
C2656 C2657 1.524 . S
C2656 H2675 0.913 . S
C2657 H2633 0.950 . S
C2657 C2656 1.524 . S
C2657 C2658 1.415 . S
C2658 H2634 0.950 . S
C2658 C2653 1.363 . S
C2658 C2657 1.415 . S
C2659 H2635 0.951 . S
C2659 C2660 1.366 . S
C2659 C2661 1.388 . S
C2660 C2659 1.366 . S
C2660 C2664 1.385 . S
C2661 H2636 0.951 . S
C2661 C2659 1.388 . S
C2661 C2662 1.366 . S
C2662 C2661 1.366 . S
C2662 C2663 1.414 . S
C2662 C2665 1.499 . S
C2663 H2637 0.950 . S
C2663 C2662 1.414 . S
C2663 C2664 1.374 . S
C2664 H2638 0.950 . S
C2664 C2660 1.385 . S
C2664 C2663 1.374 . S
C2665 C2662 1.499 . S
C2665 C2666 1.373 . S
C2665 C2667 1.389 . S
C2666 H2639 0.950 . S
C2666 C2652 1.377 . S
C2666 C2665 1.373 . S
C2667 C2651 1.377 . S
C2667 C2665 1.389 . S
C2667 C2668 1.524 . S
C2668 C2667 1.524 . S
C2668 C2669 1.397 . S
C2668 C2673 1.363 . S
C2669 H2640 0.950 . S
C2669 C2668 1.397 . S
C2669 C2670 1.334 . S
C2670 H2641 0.950 . S
C2670 C2669 1.334 . S
C2670 C2671 1.287 . S
C2671 C2670 1.287 . S
C2671 C2672 1.524 . S
C2671 H2674 0.999 . S
C2672 H2642 0.950 . S
C2672 C2671 1.524 . S
C2672 C2673 1.415 . S
C2673 H2643 0.950 . S
C2673 C2668 1.363 . S
C2673 C2672 1.415 . S
H2674 C2671 0.999 . S
H2675 C2656 0.913 . S
H2676 C2694 0.951 . S
H2677 C2696 0.951 . S
H2678 C2698 0.950 . S
H2679 C2699 0.950 . S
H2680 C2701 0.950 . S
H2681 C2704 0.950 . S
H2682 C2705 0.950 . S
H2683 C2707 0.950 . S
H2684 C2708 0.950 . S
H2685 C2709 0.951 . S
H2686 C2711 0.951 . S
H2687 C2713 0.950 . S
H2688 C2714 0.950 . S
H2689 C2716 0.950 . S
H2690 C2719 0.950 . S
H2691 C2720 0.950 . S
H2692 C2722 0.950 . S
H2693 C2723 0.950 . S
C2694 H2676 0.951 . S
C2694 C2695 1.366 . S
C2694 C2696 1.388 . S
C2695 C2694 1.366 . S
C2695 C2699 1.385 . S
C2696 H2677 0.951 . S
C2696 C2694 1.388 . S
C2696 C2697 1.366 . S
C2697 C2696 1.366 . S
C2697 C2698 1.414 . S
C2697 C2700 1.499 . S
C2698 H2678 0.950 . S
C2698 C2697 1.414 . S
C2698 C2699 1.374 . S
C2699 H2679 0.950 . S
C2699 C2695 1.385 . S
C2699 C2698 1.374 . S
C2700 C2697 1.499 . S
C2700 C2701 1.373 . S
C2700 C2702 1.389 . S
C2701 H2680 0.950 . S
C2701 C2700 1.373 . S
C2701 C2717 1.377 . S
C2702 C2700 1.389 . S
C2702 C2703 1.524 . S
C2702 C2716 1.377 . S
C2703 C2702 1.524 . S
C2703 C2704 1.397 . S
C2703 C2708 1.363 . S
C2704 H2681 0.950 . S
C2704 C2703 1.397 . S
C2704 C2705 1.334 . S
C2705 H2682 0.950 . S
C2705 C2704 1.334 . S
C2705 C2706 1.287 . S
C2706 C2705 1.287 . S
C2706 C2707 1.524 . S
C2706 H2725 0.913 . S
C2707 H2683 0.950 . S
C2707 C2706 1.524 . S
C2707 C2708 1.415 . S
C2708 H2684 0.950 . S
C2708 C2703 1.363 . S
C2708 C2707 1.415 . S
C2709 H2685 0.951 . S
C2709 C2710 1.366 . S
C2709 C2711 1.388 . S
C2710 C2709 1.366 . S
C2710 C2714 1.385 . S
C2711 H2686 0.951 . S
C2711 C2709 1.388 . S
C2711 C2712 1.366 . S
C2712 C2711 1.366 . S
C2712 C2713 1.414 . S
C2712 C2715 1.499 . S
C2713 H2687 0.950 . S
C2713 C2712 1.414 . S
C2713 C2714 1.374 . S
C2714 H2688 0.950 . S
C2714 C2710 1.385 . S
C2714 C2713 1.374 . S
C2715 C2712 1.499 . S
C2715 C2716 1.373 . S
C2715 C2717 1.389 . S
C2716 H2689 0.950 . S
C2716 C2702 1.377 . S
C2716 C2715 1.373 . S
C2717 C2701 1.377 . S
C2717 C2715 1.389 . S
C2717 C2718 1.524 . S
C2718 C2717 1.524 . S
C2718 C2719 1.397 . S
C2718 C2723 1.363 . S
C2719 H2690 0.950 . S
C2719 C2718 1.397 . S
C2719 C2720 1.334 . S
C2720 H2691 0.950 . S
C2720 C2719 1.334 . S
C2720 C2721 1.287 . S
C2721 C2720 1.287 . S
C2721 C2722 1.524 . S
C2721 H2724 0.999 . S
C2722 H2692 0.950 . S
C2722 C2721 1.524 . S
C2722 C2723 1.415 . S
C2723 H2693 0.950 . S
C2723 C2718 1.363 . S
C2723 C2722 1.415 . S
H2724 C2721 0.999 . S
H2725 C2706 0.913 . S
H2726 C2744 0.951 . S
H2727 C2746 0.951 . S
H2728 C2748 0.950 . S
H2729 C2749 0.950 . S
H2730 C2751 0.950 . S
H2731 C2754 0.950 . S
H2732 C2755 0.950 . S
H2733 C2757 0.950 . S
H2734 C2758 0.950 . S
H2735 C2759 0.951 . S
H2736 C2761 0.951 . S
H2737 C2763 0.950 . S
H2738 C2764 0.950 . S
H2739 C2766 0.950 . S
H2740 C2769 0.950 . S
H2741 C2770 0.950 . S
H2742 C2772 0.950 . S
H2743 C2773 0.950 . S
C2744 H2726 0.951 . S
C2744 C2745 1.366 . S
C2744 C2746 1.388 . S
C2745 C2744 1.366 . S
C2745 C2749 1.385 . S
C2746 H2727 0.951 . S
C2746 C2744 1.388 . S
C2746 C2747 1.366 . S
C2747 C2746 1.366 . S
C2747 C2748 1.414 . S
C2747 C2750 1.499 . S
C2748 H2728 0.950 . S
C2748 C2747 1.414 . S
C2748 C2749 1.374 . S
C2749 H2729 0.950 . S
C2749 C2745 1.385 . S
C2749 C2748 1.374 . S
C2750 C2747 1.499 . S
C2750 C2751 1.373 . S
C2750 C2752 1.389 . S
C2751 H2730 0.950 . S
C2751 C2750 1.373 . S
C2751 C2767 1.377 . S
C2752 C2750 1.389 . S
C2752 C2753 1.524 . S
C2752 C2766 1.377 . S
C2753 C2752 1.524 . S
C2753 C2754 1.397 . S
C2753 C2758 1.363 . S
C2754 H2731 0.950 . S
C2754 C2753 1.397 . S
C2754 C2755 1.334 . S
C2755 H2732 0.950 . S
C2755 C2754 1.334 . S
C2755 C2756 1.287 . S
C2756 C2755 1.287 . S
C2756 C2757 1.524 . S
C2756 H2775 0.913 . S
C2757 H2733 0.950 . S
C2757 C2756 1.524 . S
C2757 C2758 1.415 . S
C2758 H2734 0.950 . S
C2758 C2753 1.363 . S
C2758 C2757 1.415 . S
C2759 H2735 0.951 . S
C2759 C2760 1.366 . S
C2759 C2761 1.388 . S
C2760 C2759 1.366 . S
C2760 C2764 1.385 . S
C2761 H2736 0.951 . S
C2761 C2759 1.388 . S
C2761 C2762 1.366 . S
C2762 C2761 1.366 . S
C2762 C2763 1.414 . S
C2762 C2765 1.499 . S
C2763 H2737 0.950 . S
C2763 C2762 1.414 . S
C2763 C2764 1.374 . S
C2764 H2738 0.950 . S
C2764 C2760 1.385 . S
C2764 C2763 1.374 . S
C2765 C2762 1.499 . S
C2765 C2766 1.373 . S
C2765 C2767 1.389 . S
C2766 H2739 0.950 . S
C2766 C2752 1.377 . S
C2766 C2765 1.373 . S
C2767 C2751 1.377 . S
C2767 C2765 1.389 . S
C2767 C2768 1.524 . S
C2768 C2767 1.524 . S
C2768 C2769 1.397 . S
C2768 C2773 1.363 . S
C2769 H2740 0.950 . S
C2769 C2768 1.397 . S
C2769 C2770 1.334 . S
C2770 H2741 0.950 . S
C2770 C2769 1.334 . S
C2770 C2771 1.287 . S
C2771 C2770 1.287 . S
C2771 C2772 1.524 . S
C2771 H2774 0.999 . S
C2772 H2742 0.950 . S
C2772 C2771 1.524 . S
C2772 C2773 1.415 . S
C2773 H2743 0.950 . S
C2773 C2768 1.363 . S
C2773 C2772 1.415 . S
H2774 C2771 0.999 . S
H2775 C2756 0.913 . S
H2776 C2794 0.951 . S
H2777 C2796 0.951 . S
H2778 C2798 0.950 . S
H2779 C2799 0.950 . S
H2780 C2801 0.950 . S
H2781 C2804 0.950 . S
H2782 C2805 0.950 . S
H2783 C2807 0.950 . S
H2784 C2808 0.950 . S
H2785 C2809 0.951 . S
H2786 C2811 0.951 . S
H2787 C2813 0.950 . S
H2788 C2814 0.950 . S
H2789 C2816 0.950 . S
H2790 C2819 0.950 . S
H2791 C2820 0.950 . S
H2792 C2822 0.950 . S
H2793 C2823 0.950 . S
C2794 H2776 0.951 . S
C2794 C2795 1.366 . S
C2794 C2796 1.388 . S
C2795 C2794 1.366 . S
C2795 C2799 1.385 . S
C2796 H2777 0.951 . S
C2796 C2794 1.388 . S
C2796 C2797 1.366 . S
C2797 C2796 1.366 . S
C2797 C2798 1.414 . S
C2797 C2800 1.499 . S
C2798 H2778 0.950 . S
C2798 C2797 1.414 . S
C2798 C2799 1.374 . S
C2799 H2779 0.950 . S
C2799 C2795 1.385 . S
C2799 C2798 1.374 . S
C2800 C2797 1.499 . S
C2800 C2801 1.373 . S
C2800 C2802 1.389 . S
C2801 H2780 0.950 . S
C2801 C2800 1.373 . S
C2801 C2817 1.377 . S
C2802 C2800 1.389 . S
C2802 C2803 1.524 . S
C2802 C2816 1.377 . S
C2803 C2802 1.524 . S
C2803 C2804 1.397 . S
C2803 C2808 1.363 . S
C2804 H2781 0.950 . S
C2804 C2803 1.397 . S
C2804 C2805 1.334 . S
C2805 H2782 0.950 . S
C2805 C2804 1.334 . S
C2805 C2806 1.287 1_545 S
C2806 C2805 1.287 1_565 S
C2806 C2807 1.524 . S
C2806 H2825 0.913 . S
C2807 H2783 0.950 . S
C2807 C2806 1.524 . S
C2807 C2808 1.415 1_565 S
C2808 H2784 0.950 . S
C2808 C2803 1.363 . S
C2808 C2807 1.415 1_545 S
C2809 H2785 0.951 . S
C2809 C2810 1.366 . S
C2809 C2811 1.388 . S
C2810 C2809 1.366 . S
C2810 C2814 1.385 . S
C2811 H2786 0.951 . S
C2811 C2809 1.388 . S
C2811 C2812 1.366 . S
C2812 C2811 1.366 . S
C2812 C2813 1.414 . S
C2812 C2815 1.499 . S
C2813 H2787 0.950 . S
C2813 C2812 1.414 . S
C2813 C2814 1.374 . S
C2814 H2788 0.950 . S
C2814 C2810 1.385 . S
C2814 C2813 1.374 . S
C2815 C2812 1.499 . S
C2815 C2816 1.373 . S
C2815 C2817 1.389 . S
C2816 H2789 0.950 . S
C2816 C2802 1.377 . S
C2816 C2815 1.373 . S
C2817 C2801 1.377 . S
C2817 C2815 1.389 . S
C2817 C2818 1.524 . S
C2818 C2817 1.524 . S
C2818 C2819 1.397 . S
C2818 C2823 1.363 . S
C2819 H2790 0.950 . S
C2819 C2818 1.397 . S
C2819 C2820 1.334 . S
C2820 H2791 0.950 . S
C2820 C2819 1.334 . S
C2820 C2821 1.287 . S
C2821 C2820 1.287 . S
C2821 C2822 1.524 . S
C2821 H2824 0.999 . S
C2822 H2792 0.950 . S
C2822 C2821 1.524 . S
C2822 C2823 1.415 . S
C2823 H2793 0.950 . S
C2823 C2818 1.363 . S
C2823 C2822 1.415 . S
H2824 C2821 0.999 . S
H2825 C2806 0.913 . S
H2826 C2844 0.951 . S
H2827 C2846 0.951 . S
H2828 C2848 0.950 . S
H2829 C2849 0.950 . S
H2830 C2851 0.950 . S
H2831 C2854 0.950 . S
H2832 C2855 0.950 . S
H2833 C2857 0.950 . S
H2834 C2858 0.950 . S
H2835 C2859 0.951 . S
H2836 C2861 0.951 . S
H2837 C2863 0.950 . S
H2838 C2864 0.950 . S
H2839 C2866 0.950 . S
H2840 C2869 0.950 . S
H2841 C2870 0.950 . S
H2842 C2872 0.950 . S
H2843 C2873 0.950 . S
C2844 H2826 0.951 . S
C2844 C2845 1.366 . S
C2844 C2846 1.388 . S
C2845 C2844 1.366 . S
C2845 C2849 1.385 . S
C2846 H2827 0.951 . S
C2846 C2844 1.388 . S
C2846 C2847 1.366 . S
C2847 C2846 1.366 . S
C2847 C2848 1.414 . S
C2847 C2850 1.499 . S
C2848 H2828 0.950 . S
C2848 C2847 1.414 . S
C2848 C2849 1.374 . S
C2849 H2829 0.950 . S
C2849 C2845 1.385 . S
C2849 C2848 1.374 . S
C2850 C2847 1.499 . S
C2850 C2851 1.373 . S
C2850 C2852 1.389 . S
C2851 H2830 0.950 . S
C2851 C2850 1.373 . S
C2851 C2867 1.377 . S
C2852 C2850 1.389 . S
C2852 C2853 1.524 . S
C2852 C2866 1.377 . S
C2853 C2852 1.524 . S
C2853 C2854 1.397 . S
C2853 C2858 1.363 . S
C2854 H2831 0.950 . S
C2854 C2853 1.397 . S
C2854 C2855 1.334 . S
C2855 H2832 0.950 . S
C2855 C2854 1.334 . S
C2855 C2856 1.287 . S
C2856 C2855 1.287 . S
C2856 C2857 1.524 . S
C2856 H2875 0.913 . S
C2857 H2833 0.950 . S
C2857 C2856 1.524 . S
C2857 C2858 1.415 . S
C2858 H2834 0.950 . S
C2858 C2853 1.363 . S
C2858 C2857 1.415 . S
C2859 H2835 0.951 . S
C2859 C2860 1.366 . S
C2859 C2861 1.388 . S
C2860 C2859 1.366 . S
C2860 C2864 1.385 . S
C2861 H2836 0.951 . S
C2861 C2859 1.388 . S
C2861 C2862 1.366 . S
C2862 C2861 1.366 . S
C2862 C2863 1.414 . S
C2862 C2865 1.499 . S
C2863 H2837 0.950 . S
C2863 C2862 1.414 . S
C2863 C2864 1.374 . S
C2864 H2838 0.950 . S
C2864 C2860 1.385 . S
C2864 C2863 1.374 . S
C2865 C2862 1.499 . S
C2865 C2866 1.373 . S
C2865 C2867 1.389 . S
C2866 H2839 0.950 . S
C2866 C2852 1.377 . S
C2866 C2865 1.373 . S
C2867 C2851 1.377 . S
C2867 C2865 1.389 . S
C2867 C2868 1.524 . S
C2868 C2867 1.524 . S
C2868 C2869 1.397 . S
C2868 C2873 1.363 . S
C2869 H2840 0.950 . S
C2869 C2868 1.397 . S
C2869 C2870 1.334 . S
C2870 H2841 0.950 . S
C2870 C2869 1.334 . S
C2870 C2871 1.287 . S
C2871 C2870 1.287 . S
C2871 C2872 1.524 . S
C2871 H2874 0.999 . S
C2872 H2842 0.950 . S
C2872 C2871 1.524 . S
C2872 C2873 1.415 . S
C2873 H2843 0.950 . S
C2873 C2868 1.363 . S
C2873 C2872 1.415 . S
H2874 C2871 0.999 . S
H2875 C2856 0.913 . S
H2876 C2894 0.951 . S
H2877 C2896 0.951 . S
H2878 C2898 0.950 . S
H2879 C2899 0.950 . S
H2880 C2901 0.950 . S
H2881 C2904 0.950 . S
H2882 C2905 0.950 . S
H2883 C2907 0.950 . S
H2884 C2908 0.950 . S
H2885 C2909 0.951 . S
H2886 C2911 0.951 . S
H2887 C2913 0.950 . S
H2888 C2914 0.950 . S
H2889 C2916 0.950 . S
H2890 C2919 0.950 . S
H2891 C2920 0.950 . S
H2892 C2922 0.950 . S
H2893 C2923 0.950 . S
C2894 H2876 0.951 . S
C2894 C2895 1.366 . S
C2894 C2896 1.388 . S
C2895 C2894 1.366 . S
C2895 C2899 1.385 . S
C2896 H2877 0.951 . S
C2896 C2894 1.388 . S
C2896 C2897 1.366 . S
C2897 C2896 1.366 . S
C2897 C2898 1.414 . S
C2897 C2900 1.499 . S
C2898 H2878 0.950 . S
C2898 C2897 1.414 . S
C2898 C2899 1.374 . S
C2899 H2879 0.950 . S
C2899 C2895 1.385 . S
C2899 C2898 1.374 . S
C2900 C2897 1.499 . S
C2900 C2901 1.373 . S
C2900 C2902 1.389 . S
C2901 H2880 0.950 . S
C2901 C2900 1.373 . S
C2901 C2917 1.377 . S
C2902 C2900 1.389 . S
C2902 C2903 1.524 . S
C2902 C2916 1.377 . S
C2903 C2902 1.524 . S
C2903 C2904 1.397 . S
C2903 C2908 1.363 . S
C2904 H2881 0.950 . S
C2904 C2903 1.397 . S
C2904 C2905 1.334 . S
C2905 H2882 0.950 . S
C2905 C2904 1.334 . S
C2905 C2906 1.287 . S
C2906 C2905 1.287 . S
C2906 C2907 1.524 . S
C2906 H2925 0.913 . S
C2907 H2883 0.950 . S
C2907 C2906 1.524 . S
C2907 C2908 1.415 . S
C2908 H2884 0.950 . S
C2908 C2903 1.363 . S
C2908 C2907 1.415 . S
C2909 H2885 0.951 . S
C2909 C2910 1.366 . S
C2909 C2911 1.388 . S
C2910 C2909 1.366 . S
C2910 C2914 1.385 . S
C2911 H2886 0.951 . S
C2911 C2909 1.388 . S
C2911 C2912 1.366 . S
C2912 C2911 1.366 . S
C2912 C2913 1.414 . S
C2912 C2915 1.499 . S
C2913 H2887 0.950 . S
C2913 C2912 1.414 . S
C2913 C2914 1.374 . S
C2914 H2888 0.950 . S
C2914 C2910 1.385 . S
C2914 C2913 1.374 . S
C2915 C2912 1.499 . S
C2915 C2916 1.373 . S
C2915 C2917 1.389 . S
C2916 H2889 0.950 . S
C2916 C2902 1.377 . S
C2916 C2915 1.373 . S
C2917 C2901 1.377 . S
C2917 C2915 1.389 . S
C2917 C2918 1.524 . S
C2918 C2917 1.524 . S
C2918 C2919 1.397 . S
C2918 C2923 1.363 . S
C2919 H2890 0.950 . S
C2919 C2918 1.397 . S
C2919 C2920 1.334 . S
C2920 H2891 0.950 . S
C2920 C2919 1.334 . S
C2920 C2921 1.287 . S
C2921 C2920 1.287 . S
C2921 C2922 1.524 . S
C2921 H2924 0.999 . S
C2922 H2892 0.950 . S
C2922 C2921 1.524 . S
C2922 C2923 1.415 . S
C2923 H2893 0.950 . S
C2923 C2918 1.363 . S
C2923 C2922 1.415 . S
H2924 C2921 0.999 . S
H2925 C2906 0.913 . S
H2926 C2944 0.951 . S
H2927 C2946 0.951 . S
H2928 C2948 0.950 . S
H2929 C2949 0.950 . S
H2930 C2951 0.950 . S
H2931 C2954 0.950 . S
H2932 C2955 0.950 . S
H2933 C2957 0.950 . S
H2934 C2958 0.950 . S
H2935 C2959 0.951 . S
H2936 C2961 0.951 . S
H2937 C2963 0.950 . S
H2938 C2964 0.950 . S
H2939 C2966 0.950 . S
H2940 C2969 0.950 . S
H2941 C2970 0.950 . S
H2942 C2972 0.950 . S
H2943 C2973 0.950 . S
C2944 H2926 0.951 . S
C2944 C2945 1.366 . S
C2944 C2946 1.388 . S
C2945 C2944 1.366 . S
C2945 C2949 1.385 . S
C2946 H2927 0.951 . S
C2946 C2944 1.388 . S
C2946 C2947 1.366 . S
C2947 C2946 1.366 . S
C2947 C2948 1.414 . S
C2947 C2950 1.499 . S
C2948 H2928 0.950 . S
C2948 C2947 1.414 . S
C2948 C2949 1.374 . S
C2949 H2929 0.950 . S
C2949 C2945 1.385 . S
C2949 C2948 1.374 . S
C2950 C2947 1.499 . S
C2950 C2951 1.373 . S
C2950 C2952 1.389 . S
C2951 H2930 0.950 . S
C2951 C2950 1.373 . S
C2951 C2967 1.377 . S
C2952 C2950 1.389 . S
C2952 C2953 1.524 . S
C2952 C2966 1.377 . S
C2953 C2952 1.524 . S
C2953 C2954 1.397 . S
C2953 C2958 1.363 . S
C2954 H2931 0.950 . S
C2954 C2953 1.397 . S
C2954 C2955 1.334 . S
C2955 H2932 0.950 . S
C2955 C2954 1.334 . S
C2955 C2956 1.287 . S
C2956 C2955 1.287 . S
C2956 C2957 1.524 . S
C2956 H2975 0.913 . S
C2957 H2933 0.950 . S
C2957 C2956 1.524 . S
C2957 C2958 1.415 . S
C2958 H2934 0.950 . S
C2958 C2953 1.363 . S
C2958 C2957 1.415 . S
C2959 H2935 0.951 . S
C2959 C2960 1.366 . S
C2959 C2961 1.388 . S
C2960 C2959 1.366 . S
C2960 C2964 1.385 . S
C2961 H2936 0.951 . S
C2961 C2959 1.388 . S
C2961 C2962 1.366 . S
C2962 C2961 1.366 . S
C2962 C2963 1.414 . S
C2962 C2965 1.499 . S
C2963 H2937 0.950 . S
C2963 C2962 1.414 . S
C2963 C2964 1.374 . S
C2964 H2938 0.950 . S
C2964 C2960 1.385 . S
C2964 C2963 1.374 . S
C2965 C2962 1.499 . S
C2965 C2966 1.373 . S
C2965 C2967 1.389 . S
C2966 H2939 0.950 . S
C2966 C2952 1.377 . S
C2966 C2965 1.373 . S
C2967 C2951 1.377 . S
C2967 C2965 1.389 . S
C2967 C2968 1.524 . S
C2968 C2967 1.524 . S
C2968 C2969 1.397 . S
C2968 C2973 1.363 . S
C2969 H2940 0.950 . S
C2969 C2968 1.397 . S
C2969 C2970 1.334 . S
C2970 H2941 0.950 . S
C2970 C2969 1.334 . S
C2970 C2971 1.287 . S
C2971 C2970 1.287 . S
C2971 C2972 1.524 . S
C2971 H2974 0.999 . S
C2972 H2942 0.950 . S
C2972 C2971 1.524 . S
C2972 C2973 1.415 . S
C2973 H2943 0.950 . S
C2973 C2968 1.363 . S
C2973 C2972 1.415 . S
H2974 C2971 0.999 . S
H2975 C2956 0.913 . S
H2976 C2994 0.951 . S
H2977 C2996 0.951 1_556 S
H2978 C2998 0.950 . S
H2979 C2999 0.950 . S
H2980 C3001 0.950 . S
H2981 C3004 0.950 . S
H2982 C3005 0.950 . S
H2983 C3007 0.950 . S
H2984 C3008 0.950 . S
H2985 C3009 0.939 1_554 S
H2986 C3011 0.983 . S
H2987 C3013 0.950 . S
H2988 C3014 0.950 . S
H2989 C3016 0.950 . S
H2990 C3019 0.950 . S
H2991 C3020 0.950 . S
H2992 C3022 0.950 . S
H2993 C3023 0.950 . S
C2994 H2976 0.951 . S
C2994 C2995 1.366 . S
C2994 C2996 1.388 . S
C2995 C2994 1.366 . S
C2995 C2999 1.385 . S
C2996 H2977 0.951 1_554 S
C2996 C2994 1.388 . S
C2996 C2997 1.366 . S
C2997 C2996 1.366 . S
C2997 C2998 1.414 . S
C2997 C3000 1.499 . S
C2998 H2978 0.950 . S
C2998 C2997 1.414 . S
C2998 C2999 1.374 . S
C2999 H2979 0.950 . S
C2999 C2995 1.385 . S
C2999 C2998 1.374 . S
C3000 C2997 1.499 . S
C3000 C3001 1.373 . S
C3000 C3002 1.389 1_554 S
C3001 H2980 0.950 . S
C3001 C3000 1.373 . S
C3001 C3017 1.377 . S
C3002 C3000 1.389 1_556 S
C3002 C3003 1.524 . S
C3002 C3016 1.377 . S
C3003 C3002 1.524 . S
C3003 C3004 1.397 . S
C3003 C3008 1.363 . S
C3004 H2981 0.950 . S
C3004 C3003 1.397 . S
C3004 C3005 1.334 . S
C3005 H2982 0.950 . S
C3005 C3004 1.334 . S
C3005 C3006 1.287 . S
C3006 C3005 1.287 . S
C3006 C3007 1.524 . S
C3006 H3025 0.913 . S
C3007 H2983 0.950 . S
C3007 C3006 1.524 . S
C3007 C3008 1.415 . S
C3008 H2984 0.950 . S
C3008 C3003 1.363 . S
C3008 C3007 1.415 . S
C3009 H2985 0.939 1_556 S
C3009 C3010 1.366 . S
C3009 C3011 1.376 1_556 S
C3010 C3009 1.366 . S
C3010 C3014 1.385 . S
C3011 H2986 0.983 . S
C3011 C3009 1.376 1_554 S
C3011 C3012 1.351 1_554 S
C3012 C3011 1.351 1_556 S
C3012 C3013 1.414 . S
C3012 C3015 1.497 1_556 S
C3013 H2987 0.950 . S
C3013 C3012 1.414 . S
C3013 C3014 1.374 . S
C3014 H2988 0.950 . S
C3014 C3010 1.385 . S
C3014 C3013 1.374 . S
C3015 C3012 1.497 1_554 S
C3015 C3016 1.367 1_554 S
C3015 C3017 1.397 . S
C3016 H2989 0.950 . S
C3016 C3002 1.377 . S
C3016 C3015 1.367 1_556 S
C3017 C3001 1.377 . S
C3017 C3015 1.397 . S
C3017 C3018 1.524 . S
C3018 C3017 1.524 . S
C3018 C3019 1.397 . S
C3018 C3023 1.363 . S
C3019 H2990 0.950 . S
C3019 C3018 1.397 . S
C3019 C3020 1.334 . S
C3020 H2991 0.950 . S
C3020 C3019 1.334 . S
C3020 C3021 1.287 . S
C3021 C3020 1.287 . S
C3021 C3022 1.524 . S
C3021 H3024 0.999 . S
C3022 H2992 0.950 . S
C3022 C3021 1.524 . S
C3022 C3023 1.415 . S
C3023 H2993 0.950 . S
C3023 C3018 1.363 . S
C3023 C3022 1.415 . S
H3024 C3021 0.999 . S
H3025 C3006 0.913 . S
H3026 C3044 0.951 . S
H3027 C3046 0.951 . S
H3028 C3048 0.950 . S
H3029 C3049 0.950 . S
H3030 C3051 0.950 . S
H3031 C3054 0.950 . S
H3032 C3055 0.950 . S
H3033 C3057 0.950 . S
H3034 C3058 0.950 . S
H3035 C3059 0.951 . S
H3036 C3061 0.951 . S
H3037 C3063 0.950 . S
H3038 C3064 0.950 . S
H3039 C3066 0.950 . S
H3040 C3069 0.950 . S
H3041 C3070 0.950 . S
H3042 C3072 0.950 . S
H3043 C3073 0.950 . S
C3044 H3026 0.951 . S
C3044 C3045 1.366 . S
C3044 C3046 1.388 . S
C3045 C3044 1.366 . S
C3045 C3049 1.385 . S
C3046 H3027 0.951 . S
C3046 C3044 1.388 . S
C3046 C3047 1.366 . S
C3047 C3046 1.366 . S
C3047 C3048 1.414 . S
C3047 C3050 1.499 . S
C3048 H3028 0.950 . S
C3048 C3047 1.414 . S
C3048 C3049 1.374 . S
C3049 H3029 0.950 . S
C3049 C3045 1.385 . S
C3049 C3048 1.374 . S
C3050 C3047 1.499 . S
C3050 C3051 1.373 . S
C3050 C3052 1.389 . S
C3051 H3030 0.950 . S
C3051 C3050 1.373 . S
C3051 C3067 1.377 . S
C3052 C3050 1.389 . S
C3052 C3053 1.524 . S
C3052 C3066 1.377 . S
C3053 C3052 1.524 . S
C3053 C3054 1.397 . S
C3053 C3058 1.363 . S
C3054 H3031 0.950 . S
C3054 C3053 1.397 . S
C3054 C3055 1.334 . S
C3055 H3032 0.950 . S
C3055 C3054 1.334 . S
C3055 C3056 1.287 . S
C3056 C3055 1.287 . S
C3056 C3057 1.524 . S
C3056 H3075 0.913 . S
C3057 H3033 0.950 . S
C3057 C3056 1.524 . S
C3057 C3058 1.415 . S
C3058 H3034 0.950 . S
C3058 C3053 1.363 . S
C3058 C3057 1.415 . S
C3059 H3035 0.951 . S
C3059 C3060 1.366 . S
C3059 C3061 1.388 . S
C3060 C3059 1.366 . S
C3060 C3064 1.385 . S
C3061 H3036 0.951 . S
C3061 C3059 1.388 . S
C3061 C3062 1.366 . S
C3062 C3061 1.366 . S
C3062 C3063 1.414 . S
C3062 C3065 1.499 . S
C3063 H3037 0.950 . S
C3063 C3062 1.414 . S
C3063 C3064 1.374 . S
C3064 H3038 0.950 . S
C3064 C3060 1.385 . S
C3064 C3063 1.374 . S
C3065 C3062 1.499 . S
C3065 C3066 1.373 . S
C3065 C3067 1.389 . S
C3066 H3039 0.950 . S
C3066 C3052 1.377 . S
C3066 C3065 1.373 . S
C3067 C3051 1.377 . S
C3067 C3065 1.389 . S
C3067 C3068 1.524 . S
C3068 C3067 1.524 . S
C3068 C3069 1.397 . S
C3068 C3073 1.363 . S
C3069 H3040 0.950 . S
C3069 C3068 1.397 . S
C3069 C3070 1.334 1_554 S
C3070 H3041 0.950 . S
C3070 C3069 1.334 1_556 S
C3070 C3071 1.287 1_556 S
C3071 C3070 1.287 1_554 S
C3071 C3072 1.524 . S
C3071 H3074 0.999 1_554 S
C3072 H3042 0.950 . S
C3072 C3071 1.524 . S
C3072 C3073 1.415 . S
C3073 H3043 0.950 . S
C3073 C3068 1.363 . S
C3073 C3072 1.415 . S
H3074 C3071 0.999 1_556 S
H3075 C3056 0.913 . S
H3076 C3094 0.951 . S
H3077 C3096 0.951 . S
H3078 C3098 0.950 . S
H3079 C3099 0.950 . S
H3080 C3101 0.950 . S
H3081 C3104 0.950 . S
H3082 C3105 0.950 . S
H3083 C3107 0.950 . S
H3084 C3108 0.950 . S
H3085 C3109 0.951 . S
H3086 C3111 0.951 . S
H3087 C3113 0.950 . S
H3088 C3114 0.950 . S
H3089 C3116 0.950 . S
H3090 C3119 0.950 . S
H3091 C3120 0.950 . S
H3092 C3122 0.950 . S
H3093 C3123 0.950 . S
C3094 H3076 0.951 . S
C3094 C3095 1.366 . S
C3094 C3096 1.388 . S
C3095 C3094 1.366 . S
C3095 C3099 1.385 . S
C3096 H3077 0.951 . S
C3096 C3094 1.388 . S
C3096 C3097 1.366 . S
C3097 C3096 1.366 . S
C3097 C3098 1.414 . S
C3097 C3100 1.499 . S
C3098 H3078 0.950 . S
C3098 C3097 1.414 . S
C3098 C3099 1.374 . S
C3099 H3079 0.950 . S
C3099 C3095 1.385 . S
C3099 C3098 1.374 . S
C3100 C3097 1.499 . S
C3100 C3101 1.373 . S
C3100 C3102 1.389 . S
C3101 H3080 0.950 . S
C3101 C3100 1.373 . S
C3101 C3117 1.377 . S
C3102 C3100 1.389 . S
C3102 C3103 1.524 . S
C3102 C3116 1.377 . S
C3103 C3102 1.524 . S
C3103 C3104 1.397 . S
C3103 C3108 1.363 . S
C3104 H3081 0.950 . S
C3104 C3103 1.397 . S
C3104 C3105 1.334 . S
C3105 H3082 0.950 . S
C3105 C3104 1.334 . S
C3105 C3106 1.287 . S
C3106 C3105 1.287 . S
C3106 C3107 1.524 . S
C3106 H3125 0.913 . S
C3107 H3083 0.950 . S
C3107 C3106 1.524 . S
C3107 C3108 1.415 . S
C3108 H3084 0.950 . S
C3108 C3103 1.363 . S
C3108 C3107 1.415 . S
C3109 H3085 0.951 . S
C3109 C3110 1.366 . S
C3109 C3111 1.388 . S
C3110 C3109 1.366 . S
C3110 C3114 1.385 . S
C3111 H3086 0.951 . S
C3111 C3109 1.388 . S
C3111 C3112 1.366 . S
C3112 C3111 1.366 . S
C3112 C3113 1.414 . S
C3112 C3115 1.499 . S
C3113 H3087 0.950 . S
C3113 C3112 1.414 . S
C3113 C3114 1.374 . S
C3114 H3088 0.950 . S
C3114 C3110 1.385 . S
C3114 C3113 1.374 . S
C3115 C3112 1.499 . S
C3115 C3116 1.373 . S
C3115 C3117 1.389 . S
C3116 H3089 0.950 . S
C3116 C3102 1.377 . S
C3116 C3115 1.373 . S
C3117 C3101 1.377 . S
C3117 C3115 1.389 . S
C3117 C3118 1.524 . S
C3118 C3117 1.524 . S
C3118 C3119 1.397 . S
C3118 C3123 1.363 . S
C3119 H3090 0.950 . S
C3119 C3118 1.397 . S
C3119 C3120 1.334 . S
C3120 H3091 0.950 . S
C3120 C3119 1.334 . S
C3120 C3121 1.287 . S
C3121 C3120 1.287 . S
C3121 C3122 1.524 . S
C3121 H3124 0.999 . S
C3122 H3092 0.950 . S
C3122 C3121 1.524 . S
C3122 C3123 1.415 . S
C3123 H3093 0.950 . S
C3123 C3118 1.363 . S
C3123 C3122 1.415 . S
H3124 C3121 0.999 . S
H3125 C3106 0.913 . S
H3126 C3144 0.951 . S
H3127 C3146 0.951 . S
H3128 C3148 0.950 . S
H3129 C3149 0.950 . S
H3130 C3151 0.950 . S
H3131 C3154 0.950 . S
H3132 C3155 0.950 . S
H3133 C3157 0.950 . S
H3134 C3158 0.950 . S
H3135 C3159 0.951 . S
H3136 C3161 0.951 . S
H3137 C3163 0.950 . S
H3138 C3164 0.950 . S
H3139 C3166 0.950 . S
H3140 C3169 0.950 . S
H3141 C3170 0.950 . S
H3142 C3172 0.950 . S
H3143 C3173 0.950 . S
C3144 H3126 0.951 . S
C3144 C3145 1.366 . S
C3144 C3146 1.388 . S
C3145 C3144 1.366 . S
C3145 C3149 1.385 . S
C3146 H3127 0.951 . S
C3146 C3144 1.388 . S
C3146 C3147 1.366 . S
C3147 C3146 1.366 . S
C3147 C3148 1.414 . S
C3147 C3150 1.499 . S
C3148 H3128 0.950 . S
C3148 C3147 1.414 . S
C3148 C3149 1.374 . S
C3149 H3129 0.950 . S
C3149 C3145 1.385 . S
C3149 C3148 1.374 . S
C3150 C3147 1.499 . S
C3150 C3151 1.373 . S
C3150 C3152 1.389 . S
C3151 H3130 0.950 . S
C3151 C3150 1.373 . S
C3151 C3167 1.377 . S
C3152 C3150 1.389 . S
C3152 C3153 1.524 . S
C3152 C3166 1.377 . S
C3153 C3152 1.524 . S
C3153 C3154 1.397 . S
C3153 C3158 1.363 . S
C3154 H3131 0.950 . S
C3154 C3153 1.397 . S
C3154 C3155 1.334 . S
C3155 H3132 0.950 . S
C3155 C3154 1.334 . S
C3155 C3156 1.287 . S
C3156 C3155 1.287 . S
C3156 C3157 1.524 . S
C3156 H3175 0.913 . S
C3157 H3133 0.950 . S
C3157 C3156 1.524 . S
C3157 C3158 1.415 . S
C3158 H3134 0.950 . S
C3158 C3153 1.363 . S
C3158 C3157 1.415 . S
C3159 H3135 0.951 . S
C3159 C3160 1.366 . S
C3159 C3161 1.388 . S
C3160 C3159 1.366 . S
C3160 C3164 1.385 . S
C3161 H3136 0.951 . S
C3161 C3159 1.388 . S
C3161 C3162 1.366 . S
C3162 C3161 1.366 . S
C3162 C3163 1.414 . S
C3162 C3165 1.499 . S
C3163 H3137 0.950 . S
C3163 C3162 1.414 . S
C3163 C3164 1.374 . S
C3164 H3138 0.950 . S
C3164 C3160 1.385 . S
C3164 C3163 1.374 . S
C3165 C3162 1.499 . S
C3165 C3166 1.373 . S
C3165 C3167 1.389 . S
C3166 H3139 0.950 . S
C3166 C3152 1.377 . S
C3166 C3165 1.373 . S
C3167 C3151 1.377 . S
C3167 C3165 1.389 . S
C3167 C3168 1.524 . S
C3168 C3167 1.524 . S
C3168 C3169 1.397 . S
C3168 C3173 1.363 . S
C3169 H3140 0.950 . S
C3169 C3168 1.397 . S
C3169 C3170 1.334 . S
C3170 H3141 0.950 . S
C3170 C3169 1.334 . S
C3170 C3171 1.287 . S
C3171 C3170 1.287 . S
C3171 C3172 1.524 . S
C3171 H3174 0.999 . S
C3172 H3142 0.950 . S
C3172 C3171 1.524 . S
C3172 C3173 1.415 . S
C3173 H3143 0.950 . S
C3173 C3168 1.363 . S
C3173 C3172 1.415 . S
H3174 C3171 0.999 . S
H3175 C3156 0.913 . S
H3176 C3194 0.951 . S
H3177 C3196 0.951 . S
H3178 C3198 0.950 . S
H3179 C3199 0.950 . S
H3180 C3201 0.950 . S
H3181 C3204 0.950 . S
H3182 C3205 0.950 . S
H3183 C3207 0.950 . S
H3184 C3208 0.950 . S
H3185 C3209 0.951 . S
H3186 C3211 0.951 . S
H3187 C3213 0.950 . S
H3188 C3214 0.950 . S
H3189 C3216 0.950 . S
H3190 C3219 0.950 . S
H3191 C3220 0.950 . S
H3192 C3222 0.950 . S
H3193 C3223 0.950 . S
C3194 H3176 0.951 . S
C3194 C3195 1.366 . S
C3194 C3196 1.388 . S
C3195 C3194 1.366 . S
C3195 C3199 1.385 . S
C3196 H3177 0.951 . S
C3196 C3194 1.388 . S
C3196 C3197 1.366 . S
C3197 C3196 1.366 . S
C3197 C3198 1.414 . S
C3197 C3200 1.499 . S
C3198 H3178 0.950 . S
C3198 C3197 1.414 . S
C3198 C3199 1.374 . S
C3199 H3179 0.950 . S
C3199 C3195 1.385 . S
C3199 C3198 1.374 . S
C3200 C3197 1.499 . S
C3200 C3201 1.373 . S
C3200 C3202 1.389 . S
C3201 H3180 0.950 . S
C3201 C3200 1.373 . S
C3201 C3217 1.377 . S
C3202 C3200 1.389 . S
C3202 C3203 1.524 . S
C3202 C3216 1.377 . S
C3203 C3202 1.524 . S
C3203 C3204 1.397 . S
C3203 C3208 1.363 . S
C3204 H3181 0.950 . S
C3204 C3203 1.397 . S
C3204 C3205 1.334 . S
C3205 H3182 0.950 . S
C3205 C3204 1.334 . S
C3205 C3206 1.287 . S
C3206 C3205 1.287 . S
C3206 C3207 1.524 . S
C3206 H3225 0.913 . S
C3207 H3183 0.950 . S
C3207 C3206 1.524 . S
C3207 C3208 1.415 . S
C3208 H3184 0.950 . S
C3208 C3203 1.363 . S
C3208 C3207 1.415 . S
C3209 H3185 0.951 . S
C3209 C3210 1.366 . S
C3209 C3211 1.388 . S
C3210 C3209 1.366 . S
C3210 C3214 1.385 . S
C3211 H3186 0.951 . S
C3211 C3209 1.388 . S
C3211 C3212 1.366 . S
C3212 C3211 1.366 . S
C3212 C3213 1.414 . S
C3212 C3215 1.499 . S
C3213 H3187 0.950 . S
C3213 C3212 1.414 . S
C3213 C3214 1.374 . S
C3214 H3188 0.950 . S
C3214 C3210 1.385 . S
C3214 C3213 1.374 . S
C3215 C3212 1.499 . S
C3215 C3216 1.373 . S
C3215 C3217 1.389 . S
C3216 H3189 0.950 . S
C3216 C3202 1.377 . S
C3216 C3215 1.373 . S
C3217 C3201 1.377 . S
C3217 C3215 1.389 . S
C3217 C3218 1.524 . S
C3218 C3217 1.524 . S
C3218 C3219 1.397 . S
C3218 C3223 1.363 . S
C3219 H3190 0.950 . S
C3219 C3218 1.397 . S
C3219 C3220 1.334 . S
C3220 H3191 0.950 . S
C3220 C3219 1.334 . S
C3220 C3221 1.287 . S
C3221 C3220 1.287 . S
C3221 C3222 1.524 . S
C3221 H3224 0.999 . S
C3222 H3192 0.950 . S
C3222 C3221 1.524 . S
C3222 C3223 1.415 . S
C3223 H3193 0.950 . S
C3223 C3218 1.363 . S
C3223 C3222 1.415 . S
H3224 C3221 0.999 . S
H3225 C3206 0.913 . S
H3226 C3244 0.951 . S
H3227 C3246 0.951 . S
H3228 C3248 0.950 . S
H3229 C3249 0.950 . S
H3230 C3251 0.950 . S
H3231 C3254 0.950 . S
H3232 C3255 0.950 . S
H3233 C3257 0.950 . S
H3234 C3258 0.950 . S
H3235 C3259 0.951 . S
H3236 C3261 0.963 . S
H3237 C3263 0.950 . S
H3238 C3264 0.950 . S
H3239 C3266 0.950 . S
H3240 C3269 0.950 . S
H3241 C3270 0.950 . S
H3242 C3272 0.950 . S
H3243 C3273 0.950 . S
C3244 H3226 0.951 . S
C3244 C3245 1.366 . S
C3244 C3246 1.388 . S
C3245 C3244 1.366 . S
C3245 C3249 1.385 . S
C3246 H3227 0.951 . S
C3246 C3244 1.388 . S
C3246 C3247 1.366 . S
C3247 C3246 1.366 . S
C3247 C3248 1.414 . S
C3247 C3250 1.499 . S
C3248 H3228 0.950 . S
C3248 C3247 1.414 . S
C3248 C3249 1.374 . S
C3249 H3229 0.950 . S
C3249 C3245 1.385 . S
C3249 C3248 1.374 . S
C3250 C3247 1.499 . S
C3250 C3251 1.373 . S
C3250 C3252 1.389 . S
C3251 H3230 0.950 . S
C3251 C3250 1.373 . S
C3251 C3267 1.377 . S
C3252 C3250 1.389 . S
C3252 C3253 1.524 . S
C3252 C3266 1.377 . S
C3253 C3252 1.524 . S
C3253 C3254 1.397 . S
C3253 C3258 1.363 . S
C3254 H3231 0.950 . S
C3254 C3253 1.397 . S
C3254 C3255 1.334 . S
C3255 H3232 0.950 . S
C3255 C3254 1.334 . S
C3255 C3256 1.287 . S
C3256 C3255 1.287 . S
C3256 C3257 1.524 . S
C3256 H3275 0.913 . S
C3257 H3233 0.950 . S
C3257 C3256 1.524 . S
C3257 C3258 1.415 . S
C3258 H3234 0.950 . S
C3258 C3253 1.363 . S
C3258 C3257 1.415 . S
C3259 H3235 0.951 . S
C3259 C3260 1.366 . S
C3259 C3261 1.388 . S
C3260 C3259 1.366 . S
C3260 C3264 1.385 . S
C3261 H3236 0.963 . S
C3261 C3259 1.388 . S
C3261 C3262 1.366 1_545 S
C3262 C3261 1.366 1_565 S
C3262 C3263 1.414 . S
C3262 C3265 1.499 . S
C3263 H3237 0.950 . S
C3263 C3262 1.414 . S
C3263 C3264 1.374 1_565 S
C3264 H3238 0.950 . S
C3264 C3260 1.385 . S
C3264 C3263 1.374 1_545 S
C3265 C3262 1.499 . S
C3265 C3266 1.373 . S
C3265 C3267 1.389 . S
C3266 H3239 0.950 . S
C3266 C3252 1.377 . S
C3266 C3265 1.373 . S
C3267 C3251 1.377 . S
C3267 C3265 1.389 . S
C3267 C3268 1.524 1_565 S
C3268 C3267 1.524 1_545 S
C3268 C3269 1.397 . S
C3268 C3273 1.363 . S
C3269 H3240 0.950 . S
C3269 C3268 1.397 . S
C3269 C3270 1.334 . S
C3270 H3241 0.950 . S
C3270 C3269 1.334 . S
C3270 C3271 1.287 . S
C3271 C3270 1.287 . S
C3271 C3272 1.524 . S
C3271 H3274 0.999 . S
C3272 H3242 0.950 . S
C3272 C3271 1.524 . S
C3272 C3273 1.415 . S
C3273 H3243 0.950 . S
C3273 C3268 1.363 . S
C3273 C3272 1.415 . S
H3274 C3271 0.999 . S
H3275 C3256 0.913 . S
H3276 C3294 0.951 . S
H3277 C3296 0.951 . S
H3278 C3298 0.950 . S
H3279 C3299 0.950 . S
H3280 C3301 0.950 . S
H3281 C3304 0.950 . S
H3282 C3305 0.950 . S
H3283 C3307 0.950 . S
H3284 C3308 0.950 . S
H3285 C3309 0.951 . S
H3286 C3311 0.951 . S
H3287 C3313 0.950 . S
H3288 C3314 0.950 . S
H3289 C3316 0.950 . S
H3290 C3319 0.950 . S
H3291 C3320 0.950 . S
H3292 C3322 0.950 . S
H3293 C3323 0.950 . S
C3294 H3276 0.951 . S
C3294 C3295 1.366 . S
C3294 C3296 1.388 . S
C3295 C3294 1.366 . S
C3295 C3299 1.385 . S
C3296 H3277 0.951 . S
C3296 C3294 1.388 . S
C3296 C3297 1.366 . S
C3297 C3296 1.366 . S
C3297 C3298 1.414 . S
C3297 C3300 1.499 . S
C3298 H3278 0.950 . S
C3298 C3297 1.414 . S
C3298 C3299 1.374 . S
C3299 H3279 0.950 . S
C3299 C3295 1.385 . S
C3299 C3298 1.374 . S
C3300 C3297 1.499 . S
C3300 C3301 1.373 . S
C3300 C3302 1.389 . S
C3301 H3280 0.950 . S
C3301 C3300 1.373 . S
C3301 C3317 1.377 . S
C3302 C3300 1.389 . S
C3302 C3303 1.524 . S
C3302 C3316 1.377 . S
C3303 C3302 1.524 . S
C3303 C3304 1.397 . S
C3303 C3308 1.363 . S
C3304 H3281 0.950 . S
C3304 C3303 1.397 . S
C3304 C3305 1.334 . S
C3305 H3282 0.950 . S
C3305 C3304 1.334 . S
C3305 C3306 1.287 . S
C3306 C3305 1.287 . S
C3306 C3307 1.524 . S
C3306 H3325 0.913 . S
C3307 H3283 0.950 . S
C3307 C3306 1.524 . S
C3307 C3308 1.415 . S
C3308 H3284 0.950 . S
C3308 C3303 1.363 . S
C3308 C3307 1.415 . S
C3309 H3285 0.951 . S
C3309 C3310 1.366 . S
C3309 C3311 1.388 . S
C3310 C3309 1.366 . S
C3310 C3314 1.385 . S
C3311 H3286 0.951 . S
C3311 C3309 1.388 . S
C3311 C3312 1.366 . S
C3312 C3311 1.366 . S
C3312 C3313 1.414 . S
C3312 C3315 1.499 . S
C3313 H3287 0.950 . S
C3313 C3312 1.414 . S
C3313 C3314 1.374 . S
C3314 H3288 0.950 . S
C3314 C3310 1.385 . S
C3314 C3313 1.374 . S
C3315 C3312 1.499 . S
C3315 C3316 1.373 . S
C3315 C3317 1.389 . S
C3316 H3289 0.950 . S
C3316 C3302 1.377 . S
C3316 C3315 1.373 . S
C3317 C3301 1.377 . S
C3317 C3315 1.389 . S
C3317 C3318 1.524 . S
C3318 C3317 1.524 . S
C3318 C3319 1.397 . S
C3318 C3323 1.363 . S
C3319 H3290 0.950 . S
C3319 C3318 1.397 . S
C3319 C3320 1.334 . S
C3320 H3291 0.950 . S
C3320 C3319 1.334 . S
C3320 C3321 1.287 . S
C3321 C3320 1.287 . S
C3321 C3322 1.524 . S
C3321 H3324 0.999 . S
C3322 H3292 0.950 . S
C3322 C3321 1.524 . S
C3322 C3323 1.415 . S
C3323 H3293 0.950 . S
C3323 C3318 1.363 . S
C3323 C3322 1.415 . S
H3324 C3321 0.999 . S
H3325 C3306 0.913 . S
H3326 C3344 0.951 . S
H3327 C3346 0.951 . S
H3328 C3348 0.950 . S
H3329 C3349 0.950 . S
H3330 C3351 0.950 . S
H3331 C3354 0.950 . S
H3332 C3355 0.950 . S
H3333 C3357 0.950 . S
H3334 C3358 0.950 . S
H3335 C3359 0.951 . S
H3336 C3361 0.951 . S
H3337 C3363 0.950 . S
H3338 C3364 0.950 . S
H3339 C3366 0.950 . S
H3340 C3369 0.950 . S
H3341 C3370 0.950 . S
H3342 C3372 0.950 . S
H3343 C3373 0.950 . S
C3344 H3326 0.951 . S
C3344 C3345 1.366 . S
C3344 C3346 1.388 . S
C3345 C3344 1.366 . S
C3345 C3349 1.385 . S
C3346 H3327 0.951 . S
C3346 C3344 1.388 . S
C3346 C3347 1.366 . S
C3347 C3346 1.366 . S
C3347 C3348 1.414 . S
C3347 C3350 1.499 . S
C3348 H3328 0.950 . S
C3348 C3347 1.414 . S
C3348 C3349 1.374 . S
C3349 H3329 0.950 . S
C3349 C3345 1.385 . S
C3349 C3348 1.374 . S
C3350 C3347 1.499 . S
C3350 C3351 1.373 . S
C3350 C3352 1.389 . S
C3351 H3330 0.950 . S
C3351 C3350 1.373 . S
C3351 C3367 1.377 . S
C3352 C3350 1.389 . S
C3352 C3353 1.524 . S
C3352 C3366 1.377 . S
C3353 C3352 1.524 . S
C3353 C3354 1.397 . S
C3353 C3358 1.363 . S
C3354 H3331 0.950 . S
C3354 C3353 1.397 . S
C3354 C3355 1.334 . S
C3355 H3332 0.950 . S
C3355 C3354 1.334 . S
C3355 C3356 1.287 . S
C3356 C3355 1.287 . S
C3356 C3357 1.524 . S
C3356 H3375 0.913 . S
C3357 H3333 0.950 . S
C3357 C3356 1.524 . S
C3357 C3358 1.415 . S
C3358 H3334 0.950 . S
C3358 C3353 1.363 . S
C3358 C3357 1.415 . S
C3359 H3335 0.951 . S
C3359 C3360 1.366 . S
C3359 C3361 1.388 . S
C3360 C3359 1.366 . S
C3360 C3364 1.385 . S
C3361 H3336 0.951 . S
C3361 C3359 1.388 . S
C3361 C3362 1.366 . S
C3362 C3361 1.366 . S
C3362 C3363 1.414 . S
C3362 C3365 1.499 . S
C3363 H3337 0.950 . S
C3363 C3362 1.414 . S
C3363 C3364 1.374 . S
C3364 H3338 0.950 . S
C3364 C3360 1.385 . S
C3364 C3363 1.374 . S
C3365 C3362 1.499 . S
C3365 C3366 1.373 . S
C3365 C3367 1.389 . S
C3366 H3339 0.950 . S
C3366 C3352 1.377 . S
C3366 C3365 1.373 . S
C3367 C3351 1.377 . S
C3367 C3365 1.389 . S
C3367 C3368 1.524 . S
C3368 C3367 1.524 . S
C3368 C3369 1.397 . S
C3368 C3373 1.363 . S
C3369 H3340 0.950 . S
C3369 C3368 1.397 . S
C3369 C3370 1.334 . S
C3370 H3341 0.950 . S
C3370 C3369 1.334 . S
C3370 C3371 1.287 . S
C3371 C3370 1.287 . S
C3371 C3372 1.524 . S
C3371 H3374 0.999 . S
C3372 H3342 0.950 . S
C3372 C3371 1.524 . S
C3372 C3373 1.415 . S
C3373 H3343 0.950 . S
C3373 C3368 1.363 . S
C3373 C3372 1.415 . S
H3374 C3371 0.999 . S
H3375 C3356 0.913 . S
H3376 C3394 0.951 . S
H3377 C3396 0.951 . S
H3378 C3398 0.950 . S
H3379 C3399 0.950 . S
H3380 C3401 0.950 . S
H3381 C3404 0.950 . S
H3382 C3405 0.950 . S
H3383 C3407 0.950 . S
H3384 C3408 0.950 . S
H3385 C3409 0.951 . S
H3386 C3411 0.951 . S
H3387 C3413 0.950 . S
H3388 C3414 0.950 . S
H3389 C3416 0.950 . S
H3390 C3419 0.950 . S
H3391 C3420 0.950 . S
H3392 C3422 0.950 . S
H3393 C3423 0.950 . S
C3394 H3376 0.951 . S
C3394 C3395 1.366 . S
C3394 C3396 1.388 . S
C3395 C3394 1.366 . S
C3395 C3399 1.385 . S
C3396 H3377 0.951 . S
C3396 C3394 1.388 . S
C3396 C3397 1.366 . S
C3397 C3396 1.366 . S
C3397 C3398 1.414 . S
C3397 C3400 1.499 . S
C3398 H3378 0.950 . S
C3398 C3397 1.414 . S
C3398 C3399 1.374 . S
C3399 H3379 0.950 . S
C3399 C3395 1.385 . S
C3399 C3398 1.374 . S
C3400 C3397 1.499 . S
C3400 C3401 1.373 . S
C3400 C3402 1.389 . S
C3401 H3380 0.950 . S
C3401 C3400 1.373 . S
C3401 C3417 1.377 . S
C3402 C3400 1.389 . S
C3402 C3403 1.524 . S
C3402 C3416 1.377 . S
C3403 C3402 1.524 . S
C3403 C3404 1.397 . S
C3403 C3408 1.363 . S
C3404 H3381 0.950 . S
C3404 C3403 1.397 . S
C3404 C3405 1.334 . S
C3405 H3382 0.950 . S
C3405 C3404 1.334 . S
C3405 C3406 1.287 . S
C3406 C3405 1.287 . S
C3406 C3407 1.524 . S
C3406 H3425 0.913 . S
C3407 H3383 0.950 . S
C3407 C3406 1.524 . S
C3407 C3408 1.415 . S
C3408 H3384 0.950 . S
C3408 C3403 1.363 . S
C3408 C3407 1.415 . S
C3409 H3385 0.951 . S
C3409 C3410 1.366 . S
C3409 C3411 1.388 . S
C3410 C3409 1.366 . S
C3410 C3414 1.385 . S
C3411 H3386 0.951 . S
C3411 C3409 1.388 . S
C3411 C3412 1.366 . S
C3412 C3411 1.366 . S
C3412 C3413 1.414 . S
C3412 C3415 1.499 . S
C3413 H3387 0.950 . S
C3413 C3412 1.414 . S
C3413 C3414 1.374 . S
C3414 H3388 0.950 . S
C3414 C3410 1.385 . S
C3414 C3413 1.374 . S
C3415 C3412 1.499 . S
C3415 C3416 1.373 . S
C3415 C3417 1.389 . S
C3416 H3389 0.950 . S
C3416 C3402 1.377 . S
C3416 C3415 1.373 . S
C3417 C3401 1.377 . S
C3417 C3415 1.389 . S
C3417 C3418 1.524 . S
C3418 C3417 1.524 . S
C3418 C3419 1.397 . S
C3418 C3423 1.363 . S
C3419 H3390 0.950 . S
C3419 C3418 1.397 . S
C3419 C3420 1.334 . S
C3420 H3391 0.950 . S
C3420 C3419 1.334 . S
C3420 C3421 1.287 . S
C3421 C3420 1.287 . S
C3421 C3422 1.524 . S
C3421 H3424 0.999 . S
C3422 H3392 0.950 . S
C3422 C3421 1.524 . S
C3422 C3423 1.415 . S
C3423 H3393 0.950 . S
C3423 C3418 1.363 . S
C3423 C3422 1.415 . S
H3424 C3421 0.999 . S
H3425 C3406 0.913 . S
H3426 C3444 0.951 . S
H3427 C3446 0.951 . S
H3428 C3448 0.950 . S
H3429 C3449 0.950 . S
H3430 C3451 0.950 . S
H3431 C3454 0.950 . S
H3432 C3455 0.950 . S
H3433 C3457 0.950 . S
H3434 C3458 0.950 . S
H3435 C3459 0.951 . S
H3436 C3461 0.951 . S
H3437 C3463 0.950 . S
H3438 C3464 0.950 . S
H3439 C3466 0.950 . S
H3440 C3469 0.950 . S
H3441 C3470 0.950 . S
H3442 C3472 0.950 . S
H3443 C3473 0.950 . S
C3444 H3426 0.951 . S
C3444 C3445 1.366 . S
C3444 C3446 1.388 . S
C3445 C3444 1.366 . S
C3445 C3449 1.385 . S
C3446 H3427 0.951 . S
C3446 C3444 1.388 . S
C3446 C3447 1.366 . S
C3447 C3446 1.366 . S
C3447 C3448 1.414 . S
C3447 C3450 1.499 . S
C3448 H3428 0.950 . S
C3448 C3447 1.414 . S
C3448 C3449 1.374 . S
C3449 H3429 0.950 . S
C3449 C3445 1.385 . S
C3449 C3448 1.374 . S
C3450 C3447 1.499 . S
C3450 C3451 1.373 . S
C3450 C3452 1.389 . S
C3451 H3430 0.950 . S
C3451 C3450 1.373 . S
C3451 C3467 1.377 . S
C3452 C3450 1.389 . S
C3452 C3453 1.524 . S
C3452 C3466 1.377 . S
C3453 C3452 1.524 . S
C3453 C3454 1.397 . S
C3453 C3458 1.363 . S
C3454 H3431 0.950 . S
C3454 C3453 1.397 . S
C3454 C3455 1.334 . S
C3455 H3432 0.950 . S
C3455 C3454 1.334 . S
C3455 C3456 1.287 . S
C3456 C3455 1.287 . S
C3456 C3457 1.524 . S
C3456 H3475 0.913 . S
C3457 H3433 0.950 . S
C3457 C3456 1.524 . S
C3457 C3458 1.415 . S
C3458 H3434 0.950 . S
C3458 C3453 1.363 . S
C3458 C3457 1.415 . S
C3459 H3435 0.951 . S
C3459 C3460 1.366 . S
C3459 C3461 1.388 . S
C3460 C3459 1.366 . S
C3460 C3464 1.385 . S
C3461 H3436 0.951 . S
C3461 C3459 1.388 . S
C3461 C3462 1.366 . S
C3462 C3461 1.366 . S
C3462 C3463 1.414 . S
C3462 C3465 1.499 . S
C3463 H3437 0.950 . S
C3463 C3462 1.414 . S
C3463 C3464 1.374 . S
C3464 H3438 0.950 . S
C3464 C3460 1.385 . S
C3464 C3463 1.374 . S
C3465 C3462 1.499 . S
C3465 C3466 1.373 . S
C3465 C3467 1.389 . S
C3466 H3439 0.950 . S
C3466 C3452 1.377 . S
C3466 C3465 1.373 . S
C3467 C3451 1.377 . S
C3467 C3465 1.389 . S
C3467 C3468 1.524 . S
C3468 C3467 1.524 . S
C3468 C3469 1.397 . S
C3468 C3473 1.363 . S
C3469 H3440 0.950 . S
C3469 C3468 1.397 . S
C3469 C3470 1.334 . S
C3470 H3441 0.950 . S
C3470 C3469 1.334 . S
C3470 C3471 1.287 . S
C3471 C3470 1.287 . S
C3471 C3472 1.524 . S
C3471 H3474 0.999 . S
C3472 H3442 0.950 . S
C3472 C3471 1.524 . S
C3472 C3473 1.415 . S
C3473 H3443 0.950 . S
C3473 C3468 1.363 . S
C3473 C3472 1.415 . S
H3474 C3471 0.999 . S
H3475 C3456 0.913 . S
H3476 C3494 0.951 . S
H3477 C3496 0.951 . S
H3478 C3498 0.950 . S
H3479 C3499 0.950 . S
H3480 C3501 0.976 . S
H3481 C3504 0.950 . S
H3482 C3505 0.950 . S
H3483 C3507 0.950 . S
H3484 C3508 0.950 . S
H3485 C3509 0.951 . S
H3486 C3511 0.951 . S
H3487 C3513 0.950 1_556 S
H3488 C3514 0.950 . S
H3489 C3516 0.950 . S
H3490 C3519 0.951 1_655 S
H3491 C3520 0.950 . S
H3492 C3522 0.950 . S
H3493 C3523 0.950 . S
C3494 H3476 0.951 . S
C3494 C3495 1.366 . S
C3494 C3496 1.388 . S
C3495 C3494 1.366 . S
C3495 C3499 1.385 . S
C3496 H3477 0.951 . S
C3496 C3494 1.388 . S
C3496 C3497 1.366 . S
C3497 C3496 1.366 . S
C3497 C3498 1.414 . S
C3497 C3500 1.499 . S
C3498 H3478 0.950 . S
C3498 C3497 1.414 . S
C3498 C3499 1.374 . S
C3499 H3479 0.950 . S
C3499 C3495 1.385 . S
C3499 C3498 1.374 . S
C3500 C3497 1.499 . S
C3500 C3501 1.373 . S
C3500 C3502 1.389 . S
C3501 H3480 0.976 . S
C3501 C3500 1.373 . S
C3501 C3517 1.377 1_556 S
C3502 C3500 1.389 . S
C3502 C3503 1.524 . S
C3502 C3516 1.377 . S
C3503 C3502 1.524 . S
C3503 C3504 1.397 . S
C3503 C3508 1.363 . S
C3504 H3481 0.950 . S
C3504 C3503 1.397 . S
C3504 C3505 1.334 . S
C3505 H3482 0.950 . S
C3505 C3504 1.334 . S
C3505 C3506 1.287 . S
C3506 C3505 1.287 . S
C3506 C3507 1.524 . S
C3506 H3525 0.913 . S
C3507 H3483 0.950 . S
C3507 C3506 1.524 . S
C3507 C3508 1.415 . S
C3508 H3484 0.950 . S
C3508 C3503 1.363 . S
C3508 C3507 1.415 . S
C3509 H3485 0.951 . S
C3509 C3510 1.366 . S
C3509 C3511 1.388 . S
C3510 C3509 1.366 . S
C3510 C3514 1.385 . S
C3511 H3486 0.951 . S
C3511 C3509 1.388 . S
C3511 C3512 1.366 . S
C3512 C3511 1.366 . S
C3512 C3513 1.414 . S
C3512 C3515 1.499 1_554 S
C3513 H3487 0.950 1_554 S
C3513 C3512 1.414 . S
C3513 C3514 1.374 . S
C3514 H3488 0.950 . S
C3514 C3510 1.385 . S
C3514 C3513 1.374 . S
C3515 C3512 1.499 1_556 S
C3515 C3516 1.373 . S
C3515 C3517 1.389 1_556 S
C3516 H3489 0.950 . S
C3516 C3502 1.377 . S
C3516 C3515 1.373 . S
C3517 C3501 1.377 1_554 S
C3517 C3515 1.389 1_554 S
C3517 C3518 1.524 . S
C3518 C3517 1.524 . S
C3518 C3519 1.397 . S
C3518 C3523 1.363 . S
C3519 H3490 0.951 1_455 S
C3519 C3518 1.397 . S
C3519 C3520 1.334 1_455 S
C3520 H3491 0.950 . S
C3520 C3519 1.334 1_655 S
C3520 C3521 1.287 . S
C3521 C3520 1.287 . S
C3521 C3522 1.524 1_655 S
C3521 H3524 0.999 . S
C3522 H3492 0.950 . S
C3522 C3521 1.524 1_455 S
C3522 C3523 1.415 . S
C3523 H3493 0.950 . S
C3523 C3518 1.363 . S
C3523 C3522 1.415 . S
H3524 C3521 0.999 . S
H3525 C3506 0.913 . S
H3526 C3544 0.951 . S
H3527 C3546 0.951 . S
H3528 C3548 0.950 . S
H3529 C3549 0.950 . S
H3530 C3551 0.950 . S
H3531 C3554 0.950 . S
H3532 C3555 0.950 . S
H3533 C3557 0.950 . S
H3534 C3558 0.950 . S
H3535 C3559 0.951 . S
H3536 C3561 0.951 . S
H3537 C3563 0.950 . S
H3538 C3564 0.950 . S
H3539 C3566 0.950 . S
H3540 C3569 0.950 . S
H3541 C3570 0.950 . S
H3542 C3572 0.950 . S
H3543 C3573 0.950 . S
C3544 H3526 0.951 . S
C3544 C3545 1.366 1_655 S
C3544 C3546 1.388 . S
C3545 C3544 1.366 1_455 S
C3545 C3549 1.385 . S
C3546 H3527 0.951 . S
C3546 C3544 1.388 . S
C3546 C3547 1.366 . S
C3547 C3546 1.366 . S
C3547 C3548 1.414 . S
C3547 C3550 1.499 . S
C3548 H3528 0.950 . S
C3548 C3547 1.414 . S
C3548 C3549 1.374 1_655 S
C3549 H3529 0.950 . S
C3549 C3545 1.385 . S
C3549 C3548 1.374 1_455 S
C3550 C3547 1.499 . S
C3550 C3551 1.373 . S
C3550 C3552 1.389 . S
C3551 H3530 0.950 . S
C3551 C3550 1.373 . S
C3551 C3567 1.377 . S
C3552 C3550 1.389 . S
C3552 C3553 1.524 . S
C3552 C3566 1.377 . S
C3553 C3552 1.524 . S
C3553 C3554 1.397 . S
C3553 C3558 1.363 . S
C3554 H3531 0.950 . S
C3554 C3553 1.397 . S
C3554 C3555 1.334 . S
C3555 H3532 0.950 . S
C3555 C3554 1.334 . S
C3555 C3556 1.287 . S
C3556 C3555 1.287 . S
C3556 C3557 1.524 . S
C3556 H3575 0.913 . S
C3557 H3533 0.950 . S
C3557 C3556 1.524 . S
C3557 C3558 1.415 . S
C3558 H3534 0.950 . S
C3558 C3553 1.363 . S
C3558 C3557 1.415 . S
C3559 H3535 0.951 . S
C3559 C3560 1.366 . S
C3559 C3561 1.388 . S
C3560 C3559 1.366 . S
C3560 C3564 1.385 . S
C3561 H3536 0.951 . S
C3561 C3559 1.388 . S
C3561 C3562 1.366 . S
C3562 C3561 1.366 . S
C3562 C3563 1.414 . S
C3562 C3565 1.499 . S
C3563 H3537 0.950 . S
C3563 C3562 1.414 . S
C3563 C3564 1.374 . S
C3564 H3538 0.950 . S
C3564 C3560 1.385 . S
C3564 C3563 1.374 . S
C3565 C3562 1.499 . S
C3565 C3566 1.373 . S
C3565 C3567 1.389 . S
C3566 H3539 0.950 . S
C3566 C3552 1.377 . S
C3566 C3565 1.373 . S
C3567 C3551 1.377 . S
C3567 C3565 1.389 . S
C3567 C3568 1.524 . S
C3568 C3567 1.524 . S
C3568 C3569 1.397 . S
C3568 C3573 1.363 . S
C3569 H3540 0.950 . S
C3569 C3568 1.397 . S
C3569 C3570 1.334 . S
C3570 H3541 0.950 . S
C3570 C3569 1.334 . S
C3570 C3571 1.287 . S
C3571 C3570 1.287 . S
C3571 C3572 1.524 . S
C3571 H3574 0.999 . S
C3572 H3542 0.950 . S
C3572 C3571 1.524 . S
C3572 C3573 1.415 . S
C3573 H3543 0.950 . S
C3573 C3568 1.363 . S
C3573 C3572 1.415 . S
H3574 C3571 0.999 . S
H3575 C3556 0.913 . S
H3576 C3594 0.951 . S
H3577 C3596 0.951 . S
H3578 C3598 0.950 . S
H3579 C3599 0.950 . S
H3580 C3601 0.950 . S
H3581 C3604 0.950 . S
H3582 C3605 0.950 . S
H3583 C3607 0.950 . S
H3584 C3608 0.950 . S
H3585 C3609 0.951 . S
H3586 C3611 0.951 . S
H3587 C3613 0.950 . S
H3588 C3614 0.950 . S
H3589 C3616 0.950 . S
H3590 C3619 0.950 . S
H3591 C3620 0.950 . S
H3592 C3622 0.950 . S
H3593 C3623 0.950 . S
C3594 H3576 0.951 . S
C3594 C3595 1.366 . S
C3594 C3596 1.388 . S
C3595 C3594 1.366 . S
C3595 C3599 1.385 . S
C3596 H3577 0.951 . S
C3596 C3594 1.388 . S
C3596 C3597 1.366 . S
C3597 C3596 1.366 . S
C3597 C3598 1.414 . S
C3597 C3600 1.499 . S
C3598 H3578 0.950 . S
C3598 C3597 1.414 . S
C3598 C3599 1.374 . S
C3599 H3579 0.950 . S
C3599 C3595 1.385 . S
C3599 C3598 1.374 . S
C3600 C3597 1.499 . S
C3600 C3601 1.373 . S
C3600 C3602 1.389 . S
C3601 H3580 0.950 . S
C3601 C3600 1.373 . S
C3601 C3617 1.377 . S
C3602 C3600 1.389 . S
C3602 C3603 1.524 . S
C3602 C3616 1.377 . S
C3603 C3602 1.524 . S
C3603 C3604 1.397 . S
C3603 C3608 1.363 . S
C3604 H3581 0.950 . S
C3604 C3603 1.397 . S
C3604 C3605 1.334 . S
C3605 H3582 0.950 . S
C3605 C3604 1.334 . S
C3605 C3606 1.287 . S
C3606 C3605 1.287 . S
C3606 C3607 1.524 . S
C3606 H3625 0.913 . S
C3607 H3583 0.950 . S
C3607 C3606 1.524 . S
C3607 C3608 1.415 . S
C3608 H3584 0.950 . S
C3608 C3603 1.363 . S
C3608 C3607 1.415 . S
C3609 H3585 0.951 . S
C3609 C3610 1.366 . S
C3609 C3611 1.388 . S
C3610 C3609 1.366 . S
C3610 C3614 1.385 . S
C3611 H3586 0.951 . S
C3611 C3609 1.388 . S
C3611 C3612 1.366 . S
C3612 C3611 1.366 . S
C3612 C3613 1.414 . S
C3612 C3615 1.499 . S
C3613 H3587 0.950 . S
C3613 C3612 1.414 . S
C3613 C3614 1.374 . S
C3614 H3588 0.950 . S
C3614 C3610 1.385 . S
C3614 C3613 1.374 . S
C3615 C3612 1.499 . S
C3615 C3616 1.373 . S
C3615 C3617 1.389 . S
C3616 H3589 0.950 . S
C3616 C3602 1.377 . S
C3616 C3615 1.373 . S
C3617 C3601 1.377 . S
C3617 C3615 1.389 . S
C3617 C3618 1.524 . S
C3618 C3617 1.524 . S
C3618 C3619 1.397 . S
C3618 C3623 1.363 . S
C3619 H3590 0.950 . S
C3619 C3618 1.397 . S
C3619 C3620 1.334 . S
C3620 H3591 0.950 . S
C3620 C3619 1.334 . S
C3620 C3621 1.287 . S
C3621 C3620 1.287 . S
C3621 C3622 1.524 . S
C3621 H3624 0.999 . S
C3622 H3592 0.950 . S
C3622 C3621 1.524 . S
C3622 C3623 1.415 . S
C3623 H3593 0.950 . S
C3623 C3618 1.363 . S
C3623 C3622 1.415 . S
H3624 C3621 0.999 . S
H3625 C3606 0.913 . S
H3626 C3644 0.951 . S
H3627 C3646 0.951 . S
H3628 C3648 0.950 . S
H3629 C3649 0.950 . S
H3630 C3651 0.950 . S
H3631 C3654 0.950 . S
H3632 C3655 0.950 . S
H3633 C3657 0.950 . S
H3634 C3658 0.950 . S
H3635 C3659 0.951 . S
H3636 C3661 0.951 . S
H3637 C3663 0.950 . S
H3638 C3664 0.950 . S
H3639 C3666 0.950 . S
H3640 C3669 0.950 . S
H3641 C3670 0.950 . S
H3642 C3672 0.950 . S
H3643 C3673 0.950 . S
C3644 H3626 0.951 . S
C3644 C3645 1.366 . S
C3644 C3646 1.388 . S
C3645 C3644 1.366 . S
C3645 C3649 1.385 . S
C3646 H3627 0.951 . S
C3646 C3644 1.388 . S
C3646 C3647 1.366 . S
C3647 C3646 1.366 . S
C3647 C3648 1.414 . S
C3647 C3650 1.499 . S
C3648 H3628 0.950 . S
C3648 C3647 1.414 . S
C3648 C3649 1.374 . S
C3649 H3629 0.950 . S
C3649 C3645 1.385 . S
C3649 C3648 1.374 . S
C3650 C3647 1.499 . S
C3650 C3651 1.373 . S
C3650 C3652 1.389 . S
C3651 H3630 0.950 . S
C3651 C3650 1.373 . S
C3651 C3667 1.377 . S
C3652 C3650 1.389 . S
C3652 C3653 1.524 . S
C3652 C3666 1.377 . S
C3653 C3652 1.524 . S
C3653 C3654 1.397 . S
C3653 C3658 1.363 . S
C3654 H3631 0.950 . S
C3654 C3653 1.397 . S
C3654 C3655 1.334 . S
C3655 H3632 0.950 . S
C3655 C3654 1.334 . S
C3655 C3656 1.287 . S
C3656 C3655 1.287 . S
C3656 C3657 1.524 . S
C3656 H3675 0.913 . S
C3657 H3633 0.950 . S
C3657 C3656 1.524 . S
C3657 C3658 1.415 . S
C3658 H3634 0.950 . S
C3658 C3653 1.363 . S
C3658 C3657 1.415 . S
C3659 H3635 0.951 . S
C3659 C3660 1.366 . S
C3659 C3661 1.388 . S
C3660 C3659 1.366 . S
C3660 C3664 1.385 . S
C3661 H3636 0.951 . S
C3661 C3659 1.388 . S
C3661 C3662 1.366 . S
C3662 C3661 1.366 . S
C3662 C3663 1.414 . S
C3662 C3665 1.499 . S
C3663 H3637 0.950 . S
C3663 C3662 1.414 . S
C3663 C3664 1.374 . S
C3664 H3638 0.950 . S
C3664 C3660 1.385 . S
C3664 C3663 1.374 . S
C3665 C3662 1.499 . S
C3665 C3666 1.373 . S
C3665 C3667 1.389 . S
C3666 H3639 0.950 . S
C3666 C3652 1.377 . S
C3666 C3665 1.373 . S
C3667 C3651 1.377 . S
C3667 C3665 1.389 . S
C3667 C3668 1.524 . S
C3668 C3667 1.524 . S
C3668 C3669 1.397 . S
C3668 C3673 1.363 . S
C3669 H3640 0.950 . S
C3669 C3668 1.397 . S
C3669 C3670 1.334 . S
C3670 H3641 0.950 . S
C3670 C3669 1.334 . S
C3670 C3671 1.287 . S
C3671 C3670 1.287 . S
C3671 C3672 1.524 . S
C3671 H3674 0.999 . S
C3672 H3642 0.950 . S
C3672 C3671 1.524 . S
C3672 C3673 1.415 . S
C3673 H3643 0.950 . S
C3673 C3668 1.363 . S
C3673 C3672 1.415 . S
H3674 C3671 0.999 . S
H3675 C3656 0.913 . S
H3676 C3694 0.951 . S
H3677 C3696 0.951 . S
H3678 C3698 0.950 . S
H3679 C3699 0.950 . S
H3680 C3701 0.950 . S
H3681 C3704 0.950 . S
H3682 C3705 0.950 . S
H3683 C3707 0.950 . S
H3684 C3708 0.941 . S
H3685 C3709 0.951 . S
H3686 C3711 0.951 . S
H3687 C3713 0.950 . S
H3688 C3714 0.950 . S
H3689 C3716 0.950 . S
H3690 C3719 0.950 . S
H3691 C3720 0.950 . S
H3692 C3722 0.950 . S
H3693 C3723 0.950 . S
C3694 H3676 0.951 . S
C3694 C3695 1.366 . S
C3694 C3696 1.388 . S
C3695 C3694 1.366 . S
C3695 C3699 1.385 . S
C3696 H3677 0.951 . S
C3696 C3694 1.388 . S
C3696 C3697 1.366 . S
C3697 C3696 1.366 . S
C3697 C3698 1.414 . S
C3697 C3700 1.499 . S
C3698 H3678 0.950 . S
C3698 C3697 1.414 . S
C3698 C3699 1.374 . S
C3699 H3679 0.950 . S
C3699 C3695 1.385 . S
C3699 C3698 1.374 . S
C3700 C3697 1.499 . S
C3700 C3701 1.373 . S
C3700 C3702 1.389 . S
C3701 H3680 0.950 . S
C3701 C3700 1.373 . S
C3701 C3717 1.377 . S
C3702 C3700 1.389 . S
C3702 C3703 1.524 . S
C3702 C3716 1.377 . S
C3703 C3702 1.524 . S
C3703 C3704 1.397 . S
C3703 C3708 1.363 . S
C3704 H3681 0.950 . S
C3704 C3703 1.397 . S
C3704 C3705 1.334 . S
C3705 H3682 0.950 . S
C3705 C3704 1.334 . S
C3705 C3706 1.287 1_455 S
C3706 C3705 1.287 1_655 S
C3706 C3707 1.524 . S
C3706 H3725 0.913 . S
C3707 H3683 0.950 . S
C3707 C3706 1.524 . S
C3707 C3708 1.415 1_655 S
C3708 H3684 0.941 . S
C3708 C3703 1.363 . S
C3708 C3707 1.415 1_455 S
C3709 H3685 0.951 . S
C3709 C3710 1.366 . S
C3709 C3711 1.388 . S
C3710 C3709 1.366 . S
C3710 C3714 1.385 . S
C3711 H3686 0.951 . S
C3711 C3709 1.388 . S
C3711 C3712 1.366 . S
C3712 C3711 1.366 . S
C3712 C3713 1.414 . S
C3712 C3715 1.499 . S
C3713 H3687 0.950 . S
C3713 C3712 1.414 . S
C3713 C3714 1.374 . S
C3714 H3688 0.950 . S
C3714 C3710 1.385 . S
C3714 C3713 1.374 . S
C3715 C3712 1.499 . S
C3715 C3716 1.373 . S
C3715 C3717 1.389 . S
C3716 H3689 0.950 . S
C3716 C3702 1.377 . S
C3716 C3715 1.373 . S
C3717 C3701 1.377 . S
C3717 C3715 1.389 . S
C3717 C3718 1.524 . S
C3718 C3717 1.524 . S
C3718 C3719 1.397 . S
C3718 C3723 1.363 . S
C3719 H3690 0.950 . S
C3719 C3718 1.397 . S
C3719 C3720 1.334 . S
C3720 H3691 0.950 . S
C3720 C3719 1.334 . S
C3720 C3721 1.287 . S
C3721 C3720 1.287 . S
C3721 C3722 1.524 . S
C3721 H3724 0.999 . S
C3722 H3692 0.950 . S
C3722 C3721 1.524 . S
C3722 C3723 1.415 . S
C3723 H3693 0.950 . S
C3723 C3718 1.363 . S
C3723 C3722 1.415 . S
H3724 C3721 0.999 . S
H3725 C3706 0.913 . S
H3726 C3744 0.951 . S
H3727 C3746 0.951 . S
H3728 C3748 0.950 . S
H3729 C3749 0.950 . S
H3730 C3751 0.950 . S
H3731 C3754 0.950 . S
H3732 C3755 0.950 . S
H3733 C3757 0.950 . S
H3734 C3758 0.950 . S
H3735 C3759 0.951 . S
H3736 C3761 0.951 . S
H3737 C3763 0.950 . S
H3738 C3764 0.950 . S
H3739 C3766 0.950 . S
H3740 C3769 0.950 . S
H3741 C3770 0.950 . S
H3742 C3772 0.950 . S
H3743 C3773 0.950 . S
C3744 H3726 0.951 . S
C3744 C3745 1.366 . S
C3744 C3746 1.388 . S
C3745 C3744 1.366 . S
C3745 C3749 1.385 . S
C3746 H3727 0.951 . S
C3746 C3744 1.388 . S
C3746 C3747 1.366 . S
C3747 C3746 1.366 . S
C3747 C3748 1.414 . S
C3747 C3750 1.499 . S
C3748 H3728 0.950 . S
C3748 C3747 1.414 . S
C3748 C3749 1.374 . S
C3749 H3729 0.950 . S
C3749 C3745 1.385 . S
C3749 C3748 1.374 . S
C3750 C3747 1.499 . S
C3750 C3751 1.373 . S
C3750 C3752 1.389 . S
C3751 H3730 0.950 . S
C3751 C3750 1.373 . S
C3751 C3767 1.377 . S
C3752 C3750 1.389 . S
C3752 C3753 1.524 . S
C3752 C3766 1.377 . S
C3753 C3752 1.524 . S
C3753 C3754 1.397 . S
C3753 C3758 1.363 . S
C3754 H3731 0.950 . S
C3754 C3753 1.397 . S
C3754 C3755 1.334 . S
C3755 H3732 0.950 . S
C3755 C3754 1.334 . S
C3755 C3756 1.287 . S
C3756 C3755 1.287 . S
C3756 C3757 1.524 . S
C3756 H3775 0.913 . S
C3757 H3733 0.950 . S
C3757 C3756 1.524 . S
C3757 C3758 1.415 . S
C3758 H3734 0.950 . S
C3758 C3753 1.363 . S
C3758 C3757 1.415 . S
C3759 H3735 0.951 . S
C3759 C3760 1.366 . S
C3759 C3761 1.388 . S
C3760 C3759 1.366 . S
C3760 C3764 1.385 . S
C3761 H3736 0.951 . S
C3761 C3759 1.388 . S
C3761 C3762 1.366 . S
C3762 C3761 1.366 . S
C3762 C3763 1.414 . S
C3762 C3765 1.499 . S
C3763 H3737 0.950 . S
C3763 C3762 1.414 . S
C3763 C3764 1.374 . S
C3764 H3738 0.950 . S
C3764 C3760 1.385 . S
C3764 C3763 1.374 . S
C3765 C3762 1.499 . S
C3765 C3766 1.373 . S
C3765 C3767 1.389 . S
C3766 H3739 0.950 . S
C3766 C3752 1.377 . S
C3766 C3765 1.373 . S
C3767 C3751 1.377 . S
C3767 C3765 1.389 . S
C3767 C3768 1.524 . S
C3768 C3767 1.524 . S
C3768 C3769 1.397 . S
C3768 C3773 1.363 . S
C3769 H3740 0.950 . S
C3769 C3768 1.397 . S
C3769 C3770 1.334 . S
C3770 H3741 0.950 . S
C3770 C3769 1.334 . S
C3770 C3771 1.287 . S
C3771 C3770 1.287 . S
C3771 C3772 1.524 . S
C3771 H3774 0.999 . S
C3772 H3742 0.950 . S
C3772 C3771 1.524 . S
C3772 C3773 1.415 . S
C3773 H3743 0.950 . S
C3773 C3768 1.363 . S
C3773 C3772 1.415 . S
H3774 C3771 0.999 . S
H3775 C3756 0.913 . S
H3776 C3794 0.951 . S
H3777 C3796 0.951 . S
H3778 C3798 0.950 . S
H3779 C3799 0.950 . S
H3780 C3801 0.950 . S
H3781 C3804 0.950 . S
H3782 C3805 0.950 . S
H3783 C3807 0.950 . S
H3784 C3808 0.950 . S
H3785 C3809 0.951 . S
H3786 C3811 0.951 . S
H3787 C3813 0.950 . S
H3788 C3814 0.950 . S
H3789 C3816 0.950 . S
H3790 C3819 0.950 . S
H3791 C3820 0.950 . S
H3792 C3822 0.950 . S
H3793 C3823 0.950 . S
C3794 H3776 0.951 . S
C3794 C3795 1.366 . S
C3794 C3796 1.388 . S
C3795 C3794 1.366 . S
C3795 C3799 1.385 . S
C3796 H3777 0.951 . S
C3796 C3794 1.388 . S
C3796 C3797 1.366 . S
C3797 C3796 1.366 . S
C3797 C3798 1.414 . S
C3797 C3800 1.499 . S
C3798 H3778 0.950 . S
C3798 C3797 1.414 . S
C3798 C3799 1.374 . S
C3799 H3779 0.950 . S
C3799 C3795 1.385 . S
C3799 C3798 1.374 . S
C3800 C3797 1.499 . S
C3800 C3801 1.373 . S
C3800 C3802 1.389 . S
C3801 H3780 0.950 . S
C3801 C3800 1.373 . S
C3801 C3817 1.377 . S
C3802 C3800 1.389 . S
C3802 C3803 1.524 . S
C3802 C3816 1.377 . S
C3803 C3802 1.524 . S
C3803 C3804 1.397 . S
C3803 C3808 1.363 . S
C3804 H3781 0.950 . S
C3804 C3803 1.397 . S
C3804 C3805 1.334 . S
C3805 H3782 0.950 . S
C3805 C3804 1.334 . S
C3805 C3806 1.287 . S
C3806 C3805 1.287 . S
C3806 C3807 1.524 . S
C3806 H3825 0.913 . S
C3807 H3783 0.950 . S
C3807 C3806 1.524 . S
C3807 C3808 1.415 . S
C3808 H3784 0.950 . S
C3808 C3803 1.363 . S
C3808 C3807 1.415 . S
C3809 H3785 0.951 . S
C3809 C3810 1.366 . S
C3809 C3811 1.388 . S
C3810 C3809 1.366 . S
C3810 C3814 1.385 . S
C3811 H3786 0.951 . S
C3811 C3809 1.388 . S
C3811 C3812 1.366 . S
C3812 C3811 1.366 . S
C3812 C3813 1.414 . S
C3812 C3815 1.499 . S
C3813 H3787 0.950 . S
C3813 C3812 1.414 . S
C3813 C3814 1.374 . S
C3814 H3788 0.950 . S
C3814 C3810 1.385 . S
C3814 C3813 1.374 . S
C3815 C3812 1.499 . S
C3815 C3816 1.373 . S
C3815 C3817 1.389 . S
C3816 H3789 0.950 . S
C3816 C3802 1.377 . S
C3816 C3815 1.373 . S
C3817 C3801 1.377 . S
C3817 C3815 1.389 . S
C3817 C3818 1.524 . S
C3818 C3817 1.524 . S
C3818 C3819 1.397 . S
C3818 C3823 1.363 . S
C3819 H3790 0.950 . S
C3819 C3818 1.397 . S
C3819 C3820 1.334 . S
C3820 H3791 0.950 . S
C3820 C3819 1.334 . S
C3820 C3821 1.287 . S
C3821 C3820 1.287 . S
C3821 C3822 1.524 . S
C3821 H3824 0.999 . S
C3822 H3792 0.950 . S
C3822 C3821 1.524 . S
C3822 C3823 1.415 . S
C3823 H3793 0.950 . S
C3823 C3818 1.363 . S
C3823 C3822 1.415 . S
H3824 C3821 0.999 . S
H3825 C3806 0.913 . S
H3826 C3844 0.951 . S
H3827 C3846 0.951 . S
H3828 C3848 0.950 . S
H3829 C3849 0.950 . S
H3830 C3851 0.950 . S
H3831 C3854 0.950 . S
H3832 C3855 0.950 . S
H3833 C3857 0.950 . S
H3834 C3858 0.950 . S
H3835 C3859 0.951 . S
H3836 C3861 0.951 . S
H3837 C3863 0.950 . S
H3838 C3864 0.950 . S
H3839 C3866 0.950 . S
H3840 C3869 0.950 . S
H3841 C3870 0.950 . S
H3842 C3872 0.950 . S
H3843 C3873 0.950 . S
C3844 H3826 0.951 . S
C3844 C3845 1.366 . S
C3844 C3846 1.388 . S
C3845 C3844 1.366 . S
C3845 C3849 1.385 . S
C3846 H3827 0.951 . S
C3846 C3844 1.388 . S
C3846 C3847 1.366 . S
C3847 C3846 1.366 . S
C3847 C3848 1.414 . S
C3847 C3850 1.499 . S
C3848 H3828 0.950 . S
C3848 C3847 1.414 . S
C3848 C3849 1.374 . S
C3849 H3829 0.950 . S
C3849 C3845 1.385 . S
C3849 C3848 1.374 . S
C3850 C3847 1.499 . S
C3850 C3851 1.373 . S
C3850 C3852 1.389 . S
C3851 H3830 0.950 . S
C3851 C3850 1.373 . S
C3851 C3867 1.377 . S
C3852 C3850 1.389 . S
C3852 C3853 1.524 . S
C3852 C3866 1.377 . S
C3853 C3852 1.524 . S
C3853 C3854 1.397 . S
C3853 C3858 1.363 . S
C3854 H3831 0.950 . S
C3854 C3853 1.397 . S
C3854 C3855 1.334 . S
C3855 H3832 0.950 . S
C3855 C3854 1.334 . S
C3855 C3856 1.287 . S
C3856 C3855 1.287 . S
C3856 C3857 1.524 . S
C3856 H3875 0.913 . S
C3857 H3833 0.950 . S
C3857 C3856 1.524 . S
C3857 C3858 1.415 . S
C3858 H3834 0.950 . S
C3858 C3853 1.363 . S
C3858 C3857 1.415 . S
C3859 H3835 0.951 . S
C3859 C3860 1.366 . S
C3859 C3861 1.388 . S
C3860 C3859 1.366 . S
C3860 C3864 1.385 . S
C3861 H3836 0.951 . S
C3861 C3859 1.388 . S
C3861 C3862 1.366 . S
C3862 C3861 1.366 . S
C3862 C3863 1.414 . S
C3862 C3865 1.499 . S
C3863 H3837 0.950 . S
C3863 C3862 1.414 . S
C3863 C3864 1.374 . S
C3864 H3838 0.950 . S
C3864 C3860 1.385 . S
C3864 C3863 1.374 . S
C3865 C3862 1.499 . S
C3865 C3866 1.373 . S
C3865 C3867 1.389 . S
C3866 H3839 0.950 . S
C3866 C3852 1.377 . S
C3866 C3865 1.373 . S
C3867 C3851 1.377 . S
C3867 C3865 1.389 . S
C3867 C3868 1.524 . S
C3868 C3867 1.524 . S
C3868 C3869 1.397 . S
C3868 C3873 1.363 . S
C3869 H3840 0.950 . S
C3869 C3868 1.397 . S
C3869 C3870 1.334 . S
C3870 H3841 0.950 . S
C3870 C3869 1.334 . S
C3870 C3871 1.287 . S
C3871 C3870 1.287 . S
C3871 C3872 1.524 . S
C3871 H3874 0.999 . S
C3872 H3842 0.950 . S
C3872 C3871 1.524 . S
C3872 C3873 1.415 . S
C3873 H3843 0.950 . S
C3873 C3868 1.363 . S
C3873 C3872 1.415 . S
H3874 C3871 0.999 . S
H3875 C3856 0.913 . S
H3876 C3894 0.951 . S
H3877 C3896 0.951 . S
H3878 C3898 0.950 . S
H3879 C3899 0.950 . S
H3880 C3901 0.950 . S
H3881 C3904 0.950 . S
H3882 C3905 0.950 . S
H3883 C3907 0.950 . S
H3884 C3908 0.950 . S
H3885 C3909 0.951 . S
H3886 C3911 0.951 . S
H3887 C3913 0.950 . S
H3888 C3914 0.950 . S
H3889 C3916 0.950 . S
H3890 C3919 0.950 . S
H3891 C3920 0.950 . S
H3892 C3922 0.950 . S
H3893 C3923 0.950 . S
C3894 H3876 0.951 . S
C3894 C3895 1.366 . S
C3894 C3896 1.388 . S
C3895 C3894 1.366 . S
C3895 C3899 1.385 . S
C3896 H3877 0.951 . S
C3896 C3894 1.388 . S
C3896 C3897 1.366 . S
C3897 C3896 1.366 . S
C3897 C3898 1.414 . S
C3897 C3900 1.499 . S
C3898 H3878 0.950 . S
C3898 C3897 1.414 . S
C3898 C3899 1.374 . S
C3899 H3879 0.950 . S
C3899 C3895 1.385 . S
C3899 C3898 1.374 . S
C3900 C3897 1.499 . S
C3900 C3901 1.373 . S
C3900 C3902 1.389 . S
C3901 H3880 0.950 . S
C3901 C3900 1.373 . S
C3901 C3917 1.377 . S
C3902 C3900 1.389 . S
C3902 C3903 1.524 . S
C3902 C3916 1.377 . S
C3903 C3902 1.524 . S
C3903 C3904 1.397 . S
C3903 C3908 1.363 . S
C3904 H3881 0.950 . S
C3904 C3903 1.397 . S
C3904 C3905 1.334 . S
C3905 H3882 0.950 . S
C3905 C3904 1.334 . S
C3905 C3906 1.287 . S
C3906 C3905 1.287 . S
C3906 C3907 1.524 . S
C3906 H3925 0.913 . S
C3907 H3883 0.950 . S
C3907 C3906 1.524 . S
C3907 C3908 1.415 . S
C3908 H3884 0.950 . S
C3908 C3903 1.363 . S
C3908 C3907 1.415 . S
C3909 H3885 0.951 . S
C3909 C3910 1.366 . S
C3909 C3911 1.388 . S
C3910 C3909 1.366 . S
C3910 C3914 1.385 . S
C3911 H3886 0.951 . S
C3911 C3909 1.388 . S
C3911 C3912 1.366 . S
C3912 C3911 1.366 . S
C3912 C3913 1.414 . S
C3912 C3915 1.499 . S
C3913 H3887 0.950 . S
C3913 C3912 1.414 . S
C3913 C3914 1.374 . S
C3914 H3888 0.950 . S
C3914 C3910 1.385 . S
C3914 C3913 1.374 . S
C3915 C3912 1.499 . S
C3915 C3916 1.373 . S
C3915 C3917 1.389 . S
C3916 H3889 0.950 . S
C3916 C3902 1.377 . S
C3916 C3915 1.373 . S
C3917 C3901 1.377 . S
C3917 C3915 1.389 . S
C3917 C3918 1.524 . S
C3918 C3917 1.524 . S
C3918 C3919 1.397 . S
C3918 C3923 1.363 . S
C3919 H3890 0.950 . S
C3919 C3918 1.397 . S
C3919 C3920 1.334 . S
C3920 H3891 0.950 . S
C3920 C3919 1.334 . S
C3920 C3921 1.287 . S
C3921 C3920 1.287 . S
C3921 C3922 1.524 . S
C3921 H3924 0.999 . S
C3922 H3892 0.950 . S
C3922 C3921 1.524 . S
C3922 C3923 1.415 . S
C3923 H3893 0.950 . S
C3923 C3918 1.363 . S
C3923 C3922 1.415 . S
H3924 C3921 0.999 . S
H3925 C3906 0.913 . S
H3926 C3944 0.951 . S
H3927 C3946 0.951 . S
H3928 C3948 0.950 . S
H3929 C3949 0.950 . S
H3930 C3951 0.950 . S
H3931 C3954 0.950 . S
H3932 C3955 0.950 . S
H3933 C3957 0.950 . S
H3934 C3958 0.950 . S
H3935 C3959 0.951 . S
H3936 C3961 0.951 . S
H3937 C3963 0.950 . S
H3938 C3964 0.950 . S
H3939 C3966 0.950 . S
H3940 C3969 0.950 . S
H3941 C3970 0.950 . S
H3942 C3972 0.950 . S
H3943 C3973 0.950 . S
C3944 H3926 0.951 . S
C3944 C3945 1.366 . S
C3944 C3946 1.388 . S
C3945 C3944 1.366 . S
C3945 C3949 1.385 . S
C3946 H3927 0.951 . S
C3946 C3944 1.388 . S
C3946 C3947 1.366 . S
C3947 C3946 1.366 . S
C3947 C3948 1.414 . S
C3947 C3950 1.499 . S
C3948 H3928 0.950 . S
C3948 C3947 1.414 . S
C3948 C3949 1.374 . S
C3949 H3929 0.950 . S
C3949 C3945 1.385 . S
C3949 C3948 1.374 . S
C3950 C3947 1.499 . S
C3950 C3951 1.373 . S
C3950 C3952 1.389 . S
C3951 H3930 0.950 . S
C3951 C3950 1.373 . S
C3951 C3967 1.377 . S
C3952 C3950 1.389 . S
C3952 C3953 1.524 . S
C3952 C3966 1.377 . S
C3953 C3952 1.524 . S
C3953 C3954 1.397 . S
C3953 C3958 1.363 . S
C3954 H3931 0.950 . S
C3954 C3953 1.397 . S
C3954 C3955 1.334 . S
C3955 H3932 0.950 . S
C3955 C3954 1.334 . S
C3955 C3956 1.287 . S
C3956 C3955 1.287 . S
C3956 C3957 1.524 . S
C3956 H3975 0.913 . S
C3957 H3933 0.950 . S
C3957 C3956 1.524 . S
C3957 C3958 1.415 . S
C3958 H3934 0.950 . S
C3958 C3953 1.363 . S
C3958 C3957 1.415 . S
C3959 H3935 0.951 . S
C3959 C3960 1.366 . S
C3959 C3961 1.388 . S
C3960 C3959 1.366 . S
C3960 C3964 1.385 . S
C3961 H3936 0.951 . S
C3961 C3959 1.388 . S
C3961 C3962 1.366 . S
C3962 C3961 1.366 . S
C3962 C3963 1.414 . S
C3962 C3965 1.499 . S
C3963 H3937 0.950 . S
C3963 C3962 1.414 . S
C3963 C3964 1.374 . S
C3964 H3938 0.950 . S
C3964 C3960 1.385 . S
C3964 C3963 1.374 . S
C3965 C3962 1.499 . S
C3965 C3966 1.373 . S
C3965 C3967 1.389 . S
C3966 H3939 0.950 . S
C3966 C3952 1.377 . S
C3966 C3965 1.373 . S
C3967 C3951 1.377 . S
C3967 C3965 1.389 . S
C3967 C3968 1.524 . S
C3968 C3967 1.524 . S
C3968 C3969 1.397 . S
C3968 C3973 1.363 . S
C3969 H3940 0.950 . S
C3969 C3968 1.397 . S
C3969 C3970 1.334 . S
C3970 H3941 0.950 . S
C3970 C3969 1.334 . S
C3970 C3971 1.287 . S
C3971 C3970 1.287 . S
C3971 C3972 1.524 . S
C3971 H3974 0.999 . S
C3972 H3942 0.950 . S
C3972 C3971 1.524 . S
C3972 C3973 1.415 . S
C3973 H3943 0.950 . S
C3973 C3968 1.363 . S
C3973 C3972 1.415 . S
H3974 C3971 0.999 . S
H3975 C3956 0.913 . S
H3976 C3994 0.951 . S
H3977 C3996 0.951 . S
H3978 C3998 0.950 . S
H3979 C3999 0.950 . S
H3980 C4001 0.950 . S
H3981 C4004 0.950 . S
H3982 C4005 0.950 . S
H3983 C4007 0.950 . S
H3984 C4008 0.950 . S
H3985 C4009 0.951 . S
H3986 C4011 0.951 . S
H3987 C4013 0.950 . S
H3988 C4014 0.950 . S
H3989 C4016 0.950 . S
H3990 C4019 0.950 . S
H3991 C4020 0.950 . S
H3992 C4022 0.950 . S
H3993 C4023 0.950 . S
C3994 H3976 0.951 . S
C3994 C3995 1.366 . S
C3994 C3996 1.388 . S
C3995 C3994 1.366 . S
C3995 C3999 1.385 . S
C3996 H3977 0.951 . S
C3996 C3994 1.388 . S
C3996 C3997 1.366 . S
C3997 C3996 1.366 . S
C3997 C3998 1.414 . S
C3997 C4000 1.499 . S
C3998 H3978 0.950 . S
C3998 C3997 1.414 . S
C3998 C3999 1.374 . S
C3999 H3979 0.950 . S
C3999 C3995 1.385 . S
C3999 C3998 1.374 . S
C4000 C3997 1.499 . S
C4000 C4001 1.373 . S
C4000 C4002 1.389 . S
C4001 H3980 0.950 . S
C4001 C4000 1.373 . S
C4001 C4017 1.377 . S
C4002 C4000 1.389 . S
C4002 C4003 1.524 . S
C4002 C4016 1.377 . S
C4003 C4002 1.524 . S
C4003 C4004 1.397 . S
C4003 C4008 1.363 . S
C4004 H3981 0.950 . S
C4004 C4003 1.397 . S
C4004 C4005 1.334 . S
C4005 H3982 0.950 . S
C4005 C4004 1.334 . S
C4005 C4006 1.287 . S
C4006 C4005 1.287 . S
C4006 C4007 1.524 . S
C4006 H4025 0.913 . S
C4007 H3983 0.950 . S
C4007 C4006 1.524 . S
C4007 C4008 1.415 . S
C4008 H3984 0.950 . S
C4008 C4003 1.363 . S
C4008 C4007 1.415 . S
C4009 H3985 0.951 . S
C4009 C4010 1.366 . S
C4009 C4011 1.388 . S
C4010 C4009 1.366 . S
C4010 C4014 1.385 . S
C4011 H3986 0.951 . S
C4011 C4009 1.388 . S
C4011 C4012 1.366 . S
C4012 C4011 1.366 . S
C4012 C4013 1.414 . S
C4012 C4015 1.499 . S
C4013 H3987 0.950 . S
C4013 C4012 1.414 . S
C4013 C4014 1.374 . S
C4014 H3988 0.950 . S
C4014 C4010 1.385 . S
C4014 C4013 1.374 . S
C4015 C4012 1.499 . S
C4015 C4016 1.373 . S
C4015 C4017 1.389 . S
C4016 H3989 0.950 . S
C4016 C4002 1.377 . S
C4016 C4015 1.373 . S
C4017 C4001 1.377 . S
C4017 C4015 1.389 . S
C4017 C4018 1.524 . S
C4018 C4017 1.524 . S
C4018 C4019 1.397 . S
C4018 C4023 1.363 . S
C4019 H3990 0.950 . S
C4019 C4018 1.397 . S
C4019 C4020 1.334 . S
C4020 H3991 0.950 . S
C4020 C4019 1.334 . S
C4020 C4021 1.287 . S
C4021 C4020 1.287 . S
C4021 C4022 1.524 . S
C4021 H4024 0.999 . S
C4022 H3992 0.950 . S
C4022 C4021 1.524 . S
C4022 C4023 1.415 . S
C4023 H3993 0.950 . S
C4023 C4018 1.363 . S
C4023 C4022 1.415 . S
H4024 C4021 0.999 . S
H4025 C4006 0.913 . S
H4026 C4044 0.951 . S
H4027 C4046 0.951 . S
H4028 C4048 0.950 . S
H4029 C4049 0.950 . S
H4030 C4051 0.950 . S
H4031 C4054 0.950 . S
H4032 C4055 0.950 . S
H4033 C4057 0.950 . S
H4034 C4058 0.950 . S
H4035 C4059 0.951 . S
H4036 C4061 0.951 . S
H4037 C4063 0.950 . S
H4038 C4064 0.950 . S
H4039 C4066 0.950 . S
H4040 C4069 0.950 . S
H4041 C4070 0.950 . S
H4042 C4072 0.950 . S
H4043 C4073 0.950 . S
C4044 H4026 0.951 . S
C4044 C4045 1.366 . S
C4044 C4046 1.388 . S
C4045 C4044 1.366 . S
C4045 C4049 1.385 . S
C4046 H4027 0.951 . S
C4046 C4044 1.388 . S
C4046 C4047 1.366 . S
C4047 C4046 1.366 . S
C4047 C4048 1.414 . S
C4047 C4050 1.499 . S
C4048 H4028 0.950 . S
C4048 C4047 1.414 . S
C4048 C4049 1.374 . S
C4049 H4029 0.950 . S
C4049 C4045 1.385 . S
C4049 C4048 1.374 . S
C4050 C4047 1.499 . S
C4050 C4051 1.373 . S
C4050 C4052 1.389 . S
C4051 H4030 0.950 . S
C4051 C4050 1.373 . S
C4051 C4067 1.377 . S
C4052 C4050 1.389 . S
C4052 C4053 1.524 . S
C4052 C4066 1.377 . S
C4053 C4052 1.524 . S
C4053 C4054 1.397 . S
C4053 C4058 1.363 . S
C4054 H4031 0.950 . S
C4054 C4053 1.397 . S
C4054 C4055 1.334 . S
C4055 H4032 0.950 . S
C4055 C4054 1.334 . S
C4055 C4056 1.287 . S
C4056 C4055 1.287 . S
C4056 C4057 1.524 . S
C4056 H4075 0.913 . S
C4057 H4033 0.950 . S
C4057 C4056 1.524 . S
C4057 C4058 1.415 . S
C4058 H4034 0.950 . S
C4058 C4053 1.363 . S
C4058 C4057 1.415 . S
C4059 H4035 0.951 . S
C4059 C4060 1.366 . S
C4059 C4061 1.388 . S
C4060 C4059 1.366 . S
C4060 C4064 1.385 . S
C4061 H4036 0.951 . S
C4061 C4059 1.388 . S
C4061 C4062 1.366 . S
C4062 C4061 1.366 . S
C4062 C4063 1.414 . S
C4062 C4065 1.499 . S
C4063 H4037 0.950 . S
C4063 C4062 1.414 . S
C4063 C4064 1.374 . S
C4064 H4038 0.950 . S
C4064 C4060 1.385 . S
C4064 C4063 1.374 . S
C4065 C4062 1.499 . S
C4065 C4066 1.373 . S
C4065 C4067 1.389 . S
C4066 H4039 0.950 . S
C4066 C4052 1.377 . S
C4066 C4065 1.373 . S
C4067 C4051 1.377 . S
C4067 C4065 1.389 . S
C4067 C4068 1.524 . S
C4068 C4067 1.524 . S
C4068 C4069 1.397 . S
C4068 C4073 1.363 . S
C4069 H4040 0.950 . S
C4069 C4068 1.397 . S
C4069 C4070 1.334 . S
C4070 H4041 0.950 . S
C4070 C4069 1.334 . S
C4070 C4071 1.287 . S
C4071 C4070 1.287 . S
C4071 C4072 1.524 . S
C4071 H4074 0.999 . S
C4072 H4042 0.950 . S
C4072 C4071 1.524 . S
C4072 C4073 1.415 . S
C4073 H4043 0.950 . S
C4073 C4068 1.363 . S
C4073 C4072 1.415 . S
H4074 C4071 0.999 . S
H4075 C4056 0.913 . S
H4076 C4094 0.951 . S
H4077 C4096 0.951 . S
H4078 C4098 0.950 . S
H4079 C4099 0.950 . S
H4080 C4101 0.950 . S
H4081 C4104 0.950 . S
H4082 C4105 0.950 . S
H4083 C4107 0.950 . S
H4084 C4108 0.950 . S
H4085 C4109 0.951 . S
H4086 C4111 0.951 . S
H4087 C4113 0.950 . S
H4088 C4114 0.950 . S
H4089 C4116 0.950 . S
H4090 C4119 0.950 . S
H4091 C4120 0.950 . S
H4092 C4122 0.950 . S
H4093 C4123 0.950 . S
C4094 H4076 0.951 . S
C4094 C4095 1.366 . S
C4094 C4096 1.388 . S
C4095 C4094 1.366 . S
C4095 C4099 1.385 . S
C4096 H4077 0.951 . S
C4096 C4094 1.388 . S
C4096 C4097 1.366 . S
C4097 C4096 1.366 . S
C4097 C4098 1.414 . S
C4097 C4100 1.499 . S
C4098 H4078 0.950 . S
C4098 C4097 1.414 . S
C4098 C4099 1.374 . S
C4099 H4079 0.950 . S
C4099 C4095 1.385 . S
C4099 C4098 1.374 . S
C4100 C4097 1.499 . S
C4100 C4101 1.373 . S
C4100 C4102 1.389 . S
C4101 H4080 0.950 . S
C4101 C4100 1.373 . S
C4101 C4117 1.377 . S
C4102 C4100 1.389 . S
C4102 C4103 1.524 . S
C4102 C4116 1.377 . S
C4103 C4102 1.524 . S
C4103 C4104 1.397 . S
C4103 C4108 1.363 . S
C4104 H4081 0.950 . S
C4104 C4103 1.397 . S
C4104 C4105 1.334 . S
C4105 H4082 0.950 . S
C4105 C4104 1.334 . S
C4105 C4106 1.287 . S
C4106 C4105 1.287 . S
C4106 C4107 1.524 . S
C4106 H4125 0.913 . S
C4107 H4083 0.950 . S
C4107 C4106 1.524 . S
C4107 C4108 1.415 . S
C4108 H4084 0.950 . S
C4108 C4103 1.363 . S
C4108 C4107 1.415 . S
C4109 H4085 0.951 . S
C4109 C4110 1.366 . S
C4109 C4111 1.388 . S
C4110 C4109 1.366 . S
C4110 C4114 1.385 . S
C4111 H4086 0.951 . S
C4111 C4109 1.388 . S
C4111 C4112 1.366 . S
C4112 C4111 1.366 . S
C4112 C4113 1.414 . S
C4112 C4115 1.499 . S
C4113 H4087 0.950 . S
C4113 C4112 1.414 . S
C4113 C4114 1.374 . S
C4114 H4088 0.950 . S
C4114 C4110 1.385 . S
C4114 C4113 1.374 . S
C4115 C4112 1.499 . S
C4115 C4116 1.373 . S
C4115 C4117 1.389 . S
C4116 H4089 0.950 . S
C4116 C4102 1.377 . S
C4116 C4115 1.373 . S
C4117 C4101 1.377 . S
C4117 C4115 1.389 . S
C4117 C4118 1.524 . S
C4118 C4117 1.524 . S
C4118 C4119 1.397 . S
C4118 C4123 1.363 . S
C4119 H4090 0.950 . S
C4119 C4118 1.397 . S
C4119 C4120 1.334 . S
C4120 H4091 0.950 . S
C4120 C4119 1.334 . S
C4120 C4121 1.287 . S
C4121 C4120 1.287 . S
C4121 C4122 1.524 . S
C4121 H4124 0.999 . S
C4122 H4092 0.950 . S
C4122 C4121 1.524 . S
C4122 C4123 1.415 . S
C4123 H4093 0.950 . S
C4123 C4118 1.363 . S
C4123 C4122 1.415 . S
H4124 C4121 0.999 . S
H4125 C4106 0.913 . S
H4126 C4144 0.951 . S
H4127 C4146 0.951 . S
H4128 C4148 0.950 . S
H4129 C4149 0.950 . S
H4130 C4151 0.950 . S
H4131 C4154 0.950 . S
H4132 C4155 0.950 . S
H4133 C4157 0.950 . S
H4134 C4158 0.950 . S
H4135 C4159 0.951 . S
H4136 C4161 0.951 . S
H4137 C4163 0.950 . S
H4138 C4164 0.950 . S
H4139 C4166 0.950 . S
H4140 C4169 0.950 . S
H4141 C4170 0.950 . S
H4142 C4172 0.950 . S
H4143 C4173 0.950 . S
C4144 H4126 0.951 . S
C4144 C4145 1.366 . S
C4144 C4146 1.388 . S
C4145 C4144 1.366 . S
C4145 C4149 1.385 . S
C4146 H4127 0.951 . S
C4146 C4144 1.388 . S
C4146 C4147 1.366 . S
C4147 C4146 1.366 . S
C4147 C4148 1.414 . S
C4147 C4150 1.499 . S
C4148 H4128 0.950 . S
C4148 C4147 1.414 . S
C4148 C4149 1.374 . S
C4149 H4129 0.950 . S
C4149 C4145 1.385 . S
C4149 C4148 1.374 . S
C4150 C4147 1.499 . S
C4150 C4151 1.373 . S
C4150 C4152 1.389 . S
C4151 H4130 0.950 . S
C4151 C4150 1.373 . S
C4151 C4167 1.377 . S
C4152 C4150 1.389 . S
C4152 C4153 1.524 . S
C4152 C4166 1.377 . S
C4153 C4152 1.524 . S
C4153 C4154 1.397 . S
C4153 C4158 1.363 . S
C4154 H4131 0.950 . S
C4154 C4153 1.397 . S
C4154 C4155 1.334 . S
C4155 H4132 0.950 . S
C4155 C4154 1.334 . S
C4155 C4156 1.287 . S
C4156 C4155 1.287 . S
C4156 C4157 1.524 . S
C4156 H4175 0.913 . S
C4157 H4133 0.950 . S
C4157 C4156 1.524 . S
C4157 C4158 1.415 . S
C4158 H4134 0.950 . S
C4158 C4153 1.363 . S
C4158 C4157 1.415 . S
C4159 H4135 0.951 . S
C4159 C4160 1.366 . S
C4159 C4161 1.388 . S
C4160 C4159 1.366 . S
C4160 C4164 1.385 . S
C4161 H4136 0.951 . S
C4161 C4159 1.388 . S
C4161 C4162 1.366 . S
C4162 C4161 1.366 . S
C4162 C4163 1.414 . S
C4162 C4165 1.499 . S
C4163 H4137 0.950 . S
C4163 C4162 1.414 . S
C4163 C4164 1.374 . S
C4164 H4138 0.950 . S
C4164 C4160 1.385 . S
C4164 C4163 1.374 . S
C4165 C4162 1.499 . S
C4165 C4166 1.373 . S
C4165 C4167 1.389 . S
C4166 H4139 0.950 . S
C4166 C4152 1.377 . S
C4166 C4165 1.373 . S
C4167 C4151 1.377 . S
C4167 C4165 1.389 . S
C4167 C4168 1.524 . S
C4168 C4167 1.524 . S
C4168 C4169 1.397 . S
C4168 C4173 1.363 . S
C4169 H4140 0.950 . S
C4169 C4168 1.397 . S
C4169 C4170 1.334 . S
C4170 H4141 0.950 . S
C4170 C4169 1.334 . S
C4170 C4171 1.287 . S
C4171 C4170 1.287 . S
C4171 C4172 1.524 . S
C4171 H4174 0.999 . S
C4172 H4142 0.950 . S
C4172 C4171 1.524 . S
C4172 C4173 1.415 . S
C4173 H4143 0.950 . S
C4173 C4168 1.363 . S
C4173 C4172 1.415 . S
H4174 C4171 0.999 . S
H4175 C4156 0.913 . S
H4176 C4194 0.951 . S
H4177 C4196 0.951 . S
H4178 C4198 0.950 . S
H4179 C4199 0.950 . S
H4180 C4201 0.950 . S
H4181 C4204 0.950 . S
H4182 C4205 0.950 . S
H4183 C4207 0.950 . S
H4184 C4208 0.950 . S
H4185 C4209 0.951 . S
H4186 C4211 0.951 . S
H4187 C4213 0.950 . S
H4188 C4214 0.950 . S
H4189 C4216 0.950 . S
H4190 C4219 0.950 . S
H4191 C4220 0.950 . S
H4192 C4222 0.950 . S
H4193 C4223 0.950 . S
C4194 H4176 0.951 . S
C4194 C4195 1.366 . S
C4194 C4196 1.388 . S
C4195 C4194 1.366 . S
C4195 C4199 1.385 . S
C4196 H4177 0.951 . S
C4196 C4194 1.388 . S
C4196 C4197 1.366 . S
C4197 C4196 1.366 . S
C4197 C4198 1.414 . S
C4197 C4200 1.499 . S
C4198 H4178 0.950 . S
C4198 C4197 1.414 . S
C4198 C4199 1.374 . S
C4199 H4179 0.950 . S
C4199 C4195 1.385 . S
C4199 C4198 1.374 . S
C4200 C4197 1.499 . S
C4200 C4201 1.373 . S
C4200 C4202 1.389 . S
C4201 H4180 0.950 . S
C4201 C4200 1.373 . S
C4201 C4217 1.377 . S
C4202 C4200 1.389 . S
C4202 C4203 1.524 . S
C4202 C4216 1.377 . S
C4203 C4202 1.524 . S
C4203 C4204 1.397 . S
C4203 C4208 1.363 . S
C4204 H4181 0.950 . S
C4204 C4203 1.397 . S
C4204 C4205 1.334 . S
C4205 H4182 0.950 . S
C4205 C4204 1.334 . S
C4205 C4206 1.287 . S
C4206 C4205 1.287 . S
C4206 C4207 1.524 . S
C4206 H4225 0.913 . S
C4207 H4183 0.950 . S
C4207 C4206 1.524 . S
C4207 C4208 1.415 . S
C4208 H4184 0.950 . S
C4208 C4203 1.363 . S
C4208 C4207 1.415 . S
C4209 H4185 0.951 . S
C4209 C4210 1.366 . S
C4209 C4211 1.388 . S
C4210 C4209 1.366 . S
C4210 C4214 1.385 . S
C4211 H4186 0.951 . S
C4211 C4209 1.388 . S
C4211 C4212 1.366 . S
C4212 C4211 1.366 . S
C4212 C4213 1.414 . S
C4212 C4215 1.499 . S
C4213 H4187 0.950 . S
C4213 C4212 1.414 . S
C4213 C4214 1.374 . S
C4214 H4188 0.950 . S
C4214 C4210 1.385 . S
C4214 C4213 1.374 . S
C4215 C4212 1.499 . S
C4215 C4216 1.373 . S
C4215 C4217 1.389 . S
C4216 H4189 0.950 . S
C4216 C4202 1.377 . S
C4216 C4215 1.373 . S
C4217 C4201 1.377 . S
C4217 C4215 1.389 . S
C4217 C4218 1.524 . S
C4218 C4217 1.524 . S
C4218 C4219 1.397 . S
C4218 C4223 1.363 . S
C4219 H4190 0.950 . S
C4219 C4218 1.397 . S
C4219 C4220 1.334 . S
C4220 H4191 0.950 . S
C4220 C4219 1.334 . S
C4220 C4221 1.287 . S
C4221 C4220 1.287 . S
C4221 C4222 1.524 . S
C4221 H4224 0.999 . S
C4222 H4192 0.950 . S
C4222 C4221 1.524 . S
C4222 C4223 1.415 . S
C4223 H4193 0.950 . S
C4223 C4218 1.363 . S
C4223 C4222 1.415 . S
H4224 C4221 0.999 . S
H4225 C4206 0.913 . S
H4226 C4244 0.951 . S
H4227 C4246 0.951 . S
H4228 C4248 0.950 . S
H4229 C4249 0.950 . S
H4230 C4251 0.950 . S
H4231 C4254 0.950 . S
H4232 C4255 0.950 . S
H4233 C4257 0.950 . S
H4234 C4258 0.950 . S
H4235 C4259 0.951 . S
H4236 C4261 0.951 . S
H4237 C4263 0.950 . S
H4238 C4264 0.950 . S
H4239 C4266 0.950 . S
H4240 C4269 0.950 . S
H4241 C4270 0.950 . S
H4242 C4272 0.950 . S
H4243 C4273 0.950 . S
C4244 H4226 0.951 . S
C4244 C4245 1.366 . S
C4244 C4246 1.388 . S
C4245 C4244 1.366 . S
C4245 C4249 1.385 . S
C4246 H4227 0.951 . S
C4246 C4244 1.388 . S
C4246 C4247 1.366 . S
C4247 C4246 1.366 . S
C4247 C4248 1.414 . S
C4247 C4250 1.499 . S
C4248 H4228 0.950 . S
C4248 C4247 1.414 . S
C4248 C4249 1.374 . S
C4249 H4229 0.950 . S
C4249 C4245 1.385 . S
C4249 C4248 1.374 . S
C4250 C4247 1.499 . S
C4250 C4251 1.373 . S
C4250 C4252 1.389 . S
C4251 H4230 0.950 . S
C4251 C4250 1.373 . S
C4251 C4267 1.377 . S
C4252 C4250 1.389 . S
C4252 C4253 1.524 . S
C4252 C4266 1.377 . S
C4253 C4252 1.524 . S
C4253 C4254 1.397 . S
C4253 C4258 1.363 . S
C4254 H4231 0.950 . S
C4254 C4253 1.397 . S
C4254 C4255 1.334 . S
C4255 H4232 0.950 . S
C4255 C4254 1.334 . S
C4255 C4256 1.287 . S
C4256 C4255 1.287 . S
C4256 C4257 1.524 . S
C4256 H4275 0.913 . S
C4257 H4233 0.950 . S
C4257 C4256 1.524 . S
C4257 C4258 1.415 . S
C4258 H4234 0.950 . S
C4258 C4253 1.363 . S
C4258 C4257 1.415 . S
C4259 H4235 0.951 . S
C4259 C4260 1.366 . S
C4259 C4261 1.388 . S
C4260 C4259 1.366 . S
C4260 C4264 1.385 . S
C4261 H4236 0.951 . S
C4261 C4259 1.388 . S
C4261 C4262 1.366 . S
C4262 C4261 1.366 . S
C4262 C4263 1.414 . S
C4262 C4265 1.499 . S
C4263 H4237 0.950 . S
C4263 C4262 1.414 . S
C4263 C4264 1.374 . S
C4264 H4238 0.950 . S
C4264 C4260 1.385 . S
C4264 C4263 1.374 . S
C4265 C4262 1.499 . S
C4265 C4266 1.373 . S
C4265 C4267 1.389 . S
C4266 H4239 0.950 . S
C4266 C4252 1.377 . S
C4266 C4265 1.373 . S
C4267 C4251 1.377 . S
C4267 C4265 1.389 . S
C4267 C4268 1.524 . S
C4268 C4267 1.524 . S
C4268 C4269 1.397 . S
C4268 C4273 1.363 . S
C4269 H4240 0.950 . S
C4269 C4268 1.397 . S
C4269 C4270 1.334 . S
C4270 H4241 0.950 . S
C4270 C4269 1.334 . S
C4270 C4271 1.287 . S
C4271 C4270 1.287 . S
C4271 C4272 1.524 . S
C4271 H4274 0.999 . S
C4272 H4242 0.950 . S
C4272 C4271 1.524 . S
C4272 C4273 1.415 . S
C4273 H4243 0.950 . S
C4273 C4268 1.363 . S
C4273 C4272 1.415 . S
H4274 C4271 0.999 . S
H4275 C4256 0.913 . S
H4276 C4294 0.951 . S
H4277 C4296 0.951 . S
H4278 C4298 0.950 . S
H4279 C4299 0.939 1_565 S
H4280 C4301 0.950 . S
H4281 C4304 0.950 . S
H4282 C4305 0.950 . S
H4283 C4307 0.950 . S
H4284 C4308 0.950 . S
H4285 C4309 0.951 . S
H4286 C4311 0.951 . S
H4287 C4313 0.950 . S
H4288 C4314 0.950 . S
H4289 C4316 0.950 . S
H4290 C4319 0.950 . S
H4291 C4320 0.950 . S
H4292 C4322 0.950 . S
H4293 C4323 0.950 . S
C4294 H4276 0.951 . S
C4294 C4295 1.366 . S
C4294 C4296 1.388 . S
C4295 C4294 1.366 . S
C4295 C4299 1.445 . S
C4296 H4277 0.951 . S
C4296 C4294 1.388 . S
C4296 C4297 1.366 1_545 S
C4297 C4296 1.366 1_565 S
C4297 C4298 1.414 . S
C4297 C4300 1.499 . S
C4298 H4278 0.950 . S
C4298 C4297 1.414 . S
C4298 C4299 1.327 1_565 S
C4299 H4279 0.939 1_545 S
C4299 C4295 1.445 . S
C4299 C4298 1.327 1_545 S
C4300 C4297 1.499 . S
C4300 C4301 1.373 . S
C4300 C4302 1.389 . S
C4301 H4280 0.950 . S
C4301 C4300 1.373 . S
C4301 C4317 1.377 . S
C4302 C4300 1.389 . S
C4302 C4303 1.524 . S
C4302 C4316 1.377 . S
C4303 C4302 1.524 . S
C4303 C4304 1.397 . S
C4303 C4308 1.363 . S
C4304 H4281 0.950 . S
C4304 C4303 1.397 . S
C4304 C4305 1.334 . S
C4305 H4282 0.950 . S
C4305 C4304 1.334 . S
C4305 C4306 1.287 . S
C4306 C4305 1.287 . S
C4306 C4307 1.524 . S
C4306 H4325 0.913 . S
C4307 H4283 0.950 . S
C4307 C4306 1.524 . S
C4307 C4308 1.415 . S
C4308 H4284 0.950 . S
C4308 C4303 1.363 . S
C4308 C4307 1.415 . S
C4309 H4285 0.951 . S
C4309 C4310 1.366 . S
C4309 C4311 1.388 . S
C4310 C4309 1.366 . S
C4310 C4314 1.385 . S
C4311 H4286 0.951 . S
C4311 C4309 1.388 . S
C4311 C4312 1.366 . S
C4312 C4311 1.366 . S
C4312 C4313 1.414 . S
C4312 C4315 1.499 . S
C4313 H4287 0.950 . S
C4313 C4312 1.414 . S
C4313 C4314 1.374 . S
C4314 H4288 0.950 . S
C4314 C4310 1.385 . S
C4314 C4313 1.374 . S
C4315 C4312 1.499 . S
C4315 C4316 1.373 . S
C4315 C4317 1.389 . S
C4316 H4289 0.950 . S
C4316 C4302 1.377 . S
C4316 C4315 1.373 . S
C4317 C4301 1.377 . S
C4317 C4315 1.389 . S
C4317 C4318 1.524 . S
C4318 C4317 1.524 . S
C4318 C4319 1.397 . S
C4318 C4323 1.363 . S
C4319 H4290 0.950 . S
C4319 C4318 1.397 . S
C4319 C4320 1.334 . S
C4320 H4291 0.950 . S
C4320 C4319 1.334 . S
C4320 C4321 1.287 . S
C4321 C4320 1.287 . S
C4321 C4322 1.524 . S
C4321 H4324 0.999 . S
C4322 H4292 0.950 . S
C4322 C4321 1.524 . S
C4322 C4323 1.415 . S
C4323 H4293 0.950 . S
C4323 C4318 1.363 . S
C4323 C4322 1.415 . S
H4324 C4321 0.999 . S
H4325 C4306 0.913 . S
H4326 C4344 0.951 . S
H4327 C4346 0.951 . S
H4328 C4348 0.950 . S
H4329 C4349 0.950 . S
H4330 C4351 0.950 . S
H4331 C4354 0.950 . S
H4332 C4355 0.950 . S
H4333 C4357 0.950 . S
H4334 C4358 0.950 . S
H4335 C4359 0.951 . S
H4336 C4361 0.951 1_565 S
H4337 C4363 0.950 . S
H4338 C4364 0.950 . S
H4339 C4366 0.950 . S
H4340 C4369 0.950 . S
H4341 C4370 0.950 . S
H4342 C4372 0.950 . S
H4343 C4373 0.950 . S
C4344 H4326 0.951 . S
C4344 C4345 1.366 . S
C4344 C4346 1.388 . S
C4345 C4344 1.366 . S
C4345 C4349 1.385 . S
C4346 H4327 0.951 . S
C4346 C4344 1.388 . S
C4346 C4347 1.366 . S
C4347 C4346 1.366 . S
C4347 C4348 1.414 . S
C4347 C4350 1.499 . S
C4348 H4328 0.950 . S
C4348 C4347 1.414 . S
C4348 C4349 1.374 . S
C4349 H4329 0.950 . S
C4349 C4345 1.385 . S
C4349 C4348 1.374 . S
C4350 C4347 1.499 . S
C4350 C4351 1.373 . S
C4350 C4352 1.389 . S
C4351 H4330 0.950 . S
C4351 C4350 1.373 . S
C4351 C4367 1.377 . S
C4352 C4350 1.389 . S
C4352 C4353 1.524 . S
C4352 C4366 1.377 1_565 S
C4353 C4352 1.524 . S
C4353 C4354 1.397 . S
C4353 C4358 1.363 1_565 S
C4354 H4331 0.950 . S
C4354 C4353 1.397 . S
C4354 C4355 1.334 1_554 S
C4355 H4332 0.950 . S
C4355 C4354 1.334 1_556 S
C4355 C4356 1.287 . S
C4356 C4355 1.287 . S
C4356 C4357 1.524 1_566 S
C4356 H4375 0.913 . S
C4357 H4333 0.950 . S
C4357 C4356 1.524 1_544 S
C4357 C4358 1.415 . S
C4358 H4334 0.950 . S
C4358 C4353 1.363 1_545 S
C4358 C4357 1.415 . S
C4359 H4335 0.951 . S
C4359 C4360 1.366 . S
C4359 C4361 1.388 . S
C4360 C4359 1.366 . S
C4360 C4364 1.385 . S
C4361 H4336 0.951 1_545 S
C4361 C4359 1.388 . S
C4361 C4362 1.366 . S
C4362 C4361 1.366 . S
C4362 C4363 1.414 . S
C4362 C4365 1.499 . S
C4363 H4337 0.950 . S
C4363 C4362 1.414 . S
C4363 C4364 1.374 . S
C4364 H4338 0.950 . S
C4364 C4360 1.385 . S
C4364 C4363 1.374 . S
C4365 C4362 1.499 . S
C4365 C4366 1.373 . S
C4365 C4367 1.389 1_545 S
C4366 H4339 0.950 . S
C4366 C4352 1.377 1_545 S
C4366 C4365 1.373 . S
C4367 C4351 1.377 . S
C4367 C4365 1.389 1_565 S
C4367 C4368 1.524 . S
C4368 C4367 1.524 . S
C4368 C4369 1.397 1_565 S
C4368 C4373 1.363 . S
C4369 H4340 0.950 . S
C4369 C4368 1.397 1_545 S
C4369 C4370 1.334 . S
C4370 H4341 0.950 . S
C4370 C4369 1.334 . S
C4370 C4371 1.287 1_545 S
C4371 C4370 1.287 1_565 S
C4371 C4372 1.524 . S
C4371 H4374 0.999 . S
C4372 H4342 0.950 . S
C4372 C4371 1.524 . S
C4372 C4373 1.415 . S
C4373 H4343 0.950 . S
C4373 C4368 1.363 . S
C4373 C4372 1.415 . S
H4374 C4371 0.999 . S
H4375 C4356 0.913 . S
H4376 C4394 0.951 . S
H4377 C4396 0.951 . S
H4378 C4398 0.950 . S
H4379 C4399 0.950 . S
H4380 C4401 0.950 . S
H4381 C4404 0.950 . S
H4382 C4405 0.950 . S
H4383 C4407 0.950 . S
H4384 C4408 0.950 . S
H4385 C4409 0.951 . S
H4386 C4411 0.951 . S
H4387 C4413 0.950 . S
H4388 C4414 0.950 . S
H4389 C4416 0.950 . S
H4390 C4419 0.950 . S
H4391 C4420 0.950 . S
H4392 C4422 0.950 . S
H4393 C4423 0.950 . S
C4394 H4376 0.951 . S
C4394 C4395 1.366 . S
C4394 C4396 1.388 . S
C4395 C4394 1.366 . S
C4395 C4399 1.385 . S
C4396 H4377 0.951 . S
C4396 C4394 1.388 . S
C4396 C4397 1.366 . S
C4397 C4396 1.366 . S
C4397 C4398 1.414 . S
C4397 C4400 1.499 . S
C4398 H4378 0.950 . S
C4398 C4397 1.414 . S
C4398 C4399 1.374 . S
C4399 H4379 0.950 . S
C4399 C4395 1.385 . S
C4399 C4398 1.374 . S
C4400 C4397 1.499 . S
C4400 C4401 1.373 . S
C4400 C4402 1.389 . S
C4401 H4380 0.950 . S
C4401 C4400 1.373 . S
C4401 C4417 1.377 . S
C4402 C4400 1.389 . S
C4402 C4403 1.524 . S
C4402 C4416 1.377 . S
C4403 C4402 1.524 . S
C4403 C4404 1.397 . S
C4403 C4408 1.363 . S
C4404 H4381 0.950 . S
C4404 C4403 1.397 . S
C4404 C4405 1.334 . S
C4405 H4382 0.950 . S
C4405 C4404 1.334 . S
C4405 C4406 1.287 . S
C4406 C4405 1.287 . S
C4406 C4407 1.524 . S
C4406 H4425 0.913 . S
C4407 H4383 0.950 . S
C4407 C4406 1.524 . S
C4407 C4408 1.415 . S
C4408 H4384 0.950 . S
C4408 C4403 1.363 . S
C4408 C4407 1.415 . S
C4409 H4385 0.951 . S
C4409 C4410 1.366 . S
C4409 C4411 1.388 . S
C4410 C4409 1.366 . S
C4410 C4414 1.385 . S
C4411 H4386 0.951 . S
C4411 C4409 1.388 . S
C4411 C4412 1.366 . S
C4412 C4411 1.366 . S
C4412 C4413 1.414 . S
C4412 C4415 1.499 . S
C4413 H4387 0.950 . S
C4413 C4412 1.414 . S
C4413 C4414 1.374 . S
C4414 H4388 0.950 . S
C4414 C4410 1.385 . S
C4414 C4413 1.374 . S
C4415 C4412 1.499 . S
C4415 C4416 1.373 . S
C4415 C4417 1.389 . S
C4416 H4389 0.950 . S
C4416 C4402 1.377 . S
C4416 C4415 1.373 . S
C4417 C4401 1.377 . S
C4417 C4415 1.389 . S
C4417 C4418 1.524 . S
C4418 C4417 1.524 . S
C4418 C4419 1.397 . S
C4418 C4423 1.363 . S
C4419 H4390 0.950 . S
C4419 C4418 1.397 . S
C4419 C4420 1.334 . S
C4420 H4391 0.950 . S
C4420 C4419 1.334 . S
C4420 C4421 1.287 . S
C4421 C4420 1.287 . S
C4421 C4422 1.524 . S
C4421 H4424 0.999 . S
C4422 H4392 0.950 . S
C4422 C4421 1.524 . S
C4422 C4423 1.415 . S
C4423 H4393 0.950 . S
C4423 C4418 1.363 . S
C4423 C4422 1.415 . S
H4424 C4421 0.999 . S
H4425 C4406 0.913 . S
H4426 C4444 0.951 . S
H4427 C4446 0.951 . S
H4428 C4448 0.950 . S
H4429 C4449 0.950 . S
H4430 C4451 0.950 . S
H4431 C4454 0.950 . S
H4432 C4455 0.950 . S
H4433 C4457 0.950 . S
H4434 C4458 0.950 . S
H4435 C4459 0.951 . S
H4436 C4461 0.951 . S
H4437 C4463 0.950 . S
H4438 C4464 0.950 . S
H4439 C4466 0.950 . S
H4440 C4469 0.950 . S
H4441 C4470 0.950 . S
H4442 C4472 0.914 1_556 S
H4443 C4473 0.950 . S
C4444 H4426 0.951 . S
C4444 C4445 1.366 . S
C4444 C4446 1.388 . S
C4445 C4444 1.366 . S
C4445 C4449 1.385 . S
C4446 H4427 0.951 . S
C4446 C4444 1.388 . S
C4446 C4447 1.366 . S
C4447 C4446 1.366 . S
C4447 C4448 1.414 . S
C4447 C4450 1.499 . S
C4448 H4428 0.950 . S
C4448 C4447 1.414 . S
C4448 C4449 1.374 . S
C4449 H4429 0.950 . S
C4449 C4445 1.385 . S
C4449 C4448 1.374 . S
C4450 C4447 1.499 . S
C4450 C4451 1.373 . S
C4450 C4452 1.389 . S
C4451 H4430 0.950 . S
C4451 C4450 1.373 . S
C4451 C4467 1.377 . S
C4452 C4450 1.389 . S
C4452 C4453 1.524 . S
C4452 C4466 1.377 . S
C4453 C4452 1.524 . S
C4453 C4454 1.397 . S
C4453 C4458 1.363 . S
C4454 H4431 0.950 . S
C4454 C4453 1.397 . S
C4454 C4455 1.334 . S
C4455 H4432 0.950 . S
C4455 C4454 1.334 . S
C4455 C4456 1.287 . S
C4456 C4455 1.287 . S
C4456 C4457 1.524 . S
C4456 H4475 0.913 . S
C4457 H4433 0.950 . S
C4457 C4456 1.524 . S
C4457 C4458 1.415 . S
C4458 H4434 0.950 . S
C4458 C4453 1.363 . S
C4458 C4457 1.415 . S
C4459 H4435 0.951 . S
C4459 C4460 1.366 . S
C4459 C4461 1.388 . S
C4460 C4459 1.366 . S
C4460 C4464 1.385 . S
C4461 H4436 0.951 . S
C4461 C4459 1.388 . S
C4461 C4462 1.366 . S
C4462 C4461 1.366 . S
C4462 C4463 1.414 . S
C4462 C4465 1.499 . S
C4463 H4437 0.950 . S
C4463 C4462 1.414 . S
C4463 C4464 1.374 . S
C4464 H4438 0.950 . S
C4464 C4460 1.385 . S
C4464 C4463 1.374 . S
C4465 C4462 1.499 . S
C4465 C4466 1.373 . S
C4465 C4467 1.389 . S
C4466 H4439 0.950 . S
C4466 C4452 1.377 . S
C4466 C4465 1.373 . S
C4467 C4451 1.377 . S
C4467 C4465 1.389 . S
C4467 C4468 1.524 . S
C4468 C4467 1.524 . S
C4468 C4469 1.397 . S
C4468 C4473 1.363 . S
C4469 H4440 0.950 . S
C4469 C4468 1.397 . S
C4469 C4470 1.334 . S
C4470 H4441 0.950 . S
C4470 C4469 1.334 . S
C4470 C4471 1.287 . S
C4471 C4470 1.287 . S
C4471 C4472 1.541 . S
C4471 H4474 0.999 1_554 S
C4472 H4442 0.914 1_554 S
C4472 C4471 1.541 . S
C4472 C4473 1.439 . S
C4473 H4443 0.950 . S
C4473 C4468 1.363 . S
C4473 C4472 1.439 . S
H4474 C4471 0.999 1_556 S
H4475 C4456 0.913 . S
H4476 C4494 0.951 . S
H4477 C4496 0.951 . S
H4478 C4498 0.950 . S
H4479 C4499 0.950 . S
H4480 C4501 0.950 . S
H4481 C4504 0.950 . S
H4482 C4505 0.950 . S
H4483 C4507 0.950 . S
H4484 C4508 0.950 . S
H4485 C4509 0.951 . S
H4486 C4511 0.951 . S
H4487 C4513 0.950 . S
H4488 C4514 0.950 . S
H4489 C4516 0.950 . S
H4490 C4519 0.950 . S
H4491 C4520 0.950 . S
H4492 C4522 0.950 . S
H4493 C4523 0.950 . S
C4494 H4476 0.951 . S
C4494 C4495 1.366 . S
C4494 C4496 1.388 . S
C4495 C4494 1.366 . S
C4495 C4499 1.385 . S
C4496 H4477 0.951 . S
C4496 C4494 1.388 . S
C4496 C4497 1.366 . S
C4497 C4496 1.366 . S
C4497 C4498 1.414 . S
C4497 C4500 1.499 . S
C4498 H4478 0.950 . S
C4498 C4497 1.414 . S
C4498 C4499 1.374 . S
C4499 H4479 0.950 . S
C4499 C4495 1.385 . S
C4499 C4498 1.374 . S
C4500 C4497 1.499 . S
C4500 C4501 1.373 . S
C4500 C4502 1.389 . S
C4501 H4480 0.950 . S
C4501 C4500 1.373 . S
C4501 C4517 1.377 . S
C4502 C4500 1.389 . S
C4502 C4503 1.524 . S
C4502 C4516 1.377 . S
C4503 C4502 1.524 . S
C4503 C4504 1.397 . S
C4503 C4508 1.363 . S
C4504 H4481 0.950 . S
C4504 C4503 1.397 . S
C4504 C4505 1.334 . S
C4505 H4482 0.950 . S
C4505 C4504 1.334 . S
C4505 C4506 1.287 . S
C4506 C4505 1.287 . S
C4506 C4507 1.524 . S
C4506 H4525 0.913 . S
C4507 H4483 0.950 . S
C4507 C4506 1.524 . S
C4507 C4508 1.415 . S
C4508 H4484 0.950 . S
C4508 C4503 1.363 . S
C4508 C4507 1.415 . S
C4509 H4485 0.951 . S
C4509 C4510 1.366 . S
C4509 C4511 1.388 . S
C4510 C4509 1.366 . S
C4510 C4514 1.385 . S
C4511 H4486 0.951 . S
C4511 C4509 1.388 . S
C4511 C4512 1.366 . S
C4512 C4511 1.366 . S
C4512 C4513 1.414 . S
C4512 C4515 1.499 . S
C4513 H4487 0.950 . S
C4513 C4512 1.414 . S
C4513 C4514 1.374 . S
C4514 H4488 0.950 . S
C4514 C4510 1.385 . S
C4514 C4513 1.374 . S
C4515 C4512 1.499 . S
C4515 C4516 1.373 . S
C4515 C4517 1.389 . S
C4516 H4489 0.950 . S
C4516 C4502 1.377 . S
C4516 C4515 1.373 . S
C4517 C4501 1.377 . S
C4517 C4515 1.389 . S
C4517 C4518 1.524 . S
C4518 C4517 1.524 . S
C4518 C4519 1.397 . S
C4518 C4523 1.363 . S
C4519 H4490 0.950 . S
C4519 C4518 1.397 . S
C4519 C4520 1.334 . S
C4520 H4491 0.950 . S
C4520 C4519 1.334 . S
C4520 C4521 1.287 . S
C4521 C4520 1.287 . S
C4521 C4522 1.524 . S
C4521 H4524 0.999 . S
C4522 H4492 0.950 . S
C4522 C4521 1.524 . S
C4522 C4523 1.415 . S
C4523 H4493 0.950 . S
C4523 C4518 1.363 . S
C4523 C4522 1.415 . S
H4524 C4521 0.999 . S
H4525 C4506 0.913 . S
H4526 C4544 0.951 . S
H4527 C4546 0.951 . S
H4528 C4548 0.950 . S
H4529 C4549 0.950 . S
H4530 C4551 0.950 . S
H4531 C4554 0.950 . S
H4532 C4555 0.950 . S
H4533 C4557 0.950 . S
H4534 C4558 0.950 . S
H4535 C4559 0.951 . S
H4536 C4561 0.951 . S
H4537 C4563 0.950 . S
H4538 C4564 0.950 . S
H4539 C4566 0.950 . S
H4540 C4569 0.950 . S
H4541 C4570 0.950 . S
H4542 C4572 0.950 . S
H4543 C4573 0.950 . S
C4544 H4526 0.951 . S
C4544 C4545 1.366 . S
C4544 C4546 1.388 . S
C4545 C4544 1.366 . S
C4545 C4549 1.385 . S
C4546 H4527 0.951 . S
C4546 C4544 1.388 . S
C4546 C4547 1.366 . S
C4547 C4546 1.366 . S
C4547 C4548 1.414 . S
C4547 C4550 1.499 . S
C4548 H4528 0.950 . S
C4548 C4547 1.414 . S
C4548 C4549 1.374 . S
C4549 H4529 0.950 . S
C4549 C4545 1.385 . S
C4549 C4548 1.374 . S
C4550 C4547 1.499 . S
C4550 C4551 1.373 . S
C4550 C4552 1.389 . S
C4551 H4530 0.950 . S
C4551 C4550 1.373 . S
C4551 C4567 1.415 . S
C4552 C4550 1.389 . S
C4552 C4553 1.524 . S
C4552 C4566 1.377 . S
C4553 C4552 1.524 . S
C4553 C4554 1.397 . S
C4553 C4558 1.363 . S
C4554 H4531 0.950 . S
C4554 C4553 1.397 . S
C4554 C4555 1.334 . S
C4555 H4532 0.950 . S
C4555 C4554 1.334 . S
C4555 C4556 1.287 . S
C4556 C4555 1.287 . S
C4556 C4557 1.524 . S
C4556 H4575 0.913 . S
C4557 H4533 0.950 . S
C4557 C4556 1.524 . S
C4557 C4558 1.415 . S
C4558 H4534 0.950 . S
C4558 C4553 1.363 . S
C4558 C4557 1.415 . S
C4559 H4535 0.951 . S
C4559 C4560 1.366 . S
C4559 C4561 1.388 . S
C4560 C4559 1.366 . S
C4560 C4564 1.385 . S
C4561 H4536 0.951 . S
C4561 C4559 1.388 . S
C4561 C4562 1.366 . S
C4562 C4561 1.366 . S
C4562 C4563 1.414 . S
C4562 C4565 1.499 . S
C4563 H4537 0.950 . S
C4563 C4562 1.414 . S
C4563 C4564 1.374 . S
C4564 H4538 0.950 . S
C4564 C4560 1.385 . S
C4564 C4563 1.374 . S
C4565 C4562 1.499 . S
C4565 C4566 1.373 1_565 S
C4565 C4567 1.387 1_565 S
C4566 H4539 0.950 . S
C4566 C4552 1.377 . S
C4566 C4565 1.373 1_545 S
C4567 C4551 1.415 . S
C4567 C4565 1.387 1_545 S
C4567 C4568 1.494 1_545 S
C4568 C4567 1.494 1_565 S
C4568 C4569 1.397 . S
C4568 C4573 1.363 . S
C4569 H4540 0.950 . S
C4569 C4568 1.397 . S
C4569 C4570 1.334 . S
C4570 H4541 0.950 . S
C4570 C4569 1.334 . S
C4570 C4571 1.287 . S
C4571 C4570 1.287 . S
C4571 C4572 1.524 . S
C4571 H4574 0.999 . S
C4572 H4542 0.950 . S
C4572 C4571 1.524 . S
C4572 C4573 1.415 . S
C4573 H4543 0.950 . S
C4573 C4568 1.363 . S
C4573 C4572 1.415 . S
H4574 C4571 0.999 . S
H4575 C4556 0.913 . S
H4576 C4594 0.951 . S
H4577 C4596 0.951 . S
H4578 C4598 0.950 . S
H4579 C4599 0.950 . S
H4580 C4601 0.950 . S
H4581 C4604 0.950 . S
H4582 C4605 0.950 . S
H4583 C4607 0.950 . S
H4584 C4608 0.950 . S
H4585 C4609 0.951 . S
H4586 C4611 0.951 . S
H4587 C4613 0.950 . S
H4588 C4614 0.950 . S
H4589 C4616 0.950 . S
H4590 C4619 0.950 . S
H4591 C4620 0.950 . S
H4592 C4622 0.950 . S
H4593 C4623 0.950 . S
C4594 H4576 0.951 . S
C4594 C4595 1.366 . S
C4594 C4596 1.388 . S
C4595 C4594 1.366 . S
C4595 C4599 1.385 . S
C4596 H4577 0.951 . S
C4596 C4594 1.388 . S
C4596 C4597 1.366 . S
C4597 C4596 1.366 . S
C4597 C4598 1.414 . S
C4597 C4600 1.499 . S
C4598 H4578 0.950 . S
C4598 C4597 1.414 . S
C4598 C4599 1.374 . S
C4599 H4579 0.950 . S
C4599 C4595 1.385 . S
C4599 C4598 1.374 . S
C4600 C4597 1.499 . S
C4600 C4601 1.373 . S
C4600 C4602 1.389 . S
C4601 H4580 0.950 . S
C4601 C4600 1.373 . S
C4601 C4617 1.377 . S
C4602 C4600 1.389 . S
C4602 C4603 1.524 . S
C4602 C4616 1.377 . S
C4603 C4602 1.524 . S
C4603 C4604 1.397 . S
C4603 C4608 1.363 . S
C4604 H4581 0.950 . S
C4604 C4603 1.397 . S
C4604 C4605 1.334 . S
C4605 H4582 0.950 . S
C4605 C4604 1.334 . S
C4605 C4606 1.287 . S
C4606 C4605 1.287 . S
C4606 C4607 1.524 . S
C4606 H4625 0.913 . S
C4607 H4583 0.950 . S
C4607 C4606 1.524 . S
C4607 C4608 1.415 . S
C4608 H4584 0.950 . S
C4608 C4603 1.363 . S
C4608 C4607 1.415 . S
C4609 H4585 0.951 . S
C4609 C4610 1.366 . S
C4609 C4611 1.388 . S
C4610 C4609 1.366 . S
C4610 C4614 1.385 . S
C4611 H4586 0.951 . S
C4611 C4609 1.388 . S
C4611 C4612 1.366 . S
C4612 C4611 1.366 . S
C4612 C4613 1.414 . S
C4612 C4615 1.499 . S
C4613 H4587 0.950 . S
C4613 C4612 1.414 . S
C4613 C4614 1.374 . S
C4614 H4588 0.950 . S
C4614 C4610 1.385 . S
C4614 C4613 1.374 . S
C4615 C4612 1.499 . S
C4615 C4616 1.373 . S
C4615 C4617 1.389 . S
C4616 H4589 0.950 . S
C4616 C4602 1.377 . S
C4616 C4615 1.373 . S
C4617 C4601 1.377 . S
C4617 C4615 1.389 . S
C4617 C4618 1.524 . S
C4618 C4617 1.524 . S
C4618 C4619 1.397 . S
C4618 C4623 1.363 . S
C4619 H4590 0.950 . S
C4619 C4618 1.397 . S
C4619 C4620 1.334 . S
C4620 H4591 0.950 . S
C4620 C4619 1.334 . S
C4620 C4621 1.287 . S
C4621 C4620 1.287 . S
C4621 C4622 1.524 . S
C4621 H4624 0.999 . S
C4622 H4592 0.950 . S
C4622 C4621 1.524 . S
C4622 C4623 1.415 . S
C4623 H4593 0.950 . S
C4623 C4618 1.363 . S
C4623 C4622 1.415 . S
H4624 C4621 0.999 . S
H4625 C4606 0.913 . S
H4626 C4644 0.951 . S
H4627 C4646 0.951 . S
H4628 C4648 0.950 . S
H4629 C4649 0.950 . S
H4630 C4651 0.950 . S
H4631 C4654 0.950 . S
H4632 C4655 0.950 . S
H4633 C4657 0.950 . S
H4634 C4658 0.950 . S
H4635 C4659 0.951 . S
H4636 C4661 0.951 . S
H4637 C4663 0.950 . S
H4638 C4664 0.950 . S
H4639 C4666 0.950 . S
H4640 C4669 0.950 . S
H4641 C4670 0.950 . S
H4642 C4672 0.950 . S
H4643 C4673 0.950 . S
C4644 H4626 0.951 . S
C4644 C4645 1.366 . S
C4644 C4646 1.388 . S
C4645 C4644 1.366 . S
C4645 C4649 1.385 . S
C4646 H4627 0.951 . S
C4646 C4644 1.388 . S
C4646 C4647 1.366 . S
C4647 C4646 1.366 . S
C4647 C4648 1.414 . S
C4647 C4650 1.499 . S
C4648 H4628 0.950 . S
C4648 C4647 1.414 . S
C4648 C4649 1.374 . S
C4649 H4629 0.950 . S
C4649 C4645 1.385 . S
C4649 C4648 1.374 . S
C4650 C4647 1.499 . S
C4650 C4651 1.373 . S
C4650 C4652 1.389 . S
C4651 H4630 0.950 . S
C4651 C4650 1.373 . S
C4651 C4667 1.377 . S
C4652 C4650 1.389 . S
C4652 C4653 1.524 . S
C4652 C4666 1.377 . S
C4653 C4652 1.524 . S
C4653 C4654 1.397 . S
C4653 C4658 1.363 . S
C4654 H4631 0.950 . S
C4654 C4653 1.397 . S
C4654 C4655 1.334 . S
C4655 H4632 0.950 . S
C4655 C4654 1.334 . S
C4655 C4656 1.287 . S
C4656 C4655 1.287 . S
C4656 C4657 1.524 . S
C4656 H4675 0.913 . S
C4657 H4633 0.950 . S
C4657 C4656 1.524 . S
C4657 C4658 1.415 . S
C4658 H4634 0.950 . S
C4658 C4653 1.363 . S
C4658 C4657 1.415 . S
C4659 H4635 0.951 . S
C4659 C4660 1.366 . S
C4659 C4661 1.388 . S
C4660 C4659 1.366 . S
C4660 C4664 1.385 . S
C4661 H4636 0.951 . S
C4661 C4659 1.388 . S
C4661 C4662 1.366 . S
C4662 C4661 1.366 . S
C4662 C4663 1.414 . S
C4662 C4665 1.499 . S
C4663 H4637 0.950 . S
C4663 C4662 1.414 . S
C4663 C4664 1.374 . S
C4664 H4638 0.950 . S
C4664 C4660 1.385 . S
C4664 C4663 1.374 . S
C4665 C4662 1.499 . S
C4665 C4666 1.373 . S
C4665 C4667 1.389 . S
C4666 H4639 0.950 . S
C4666 C4652 1.377 . S
C4666 C4665 1.373 . S
C4667 C4651 1.377 . S
C4667 C4665 1.389 . S
C4667 C4668 1.524 . S
C4668 C4667 1.524 . S
C4668 C4669 1.397 . S
C4668 C4673 1.363 . S
C4669 H4640 0.950 . S
C4669 C4668 1.397 . S
C4669 C4670 1.334 . S
C4670 H4641 0.950 . S
C4670 C4669 1.334 . S
C4670 C4671 1.287 . S
C4671 C4670 1.287 . S
C4671 C4672 1.524 . S
C4671 H4674 0.999 . S
C4672 H4642 0.950 . S
C4672 C4671 1.524 . S
C4672 C4673 1.415 . S
C4673 H4643 0.950 . S
C4673 C4668 1.363 . S
C4673 C4672 1.415 . S
H4674 C4671 0.999 . S
H4675 C4656 0.913 . S
H4676 C4694 0.951 . S
H4677 C4696 0.951 . S
H4678 C4698 0.950 . S
H4679 C4699 0.950 . S
H4680 C4701 0.950 . S
H4681 C4704 0.950 . S
H4682 C4705 0.950 . S
H4683 C4707 0.950 . S
H4684 C4708 0.950 . S
H4685 C4709 0.951 . S
H4686 C4711 0.951 . S
H4687 C4713 0.950 . S
H4688 C4714 0.950 . S
H4689 C4716 0.950 . S
H4690 C4719 0.950 . S
H4691 C4720 0.950 . S
H4692 C4722 0.950 . S
H4693 C4723 0.950 . S
C4694 H4676 0.951 . S
C4694 C4695 1.366 . S
C4694 C4696 1.388 . S
C4695 C4694 1.366 . S
C4695 C4699 1.385 . S
C4696 H4677 0.951 . S
C4696 C4694 1.388 . S
C4696 C4697 1.366 . S
C4697 C4696 1.366 . S
C4697 C4698 1.414 . S
C4697 C4700 1.499 . S
C4698 H4678 0.950 . S
C4698 C4697 1.414 . S
C4698 C4699 1.374 . S
C4699 H4679 0.950 . S
C4699 C4695 1.385 . S
C4699 C4698 1.374 . S
C4700 C4697 1.499 . S
C4700 C4701 1.373 . S
C4700 C4702 1.389 . S
C4701 H4680 0.950 . S
C4701 C4700 1.373 . S
C4701 C4717 1.377 . S
C4702 C4700 1.389 . S
C4702 C4703 1.524 . S
C4702 C4716 1.377 . S
C4703 C4702 1.524 . S
C4703 C4704 1.397 . S
C4703 C4708 1.363 . S
C4704 H4681 0.950 . S
C4704 C4703 1.397 . S
C4704 C4705 1.334 . S
C4705 H4682 0.950 . S
C4705 C4704 1.334 . S
C4705 C4706 1.287 . S
C4706 C4705 1.287 . S
C4706 C4707 1.524 . S
C4706 H4725 0.913 . S
C4707 H4683 0.950 . S
C4707 C4706 1.524 . S
C4707 C4708 1.415 . S
C4708 H4684 0.950 . S
C4708 C4703 1.363 . S
C4708 C4707 1.415 . S
C4709 H4685 0.951 . S
C4709 C4710 1.366 . S
C4709 C4711 1.388 . S
C4710 C4709 1.366 . S
C4710 C4714 1.385 . S
C4711 H4686 0.951 . S
C4711 C4709 1.388 . S
C4711 C4712 1.366 . S
C4712 C4711 1.366 . S
C4712 C4713 1.414 . S
C4712 C4715 1.499 . S
C4713 H4687 0.950 . S
C4713 C4712 1.414 . S
C4713 C4714 1.374 . S
C4714 H4688 0.950 . S
C4714 C4710 1.385 . S
C4714 C4713 1.374 . S
C4715 C4712 1.499 . S
C4715 C4716 1.373 . S
C4715 C4717 1.389 . S
C4716 H4689 0.950 . S
C4716 C4702 1.377 . S
C4716 C4715 1.373 . S
C4717 C4701 1.377 . S
C4717 C4715 1.389 . S
C4717 C4718 1.524 . S
C4718 C4717 1.524 . S
C4718 C4719 1.397 . S
C4718 C4723 1.363 . S
C4719 H4690 0.950 . S
C4719 C4718 1.397 . S
C4719 C4720 1.334 . S
C4720 H4691 0.950 . S
C4720 C4719 1.334 . S
C4720 C4721 1.287 . S
C4721 C4720 1.287 . S
C4721 C4722 1.524 . S
C4721 H4724 0.999 . S
C4722 H4692 0.950 . S
C4722 C4721 1.524 . S
C4722 C4723 1.415 . S
C4723 H4693 0.950 . S
C4723 C4718 1.363 . S
C4723 C4722 1.415 . S
H4724 C4721 0.999 . S
H4725 C4706 0.913 . S
H4726 C4744 0.951 . S
H4727 C4746 0.951 . S
H4728 C4748 0.950 . S
H4729 C4749 0.950 . S
H4730 C4751 0.950 . S
H4731 C4754 0.950 . S
H4732 C4755 0.950 . S
H4733 C4757 0.950 . S
H4734 C4758 0.950 . S
H4735 C4759 0.951 . S
H4736 C4761 0.951 . S
H4737 C4763 0.950 . S
H4738 C4764 0.950 . S
H4739 C4766 0.950 . S
H4740 C4769 0.950 . S
H4741 C4770 0.950 . S
H4742 C4772 0.950 . S
H4743 C4773 0.950 . S
C4744 H4726 0.951 . S
C4744 C4745 1.366 . S
C4744 C4746 1.388 . S
C4745 C4744 1.366 . S
C4745 C4749 1.385 . S
C4746 H4727 0.951 . S
C4746 C4744 1.388 . S
C4746 C4747 1.366 . S
C4747 C4746 1.366 . S
C4747 C4748 1.414 . S
C4747 C4750 1.499 . S
C4748 H4728 0.950 . S
C4748 C4747 1.414 . S
C4748 C4749 1.374 . S
C4749 H4729 0.950 . S
C4749 C4745 1.385 . S
C4749 C4748 1.374 . S
C4750 C4747 1.499 . S
C4750 C4751 1.373 . S
C4750 C4752 1.389 . S
C4751 H4730 0.950 . S
C4751 C4750 1.373 . S
C4751 C4767 1.377 . S
C4752 C4750 1.389 . S
C4752 C4753 1.524 . S
C4752 C4766 1.377 . S
C4753 C4752 1.524 . S
C4753 C4754 1.397 . S
C4753 C4758 1.363 . S
C4754 H4731 0.950 . S
C4754 C4753 1.397 . S
C4754 C4755 1.334 . S
C4755 H4732 0.950 . S
C4755 C4754 1.334 . S
C4755 C4756 1.287 . S
C4756 C4755 1.287 . S
C4756 C4757 1.524 . S
C4756 H4775 0.913 . S
C4757 H4733 0.950 . S
C4757 C4756 1.524 . S
C4757 C4758 1.415 . S
C4758 H4734 0.950 . S
C4758 C4753 1.363 . S
C4758 C4757 1.415 . S
C4759 H4735 0.951 . S
C4759 C4760 1.366 . S
C4759 C4761 1.388 . S
C4760 C4759 1.366 . S
C4760 C4764 1.385 . S
C4761 H4736 0.951 . S
C4761 C4759 1.388 . S
C4761 C4762 1.366 . S
C4762 C4761 1.366 . S
C4762 C4763 1.414 . S
C4762 C4765 1.499 . S
C4763 H4737 0.950 . S
C4763 C4762 1.414 . S
C4763 C4764 1.374 . S
C4764 H4738 0.950 . S
C4764 C4760 1.385 . S
C4764 C4763 1.374 . S
C4765 C4762 1.499 . S
C4765 C4766 1.373 . S
C4765 C4767 1.389 . S
C4766 H4739 0.950 . S
C4766 C4752 1.377 . S
C4766 C4765 1.373 . S
C4767 C4751 1.377 . S
C4767 C4765 1.389 . S
C4767 C4768 1.524 . S
C4768 C4767 1.524 . S
C4768 C4769 1.397 . S
C4768 C4773 1.363 . S
C4769 H4740 0.950 . S
C4769 C4768 1.397 . S
C4769 C4770 1.334 . S
C4770 H4741 0.950 . S
C4770 C4769 1.334 . S
C4770 C4771 1.287 . S
C4771 C4770 1.287 . S
C4771 C4772 1.524 . S
C4771 H4774 0.999 . S
C4772 H4742 0.950 . S
C4772 C4771 1.524 . S
C4772 C4773 1.415 . S
C4773 H4743 0.950 . S
C4773 C4768 1.363 . S
C4773 C4772 1.415 . S
H4774 C4771 0.999 . S
H4775 C4756 0.913 . S
H4776 C4794 0.951 . S
H4777 C4796 0.951 . S
H4778 C4798 0.950 . S
H4779 C4799 0.950 . S
H4780 C4801 0.950 . S
H4781 C4804 0.950 . S
H4782 C4805 0.950 . S
H4783 C4807 0.950 . S
H4784 C4808 0.950 . S
H4785 C4809 0.951 . S
H4786 C4811 0.951 . S
H4787 C4813 0.950 . S
H4788 C4814 0.950 . S
H4789 C4816 0.950 . S
H4790 C4819 0.950 . S
H4791 C4820 0.950 . S
H4792 C4822 0.950 . S
H4793 C4823 0.950 . S
C4794 H4776 0.951 . S
C4794 C4795 1.366 . S
C4794 C4796 1.388 . S
C4795 C4794 1.366 . S
C4795 C4799 1.385 . S
C4796 H4777 0.951 . S
C4796 C4794 1.388 . S
C4796 C4797 1.366 . S
C4797 C4796 1.366 . S
C4797 C4798 1.414 . S
C4797 C4800 1.499 . S
C4798 H4778 0.950 . S
C4798 C4797 1.414 . S
C4798 C4799 1.374 . S
C4799 H4779 0.950 . S
C4799 C4795 1.385 . S
C4799 C4798 1.374 . S
C4800 C4797 1.499 . S
C4800 C4801 1.373 . S
C4800 C4802 1.389 . S
C4801 H4780 0.950 . S
C4801 C4800 1.373 . S
C4801 C4817 1.377 . S
C4802 C4800 1.389 . S
C4802 C4803 1.524 . S
C4802 C4816 1.377 . S
C4803 C4802 1.524 . S
C4803 C4804 1.397 . S
C4803 C4808 1.363 . S
C4804 H4781 0.950 . S
C4804 C4803 1.397 . S
C4804 C4805 1.334 . S
C4805 H4782 0.950 . S
C4805 C4804 1.334 . S
C4805 C4806 1.287 . S
C4806 C4805 1.287 . S
C4806 C4807 1.524 . S
C4806 H4825 0.913 . S
C4807 H4783 0.950 . S
C4807 C4806 1.524 . S
C4807 C4808 1.415 . S
C4808 H4784 0.950 . S
C4808 C4803 1.363 . S
C4808 C4807 1.415 . S
C4809 H4785 0.951 . S
C4809 C4810 1.366 . S
C4809 C4811 1.388 . S
C4810 C4809 1.366 . S
C4810 C4814 1.385 1_554 S
C4811 H4786 0.951 . S
C4811 C4809 1.388 . S
C4811 C4812 1.366 1_554 S
C4812 C4811 1.366 1_556 S
C4812 C4813 1.414 . S
C4812 C4815 1.499 . S
C4813 H4787 0.950 . S
C4813 C4812 1.414 . S
C4813 C4814 1.374 . S
C4814 H4788 0.950 . S
C4814 C4810 1.385 1_556 S
C4814 C4813 1.374 . S
C4815 C4812 1.499 . S
C4815 C4816 1.373 . S
C4815 C4817 1.389 . S
C4816 H4789 0.950 . S
C4816 C4802 1.377 . S
C4816 C4815 1.373 . S
C4817 C4801 1.377 . S
C4817 C4815 1.389 . S
C4817 C4818 1.524 1_556 S
C4818 C4817 1.524 1_554 S
C4818 C4819 1.397 . S
C4818 C4823 1.363 . S
C4819 H4790 0.950 . S
C4819 C4818 1.397 . S
C4819 C4820 1.334 . S
C4820 H4791 0.950 . S
C4820 C4819 1.334 . S
C4820 C4821 1.287 . S
C4821 C4820 1.287 . S
C4821 C4822 1.524 . S
C4821 H4824 0.999 . S
C4822 H4792 0.950 . S
C4822 C4821 1.524 . S
C4822 C4823 1.415 . S
C4823 H4793 0.950 . S
C4823 C4818 1.363 . S
C4823 C4822 1.415 . S
H4824 C4821 0.999 . S
H4825 C4806 0.913 . S
H4826 C4844 0.951 . S
H4827 C4846 0.951 . S
H4828 C4848 0.950 . S
H4829 C4849 0.950 . S
H4830 C4851 0.950 . S
H4831 C4854 0.950 . S
H4832 C4855 0.950 . S
H4833 C4857 0.950 . S
H4834 C4858 0.950 . S
H4835 C4859 0.951 . S
H4836 C4861 0.951 . S
H4837 C4863 0.950 . S
H4838 C4864 0.950 . S
H4839 C4866 0.950 . S
H4840 C4869 0.950 . S
H4841 C4870 0.950 . S
H4842 C4872 0.950 . S
H4843 C4873 0.950 . S
C4844 H4826 0.951 . S
C4844 C4845 1.366 . S
C4844 C4846 1.388 . S
C4845 C4844 1.366 . S
C4845 C4849 1.385 . S
C4846 H4827 0.951 . S
C4846 C4844 1.388 . S
C4846 C4847 1.366 . S
C4847 C4846 1.366 . S
C4847 C4848 1.414 . S
C4847 C4850 1.499 . S
C4848 H4828 0.950 . S
C4848 C4847 1.414 . S
C4848 C4849 1.374 . S
C4849 H4829 0.950 . S
C4849 C4845 1.385 . S
C4849 C4848 1.374 . S
C4850 C4847 1.499 . S
C4850 C4851 1.373 . S
C4850 C4852 1.389 . S
C4851 H4830 0.950 . S
C4851 C4850 1.373 . S
C4851 C4867 1.377 . S
C4852 C4850 1.389 . S
C4852 C4853 1.524 . S
C4852 C4866 1.377 . S
C4853 C4852 1.524 . S
C4853 C4854 1.397 . S
C4853 C4858 1.363 . S
C4854 H4831 0.950 . S
C4854 C4853 1.397 . S
C4854 C4855 1.334 . S
C4855 H4832 0.950 . S
C4855 C4854 1.334 . S
C4855 C4856 1.287 . S
C4856 C4855 1.287 . S
C4856 C4857 1.524 . S
C4856 H4875 0.913 . S
C4857 H4833 0.950 . S
C4857 C4856 1.524 . S
C4857 C4858 1.415 . S
C4858 H4834 0.950 . S
C4858 C4853 1.363 . S
C4858 C4857 1.415 . S
C4859 H4835 0.951 . S
C4859 C4860 1.366 . S
C4859 C4861 1.388 . S
C4860 C4859 1.366 . S
C4860 C4864 1.385 . S
C4861 H4836 0.951 . S
C4861 C4859 1.388 . S
C4861 C4862 1.366 . S
C4862 C4861 1.366 . S
C4862 C4863 1.414 . S
C4862 C4865 1.499 . S
C4863 H4837 0.950 . S
C4863 C4862 1.414 . S
C4863 C4864 1.374 . S
C4864 H4838 0.950 . S
C4864 C4860 1.385 . S
C4864 C4863 1.374 . S
C4865 C4862 1.499 . S
C4865 C4866 1.373 . S
C4865 C4867 1.389 . S
C4866 H4839 0.950 . S
C4866 C4852 1.377 . S
C4866 C4865 1.373 . S
C4867 C4851 1.377 . S
C4867 C4865 1.389 . S
C4867 C4868 1.524 . S
C4868 C4867 1.524 . S
C4868 C4869 1.397 . S
C4868 C4873 1.363 . S
C4869 H4840 0.950 . S
C4869 C4868 1.397 . S
C4869 C4870 1.334 . S
C4870 H4841 0.950 . S
C4870 C4869 1.334 . S
C4870 C4871 1.287 . S
C4871 C4870 1.287 . S
C4871 C4872 1.524 . S
C4871 H4874 0.999 . S
C4872 H4842 0.950 . S
C4872 C4871 1.524 . S
C4872 C4873 1.415 . S
C4873 H4843 0.950 . S
C4873 C4868 1.363 . S
C4873 C4872 1.415 . S
H4874 C4871 0.999 . S
H4875 C4856 0.913 . S
H4876 C4894 0.951 . S
H4877 C4896 0.951 . S
H4878 C4898 0.925 1_655 S
H4879 C4899 0.950 . S
H4880 C4901 0.950 . S
H4881 C4904 0.950 . S
H4882 C4905 0.950 . S
H4883 C4907 0.950 . S
H4884 C4908 0.950 . S
H4885 C4909 0.951 . S
H4886 C4911 0.951 . S
H4887 C4913 0.950 . S
H4888 C4914 0.950 . S
H4889 C4916 0.950 . S
H4890 C4919 0.950 . S
H4891 C4920 0.950 . S
H4892 C4922 0.950 . S
H4893 C4923 0.950 . S
C4894 H4876 0.951 . S
C4894 C4895 1.366 . S
C4894 C4896 1.388 . S
C4895 C4894 1.366 . S
C4895 C4899 1.385 1_455 S
C4896 H4877 0.951 . S
C4896 C4894 1.388 . S
C4896 C4897 1.366 . S
C4897 C4896 1.366 . S
C4897 C4898 1.434 . S
C4897 C4900 1.499 . S
C4898 H4878 0.925 1_455 S
C4898 C4897 1.434 . S
C4898 C4899 1.379 1_455 S
C4899 H4879 0.950 . S
C4899 C4895 1.385 1_655 S
C4899 C4898 1.379 1_655 S
C4900 C4897 1.499 . S
C4900 C4901 1.373 . S
C4900 C4902 1.389 . S
C4901 H4880 0.950 . S
C4901 C4900 1.373 . S
C4901 C4917 1.377 . S
C4902 C4900 1.389 . S
C4902 C4903 1.524 . S
C4902 C4916 1.377 . S
C4903 C4902 1.524 . S
C4903 C4904 1.397 . S
C4903 C4908 1.363 . S
C4904 H4881 0.950 . S
C4904 C4903 1.397 . S
C4904 C4905 1.334 . S
C4905 H4882 0.950 . S
C4905 C4904 1.334 . S
C4905 C4906 1.287 . S
C4906 C4905 1.287 . S
C4906 C4907 1.524 . S
C4906 H4925 0.913 . S
C4907 H4883 0.950 . S
C4907 C4906 1.524 . S
C4907 C4908 1.415 . S
C4908 H4884 0.950 . S
C4908 C4903 1.363 . S
C4908 C4907 1.415 . S
C4909 H4885 0.951 . S
C4909 C4910 1.366 . S
C4909 C4911 1.388 . S
C4910 C4909 1.366 . S
C4910 C4914 1.385 . S
C4911 H4886 0.951 . S
C4911 C4909 1.388 . S
C4911 C4912 1.366 . S
C4912 C4911 1.366 . S
C4912 C4913 1.414 . S
C4912 C4915 1.499 . S
C4913 H4887 0.950 . S
C4913 C4912 1.414 . S
C4913 C4914 1.374 . S
C4914 H4888 0.950 . S
C4914 C4910 1.385 . S
C4914 C4913 1.374 . S
C4915 C4912 1.499 . S
C4915 C4916 1.373 . S
C4915 C4917 1.389 . S
C4916 H4889 0.950 . S
C4916 C4902 1.377 . S
C4916 C4915 1.373 . S
C4917 C4901 1.377 . S
C4917 C4915 1.389 . S
C4917 C4918 1.524 . S
C4918 C4917 1.524 . S
C4918 C4919 1.397 . S
C4918 C4923 1.363 1_455 S
C4919 H4890 0.950 . S
C4919 C4918 1.397 . S
C4919 C4920 1.334 . S
C4920 H4891 0.950 . S
C4920 C4919 1.334 . S
C4920 C4921 1.282 1_455 S
C4921 C4920 1.282 1_655 S
C4921 C4922 1.527 . S
C4921 H4924 1.002 . S
C4922 H4892 0.950 . S
C4922 C4921 1.527 . S
C4922 C4923 1.415 . S
C4923 H4893 0.950 . S
C4923 C4918 1.363 1_655 S
C4923 C4922 1.415 . S
H4924 C4921 1.002 . S
H4925 C4906 0.913 . S
H4926 C4944 0.951 . S
H4927 C4946 0.951 . S
H4928 C4948 0.950 . S
H4929 C4949 0.950 . S
H4930 C4951 0.950 . S
H4931 C4954 0.950 . S
H4932 C4955 0.950 . S
H4933 C4957 0.950 . S
H4934 C4958 0.950 . S
H4935 C4959 0.951 . S
H4936 C4961 0.951 . S
H4937 C4963 0.950 . S
H4938 C4964 0.950 . S
H4939 C4966 0.950 . S
H4940 C4969 0.950 . S
H4941 C4970 0.950 . S
H4942 C4972 0.950 . S
H4943 C4973 0.950 . S
C4944 H4926 0.951 . S
C4944 C4945 1.366 . S
C4944 C4946 1.388 . S
C4945 C4944 1.366 . S
C4945 C4949 1.385 . S
C4946 H4927 0.951 . S
C4946 C4944 1.388 . S
C4946 C4947 1.366 . S
C4947 C4946 1.366 . S
C4947 C4948 1.414 . S
C4947 C4950 1.499 . S
C4948 H4928 0.950 . S
C4948 C4947 1.414 . S
C4948 C4949 1.374 . S
C4949 H4929 0.950 . S
C4949 C4945 1.385 . S
C4949 C4948 1.374 . S
C4950 C4947 1.499 . S
C4950 C4951 1.373 . S
C4950 C4952 1.389 . S
C4951 H4930 0.950 . S
C4951 C4950 1.373 . S
C4951 C4967 1.377 . S
C4952 C4950 1.389 . S
C4952 C4953 1.524 . S
C4952 C4966 1.377 . S
C4953 C4952 1.524 . S
C4953 C4954 1.397 . S
C4953 C4958 1.363 . S
C4954 H4931 0.950 . S
C4954 C4953 1.397 . S
C4954 C4955 1.334 . S
C4955 H4932 0.950 . S
C4955 C4954 1.334 . S
C4955 C4956 1.287 . S
C4956 C4955 1.287 . S
C4956 C4957 1.524 . S
C4956 H4975 0.913 . S
C4957 H4933 0.950 . S
C4957 C4956 1.524 . S
C4957 C4958 1.415 . S
C4958 H4934 0.950 . S
C4958 C4953 1.363 . S
C4958 C4957 1.415 . S
C4959 H4935 0.951 . S
C4959 C4960 1.366 . S
C4959 C4961 1.388 . S
C4960 C4959 1.366 . S
C4960 C4964 1.385 . S
C4961 H4936 0.951 . S
C4961 C4959 1.388 . S
C4961 C4962 1.366 . S
C4962 C4961 1.366 . S
C4962 C4963 1.414 . S
C4962 C4965 1.499 . S
C4963 H4937 0.950 . S
C4963 C4962 1.414 . S
C4963 C4964 1.374 . S
C4964 H4938 0.950 . S
C4964 C4960 1.385 . S
C4964 C4963 1.374 . S
C4965 C4962 1.499 . S
C4965 C4966 1.373 . S
C4965 C4967 1.389 . S
C4966 H4939 0.950 . S
C4966 C4952 1.377 . S
C4966 C4965 1.373 . S
C4967 C4951 1.377 . S
C4967 C4965 1.389 . S
C4967 C4968 1.524 . S
C4968 C4967 1.524 . S
C4968 C4969 1.397 . S
C4968 C4973 1.363 . S
C4969 H4940 0.950 . S
C4969 C4968 1.397 . S
C4969 C4970 1.334 . S
C4970 H4941 0.950 . S
C4970 C4969 1.334 . S
C4970 C4971 1.287 . S
C4971 C4970 1.287 . S
C4971 C4972 1.524 . S
C4971 H4974 0.999 . S
C4972 H4942 0.950 . S
C4972 C4971 1.524 . S
C4972 C4973 1.415 . S
C4973 H4943 0.950 . S
C4973 C4968 1.363 . S
C4973 C4972 1.415 . S
H4974 C4971 0.999 . S
H4975 C4956 0.913 . S
H4976 C4994 0.951 . S
H4977 C4996 0.951 . S
H4978 C4998 0.950 . S
H4979 C4999 0.950 . S
H4980 C5001 0.950 . S
H4981 C5004 0.950 . S
H4982 C5005 0.950 . S
H4983 C5007 0.950 . S
H4984 C5008 0.950 . S
H4985 C5009 0.951 . S
H4986 C5011 0.951 . S
H4987 C5013 0.950 . S
H4988 C5014 0.950 . S
H4989 C5016 0.950 . S
H4990 C5019 0.950 . S
H4991 C5020 0.950 . S
H4992 C5022 0.950 . S
H4993 C5023 0.950 . S
C4994 H4976 0.951 . S
C4994 C4995 1.366 . S
C4994 C4996 1.388 . S
C4995 C4994 1.366 . S
C4995 C4999 1.385 . S
C4996 H4977 0.951 . S
C4996 C4994 1.388 . S
C4996 C4997 1.366 . S
C4997 C4996 1.366 . S
C4997 C4998 1.414 . S
C4997 C5000 1.499 . S
C4998 H4978 0.950 . S
C4998 C4997 1.414 . S
C4998 C4999 1.374 . S
C4999 H4979 0.950 . S
C4999 C4995 1.385 . S
C4999 C4998 1.374 . S
C5000 C4997 1.499 . S
C5000 C5001 1.373 . S
C5000 C5002 1.389 . S
C5001 H4980 0.950 . S
C5001 C5000 1.373 . S
C5001 C5017 1.377 . S
C5002 C5000 1.389 . S
C5002 C5003 1.524 . S
C5002 C5016 1.377 . S
C5003 C5002 1.524 . S
C5003 C5004 1.397 . S
C5003 C5008 1.363 . S
C5004 H4981 0.950 . S
C5004 C5003 1.397 . S
C5004 C5005 1.334 . S
C5005 H4982 0.950 . S
C5005 C5004 1.334 . S
C5005 C5006 1.287 . S
C5006 C5005 1.287 . S
C5006 C5007 1.524 . S
C5006 H5025 0.913 . S
C5007 H4983 0.950 . S
C5007 C5006 1.524 . S
C5007 C5008 1.415 . S
C5008 H4984 0.950 . S
C5008 C5003 1.363 . S
C5008 C5007 1.415 . S
C5009 H4985 0.951 . S
C5009 C5010 1.366 . S
C5009 C5011 1.388 . S
C5010 C5009 1.366 . S
C5010 C5014 1.385 . S
C5011 H4986 0.951 . S
C5011 C5009 1.388 . S
C5011 C5012 1.366 . S
C5012 C5011 1.366 . S
C5012 C5013 1.414 . S
C5012 C5015 1.499 . S
C5013 H4987 0.950 . S
C5013 C5012 1.414 . S
C5013 C5014 1.374 . S
C5014 H4988 0.950 . S
C5014 C5010 1.385 . S
C5014 C5013 1.374 . S
C5015 C5012 1.499 . S
C5015 C5016 1.373 . S
C5015 C5017 1.389 . S
C5016 H4989 0.950 . S
C5016 C5002 1.377 . S
C5016 C5015 1.373 . S
C5017 C5001 1.377 . S
C5017 C5015 1.389 . S
C5017 C5018 1.524 . S
C5018 C5017 1.524 . S
C5018 C5019 1.397 . S
C5018 C5023 1.363 . S
C5019 H4990 0.950 . S
C5019 C5018 1.397 . S
C5019 C5020 1.334 . S
C5020 H4991 0.950 . S
C5020 C5019 1.334 . S
C5020 C5021 1.287 . S
C5021 C5020 1.287 . S
C5021 C5022 1.524 . S
C5021 H5024 0.999 . S
C5022 H4992 0.950 . S
C5022 C5021 1.524 . S
C5022 C5023 1.415 . S
C5023 H4993 0.950 . S
C5023 C5018 1.363 . S
C5023 C5022 1.415 . S
H5024 C5021 0.999 . S
H5025 C5006 0.913 . S
H5026 C5044 0.951 . S
H5027 C5046 0.951 . S
H5028 C5048 0.950 . S
H5029 C5049 0.950 . S
H5030 C5051 0.950 . S
H5031 C5054 0.950 . S
H5032 C5055 0.950 . S
H5033 C5057 0.950 . S
H5034 C5058 0.950 . S
H5035 C5059 0.951 . S
H5036 C5061 0.951 . S
H5037 C5063 0.950 . S
H5038 C5064 0.950 . S
H5039 C5066 0.950 . S
H5040 C5069 0.950 . S
H5041 C5070 0.950 . S
H5042 C5072 0.950 . S
H5043 C5073 0.950 . S
C5044 H5026 0.951 . S
C5044 C5045 1.366 . S
C5044 C5046 1.388 . S
C5045 C5044 1.366 . S
C5045 C5049 1.385 . S
C5046 H5027 0.951 . S
C5046 C5044 1.388 . S
C5046 C5047 1.366 . S
C5047 C5046 1.366 . S
C5047 C5048 1.414 . S
C5047 C5050 1.499 . S
C5048 H5028 0.950 . S
C5048 C5047 1.414 . S
C5048 C5049 1.374 . S
C5049 H5029 0.950 . S
C5049 C5045 1.385 . S
C5049 C5048 1.374 . S
C5050 C5047 1.499 . S
C5050 C5051 1.373 . S
C5050 C5052 1.389 . S
C5051 H5030 0.950 . S
C5051 C5050 1.373 . S
C5051 C5067 1.377 . S
C5052 C5050 1.389 . S
C5052 C5053 1.524 . S
C5052 C5066 1.377 . S
C5053 C5052 1.524 . S
C5053 C5054 1.397 . S
C5053 C5058 1.363 . S
C5054 H5031 0.950 . S
C5054 C5053 1.397 . S
C5054 C5055 1.334 . S
C5055 H5032 0.950 . S
C5055 C5054 1.334 . S
C5055 C5056 1.287 . S
C5056 C5055 1.287 . S
C5056 C5057 1.524 . S
C5056 H5075 0.913 . S
C5057 H5033 0.950 . S
C5057 C5056 1.524 . S
C5057 C5058 1.415 . S
C5058 H5034 0.950 . S
C5058 C5053 1.363 . S
C5058 C5057 1.415 . S
C5059 H5035 0.951 . S
C5059 C5060 1.366 . S
C5059 C5061 1.388 . S
C5060 C5059 1.366 . S
C5060 C5064 1.385 . S
C5061 H5036 0.951 . S
C5061 C5059 1.388 . S
C5061 C5062 1.366 . S
C5062 C5061 1.366 . S
C5062 C5063 1.414 . S
C5062 C5065 1.499 . S
C5063 H5037 0.950 . S
C5063 C5062 1.414 . S
C5063 C5064 1.374 . S
C5064 H5038 0.950 . S
C5064 C5060 1.385 . S
C5064 C5063 1.374 . S
C5065 C5062 1.499 . S
C5065 C5066 1.373 . S
C5065 C5067 1.389 . S
C5066 H5039 0.950 . S
C5066 C5052 1.377 . S
C5066 C5065 1.373 . S
C5067 C5051 1.377 . S
C5067 C5065 1.389 . S
C5067 C5068 1.524 . S
C5068 C5067 1.524 . S
C5068 C5069 1.397 . S
C5068 C5073 1.363 . S
C5069 H5040 0.950 . S
C5069 C5068 1.397 . S
C5069 C5070 1.334 . S
C5070 H5041 0.950 . S
C5070 C5069 1.334 . S
C5070 C5071 1.287 . S
C5071 C5070 1.287 . S
C5071 C5072 1.524 . S
C5071 H5074 0.999 . S
C5072 H5042 0.950 . S
C5072 C5071 1.524 . S
C5072 C5073 1.415 . S
C5073 H5043 0.950 . S
C5073 C5068 1.363 . S
C5073 C5072 1.415 . S
H5074 C5071 0.999 . S
H5075 C5056 0.913 . S
H5076 C5094 0.951 . S
H5077 C5096 0.951 1_455 S
H5078 C5098 0.950 . S
H5079 C5099 0.950 . S
H5080 C5101 0.950 . S
H5081 C5104 0.950 . S
H5082 C5105 0.950 . S
H5083 C5107 0.950 . S
H5084 C5108 0.950 . S
H5085 C5109 0.951 1_554 S
H5086 C5111 0.951 1_655 S
H5087 C5113 0.950 . S
H5088 C5114 0.950 . S
H5089 C5116 0.950 . S
H5090 C5119 0.951 . S
H5091 C5120 0.982 1_455 S
H5092 C5122 0.950 . S
H5093 C5123 0.950 . S
C5094 H5076 0.951 . S
C5094 C5095 1.366 . S
C5094 C5096 1.388 . S
C5095 C5094 1.366 . S
C5095 C5099 1.385 . S
C5096 H5077 0.951 1_655 S
C5096 C5094 1.388 . S
C5096 C5097 1.366 . S
C5097 C5096 1.366 . S
C5097 C5098 1.414 . S
C5097 C5100 1.499 . S
C5098 H5078 0.950 . S
C5098 C5097 1.414 . S
C5098 C5099 1.374 . S
C5099 H5079 0.950 . S
C5099 C5095 1.385 . S
C5099 C5098 1.374 . S
C5100 C5097 1.499 . S
C5100 C5101 1.373 . S
C5100 C5102 1.389 1_655 S
C5101 H5080 0.950 . S
C5101 C5100 1.373 . S
C5101 C5117 1.377 . S
C5102 C5100 1.389 1_455 S
C5102 C5103 1.524 . S
C5102 C5116 1.377 . S
C5103 C5102 1.524 . S
C5103 C5104 1.397 1_455 S
C5103 C5108 1.363 . S
C5104 H5081 0.950 . S
C5104 C5103 1.397 1_655 S
C5104 C5105 1.334 . S
C5105 H5082 0.950 . S
C5105 C5104 1.334 . S
C5105 C5106 1.287 1_655 S
C5106 C5105 1.287 1_455 S
C5106 C5107 1.524 . S
C5106 H5125 0.913 . S
C5107 H5083 0.950 . S
C5107 C5106 1.524 . S
C5107 C5108 1.415 . S
C5108 H5084 0.950 . S
C5108 C5103 1.363 . S
C5108 C5107 1.415 . S
C5109 H5085 0.951 1_556 S
C5109 C5110 1.366 1_556 S
C5109 C5111 1.388 . S
C5110 C5109 1.366 1_554 S
C5110 C5114 1.385 1_554 S
C5111 H5086 0.951 1_455 S
C5111 C5109 1.388 . S
C5111 C5112 1.366 . S
C5112 C5111 1.366 . S
C5112 C5113 1.414 . S
C5112 C5115 1.499 . S
C5113 H5087 0.950 . S
C5113 C5112 1.414 . S
C5113 C5114 1.374 . S
C5114 H5088 0.950 . S
C5114 C5110 1.385 1_556 S
C5114 C5113 1.374 . S
C5115 C5112 1.499 . S
C5115 C5116 1.373 . S
C5115 C5117 1.389 1_455 S
C5116 H5089 0.950 . S
C5116 C5102 1.377 . S
C5116 C5115 1.373 . S
C5117 C5101 1.377 . S
C5117 C5115 1.389 1_655 S
C5117 C5118 1.524 . S
C5118 C5117 1.524 . S
C5118 C5119 1.396 1_655 S
C5118 C5123 1.363 . S
C5119 H5090 0.951 . S
C5119 C5118 1.396 1_455 S
C5119 C5120 1.288 1_456 S
C5120 H5091 0.982 1_655 S
C5120 C5119 1.288 1_654 S
C5120 C5121 1.302 . S
C5121 C5120 1.302 . S
C5121 C5122 1.524 1_554 S
C5121 H5124 0.999 . S
C5122 H5092 0.950 . S
C5122 C5121 1.524 1_556 S
C5122 C5123 1.415 . S
C5123 H5093 0.950 . S
C5123 C5118 1.363 . S
C5123 C5122 1.415 . S
H5124 C5121 0.999 . S
H5125 C5106 0.913 . S
H5126 C5144 0.951 . S
H5127 C5146 0.951 . S
H5128 C5148 0.950 . S
H5129 C5149 0.950 . S
H5130 C5151 0.950 . S
H5131 C5154 0.950 . S
H5132 C5155 0.950 . S
H5133 C5157 0.950 . S
H5134 C5158 0.950 . S
H5135 C5159 0.951 . S
H5136 C5161 0.951 . S
H5137 C5163 0.950 . S
H5138 C5164 0.950 . S
H5139 C5166 0.950 . S
H5140 C5169 0.950 . S
H5141 C5170 0.950 . S
H5142 C5172 0.950 . S
H5143 C5173 0.950 . S
C5144 H5126 0.951 . S
C5144 C5145 1.366 . S
C5144 C5146 1.388 . S
C5145 C5144 1.366 . S
C5145 C5149 1.385 . S
C5146 H5127 0.951 . S
C5146 C5144 1.388 . S
C5146 C5147 1.366 . S
C5147 C5146 1.366 . S
C5147 C5148 1.414 . S
C5147 C5150 1.499 . S
C5148 H5128 0.950 . S
C5148 C5147 1.414 . S
C5148 C5149 1.374 . S
C5149 H5129 0.950 . S
C5149 C5145 1.385 . S
C5149 C5148 1.374 . S
C5150 C5147 1.499 . S
C5150 C5151 1.373 . S
C5150 C5152 1.389 . S
C5151 H5130 0.950 . S
C5151 C5150 1.373 . S
C5151 C5167 1.377 . S
C5152 C5150 1.389 . S
C5152 C5153 1.524 . S
C5152 C5166 1.377 . S
C5153 C5152 1.524 . S
C5153 C5154 1.397 . S
C5153 C5158 1.363 . S
C5154 H5131 0.950 . S
C5154 C5153 1.397 . S
C5154 C5155 1.334 . S
C5155 H5132 0.950 . S
C5155 C5154 1.334 . S
C5155 C5156 1.287 . S
C5156 C5155 1.287 . S
C5156 C5157 1.524 . S
C5156 H5175 0.913 . S
C5157 H5133 0.950 . S
C5157 C5156 1.524 . S
C5157 C5158 1.415 . S
C5158 H5134 0.950 . S
C5158 C5153 1.363 . S
C5158 C5157 1.415 . S
C5159 H5135 0.951 . S
C5159 C5160 1.366 . S
C5159 C5161 1.388 . S
C5160 C5159 1.366 . S
C5160 C5164 1.385 . S
C5161 H5136 0.951 . S
C5161 C5159 1.388 . S
C5161 C5162 1.366 . S
C5162 C5161 1.366 . S
C5162 C5163 1.414 . S
C5162 C5165 1.499 . S
C5163 H5137 0.950 . S
C5163 C5162 1.414 . S
C5163 C5164 1.374 . S
C5164 H5138 0.950 . S
C5164 C5160 1.385 . S
C5164 C5163 1.374 . S
C5165 C5162 1.499 . S
C5165 C5166 1.373 . S
C5165 C5167 1.389 . S
C5166 H5139 0.950 . S
C5166 C5152 1.377 . S
C5166 C5165 1.373 . S
C5167 C5151 1.377 . S
C5167 C5165 1.389 . S
C5167 C5168 1.524 . S
C5168 C5167 1.524 . S
C5168 C5169 1.397 . S
C5168 C5173 1.363 . S
C5169 H5140 0.950 . S
C5169 C5168 1.397 . S
C5169 C5170 1.334 . S
C5170 H5141 0.950 . S
C5170 C5169 1.334 . S
C5170 C5171 1.287 . S
C5171 C5170 1.287 . S
C5171 C5172 1.524 . S
C5171 H5174 0.999 . S
C5172 H5142 0.950 . S
C5172 C5171 1.524 . S
C5172 C5173 1.415 . S
C5173 H5143 0.950 . S
C5173 C5168 1.363 . S
C5173 C5172 1.415 . S
H5174 C5171 0.999 . S
H5175 C5156 0.913 . S
H5176 C5194 0.951 . S
H5177 C5196 0.951 . S
H5178 C5198 0.950 . S
H5179 C5199 0.950 . S
H5180 C5201 0.950 . S
H5181 C5204 0.950 . S
H5182 C5205 0.950 . S
H5183 C5207 0.950 . S
H5184 C5208 0.950 . S
H5185 C5209 0.951 . S
H5186 C5211 0.951 . S
H5187 C5213 0.950 . S
H5188 C5214 0.950 . S
H5189 C5216 0.950 . S
H5190 C5219 0.950 . S
H5191 C5220 0.950 . S
H5192 C5222 0.950 . S
H5193 C5223 0.950 . S
C5194 H5176 0.951 . S
C5194 C5195 1.366 . S
C5194 C5196 1.388 . S
C5195 C5194 1.366 . S
C5195 C5199 1.385 . S
C5196 H5177 0.951 . S
C5196 C5194 1.388 . S
C5196 C5197 1.366 . S
C5197 C5196 1.366 . S
C5197 C5198 1.414 . S
C5197 C5200 1.499 . S
C5198 H5178 0.950 . S
C5198 C5197 1.414 . S
C5198 C5199 1.374 . S
C5199 H5179 0.950 . S
C5199 C5195 1.385 . S
C5199 C5198 1.374 . S
C5200 C5197 1.499 . S
C5200 C5201 1.373 . S
C5200 C5202 1.389 . S
C5201 H5180 0.950 . S
C5201 C5200 1.373 . S
C5201 C5217 1.377 . S
C5202 C5200 1.389 . S
C5202 C5203 1.524 . S
C5202 C5216 1.377 . S
C5203 C5202 1.524 . S
C5203 C5204 1.397 . S
C5203 C5208 1.363 . S
C5204 H5181 0.950 . S
C5204 C5203 1.397 . S
C5204 C5205 1.334 . S
C5205 H5182 0.950 . S
C5205 C5204 1.334 . S
C5205 C5206 1.287 . S
C5206 C5205 1.287 . S
C5206 C5207 1.524 . S
C5206 H5225 0.913 . S
C5207 H5183 0.950 . S
C5207 C5206 1.524 . S
C5207 C5208 1.415 . S
C5208 H5184 0.950 . S
C5208 C5203 1.363 . S
C5208 C5207 1.415 . S
C5209 H5185 0.951 . S
C5209 C5210 1.366 . S
C5209 C5211 1.388 . S
C5210 C5209 1.366 . S
C5210 C5214 1.385 . S
C5211 H5186 0.951 . S
C5211 C5209 1.388 . S
C5211 C5212 1.366 . S
C5212 C5211 1.366 . S
C5212 C5213 1.414 . S
C5212 C5215 1.499 . S
C5213 H5187 0.950 . S
C5213 C5212 1.414 . S
C5213 C5214 1.374 . S
C5214 H5188 0.950 . S
C5214 C5210 1.385 . S
C5214 C5213 1.374 . S
C5215 C5212 1.499 . S
C5215 C5216 1.373 . S
C5215 C5217 1.389 . S
C5216 H5189 0.950 . S
C5216 C5202 1.377 . S
C5216 C5215 1.373 . S
C5217 C5201 1.377 . S
C5217 C5215 1.389 . S
C5217 C5218 1.524 . S
C5218 C5217 1.524 . S
C5218 C5219 1.397 . S
C5218 C5223 1.363 . S
C5219 H5190 0.950 . S
C5219 C5218 1.397 . S
C5219 C5220 1.334 . S
C5220 H5191 0.950 . S
C5220 C5219 1.334 . S
C5220 C5221 1.287 . S
C5221 C5220 1.287 . S
C5221 C5222 1.524 . S
C5221 H5224 0.999 . S
C5222 H5192 0.950 . S
C5222 C5221 1.524 . S
C5222 C5223 1.415 . S
C5223 H5193 0.950 . S
C5223 C5218 1.363 . S
C5223 C5222 1.415 . S
H5224 C5221 0.999 . S
H5225 C5206 0.913 . S
H5226 C5244 0.951 . S
H5227 C5246 0.951 . S
H5228 C5248 0.950 . S
H5229 C5249 0.950 . S
H5230 C5251 0.950 . S
H5231 C5254 0.950 . S
H5232 C5255 0.950 . S
H5233 C5257 0.950 . S
H5234 C5258 0.950 . S
H5235 C5259 0.951 . S
H5236 C5261 0.951 . S
H5237 C5263 0.950 . S
H5238 C5264 0.950 . S
H5239 C5266 0.950 . S
H5240 C5269 0.950 . S
H5241 C5270 0.950 . S
H5242 C5272 0.950 . S
H5243 C5273 0.950 . S
C5244 H5226 0.951 . S
C5244 C5245 1.366 . S
C5244 C5246 1.388 . S
C5245 C5244 1.366 . S
C5245 C5249 1.385 . S
C5246 H5227 0.951 . S
C5246 C5244 1.388 . S
C5246 C5247 1.366 . S
C5247 C5246 1.366 . S
C5247 C5248 1.414 . S
C5247 C5250 1.499 . S
C5248 H5228 0.950 . S
C5248 C5247 1.414 . S
C5248 C5249 1.374 . S
C5249 H5229 0.950 . S
C5249 C5245 1.385 . S
C5249 C5248 1.374 . S
C5250 C5247 1.499 . S
C5250 C5251 1.373 . S
C5250 C5252 1.389 . S
C5251 H5230 0.950 . S
C5251 C5250 1.373 . S
C5251 C5267 1.377 . S
C5252 C5250 1.389 . S
C5252 C5253 1.524 . S
C5252 C5266 1.377 . S
C5253 C5252 1.524 . S
C5253 C5254 1.397 . S
C5253 C5258 1.363 . S
C5254 H5231 0.950 . S
C5254 C5253 1.397 . S
C5254 C5255 1.334 . S
C5255 H5232 0.950 . S
C5255 C5254 1.334 . S
C5255 C5256 1.287 . S
C5256 C5255 1.287 . S
C5256 C5257 1.524 . S
C5256 H5275 0.913 . S
C5257 H5233 0.950 . S
C5257 C5256 1.524 . S
C5257 C5258 1.415 . S
C5258 H5234 0.950 . S
C5258 C5253 1.363 . S
C5258 C5257 1.415 . S
C5259 H5235 0.951 . S
C5259 C5260 1.366 . S
C5259 C5261 1.388 . S
C5260 C5259 1.366 . S
C5260 C5264 1.385 . S
C5261 H5236 0.951 . S
C5261 C5259 1.388 . S
C5261 C5262 1.366 . S
C5262 C5261 1.366 . S
C5262 C5263 1.414 . S
C5262 C5265 1.499 . S
C5263 H5237 0.950 . S
C5263 C5262 1.414 . S
C5263 C5264 1.374 . S
C5264 H5238 0.950 . S
C5264 C5260 1.385 . S
C5264 C5263 1.374 . S
C5265 C5262 1.499 . S
C5265 C5266 1.373 . S
C5265 C5267 1.389 . S
C5266 H5239 0.950 . S
C5266 C5252 1.377 . S
C5266 C5265 1.373 . S
C5267 C5251 1.377 . S
C5267 C5265 1.389 . S
C5267 C5268 1.524 . S
C5268 C5267 1.524 . S
C5268 C5269 1.397 . S
C5268 C5273 1.363 . S
C5269 H5240 0.950 . S
C5269 C5268 1.397 . S
C5269 C5270 1.334 . S
C5270 H5241 0.950 . S
C5270 C5269 1.334 . S
C5270 C5271 1.287 . S
C5271 C5270 1.287 . S
C5271 C5272 1.524 . S
C5271 H5274 0.999 . S
C5272 H5242 0.950 . S
C5272 C5271 1.524 . S
C5272 C5273 1.415 . S
C5273 H5243 0.950 . S
C5273 C5268 1.363 . S
C5273 C5272 1.415 . S
H5274 C5271 0.999 . S
H5275 C5256 0.913 . S
H5276 C5294 0.951 . S
H5277 C5296 0.951 . S
H5278 C5298 0.950 . S
H5279 C5299 0.950 . S
H5280 C5301 0.950 . S
H5281 C5304 0.950 . S
H5282 C5305 0.950 . S
H5283 C5307 0.950 1_455 S
H5284 C5308 0.940 1_455 S
H5285 C5309 0.951 . S
H5286 C5311 0.951 . S
H5287 C5313 0.950 1_455 S
H5288 C5314 0.950 . S
H5289 C5316 0.950 . S
H5290 C5319 0.950 . S
H5291 C5320 0.950 . S
H5292 C5322 0.950 . S
H5293 C5323 0.950 . S
C5294 H5276 0.951 . S
C5294 C5295 1.366 . S
C5294 C5296 1.388 . S
C5295 C5294 1.366 . S
C5295 C5299 1.385 . S
C5296 H5277 0.951 . S
C5296 C5294 1.388 . S
C5296 C5297 1.366 . S
C5297 C5296 1.366 . S
C5297 C5298 1.414 . S
C5297 C5300 1.499 . S
C5298 H5278 0.950 . S
C5298 C5297 1.414 . S
C5298 C5299 1.374 . S
C5299 H5279 0.950 . S
C5299 C5295 1.385 . S
C5299 C5298 1.374 . S
C5300 C5297 1.499 . S
C5300 C5301 1.373 . S
C5300 C5302 1.389 . S
C5301 H5280 0.950 . S
C5301 C5300 1.373 . S
C5301 C5317 1.377 . S
C5302 C5300 1.389 . S
C5302 C5303 1.524 . S
C5302 C5316 1.377 . S
C5303 C5302 1.524 . S
C5303 C5304 1.397 . S
C5303 C5308 1.363 . S
C5304 H5281 0.950 . S
C5304 C5303 1.397 . S
C5304 C5305 1.334 . S
C5305 H5282 0.950 . S
C5305 C5304 1.334 . S
C5305 C5306 1.287 . S
C5306 C5305 1.287 . S
C5306 C5307 1.524 . S
C5306 H5325 0.913 . S
C5307 H5283 0.950 1_655 S
C5307 C5306 1.524 . S
C5307 C5308 1.415 . S
C5308 H5284 0.940 1_655 S
C5308 C5303 1.363 . S
C5308 C5307 1.415 . S
C5309 H5285 0.951 . S
C5309 C5310 1.366 . S
C5309 C5311 1.388 . S
C5310 C5309 1.366 . S
C5310 C5314 1.385 1_655 S
C5311 H5286 0.951 . S
C5311 C5309 1.388 . S
C5311 C5312 1.366 . S
C5312 C5311 1.366 . S
C5312 C5313 1.414 . S
C5312 C5315 1.499 . S
C5313 H5287 0.950 1_655 S
C5313 C5312 1.414 . S
C5313 C5314 1.374 1_655 S
C5314 H5288 0.950 . S
C5314 C5310 1.385 1_455 S
C5314 C5313 1.374 1_455 S
C5315 C5312 1.499 . S
C5315 C5316 1.373 . S
C5315 C5317 1.389 . S
C5316 H5289 0.950 . S
C5316 C5302 1.377 . S
C5316 C5315 1.373 . S
C5317 C5301 1.377 . S
C5317 C5315 1.389 . S
C5317 C5318 1.524 . S
C5318 C5317 1.524 . S
C5318 C5319 1.397 . S
C5318 C5323 1.363 . S
C5319 H5290 0.950 . S
C5319 C5318 1.397 . S
C5319 C5320 1.334 . S
C5320 H5291 0.950 . S
C5320 C5319 1.334 . S
C5320 C5321 1.287 . S
C5321 C5320 1.287 . S
C5321 C5322 1.524 . S
C5321 H5324 0.999 . S
C5322 H5292 0.950 . S
C5322 C5321 1.524 . S
C5322 C5323 1.415 . S
C5323 H5293 0.950 . S
C5323 C5318 1.363 . S
C5323 C5322 1.415 . S
H5324 C5321 0.999 . S
H5325 C5306 0.913 . S
H5326 C5344 0.951 . S
H5327 C5346 0.951 . S
H5328 C5348 0.950 . S
H5329 C5349 0.950 . S
H5330 C5351 0.950 . S
H5331 C5354 0.950 . S
H5332 C5355 0.950 . S
H5333 C5357 0.950 . S
H5334 C5358 0.950 . S
H5335 C5359 0.951 . S
H5336 C5361 0.951 . S
H5337 C5363 0.950 . S
H5338 C5364 0.950 . S
H5339 C5366 0.950 . S
H5340 C5369 0.950 . S
H5341 C5370 0.950 . S
H5342 C5372 0.950 . S
H5343 C5373 0.950 . S
C5344 H5326 0.951 . S
C5344 C5345 1.366 . S
C5344 C5346 1.388 . S
C5345 C5344 1.366 . S
C5345 C5349 1.385 . S
C5346 H5327 0.951 . S
C5346 C5344 1.388 . S
C5346 C5347 1.366 . S
C5347 C5346 1.366 . S
C5347 C5348 1.414 . S
C5347 C5350 1.499 . S
C5348 H5328 0.950 . S
C5348 C5347 1.414 . S
C5348 C5349 1.374 . S
C5349 H5329 0.950 . S
C5349 C5345 1.385 . S
C5349 C5348 1.374 . S
C5350 C5347 1.499 . S
C5350 C5351 1.373 . S
C5350 C5352 1.389 . S
C5351 H5330 0.950 . S
C5351 C5350 1.373 . S
C5351 C5367 1.377 . S
C5352 C5350 1.389 . S
C5352 C5353 1.524 . S
C5352 C5366 1.377 . S
C5353 C5352 1.524 . S
C5353 C5354 1.397 . S
C5353 C5358 1.363 . S
C5354 H5331 0.950 . S
C5354 C5353 1.397 . S
C5354 C5355 1.334 . S
C5355 H5332 0.950 . S
C5355 C5354 1.334 . S
C5355 C5356 1.287 . S
C5356 C5355 1.287 . S
C5356 C5357 1.524 . S
C5356 H5375 0.913 . S
C5357 H5333 0.950 . S
C5357 C5356 1.524 . S
C5357 C5358 1.415 . S
C5358 H5334 0.950 . S
C5358 C5353 1.363 . S
C5358 C5357 1.415 . S
C5359 H5335 0.951 . S
C5359 C5360 1.366 . S
C5359 C5361 1.388 . S
C5360 C5359 1.366 . S
C5360 C5364 1.385 . S
C5361 H5336 0.951 . S
C5361 C5359 1.388 . S
C5361 C5362 1.366 . S
C5362 C5361 1.366 . S
C5362 C5363 1.414 . S
C5362 C5365 1.499 . S
C5363 H5337 0.950 . S
C5363 C5362 1.414 . S
C5363 C5364 1.374 . S
C5364 H5338 0.950 . S
C5364 C5360 1.385 . S
C5364 C5363 1.374 . S
C5365 C5362 1.499 . S
C5365 C5366 1.373 . S
C5365 C5367 1.389 . S
C5366 H5339 0.950 . S
C5366 C5352 1.377 . S
C5366 C5365 1.373 . S
C5367 C5351 1.377 . S
C5367 C5365 1.389 . S
C5367 C5368 1.524 . S
C5368 C5367 1.524 . S
C5368 C5369 1.397 . S
C5368 C5373 1.363 . S
C5369 H5340 0.950 . S
C5369 C5368 1.397 . S
C5369 C5370 1.334 . S
C5370 H5341 0.950 . S
C5370 C5369 1.334 . S
C5370 C5371 1.287 . S
C5371 C5370 1.287 . S
C5371 C5372 1.524 . S
C5371 H5374 0.999 . S
C5372 H5342 0.950 . S
C5372 C5371 1.524 . S
C5372 C5373 1.415 . S
C5373 H5343 0.950 . S
C5373 C5368 1.363 . S
C5373 C5372 1.415 . S
H5374 C5371 0.999 . S
H5375 C5356 0.913 . S
H5376 C5394 0.951 . S
H5377 C5396 0.951 . S
H5378 C5398 0.950 . S
H5379 C5399 0.950 . S
H5380 C5401 0.950 . S
H5381 C5404 0.950 . S
H5382 C5405 0.950 . S
H5383 C5407 0.950 . S
H5384 C5408 0.950 . S
H5385 C5409 0.951 . S
H5386 C5411 0.951 . S
H5387 C5413 0.950 . S
H5388 C5414 0.950 . S
H5389 C5416 0.950 . S
H5390 C5419 0.950 . S
H5391 C5420 0.950 . S
H5392 C5422 0.950 . S
H5393 C5423 0.950 . S
C5394 H5376 0.951 . S
C5394 C5395 1.366 . S
C5394 C5396 1.388 . S
C5395 C5394 1.366 . S
C5395 C5399 1.385 . S
C5396 H5377 0.951 . S
C5396 C5394 1.388 . S
C5396 C5397 1.366 . S
C5397 C5396 1.366 . S
C5397 C5398 1.414 . S
C5397 C5400 1.499 . S
C5398 H5378 0.950 . S
C5398 C5397 1.414 . S
C5398 C5399 1.374 . S
C5399 H5379 0.950 . S
C5399 C5395 1.385 . S
C5399 C5398 1.374 . S
C5400 C5397 1.499 . S
C5400 C5401 1.373 . S
C5400 C5402 1.389 . S
C5401 H5380 0.950 . S
C5401 C5400 1.373 . S
C5401 C5417 1.377 . S
C5402 C5400 1.389 . S
C5402 C5403 1.524 . S
C5402 C5416 1.377 . S
C5403 C5402 1.524 . S
C5403 C5404 1.397 . S
C5403 C5408 1.363 . S
C5404 H5381 0.950 . S
C5404 C5403 1.397 . S
C5404 C5405 1.334 . S
C5405 H5382 0.950 . S
C5405 C5404 1.334 . S
C5405 C5406 1.287 . S
C5406 C5405 1.287 . S
C5406 C5407 1.524 . S
C5406 H5425 0.913 . S
C5407 H5383 0.950 . S
C5407 C5406 1.524 . S
C5407 C5408 1.415 . S
C5408 H5384 0.950 . S
C5408 C5403 1.363 . S
C5408 C5407 1.415 . S
C5409 H5385 0.951 . S
C5409 C5410 1.366 . S
C5409 C5411 1.388 . S
C5410 C5409 1.366 . S
C5410 C5414 1.385 . S
C5411 H5386 0.951 . S
C5411 C5409 1.388 . S
C5411 C5412 1.366 . S
C5412 C5411 1.366 . S
C5412 C5413 1.414 . S
C5412 C5415 1.499 . S
C5413 H5387 0.950 . S
C5413 C5412 1.414 . S
C5413 C5414 1.374 . S
C5414 H5388 0.950 . S
C5414 C5410 1.385 . S
C5414 C5413 1.374 . S
C5415 C5412 1.499 . S
C5415 C5416 1.373 . S
C5415 C5417 1.389 . S
C5416 H5389 0.950 . S
C5416 C5402 1.377 . S
C5416 C5415 1.373 . S
C5417 C5401 1.377 . S
C5417 C5415 1.389 . S
C5417 C5418 1.524 . S
C5418 C5417 1.524 . S
C5418 C5419 1.397 . S
C5418 C5423 1.363 . S
C5419 H5390 0.950 . S
C5419 C5418 1.397 . S
C5419 C5420 1.334 . S
C5420 H5391 0.950 . S
C5420 C5419 1.334 . S
C5420 C5421 1.287 . S
C5421 C5420 1.287 . S
C5421 C5422 1.524 . S
C5421 H5424 0.999 . S
C5422 H5392 0.950 . S
C5422 C5421 1.524 . S
C5422 C5423 1.415 . S
C5423 H5393 0.950 . S
C5423 C5418 1.363 . S
C5423 C5422 1.415 . S
H5424 C5421 0.999 . S
H5425 C5406 0.913 . S
H5426 C5444 0.951 . S
H5427 C5446 0.951 . S
H5428 C5448 0.950 . S
H5429 C5449 0.950 . S
H5430 C5451 0.950 . S
H5431 C5454 0.950 . S
H5432 C5455 0.950 . S
H5433 C5457 0.950 1_545 S
H5434 C5458 0.953 . S
H5435 C5459 0.951 . S
H5436 C5461 0.951 1_565 S
H5437 C5463 0.950 . S
H5438 C5464 0.950 . S
H5439 C5466 0.950 1_545 S
H5440 C5469 0.950 . S
H5441 C5470 0.950 . S
H5442 C5472 0.950 . S
H5443 C5473 0.950 . S
C5444 H5426 0.951 . S
C5444 C5445 1.366 . S
C5444 C5446 1.388 . S
C5445 C5444 1.366 . S
C5445 C5449 1.385 . S
C5446 H5427 0.951 . S
C5446 C5444 1.388 . S
C5446 C5447 1.366 . S
C5447 C5446 1.366 . S
C5447 C5448 1.414 . S
C5447 C5450 1.499 . S
C5448 H5428 0.950 . S
C5448 C5447 1.414 . S
C5448 C5449 1.374 . S
C5449 H5429 0.950 . S
C5449 C5445 1.385 . S
C5449 C5448 1.374 . S
C5450 C5447 1.499 . S
C5450 C5451 1.373 . S
C5450 C5452 1.389 . S
C5451 H5430 0.950 . S
C5451 C5450 1.373 . S
C5451 C5467 1.377 . S
C5452 C5450 1.389 . S
C5452 C5453 1.524 . S
C5452 C5466 1.377 . S
C5453 C5452 1.524 . S
C5453 C5454 1.397 . S
C5453 C5458 1.360 1_565 S
C5454 H5431 0.950 . S
C5454 C5453 1.397 . S
C5454 C5455 1.334 . S
C5455 H5432 0.950 . S
C5455 C5454 1.334 . S
C5455 C5456 1.287 . S
C5456 C5455 1.287 . S
C5456 C5457 1.524 . S
C5456 H5475 0.913 . S
C5457 H5433 0.950 1_565 S
C5457 C5456 1.524 . S
C5457 C5458 1.415 1_565 S
C5458 H5434 0.953 . S
C5458 C5453 1.360 1_545 S
C5458 C5457 1.415 1_545 S
C5459 H5435 0.951 . S
C5459 C5460 1.366 . S
C5459 C5461 1.388 . S
C5460 C5459 1.366 . S
C5460 C5464 1.385 . S
C5461 H5436 0.951 1_545 S
C5461 C5459 1.388 . S
C5461 C5462 1.366 . S
C5462 C5461 1.366 . S
C5462 C5463 1.414 . S
C5462 C5465 1.499 1_545 S
C5463 H5437 0.950 . S
C5463 C5462 1.414 . S
C5463 C5464 1.374 . S
C5464 H5438 0.950 . S
C5464 C5460 1.385 . S
C5464 C5463 1.374 . S
C5465 C5462 1.499 1_565 S
C5465 C5466 1.373 . S
C5465 C5467 1.389 . S
C5466 H5439 0.950 1_565 S
C5466 C5452 1.377 . S
C5466 C5465 1.373 . S
C5467 C5451 1.377 . S
C5467 C5465 1.389 . S
C5467 C5468 1.524 . S
C5468 C5467 1.524 . S
C5468 C5469 1.397 1_565 S
C5468 C5473 1.363 . S
C5469 H5440 0.950 . S
C5469 C5468 1.397 1_545 S
C5469 C5470 1.334 . S
C5470 H5441 0.950 . S
C5470 C5469 1.334 . S
C5470 C5471 1.287 1_545 S
C5471 C5470 1.287 1_565 S
C5471 C5472 1.524 . S
C5471 H5474 0.999 . S
C5472 H5442 0.950 . S
C5472 C5471 1.524 . S
C5472 C5473 1.415 . S
C5473 H5443 0.950 . S
C5473 C5468 1.363 . S
C5473 C5472 1.415 . S
H5474 C5471 0.999 . S
H5475 C5456 0.913 . S
H5476 C5494 0.951 . S
H5477 C5496 0.951 . S
H5478 C5498 0.950 . S
H5479 C5499 0.950 . S
H5480 C5501 0.950 . S
H5481 C5504 0.950 . S
H5482 C5505 0.950 . S
H5483 C5507 0.950 . S
H5484 C5508 0.950 . S
H5485 C5509 0.951 . S
H5486 C5511 0.951 . S
H5487 C5513 0.950 . S
H5488 C5514 0.950 . S
H5489 C5516 0.950 . S
H5490 C5519 0.950 . S
H5491 C5520 0.950 . S
H5492 C5522 0.950 . S
H5493 C5523 0.950 . S
C5494 H5476 0.951 . S
C5494 C5495 1.366 . S
C5494 C5496 1.388 . S
C5495 C5494 1.366 . S
C5495 C5499 1.385 . S
C5496 H5477 0.951 . S
C5496 C5494 1.388 . S
C5496 C5497 1.366 . S
C5497 C5496 1.366 . S
C5497 C5498 1.414 . S
C5497 C5500 1.499 . S
C5498 H5478 0.950 . S
C5498 C5497 1.414 . S
C5498 C5499 1.374 . S
C5499 H5479 0.950 . S
C5499 C5495 1.385 . S
C5499 C5498 1.374 . S
C5500 C5497 1.499 . S
C5500 C5501 1.373 . S
C5500 C5502 1.389 . S
C5501 H5480 0.950 . S
C5501 C5500 1.373 . S
C5501 C5517 1.377 . S
C5502 C5500 1.389 . S
C5502 C5503 1.524 . S
C5502 C5516 1.377 . S
C5503 C5502 1.524 . S
C5503 C5504 1.397 . S
C5503 C5508 1.363 . S
C5504 H5481 0.950 . S
C5504 C5503 1.397 . S
C5504 C5505 1.334 . S
C5505 H5482 0.950 . S
C5505 C5504 1.334 . S
C5505 C5506 1.287 . S
C5506 C5505 1.287 . S
C5506 C5507 1.524 . S
C5506 H5525 0.913 . S
C5507 H5483 0.950 . S
C5507 C5506 1.524 . S
C5507 C5508 1.415 . S
C5508 H5484 0.950 . S
C5508 C5503 1.363 . S
C5508 C5507 1.415 . S
C5509 H5485 0.951 . S
C5509 C5510 1.366 . S
C5509 C5511 1.388 . S
C5510 C5509 1.366 . S
C5510 C5514 1.385 . S
C5511 H5486 0.951 . S
C5511 C5509 1.388 . S
C5511 C5512 1.366 . S
C5512 C5511 1.366 . S
C5512 C5513 1.414 . S
C5512 C5515 1.499 . S
C5513 H5487 0.950 . S
C5513 C5512 1.414 . S
C5513 C5514 1.374 . S
C5514 H5488 0.950 . S
C5514 C5510 1.385 . S
C5514 C5513 1.374 . S
C5515 C5512 1.499 . S
C5515 C5516 1.373 . S
C5515 C5517 1.389 . S
C5516 H5489 0.950 . S
C5516 C5502 1.377 . S
C5516 C5515 1.373 . S
C5517 C5501 1.377 . S
C5517 C5515 1.389 . S
C5517 C5518 1.524 . S
C5518 C5517 1.524 . S
C5518 C5519 1.397 . S
C5518 C5523 1.363 . S
C5519 H5490 0.950 . S
C5519 C5518 1.397 . S
C5519 C5520 1.334 . S
C5520 H5491 0.950 . S
C5520 C5519 1.334 . S
C5520 C5521 1.287 . S
C5521 C5520 1.287 . S
C5521 C5522 1.524 . S
C5521 H5524 0.999 . S
C5522 H5492 0.950 . S
C5522 C5521 1.524 . S
C5522 C5523 1.415 . S
C5523 H5493 0.950 . S
C5523 C5518 1.363 . S
C5523 C5522 1.415 . S
H5524 C5521 0.999 . S
H5525 C5506 0.913 . S
H5526 C5544 0.951 . S
H5527 C5546 0.951 . S
H5528 C5548 0.950 . S
H5529 C5549 0.950 . S
H5530 C5551 0.950 1_556 S
H5531 C5554 0.950 . S
H5532 C5555 0.950 . S
H5533 C5557 0.950 . S
H5534 C5558 0.950 . S
H5535 C5559 0.951 . S
H5536 C5561 0.951 1_556 S
H5537 C5563 0.950 . S
H5538 C5564 0.950 . S
H5539 C5566 0.950 . S
H5540 C5569 0.950 . S
H5541 C5570 0.990 . S
H5542 C5572 0.950 . S
H5543 C5573 0.950 . S
C5544 H5526 0.951 . S
C5544 C5545 1.366 . S
C5544 C5546 1.388 . S
C5545 C5544 1.366 . S
C5545 C5549 1.385 1_554 S
C5546 H5527 0.951 . S
C5546 C5544 1.388 . S
C5546 C5547 1.366 . S
C5547 C5546 1.366 . S
C5547 C5548 1.414 1_554 S
C5547 C5550 1.499 . S
C5548 H5528 0.950 . S
C5548 C5547 1.414 1_556 S
C5548 C5549 1.374 . S
C5549 H5529 0.950 . S
C5549 C5545 1.385 1_556 S
C5549 C5548 1.374 . S
C5550 C5547 1.499 . S
C5550 C5551 1.373 . S
C5550 C5552 1.389 . S
C5551 H5530 0.950 1_554 S
C5551 C5550 1.373 . S
C5551 C5567 1.377 . S
C5552 C5550 1.389 . S
C5552 C5553 1.524 . S
C5552 C5566 1.377 . S
C5553 C5552 1.524 . S
C5553 C5554 1.397 . S
C5553 C5558 1.363 . S
C5554 H5531 0.950 . S
C5554 C5553 1.397 . S
C5554 C5555 1.334 . S
C5555 H5532 0.950 . S
C5555 C5554 1.334 . S
C5555 C5556 1.287 . S
C5556 C5555 1.287 . S
C5556 C5557 1.524 . S
C5556 H5575 0.913 . S
C5557 H5533 0.950 . S
C5557 C5556 1.524 . S
C5557 C5558 1.415 . S
C5558 H5534 0.950 . S
C5558 C5553 1.363 . S
C5558 C5557 1.415 . S
C5559 H5535 0.951 . S
C5559 C5560 1.366 . S
C5559 C5561 1.388 . S
C5560 C5559 1.366 . S
C5560 C5564 1.385 . S
C5561 H5536 0.951 1_554 S
C5561 C5559 1.388 . S
C5561 C5562 1.366 . S
C5562 C5561 1.366 . S
C5562 C5563 1.414 . S
C5562 C5565 1.499 . S
C5563 H5537 0.950 . S
C5563 C5562 1.414 . S
C5563 C5564 1.374 . S
C5564 H5538 0.950 . S
C5564 C5560 1.385 . S
C5564 C5563 1.374 . S
C5565 C5562 1.499 . S
C5565 C5566 1.373 . S
C5565 C5567 1.389 . S
C5566 H5539 0.950 . S
C5566 C5552 1.377 . S
C5566 C5565 1.373 . S
C5567 C5551 1.377 . S
C5567 C5565 1.389 . S
C5567 C5568 1.524 1_554 S
C5568 C5567 1.524 1_556 S
C5568 C5569 1.397 1_556 S
C5568 C5573 1.363 . S
C5569 H5540 0.950 . S
C5569 C5568 1.397 1_554 S
C5569 C5570 1.353 . S
C5570 H5541 0.990 . S
C5570 C5569 1.353 . S
C5570 C5571 1.229 1_554 S
C5571 C5570 1.229 1_556 S
C5571 C5572 1.524 . S
C5571 H5574 0.999 . S
C5572 H5542 0.950 . S
C5572 C5571 1.524 . S
C5572 C5573 1.415 . S
C5573 H5543 0.950 . S
C5573 C5568 1.363 . S
C5573 C5572 1.415 . S
H5574 C5571 0.999 . S
H5575 C5556 0.913 . S
H5576 C5594 0.951 . S
H5577 C5596 0.951 . S
H5578 C5598 0.950 . S
H5579 C5599 0.950 . S
H5580 C5601 0.950 . S
H5581 C5604 0.950 . S
H5582 C5605 0.950 . S
H5583 C5607 0.950 . S
H5584 C5608 0.950 . S
H5585 C5609 0.951 . S
H5586 C5611 0.951 . S
H5587 C5613 0.950 . S
H5588 C5614 0.950 . S
H5589 C5616 0.950 . S
H5590 C5619 0.950 . S
H5591 C5620 0.950 . S
H5592 C5622 0.950 . S
H5593 C5623 0.950 . S
C5594 H5576 0.951 . S
C5594 C5595 1.366 . S
C5594 C5596 1.388 . S
C5595 C5594 1.366 . S
C5595 C5599 1.385 . S
C5596 H5577 0.951 . S
C5596 C5594 1.388 . S
C5596 C5597 1.366 . S
C5597 C5596 1.366 . S
C5597 C5598 1.414 . S
C5597 C5600 1.499 . S
C5598 H5578 0.950 . S
C5598 C5597 1.414 . S
C5598 C5599 1.374 . S
C5599 H5579 0.950 . S
C5599 C5595 1.385 . S
C5599 C5598 1.374 . S
C5600 C5597 1.499 . S
C5600 C5601 1.373 . S
C5600 C5602 1.389 . S
C5601 H5580 0.950 . S
C5601 C5600 1.373 . S
C5601 C5617 1.377 . S
C5602 C5600 1.389 . S
C5602 C5603 1.524 . S
C5602 C5616 1.377 . S
C5603 C5602 1.524 . S
C5603 C5604 1.397 . S
C5603 C5608 1.363 . S
C5604 H5581 0.950 . S
C5604 C5603 1.397 . S
C5604 C5605 1.334 . S
C5605 H5582 0.950 . S
C5605 C5604 1.334 . S
C5605 C5606 1.287 . S
C5606 C5605 1.287 . S
C5606 C5607 1.524 . S
C5606 H5625 0.913 . S
C5607 H5583 0.950 . S
C5607 C5606 1.524 . S
C5607 C5608 1.415 . S
C5608 H5584 0.950 . S
C5608 C5603 1.363 . S
C5608 C5607 1.415 . S
C5609 H5585 0.951 . S
C5609 C5610 1.366 . S
C5609 C5611 1.388 . S
C5610 C5609 1.366 . S
C5610 C5614 1.385 . S
C5611 H5586 0.951 . S
C5611 C5609 1.388 . S
C5611 C5612 1.366 . S
C5612 C5611 1.366 . S
C5612 C5613 1.414 . S
C5612 C5615 1.499 . S
C5613 H5587 0.950 . S
C5613 C5612 1.414 . S
C5613 C5614 1.374 . S
C5614 H5588 0.950 . S
C5614 C5610 1.385 . S
C5614 C5613 1.374 . S
C5615 C5612 1.499 . S
C5615 C5616 1.373 . S
C5615 C5617 1.389 . S
C5616 H5589 0.950 . S
C5616 C5602 1.377 . S
C5616 C5615 1.373 . S
C5617 C5601 1.377 . S
C5617 C5615 1.389 . S
C5617 C5618 1.524 . S
C5618 C5617 1.524 . S
C5618 C5619 1.397 . S
C5618 C5623 1.363 . S
C5619 H5590 0.950 . S
C5619 C5618 1.397 . S
C5619 C5620 1.334 . S
C5620 H5591 0.950 . S
C5620 C5619 1.334 . S
C5620 C5621 1.287 . S
C5621 C5620 1.287 . S
C5621 C5622 1.524 . S
C5621 H5624 0.999 . S
C5622 H5592 0.950 . S
C5622 C5621 1.524 . S
C5622 C5623 1.415 . S
C5623 H5593 0.950 . S
C5623 C5618 1.363 . S
C5623 C5622 1.415 . S
H5624 C5621 0.999 . S
H5625 C5606 0.913 . S
H5626 C5644 0.951 . S
H5627 C5646 0.951 . S
H5628 C5648 0.950 . S
H5629 C5649 0.950 . S
H5630 C5651 0.950 . S
H5631 C5654 0.950 . S
H5632 C5655 0.950 . S
H5633 C5657 0.950 . S
H5634 C5658 0.950 . S
H5635 C5659 0.951 . S
H5636 C5661 0.951 . S
H5637 C5663 0.950 . S
H5638 C5664 0.950 . S
H5639 C5666 0.950 . S
H5640 C5669 0.950 . S
H5641 C5670 0.950 . S
H5642 C5672 0.950 . S
H5643 C5673 0.950 . S
C5644 H5626 0.951 . S
C5644 C5645 1.366 . S
C5644 C5646 1.388 . S
C5645 C5644 1.366 . S
C5645 C5649 1.385 . S
C5646 H5627 0.951 . S
C5646 C5644 1.388 . S
C5646 C5647 1.366 . S
C5647 C5646 1.366 . S
C5647 C5648 1.414 . S
C5647 C5650 1.499 . S
C5648 H5628 0.950 . S
C5648 C5647 1.414 . S
C5648 C5649 1.374 . S
C5649 H5629 0.950 . S
C5649 C5645 1.385 . S
C5649 C5648 1.374 . S
C5650 C5647 1.499 . S
C5650 C5651 1.373 . S
C5650 C5652 1.389 . S
C5651 H5630 0.950 . S
C5651 C5650 1.373 . S
C5651 C5667 1.377 . S
C5652 C5650 1.389 . S
C5652 C5653 1.524 . S
C5652 C5666 1.377 . S
C5653 C5652 1.524 . S
C5653 C5654 1.397 1_554 S
C5653 C5658 1.363 . S
C5654 H5631 0.950 . S
C5654 C5653 1.397 1_556 S
C5654 C5655 1.334 . S
C5655 H5632 0.950 . S
C5655 C5654 1.334 . S
C5655 C5656 1.287 . S
C5656 C5655 1.287 . S
C5656 C5657 1.524 . S
C5656 H5675 0.913 . S
C5657 H5633 0.950 . S
C5657 C5656 1.524 . S
C5657 C5658 1.415 1_556 S
C5658 H5634 0.950 . S
C5658 C5653 1.363 . S
C5658 C5657 1.415 1_554 S
C5659 H5635 0.951 . S
C5659 C5660 1.366 . S
C5659 C5661 1.388 . S
C5660 C5659 1.366 . S
C5660 C5664 1.385 . S
C5661 H5636 0.951 . S
C5661 C5659 1.388 . S
C5661 C5662 1.366 . S
C5662 C5661 1.366 . S
C5662 C5663 1.414 . S
C5662 C5665 1.499 . S
C5663 H5637 0.950 . S
C5663 C5662 1.414 . S
C5663 C5664 1.374 . S
C5664 H5638 0.950 . S
C5664 C5660 1.385 . S
C5664 C5663 1.374 . S
C5665 C5662 1.499 . S
C5665 C5666 1.373 . S
C5665 C5667 1.389 . S
C5666 H5639 0.950 . S
C5666 C5652 1.377 . S
C5666 C5665 1.373 . S
C5667 C5651 1.377 . S
C5667 C5665 1.389 . S
C5667 C5668 1.524 . S
C5668 C5667 1.524 . S
C5668 C5669 1.397 . S
C5668 C5673 1.363 . S
C5669 H5640 0.950 . S
C5669 C5668 1.397 . S
C5669 C5670 1.334 . S
C5670 H5641 0.950 . S
C5670 C5669 1.334 . S
C5670 C5671 1.287 . S
C5671 C5670 1.287 . S
C5671 C5672 1.524 . S
C5671 H5674 0.999 . S
C5672 H5642 0.950 . S
C5672 C5671 1.524 . S
C5672 C5673 1.415 . S
C5673 H5643 0.950 . S
C5673 C5668 1.363 . S
C5673 C5672 1.415 . S
H5674 C5671 0.999 . S
H5675 C5656 0.913 . S
H5676 C5694 0.899 1_545 S
H5677 C5696 0.951 . S
H5678 C5698 0.950 . S
H5679 C5699 0.950 . S
H5680 C5701 0.950 . S
H5681 C5704 0.950 . S
H5682 C5705 0.950 . S
H5683 C5707 0.950 . S
H5684 C5708 0.950 . S
H5685 C5709 0.951 . S
H5686 C5711 0.951 . S
H5687 C5713 0.950 . S
H5688 C5714 0.950 . S
H5689 C5716 0.950 . S
H5690 C5719 0.950 . S
H5691 C5720 0.950 . S
H5692 C5722 0.950 . S
H5693 C5723 0.950 . S
C5694 H5676 0.899 1_565 S
C5694 C5695 1.366 . S
C5694 C5696 1.388 . S
C5695 C5694 1.366 . S
C5695 C5699 1.385 . S
C5696 H5677 0.951 . S
C5696 C5694 1.388 . S
C5696 C5697 1.366 . S
C5697 C5696 1.366 . S
C5697 C5698 1.414 . S
C5697 C5700 1.499 . S
C5698 H5678 0.950 . S
C5698 C5697 1.414 . S
C5698 C5699 1.374 . S
C5699 H5679 0.950 . S
C5699 C5695 1.385 . S
C5699 C5698 1.374 . S
C5700 C5697 1.499 . S
C5700 C5701 1.373 . S
C5700 C5702 1.389 . S
C5701 H5680 0.950 . S
C5701 C5700 1.373 . S
C5701 C5717 1.377 . S
C5702 C5700 1.389 . S
C5702 C5703 1.524 . S
C5702 C5716 1.377 . S
C5703 C5702 1.524 . S
C5703 C5704 1.397 . S
C5703 C5708 1.363 . S
C5704 H5681 0.950 . S
C5704 C5703 1.397 . S
C5704 C5705 1.334 . S
C5705 H5682 0.950 . S
C5705 C5704 1.334 . S
C5705 C5706 1.287 . S
C5706 C5705 1.287 . S
C5706 C5707 1.524 . S
C5706 H5725 0.913 . S
C5707 H5683 0.950 . S
C5707 C5706 1.524 . S
C5707 C5708 1.415 . S
C5708 H5684 0.950 . S
C5708 C5703 1.363 . S
C5708 C5707 1.415 . S
C5709 H5685 0.951 . S
C5709 C5710 1.366 . S
C5709 C5711 1.388 . S
C5710 C5709 1.366 . S
C5710 C5714 1.385 . S
C5711 H5686 0.951 . S
C5711 C5709 1.388 . S
C5711 C5712 1.366 . S
C5712 C5711 1.366 . S
C5712 C5713 1.414 . S
C5712 C5715 1.499 . S
C5713 H5687 0.950 . S
C5713 C5712 1.414 . S
C5713 C5714 1.374 . S
C5714 H5688 0.950 . S
C5714 C5710 1.385 . S
C5714 C5713 1.374 . S
C5715 C5712 1.499 . S
C5715 C5716 1.373 . S
C5715 C5717 1.389 . S
C5716 H5689 0.950 . S
C5716 C5702 1.377 . S
C5716 C5715 1.373 . S
C5717 C5701 1.377 . S
C5717 C5715 1.389 . S
C5717 C5718 1.524 . S
C5718 C5717 1.524 . S
C5718 C5719 1.397 . S
C5718 C5723 1.363 . S
C5719 H5690 0.950 . S
C5719 C5718 1.397 . S
C5719 C5720 1.334 . S
C5720 H5691 0.950 . S
C5720 C5719 1.334 . S
C5720 C5721 1.287 . S
C5721 C5720 1.287 . S
C5721 C5722 1.524 . S
C5721 H5724 0.999 . S
C5722 H5692 0.950 . S
C5722 C5721 1.524 . S
C5722 C5723 1.415 . S
C5723 H5693 0.950 . S
C5723 C5718 1.363 . S
C5723 C5722 1.415 . S
H5724 C5721 0.999 . S
H5725 C5706 0.913 . S
H5726 C5744 0.951 . S
H5727 C5746 0.951 . S
H5728 C5748 0.950 . S
H5729 C5749 0.950 . S
H5730 C5751 0.950 . S
H5731 C5754 0.950 . S
H5732 C5755 0.950 . S
H5733 C5757 0.950 . S
H5734 C5758 0.950 . S
H5735 C5759 0.951 . S
H5736 C5761 0.951 . S
H5737 C5763 0.950 . S
H5738 C5764 0.950 . S
H5739 C5766 0.950 . S
H5740 C5769 0.950 . S
H5741 C5770 0.950 . S
H5742 C5772 0.950 . S
H5743 C5773 0.950 . S
C5744 H5726 0.951 . S
C5744 C5745 1.366 . S
C5744 C5746 1.388 . S
C5745 C5744 1.366 . S
C5745 C5749 1.385 . S
C5746 H5727 0.951 . S
C5746 C5744 1.388 . S
C5746 C5747 1.366 . S
C5747 C5746 1.366 . S
C5747 C5748 1.414 . S
C5747 C5750 1.499 . S
C5748 H5728 0.950 . S
C5748 C5747 1.414 . S
C5748 C5749 1.374 . S
C5749 H5729 0.950 . S
C5749 C5745 1.385 . S
C5749 C5748 1.374 . S
C5750 C5747 1.499 . S
C5750 C5751 1.373 . S
C5750 C5752 1.389 . S
C5751 H5730 0.950 . S
C5751 C5750 1.373 . S
C5751 C5767 1.377 . S
C5752 C5750 1.389 . S
C5752 C5753 1.524 . S
C5752 C5766 1.377 . S
C5753 C5752 1.524 . S
C5753 C5754 1.397 . S
C5753 C5758 1.363 . S
C5754 H5731 0.950 . S
C5754 C5753 1.397 . S
C5754 C5755 1.334 . S
C5755 H5732 0.950 . S
C5755 C5754 1.334 . S
C5755 C5756 1.287 . S
C5756 C5755 1.287 . S
C5756 C5757 1.524 . S
C5756 H5775 0.913 . S
C5757 H5733 0.950 . S
C5757 C5756 1.524 . S
C5757 C5758 1.415 . S
C5758 H5734 0.950 . S
C5758 C5753 1.363 . S
C5758 C5757 1.415 . S
C5759 H5735 0.951 . S
C5759 C5760 1.366 . S
C5759 C5761 1.388 . S
C5760 C5759 1.366 . S
C5760 C5764 1.385 . S
C5761 H5736 0.951 . S
C5761 C5759 1.388 . S
C5761 C5762 1.366 . S
C5762 C5761 1.366 . S
C5762 C5763 1.414 . S
C5762 C5765 1.499 . S
C5763 H5737 0.950 . S
C5763 C5762 1.414 . S
C5763 C5764 1.374 . S
C5764 H5738 0.950 . S
C5764 C5760 1.385 . S
C5764 C5763 1.374 . S
C5765 C5762 1.499 . S
C5765 C5766 1.373 . S
C5765 C5767 1.389 . S
C5766 H5739 0.950 . S
C5766 C5752 1.377 . S
C5766 C5765 1.373 . S
C5767 C5751 1.377 . S
C5767 C5765 1.389 . S
C5767 C5768 1.524 . S
C5768 C5767 1.524 . S
C5768 C5769 1.397 . S
C5768 C5773 1.363 . S
C5769 H5740 0.950 . S
C5769 C5768 1.397 . S
C5769 C5770 1.334 . S
C5770 H5741 0.950 . S
C5770 C5769 1.334 . S
C5770 C5771 1.287 . S
C5771 C5770 1.287 . S
C5771 C5772 1.524 . S
C5771 H5774 0.999 . S
C5772 H5742 0.950 . S
C5772 C5771 1.524 . S
C5772 C5773 1.415 . S
C5773 H5743 0.950 . S
C5773 C5768 1.363 . S
C5773 C5772 1.415 . S
H5774 C5771 0.999 . S
H5775 C5756 0.913 . S
C995 C106 2.480 . S
C1010 C346 2.434 . S
C1045 C65 1.679 . S
C1060 C385 1.636 . S
C1095 C79 1.659 . S
C1110 C426 1.646 . S
C1160 C471 1.181 . S
C1145 C90 1.175 . S
C1195 C21 1.728 . S
C1210 C515 1.738 . S
C1260 C546 1.250 . S
C1245 C35 1.243 . S
C1310 C594 1.997 . S
C1295 C50 1.992 . S
C1345 C6 1.626 . S
C1360 C622 1.652 . S
C1410 C354 1.642 . S
C1395 C232 1.629 . S
C1445 C245 1.335 . S
C1460 C395 1.331 . S
C1510 C434 1.439 . S
C1495 C274 1.438 1_545 S
C1560 C466 1.294 . S
C1545 C175 1.281 . S
C1595 C231 0.457 . S
C1610 C502 0.299 . S
C1660 C554 2.228 . S
C1645 C246 2.221 . S
C1710 C591 0.521 . S
C1695 C273 0.558 . S
C1760 C625 2.130 . S
C1745 C176 2.122 . S
C1810 C351 1.846 . S
C1795 C160 1.844 . S
C1845 C289 1.947 . S
C1860 C665 1.905 . S
C1910 C711 1.127 . S
C1895 C328 1.092 . S
C1960 C746 1.415 . S
C1945 C317 1.449 . S
C1995 C118 1.782 . S
C2010 C635 1.837 . S
C2045 C132 1.340 . S
C2060 C431 1.358 . S
C2095 C331 1.398 . S
C2110 C794 1.387 . S
C2160 C822 0.560 . S
C2145 C303 0.551 . S
C2210 C355 2.010 . S
C2195 C63 2.031 . S
C2260 C834 2.141 . S
C2245 C107 2.161 . S
C2295 C92 1.349 . S
C2310 C435 1.349 . S
C2345 C78 1.685 . S
C2360 C782 1.690 . S
C2410 C506 2.496 . S
C2395 C8 2.472 . S
C2445 C51 1.349 . S
C2460 C715 1.312 . S
C2510 C585 2.305 1_565 S
C2495 C37 2.290 . S
C2560 C871 1.523 . S
C2545 C20 1.518 . S
C2610 C345 1.332 1_556 S
C2595 C147 1.286 . S
C2660 C826 1.491 . S
C2645 C316 1.526 . S
C2695 C119 1.409 . S
C2710 C425 1.475 . S
C2745 C288 1.456 . S
C2760 C795 1.460 . S
C2795 C148 0.217 . S
C2810 C511 0.144 . S
C2860 C705 2.243 . S
C2845 C315 2.225 . S
C2895 C120 0.944 . S
C2910 C582 0.923 . S
C2945 C287 1.884 . S
C2960 C874 1.896 . S
C2995 C188 1.629 . S
C3010 C342 1.620 . S
C3045 C177 2.302 . S
C3060 C674 2.285 . S
C3095 C258 1.059 . S
C3110 C542 1.073 . S
C3145 C247 1.711 . S
C3160 C755 1.666 . S
C3210 C866 1.661 . S
C3195 C272 1.643 . S
C3245 C216 1.173 . S
C3260 C422 1.188 . S
C3310 C465 1.673 . S
C3295 C261 1.631 . S
C3360 C391 0.475 . S
C3345 C205 0.475 . S
C3395 C76 2.045 . S
C3410 C906 2.038 . S
C3460 C825 1.728 . S
C3445 C93 1.774 . S
C3495 C105 1.208 . S
C3510 C946 1.218 . S
C3545 C62 1.200 . S
C3560 C791 1.208 . S
C3595 C49 1.700 . S
C3610 C675 1.707 . S
C3660 C706 1.658 . S
C3645 C9 1.692 . S
C3710 C754 1.930 . S
C3695 C22 1.927 . S
C3760 C862 1.952 . S
C3745 C36 1.983 . S
C3810 C914 1.537 . S
C3795 C260 1.525 . S
C3845 C189 1.209 . S
C3860 C835 1.206 . S
C3910 C954 1.355 . S
C3895 C204 1.355 . S
C3960 C786 1.089 . S
C3945 C217 1.085 . S
C4010 C662 0.212 . S
C3995 C259 0.412 . S
C4045 C190 2.343 . S
C4060 C714 2.349 . S
C4110 C751 0.679 . S
C4095 C203 0.687 . S
C4145 C218 2.180 . S
C4160 C865 2.193 . S
C4210 C911 1.811 . S
C4195 C314 1.806 . S
C4245 C135 1.991 . S
C4260 C505 1.951 . S
C4310 C551 1.093 . S
C4295 C146 1.057 . S
C4360 C586 1.506 . S
C4345 C163 1.531 . S
C4410 C875 1.900 . S
C4395 C300 1.852 . S
C4445 C286 1.290 . S
C4460 C951 1.312 . S
C4510 C474 1.288 . S
C4495 C149 1.296 . S
C4560 C382 0.543 . S
C4545 C121 0.530 . S
C4595 C91 2.012 . S
C4610 C915 1.998 . S
C4660 C394 1.707 . S
C4645 C77 1.687 . S
C4695 C64 1.319 . S
C4710 C955 1.323 . S
C4745 C104 1.332 . S
C4760 C462 1.352 . S
C4795 C34 2.036 . S
C4810 C666 2.079 . S
C4860 C555 1.277 . S
C4845 C23 1.305 . S
C4895 C7 1.798 . S
C4910 C745 1.839 . S
C4945 C48 1.442 . S
C4960 C631 1.452 . S
C5010 C905 1.308 . S
C4995 C329 1.268 . S
C5045 C162 1.529 . S
C5060 C386 1.500 . S
C5110 C945 1.474 . S
C5095 C301 1.418 . S
C5145 C134 1.451 . S
C5160 C475 1.457 . S
C5195 C330 0.240 . S
C5210 C671 0.173 . S
C5260 C545 2.233 . S
C5245 C161 2.221 1_556 S
C5295 C302 0.900 . S
C5310 C742 0.885 . S
C5360 C634 1.886 . S
C5345 C133 1.881 . S
C5410 C902 1.820 . S
C5395 C244 1.826 . S
C5460 C514 2.272 1_655 S
C5445 C219 2.290 . S
C5495 C230 0.896 . S
C5510 C702 0.903 . S
C5560 C595 1.587 . S
C5545 C191 1.644 1_554 S
C5595 C202 1.933 . S
C5610 C626 1.966 . S
C5645 C174 1.401 . S
C5660 C942 1.425 . S
C5710 C785 1.639 . S
C5695 C233 1.590 1_565 S
C5760 C831 0.504 . S
C5745 C275 0.494 . S
