# Generated by pormake.
# Topology ocu, (6,8)-cn, num edge types: 1
# Building blocks:
#     Node 0, Type 0, BuildingBlock: KUMBUR_clean_sbu_0, # of connection points: 6
#     Node 1, Type 0, BuildingBlock: KUMBUR_clean_sbu_0, # of connection points: 6
#     Node 2, Type 0, BuildingBlock: KUMBUR_clean_sbu_0, # of connection points: 6
#     Node 3, Type 0, BuildingBlock: KUMBUR_clean_sbu_0, # of connection points: 6
#     Node 4, Type 0, BuildingBlock: KUMBUR_clean_sbu_0, # of connection points: 6
#     Node 5, Type 0, BuildingBlock: KUMBUR_clean_sbu_0, # of connection points: 6
#     Node 6, Type 0, BuildingBlock: KUMBUR_clean_sbu_0, # of connection points: 6
#     Node 7, Type 0, BuildingBlock: KUMBUR_clean_sbu_0, # of connection points: 6
#     Node 8, Type 1, BuildingBlock: AJUNOK_clean_sbu_0, # of connection points: 8
#     Node 9, Type 1, BuildingBlock: AJUNOK_clean_sbu_0, # of connection points: 8
#     Node 10, Type 1, BuildingBlock: AJUNOK_clean_sbu_0, # of connection points: 8
#     Node 11, Type 1, BuildingBlock: AJUNOK_clean_sbu_0, # of connection points: 8
#     Node 12, Type 1, BuildingBlock: AJUNOK_clean_sbu_0, # of connection points: 8
#     Node 13, Type 1, BuildingBlock: AJUNOK_clean_sbu_0, # of connection points: 8
#     Edge 14, Type (0, 1), BuildingBlock: XUDNAN_clean_linker_2, # of connection points: 2
#     Edge 15, Type (0, 1), BuildingBlock: XUDNAN_clean_linker_2, # of connection points: 2
#     Edge 16, Type (0, 1), BuildingBlock: XUDNAN_clean_linker_2, # of connection points: 2
#     Edge 17, Type (0, 1), BuildingBlock: XUDNAN_clean_linker_2, # of connection points: 2
#     Edge 18, Type (0, 1), BuildingBlock: XUDNAN_clean_linker_2, # of connection points: 2
#     Edge 19, Type (0, 1), BuildingBlock: XUDNAN_clean_linker_2, # of connection points: 2
#     Edge 20, Type (0, 1), BuildingBlock: XUDNAN_clean_linker_2, # of connection points: 2
#     Edge 21, Type (0, 1), BuildingBlock: XUDNAN_clean_linker_2, # of connection points: 2
#     Edge 22, Type (0, 1), BuildingBlock: XUDNAN_clean_linker_2, # of connection points: 2
#     Edge 23, Type (0, 1), BuildingBlock: XUDNAN_clean_linker_2, # of connection points: 2
#     Edge 24, Type (0, 1), BuildingBlock: XUDNAN_clean_linker_2, # of connection points: 2
#     Edge 25, Type (0, 1), BuildingBlock: XUDNAN_clean_linker_2, # of connection points: 2
#     Edge 26, Type (0, 1), BuildingBlock: XUDNAN_clean_linker_2, # of connection points: 2
#     Edge 27, Type (0, 1), BuildingBlock: XUDNAN_clean_linker_2, # of connection points: 2
#     Edge 28, Type (0, 1), BuildingBlock: XUDNAN_clean_linker_2, # of connection points: 2
#     Edge 29, Type (0, 1), BuildingBlock: XUDNAN_clean_linker_2, # of connection points: 2
#     Edge 30, Type (0, 1), BuildingBlock: XUDNAN_clean_linker_2, # of connection points: 2
#     Edge 31, Type (0, 1), BuildingBlock: XUDNAN_clean_linker_2, # of connection points: 2
#     Edge 32, Type (0, 1), BuildingBlock: XUDNAN_clean_linker_2, # of connection points: 2
#     Edge 33, Type (0, 1), BuildingBlock: XUDNAN_clean_linker_2, # of connection points: 2
#     Edge 34, Type (0, 1), BuildingBlock: XUDNAN_clean_linker_2, # of connection points: 2
#     Edge 35, Type (0, 1), BuildingBlock: XUDNAN_clean_linker_2, # of connection points: 2
#     Edge 36, Type (0, 1), BuildingBlock: XUDNAN_clean_linker_2, # of connection points: 2
#     Edge 37, Type (0, 1), BuildingBlock: XUDNAN_clean_linker_2, # of connection points: 2
#     Edge 38, Type (0, 1), BuildingBlock: XUDNAN_clean_linker_2, # of connection points: 2
#     Edge 39, Type (0, 1), BuildingBlock: XUDNAN_clean_linker_2, # of connection points: 2
#     Edge 40, Type (0, 1), BuildingBlock: XUDNAN_clean_linker_2, # of connection points: 2
#     Edge 41, Type (0, 1), BuildingBlock: XUDNAN_clean_linker_2, # of connection points: 2
#     Edge 42, Type (0, 1), BuildingBlock: XUDNAN_clean_linker_2, # of connection points: 2
#     Edge 43, Type (0, 1), BuildingBlock: XUDNAN_clean_linker_2, # of connection points: 2
#     Edge 44, Type (0, 1), BuildingBlock: XUDNAN_clean_linker_2, # of connection points: 2
#     Edge 45, Type (0, 1), BuildingBlock: XUDNAN_clean_linker_2, # of connection points: 2
#     Edge 46, Type (0, 1), BuildingBlock: XUDNAN_clean_linker_2, # of connection points: 2
#     Edge 47, Type (0, 1), BuildingBlock: XUDNAN_clean_linker_2, # of connection points: 2
#     Edge 48, Type (0, 1), BuildingBlock: XUDNAN_clean_linker_2, # of connection points: 2
#     Edge 49, Type (0, 1), BuildingBlock: XUDNAN_clean_linker_2, # of connection points: 2
#     Edge 50, Type (0, 1), BuildingBlock: XUDNAN_clean_linker_2, # of connection points: 2
#     Edge 51, Type (0, 1), BuildingBlock: XUDNAN_clean_linker_2, # of connection points: 2
#     Edge 52, Type (0, 1), BuildingBlock: XUDNAN_clean_linker_2, # of connection points: 2
#     Edge 53, Type (0, 1), BuildingBlock: XUDNAN_clean_linker_2, # of connection points: 2
#     Edge 54, Type (0, 1), BuildingBlock: XUDNAN_clean_linker_2, # of connection points: 2
#     Edge 55, Type (0, 1), BuildingBlock: XUDNAN_clean_linker_2, # of connection points: 2
#     Edge 56, Type (0, 1), BuildingBlock: XUDNAN_clean_linker_2, # of connection points: 2
#     Edge 57, Type (0, 1), BuildingBlock: XUDNAN_clean_linker_2, # of connection points: 2
#     Edge 58, Type (0, 1), BuildingBlock: XUDNAN_clean_linker_2, # of connection points: 2
#     Edge 59, Type (0, 1), BuildingBlock: XUDNAN_clean_linker_2, # of connection points: 2
#     Edge 60, Type (0, 1), BuildingBlock: XUDNAN_clean_linker_2, # of connection points: 2
#     Edge 61, Type (0, 1), BuildingBlock: XUDNAN_clean_linker_2, # of connection points: 2
# Relax obj value: 0.159
# Max RMSD: 0.262
# Mean RMSD: 0.204
data_MOF--net-ocu--node1-KUMBUR_clean_sbu_0--node2-AJUNOK_clean_sbu_0--edge1-XUDNAN_clean_linker_2
_symmetry_space_group_name_H-M    P1
_symmetry_Int_Tables_number       1
_symmetry_cell_setting            triclinic
loop_
_symmetry_equiv_pos_as_xyz
'x, y, z'
_cell_length_a     44.012771
_cell_length_b     43.374072
_cell_length_c     39.146394
_cell_angle_alpha  87.039278
_cell_angle_beta   104.90231
_cell_angle_gamma 114.75636
loop_
_atom_site_label
_atom_site_type_symbol
_atom_site_fract_x
_atom_site_fract_y
_atom_site_fract_z
_atom_type_partial_charge
Tb0 Tb 0.25919 0.22245 0.20627 0.0
C1 C 0.33923 0.30793 0.34601 0.0
C2 C 0.33878 0.26588 0.38908 0.0
C3 C 0.38663 0.32213 0.39932 0.0
C4 C 0.32366 0.27551 0.35648 0.0
C5 C 0.37053 0.33194 0.36756 0.0
C6 C 0.37078 0.28911 0.41006 0.0
C7 C 0.36614 0.37398 0.32601 0.0
N8 N 0.32277 0.3163 0.31523 0.0
C9 C 0.33505 0.34924 0.30564 0.0
C10 C 0.3842 0.36522 0.3569 0.0
Tb11 Tb 0.27299 0.27359 0.28272 0.0
N12 N 0.29257 0.25414 0.33569 0.0
C13 C 0.27377 0.22362 0.34759 0.0
C14 C 0.3207 0.23368 0.40014 0.0
C15 C 0.28777 0.21271 0.37958 0.0
H16 H 0.32142 0.35637 0.2818 0.0
H17 H 0.27316 0.1881 0.38833 0.0
H18 H 0.383 0.28208 0.43503 0.0
H19 H 0.37615 0.39979 0.31785 0.0
H20 H 0.24827 0.20704 0.33219 0.0
H21 H 0.26076 0.31182 0.10409 0.0
H22 H 0.33143 0.22523 0.42496 0.0
H23 H 0.20993 0.13961 0.20523 0.0
H24 H 0.28348 0.29241 0.16065 0.0
H25 H 0.15737 0.09631 0.16633 0.0
H26 H 0.41087 0.34009 0.41614 0.0
H27 H 0.20554 0.27344 0.06335 0.0
H28 H 0.15584 0.21552 0.04959 0.0
H29 H 0.40822 0.38445 0.3727 0.0
H30 H 0.12767 0.1568 0.06649 0.0
N31 N 0.24098 0.24331 0.15353 0.0
C32 C 0.25926 0.27511 0.14363 0.0
C33 C 0.2153 0.26469 0.08843 0.0
C34 C 0.19754 0.23165 0.09781 0.0
C35 C 0.24647 0.28639 0.11132 0.0
C36 C 0.21133 0.22161 0.13085 0.0
H37 H 0.12822 0.11202 0.10984 0.0
N38 N 0.2103 0.18021 0.17188 0.0
C39 C 0.16767 0.12231 0.15878 0.0
C40 C 0.1954 0.18886 0.14037 0.0
C41 C 0.19755 0.14706 0.18081 0.0
C42 C 0.15127 0.13128 0.12695 0.0
C43 C 0.16535 0.16481 0.11714 0.0
O44 O 0.2791 0.18592 0.20562 0.0
O45 O 0.284 0.23409 0.26309 0.0
O46 O 0.32384 0.28988 0.27282 0.0
O47 O 0.30508 0.27087 0.21328 0.0
O48 O 0.25785 0.18426 0.24475 0.0
O49 O 0.29367 0.22939 0.17471 0.0
O50 O 0.25495 0.31128 0.28547 0.0
O51 O 0.24769 0.26082 0.22675 0.0
O52 O 0.20823 0.20519 0.21619 0.0
O53 O 0.22685 0.22491 0.2757 0.0
O54 O 0.27178 0.31068 0.24285 0.0
O55 O 0.23798 0.26613 0.31373 0.0
C56 C 0.27696 0.20382 0.27266 0.0
C57 C 0.29499 0.17922 0.15442 0.0
C58 C 0.31796 0.14383 0.13179 0.0
C59 C 0.31989 0.1658 0.15861 0.0
C60 C 0.29037 0.13553 0.10095 0.0
C61 C 0.26813 0.17066 0.12326 0.0
C62 C 0.26587 0.14893 0.09676 0.0
C63 C 0.32931 0.28882 0.24142 0.0
C64 C 0.29684 0.20124 0.18319 0.0
C65 C 0.15088 0.17483 0.08462 0.0
C66 C 0.16693 0.20824 0.07499 0.0
C67 C 0.25166 0.29003 0.21593 0.0
C68 C 0.23718 0.31565 0.33638 0.0
C69 C 0.21276 0.32971 0.33232 0.0
C70 C 0.21317 0.34917 0.36054 0.0
C71 C 0.23876 0.35446 0.39262 0.0
C72 C 0.26229 0.32146 0.36864 0.0
C73 C 0.263 0.34075 0.39653 0.0
C74 C 0.20296 0.20561 0.24786 0.0
C75 C 0.23605 0.29506 0.30673 0.0
H76 H 0.3408 0.17271 0.18264 0.0
H77 H 0.28721 0.11811 0.08013 0.0
H78 H 0.24881 0.18064 0.11946 0.0
H79 H 0.24485 0.14221 0.0729 0.0
H80 H 0.19326 0.32509 0.30739 0.0
H81 H 0.2405 0.36976 0.41465 0.0
H82 H 0.28131 0.31107 0.37228 0.0
H83 H 0.28256 0.34521 0.42135 0.0
Tb84 Tb 0.7898 0.22139 0.24002 0.0
C85 C 0.73016 0.28053 0.33115 0.0
C86 C 0.67101 0.23885 0.32308 0.0
C87 C 0.70199 0.27279 0.3788 0.0
C88 C 0.70086 0.25528 0.31049 0.0
C89 C 0.731 0.29015 0.36533 0.0
C90 C 0.67201 0.24716 0.35768 0.0
C91 C 0.78801 0.33483 0.36907 0.0
N92 N 0.7575 0.29656 0.3171 0.0
C93 C 0.78575 0.32446 0.33491 0.0
C94 C 0.76067 0.31735 0.38454 0.0
Tb95 Tb 0.75286 0.27579 0.26237 0.0
N96 N 0.70116 0.24789 0.2774 0.0
C97 C 0.67123 0.22594 0.25448 0.0
C98 C 0.64087 0.2153 0.30022 0.0
C99 C 0.64084 0.20936 0.26553 0.0
H100 H 0.80719 0.3379 0.32335 0.0
H101 H 0.61747 0.19184 0.24723 0.0
H102 H 0.64951 0.23448 0.36803 0.0
H103 H 0.81087 0.35622 0.38347 0.0
H104 H 0.67033 0.22063 0.22761 0.0
H105 H 0.92687 0.30009 0.25813 0.0
H106 H 0.61736 0.20221 0.30881 0.0
H107 H 0.73244 0.1628 0.17767 0.0
H108 H 0.87213 0.27693 0.27492 0.0
H109 H 0.72991 0.13976 0.12012 0.0
H110 H 0.7022 0.27952 0.40516 0.0
H111 H 0.92956 0.28134 0.20085 0.0
H112 H 0.89917 0.24337 0.14499 0.0
H113 H 0.76242 0.32548 0.41095 0.0
H114 H 0.84544 0.2006 0.10687 0.0
N115 N 0.84231 0.24682 0.22644 0.0
C116 C 0.87216 0.26881 0.24944 0.0
C117 C 0.90505 0.2714 0.20781 0.0
C118 C 0.87492 0.24757 0.18515 0.0
C119 C 0.90364 0.28201 0.24013 0.0
C120 C 0.84354 0.23592 0.19518 0.0
H121 H 0.78205 0.16218 0.09709 0.0
N122 N 0.78448 0.19989 0.18563 0.0
C123 C 0.75357 0.16013 0.13489 0.0
C124 C 0.81354 0.21171 0.17397 0.0
C125 C 0.75501 0.17339 0.16736 0.0
C126 C 0.78302 0.17288 0.12196 0.0
C127 C 0.81372 0.19851 0.14189 0.0
O128 O 0.77721 0.16946 0.24617 0.0
O129 O 0.75454 0.22722 0.26503 0.0
O130 O 0.78161 0.26513 0.31198 0.0
O131 O 0.81974 0.25142 0.291 0.0
O132 O 0.7383 0.18097 0.24126 0.0
O133 O 0.82611 0.20817 0.27599 0.0
O134 O 0.76426 0.32708 0.25262 0.0
O135 O 0.789 0.27074 0.23723 0.0
O136 O 0.76316 0.23503 0.19056 0.0
O137 O 0.72342 0.24446 0.2126 0.0
O138 O 0.80434 0.31598 0.26432 0.0
O139 O 0.71477 0.28702 0.22689 0.0
C140 C 0.73023 0.19797 0.26048 0.0
C141 C 0.79886 0.15987 0.30579 0.0
C142 C 0.82393 0.15046 0.36637 0.0
C143 C 0.82767 0.1657 0.33429 0.0
C144 C 0.79049 0.13018 0.37014 0.0
C145 C 0.76557 0.13908 0.30974 0.0
C146 C 0.76148 0.12473 0.34195 0.0
C147 C 0.81042 0.26092 0.31693 0.0
C148 C 0.80453 0.17605 0.27258 0.0
C149 C 0.84472 0.21044 0.13139 0.0
C150 C 0.87532 0.23471 0.15314 0.0
C151 C 0.81332 0.30007 0.24487 0.0
C152 C 0.74039 0.33134 0.19185 0.0
C153 C 0.71139 0.32017 0.16262 0.0
C154 C 0.71331 0.33379 0.12939 0.0
C155 C 0.74591 0.35706 0.12539 0.0
C156 C 0.77263 0.35434 0.18714 0.0
C157 C 0.77534 0.36671 0.15394 0.0
C158 C 0.73301 0.23647 0.18616 0.0
C159 C 0.73619 0.31876 0.22687 0.0
H160 H 0.85323 0.1822 0.33132 0.0
H161 H 0.78675 0.11783 0.39443 0.0
H162 H 0.74271 0.13384 0.28813 0.0
H163 H 0.73578 0.1089 0.34488 0.0
H164 H 0.68711 0.30117 0.16627 0.0
H165 H 0.7488 0.36892 0.10074 0.0
H166 H 0.7957 0.36301 0.20903 0.0
H167 H 0.80017 0.38476 0.1506 0.0
Tb168 Tb 0.74372 0.74534 0.28109 0.0
C169 C 0.8224 0.81414 0.17873 0.0
C170 C 0.77539 0.80437 0.12615 0.0
C171 C 0.82914 0.85547 0.13372 0.0
C172 C 0.78905 0.79438 0.15924 0.0
C173 C 0.84326 0.84434 0.16568 0.0
C174 C 0.79522 0.83553 0.114 0.0
C175 C 0.89165 0.84771 0.21414 0.0
N176 N 0.83536 0.80213 0.20904 0.0
C177 C 0.87 0.81745 0.22586 0.0
C178 C 0.8781 0.86154 0.18426 0.0
Tb179 Tb 0.79755 0.75242 0.22544 0.0
N180 N 0.77106 0.76407 0.17142 0.0
C181 C 0.74033 0.74137 0.15063 0.0
C182 C 0.74292 0.78202 0.10559 0.0
C183 C 0.72567 0.75008 0.11756 0.0
H184 H 0.88064 0.80681 0.2489 0.0
H185 H 0.70099 0.73227 0.10145 0.0
H186 H 0.78506 0.84383 0.0888 0.0
H187 H 0.91878 0.86027 0.22808 0.0
H188 H 0.72701 0.71672 0.15972 0.0
H189 H 0.82363 0.74808 0.41266 0.0
H190 H 0.73153 0.78868 0.07997 0.0
H191 H 0.6587 0.69317 0.24977 0.0
H192 H 0.80372 0.7729 0.35858 0.0
H193 H 0.6194 0.63479 0.25804 0.0
H194 H 0.84462 0.87882 0.1234 0.0
H195 H 0.79419 0.68638 0.41949 0.0
H196 H 0.74385 0.63038 0.3966 0.0
H197 H 0.89501 0.88481 0.17506 0.0
H198 H 0.68752 0.59922 0.35403 0.0
N199 N 0.76363 0.72557 0.3337 0.0
C200 C 0.79047 0.74591 0.36073 0.0
C201 C 0.78527 0.69712 0.39546 0.0
C202 C 0.75598 0.67701 0.36911 0.0
C203 C 0.80183 0.73196 0.39177 0.0
C204 C 0.74532 0.69235 0.33847 0.0
H205 H 0.64036 0.60099 0.30287 0.0
N206 N 0.70269 0.69227 0.28829 0.0
C207 C 0.64596 0.64563 0.27398 0.0
C208 C 0.71366 0.67498 0.31476 0.0
C209 C 0.66841 0.67885 0.26956 0.0
C210 C 0.65793 0.62659 0.29915 0.0
C211 C 0.6918 0.64158 0.32074 0.0
O212 O 0.69831 0.75268 0.2751 0.0
O213 O 0.74944 0.75624 0.22694 0.0
O214 O 0.81446 0.80313 0.24939 0.0
O215 O 0.79359 0.7886 0.29941 0.0
O216 O 0.74292 0.79041 0.25512 0.0
O217 O 0.74099 0.77347 0.32163 0.0
O218 O 0.8388 0.73937 0.22645 0.0
O219 O 0.78524 0.73217 0.27459 0.0
O220 O 0.71565 0.70802 0.23593 0.0
O221 O 0.7618 0.7001 0.22877 0.0
O222 O 0.83655 0.75896 0.27494 0.0
O223 O 0.79194 0.71846 0.18501 0.0
C224 C 0.74477 0.78361 0.22456 0.0
C225 C 0.68577 0.76736 0.32572 0.0
C226 C 0.65147 0.79136 0.34626 0.0
C227 C 0.67607 0.79419 0.32774 0.0
C228 C 0.63719 0.76104 0.36305 0.0
C229 C 0.6714 0.73765 0.34284 0.0
C230 C 0.64726 0.73462 0.36149 0.0
C231 C 0.81254 0.81097 0.28061 0.0
C232 C 0.71033 0.77107 0.3048 0.0
C233 C 0.70369 0.62506 0.34935 0.0
C234 C 0.73578 0.64279 0.37356 0.0
C235 C 0.81621 0.74085 0.29387 0.0
C236 C 0.84348 0.7236 0.1719 0.0
C237 C 0.85024 0.69622 0.16339 0.0
C238 C 0.86995 0.69992 0.13892 0.0
C239 C 0.8834 0.73135 0.12391 0.0
C240 C 0.85685 0.75448 0.15608 0.0
C241 C 0.87692 0.75839 0.1325 0.0
C242 C 0.7285 0.68896 0.22522 0.0
C243 C 0.82289 0.71986 0.1975 0.0
H244 H 0.68787 0.81728 0.31485 0.0
H245 H 0.61765 0.75728 0.37686 0.0
H246 H 0.67865 0.71684 0.3416 0.0
H247 H 0.63595 0.7115 0.37447 0.0
H248 H 0.83961 0.67205 0.17504 0.0
H249 H 0.89867 0.73483 0.1051 0.0
H250 H 0.85185 0.77562 0.16184 0.0
H251 H 0.88723 0.78239 0.12056 0.0
Tb252 Tb 0.28081 0.72696 0.25205 0.0
C253 C 0.21507 0.81483 0.16369 0.0
C254 C 0.26376 0.86789 0.16136 0.0
C255 C 0.2107 0.84985 0.11382 0.0
C256 C 0.24856 0.83798 0.17835 0.0
C257 C 0.19543 0.82066 0.13156 0.0
C258 C 0.24484 0.87343 0.12869 0.0
C259 C 0.14657 0.76964 0.1383 0.0
N260 N 0.20131 0.78715 0.18179 0.0
C261 C 0.16714 0.76504 0.17012 0.0
C262 C 0.16087 0.79738 0.11871 0.0
Tb263 Tb 0.23694 0.78168 0.23344 0.0
N264 N 0.26571 0.83177 0.21006 0.0
C265 C 0.29756 0.85572 0.22742 0.0
C266 C 0.29715 0.89161 0.17813 0.0
C267 C 0.31397 0.88565 0.2115 0.0
H268 H 0.15582 0.74335 0.1848 0.0
H269 H 0.33954 0.90413 0.22502 0.0
H270 H 0.25611 0.89616 0.11509 0.0
H271 H 0.11976 0.75169 0.12883 0.0
H272 H 0.31087 0.85163 0.2533 0.0
H273 H 0.17555 0.60472 0.25789 0.0
H274 H 0.30982 0.91489 0.16593 0.0
H275 H 0.36394 0.75804 0.2987 0.0
H276 H 0.20673 0.65484 0.22851 0.0
H277 H 0.39681 0.74955 0.35672 0.0
H278 H 0.19614 0.85473 0.08896 0.0
H279 H 0.2008 0.59726 0.32017 0.0
H280 H 0.25181 0.61719 0.37359 0.0
H281 H 0.14489 0.8009 0.09408 0.0
H282 H 0.3123 0.65661 0.40054 0.0
N283 N 0.24919 0.67732 0.27422 0.0
C284 C 0.21842 0.65246 0.25569 0.0
C285 C 0.21479 0.61959 0.30744 0.0
C286 C 0.24773 0.64348 0.32518 0.0
C287 C 0.20049 0.62367 0.27226 0.0
C288 C 0.26474 0.67219 0.30747 0.0
H289 H 0.36683 0.70566 0.39418 0.0
N290 N 0.31531 0.72024 0.30371 0.0
C291 C 0.36924 0.73398 0.34755 0.0
C292 C 0.2989 0.69434 0.32268 0.0
C293 C 0.35047 0.73869 0.31459 0.0
C294 C 0.35219 0.70928 0.36868 0.0
C295 C 0.31678 0.68847 0.35594 0.0
O296 O 0.29833 0.72653 0.20695 0.0
O297 O 0.27847 0.77091 0.22637 0.0
O298 O 0.22744 0.75491 0.18354 0.0
O299 O 0.23491 0.70724 0.20647 0.0
O300 O 0.32631 0.77424 0.25196 0.0
O301 O 0.29469 0.68757 0.24358 0.0
O302 O 0.19486 0.7809 0.24998 0.0
O303 O 0.24073 0.7387 0.26051 0.0
O304 O 0.29763 0.75795 0.30142 0.0
O305 O 0.27937 0.80094 0.28211 0.0
O306 O 0.19238 0.73522 0.23946 0.0
O307 O 0.24645 0.82126 0.26857 0.0
C308 C 0.3103 0.79014 0.23154 0.0
C309 C 0.33874 0.70328 0.21427 0.0
C310 C 0.37172 0.67806 0.19504 0.0
C311 C 0.34018 0.67588 0.19876 0.0
C312 C 0.40214 0.70767 0.20742 0.0
C313 C 0.36924 0.73288 0.22687 0.0
C314 C 0.40089 0.73485 0.22367 0.0
C315 C 0.22478 0.72371 0.17957 0.0
C316 C 0.30486 0.70039 0.21574 0.0
C317 C 0.29914 0.66125 0.37471 0.0
C318 C 0.26468 0.63881 0.35936 0.0
C319 C 0.20951 0.71982 0.25836 0.0
C320 C 0.19964 0.8341 0.26721 0.0
C321 C 0.18732 0.8377 0.2955 0.0
C322 C 0.17578 0.86304 0.29624 0.0
C323 C 0.17609 0.88456 0.26815 0.0
C324 C 0.19966 0.85531 0.23894 0.0
C325 C 0.18772 0.88043 0.23941 0.0
C326 C 0.29563 0.78689 0.30669 0.0
C327 C 0.2141 0.80928 0.26927 0.0
H328 H 0.31658 0.65313 0.18871 0.0
H329 H 0.42674 0.70961 0.20466 0.0
H330 H 0.3687 0.75447 0.23876 0.0
H331 H 0.42441 0.75755 0.23353 0.0
H332 H 0.18766 0.82144 0.31751 0.0
H333 H 0.1672 0.90434 0.26843 0.0
H334 H 0.20928 0.8528 0.21697 0.0
H335 H 0.18784 0.89694 0.2177 0.0
Tb336 Tb 0.28894 0.72448 0.74711 0.0
C337 C 0.18307 0.75675 0.78955 0.0
C338 C 0.12996 0.74611 0.74371 0.0
C339 C 0.12942 0.74548 0.80549 0.0
C340 C 0.16567 0.75357 0.75381 0.0
C341 C 0.16483 0.75289 0.81564 0.0
C342 C 0.11195 0.74166 0.76968 0.0
C343 C 0.21826 0.76767 0.86059 0.0
N344 N 0.21795 0.76585 0.79882 0.0
C345 C 0.23563 0.77266 0.83419 0.0
C346 C 0.18273 0.75757 0.85136 0.0
Tb347 Tb 0.24216 0.77483 0.75096 0.0
N348 N 0.18401 0.76009 0.72906 0.0
C349 C 0.16838 0.76114 0.69411 0.0
C350 C 0.11353 0.74473 0.70778 0.0
C351 C 0.13286 0.75241 0.68289 0.0
H352 H 0.26318 0.78134 0.84375 0.0
H353 H 0.12051 0.75202 0.65508 0.0
H354 H 0.08462 0.73608 0.76236 0.0
H355 H 0.23255 0.77216 0.88822 0.0
H356 H 0.18315 0.76716 0.67458 0.0
H357 H 0.41733 0.75558 0.83306 0.0
H358 H 0.08612 0.73873 0.69907 0.0
H359 H 0.26525 0.69351 0.66124 0.0
H360 H 0.35321 0.72935 0.81741 0.0
H361 H 0.29 0.70756 0.61036 0.0
H362 H 0.11526 0.74264 0.82524 0.0
H363 H 0.44826 0.78196 0.78722 0.0
H364 H 0.44515 0.79214 0.7227 0.0
H365 H 0.1695 0.75436 0.87201 0.0
H366 H 0.40971 0.77951 0.66093 0.0
N367 N 0.34813 0.74266 0.76374 0.0
C368 C 0.36656 0.74066 0.79719 0.0
C369 C 0.4202 0.77072 0.7803 0.0
C370 C 0.40111 0.76918 0.74531 0.0
C371 C 0.40282 0.75561 0.80618 0.0
C372 C 0.36466 0.75441 0.7378 0.0
H373 H 0.35179 0.74631 0.61873 0.0
N374 N 0.31009 0.73002 0.69763 0.0
C375 C 0.30556 0.72006 0.63615 0.0
C376 C 0.34482 0.74776 0.7033 0.0
C377 C 0.29121 0.71317 0.66517 0.0
C378 C 0.3404 0.74197 0.64096 0.0
C379 C 0.36086 0.75505 0.6751 0.0
O380 O 0.2487 0.67488 0.73827 0.0
O381 O 0.25007 0.72956 0.76772 0.0
O382 O 0.28386 0.78612 0.79727 0.0
O383 O 0.32397 0.76944 0.78512 0.0
O384 O 0.28478 0.71402 0.80141 0.0
O385 O 0.30193 0.68279 0.75168 0.0
O386 O 0.28012 0.8253 0.75403 0.0
O387 O 0.28092 0.76901 0.73196 0.0
O388 O 0.24718 0.71667 0.69869 0.0
O389 O 0.20736 0.72934 0.71683 0.0
O390 O 0.25283 0.79012 0.69833 0.0
O391 O 0.2286 0.8154 0.75488 0.0
C392 C 0.25746 0.71928 0.7983 0.0
C393 C 0.26326 0.63638 0.77555 0.0
C394 C 0.28223 0.62015 0.83516 0.0
C395 C 0.2865 0.64401 0.80916 0.0
C396 C 0.25245 0.58905 0.82769 0.0
C397 C 0.23368 0.60546 0.76859 0.0
C398 C 0.22814 0.58208 0.79478 0.0
C399 C 0.31549 0.78862 0.80287 0.0
C400 C 0.27001 0.6607 0.74783 0.0
C401 C 0.39701 0.77285 0.68228 0.0
C402 C 0.41717 0.78 0.71744 0.0
C403 C 0.27903 0.78255 0.70276 0.0
C404 C 0.25737 0.86209 0.72441 0.0
C405 C 0.23198 0.85018 0.69247 0.0
C406 C 0.2278 0.87212 0.6661 0.0
C407 C 0.25181 0.90654 0.67113 0.0
C408 C 0.28127 0.89624 0.72912 0.0
C409 C 0.27869 0.9183 0.70228 0.0
C410 C 0.21601 0.71596 0.69361 0.0
C411 C 0.25839 0.83848 0.75241 0.0
H412 H 0.3085 0.6685 0.81477 0.0
H413 H 0.24836 0.5696 0.84663 0.0
H414 H 0.21507 0.59933 0.74291 0.0
H415 H 0.2054 0.55807 0.78924 0.0
H416 H 0.21485 0.82361 0.68857 0.0
H417 H 0.24939 0.92462 0.65172 0.0
H418 H 0.30161 0.90579 0.75348 0.0
H419 H 0.29701 0.94477 0.70599 0.0
Tb420 Tb 0.25019 0.25483 0.78454 0.0
C421 C 0.30902 0.3135 0.67851 0.0
C422 C 0.25989 0.30056 0.62765 0.0
C423 C 0.3058 0.35777 0.63885 0.0
C424 C 0.27757 0.29061 0.65849 0.0
C425 C 0.32434 0.34697 0.66797 0.0
C426 C 0.2735 0.33457 0.61874 0.0
C427 C 0.377 0.35468 0.71186 0.0
N428 N 0.32607 0.30197 0.70626 0.0
C429 C 0.36069 0.32125 0.72106 0.0
C430 C 0.35842 0.36797 0.68587 0.0
Tb431 Tb 0.2943 0.24866 0.72336 0.0
N432 N 0.26542 0.25802 0.66806 0.0
C433 C 0.23792 0.23328 0.64489 0.0
C434 C 0.22969 0.27583 0.60612 0.0
C435 C 0.21921 0.24189 0.6143 0.0
H436 H 0.37604 0.31141 0.74064 0.0
H437 H 0.19689 0.22223 0.59686 0.0
H438 H 0.25996 0.34284 0.59557 0.0
H439 H 0.40397 0.37008 0.72469 0.0
H440 H 0.23002 0.2066 0.64926 0.0
H441 H 0.34626 0.25963 0.90422 0.0
H442 H 0.21523 0.28243 0.58234 0.0
H443 H 0.16481 0.21891 0.77105 0.0
H444 H 0.3218 0.28073 0.84894 0.0
H445 H 0.12097 0.17056 0.79279 0.0
H446 H 0.31681 0.38356 0.6308 0.0
H447 H 0.30998 0.20473 0.92468 0.0
H448 H 0.25082 0.15635 0.91736 0.0
H449 H 0.37116 0.3938 0.67859 0.0
H450 H 0.18859 0.13194 0.88675 0.0
N451 N 0.27398 0.23753 0.83676 0.0
C452 C 0.30647 0.25653 0.85712 0.0
C453 C 0.29957 0.21374 0.90009 0.0
C454 C 0.2651 0.19597 0.88079 0.0
C455 C 0.32007 0.24475 0.8887 0.0
C456 C 0.25291 0.209 0.84908 0.0
H457 H 0.13961 0.13761 0.84058 0.0
N458 N 0.20761 0.21165 0.80425 0.0
C459 C 0.14826 0.17705 0.80386 0.0
C460 C 0.21821 0.1955 0.83214 0.0
C461 C 0.17312 0.20436 0.79158 0.0
C462 C 0.15888 0.15843 0.83073 0.0
C463 C 0.19429 0.16827 0.84602 0.0
O464 O 0.21764 0.27946 0.78424 0.0
O465 O 0.26345 0.27331 0.73526 0.0
O466 O 0.33161 0.28188 0.76948 0.0
O467 O 0.29567 0.30193 0.78413 0.0
O468 O 0.2124 0.25465 0.73622 0.0
O469 O 0.26407 0.29153 0.82563 0.0
O470 O 0.34248 0.24703 0.72824 0.0
O471 O 0.28998 0.23918 0.77775 0.0
O472 O 0.21767 0.20505 0.75676 0.0
O473 O 0.24235 0.20821 0.70981 0.0
O474 O 0.28445 0.19986 0.74693 0.0
O475 O 0.29771 0.21679 0.68719 0.0
C476 C 0.23356 0.27035 0.71719 0.0
C477 C 0.21763 0.29781 0.83989 0.0
C478 C 0.18244 0.32094 0.85965 0.0
C479 C 0.19897 0.3181 0.83431 0.0
C480 C 0.18458 0.30295 0.89044 0.0
C481 C 0.21893 0.27969 0.87059 0.0
C482 C 0.2025 0.28234 0.89569 0.0
C483 C 0.32683 0.30564 0.78396 0.0
C484 C 0.23634 0.29678 0.81396 0.0
C485 C 0.20648 0.15321 0.8759 0.0
C486 C 0.24192 0.16708 0.89332 0.0
C487 C 0.28806 0.20888 0.77898 0.0
C488 C 0.3522 0.22745 0.67819 0.0
C489 C 0.36255 0.20113 0.67617 0.0
C490 C 0.38397 0.20277 0.65416 0.0
C491 C 0.39441 0.23135 0.63388 0.0
C492 C 0.36265 0.25543 0.65759 0.0
C493 C 0.38367 0.25728 0.63551 0.0
C494 C 0.21759 0.19364 0.72617 0.0
C495 C 0.33021 0.22449 0.70186 0.0
H496 H 0.19788 0.33212 0.81062 0.0
H497 H 0.17187 0.30437 0.91022 0.0
H498 H 0.23286 0.26373 0.87533 0.0
H499 H 0.20371 0.26841 0.91938 0.0
H500 H 0.35357 0.17924 0.69165 0.0
H501 H 0.41143 0.23411 0.61718 0.0
H502 H 0.35462 0.27572 0.65862 0.0
H503 H 0.39194 0.27905 0.61976 0.0
Tb504 Tb 0.78607 0.21075 0.75105 0.0
C505 C 0.73377 0.31074 0.66828 0.0
C506 C 0.78306 0.36489 0.67187 0.0
C507 C 0.73315 0.34905 0.62084 0.0
C508 C 0.76661 0.33346 0.68597 0.0
C509 C 0.71618 0.31866 0.63604 0.0
C510 C 0.76659 0.37212 0.63871 0.0
C511 C 0.66528 0.26773 0.63824 0.0
N512 N 0.7182 0.28175 0.68396 0.0
C513 C 0.6839 0.26081 0.67007 0.0
C514 C 0.68166 0.29646 0.62081 0.0
Tb515 Tb 0.75036 0.27383 0.73699 0.0
N516 N 0.78126 0.32585 0.71828 0.0
C517 C 0.81099 0.35 0.73924 0.0
C518 C 0.81484 0.38865 0.69219 0.0
C519 C 0.82856 0.38139 0.72629 0.0
H520 H 0.67093 0.23839 0.68302 0.0
H521 H 0.85263 0.39996 0.74267 0.0
H522 H 0.77899 0.39595 0.62723 0.0
H523 H 0.6384 0.25074 0.62702 0.0
H524 H 0.82169 0.34489 0.76584 0.0
H525 H 0.67081 0.09487 0.74757 0.0
H526 H 0.82836 0.41307 0.68231 0.0
H527 H 0.86676 0.22887 0.79597 0.0
H528 H 0.7076 0.14637 0.72351 0.0
H529 H 0.897 0.2122 0.85078 0.0
H530 H 0.72025 0.35544 0.59585 0.0
H531 H 0.69276 0.07906 0.80746 0.0
H532 H 0.74313 0.09001 0.86098 0.0
H533 H 0.66719 0.3017 0.59611 0.0
H534 H 0.80534 0.12227 0.88942 0.0
N535 N 0.75017 0.16068 0.76968 0.0
C536 C 0.71784 0.13992 0.7496 0.0
C537 C 0.70914 0.10179 0.79701 0.0
C538 C 0.74316 0.1216 0.8162 0.0
C539 C 0.69673 0.11055 0.76316 0.0
C540 C 0.76327 0.15097 0.80137 0.0
H541 H 0.86335 0.16752 0.88532 0.0
N542 N 0.81634 0.19517 0.80017 0.0
C543 C 0.86901 0.20002 0.84186 0.0
C544 C 0.79783 0.16898 0.8173 0.0
C545 C 0.85173 0.20945 0.81078 0.0
C546 C 0.84993 0.17489 0.86135 0.0
C547 C 0.81388 0.15835 0.8486 0.0
O548 O 0.82291 0.21214 0.72518 0.0
O549 O 0.78991 0.25919 0.73195 0.0
O550 O 0.74395 0.25203 0.68462 0.0
O551 O 0.74265 0.2003 0.70382 0.0
O552 O 0.83533 0.25377 0.75131 0.0
O553 O 0.77308 0.16959 0.71598 0.0
O554 O 0.70856 0.271 0.75527 0.0
O555 O 0.74949 0.22772 0.76019 0.0
O556 O 0.80352 0.23811 0.80263 0.0
O557 O 0.7929 0.28669 0.78656 0.0
O558 O 0.70293 0.22881 0.73906 0.0
O559 O 0.7581 0.31397 0.77132 0.0
C560 C 0.82242 0.27466 0.7377 0.0
C561 C 0.81954 0.15957 0.70942 0.0
C562 C 0.84319 0.13279 0.67751 0.0
C563 C 0.82491 0.15235 0.67777 0.0
C564 C 0.85596 0.12021 0.70911 0.0
C565 C 0.8314 0.14624 0.74081 0.0
C566 C 0.84974 0.12669 0.74062 0.0
C567 C 0.73805 0.22009 0.678 0.0
C568 C 0.80306 0.18246 0.70897 0.0
C569 C 0.79364 0.13057 0.86502 0.0
C570 C 0.75823 0.1122 0.84883 0.0
C571 C 0.71764 0.21078 0.75676 0.0
C572 C 0.70776 0.32294 0.76633 0.0
C573 C 0.70352 0.33694 0.79531 0.0
C574 C 0.68179 0.35408 0.78995 0.0
C575 C 0.66459 0.35679 0.75487 0.0
C576 C 0.69162 0.32745 0.73185 0.0
C577 C 0.67011 0.34421 0.72618 0.0
C578 C 0.80672 0.2692 0.80957 0.0
C579 C 0.72583 0.30065 0.77239 0.0
H580 H 0.81559 0.16261 0.65347 0.0
H581 H 0.87027 0.10505 0.70926 0.0
H582 H 0.82675 0.15105 0.76532 0.0
H583 H 0.85922 0.11669 0.7649 0.0
H584 H 0.71681 0.33394 0.82182 0.0
H585 H 0.64624 0.36808 0.74922 0.0
H586 H 0.69456 0.31711 0.70923 0.0
H587 H 0.65696 0.3467 0.69943 0.0
Tb588 Tb 0.7528 0.71763 0.71133 0.0
C589 C 0.85212 0.82215 0.83538 0.0
C590 C 0.85507 0.78812 0.88595 0.0
C591 C 0.90343 0.8424 0.88509 0.0
C592 C 0.8375 0.79287 0.85192 0.0
C593 C 0.88497 0.84765 0.85199 0.0
C594 C 0.88848 0.81265 0.90206 0.0
C595 C 0.8774 0.88277 0.80361 0.0
N596 N 0.83317 0.8264 0.80373 0.0
C597 C 0.84481 0.85683 0.78837 0.0
C598 C 0.89778 0.87803 0.83536 0.0
Tb599 Tb 0.78029 0.7821 0.78055 0.0
N600 N 0.80498 0.7702 0.83573 0.0
C601 C 0.78739 0.7436 0.85362 0.0
C602 C 0.83796 0.75962 0.90331 0.0
C603 C 0.80371 0.73762 0.88734 0.0
H604 H 0.82945 0.86129 0.76405 0.0
H605 H 0.78982 0.71604 0.90097 0.0
H606 H 0.90252 0.80933 0.92806 0.0
H607 H 0.8867 0.90648 0.7909 0.0
H608 H 0.76077 0.72655 0.8419 0.0
H609 H 0.74539 0.78609 0.59224 0.0
H610 H 0.8505 0.75503 0.92949 0.0
H611 H 0.70394 0.6377 0.7246 0.0
H612 H 0.77386 0.77394 0.65068 0.0
H613 H 0.64636 0.5931 0.69695 0.0
H614 H 0.92882 0.86156 0.89819 0.0
H615 H 0.68429 0.74857 0.56338 0.0
H616 H 0.63146 0.69465 0.56385 0.0
H617 H 0.9229 0.89826 0.84725 0.0
H618 H 0.60448 0.6416 0.5923 0.0
N619 N 0.729 0.73063 0.65621 0.0
C620 C 0.74713 0.75736 0.63878 0.0
C621 C 0.6966 0.74319 0.58927 0.0
C622 C 0.67897 0.71444 0.60602 0.0
C623 C 0.7311 0.76434 0.60542 0.0
C624 C 0.69627 0.7087 0.6397 0.0
H625 H 0.61011 0.60317 0.64172 0.0
N626 N 0.70018 0.67379 0.6865 0.0
C627 C 0.65577 0.61726 0.68505 0.0
C628 C 0.68129 0.67903 0.65541 0.0
C629 C 0.6885 0.64278 0.70072 0.0
C630 C 0.63534 0.62306 0.65395 0.0
C631 C 0.64831 0.65403 0.63833 0.0
O632 O 0.7687 0.67785 0.71299 0.0
O633 O 0.78355 0.73621 0.76525 0.0
O634 O 0.82729 0.7897 0.7656 0.0
O635 O 0.79992 0.76256 0.70912 0.0
O636 O 0.75474 0.68537 0.75586 0.0
O637 O 0.78262 0.71738 0.67709 0.0
O638 O 0.7627 0.82065 0.77782 0.0
O639 O 0.74896 0.76316 0.72677 0.0
O640 O 0.70607 0.70889 0.72725 0.0
O641 O 0.73322 0.73732 0.78332 0.0
O642 O 0.77824 0.81403 0.73581 0.0
O643 O 0.75311 0.78403 0.81718 0.0
C644 C 0.7771 0.70815 0.78005 0.0
C645 C 0.78103 0.66452 0.66195 0.0
C646 C 0.80643 0.63265 0.63795 0.0
C647 C 0.80904 0.65637 0.66316 0.0
C648 C 0.77496 0.61717 0.61167 0.0
C649 C 0.75 0.64868 0.63569 0.0
C650 C 0.74704 0.62505 0.61073 0.0
C651 C 0.82793 0.78149 0.73383 0.0
C652 C 0.78495 0.68956 0.68852 0.0
C653 C 0.63 0.66034 0.60572 0.0
C654 C 0.64533 0.69054 0.58956 0.0
C655 C 0.75554 0.79118 0.71186 0.0
C656 C 0.75447 0.83769 0.82959 0.0
C657 C 0.72559 0.84101 0.83523 0.0
C658 C 0.73028 0.86842 0.85685 0.0
C659 C 0.76397 0.89224 0.87295 0.0
C660 C 0.78797 0.86147 0.84636 0.0
C661 C 0.79262 0.88862 0.86789 0.0
C662 C 0.70552 0.71701 0.7591 0.0
C663 C 0.74901 0.81069 0.80434 0.0
H664 H 0.83272 0.66837 0.68401 0.0
H665 H 0.77199 0.59938 0.59134 0.0
H666 H 0.7282 0.65464 0.63444 0.0
H667 H 0.72307 0.61297 0.59034 0.0
H668 H 0.6996 0.82268 0.82245 0.0
H669 H 0.76807 0.91342 0.88981 0.0
H670 H 0.81047 0.85935 0.84249 0.0
H671 H 0.81853 0.90701 0.8806 0.0
Cd672 Cd 0.97799 0.95655 0.52559 0.0
Cd673 Cd 0.05895 0.04647 0.46987 0.0
C674 C 0.04386 0.9432 0.52719 0.0
N675 N 1.00934 0.93015 0.51153 0.0
C676 C 1.00994 0.87886 0.49303 0.0
C677 C 0.04536 0.89145 0.51028 0.0
C678 C 0.06251 0.92446 0.52643 0.0
C679 C 0.99226 0.89899 0.49384 0.0
H680 H 0.05682 0.96707 0.54254 0.0
H681 H 0.96455 0.88891 0.48252 0.0
C682 C 0.97616 0.99194 0.43667 0.0
C683 C 0.02162 0.07615 0.50406 0.0
C684 C 1.00849 0.09863 0.51015 0.0
C685 C 0.02696 0.13331 0.50669 0.0
C686 C 0.06033 0.14516 0.50149 0.0
C687 C 0.07337 0.12162 0.49731 0.0
N688 N 0.05333 0.08785 0.49767 0.0
H689 H 1.00517 0.04921 0.50141 0.0
H690 H 0.09752 0.12992 0.48992 0.0
C691 C 0.05694 0.97827 0.44925 0.0
N692 N 0.08043 0.00632 0.4703 0.0
C693 C 0.12405 0.98565 0.4785 0.0
C694 C 0.10057 0.9572 0.45519 0.0
C695 C 0.06641 0.95335 0.44132 0.0
C696 C 0.11337 0.0103 0.48563 0.0
H697 H 0.0311 0.97594 0.43715 0.0
H698 H 0.13158 0.03309 0.50206 0.0
C699 C 0.04489 0.01972 0.55136 0.0
C700 C 0.94427 0.90784 0.56827 0.0
N701 N 0.9491 0.99062 0.52506 0.0
C702 C 0.95626 0.00562 0.55747 0.0
C703 C 0.94291 0.02858 0.5617 0.0
C704 C 0.92176 0.03615 0.53222 0.0
C705 C 0.91407 0.0198 0.49915 0.0
C706 C 0.928 0.99684 0.49619 0.0
C707 C 0.08184 0.08185 0.41385 0.0
O708 O 0.97669 0.9798 0.46698 0.0
O709 O 1.00252 0.01686 0.43154 0.0
O710 O 0.04004 0.01479 0.5184 0.0
O711 O 0.02603 0.99664 0.56728 0.0
O712 O 0.93311 0.90182 0.53471 0.0
O713 O 0.96968 0.93588 0.58033 0.0
O714 O 0.10412 0.0832 0.44284 0.0
O715 O 0.04989 0.06469 0.41212 0.0
H716 H 0.97256 -0.00019 0.58016 0.0
H717 H 0.92194 0.98431 0.47086 0.0
H718 H 0.99588 0.85326 0.48079 0.0
H719 H 0.08957 0.93475 0.54097 0.0
H720 H 0.98212 0.08857 0.51254 0.0
H721 H 0.07448 0.17169 0.49724 0.0
H722 H 0.15058 0.98937 0.49006 0.0
H723 H 0.04753 0.93231 0.4228 0.0
H724 H 0.94858 0.03976 0.58798 0.0
H725 H 0.89758 0.02476 0.47589 0.0
Cd726 Cd 0.51459 0.95685 0.05471 0.0
Cd727 Cd 0.51966 0.03164 0.93998 0.0
C728 C 0.57821 0.93934 0.10745 0.0
N729 N 0.55781 0.93377 0.07355 0.0
C730 C 0.57725 0.8919 0.06205 0.0
C731 C 0.59788 0.89628 0.09718 0.0
C732 C 0.59859 0.92108 0.11971 0.0
C733 C 0.55742 0.91073 0.05087 0.0
H734 H 0.57768 0.95703 0.12556 0.0
H735 H 0.54068 0.90601 0.02426 0.0
C736 C 0.47685 0.95562 0.96492 0.0
C737 C 0.45506 0.04942 0.88929 0.0
C738 C 0.43457 0.06767 0.87738 0.0
C739 C 0.43769 0.09443 0.899 0.0
C740 C 0.46094 0.10085 0.933 0.0
C741 C 0.48084 0.08204 0.94383 0.0
N742 N 0.47802 0.05699 0.92197 0.0
H743 H 0.45339 0.02992 0.87182 0.0
H744 H 0.49938 0.08818 0.9695 0.0
C745 C 0.53471 0.98317 0.88938 0.0
N746 N 0.53977 0.99344 0.92349 0.0
C747 C 0.57726 0.96557 0.94443 0.0
C748 C 0.57287 0.95479 0.90958 0.0
C749 C 0.55131 0.96388 0.88178 0.0
C750 C 0.56074 0.98519 0.95073 0.0
H751 H 0.51848 0.99059 0.86803 0.0
H752 H 0.56528 0.99453 0.97747 0.0
C753 C 0.55594 0.04109 0.03887 0.0
C754 C 0.46039 0.90401 0.07647 0.0
N755 N 0.49298 0.99044 0.07866 0.0
C756 C 0.50673 0.00654 0.11159 0.0
C757 C 0.49125 0.02492 0.12353 0.0
C758 C 0.46097 0.02641 0.10165 0.0
C759 C 0.44751 0.00935 0.06784 0.0
C760 C 0.46398 0.99165 0.05688 0.0
C761 C 0.56986 0.0776 0.90763 0.0
O762 O 0.50248 0.96704 0.99183 0.0
O763 O 0.47567 0.97377 0.93832 0.0
O764 O 0.54132 0.03318 0.00596 0.0
O765 O 0.55217 0.01794 0.0611 0.0
O766 O 0.45668 0.90954 0.04364 0.0
O767 O 0.48944 0.92196 0.09767 0.0
O768 O 0.57557 0.07678 0.94114 0.0
O769 O 0.5399 0.05796 0.88917 0.0
H770 H 0.52973 0.0052 0.12859 0.0
H771 H 0.4533 0.97836 0.03097 0.0
H772 H 0.57595 0.87364 0.04326 0.0
H773 H 0.61356 0.92535 0.14709 0.0
H774 H 0.41748 0.06169 0.85088 0.0
H775 H 0.46416 0.12061 0.9512 0.0
H776 H 0.59409 0.95967 0.96661 0.0
H777 H 0.54725 0.95607 0.85453 0.0
H778 H 0.50308 0.03797 0.14958 0.0
H779 H 0.42398 0.00896 0.05011 0.0
Cd780 Cd 0.01666 0.46559 0.05629 0.0
Cd781 Cd 0.01534 0.53502 0.9349 0.0
C782 C 0.08077 0.44685 0.10498 0.0
N783 N 0.05699 0.43843 0.07279 0.0
C784 C 0.07161 0.39222 0.06369 0.0
C785 C 0.09573 0.3996 0.09726 0.0
C786 C 0.10045 0.42795 0.1176 0.0
C787 C 0.05251 0.41175 0.05211 0.0
H788 H 0.08366 0.46757 0.12163 0.0
H789 H 0.03323 0.40482 0.02691 0.0
C790 C 0.9704 0.45591 0.96238 0.0
C791 C 0.96797 0.57087 0.88142 0.0
C792 C 0.94633 0.588 0.86989 0.0
C793 C 0.93083 0.59596 0.89345 0.0
C794 C 0.93847 0.58628 0.9286 0.0
C795 C 0.96022 0.56924 0.93901 0.0
N796 N 0.97455 0.56163 0.91552 0.0
H797 H 0.97966 0.56508 0.86293 0.0
H798 H 0.96594 0.56241 0.96613 0.0
C799 C 0.02369 0.49113 0.87303 0.0
N800 N 0.0274 0.49511 0.90834 0.0
C801 C 0.05589 0.45778 0.9209 0.0
C802 C 0.05383 0.45406 0.88477 0.0
C803 C 0.03692 0.47079 0.86065 0.0
C804 C 0.04301 0.4788 0.9321 0.0
H805 H 1.01175 0.50478 0.85457 0.0
H806 H 0.0462 0.48277 0.96008 0.0
C807 C 0.06265 0.54089 0.02809 0.0
C808 C 0.97503 0.42717 0.10118 0.0
N809 N 0.99596 0.50422 0.07041 0.0
C810 C 1.01264 0.53017 0.09603 0.0
C811 C 0.99635 0.5505 0.10191 0.0
C812 C 0.96267 0.5439 0.08127 0.0
C813 C 0.94607 0.51632 0.05578 0.0
C814 C 0.96322 0.49695 0.05072 0.0
C815 C 0.07419 0.58356 0.91406 0.0
O816 O 0.99158 0.46771 0.99235 0.0
O817 O 0.97121 0.47516 0.93639 0.0
O818 O 0.03817 0.52963 -0.00021 0.0
O819 O 0.06238 0.52223 0.05453 0.0
O820 O 0.96461 0.41849 0.06804 0.0
O821 O 1.00452 0.45202 0.11216 0.0
O822 O 0.07464 0.5786 0.94647 0.0
O823 O 0.04577 0.56692 0.89131 0.0
H824 H 0.0385 0.53516 0.11181 0.0
H825 H 0.95026 0.47574 0.0311 0.0
H826 H 0.0671 0.37119 0.04642 0.0
H827 H 0.11819 0.43478 0.14375 0.0
H828 H 0.94137 0.59441 0.84253 0.0
H829 H 0.9281 0.59219 0.94835 0.0
H830 H 0.06773 0.44493 0.94064 0.0
H831 H 0.03497 0.46928 0.83261 0.0
H832 H 1.01021 0.57149 0.12182 0.0
H833 H 0.91985 0.50956 0.03982 0.0
Cd834 Cd 0.48637 0.46815 0.04003 0.0
Cd835 Cd 0.53933 0.53162 0.95454 0.0
C836 C 0.52065 0.42105 0.05299 0.0
N837 N 0.50527 0.43126 0.02293 0.0
C838 C 0.51517 0.39513 0.98735 0.0
C839 C 0.53016 0.38321 0.0183 0.0
C840 C 0.53369 0.39743 0.05136 0.0
C841 C 0.50318 0.41982 0.99031 0.0
H842 H 0.52291 0.4316 0.07843 0.0
H843 H 0.49222 0.42956 0.96672 0.0
C844 C 0.46372 0.4845 0.95045 0.0
C845 C 0.5049 0.58046 0.93434 0.0
C846 C 0.48681 0.5998 0.93512 0.0
C847 C 0.48214 0.607 0.9675 0.0
C848 C 0.49738 0.59577 -0.0013 0.0
C849 C 0.51522 0.57619 -0.00345 0.0
N850 N 0.51779 0.56846 0.96459 0.0
H851 H 0.50719 0.57343 0.90932 0.0
H852 H 0.52567 0.56602 0.01995 0.0
C853 C 0.54307 0.46925 0.92095 0.0
N854 N 0.55852 0.49042 0.95069 0.0
C855 C 0.60461 0.47267 0.96606 0.0
C856 C 0.59049 0.45247 0.93423 0.0
C857 C 0.55871 0.44986 0.91216 0.0
C858 C 0.58821 0.49195 0.97366 0.0
H859 H 0.51983 0.46919 0.90294 0.0
H860 H 0.60035 0.50981 -0.00343 0.0
C861 C 0.5622 0.52095 0.04838 0.0
C862 C 0.45594 0.42531 0.08886 0.0
N863 N 0.45541 0.4989 0.04065 0.0
C864 C 0.47332 0.53001 0.0582 0.0
C865 C 0.4557 0.54654 0.06843 0.0
C866 C 0.41956 0.53009 0.06161 0.0
C867 C 0.40156 0.49851 0.04234 0.0
C868 C 0.42025 0.48324 0.0318 0.0
C869 C 0.57845 0.57675 0.91303 0.0
O870 O 0.4829 0.48915 0.9816 0.0
O871 O 0.47805 0.4998 0.92646 0.0
O872 O 0.54686 0.51849 0.01597 0.0
O873 O 0.54505 0.50399 0.06968 0.0
O874 O 0.44504 0.41574 0.056 0.0
O875 O 0.47997 0.45492 0.09829 0.0
O876 O 0.5867 0.58308 0.9464 0.0
O877 O 0.55339 0.54868 0.89986 0.0
H878 H 0.50129 0.54073 0.06659 0.0
H879 H 0.407 0.45784 0.01909 0.0
H880 H 0.51271 0.38555 0.96132 0.0
H881 H 0.54696 0.39097 0.07604 0.0
H882 H 0.47471 0.60702 0.91022 0.0
H883 H 0.4943 0.60087 0.02409 0.0
H884 H 0.62924 0.47546 0.98346 0.0
H885 H 0.54705 0.43432 0.88747 0.0
H886 H 0.47026 0.57058 0.08401 0.0
H887 H 0.37367 0.4851 0.03728 0.0
Cd888 Cd 0.0231 0.46793 0.56777 0.0
Cd889 Cd 0.019 0.53524 0.44484 0.0
C890 C 0.10123 0.4635 0.58874 0.0
N891 N 0.06659 0.44474 0.58443 0.0
C892 C 0.07748 0.39594 0.60533 0.0
C893 C 0.11354 0.4146 0.61057 0.0
C894 C 0.12501 0.44893 0.6015 0.0
C895 C 0.05464 0.4114 0.59227 0.0
H896 H 0.11063 0.49 0.58279 0.0
H897 H 0.02716 0.39679 0.58921 0.0
C898 C 0.97858 0.45322 0.47091 0.0
C899 C 0.96136 0.55993 0.39135 0.0
C900 C 0.94143 0.57884 0.38017 0.0
C901 C 0.93597 0.59686 0.40522 0.0
C902 C 0.94979 0.59353 0.44134 0.0
C903 C 0.96953 0.57446 0.45133 0.0
N904 N 0.97547 0.55837 0.42649 0.0
H905 H 0.96682 0.54774 0.37173 0.0
H906 H 0.98127 0.57364 0.47908 0.0
C907 C 0.02511 0.48567 0.38626 0.0
N908 N 0.0374 0.49879 0.42044 0.0
C909 C 0.08018 0.47627 0.43116 0.0
C910 C 0.06872 0.46298 0.39583 0.0
C911 C 0.0404 0.46759 0.37341 0.0
C912 C 0.06419 0.4941 0.44285 0.0
H913 H 1.00397 0.48986 0.36874 0.0
H914 H 0.07384 0.50512 0.46976 0.0
C915 C 0.05848 0.54504 0.53838 0.0
C916 C 0.98178 0.42782 0.61205 0.0
N917 N 1.00092 0.50433 0.58416 0.0
C918 C 0.01508 0.52347 0.61541 0.0
C919 C 0.99877 0.54196 0.62525 0.0
C920 C 0.96752 0.54054 0.60288 0.0
C921 C 0.95355 0.52049 0.57088 0.0
C922 C 0.97075 0.50255 0.56202 0.0
C923 C 0.06978 0.58443 0.41522 0.0
O924 O 0.99537 0.46181 0.5032 0.0
O925 O 0.98159 0.4754 0.44762 0.0
O926 O 0.03947 0.52949 0.50878 0.0
O927 O 0.06081 0.52831 0.56598 0.0
O928 O 0.97054 0.42219 0.57848 0.0
O929 O 1.01256 0.45017 0.62414 0.0
O930 O 0.07439 0.58418 0.44875 0.0
O931 O 0.04119 0.5628 0.3963 0.0
H932 H 0.03873 0.52397 0.63293 0.0
H933 H 0.95968 0.48663 0.53768 0.0
H934 H 0.06677 0.36975 0.61221 0.0
H935 H 0.15223 0.46468 0.60418 0.0
H936 H 0.93187 0.58062 0.35209 0.0
H937 H 0.94607 0.60621 0.46198 0.0
H938 H 0.10213 0.47402 0.44945 0.0
H939 H 0.03023 0.45751 0.34611 0.0
H940 H 1.0101 0.55665 0.65043 0.0
H941 H 0.92962 0.51877 0.55278 0.0
Cd942 Cd 0.5157 0.96182 0.55518 0.0
Cd943 Cd 0.51377 0.03197 0.434 0.0
C944 C 0.59181 0.95396 0.57817 0.0
N945 N 0.55697 0.93554 0.57268 0.0
C946 C 0.56666 0.88562 0.59199 0.0
C947 C 0.60276 0.90379 0.59746 0.0
C948 C 0.61499 0.93867 0.59045 0.0
C949 C 0.54435 0.90191 0.57962 0.0
H950 H 0.60184 0.98076 0.57344 0.0
H951 H 0.51673 0.88751 0.57577 0.0
C952 C 0.46637 0.95707 0.46415 0.0
C953 C 0.44301 0.04204 0.38995 0.0
C954 C 0.42028 0.05751 0.37638 0.0
C955 C 0.42847 0.09102 0.38805 0.0
C956 C 0.46038 0.10809 0.41322 0.0
C957 C 0.48242 0.09157 0.42625 0.0
N958 N 0.47342 0.0589 0.4148 0.0
H959 H 0.43642 0.01652 0.38029 0.0
H960 H 0.50692 0.10505 0.44545 0.0
C961 C 0.51393 0.97732 0.37753 0.0
N962 N 0.52618 0.98998 0.41184 0.0
C963 C 0.56294 0.96052 0.42442 0.0
C964 C 0.55177 0.9479 0.38891 0.0
C965 C 0.52644 0.95616 0.36547 0.0
C966 C 0.54988 0.98162 0.43527 0.0
H967 H 0.4953 0.9845 0.35925 0.0
H968 H 0.55959 0.99233 0.46228 0.0
C969 C 0.56329 0.03944 0.5275 0.0
C970 C 0.46641 0.91602 0.58972 0.0
N971 N 0.50322 0.00262 0.57919 0.0
C972 C 0.51868 0.01738 0.61264 0.0
C973 C 0.50711 0.03872 0.62595 0.0
C974 C 0.47929 0.04486 0.6047 0.0
C975 C 0.46445 0.02972 0.57003 0.0
C976 C 0.4768 0.00864 0.55786 0.0
C977 C 0.56621 0.07728 0.40327 0.0
O978 O 0.49163 0.96747 0.49166 0.0
O979 O 0.46666 0.97567 0.43771 0.0
O980 O 0.53999 0.02926 0.4983 0.0
O981 O 0.5615 0.01967 0.5531 0.0
O982 O 0.4585 0.91509 0.5559 0.0
O983 O 0.49659 0.93724 0.60594 0.0
O984 O 0.56943 0.07932 0.43653 0.0
O985 O 0.53797 0.05503 0.38444 0.0
H986 H 0.53947 0.01202 0.62924 0.0
H987 H 0.46462 0.99623 0.53154 0.0
H988 H 0.55552 0.85881 0.59663 0.0
H989 H 0.64246 0.95441 0.59484 0.0
H990 H 0.39639 0.04322 0.35664 0.0
H991 H 0.46798 0.13374 0.42334 0.0
H992 H 0.58267 0.95533 0.44343 0.0
H993 H 0.51666 0.94671 0.33796 0.0
H994 H 0.51973 0.05013 0.65267 0.0
H995 H 0.44268 0.03314 0.55277 0.0
H996 H 0.20285 0.15307 0.28484 0.0
H997 H 0.13697 0.20119 0.23206 0.0
H998 H 0.09325 0.16706 0.26437 0.0
H999 H 0.1328 0.06754 0.2992 0.0
H1000 H 0.15986 0.06713 0.34233 0.0
H1001 H 0.17925 0.08612 0.30675 0.0
H1002 H 0.21664 0.14137 0.34666 0.0
H1003 H 0.19645 0.12384 0.38178 0.0
H1004 H 0.19593 0.16283 0.36395 0.0
H1005 H 0.06302 0.13635 0.31041 0.0
H1006 H 0.04762 0.11072 0.36494 0.0
H1007 H 0.13803 0.08864 0.39187 0.0
C1008 C 0.17834 0.15475 0.27874 0.0
C1009 C 0.17254 0.17867 0.25565 0.0
C1010 C 0.14105 0.18197 0.249 0.0
C1011 C 0.11635 0.16288 0.26739 0.0
C1012 C 0.12404 0.14105 0.29215 0.0
C1013 C 0.15421 0.1366 0.29748 0.0
C1014 C 0.15978 0.11686 0.32967 0.0
C1015 C 0.15778 0.08235 0.31883 0.0
C1016 C 0.19421 0.13749 0.35711 0.0
C1017 C 0.12904 0.11247 0.34291 0.0
C1018 C 0.10816 0.12561 0.32039 0.0
C1019 C 0.07891 0.12557 0.32792 0.0
C1020 C 0.07056 0.11128 0.35899 0.0
C1021 C 0.092 0.09825 0.38249 0.0
C1022 C 0.12157 0.09891 0.37442 0.0
H1023 H 0.88409 0.1516 0.35835 0.0
H1024 H 0.83439 0.15789 0.43863 0.0
H1025 H 0.88701 0.16398 0.48521 0.0
H1026 H 0.92512 0.10329 0.40392 0.0
H1027 H 0.96345 0.12389 0.38808 0.0
H1028 H 0.9228 0.12241 0.36188 0.0
H1029 H 0.95071 0.18819 0.36065 0.0
H1030 H 0.99143 0.18979 0.3873 0.0
H1031 H 0.97174 0.214 0.40175 0.0
H1032 H 0.94176 0.16213 0.52213 0.0
H1033 H 0.9938 0.15108 0.54681 0.0
H1034 H 1.00944 0.15306 0.44193 0.0
C1035 C 0.88448 0.15536 0.38562 0.0
C1036 C 0.85527 0.15477 0.39481 0.0
C1037 C 0.85644 0.15815 0.43097 0.0
C1038 C 0.88633 0.16206 0.45754 0.0
C1039 C 0.91486 0.16313 0.44736 0.0
C1040 C 0.91412 0.15993 0.41221 0.0
C1041 C 0.94695 0.15917 0.40805 0.0
C1042 C 0.93911 0.12518 0.38942 0.0
C1043 C 0.96635 0.18962 0.38827 0.0
C1044 C 0.96634 0.16217 0.44651 0.0
C1045 C 0.94742 0.16431 0.46884 0.0
C1046 C 0.95766 0.162 0.50529 0.0
C1047 C 0.98733 0.15613 0.51912 0.0
C1048 C 1.0063 0.15297 0.49641 0.0
C1049 C 0.9965 0.1575 0.46001 0.0
H1050 H 0.81617 0.83457 0.34455 0.0
H1051 H 0.84818 0.86733 0.24795 0.0
H1052 H 0.88262 0.92564 0.27524 0.0
H1053 H 0.82209 0.92135 0.37474 0.0
H1054 H 0.83824 0.91362 0.42 0.0
H1055 H 0.80646 0.87865 0.38919 0.0
H1056 H 0.8471 0.84767 0.40377 0.0
H1057 H 0.87851 0.88216 0.43436 0.0
H1058 H 0.8906 0.86927 0.39871 0.0
H1059 H 0.92317 0.97483 0.31623 0.0
H1060 H 0.96996 0.00799 0.36757 0.0
H1061 H 0.91468 0.93982 0.43786 0.0
C1062 C 0.82961 0.85417 0.3287 0.0
C1063 C 0.8303 0.84643 0.29458 0.0
C1064 C 0.84805 0.87268 0.27458 0.0
C1065 C 0.86702 0.906 0.28959 0.0
C1066 C 0.86731 0.91248 0.32423 0.0
C1067 C 0.84877 0.88717 0.34344 0.0
C1068 C 0.85891 0.8981 0.38214 0.0
C1069 C 0.82969 0.90325 0.39209 0.0
C1070 C 0.86946 0.87284 0.40607 0.0
C1071 C 0.88923 0.93166 0.38255 0.0
C1072 C 0.89218 0.94068 0.34871 0.0
C1073 C 0.9206 0.9686 0.34277 0.0
C1074 C 0.94722 0.98703 0.37213 0.0
C1075 C 0.94563 0.97656 0.40675 0.0
C1076 C 0.91595 0.94914 0.41188 0.0
H1077 H 0.20431 0.91867 0.34163 0.0
H1078 H 0.12162 0.81714 0.31908 0.0
H1079 H 0.09901 0.8267 0.3674 0.0
H1080 H 0.21341 0.92066 0.442 0.0
H1081 H 0.22292 0.9653 0.44286 0.0
H1082 H 0.23659 0.94761 0.4121 0.0
H1083 H 0.20422 0.9713 0.36012 0.0
H1084 H 0.19037 0.98871 0.39058 0.0
H1085 H 0.15869 0.95977 0.35414 0.0
H1086 H 0.0792 0.85128 0.40813 0.0
H1087 H 0.06425 0.88817 0.43982 0.0
H1088 H 0.16156 0.97322 0.43819 0.0
C1089 C 0.18193 0.89832 0.34761 0.0
C1090 C 0.16429 0.86743 0.32686 0.0
C1091 C 0.1352 0.84102 0.33497 0.0
C1092 C 0.12246 0.84614 0.36244 0.0
C1093 C 0.13985 0.87739 0.38195 0.0
C1094 C 0.16938 0.90282 0.37535 0.0
C1095 C 0.18111 0.93522 0.39753 0.0
C1096 C 0.21556 0.94262 0.42526 0.0
C1097 C 0.1837 0.9655 0.37419 0.0
C1098 C 0.15174 0.92511 0.41501 0.0
C1099 C 0.12877 0.89137 0.40652 0.0
C1100 C 0.09747 0.87743 0.41584 0.0
C1101 C 0.08906 0.89873 0.43349 0.0
C1102 C 0.11198 0.93357 0.44191 0.0
C1103 C 0.1441 0.9465 0.43334 0.0
H1104 H 0.2208 0.89387 0.5982 0.0
H1105 H 0.16302 0.82287 0.66506 0.0
H1106 H 0.11062 0.80453 0.61688 0.0
H1107 H 0.16558 0.92754 0.5754 0.0
H1108 H 0.16867 0.93629 0.53054 0.0
H1109 H 0.2039 0.93265 0.5626 0.0
H1110 H 0.20043 0.88556 0.52122 0.0
H1111 H 0.16429 0.88901 0.48954 0.0
H1112 H 0.16018 0.84839 0.5064 0.0
H1113 H 0.06231 0.80388 0.57025 0.0
H1114 H 0.02363 0.82894 0.53681 0.0
H1115 H 0.10997 0.9069 0.50511 0.0
C1116 C 0.19734 0.8738 0.60235 0.0
C1117 C 0.19677 0.85909 0.63528 0.0
C1118 C 0.16515 0.83331 0.63968 0.0
C1119 C 0.13485 0.82266 0.61225 0.0
C1120 C 0.13595 0.83858 0.58058 0.0
C1121 C 0.16641 0.86401 0.57563 0.0
C1122 C 0.15916 0.88365 0.54388 0.0
C1123 C 0.1752 0.92225 0.55374 0.0
C1124 C 0.17178 0.87618 0.51347 0.0
C1125 C 0.12 0.86799 0.53468 0.0
C1126 C 0.10703 0.84035 0.55428 0.0
C1127 C 0.07198 0.82476 0.55385 0.0
C1128 C 0.05009 0.83908 0.53467 0.0
C1129 C 0.06376 0.86929 0.51739 0.0
C1130 C 0.0986 0.88276 0.51615 0.0
H1131 H 0.21534 0.14453 0.68468 0.0
H1132 H 0.15089 0.18249 0.71986 0.0
H1133 H 0.10019 0.14542 0.67358 0.0
H1134 H 0.17804 0.14248 0.59351 0.0
H1135 H 0.18027 0.10387 0.58208 0.0
H1136 H 0.21135 0.13101 0.61999 0.0
H1137 H 0.19504 0.08111 0.66124 0.0
H1138 H 0.16518 0.0535 0.62319 0.0
H1139 H 0.15019 0.05701 0.66093 0.0
H1140 H 0.05794 0.10666 0.62329 0.0
H1141 H 0.02312 0.06013 0.57728 0.0
H1142 H 0.11533 0.04973 0.57133 0.0
C1143 C 0.19027 0.14421 0.68318 0.0
C1144 C 0.18659 0.16572 0.70602 0.0
C1145 C 0.15381 0.16529 0.70329 0.0
C1146 C 0.12512 0.14492 0.67661 0.0
C1147 C 0.13005 0.12544 0.65321 0.0
C1148 C 0.16152 0.12423 0.65666 0.0
C1149 C 0.15976 0.10096 0.62808 0.0
C1150 C 0.18378 0.12078 0.60452 0.0
C1151 C 0.16801 0.07139 0.64433 0.0
C1152 C 0.12211 0.08889 0.60817 0.0
C1153 C 0.10571 0.10381 0.62296 0.0
C1154 C 0.07044 0.09506 0.61118 0.0
C1155 C 0.05097 0.06885 0.58496 0.0
C1156 C 0.067 0.05241 0.57048 0.0
C1157 C 0.10303 0.06308 0.58127 0.0
H1158 H 0.90504 0.14905 0.66391 0.0
H1159 H 0.79437 0.10005 0.61726 0.0
H1160 H 0.80436 0.08132 0.56415 0.0
H1161 H 0.93004 0.17299 0.57619 0.0
H1162 H 0.96801 0.16465 0.59212 0.0
H1163 H 0.95299 0.18129 0.62234 0.0
H1164 H 0.9496 0.13147 0.66229 0.0
H1165 H 0.96513 0.11465 0.63313 0.0
H1166 H 0.92469 0.08835 0.64344 0.0
H1167 H 0.82512 0.05619 0.52552 0.0
H1168 H 0.85465 0.02669 0.50456 0.0
H1169 H 0.95277 0.09557 0.57273 0.0
C1170 C 0.88313 0.13527 0.64188 0.0
C1171 C 0.84909 0.12569 0.64423 0.0
C1172 C 0.82067 0.10758 0.61546 0.0
C1173 C 0.82614 0.09715 0.58521 0.0
C1174 C 0.86017 0.10597 0.58404 0.0
C1175 C 0.88823 0.12515 0.61142 0.0
C1176 C 0.92181 0.12728 0.60611 0.0
C1177 C 0.94456 0.1637 0.5987 0.0
C1178 C 0.94139 0.11464 0.63811 0.0
C1179 C 0.90791 0.10341 0.57346 0.0
C1180 C 0.87242 0.09222 0.56043 0.0
C1181 C 0.85303 0.06566 0.53442 0.0
C1182 C 0.87003 0.04905 0.52262 0.0
C1183 C 0.90593 0.059 0.5371 0.0
C1184 C 0.92528 0.08769 0.56121 0.0
H1185 H 0.86995 0.84849 0.73375 0.0
H1186 H 0.85463 0.74704 0.70524 0.0
H1187 H 0.89015 0.77007 0.66287 0.0
H1188 H 0.85737 0.87484 0.65644 0.0
H1189 H 0.89022 0.91798 0.66307 0.0
H1190 H 0.87445 0.89687 0.69969 0.0
H1191 H 0.93607 0.90684 0.73606 0.0
H1192 H 0.95277 0.92984 0.70042 0.0
H1193 H 0.96276 0.89464 0.71675 0.0
H1194 H 0.90893 0.80021 0.61186 0.0
H1195 H 0.9253 0.83937 0.56468 0.0
H1196 H 0.93231 0.9221 0.62836 0.0
C1197 C 0.87637 0.83162 0.72062 0.0
C1198 C 0.85994 0.79622 0.72261 0.0
C1199 C 0.86731 0.77435 0.70386 0.0
C1200 C 0.88739 0.7872 0.67975 0.0
C1201 C 0.90056 0.82202 0.67563 0.0
C1202 C 0.89679 0.84426 0.69668 0.0
C1203 C 0.90964 0.87983 0.68382 0.0
C1204 C 0.88121 0.8931 0.67524 0.0
C1205 C 0.94226 0.90422 0.71086 0.0
C1206 C 0.91813 0.87328 0.65064 0.0
C1207 C 0.91294 0.83987 0.64646 0.0
C1208 C 0.91451 0.82679 0.61543 0.0
C1209 C 0.92307 0.84888 0.58855 0.0
C1210 C 0.93005 0.88343 0.5933 0.0
C1211 C 0.92745 0.8957 0.62456 0.0
H1212 H 0.34409 0.13046 0.08 0.0
H1213 H 0.35026 0.12237 0.19239 0.0
H1214 H 0.38925 0.09373 0.19757 0.0
H1215 H 0.33954 0.04833 0.06451 0.0
H1216 H 0.36476 0.06154 0.03243 0.0
H1217 H 0.33955 0.08365 0.03814 0.0
H1218 H 0.3945 0.14068 0.05033 0.0
H1219 H 0.41985 0.11876 0.04443 0.0
H1220 H 0.43219 0.14425 0.08479 0.0
H1221 H 0.42505 0.06239 0.18944 0.0
H1222 H 0.45525 0.03294 0.16931 0.0
H1223 H 0.42537 0.06166 0.06216 0.0
C1224 C 0.35345 0.12266 0.10579 0.0
C1225 C 0.34373 0.12874 0.13576 0.0
C1226 C 0.35744 0.11854 0.16903 0.0
C1227 C 0.37947 0.10197 0.1722 0.0
C1228 C 0.38774 0.09571 0.14191 0.0
C1229 C 0.37524 0.10593 0.10938 0.0
C1230 C 0.38708 0.09535 0.08063 0.0
C1231 C 0.35588 0.07076 0.05226 0.0
C1232 C 0.40976 0.12663 0.06408 0.0
C1233 C 0.40814 0.07743 0.10199 0.0
C1234 C 0.40826 0.0779 0.13729 0.0
C1235 C 0.42537 0.06223 0.1619 0.0
C1236 C 0.44275 0.04572 0.15018 0.0
C1237 C 0.44313 0.04492 0.11406 0.0
C1238 C 0.42552 0.06127 0.08987 0.0
H1239 H 0.81512 0.29439 0.17429 0.0
H1240 H 0.87356 0.35046 0.27536 0.0
H1241 H 0.92015 0.38751 0.24961 0.0
H1242 H 0.89057 0.30252 0.13988 0.0
H1243 H 0.86869 0.30792 0.09611 0.0
H1244 H 0.84364 0.28351 0.12587 0.0
H1245 H 0.81249 0.325 0.11369 0.0
H1246 H 0.84086 0.34943 0.08672 0.0
H1247 H 0.83857 0.36995 0.12419 0.0
H1248 H 0.95982 0.4189 0.21481 0.0
H1249 H 0.9925 0.44485 0.17109 0.0
H1250 H 0.90979 0.37246 0.08884 0.0
C1251 C 0.83823 0.31388 0.19098 0.0
C1252 C 0.84152 0.31866 0.22757 0.0
C1253 C 0.87117 0.34556 0.24802 0.0
C1254 C 0.89771 0.36695 0.23343 0.0
C1255 C 0.89399 0.36179 0.19767 0.0
C1256 C 0.86514 0.33618 0.17638 0.0
C1257 C 0.86751 0.33851 0.13805 0.0
C1258 C 0.86752 0.30609 0.1242 0.0
C1259 C 0.83809 0.34617 0.11426 0.0
C1260 C 0.90261 0.36857 0.14184 0.0
C1261 C 0.91698 0.38151 0.17658 0.0
C1262 C 0.94906 0.40896 0.18748 0.0
C1263 C 0.96749 0.42345 0.16233 0.0
C1264 C 0.95401 0.41052 0.1265 0.0
C1265 C 0.92089 0.38278 0.11605 0.0
H1266 H 0.75065 0.84762 0.21332 0.0
H1267 H 0.68645 0.74329 0.173 0.0
H1268 H 0.64417 0.7614 0.133 0.0
H1269 H 0.6795 0.86285 0.21954 0.0
H1270 H 0.6976 0.90699 0.20982 0.0
H1271 H 0.72582 0.88704 0.23006 0.0
H1272 H 0.75649 0.90411 0.17939 0.0
H1273 H 0.72875 0.92461 0.15916 0.0
H1274 H 0.73113 0.89234 0.13408 0.0
H1275 H 0.60646 0.79129 0.10017 0.0
H1276 H 0.57642 0.82829 0.07938 0.0
H1277 H 0.66246 0.9129 0.14573 0.0
C1278 C 0.72848 0.82885 0.19476 0.0
C1279 C 0.72347 0.79431 0.19424 0.0
C1280 C 0.69254 0.77016 0.17182 0.0
C1281 C 0.66792 0.78024 0.14955 0.0
C1282 C 0.67362 0.81449 0.15104 0.0
C1283 C 0.70309 0.83836 0.17342 0.0
C1284 C 0.70123 0.87266 0.17345 0.0
C1285 C 0.70103 0.88298 0.21041 0.0
C1286 C 0.73118 0.90005 0.16075 0.0
C1287 C 0.66647 0.86477 0.14691 0.0
C1288 C 0.651 0.83107 0.13424 0.0
C1289 C 0.6186 0.81774 0.10983 0.0
C1290 C 0.60175 0.8392 0.09793 0.0
C1291 C 0.61689 0.87398 0.11035 0.0
C1292 C 0.64981 0.88661 0.1355 0.0
H1293 H 0.22268 0.6638 0.15887 0.0
H1294 H 0.19042 0.74349 0.1196 0.0
H1295 H 0.15367 0.70798 0.06477 0.0
H1296 H 0.21755 0.63131 0.06569 0.0
H1297 H 0.20335 0.58843 0.07972 0.0
H1298 H 0.23382 0.62359 0.11094 0.0
H1299 H 0.19305 0.60398 0.15289 0.0
H1300 H 0.16281 0.56903 0.12209 0.0
H1301 H 0.14884 0.59871 0.13623 0.0
H1302 H 0.10821 0.65825 0.02499 0.0
H1303 H 0.0621 0.60099 0.00342 0.0
H1304 H 0.1285 0.55561 0.06309 0.0
C1305 C 0.20862 0.67416 0.13831 0.0
C1306 C 0.20809 0.70568 0.14414 0.0
C1307 C 0.19005 0.71876 0.11636 0.0
C1308 C 0.1696 0.699 0.08476 0.0
C1309 C 0.16882 0.6669 0.08074 0.0
C1310 C 0.18885 0.65508 0.10638 0.0
C1311 C 0.18039 0.61834 0.09805 0.0
C1312 C 0.21058 0.61525 0.08799 0.0
C1313 C 0.17066 0.59626 0.12913 0.0
C1314 C 0.14966 0.61013 0.06621 0.0
C1315 C 0.14394 0.63867 0.05577 0.0
C1316 C 0.11321 0.63599 0.0317 0.0
C1317 C 0.08714 0.6034 0.01946 0.0
C1318 C 0.09226 0.57417 0.03115 0.0
C1319 C 0.1245 0.57777 0.05317 0.0
H1320 H 0.37313 0.78879 0.85594 0.0
H1321 H 0.31427 0.84795 0.81502 0.0
H1322 H 0.3367 0.88102 0.8706 0.0
H1323 H 0.37898 0.80061 0.95388 0.0
H1324 H 0.42426 0.80928 0.968 0.0
H1325 H 0.39645 0.78075 0.92967 0.0
H1326 H 0.43627 0.81683 0.89034 0.0
H1327 H 0.46492 0.84382 0.92905 0.0
H1328 H 0.44833 0.86204 0.8902 0.0
H1329 H 0.36162 0.90714 0.92828 0.0
H1330 H 0.41472 0.95255 0.96283 0.0
H1331 H 0.47042 0.8905 0.96392 0.0
C1332 C 0.36525 0.80882 0.85885 0.0
C1333 C 0.33999 0.81409 0.83175 0.0
C1334 C 0.33193 0.84187 0.83589 0.0
C1335 C 0.34388 0.86044 0.86791 0.0
C1336 C 0.3659 0.85269 0.89545 0.0
C1337 C 0.37901 0.82975 0.89046 0.0
C1338 C 0.41054 0.83471 0.92064 0.0
C1339 C 0.40206 0.80454 0.94445 0.0
C1340 C 0.44187 0.83971 0.9067 0.0
C1341 C 0.41523 0.86674 0.93994 0.0
C1342 C 0.38631 0.87335 0.92756 0.0
C1343 C 0.38456 0.90252 0.93833 0.0
C1344 C 0.41478 0.92817 0.95808 0.0
C1345 C 0.44616 0.92471 0.96524 0.0
C1346 C 0.44618 0.89292 0.95904 0.0
H1347 H 0.18653 0.36804 0.90669 0.0
H1348 H 0.1328 0.32101 0.80058 0.0
H1349 H 0.09506 0.3514 0.79418 0.0
H1350 H 0.11428 0.36382 0.93237 0.0
H1351 H 0.13614 0.40459 0.95688 0.0
H1352 H 0.16035 0.3811 0.9521 0.0
H1353 H 0.20134 0.43249 0.92506 0.0
H1354 H 0.1775 0.45632 0.93016 0.0
H1355 H 0.18329 0.45081 0.88731 0.0
H1356 H 0.05941 0.38277 0.80216 0.0
H1357 H 0.03233 0.416 0.82146 0.0
H1358 H 0.11243 0.44548 0.9209 0.0
C1359 C 0.16703 0.36441 0.88198 0.0
C1360 C 0.16242 0.34203 0.85418 0.0
C1361 C 0.13687 0.33818 0.82212 0.0
C1362 C 0.11523 0.35521 0.81834 0.0
C1363 C 0.11988 0.37644 0.84665 0.0
C1364 C 0.14559 0.38154 0.87761 0.0
C1365 C 0.14509 0.40536 0.90423 0.0
C1366 C 0.13857 0.38765 0.9384 0.0
C1367 C 0.17881 0.43819 0.91214 0.0
C1368 C 0.1145 0.41219 0.88382 0.0
C1369 C 0.10024 0.39529 0.8507 0.0
C1370 C 0.07079 0.3966 0.82782 0.0
C1371 C 0.05566 0.41579 0.83901 0.0
C1372 C 0.07006 0.43373 0.87278 0.0
C1373 C 0.10013 0.43186 0.89516 0.0
H1374 H 0.65152 0.16365 0.74858 0.0
H1375 H 0.74994 0.21217 0.82684 0.0
H1376 H 0.72333 0.18118 0.87359 0.0
H1377 H 0.59877 0.16631 0.79953 0.0
H1378 H 0.56407 0.12498 0.7843 0.0
H1379 H 0.59149 0.14819 0.75614 0.0
H1380 H 0.607 0.09753 0.7505 0.0
H1381 H 0.57901 0.07385 0.77809 0.0
H1382 H 0.62371 0.08029 0.79001 0.0
H1383 H 0.68478 0.14995 0.91249 0.0
H1384 H 0.63778 0.11639 0.94058 0.0
H1385 H 0.56451 0.08657 0.8369 0.0
C1386 C 0.66746 0.1672 0.77551 0.0
C1387 C 0.70285 0.18974 0.78409 0.0
C1388 C 0.723 0.19438 0.81958 0.0
C1389 C 0.70806 0.17698 0.84635 0.0
C1390 C 0.673 0.15503 0.83708 0.0
C1391 C 0.65305 0.14963 0.80246 0.0
C1392 C 0.61575 0.1254 0.79978 0.0
C1393 C 0.59108 0.14224 0.78402 0.0
C1394 C 0.60579 0.0923 0.77833 0.0
C1395 C 0.61754 0.11932 0.83851 0.0
C1396 C 0.65084 0.13646 0.85954 0.0
C1397 C 0.65867 0.13598 0.8963 0.0
C1398 C 0.63177 0.11705 0.91201 0.0
C1399 C 0.59754 0.0989 0.89091 0.0
C1400 C 0.59044 0.10013 0.8537 0.0
H1401 H 0.8437 0.7161 0.78055 0.0
H1402 H 0.76283 0.67053 0.83517 0.0
H1403 H 0.79507 0.64057 0.87165 0.0
H1404 H 0.8544 0.64026 0.77388 0.0
H1405 H 0.90057 0.66015 0.77923 0.0
H1406 H 0.87477 0.68312 0.76113 0.0
H1407 H 0.91288 0.73178 0.80955 0.0
H1408 H 0.93915 0.7092 0.82761 0.0
H1409 H 0.9193 0.72228 0.85554 0.0
H1410 H 0.83274 0.61163 0.89923 0.0
H1411 H 0.87325 0.58489 0.91625 0.0
H1412 H 0.93057 0.64499 0.84274 0.0
C1413 C 0.83383 0.7012 0.80151 0.0
C1414 C 0.80176 0.69785 0.80683 0.0
C1415 C 0.78824 0.67544 0.83219 0.0
C1416 C 0.80622 0.65786 0.85277 0.0
C1417 C 0.83743 0.66145 0.8469 0.0
C1418 C 0.8512 0.68239 0.82179 0.0
C1419 C 0.88337 0.67847 0.81853 0.0
C1420 C 0.87795 0.66468 0.78096 0.0
C1421 C 0.9156 0.71246 0.8284 0.0
C1422 C 0.88546 0.65229 0.84583 0.0
C1423 C 0.85863 0.64311 0.86181 0.0
C1424 C 0.85414 0.61898 0.88722 0.0
C1425 C 0.87769 0.604 0.89697 0.0
C1426 C 0.90599 0.61285 0.88164 0.0
C1427 C 0.90951 0.63737 0.8553 0.0
H1428 H 0.25315 0.35342 0.20545 0.0
H1429 H 0.18592 0.24714 0.17484 0.0
H1430 H 0.14022 0.26352 0.13935 0.0
H1431 H 0.18468 0.37245 0.21904 0.0
H1432 H 0.20236 0.41527 0.20525 0.0
H1433 H 0.23073 0.39526 0.22482 0.0
H1434 H 0.25551 0.4065 0.16993 0.0
H1435 H 0.22739 0.42671 0.1502 0.0
H1436 H 0.2264 0.39161 0.12648 0.0
H1437 H 0.10085 0.29275 0.10776 0.0
H1438 H 0.0713 0.32994 0.08587 0.0
H1439 H 0.16275 0.41726 0.14135 0.0
C1440 C 0.22904 0.33349 0.19077 0.0
C1441 C 0.22404 0.29887 0.19179 0.0
C1442 C 0.19139 0.27381 0.17326 0.0
C1443 C 0.16498 0.28297 0.15338 0.0
C1444 C 0.17089 0.31734 0.15318 0.0
C1445 C 0.20207 0.34212 0.17191 0.0
C1446 C 0.20117 0.37692 0.16995 0.0
C1447 C 0.20496 0.39079 0.20695 0.0
C1448 C 0.22929 0.40191 0.15312 0.0
C1449 C 0.16499 0.36829 0.14609 0.0
C1450 C 0.14791 0.33375 0.13677 0.0
C1451 C 0.1142 0.31978 0.11493 0.0
C1452 C 0.09763 0.34139 0.10229 0.0
C1453 C 0.11441 0.37704 0.11125 0.0
C1454 C 0.14871 0.39033 0.13382 0.0
H1455 H 0.18653 0.6839 0.77921 0.0
H1456 H 0.27666 0.71742 0.86923 0.0
H1457 H 0.23947 0.68725 0.90896 0.0
H1458 H 0.12064 0.68292 0.82462 0.0
H1459 H 0.08918 0.64563 0.7974 0.0
H1460 H 0.12429 0.67582 0.78093 0.0
H1461 H 0.1363 0.62255 0.77053 0.0
H1462 H 0.10373 0.59549 0.79197 0.0
H1463 H 0.1478 0.60035 0.80837 0.0
H1464 H 0.19256 0.65441 0.93896 0.0
H1465 H 0.13955 0.61744 0.95686 0.0
H1466 H 0.08023 0.60111 0.8468 0.0
C1467 C 0.19813 0.68547 0.80741 0.0
C1468 C 0.23419 0.70382 0.82155 0.0
C1469 C 0.24893 0.70407 0.85823 0.0
C1470 C 0.22805 0.68702 0.88091 0.0
C1471 C 0.19256 0.66911 0.86631 0.0
C1472 C 0.17769 0.66788 0.83038 0.0
C1473 C 0.13934 0.64429 0.82124 0.0
C1474 C 0.1171 0.66338 0.80497 0.0
C1475 C 0.13134 0.61386 0.79658 0.0
C1476 C 0.13487 0.63339 0.85773 0.0
C1477 C 0.16587 0.64812 0.88334 0.0
C1478 C 0.16812 0.64269 0.91914 0.0
C1479 C 0.13783 0.62177 0.92906 0.0
C1480 C 0.10572 0.60646 0.90328 0.0
C1481 C 0.10438 0.6124 0.86715 0.0
H1482 H 0.28198 0.14355 0.78904 0.0
H1483 H 0.35002 0.24785 0.82543 0.0
H1484 H 0.39334 0.22984 0.86266 0.0
H1485 H 0.30574 0.10163 0.86956 0.0
H1486 H 0.30509 0.06727 0.84492 0.0
H1487 H 0.27744 0.08812 0.82557 0.0
H1488 H 0.30362 0.10097 0.77161 0.0
H1489 H 0.33168 0.08057 0.79089 0.0
H1490 H 0.34983 0.12389 0.77857 0.0
H1491 H 0.43122 0.20039 0.89316 0.0
H1492 H 0.46109 0.16329 0.91328 0.0
H1493 H 0.37089 0.077 0.85403 0.0
C1494 C 0.30544 0.16241 0.80603 0.0
C1495 C 0.31133 0.19727 0.80637 0.0
C1496 C 0.34357 0.22114 0.82686 0.0
C1497 C 0.36871 0.21099 0.84757 0.0
C1498 C 0.36207 0.17658 0.84661 0.0
C1499 C 0.33129 0.15262 0.82611 0.0
C1500 C 0.33211 0.11776 0.82703 0.0
C1501 C 0.30339 0.09217 0.84271 0.0
C1502 C 0.32913 0.10505 0.78982 0.0
C1503 C 0.36796 0.12573 0.85159 0.0
C1504 C 0.38468 0.15986 0.8626 0.0
C1505 C 0.41815 0.17356 0.88491 0.0
C1506 C 0.43491 0.15202 0.89648 0.0
C1507 C 0.41857 0.11671 0.88595 0.0
C1508 C 0.38448 0.10368 0.86282 0.0
H1509 H 0.80226 0.31762 0.84747 0.0
H1510 H 0.86479 0.26284 0.8477 0.0
H1511 H 0.90754 0.2971 0.90028 0.0
H1512 H 0.86374 0.3942 0.8614 0.0
H1513 H 0.84947 0.41199 0.89147 0.0
H1514 H 0.81866 0.37641 0.86159 0.0
H1515 H 0.79976 0.34223 0.91454 0.0
H1516 H 0.83088 0.37795 0.9448 0.0
H1517 H 0.83172 0.33681 0.95058 0.0
H1518 H 0.94891 0.34403 0.94362 0.0
H1519 H 0.98715 0.40252 0.96932 0.0
H1520 H 0.90032 0.42975 0.93992 0.0
C1521 C 0.82438 0.31213 0.8595 0.0
C1522 C 0.82977 0.28689 0.84392 0.0
C1523 C 0.85932 0.2809 0.8598 0.0
C1524 C 0.88388 0.3004 0.88987 0.0
C1525 C 0.87832 0.32566 0.90422 0.0
C1526 C 0.84909 0.33142 0.88975 0.0
C1527 C 0.85199 0.36352 0.90658 0.0
C1528 C 0.84564 0.38796 0.87858 0.0
C1529 C 0.82711 0.3546 0.93054 0.0
C1530 C 0.88923 0.37736 0.92863 0.0
C1531 C 0.90316 0.35403 0.92883 0.0
C1532 C 0.93807 0.36213 0.94455 0.0
C1533 C 0.9596 0.39533 0.95908 0.0
C1534 C 0.94624 0.42001 0.95668 0.0
C1535 C 0.9106 0.41077 0.94243 0.0
H1536 H 0.7025 0.91302 0.82904 0.0
H1537 H 0.69254 0.83306 0.90212 0.0
H1538 H 0.64845 0.84435 0.9212 0.0
H1539 H 0.69617 0.97082 0.8823 0.0
H1540 H 0.67044 0.98536 0.84753 0.0
H1541 H 0.69867 0.96899 0.83724 0.0
H1542 H 0.64698 0.92463 0.79123 0.0
H1543 H 0.61859 0.94114 0.80112 0.0
H1544 H 0.60882 0.89656 0.80459 0.0
H1545 H 0.61055 0.86833 0.93671 0.0
H1546 H 0.57761 0.90033 0.9447 0.0
H1547 H 0.61008 0.96381 0.85996 0.0
C1548 C 0.69032 0.89745 0.84844 0.0
C1549 C 0.70047 0.87197 0.86402 0.0
C1550 C 0.68461 0.85234 0.88968 0.0
C1551 C 0.6597 0.85868 0.90069 0.0
C1552 C 0.65064 0.88442 0.88535 0.0
C1553 C 0.66499 0.90313 0.85933 0.0
C1554 C 0.65128 0.9299 0.84783 0.0
C1555 C 0.68091 0.96589 0.85412 0.0
C1556 C 0.63016 0.92262 0.80888 0.0
C1557 C 0.62808 0.92423 0.87248 0.0
C1558 C 0.628 0.89774 0.89374 0.0
C1559 C 0.60998 0.88875 0.91983 0.0
C1560 C 0.59149 0.90719 0.92431 0.0
C1561 C 0.59103 0.93439 0.90281 0.0
C1562 C 0.60939 0.94274 0.87633 0.0
H1563 H 0.90475 0.66333 0.17703 0.0
H1564 H 0.84788 0.6731 0.07187 0.0
H1565 H 0.864 0.63291 0.04683 0.0
H1566 H 0.97518 0.6614 0.15291 0.0
H1567 H 0.98083 0.62974 0.18232 0.0
H1568 H 0.96178 0.65608 0.19347 0.0
H1569 H 0.90758 0.60261 0.19895 0.0
H1570 H 0.92675 0.57606 0.18841 0.0
H1571 H 0.8844 0.57081 0.16256 0.0
H1572 H 0.89109 0.59807 0.03188 0.0
H1573 H 0.92333 0.5646 0.02778 0.0
H1574 H 0.96238 0.57411 0.14242 0.0
C1575 C 0.89494 0.65609 0.14893 0.0
C1576 C 0.8749 0.6711 0.12627 0.0
C1577 C 0.86311 0.66173 0.08955 0.0
C1578 C 0.87219 0.63901 0.07512 0.0
C1579 C 0.893 0.62562 0.09775 0.0
C1580 C 0.90385 0.63321 0.13394 0.0
C1581 C 0.92725 0.61601 0.15172 0.0
C1582 C 0.9634 0.64239 0.17125 0.0
C1583 C 0.91049 0.58981 0.1769 0.0
C1584 C 0.92861 0.59863 0.11967 0.0
C1585 C 0.90845 0.60453 0.08896 0.0
C1586 C 0.90635 0.59257 0.05578 0.0
C1587 C 0.92473 0.5734 0.05377 0.0
C1588 C 0.94492 0.56594 0.08476 0.0
C1589 C 0.94714 0.57918 0.1182 0.0
H1590 H 0.37857 0.82394 0.23495 0.0
H1591 H 0.27693 0.79534 0.16254 0.0
H1592 H 0.30369 0.81951 0.11382 0.0
H1593 H 0.4263 0.90109 0.19797 0.0
H1594 H 0.46359 0.89184 0.20412 0.0
H1595 H 0.43562 0.87545 0.23333 0.0
H1596 H 0.42799 0.81496 0.21824 0.0
H1597 H 0.45451 0.83052 0.18751 0.0
H1598 H 0.41101 0.79786 0.17287 0.0
H1599 H 0.3428 0.84638 0.07222 0.0
H1600 H 0.39057 0.87605 0.04337 0.0
H1601 H 0.46524 0.88079 0.14235 0.0
C1602 C 0.36194 0.82349 0.20903 0.0
C1603 C 0.32562 0.80894 0.20306 0.0
C1604 C 0.30477 0.80761 0.16837 0.0
C1605 C 0.31979 0.82083 0.14025 0.0
C1606 C 0.3557 0.83422 0.14699 0.0
C1607 C 0.37643 0.83548 0.18056 0.0
C1608 C 0.4141 0.84898 0.18061 0.0
C1609 C 0.43618 0.88127 0.20546 0.0
C1610 C 0.4277 0.82143 0.19036 0.0
C1611 C 0.4116 0.85667 0.14219 0.0
C1612 C 0.37772 0.84763 0.12295 0.0
C1613 C 0.36942 0.85341 0.08702 0.0
C1614 C 0.39665 0.87003 0.07079 0.0
C1615 C 0.43153 0.88071 0.09068 0.0
C1616 C 0.43882 0.87293 0.12646 0.0
H1617 H 0.67824 0.18099 0.1914 0.0
H1618 H 0.72711 0.24437 0.11465 0.0
H1619 H 0.6809 0.20388 0.06586 0.0
H1620 H 0.66471 0.10652 0.14881 0.0
H1621 H 0.62574 0.081 0.16212 0.0
H1622 H 0.6584 0.11808 0.18914 0.0
H1623 H 0.61282 0.14234 0.18548 0.0
H1624 H 0.57997 0.10508 0.1586 0.0
H1625 H 0.58775 0.14679 0.14273 0.0
H1626 H 0.62992 0.15361 0.02649 0.0
H1627 H 0.58582 0.09639 0.00142 0.0
H1628 H 0.57699 0.06591 0.1068 0.0
C1629 C 0.67846 0.18706 0.16426 0.0
C1630 C 0.70507 0.21609 0.1563 0.0
C1631 C 0.7061 0.2224 0.12078 0.0
C1632 C 0.68006 0.19967 0.09316 0.0
C1633 C 0.65416 0.17075 0.10207 0.0
C1634 C 0.65378 0.1643 0.13695 0.0
C1635 C 0.62739 0.1293 0.14066 0.0
C1636 C 0.64512 0.10746 0.16139 0.0
C1637 C 0.60037 0.131 0.15786 0.0
C1638 C 0.61206 0.11703 0.10226 0.0
C1639 C 0.62736 0.1412 0.08019 0.0
C1640 C 0.61793 0.13454 0.04361 0.0
C1641 C 0.59299 0.10198 0.02956 0.0
C1642 C 0.57868 0.07655 0.05215 0.0
C1643 C 0.58775 0.08466 0.08878 0.0
H1644 H 0.66499 0.64921 0.75656 0.0
H1645 H 0.67827 0.74814 0.79154 0.0
H1646 H 0.63997 0.72115 0.8307 0.0
H1647 H 0.57088 0.59946 0.76646 0.0
H1648 H 0.58057 0.5638 0.78149 0.0
H1649 H 0.60018 0.58981 0.74886 0.0
H1650 H 0.66036 0.59918 0.78898 0.0
H1651 H 0.64147 0.57478 0.82259 0.0
H1652 H 0.67369 0.61799 0.83339 0.0
H1653 H 0.61665 0.68692 0.87707 0.0
H1654 H 0.59648 0.64431 0.92004 0.0
H1655 H 0.59462 0.56637 0.85343 0.0
C1656 C 0.65777 0.66481 0.7705 0.0
C1657 C 0.67393 0.70051 0.77088 0.0
C1658 C 0.66563 0.72062 0.7909 0.0
C1659 C 0.64398 0.70553 0.81317 0.0
C1660 C 0.63054 0.67034 0.8145 0.0
C1661 C 0.63598 0.64998 0.79279 0.0
C1662 C 0.62239 0.61338 0.80284 0.0
C1663 C 0.59166 0.59025 0.77314 0.0
C1664 C 0.65121 0.60063 0.81253 0.0
C1665 C 0.61081 0.61699 0.83499 0.0
C1666 C 0.61568 0.65003 0.84116 0.0
C1667 C 0.61139 0.66066 0.87188 0.0
C1668 C 0.60062 0.63656 0.89638 0.0
C1669 C 0.59404 0.60238 0.88965 0.0
C1670 C 0.59913 0.59243 0.85867 0.0
H1671 H 0.35194 0.65696 0.84314 0.0
H1672 H 0.27752 0.597 0.90182 0.0
H1673 H 0.32581 0.60004 0.95229 0.0
H1674 H 0.40381 0.62092 0.86345 0.0
H1675 H 0.44433 0.65785 0.86826 0.0
H1676 H 0.40536 0.65866 0.84086 0.0
H1677 H 0.41542 0.71196 0.87709 0.0
H1678 H 0.45527 0.71187 0.90423 0.0
H1679 H 0.42276 0.71162 0.92454 0.0
H1680 H 0.37884 0.59509 0.98671 0.0
H1681 H 0.43166 0.5852 0.00256 0.0
H1682 H 0.47374 0.65768 0.92827 0.0
C1683 C 0.34536 0.64609 0.86713 0.0
C1684 C 0.31058 0.6267 0.86816 0.0
C1685 C 0.30381 0.61151 0.89989 0.0
C1686 C 0.33113 0.61362 0.929 0.0
C1687 C 0.36503 0.63203 0.92646 0.0
C1688 C 0.37219 0.64881 0.89657 0.0
C1689 C 0.41029 0.66283 0.89806 0.0
C1690 C 0.41623 0.64921 0.8658 0.0
C1691 C 0.42692 0.7019 0.90119 0.0
C1692 C 0.42299 0.64869 0.93201 0.0
C1693 C 0.39668 0.63144 0.94841 0.0
C1694 C 0.4002 0.61 0.97545 0.0
C1695 C 0.4305 0.60474 0.98462 0.0
C1696 C 0.45693 0.6212 0.96708 0.0
C1697 C 0.45404 0.64523 0.9424 0.0
H1698 H 0.33731 0.37173 0.78637 0.0
H1699 H 0.38169 0.30264 0.83416 0.0
H1700 H 0.40528 0.33676 0.891 0.0
H1701 H 0.41698 0.44679 0.83015 0.0
H1702 H 0.39221 0.47078 0.83133 0.0
H1703 H 0.3772 0.43827 0.79661 0.0
H1704 H 0.31881 0.41135 0.81439 0.0
H1705 H 0.33524 0.44218 0.85128 0.0
H1706 H 0.31849 0.39738 0.85852 0.0
H1707 H 0.41197 0.37162 0.94483 0.0
H1708 H 0.44128 0.42486 0.98276 0.0
H1709 H 0.40912 0.47872 0.89507 0.0
C1710 C 0.35304 0.36449 0.80852 0.0
C1711 C 0.35556 0.33333 0.80721 0.0
C1712 C 0.3778 0.32543 0.83559 0.0
C1713 C 0.39063 0.34422 0.8681 0.0
C1714 C 0.38318 0.37214 0.87015 0.0
C1715 C 0.36804 0.38417 0.84035 0.0
C1716 C 0.36984 0.41869 0.84805 0.0
C1717 C 0.39031 0.4452 0.82522 0.0
C1718 C 0.33342 0.41729 0.84274 0.0
C1719 C 0.3891 0.42443 0.88683 0.0
C1720 C 0.3937 0.39592 0.89958 0.0
C1721 C 0.40994 0.3946 0.93479 0.0
C1722 C 0.42644 0.42486 0.95608 0.0
C1723 C 0.42981 0.45571 0.94032 0.0
C1724 C 0.40765 0.45522 0.90703 0.0
H1725 H 0.66641 0.40906 0.7911 0.0
H1726 H 0.68325 0.33146 0.85804 0.0
H1727 H 0.6688 0.35326 0.90569 0.0
H1728 H 0.69099 0.47567 0.85749 0.0
H1729 H 0.65551 0.48622 0.8356 0.0
H1730 H 0.67425 0.46911 0.81003 0.0
H1731 H 0.61364 0.42064 0.78302 0.0
H1732 H 0.59475 0.43749 0.80852 0.0
H1733 H 0.58914 0.39393 0.81209 0.0
H1734 H 0.6504 0.38363 0.94577 0.0
H1735 H 0.62182 0.4129 0.97009 0.0
H1736 H 0.6063 0.46044 0.87104 0.0
C1737 C 0.66696 0.39618 0.8155 0.0
C1738 C 0.676 0.36834 0.82033 0.0
C1739 C 0.6772 0.35331 0.85352 0.0
C1740 C 0.66881 0.36539 0.88082 0.0
C1741 C 0.65866 0.39203 0.87432 0.0
C1742 C 0.6572 0.40675 0.84217 0.0
C1743 C 0.64099 0.43157 0.83947 0.0
C1744 C 0.667 0.46779 0.83542 0.0
C1745 C 0.60766 0.42021 0.80899 0.0
C1746 C 0.63317 0.42842 0.87509 0.0
C1747 C 0.64445 0.40634 0.89539 0.0
C1748 C 0.64083 0.4004 0.9298 0.0
C1749 C 0.62437 0.41678 0.94328 0.0
C1750 C 0.61048 0.4374 0.92175 0.0
C1751 C 0.6157 0.44383 0.8876 0.0
H1752 H 0.64784 0.31696 0.13676 0.0
H1753 H 0.70471 0.33567 0.0564 0.0
H1754 H 0.65388 0.33582 0.01187 0.0
H1755 H 0.55842 0.26125 0.07511 0.0
H1756 H 0.53869 0.27885 0.09893 0.0
H1757 H 0.57631 0.27211 0.12205 0.0
H1758 H 0.60735 0.3354 0.14535 0.0
H1759 H 0.57049 0.34252 0.12195 0.0
H1760 H 0.61222 0.36808 0.11409 0.0
H1761 H 0.60466 0.34999 0.98165 0.0
H1762 H 0.56295 0.37591 0.97002 0.0
H1763 H 0.53183 0.33497 0.06505 0.0
C1764 C 0.64948 0.31896 0.10964 0.0
C1765 C 0.68091 0.32655 0.10065 0.0
C1766 C 0.68149 0.33066 0.06458 0.0
C1767 C 0.65241 0.33011 0.0388 0.0
C1768 C 0.62241 0.32387 0.0491 0.0
C1769 C 0.62049 0.3173 0.08358 0.0
C1770 C 0.58736 0.31599 0.0894 0.0
C1771 C 0.5638 0.27988 0.09679 0.0
C1772 C 0.59485 0.34205 0.1194 0.0
C1773 C 0.57228 0.3257 0.05362 0.0
C1774 C 0.59253 0.32978 0.03046 0.0
C1775 C 0.58796 0.34591 -0.00099 0.0
C1776 C 0.56409 0.36049 0.99252 0.0
C1777 C 0.54507 0.35844 0.01733 0.0
C1778 C 0.54677 0.33777 0.04609 0.0
H1779 H 0.66751 0.67771 0.17792 0.0
H1780 H 0.74096 0.6338 0.21873 0.0
H1781 H 0.71102 0.58964 0.16929 0.0
H1782 H 0.5921 0.60023 0.14602 0.0
H1783 H 0.57592 0.6191 0.1076 0.0
H1784 H 0.60289 0.64517 0.14745 0.0
H1785 H 0.64403 0.68429 0.11066 0.0
H1786 H 0.61812 0.65698 0.07113 0.0
H1787 H 0.66358 0.6666 0.08669 0.0
H1788 H 0.67167 0.54933 0.118 0.0
H1789 H 0.62054 0.51128 0.07224 0.0
H1790 H 0.57849 0.58634 0.06078 0.0
C1791 C 0.67668 0.65826 0.17686 0.0
C1792 C 0.7062 0.65872 0.20181 0.0
C1793 C 0.71813 0.63346 0.19955 0.0
C1794 C 0.7017 0.60873 0.17144 0.0
C1795 C 0.67401 0.61034 0.14578 0.0
C1796 C 0.66134 0.63416 0.14844 0.0
C1797 C 0.63103 0.63019 0.11763 0.0
C1798 C 0.59857 0.62323 0.13044 0.0
C1799 C 0.63974 0.66138 0.09521 0.0
C1800 C 0.62767 0.59942 0.098 0.0
C1801 C 0.65302 0.58861 0.11439 0.0
C1802 C 0.65224 0.55793 0.10417 0.0
C1803 C 0.62346 0.53668 0.07807 0.0
C1804 C 0.59669 0.5468 0.06265 0.0
C1805 C 0.59964 0.57909 0.07117 0.0
H1806 H 0.39074 0.67919 0.13432 0.0
H1807 H 0.35339 0.61336 0.21549 0.0
H1808 H 0.35483 0.56531 0.18535 0.0
H1809 H 0.34232 0.61135 0.06009 0.0
H1810 H 0.37685 0.62895 0.03833 0.0
H1811 H 0.36883 0.65654 0.06423 0.0
H1812 H 0.43285 0.67984 0.10152 0.0
H1813 H 0.44072 0.65212 0.07585 0.0
H1814 H 0.44975 0.65053 0.12337 0.0
H1815 H 0.36488 0.52641 0.14926 0.0
H1816 H 0.38536 0.4998 0.11105 0.0
H1817 H 0.41677 0.59165 0.05437 0.0
C1818 C 0.38275 0.65453 0.14548 0.0
C1819 C 0.37233 0.64961 0.17715 0.0
C1820 C 0.36155 0.61721 0.19115 0.0
C1821 C 0.36206 0.5899 0.17415 0.0
C1822 C 0.37267 0.59553 0.14291 0.0
C1823 C 0.38258 0.62697 0.12855 0.0
C1824 C 0.39446 0.62673 0.09567 0.0
C1825 C 0.3691 0.63116 0.06263 0.0
C1826 C 0.43166 0.65389 0.09937 0.0
C1827 C 0.3923 0.59108 0.09543 0.0
C1828 C 0.37851 0.57309 0.1221 0.0
C1829 C 0.37508 0.53997 0.12785 0.0
C1830 C 0.38659 0.52505 0.10603 0.0
C1831 C 0.40184 0.54361 0.07947 0.0
C1832 C 0.40439 0.57679 0.07391 0.0
H1833 H 0.36203 0.35739 0.24061 0.0
H1834 H 0.3695 0.26314 0.22469 0.0
H1835 H 0.41169 0.29177 0.18984 0.0
H1836 H 0.35644 0.38012 0.16104 0.0
H1837 H 0.38266 0.42534 0.1679 0.0
H1838 H 0.36314 0.40249 0.20181 0.0
H1839 H 0.42269 0.42317 0.24776 0.0
H1840 H 0.44257 0.44768 0.21452 0.0
H1841 H 0.45782 0.41768 0.23743 0.0
H1842 H 0.43492 0.32315 0.14218 0.0
H1843 H 0.45144 0.36131 0.09454 0.0
H1844 H 0.43347 0.43757 0.14296 0.0
C1845 C 0.37472 0.3437 0.23203 0.0
C1846 C 0.36346 0.30848 0.23572 0.0
C1847 C 0.37873 0.29041 0.22261 0.0
C1848 C 0.40252 0.30643 0.20265 0.0
C1849 C 0.41105 0.3406 0.19671 0.0
C1850 C 0.39881 0.35957 0.21215 0.0
C1851 C 0.4081 0.39442 0.19738 0.0
C1852 C 0.37565 0.40092 0.18107 0.0
C1853 C 0.43437 0.42239 0.22598 0.0
C1854 C 0.42457 0.39079 0.16923 0.0
C1855 C 0.42619 0.35962 0.16946 0.0
C1856 C 0.4353 0.34823 0.14262 0.0
C1857 C 0.44401 0.36969 0.11542 0.0
C1858 C 0.44385 0.40213 0.11566 0.0
C1859 C 0.43431 0.41296 0.1429 0.0
H1860 H 0.80501 0.57101 0.62058 0.0
H1861 H 0.87613 0.67581 0.6559 0.0
H1862 H 0.92514 0.6629 0.65378 0.0
H1863 H 0.86134 0.53173 0.66631 0.0
H1864 H 0.84723 0.50043 0.63038 0.0
H1865 H 0.81812 0.51729 0.63757 0.0
H1866 H 0.80939 0.53541 0.57295 0.0
H1867 H 0.8385 0.51869 0.56559 0.0
H1868 H 0.84663 0.5624 0.55753 0.0
H1869 H 0.96651 0.63907 0.64525 0.0
H1870 H 0.99641 0.60644 0.63028 0.0
H1871 H 0.89795 0.5182 0.59778 0.0
C1872 C 0.83081 0.59141 0.62776 0.0
C1873 C 0.83642 0.62451 0.63842 0.0
C1874 C 0.87091 0.6501 0.6482 0.0
C1875 C 0.89901 0.64308 0.64685 0.0
C1876 C 0.89236 0.61037 0.63558 0.0
C1877 C 0.85909 0.58495 0.62623 0.0
C1878 C 0.85871 0.55225 0.61375 0.0
C1879 C 0.84558 0.52375 0.63848 0.0
C1880 C 0.83703 0.54158 0.57516 0.0
C1881 C 0.89693 0.56339 0.6169 0.0
C1882 C 0.91598 0.59688 0.62995 0.0
C1883 C 0.95184 0.6128 0.63513 0.0
C1884 C 0.96862 0.59404 0.62666 0.0
C1885 C 0.94956 0.55982 0.61279 0.0
C1886 C 0.91322 0.54441 0.608 0.0
H1887 H 0.28364 0.79908 0.63388 0.0
H1888 H 0.3442 0.81483 0.74326 0.0
H1889 H 0.39739 0.84689 0.72496 0.0
H1890 H 0.3467 0.7939 0.59051 0.0
H1891 H 0.33653 0.81871 0.555 0.0
H1892 H 0.30416 0.79361 0.57765 0.0
H1893 H 0.29845 0.84978 0.58906 0.0
H1894 H 0.33282 0.87393 0.56845 0.0
H1895 H 0.33616 0.88565 0.61321 0.0
H1896 H 0.44405 0.87471 0.69655 0.0
H1897 H 0.48296 0.90577 0.65945 0.0
H1898 H 0.39487 0.87796 0.56701 0.0
C1899 C 0.30823 0.80913 0.65372 0.0
C1900 C 0.30998 0.80295 0.68992 0.0
C1901 C 0.34232 0.81771 0.71535 0.0
C1902 C 0.37279 0.83628 0.70523 0.0
C1903 C 0.37059 0.8408 0.66947 0.0
C1904 C 0.33929 0.82848 0.64398 0.0
C1905 C 0.34485 0.84012 0.60777 0.0
C1906 C 0.33226 0.80973 0.5812 0.0
C1907 C 0.32701 0.86378 0.5938 0.0
C1908 C 0.38417 0.85956 0.61704 0.0
C1909 C 0.39815 0.85933 0.65287 0.0
C1910 C 0.43353 0.87538 0.66845 0.0
C1911 C 0.45544 0.89294 0.64705 0.0
C1912 C 0.44207 0.89445 0.6103 0.0
C1913 C 0.40588 0.8771 0.59497 0.0
H1914 H 0.17486 0.26314 0.66666 0.0
H1915 H 0.27437 0.33944 0.724 0.0
H1916 H 0.25561 0.38474 0.70102 0.0
H1917 H 0.16295 0.31427 0.58812 0.0
H1918 H 0.11686 0.29752 0.58286 0.0
H1919 H 0.13995 0.27194 0.60074 0.0
H1920 H 0.11608 0.26393 0.65599 0.0
H1921 H 0.09346 0.28997 0.6388 0.0
H1922 H 0.1237 0.30082 0.68198 0.0
H1923 H 0.22242 0.42139 0.67761 0.0
H1924 H 0.18134 0.44633 0.65174 0.0
H1925 H 0.10366 0.34633 0.60662 0.0
C1926 C 0.19314 0.28948 0.67331 0.0
C1927 C 0.22647 0.29768 0.69649 0.0
C1928 C 0.24917 0.33244 0.70552 0.0
C1929 C 0.23851 0.35837 0.69284 0.0
C1930 C 0.20505 0.34932 0.67089 0.0
C1931 C 0.18297 0.31566 0.66061 0.0
C1932 C 0.14799 0.31253 0.63771 0.0
C1933 C 0.14155 0.29822 0.60012 0.0
C1934 C 0.11858 0.29051 0.65464 0.0
C1935 C 0.15322 0.34955 0.63768 0.0
C1936 C 0.18636 0.37036 0.65688 0.0
C1937 C 0.19671 0.40529 0.66188 0.0
C1938 C 0.17298 0.41935 0.64669 0.0
C1939 C 0.13882 0.39884 0.62626 0.0
C1940 C 0.1292 0.36323 0.62196 0.0
H1941 H 0.73133 0.15912 0.65518 0.0
H1942 H 0.70677 0.24359 0.61767 0.0
H1943 H 0.66467 0.20776 0.56434 0.0
H1944 H 0.71798 0.1217 0.56244 0.0
H1945 H 0.70181 0.07955 0.57818 0.0
H1946 H 0.73545 0.11467 0.60758 0.0
H1947 H 0.69775 0.10028 0.65231 0.0
H1948 H 0.66403 0.06567 0.62317 0.0
H1949 H 0.65473 0.09868 0.63796 0.0
H1950 H 0.61472 0.15749 0.52471 0.0
H1951 H 0.56646 0.10107 0.50285 0.0
H1952 H 0.62818 0.05187 0.56449 0.0
C1953 C 0.71796 0.17061 0.63543 0.0
C1954 C 0.72066 0.20348 0.64172 0.0
C1955 C 0.70348 0.21775 0.61446 0.0
C1956 C 0.68006 0.19773 0.58371 0.0
C1957 C 0.67573 0.16415 0.57988 0.0
C1958 C 0.69537 0.15127 0.60459 0.0
C1959 C 0.68372 0.11368 0.59726 0.0
C1960 C 0.71138 0.10702 0.58566 0.0
C1961 C 0.67449 0.09344 0.62956 0.0
C1962 C 0.6521 0.10645 0.5668 0.0
C1963 C 0.6483 0.13588 0.55616 0.0
C1964 C 0.61809 0.13449 0.53198 0.0
C1965 C 0.59079 0.10238 0.51964 0.0
C1966 C 0.5939 0.07233 0.53199 0.0
C1967 C 0.62545 0.07456 0.55443 0.0
H1968 H 0.86835 0.31396 0.31726 0.0
H1969 H 0.81027 0.24997 0.38715 0.0
H1970 H 0.8528 0.2893 0.43881 0.0
H1971 H 0.95416 0.35051 0.3674 0.0
H1972 H 0.96156 0.39297 0.3542 0.0
H1973 H 0.92997 0.35688 0.325 0.0
H1974 H 0.88051 0.37793 0.3236 0.0
H1975 H 0.91436 0.41456 0.35008 0.0
H1976 H 0.87636 0.38895 0.36492 0.0
H1977 H 0.9007 0.3413 0.48166 0.0
H1978 H 0.94328 0.39926 0.50803 0.0
H1979 H 0.96346 0.42719 0.40555 0.0
C1980 C 0.86541 0.30763 0.34354 0.0
C1981 C 0.83744 0.27857 0.34873 0.0
C1982 C 0.83268 0.27176 0.38319 0.0
C1983 C 0.85648 0.29403 0.41243 0.0
C1984 C 0.88362 0.32337 0.40605 0.0
C1985 C 0.88726 0.33036 0.37207 0.0
C1986 C 0.91329 0.36592 0.37017 0.0
C1987 C 0.94142 0.36657 0.35321 0.0
C1988 C 0.89513 0.38808 0.35103 0.0
C1989 C 0.92707 0.37667 0.4088 0.0
C1990 C 0.90915 0.35272 0.42946 0.0
C1991 C 0.91505 0.35996 0.46562 0.0
C1992 C 0.93919 0.39279 0.48039 0.0
C1993 C 0.95641 0.41753 0.45866 0.0
C1994 C 0.95081 0.40879 0.4229 0.0
H1995 H 0.63185 0.81104 0.40029 0.0
H1996 H 0.64399 0.83502 0.29406 0.0
H1997 H 0.62224 0.87885 0.29445 0.0
H1998 H 0.55141 0.81738 0.38562 0.0
H1999 H 0.56064 0.83542 0.42956 0.0
H2000 H 0.57996 0.80788 0.42225 0.0
H2001 H 0.64104 0.85483 0.45046 0.0
H2002 H 0.62189 0.88248 0.45794 0.0
H2003 H 0.6542 0.89647 0.43325 0.0
H2004 H 0.5962 0.91845 0.30515 0.0
H2005 H 0.56924 0.95112 0.32582 0.0
H2006 H 0.57087 0.89899 0.42355 0.0
C2007 C 0.62987 0.82529 0.37695 0.0
C2008 C 0.63985 0.81924 0.34715 0.0
C2009 C 0.63725 0.83924 0.31756 0.0
C2010 C 0.62461 0.86415 0.31738 0.0
C2011 C 0.61443 0.86884 0.34688 0.0
C2012 C 0.61698 0.85001 0.37615 0.0
C2013 C 0.60309 0.85912 0.40395 0.0
C2014 C 0.57192 0.8281 0.41073 0.0
C2015 C 0.63177 0.87412 0.43844 0.0
C2016 C 0.59207 0.88587 0.38565 0.0
C2017 C 0.59895 0.8912 0.35281 0.0
C2018 C 0.59066 0.9144 0.33081 0.0
C2019 C 0.57501 0.93265 0.34268 0.0
C2020 C 0.5676 0.92761 0.37626 0.0
C2021 C 0.5764 0.9038 0.3979 0.0
H2022 H 0.14607 0.66877 0.25304 0.0
H2023 H 0.24359 0.72726 0.32882 0.0
H2024 H 0.21934 0.6976 0.37769 0.0
H2025 H 0.09167 0.66978 0.30312 0.0
H2026 H 0.05961 0.62681 0.29011 0.0
H2027 H 0.08567 0.65028 0.26089 0.0
H2028 H 0.10642 0.60274 0.25882 0.0
H2029 H 0.07991 0.57874 0.28756 0.0
H2030 H 0.12562 0.58904 0.29964 0.0
H2031 H 0.18217 0.66496 0.41866 0.0
H2032 H 0.13658 0.62889 0.44783 0.0
H2033 H 0.06413 0.59148 0.3446 0.0
C2034 C 0.16239 0.67482 0.27991 0.0
C2035 C 0.19678 0.69973 0.28722 0.0
C2036 C 0.21739 0.70765 0.32265 0.0
C2037 C 0.20378 0.69104 0.35057 0.0
C2038 C 0.16957 0.66667 0.34251 0.0
C2039 C 0.14933 0.65827 0.30797 0.0
C2040 C 0.1131 0.63193 0.30634 0.0
C2041 C 0.08593 0.64553 0.2891 0.0
C2042 C 0.10584 0.59864 0.28695 0.0
C2043 C 0.11569 0.62769 0.34541 0.0
C2044 C 0.14846 0.64776 0.36592 0.0
C2045 C 0.15651 0.64883 0.40285 0.0
C2046 C 0.13045 0.62846 0.41918 0.0
C2047 C 0.09685 0.60741 0.39849 0.0
C2048 C 0.08957 0.60723 0.36118 0.0
H2049 H 0.34998 0.2274 0.30275 0.0
H2050 H 0.25028 0.14558 0.30237 0.0
H2051 H 0.27847 0.11121 0.33454 0.0
H2052 H 0.39021 0.17717 0.28792 0.0
H2053 H 0.43211 0.19988 0.31821 0.0
H2054 H 0.40528 0.22175 0.29972 0.0
H2055 H 0.40827 0.2405 0.36252 0.0
H2056 H 0.43557 0.21909 0.38137 0.0
H2057 H 0.39607 0.20894 0.39413 0.0
H2058 H 0.31461 0.08126 0.35805 0.0
H2059 H 0.35871 0.05927 0.37933 0.0
H2060 H 0.43883 0.15794 0.36847 0.0
C2061 C 0.33433 0.20292 0.31097 0.0
C2062 C 0.29742 0.1899 0.30081 0.0
C2063 C 0.27817 0.15697 0.31074 0.0
C2064 C 0.2941 0.13681 0.3288 0.0
C2065 C 0.32995 0.14951 0.33729 0.0
C2066 C 0.35019 0.182 0.32961 0.0
C2067 C 0.38841 0.18799 0.34123 0.0
C2068 C 0.40497 0.19724 0.30989 0.0
C2069 C 0.40828 0.21579 0.37161 0.0
C2070 C 0.38581 0.15316 0.35437 0.0
C2071 C 0.35162 0.13174 0.35194 0.0
C2072 C 0.3416 0.09794 0.36062 0.0
C2073 C 0.367 0.08551 0.37243 0.0
C2074 C 0.40256 0.10647 0.37567 0.0
C2075 C 0.41203 0.14111 0.36672 0.0
H2076 H 0.68652 0.77947 0.70633 0.0
H2077 H 0.77274 0.83222 0.66008 0.0
H2078 H 0.74143 0.86308 0.6238 0.0
H2079 H 0.61527 0.77575 0.6262 0.0
H2080 H 0.59116 0.78458 0.65224 0.0
H2081 H 0.61759 0.76227 0.67077 0.0
H2082 H 0.65012 0.80717 0.72357 0.0
H2083 H 0.62412 0.82986 0.70512 0.0
H2084 H 0.67069 0.85149 0.71528 0.0
H2085 H 0.70398 0.89212 0.59593 0.0
H2086 H 0.66239 0.91752 0.57748 0.0
H2087 H 0.59965 0.85039 0.64328 0.0
C2088 C 0.6979 0.79623 0.6872 0.0
C2089 C 0.73146 0.80173 0.68449 0.0
C2090 C 0.74652 0.82611 0.66128 0.0
C2091 C 0.729 0.84412 0.64078 0.0
C2092 C 0.69641 0.83859 0.64424 0.0
C2093 C 0.6808 0.81526 0.66679 0.0
C2094 C 0.64687 0.81694 0.66751 0.0
C2095 C 0.61588 0.78285 0.65334 0.0
C2096 C 0.64803 0.82696 0.70511 0.0
C2097 C 0.64629 0.84505 0.64227 0.0
C2098 C 0.67515 0.85683 0.62913 0.0
C2099 C 0.68124 0.88304 0.60604 0.0
C2100 C 0.65741 0.89768 0.59595 0.0
C2101 C 0.62745 0.88668 0.60893 0.0
C2102 C 0.62192 0.85957 0.6324 0.0
H2103 H 0.66541 0.1443 0.24978 0.0
H2104 H 0.75207 0.2114 0.33211 0.0
H2105 H 0.719 0.1895 0.37598 0.0
H2106 H 0.59358 0.14167 0.28096 0.0
H2107 H 0.56948 0.09671 0.27066 0.0
H2108 H 0.60018 0.12136 0.24613 0.0
H2109 H 0.62847 0.07832 0.26359 0.0
H2110 H 0.59874 0.05646 0.29015 0.0
H2111 H 0.64478 0.07357 0.30983 0.0
H2112 H 0.67605 0.16377 0.41062 0.0
H2113 H 0.62756 0.12919 0.43628 0.0
H2114 H 0.56928 0.07359 0.33429 0.0
C2115 C 0.67718 0.15438 0.27703 0.0
C2116 C 0.71042 0.18181 0.2869 0.0
C2117 C 0.72569 0.19302 0.32308 0.0
C2118 C 0.70728 0.18002 0.34855 0.0
C2119 C 0.67394 0.15456 0.33781 0.0
C2120 C 0.6592 0.14101 0.3032 0.0
C2121 C 0.6237 0.1119 0.29981 0.0
C2122 C 0.59512 0.11837 0.27275 0.0
C2123 C 0.62395 0.07806 0.29029 0.0
C2124 C 0.62025 0.11299 0.33736 0.0
C2125 C 0.64976 0.13764 0.35878 0.0
C2126 C 0.65286 0.14406 0.39431 0.0
C2127 C 0.62513 0.12441 0.4086 0.0
C2128 C 0.59464 0.09876 0.38735 0.0
C2129 C 0.59222 0.09311 0.3512 0.0
H2130 H 0.80499 0.67319 0.28503 0.0
H2131 H 0.86242 0.76292 0.35712 0.0
H2132 H 0.8958 0.73434 0.39457 0.0
H2133 H 0.80541 0.60744 0.35062 0.0
H2134 H 0.81337 0.58238 0.32155 0.0
H2135 H 0.78979 0.60743 0.30329 0.0
H2136 H 0.83339 0.63743 0.26591 0.0
H2137 H 0.85743 0.61287 0.28429 0.0
H2138 H 0.87894 0.65868 0.28764 0.0
H2139 H 0.92628 0.69855 0.42213 0.0
H2140 H 0.95301 0.65847 0.43796 0.0
H2141 H 0.88 0.59123 0.34687 0.0
C2142 C 0.82341 0.68604 0.30966 0.0
C2143 C 0.82932 0.71963 0.31951 0.0
C2144 C 0.85592 0.73664 0.35019 0.0
C2145 C 0.87534 0.72067 0.37145 0.0
C2146 C 0.86919 0.68785 0.36106 0.0
C2147 C 0.84405 0.67067 0.33078 0.0
C2148 C 0.8457 0.63706 0.32385 0.0
C2149 C 0.81153 0.60677 0.3249 0.0
C2150 C 0.85438 0.63649 0.28831 0.0
C2151 C 0.87546 0.63808 0.35506 0.0
C2152 C 0.88832 0.66764 0.37615 0.0
C2153 C 0.9161 0.6751 0.40605 0.0
C2154 C 0.93105 0.65182 0.41501 0.0
C2155 C 0.91857 0.62093 0.39434 0.0
C2156 C 0.89036 0.61433 0.36358 0.0
H2157 H 0.35687 0.79305 0.35211 0.0
H2158 H 0.27272 0.82309 0.33994 0.0
H2159 H 0.30384 0.85973 0.39498 0.0
H2160 H 0.38459 0.80203 0.45566 0.0
H2161 H 0.42941 0.81788 0.45513 0.0
H2162 H 0.39628 0.78612 0.42172 0.0
H2163 H 0.4177 0.82505 0.3725 0.0
H2164 H 0.45079 0.85646 0.40554 0.0
H2165 H 0.4206 0.86779 0.37282 0.0
H2166 H 0.34831 0.90266 0.4402 0.0
H2167 H 0.40359 0.9511 0.46715 0.0
H2168 H 0.45987 0.89375 0.45288 0.0
C2169 C 0.34437 0.80603 0.36202 0.0
C2170 C 0.31243 0.80511 0.34195 0.0
C2171 C 0.29737 0.82364 0.35484 0.0
C2172 C 0.31462 0.8441 0.38643 0.0
C2173 C 0.34682 0.84554 0.40509 0.0
C2174 C 0.36149 0.82676 0.39347 0.0
C2175 C 0.39882 0.83744 0.41441 0.0
C2176 C 0.40248 0.80919 0.43814 0.0
C2177 C 0.42338 0.8473 0.38985 0.0
C2178 C 0.40408 0.86786 0.43647 0.0
C2179 C 0.37322 0.87095 0.43211 0.0
C2180 C 0.37237 0.89994 0.44491 0.0
C2181 C 0.40383 0.92734 0.46026 0.0
C2182 C 0.43552 0.92544 0.46264 0.0
C2183 C 0.43567 0.89485 0.45254 0.0
H2184 H 0.18073 0.3546 0.41019 0.0
H2185 H 0.18826 0.37944 0.30298 0.0
H2186 H 0.15028 0.40911 0.29918 0.0
H2187 H 0.09079 0.3415 0.39629 0.0
H2188 H 0.09858 0.36019 0.43951 0.0
H2189 H 0.12433 0.33907 0.43266 0.0
H2190 H 0.1802 0.39361 0.45716 0.0
H2191 H 0.15463 0.41494 0.46387 0.0
H2192 H 0.18504 0.43327 0.43726 0.0
H2193 H 0.11407 0.43956 0.30888 0.0
H2194 H 0.08203 0.46621 0.33026 0.0
H2195 H 0.09806 0.42097 0.43107 0.0
C2196 C 0.17443 0.36621 0.38582 0.0
C2197 C 0.18778 0.36466 0.35691 0.0
C2198 C 0.17822 0.37984 0.32539 0.0
C2199 C 0.15678 0.39698 0.32307 0.0
C2200 C 0.14479 0.39862 0.35239 0.0
C2201 C 0.15309 0.38336 0.38306 0.0
C2202 C 0.13756 0.38933 0.41113 0.0
C2203 C 0.11125 0.35551 0.42044 0.0
C2204 C 0.16606 0.40896 0.4443 0.0
C2205 C 0.11968 0.41085 0.39176 0.0
C2206 C 0.12396 0.41582 0.35784 0.0
C2207 C 0.11029 0.43546 0.33527 0.0
C2208 C 0.09184 0.45035 0.34763 0.0
C2209 C 0.0871 0.44569 0.38238 0.0
C2210 C 0.10126 0.42543 0.40449 0.0
H2211 H 0.39584 0.17848 0.5971 0.0
H2212 H 0.4003 0.16489 0.70878 0.0
H2213 H 0.42264 0.12166 0.7076 0.0
H2214 H 0.37218 0.09071 0.57059 0.0
H2215 H 0.39917 0.10219 0.54016 0.0
H2216 H 0.38086 0.13013 0.54905 0.0
H2217 H 0.44226 0.17946 0.56728 0.0
H2218 H 0.46076 0.15166 0.55856 0.0
H2219 H 0.47552 0.17384 0.60145 0.0
H2220 H 0.44739 0.08161 0.69506 0.0
H2221 H 0.47143 0.04744 0.67187 0.0
H2222 H 0.4542 0.08974 0.56942 0.0
C2223 C 0.40159 0.16662 0.62144 0.0
C2224 C 0.39612 0.17538 0.65304 0.0
C2225 C 0.40355 0.15849 0.684 0.0
C2226 C 0.41656 0.13397 0.6837 0.0
C2227 C 0.42221 0.12652 0.6523 0.0
C2228 C 0.41489 0.14231 0.62172 0.0
C2229 C 0.42448 0.13064 0.59179 0.0
C2230 C 0.39225 0.11233 0.56109 0.0
C2231 C 0.45242 0.16069 0.57903 0.0
C2232 C 0.43869 0.1061 0.61042 0.0
C2233 C 0.43698 0.10394 0.64525 0.0
C2234 C 0.4489 0.08316 0.66782 0.0
C2235 C 0.46285 0.06406 0.65445 0.0
C2236 C 0.46502 0.06588 0.6188 0.0
C2237 C 0.45267 0.08732 0.59666 0.0
H2238 H 0.81574 0.29489 0.66997 0.0
H2239 H 0.87889 0.32431 0.77788 0.0
H2240 H 0.92348 0.37237 0.75706 0.0
H2241 H 0.88101 0.30428 0.63508 0.0
H2242 H 0.86752 0.32089 0.5936 0.0
H2243 H 0.83586 0.29484 0.6164 0.0
H2244 H 0.81479 0.34237 0.61776 0.0
H2245 H 0.84537 0.36764 0.59325 0.0
H2246 H 0.8461 0.38481 0.6345 0.0
H2247 H 0.96469 0.41002 0.72522 0.0
H2248 H 1.00064 0.43659 0.68395 0.0
H2249 H 0.91315 0.38152 0.59522 0.0
C2250 C 0.83821 0.31264 0.68911 0.0
C2251 C 0.84357 0.30707 0.72556 0.0
C2252 C 0.87415 0.32911 0.74998 0.0
C2253 C 0.8995 0.3564 0.73839 0.0
C2254 C 0.89418 0.36076 0.70218 0.0
C2255 C 0.86424 0.33973 0.67779 0.0
C2256 C 0.86755 0.34683 0.64021 0.0
C2257 C 0.86271 0.3148 0.62017 0.0
C2258 C 0.84192 0.36127 0.62026 0.0
C2259 C 0.90461 0.37364 0.64747 0.0
C2260 C 0.91906 0.38183 0.68338 0.0
C2261 C 0.95353 0.40431 0.69699 0.0
C2262 C 0.97384 0.41903 0.67329 0.0
C2263 C 0.95977 0.411 0.63634 0.0
C2264 C 0.92461 0.38813 0.62331 0.0
H2265 H 0.14581 0.68521 0.67843 0.0
H2266 H 0.23157 0.72174 0.63002 0.0
H2267 H 0.19192 0.6934 0.57292 0.0
H2268 H 0.10651 0.60964 0.64779 0.0
H2269 H 0.06206 0.60394 0.63746 0.0
H2270 H 0.09411 0.63642 0.66977 0.0
H2271 H 0.07651 0.68102 0.63452 0.0
H2272 H 0.04443 0.64835 0.60139 0.0
H2273 H 0.07702 0.68542 0.58862 0.0
H2274 H 0.15092 0.64577 0.53208 0.0
H2275 H 0.11149 0.58644 0.51093 0.0
H2276 H 0.04726 0.58471 0.57841 0.0
C2277 C 0.15576 0.6882 0.65531 0.0
C2278 C 0.19162 0.70404 0.65864 0.0
C2279 C 0.20424 0.70792 0.62824 0.0
C2280 C 0.18175 0.69279 0.59546 0.0
C2281 C 0.14657 0.67496 0.59332 0.0
C2282 C 0.13337 0.67365 0.62222 0.0
C2283 C 0.09586 0.64838 0.61475 0.0
C2284 C 0.08937 0.62311 0.64416 0.0
C2285 C 0.07206 0.66691 0.60949 0.0
C2286 C 0.09215 0.63153 0.58007 0.0
C2287 C 0.12105 0.64838 0.56713 0.0
C2288 C 0.12727 0.63331 0.5405 0.0
C2289 C 0.10469 0.59965 0.52835 0.0
C2290 C 0.07601 0.58202 0.54229 0.0
C2291 C 0.06866 0.59862 0.56684 0.0
loop_
_geom_bond_atom_site_label_1
_geom_bond_atom_site_label_2
_geom_bond_distance
_geom_bond_site_symmetry_2
_ccdc_geom_bond_type
Tb0 N31 2.660 . S
Tb0 N38 2.600 . S
Tb0 O44 2.546 . S
Tb0 O45 2.610 . S
Tb0 O47 2.320 . S
Tb0 O48 2.552 . S
Tb0 O49 2.413 . S
Tb0 O51 2.362 . S
Tb0 O52 2.421 . S
Tb0 C64 2.833 . S
C1 C4 1.432 . S
C1 C5 1.414 . S
C1 N8 1.359 . S
C2 C4 1.417 . S
C2 C6 1.432 . S
C2 C14 1.410 . S
C3 C5 1.444 . S
C3 C6 1.317 . S
C3 H26 0.929 . S
C4 C1 1.432 . S
C4 C2 1.417 . S
C4 N12 1.360 . S
C5 C1 1.414 . S
C5 C3 1.444 . S
C5 C10 1.385 . S
C6 C2 1.432 . S
C6 C3 1.317 . S
C6 H18 0.930 . S
C7 C9 1.392 . S
C7 C10 1.370 . S
C7 H19 0.931 . S
N8 C1 1.359 . S
N8 C9 1.327 . S
N8 Tb11 2.600 . S
C9 C7 1.392 . S
C9 N8 1.327 . S
C9 H16 0.930 . S
C10 C5 1.385 . S
C10 C7 1.370 . S
C10 H29 0.930 . S
Tb11 N8 2.600 . S
Tb11 N12 2.660 . S
Tb11 O45 2.362 . S
Tb11 O46 2.421 . S
Tb11 O50 2.546 . S
Tb11 O51 2.610 . S
Tb11 O53 2.320 . S
Tb11 O54 2.552 . S
Tb11 O55 2.413 . S
Tb11 C75 2.833 . S
N12 C4 1.360 . S
N12 Tb11 2.660 . S
N12 C13 1.305 . S
C13 N12 1.305 . S
C13 C15 1.407 . S
C13 H20 0.930 . S
C14 C2 1.410 . S
C14 C15 1.345 . S
C14 H22 0.930 . S
C15 C13 1.407 . S
C15 C14 1.345 . S
C15 H17 0.930 . S
H16 C9 0.930 . S
H17 C15 0.930 . S
H18 C6 0.930 . S
H19 C7 0.931 . S
H20 C13 0.930 . S
H21 C35 0.930 . S
H22 C14 0.930 . S
H23 C41 0.930 . S
H24 C32 0.930 . S
H25 C39 0.931 . S
H26 C3 0.929 . S
H27 C33 0.930 . S
H28 C66 0.930 . S
H29 C10 0.930 . S
H30 C65 0.929 . S
N31 Tb0 2.660 . S
N31 C32 1.305 . S
N31 C36 1.360 . S
C32 H24 0.930 . S
C32 N31 1.305 . S
C32 C35 1.407 . S
C33 H27 0.930 . S
C33 C34 1.410 . S
C33 C35 1.345 . S
C34 C33 1.410 . S
C34 C36 1.417 . S
C34 C66 1.432 . S
C35 H21 0.930 . S
C35 C32 1.407 . S
C35 C33 1.345 . S
C36 N31 1.360 . S
C36 C34 1.417 . S
C36 C40 1.432 . S
H37 C42 0.930 . S
N38 Tb0 2.600 . S
N38 C40 1.359 . S
N38 C41 1.327 . S
C39 H25 0.931 . S
C39 C41 1.392 . S
C39 C42 1.370 . S
C40 C36 1.432 . S
C40 N38 1.359 . S
C40 C43 1.414 . S
C41 H23 0.930 . S
C41 N38 1.327 . S
C41 C39 1.392 . S
C42 H37 0.930 . S
C42 C39 1.370 . S
C42 C43 1.385 . S
C43 C40 1.414 . S
C43 C42 1.385 . S
C43 C65 1.444 . S
O44 Tb0 2.546 . S
O44 C64 1.251 . S
O45 Tb0 2.610 . S
O45 Tb11 2.362 . S
O45 C56 1.283 . S
O46 Tb11 2.421 . S
O46 C63 1.262 . S
O47 Tb0 2.320 . S
O47 C63 1.260 . S
O48 Tb0 2.552 . S
O48 C56 1.243 . S
O49 Tb0 2.413 . S
O49 C64 1.256 . S
O50 Tb11 2.546 . S
O50 C75 1.251 . S
O51 Tb0 2.362 . S
O51 Tb11 2.610 . S
O51 C67 1.283 . S
O52 Tb0 2.421 . S
O52 C74 1.262 . S
O53 Tb11 2.320 . S
O53 C74 1.260 . S
O54 Tb11 2.552 . S
O54 C67 1.243 . S
O55 Tb11 2.413 . S
O55 C75 1.256 . S
C56 O45 1.283 . S
C56 O48 1.243 . S
C57 C59 1.382 . S
C57 C61 1.393 . S
C57 C64 1.500 . S
C58 C59 1.400 . S
C58 C60 1.384 . S
C59 C57 1.382 . S
C59 C58 1.400 . S
C59 H76 0.930 . S
C60 C58 1.384 . S
C60 C62 1.392 . S
C60 H77 0.931 . S
C61 C57 1.393 . S
C61 C62 1.401 . S
C61 H78 0.930 . S
C62 C60 1.392 . S
C62 C61 1.401 . S
C62 H79 0.930 . S
C63 O46 1.262 . S
C63 O47 1.260 . S
C64 Tb0 2.833 . S
C64 O44 1.251 . S
C64 O49 1.256 . S
C64 C57 1.500 . S
C65 H30 0.929 . S
C65 C43 1.444 . S
C65 C66 1.317 . S
C66 H28 0.930 . S
C66 C34 1.432 . S
C66 C65 1.317 . S
C67 O51 1.283 . S
C67 O54 1.243 . S
C68 C69 1.382 . S
C68 C72 1.393 . S
C68 C75 1.500 . S
C69 C68 1.382 . S
C69 C70 1.400 . S
C69 H80 0.930 . S
C70 C69 1.400 . S
C70 C71 1.384 . S
C71 C70 1.384 . S
C71 C73 1.392 . S
C71 H81 0.931 . S
C72 C68 1.393 . S
C72 C73 1.401 . S
C72 H82 0.930 . S
C73 C71 1.392 . S
C73 C72 1.401 . S
C73 H83 0.930 . S
C74 O52 1.262 . S
C74 O53 1.260 . S
C75 Tb11 2.833 . S
C75 O50 1.251 . S
C75 O55 1.256 . S
C75 C68 1.500 . S
H76 C59 0.930 . S
H77 C60 0.931 . S
H78 C61 0.930 . S
H79 C62 0.930 . S
H80 C69 0.930 . S
H81 C71 0.931 . S
H82 C72 0.930 . S
H83 C73 0.930 . S
Tb84 N115 2.660 . S
Tb84 N122 2.600 . S
Tb84 O128 2.546 . S
Tb84 O129 2.610 . S
Tb84 O131 2.320 . S
Tb84 O132 2.552 . S
Tb84 O133 2.413 . S
Tb84 O135 2.362 . S
Tb84 O136 2.421 . S
Tb84 C148 2.833 . S
C85 C88 1.432 . S
C85 C89 1.414 . S
C85 N92 1.359 . S
C86 C88 1.417 . S
C86 C90 1.432 . S
C86 C98 1.410 . S
C87 C89 1.444 . S
C87 C90 1.317 . S
C87 H110 0.929 . S
C88 C85 1.432 . S
C88 C86 1.417 . S
C88 N96 1.360 . S
C89 C85 1.414 . S
C89 C87 1.444 . S
C89 C94 1.385 . S
C90 C86 1.432 . S
C90 C87 1.317 . S
C90 H102 0.930 . S
C91 C93 1.392 . S
C91 C94 1.370 . S
C91 H103 0.931 . S
N92 C85 1.359 . S
N92 C93 1.327 . S
N92 Tb95 2.600 . S
C93 C91 1.392 . S
C93 N92 1.327 . S
C93 H100 0.930 . S
C94 C89 1.385 . S
C94 C91 1.370 . S
C94 H113 0.930 . S
Tb95 N92 2.600 . S
Tb95 N96 2.660 . S
Tb95 O129 2.362 . S
Tb95 O130 2.421 . S
Tb95 O134 2.546 . S
Tb95 O135 2.610 . S
Tb95 O137 2.320 . S
Tb95 O138 2.552 . S
Tb95 O139 2.413 . S
Tb95 C159 2.833 . S
N96 C88 1.360 . S
N96 Tb95 2.660 . S
N96 C97 1.305 . S
C97 N96 1.305 . S
C97 C99 1.407 . S
C97 H104 0.930 . S
C98 C86 1.410 . S
C98 C99 1.345 . S
C98 H106 0.930 . S
C99 C97 1.407 . S
C99 C98 1.345 . S
C99 H101 0.930 . S
H100 C93 0.930 . S
H101 C99 0.930 . S
H102 C90 0.930 . S
H103 C91 0.931 . S
H104 C97 0.930 . S
H105 C119 0.930 . S
H106 C98 0.930 . S
H107 C125 0.930 . S
H108 C116 0.930 . S
H109 C123 0.931 . S
H110 C87 0.929 . S
H111 C117 0.930 . S
H112 C150 0.930 . S
H113 C94 0.930 . S
H114 C149 0.929 . S
N115 Tb84 2.660 . S
N115 C116 1.305 . S
N115 C120 1.360 . S
C116 H108 0.930 . S
C116 N115 1.305 . S
C116 C119 1.407 . S
C117 H111 0.930 . S
C117 C118 1.410 . S
C117 C119 1.345 . S
C118 C117 1.410 . S
C118 C120 1.417 . S
C118 C150 1.432 . S
C119 H105 0.930 . S
C119 C116 1.407 . S
C119 C117 1.345 . S
C120 N115 1.360 . S
C120 C118 1.417 . S
C120 C124 1.432 . S
H121 C126 0.930 . S
N122 Tb84 2.600 . S
N122 C124 1.359 . S
N122 C125 1.327 . S
C123 H109 0.931 . S
C123 C125 1.392 . S
C123 C126 1.370 . S
C124 C120 1.432 . S
C124 N122 1.359 . S
C124 C127 1.414 . S
C125 H107 0.930 . S
C125 N122 1.327 . S
C125 C123 1.392 . S
C126 H121 0.930 . S
C126 C123 1.370 . S
C126 C127 1.385 . S
C127 C124 1.414 . S
C127 C126 1.385 . S
C127 C149 1.444 . S
O128 Tb84 2.546 . S
O128 C148 1.251 . S
O129 Tb84 2.610 . S
O129 Tb95 2.362 . S
O129 C140 1.283 . S
O130 Tb95 2.421 . S
O130 C147 1.262 . S
O131 Tb84 2.320 . S
O131 C147 1.260 . S
O132 Tb84 2.552 . S
O132 C140 1.243 . S
O133 Tb84 2.413 . S
O133 C148 1.256 . S
O134 Tb95 2.546 . S
O134 C159 1.251 . S
O135 Tb84 2.362 . S
O135 Tb95 2.610 . S
O135 C151 1.283 . S
O136 Tb84 2.421 . S
O136 C158 1.262 . S
O137 Tb95 2.320 . S
O137 C158 1.260 . S
O138 Tb95 2.552 . S
O138 C151 1.243 . S
O139 Tb95 2.413 . S
O139 C159 1.256 . S
C140 O129 1.283 . S
C140 O132 1.243 . S
C141 C143 1.382 . S
C141 C145 1.393 . S
C141 C148 1.500 . S
C142 C143 1.400 . S
C142 C144 1.384 . S
C143 C141 1.382 . S
C143 C142 1.400 . S
C143 H160 0.930 . S
C144 C142 1.384 . S
C144 C146 1.392 . S
C144 H161 0.931 . S
C145 C141 1.393 . S
C145 C146 1.401 . S
C145 H162 0.930 . S
C146 C144 1.392 . S
C146 C145 1.401 . S
C146 H163 0.930 . S
C147 O130 1.262 . S
C147 O131 1.260 . S
C148 Tb84 2.833 . S
C148 O128 1.251 . S
C148 O133 1.256 . S
C148 C141 1.500 . S
C149 H114 0.929 . S
C149 C127 1.444 . S
C149 C150 1.317 . S
C150 H112 0.930 . S
C150 C118 1.432 . S
C150 C149 1.317 . S
C151 O135 1.283 . S
C151 O138 1.243 . S
C152 C153 1.382 . S
C152 C156 1.393 . S
C152 C159 1.500 . S
C153 C152 1.382 . S
C153 C154 1.400 . S
C153 H164 0.930 . S
C154 C153 1.400 . S
C154 C155 1.384 . S
C155 C154 1.384 . S
C155 C157 1.392 . S
C155 H165 0.931 . S
C156 C152 1.393 . S
C156 C157 1.401 . S
C156 H166 0.930 . S
C157 C155 1.392 . S
C157 C156 1.401 . S
C157 H167 0.930 . S
C158 O136 1.262 . S
C158 O137 1.260 . S
C159 Tb95 2.833 . S
C159 O134 1.251 . S
C159 O139 1.256 . S
C159 C152 1.500 . S
H160 C143 0.930 . S
H161 C144 0.931 . S
H162 C145 0.930 . S
H163 C146 0.930 . S
H164 C153 0.930 . S
H165 C155 0.931 . S
H166 C156 0.930 . S
H167 C157 0.930 . S
Tb168 N199 2.660 . S
Tb168 N206 2.600 . S
Tb168 O212 2.546 . S
Tb168 O213 2.610 . S
Tb168 O215 2.320 . S
Tb168 O216 2.552 . S
Tb168 O217 2.413 . S
Tb168 O219 2.362 . S
Tb168 O220 2.421 . S
Tb168 C232 2.833 . S
C169 C172 1.432 . S
C169 C173 1.414 . S
C169 N176 1.359 . S
C170 C172 1.417 . S
C170 C174 1.432 . S
C170 C182 1.410 . S
C171 C173 1.444 . S
C171 C174 1.317 . S
C171 H194 0.929 . S
C172 C169 1.432 . S
C172 C170 1.417 . S
C172 N180 1.360 . S
C173 C169 1.414 . S
C173 C171 1.444 . S
C173 C178 1.385 . S
C174 C170 1.432 . S
C174 C171 1.317 . S
C174 H186 0.930 . S
C175 C177 1.392 . S
C175 C178 1.370 . S
C175 H187 0.931 . S
N176 C169 1.359 . S
N176 C177 1.327 . S
N176 Tb179 2.600 . S
C177 C175 1.392 . S
C177 N176 1.327 . S
C177 H184 0.930 . S
C178 C173 1.385 . S
C178 C175 1.370 . S
C178 H197 0.930 . S
Tb179 N176 2.600 . S
Tb179 N180 2.660 . S
Tb179 O213 2.362 . S
Tb179 O214 2.421 . S
Tb179 O218 2.546 . S
Tb179 O219 2.610 . S
Tb179 O221 2.320 . S
Tb179 O222 2.552 . S
Tb179 O223 2.413 . S
Tb179 C243 2.833 . S
N180 C172 1.360 . S
N180 Tb179 2.660 . S
N180 C181 1.305 . S
C181 N180 1.305 . S
C181 C183 1.407 . S
C181 H188 0.930 . S
C182 C170 1.410 . S
C182 C183 1.345 . S
C182 H190 0.930 . S
C183 C181 1.407 . S
C183 C182 1.345 . S
C183 H185 0.930 . S
H184 C177 0.930 . S
H185 C183 0.930 . S
H186 C174 0.930 . S
H187 C175 0.931 . S
H188 C181 0.930 . S
H189 C203 0.930 . S
H190 C182 0.930 . S
H191 C209 0.930 . S
H192 C200 0.930 . S
H193 C207 0.931 . S
H194 C171 0.929 . S
H195 C201 0.930 . S
H196 C234 0.930 . S
H197 C178 0.930 . S
H198 C233 0.929 . S
N199 Tb168 2.660 . S
N199 C200 1.305 . S
N199 C204 1.360 . S
C200 H192 0.930 . S
C200 N199 1.305 . S
C200 C203 1.407 . S
C201 H195 0.930 . S
C201 C202 1.410 . S
C201 C203 1.345 . S
C202 C201 1.410 . S
C202 C204 1.417 . S
C202 C234 1.432 . S
C203 H189 0.930 . S
C203 C200 1.407 . S
C203 C201 1.345 . S
C204 N199 1.360 . S
C204 C202 1.417 . S
C204 C208 1.432 . S
H205 C210 0.930 . S
N206 Tb168 2.600 . S
N206 C208 1.359 . S
N206 C209 1.327 . S
C207 H193 0.931 . S
C207 C209 1.392 . S
C207 C210 1.370 . S
C208 C204 1.432 . S
C208 N206 1.359 . S
C208 C211 1.414 . S
C209 H191 0.930 . S
C209 N206 1.327 . S
C209 C207 1.392 . S
C210 H205 0.930 . S
C210 C207 1.370 . S
C210 C211 1.385 . S
C211 C208 1.414 . S
C211 C210 1.385 . S
C211 C233 1.444 . S
O212 Tb168 2.546 . S
O212 C232 1.251 . S
O213 Tb168 2.610 . S
O213 Tb179 2.362 . S
O213 C224 1.283 . S
O214 Tb179 2.421 . S
O214 C231 1.262 . S
O215 Tb168 2.320 . S
O215 C231 1.260 . S
O216 Tb168 2.552 . S
O216 C224 1.243 . S
O217 Tb168 2.413 . S
O217 C232 1.256 . S
O218 Tb179 2.546 . S
O218 C243 1.251 . S
O219 Tb168 2.362 . S
O219 Tb179 2.610 . S
O219 C235 1.283 . S
O220 Tb168 2.421 . S
O220 C242 1.262 . S
O221 Tb179 2.320 . S
O221 C242 1.260 . S
O222 Tb179 2.552 . S
O222 C235 1.243 . S
O223 Tb179 2.413 . S
O223 C243 1.256 . S
C224 O213 1.283 . S
C224 O216 1.243 . S
C225 C227 1.382 . S
C225 C229 1.393 . S
C225 C232 1.500 . S
C226 C227 1.400 . S
C226 C228 1.384 . S
C227 C225 1.382 . S
C227 C226 1.400 . S
C227 H244 0.930 . S
C228 C226 1.384 . S
C228 C230 1.392 . S
C228 H245 0.931 . S
C229 C225 1.393 . S
C229 C230 1.401 . S
C229 H246 0.930 . S
C230 C228 1.392 . S
C230 C229 1.401 . S
C230 H247 0.930 . S
C231 O214 1.262 . S
C231 O215 1.260 . S
C232 Tb168 2.833 . S
C232 O212 1.251 . S
C232 O217 1.256 . S
C232 C225 1.500 . S
C233 H198 0.929 . S
C233 C211 1.444 . S
C233 C234 1.317 . S
C234 H196 0.930 . S
C234 C202 1.432 . S
C234 C233 1.317 . S
C235 O219 1.283 . S
C235 O222 1.243 . S
C236 C237 1.382 . S
C236 C240 1.393 . S
C236 C243 1.500 . S
C237 C236 1.382 . S
C237 C238 1.400 . S
C237 H248 0.930 . S
C238 C237 1.400 . S
C238 C239 1.384 . S
C239 C238 1.384 . S
C239 C241 1.392 . S
C239 H249 0.931 . S
C240 C236 1.393 . S
C240 C241 1.401 . S
C240 H250 0.930 . S
C241 C239 1.392 . S
C241 C240 1.401 . S
C241 H251 0.930 . S
C242 O220 1.262 . S
C242 O221 1.260 . S
C243 Tb179 2.833 . S
C243 O218 1.251 . S
C243 O223 1.256 . S
C243 C236 1.500 . S
H244 C227 0.930 . S
H245 C228 0.931 . S
H246 C229 0.930 . S
H247 C230 0.930 . S
H248 C237 0.930 . S
H249 C239 0.931 . S
H250 C240 0.930 . S
H251 C241 0.930 . S
Tb252 N283 2.660 . S
Tb252 N290 2.600 . S
Tb252 O296 2.546 . S
Tb252 O297 2.610 . S
Tb252 O299 2.320 . S
Tb252 O300 2.552 . S
Tb252 O301 2.413 . S
Tb252 O303 2.362 . S
Tb252 O304 2.421 . S
Tb252 C316 2.833 . S
C253 C256 1.432 . S
C253 C257 1.414 . S
C253 N260 1.359 . S
C254 C256 1.417 . S
C254 C258 1.432 . S
C254 C266 1.410 . S
C255 C257 1.444 . S
C255 C258 1.317 . S
C255 H278 0.929 . S
C256 C253 1.432 . S
C256 C254 1.417 . S
C256 N264 1.360 . S
C257 C253 1.414 . S
C257 C255 1.444 . S
C257 C262 1.385 . S
C258 C254 1.432 . S
C258 C255 1.317 . S
C258 H270 0.930 . S
C259 C261 1.392 . S
C259 C262 1.370 . S
C259 H271 0.931 . S
N260 C253 1.359 . S
N260 C261 1.327 . S
N260 Tb263 2.600 . S
C261 C259 1.392 . S
C261 N260 1.327 . S
C261 H268 0.930 . S
C262 C257 1.385 . S
C262 C259 1.370 . S
C262 H281 0.930 . S
Tb263 N260 2.600 . S
Tb263 N264 2.660 . S
Tb263 O297 2.362 . S
Tb263 O298 2.421 . S
Tb263 O302 2.546 . S
Tb263 O303 2.610 . S
Tb263 O305 2.320 . S
Tb263 O306 2.552 . S
Tb263 O307 2.413 . S
Tb263 C327 2.833 . S
N264 C256 1.360 . S
N264 Tb263 2.660 . S
N264 C265 1.305 . S
C265 N264 1.305 . S
C265 C267 1.407 . S
C265 H272 0.930 . S
C266 C254 1.410 . S
C266 C267 1.345 . S
C266 H274 0.930 . S
C267 C265 1.407 . S
C267 C266 1.345 . S
C267 H269 0.930 . S
H268 C261 0.930 . S
H269 C267 0.930 . S
H270 C258 0.930 . S
H271 C259 0.931 . S
H272 C265 0.930 . S
H273 C287 0.930 . S
H274 C266 0.930 . S
H275 C293 0.930 . S
H276 C284 0.930 . S
H277 C291 0.931 . S
H278 C255 0.929 . S
H279 C285 0.930 . S
H280 C318 0.930 . S
H281 C262 0.930 . S
H282 C317 0.929 . S
N283 Tb252 2.660 . S
N283 C284 1.305 . S
N283 C288 1.360 . S
C284 H276 0.930 . S
C284 N283 1.305 . S
C284 C287 1.407 . S
C285 H279 0.930 . S
C285 C286 1.410 . S
C285 C287 1.345 . S
C286 C285 1.410 . S
C286 C288 1.417 . S
C286 C318 1.432 . S
C287 H273 0.930 . S
C287 C284 1.407 . S
C287 C285 1.345 . S
C288 N283 1.360 . S
C288 C286 1.417 . S
C288 C292 1.432 . S
H289 C294 0.930 . S
N290 Tb252 2.600 . S
N290 C292 1.359 . S
N290 C293 1.327 . S
C291 H277 0.931 . S
C291 C293 1.392 . S
C291 C294 1.370 . S
C292 C288 1.432 . S
C292 N290 1.359 . S
C292 C295 1.414 . S
C293 H275 0.930 . S
C293 N290 1.327 . S
C293 C291 1.392 . S
C294 H289 0.930 . S
C294 C291 1.370 . S
C294 C295 1.385 . S
C295 C292 1.414 . S
C295 C294 1.385 . S
C295 C317 1.444 . S
O296 Tb252 2.546 . S
O296 C316 1.251 . S
O297 Tb252 2.610 . S
O297 Tb263 2.362 . S
O297 C308 1.283 . S
O298 Tb263 2.421 . S
O298 C315 1.262 . S
O299 Tb252 2.320 . S
O299 C315 1.260 . S
O300 Tb252 2.552 . S
O300 C308 1.243 . S
O301 Tb252 2.413 . S
O301 C316 1.256 . S
O302 Tb263 2.546 . S
O302 C327 1.251 . S
O303 Tb252 2.362 . S
O303 Tb263 2.610 . S
O303 C319 1.283 . S
O304 Tb252 2.421 . S
O304 C326 1.262 . S
O305 Tb263 2.320 . S
O305 C326 1.260 . S
O306 Tb263 2.552 . S
O306 C319 1.243 . S
O307 Tb263 2.413 . S
O307 C327 1.256 . S
C308 O297 1.283 . S
C308 O300 1.243 . S
C309 C311 1.382 . S
C309 C313 1.393 . S
C309 C316 1.500 . S
C310 C311 1.400 . S
C310 C312 1.384 . S
C311 C309 1.382 . S
C311 C310 1.400 . S
C311 H328 0.930 . S
C312 C310 1.384 . S
C312 C314 1.392 . S
C312 H329 0.931 . S
C313 C309 1.393 . S
C313 C314 1.401 . S
C313 H330 0.930 . S
C314 C312 1.392 . S
C314 C313 1.401 . S
C314 H331 0.930 . S
C315 O298 1.262 . S
C315 O299 1.260 . S
C316 Tb252 2.833 . S
C316 O296 1.251 . S
C316 O301 1.256 . S
C316 C309 1.500 . S
C317 H282 0.929 . S
C317 C295 1.444 . S
C317 C318 1.317 . S
C318 H280 0.930 . S
C318 C286 1.432 . S
C318 C317 1.317 . S
C319 O303 1.283 . S
C319 O306 1.243 . S
C320 C321 1.382 . S
C320 C324 1.393 . S
C320 C327 1.500 . S
C321 C320 1.382 . S
C321 C322 1.400 . S
C321 H332 0.930 . S
C322 C321 1.400 . S
C322 C323 1.384 . S
C323 C322 1.384 . S
C323 C325 1.392 . S
C323 H333 0.931 . S
C324 C320 1.393 . S
C324 C325 1.401 . S
C324 H334 0.930 . S
C325 C323 1.392 . S
C325 C324 1.401 . S
C325 H335 0.930 . S
C326 O304 1.262 . S
C326 O305 1.260 . S
C327 Tb263 2.833 . S
C327 O302 1.251 . S
C327 O307 1.256 . S
C327 C320 1.500 . S
H328 C311 0.930 . S
H329 C312 0.931 . S
H330 C313 0.930 . S
H331 C314 0.930 . S
H332 C321 0.930 . S
H333 C323 0.931 . S
H334 C324 0.930 . S
H335 C325 0.930 . S
Tb336 N367 2.660 . S
Tb336 N374 2.600 . S
Tb336 O380 2.546 . S
Tb336 O381 2.610 . S
Tb336 O383 2.320 . S
Tb336 O384 2.552 . S
Tb336 O385 2.413 . S
Tb336 O387 2.362 . S
Tb336 O388 2.421 . S
Tb336 C400 2.833 . S
C337 C340 1.432 . S
C337 C341 1.414 . S
C337 N344 1.359 . S
C338 C340 1.417 . S
C338 C342 1.432 . S
C338 C350 1.410 . S
C339 C341 1.444 . S
C339 C342 1.317 . S
C339 H362 0.929 . S
C340 C337 1.432 . S
C340 C338 1.417 . S
C340 N348 1.360 . S
C341 C337 1.414 . S
C341 C339 1.444 . S
C341 C346 1.385 . S
C342 C338 1.432 . S
C342 C339 1.317 . S
C342 H354 0.930 . S
C343 C345 1.392 . S
C343 C346 1.370 . S
C343 H355 0.931 . S
N344 C337 1.359 . S
N344 C345 1.327 . S
N344 Tb347 2.600 . S
C345 C343 1.392 . S
C345 N344 1.327 . S
C345 H352 0.930 . S
C346 C341 1.385 . S
C346 C343 1.370 . S
C346 H365 0.930 . S
Tb347 N344 2.600 . S
Tb347 N348 2.660 . S
Tb347 O381 2.362 . S
Tb347 O382 2.421 . S
Tb347 O386 2.546 . S
Tb347 O387 2.610 . S
Tb347 O389 2.320 . S
Tb347 O390 2.552 . S
Tb347 O391 2.413 . S
Tb347 C411 2.833 . S
N348 C340 1.360 . S
N348 Tb347 2.660 . S
N348 C349 1.305 . S
C349 N348 1.305 . S
C349 C351 1.407 . S
C349 H356 0.930 . S
C350 C338 1.410 . S
C350 C351 1.345 . S
C350 H358 0.930 . S
C351 C349 1.407 . S
C351 C350 1.345 . S
C351 H353 0.930 . S
H352 C345 0.930 . S
H353 C351 0.930 . S
H354 C342 0.930 . S
H355 C343 0.931 . S
H356 C349 0.930 . S
H357 C371 0.930 . S
H358 C350 0.930 . S
H359 C377 0.930 . S
H360 C368 0.930 . S
H361 C375 0.931 . S
H362 C339 0.929 . S
H363 C369 0.930 . S
H364 C402 0.930 . S
H365 C346 0.930 . S
H366 C401 0.929 . S
N367 Tb336 2.660 . S
N367 C368 1.305 . S
N367 C372 1.360 . S
C368 H360 0.930 . S
C368 N367 1.305 . S
C368 C371 1.407 . S
C369 H363 0.930 . S
C369 C370 1.410 . S
C369 C371 1.345 . S
C370 C369 1.410 . S
C370 C372 1.417 . S
C370 C402 1.432 . S
C371 H357 0.930 . S
C371 C368 1.407 . S
C371 C369 1.345 . S
C372 N367 1.360 . S
C372 C370 1.417 . S
C372 C376 1.432 . S
H373 C378 0.930 . S
N374 Tb336 2.600 . S
N374 C376 1.359 . S
N374 C377 1.327 . S
C375 H361 0.931 . S
C375 C377 1.392 . S
C375 C378 1.370 . S
C376 C372 1.432 . S
C376 N374 1.359 . S
C376 C379 1.414 . S
C377 H359 0.930 . S
C377 N374 1.327 . S
C377 C375 1.392 . S
C378 H373 0.930 . S
C378 C375 1.370 . S
C378 C379 1.385 . S
C379 C376 1.414 . S
C379 C378 1.385 . S
C379 C401 1.444 . S
O380 Tb336 2.546 . S
O380 C400 1.251 . S
O381 Tb336 2.610 . S
O381 Tb347 2.362 . S
O381 C392 1.283 . S
O382 Tb347 2.421 . S
O382 C399 1.262 . S
O383 Tb336 2.320 . S
O383 C399 1.260 . S
O384 Tb336 2.552 . S
O384 C392 1.243 . S
O385 Tb336 2.413 . S
O385 C400 1.256 . S
O386 Tb347 2.546 . S
O386 C411 1.251 . S
O387 Tb336 2.362 . S
O387 Tb347 2.610 . S
O387 C403 1.283 . S
O388 Tb336 2.421 . S
O388 C410 1.262 . S
O389 Tb347 2.320 . S
O389 C410 1.260 . S
O390 Tb347 2.552 . S
O390 C403 1.243 . S
O391 Tb347 2.413 . S
O391 C411 1.256 . S
C392 O381 1.283 . S
C392 O384 1.243 . S
C393 C395 1.382 . S
C393 C397 1.393 . S
C393 C400 1.500 . S
C394 C395 1.400 . S
C394 C396 1.384 . S
C395 C393 1.382 . S
C395 C394 1.400 . S
C395 H412 0.930 . S
C396 C394 1.384 . S
C396 C398 1.392 . S
C396 H413 0.931 . S
C397 C393 1.393 . S
C397 C398 1.401 . S
C397 H414 0.930 . S
C398 C396 1.392 . S
C398 C397 1.401 . S
C398 H415 0.930 . S
C399 O382 1.262 . S
C399 O383 1.260 . S
C400 Tb336 2.833 . S
C400 O380 1.251 . S
C400 O385 1.256 . S
C400 C393 1.500 . S
C401 H366 0.929 . S
C401 C379 1.444 . S
C401 C402 1.317 . S
C402 H364 0.930 . S
C402 C370 1.432 . S
C402 C401 1.317 . S
C403 O387 1.283 . S
C403 O390 1.243 . S
C404 C405 1.382 . S
C404 C408 1.393 . S
C404 C411 1.500 . S
C405 C404 1.382 . S
C405 C406 1.400 . S
C405 H416 0.930 . S
C406 C405 1.400 . S
C406 C407 1.384 . S
C407 C406 1.384 . S
C407 C409 1.392 . S
C407 H417 0.931 . S
C408 C404 1.393 . S
C408 C409 1.401 . S
C408 H418 0.930 . S
C409 C407 1.392 . S
C409 C408 1.401 . S
C409 H419 0.930 . S
C410 O388 1.262 . S
C410 O389 1.260 . S
C411 Tb347 2.833 . S
C411 O386 1.251 . S
C411 O391 1.256 . S
C411 C404 1.500 . S
H412 C395 0.930 . S
H413 C396 0.931 . S
H414 C397 0.930 . S
H415 C398 0.930 . S
H416 C405 0.930 . S
H417 C407 0.931 . S
H418 C408 0.930 . S
H419 C409 0.930 . S
Tb420 N451 2.660 . S
Tb420 N458 2.600 . S
Tb420 O464 2.546 . S
Tb420 O465 2.610 . S
Tb420 O467 2.320 . S
Tb420 O468 2.552 . S
Tb420 O469 2.413 . S
Tb420 O471 2.362 . S
Tb420 O472 2.421 . S
Tb420 C484 2.833 . S
C421 C424 1.432 . S
C421 C425 1.414 . S
C421 N428 1.359 . S
C422 C424 1.417 . S
C422 C426 1.432 . S
C422 C434 1.410 . S
C423 C425 1.444 . S
C423 C426 1.317 . S
C423 H446 0.929 . S
C424 C421 1.432 . S
C424 C422 1.417 . S
C424 N432 1.360 . S
C425 C421 1.414 . S
C425 C423 1.444 . S
C425 C430 1.385 . S
C426 C422 1.432 . S
C426 C423 1.317 . S
C426 H438 0.930 . S
C427 C429 1.392 . S
C427 C430 1.370 . S
C427 H439 0.931 . S
N428 C421 1.359 . S
N428 C429 1.327 . S
N428 Tb431 2.600 . S
C429 C427 1.392 . S
C429 N428 1.327 . S
C429 H436 0.930 . S
C430 C425 1.385 . S
C430 C427 1.370 . S
C430 H449 0.930 . S
Tb431 N428 2.600 . S
Tb431 N432 2.660 . S
Tb431 O465 2.362 . S
Tb431 O466 2.421 . S
Tb431 O470 2.546 . S
Tb431 O471 2.610 . S
Tb431 O473 2.320 . S
Tb431 O474 2.552 . S
Tb431 O475 2.413 . S
Tb431 C495 2.833 . S
N432 C424 1.360 . S
N432 Tb431 2.660 . S
N432 C433 1.305 . S
C433 N432 1.305 . S
C433 C435 1.407 . S
C433 H440 0.930 . S
C434 C422 1.410 . S
C434 C435 1.345 . S
C434 H442 0.930 . S
C435 C433 1.407 . S
C435 C434 1.345 . S
C435 H437 0.930 . S
H436 C429 0.930 . S
H437 C435 0.930 . S
H438 C426 0.930 . S
H439 C427 0.931 . S
H440 C433 0.930 . S
H441 C455 0.930 . S
H442 C434 0.930 . S
H443 C461 0.930 . S
H444 C452 0.930 . S
H445 C459 0.931 . S
H446 C423 0.929 . S
H447 C453 0.930 . S
H448 C486 0.930 . S
H449 C430 0.930 . S
H450 C485 0.929 . S
N451 Tb420 2.660 . S
N451 C452 1.305 . S
N451 C456 1.360 . S
C452 H444 0.930 . S
C452 N451 1.305 . S
C452 C455 1.407 . S
C453 H447 0.930 . S
C453 C454 1.410 . S
C453 C455 1.345 . S
C454 C453 1.410 . S
C454 C456 1.417 . S
C454 C486 1.432 . S
C455 H441 0.930 . S
C455 C452 1.407 . S
C455 C453 1.345 . S
C456 N451 1.360 . S
C456 C454 1.417 . S
C456 C460 1.432 . S
H457 C462 0.930 . S
N458 Tb420 2.600 . S
N458 C460 1.359 . S
N458 C461 1.327 . S
C459 H445 0.931 . S
C459 C461 1.392 . S
C459 C462 1.370 . S
C460 C456 1.432 . S
C460 N458 1.359 . S
C460 C463 1.414 . S
C461 H443 0.930 . S
C461 N458 1.327 . S
C461 C459 1.392 . S
C462 H457 0.930 . S
C462 C459 1.370 . S
C462 C463 1.385 . S
C463 C460 1.414 . S
C463 C462 1.385 . S
C463 C485 1.444 . S
O464 Tb420 2.546 . S
O464 C484 1.251 . S
O465 Tb420 2.610 . S
O465 Tb431 2.362 . S
O465 C476 1.283 . S
O466 Tb431 2.421 . S
O466 C483 1.262 . S
O467 Tb420 2.320 . S
O467 C483 1.260 . S
O468 Tb420 2.552 . S
O468 C476 1.243 . S
O469 Tb420 2.413 . S
O469 C484 1.256 . S
O470 Tb431 2.546 . S
O470 C495 1.251 . S
O471 Tb420 2.362 . S
O471 Tb431 2.610 . S
O471 C487 1.283 . S
O472 Tb420 2.421 . S
O472 C494 1.262 . S
O473 Tb431 2.320 . S
O473 C494 1.260 . S
O474 Tb431 2.552 . S
O474 C487 1.243 . S
O475 Tb431 2.413 . S
O475 C495 1.256 . S
C476 O465 1.283 . S
C476 O468 1.243 . S
C477 C479 1.382 . S
C477 C481 1.393 . S
C477 C484 1.500 . S
C478 C479 1.400 . S
C478 C480 1.384 . S
C479 C477 1.382 . S
C479 C478 1.400 . S
C479 H496 0.930 . S
C480 C478 1.384 . S
C480 C482 1.392 . S
C480 H497 0.931 . S
C481 C477 1.393 . S
C481 C482 1.401 . S
C481 H498 0.930 . S
C482 C480 1.392 . S
C482 C481 1.401 . S
C482 H499 0.930 . S
C483 O466 1.262 . S
C483 O467 1.260 . S
C484 Tb420 2.833 . S
C484 O464 1.251 . S
C484 O469 1.256 . S
C484 C477 1.500 . S
C485 H450 0.929 . S
C485 C463 1.444 . S
C485 C486 1.317 . S
C486 H448 0.930 . S
C486 C454 1.432 . S
C486 C485 1.317 . S
C487 O471 1.283 . S
C487 O474 1.243 . S
C488 C489 1.382 . S
C488 C492 1.393 . S
C488 C495 1.500 . S
C489 C488 1.382 . S
C489 C490 1.400 . S
C489 H500 0.930 . S
C490 C489 1.400 . S
C490 C491 1.384 . S
C491 C490 1.384 . S
C491 C493 1.392 . S
C491 H501 0.931 . S
C492 C488 1.393 . S
C492 C493 1.401 . S
C492 H502 0.930 . S
C493 C491 1.392 . S
C493 C492 1.401 . S
C493 H503 0.930 . S
C494 O472 1.262 . S
C494 O473 1.260 . S
C495 Tb431 2.833 . S
C495 O470 1.251 . S
C495 O475 1.256 . S
C495 C488 1.500 . S
H496 C479 0.930 . S
H497 C480 0.931 . S
H498 C481 0.930 . S
H499 C482 0.930 . S
H500 C489 0.930 . S
H501 C491 0.931 . S
H502 C492 0.930 . S
H503 C493 0.930 . S
Tb504 N535 2.660 . S
Tb504 N542 2.600 . S
Tb504 O548 2.546 . S
Tb504 O549 2.610 . S
Tb504 O551 2.320 . S
Tb504 O552 2.552 . S
Tb504 O553 2.413 . S
Tb504 O555 2.362 . S
Tb504 O556 2.421 . S
Tb504 C568 2.833 . S
C505 C508 1.432 . S
C505 C509 1.414 . S
C505 N512 1.359 . S
C506 C508 1.417 . S
C506 C510 1.432 . S
C506 C518 1.410 . S
C507 C509 1.444 . S
C507 C510 1.317 . S
C507 H530 0.929 . S
C508 C505 1.432 . S
C508 C506 1.417 . S
C508 N516 1.360 . S
C509 C505 1.414 . S
C509 C507 1.444 . S
C509 C514 1.385 . S
C510 C506 1.432 . S
C510 C507 1.317 . S
C510 H522 0.930 . S
C511 C513 1.392 . S
C511 C514 1.370 . S
C511 H523 0.931 . S
N512 C505 1.359 . S
N512 C513 1.327 . S
N512 Tb515 2.600 . S
C513 C511 1.392 . S
C513 N512 1.327 . S
C513 H520 0.930 . S
C514 C509 1.385 . S
C514 C511 1.370 . S
C514 H533 0.930 . S
Tb515 N512 2.600 . S
Tb515 N516 2.660 . S
Tb515 O549 2.362 . S
Tb515 O550 2.421 . S
Tb515 O554 2.546 . S
Tb515 O555 2.610 . S
Tb515 O557 2.320 . S
Tb515 O558 2.552 . S
Tb515 O559 2.413 . S
Tb515 C579 2.833 . S
N516 C508 1.360 . S
N516 Tb515 2.660 . S
N516 C517 1.305 . S
C517 N516 1.305 . S
C517 C519 1.407 . S
C517 H524 0.930 . S
C518 C506 1.410 . S
C518 C519 1.345 . S
C518 H526 0.930 . S
C519 C517 1.407 . S
C519 C518 1.345 . S
C519 H521 0.930 . S
H520 C513 0.930 . S
H521 C519 0.930 . S
H522 C510 0.930 . S
H523 C511 0.931 . S
H524 C517 0.930 . S
H525 C539 0.930 . S
H526 C518 0.930 . S
H527 C545 0.930 . S
H528 C536 0.930 . S
H529 C543 0.931 . S
H530 C507 0.929 . S
H531 C537 0.930 . S
H532 C570 0.930 . S
H533 C514 0.930 . S
H534 C569 0.929 . S
N535 Tb504 2.660 . S
N535 C536 1.305 . S
N535 C540 1.360 . S
C536 H528 0.930 . S
C536 N535 1.305 . S
C536 C539 1.407 . S
C537 H531 0.930 . S
C537 C538 1.410 . S
C537 C539 1.345 . S
C538 C537 1.410 . S
C538 C540 1.417 . S
C538 C570 1.432 . S
C539 H525 0.930 . S
C539 C536 1.407 . S
C539 C537 1.345 . S
C540 N535 1.360 . S
C540 C538 1.417 . S
C540 C544 1.432 . S
H541 C546 0.930 . S
N542 Tb504 2.600 . S
N542 C544 1.359 . S
N542 C545 1.327 . S
C543 H529 0.931 . S
C543 C545 1.392 . S
C543 C546 1.370 . S
C544 C540 1.432 . S
C544 N542 1.359 . S
C544 C547 1.414 . S
C545 H527 0.930 . S
C545 N542 1.327 . S
C545 C543 1.392 . S
C546 H541 0.930 . S
C546 C543 1.370 . S
C546 C547 1.385 . S
C547 C544 1.414 . S
C547 C546 1.385 . S
C547 C569 1.444 . S
O548 Tb504 2.546 . S
O548 C568 1.251 . S
O549 Tb504 2.610 . S
O549 Tb515 2.362 . S
O549 C560 1.283 . S
O550 Tb515 2.421 . S
O550 C567 1.262 . S
O551 Tb504 2.320 . S
O551 C567 1.260 . S
O552 Tb504 2.552 . S
O552 C560 1.243 . S
O553 Tb504 2.413 . S
O553 C568 1.256 . S
O554 Tb515 2.546 . S
O554 C579 1.251 . S
O555 Tb504 2.362 . S
O555 Tb515 2.610 . S
O555 C571 1.283 . S
O556 Tb504 2.421 . S
O556 C578 1.262 . S
O557 Tb515 2.320 . S
O557 C578 1.260 . S
O558 Tb515 2.552 . S
O558 C571 1.243 . S
O559 Tb515 2.413 . S
O559 C579 1.256 . S
C560 O549 1.283 . S
C560 O552 1.243 . S
C561 C563 1.382 . S
C561 C565 1.393 . S
C561 C568 1.500 . S
C562 C563 1.400 . S
C562 C564 1.384 . S
C563 C561 1.382 . S
C563 C562 1.400 . S
C563 H580 0.930 . S
C564 C562 1.384 . S
C564 C566 1.392 . S
C564 H581 0.931 . S
C565 C561 1.393 . S
C565 C566 1.401 . S
C565 H582 0.930 . S
C566 C564 1.392 . S
C566 C565 1.401 . S
C566 H583 0.930 . S
C567 O550 1.262 . S
C567 O551 1.260 . S
C568 Tb504 2.833 . S
C568 O548 1.251 . S
C568 O553 1.256 . S
C568 C561 1.500 . S
C569 H534 0.929 . S
C569 C547 1.444 . S
C569 C570 1.317 . S
C570 H532 0.930 . S
C570 C538 1.432 . S
C570 C569 1.317 . S
C571 O555 1.283 . S
C571 O558 1.243 . S
C572 C573 1.382 . S
C572 C576 1.393 . S
C572 C579 1.500 . S
C573 C572 1.382 . S
C573 C574 1.400 . S
C573 H584 0.930 . S
C574 C573 1.400 . S
C574 C575 1.384 . S
C575 C574 1.384 . S
C575 C577 1.392 . S
C575 H585 0.931 . S
C576 C572 1.393 . S
C576 C577 1.401 . S
C576 H586 0.930 . S
C577 C575 1.392 . S
C577 C576 1.401 . S
C577 H587 0.930 . S
C578 O556 1.262 . S
C578 O557 1.260 . S
C579 Tb515 2.833 . S
C579 O554 1.251 . S
C579 O559 1.256 . S
C579 C572 1.500 . S
H580 C563 0.930 . S
H581 C564 0.931 . S
H582 C565 0.930 . S
H583 C566 0.930 . S
H584 C573 0.930 . S
H585 C575 0.931 . S
H586 C576 0.930 . S
H587 C577 0.930 . S
Tb588 N619 2.660 . S
Tb588 N626 2.600 . S
Tb588 O632 2.546 . S
Tb588 O633 2.610 . S
Tb588 O635 2.320 . S
Tb588 O636 2.552 . S
Tb588 O637 2.413 . S
Tb588 O639 2.362 . S
Tb588 O640 2.421 . S
Tb588 C652 2.833 . S
C589 C592 1.432 . S
C589 C593 1.414 . S
C589 N596 1.359 . S
C590 C592 1.417 . S
C590 C594 1.432 . S
C590 C602 1.410 . S
C591 C593 1.444 . S
C591 C594 1.317 . S
C591 H614 0.929 . S
C592 C589 1.432 . S
C592 C590 1.417 . S
C592 N600 1.360 . S
C593 C589 1.414 . S
C593 C591 1.444 . S
C593 C598 1.385 . S
C594 C590 1.432 . S
C594 C591 1.317 . S
C594 H606 0.930 . S
C595 C597 1.392 . S
C595 C598 1.370 . S
C595 H607 0.931 . S
N596 C589 1.359 . S
N596 C597 1.327 . S
N596 Tb599 2.600 . S
C597 C595 1.392 . S
C597 N596 1.327 . S
C597 H604 0.930 . S
C598 C593 1.385 . S
C598 C595 1.370 . S
C598 H617 0.930 . S
Tb599 N596 2.600 . S
Tb599 N600 2.660 . S
Tb599 O633 2.362 . S
Tb599 O634 2.421 . S
Tb599 O638 2.546 . S
Tb599 O639 2.610 . S
Tb599 O641 2.320 . S
Tb599 O642 2.552 . S
Tb599 O643 2.413 . S
Tb599 C663 2.833 . S
N600 C592 1.360 . S
N600 Tb599 2.660 . S
N600 C601 1.305 . S
C601 N600 1.305 . S
C601 C603 1.407 . S
C601 H608 0.930 . S
C602 C590 1.410 . S
C602 C603 1.345 . S
C602 H610 0.930 . S
C603 C601 1.407 . S
C603 C602 1.345 . S
C603 H605 0.930 . S
H604 C597 0.930 . S
H605 C603 0.930 . S
H606 C594 0.930 . S
H607 C595 0.931 . S
H608 C601 0.930 . S
H609 C623 0.930 . S
H610 C602 0.930 . S
H611 C629 0.930 . S
H612 C620 0.930 . S
H613 C627 0.931 . S
H614 C591 0.929 . S
H615 C621 0.930 . S
H616 C654 0.930 . S
H617 C598 0.930 . S
H618 C653 0.929 . S
N619 Tb588 2.660 . S
N619 C620 1.305 . S
N619 C624 1.360 . S
C620 H612 0.930 . S
C620 N619 1.305 . S
C620 C623 1.407 . S
C621 H615 0.930 . S
C621 C622 1.410 . S
C621 C623 1.345 . S
C622 C621 1.410 . S
C622 C624 1.417 . S
C622 C654 1.432 . S
C623 H609 0.930 . S
C623 C620 1.407 . S
C623 C621 1.345 . S
C624 N619 1.360 . S
C624 C622 1.417 . S
C624 C628 1.432 . S
H625 C630 0.930 . S
N626 Tb588 2.600 . S
N626 C628 1.359 . S
N626 C629 1.327 . S
C627 H613 0.931 . S
C627 C629 1.392 . S
C627 C630 1.370 . S
C628 C624 1.432 . S
C628 N626 1.359 . S
C628 C631 1.414 . S
C629 H611 0.930 . S
C629 N626 1.327 . S
C629 C627 1.392 . S
C630 H625 0.930 . S
C630 C627 1.370 . S
C630 C631 1.385 . S
C631 C628 1.414 . S
C631 C630 1.385 . S
C631 C653 1.444 . S
O632 Tb588 2.546 . S
O632 C652 1.251 . S
O633 Tb588 2.610 . S
O633 Tb599 2.362 . S
O633 C644 1.283 . S
O634 Tb599 2.421 . S
O634 C651 1.262 . S
O635 Tb588 2.320 . S
O635 C651 1.260 . S
O636 Tb588 2.552 . S
O636 C644 1.243 . S
O637 Tb588 2.413 . S
O637 C652 1.256 . S
O638 Tb599 2.546 . S
O638 C663 1.251 . S
O639 Tb588 2.362 . S
O639 Tb599 2.610 . S
O639 C655 1.283 . S
O640 Tb588 2.421 . S
O640 C662 1.262 . S
O641 Tb599 2.320 . S
O641 C662 1.260 . S
O642 Tb599 2.552 . S
O642 C655 1.243 . S
O643 Tb599 2.413 . S
O643 C663 1.256 . S
C644 O633 1.283 . S
C644 O636 1.243 . S
C645 C647 1.382 . S
C645 C649 1.393 . S
C645 C652 1.500 . S
C646 C647 1.400 . S
C646 C648 1.384 . S
C647 C645 1.382 . S
C647 C646 1.400 . S
C647 H664 0.930 . S
C648 C646 1.384 . S
C648 C650 1.392 . S
C648 H665 0.931 . S
C649 C645 1.393 . S
C649 C650 1.401 . S
C649 H666 0.930 . S
C650 C648 1.392 . S
C650 C649 1.401 . S
C650 H667 0.930 . S
C651 O634 1.262 . S
C651 O635 1.260 . S
C652 Tb588 2.833 . S
C652 O632 1.251 . S
C652 O637 1.256 . S
C652 C645 1.500 . S
C653 H618 0.929 . S
C653 C631 1.444 . S
C653 C654 1.317 . S
C654 H616 0.930 . S
C654 C622 1.432 . S
C654 C653 1.317 . S
C655 O639 1.283 . S
C655 O642 1.243 . S
C656 C657 1.382 . S
C656 C660 1.393 . S
C656 C663 1.500 . S
C657 C656 1.382 . S
C657 C658 1.400 . S
C657 H668 0.930 . S
C658 C657 1.400 . S
C658 C659 1.384 . S
C659 C658 1.384 . S
C659 C661 1.392 . S
C659 H669 0.931 . S
C660 C656 1.393 . S
C660 C661 1.401 . S
C660 H670 0.930 . S
C661 C659 1.392 . S
C661 C660 1.401 . S
C661 H671 0.930 . S
C662 O640 1.262 . S
C662 O641 1.260 . S
C663 Tb599 2.833 . S
C663 O638 1.251 . S
C663 O643 1.256 . S
C663 C656 1.500 . S
H664 C647 0.930 . S
H665 C648 0.931 . S
H666 C649 0.930 . S
H667 C650 0.930 . S
H668 C657 0.930 . S
H669 C659 0.931 . S
H670 C660 0.930 . S
H671 C661 0.930 . S
Cd672 N675 2.334 1_655 S
Cd672 N701 2.304 1_565 S
Cd672 O708 2.268 . S
Cd672 O711 2.273 1_665 S
Cd672 O712 2.417 . S
Cd672 O713 2.330 . S
Cd673 N688 2.304 1_455 S
Cd673 N692 2.334 1_545 S
Cd673 O709 2.273 1_445 S
Cd673 O710 2.268 . S
Cd673 O714 2.417 . S
Cd673 O715 2.330 . S
C674 N675 1.332 . S
C674 C678 1.381 . S
C674 H680 0.931 . S
N675 Cd672 2.334 1_455 S
N675 C674 1.332 . S
N675 C679 1.328 . S
C676 C677 1.396 . S
C676 C679 1.378 . S
C676 H718 0.931 . S
C677 C676 1.396 . S
C677 C678 1.382 . S
C678 C674 1.381 . S
C678 C677 1.382 . S
C678 H719 0.930 . S
C679 N675 1.328 . S
C679 C676 1.378 . S
C679 H681 0.930 1_455 S
H680 C674 0.931 . S
H681 C679 0.930 1_655 S
C682 O708 1.238 . S
C682 O709 1.253 . S
C683 C684 1.379 . S
C683 N688 1.337 . S
C683 H689 0.929 . S
C684 C683 1.379 . S
C684 C685 1.380 . S
C684 H720 0.929 . S
C685 C684 1.380 . S
C685 C686 1.399 . S
C686 C685 1.399 . S
C686 C687 1.376 . S
C686 H721 0.931 . S
C687 C686 1.376 . S
C687 N688 1.338 . S
C687 H690 0.930 1_655 S
N688 Cd673 2.304 1_655 S
N688 C683 1.337 . S
N688 C687 1.338 . S
H689 C683 0.929 . S
H690 C687 0.930 1_455 S
C691 N692 1.332 . S
C691 C695 1.381 . S
C691 H697 0.931 . S
N692 Cd673 2.334 1_565 S
N692 C691 1.332 . S
N692 C696 1.328 . S
C693 C694 1.396 . S
C693 C696 1.378 . S
C693 H722 0.931 . S
C694 C693 1.396 . S
C694 C695 1.382 . S
C695 C691 1.381 . S
C695 C694 1.382 . S
C695 H723 0.930 . S
C696 N692 1.328 . S
C696 C693 1.378 . S
C696 H698 0.930 1_565 S
H697 C691 0.931 . S
H698 C696 0.930 1_545 S
C699 O710 1.238 . S
C699 O711 1.253 . S
C700 O712 1.239 . S
C700 O713 1.230 . S
N701 Cd672 2.304 1_545 S
N701 C702 1.337 . S
N701 C706 1.338 . S
C702 N701 1.337 . S
C702 C703 1.379 . S
C702 H716 0.929 . S
C703 C702 1.379 . S
C703 C704 1.380 . S
C703 H724 0.929 . S
C704 C703 1.380 . S
C704 C705 1.399 . S
C705 C704 1.399 . S
C705 C706 1.376 . S
C705 H725 0.931 . S
C706 N701 1.338 . S
C706 C705 1.376 . S
C706 H717 0.930 1_545 S
C707 O714 1.239 . S
C707 O715 1.230 . S
O708 Cd672 2.268 . S
O708 C682 1.238 . S
O709 Cd673 2.273 1_665 S
O709 C682 1.253 . S
O710 Cd673 2.268 . S
O710 C699 1.238 . S
O711 Cd672 2.273 1_445 S
O711 C699 1.253 . S
O712 Cd672 2.417 . S
O712 C700 1.239 . S
O713 Cd672 2.330 . S
O713 C700 1.230 . S
O714 Cd673 2.417 . S
O714 C707 1.239 . S
O715 Cd673 2.330 . S
O715 C707 1.230 . S
H716 C702 0.929 . S
H717 C706 0.930 1_565 S
H718 C676 0.931 . S
H719 C678 0.930 . S
H720 C684 0.929 . S
H721 C686 0.931 . S
H722 C693 0.931 . S
H723 C695 0.930 . S
H724 C703 0.929 . S
H725 C705 0.931 . S
Cd726 N729 2.334 . S
Cd726 N755 2.304 1_565 S
Cd726 O762 2.268 1_554 S
Cd726 O765 2.273 1_565 S
Cd726 O766 2.417 . S
Cd726 O767 2.330 . S
Cd727 N742 2.304 . S
Cd727 N746 2.334 1_545 S
Cd727 O763 2.273 1_545 S
Cd727 O764 2.268 1_556 S
Cd727 O768 2.417 . S
Cd727 O769 2.330 . S
C728 N729 1.332 . S
C728 C732 1.381 . S
C728 H734 0.931 . S
N729 Cd726 2.334 . S
N729 C728 1.332 . S
N729 C733 1.328 . S
C730 C731 1.396 . S
C730 C733 1.378 . S
C730 H772 0.931 . S
C731 C730 1.396 . S
C731 C732 1.382 . S
C732 C728 1.381 . S
C732 C731 1.382 . S
C732 H773 0.930 . S
C733 N729 1.328 . S
C733 C730 1.378 . S
C733 H735 0.929 . S
H734 C728 0.931 . S
H735 C733 0.929 . S
C736 O762 1.238 . S
C736 O763 1.253 . S
C737 C738 1.379 . S
C737 N742 1.337 . S
C737 H743 0.929 . S
C738 C737 1.379 . S
C738 C739 1.380 . S
C738 H774 0.929 . S
C739 C738 1.380 . S
C739 C740 1.399 . S
C740 C739 1.399 . S
C740 C741 1.376 . S
C740 H775 0.949 . S
C741 C740 1.376 . S
C741 N742 1.338 . S
C741 H744 0.930 1_556 S
N742 Cd727 2.304 . S
N742 C737 1.337 . S
N742 C741 1.338 . S
H743 C737 0.929 . S
H744 C741 0.930 1_554 S
C745 N746 1.332 . S
C745 C749 1.381 . S
C745 H751 0.931 . S
N746 Cd727 2.334 1_565 S
N746 C745 1.332 . S
N746 C750 1.321 . S
C747 C748 1.396 . S
C747 C750 1.411 . S
C747 H776 0.931 1_556 S
C748 C747 1.396 . S
C748 C749 1.382 . S
C749 C745 1.381 . S
C749 C748 1.382 . S
C749 H777 0.930 . S
C750 N746 1.321 . S
C750 C747 1.411 . S
C750 H752 0.903 1_566 S
H751 C745 0.931 . S
H752 C750 0.903 1_544 S
C753 O764 1.238 . S
C753 O765 1.253 . S
C754 O766 1.239 . S
C754 O767 1.230 . S
N755 Cd726 2.304 1_545 S
N755 C756 1.337 . S
N755 C760 1.338 . S
C756 N755 1.337 . S
C756 C757 1.379 . S
C756 H770 0.929 . S
C757 C756 1.379 . S
C757 C758 1.380 . S
C757 H778 0.929 . S
C758 C757 1.380 . S
C758 C759 1.399 . S
C759 C758 1.399 . S
C759 C760 1.376 . S
C759 H779 0.931 1_554 S
C760 N755 1.338 . S
C760 C759 1.376 . S
C760 H771 0.930 1_544 S
C761 O768 1.239 . S
C761 O769 1.230 . S
O762 Cd726 2.268 1_556 S
O762 C736 1.238 . S
O763 Cd727 2.273 1_565 S
O763 C736 1.253 . S
O764 Cd727 2.268 1_554 S
O764 C753 1.238 . S
O765 Cd726 2.273 1_545 S
O765 C753 1.253 . S
O766 Cd726 2.417 . S
O766 C754 1.239 . S
O767 Cd726 2.330 . S
O767 C754 1.230 . S
O768 Cd727 2.417 . S
O768 C761 1.239 . S
O769 Cd727 2.330 . S
O769 C761 1.230 . S
H770 C756 0.929 . S
H771 C760 0.930 1_566 S
H772 C730 0.931 . S
H773 C732 0.930 . S
H774 C738 0.929 . S
H775 C740 0.949 . S
H776 C747 0.931 1_554 S
H777 C749 0.930 . S
H778 C757 0.929 . S
H779 C759 0.931 1_556 S
Cd780 N783 2.334 1_655 S
Cd780 N809 2.304 . S
Cd780 O816 2.268 1_554 S
Cd780 O819 2.273 1_655 S
Cd780 O820 2.417 . S
Cd780 O821 2.330 . S
Cd781 N796 2.304 1_455 S
Cd781 N800 2.334 . S
Cd781 O817 2.273 1_455 S
Cd781 O818 2.268 1_556 S
Cd781 O822 2.417 . S
Cd781 O823 2.330 . S
C782 N783 1.332 . S
C782 C786 1.381 . S
C782 H788 0.931 . S
N783 Cd780 2.334 1_455 S
N783 C782 1.332 . S
N783 C787 1.328 . S
C784 C785 1.396 . S
C784 C787 1.378 . S
C784 H826 0.931 . S
C785 C784 1.396 . S
C785 C786 1.382 . S
C786 C782 1.381 . S
C786 C785 1.382 . S
C786 H827 0.930 . S
C787 N783 1.328 . S
C787 C784 1.378 . S
C787 H789 0.929 1_455 S
H788 C782 0.931 . S
H789 C787 0.929 1_655 S
C790 O816 1.238 . S
C790 O817 1.253 . S
C791 C792 1.379 . S
C791 N796 1.337 . S
C791 H797 0.929 . S
C792 C791 1.379 . S
C792 C793 1.380 . S
C792 H828 0.929 . S
C793 C792 1.380 . S
C793 C794 1.399 . S
C794 C793 1.399 . S
C794 C795 1.376 . S
C794 H829 0.950 . S
C795 C794 1.376 . S
C795 N796 1.338 . S
C795 H798 0.930 1_656 S
N796 Cd781 2.304 1_655 S
N796 C791 1.337 . S
N796 C795 1.338 . S
H797 C791 0.929 . S
H798 C795 0.930 1_454 S
C799 N800 1.332 . S
C799 C803 1.381 . S
C799 H805 0.931 . S
N800 Cd781 2.334 . S
N800 C799 1.332 . S
N800 C804 1.328 . S
C801 C802 1.396 . S
C801 C804 1.378 . S
C801 H830 0.931 1_556 S
C802 C801 1.396 . S
C802 C803 1.382 . S
C803 C799 1.381 . S
C803 C802 1.382 . S
C803 H831 0.930 . S
C804 N800 1.328 . S
C804 C801 1.378 . S
C804 H806 0.930 1_556 S
H805 C799 0.931 . S
H806 C804 0.930 1_554 S
C807 O818 1.238 . S
C807 O819 1.253 . S
C808 O820 1.239 . S
C808 O821 1.230 . S
N809 Cd780 2.304 . S
N809 C810 1.337 . S
N809 C814 1.338 . S
C810 N809 1.337 . S
C810 C811 1.379 . S
C810 H824 0.929 . S
C811 C810 1.379 . S
C811 C812 1.380 . S
C811 H832 0.929 . S
C812 C811 1.380 . S
C812 C813 1.399 . S
C813 C812 1.399 . S
C813 C814 1.376 . S
C813 H833 0.931 1_554 S
C814 N809 1.338 . S
C814 C813 1.376 . S
C814 H825 0.930 1_554 S
C815 O822 1.239 . S
C815 O823 1.230 . S
O816 Cd780 2.268 1_556 S
O816 C790 1.238 . S
O817 Cd781 2.273 1_655 S
O817 C790 1.253 . S
O818 Cd781 2.268 1_554 S
O818 C807 1.238 . S
O819 Cd780 2.273 1_455 S
O819 C807 1.253 . S
O820 Cd780 2.417 . S
O820 C808 1.239 . S
O821 Cd780 2.330 . S
O821 C808 1.230 . S
O822 Cd781 2.417 . S
O822 C815 1.239 . S
O823 Cd781 2.330 . S
O823 C815 1.230 . S
H824 C810 0.929 . S
H825 C814 0.930 1_556 S
H826 C784 0.931 . S
H827 C786 0.930 . S
H828 C792 0.929 . S
H829 C794 0.950 . S
H830 C801 0.931 1_554 S
H831 C803 0.930 . S
H832 C811 0.929 . S
H833 C813 0.931 1_556 S
Cd834 N837 2.334 . S
Cd834 N863 2.304 . S
Cd834 O870 2.268 1_554 S
Cd834 O873 2.273 . S
Cd834 O874 2.417 . S
Cd834 O875 2.330 . S
Cd835 N850 2.304 . S
Cd835 N854 2.334 . S
Cd835 O871 2.273 . S
Cd835 O872 2.268 1_556 S
Cd835 O876 2.417 . S
Cd835 O877 2.330 . S
C836 N837 1.332 . S
C836 C840 1.381 . S
C836 H842 0.931 . S
N837 Cd834 2.334 . S
N837 C836 1.332 . S
N837 C841 1.328 . S
C838 C839 1.396 . S
C838 C841 1.378 . S
C838 H880 0.931 . S
C839 C838 1.396 . S
C839 C840 1.382 . S
C840 C836 1.381 . S
C840 C839 1.382 . S
C840 H881 0.930 . S
C841 N837 1.328 . S
C841 C838 1.378 . S
C841 H843 0.928 . S
H842 C836 0.931 . S
H843 C841 0.928 . S
C844 O870 1.238 . S
C844 O871 1.253 . S
C845 C846 1.379 . S
C845 N850 1.337 . S
C845 H851 0.929 . S
C846 C845 1.379 . S
C846 C847 1.380 . S
C846 H882 0.929 . S
C847 C846 1.380 . S
C847 C848 1.399 . S
C848 C847 1.399 . S
C848 C849 1.376 . S
C848 H883 0.951 . S
C849 C848 1.376 . S
C849 N850 1.338 . S
C849 H852 0.930 1_556 S
N850 Cd835 2.304 . S
N850 C845 1.337 . S
N850 C849 1.338 . S
H851 C845 0.929 . S
H852 C849 0.930 1_554 S
C853 N854 1.332 . S
C853 C857 1.381 . S
C853 H859 0.931 . S
N854 Cd835 2.334 . S
N854 C853 1.332 . S
N854 C858 1.328 . S
C855 C856 1.396 . S
C855 C858 1.378 . S
C855 H884 0.931 1_556 S
C856 C855 1.396 . S
C856 C857 1.382 . S
C857 C853 1.381 . S
C857 C856 1.382 . S
C857 H885 0.930 . S
C858 N854 1.328 . S
C858 C855 1.378 . S
C858 H860 0.930 1_556 S
H859 C853 0.931 . S
H860 C858 0.930 1_554 S
C861 O872 1.238 . S
C861 O873 1.253 . S
C862 O874 1.239 . S
C862 O875 1.230 . S
N863 Cd834 2.304 . S
N863 C864 1.337 . S
N863 C868 1.338 . S
C864 N863 1.337 . S
C864 C865 1.379 . S
C864 H878 0.929 . S
C865 C864 1.379 . S
C865 C866 1.380 . S
C865 H886 0.929 . S
C866 C865 1.380 . S
C866 C867 1.399 . S
C867 C866 1.399 . S
C867 C868 1.376 . S
C867 H887 0.931 1_554 S
C868 N863 1.338 . S
C868 C867 1.376 . S
C868 H879 0.930 1_554 S
C869 O876 1.239 . S
C869 O877 1.230 . S
O870 Cd834 2.268 1_556 S
O870 C844 1.238 . S
O871 Cd835 2.273 . S
O871 C844 1.253 . S
O872 Cd835 2.268 1_554 S
O872 C861 1.238 . S
O873 Cd834 2.273 . S
O873 C861 1.253 . S
O874 Cd834 2.417 . S
O874 C862 1.239 . S
O875 Cd834 2.330 . S
O875 C862 1.230 . S
O876 Cd835 2.417 . S
O876 C869 1.239 . S
O877 Cd835 2.330 . S
O877 C869 1.230 . S
H878 C864 0.929 . S
H879 C868 0.930 1_556 S
H880 C838 0.931 . S
H881 C840 0.930 . S
H882 C846 0.929 . S
H883 C848 0.951 . S
H884 C855 0.931 1_554 S
H885 C857 0.930 . S
H886 C865 0.929 . S
H887 C867 0.931 1_556 S
Cd888 N891 2.334 1_655 S
Cd888 N917 2.304 . S
Cd888 O924 2.268 . S
Cd888 O927 2.273 1_655 S
Cd888 O928 2.417 . S
Cd888 O929 2.330 . S
Cd889 N904 2.304 1_455 S
Cd889 N908 2.334 . S
Cd889 O925 2.273 1_455 S
Cd889 O926 2.268 . S
Cd889 O930 2.417 . S
Cd889 O931 2.330 . S
C890 N891 1.332 . S
C890 C894 1.381 . S
C890 H896 0.931 . S
N891 Cd888 2.334 1_455 S
N891 C890 1.332 . S
N891 C895 1.328 . S
C892 C893 1.396 . S
C892 C895 1.378 . S
C892 H934 0.931 . S
C893 C892 1.396 . S
C893 C894 1.382 . S
C894 C890 1.381 . S
C894 C893 1.382 . S
C894 H935 0.930 . S
C895 N891 1.328 . S
C895 C892 1.378 . S
C895 H897 0.930 1_455 S
H896 C890 0.931 . S
H897 C895 0.930 1_655 S
C898 O924 1.238 . S
C898 O925 1.253 . S
C899 C900 1.379 . S
C899 N904 1.337 . S
C899 H905 0.929 . S
C900 C899 1.379 . S
C900 C901 1.380 . S
C900 H936 0.929 . S
C901 C900 1.380 . S
C901 C902 1.399 . S
C902 C901 1.399 . S
C902 C903 1.376 . S
C902 H937 0.931 . S
C903 C902 1.376 . S
C903 N904 1.338 . S
C903 H906 0.930 1_655 S
N904 Cd889 2.304 1_655 S
N904 C899 1.337 . S
N904 C903 1.338 . S
H905 C899 0.929 . S
H906 C903 0.930 1_455 S
C907 N908 1.332 . S
C907 C911 1.381 . S
C907 H913 0.931 . S
N908 Cd889 2.334 . S
N908 C907 1.332 . S
N908 C912 1.328 . S
C909 C910 1.396 . S
C909 C912 1.378 . S
C909 H938 0.931 . S
C910 C909 1.396 . S
C910 C911 1.382 . S
C911 C907 1.381 . S
C911 C910 1.382 . S
C911 H939 0.930 . S
C912 N908 1.328 . S
C912 C909 1.378 . S
C912 H914 0.930 . S
H913 C907 0.931 . S
H914 C912 0.930 . S
C915 O926 1.238 . S
C915 O927 1.253 . S
C916 O928 1.239 . S
C916 O929 1.230 . S
N917 Cd888 2.304 . S
N917 C918 1.337 . S
N917 C922 1.338 . S
C918 N917 1.337 . S
C918 C919 1.379 . S
C918 H932 0.929 . S
C919 C918 1.379 . S
C919 C920 1.380 . S
C919 H940 0.929 . S
C920 C919 1.380 . S
C920 C921 1.399 . S
C921 C920 1.399 . S
C921 C922 1.376 . S
C921 H941 0.931 . S
C922 N917 1.338 . S
C922 C921 1.376 . S
C922 H933 0.930 . S
C923 O930 1.239 . S
C923 O931 1.230 . S
O924 Cd888 2.268 . S
O924 C898 1.238 . S
O925 Cd889 2.273 1_655 S
O925 C898 1.253 . S
O926 Cd889 2.268 . S
O926 C915 1.238 . S
O927 Cd888 2.273 1_455 S
O927 C915 1.253 . S
O928 Cd888 2.417 . S
O928 C916 1.239 . S
O929 Cd888 2.330 . S
O929 C916 1.230 . S
O930 Cd889 2.417 . S
O930 C923 1.239 . S
O931 Cd889 2.330 . S
O931 C923 1.230 . S
H932 C918 0.929 . S
H933 C922 0.930 . S
H934 C892 0.931 . S
H935 C894 0.930 . S
H936 C900 0.929 . S
H937 C902 0.931 . S
H938 C909 0.931 . S
H939 C911 0.930 . S
H940 C919 0.929 . S
H941 C921 0.931 . S
Cd942 N945 2.334 . S
Cd942 N971 2.304 1_565 S
Cd942 O978 2.268 . S
Cd942 O981 2.273 1_565 S
Cd942 O982 2.417 . S
Cd942 O983 2.330 . S
Cd943 N958 2.304 . S
Cd943 N962 2.334 1_545 S
Cd943 O979 2.273 1_545 S
Cd943 O980 2.268 . S
Cd943 O984 2.417 . S
Cd943 O985 2.330 . S
C944 N945 1.332 . S
C944 C948 1.381 . S
C944 H950 0.931 . S
N945 Cd942 2.334 . S
N945 C944 1.332 . S
N945 C949 1.328 . S
C946 C947 1.396 . S
C946 C949 1.378 . S
C946 H988 0.931 . S
C947 C946 1.396 . S
C947 C948 1.382 . S
C948 C944 1.381 . S
C948 C947 1.382 . S
C948 H989 0.930 . S
C949 N945 1.328 . S
C949 C946 1.378 . S
C949 H951 0.930 . S
H950 C944 0.931 . S
H951 C949 0.930 . S
C952 O978 1.238 . S
C952 O979 1.253 . S
C953 C954 1.379 . S
C953 N958 1.337 . S
C953 H959 0.929 . S
C954 C953 1.379 . S
C954 C955 1.380 . S
C954 H990 0.929 . S
C955 C954 1.380 . S
C955 C956 1.399 . S
C956 C955 1.399 . S
C956 C957 1.376 . S
C956 H991 0.931 . S
C957 C956 1.376 . S
C957 N958 1.338 . S
C957 H960 0.930 . S
N958 Cd943 2.304 . S
N958 C953 1.337 . S
N958 C957 1.338 . S
H959 C953 0.929 . S
H960 C957 0.930 . S
C961 N962 1.332 . S
C961 C965 1.381 . S
C961 H967 0.931 . S
N962 Cd943 2.334 1_565 S
N962 C961 1.332 . S
N962 C966 1.321 . S
C963 C964 1.396 . S
C963 C966 1.412 . S
C963 H992 0.931 . S
C964 C963 1.396 . S
C964 C965 1.382 . S
C965 C961 1.381 . S
C965 C964 1.382 . S
C965 H993 0.930 . S
C966 N962 1.321 . S
C966 C963 1.412 . S
C966 H968 0.902 1_565 S
H967 C961 0.931 . S
H968 C966 0.902 1_545 S
C969 O980 1.238 . S
C969 O981 1.253 . S
C970 O982 1.239 . S
C970 O983 1.230 . S
N971 Cd942 2.304 1_545 S
N971 C972 1.337 . S
N971 C976 1.338 . S
C972 N971 1.337 . S
C972 C973 1.379 . S
C972 H986 0.929 . S
C973 C972 1.379 . S
C973 C974 1.380 . S
C973 H994 0.929 . S
C974 C973 1.380 . S
C974 C975 1.399 . S
C975 C974 1.399 . S
C975 C976 1.376 . S
C975 H995 0.931 . S
C976 N971 1.338 . S
C976 C975 1.376 . S
C976 H987 0.930 1_545 S
C977 O984 1.239 . S
C977 O985 1.230 . S
O978 Cd942 2.268 . S
O978 C952 1.238 . S
O979 Cd943 2.273 1_565 S
O979 C952 1.253 . S
O980 Cd943 2.268 . S
O980 C969 1.238 . S
O981 Cd942 2.273 1_545 S
O981 C969 1.253 . S
O982 Cd942 2.417 . S
O982 C970 1.239 . S
O983 Cd942 2.330 . S
O983 C970 1.230 . S
O984 Cd943 2.417 . S
O984 C977 1.239 . S
O985 Cd943 2.330 . S
O985 C977 1.230 . S
H986 C972 0.929 . S
H987 C976 0.930 1_565 S
H988 C946 0.931 . S
H989 C948 0.930 . S
H990 C954 0.929 . S
H991 C956 0.931 . S
H992 C963 0.931 . S
H993 C965 0.930 . S
H994 C973 0.929 . S
H995 C975 0.931 . S
H996 C1008 0.930 . S
H997 C1010 0.930 . S
H998 C1011 0.930 . S
H999 C1015 0.959 . S
H1000 C1015 0.959 . S
H1001 C1015 0.961 . S
H1002 C1016 0.960 . S
H1003 C1016 0.961 . S
H1004 C1016 0.959 . S
H1005 C1019 0.929 . S
H1006 C1020 0.931 . S
H1007 C1022 0.930 . S
C1008 H996 0.930 . S
C1008 C1009 1.399 . S
C1008 C1013 1.399 . S
C1009 C1008 1.399 . S
C1009 C1010 1.376 . S
C1010 H997 0.930 . S
C1010 C1009 1.376 . S
C1010 C1011 1.388 . S
C1011 H998 0.930 . S
C1011 C1010 1.388 . S
C1011 C1012 1.390 . S
C1012 C1011 1.390 . S
C1012 C1013 1.394 . S
C1012 C1018 1.465 . S
C1013 C1008 1.399 . S
C1013 C1012 1.394 . S
C1013 C1014 1.516 . S
C1014 C1013 1.516 . S
C1014 C1015 1.502 . S
C1014 C1016 1.561 . S
C1014 C1017 1.526 . S
C1015 H999 0.959 . S
C1015 H1000 0.959 . S
C1015 H1001 0.961 . S
C1015 C1014 1.502 . S
C1016 H1002 0.960 . S
C1016 H1003 0.961 . S
C1016 H1004 0.959 . S
C1016 C1014 1.561 . S
C1017 C1014 1.526 . S
C1017 C1018 1.396 . S
C1017 C1022 1.390 . S
C1018 C1012 1.465 . S
C1018 C1017 1.396 . S
C1018 C1019 1.399 . S
C1019 H1005 0.929 . S
C1019 C1018 1.399 . S
C1019 C1020 1.385 . S
C1020 H1006 0.931 . S
C1020 C1019 1.385 . S
C1020 C1021 1.389 . S
C1021 C1020 1.389 . S
C1021 C1022 1.387 . S
C1022 H1007 0.930 . S
C1022 C1017 1.390 . S
C1022 C1021 1.387 . S
H1023 C1035 0.930 . S
H1024 C1037 0.930 . S
H1025 C1038 0.930 . S
H1026 C1042 0.959 . S
H1027 C1042 0.959 . S
H1028 C1042 0.961 . S
H1029 C1043 0.960 . S
H1030 C1043 0.961 . S
H1031 C1043 0.959 . S
H1032 C1046 0.929 . S
H1033 C1047 0.931 . S
H1034 C1049 0.930 . S
C1035 H1023 0.930 . S
C1035 C1036 1.399 . S
C1035 C1040 1.399 . S
C1036 C1035 1.399 . S
C1036 C1037 1.376 . S
C1037 H1024 0.930 . S
C1037 C1036 1.376 . S
C1037 C1038 1.388 . S
C1038 H1025 0.930 . S
C1038 C1037 1.388 . S
C1038 C1039 1.390 . S
C1039 C1038 1.390 . S
C1039 C1040 1.394 . S
C1039 C1045 1.465 . S
C1040 C1035 1.399 . S
C1040 C1039 1.394 . S
C1040 C1041 1.516 . S
C1041 C1040 1.516 . S
C1041 C1042 1.502 . S
C1041 C1043 1.561 . S
C1041 C1044 1.526 . S
C1042 H1026 0.959 . S
C1042 H1027 0.959 . S
C1042 H1028 0.961 . S
C1042 C1041 1.502 . S
C1043 H1029 0.960 . S
C1043 H1030 0.961 . S
C1043 H1031 0.959 . S
C1043 C1041 1.561 . S
C1044 C1041 1.526 . S
C1044 C1045 1.396 . S
C1044 C1049 1.390 . S
C1045 C1039 1.465 . S
C1045 C1044 1.396 . S
C1045 C1046 1.399 . S
C1046 H1032 0.929 . S
C1046 C1045 1.399 . S
C1046 C1047 1.385 . S
C1047 H1033 0.931 . S
C1047 C1046 1.385 . S
C1047 C1048 1.389 . S
C1048 C1047 1.389 . S
C1048 C1049 1.387 . S
C1049 H1034 0.930 . S
C1049 C1044 1.390 . S
C1049 C1048 1.387 . S
H1050 C1062 0.930 . S
H1051 C1064 0.930 . S
H1052 C1065 0.930 . S
H1053 C1069 0.959 . S
H1054 C1069 0.959 . S
H1055 C1069 0.961 . S
H1056 C1070 0.960 . S
H1057 C1070 0.961 . S
H1058 C1070 0.959 . S
H1059 C1073 0.929 . S
H1060 C1074 0.931 . S
H1061 C1076 0.930 . S
C1062 H1050 0.930 . S
C1062 C1063 1.399 . S
C1062 C1067 1.399 . S
C1063 C1062 1.399 . S
C1063 C1064 1.376 . S
C1064 H1051 0.930 . S
C1064 C1063 1.376 . S
C1064 C1065 1.388 . S
C1065 H1052 0.930 . S
C1065 C1064 1.388 . S
C1065 C1066 1.390 . S
C1066 C1065 1.390 . S
C1066 C1067 1.394 . S
C1066 C1072 1.465 . S
C1067 C1062 1.399 . S
C1067 C1066 1.394 . S
C1067 C1068 1.516 . S
C1068 C1067 1.516 . S
C1068 C1069 1.502 . S
C1068 C1070 1.561 . S
C1068 C1071 1.526 . S
C1069 H1053 0.959 . S
C1069 H1054 0.959 . S
C1069 H1055 0.961 . S
C1069 C1068 1.502 . S
C1070 H1056 0.960 . S
C1070 H1057 0.961 . S
C1070 H1058 0.959 . S
C1070 C1068 1.561 . S
C1071 C1068 1.526 . S
C1071 C1072 1.396 . S
C1071 C1076 1.390 . S
C1072 C1066 1.465 . S
C1072 C1071 1.396 . S
C1072 C1073 1.399 . S
C1073 H1059 0.929 . S
C1073 C1072 1.399 . S
C1073 C1074 1.385 . S
C1074 H1060 0.931 . S
C1074 C1073 1.385 . S
C1074 C1075 1.389 . S
C1075 C1074 1.389 . S
C1075 C1076 1.387 . S
C1076 H1061 0.930 . S
C1076 C1071 1.390 . S
C1076 C1075 1.387 . S
H1077 C1089 0.930 . S
H1078 C1091 0.930 . S
H1079 C1092 0.930 . S
H1080 C1096 0.959 . S
H1081 C1096 0.959 . S
H1082 C1096 0.961 . S
H1083 C1097 0.960 . S
H1084 C1097 0.961 . S
H1085 C1097 0.959 . S
H1086 C1100 0.929 . S
H1087 C1101 0.931 . S
H1088 C1103 0.930 . S
C1089 H1077 0.930 . S
C1089 C1090 1.399 . S
C1089 C1094 1.399 . S
C1090 C1089 1.399 . S
C1090 C1091 1.376 . S
C1091 H1078 0.930 . S
C1091 C1090 1.376 . S
C1091 C1092 1.388 . S
C1092 H1079 0.930 . S
C1092 C1091 1.388 . S
C1092 C1093 1.390 . S
C1093 C1092 1.390 . S
C1093 C1094 1.394 . S
C1093 C1099 1.465 . S
C1094 C1089 1.399 . S
C1094 C1093 1.394 . S
C1094 C1095 1.516 . S
C1095 C1094 1.516 . S
C1095 C1096 1.502 . S
C1095 C1097 1.561 . S
C1095 C1098 1.526 . S
C1096 H1080 0.959 . S
C1096 H1081 0.959 . S
C1096 H1082 0.961 . S
C1096 C1095 1.502 . S
C1097 H1083 0.960 . S
C1097 H1084 0.961 . S
C1097 H1085 0.959 . S
C1097 C1095 1.561 . S
C1098 C1095 1.526 . S
C1098 C1099 1.396 . S
C1098 C1103 1.390 . S
C1099 C1093 1.465 . S
C1099 C1098 1.396 . S
C1099 C1100 1.399 . S
C1100 H1086 0.929 . S
C1100 C1099 1.399 . S
C1100 C1101 1.385 . S
C1101 H1087 0.931 . S
C1101 C1100 1.385 . S
C1101 C1102 1.389 . S
C1102 C1101 1.389 . S
C1102 C1103 1.387 . S
C1103 H1088 0.930 . S
C1103 C1098 1.390 . S
C1103 C1102 1.387 . S
H1104 C1116 0.930 . S
H1105 C1118 0.930 . S
H1106 C1119 0.930 . S
H1107 C1123 0.959 . S
H1108 C1123 0.959 . S
H1109 C1123 0.961 . S
H1110 C1124 0.960 . S
H1111 C1124 0.961 . S
H1112 C1124 0.959 . S
H1113 C1127 0.929 . S
H1114 C1128 0.931 . S
H1115 C1130 0.930 . S
C1116 H1104 0.930 . S
C1116 C1117 1.399 . S
C1116 C1121 1.399 . S
C1117 C1116 1.399 . S
C1117 C1118 1.376 . S
C1118 H1105 0.930 . S
C1118 C1117 1.376 . S
C1118 C1119 1.388 . S
C1119 H1106 0.930 . S
C1119 C1118 1.388 . S
C1119 C1120 1.390 . S
C1120 C1119 1.390 . S
C1120 C1121 1.394 . S
C1120 C1126 1.465 . S
C1121 C1116 1.399 . S
C1121 C1120 1.394 . S
C1121 C1122 1.516 . S
C1122 C1121 1.516 . S
C1122 C1123 1.502 . S
C1122 C1124 1.561 . S
C1122 C1125 1.526 . S
C1123 H1107 0.959 . S
C1123 H1108 0.959 . S
C1123 H1109 0.961 . S
C1123 C1122 1.502 . S
C1124 H1110 0.960 . S
C1124 H1111 0.961 . S
C1124 H1112 0.959 . S
C1124 C1122 1.561 . S
C1125 C1122 1.526 . S
C1125 C1126 1.396 . S
C1125 C1130 1.390 . S
C1126 C1120 1.465 . S
C1126 C1125 1.396 . S
C1126 C1127 1.399 . S
C1127 H1113 0.929 . S
C1127 C1126 1.399 . S
C1127 C1128 1.385 . S
C1128 H1114 0.931 . S
C1128 C1127 1.385 . S
C1128 C1129 1.389 . S
C1129 C1128 1.389 . S
C1129 C1130 1.387 . S
C1130 H1115 0.930 . S
C1130 C1125 1.390 . S
C1130 C1129 1.387 . S
H1131 C1143 0.930 . S
H1132 C1145 0.930 . S
H1133 C1146 0.930 . S
H1134 C1150 0.959 . S
H1135 C1150 0.959 . S
H1136 C1150 0.961 . S
H1137 C1151 0.960 . S
H1138 C1151 0.961 . S
H1139 C1151 0.959 . S
H1140 C1154 0.929 . S
H1141 C1155 0.931 . S
H1142 C1157 0.930 . S
C1143 H1131 0.930 . S
C1143 C1144 1.399 . S
C1143 C1148 1.399 . S
C1144 C1143 1.399 . S
C1144 C1145 1.376 . S
C1145 H1132 0.930 . S
C1145 C1144 1.376 . S
C1145 C1146 1.388 . S
C1146 H1133 0.930 . S
C1146 C1145 1.388 . S
C1146 C1147 1.390 . S
C1147 C1146 1.390 . S
C1147 C1148 1.394 . S
C1147 C1153 1.465 . S
C1148 C1143 1.399 . S
C1148 C1147 1.394 . S
C1148 C1149 1.516 . S
C1149 C1148 1.516 . S
C1149 C1150 1.502 . S
C1149 C1151 1.561 . S
C1149 C1152 1.526 . S
C1150 H1134 0.959 . S
C1150 H1135 0.959 . S
C1150 H1136 0.961 . S
C1150 C1149 1.502 . S
C1151 H1137 0.960 . S
C1151 H1138 0.961 . S
C1151 H1139 0.959 . S
C1151 C1149 1.561 . S
C1152 C1149 1.526 . S
C1152 C1153 1.396 . S
C1152 C1157 1.390 . S
C1153 C1147 1.465 . S
C1153 C1152 1.396 . S
C1153 C1154 1.399 . S
C1154 H1140 0.929 . S
C1154 C1153 1.399 . S
C1154 C1155 1.385 . S
C1155 H1141 0.931 . S
C1155 C1154 1.385 . S
C1155 C1156 1.389 . S
C1156 C1155 1.389 . S
C1156 C1157 1.387 . S
C1157 H1142 0.930 . S
C1157 C1152 1.390 . S
C1157 C1156 1.387 . S
H1158 C1170 0.930 . S
H1159 C1172 0.930 . S
H1160 C1173 0.930 . S
H1161 C1177 0.959 . S
H1162 C1177 0.959 . S
H1163 C1177 0.961 . S
H1164 C1178 0.960 . S
H1165 C1178 0.961 . S
H1166 C1178 0.959 . S
H1167 C1181 0.929 . S
H1168 C1182 0.931 . S
H1169 C1184 0.930 . S
C1170 H1158 0.930 . S
C1170 C1171 1.399 . S
C1170 C1175 1.399 . S
C1171 C1170 1.399 . S
C1171 C1172 1.376 . S
C1172 H1159 0.930 . S
C1172 C1171 1.376 . S
C1172 C1173 1.388 . S
C1173 H1160 0.930 . S
C1173 C1172 1.388 . S
C1173 C1174 1.390 . S
C1174 C1173 1.390 . S
C1174 C1175 1.394 . S
C1174 C1180 1.465 . S
C1175 C1170 1.399 . S
C1175 C1174 1.394 . S
C1175 C1176 1.516 . S
C1176 C1175 1.516 . S
C1176 C1177 1.502 . S
C1176 C1178 1.561 . S
C1176 C1179 1.526 . S
C1177 H1161 0.959 . S
C1177 H1162 0.959 . S
C1177 H1163 0.961 . S
C1177 C1176 1.502 . S
C1178 H1164 0.960 . S
C1178 H1165 0.961 . S
C1178 H1166 0.959 . S
C1178 C1176 1.561 . S
C1179 C1176 1.526 . S
C1179 C1180 1.396 . S
C1179 C1184 1.390 . S
C1180 C1174 1.465 . S
C1180 C1179 1.396 . S
C1180 C1181 1.399 . S
C1181 H1167 0.929 . S
C1181 C1180 1.399 . S
C1181 C1182 1.385 . S
C1182 H1168 0.931 . S
C1182 C1181 1.385 . S
C1182 C1183 1.389 . S
C1183 C1182 1.389 . S
C1183 C1184 1.387 . S
C1184 H1169 0.930 . S
C1184 C1179 1.390 . S
C1184 C1183 1.387 . S
H1185 C1197 0.930 . S
H1186 C1199 0.930 . S
H1187 C1200 0.930 . S
H1188 C1204 0.959 . S
H1189 C1204 0.959 . S
H1190 C1204 0.961 . S
H1191 C1205 0.960 . S
H1192 C1205 0.961 . S
H1193 C1205 0.959 . S
H1194 C1208 0.929 . S
H1195 C1209 0.931 . S
H1196 C1211 0.930 . S
C1197 H1185 0.930 . S
C1197 C1198 1.399 . S
C1197 C1202 1.399 . S
C1198 C1197 1.399 . S
C1198 C1199 1.376 . S
C1199 H1186 0.930 . S
C1199 C1198 1.376 . S
C1199 C1200 1.388 . S
C1200 H1187 0.930 . S
C1200 C1199 1.388 . S
C1200 C1201 1.390 . S
C1201 C1200 1.390 . S
C1201 C1202 1.394 . S
C1201 C1207 1.465 . S
C1202 C1197 1.399 . S
C1202 C1201 1.394 . S
C1202 C1203 1.516 . S
C1203 C1202 1.516 . S
C1203 C1204 1.502 . S
C1203 C1205 1.561 . S
C1203 C1206 1.526 . S
C1204 H1188 0.959 . S
C1204 H1189 0.959 . S
C1204 H1190 0.961 . S
C1204 C1203 1.502 . S
C1205 H1191 0.960 . S
C1205 H1192 0.961 . S
C1205 H1193 0.959 . S
C1205 C1203 1.561 . S
C1206 C1203 1.526 . S
C1206 C1207 1.396 . S
C1206 C1211 1.390 . S
C1207 C1201 1.465 . S
C1207 C1206 1.396 . S
C1207 C1208 1.399 . S
C1208 H1194 0.929 . S
C1208 C1207 1.399 . S
C1208 C1209 1.385 . S
C1209 H1195 0.931 . S
C1209 C1208 1.385 . S
C1209 C1210 1.389 . S
C1210 C1209 1.389 . S
C1210 C1211 1.387 . S
C1211 H1196 0.930 . S
C1211 C1206 1.390 . S
C1211 C1210 1.387 . S
H1212 C1224 0.930 . S
H1213 C1226 0.930 . S
H1214 C1227 0.930 . S
H1215 C1231 0.959 . S
H1216 C1231 0.959 1_556 S
H1217 C1231 0.961 . S
H1218 C1232 0.960 . S
H1219 C1232 0.961 . S
H1220 C1232 0.959 . S
H1221 C1235 0.929 . S
H1222 C1236 0.931 . S
H1223 C1238 0.930 . S
C1224 H1212 0.930 . S
C1224 C1225 1.399 . S
C1224 C1229 1.399 . S
C1225 C1224 1.399 . S
C1225 C1226 1.376 . S
C1226 H1213 0.930 . S
C1226 C1225 1.376 . S
C1226 C1227 1.388 . S
C1227 H1214 0.930 . S
C1227 C1226 1.388 . S
C1227 C1228 1.390 . S
C1228 C1227 1.390 . S
C1228 C1229 1.394 . S
C1228 C1234 1.465 . S
C1229 C1224 1.399 . S
C1229 C1228 1.394 . S
C1229 C1230 1.516 . S
C1230 C1229 1.516 . S
C1230 C1231 1.502 . S
C1230 C1232 1.561 . S
C1230 C1233 1.526 . S
C1231 H1215 0.959 . S
C1231 H1216 0.959 1_554 S
C1231 H1217 0.961 . S
C1231 C1230 1.502 . S
C1232 H1218 0.960 . S
C1232 H1219 0.961 . S
C1232 H1220 0.959 . S
C1232 C1230 1.561 . S
C1233 C1230 1.526 . S
C1233 C1234 1.396 . S
C1233 C1238 1.390 . S
C1234 C1228 1.465 . S
C1234 C1233 1.396 . S
C1234 C1235 1.399 . S
C1235 H1221 0.929 . S
C1235 C1234 1.399 . S
C1235 C1236 1.385 . S
C1236 H1222 0.931 . S
C1236 C1235 1.385 . S
C1236 C1237 1.389 . S
C1237 C1236 1.389 . S
C1237 C1238 1.387 . S
C1238 H1223 0.930 . S
C1238 C1233 1.390 . S
C1238 C1237 1.387 . S
H1239 C1251 0.930 . S
H1240 C1253 0.930 . S
H1241 C1254 0.930 . S
H1242 C1258 0.959 . S
H1243 C1258 0.959 . S
H1244 C1258 0.961 . S
H1245 C1259 0.960 . S
H1246 C1259 0.961 . S
H1247 C1259 0.959 . S
H1248 C1262 0.929 . S
H1249 C1263 0.931 . S
H1250 C1265 0.930 . S
C1251 H1239 0.930 . S
C1251 C1252 1.399 . S
C1251 C1256 1.399 . S
C1252 C1251 1.399 . S
C1252 C1253 1.376 . S
C1253 H1240 0.930 . S
C1253 C1252 1.376 . S
C1253 C1254 1.388 . S
C1254 H1241 0.930 . S
C1254 C1253 1.388 . S
C1254 C1255 1.390 . S
C1255 C1254 1.390 . S
C1255 C1256 1.394 . S
C1255 C1261 1.465 . S
C1256 C1251 1.399 . S
C1256 C1255 1.394 . S
C1256 C1257 1.516 . S
C1257 C1256 1.516 . S
C1257 C1258 1.502 . S
C1257 C1259 1.561 . S
C1257 C1260 1.526 . S
C1258 H1242 0.959 . S
C1258 H1243 0.959 . S
C1258 H1244 0.961 . S
C1258 C1257 1.502 . S
C1259 H1245 0.960 . S
C1259 H1246 0.961 . S
C1259 H1247 0.959 . S
C1259 C1257 1.561 . S
C1260 C1257 1.526 . S
C1260 C1261 1.396 . S
C1260 C1265 1.390 . S
C1261 C1255 1.465 . S
C1261 C1260 1.396 . S
C1261 C1262 1.399 . S
C1262 H1248 0.929 . S
C1262 C1261 1.399 . S
C1262 C1263 1.385 . S
C1263 H1249 0.931 . S
C1263 C1262 1.385 . S
C1263 C1264 1.389 . S
C1264 C1263 1.389 . S
C1264 C1265 1.387 . S
C1265 H1250 0.930 . S
C1265 C1260 1.390 . S
C1265 C1264 1.387 . S
H1266 C1278 0.930 . S
H1267 C1280 0.930 . S
H1268 C1281 0.930 . S
H1269 C1285 0.959 . S
H1270 C1285 0.959 . S
H1271 C1285 0.961 . S
H1272 C1286 0.960 . S
H1273 C1286 0.961 . S
H1274 C1286 0.959 . S
H1275 C1289 0.929 . S
H1276 C1290 0.931 . S
H1277 C1292 0.930 . S
C1278 H1266 0.930 . S
C1278 C1279 1.399 . S
C1278 C1283 1.399 . S
C1279 C1278 1.399 . S
C1279 C1280 1.376 . S
C1280 H1267 0.930 . S
C1280 C1279 1.376 . S
C1280 C1281 1.388 . S
C1281 H1268 0.930 . S
C1281 C1280 1.388 . S
C1281 C1282 1.390 . S
C1282 C1281 1.390 . S
C1282 C1283 1.394 . S
C1282 C1288 1.465 . S
C1283 C1278 1.399 . S
C1283 C1282 1.394 . S
C1283 C1284 1.516 . S
C1284 C1283 1.516 . S
C1284 C1285 1.502 . S
C1284 C1286 1.561 . S
C1284 C1287 1.526 . S
C1285 H1269 0.959 . S
C1285 H1270 0.959 . S
C1285 H1271 0.961 . S
C1285 C1284 1.502 . S
C1286 H1272 0.960 . S
C1286 H1273 0.961 . S
C1286 H1274 0.959 . S
C1286 C1284 1.561 . S
C1287 C1284 1.526 . S
C1287 C1288 1.396 . S
C1287 C1292 1.390 . S
C1288 C1282 1.465 . S
C1288 C1287 1.396 . S
C1288 C1289 1.399 . S
C1289 H1275 0.929 . S
C1289 C1288 1.399 . S
C1289 C1290 1.385 . S
C1290 H1276 0.931 . S
C1290 C1289 1.385 . S
C1290 C1291 1.389 . S
C1291 C1290 1.389 . S
C1291 C1292 1.387 . S
C1292 H1277 0.930 . S
C1292 C1287 1.390 . S
C1292 C1291 1.387 . S
H1293 C1305 0.930 . S
H1294 C1307 0.930 . S
H1295 C1308 0.930 . S
H1296 C1312 0.959 . S
H1297 C1312 0.959 . S
H1298 C1312 0.961 . S
H1299 C1313 0.960 . S
H1300 C1313 0.961 . S
H1301 C1313 0.959 . S
H1302 C1316 0.929 . S
H1303 C1317 0.931 . S
H1304 C1319 0.930 . S
C1305 H1293 0.930 . S
C1305 C1306 1.399 . S
C1305 C1310 1.399 . S
C1306 C1305 1.399 . S
C1306 C1307 1.376 . S
C1307 H1294 0.930 . S
C1307 C1306 1.376 . S
C1307 C1308 1.388 . S
C1308 H1295 0.930 . S
C1308 C1307 1.388 . S
C1308 C1309 1.390 . S
C1309 C1308 1.390 . S
C1309 C1310 1.394 . S
C1309 C1315 1.465 . S
C1310 C1305 1.399 . S
C1310 C1309 1.394 . S
C1310 C1311 1.516 . S
C1311 C1310 1.516 . S
C1311 C1312 1.502 . S
C1311 C1313 1.561 . S
C1311 C1314 1.526 . S
C1312 H1296 0.959 . S
C1312 H1297 0.959 . S
C1312 H1298 0.961 . S
C1312 C1311 1.502 . S
C1313 H1299 0.960 . S
C1313 H1300 0.961 . S
C1313 H1301 0.959 . S
C1313 C1311 1.561 . S
C1314 C1311 1.526 . S
C1314 C1315 1.396 . S
C1314 C1319 1.390 . S
C1315 C1309 1.465 . S
C1315 C1314 1.396 . S
C1315 C1316 1.399 . S
C1316 H1302 0.929 . S
C1316 C1315 1.399 . S
C1316 C1317 1.385 . S
C1317 H1303 0.931 . S
C1317 C1316 1.385 . S
C1317 C1318 1.389 . S
C1318 C1317 1.389 . S
C1318 C1319 1.387 . S
C1319 H1304 0.930 . S
C1319 C1314 1.390 . S
C1319 C1318 1.387 . S
H1320 C1332 0.930 . S
H1321 C1334 0.930 . S
H1322 C1335 0.930 . S
H1323 C1339 0.959 . S
H1324 C1339 0.959 . S
H1325 C1339 0.961 . S
H1326 C1340 0.960 . S
H1327 C1340 0.961 . S
H1328 C1340 0.959 . S
H1329 C1343 0.929 . S
H1330 C1344 0.931 . S
H1331 C1346 0.930 . S
C1332 H1320 0.930 . S
C1332 C1333 1.399 . S
C1332 C1337 1.399 . S
C1333 C1332 1.399 . S
C1333 C1334 1.376 . S
C1334 H1321 0.930 . S
C1334 C1333 1.376 . S
C1334 C1335 1.388 . S
C1335 H1322 0.930 . S
C1335 C1334 1.388 . S
C1335 C1336 1.390 . S
C1336 C1335 1.390 . S
C1336 C1337 1.394 . S
C1336 C1342 1.465 . S
C1337 C1332 1.399 . S
C1337 C1336 1.394 . S
C1337 C1338 1.516 . S
C1338 C1337 1.516 . S
C1338 C1339 1.502 . S
C1338 C1340 1.561 . S
C1338 C1341 1.526 . S
C1339 H1323 0.959 . S
C1339 H1324 0.959 . S
C1339 H1325 0.961 . S
C1339 C1338 1.502 . S
C1340 H1326 0.960 . S
C1340 H1327 0.961 . S
C1340 H1328 0.959 . S
C1340 C1338 1.561 . S
C1341 C1338 1.526 . S
C1341 C1342 1.396 . S
C1341 C1346 1.390 . S
C1342 C1336 1.465 . S
C1342 C1341 1.396 . S
C1342 C1343 1.399 . S
C1343 H1329 0.929 . S
C1343 C1342 1.399 . S
C1343 C1344 1.385 . S
C1344 H1330 0.931 . S
C1344 C1343 1.385 . S
C1344 C1345 1.389 . S
C1345 C1344 1.389 . S
C1345 C1346 1.387 . S
C1346 H1331 0.930 . S
C1346 C1341 1.390 . S
C1346 C1345 1.387 . S
H1347 C1359 0.930 . S
H1348 C1361 0.930 . S
H1349 C1362 0.930 . S
H1350 C1366 0.959 . S
H1351 C1366 0.959 . S
H1352 C1366 0.961 . S
H1353 C1367 0.960 . S
H1354 C1367 0.961 . S
H1355 C1367 0.959 . S
H1356 C1370 0.929 . S
H1357 C1371 0.931 . S
H1358 C1373 0.930 . S
C1359 H1347 0.930 . S
C1359 C1360 1.399 . S
C1359 C1364 1.399 . S
C1360 C1359 1.399 . S
C1360 C1361 1.376 . S
C1361 H1348 0.930 . S
C1361 C1360 1.376 . S
C1361 C1362 1.388 . S
C1362 H1349 0.930 . S
C1362 C1361 1.388 . S
C1362 C1363 1.390 . S
C1363 C1362 1.390 . S
C1363 C1364 1.394 . S
C1363 C1369 1.465 . S
C1364 C1359 1.399 . S
C1364 C1363 1.394 . S
C1364 C1365 1.516 . S
C1365 C1364 1.516 . S
C1365 C1366 1.502 . S
C1365 C1367 1.561 . S
C1365 C1368 1.526 . S
C1366 H1350 0.959 . S
C1366 H1351 0.959 . S
C1366 H1352 0.961 . S
C1366 C1365 1.502 . S
C1367 H1353 0.960 . S
C1367 H1354 0.961 . S
C1367 H1355 0.959 . S
C1367 C1365 1.561 . S
C1368 C1365 1.526 . S
C1368 C1369 1.396 . S
C1368 C1373 1.390 . S
C1369 C1363 1.465 . S
C1369 C1368 1.396 . S
C1369 C1370 1.399 . S
C1370 H1356 0.929 . S
C1370 C1369 1.399 . S
C1370 C1371 1.385 . S
C1371 H1357 0.931 . S
C1371 C1370 1.385 . S
C1371 C1372 1.389 . S
C1372 C1371 1.389 . S
C1372 C1373 1.387 . S
C1373 H1358 0.930 . S
C1373 C1368 1.390 . S
C1373 C1372 1.387 . S
H1374 C1386 0.930 . S
H1375 C1388 0.930 . S
H1376 C1389 0.930 . S
H1377 C1393 0.959 . S
H1378 C1393 0.959 . S
H1379 C1393 0.961 . S
H1380 C1394 0.960 . S
H1381 C1394 0.961 . S
H1382 C1394 0.959 . S
H1383 C1397 0.929 . S
H1384 C1398 0.931 . S
H1385 C1400 0.930 . S
C1386 H1374 0.930 . S
C1386 C1387 1.399 . S
C1386 C1391 1.399 . S
C1387 C1386 1.399 . S
C1387 C1388 1.376 . S
C1388 H1375 0.930 . S
C1388 C1387 1.376 . S
C1388 C1389 1.388 . S
C1389 H1376 0.930 . S
C1389 C1388 1.388 . S
C1389 C1390 1.390 . S
C1390 C1389 1.390 . S
C1390 C1391 1.394 . S
C1390 C1396 1.465 . S
C1391 C1386 1.399 . S
C1391 C1390 1.394 . S
C1391 C1392 1.516 . S
C1392 C1391 1.516 . S
C1392 C1393 1.502 . S
C1392 C1394 1.561 . S
C1392 C1395 1.526 . S
C1393 H1377 0.959 . S
C1393 H1378 0.959 . S
C1393 H1379 0.961 . S
C1393 C1392 1.502 . S
C1394 H1380 0.960 . S
C1394 H1381 0.961 . S
C1394 H1382 0.959 . S
C1394 C1392 1.561 . S
C1395 C1392 1.526 . S
C1395 C1396 1.396 . S
C1395 C1400 1.390 . S
C1396 C1390 1.465 . S
C1396 C1395 1.396 . S
C1396 C1397 1.399 . S
C1397 H1383 0.929 . S
C1397 C1396 1.399 . S
C1397 C1398 1.385 . S
C1398 H1384 0.931 . S
C1398 C1397 1.385 . S
C1398 C1399 1.389 . S
C1399 C1398 1.389 . S
C1399 C1400 1.387 . S
C1400 H1385 0.930 . S
C1400 C1395 1.390 . S
C1400 C1399 1.387 . S
H1401 C1413 0.930 . S
H1402 C1415 0.930 . S
H1403 C1416 0.930 . S
H1404 C1420 0.959 . S
H1405 C1420 0.959 . S
H1406 C1420 0.961 . S
H1407 C1421 0.960 . S
H1408 C1421 0.961 . S
H1409 C1421 0.959 . S
H1410 C1424 0.929 . S
H1411 C1425 0.931 . S
H1412 C1427 0.930 . S
C1413 H1401 0.930 . S
C1413 C1414 1.399 . S
C1413 C1418 1.399 . S
C1414 C1413 1.399 . S
C1414 C1415 1.376 . S
C1415 H1402 0.930 . S
C1415 C1414 1.376 . S
C1415 C1416 1.388 . S
C1416 H1403 0.930 . S
C1416 C1415 1.388 . S
C1416 C1417 1.390 . S
C1417 C1416 1.390 . S
C1417 C1418 1.394 . S
C1417 C1423 1.465 . S
C1418 C1413 1.399 . S
C1418 C1417 1.394 . S
C1418 C1419 1.516 . S
C1419 C1418 1.516 . S
C1419 C1420 1.502 . S
C1419 C1421 1.561 . S
C1419 C1422 1.526 . S
C1420 H1404 0.959 . S
C1420 H1405 0.959 . S
C1420 H1406 0.961 . S
C1420 C1419 1.502 . S
C1421 H1407 0.960 . S
C1421 H1408 0.961 . S
C1421 H1409 0.959 . S
C1421 C1419 1.561 . S
C1422 C1419 1.526 . S
C1422 C1423 1.396 . S
C1422 C1427 1.390 . S
C1423 C1417 1.465 . S
C1423 C1422 1.396 . S
C1423 C1424 1.399 . S
C1424 H1410 0.929 . S
C1424 C1423 1.399 . S
C1424 C1425 1.385 . S
C1425 H1411 0.931 . S
C1425 C1424 1.385 . S
C1425 C1426 1.389 . S
C1426 C1425 1.389 . S
C1426 C1427 1.387 . S
C1427 H1412 0.930 . S
C1427 C1422 1.390 . S
C1427 C1426 1.387 . S
H1428 C1440 0.930 . S
H1429 C1442 0.930 . S
H1430 C1443 0.930 . S
H1431 C1447 0.959 . S
H1432 C1447 0.959 . S
H1433 C1447 0.961 . S
H1434 C1448 0.960 . S
H1435 C1448 0.961 . S
H1436 C1448 0.959 . S
H1437 C1451 0.929 . S
H1438 C1452 0.931 . S
H1439 C1454 0.930 . S
C1440 H1428 0.930 . S
C1440 C1441 1.399 . S
C1440 C1445 1.399 . S
C1441 C1440 1.399 . S
C1441 C1442 1.376 . S
C1442 H1429 0.930 . S
C1442 C1441 1.376 . S
C1442 C1443 1.388 . S
C1443 H1430 0.930 . S
C1443 C1442 1.388 . S
C1443 C1444 1.390 . S
C1444 C1443 1.390 . S
C1444 C1445 1.394 . S
C1444 C1450 1.465 . S
C1445 C1440 1.399 . S
C1445 C1444 1.394 . S
C1445 C1446 1.516 . S
C1446 C1445 1.516 . S
C1446 C1447 1.502 . S
C1446 C1448 1.561 . S
C1446 C1449 1.526 . S
C1447 H1431 0.959 . S
C1447 H1432 0.959 . S
C1447 H1433 0.961 . S
C1447 C1446 1.502 . S
C1448 H1434 0.960 . S
C1448 H1435 0.961 . S
C1448 H1436 0.959 . S
C1448 C1446 1.561 . S
C1449 C1446 1.526 . S
C1449 C1450 1.396 . S
C1449 C1454 1.390 . S
C1450 C1444 1.465 . S
C1450 C1449 1.396 . S
C1450 C1451 1.399 . S
C1451 H1437 0.929 . S
C1451 C1450 1.399 . S
C1451 C1452 1.385 . S
C1452 H1438 0.931 . S
C1452 C1451 1.385 . S
C1452 C1453 1.389 . S
C1453 C1452 1.389 . S
C1453 C1454 1.387 . S
C1454 H1439 0.930 . S
C1454 C1449 1.390 . S
C1454 C1453 1.387 . S
H1455 C1467 0.930 . S
H1456 C1469 0.930 . S
H1457 C1470 0.930 . S
H1458 C1474 0.959 . S
H1459 C1474 0.959 . S
H1460 C1474 0.961 . S
H1461 C1475 0.960 . S
H1462 C1475 0.961 . S
H1463 C1475 0.959 . S
H1464 C1478 0.929 . S
H1465 C1479 0.931 . S
H1466 C1481 0.930 . S
C1467 H1455 0.930 . S
C1467 C1468 1.399 . S
C1467 C1472 1.399 . S
C1468 C1467 1.399 . S
C1468 C1469 1.376 . S
C1469 H1456 0.930 . S
C1469 C1468 1.376 . S
C1469 C1470 1.388 . S
C1470 H1457 0.930 . S
C1470 C1469 1.388 . S
C1470 C1471 1.390 . S
C1471 C1470 1.390 . S
C1471 C1472 1.394 . S
C1471 C1477 1.465 . S
C1472 C1467 1.399 . S
C1472 C1471 1.394 . S
C1472 C1473 1.516 . S
C1473 C1472 1.516 . S
C1473 C1474 1.502 . S
C1473 C1475 1.561 . S
C1473 C1476 1.526 . S
C1474 H1458 0.959 . S
C1474 H1459 0.959 . S
C1474 H1460 0.961 . S
C1474 C1473 1.502 . S
C1475 H1461 0.960 . S
C1475 H1462 0.961 . S
C1475 H1463 0.959 . S
C1475 C1473 1.561 . S
C1476 C1473 1.526 . S
C1476 C1477 1.396 . S
C1476 C1481 1.390 . S
C1477 C1471 1.465 . S
C1477 C1476 1.396 . S
C1477 C1478 1.399 . S
C1478 H1464 0.929 . S
C1478 C1477 1.399 . S
C1478 C1479 1.385 . S
C1479 H1465 0.931 . S
C1479 C1478 1.385 . S
C1479 C1480 1.389 . S
C1480 C1479 1.389 . S
C1480 C1481 1.387 . S
C1481 H1466 0.930 . S
C1481 C1476 1.390 . S
C1481 C1480 1.387 . S
H1482 C1494 0.930 . S
H1483 C1496 0.930 . S
H1484 C1497 0.930 . S
H1485 C1501 0.959 . S
H1486 C1501 0.959 . S
H1487 C1501 0.961 . S
H1488 C1502 0.960 . S
H1489 C1502 0.961 . S
H1490 C1502 0.959 . S
H1491 C1505 0.929 . S
H1492 C1506 0.931 . S
H1493 C1508 0.930 . S
C1494 H1482 0.930 . S
C1494 C1495 1.399 . S
C1494 C1499 1.399 . S
C1495 C1494 1.399 . S
C1495 C1496 1.376 . S
C1496 H1483 0.930 . S
C1496 C1495 1.376 . S
C1496 C1497 1.388 . S
C1497 H1484 0.930 . S
C1497 C1496 1.388 . S
C1497 C1498 1.390 . S
C1498 C1497 1.390 . S
C1498 C1499 1.394 . S
C1498 C1504 1.465 . S
C1499 C1494 1.399 . S
C1499 C1498 1.394 . S
C1499 C1500 1.516 . S
C1500 C1499 1.516 . S
C1500 C1501 1.502 . S
C1500 C1502 1.561 . S
C1500 C1503 1.526 . S
C1501 H1485 0.959 . S
C1501 H1486 0.959 . S
C1501 H1487 0.961 . S
C1501 C1500 1.502 . S
C1502 H1488 0.960 . S
C1502 H1489 0.961 . S
C1502 H1490 0.959 . S
C1502 C1500 1.561 . S
C1503 C1500 1.526 . S
C1503 C1504 1.396 . S
C1503 C1508 1.390 . S
C1504 C1498 1.465 . S
C1504 C1503 1.396 . S
C1504 C1505 1.399 . S
C1505 H1491 0.929 . S
C1505 C1504 1.399 . S
C1505 C1506 1.385 . S
C1506 H1492 0.931 . S
C1506 C1505 1.385 . S
C1506 C1507 1.389 . S
C1507 C1506 1.389 . S
C1507 C1508 1.387 . S
C1508 H1493 0.930 . S
C1508 C1503 1.390 . S
C1508 C1507 1.387 . S
H1509 C1521 0.930 . S
H1510 C1523 0.930 . S
H1511 C1524 0.930 . S
H1512 C1528 0.959 . S
H1513 C1528 0.959 . S
H1514 C1528 0.961 . S
H1515 C1529 0.960 . S
H1516 C1529 0.961 . S
H1517 C1529 0.959 . S
H1518 C1532 0.929 . S
H1519 C1533 0.931 . S
H1520 C1535 0.930 . S
C1521 H1509 0.930 . S
C1521 C1522 1.399 . S
C1521 C1526 1.399 . S
C1522 C1521 1.399 . S
C1522 C1523 1.376 . S
C1523 H1510 0.930 . S
C1523 C1522 1.376 . S
C1523 C1524 1.388 . S
C1524 H1511 0.930 . S
C1524 C1523 1.388 . S
C1524 C1525 1.390 . S
C1525 C1524 1.390 . S
C1525 C1526 1.394 . S
C1525 C1531 1.465 . S
C1526 C1521 1.399 . S
C1526 C1525 1.394 . S
C1526 C1527 1.516 . S
C1527 C1526 1.516 . S
C1527 C1528 1.502 . S
C1527 C1529 1.561 . S
C1527 C1530 1.526 . S
C1528 H1512 0.959 . S
C1528 H1513 0.959 . S
C1528 H1514 0.961 . S
C1528 C1527 1.502 . S
C1529 H1515 0.960 . S
C1529 H1516 0.961 . S
C1529 H1517 0.959 . S
C1529 C1527 1.561 . S
C1530 C1527 1.526 . S
C1530 C1531 1.396 . S
C1530 C1535 1.390 . S
C1531 C1525 1.465 . S
C1531 C1530 1.396 . S
C1531 C1532 1.399 . S
C1532 H1518 0.929 . S
C1532 C1531 1.399 . S
C1532 C1533 1.385 . S
C1533 H1519 0.931 . S
C1533 C1532 1.385 . S
C1533 C1534 1.389 . S
C1534 C1533 1.389 . S
C1534 C1535 1.387 . S
C1535 H1520 0.930 . S
C1535 C1530 1.390 . S
C1535 C1534 1.387 . S
H1536 C1548 0.930 . S
H1537 C1550 0.930 . S
H1538 C1551 0.930 . S
H1539 C1555 0.959 . S
H1540 C1555 0.959 . S
H1541 C1555 0.961 . S
H1542 C1556 0.960 . S
H1543 C1556 0.961 . S
H1544 C1556 0.959 . S
H1545 C1559 0.929 . S
H1546 C1560 0.931 1_554 S
H1547 C1562 0.930 . S
C1548 H1536 0.930 . S
C1548 C1549 1.399 . S
C1548 C1553 1.399 . S
C1549 C1548 1.399 . S
C1549 C1550 1.376 . S
C1550 H1537 0.930 . S
C1550 C1549 1.376 . S
C1550 C1551 1.388 . S
C1551 H1538 0.930 . S
C1551 C1550 1.388 . S
C1551 C1552 1.390 . S
C1552 C1551 1.390 . S
C1552 C1553 1.394 . S
C1552 C1558 1.465 . S
C1553 C1548 1.399 . S
C1553 C1552 1.394 . S
C1553 C1554 1.516 . S
C1554 C1553 1.516 . S
C1554 C1555 1.502 . S
C1554 C1556 1.561 . S
C1554 C1557 1.526 . S
C1555 H1539 0.959 . S
C1555 H1540 0.959 . S
C1555 H1541 0.961 . S
C1555 C1554 1.502 . S
C1556 H1542 0.960 . S
C1556 H1543 0.961 . S
C1556 H1544 0.959 . S
C1556 C1554 1.561 . S
C1557 C1554 1.526 . S
C1557 C1558 1.396 . S
C1557 C1562 1.390 . S
C1558 C1552 1.465 . S
C1558 C1557 1.396 . S
C1558 C1559 1.399 . S
C1559 H1545 0.929 . S
C1559 C1558 1.399 . S
C1559 C1560 1.385 . S
C1560 H1546 0.931 1_556 S
C1560 C1559 1.385 . S
C1560 C1561 1.389 . S
C1561 C1560 1.389 . S
C1561 C1562 1.387 . S
C1562 H1547 0.930 . S
C1562 C1557 1.390 . S
C1562 C1561 1.387 . S
H1563 C1575 0.930 . S
H1564 C1577 0.930 . S
H1565 C1578 0.930 . S
H1566 C1582 0.959 . S
H1567 C1582 0.959 . S
H1568 C1582 0.961 . S
H1569 C1583 0.960 . S
H1570 C1583 0.961 . S
H1571 C1583 0.959 . S
H1572 C1586 0.929 . S
H1573 C1587 0.931 1_556 S
H1574 C1589 0.930 . S
C1575 H1563 0.930 . S
C1575 C1576 1.399 . S
C1575 C1580 1.399 . S
C1576 C1575 1.399 . S
C1576 C1577 1.376 . S
C1577 H1564 0.930 . S
C1577 C1576 1.376 . S
C1577 C1578 1.388 . S
C1578 H1565 0.930 . S
C1578 C1577 1.388 . S
C1578 C1579 1.390 . S
C1579 C1578 1.390 . S
C1579 C1580 1.394 . S
C1579 C1585 1.465 . S
C1580 C1575 1.399 . S
C1580 C1579 1.394 . S
C1580 C1581 1.516 . S
C1581 C1580 1.516 . S
C1581 C1582 1.502 . S
C1581 C1583 1.561 . S
C1581 C1584 1.526 . S
C1582 H1566 0.959 . S
C1582 H1567 0.959 . S
C1582 H1568 0.961 . S
C1582 C1581 1.502 . S
C1583 H1569 0.960 . S
C1583 H1570 0.961 . S
C1583 H1571 0.959 . S
C1583 C1581 1.561 . S
C1584 C1581 1.526 . S
C1584 C1585 1.396 . S
C1584 C1589 1.390 . S
C1585 C1579 1.465 . S
C1585 C1584 1.396 . S
C1585 C1586 1.399 . S
C1586 H1572 0.929 . S
C1586 C1585 1.399 . S
C1586 C1587 1.385 . S
C1587 H1573 0.931 1_554 S
C1587 C1586 1.385 . S
C1587 C1588 1.389 . S
C1588 C1587 1.389 . S
C1588 C1589 1.387 . S
C1589 H1574 0.930 . S
C1589 C1584 1.390 . S
C1589 C1588 1.387 . S
H1590 C1602 0.930 . S
H1591 C1604 0.930 . S
H1592 C1605 0.930 . S
H1593 C1609 0.959 . S
H1594 C1609 0.959 . S
H1595 C1609 0.961 . S
H1596 C1610 0.960 . S
H1597 C1610 0.961 . S
H1598 C1610 0.959 . S
H1599 C1613 0.929 . S
H1600 C1614 0.931 . S
H1601 C1616 0.930 . S
C1602 H1590 0.930 . S
C1602 C1603 1.399 . S
C1602 C1607 1.399 . S
C1603 C1602 1.399 . S
C1603 C1604 1.376 . S
C1604 H1591 0.930 . S
C1604 C1603 1.376 . S
C1604 C1605 1.388 . S
C1605 H1592 0.930 . S
C1605 C1604 1.388 . S
C1605 C1606 1.390 . S
C1606 C1605 1.390 . S
C1606 C1607 1.394 . S
C1606 C1612 1.465 . S
C1607 C1602 1.399 . S
C1607 C1606 1.394 . S
C1607 C1608 1.516 . S
C1608 C1607 1.516 . S
C1608 C1609 1.502 . S
C1608 C1610 1.561 . S
C1608 C1611 1.526 . S
C1609 H1593 0.959 . S
C1609 H1594 0.959 . S
C1609 H1595 0.961 . S
C1609 C1608 1.502 . S
C1610 H1596 0.960 . S
C1610 H1597 0.961 . S
C1610 H1598 0.959 . S
C1610 C1608 1.561 . S
C1611 C1608 1.526 . S
C1611 C1612 1.396 . S
C1611 C1616 1.390 . S
C1612 C1606 1.465 . S
C1612 C1611 1.396 . S
C1612 C1613 1.399 . S
C1613 H1599 0.929 . S
C1613 C1612 1.399 . S
C1613 C1614 1.385 . S
C1614 H1600 0.931 . S
C1614 C1613 1.385 . S
C1614 C1615 1.389 . S
C1615 C1614 1.389 . S
C1615 C1616 1.387 . S
C1616 H1601 0.930 . S
C1616 C1611 1.390 . S
C1616 C1615 1.387 . S
H1617 C1629 0.930 . S
H1618 C1631 0.930 . S
H1619 C1632 0.930 . S
H1620 C1636 0.959 . S
H1621 C1636 0.959 . S
H1622 C1636 0.961 . S
H1623 C1637 0.960 . S
H1624 C1637 0.961 . S
H1625 C1637 0.959 . S
H1626 C1640 0.929 . S
H1627 C1641 0.931 . S
H1628 C1643 0.930 . S
C1629 H1617 0.930 . S
C1629 C1630 1.399 . S
C1629 C1634 1.399 . S
C1630 C1629 1.399 . S
C1630 C1631 1.376 . S
C1631 H1618 0.930 . S
C1631 C1630 1.376 . S
C1631 C1632 1.388 . S
C1632 H1619 0.930 . S
C1632 C1631 1.388 . S
C1632 C1633 1.390 . S
C1633 C1632 1.390 . S
C1633 C1634 1.394 . S
C1633 C1639 1.465 . S
C1634 C1629 1.399 . S
C1634 C1633 1.394 . S
C1634 C1635 1.516 . S
C1635 C1634 1.516 . S
C1635 C1636 1.502 . S
C1635 C1637 1.561 . S
C1635 C1638 1.526 . S
C1636 H1620 0.959 . S
C1636 H1621 0.959 . S
C1636 H1622 0.961 . S
C1636 C1635 1.502 . S
C1637 H1623 0.960 . S
C1637 H1624 0.961 . S
C1637 H1625 0.959 . S
C1637 C1635 1.561 . S
C1638 C1635 1.526 . S
C1638 C1639 1.396 . S
C1638 C1643 1.390 . S
C1639 C1633 1.465 . S
C1639 C1638 1.396 . S
C1639 C1640 1.399 . S
C1640 H1626 0.929 . S
C1640 C1639 1.399 . S
C1640 C1641 1.385 . S
C1641 H1627 0.931 . S
C1641 C1640 1.385 . S
C1641 C1642 1.389 . S
C1642 C1641 1.389 . S
C1642 C1643 1.387 . S
C1643 H1628 0.930 . S
C1643 C1638 1.390 . S
C1643 C1642 1.387 . S
H1644 C1656 0.930 . S
H1645 C1658 0.930 . S
H1646 C1659 0.930 . S
H1647 C1663 0.959 . S
H1648 C1663 0.959 . S
H1649 C1663 0.961 . S
H1650 C1664 0.960 . S
H1651 C1664 0.961 . S
H1652 C1664 0.959 . S
H1653 C1667 0.929 . S
H1654 C1668 0.931 . S
H1655 C1670 0.930 . S
C1656 H1644 0.930 . S
C1656 C1657 1.399 . S
C1656 C1661 1.399 . S
C1657 C1656 1.399 . S
C1657 C1658 1.376 . S
C1658 H1645 0.930 . S
C1658 C1657 1.376 . S
C1658 C1659 1.388 . S
C1659 H1646 0.930 . S
C1659 C1658 1.388 . S
C1659 C1660 1.390 . S
C1660 C1659 1.390 . S
C1660 C1661 1.394 . S
C1660 C1666 1.465 . S
C1661 C1656 1.399 . S
C1661 C1660 1.394 . S
C1661 C1662 1.516 . S
C1662 C1661 1.516 . S
C1662 C1663 1.502 . S
C1662 C1664 1.561 . S
C1662 C1665 1.526 . S
C1663 H1647 0.959 . S
C1663 H1648 0.959 . S
C1663 H1649 0.961 . S
C1663 C1662 1.502 . S
C1664 H1650 0.960 . S
C1664 H1651 0.961 . S
C1664 H1652 0.959 . S
C1664 C1662 1.561 . S
C1665 C1662 1.526 . S
C1665 C1666 1.396 . S
C1665 C1670 1.390 . S
C1666 C1660 1.465 . S
C1666 C1665 1.396 . S
C1666 C1667 1.399 . S
C1667 H1653 0.929 . S
C1667 C1666 1.399 . S
C1667 C1668 1.385 . S
C1668 H1654 0.931 . S
C1668 C1667 1.385 . S
C1668 C1669 1.389 . S
C1669 C1668 1.389 . S
C1669 C1670 1.387 . S
C1670 H1655 0.930 . S
C1670 C1665 1.390 . S
C1670 C1669 1.387 . S
H1671 C1683 0.930 . S
H1672 C1685 0.930 . S
H1673 C1686 0.930 . S
H1674 C1690 0.959 . S
H1675 C1690 0.959 . S
H1676 C1690 0.961 . S
H1677 C1691 0.960 . S
H1678 C1691 0.961 . S
H1679 C1691 0.959 . S
H1680 C1694 0.929 . S
H1681 C1695 0.931 . S
H1682 C1697 0.930 . S
C1683 H1671 0.930 . S
C1683 C1684 1.399 . S
C1683 C1688 1.399 . S
C1684 C1683 1.399 . S
C1684 C1685 1.376 . S
C1685 H1672 0.930 . S
C1685 C1684 1.376 . S
C1685 C1686 1.388 . S
C1686 H1673 0.930 . S
C1686 C1685 1.388 . S
C1686 C1687 1.390 . S
C1687 C1686 1.390 . S
C1687 C1688 1.394 . S
C1687 C1693 1.465 . S
C1688 C1683 1.399 . S
C1688 C1687 1.394 . S
C1688 C1689 1.516 . S
C1689 C1688 1.516 . S
C1689 C1690 1.502 . S
C1689 C1691 1.561 . S
C1689 C1692 1.526 . S
C1690 H1674 0.959 . S
C1690 H1675 0.959 . S
C1690 H1676 0.961 . S
C1690 C1689 1.502 . S
C1691 H1677 0.960 . S
C1691 H1678 0.961 . S
C1691 H1679 0.959 . S
C1691 C1689 1.561 . S
C1692 C1689 1.526 . S
C1692 C1693 1.396 . S
C1692 C1697 1.390 . S
C1693 C1687 1.465 . S
C1693 C1692 1.396 . S
C1693 C1694 1.399 . S
C1694 H1680 0.929 . S
C1694 C1693 1.399 . S
C1694 C1695 1.385 . S
C1695 H1681 0.931 . S
C1695 C1694 1.385 . S
C1695 C1696 1.389 . S
C1696 C1695 1.389 . S
C1696 C1697 1.387 . S
C1697 H1682 0.930 . S
C1697 C1692 1.390 . S
C1697 C1696 1.387 . S
H1698 C1710 0.930 . S
H1699 C1712 0.930 . S
H1700 C1713 0.930 . S
H1701 C1717 0.959 . S
H1702 C1717 0.959 . S
H1703 C1717 0.961 . S
H1704 C1718 0.960 . S
H1705 C1718 0.961 . S
H1706 C1718 0.959 . S
H1707 C1721 0.929 . S
H1708 C1722 0.931 . S
H1709 C1724 0.930 . S
C1710 H1698 0.930 . S
C1710 C1711 1.399 . S
C1710 C1715 1.399 . S
C1711 C1710 1.399 . S
C1711 C1712 1.376 . S
C1712 H1699 0.930 . S
C1712 C1711 1.376 . S
C1712 C1713 1.388 . S
C1713 H1700 0.930 . S
C1713 C1712 1.388 . S
C1713 C1714 1.390 . S
C1714 C1713 1.390 . S
C1714 C1715 1.394 . S
C1714 C1720 1.465 . S
C1715 C1710 1.399 . S
C1715 C1714 1.394 . S
C1715 C1716 1.516 . S
C1716 C1715 1.516 . S
C1716 C1717 1.502 . S
C1716 C1718 1.561 . S
C1716 C1719 1.526 . S
C1717 H1701 0.959 . S
C1717 H1702 0.959 . S
C1717 H1703 0.961 . S
C1717 C1716 1.502 . S
C1718 H1704 0.960 . S
C1718 H1705 0.961 . S
C1718 H1706 0.959 . S
C1718 C1716 1.561 . S
C1719 C1716 1.526 . S
C1719 C1720 1.396 . S
C1719 C1724 1.390 . S
C1720 C1714 1.465 . S
C1720 C1719 1.396 . S
C1720 C1721 1.399 . S
C1721 H1707 0.929 . S
C1721 C1720 1.399 . S
C1721 C1722 1.385 . S
C1722 H1708 0.931 . S
C1722 C1721 1.385 . S
C1722 C1723 1.389 . S
C1723 C1722 1.389 . S
C1723 C1724 1.387 . S
C1724 H1709 0.930 . S
C1724 C1719 1.390 . S
C1724 C1723 1.387 . S
H1725 C1737 0.930 . S
H1726 C1739 0.930 . S
H1727 C1740 0.930 . S
H1728 C1744 0.959 . S
H1729 C1744 0.959 . S
H1730 C1744 0.961 . S
H1731 C1745 0.960 . S
H1732 C1745 0.961 . S
H1733 C1745 0.959 . S
H1734 C1748 0.929 . S
H1735 C1749 0.931 . S
H1736 C1751 0.930 . S
C1737 H1725 0.930 . S
C1737 C1738 1.399 . S
C1737 C1742 1.399 . S
C1738 C1737 1.399 . S
C1738 C1739 1.376 . S
C1739 H1726 0.930 . S
C1739 C1738 1.376 . S
C1739 C1740 1.388 . S
C1740 H1727 0.930 . S
C1740 C1739 1.388 . S
C1740 C1741 1.390 . S
C1741 C1740 1.390 . S
C1741 C1742 1.394 . S
C1741 C1747 1.465 . S
C1742 C1737 1.399 . S
C1742 C1741 1.394 . S
C1742 C1743 1.516 . S
C1743 C1742 1.516 . S
C1743 C1744 1.502 . S
C1743 C1745 1.561 . S
C1743 C1746 1.526 . S
C1744 H1728 0.959 . S
C1744 H1729 0.959 . S
C1744 H1730 0.961 . S
C1744 C1743 1.502 . S
C1745 H1731 0.960 . S
C1745 H1732 0.961 . S
C1745 H1733 0.959 . S
C1745 C1743 1.561 . S
C1746 C1743 1.526 . S
C1746 C1747 1.396 . S
C1746 C1751 1.390 . S
C1747 C1741 1.465 . S
C1747 C1746 1.396 . S
C1747 C1748 1.399 . S
C1748 H1734 0.929 . S
C1748 C1747 1.399 . S
C1748 C1749 1.385 . S
C1749 H1735 0.931 . S
C1749 C1748 1.385 . S
C1749 C1750 1.389 . S
C1750 C1749 1.389 . S
C1750 C1751 1.387 . S
C1751 H1736 0.930 . S
C1751 C1746 1.390 . S
C1751 C1750 1.387 . S
H1752 C1764 0.930 . S
H1753 C1766 0.930 . S
H1754 C1767 0.930 . S
H1755 C1771 0.959 . S
H1756 C1771 0.959 . S
H1757 C1771 0.961 . S
H1758 C1772 0.960 . S
H1759 C1772 0.961 . S
H1760 C1772 0.959 . S
H1761 C1775 0.929 . S
H1762 C1776 0.931 1_556 S
H1763 C1778 0.930 . S
C1764 H1752 0.930 . S
C1764 C1765 1.399 . S
C1764 C1769 1.399 . S
C1765 C1764 1.399 . S
C1765 C1766 1.376 . S
C1766 H1753 0.930 . S
C1766 C1765 1.376 . S
C1766 C1767 1.388 . S
C1767 H1754 0.930 . S
C1767 C1766 1.388 . S
C1767 C1768 1.390 . S
C1768 C1767 1.390 . S
C1768 C1769 1.394 . S
C1768 C1774 1.465 . S
C1769 C1764 1.399 . S
C1769 C1768 1.394 . S
C1769 C1770 1.516 . S
C1770 C1769 1.516 . S
C1770 C1771 1.502 . S
C1770 C1772 1.561 . S
C1770 C1773 1.526 . S
C1771 H1755 0.959 . S
C1771 H1756 0.959 . S
C1771 H1757 0.961 . S
C1771 C1770 1.502 . S
C1772 H1758 0.960 . S
C1772 H1759 0.961 . S
C1772 H1760 0.959 . S
C1772 C1770 1.561 . S
C1773 C1770 1.526 . S
C1773 C1774 1.396 . S
C1773 C1778 1.390 . S
C1774 C1768 1.465 . S
C1774 C1773 1.396 . S
C1774 C1775 1.399 . S
C1775 H1761 0.929 . S
C1775 C1774 1.399 . S
C1775 C1776 1.385 . S
C1776 H1762 0.931 1_554 S
C1776 C1775 1.385 . S
C1776 C1777 1.389 . S
C1777 C1776 1.389 . S
C1777 C1778 1.387 . S
C1778 H1763 0.930 . S
C1778 C1773 1.390 . S
C1778 C1777 1.387 . S
H1779 C1791 0.930 . S
H1780 C1793 0.930 . S
H1781 C1794 0.930 . S
H1782 C1798 0.959 . S
H1783 C1798 0.959 . S
H1784 C1798 0.961 . S
H1785 C1799 0.960 . S
H1786 C1799 0.961 . S
H1787 C1799 0.959 . S
H1788 C1802 0.929 . S
H1789 C1803 0.931 . S
H1790 C1805 0.930 . S
C1791 H1779 0.930 . S
C1791 C1792 1.399 . S
C1791 C1796 1.399 . S
C1792 C1791 1.399 . S
C1792 C1793 1.376 . S
C1793 H1780 0.930 . S
C1793 C1792 1.376 . S
C1793 C1794 1.388 . S
C1794 H1781 0.930 . S
C1794 C1793 1.388 . S
C1794 C1795 1.390 . S
C1795 C1794 1.390 . S
C1795 C1796 1.394 . S
C1795 C1801 1.465 . S
C1796 C1791 1.399 . S
C1796 C1795 1.394 . S
C1796 C1797 1.516 . S
C1797 C1796 1.516 . S
C1797 C1798 1.502 . S
C1797 C1799 1.561 . S
C1797 C1800 1.526 . S
C1798 H1782 0.959 . S
C1798 H1783 0.959 . S
C1798 H1784 0.961 . S
C1798 C1797 1.502 . S
C1799 H1785 0.960 . S
C1799 H1786 0.961 . S
C1799 H1787 0.959 . S
C1799 C1797 1.561 . S
C1800 C1797 1.526 . S
C1800 C1801 1.396 . S
C1800 C1805 1.390 . S
C1801 C1795 1.465 . S
C1801 C1800 1.396 . S
C1801 C1802 1.399 . S
C1802 H1788 0.929 . S
C1802 C1801 1.399 . S
C1802 C1803 1.385 . S
C1803 H1789 0.931 . S
C1803 C1802 1.385 . S
C1803 C1804 1.389 . S
C1804 C1803 1.389 . S
C1804 C1805 1.387 . S
C1805 H1790 0.930 . S
C1805 C1800 1.390 . S
C1805 C1804 1.387 . S
H1806 C1818 0.930 . S
H1807 C1820 0.930 . S
H1808 C1821 0.930 . S
H1809 C1825 0.959 . S
H1810 C1825 0.959 . S
H1811 C1825 0.961 . S
H1812 C1826 0.960 . S
H1813 C1826 0.961 . S
H1814 C1826 0.959 . S
H1815 C1829 0.929 . S
H1816 C1830 0.931 . S
H1817 C1832 0.930 . S
C1818 H1806 0.930 . S
C1818 C1819 1.399 . S
C1818 C1823 1.399 . S
C1819 C1818 1.399 . S
C1819 C1820 1.376 . S
C1820 H1807 0.930 . S
C1820 C1819 1.376 . S
C1820 C1821 1.388 . S
C1821 H1808 0.930 . S
C1821 C1820 1.388 . S
C1821 C1822 1.390 . S
C1822 C1821 1.390 . S
C1822 C1823 1.394 . S
C1822 C1828 1.465 . S
C1823 C1818 1.399 . S
C1823 C1822 1.394 . S
C1823 C1824 1.516 . S
C1824 C1823 1.516 . S
C1824 C1825 1.502 . S
C1824 C1826 1.561 . S
C1824 C1827 1.526 . S
C1825 H1809 0.959 . S
C1825 H1810 0.959 . S
C1825 H1811 0.961 . S
C1825 C1824 1.502 . S
C1826 H1812 0.960 . S
C1826 H1813 0.961 . S
C1826 H1814 0.959 . S
C1826 C1824 1.561 . S
C1827 C1824 1.526 . S
C1827 C1828 1.396 . S
C1827 C1832 1.390 . S
C1828 C1822 1.465 . S
C1828 C1827 1.396 . S
C1828 C1829 1.399 . S
C1829 H1815 0.929 . S
C1829 C1828 1.399 . S
C1829 C1830 1.385 . S
C1830 H1816 0.931 . S
C1830 C1829 1.385 . S
C1830 C1831 1.389 . S
C1831 C1830 1.389 . S
C1831 C1832 1.387 . S
C1832 H1817 0.930 . S
C1832 C1827 1.390 . S
C1832 C1831 1.387 . S
H1833 C1845 0.930 . S
H1834 C1847 0.930 . S
H1835 C1848 0.930 . S
H1836 C1852 0.959 . S
H1837 C1852 0.959 . S
H1838 C1852 0.961 . S
H1839 C1853 0.960 . S
H1840 C1853 0.961 . S
H1841 C1853 0.959 . S
H1842 C1856 0.929 . S
H1843 C1857 0.931 . S
H1844 C1859 0.930 . S
C1845 H1833 0.930 . S
C1845 C1846 1.399 . S
C1845 C1850 1.399 . S
C1846 C1845 1.399 . S
C1846 C1847 1.376 . S
C1847 H1834 0.930 . S
C1847 C1846 1.376 . S
C1847 C1848 1.388 . S
C1848 H1835 0.930 . S
C1848 C1847 1.388 . S
C1848 C1849 1.390 . S
C1849 C1848 1.390 . S
C1849 C1850 1.394 . S
C1849 C1855 1.465 . S
C1850 C1845 1.399 . S
C1850 C1849 1.394 . S
C1850 C1851 1.516 . S
C1851 C1850 1.516 . S
C1851 C1852 1.502 . S
C1851 C1853 1.561 . S
C1851 C1854 1.526 . S
C1852 H1836 0.959 . S
C1852 H1837 0.959 . S
C1852 H1838 0.961 . S
C1852 C1851 1.502 . S
C1853 H1839 0.960 . S
C1853 H1840 0.961 . S
C1853 H1841 0.959 . S
C1853 C1851 1.561 . S
C1854 C1851 1.526 . S
C1854 C1855 1.396 . S
C1854 C1859 1.390 . S
C1855 C1849 1.465 . S
C1855 C1854 1.396 . S
C1855 C1856 1.399 . S
C1856 H1842 0.929 . S
C1856 C1855 1.399 . S
C1856 C1857 1.385 . S
C1857 H1843 0.931 . S
C1857 C1856 1.385 . S
C1857 C1858 1.389 . S
C1858 C1857 1.389 . S
C1858 C1859 1.387 . S
C1859 H1844 0.930 . S
C1859 C1854 1.390 . S
C1859 C1858 1.387 . S
H1860 C1872 0.930 . S
H1861 C1874 0.930 . S
H1862 C1875 0.930 . S
H1863 C1879 0.959 . S
H1864 C1879 0.959 . S
H1865 C1879 0.961 . S
H1866 C1880 0.960 . S
H1867 C1880 0.961 . S
H1868 C1880 0.959 . S
H1869 C1883 0.929 . S
H1870 C1884 0.931 . S
H1871 C1886 0.930 . S
C1872 H1860 0.930 . S
C1872 C1873 1.399 . S
C1872 C1877 1.399 . S
C1873 C1872 1.399 . S
C1873 C1874 1.376 . S
C1874 H1861 0.930 . S
C1874 C1873 1.376 . S
C1874 C1875 1.388 . S
C1875 H1862 0.930 . S
C1875 C1874 1.388 . S
C1875 C1876 1.390 . S
C1876 C1875 1.390 . S
C1876 C1877 1.394 . S
C1876 C1882 1.465 . S
C1877 C1872 1.399 . S
C1877 C1876 1.394 . S
C1877 C1878 1.516 . S
C1878 C1877 1.516 . S
C1878 C1879 1.502 . S
C1878 C1880 1.561 . S
C1878 C1881 1.526 . S
C1879 H1863 0.959 . S
C1879 H1864 0.959 . S
C1879 H1865 0.961 . S
C1879 C1878 1.502 . S
C1880 H1866 0.960 . S
C1880 H1867 0.961 . S
C1880 H1868 0.959 . S
C1880 C1878 1.561 . S
C1881 C1878 1.526 . S
C1881 C1882 1.396 . S
C1881 C1886 1.390 . S
C1882 C1876 1.465 . S
C1882 C1881 1.396 . S
C1882 C1883 1.399 . S
C1883 H1869 0.929 . S
C1883 C1882 1.399 . S
C1883 C1884 1.385 . S
C1884 H1870 0.931 . S
C1884 C1883 1.385 . S
C1884 C1885 1.389 . S
C1885 C1884 1.389 . S
C1885 C1886 1.387 . S
C1886 H1871 0.930 . S
C1886 C1881 1.390 . S
C1886 C1885 1.387 . S
H1887 C1899 0.930 . S
H1888 C1901 0.930 . S
H1889 C1902 0.930 . S
H1890 C1906 0.959 . S
H1891 C1906 0.959 . S
H1892 C1906 0.961 . S
H1893 C1907 0.960 . S
H1894 C1907 0.961 . S
H1895 C1907 0.959 . S
H1896 C1910 0.929 . S
H1897 C1911 0.931 . S
H1898 C1913 0.930 . S
C1899 H1887 0.930 . S
C1899 C1900 1.399 . S
C1899 C1904 1.399 . S
C1900 C1899 1.399 . S
C1900 C1901 1.376 . S
C1901 H1888 0.930 . S
C1901 C1900 1.376 . S
C1901 C1902 1.388 . S
C1902 H1889 0.930 . S
C1902 C1901 1.388 . S
C1902 C1903 1.390 . S
C1903 C1902 1.390 . S
C1903 C1904 1.394 . S
C1903 C1909 1.465 . S
C1904 C1899 1.399 . S
C1904 C1903 1.394 . S
C1904 C1905 1.516 . S
C1905 C1904 1.516 . S
C1905 C1906 1.502 . S
C1905 C1907 1.561 . S
C1905 C1908 1.526 . S
C1906 H1890 0.959 . S
C1906 H1891 0.959 . S
C1906 H1892 0.961 . S
C1906 C1905 1.502 . S
C1907 H1893 0.960 . S
C1907 H1894 0.961 . S
C1907 H1895 0.959 . S
C1907 C1905 1.561 . S
C1908 C1905 1.526 . S
C1908 C1909 1.396 . S
C1908 C1913 1.390 . S
C1909 C1903 1.465 . S
C1909 C1908 1.396 . S
C1909 C1910 1.399 . S
C1910 H1896 0.929 . S
C1910 C1909 1.399 . S
C1910 C1911 1.385 . S
C1911 H1897 0.931 . S
C1911 C1910 1.385 . S
C1911 C1912 1.389 . S
C1912 C1911 1.389 . S
C1912 C1913 1.387 . S
C1913 H1898 0.930 . S
C1913 C1908 1.390 . S
C1913 C1912 1.387 . S
H1914 C1926 0.930 . S
H1915 C1928 0.930 . S
H1916 C1929 0.930 . S
H1917 C1933 0.959 . S
H1918 C1933 0.959 . S
H1919 C1933 0.961 . S
H1920 C1934 0.960 . S
H1921 C1934 0.961 . S
H1922 C1934 0.959 . S
H1923 C1937 0.929 . S
H1924 C1938 0.931 . S
H1925 C1940 0.930 . S
C1926 H1914 0.930 . S
C1926 C1927 1.399 . S
C1926 C1931 1.399 . S
C1927 C1926 1.399 . S
C1927 C1928 1.376 . S
C1928 H1915 0.930 . S
C1928 C1927 1.376 . S
C1928 C1929 1.388 . S
C1929 H1916 0.930 . S
C1929 C1928 1.388 . S
C1929 C1930 1.390 . S
C1930 C1929 1.390 . S
C1930 C1931 1.394 . S
C1930 C1936 1.465 . S
C1931 C1926 1.399 . S
C1931 C1930 1.394 . S
C1931 C1932 1.516 . S
C1932 C1931 1.516 . S
C1932 C1933 1.502 . S
C1932 C1934 1.561 . S
C1932 C1935 1.526 . S
C1933 H1917 0.959 . S
C1933 H1918 0.959 . S
C1933 H1919 0.961 . S
C1933 C1932 1.502 . S
C1934 H1920 0.960 . S
C1934 H1921 0.961 . S
C1934 H1922 0.959 . S
C1934 C1932 1.561 . S
C1935 C1932 1.526 . S
C1935 C1936 1.396 . S
C1935 C1940 1.390 . S
C1936 C1930 1.465 . S
C1936 C1935 1.396 . S
C1936 C1937 1.399 . S
C1937 H1923 0.929 . S
C1937 C1936 1.399 . S
C1937 C1938 1.385 . S
C1938 H1924 0.931 . S
C1938 C1937 1.385 . S
C1938 C1939 1.389 . S
C1939 C1938 1.389 . S
C1939 C1940 1.387 . S
C1940 H1925 0.930 . S
C1940 C1935 1.390 . S
C1940 C1939 1.387 . S
H1941 C1953 0.930 . S
H1942 C1955 0.930 . S
H1943 C1956 0.930 . S
H1944 C1960 0.959 . S
H1945 C1960 0.959 . S
H1946 C1960 0.961 . S
H1947 C1961 0.960 . S
H1948 C1961 0.961 . S
H1949 C1961 0.959 . S
H1950 C1964 0.929 . S
H1951 C1965 0.931 . S
H1952 C1967 0.930 . S
C1953 H1941 0.930 . S
C1953 C1954 1.399 . S
C1953 C1958 1.399 . S
C1954 C1953 1.399 . S
C1954 C1955 1.376 . S
C1955 H1942 0.930 . S
C1955 C1954 1.376 . S
C1955 C1956 1.388 . S
C1956 H1943 0.930 . S
C1956 C1955 1.388 . S
C1956 C1957 1.390 . S
C1957 C1956 1.390 . S
C1957 C1958 1.394 . S
C1957 C1963 1.465 . S
C1958 C1953 1.399 . S
C1958 C1957 1.394 . S
C1958 C1959 1.516 . S
C1959 C1958 1.516 . S
C1959 C1960 1.502 . S
C1959 C1961 1.561 . S
C1959 C1962 1.526 . S
C1960 H1944 0.959 . S
C1960 H1945 0.959 . S
C1960 H1946 0.961 . S
C1960 C1959 1.502 . S
C1961 H1947 0.960 . S
C1961 H1948 0.961 . S
C1961 H1949 0.959 . S
C1961 C1959 1.561 . S
C1962 C1959 1.526 . S
C1962 C1963 1.396 . S
C1962 C1967 1.390 . S
C1963 C1957 1.465 . S
C1963 C1962 1.396 . S
C1963 C1964 1.399 . S
C1964 H1950 0.929 . S
C1964 C1963 1.399 . S
C1964 C1965 1.385 . S
C1965 H1951 0.931 . S
C1965 C1964 1.385 . S
C1965 C1966 1.389 . S
C1966 C1965 1.389 . S
C1966 C1967 1.387 . S
C1967 H1952 0.930 . S
C1967 C1962 1.390 . S
C1967 C1966 1.387 . S
H1968 C1980 0.930 . S
H1969 C1982 0.930 . S
H1970 C1983 0.930 . S
H1971 C1987 0.959 . S
H1972 C1987 0.959 . S
H1973 C1987 0.961 . S
H1974 C1988 0.960 . S
H1975 C1988 0.961 . S
H1976 C1988 0.959 . S
H1977 C1991 0.929 . S
H1978 C1992 0.931 . S
H1979 C1994 0.930 . S
C1980 H1968 0.930 . S
C1980 C1981 1.399 . S
C1980 C1985 1.399 . S
C1981 C1980 1.399 . S
C1981 C1982 1.376 . S
C1982 H1969 0.930 . S
C1982 C1981 1.376 . S
C1982 C1983 1.388 . S
C1983 H1970 0.930 . S
C1983 C1982 1.388 . S
C1983 C1984 1.390 . S
C1984 C1983 1.390 . S
C1984 C1985 1.394 . S
C1984 C1990 1.465 . S
C1985 C1980 1.399 . S
C1985 C1984 1.394 . S
C1985 C1986 1.516 . S
C1986 C1985 1.516 . S
C1986 C1987 1.502 . S
C1986 C1988 1.561 . S
C1986 C1989 1.526 . S
C1987 H1971 0.959 . S
C1987 H1972 0.959 . S
C1987 H1973 0.961 . S
C1987 C1986 1.502 . S
C1988 H1974 0.960 . S
C1988 H1975 0.961 . S
C1988 H1976 0.959 . S
C1988 C1986 1.561 . S
C1989 C1986 1.526 . S
C1989 C1990 1.396 . S
C1989 C1994 1.390 . S
C1990 C1984 1.465 . S
C1990 C1989 1.396 . S
C1990 C1991 1.399 . S
C1991 H1977 0.929 . S
C1991 C1990 1.399 . S
C1991 C1992 1.385 . S
C1992 H1978 0.931 . S
C1992 C1991 1.385 . S
C1992 C1993 1.389 . S
C1993 C1992 1.389 . S
C1993 C1994 1.387 . S
C1994 H1979 0.930 . S
C1994 C1989 1.390 . S
C1994 C1993 1.387 . S
H1995 C2007 0.930 . S
H1996 C2009 0.930 . S
H1997 C2010 0.930 . S
H1998 C2014 0.959 . S
H1999 C2014 0.959 . S
H2000 C2014 0.961 . S
H2001 C2015 0.960 . S
H2002 C2015 0.961 . S
H2003 C2015 0.959 . S
H2004 C2018 0.929 . S
H2005 C2019 0.931 . S
H2006 C2021 0.930 . S
C2007 H1995 0.930 . S
C2007 C2008 1.399 . S
C2007 C2012 1.399 . S
C2008 C2007 1.399 . S
C2008 C2009 1.376 . S
C2009 H1996 0.930 . S
C2009 C2008 1.376 . S
C2009 C2010 1.388 . S
C2010 H1997 0.930 . S
C2010 C2009 1.388 . S
C2010 C2011 1.390 . S
C2011 C2010 1.390 . S
C2011 C2012 1.394 . S
C2011 C2017 1.465 . S
C2012 C2007 1.399 . S
C2012 C2011 1.394 . S
C2012 C2013 1.516 . S
C2013 C2012 1.516 . S
C2013 C2014 1.502 . S
C2013 C2015 1.561 . S
C2013 C2016 1.526 . S
C2014 H1998 0.959 . S
C2014 H1999 0.959 . S
C2014 H2000 0.961 . S
C2014 C2013 1.502 . S
C2015 H2001 0.960 . S
C2015 H2002 0.961 . S
C2015 H2003 0.959 . S
C2015 C2013 1.561 . S
C2016 C2013 1.526 . S
C2016 C2017 1.396 . S
C2016 C2021 1.390 . S
C2017 C2011 1.465 . S
C2017 C2016 1.396 . S
C2017 C2018 1.399 . S
C2018 H2004 0.929 . S
C2018 C2017 1.399 . S
C2018 C2019 1.385 . S
C2019 H2005 0.931 . S
C2019 C2018 1.385 . S
C2019 C2020 1.389 . S
C2020 C2019 1.389 . S
C2020 C2021 1.387 . S
C2021 H2006 0.930 . S
C2021 C2016 1.390 . S
C2021 C2020 1.387 . S
H2022 C2034 0.930 . S
H2023 C2036 0.930 . S
H2024 C2037 0.930 . S
H2025 C2041 0.959 . S
H2026 C2041 0.959 . S
H2027 C2041 0.961 . S
H2028 C2042 0.960 . S
H2029 C2042 0.961 . S
H2030 C2042 0.959 . S
H2031 C2045 0.929 . S
H2032 C2046 0.931 . S
H2033 C2048 0.930 . S
C2034 H2022 0.930 . S
C2034 C2035 1.399 . S
C2034 C2039 1.399 . S
C2035 C2034 1.399 . S
C2035 C2036 1.376 . S
C2036 H2023 0.930 . S
C2036 C2035 1.376 . S
C2036 C2037 1.388 . S
C2037 H2024 0.930 . S
C2037 C2036 1.388 . S
C2037 C2038 1.390 . S
C2038 C2037 1.390 . S
C2038 C2039 1.394 . S
C2038 C2044 1.465 . S
C2039 C2034 1.399 . S
C2039 C2038 1.394 . S
C2039 C2040 1.516 . S
C2040 C2039 1.516 . S
C2040 C2041 1.502 . S
C2040 C2042 1.561 . S
C2040 C2043 1.526 . S
C2041 H2025 0.959 . S
C2041 H2026 0.959 . S
C2041 H2027 0.961 . S
C2041 C2040 1.502 . S
C2042 H2028 0.960 . S
C2042 H2029 0.961 . S
C2042 H2030 0.959 . S
C2042 C2040 1.561 . S
C2043 C2040 1.526 . S
C2043 C2044 1.396 . S
C2043 C2048 1.390 . S
C2044 C2038 1.465 . S
C2044 C2043 1.396 . S
C2044 C2045 1.399 . S
C2045 H2031 0.929 . S
C2045 C2044 1.399 . S
C2045 C2046 1.385 . S
C2046 H2032 0.931 . S
C2046 C2045 1.385 . S
C2046 C2047 1.389 . S
C2047 C2046 1.389 . S
C2047 C2048 1.387 . S
C2048 H2033 0.930 . S
C2048 C2043 1.390 . S
C2048 C2047 1.387 . S
H2049 C2061 0.930 . S
H2050 C2063 0.930 . S
H2051 C2064 0.930 . S
H2052 C2068 0.959 . S
H2053 C2068 0.959 . S
H2054 C2068 0.961 . S
H2055 C2069 0.960 . S
H2056 C2069 0.961 . S
H2057 C2069 0.959 . S
H2058 C2072 0.929 . S
H2059 C2073 0.931 . S
H2060 C2075 0.930 . S
C2061 H2049 0.930 . S
C2061 C2062 1.399 . S
C2061 C2066 1.399 . S
C2062 C2061 1.399 . S
C2062 C2063 1.376 . S
C2063 H2050 0.930 . S
C2063 C2062 1.376 . S
C2063 C2064 1.388 . S
C2064 H2051 0.930 . S
C2064 C2063 1.388 . S
C2064 C2065 1.390 . S
C2065 C2064 1.390 . S
C2065 C2066 1.394 . S
C2065 C2071 1.465 . S
C2066 C2061 1.399 . S
C2066 C2065 1.394 . S
C2066 C2067 1.516 . S
C2067 C2066 1.516 . S
C2067 C2068 1.502 . S
C2067 C2069 1.561 . S
C2067 C2070 1.526 . S
C2068 H2052 0.959 . S
C2068 H2053 0.959 . S
C2068 H2054 0.961 . S
C2068 C2067 1.502 . S
C2069 H2055 0.960 . S
C2069 H2056 0.961 . S
C2069 H2057 0.959 . S
C2069 C2067 1.561 . S
C2070 C2067 1.526 . S
C2070 C2071 1.396 . S
C2070 C2075 1.390 . S
C2071 C2065 1.465 . S
C2071 C2070 1.396 . S
C2071 C2072 1.399 . S
C2072 H2058 0.929 . S
C2072 C2071 1.399 . S
C2072 C2073 1.385 . S
C2073 H2059 0.931 . S
C2073 C2072 1.385 . S
C2073 C2074 1.389 . S
C2074 C2073 1.389 . S
C2074 C2075 1.387 . S
C2075 H2060 0.930 . S
C2075 C2070 1.390 . S
C2075 C2074 1.387 . S
H2076 C2088 0.930 . S
H2077 C2090 0.930 . S
H2078 C2091 0.930 . S
H2079 C2095 0.959 . S
H2080 C2095 0.959 . S
H2081 C2095 0.961 . S
H2082 C2096 0.960 . S
H2083 C2096 0.961 . S
H2084 C2096 0.959 . S
H2085 C2099 0.929 . S
H2086 C2100 0.931 . S
H2087 C2102 0.930 . S
C2088 H2076 0.930 . S
C2088 C2089 1.399 . S
C2088 C2093 1.399 . S
C2089 C2088 1.399 . S
C2089 C2090 1.376 . S
C2090 H2077 0.930 . S
C2090 C2089 1.376 . S
C2090 C2091 1.388 . S
C2091 H2078 0.930 . S
C2091 C2090 1.388 . S
C2091 C2092 1.390 . S
C2092 C2091 1.390 . S
C2092 C2093 1.394 . S
C2092 C2098 1.465 . S
C2093 C2088 1.399 . S
C2093 C2092 1.394 . S
C2093 C2094 1.516 . S
C2094 C2093 1.516 . S
C2094 C2095 1.502 . S
C2094 C2096 1.561 . S
C2094 C2097 1.526 . S
C2095 H2079 0.959 . S
C2095 H2080 0.959 . S
C2095 H2081 0.961 . S
C2095 C2094 1.502 . S
C2096 H2082 0.960 . S
C2096 H2083 0.961 . S
C2096 H2084 0.959 . S
C2096 C2094 1.561 . S
C2097 C2094 1.526 . S
C2097 C2098 1.396 . S
C2097 C2102 1.390 . S
C2098 C2092 1.465 . S
C2098 C2097 1.396 . S
C2098 C2099 1.399 . S
C2099 H2085 0.929 . S
C2099 C2098 1.399 . S
C2099 C2100 1.385 . S
C2100 H2086 0.931 . S
C2100 C2099 1.385 . S
C2100 C2101 1.389 . S
C2101 C2100 1.389 . S
C2101 C2102 1.387 . S
C2102 H2087 0.930 . S
C2102 C2097 1.390 . S
C2102 C2101 1.387 . S
H2103 C2115 0.930 . S
H2104 C2117 0.930 . S
H2105 C2118 0.930 . S
H2106 C2122 0.959 . S
H2107 C2122 0.959 . S
H2108 C2122 0.961 . S
H2109 C2123 0.960 . S
H2110 C2123 0.961 . S
H2111 C2123 0.959 . S
H2112 C2126 0.929 . S
H2113 C2127 0.931 . S
H2114 C2129 0.930 . S
C2115 H2103 0.930 . S
C2115 C2116 1.399 . S
C2115 C2120 1.399 . S
C2116 C2115 1.399 . S
C2116 C2117 1.376 . S
C2117 H2104 0.930 . S
C2117 C2116 1.376 . S
C2117 C2118 1.388 . S
C2118 H2105 0.930 . S
C2118 C2117 1.388 . S
C2118 C2119 1.390 . S
C2119 C2118 1.390 . S
C2119 C2120 1.394 . S
C2119 C2125 1.465 . S
C2120 C2115 1.399 . S
C2120 C2119 1.394 . S
C2120 C2121 1.516 . S
C2121 C2120 1.516 . S
C2121 C2122 1.502 . S
C2121 C2123 1.561 . S
C2121 C2124 1.526 . S
C2122 H2106 0.959 . S
C2122 H2107 0.959 . S
C2122 H2108 0.961 . S
C2122 C2121 1.502 . S
C2123 H2109 0.960 . S
C2123 H2110 0.961 . S
C2123 H2111 0.959 . S
C2123 C2121 1.561 . S
C2124 C2121 1.526 . S
C2124 C2125 1.396 . S
C2124 C2129 1.390 . S
C2125 C2119 1.465 . S
C2125 C2124 1.396 . S
C2125 C2126 1.399 . S
C2126 H2112 0.929 . S
C2126 C2125 1.399 . S
C2126 C2127 1.385 . S
C2127 H2113 0.931 . S
C2127 C2126 1.385 . S
C2127 C2128 1.389 . S
C2128 C2127 1.389 . S
C2128 C2129 1.387 . S
C2129 H2114 0.930 . S
C2129 C2124 1.390 . S
C2129 C2128 1.387 . S
H2130 C2142 0.930 . S
H2131 C2144 0.930 . S
H2132 C2145 0.930 . S
H2133 C2149 0.959 . S
H2134 C2149 0.959 . S
H2135 C2149 0.961 . S
H2136 C2150 0.960 . S
H2137 C2150 0.961 . S
H2138 C2150 0.959 . S
H2139 C2153 0.929 . S
H2140 C2154 0.931 . S
H2141 C2156 0.930 . S
C2142 H2130 0.930 . S
C2142 C2143 1.399 . S
C2142 C2147 1.399 . S
C2143 C2142 1.399 . S
C2143 C2144 1.376 . S
C2144 H2131 0.930 . S
C2144 C2143 1.376 . S
C2144 C2145 1.388 . S
C2145 H2132 0.930 . S
C2145 C2144 1.388 . S
C2145 C2146 1.390 . S
C2146 C2145 1.390 . S
C2146 C2147 1.394 . S
C2146 C2152 1.465 . S
C2147 C2142 1.399 . S
C2147 C2146 1.394 . S
C2147 C2148 1.516 . S
C2148 C2147 1.516 . S
C2148 C2149 1.502 . S
C2148 C2150 1.561 . S
C2148 C2151 1.526 . S
C2149 H2133 0.959 . S
C2149 H2134 0.959 . S
C2149 H2135 0.961 . S
C2149 C2148 1.502 . S
C2150 H2136 0.960 . S
C2150 H2137 0.961 . S
C2150 H2138 0.959 . S
C2150 C2148 1.561 . S
C2151 C2148 1.526 . S
C2151 C2152 1.396 . S
C2151 C2156 1.390 . S
C2152 C2146 1.465 . S
C2152 C2151 1.396 . S
C2152 C2153 1.399 . S
C2153 H2139 0.929 . S
C2153 C2152 1.399 . S
C2153 C2154 1.385 . S
C2154 H2140 0.931 . S
C2154 C2153 1.385 . S
C2154 C2155 1.389 . S
C2155 C2154 1.389 . S
C2155 C2156 1.387 . S
C2156 H2141 0.930 . S
C2156 C2151 1.390 . S
C2156 C2155 1.387 . S
H2157 C2169 0.930 . S
H2158 C2171 0.930 . S
H2159 C2172 0.930 . S
H2160 C2176 0.959 . S
H2161 C2176 0.959 . S
H2162 C2176 0.961 . S
H2163 C2177 0.960 . S
H2164 C2177 0.961 . S
H2165 C2177 0.959 . S
H2166 C2180 0.929 . S
H2167 C2181 0.931 . S
H2168 C2183 0.930 . S
C2169 H2157 0.930 . S
C2169 C2170 1.399 . S
C2169 C2174 1.399 . S
C2170 C2169 1.399 . S
C2170 C2171 1.376 . S
C2171 H2158 0.930 . S
C2171 C2170 1.376 . S
C2171 C2172 1.388 . S
C2172 H2159 0.930 . S
C2172 C2171 1.388 . S
C2172 C2173 1.390 . S
C2173 C2172 1.390 . S
C2173 C2174 1.394 . S
C2173 C2179 1.465 . S
C2174 C2169 1.399 . S
C2174 C2173 1.394 . S
C2174 C2175 1.516 . S
C2175 C2174 1.516 . S
C2175 C2176 1.502 . S
C2175 C2177 1.561 . S
C2175 C2178 1.526 . S
C2176 H2160 0.959 . S
C2176 H2161 0.959 . S
C2176 H2162 0.961 . S
C2176 C2175 1.502 . S
C2177 H2163 0.960 . S
C2177 H2164 0.961 . S
C2177 H2165 0.959 . S
C2177 C2175 1.561 . S
C2178 C2175 1.526 . S
C2178 C2179 1.396 . S
C2178 C2183 1.390 . S
C2179 C2173 1.465 . S
C2179 C2178 1.396 . S
C2179 C2180 1.399 . S
C2180 H2166 0.929 . S
C2180 C2179 1.399 . S
C2180 C2181 1.385 . S
C2181 H2167 0.931 . S
C2181 C2180 1.385 . S
C2181 C2182 1.389 . S
C2182 C2181 1.389 . S
C2182 C2183 1.387 . S
C2183 H2168 0.930 . S
C2183 C2178 1.390 . S
C2183 C2182 1.387 . S
H2184 C2196 0.930 . S
H2185 C2198 0.930 . S
H2186 C2199 0.930 . S
H2187 C2203 0.959 . S
H2188 C2203 0.959 . S
H2189 C2203 0.961 . S
H2190 C2204 0.960 . S
H2191 C2204 0.961 . S
H2192 C2204 0.959 . S
H2193 C2207 0.929 . S
H2194 C2208 0.931 . S
H2195 C2210 0.930 . S
C2196 H2184 0.930 . S
C2196 C2197 1.399 . S
C2196 C2201 1.399 . S
C2197 C2196 1.399 . S
C2197 C2198 1.376 . S
C2198 H2185 0.930 . S
C2198 C2197 1.376 . S
C2198 C2199 1.388 . S
C2199 H2186 0.930 . S
C2199 C2198 1.388 . S
C2199 C2200 1.390 . S
C2200 C2199 1.390 . S
C2200 C2201 1.394 . S
C2200 C2206 1.465 . S
C2201 C2196 1.399 . S
C2201 C2200 1.394 . S
C2201 C2202 1.516 . S
C2202 C2201 1.516 . S
C2202 C2203 1.502 . S
C2202 C2204 1.561 . S
C2202 C2205 1.526 . S
C2203 H2187 0.959 . S
C2203 H2188 0.959 . S
C2203 H2189 0.961 . S
C2203 C2202 1.502 . S
C2204 H2190 0.960 . S
C2204 H2191 0.961 . S
C2204 H2192 0.959 . S
C2204 C2202 1.561 . S
C2205 C2202 1.526 . S
C2205 C2206 1.396 . S
C2205 C2210 1.390 . S
C2206 C2200 1.465 . S
C2206 C2205 1.396 . S
C2206 C2207 1.399 . S
C2207 H2193 0.929 . S
C2207 C2206 1.399 . S
C2207 C2208 1.385 . S
C2208 H2194 0.931 . S
C2208 C2207 1.385 . S
C2208 C2209 1.389 . S
C2209 C2208 1.389 . S
C2209 C2210 1.387 . S
C2210 H2195 0.930 . S
C2210 C2205 1.390 . S
C2210 C2209 1.387 . S
H2211 C2223 0.930 . S
H2212 C2225 0.930 . S
H2213 C2226 0.930 . S
H2214 C2230 0.959 . S
H2215 C2230 0.959 . S
H2216 C2230 0.961 . S
H2217 C2231 0.960 . S
H2218 C2231 0.961 . S
H2219 C2231 0.959 . S
H2220 C2234 0.929 . S
H2221 C2235 0.931 . S
H2222 C2237 0.930 . S
C2223 H2211 0.930 . S
C2223 C2224 1.399 . S
C2223 C2228 1.399 . S
C2224 C2223 1.399 . S
C2224 C2225 1.376 . S
C2225 H2212 0.930 . S
C2225 C2224 1.376 . S
C2225 C2226 1.388 . S
C2226 H2213 0.930 . S
C2226 C2225 1.388 . S
C2226 C2227 1.390 . S
C2227 C2226 1.390 . S
C2227 C2228 1.394 . S
C2227 C2233 1.465 . S
C2228 C2223 1.399 . S
C2228 C2227 1.394 . S
C2228 C2229 1.516 . S
C2229 C2228 1.516 . S
C2229 C2230 1.502 . S
C2229 C2231 1.561 . S
C2229 C2232 1.526 . S
C2230 H2214 0.959 . S
C2230 H2215 0.959 . S
C2230 H2216 0.961 . S
C2230 C2229 1.502 . S
C2231 H2217 0.960 . S
C2231 H2218 0.961 . S
C2231 H2219 0.959 . S
C2231 C2229 1.561 . S
C2232 C2229 1.526 . S
C2232 C2233 1.396 . S
C2232 C2237 1.390 . S
C2233 C2227 1.465 . S
C2233 C2232 1.396 . S
C2233 C2234 1.399 . S
C2234 H2220 0.929 . S
C2234 C2233 1.399 . S
C2234 C2235 1.385 . S
C2235 H2221 0.931 . S
C2235 C2234 1.385 . S
C2235 C2236 1.389 . S
C2236 C2235 1.389 . S
C2236 C2237 1.387 . S
C2237 H2222 0.930 . S
C2237 C2232 1.390 . S
C2237 C2236 1.387 . S
H2238 C2250 0.930 . S
H2239 C2252 0.930 . S
H2240 C2253 0.930 . S
H2241 C2257 0.959 . S
H2242 C2257 0.959 . S
H2243 C2257 0.961 . S
H2244 C2258 0.960 . S
H2245 C2258 0.961 . S
H2246 C2258 0.959 . S
H2247 C2261 0.929 . S
H2248 C2262 0.931 . S
H2249 C2264 0.930 . S
C2250 H2238 0.930 . S
C2250 C2251 1.399 . S
C2250 C2255 1.399 . S
C2251 C2250 1.399 . S
C2251 C2252 1.376 . S
C2252 H2239 0.930 . S
C2252 C2251 1.376 . S
C2252 C2253 1.388 . S
C2253 H2240 0.930 . S
C2253 C2252 1.388 . S
C2253 C2254 1.390 . S
C2254 C2253 1.390 . S
C2254 C2255 1.394 . S
C2254 C2260 1.465 . S
C2255 C2250 1.399 . S
C2255 C2254 1.394 . S
C2255 C2256 1.516 . S
C2256 C2255 1.516 . S
C2256 C2257 1.502 . S
C2256 C2258 1.561 . S
C2256 C2259 1.526 . S
C2257 H2241 0.959 . S
C2257 H2242 0.959 . S
C2257 H2243 0.961 . S
C2257 C2256 1.502 . S
C2258 H2244 0.960 . S
C2258 H2245 0.961 . S
C2258 H2246 0.959 . S
C2258 C2256 1.561 . S
C2259 C2256 1.526 . S
C2259 C2260 1.396 . S
C2259 C2264 1.390 . S
C2260 C2254 1.465 . S
C2260 C2259 1.396 . S
C2260 C2261 1.399 . S
C2261 H2247 0.929 . S
C2261 C2260 1.399 . S
C2261 C2262 1.385 . S
C2262 H2248 0.931 . S
C2262 C2261 1.385 . S
C2262 C2263 1.389 . S
C2263 C2262 1.389 . S
C2263 C2264 1.387 . S
C2264 H2249 0.930 . S
C2264 C2259 1.390 . S
C2264 C2263 1.387 . S
H2265 C2277 0.930 . S
H2266 C2279 0.930 . S
H2267 C2280 0.930 . S
H2268 C2284 0.959 . S
H2269 C2284 0.959 . S
H2270 C2284 0.961 . S
H2271 C2285 0.960 . S
H2272 C2285 0.961 . S
H2273 C2285 0.959 . S
H2274 C2288 0.929 . S
H2275 C2289 0.931 . S
H2276 C2291 0.930 . S
C2277 H2265 0.930 . S
C2277 C2278 1.399 . S
C2277 C2282 1.399 . S
C2278 C2277 1.399 . S
C2278 C2279 1.376 . S
C2279 H2266 0.930 . S
C2279 C2278 1.376 . S
C2279 C2280 1.388 . S
C2280 H2267 0.930 . S
C2280 C2279 1.388 . S
C2280 C2281 1.390 . S
C2281 C2280 1.390 . S
C2281 C2282 1.394 . S
C2281 C2287 1.465 . S
C2282 C2277 1.399 . S
C2282 C2281 1.394 . S
C2282 C2283 1.516 . S
C2283 C2282 1.516 . S
C2283 C2284 1.502 . S
C2283 C2285 1.561 . S
C2283 C2286 1.526 . S
C2284 H2268 0.959 . S
C2284 H2269 0.959 . S
C2284 H2270 0.961 . S
C2284 C2283 1.502 . S
C2285 H2271 0.960 . S
C2285 H2272 0.961 . S
C2285 H2273 0.959 . S
C2285 C2283 1.561 . S
C2286 C2283 1.526 . S
C2286 C2287 1.396 . S
C2286 C2291 1.390 . S
C2287 C2281 1.465 . S
C2287 C2286 1.396 . S
C2287 C2288 1.399 . S
C2288 H2274 0.929 . S
C2288 C2287 1.399 . S
C2288 C2289 1.385 . S
C2289 H2275 0.931 . S
C2289 C2288 1.385 . S
C2289 C2290 1.389 . S
C2290 C2289 1.389 . S
C2290 C2291 1.387 . S
C2291 H2276 0.930 . S
C2291 C2286 1.390 . S
C2291 C2290 1.387 . S
C1021 C707 1.242 . S
C1009 C74 1.213 . S
C1048 C685 0.407 . S
C1036 C142 0.863 . S
C1075 C682 0.747 . S
C1063 C231 0.776 . S
C1090 C322 1.558 . S
C1102 C694 1.632 . S
C1117 C406 0.669 . S
C1129 C677 0.180 . S
C1156 C699 0.788 . S
C1144 C494 0.732 . S
C1171 C562 1.591 . S
C1183 C704 1.642 . S
C1198 C651 1.167 . S
C1210 C700 1.236 . S
C1237 C758 1.642 . S
C1225 C58 1.621 . S
C1252 C151 1.300 . S
C1264 C808 1.355 . S
C1291 C731 2.802 . S
C1279 C224 2.692 . S
C1318 C807 0.799 . S
C1306 C315 0.797 . S
C1333 C399 0.709 . S
C1345 C736 0.790 . S
C1372 C802 1.641 . S
C1360 C478 1.596 . S
C1387 C571 1.313 . S
C1399 C761 1.328 . S
C1414 C644 2.685 . S
C1426 C793 2.792 . S
C1441 C67 2.691 . S
C1453 C785 2.795 . S
C1468 C392 1.272 . S
C1480 C815 1.362 . S
C1507 C739 2.811 . S
C1495 C487 2.659 . S
C1534 C790 0.775 . S
C1522 C578 0.721 . S
C1549 C658 1.634 . S
C1561 C748 1.713 . S
C1576 C238 1.630 . S
C1588 C812 1.721 . S
C1615 C754 1.358 . S
C1603 C308 1.312 . S
C1630 C158 0.878 . S
C1642 C753 0.833 . S
C1657 C662 1.142 . S
C1669 C869 1.235 . S
C1684 C394 0.849 . S
C1696 C847 0.378 . S
C1723 C844 0.839 . S
C1711 C483 0.733 . S
C1750 C856 1.672 . S
C1738 C574 1.606 . S
C1765 C154 0.868 . S
C1777 C839 0.423 . S
C1804 C861 0.776 . S
C1792 C242 0.872 . S
C1819 C310 1.557 . S
C1831 C866 1.615 . S
C1846 C63 1.211 . S
C1858 C862 1.238 . S
C1873 C646 1.632 . S
C1885 C920 1.701 . S
C1912 C970 1.387 . S
C1900 C403 1.302 . S
C1927 C476 2.656 . S
C1939 C893 2.764 . S
C1954 C567 0.807 . S
C1966 C969 0.802 . S
C1993 C898 0.840 . S
C1981 C147 0.875 . S
C2008 C226 1.658 . S
C2020 C964 1.659 . S
C2047 C923 1.331 . S
C2035 C319 1.307 . S
C2074 C955 2.765 . S
C2062 C56 2.653 . S
C2101 C947 2.779 . S
C2089 C655 2.654 . S
C2116 C140 1.366 . S
C2128 C977 1.374 . S
C2143 C235 2.664 . S
C2155 C901 2.814 . S
C2182 C952 0.782 . S
C2170 C326 0.701 . S
C2197 C70 1.563 . S
C2209 C910 1.661 . S
C2224 C490 1.632 . S
C2236 C974 1.657 . S
C2263 C916 1.372 . S
C2251 C560 1.269 . S
C2290 C915 0.851 . S
C2278 C410 0.899 . S
