# Generated by pormake.
# Topology pts, (4,4)-cn, num edge types: 1
# Building blocks:
#     Node 0, Type 0, BuildingBlock: KOZSID_clean_sbu_0, # of connection points: 4
#     Node 1, Type 0, BuildingBlock: KOZSID_clean_sbu_0, # of connection points: 4
#     Node 2, Type 1, BuildingBlock: AZAVOO_clean_sbu_0, # of connection points: 4
#     Node 3, Type 1, BuildingBlock: AZAVOO_clean_sbu_0, # of connection points: 4
#     Edge 4, Type (0, 1), BuildingBlock: KIFKEQ_clean_linker_1, # of connection points: 2
#     Edge 5, Type (0, 1), BuildingBlock: KIFKEQ_clean_linker_1, # of connection points: 2
#     Edge 6, Type (0, 1), BuildingBlock: KIFKEQ_clean_linker_1, # of connection points: 2
#     Edge 7, Type (0, 1), BuildingBlock: KIFKEQ_clean_linker_1, # of connection points: 2
#     Edge 8, Type (0, 1), BuildingBlock: KIFKEQ_clean_linker_1, # of connection points: 2
#     Edge 9, Type (0, 1), BuildingBlock: KIFKEQ_clean_linker_1, # of connection points: 2
#     Edge 10, Type (0, 1), BuildingBlock: KIFKEQ_clean_linker_1, # of connection points: 2
#     Edge 11, Type (0, 1), BuildingBlock: KIFKEQ_clean_linker_1, # of connection points: 2
# Relax obj value: 0.000
# Max RMSD: 0.030
# Mean RMSD: 0.015
data_MOF--net-pts--node1-KOZSID_clean_sbu_0--node2-AZAVOO_clean_sbu_0--edge1-KIFKEQ_clean_linker_1
_symmetry_space_group_name_H-M    P1
_symmetry_Int_Tables_number       1
_symmetry_cell_setting            triclinic
loop_
_symmetry_equiv_pos_as_xyz
'x, y, z'
_cell_length_a     26.997958
_cell_length_b     27.748357
_cell_length_c     40.385919
_cell_angle_alpha  86.103477
_cell_angle_beta   100.07113
_cell_angle_gamma 90.3752
loop_
_atom_site_label
_atom_site_type_symbol
_atom_site_fract_x
_atom_site_fract_y
_atom_site_fract_z
_atom_type_partial_charge
C0 C 0.64563 0.11835 0.06149 0.0
C1 C 0.6643 0.16329 0.07038 0.0
C2 C 0.63497 0.19689 0.0498 0.0
C3 C 0.60039 0.17071 0.02947 0.0
N4 N 0.60523 0.12238 0.03616 0.0
Co5 Co 0.56585 0.07099 0.01053 0.0
N6 N 0.52492 0.12039 0.9787 0.0
C7 C 0.52856 0.169 0.97927 0.0
C8 C 0.49317 0.19361 0.95589 0.0
C9 C 0.46454 0.1587 0.93975 0.0
C10 C 0.48445 0.11458 0.95416 0.0
N11 N 0.52748 0.0195 0.98449 0.0
C12 C 0.4878 0.0233 0.95874 0.0
C13 C 0.47229 0.97837 0.94779 0.0
C14 C 0.50237 0.94491 0.96793 0.0
C15 C 0.53462 0.97118 0.98976 0.0
N16 N 0.60565 0.02148 0.04284 0.0
C17 C 0.60022 0.97292 0.04333 0.0
C18 C 0.63294 0.94828 0.06844 0.0
C19 C 0.66154 0.98307 0.08469 0.0
C20 C 0.64479 0.02711 0.06827 0.0
N21 N 0.51411 0.07164 0.04008 0.0
C22 C 0.43504 0.0725 0.07765 0.0
C23 C 0.45429 0.02909 0.06936 0.0
C24 C 0.49332 0.02949 0.05075 0.0
C25 C 0.45726 0.11546 0.06761 0.0
C26 C 0.49652 0.1142 0.04914 0.0
N27 N 0.61771 0.07049 0.98099 0.0
C28 C 0.6824 0.02811 0.9597 0.0
C29 C 0.69828 0.07102 0.94481 0.0
C30 C 0.67193 0.11341 0.94721 0.0
C31 C 0.63224 0.11238 0.96538 0.0
C32 C 0.64208 0.02857 0.97717 0.0
H33 H 0.61456 0.14612 0.96694 0.0
H34 H 0.63187 0.99458 0.98778 0.0
H35 H 0.50566 0.99518 0.04502 0.0
H36 H 0.51152 0.14818 0.04207 0.0
C37 C 0.56429 0.19035 0.00306 0.0
C38 C 0.66897 0.07291 0.07665 0.0
C39 C 0.46219 0.06824 0.94489 0.0
C40 C 0.56784 0.95144 0.01773 0.0
H41 H 0.69654 0.17104 0.08921 0.0
H42 H 0.63923 0.23574 0.04911 0.0
H43 H 0.48789 0.23233 0.95174 0.0
H44 H 0.43194 0.16508 0.92019 0.0
H45 H 0.44149 0.97052 0.92792 0.0
H46 H 0.49971 0.90601 0.96758 0.0
H47 H 0.63682 0.90955 0.0735 0.0
H48 H 0.69227 0.97666 0.10564 0.0
H49 H 0.43948 0.99465 0.07726 0.0
H50 H 0.44382 0.15012 0.07328 0.0
H51 H 0.70101 0.99417 0.95787 0.0
H52 H 0.68283 0.14754 0.93598 0.0
C53 C 0.10715 0.47719 0.56989 0.0
C54 C 0.15225 0.46185 0.58979 0.0
C55 C 0.18923 0.48894 0.57876 0.0
C56 C 0.16468 0.51937 0.55305 0.0
N57 N 0.11425 0.51336 0.54695 0.0
Co58 Co 0.06417 0.55224 0.51329 0.0
N59 N 0.11887 0.58875 0.49494 0.0
C60 C 0.16895 0.58101 0.50397 0.0
C61 C 0.19736 0.60947 0.48556 0.0
C62 C 0.16338 0.63694 0.46327 0.0
C63 C 0.11603 0.62387 0.46966 0.0
N64 N 0.01396 0.59347 0.48129 0.0
C65 C 0.02101 0.6304 0.45888 0.0
C66 C 0.97562 0.65135 0.44316 0.0
C67 C 0.93861 0.62645 0.45584 0.0
C68 C 0.96336 0.59219 0.47871 0.0
N69 N 0.00953 0.51321 0.52995 0.0
C70 C 0.95954 0.51734 0.51835 0.0
C71 C 0.93128 0.48394 0.53324 0.0
C72 C 0.96531 0.45641 0.55547 0.0
C73 C 0.01249 0.47499 0.553 0.0
N74 N 0.06257 0.59989 0.54768 0.0
C75 C 0.05924 0.67002 0.59483 0.0
C76 C 0.01686 0.64267 0.58315 0.0
C77 C 0.01918 0.60854 0.55962 0.0
C78 C 0.10363 0.66078 0.58289 0.0
C79 C 0.1046 0.6256 0.55985 0.0
N80 N 0.06576 0.50482 0.47885 0.0
C81 C 0.02474 0.46531 0.42996 0.0
C82 C 0.06694 0.43603 0.43052 0.0
C83 C 0.10909 0.44297 0.45532 0.0
C84 C 0.10793 0.47762 0.47874 0.0
C85 C 0.02465 0.4985 0.45438 0.0
H86 H 0.14147 0.48126 0.49677 0.0
H87 H 0.99057 0.51833 0.453 0.0
H88 H 0.98513 0.58986 0.5514 0.0
H89 H 0.13979 0.62028 0.55204 0.0
C90 C 0.18813 0.54984 0.53172 0.0
C91 C 0.05894 0.45496 0.57289 0.0
C92 C 0.06969 0.64674 0.45164 0.0
C93 C 0.94018 0.55536 0.49552 0.0
H94 H 0.15787 0.43336 0.60978 0.0
H95 H 0.22935 0.4858 0.58771 0.0
H96 H 0.23796 0.61075 0.48842 0.0
H97 H 0.17244 0.66396 0.44467 0.0
H98 H 0.96974 0.68125 0.42424 0.0
H99 H 0.8984 0.63201 0.44872 0.0
H100 H 0.89075 0.48043 0.52878 0.0
H101 H 0.95638 0.42623 0.57178 0.0
H102 H 0.98174 0.64738 0.59204 0.0
H103 H 0.13749 0.6812 0.59065 0.0
H104 H 0.99139 0.46257 0.41094 0.0
H105 H 0.14263 0.42101 0.45742 0.0
Mg106 Mg 0.10714 0.03665 0.28015 0.0
O107 O 0.02708 0.03824 0.24765 0.0
O108 O 0.97396 0.02396 0.2839 0.0
Mg109 Mg 0.01655 0.01384 0.33775 0.0
C110 C 0.98242 0.03279 0.25395 0.0
C111 C 0.18028 0.03643 0.23209 0.0
O112 O 0.19003 0.99822 0.25323 0.0
O113 O 0.09361 0.11274 0.29697 0.0
O114 O 0.0418 0.09201 0.33305 0.0
O115 O 0.1121 0.95527 0.27945 0.0
O116 O 0.08247 0.99278 0.31805 0.0
C117 C 0.06713 0.12367 0.31882 0.0
C118 C 0.09247 0.95275 0.30647 0.0
O119 O 0.14471 0.06457 0.23557 0.0
Mg120 Mg 0.02165 0.04327 0.74606 0.0
O121 O 0.10171 0.04028 0.77875 0.0
O122 O 0.15434 0.02686 0.74318 0.0
Mg123 Mg 0.11145 0.02108 0.68985 0.0
C124 C 0.14618 0.03395 0.77269 0.0
C125 C 0.98047 0.04205 0.81284 0.0
O126 O 1.00234 -0.00045 0.81481 0.0
O127 O 0.03791 0.1192 0.72418 0.0
O128 O 0.08969 0.10076 0.68922 0.0
O129 O 0.01191 0.96278 0.75252 0.0
O130 O 0.04606 -0.00063 0.71202 0.0
C131 C 0.06492 0.13158 0.70198 0.0
C132 C 0.03377 0.95967 0.72671 0.0
O133 O 0.98509 0.07189 0.78821 0.0
H134 H 0.41981 0.13181 0.12704 0.0
H135 H 0.35261 0.01355 0.07095 0.0
H136 H 0.35237 0.12749 0.16042 0.0
H137 H 0.28627 0.00868 0.10485 0.0
H138 H 0.23317 0.9701 0.20649 0.0
H139 H 0.28983 0.98311 0.16623 0.0
H140 H 0.25578 0.13574 0.15722 0.0
H141 H 0.198 0.12254 0.19783 0.0
C142 C 0.39039 0.10537 0.12145 0.0
C143 C 0.39223 0.07253 0.09658 0.0
C144 C 0.35173 0.10298 0.14059 0.0
C145 C 0.31429 0.06751 0.13541 0.0
C146 C 0.31504 0.03595 0.10974 0.0
C147 C 0.35333 0.03856 0.09048 0.0
C148 C 0.23728 0.00646 0.19576 0.0
C149 C 0.21116 0.04533 0.20539 0.0
C150 C 0.26959 0.01384 0.17251 0.0
C151 C 0.27721 0.06041 0.15851 0.0
C152 C 0.2507 0.09946 0.16774 0.0
C153 C 0.21748 0.0919 0.19076 0.0
H154 H 0.03093 0.4406 0.63458 0.0
H155 H 0.08523 0.3666 0.55749 0.0
H156 H 0.03347 0.3644 0.66967 0.0
H157 H 0.08693 0.29046 0.59175 0.0
H158 H 0.99583 0.204 0.70227 0.0
H159 H 0.99364 0.28421 0.6726 0.0
H160 H 0.13587 0.25418 0.6429 0.0
H161 H 0.13745 0.17435 0.67159 0.0
C162 C 0.04301 0.40777 0.6252 0.0
C163 C 0.05801 0.40891 0.59361 0.0
C164 C 0.04433 0.36429 0.6451 0.0
C165 C 0.06089 0.32144 0.63366 0.0
C166 C 0.07501 0.32292 0.60165 0.0
C167 C 0.07372 0.36626 0.5819 0.0
C168 C 0.0269 0.21493 0.6898 0.0
C169 C 0.06641 0.18259 0.68884 0.0
C170 C 0.02568 0.26084 0.67282 0.0
C171 C 0.06408 0.27517 0.65479 0.0
C172 C 0.10496 0.24377 0.65568 0.0
C173 C 0.106 0.19807 0.67234 0.0
H174 H 0.68501 0.10144 0.14075 0.0
H175 H 0.76058 0.04234 0.06697 0.0
H176 H 0.76266 0.09418 0.18235 0.0
H177 H 0.83829 0.03364 0.10868 0.0
H178 H 0.98034 0.06315 0.18723 0.0
H179 H 0.90608 0.07673 0.14319 0.0
H180 H 0.81073 0.02825 0.21414 0.0
H181 H 0.88402 0.01557 0.25791 0.0
C182 C 0.71858 0.08735 0.13349 0.0
C183 C 0.71726 0.07264 0.10085 0.0
C184 C 0.76288 0.08272 0.15727 0.0
C185 C 0.80665 0.06288 0.14895 0.0
C186 C 0.80548 0.04943 0.11586 0.0
C187 C 0.76111 0.0542 0.09204 0.0
C188 C 0.94352 0.05524 0.19334 0.0
C189 C 0.93829 0.03853 0.22623 0.0
C190 C 0.90097 0.06296 0.1681 0.0
C191 C 0.85236 0.05418 0.17523 0.0
C192 C 0.84742 0.03652 0.20791 0.0
C193 C 0.88968 0.02888 0.23302 0.0
H194 H 0.97933 0.72942 0.59783 0.0
H195 H 0.13343 0.6991 0.6454 0.0
H196 H 0.9758 0.79404 0.63511 0.0
H197 H 0.13019 0.76586 0.68138 0.0
H198 H 0.11025 0.93422 0.69496 0.0
H199 H 0.11787 0.86004 0.66697 0.0
H200 H 0.98389 0.80474 0.70047 0.0
H201 H 0.9765 0.87899 0.72887 0.0
C202 C 0.01228 0.73587 0.61646 0.0
C203 C 0.0567 0.70868 0.61844 0.0
C204 C 0.01019 0.77314 0.63774 0.0
C205 C 0.05268 0.78475 0.66109 0.0
C206 C 0.097 0.75767 0.66341 0.0
C207 C 0.09886 0.71971 0.64256 0.0
C208 C 0.08267 0.90616 0.6966 0.0
C209 C 0.04243 0.9126 0.7137 0.0
C210 C 0.08731 0.86354 0.68084 0.0
C211 C 0.05126 0.82695 0.68143 0.0
C212 C 0.01199 0.83262 0.69953 0.0
C213 C 0.00795 0.8749 0.71589 0.0
H214 H 0.44562 0.09268 0.87751 0.0
H215 H 0.37109 0.03841 0.95835 0.0
H216 H 0.36752 0.08511 0.8372 0.0
H217 H 0.29281 0.02947 0.91805 0.0
H218 H 0.1501 0.06385 0.83688 0.0
H219 H 0.2253 0.07412 0.87947 0.0
H220 H 0.31749 0.01994 0.81277 0.0
H221 H 0.2433 0.01053 0.77036 0.0
C222 C 0.41223 0.0794 0.88653 0.0
C223 C 0.41392 0.06634 0.92083 0.0
C224 C 0.36765 0.07463 0.86354 0.0
C225 C 0.32393 0.0563 0.87435 0.0
C226 C 0.32559 0.04409 0.90892 0.0
C227 C 0.37028 0.04896 0.93194 0.0
C228 C 0.18641 0.05387 0.83144 0.0
C229 C 0.19056 0.03678 0.80003 0.0
C230 C 0.2295 0.05969 0.85586 0.0
C231 C 0.27754 0.04852 0.84934 0.0
C232 C 0.2813 0.03006 0.81835 0.0
C233 C 0.23853 0.02435 0.79406 0.0
H234 H 0.14508 0.39943 0.40345 0.0
H235 H 0.98573 0.38236 0.4039 0.0
H236 H 0.14412 0.32763 0.37173 0.0
H237 H 0.98419 0.31412 0.36984 0.0
H238 H 0.01295 0.15602 0.36343 0.0
H239 H 0.01293 0.23461 0.38482 0.0
H240 H 0.1168 0.28564 0.32022 0.0
H241 H 0.11831 0.20472 0.29914 0.0
C242 C 0.10974 0.38096 0.39652 0.0
C243 C 0.06569 0.39659 0.40699 0.0
C244 C 0.10908 0.34022 0.37776 0.0
C245 C 0.06425 0.31456 0.36871 0.0
C246 C 0.01969 0.33228 0.37707 0.0
C247 C 0.02048 0.3722 0.39628 0.0
C248 C 0.03575 0.18373 0.35339 0.0
C249 C 0.06574 0.17374 0.32947 0.0
C250 C 0.03529 0.2293 0.36554 0.0
C251 C 0.06431 0.26684 0.35397 0.0
C252 C 0.0941 0.25741 0.32973 0.0
C253 C 0.09476 0.2112 0.31753 0.0
H254 H 0.70674 0.11463 0.88313 0.0
H255 H 0.78981 0.02867 0.96746 0.0
H256 H 0.77811 0.11155 0.85359 0.0
H257 H 0.86186 0.02694 0.93874 0.0
H258 H 0.95275 0.97978 0.86133 0.0
H259 H 0.88696 0.99007 0.89405 0.0
H260 H 0.86144 0.13613 0.85001 0.0
H261 H 0.9264 0.12491 0.81596 0.0
C262 C 0.74059 0.09565 0.89552 0.0
C263 C 0.74249 0.07141 0.92742 0.0
C264 C 0.7817 0.09408 0.8787 0.0
C265 C 0.82593 0.06872 0.89359 0.0
C266 C 0.82818 0.04586 0.92604 0.0
C267 C 0.7869 0.04691 0.94261 0.0
C268 C 0.93358 0.01435 0.85881 0.0
C269 C 0.94481 0.05144 0.83584 0.0
C270 C 0.89583 0.02039 0.87783 0.0
C271 C 0.86848 0.06394 0.87476 0.0
C272 C 0.88099 0.10177 0.85265 0.0
C273 C 0.91861 0.09553 0.83334 0.0
H274 H 0.04283 0.65505 0.38314 0.0
H275 H 0.10283 0.73534 0.46872 0.0
H276 H 0.04511 0.7281 0.34548 0.0
H277 H 0.1065 0.80791 0.43148 0.0
H278 H 0.05524 0.93901 0.36482 0.0
H279 H 0.04729 0.86401 0.39758 0.0
H280 H 0.10428 0.7853 0.32339 0.0
H281 H 0.11064 0.86105 0.28957 0.0
C282 C 0.05673 0.68843 0.39369 0.0
C283 C 0.07243 0.69016 0.42859 0.0
C284 C 0.05831 0.73002 0.37227 0.0
C285 C 0.07556 0.77387 0.38554 0.0
C286 C 0.09207 0.77497 0.42052 0.0
C287 C 0.09037 0.73354 0.44183 0.0
C288 C 0.06514 0.90582 0.35495 0.0
C289 C 0.08338 0.90614 0.32442 0.0
C290 C 0.06119 0.86274 0.37406 0.0
C291 C 0.07588 0.81877 0.36337 0.0
C292 C 0.0925 0.81863 0.33224 0.0
C293 C 0.09627 0.86199 0.31293 0.0
loop_
_geom_bond_atom_site_label_1
_geom_bond_atom_site_label_2
_geom_bond_distance
_geom_bond_site_symmetry_2
_ccdc_geom_bond_type
C0 C1 1.443 . S
C0 N4 1.376 . S
C0 C38 1.389 . S
C1 C0 1.443 . S
C1 C2 1.340 . S
C1 H41 0.951 . S
C2 C1 1.340 . S
C2 C3 1.439 . S
C2 H42 0.950 . S
C3 C2 1.439 . S
C3 N4 1.374 . S
C3 C37 1.395 . S
N4 C0 1.376 . S
N4 C3 1.374 . S
N4 Co5 2.008 . S
Co5 N4 2.008 . S
Co5 N6 1.995 1_554 S
Co5 N11 2.008 1_544 S
Co5 N16 1.995 1_545 S
Co5 N21 2.282 . S
Co5 N27 2.282 1_554 S
N6 Co5 1.995 1_556 S
N6 C7 1.376 . S
N6 C10 1.383 . S
C7 N6 1.376 . S
C7 C8 1.446 . S
C7 C37 1.391 1_556 S
C8 C7 1.446 . S
C8 C9 1.339 . S
C8 H43 0.949 . S
C9 C8 1.339 . S
C9 C10 1.439 . S
C9 H44 0.950 . S
C10 N6 1.383 . S
C10 C9 1.439 . S
C10 C39 1.392 . S
N11 Co5 2.008 1_566 S
N11 C12 1.376 1_565 S
N11 C15 1.374 . S
C12 N11 1.376 1_545 S
C12 C13 1.443 1_545 S
C12 C39 1.389 . S
C13 C12 1.443 1_565 S
C13 C14 1.340 . S
C13 H45 0.951 . S
C14 C13 1.340 . S
C14 C15 1.439 . S
C14 H46 0.950 . S
C15 N11 1.374 . S
C15 C14 1.439 . S
C15 C40 1.395 1_556 S
N16 Co5 1.995 1_565 S
N16 C17 1.376 . S
N16 C20 1.382 1_565 S
C17 N16 1.376 . S
C17 C18 1.446 . S
C17 C40 1.391 . S
C18 C17 1.446 . S
C18 C19 1.339 . S
C18 H47 0.949 . S
C19 C18 1.339 . S
C19 C20 1.431 1_565 S
C19 H48 0.950 . S
C20 N16 1.382 1_545 S
C20 C19 1.431 1_545 S
C20 C38 1.400 . S
N21 Co5 2.282 . S
N21 C24 1.332 . S
N21 C26 1.332 . S
C22 C23 1.386 . S
C22 C25 1.388 . S
C23 C22 1.386 . S
C23 C24 1.382 . S
C23 H49 0.950 1_545 S
C24 N21 1.332 . S
C24 C23 1.382 . S
C24 H35 0.952 1_545 S
C25 C22 1.388 . S
C25 C26 1.382 . S
C25 H50 0.950 . S
C26 N21 1.332 . S
C26 C25 1.382 . S
C26 H36 0.948 . S
N27 Co5 2.282 1_556 S
N27 C31 1.332 . S
N27 C32 1.332 . S
C28 C29 1.388 . S
C28 C32 1.382 . S
C28 H51 0.950 1_545 S
C29 C28 1.388 . S
C29 C30 1.386 . S
C30 C29 1.386 . S
C30 C31 1.382 . S
C30 H52 0.950 . S
C31 N27 1.332 . S
C31 C30 1.382 . S
C31 H33 0.952 . S
C32 N27 1.332 . S
C32 C28 1.382 . S
C32 H34 0.948 1_545 S
H33 C31 0.952 . S
H34 C32 0.948 1_565 S
H35 C24 0.952 1_565 S
H36 C26 0.948 . S
C37 C3 1.395 . S
C37 C7 1.391 1_554 S
C38 C0 1.389 . S
C38 C20 1.400 . S
C39 C10 1.392 . S
C39 C12 1.389 . S
C40 C15 1.395 1_554 S
C40 C17 1.391 . S
H41 C1 0.951 . S
H42 C2 0.950 . S
H43 C8 0.949 . S
H44 C9 0.950 . S
H45 C13 0.951 . S
H46 C14 0.950 . S
H47 C18 0.949 . S
H48 C19 0.950 . S
H49 C23 0.950 1_565 S
H50 C25 0.950 . S
H51 C28 0.950 1_565 S
H52 C30 0.950 . S
C53 C54 1.443 . S
C53 N57 1.376 . S
C53 C91 1.389 . S
C54 C53 1.443 . S
C54 C55 1.340 . S
C54 H94 0.951 . S
C55 C54 1.340 . S
C55 C56 1.439 . S
C55 H95 0.950 . S
C56 C55 1.439 . S
C56 N57 1.374 . S
C56 C90 1.395 . S
N57 C53 1.376 . S
N57 C56 1.374 . S
N57 Co58 2.008 . S
Co58 N57 2.008 . S
Co58 N59 1.995 . S
Co58 N64 2.008 . S
Co58 N69 1.995 . S
Co58 N74 2.282 . S
Co58 N80 2.282 . S
N59 Co58 1.995 . S
N59 C60 1.376 . S
N59 C63 1.383 . S
C60 N59 1.376 . S
C60 C61 1.446 . S
C60 C90 1.391 . S
C61 C60 1.446 . S
C61 C62 1.339 . S
C61 H96 0.949 . S
C62 C61 1.339 . S
C62 C63 1.439 . S
C62 H97 0.950 . S
C63 N59 1.383 . S
C63 C62 1.439 . S
C63 C92 1.392 . S
N64 Co58 2.008 . S
N64 C65 1.376 . S
N64 C68 1.374 1_455 S
C65 N64 1.376 . S
C65 C66 1.443 1_455 S
C65 C92 1.389 . S
C66 C65 1.443 1_655 S
C66 C67 1.340 . S
C66 H98 0.951 . S
C67 C66 1.340 . S
C67 C68 1.439 . S
C67 H99 0.950 . S
C68 N64 1.374 1_655 S
C68 C67 1.439 . S
C68 C93 1.395 . S
N69 Co58 1.995 . S
N69 C70 1.376 1_455 S
N69 C73 1.383 . S
C70 N69 1.376 1_655 S
C70 C71 1.446 . S
C70 C93 1.391 . S
C71 C70 1.446 . S
C71 C72 1.339 . S
C71 H100 0.949 . S
C72 C71 1.339 . S
C72 C73 1.439 1_655 S
C72 H101 0.950 . S
C73 N69 1.383 . S
C73 C72 1.439 1_455 S
C73 C91 1.392 . S
N74 Co58 2.282 . S
N74 C77 1.332 . S
N74 C79 1.332 . S
C75 C76 1.386 . S
C75 C78 1.388 . S
C76 C75 1.386 . S
C76 C77 1.382 . S
C76 H102 0.950 1_455 S
C77 N74 1.332 . S
C77 C76 1.382 . S
C77 H88 0.952 1_455 S
C78 C75 1.388 . S
C78 C79 1.382 . S
C78 H103 0.950 . S
C79 N74 1.332 . S
C79 C78 1.382 . S
C79 H89 0.948 . S
N80 Co58 2.282 . S
N80 C84 1.332 . S
N80 C85 1.332 . S
C81 C82 1.388 . S
C81 C85 1.382 . S
C81 H104 0.950 1_455 S
C82 C81 1.388 . S
C82 C83 1.386 . S
C83 C82 1.386 . S
C83 C84 1.382 . S
C83 H105 0.950 . S
C84 N80 1.332 . S
C84 C83 1.382 . S
C84 H86 0.952 . S
C85 N80 1.332 . S
C85 C81 1.382 . S
C85 H87 0.948 1_455 S
H86 C84 0.952 . S
H87 C85 0.948 1_655 S
H88 C77 0.952 1_655 S
H89 C79 0.948 . S
C90 C56 1.395 . S
C90 C60 1.391 . S
C91 C53 1.389 . S
C91 C73 1.392 . S
C92 C63 1.392 . S
C92 C65 1.389 . S
C93 C68 1.395 . S
C93 C70 1.391 . S
H94 C54 0.951 . S
H95 C55 0.950 . S
H96 C61 0.949 . S
H97 C62 0.950 . S
H98 C66 0.951 . S
H99 C67 0.950 . S
H100 C71 0.949 . S
H101 C72 0.950 . S
H102 C76 0.950 1_655 S
H103 C78 0.950 . S
H104 C81 0.950 1_655 S
H105 C83 0.950 . S
Mg106 O107 2.028 . S
Mg106 O113 1.986 . S
Mg106 O115 2.114 1_545 S
Mg106 O116 2.251 . S
Mg106 O119 2.010 . S
O107 Mg106 2.028 . S
O107 C110 1.250 1_455 S
O108 Mg109 2.028 . S
O108 C110 1.248 . S
Mg109 O108 2.028 . S
Mg109 O114 2.032 1_655 S
Mg109 O116 2.079 1_655 S
C110 O107 1.250 1_655 S
C110 O108 1.248 . S
C111 O112 1.264 . S
C111 O119 1.249 . S
O112 C111 1.264 . S
O113 Mg106 1.986 . S
O113 C117 1.246 . S
O114 Mg109 2.032 1_455 S
O114 C117 1.259 . S
O115 Mg106 2.114 1_565 S
O115 C118 1.252 . S
O116 Mg106 2.251 . S
O116 Mg109 2.079 1_455 S
O116 C118 1.273 1_545 S
C117 O113 1.246 . S
C117 O114 1.259 . S
C118 O115 1.252 . S
C118 O116 1.273 1_565 S
O119 Mg106 2.010 . S
O119 C111 1.249 . S
Mg120 O121 2.028 . S
Mg120 O127 1.986 . S
Mg120 O129 2.114 1_545 S
Mg120 O130 2.251 . S
Mg120 O133 2.010 1_455 S
O121 Mg120 2.028 . S
O121 C124 1.250 . S
O122 Mg123 2.028 . S
O122 C124 1.248 . S
Mg123 O122 2.028 . S
Mg123 O128 2.032 . S
Mg123 O130 2.079 . S
C124 O121 1.250 . S
C124 O122 1.248 . S
C125 O126 1.264 . S
C125 O133 1.249 . S
O126 C125 1.264 . S
O127 Mg120 1.986 . S
O127 C131 1.246 . S
O128 Mg123 2.032 . S
O128 C131 1.259 . S
O129 Mg120 2.114 1_565 S
O129 C132 1.252 . S
O130 Mg120 2.251 . S
O130 Mg123 2.079 . S
O130 C132 1.273 1_545 S
C131 O127 1.246 . S
C131 O128 1.259 . S
C132 O129 1.252 . S
C132 O130 1.273 1_565 S
O133 Mg120 2.010 1_655 S
O133 C125 1.249 . S
H134 C142 0.950 . S
H135 C147 0.938 1_565 S
H136 C144 0.950 . S
H137 C146 0.950 1_565 S
H138 C148 0.950 1_565 S
H139 C150 0.950 1_565 S
H140 C152 0.950 . S
H141 C153 0.950 . S
C142 H134 0.950 . S
C142 C143 1.386 . S
C142 C144 1.391 . S
C143 C142 1.386 . S
C143 C147 1.403 . S
C144 H136 0.950 . S
C144 C142 1.391 . S
C144 C145 1.400 . S
C145 C144 1.400 . S
C145 C146 1.398 . S
C145 C151 1.491 . S
C146 H137 0.950 1_545 S
C146 C145 1.398 . S
C146 C147 1.392 . S
C147 H135 0.938 1_545 S
C147 C143 1.403 . S
C147 C146 1.392 . S
C148 H138 0.950 1_545 S
C148 C149 1.386 . S
C148 C150 1.391 . S
C149 C148 1.386 . S
C149 C153 1.393 . S
C150 H139 0.950 1_545 S
C150 C148 1.391 . S
C150 C151 1.400 . S
C151 C145 1.491 . S
C151 C150 1.400 . S
C151 C152 1.398 . S
C152 H140 0.950 . S
C152 C151 1.398 . S
C152 C153 1.391 . S
C153 H141 0.950 . S
C153 C149 1.393 . S
C153 C152 1.391 . S
H154 C162 0.950 . S
H155 C167 0.950 1_655 S
H156 C164 0.950 . S
H157 C166 0.950 1_655 S
H158 C168 0.950 1_655 S
H159 C170 0.950 1_655 S
H160 C172 0.950 . S
H161 C173 0.950 . S
C162 H154 0.950 . S
C162 C163 1.386 . S
C162 C164 1.391 . S
C163 C162 1.386 . S
C163 C167 1.393 . S
C164 H156 0.950 . S
C164 C162 1.391 . S
C164 C165 1.400 . S
C165 C164 1.400 . S
C165 C166 1.398 . S
C165 C171 1.491 . S
C166 H157 0.950 1_455 S
C166 C165 1.398 . S
C166 C167 1.391 . S
C167 H155 0.950 1_455 S
C167 C163 1.393 . S
C167 C166 1.391 . S
C168 H158 0.950 1_455 S
C168 C169 1.386 . S
C168 C170 1.391 . S
C169 C168 1.386 . S
C169 C173 1.393 . S
C170 H159 0.950 1_455 S
C170 C168 1.391 . S
C170 C171 1.400 . S
C171 C165 1.491 . S
C171 C170 1.400 . S
C171 C172 1.398 . S
C172 H160 0.950 . S
C172 C171 1.398 . S
C172 C173 1.391 . S
C173 H161 0.950 . S
C173 C169 1.393 . S
C173 C172 1.391 . S
H174 C182 0.950 . S
H175 C187 0.950 . S
H176 C184 0.950 . S
H177 C186 0.950 . S
H178 C188 0.950 . S
H179 C190 0.950 . S
H180 C192 0.950 . S
H181 C193 0.950 . S
C182 H174 0.950 . S
C182 C183 1.386 . S
C182 C184 1.391 . S
C183 C182 1.386 . S
C183 C187 1.393 . S
C184 H176 0.950 . S
C184 C182 1.391 . S
C184 C185 1.400 . S
C185 C184 1.400 . S
C185 C186 1.398 . S
C185 C191 1.491 . S
C186 H177 0.950 . S
C186 C185 1.398 . S
C186 C187 1.391 . S
C187 H175 0.950 . S
C187 C183 1.393 . S
C187 C186 1.391 . S
C188 H178 0.950 . S
C188 C189 1.386 . S
C188 C190 1.391 . S
C189 C188 1.386 . S
C189 C193 1.393 . S
C190 H179 0.950 . S
C190 C188 1.391 . S
C190 C191 1.400 . S
C191 C185 1.491 . S
C191 C190 1.400 . S
C191 C192 1.398 . S
C192 H180 0.950 . S
C192 C191 1.398 . S
C192 C193 1.391 . S
C193 H181 0.950 . S
C193 C189 1.393 . S
C193 C192 1.391 . S
H194 C202 0.950 1_655 S
H195 C207 0.950 . S
H196 C204 0.950 1_655 S
H197 C206 0.950 . S
H198 C208 0.950 . S
H199 C210 0.950 . S
H200 C212 0.950 1_655 S
H201 C213 0.950 1_655 S
C202 H194 0.950 1_455 S
C202 C203 1.386 . S
C202 C204 1.391 . S
C203 C202 1.386 . S
C203 C207 1.393 . S
C204 H196 0.950 1_455 S
C204 C202 1.391 . S
C204 C205 1.400 . S
C205 C204 1.400 . S
C205 C206 1.398 . S
C205 C211 1.491 . S
C206 H197 0.950 . S
C206 C205 1.398 . S
C206 C207 1.391 . S
C207 H195 0.950 . S
C207 C203 1.393 . S
C207 C206 1.391 . S
C208 H198 0.950 . S
C208 C209 1.386 . S
C208 C210 1.391 . S
C209 C208 1.386 . S
C209 C213 1.393 . S
C210 H199 0.950 . S
C210 C208 1.391 . S
C210 C211 1.400 . S
C211 C205 1.491 . S
C211 C210 1.400 . S
C211 C212 1.398 . S
C212 H200 0.950 1_455 S
C212 C211 1.398 . S
C212 C213 1.391 . S
C213 H201 0.950 1_455 S
C213 C209 1.393 . S
C213 C212 1.391 . S
H214 C222 0.950 . S
H215 C227 0.950 . S
H216 C224 0.950 . S
H217 C226 0.950 . S
H218 C228 0.950 . S
H219 C230 0.950 . S
H220 C232 0.950 . S
H221 C233 0.950 . S
C222 H214 0.950 . S
C222 C223 1.386 . S
C222 C224 1.391 . S
C223 C222 1.386 . S
C223 C227 1.393 . S
C224 H216 0.950 . S
C224 C222 1.391 . S
C224 C225 1.400 . S
C225 C224 1.400 . S
C225 C226 1.398 . S
C225 C231 1.491 . S
C226 H217 0.950 . S
C226 C225 1.398 . S
C226 C227 1.391 . S
C227 H215 0.950 . S
C227 C223 1.393 . S
C227 C226 1.391 . S
C228 H218 0.950 . S
C228 C229 1.386 . S
C228 C230 1.391 . S
C229 C228 1.386 . S
C229 C233 1.393 . S
C230 H219 0.950 . S
C230 C228 1.391 . S
C230 C231 1.400 . S
C231 C225 1.491 . S
C231 C230 1.400 . S
C231 C232 1.398 . S
C232 H220 0.950 . S
C232 C231 1.398 . S
C232 C233 1.391 . S
C233 H221 0.950 . S
C233 C229 1.393 . S
C233 C232 1.391 . S
H234 C242 0.950 . S
H235 C247 0.950 . S
H236 C244 0.950 . S
H237 C246 0.950 . S
H238 C248 0.950 . S
H239 C250 0.950 . S
H240 C252 0.950 . S
H241 C253 0.950 . S
C242 H234 0.950 . S
C242 C243 1.386 . S
C242 C244 1.391 . S
C243 C242 1.386 . S
C243 C247 1.393 . S
C244 H236 0.950 . S
C244 C242 1.391 . S
C244 C245 1.400 . S
C245 C244 1.400 . S
C245 C246 1.398 . S
C245 C251 1.491 . S
C246 H237 0.950 . S
C246 C245 1.398 . S
C246 C247 1.391 . S
C247 H235 0.950 . S
C247 C243 1.393 . S
C247 C246 1.391 . S
C248 H238 0.950 . S
C248 C249 1.386 . S
C248 C250 1.391 . S
C249 C248 1.386 . S
C249 C253 1.393 . S
C250 H239 0.950 . S
C250 C248 1.391 . S
C250 C251 1.400 . S
C251 C245 1.491 . S
C251 C250 1.400 . S
C251 C252 1.398 . S
C252 H240 0.950 . S
C252 C251 1.398 . S
C252 C253 1.391 . S
C253 H241 0.950 . S
C253 C249 1.393 . S
C253 C252 1.391 . S
H254 C262 0.950 . S
H255 C267 0.950 1_565 S
H256 C264 0.950 . S
H257 C266 0.950 1_565 S
H258 C268 0.950 1_565 S
H259 C270 0.950 1_565 S
H260 C272 0.950 . S
H261 C273 0.950 . S
C262 H254 0.950 . S
C262 C263 1.386 . S
C262 C264 1.391 . S
C263 C262 1.386 . S
C263 C267 1.393 . S
C264 H256 0.950 . S
C264 C262 1.391 . S
C264 C265 1.400 . S
C265 C264 1.400 . S
C265 C266 1.398 . S
C265 C271 1.491 . S
C266 H257 0.950 1_545 S
C266 C265 1.398 . S
C266 C267 1.391 . S
C267 H255 0.950 1_545 S
C267 C263 1.393 . S
C267 C266 1.391 . S
C268 H258 0.950 1_545 S
C268 C269 1.386 . S
C268 C270 1.391 . S
C269 C268 1.386 . S
C269 C273 1.393 . S
C270 H259 0.950 1_545 S
C270 C268 1.391 . S
C270 C271 1.400 . S
C271 C265 1.491 . S
C271 C270 1.400 . S
C271 C272 1.398 . S
C272 H260 0.950 . S
C272 C271 1.398 . S
C272 C273 1.391 . S
C273 H261 0.950 . S
C273 C269 1.393 . S
C273 C272 1.391 . S
H274 C282 0.950 . S
H275 C287 0.950 . S
H276 C284 0.950 . S
H277 C286 0.950 . S
H278 C288 0.950 . S
H279 C290 0.950 . S
H280 C292 0.950 . S
H281 C293 0.950 . S
C282 H274 0.950 . S
C282 C283 1.386 . S
C282 C284 1.391 . S
C283 C282 1.386 . S
C283 C287 1.393 . S
C284 H276 0.950 . S
C284 C282 1.391 . S
C284 C285 1.400 . S
C285 C284 1.400 . S
C285 C286 1.398 . S
C285 C291 1.491 . S
C286 H277 0.950 . S
C286 C285 1.398 . S
C286 C287 1.391 . S
C287 H275 0.950 . S
C287 C283 1.393 . S
C287 C286 1.391 . S
C288 H278 0.950 . S
C288 C289 1.386 . S
C288 C290 1.391 . S
C289 C288 1.386 . S
C289 C293 1.393 . S
C290 H279 0.950 . S
C290 C288 1.391 . S
C290 C291 1.400 . S
C291 C285 1.491 . S
C291 C290 1.400 . S
C291 C292 1.398 . S
C292 H280 0.950 . S
C292 C291 1.398 . S
C292 C293 1.391 . S
C293 H281 0.950 . S
C293 C289 1.393 . S
C293 C292 1.391 . S
C149 C111 1.232 . S
C143 C22 1.502 . S
C169 C131 1.458 . S
C163 C91 1.494 . S
C189 C110 1.454 . S
C183 C38 1.502 . S
C209 C132 1.505 . S
C203 C75 1.504 . S
C229 C124 1.452 . S
C223 C39 1.502 . S
C249 C117 1.460 . S
C243 C82 1.494 . S
C269 C125 1.234 . S
C263 C29 1.502 . S
C283 C92 1.504 . S
C289 C118 1.504 . S
