# Generated by pormake.
# Topology gar, (4,6)-cn, num edge types: 1
# Building blocks:
#     Node 0, Type 0, BuildingBlock: NAHDIM_clean_sbu_0, # of connection points: 4
#     Node 1, Type 0, BuildingBlock: NAHDIM_clean_sbu_0, # of connection points: 4
#     Node 2, Type 0, BuildingBlock: NAHDIM_clean_sbu_0, # of connection points: 4
#     Node 3, Type 0, BuildingBlock: NAHDIM_clean_sbu_0, # of connection points: 4
#     Node 4, Type 0, BuildingBlock: NAHDIM_clean_sbu_0, # of connection points: 4
#     Node 5, Type 0, BuildingBlock: NAHDIM_clean_sbu_0, # of connection points: 4
#     Node 6, Type 0, BuildingBlock: NAHDIM_clean_sbu_0, # of connection points: 4
#     Node 7, Type 0, BuildingBlock: NAHDIM_clean_sbu_0, # of connection points: 4
#     Node 8, Type 0, BuildingBlock: NAHDIM_clean_sbu_0, # of connection points: 4
#     Node 9, Type 0, BuildingBlock: NAHDIM_clean_sbu_0, # of connection points: 4
#     Node 10, Type 0, BuildingBlock: NAHDIM_clean_sbu_0, # of connection points: 4
#     Node 11, Type 0, BuildingBlock: NAHDIM_clean_sbu_0, # of connection points: 4
#     Node 12, Type 0, BuildingBlock: NAHDIM_clean_sbu_0, # of connection points: 4
#     Node 13, Type 0, BuildingBlock: NAHDIM_clean_sbu_0, # of connection points: 4
#     Node 14, Type 0, BuildingBlock: NAHDIM_clean_sbu_0, # of connection points: 4
#     Node 15, Type 0, BuildingBlock: NAHDIM_clean_sbu_0, # of connection points: 4
#     Node 16, Type 0, BuildingBlock: NAHDIM_clean_sbu_0, # of connection points: 4
#     Node 17, Type 0, BuildingBlock: NAHDIM_clean_sbu_0, # of connection points: 4
#     Node 18, Type 0, BuildingBlock: NAHDIM_clean_sbu_0, # of connection points: 4
#     Node 19, Type 0, BuildingBlock: NAHDIM_clean_sbu_0, # of connection points: 4
#     Node 20, Type 0, BuildingBlock: NAHDIM_clean_sbu_0, # of connection points: 4
#     Node 21, Type 0, BuildingBlock: NAHDIM_clean_sbu_0, # of connection points: 4
#     Node 22, Type 0, BuildingBlock: NAHDIM_clean_sbu_0, # of connection points: 4
#     Node 23, Type 0, BuildingBlock: NAHDIM_clean_sbu_0, # of connection points: 4
#     Node 24, Type 1, BuildingBlock: NUHQIS_clean_sbu_0, # of connection points: 6
#     Node 25, Type 1, BuildingBlock: NUHQIS_clean_sbu_0, # of connection points: 6
#     Node 26, Type 1, BuildingBlock: NUHQIS_clean_sbu_0, # of connection points: 6
#     Node 27, Type 1, BuildingBlock: NUHQIS_clean_sbu_0, # of connection points: 6
#     Node 28, Type 1, BuildingBlock: NUHQIS_clean_sbu_0, # of connection points: 6
#     Node 29, Type 1, BuildingBlock: NUHQIS_clean_sbu_0, # of connection points: 6
#     Node 30, Type 1, BuildingBlock: NUHQIS_clean_sbu_0, # of connection points: 6
#     Node 31, Type 1, BuildingBlock: NUHQIS_clean_sbu_0, # of connection points: 6
#     Node 32, Type 1, BuildingBlock: NUHQIS_clean_sbu_0, # of connection points: 6
#     Node 33, Type 1, BuildingBlock: NUHQIS_clean_sbu_0, # of connection points: 6
#     Node 34, Type 1, BuildingBlock: NUHQIS_clean_sbu_0, # of connection points: 6
#     Node 35, Type 1, BuildingBlock: NUHQIS_clean_sbu_0, # of connection points: 6
#     Node 36, Type 1, BuildingBlock: NUHQIS_clean_sbu_0, # of connection points: 6
#     Node 37, Type 1, BuildingBlock: NUHQIS_clean_sbu_0, # of connection points: 6
#     Node 38, Type 1, BuildingBlock: NUHQIS_clean_sbu_0, # of connection points: 6
#     Node 39, Type 1, BuildingBlock: NUHQIS_clean_sbu_0, # of connection points: 6
#     Edge 40, Type (0, 1), None
#     Edge 41, Type (0, 1), None
#     Edge 42, Type (0, 1), None
#     Edge 43, Type (0, 1), None
#     Edge 44, Type (0, 1), None
#     Edge 45, Type (0, 1), None
#     Edge 46, Type (0, 1), None
#     Edge 47, Type (0, 1), None
#     Edge 48, Type (0, 1), None
#     Edge 49, Type (0, 1), None
#     Edge 50, Type (0, 1), None
#     Edge 51, Type (0, 1), None
#     Edge 52, Type (0, 1), None
#     Edge 53, Type (0, 1), None
#     Edge 54, Type (0, 1), None
#     Edge 55, Type (0, 1), None
#     Edge 56, Type (0, 1), None
#     Edge 57, Type (0, 1), None
#     Edge 58, Type (0, 1), None
#     Edge 59, Type (0, 1), None
#     Edge 60, Type (0, 1), None
#     Edge 61, Type (0, 1), None
#     Edge 62, Type (0, 1), None
#     Edge 63, Type (0, 1), None
#     Edge 64, Type (0, 1), None
#     Edge 65, Type (0, 1), None
#     Edge 66, Type (0, 1), None
#     Edge 67, Type (0, 1), None
#     Edge 68, Type (0, 1), None
#     Edge 69, Type (0, 1), None
#     Edge 70, Type (0, 1), None
#     Edge 71, Type (0, 1), None
#     Edge 72, Type (0, 1), None
#     Edge 73, Type (0, 1), None
#     Edge 74, Type (0, 1), None
#     Edge 75, Type (0, 1), None
#     Edge 76, Type (0, 1), None
#     Edge 77, Type (0, 1), None
#     Edge 78, Type (0, 1), None
#     Edge 79, Type (0, 1), None
#     Edge 80, Type (0, 1), None
#     Edge 81, Type (0, 1), None
#     Edge 82, Type (0, 1), None
#     Edge 83, Type (0, 1), None
#     Edge 84, Type (0, 1), None
#     Edge 85, Type (0, 1), None
#     Edge 86, Type (0, 1), None
#     Edge 87, Type (0, 1), None
#     Edge 88, Type (0, 1), None
#     Edge 89, Type (0, 1), None
#     Edge 90, Type (0, 1), None
#     Edge 91, Type (0, 1), None
#     Edge 92, Type (0, 1), None
#     Edge 93, Type (0, 1), None
#     Edge 94, Type (0, 1), None
#     Edge 95, Type (0, 1), None
#     Edge 96, Type (0, 1), None
#     Edge 97, Type (0, 1), None
#     Edge 98, Type (0, 1), None
#     Edge 99, Type (0, 1), None
#     Edge 100, Type (0, 1), None
#     Edge 101, Type (0, 1), None
#     Edge 102, Type (0, 1), None
#     Edge 103, Type (0, 1), None
#     Edge 104, Type (0, 1), None
#     Edge 105, Type (0, 1), None
#     Edge 106, Type (0, 1), None
#     Edge 107, Type (0, 1), None
#     Edge 108, Type (0, 1), None
#     Edge 109, Type (0, 1), None
#     Edge 110, Type (0, 1), None
#     Edge 111, Type (0, 1), None
#     Edge 112, Type (0, 1), None
#     Edge 113, Type (0, 1), None
#     Edge 114, Type (0, 1), None
#     Edge 115, Type (0, 1), None
#     Edge 116, Type (0, 1), None
#     Edge 117, Type (0, 1), None
#     Edge 118, Type (0, 1), None
#     Edge 119, Type (0, 1), None
#     Edge 120, Type (0, 1), None
#     Edge 121, Type (0, 1), None
#     Edge 122, Type (0, 1), None
#     Edge 123, Type (0, 1), None
#     Edge 124, Type (0, 1), None
#     Edge 125, Type (0, 1), None
#     Edge 126, Type (0, 1), None
#     Edge 127, Type (0, 1), None
#     Edge 128, Type (0, 1), None
#     Edge 129, Type (0, 1), None
#     Edge 130, Type (0, 1), None
#     Edge 131, Type (0, 1), None
#     Edge 132, Type (0, 1), None
#     Edge 133, Type (0, 1), None
#     Edge 134, Type (0, 1), None
#     Edge 135, Type (0, 1), None
# Relax obj value: 0.550
# Max RMSD: 0.449
# Mean RMSD: 0.197
data_MOF--net-gar--node1-NAHDIM_clean_sbu_0--node2-NUHQIS_clean_sbu_0--edge1-none
_symmetry_space_group_name_H-M    P1
_symmetry_Int_Tables_number       1
_symmetry_cell_setting            triclinic
loop_
_symmetry_equiv_pos_as_xyz
'x, y, z'
_cell_length_a     27.118165
_cell_length_b     29.193951
_cell_length_c     25.663741
_cell_angle_alpha  89.094348
_cell_angle_beta   96.67657
_cell_angle_gamma 98.691258
loop_
_atom_site_label
_atom_site_type_symbol
_atom_site_fract_x
_atom_site_fract_y
_atom_site_fract_z
_atom_type_partial_charge
C0 C 0.24465 0.37239 0.3859 0.0
O1 O 0.21289 0.33545 0.36993 0.0
O2 O 0.15879 0.31449 0.50615 0.0
Zn3 Zn 0.16155 0.39075 0.46699 0.0
O4 O 0.16389 0.46101 0.51749 0.0
C5 C 1.05774 0.41463 0.40267 0.0
O6 O 1.06576 0.45211 0.43177 0.0
O7 O 0.23154 0.39815 0.4217 0.0
C8 C 0.16914 0.50467 0.50164 0.0
O9 O 0.17517 0.51093 0.4521 0.0
C10 C 0.1517 0.29147 0.55011 0.0
O11 O 0.14335 0.31563 0.59004 0.0
O12 O 1.09019 0.38593 0.41037 0.0
C13 C 1.06309 0.90637 0.78291 0.0
O14 O 1.0922 0.9454 0.79676 0.0
O15 O 0.13511 0.81434 0.64648 0.0
Zn16 Zn 0.14394 0.88637 0.69656 0.0
O17 O 0.14412 0.96202 0.65937 0.0
C18 C 0.24532 0.87124 0.77577 0.0
O19 O 0.2201 0.83513 0.79681 0.0
O20 O 1.07778 0.88043 0.7481 0.0
C21 C 0.16442 0.98932 0.62366 0.0
O22 O 0.19248 0.97127 0.59359 0.0
C23 C 0.1551 0.77612 0.65792 0.0
O24 O 0.1861 0.77778 0.70131 0.0
O25 O 0.2216 0.89383 0.73956 0.0
C26 C 0.75488 0.86338 0.88481 0.0
O27 O 0.72421 0.82555 0.86972 0.0
O28 O 0.66139 0.81376 1.00381 0.0
Zn29 Zn 0.66658 0.88957 0.96093 0.0
O30 O 0.6684 0.96424 1.00678 0.0
C31 C 0.56699 0.91446 0.8857 0.0
O32 O 0.586 0.95805 0.8934 0.0
O33 O 0.73926 0.89092 0.91746 0.0
C34 C 0.66438 1.00766 0.99155 0.0
O35 O 0.65975 1.01552 0.94103 0.0
C36 C 0.65134 0.79089 0.04732 0.0
O37 O 0.63996 0.81532 0.08551 0.0
O38 O 0.59275 0.88326 0.9068 0.0
C39 C 0.55177 0.40473 0.28251 0.0
O40 O 0.5795 0.44491 0.29421 0.0
O41 O 0.63468 0.31158 0.15368 0.0
Zn42 Zn 0.63857 0.38396 0.20248 0.0
O43 O 0.63969 0.46048 0.16431 0.0
C44 C 0.74164 0.36469 0.27648 0.0
O45 O 0.7185 0.32407 0.28916 0.0
O46 O 0.56888 0.37739 0.25086 0.0
C47 C 0.6608 0.48799 0.12903 0.0
O48 O 0.68982 0.46994 0.10008 0.0
C49 C 0.64443 0.26966 0.1686 0.0
O50 O 0.65867 0.26458 0.21863 0.0
O51 O 0.71612 0.39152 0.247 0.0
C52 C 0.17643 0.95833 0.18643 0.0
O53 O 0.16936 0.93537 0.14197 0.0
O54 O 0.25581 0.93831 0.10437 0.0
Zn55 Zn 0.27094 0.99044 0.15356 0.0
O56 O 0.29067 1.04211 0.10479 0.0
C57 C 0.31185 0.93667 0.23419 0.0
O58 O 0.26549 0.91542 0.22516 0.0
O59 O 0.21286 0.99126 0.19433 0.0
C60 C 0.25932 0.0558 0.0696 0.0
O61 O 0.27611 0.07918 1.02951 0.0
C62 C 0.2843 0.93357 0.06963 0.0
O63 O 0.32343 0.96513 0.06483 0.0
O64 O 0.32566 0.97219 0.20707 0.0
C65 C 0.59217 0.85843 0.41532 0.0
O66 O 0.56825 0.88704 0.43718 0.0
O67 O 0.56534 0.74057 0.52069 0.0
Zn68 Zn 0.53891 0.78959 0.47665 0.0
O69 O 0.53001 0.83947 0.52566 0.0
C70 C 0.46627 0.76191 0.37946 0.0
O71 O 0.43719 0.72716 0.35465 0.0
O72 O 0.58761 0.81616 0.42869 0.0
C73 C 0.49609 0.86396 0.51246 0.0
O74 O 0.46013 0.84702 0.47664 0.0
C75 C 0.60512 0.74438 0.55262 0.0
O76 O 0.63533 0.78404 0.55815 0.0
O77 O 0.48141 0.75664 0.42783 0.0
C78 C 0.66962 0.51562 0.72066 0.0
O79 O 0.63591 0.53867 0.69711 0.0
O80 O 0.69509 0.41034 0.69759 0.0
Zn81 Zn 0.73641 0.46997 0.67929 0.0
O82 O 0.73225 0.47633 0.59898 0.0
C83 C 0.8131 0.42055 0.70663 0.0
O84 O 0.79428 0.40227 0.66096 0.0
O85 O 0.71334 0.5234 0.70727 0.0
C86 C 0.70845 0.49861 0.56333 0.0
O87 O 0.71135 0.48902 0.51407 0.0
C88 C 0.68334 0.37732 0.66517 0.0
O89 O 0.68735 0.3858 0.61529 0.0
O90 O 0.80131 0.4589 0.71947 0.0
C91 C 0.13929 0.37964 0.97051 0.0
O92 O 0.11637 0.40525 0.9985 0.0
O93 O 1.08273 0.24128 1.03264 0.0
Zn94 Zn 1.06867 0.29877 0.99777 0.0
O95 O 1.04537 0.33628 0.04915 0.0
C96 C 1.01848 0.32621 0.90613 0.0
O97 O 1.03738 0.36572 0.92907 0.0
O98 O 0.12913 0.33558 0.97156 0.0
C99 C 1.00129 0.34603 0.04198 0.0
O100 O 0.96792 0.3208 1.00898 0.0
C101 C 0.11282 0.24367 0.07455 0.0
O102 O 0.13636 0.28402 0.09226 0.0
O103 O 1.02106 0.28856 0.93122 0.0
C104 C 0.58313 0.23009 0.32937 0.0
O105 O 0.60998 0.21336 0.29707 0.0
O106 O 0.72157 0.24162 0.35086 0.0
Zn107 Zn 0.67106 0.22677 0.40026 0.0
O108 O 0.70221 0.2565 0.46762 0.0
C109 C 0.65543 0.1344 0.36105 0.0
O110 O 0.67482 0.15359 0.32013 0.0
O111 O 0.60364 0.24422 0.3746 0.0
C112 C 0.70978 0.24631 0.51578 0.0
O113 O 0.73576 0.27825 0.54752 0.0
C114 C 0.76227 0.22612 0.36547 0.0
O115 O 0.77194 0.21506 0.41505 0.0
O116 O 0.65508 0.15821 0.40203 0.0
C117 C 0.52867 0.21288 0.57875 0.0
O118 O 0.53764 0.24709 0.54571 0.0
O119 O 0.42973 0.29405 0.66269 0.0
Zn120 Zn 0.42244 0.25291 0.58843 0.0
O121 O 0.4218 0.29365 0.51053 0.0
C122 C 0.31834 0.19045 0.61757 0.0
O123 O 0.33975 0.18702 0.66578 0.0
O124 O 0.48572 0.20803 0.59802 0.0
C125 C 0.43921 0.33435 0.49262 0.0
O126 O 0.46647 0.36424 0.52601 0.0
C127 C 0.39501 0.2993 0.692 0.0
O128 O 0.34839 0.28275 0.67472 0.0
O129 O 0.34494 0.21216 0.58329 0.0
C130 C 0.3093 0.16103 0.86994 0.0
O131 O 0.27094 0.14514 0.89518 0.0
O132 O 0.28135 0.28718 0.93627 0.0
Zn133 Zn 0.32184 0.23547 0.94548 0.0
O134 O 0.29034 0.19345 0.99795 0.0
C135 C 0.41689 0.29496 0.96681 0.0
O136 O 0.46003 0.30737 0.9956 0.0
O137 O 0.33474 0.2003 0.88254 0.0
C138 C 0.24295 0.18482 0.99053 0.0
O139 O 0.21886 0.19892 0.94764 0.0
C140 C 0.24134 0.29411 0.90873 0.0
O141 O 0.21768 0.32581 0.92475 0.0
O142 O 0.38613 0.26259 0.98318 0.0
C143 C 0.40681 1.0329 0.15843 0.0
O144 O 0.4255 1.00242 0.19001 0.0
O145 O 0.44063 0.92573 0.13039 0.0
Zn146 Zn 0.44513 0.98201 0.07971 0.0
O147 O 0.41939 0.96581 0.99972 0.0
C148 C 0.53282 1.04847 0.12087 0.0
O149 O 0.51104 1.04911 0.1636 0.0
O150 O 0.40702 1.02892 0.10899 0.0
C151 C 0.41751 0.92532 0.98057 0.0
O152 O 0.43079 0.89241 1.01222 0.0
C153 C 0.47328 0.91789 0.16813 0.0
O154 O 0.51714 0.9445 0.17382 0.0
O155 O 0.51467 1.02014 0.08366 0.0
C156 C 0.26368 0.54959 0.0454 0.0
O157 O 0.24769 0.5123 1.01697 0.0
O158 O 0.3845 0.4805 0.15528 0.0
Zn159 Zn 0.3821 0.51772 0.07553 0.0
O160 O 0.38403 0.46985 1.00676 0.0
C161 C 0.49971 0.5609 0.06745 0.0
O162 O 0.50336 0.51969 0.05001 0.0
O163 O 0.31068 0.55562 0.06729 0.0
C164 C 0.41049 0.475 0.96709 0.0
O165 O 0.43952 0.51467 0.9622 0.0
C166 C 0.36106 0.44251 0.17393 0.0
O167 O 0.32797 0.41632 0.14145 0.0
O168 O 0.45618 0.56775 0.08028 0.0
C169 C 0.89371 0.20152 1.0231 0.0
O170 O 0.8468 0.19391 1.00232 0.0
O171 O 0.88765 0.32385 0.13183 0.0
Zn172 Zn 0.86702 0.29001 0.05442 0.0
O173 O 0.86807 0.32601 0.98011 0.0
C174 C 0.76285 0.23512 1.02649 0.0
O175 O 0.75969 0.25167 0.97865 0.0
O176 O 0.9109 0.23906 0.04842 0.0
C177 C 0.85782 0.30554 0.93499 0.0
O178 O 0.84299 0.26077 0.93346 0.0
C179 C 0.90675 0.36334 0.15322 0.0
O180 O 0.91939 0.39868 0.12284 0.0
O181 O 0.79983 0.25002 0.06017 0.0
C182 C 0.22202 0.58922 0.37923 0.0
O183 O 0.18155 0.56105 0.36263 0.0
O184 O 0.19519 0.55211 0.23769 0.0
Zn185 Zn 0.14494 0.56742 0.28217 0.0
O186 O 1.08418 0.51951 0.26319 0.0
C187 C 0.13026 0.67088 0.26343 0.0
O188 O 1.0952 0.69758 0.25533 0.0
O189 O 0.18185 0.56263 0.36024 0.0
C190 C 1.04222 0.5264 0.27641 0.0
O191 O 1.00123 0.49921 0.25788 0.0
C192 C 0.20349 0.56395 0.19174 0.0
O193 O 0.23955 0.54783 0.17121 0.0
O194 O 0.11689 0.62772 0.26895 0.0
C195 C 0.77423 1.0472 0.57577 0.0
O196 O 0.75801 1.00701 0.55278 0.0
O197 O 0.89394 0.97448 0.66224 0.0
Zn198 Zn 0.88979 1.01556 0.58635 0.0
O199 O 0.88645 0.96883 0.51433 0.0
C200 C 1.00426 0.0611 0.56759 0.0
O201 O 1.00446 1.02402 0.53951 0.0
O202 O 0.82266 0.05703 0.58972 0.0
C203 C 0.90653 0.97572 0.47038 0.0
O204 O 0.93013 1.01724 0.46159 0.0
C205 C 0.87253 0.93463 0.67836 0.0
O206 O 0.84073 0.90852 0.64462 0.0
O207 O 0.96398 0.06435 0.58966 0.0
C208 C 0.91228 0.09651 0.21694 0.0
O209 O 0.91352 0.09999 0.166 0.0
O210 O 1.0145 0.05068 0.16848 0.0
Zn211 Zn 0.96538 1.01888 0.21307 0.0
O212 O 1.00618 0.99998 0.27681 0.0
C213 C 0.8915 0.94152 0.20597 0.0
O214 O 0.85279 0.912 0.186 0.0
O215 O 0.93025 0.06399 0.24176 0.0
C216 C 1.05289 1.00095 0.27568 0.0
O217 O 1.0698 0.99658 0.23046 0.0
C218 C 1.04742 0.08305 0.18906 0.0
O219 O 1.04317 0.09997 0.23516 0.0
O220 O 0.91355 0.97111 0.17662 0.0
C221 C 0.39327 0.72584 0.5065 0.0
O222 O 0.35502 0.73171 0.47215 0.0
O223 O 0.37982 0.83095 0.63319 0.0
Zn224 Zn 0.36183 0.80337 0.55475 0.0
O225 O 0.36864 0.84691 0.48847 0.0
C226 C 0.28913 0.72344 0.5682 0.0
O227 O 0.32914 0.70999 0.59381 0.0
O228 O 0.40597 0.75401 0.54501 0.0
C229 C 0.34464 0.83587 0.44323 0.0
O230 O 0.30563 0.803 0.44053 0.0
C231 C 0.41177 0.86403 0.6553 0.0
O232 O 0.44107 0.89079 0.62637 0.0
O233 O 0.2921 0.76429 0.54917 0.0
C234 C 0.37529 0.60264 0.71656 0.0
O235 O 0.36795 0.605 0.66513 0.0
O236 O 0.49542 0.56276 0.67101 0.0
Zn237 Zn 0.44498 0.53322 0.71691 0.0
O238 O 0.48319 0.52002 0.78575 0.0
C239 C 0.39155 0.44259 0.70476 0.0
O240 O 0.36169 0.40754 0.68128 0.0
O241 O 0.40399 0.5761 0.73852 0.0
C242 C 0.52759 0.5129 0.78299 0.0
O243 O 0.54032 0.50405 0.73694 0.0
C244 C 0.53197 0.59387 0.68683 0.0
O245 O 0.53395 0.61362 0.73279 0.0
O246 O 0.40082 0.48023 0.68041 0.0
C247 C 0.70153 0.96786 0.86535 0.0
O248 O 0.66743 0.96702 0.82534 0.0
O249 O 0.61054 0.9835 0.70238 0.0
Zn250 Zn 0.66013 1.01542 0.75987 0.0
O251 O 0.63023 0.06802 0.78542 0.0
C252 C 0.74841 0.07368 0.77499 0.0
O253 O 0.72696 0.07822 0.81757 0.0
O254 O 0.66862 0.96849 0.82487 0.0
C255 C 0.58782 0.08131 0.77469 0.0
O256 O 0.55278 0.05709 0.74234 0.0
C257 C 0.59195 1.00114 0.66037 0.0
O258 O 0.55381 0.97693 0.632 0.0
O259 O 0.72659 1.04474 0.74003 0.0
C260 C 1.03609 0.72412 0.10367 0.0
O261 O 1.05154 0.76819 0.11402 0.0
O262 O 0.93209 0.79201 0.16852 0.0
Zn263 Zn 0.92272 0.75239 0.09302 0.0
O264 O 0.9231 0.79374 1.01669 0.0
C265 C 0.81544 0.69115 0.12136 0.0
O266 O 0.83478 0.69048 0.17066 0.0
O267 O 0.98768 0.71055 0.09487 0.0
C268 C 0.94512 0.8325 0.99837 0.0
O269 O 0.97689 0.85989 1.03087 0.0
C270 C 0.89683 0.79925 0.19611 0.0
O271 O 0.85018 0.78623 0.17596 0.0
O272 O 0.84398 0.7108 0.08727 0.0
C273 C 0.11965 0.72436 0.77778 0.0
O274 O 0.12884 0.68402 0.7627 0.0
O275 O 0.24535 0.73403 0.91565 0.0
Zn276 Zn 0.17373 0.72465 0.87903 0.0
O277 O 0.13122 0.75211 0.92367 0.0
C278 C 0.15037 0.61975 0.89087 0.0
O279 O 0.18748 0.61582 0.92752 0.0
O280 O 0.15415 0.74997 0.80698 0.0
C281 C 0.11103 0.73041 0.96069 0.0
O282 O 1.07736 0.74867 0.983 0.0
C283 C 0.2769 0.70857 0.90505 0.0
O284 O 0.31961 0.70962 0.93522 0.0
O285 O 0.14435 0.65898 0.87179 0.0
C286 C 0.89243 0.53101 0.64951 0.0
O287 O 0.91576 0.5057 0.68403 0.0
O288 O 0.95076 0.43858 0.6384 0.0
Zn289 Zn 0.93869 0.48217 0.57572 0.0
O290 O 0.91341 0.45701 0.4989 0.0
C291 C 1.02374 0.55342 0.60761 0.0
O292 O 1.00872 0.54905 0.65444 0.0
O293 O 0.89354 0.52459 0.60057 0.0
C294 C 0.90159 0.41576 0.48083 0.0
O295 O 0.90302 0.38082 0.51355 0.0
C296 C 0.97399 0.40629 0.65776 0.0
O297 O 1.00132 0.38576 0.62915 0.0
O298 O 1.00179 0.52695 0.57029 0.0
C299 C 0.79561 0.66072 0.35426 0.0
O300 O 0.75413 0.64471 0.37427 0.0
O301 O 0.77074 0.78391 0.43607 0.0
Zn302 Zn 0.80878 0.72966 0.43802 0.0
O303 O 0.77705 0.68266 0.48649 0.0
C304 C 0.90796 0.78498 0.46636 0.0
O305 O 0.94987 0.79158 0.49841 0.0
O306 O 0.82177 0.69832 0.37198 0.0
C307 C 0.73008 0.67098 0.47678 0.0
O308 O 0.70603 0.68805 0.43573 0.0
C309 C 0.73045 0.79214 0.40997 0.0
O310 O 0.70795 0.82466 0.4269 0.0
O311 O 0.87409 0.75248 0.47675 0.0
Tb312 Tb 0.11334 0.09965 0.05069 0.0
Eu313 Eu 0.20276 0.13749 0.15072 0.0
C314 C 0.2144 0.16074 1.02934 0.0
C315 C 0.20632 0.05317 0.07795 0.0
C316 C 0.98947 0.10149 0.99998 0.0
C317 C 0.92524 0.14703 0.96547 0.0
C318 C 0.95774 0.11539 0.95756 0.0
C319 C 0.98702 0.1187 0.05041 0.0
C320 C 0.95643 0.15174 0.05789 0.0
C321 C 0.9259 0.16663 1.01539 0.0
C322 C 1.03344 0.07973 0.99144 0.0
O323 O 0.10057 0.06939 0.12598 0.0
O324 O 0.12831 0.12897 0.18279 0.0
O325 O 0.17216 0.20112 0.12141 0.0
O326 O 1.09619 0.16266 0.08362 0.0
C327 C 1.09359 0.0949 0.16507 0.0
O328 O 0.24212 0.11715 0.22453 0.0
O329 O 0.26743 0.18327 0.18949 0.0
O330 O 0.23742 0.15217 0.07566 0.0
O331 O 0.16598 0.14979 1.01577 0.0
O332 O 0.17482 0.06275 0.03803 0.0
O333 O 0.19698 0.06328 0.12491 0.0
C334 C 0.12717 0.20089 0.09636 0.0
O335 O 1.07091 0.10936 0.97855 0.0
O336 O 1.0482 0.05173 1.02831 0.0
C337 C 0.32741 0.13383 0.21448 0.0
C338 C 0.38661 0.07168 0.18057 0.0
C339 C 0.37455 0.06995 0.23252 0.0
C340 C 0.34457 0.10056 0.24918 0.0
C341 C 0.34659 0.14023 0.16574 0.0
C342 C 0.37595 0.10934 0.14892 0.0
C343 C 0.2798 0.15037 0.22124 0.0
H344 H 0.90143 0.15794 0.93215 0.0
H345 H 0.95988 0.10368 0.91817 0.0
H346 H 1.01123 0.10881 0.08373 0.0
H347 H 0.95689 0.16587 0.09676 0.0
H348 H 0.38444 1.04255 0.25881 0.0
H349 H 0.33068 0.09517 0.28706 0.0
H350 H 0.33473 0.16598 0.13816 0.0
H351 H 0.38666 0.11276 0.10951 0.0
Tb352 Tb 0.45263 0.90529 0.33164 0.0
Eu353 Eu 0.38568 0.81807 0.27474 0.0
C354 C 0.34825 0.91353 0.26749 0.0
C355 C 0.36793 0.84862 0.39383 0.0
C356 C 0.54866 1.01253 0.35236 0.0
C357 C 0.56802 0.096 0.35353 0.0
C358 C 0.53288 0.05606 0.35286 0.0
C359 C 0.59918 1.00967 0.34691 0.0
C360 C 0.63427 1.04978 0.34684 0.0
C361 C 0.61897 0.09272 0.35295 0.0
C362 C 0.51571 0.97149 0.36823 0.0
O363 O 0.46888 0.8433 0.375 0.0
O364 O 0.46389 0.80525 0.30059 0.0
O365 O 0.41291 0.86325 0.20857 0.0
O366 O 0.48403 0.89437 0.25863 0.0
C367 C 0.47577 0.80614 0.35122 0.0
O368 O 0.36491 0.74327 0.27682 0.0
O369 O 0.33895 0.78217 0.20883 0.0
O370 O 0.33421 0.87014 0.27914 0.0
O371 O 0.39544 0.93277 0.27735 0.0
O372 O 0.40078 0.88672 0.39132 0.0
O373 O 0.35823 0.81796 0.35529 0.0
C374 C 0.45731 0.88849 0.21256 0.0
O375 O 0.46726 0.9723 0.36323 0.0
O376 O 0.52698 0.93141 0.3564 0.0
C377 C 0.28123 0.7253 0.24363 0.0
C378 C 0.18306 0.69065 0.26212 0.0
C379 C 0.22079 0.66249 0.26963 0.0
C380 C 0.26939 0.67929 0.25921 0.0
C381 C 0.24488 0.75506 0.24185 0.0
C382 C 0.19582 0.73759 0.24988 0.0
C383 C 0.33268 0.74344 0.2351 0.0
H384 H 0.55579 0.12933 0.35725 0.0
H385 H 0.49428 0.05932 0.35712 0.0
H386 H 0.61219 0.9765 0.34593 0.0
H387 H 0.67351 1.04712 0.34533 0.0
H388 H 0.21244 0.62716 0.28174 0.0
H389 H 0.29766 0.6565 0.26346 0.0
H390 H 0.25387 0.79147 0.2325 0.0
H391 H 0.16784 0.76064 0.24531 0.0
Tb392 Tb 0.62198 0.10454 0.53972 0.0
Eu393 Eu 0.67152 0.14495 0.64649 0.0
C394 C 0.61177 1.04782 0.64312 0.0
C395 C 0.56685 0.17821 0.58508 0.0
C396 C 0.54743 1.00563 0.48777 0.0
C397 C 0.47716 0.94422 0.49363 0.0
C398 C 0.49562 0.98977 0.48049 0.0
C399 C 0.57945 0.97782 0.51544 0.0
C400 C 0.56081 0.93329 0.53077 0.0
C401 C 0.51018 0.91478 0.51635 0.0
C402 C 0.56728 0.05337 0.47412 0.0
O403 O 0.66572 0.16654 0.50954 0.0
O404 O 0.69265 0.20105 0.58972 0.0
O405 O 0.73714 0.11002 0.62002 0.0
O406 O 0.69021 0.06934 0.5515 0.0
C407 C 0.6889 0.20196 0.5385 0.0
O408 O 0.73307 0.17432 0.70434 0.0
O409 O 0.65666 0.17124 0.72165 0.0
O410 O 0.65328 0.07022 0.66578 0.0
O411 O 0.58745 0.06729 0.60409 0.0
O412 O 0.58377 0.16541 0.54259 0.0
O413 O 0.59002 0.16657 0.63093 0.0
C414 C 0.73337 0.07852 0.58234 0.0
O415 O 0.55018 0.08451 0.49963 0.0
O416 O 0.61583 0.06297 0.4725 0.0
C417 C 0.70663 0.24399 0.72539 0.0
C418 C 0.68907 0.33111 0.68566 0.0
C419 C 0.72452 0.30814 0.66595 0.0
C420 C 0.73394 0.26573 0.68612 0.0
C421 C 0.67288 0.26812 0.74743 0.0
C422 C 0.6648 0.31199 0.72822 0.0
C423 C 0.70249 0.1932 0.73 0.0
H424 H 0.43771 0.93135 0.48333 0.0
H425 H 0.46984 1.01186 0.46226 0.0
H426 H 0.61916 0.99014 0.52489 0.0
H427 H 0.58724 0.91206 0.54951 0.0
H428 H 0.74518 0.32298 0.6346 0.0
H429 H 0.75996 0.24852 0.66751 0.0
H430 H 0.65073 0.25194 0.77713 0.0
H431 H 0.63839 0.33007 0.74509 0.0
Tb432 Tb 0.35179 0.37846 0.83085 0.0
Eu433 Eu 0.47281 0.38445 0.84221 0.0
C434 C 0.41604 0.43728 0.75766 0.0
C435 C 0.4039 0.32534 0.74429 0.0
C436 C 0.22644 0.40417 0.84639 0.0
C437 C 0.14451 0.38401 0.87524 0.0
C438 C 0.17571 0.38587 0.8356 0.0
C439 C 0.24401 0.42658 0.89466 0.0
C440 C 0.21286 0.42413 0.93462 0.0
C441 C 0.16405 0.40001 0.92604 0.0
C442 C 0.26197 0.39201 0.81206 0.0
O443 O 0.36748 0.33485 0.90018 0.0
O444 O 0.44815 0.32371 0.89016 0.0
O445 O 0.44966 0.43846 0.89852 0.0
O446 O 0.36803 0.41054 0.90917 0.0
C447 C 0.40848 0.31625 0.9149 0.0
O448 O 0.54244 0.35453 0.84522 0.0
O449 O 0.54435 0.42596 0.86745 0.0
O450 O 0.45451 0.41558 0.76382 0.0
O451 O 0.39151 0.43986 0.79787 0.0
O452 O 0.3638 0.33132 0.76735 0.0
O453 O 0.44959 0.34331 0.76494 0.0
C454 C 0.40973 0.43832 0.92464 0.0
O455 O 0.30043 0.42374 0.80749 0.0
O456 O 0.27526 0.35098 0.81951 0.0
C457 C 0.60558 0.41114 0.81801 0.0
C458 C 0.65329 0.47425 0.75052 0.0
C459 C 0.67537 0.46972 0.80214 0.0
C460 C 0.65116 0.43851 0.83611 0.0
C461 C 0.58733 0.41138 0.76458 0.0
C462 C 0.61085 0.4432 0.73104 0.0
C463 C 0.57043 0.39454 0.85539 0.0
H464 H 0.10702 0.36504 0.86767 0.0
H465 H 0.16151 0.36879 0.79851 0.0
H466 H 0.28302 0.44157 0.90346 0.0
H467 H 0.22891 0.43519 0.9737 0.0
H468 H 0.70826 0.49351 0.81759 0.0
H469 H 0.66525 0.43914 0.87741 0.0
H470 H 0.55198 0.39065 0.74999 0.0
H471 H 0.59397 0.44579 0.6909 0.0
Tb472 Tb 0.16334 0.13139 0.53117 0.0
Eu473 Eu 0.14957 0.14854 0.64835 0.0
C474 C 0.26224 0.1721 0.6063 0.0
C475 C 0.1594 1.04195 0.61381 0.0
C476 C 0.14437 0.07931 0.39914 0.0
C477 C 0.13512 1.04576 0.31239 0.0
C478 C 0.16379 0.07363 0.35189 0.0
C479 C 0.09722 0.05549 0.4077 0.0
C480 C 1.06825 1.02855 0.36807 0.0
C481 C 1.08677 1.0234 0.31994 0.0
C482 C 0.17012 0.11428 0.43669 0.0
O483 O 1.08469 0.09656 0.53818 0.0
O484 O 1.0685 0.11747 0.61925 0.0
O485 O 0.15059 0.22226 0.60982 0.0
O486 O 0.15542 0.20753 0.52386 0.0
C487 C 1.05348 0.09534 0.57471 0.0
O488 O 0.17098 0.1379 0.73135 0.0
O489 O 0.11632 0.18353 0.70715 0.0
O490 O 0.23545 0.16236 0.64609 0.0
O491 O 0.24037 0.16599 0.55797 0.0
O492 O 0.17413 0.06246 0.56995 0.0
O493 O 0.14452 0.06793 0.64895 0.0
C494 C 0.15306 0.238 0.56093 0.0
O495 O 0.14148 0.14232 0.45195 0.0
O496 O 0.19889 0.09978 0.47578 0.0
C497 C 0.16956 0.2019 0.78572 0.0
C498 C 0.21689 0.26322 0.86562 0.0
C499 C 0.16438 0.25136 0.85916 0.0
C500 C 0.14094 0.22049 0.81978 0.0
C501 C 0.22185 0.21559 0.79046 0.0
C502 C 0.24531 0.2461 0.83028 0.0
C503 C 0.14428 0.16787 0.7462 0.0
H504 H 0.14975 1.04381 0.2751 0.0
H505 H 0.2 0.09237 0.34466 0.0
H506 H 1.08156 0.05982 0.44391 0.0
H507 H 1.03051 1.01326 0.37454 0.0
H508 H 0.14159 0.26486 0.88553 0.0
H509 H 0.10052 0.2107 0.81629 0.0
H510 H 0.24459 0.20245 0.76378 0.0
H511 H 0.28549 0.25692 0.83301 0.0
Tb512 Tb 0.40455 0.84153 0.8313 0.0
Eu513 Eu 0.4128 0.94792 0.80166 0.0
C514 C 0.40809 0.91521 0.92289 0.0
C515 C 0.30204 0.88153 0.79195 0.0
C516 C 0.37815 0.71578 0.81583 0.0
C517 C 0.37387 0.63376 0.805 0.0
C518 C 0.38186 0.67227 0.83748 0.0
C519 C 0.36222 0.72032 0.76219 0.0
C520 C 0.35531 0.68179 0.72936 0.0
C521 C 0.36407 0.63881 0.75023 0.0
C522 C 0.39937 0.7563 0.84716 0.0
O523 O 0.39295 0.84347 0.74452 0.0
O524 O 0.43768 0.91409 0.73212 0.0
O525 O 0.49357 0.94099 0.83623 0.0
O526 O 0.4862 0.86365 0.8563 0.0
C527 C 0.41481 0.87399 0.7131 0.0
O528 O 0.39046 1.00019 0.74551 0.0
O529 O 0.44076 1.02116 0.8151 0.0
O530 O 0.39848 0.94727 0.88796 0.0
O531 O 0.414 0.87364 0.90849 0.0
O532 O 0.32419 0.85038 0.82005 0.0
O533 O 0.329 0.92012 0.7778 0.0
C534 C 0.51355 0.90508 0.85683 0.0
O535 O 0.43675 0.78158 0.82777 0.0
O536 O 0.36771 0.78095 0.86312 0.0
C537 C 0.37952 0.06737 0.78885 0.0
C538 C 0.32869 0.12975 0.83553 0.0
C539 C 0.3681 0.14631 0.80585 0.0
C540 C 0.39309 0.11517 0.78215 0.0
C541 C 0.33771 0.05089 0.81485 0.0
C542 C 0.31213 0.08184 0.83755 0.0
C543 C 0.4121 1.03474 0.7754 0.0
H544 H 0.37971 0.60066 0.8224 0.0
H545 H 0.39381 0.66843 0.8789 0.0
H546 H 0.35887 0.75402 0.7452 0.0
H547 H 0.34749 0.68642 0.68759 0.0
H548 H 0.3811 0.18312 0.803 0.0
H549 H 0.42451 0.12848 0.76104 0.0
H550 H 0.3266 1.01403 0.82017 0.0
H551 H 0.28168 0.06797 0.85979 0.0
Tb552 Tb 0.68774 0.12319 0.12478 0.0
Eu553 Eu 0.61268 0.15482 1.03111 0.0
C554 C 0.66047 0.05174 1.02558 0.0
C555 C 0.72548 0.1971 0.04125 0.0
C556 C 0.77229 0.13836 0.2427 0.0
C557 C 0.78744 0.15406 0.33563 0.0
C558 C 0.78214 0.12285 0.2941 0.0
C559 C 0.77372 0.1859 0.23259 0.0
C560 C 0.77803 0.2169 0.27395 0.0
C561 C 0.7814 0.20055 0.32565 0.0
C562 C 0.74599 0.10582 0.20289 0.0
O563 O 0.66117 0.18741 0.15641 0.0
O564 O 0.62445 0.22128 0.08386 0.0
O565 O 0.56692 0.12382 0.09354 0.0
O566 O 0.61999 0.07326 0.12084 0.0
C567 C 0.64336 0.22468 0.13386 0.0
O568 O 0.58694 0.2052 0.97452 0.0
O569 O 0.54437 0.1366 0.97709 0.0
O570 O 0.63015 0.08163 1.00543 0.0
O571 O 0.6909 0.06435 0.06914 0.0
O572 O 0.72932 0.18289 0.08983 0.0
O573 O 0.68859 0.17924 1.00701 0.0
C574 C 0.57498 0.08395 0.11373 0.0
O575 O 0.69722 0.10114 0.20251 0.0
O576 O 0.75998 0.11179 0.15583 0.0
C577 C 0.55825 0.1666 0.89469 0.0
C578 C 0.57623 0.11832 0.80731 0.0
C579 C 0.52691 0.11917 0.81797 0.0
C580 C 0.51782 0.14283 0.86195 0.0
C581 C 0.6068 0.17151 0.8792 0.0
C582 C 0.61573 0.14737 0.83591 0.0
C583 C 0.55271 0.17447 0.94982 0.0
H584 H 0.78973 0.14054 0.37525 0.0
H585 H 0.78056 0.08618 0.30239 0.0
H586 H 0.76596 0.19841 0.19298 0.0
H587 H 0.77334 0.25255 0.26547 0.0
H588 H 0.49624 0.09777 0.7956 0.0
H589 H 0.4801 0.13868 0.8732 0.0
H590 H 0.63878 0.18986 0.90354 0.0
H591 H 0.65421 0.14812 0.82791 0.0
Tb592 Tb 0.40989 0.43682 0.35608 0.0
Eu593 Eu 0.38404 0.33631 0.3098 0.0
C594 C 0.42701 0.35121 0.4356 0.0
C595 C 0.49924 0.39605 0.30376 0.0
C596 C 0.36541 0.54106 0.38787 0.0
C597 C 0.30027 0.5696 0.43118 0.0
C598 C 0.34638 0.55268 0.43391 0.0
C599 C 0.33754 0.54739 0.3392 0.0
C600 C 0.29139 0.56346 0.33669 0.0
C601 C 0.27176 0.57377 0.38251 0.0
C602 C 0.41043 0.51717 0.39052 0.0
O603 O 0.39441 0.45122 0.26967 0.0
O604 O 0.35645 0.37987 0.24 0.0
O605 O 0.30733 0.34573 0.3349 0.0
O606 O 0.33016 0.41646 0.37429 0.0
C607 C 0.37163 0.42412 0.23047 0.0
O608 O 0.38702 0.28807 0.24622 0.0
O609 O 0.35767 0.26197 0.31697 0.0
O610 O 0.40397 0.32249 0.39834 0.0
O611 O 0.43979 0.39567 0.42385 0.0
O612 O 0.48554 0.42906 0.33211 0.0
O613 O 0.46709 0.35773 0.29264 0.0
C614 C 0.2964 0.37909 0.364 0.0
O615 O 0.40958 0.48091 0.42055 0.0
O616 O 0.42624 0.5091 0.34608 0.0
C617 C 0.42512 0.22949 0.28982 0.0
C618 C 0.52846 0.22709 0.31562 0.0
C619 C 0.50688 0.22284 0.26306 0.0
C620 C 0.45552 0.22413 0.25022 0.0
C621 C 0.44592 0.22777 0.34262 0.0
C622 C 0.49714 0.22723 0.35533 0.0
C623 C 0.38029 0.2525 0.27724 0.0
H624 H 0.28614 0.57795 0.4671 0.0
H625 H 0.36671 0.54782 0.472 0.0
H626 H 0.35057 0.5387 0.3028 0.0
H627 H 0.27122 0.56791 0.29874 0.0
H628 H 0.53011 0.22132 0.2317 0.0
H629 H 0.4406 0.22538 0.20926 0.0
H630 H 0.42372 0.23123 0.3744 0.0
H631 H 0.51244 0.22857 0.3963 0.0
Tb632 Tb 0.6609 0.62902 1.03401 0.0
Eu633 Eu 0.64417 0.64861 0.14799 0.0
C634 C 0.75922 0.67209 0.10878 0.0
C635 C 0.65566 0.54074 0.1178 0.0
C636 C 0.63668 0.57719 0.90258 0.0
C637 C 0.60933 0.56026 0.8117 0.0
C638 C 0.64463 0.58239 0.85009 0.0
C639 C 0.59418 0.54812 0.91669 0.0
C640 C 0.55874 0.52595 0.87786 0.0
C641 C 0.5666 0.53122 0.82497 0.0
C642 C 0.6659 0.61027 0.93994 0.0
O643 O 0.58155 0.59472 0.03947 0.0
O644 O 0.56272 0.61967 0.11731 0.0
O645 O 0.64604 0.72208 0.1083 0.0
O646 O 0.65661 0.70604 1.02433 0.0
C647 C 0.54861 0.59591 0.07376 0.0
O648 O 0.66256 0.63832 0.23153 0.0
O649 O 0.60919 0.68447 0.20455 0.0
O650 O 0.73064 0.66568 0.1477 0.0
O651 O 0.73901 0.66164 0.06052 0.0
O652 O 0.67173 0.56066 0.07423 0.0
O653 O 0.63951 0.56757 0.15125 0.0
C654 C 0.65193 0.73727 0.05973 0.0
O655 O 0.6404 0.64105 0.95495 0.0
O656 O 0.69309 0.59375 0.97894 0.0
C657 C 0.65941 0.70231 0.28474 0.0
C658 C 0.70581 0.7624 0.36601 0.0
C659 C 0.65393 0.74699 0.36191 0.0
C660 C 0.63089 0.71688 0.32164 0.0
C661 C 0.71093 0.71904 0.28758 0.0
C662 C 0.73403 0.74847 0.32841 0.0
C663 C 0.63528 0.66847 0.24479 0.0
H664 H 0.6132 0.56966 0.77172 0.0
H665 H 0.67594 0.6065 0.83851 0.0
H666 H 0.58684 0.54497 0.95723 0.0
H667 H 0.52452 0.50627 0.88902 0.0
H668 H 0.63167 0.75657 0.39109 0.0
H669 H 0.59104 0.70427 0.31992 0.0
H670 H 0.73352 0.7085 0.25904 0.0
H671 H 0.77397 0.76036 0.33061 0.0
Tb672 Tb 0.90436 0.33719 0.32984 0.0
Eu673 Eu 0.90743 0.44476 0.30439 0.0
C674 C 0.89631 0.40664 0.42307 0.0
C675 C 0.79841 0.37549 0.29289 0.0
C676 C 0.90152 0.21206 0.31066 0.0
C677 C 0.90481 0.13062 0.30291 0.0
C678 C 0.90534 0.16916 0.33405 0.0
C679 C 0.89543 0.21607 0.25574 0.0
C680 C 0.89538 0.17755 0.2244 0.0
C681 C 0.90162 0.13483 0.24789 0.0
C682 C 0.91154 0.25313 0.3436 0.0
O683 O 0.89339 0.33861 0.24321 0.0
O684 O 0.93075 0.41244 0.23192 0.0
O685 O 0.98561 0.4418 0.3499 0.0
O686 O 0.9848 0.36361 0.35601 0.0
C687 C 0.91125 0.37142 0.21205 0.0
O688 O 0.88891 0.49758 0.24705 0.0
O689 O 0.92974 0.51831 0.32202 0.0
O690 O 0.88997 0.44031 0.38923 0.0
O691 O 0.90283 0.36535 0.40795 0.0
O692 O 0.82262 0.3415 0.31238 0.0
O693 O 0.82307 0.41737 0.28664 0.0
C694 C 1.00808 0.40602 0.36599 0.0
O695 O 0.94715 0.28402 0.32923 0.0
O696 O 0.87318 0.27141 0.3553 0.0
C697 C 0.87295 0.56564 0.28544 0.0
C698 C 0.81773 0.62975 0.32196 0.0
C699 C 0.86331 0.64516 0.30175 0.0
C700 C 0.89063 0.61319 0.28333 0.0
C701 C 0.82538 0.5505 0.301 0.0
C702 C 0.79766 0.5824 0.3186 0.0
C703 C 0.90662 0.53205 0.27867 0.0
H704 H 0.90936 0.098 0.3222 0.0
H705 H 0.91047 0.16579 0.37638 0.0
H706 H 0.89283 0.24929 0.23721 0.0
H707 H 0.89297 0.18176 0.18221 0.0
H708 H 0.87929 0.68151 0.3031 0.0
H709 H 0.92674 0.62556 0.27033 0.0
H710 H 0.81106 0.51385 0.30264 0.0
H711 H 0.76239 0.56942 0.33341 0.0
Tb712 Tb 0.17755 0.61974 0.6327 0.0
Eu713 Eu 0.12846 0.65638 0.5236 0.0
C714 C 0.16614 0.55059 0.53303 0.0
C715 C 0.2412 0.69208 0.56525 0.0
C716 C 0.2383 0.62496 0.76771 0.0
C717 C 0.26863 0.63177 0.86035 0.0
C718 C 0.2536 0.60432 0.81536 0.0
C719 C 0.2392 0.67302 0.76522 0.0
C720 C 0.25188 0.69993 0.81025 0.0
C721 C 0.26589 0.67943 0.85815 0.0
C722 C 0.21815 0.59684 0.72123 0.0
O723 O 0.17225 0.6949 0.64992 0.0
O724 O 0.12271 0.71919 0.5794 0.0
O725 O 1.07592 0.59617 0.55004 0.0
O726 O 0.09737 0.60727 0.63695 0.0
C727 C 0.14822 0.72817 0.62687 0.0
O728 O 0.1307 0.67392 0.44098 0.0
O729 O 1.06009 0.66835 0.47442 0.0
O730 O 0.16436 0.59013 0.50601 0.0
O731 O 0.16633 0.55317 0.58474 0.0
O732 O 0.23925 0.6527 0.59097 0.0
O733 O 0.20139 0.704 0.5382 0.0
C734 C 1.06662 0.58792 0.59805 0.0
O735 O 0.17003 0.59464 0.70888 0.0
O736 O 0.24205 0.60535 0.68022 0.0
C737 C 1.06051 0.631 0.39382 0.0
C738 C 1.04123 0.56056 0.31756 0.0
C739 C 1.02434 0.60331 0.30666 0.0
C740 C 1.03484 0.63895 0.34453 0.0
C741 C 1.07154 0.58642 0.40595 0.0
C742 C 1.06344 0.55214 0.36777 0.0
C743 C 1.08166 0.66859 0.43134 0.0
H744 H 0.28048 0.61565 0.89706 0.0
H745 H 0.25351 0.56723 0.81783 0.0
H746 H 0.22934 0.68981 0.72865 0.0
H747 H 0.25137 0.73694 0.80755 0.0
H748 H 1.00788 0.61054 0.26751 0.0
H749 H 1.02551 0.67301 0.33441 0.0
H750 H 1.0894 0.57882 0.44412 0.0
H751 H 1.07733 0.51984 0.37643 0.0
Tb752 Tb 0.84999 0.87691 0.33391 0.0
Eu753 Eu 0.97096 0.88562 0.34741 0.0
C754 C 0.91339 0.93599 0.26 0.0
C755 C 0.90486 0.8245 0.24892 0.0
C756 C 0.71249 0.88767 0.32642 0.0
C757 C 0.6277 0.85073 0.33291 0.0
C758 C 0.66996 0.85705 0.30633 0.0
C759 C 0.71011 0.91673 0.36891 0.0
C760 C 0.66737 0.91086 0.39505 0.0
C761 C 0.62777 0.87554 0.37908 0.0
C762 C 0.75961 0.88523 0.30537 0.0
O763 O 0.86121 0.82494 0.39617 0.0
O764 O 0.94787 0.83159 0.40467 0.0
O765 O 0.9464 0.94012 0.40178 0.0
O766 O 0.86518 0.90977 0.4126 0.0
C767 C 0.90434 0.81385 0.41873 0.0
O768 O 1.04017 0.85496 0.35798 0.0
O769 O 1.04293 0.9293 0.36295 0.0
O770 O 0.9518 0.91429 0.26789 0.0
O771 O 0.88705 0.93851 0.29875 0.0
O772 O 0.86421 0.83383 0.26819 0.0
O773 O 0.95004 0.83923 0.27336 0.0
C774 C 0.90646 0.93856 0.42827 0.0
O775 O 0.79541 0.92001 0.31548 0.0
O776 O 0.77629 0.84563 0.31053 0.0
C777 C 0.10127 0.90307 0.31622 0.0
C778 C 0.15135 0.93835 0.2312 0.0
C779 C 0.17207 0.95012 0.28297 0.0
C780 C 0.14705 0.93263 0.32526 0.0
C781 C 1.08254 0.88849 0.26486 0.0
C782 C 0.10766 0.90567 0.22267 0.0
C783 C 1.06827 0.89547 0.35769 0.0
H784 H 0.59669 0.82393 0.31988 0.0
H785 H 0.67098 0.83522 0.27281 0.0
H786 H 0.74231 0.9413 0.38432 0.0
H787 H 0.66739 0.93051 0.43054 0.0
H788 H 0.2067 0.97408 0.2908 0.0
H789 H 0.16173 0.94455 0.3646 0.0
H790 H 1.04698 0.86592 0.25698 0.0
H791 H 1.09154 0.89511 0.1833 0.0
Tb792 Tb 0.93693 0.40819 0.82554 0.0
Eu793 Eu 0.90368 0.30706 0.7677 0.0
C794 C 0.84588 0.3956 0.74222 0.0
C795 C 0.87202 0.32794 0.88491 0.0
C796 C 1.02251 0.51481 0.8707 0.0
C797 C 1.06272 0.59216 0.85406 0.0
C798 C 1.02006 0.55914 0.85031 0.0
C799 C 1.06902 0.50316 0.89288 0.0
C800 C 0.11192 0.53665 0.89736 0.0
C801 C 0.10861 0.58179 0.87939 0.0
C802 C 0.97566 0.48255 0.87116 0.0
O803 O 0.996 0.36601 0.82747 0.0
O804 O 0.95353 0.29568 0.84043 0.0
O805 O 0.96343 0.34601 0.72249 0.0
O806 O 0.95338 0.4196 0.74427 0.0
C807 C 0.99173 0.3272 0.85381 0.0
O808 O 0.92579 0.24387 0.73962 0.0
O809 O 0.84869 0.25718 0.72284 0.0
O810 O 0.86044 0.3587 0.72403 0.0
O811 O 0.86119 0.411 0.79002 0.0
O812 O 0.89947 0.36908 0.88685 0.0
O813 O 0.8632 0.30228 0.84157 0.0
C814 C 0.96602 0.39027 0.71154 0.0
O815 O 0.94397 0.48069 0.82871 0.0
O816 O 0.97944 0.4417 0.89071 0.0
C817 C 0.8606 0.18145 0.73993 0.0
C818 C 0.7946 0.10471 0.76683 0.0
C819 C 0.81403 0.10569 0.71842 0.0
C820 C 0.84632 0.14462 0.70449 0.0
C821 C 0.84776 0.17698 0.79125 0.0
C822 C 0.81476 0.13871 0.80469 0.0
C823 C 0.87973 0.22716 0.72129 0.0
H824 H 1.05883 0.62658 0.83935 0.0
H825 H 0.98472 0.56879 0.8329 0.0
H826 H 1.07197 0.46892 0.90865 0.0
H827 H 0.14692 0.52775 0.91663 0.0
H828 H 0.80079 0.07852 0.68979 0.0
H829 H 0.85674 0.14753 0.66493 0.0
H830 H 0.85934 0.20505 0.81925 0.0
H831 H 0.80179 0.13797 0.8431 0.0
Tb832 Tb 0.92158 0.93073 0.85871 0.0
Eu833 Eu 0.89984 0.83095 0.81432 0.0
C834 C 0.93507 0.84892 0.94118 0.0
C835 C 1.01177 0.89661 0.80576 0.0
C836 C 0.85893 1.01884 0.87553 0.0
C837 C 0.7798 1.00994 0.91338 0.0
C838 C 0.83199 1.02365 0.91816 0.0
C839 C 0.83159 1.00467 0.82675 0.0
C840 C 0.7801 0.98895 0.82278 0.0
C841 C 0.75366 0.99146 0.86599 0.0
C842 C 0.91148 1.00952 0.88551 0.0
O843 O 0.90904 0.94215 0.772 0.0
O844 O 0.86703 0.8717 0.74464 0.0
O845 O 0.82044 0.8362 0.83653 0.0
O846 O 0.84141 0.90734 0.87556 0.0
C847 C 0.88329 0.91555 0.73413 0.0
O848 O 0.89934 0.78094 0.75098 0.0
O849 O 0.89983 0.75707 0.83058 0.0
O850 O 0.91075 0.82045 0.90437 0.0
O851 O 0.95158 0.89222 0.92808 0.0
O852 O 0.99908 0.92653 0.83868 0.0
O853 O 0.9789 0.85994 0.79089 0.0
C854 C 0.80791 0.86975 0.86461 0.0
O855 O 0.91816 0.97724 0.9201 0.0
O856 O 0.93297 1.0029 0.84402 0.0
C857 C 0.96402 0.73899 0.78392 0.0
C858 C 1.06616 0.7304 0.77839 0.0
C859 C 1.02731 0.70399 0.74516 0.0
C860 C 0.97665 0.70872 0.74741 0.0
C861 C 1.00285 0.7643 0.8178 0.0
C862 C 1.05309 0.76086 0.81433 0.0
C863 C 0.91217 0.74947 0.78429 0.0
H864 H 0.76047 1.01089 0.94785 0.0
H865 H 0.85178 1.03333 0.95645 0.0
H866 H 0.85056 1.00051 0.79271 0.0
H867 H 0.76138 0.9731 0.78646 0.0
H868 H 1.03612 0.6801 0.71697 0.0
H869 H 0.94759 0.68919 0.72047 0.0
H870 H 0.99446 0.78788 0.84657 0.0
H871 H 1.08162 0.78195 0.84027 0.0
Tb872 Tb 0.59544 0.59841 0.54229 0.0
Eu873 Eu 0.68722 0.63568 0.63591 0.0
C874 C 0.70096 0.64565 0.51455 0.0
C875 C 0.67977 0.53611 0.57436 0.0
C876 C 0.47487 0.61294 0.4897 0.0
C877 C 0.4168 0.66352 0.45257 0.0
C878 C 0.44645 0.62916 0.44621 0.0
C879 C 0.47277 0.63147 0.53958 0.0
C880 C 0.44619 0.66807 0.54527 0.0
C881 C 0.41907 0.68534 0.50148 0.0
C882 C 0.51498 0.5855 0.48284 0.0
O883 O 0.5751 0.57394 0.61734 0.0
O884 O 0.61358 0.63344 0.6702 0.0
O885 O 0.66538 0.70021 0.59716 0.0
O886 O 0.58536 0.66496 0.5726 0.0
C887 C 0.57459 0.60203 0.65627 0.0
O888 O 0.72574 0.62272 0.7131 0.0
O889 O 0.75213 0.6841 0.66975 0.0
O890 O 0.72293 0.63732 0.56121 0.0
O891 O 0.65225 0.6388 0.50224 0.0
O892 O 0.64508 0.54678 0.53762 0.0
O893 O 0.69478 0.56151 0.61669 0.0
C894 C 0.61928 0.70208 0.5768 0.0
O895 O 0.55551 0.61031 0.46932 0.0
O896 O 0.52546 0.55707 0.5209 0.0
C897 C 0.81008 0.63372 0.69848 0.0
C898 C 0.86744 0.56824 0.6678 0.0
C899 C 0.8547 0.56841 0.71942 0.0
C900 C 0.8258 0.6007 0.73451 0.0
C901 C 0.82804 0.63668 0.64898 0.0
C902 C 0.85586 0.60394 0.63361 0.0
C903 C 0.76427 0.6536 0.70494 0.0
H904 H 0.39405 0.67461 0.41868 0.0
H905 H 0.44839 0.6164 0.40724 0.0
H906 H 0.49431 0.61967 0.57392 0.0
H907 H 0.44739 0.68317 0.58378 0.0
H908 H 0.86438 0.54193 0.74713 0.0
H909 H 0.81218 0.59736 0.77265 0.0
H910 H 0.81701 0.66178 0.62012 0.0
H911 H 0.86662 0.60561 0.59419 0.0
Tb912 Tb 0.10497 0.59991 0.05262 0.0
Eu913 Eu 0.19512 0.67998 0.08561 0.0
C914 C 0.17251 0.59264 0.15975 0.0
C915 C 1.07675 0.69349 0.09729 0.0
C916 C 1.01734 0.4903 0.03763 0.0
C917 C 0.96591 0.41722 1.01429 0.0
C918 C 0.97564 0.46509 1.00853 0.0
C919 C 1.04582 0.46866 0.0769 0.0
C920 C 1.0353 0.42117 0.08378 0.0
C921 C 0.99753 0.39474 0.04997 0.0
C922 C 1.0302 0.53942 1.02834 0.0
O923 O 1.09266 0.65711 1.00005 0.0
O924 O 0.17362 0.68713 0.99927 0.0
O925 O 0.23956 0.62044 0.08018 0.0
O926 O 0.176 0.57281 1.03232 0.0
C927 C 0.1267 0.68713 0.98166 0.0
O928 O 0.26793 0.71374 0.06706 0.0
O929 O 0.23298 0.7397 0.13042 0.0
O930 O 0.18893 0.63712 0.15837 0.0
O931 O 0.142 0.57128 0.12173 0.0
O932 O 1.06578 0.64798 0.09364 0.0
O933 O 0.12355 0.71344 0.093 0.0
C934 C 0.22477 0.58252 0.05263 0.0
O935 O 1.0373 0.56402 0.07118 0.0
O936 O 1.06481 0.55197 0.99717 0.0
C937 C 0.27558 0.79291 0.07694 0.0
C938 C 0.28429 0.88633 0.0532 0.0
C939 C 0.32747 0.86638 0.06899 0.0
C940 C 0.32308 0.8196 0.08159 0.0
C941 C 0.23358 0.81114 0.05313 0.0
C942 C 0.2379 0.85805 0.04147 0.0
C943 C 0.26886 0.7473 0.10006 0.0
H944 H 0.93656 0.39784 0.9878 0.0
H945 H 0.95221 0.4821 0.97965 0.0
H946 H 1.07731 0.48819 0.10085 0.0
H947 H 1.0598 0.40468 0.1121 0.0
H948 H 0.36324 0.88787 0.07857 0.0
H949 H 0.35587 0.80532 0.09879 0.0
H950 H 0.19682 0.79011 0.04799 0.0
H951 H 0.20419 0.87308 1.02943 0.0
loop_
_geom_bond_atom_site_label_1
_geom_bond_atom_site_label_2
_geom_bond_distance
_geom_bond_site_symmetry_2
_ccdc_geom_bond_type
C0 O1 1.160 . S
C0 O7 1.185 . S
O1 C0 1.160 . S
O2 Zn3 1.899 . S
O2 C10 1.284 . S
Zn3 O2 1.899 . S
Zn3 O4 2.032 . S
Zn3 O7 2.086 . S
Zn3 O12 1.977 . S
O4 Zn3 2.032 . S
O4 C8 1.278 . S
C5 O6 1.203 . S
C5 O12 1.267 1_655 S
O6 C5 1.203 . S
O7 C0 1.185 . S
O7 Zn3 2.086 . S
C8 O4 1.278 . S
C8 O9 1.211 . S
O9 C8 1.211 . S
C10 O2 1.284 . S
C10 O11 1.273 . S
O11 C10 1.273 . S
O12 Zn3 1.977 . S
O12 C5 1.267 1_455 S
C13 O14 1.160 . S
C13 O20 1.187 . S
O14 C13 1.160 . S
O15 Zn16 1.899 . S
O15 C23 1.284 . S
Zn16 O15 1.899 . S
Zn16 O17 2.032 . S
Zn16 O20 2.084 1_455 S
Zn16 O25 1.977 . S
O17 Zn16 2.032 . S
O17 C21 1.278 . S
C18 O19 1.203 . S
C18 O25 1.267 . S
O19 C18 1.203 . S
O20 C13 1.187 . S
O20 Zn16 2.084 1_655 S
C21 O17 1.278 . S
C21 O22 1.211 . S
O22 C21 1.211 . S
C23 O15 1.284 . S
C23 O24 1.273 . S
O24 C23 1.273 . S
O25 Zn16 1.977 . S
O25 C18 1.267 . S
C26 O27 1.160 . S
C26 O33 1.185 . S
O27 C26 1.160 . S
O28 Zn29 1.899 . S
O28 C36 1.284 . S
Zn29 O28 1.899 . S
Zn29 O30 2.032 . S
Zn29 O33 2.086 . S
Zn29 O38 1.977 . S
O30 Zn29 2.032 . S
O30 C34 1.278 . S
C31 O32 1.203 . S
C31 O38 1.267 . S
O32 C31 1.203 . S
O33 C26 1.185 . S
O33 Zn29 2.086 . S
C34 O30 1.278 . S
C34 O35 1.211 . S
O35 C34 1.211 . S
C36 O28 1.284 . S
C36 O37 1.273 . S
O37 C36 1.273 . S
O38 Zn29 1.977 . S
O38 C31 1.267 . S
C39 O40 1.160 . S
C39 O46 1.185 . S
O40 C39 1.160 . S
O41 Zn42 1.899 . S
O41 C49 1.284 . S
Zn42 O41 1.899 . S
Zn42 O43 2.032 . S
Zn42 O46 2.086 . S
Zn42 O51 1.977 . S
O43 Zn42 2.032 . S
O43 C47 1.278 . S
C44 O45 1.203 . S
C44 O51 1.267 . S
O45 C44 1.203 . S
O46 C39 1.185 . S
O46 Zn42 2.086 . S
C47 O43 1.278 . S
C47 O48 1.211 . S
O48 C47 1.211 . S
C49 O41 1.284 . S
C49 O50 1.273 . S
O50 C49 1.273 . S
O51 Zn42 1.977 . S
O51 C44 1.267 . S
C52 O53 1.160 . S
C52 O59 1.185 . S
O53 C52 1.160 . S
O54 Zn55 1.899 . S
O54 C62 1.284 . S
Zn55 O54 1.899 . S
Zn55 O56 2.032 . S
Zn55 O59 2.086 . S
Zn55 O64 1.977 . S
O56 Zn55 2.032 . S
O56 C60 1.278 1_565 S
C57 O58 1.203 . S
C57 O64 1.267 . S
O58 C57 1.203 . S
O59 C52 1.185 . S
O59 Zn55 2.086 . S
C60 O56 1.278 1_545 S
C60 O61 1.211 . S
O61 C60 1.211 . S
C62 O54 1.284 . S
C62 O63 1.273 . S
O63 C62 1.273 . S
O64 Zn55 1.977 . S
O64 C57 1.267 . S
C65 O66 1.160 . S
C65 O72 1.185 . S
O66 C65 1.160 . S
O67 Zn68 1.899 . S
O67 C75 1.284 . S
Zn68 O67 1.899 . S
Zn68 O69 2.032 . S
Zn68 O72 2.086 . S
Zn68 O77 1.977 . S
O69 Zn68 2.032 . S
O69 C73 1.278 . S
C70 O71 1.203 . S
C70 O77 1.267 . S
O71 C70 1.203 . S
O72 C65 1.185 . S
O72 Zn68 2.086 . S
C73 O69 1.278 . S
C73 O74 1.211 . S
O74 C73 1.211 . S
C75 O67 1.284 . S
C75 O76 1.273 . S
O76 C75 1.273 . S
O77 Zn68 1.977 . S
O77 C70 1.267 . S
C78 O79 1.160 . S
C78 O85 1.185 . S
O79 C78 1.160 . S
O80 Zn81 1.899 . S
O80 C88 1.284 . S
Zn81 O80 1.899 . S
Zn81 O82 2.032 . S
Zn81 O85 2.086 . S
Zn81 O90 1.977 . S
O82 Zn81 2.032 . S
O82 C86 1.278 . S
C83 O84 1.203 . S
C83 O90 1.267 . S
O84 C83 1.203 . S
O85 C78 1.185 . S
O85 Zn81 2.086 . S
C86 O82 1.278 . S
C86 O87 1.211 . S
O87 C86 1.211 . S
C88 O80 1.284 . S
C88 O89 1.273 . S
O89 C88 1.273 . S
O90 Zn81 1.977 . S
O90 C83 1.267 . S
C91 O92 1.160 . S
C91 O98 1.185 . S
O92 C91 1.160 . S
O93 Zn94 1.896 . S
O93 C101 1.277 1_455 S
Zn94 O93 1.896 . S
Zn94 O95 2.032 . S
Zn94 O98 2.086 . S
Zn94 O103 1.977 1_455 S
O95 Zn94 2.032 . S
O95 C99 1.278 . S
C96 O97 1.203 . S
C96 O103 1.267 . S
O97 C96 1.203 . S
O98 C91 1.185 . S
O98 Zn94 2.086 . S
C99 O95 1.278 . S
C99 O100 1.211 1_455 S
O100 C99 1.211 1_655 S
C101 O93 1.277 1_655 S
C101 O102 1.273 1_556 S
O102 C101 1.273 1_554 S
O103 Zn94 1.977 1_655 S
O103 C96 1.267 . S
C104 O105 1.160 . S
C104 O111 1.185 . S
O105 C104 1.160 . S
O106 Zn107 1.899 . S
O106 C114 1.284 . S
Zn107 O106 1.899 . S
Zn107 O108 2.032 . S
Zn107 O111 2.086 . S
Zn107 O116 1.977 . S
O108 Zn107 2.032 . S
O108 C112 1.278 . S
C109 O110 1.203 . S
C109 O116 1.267 . S
O110 C109 1.203 . S
O111 C104 1.185 . S
O111 Zn107 2.086 . S
C112 O108 1.278 . S
C112 O113 1.211 . S
O113 C112 1.211 . S
C114 O106 1.284 . S
C114 O115 1.273 . S
O115 C114 1.273 . S
O116 Zn107 1.977 . S
O116 C109 1.267 . S
C117 O118 1.160 . S
C117 O124 1.185 . S
O118 C117 1.160 . S
O119 Zn120 1.899 . S
O119 C127 1.284 . S
Zn120 O119 1.899 . S
Zn120 O121 2.032 . S
Zn120 O124 2.086 . S
Zn120 O129 1.977 . S
O121 Zn120 2.032 . S
O121 C125 1.278 . S
C122 O123 1.203 . S
C122 O129 1.267 . S
O123 C122 1.203 . S
O124 C117 1.185 . S
O124 Zn120 2.086 . S
C125 O121 1.278 . S
C125 O126 1.211 . S
O126 C125 1.211 . S
C127 O119 1.284 . S
C127 O128 1.273 . S
O128 C127 1.273 . S
O129 Zn120 1.977 . S
O129 C122 1.267 . S
C130 O131 1.160 . S
C130 O137 1.185 . S
O131 C130 1.160 . S
O132 Zn133 1.899 . S
O132 C140 1.284 . S
Zn133 O132 1.899 . S
Zn133 O134 2.032 . S
Zn133 O137 2.086 . S
Zn133 O142 1.977 . S
O134 Zn133 2.032 . S
O134 C138 1.278 . S
C135 O136 1.203 . S
C135 O142 1.267 . S
O136 C135 1.203 . S
O137 C130 1.185 . S
O137 Zn133 2.086 . S
C138 O134 1.278 . S
C138 O139 1.211 . S
O139 C138 1.211 . S
C140 O132 1.284 . S
C140 O141 1.273 . S
O141 C140 1.273 . S
O142 Zn133 1.977 . S
O142 C135 1.267 . S
C143 O144 1.160 . S
C143 O150 1.185 . S
O144 C143 1.160 . S
O145 Zn146 1.899 . S
O145 C153 1.284 . S
Zn146 O145 1.899 . S
Zn146 O147 2.032 . S
Zn146 O150 2.086 . S
Zn146 O155 1.977 . S
O147 Zn146 2.032 . S
O147 C151 1.278 . S
C148 O149 1.203 . S
C148 O155 1.267 . S
O149 C148 1.203 . S
O150 C143 1.185 . S
O150 Zn146 2.086 . S
C151 O147 1.278 . S
C151 O152 1.211 . S
O152 C151 1.211 . S
C153 O145 1.284 . S
C153 O154 1.273 . S
O154 C153 1.273 . S
O155 Zn146 1.977 . S
O155 C148 1.267 . S
C156 O157 1.160 . S
C156 O163 1.185 . S
O157 C156 1.160 . S
O158 Zn159 1.899 . S
O158 C166 1.284 . S
Zn159 O158 1.899 . S
Zn159 O160 2.032 1_554 S
Zn159 O163 2.086 . S
Zn159 O168 1.977 . S
O160 Zn159 2.032 1_556 S
O160 C164 1.278 . S
C161 O162 1.203 . S
C161 O168 1.267 . S
O162 C161 1.203 . S
O163 C156 1.185 . S
O163 Zn159 2.086 . S
C164 O160 1.278 . S
C164 O165 1.211 . S
O165 C164 1.211 . S
C166 O158 1.284 . S
C166 O167 1.273 . S
O167 C166 1.273 . S
O168 Zn159 1.977 . S
O168 C161 1.267 . S
C169 O170 1.160 . S
C169 O176 1.185 1_554 S
O170 C169 1.160 . S
O171 Zn172 1.899 . S
O171 C179 1.284 . S
Zn172 O171 1.899 . S
Zn172 O173 2.032 1_554 S
Zn172 O176 2.086 1_554 S
Zn172 O181 1.977 1_554 S
O173 Zn172 2.032 1_556 S
O173 C177 1.278 . S
C174 O175 1.203 1_556 S
C174 O181 1.267 . S
O175 C174 1.203 1_554 S
O176 C169 1.185 1_556 S
O176 Zn172 2.086 1_556 S
C177 O173 1.278 . S
C177 O178 1.211 . S
O178 C177 1.211 . S
C179 O171 1.284 . S
C179 O180 1.273 . S
O180 C179 1.273 . S
O181 Zn172 1.977 1_556 S
O181 C174 1.267 . S
C182 O183 1.160 . S
C182 O189 1.185 . S
O183 C182 1.160 . S
O184 Zn185 1.899 . S
O184 C192 1.284 1_455 S
Zn185 O184 1.899 . S
Zn185 O186 2.032 . S
Zn185 O189 2.086 . S
Zn185 O194 1.977 . S
O186 Zn185 2.032 . S
O186 C190 1.278 . S
C187 O188 1.203 . S
C187 O194 1.267 . S
O188 C187 1.203 . S
O189 C182 1.185 . S
O189 Zn185 2.086 . S
C190 O186 1.278 . S
C190 O191 1.211 . S
O191 C190 1.211 . S
C192 O184 1.284 1_655 S
C192 O193 1.273 . S
O193 C192 1.273 . S
O194 Zn185 1.977 . S
O194 C187 1.267 . S
C195 O196 1.160 . S
C195 O202 1.185 1_565 S
O196 C195 1.160 . S
O197 Zn198 1.899 . S
O197 C205 1.284 . S
Zn198 O197 1.899 . S
Zn198 O199 2.032 . S
Zn198 O202 2.086 1_565 S
Zn198 O207 1.977 1_565 S
O199 Zn198 2.032 . S
O199 C203 1.278 . S
C200 O201 1.203 1_545 S
C200 O207 1.267 . S
O201 C200 1.203 1_565 S
O202 C195 1.185 1_545 S
O202 Zn198 2.086 1_545 S
C203 O199 1.278 . S
C203 O204 1.211 . S
O204 C203 1.211 . S
C205 O197 1.284 . S
C205 O206 1.273 . S
O206 C205 1.273 . S
O207 Zn198 1.977 1_545 S
O207 C200 1.267 . S
C208 O209 1.160 . S
C208 O215 1.185 . S
O209 C208 1.160 . S
O210 Zn211 1.899 . S
O210 C218 1.284 . S
Zn211 O210 1.899 . S
Zn211 O212 2.032 . S
Zn211 O215 2.086 . S
Zn211 O220 1.977 1_545 S
O212 Zn211 2.032 . S
O212 C216 1.278 . S
C213 O214 1.203 . S
C213 O220 1.267 . S
O214 C213 1.203 . S
O215 C208 1.185 . S
O215 Zn211 2.086 . S
C216 O212 1.278 . S
C216 O217 1.211 1_545 S
O217 C216 1.211 1_565 S
C218 O210 1.284 . S
C218 O219 1.273 1_545 S
O219 C218 1.273 1_565 S
O220 Zn211 1.977 1_565 S
O220 C213 1.267 . S
C221 O222 1.160 . S
C221 O228 1.185 . S
O222 C221 1.160 . S
O223 Zn224 1.899 . S
O223 C231 1.284 . S
Zn224 O223 1.899 . S
Zn224 O225 2.032 . S
Zn224 O228 2.086 . S
Zn224 O233 1.977 . S
O225 Zn224 2.032 . S
O225 C229 1.278 . S
C226 O227 1.203 . S
C226 O233 1.267 . S
O227 C226 1.203 . S
O228 C221 1.185 . S
O228 Zn224 2.086 . S
C229 O225 1.278 . S
C229 O230 1.211 . S
O230 C229 1.211 . S
C231 O223 1.284 . S
C231 O232 1.273 . S
O232 C231 1.273 . S
O233 Zn224 1.977 . S
O233 C226 1.267 . S
C234 O235 1.160 . S
C234 O241 1.185 . S
O235 C234 1.160 . S
O236 Zn237 1.899 . S
O236 C244 1.284 . S
Zn237 O236 1.899 . S
Zn237 O238 2.032 . S
Zn237 O241 2.086 . S
Zn237 O246 1.977 . S
O238 Zn237 2.032 . S
O238 C242 1.278 . S
C239 O240 1.203 . S
C239 O246 1.267 . S
O240 C239 1.203 . S
O241 C234 1.185 . S
O241 Zn237 2.086 . S
C242 O238 1.278 . S
C242 O243 1.211 . S
O243 C242 1.211 . S
C244 O236 1.284 . S
C244 O245 1.273 . S
O245 C244 1.273 . S
O246 Zn237 1.977 . S
O246 C239 1.267 . S
C247 O248 1.160 . S
C247 O254 1.185 . S
O248 C247 1.160 . S
O249 Zn250 1.899 . S
O249 C257 1.284 . S
Zn250 O249 1.899 . S
Zn250 O251 2.032 . S
Zn250 O254 2.086 1_545 S
Zn250 O259 1.977 . S
O251 Zn250 2.032 . S
O251 C255 1.278 . S
C252 O253 1.203 . S
C252 O259 1.267 . S
O253 C252 1.203 . S
O254 C247 1.185 . S
O254 Zn250 2.086 1_565 S
C255 O251 1.278 . S
C255 O256 1.211 . S
O256 C255 1.211 . S
C257 O249 1.284 . S
C257 O258 1.273 . S
O258 C257 1.273 . S
O259 Zn250 1.977 . S
O259 C252 1.267 . S
C260 O261 1.160 . S
C260 O267 1.185 . S
O261 C260 1.160 . S
O262 Zn263 1.899 . S
O262 C270 1.284 . S
Zn263 O262 1.899 . S
Zn263 O264 2.032 1_554 S
Zn263 O267 2.086 . S
Zn263 O272 1.977 . S
O264 Zn263 2.032 1_556 S
O264 C268 1.278 . S
C265 O266 1.203 . S
C265 O272 1.267 . S
O266 C265 1.203 . S
O267 C260 1.185 . S
O267 Zn263 2.086 . S
C268 O264 1.278 . S
C268 O269 1.211 . S
O269 C268 1.211 . S
C270 O262 1.284 . S
C270 O271 1.273 . S
O271 C270 1.273 . S
O272 Zn263 1.977 . S
O272 C265 1.267 . S
C273 O274 1.160 . S
C273 O280 1.185 . S
O274 C273 1.160 . S
O275 Zn276 1.899 1_455 S
O275 C283 1.284 . S
Zn276 O275 1.899 1_655 S
Zn276 O277 2.032 1_655 S
Zn276 O280 2.086 . S
Zn276 O285 1.977 . S
O277 Zn276 2.032 1_455 S
O277 C281 1.278 . S
C278 O279 1.203 . S
C278 O285 1.267 . S
O279 C278 1.203 . S
O280 C273 1.185 . S
O280 Zn276 2.086 . S
C281 O277 1.278 . S
C281 O282 1.211 . S
O282 C281 1.211 . S
C283 O275 1.284 . S
C283 O284 1.273 . S
O284 C283 1.273 . S
O285 Zn276 1.977 . S
O285 C278 1.267 . S
C286 O287 1.160 . S
C286 O293 1.185 . S
O287 C286 1.160 . S
O288 Zn289 1.899 . S
O288 C296 1.284 . S
Zn289 O288 1.899 . S
Zn289 O290 2.032 . S
Zn289 O293 2.086 . S
Zn289 O298 1.977 . S
O290 Zn289 2.032 . S
O290 C294 1.278 . S
C291 O292 1.203 . S
C291 O298 1.267 . S
O292 C291 1.203 . S
O293 C286 1.185 . S
O293 Zn289 2.086 . S
C294 O290 1.278 . S
C294 O295 1.211 . S
O295 C294 1.211 . S
C296 O288 1.284 . S
C296 O297 1.273 . S
O297 C296 1.273 . S
O298 Zn289 1.977 . S
O298 C291 1.267 . S
C299 O300 1.160 . S
C299 O306 1.185 . S
O300 C299 1.160 . S
O301 Zn302 1.899 . S
O301 C309 1.284 . S
Zn302 O301 1.899 . S
Zn302 O303 2.032 . S
Zn302 O306 2.086 . S
Zn302 O311 1.977 . S
O303 Zn302 2.032 . S
O303 C307 1.278 . S
C304 O305 1.203 . S
C304 O311 1.267 . S
O305 C304 1.203 . S
O306 C299 1.185 . S
O306 Zn302 2.086 . S
C307 O303 1.278 . S
C307 O308 1.211 . S
O308 C307 1.211 . S
C309 O301 1.284 . S
C309 O310 1.273 . S
O310 C309 1.273 . S
O311 Zn302 1.977 . S
O311 C304 1.267 . S
Tb312 C322 2.825 1_455 S
Tb312 O323 2.347 1_556 S
Tb312 O326 2.366 1_556 S
Tb312 O331 2.418 . S
Tb312 O332 2.384 1_556 S
Tb312 O335 2.479 1_455 S
Tb312 O336 2.471 1_455 S
Eu313 O324 2.418 . S
Eu313 O325 2.384 . S
Eu313 O328 2.479 . S
Eu313 O329 2.471 . S
Eu313 O330 2.347 . S
Eu313 O333 2.366 . S
Eu313 C343 2.825 . S
C314 O330 1.259 1_556 S
C314 O331 1.265 . S
C315 O332 1.255 . S
C315 O333 1.265 . S
C316 C318 1.380 . S
C316 C319 1.374 . S
C316 C322 1.507 . S
C317 C318 1.384 . S
C317 C321 1.387 . S
C317 H344 0.930 . S
C318 C316 1.380 . S
C318 C317 1.384 . S
C318 H345 0.931 . S
C319 C316 1.374 . S
C319 C320 1.390 . S
C319 H346 0.930 . S
C320 C319 1.390 . S
C320 C321 1.391 . S
C320 H347 0.930 . S
C321 C317 1.387 . S
C321 C320 1.391 . S
C322 Tb312 2.825 1_655 S
C322 C316 1.507 . S
C322 O335 1.238 . S
C322 O336 1.247 . S
O323 Tb312 2.347 1_554 S
O323 C327 1.259 . S
O324 Eu313 2.418 . S
O324 C327 1.265 . S
O325 Eu313 2.384 . S
O325 C334 1.255 . S
O326 Tb312 2.366 1_554 S
O326 C334 1.265 . S
C327 O323 1.259 . S
C327 O324 1.265 . S
O328 Eu313 2.479 . S
O328 C343 1.238 . S
O329 Eu313 2.471 . S
O329 C343 1.247 . S
O330 Eu313 2.347 . S
O330 C314 1.259 1_554 S
O331 Tb312 2.418 . S
O331 C314 1.265 . S
O332 Tb312 2.384 1_554 S
O332 C315 1.255 . S
O333 Eu313 2.366 . S
O333 C315 1.265 . S
C334 O325 1.255 . S
C334 O326 1.265 . S
O335 Tb312 2.479 1_655 S
O335 C322 1.238 . S
O336 Tb312 2.471 1_655 S
O336 C322 1.247 . S
C337 C340 1.380 . S
C337 C341 1.374 . S
C337 C343 1.507 . S
C338 C339 1.387 . S
C338 C342 1.391 . S
C339 C338 1.387 . S
C339 C340 1.384 . S
C339 H348 0.930 . S
C340 C337 1.380 . S
C340 C339 1.384 . S
C340 H349 0.931 . S
C341 C337 1.374 . S
C341 C342 1.390 . S
C341 H350 0.930 . S
C342 C338 1.391 . S
C342 C341 1.390 . S
C342 H351 0.930 . S
C343 Eu313 2.825 . S
C343 O328 1.238 . S
C343 O329 1.247 . S
C343 C337 1.507 . S
H344 C317 0.930 . S
H345 C318 0.931 . S
H346 C319 0.930 . S
H347 C320 0.930 . S
H348 C339 0.930 . S
H349 C340 0.931 . S
H350 C341 0.930 . S
H351 C342 0.930 . S
Tb352 C362 2.825 . S
Tb352 O363 2.347 . S
Tb352 O366 2.366 . S
Tb352 O371 2.418 . S
Tb352 O372 2.384 . S
Tb352 O375 2.479 . S
Tb352 O376 2.471 . S
Eu353 O364 2.418 . S
Eu353 O365 2.384 . S
Eu353 O368 2.479 . S
Eu353 O369 2.471 . S
Eu353 O370 2.347 . S
Eu353 O373 2.366 . S
Eu353 C383 2.825 . S
C354 O370 1.259 . S
C354 O371 1.265 . S
C355 O372 1.255 . S
C355 O373 1.265 . S
C356 C358 1.380 1_565 S
C356 C359 1.374 . S
C356 C362 1.507 . S
C357 C358 1.384 . S
C357 C361 1.387 . S
C357 H384 0.930 . S
C358 C356 1.380 1_545 S
C358 C357 1.384 . S
C358 H385 0.931 . S
C359 C356 1.374 . S
C359 C360 1.390 1_565 S
C359 H386 0.930 . S
C360 C359 1.390 1_545 S
C360 C361 1.391 . S
C360 H387 0.930 . S
C361 C357 1.387 . S
C361 C360 1.391 . S
C362 Tb352 2.825 . S
C362 C356 1.507 . S
C362 O375 1.238 . S
C362 O376 1.247 . S
O363 Tb352 2.347 . S
O363 C367 1.259 . S
O364 Eu353 2.418 . S
O364 C367 1.265 . S
O365 Eu353 2.384 . S
O365 C374 1.255 . S
O366 Tb352 2.366 . S
O366 C374 1.265 . S
C367 O363 1.259 . S
C367 O364 1.265 . S
O368 Eu353 2.479 . S
O368 C383 1.238 . S
O369 Eu353 2.471 . S
O369 C383 1.247 . S
O370 Eu353 2.347 . S
O370 C354 1.259 . S
O371 Tb352 2.418 . S
O371 C354 1.265 . S
O372 Tb352 2.384 . S
O372 C355 1.255 . S
O373 Eu353 2.366 . S
O373 C355 1.265 . S
C374 O365 1.255 . S
C374 O366 1.265 . S
O375 Tb352 2.479 . S
O375 C362 1.238 . S
O376 Tb352 2.471 . S
O376 C362 1.247 . S
C377 C380 1.380 . S
C377 C381 1.374 . S
C377 C383 1.507 . S
C378 C379 1.387 . S
C378 C382 1.391 . S
C379 C378 1.387 . S
C379 C380 1.384 . S
C379 H388 0.930 . S
C380 C377 1.380 . S
C380 C379 1.384 . S
C380 H389 0.931 . S
C381 C377 1.374 . S
C381 C382 1.390 . S
C381 H390 0.930 . S
C382 C378 1.391 . S
C382 C381 1.390 . S
C382 H391 0.930 . S
C383 Eu353 2.825 . S
C383 O368 1.238 . S
C383 O369 1.247 . S
C383 C377 1.507 . S
H384 C357 0.930 . S
H385 C358 0.931 . S
H386 C359 0.930 . S
H387 C360 0.930 . S
H388 C379 0.930 . S
H389 C380 0.931 . S
H390 C381 0.930 . S
H391 C382 0.930 . S
Tb392 C402 2.825 1_545 S
Tb392 O403 2.347 . S
Tb392 O406 2.366 . S
Tb392 O411 2.418 . S
Tb392 O412 2.384 . S
Tb392 O415 2.479 1_545 S
Tb392 O416 2.471 1_545 S
Eu393 O404 2.418 . S
Eu393 O405 2.384 . S
Eu393 O408 2.479 . S
Eu393 O409 2.471 . S
Eu393 O410 2.347 . S
Eu393 O413 2.366 . S
Eu393 C423 2.825 . S
C394 O410 1.259 . S
C394 O411 1.265 . S
C395 O412 1.255 . S
C395 O413 1.265 . S
C396 C398 1.380 . S
C396 C399 1.374 . S
C396 C402 1.507 . S
C397 C398 1.384 . S
C397 C401 1.387 . S
C397 H424 0.930 . S
C398 C396 1.380 . S
C398 C397 1.384 . S
C398 H425 0.931 . S
C399 C396 1.374 . S
C399 C400 1.390 . S
C399 H426 0.930 . S
C400 C399 1.390 . S
C400 C401 1.391 . S
C400 H427 0.930 . S
C401 C397 1.387 . S
C401 C400 1.391 . S
C402 Tb392 2.825 1_565 S
C402 C396 1.507 . S
C402 O415 1.238 . S
C402 O416 1.247 . S
O403 Tb392 2.347 . S
O403 C407 1.259 . S
O404 Eu393 2.418 . S
O404 C407 1.265 . S
O405 Eu393 2.384 . S
O405 C414 1.255 . S
O406 Tb392 2.366 . S
O406 C414 1.265 . S
C407 O403 1.259 . S
C407 O404 1.265 . S
O408 Eu393 2.479 . S
O408 C423 1.238 . S
O409 Eu393 2.471 . S
O409 C423 1.247 . S
O410 Eu393 2.347 . S
O410 C394 1.259 . S
O411 Tb392 2.418 . S
O411 C394 1.265 . S
O412 Tb392 2.384 . S
O412 C395 1.255 . S
O413 Eu393 2.366 . S
O413 C395 1.265 . S
C414 O405 1.255 . S
C414 O406 1.265 . S
O415 Tb392 2.479 1_565 S
O415 C402 1.238 . S
O416 Tb392 2.471 1_565 S
O416 C402 1.247 . S
C417 C420 1.380 . S
C417 C421 1.374 . S
C417 C423 1.507 . S
C418 C419 1.387 . S
C418 C422 1.391 . S
C419 C418 1.387 . S
C419 C420 1.384 . S
C419 H428 0.930 . S
C420 C417 1.380 . S
C420 C419 1.384 . S
C420 H429 0.931 . S
C421 C417 1.374 . S
C421 C422 1.390 . S
C421 H430 0.930 . S
C422 C418 1.391 . S
C422 C421 1.390 . S
C422 H431 0.930 . S
C423 Eu393 2.825 . S
C423 O408 1.238 . S
C423 O409 1.247 . S
C423 C417 1.507 . S
H424 C397 0.930 . S
H425 C398 0.931 . S
H426 C399 0.930 . S
H427 C400 0.930 . S
H428 C419 0.930 . S
H429 C420 0.931 . S
H430 C421 0.930 . S
H431 C422 0.930 . S
Tb432 C442 2.825 . S
Tb432 O443 2.347 . S
Tb432 O446 2.366 . S
Tb432 O451 2.418 . S
Tb432 O452 2.384 . S
Tb432 O455 2.479 . S
Tb432 O456 2.471 . S
Eu433 O444 2.418 . S
Eu433 O445 2.384 . S
Eu433 O448 2.479 . S
Eu433 O449 2.471 . S
Eu433 O450 2.347 . S
Eu433 O453 2.366 . S
Eu433 C463 2.825 . S
C434 O450 1.259 . S
C434 O451 1.265 . S
C435 O452 1.255 . S
C435 O453 1.265 . S
C436 C438 1.380 . S
C436 C439 1.374 . S
C436 C442 1.507 . S
C437 C438 1.384 . S
C437 C441 1.387 . S
C437 H464 0.930 . S
C438 C436 1.380 . S
C438 C437 1.384 . S
C438 H465 0.931 . S
C439 C436 1.374 . S
C439 C440 1.390 . S
C439 H466 0.930 . S
C440 C439 1.390 . S
C440 C441 1.391 . S
C440 H467 0.930 . S
C441 C437 1.387 . S
C441 C440 1.391 . S
C442 Tb432 2.825 . S
C442 C436 1.507 . S
C442 O455 1.238 . S
C442 O456 1.247 . S
O443 Tb432 2.347 . S
O443 C447 1.259 . S
O444 Eu433 2.418 . S
O444 C447 1.265 . S
O445 Eu433 2.384 . S
O445 C454 1.255 . S
O446 Tb432 2.366 . S
O446 C454 1.265 . S
C447 O443 1.259 . S
C447 O444 1.265 . S
O448 Eu433 2.479 . S
O448 C463 1.238 . S
O449 Eu433 2.471 . S
O449 C463 1.247 . S
O450 Eu433 2.347 . S
O450 C434 1.259 . S
O451 Tb432 2.418 . S
O451 C434 1.265 . S
O452 Tb432 2.384 . S
O452 C435 1.255 . S
O453 Eu433 2.366 . S
O453 C435 1.265 . S
C454 O445 1.255 . S
C454 O446 1.265 . S
O455 Tb432 2.479 . S
O455 C442 1.238 . S
O456 Tb432 2.471 . S
O456 C442 1.247 . S
C457 C460 1.380 . S
C457 C461 1.374 . S
C457 C463 1.507 . S
C458 C459 1.387 . S
C458 C462 1.391 . S
C459 C458 1.387 . S
C459 C460 1.384 . S
C459 H468 0.930 . S
C460 C457 1.380 . S
C460 C459 1.384 . S
C460 H469 0.931 . S
C461 C457 1.374 . S
C461 C462 1.390 . S
C461 H470 0.930 . S
C462 C458 1.391 . S
C462 C461 1.390 . S
C462 H471 0.930 . S
C463 Eu433 2.825 . S
C463 O448 1.238 . S
C463 O449 1.247 . S
C463 C457 1.507 . S
H464 C437 0.930 . S
H465 C438 0.931 . S
H466 C439 0.930 . S
H467 C440 0.930 . S
H468 C459 0.930 . S
H469 C460 0.931 . S
H470 C461 0.930 . S
H471 C462 0.930 . S
Tb472 C482 2.825 . S
Tb472 O483 2.347 1_455 S
Tb472 O486 2.366 . S
Tb472 O491 2.418 . S
Tb472 O492 2.384 . S
Tb472 O495 2.479 . S
Tb472 O496 2.471 1_455 S
Eu473 O484 2.418 1_455 S
Eu473 O485 2.384 . S
Eu473 O488 2.479 . S
Eu473 O489 2.471 . S
Eu473 O490 2.347 . S
Eu473 O493 2.366 . S
Eu473 C503 2.825 . S
C474 O490 1.259 . S
C474 O491 1.265 . S
C475 O492 1.255 . S
C475 O493 1.265 . S
C476 C478 1.380 1_655 S
C476 C479 1.374 . S
C476 C482 1.507 1_655 S
C477 C478 1.384 1_655 S
C477 C481 1.387 . S
C477 H504 0.930 . S
C478 C476 1.380 1_455 S
C478 C477 1.384 1_455 S
C478 H505 0.931 . S
C479 C476 1.374 . S
C479 C480 1.390 . S
C479 H506 0.930 . S
C480 C479 1.390 . S
C480 C481 1.391 . S
C480 H507 0.930 . S
C481 C477 1.387 . S
C481 C480 1.391 . S
C482 Tb472 2.825 . S
C482 C476 1.507 1_455 S
C482 O495 1.238 . S
C482 O496 1.247 1_455 S
O483 Tb472 2.347 1_655 S
O483 C487 1.259 . S
O484 Eu473 2.418 1_655 S
O484 C487 1.265 . S
O485 Eu473 2.384 . S
O485 C494 1.255 . S
O486 Tb472 2.366 . S
O486 C494 1.265 . S
C487 O483 1.259 . S
C487 O484 1.265 . S
O488 Eu473 2.479 . S
O488 C503 1.238 . S
O489 Eu473 2.471 . S
O489 C503 1.247 . S
O490 Eu473 2.347 . S
O490 C474 1.259 . S
O491 Tb472 2.418 . S
O491 C474 1.265 . S
O492 Tb472 2.384 . S
O492 C475 1.255 . S
O493 Eu473 2.366 . S
O493 C475 1.265 . S
C494 O485 1.255 . S
C494 O486 1.265 . S
O495 Tb472 2.479 . S
O495 C482 1.238 . S
O496 Tb472 2.471 1_655 S
O496 C482 1.247 1_655 S
C497 C500 1.380 . S
C497 C501 1.374 . S
C497 C503 1.507 . S
C498 C499 1.387 . S
C498 C502 1.391 . S
C499 C498 1.387 . S
C499 C500 1.384 . S
C499 H508 0.930 . S
C500 C497 1.380 . S
C500 C499 1.384 . S
C500 H509 0.931 . S
C501 C497 1.374 . S
C501 C502 1.390 . S
C501 H510 0.930 . S
C502 C498 1.391 . S
C502 C501 1.390 . S
C502 H511 0.930 . S
C503 Eu473 2.825 . S
C503 O488 1.238 . S
C503 O489 1.247 . S
C503 C497 1.507 . S
H504 C477 0.930 . S
H505 C478 0.931 . S
H506 C479 0.930 . S
H507 C480 0.930 . S
H508 C499 0.930 . S
H509 C500 0.931 . S
H510 C501 0.930 . S
H511 C502 0.930 . S
Tb512 C522 2.825 . S
Tb512 O523 2.347 . S
Tb512 O526 2.366 . S
Tb512 O531 2.418 . S
Tb512 O532 2.384 . S
Tb512 O535 2.479 . S
Tb512 O536 2.471 . S
Eu513 O524 2.418 . S
Eu513 O525 2.384 . S
Eu513 O528 2.479 . S
Eu513 O529 2.471 . S
Eu513 O530 2.347 . S
Eu513 O533 2.366 . S
Eu513 C543 2.825 . S
C514 O530 1.259 . S
C514 O531 1.265 . S
C515 O532 1.255 . S
C515 O533 1.265 . S
C516 C518 1.380 . S
C516 C519 1.374 . S
C516 C522 1.507 . S
C517 C518 1.384 . S
C517 C521 1.387 . S
C517 H544 0.930 . S
C518 C516 1.380 . S
C518 C517 1.384 . S
C518 H545 0.931 . S
C519 C516 1.374 . S
C519 C520 1.390 . S
C519 H546 0.930 . S
C520 C519 1.390 . S
C520 C521 1.391 . S
C520 H547 0.930 . S
C521 C517 1.387 . S
C521 C520 1.391 . S
C522 Tb512 2.825 . S
C522 C516 1.507 . S
C522 O535 1.238 . S
C522 O536 1.247 . S
O523 Tb512 2.347 . S
O523 C527 1.259 . S
O524 Eu513 2.418 . S
O524 C527 1.265 . S
O525 Eu513 2.384 . S
O525 C534 1.255 . S
O526 Tb512 2.366 . S
O526 C534 1.265 . S
C527 O523 1.259 . S
C527 O524 1.265 . S
O528 Eu513 2.479 . S
O528 C543 1.238 . S
O529 Eu513 2.471 . S
O529 C543 1.247 . S
O530 Eu513 2.347 . S
O530 C514 1.259 . S
O531 Tb512 2.418 . S
O531 C514 1.265 . S
O532 Tb512 2.384 . S
O532 C515 1.255 . S
O533 Eu513 2.366 . S
O533 C515 1.265 . S
C534 O525 1.255 . S
C534 O526 1.265 . S
O535 Tb512 2.479 . S
O535 C522 1.238 . S
O536 Tb512 2.471 . S
O536 C522 1.247 . S
C537 C540 1.380 1_565 S
C537 C541 1.374 1_565 S
C537 C543 1.507 . S
C538 C539 1.387 . S
C538 C542 1.391 . S
C539 C538 1.387 . S
C539 C540 1.384 . S
C539 H548 0.930 . S
C540 C537 1.380 1_545 S
C540 C539 1.384 . S
C540 H549 0.931 . S
C541 C537 1.374 1_545 S
C541 C542 1.390 . S
C541 H550 0.930 1_545 S
C542 C538 1.391 . S
C542 C541 1.390 . S
C542 H551 0.930 . S
C543 Eu513 2.825 . S
C543 O528 1.238 . S
C543 O529 1.247 . S
C543 C537 1.507 . S
H544 C517 0.930 . S
H545 C518 0.931 . S
H546 C519 0.930 . S
H547 C520 0.930 . S
H548 C539 0.930 . S
H549 C540 0.931 . S
H550 C541 0.930 1_565 S
H551 C542 0.930 . S
Tb552 C562 2.825 . S
Tb552 O563 2.347 . S
Tb552 O566 2.366 . S
Tb552 O571 2.418 . S
Tb552 O572 2.384 . S
Tb552 O575 2.479 . S
Tb552 O576 2.471 . S
Eu553 O564 2.418 1_556 S
Eu553 O565 2.384 1_556 S
Eu553 O568 2.479 . S
Eu553 O569 2.471 . S
Eu553 O570 2.347 1_556 S
Eu553 O573 2.366 . S
Eu553 C583 2.825 . S
C554 O570 1.259 . S
C554 O571 1.265 . S
C555 O572 1.255 . S
C555 O573 1.265 1_554 S
C556 C558 1.380 . S
C556 C559 1.374 . S
C556 C562 1.507 . S
C557 C558 1.384 . S
C557 C561 1.387 . S
C557 H584 0.930 . S
C558 C556 1.380 . S
C558 C557 1.384 . S
C558 H585 0.931 . S
C559 C556 1.374 . S
C559 C560 1.390 . S
C559 H586 0.930 . S
C560 C559 1.390 . S
C560 C561 1.391 . S
C560 H587 0.930 . S
C561 C557 1.387 . S
C561 C560 1.391 . S
C562 Tb552 2.825 . S
C562 C556 1.507 . S
C562 O575 1.238 . S
C562 O576 1.247 . S
O563 Tb552 2.347 . S
O563 C567 1.259 . S
O564 Eu553 2.418 1_554 S
O564 C567 1.265 . S
O565 Eu553 2.384 1_554 S
O565 C574 1.255 . S
O566 Tb552 2.366 . S
O566 C574 1.265 . S
C567 O563 1.259 . S
C567 O564 1.265 . S
O568 Eu553 2.479 . S
O568 C583 1.238 . S
O569 Eu553 2.471 . S
O569 C583 1.247 . S
O570 Eu553 2.347 1_554 S
O570 C554 1.259 . S
O571 Tb552 2.418 . S
O571 C554 1.265 . S
O572 Tb552 2.384 . S
O572 C555 1.255 . S
O573 Eu553 2.366 . S
O573 C555 1.265 1_556 S
C574 O565 1.255 . S
C574 O566 1.265 . S
O575 Tb552 2.479 . S
O575 C562 1.238 . S
O576 Tb552 2.471 . S
O576 C562 1.247 . S
C577 C580 1.380 . S
C577 C581 1.374 . S
C577 C583 1.507 . S
C578 C579 1.387 . S
C578 C582 1.391 . S
C579 C578 1.387 . S
C579 C580 1.384 . S
C579 H588 0.930 . S
C580 C577 1.380 . S
C580 C579 1.384 . S
C580 H589 0.931 . S
C581 C577 1.374 . S
C581 C582 1.390 . S
C581 H590 0.930 . S
C582 C578 1.391 . S
C582 C581 1.390 . S
C582 H591 0.930 . S
C583 Eu553 2.825 . S
C583 O568 1.238 . S
C583 O569 1.247 . S
C583 C577 1.507 . S
H584 C557 0.930 . S
H585 C558 0.931 . S
H586 C559 0.930 . S
H587 C560 0.930 . S
H588 C579 0.930 . S
H589 C580 0.931 . S
H590 C581 0.930 . S
H591 C582 0.930 . S
Tb592 C602 2.825 . S
Tb592 O603 2.347 . S
Tb592 O606 2.366 . S
Tb592 O611 2.418 . S
Tb592 O612 2.384 . S
Tb592 O615 2.479 . S
Tb592 O616 2.471 . S
Eu593 O604 2.418 . S
Eu593 O605 2.384 . S
Eu593 O608 2.479 . S
Eu593 O609 2.471 . S
Eu593 O610 2.347 . S
Eu593 O613 2.366 . S
Eu593 C623 2.825 . S
C594 O610 1.259 . S
C594 O611 1.265 . S
C595 O612 1.255 . S
C595 O613 1.265 . S
C596 C598 1.380 . S
C596 C599 1.374 . S
C596 C602 1.507 . S
C597 C598 1.384 . S
C597 C601 1.387 . S
C597 H624 0.930 . S
C598 C596 1.380 . S
C598 C597 1.384 . S
C598 H625 0.931 . S
C599 C596 1.374 . S
C599 C600 1.390 . S
C599 H626 0.930 . S
C600 C599 1.390 . S
C600 C601 1.391 . S
C600 H627 0.930 . S
C601 C597 1.387 . S
C601 C600 1.391 . S
C602 Tb592 2.825 . S
C602 C596 1.507 . S
C602 O615 1.238 . S
C602 O616 1.247 . S
O603 Tb592 2.347 . S
O603 C607 1.259 . S
O604 Eu593 2.418 . S
O604 C607 1.265 . S
O605 Eu593 2.384 . S
O605 C614 1.255 . S
O606 Tb592 2.366 . S
O606 C614 1.265 . S
C607 O603 1.259 . S
C607 O604 1.265 . S
O608 Eu593 2.479 . S
O608 C623 1.238 . S
O609 Eu593 2.471 . S
O609 C623 1.247 . S
O610 Eu593 2.347 . S
O610 C594 1.259 . S
O611 Tb592 2.418 . S
O611 C594 1.265 . S
O612 Tb592 2.384 . S
O612 C595 1.255 . S
O613 Eu593 2.366 . S
O613 C595 1.265 . S
C614 O605 1.255 . S
C614 O606 1.265 . S
O615 Tb592 2.479 . S
O615 C602 1.238 . S
O616 Tb592 2.471 . S
O616 C602 1.247 . S
C617 C620 1.380 . S
C617 C621 1.374 . S
C617 C623 1.507 . S
C618 C619 1.387 . S
C618 C622 1.391 . S
C619 C618 1.387 . S
C619 C620 1.384 . S
C619 H628 0.930 . S
C620 C617 1.380 . S
C620 C619 1.384 . S
C620 H629 0.931 . S
C621 C617 1.374 . S
C621 C622 1.390 . S
C621 H630 0.930 . S
C622 C618 1.391 . S
C622 C621 1.390 . S
C622 H631 0.930 . S
C623 Eu593 2.825 . S
C623 O608 1.238 . S
C623 O609 1.247 . S
C623 C617 1.507 . S
H624 C597 0.930 . S
H625 C598 0.931 . S
H626 C599 0.930 . S
H627 C600 0.930 . S
H628 C619 0.930 . S
H629 C620 0.931 . S
H630 C621 0.930 . S
H631 C622 0.930 . S
Tb632 C642 2.825 . S
Tb632 O643 2.347 1_556 S
Tb632 O646 2.366 . S
Tb632 O651 2.418 . S
Tb632 O652 2.384 1_556 S
Tb632 O655 2.479 . S
Tb632 O656 2.471 . S
Eu633 O644 2.418 . S
Eu633 O645 2.384 . S
Eu633 O648 2.479 . S
Eu633 O649 2.471 . S
Eu633 O650 2.347 . S
Eu633 O653 2.366 . S
Eu633 C663 2.825 . S
C634 O650 1.259 . S
C634 O651 1.265 1_554 S
C635 O652 1.255 . S
C635 O653 1.265 . S
C636 C638 1.380 . S
C636 C639 1.374 . S
C636 C642 1.507 . S
C637 C638 1.384 . S
C637 C641 1.387 . S
C637 H664 0.930 . S
C638 C636 1.380 . S
C638 C637 1.384 . S
C638 H665 0.931 . S
C639 C636 1.374 . S
C639 C640 1.390 . S
C639 H666 0.930 . S
C640 C639 1.390 . S
C640 C641 1.391 . S
C640 H667 0.930 . S
C641 C637 1.387 . S
C641 C640 1.391 . S
C642 Tb632 2.825 . S
C642 C636 1.507 . S
C642 O655 1.238 . S
C642 O656 1.247 . S
O643 Tb632 2.347 1_554 S
O643 C647 1.259 . S
O644 Eu633 2.418 . S
O644 C647 1.265 . S
O645 Eu633 2.384 . S
O645 C654 1.255 1_554 S
O646 Tb632 2.366 . S
O646 C654 1.265 . S
C647 O643 1.259 . S
C647 O644 1.265 . S
O648 Eu633 2.479 . S
O648 C663 1.238 . S
O649 Eu633 2.471 . S
O649 C663 1.247 . S
O650 Eu633 2.347 . S
O650 C634 1.259 . S
O651 Tb632 2.418 . S
O651 C634 1.265 1_556 S
O652 Tb632 2.384 1_554 S
O652 C635 1.255 . S
O653 Eu633 2.366 . S
O653 C635 1.265 . S
C654 O645 1.255 1_556 S
C654 O646 1.265 . S
O655 Tb632 2.479 . S
O655 C642 1.238 . S
O656 Tb632 2.471 . S
O656 C642 1.247 . S
C657 C660 1.380 . S
C657 C661 1.374 . S
C657 C663 1.507 . S
C658 C659 1.387 . S
C658 C662 1.391 . S
C659 C658 1.387 . S
C659 C660 1.384 . S
C659 H668 0.930 . S
C660 C657 1.380 . S
C660 C659 1.384 . S
C660 H669 0.931 . S
C661 C657 1.374 . S
C661 C662 1.390 . S
C661 H670 0.930 . S
C662 C658 1.391 . S
C662 C661 1.390 . S
C662 H671 0.930 . S
C663 Eu633 2.825 . S
C663 O648 1.238 . S
C663 O649 1.247 . S
C663 C657 1.507 . S
H664 C637 0.930 . S
H665 C638 0.931 . S
H666 C639 0.930 . S
H667 C640 0.930 . S
H668 C659 0.930 . S
H669 C660 0.931 . S
H670 C661 0.930 . S
H671 C662 0.930 . S
Tb672 C682 2.825 . S
Tb672 O683 2.347 . S
Tb672 O686 2.366 . S
Tb672 O691 2.418 . S
Tb672 O692 2.384 . S
Tb672 O695 2.479 . S
Tb672 O696 2.471 . S
Eu673 O684 2.418 . S
Eu673 O685 2.384 . S
Eu673 O688 2.479 . S
Eu673 O689 2.471 . S
Eu673 O690 2.347 . S
Eu673 O693 2.366 . S
Eu673 C703 2.825 . S
C674 O690 1.259 . S
C674 O691 1.265 . S
C675 O692 1.255 . S
C675 O693 1.265 . S
C676 C678 1.380 . S
C676 C679 1.374 . S
C676 C682 1.507 . S
C677 C678 1.384 . S
C677 C681 1.387 . S
C677 H704 0.930 . S
C678 C676 1.380 . S
C678 C677 1.384 . S
C678 H705 0.931 . S
C679 C676 1.374 . S
C679 C680 1.390 . S
C679 H706 0.930 . S
C680 C679 1.390 . S
C680 C681 1.391 . S
C680 H707 0.930 . S
C681 C677 1.387 . S
C681 C680 1.391 . S
C682 Tb672 2.825 . S
C682 C676 1.507 . S
C682 O695 1.238 . S
C682 O696 1.247 . S
O683 Tb672 2.347 . S
O683 C687 1.259 . S
O684 Eu673 2.418 . S
O684 C687 1.265 . S
O685 Eu673 2.384 . S
O685 C694 1.255 . S
O686 Tb672 2.366 . S
O686 C694 1.265 . S
C687 O683 1.259 . S
C687 O684 1.265 . S
O688 Eu673 2.479 . S
O688 C703 1.238 . S
O689 Eu673 2.471 . S
O689 C703 1.247 . S
O690 Eu673 2.347 . S
O690 C674 1.259 . S
O691 Tb672 2.418 . S
O691 C674 1.265 . S
O692 Tb672 2.384 . S
O692 C675 1.255 . S
O693 Eu673 2.366 . S
O693 C675 1.265 . S
C694 O685 1.255 . S
C694 O686 1.265 . S
O695 Tb672 2.479 . S
O695 C682 1.238 . S
O696 Tb672 2.471 . S
O696 C682 1.247 . S
C697 C700 1.380 . S
C697 C701 1.374 . S
C697 C703 1.507 . S
C698 C699 1.387 . S
C698 C702 1.391 . S
C699 C698 1.387 . S
C699 C700 1.384 . S
C699 H708 0.930 . S
C700 C697 1.380 . S
C700 C699 1.384 . S
C700 H709 0.931 . S
C701 C697 1.374 . S
C701 C702 1.390 . S
C701 H710 0.930 . S
C702 C698 1.391 . S
C702 C701 1.390 . S
C702 H711 0.930 . S
C703 Eu673 2.825 . S
C703 O688 1.238 . S
C703 O689 1.247 . S
C703 C697 1.507 . S
H704 C677 0.930 . S
H705 C678 0.931 . S
H706 C679 0.930 . S
H707 C680 0.930 . S
H708 C699 0.930 . S
H709 C700 0.931 . S
H710 C701 0.930 . S
H711 C702 0.930 . S
Tb712 C722 2.825 . S
Tb712 O723 2.347 . S
Tb712 O726 2.366 . S
Tb712 O731 2.418 . S
Tb712 O732 2.384 . S
Tb712 O735 2.479 . S
Tb712 O736 2.471 . S
Eu713 O724 2.418 . S
Eu713 O725 2.384 1_455 S
Eu713 O728 2.479 . S
Eu713 O729 2.471 . S
Eu713 O730 2.347 . S
Eu713 O733 2.366 . S
Eu713 C743 2.825 . S
C714 O730 1.259 . S
C714 O731 1.265 . S
C715 O732 1.255 . S
C715 O733 1.265 . S
C716 C718 1.380 . S
C716 C719 1.374 . S
C716 C722 1.507 . S
C717 C718 1.384 . S
C717 C721 1.387 . S
C717 H744 0.930 . S
C718 C716 1.380 . S
C718 C717 1.384 . S
C718 H745 0.931 . S
C719 C716 1.374 . S
C719 C720 1.390 . S
C719 H746 0.930 . S
C720 C719 1.390 . S
C720 C721 1.391 . S
C720 H747 0.930 1_455 S
C721 C717 1.387 . S
C721 C720 1.391 . S
C722 Tb712 2.825 . S
C722 C716 1.507 . S
C722 O735 1.238 . S
C722 O736 1.247 . S
O723 Tb712 2.347 . S
O723 C727 1.259 . S
O724 Eu713 2.418 . S
O724 C727 1.265 . S
O725 Eu713 2.384 1_655 S
O725 C734 1.255 . S
O726 Tb712 2.366 . S
O726 C734 1.265 1_455 S
C727 O723 1.259 . S
C727 O724 1.265 . S
O728 Eu713 2.479 . S
O728 C743 1.238 . S
O729 Eu713 2.471 . S
O729 C743 1.247 . S
O730 Eu713 2.347 . S
O730 C714 1.259 . S
O731 Tb712 2.418 . S
O731 C714 1.265 . S
O732 Tb712 2.384 . S
O732 C715 1.255 . S
O733 Eu713 2.366 . S
O733 C715 1.265 . S
C734 O725 1.255 . S
C734 O726 1.265 1_655 S
O735 Tb712 2.479 . S
O735 C722 1.238 . S
O736 Tb712 2.471 . S
O736 C722 1.247 . S
C737 C740 1.380 . S
C737 C741 1.374 . S
C737 C743 1.507 . S
C738 C739 1.387 . S
C738 C742 1.391 . S
C739 C738 1.387 . S
C739 C740 1.384 . S
C739 H748 0.930 . S
C740 C737 1.380 . S
C740 C739 1.384 . S
C740 H749 0.931 . S
C741 C737 1.374 . S
C741 C742 1.390 . S
C741 H750 0.930 . S
C742 C738 1.391 . S
C742 C741 1.390 . S
C742 H751 0.930 . S
C743 Eu713 2.825 . S
C743 O728 1.238 . S
C743 O729 1.247 . S
C743 C737 1.507 . S
H744 C717 0.930 . S
H745 C718 0.931 . S
H746 C719 0.930 . S
H747 C720 0.930 1_655 S
H748 C739 0.930 . S
H749 C740 0.931 . S
H750 C741 0.930 . S
H751 C742 0.930 . S
Tb752 C762 2.825 . S
Tb752 O763 2.347 . S
Tb752 O766 2.366 . S
Tb752 O771 2.418 . S
Tb752 O772 2.384 . S
Tb752 O775 2.479 . S
Tb752 O776 2.471 . S
Eu753 O764 2.418 . S
Eu753 O765 2.384 . S
Eu753 O768 2.479 . S
Eu753 O769 2.471 . S
Eu753 O770 2.347 . S
Eu753 O773 2.366 . S
Eu753 C783 2.825 . S
C754 O770 1.259 . S
C754 O771 1.265 . S
C755 O772 1.255 . S
C755 O773 1.265 . S
C756 C758 1.380 . S
C756 C759 1.374 . S
C756 C762 1.507 . S
C757 C758 1.384 . S
C757 C761 1.387 . S
C757 H784 0.930 . S
C758 C756 1.380 . S
C758 C757 1.384 . S
C758 H785 0.931 . S
C759 C756 1.374 . S
C759 C760 1.390 . S
C759 H786 0.930 . S
C760 C759 1.390 . S
C760 C761 1.391 . S
C760 H787 0.930 . S
C761 C757 1.387 . S
C761 C760 1.391 . S
C762 Tb752 2.825 . S
C762 C756 1.507 . S
C762 O775 1.238 . S
C762 O776 1.247 . S
O763 Tb752 2.347 . S
O763 C767 1.259 . S
O764 Eu753 2.418 . S
O764 C767 1.265 . S
O765 Eu753 2.384 . S
O765 C774 1.255 . S
O766 Tb752 2.366 . S
O766 C774 1.265 . S
C767 O763 1.259 . S
C767 O764 1.265 . S
O768 Eu753 2.479 . S
O768 C783 1.238 . S
O769 Eu753 2.471 . S
O769 C783 1.247 . S
O770 Eu753 2.347 . S
O770 C754 1.259 . S
O771 Tb752 2.418 . S
O771 C754 1.265 . S
O772 Tb752 2.384 . S
O772 C755 1.255 . S
O773 Eu753 2.366 . S
O773 C755 1.265 . S
C774 O765 1.255 . S
C774 O766 1.265 . S
O775 Tb752 2.479 . S
O775 C762 1.238 . S
O776 Tb752 2.471 . S
O776 C762 1.247 . S
C777 C780 1.380 1_655 S
C777 C781 1.374 . S
C777 C783 1.507 . S
C778 C779 1.387 . S
C778 C782 1.391 . S
C779 C778 1.387 . S
C779 C780 1.384 . S
C779 H788 0.930 . S
C780 C777 1.380 1_455 S
C780 C779 1.384 . S
C780 H789 0.931 . S
C781 C777 1.374 . S
C781 C782 1.390 1_655 S
C781 H790 0.930 . S
C782 C778 1.391 . S
C782 C781 1.390 1_455 S
C782 H791 0.930 . S
C783 Eu753 2.825 . S
C783 O768 1.238 . S
C783 O769 1.247 . S
C783 C777 1.507 . S
H784 C757 0.930 . S
H785 C758 0.931 . S
H786 C759 0.930 . S
H787 C760 0.930 . S
H788 C779 0.930 . S
H789 C780 0.931 . S
H790 C781 0.930 . S
H791 C782 0.930 . S
Tb792 C802 2.825 . S
Tb792 O803 2.347 . S
Tb792 O806 2.366 . S
Tb792 O811 2.418 . S
Tb792 O812 2.384 . S
Tb792 O815 2.479 . S
Tb792 O816 2.471 . S
Eu793 O804 2.418 . S
Eu793 O805 2.384 . S
Eu793 O808 2.479 . S
Eu793 O809 2.471 . S
Eu793 O810 2.347 . S
Eu793 O813 2.366 . S
Eu793 C823 2.825 . S
C794 O810 1.259 . S
C794 O811 1.265 . S
C795 O812 1.255 . S
C795 O813 1.265 . S
C796 C798 1.380 . S
C796 C799 1.374 . S
C796 C802 1.507 . S
C797 C798 1.384 . S
C797 C801 1.387 1_655 S
C797 H824 0.930 . S
C798 C796 1.380 . S
C798 C797 1.384 . S
C798 H825 0.931 . S
C799 C796 1.374 . S
C799 C800 1.390 1_655 S
C799 H826 0.930 . S
C800 C799 1.390 1_455 S
C800 C801 1.391 . S
C800 H827 0.930 . S
C801 C797 1.387 1_455 S
C801 C800 1.391 . S
C802 Tb792 2.825 . S
C802 C796 1.507 . S
C802 O815 1.238 . S
C802 O816 1.247 . S
O803 Tb792 2.347 . S
O803 C807 1.259 . S
O804 Eu793 2.418 . S
O804 C807 1.265 . S
O805 Eu793 2.384 . S
O805 C814 1.255 . S
O806 Tb792 2.366 . S
O806 C814 1.265 . S
C807 O803 1.259 . S
C807 O804 1.265 . S
O808 Eu793 2.479 . S
O808 C823 1.238 . S
O809 Eu793 2.471 . S
O809 C823 1.247 . S
O810 Eu793 2.347 . S
O810 C794 1.259 . S
O811 Tb792 2.418 . S
O811 C794 1.265 . S
O812 Tb792 2.384 . S
O812 C795 1.255 . S
O813 Eu793 2.366 . S
O813 C795 1.265 . S
C814 O805 1.255 . S
C814 O806 1.265 . S
O815 Tb792 2.479 . S
O815 C802 1.238 . S
O816 Tb792 2.471 . S
O816 C802 1.247 . S
C817 C820 1.380 . S
C817 C821 1.374 . S
C817 C823 1.507 . S
C818 C819 1.387 . S
C818 C822 1.391 . S
C819 C818 1.387 . S
C819 C820 1.384 . S
C819 H828 0.930 . S
C820 C817 1.380 . S
C820 C819 1.384 . S
C820 H829 0.931 . S
C821 C817 1.374 . S
C821 C822 1.390 . S
C821 H830 0.930 . S
C822 C818 1.391 . S
C822 C821 1.390 . S
C822 H831 0.930 . S
C823 Eu793 2.825 . S
C823 O808 1.238 . S
C823 O809 1.247 . S
C823 C817 1.507 . S
H824 C797 0.930 . S
H825 C798 0.931 . S
H826 C799 0.930 . S
H827 C800 0.930 . S
H828 C819 0.930 . S
H829 C820 0.931 . S
H830 C821 0.930 . S
H831 C822 0.930 . S
Tb832 C842 2.825 . S
Tb832 O843 2.347 . S
Tb832 O846 2.366 . S
Tb832 O851 2.418 . S
Tb832 O852 2.384 . S
Tb832 O855 2.479 . S
Tb832 O856 2.471 . S
Eu833 O844 2.418 . S
Eu833 O845 2.384 . S
Eu833 O848 2.479 . S
Eu833 O849 2.471 . S
Eu833 O850 2.347 . S
Eu833 O853 2.366 . S
Eu833 C863 2.825 . S
C834 O850 1.259 . S
C834 O851 1.265 . S
C835 O852 1.255 . S
C835 O853 1.265 . S
C836 C838 1.380 . S
C836 C839 1.374 . S
C836 C842 1.507 . S
C837 C838 1.384 1_545 S
C837 C841 1.387 . S
C837 H864 0.930 . S
C838 C836 1.380 . S
C838 C837 1.384 1_565 S
C838 H865 0.931 . S
C839 C836 1.374 . S
C839 C840 1.390 1_565 S
C839 H866 0.930 . S
C840 C839 1.390 1_545 S
C840 C841 1.391 . S
C840 H867 0.930 . S
C841 C837 1.387 . S
C841 C840 1.391 . S
C842 Tb832 2.825 . S
C842 C836 1.507 . S
C842 O855 1.238 . S
C842 O856 1.247 . S
O843 Tb832 2.347 . S
O843 C847 1.259 . S
O844 Eu833 2.418 . S
O844 C847 1.265 . S
O845 Eu833 2.384 . S
O845 C854 1.255 . S
O846 Tb832 2.366 . S
O846 C854 1.265 . S
C847 O843 1.259 . S
C847 O844 1.265 . S
O848 Eu833 2.479 . S
O848 C863 1.238 . S
O849 Eu833 2.471 . S
O849 C863 1.247 . S
O850 Eu833 2.347 . S
O850 C834 1.259 . S
O851 Tb832 2.418 . S
O851 C834 1.265 . S
O852 Tb832 2.384 . S
O852 C835 1.255 . S
O853 Eu833 2.366 . S
O853 C835 1.265 . S
C854 O845 1.255 . S
C854 O846 1.265 . S
O855 Tb832 2.479 . S
O855 C842 1.238 . S
O856 Tb832 2.471 . S
O856 C842 1.247 . S
C857 C860 1.380 . S
C857 C861 1.374 . S
C857 C863 1.507 . S
C858 C859 1.387 . S
C858 C862 1.391 . S
C859 C858 1.387 . S
C859 C860 1.384 . S
C859 H868 0.930 . S
C860 C857 1.380 . S
C860 C859 1.384 . S
C860 H869 0.931 . S
C861 C857 1.374 . S
C861 C862 1.390 . S
C861 H870 0.930 . S
C862 C858 1.391 . S
C862 C861 1.390 . S
C862 H871 0.930 . S
C863 Eu833 2.825 . S
C863 O848 1.238 . S
C863 O849 1.247 . S
C863 C857 1.507 . S
H864 C837 0.930 . S
H865 C838 0.931 . S
H866 C839 0.930 . S
H867 C840 0.930 . S
H868 C859 0.930 . S
H869 C860 0.931 . S
H870 C861 0.930 . S
H871 C862 0.930 . S
Tb872 C882 2.825 . S
Tb872 O883 2.347 . S
Tb872 O886 2.366 . S
Tb872 O891 2.418 . S
Tb872 O892 2.384 . S
Tb872 O895 2.479 . S
Tb872 O896 2.471 . S
Eu873 O884 2.418 . S
Eu873 O885 2.384 . S
Eu873 O888 2.479 . S
Eu873 O889 2.471 . S
Eu873 O890 2.347 . S
Eu873 O893 2.366 . S
Eu873 C903 2.825 . S
C874 O890 1.259 . S
C874 O891 1.265 . S
C875 O892 1.255 . S
C875 O893 1.265 . S
C876 C878 1.380 . S
C876 C879 1.374 . S
C876 C882 1.507 . S
C877 C878 1.384 . S
C877 C881 1.387 . S
C877 H904 0.930 . S
C878 C876 1.380 . S
C878 C877 1.384 . S
C878 H905 0.931 . S
C879 C876 1.374 . S
C879 C880 1.390 . S
C879 H906 0.930 . S
C880 C879 1.390 . S
C880 C881 1.391 . S
C880 H907 0.930 . S
C881 C877 1.387 . S
C881 C880 1.391 . S
C882 Tb872 2.825 . S
C882 C876 1.507 . S
C882 O895 1.238 . S
C882 O896 1.247 . S
O883 Tb872 2.347 . S
O883 C887 1.259 . S
O884 Eu873 2.418 . S
O884 C887 1.265 . S
O885 Eu873 2.384 . S
O885 C894 1.255 . S
O886 Tb872 2.366 . S
O886 C894 1.265 . S
C887 O883 1.259 . S
C887 O884 1.265 . S
O888 Eu873 2.479 . S
O888 C903 1.238 . S
O889 Eu873 2.471 . S
O889 C903 1.247 . S
O890 Eu873 2.347 . S
O890 C874 1.259 . S
O891 Tb872 2.418 . S
O891 C874 1.265 . S
O892 Tb872 2.384 . S
O892 C875 1.255 . S
O893 Eu873 2.366 . S
O893 C875 1.265 . S
C894 O885 1.255 . S
C894 O886 1.265 . S
O895 Tb872 2.479 . S
O895 C882 1.238 . S
O896 Tb872 2.471 . S
O896 C882 1.247 . S
C897 C900 1.380 . S
C897 C901 1.374 . S
C897 C903 1.507 . S
C898 C899 1.387 . S
C898 C902 1.391 . S
C899 C898 1.387 . S
C899 C900 1.384 . S
C899 H908 0.930 . S
C900 C897 1.380 . S
C900 C899 1.384 . S
C900 H909 0.931 . S
C901 C897 1.374 . S
C901 C902 1.390 . S
C901 H910 0.930 . S
C902 C898 1.391 . S
C902 C901 1.390 . S
C902 H911 0.930 . S
C903 Eu873 2.825 . S
C903 O888 1.238 . S
C903 O889 1.247 . S
C903 C897 1.507 . S
H904 C877 0.930 . S
H905 C878 0.931 . S
H906 C879 0.930 . S
H907 C880 0.930 . S
H908 C899 0.930 . S
H909 C900 0.931 . S
H910 C901 0.930 . S
H911 C902 0.930 . S
Tb912 C922 2.825 1_554 S
Tb912 O923 2.347 1_554 S
Tb912 O926 2.366 . S
Tb912 O931 2.418 . S
Tb912 O932 2.384 1_455 S
Tb912 O935 2.479 . S
Tb912 O936 2.471 1_554 S
Eu913 O924 2.418 1_554 S
Eu913 O925 2.384 . S
Eu913 O928 2.479 . S
Eu913 O929 2.471 . S
Eu913 O930 2.347 . S
Eu913 O933 2.366 . S
Eu913 C943 2.825 . S
C914 O930 1.259 . S
C914 O931 1.265 . S
C915 O932 1.255 . S
C915 O933 1.265 1_655 S
C916 C918 1.381 . S
C916 C919 1.374 . S
C916 C922 1.507 . S
C917 C918 1.386 . S
C917 C921 1.390 . S
C917 H944 0.929 1_455 S
C918 C916 1.381 . S
C918 C917 1.386 . S
C918 H945 0.926 1_456 S
C919 C916 1.374 . S
C919 C920 1.390 . S
C919 H946 0.930 . S
C920 C919 1.390 . S
C920 C921 1.391 . S
C920 H947 0.930 . S
C921 C917 1.390 . S
C921 C920 1.391 . S
C922 Tb912 2.825 1_556 S
C922 C916 1.507 . S
C922 O935 1.238 1_556 S
C922 O936 1.247 . S
O923 Tb912 2.347 1_556 S
O923 C927 1.259 . S
O924 Eu913 2.418 1_556 S
O924 C927 1.265 . S
O925 Eu913 2.384 . S
O925 C934 1.255 . S
O926 Tb912 2.366 . S
O926 C934 1.265 . S
C927 O923 1.259 . S
C927 O924 1.265 . S
O928 Eu913 2.479 . S
O928 C943 1.238 . S
O929 Eu913 2.471 . S
O929 C943 1.247 . S
O930 Eu913 2.347 . S
O930 C914 1.259 . S
O931 Tb912 2.418 . S
O931 C914 1.265 . S
O932 Tb912 2.384 1_655 S
O932 C915 1.255 . S
O933 Eu913 2.366 . S
O933 C915 1.265 1_455 S
C934 O925 1.255 . S
C934 O926 1.265 . S
O935 Tb912 2.479 . S
O935 C922 1.238 1_554 S
O936 Tb912 2.471 1_556 S
O936 C922 1.247 . S
C937 C940 1.380 . S
C937 C941 1.374 . S
C937 C943 1.507 . S
C938 C939 1.387 . S
C938 C942 1.391 . S
C939 C938 1.387 . S
C939 C940 1.384 . S
C939 H948 0.930 . S
C940 C937 1.380 . S
C940 C939 1.384 . S
C940 H949 0.931 . S
C941 C937 1.374 . S
C941 C942 1.390 . S
C941 H950 0.930 . S
C942 C938 1.391 . S
C942 C941 1.390 . S
C942 H951 0.930 . S
C943 Eu913 2.825 . S
C943 O928 1.238 . S
C943 O929 1.247 . S
C943 C937 1.507 . S
H944 C917 0.929 1_655 S
H945 C918 0.926 1_654 S
H946 C919 0.930 . S
H947 C920 0.930 . S
H948 C939 0.930 . S
H949 C940 0.931 . S
H950 C941 0.930 . S
H951 C942 0.930 . S
C101 C334 2.352 1_656 S
C57 C354 2.462 . S
C73 C401 2.437 . S
C458 C78 2.410 . S
C21 C475 3.966 1_565 S
C534 C31 2.550 . S
C567 C49 4.216 . S
C0 C614 3.569 . S
C327 C218 3.202 1_455 S
C229 C355 2.480 . S
C394 C257 2.102 . S
C454 C164 3.129 . S
C216 C481 1.868 . S
C527 C231 3.128 . S
C578 C255 2.759 . S
C607 C166 3.300 . S
C338 C143 4.780 1_545 S
C265 C634 2.877 . S
C698 C299 3.230 . S
C734 C291 2.511 . S
C104 C618 4.636 . S
C117 C395 3.730 . S
C304 C767 2.743 . S
C801 C278 2.696 1_455 S
C315 C60 3.451 . S
C807 C96 2.983 . S
C88 C418 2.415 . S
C65 C761 3.110 . S
C494 C10 3.817 . S
C44 C675 2.661 . S
C554 C34 3.875 1_544 S
C835 C13 3.724 . S
C314 C138 3.225 . S
C814 C296 2.153 . S
C112 C407 2.021 . S
C270 C755 3.193 . S
C140 C498 1.649 . S
C674 C294 3.072 . S
C114 C561 2.982 . S
C268 C834 3.145 . S
C169 C321 4.702 1_554 S
C161 C647 2.777 . S
C234 C521 3.704 . S
C226 C715 2.564 . S
C841 C247 5.041 1_545 S
C195 C414 3.573 1_565 S
C434 C239 3.005 . S
C378 C187 1.988 . S
C75 C894 3.257 . S
C794 C83 2.851 . S
C99 C921 1.817 . S
C52 C778 2.550 . S
C47 C635 3.953 . S
C694 C5 2.772 . S
C727 C23 4.204 . S
C854 C26 3.349 . S
C887 C244 2.883 . S
C177 C795 2.517 . S
C914 C192 2.381 1_455 S
C774 C203 3.102 . S
C641 C242 1.909 . S
C179 C687 3.405 . S
C738 C190 2.899 . S
C205 C847 3.295 . S
C898 C286 4.833 . S
C122 C474 3.027 . S
C538 C130 2.972 . S
C574 C148 2.590 1_545 S
C858 C273 4.427 . S
C260 C915 3.816 . S
C447 C135 2.762 . S
C361 C109 1.415 . S
C86 C875 3.570 . S
C367 C70 2.737 . S
C62 C938 1.461 . S
C91 C441 3.120 . S
C36 C654 3.820 . S
C515 C18 2.758 . S
C8 C714 4.018 . S
C39 C595 3.698 . S
C874 C307 3.453 . S
C153 C374 2.342 . S
C927 C281 1.522 . S
C127 C435 3.237 . S
C309 C658 1.574 . S
C514 C151 3.231 1_556 S
C283 C721 2.478 . S
C594 C125 3.276 . S
C881 C221 5.385 . S
C487 C200 3.024 . S
C208 C681 3.455 . S
C555 C174 2.320 1_554 S
C182 C601 5.072 . S
C156 C934 3.712 . S
C754 C213 3.064 . S
C818 C252 2.192 . S
