# Generated by pormake.
# Topology ocu, (6,8)-cn, num edge types: 1
# Building blocks:
#     Node 0, Type 0, BuildingBlock: BETDEL_clean_sbu_0, # of connection points: 6
#     Node 1, Type 0, BuildingBlock: BETDEL_clean_sbu_0, # of connection points: 6
#     Node 2, Type 0, BuildingBlock: BETDEL_clean_sbu_0, # of connection points: 6
#     Node 3, Type 0, BuildingBlock: BETDEL_clean_sbu_0, # of connection points: 6
#     Node 4, Type 0, BuildingBlock: BETDEL_clean_sbu_0, # of connection points: 6
#     Node 5, Type 0, BuildingBlock: BETDEL_clean_sbu_0, # of connection points: 6
#     Node 6, Type 0, BuildingBlock: BETDEL_clean_sbu_0, # of connection points: 6
#     Node 7, Type 0, BuildingBlock: BETDEL_clean_sbu_0, # of connection points: 6
#     Node 8, Type 1, BuildingBlock: VETTIZ_charged_sbu_0, # of connection points: 8
#     Node 9, Type 1, BuildingBlock: VETTIZ_charged_sbu_0, # of connection points: 8
#     Node 10, Type 1, BuildingBlock: VETTIZ_charged_sbu_0, # of connection points: 8
#     Node 11, Type 1, BuildingBlock: VETTIZ_charged_sbu_0, # of connection points: 8
#     Node 12, Type 1, BuildingBlock: VETTIZ_charged_sbu_0, # of connection points: 8
#     Node 13, Type 1, BuildingBlock: VETTIZ_charged_sbu_0, # of connection points: 8
#     Edge 14, Type (0, 1), BuildingBlock: CIFDUS_clean_linker_0, # of connection points: 2
#     Edge 15, Type (0, 1), BuildingBlock: CIFDUS_clean_linker_0, # of connection points: 2
#     Edge 16, Type (0, 1), BuildingBlock: CIFDUS_clean_linker_0, # of connection points: 2
#     Edge 17, Type (0, 1), BuildingBlock: CIFDUS_clean_linker_0, # of connection points: 2
#     Edge 18, Type (0, 1), BuildingBlock: CIFDUS_clean_linker_0, # of connection points: 2
#     Edge 19, Type (0, 1), BuildingBlock: CIFDUS_clean_linker_0, # of connection points: 2
#     Edge 20, Type (0, 1), BuildingBlock: CIFDUS_clean_linker_0, # of connection points: 2
#     Edge 21, Type (0, 1), BuildingBlock: CIFDUS_clean_linker_0, # of connection points: 2
#     Edge 22, Type (0, 1), BuildingBlock: CIFDUS_clean_linker_0, # of connection points: 2
#     Edge 23, Type (0, 1), BuildingBlock: CIFDUS_clean_linker_0, # of connection points: 2
#     Edge 24, Type (0, 1), BuildingBlock: CIFDUS_clean_linker_0, # of connection points: 2
#     Edge 25, Type (0, 1), BuildingBlock: CIFDUS_clean_linker_0, # of connection points: 2
#     Edge 26, Type (0, 1), BuildingBlock: CIFDUS_clean_linker_0, # of connection points: 2
#     Edge 27, Type (0, 1), BuildingBlock: CIFDUS_clean_linker_0, # of connection points: 2
#     Edge 28, Type (0, 1), BuildingBlock: CIFDUS_clean_linker_0, # of connection points: 2
#     Edge 29, Type (0, 1), BuildingBlock: CIFDUS_clean_linker_0, # of connection points: 2
#     Edge 30, Type (0, 1), BuildingBlock: CIFDUS_clean_linker_0, # of connection points: 2
#     Edge 31, Type (0, 1), BuildingBlock: CIFDUS_clean_linker_0, # of connection points: 2
#     Edge 32, Type (0, 1), BuildingBlock: CIFDUS_clean_linker_0, # of connection points: 2
#     Edge 33, Type (0, 1), BuildingBlock: CIFDUS_clean_linker_0, # of connection points: 2
#     Edge 34, Type (0, 1), BuildingBlock: CIFDUS_clean_linker_0, # of connection points: 2
#     Edge 35, Type (0, 1), BuildingBlock: CIFDUS_clean_linker_0, # of connection points: 2
#     Edge 36, Type (0, 1), BuildingBlock: CIFDUS_clean_linker_0, # of connection points: 2
#     Edge 37, Type (0, 1), BuildingBlock: CIFDUS_clean_linker_0, # of connection points: 2
#     Edge 38, Type (0, 1), BuildingBlock: CIFDUS_clean_linker_0, # of connection points: 2
#     Edge 39, Type (0, 1), BuildingBlock: CIFDUS_clean_linker_0, # of connection points: 2
#     Edge 40, Type (0, 1), BuildingBlock: CIFDUS_clean_linker_0, # of connection points: 2
#     Edge 41, Type (0, 1), BuildingBlock: CIFDUS_clean_linker_0, # of connection points: 2
#     Edge 42, Type (0, 1), BuildingBlock: CIFDUS_clean_linker_0, # of connection points: 2
#     Edge 43, Type (0, 1), BuildingBlock: CIFDUS_clean_linker_0, # of connection points: 2
#     Edge 44, Type (0, 1), BuildingBlock: CIFDUS_clean_linker_0, # of connection points: 2
#     Edge 45, Type (0, 1), BuildingBlock: CIFDUS_clean_linker_0, # of connection points: 2
#     Edge 46, Type (0, 1), BuildingBlock: CIFDUS_clean_linker_0, # of connection points: 2
#     Edge 47, Type (0, 1), BuildingBlock: CIFDUS_clean_linker_0, # of connection points: 2
#     Edge 48, Type (0, 1), BuildingBlock: CIFDUS_clean_linker_0, # of connection points: 2
#     Edge 49, Type (0, 1), BuildingBlock: CIFDUS_clean_linker_0, # of connection points: 2
#     Edge 50, Type (0, 1), BuildingBlock: CIFDUS_clean_linker_0, # of connection points: 2
#     Edge 51, Type (0, 1), BuildingBlock: CIFDUS_clean_linker_0, # of connection points: 2
#     Edge 52, Type (0, 1), BuildingBlock: CIFDUS_clean_linker_0, # of connection points: 2
#     Edge 53, Type (0, 1), BuildingBlock: CIFDUS_clean_linker_0, # of connection points: 2
#     Edge 54, Type (0, 1), BuildingBlock: CIFDUS_clean_linker_0, # of connection points: 2
#     Edge 55, Type (0, 1), BuildingBlock: CIFDUS_clean_linker_0, # of connection points: 2
#     Edge 56, Type (0, 1), BuildingBlock: CIFDUS_clean_linker_0, # of connection points: 2
#     Edge 57, Type (0, 1), BuildingBlock: CIFDUS_clean_linker_0, # of connection points: 2
#     Edge 58, Type (0, 1), BuildingBlock: CIFDUS_clean_linker_0, # of connection points: 2
#     Edge 59, Type (0, 1), BuildingBlock: CIFDUS_clean_linker_0, # of connection points: 2
#     Edge 60, Type (0, 1), BuildingBlock: CIFDUS_clean_linker_0, # of connection points: 2
#     Edge 61, Type (0, 1), BuildingBlock: CIFDUS_clean_linker_0, # of connection points: 2
# Relax obj value: 0.090
# Max RMSD: 0.225
# Mean RMSD: 0.135
data_MOF--net-ocu--node1-BETDEL_clean_sbu_0--node2-VETTIZ_charged_sbu_0--edge1-CIFDUS_clean_linker_0
_symmetry_space_group_name_H-M    P1
_symmetry_Int_Tables_number       1
_symmetry_cell_setting            triclinic
loop_
_symmetry_equiv_pos_as_xyz
'x, y, z'
_cell_length_a     32.998815
_cell_length_b     34.170671
_cell_length_c     33.050695
_cell_angle_alpha  90.898054
_cell_angle_beta   92.218074
_cell_angle_gamma 96.454159
loop_
_atom_site_label
_atom_site_type_symbol
_atom_site_fract_x
_atom_site_fract_y
_atom_site_fract_z
_atom_type_partial_charge
Dy0 Dy 0.30387 0.25727 0.30581 0.0
C1 C 0.20899 0.3032 0.1687 0.0
C2 C 0.32639 0.20527 0.36097 0.0
Dy3 Dy 0.25153 0.27142 0.22915 0.0
O4 O 0.33273 0.24354 0.36629 0.0
O5 O 0.30714 0.19629 0.32654 0.0
O6 O 0.35901 0.30199 0.29748 0.0
O7 O 0.31023 0.29528 0.25499 0.0
C8 C 0.34518 0.3136 0.26266 0.0
C9 C 0.22448 0.20889 0.27363 0.0
O10 O 0.29907 0.23975 0.19788 0.0
O11 O 0.32758 0.21765 0.25728 0.0
O12 O 0.19286 0.28563 0.19962 0.0
O13 O 0.24824 0.30258 0.1703 0.0
O14 O 0.22185 0.20871 0.23419 0.0
O15 O 0.24028 0.24225 0.28639 0.0
O16 O 0.26183 0.29822 0.3331 0.0
O17 O 0.23295 0.31863 0.27262 0.0
C18 C 0.32484 0.21828 0.21686 0.0
C19 C 0.2377 0.321 0.31296 0.0
Dy20 Dy 0.80262 0.24129 0.28077 0.0
C21 C 0.66544 0.31044 0.22477 0.0
C22 C 0.86916 0.21774 0.31971 0.0
Dy23 Dy 0.72932 0.2788 0.26092 0.0
O24 O 0.85335 0.20328 0.28541 0.0
O25 O 0.84872 0.24539 0.33253 0.0
O26 O 0.79421 0.20253 0.22608 0.0
O27 O 0.74189 0.21741 0.25482 0.0
C28 C 0.75468 0.20029 0.22425 0.0
C29 C 0.78144 0.31961 0.31514 0.0
O30 O 0.70179 0.24029 0.30811 0.0
O31 O 0.76358 0.22263 0.33264 0.0
O32 O 0.69047 0.32756 0.25239 0.0
O33 O 0.67474 0.27525 0.21731 0.0
O34 O 0.74207 0.31662 0.31755 0.0
O35 O 0.79066 0.30214 0.28354 0.0
O36 O 0.82901 0.28048 0.23367 0.0
O37 O 0.7659 0.28961 0.20552 0.0
C38 C 0.72378 0.22323 0.33541 0.0
C39 C 0.80602 0.29153 0.2034 0.0
Dy40 Dy 0.74886 0.77473 0.29087 0.0
C41 C 0.81459 0.72672 0.14843 0.0
C42 C 0.72753 0.80977 0.35914 0.0
Dy43 Dy 0.7945 0.76425 0.21574 0.0
O44 O 0.71395 0.77396 0.34764 0.0
O45 O 0.75118 0.82658 0.33258 0.0
O46 O 0.70798 0.71762 0.27855 0.0
O47 O 0.73137 0.752 0.23112 0.0
C48 C 0.71159 0.71971 0.23952 0.0
C49 C 0.83039 0.82069 0.26617 0.0
O50 O 0.75149 0.80618 0.18959 0.0
O51 O 0.72291 0.821 0.25016 0.0
O52 O 0.83472 0.75907 0.16326 0.0
O53 O 0.78426 0.71507 0.17063 0.0
O54 O 0.83321 0.82232 0.22694 0.0
O55 O 0.81203 0.78794 0.2757 0.0
O56 O 0.79227 0.7336 0.31602 0.0
O57 O 0.8205 0.71715 0.25598 0.0
C58 C 0.72664 0.8265 0.21036 0.0
C59 C 0.81637 0.71219 0.29575 0.0
Dy60 Dy 0.30597 0.71421 0.24973 0.0
C61 C 0.18961 0.81015 0.29576 0.0
C62 C 0.34956 0.66605 0.20853 0.0
Dy63 Dy 0.24276 0.76693 0.2606 0.0
O64 O 0.35909 0.67849 0.24548 0.0
O65 O 0.3166 0.67944 0.1951 0.0
O66 O 0.33927 0.73722 0.30757 0.0
O67 O 0.30812 0.77487 0.27146 0.0
C68 C 0.32759 0.77223 0.30452 0.0
C69 C 0.21966 0.7096 0.2059 0.0
O70 O 0.28129 0.80547 0.2194 0.0
O71 O 0.31902 0.75638 0.19875 0.0
O72 O 0.19153 0.80506 0.25694 0.0
O73 O 0.21791 0.79361 0.31489 0.0
O74 O 0.20821 0.74458 0.20414 0.0
O75 O 0.2399 0.70608 0.23851 0.0
O76 O 0.26954 0.67595 0.29232 0.0
O77 O 0.23521 0.727 0.31407 0.0
C78 C 0.30758 0.79206 0.19471 0.0
C79 C 0.24526 0.69075 0.31795 0.0
Dy80 Dy 0.29304 0.73649 0.77883 0.0
C81 C 0.17734 0.83963 0.732 0.0
C82 C 0.35018 0.69343 0.81195 0.0
Dy83 Dy 0.23068 0.79169 0.76236 0.0
O84 O 0.3171 0.67924 0.79198 0.0
O85 O 0.35256 0.73161 0.81361 0.0
O86 O 0.27154 0.7001 0.72325 0.0
O87 O 0.22937 0.7282 0.756 0.0
C88 C 0.23405 0.70812 0.72447 0.0
C89 C 0.28793 0.81835 0.81844 0.0
O90 O 0.1986 0.75845 0.81047 0.0
O91 O 0.25669 0.73303 0.83484 0.0
O92 O 0.21565 0.85003 0.74078 0.0
O93 O 0.16785 0.8027 0.73983 0.0
O94 O 0.24992 0.82425 0.81987 0.0
O95 O 0.29445 0.80037 0.78603 0.0
O96 O 0.3223 0.76831 0.72791 0.0
O97 O 0.26224 0.79011 0.70396 0.0
C98 C 0.21835 0.74009 0.83848 0.0
C99 C 0.3007 0.78428 0.6994 0.0
Dy100 Dy 0.22799 0.24502 0.78936 0.0
C101 C 0.32262 0.22153 0.65955 0.0
C102 C 0.18168 0.26181 0.85183 0.0
Dy103 Dy 0.28322 0.24337 0.72489 0.0
O104 O 0.16826 0.24088 0.82012 0.0
O105 O 0.22012 0.27378 0.84897 0.0
O106 O 0.20414 0.18169 0.77576 0.0
O107 O 0.22017 0.21953 0.7283 0.0
C108 C 0.20759 0.18464 0.73692 0.0
C109 C 0.30327 0.30597 0.77281 0.0
O110 O 0.23747 0.27929 0.69411 0.0
O111 O 0.20567 0.295 0.7518 0.0
O112 O 0.33314 0.2536 0.68065 0.0
O113 O 0.29187 0.20106 0.67514 0.0
O114 O 0.30507 0.30656 0.7337 0.0
O115 O 0.29146 0.27153 0.7846 0.0
O116 O 0.27139 0.20938 0.82293 0.0
O117 O 0.31287 0.20174 0.76959 0.0
C118 C 0.21168 0.30022 0.7126 0.0
C119 C 0.30298 0.19418 0.80784 0.0
Dy120 Dy 0.78725 0.23614 0.72901 0.0
C121 C 0.69176 0.35794 0.76795 0.0
C122 C 0.83516 0.1854 0.69668 0.0
Dy123 Dy 0.73113 0.2997 0.73587 0.0
O124 O 0.83373 0.193 0.73518 0.0
O125 O 0.80853 0.20329 0.67654 0.0
O126 O 0.82388 0.25726 0.78521 0.0
O127 O 0.79547 0.29741 0.74984 0.0
C128 C 0.81382 0.29274 0.78319 0.0
C129 C 0.70557 0.24298 0.68119 0.0
O130 O 0.76966 0.32747 0.68756 0.0
O131 O 0.80129 0.27175 0.67436 0.0
O132 O 0.67506 0.32252 0.75889 0.0
O133 O 0.72942 0.362 0.75748 0.0
O134 O 0.69846 0.27949 0.67725 0.0
O135 O 0.72245 0.23822 0.71538 0.0
O136 O 0.74376 0.2061 0.77097 0.0
O137 O 0.72143 0.26453 0.79279 0.0
C138 C 0.79362 0.30778 0.66558 0.0
C139 C 0.72467 0.22647 0.79717 0.0
Dy140 Dy 0.80624 0.75778 0.79374 0.0
C141 C 0.70578 0.804 0.67375 0.0
C142 C 0.85394 0.73219 0.85452 0.0
Dy143 Dy 0.7446 0.76172 0.72831 0.0
O144 O 0.86673 0.74362 0.8196 0.0
O145 O 0.81541 0.73563 0.85636 0.0
O146 O 0.83483 0.81874 0.78059 0.0
O147 O 0.81002 0.78129 0.73282 0.0
C148 C 0.82719 0.8154 0.74169 0.0
C149 C 0.72335 0.70263 0.77816 0.0
O150 O 0.78612 0.72446 0.6953 0.0
O151 O 0.82045 0.70643 0.75288 0.0
O152 O 0.6997 0.76567 0.67568 0.0
O153 O 0.73306 0.81837 0.70085 0.0
O154 O 0.71163 0.70175 0.73992 0.0
O155 O 0.7417 0.7362 0.7876 0.0
O156 O 0.76869 0.799 0.82716 0.0
O157 O 0.71876 0.80063 0.77652 0.0
C158 C 0.81245 0.70261 0.71309 0.0
C159 C 0.73389 0.81136 0.81354 0.0
Fe160 Fe 0.02966 0.04895 0.49687 0.0
O161 O 0.99248 0.00879 0.52542 0.0
Fe162 Fe 0.11205 1.00019 0.47583 0.0
Fe163 Fe 0.93265 0.00855 0.52401 0.0
O164 O 0.05336 1.00245 0.47548 0.0
O165 O 0.05205 0.99849 0.47511 0.0
O166 O 0.99121 1.00489 0.52508 0.0
Fe167 Fe 1.01492 0.95821 0.50384 0.0
C168 C 0.97298 0.08874 0.55319 0.0
O169 O 0.99073 0.04479 0.44725 0.0
O170 O 0.93212 0.04789 0.47751 0.0
O171 O 0.04537 0.91453 0.47718 0.0
O172 O 0.09594 0.94993 0.44147 0.0
O173 O 0.10909 0.04093 0.4307 0.0
O174 O 0.07195 0.08519 0.46191 0.0
O175 O 0.91768 0.96194 0.48328 0.0
O176 O 0.97541 0.95291 0.45366 0.0
C177 C 0.09692 0.07563 0.43437 0.0
O178 O 0.05387 0.96175 0.55338 0.0
O179 O 0.11458 0.96432 0.52499 0.0
O180 O 0.99918 0.09285 0.52451 0.0
O181 O 0.9493 0.05689 0.56044 0.0
C182 C 0.95454 0.0535 0.44722 0.0
C183 C 0.93671 0.94843 0.45433 0.0
C184 C 0.94715 0.93226 0.5656 0.0
O185 O 0.93399 0.96655 0.56768 0.0
O186 O 0.97257 0.9221 0.53881 0.0
C187 C 0.07197 0.91829 0.44902 0.0
O188 O 0.1265 0.04839 0.51466 0.0
O189 O 0.06938 0.0538 0.54672 0.0
C190 C 0.09195 0.95922 0.55525 0.0
C191 C 0.10796 0.05968 0.54503 0.0
Fe192 Fe 0.52391 0.96984 1.00598 0.0
O193 O 0.55738 0.01735 0.98574 0.0
Fe194 Fe 0.43294 0.01262 0.02735 0.0
Fe195 Fe 0.61687 0.02365 0.98897 0.0
O196 O 0.49376 0.01252 0.0317 0.0
O197 O 0.49233 0.01826 0.03022 0.0
O198 O 0.5562 0.02294 0.9847 0.0
Fe199 Fe 0.52511 0.06556 0.0091 0.0
C200 C 0.60116 0.96135 0.0568 0.0
O201 O 0.56177 0.93334 0.97182 0.0
O202 O 0.6104 0.97873 0.94524 0.0
O203 O 0.48706 0.06767 0.95627 0.0
O204 O 0.4271 0.05666 0.98444 0.0
O205 O 0.4258 0.97066 0.98196 0.0
O206 O 0.48604 0.96857 0.95427 0.0
O207 O 0.61202 0.07088 0.9522 0.0
O208 O 0.5664 0.10843 0.98185 0.0
C209 C 0.4475 0.95946 0.95397 0.0
O210 O 0.48655 0.10284 0.0411 0.0
O211 O 0.44017 0.05783 0.07061 0.0
O212 O 0.5628 0.96465 0.05814 0.0
O213 O 0.62217 0.97847 0.02935 0.0
C214 C 0.59239 0.94302 0.94782 0.0
C215 C 0.59608 0.10355 0.95773 0.0
C216 C 0.60119 0.07481 0.06414 0.0
O217 O 0.62347 0.06416 0.03626 0.0
O218 O 0.56231 0.06884 0.06139 0.0
C219 C 0.44868 0.07109 0.95584 0.0
O220 O 0.43822 0.9661 0.06498 0.0
O221 O 0.48123 0.92728 0.03289 0.0
C222 C 0.45751 0.0935 0.06683 0.0
C223 C 0.45202 0.93261 0.05769 0.0
Fe224 Fe 1.00883 0.54428 1.00129 0.0
O225 O 0.97537 0.49798 0.02361 0.0
Fe226 Fe 0.10282 0.51188 0.9869 0.0
Fe227 Fe 0.91567 0.48997 0.01441 0.0
O228 O 0.04353 0.50531 0.98049 0.0
O229 O 0.0433 0.50197 0.98016 0.0
O230 O 0.97528 0.49446 0.02358 0.0
Fe231 Fe 1.01014 0.45527 1.00233 0.0
C232 C 0.93823 0.57175 0.04919 0.0
O233 O 0.97566 0.53831 0.94764 0.0
O234 O 0.91403 0.53286 0.9719 0.0
O235 O 0.05108 0.42053 0.97739 0.0
O236 O 0.09891 0.46459 0.94736 0.0
O237 O 0.09737 0.55653 0.94694 0.0
O238 O 0.04689 0.58849 0.97518 0.0
O239 O 0.91354 0.44753 0.96935 0.0
O240 O 0.97695 0.44835 0.94841 0.0
C241 C 0.07728 0.58671 0.95183 0.0
O242 O 0.04466 0.45896 0.05582 0.0
O243 O 0.10618 0.4709 0.03032 0.0
O244 O 0.9686 0.57959 0.02574 0.0
O245 O 0.91914 0.53692 0.05485 0.0
C246 C 0.93914 0.54619 0.94595 0.0
C247 C 0.93872 0.43903 0.94333 0.0
C248 C 0.93908 0.41395 0.05045 0.0
O249 O 0.91908 0.44445 0.05348 0.0
O250 O 0.97073 0.41124 0.02862 0.0
C251 C 0.08195 0.4293 0.95461 0.0
O252 O 0.10515 0.55469 0.03142 0.0
O253 O 0.04248 0.55231 0.05494 0.0
C254 C 0.08279 0.45584 0.05695 0.0
C255 C 0.0808 0.56208 0.05868 0.0
Fe256 Fe 0.52475 0.49441 0.95664 0.0
O257 O 0.55286 0.52538 1.00341 0.0
Fe258 Fe 0.43088 0.45986 0.99345 0.0
Fe259 Fe 0.61276 0.53105 0.01133 0.0
O260 O 0.49022 0.46834 0.9989 0.0
O261 O 0.49018 0.46785 1.00285 0.0
O262 O 0.55287 0.52472 0.00773 0.0
Fe263 Fe 0.51843 0.49782 0.0501 0.0
C264 C 0.59978 0.45723 0.95639 0.0
O265 O 0.56593 0.52704 0.91799 0.0
O266 O 0.6086 0.56687 0.96226 0.0
O267 O 0.48063 0.54062 0.04508 0.0
O268 O 0.42044 0.50459 0.0325 0.0
O269 O 0.42752 0.49756 0.94582 0.0
O270 O 0.48614 0.53692 0.94785 0.0
O271 O 0.60255 0.57009 0.0567 0.0
O272 O 0.55401 0.53434 0.0942 0.0
C273 C 0.44885 0.52921 0.93641 0.0
O274 O 0.47681 0.4651 0.08872 0.0
O275 O 0.43448 0.42577 0.04376 0.0
O276 O 0.56243 0.45156 0.96408 0.0
O277 O 0.62177 0.48851 0.96838 0.0
C278 C 0.59376 0.55692 0.92608 0.0
C279 C 0.5826 0.56361 0.08954 0.0
C280 C 0.59319 0.46117 0.06773 0.0
O281 O 0.61604 0.4915 0.0573 0.0
O282 O 0.55596 0.45467 0.05632 0.0
C283 C 0.44197 0.53591 0.04526 0.0
O284 O 0.44376 0.4193 0.95117 0.0
O285 O 0.49061 0.45671 0.91318 0.0
C286 C 0.44779 0.43636 0.08017 0.0
C287 C 0.46409 0.42609 0.91876 0.0
Fe288 Fe 0.03826 0.4257 0.502 0.0
O289 O 0.0439 0.48383 0.50803 0.0
Fe290 Fe 0.02259 0.51463 0.45623 0.0
Fe291 Fe 0.01972 0.51221 0.55376 0.0
O292 O 0.04369 0.4838 0.50255 0.0
O293 O 0.99774 0.54251 0.50202 0.0
O294 O 0.99867 0.54296 0.50757 0.0
Fe295 Fe 1.00213 0.60058 0.50892 0.0
C296 C 0.96183 0.43843 0.54971 0.0
O297 O 0.07611 0.43046 0.55314 0.0
O298 O 0.04775 0.47278 0.59597 0.0
O299 O 0.04898 0.6104 0.46984 0.0
O300 O 0.07507 0.55357 0.46084 0.0
O301 O 0.05633 0.47847 0.41626 0.0
O302 O 0.08281 0.43491 0.46036 0.0
O303 O 0.07236 0.55032 0.56047 0.0
O304 O 0.04488 0.60688 0.55725 0.0
C305 C 0.08166 0.45201 0.4256 0.0
O306 O 0.96334 0.59473 0.4579 0.0
O307 O 0.99324 0.5535 0.41463 0.0
O308 O 0.98931 0.41697 0.53992 0.0
O309 O 0.96706 0.47558 0.54836 0.0
C310 C 0.07213 0.44539 0.58878 0.0
C311 C 0.07375 0.58701 0.56828 0.0
C312 C 0.96171 0.57422 0.58679 0.0
O313 O 0.98758 0.54814 0.59493 0.0
O314 O 0.95862 0.59064 0.55185 0.0
C315 C 0.07791 0.59099 0.45984 0.0
O316 O 0.96977 0.47559 0.44841 0.0
O317 O 0.99801 0.41971 0.45263 0.0
C318 C 0.96763 0.57978 0.42212 0.0
C319 C 0.96944 0.43903 0.44027 0.0
Fe320 Fe 0.51163 0.95421 0.51615 0.0
O321 O 0.48594 0.99534 0.54578 0.0
Fe322 Fe 0.53346 0.99685 0.42386 0.0
Fe323 Fe 0.4875 1.00007 0.60496 0.0
O324 O 0.53518 0.99853 0.48292 0.0
O325 O 0.53603 1.00208 0.4832 0.0
O326 O 0.48655 0.99882 0.54592 0.0
Fe327 Fe 0.51042 0.04327 0.51304 0.0
C328 C 0.45592 0.91604 0.5801 0.0
O329 O 0.56228 0.96242 0.55371 0.0
O330 O 0.53341 0.96428 0.61356 0.0
O331 O 0.53898 0.08489 0.47467 0.0
O332 O 0.57289 0.04799 0.4305 0.0
O333 O 0.5748 0.95676 0.43465 0.0
O334 O 0.54202 0.91666 0.48185 0.0
O335 O 0.53105 0.04834 0.61075 0.0
O336 O 0.56102 0.05357 0.55134 0.0
C337 C 0.57017 0.92506 0.4561 0.0
O338 O 0.45969 0.03545 0.47543 0.0
O339 O 0.48797 0.0334 0.41547 0.0
O340 O 0.484 0.91249 0.55437 0.0
O341 O 0.44862 0.94863 0.59775 0.0
C342 C 0.56283 0.95741 0.59162 0.0
C343 C 0.56096 0.06052 0.58924 0.0
C344 C 0.45006 0.0709 0.5718 0.0
O345 O 0.44576 0.03937 0.59346 0.0
O346 O 0.47937 0.08045 0.54749 0.0
C347 C 0.56665 0.08081 0.44843 0.0
O348 O 0.48976 0.94855 0.41878 0.0
O349 O 0.46079 0.9435 0.47857 0.0
C350 C 0.45907 0.0412 0.43768 0.0
C351 C 0.46094 0.9351 0.44104 0.0
H352 H 0.19148 0.22121 0.34689 0.0
H353 H 0.20366 0.13076 0.25722 0.0
H354 H 0.16426 0.08211 0.29815 0.0
H355 H 0.12718 0.06495 0.35982 0.0
H356 H 0.11111 0.15579 0.44794 0.0
H357 H 0.15031 0.20464 0.40697 0.0
C358 C 0.1856 0.19079 0.33641 0.0
C359 C 0.20095 0.17951 0.29916 0.0
C360 C 0.1618 0.16314 0.35966 0.0
C361 C 0.19242 0.14016 0.28574 0.0
C362 C 0.1698 0.11236 0.30915 0.0
C363 C 0.13193 0.0955 0.37002 0.0
C364 C 0.11614 0.10649 0.40718 0.0
C365 C 0.15435 0.12347 0.34616 0.0
C366 C 0.12247 0.14638 0.41948 0.0
C367 C 0.14525 0.17431 0.39616 0.0
H368 H 0.90411 0.15289 0.30033 0.0
H369 H 0.89376 0.23671 0.39743 0.0
H370 H 0.9208 0.19225 0.44607 0.0
H371 H 0.9378 0.12622 0.46171 0.0
H372 H 0.9492 0.04225 0.3655 0.0
H373 H 0.9303 0.08993 0.31516 0.0
C374 C 0.90882 0.16177 0.33198 0.0
C375 C 0.89642 0.19742 0.34568 0.0
C376 C 0.92316 0.13566 0.35976 0.0
C377 C 0.90294 0.20911 0.38649 0.0
C378 C 0.9179 0.18359 0.4143 0.0
C379 C 0.93598 0.11857 0.42967 0.0
C380 C 0.94326 0.08092 0.41684 0.0
C381 C 0.92622 0.14618 0.40143 0.0
C382 C 0.94255 0.07111 0.37552 0.0
C383 C 0.93213 0.09832 0.34699 0.0
H384 H 0.82626 0.82048 0.3479 0.0
H385 H 0.88731 0.8829 0.25117 0.0
H386 H 0.92698 0.92737 0.30074 0.0
H387 H 0.94428 0.94845 0.37227 0.0
H388 H 0.87633 0.8904 0.4674 0.0
H389 H 0.83849 0.845 0.41784 0.0
C390 C 0.84754 0.84433 0.33753 0.0
C391 C 0.85345 0.84861 0.29585 0.0
C392 C 0.86898 0.87062 0.36604 0.0
C393 C 0.88202 0.87908 0.28308 0.0
C394 C 0.90473 0.9045 0.31142 0.0
C395 C 0.92112 0.92585 0.38195 0.0
C396 C 0.91321 0.92252 0.42337 0.0
C397 C 0.89851 0.90054 0.35305 0.0
C398 C 0.8828 0.89354 0.43564 0.0
C399 C 0.86129 0.86749 0.40736 0.0
H400 H 0.16422 0.794 0.37014 0.0
H401 H 0.14205 0.86378 0.26564 0.0
H402 H 0.0932 0.89783 0.30301 0.0
H403 H 0.06728 0.91506 0.36862 0.0
H404 H 0.09197 0.84733 0.47376 0.0
H405 H 0.12807 0.80335 0.43242 0.0
C406 C 0.14835 0.81646 0.35555 0.0
C407 C 0.15733 0.82765 0.31595 0.0
C408 C 0.12056 0.83559 0.37711 0.0
C409 C 0.1359 0.85559 0.29653 0.0
C410 C 0.10801 0.87482 0.31777 0.0
C411 C 0.07927 0.88966 0.38194 0.0
C412 C 0.07772 0.88425 0.42381 0.0
C413 C 0.10142 0.86605 0.35849 0.0
C414 C 0.09289 0.85156 0.44137 0.0
C415 C 0.11406 0.82699 0.41792 0.0
H416 H 0.2017 0.90843 0.69825 0.0
H417 H 0.09606 0.82389 0.71203 0.0
H418 H 0.05756 0.85807 0.66142 0.0
H419 H 0.05782 0.90603 0.60674 0.0
H420 H 0.16668 0.98501 0.58811 0.0
H421 H 0.2004 0.95907 0.64745 0.0
C422 C 0.16998 0.89798 0.69076 0.0
C423 C 0.15162 0.86373 0.70832 0.0
C424 C 0.14903 0.91644 0.66043 0.0
C425 C 0.11065 0.85026 0.69854 0.0
C426 C 0.08881 0.86961 0.66954 0.0
C427 C 0.08868 0.91789 0.61622 0.0
C428 C 0.11017 0.94685 0.59323 0.0
C429 C 0.10826 0.90179 0.64924 0.0
C430 C 0.15008 0.96215 0.6053 0.0
C431 C 0.16921 0.94747 0.63914 0.0
H432 H 0.21568 0.18543 0.65586 0.0
H433 H 0.15417 0.11923 0.74993 0.0
H434 H 0.11719 0.07462 0.6988 0.0
H435 H 0.10085 0.05585 0.62668 0.0
H436 H 0.16789 0.11881 0.5339 0.0
H437 H 0.2049 0.16288 0.58517 0.0
C438 C 0.19483 0.1608 0.66527 0.0
C439 C 0.18778 0.15558 0.7066 0.0
C440 C 0.17458 0.1348 0.63587 0.0
C441 C 0.16021 0.1238 0.71827 0.0
C442 C 0.13897 0.09837 0.68905 0.0
C443 C 0.12365 0.07922 0.61791 0.0
C444 C 0.13144 0.08448 0.5767 0.0
C445 C 0.14561 0.10383 0.64769 0.0
C446 C 0.16148 0.1143 0.5655 0.0
C447 C 0.18252 0.13955 0.59475 0.0
H448 H 0.86375 0.20222 0.62335 0.0
H449 H 0.88303 0.13295 0.72891 0.0
H450 H 0.9384 0.10418 0.69597 0.0
H451 H 0.9732 0.09198 0.63367 0.0
H452 H 0.95185 0.15922 0.52736 0.0
H453 H 0.907 0.19779 0.56492 0.0
C454 C 0.88013 0.18079 0.63907 0.0
C455 C 0.8687 0.1684 0.67776 0.0
C456 C 0.91203 0.16501 0.62022 0.0
C457 C 0.8909 0.14193 0.69864 0.0
C458 C 0.92265 0.12586 0.68001 0.0
C459 C 0.96006 0.11631 0.61939 0.0
C460 C 0.96506 0.12264 0.57792 0.0
C461 C 0.93262 0.13643 0.64043 0.0
C462 C 0.94831 0.15404 0.55933 0.0
C463 C 0.92202 0.17542 0.58057 0.0
H464 H 0.85439 0.79583 0.66723 0.0
H465 H 0.85134 0.8934 0.75102 0.0
H466 H 0.89005 0.93721 0.70502 0.0
H467 H 0.92372 0.94827 0.64095 0.0
H468 H 0.93017 0.85134 0.55724 0.0
H469 H 0.8922 0.80656 0.60361 0.0
C470 C 0.86204 0.82675 0.67522 0.0
C471 C 0.84951 0.84152 0.71237 0.0
C472 C 0.88539 0.8517 0.64891 0.0
C473 C 0.86035 0.88142 0.72262 0.0
C474 C 0.88261 0.90644 0.69636 0.0
C475 C 0.91712 0.91726 0.63283 0.0
C476 C 0.92969 0.90329 0.59544 0.0
C477 C 0.89525 0.89193 0.65948 0.0
C478 C 0.92122 0.8629 0.58584 0.0
C479 C 0.89912 0.83738 0.61223 0.0
H480 H 0.36219 0.23082 0.14213 0.0
H481 H 0.3468 0.14665 0.23777 0.0
H482 H 0.38709 0.10272 0.20173 0.0
H483 H 0.42537 0.08618 0.1422 0.0
H484 H 0.44612 0.17081 0.04791 0.0
H485 H 0.40636 0.21607 0.08408 0.0
C486 C 0.36755 0.20283 0.15508 0.0
C487 C 0.35048 0.19226 0.19292 0.0
C488 C 0.39234 0.1776 0.13438 0.0
C489 C 0.35893 0.15597 0.20903 0.0
C490 C 0.3822 0.13062 0.18829 0.0
C491 C 0.42182 0.11477 0.12961 0.0
C492 C 0.43936 0.12464 0.09195 0.0
C493 C 0.399 0.1409 0.15089 0.0
C494 C 0.43391 0.16212 0.07678 0.0
C495 C 0.4106 0.188 0.09745 0.0
H496 H 0.88691 0.30006 0.18814 0.0
H497 H 0.7683 0.31868 0.1366 0.0
H498 H 0.80028 0.35212 0.07969 0.0
H499 H 0.86141 0.38398 0.05004 0.0
H500 H 0.98028 0.36921 0.10212 0.0
H501 H 0.94876 0.32509 0.15296 0.0
C502 C 0.86805 0.31109 0.16425 0.0
C503 C 0.82537 0.30778 0.16706 0.0
C504 C 0.88665 0.33075 0.13178 0.0
C505 C 0.80127 0.32149 0.13554 0.0
C506 C 0.81948 0.34052 0.1029 0.0
C507 C 0.88034 0.37027 0.07204 0.0
C508 C 0.92274 0.37986 0.07314 0.0
C509 C 0.86205 0.34642 0.10153 0.0
C510 C 0.94744 0.36192 0.10105 0.0
C511 C 0.9294 0.33719 0.13024 0.0
H512 H 0.7182 0.83946 0.12785 0.0
H513 H 0.67315 0.87509 0.24176 0.0
H514 H 0.62881 0.91743 0.20622 0.0
H515 H 0.60277 0.94644 0.14151 0.0
H516 H 0.64979 0.90984 0.02872 0.0
H517 H 0.69193 0.86659 0.06455 0.0
C518 C 0.69887 0.85649 0.14518 0.0
C519 C 0.69986 0.85366 0.18799 0.0
C520 C 0.67296 0.88099 0.12433 0.0
C521 C 0.67379 0.87624 0.20907 0.0
C522 C 0.64807 0.90064 0.18856 0.0
C523 C 0.62173 0.92859 0.12471 0.0
C524 C 0.6224 0.93184 0.08184 0.0
C525 C 0.64718 0.90347 0.14599 0.0
C526 C 0.64815 0.9085 0.06137 0.0
C527 C 0.67263 0.88356 0.08198 0.0
H528 H 0.14228 0.70387 0.1754 0.0
H529 H 0.24696 0.63935 0.1871 0.0
H530 H 0.21189 0.58596 0.14424 0.0
H531 H 0.15308 0.56035 0.09934 0.0
H532 H 0.04633 0.62236 0.09282 0.0
H533 H 0.08004 0.67375 0.13888 0.0
C534 C 0.15734 0.67804 0.16862 0.0
C535 C 0.19764 0.67599 0.18302 0.0
C536 C 0.13642 0.647 0.14536 0.0
C537 C 0.21639 0.64194 0.17532 0.0
C538 C 0.19624 0.61137 0.15106 0.0
C539 C 0.13705 0.58481 0.1087 0.0
C540 C 0.09753 0.58799 0.09263 0.0
C541 C 0.15653 0.61396 0.13532 0.0
C542 C 0.07669 0.61938 0.10509 0.0
C543 C 0.09611 0.64888 0.13104 0.0
H544 H 0.36549 0.85403 0.80625 0.0
H545 H 0.27833 0.8238 0.89787 0.0
H546 H 0.32181 0.86281 0.94822 0.0
H547 H 0.38035 0.90988 0.96488 0.0
H548 H 0.46838 0.94399 0.87522 0.0
H549 H 0.42904 0.899 0.82533 0.0
C550 C 0.35671 0.85545 0.83747 0.0
C551 C 0.31882 0.83623 0.84855 0.0
C552 C 0.38154 0.87911 0.86628 0.0
C553 C 0.30731 0.83851 0.88882 0.0
C554 C 0.33204 0.86092 0.91754 0.0
C555 C 0.39107 0.90772 0.93438 0.0
C556 C 0.42668 0.93101 0.92345 0.0
C557 C 0.36846 0.88222 0.90632 0.0
C558 C 0.44074 0.92674 0.8842 0.0
C559 C 0.41824 0.90104 0.85575 0.0
H560 H 0.20697 0.31454 0.90994 0.0
H561 H 0.09863 0.24917 0.85548 0.0
H562 H 0.05614 0.29422 0.88753 0.0
H563 H 0.0518 0.35892 0.92074 0.0
H564 H 0.16242 0.42774 0.96581 0.0
H565 H 0.20241 0.37502 0.94725 0.0
C566 C 0.17397 0.30962 0.90589 0.0
C567 C 0.15576 0.27943 0.88 0.0
C568 C 0.15043 0.33699 0.92168 0.0
C569 C 0.11309 0.27271 0.87523 0.0
C570 C 0.08894 0.29866 0.89306 0.0
C571 C 0.08463 0.36201 0.92639 0.0
C572 C 0.10464 0.39714 0.94319 0.0
C573 C 0.10755 0.33211 0.91446 0.0
C574 C 0.14692 0.40117 0.95143 0.0
C575 C 0.16964 0.37099 0.94135 0.0
H576 H 0.65171 0.23373 0.83155 0.0
H577 H 0.75977 0.17362 0.84182 0.0
H578 H 0.73123 0.13528 0.89759 0.0
H579 H 0.67419 0.11456 0.93851 0.0
H580 H 0.56173 0.16712 0.92489 0.0
H581 H 0.59366 0.21383 0.87623 0.0
C582 C 0.66897 0.2125 0.84647 0.0
C583 C 0.70763 0.20613 0.83263 0.0
C584 C 0.65162 0.1894 0.87774 0.0
C585 C 0.72981 0.17855 0.85177 0.0
C586 C 0.71358 0.15677 0.88368 0.0
C587 C 0.6565 0.13633 0.92509 0.0
C588 C 0.61543 0.13696 0.93469 0.0
C589 C 0.67425 0.16129 0.89612 0.0
C590 C 0.59339 0.16604 0.91792 0.0
C591 C 0.61155 0.19239 0.88983 0.0
H592 H 0.91647 0.69146 0.83628 0.0
H593 H 0.83585 0.71426 0.93147 0.0
H594 H 0.8562 0.658 0.96871 0.0
H595 H 0.89 0.59863 0.96982 0.0
H596 H 0.97014 0.57382 0.87485 0.0
H597 H 0.95614 0.6346 0.84098 0.0
C598 C 0.90435 0.68471 0.86573 0.0
C599 C 0.87471 0.70657 0.88129 0.0
C600 C 0.91488 0.65141 0.88601 0.0
C601 C 0.85878 0.69762 0.91917 0.0
C602 C 0.86999 0.66527 0.94012 0.0
C603 C 0.90412 0.6062 0.94145 0.0
C604 C 0.92994 0.58128 0.92396 0.0
C605 C 0.8966 0.64113 0.92292 0.0
C606 C 0.94933 0.59225 0.88817 0.0
C607 C 0.94163 0.62704 0.86911 0.0
H608 H 0.13343 0.32558 0.17621 0.0
H609 H 0.23785 0.33658 0.10067 0.0
H610 H 0.20765 0.3858 0.06038 0.0
H611 H 0.15461 0.42741 0.04927 0.0
H612 H 0.04865 0.41799 0.12291 0.0
H613 H 0.07718 0.36646 0.16241 0.0
C614 C 0.14912 0.33837 0.15049 0.0
C615 C 0.18767 0.32771 0.14115 0.0
C616 C 0.13196 0.36729 0.12804 0.0
C617 C 0.20809 0.34446 0.10815 0.0
C618 C 0.19103 0.37273 0.0854 0.0
C619 C 0.13757 0.41456 0.07415 0.0
C620 C 0.09976 0.42701 0.08358 0.0
C621 C 0.15353 0.38485 0.0957 0.0
C622 C 0.07805 0.40924 0.11543 0.0
C623 C 0.09421 0.37967 0.13774 0.0
H624 H 0.13633 0.7272 0.84373 0.0
H625 H 0.24993 0.71148 0.90764 0.0
H626 H 0.2138 0.66516 0.95266 0.0
H627 H 0.15269 0.62066 0.96506 0.0
H628 H 0.0393 0.63387 0.9005 0.0
H629 H 0.07258 0.69009 0.86411 0.0
C630 C 0.15301 0.71446 0.86819 0.0
C631 C 0.19576 0.72169 0.87177 0.0
C632 C 0.13228 0.68692 0.89303 0.0
C633 C 0.21704 0.70553 0.90384 0.0
C634 C 0.19649 0.67897 0.92945 0.0
C635 C 0.13536 0.63632 0.9433 0.0
C636 C 0.09438 0.62314 0.93411 0.0
C637 C 0.15461 0.66796 0.92278 0.0
C638 C 0.07128 0.64368 0.90709 0.0
C639 C 0.09024 0.6756 0.88648 0.0
H640 H 0.38484 0.17411 0.80738 0.0
H641 H 0.27418 0.15481 0.87332 0.0
H642 H 0.30787 0.11599 0.9224 0.0
H643 H 0.36859 0.08785 0.94922 0.0
H644 H 0.48109 0.10689 0.88675 0.0
H645 H 0.44736 0.14449 0.83507 0.0
C646 C 0.36792 0.16117 0.83224 0.0
C647 C 0.32626 0.16805 0.83577 0.0
C648 C 0.38809 0.13852 0.86175 0.0
C649 C 0.30585 0.15084 0.86903 0.0
C650 C 0.32526 0.1283 0.89753 0.0
C651 C 0.38606 0.09993 0.92431 0.0
C652 C 0.42789 0.09377 0.92261 0.0
C653 C 0.3664 0.12205 0.89459 0.0
C654 C 0.44912 0.11047 0.88956 0.0
C655 C 0.42963 0.13225 0.85971 0.0
H656 H 0.89273 0.30828 0.80792 0.0
H657 H 0.77456 0.34849 0.81925 0.0
H658 H 0.80353 0.4 0.86772 0.0
H659 H 0.86175 0.43035 0.91017 0.0
H660 H 0.9805 0.39078 0.89801 0.0
H661 H 0.9523 0.34252 0.84613 0.0
C662 C 0.87357 0.32863 0.82087 0.0
C663 C 0.83176 0.32511 0.81011 0.0
C664 C 0.89056 0.3581 0.8485 0.0
C665 C 0.80698 0.35145 0.82663 0.0
C666 C 0.82349 0.38058 0.85456 0.0
C667 C 0.88153 0.41142 0.89587 0.0
C668 C 0.92303 0.41385 0.90818 0.0
C669 C 0.86514 0.3838 0.86611 0.0
C670 C 0.94844 0.38952 0.88903 0.0
C671 C 0.9323 0.36175 0.85956 0.0
H672 H 0.64969 0.81349 0.82376 0.0
H673 H 0.76777 0.86906 0.86627 0.0
H674 H 0.73516 0.91292 0.91061 0.0
H675 H 0.67341 0.93716 0.93737 0.0
H676 H 0.55468 0.87925 0.9009 0.0
H677 H 0.58674 0.83501 0.85533 0.0
C678 C 0.66833 0.83526 0.84264 0.0
C679 C 0.71172 0.83785 0.84077 0.0
C680 C 0.64904 0.86009 0.8697 0.0
C681 C 0.73474 0.86602 0.86645 0.0
C682 C 0.71595 0.89131 0.89204 0.0
C683 C 0.65431 0.9147 0.9197 0.0
C684 C 0.61122 0.91211 0.92294 0.0
C685 C 0.67318 0.88881 0.89398 0.0
C686 C 0.58764 0.88223 0.89973 0.0
C687 C 0.60616 0.85696 0.87327 0.0
H688 H 0.89137 0.72927 0.12359 0.0
H689 H 0.77109 0.66567 0.10814 0.0
H690 H 0.79935 0.61124 0.07463 0.0
H691 H 0.85897 0.57869 0.05818 0.0
H692 H 0.97951 0.64146 0.07474 0.0
H693 H 0.95057 0.69931 0.10034 0.0
C694 C 0.87135 0.70397 0.11176 0.0
C695 C 0.82955 0.70089 0.11843 0.0
C696 C 0.88795 0.67228 0.09419 0.0
C697 C 0.80357 0.66819 0.10329 0.0
C698 C 0.81969 0.637 0.08462 0.0
C699 C 0.87882 0.60494 0.06784 0.0
C700 C 0.92118 0.60569 0.06611 0.0
C701 C 0.86198 0.63805 0.08167 0.0
C702 C 0.94675 0.64019 0.07695 0.0
C703 C 0.93025 0.67328 0.09114 0.0
H704 H 0.38015 0.78623 0.15861 0.0
H705 H 0.28105 0.85843 0.16467 0.0
H706 H 0.31608 0.90579 0.11993 0.0
H707 H 0.37531 0.92845 0.08272 0.0
H708 H 0.47764 0.86037 0.07821 0.0
H709 H 0.44027 0.80884 0.11815 0.0
C710 C 0.36608 0.81215 0.14977 0.0
C711 C 0.328 0.81889 0.16513 0.0
C712 C 0.38691 0.83985 0.12452 0.0
C713 C 0.31032 0.85268 0.15358 0.0
C714 C 0.33033 0.87974 0.12796 0.0
C715 C 0.38988 0.9025 0.09049 0.0
C716 C 0.42973 0.89872 0.07815 0.0
C717 C 0.3688 0.87393 0.11392 0.0
C718 C 0.4472 0.86418 0.08751 0.0
C719 C 0.42587 0.83488 0.1105 0.0
H720 H 0.67032 0.18509 0.21451 0.0
H721 H 0.78334 0.15715 0.16548 0.0
H722 H 0.74599 0.11473 0.11411 0.0
H723 H 0.68243 0.08669 0.08148 0.0
H724 H 0.56767 0.11392 0.12659 0.0
H725 H 0.60436 0.15484 0.18108 0.0
C726 C 0.68659 0.16958 0.1926 0.0
C727 C 0.72968 0.17439 0.19401 0.0
C728 C 0.66468 0.14496 0.16238 0.0
C729 C 0.75029 0.15412 0.16532 0.0
C730 C 0.72896 0.12972 0.13578 0.0
C731 C 0.66512 0.10135 0.10319 0.0
C732 C 0.62221 0.09716 0.09962 0.0
C733 C 0.68629 0.12509 0.13385 0.0
C734 C 0.6007 0.11641 0.12849 0.0
C735 C 0.62172 0.14001 0.1596 0.0
H736 H 0.66316 0.63983 0.76731 0.0
H737 H 0.73918 0.70703 0.8589 0.0
H738 H 0.70578 0.66842 0.91167 0.0
H739 H 0.6545 0.61747 0.93246 0.0
H740 H 0.57664 0.54876 0.84326 0.0
H741 H 0.61081 0.58641 0.7891 0.0
C742 C 0.67256 0.6457 0.79881 0.0
C743 C 0.704 0.67624 0.80902 0.0
C744 C 0.65254 0.6235 0.82951 0.0
C745 C 0.71554 0.68361 0.85002 0.0
C746 C 0.6962 0.66166 0.88035 0.0
C747 C 0.64459 0.61046 0.90127 0.0
C748 C 0.61263 0.5802 0.89228 0.0
C749 C 0.6645 0.63185 0.8705 0.0
C750 C 0.60087 0.57194 0.85135 0.0
C751 C 0.62057 0.59341 0.8203 0.0
H752 H 0.34338 0.61477 0.8115 0.0
H753 H 0.41715 0.71745 0.86174 0.0
H754 H 0.45681 0.67528 0.90344 0.0
H755 H 0.46685 0.60884 0.92883 0.0
H756 H 0.38893 0.50778 0.87992 0.0
H757 H 0.35461 0.54968 0.83439 0.0
C758 C 0.36842 0.62795 0.83127 0.0
C759 C 0.37738 0.66898 0.83375 0.0
C760 C 0.39009 0.60377 0.85561 0.0
C761 C 0.40985 0.68577 0.8594 0.0
C762 C 0.43233 0.66171 0.88331 0.0
C763 C 0.44256 0.59615 0.90795 0.0
C764 C 0.43016 0.5554 0.908 0.0
C765 C 0.4222 0.62063 0.88221 0.0
C766 C 0.39863 0.53916 0.88089 0.0
C767 C 0.37904 0.56304 0.85471 0.0
H768 H 0.36211 0.28855 0.82614 0.0
H769 H 0.30996 0.38536 0.77008 0.0
H770 H 0.36218 0.43232 0.80462 0.0
H771 H 0.41978 0.44549 0.85435 0.0
H772 H 0.47114 0.34855 0.91075 0.0
H773 H 0.42358 0.30154 0.87082 0.0
C774 C 0.36199 0.31998 0.82201 0.0
C775 C 0.33175 0.33389 0.79688 0.0
C776 C 0.39277 0.34647 0.84082 0.0
C777 C 0.33255 0.3744 0.79029 0.0
C778 C 0.36261 0.40108 0.80954 0.0
C779 C 0.4216 0.41406 0.85641 0.0
C780 C 0.44918 0.40021 0.88458 0.0
C781 C 0.39279 0.38743 0.83498 0.0
C782 C 0.45064 0.35956 0.88834 0.0
C783 C 0.42293 0.3328 0.86622 0.0
H784 H 0.62733 0.34003 0.81441 0.0
H785 H 0.7223 0.43285 0.7895 0.0
H786 H 0.70378 0.47106 0.84785 0.0
H787 H 0.66227 0.47669 0.90708 0.0
H788 H 0.56813 0.38304 0.93259 0.0
H789 H 0.5855 0.34585 0.87328 0.0
C790 C 0.64341 0.36897 0.82132 0.0
C791 C 0.67577 0.38394 0.79765 0.0
C792 C 0.63355 0.39 0.85555 0.0
C793 C 0.69692 0.42108 0.80719 0.0
C794 C 0.68668 0.44266 0.84074 0.0
C795 C 0.64604 0.44783 0.9001 0.0
C796 C 0.61433 0.43239 0.92446 0.0
C797 C 0.65558 0.42703 0.86556 0.0
C798 C 0.59296 0.39535 0.91449 0.0
C799 C 0.60259 0.37426 0.88041 0.0
H800 H 0.66889 0.38843 0.22117 0.0
H801 H 0.60828 0.28105 0.16649 0.0
H802 H 0.57799 0.31906 0.11301 0.0
H803 H 0.57452 0.38274 0.07886 0.0
H804 H 0.64324 0.48775 0.13082 0.0
H805 H 0.66547 0.4506 0.18817 0.0
C806 C 0.64844 0.37334 0.19798 0.0
C807 C 0.64053 0.33223 0.19759 0.0
C808 C 0.63358 0.3949 0.1664 0.0
C809 C 0.61443 0.31287 0.16726 0.0
C810 C 0.59755 0.33451 0.1366 0.0
C811 C 0.59448 0.39721 0.10278 0.0
C812 C 0.60787 0.43757 0.10055 0.0
C813 C 0.60796 0.37546 0.13525 0.0
C814 C 0.63345 0.45642 0.13158 0.0
C815 C 0.64577 0.43536 0.16454 0.0
H816 H 0.66164 0.65036 0.24945 0.0
H817 H 0.70423 0.73435 0.15985 0.0
H818 H 0.66433 0.69566 0.10716 0.0
H819 H 0.62028 0.63731 0.08536 0.0
H820 H 0.57833 0.55009 0.17174 0.0
H821 H 0.61369 0.59126 0.22691 0.0
C822 C 0.66201 0.66007 0.21838 0.0
C823 C 0.68635 0.69502 0.20862 0.0
C824 C 0.63874 0.63738 0.18769 0.0
C825 C 0.6863 0.70741 0.16827 0.0
C826 C 0.66327 0.6854 0.13802 0.0
C827 C 0.6185 0.62722 0.11628 0.0
C828 C 0.59692 0.59046 0.12428 0.0
C829 C 0.63978 0.65026 0.14728 0.0
C830 C 0.59451 0.57835 0.16468 0.0
C831 C 0.61514 0.60172 0.19616 0.0
H832 H 0.32561 0.63512 0.13606 0.0
H833 H 0.42642 0.64574 0.22416 0.0
H834 H 0.46625 0.60947 0.17823 0.0
H835 H 0.47074 0.57337 0.11408 0.0
H836 H 0.36789 0.56003 0.02831 0.0
H837 H 0.33027 0.60015 0.07224 0.0
C838 C 0.35633 0.62949 0.14524 0.0
C839 C 0.37331 0.64273 0.18319 0.0
C840 C 0.37854 0.60884 0.11901 0.0
C841 C 0.41291 0.63534 0.19502 0.0
C842 C 0.43561 0.61496 0.16876 0.0
C843 C 0.4404 0.58 0.10475 0.0
C844 C 0.42193 0.56441 0.06813 0.0
C845 C 0.41861 0.60159 0.13074 0.0
C846 C 0.38241 0.57213 0.05646 0.0
C847 C 0.36097 0.59473 0.08156 0.0
H848 H 0.32143 0.33727 0.18828 0.0
H849 H 0.42286 0.35016 0.27511 0.0
H850 H 0.46392 0.39093 0.22795 0.0
H851 H 0.47196 0.42091 0.15971 0.0
H852 H 0.36869 0.40606 0.07424 0.0
H853 H 0.32801 0.36874 0.12275 0.0
C854 C 0.35237 0.34921 0.19699 0.0
C855 C 0.36893 0.34058 0.23509 0.0
C856 C 0.37587 0.37236 0.16964 0.0
C857 C 0.40925 0.35635 0.24589 0.0
C858 C 0.43284 0.37965 0.21887 0.0
C859 C 0.44053 0.40973 0.15192 0.0
C860 C 0.42398 0.41596 0.11287 0.0
C861 C 0.41667 0.38761 0.1803 0.0
C862 C 0.38291 0.40122 0.10356 0.0
C863 C 0.35927 0.37985 0.13142 0.0
H864 H 0.87729 0.65779 0.73323 0.0
H865 H 0.7989 0.68566 0.63253 0.0
H866 H 0.8353 0.64674 0.5872 0.0
H867 H 0.89095 0.60748 0.5739 0.0
H868 H 0.97176 0.57849 0.6717 0.0
H869 H 0.93273 0.61393 0.71968 0.0
C870 C 0.86787 0.65511 0.70145 0.0
C871 C 0.8348 0.67539 0.68689 0.0
C872 C 0.88952 0.63216 0.67462 0.0
C873 C 0.82379 0.67108 0.64529 0.0
C874 C 0.84478 0.64858 0.61901 0.0
C875 C 0.90017 0.60837 0.60578 0.0
C876 C 0.93486 0.58986 0.61858 0.0
C877 C 0.87792 0.62937 0.63306 0.0
C878 C 0.94533 0.59172 0.66041 0.0
C879 C 0.92305 0.6125 0.68795 0.0
H880 H 0.37755 0.77615 0.67687 0.0
H881 H 0.26923 0.82968 0.64177 0.0
H882 H 0.30797 0.8718 0.59505 0.0
H883 H 0.37476 0.90262 0.57573 0.0
H884 H 0.48341 0.8506 0.61099 0.0
H885 H 0.44238 0.79821 0.64595 0.0
C886 C 0.36225 0.79638 0.6583 0.0
C887 C 0.32108 0.80088 0.66382 0.0
C888 C 0.38485 0.8211 0.63207 0.0
C889 C 0.30123 0.8263 0.63877 0.0
C890 C 0.32334 0.85056 0.61212 0.0
C891 C 0.38909 0.87911 0.59026 0.0
C892 C 0.43156 0.88033 0.59194 0.0
C893 C 0.3655 0.84971 0.61038 0.0
C894 C 0.45046 0.84987 0.60992 0.0
C895 C 0.42711 0.82022 0.62997 0.0
H896 H 0.14701 0.34494 0.73225 0.0
H897 H 0.22725 0.32348 0.63602 0.0
H898 H 0.19457 0.36843 0.59303 0.0
H899 H 0.14222 0.41176 0.57993 0.0
H900 H 0.05806 0.43383 0.67184 0.0
H901 H 0.09358 0.39224 0.71884 0.0
C902 C 0.15749 0.35017 0.70194 0.0
C903 C 0.19005 0.32985 0.68792 0.0
C904 C 0.13787 0.37669 0.67628 0.0
C905 C 0.20256 0.33772 0.64827 0.0
C906 C 0.1838 0.36381 0.62334 0.0
C907 C 0.13142 0.40802 0.61037 0.0
C908 C 0.09695 0.42655 0.62172 0.0
C909 C 0.15129 0.38319 0.63671 0.0
C910 C 0.08448 0.42085 0.66177 0.0
C911 C 0.1047 0.39647 0.68863 0.0
H912 H 0.68436 0.16797 0.70372 0.0
H913 H 0.67921 0.24549 0.60244 0.0
H914 H 0.63815 0.19327 0.56251 0.0
H915 H 0.59821 0.12777 0.559 0.0
H916 H 0.59729 0.05353 0.6633 0.0
H917 H 0.64654 0.10194 0.69945 0.0
C918 C 0.6747 0.1732 0.6727 0.0
C919 C 0.68459 0.21039 0.65592 0.0
C920 C 0.64985 0.14364 0.65065 0.0
C921 C 0.67167 0.21703 0.61591 0.0
C922 C 0.64822 0.18724 0.59315 0.0
C923 C 0.60948 0.122 0.58936 0.0
C924 C 0.59447 0.08726 0.60856 0.0
C925 C 0.63633 0.15073 0.61054 0.0
C926 C 0.60856 0.08021 0.6481 0.0
C927 C 0.63657 0.10787 0.66874 0.0
H928 H 0.86386 0.3287 0.31205 0.0
H929 H 0.76515 0.36887 0.3771 0.0
H930 H 0.81409 0.4121 0.41991 0.0
H931 H 0.88592 0.43727 0.44023 0.0
H932 H 0.98367 0.39348 0.37651 0.0
H933 H 0.93445 0.35343 0.33177 0.0
C934 C 0.85304 0.34693 0.33558 0.0
C935 C 0.81095 0.34555 0.34139 0.0
C936 C 0.88133 0.37135 0.36028 0.0
C937 C 0.79743 0.36933 0.37206 0.0
C938 C 0.82542 0.39414 0.3965 0.0
C939 C 0.89622 0.41937 0.41614 0.0
C940 C 0.93832 0.41851 0.41146 0.0
C941 C 0.86755 0.39537 0.39101 0.0
C942 C 0.95139 0.39462 0.38064 0.0
C943 C 0.92328 0.37163 0.35509 0.0
H944 H 0.66255 0.78599 0.4029 0.0
H945 H 0.75681 0.88229 0.38801 0.0
H946 H 0.71731 0.92682 0.42411 0.0
H947 H 0.65011 0.94067 0.44495 0.0
H948 H 0.55425 0.84533 0.45688 0.0
H949 H 0.60029 0.79772 0.43703 0.0
C950 C 0.67491 0.81641 0.40884 0.0
C951 C 0.71148 0.83151 0.39193 0.0
C952 C 0.65134 0.84204 0.42798 0.0
C953 C 0.72799 0.87058 0.40016 0.0
C954 C 0.70538 0.89603 0.42047 0.0
C955 C 0.63962 0.90938 0.44361 0.0
C956 C 0.59889 0.89627 0.45062 0.0
C957 C 0.66594 0.88256 0.43192 0.0
C958 C 0.58555 0.85581 0.45057 0.0
C959 C 0.61176 0.82871 0.43932 0.0
H960 H 0.20531 0.7144 0.38215 0.0
H961 H 0.23661 0.61003 0.32114 0.0
H962 H 0.1905 0.56883 0.36344 0.0
H963 H 0.13475 0.56343 0.41173 0.0
H964 H 0.10298 0.66901 0.4704 0.0
H965 H 0.15589 0.7086 0.43514 0.0
C966 C 0.20255 0.68259 0.37843 0.0
C967 C 0.22393 0.66536 0.34817 0.0
C968 C 0.17548 0.65927 0.40218 0.0
C969 C 0.22042 0.62407 0.34418 0.0
C970 C 0.19383 0.60051 0.36818 0.0
C971 C 0.13995 0.59499 0.41734 0.0
C972 C 0.11441 0.61327 0.44314 0.0
C973 C 0.1702 0.61789 0.39639 0.0
C974 C 0.12166 0.65421 0.45017 0.0
C975 C 0.15198 0.67695 0.43006 0.0
H976 H 0.33916 0.1334 0.3352 0.0
H977 H 0.35803 0.21209 0.43921 0.0
H978 H 0.39678 0.16458 0.47456 0.0
H979 H 0.43055 0.10381 0.47258 0.0
H980 H 0.41862 0.03029 0.36451 0.0
H981 H 0.37148 0.07278 0.33362 0.0
C982 C 0.35124 0.13996 0.36586 0.0
C983 C 0.34576 0.17599 0.38481 0.0
C984 C 0.3749 0.11361 0.38486 0.0
C985 C 0.36196 0.18443 0.42422 0.0
C986 C 0.38414 0.15739 0.44424 0.0
C987 C 0.41699 0.09681 0.44253 0.0
C988 C 0.42755 0.06398 0.42073 0.0
C989 C 0.39156 0.12233 0.42442 0.0
C990 C 0.41069 0.05546 0.38161 0.0
C991 C 0.3839 0.07971 0.36406 0.0
H992 H 0.69306 0.87737 0.69338 0.0
H993 H 0.66214 0.78594 0.60239 0.0
H994 H 0.61795 0.82824 0.56611 0.0
H995 H 0.5853 0.88963 0.56329 0.0
H996 H 0.61009 0.97676 0.65944 0.0
H997 H 0.66015 0.93772 0.69116 0.0
C998 C 0.67696 0.86686 0.66536 0.0
C999 C 0.6808 0.82893 0.65017 0.0
C1000 C 0.65064 0.89049 0.64599 0.0
C1001 C 0.65941 0.81518 0.61437 0.0
C1002 C 0.63428 0.83928 0.5938 0.0
C1003 C 0.6022 0.90013 0.59091 0.0
C1004 C 0.59483 0.93594 0.60908 0.0
C1005 C 0.6293 0.87675 0.6097 0.0
C1006 C 0.61579 0.94925 0.64519 0.0
C1007 C 0.64418 0.92698 0.66319 0.0
H1008 H 0.64756 0.22824 0.36152 0.0
H1009 H 0.75312 0.16543 0.37972 0.0
H1010 H 0.71419 0.11783 0.42132 0.0
H1011 H 0.64779 0.08871 0.44353 0.0
H1012 H 0.54215 0.15105 0.42656 0.0
H1013 H 0.58358 0.20468 0.39374 0.0
C1014 C 0.66216 0.20449 0.37516 0.0
C1015 C 0.70276 0.19976 0.36683 0.0
C1016 C 0.63955 0.17707 0.39887 0.0
C1017 C 0.72172 0.16946 0.38537 0.0
C1018 C 0.69947 0.1421 0.40901 0.0
C1019 C 0.63419 0.11448 0.43326 0.0
C1020 C 0.59224 0.11606 0.43652 0.0
C1021 C 0.65803 0.14478 0.41454 0.0
C1022 C 0.57458 0.14953 0.42401 0.0
C1023 C 0.59814 0.17992 0.4051 0.0
H1024 H 0.88476 0.67187 0.27653 0.0
H1025 H 0.8011 0.68695 0.37153 0.0
H1026 H 0.83765 0.64596 0.41558 0.0
H1027 H 0.89463 0.60839 0.43034 0.0
H1028 H 0.98117 0.59154 0.33919 0.0
H1029 H 0.94225 0.62922 0.29117 0.0
C1030 C 0.87428 0.66594 0.30672 0.0
C1031 C 0.83967 0.68351 0.32012 0.0
C1032 C 0.89612 0.64164 0.33307 0.0
C1033 C 0.82732 0.67488 0.35971 0.0
C1034 C 0.84835 0.65106 0.38531 0.0
C1035 C 0.90517 0.61244 0.39985 0.0
C1036 C 0.94138 0.59666 0.38902 0.0
C1037 C 0.883 0.6347 0.37271 0.0
C1038 C 0.95353 0.60256 0.34888 0.0
C1039 C 0.93127 0.62464 0.32138 0.0
H1040 H 0.35252 0.77919 0.38401 0.0
H1041 H 0.34884 0.84377 0.27307 0.0
H1042 H 0.38769 0.90104 0.30623 0.0
H1043 H 0.42677 0.93134 0.36542 0.0
H1044 H 0.42699 0.86943 0.47805 0.0
H1045 H 0.3849 0.81293 0.44601 0.0
C1046 C 0.36009 0.80596 0.36738 0.0
C1047 C 0.34841 0.80721 0.32619 0.0
C1048 C 0.38168 0.83927 0.38693 0.0
C1049 C 0.35766 0.84214 0.30487 0.0
C1050 C 0.37993 0.8749 0.32374 0.0
C1051 C 0.41706 0.90565 0.383 0.0
C1052 C 0.4301 0.90426 0.42376 0.0
C1053 C 0.39262 0.87359 0.36455 0.0
C1054 C 0.41707 0.87113 0.44655 0.0
C1055 C 0.39332 0.83872 0.42818 0.0
H1056 H 0.17407 0.365 0.28766 0.0
H1057 H 0.24724 0.34041 0.39348 0.0
H1058 H 0.20877 0.38121 0.43492 0.0
H1059 H 0.15265 0.42105 0.44329 0.0
H1060 H 0.0759 0.44555 0.34043 0.0
H1061 H 0.11775 0.40895 0.29619 0.0
C1062 C 0.1819 0.36878 0.31973 0.0
C1063 C 0.21413 0.3489 0.33696 0.0
C1064 C 0.15891 0.39264 0.34422 0.0
C1065 C 0.22304 0.3546 0.37881 0.0
C1066 C 0.20088 0.37821 0.4028 0.0
C1067 C 0.14492 0.41894 0.41108 0.0
C1068 C 0.11054 0.43656 0.39572 0.0
C1069 C 0.16851 0.39699 0.38609 0.0
C1070 C 0.10204 0.43314 0.3536 0.0
C1071 C 0.12591 0.41164 0.32825 0.0
H1072 H 0.30185 0.15566 0.61613 0.0
H1073 H 0.39677 0.25265 0.6335 0.0
H1074 H 0.44434 0.21533 0.59817 0.0
H1075 H 0.46219 0.15 0.57786 0.0
H1076 H 0.36887 0.05081 0.57149 0.0
H1077 H 0.31705 0.09385 0.58691 0.0
C1078 C 0.3327 0.16893 0.61124 0.0
C1079 C 0.34655 0.20598 0.6282 0.0
C1080 C 0.36021 0.14647 0.59373 0.0
C1081 C 0.38598 0.22366 0.62106 0.0
C1082 C 0.41317 0.20224 0.60127 0.0
C1083 C 0.43033 0.13823 0.57912 0.0
C1084 C 0.41901 0.09761 0.57486 0.0
C1085 C 0.40126 0.16276 0.58998 0.0
C1086 C 0.37793 0.08211 0.57595 0.0
C1087 C 0.34844 0.10662 0.58449 0.0
H1088 H 0.80976 0.3864 0.65276 0.0
H1089 H 0.83164 0.27233 0.60591 0.0
H1090 H 0.88397 0.30301 0.56305 0.0
H1091 H 0.92971 0.3614 0.54563 0.0
H1092 H 0.90798 0.47548 0.59274 0.0
H1093 H 0.84948 0.44566 0.62819 0.0
C1094 C 0.82523 0.36837 0.63241 0.0
C1095 C 0.81737 0.32721 0.63313 0.0
C1096 C 0.85593 0.38612 0.60827 0.0
C1097 C 0.8376 0.30417 0.60646 0.0
C1098 C 0.86769 0.32163 0.58198 0.0
C1099 C 0.91194 0.37973 0.56335 0.0
C1100 C 0.92375 0.4204 0.5671 0.0
C1101 C 0.87824 0.36245 0.58386 0.0
C1102 C 0.89988 0.44394 0.58955 0.0
C1103 C 0.86634 0.42696 0.60995 0.0
H1104 H 0.23616 0.64924 0.66857 0.0
H1105 H 0.15598 0.72686 0.71889 0.0
H1106 H 0.09999 0.69791 0.67339 0.0
H1107 H 0.07333 0.64939 0.62029 0.0
H1108 H 0.15195 0.5681 0.57379 0.0
H1109 H 0.20894 0.5994 0.61676 0.0
C1110 C 0.20645 0.65988 0.66944 0.0
C1111 C 0.20031 0.69045 0.69678 0.0
C1112 C 0.17409 0.6423 0.64392 0.0
C1113 C 0.16155 0.70362 0.69791 0.0
C1114 C 0.12951 0.68699 0.67195 0.0
C1115 C 0.10303 0.63873 0.61935 0.0
C1116 C 0.10847 0.60663 0.59365 0.0
C1117 C 0.13537 0.65623 0.6449 0.0
C1118 C 0.14696 0.59272 0.59331 0.0
C1119 C 0.17956 0.61064 0.61785 0.0
loop_
_geom_bond_atom_site_label_1
_geom_bond_atom_site_label_2
_geom_bond_distance
_geom_bond_site_symmetry_2
_ccdc_geom_bond_type
Dy0 O4 2.398 . S
Dy0 O5 2.491 . S
Dy0 O6 2.403 . S
Dy0 O7 2.664 . S
Dy0 O11 2.326 . S
Dy0 O15 2.310 . S
Dy0 O16 2.351 . S
C1 O12 1.185 . S
C1 O13 1.355 . S
C2 O4 1.185 . S
C2 O5 1.355 . S
Dy3 O7 2.310 . S
Dy3 O10 2.351 . S
Dy3 O12 2.398 . S
Dy3 O13 2.491 . S
Dy3 O14 2.403 . S
Dy3 O15 2.664 . S
Dy3 O17 2.326 . S
O4 Dy0 2.398 . S
O4 C2 1.185 . S
O5 Dy0 2.491 . S
O5 C2 1.355 . S
O6 Dy0 2.403 . S
O6 C8 1.254 . S
O7 Dy0 2.664 . S
O7 Dy3 2.310 . S
O7 C8 1.268 . S
C8 O6 1.254 . S
C8 O7 1.268 . S
C9 O14 1.254 . S
C9 O15 1.268 . S
O10 Dy3 2.351 . S
O10 C18 1.249 . S
O11 Dy0 2.326 . S
O11 C18 1.267 . S
O12 C1 1.185 . S
O12 Dy3 2.398 . S
O13 C1 1.355 . S
O13 Dy3 2.491 . S
O14 Dy3 2.403 . S
O14 C9 1.254 . S
O15 Dy0 2.310 . S
O15 Dy3 2.664 . S
O15 C9 1.268 . S
O16 Dy0 2.351 . S
O16 C19 1.249 . S
O17 Dy3 2.326 . S
O17 C19 1.267 . S
C18 O10 1.249 . S
C18 O11 1.267 . S
C19 O16 1.249 . S
C19 O17 1.267 . S
Dy20 O24 2.398 . S
Dy20 O25 2.491 . S
Dy20 O26 2.403 . S
Dy20 O27 2.664 . S
Dy20 O31 2.326 . S
Dy20 O35 2.310 . S
Dy20 O36 2.351 . S
C21 O32 1.185 . S
C21 O33 1.355 . S
C22 O24 1.185 . S
C22 O25 1.355 . S
Dy23 O27 2.310 . S
Dy23 O30 2.351 . S
Dy23 O32 2.398 . S
Dy23 O33 2.491 . S
Dy23 O34 2.403 . S
Dy23 O35 2.664 . S
Dy23 O37 2.326 . S
O24 Dy20 2.398 . S
O24 C22 1.185 . S
O25 Dy20 2.491 . S
O25 C22 1.355 . S
O26 Dy20 2.403 . S
O26 C28 1.254 . S
O27 Dy20 2.664 . S
O27 Dy23 2.310 . S
O27 C28 1.268 . S
C28 O26 1.254 . S
C28 O27 1.268 . S
C29 O34 1.254 . S
C29 O35 1.268 . S
O30 Dy23 2.351 . S
O30 C38 1.249 . S
O31 Dy20 2.326 . S
O31 C38 1.267 . S
O32 C21 1.185 . S
O32 Dy23 2.398 . S
O33 C21 1.355 . S
O33 Dy23 2.491 . S
O34 Dy23 2.403 . S
O34 C29 1.254 . S
O35 Dy20 2.310 . S
O35 Dy23 2.664 . S
O35 C29 1.268 . S
O36 Dy20 2.351 . S
O36 C39 1.249 . S
O37 Dy23 2.326 . S
O37 C39 1.267 . S
C38 O30 1.249 . S
C38 O31 1.267 . S
C39 O36 1.249 . S
C39 O37 1.267 . S
Dy40 O44 2.398 . S
Dy40 O45 2.491 . S
Dy40 O46 2.403 . S
Dy40 O47 2.664 . S
Dy40 O51 2.326 . S
Dy40 O55 2.310 . S
Dy40 O56 2.351 . S
C41 O52 1.185 . S
C41 O53 1.355 . S
C42 O44 1.185 . S
C42 O45 1.355 . S
Dy43 O47 2.310 . S
Dy43 O50 2.351 . S
Dy43 O52 2.398 . S
Dy43 O53 2.491 . S
Dy43 O54 2.403 . S
Dy43 O55 2.664 . S
Dy43 O57 2.326 . S
O44 Dy40 2.398 . S
O44 C42 1.185 . S
O45 Dy40 2.491 . S
O45 C42 1.355 . S
O46 Dy40 2.403 . S
O46 C48 1.254 . S
O47 Dy40 2.664 . S
O47 Dy43 2.310 . S
O47 C48 1.268 . S
C48 O46 1.254 . S
C48 O47 1.268 . S
C49 O54 1.254 . S
C49 O55 1.268 . S
O50 Dy43 2.351 . S
O50 C58 1.249 . S
O51 Dy40 2.326 . S
O51 C58 1.267 . S
O52 C41 1.185 . S
O52 Dy43 2.398 . S
O53 C41 1.355 . S
O53 Dy43 2.491 . S
O54 Dy43 2.403 . S
O54 C49 1.254 . S
O55 Dy40 2.310 . S
O55 Dy43 2.664 . S
O55 C49 1.268 . S
O56 Dy40 2.351 . S
O56 C59 1.249 . S
O57 Dy43 2.326 . S
O57 C59 1.267 . S
C58 O50 1.249 . S
C58 O51 1.267 . S
C59 O56 1.249 . S
C59 O57 1.267 . S
Dy60 O64 2.398 . S
Dy60 O65 2.491 . S
Dy60 O66 2.403 . S
Dy60 O67 2.664 . S
Dy60 O71 2.326 . S
Dy60 O75 2.310 . S
Dy60 O76 2.351 . S
C61 O72 1.185 . S
C61 O73 1.355 . S
C62 O64 1.185 . S
C62 O65 1.355 . S
Dy63 O67 2.310 . S
Dy63 O70 2.351 . S
Dy63 O72 2.398 . S
Dy63 O73 2.491 . S
Dy63 O74 2.403 . S
Dy63 O75 2.664 . S
Dy63 O77 2.326 . S
O64 Dy60 2.398 . S
O64 C62 1.185 . S
O65 Dy60 2.491 . S
O65 C62 1.355 . S
O66 Dy60 2.403 . S
O66 C68 1.254 . S
O67 Dy60 2.664 . S
O67 Dy63 2.310 . S
O67 C68 1.268 . S
C68 O66 1.254 . S
C68 O67 1.268 . S
C69 O74 1.254 . S
C69 O75 1.268 . S
O70 Dy63 2.351 . S
O70 C78 1.249 . S
O71 Dy60 2.326 . S
O71 C78 1.267 . S
O72 C61 1.185 . S
O72 Dy63 2.398 . S
O73 C61 1.355 . S
O73 Dy63 2.491 . S
O74 Dy63 2.403 . S
O74 C69 1.254 . S
O75 Dy60 2.310 . S
O75 Dy63 2.664 . S
O75 C69 1.268 . S
O76 Dy60 2.351 . S
O76 C79 1.249 . S
O77 Dy63 2.326 . S
O77 C79 1.267 . S
C78 O70 1.249 . S
C78 O71 1.267 . S
C79 O76 1.249 . S
C79 O77 1.267 . S
Dy80 O84 2.398 . S
Dy80 O85 2.491 . S
Dy80 O86 2.403 . S
Dy80 O87 2.664 . S
Dy80 O91 2.326 . S
Dy80 O95 2.310 . S
Dy80 O96 2.351 . S
C81 O92 1.185 . S
C81 O93 1.355 . S
C82 O84 1.185 . S
C82 O85 1.355 . S
Dy83 O87 2.310 . S
Dy83 O90 2.351 . S
Dy83 O92 2.398 . S
Dy83 O93 2.491 . S
Dy83 O94 2.403 . S
Dy83 O95 2.664 . S
Dy83 O97 2.326 . S
O84 Dy80 2.398 . S
O84 C82 1.185 . S
O85 Dy80 2.491 . S
O85 C82 1.355 . S
O86 Dy80 2.403 . S
O86 C88 1.254 . S
O87 Dy80 2.664 . S
O87 Dy83 2.310 . S
O87 C88 1.268 . S
C88 O86 1.254 . S
C88 O87 1.268 . S
C89 O94 1.254 . S
C89 O95 1.268 . S
O90 Dy83 2.351 . S
O90 C98 1.249 . S
O91 Dy80 2.326 . S
O91 C98 1.267 . S
O92 C81 1.185 . S
O92 Dy83 2.398 . S
O93 C81 1.355 . S
O93 Dy83 2.491 . S
O94 Dy83 2.403 . S
O94 C89 1.254 . S
O95 Dy80 2.310 . S
O95 Dy83 2.664 . S
O95 C89 1.268 . S
O96 Dy80 2.351 . S
O96 C99 1.249 . S
O97 Dy83 2.326 . S
O97 C99 1.267 . S
C98 O90 1.249 . S
C98 O91 1.267 . S
C99 O96 1.249 . S
C99 O97 1.267 . S
Dy100 O104 2.398 . S
Dy100 O105 2.491 . S
Dy100 O106 2.403 . S
Dy100 O107 2.664 . S
Dy100 O111 2.326 . S
Dy100 O115 2.310 . S
Dy100 O116 2.351 . S
C101 O112 1.185 . S
C101 O113 1.355 . S
C102 O104 1.185 . S
C102 O105 1.355 . S
Dy103 O107 2.310 . S
Dy103 O110 2.351 . S
Dy103 O112 2.398 . S
Dy103 O113 2.491 . S
Dy103 O114 2.403 . S
Dy103 O115 2.664 . S
Dy103 O117 2.326 . S
O104 Dy100 2.398 . S
O104 C102 1.185 . S
O105 Dy100 2.491 . S
O105 C102 1.355 . S
O106 Dy100 2.403 . S
O106 C108 1.254 . S
O107 Dy100 2.664 . S
O107 Dy103 2.310 . S
O107 C108 1.268 . S
C108 O106 1.254 . S
C108 O107 1.268 . S
C109 O114 1.254 . S
C109 O115 1.268 . S
O110 Dy103 2.351 . S
O110 C118 1.249 . S
O111 Dy100 2.326 . S
O111 C118 1.267 . S
O112 C101 1.185 . S
O112 Dy103 2.398 . S
O113 C101 1.355 . S
O113 Dy103 2.491 . S
O114 Dy103 2.403 . S
O114 C109 1.254 . S
O115 Dy100 2.310 . S
O115 Dy103 2.664 . S
O115 C109 1.268 . S
O116 Dy100 2.351 . S
O116 C119 1.249 . S
O117 Dy103 2.326 . S
O117 C119 1.267 . S
C118 O110 1.249 . S
C118 O111 1.267 . S
C119 O116 1.249 . S
C119 O117 1.267 . S
Dy120 O124 2.398 . S
Dy120 O125 2.491 . S
Dy120 O126 2.403 . S
Dy120 O127 2.664 . S
Dy120 O131 2.326 . S
Dy120 O135 2.310 . S
Dy120 O136 2.351 . S
C121 O132 1.185 . S
C121 O133 1.355 . S
C122 O124 1.185 . S
C122 O125 1.355 . S
Dy123 O127 2.310 . S
Dy123 O130 2.351 . S
Dy123 O132 2.398 . S
Dy123 O133 2.491 . S
Dy123 O134 2.403 . S
Dy123 O135 2.664 . S
Dy123 O137 2.326 . S
O124 Dy120 2.398 . S
O124 C122 1.185 . S
O125 Dy120 2.491 . S
O125 C122 1.355 . S
O126 Dy120 2.403 . S
O126 C128 1.254 . S
O127 Dy120 2.664 . S
O127 Dy123 2.310 . S
O127 C128 1.268 . S
C128 O126 1.254 . S
C128 O127 1.268 . S
C129 O134 1.254 . S
C129 O135 1.268 . S
O130 Dy123 2.351 . S
O130 C138 1.249 . S
O131 Dy120 2.326 . S
O131 C138 1.267 . S
O132 C121 1.185 . S
O132 Dy123 2.398 . S
O133 C121 1.355 . S
O133 Dy123 2.491 . S
O134 Dy123 2.403 . S
O134 C129 1.254 . S
O135 Dy120 2.310 . S
O135 Dy123 2.664 . S
O135 C129 1.268 . S
O136 Dy120 2.351 . S
O136 C139 1.249 . S
O137 Dy123 2.326 . S
O137 C139 1.267 . S
C138 O130 1.249 . S
C138 O131 1.267 . S
C139 O136 1.249 . S
C139 O137 1.267 . S
Dy140 O144 2.398 . S
Dy140 O145 2.491 . S
Dy140 O146 2.403 . S
Dy140 O147 2.664 . S
Dy140 O151 2.326 . S
Dy140 O155 2.310 . S
Dy140 O156 2.351 . S
C141 O152 1.185 . S
C141 O153 1.355 . S
C142 O144 1.185 . S
C142 O145 1.355 . S
Dy143 O147 2.310 . S
Dy143 O150 2.351 . S
Dy143 O152 2.398 . S
Dy143 O153 2.491 . S
Dy143 O154 2.403 . S
Dy143 O155 2.664 . S
Dy143 O157 2.326 . S
O144 Dy140 2.398 . S
O144 C142 1.185 . S
O145 Dy140 2.491 . S
O145 C142 1.355 . S
O146 Dy140 2.403 . S
O146 C148 1.254 . S
O147 Dy140 2.664 . S
O147 Dy143 2.310 . S
O147 C148 1.268 . S
C148 O146 1.254 . S
C148 O147 1.268 . S
C149 O154 1.254 . S
C149 O155 1.268 . S
O150 Dy143 2.351 . S
O150 C158 1.249 . S
O151 Dy140 2.326 . S
O151 C158 1.267 . S
O152 C141 1.185 . S
O152 Dy143 2.398 . S
O153 C141 1.355 . S
O153 Dy143 2.491 . S
O154 Dy143 2.403 . S
O154 C149 1.254 . S
O155 Dy140 2.310 . S
O155 Dy143 2.664 . S
O155 C149 1.268 . S
O156 Dy140 2.351 . S
O156 C159 1.249 . S
O157 Dy143 2.326 . S
O157 C159 1.267 . S
C158 O150 1.249 . S
C158 O151 1.267 . S
C159 O156 1.249 . S
C159 O157 1.267 . S
Fe160 O161 1.886 1_455 S
Fe160 O164 1.715 . S
Fe160 O169 2.077 1_455 S
Fe160 O174 1.935 . S
Fe160 O180 2.077 1_455 S
Fe160 O189 1.935 . S
O161 Fe160 1.886 1_655 S
O161 Fe163 1.715 1_545 S
Fe162 O164 1.886 . S
Fe162 O165 1.715 1_545 S
Fe162 O172 1.935 1_545 S
Fe162 O173 2.077 . S
Fe162 O179 1.935 1_545 S
Fe162 O188 2.077 . S
Fe163 O161 1.715 1_565 S
Fe163 O166 1.886 . S
Fe163 O170 1.935 1_565 S
Fe163 O175 2.077 . S
Fe163 O181 1.935 1_565 S
Fe163 O185 2.077 . S
O164 Fe160 1.715 . S
O164 Fe162 1.886 . S
O165 Fe162 1.715 1_565 S
O165 Fe167 1.886 1_455 S
O166 Fe163 1.886 . S
O166 Fe167 1.715 . S
Fe167 O165 1.886 1_655 S
Fe167 O166 1.715 . S
Fe167 O171 2.077 1_655 S
Fe167 O176 1.935 . S
Fe167 O178 2.077 1_655 S
Fe167 O186 1.935 . S
C168 O180 1.381 . S
C168 O181 1.421 . S
O169 Fe160 2.077 1_655 S
O169 C182 1.381 . S
O170 Fe163 1.935 1_545 S
O170 C182 1.421 . S
O171 Fe167 2.077 1_455 S
O171 C187 1.381 . S
O172 Fe162 1.935 1_565 S
O172 C187 1.421 . S
O173 Fe162 2.077 . S
O173 C177 1.381 . S
O174 Fe160 1.935 . S
O174 C177 1.421 . S
O175 Fe163 2.077 . S
O175 C183 1.381 . S
O176 Fe167 1.935 . S
O176 C183 1.421 . S
C177 O173 1.381 . S
C177 O174 1.421 . S
O178 Fe167 2.077 1_455 S
O178 C190 1.381 . S
O179 Fe162 1.935 1_565 S
O179 C190 1.421 . S
O180 Fe160 2.077 1_655 S
O180 C168 1.381 . S
O181 Fe163 1.935 1_545 S
O181 C168 1.421 . S
C182 O169 1.381 . S
C182 O170 1.421 . S
C183 O175 1.381 . S
C183 O176 1.421 . S
C184 O185 1.381 . S
C184 O186 1.421 . S
O185 Fe163 2.077 . S
O185 C184 1.381 . S
O186 Fe167 1.935 . S
O186 C184 1.421 . S
C187 O171 1.381 . S
C187 O172 1.421 . S
O188 Fe162 2.077 . S
O188 C191 1.381 . S
O189 Fe160 1.935 . S
O189 C191 1.421 . S
C190 O178 1.381 . S
C190 O179 1.421 . S
C191 O188 1.381 . S
C191 O189 1.421 . S
Fe192 O193 1.886 1_556 S
Fe192 O196 1.715 . S
Fe192 O201 2.077 . S
Fe192 O206 1.935 . S
Fe192 O212 2.077 1_556 S
Fe192 O221 1.935 1_556 S
O193 Fe192 1.886 1_554 S
O193 Fe195 1.715 1_565 S
Fe194 O196 1.886 . S
Fe194 O197 1.715 1_565 S
Fe194 O204 1.935 1_565 S
Fe194 O205 2.077 . S
Fe194 O211 1.935 1_566 S
Fe194 O220 2.077 1_556 S
Fe195 O193 1.715 1_545 S
Fe195 O198 1.886 . S
Fe195 O202 1.935 1_544 S
Fe195 O207 2.077 1_554 S
Fe195 O213 1.935 1_545 S
Fe195 O217 2.077 . S
O196 Fe192 1.715 . S
O196 Fe194 1.886 . S
O197 Fe194 1.715 1_545 S
O197 Fe199 1.885 1_556 S
O198 Fe195 1.886 . S
O198 Fe199 1.715 . S
Fe199 O197 1.885 1_554 S
Fe199 O198 1.715 . S
Fe199 O203 2.077 1_554 S
Fe199 O208 1.935 1_554 S
Fe199 O210 2.077 . S
Fe199 O218 1.935 . S
C200 O212 1.381 . S
C200 O213 1.421 . S
O201 Fe192 2.077 . S
O201 C214 1.381 . S
O202 Fe195 1.935 1_566 S
O202 C214 1.421 . S
O203 Fe199 2.077 1_556 S
O203 C219 1.381 . S
O204 Fe194 1.935 1_545 S
O204 C219 1.421 . S
O205 Fe194 2.077 . S
O205 C209 1.381 . S
O206 Fe192 1.935 . S
O206 C209 1.421 . S
O207 Fe195 2.077 1_556 S
O207 C215 1.381 . S
O208 Fe199 1.935 1_556 S
O208 C215 1.421 . S
C209 O205 1.381 . S
C209 O206 1.421 . S
O210 Fe199 2.077 . S
O210 C222 1.381 . S
O211 Fe194 1.935 1_544 S
O211 C222 1.421 . S
O212 Fe192 2.077 1_554 S
O212 C200 1.381 . S
O213 Fe195 1.935 1_565 S
O213 C200 1.421 . S
C214 O201 1.381 . S
C214 O202 1.421 . S
C215 O207 1.381 . S
C215 O208 1.421 . S
C216 O217 1.381 . S
C216 O218 1.421 . S
O217 Fe195 2.077 . S
O217 C216 1.381 . S
O218 Fe199 1.935 . S
O218 C216 1.421 . S
C219 O203 1.381 . S
C219 O204 1.421 . S
O220 Fe194 2.077 1_554 S
O220 C223 1.381 . S
O221 Fe192 1.935 1_554 S
O221 C223 1.421 . S
C222 O210 1.381 . S
C222 O211 1.421 . S
C223 O220 1.381 . S
C223 O221 1.421 . S
Fe224 O225 1.885 1_454 S
Fe224 O228 1.715 . S
Fe224 O233 2.077 1_454 S
Fe224 O238 1.935 1_554 S
Fe224 O244 2.077 1_455 S
Fe224 O253 1.935 . S
O225 Fe224 1.885 1_656 S
O225 Fe227 1.715 . S
Fe226 O228 1.886 . S
Fe226 O229 1.715 . S
Fe226 O236 1.935 1_554 S
Fe226 O237 2.077 1_554 S
Fe226 O243 1.935 . S
Fe226 O252 2.077 . S
Fe227 O225 1.715 . S
Fe227 O230 1.886 . S
Fe227 O234 1.935 . S
Fe227 O239 2.077 . S
Fe227 O245 1.935 1_556 S
Fe227 O249 2.077 1_556 S
O228 Fe224 1.715 . S
O228 Fe226 1.886 . S
O229 Fe226 1.715 . S
O229 Fe231 1.886 1_454 S
O230 Fe227 1.886 . S
O230 Fe231 1.715 . S
Fe231 O229 1.886 1_656 S
Fe231 O230 1.715 . S
Fe231 O235 2.077 1_655 S
Fe231 O240 1.935 . S
Fe231 O242 2.077 1_656 S
Fe231 O250 1.935 1_556 S
C232 O244 1.381 . S
C232 O245 1.421 . S
O233 Fe224 2.077 1_656 S
O233 C246 1.381 . S
O234 Fe227 1.935 . S
O234 C246 1.421 . S
O235 Fe231 2.077 1_455 S
O235 C251 1.381 . S
O236 Fe226 1.935 1_556 S
O236 C251 1.421 . S
O237 Fe226 2.077 1_556 S
O237 C241 1.381 . S
O238 Fe224 1.935 1_556 S
O238 C241 1.421 . S
O239 Fe227 2.077 . S
O239 C247 1.381 . S
O240 Fe231 1.935 . S
O240 C247 1.421 . S
C241 O237 1.381 . S
C241 O238 1.421 . S
O242 Fe231 2.077 1_454 S
O242 C254 1.381 . S
O243 Fe226 1.935 . S
O243 C254 1.421 . S
O244 Fe224 2.077 1_655 S
O244 C232 1.381 . S
O245 Fe227 1.935 1_554 S
O245 C232 1.421 . S
C246 O233 1.381 . S
C246 O234 1.421 . S
C247 O239 1.381 . S
C247 O240 1.421 . S
C248 O249 1.381 . S
C248 O250 1.421 . S
O249 Fe227 2.077 1_554 S
O249 C248 1.381 . S
O250 Fe231 1.935 1_554 S
O250 C248 1.421 . S
C251 O235 1.381 . S
C251 O236 1.421 . S
O252 Fe226 2.077 . S
O252 C255 1.381 . S
O253 Fe224 1.935 . S
O253 C255 1.421 . S
C254 O242 1.381 . S
C254 O243 1.421 . S
C255 O252 1.381 . S
C255 O253 1.421 . S
Fe256 O257 1.886 . S
Fe256 O260 1.715 . S
Fe256 O265 2.077 . S
Fe256 O270 1.935 . S
Fe256 O276 2.077 . S
Fe256 O285 1.935 . S
O257 Fe256 1.886 . S
O257 Fe259 1.715 1_556 S
Fe258 O260 1.886 . S
Fe258 O261 1.715 1_556 S
Fe258 O268 1.935 1_556 S
Fe258 O269 2.077 . S
Fe258 O275 1.935 1_556 S
Fe258 O284 2.077 . S
Fe259 O257 1.715 1_554 S
Fe259 O262 1.886 . S
Fe259 O266 1.935 1_554 S
Fe259 O271 2.077 . S
Fe259 O277 1.935 1_554 S
Fe259 O281 2.077 . S
O260 Fe256 1.715 . S
O260 Fe258 1.886 . S
O261 Fe258 1.715 1_554 S
O261 Fe263 1.886 . S
O262 Fe259 1.886 . S
O262 Fe263 1.715 . S
Fe263 O261 1.886 . S
Fe263 O262 1.715 . S
Fe263 O267 2.077 . S
Fe263 O272 1.935 . S
Fe263 O274 2.077 . S
Fe263 O282 1.935 . S
C264 O276 1.381 . S
C264 O277 1.421 . S
O265 Fe256 2.077 . S
O265 C278 1.381 . S
O266 Fe259 1.935 1_556 S
O266 C278 1.421 . S
O267 Fe263 2.077 . S
O267 C283 1.381 . S
O268 Fe258 1.935 1_554 S
O268 C283 1.421 . S
O269 Fe258 2.077 . S
O269 C273 1.381 . S
O270 Fe256 1.935 . S
O270 C273 1.421 . S
O271 Fe259 2.077 . S
O271 C279 1.381 . S
O272 Fe263 1.935 . S
O272 C279 1.421 . S
C273 O269 1.381 . S
C273 O270 1.421 . S
O274 Fe263 2.077 . S
O274 C286 1.381 . S
O275 Fe258 1.935 1_554 S
O275 C286 1.421 . S
O276 Fe256 2.077 . S
O276 C264 1.381 . S
O277 Fe259 1.935 1_556 S
O277 C264 1.421 . S
C278 O265 1.381 . S
C278 O266 1.421 . S
C279 O271 1.381 . S
C279 O272 1.421 . S
C280 O281 1.381 . S
C280 O282 1.421 . S
O281 Fe259 2.077 . S
O281 C280 1.381 . S
O282 Fe263 1.935 . S
O282 C280 1.421 . S
C283 O267 1.381 . S
C283 O268 1.421 . S
O284 Fe258 2.077 . S
O284 C287 1.381 . S
O285 Fe256 1.935 . S
O285 C287 1.421 . S
C286 O274 1.381 . S
C286 O275 1.421 . S
C287 O284 1.381 . S
C287 O285 1.421 . S
Fe288 O289 1.886 . S
Fe288 O292 1.715 . S
Fe288 O297 2.077 1_655 S
Fe288 O302 1.935 1_655 S
Fe288 O308 2.077 . S
Fe288 O317 1.935 . S
O289 Fe288 1.886 . S
O289 Fe291 1.715 1_655 S
Fe290 O292 1.886 . S
Fe290 O293 1.715 1_655 S
Fe290 O300 1.935 1_655 S
Fe290 O301 2.077 1_655 S
Fe290 O307 1.935 . S
Fe290 O316 2.077 . S
Fe291 O289 1.715 1_455 S
Fe291 O294 1.886 . S
Fe291 O298 1.935 . S
Fe291 O303 2.077 . S
Fe291 O309 1.935 1_455 S
Fe291 O313 2.077 1_455 S
O292 Fe288 1.715 . S
O292 Fe290 1.886 . S
O293 Fe290 1.715 1_455 S
O293 Fe295 1.886 . S
O294 Fe291 1.886 . S
O294 Fe295 1.715 . S
Fe295 O293 1.886 . S
Fe295 O294 1.715 . S
Fe295 O299 2.077 . S
Fe295 O304 1.935 . S
Fe295 O306 2.077 1_455 S
Fe295 O314 1.935 1_455 S
C296 O308 1.381 . S
C296 O309 1.421 . S
O297 Fe288 2.077 1_455 S
O297 C310 1.381 . S
O298 Fe291 1.935 . S
O298 C310 1.421 . S
O299 Fe295 2.077 . S
O299 C315 1.381 . S
O300 Fe290 1.935 1_455 S
O300 C315 1.421 . S
O301 Fe290 2.077 1_455 S
O301 C305 1.381 . S
O302 Fe288 1.935 1_455 S
O302 C305 1.421 . S
O303 Fe291 2.077 . S
O303 C311 1.381 . S
O304 Fe295 1.935 . S
O304 C311 1.421 . S
C305 O301 1.381 . S
C305 O302 1.421 . S
O306 Fe295 2.077 1_655 S
O306 C318 1.381 . S
O307 Fe290 1.935 . S
O307 C318 1.421 . S
O308 Fe288 2.077 . S
O308 C296 1.381 . S
O309 Fe291 1.935 1_655 S
O309 C296 1.421 . S
C310 O297 1.381 . S
C310 O298 1.421 . S
C311 O303 1.381 . S
C311 O304 1.421 . S
C312 O313 1.381 . S
C312 O314 1.421 . S
O313 Fe291 2.077 1_655 S
O313 C312 1.381 . S
O314 Fe295 1.935 1_655 S
O314 C312 1.421 . S
C315 O299 1.381 . S
C315 O300 1.421 . S
O316 Fe290 2.077 . S
O316 C319 1.381 . S
O317 Fe288 1.935 . S
O317 C319 1.421 . S
C318 O306 1.381 . S
C318 O307 1.421 . S
C319 O316 1.381 . S
C319 O317 1.421 . S
Fe320 O321 1.886 . S
Fe320 O324 1.715 . S
Fe320 O329 2.077 . S
Fe320 O334 1.935 . S
Fe320 O340 2.077 . S
Fe320 O349 1.935 . S
O321 Fe320 1.886 . S
O321 Fe323 1.715 1_565 S
Fe322 O324 1.886 . S
Fe322 O325 1.715 1_565 S
Fe322 O332 1.935 1_565 S
Fe322 O333 2.077 . S
Fe322 O339 1.935 1_565 S
Fe322 O348 2.077 . S
Fe323 O321 1.715 1_545 S
Fe323 O326 1.886 . S
Fe323 O330 1.935 1_545 S
Fe323 O335 2.077 . S
Fe323 O341 1.935 1_545 S
Fe323 O345 2.077 . S
O324 Fe320 1.715 . S
O324 Fe322 1.886 . S
O325 Fe322 1.715 1_545 S
O325 Fe327 1.886 . S
O326 Fe323 1.886 . S
O326 Fe327 1.715 . S
Fe327 O325 1.886 . S
Fe327 O326 1.715 . S
Fe327 O331 2.077 . S
Fe327 O336 1.935 . S
Fe327 O338 2.077 . S
Fe327 O346 1.935 . S
C328 O340 1.381 . S
C328 O341 1.421 . S
O329 Fe320 2.077 . S
O329 C342 1.381 . S
O330 Fe323 1.935 1_565 S
O330 C342 1.421 . S
O331 Fe327 2.077 . S
O331 C347 1.381 . S
O332 Fe322 1.935 1_545 S
O332 C347 1.421 . S
O333 Fe322 2.077 . S
O333 C337 1.381 . S
O334 Fe320 1.935 . S
O334 C337 1.421 . S
O335 Fe323 2.077 . S
O335 C343 1.381 . S
O336 Fe327 1.935 . S
O336 C343 1.421 . S
C337 O333 1.381 . S
C337 O334 1.421 . S
O338 Fe327 2.077 . S
O338 C350 1.381 . S
O339 Fe322 1.935 1_545 S
O339 C350 1.421 . S
O340 Fe320 2.077 . S
O340 C328 1.381 . S
O341 Fe323 1.935 1_565 S
O341 C328 1.421 . S
C342 O329 1.381 . S
C342 O330 1.421 . S
C343 O335 1.381 . S
C343 O336 1.421 . S
C344 O345 1.381 . S
C344 O346 1.421 . S
O345 Fe323 2.077 . S
O345 C344 1.381 . S
O346 Fe327 1.935 . S
O346 C344 1.421 . S
C347 O331 1.381 . S
C347 O332 1.421 . S
O348 Fe322 2.077 . S
O348 C351 1.381 . S
O349 Fe320 1.935 . S
O349 C351 1.421 . S
C350 O338 1.381 . S
C350 O339 1.421 . S
C351 O348 1.381 . S
C351 O349 1.421 . S
H352 C358 0.930 . S
H353 C361 0.930 . S
H354 C362 0.930 . S
H355 C363 0.930 . S
H356 C366 0.930 . S
H357 C367 0.930 . S
C358 H352 0.930 . S
C358 C359 1.355 . S
C358 C360 1.415 . S
C359 C358 1.355 . S
C359 C361 1.419 . S
C360 C358 1.415 . S
C360 C365 1.425 . S
C360 C367 1.409 . S
C361 H353 0.930 . S
C361 C359 1.419 . S
C361 C362 1.362 . S
C362 H354 0.930 . S
C362 C361 1.362 . S
C362 C365 1.409 . S
C363 H355 0.930 . S
C363 C364 1.355 . S
C363 C365 1.415 . S
C364 C363 1.355 . S
C364 C366 1.419 . S
C365 C360 1.425 . S
C365 C362 1.409 . S
C365 C363 1.415 . S
C366 H356 0.930 . S
C366 C364 1.419 . S
C366 C367 1.362 . S
C367 H357 0.930 . S
C367 C360 1.409 . S
C367 C366 1.362 . S
H368 C374 0.930 . S
H369 C377 0.930 . S
H370 C378 0.930 . S
H371 C379 0.930 . S
H372 C382 0.930 . S
H373 C383 0.930 . S
C374 H368 0.930 . S
C374 C375 1.355 . S
C374 C376 1.415 . S
C375 C374 1.355 . S
C375 C377 1.419 . S
C376 C374 1.415 . S
C376 C381 1.425 . S
C376 C383 1.409 . S
C377 H369 0.930 . S
C377 C375 1.419 . S
C377 C378 1.362 . S
C378 H370 0.930 . S
C378 C377 1.362 . S
C378 C381 1.409 . S
C379 H371 0.930 . S
C379 C380 1.355 . S
C379 C381 1.415 . S
C380 C379 1.355 . S
C380 C382 1.419 . S
C381 C376 1.425 . S
C381 C378 1.409 . S
C381 C379 1.415 . S
C382 H372 0.930 . S
C382 C380 1.419 . S
C382 C383 1.362 . S
C383 H373 0.930 . S
C383 C376 1.409 . S
C383 C382 1.362 . S
H384 C390 0.930 . S
H385 C393 0.930 . S
H386 C394 0.930 . S
H387 C395 0.930 . S
H388 C398 0.930 . S
H389 C399 0.930 . S
C390 H384 0.930 . S
C390 C391 1.355 . S
C390 C392 1.415 . S
C391 C390 1.355 . S
C391 C393 1.419 . S
C392 C390 1.415 . S
C392 C397 1.425 . S
C392 C399 1.409 . S
C393 H385 0.930 . S
C393 C391 1.419 . S
C393 C394 1.362 . S
C394 H386 0.930 . S
C394 C393 1.362 . S
C394 C397 1.409 . S
C395 H387 0.930 . S
C395 C396 1.355 . S
C395 C397 1.415 . S
C396 C395 1.355 . S
C396 C398 1.419 . S
C397 C392 1.425 . S
C397 C394 1.409 . S
C397 C395 1.415 . S
C398 H388 0.930 . S
C398 C396 1.419 . S
C398 C399 1.362 . S
C399 H389 0.930 . S
C399 C392 1.409 . S
C399 C398 1.362 . S
H400 C406 0.930 . S
H401 C409 0.930 . S
H402 C410 0.930 . S
H403 C411 0.930 . S
H404 C414 0.930 . S
H405 C415 0.930 . S
C406 H400 0.930 . S
C406 C407 1.355 . S
C406 C408 1.415 . S
C407 C406 1.355 . S
C407 C409 1.419 . S
C408 C406 1.415 . S
C408 C413 1.425 . S
C408 C415 1.409 . S
C409 H401 0.930 . S
C409 C407 1.419 . S
C409 C410 1.362 . S
C410 H402 0.930 . S
C410 C409 1.362 . S
C410 C413 1.409 . S
C411 H403 0.930 . S
C411 C412 1.355 . S
C411 C413 1.415 . S
C412 C411 1.355 . S
C412 C414 1.419 . S
C413 C408 1.425 . S
C413 C410 1.409 . S
C413 C411 1.415 . S
C414 H404 0.930 . S
C414 C412 1.419 . S
C414 C415 1.362 . S
C415 H405 0.930 . S
C415 C408 1.409 . S
C415 C414 1.362 . S
H416 C422 0.930 . S
H417 C425 0.930 . S
H418 C426 0.930 . S
H419 C427 0.930 . S
H420 C430 0.930 . S
H421 C431 0.930 . S
C422 H416 0.930 . S
C422 C423 1.355 . S
C422 C424 1.415 . S
C423 C422 1.355 . S
C423 C425 1.419 . S
C424 C422 1.415 . S
C424 C429 1.425 . S
C424 C431 1.409 . S
C425 H417 0.930 . S
C425 C423 1.419 . S
C425 C426 1.362 . S
C426 H418 0.930 . S
C426 C425 1.362 . S
C426 C429 1.409 . S
C427 H419 0.930 . S
C427 C428 1.355 . S
C427 C429 1.415 . S
C428 C427 1.355 . S
C428 C430 1.419 . S
C429 C424 1.425 . S
C429 C426 1.409 . S
C429 C427 1.415 . S
C430 H420 0.930 . S
C430 C428 1.419 . S
C430 C431 1.362 . S
C431 H421 0.930 . S
C431 C424 1.409 . S
C431 C430 1.362 . S
H432 C438 0.930 . S
H433 C441 0.930 . S
H434 C442 0.930 . S
H435 C443 0.930 . S
H436 C446 0.930 . S
H437 C447 0.930 . S
C438 H432 0.930 . S
C438 C439 1.355 . S
C438 C440 1.415 . S
C439 C438 1.355 . S
C439 C441 1.419 . S
C440 C438 1.415 . S
C440 C445 1.425 . S
C440 C447 1.409 . S
C441 H433 0.930 . S
C441 C439 1.419 . S
C441 C442 1.362 . S
C442 H434 0.930 . S
C442 C441 1.362 . S
C442 C445 1.409 . S
C443 H435 0.930 . S
C443 C444 1.355 . S
C443 C445 1.415 . S
C444 C443 1.355 . S
C444 C446 1.419 . S
C445 C440 1.425 . S
C445 C442 1.409 . S
C445 C443 1.415 . S
C446 H436 0.930 . S
C446 C444 1.419 . S
C446 C447 1.362 . S
C447 H437 0.930 . S
C447 C440 1.409 . S
C447 C446 1.362 . S
H448 C454 0.930 . S
H449 C457 0.930 . S
H450 C458 0.930 . S
H451 C459 0.930 . S
H452 C462 0.930 . S
H453 C463 0.930 . S
C454 H448 0.930 . S
C454 C455 1.355 . S
C454 C456 1.415 . S
C455 C454 1.355 . S
C455 C457 1.419 . S
C456 C454 1.415 . S
C456 C461 1.425 . S
C456 C463 1.409 . S
C457 H449 0.930 . S
C457 C455 1.419 . S
C457 C458 1.362 . S
C458 H450 0.930 . S
C458 C457 1.362 . S
C458 C461 1.409 . S
C459 H451 0.930 . S
C459 C460 1.355 . S
C459 C461 1.415 . S
C460 C459 1.355 . S
C460 C462 1.419 . S
C461 C456 1.425 . S
C461 C458 1.409 . S
C461 C459 1.415 . S
C462 H452 0.930 . S
C462 C460 1.419 . S
C462 C463 1.362 . S
C463 H453 0.930 . S
C463 C456 1.409 . S
C463 C462 1.362 . S
H464 C470 0.930 . S
H465 C473 0.930 . S
H466 C474 0.930 . S
H467 C475 0.930 . S
H468 C478 0.930 . S
H469 C479 0.930 . S
C470 H464 0.930 . S
C470 C471 1.355 . S
C470 C472 1.415 . S
C471 C470 1.355 . S
C471 C473 1.419 . S
C472 C470 1.415 . S
C472 C477 1.425 . S
C472 C479 1.409 . S
C473 H465 0.930 . S
C473 C471 1.419 . S
C473 C474 1.362 . S
C474 H466 0.930 . S
C474 C473 1.362 . S
C474 C477 1.409 . S
C475 H467 0.930 . S
C475 C476 1.355 . S
C475 C477 1.415 . S
C476 C475 1.355 . S
C476 C478 1.419 . S
C477 C472 1.425 . S
C477 C474 1.409 . S
C477 C475 1.415 . S
C478 H468 0.930 . S
C478 C476 1.419 . S
C478 C479 1.362 . S
C479 H469 0.930 . S
C479 C472 1.409 . S
C479 C478 1.362 . S
H480 C486 0.930 . S
H481 C489 0.930 . S
H482 C490 0.930 . S
H483 C491 0.930 . S
H484 C494 0.930 . S
H485 C495 0.930 . S
C486 H480 0.930 . S
C486 C487 1.355 . S
C486 C488 1.415 . S
C487 C486 1.355 . S
C487 C489 1.419 . S
C488 C486 1.415 . S
C488 C493 1.425 . S
C488 C495 1.409 . S
C489 H481 0.930 . S
C489 C487 1.419 . S
C489 C490 1.362 . S
C490 H482 0.930 . S
C490 C489 1.362 . S
C490 C493 1.409 . S
C491 H483 0.930 . S
C491 C492 1.355 . S
C491 C493 1.415 . S
C492 C491 1.355 . S
C492 C494 1.419 . S
C493 C488 1.425 . S
C493 C490 1.409 . S
C493 C491 1.415 . S
C494 H484 0.930 . S
C494 C492 1.419 . S
C494 C495 1.362 . S
C495 H485 0.930 . S
C495 C488 1.409 . S
C495 C494 1.362 . S
H496 C502 0.930 . S
H497 C505 0.930 . S
H498 C506 0.930 . S
H499 C507 0.930 . S
H500 C510 0.930 . S
H501 C511 0.930 . S
C502 H496 0.930 . S
C502 C503 1.355 . S
C502 C504 1.415 . S
C503 C502 1.355 . S
C503 C505 1.419 . S
C504 C502 1.415 . S
C504 C509 1.425 . S
C504 C511 1.409 . S
C505 H497 0.930 . S
C505 C503 1.419 . S
C505 C506 1.362 . S
C506 H498 0.930 . S
C506 C505 1.362 . S
C506 C509 1.409 . S
C507 H499 0.930 . S
C507 C508 1.355 . S
C507 C509 1.415 . S
C508 C507 1.355 . S
C508 C510 1.419 . S
C509 C504 1.425 . S
C509 C506 1.409 . S
C509 C507 1.415 . S
C510 H500 0.930 . S
C510 C508 1.419 . S
C510 C511 1.362 . S
C511 H501 0.930 . S
C511 C504 1.409 . S
C511 C510 1.362 . S
H512 C518 0.930 . S
H513 C521 0.930 . S
H514 C522 0.930 . S
H515 C523 0.930 . S
H516 C526 0.930 . S
H517 C527 0.930 . S
C518 H512 0.930 . S
C518 C519 1.355 . S
C518 C520 1.415 . S
C519 C518 1.355 . S
C519 C521 1.419 . S
C520 C518 1.415 . S
C520 C525 1.425 . S
C520 C527 1.409 . S
C521 H513 0.930 . S
C521 C519 1.419 . S
C521 C522 1.362 . S
C522 H514 0.930 . S
C522 C521 1.362 . S
C522 C525 1.409 . S
C523 H515 0.930 . S
C523 C524 1.355 . S
C523 C525 1.415 . S
C524 C523 1.355 . S
C524 C526 1.419 . S
C525 C520 1.425 . S
C525 C522 1.409 . S
C525 C523 1.415 . S
C526 H516 0.930 . S
C526 C524 1.419 . S
C526 C527 1.362 . S
C527 H517 0.930 . S
C527 C520 1.409 . S
C527 C526 1.362 . S
H528 C534 0.930 . S
H529 C537 0.930 . S
H530 C538 0.930 . S
H531 C539 0.930 . S
H532 C542 0.930 . S
H533 C543 0.930 . S
C534 H528 0.930 . S
C534 C535 1.355 . S
C534 C536 1.415 . S
C535 C534 1.355 . S
C535 C537 1.419 . S
C536 C534 1.415 . S
C536 C541 1.425 . S
C536 C543 1.409 . S
C537 H529 0.930 . S
C537 C535 1.419 . S
C537 C538 1.362 . S
C538 H530 0.930 . S
C538 C537 1.362 . S
C538 C541 1.409 . S
C539 H531 0.930 . S
C539 C540 1.355 . S
C539 C541 1.415 . S
C540 C539 1.355 . S
C540 C542 1.419 . S
C541 C536 1.425 . S
C541 C538 1.409 . S
C541 C539 1.415 . S
C542 H532 0.930 . S
C542 C540 1.419 . S
C542 C543 1.362 . S
C543 H533 0.930 . S
C543 C536 1.409 . S
C543 C542 1.362 . S
H544 C550 0.930 . S
H545 C553 0.930 . S
H546 C554 0.930 . S
H547 C555 0.930 . S
H548 C558 0.930 . S
H549 C559 0.930 . S
C550 H544 0.930 . S
C550 C551 1.355 . S
C550 C552 1.415 . S
C551 C550 1.355 . S
C551 C553 1.419 . S
C552 C550 1.415 . S
C552 C557 1.425 . S
C552 C559 1.409 . S
C553 H545 0.930 . S
C553 C551 1.419 . S
C553 C554 1.362 . S
C554 H546 0.930 . S
C554 C553 1.362 . S
C554 C557 1.409 . S
C555 H547 0.930 . S
C555 C556 1.355 . S
C555 C557 1.415 . S
C556 C555 1.355 . S
C556 C558 1.419 . S
C557 C552 1.425 . S
C557 C554 1.409 . S
C557 C555 1.415 . S
C558 H548 0.930 . S
C558 C556 1.419 . S
C558 C559 1.362 . S
C559 H549 0.930 . S
C559 C552 1.409 . S
C559 C558 1.362 . S
H560 C566 0.930 . S
H561 C569 0.930 . S
H562 C570 0.930 . S
H563 C571 0.930 . S
H564 C574 0.930 . S
H565 C575 0.930 . S
C566 H560 0.930 . S
C566 C567 1.355 . S
C566 C568 1.415 . S
C567 C566 1.355 . S
C567 C569 1.419 . S
C568 C566 1.415 . S
C568 C573 1.425 . S
C568 C575 1.409 . S
C569 H561 0.930 . S
C569 C567 1.419 . S
C569 C570 1.362 . S
C570 H562 0.930 . S
C570 C569 1.362 . S
C570 C573 1.409 . S
C571 H563 0.930 . S
C571 C572 1.355 . S
C571 C573 1.415 . S
C572 C571 1.355 . S
C572 C574 1.419 . S
C573 C568 1.425 . S
C573 C570 1.409 . S
C573 C571 1.415 . S
C574 H564 0.930 . S
C574 C572 1.419 . S
C574 C575 1.362 . S
C575 H565 0.930 . S
C575 C568 1.409 . S
C575 C574 1.362 . S
H576 C582 0.930 . S
H577 C585 0.930 . S
H578 C586 0.930 . S
H579 C587 0.930 . S
H580 C590 0.930 . S
H581 C591 0.930 . S
C582 H576 0.930 . S
C582 C583 1.355 . S
C582 C584 1.415 . S
C583 C582 1.355 . S
C583 C585 1.419 . S
C584 C582 1.415 . S
C584 C589 1.425 . S
C584 C591 1.409 . S
C585 H577 0.930 . S
C585 C583 1.419 . S
C585 C586 1.362 . S
C586 H578 0.930 . S
C586 C585 1.362 . S
C586 C589 1.409 . S
C587 H579 0.930 . S
C587 C588 1.355 . S
C587 C589 1.415 . S
C588 C587 1.355 . S
C588 C590 1.419 . S
C589 C584 1.425 . S
C589 C586 1.409 . S
C589 C587 1.415 . S
C590 H580 0.930 . S
C590 C588 1.419 . S
C590 C591 1.362 . S
C591 H581 0.930 . S
C591 C584 1.409 . S
C591 C590 1.362 . S
H592 C598 0.930 . S
H593 C601 0.930 . S
H594 C602 0.930 . S
H595 C603 0.930 . S
H596 C606 0.930 . S
H597 C607 0.930 . S
C598 H592 0.930 . S
C598 C599 1.355 . S
C598 C600 1.415 . S
C599 C598 1.355 . S
C599 C601 1.419 . S
C600 C598 1.415 . S
C600 C605 1.425 . S
C600 C607 1.409 . S
C601 H593 0.930 . S
C601 C599 1.419 . S
C601 C602 1.362 . S
C602 H594 0.930 . S
C602 C601 1.362 . S
C602 C605 1.409 . S
C603 H595 0.930 . S
C603 C604 1.355 . S
C603 C605 1.415 . S
C604 C603 1.355 . S
C604 C606 1.419 . S
C605 C600 1.425 . S
C605 C602 1.409 . S
C605 C603 1.415 . S
C606 H596 0.930 . S
C606 C604 1.419 . S
C606 C607 1.362 . S
C607 H597 0.930 . S
C607 C600 1.409 . S
C607 C606 1.362 . S
H608 C614 0.930 . S
H609 C617 0.930 . S
H610 C618 0.930 . S
H611 C619 0.930 . S
H612 C622 0.930 . S
H613 C623 0.930 . S
C614 H608 0.930 . S
C614 C615 1.355 . S
C614 C616 1.415 . S
C615 C614 1.355 . S
C615 C617 1.419 . S
C616 C614 1.415 . S
C616 C621 1.425 . S
C616 C623 1.409 . S
C617 H609 0.930 . S
C617 C615 1.419 . S
C617 C618 1.362 . S
C618 H610 0.930 . S
C618 C617 1.362 . S
C618 C621 1.409 . S
C619 H611 0.930 . S
C619 C620 1.355 . S
C619 C621 1.415 . S
C620 C619 1.355 . S
C620 C622 1.419 . S
C621 C616 1.425 . S
C621 C618 1.409 . S
C621 C619 1.415 . S
C622 H612 0.930 . S
C622 C620 1.419 . S
C622 C623 1.362 . S
C623 H613 0.930 . S
C623 C616 1.409 . S
C623 C622 1.362 . S
H624 C630 0.930 . S
H625 C633 0.930 . S
H626 C634 0.930 . S
H627 C635 0.930 . S
H628 C638 0.930 . S
H629 C639 0.930 . S
C630 H624 0.930 . S
C630 C631 1.355 . S
C630 C632 1.415 . S
C631 C630 1.355 . S
C631 C633 1.419 . S
C632 C630 1.415 . S
C632 C637 1.425 . S
C632 C639 1.409 . S
C633 H625 0.930 . S
C633 C631 1.419 . S
C633 C634 1.362 . S
C634 H626 0.930 . S
C634 C633 1.362 . S
C634 C637 1.409 . S
C635 H627 0.930 . S
C635 C636 1.355 . S
C635 C637 1.415 . S
C636 C635 1.355 . S
C636 C638 1.419 . S
C637 C632 1.425 . S
C637 C634 1.409 . S
C637 C635 1.415 . S
C638 H628 0.930 . S
C638 C636 1.419 . S
C638 C639 1.362 . S
C639 H629 0.930 . S
C639 C632 1.409 . S
C639 C638 1.362 . S
H640 C646 0.930 . S
H641 C649 0.930 . S
H642 C650 0.930 . S
H643 C651 0.930 . S
H644 C654 0.930 . S
H645 C655 0.930 . S
C646 H640 0.930 . S
C646 C647 1.355 . S
C646 C648 1.415 . S
C647 C646 1.355 . S
C647 C649 1.419 . S
C648 C646 1.415 . S
C648 C653 1.425 . S
C648 C655 1.409 . S
C649 H641 0.930 . S
C649 C647 1.419 . S
C649 C650 1.362 . S
C650 H642 0.930 . S
C650 C649 1.362 . S
C650 C653 1.409 . S
C651 H643 0.930 . S
C651 C652 1.355 . S
C651 C653 1.415 . S
C652 C651 1.355 . S
C652 C654 1.419 . S
C653 C648 1.425 . S
C653 C650 1.409 . S
C653 C651 1.415 . S
C654 H644 0.930 . S
C654 C652 1.419 . S
C654 C655 1.362 . S
C655 H645 0.930 . S
C655 C648 1.409 . S
C655 C654 1.362 . S
H656 C662 0.930 . S
H657 C665 0.930 . S
H658 C666 0.930 . S
H659 C667 0.930 . S
H660 C670 0.930 . S
H661 C671 0.930 . S
C662 H656 0.930 . S
C662 C663 1.355 . S
C662 C664 1.415 . S
C663 C662 1.355 . S
C663 C665 1.419 . S
C664 C662 1.415 . S
C664 C669 1.425 . S
C664 C671 1.409 . S
C665 H657 0.930 . S
C665 C663 1.419 . S
C665 C666 1.362 . S
C666 H658 0.930 . S
C666 C665 1.362 . S
C666 C669 1.409 . S
C667 H659 0.930 . S
C667 C668 1.355 . S
C667 C669 1.415 . S
C668 C667 1.355 . S
C668 C670 1.419 . S
C669 C664 1.425 . S
C669 C666 1.409 . S
C669 C667 1.415 . S
C670 H660 0.930 . S
C670 C668 1.419 . S
C670 C671 1.362 . S
C671 H661 0.930 . S
C671 C664 1.409 . S
C671 C670 1.362 . S
H672 C678 0.930 . S
H673 C681 0.930 . S
H674 C682 0.930 . S
H675 C683 0.930 . S
H676 C686 0.930 . S
H677 C687 0.930 . S
C678 H672 0.930 . S
C678 C679 1.355 . S
C678 C680 1.415 . S
C679 C678 1.355 . S
C679 C681 1.419 . S
C680 C678 1.415 . S
C680 C685 1.425 . S
C680 C687 1.409 . S
C681 H673 0.930 . S
C681 C679 1.419 . S
C681 C682 1.362 . S
C682 H674 0.930 . S
C682 C681 1.362 . S
C682 C685 1.409 . S
C683 H675 0.930 . S
C683 C684 1.355 . S
C683 C685 1.415 . S
C684 C683 1.355 . S
C684 C686 1.419 . S
C685 C680 1.425 . S
C685 C682 1.409 . S
C685 C683 1.415 . S
C686 H676 0.930 . S
C686 C684 1.419 . S
C686 C687 1.362 . S
C687 H677 0.930 . S
C687 C680 1.409 . S
C687 C686 1.362 . S
H688 C694 0.930 . S
H689 C697 0.930 . S
H690 C698 0.930 . S
H691 C699 0.930 . S
H692 C702 0.930 . S
H693 C703 0.930 . S
C694 H688 0.930 . S
C694 C695 1.355 . S
C694 C696 1.415 . S
C695 C694 1.355 . S
C695 C697 1.419 . S
C696 C694 1.415 . S
C696 C701 1.425 . S
C696 C703 1.409 . S
C697 H689 0.930 . S
C697 C695 1.419 . S
C697 C698 1.362 . S
C698 H690 0.930 . S
C698 C697 1.362 . S
C698 C701 1.409 . S
C699 H691 0.930 . S
C699 C700 1.355 . S
C699 C701 1.415 . S
C700 C699 1.355 . S
C700 C702 1.419 . S
C701 C696 1.425 . S
C701 C698 1.409 . S
C701 C699 1.415 . S
C702 H692 0.930 . S
C702 C700 1.419 . S
C702 C703 1.362 . S
C703 H693 0.930 . S
C703 C696 1.409 . S
C703 C702 1.362 . S
H704 C710 0.930 . S
H705 C713 0.930 . S
H706 C714 0.930 . S
H707 C715 0.930 . S
H708 C718 0.930 . S
H709 C719 0.930 . S
C710 H704 0.930 . S
C710 C711 1.355 . S
C710 C712 1.415 . S
C711 C710 1.355 . S
C711 C713 1.419 . S
C712 C710 1.415 . S
C712 C717 1.425 . S
C712 C719 1.409 . S
C713 H705 0.930 . S
C713 C711 1.419 . S
C713 C714 1.362 . S
C714 H706 0.930 . S
C714 C713 1.362 . S
C714 C717 1.409 . S
C715 H707 0.930 . S
C715 C716 1.355 . S
C715 C717 1.415 . S
C716 C715 1.355 . S
C716 C718 1.419 . S
C717 C712 1.425 . S
C717 C714 1.409 . S
C717 C715 1.415 . S
C718 H708 0.930 . S
C718 C716 1.419 . S
C718 C719 1.362 . S
C719 H709 0.930 . S
C719 C712 1.409 . S
C719 C718 1.362 . S
H720 C726 0.930 . S
H721 C729 0.930 . S
H722 C730 0.930 . S
H723 C731 0.930 . S
H724 C734 0.930 . S
H725 C735 0.930 . S
C726 H720 0.930 . S
C726 C727 1.355 . S
C726 C728 1.415 . S
C727 C726 1.355 . S
C727 C729 1.419 . S
C728 C726 1.415 . S
C728 C733 1.425 . S
C728 C735 1.409 . S
C729 H721 0.930 . S
C729 C727 1.419 . S
C729 C730 1.362 . S
C730 H722 0.930 . S
C730 C729 1.362 . S
C730 C733 1.409 . S
C731 H723 0.930 . S
C731 C732 1.355 . S
C731 C733 1.415 . S
C732 C731 1.355 . S
C732 C734 1.419 . S
C733 C728 1.425 . S
C733 C730 1.409 . S
C733 C731 1.415 . S
C734 H724 0.930 . S
C734 C732 1.419 . S
C734 C735 1.362 . S
C735 H725 0.930 . S
C735 C728 1.409 . S
C735 C734 1.362 . S
H736 C742 0.930 . S
H737 C745 0.930 . S
H738 C746 0.930 . S
H739 C747 0.930 . S
H740 C750 0.930 . S
H741 C751 0.930 . S
C742 H736 0.930 . S
C742 C743 1.355 . S
C742 C744 1.415 . S
C743 C742 1.355 . S
C743 C745 1.419 . S
C744 C742 1.415 . S
C744 C749 1.425 . S
C744 C751 1.409 . S
C745 H737 0.930 . S
C745 C743 1.419 . S
C745 C746 1.362 . S
C746 H738 0.930 . S
C746 C745 1.362 . S
C746 C749 1.409 . S
C747 H739 0.930 . S
C747 C748 1.355 . S
C747 C749 1.415 . S
C748 C747 1.355 . S
C748 C750 1.419 . S
C749 C744 1.425 . S
C749 C746 1.409 . S
C749 C747 1.415 . S
C750 H740 0.930 . S
C750 C748 1.419 . S
C750 C751 1.362 . S
C751 H741 0.930 . S
C751 C744 1.409 . S
C751 C750 1.362 . S
H752 C758 0.930 . S
H753 C761 0.930 . S
H754 C762 0.930 . S
H755 C763 0.930 . S
H756 C766 0.930 . S
H757 C767 0.930 . S
C758 H752 0.930 . S
C758 C759 1.355 . S
C758 C760 1.415 . S
C759 C758 1.355 . S
C759 C761 1.419 . S
C760 C758 1.415 . S
C760 C765 1.425 . S
C760 C767 1.409 . S
C761 H753 0.930 . S
C761 C759 1.419 . S
C761 C762 1.362 . S
C762 H754 0.930 . S
C762 C761 1.362 . S
C762 C765 1.409 . S
C763 H755 0.930 . S
C763 C764 1.355 . S
C763 C765 1.415 . S
C764 C763 1.355 . S
C764 C766 1.419 . S
C765 C760 1.425 . S
C765 C762 1.409 . S
C765 C763 1.415 . S
C766 H756 0.930 . S
C766 C764 1.419 . S
C766 C767 1.362 . S
C767 H757 0.930 . S
C767 C760 1.409 . S
C767 C766 1.362 . S
H768 C774 0.930 . S
H769 C777 0.930 . S
H770 C778 0.930 . S
H771 C779 0.930 . S
H772 C782 0.930 . S
H773 C783 0.930 . S
C774 H768 0.930 . S
C774 C775 1.355 . S
C774 C776 1.415 . S
C775 C774 1.355 . S
C775 C777 1.419 . S
C776 C774 1.415 . S
C776 C781 1.425 . S
C776 C783 1.409 . S
C777 H769 0.930 . S
C777 C775 1.419 . S
C777 C778 1.362 . S
C778 H770 0.930 . S
C778 C777 1.362 . S
C778 C781 1.409 . S
C779 H771 0.930 . S
C779 C780 1.355 . S
C779 C781 1.415 . S
C780 C779 1.355 . S
C780 C782 1.419 . S
C781 C776 1.425 . S
C781 C778 1.409 . S
C781 C779 1.415 . S
C782 H772 0.930 . S
C782 C780 1.419 . S
C782 C783 1.362 . S
C783 H773 0.930 . S
C783 C776 1.409 . S
C783 C782 1.362 . S
H784 C790 0.930 . S
H785 C793 0.930 . S
H786 C794 0.930 . S
H787 C795 0.930 . S
H788 C798 0.930 . S
H789 C799 0.930 . S
C790 H784 0.930 . S
C790 C791 1.355 . S
C790 C792 1.415 . S
C791 C790 1.355 . S
C791 C793 1.419 . S
C792 C790 1.415 . S
C792 C797 1.425 . S
C792 C799 1.409 . S
C793 H785 0.930 . S
C793 C791 1.419 . S
C793 C794 1.362 . S
C794 H786 0.930 . S
C794 C793 1.362 . S
C794 C797 1.409 . S
C795 H787 0.930 . S
C795 C796 1.355 . S
C795 C797 1.415 . S
C796 C795 1.355 . S
C796 C798 1.419 . S
C797 C792 1.425 . S
C797 C794 1.409 . S
C797 C795 1.415 . S
C798 H788 0.930 . S
C798 C796 1.419 . S
C798 C799 1.362 . S
C799 H789 0.930 . S
C799 C792 1.409 . S
C799 C798 1.362 . S
H800 C806 0.930 . S
H801 C809 0.930 . S
H802 C810 0.930 . S
H803 C811 0.930 . S
H804 C814 0.930 . S
H805 C815 0.930 . S
C806 H800 0.930 . S
C806 C807 1.355 . S
C806 C808 1.415 . S
C807 C806 1.355 . S
C807 C809 1.419 . S
C808 C806 1.415 . S
C808 C813 1.425 . S
C808 C815 1.409 . S
C809 H801 0.930 . S
C809 C807 1.419 . S
C809 C810 1.362 . S
C810 H802 0.930 . S
C810 C809 1.362 . S
C810 C813 1.409 . S
C811 H803 0.930 . S
C811 C812 1.355 . S
C811 C813 1.415 . S
C812 C811 1.355 . S
C812 C814 1.419 . S
C813 C808 1.425 . S
C813 C810 1.409 . S
C813 C811 1.415 . S
C814 H804 0.930 . S
C814 C812 1.419 . S
C814 C815 1.362 . S
C815 H805 0.930 . S
C815 C808 1.409 . S
C815 C814 1.362 . S
H816 C822 0.930 . S
H817 C825 0.930 . S
H818 C826 0.930 . S
H819 C827 0.930 . S
H820 C830 0.930 . S
H821 C831 0.930 . S
C822 H816 0.930 . S
C822 C823 1.355 . S
C822 C824 1.415 . S
C823 C822 1.355 . S
C823 C825 1.419 . S
C824 C822 1.415 . S
C824 C829 1.425 . S
C824 C831 1.409 . S
C825 H817 0.930 . S
C825 C823 1.419 . S
C825 C826 1.362 . S
C826 H818 0.930 . S
C826 C825 1.362 . S
C826 C829 1.409 . S
C827 H819 0.930 . S
C827 C828 1.355 . S
C827 C829 1.415 . S
C828 C827 1.355 . S
C828 C830 1.419 . S
C829 C824 1.425 . S
C829 C826 1.409 . S
C829 C827 1.415 . S
C830 H820 0.930 . S
C830 C828 1.419 . S
C830 C831 1.362 . S
C831 H821 0.930 . S
C831 C824 1.409 . S
C831 C830 1.362 . S
H832 C838 0.930 . S
H833 C841 0.930 . S
H834 C842 0.930 . S
H835 C843 0.930 . S
H836 C846 0.930 . S
H837 C847 0.930 . S
C838 H832 0.930 . S
C838 C839 1.355 . S
C838 C840 1.415 . S
C839 C838 1.355 . S
C839 C841 1.419 . S
C840 C838 1.415 . S
C840 C845 1.425 . S
C840 C847 1.409 . S
C841 H833 0.930 . S
C841 C839 1.419 . S
C841 C842 1.362 . S
C842 H834 0.930 . S
C842 C841 1.362 . S
C842 C845 1.409 . S
C843 H835 0.930 . S
C843 C844 1.355 . S
C843 C845 1.415 . S
C844 C843 1.355 . S
C844 C846 1.419 . S
C845 C840 1.425 . S
C845 C842 1.409 . S
C845 C843 1.415 . S
C846 H836 0.930 . S
C846 C844 1.419 . S
C846 C847 1.362 . S
C847 H837 0.930 . S
C847 C840 1.409 . S
C847 C846 1.362 . S
H848 C854 0.930 . S
H849 C857 0.930 . S
H850 C858 0.930 . S
H851 C859 0.930 . S
H852 C862 0.930 . S
H853 C863 0.930 . S
C854 H848 0.930 . S
C854 C855 1.355 . S
C854 C856 1.415 . S
C855 C854 1.355 . S
C855 C857 1.419 . S
C856 C854 1.415 . S
C856 C861 1.425 . S
C856 C863 1.409 . S
C857 H849 0.930 . S
C857 C855 1.419 . S
C857 C858 1.362 . S
C858 H850 0.930 . S
C858 C857 1.362 . S
C858 C861 1.409 . S
C859 H851 0.930 . S
C859 C860 1.355 . S
C859 C861 1.415 . S
C860 C859 1.355 . S
C860 C862 1.419 . S
C861 C856 1.425 . S
C861 C858 1.409 . S
C861 C859 1.415 . S
C862 H852 0.930 . S
C862 C860 1.419 . S
C862 C863 1.362 . S
C863 H853 0.930 . S
C863 C856 1.409 . S
C863 C862 1.362 . S
H864 C870 0.930 . S
H865 C873 0.930 . S
H866 C874 0.930 . S
H867 C875 0.930 . S
H868 C878 0.930 . S
H869 C879 0.930 . S
C870 H864 0.930 . S
C870 C871 1.355 . S
C870 C872 1.415 . S
C871 C870 1.355 . S
C871 C873 1.419 . S
C872 C870 1.415 . S
C872 C877 1.425 . S
C872 C879 1.409 . S
C873 H865 0.930 . S
C873 C871 1.419 . S
C873 C874 1.362 . S
C874 H866 0.930 . S
C874 C873 1.362 . S
C874 C877 1.409 . S
C875 H867 0.930 . S
C875 C876 1.355 . S
C875 C877 1.415 . S
C876 C875 1.355 . S
C876 C878 1.419 . S
C877 C872 1.425 . S
C877 C874 1.409 . S
C877 C875 1.415 . S
C878 H868 0.930 . S
C878 C876 1.419 . S
C878 C879 1.362 . S
C879 H869 0.930 . S
C879 C872 1.409 . S
C879 C878 1.362 . S
H880 C886 0.930 . S
H881 C889 0.930 . S
H882 C890 0.930 . S
H883 C891 0.930 . S
H884 C894 0.930 . S
H885 C895 0.930 . S
C886 H880 0.930 . S
C886 C887 1.355 . S
C886 C888 1.415 . S
C887 C886 1.355 . S
C887 C889 1.419 . S
C888 C886 1.415 . S
C888 C893 1.425 . S
C888 C895 1.409 . S
C889 H881 0.930 . S
C889 C887 1.419 . S
C889 C890 1.362 . S
C890 H882 0.930 . S
C890 C889 1.362 . S
C890 C893 1.409 . S
C891 H883 0.930 . S
C891 C892 1.355 . S
C891 C893 1.415 . S
C892 C891 1.355 . S
C892 C894 1.419 . S
C893 C888 1.425 . S
C893 C890 1.409 . S
C893 C891 1.415 . S
C894 H884 0.930 . S
C894 C892 1.419 . S
C894 C895 1.362 . S
C895 H885 0.930 . S
C895 C888 1.409 . S
C895 C894 1.362 . S
H896 C902 0.930 . S
H897 C905 0.930 . S
H898 C906 0.930 . S
H899 C907 0.930 . S
H900 C910 0.930 . S
H901 C911 0.930 . S
C902 H896 0.930 . S
C902 C903 1.355 . S
C902 C904 1.415 . S
C903 C902 1.355 . S
C903 C905 1.419 . S
C904 C902 1.415 . S
C904 C909 1.425 . S
C904 C911 1.409 . S
C905 H897 0.930 . S
C905 C903 1.419 . S
C905 C906 1.362 . S
C906 H898 0.930 . S
C906 C905 1.362 . S
C906 C909 1.409 . S
C907 H899 0.930 . S
C907 C908 1.355 . S
C907 C909 1.415 . S
C908 C907 1.355 . S
C908 C910 1.419 . S
C909 C904 1.425 . S
C909 C906 1.409 . S
C909 C907 1.415 . S
C910 H900 0.930 . S
C910 C908 1.419 . S
C910 C911 1.362 . S
C911 H901 0.930 . S
C911 C904 1.409 . S
C911 C910 1.362 . S
H912 C918 0.930 . S
H913 C921 0.930 . S
H914 C922 0.930 . S
H915 C923 0.930 . S
H916 C926 0.930 . S
H917 C927 0.930 . S
C918 H912 0.930 . S
C918 C919 1.355 . S
C918 C920 1.415 . S
C919 C918 1.355 . S
C919 C921 1.419 . S
C920 C918 1.415 . S
C920 C925 1.425 . S
C920 C927 1.409 . S
C921 H913 0.930 . S
C921 C919 1.419 . S
C921 C922 1.362 . S
C922 H914 0.930 . S
C922 C921 1.362 . S
C922 C925 1.409 . S
C923 H915 0.930 . S
C923 C924 1.355 . S
C923 C925 1.415 . S
C924 C923 1.355 . S
C924 C926 1.419 . S
C925 C920 1.425 . S
C925 C922 1.409 . S
C925 C923 1.415 . S
C926 H916 0.930 . S
C926 C924 1.419 . S
C926 C927 1.362 . S
C927 H917 0.930 . S
C927 C920 1.409 . S
C927 C926 1.362 . S
H928 C934 0.930 . S
H929 C937 0.930 . S
H930 C938 0.930 . S
H931 C939 0.930 . S
H932 C942 0.930 . S
H933 C943 0.930 . S
C934 H928 0.930 . S
C934 C935 1.355 . S
C934 C936 1.415 . S
C935 C934 1.355 . S
C935 C937 1.419 . S
C936 C934 1.415 . S
C936 C941 1.425 . S
C936 C943 1.409 . S
C937 H929 0.930 . S
C937 C935 1.419 . S
C937 C938 1.362 . S
C938 H930 0.930 . S
C938 C937 1.362 . S
C938 C941 1.409 . S
C939 H931 0.930 . S
C939 C940 1.355 . S
C939 C941 1.415 . S
C940 C939 1.355 . S
C940 C942 1.419 . S
C941 C936 1.425 . S
C941 C938 1.409 . S
C941 C939 1.415 . S
C942 H932 0.930 . S
C942 C940 1.419 . S
C942 C943 1.362 . S
C943 H933 0.930 . S
C943 C936 1.409 . S
C943 C942 1.362 . S
H944 C950 0.930 . S
H945 C953 0.930 . S
H946 C954 0.930 . S
H947 C955 0.930 . S
H948 C958 0.930 . S
H949 C959 0.930 . S
C950 H944 0.930 . S
C950 C951 1.355 . S
C950 C952 1.415 . S
C951 C950 1.355 . S
C951 C953 1.419 . S
C952 C950 1.415 . S
C952 C957 1.425 . S
C952 C959 1.409 . S
C953 H945 0.930 . S
C953 C951 1.419 . S
C953 C954 1.362 . S
C954 H946 0.930 . S
C954 C953 1.362 . S
C954 C957 1.409 . S
C955 H947 0.930 . S
C955 C956 1.355 . S
C955 C957 1.415 . S
C956 C955 1.355 . S
C956 C958 1.419 . S
C957 C952 1.425 . S
C957 C954 1.409 . S
C957 C955 1.415 . S
C958 H948 0.930 . S
C958 C956 1.419 . S
C958 C959 1.362 . S
C959 H949 0.930 . S
C959 C952 1.409 . S
C959 C958 1.362 . S
H960 C966 0.930 . S
H961 C969 0.930 . S
H962 C970 0.930 . S
H963 C971 0.930 . S
H964 C974 0.930 . S
H965 C975 0.930 . S
C966 H960 0.930 . S
C966 C967 1.355 . S
C966 C968 1.415 . S
C967 C966 1.355 . S
C967 C969 1.419 . S
C968 C966 1.415 . S
C968 C973 1.425 . S
C968 C975 1.409 . S
C969 H961 0.930 . S
C969 C967 1.419 . S
C969 C970 1.362 . S
C970 H962 0.930 . S
C970 C969 1.362 . S
C970 C973 1.409 . S
C971 H963 0.930 . S
C971 C972 1.355 . S
C971 C973 1.415 . S
C972 C971 1.355 . S
C972 C974 1.419 . S
C973 C968 1.425 . S
C973 C970 1.409 . S
C973 C971 1.415 . S
C974 H964 0.930 . S
C974 C972 1.419 . S
C974 C975 1.362 . S
C975 H965 0.930 . S
C975 C968 1.409 . S
C975 C974 1.362 . S
H976 C982 0.930 . S
H977 C985 0.930 . S
H978 C986 0.930 . S
H979 C987 0.930 . S
H980 C990 0.930 . S
H981 C991 0.930 . S
C982 H976 0.930 . S
C982 C983 1.355 . S
C982 C984 1.415 . S
C983 C982 1.355 . S
C983 C985 1.419 . S
C984 C982 1.415 . S
C984 C989 1.425 . S
C984 C991 1.409 . S
C985 H977 0.930 . S
C985 C983 1.419 . S
C985 C986 1.362 . S
C986 H978 0.930 . S
C986 C985 1.362 . S
C986 C989 1.409 . S
C987 H979 0.930 . S
C987 C988 1.355 . S
C987 C989 1.415 . S
C988 C987 1.355 . S
C988 C990 1.419 . S
C989 C984 1.425 . S
C989 C986 1.409 . S
C989 C987 1.415 . S
C990 H980 0.930 . S
C990 C988 1.419 . S
C990 C991 1.362 . S
C991 H981 0.930 . S
C991 C984 1.409 . S
C991 C990 1.362 . S
H992 C998 0.930 . S
H993 C1001 0.930 . S
H994 C1002 0.930 . S
H995 C1003 0.930 . S
H996 C1006 0.930 . S
H997 C1007 0.930 . S
C998 H992 0.930 . S
C998 C999 1.355 . S
C998 C1000 1.415 . S
C999 C998 1.355 . S
C999 C1001 1.419 . S
C1000 C998 1.415 . S
C1000 C1005 1.425 . S
C1000 C1007 1.409 . S
C1001 H993 0.930 . S
C1001 C999 1.419 . S
C1001 C1002 1.362 . S
C1002 H994 0.930 . S
C1002 C1001 1.362 . S
C1002 C1005 1.409 . S
C1003 H995 0.930 . S
C1003 C1004 1.355 . S
C1003 C1005 1.415 . S
C1004 C1003 1.355 . S
C1004 C1006 1.419 . S
C1005 C1000 1.425 . S
C1005 C1002 1.409 . S
C1005 C1003 1.415 . S
C1006 H996 0.930 . S
C1006 C1004 1.419 . S
C1006 C1007 1.362 . S
C1007 H997 0.930 . S
C1007 C1000 1.409 . S
C1007 C1006 1.362 . S
H1008 C1014 0.930 . S
H1009 C1017 0.930 . S
H1010 C1018 0.930 . S
H1011 C1019 0.930 . S
H1012 C1022 0.930 . S
H1013 C1023 0.930 . S
C1014 H1008 0.930 . S
C1014 C1015 1.355 . S
C1014 C1016 1.415 . S
C1015 C1014 1.355 . S
C1015 C1017 1.419 . S
C1016 C1014 1.415 . S
C1016 C1021 1.425 . S
C1016 C1023 1.409 . S
C1017 H1009 0.930 . S
C1017 C1015 1.419 . S
C1017 C1018 1.362 . S
C1018 H1010 0.930 . S
C1018 C1017 1.362 . S
C1018 C1021 1.409 . S
C1019 H1011 0.930 . S
C1019 C1020 1.355 . S
C1019 C1021 1.415 . S
C1020 C1019 1.355 . S
C1020 C1022 1.419 . S
C1021 C1016 1.425 . S
C1021 C1018 1.409 . S
C1021 C1019 1.415 . S
C1022 H1012 0.930 . S
C1022 C1020 1.419 . S
C1022 C1023 1.362 . S
C1023 H1013 0.930 . S
C1023 C1016 1.409 . S
C1023 C1022 1.362 . S
H1024 C1030 0.930 . S
H1025 C1033 0.930 . S
H1026 C1034 0.930 . S
H1027 C1035 0.930 . S
H1028 C1038 0.930 . S
H1029 C1039 0.930 . S
C1030 H1024 0.930 . S
C1030 C1031 1.355 . S
C1030 C1032 1.415 . S
C1031 C1030 1.355 . S
C1031 C1033 1.419 . S
C1032 C1030 1.415 . S
C1032 C1037 1.425 . S
C1032 C1039 1.409 . S
C1033 H1025 0.930 . S
C1033 C1031 1.419 . S
C1033 C1034 1.362 . S
C1034 H1026 0.930 . S
C1034 C1033 1.362 . S
C1034 C1037 1.409 . S
C1035 H1027 0.930 . S
C1035 C1036 1.355 . S
C1035 C1037 1.415 . S
C1036 C1035 1.355 . S
C1036 C1038 1.419 . S
C1037 C1032 1.425 . S
C1037 C1034 1.409 . S
C1037 C1035 1.415 . S
C1038 H1028 0.930 . S
C1038 C1036 1.419 . S
C1038 C1039 1.362 . S
C1039 H1029 0.930 . S
C1039 C1032 1.409 . S
C1039 C1038 1.362 . S
H1040 C1046 0.930 . S
H1041 C1049 0.930 . S
H1042 C1050 0.930 . S
H1043 C1051 0.930 . S
H1044 C1054 0.930 . S
H1045 C1055 0.930 . S
C1046 H1040 0.930 . S
C1046 C1047 1.355 . S
C1046 C1048 1.415 . S
C1047 C1046 1.355 . S
C1047 C1049 1.419 . S
C1048 C1046 1.415 . S
C1048 C1053 1.425 . S
C1048 C1055 1.409 . S
C1049 H1041 0.930 . S
C1049 C1047 1.419 . S
C1049 C1050 1.362 . S
C1050 H1042 0.930 . S
C1050 C1049 1.362 . S
C1050 C1053 1.409 . S
C1051 H1043 0.930 . S
C1051 C1052 1.355 . S
C1051 C1053 1.415 . S
C1052 C1051 1.355 . S
C1052 C1054 1.419 . S
C1053 C1048 1.425 . S
C1053 C1050 1.409 . S
C1053 C1051 1.415 . S
C1054 H1044 0.930 . S
C1054 C1052 1.419 . S
C1054 C1055 1.362 . S
C1055 H1045 0.930 . S
C1055 C1048 1.409 . S
C1055 C1054 1.362 . S
H1056 C1062 0.930 . S
H1057 C1065 0.930 . S
H1058 C1066 0.930 . S
H1059 C1067 0.930 . S
H1060 C1070 0.930 . S
H1061 C1071 0.930 . S
C1062 H1056 0.930 . S
C1062 C1063 1.355 . S
C1062 C1064 1.415 . S
C1063 C1062 1.355 . S
C1063 C1065 1.419 . S
C1064 C1062 1.415 . S
C1064 C1069 1.425 . S
C1064 C1071 1.409 . S
C1065 H1057 0.930 . S
C1065 C1063 1.419 . S
C1065 C1066 1.362 . S
C1066 H1058 0.930 . S
C1066 C1065 1.362 . S
C1066 C1069 1.409 . S
C1067 H1059 0.930 . S
C1067 C1068 1.355 . S
C1067 C1069 1.415 . S
C1068 C1067 1.355 . S
C1068 C1070 1.419 . S
C1069 C1064 1.425 . S
C1069 C1066 1.409 . S
C1069 C1067 1.415 . S
C1070 H1060 0.930 . S
C1070 C1068 1.419 . S
C1070 C1071 1.362 . S
C1071 H1061 0.930 . S
C1071 C1064 1.409 . S
C1071 C1070 1.362 . S
H1072 C1078 0.930 . S
H1073 C1081 0.930 . S
H1074 C1082 0.930 . S
H1075 C1083 0.930 . S
H1076 C1086 0.930 . S
H1077 C1087 0.930 . S
C1078 H1072 0.930 . S
C1078 C1079 1.355 . S
C1078 C1080 1.415 . S
C1079 C1078 1.355 . S
C1079 C1081 1.419 . S
C1080 C1078 1.415 . S
C1080 C1085 1.425 . S
C1080 C1087 1.409 . S
C1081 H1073 0.930 . S
C1081 C1079 1.419 . S
C1081 C1082 1.362 . S
C1082 H1074 0.930 . S
C1082 C1081 1.362 . S
C1082 C1085 1.409 . S
C1083 H1075 0.930 . S
C1083 C1084 1.355 . S
C1083 C1085 1.415 . S
C1084 C1083 1.355 . S
C1084 C1086 1.419 . S
C1085 C1080 1.425 . S
C1085 C1082 1.409 . S
C1085 C1083 1.415 . S
C1086 H1076 0.930 . S
C1086 C1084 1.419 . S
C1086 C1087 1.362 . S
C1087 H1077 0.930 . S
C1087 C1080 1.409 . S
C1087 C1086 1.362 . S
H1088 C1094 0.930 . S
H1089 C1097 0.930 . S
H1090 C1098 0.930 . S
H1091 C1099 0.930 . S
H1092 C1102 0.930 . S
H1093 C1103 0.930 . S
C1094 H1088 0.930 . S
C1094 C1095 1.355 . S
C1094 C1096 1.415 . S
C1095 C1094 1.355 . S
C1095 C1097 1.419 . S
C1096 C1094 1.415 . S
C1096 C1101 1.425 . S
C1096 C1103 1.409 . S
C1097 H1089 0.930 . S
C1097 C1095 1.419 . S
C1097 C1098 1.362 . S
C1098 H1090 0.930 . S
C1098 C1097 1.362 . S
C1098 C1101 1.409 . S
C1099 H1091 0.930 . S
C1099 C1100 1.355 . S
C1099 C1101 1.415 . S
C1100 C1099 1.355 . S
C1100 C1102 1.419 . S
C1101 C1096 1.425 . S
C1101 C1098 1.409 . S
C1101 C1099 1.415 . S
C1102 H1092 0.930 . S
C1102 C1100 1.419 . S
C1102 C1103 1.362 . S
C1103 H1093 0.930 . S
C1103 C1096 1.409 . S
C1103 C1102 1.362 . S
H1104 C1110 0.930 . S
H1105 C1113 0.930 . S
H1106 C1114 0.930 . S
H1107 C1115 0.930 . S
H1108 C1118 0.930 . S
H1109 C1119 0.930 . S
C1110 H1104 0.930 . S
C1110 C1111 1.355 . S
C1110 C1112 1.415 . S
C1111 C1110 1.355 . S
C1111 C1113 1.419 . S
C1112 C1110 1.415 . S
C1112 C1117 1.425 . S
C1112 C1119 1.409 . S
C1113 H1105 0.930 . S
C1113 C1111 1.419 . S
C1113 C1114 1.362 . S
C1114 H1106 0.930 . S
C1114 C1113 1.362 . S
C1114 C1117 1.409 . S
C1115 H1107 0.930 . S
C1115 C1116 1.355 . S
C1115 C1117 1.415 . S
C1116 C1115 1.355 . S
C1116 C1118 1.419 . S
C1117 C1112 1.425 . S
C1117 C1114 1.409 . S
C1117 C1115 1.415 . S
C1118 H1108 0.930 . S
C1118 C1116 1.419 . S
C1118 C1119 1.362 . S
C1119 H1109 0.930 . S
C1119 C1112 1.409 . S
C1119 C1118 1.362 . S
C364 C177 1.547 . S
C359 C9 1.580 . S
C380 C182 1.229 . S
C375 C22 1.217 . S
C396 C183 1.228 . S
C391 C49 1.252 . S
C407 C61 1.237 . S
C412 C187 1.191 . S
C423 C81 1.213 . S
C428 C190 1.227 . S
C444 C191 1.236 . S
C439 C108 1.241 . S
C455 C122 1.181 . S
C460 C168 1.209 . S
C471 C148 1.568 . S
C476 C184 1.554 . S
C492 C222 2.016 . S
C487 C18 2.052 . S
C503 C39 1.412 . S
C508 C248 1.415 . S
C524 C200 2.007 . S
C519 C58 2.057 . S
C540 C255 1.148 . S
C535 C69 1.227 . S
C551 C89 1.230 . S
C556 C209 1.243 . S
C572 C251 1.183 . S
C567 C102 1.226 . S
C583 C139 1.442 . S
C588 C215 1.440 . S
C599 C142 1.247 . S
C604 C246 1.185 . S
C615 C1 1.232 . S
C620 C254 1.192 . S
C631 C98 1.436 . S
C636 C241 1.429 . S
C652 C219 2.045 . S
C647 C119 2.019 . S
C668 C247 1.216 . S
C663 C128 1.248 . S
C679 C159 2.021 . S
C684 C214 2.051 . S
C695 C41 1.216 . S
C700 C232 1.167 . S
C716 C223 1.386 . S
C711 C78 1.394 . S
C727 C28 1.206 . S
C732 C216 1.163 . S
C743 C149 1.552 . S
C748 C278 1.474 . S
C759 C82 1.215 . S
C764 C273 1.170 . S
C780 C287 1.241 . S
C775 C109 1.242 . S
C796 C264 1.225 . S
C791 C121 1.189 . S
C807 C21 1.206 . S
C812 C280 1.148 . S
C828 C279 1.153 . S
C823 C48 1.241 . S
C839 C62 1.192 . S
C844 C283 1.217 . S
C855 C8 1.536 . S
C860 C286 1.469 . S
C871 C158 2.033 . S
C876 C312 2.098 . S
C892 C328 1.415 . S
C887 C99 1.403 . S
C903 C118 2.070 . S
C908 C310 2.068 . S
C919 C129 1.227 . S
C924 C343 1.242 . S
C940 C319 1.199 . S
C935 C29 1.237 . S
C951 C42 1.233 . S
C956 C337 1.152 . S
C972 C315 1.439 . S
C967 C79 1.371 . S
C988 C350 1.204 . S
C983 C2 1.231 . S
C1004 C342 1.223 . S
C999 C141 1.277 . S
C1015 C38 1.424 . S
C1020 C347 1.398 . S
C1031 C59 2.073 . S
C1036 C318 2.061 . S
C1052 C351 1.163 . S
C1047 C68 1.266 . S
C1063 C19 2.075 . S
C1068 C305 2.070 . S
C1079 C101 1.252 . S
C1084 C344 1.235 . S
C1100 C296 1.436 . S
C1095 C138 1.424 . S
C1116 C311 1.203 . S
C1111 C88 1.236 . S
