# Generated by pormake.
# Topology gar, (4,6)-cn, num edge types: 1
# Building blocks:
#     Node 0, Type 0, BuildingBlock: QUQFOY_clean_sbu_1, # of connection points: 4
#     Node 1, Type 0, BuildingBlock: QUQFOY_clean_sbu_1, # of connection points: 4
#     Node 2, Type 0, BuildingBlock: QUQFOY_clean_sbu_1, # of connection points: 4
#     Node 3, Type 0, BuildingBlock: QUQFOY_clean_sbu_1, # of connection points: 4
#     Node 4, Type 0, BuildingBlock: QUQFOY_clean_sbu_1, # of connection points: 4
#     Node 5, Type 0, BuildingBlock: QUQFOY_clean_sbu_1, # of connection points: 4
#     Node 6, Type 0, BuildingBlock: QUQFOY_clean_sbu_1, # of connection points: 4
#     Node 7, Type 0, BuildingBlock: QUQFOY_clean_sbu_1, # of connection points: 4
#     Node 8, Type 0, BuildingBlock: QUQFOY_clean_sbu_1, # of connection points: 4
#     Node 9, Type 0, BuildingBlock: QUQFOY_clean_sbu_1, # of connection points: 4
#     Node 10, Type 0, BuildingBlock: QUQFOY_clean_sbu_1, # of connection points: 4
#     Node 11, Type 0, BuildingBlock: QUQFOY_clean_sbu_1, # of connection points: 4
#     Node 12, Type 0, BuildingBlock: QUQFOY_clean_sbu_1, # of connection points: 4
#     Node 13, Type 0, BuildingBlock: QUQFOY_clean_sbu_1, # of connection points: 4
#     Node 14, Type 0, BuildingBlock: QUQFOY_clean_sbu_1, # of connection points: 4
#     Node 15, Type 0, BuildingBlock: QUQFOY_clean_sbu_1, # of connection points: 4
#     Node 16, Type 0, BuildingBlock: QUQFOY_clean_sbu_1, # of connection points: 4
#     Node 17, Type 0, BuildingBlock: QUQFOY_clean_sbu_1, # of connection points: 4
#     Node 18, Type 0, BuildingBlock: QUQFOY_clean_sbu_1, # of connection points: 4
#     Node 19, Type 0, BuildingBlock: QUQFOY_clean_sbu_1, # of connection points: 4
#     Node 20, Type 0, BuildingBlock: QUQFOY_clean_sbu_1, # of connection points: 4
#     Node 21, Type 0, BuildingBlock: QUQFOY_clean_sbu_1, # of connection points: 4
#     Node 22, Type 0, BuildingBlock: QUQFOY_clean_sbu_1, # of connection points: 4
#     Node 23, Type 0, BuildingBlock: QUQFOY_clean_sbu_1, # of connection points: 4
#     Node 24, Type 1, BuildingBlock: BETDEL_clean_sbu_0, # of connection points: 6
#     Node 25, Type 1, BuildingBlock: BETDEL_clean_sbu_0, # of connection points: 6
#     Node 26, Type 1, BuildingBlock: BETDEL_clean_sbu_0, # of connection points: 6
#     Node 27, Type 1, BuildingBlock: BETDEL_clean_sbu_0, # of connection points: 6
#     Node 28, Type 1, BuildingBlock: BETDEL_clean_sbu_0, # of connection points: 6
#     Node 29, Type 1, BuildingBlock: BETDEL_clean_sbu_0, # of connection points: 6
#     Node 30, Type 1, BuildingBlock: BETDEL_clean_sbu_0, # of connection points: 6
#     Node 31, Type 1, BuildingBlock: BETDEL_clean_sbu_0, # of connection points: 6
#     Node 32, Type 1, BuildingBlock: BETDEL_clean_sbu_0, # of connection points: 6
#     Node 33, Type 1, BuildingBlock: BETDEL_clean_sbu_0, # of connection points: 6
#     Node 34, Type 1, BuildingBlock: BETDEL_clean_sbu_0, # of connection points: 6
#     Node 35, Type 1, BuildingBlock: BETDEL_clean_sbu_0, # of connection points: 6
#     Node 36, Type 1, BuildingBlock: BETDEL_clean_sbu_0, # of connection points: 6
#     Node 37, Type 1, BuildingBlock: BETDEL_clean_sbu_0, # of connection points: 6
#     Node 38, Type 1, BuildingBlock: BETDEL_clean_sbu_0, # of connection points: 6
#     Node 39, Type 1, BuildingBlock: BETDEL_clean_sbu_0, # of connection points: 6
#     Edge 40, Type (0, 1), BuildingBlock: XUDNAN_clean_linker_2, # of connection points: 2
#     Edge 41, Type (0, 1), BuildingBlock: XUDNAN_clean_linker_2, # of connection points: 2
#     Edge 42, Type (0, 1), BuildingBlock: XUDNAN_clean_linker_2, # of connection points: 2
#     Edge 43, Type (0, 1), BuildingBlock: XUDNAN_clean_linker_2, # of connection points: 2
#     Edge 44, Type (0, 1), BuildingBlock: XUDNAN_clean_linker_2, # of connection points: 2
#     Edge 45, Type (0, 1), BuildingBlock: XUDNAN_clean_linker_2, # of connection points: 2
#     Edge 46, Type (0, 1), BuildingBlock: XUDNAN_clean_linker_2, # of connection points: 2
#     Edge 47, Type (0, 1), BuildingBlock: XUDNAN_clean_linker_2, # of connection points: 2
#     Edge 48, Type (0, 1), BuildingBlock: XUDNAN_clean_linker_2, # of connection points: 2
#     Edge 49, Type (0, 1), BuildingBlock: XUDNAN_clean_linker_2, # of connection points: 2
#     Edge 50, Type (0, 1), BuildingBlock: XUDNAN_clean_linker_2, # of connection points: 2
#     Edge 51, Type (0, 1), BuildingBlock: XUDNAN_clean_linker_2, # of connection points: 2
#     Edge 52, Type (0, 1), BuildingBlock: XUDNAN_clean_linker_2, # of connection points: 2
#     Edge 53, Type (0, 1), BuildingBlock: XUDNAN_clean_linker_2, # of connection points: 2
#     Edge 54, Type (0, 1), BuildingBlock: XUDNAN_clean_linker_2, # of connection points: 2
#     Edge 55, Type (0, 1), BuildingBlock: XUDNAN_clean_linker_2, # of connection points: 2
#     Edge 56, Type (0, 1), BuildingBlock: XUDNAN_clean_linker_2, # of connection points: 2
#     Edge 57, Type (0, 1), BuildingBlock: XUDNAN_clean_linker_2, # of connection points: 2
#     Edge 58, Type (0, 1), BuildingBlock: XUDNAN_clean_linker_2, # of connection points: 2
#     Edge 59, Type (0, 1), BuildingBlock: XUDNAN_clean_linker_2, # of connection points: 2
#     Edge 60, Type (0, 1), BuildingBlock: XUDNAN_clean_linker_2, # of connection points: 2
#     Edge 61, Type (0, 1), BuildingBlock: XUDNAN_clean_linker_2, # of connection points: 2
#     Edge 62, Type (0, 1), BuildingBlock: XUDNAN_clean_linker_2, # of connection points: 2
#     Edge 63, Type (0, 1), BuildingBlock: XUDNAN_clean_linker_2, # of connection points: 2
#     Edge 64, Type (0, 1), BuildingBlock: XUDNAN_clean_linker_2, # of connection points: 2
#     Edge 65, Type (0, 1), BuildingBlock: XUDNAN_clean_linker_2, # of connection points: 2
#     Edge 66, Type (0, 1), BuildingBlock: XUDNAN_clean_linker_2, # of connection points: 2
#     Edge 67, Type (0, 1), BuildingBlock: XUDNAN_clean_linker_2, # of connection points: 2
#     Edge 68, Type (0, 1), BuildingBlock: XUDNAN_clean_linker_2, # of connection points: 2
#     Edge 69, Type (0, 1), BuildingBlock: XUDNAN_clean_linker_2, # of connection points: 2
#     Edge 70, Type (0, 1), BuildingBlock: XUDNAN_clean_linker_2, # of connection points: 2
#     Edge 71, Type (0, 1), BuildingBlock: XUDNAN_clean_linker_2, # of connection points: 2
#     Edge 72, Type (0, 1), BuildingBlock: XUDNAN_clean_linker_2, # of connection points: 2
#     Edge 73, Type (0, 1), BuildingBlock: XUDNAN_clean_linker_2, # of connection points: 2
#     Edge 74, Type (0, 1), BuildingBlock: XUDNAN_clean_linker_2, # of connection points: 2
#     Edge 75, Type (0, 1), BuildingBlock: XUDNAN_clean_linker_2, # of connection points: 2
#     Edge 76, Type (0, 1), BuildingBlock: XUDNAN_clean_linker_2, # of connection points: 2
#     Edge 77, Type (0, 1), BuildingBlock: XUDNAN_clean_linker_2, # of connection points: 2
#     Edge 78, Type (0, 1), BuildingBlock: XUDNAN_clean_linker_2, # of connection points: 2
#     Edge 79, Type (0, 1), BuildingBlock: XUDNAN_clean_linker_2, # of connection points: 2
#     Edge 80, Type (0, 1), BuildingBlock: XUDNAN_clean_linker_2, # of connection points: 2
#     Edge 81, Type (0, 1), BuildingBlock: XUDNAN_clean_linker_2, # of connection points: 2
#     Edge 82, Type (0, 1), BuildingBlock: XUDNAN_clean_linker_2, # of connection points: 2
#     Edge 83, Type (0, 1), BuildingBlock: XUDNAN_clean_linker_2, # of connection points: 2
#     Edge 84, Type (0, 1), BuildingBlock: XUDNAN_clean_linker_2, # of connection points: 2
#     Edge 85, Type (0, 1), BuildingBlock: XUDNAN_clean_linker_2, # of connection points: 2
#     Edge 86, Type (0, 1), BuildingBlock: XUDNAN_clean_linker_2, # of connection points: 2
#     Edge 87, Type (0, 1), BuildingBlock: XUDNAN_clean_linker_2, # of connection points: 2
#     Edge 88, Type (0, 1), BuildingBlock: XUDNAN_clean_linker_2, # of connection points: 2
#     Edge 89, Type (0, 1), BuildingBlock: XUDNAN_clean_linker_2, # of connection points: 2
#     Edge 90, Type (0, 1), BuildingBlock: XUDNAN_clean_linker_2, # of connection points: 2
#     Edge 91, Type (0, 1), BuildingBlock: XUDNAN_clean_linker_2, # of connection points: 2
#     Edge 92, Type (0, 1), BuildingBlock: XUDNAN_clean_linker_2, # of connection points: 2
#     Edge 93, Type (0, 1), BuildingBlock: XUDNAN_clean_linker_2, # of connection points: 2
#     Edge 94, Type (0, 1), BuildingBlock: XUDNAN_clean_linker_2, # of connection points: 2
#     Edge 95, Type (0, 1), BuildingBlock: XUDNAN_clean_linker_2, # of connection points: 2
#     Edge 96, Type (0, 1), BuildingBlock: XUDNAN_clean_linker_2, # of connection points: 2
#     Edge 97, Type (0, 1), BuildingBlock: XUDNAN_clean_linker_2, # of connection points: 2
#     Edge 98, Type (0, 1), BuildingBlock: XUDNAN_clean_linker_2, # of connection points: 2
#     Edge 99, Type (0, 1), BuildingBlock: XUDNAN_clean_linker_2, # of connection points: 2
#     Edge 100, Type (0, 1), BuildingBlock: XUDNAN_clean_linker_2, # of connection points: 2
#     Edge 101, Type (0, 1), BuildingBlock: XUDNAN_clean_linker_2, # of connection points: 2
#     Edge 102, Type (0, 1), BuildingBlock: XUDNAN_clean_linker_2, # of connection points: 2
#     Edge 103, Type (0, 1), BuildingBlock: XUDNAN_clean_linker_2, # of connection points: 2
#     Edge 104, Type (0, 1), BuildingBlock: XUDNAN_clean_linker_2, # of connection points: 2
#     Edge 105, Type (0, 1), BuildingBlock: XUDNAN_clean_linker_2, # of connection points: 2
#     Edge 106, Type (0, 1), BuildingBlock: XUDNAN_clean_linker_2, # of connection points: 2
#     Edge 107, Type (0, 1), BuildingBlock: XUDNAN_clean_linker_2, # of connection points: 2
#     Edge 108, Type (0, 1), BuildingBlock: XUDNAN_clean_linker_2, # of connection points: 2
#     Edge 109, Type (0, 1), BuildingBlock: XUDNAN_clean_linker_2, # of connection points: 2
#     Edge 110, Type (0, 1), BuildingBlock: XUDNAN_clean_linker_2, # of connection points: 2
#     Edge 111, Type (0, 1), BuildingBlock: XUDNAN_clean_linker_2, # of connection points: 2
#     Edge 112, Type (0, 1), BuildingBlock: XUDNAN_clean_linker_2, # of connection points: 2
#     Edge 113, Type (0, 1), BuildingBlock: XUDNAN_clean_linker_2, # of connection points: 2
#     Edge 114, Type (0, 1), BuildingBlock: XUDNAN_clean_linker_2, # of connection points: 2
#     Edge 115, Type (0, 1), BuildingBlock: XUDNAN_clean_linker_2, # of connection points: 2
#     Edge 116, Type (0, 1), BuildingBlock: XUDNAN_clean_linker_2, # of connection points: 2
#     Edge 117, Type (0, 1), BuildingBlock: XUDNAN_clean_linker_2, # of connection points: 2
#     Edge 118, Type (0, 1), BuildingBlock: XUDNAN_clean_linker_2, # of connection points: 2
#     Edge 119, Type (0, 1), BuildingBlock: XUDNAN_clean_linker_2, # of connection points: 2
#     Edge 120, Type (0, 1), BuildingBlock: XUDNAN_clean_linker_2, # of connection points: 2
#     Edge 121, Type (0, 1), BuildingBlock: XUDNAN_clean_linker_2, # of connection points: 2
#     Edge 122, Type (0, 1), BuildingBlock: XUDNAN_clean_linker_2, # of connection points: 2
#     Edge 123, Type (0, 1), BuildingBlock: XUDNAN_clean_linker_2, # of connection points: 2
#     Edge 124, Type (0, 1), BuildingBlock: XUDNAN_clean_linker_2, # of connection points: 2
#     Edge 125, Type (0, 1), BuildingBlock: XUDNAN_clean_linker_2, # of connection points: 2
#     Edge 126, Type (0, 1), BuildingBlock: XUDNAN_clean_linker_2, # of connection points: 2
#     Edge 127, Type (0, 1), BuildingBlock: XUDNAN_clean_linker_2, # of connection points: 2
#     Edge 128, Type (0, 1), BuildingBlock: XUDNAN_clean_linker_2, # of connection points: 2
#     Edge 129, Type (0, 1), BuildingBlock: XUDNAN_clean_linker_2, # of connection points: 2
#     Edge 130, Type (0, 1), BuildingBlock: XUDNAN_clean_linker_2, # of connection points: 2
#     Edge 131, Type (0, 1), BuildingBlock: XUDNAN_clean_linker_2, # of connection points: 2
#     Edge 132, Type (0, 1), BuildingBlock: XUDNAN_clean_linker_2, # of connection points: 2
#     Edge 133, Type (0, 1), BuildingBlock: XUDNAN_clean_linker_2, # of connection points: 2
#     Edge 134, Type (0, 1), BuildingBlock: XUDNAN_clean_linker_2, # of connection points: 2
#     Edge 135, Type (0, 1), BuildingBlock: XUDNAN_clean_linker_2, # of connection points: 2
# Relax obj value: 0.157
# Max RMSD: 0.275
# Mean RMSD: 0.181
data_MOF--net-gar--node1-QUQFOY_clean_sbu_1--node2-BETDEL_clean_sbu_0--edge1-XUDNAN_clean_linker_2
_symmetry_space_group_name_H-M    P1
_symmetry_Int_Tables_number       1
_symmetry_cell_setting            triclinic
loop_
_symmetry_equiv_pos_as_xyz
'x, y, z'
_cell_length_a     56.826106
_cell_length_b     54.117722
_cell_length_c     55.66611
_cell_angle_alpha  95.751445
_cell_angle_beta   92.818992
_cell_angle_gamma 103.25284
loop_
_atom_site_label
_atom_site_type_symbol
_atom_site_fract_x
_atom_site_fract_y
_atom_site_fract_z
_atom_type_partial_charge
O0 O 0.02663 0.22494 0.40464 0.0
Cd1 Cd 0.02693 0.24928 0.37794 0.0
Cd2 Cd 0.02506 0.28326 0.42073 0.0
O3 O 0.03336 0.25347 0.43699 0.0
O4 O 0.03786 0.23106 0.3491 0.0
O5 O 0.05945 0.26779 0.36776 0.0
C6 C 0.05747 0.24894 0.35099 0.0
C7 C 0.03752 0.32425 0.442 0.0
C8 C 0.03113 0.23066 0.42741 0.0
C9 C 0.9826 0.26973 0.38165 0.0
O10 O 0.99136 0.27854 0.40305 0.0
O11 O 0.99466 0.2586 0.36727 0.0
O12 O 0.02113 0.30667 0.44938 0.0
O13 O 0.04794 0.3183 0.4229 0.0
O14 O 0.9784 0.73211 0.62126 0.0
Cd15 Cd 0.98645 0.76114 0.64973 0.0
Cd16 Cd 0.01731 0.78383 0.61744 0.0
O17 O 0.00704 0.74818 0.59794 0.0
O18 O 0.96525 0.74585 0.67455 0.0
O19 O 0.96268 0.78216 0.66131 0.0
C20 C 0.95546 0.76507 0.67562 0.0
C21 C 0.01001 0.8184 0.59907 0.0
C22 C 0.99008 0.72983 0.60256 0.0
C23 C 0.04106 0.77676 0.66374 0.0
O24 O 0.04445 0.78762 0.64458 0.0
O25 O 0.01979 0.76555 0.66822 0.0
O26 O 0.02882 0.80955 0.59478 0.0
O27 O 0.99552 0.80797 0.61436 0.0
O28 O 0.58391 0.78297 0.89715 0.0
Cd29 Cd 0.56385 0.78529 0.92722 0.0
Cd30 Cd 0.53455 0.80301 0.89498 0.0
O31 O 0.55985 0.79622 0.8715 0.0
O32 O 0.57075 0.76072 0.94975 0.0
O33 O 0.5347 0.75742 0.93095 0.0
C34 C 0.54827 0.74868 0.94569 0.0
C35 C 0.49338 0.79264 0.88176 0.0
C36 C 0.57896 0.78858 0.8761 0.0
C37 C 0.55761 0.8384 0.93953 0.0
O38 O 0.54477 0.83497 0.91966 0.0
O39 O 0.56694 0.8209 0.9466 0.0
O40 O 0.50853 0.81111 0.87396 0.0
O41 O 0.50177 0.77927 0.89657 0.0
O42 O 0.47592 0.23676 0.11623 0.0
Cd43 Cd 0.48485 0.26792 0.14256 0.0
Cd44 Cd 0.5165 0.28831 0.1082 0.0
O45 O 0.50211 0.25239 0.09039 0.0
O46 O 0.46378 0.25654 0.16902 0.0
O47 O 0.46119 0.29033 0.15102 0.0
C48 C 0.45393 0.27549 0.16727 0.0
C49 C 0.51635 0.32301 0.08637 0.0
C50 C 0.48606 0.2341 0.09656 0.0
C51 C 0.54015 0.28118 0.15484 0.0
O52 O 0.54381 0.28986 0.1346 0.0
O53 O 0.51864 0.27269 0.16066 0.0
O54 O 0.53091 0.3083 0.08202 0.0
O55 O 0.50211 0.31844 0.10362 0.0
O56 O 0.03371 0.74695 0.14183 0.0
Cd57 Cd 0.03811 0.77943 0.16596 0.0
Cd58 Cd 0.05612 0.80519 0.129 0.0
O59 O 0.0457 0.76847 0.11126 0.0
O60 O 0.01403 0.77284 0.1907 0.0
O61 O 0.01452 0.8017 0.16498 0.0
C62 C 0.00474 0.79036 0.18267 0.0
C63 C 0.04769 0.83638 0.10553 0.0
C64 C 0.03777 0.74738 0.11964 0.0
C65 C 0.08993 0.80744 0.17363 0.0
O66 O 0.08737 0.81405 0.1525 0.0
O67 O 0.07206 0.79395 0.18285 0.0
O68 O 0.06503 0.82525 0.1013 0.0
O69 O 0.03542 0.83063 0.12392 0.0
O70 O 0.55776 0.76977 0.37541 0.0
Cd71 Cd 0.53347 0.77159 0.4015 0.0
Cd72 Cd 0.50288 0.77328 0.36216 0.0
O73 O 0.53174 0.76604 0.34377 0.0
O74 O 0.54305 0.75361 0.42862 0.0
O75 O 0.50868 0.73981 0.4054 0.0
C76 C 0.52303 0.7366 0.42298 0.0
C77 C 0.46317 0.7546 0.34686 0.0
C78 C 0.55291 0.7665 0.35263 0.0
C79 C 0.51432 0.81835 0.40149 0.0
O80 O 0.50517 0.80888 0.38036 0.0
O81 O 0.52636 0.80632 0.41393 0.0
O82 O 0.47732 0.77114 0.33579 0.0
O83 O 0.47199 0.74734 0.36604 0.0
O84 O 0.53428 0.25423 0.62857 0.0
Cd85 Cd 0.5339 0.28291 0.65626 0.0
Cd86 Cd 0.56528 0.31061 0.62715 0.0
O87 O 0.56183 0.27594 0.60707 0.0
O88 O 0.51196 0.2639 0.67873 0.0
O89 O 0.50394 0.2968 0.66261 0.0
C90 C 0.49797 0.2793 0.6768 0.0
C91 C 0.54989 0.3422 0.61117 0.0
C92 C 0.54778 0.25504 0.61093 0.0
C93 C 0.58639 0.30832 0.67584 0.0
O94 O 0.59076 0.31762 0.65603 0.0
O95 O 0.56538 0.29512 0.67895 0.0
O96 O 0.57098 0.33883 0.60613 0.0
O97 O 0.53778 0.32784 0.62579 0.0
O98 O 0.00552 0.21076 0.87705 0.0
Cd99 Cd 1.00127 0.23651 0.85257 0.0
Cd100 Cd 0.98765 0.25975 0.89532 0.0
O101 O 0.99602 0.22976 0.91105 0.0
O102 O 0.02299 0.23119 0.82612 0.0
O103 O 0.02956 0.26648 0.85176 0.0
C104 C 0.03657 0.2534 0.83394 0.0
C105 C 1.00083 0.30168 0.91348 0.0
C106 C 1.00299 0.2115 0.89971 0.0
C107 C 0.95145 0.24646 0.85106 0.0
O108 O 0.95655 0.25375 0.87348 0.0
O109 O 0.96702 0.23893 0.83826 0.0
O110 O 0.9832 0.2859 0.92151 0.0
O111 O 0.01185 0.29325 0.89579 0.0
O112 O 0.42061 0.06506 0.24615 0.0
Cd113 Cd 0.39628 0.05409 0.27152 0.0
Cd114 Cd 0.43668 0.0476 0.29538 0.0
O115 O 0.45228 0.05485 0.26343 0.0
O116 O 0.3669 0.06345 0.2585 0.0
O117 O 0.38572 0.0801 0.29424 0.0
C118 C 0.36818 0.07864 0.27811 0.0
C119 C 0.45484 0.06984 0.33158 0.0
C120 C 0.44234 0.06285 0.24584 0.0
C121 C 0.39445 0.00283 0.28867 0.0
O122 O 0.41576 0.01198 0.29832 0.0
O123 O 0.38397 0.01612 0.27619 0.0
O124 O 0.46388 0.0527 0.3202 0.0
O125 O 0.43565 0.07514 0.32206 0.0
O126 O 0.27971 0.17653 0.54182 0.0
Cd127 Cd 0.27786 0.14623 0.51519 0.0
Cd128 Cd 0.25395 0.17807 0.48791 0.0
O129 O 0.2605 0.20011 0.52148 0.0
O130 O 0.29373 0.12275 0.53227 0.0
O131 O 0.30776 0.13858 0.49954 0.0
C132 C 0.30937 0.12402 0.51624 0.0
C133 C 0.26279 0.19639 0.45161 0.0
C134 C 0.27074 0.19599 0.5411 0.0
C135 C 0.22462 0.12601 0.49574 0.0
O136 O 0.22522 0.14643 0.48604 0.0
O137 O 0.24343 0.12274 0.50716 0.0
O138 O 0.24486 0.20019 0.46362 0.0
O139 O 0.27615 0.18263 0.46049 0.0
O140 O 0.13964 0.00188 0.7351 0.0
Cd141 Cd 0.16741 0.00612 0.76166 0.0
Cd142 Cd 0.13418 0.02299 0.79306 0.0
O143 O 0.11588 0.01806 0.75919 0.0
O144 O 0.18913 0.98322 0.75101 0.0
O145 O 0.17004 0.98028 0.78474 0.0
C146 C 0.18458 0.97223 0.77036 0.0
C147 C 0.10794 0.02058 0.82508 0.0
C148 C 0.12042 0.00969 0.73817 0.0
C149 C 0.18246 0.05946 0.78677 0.0
O150 O 0.16398 0.05361 0.79888 0.0
O151 O 0.18696 0.04356 0.77021 0.0
O152 O 0.1108 0.03856 0.81136 0.0
O153 O 0.12018 0.00347 0.82093 0.0
O154 O 0.25815 0.90883 0.05454 0.0
Cd155 Cd 0.25882 0.924 0.02223 0.0
Cd156 Cd 0.26163 0.87576 0.00504 0.0
O157 O 0.25537 0.86873 0.04017 0.0
O158 O 0.24665 0.95542 0.02937 0.0
O159 O 0.22876 0.92349 1.00156 0.0
C160 C 0.22929 0.94563 0.01299 0.0
C161 C 0.24283 0.84591 0.97294 0.0
C162 C 0.25622 0.88564 0.05794 0.0
C163 C 0.3046 0.91931 1.00066 0.0
O164 O 0.29592 0.8953 0.99836 0.0
O165 O 0.29228 0.93458 0.00912 0.0
O166 O 0.25863 0.84101 0.98796 0.0
O167 O 0.23675 0.86747 0.9767 0.0
O168 O 0.25519 0.38557 0.08026 0.0
Cd169 Cd 0.25851 0.416 0.05935 0.0
Cd170 Cd 0.26896 0.37414 0.02247 0.0
O171 O 0.25825 0.35446 0.05215 0.0
O172 O 0.23724 0.43961 0.07035 0.0
O173 O 0.23218 0.41715 0.03422 0.0
C174 C 0.22558 0.43363 0.04928 0.0
C175 C 0.26975 0.35017 0.9846 0.0
C176 C 0.25488 0.3622 0.07384 0.0
C177 C 0.30565 0.42773 0.03743 0.0
O178 O 0.29799 0.40568 0.0257 0.0
O179 O 0.29305 0.43615 0.05316 0.0
O180 O 0.28441 0.34993 0.00287 0.0
O181 O 0.25319 0.36269 0.9881 0.0
O182 O 0.81207 0.17738 0.07394 0.0
Cd183 Cd 0.79777 0.14758 0.04789 0.0
Cd184 Cd 0.78281 0.18282 0.02346 0.0
O185 O 0.79788 0.20526 0.05491 0.0
O186 O 0.81457 0.12046 0.05438 0.0
O187 O 0.81558 0.13751 0.0197 0.0
C188 C 0.82193 0.12143 0.03288 0.0
C189 C 0.78805 0.20613 0.99037 0.0
C190 C 0.80907 0.19979 0.07315 0.0
C191 C 0.74469 0.13897 0.03702 0.0
O192 O 0.74955 0.15769 0.02456 0.0
O193 O 0.76147 0.13213 0.04859 0.0
O194 O 0.77361 0.21005 0.00661 0.0
O195 O 0.79907 0.18796 0.9922 0.0
O196 O 0.09911 0.48583 0.20286 0.0
Cd197 Cd 0.13286 0.50021 0.22033 0.0
Cd198 Cd 0.10851 0.52428 0.24959 0.0
O199 O 0.08403 0.51667 0.21985 0.0
O200 O 0.15239 0.48061 0.20162 0.0
O201 O 0.14921 0.4796 0.24099 0.0
C202 C 0.1582 0.47231 0.22139 0.0
C203 C 0.0936 0.51436 0.28624 0.0
C204 C 0.08247 0.49789 0.20381 0.0
C205 C 0.15223 0.55594 0.23264 0.0
O206 O 0.13822 0.55392 0.24975 0.0
O207 O 0.15102 0.53709 0.21677 0.0
O208 O 0.09045 0.5343 0.27685 0.0
O209 O 0.10553 0.49988 0.27472 0.0
O210 O 0.75648 0.88925 0.57786 0.0
Cd211 Cd 0.7562 0.90879 0.54737 0.0
Cd212 Cd 0.77634 0.86758 0.53073 0.0
O213 O 0.76368 0.85272 0.56218 0.0
O214 O 0.73592 0.93417 0.55484 0.0
O215 O 0.72648 0.90349 0.52427 0.0
C216 C 0.72144 0.92305 0.53637 0.0
C217 C 0.77523 0.843 0.49299 0.0
C218 C 0.75849 0.86658 0.58009 0.0
C219 C 0.80803 0.92132 0.53569 0.0
O220 O 0.8069 0.89755 0.53525 0.0
O221 O 0.78908 0.92982 0.53793 0.0
O222 O 0.78896 0.84082 0.5114 0.0
O223 O 0.76039 0.85766 0.49644 0.0
O224 O 0.89689 0.04952 0.18632 0.0
Cd225 Cd 0.86912 0.04514 0.21015 0.0
Cd226 Cd 0.91214 0.04195 0.24291 0.0
O227 O 0.92856 0.05654 0.21319 0.0
O228 O 0.84217 0.05955 0.1971 0.0
O229 O 0.86406 0.07627 0.23117 0.0
C230 C 0.84659 0.07679 0.21559 0.0
C231 C 0.93695 0.04186 0.27809 0.0
C232 C 0.91974 0.05563 0.19156 0.0
C233 C 0.86633 0.99631 0.23069 0.0
O234 O 0.88775 0.00713 0.23919 0.0
O235 O 0.85403 0.00836 0.21862 0.0
O236 O 0.93935 0.02964 0.25772 0.0
O237 O 0.92177 0.05632 0.27826 0.0
O238 O 0.30816 0.66936 0.58466 0.0
Cd239 Cd 0.29401 0.63861 0.55945 0.0
Cd240 Cd 0.27747 0.67369 0.53383 0.0
O241 O 0.2947 0.69694 0.56434 0.0
O242 O 0.31229 0.61191 0.5628 0.0
O243 O 0.31008 0.63077 0.52941 0.0
C244 C 0.31768 0.61399 0.54071 0.0
C245 C 0.27485 0.69577 0.50006 0.0
C246 C 0.30572 0.69186 0.58295 0.0
C247 C 0.2412 0.62836 0.54952 0.0
O248 O 0.24566 0.64713 0.53711 0.0
O249 O 0.25816 0.62195 0.56115 0.0
O250 O 0.28836 0.6796 0.50024 0.0
O251 O 0.26334 0.69929 0.51889 0.0
O252 O 0.39508 0.55579 0.69085 0.0
Cd253 Cd 0.37144 0.54849 0.71822 0.0
Cd254 Cd 0.41388 0.54167 0.74018 0.0
O255 O 0.43 0.55668 0.71065 0.0
O256 O 0.3421 0.5607 0.70811 0.0
O257 O 0.36605 0.57851 0.74061 0.0
C258 C 0.34718 0.57801 0.72647 0.0
C259 C 0.42845 0.55218 0.78071 0.0
C260 C 0.41808 0.55919 0.69145 0.0
C261 C 0.37205 0.49568 0.73004 0.0
O262 O 0.39469 0.5045 0.73456 0.0
O263 O 0.35854 0.51041 0.72465 0.0
O264 O 0.43951 0.54018 0.7655 0.0
O265 O 0.41044 0.56049 0.77234 0.0
O266 O 0.62139 0.98057 0.69717 0.0
Cd267 Cd 0.64921 0.99548 0.72299 0.0
Cd268 Cd 0.61774 0.01793 0.74679 0.0
O269 O 0.59702 0.0019 0.71498 0.0
O270 O 0.67377 0.97506 0.71978 0.0
O271 O 0.65511 0.98025 0.75337 0.0
C272 C 0.6714 0.97142 0.74217 0.0
C273 C 0.5955 0.01777 0.78097 0.0
C274 C 0.6013 0.98695 0.69754 0.0
C275 C 0.66434 0.05148 0.73355 0.0
O276 O 0.64626 0.04961 0.74639 0.0
O277 O 0.66785 0.03202 0.72094 0.0
O278 O 0.59375 0.03253 0.76458 0.0
O279 O 0.6103 0.00298 0.77821 0.0
O280 O 0.78621 0.67049 0.04889 0.0
Cd281 Cd 0.78122 0.64019 0.02158 0.0
Cd282 Cd 0.76052 0.67184 0.9952 0.0
O283 O 0.76595 0.69342 0.02901 0.0
O284 O 0.80304 0.61733 0.03025 0.0
O285 O 0.80565 0.63653 0.99699 0.0
C286 C 0.81337 0.62144 0.01043 0.0
C287 C 0.77151 0.69175 0.96017 0.0
C288 C 0.77681 0.68969 0.04845 0.0
C289 C 0.7282 0.62164 0.00385 0.0
O290 O 0.73093 0.64096 0.9921 0.0
O291 O 0.74591 0.61797 0.01683 0.0
O292 O 0.75223 0.69401 0.97057 0.0
O293 O 0.78481 0.67835 0.96973 0.0
O294 O 0.91734 0.5741 0.74676 0.0
Cd295 Cd 0.88749 0.56281 0.76587 0.0
Cd296 Cd 0.91802 0.54219 0.79044 0.0
O297 O 0.93714 0.5471 0.76014 0.0
O298 O 0.86427 0.58071 0.75233 0.0
O299 O 0.87679 0.58607 0.79123 0.0
C300 C 0.86304 0.5909 0.774 0.0
C301 C 0.94016 0.55395 0.82747 0.0
C302 C 0.93486 0.56323 0.74568 0.0
C303 C 0.86971 0.5087 0.77425 0.0
O304 O 0.88803 0.51244 0.78925 0.0
O305 O 0.86748 0.52567 0.76076 0.0
O306 O 0.94036 0.53304 0.81429 0.0
O307 O 0.9274 0.56874 0.8195 0.0
O308 O 0.74338 0.40166 0.54919 0.0
Cd309 Cd 0.74894 0.42789 0.52466 0.0
Cd310 Cd 0.75014 0.38459 0.49156 0.0
O311 O 0.74289 0.36801 0.523 0.0
O312 O 0.73374 0.45631 0.53547 0.0
O313 O 0.72228 0.43064 0.50112 0.0
C314 C 0.71976 0.44985 0.51575 0.0
C315 C 0.73868 0.35557 0.45672 0.0
C316 C 0.74119 0.37778 0.54437 0.0
C317 C 0.79392 0.4311 0.49999 0.0
O318 O 0.78295 0.40976 0.48853 0.0
O319 O 0.78387 0.44198 0.51646 0.0
O320 O 0.75701 0.35532 0.47103 0.0
O321 O 0.7262 0.37217 0.46223 0.0
O322 O 0.63939 0.50742 0.23964 0.0
Cd323 Cd 0.66706 0.50754 0.26592 0.0
Cd324 Cd 0.63546 0.52874 0.29672 0.0
O325 O 0.61506 0.52238 0.26417 0.0
O326 O 0.69084 0.48968 0.25045 0.0
O327 O 0.67027 0.47546 0.28086 0.0
C328 C 0.68642 0.4732 0.26579 0.0
C329 C 0.61515 0.51759 0.33141 0.0
C330 C 0.61978 0.51457 0.24301 0.0
C331 C 0.68441 0.56224 0.29081 0.0
O332 O 0.6641 0.56055 0.29988 0.0
O333 O 0.68907 0.54322 0.27822 0.0
O334 O 0.61359 0.53782 0.32168 0.0
O335 O 0.62845 0.50354 0.32158 0.0
Dy336 Dy 0.99387 0.02314 0.00932 0.0
C337 C 0.09554 0.03075 0.01285 0.0
C338 C 0.947 0.02724 0.00941 0.0
Dy339 Dy 0.0493 0.03493 0.01947 0.0
O340 O 0.9562 0.01648 0.99145 0.0
O341 O 0.9632 0.03496 0.02751 0.0
O342 O 0.99676 0.99821 0.97511 0.0
O343 O 0.02466 0.02965 0.98753 0.0
C344 C 0.0187 0.01048 0.97183 0.0
C345 C 0.02499 0.04876 0.05661 0.0
O346 O 0.04746 0.07074 0.00393 0.0
O347 O 0.0056 0.06515 0.00366 0.0
O348 O 0.08696 0.03388 0.03394 0.0
O349 O 0.07911 0.03072 0.99587 0.0
O350 O 0.047 0.06087 0.05308 0.0
O351 O 0.01839 0.0289 0.04164 0.0
O352 O 0.99619 0.98709 0.02501 0.0
O353 O 0.03742 0.99247 0.02005 0.0
C354 C 0.02751 0.07901 1.00018 0.0
C355 C 0.01619 0.97836 0.02476 0.0
Dy356 Dy 0.27862 0.78721 0.24716 0.0
C357 C 0.26011 0.76208 0.3439 0.0
C358 C 0.28369 0.80822 0.20475 0.0
Dy359 Dy 0.26391 0.77724 0.29882 0.0
O360 O 0.29793 0.81605 0.22429 0.0
O361 O 0.26708 0.7882 0.20805 0.0
O362 O 0.30851 0.76658 0.24981 0.0
O363 O 0.29794 0.78455 0.28131 0.0
C364 C 0.31049 0.76952 0.27337 0.0
C365 C 0.2321 0.79467 0.27192 0.0
O366 O 0.28993 0.81528 0.30551 0.0
O367 O 0.28167 0.8259 0.26747 0.0
O368 O 0.25336 0.78177 0.33703 0.0
O369 O 0.26865 0.7504 0.32605 0.0
O370 O 0.23319 0.79727 0.29541 0.0
O371 O 0.24503 0.7799 0.26469 0.0
O372 O 0.25789 0.74668 0.23887 0.0
O373 O 0.25364 0.7379 0.27885 0.0
C374 C 0.29065 0.83254 0.29017 0.0
C375 C 0.25143 0.73063 0.25519 0.0
Dy376 Dy 0.54663 0.0276 0.51552 0.0
C377 C 0.44798 0.04249 0.51346 0.0
C378 C 0.58798 0.00955 0.5144 0.0
Dy379 Dy 0.49212 0.02999 0.51693 0.0
O380 O 0.57381 0.01076 0.49578 0.0
O381 O 0.58007 0.01916 0.53395 0.0
O382 O 0.55242 0.0568 0.48924 0.0
O383 O 0.51815 0.03159 0.48952 0.0
C384 C 0.52977 0.05113 0.48102 0.0
C385 C 0.50951 0.00808 0.55278 0.0
O386 O 0.48929 0.99549 0.49019 0.0
O387 O 0.52474 0.98735 0.5061 0.0
O388 O 0.45263 0.02352 0.52384 0.0
O389 O 0.46748 0.0546 0.50454 0.0
O390 O 0.48684 0.00211 0.54482 0.0
O391 O 0.52074 0.02686 0.54305 0.0
O392 O 0.5526 0.06564 0.53748 0.0
O393 O 0.51239 0.0695 0.53279 0.0
C394 C 0.50409 0.97999 0.49242 0.0
C395 C 0.53569 0.07894 0.54004 0.0
Dy396 Dy 0.24503 0.28279 0.7609 0.0
C397 C 0.3446 0.27868 0.75231 0.0
C398 C 0.19812 0.28263 0.77073 0.0
Dy399 Dy 0.29731 0.27644 0.76184 0.0
O400 O 0.21556 0.30277 0.77039 0.0
O401 O 0.20615 0.26228 0.76519 0.0
O402 O 0.25573 0.31699 0.74039 0.0
O403 O 0.28087 0.3088 0.76549 0.0
C404 C 0.27805 0.32308 0.7496 0.0
C405 C 0.26541 0.23691 0.77526 0.0
O406 O 0.29821 0.29671 0.79913 0.0
O407 O 0.25639 0.28718 0.80083 0.0
O408 O 0.3323 0.26405 0.7667 0.0
O409 O 0.3312 0.29253 0.74342 0.0
O410 O 0.28796 0.24368 0.78355 0.0
O411 O 0.26151 0.24975 0.75832 0.0
O412 O 0.244 0.26673 0.72209 0.0
O413 O 0.28502 0.26674 0.7222 0.0
C414 C 0.27863 0.29516 0.81154 0.0
C415 C 0.26326 0.26339 0.71077 0.0
Dy416 Dy 0.00602 0.01465 0.48499 0.0
C417 C 0.05054 0.04142 0.58264 0.0
C418 C 0.98334 0.00258 0.4395 0.0
Dy419 Dy 0.02656 0.02944 0.53769 0.0
O420 O 1.00173 0.99426 0.44724 0.0
O421 O 0.97647 0.01624 0.45713 0.0
O422 O 0.04142 0.03537 0.47259 0.0
O423 O 0.04141 0.01773 0.50434 0.0
C424 C 0.05443 0.03192 0.49112 0.0
C425 C 0.97819 0.01198 0.53162 0.0
O426 O 0.03301 0.06809 0.52381 0.0
O427 O 0.00559 0.05572 0.49006 0.0
O428 O 0.03036 0.0473 0.57637 0.0
O429 O 0.05826 0.03017 0.56394 0.0
O430 O 0.99132 0.00831 0.54999 0.0
O431 O 0.9911 0.02635 0.51841 0.0
O432 O 0.99801 0.97645 0.49958 0.0
O433 O 0.02704 0.9882 0.53203 0.0
C434 C 0.02072 0.0736 0.50493 0.0
C435 C 0.01108 0.97059 0.51766 0.0
Dy436 Dy 0.28944 0.78436 0.78474 0.0
C437 C 0.1947 0.75412 0.73606 0.0
C438 C 0.32928 0.79014 0.81611 0.0
Dy439 Dy 0.23898 0.76317 0.7611 0.0
O440 O 0.3288 0.80158 0.79668 0.0
O441 O 0.30785 0.77629 0.8187 0.0
O442 O 0.30218 0.80089 0.75094 0.0
O443 O 0.27517 0.76709 0.74843 0.0
C444 C 0.28705 0.7835 0.73635 0.0
C445 C 0.2428 0.7649 0.80971 0.0
O446 O 0.25318 0.72829 0.75243 0.0
O447 O 0.28671 0.74137 0.77998 0.0
O448 O 0.19974 0.7429 0.75451 0.0
O449 O 0.21421 0.76967 0.73055 0.0
O450 O 0.22805 0.74679 0.79573 0.0
O451 O 0.25347 0.78132 0.7971 0.0
O452 O 0.27505 0.81978 0.79071 0.0
O453 O 0.24315 0.80571 0.76134 0.0
C454 C 0.27188 0.72333 0.76469 0.0
C455 C 0.25726 0.82419 0.77659 0.0
Dy456 Dy 0.51732 0.03573 0.04302 0.0
C457 C 0.53164 0.02917 0.9404 0.0
C458 C 0.50967 0.0517 0.08924 0.0
Dy459 Dy 0.52605 0.03786 0.98859 0.0
O460 O 0.51078 0.0285 0.08158 0.0
O461 O 0.51295 0.066 0.07177 0.0
O462 O 0.51898 0.99438 0.0402 0.0
O463 O 0.53887 0.01927 0.01773 0.0
C464 C 0.53243 0.99633 0.02186 0.0
C465 C 0.51058 0.07681 0.01072 0.0
O466 O 0.49191 0.00673 0.98794 0.0
O467 O 0.48021 0.01853 0.02601 0.0
O468 O 0.51694 0.04197 0.94975 0.0
O469 O 0.54333 0.021 0.95738 0.0
O470 O 0.52523 0.07957 0.99345 0.0
O471 O 0.50402 0.05364 0.01385 0.0
O472 O 0.555 0.06083 0.04482 0.0
O473 O 0.56333 0.05744 0.00412 0.0
C474 C 0.47552 0.00535 0.00425 0.0
C475 C 0.56985 0.06567 0.02728 0.0
Dy476 Dy 0.2583 0.30161 0.26158 0.0
C477 C 0.26333 0.19487 0.26283 0.0
C478 C 0.24921 0.34492 0.24751 0.0
Dy479 Dy 0.25668 0.24091 0.25278 0.0
O480 O 0.26139 0.34419 0.26788 0.0
O481 O 0.24284 0.32249 0.23523 0.0
O482 O 0.25723 0.2993 0.30187 0.0
O483 O 0.2716 0.2734 0.2798 0.0
C484 C 0.26537 0.27853 0.30082 0.0
C485 C 0.24407 0.26021 0.21228 0.0
O486 O 0.2203 0.24032 0.26686 0.0
O487 O 0.21952 0.28353 0.26722 0.0
O488 O 0.25477 0.21034 0.27747 0.0
O489 O 0.26757 0.20428 0.24242 0.0
O490 O 0.24392 0.23607 0.21245 0.0
O491 O 0.24937 0.27048 0.23363 0.0
O492 O 0.29551 0.30279 0.2485 0.0
O493 O 0.29592 0.25956 0.25023 0.0
C494 C 0.20931 0.25947 0.27024 0.0
C495 C 0.30646 0.2834 0.24659 0.0
Dy496 Dy 0.5048 0.52765 0.98785 0.0
C497 C 0.54134 0.54544 0.09092 0.0
C498 C 0.47677 0.52395 0.94581 0.0
Dy499 Dy 0.52008 0.54218 0.04516 0.0
O500 O 0.49587 0.51455 0.94791 0.0
O501 O 0.47255 0.53413 0.96683 0.0
O502 O 0.54275 0.54011 0.97506 0.0
O503 O 0.53669 0.54398 0.01134 0.0
C504 C 0.55299 0.54756 0.99681 0.0
C505 C 0.47215 0.52821 0.0315 0.0
O506 O 0.5264 0.58112 0.03247 0.0
O507 O 0.50061 0.56764 0.99734 0.0
O508 O 0.52142 0.55228 0.0855 0.0
O509 O 0.55015 0.53769 0.07122 0.0
O510 O 0.48114 0.54332 0.05108 0.0
O511 O 0.4889 0.52006 0.02195 0.0
O512 O 0.50518 0.48845 0.99808 0.0
O513 O 0.52087 0.50072 0.03856 0.0
C514 C 0.51355 0.58589 0.01361 0.0
C515 C 0.5135 0.48326 0.01942 0.0
Dy516 Dy 0.78696 0.28114 0.27537 0.0
C517 C 0.6918 0.25257 0.22677 0.0
C518 C 0.82911 0.28832 0.30398 0.0
Dy519 Dy 0.73572 0.2603 0.25231 0.0
O520 O 0.82731 0.28491 0.28051 0.0
O521 O 0.80801 0.28855 0.31181 0.0
O522 O 0.79773 0.30028 0.24244 0.0
O523 O 0.77169 0.26555 0.23902 0.0
C524 C 0.78284 0.28299 0.22751 0.0
C525 C 0.73995 0.25921 0.30053 0.0
O526 O 0.75085 0.22629 0.24217 0.0
O527 O 0.78292 0.23801 0.27147 0.0
O528 O 0.69649 0.24019 0.24452 0.0
O529 O 0.71149 0.26848 0.22217 0.0
O530 O 0.72451 0.2424 0.28583 0.0
O531 O 0.75104 0.27634 0.28871 0.0
O532 O 0.77526 0.31826 0.27905 0.0
O533 O 0.73844 0.30267 0.2562 0.0
C534 C 0.76909 0.22078 0.25475 0.0
C535 C 0.75499 0.32172 0.26837 0.0
Dy536 Dy 0.01235 0.52873 0.54695 0.0
C537 C 0.03049 0.51655 0.44616 0.0
C538 C 0.00631 0.54563 0.59325 0.0
Dy539 Dy 0.02257 0.53049 0.49278 0.0
O540 O 0.00487 0.52183 0.58531 0.0
O541 O 0.011 0.55997 0.57595 0.0
O542 O 0.01152 0.4867 0.54364 0.0
O543 O 0.03336 0.511 0.52209 0.0
C544 C 0.02555 0.4881 0.52576 0.0
C545 C 0.00924 0.57099 0.51437 0.0
O546 O 0.98431 0.50601 0.49041 0.0
O547 O 0.97469 0.51451 0.53013 0.0
O548 O 0.02763 0.50146 0.46301 0.0
O549 O 0.02868 0.53925 0.45467 0.0
O550 O 0.02354 0.57272 0.49674 0.0
O551 O 1.0015 0.548 0.5176 0.0
O552 O 0.05087 0.55171 0.54972 0.0
O553 O 0.0603 0.54587 0.50957 0.0
C554 C 0.96851 0.50425 0.50739 0.0
C555 C 0.06648 0.55467 0.53268 0.0
Dy556 Dy 0.75217 0.77721 0.2677 0.0
C557 C 0.85323 0.79532 0.25702 0.0
C558 C 0.70413 0.76653 0.27605 0.0
Dy559 Dy 0.80619 0.78038 0.26813 0.0
O560 O 0.71351 0.77857 0.25849 0.0
O561 O 0.72095 0.76011 0.28894 0.0
O562 O 0.75732 0.81422 0.25044 0.0
O563 O 0.78452 0.80806 0.27389 0.0
C564 C 0.77949 0.82283 0.25951 0.0
C565 C 0.78087 0.73589 0.27989 0.0
O566 O 0.80512 0.79575 0.30696 0.0
O567 O 0.76312 0.78486 0.30783 0.0
O568 O 0.83641 0.8073 0.25282 0.0
O569 O 0.84449 0.77532 0.26778 0.0
O570 O 0.80323 0.74635 0.28776 0.0
O571 O 0.77377 0.74833 0.26392 0.0
O572 O 0.75293 0.75851 0.23004 0.0
O573 O 0.79465 0.77004 0.22834 0.0
C574 C 0.78518 0.79301 0.31896 0.0
C575 C 0.77256 0.7607 0.21776 0.0
Dy576 Dy 0.77063 0.28305 0.73373 0.0
C577 C 0.78305 0.27591 0.83764 0.0
C578 C 0.76179 0.29315 0.6879 0.0
Dy579 Dy 0.76917 0.28021 0.7913 0.0
O580 O 0.74947 0.27379 0.69753 0.0
O581 O 0.77935 0.30651 0.70303 0.0
O582 O 0.80661 0.27081 0.73522 0.0
O583 O 0.79582 0.2903 0.76528 0.0
C584 C 0.81143 0.27882 0.75819 0.0
C585 C 0.72526 0.28006 0.77077 0.0
O586 O 0.78301 0.32204 0.78883 0.0
O587 O 0.76783 0.32193 0.7491 0.0
O588 O 0.77315 0.29378 0.83094 0.0
O589 O 0.78531 0.26031 0.81902 0.0
O590 O 0.72938 0.2793 0.79388 0.0
O591 O 0.74462 0.27981 0.7609 0.0
O592 O 0.75526 0.24171 0.73437 0.0
O593 O 0.76358 0.23914 0.77562 0.0
C594 C 0.77701 0.33403 0.7706 0.0
C595 C 0.75654 0.2286 0.75304 0.0
Dy596 Dy 0.77788 0.81672 0.78373 0.0
C597 C 0.75908 0.70838 0.77223 0.0
C598 C 0.77893 0.86769 0.78873 0.0
Dy599 Dy 0.76156 0.75876 0.76922 0.0
O600 O 0.77732 0.85349 0.80631 0.0
O601 O 0.78116 0.85417 0.76876 0.0
O602 O 0.79941 0.80988 0.8163 0.0
O603 O 0.7667 0.78368 0.80323 0.0
C604 C 0.78476 0.78802 0.81851 0.0
C605 C 0.7573 0.78733 0.73296 0.0
O606 O 0.72679 0.76436 0.7822 0.0
O607 O 0.73679 0.80839 0.78173 0.0
O608 O 0.75749 0.72504 0.79008 0.0
O609 O 0.76123 0.71913 0.7523 0.0
O610 O 0.7431 0.76476 0.73376 0.0
O611 O 0.77358 0.79172 0.75007 0.0
O612 O 0.81242 0.81085 0.76896 0.0
O613 O 0.80237 0.76693 0.77079 0.0
C614 C 0.72098 0.78669 0.78417 0.0
C615 C 0.81825 0.78838 0.76772 0.0
Dy616 Dy 0.48512 0.51935 0.50363 0.0
C617 C 0.58811 0.53763 0.51038 0.0
C618 C 0.43674 0.5177 0.49998 0.0
Dy619 Dy 0.54094 0.53846 0.51606 0.0
O620 O 0.45038 0.51802 0.48192 0.0
O621 O 0.44939 0.51715 0.51992 0.0
O622 O 0.49268 0.49246 0.47278 0.0
O623 O 0.51691 0.52794 0.48337 0.0
C624 C 0.51353 0.50737 0.46957 0.0
C625 C 0.51382 0.55186 0.55039 0.0
O626 O 0.5347 0.57325 0.50058 0.0
O627 O 0.49268 0.5616 0.50134 0.0
O628 O 0.57911 0.54091 0.53122 0.0
O629 O 0.57159 0.53596 0.49299 0.0
O630 O 0.53607 0.56465 0.54867 0.0
O631 O 0.50911 0.53132 0.53627 0.0
O632 O 0.49032 0.4866 0.52259 0.0
O633 O 0.53251 0.49686 0.52315 0.0
C634 C 0.51299 0.57836 0.49805 0.0
C635 C 0.51161 0.48116 0.52693 0.0
Dy636 Dy 0.04744 0.53044 0.01781 0.0
C637 C 0.94689 0.53336 0.99652 0.0
C638 C 0.09256 0.52123 0.02664 0.0
Dy639 Dy 0.99074 0.52242 0.0078 0.0
O640 O 0.08595 0.5326 0.00889 0.0
O641 O 0.0747 0.51593 0.04054 0.0
O642 O 0.05222 0.55886 0.9901 0.0
O643 O 0.02218 0.52747 0.98698 0.0
C644 C 0.03173 0.54742 0.97811 0.0
C645 C 0.00541 0.50457 0.04716 0.0
O646 O 0.99436 0.4863 0.98639 0.0
O647 O 0.03401 0.48923 0.00211 0.0
O648 O 0.95339 0.52629 0.01696 0.0
O649 O 0.96395 0.53322 0.98177 0.0
O650 O 0.9848 0.49411 0.03491 0.0
O651 O 0.01578 0.52489 0.03907 0.0
O652 O 0.04356 0.56578 0.03983 0.0
O653 O 0.0058 0.56444 0.02045 0.0
C654 C 0.01378 0.47672 0.98905 0.0
C655 C 0.02548 0.57655 0.03455 0.0
H656 H 0.97953 0.18607 0.93539 0.0
H657 H 0.04343 0.19363 0.89466 0.0
H658 H 0.05802 0.16343 0.91873 0.0
H659 H 0.00698 0.17878 0.99356 0.0
H660 H 0.9817 0.15446 1.00072 0.0
H661 H 0.97674 0.17796 0.9815 0.0
H662 H 0.9555 0.14197 0.94793 0.0
H663 H 0.96015 0.11841 0.96717 0.0
H664 H 0.97109 0.11794 0.93731 0.0
H665 H 0.06638 0.13395 0.94771 0.0
H666 H 0.06515 0.10083 0.975 0.0
H667 H 0.99389 0.10835 0.99483 0.0
C668 C 0.9966 0.18133 0.93167 0.0
C669 C 0.01052 0.19224 0.91335 0.0
C670 C 0.03254 0.18538 0.9086 0.0
C671 C 0.04104 0.16843 0.92229 0.0
C672 C 0.02704 0.15812 0.94034 0.0
C673 C 0.00502 0.16377 0.94472 0.0
C674 C 0.99273 0.14834 0.96389 0.0
C675 C 0.98934 0.16594 0.98624 0.0
C676 C 0.96843 0.13061 0.95344 0.0
C677 C 0.01135 0.13321 0.96961 0.0
C678 C 0.03119 0.13966 0.95615 0.0
C679 C 0.0509 0.12863 0.95828 0.0
C680 C 0.05006 0.10991 0.97403 0.0
C681 C 0.02943 0.10194 0.98717 0.0
C682 C 0.00995 0.11407 0.98513 0.0
H683 H 0.10109 0.80024 0.2205 0.0
H684 H 0.1339 0.82688 0.15614 0.0
H685 H 0.17452 0.83051 0.17612 0.0
H686 H 0.14909 0.84041 0.26517 0.0
H687 H 0.14665 0.81542 0.28467 0.0
H688 H 0.12042 0.81802 0.26642 0.0
H689 H 0.11471 0.77106 0.24764 0.0
H690 H 0.14098 0.76836 0.26563 0.0
H691 H 0.1394 0.76143 0.23315 0.0
H692 H 0.21102 0.82552 0.20085 0.0
H693 H 0.24075 0.81497 0.22974 0.0
H694 H 0.18447 0.79293 0.27835 0.0
C695 C 0.11681 0.80742 0.21078 0.0
C696 C 0.11427 0.8133 0.18673 0.0
C697 C 0.13534 0.82242 0.17461 0.0
C698 C 0.15851 0.82452 0.18581 0.0
C699 C 0.16031 0.81782 0.20926 0.0
C700 C 0.14003 0.80983 0.22175 0.0
C701 C 0.14679 0.8023 0.2462 0.0
C702 C 0.14035 0.82011 0.26684 0.0
C703 C 0.13476 0.77412 0.24825 0.0
C704 C 0.17397 0.80646 0.24519 0.0
C705 C 0.18143 0.81551 0.22375 0.0
C706 C 0.20542 0.81883 0.21784 0.0
C707 C 0.22212 0.81254 0.23416 0.0
C708 C 0.21478 0.80314 0.25606 0.0
C709 C 0.19054 0.80054 0.26186 0.0
H710 H 0.53585 0.84915 0.44291 0.0
H711 H 0.48099 0.84247 0.38392 0.0
H712 H 0.47061 0.88163 0.40208 0.0
H713 H 0.50327 0.87301 0.4903 0.0
H714 H 0.52972 0.89502 0.50554 0.0
H715 H 0.53271 0.86608 0.48823 0.0
H716 H 0.56403 0.89254 0.46269 0.0
H717 H 0.56131 0.9215 0.4801 0.0
H718 H 0.55608 0.91778 0.44761 0.0
H719 H 0.46588 0.92153 0.42673 0.0
H720 H 0.46988 0.96128 0.45435 0.0
H721 H 0.52808 0.94212 0.4967 0.0
C722 C 0.52167 0.85593 0.43381 0.0
C723 C 0.50923 0.84267 0.41201 0.0
C724 C 0.49088 0.85231 0.40059 0.0
C725 C 0.48473 0.87448 0.41082 0.0
C726 C 0.49716 0.88696 0.43242 0.0
C727 C 0.51544 0.87822 0.44364 0.0
C728 C 0.52656 0.89574 0.46627 0.0
C729 C 0.52283 0.88161 0.48892 0.0
C730 C 0.55359 0.90759 0.46402 0.0
C731 C 0.51166 0.91561 0.46594 0.0
C732 C 0.49466 0.91013 0.44641 0.0
C733 C 0.47911 0.92603 0.44214 0.0
C734 C 0.48141 0.94849 0.45798 0.0
C735 C 0.49924 0.95483 0.47769 0.0
C736 C 0.51421 0.93785 0.48184 0.0
H737 H 0.46059 0.30432 0.67348 0.0
H738 H 0.48629 0.24887 0.71252 0.0
H739 H 0.45097 0.24443 0.73691 0.0
H740 H 0.43614 0.33483 0.7245 0.0
H741 H 0.40999 0.33878 0.70698 0.0
H742 H 0.43774 0.33845 0.69274 0.0
H743 H 0.4147 0.30151 0.66091 0.0
H744 H 0.38688 0.30181 0.67499 0.0
H745 H 0.39722 0.27267 0.67093 0.0
H746 H 0.41301 0.24522 0.75689 0.0
H747 H 0.37334 0.25 0.77014 0.0
H748 H 0.37101 0.30441 0.71838 0.0
C749 C 0.45879 0.29133 0.68722 0.0
C750 C 0.47631 0.27698 0.69107 0.0
C751 C 0.47318 0.26006 0.70914 0.0
C752 C 0.45318 0.25743 0.72319 0.0
C753 C 0.43629 0.27178 0.71899 0.0
C754 C 0.43872 0.28831 0.7014 0.0
C755 C 0.41738 0.30082 0.70024 0.0
C756 C 0.42583 0.32995 0.70649 0.0
C757 C 0.40321 0.29377 0.67529 0.0
C758 C 0.40265 0.28864 0.71985 0.0
C759 C 0.41404 0.27207 0.73049 0.0
C760 C 0.40393 0.25819 0.74876 0.0
C761 C 0.3814 0.26106 0.75619 0.0
C762 C 0.36917 0.27761 0.74537 0.0
C763 C 0.38006 0.29175 0.7271 0.0
H764 H 0.04297 0.8581 0.5845 0.0
H765 H 0.96575 0.82583 0.58445 0.0
H766 H 0.95755 0.85935 0.56017 0.0
H767 H 0.03828 0.92366 0.5925 0.0
H768 H 0.06303 0.93451 0.57415 0.0
H769 H 0.06243 0.90718 0.59027 0.0
H770 H 0.066 0.88022 0.54996 0.0
H771 H 0.06622 0.9074 0.53367 0.0
H772 H 0.044 0.87784 0.52486 0.0
H773 H 0.95817 0.89593 0.53455 0.0
H774 H 0.96714 0.93649 0.51591 0.0
H775 H 0.0437 0.94624 0.53579 0.0
C776 C 0.02434 0.8581 0.57932 0.0
C777 C 0.00497 0.83933 0.58609 0.0
C778 C 0.98082 0.84013 0.57941 0.0
C779 C 0.97602 0.85894 0.56548 0.0
C780 C 0.99558 0.87703 0.55881 0.0
C781 C 0.01924 0.87707 0.56599 0.0
C782 C 0.03696 0.89963 0.55803 0.0
C783 C 0.05099 0.91729 0.58004 0.0
C784 C 0.05432 0.89073 0.54059 0.0
C785 C 0.01963 0.91222 0.54509 0.0
C786 C 0.99586 0.89869 0.5453 0.0
C787 C 0.97671 0.90671 0.53434 0.0
C788 C 0.98197 0.92959 0.52359 0.0
C789 C 0.0061 0.94429 0.52432 0.0
C790 C 0.02511 0.93524 0.53488 0.0
H791 H 0.47163 0.81457 0.84742 0.0
H792 H 0.4558 0.76064 0.9005 0.0
H793 H 0.41188 0.7555 0.89063 0.0
H794 H 0.4233 0.84536 0.85838 0.0
H795 H 0.41714 0.84886 0.82699 0.0
H796 H 0.44727 0.84814 0.83805 0.0
H797 H 0.44722 0.81039 0.80546 0.0
H798 H 0.41721 0.81119 0.79412 0.0
H799 H 0.42299 0.78198 0.80325 0.0
H800 H 0.36967 0.75709 0.8755 0.0
H801 H 0.33242 0.76259 0.85401 0.0
H802 H 0.37606 0.81504 0.8105 0.0
C803 C 0.45895 0.80157 0.85693 0.0
C804 C 0.46714 0.78802 0.87478 0.0
C805 C 0.44994 0.77115 0.88671 0.0
C806 C 0.42498 0.76821 0.88131 0.0
C807 C 0.41755 0.78218 0.86386 0.0
C808 C 0.43405 0.79832 0.85167 0.0
C809 C 0.42141 0.81081 0.83341 0.0
C810 C 0.42765 0.84003 0.83959 0.0
C811 C 0.42757 0.80312 0.80753 0.0
C812 C 0.39518 0.79923 0.83723 0.0
C813 C 0.39333 0.78289 0.85499 0.0
C814 C 0.37092 0.76983 0.86157 0.0
C815 C 0.34988 0.77315 0.84935 0.0
C816 C 0.35142 0.78931 0.8307 0.0
C817 C 0.37437 0.80272 0.82482 0.0
H818 H 0.51009 0.22018 0.05793 0.0
H819 H 0.45336 0.18994 0.10393 0.0
H820 H 0.45139 0.1463 0.08461 0.0
H821 H 0.48768 0.17379 0.0035 0.0
H822 H 0.518 0.17237 0.99643 0.0
H823 H 0.51249 0.20134 0.01153 0.0
H824 H 0.54453 0.20065 0.04608 0.0
H825 H 0.54993 0.17156 0.0313 0.0
H826 H 0.54132 0.17282 0.06205 0.0
H827 H 0.45874 0.10569 0.0634 0.0
H828 H 0.47373 0.07143 0.04083 0.0
H829 H 0.52619 0.12833 0.0094 0.0
C830 C 0.49673 0.20452 0.06352 0.0
C831 C 0.48175 0.20857 0.08238 0.0
C832 C 0.4649 0.18739 0.08942 0.0
C833 C 0.46367 0.16251 0.07856 0.0
C834 C 0.47933 0.15916 0.06064 0.0
C835 C 0.49538 0.17962 0.05301 0.0
C836 C 0.51152 0.17082 0.03476 0.0
C837 C 0.50715 0.18013 0.01009 0.0
C838 C 0.5384 0.17948 0.04412 0.0
C839 C 0.50242 0.14216 0.03367 0.0
C840 C 0.48372 0.1358 0.0486 0.0
C841 C 0.47315 0.11047 0.05144 0.0
C842 C 0.48187 0.09116 0.03866 0.0
C843 C 0.50113 0.09731 0.02345 0.0
C844 C 0.51134 0.12312 0.0208 0.0
H845 H 0.1 0.28494 0.34714 0.0
H846 H 0.06033 0.20809 0.31926 0.0
H847 H 0.09423 0.20294 0.29482 0.0
H848 H 0.1271 0.30094 0.29074 0.0
H849 H 0.15551 0.31901 0.30588 0.0
H850 H 0.12783 0.31705 0.32083 0.0
H851 H 0.14661 0.29977 0.35713 0.0
H852 H 0.17429 0.30165 0.34226 0.0
H853 H 0.15863 0.27179 0.35183 0.0
H854 H 0.13357 0.20474 0.27568 0.0
H855 H 0.17461 0.21475 0.26082 0.0
H856 H 0.18816 0.29113 0.29905 0.0
C857 C 0.09836 0.26713 0.33572 0.0
C858 C 0.07743 0.24692 0.33516 0.0
C859 C 0.07607 0.2239 0.31998 0.0
C860 C 0.09529 0.22074 0.30604 0.0
C861 C 0.11573 0.24087 0.30719 0.0
C862 C 0.11733 0.26373 0.32142 0.0
C863 C 0.14146 0.28225 0.31941 0.0
C864 C 0.13775 0.30623 0.30857 0.0
C865 C 0.15611 0.28927 0.34413 0.0
C866 C 0.1532 0.26612 0.30204 0.0
C867 C 0.13811 0.24224 0.29537 0.0
C868 C 0.14543 0.2235 0.28051 0.0
C869 C 0.16878 0.22932 0.27221 0.0
C870 C 0.18444 0.25379 0.2785 0.0
C871 C 0.17641 0.27242 0.29352 0.0
H872 H 0.91874 0.0268 0.14786 0.0
H873 H 0.95983 0.09464 0.1925 0.0
H874 H 0.99026 0.10129 0.16198 0.0
H875 H 0.97127 0.00487 0.13028 0.0
H876 H 0.95836 0.99168 0.10021 0.0
H877 H 0.93889 0.99343 0.12459 0.0
H878 H 0.91489 0.01872 0.10002 0.0
H879 H 0.93437 0.01754 0.07557 0.0
H880 H 0.93064 0.04794 0.08939 0.0
H881 H 0.01673 0.09998 0.12699 0.0
H882 H 0.03822 0.08993 0.09107 0.0
H883 H 0.9814 0.02138 0.07012 0.0
C884 C 0.93392 0.04332 0.15091 0.0
C885 C 0.93672 0.06058 0.17226 0.0
C886 C 0.95723 0.08144 0.17609 0.0
C887 C 0.9746 0.08533 0.15888 0.0
C888 C 0.9715 0.06783 0.13812 0.0
C889 C 0.95182 0.04706 0.1342 0.0
C890 C 0.95368 0.03017 0.11122 0.0
C891 C 0.95567 0.00346 0.11693 0.0
C892 C 0.93211 0.02849 0.09293 0.0
C893 C 0.97723 0.04491 0.10259 0.0
C894 C 0.98718 0.0666 0.11838 0.0
C895 C 0.00908 0.08307 0.1145 0.0
C896 C 0.02117 0.07719 0.09404 0.0
C897 C 0.01148 0.05497 0.07771 0.0
C898 C 0.98917 0.03866 0.08211 0.0
H899 H 0.28943 0.68727 0.45402 0.0
H900 H 0.25309 0.7354 0.49857 0.0
H901 H 0.24559 0.75743 0.46345 0.0
H902 H 0.31805 0.7362 0.41719 0.0
H903 H 0.31372 0.71442 0.38977 0.0
H904 H 0.31721 0.70289 0.41869 0.0
H905 H 0.27646 0.66924 0.40889 0.0
H906 H 0.27278 0.68077 0.38001 0.0
H907 H 0.24941 0.67959 0.40091 0.0
H908 H 0.24107 0.7737 0.42389 0.0
H909 H 0.24052 0.78385 0.38163 0.0
H910 H 0.27909 0.72508 0.36212 0.0
C911 C 0.28013 0.70262 0.4564 0.0
C912 C 0.27187 0.70963 0.47903 0.0
C913 C 0.25955 0.72965 0.4814 0.0
C914 C 0.2552 0.74232 0.46156 0.0
C915 C 0.26324 0.73474 0.43946 0.0
C916 C 0.2755 0.71545 0.43669 0.0
C917 C 0.28169 0.71081 0.4107 0.0
C918 C 0.30931 0.71642 0.409 0.0
C919 C 0.26934 0.68348 0.39947 0.0
C920 C 0.27085 0.73041 0.39939 0.0
C921 C 0.26037 0.74403 0.41636 0.0
C922 C 0.24923 0.76321 0.41039 0.0
C923 C 0.24896 0.7688 0.38639 0.0
C924 C 0.25966 0.75516 0.36874 0.0
C925 C 0.27064 0.73566 0.3753 0.0
H926 H 0.61014 0.00699 0.65594 0.0
H927 H 0.55518 0.95677 0.69101 0.0
H928 H 0.52613 0.95291 0.65516 0.0
H929 H 0.57071 0.04187 0.63456 0.0
H930 H 0.58523 0.04778 0.60694 0.0
H931 H 0.60254 0.04286 0.6332 0.0
H932 H 0.61569 0.0059 0.60844 0.0
H933 H 0.59839 0.0108 0.58209 0.0
H934 H 0.59297 0.97968 0.59257 0.0
H935 H 0.50259 0.95736 0.61638 0.0
H936 H 0.48582 0.97181 0.57976 0.0
H937 H 0.55581 0.02214 0.57279 0.0
C938 C 0.59222 0.9945 0.65561 0.0
C939 C 0.58489 0.98148 0.6756 0.0
C940 C 0.56106 0.96632 0.6754 0.0
C941 C 0.54456 0.96407 0.65519 0.0
C942 C 0.55222 0.97757 0.63577 0.0
C943 C 0.57546 0.99267 0.63599 0.0
C944 C 0.57841 0.00787 0.61456 0.0
C945 C 0.58457 0.0368 0.62282 0.0
C946 C 0.5975 1.00058 0.59846 0.0
C947 C 0.55326 0.99897 0.60211 0.0
C948 C 0.53843 0.98126 0.61437 0.0
C949 C 0.51411 0.97107 0.60657 0.0
C950 C 0.50475 0.97938 0.58582 0.0
C951 C 0.51963 0.99792 0.57344 0.0
C952 C 0.54416 0.00763 0.58166 0.0
H953 H 0.24041 0.34323 0.9419 0.0
H954 H 0.3084 0.33128 0.97188 0.0
H955 H 0.31782 0.31595 0.9312 0.0
H956 H 0.22754 0.28646 0.89665 0.0
H957 H 0.21445 0.30206 0.8741 0.0
H958 H 0.21256 0.31149 0.90579 0.0
H959 H 0.23282 0.35829 0.89996 0.0
H960 H 0.23495 0.34895 0.86832 0.0
H961 H 0.26181 0.36531 0.88714 0.0
H962 H 0.32171 0.30517 0.88699 0.0
H963 H 0.31749 0.29505 0.84247 0.0
H964 H 0.24611 0.31123 0.8408 0.0
C965 C 0.25712 0.33708 0.93993 0.0
C966 C 0.27364 0.3385 0.9602 0.0
C967 C 0.29535 0.3303 0.95676 0.0
C968 C 0.30096 0.32164 0.93366 0.0
C969 C 0.28456 0.32089 0.91404 0.0
C970 C 0.26288 0.32796 0.91692 0.0
C971 C 0.24845 0.32509 0.89268 0.0
C972 C 0.22432 0.30508 0.89229 0.0
C973 C 0.24427 0.35095 0.88668 0.0
C974 C 0.26558 0.31571 0.87581 0.0
C975 C 0.2864 0.31364 0.88852 0.0
C976 C 0.30536 0.30642 0.87686 0.0
C977 C 0.30287 0.30084 0.85154 0.0
C978 C 0.28146 0.3022 0.83816 0.0
C979 C 0.26261 0.30975 0.85055 0.0
H980 H 0.92965 0.05676 0.32566 0.0
H981 H 0.97059 0.01356 0.28134 0.0
H982 H 0.98533 0.99763 0.31764 0.0
H983 H 0.97527 0.07389 0.3783 0.0
H984 H 0.95244 0.07114 0.39986 0.0
H985 H 0.94636 0.08052 0.37047 0.0
H986 H 0.90797 0.04322 0.36354 0.0
H987 H 0.91431 0.03338 0.39266 0.0
H988 H 0.91082 0.011 0.36573 0.0
H989 H 0.99345 0.98377 0.35787 0.0
H990 H 0.99889 0.97741 0.40092 0.0
H991 H 0.95335 0.02967 0.41984 0.0
C992 C 0.94216 0.04444 0.32368 0.0
C993 C 0.94893 0.03643 0.30058 0.0
C994 C 0.96512 0.02001 0.29878 0.0
C995 C 0.97353 0.01073 0.31931 0.0
C996 C 0.9658 0.01816 0.34163 0.0
C997 C 0.9509 0.03504 0.34411 0.0
C998 C 0.94534 0.03979 0.37035 0.0
C999 C 0.95546 0.06801 0.38033 0.0
C1000 C 0.91799 0.03134 0.37322 0.0
C1001 C 0.95909 0.02259 0.38202 0.0
C1002 C 0.97069 0.01025 0.36506 0.0
C1003 C 0.98457 0.99341 0.37137 0.0
C1004 C 0.9874 0.98976 0.39582 0.0
C1005 C 0.97641 0.00287 0.41364 0.0
C1006 C 0.9617 0.01912 0.40655 0.0
H1007 H 0.3047 0.68296 0.62994 0.0
H1008 H 0.31745 0.74398 0.58388 0.0
H1009 H 0.31799 0.77552 0.61946 0.0
H1010 H 0.26223 0.70471 0.66102 0.0
H1011 H 0.2701 0.69533 0.68995 0.0
H1012 H 0.27641 0.67826 0.66257 0.0
H1013 H 0.32183 0.6871 0.67731 0.0
H1014 H 0.31548 0.70356 0.70512 0.0
H1015 H 0.33846 0.71944 0.687 0.0
H1016 H 0.31272 0.79976 0.65968 0.0
H1017 H 0.30126 0.81389 0.7005 0.0
H1018 H 0.28819 0.73576 0.71772 0.0
C1019 C 0.30871 0.70307 0.62752 0.0
C1020 C 0.31156 0.71116 0.60433 0.0
C1021 C 0.31562 0.73752 0.60164 0.0
C1022 C 0.31594 0.75552 0.62172 0.0
C1023 C 0.31191 0.74676 0.64423 0.0
C1024 C 0.30846 0.7211 0.6472 0.0
C1025 C 0.30114 0.71597 0.6723 0.0
C1026 C 0.27598 0.69749 0.67138 0.0
C1027 C 0.32039 0.70594 0.68625 0.0
C1028 C 0.30048 0.74259 0.68277 0.0
C1029 C 0.30721 0.76027 0.66663 0.0
C1030 C 0.30752 0.78608 0.6725 0.0
C1031 C 0.30088 0.79392 0.69555 0.0
C1032 C 0.29345 0.77583 0.71193 0.0
C1033 C 0.29335 0.74996 0.70538 0.0
H1034 H 0.60266 1.00003 0.82481 0.0
H1035 H 0.55554 0.03698 0.78493 0.0
H1036 H 0.53206 0.0404 0.82059 0.0
H1037 H 0.55577 0.96469 0.86064 0.0
H1038 H 0.57602 0.9698 0.88757 0.0
H1039 H 0.58778 0.9677 0.85813 0.0
H1040 H 0.6176 0.01183 0.86964 0.0
H1041 H 0.60592 0.01407 0.89905 0.0
H1042 H 0.60592 0.03904 0.87991 0.0
H1043 H 0.51547 0.04278 0.86076 0.0
H1044 H 0.50725 0.04482 0.90393 0.0
H1045 H 0.56512 0.00699 0.91858 0.0
C1046 C 0.58714 0.00841 0.82351 0.0
C1047 C 0.58085 0.01815 0.8021 0.0
C1048 C 0.5607 0.02941 0.80117 0.0
C1049 C 0.54716 0.03134 0.82128 0.0
C1050 C 0.554 0.02195 0.84222 0.0
C1051 C 0.57349 0.01071 0.84357 0.0
C1052 C 0.57794 0.00384 0.86888 0.0
C1053 C 0.57414 0.97478 0.86879 0.0
C1054 C 0.60335 0.01805 0.88002 0.0
C1055 C 0.55825 0.01352 0.88158 0.0
C1056 C 0.5445 0.0236 0.86574 0.0
C1057 C 0.52592 0.03472 0.87332 0.0
C1058 C 0.52141 0.03583 0.89785 0.0
C1059 C 0.5355 0.026 0.91445 0.0
C1060 C 0.55395 0.01443 0.90616 0.0
H1061 H 0.27938 0.36414 0.11812 0.0
H1062 H 0.21995 0.31794 0.06983 0.0
H1063 H 0.21054 0.28731 0.10022 0.0
H1064 H 0.2967 0.30654 0.14124 0.0
H1065 H 0.30645 0.32394 0.17073 0.0
H1066 H 0.30913 0.34055 0.14413 0.0
H1067 H 0.28693 0.3705 0.16507 0.0
H1068 H 0.27838 0.35308 0.19042 0.0
H1069 H 0.25552 0.35993 0.16988 0.0
H1070 H 0.20757 0.26176 0.13577 0.0
H1071 H 0.21113 0.24277 0.17402 0.0
H1072 H 0.27201 0.30562 0.20018 0.0
C1073 C 0.26448 0.34747 0.11398 0.0
C1074 C 0.25012 0.3435 0.09179 0.0
C1075 C 0.23104 0.32133 0.08677 0.0
C1076 C 0.22562 0.30383 0.1039 0.0
C1077 C 0.23992 0.30839 0.12574 0.0
C1078 C 0.25936 0.3293 0.13057 0.0
C1079 C 0.27205 0.32946 0.15532 0.0
C1080 C 0.29759 0.32484 0.15269 0.0
C1081 C 0.27325 0.35467 0.17121 0.0
C1082 C 0.25547 0.30653 0.16448 0.0
C1083 C 0.2376 0.29418 0.1467 0.0
C1084 C 0.22132 0.27138 0.1499 0.0
C1085 C 0.22344 0.26073 0.17168 0.0
C1086 C 0.24132 0.27306 0.19028 0.0
C1087 C 0.25755 0.29631 0.18661 0.0
H1088 H 0.20965 0.9748 0.04533 0.0
H1089 H 0.2062 0.94689 0.96916 0.0
H1090 H 0.17469 0.9704 0.96055 0.0
H1091 H 0.14612 0.96647 0.04767 0.0
H1092 H 0.14817 0.99415 0.06928 0.0
H1093 H 0.17232 0.97768 0.06891 0.0
H1094 H 0.20301 0.02002 0.06379 0.0
H1095 H 0.17886 0.03657 0.06392 0.0
H1096 H 0.19794 0.03759 0.03894 0.0
H1097 H 0.14358 0.9964 0.96037 0.0
H1098 H 0.11031 0.01743 0.96909 0.0
H1099 H 0.13115 0.02519 0.04594 0.0
C1100 C 0.20245 0.97398 0.02681 0.0
C1101 C 0.21047 0.95942 0.00779 0.0
C1102 C 0.20027 0.95809 0.98388 0.0
C1103 C 0.18256 0.97151 0.97884 0.0
C1104 C 0.17504 0.98575 0.99801 0.0
C1105 C 0.18432 0.98669 0.02158 0.0
C1106 C 0.17133 1.00117 0.03915 0.0
C1107 C 0.15874 0.98383 0.05732 0.0
C1108 C 0.18884 0.02527 0.05222 0.0
C1109 C 0.15308 0.00801 0.02181 0.0
C1110 C 0.15598 0.99945 0.99812 0.0
C1111 C 0.14112 0.00313 0.97884 0.0
C1112 C 0.1223 0.01512 0.98396 0.0
C1113 C 0.11814 0.02275 0.00814 0.0
C1114 C 0.13405 0.01966 0.02728 0.0
H1115 H 0.68779 0.61782 0.97311 0.0
H1116 H 0.71236 0.58957 0.03781 0.0
H1117 H 0.67011 0.5679 0.04348 0.0
H1118 H 0.63367 0.63038 0.99425 0.0
H1119 H 0.61586 0.61979 0.96585 0.0
H1120 H 0.64811 0.63224 0.96614 0.0
H1121 H 0.65244 0.59059 0.94126 0.0
H1122 H 0.62013 0.57818 0.94057 0.0
H1123 H 0.64043 0.56023 0.95206 0.0
H1124 H 0.62447 0.55274 0.04425 0.0
H1125 H 0.57975 0.53987 0.03639 0.0
H1126 H 0.58543 0.57569 0.97007 0.0
C1127 C 0.68436 0.60673 0.98826 0.0
C1128 C 0.70346 0.60542 0.00501 0.0
C1129 C 0.69812 0.59072 0.02461 0.0
C1130 C 0.67412 0.57849 0.0281 0.0
C1131 C 0.65567 0.5808 0.01165 0.0
C1132 C 0.66057 0.5941 0.99182 0.0
C1133 C 0.63749 0.59348 0.97669 0.0
C1134 C 0.63356 0.62058 0.97568 0.0
C1135 C 0.63764 0.5798 0.95113 0.0
C1136 C 0.61883 0.57799 0.99122 0.0
C1137 C 0.62962 0.57115 0.01153 0.0
C1138 C 0.61588 0.55776 0.02826 0.0
C1139 C 0.59052 0.55076 0.02384 0.0
C1140 C 0.57931 0.55686 0.00272 0.0
C1141 C 0.59366 0.57067 0.98629 0.0
H1142 H 0.67038 0.42184 0.27052 0.0
H1143 H 0.73498 0.4805 0.26324 0.0
H1144 H 0.75999 0.44881 0.26549 0.0
H1145 H 0.69683 0.38508 0.31067 0.0
H1146 H 0.68013 0.35454 0.29575 0.0
H1147 H 0.66745 0.38212 0.29534 0.0
H1148 H 0.66251 0.37498 0.24845 0.0
H1149 H 0.67508 0.34733 0.24875 0.0
H1150 H 0.68851 0.37293 0.23173 0.0
H1151 H 0.77825 0.41072 0.2698 0.0
H1152 H 0.78752 0.36814 0.2702 0.0
H1153 H 0.71076 0.33347 0.27039 0.0
C1154 C 0.68981 0.42796 0.2696 0.0
C1155 C 0.70084 0.45367 0.267 0.0
C1156 C 0.72623 0.4609 0.2653 0.0
C1157 C 0.74058 0.44306 0.26667 0.0
C1158 C 0.72924 0.41784 0.2692 0.0
C1159 C 0.70436 0.41016 0.27017 0.0
C1160 C 0.69655 0.38151 0.27105 0.0
C1161 C 0.68453 0.37547 0.29461 0.0
C1162 C 0.67967 0.36842 0.24867 0.0
C1163 C 0.72088 0.37438 0.27062 0.0
C1164 C 0.73957 0.39567 0.26999 0.0
C1165 C 0.76372 0.39389 0.27011 0.0
C1166 C 0.76886 0.36968 0.27046 0.0
C1167 C 0.7499 0.34752 0.27016 0.0
C1168 C 0.72564 0.35006 0.27039 0.0
H1169 H 0.82818 0.46686 0.52909 0.0
H1170 H 0.81681 0.41983 0.4597 0.0
H1171 H 0.86004 0.43525 0.45284 0.0
H1172 H 0.87373 0.52074 0.51139 0.0
H1173 H 0.89101 0.52569 0.54022 0.0
H1174 H 0.85867 0.51305 0.53838 0.0
H1175 H 0.86505 0.47394 0.55898 0.0
H1176 H 0.89736 0.48633 0.56069 0.0
H1177 H 0.88417 0.45466 0.54583 0.0
H1178 H 0.90509 0.45384 0.45467 0.0
H1179 H 0.94851 0.47402 0.46538 0.0
H1180 H 0.93008 0.50749 0.53406 0.0
C1181 C 0.83466 0.46024 0.51222 0.0
C1182 C 0.81913 0.4423 0.49486 0.0
C1183 C 0.82841 0.43364 0.47324 0.0
C1184 C 0.85292 0.44231 0.46914 0.0
C1185 C 0.86788 0.45956 0.48687 0.0
C1186 C 0.8591 0.46847 0.50796 0.0
C1187 C 0.87923 0.48558 0.52486 0.0
C1188 C 0.87543 0.51288 0.52894 0.0
C1189 C 0.88158 0.47445 0.54901 0.0
C1190 C 0.90072 0.48457 0.51016 0.0
C1191 C 0.89383 0.46971 0.48819 0.0
C1192 C 0.9107 0.46566 0.47177 0.0
C1193 C 0.9353 0.47715 0.47801 0.0
C1194 C 0.94269 0.49223 0.50057 0.0
C1195 C 0.92508 0.49595 0.51672 0.0
H1196 H 0.34072 0.09224 0.24284 0.0
H1197 H 0.35536 0.10021 0.32078 0.0
H1198 H 0.32489 0.12628 0.3256 0.0
H1199 H 0.33738 0.15544 0.23978 0.0
H1200 H 0.3141 0.14792 0.21522 0.0
H1201 H 0.33451 0.12734 0.21847 0.0
H1202 H 0.29781 0.08883 0.21927 0.0
H1203 H 0.27727 0.10943 0.21629 0.0
H1204 H 0.2758 0.09048 0.24126 0.0
H1205 H 0.29422 0.15318 0.32147 0.0
H1206 H 0.27039 0.18319 0.30877 0.0
H1207 H 0.27811 0.15908 0.23351 0.0
C1208 C 0.33722 0.09909 0.26096 0.0
C1209 C 0.3501 0.09404 0.28148 0.0
C1210 C 0.34555 0.10387 0.30486 0.0
C1211 C 0.32817 0.11847 0.30775 0.0
C1212 C 0.31575 0.12312 0.28706 0.0
C1213 C 0.32033 0.11395 0.26411 0.0
C1214 C 0.30665 0.12382 0.24468 0.0
C1215 C 0.32421 0.13957 0.22861 0.0
C1216 C 0.28829 0.10182 0.22948 0.0
C1217 C 0.294 0.14047 0.26023 0.0
C1218 C 0.29897 0.13936 0.28463 0.0
C1219 C 0.29008 0.15404 0.30243 0.0
C1220 C 0.27651 0.17095 0.29506 0.0
C1221 C 0.2725 0.17332 0.27019 0.0
C1222 C 0.28077 0.1574 0.25263 0.0
H1223 H 0.35289 0.12997 0.49402 0.0
H1224 H 0.30727 0.08246 0.5402 0.0
H1225 H 0.33673 0.05572 0.54236 0.0
H1226 H 0.37513 0.07887 0.46101 0.0
H1227 H 0.40552 0.09801 0.46042 0.0
H1228 H 0.38029 0.11302 0.46104 0.0
H1229 H 0.40059 0.14279 0.49944 0.0
H1230 H 0.42588 0.12791 0.49885 0.0
H1231 H 0.4094 0.12899 0.52563 0.0
H1232 H 0.37056 0.03412 0.54019 0.0
H1233 H 0.40874 0.02041 0.53601 0.0
H1234 H 0.43451 0.08217 0.49272 0.0
C1235 C 0.34908 0.11381 0.50441 0.0
C1236 C 0.32765 0.10829 0.51688 0.0
C1237 C 0.3235 0.08717 0.53054 0.0
C1238 C 0.3401 0.07174 0.53181 0.0
C1239 C 0.36101 0.07768 0.51948 0.0
C1240 C 0.36576 0.09828 0.50617 0.0
C1241 C 0.39037 0.10094 0.49572 0.0
C1242 C 0.38765 0.0975 0.46789 0.0
C1243 C 0.40758 0.12669 0.5055 0.0
C1244 C 0.39862 0.07875 0.5054 0.0
C1245 C 0.38117 0.06549 0.5188 0.0
C1246 C 0.38439 0.04434 0.52974 0.0
C1247 C 0.40614 0.03667 0.52723 0.0
C1248 C 0.42459 0.05019 0.51407 0.0
C1249 C 0.42068 0.07143 0.50284 0.0
H1250 H 0.67573 0.60935 0.28618 0.0
H1251 H 0.73328 0.57068 0.2991 0.0
H1252 H 0.76374 0.61148 0.29919 0.0
H1253 H 0.70644 0.64799 0.24408 0.0
H1254 H 0.69521 0.67575 0.25341 0.0
H1255 H 0.67758 0.64435 0.25709 0.0
H1256 H 0.67636 0.65802 0.30287 0.0
H1257 H 0.69384 0.68954 0.29926 0.0
H1258 H 0.70437 0.67131 0.32111 0.0
H1259 H 0.78771 0.65559 0.29742 0.0
H1260 H 0.80469 0.70037 0.29143 0.0
H1261 H 0.73221 0.71073 0.27569 0.0
C1262 C 0.69474 0.60971 0.2896 0.0
C1263 C 0.70227 0.58707 0.29316 0.0
C1264 C 0.72725 0.58792 0.29667 0.0
C1265 C 0.74462 0.61097 0.29674 0.0
C1266 C 0.73668 0.63288 0.2928 0.0
C1267 C 0.71239 0.6325 0.2891 0.0
C1268 C 0.70899 0.65843 0.28338 0.0
C1269 C 0.6963 0.6565 0.25798 0.0
C1270 C 0.69507 0.67001 0.30282 0.0
C1271 C 0.73519 0.67337 0.28439 0.0
C1272 C 0.75075 0.65824 0.29023 0.0
C1273 C 0.77575 0.6676 0.29276 0.0
C1274 C 0.7852 0.69311 0.28932 0.0
C1275 C 0.76977 0.70898 0.28294 0.0
C1276 C 0.7444 0.69893 0.28032 0.0
H1277 H 0.86917 0.46807 0.80003 0.0
H1278 H 0.8273 0.49527 0.74538 0.0
H1279 H 0.79585 0.45504 0.74277 0.0
H1280 H 0.85834 0.40518 0.77317 0.0
H1281 H 0.85645 0.39103 0.80119 0.0
H1282 H 0.87425 0.42301 0.80061 0.0
H1283 H 0.84976 0.43939 0.83428 0.0
H1284 H 0.83171 0.4074 0.83478 0.0
H1285 H 0.81719 0.43296 0.82978 0.0
H1286 H 0.77121 0.41075 0.74308 0.0
H1287 H 0.75586 0.36458 0.74506 0.0
H1288 H 0.81321 0.36646 0.80013 0.0
C1289 C 0.85325 0.46574 0.78772 0.0
C1290 C 0.85067 0.48482 0.77292 0.0
C1291 C 0.82967 0.48091 0.7569 0.0
C1292 C 0.81162 0.45821 0.75541 0.0
C1293 C 0.81478 0.43976 0.7702 0.0
C1294 C 0.83506 0.44325 0.78604 0.0
C1295 C 0.83497 0.41968 0.79857 0.0
C1296 C 0.85732 0.4091 0.79303 0.0
C1297 C 0.8333 0.4252 0.82598 0.0
C1298 C 0.81186 0.40205 0.78666 0.0
C1299 C 0.80033 0.41414 0.77059 0.0
C1300 C 0.7798 0.40118 0.7559 0.0
C1301 C 0.77126 0.37499 0.75712 0.0
C1302 C 0.78326 0.36211 0.77292 0.0
C1303 C 0.80335 0.37598 0.78836 0.0
H1304 H 0.02052 0.8726 0.1135 0.0
H1305 H 0.06161 0.84054 0.05993 0.0
H1306 H 0.05276 0.86987 0.03166 0.0
H1307 H 0.97398 0.88523 0.07047 0.0
H1308 H 0.97309 0.9152 0.08731 0.0
H1309 H 0.98031 0.88991 0.10287 0.0
H1310 H 0.02049 0.9204 0.12155 0.0
H1311 H 0.01326 0.94576 0.10623 0.0
H1312 H 0.04153 0.93677 0.10187 0.0
H1313 H 0.0428 0.90413 0.01037 0.0
H1314 H 0.03445 0.944 0.99812 0.0
H1315 H 0.99951 0.95517 0.0645 0.0
C1316 C 0.02734 0.87158 0.0957 0.0
C1317 C 0.0417 0.85418 0.08891 0.0
C1318 C 0.05064 0.85371 0.0656 0.0
C1319 C 0.04555 0.87017 0.0493 0.0
C1320 C 0.0315 0.88713 0.0565 0.0
C1321 C 0.02261 0.88818 0.07915 0.0
C1322 C 0.0097 0.90983 0.08284 0.0
C1323 C 0.98266 0.89941 0.08606 0.0
C1324 C 0.02199 0.92934 0.10439 0.0
C1325 C 0.01329 0.92106 0.05895 0.0
C1326 C 0.02562 0.90732 0.04396 0.0
C1327 C 0.03278 0.91482 0.02172 0.0
C1328 C 0.02791 0.93741 0.01488 0.0
C1329 C 0.01589 0.9522 0.03012 0.0
C1330 C 0.00796 0.94365 0.05219 0.0
H1331 H 0.93166 0.2351 0.80292 0.0
H1332 H 0.91759 0.26492 0.87498 0.0
H1333 H 0.88101 0.27532 0.85842 0.0
H1334 H 0.91161 0.28064 0.77067 0.0
H1335 H 0.89643 0.25861 0.74517 0.0
H1336 H 0.92154 0.25184 0.76221 0.0
H1337 H 0.89479 0.20819 0.76997 0.0
H1338 H 0.86965 0.2147 0.75272 0.0
H1339 H 0.86636 0.20706 0.78334 0.0
H1340 H 0.85001 0.2884 0.83486 0.0
H1341 H 0.82012 0.29648 0.80535 0.0
H1342 H 0.84854 0.25399 0.74794 0.0
C1343 C 0.92066 0.24345 0.81519 0.0
C1344 C 0.92786 0.24936 0.8403 0.0
C1345 C 0.91283 0.26027 0.85571 0.0
C1346 C 0.8919 0.26637 0.8465 0.0
C1347 C 0.88573 0.26108 0.82179 0.0
C1348 C 0.89914 0.24932 0.80629 0.0
C1349 C 0.88772 0.24575 0.78043 0.0
C1350 C 0.90538 0.26007 0.76363 0.0
C1351 C 0.87912 0.21722 0.77106 0.0
C1352 C 0.86631 0.25798 0.784 0.0
C1353 C 0.86595 0.2669 0.80808 0.0
C1354 C 0.84953 0.28077 0.81606 0.0
C1355 C 0.8325 0.28514 0.79913 0.0
C1356 C 0.83125 0.27491 0.77456 0.0
C1357 C 0.84865 0.26142 0.76675 0.0
H1358 H 0.51409 0.2091 0.60503 0.0
H1359 H 0.58536 0.2465 0.58519 0.0
H1360 H 0.59056 0.20523 0.56584 0.0
H1361 H 0.52789 0.15151 0.61887 0.0
H1362 H 0.49955 0.13112 0.60584 0.0
H1363 H 0.50093 0.1637 0.61755 0.0
H1364 H 0.4833 0.17215 0.57614 0.0
H1365 H 0.4815 0.13947 0.56441 0.0
H1366 H 0.49788 0.16515 0.54908 0.0
H1367 H 0.58939 0.15923 0.55165 0.0
H1368 H 0.57926 0.11278 0.53811 0.0
H1369 H 0.50797 0.10606 0.56505 0.0
C1370 C 0.53065 0.20865 0.59634 0.0
C1371 C 0.54933 0.23099 0.59665 0.0
C1372 C 0.57072 0.22965 0.58503 0.0
C1373 C 0.57393 0.20627 0.57414 0.0
C1374 C 0.55543 0.18449 0.57468 0.0
C1375 C 0.53398 0.18556 0.58499 0.0
C1376 C 0.51675 0.15943 0.58269 0.0
C1377 C 0.51095 0.15095 0.60773 0.0
C1378 C 0.49349 0.15903 0.56715 0.0
C1379 C 0.532 0.14348 0.5698 0.0
C1380 C 0.55437 0.15821 0.5656 0.0
C1381 C 0.57183 0.14752 0.55461 0.0
C1382 C 0.56603 0.12114 0.54718 0.0
C1383 C 0.54286 0.10594 0.55049 0.0
C1384 C 0.52579 0.11729 0.56216 0.0
H1385 H 0.59782 0.75844 0.36456 0.0
H1386 H 0.55176 0.76905 0.30372 0.0
H1387 H 0.5847 0.76721 0.2768 0.0
H1388 H 0.65238 0.79665 0.3486 0.0
H1389 H 0.67122 0.77626 0.35815 0.0
H1390 H 0.64354 0.77683 0.37233 0.0
H1391 H 0.6288 0.72777 0.36157 0.0
H1392 H 0.65647 0.72708 0.3473 0.0
H1393 H 0.62759 0.71406 0.33052 0.0
H1394 H 0.62376 0.76827 0.25734 0.0
H1395 H 0.66578 0.77016 0.24641 0.0
H1396 H 0.68565 0.75657 0.31929 0.0
C1397 C 0.59456 0.76014 0.34554 0.0
C1398 C 0.5722 0.76394 0.33626 0.0
C1399 C 0.56869 0.76605 0.31124 0.0
C1400 C 0.58729 0.76503 0.29579 0.0
C1401 C 0.60917 0.76154 0.30557 0.0
C1402 C 0.61282 0.75887 0.32981 0.0
C1403 C 0.63826 0.75595 0.33587 0.0
C1404 C 0.65216 0.77772 0.35485 0.0
C1405 C 0.63774 0.72965 0.34431 0.0
C1406 C 0.64853 0.75805 0.31138 0.0
C1407 C 0.63145 0.76124 0.29413 0.0
C1408 C 0.63717 0.76535 0.27056 0.0
C1409 C 0.66103 0.76643 0.26453 0.0
C1410 C 0.67872 0.7632 0.28194 0.0
C1411 C 0.67228 0.7586 0.30553 0.0
H1412 H 0.01656 0.17874 0.41573 0.0
H1413 H 0.04956 0.23697 0.47472 0.0
H1414 H 0.05133 0.20333 0.50124 0.0
H1415 H 0.97879 0.13772 0.45156 0.0
H1416 H 0.98203 0.10867 0.4346 0.0
H1417 H 0.98462 0.13727 0.41999 0.0
H1418 H 0.02706 0.13398 0.40692 0.0
H1419 H 0.02445 0.10525 0.42137 0.0
H1420 H 0.05014 0.13185 0.42952 0.0
H1421 H 0.04937 0.1626 0.52146 0.0
H1422 H 0.04233 0.1187 0.53353 0.0
H1423 H 0.00914 0.08838 0.46148 0.0
C1424 C 0.02439 0.18446 0.43415 0.0
C1425 C 0.03304 0.2105 0.44308 0.0
C1426 C 0.04283 0.21713 0.46744 0.0
C1427 C 0.04395 0.19816 0.48265 0.0
C1428 C 0.03505 0.17265 0.47331 0.0
C1429 C 0.02539 0.16583 0.44962 0.0
C1430 C 0.01626 0.13719 0.44415 0.0
C1431 C 0.9888 0.12979 0.43718 0.0
C1432 C 0.03033 0.12644 0.42432 0.0
C1433 C 0.02215 0.12897 0.46847 0.0
C1434 C 0.0332 0.14956 0.48506 0.0
C1435 C 0.04061 0.14634 0.50862 0.0
C1436 C 0.03654 0.12138 0.51534 0.0
C1437 C 0.02491 0.10013 0.49861 0.0
C1438 C 0.01772 0.10419 0.47492 0.0
H1439 H 0.58943 0.29812 0.15028 0.0
H1440 H 0.53749 0.25472 0.19421 0.0
H1441 H 0.57059 0.24218 0.21627 0.0
H1442 H 0.62786 0.25563 0.14446 0.0
H1443 H 0.6559 0.27976 0.14748 0.0
H1444 H 0.62846 0.28691 0.13562 0.0
H1445 H 0.63389 0.32546 0.16871 0.0
H1446 H 0.66162 0.31872 0.18036 0.0
H1447 H 0.63775 0.32067 0.20011 0.0
H1448 H 0.60823 0.23085 0.23106 0.0
H1449 H 0.64958 0.22681 0.24227 0.0
H1450 H 0.67819 0.27908 0.19077 0.0
C1451 C 0.58508 0.28637 0.16483 0.0
C1452 C 0.56075 0.27737 0.17038 0.0
C1453 C 0.55589 0.26196 0.18956 0.0
C1454 C 0.57458 0.25457 0.20216 0.0
C1455 C 0.59817 0.26303 0.19571 0.0
C1456 C 0.60364 0.27907 0.17793 0.0
C1457 C 0.6307 0.28551 0.17486 0.0
C1458 C 0.63603 0.2764 0.14907 0.0
C1459 C 0.64163 0.3143 0.18141 0.0
C1460 C 0.6394 0.27009 0.19329 0.0
C1461 C 0.62024 0.25714 0.20495 0.0
C1462 C 0.62344 0.24111 0.22227 0.0
C1463 C 0.64698 0.23879 0.22838 0.0
C1464 C 0.66704 0.2526 0.21738 0.0
C1465 C 0.66315 0.26823 0.1994 0.0
H1466 H 0.53286 0.8517 0.9774 0.0
H1467 H 0.59007 0.88136 0.93206 0.0
H1468 H 0.59198 0.92536 0.95069 0.0
H1469 H 0.5018 0.89921 0.9723 0.0
H1470 H 0.4928 0.90117 0.00291 0.0
H1471 H 0.49833 0.8718 0.9889 0.0
H1472 H 0.52997 0.87183 0.02406 0.0
H1473 H 0.52429 0.90106 0.03839 0.0
H1474 H 0.55471 0.89948 0.03191 0.0
H1475 H 0.58431 0.96593 0.97046 0.0
H1476 H 0.56908 1.0007 0.99174 0.0
H1477 H 0.51652 0.94495 0.02434 0.0
C1478 C 0.54637 0.86747 0.97217 0.0
C1479 C 0.56183 0.8634 0.9539 0.0
C1480 C 0.57859 0.88431 0.94654 0.0
C1481 C 0.5797 0.90927 0.95693 0.0
C1482 C 0.56383 0.91285 0.97456 0.0
C1483 C 0.54763 0.89253 0.98233 0.0
C1484 C 0.53127 0.90177 1.00011 0.0
C1485 C 0.50447 0.89296 0.99047 0.0
C1486 C 0.53531 0.89302 0.0251 0.0
C1487 C 0.54042 0.93042 1.00069 0.0
C1488 C 0.55928 0.93637 0.9859 0.0
C1489 C 0.56981 0.96152 0.98237 0.0
C1490 C 0.56094 0.98112 0.99439 0.0
C1491 C 0.54171 0.97544 0.00968 0.0
C1492 C 0.53143 0.94978 0.01295 0.0
H1493 H 0.92599 0.79951 0.67955 0.0
H1494 H 0.94341 0.73544 0.7118 0.0
H1495 H 0.91319 0.73792 0.74145 0.0
H1496 H 0.9144 0.83462 0.73621 0.0
H1497 H 0.88925 0.84468 0.72255 0.0
H1498 H 0.91359 0.83943 0.70462 0.0
H1499 H 0.88279 0.80733 0.67396 0.0
H1500 H 0.85839 0.81265 0.69168 0.0
H1501 H 0.86237 0.78069 0.68464 0.0
H1502 H 0.87976 0.74491 0.76583 0.0
H1503 H 0.84327 0.755 0.78256 0.0
H1504 H 0.84668 0.81491 0.73566 0.0
C1505 C 0.92358 0.7862 0.69301 0.0
C1506 C 0.93717 0.76731 0.69334 0.0
C1507 C 0.93326 0.75006 0.71109 0.0
C1508 C 0.9162 0.75139 0.72816 0.0
C1509 C 0.9031 0.7701 0.72735 0.0
C1510 C 0.90642 0.78717 0.71024 0.0
C1511 C 0.88875 0.80438 0.71267 0.0
C1512 C 0.90231 0.83244 0.71942 0.0
C1513 C 0.87209 0.80105 0.68936 0.0
C1514 C 0.87477 0.79393 0.73349 0.0
C1515 C 0.88359 0.77431 0.74176 0.0
C1516 C 0.87287 0.76046 0.75976 0.0
C1517 C 0.85217 0.76634 0.76917 0.0
C1518 C 0.84241 0.78595 0.76066 0.0
C1519 C 0.85418 0.80031 0.74296 0.0
H1520 H 0.10133 0.98956 0.8623 0.0
H1521 H 0.07654 0.05108 0.83236 0.0
H1522 H 0.04941 0.05266 0.86514 0.0
H1523 H 0.04237 0.95832 0.88342 0.0
H1524 H 0.0558 0.95032 0.91072 0.0
H1525 H 0.07237 0.95248 0.88391 0.0
H1526 H 0.10803 0.98547 0.90804 0.0
H1527 H 0.0916 0.98339 0.93487 0.0
H1528 H 0.10249 0.01399 0.92401 0.0
H1529 H 0.02662 0.04974 0.90159 0.0
H1530 H 0.00953 0.0426 0.94093 0.0
H1531 H 0.0483 0.98326 0.94874 0.0
C1532 C 0.08997 0.00313 0.86254 0.0
C1533 C 0.09109 0.02017 0.84466 0.0
C1534 C 0.0761 0.03783 0.84577 0.0
C1535 C 0.06051 0.03885 0.86431 0.0
C1536 C 0.05997 0.02206 0.88172 0.0
C1537 C 0.07421 0.00448 0.8811 0.0
C1538 C 0.07065 0.98943 0.90283 0.0
C1539 C 0.05964 0.96095 0.89473 0.0
C1540 C 0.09462 0.99332 0.91837 0.0
C1541 C 0.05266 0.00179 0.91594 0.0
C1542 C 0.0466 0.02035 0.90315 0.0
C1543 C 0.03094 0.03506 0.91165 0.0
C1544 C 0.02129 0.03085 0.93392 0.0
C1545 C 0.02729 0.01212 0.94743 0.0
C1546 C 0.0431 0.9973 0.93837 0.0
H1547 H 0.75895 0.39095 0.59136 0.0
H1548 H 0.7183 0.32722 0.5412 0.0
H1549 H 0.71711 0.29863 0.57338 0.0
H1550 H 0.79664 0.35678 0.61758 0.0
H1551 H 0.79823 0.37299 0.64773 0.0
H1552 H 0.793 0.38912 0.62196 0.0
H1553 H 0.7536 0.39777 0.63898 0.0
H1554 H 0.7589 0.38192 0.66499 0.0
H1555 H 0.73059 0.37143 0.64672 0.0
H1556 H 0.7215 0.27688 0.61088 0.0
H1557 H 0.73341 0.26321 0.65 0.0
H1558 H 0.7742 0.3406 0.67375 0.0
C1559 C 0.74928 0.37111 0.58735 0.0
C1560 C 0.7384 0.36128 0.564 0.0
C1561 C 0.72659 0.33507 0.55911 0.0
C1562 C 0.72577 0.31875 0.57725 0.0
C1563 C 0.73714 0.32894 0.6 0.0
C1564 C 0.74877 0.35449 0.60505 0.0
C1565 C 0.76143 0.36025 0.6302 0.0
C1566 C 0.78895 0.37037 0.62929 0.0
C1567 C 0.75047 0.37895 0.64616 0.0
C1568 C 0.75545 0.33388 0.63836 0.0
C1569 C 0.74101 0.31615 0.62093 0.0
C1570 C 0.73289 0.29057 0.62463 0.0
C1571 C 0.73977 0.28297 0.64677 0.0
C1572 C 0.75501 0.30081 0.66451 0.0
C1573 C 0.76289 0.32651 0.66023 0.0
H1574 H 0.43739 0.05406 0.3727 0.0
H1575 H 0.49612 0.10638 0.34457 0.0
H1576 H 0.51886 0.11427 0.38473 0.0
H1577 H 0.44681 0.08528 0.4396 0.0
H1578 H 0.43993 0.05406 0.44986 0.0
H1579 H 0.42503 0.05941 0.42216 0.0
H1580 H 0.43963 0.02211 0.3994 0.0
H1581 H 0.45495 0.01709 0.42679 0.0
H1582 H 0.47162 0.02311 0.40041 0.0
H1583 H 0.53856 0.10905 0.42387 0.0
H1584 H 0.55397 0.09091 0.45869 0.0
H1585 H 0.48344 0.03954 0.46053 0.0
C1586 C 0.45438 0.06835 0.3756 0.0
C1587 C 0.4648 0.08042 0.35612 0.0
C1588 C 0.48768 0.09775 0.3597 0.0
C1589 C 0.50065 0.10227 0.38241 0.0
C1590 C 0.49046 0.08909 0.40113 0.0
C1591 C 0.46767 0.07263 0.39805 0.0
C1592 C 0.46277 0.0571 0.41924 0.0
C1593 C 0.44243 0.06441 0.43356 0.0
C1594 C 0.45692 0.02816 0.41095 0.0
C1595 C 0.48698 0.06597 0.43375 0.0
C1596 C 0.50239 0.08507 0.42349 0.0
C1597 C 0.52648 0.09456 0.43239 0.0
C1598 C 0.53512 0.08403 0.45204 0.0
C1599 C 0.51982 0.06391 0.46221 0.0
C1600 C 0.49537 0.05518 0.45326 0.0
H1601 H 0.80471 0.69525 0.09175 0.0
H1602 H 0.74466 0.71934 0.05764 0.0
H1603 H 0.7374 0.74036 0.09701 0.0
H1604 H 0.77906 0.68168 0.14652 0.0
H1605 H 0.80655 0.69433 0.16572 0.0
H1606 H 0.80811 0.68218 0.13467 0.0
H1607 H 0.83587 0.7254 0.12709 0.0
H1608 H 0.83465 0.73758 0.15823 0.0
H1609 H 0.82605 0.75451 0.13423 0.0
H1610 H 0.73338 0.75419 0.14085 0.0
H1611 H 0.73712 0.76598 0.18524 0.0
H1612 H 0.80188 0.73675 0.19078 0.0
C1613 C 0.79033 0.70537 0.09249 0.0
C1614 C 0.77527 0.7056 0.07149 0.0
C1615 C 0.7566 0.71901 0.07332 0.0
C1616 C 0.75221 0.7309 0.09568 0.0
C1617 C 0.76693 0.72973 0.11609 0.0
C1618 C 0.78602 0.71788 0.11464 0.0
C1619 C 0.79919 0.71961 0.13939 0.0
C1620 C 0.79816 0.69286 0.14701 0.0
C1621 C 0.8255 0.73521 0.13975 0.0
C1622 C 0.78419 0.73375 0.15501 0.0
C1623 C 0.76548 0.73911 0.14122 0.0
C1624 C 0.74823 0.75052 0.15176 0.0
C1625 C 0.75038 0.75699 0.17698 0.0
C1626 C 0.76987 0.7525 0.19136 0.0
C1627 C 0.78699 0.74075 0.18016 0.0
H1628 H 0.127 1.00003 0.68953 0.0
H1629 H 0.07915 0.02751 0.73875 0.0
H1630 H 0.05728 0.03992 0.70444 0.0
H1631 H 0.13221 0.04862 0.65122 0.0
H1632 H 0.13159 0.02822 0.62342 0.0
H1633 H 0.14285 0.01972 0.65149 0.0
H1634 H 0.11183 0.97587 0.64487 0.0
H1635 H 0.10083 0.98401 0.61651 0.0
H1636 H 0.08007 0.97478 0.63926 0.0
H1637 H 0.04246 0.05244 0.66554 0.0
H1638 H 0.03198 0.05883 0.62338 0.0
H1639 H 0.08862 0.02266 0.59893 0.0
C1640 C 0.11161 0.00816 0.69305 0.0
C1641 C 0.10489 0.0128 0.71695 0.0
C1642 C 0.08472 0.0237 0.72069 0.0
C1643 C 0.07221 0.03096 0.70131 0.0
C1644 C 0.07989 0.02703 0.67818 0.0
C1645 C 0.09877 0.01542 0.67384 0.0
C1646 C 0.10331 0.01348 0.64715 0.0
C1647 C 0.12902 0.0284 0.6431 0.0
C1648 C 0.09873 0.98537 0.63631 0.0
C1649 C 0.08426 0.02617 0.6373 0.0
C1650 C 0.07105 0.03396 0.65557 0.0
C1651 C 0.05256 0.04628 0.65104 0.0
C1652 C 0.04686 0.05 0.62708 0.0
C1653 C 0.05955 0.04135 0.60796 0.0
C1654 C 0.07876 0.02968 0.61324 0.0
H1655 H 0.77125 0.34021 0.42868 0.0
H1656 H 0.69406 0.33171 0.43416 0.0
H1657 H 0.68583 0.30087 0.39683 0.0
H1658 H 0.76886 0.34135 0.3652 0.0
H1659 H 0.79294 0.32507 0.36086 0.0
H1660 H 0.79217 0.34399 0.38914 0.0
H1661 H 0.79329 0.30464 0.41187 0.0
H1662 H 0.7937 0.28557 0.3835 0.0
H1663 H 0.77053 0.27533 0.40377 0.0
H1664 H 0.68653 0.27137 0.35862 0.0
H1665 H 0.6957 0.25167 0.31922 0.0
H1666 H 0.77244 0.28261 0.33786 0.0
C1667 C 0.75261 0.33158 0.42216 0.0
C1668 C 0.73322 0.33788 0.4343 0.0
C1669 C 0.70907 0.32692 0.42501 0.0
C1670 C 0.70429 0.30928 0.40403 0.0
C1671 C 0.72391 0.30329 0.39254 0.0
C1672 C 0.74759 0.31455 0.40106 0.0
C1673 C 0.76548 0.30715 0.38414 0.0
C1674 C 0.78074 0.33079 0.37425 0.0
C1675 C 0.7817 0.29228 0.39657 0.0
C1676 C 0.74819 0.29009 0.3646 0.0
C1677 C 0.72432 0.28756 0.37001 0.0
C1678 C 0.70515 0.27316 0.35426 0.0
C1679 C 0.71054 0.26188 0.33204 0.0
C1680 C 0.73483 0.26559 0.3257 0.0
C1681 C 0.75381 0.27936 0.3424 0.0
H1682 H 0.4701 0.03456 0.22272 0.0
H1683 H 0.44286 0.1028 0.21978 0.0
H1684 H 0.46179 0.11006 0.18121 0.0
H1685 H 0.52725 0.05584 0.19301 0.0
H1686 H 0.52429 0.02485 0.17631 0.0
H1687 H 0.51232 0.02745 0.20561 0.0
H1688 H 0.47005 0.00178 0.18689 0.0
H1689 H 0.48184 0.99919 0.15759 0.0
H1690 H 0.45598 0.01281 0.16162 0.0
H1691 H 0.48102 0.10826 0.14197 0.0
H1692 H 0.49609 0.09565 0.10286 0.0
H1693 H 0.50786 0.02654 0.12963 0.0
C1694 C 0.4688 0.05141 0.21424 0.0
C1695 C 0.45554 0.06846 0.22426 0.0
C1696 C 0.45324 0.08976 0.21236 0.0
C1697 C 0.464 0.09406 0.19057 0.0
C1698 C 0.47661 0.07663 0.18084 0.0
C1699 C 0.47888 0.05559 0.19216 0.0
C1700 C 0.49068 0.03809 0.17645 0.0
C1701 C 0.51509 0.03647 0.18857 0.0
C1702 C 0.47361 0.0114 0.17027 0.0
C1703 C 0.49423 0.05231 0.15434 0.0
C1704 C 0.4865 0.07478 0.15749 0.0
C1705 C 0.48729 0.09082 0.13934 0.0
C1706 C 0.49587 0.08351 0.11722 0.0
C1707 C 0.50309 0.06016 0.11337 0.0
C1708 C 0.50251 0.04453 0.13223 0.0
H1709 H 0.74126 0.70491 0.92615 0.0
H1710 H 0.81689 0.70744 0.94459 0.0
H1711 H 0.82841 0.73089 0.90937 0.0
H1712 H 0.74517 0.69491 0.86015 0.0
H1713 H 0.72387 0.71393 0.85387 0.0
H1714 H 0.72152 0.69689 0.88019 0.0
H1715 H 0.72363 0.73914 0.90743 0.0
H1716 H 0.72618 0.75636 0.88127 0.0
H1717 H 0.74891 0.766 0.90628 0.0
H1718 H 0.83191 0.75775 0.87445 0.0
H1719 H 0.82683 0.78236 0.84014 0.0
H1720 H 0.74877 0.75889 0.84185 0.0
C1721 C 0.76024 0.71028 0.92268 0.0
C1722 C 0.77824 0.70451 0.93823 0.0
C1723 C 0.80282 0.71163 0.93293 0.0
C1724 C 0.80953 0.72499 0.91298 0.0
C1725 C 0.79138 0.73059 0.89814 0.0
C1726 C 0.76718 0.72306 0.90247 0.0
C1727 C 0.75123 0.73122 0.88356 0.0
C1728 C 0.73446 0.70784 0.86855 0.0
C1729 C 0.73663 0.74925 0.89535 0.0
C1730 C 0.77026 0.74519 0.86834 0.0
C1731 C 0.79333 0.74472 0.87715 0.0
C1732 C 0.81393 0.75784 0.86715 0.0
C1733 C 0.81089 0.77183 0.84775 0.0
C1734 C 0.78746 0.77224 0.83824 0.0
C1735 C 0.7669 0.75848 0.84851 0.0
H1736 H 0.85204 0.10127 0.06011 0.0
H1737 H 0.82725 0.10439 0.98579 0.0
H1738 H 0.85346 0.07585 0.97159 0.0
H1739 H 0.9131 0.10565 0.04858 0.0
H1740 H 0.91823 0.08504 0.07078 0.0
H1741 H 0.89563 0.10322 0.07477 0.0
H1742 H 0.86326 0.06153 0.07803 0.0
H1743 H 0.88566 0.04305 0.07372 0.0
H1744 H 0.85832 0.03561 0.05394 0.0
H1745 H 0.88335 0.04765 0.96584 0.0
H1746 H 0.91809 0.02727 0.96862 0.0
H1747 H 0.92471 0.04587 0.04649 0.0
C1748 C 0.85187 0.09566 0.04085 0.0
C1749 C 0.83748 0.10469 0.02401 0.0
C1750 C 0.83816 0.09754 0.99894 0.0
C1751 C 0.85281 0.08122 0.99076 0.0
C1752 C 0.86678 0.07256 0.00792 0.0
C1753 C 0.86666 0.07989 0.03243 0.0
C1754 C 0.88492 0.07008 0.0471 0.0
C1755 C 0.9041 0.09232 0.06112 0.0
C1756 C 0.87228 0.05146 0.0642 0.0
C1757 C 0.89562 0.05633 0.02703 0.0
C1758 C 0.8846 0.05743 0.00458 0.0
C1759 C 0.89201 0.04657 0.98333 0.0
C1760 C 0.91164 0.03494 0.98508 0.0
C1761 C 0.92379 0.03481 0.00786 0.0
C1762 C 0.91538 0.04526 0.029 0.0
H1763 H 0.33663 0.46951 0.06493 0.0
H1764 H 0.32847 0.42112 0.99644 0.0
H1765 H 0.36836 0.44449 0.98628 0.0
H1766 H 0.37022 0.52892 0.04247 0.0
H1767 H 0.39004 0.53885 0.06972 0.0
H1768 H 0.35966 0.51998 0.0711 0.0
H1769 H 0.37669 0.48628 0.09179 0.0
H1770 H 0.40707 0.50505 0.0905 0.0
H1771 H 0.39892 0.47217 0.07727 0.0
H1772 H 0.41003 0.46984 0.98449 0.0
H1773 H 0.45186 0.49597 0.99162 0.0
H1774 H 0.43437 0.52943 0.06062 0.0
C1775 C 0.34311 0.46416 0.04766 0.0
C1776 C 0.3293 0.44343 0.03152 0.0
C1777 C 0.33864 0.43679 0.00922 0.0
C1778 C 0.36129 0.45006 0.00316 0.0
C1779 C 0.37459 0.47006 0.01951 0.0
C1780 C 0.36597 0.47721 0.0413 0.0
C1781 C 0.38487 0.49846 0.05612 0.0
C1782 C 0.37564 0.52301 0.06008 0.0
C1783 C 0.39233 0.48997 0.08035 0.0
C1784 C 0.4055 0.50163 0.03942 0.0
C1785 C 0.39898 0.48514 0.01833 0.0
C1786 C 0.41525 0.48318 1.00072 0.0
C1787 C 0.43897 0.49819 0.00489 0.0
C1788 C 0.44625 0.51509 0.02641 0.0
C1789 C 0.42915 0.51709 0.04375 0.0
H1790 H 0.35722 0.62333 0.75726 0.0
H1791 H 0.3024 0.5752 0.70491 0.0
H1792 H 0.27685 0.60618 0.71037 0.0
H1793 H 0.31612 0.64558 0.79762 0.0
H1794 H 0.33466 0.67768 0.80358 0.0
H1795 H 0.34855 0.65135 0.79634 0.0
H1796 H 0.36876 0.67356 0.7609 0.0
H1797 H 0.355 0.69996 0.76815 0.0
H1798 H 0.35013 0.68309 0.73806 0.0
H1799 H 0.25742 0.64249 0.72061 0.0
H1800 H 0.24572 0.68235 0.73431 0.0
H1801 H 0.31301 0.70804 0.77979 0.0
C1802 C 0.33974 0.61922 0.74713 0.0
C1803 C 0.33179 0.59667 0.73073 0.0
C1804 C 0.30893 0.59224 0.71758 0.0
C1805 C 0.29423 0.60973 0.72059 0.0
C1806 C 0.3026 0.63176 0.73674 0.0
C1807 C 0.32484 0.63668 0.74975 0.0
C1808 C 0.32977 0.66235 0.76528 0.0
C1809 C 0.33243 0.65903 0.79231 0.0
C1810 C 0.35225 0.68083 0.75763 0.0
C1811 C 0.30677 0.67093 0.75906 0.0
C1812 C 0.29138 0.65294 0.74256 0.0
C1813 C 0.26928 0.65666 0.73363 0.0
C1814 C 0.26276 0.67942 0.7416 0.0
C1815 C 0.27829 0.6984 0.75831 0.0
C1816 C 0.30055 0.69388 0.76724 0.0
H1817 H 0.20341 0.62272 0.51576 0.0
H1818 H 0.22204 0.6036 0.587 0.0
H1819 H 0.17887 0.5836 0.59092 0.0
H1820 H 0.14706 0.63755 0.52803 0.0
H1821 H 0.13202 0.62309 0.49906 0.0
H1822 H 0.16433 0.63594 0.50184 0.0
H1823 H 0.17105 0.59221 0.48391 0.0
H1824 H 0.13875 0.57929 0.48084 0.0
H1825 H 0.15806 0.56387 0.49762 0.0
H1826 H 0.13359 0.56825 0.58799 0.0
H1827 H 0.08972 0.55331 0.57634 0.0
H1828 H 0.10125 0.57991 0.50588 0.0
C1829 C 0.19838 0.61424 0.53214 0.0
C1830 C 0.2159 0.61476 0.55116 0.0
C1831 C 0.2088 0.60325 0.57222 0.0
C1832 C 0.18437 0.59202 0.57465 0.0
C1833 C 0.16748 0.59215 0.55569 0.0
C1834 C 0.17421 0.60253 0.53466 0.0
C1835 C 0.15263 0.59943 0.51665 0.0
C1836 C 0.14879 0.62556 0.51108 0.0
C1837 C 0.15529 0.5827 0.49338 0.0
C1838 C 0.13265 0.5859 0.53094 0.0
C1839 C 0.14154 0.58219 0.55353 0.0
C1840 C 0.12642 0.57082 0.57028 0.0
C1841 C 0.10156 0.56257 0.56356 0.0
C1842 C 0.09224 0.56542 0.5402 0.0
C1843 C 0.10799 0.57735 0.52378 0.0
H1844 H 0.70568 0.94954 0.72236 0.0
H1845 H 0.67506 0.96533 0.79054 0.0
H1846 H 0.70476 0.94629 0.81158 0.0
H1847 H 0.71456 0.88931 0.73264 0.0
H1848 H 0.74231 0.89307 0.71757 0.0
H1849 H 0.71991 0.90978 0.70886 0.0
H1850 H 0.75247 0.95261 0.71679 0.0
H1851 H 0.77482 0.93594 0.72608 0.0
H1852 H 0.76881 0.9617 0.74613 0.0
H1853 H 0.73596 0.92281 0.82446 0.0
H1854 H 0.76251 0.89267 0.8272 0.0
H1855 H 0.77308 0.8937 0.75067 0.0
C1856 C 0.70526 0.94917 0.74175 0.0
C1857 C 0.68809 0.95894 0.75484 0.0
C1858 C 0.68804 0.95788 0.78015 0.0
C1859 C 0.70498 0.94735 0.79228 0.0
C1860 C 0.72188 0.93817 0.77882 0.0
C1861 C 0.72198 0.93881 0.75407 0.0
C1862 C 0.74068 0.92599 0.74338 0.0
C1863 C 0.72864 0.90319 0.72452 0.0
C1864 C 0.76036 0.94522 0.73246 0.0
C1865 C 0.75068 0.91733 0.76588 0.0
C1866 C 0.73994 0.92489 0.78624 0.0
C1867 C 0.74477 0.91712 0.80874 0.0
C1868 C 0.76 0.90016 0.81017 0.0
C1869 C 0.76993 0.8911 0.78917 0.0
C1870 C 0.7661 0.90074 0.76709 0.0
H1871 H 0.70156 0.95821 0.56239 0.0
H1872 H 0.69322 0.91042 0.49363 0.0
H1873 H 0.65889 0.92808 0.48056 0.0
H1874 H 0.63704 0.95184 0.56864 0.0
H1875 H 0.64126 0.98424 0.58252 0.0
H1876 H 0.66496 0.96755 0.58614 0.0
H1877 H 0.69476 0.00453 0.56921 0.0
H1878 H 0.67079 0.02082 0.56514 0.0
H1879 H 0.68754 0.01335 0.53983 0.0
H1880 H 0.62639 0.95183 0.4744 0.0
H1881 H 0.59593 0.97774 0.4765 0.0
H1882 H 0.6241 0.00944 0.54972 0.0
C1883 C 0.69249 0.95142 0.54459 0.0
C1884 C 0.70017 0.93294 0.52898 0.0
C1885 C 0.68768 0.92448 0.50591 0.0
C1886 C 0.6682 0.93448 0.4983 0.0
C1887 C 0.66122 0.95278 0.51404 0.0
C1888 C 0.67281 0.961 0.53679 0.0
C1889 C 0.66133 0.98046 0.55036 0.0
C1890 C 0.6505 0.9704 0.57326 0.0
C1891 C 0.67971 0.00632 0.55649 0.0
C1892 C 0.64162 0.9821 0.53157 0.0
C1893 C 0.64202 0.96604 0.51072 0.0
C1894 C 0.62587 0.96439 0.49066 0.0
C1895 C 0.6087 0.97931 0.492 0.0
C1896 C 0.60757 0.99556 0.5133 0.0
C1897 C 0.62437 0.99703 0.53331 0.0
H1898 H 0.32531 0.46633 0.71723 0.0
H1899 H 0.39578 0.46298 0.749 0.0
H1900 H 0.37963 0.41831 0.7555 0.0
H1901 H 0.28978 0.4281 0.7569 0.0
H1902 H 0.26641 0.41155 0.73401 0.0
H1903 H 0.2835 0.44329 0.73072 0.0
H1904 H 0.2957 0.42702 0.68888 0.0
H1905 H 0.27862 0.3952 0.69204 0.0
H1906 H 0.31026 0.40066 0.68642 0.0
H1907 H 0.35581 0.37563 0.76195 0.0
H1908 H 0.32559 0.33577 0.76562 0.0
H1909 H 0.27074 0.36426 0.72739 0.0
C1910 C 0.33735 0.45611 0.72536 0.0
C1911 C 0.36185 0.46831 0.73257 0.0
C1912 C 0.37699 0.4542 0.74319 0.0
C1913 C 0.368 0.42873 0.74701 0.0
C1914 C 0.34385 0.41736 0.73991 0.0
C1915 C 0.32871 0.43038 0.72909 0.0
C1916 C 0.30336 0.4134 0.7235 0.0
C1917 C 0.28466 0.42477 0.7371 0.0
C1918 C 0.2966 0.4088 0.69607 0.0
C1919 C 0.30664 0.3891 0.73331 0.0
C1920 C 0.33017 0.39195 0.74274 0.0
C1921 C 0.33743 0.37292 0.7542 0.0
C1922 C 0.32016 0.35031 0.75613 0.0
C1923 C 0.29603 0.3467 0.7463 0.0
C1924 C 0.28922 0.36632 0.73461 0.0
H1925 H 0.16721 0.59519 0.26859 0.0
H1926 H 0.17672 0.57169 0.19352 0.0
H1927 H 0.20478 0.61361 0.19115 0.0
H1928 H 0.16675 0.65912 0.26222 0.0
H1929 H 0.18324 0.67176 0.29098 0.0
H1930 H 0.16484 0.6396 0.28679 0.0
H1931 H 0.20206 0.62255 0.29986 0.0
H1932 H 0.22059 0.6547 0.30411 0.0
H1933 H 0.22939 0.6305 0.28429 0.0
H1934 H 0.22965 0.65949 0.19658 0.0
H1935 H 0.25072 0.70451 0.21001 0.0
H1936 H 0.22538 0.69603 0.28175 0.0
C1937 C 0.17525 0.59877 0.25165 0.0
C1938 C 0.16975 0.58032 0.23121 0.0
C1939 C 0.18078 0.58564 0.20943 0.0
C1940 C 0.19669 0.60935 0.2079 0.0
C1941 C 0.20153 0.62725 0.2284 0.0
C1942 C 0.19129 0.62208 0.24991 0.0
C1943 C 0.1991 0.64449 0.26929 0.0
C1944 C 0.17718 0.65432 0.2778 0.0
C1945 C 0.21365 0.63764 0.29064 0.0
C1946 C 0.21501 0.6633 0.25523 0.0
C1947 C 0.21624 0.65313 0.23168 0.0
C1948 C 0.22905 0.66756 0.21507 0.0
C1949 C 0.24088 0.69308 0.22282 0.0
C1950 C 0.23983 0.70368 0.24695 0.0
C1951 C 0.22685 0.68843 0.26327 0.0
H1952 H 0.55442 0.71232 0.44434 0.0
H1953 H 0.47794 0.70901 0.43013 0.0
H1954 H 0.46752 0.67001 0.45081 0.0
H1955 H 0.54851 0.6453 0.43188 0.0
H1956 H 0.57155 0.64377 0.45476 0.0
H1957 H 0.57313 0.67278 0.441 0.0
H1958 H 0.57463 0.69796 0.48339 0.0
H1959 H 0.573 0.66898 0.49728 0.0
H1960 H 0.55105 0.68773 0.50324 0.0
H1961 H 0.46533 0.63145 0.47206 0.0
H1962 H 0.47085 0.59306 0.48929 0.0
H1963 H 0.549 0.6192 0.48772 0.0
C1964 C 0.5355 0.70356 0.44595 0.0
C1965 C 0.51692 0.71377 0.43597 0.0
C1966 C 0.49238 0.70149 0.43778 0.0
C1967 C 0.48632 0.67944 0.44957 0.0
C1968 C 0.50503 0.66976 0.45911 0.0
C1969 C 0.52912 0.68119 0.45721 0.0
C1970 C 0.5456 0.66565 0.46733 0.0
C1971 C 0.56058 0.65632 0.44756 0.0
C1972 C 0.56204 0.681 0.48911 0.0
C1973 C 0.52697 0.64362 0.47511 0.0
C1974 C 0.50374 0.64667 0.4705 0.0
C1975 C 0.48342 0.62883 0.47575 0.0
C1976 C 0.48683 0.60702 0.48559 0.0
C1977 C 0.51042 0.60294 0.48986 0.0
C1978 C 0.53076 0.62173 0.48478 0.0
H1979 H 0.63467 0.31158 0.6694 0.0
H1980 H 0.58244 0.30687 0.72409 0.0
H1981 H 0.61336 0.3013 0.75433 0.0
H1982 H 0.6606 0.26332 0.68692 0.0
H1983 H 0.69144 0.27802 0.68162 0.0
H1984 H 0.66672 0.28554 0.66466 0.0
H1985 H 0.68354 0.33371 0.67881 0.0
H1986 H 0.70855 0.32624 0.69543 0.0
H1987 H 0.68964 0.34439 0.71072 0.0
H1988 H 0.64737 0.29149 0.77727 0.0
H1989 H 0.68447 0.28078 0.79316 0.0
H1990 H 0.71573 0.29114 0.72422 0.0
C1991 C 0.63006 0.31028 0.68795 0.0
C1992 C 0.60623 0.30995 0.69453 0.0
C1993 C 0.6006 0.30735 0.71876 0.0
C1994 C 0.61803 0.30415 0.73604 0.0
C1995 C 0.64102 0.30355 0.72881 0.0
C1996 C 0.64729 0.30682 0.70547 0.0
C1997 C 0.67287 0.30348 0.70225 0.0
C1998 C 0.67289 0.28126 0.68271 0.0
C1999 C 0.68964 0.32845 0.69647 0.0
C2000 C 0.67961 0.29718 0.72727 0.0
C2001 C 0.66095 0.29752 0.74223 0.0
C2002 C 0.66225 0.29147 0.76587 0.0
C2003 C 0.68336 0.28529 0.77467 0.0
C2004 C 0.7029 0.28512 0.75991 0.0
C2005 C 0.701 0.29105 0.73584 0.0
H2006 H 0.97289 0.3281 0.93945 0.0
H2007 H 0.04302 0.33688 0.90943 0.0
H2008 H 0.05318 0.3828 0.9248 0.0
H2009 H 0.96255 0.38829 0.92464 0.0
H2010 H 0.94779 0.39428 0.95181 0.0
H2011 H 0.94615 0.36191 0.93912 0.0
H2012 H 0.96383 0.35218 0.97996 0.0
H2013 H 0.96538 0.38446 0.99282 0.0
H2014 H 0.99222 0.37205 0.99351 0.0
H2015 H 0.05625 0.42692 0.94433 0.0
H2016 H 0.05186 0.46748 0.96583 0.0
H2017 H 0.97865 0.43132 0.98121 0.0
C2018 C 0.99047 0.33965 0.9363 0.0
C2019 C 0.00731 0.32892 0.92345 0.0
C2020 C 0.02993 0.34472 0.9193 0.0
C2021 C 0.03583 0.37079 0.92794 0.0
C2022 C 0.01876 0.38079 0.94037 0.0
C2023 C 0.99649 0.36581 0.94444 0.0
C2024 C 0.98126 0.38153 0.95789 0.0
C2025 C 0.95807 0.38149 0.94243 0.0
C2026 C 0.97533 0.37198 0.98251 0.0
C2027 C 0.99859 0.40768 0.96098 0.0
C2028 C 0.02014 0.40668 0.95081 0.0
C2029 C 0.03942 0.428 0.95218 0.0
C2030 C 0.03674 0.4509 0.96446 0.0
C2031 C 0.01487 0.45247 0.97501 0.0
C2032 C 0.9954 0.43067 0.97297 0.0
H2033 H 0.97613 0.7648 0.21472 0.0
H2034 H 0.98486 0.83069 0.1746 0.0
H2035 H 0.94869 0.84117 0.19208 0.0
H2036 H 0.91218 0.74635 0.20619 0.0
H2037 H 0.90801 0.73595 0.23578 0.0
H2038 H 0.93555 0.73487 0.22152 0.0
H2039 H 0.96068 0.7626 0.25891 0.0
H2040 H 0.93316 0.76386 0.27325 0.0
H2041 H 0.95457 0.79305 0.26907 0.0
H2042 H 0.9106 0.84336 0.21262 0.0
H2043 H 0.87226 0.83579 0.23289 0.0
H2044 H 0.88822 0.76813 0.25907 0.0
C2045 C 0.97062 0.78161 0.2098 0.0
C2046 C 0.9834 0.79703 0.1934 0.0
C2047 C 0.97537 0.81863 0.18716 0.0
C2048 C 0.95492 0.82479 0.19708 0.0
C2049 C 0.9427 0.80913 0.21315 0.0
C2050 C 0.95019 0.78792 0.21938 0.0
C2051 C 0.93312 0.77336 0.23593 0.0
C2052 C 0.92153 0.74603 0.22414 0.0
C2053 C 0.94616 0.77322 0.26076 0.0
C2054 C 0.91464 0.78951 0.23781 0.0
C2055 C 0.92063 0.81021 0.22474 0.0
C2056 C 0.90583 0.82733 0.22304 0.0
C2057 C 0.88413 0.8229 0.23463 0.0
C2058 C 0.87742 0.80146 0.24759 0.0
C2059 C 0.89308 0.78483 0.2495 0.0
H2060 H 0.50498 0.36864 0.10025 0.0
H2061 H 0.52702 0.32512 0.0393 0.0
H2062 H 0.5264 0.36034 0.01433 0.0
H2063 H 0.46578 0.39944 0.06677 0.0
H2064 H 0.47545 0.42953 0.08565 0.0
H2065 H 0.47593 0.40016 0.09809 0.0
H2066 H 0.52155 0.41749 0.11174 0.0
H2067 H 0.52117 0.44691 0.09941 0.0
H2068 H 0.54254 0.42866 0.08974 0.0
H2069 H 0.52285 0.40067 0.99583 0.0
H2070 H 0.52106 0.44436 0.98705 0.0
H2071 H 0.50445 0.46202 0.06111 0.0
C2072 C 0.50942 0.36647 0.08158 0.0
C2073 C 0.51581 0.34412 0.07159 0.0
C2074 C 0.52204 0.34213 0.04726 0.0
C2075 C 0.52163 0.36196 0.03291 0.0
C2076 C 0.51532 0.38383 0.0433 0.0
C2077 C 0.50966 0.38632 0.06719 0.0
C2078 C 0.50516 0.41242 0.07454 0.0
C2079 C 0.47902 0.41024 0.08168 0.0
C2080 C 0.52371 0.42724 0.09506 0.0
C2081 C 0.50914 0.4242 0.05109 0.0
C2082 C 0.5146 0.40735 0.03312 0.0
C2083 C 0.5187 0.41407 0.00982 0.0
C2084 C 0.51757 0.43882 0.00494 0.0
C2085 C 0.51287 0.45655 0.02344 0.0
C2086 C 0.50839 0.44894 0.04666 0.0
H2087 H 0.95999 0.26279 0.33528 0.0
H2088 H 0.95004 0.28477 0.41066 0.0
H2089 H 0.91038 0.29254 0.3988 0.0
H2090 H 0.93296 0.30965 0.31084 0.0
H2091 H 0.91841 0.28887 0.28431 0.0
H2092 H 0.94599 0.28417 0.2985 0.0
H2093 H 0.9247 0.23725 0.30289 0.0
H2094 H 0.89711 0.24177 0.28857 0.0
H2095 H 0.89698 0.23065 0.31802 0.0
H2096 H 0.87173 0.29786 0.37933 0.0
H2097 H 0.83621 0.30017 0.3529 0.0
H2098 H 0.87106 0.27622 0.28996 0.0
C2099 C 0.94939 0.26905 0.34928 0.0
C2100 C 0.95824 0.27314 0.37393 0.0
C2101 C 0.9438 0.28155 0.39165 0.0
C2102 C 0.92118 0.28602 0.38513 0.0
C2103 C 0.91311 0.28213 0.36075 0.0
C2104 C 0.92668 0.2738 0.34306 0.0
C2105 C 0.91372 0.27145 0.31813 0.0
C2106 C 0.92866 0.28962 0.302 0.0
C2107 C 0.90777 0.24363 0.30621 0.0
C2108 C 0.89087 0.27981 0.32468 0.0
C2109 C 0.89089 0.28577 0.34939 0.0
C2110 C 0.87154 0.29337 0.35992 0.0
C2111 C 0.85149 0.29469 0.3448 0.0
C2112 C 0.85105 0.28864 0.31945 0.0
C2113 C 0.87109 0.2813 0.30928 0.0
H2114 H 0.01641 0.71557 0.56571 0.0
H2115 H 0.95483 0.68677 0.60666 0.0
H2116 H 0.95157 0.64334 0.5864 0.0
H2117 H 0.99486 0.6721 0.50917 0.0
H2118 H 0.02498 0.66865 0.50357 0.0
H2119 H 0.02074 0.69793 0.51924 0.0
H2120 H 0.04984 0.69337 0.55497 0.0
H2121 H 0.05396 0.66397 0.53958 0.0
H2122 H 0.04357 0.66459 0.56966 0.0
H2123 H 0.95771 0.60259 0.56534 0.0
H2124 H 0.9713 0.56741 0.54278 0.0
H2125 H 0.02863 0.62241 0.51507 0.0
C2126 C 1.00183 0.70028 0.56998 0.0
C2127 C 0.9858 0.70466 0.58774 0.0
C2128 C 0.96726 0.68397 0.59307 0.0
C2129 C 0.96526 0.6592 0.58166 0.0
C2130 C 0.98183 0.65544 0.56484 0.0
C2131 C 0.99958 0.67543 0.55878 0.0
C2132 C 0.01597 0.66597 0.54116 0.0
C2133 C 0.01401 0.6768 0.51684 0.0
C2134 C 0.04239 0.67235 0.552 0.0
C2135 C 0.00497 0.63748 0.53867 0.0
C2136 C 0.98524 0.63185 0.55245 0.0
C2137 C 0.97288 0.60678 0.55418 0.0
C2138 C 0.9808 0.58694 0.5414 0.0
C2139 C 1.00092 0.59227 0.52713 0.0
C2140 C 0.01303 0.61787 0.52563 0.0
H2141 H 0.61492 0.76208 0.87307 0.0
H2142 H 0.58306 0.81536 0.83691 0.0
H2143 H 0.61462 0.8189 0.80774 0.0
H2144 H 0.67604 0.79149 0.86794 0.0
H2145 H 0.6858 0.7622 0.86191 0.0
H2146 H 0.65996 0.76272 0.8792 0.0
H2147 H 0.63365 0.72602 0.84906 0.0
H2148 H 0.65953 0.72538 0.83175 0.0
H2149 H 0.63189 0.7296 0.81722 0.0
H2150 H 0.65262 0.8209 0.78579 0.0
H2151 H 0.69184 0.81723 0.76985 0.0
H2152 H 0.69674 0.7598 0.81763 0.0
C2153 C 0.61441 0.77421 0.85882 0.0
C2154 C 0.59654 0.78846 0.85731 0.0
C2155 C 0.59647 0.80412 0.83836 0.0
C2156 C 0.61437 0.80633 0.82172 0.0
C2157 C 0.63196 0.79237 0.82394 0.0
C2158 C 0.63186 0.77623 0.84171 0.0
C2159 C 0.65297 0.76351 0.84022 0.0
C2160 C 0.66967 0.77041 0.86371 0.0
C2161 C 0.64396 0.7344 0.8342 0.0
C2162 C 0.66527 0.77556 0.81928 0.0
C2163 C 0.65299 0.7923 0.81023 0.0
C2164 C 0.66209 0.80738 0.7923 0.0
C2165 C 0.68433 0.80524 0.7834 0.0
C2166 C 0.69687 0.78782 0.79212 0.0
C2167 C 0.68707 0.77267 0.81011 0.0
H2168 H 0.46462 0.55609 0.68211 0.0
H2169 H 0.39965 0.57228 0.64942 0.0
H2170 H 0.41857 0.57559 0.61059 0.0
H2171 H 0.50852 0.59786 0.64783 0.0
H2172 H 0.52777 0.57563 0.64512 0.0
H2173 H 0.51017 0.57725 0.67106 0.0
H2174 H 0.4908 0.52876 0.66197 0.0
H2175 H 0.5082 0.52701 0.63595 0.0
H2176 H 0.47563 0.51624 0.63257 0.0
H2177 H 0.44264 0.57247 0.57411 0.0
H2178 H 0.47088 0.56489 0.54332 0.0
H2179 H 0.5207 0.55167 0.59932 0.0
C2180 C 0.45454 0.56086 0.66693 0.0
C2181 C 0.43062 0.56402 0.66893 0.0
C2182 C 0.41796 0.56979 0.64843 0.0
C2183 C 0.42856 0.57168 0.62624 0.0
C2184 C 0.45186 0.56776 0.62471 0.0
C2185 C 0.46481 0.5627 0.64456 0.0
C2186 C 0.48906 0.55793 0.63771 0.0
C2187 C 0.51013 0.57839 0.65124 0.0
C2188 C 0.49102 0.53088 0.64232 0.0
C2189 C 0.48749 0.56055 0.61084 0.0
C2190 C 0.46589 0.56631 0.60373 0.0
C2191 C 0.45964 0.56817 0.57954 0.0
C2192 C 0.47574 0.56379 0.56216 0.0
C2193 C 0.49791 0.55794 0.56908 0.0
C2194 C 0.50399 0.55659 0.59373 0.0
H2195 H 0.80171 0.19473 0.94464 0.0
H2196 H 0.78236 0.25451 0.992 0.0
H2197 H 0.78518 0.28159 0.95882 0.0
H2198 H 0.84299 0.23806 0.90751 0.0
H2199 H 0.83237 0.21718 0.87993 0.0
H2200 H 0.83324 0.20405 0.90839 0.0
H2201 H 0.78757 0.18182 0.90073 0.0
H2202 H 0.78658 0.19484 0.87233 0.0
H2203 H 0.76608 0.20073 0.89475 0.0
H2204 H 0.78484 0.29994 0.92024 0.0
H2205 H 0.77989 0.30782 0.8776 0.0
H2206 H 0.79876 0.23633 0.85438 0.0
C2207 C 0.79874 0.21379 0.9481 0.0
C2208 C 0.79194 0.22264 0.97081 0.0
C2209 C 0.78756 0.2474 0.97465 0.0
C2210 C 0.78931 0.26301 0.956 0.0
C2211 C 0.79547 0.25359 0.93361 0.0
C2212 C 0.80014 0.22958 0.9295 0.0
C2213 C 0.80356 0.22301 0.90299 0.0
C2214 C 0.82959 0.22043 0.89951 0.0
C2215 C 0.78483 0.19867 0.89207 0.0
C2216 C 0.79897 0.24655 0.89281 0.0
C2217 C 0.79489 0.26417 0.9109 0.0
C2218 C 0.78842 0.28654 0.9059 0.0
C2219 C 0.78557 0.29082 0.88168 0.0
C2220 C 0.789 0.27269 0.86289 0.0
C2221 C 0.79632 0.2506 0.86852 0.0
H2222 H 0.06848 0.53338 0.17973 0.0
H2223 H 0.05707 0.45165 0.18125 0.0
H2224 H 0.03165 0.44419 0.14252 0.0
H2225 H 0.00961 0.53479 0.14785 0.0
H2226 H 0.02431 0.55932 0.13027 0.0
H2227 H 0.03664 0.55791 0.16042 0.0
H2228 H 0.078 0.55615 0.14344 0.0
H2229 H 0.06568 0.55711 0.11328 0.0
H2230 H 0.07931 0.53131 0.11976 0.0
H2231 H 0.01047 0.44603 0.10198 0.0
H2232 H 0.99781 0.45696 0.06181 0.0
H2233 H 0.02798 0.53725 0.08563 0.0
C2234 C 0.05973 0.51395 0.17239 0.0
C2235 C 0.06397 0.49304 0.18358 0.0
C2236 C 0.05345 0.46782 0.17299 0.0
C2237 C 0.03905 0.46346 0.15109 0.0
C2238 C 0.03588 0.48457 0.13999 0.0
C2239 C 0.04607 0.50933 0.15025 0.0
C2240 C 0.04322 0.52863 0.13318 0.0
C2241 C 0.0275 0.54619 0.14355 0.0
C2242 C 0.06803 0.5442 0.12706 0.0
C2243 C 0.03022 0.51088 0.11156 0.0
C2244 C 0.02557 0.48558 0.11595 0.0
C2245 C 0.01393 0.46577 0.09837 0.0
C2246 C 0.00689 0.47208 0.07569 0.0
C2247 C 0.01223 0.49782 0.07084 0.0
C2248 C 0.02396 0.51738 0.08896 0.0
H2249 H 0.74654 0.83868 0.45014 0.0
H2250 H 0.81231 0.82162 0.47998 0.0
H2251 H 0.82165 0.80701 0.43905 0.0
H2252 H 0.73188 0.78314 0.4029 0.0
H2253 H 0.72021 0.80049 0.38096 0.0
H2254 H 0.71806 0.80888 0.4128 0.0
H2255 H 0.74044 0.85554 0.40886 0.0
H2256 H 0.74286 0.84722 0.37708 0.0
H2257 H 0.76974 0.86175 0.39662 0.0
H2258 H 0.82621 0.79814 0.39477 0.0
H2259 H 0.82278 0.7901 0.3501 0.0
H2260 H 0.75279 0.80951 0.34831 0.0
C2261 C 0.7627 0.83149 0.44807 0.0
C2262 C 0.77867 0.83134 0.46841 0.0
C2263 C 0.79967 0.82185 0.46483 0.0
C2264 C 0.80524 0.81359 0.44158 0.0
C2265 C 0.78946 0.81447 0.42192 0.0
C2266 C 0.76835 0.82266 0.42489 0.0
C2267 C 0.75449 0.82141 0.40054 0.0
C2268 C 0.72969 0.80234 0.39922 0.0
C2269 C 0.75173 0.84807 0.39549 0.0
C2270 C 0.77138 0.81173 0.38353 0.0
C2271 C 0.79155 0.80812 0.39628 0.0
C2272 C 0.81033 0.80054 0.38459 0.0
C2273 C 0.8083 0.79618 0.3592 0.0
C2274 C 0.7875 0.79901 0.34572 0.0
C2275 C 0.76881 0.80689 0.35814 0.0
H2276 H 0.46329 0.53315 0.80357 0.0
H2277 H 0.40595 0.57245 0.81767 0.0
H2278 H 0.41136 0.56821 0.86125 0.0
H2279 H 0.44787 0.4878 0.84505 0.0
H2280 H 0.47867 0.48795 0.85462 0.0
H2281 H 0.47154 0.4954 0.8247 0.0
H2282 H 0.50316 0.53875 0.83281 0.0
H2283 H 0.51073 0.53123 0.86259 0.0
H2284 H 0.50154 0.56048 0.8591 0.0
H2285 H 0.42134 0.55746 0.90289 0.0
H2286 H 0.43806 0.54501 0.94039 0.0
H2287 H 0.489 0.51269 0.89938 0.0
C2288 C 0.45216 0.54132 0.81585 0.0
C2289 C 0.43423 0.55326 0.80715 0.0
C2290 C 0.4199 0.5634 0.82386 0.0
C2291 C 0.42274 0.56093 0.84865 0.0
C2292 C 0.44004 0.54834 0.85647 0.0
C2293 C 0.45476 0.53902 0.84064 0.0
C2294 C 0.4718 0.52605 0.85369 0.0
C2295 C 0.46718 0.49761 0.84393 0.0
C2296 C 0.49838 0.53997 0.85195 0.0
C2297 C 0.46428 0.52938 0.87934 0.0
C2298 C 0.44584 0.54219 0.8805 0.0
C2299 C 0.43583 0.54752 0.9022 0.0
C2300 C 0.44536 0.54024 0.92338 0.0
C2301 C 0.46473 0.52778 0.92277 0.0
C2302 C 0.47403 0.52195 0.90036 0.0
H2303 H 0.80685 0.18856 0.11929 0.0
H2304 H 0.82018 0.252 0.07609 0.0
H2305 H 0.81856 0.28177 0.11243 0.0
H2306 H 0.76215 0.20718 0.1486 0.0
H2307 H 0.76873 0.19677 0.17741 0.0
H2308 H 0.77703 0.18125 0.15015 0.0
H2309 H 0.82185 0.19095 0.16715 0.0
H2310 H 0.81352 0.20569 0.1949 0.0
H2311 H 0.83725 0.22326 0.1786 0.0
H2312 H 0.81078 0.30373 0.15279 0.0
H2313 H 0.79722 0.31544 0.19333 0.0
H2314 H 0.78484 0.23621 0.20713 0.0
C2315 C 0.81061 0.20887 0.11773 0.0
C2316 C 0.81417 0.21816 0.09513 0.0
C2317 C 0.81783 0.24468 0.09345 0.0
C2318 C 0.81691 0.26167 0.11395 0.0
C2319 C 0.81205 0.25169 0.13579 0.0
C2320 C 0.80907 0.22586 0.13779 0.0
C2321 C 0.80048 0.21921 0.16209 0.0
C2322 C 0.77563 0.19998 0.15937 0.0
C2323 C 0.81942 0.20921 0.17654 0.0
C2324 C 0.79857 0.24518 0.17322 0.0
C2325 C 0.80576 0.26384 0.15814 0.0
C2326 C 0.8052 0.28928 0.16479 0.0
C2327 C 0.79733 0.29574 0.18764 0.0
C2328 C 0.78957 0.27664 0.20297 0.0
C2329 C 0.79018 0.25115 0.19556 0.0
H2330 H 0.07345 0.54495 0.31654 0.0
H2331 H 0.0916 0.47102 0.30875 0.0
H2332 H 0.07483 0.46214 0.34808 0.0
H2333 H 0.08983 0.55938 0.37932 0.0
H2334 H 0.06574 0.57528 0.3852 0.0
H2335 H 0.07787 0.57488 0.35595 0.0
H2336 H 0.03475 0.55485 0.33557 0.0
H2337 H 0.02249 0.55508 0.3648 0.0
H2338 H 0.01731 0.52564 0.34493 0.0
H2339 H 0.0569 0.46212 0.38887 0.0
H2340 H 0.04138 0.47189 0.42865 0.0
H2341 H 0.03594 0.54611 0.40918 0.0
C2342 C 0.07376 0.52678 0.32295 0.0
C2343 C 0.08371 0.5086 0.30958 0.0
C2344 C 0.08402 0.4852 0.31875 0.0
C2345 C 0.07447 0.47996 0.34098 0.0
C2346 C 0.06478 0.49836 0.3537 0.0
C2347 C 0.06448 0.52134 0.34503 0.0
C2348 C 0.05412 0.53848 0.36254 0.0
C2349 C 0.07302 0.56347 0.37127 0.0
C2350 C 0.03078 0.54382 0.35128 0.0
C2351 C 0.04881 0.52168 0.38262 0.0
C2352 C 0.05483 0.49851 0.37714 0.0
C2353 C 0.05202 0.48014 0.39329 0.0
C2354 C 0.04315 0.48582 0.41576 0.0
C2355 C 0.03745 0.5097 0.42179 0.0
C2356 C 0.04006 0.52766 0.4049 0.0
H2357 H 0.73505 0.82065 0.59624 0.0
H2358 H 0.78382 0.89433 0.61969 0.0
H2359 H 0.78816 0.88188 0.66075 0.0
H2360 H 0.70438 0.81744 0.65328 0.0
H2361 H 0.70041 0.78337 0.65276 0.0
H2362 H 0.70119 0.79756 0.62477 0.0
H2363 H 0.73615 0.77677 0.61226 0.0
H2364 H 0.73552 0.76259 0.64023 0.0
H2365 H 0.76333 0.78254 0.63217 0.0
H2366 H 0.79136 0.86015 0.69731 0.0
H2367 H 0.78813 0.83292 0.73018 0.0
H2368 H 0.732 0.77539 0.68728 0.0
C2369 C 0.74652 0.8341 0.61012 0.0
C2370 C 0.75924 0.85846 0.60477 0.0
C2371 C 0.77388 0.87567 0.62341 0.0
C2372 C 0.77654 0.86872 0.64678 0.0
C2373 C 0.76394 0.84467 0.65153 0.0
C2374 C 0.74876 0.82776 0.63401 0.0
C2375 C 0.73663 0.80352 0.64465 0.0
C2376 C 0.70901 0.80029 0.64381 0.0
C2377 C 0.74331 0.77996 0.63154 0.0
C2378 C 0.74787 0.80932 0.67063 0.0
C2379 C 0.76384 0.83306 0.67388 0.0
C2380 C 0.77819 0.84198 0.69533 0.0
C2381 C 0.77596 0.82649 0.71415 0.0
C2382 C 0.75879 0.80272 0.71208 0.0
C2383 C 0.74465 0.79391 0.68982 0.0
H2384 H 0.6973 0.47682 0.54767 0.0
H2385 H 0.70093 0.45513 0.47102 0.0
H2386 H 0.67079 0.47988 0.46141 0.0
H2387 H 0.63333 0.46985 0.54424 0.0
H2388 H 0.63424 0.49604 0.56724 0.0
H2389 H 0.65762 0.47858 0.56783 0.0
H2390 H 0.69019 0.52092 0.56784 0.0
H2391 H 0.66682 0.53846 0.56693 0.0
H2392 H 0.68836 0.54087 0.54407 0.0
H2393 H 0.63952 0.50559 0.46018 0.0
H2394 H 0.60573 0.52632 0.46733 0.0
H2395 H 0.62116 0.53009 0.54487 0.0
C2396 C 0.69194 0.47756 0.52886 0.0
C2397 C 0.70157 0.46434 0.51003 0.0
C2398 C 0.69375 0.46519 0.48567 0.0
C2399 C 0.6768 0.47933 0.48006 0.0
C2400 C 0.6677 0.49222 0.49904 0.0
C2401 C 0.6747 0.49116 0.52297 0.0
C2402 C 0.66057 0.50485 0.53997 0.0
C2403 C 0.64555 0.48622 0.55574 0.0
C2404 C 0.6775 0.52763 0.55563 0.0
C2405 C 0.64445 0.51373 0.52187 0.0
C2406 C 0.64913 0.50654 0.49836 0.0
C2407 C 0.63585 0.51152 0.47848 0.0
C2408 C 0.61679 0.52344 0.48273 0.0
C2409 C 0.61109 0.53008 0.50663 0.0
C2410 C 0.62545 0.52567 0.52643 0.0
H2411 H 0.18102 0.12446 0.47098 0.0
H2412 H 0.215 0.08475 0.52158 0.0
H2413 H 0.17527 0.05604 0.52577 0.0
H2414 H 0.12712 0.12271 0.5005 0.0
H2415 H 0.10752 0.1173 0.47309 0.0
H2416 H 0.13879 0.13405 0.47306 0.0
H2417 H 0.14509 0.10144 0.438 0.0
H2418 H 0.11374 0.08476 0.43775 0.0
H2419 H 0.13731 0.06779 0.4413 0.0
H2420 H 0.13107 0.03378 0.52704 0.0
H2421 H 0.08646 0.01706 0.52183 0.0
H2422 H 0.08188 0.07009 0.46931 0.0
C2423 C 0.1802 0.10952 0.48269 0.0
C2424 C 0.20122 0.10693 0.49594 0.0
C2425 C 0.19924 0.08711 0.51113 0.0
C2426 C 0.17671 0.07074 0.51373 0.0
C2427 C 0.1563 0.0742 0.50084 0.0
C2428 C 0.15789 0.09285 0.48534 0.0
C2429 C 0.13319 0.09266 0.47367 0.0
C2430 C 0.12626 0.1182 0.4805 0.0
C2431 C 0.13229 0.08627 0.44604 0.0
C2432 C 0.11745 0.0712 0.48522 0.0
C2433 C 0.13105 0.06088 0.50099 0.0
C2434 C 0.12028 0.04149 0.5145 0.0
C2435 C 0.09497 0.03219 0.51153 0.0
C2436 C 0.08088 0.04214 0.49502 0.0
C2437 C 0.09231 0.06192 0.48182 0.0
H2438 H 0.19399 0.93389 0.73896 0.0
H2439 H 0.20149 0.96385 0.81483 0.0
H2440 H 0.22315 0.93077 0.82442 0.0
H2441 H 0.18142 0.8673 0.75014 0.0
H2442 H 0.19701 0.85768 0.72471 0.0
H2443 H 0.1832 0.88441 0.72386 0.0
H2444 H 0.2244 0.91303 0.71511 0.0
H2445 H 0.23839 0.88643 0.71618 0.0
H2446 H 0.2507 0.91577 0.73558 0.0
H2447 H 0.24588 0.89542 0.82525 0.0
H2448 H 0.26218 0.85684 0.81834 0.0
H2449 H 0.23623 0.84738 0.74265 0.0
C2450 C 0.20025 0.93345 0.75757 0.0
C2451 C 0.19632 0.95154 0.77617 0.0
C2452 C 0.20434 0.95015 0.80036 0.0
C2453 C 0.21677 0.93153 0.80593 0.0
C2454 C 0.22055 0.91407 0.78716 0.0
C2455 C 0.21202 0.91451 0.76354 0.0
C2456 C 0.21706 0.89258 0.74698 0.0
C2457 C 0.19326 0.87442 0.73577 0.0
C2458 C 0.23362 0.90256 0.7273 0.0
C2459 C 0.23004 0.87995 0.76489 0.0
C2460 C 0.23224 0.89286 0.7879 0.0
C2461 C 0.2441 0.88509 0.80732 0.0
C2462 C 0.25347 0.86326 0.80321 0.0
C2463 C 0.25048 0.84913 0.77999 0.0
C2464 C 0.23876 0.85779 0.76061 0.0
H2465 H 0.33452 0.96478 0.01898 0.0
H2466 H 0.33164 0.8963 0.9701 0.0
H2467 H 0.37487 0.91236 0.96302 0.0
H2468 H 0.37716 0.00976 0.98755 0.0
H2469 H 0.39238 0.02701 0.01552 0.0
H2470 H 0.36065 0.01143 0.01428 0.0
H2471 H 0.36921 0.9864 0.0498 0.0
H2472 H 0.40094 0.00177 0.05107 0.0
H2473 H 0.3914 0.96739 0.04721 0.0
H2474 H 0.41914 0.93547 0.96283 0.0
H2475 H 0.46097 0.96229 0.9716 0.0
H2476 H 0.4343 0.0137 0.02243 0.0
C2477 C 0.34282 0.9534 0.00637 0.0
C2478 C 0.32975 0.92947 0.99486 0.0
C2479 C 0.3414 0.91478 0.979 0.0
C2480 C 0.36587 0.92377 0.97481 0.0
C2481 C 0.37838 0.94733 0.9868 0.0
C2482 C 0.36723 0.96185 0.00234 0.0
C2483 C 0.38501 0.98539 0.01464 0.0
C2484 C 0.37841 0.00984 0.00756 0.0
C2485 C 0.38674 0.9852 0.04231 0.0
C2486 C 0.408 0.9817 0.00388 0.0
C2487 C 0.40384 0.95992 0.98754 0.0
C2488 C 0.42259 0.9526 0.97554 0.0
C2489 C 0.44622 0.9679 0.98059 0.0
C2490 C 0.45076 0.98985 0.99779 0.0
C2491 C 0.43136 0.99684 0.00936 0.0
H2492 H 0.83941 0.61182 0.7408 0.0
H2493 H 0.84656 0.60485 0.81766 0.0
H2494 H 0.81472 0.62875 0.82449 0.0
H2495 H 0.83331 0.67516 0.74731 0.0
H2496 H 0.81225 0.67075 0.72108 0.0
H2497 H 0.83378 0.65116 0.72252 0.0
H2498 H 0.79838 0.61063 0.71509 0.0
H2499 H 0.77671 0.63024 0.71419 0.0
H2500 H 0.77419 0.60662 0.73517 0.0
H2501 H 0.78388 0.65525 0.82302 0.0
H2502 H 0.76102 0.68742 0.81447 0.0
H2503 H 0.77446 0.6769 0.73854 0.0
C2504 C 0.83416 0.61512 0.75907 0.0
C2505 C 0.84529 0.60642 0.77871 0.0
C2506 C 0.83824 0.61146 0.80238 0.0
C2507 C 0.82001 0.62472 0.80638 0.0
C2508 C 0.80914 0.63271 0.78648 0.0
C2509 C 0.81621 0.62838 0.76335 0.0
C2510 C 0.80343 0.64094 0.74537 0.0
C2511 C 0.82178 0.66068 0.73339 0.0
C2512 C 0.78721 0.6209 0.72633 0.0
C2513 C 0.78844 0.65362 0.76209 0.0
C2514 C 0.79158 0.64821 0.78565 0.0
C2515 C 0.78104 0.65936 0.80462 0.0
C2516 C 0.76798 0.6775 0.79956 0.0
C2517 C 0.76593 0.68441 0.77581 0.0
C2518 C 0.77538 0.67154 0.75673 0.0
H2519 H 0.83575 0.59168 0.03676 0.0
H2520 H 0.83597 0.62285 0.9679 0.0
H2521 H 0.86852 0.60171 0.95585 0.0
H2522 H 0.90003 0.5994 0.04534 0.0
H2523 H 0.89789 0.57024 0.05905 0.0
H2524 H 0.87412 0.58714 0.06177 0.0
H2525 H 0.84261 0.54618 0.0434 0.0
H2526 H 0.86632 0.5292 0.04046 0.0
H2527 H 0.84684 0.53056 0.01432 0.0
H2528 H 0.90192 0.57762 0.95164 0.0
H2529 H 0.93434 0.5544 0.9565 0.0
H2530 H 0.91234 0.53901 0.02804 0.0
C2531 C 0.84256 0.59402 0.0191 0.0
C2532 C 0.83318 0.60893 0.00326 0.0
C2533 C 0.84279 0.61156 0.98038 0.0
C2534 C 0.86126 0.59954 0.97334 0.0
C2535 C 0.87003 0.58493 0.98936 0.0
C2536 C 0.86106 0.58223 0.01182 0.0
C2537 C 0.87409 0.56614 0.02598 0.0
C2538 C 0.88732 0.58166 0.04942 0.0
C2539 C 0.85641 0.54156 0.03135 0.0
C2540 C 0.89189 0.56028 0.00806 0.0
C2541 C 0.88918 0.57117 0.98697 0.0
C2542 C 0.90404 0.56889 0.96803 0.0
C2543 C 0.92235 0.55554 0.97088 0.0
C2544 C 0.9257 0.54461 0.9925 0.0
C2545 C 0.91003 0.54684 0.01117 0.0
H2546 H 0.2027 0.08822 0.752 0.0
H2547 H 0.19292 0.09133 0.82893 0.0
H2548 H 0.21162 0.1377 0.83391 0.0
H2549 H 0.26011 0.13592 0.75554 0.0
H2550 H 0.25198 0.14924 0.7288 0.0
H2551 H 0.23959 0.11604 0.73181 0.0
H2552 H 0.19625 0.12301 0.72491 0.0
H2553 H 0.20852 0.15635 0.72239 0.0
H2554 H 0.1869 0.14711 0.7444 0.0
H2555 H 0.23147 0.18342 0.83061 0.0
H2556 H 0.25182 0.22571 0.81923 0.0
H2557 H 0.2455 0.19401 0.74396 0.0
C2558 C 0.20507 0.09859 0.76996 0.0
C2559 C 0.19681 0.08618 0.7902 0.0
C2560 C 0.19942 0.10048 0.81329 0.0
C2561 C 0.2099 0.12681 0.81626 0.0
C2562 C 0.21725 0.13862 0.79586 0.0
C2563 C 0.215 0.12502 0.77315 0.0
C2564 C 0.22344 0.14258 0.75408 0.0
C2565 C 0.24507 0.13553 0.74184 0.0
C2566 C 0.20253 0.14223 0.73534 0.0
C2567 C 0.23099 0.16813 0.76966 0.0
C2568 C 0.22734 0.16534 0.79372 0.0
C2569 C 0.23412 0.18591 0.8118 0.0
C2570 C 0.24548 0.20983 0.8052 0.0
C2571 C 0.24947 0.21305 0.78074 0.0
C2572 C 0.24181 0.19208 0.76268 0.0
H2573 H 0.35417 0.97225 0.263 0.0
H2574 H 0.40455 0.97586 0.3252 0.0
H2575 H 0.38081 0.93421 0.33469 0.0
H2576 H 0.29957 0.94179 0.28938 0.0
H2577 H 0.28678 0.92187 0.26179 0.0
H2578 H 0.30697 0.95261 0.26048 0.0
H2579 H 0.33499 0.93131 0.2342 0.0
H2580 H 0.31458 0.90069 0.23511 0.0
H2581 H 0.34616 0.90547 0.24493 0.0
H2582 H 0.35183 0.89224 0.3373 0.0
H2583 H 0.3226 0.85033 0.32989 0.0
H2584 H 0.29199 0.8738 0.26533 0.0
C2585 C 0.36017 0.96431 0.27865 0.0
C2586 C 0.38112 0.97727 0.29342 0.0
C2587 C 0.38858 0.96615 0.31359 0.0
C2588 C 0.37512 0.94264 0.31925 0.0
C2589 C 0.35438 0.93049 0.30447 0.0
C2590 C 0.34713 0.94074 0.28439 0.0
C2591 C 0.32502 0.92309 0.27063 0.0
C2592 C 0.3033 0.9356 0.27058 0.0
C2593 C 0.33054 0.91464 0.24469 0.0
C2594 C 0.32118 0.90117 0.28596 0.0
C2595 C 0.33803 0.90599 0.30562 0.0
C2596 C 0.33848 0.88824 0.32201 0.0
C2597 C 0.32173 0.86455 0.31771 0.0
C2598 C 0.30507 0.85883 0.29703 0.0
C2599 C 0.30447 0.87765 0.28134 0.0
H2600 H 0.57343 0.38051 0.58596 0.0
H2601 H 0.5031 0.34733 0.61075 0.0
H2602 H 0.48545 0.37818 0.59049 0.0
H2603 H 0.56805 0.44596 0.5942 0.0
H2604 H 0.58367 0.45455 0.56775 0.0
H2605 H 0.59061 0.42958 0.58388 0.0
H2606 H 0.58122 0.39846 0.54426 0.0
H2607 H 0.57406 0.42333 0.5281 0.0
H2608 H 0.55214 0.39332 0.52763 0.0
H2609 H 0.47526 0.41196 0.56693 0.0
H2610 H 0.47374 0.44863 0.54451 0.0
H2611 H 0.55101 0.46084 0.53597 0.0
C2612 C 0.55432 0.37973 0.58714 0.0
C2613 C 0.53961 0.36143 0.59988 0.0
C2614 C 0.51472 0.36118 0.60114 0.0
C2615 C 0.50451 0.37856 0.5896 0.0
C2616 C 0.51946 0.3962 0.57703 0.0
C2617 C 0.54388 0.39712 0.57594 0.0
C2618 C 0.55605 0.41844 0.56178 0.0
C2619 C 0.57575 0.43831 0.57787 0.0
C2620 C 0.56647 0.40774 0.53909 0.0
C2621 C 0.53463 0.42935 0.55509 0.0
C2622 C 0.51368 0.41608 0.56388 0.0
C2623 C 0.49156 0.42253 0.55999 0.0
C2624 C 0.49088 0.44338 0.54712 0.0
C2625 C 0.51225 0.45771 0.53843 0.0
C2626 C 0.53434 0.45033 0.54233 0.0
H2627 H 0.44183 0.74851 0.30108 0.0
H2628 H 0.42596 0.74638 0.37629 0.0
H2629 H 0.38311 0.7456 0.36507 0.0
H2630 H 0.4081 0.78928 0.28641 0.0
H2631 H 0.39682 0.77399 0.25647 0.0
H2632 H 0.42506 0.77001 0.26955 0.0
H2633 H 0.40915 0.72079 0.26341 0.0
H2634 H 0.38092 0.72456 0.24981 0.0
H2635 H 0.38091 0.70643 0.27526 0.0
H2636 H 0.34542 0.75569 0.347 0.0
H2637 H 0.31319 0.7673 0.32221 0.0
H2638 H 0.35156 0.75713 0.258 0.0
C2639 C 0.42907 0.74684 0.315 0.0
C2640 C 0.43703 0.74735 0.3395 0.0
C2641 C 0.42006 0.74558 0.35737 0.0
C2642 C 0.39574 0.7453 0.35117 0.0
C2643 C 0.38867 0.746 0.32695 0.0
C2644 C 0.40465 0.74583 0.30901 0.0
C2645 C 0.39285 0.74796 0.28455 0.0
C2646 C 0.40652 0.77172 0.27363 0.0
C2647 C 0.39083 0.72347 0.26724 0.0
C2648 C 0.36816 0.75075 0.29172 0.0
C2649 C 0.36613 0.74971 0.31627 0.0
C2650 C 0.34635 0.75539 0.3276 0.0
C2651 C 0.32809 0.76193 0.31341 0.0
C2652 C 0.32943 0.76209 0.28813 0.0
C2653 C 0.34966 0.75625 0.27719 0.0
H2654 H 0.04309 0.7006 0.13096 0.0
H2655 H 0.02442 0.74022 0.07142 0.0
H2656 H 0.01955 0.70074 0.04337 0.0
H2657 H 0.07884 0.66476 0.09689 0.0
H2658 H 0.06954 0.63638 0.11176 0.0
H2659 H 0.07027 0.66727 0.12764 0.0
H2660 H 0.02513 0.65195 0.13612 0.0
H2661 H 0.02433 0.62097 0.12041 0.0
H2662 H 1.00287 0.63873 0.11119 0.0
H2663 H 0.01555 0.65718 0.0221 0.0
H2664 H 0.01487 0.61223 0.00814 0.0
H2665 H 0.03953 0.60126 0.08041 0.0
C2666 C 0.0377 0.70081 0.11206 0.0
C2667 C 0.03386 0.72333 0.10333 0.0
C2668 C 0.02736 0.72312 0.07843 0.0
C2669 C 0.02454 0.70081 0.06239 0.0
C2670 C 0.0287 0.67901 0.07148 0.0
C2671 C 0.03533 0.67881 0.09566 0.0
C2672 C 0.0397 0.65303 0.10042 0.0
C2673 C 0.06616 0.65552 0.10972 0.0
C2674 C 0.02194 0.64043 0.11808 0.0
C2675 C 0.03431 0.63876 0.07515 0.0
C2676 C 0.02775 0.65411 0.05883 0.0
C2677 C 0.02088 0.64505 0.03463 0.0
C2678 C 0.02052 0.61955 0.02688 0.0
C2679 C 0.02741 0.60357 0.04317 0.0
C2680 C 0.03464 0.61334 0.06756 0.0
H2681 H 0.06395 0.22552 0.80868 0.0
H2682 H 0.06256 0.30296 0.83643 0.0
H2683 H 0.10264 0.31889 0.82096 0.0
H2684 H 0.12642 0.23183 0.82527 0.0
H2685 H 0.13163 0.21193 0.79906 0.0
H2686 H 0.10197 0.20681 0.81038 0.0
H2687 H 0.08347 0.21196 0.76823 0.0
H2688 H 0.11311 0.21708 0.75677 0.0
H2689 H 0.09531 0.24044 0.75425 0.0
H2690 H 0.14322 0.3263 0.8035 0.0
H2691 H 0.18256 0.32459 0.78737 0.0
H2692 H 0.15882 0.2421 0.77255 0.0
C2693 C 0.07191 0.24588 0.81114 0.0
C2694 C 0.05999 0.26307 0.82351 0.0
C2695 C 0.07128 0.28948 0.8269 0.0
C2696 C 0.09402 0.2987 0.81812 0.0
C2697 C 0.10537 0.28124 0.8062 0.0
C2698 C 0.09479 0.25535 0.80283 0.0
C2699 C 0.11156 0.2405 0.79082 0.0
C2700 C 0.11829 0.22166 0.80737 0.0
C2701 C 0.10018 0.22668 0.76604 0.0
C2702 C 0.13328 0.26206 0.78806 0.0
C2703 C 0.12917 0.28541 0.79683 0.0
C2704 C 0.1466 0.30813 0.79654 0.0
C2705 C 0.16889 0.30696 0.78731 0.0
C2706 C 0.17373 0.28324 0.77867 0.0
C2707 C 0.15558 0.26052 0.77893 0.0
H2708 H 0.57338 0.72096 0.9717 0.0
H2709 H 0.50068 0.724 0.94647 0.0
H2710 H 0.48389 0.68527 0.9657 0.0
H2711 H 0.56405 0.65367 0.96074 0.0
H2712 H 0.58259 0.65067 0.987 0.0
H2713 H 0.58879 0.67984 0.97305 0.0
H2714 H 0.58525 0.70537 0.01412 0.0
H2715 H 0.5788 0.67616 0.02813 0.0
H2716 H 0.55802 0.69683 0.02977 0.0
H2717 H 0.47505 0.64486 0.9847 0.0
H2718 H 0.47482 0.60387 1.00061 0.0
H2719 H 0.55295 0.62649 0.01438 0.0
C2720 C 0.5539 0.71365 0.97048 0.0
C2721 C 0.53832 0.72563 0.95766 0.0
C2722 C 0.51298 0.71522 0.95619 0.0
C2723 C 0.50325 0.69329 0.96717 0.0
C2724 C 0.51908 0.68194 0.97961 0.0
C2725 C 0.54388 0.69164 0.98126 0.0
C2726 C 0.55691 0.6747 0.99433 0.0
C2727 C 0.57409 0.66409 0.97779 0.0
C2728 C 0.57055 0.68913 0.018 0.0
C2729 C 0.53556 0.65373 0.99938 0.0
C2730 C 0.51392 0.6585 0.9909 0.0
C2731 C 0.49181 0.64112 0.99177 0.0
C2732 C 0.49185 0.61794 1.00089 0.0
C2733 C 0.51379 0.61236 0.00919 0.0
C2734 C 0.53587 0.63072 0.00894 0.0
H2735 H 0.09009 0.79578 0.65948 0.0
H2736 H 0.03928 0.75043 0.70313 0.0
H2737 H 0.07311 0.73939 0.72536 0.0
H2738 H 0.13012 0.75516 0.6537 0.0
H2739 H 0.15762 0.78006 0.65675 0.0
H2740 H 0.12973 0.78624 0.64489 0.0
H2741 H 0.13408 0.82458 0.67801 0.0
H2742 H 0.16224 0.81883 0.68968 0.0
H2743 H 0.1382 0.81987 0.7094 0.0
H2744 H 0.11132 0.72972 0.74031 0.0
H2745 H 0.15309 0.72714 0.75157 0.0
H2746 H 0.18017 0.77996 0.7 0.0
C2747 C 0.08612 0.78395 0.67403 0.0
C2748 C 0.06193 0.77391 0.67942 0.0
C2749 C 0.05757 0.7584 0.69856 0.0
C2750 C 0.07668 0.75188 0.71128 0.0
C2751 C 0.10015 0.76129 0.70495 0.0
C2752 C 0.10509 0.77746 0.6872 0.0
C2753 C 0.13213 0.78482 0.68412 0.0
C2754 C 0.13772 0.77604 0.65833 0.0
C2755 C 0.14226 0.81374 0.6907 0.0
C2756 C 0.14141 0.76976 0.70253 0.0
C2757 C 0.12256 0.75624 0.71419 0.0
C2758 C 0.1263 0.74043 0.73152 0.0
C2759 C 0.15007 0.73895 0.73767 0.0
C2760 C 0.1698 0.75332 0.72664 0.0
C2761 C 0.16538 0.76869 0.70862 0.0
H2762 H 0.01463 0.3419 0.47963 0.0
H2763 H 0.07088 0.36654 0.43131 0.0
H2764 H 0.07571 0.41132 0.44932 0.0
H2765 H 0.98668 0.39269 0.47535 0.0
H2766 H 0.97925 0.3951 0.50648 0.0
H2767 H 0.98201 0.36494 0.49155 0.0
H2768 H 0.01419 0.36211 0.52519 0.0
H2769 H 0.01141 0.39222 0.54033 0.0
H2770 H 0.04068 0.38803 0.53219 0.0
H2771 H 0.07232 0.45367 0.47095 0.0
H2772 H 0.06126 0.49003 0.49447 0.0
H2773 H 0.00647 0.43723 0.52763 0.0
C2774 C 0.02832 0.3566 0.4731 0.0
C2775 C 0.04252 0.35071 0.45417 0.0
C2776 C 0.05993 0.3706 0.44591 0.0
C2777 C 0.06278 0.39607 0.45602 0.0
C2778 C 0.04809 0.40123 0.47434 0.0
C2779 C 0.03127 0.382 0.48285 0.0
C2780 C 0.01671 0.39258 0.50166 0.0
C2781 C 0.98956 0.38594 0.49325 0.0
C2782 C 0.02101 0.38317 0.5263 0.0
C2783 C 0.02772 0.42086 0.50225 0.0
C2784 C 0.0459 0.42549 0.48649 0.0
C2785 C 0.05822 0.45024 0.48342 0.0
C2786 C 0.05172 0.47074 0.49675 0.0
C2787 C 0.03291 0.46635 0.5127 0.0
C2788 C 0.02097 0.4411 0.51562 0.0
H2789 H 0.41506 0.2976 0.15956 0.0
H2790 H 0.45097 0.26273 0.21289 0.0
H2791 H 0.41964 0.26692 0.24095 0.0
H2792 H 0.39196 0.34205 0.20311 0.0
H2793 H 0.36336 0.33717 0.18567 0.0
H2794 H 0.39031 0.33486 0.17066 0.0
H2795 H 0.36887 0.28936 0.15086 0.0
H2796 H 0.34193 0.29168 0.16575 0.0
H2797 H 0.35581 0.26544 0.16983 0.0
H2798 H 0.3832 0.27037 0.2616 0.0
H2799 H 0.34203 0.27118 0.27316 0.0
H2800 H 0.32804 0.30368 0.20737 0.0
C2801 C 0.41653 0.29142 0.17737 0.0
C2802 C 0.43558 0.28002 0.18415 0.0
C2803 C 0.43658 0.27152 0.20733 0.0
C2804 C 0.41894 0.27398 0.22347 0.0
C2805 C 0.40022 0.28487 0.21622 0.0
C2806 C 0.39871 0.2934 0.19372 0.0
C2807 C 0.37527 0.30204 0.18979 0.0
C2808 C 0.38055 0.33074 0.18716 0.0
C2809 C 0.35954 0.28618 0.16776 0.0
C2810 C 0.36368 0.29638 0.21332 0.0
C2811 C 0.37868 0.28684 0.22836 0.0
C2812 C 0.37147 0.27827 0.25023 0.0
C2813 C 0.3481 0.27883 0.25668 0.0
C2814 C 0.33221 0.28802 0.24144 0.0
C2815 C 0.34023 0.29741 0.2197 0.0
H2816 H 0.60024 0.54971 0.36532 0.0
H2817 H 0.59919 0.46987 0.34567 0.0
H2818 H 0.57378 0.45823 0.37964 0.0
H2819 H 0.6047 0.54719 0.43027 0.0
H2820 H 0.58575 0.56921 0.43679 0.0
H2821 H 0.60375 0.57179 0.41099 0.0
H2822 H 0.56589 0.56822 0.3822 0.0
H2823 H 0.5475 0.5664 0.40768 0.0
H2824 H 0.54011 0.54168 0.38242 0.0
H2825 H 0.54492 0.45528 0.41362 0.0
H2826 H 0.51911 0.46178 0.44732 0.0
H2827 H 0.54235 0.54374 0.44662 0.0
C2828 C 0.5948 0.52978 0.36827 0.0
C2829 C 0.60155 0.51065 0.35279 0.0
C2830 C 0.59427 0.48483 0.35736 0.0
C2831 C 0.57978 0.47805 0.37656 0.0
C2832 C 0.57316 0.49738 0.39131 0.0
C2833 C 0.58082 0.52278 0.38762 0.0
C2834 C 0.57155 0.53998 0.40617 0.0
C2835 C 0.59269 0.55811 0.422 0.0
C2836 C 0.5553 0.55494 0.39388 0.0
C2837 C 0.55699 0.52029 0.42056 0.0
C2838 C 0.55791 0.49579 0.41162 0.0
C2839 C 0.54444 0.47441 0.42101 0.0
C2840 C 0.52976 0.47824 0.44004 0.0
C2841 C 0.52901 0.50321 0.44968 0.0
C2842 C 0.54293 0.52443 0.43985 0.0
H2843 H 0.24225 0.83844 0.07406 0.0
H2844 H 0.27683 0.91797 0.09783 0.0
H2845 H 0.28771 0.90642 0.13785 0.0
H2846 H 0.21793 0.8246 0.13348 0.0
H2847 H 0.22241 0.79257 0.13 0.0
H2848 H 0.21592 0.80743 0.10369 0.0
H2849 H 0.25493 0.79875 0.08582 0.0
H2850 H 0.26181 0.78439 0.11229 0.0
H2851 H 0.2837 0.8108 0.10305 0.0
H2852 H 0.29943 0.88589 0.17303 0.0
H2853 H 0.30485 0.85841 0.20464 0.0
H2854 H 0.26004 0.79259 0.15981 0.0
C2855 C 0.25167 0.85345 0.08787 0.0
C2856 C 0.25876 0.87907 0.08284 0.0
C2857 C 0.27107 0.89824 0.10133 0.0
C2858 C 0.27749 0.89187 0.12408 0.0
C2859 C 0.27099 0.86634 0.12819 0.0
C2860 C 0.25775 0.84751 0.11091 0.0
C2861 C 0.253 0.82157 0.12019 0.0
C2862 C 0.2257 0.81092 0.12195 0.0
C2863 C 0.26402 0.80278 0.10439 0.0
C2864 C 0.26633 0.82871 0.14504 0.0
C2865 C 0.27675 0.85461 0.14915 0.0
C2866 C 0.29104 0.86564 0.17023 0.0
C2867 C 0.29421 0.84986 0.18794 0.0
C2868 C 0.28284 0.82349 0.18454 0.0
C2869 C 0.26887 0.81275 0.16278 0.0
H2870 H 0.9476 0.51989 0.85722 0.0
H2871 H 0.96332 0.60113 0.85107 0.0
H2872 H 0.98921 0.60941 0.88976 0.0
H2873 H 0.94377 0.52558 0.92223 0.0
H2874 H 0.95697 0.49878 0.92575 0.0
H2875 H 0.93957 0.49981 0.8981 0.0
H2876 H 0.97582 0.49436 0.87331 0.0
H2877 H 0.99343 0.49324 0.90076 0.0
H2878 H 0.0049 0.51641 0.88051 0.0
H2879 H 0.01628 0.60744 0.92805 0.0
H2880 H 0.03765 0.5958 0.96389 0.0
H2881 H 1.00114 0.51627 0.94406 0.0
C2882 C 0.95637 0.53946 0.86408 0.0
C2883 C 0.95377 0.55989 0.85126 0.0
C2884 C 0.96518 0.58527 0.86083 0.0
C2885 C 0.97994 0.59009 0.88266 0.0
C2886 C 0.98252 0.5693 0.89467 0.0
C2887 C 0.97061 0.54455 0.88583 0.0
C2888 C 0.97587 0.52538 0.9019 0.0
C2889 C 0.95267 0.51159 0.91264 0.0
C2890 C 0.98824 0.50624 0.8883 0.0
C2891 C 0.99306 0.54305 0.921 0.0
C2892 C 0.99695 0.56832 0.91666 0.0
C2893 C 0.01312 0.58773 0.93172 0.0
C2894 C 0.02528 0.58101 0.95184 0.0
C2895 C 0.02084 0.55523 0.95659 0.0
C2896 C 0.00465 0.53619 0.94092 0.0
H2897 H 0.29611 0.1985 0.5852 0.0
H2898 H 0.24091 0.22865 0.54945 0.0
H2899 H 0.23321 0.24949 0.58879 0.0
H2900 H 0.26644 0.18447 0.6376 0.0
H2901 H 0.29318 0.19429 0.65826 0.0
H2902 H 0.2957 0.1831 0.62715 0.0
H2903 H 0.32684 0.22519 0.62235 0.0
H2904 H 0.32469 0.23638 0.65357 0.0
H2905 H 0.31911 0.25537 0.63006 0.0
H2906 H 0.22825 0.26301 0.63278 0.0
H2907 H 0.23059 0.27329 0.67733 0.0
H2908 H 0.2906 0.23669 0.68416 0.0
C2909 C 0.28274 0.2099 0.58556 0.0
C2910 C 0.26914 0.2119 0.56412 0.0
C2911 C 0.25173 0.22695 0.56549 0.0
C2912 C 0.2471 0.23875 0.58783 0.0
C2913 C 0.26028 0.23575 0.60867 0.0
C2914 C 0.27814 0.22218 0.60767 0.0
C2915 C 0.28965 0.22179 0.63277 0.0
C2916 C 0.28601 0.19428 0.63932 0.0
C2917 C 0.31667 0.2355 0.6348 0.0
C2918 C 0.27512 0.23675 0.64806 0.0
C2919 C 0.25812 0.24446 0.63385 0.0
C2920 C 0.24175 0.2574 0.64405 0.0
C2921 C 0.24308 0.26299 0.66937 0.0
C2922 C 0.26085 0.25595 0.68421 0.0
C2923 C 0.27699 0.2426 0.67329 0.0
H2924 H 0.62665 0.50857 0.19396 0.0
H2925 H 0.57559 0.52616 0.24485 0.0
H2926 H 0.55051 0.53594 0.21153 0.0
H2927 H 0.62414 0.55744 0.15731 0.0
H2928 H 0.62538 0.53883 0.12888 0.0
H2929 H 0.63889 0.53123 0.1563 0.0
H2930 H 0.61286 0.48475 0.14859 0.0
H2931 H 0.59958 0.49211 0.12091 0.0
H2932 H 0.58038 0.4792 0.14368 0.0
H2933 H 0.53253 0.54729 0.17376 0.0
H2934 H 0.52036 0.55513 0.13257 0.0
H2935 H 0.58194 0.52939 0.10525 0.0
C2936 C 0.60995 0.51396 0.19802 0.0
C2937 C 0.60321 0.51661 0.22215 0.0
C2938 C 0.58128 0.52399 0.22663 0.0
C2939 C 0.56686 0.52967 0.2078 0.0
C2940 C 0.5744 0.5277 0.18443 0.0
C2941 C 0.59518 0.51962 0.17933 0.0
C2942 C 0.59919 0.51953 0.15253 0.0
C2943 C 0.62333 0.53785 0.14853 0.0
C2944 C 0.59792 0.49228 0.14073 0.0
C2945 C 0.5777 0.52928 0.14358 0.0
C2946 C 0.5637 0.53391 0.16236 0.0
C2947 C 0.54321 0.54353 0.15885 0.0
C2948 C 0.53653 0.54807 0.13542 0.0
C2949 C 0.55021 0.54291 0.11576 0.0
C2950 C 0.57118 0.53357 0.11997 0.0
H2951 H 0.24145 0.85952 0.92762 0.0
H2952 H 0.22893 0.79389 0.96792 0.0
H2953 H 0.22365 0.76506 0.92955 0.0
H2954 H 0.20222 0.83027 0.87147 0.0
H2955 H 0.22422 0.84633 0.85249 0.0
H2956 H 0.22159 0.86107 0.88241 0.0
H2957 H 0.26739 0.86504 0.89257 0.0
H2958 H 0.27006 0.84981 0.86295 0.0
H2959 H 0.27919 0.83676 0.88945 0.0
H2960 H 0.22315 0.74373 0.88678 0.0
H2961 H 0.22952 0.73206 0.84365 0.0
H2962 H 0.24705 0.81229 0.83302 0.0
C2963 C 0.23651 0.83903 0.92821 0.0
C2964 C 0.2348 0.82873 0.95047 0.0
C2965 C 0.22971 0.80195 0.95085 0.0
C2966 C 0.22674 0.7855 0.92919 0.0
C2967 C 0.22942 0.79628 0.90747 0.0
C2968 C 0.23428 0.82247 0.90685 0.0
C2969 C 0.23978 0.82948 0.88177 0.0
C2970 C 0.22081 0.84255 0.87142 0.0
C2971 C 0.26564 0.84625 0.8817 0.0
C2972 C 0.23757 0.80322 0.86846 0.0
C2973 C 0.2311 0.78423 0.88337 0.0
C2974 C 0.22816 0.75844 0.87492 0.0
C2975 C 0.23188 0.75198 0.85054 0.0
C2976 C 0.23904 0.7713 0.83529 0.0
C2977 C 0.2419 0.79716 0.84442 0.0
H2978 H 0.95775 0.52967 0.72275 0.0
H2979 H 0.94771 0.60682 0.72398 0.0
H2980 H 0.97077 0.61266 0.68766 0.0
H2981 H 0.01879 0.54103 0.69714 0.0
H2982 H 0.01076 0.51064 0.6786 0.0
H2983 H 0.99806 0.51437 0.70742 0.0
H2984 H 0.95481 0.49833 0.68624 0.0
H2985 H 0.9673 0.49476 0.65741 0.0
H2986 H 0.94581 0.51439 0.66172 0.0
H2987 H 0.99002 0.60834 0.64886 0.0
H2988 H 1.00259 0.5936 0.60917 0.0
H2989 H 0.9982 0.51844 0.63198 0.0
C2990 C 0.9612 0.54808 0.71585 0.0
C2991 C 0.95134 0.56794 0.72624 0.0
C2992 C 0.95534 0.59147 0.71628 0.0
C2993 C 0.9685 0.59499 0.69578 0.0
C2994 C 0.97736 0.57473 0.68546 0.0
C2995 C 0.97388 0.55171 0.69513 0.0
C2996 C 0.98229 0.53187 0.67879 0.0
C2997 C 0.00376 0.52402 0.69123 0.0
C2998 C 0.9613 0.50847 0.67055 0.0
C2999 C 0.99016 0.54703 0.658 0.0
C3000 C 0.98771 0.57188 0.66247 0.0
C3001 C 0.9924 0.58907 0.6453 0.0
C3002 C 0.99946 0.58052 0.62282 0.0
C3003 C 1.00138 0.55495 0.6177 0.0
C3004 C 0.99705 0.53815 0.63561 0.0
H3005 H 0.24117 0.23067 0.43103 0.0
H3006 H 0.29445 0.18563 0.41866 0.0
H3007 H 0.30076 0.20155 0.3788 0.0
H3008 H 0.21482 0.22181 0.36986 0.0
H3009 H 0.21068 0.2539 0.37052 0.0
H3010 H 0.21032 0.239 0.39806 0.0
H3011 H 0.24457 0.27679 0.41804 0.0
H3012 H 0.24496 0.29183 0.39058 0.0
H3013 H 0.27243 0.28552 0.40345 0.0
H3014 H 0.30037 0.22149 0.33954 0.0
H3015 H 0.29479 0.24554 0.305 0.0
H3016 H 0.24286 0.27881 0.34338 0.0
C3017 C 0.25423 0.2242 0.41999 0.0
C3018 C 0.26731 0.20684 0.42805 0.0
C3019 C 0.28426 0.19895 0.41299 0.0
C3020 C 0.28793 0.20785 0.39026 0.0
C3021 C 0.27465 0.22482 0.38284 0.0
C3022 C 0.25826 0.23307 0.39733 0.0
C3023 C 0.2465 0.25161 0.3852 0.0
C3024 C 0.21895 0.24094 0.38064 0.0
C3025 C 0.25248 0.278 0.40021 0.0
C3026 C 0.25879 0.25248 0.36161 0.0
C3027 C 0.27484 0.23674 0.36053 0.0
C3028 C 0.28794 0.23395 0.34029 0.0
C3029 C 0.2846 0.24763 0.32072 0.0
C3030 C 0.26845 0.26405 0.32155 0.0
C3031 C 0.25546 0.26652 0.34233 0.0
H3032 H 0.34008 0.58104 0.56157 0.0
H3033 H 0.32763 0.60932 0.49294 0.0
H3034 H 0.35199 0.58164 0.4734 0.0
H3035 H 0.40071 0.58078 0.55615 0.0
H3036 H 0.39916 0.55206 0.57052 0.0
H3037 H 0.37857 0.57191 0.57779 0.0
H3038 H 0.34272 0.53231 0.56621 0.0
H3039 H 0.36365 0.51285 0.55831 0.0
H3040 H 0.33991 0.5149 0.53645 0.0
H3041 H 0.38028 0.55362 0.4622 0.0
H3042 H 0.41362 0.5313 0.46115 0.0
H3043 H 0.40819 0.52222 0.53734 0.0
C3044 C 0.34216 0.58117 0.54234 0.0
C3045 C 0.33189 0.59726 0.52874 0.0
C3046 C 0.33533 0.59711 0.50371 0.0
C3047 C 0.34895 0.5813 0.49242 0.0
C3048 C 0.3589 0.56571 0.50641 0.0
C3049 C 0.35575 0.56563 0.53086 0.0
C3050 C 0.37008 0.54892 0.54233 0.0
C3051 C 0.38821 0.56438 0.56289 0.0
C3052 C 0.35307 0.52588 0.55135 0.0
C3053 C 0.3828 0.54064 0.52078 0.0
C3054 C 0.37556 0.54989 0.50006 0.0
C3055 C 0.38586 0.546 0.47821 0.0
C3056 C 0.40472 0.53323 0.47777 0.0
C3057 C 0.4133 0.52494 0.49913 0.0
C3058 C 0.40167 0.52799 0.52067 0.0
H3059 H 0.85301 0.91728 0.55178 0.0
H3060 H 0.81614 0.96494 0.51322 0.0
H3061 H 0.85584 0.99279 0.50638 0.0
H3062 H 0.8994 0.96969 0.58241 0.0
H3063 H 0.9226 0.95188 0.58126 0.0
H3064 H 0.89134 0.93544 0.58219 0.0
H3065 H 0.89431 0.90658 0.54285 0.0
H3066 H 0.92553 0.92308 0.54189 0.0
H3067 H 0.90432 0.92116 0.51623 0.0
H3068 H 0.90024 0.01404 0.50196 0.0
H3069 H 0.94501 0.03018 0.50528 0.0
H3070 H 0.95193 0.97053 0.54973 0.0
C3071 C 0.85332 0.93358 0.54188 0.0
C3072 C 0.83158 0.9389 0.53285 0.0
C3073 C 0.83264 0.96061 0.52033 0.0
C3074 C 0.85509 0.97641 0.51624 0.0
C3075 C 0.87624 0.97049 0.5252 0.0
C3076 C 0.87549 0.94985 0.53817 0.0
C3077 C 0.90068 0.94835 0.54703 0.0
C3078 C 0.90367 0.95154 0.57487 0.0
C3079 C 0.90654 0.9233 0.53635 0.0
C3080 C 0.91578 0.97116 0.53679 0.0
C3081 C 0.90146 0.98352 0.52394 0.0
C3082 C 0.91158 0.00467 0.51222 0.0
C3083 C 0.93696 0.01364 0.51409 0.0
C3084 C 0.95174 0.00172 0.52796 0.0
C3085 C 0.94096 0.98016 0.53925 0.0
H3086 H 0.85432 0.12026 0.2489 0.0
H3087 H 0.80503 0.0773 0.18917 0.0
H3088 H 0.77967 0.10852 0.19373 0.0
H3089 H 0.80904 0.13909 0.28532 0.0
H3090 H 0.82717 0.17075 0.29531 0.0
H3091 H 0.84165 0.14495 0.28775 0.0
H3092 H 0.86632 0.17091 0.25684 0.0
H3093 H 0.85201 0.19681 0.2645 0.0
H3094 H 0.85054 0.18301 0.23346 0.0
H3095 H 0.75934 0.14402 0.2045 0.0
H3096 H 0.74617 0.18254 0.21977 0.0
H3097 H 0.80857 0.20389 0.27227 0.0
C3098 C 0.83816 0.1174 0.23682 0.0
C3099 C 0.83169 0.09614 0.21869 0.0
C3100 C 0.81046 0.09331 0.20318 0.0
C3101 C 0.79586 0.11097 0.20565 0.0
C3102 C 0.80267 0.13159 0.22365 0.0
C3103 C 0.82339 0.13507 0.23891 0.0
C3104 C 0.82672 0.15932 0.2564 0.0
C3105 C 0.8261 0.15315 0.28276 0.0
C3106 C 0.85029 0.17865 0.25256 0.0
C3107 C 0.80455 0.16873 0.24868 0.0
C3108 C 0.79096 0.15236 0.22978 0.0
C3109 C 0.76981 0.15694 0.21934 0.0
C3110 C 0.76242 0.17892 0.22825 0.0
C3111 C 0.77615 0.19633 0.2474 0.0
C3112 C 0.79746 0.19094 0.2578 0.0
H3113 H 0.70552 0.13413 0.00469 0.0
H3114 H 0.72659 0.11569 0.0755 0.0
H3115 H 0.68367 0.09721 0.08157 0.0
H3116 H 0.64975 0.15045 0.01935 0.0
H3117 H 0.63347 0.13555 0.99104 0.0
H3118 H 0.6658 0.14809 0.99239 0.0
H3119 H 0.67151 0.10391 0.97453 0.0
H3120 H 0.6392 0.09132 0.97289 0.0
H3121 H 0.65902 0.07601 0.9891 0.0
H3122 H 0.63868 0.08245 0.08068 0.0
H3123 H 0.5947 0.06653 0.07061 0.0
H3124 H 0.60303 0.09186 0.99926 0.0
C3125 C 0.70105 0.12617 0.02143 0.0
C3126 C 0.71926 0.1264 0.03969 0.0
C3127 C 0.71285 0.11556 0.06126 0.0
C3128 C 0.68855 0.10522 0.06495 0.0
C3129 C 0.67099 0.10555 0.04673 0.0
C3130 C 0.67692 0.11528 0.02521 0.0
C3131 C 0.65463 0.11203 0.00807 0.0
C3132 C 0.65069 0.13809 0.00239 0.0
C3133 C 0.65619 0.09479 0.98477 0.0
C3134 C 0.63526 0.09903 0.02338 0.0
C3135 C 0.64506 0.09588 0.04575 0.0
C3136 C 0.63077 0.08467 0.06317 0.0
C3137 C 0.6058 0.07585 0.05734 0.0
C3138 C 0.59553 0.07794 0.03415 0.0
C3139 C 0.61044 0.08995 0.01709 0.0
H3140 H 0.18375 0.45985 0.26001 0.0
H3141 H 0.1694 0.44524 0.18185 0.0
H3142 H 0.19575 0.41509 0.18025 0.0
H3143 H 0.24824 0.45505 0.26034 0.0
H3144 H 0.24665 0.43958 0.28762 0.0
H3145 H 0.22821 0.46195 0.28288 0.0
H3146 H 0.18962 0.42756 0.28895 0.0
H3147 H 0.20792 0.40519 0.29382 0.0
H3148 H 0.18332 0.39708 0.27056 0.0
H3149 H 0.21665 0.382 0.18719 0.0
H3150 H 0.2348 0.34906 0.20226 0.0
H3151 H 0.24177 0.38743 0.2752 0.0
C3152 C 0.18641 0.45045 0.24259 0.0
C3153 C 0.17452 0.45479 0.22106 0.0
C3154 C 0.17838 0.44224 0.19856 0.0
C3155 C 0.19338 0.42515 0.19743 0.0
C3156 C 0.20475 0.42117 0.21889 0.0
C3157 C 0.20178 0.43356 0.24106 0.0
C3158 C 0.21543 0.42466 0.26137 0.0
C3159 C 0.23585 0.44663 0.27379 0.0
C3160 C 0.19803 0.41292 0.27975 0.0
C3161 C 0.22558 0.40456 0.24715 0.0
C3162 C 0.2191 0.40306 0.22266 0.0
C3163 C 0.22297 0.38374 0.20608 0.0
C3164 C 0.23359 0.3653 0.21472 0.0
C3165 C 0.24117 0.36679 0.23946 0.0
C3166 C 0.23736 0.3868 0.25596 0.0
H3167 H 0.19257 0.45102 0.07758 0.0
H3168 H 0.21521 0.44551 0.00434 0.0
H3169 H 0.18523 0.46915 0.99171 0.0
H3170 H 0.12825 0.44047 0.05905 0.0
H3171 H 0.12233 0.46191 0.08371 0.0
H3172 H 0.14632 0.44557 0.08744 0.0
H3173 H 0.17685 0.48901 0.09979 0.0
H3174 H 0.15298 0.5055 0.0959 0.0
H3175 H 0.17991 0.51355 0.07973 0.0
H3176 H 0.15468 0.49525 0.98734 0.0
H3177 H 0.12078 0.51649 0.98955 0.0
H3178 H 0.11393 0.50183 0.06442 0.0
C3179 C 0.19115 0.45482 0.0589 0.0
C3180 C 0.20638 0.44658 0.04193 0.0
C3181 C 0.20375 0.45157 0.0176 0.0
C3182 C 0.18686 0.46514 0.01029 0.0
C3183 C 0.17227 0.47317 0.02741 0.0
C3184 C 0.1738 0.46776 0.05109 0.0
C3185 C 0.15481 0.47734 0.06537 0.0
C3186 C 0.13686 0.45499 0.07442 0.0
C3187 C 0.16687 0.49755 0.08645 0.0
C3188 C 0.14258 0.48916 0.04604 0.0
C3189 C 0.15335 0.48689 0.02444 0.0
C3190 C 0.14595 0.49692 0.00408 0.0
C3191 C 0.12672 0.50911 0.00558 0.0
C3192 C 0.11462 0.51082 0.02712 0.0
C3193 C 0.12279 0.5008 0.0477 0.0
H3194 H 0.8218 0.96252 0.21466 0.0
H3195 H 0.88808 0.96986 0.26017 0.0
H3196 H 0.87281 0.92701 0.2715 0.0
H3197 H 0.7813 0.92731 0.25406 0.0
H3198 H 0.7622 0.90632 0.22999 0.0
H3199 H 0.77804 0.93794 0.22466 0.0
H3200 H 0.79783 0.91866 0.18869 0.0
H3201 H 0.78202 0.88699 0.19389 0.0
H3202 H 0.81457 0.89479 0.19345 0.0
H3203 H 0.85103 0.88475 0.27965 0.0
H3204 H 0.82356 0.8432 0.28288 0.0
H3205 H 0.77104 0.86003 0.23146 0.0
C3206 C 0.83307 0.95504 0.22693 0.0
C3207 C 0.85621 0.96982 0.23644 0.0
C3208 C 0.87036 0.95918 0.25247 0.0
C3209 C 0.86185 0.93474 0.25913 0.0
C3210 C 0.83913 0.92078 0.24961 0.0
C3211 C 0.82487 0.93028 0.23377 0.0
C3212 C 0.80109 0.9107 0.22636 0.0
C3213 C 0.77937 0.9212 0.23424 0.0
C3214 C 0.79875 0.90229 0.19897 0.0
C3215 C 0.80434 0.88902 0.2407 0.0
C3216 C 0.82648 0.8955 0.25398 0.0
C3217 C 0.83373 0.87928 0.26916 0.0
C3218 C 0.818 0.85564 0.2708 0.0
C3219 C 0.79534 0.84818 0.25715 0.0
C3220 C 0.78837 0.86516 0.24193 0.0
H3221 H 0.67205 0.0933 0.7676 0.0
H3222 H 0.69576 0.06554 0.6992 0.0
H3223 H 0.72464 0.10711 0.69856 0.0
H3224 H 0.67426 0.15625 0.75475 0.0
H3225 H 0.68558 0.17106 0.78483 0.0
H3226 H 0.66758 0.13872 0.78045 0.0
H3227 H 0.70194 0.12369 0.80286 0.0
H3228 H 0.72013 0.15602 0.80718 0.0
H3229 H 0.73203 0.1308 0.79241 0.0
H3230 H 0.74789 0.15241 0.70331 0.0
H3231 H 0.76528 0.19868 0.71403 0.0
H3232 H 0.72881 0.19629 0.78067 0.0
C3233 C 0.68338 0.09597 0.75254 0.0
C3234 C 0.68164 0.0763 0.73339 0.0
C3235 C 0.69687 0.08038 0.71407 0.0
C3236 C 0.71334 0.10388 0.71356 0.0
C3237 C 0.71462 0.12287 0.73271 0.0
C3238 C 0.70022 0.11916 0.75194 0.0
C3239 C 0.70487 0.14293 0.76997 0.0
C3240 C 0.6817 0.15282 0.77264 0.0
C3241 C 0.71537 0.13806 0.79456 0.0
C3242 C 0.7236 0.16082 0.75747 0.0
C3243 C 0.72898 0.14882 0.73602 0.0
C3244 C 0.74422 0.16192 0.72028 0.0
C3245 C 0.75396 0.18812 0.72646 0.0
C3246 C 0.74861 0.20072 0.74829 0.0
C3247 C 0.73365 0.18683 0.7642 0.0
loop_
_geom_bond_atom_site_label_1
_geom_bond_atom_site_label_2
_geom_bond_distance
_geom_bond_site_symmetry_2
_ccdc_geom_bond_type
O0 Cd1 2.223 . S
O0 C8 1.315 . S
Cd1 O0 2.223 . S
Cd1 O4 2.297 . S
Cd1 O5 2.439 . S
Cd1 O11 2.240 1_455 S
Cd2 O3 2.240 . S
Cd2 O10 2.223 1_455 S
Cd2 O12 2.320 . S
Cd2 O13 2.439 . S
O3 Cd2 2.240 . S
O3 C8 1.279 . S
O4 Cd1 2.297 . S
O4 C6 1.247 . S
O5 Cd1 2.439 . S
O5 C6 1.208 . S
C6 O4 1.247 . S
C6 O5 1.208 . S
C7 O12 1.283 . S
C7 O13 1.208 . S
C8 O0 1.315 . S
C8 O3 1.279 . S
C9 O10 1.315 . S
C9 O11 1.279 . S
O10 Cd2 2.223 1_655 S
O10 C9 1.315 . S
O11 Cd1 2.240 1_655 S
O11 C9 1.279 . S
O12 Cd2 2.320 . S
O12 C7 1.283 . S
O13 Cd2 2.439 . S
O13 C7 1.208 . S
O14 Cd15 2.223 1_455 S
O14 C22 1.317 . S
Cd15 O14 2.223 1_655 S
Cd15 O18 2.297 . S
Cd15 O19 2.439 . S
Cd15 O25 2.240 1_655 S
Cd16 O17 2.240 1_455 S
Cd16 O24 2.223 . S
Cd16 O26 2.297 . S
Cd16 O27 2.439 . S
O17 Cd16 2.240 1_655 S
O17 C22 1.272 1_655 S
O18 Cd15 2.297 . S
O18 C20 1.247 . S
O19 Cd15 2.439 . S
O19 C20 1.208 . S
C20 O18 1.247 . S
C20 O19 1.208 . S
C21 O26 1.247 . S
C21 O27 1.208 . S
C22 O14 1.317 . S
C22 O17 1.272 1_455 S
C23 O24 1.315 . S
C23 O25 1.279 . S
O24 Cd16 2.223 . S
O24 C23 1.315 . S
O25 Cd15 2.240 1_455 S
O25 C23 1.279 . S
O26 Cd16 2.297 . S
O26 C21 1.247 . S
O27 Cd16 2.439 . S
O27 C21 1.208 . S
O28 Cd29 2.223 . S
O28 C36 1.315 . S
Cd29 O28 2.223 . S
Cd29 O32 2.297 . S
Cd29 O33 2.439 . S
Cd29 O39 2.240 . S
Cd30 O31 2.240 . S
Cd30 O38 2.223 . S
Cd30 O40 2.297 . S
Cd30 O41 2.439 . S
O31 Cd30 2.240 . S
O31 C36 1.279 . S
O32 Cd29 2.297 . S
O32 C34 1.247 . S
O33 Cd29 2.439 . S
O33 C34 1.208 . S
C34 O32 1.247 . S
C34 O33 1.208 . S
C35 O40 1.247 . S
C35 O41 1.208 . S
C36 O28 1.315 . S
C36 O31 1.279 . S
C37 O38 1.315 . S
C37 O39 1.279 . S
O38 Cd30 2.223 . S
O38 C37 1.315 . S
O39 Cd29 2.240 . S
O39 C37 1.279 . S
O40 Cd30 2.297 . S
O40 C35 1.247 . S
O41 Cd30 2.439 . S
O41 C35 1.208 . S
O42 Cd43 2.223 . S
O42 C50 1.315 . S
Cd43 O42 2.223 . S
Cd43 O46 2.297 . S
Cd43 O47 2.439 . S
Cd43 O53 2.240 . S
Cd44 O45 2.240 . S
Cd44 O52 2.223 . S
Cd44 O54 2.297 . S
Cd44 O55 2.439 . S
O45 Cd44 2.240 . S
O45 C50 1.279 . S
O46 Cd43 2.297 . S
O46 C48 1.247 . S
O47 Cd43 2.439 . S
O47 C48 1.208 . S
C48 O46 1.247 . S
C48 O47 1.208 . S
C49 O54 1.247 . S
C49 O55 1.208 . S
C50 O42 1.315 . S
C50 O45 1.279 . S
C51 O52 1.315 . S
C51 O53 1.279 . S
O52 Cd44 2.223 . S
O52 C51 1.315 . S
O53 Cd43 2.240 . S
O53 C51 1.279 . S
O54 Cd44 2.297 . S
O54 C49 1.247 . S
O55 Cd44 2.439 . S
O55 C49 1.208 . S
O56 Cd57 2.223 . S
O56 C64 1.315 . S
Cd57 O56 2.223 . S
Cd57 O60 2.297 1_455 S
Cd57 O61 2.439 1_455 S
Cd57 O67 2.240 . S
Cd58 O59 2.240 . S
Cd58 O66 2.223 . S
Cd58 O68 2.297 . S
Cd58 O69 2.439 . S
O59 Cd58 2.240 . S
O59 C64 1.279 . S
O60 Cd57 2.297 1_655 S
O60 C62 1.247 . S
O61 Cd57 2.439 1_655 S
O61 C62 1.208 . S
C62 O60 1.247 . S
C62 O61 1.208 . S
C63 O68 1.247 . S
C63 O69 1.208 . S
C64 O56 1.315 . S
C64 O59 1.279 . S
C65 O66 1.315 . S
C65 O67 1.279 . S
O66 Cd58 2.223 . S
O66 C65 1.315 . S
O67 Cd57 2.240 . S
O67 C65 1.279 . S
O68 Cd58 2.297 . S
O68 C63 1.247 . S
O69 Cd58 2.439 . S
O69 C63 1.208 . S
O70 Cd71 2.223 . S
O70 C78 1.315 . S
Cd71 O70 2.223 . S
Cd71 O74 2.297 . S
Cd71 O75 2.439 . S
Cd71 O81 2.240 . S
Cd72 O73 2.240 . S
Cd72 O80 2.223 . S
Cd72 O82 2.297 . S
Cd72 O83 2.439 . S
O73 Cd72 2.240 . S
O73 C78 1.279 . S
O74 Cd71 2.297 . S
O74 C76 1.247 . S
O75 Cd71 2.439 . S
O75 C76 1.208 . S
C76 O74 1.247 . S
C76 O75 1.208 . S
C77 O82 1.247 . S
C77 O83 1.208 . S
C78 O70 1.315 . S
C78 O73 1.279 . S
C79 O80 1.315 . S
C79 O81 1.279 . S
O80 Cd72 2.223 . S
O80 C79 1.315 . S
O81 Cd71 2.240 . S
O81 C79 1.279 . S
O82 Cd72 2.297 . S
O82 C77 1.247 . S
O83 Cd72 2.439 . S
O83 C77 1.208 . S
O84 Cd85 2.223 . S
O84 C92 1.315 . S
Cd85 O84 2.223 . S
Cd85 O88 2.297 . S
Cd85 O89 2.439 . S
Cd85 O95 2.240 . S
Cd86 O87 2.240 . S
Cd86 O94 2.223 . S
Cd86 O96 2.297 . S
Cd86 O97 2.439 . S
O87 Cd86 2.240 . S
O87 C92 1.279 . S
O88 Cd85 2.297 . S
O88 C90 1.247 . S
O89 Cd85 2.439 . S
O89 C90 1.208 . S
C90 O88 1.247 . S
C90 O89 1.208 . S
C91 O96 1.247 . S
C91 O97 1.208 . S
C92 O84 1.315 . S
C92 O87 1.279 . S
C93 O94 1.315 . S
C93 O95 1.279 . S
O94 Cd86 2.223 . S
O94 C93 1.315 . S
O95 Cd85 2.240 . S
O95 C93 1.279 . S
O96 Cd86 2.297 . S
O96 C91 1.247 . S
O97 Cd86 2.439 . S
O97 C91 1.208 . S
O98 Cd99 2.223 1_655 S
O98 C106 1.315 . S
Cd99 O98 2.223 1_455 S
Cd99 O102 2.297 . S
Cd99 O103 2.439 . S
Cd99 O109 2.240 1_455 S
Cd100 O101 2.240 1_655 S
Cd100 O108 2.223 . S
Cd100 O110 2.297 . S
Cd100 O111 2.439 1_655 S
O101 Cd100 2.240 1_455 S
O101 C106 1.279 1_455 S
O102 Cd99 2.297 . S
O102 C104 1.247 . S
O103 Cd99 2.439 . S
O103 C104 1.208 . S
C104 O102 1.247 . S
C104 O103 1.208 . S
C105 O110 1.247 1_455 S
C105 O111 1.208 . S
C106 O98 1.315 . S
C106 O101 1.279 1_655 S
C107 O108 1.315 . S
C107 O109 1.279 . S
O108 Cd100 2.223 . S
O108 C107 1.315 . S
O109 Cd99 2.240 1_655 S
O109 C107 1.279 . S
O110 Cd100 2.297 . S
O110 C105 1.247 1_655 S
O111 Cd100 2.439 1_455 S
O111 C105 1.208 . S
O112 Cd113 2.223 . S
O112 C120 1.315 . S
Cd113 O112 2.223 . S
Cd113 O116 2.297 . S
Cd113 O117 2.439 . S
Cd113 O123 2.240 . S
Cd114 O115 2.240 . S
Cd114 O122 2.223 1_545 S
Cd114 O124 2.297 . S
Cd114 O125 2.439 . S
O115 Cd114 2.240 . S
O115 C120 1.279 . S
O116 Cd113 2.297 . S
O116 C118 1.247 . S
O117 Cd113 2.439 . S
O117 C118 1.208 . S
C118 O116 1.247 . S
C118 O117 1.208 . S
C119 O124 1.247 . S
C119 O125 1.208 . S
C120 O112 1.315 . S
C120 O115 1.279 . S
C121 O122 1.315 . S
C121 O123 1.279 1_565 S
O122 Cd114 2.223 1_565 S
O122 C121 1.315 . S
O123 Cd113 2.240 . S
O123 C121 1.279 1_545 S
O124 Cd114 2.297 . S
O124 C119 1.247 . S
O125 Cd114 2.439 . S
O125 C119 1.208 . S
O126 Cd127 2.223 . S
O126 C134 1.315 . S
Cd127 O126 2.223 . S
Cd127 O130 2.297 . S
Cd127 O131 2.439 . S
Cd127 O137 2.240 . S
Cd128 O129 2.240 . S
Cd128 O136 2.223 . S
Cd128 O138 2.297 . S
Cd128 O139 2.439 . S
O129 Cd128 2.240 . S
O129 C134 1.279 . S
O130 Cd127 2.297 . S
O130 C132 1.247 . S
O131 Cd127 2.439 . S
O131 C132 1.208 . S
C132 O130 1.247 . S
C132 O131 1.208 . S
C133 O138 1.247 . S
C133 O139 1.208 . S
C134 O126 1.315 . S
C134 O129 1.279 . S
C135 O136 1.315 . S
C135 O137 1.279 . S
O136 Cd128 2.223 . S
O136 C135 1.315 . S
O137 Cd127 2.240 . S
O137 C135 1.279 . S
O138 Cd128 2.297 . S
O138 C133 1.247 . S
O139 Cd128 2.439 . S
O139 C133 1.208 . S
O140 Cd141 2.223 1_545 S
O140 C148 1.315 1_545 S
Cd141 O140 2.223 1_565 S
Cd141 O144 2.297 . S
Cd141 O145 2.439 . S
Cd141 O151 2.240 1_565 S
Cd142 O143 2.240 1_545 S
Cd142 O150 2.223 . S
Cd142 O152 2.297 . S
Cd142 O153 2.439 1_545 S
O143 Cd142 2.240 1_565 S
O143 C148 1.279 . S
O144 Cd141 2.297 . S
O144 C146 1.247 . S
O145 Cd141 2.439 . S
O145 C146 1.208 . S
C146 O144 1.247 . S
C146 O145 1.208 . S
C147 O152 1.247 . S
C147 O153 1.208 1_545 S
C148 O140 1.315 1_565 S
C148 O143 1.279 . S
C149 O150 1.315 . S
C149 O151 1.279 . S
O150 Cd142 2.223 . S
O150 C149 1.315 . S
O151 Cd141 2.240 1_545 S
O151 C149 1.279 . S
O152 Cd142 2.297 . S
O152 C147 1.247 . S
O153 Cd142 2.439 1_565 S
O153 C147 1.208 1_565 S
O154 Cd155 2.223 . S
O154 C162 1.315 . S
Cd155 O154 2.223 . S
Cd155 O158 2.297 . S
Cd155 O159 2.439 . S
Cd155 O165 2.240 . S
Cd156 O157 2.240 . S
Cd156 O164 2.223 . S
Cd156 O166 2.297 1_554 S
Cd156 O167 2.439 1_554 S
O157 Cd156 2.240 . S
O157 C162 1.279 . S
O158 Cd155 2.297 . S
O158 C160 1.247 . S
O159 Cd155 2.439 . S
O159 C160 1.208 . S
C160 O158 1.247 . S
C160 O159 1.208 . S
C161 O166 1.247 . S
C161 O167 1.208 . S
C162 O154 1.315 . S
C162 O157 1.279 . S
C163 O164 1.315 . S
C163 O165 1.279 . S
O164 Cd156 2.223 . S
O164 C163 1.315 . S
O165 Cd155 2.240 . S
O165 C163 1.279 . S
O166 Cd156 2.297 1_556 S
O166 C161 1.247 . S
O167 Cd156 2.439 1_556 S
O167 C161 1.208 . S
O168 Cd169 2.223 . S
O168 C176 1.315 . S
Cd169 O168 2.223 . S
Cd169 O172 2.297 . S
Cd169 O173 2.439 . S
Cd169 O179 2.240 . S
Cd170 O171 2.240 . S
Cd170 O178 2.223 . S
Cd170 O180 2.297 1_554 S
Cd170 O181 2.439 1_554 S
O171 Cd170 2.240 . S
O171 C176 1.279 . S
O172 Cd169 2.297 . S
O172 C174 1.247 . S
O173 Cd169 2.439 . S
O173 C174 1.208 . S
C174 O172 1.247 . S
C174 O173 1.208 . S
C175 O180 1.247 . S
C175 O181 1.208 . S
C176 O168 1.315 . S
C176 O171 1.279 . S
C177 O178 1.315 . S
C177 O179 1.279 . S
O178 Cd170 2.223 . S
O178 C177 1.315 . S
O179 Cd169 2.240 . S
O179 C177 1.279 . S
O180 Cd170 2.297 1_556 S
O180 C175 1.247 . S
O181 Cd170 2.439 1_556 S
O181 C175 1.208 . S
O182 Cd183 2.223 . S
O182 C190 1.315 . S
Cd183 O182 2.223 . S
Cd183 O186 2.297 . S
Cd183 O187 2.439 1_554 S
Cd183 O193 2.240 1_554 S
Cd184 O185 2.240 1_556 S
Cd184 O192 2.223 1_556 S
Cd184 O194 2.297 . S
Cd184 O195 2.439 . S
O185 Cd184 2.240 1_554 S
O185 C190 1.279 . S
O186 Cd183 2.297 . S
O186 C188 1.247 . S
O187 Cd183 2.439 1_556 S
O187 C188 1.208 1_556 S
C188 O186 1.247 . S
C188 O187 1.208 1_554 S
C189 O194 1.247 . S
C189 O195 1.208 . S
C190 O182 1.315 . S
C190 O185 1.279 . S
C191 O192 1.315 . S
C191 O193 1.281 1_554 S
O192 Cd184 2.223 1_554 S
O192 C191 1.315 . S
O193 Cd183 2.240 1_556 S
O193 C191 1.281 1_556 S
O194 Cd184 2.297 . S
O194 C189 1.247 . S
O195 Cd184 2.439 . S
O195 C189 1.208 . S
O196 Cd197 2.223 . S
O196 C204 1.315 . S
Cd197 O196 2.223 . S
Cd197 O200 2.297 . S
Cd197 O201 2.439 . S
Cd197 O207 2.240 . S
Cd198 O199 2.240 . S
Cd198 O206 2.223 . S
Cd198 O208 2.297 . S
Cd198 O209 2.439 . S
O199 Cd198 2.240 . S
O199 C204 1.279 . S
O200 Cd197 2.297 . S
O200 C202 1.247 . S
O201 Cd197 2.439 . S
O201 C202 1.208 . S
C202 O200 1.247 . S
C202 O201 1.208 . S
C203 O208 1.247 . S
C203 O209 1.208 . S
C204 O196 1.315 . S
C204 O199 1.279 . S
C205 O206 1.315 . S
C205 O207 1.279 . S
O206 Cd198 2.223 . S
O206 C205 1.315 . S
O207 Cd197 2.240 . S
O207 C205 1.279 . S
O208 Cd198 2.297 . S
O208 C203 1.247 . S
O209 Cd198 2.439 . S
O209 C203 1.208 . S
O210 Cd211 2.223 . S
O210 C218 1.315 . S
Cd211 O210 2.223 . S
Cd211 O214 2.297 . S
Cd211 O215 2.439 . S
Cd211 O221 2.240 . S
Cd212 O213 2.240 . S
Cd212 O220 2.223 . S
Cd212 O222 2.297 . S
Cd212 O223 2.439 . S
O213 Cd212 2.240 . S
O213 C218 1.279 . S
O214 Cd211 2.297 . S
O214 C216 1.247 . S
O215 Cd211 2.439 . S
O215 C216 1.208 . S
C216 O214 1.247 . S
C216 O215 1.208 . S
C217 O222 1.247 . S
C217 O223 1.208 . S
C218 O210 1.315 . S
C218 O213 1.279 . S
C219 O220 1.315 . S
C219 O221 1.279 . S
O220 Cd212 2.223 . S
O220 C219 1.315 . S
O221 Cd211 2.240 . S
O221 C219 1.279 . S
O222 Cd212 2.297 . S
O222 C217 1.247 . S
O223 Cd212 2.439 . S
O223 C217 1.208 . S
O224 Cd225 2.223 . S
O224 C232 1.315 . S
Cd225 O224 2.223 . S
Cd225 O228 2.297 . S
Cd225 O229 2.439 . S
Cd225 O235 2.240 . S
Cd226 O227 2.240 . S
Cd226 O234 2.223 . S
Cd226 O236 2.297 . S
Cd226 O237 2.439 . S
O227 Cd226 2.240 . S
O227 C232 1.279 . S
O228 Cd225 2.297 . S
O228 C230 1.247 . S
O229 Cd225 2.439 . S
O229 C230 1.208 . S
C230 O228 1.247 . S
C230 O229 1.208 . S
C231 O236 1.247 . S
C231 O237 1.208 . S
C232 O224 1.315 . S
C232 O227 1.279 . S
C233 O234 1.305 . S
C233 O235 1.321 . S
O234 Cd226 2.223 . S
O234 C233 1.305 . S
O235 Cd225 2.240 . S
O235 C233 1.321 . S
O236 Cd226 2.297 . S
O236 C231 1.247 . S
O237 Cd226 2.439 . S
O237 C231 1.208 . S
O238 Cd239 2.223 . S
O238 C246 1.315 . S
Cd239 O238 2.223 . S
Cd239 O242 2.297 . S
Cd239 O243 2.439 . S
Cd239 O249 2.240 . S
Cd240 O241 2.240 . S
Cd240 O248 2.223 . S
Cd240 O250 2.297 . S
Cd240 O251 2.439 . S
O241 Cd240 2.240 . S
O241 C246 1.279 . S
O242 Cd239 2.297 . S
O242 C244 1.247 . S
O243 Cd239 2.439 . S
O243 C244 1.208 . S
C244 O242 1.247 . S
C244 O243 1.208 . S
C245 O250 1.247 . S
C245 O251 1.208 . S
C246 O238 1.315 . S
C246 O241 1.279 . S
C247 O248 1.315 . S
C247 O249 1.279 . S
O248 Cd240 2.223 . S
O248 C247 1.315 . S
O249 Cd239 2.240 . S
O249 C247 1.279 . S
O250 Cd240 2.297 . S
O250 C245 1.247 . S
O251 Cd240 2.439 . S
O251 C245 1.208 . S
O252 Cd253 2.223 . S
O252 C260 1.315 . S
Cd253 O252 2.223 . S
Cd253 O256 2.297 . S
Cd253 O257 2.439 . S
Cd253 O263 2.240 . S
Cd254 O255 2.240 . S
Cd254 O262 2.223 . S
Cd254 O264 2.297 . S
Cd254 O265 2.439 . S
O255 Cd254 2.240 . S
O255 C260 1.279 . S
O256 Cd253 2.297 . S
O256 C258 1.247 . S
O257 Cd253 2.439 . S
O257 C258 1.208 . S
C258 O256 1.247 . S
C258 O257 1.208 . S
C259 O264 1.247 . S
C259 O265 1.208 . S
C260 O252 1.315 . S
C260 O255 1.279 . S
C261 O262 1.315 . S
C261 O263 1.279 . S
O262 Cd254 2.223 . S
O262 C261 1.315 . S
O263 Cd253 2.240 . S
O263 C261 1.279 . S
O264 Cd254 2.297 . S
O264 C259 1.247 . S
O265 Cd254 2.439 . S
O265 C259 1.208 . S
O266 Cd267 2.223 . S
O266 C274 1.315 . S
Cd267 O266 2.223 . S
Cd267 O270 2.297 1_545 S
Cd267 O271 2.439 1_545 S
Cd267 O277 2.240 . S
Cd268 O269 2.240 . S
Cd268 O276 2.223 . S
Cd268 O278 2.297 . S
Cd268 O279 2.439 . S
O269 Cd268 2.240 . S
O269 C274 1.279 . S
O270 Cd267 2.297 1_565 S
O270 C272 1.247 . S
O271 Cd267 2.439 1_565 S
O271 C272 1.208 . S
C272 O270 1.247 . S
C272 O271 1.208 . S
C273 O278 1.247 . S
C273 O279 1.208 . S
C274 O266 1.315 . S
C274 O269 1.279 . S
C275 O276 1.315 . S
C275 O277 1.279 . S
O276 Cd268 2.223 . S
O276 C275 1.315 . S
O277 Cd267 2.240 . S
O277 C275 1.279 . S
O278 Cd268 2.297 . S
O278 C273 1.247 . S
O279 Cd268 2.439 . S
O279 C273 1.208 . S
O280 Cd281 2.223 . S
O280 C288 1.315 . S
Cd281 O280 2.223 . S
Cd281 O284 2.297 . S
Cd281 O285 2.439 . S
Cd281 O291 2.240 . S
Cd282 O283 2.240 . S
Cd282 O290 2.223 . S
Cd282 O292 2.297 1_554 S
Cd282 O293 2.439 1_554 S
O283 Cd282 2.240 . S
O283 C288 1.279 . S
O284 Cd281 2.297 . S
O284 C286 1.247 . S
O285 Cd281 2.439 . S
O285 C286 1.208 . S
C286 O284 1.247 . S
C286 O285 1.208 . S
C287 O292 1.247 . S
C287 O293 1.208 . S
C288 O280 1.315 . S
C288 O283 1.279 . S
C289 O290 1.315 . S
C289 O291 1.279 . S
O290 Cd282 2.223 . S
O290 C289 1.315 . S
O291 Cd281 2.240 . S
O291 C289 1.279 . S
O292 Cd282 2.297 1_556 S
O292 C287 1.247 . S
O293 Cd282 2.439 1_556 S
O293 C287 1.208 . S
O294 Cd295 2.223 . S
O294 C302 1.315 . S
Cd295 O294 2.223 . S
Cd295 O298 2.297 . S
Cd295 O299 2.439 . S
Cd295 O305 2.240 . S
Cd296 O297 2.240 . S
Cd296 O304 2.223 . S
Cd296 O306 2.297 . S
Cd296 O307 2.439 . S
O297 Cd296 2.240 . S
O297 C302 1.279 . S
O298 Cd295 2.297 . S
O298 C300 1.247 . S
O299 Cd295 2.439 . S
O299 C300 1.208 . S
C300 O298 1.247 . S
C300 O299 1.208 . S
C301 O306 1.247 . S
C301 O307 1.208 . S
C302 O294 1.315 . S
C302 O297 1.279 . S
C303 O304 1.315 . S
C303 O305 1.279 . S
O304 Cd296 2.223 . S
O304 C303 1.315 . S
O305 Cd295 2.240 . S
O305 C303 1.279 . S
O306 Cd296 2.297 . S
O306 C301 1.247 . S
O307 Cd296 2.439 . S
O307 C301 1.208 . S
O308 Cd309 2.223 . S
O308 C316 1.315 . S
Cd309 O308 2.223 . S
Cd309 O312 2.297 . S
Cd309 O313 2.439 . S
Cd309 O319 2.240 . S
Cd310 O311 2.240 . S
Cd310 O318 2.223 . S
Cd310 O320 2.297 . S
Cd310 O321 2.439 . S
O311 Cd310 2.240 . S
O311 C316 1.279 . S
O312 Cd309 2.297 . S
O312 C314 1.247 . S
O313 Cd309 2.439 . S
O313 C314 1.208 . S
C314 O312 1.247 . S
C314 O313 1.208 . S
C315 O320 1.247 . S
C315 O321 1.208 . S
C316 O308 1.315 . S
C316 O311 1.279 . S
C317 O318 1.315 . S
C317 O319 1.279 . S
O318 Cd310 2.223 . S
O318 C317 1.315 . S
O319 Cd309 2.240 . S
O319 C317 1.279 . S
O320 Cd310 2.297 . S
O320 C315 1.247 . S
O321 Cd310 2.439 . S
O321 C315 1.208 . S
O322 Cd323 2.223 . S
O322 C330 1.315 . S
Cd323 O322 2.223 . S
Cd323 O326 2.297 . S
Cd323 O327 2.439 . S
Cd323 O333 2.240 . S
Cd324 O325 2.240 . S
Cd324 O332 2.223 . S
Cd324 O334 2.297 . S
Cd324 O335 2.439 . S
O325 Cd324 2.240 . S
O325 C330 1.279 . S
O326 Cd323 2.297 . S
O326 C328 1.247 . S
O327 Cd323 2.439 . S
O327 C328 1.208 . S
C328 O326 1.247 . S
C328 O327 1.208 . S
C329 O334 1.247 . S
C329 O335 1.208 . S
C330 O322 1.315 . S
C330 O325 1.279 . S
C331 O332 1.315 . S
C331 O333 1.279 . S
O332 Cd324 2.223 . S
O332 C331 1.315 . S
O333 Cd323 2.240 . S
O333 C331 1.279 . S
O334 Cd324 2.297 . S
O334 C329 1.247 . S
O335 Cd324 2.439 . S
O335 C329 1.208 . S
Dy336 O340 2.398 1_554 S
Dy336 O341 2.491 . S
Dy336 O342 2.403 1_554 S
Dy336 O343 2.664 1_654 S
Dy336 O347 2.319 1_654 S
Dy336 O351 2.310 1_655 S
Dy336 O352 2.351 1_545 S
C337 O348 1.185 . S
C337 O349 1.355 . S
C338 O340 1.185 . S
C338 O341 1.355 1_556 S
Dy339 O343 2.310 1_554 S
Dy339 O346 2.351 . S
Dy339 O348 2.398 . S
Dy339 O349 2.491 . S
Dy339 O350 2.403 . S
Dy339 O351 2.664 . S
Dy339 O353 2.326 . S
O340 Dy336 2.398 1_556 S
O340 C338 1.185 . S
O341 Dy336 2.491 . S
O341 C338 1.355 1_554 S
O342 Dy336 2.403 1_556 S
O342 C344 1.254 1_655 S
O343 Dy336 2.664 1_456 S
O343 Dy339 2.310 1_556 S
O343 C344 1.268 . S
C344 O342 1.254 1_455 S
C344 O343 1.268 . S
C345 O350 1.254 . S
C345 O351 1.268 . S
O346 Dy339 2.351 . S
O346 C354 1.249 . S
O347 Dy336 2.319 1_456 S
O347 C354 1.284 1_556 S
O348 C337 1.185 . S
O348 Dy339 2.398 . S
O349 C337 1.355 . S
O349 Dy339 2.491 . S
O350 Dy339 2.403 . S
O350 C345 1.254 . S
O351 Dy336 2.310 1_455 S
O351 Dy339 2.664 . S
O351 C345 1.268 . S
O352 Dy336 2.351 1_565 S
O352 C355 1.249 1_655 S
O353 Dy339 2.326 . S
O353 C355 1.267 1_545 S
C354 O346 1.249 . S
C354 O347 1.284 1_554 S
C355 O352 1.249 1_455 S
C355 O353 1.267 1_565 S
Dy356 O360 2.398 . S
Dy356 O361 2.491 . S
Dy356 O362 2.403 . S
Dy356 O363 2.664 . S
Dy356 O367 2.326 . S
Dy356 O371 2.310 . S
Dy356 O372 2.351 . S
C357 O368 1.185 . S
C357 O369 1.355 . S
C358 O360 1.185 . S
C358 O361 1.355 . S
Dy359 O363 2.310 . S
Dy359 O366 2.351 . S
Dy359 O368 2.398 . S
Dy359 O369 2.491 . S
Dy359 O370 2.403 . S
Dy359 O371 2.664 . S
Dy359 O373 2.326 . S
O360 Dy356 2.398 . S
O360 C358 1.185 . S
O361 Dy356 2.491 . S
O361 C358 1.355 . S
O362 Dy356 2.403 . S
O362 C364 1.254 . S
O363 Dy356 2.664 . S
O363 Dy359 2.310 . S
O363 C364 1.268 . S
C364 O362 1.254 . S
C364 O363 1.268 . S
C365 O370 1.254 . S
C365 O371 1.268 . S
O366 Dy359 2.351 . S
O366 C374 1.249 . S
O367 Dy356 2.326 . S
O367 C374 1.267 . S
O368 C357 1.185 . S
O368 Dy359 2.398 . S
O369 C357 1.355 . S
O369 Dy359 2.491 . S
O370 Dy359 2.403 . S
O370 C365 1.254 . S
O371 Dy356 2.310 . S
O371 Dy359 2.664 . S
O371 C365 1.268 . S
O372 Dy356 2.351 . S
O372 C375 1.249 . S
O373 Dy359 2.326 . S
O373 C375 1.267 . S
C374 O366 1.249 . S
C374 O367 1.267 . S
C375 O372 1.249 . S
C375 O373 1.267 . S
Dy376 O380 2.398 . S
Dy376 O381 2.491 . S
Dy376 O382 2.403 . S
Dy376 O383 2.664 . S
Dy376 O387 2.326 1_545 S
Dy376 O391 2.310 . S
Dy376 O392 2.351 . S
C377 O388 1.185 . S
C377 O389 1.355 . S
C378 O380 1.185 . S
C378 O381 1.355 . S
Dy379 O383 2.310 . S
Dy379 O386 2.351 1_545 S
Dy379 O388 2.398 . S
Dy379 O389 2.491 . S
Dy379 O390 2.403 . S
Dy379 O391 2.664 . S
Dy379 O393 2.326 . S
O380 Dy376 2.398 . S
O380 C378 1.185 . S
O381 Dy376 2.491 . S
O381 C378 1.355 . S
O382 Dy376 2.403 . S
O382 C384 1.254 . S
O383 Dy376 2.664 . S
O383 Dy379 2.310 . S
O383 C384 1.268 . S
C384 O382 1.254 . S
C384 O383 1.268 . S
C385 O390 1.254 . S
C385 O391 1.268 . S
O386 Dy379 2.351 1_565 S
O386 C394 1.249 . S
O387 Dy376 2.326 1_565 S
O387 C394 1.267 . S
O388 C377 1.185 . S
O388 Dy379 2.398 . S
O389 C377 1.355 . S
O389 Dy379 2.491 . S
O390 Dy379 2.403 . S
O390 C385 1.254 . S
O391 Dy376 2.310 . S
O391 Dy379 2.664 . S
O391 C385 1.268 . S
O392 Dy376 2.351 . S
O392 C395 1.249 . S
O393 Dy379 2.326 . S
O393 C395 1.267 . S
C394 O386 1.249 . S
C394 O387 1.267 . S
C395 O392 1.249 . S
C395 O393 1.267 . S
Dy396 O400 2.398 . S
Dy396 O401 2.491 . S
Dy396 O402 2.403 . S
Dy396 O403 2.664 . S
Dy396 O407 2.326 . S
Dy396 O411 2.310 . S
Dy396 O412 2.351 . S
C397 O408 1.185 . S
C397 O409 1.355 . S
C398 O400 1.185 . S
C398 O401 1.355 . S
Dy399 O403 2.310 . S
Dy399 O406 2.351 . S
Dy399 O408 2.398 . S
Dy399 O409 2.491 . S
Dy399 O410 2.403 . S
Dy399 O411 2.664 . S
Dy399 O413 2.326 . S
O400 Dy396 2.398 . S
O400 C398 1.185 . S
O401 Dy396 2.491 . S
O401 C398 1.355 . S
O402 Dy396 2.403 . S
O402 C404 1.254 . S
O403 Dy396 2.664 . S
O403 Dy399 2.310 . S
O403 C404 1.268 . S
C404 O402 1.254 . S
C404 O403 1.268 . S
C405 O410 1.254 . S
C405 O411 1.268 . S
O406 Dy399 2.351 . S
O406 C414 1.249 . S
O407 Dy396 2.326 . S
O407 C414 1.267 . S
O408 C397 1.185 . S
O408 Dy399 2.398 . S
O409 C397 1.355 . S
O409 Dy399 2.491 . S
O410 Dy399 2.403 . S
O410 C405 1.254 . S
O411 Dy396 2.310 . S
O411 Dy399 2.664 . S
O411 C405 1.268 . S
O412 Dy396 2.351 . S
O412 C415 1.249 . S
O413 Dy399 2.326 . S
O413 C415 1.267 . S
C414 O406 1.249 . S
C414 O407 1.267 . S
C415 O412 1.249 . S
C415 O413 1.267 . S
Dy416 O420 2.398 . S
Dy416 O421 2.491 1_455 S
Dy416 O422 2.403 . S
Dy416 O423 2.664 . S
Dy416 O427 2.326 . S
Dy416 O431 2.310 1_455 S
Dy416 O432 2.351 1_545 S
C417 O428 1.185 . S
C417 O429 1.355 . S
C418 O420 1.185 . S
C418 O421 1.355 1_455 S
Dy419 O423 2.310 . S
Dy419 O426 2.351 . S
Dy419 O428 2.398 . S
Dy419 O429 2.491 . S
Dy419 O430 2.403 1_455 S
Dy419 O431 2.664 1_455 S
Dy419 O433 2.326 . S
O420 Dy416 2.398 . S
O420 C418 1.185 . S
O421 Dy416 2.491 1_655 S
O421 C418 1.355 1_655 S
O422 Dy416 2.403 . S
O422 C424 1.254 . S
O423 Dy416 2.664 . S
O423 Dy419 2.310 . S
O423 C424 1.268 . S
C424 O422 1.254 . S
C424 O423 1.268 . S
C425 O430 1.254 . S
C425 O431 1.268 . S
O426 Dy419 2.351 . S
O426 C434 1.249 . S
O427 Dy416 2.326 . S
O427 C434 1.267 . S
O428 C417 1.185 . S
O428 Dy419 2.398 . S
O429 C417 1.355 . S
O429 Dy419 2.491 . S
O430 Dy419 2.403 1_655 S
O430 C425 1.254 . S
O431 Dy416 2.310 1_655 S
O431 Dy419 2.664 1_655 S
O431 C425 1.268 . S
O432 Dy416 2.351 1_565 S
O432 C435 1.249 . S
O433 Dy419 2.326 . S
O433 C435 1.267 1_545 S
C434 O426 1.249 . S
C434 O427 1.267 . S
C435 O432 1.249 . S
C435 O433 1.267 1_565 S
Dy436 O440 2.398 . S
Dy436 O441 2.491 . S
Dy436 O442 2.403 . S
Dy436 O443 2.664 . S
Dy436 O447 2.326 . S
Dy436 O451 2.310 . S
Dy436 O452 2.351 . S
C437 O448 1.185 . S
C437 O449 1.355 . S
C438 O440 1.185 . S
C438 O441 1.355 . S
Dy439 O443 2.310 . S
Dy439 O446 2.351 . S
Dy439 O448 2.398 . S
Dy439 O449 2.491 . S
Dy439 O450 2.403 . S
Dy439 O451 2.664 . S
Dy439 O453 2.326 . S
O440 Dy436 2.398 . S
O440 C438 1.185 . S
O441 Dy436 2.491 . S
O441 C438 1.355 . S
O442 Dy436 2.403 . S
O442 C444 1.254 . S
O443 Dy436 2.664 . S
O443 Dy439 2.310 . S
O443 C444 1.268 . S
C444 O442 1.254 . S
C444 O443 1.268 . S
C445 O450 1.254 . S
C445 O451 1.268 . S
O446 Dy439 2.351 . S
O446 C454 1.249 . S
O447 Dy436 2.326 . S
O447 C454 1.267 . S
O448 C437 1.185 . S
O448 Dy439 2.398 . S
O449 C437 1.355 . S
O449 Dy439 2.491 . S
O450 Dy439 2.403 . S
O450 C445 1.254 . S
O451 Dy436 2.310 . S
O451 Dy439 2.664 . S
O451 C445 1.268 . S
O452 Dy436 2.351 . S
O452 C455 1.249 . S
O453 Dy439 2.326 . S
O453 C455 1.267 . S
C454 O446 1.249 . S
C454 O447 1.267 . S
C455 O452 1.249 . S
C455 O453 1.267 . S
Dy456 O460 2.398 1_545 S
Dy456 O461 2.491 . S
Dy456 O462 2.403 1_545 S
Dy456 O463 2.664 . S
Dy456 O467 2.326 . S
Dy456 O471 2.310 . S
Dy456 O472 2.351 . S
C457 O468 1.185 . S
C457 O469 1.355 . S
C458 O460 1.185 1_545 S
C458 O461 1.355 . S
Dy459 O463 2.310 1_556 S
Dy459 O466 2.351 1_556 S
Dy459 O468 2.398 . S
Dy459 O469 2.491 . S
Dy459 O470 2.403 1_556 S
Dy459 O471 2.664 1_556 S
Dy459 O473 2.326 1_556 S
O460 Dy456 2.398 1_565 S
O460 C458 1.185 1_565 S
O461 Dy456 2.491 . S
O461 C458 1.355 . S
O462 Dy456 2.403 1_565 S
O462 C464 1.254 . S
O463 Dy456 2.664 . S
O463 Dy459 2.310 1_554 S
O463 C464 1.268 1_545 S
C464 O462 1.254 . S
C464 O463 1.268 1_565 S
C465 O470 1.254 . S
C465 O471 1.268 . S
O466 Dy459 2.351 1_554 S
O466 C474 1.249 . S
O467 Dy456 2.326 . S
O467 C474 1.267 . S
O468 C457 1.185 . S
O468 Dy459 2.398 . S
O469 C457 1.355 . S
O469 Dy459 2.491 . S
O470 Dy459 2.403 1_554 S
O470 C465 1.254 . S
O471 Dy456 2.310 . S
O471 Dy459 2.664 1_554 S
O471 C465 1.268 . S
O472 Dy456 2.351 . S
O472 C475 1.249 . S
O473 Dy459 2.326 1_554 S
O473 C475 1.267 . S
C474 O466 1.249 . S
C474 O467 1.267 . S
C475 O472 1.249 . S
C475 O473 1.267 . S
Dy476 O480 2.398 . S
Dy476 O481 2.491 . S
Dy476 O482 2.403 . S
Dy476 O483 2.664 . S
Dy476 O487 2.326 . S
Dy476 O491 2.310 . S
Dy476 O492 2.351 . S
C477 O488 1.185 . S
C477 O489 1.355 . S
C478 O480 1.185 . S
C478 O481 1.355 . S
Dy479 O483 2.310 . S
Dy479 O486 2.351 . S
Dy479 O488 2.398 . S
Dy479 O489 2.491 . S
Dy479 O490 2.403 . S
Dy479 O491 2.664 . S
Dy479 O493 2.326 . S
O480 Dy476 2.398 . S
O480 C478 1.185 . S
O481 Dy476 2.491 . S
O481 C478 1.355 . S
O482 Dy476 2.403 . S
O482 C484 1.254 . S
O483 Dy476 2.664 . S
O483 Dy479 2.310 . S
O483 C484 1.268 . S
C484 O482 1.254 . S
C484 O483 1.268 . S
C485 O490 1.254 . S
C485 O491 1.268 . S
O486 Dy479 2.351 . S
O486 C494 1.249 . S
O487 Dy476 2.326 . S
O487 C494 1.267 . S
O488 C477 1.185 . S
O488 Dy479 2.398 . S
O489 C477 1.355 . S
O489 Dy479 2.491 . S
O490 Dy479 2.403 . S
O490 C485 1.254 . S
O491 Dy476 2.310 . S
O491 Dy479 2.664 . S
O491 C485 1.268 . S
O492 Dy476 2.351 . S
O492 C495 1.249 . S
O493 Dy479 2.326 . S
O493 C495 1.267 . S
C494 O486 1.249 . S
C494 O487 1.267 . S
C495 O492 1.249 . S
C495 O493 1.267 . S
Dy496 O500 2.398 . S
Dy496 O501 2.491 . S
Dy496 O502 2.403 . S
Dy496 O503 2.664 1_556 S
Dy496 O507 2.326 . S
Dy496 O511 2.310 1_556 S
Dy496 O512 2.351 1_556 S
C497 O508 1.185 . S
C497 O509 1.355 . S
C498 O500 1.185 . S
C498 O501 1.355 . S
Dy499 O503 2.310 . S
Dy499 O506 2.351 . S
Dy499 O508 2.398 . S
Dy499 O509 2.491 . S
Dy499 O510 2.403 . S
Dy499 O511 2.664 . S
Dy499 O513 2.326 . S
O500 Dy496 2.398 . S
O500 C498 1.185 . S
O501 Dy496 2.491 . S
O501 C498 1.355 . S
O502 Dy496 2.403 . S
O502 C504 1.254 1_556 S
O503 Dy496 2.664 1_554 S
O503 Dy499 2.310 . S
O503 C504 1.268 . S
C504 O502 1.254 1_554 S
C504 O503 1.268 . S
C505 O510 1.254 . S
C505 O511 1.268 . S
O506 Dy499 2.351 . S
O506 C514 1.249 . S
O507 Dy496 2.326 . S
O507 C514 1.267 1_556 S
O508 C497 1.185 . S
O508 Dy499 2.398 . S
O509 C497 1.355 . S
O509 Dy499 2.491 . S
O510 Dy499 2.403 . S
O510 C505 1.254 . S
O511 Dy496 2.310 1_554 S
O511 Dy499 2.664 . S
O511 C505 1.268 . S
O512 Dy496 2.351 1_554 S
O512 C515 1.249 . S
O513 Dy499 2.326 . S
O513 C515 1.267 . S
C514 O506 1.249 . S
C514 O507 1.267 1_554 S
C515 O512 1.249 . S
C515 O513 1.267 . S
Dy516 O520 2.398 . S
Dy516 O521 2.491 . S
Dy516 O522 2.403 . S
Dy516 O523 2.664 . S
Dy516 O527 2.326 . S
Dy516 O531 2.310 . S
Dy516 O532 2.351 . S
C517 O528 1.185 . S
C517 O529 1.355 . S
C518 O520 1.185 . S
C518 O521 1.355 . S
Dy519 O523 2.310 . S
Dy519 O526 2.351 . S
Dy519 O528 2.398 . S
Dy519 O529 2.491 . S
Dy519 O530 2.403 . S
Dy519 O531 2.664 . S
Dy519 O533 2.326 . S
O520 Dy516 2.398 . S
O520 C518 1.185 . S
O521 Dy516 2.491 . S
O521 C518 1.355 . S
O522 Dy516 2.403 . S
O522 C524 1.254 . S
O523 Dy516 2.664 . S
O523 Dy519 2.310 . S
O523 C524 1.268 . S
C524 O522 1.254 . S
C524 O523 1.268 . S
C525 O530 1.254 . S
C525 O531 1.268 . S
O526 Dy519 2.351 . S
O526 C534 1.249 . S
O527 Dy516 2.326 . S
O527 C534 1.267 . S
O528 C517 1.185 . S
O528 Dy519 2.398 . S
O529 C517 1.355 . S
O529 Dy519 2.491 . S
O530 Dy519 2.403 . S
O530 C525 1.254 . S
O531 Dy516 2.310 . S
O531 Dy519 2.664 . S
O531 C525 1.268 . S
O532 Dy516 2.351 . S
O532 C535 1.249 . S
O533 Dy519 2.326 . S
O533 C535 1.267 . S
C534 O526 1.249 . S
C534 O527 1.267 . S
C535 O532 1.249 . S
C535 O533 1.267 . S
Dy536 O540 2.398 1_455 S
Dy536 O541 2.491 1_455 S
Dy536 O542 2.403 . S
Dy536 O543 2.664 . S
Dy536 O547 2.326 1_455 S
Dy536 O551 2.310 . S
Dy536 O552 2.351 . S
C537 O548 1.185 . S
C537 O549 1.355 . S
C538 O540 1.185 . S
C538 O541 1.355 . S
Dy539 O543 2.310 . S
Dy539 O546 2.351 1_455 S
Dy539 O548 2.398 . S
Dy539 O549 2.491 . S
Dy539 O550 2.403 . S
Dy539 O551 2.664 . S
Dy539 O553 2.326 . S
O540 Dy536 2.398 1_655 S
O540 C538 1.185 . S
O541 Dy536 2.491 1_655 S
O541 C538 1.355 . S
O542 Dy536 2.403 . S
O542 C544 1.254 . S
O543 Dy536 2.664 . S
O543 Dy539 2.310 . S
O543 C544 1.268 . S
C544 O542 1.254 . S
C544 O543 1.268 . S
C545 O550 1.254 . S
C545 O551 1.268 . S
O546 Dy539 2.351 1_655 S
O546 C554 1.249 . S
O547 Dy536 2.326 1_655 S
O547 C554 1.267 . S
O548 C537 1.185 . S
O548 Dy539 2.398 . S
O549 C537 1.355 . S
O549 Dy539 2.491 . S
O550 Dy539 2.403 . S
O550 C545 1.254 . S
O551 Dy536 2.310 . S
O551 Dy539 2.664 . S
O551 C545 1.268 . S
O552 Dy536 2.351 . S
O552 C555 1.249 . S
O553 Dy539 2.326 . S
O553 C555 1.267 . S
C554 O546 1.249 . S
C554 O547 1.267 . S
C555 O552 1.249 . S
C555 O553 1.267 . S
Dy556 O560 2.398 . S
Dy556 O561 2.491 . S
Dy556 O562 2.403 . S
Dy556 O563 2.664 . S
Dy556 O567 2.326 . S
Dy556 O571 2.310 . S
Dy556 O572 2.351 . S
C557 O568 1.185 . S
C557 O569 1.355 . S
C558 O560 1.185 . S
C558 O561 1.355 . S
Dy559 O563 2.310 . S
Dy559 O566 2.351 . S
Dy559 O568 2.398 . S
Dy559 O569 2.491 . S
Dy559 O570 2.403 . S
Dy559 O571 2.664 . S
Dy559 O573 2.326 . S
O560 Dy556 2.398 . S
O560 C558 1.185 . S
O561 Dy556 2.491 . S
O561 C558 1.355 . S
O562 Dy556 2.403 . S
O562 C564 1.254 . S
O563 Dy556 2.664 . S
O563 Dy559 2.310 . S
O563 C564 1.268 . S
C564 O562 1.254 . S
C564 O563 1.268 . S
C565 O570 1.254 . S
C565 O571 1.268 . S
O566 Dy559 2.351 . S
O566 C574 1.249 . S
O567 Dy556 2.326 . S
O567 C574 1.267 . S
O568 C557 1.185 . S
O568 Dy559 2.398 . S
O569 C557 1.355 . S
O569 Dy559 2.491 . S
O570 Dy559 2.403 . S
O570 C565 1.254 . S
O571 Dy556 2.310 . S
O571 Dy559 2.664 . S
O571 C565 1.268 . S
O572 Dy556 2.351 . S
O572 C575 1.249 . S
O573 Dy559 2.326 . S
O573 C575 1.267 . S
C574 O566 1.249 . S
C574 O567 1.267 . S
C575 O572 1.249 . S
C575 O573 1.267 . S
Dy576 O580 2.398 . S
Dy576 O581 2.491 . S
Dy576 O582 2.403 . S
Dy576 O583 2.664 . S
Dy576 O587 2.326 . S
Dy576 O591 2.310 . S
Dy576 O592 2.351 . S
C577 O588 1.185 . S
C577 O589 1.355 . S
C578 O580 1.185 . S
C578 O581 1.355 . S
Dy579 O583 2.310 . S
Dy579 O586 2.351 . S
Dy579 O588 2.398 . S
Dy579 O589 2.491 . S
Dy579 O590 2.403 . S
Dy579 O591 2.664 . S
Dy579 O593 2.326 . S
O580 Dy576 2.398 . S
O580 C578 1.185 . S
O581 Dy576 2.491 . S
O581 C578 1.355 . S
O582 Dy576 2.403 . S
O582 C584 1.254 . S
O583 Dy576 2.664 . S
O583 Dy579 2.310 . S
O583 C584 1.268 . S
C584 O582 1.254 . S
C584 O583 1.268 . S
C585 O590 1.254 . S
C585 O591 1.268 . S
O586 Dy579 2.351 . S
O586 C594 1.249 . S
O587 Dy576 2.326 . S
O587 C594 1.267 . S
O588 C577 1.185 . S
O588 Dy579 2.398 . S
O589 C577 1.355 . S
O589 Dy579 2.491 . S
O590 Dy579 2.403 . S
O590 C585 1.254 . S
O591 Dy576 2.310 . S
O591 Dy579 2.664 . S
O591 C585 1.268 . S
O592 Dy576 2.351 . S
O592 C595 1.249 . S
O593 Dy579 2.326 . S
O593 C595 1.267 . S
C594 O586 1.249 . S
C594 O587 1.267 . S
C595 O592 1.249 . S
C595 O593 1.267 . S
Dy596 O600 2.398 . S
Dy596 O601 2.491 . S
Dy596 O602 2.403 . S
Dy596 O603 2.664 . S
Dy596 O607 2.326 . S
Dy596 O611 2.310 . S
Dy596 O612 2.351 . S
C597 O608 1.185 . S
C597 O609 1.355 . S
C598 O600 1.185 . S
C598 O601 1.355 . S
Dy599 O603 2.310 . S
Dy599 O606 2.351 . S
Dy599 O608 2.398 . S
Dy599 O609 2.491 . S
Dy599 O610 2.403 . S
Dy599 O611 2.664 . S
Dy599 O613 2.326 . S
O600 Dy596 2.398 . S
O600 C598 1.185 . S
O601 Dy596 2.491 . S
O601 C598 1.355 . S
O602 Dy596 2.403 . S
O602 C604 1.254 . S
O603 Dy596 2.664 . S
O603 Dy599 2.310 . S
O603 C604 1.268 . S
C604 O602 1.254 . S
C604 O603 1.268 . S
C605 O610 1.254 . S
C605 O611 1.268 . S
O606 Dy599 2.351 . S
O606 C614 1.249 . S
O607 Dy596 2.326 . S
O607 C614 1.267 . S
O608 C597 1.185 . S
O608 Dy599 2.398 . S
O609 C597 1.355 . S
O609 Dy599 2.491 . S
O610 Dy599 2.403 . S
O610 C605 1.254 . S
O611 Dy596 2.310 . S
O611 Dy599 2.664 . S
O611 C605 1.268 . S
O612 Dy596 2.351 . S
O612 C615 1.249 . S
O613 Dy599 2.326 . S
O613 C615 1.267 . S
C614 O606 1.249 . S
C614 O607 1.267 . S
C615 O612 1.249 . S
C615 O613 1.267 . S
Dy616 O620 2.398 . S
Dy616 O621 2.491 . S
Dy616 O622 2.403 . S
Dy616 O623 2.664 . S
Dy616 O627 2.326 . S
Dy616 O631 2.310 . S
Dy616 O632 2.351 . S
C617 O628 1.185 . S
C617 O629 1.355 . S
C618 O620 1.185 . S
C618 O621 1.355 . S
Dy619 O623 2.310 . S
Dy619 O626 2.351 . S
Dy619 O628 2.398 . S
Dy619 O629 2.491 . S
Dy619 O630 2.403 . S
Dy619 O631 2.664 . S
Dy619 O633 2.326 . S
O620 Dy616 2.398 . S
O620 C618 1.185 . S
O621 Dy616 2.491 . S
O621 C618 1.355 . S
O622 Dy616 2.403 . S
O622 C624 1.254 . S
O623 Dy616 2.664 . S
O623 Dy619 2.310 . S
O623 C624 1.268 . S
C624 O622 1.254 . S
C624 O623 1.268 . S
C625 O630 1.254 . S
C625 O631 1.268 . S
O626 Dy619 2.351 . S
O626 C634 1.249 . S
O627 Dy616 2.326 . S
O627 C634 1.267 . S
O628 C617 1.185 . S
O628 Dy619 2.398 . S
O629 C617 1.355 . S
O629 Dy619 2.491 . S
O630 Dy619 2.403 . S
O630 C625 1.254 . S
O631 Dy616 2.310 . S
O631 Dy619 2.664 . S
O631 C625 1.268 . S
O632 Dy616 2.351 . S
O632 C635 1.249 . S
O633 Dy619 2.326 . S
O633 C635 1.267 . S
C634 O626 1.249 . S
C634 O627 1.267 . S
C635 O632 1.249 . S
C635 O633 1.267 . S
Dy636 O640 2.398 . S
Dy636 O641 2.491 . S
Dy636 O642 2.403 1_554 S
Dy636 O643 2.664 . S
Dy636 O647 2.326 . S
Dy636 O651 2.310 . S
Dy636 O652 2.351 . S
C637 O648 1.185 . S
C637 O649 1.355 . S
C638 O640 1.185 . S
C638 O641 1.355 . S
Dy639 O643 2.310 1_655 S
Dy639 O646 2.351 . S
Dy639 O648 2.398 . S
Dy639 O649 2.491 . S
Dy639 O650 2.403 . S
Dy639 O651 2.664 1_655 S
Dy639 O653 2.326 1_655 S
O640 Dy636 2.398 . S
O640 C638 1.185 . S
O641 Dy636 2.491 . S
O641 C638 1.355 . S
O642 Dy636 2.403 1_556 S
O642 C644 1.254 . S
O643 Dy636 2.664 . S
O643 Dy639 2.310 1_455 S
O643 C644 1.268 1_554 S
C644 O642 1.254 . S
C644 O643 1.268 1_556 S
C645 O650 1.254 1_455 S
C645 O651 1.268 . S
O646 Dy639 2.351 . S
O646 C654 1.249 1_655 S
O647 Dy636 2.326 . S
O647 C654 1.267 . S
O648 C637 1.185 . S
O648 Dy639 2.398 . S
O649 C637 1.355 . S
O649 Dy639 2.491 . S
O650 Dy639 2.403 . S
O650 C645 1.254 1_655 S
O651 Dy636 2.310 . S
O651 Dy639 2.664 1_455 S
O651 C645 1.268 . S
O652 Dy636 2.351 . S
O652 C655 1.249 . S
O653 Dy639 2.326 1_455 S
O653 C655 1.267 . S
C654 O646 1.249 1_455 S
C654 O647 1.267 . S
C655 O652 1.249 . S
C655 O653 1.267 . S
H656 C668 0.928 . S
H657 C670 0.930 . S
H658 C671 0.930 . S
H659 C675 0.959 . S
H660 C675 0.959 1_554 S
H661 C675 0.961 . S
H662 C676 0.960 . S
H663 C676 0.961 1_554 S
H664 C676 0.959 . S
H665 C679 0.929 1_655 S
H666 C680 0.931 . S
H667 C682 0.929 . S
C668 H656 0.928 . S
C668 C669 1.395 1_455 S
C668 C673 1.405 . S
C669 C668 1.395 1_655 S
C669 C670 1.376 . S
C670 H657 0.930 . S
C670 C669 1.376 . S
C670 C671 1.388 . S
C671 H658 0.930 . S
C671 C670 1.388 . S
C671 C672 1.390 . S
C672 C671 1.390 . S
C672 C673 1.394 1_655 S
C672 C678 1.465 1_655 S
C673 C668 1.405 . S
C673 C672 1.394 1_455 S
C673 C674 1.516 . S
C674 C673 1.516 . S
C674 C675 1.502 . S
C674 C676 1.561 1_455 S
C674 C677 1.526 . S
C675 H659 0.959 . S
C675 H660 0.959 1_556 S
C675 H661 0.961 . S
C675 C674 1.502 . S
C676 H662 0.960 . S
C676 H663 0.961 1_556 S
C676 H664 0.959 . S
C676 C674 1.561 1_655 S
C677 C674 1.526 . S
C677 C678 1.396 . S
C677 C682 1.390 1_556 S
C678 C672 1.465 1_455 S
C678 C677 1.396 . S
C678 C679 1.399 . S
C679 H665 0.929 1_455 S
C679 C678 1.399 . S
C679 C680 1.385 . S
C680 H666 0.931 . S
C680 C679 1.385 . S
C680 C681 1.389 . S
C681 C680 1.389 . S
C681 C682 1.387 1_556 S
C682 H667 0.929 . S
C682 C677 1.390 1_554 S
C682 C681 1.387 1_554 S
H683 C695 0.930 . S
H684 C697 0.930 . S
H685 C698 0.930 . S
H686 C702 0.959 . S
H687 C702 0.959 . S
H688 C702 0.961 . S
H689 C703 0.960 . S
H690 C703 0.961 . S
H691 C703 0.959 . S
H692 C706 0.929 . S
H693 C707 0.931 . S
H694 C709 0.930 . S
C695 H683 0.930 . S
C695 C696 1.399 . S
C695 C700 1.399 . S
C696 C695 1.399 . S
C696 C697 1.376 . S
C697 H684 0.930 . S
C697 C696 1.376 . S
C697 C698 1.388 . S
C698 H685 0.930 . S
C698 C697 1.388 . S
C698 C699 1.390 . S
C699 C698 1.390 . S
C699 C700 1.394 . S
C699 C705 1.465 . S
C700 C695 1.399 . S
C700 C699 1.394 . S
C700 C701 1.516 . S
C701 C700 1.516 . S
C701 C702 1.502 . S
C701 C703 1.561 . S
C701 C704 1.526 . S
C702 H686 0.959 . S
C702 H687 0.959 . S
C702 H688 0.961 . S
C702 C701 1.502 . S
C703 H689 0.960 . S
C703 H690 0.961 . S
C703 H691 0.959 . S
C703 C701 1.561 . S
C704 C701 1.526 . S
C704 C705 1.396 . S
C704 C709 1.390 . S
C705 C699 1.465 . S
C705 C704 1.396 . S
C705 C706 1.399 . S
C706 H692 0.929 . S
C706 C705 1.399 . S
C706 C707 1.385 . S
C707 H693 0.931 . S
C707 C706 1.385 . S
C707 C708 1.389 . S
C708 C707 1.389 . S
C708 C709 1.387 . S
C709 H694 0.930 . S
C709 C704 1.390 . S
C709 C708 1.387 . S
H710 C722 0.930 . S
H711 C724 0.930 . S
H712 C725 0.930 . S
H713 C729 0.959 . S
H714 C729 0.959 . S
H715 C729 0.961 . S
H716 C730 0.960 . S
H717 C730 0.961 . S
H718 C730 0.959 . S
H719 C733 0.929 . S
H720 C734 0.931 . S
H721 C736 0.930 . S
C722 H710 0.930 . S
C722 C723 1.399 . S
C722 C727 1.399 . S
C723 C722 1.399 . S
C723 C724 1.376 . S
C724 H711 0.930 . S
C724 C723 1.376 . S
C724 C725 1.388 . S
C725 H712 0.930 . S
C725 C724 1.388 . S
C725 C726 1.390 . S
C726 C725 1.390 . S
C726 C727 1.394 . S
C726 C732 1.465 . S
C727 C722 1.399 . S
C727 C726 1.394 . S
C727 C728 1.516 . S
C728 C727 1.516 . S
C728 C729 1.502 . S
C728 C730 1.561 . S
C728 C731 1.526 . S
C729 H713 0.959 . S
C729 H714 0.959 . S
C729 H715 0.961 . S
C729 C728 1.502 . S
C730 H716 0.960 . S
C730 H717 0.961 . S
C730 H718 0.959 . S
C730 C728 1.561 . S
C731 C728 1.526 . S
C731 C732 1.396 . S
C731 C736 1.390 . S
C732 C726 1.465 . S
C732 C731 1.396 . S
C732 C733 1.399 . S
C733 H719 0.929 . S
C733 C732 1.399 . S
C733 C734 1.385 . S
C734 H720 0.931 . S
C734 C733 1.385 . S
C734 C735 1.389 . S
C735 C734 1.389 . S
C735 C736 1.387 . S
C736 H721 0.930 . S
C736 C731 1.390 . S
C736 C735 1.387 . S
H737 C749 0.930 . S
H738 C751 0.930 . S
H739 C752 0.930 . S
H740 C756 0.959 . S
H741 C756 0.959 . S
H742 C756 0.961 . S
H743 C757 0.960 . S
H744 C757 0.961 . S
H745 C757 0.959 . S
H746 C760 0.929 . S
H747 C761 0.931 . S
H748 C763 0.930 . S
C749 H737 0.930 . S
C749 C750 1.399 . S
C749 C754 1.399 . S
C750 C749 1.399 . S
C750 C751 1.376 . S
C751 H738 0.930 . S
C751 C750 1.376 . S
C751 C752 1.388 . S
C752 H739 0.930 . S
C752 C751 1.388 . S
C752 C753 1.390 . S
C753 C752 1.390 . S
C753 C754 1.394 . S
C753 C759 1.465 . S
C754 C749 1.399 . S
C754 C753 1.394 . S
C754 C755 1.516 . S
C755 C754 1.516 . S
C755 C756 1.502 . S
C755 C757 1.561 . S
C755 C758 1.526 . S
C756 H740 0.959 . S
C756 H741 0.959 . S
C756 H742 0.961 . S
C756 C755 1.502 . S
C757 H743 0.960 . S
C757 H744 0.961 . S
C757 H745 0.959 . S
C757 C755 1.561 . S
C758 C755 1.526 . S
C758 C759 1.396 . S
C758 C763 1.390 . S
C759 C753 1.465 . S
C759 C758 1.396 . S
C759 C760 1.399 . S
C760 H746 0.929 . S
C760 C759 1.399 . S
C760 C761 1.385 . S
C761 H747 0.931 . S
C761 C760 1.385 . S
C761 C762 1.389 . S
C762 C761 1.389 . S
C762 C763 1.387 . S
C763 H748 0.930 . S
C763 C758 1.390 . S
C763 C762 1.387 . S
H764 C776 0.930 . S
H765 C778 0.930 1_655 S
H766 C779 0.959 . S
H767 C783 0.959 . S
H768 C783 0.959 . S
H769 C783 0.961 . S
H770 C784 0.960 . S
H771 C784 0.961 . S
H772 C784 0.959 . S
H773 C787 0.929 1_655 S
H774 C788 0.931 1_655 S
H775 C790 0.930 . S
C776 H764 0.930 . S
C776 C777 1.399 . S
C776 C781 1.399 . S
C777 C776 1.399 . S
C777 C778 1.376 . S
C778 H765 0.930 1_455 S
C778 C777 1.376 . S
C778 C779 1.380 1_455 S
C779 H766 0.959 . S
C779 C778 1.380 1_655 S
C779 C780 1.370 1_655 S
C780 C779 1.370 1_455 S
C780 C781 1.394 . S
C780 C786 1.465 . S
C781 C776 1.399 . S
C781 C780 1.394 . S
C781 C782 1.516 . S
C782 C781 1.516 . S
C782 C783 1.502 . S
C782 C784 1.561 . S
C782 C785 1.526 . S
C783 H767 0.959 . S
C783 H768 0.959 . S
C783 H769 0.961 . S
C783 C782 1.502 . S
C784 H770 0.960 . S
C784 H771 0.961 . S
C784 H772 0.959 . S
C784 C782 1.561 . S
C785 C782 1.526 . S
C785 C786 1.396 . S
C785 C790 1.390 . S
C786 C780 1.465 . S
C786 C785 1.396 . S
C786 C787 1.399 . S
C787 H773 0.929 1_455 S
C787 C786 1.399 . S
C787 C788 1.385 . S
C788 H774 0.931 1_455 S
C788 C787 1.385 . S
C788 C789 1.389 . S
C789 C788 1.389 . S
C789 C790 1.387 . S
C790 H775 0.930 . S
C790 C785 1.390 . S
C790 C789 1.387 . S
H791 C803 0.930 . S
H792 C805 0.930 . S
H793 C806 0.930 . S
H794 C810 0.959 . S
H795 C810 0.959 . S
H796 C810 0.961 . S
H797 C811 0.960 . S
H798 C811 0.961 . S
H799 C811 0.959 . S
H800 C814 0.929 . S
H801 C815 0.931 . S
H802 C817 0.930 . S
C803 H791 0.930 . S
C803 C804 1.399 . S
C803 C808 1.399 . S
C804 C803 1.399 . S
C804 C805 1.376 . S
C805 H792 0.930 . S
C805 C804 1.376 . S
C805 C806 1.388 . S
C806 H793 0.930 . S
C806 C805 1.388 . S
C806 C807 1.390 . S
C807 C806 1.390 . S
C807 C808 1.394 . S
C807 C813 1.465 . S
C808 C803 1.399 . S
C808 C807 1.394 . S
C808 C809 1.516 . S
C809 C808 1.516 . S
C809 C810 1.502 . S
C809 C811 1.561 . S
C809 C812 1.526 . S
C810 H794 0.959 . S
C810 H795 0.959 . S
C810 H796 0.961 . S
C810 C809 1.502 . S
C811 H797 0.960 . S
C811 H798 0.961 . S
C811 H799 0.959 . S
C811 C809 1.561 . S
C812 C809 1.526 . S
C812 C813 1.396 . S
C812 C817 1.390 . S
C813 C807 1.465 . S
C813 C812 1.396 . S
C813 C814 1.399 . S
C814 H800 0.929 . S
C814 C813 1.399 . S
C814 C815 1.385 . S
C815 H801 0.931 . S
C815 C814 1.385 . S
C815 C816 1.389 . S
C816 C815 1.389 . S
C816 C817 1.387 . S
C817 H802 0.930 . S
C817 C812 1.390 . S
C817 C816 1.387 . S
H818 C830 0.930 . S
H819 C832 0.930 . S
H820 C833 0.930 . S
H821 C837 0.959 . S
H822 C837 0.959 . S
H823 C837 0.961 . S
H824 C838 0.960 . S
H825 C838 0.961 . S
H826 C838 0.959 . S
H827 C841 0.929 . S
H828 C842 0.931 . S
H829 C844 0.930 . S
C830 H818 0.930 . S
C830 C831 1.399 . S
C830 C835 1.399 . S
C831 C830 1.399 . S
C831 C832 1.376 . S
C832 H819 0.930 . S
C832 C831 1.376 . S
C832 C833 1.388 . S
C833 H820 0.930 . S
C833 C832 1.388 . S
C833 C834 1.390 . S
C834 C833 1.390 . S
C834 C835 1.394 . S
C834 C840 1.465 . S
C835 C830 1.399 . S
C835 C834 1.394 . S
C835 C836 1.516 . S
C836 C835 1.516 . S
C836 C837 1.502 . S
C836 C838 1.561 . S
C836 C839 1.526 . S
C837 H821 0.959 . S
C837 H822 0.959 . S
C837 H823 0.961 . S
C837 C836 1.502 . S
C838 H824 0.960 . S
C838 H825 0.961 . S
C838 H826 0.959 . S
C838 C836 1.561 . S
C839 C836 1.526 . S
C839 C840 1.396 . S
C839 C844 1.390 . S
C840 C834 1.465 . S
C840 C839 1.396 . S
C840 C841 1.399 . S
C841 H827 0.929 . S
C841 C840 1.399 . S
C841 C842 1.385 . S
C842 H828 0.931 . S
C842 C841 1.385 . S
C842 C843 1.389 . S
C843 C842 1.389 . S
C843 C844 1.387 . S
C844 H829 0.930 . S
C844 C839 1.390 . S
C844 C843 1.387 . S
H845 C857 0.930 . S
H846 C859 0.930 . S
H847 C860 0.930 . S
H848 C864 0.959 . S
H849 C864 0.959 . S
H850 C864 0.961 . S
H851 C865 0.960 . S
H852 C865 0.961 . S
H853 C865 0.959 . S
H854 C868 0.929 . S
H855 C869 0.931 . S
H856 C871 0.930 . S
C857 H845 0.930 . S
C857 C858 1.399 . S
C857 C862 1.399 . S
C858 C857 1.399 . S
C858 C859 1.376 . S
C859 H846 0.930 . S
C859 C858 1.376 . S
C859 C860 1.388 . S
C860 H847 0.930 . S
C860 C859 1.388 . S
C860 C861 1.390 . S
C861 C860 1.390 . S
C861 C862 1.394 . S
C861 C867 1.465 . S
C862 C857 1.399 . S
C862 C861 1.394 . S
C862 C863 1.516 . S
C863 C862 1.516 . S
C863 C864 1.502 . S
C863 C865 1.561 . S
C863 C866 1.526 . S
C864 H848 0.959 . S
C864 H849 0.959 . S
C864 H850 0.961 . S
C864 C863 1.502 . S
C865 H851 0.960 . S
C865 H852 0.961 . S
C865 H853 0.959 . S
C865 C863 1.561 . S
C866 C863 1.526 . S
C866 C867 1.396 . S
C866 C871 1.390 . S
C867 C861 1.465 . S
C867 C866 1.396 . S
C867 C868 1.399 . S
C868 H854 0.929 . S
C868 C867 1.399 . S
C868 C869 1.385 . S
C869 H855 0.931 . S
C869 C868 1.385 . S
C869 C870 1.389 . S
C870 C869 1.389 . S
C870 C871 1.387 . S
C871 H856 0.930 . S
C871 C866 1.390 . S
C871 C870 1.387 . S
H872 C884 0.930 . S
H873 C886 0.930 . S
H874 C887 0.930 . S
H875 C891 0.959 . S
H876 C891 0.959 . S
H877 C891 0.961 . S
H878 C892 0.960 . S
H879 C892 0.961 . S
H880 C892 0.959 . S
H881 C895 0.929 . S
H882 C896 0.931 1_455 S
H883 C898 0.930 . S
C884 H872 0.930 . S
C884 C885 1.399 . S
C884 C889 1.399 . S
C885 C884 1.399 . S
C885 C886 1.376 . S
C886 H873 0.930 . S
C886 C885 1.376 . S
C886 C887 1.388 . S
C887 H874 0.930 . S
C887 C886 1.388 . S
C887 C888 1.390 . S
C888 C887 1.390 . S
C888 C889 1.394 . S
C888 C894 1.465 . S
C889 C884 1.399 . S
C889 C888 1.394 . S
C889 C890 1.516 . S
C890 C889 1.516 . S
C890 C891 1.502 . S
C890 C892 1.561 . S
C890 C893 1.526 . S
C891 H875 0.959 . S
C891 H876 0.959 . S
C891 H877 0.961 . S
C891 C890 1.502 . S
C892 H878 0.960 . S
C892 H879 0.961 . S
C892 H880 0.959 . S
C892 C890 1.561 . S
C893 C890 1.526 . S
C893 C894 1.396 . S
C893 C898 1.390 . S
C894 C888 1.465 . S
C894 C893 1.396 . S
C894 C895 1.399 . S
C895 H881 0.929 . S
C895 C894 1.399 . S
C895 C896 1.385 . S
C896 H882 0.931 1_655 S
C896 C895 1.385 . S
C896 C897 1.389 . S
C897 C896 1.389 . S
C897 C898 1.387 . S
C898 H883 0.930 . S
C898 C893 1.390 . S
C898 C897 1.387 . S
H899 C911 0.930 . S
H900 C913 0.930 . S
H901 C914 0.930 . S
H902 C918 0.959 . S
H903 C918 0.959 . S
H904 C918 0.961 . S
H905 C919 0.960 . S
H906 C919 0.961 . S
H907 C919 0.959 . S
H908 C922 0.929 . S
H909 C923 0.931 . S
H910 C925 0.930 . S
C911 H899 0.930 . S
C911 C912 1.399 . S
C911 C916 1.399 . S
C912 C911 1.399 . S
C912 C913 1.376 . S
C913 H900 0.930 . S
C913 C912 1.376 . S
C913 C914 1.388 . S
C914 H901 0.930 . S
C914 C913 1.388 . S
C914 C915 1.390 . S
C915 C914 1.390 . S
C915 C916 1.394 . S
C915 C921 1.465 . S
C916 C911 1.399 . S
C916 C915 1.394 . S
C916 C917 1.516 . S
C917 C916 1.516 . S
C917 C918 1.502 . S
C917 C919 1.561 . S
C917 C920 1.526 . S
C918 H902 0.959 . S
C918 H903 0.959 . S
C918 H904 0.961 . S
C918 C917 1.502 . S
C919 H905 0.960 . S
C919 H906 0.961 . S
C919 H907 0.959 . S
C919 C917 1.561 . S
C920 C917 1.526 . S
C920 C921 1.396 . S
C920 C925 1.390 . S
C921 C915 1.465 . S
C921 C920 1.396 . S
C921 C922 1.399 . S
C922 H908 0.929 . S
C922 C921 1.399 . S
C922 C923 1.385 . S
C923 H909 0.931 . S
C923 C922 1.385 . S
C923 C924 1.389 . S
C924 C923 1.389 . S
C924 C925 1.387 . S
C925 H910 0.930 . S
C925 C920 1.390 . S
C925 C924 1.387 . S
H926 C938 0.930 . S
H927 C940 0.930 1_565 S
H928 C941 0.930 . S
H929 C945 0.959 . S
H930 C945 0.959 . S
H931 C945 0.961 . S
H932 C946 0.960 . S
H933 C946 0.961 . S
H934 C946 0.959 . S
H935 C949 0.929 . S
H936 C950 0.931 . S
H937 C952 0.930 . S
C938 H926 0.930 . S
C938 C939 1.399 . S
C938 C943 1.399 . S
C939 C938 1.399 . S
C939 C940 1.376 . S
C940 H927 0.930 1_545 S
C940 C939 1.376 . S
C940 C941 1.388 1_545 S
C941 H928 0.930 . S
C941 C940 1.388 1_565 S
C941 C942 1.390 1_565 S
C942 C941 1.390 1_545 S
C942 C943 1.394 . S
C942 C948 1.465 . S
C943 C938 1.399 . S
C943 C942 1.394 . S
C943 C944 1.516 . S
C944 C943 1.516 . S
C944 C945 1.502 . S
C944 C946 1.561 . S
C944 C947 1.526 . S
C945 H929 0.959 . S
C945 H930 0.959 . S
C945 H931 0.961 . S
C945 C944 1.502 . S
C946 H932 0.960 . S
C946 H933 0.961 . S
C946 H934 0.959 . S
C946 C944 1.561 . S
C947 C944 1.526 . S
C947 C948 1.396 . S
C947 C952 1.390 . S
C948 C942 1.465 . S
C948 C947 1.396 . S
C948 C949 1.399 1_545 S
C949 H935 0.929 . S
C949 C948 1.399 1_565 S
C949 C950 1.385 . S
C950 H936 0.931 . S
C950 C949 1.385 . S
C950 C951 1.389 1_565 S
C951 C950 1.389 1_545 S
C951 C952 1.387 . S
C952 H937 0.930 . S
C952 C947 1.390 . S
C952 C951 1.387 . S
H953 C965 0.930 . S
H954 C967 0.930 . S
H955 C968 0.930 . S
H956 C972 0.959 . S
H957 C972 0.959 . S
H958 C972 0.961 . S
H959 C973 0.960 . S
H960 C973 0.961 . S
H961 C973 0.959 . S
H962 C976 0.929 . S
H963 C977 0.931 . S
H964 C979 0.930 . S
C965 H953 0.930 . S
C965 C966 1.399 . S
C965 C970 1.399 . S
C966 C965 1.399 . S
C966 C967 1.376 . S
C967 H954 0.930 . S
C967 C966 1.376 . S
C967 C968 1.388 . S
C968 H955 0.930 . S
C968 C967 1.388 . S
C968 C969 1.390 . S
C969 C968 1.390 . S
C969 C970 1.394 . S
C969 C975 1.465 . S
C970 C965 1.399 . S
C970 C969 1.394 . S
C970 C971 1.516 . S
C971 C970 1.516 . S
C971 C972 1.502 . S
C971 C973 1.561 . S
C971 C974 1.526 . S
C972 H956 0.959 . S
C972 H957 0.959 . S
C972 H958 0.961 . S
C972 C971 1.502 . S
C973 H959 0.960 . S
C973 H960 0.961 . S
C973 H961 0.959 . S
C973 C971 1.561 . S
C974 C971 1.526 . S
C974 C975 1.396 . S
C974 C979 1.390 . S
C975 C969 1.465 . S
C975 C974 1.396 . S
C975 C976 1.399 . S
C976 H962 0.929 . S
C976 C975 1.399 . S
C976 C977 1.385 . S
C977 H963 0.931 . S
C977 C976 1.385 . S
C977 C978 1.389 . S
C978 C977 1.389 . S
C978 C979 1.387 . S
C979 H964 0.930 . S
C979 C974 1.390 . S
C979 C978 1.387 . S
H980 C992 0.930 . S
H981 C994 0.930 . S
H982 C995 0.930 1_565 S
H983 C999 0.959 1_455 S
H984 C999 0.959 1_455 S
H985 C999 0.961 . S
H986 C1000 0.960 . S
H987 C1000 0.961 . S
H988 C1000 0.959 . S
H989 C1003 0.929 1_565 S
H990 C1004 0.931 1_565 S
H991 C1006 0.930 1_455 S
C992 H980 0.930 . S
C992 C993 1.399 . S
C992 C997 1.399 . S
C993 C992 1.399 . S
C993 C994 1.376 . S
C994 H981 0.930 . S
C994 C993 1.376 . S
C994 C995 1.388 . S
C995 H982 0.930 1_545 S
C995 C994 1.388 . S
C995 C996 1.390 . S
C996 C995 1.390 . S
C996 C997 1.394 . S
C996 C1002 1.465 . S
C997 C992 1.399 . S
C997 C996 1.394 . S
C997 C998 1.516 . S
C998 C997 1.516 . S
C998 C999 1.502 . S
C998 C1000 1.561 . S
C998 C1001 1.526 . S
C999 H983 0.959 1_655 S
C999 H984 0.959 1_655 S
C999 H985 0.961 . S
C999 C998 1.502 . S
C1000 H986 0.960 . S
C1000 H987 0.961 . S
C1000 H988 0.959 . S
C1000 C998 1.561 . S
C1001 C998 1.526 . S
C1001 C1002 1.396 . S
C1001 C1006 1.390 . S
C1002 C996 1.465 . S
C1002 C1001 1.396 . S
C1002 C1003 1.399 . S
C1003 H989 0.929 1_545 S
C1003 C1002 1.399 . S
C1003 C1004 1.385 . S
C1004 H990 0.931 1_545 S
C1004 C1003 1.385 . S
C1004 C1005 1.389 . S
C1005 C1004 1.389 . S
C1005 C1006 1.387 . S
C1006 H991 0.930 1_655 S
C1006 C1001 1.390 . S
C1006 C1005 1.387 . S
H1007 C1019 0.930 . S
H1008 C1021 0.930 . S
H1009 C1022 0.930 . S
H1010 C1026 0.959 . S
H1011 C1026 0.959 . S
H1012 C1026 0.961 . S
H1013 C1027 0.960 . S
H1014 C1027 0.961 . S
H1015 C1027 0.959 . S
H1016 C1030 0.929 . S
H1017 C1031 0.931 . S
H1018 C1033 0.930 . S
C1019 H1007 0.930 . S
C1019 C1020 1.399 . S
C1019 C1024 1.399 . S
C1020 C1019 1.399 . S
C1020 C1021 1.376 . S
C1021 H1008 0.930 . S
C1021 C1020 1.376 . S
C1021 C1022 1.388 . S
C1022 H1009 0.930 . S
C1022 C1021 1.388 . S
C1022 C1023 1.390 . S
C1023 C1022 1.390 . S
C1023 C1024 1.394 . S
C1023 C1029 1.465 . S
C1024 C1019 1.399 . S
C1024 C1023 1.394 . S
C1024 C1025 1.516 . S
C1025 C1024 1.516 . S
C1025 C1026 1.502 . S
C1025 C1027 1.561 . S
C1025 C1028 1.526 . S
C1026 H1010 0.959 . S
C1026 H1011 0.959 . S
C1026 H1012 0.961 . S
C1026 C1025 1.502 . S
C1027 H1013 0.960 . S
C1027 H1014 0.961 . S
C1027 H1015 0.959 . S
C1027 C1025 1.561 . S
C1028 C1025 1.526 . S
C1028 C1029 1.396 . S
C1028 C1033 1.390 . S
C1029 C1023 1.465 . S
C1029 C1028 1.396 . S
C1029 C1030 1.399 . S
C1030 H1016 0.929 . S
C1030 C1029 1.399 . S
C1030 C1031 1.385 . S
C1031 H1017 0.931 . S
C1031 C1030 1.385 . S
C1031 C1032 1.389 . S
C1032 C1031 1.389 . S
C1032 C1033 1.387 . S
C1033 H1018 0.930 . S
C1033 C1028 1.390 . S
C1033 C1032 1.387 . S
H1034 C1046 0.930 . S
H1035 C1048 0.930 . S
H1036 C1049 0.930 . S
H1037 C1053 0.959 . S
H1038 C1053 0.959 1_565 S
H1039 C1053 0.961 1_565 S
H1040 C1054 0.960 . S
H1041 C1054 0.961 . S
H1042 C1054 0.959 1_545 S
H1043 C1057 0.929 . S
H1044 C1058 0.931 . S
H1045 C1060 0.930 . S
C1046 H1034 0.930 . S
C1046 C1047 1.399 . S
C1046 C1051 1.399 . S
C1047 C1046 1.399 . S
C1047 C1048 1.376 . S
C1048 H1035 0.930 . S
C1048 C1047 1.376 . S
C1048 C1049 1.388 . S
C1049 H1036 0.930 . S
C1049 C1048 1.388 . S
C1049 C1050 1.390 . S
C1050 C1049 1.390 . S
C1050 C1051 1.394 . S
C1050 C1056 1.465 . S
C1051 C1046 1.399 . S
C1051 C1050 1.394 . S
C1051 C1052 1.516 . S
C1052 C1051 1.516 . S
C1052 C1053 1.502 . S
C1052 C1054 1.561 1_545 S
C1052 C1055 1.526 . S
C1053 H1037 0.959 . S
C1053 H1038 0.959 1_545 S
C1053 H1039 0.961 1_545 S
C1053 C1052 1.502 . S
C1054 H1040 0.960 . S
C1054 H1041 0.961 . S
C1054 H1042 0.959 1_565 S
C1054 C1052 1.561 1_565 S
C1055 C1052 1.526 . S
C1055 C1056 1.396 . S
C1055 C1060 1.390 . S
C1056 C1050 1.465 . S
C1056 C1055 1.396 . S
C1056 C1057 1.399 . S
C1057 H1043 0.929 . S
C1057 C1056 1.399 . S
C1057 C1058 1.385 . S
C1058 H1044 0.931 . S
C1058 C1057 1.385 . S
C1058 C1059 1.389 . S
C1059 C1058 1.389 . S
C1059 C1060 1.387 . S
C1060 H1045 0.930 . S
C1060 C1055 1.390 . S
C1060 C1059 1.387 . S
H1061 C1073 0.930 . S
H1062 C1075 0.930 . S
H1063 C1076 0.930 . S
H1064 C1080 0.959 . S
H1065 C1080 0.959 . S
H1066 C1080 0.961 . S
H1067 C1081 0.960 . S
H1068 C1081 0.961 . S
H1069 C1081 0.959 . S
H1070 C1084 0.929 . S
H1071 C1085 0.931 . S
H1072 C1087 0.930 . S
C1073 H1061 0.930 . S
C1073 C1074 1.399 . S
C1073 C1078 1.399 . S
C1074 C1073 1.399 . S
C1074 C1075 1.376 . S
C1075 H1062 0.930 . S
C1075 C1074 1.376 . S
C1075 C1076 1.388 . S
C1076 H1063 0.930 . S
C1076 C1075 1.388 . S
C1076 C1077 1.390 . S
C1077 C1076 1.390 . S
C1077 C1078 1.394 . S
C1077 C1083 1.465 . S
C1078 C1073 1.399 . S
C1078 C1077 1.394 . S
C1078 C1079 1.516 . S
C1079 C1078 1.516 . S
C1079 C1080 1.502 . S
C1079 C1081 1.561 . S
C1079 C1082 1.526 . S
C1080 H1064 0.959 . S
C1080 H1065 0.959 . S
C1080 H1066 0.961 . S
C1080 C1079 1.502 . S
C1081 H1067 0.960 . S
C1081 H1068 0.961 . S
C1081 H1069 0.959 . S
C1081 C1079 1.561 . S
C1082 C1079 1.526 . S
C1082 C1083 1.396 . S
C1082 C1087 1.390 . S
C1083 C1077 1.465 . S
C1083 C1082 1.396 . S
C1083 C1084 1.399 . S
C1084 H1070 0.929 . S
C1084 C1083 1.399 . S
C1084 C1085 1.385 . S
C1085 H1071 0.931 . S
C1085 C1084 1.385 . S
C1085 C1086 1.389 . S
C1086 C1085 1.389 . S
C1086 C1087 1.387 . S
C1087 H1072 0.930 . S
C1087 C1082 1.390 . S
C1087 C1086 1.387 . S
H1088 C1100 0.930 . S
H1089 C1102 0.898 1_556 S
H1090 C1103 0.966 . S
H1091 C1107 0.959 . S
H1092 C1107 0.959 . S
H1093 C1107 0.961 . S
H1094 C1108 0.960 . S
H1095 C1108 0.961 . S
H1096 C1108 0.959 . S
H1097 C1111 0.929 1_556 S
H1098 C1112 0.931 . S
H1099 C1114 0.930 . S
C1100 H1088 0.930 . S
C1100 C1101 1.399 . S
C1100 C1105 1.399 . S
C1101 C1100 1.399 . S
C1101 C1102 1.412 . S
C1102 H1089 0.898 1_554 S
C1102 C1101 1.412 . S
C1102 C1103 1.384 1_554 S
C1103 H1090 0.966 . S
C1103 C1102 1.384 1_556 S
C1103 C1104 1.357 1_556 S
C1104 C1103 1.357 1_554 S
C1104 C1105 1.394 . S
C1104 C1110 1.465 . S
C1105 C1100 1.399 . S
C1105 C1104 1.394 . S
C1105 C1106 1.516 . S
C1106 C1105 1.516 . S
C1106 C1107 1.502 . S
C1106 C1108 1.561 1_565 S
C1106 C1109 1.526 . S
C1107 H1091 0.959 . S
C1107 H1092 0.959 . S
C1107 H1093 0.961 . S
C1107 C1106 1.502 . S
C1108 H1094 0.960 . S
C1108 H1095 0.961 . S
C1108 H1096 0.959 . S
C1108 C1106 1.561 1_545 S
C1109 C1106 1.526 . S
C1109 C1110 1.396 . S
C1109 C1114 1.390 1_565 S
C1110 C1104 1.465 . S
C1110 C1109 1.396 . S
C1110 C1111 1.399 . S
C1111 H1097 0.929 1_554 S
C1111 C1110 1.399 . S
C1111 C1112 1.385 . S
C1112 H1098 0.931 . S
C1112 C1111 1.385 . S
C1112 C1113 1.389 1_565 S
C1113 C1112 1.389 1_545 S
C1113 C1114 1.387 . S
C1114 H1099 0.930 . S
C1114 C1109 1.390 1_545 S
C1114 C1113 1.387 . S
H1115 C1127 0.929 1_556 S
H1116 C1129 0.930 . S
H1117 C1130 0.930 . S
H1118 C1134 0.959 . S
H1119 C1134 0.959 . S
H1120 C1134 0.961 . S
H1121 C1135 0.960 . S
H1122 C1135 0.961 . S
H1123 C1135 0.959 . S
H1124 C1138 0.929 . S
H1125 C1139 0.931 . S
H1126 C1141 0.930 . S
C1127 H1115 0.929 1_554 S
C1127 C1128 1.400 . S
C1127 C1132 1.399 . S
C1128 C1127 1.400 . S
C1128 C1129 1.376 . S
C1129 H1116 0.930 . S
C1129 C1128 1.376 . S
C1129 C1130 1.388 . S
C1130 H1117 0.930 . S
C1130 C1129 1.388 . S
C1130 C1131 1.390 . S
C1131 C1130 1.390 . S
C1131 C1132 1.394 . S
C1131 C1137 1.465 . S
C1132 C1127 1.399 . S
C1132 C1131 1.394 . S
C1132 C1133 1.516 1_554 S
C1133 C1132 1.516 1_556 S
C1133 C1134 1.502 . S
C1133 C1135 1.561 . S
C1133 C1136 1.526 1_556 S
C1134 H1118 0.959 . S
C1134 H1119 0.959 . S
C1134 H1120 0.961 . S
C1134 C1133 1.502 . S
C1135 H1121 0.960 . S
C1135 H1122 0.961 . S
C1135 H1123 0.959 . S
C1135 C1133 1.561 . S
C1136 C1133 1.526 1_554 S
C1136 C1137 1.396 . S
C1136 C1141 1.390 1_554 S
C1137 C1131 1.465 . S
C1137 C1136 1.396 . S
C1137 C1138 1.399 . S
C1138 H1124 0.929 . S
C1138 C1137 1.399 . S
C1138 C1139 1.385 . S
C1139 H1125 0.931 . S
C1139 C1138 1.385 . S
C1139 C1140 1.389 . S
C1140 C1139 1.389 . S
C1140 C1141 1.387 1_554 S
C1141 H1126 0.930 . S
C1141 C1136 1.390 1_556 S
C1141 C1140 1.387 1_556 S
H1142 C1154 0.930 . S
H1143 C1156 0.930 . S
H1144 C1157 0.930 . S
H1145 C1161 0.959 . S
H1146 C1161 0.959 . S
H1147 C1161 0.961 . S
H1148 C1162 0.960 . S
H1149 C1162 0.961 . S
H1150 C1162 0.959 . S
H1151 C1165 0.929 . S
H1152 C1166 0.931 . S
H1153 C1168 0.930 . S
C1154 H1142 0.930 . S
C1154 C1155 1.399 . S
C1154 C1159 1.399 . S
C1155 C1154 1.399 . S
C1155 C1156 1.376 . S
C1156 H1143 0.930 . S
C1156 C1155 1.376 . S
C1156 C1157 1.388 . S
C1157 H1144 0.930 . S
C1157 C1156 1.388 . S
C1157 C1158 1.390 . S
C1158 C1157 1.390 . S
C1158 C1159 1.394 . S
C1158 C1164 1.465 . S
C1159 C1154 1.399 . S
C1159 C1158 1.394 . S
C1159 C1160 1.516 . S
C1160 C1159 1.516 . S
C1160 C1161 1.502 . S
C1160 C1162 1.561 . S
C1160 C1163 1.526 . S
C1161 H1145 0.959 . S
C1161 H1146 0.959 . S
C1161 H1147 0.961 . S
C1161 C1160 1.502 . S
C1162 H1148 0.960 . S
C1162 H1149 0.961 . S
C1162 H1150 0.959 . S
C1162 C1160 1.561 . S
C1163 C1160 1.526 . S
C1163 C1164 1.396 . S
C1163 C1168 1.390 . S
C1164 C1158 1.465 . S
C1164 C1163 1.396 . S
C1164 C1165 1.399 . S
C1165 H1151 0.929 . S
C1165 C1164 1.399 . S
C1165 C1166 1.385 . S
C1166 H1152 0.931 . S
C1166 C1165 1.385 . S
C1166 C1167 1.389 . S
C1167 C1166 1.389 . S
C1167 C1168 1.387 . S
C1168 H1153 0.930 . S
C1168 C1163 1.390 . S
C1168 C1167 1.387 . S
H1169 C1181 0.930 . S
H1170 C1183 0.930 . S
H1171 C1184 0.930 . S
H1172 C1188 0.959 . S
H1173 C1188 0.959 . S
H1174 C1188 0.961 . S
H1175 C1189 0.960 . S
H1176 C1189 0.961 . S
H1177 C1189 0.959 . S
H1178 C1192 0.929 . S
H1179 C1193 0.931 . S
H1180 C1195 0.930 . S
C1181 H1169 0.930 . S
C1181 C1182 1.399 . S
C1181 C1186 1.399 . S
C1182 C1181 1.399 . S
C1182 C1183 1.376 . S
C1183 H1170 0.930 . S
C1183 C1182 1.376 . S
C1183 C1184 1.388 . S
C1184 H1171 0.930 . S
C1184 C1183 1.388 . S
C1184 C1185 1.390 . S
C1185 C1184 1.390 . S
C1185 C1186 1.394 . S
C1185 C1191 1.465 . S
C1186 C1181 1.399 . S
C1186 C1185 1.394 . S
C1186 C1187 1.516 . S
C1187 C1186 1.516 . S
C1187 C1188 1.502 . S
C1187 C1189 1.561 . S
C1187 C1190 1.526 . S
C1188 H1172 0.959 . S
C1188 H1173 0.959 . S
C1188 H1174 0.961 . S
C1188 C1187 1.502 . S
C1189 H1175 0.960 . S
C1189 H1176 0.961 . S
C1189 H1177 0.959 . S
C1189 C1187 1.561 . S
C1190 C1187 1.526 . S
C1190 C1191 1.396 . S
C1190 C1195 1.390 . S
C1191 C1185 1.465 . S
C1191 C1190 1.396 . S
C1191 C1192 1.399 . S
C1192 H1178 0.929 . S
C1192 C1191 1.399 . S
C1192 C1193 1.385 . S
C1193 H1179 0.931 . S
C1193 C1192 1.385 . S
C1193 C1194 1.389 . S
C1194 C1193 1.389 . S
C1194 C1195 1.387 . S
C1195 H1180 0.930 . S
C1195 C1190 1.390 . S
C1195 C1194 1.387 . S
H1196 C1208 0.930 . S
H1197 C1210 0.930 . S
H1198 C1211 0.930 . S
H1199 C1215 0.959 . S
H1200 C1215 0.959 . S
H1201 C1215 0.961 . S
H1202 C1216 0.960 . S
H1203 C1216 0.961 . S
H1204 C1216 0.959 . S
H1205 C1219 0.929 . S
H1206 C1220 0.931 . S
H1207 C1222 0.930 . S
C1208 H1196 0.930 . S
C1208 C1209 1.399 . S
C1208 C1213 1.399 . S
C1209 C1208 1.399 . S
C1209 C1210 1.376 . S
C1210 H1197 0.930 . S
C1210 C1209 1.376 . S
C1210 C1211 1.388 . S
C1211 H1198 0.930 . S
C1211 C1210 1.388 . S
C1211 C1212 1.390 . S
C1212 C1211 1.390 . S
C1212 C1213 1.394 . S
C1212 C1218 1.465 . S
C1213 C1208 1.399 . S
C1213 C1212 1.394 . S
C1213 C1214 1.516 . S
C1214 C1213 1.516 . S
C1214 C1215 1.502 . S
C1214 C1216 1.561 . S
C1214 C1217 1.526 . S
C1215 H1199 0.959 . S
C1215 H1200 0.959 . S
C1215 H1201 0.961 . S
C1215 C1214 1.502 . S
C1216 H1202 0.960 . S
C1216 H1203 0.961 . S
C1216 H1204 0.959 . S
C1216 C1214 1.561 . S
C1217 C1214 1.526 . S
C1217 C1218 1.396 . S
C1217 C1222 1.390 . S
C1218 C1212 1.465 . S
C1218 C1217 1.396 . S
C1218 C1219 1.399 . S
C1219 H1205 0.929 . S
C1219 C1218 1.399 . S
C1219 C1220 1.385 . S
C1220 H1206 0.931 . S
C1220 C1219 1.385 . S
C1220 C1221 1.389 . S
C1221 C1220 1.389 . S
C1221 C1222 1.387 . S
C1222 H1207 0.930 . S
C1222 C1217 1.390 . S
C1222 C1221 1.387 . S
H1223 C1235 0.930 . S
H1224 C1237 0.930 . S
H1225 C1238 0.930 . S
H1226 C1242 0.959 . S
H1227 C1242 0.959 . S
H1228 C1242 0.961 . S
H1229 C1243 0.960 . S
H1230 C1243 0.961 . S
H1231 C1243 0.959 . S
H1232 C1246 0.929 . S
H1233 C1247 0.931 . S
H1234 C1249 0.930 . S
C1235 H1223 0.930 . S
C1235 C1236 1.399 . S
C1235 C1240 1.399 . S
C1236 C1235 1.399 . S
C1236 C1237 1.376 . S
C1237 H1224 0.930 . S
C1237 C1236 1.376 . S
C1237 C1238 1.388 . S
C1238 H1225 0.930 . S
C1238 C1237 1.388 . S
C1238 C1239 1.390 . S
C1239 C1238 1.390 . S
C1239 C1240 1.394 . S
C1239 C1245 1.465 . S
C1240 C1235 1.399 . S
C1240 C1239 1.394 . S
C1240 C1241 1.516 . S
C1241 C1240 1.516 . S
C1241 C1242 1.502 . S
C1241 C1243 1.561 . S
C1241 C1244 1.526 . S
C1242 H1226 0.959 . S
C1242 H1227 0.959 . S
C1242 H1228 0.961 . S
C1242 C1241 1.502 . S
C1243 H1229 0.960 . S
C1243 H1230 0.961 . S
C1243 H1231 0.959 . S
C1243 C1241 1.561 . S
C1244 C1241 1.526 . S
C1244 C1245 1.396 . S
C1244 C1249 1.390 . S
C1245 C1239 1.465 . S
C1245 C1244 1.396 . S
C1245 C1246 1.399 . S
C1246 H1232 0.929 . S
C1246 C1245 1.399 . S
C1246 C1247 1.385 . S
C1247 H1233 0.931 . S
C1247 C1246 1.385 . S
C1247 C1248 1.389 . S
C1248 C1247 1.389 . S
C1248 C1249 1.387 . S
C1249 H1234 0.930 . S
C1249 C1244 1.390 . S
C1249 C1248 1.387 . S
H1250 C1262 0.930 . S
H1251 C1264 0.930 . S
H1252 C1265 0.930 . S
H1253 C1269 0.959 . S
H1254 C1269 0.959 . S
H1255 C1269 0.961 . S
H1256 C1270 0.960 . S
H1257 C1270 0.961 . S
H1258 C1270 0.959 . S
H1259 C1273 0.929 . S
H1260 C1274 0.931 . S
H1261 C1276 0.930 . S
C1262 H1250 0.930 . S
C1262 C1263 1.399 . S
C1262 C1267 1.399 . S
C1263 C1262 1.399 . S
C1263 C1264 1.376 . S
C1264 H1251 0.930 . S
C1264 C1263 1.376 . S
C1264 C1265 1.388 . S
C1265 H1252 0.930 . S
C1265 C1264 1.388 . S
C1265 C1266 1.390 . S
C1266 C1265 1.390 . S
C1266 C1267 1.394 . S
C1266 C1272 1.465 . S
C1267 C1262 1.399 . S
C1267 C1266 1.394 . S
C1267 C1268 1.516 . S
C1268 C1267 1.516 . S
C1268 C1269 1.502 . S
C1268 C1270 1.561 . S
C1268 C1271 1.526 . S
C1269 H1253 0.959 . S
C1269 H1254 0.959 . S
C1269 H1255 0.961 . S
C1269 C1268 1.502 . S
C1270 H1256 0.960 . S
C1270 H1257 0.961 . S
C1270 H1258 0.959 . S
C1270 C1268 1.561 . S
C1271 C1268 1.526 . S
C1271 C1272 1.396 . S
C1271 C1276 1.390 . S
C1272 C1266 1.465 . S
C1272 C1271 1.396 . S
C1272 C1273 1.399 . S
C1273 H1259 0.929 . S
C1273 C1272 1.399 . S
C1273 C1274 1.385 . S
C1274 H1260 0.931 . S
C1274 C1273 1.385 . S
C1274 C1275 1.389 . S
C1275 C1274 1.389 . S
C1275 C1276 1.387 . S
C1276 H1261 0.930 . S
C1276 C1271 1.390 . S
C1276 C1275 1.387 . S
H1277 C1289 0.930 . S
H1278 C1291 0.930 . S
H1279 C1292 0.930 . S
H1280 C1296 0.959 . S
H1281 C1296 0.959 . S
H1282 C1296 0.961 . S
H1283 C1297 0.960 . S
H1284 C1297 0.961 . S
H1285 C1297 0.959 . S
H1286 C1300 0.929 . S
H1287 C1301 0.931 . S
H1288 C1303 0.930 . S
C1289 H1277 0.930 . S
C1289 C1290 1.399 . S
C1289 C1294 1.399 . S
C1290 C1289 1.399 . S
C1290 C1291 1.376 . S
C1291 H1278 0.930 . S
C1291 C1290 1.376 . S
C1291 C1292 1.388 . S
C1292 H1279 0.930 . S
C1292 C1291 1.388 . S
C1292 C1293 1.390 . S
C1293 C1292 1.390 . S
C1293 C1294 1.394 . S
C1293 C1299 1.465 . S
C1294 C1289 1.399 . S
C1294 C1293 1.394 . S
C1294 C1295 1.516 . S
C1295 C1294 1.516 . S
C1295 C1296 1.502 . S
C1295 C1297 1.561 . S
C1295 C1298 1.526 . S
C1296 H1280 0.959 . S
C1296 H1281 0.959 . S
C1296 H1282 0.961 . S
C1296 C1295 1.502 . S
C1297 H1283 0.960 . S
C1297 H1284 0.961 . S
C1297 H1285 0.959 . S
C1297 C1295 1.561 . S
C1298 C1295 1.526 . S
C1298 C1299 1.396 . S
C1298 C1303 1.390 . S
C1299 C1293 1.465 . S
C1299 C1298 1.396 . S
C1299 C1300 1.399 . S
C1300 H1286 0.929 . S
C1300 C1299 1.399 . S
C1300 C1301 1.385 . S
C1301 H1287 0.931 . S
C1301 C1300 1.385 . S
C1301 C1302 1.389 . S
C1302 C1301 1.389 . S
C1302 C1303 1.387 . S
C1303 H1288 0.930 . S
C1303 C1298 1.390 . S
C1303 C1302 1.387 . S
H1304 C1316 0.930 . S
H1305 C1318 0.930 . S
H1306 C1319 0.930 . S
H1307 C1323 0.959 . S
H1308 C1323 0.959 . S
H1309 C1323 0.961 . S
H1310 C1324 0.960 . S
H1311 C1324 0.961 . S
H1312 C1324 0.959 1_455 S
H1313 C1327 0.929 . S
H1314 C1328 0.931 . S
H1315 C1330 0.930 1_655 S
C1316 H1304 0.930 . S
C1316 C1317 1.399 . S
C1316 C1321 1.399 . S
C1317 C1316 1.399 . S
C1317 C1318 1.376 . S
C1318 H1305 0.930 . S
C1318 C1317 1.376 . S
C1318 C1319 1.388 . S
C1319 H1306 0.930 . S
C1319 C1318 1.388 . S
C1319 C1320 1.390 . S
C1320 C1319 1.390 . S
C1320 C1321 1.394 . S
C1320 C1326 1.465 . S
C1321 C1316 1.399 . S
C1321 C1320 1.394 . S
C1321 C1322 1.490 1_455 S
C1322 C1321 1.490 1_655 S
C1322 C1323 1.520 . S
C1322 C1324 1.577 . S
C1322 C1325 1.515 1_655 S
C1323 H1307 0.959 . S
C1323 H1308 0.959 . S
C1323 H1309 0.961 . S
C1323 C1322 1.520 . S
C1324 H1310 0.960 . S
C1324 H1311 0.961 . S
C1324 H1312 0.959 1_655 S
C1324 C1322 1.577 . S
C1325 C1322 1.515 1_455 S
C1325 C1326 1.396 . S
C1325 C1330 1.390 . S
C1326 C1320 1.465 . S
C1326 C1325 1.396 . S
C1326 C1327 1.399 . S
C1327 H1313 0.929 . S
C1327 C1326 1.399 . S
C1327 C1328 1.385 . S
C1328 H1314 0.931 . S
C1328 C1327 1.385 . S
C1328 C1329 1.389 . S
C1329 C1328 1.389 . S
C1329 C1330 1.387 . S
C1330 H1315 0.930 1_455 S
C1330 C1325 1.390 . S
C1330 C1329 1.387 . S
H1331 C1343 0.930 . S
H1332 C1345 0.930 . S
H1333 C1346 0.930 . S
H1334 C1350 0.959 . S
H1335 C1350 0.959 . S
H1336 C1350 0.961 . S
H1337 C1351 0.960 . S
H1338 C1351 0.961 . S
H1339 C1351 0.959 . S
H1340 C1354 0.929 . S
H1341 C1355 0.931 . S
H1342 C1357 0.930 . S
C1343 H1331 0.930 . S
C1343 C1344 1.399 . S
C1343 C1348 1.399 . S
C1344 C1343 1.399 . S
C1344 C1345 1.376 . S
C1345 H1332 0.930 . S
C1345 C1344 1.376 . S
C1345 C1346 1.388 . S
C1346 H1333 0.930 . S
C1346 C1345 1.388 . S
C1346 C1347 1.390 . S
C1347 C1346 1.390 . S
C1347 C1348 1.394 . S
C1347 C1353 1.465 . S
C1348 C1343 1.399 . S
C1348 C1347 1.394 . S
C1348 C1349 1.516 . S
C1349 C1348 1.516 . S
C1349 C1350 1.502 . S
C1349 C1351 1.561 . S
C1349 C1352 1.526 . S
C1350 H1334 0.959 . S
C1350 H1335 0.959 . S
C1350 H1336 0.961 . S
C1350 C1349 1.502 . S
C1351 H1337 0.960 . S
C1351 H1338 0.961 . S
C1351 H1339 0.959 . S
C1351 C1349 1.561 . S
C1352 C1349 1.526 . S
C1352 C1353 1.396 . S
C1352 C1357 1.390 . S
C1353 C1347 1.465 . S
C1353 C1352 1.396 . S
C1353 C1354 1.399 . S
C1354 H1340 0.929 . S
C1354 C1353 1.399 . S
C1354 C1355 1.385 . S
C1355 H1341 0.931 . S
C1355 C1354 1.385 . S
C1355 C1356 1.389 . S
C1356 C1355 1.389 . S
C1356 C1357 1.387 . S
C1357 H1342 0.930 . S
C1357 C1352 1.390 . S
C1357 C1356 1.387 . S
H1358 C1370 0.930 . S
H1359 C1372 0.930 . S
H1360 C1373 0.930 . S
H1361 C1377 0.959 . S
H1362 C1377 0.959 . S
H1363 C1377 0.961 . S
H1364 C1378 0.960 . S
H1365 C1378 0.961 . S
H1366 C1378 0.959 . S
H1367 C1381 0.929 . S
H1368 C1382 0.931 . S
H1369 C1384 0.930 . S
C1370 H1358 0.930 . S
C1370 C1371 1.399 . S
C1370 C1375 1.399 . S
C1371 C1370 1.399 . S
C1371 C1372 1.376 . S
C1372 H1359 0.930 . S
C1372 C1371 1.376 . S
C1372 C1373 1.388 . S
C1373 H1360 0.930 . S
C1373 C1372 1.388 . S
C1373 C1374 1.390 . S
C1374 C1373 1.390 . S
C1374 C1375 1.394 . S
C1374 C1380 1.465 . S
C1375 C1370 1.399 . S
C1375 C1374 1.394 . S
C1375 C1376 1.516 . S
C1376 C1375 1.516 . S
C1376 C1377 1.502 . S
C1376 C1378 1.561 . S
C1376 C1379 1.526 . S
C1377 H1361 0.959 . S
C1377 H1362 0.959 . S
C1377 H1363 0.961 . S
C1377 C1376 1.502 . S
C1378 H1364 0.960 . S
C1378 H1365 0.961 . S
C1378 H1366 0.959 . S
C1378 C1376 1.561 . S
C1379 C1376 1.526 . S
C1379 C1380 1.396 . S
C1379 C1384 1.390 . S
C1380 C1374 1.465 . S
C1380 C1379 1.396 . S
C1380 C1381 1.399 . S
C1381 H1367 0.929 . S
C1381 C1380 1.399 . S
C1381 C1382 1.385 . S
C1382 H1368 0.931 . S
C1382 C1381 1.385 . S
C1382 C1383 1.389 . S
C1383 C1382 1.389 . S
C1383 C1384 1.387 . S
C1384 H1369 0.930 . S
C1384 C1379 1.390 . S
C1384 C1383 1.387 . S
H1385 C1397 0.930 . S
H1386 C1399 0.930 . S
H1387 C1400 0.930 . S
H1388 C1404 0.959 . S
H1389 C1404 0.959 . S
H1390 C1404 0.961 . S
H1391 C1405 0.960 . S
H1392 C1405 0.961 . S
H1393 C1405 0.959 . S
H1394 C1408 0.929 . S
H1395 C1409 0.931 . S
H1396 C1411 0.930 . S
C1397 H1385 0.930 . S
C1397 C1398 1.399 . S
C1397 C1402 1.399 . S
C1398 C1397 1.399 . S
C1398 C1399 1.376 . S
C1399 H1386 0.930 . S
C1399 C1398 1.376 . S
C1399 C1400 1.388 . S
C1400 H1387 0.930 . S
C1400 C1399 1.388 . S
C1400 C1401 1.390 . S
C1401 C1400 1.390 . S
C1401 C1402 1.394 . S
C1401 C1407 1.465 . S
C1402 C1397 1.399 . S
C1402 C1401 1.394 . S
C1402 C1403 1.516 . S
C1403 C1402 1.516 . S
C1403 C1404 1.502 . S
C1403 C1405 1.561 . S
C1403 C1406 1.526 . S
C1404 H1388 0.959 . S
C1404 H1389 0.959 . S
C1404 H1390 0.961 . S
C1404 C1403 1.502 . S
C1405 H1391 0.960 . S
C1405 H1392 0.961 . S
C1405 H1393 0.959 . S
C1405 C1403 1.561 . S
C1406 C1403 1.526 . S
C1406 C1407 1.396 . S
C1406 C1411 1.390 . S
C1407 C1401 1.465 . S
C1407 C1406 1.396 . S
C1407 C1408 1.399 . S
C1408 H1394 0.929 . S
C1408 C1407 1.399 . S
C1408 C1409 1.385 . S
C1409 H1395 0.931 . S
C1409 C1408 1.385 . S
C1409 C1410 1.389 . S
C1410 C1409 1.389 . S
C1410 C1411 1.387 . S
C1411 H1396 0.930 . S
C1411 C1406 1.390 . S
C1411 C1410 1.387 . S
H1412 C1424 0.930 1_655 S
H1413 C1426 0.930 . S
H1414 C1427 0.930 . S
H1415 C1431 0.959 . S
H1416 C1431 0.959 . S
H1417 C1431 0.961 . S
H1418 C1432 0.960 . S
H1419 C1432 0.961 . S
H1420 C1432 0.959 . S
H1421 C1435 0.929 . S
H1422 C1436 0.931 . S
H1423 C1438 0.930 1_655 S
C1424 H1412 0.930 1_455 S
C1424 C1425 1.399 . S
C1424 C1429 1.399 . S
C1425 C1424 1.399 . S
C1425 C1426 1.376 . S
C1426 H1413 0.930 . S
C1426 C1425 1.376 . S
C1426 C1427 1.388 . S
C1427 H1414 0.930 . S
C1427 C1426 1.388 . S
C1427 C1428 1.390 . S
C1428 C1427 1.390 . S
C1428 C1429 1.394 . S
C1428 C1434 1.465 . S
C1429 C1424 1.399 . S
C1429 C1428 1.394 . S
C1429 C1430 1.516 1_455 S
C1430 C1429 1.516 1_655 S
C1430 C1431 1.513 . S
C1430 C1432 1.552 1_655 S
C1430 C1433 1.523 1_655 S
C1431 H1415 0.959 . S
C1431 H1416 0.959 . S
C1431 H1417 0.961 . S
C1431 C1430 1.513 . S
C1432 H1418 0.960 . S
C1432 H1419 0.961 . S
C1432 H1420 0.959 . S
C1432 C1430 1.552 1_455 S
C1433 C1430 1.523 1_455 S
C1433 C1434 1.396 . S
C1433 C1438 1.390 . S
C1434 C1428 1.465 . S
C1434 C1433 1.396 . S
C1434 C1435 1.399 . S
C1435 H1421 0.929 . S
C1435 C1434 1.399 . S
C1435 C1436 1.385 . S
C1436 H1422 0.931 . S
C1436 C1435 1.385 . S
C1436 C1437 1.389 . S
C1437 C1436 1.389 . S
C1437 C1438 1.387 . S
C1438 H1423 0.930 1_455 S
C1438 C1433 1.390 . S
C1438 C1437 1.387 . S
H1439 C1451 0.930 . S
H1440 C1453 0.930 . S
H1441 C1454 0.930 . S
H1442 C1458 0.959 . S
H1443 C1458 0.959 . S
H1444 C1458 0.961 . S
H1445 C1459 0.960 . S
H1446 C1459 0.961 . S
H1447 C1459 0.959 . S
H1448 C1462 0.929 . S
H1449 C1463 0.931 . S
H1450 C1465 0.930 . S
C1451 H1439 0.930 . S
C1451 C1452 1.399 . S
C1451 C1456 1.399 . S
C1452 C1451 1.399 . S
C1452 C1453 1.376 . S
C1453 H1440 0.930 . S
C1453 C1452 1.376 . S
C1453 C1454 1.388 . S
C1454 H1441 0.930 . S
C1454 C1453 1.388 . S
C1454 C1455 1.390 . S
C1455 C1454 1.390 . S
C1455 C1456 1.394 . S
C1455 C1461 1.465 . S
C1456 C1451 1.399 . S
C1456 C1455 1.394 . S
C1456 C1457 1.516 . S
C1457 C1456 1.516 . S
C1457 C1458 1.502 . S
C1457 C1459 1.561 . S
C1457 C1460 1.526 . S
C1458 H1442 0.959 . S
C1458 H1443 0.959 . S
C1458 H1444 0.961 . S
C1458 C1457 1.502 . S
C1459 H1445 0.960 . S
C1459 H1446 0.961 . S
C1459 H1447 0.959 . S
C1459 C1457 1.561 . S
C1460 C1457 1.526 . S
C1460 C1461 1.396 . S
C1460 C1465 1.390 . S
C1461 C1455 1.465 . S
C1461 C1460 1.396 . S
C1461 C1462 1.399 . S
C1462 H1448 0.929 . S
C1462 C1461 1.399 . S
C1462 C1463 1.385 . S
C1463 H1449 0.931 . S
C1463 C1462 1.385 . S
C1463 C1464 1.389 . S
C1464 C1463 1.389 . S
C1464 C1465 1.387 . S
C1465 H1450 0.930 . S
C1465 C1460 1.390 . S
C1465 C1464 1.387 . S
H1466 C1478 0.930 . S
H1467 C1480 0.930 . S
H1468 C1481 0.930 . S
H1469 C1485 0.959 . S
H1470 C1485 0.959 . S
H1471 C1485 0.961 . S
H1472 C1486 0.960 . S
H1473 C1486 0.961 1_554 S
H1474 C1486 0.959 . S
H1475 C1489 0.929 . S
H1476 C1490 0.931 . S
H1477 C1492 0.930 1_554 S
C1478 H1466 0.930 . S
C1478 C1479 1.399 . S
C1478 C1483 1.399 . S
C1479 C1478 1.399 . S
C1479 C1480 1.376 . S
C1480 H1467 0.930 . S
C1480 C1479 1.376 . S
C1480 C1481 1.388 . S
C1481 H1468 0.930 . S
C1481 C1480 1.388 . S
C1481 C1482 1.390 . S
C1482 C1481 1.390 . S
C1482 C1483 1.394 . S
C1482 C1488 1.465 . S
C1483 C1478 1.399 . S
C1483 C1482 1.394 . S
C1483 C1484 1.516 . S
C1484 C1483 1.516 . S
C1484 C1485 1.502 . S
C1484 C1486 1.561 . S
C1484 C1487 1.526 . S
C1485 H1469 0.959 . S
C1485 H1470 0.959 . S
C1485 H1471 0.961 . S
C1485 C1484 1.502 . S
C1486 H1472 0.960 . S
C1486 H1473 0.961 1_556 S
C1486 H1474 0.959 . S
C1486 C1484 1.561 . S
C1487 C1484 1.526 . S
C1487 C1488 1.396 . S
C1487 C1492 1.390 . S
C1488 C1482 1.465 . S
C1488 C1487 1.396 . S
C1488 C1489 1.399 . S
C1489 H1475 0.929 . S
C1489 C1488 1.399 . S
C1489 C1490 1.385 . S
C1490 H1476 0.931 . S
C1490 C1489 1.385 . S
C1490 C1491 1.389 . S
C1491 C1490 1.389 . S
C1491 C1492 1.387 . S
C1492 H1477 0.930 1_556 S
C1492 C1487 1.390 . S
C1492 C1491 1.387 . S
H1493 C1505 0.930 . S
H1494 C1507 0.930 . S
H1495 C1508 0.930 . S
H1496 C1512 0.959 . S
H1497 C1512 0.959 . S
H1498 C1512 0.961 . S
H1499 C1513 0.960 . S
H1500 C1513 0.961 . S
H1501 C1513 0.959 . S
H1502 C1516 0.929 . S
H1503 C1517 0.931 . S
H1504 C1519 0.930 . S
C1505 H1493 0.930 . S
C1505 C1506 1.399 . S
C1505 C1510 1.399 . S
C1506 C1505 1.399 . S
C1506 C1507 1.376 . S
C1507 H1494 0.930 . S
C1507 C1506 1.376 . S
C1507 C1508 1.388 . S
C1508 H1495 0.930 . S
C1508 C1507 1.388 . S
C1508 C1509 1.390 . S
C1509 C1508 1.390 . S
C1509 C1510 1.394 . S
C1509 C1515 1.465 . S
C1510 C1505 1.399 . S
C1510 C1509 1.394 . S
C1510 C1511 1.516 . S
C1511 C1510 1.516 . S
C1511 C1512 1.502 . S
C1511 C1513 1.561 . S
C1511 C1514 1.526 . S
C1512 H1496 0.959 . S
C1512 H1497 0.959 . S
C1512 H1498 0.961 . S
C1512 C1511 1.502 . S
C1513 H1499 0.960 . S
C1513 H1500 0.961 . S
C1513 H1501 0.959 . S
C1513 C1511 1.561 . S
C1514 C1511 1.526 . S
C1514 C1515 1.396 . S
C1514 C1519 1.390 . S
C1515 C1509 1.465 . S
C1515 C1514 1.396 . S
C1515 C1516 1.399 . S
C1516 H1502 0.929 . S
C1516 C1515 1.399 . S
C1516 C1517 1.385 . S
C1517 H1503 0.931 . S
C1517 C1516 1.385 . S
C1517 C1518 1.389 . S
C1518 C1517 1.389 . S
C1518 C1519 1.387 . S
C1519 H1504 0.930 . S
C1519 C1514 1.390 . S
C1519 C1518 1.387 . S
H1520 C1532 0.930 . S
H1521 C1534 0.930 . S
H1522 C1535 0.930 . S
H1523 C1539 0.962 . S
H1524 C1539 0.959 . S
H1525 C1539 0.961 . S
H1526 C1540 0.960 . S
H1527 C1540 0.961 . S
H1528 C1540 0.959 . S
H1529 C1543 0.929 . S
H1530 C1544 0.931 . S
H1531 C1546 0.930 1_565 S
C1532 H1520 0.930 . S
C1532 C1533 1.399 1_565 S
C1532 C1537 1.399 1_565 S
C1533 C1532 1.399 1_545 S
C1533 C1534 1.376 . S
C1534 H1521 0.930 . S
C1534 C1533 1.376 . S
C1534 C1535 1.388 . S
C1535 H1522 0.930 . S
C1535 C1534 1.388 . S
C1535 C1536 1.390 . S
C1536 C1535 1.390 . S
C1536 C1537 1.394 . S
C1536 C1542 1.465 . S
C1537 C1532 1.399 1_545 S
C1537 C1536 1.394 . S
C1537 C1538 1.516 1_545 S
C1538 C1537 1.516 1_565 S
C1538 C1539 1.502 . S
C1538 C1540 1.561 . S
C1538 C1541 1.526 1_565 S
C1539 H1523 0.962 . S
C1539 H1524 0.959 . S
C1539 H1525 0.961 . S
C1539 C1538 1.502 . S
C1540 H1526 0.960 . S
C1540 H1527 0.961 . S
C1540 H1528 0.959 . S
C1540 C1538 1.561 . S
C1541 C1538 1.526 1_545 S
C1541 C1542 1.396 . S
C1541 C1546 1.390 . S
C1542 C1536 1.465 . S
C1542 C1541 1.396 . S
C1542 C1543 1.399 . S
C1543 H1529 0.929 . S
C1543 C1542 1.399 . S
C1543 C1544 1.385 . S
C1544 H1530 0.931 . S
C1544 C1543 1.385 . S
C1544 C1545 1.389 . S
C1545 C1544 1.389 . S
C1545 C1546 1.387 . S
C1546 H1531 0.930 1_545 S
C1546 C1541 1.390 . S
C1546 C1545 1.387 . S
H1547 C1559 0.930 . S
H1548 C1561 0.930 . S
H1549 C1562 0.930 . S
H1550 C1566 0.959 . S
H1551 C1566 0.959 . S
H1552 C1566 0.961 . S
H1553 C1567 0.960 . S
H1554 C1567 0.961 . S
H1555 C1567 0.959 . S
H1556 C1570 0.929 . S
H1557 C1571 0.931 . S
H1558 C1573 0.930 . S
C1559 H1547 0.930 . S
C1559 C1560 1.399 . S
C1559 C1564 1.399 . S
C1560 C1559 1.399 . S
C1560 C1561 1.376 . S
C1561 H1548 0.930 . S
C1561 C1560 1.376 . S
C1561 C1562 1.388 . S
C1562 H1549 0.930 . S
C1562 C1561 1.388 . S
C1562 C1563 1.390 . S
C1563 C1562 1.390 . S
C1563 C1564 1.394 . S
C1563 C1569 1.465 . S
C1564 C1559 1.399 . S
C1564 C1563 1.394 . S
C1564 C1565 1.516 . S
C1565 C1564 1.516 . S
C1565 C1566 1.502 . S
C1565 C1567 1.561 . S
C1565 C1568 1.526 . S
C1566 H1550 0.959 . S
C1566 H1551 0.959 . S
C1566 H1552 0.961 . S
C1566 C1565 1.502 . S
C1567 H1553 0.960 . S
C1567 H1554 0.961 . S
C1567 H1555 0.959 . S
C1567 C1565 1.561 . S
C1568 C1565 1.526 . S
C1568 C1569 1.396 . S
C1568 C1573 1.390 . S
C1569 C1563 1.465 . S
C1569 C1568 1.396 . S
C1569 C1570 1.399 . S
C1570 H1556 0.929 . S
C1570 C1569 1.399 . S
C1570 C1571 1.385 . S
C1571 H1557 0.931 . S
C1571 C1570 1.385 . S
C1571 C1572 1.389 . S
C1572 C1571 1.389 . S
C1572 C1573 1.387 . S
C1573 H1558 0.930 . S
C1573 C1568 1.390 . S
C1573 C1572 1.387 . S
H1574 C1586 0.953 . S
H1575 C1588 0.930 . S
H1576 C1589 0.930 . S
H1577 C1593 0.959 1_545 S
H1578 C1593 0.959 . S
H1579 C1593 0.961 . S
H1580 C1594 0.960 . S
H1581 C1594 0.961 . S
H1582 C1594 0.959 . S
H1583 C1597 0.929 . S
H1584 C1598 0.931 . S
H1585 C1600 0.930 . S
C1586 H1574 0.953 . S
C1586 C1587 1.399 . S
C1586 C1591 1.399 . S
C1587 C1586 1.399 . S
C1587 C1588 1.376 . S
C1588 H1575 0.930 . S
C1588 C1587 1.376 . S
C1588 C1589 1.388 . S
C1589 H1576 0.930 . S
C1589 C1588 1.388 . S
C1589 C1590 1.390 . S
C1590 C1589 1.390 . S
C1590 C1591 1.394 . S
C1590 C1596 1.465 . S
C1591 C1586 1.399 . S
C1591 C1590 1.394 . S
C1591 C1592 1.516 . S
C1592 C1591 1.516 . S
C1592 C1593 1.502 1_545 S
C1592 C1594 1.561 1_545 S
C1592 C1595 1.526 . S
C1593 H1577 0.959 1_565 S
C1593 H1578 0.959 . S
C1593 H1579 0.961 . S
C1593 C1592 1.502 1_565 S
C1594 H1580 0.960 . S
C1594 H1581 0.961 . S
C1594 H1582 0.959 . S
C1594 C1592 1.561 1_565 S
C1595 C1592 1.526 . S
C1595 C1596 1.396 . S
C1595 C1600 1.390 . S
C1596 C1590 1.465 . S
C1596 C1595 1.396 . S
C1596 C1597 1.399 . S
C1597 H1583 0.929 . S
C1597 C1596 1.399 . S
C1597 C1598 1.385 . S
C1598 H1584 0.931 . S
C1598 C1597 1.385 . S
C1598 C1599 1.389 . S
C1599 C1598 1.389 . S
C1599 C1600 1.387 . S
C1600 H1585 0.930 . S
C1600 C1595 1.390 . S
C1600 C1599 1.387 . S
H1601 C1613 0.930 . S
H1602 C1615 0.930 . S
H1603 C1616 0.930 . S
H1604 C1620 0.959 . S
H1605 C1620 0.959 . S
H1606 C1620 0.961 . S
H1607 C1621 0.960 . S
H1608 C1621 0.961 . S
H1609 C1621 0.959 . S
H1610 C1624 0.929 . S
H1611 C1625 0.931 . S
H1612 C1627 0.930 . S
C1613 H1601 0.930 . S
C1613 C1614 1.399 . S
C1613 C1618 1.399 . S
C1614 C1613 1.399 . S
C1614 C1615 1.376 . S
C1615 H1602 0.930 . S
C1615 C1614 1.376 . S
C1615 C1616 1.388 . S
C1616 H1603 0.930 . S
C1616 C1615 1.388 . S
C1616 C1617 1.390 . S
C1617 C1616 1.390 . S
C1617 C1618 1.394 . S
C1617 C1623 1.465 . S
C1618 C1613 1.399 . S
C1618 C1617 1.394 . S
C1618 C1619 1.516 . S
C1619 C1618 1.516 . S
C1619 C1620 1.502 . S
C1619 C1621 1.561 . S
C1619 C1622 1.526 . S
C1620 H1604 0.959 . S
C1620 H1605 0.959 . S
C1620 H1606 0.961 . S
C1620 C1619 1.502 . S
C1621 H1607 0.960 . S
C1621 H1608 0.961 . S
C1621 H1609 0.959 . S
C1621 C1619 1.561 . S
C1622 C1619 1.526 . S
C1622 C1623 1.396 . S
C1622 C1627 1.390 . S
C1623 C1617 1.465 . S
C1623 C1622 1.396 . S
C1623 C1624 1.399 . S
C1624 H1610 0.929 . S
C1624 C1623 1.399 . S
C1624 C1625 1.385 . S
C1625 H1611 0.931 . S
C1625 C1624 1.385 . S
C1625 C1626 1.389 . S
C1626 C1625 1.389 . S
C1626 C1627 1.387 . S
C1627 H1612 0.930 . S
C1627 C1622 1.390 . S
C1627 C1626 1.387 . S
H1628 C1640 0.930 . S
H1629 C1642 0.930 . S
H1630 C1643 0.930 . S
H1631 C1647 0.959 . S
H1632 C1647 0.959 . S
H1633 C1647 0.961 . S
H1634 C1648 0.960 . S
H1635 C1648 0.961 . S
H1636 C1648 0.959 . S
H1637 C1651 0.929 . S
H1638 C1652 0.931 . S
H1639 C1654 0.930 1_565 S
C1640 H1628 0.930 . S
C1640 C1641 1.399 1_565 S
C1640 C1645 1.399 . S
C1641 C1640 1.399 1_545 S
C1641 C1642 1.376 . S
C1642 H1629 0.930 . S
C1642 C1641 1.376 . S
C1642 C1643 1.388 . S
C1643 H1630 0.930 . S
C1643 C1642 1.388 . S
C1643 C1644 1.390 . S
C1644 C1643 1.390 . S
C1644 C1645 1.394 1_545 S
C1644 C1650 1.465 . S
C1645 C1640 1.399 . S
C1645 C1644 1.394 1_565 S
C1645 C1646 1.516 . S
C1646 C1645 1.516 . S
C1646 C1647 1.502 . S
C1646 C1648 1.561 . S
C1646 C1649 1.526 1_565 S
C1647 H1631 0.959 . S
C1647 H1632 0.959 . S
C1647 H1633 0.961 . S
C1647 C1646 1.502 . S
C1648 H1634 0.960 . S
C1648 H1635 0.961 . S
C1648 H1636 0.959 . S
C1648 C1646 1.561 . S
C1649 C1646 1.526 1_545 S
C1649 C1650 1.396 . S
C1649 C1654 1.390 . S
C1650 C1644 1.465 . S
C1650 C1649 1.396 . S
C1650 C1651 1.399 . S
C1651 H1637 0.929 . S
C1651 C1650 1.399 . S
C1651 C1652 1.385 . S
C1652 H1638 0.931 . S
C1652 C1651 1.385 . S
C1652 C1653 1.389 . S
C1653 C1652 1.389 . S
C1653 C1654 1.387 . S
C1654 H1639 0.930 1_545 S
C1654 C1649 1.390 . S
C1654 C1653 1.387 . S
H1655 C1667 0.930 . S
H1656 C1669 0.930 . S
H1657 C1670 0.930 . S
H1658 C1674 0.959 . S
H1659 C1674 0.959 . S
H1660 C1674 0.961 . S
H1661 C1675 0.960 . S
H1662 C1675 0.961 . S
H1663 C1675 0.959 . S
H1664 C1678 0.929 . S
H1665 C1679 0.931 . S
H1666 C1681 0.930 . S
C1667 H1655 0.930 . S
C1667 C1668 1.399 . S
C1667 C1672 1.399 . S
C1668 C1667 1.399 . S
C1668 C1669 1.376 . S
C1669 H1656 0.930 . S
C1669 C1668 1.376 . S
C1669 C1670 1.388 . S
C1670 H1657 0.930 . S
C1670 C1669 1.388 . S
C1670 C1671 1.390 . S
C1671 C1670 1.390 . S
C1671 C1672 1.394 . S
C1671 C1677 1.465 . S
C1672 C1667 1.399 . S
C1672 C1671 1.394 . S
C1672 C1673 1.516 . S
C1673 C1672 1.516 . S
C1673 C1674 1.502 . S
C1673 C1675 1.561 . S
C1673 C1676 1.526 . S
C1674 H1658 0.959 . S
C1674 H1659 0.959 . S
C1674 H1660 0.961 . S
C1674 C1673 1.502 . S
C1675 H1661 0.960 . S
C1675 H1662 0.961 . S
C1675 H1663 0.959 . S
C1675 C1673 1.561 . S
C1676 C1673 1.526 . S
C1676 C1677 1.396 . S
C1676 C1681 1.390 . S
C1677 C1671 1.465 . S
C1677 C1676 1.396 . S
C1677 C1678 1.399 . S
C1678 H1664 0.929 . S
C1678 C1677 1.399 . S
C1678 C1679 1.385 . S
C1679 H1665 0.931 . S
C1679 C1678 1.385 . S
C1679 C1680 1.389 . S
C1680 C1679 1.389 . S
C1680 C1681 1.387 . S
C1681 H1666 0.930 . S
C1681 C1676 1.390 . S
C1681 C1680 1.387 . S
H1682 C1694 0.948 . S
H1683 C1696 0.930 . S
H1684 C1697 0.930 . S
H1685 C1701 0.959 1_545 S
H1686 C1701 0.959 . S
H1687 C1701 0.961 . S
H1688 C1702 0.960 . S
H1689 C1702 0.961 . S
H1690 C1702 0.959 . S
H1691 C1705 0.929 . S
H1692 C1706 0.931 . S
H1693 C1708 0.930 . S
C1694 H1682 0.948 . S
C1694 C1695 1.399 . S
C1694 C1699 1.399 . S
C1695 C1694 1.399 . S
C1695 C1696 1.376 . S
C1696 H1683 0.930 . S
C1696 C1695 1.376 . S
C1696 C1697 1.388 . S
C1697 H1684 0.930 . S
C1697 C1696 1.388 . S
C1697 C1698 1.390 . S
C1698 C1697 1.390 . S
C1698 C1699 1.394 . S
C1698 C1704 1.465 . S
C1699 C1694 1.399 . S
C1699 C1698 1.394 . S
C1699 C1700 1.516 1_545 S
C1700 C1699 1.516 1_565 S
C1700 C1701 1.502 . S
C1700 C1702 1.561 . S
C1700 C1703 1.526 1_565 S
C1701 H1685 0.959 1_565 S
C1701 H1686 0.959 . S
C1701 H1687 0.961 . S
C1701 C1700 1.502 . S
C1702 H1688 0.960 . S
C1702 H1689 0.961 . S
C1702 H1690 0.959 . S
C1702 C1700 1.561 . S
C1703 C1700 1.526 1_545 S
C1703 C1704 1.396 . S
C1703 C1708 1.390 1_545 S
C1704 C1698 1.465 . S
C1704 C1703 1.396 . S
C1704 C1705 1.399 . S
C1705 H1691 0.929 . S
C1705 C1704 1.399 . S
C1705 C1706 1.385 . S
C1706 H1692 0.931 . S
C1706 C1705 1.385 . S
C1706 C1707 1.389 . S
C1707 C1706 1.389 . S
C1707 C1708 1.387 1_545 S
C1708 H1693 0.930 . S
C1708 C1703 1.390 1_565 S
C1708 C1707 1.387 1_565 S
H1709 C1721 0.930 . S
H1710 C1723 0.930 . S
H1711 C1724 0.930 . S
H1712 C1728 0.959 . S
H1713 C1728 0.959 . S
H1714 C1728 0.961 . S
H1715 C1729 0.960 . S
H1716 C1729 0.961 . S
H1717 C1729 0.959 . S
H1718 C1732 0.929 . S
H1719 C1733 0.931 . S
H1720 C1735 0.930 . S
C1721 H1709 0.930 . S
C1721 C1722 1.399 . S
C1721 C1726 1.399 . S
C1722 C1721 1.399 . S
C1722 C1723 1.376 . S
C1723 H1710 0.930 . S
C1723 C1722 1.376 . S
C1723 C1724 1.388 . S
C1724 H1711 0.930 . S
C1724 C1723 1.388 . S
C1724 C1725 1.390 . S
C1725 C1724 1.390 . S
C1725 C1726 1.394 . S
C1725 C1731 1.465 . S
C1726 C1721 1.399 . S
C1726 C1725 1.394 . S
C1726 C1727 1.516 . S
C1727 C1726 1.516 . S
C1727 C1728 1.502 . S
C1727 C1729 1.561 . S
C1727 C1730 1.526 . S
C1728 H1712 0.959 . S
C1728 H1713 0.959 . S
C1728 H1714 0.961 . S
C1728 C1727 1.502 . S
C1729 H1715 0.960 . S
C1729 H1716 0.961 . S
C1729 H1717 0.959 . S
C1729 C1727 1.561 . S
C1730 C1727 1.526 . S
C1730 C1731 1.396 . S
C1730 C1735 1.390 . S
C1731 C1725 1.465 . S
C1731 C1730 1.396 . S
C1731 C1732 1.399 . S
C1732 H1718 0.929 . S
C1732 C1731 1.399 . S
C1732 C1733 1.385 . S
C1733 H1719 0.931 . S
C1733 C1732 1.385 . S
C1733 C1734 1.389 . S
C1734 C1733 1.389 . S
C1734 C1735 1.387 . S
C1735 H1720 0.930 . S
C1735 C1730 1.390 . S
C1735 C1734 1.387 . S
H1736 C1748 0.930 . S
H1737 C1750 0.930 . S
H1738 C1751 0.930 . S
H1739 C1755 0.959 . S
H1740 C1755 0.959 . S
H1741 C1755 0.961 . S
H1742 C1756 0.960 . S
H1743 C1756 0.961 . S
H1744 C1756 0.959 . S
H1745 C1759 0.929 . S
H1746 C1760 0.931 . S
H1747 C1762 0.930 . S
C1748 H1736 0.930 . S
C1748 C1749 1.399 . S
C1748 C1753 1.399 . S
C1749 C1748 1.399 . S
C1749 C1750 1.376 1_554 S
C1750 H1737 0.930 . S
C1750 C1749 1.376 1_556 S
C1750 C1751 1.388 . S
C1751 H1738 0.930 . S
C1751 C1750 1.388 . S
C1751 C1752 1.390 . S
C1752 C1751 1.390 . S
C1752 C1753 1.394 1_556 S
C1752 C1758 1.465 . S
C1753 C1748 1.399 . S
C1753 C1752 1.394 1_554 S
C1753 C1754 1.516 . S
C1754 C1753 1.516 . S
C1754 C1755 1.502 . S
C1754 C1756 1.561 . S
C1754 C1757 1.526 . S
C1755 H1739 0.959 . S
C1755 H1740 0.959 . S
C1755 H1741 0.961 . S
C1755 C1754 1.502 . S
C1756 H1742 0.960 . S
C1756 H1743 0.961 . S
C1756 H1744 0.959 . S
C1756 C1754 1.561 . S
C1757 C1754 1.526 . S
C1757 C1758 1.396 1_554 S
C1757 C1762 1.390 . S
C1758 C1752 1.465 . S
C1758 C1757 1.396 1_556 S
C1758 C1759 1.399 . S
C1759 H1745 0.929 . S
C1759 C1758 1.399 . S
C1759 C1760 1.385 . S
C1760 H1746 0.931 . S
C1760 C1759 1.385 . S
C1760 C1761 1.389 . S
C1761 C1760 1.389 . S
C1761 C1762 1.387 1_556 S
C1762 H1747 0.930 . S
C1762 C1757 1.390 . S
C1762 C1761 1.387 1_554 S
H1763 C1775 0.930 . S
H1764 C1777 0.929 1_556 S
H1765 C1778 0.930 . S
H1766 C1782 0.959 . S
H1767 C1782 0.959 . S
H1768 C1782 0.961 . S
H1769 C1783 0.960 . S
H1770 C1783 0.961 . S
H1771 C1783 0.959 . S
H1772 C1786 0.929 . S
H1773 C1787 0.931 . S
H1774 C1789 0.930 . S
C1775 H1763 0.930 . S
C1775 C1776 1.399 . S
C1775 C1780 1.399 . S
C1776 C1775 1.399 . S
C1776 C1777 1.378 . S
C1777 H1764 0.929 1_554 S
C1777 C1776 1.378 . S
C1777 C1778 1.388 1_554 S
C1778 H1765 0.930 . S
C1778 C1777 1.388 1_556 S
C1778 C1779 1.390 1_556 S
C1779 C1778 1.390 1_554 S
C1779 C1780 1.394 . S
C1779 C1785 1.465 . S
C1780 C1775 1.399 . S
C1780 C1779 1.394 . S
C1780 C1781 1.516 . S
C1781 C1780 1.516 . S
C1781 C1782 1.502 . S
C1781 C1783 1.561 . S
C1781 C1784 1.526 . S
C1782 H1766 0.959 . S
C1782 H1767 0.959 . S
C1782 H1768 0.961 . S
C1782 C1781 1.502 . S
C1783 H1769 0.960 . S
C1783 H1770 0.961 . S
C1783 H1771 0.959 . S
C1783 C1781 1.561 . S
C1784 C1781 1.526 . S
C1784 C1785 1.396 . S
C1784 C1789 1.390 . S
C1785 C1779 1.465 . S
C1785 C1784 1.396 . S
C1785 C1786 1.399 1_554 S
C1786 H1772 0.929 . S
C1786 C1785 1.399 1_556 S
C1786 C1787 1.385 . S
C1787 H1773 0.931 . S
C1787 C1786 1.385 . S
C1787 C1788 1.389 1_556 S
C1788 C1787 1.389 1_554 S
C1788 C1789 1.387 . S
C1789 H1774 0.930 . S
C1789 C1784 1.390 . S
C1789 C1788 1.387 . S
H1790 C1802 0.930 . S
H1791 C1804 0.930 . S
H1792 C1805 0.930 . S
H1793 C1809 0.959 . S
H1794 C1809 0.959 . S
H1795 C1809 0.961 . S
H1796 C1810 0.960 . S
H1797 C1810 0.961 . S
H1798 C1810 0.959 . S
H1799 C1813 0.929 . S
H1800 C1814 0.931 . S
H1801 C1816 0.930 . S
C1802 H1790 0.930 . S
C1802 C1803 1.399 . S
C1802 C1807 1.399 . S
C1803 C1802 1.399 . S
C1803 C1804 1.376 . S
C1804 H1791 0.930 . S
C1804 C1803 1.376 . S
C1804 C1805 1.388 . S
C1805 H1792 0.930 . S
C1805 C1804 1.388 . S
C1805 C1806 1.390 . S
C1806 C1805 1.390 . S
C1806 C1807 1.394 . S
C1806 C1812 1.465 . S
C1807 C1802 1.399 . S
C1807 C1806 1.394 . S
C1807 C1808 1.516 . S
C1808 C1807 1.516 . S
C1808 C1809 1.502 . S
C1808 C1810 1.561 . S
C1808 C1811 1.526 . S
C1809 H1793 0.959 . S
C1809 H1794 0.959 . S
C1809 H1795 0.961 . S
C1809 C1808 1.502 . S
C1810 H1796 0.960 . S
C1810 H1797 0.961 . S
C1810 H1798 0.959 . S
C1810 C1808 1.561 . S
C1811 C1808 1.526 . S
C1811 C1812 1.396 . S
C1811 C1816 1.390 . S
C1812 C1806 1.465 . S
C1812 C1811 1.396 . S
C1812 C1813 1.399 . S
C1813 H1799 0.929 . S
C1813 C1812 1.399 . S
C1813 C1814 1.385 . S
C1814 H1800 0.931 . S
C1814 C1813 1.385 . S
C1814 C1815 1.389 . S
C1815 C1814 1.389 . S
C1815 C1816 1.387 . S
C1816 H1801 0.930 . S
C1816 C1811 1.390 . S
C1816 C1815 1.387 . S
H1817 C1829 0.930 . S
H1818 C1831 0.930 . S
H1819 C1832 0.930 . S
H1820 C1836 0.959 . S
H1821 C1836 0.959 . S
H1822 C1836 0.961 . S
H1823 C1837 0.960 . S
H1824 C1837 0.961 . S
H1825 C1837 0.959 . S
H1826 C1840 0.929 . S
H1827 C1841 0.931 . S
H1828 C1843 0.930 . S
C1829 H1817 0.930 . S
C1829 C1830 1.399 . S
C1829 C1834 1.399 . S
C1830 C1829 1.399 . S
C1830 C1831 1.376 . S
C1831 H1818 0.930 . S
C1831 C1830 1.376 . S
C1831 C1832 1.388 . S
C1832 H1819 0.930 . S
C1832 C1831 1.388 . S
C1832 C1833 1.390 . S
C1833 C1832 1.390 . S
C1833 C1834 1.394 . S
C1833 C1839 1.465 . S
C1834 C1829 1.399 . S
C1834 C1833 1.394 . S
C1834 C1835 1.516 . S
C1835 C1834 1.516 . S
C1835 C1836 1.502 . S
C1835 C1837 1.561 . S
C1835 C1838 1.526 . S
C1836 H1820 0.959 . S
C1836 H1821 0.959 . S
C1836 H1822 0.961 . S
C1836 C1835 1.502 . S
C1837 H1823 0.960 . S
C1837 H1824 0.961 . S
C1837 H1825 0.959 . S
C1837 C1835 1.561 . S
C1838 C1835 1.526 . S
C1838 C1839 1.396 . S
C1838 C1843 1.390 . S
C1839 C1833 1.465 . S
C1839 C1838 1.396 . S
C1839 C1840 1.399 . S
C1840 H1826 0.929 . S
C1840 C1839 1.399 . S
C1840 C1841 1.385 . S
C1841 H1827 0.931 . S
C1841 C1840 1.385 . S
C1841 C1842 1.389 . S
C1842 C1841 1.389 . S
C1842 C1843 1.387 . S
C1843 H1828 0.930 . S
C1843 C1838 1.390 . S
C1843 C1842 1.387 . S
H1844 C1856 0.930 . S
H1845 C1858 0.930 . S
H1846 C1859 0.930 . S
H1847 C1863 0.959 . S
H1848 C1863 0.959 . S
H1849 C1863 0.961 . S
H1850 C1864 0.960 . S
H1851 C1864 0.961 . S
H1852 C1864 0.959 . S
H1853 C1867 0.929 . S
H1854 C1868 0.931 . S
H1855 C1870 0.930 . S
C1856 H1844 0.930 . S
C1856 C1857 1.399 . S
C1856 C1861 1.399 . S
C1857 C1856 1.399 . S
C1857 C1858 1.376 . S
C1858 H1845 0.930 . S
C1858 C1857 1.376 . S
C1858 C1859 1.388 . S
C1859 H1846 0.930 . S
C1859 C1858 1.388 . S
C1859 C1860 1.390 . S
C1860 C1859 1.390 . S
C1860 C1861 1.394 . S
C1860 C1866 1.465 . S
C1861 C1856 1.399 . S
C1861 C1860 1.394 . S
C1861 C1862 1.516 . S
C1862 C1861 1.516 . S
C1862 C1863 1.502 . S
C1862 C1864 1.561 . S
C1862 C1865 1.526 . S
C1863 H1847 0.959 . S
C1863 H1848 0.959 . S
C1863 H1849 0.961 . S
C1863 C1862 1.502 . S
C1864 H1850 0.960 . S
C1864 H1851 0.961 . S
C1864 H1852 0.959 . S
C1864 C1862 1.561 . S
C1865 C1862 1.526 . S
C1865 C1866 1.396 . S
C1865 C1870 1.390 . S
C1866 C1860 1.465 . S
C1866 C1865 1.396 . S
C1866 C1867 1.399 . S
C1867 H1853 0.929 . S
C1867 C1866 1.399 . S
C1867 C1868 1.385 . S
C1868 H1854 0.931 . S
C1868 C1867 1.385 . S
C1868 C1869 1.389 . S
C1869 C1868 1.389 . S
C1869 C1870 1.387 . S
C1870 H1855 0.930 . S
C1870 C1865 1.390 . S
C1870 C1869 1.387 . S
H1871 C1883 0.930 . S
H1872 C1885 0.930 . S
H1873 C1886 0.930 . S
H1874 C1890 0.959 . S
H1875 C1890 0.959 1_545 S
H1876 C1890 0.961 . S
H1877 C1891 0.960 . S
H1878 C1891 0.961 1_545 S
H1879 C1891 0.959 . S
H1880 C1894 0.929 . S
H1881 C1895 0.931 . S
H1882 C1897 0.930 1_545 S
C1883 H1871 0.930 . S
C1883 C1884 1.399 . S
C1883 C1888 1.399 . S
C1884 C1883 1.399 . S
C1884 C1885 1.376 . S
C1885 H1872 0.930 . S
C1885 C1884 1.376 . S
C1885 C1886 1.388 . S
C1886 H1873 0.930 . S
C1886 C1885 1.388 . S
C1886 C1887 1.390 . S
C1887 C1886 1.390 . S
C1887 C1888 1.394 . S
C1887 C1893 1.465 . S
C1888 C1883 1.399 . S
C1888 C1887 1.394 . S
C1888 C1889 1.516 . S
C1889 C1888 1.516 . S
C1889 C1890 1.502 . S
C1889 C1891 1.561 . S
C1889 C1892 1.526 . S
C1890 H1874 0.959 . S
C1890 H1875 0.959 1_565 S
C1890 H1876 0.961 . S
C1890 C1889 1.502 . S
C1891 H1877 0.960 . S
C1891 H1878 0.961 1_565 S
C1891 H1879 0.959 . S
C1891 C1889 1.561 . S
C1892 C1889 1.526 . S
C1892 C1893 1.396 . S
C1892 C1897 1.390 . S
C1893 C1887 1.465 . S
C1893 C1892 1.396 . S
C1893 C1894 1.399 . S
C1894 H1880 0.929 . S
C1894 C1893 1.399 . S
C1894 C1895 1.385 . S
C1895 H1881 0.931 . S
C1895 C1894 1.385 . S
C1895 C1896 1.389 . S
C1896 C1895 1.389 . S
C1896 C1897 1.387 . S
C1897 H1882 0.930 1_565 S
C1897 C1892 1.390 . S
C1897 C1896 1.387 . S
H1898 C1910 0.930 . S
H1899 C1912 0.930 . S
H1900 C1913 0.930 . S
H1901 C1917 0.959 . S
H1902 C1917 0.959 . S
H1903 C1917 0.961 . S
H1904 C1918 0.960 . S
H1905 C1918 0.961 . S
H1906 C1918 0.959 . S
H1907 C1921 0.929 . S
H1908 C1922 0.931 . S
H1909 C1924 0.930 . S
C1910 H1898 0.930 . S
C1910 C1911 1.399 . S
C1910 C1915 1.399 . S
C1911 C1910 1.399 . S
C1911 C1912 1.376 . S
C1912 H1899 0.930 . S
C1912 C1911 1.376 . S
C1912 C1913 1.388 . S
C1913 H1900 0.930 . S
C1913 C1912 1.388 . S
C1913 C1914 1.390 . S
C1914 C1913 1.390 . S
C1914 C1915 1.394 . S
C1914 C1920 1.465 . S
C1915 C1910 1.399 . S
C1915 C1914 1.394 . S
C1915 C1916 1.516 . S
C1916 C1915 1.516 . S
C1916 C1917 1.502 . S
C1916 C1918 1.561 . S
C1916 C1919 1.526 . S
C1917 H1901 0.959 . S
C1917 H1902 0.959 . S
C1917 H1903 0.961 . S
C1917 C1916 1.502 . S
C1918 H1904 0.960 . S
C1918 H1905 0.961 . S
C1918 H1906 0.959 . S
C1918 C1916 1.561 . S
C1919 C1916 1.526 . S
C1919 C1920 1.396 . S
C1919 C1924 1.390 . S
C1920 C1914 1.465 . S
C1920 C1919 1.396 . S
C1920 C1921 1.399 . S
C1921 H1907 0.929 . S
C1921 C1920 1.399 . S
C1921 C1922 1.385 . S
C1922 H1908 0.931 . S
C1922 C1921 1.385 . S
C1922 C1923 1.389 . S
C1923 C1922 1.389 . S
C1923 C1924 1.387 . S
C1924 H1909 0.930 . S
C1924 C1919 1.390 . S
C1924 C1923 1.387 . S
H1925 C1937 0.930 . S
H1926 C1939 0.930 . S
H1927 C1940 0.930 . S
H1928 C1944 0.959 . S
H1929 C1944 0.959 . S
H1930 C1944 0.961 . S
H1931 C1945 0.960 . S
H1932 C1945 0.961 . S
H1933 C1945 0.959 . S
H1934 C1948 0.929 . S
H1935 C1949 0.931 . S
H1936 C1951 0.930 . S
C1937 H1925 0.930 . S
C1937 C1938 1.399 . S
C1937 C1942 1.399 . S
C1938 C1937 1.399 . S
C1938 C1939 1.376 . S
C1939 H1926 0.930 . S
C1939 C1938 1.376 . S
C1939 C1940 1.388 . S
C1940 H1927 0.930 . S
C1940 C1939 1.388 . S
C1940 C1941 1.390 . S
C1941 C1940 1.390 . S
C1941 C1942 1.394 . S
C1941 C1947 1.465 . S
C1942 C1937 1.399 . S
C1942 C1941 1.394 . S
C1942 C1943 1.516 . S
C1943 C1942 1.516 . S
C1943 C1944 1.502 . S
C1943 C1945 1.561 . S
C1943 C1946 1.526 . S
C1944 H1928 0.959 . S
C1944 H1929 0.959 . S
C1944 H1930 0.961 . S
C1944 C1943 1.502 . S
C1945 H1931 0.960 . S
C1945 H1932 0.961 . S
C1945 H1933 0.959 . S
C1945 C1943 1.561 . S
C1946 C1943 1.526 . S
C1946 C1947 1.396 . S
C1946 C1951 1.390 . S
C1947 C1941 1.465 . S
C1947 C1946 1.396 . S
C1947 C1948 1.399 . S
C1948 H1934 0.929 . S
C1948 C1947 1.399 . S
C1948 C1949 1.385 . S
C1949 H1935 0.931 . S
C1949 C1948 1.385 . S
C1949 C1950 1.389 . S
C1950 C1949 1.389 . S
C1950 C1951 1.387 . S
C1951 H1936 0.930 . S
C1951 C1946 1.390 . S
C1951 C1950 1.387 . S
H1952 C1964 0.930 . S
H1953 C1966 0.930 . S
H1954 C1967 0.930 . S
H1955 C1971 0.959 . S
H1956 C1971 0.959 . S
H1957 C1971 0.961 . S
H1958 C1972 0.960 . S
H1959 C1972 0.961 . S
H1960 C1972 0.959 . S
H1961 C1975 0.929 . S
H1962 C1976 0.931 . S
H1963 C1978 0.930 . S
C1964 H1952 0.930 . S
C1964 C1965 1.399 . S
C1964 C1969 1.399 . S
C1965 C1964 1.399 . S
C1965 C1966 1.376 . S
C1966 H1953 0.930 . S
C1966 C1965 1.376 . S
C1966 C1967 1.388 . S
C1967 H1954 0.930 . S
C1967 C1966 1.388 . S
C1967 C1968 1.390 . S
C1968 C1967 1.390 . S
C1968 C1969 1.394 . S
C1968 C1974 1.465 . S
C1969 C1964 1.399 . S
C1969 C1968 1.394 . S
C1969 C1970 1.516 . S
C1970 C1969 1.516 . S
C1970 C1971 1.502 . S
C1970 C1972 1.561 . S
C1970 C1973 1.526 . S
C1971 H1955 0.959 . S
C1971 H1956 0.959 . S
C1971 H1957 0.961 . S
C1971 C1970 1.502 . S
C1972 H1958 0.960 . S
C1972 H1959 0.961 . S
C1972 H1960 0.959 . S
C1972 C1970 1.561 . S
C1973 C1970 1.526 . S
C1973 C1974 1.396 . S
C1973 C1978 1.390 . S
C1974 C1968 1.465 . S
C1974 C1973 1.396 . S
C1974 C1975 1.399 . S
C1975 H1961 0.929 . S
C1975 C1974 1.399 . S
C1975 C1976 1.385 . S
C1976 H1962 0.931 . S
C1976 C1975 1.385 . S
C1976 C1977 1.389 . S
C1977 C1976 1.389 . S
C1977 C1978 1.387 . S
C1978 H1963 0.930 . S
C1978 C1973 1.390 . S
C1978 C1977 1.387 . S
H1979 C1991 0.930 . S
H1980 C1993 0.930 . S
H1981 C1994 0.930 . S
H1982 C1998 0.959 . S
H1983 C1998 0.959 . S
H1984 C1998 0.961 . S
H1985 C1999 0.960 . S
H1986 C1999 0.961 . S
H1987 C1999 0.959 . S
H1988 C2002 0.929 . S
H1989 C2003 0.931 . S
H1990 C2005 0.930 . S
C1991 H1979 0.930 . S
C1991 C1992 1.399 . S
C1991 C1996 1.399 . S
C1992 C1991 1.399 . S
C1992 C1993 1.376 . S
C1993 H1980 0.930 . S
C1993 C1992 1.376 . S
C1993 C1994 1.388 . S
C1994 H1981 0.930 . S
C1994 C1993 1.388 . S
C1994 C1995 1.390 . S
C1995 C1994 1.390 . S
C1995 C1996 1.394 . S
C1995 C2001 1.465 . S
C1996 C1991 1.399 . S
C1996 C1995 1.394 . S
C1996 C1997 1.516 . S
C1997 C1996 1.516 . S
C1997 C1998 1.502 . S
C1997 C1999 1.561 . S
C1997 C2000 1.526 . S
C1998 H1982 0.959 . S
C1998 H1983 0.959 . S
C1998 H1984 0.961 . S
C1998 C1997 1.502 . S
C1999 H1985 0.960 . S
C1999 H1986 0.961 . S
C1999 H1987 0.959 . S
C1999 C1997 1.561 . S
C2000 C1997 1.526 . S
C2000 C2001 1.396 . S
C2000 C2005 1.390 . S
C2001 C1995 1.465 . S
C2001 C2000 1.396 . S
C2001 C2002 1.399 . S
C2002 H1988 0.929 . S
C2002 C2001 1.399 . S
C2002 C2003 1.385 . S
C2003 H1989 0.931 . S
C2003 C2002 1.385 . S
C2003 C2004 1.389 . S
C2004 C2003 1.389 . S
C2004 C2005 1.387 . S
C2005 H1990 0.930 . S
C2005 C2000 1.390 . S
C2005 C2004 1.387 . S
H2006 C2018 0.930 . S
H2007 C2020 0.930 . S
H2008 C2021 0.930 . S
H2009 C2025 0.959 . S
H2010 C2025 0.959 . S
H2011 C2025 0.961 . S
H2012 C2026 0.960 . S
H2013 C2026 0.961 . S
H2014 C2026 0.959 1_455 S
H2015 C2029 0.929 . S
H2016 C2030 0.937 1_554 S
H2017 C2032 0.930 . S
C2018 H2006 0.930 . S
C2018 C2019 1.399 1_655 S
C2018 C2023 1.398 . S
C2019 C2018 1.399 1_455 S
C2019 C2020 1.376 . S
C2020 H2007 0.930 . S
C2020 C2019 1.376 . S
C2020 C2021 1.388 . S
C2021 H2008 0.930 . S
C2021 C2020 1.388 . S
C2021 C2022 1.390 . S
C2022 C2021 1.390 . S
C2022 C2023 1.370 1_455 S
C2022 C2028 1.465 . S
C2023 C2018 1.398 . S
C2023 C2022 1.370 1_655 S
C2023 C2024 1.539 . S
C2024 C2023 1.539 . S
C2024 C2025 1.502 . S
C2024 C2026 1.561 1_556 S
C2024 C2027 1.525 1_655 S
C2025 H2009 0.959 . S
C2025 H2010 0.959 . S
C2025 H2011 0.961 . S
C2025 C2024 1.502 . S
C2026 H2012 0.960 . S
C2026 H2013 0.961 . S
C2026 H2014 0.959 1_655 S
C2026 C2024 1.561 1_554 S
C2027 C2024 1.525 1_455 S
C2027 C2028 1.398 . S
C2027 C2032 1.388 1_456 S
C2028 C2022 1.465 . S
C2028 C2027 1.398 . S
C2028 C2029 1.399 . S
C2029 H2015 0.929 . S
C2029 C2028 1.399 . S
C2029 C2030 1.416 . S
C2030 H2016 0.937 1_556 S
C2030 C2029 1.416 . S
C2030 C2031 1.358 1_556 S
C2031 C2030 1.358 1_554 S
C2031 C2032 1.387 1_455 S
C2032 H2017 0.930 . S
C2032 C2027 1.388 1_654 S
C2032 C2031 1.387 1_655 S
H2033 C2045 0.930 . S
H2034 C2047 0.930 . S
H2035 C2048 0.930 . S
H2036 C2052 0.959 . S
H2037 C2052 0.959 . S
H2038 C2052 0.961 . S
H2039 C2053 0.960 . S
H2040 C2053 0.961 . S
H2041 C2053 0.959 . S
H2042 C2056 0.929 . S
H2043 C2057 0.931 . S
H2044 C2059 0.930 . S
C2045 H2033 0.930 . S
C2045 C2046 1.399 . S
C2045 C2050 1.399 . S
C2046 C2045 1.399 . S
C2046 C2047 1.376 . S
C2047 H2034 0.930 . S
C2047 C2046 1.376 . S
C2047 C2048 1.388 . S
C2048 H2035 0.930 . S
C2048 C2047 1.388 . S
C2048 C2049 1.390 . S
C2049 C2048 1.390 . S
C2049 C2050 1.394 . S
C2049 C2055 1.465 . S
C2050 C2045 1.399 . S
C2050 C2049 1.394 . S
C2050 C2051 1.516 . S
C2051 C2050 1.516 . S
C2051 C2052 1.502 . S
C2051 C2053 1.561 . S
C2051 C2054 1.526 . S
C2052 H2036 0.959 . S
C2052 H2037 0.959 . S
C2052 H2038 0.961 . S
C2052 C2051 1.502 . S
C2053 H2039 0.960 . S
C2053 H2040 0.961 . S
C2053 H2041 0.959 . S
C2053 C2051 1.561 . S
C2054 C2051 1.526 . S
C2054 C2055 1.396 . S
C2054 C2059 1.390 . S
C2055 C2049 1.465 . S
C2055 C2054 1.396 . S
C2055 C2056 1.399 . S
C2056 H2042 0.929 . S
C2056 C2055 1.399 . S
C2056 C2057 1.385 . S
C2057 H2043 0.931 . S
C2057 C2056 1.385 . S
C2057 C2058 1.389 . S
C2058 C2057 1.389 . S
C2058 C2059 1.387 . S
C2059 H2044 0.930 . S
C2059 C2054 1.390 . S
C2059 C2058 1.387 . S
H2060 C2072 0.930 . S
H2061 C2074 0.930 . S
H2062 C2075 0.930 . S
H2063 C2079 0.959 . S
H2064 C2079 0.959 . S
H2065 C2079 0.961 . S
H2066 C2080 0.960 . S
H2067 C2080 0.961 . S
H2068 C2080 0.959 . S
H2069 C2083 0.929 . S
H2070 C2084 0.931 . S
H2071 C2086 0.930 . S
C2072 H2060 0.930 . S
C2072 C2073 1.399 . S
C2072 C2077 1.399 . S
C2073 C2072 1.399 . S
C2073 C2074 1.376 . S
C2074 H2061 0.930 . S
C2074 C2073 1.376 . S
C2074 C2075 1.388 . S
C2075 H2062 0.930 . S
C2075 C2074 1.388 . S
C2075 C2076 1.390 . S
C2076 C2075 1.390 . S
C2076 C2077 1.394 . S
C2076 C2082 1.465 . S
C2077 C2072 1.399 . S
C2077 C2076 1.394 . S
C2077 C2078 1.516 . S
C2078 C2077 1.516 . S
C2078 C2079 1.502 . S
C2078 C2080 1.561 . S
C2078 C2081 1.526 . S
C2079 H2063 0.959 . S
C2079 H2064 0.959 . S
C2079 H2065 0.961 . S
C2079 C2078 1.502 . S
C2080 H2066 0.960 . S
C2080 H2067 0.961 . S
C2080 H2068 0.959 . S
C2080 C2078 1.561 . S
C2081 C2078 1.526 . S
C2081 C2082 1.396 . S
C2081 C2086 1.390 . S
C2082 C2076 1.465 . S
C2082 C2081 1.396 . S
C2082 C2083 1.399 . S
C2083 H2069 0.929 . S
C2083 C2082 1.399 . S
C2083 C2084 1.385 . S
C2084 H2070 0.931 . S
C2084 C2083 1.385 . S
C2084 C2085 1.389 . S
C2085 C2084 1.389 . S
C2085 C2086 1.387 . S
C2086 H2071 0.930 . S
C2086 C2081 1.390 . S
C2086 C2085 1.387 . S
H2087 C2099 0.930 . S
H2088 C2101 0.930 . S
H2089 C2102 0.930 . S
H2090 C2106 0.959 . S
H2091 C2106 0.959 . S
H2092 C2106 0.961 . S
H2093 C2107 0.960 . S
H2094 C2107 0.961 . S
H2095 C2107 0.959 . S
H2096 C2110 0.929 . S
H2097 C2111 0.931 . S
H2098 C2113 0.930 . S
C2099 H2087 0.930 . S
C2099 C2100 1.399 . S
C2099 C2104 1.399 . S
C2100 C2099 1.399 . S
C2100 C2101 1.376 . S
C2101 H2088 0.930 . S
C2101 C2100 1.376 . S
C2101 C2102 1.388 . S
C2102 H2089 0.930 . S
C2102 C2101 1.388 . S
C2102 C2103 1.390 . S
C2103 C2102 1.390 . S
C2103 C2104 1.394 . S
C2103 C2109 1.465 . S
C2104 C2099 1.399 . S
C2104 C2103 1.394 . S
C2104 C2105 1.516 . S
C2105 C2104 1.516 . S
C2105 C2106 1.502 . S
C2105 C2107 1.561 . S
C2105 C2108 1.526 . S
C2106 H2090 0.959 . S
C2106 H2091 0.959 . S
C2106 H2092 0.961 . S
C2106 C2105 1.502 . S
C2107 H2093 0.960 . S
C2107 H2094 0.961 . S
C2107 H2095 0.959 . S
C2107 C2105 1.561 . S
C2108 C2105 1.526 . S
C2108 C2109 1.396 . S
C2108 C2113 1.390 . S
C2109 C2103 1.465 . S
C2109 C2108 1.396 . S
C2109 C2110 1.399 . S
C2110 H2096 0.929 . S
C2110 C2109 1.399 . S
C2110 C2111 1.385 . S
C2111 H2097 0.931 . S
C2111 C2110 1.385 . S
C2111 C2112 1.389 . S
C2112 C2111 1.389 . S
C2112 C2113 1.387 . S
C2113 H2098 0.930 . S
C2113 C2108 1.390 . S
C2113 C2112 1.387 . S
H2114 C2126 0.930 . S
H2115 C2128 0.930 . S
H2116 C2129 0.930 . S
H2117 C2133 0.959 1_655 S
H2118 C2133 0.959 . S
H2119 C2133 0.961 . S
H2120 C2134 0.960 . S
H2121 C2134 0.961 . S
H2122 C2134 0.959 . S
H2123 C2137 0.929 . S
H2124 C2138 0.931 . S
H2125 C2140 0.930 . S
C2126 H2114 0.930 . S
C2126 C2127 1.399 . S
C2126 C2131 1.399 . S
C2127 C2126 1.399 . S
C2127 C2128 1.376 1_455 S
C2128 H2115 0.930 . S
C2128 C2127 1.376 1_655 S
C2128 C2129 1.388 . S
C2129 H2116 0.930 . S
C2129 C2128 1.388 . S
C2129 C2130 1.406 . S
C2130 C2129 1.406 . S
C2130 C2131 1.385 1_655 S
C2130 C2136 1.463 . S
C2131 C2126 1.399 . S
C2131 C2130 1.385 1_455 S
C2131 C2132 1.516 . S
C2132 C2131 1.516 . S
C2132 C2133 1.502 . S
C2132 C2134 1.561 . S
C2132 C2135 1.526 . S
C2133 H2117 0.959 1_455 S
C2133 H2118 0.959 . S
C2133 H2119 0.961 . S
C2133 C2132 1.502 . S
C2134 H2120 0.960 . S
C2134 H2121 0.961 . S
C2134 H2122 0.959 . S
C2134 C2132 1.561 . S
C2135 C2132 1.526 . S
C2135 C2136 1.385 1_455 S
C2135 C2140 1.390 . S
C2136 C2130 1.463 . S
C2136 C2135 1.385 1_655 S
C2136 C2137 1.402 . S
C2137 H2123 0.929 . S
C2137 C2136 1.402 . S
C2137 C2138 1.385 . S
C2138 H2124 0.931 . S
C2138 C2137 1.385 . S
C2138 C2139 1.389 1_655 S
C2139 C2138 1.389 1_455 S
C2139 C2140 1.387 . S
C2140 H2125 0.930 . S
C2140 C2135 1.390 . S
C2140 C2139 1.387 . S
H2141 C2153 0.930 . S
H2142 C2155 0.930 . S
H2143 C2156 0.930 . S
H2144 C2160 0.959 . S
H2145 C2160 0.959 . S
H2146 C2160 0.961 . S
H2147 C2161 0.960 . S
H2148 C2161 0.961 . S
H2149 C2161 0.959 . S
H2150 C2164 0.929 . S
H2151 C2165 0.931 . S
H2152 C2167 0.930 . S
C2153 H2141 0.930 . S
C2153 C2154 1.399 . S
C2153 C2158 1.399 . S
C2154 C2153 1.399 . S
C2154 C2155 1.376 . S
C2155 H2142 0.930 . S
C2155 C2154 1.376 . S
C2155 C2156 1.388 . S
C2156 H2143 0.930 . S
C2156 C2155 1.388 . S
C2156 C2157 1.390 . S
C2157 C2156 1.390 . S
C2157 C2158 1.394 . S
C2157 C2163 1.465 . S
C2158 C2153 1.399 . S
C2158 C2157 1.394 . S
C2158 C2159 1.516 . S
C2159 C2158 1.516 . S
C2159 C2160 1.502 . S
C2159 C2161 1.561 . S
C2159 C2162 1.526 . S
C2160 H2144 0.959 . S
C2160 H2145 0.959 . S
C2160 H2146 0.961 . S
C2160 C2159 1.502 . S
C2161 H2147 0.960 . S
C2161 H2148 0.961 . S
C2161 H2149 0.959 . S
C2161 C2159 1.561 . S
C2162 C2159 1.526 . S
C2162 C2163 1.396 . S
C2162 C2167 1.390 . S
C2163 C2157 1.465 . S
C2163 C2162 1.396 . S
C2163 C2164 1.399 . S
C2164 H2150 0.929 . S
C2164 C2163 1.399 . S
C2164 C2165 1.385 . S
C2165 H2151 0.931 . S
C2165 C2164 1.385 . S
C2165 C2166 1.389 . S
C2166 C2165 1.389 . S
C2166 C2167 1.387 . S
C2167 H2152 0.930 . S
C2167 C2162 1.390 . S
C2167 C2166 1.387 . S
H2168 C2180 0.930 . S
H2169 C2182 0.930 . S
H2170 C2183 0.930 . S
H2171 C2187 0.959 . S
H2172 C2187 0.959 . S
H2173 C2187 0.961 . S
H2174 C2188 0.960 . S
H2175 C2188 0.961 . S
H2176 C2188 0.959 . S
H2177 C2191 0.929 . S
H2178 C2192 0.931 . S
H2179 C2194 0.930 . S
C2180 H2168 0.930 . S
C2180 C2181 1.399 . S
C2180 C2185 1.399 . S
C2181 C2180 1.399 . S
C2181 C2182 1.376 . S
C2182 H2169 0.930 . S
C2182 C2181 1.376 . S
C2182 C2183 1.388 . S
C2183 H2170 0.930 . S
C2183 C2182 1.388 . S
C2183 C2184 1.390 . S
C2184 C2183 1.390 . S
C2184 C2185 1.394 . S
C2184 C2190 1.465 . S
C2185 C2180 1.399 . S
C2185 C2184 1.394 . S
C2185 C2186 1.516 . S
C2186 C2185 1.516 . S
C2186 C2187 1.502 . S
C2186 C2188 1.561 . S
C2186 C2189 1.526 . S
C2187 H2171 0.959 . S
C2187 H2172 0.959 . S
C2187 H2173 0.961 . S
C2187 C2186 1.502 . S
C2188 H2174 0.960 . S
C2188 H2175 0.961 . S
C2188 H2176 0.959 . S
C2188 C2186 1.561 . S
C2189 C2186 1.526 . S
C2189 C2190 1.396 . S
C2189 C2194 1.390 . S
C2190 C2184 1.465 . S
C2190 C2189 1.396 . S
C2190 C2191 1.399 . S
C2191 H2177 0.929 . S
C2191 C2190 1.399 . S
C2191 C2192 1.385 . S
C2192 H2178 0.931 . S
C2192 C2191 1.385 . S
C2192 C2193 1.389 . S
C2193 C2192 1.389 . S
C2193 C2194 1.387 . S
C2194 H2179 0.930 . S
C2194 C2189 1.390 . S
C2194 C2193 1.387 . S
H2195 C2207 0.930 . S
H2196 C2209 0.930 . S
H2197 C2210 0.930 . S
H2198 C2214 0.959 . S
H2199 C2214 0.959 . S
H2200 C2214 0.961 . S
H2201 C2215 0.960 . S
H2202 C2215 0.961 . S
H2203 C2215 0.959 . S
H2204 C2218 0.929 . S
H2205 C2219 0.931 . S
H2206 C2221 0.930 . S
C2207 H2195 0.930 . S
C2207 C2208 1.399 . S
C2207 C2212 1.399 . S
C2208 C2207 1.399 . S
C2208 C2209 1.376 . S
C2209 H2196 0.930 . S
C2209 C2208 1.376 . S
C2209 C2210 1.388 . S
C2210 H2197 0.930 . S
C2210 C2209 1.388 . S
C2210 C2211 1.390 . S
C2211 C2210 1.390 . S
C2211 C2212 1.394 . S
C2211 C2217 1.465 . S
C2212 C2207 1.399 . S
C2212 C2211 1.394 . S
C2212 C2213 1.516 . S
C2213 C2212 1.516 . S
C2213 C2214 1.502 . S
C2213 C2215 1.561 . S
C2213 C2216 1.526 . S
C2214 H2198 0.959 . S
C2214 H2199 0.959 . S
C2214 H2200 0.961 . S
C2214 C2213 1.502 . S
C2215 H2201 0.960 . S
C2215 H2202 0.961 . S
C2215 H2203 0.959 . S
C2215 C2213 1.561 . S
C2216 C2213 1.526 . S
C2216 C2217 1.396 . S
C2216 C2221 1.390 . S
C2217 C2211 1.465 . S
C2217 C2216 1.396 . S
C2217 C2218 1.399 . S
C2218 H2204 0.929 . S
C2218 C2217 1.399 . S
C2218 C2219 1.385 . S
C2219 H2205 0.931 . S
C2219 C2218 1.385 . S
C2219 C2220 1.389 . S
C2220 C2219 1.389 . S
C2220 C2221 1.387 . S
C2221 H2206 0.930 . S
C2221 C2216 1.390 . S
C2221 C2220 1.387 . S
H2222 C2234 0.930 . S
H2223 C2236 0.930 . S
H2224 C2237 0.930 . S
H2225 C2241 0.959 . S
H2226 C2241 0.959 . S
H2227 C2241 0.961 . S
H2228 C2242 0.960 . S
H2229 C2242 0.961 . S
H2230 C2242 0.959 . S
H2231 C2245 0.929 . S
H2232 C2246 0.931 . S
H2233 C2248 0.930 . S
C2234 H2222 0.930 . S
C2234 C2235 1.399 . S
C2234 C2239 1.399 . S
C2235 C2234 1.399 . S
C2235 C2236 1.376 . S
C2236 H2223 0.930 . S
C2236 C2235 1.376 . S
C2236 C2237 1.388 . S
C2237 H2224 0.930 . S
C2237 C2236 1.388 . S
C2237 C2238 1.390 . S
C2238 C2237 1.390 . S
C2238 C2239 1.394 . S
C2238 C2244 1.465 . S
C2239 C2234 1.399 . S
C2239 C2238 1.394 . S
C2239 C2240 1.516 . S
C2240 C2239 1.516 . S
C2240 C2241 1.502 . S
C2240 C2242 1.561 . S
C2240 C2243 1.526 . S
C2241 H2225 0.959 . S
C2241 H2226 0.959 . S
C2241 H2227 0.961 . S
C2241 C2240 1.502 . S
C2242 H2228 0.960 . S
C2242 H2229 0.961 . S
C2242 H2230 0.959 . S
C2242 C2240 1.561 . S
C2243 C2240 1.526 . S
C2243 C2244 1.396 . S
C2243 C2248 1.390 . S
C2244 C2238 1.465 . S
C2244 C2243 1.396 . S
C2244 C2245 1.399 . S
C2245 H2231 0.929 . S
C2245 C2244 1.399 . S
C2245 C2246 1.385 . S
C2246 H2232 0.931 . S
C2246 C2245 1.385 . S
C2246 C2247 1.389 . S
C2247 C2246 1.389 . S
C2247 C2248 1.387 . S
C2248 H2233 0.930 . S
C2248 C2243 1.390 . S
C2248 C2247 1.387 . S
H2249 C2261 0.930 . S
H2250 C2263 0.930 . S
H2251 C2264 0.930 . S
H2252 C2268 0.959 . S
H2253 C2268 0.959 . S
H2254 C2268 0.961 . S
H2255 C2269 0.960 . S
H2256 C2269 0.961 . S
H2257 C2269 0.959 . S
H2258 C2272 0.929 . S
H2259 C2273 0.931 . S
H2260 C2275 0.930 . S
C2261 H2249 0.930 . S
C2261 C2262 1.399 . S
C2261 C2266 1.399 . S
C2262 C2261 1.399 . S
C2262 C2263 1.376 . S
C2263 H2250 0.930 . S
C2263 C2262 1.376 . S
C2263 C2264 1.388 . S
C2264 H2251 0.930 . S
C2264 C2263 1.388 . S
C2264 C2265 1.390 . S
C2265 C2264 1.390 . S
C2265 C2266 1.394 . S
C2265 C2271 1.465 . S
C2266 C2261 1.399 . S
C2266 C2265 1.394 . S
C2266 C2267 1.516 . S
C2267 C2266 1.516 . S
C2267 C2268 1.502 . S
C2267 C2269 1.561 . S
C2267 C2270 1.526 . S
C2268 H2252 0.959 . S
C2268 H2253 0.959 . S
C2268 H2254 0.961 . S
C2268 C2267 1.502 . S
C2269 H2255 0.960 . S
C2269 H2256 0.961 . S
C2269 H2257 0.959 . S
C2269 C2267 1.561 . S
C2270 C2267 1.526 . S
C2270 C2271 1.396 . S
C2270 C2275 1.390 . S
C2271 C2265 1.465 . S
C2271 C2270 1.396 . S
C2271 C2272 1.399 . S
C2272 H2258 0.929 . S
C2272 C2271 1.399 . S
C2272 C2273 1.385 . S
C2273 H2259 0.931 . S
C2273 C2272 1.385 . S
C2273 C2274 1.389 . S
C2274 C2273 1.389 . S
C2274 C2275 1.387 . S
C2275 H2260 0.930 . S
C2275 C2270 1.390 . S
C2275 C2274 1.387 . S
H2276 C2288 0.930 . S
H2277 C2290 0.930 . S
H2278 C2291 0.930 . S
H2279 C2295 0.959 . S
H2280 C2295 0.959 . S
H2281 C2295 0.961 . S
H2282 C2296 0.960 . S
H2283 C2296 0.961 . S
H2284 C2296 0.959 . S
H2285 C2299 0.929 . S
H2286 C2300 0.931 . S
H2287 C2302 0.930 . S
C2288 H2276 0.930 . S
C2288 C2289 1.399 . S
C2288 C2293 1.399 . S
C2289 C2288 1.399 . S
C2289 C2290 1.376 . S
C2290 H2277 0.930 . S
C2290 C2289 1.376 . S
C2290 C2291 1.388 . S
C2291 H2278 0.930 . S
C2291 C2290 1.388 . S
C2291 C2292 1.390 . S
C2292 C2291 1.390 . S
C2292 C2293 1.394 . S
C2292 C2298 1.465 . S
C2293 C2288 1.399 . S
C2293 C2292 1.394 . S
C2293 C2294 1.516 . S
C2294 C2293 1.516 . S
C2294 C2295 1.502 . S
C2294 C2296 1.561 . S
C2294 C2297 1.526 . S
C2295 H2279 0.959 . S
C2295 H2280 0.959 . S
C2295 H2281 0.961 . S
C2295 C2294 1.502 . S
C2296 H2282 0.960 . S
C2296 H2283 0.961 . S
C2296 H2284 0.959 . S
C2296 C2294 1.561 . S
C2297 C2294 1.526 . S
C2297 C2298 1.396 . S
C2297 C2302 1.390 . S
C2298 C2292 1.465 . S
C2298 C2297 1.396 . S
C2298 C2299 1.399 . S
C2299 H2285 0.929 . S
C2299 C2298 1.399 . S
C2299 C2300 1.385 . S
C2300 H2286 0.931 . S
C2300 C2299 1.385 . S
C2300 C2301 1.389 . S
C2301 C2300 1.389 . S
C2301 C2302 1.387 . S
C2302 H2287 0.930 . S
C2302 C2297 1.390 . S
C2302 C2301 1.387 . S
H2303 C2315 0.930 . S
H2304 C2317 0.930 . S
H2305 C2318 0.930 . S
H2306 C2322 0.959 . S
H2307 C2322 0.959 . S
H2308 C2322 0.961 . S
H2309 C2323 0.960 . S
H2310 C2323 0.961 . S
H2311 C2323 0.959 . S
H2312 C2326 0.929 . S
H2313 C2327 0.931 . S
H2314 C2329 0.930 . S
C2315 H2303 0.930 . S
C2315 C2316 1.399 . S
C2315 C2320 1.399 . S
C2316 C2315 1.399 . S
C2316 C2317 1.376 . S
C2317 H2304 0.930 . S
C2317 C2316 1.376 . S
C2317 C2318 1.388 . S
C2318 H2305 0.930 . S
C2318 C2317 1.388 . S
C2318 C2319 1.390 . S
C2319 C2318 1.390 . S
C2319 C2320 1.394 . S
C2319 C2325 1.465 . S
C2320 C2315 1.399 . S
C2320 C2319 1.394 . S
C2320 C2321 1.516 . S
C2321 C2320 1.516 . S
C2321 C2322 1.502 . S
C2321 C2323 1.561 . S
C2321 C2324 1.526 . S
C2322 H2306 0.959 . S
C2322 H2307 0.959 . S
C2322 H2308 0.961 . S
C2322 C2321 1.502 . S
C2323 H2309 0.960 . S
C2323 H2310 0.961 . S
C2323 H2311 0.959 . S
C2323 C2321 1.561 . S
C2324 C2321 1.526 . S
C2324 C2325 1.396 . S
C2324 C2329 1.390 . S
C2325 C2319 1.465 . S
C2325 C2324 1.396 . S
C2325 C2326 1.399 . S
C2326 H2312 0.929 . S
C2326 C2325 1.399 . S
C2326 C2327 1.385 . S
C2327 H2313 0.931 . S
C2327 C2326 1.385 . S
C2327 C2328 1.389 . S
C2328 C2327 1.389 . S
C2328 C2329 1.387 . S
C2329 H2314 0.930 . S
C2329 C2324 1.390 . S
C2329 C2328 1.387 . S
H2330 C2342 0.930 . S
H2331 C2344 0.930 . S
H2332 C2345 0.930 . S
H2333 C2349 0.959 . S
H2334 C2349 0.959 . S
H2335 C2349 0.961 . S
H2336 C2350 0.960 . S
H2337 C2350 0.961 . S
H2338 C2350 0.959 . S
H2339 C2353 0.929 . S
H2340 C2354 0.931 . S
H2341 C2356 0.930 . S
C2342 H2330 0.930 . S
C2342 C2343 1.399 . S
C2342 C2347 1.399 . S
C2343 C2342 1.399 . S
C2343 C2344 1.376 . S
C2344 H2331 0.930 . S
C2344 C2343 1.376 . S
C2344 C2345 1.388 . S
C2345 H2332 0.930 . S
C2345 C2344 1.388 . S
C2345 C2346 1.390 . S
C2346 C2345 1.390 . S
C2346 C2347 1.394 . S
C2346 C2352 1.465 . S
C2347 C2342 1.399 . S
C2347 C2346 1.394 . S
C2347 C2348 1.516 . S
C2348 C2347 1.516 . S
C2348 C2349 1.502 . S
C2348 C2350 1.561 . S
C2348 C2351 1.526 . S
C2349 H2333 0.959 . S
C2349 H2334 0.959 . S
C2349 H2335 0.961 . S
C2349 C2348 1.502 . S
C2350 H2336 0.960 . S
C2350 H2337 0.961 . S
C2350 H2338 0.959 . S
C2350 C2348 1.561 . S
C2351 C2348 1.526 . S
C2351 C2352 1.396 . S
C2351 C2356 1.390 . S
C2352 C2346 1.465 . S
C2352 C2351 1.396 . S
C2352 C2353 1.399 . S
C2353 H2339 0.929 . S
C2353 C2352 1.399 . S
C2353 C2354 1.385 . S
C2354 H2340 0.931 . S
C2354 C2353 1.385 . S
C2354 C2355 1.389 . S
C2355 C2354 1.389 . S
C2355 C2356 1.387 . S
C2356 H2341 0.930 . S
C2356 C2351 1.390 . S
C2356 C2355 1.387 . S
H2357 C2369 0.930 . S
H2358 C2371 0.930 . S
H2359 C2372 0.930 . S
H2360 C2376 0.959 . S
H2361 C2376 0.959 . S
H2362 C2376 0.961 . S
H2363 C2377 0.960 . S
H2364 C2377 0.961 . S
H2365 C2377 0.959 . S
H2366 C2380 0.929 . S
H2367 C2381 0.931 . S
H2368 C2383 0.930 . S
C2369 H2357 0.930 . S
C2369 C2370 1.399 . S
C2369 C2374 1.399 . S
C2370 C2369 1.399 . S
C2370 C2371 1.376 . S
C2371 H2358 0.930 . S
C2371 C2370 1.376 . S
C2371 C2372 1.388 . S
C2372 H2359 0.930 . S
C2372 C2371 1.388 . S
C2372 C2373 1.390 . S
C2373 C2372 1.390 . S
C2373 C2374 1.394 . S
C2373 C2379 1.465 . S
C2374 C2369 1.399 . S
C2374 C2373 1.394 . S
C2374 C2375 1.516 . S
C2375 C2374 1.516 . S
C2375 C2376 1.502 . S
C2375 C2377 1.561 . S
C2375 C2378 1.526 . S
C2376 H2360 0.959 . S
C2376 H2361 0.959 . S
C2376 H2362 0.961 . S
C2376 C2375 1.502 . S
C2377 H2363 0.960 . S
C2377 H2364 0.961 . S
C2377 H2365 0.959 . S
C2377 C2375 1.561 . S
C2378 C2375 1.526 . S
C2378 C2379 1.396 . S
C2378 C2383 1.390 . S
C2379 C2373 1.465 . S
C2379 C2378 1.396 . S
C2379 C2380 1.399 . S
C2380 H2366 0.929 . S
C2380 C2379 1.399 . S
C2380 C2381 1.385 . S
C2381 H2367 0.931 . S
C2381 C2380 1.385 . S
C2381 C2382 1.389 . S
C2382 C2381 1.389 . S
C2382 C2383 1.387 . S
C2383 H2368 0.930 . S
C2383 C2378 1.390 . S
C2383 C2382 1.387 . S
H2384 C2396 0.930 . S
H2385 C2398 0.930 . S
H2386 C2399 0.930 . S
H2387 C2403 0.959 . S
H2388 C2403 0.959 . S
H2389 C2403 0.961 . S
H2390 C2404 0.960 . S
H2391 C2404 0.961 . S
H2392 C2404 0.959 . S
H2393 C2407 0.929 . S
H2394 C2408 0.931 . S
H2395 C2410 0.930 . S
C2396 H2384 0.930 . S
C2396 C2397 1.399 . S
C2396 C2401 1.399 . S
C2397 C2396 1.399 . S
C2397 C2398 1.376 . S
C2398 H2385 0.930 . S
C2398 C2397 1.376 . S
C2398 C2399 1.388 . S
C2399 H2386 0.930 . S
C2399 C2398 1.388 . S
C2399 C2400 1.390 . S
C2400 C2399 1.390 . S
C2400 C2401 1.394 . S
C2400 C2406 1.465 . S
C2401 C2396 1.399 . S
C2401 C2400 1.394 . S
C2401 C2402 1.516 . S
C2402 C2401 1.516 . S
C2402 C2403 1.502 . S
C2402 C2404 1.561 . S
C2402 C2405 1.526 . S
C2403 H2387 0.959 . S
C2403 H2388 0.959 . S
C2403 H2389 0.961 . S
C2403 C2402 1.502 . S
C2404 H2390 0.960 . S
C2404 H2391 0.961 . S
C2404 H2392 0.959 . S
C2404 C2402 1.561 . S
C2405 C2402 1.526 . S
C2405 C2406 1.396 . S
C2405 C2410 1.390 . S
C2406 C2400 1.465 . S
C2406 C2405 1.396 . S
C2406 C2407 1.399 . S
C2407 H2393 0.929 . S
C2407 C2406 1.399 . S
C2407 C2408 1.385 . S
C2408 H2394 0.931 . S
C2408 C2407 1.385 . S
C2408 C2409 1.389 . S
C2409 C2408 1.389 . S
C2409 C2410 1.387 . S
C2410 H2395 0.930 . S
C2410 C2405 1.390 . S
C2410 C2409 1.387 . S
H2411 C2423 0.930 . S
H2412 C2425 0.930 . S
H2413 C2426 0.930 . S
H2414 C2430 0.959 . S
H2415 C2430 0.959 . S
H2416 C2430 0.961 . S
H2417 C2431 0.960 . S
H2418 C2431 0.961 . S
H2419 C2431 0.959 . S
H2420 C2434 0.929 . S
H2421 C2435 0.931 . S
H2422 C2437 0.930 . S
C2423 H2411 0.930 . S
C2423 C2424 1.399 . S
C2423 C2428 1.399 . S
C2424 C2423 1.399 . S
C2424 C2425 1.376 . S
C2425 H2412 0.930 . S
C2425 C2424 1.376 . S
C2425 C2426 1.388 . S
C2426 H2413 0.930 . S
C2426 C2425 1.388 . S
C2426 C2427 1.390 . S
C2427 C2426 1.390 . S
C2427 C2428 1.394 . S
C2427 C2433 1.465 . S
C2428 C2423 1.399 . S
C2428 C2427 1.394 . S
C2428 C2429 1.516 . S
C2429 C2428 1.516 . S
C2429 C2430 1.502 . S
C2429 C2431 1.561 . S
C2429 C2432 1.526 . S
C2430 H2414 0.959 . S
C2430 H2415 0.959 . S
C2430 H2416 0.961 . S
C2430 C2429 1.502 . S
C2431 H2417 0.960 . S
C2431 H2418 0.961 . S
C2431 H2419 0.959 . S
C2431 C2429 1.561 . S
C2432 C2429 1.526 . S
C2432 C2433 1.396 . S
C2432 C2437 1.390 . S
C2433 C2427 1.465 . S
C2433 C2432 1.396 . S
C2433 C2434 1.399 . S
C2434 H2420 0.929 . S
C2434 C2433 1.399 . S
C2434 C2435 1.385 . S
C2435 H2421 0.931 . S
C2435 C2434 1.385 . S
C2435 C2436 1.389 . S
C2436 C2435 1.389 . S
C2436 C2437 1.387 . S
C2437 H2422 0.930 . S
C2437 C2432 1.390 . S
C2437 C2436 1.387 . S
H2438 C2450 0.930 . S
H2439 C2452 0.930 . S
H2440 C2453 0.930 . S
H2441 C2457 0.959 . S
H2442 C2457 0.959 . S
H2443 C2457 0.961 . S
H2444 C2458 0.960 . S
H2445 C2458 0.961 . S
H2446 C2458 0.959 . S
H2447 C2461 0.929 . S
H2448 C2462 0.931 . S
H2449 C2464 0.930 . S
C2450 H2438 0.930 . S
C2450 C2451 1.399 . S
C2450 C2455 1.399 . S
C2451 C2450 1.399 . S
C2451 C2452 1.376 . S
C2452 H2439 0.930 . S
C2452 C2451 1.376 . S
C2452 C2453 1.388 . S
C2453 H2440 0.930 . S
C2453 C2452 1.388 . S
C2453 C2454 1.390 . S
C2454 C2453 1.390 . S
C2454 C2455 1.394 . S
C2454 C2460 1.465 . S
C2455 C2450 1.399 . S
C2455 C2454 1.394 . S
C2455 C2456 1.516 . S
C2456 C2455 1.516 . S
C2456 C2457 1.502 . S
C2456 C2458 1.561 . S
C2456 C2459 1.526 . S
C2457 H2441 0.959 . S
C2457 H2442 0.959 . S
C2457 H2443 0.961 . S
C2457 C2456 1.502 . S
C2458 H2444 0.960 . S
C2458 H2445 0.961 . S
C2458 H2446 0.959 . S
C2458 C2456 1.561 . S
C2459 C2456 1.526 . S
C2459 C2460 1.396 . S
C2459 C2464 1.390 . S
C2460 C2454 1.465 . S
C2460 C2459 1.396 . S
C2460 C2461 1.399 . S
C2461 H2447 0.929 . S
C2461 C2460 1.399 . S
C2461 C2462 1.385 . S
C2462 H2448 0.931 . S
C2462 C2461 1.385 . S
C2462 C2463 1.389 . S
C2463 C2462 1.389 . S
C2463 C2464 1.387 . S
C2464 H2449 0.930 . S
C2464 C2459 1.390 . S
C2464 C2463 1.387 . S
H2465 C2477 0.930 . S
H2466 C2479 0.930 . S
H2467 C2480 0.930 . S
H2468 C2484 0.959 1_545 S
H2469 C2484 0.959 1_545 S
H2470 C2484 0.961 . S
H2471 C2485 0.960 . S
H2472 C2485 0.961 . S
H2473 C2485 0.959 . S
H2474 C2488 0.929 . S
H2475 C2489 0.931 . S
H2476 C2491 0.930 1_545 S
C2477 H2465 0.930 . S
C2477 C2478 1.399 . S
C2477 C2482 1.399 . S
C2478 C2477 1.399 . S
C2478 C2479 1.376 1_554 S
C2479 H2466 0.930 . S
C2479 C2478 1.376 1_556 S
C2479 C2480 1.388 . S
C2480 H2467 0.930 . S
C2480 C2479 1.388 . S
C2480 C2481 1.390 1_556 S
C2481 C2480 1.390 1_554 S
C2481 C2482 1.394 . S
C2481 C2487 1.465 . S
C2482 C2477 1.399 . S
C2482 C2481 1.394 . S
C2482 C2483 1.516 . S
C2483 C2482 1.516 . S
C2483 C2484 1.502 . S
C2483 C2485 1.561 . S
C2483 C2486 1.526 . S
C2484 H2468 0.959 1_565 S
C2484 H2469 0.959 1_565 S
C2484 H2470 0.961 . S
C2484 C2483 1.502 . S
C2485 H2471 0.960 . S
C2485 H2472 0.961 . S
C2485 H2473 0.959 . S
C2485 C2483 1.561 . S
C2486 C2483 1.526 . S
C2486 C2487 1.396 . S
C2486 C2491 1.390 . S
C2487 C2481 1.465 . S
C2487 C2486 1.396 . S
C2487 C2488 1.399 1_554 S
C2488 H2474 0.929 . S
C2488 C2487 1.399 1_556 S
C2488 C2489 1.385 . S
C2489 H2475 0.931 . S
C2489 C2488 1.385 . S
C2489 C2490 1.389 1_566 S
C2490 C2489 1.389 1_544 S
C2490 C2491 1.387 1_545 S
C2491 H2476 0.930 1_565 S
C2491 C2486 1.390 . S
C2491 C2490 1.387 1_565 S
H2492 C2504 0.930 . S
H2493 C2506 0.930 . S
H2494 C2507 0.930 . S
H2495 C2511 0.959 . S
H2496 C2511 0.959 . S
H2497 C2511 0.961 . S
H2498 C2512 0.960 . S
H2499 C2512 0.961 . S
H2500 C2512 0.959 . S
H2501 C2515 0.929 . S
H2502 C2516 0.931 . S
H2503 C2518 0.930 . S
C2504 H2492 0.930 . S
C2504 C2505 1.399 . S
C2504 C2509 1.399 . S
C2505 C2504 1.399 . S
C2505 C2506 1.376 . S
C2506 H2493 0.930 . S
C2506 C2505 1.376 . S
C2506 C2507 1.388 . S
C2507 H2494 0.930 . S
C2507 C2506 1.388 . S
C2507 C2508 1.390 . S
C2508 C2507 1.390 . S
C2508 C2509 1.394 . S
C2508 C2514 1.465 . S
C2509 C2504 1.399 . S
C2509 C2508 1.394 . S
C2509 C2510 1.516 . S
C2510 C2509 1.516 . S
C2510 C2511 1.502 . S
C2510 C2512 1.561 . S
C2510 C2513 1.526 . S
C2511 H2495 0.959 . S
C2511 H2496 0.959 . S
C2511 H2497 0.961 . S
C2511 C2510 1.502 . S
C2512 H2498 0.960 . S
C2512 H2499 0.961 . S
C2512 H2500 0.959 . S
C2512 C2510 1.561 . S
C2513 C2510 1.526 . S
C2513 C2514 1.396 . S
C2513 C2518 1.390 . S
C2514 C2508 1.465 . S
C2514 C2513 1.396 . S
C2514 C2515 1.399 . S
C2515 H2501 0.929 . S
C2515 C2514 1.399 . S
C2515 C2516 1.385 . S
C2516 H2502 0.931 . S
C2516 C2515 1.385 . S
C2516 C2517 1.389 . S
C2517 C2516 1.389 . S
C2517 C2518 1.387 . S
C2518 H2503 0.930 . S
C2518 C2513 1.390 . S
C2518 C2517 1.387 . S
H2519 C2531 0.930 . S
H2520 C2533 0.930 . S
H2521 C2534 0.930 . S
H2522 C2538 0.959 . S
H2523 C2538 0.959 . S
H2524 C2538 0.961 . S
H2525 C2539 0.960 . S
H2526 C2539 0.961 . S
H2527 C2539 0.957 1_556 S
H2528 C2542 0.929 . S
H2529 C2543 0.931 . S
H2530 C2545 0.930 . S
C2531 H2519 0.930 . S
C2531 C2532 1.399 . S
C2531 C2536 1.399 . S
C2532 C2531 1.399 . S
C2532 C2533 1.376 . S
C2533 H2520 0.930 . S
C2533 C2532 1.376 . S
C2533 C2534 1.388 . S
C2534 H2521 0.930 . S
C2534 C2533 1.388 . S
C2534 C2535 1.390 . S
C2535 C2534 1.390 . S
C2535 C2536 1.394 . S
C2535 C2541 1.465 . S
C2536 C2531 1.399 . S
C2536 C2535 1.394 . S
C2536 C2537 1.516 . S
C2537 C2536 1.516 . S
C2537 C2538 1.502 . S
C2537 C2539 1.561 . S
C2537 C2540 1.526 . S
C2538 H2522 0.959 . S
C2538 H2523 0.959 . S
C2538 H2524 0.961 . S
C2538 C2537 1.502 . S
C2539 H2525 0.960 . S
C2539 H2526 0.961 . S
C2539 H2527 0.957 1_554 S
C2539 C2537 1.561 . S
C2540 C2537 1.526 . S
C2540 C2541 1.396 . S
C2540 C2545 1.390 . S
C2541 C2535 1.465 . S
C2541 C2540 1.396 . S
C2541 C2542 1.399 . S
C2542 H2528 0.929 . S
C2542 C2541 1.399 . S
C2542 C2543 1.385 . S
C2543 H2529 0.931 . S
C2543 C2542 1.385 . S
C2543 C2544 1.389 . S
C2544 C2543 1.389 . S
C2544 C2545 1.387 . S
C2545 H2530 0.930 . S
C2545 C2540 1.390 . S
C2545 C2544 1.387 . S
H2546 C2558 0.930 . S
H2547 C2560 0.930 . S
H2548 C2561 0.930 . S
H2549 C2565 0.959 . S
H2550 C2565 0.959 . S
H2551 C2565 0.961 . S
H2552 C2566 0.960 . S
H2553 C2566 0.961 . S
H2554 C2566 0.959 . S
H2555 C2569 0.929 . S
H2556 C2570 0.931 . S
H2557 C2572 0.930 . S
C2558 H2546 0.930 . S
C2558 C2559 1.399 . S
C2558 C2563 1.399 . S
C2559 C2558 1.399 . S
C2559 C2560 1.376 . S
C2560 H2547 0.930 . S
C2560 C2559 1.376 . S
C2560 C2561 1.388 . S
C2561 H2548 0.930 . S
C2561 C2560 1.388 . S
C2561 C2562 1.390 . S
C2562 C2561 1.390 . S
C2562 C2563 1.394 . S
C2562 C2568 1.465 . S
C2563 C2558 1.399 . S
C2563 C2562 1.394 . S
C2563 C2564 1.516 . S
C2564 C2563 1.516 . S
C2564 C2565 1.502 . S
C2564 C2566 1.561 . S
C2564 C2567 1.526 . S
C2565 H2549 0.959 . S
C2565 H2550 0.959 . S
C2565 H2551 0.961 . S
C2565 C2564 1.502 . S
C2566 H2552 0.960 . S
C2566 H2553 0.961 . S
C2566 H2554 0.959 . S
C2566 C2564 1.561 . S
C2567 C2564 1.526 . S
C2567 C2568 1.396 . S
C2567 C2572 1.390 . S
C2568 C2562 1.465 . S
C2568 C2567 1.396 . S
C2568 C2569 1.399 . S
C2569 H2555 0.929 . S
C2569 C2568 1.399 . S
C2569 C2570 1.385 . S
C2570 H2556 0.931 . S
C2570 C2569 1.385 . S
C2570 C2571 1.389 . S
C2571 C2570 1.389 . S
C2571 C2572 1.387 . S
C2572 H2557 0.930 . S
C2572 C2567 1.390 . S
C2572 C2571 1.387 . S
H2573 C2585 0.930 . S
H2574 C2587 0.930 . S
H2575 C2588 0.930 . S
H2576 C2592 0.959 . S
H2577 C2592 0.959 . S
H2578 C2592 0.961 . S
H2579 C2593 0.960 . S
H2580 C2593 0.961 . S
H2581 C2593 0.959 . S
H2582 C2596 0.929 . S
H2583 C2597 0.931 . S
H2584 C2599 0.930 . S
C2585 H2573 0.930 . S
C2585 C2586 1.399 . S
C2585 C2590 1.399 . S
C2586 C2585 1.399 . S
C2586 C2587 1.376 . S
C2587 H2574 0.930 . S
C2587 C2586 1.376 . S
C2587 C2588 1.388 . S
C2588 H2575 0.930 . S
C2588 C2587 1.388 . S
C2588 C2589 1.390 . S
C2589 C2588 1.390 . S
C2589 C2590 1.394 . S
C2589 C2595 1.465 . S
C2590 C2585 1.399 . S
C2590 C2589 1.394 . S
C2590 C2591 1.516 . S
C2591 C2590 1.516 . S
C2591 C2592 1.502 . S
C2591 C2593 1.561 . S
C2591 C2594 1.526 . S
C2592 H2576 0.959 . S
C2592 H2577 0.959 . S
C2592 H2578 0.961 . S
C2592 C2591 1.502 . S
C2593 H2579 0.960 . S
C2593 H2580 0.961 . S
C2593 H2581 0.959 . S
C2593 C2591 1.561 . S
C2594 C2591 1.526 . S
C2594 C2595 1.396 . S
C2594 C2599 1.390 . S
C2595 C2589 1.465 . S
C2595 C2594 1.396 . S
C2595 C2596 1.399 . S
C2596 H2582 0.929 . S
C2596 C2595 1.399 . S
C2596 C2597 1.385 . S
C2597 H2583 0.931 . S
C2597 C2596 1.385 . S
C2597 C2598 1.389 . S
C2598 C2597 1.389 . S
C2598 C2599 1.387 . S
C2599 H2584 0.930 . S
C2599 C2594 1.390 . S
C2599 C2598 1.387 . S
H2600 C2612 0.930 . S
H2601 C2614 0.930 . S
H2602 C2615 0.930 . S
H2603 C2619 0.959 . S
H2604 C2619 0.959 . S
H2605 C2619 0.961 . S
H2606 C2620 0.960 . S
H2607 C2620 0.961 . S
H2608 C2620 0.959 . S
H2609 C2623 0.929 . S
H2610 C2624 0.931 . S
H2611 C2626 0.930 . S
C2612 H2600 0.930 . S
C2612 C2613 1.399 . S
C2612 C2617 1.399 . S
C2613 C2612 1.399 . S
C2613 C2614 1.376 . S
C2614 H2601 0.930 . S
C2614 C2613 1.376 . S
C2614 C2615 1.388 . S
C2615 H2602 0.930 . S
C2615 C2614 1.388 . S
C2615 C2616 1.390 . S
C2616 C2615 1.390 . S
C2616 C2617 1.394 . S
C2616 C2622 1.465 . S
C2617 C2612 1.399 . S
C2617 C2616 1.394 . S
C2617 C2618 1.516 . S
C2618 C2617 1.516 . S
C2618 C2619 1.502 . S
C2618 C2620 1.561 . S
C2618 C2621 1.526 . S
C2619 H2603 0.959 . S
C2619 H2604 0.959 . S
C2619 H2605 0.961 . S
C2619 C2618 1.502 . S
C2620 H2606 0.960 . S
C2620 H2607 0.961 . S
C2620 H2608 0.959 . S
C2620 C2618 1.561 . S
C2621 C2618 1.526 . S
C2621 C2622 1.396 . S
C2621 C2626 1.390 . S
C2622 C2616 1.465 . S
C2622 C2621 1.396 . S
C2622 C2623 1.399 . S
C2623 H2609 0.929 . S
C2623 C2622 1.399 . S
C2623 C2624 1.385 . S
C2624 H2610 0.931 . S
C2624 C2623 1.385 . S
C2624 C2625 1.389 . S
C2625 C2624 1.389 . S
C2625 C2626 1.387 . S
C2626 H2611 0.930 . S
C2626 C2621 1.390 . S
C2626 C2625 1.387 . S
H2627 C2639 0.930 . S
H2628 C2641 0.930 . S
H2629 C2642 0.930 . S
H2630 C2646 0.959 . S
H2631 C2646 0.959 . S
H2632 C2646 0.961 . S
H2633 C2647 0.960 . S
H2634 C2647 0.961 . S
H2635 C2647 0.959 . S
H2636 C2650 0.929 . S
H2637 C2651 0.931 . S
H2638 C2653 0.930 . S
C2639 H2627 0.930 . S
C2639 C2640 1.399 . S
C2639 C2644 1.399 . S
C2640 C2639 1.399 . S
C2640 C2641 1.376 . S
C2641 H2628 0.930 . S
C2641 C2640 1.376 . S
C2641 C2642 1.388 . S
C2642 H2629 0.930 . S
C2642 C2641 1.388 . S
C2642 C2643 1.390 . S
C2643 C2642 1.390 . S
C2643 C2644 1.394 . S
C2643 C2649 1.465 . S
C2644 C2639 1.399 . S
C2644 C2643 1.394 . S
C2644 C2645 1.516 . S
C2645 C2644 1.516 . S
C2645 C2646 1.502 . S
C2645 C2647 1.561 . S
C2645 C2648 1.526 . S
C2646 H2630 0.959 . S
C2646 H2631 0.959 . S
C2646 H2632 0.961 . S
C2646 C2645 1.502 . S
C2647 H2633 0.960 . S
C2647 H2634 0.961 . S
C2647 H2635 0.959 . S
C2647 C2645 1.561 . S
C2648 C2645 1.526 . S
C2648 C2649 1.396 . S
C2648 C2653 1.390 . S
C2649 C2643 1.465 . S
C2649 C2648 1.396 . S
C2649 C2650 1.399 . S
C2650 H2636 0.929 . S
C2650 C2649 1.399 . S
C2650 C2651 1.385 . S
C2651 H2637 0.931 . S
C2651 C2650 1.385 . S
C2651 C2652 1.389 . S
C2652 C2651 1.389 . S
C2652 C2653 1.387 . S
C2653 H2638 0.930 . S
C2653 C2648 1.390 . S
C2653 C2652 1.387 . S
H2654 C2666 0.930 . S
H2655 C2668 0.930 1_655 S
H2656 C2669 0.930 . S
H2657 C2673 0.959 . S
H2658 C2673 0.959 . S
H2659 C2673 0.961 . S
H2660 C2674 0.960 . S
H2661 C2674 0.961 . S
H2662 C2674 0.959 . S
H2663 C2677 0.929 . S
H2664 C2678 0.915 1_655 S
H2665 C2680 0.930 . S
C2666 H2654 0.930 . S
C2666 C2667 1.399 . S
C2666 C2671 1.399 . S
C2667 C2666 1.399 . S
C2667 C2668 1.376 . S
C2668 H2655 0.930 1_455 S
C2668 C2667 1.376 . S
C2668 C2669 1.388 1_455 S
C2669 H2656 0.930 . S
C2669 C2668 1.388 1_655 S
C2669 C2670 1.390 1_655 S
C2670 C2669 1.390 1_455 S
C2670 C2671 1.394 . S
C2670 C2676 1.465 . S
C2671 C2666 1.399 . S
C2671 C2670 1.394 . S
C2671 C2672 1.516 . S
C2672 C2671 1.516 . S
C2672 C2673 1.502 . S
C2672 C2674 1.561 . S
C2672 C2675 1.526 . S
C2673 H2657 0.959 . S
C2673 H2658 0.959 . S
C2673 H2659 0.961 . S
C2673 C2672 1.502 . S
C2674 H2660 0.960 . S
C2674 H2661 0.961 . S
C2674 H2662 0.959 . S
C2674 C2672 1.561 . S
C2675 C2672 1.526 . S
C2675 C2676 1.396 . S
C2675 C2680 1.390 . S
C2676 C2670 1.465 . S
C2676 C2675 1.396 . S
C2676 C2677 1.399 1_455 S
C2677 H2663 0.929 . S
C2677 C2676 1.399 1_655 S
C2677 C2678 1.367 1_655 S
C2678 H2664 0.915 1_455 S
C2678 C2677 1.367 1_455 S
C2678 C2679 1.425 . S
C2679 C2678 1.425 . S
C2679 C2680 1.387 . S
C2680 H2665 0.930 . S
C2680 C2675 1.390 . S
C2680 C2679 1.387 . S
H2681 C2693 0.930 . S
H2682 C2695 0.930 . S
H2683 C2696 0.930 . S
H2684 C2700 0.959 . S
H2685 C2700 0.959 . S
H2686 C2700 0.961 . S
H2687 C2701 0.960 . S
H2688 C2701 0.961 . S
H2689 C2701 0.959 . S
H2690 C2704 0.929 . S
H2691 C2705 0.931 . S
H2692 C2707 0.930 . S
C2693 H2681 0.930 . S
C2693 C2694 1.399 . S
C2693 C2698 1.399 . S
C2694 C2693 1.399 . S
C2694 C2695 1.376 . S
C2695 H2682 0.930 . S
C2695 C2694 1.376 . S
C2695 C2696 1.388 . S
C2696 H2683 0.930 . S
C2696 C2695 1.388 . S
C2696 C2697 1.390 . S
C2697 C2696 1.390 . S
C2697 C2698 1.394 . S
C2697 C2703 1.465 . S
C2698 C2693 1.399 . S
C2698 C2697 1.394 . S
C2698 C2699 1.516 . S
C2699 C2698 1.516 . S
C2699 C2700 1.502 . S
C2699 C2701 1.561 . S
C2699 C2702 1.526 . S
C2700 H2684 0.959 . S
C2700 H2685 0.959 . S
C2700 H2686 0.961 . S
C2700 C2699 1.502 . S
C2701 H2687 0.960 . S
C2701 H2688 0.961 . S
C2701 H2689 0.959 . S
C2701 C2699 1.561 . S
C2702 C2699 1.526 . S
C2702 C2703 1.396 . S
C2702 C2707 1.390 . S
C2703 C2697 1.465 . S
C2703 C2702 1.396 . S
C2703 C2704 1.399 . S
C2704 H2690 0.929 . S
C2704 C2703 1.399 . S
C2704 C2705 1.385 . S
C2705 H2691 0.931 . S
C2705 C2704 1.385 . S
C2705 C2706 1.389 . S
C2706 C2705 1.389 . S
C2706 C2707 1.387 . S
C2707 H2692 0.930 . S
C2707 C2702 1.390 . S
C2707 C2706 1.387 . S
H2708 C2720 0.930 . S
H2709 C2722 0.930 . S
H2710 C2723 0.930 . S
H2711 C2727 0.959 . S
H2712 C2727 0.959 . S
H2713 C2727 0.961 . S
H2714 C2728 0.960 . S
H2715 C2728 0.961 1_554 S
H2716 C2728 0.968 . S
H2717 C2731 0.929 . S
H2718 C2732 0.931 . S
H2719 C2734 0.930 . S
C2720 H2708 0.930 . S
C2720 C2721 1.399 . S
C2720 C2725 1.399 . S
C2721 C2720 1.399 . S
C2721 C2722 1.376 . S
C2722 H2709 0.930 . S
C2722 C2721 1.376 . S
C2722 C2723 1.388 . S
C2723 H2710 0.930 . S
C2723 C2722 1.388 . S
C2723 C2724 1.390 . S
C2724 C2723 1.390 . S
C2724 C2725 1.394 . S
C2724 C2730 1.465 . S
C2725 C2720 1.399 . S
C2725 C2724 1.394 . S
C2725 C2726 1.516 . S
C2726 C2725 1.516 . S
C2726 C2727 1.502 . S
C2726 C2728 1.561 . S
C2726 C2729 1.526 . S
C2727 H2711 0.959 . S
C2727 H2712 0.959 . S
C2727 H2713 0.961 . S
C2727 C2726 1.502 . S
C2728 H2714 0.960 . S
C2728 H2715 0.961 1_556 S
C2728 H2716 0.968 . S
C2728 C2726 1.561 . S
C2729 C2726 1.526 . S
C2729 C2730 1.396 . S
C2729 C2734 1.390 . S
C2730 C2724 1.465 . S
C2730 C2729 1.396 . S
C2730 C2731 1.399 . S
C2731 H2717 0.929 . S
C2731 C2730 1.399 . S
C2731 C2732 1.385 . S
C2732 H2718 0.931 . S
C2732 C2731 1.385 . S
C2732 C2733 1.389 . S
C2733 C2732 1.389 . S
C2733 C2734 1.387 . S
C2734 H2719 0.930 . S
C2734 C2729 1.390 . S
C2734 C2733 1.387 . S
H2735 C2747 0.930 . S
H2736 C2749 0.930 . S
H2737 C2750 0.930 . S
H2738 C2754 0.959 . S
H2739 C2754 0.959 . S
H2740 C2754 0.961 . S
H2741 C2755 0.960 . S
H2742 C2755 0.961 . S
H2743 C2755 0.959 . S
H2744 C2758 0.929 . S
H2745 C2759 0.931 . S
H2746 C2761 0.930 . S
C2747 H2735 0.930 . S
C2747 C2748 1.399 . S
C2747 C2752 1.399 . S
C2748 C2747 1.399 . S
C2748 C2749 1.376 . S
C2749 H2736 0.930 . S
C2749 C2748 1.376 . S
C2749 C2750 1.388 . S
C2750 H2737 0.930 . S
C2750 C2749 1.388 . S
C2750 C2751 1.390 . S
C2751 C2750 1.390 . S
C2751 C2752 1.394 . S
C2751 C2757 1.465 . S
C2752 C2747 1.399 . S
C2752 C2751 1.394 . S
C2752 C2753 1.516 . S
C2753 C2752 1.516 . S
C2753 C2754 1.502 . S
C2753 C2755 1.561 . S
C2753 C2756 1.526 . S
C2754 H2738 0.959 . S
C2754 H2739 0.959 . S
C2754 H2740 0.961 . S
C2754 C2753 1.502 . S
C2755 H2741 0.960 . S
C2755 H2742 0.961 . S
C2755 H2743 0.959 . S
C2755 C2753 1.561 . S
C2756 C2753 1.526 . S
C2756 C2757 1.396 . S
C2756 C2761 1.390 . S
C2757 C2751 1.465 . S
C2757 C2756 1.396 . S
C2757 C2758 1.399 . S
C2758 H2744 0.929 . S
C2758 C2757 1.399 . S
C2758 C2759 1.385 . S
C2759 H2745 0.931 . S
C2759 C2758 1.385 . S
C2759 C2760 1.389 . S
C2760 C2759 1.389 . S
C2760 C2761 1.387 . S
C2761 H2746 0.930 . S
C2761 C2756 1.390 . S
C2761 C2760 1.387 . S
H2762 C2774 0.930 1_655 S
H2763 C2776 0.930 . S
H2764 C2777 0.930 . S
H2765 C2781 0.959 . S
H2766 C2781 0.959 . S
H2767 C2781 0.961 . S
H2768 C2782 0.960 . S
H2769 C2782 0.961 . S
H2770 C2782 0.959 1_455 S
H2771 C2785 0.929 . S
H2772 C2786 0.931 . S
H2773 C2788 0.930 1_655 S
C2774 H2762 0.930 1_455 S
C2774 C2775 1.399 . S
C2774 C2779 1.399 . S
C2775 C2774 1.399 . S
C2775 C2776 1.376 . S
C2776 H2763 0.930 . S
C2776 C2775 1.376 . S
C2776 C2777 1.388 . S
C2777 H2764 0.930 . S
C2777 C2776 1.388 . S
C2777 C2778 1.390 . S
C2778 C2777 1.390 . S
C2778 C2779 1.394 . S
C2778 C2784 1.465 . S
C2779 C2774 1.399 . S
C2779 C2778 1.394 . S
C2779 C2780 1.516 1_455 S
C2780 C2779 1.516 1_655 S
C2780 C2781 1.502 . S
C2780 C2782 1.561 . S
C2780 C2783 1.526 1_655 S
C2781 H2765 0.959 . S
C2781 H2766 0.959 . S
C2781 H2767 0.961 . S
C2781 C2780 1.502 . S
C2782 H2768 0.960 . S
C2782 H2769 0.961 . S
C2782 H2770 0.959 1_655 S
C2782 C2780 1.561 . S
C2783 C2780 1.526 1_455 S
C2783 C2784 1.396 . S
C2783 C2788 1.390 . S
C2784 C2778 1.465 . S
C2784 C2783 1.396 . S
C2784 C2785 1.399 . S
C2785 H2771 0.929 . S
C2785 C2784 1.399 . S
C2785 C2786 1.385 . S
C2786 H2772 0.931 . S
C2786 C2785 1.385 . S
C2786 C2787 1.389 . S
C2787 C2786 1.389 . S
C2787 C2788 1.387 . S
C2788 H2773 0.930 1_455 S
C2788 C2783 1.390 . S
C2788 C2787 1.387 . S
H2789 C2801 0.930 . S
H2790 C2803 0.930 . S
H2791 C2804 0.930 . S
H2792 C2808 0.959 . S
H2793 C2808 0.959 . S
H2794 C2808 0.961 . S
H2795 C2809 0.960 . S
H2796 C2809 0.961 . S
H2797 C2809 0.959 . S
H2798 C2812 0.929 . S
H2799 C2813 0.931 . S
H2800 C2815 0.930 . S
C2801 H2789 0.930 . S
C2801 C2802 1.399 . S
C2801 C2806 1.399 . S
C2802 C2801 1.399 . S
C2802 C2803 1.376 . S
C2803 H2790 0.930 . S
C2803 C2802 1.376 . S
C2803 C2804 1.388 . S
C2804 H2791 0.930 . S
C2804 C2803 1.388 . S
C2804 C2805 1.390 . S
C2805 C2804 1.390 . S
C2805 C2806 1.394 . S
C2805 C2811 1.465 . S
C2806 C2801 1.399 . S
C2806 C2805 1.394 . S
C2806 C2807 1.516 . S
C2807 C2806 1.516 . S
C2807 C2808 1.502 . S
C2807 C2809 1.561 . S
C2807 C2810 1.526 . S
C2808 H2792 0.959 . S
C2808 H2793 0.959 . S
C2808 H2794 0.961 . S
C2808 C2807 1.502 . S
C2809 H2795 0.960 . S
C2809 H2796 0.961 . S
C2809 H2797 0.959 . S
C2809 C2807 1.561 . S
C2810 C2807 1.526 . S
C2810 C2811 1.396 . S
C2810 C2815 1.390 . S
C2811 C2805 1.465 . S
C2811 C2810 1.396 . S
C2811 C2812 1.399 . S
C2812 H2798 0.929 . S
C2812 C2811 1.399 . S
C2812 C2813 1.385 . S
C2813 H2799 0.931 . S
C2813 C2812 1.385 . S
C2813 C2814 1.389 . S
C2814 C2813 1.389 . S
C2814 C2815 1.387 . S
C2815 H2800 0.930 . S
C2815 C2810 1.390 . S
C2815 C2814 1.387 . S
H2816 C2828 0.930 . S
H2817 C2830 0.930 . S
H2818 C2831 0.930 . S
H2819 C2835 0.959 . S
H2820 C2835 0.959 . S
H2821 C2835 0.961 . S
H2822 C2836 0.960 . S
H2823 C2836 0.961 . S
H2824 C2836 0.959 . S
H2825 C2839 0.929 . S
H2826 C2840 0.931 . S
H2827 C2842 0.930 . S
C2828 H2816 0.930 . S
C2828 C2829 1.399 . S
C2828 C2833 1.399 . S
C2829 C2828 1.399 . S
C2829 C2830 1.376 . S
C2830 H2817 0.930 . S
C2830 C2829 1.376 . S
C2830 C2831 1.388 . S
C2831 H2818 0.930 . S
C2831 C2830 1.388 . S
C2831 C2832 1.390 . S
C2832 C2831 1.390 . S
C2832 C2833 1.394 . S
C2832 C2838 1.465 . S
C2833 C2828 1.399 . S
C2833 C2832 1.394 . S
C2833 C2834 1.516 . S
C2834 C2833 1.516 . S
C2834 C2835 1.502 . S
C2834 C2836 1.561 . S
C2834 C2837 1.526 . S
C2835 H2819 0.959 . S
C2835 H2820 0.959 . S
C2835 H2821 0.961 . S
C2835 C2834 1.502 . S
C2836 H2822 0.960 . S
C2836 H2823 0.961 . S
C2836 H2824 0.959 . S
C2836 C2834 1.561 . S
C2837 C2834 1.526 . S
C2837 C2838 1.396 . S
C2837 C2842 1.390 . S
C2838 C2832 1.465 . S
C2838 C2837 1.396 . S
C2838 C2839 1.399 . S
C2839 H2825 0.929 . S
C2839 C2838 1.399 . S
C2839 C2840 1.385 . S
C2840 H2826 0.931 . S
C2840 C2839 1.385 . S
C2840 C2841 1.389 . S
C2841 C2840 1.389 . S
C2841 C2842 1.387 . S
C2842 H2827 0.930 . S
C2842 C2837 1.390 . S
C2842 C2841 1.387 . S
H2843 C2855 0.930 . S
H2844 C2857 0.930 . S
H2845 C2858 0.930 . S
H2846 C2862 0.959 . S
H2847 C2862 0.959 . S
H2848 C2862 0.961 . S
H2849 C2863 0.960 . S
H2850 C2863 0.961 . S
H2851 C2863 0.959 . S
H2852 C2866 0.929 . S
H2853 C2867 0.931 . S
H2854 C2869 0.930 . S
C2855 H2843 0.930 . S
C2855 C2856 1.399 . S
C2855 C2860 1.399 . S
C2856 C2855 1.399 . S
C2856 C2857 1.376 . S
C2857 H2844 0.930 . S
C2857 C2856 1.376 . S
C2857 C2858 1.388 . S
C2858 H2845 0.930 . S
C2858 C2857 1.388 . S
C2858 C2859 1.390 . S
C2859 C2858 1.390 . S
C2859 C2860 1.394 . S
C2859 C2865 1.465 . S
C2860 C2855 1.399 . S
C2860 C2859 1.394 . S
C2860 C2861 1.516 . S
C2861 C2860 1.516 . S
C2861 C2862 1.502 . S
C2861 C2863 1.561 . S
C2861 C2864 1.526 . S
C2862 H2846 0.959 . S
C2862 H2847 0.959 . S
C2862 H2848 0.961 . S
C2862 C2861 1.502 . S
C2863 H2849 0.960 . S
C2863 H2850 0.961 . S
C2863 H2851 0.959 . S
C2863 C2861 1.561 . S
C2864 C2861 1.526 . S
C2864 C2865 1.396 . S
C2864 C2869 1.390 . S
C2865 C2859 1.465 . S
C2865 C2864 1.396 . S
C2865 C2866 1.399 . S
C2866 H2852 0.929 . S
C2866 C2865 1.399 . S
C2866 C2867 1.385 . S
C2867 H2853 0.931 . S
C2867 C2866 1.385 . S
C2867 C2868 1.389 . S
C2868 C2867 1.389 . S
C2868 C2869 1.387 . S
C2869 H2854 0.930 . S
C2869 C2864 1.390 . S
C2869 C2868 1.387 . S
H2870 C2882 0.930 . S
H2871 C2884 0.930 . S
H2872 C2885 0.930 . S
H2873 C2889 0.959 . S
H2874 C2889 0.959 . S
H2875 C2889 0.961 . S
H2876 C2890 0.960 . S
H2877 C2890 0.961 . S
H2878 C2890 0.959 . S
H2879 C2893 0.929 1_455 S
H2880 C2894 0.931 . S
H2881 C2896 0.930 . S
C2882 H2870 0.930 . S
C2882 C2883 1.399 . S
C2882 C2887 1.399 . S
C2883 C2882 1.399 . S
C2883 C2884 1.376 . S
C2884 H2871 0.930 . S
C2884 C2883 1.376 . S
C2884 C2885 1.388 . S
C2885 H2872 0.930 . S
C2885 C2884 1.388 . S
C2885 C2886 1.390 . S
C2886 C2885 1.390 . S
C2886 C2887 1.394 . S
C2886 C2892 1.465 . S
C2887 C2882 1.399 . S
C2887 C2886 1.394 . S
C2887 C2888 1.516 . S
C2888 C2887 1.516 . S
C2888 C2889 1.502 . S
C2888 C2890 1.561 . S
C2888 C2891 1.526 . S
C2889 H2873 0.959 . S
C2889 H2874 0.959 . S
C2889 H2875 0.961 . S
C2889 C2888 1.502 . S
C2890 H2876 0.960 . S
C2890 H2877 0.961 . S
C2890 H2878 0.959 . S
C2890 C2888 1.561 . S
C2891 C2888 1.526 . S
C2891 C2892 1.396 . S
C2891 C2896 1.390 . S
C2892 C2886 1.465 . S
C2892 C2891 1.396 . S
C2892 C2893 1.399 . S
C2893 H2879 0.929 1_655 S
C2893 C2892 1.399 . S
C2893 C2894 1.385 1_655 S
C2894 H2880 0.931 . S
C2894 C2893 1.385 1_455 S
C2894 C2895 1.389 1_455 S
C2895 C2894 1.389 1_655 S
C2895 C2896 1.387 . S
C2896 H2881 0.930 . S
C2896 C2891 1.390 . S
C2896 C2895 1.387 . S
H2897 C2909 0.930 . S
H2898 C2911 0.930 . S
H2899 C2912 0.930 . S
H2900 C2916 0.959 . S
H2901 C2916 0.959 . S
H2902 C2916 0.961 . S
H2903 C2917 0.960 . S
H2904 C2917 0.961 . S
H2905 C2917 0.959 . S
H2906 C2920 0.929 . S
H2907 C2921 0.931 . S
H2908 C2923 0.930 . S
C2909 H2897 0.930 . S
C2909 C2910 1.399 . S
C2909 C2914 1.399 . S
C2910 C2909 1.399 . S
C2910 C2911 1.376 . S
C2911 H2898 0.930 . S
C2911 C2910 1.376 . S
C2911 C2912 1.388 . S
C2912 H2899 0.930 . S
C2912 C2911 1.388 . S
C2912 C2913 1.390 . S
C2913 C2912 1.390 . S
C2913 C2914 1.394 . S
C2913 C2919 1.465 . S
C2914 C2909 1.399 . S
C2914 C2913 1.394 . S
C2914 C2915 1.516 . S
C2915 C2914 1.516 . S
C2915 C2916 1.502 . S
C2915 C2917 1.561 . S
C2915 C2918 1.526 . S
C2916 H2900 0.959 . S
C2916 H2901 0.959 . S
C2916 H2902 0.961 . S
C2916 C2915 1.502 . S
C2917 H2903 0.960 . S
C2917 H2904 0.961 . S
C2917 H2905 0.959 . S
C2917 C2915 1.561 . S
C2918 C2915 1.526 . S
C2918 C2919 1.396 . S
C2918 C2923 1.390 . S
C2919 C2913 1.465 . S
C2919 C2918 1.396 . S
C2919 C2920 1.399 . S
C2920 H2906 0.929 . S
C2920 C2919 1.399 . S
C2920 C2921 1.385 . S
C2921 H2907 0.931 . S
C2921 C2920 1.385 . S
C2921 C2922 1.389 . S
C2922 C2921 1.389 . S
C2922 C2923 1.387 . S
C2923 H2908 0.930 . S
C2923 C2918 1.390 . S
C2923 C2922 1.387 . S
H2924 C2936 0.930 . S
H2925 C2938 0.930 . S
H2926 C2939 0.930 . S
H2927 C2943 0.959 . S
H2928 C2943 0.959 . S
H2929 C2943 0.961 . S
H2930 C2944 0.960 . S
H2931 C2944 0.961 . S
H2932 C2944 0.959 . S
H2933 C2947 0.929 . S
H2934 C2948 0.931 . S
H2935 C2950 0.930 . S
C2936 H2924 0.930 . S
C2936 C2937 1.399 . S
C2936 C2941 1.399 . S
C2937 C2936 1.399 . S
C2937 C2938 1.376 . S
C2938 H2925 0.930 . S
C2938 C2937 1.376 . S
C2938 C2939 1.388 . S
C2939 H2926 0.930 . S
C2939 C2938 1.388 . S
C2939 C2940 1.390 . S
C2940 C2939 1.390 . S
C2940 C2941 1.394 . S
C2940 C2946 1.465 . S
C2941 C2936 1.399 . S
C2941 C2940 1.394 . S
C2941 C2942 1.516 . S
C2942 C2941 1.516 . S
C2942 C2943 1.502 . S
C2942 C2944 1.561 . S
C2942 C2945 1.526 . S
C2943 H2927 0.959 . S
C2943 H2928 0.959 . S
C2943 H2929 0.961 . S
C2943 C2942 1.502 . S
C2944 H2930 0.960 . S
C2944 H2931 0.961 . S
C2944 H2932 0.959 . S
C2944 C2942 1.561 . S
C2945 C2942 1.526 . S
C2945 C2946 1.396 . S
C2945 C2950 1.390 . S
C2946 C2940 1.465 . S
C2946 C2945 1.396 . S
C2946 C2947 1.399 . S
C2947 H2933 0.929 . S
C2947 C2946 1.399 . S
C2947 C2948 1.385 . S
C2948 H2934 0.931 . S
C2948 C2947 1.385 . S
C2948 C2949 1.389 . S
C2949 C2948 1.389 . S
C2949 C2950 1.387 . S
C2950 H2935 0.930 . S
C2950 C2945 1.390 . S
C2950 C2949 1.387 . S
H2951 C2963 0.930 . S
H2952 C2965 0.930 . S
H2953 C2966 0.930 . S
H2954 C2970 0.959 . S
H2955 C2970 0.959 . S
H2956 C2970 0.961 . S
H2957 C2971 0.960 . S
H2958 C2971 0.961 . S
H2959 C2971 0.959 . S
H2960 C2974 0.929 . S
H2961 C2975 0.931 . S
H2962 C2977 0.930 . S
C2963 H2951 0.930 . S
C2963 C2964 1.399 . S
C2963 C2968 1.399 . S
C2964 C2963 1.399 . S
C2964 C2965 1.376 . S
C2965 H2952 0.930 . S
C2965 C2964 1.376 . S
C2965 C2966 1.388 . S
C2966 H2953 0.930 . S
C2966 C2965 1.388 . S
C2966 C2967 1.390 . S
C2967 C2966 1.390 . S
C2967 C2968 1.394 . S
C2967 C2973 1.465 . S
C2968 C2963 1.399 . S
C2968 C2967 1.394 . S
C2968 C2969 1.516 . S
C2969 C2968 1.516 . S
C2969 C2970 1.502 . S
C2969 C2971 1.561 . S
C2969 C2972 1.526 . S
C2970 H2954 0.959 . S
C2970 H2955 0.959 . S
C2970 H2956 0.961 . S
C2970 C2969 1.502 . S
C2971 H2957 0.960 . S
C2971 H2958 0.961 . S
C2971 H2959 0.959 . S
C2971 C2969 1.561 . S
C2972 C2969 1.526 . S
C2972 C2973 1.396 . S
C2972 C2977 1.390 . S
C2973 C2967 1.465 . S
C2973 C2972 1.396 . S
C2973 C2974 1.399 . S
C2974 H2960 0.929 . S
C2974 C2973 1.399 . S
C2974 C2975 1.385 . S
C2975 H2961 0.931 . S
C2975 C2974 1.385 . S
C2975 C2976 1.389 . S
C2976 C2975 1.389 . S
C2976 C2977 1.387 . S
C2977 H2962 0.930 . S
C2977 C2972 1.390 . S
C2977 C2976 1.387 . S
H2978 C2990 0.930 . S
H2979 C2992 0.930 . S
H2980 C2993 0.930 . S
H2981 C2997 0.959 . S
H2982 C2997 0.959 . S
H2983 C2997 0.961 . S
H2984 C2998 0.960 . S
H2985 C2998 0.961 . S
H2986 C2998 0.959 . S
H2987 C3001 0.929 . S
H2988 C3002 0.931 . S
H2989 C3004 0.930 . S
C2990 H2978 0.930 . S
C2990 C2991 1.399 . S
C2990 C2995 1.399 . S
C2991 C2990 1.399 . S
C2991 C2992 1.376 . S
C2992 H2979 0.930 . S
C2992 C2991 1.376 . S
C2992 C2993 1.388 . S
C2993 H2980 0.930 . S
C2993 C2992 1.388 . S
C2993 C2994 1.390 . S
C2994 C2993 1.390 . S
C2994 C2995 1.394 . S
C2994 C3000 1.465 . S
C2995 C2990 1.399 . S
C2995 C2994 1.394 . S
C2995 C2996 1.516 . S
C2996 C2995 1.516 . S
C2996 C2997 1.502 . S
C2996 C2998 1.561 . S
C2996 C2999 1.526 . S
C2997 H2981 0.959 . S
C2997 H2982 0.959 . S
C2997 H2983 0.961 . S
C2997 C2996 1.502 . S
C2998 H2984 0.960 . S
C2998 H2985 0.961 . S
C2998 H2986 0.959 . S
C2998 C2996 1.561 . S
C2999 C2996 1.526 . S
C2999 C3000 1.396 . S
C2999 C3004 1.390 . S
C3000 C2994 1.465 . S
C3000 C2999 1.396 . S
C3000 C3001 1.399 . S
C3001 H2987 0.929 . S
C3001 C3000 1.399 . S
C3001 C3002 1.385 . S
C3002 H2988 0.931 . S
C3002 C3001 1.385 . S
C3002 C3003 1.389 . S
C3003 C3002 1.389 . S
C3003 C3004 1.387 . S
C3004 H2989 0.930 . S
C3004 C2999 1.390 . S
C3004 C3003 1.387 . S
H3005 C3017 0.930 . S
H3006 C3019 0.930 . S
H3007 C3020 0.930 . S
H3008 C3024 0.959 . S
H3009 C3024 0.959 . S
H3010 C3024 0.961 . S
H3011 C3025 0.960 . S
H3012 C3025 0.961 . S
H3013 C3025 0.959 . S
H3014 C3028 0.929 . S
H3015 C3029 0.931 . S
H3016 C3031 0.930 . S
C3017 H3005 0.930 . S
C3017 C3018 1.399 . S
C3017 C3022 1.399 . S
C3018 C3017 1.399 . S
C3018 C3019 1.376 . S
C3019 H3006 0.930 . S
C3019 C3018 1.376 . S
C3019 C3020 1.388 . S
C3020 H3007 0.930 . S
C3020 C3019 1.388 . S
C3020 C3021 1.390 . S
C3021 C3020 1.390 . S
C3021 C3022 1.394 . S
C3021 C3027 1.465 . S
C3022 C3017 1.399 . S
C3022 C3021 1.394 . S
C3022 C3023 1.516 . S
C3023 C3022 1.516 . S
C3023 C3024 1.502 . S
C3023 C3025 1.561 . S
C3023 C3026 1.526 . S
C3024 H3008 0.959 . S
C3024 H3009 0.959 . S
C3024 H3010 0.961 . S
C3024 C3023 1.502 . S
C3025 H3011 0.960 . S
C3025 H3012 0.961 . S
C3025 H3013 0.959 . S
C3025 C3023 1.561 . S
C3026 C3023 1.526 . S
C3026 C3027 1.396 . S
C3026 C3031 1.390 . S
C3027 C3021 1.465 . S
C3027 C3026 1.396 . S
C3027 C3028 1.399 . S
C3028 H3014 0.929 . S
C3028 C3027 1.399 . S
C3028 C3029 1.385 . S
C3029 H3015 0.931 . S
C3029 C3028 1.385 . S
C3029 C3030 1.389 . S
C3030 C3029 1.389 . S
C3030 C3031 1.387 . S
C3031 H3016 0.930 . S
C3031 C3026 1.390 . S
C3031 C3030 1.387 . S
H3032 C3044 0.930 . S
H3033 C3046 0.930 . S
H3034 C3047 0.930 . S
H3035 C3051 0.959 . S
H3036 C3051 0.959 . S
H3037 C3051 0.961 . S
H3038 C3052 0.960 . S
H3039 C3052 0.961 . S
H3040 C3052 0.959 . S
H3041 C3055 0.929 . S
H3042 C3056 0.931 . S
H3043 C3058 0.930 . S
C3044 H3032 0.930 . S
C3044 C3045 1.399 . S
C3044 C3049 1.399 . S
C3045 C3044 1.399 . S
C3045 C3046 1.376 . S
C3046 H3033 0.930 . S
C3046 C3045 1.376 . S
C3046 C3047 1.388 . S
C3047 H3034 0.930 . S
C3047 C3046 1.388 . S
C3047 C3048 1.390 . S
C3048 C3047 1.390 . S
C3048 C3049 1.394 . S
C3048 C3054 1.465 . S
C3049 C3044 1.399 . S
C3049 C3048 1.394 . S
C3049 C3050 1.516 . S
C3050 C3049 1.516 . S
C3050 C3051 1.502 . S
C3050 C3052 1.561 . S
C3050 C3053 1.526 . S
C3051 H3035 0.959 . S
C3051 H3036 0.959 . S
C3051 H3037 0.961 . S
C3051 C3050 1.502 . S
C3052 H3038 0.960 . S
C3052 H3039 0.961 . S
C3052 H3040 0.959 . S
C3052 C3050 1.561 . S
C3053 C3050 1.526 . S
C3053 C3054 1.396 . S
C3053 C3058 1.390 . S
C3054 C3048 1.465 . S
C3054 C3053 1.396 . S
C3054 C3055 1.399 . S
C3055 H3041 0.929 . S
C3055 C3054 1.399 . S
C3055 C3056 1.385 . S
C3056 H3042 0.931 . S
C3056 C3055 1.385 . S
C3056 C3057 1.389 . S
C3057 C3056 1.389 . S
C3057 C3058 1.387 . S
C3058 H3043 0.930 . S
C3058 C3053 1.390 . S
C3058 C3057 1.387 . S
H3059 C3071 0.930 . S
H3060 C3073 0.930 . S
H3061 C3074 0.930 . S
H3062 C3078 0.962 . S
H3063 C3078 0.944 1_545 S
H3064 C3078 0.959 . S
H3065 C3079 0.960 . S
H3066 C3079 0.961 1_545 S
H3067 C3079 0.959 . S
H3068 C3082 0.929 . S
H3069 C3083 0.931 . S
H3070 C3085 0.928 . S
C3071 H3059 0.930 . S
C3071 C3072 1.399 . S
C3071 C3076 1.399 . S
C3072 C3071 1.399 . S
C3072 C3073 1.376 . S
C3073 H3060 0.930 . S
C3073 C3072 1.376 . S
C3073 C3074 1.388 . S
C3074 H3061 0.930 . S
C3074 C3073 1.388 . S
C3074 C3075 1.390 . S
C3075 C3074 1.390 . S
C3075 C3076 1.394 . S
C3075 C3081 1.465 . S
C3076 C3071 1.399 . S
C3076 C3075 1.394 . S
C3076 C3077 1.516 . S
C3077 C3076 1.516 . S
C3077 C3078 1.517 . S
C3077 C3079 1.561 . S
C3077 C3080 1.526 . S
C3078 H3062 0.962 . S
C3078 H3063 0.944 1_565 S
C3078 H3064 0.959 . S
C3078 C3077 1.517 . S
C3079 H3065 0.960 . S
C3079 H3066 0.961 1_565 S
C3079 H3067 0.959 . S
C3079 C3077 1.561 . S
C3080 C3077 1.526 . S
C3080 C3081 1.396 . S
C3080 C3085 1.391 1_565 S
C3081 C3075 1.465 . S
C3081 C3080 1.396 . S
C3081 C3082 1.399 . S
C3082 H3068 0.929 . S
C3082 C3081 1.399 . S
C3082 C3083 1.385 . S
C3083 H3069 0.931 . S
C3083 C3082 1.385 . S
C3083 C3084 1.389 . S
C3084 C3083 1.389 . S
C3084 C3085 1.387 1_565 S
C3085 H3070 0.928 . S
C3085 C3080 1.391 1_545 S
C3085 C3084 1.387 1_545 S
H3086 C3098 0.930 . S
H3087 C3100 0.930 . S
H3088 C3101 0.930 . S
H3089 C3105 0.959 . S
H3090 C3105 0.959 . S
H3091 C3105 0.961 . S
H3092 C3106 0.960 . S
H3093 C3106 0.961 . S
H3094 C3106 0.959 . S
H3095 C3109 0.929 . S
H3096 C3110 0.931 . S
H3097 C3112 0.930 . S
C3098 H3086 0.930 . S
C3098 C3099 1.399 . S
C3098 C3103 1.399 . S
C3099 C3098 1.399 . S
C3099 C3100 1.376 . S
C3100 H3087 0.930 . S
C3100 C3099 1.376 . S
C3100 C3101 1.388 . S
C3101 H3088 0.930 . S
C3101 C3100 1.388 . S
C3101 C3102 1.390 . S
C3102 C3101 1.390 . S
C3102 C3103 1.394 . S
C3102 C3108 1.465 . S
C3103 C3098 1.399 . S
C3103 C3102 1.394 . S
C3103 C3104 1.516 . S
C3104 C3103 1.516 . S
C3104 C3105 1.502 . S
C3104 C3106 1.561 . S
C3104 C3107 1.526 . S
C3105 H3089 0.959 . S
C3105 H3090 0.959 . S
C3105 H3091 0.961 . S
C3105 C3104 1.502 . S
C3106 H3092 0.960 . S
C3106 H3093 0.961 . S
C3106 H3094 0.959 . S
C3106 C3104 1.561 . S
C3107 C3104 1.526 . S
C3107 C3108 1.396 . S
C3107 C3112 1.390 . S
C3108 C3102 1.465 . S
C3108 C3107 1.396 . S
C3108 C3109 1.399 . S
C3109 H3095 0.929 . S
C3109 C3108 1.399 . S
C3109 C3110 1.385 . S
C3110 H3096 0.931 . S
C3110 C3109 1.385 . S
C3110 C3111 1.389 . S
C3111 C3110 1.389 . S
C3111 C3112 1.387 . S
C3112 H3097 0.930 . S
C3112 C3107 1.390 . S
C3112 C3111 1.387 . S
H3113 C3125 0.930 . S
H3114 C3127 0.930 . S
H3115 C3128 0.930 . S
H3116 C3132 0.959 . S
H3117 C3132 0.959 . S
H3118 C3132 0.961 . S
H3119 C3133 0.960 . S
H3120 C3133 0.961 . S
H3121 C3133 0.959 . S
H3122 C3136 0.929 . S
H3123 C3137 0.931 . S
H3124 C3139 0.930 . S
C3125 H3113 0.930 . S
C3125 C3126 1.399 1_554 S
C3125 C3130 1.399 . S
C3126 C3125 1.399 1_556 S
C3126 C3127 1.376 . S
C3127 H3114 0.930 . S
C3127 C3126 1.376 . S
C3127 C3128 1.388 . S
C3128 H3115 0.930 . S
C3128 C3127 1.388 . S
C3128 C3129 1.390 . S
C3129 C3128 1.390 . S
C3129 C3130 1.394 1_556 S
C3129 C3135 1.465 . S
C3130 C3125 1.399 . S
C3130 C3129 1.394 1_554 S
C3130 C3131 1.516 . S
C3131 C3130 1.516 . S
C3131 C3132 1.502 . S
C3131 C3133 1.561 . S
C3131 C3134 1.526 . S
C3132 H3116 0.959 . S
C3132 H3117 0.959 . S
C3132 H3118 0.961 . S
C3132 C3131 1.502 . S
C3133 H3119 0.960 . S
C3133 H3120 0.961 . S
C3133 H3121 0.959 . S
C3133 C3131 1.561 . S
C3134 C3131 1.526 . S
C3134 C3135 1.396 1_554 S
C3134 C3139 1.390 . S
C3135 C3129 1.465 . S
C3135 C3134 1.396 1_556 S
C3135 C3136 1.399 . S
C3136 H3122 0.929 . S
C3136 C3135 1.399 . S
C3136 C3137 1.385 . S
C3137 H3123 0.931 . S
C3137 C3136 1.385 . S
C3137 C3138 1.389 1_556 S
C3138 C3137 1.389 1_554 S
C3138 C3139 1.387 . S
C3139 H3124 0.930 . S
C3139 C3134 1.390 . S
C3139 C3138 1.387 . S
H3140 C3152 0.930 . S
H3141 C3154 0.930 . S
H3142 C3155 0.930 . S
H3143 C3159 0.959 . S
H3144 C3159 0.959 . S
H3145 C3159 0.961 . S
H3146 C3160 0.960 . S
H3147 C3160 0.961 . S
H3148 C3160 0.959 . S
H3149 C3163 0.929 . S
H3150 C3164 0.931 . S
H3151 C3166 0.930 . S
C3152 H3140 0.930 . S
C3152 C3153 1.399 . S
C3152 C3157 1.399 . S
C3153 C3152 1.399 . S
C3153 C3154 1.376 . S
C3154 H3141 0.930 . S
C3154 C3153 1.376 . S
C3154 C3155 1.388 . S
C3155 H3142 0.930 . S
C3155 C3154 1.388 . S
C3155 C3156 1.390 . S
C3156 C3155 1.390 . S
C3156 C3157 1.394 . S
C3156 C3162 1.465 . S
C3157 C3152 1.399 . S
C3157 C3156 1.394 . S
C3157 C3158 1.516 . S
C3158 C3157 1.516 . S
C3158 C3159 1.502 . S
C3158 C3160 1.561 . S
C3158 C3161 1.526 . S
C3159 H3143 0.959 . S
C3159 H3144 0.959 . S
C3159 H3145 0.961 . S
C3159 C3158 1.502 . S
C3160 H3146 0.960 . S
C3160 H3147 0.961 . S
C3160 H3148 0.959 . S
C3160 C3158 1.561 . S
C3161 C3158 1.526 . S
C3161 C3162 1.396 . S
C3161 C3166 1.390 . S
C3162 C3156 1.465 . S
C3162 C3161 1.396 . S
C3162 C3163 1.399 . S
C3163 H3149 0.929 . S
C3163 C3162 1.399 . S
C3163 C3164 1.385 . S
C3164 H3150 0.931 . S
C3164 C3163 1.385 . S
C3164 C3165 1.389 . S
C3165 C3164 1.389 . S
C3165 C3166 1.387 . S
C3166 H3151 0.930 . S
C3166 C3161 1.390 . S
C3166 C3165 1.387 . S
H3167 C3179 0.930 . S
H3168 C3181 0.930 . S
H3169 C3182 0.930 . S
H3170 C3186 0.959 . S
H3171 C3186 0.959 . S
H3172 C3186 0.961 . S
H3173 C3187 0.960 . S
H3174 C3187 0.961 . S
H3175 C3187 0.959 . S
H3176 C3190 0.929 . S
H3177 C3191 0.931 . S
H3178 C3193 0.930 . S
C3179 H3167 0.930 . S
C3179 C3180 1.399 . S
C3179 C3184 1.399 . S
C3180 C3179 1.399 . S
C3180 C3181 1.376 1_554 S
C3181 H3168 0.930 . S
C3181 C3180 1.376 1_556 S
C3181 C3182 1.388 . S
C3182 H3169 0.930 . S
C3182 C3181 1.388 . S
C3182 C3183 1.390 1_556 S
C3183 C3182 1.390 1_554 S
C3183 C3184 1.394 . S
C3183 C3189 1.465 . S
C3184 C3179 1.399 . S
C3184 C3183 1.394 . S
C3184 C3185 1.516 . S
C3185 C3184 1.516 . S
C3185 C3186 1.502 . S
C3185 C3187 1.561 . S
C3185 C3188 1.526 . S
C3186 H3170 0.959 . S
C3186 H3171 0.959 . S
C3186 H3172 0.961 . S
C3186 C3185 1.502 . S
C3187 H3173 0.960 . S
C3187 H3174 0.961 . S
C3187 H3175 0.959 . S
C3187 C3185 1.561 . S
C3188 C3185 1.526 . S
C3188 C3189 1.396 . S
C3188 C3193 1.390 . S
C3189 C3183 1.465 . S
C3189 C3188 1.396 . S
C3189 C3190 1.399 1_554 S
C3190 H3176 0.929 . S
C3190 C3189 1.399 1_556 S
C3190 C3191 1.385 . S
C3191 H3177 0.931 . S
C3191 C3190 1.385 . S
C3191 C3192 1.389 1_556 S
C3192 C3191 1.389 1_554 S
C3192 C3193 1.387 . S
C3193 H3178 0.930 . S
C3193 C3188 1.390 . S
C3193 C3192 1.387 . S
H3194 C3206 0.930 . S
H3195 C3208 0.930 . S
H3196 C3209 0.930 . S
H3197 C3213 0.959 . S
H3198 C3213 0.959 . S
H3199 C3213 0.961 . S
H3200 C3214 0.960 . S
H3201 C3214 0.961 . S
H3202 C3214 0.959 . S
H3203 C3217 0.929 . S
H3204 C3218 0.931 . S
H3205 C3220 0.930 . S
C3206 H3194 0.930 . S
C3206 C3207 1.399 . S
C3206 C3211 1.399 . S
C3207 C3206 1.399 . S
C3207 C3208 1.376 . S
C3208 H3195 0.930 . S
C3208 C3207 1.376 . S
C3208 C3209 1.388 . S
C3209 H3196 0.930 . S
C3209 C3208 1.388 . S
C3209 C3210 1.390 . S
C3210 C3209 1.390 . S
C3210 C3211 1.394 . S
C3210 C3216 1.465 . S
C3211 C3206 1.399 . S
C3211 C3210 1.394 . S
C3211 C3212 1.516 . S
C3212 C3211 1.516 . S
C3212 C3213 1.502 . S
C3212 C3214 1.561 . S
C3212 C3215 1.526 . S
C3213 H3197 0.959 . S
C3213 H3198 0.959 . S
C3213 H3199 0.961 . S
C3213 C3212 1.502 . S
C3214 H3200 0.960 . S
C3214 H3201 0.961 . S
C3214 H3202 0.959 . S
C3214 C3212 1.561 . S
C3215 C3212 1.526 . S
C3215 C3216 1.396 . S
C3215 C3220 1.390 . S
C3216 C3210 1.465 . S
C3216 C3215 1.396 . S
C3216 C3217 1.399 . S
C3217 H3203 0.929 . S
C3217 C3216 1.399 . S
C3217 C3218 1.385 . S
C3218 H3204 0.931 . S
C3218 C3217 1.385 . S
C3218 C3219 1.389 . S
C3219 C3218 1.389 . S
C3219 C3220 1.387 . S
C3220 H3205 0.930 . S
C3220 C3215 1.390 . S
C3220 C3219 1.387 . S
H3221 C3233 0.930 . S
H3222 C3235 0.930 . S
H3223 C3236 0.930 . S
H3224 C3240 0.959 . S
H3225 C3240 0.959 . S
H3226 C3240 0.961 . S
H3227 C3241 0.960 . S
H3228 C3241 0.961 . S
H3229 C3241 0.959 . S
H3230 C3244 0.929 . S
H3231 C3245 0.931 . S
H3232 C3247 0.930 . S
C3233 H3221 0.930 . S
C3233 C3234 1.399 . S
C3233 C3238 1.399 . S
C3234 C3233 1.399 . S
C3234 C3235 1.376 . S
C3235 H3222 0.930 . S
C3235 C3234 1.376 . S
C3235 C3236 1.388 . S
C3236 H3223 0.930 . S
C3236 C3235 1.388 . S
C3236 C3237 1.390 . S
C3237 C3236 1.390 . S
C3237 C3238 1.394 . S
C3237 C3243 1.465 . S
C3238 C3233 1.399 . S
C3238 C3237 1.394 . S
C3238 C3239 1.516 . S
C3239 C3238 1.516 . S
C3239 C3240 1.502 . S
C3239 C3241 1.561 . S
C3239 C3242 1.526 . S
C3240 H3224 0.959 . S
C3240 H3225 0.959 . S
C3240 H3226 0.961 . S
C3240 C3239 1.502 . S
C3241 H3227 0.960 . S
C3241 H3228 0.961 . S
C3241 H3229 0.959 . S
C3241 C3239 1.561 . S
C3242 C3239 1.526 . S
C3242 C3243 1.396 . S
C3242 C3247 1.390 . S
C3243 C3237 1.465 . S
C3243 C3242 1.396 . S
C3243 C3244 1.399 . S
C3244 H3230 0.929 . S
C3244 C3243 1.399 . S
C3244 C3245 1.385 . S
C3245 H3231 0.931 . S
C3245 C3244 1.385 . S
C3245 C3246 1.389 . S
C3246 C3245 1.389 . S
C3246 C3247 1.387 . S
C3247 H3232 0.930 . S
C3247 C3242 1.390 . S
C3247 C3246 1.387 . S
C669 C106 1.908 . S
C681 C354 1.821 1_556 S
C696 C65 1.595 . S
C708 C365 1.600 . S
C723 C79 1.425 . S
C735 C394 1.320 . S
C762 C397 1.240 . S
C750 C90 1.219 . S
C777 C21 1.334 . S
C789 C435 1.342 . S
C816 C438 1.064 . S
C804 C35 0.998 . S
C843 C465 1.514 . S
C831 C50 1.500 . S
C858 C6 1.630 . S
C870 C494 1.611 . S
C897 C345 1.766 1_655 S
C885 C232 1.782 . S
C912 C245 0.823 . S
C924 C357 0.926 . S
C951 C385 1.628 . S
C939 C274 1.603 . S
C978 C414 1.174 . S
C966 C175 1.090 . S
C993 C231 0.868 . S
C1005 C418 0.853 1_655 S
C1032 C444 1.567 . S
C1020 C246 1.587 . S
C1059 C457 0.707 . S
C1047 C273 0.707 . S
C1086 C485 1.739 . S
C1074 C176 1.749 . S
C1113 C337 1.522 . S
C1101 C160 1.523 . S
C1128 C289 1.748 . S
C1140 C504 1.737 . S
C1167 C535 1.617 . S
C1155 C328 1.549 . S
C1194 C554 1.029 . S
C1182 C317 1.083 . S
C1209 C118 1.281 . S
C1221 C477 1.371 . S
C1236 C132 1.475 . S
C1248 C377 1.529 . S
C1263 C331 1.666 . S
C1275 C565 1.642 . S
C1302 C594 1.136 . S
C1290 C303 1.163 . S
C1329 C355 1.466 . S
C1317 C63 1.501 . S
C1356 C584 1.984 . S
C1344 C107 1.928 . S
C1371 C92 1.163 . S
C1383 C395 1.173 . S
C1398 C78 1.740 . S
C1410 C558 1.745 . S
C1437 C434 1.884 . S
C1425 C8 1.914 . S
C1452 C51 1.132 . S
C1464 C517 1.129 . S
C1491 C464 1.826 1_556 S
C1479 C37 1.810 . S
C1518 C615 1.510 . S
C1506 C20 1.585 . S
C1545 C344 1.560 . S
C1533 C147 1.531 . S
C1572 C578 1.002 . S
C1560 C316 1.061 . S
C1587 C119 1.493 . S
C1599 C384 1.542 . S
C1614 C288 1.254 . S
C1626 C575 1.258 . S
C1641 C148 1.151 1_545 S
C1653 C417 1.153 . S
C1680 C525 1.550 . S
C1668 C315 1.568 . S
C1695 C120 0.923 . S
C1707 C458 0.918 . S
C1722 C287 1.609 . S
C1734 C604 1.620 . S
C1749 C188 1.370 . S
C1761 C338 1.418 . S
C1776 C177 1.959 . S
C1788 C505 1.977 . S
C1803 C258 1.669 . S
C1815 C454 1.609 . S
C1830 C247 1.149 . S
C1842 C555 1.145 . S
C1869 C598 1.279 . S
C1857 C272 1.201 . S
C1884 C216 1.357 . S
C1896 C378 1.384 1_565 S
C1923 C404 1.863 . S
C1911 C261 1.820 . S
C1950 C375 1.088 . S
C1938 C205 1.118 . S
C1965 C76 1.469 . S
C1977 C634 1.551 . S
C2004 C585 1.665 . S
C1992 C93 1.675 . S
C2019 C105 1.065 . S
C2031 C654 0.996 . S
C2046 C62 1.190 . S
C2058 C557 1.241 . S
C2073 C49 1.298 . S
C2085 C515 1.352 . S
C2112 C518 1.376 . S
C2100 C9 1.402 . S
C2139 C545 1.453 . S
C2127 C22 1.441 . S
C2166 C614 1.953 . S
C2154 C36 2.031 . S
C2193 C625 1.719 . S
C2181 C260 1.700 . S
C2208 C189 0.686 . S
C2220 C577 0.768 . S
C2247 C645 1.558 . S
C2235 C204 1.540 . S
C2274 C574 1.013 . S
C2262 C217 0.925 . S
C2301 C498 1.067 . S
C2289 C259 1.017 . S
C2316 C190 1.655 . S
C2328 C524 1.640 . S
C2355 C537 0.756 . S
C2343 C203 0.760 . S
C2370 C218 1.800 . S
C2382 C605 1.810 . S
C2409 C617 1.478 . S
C2397 C314 1.479 . S
C2424 C135 1.786 . S
C2436 C424 1.752 . S
C2463 C455 1.489 . S
C2451 C146 1.494 . S
C2490 C474 1.097 . S
C2478 C163 1.117 . S
C2517 C597 1.392 . S
C2505 C300 1.341 . S
C2532 C286 1.454 . S
C2544 C637 1.467 . S
C2571 C405 1.586 . S
C2559 C149 1.572 . S
C2598 C374 1.031 . S
C2586 C121 1.095 . S
C2613 C91 1.454 . S
C2625 C635 1.452 . S
C2652 C364 1.599 . S
C2640 C77 1.539 . S
C2667 C64 1.124 . S
C2679 C655 1.135 . S
C2694 C104 1.359 . S
C2706 C398 1.429 . S
C2721 C34 1.548 . S
C2733 C514 1.571 1_556 S
C2760 C437 1.096 . S
C2748 C23 1.097 . S
C2775 C7 1.408 . S
C2787 C544 1.447 . S
C2802 C48 1.526 . S
C2814 C495 1.536 . S
C2841 C624 1.527 . S
C2829 C329 1.492 . S
C2856 C162 1.030 . S
C2868 C358 1.055 . S
C2895 C644 1.528 1_655 S
C2883 C301 1.490 . S
C2910 C134 1.254 . S
C2922 C415 1.261 . S
C2937 C330 1.156 . S
C2949 C497 1.154 . S
C2976 C445 1.577 . S
C2964 C161 1.518 . S
C2991 C302 0.919 . S
C3003 C538 0.914 . S
C3030 C484 1.598 . S
C3018 C133 1.591 . S
C3057 C618 1.596 . S
C3045 C244 1.555 . S
C3084 C425 1.939 1_565 S
C3072 C219 1.956 . S
C3099 C230 1.463 . S
C3111 C534 1.376 . S
C3138 C475 1.110 . S
C3126 C191 1.115 1_556 S
C3153 C202 1.457 . S
C3165 C478 1.444 . S
C3180 C174 1.494 . S
C3192 C638 1.580 . S
C3219 C564 1.839 . S
C3207 C233 1.749 1_565 S
C3246 C595 1.131 . S
C3234 C275 1.116 . S
