# Generated by pormake.
# Topology ocu, (6,8)-cn, num edge types: 1
# Building blocks:
#     Node 0, Type 0, BuildingBlock: KUMJIN_clean_sbu_1, # of connection points: 6
#     Node 1, Type 0, BuildingBlock: KUMJIN_clean_sbu_1, # of connection points: 6
#     Node 2, Type 0, BuildingBlock: KUMJIN_clean_sbu_1, # of connection points: 6
#     Node 3, Type 0, BuildingBlock: KUMJIN_clean_sbu_1, # of connection points: 6
#     Node 4, Type 0, BuildingBlock: KUMJIN_clean_sbu_1, # of connection points: 6
#     Node 5, Type 0, BuildingBlock: KUMJIN_clean_sbu_1, # of connection points: 6
#     Node 6, Type 0, BuildingBlock: KUMJIN_clean_sbu_1, # of connection points: 6
#     Node 7, Type 0, BuildingBlock: KUMJIN_clean_sbu_1, # of connection points: 6
#     Node 8, Type 1, BuildingBlock: VETTIZ_charged_sbu_0, # of connection points: 8
#     Node 9, Type 1, BuildingBlock: VETTIZ_charged_sbu_0, # of connection points: 8
#     Node 10, Type 1, BuildingBlock: VETTIZ_charged_sbu_0, # of connection points: 8
#     Node 11, Type 1, BuildingBlock: VETTIZ_charged_sbu_0, # of connection points: 8
#     Node 12, Type 1, BuildingBlock: VETTIZ_charged_sbu_0, # of connection points: 8
#     Node 13, Type 1, BuildingBlock: VETTIZ_charged_sbu_0, # of connection points: 8
#     Edge 14, Type (0, 1), BuildingBlock: ZUJKAS_clean_linker_0, # of connection points: 2
#     Edge 15, Type (0, 1), BuildingBlock: ZUJKAS_clean_linker_0, # of connection points: 2
#     Edge 16, Type (0, 1), BuildingBlock: ZUJKAS_clean_linker_0, # of connection points: 2
#     Edge 17, Type (0, 1), BuildingBlock: ZUJKAS_clean_linker_0, # of connection points: 2
#     Edge 18, Type (0, 1), BuildingBlock: ZUJKAS_clean_linker_0, # of connection points: 2
#     Edge 19, Type (0, 1), BuildingBlock: ZUJKAS_clean_linker_0, # of connection points: 2
#     Edge 20, Type (0, 1), BuildingBlock: ZUJKAS_clean_linker_0, # of connection points: 2
#     Edge 21, Type (0, 1), BuildingBlock: ZUJKAS_clean_linker_0, # of connection points: 2
#     Edge 22, Type (0, 1), BuildingBlock: ZUJKAS_clean_linker_0, # of connection points: 2
#     Edge 23, Type (0, 1), BuildingBlock: ZUJKAS_clean_linker_0, # of connection points: 2
#     Edge 24, Type (0, 1), BuildingBlock: ZUJKAS_clean_linker_0, # of connection points: 2
#     Edge 25, Type (0, 1), BuildingBlock: ZUJKAS_clean_linker_0, # of connection points: 2
#     Edge 26, Type (0, 1), BuildingBlock: ZUJKAS_clean_linker_0, # of connection points: 2
#     Edge 27, Type (0, 1), BuildingBlock: ZUJKAS_clean_linker_0, # of connection points: 2
#     Edge 28, Type (0, 1), BuildingBlock: ZUJKAS_clean_linker_0, # of connection points: 2
#     Edge 29, Type (0, 1), BuildingBlock: ZUJKAS_clean_linker_0, # of connection points: 2
#     Edge 30, Type (0, 1), BuildingBlock: ZUJKAS_clean_linker_0, # of connection points: 2
#     Edge 31, Type (0, 1), BuildingBlock: ZUJKAS_clean_linker_0, # of connection points: 2
#     Edge 32, Type (0, 1), BuildingBlock: ZUJKAS_clean_linker_0, # of connection points: 2
#     Edge 33, Type (0, 1), BuildingBlock: ZUJKAS_clean_linker_0, # of connection points: 2
#     Edge 34, Type (0, 1), BuildingBlock: ZUJKAS_clean_linker_0, # of connection points: 2
#     Edge 35, Type (0, 1), BuildingBlock: ZUJKAS_clean_linker_0, # of connection points: 2
#     Edge 36, Type (0, 1), BuildingBlock: ZUJKAS_clean_linker_0, # of connection points: 2
#     Edge 37, Type (0, 1), BuildingBlock: ZUJKAS_clean_linker_0, # of connection points: 2
#     Edge 38, Type (0, 1), BuildingBlock: ZUJKAS_clean_linker_0, # of connection points: 2
#     Edge 39, Type (0, 1), BuildingBlock: ZUJKAS_clean_linker_0, # of connection points: 2
#     Edge 40, Type (0, 1), BuildingBlock: ZUJKAS_clean_linker_0, # of connection points: 2
#     Edge 41, Type (0, 1), BuildingBlock: ZUJKAS_clean_linker_0, # of connection points: 2
#     Edge 42, Type (0, 1), BuildingBlock: ZUJKAS_clean_linker_0, # of connection points: 2
#     Edge 43, Type (0, 1), BuildingBlock: ZUJKAS_clean_linker_0, # of connection points: 2
#     Edge 44, Type (0, 1), BuildingBlock: ZUJKAS_clean_linker_0, # of connection points: 2
#     Edge 45, Type (0, 1), BuildingBlock: ZUJKAS_clean_linker_0, # of connection points: 2
#     Edge 46, Type (0, 1), BuildingBlock: ZUJKAS_clean_linker_0, # of connection points: 2
#     Edge 47, Type (0, 1), BuildingBlock: ZUJKAS_clean_linker_0, # of connection points: 2
#     Edge 48, Type (0, 1), BuildingBlock: ZUJKAS_clean_linker_0, # of connection points: 2
#     Edge 49, Type (0, 1), BuildingBlock: ZUJKAS_clean_linker_0, # of connection points: 2
#     Edge 50, Type (0, 1), BuildingBlock: ZUJKAS_clean_linker_0, # of connection points: 2
#     Edge 51, Type (0, 1), BuildingBlock: ZUJKAS_clean_linker_0, # of connection points: 2
#     Edge 52, Type (0, 1), BuildingBlock: ZUJKAS_clean_linker_0, # of connection points: 2
#     Edge 53, Type (0, 1), BuildingBlock: ZUJKAS_clean_linker_0, # of connection points: 2
#     Edge 54, Type (0, 1), BuildingBlock: ZUJKAS_clean_linker_0, # of connection points: 2
#     Edge 55, Type (0, 1), BuildingBlock: ZUJKAS_clean_linker_0, # of connection points: 2
#     Edge 56, Type (0, 1), BuildingBlock: ZUJKAS_clean_linker_0, # of connection points: 2
#     Edge 57, Type (0, 1), BuildingBlock: ZUJKAS_clean_linker_0, # of connection points: 2
#     Edge 58, Type (0, 1), BuildingBlock: ZUJKAS_clean_linker_0, # of connection points: 2
#     Edge 59, Type (0, 1), BuildingBlock: ZUJKAS_clean_linker_0, # of connection points: 2
#     Edge 60, Type (0, 1), BuildingBlock: ZUJKAS_clean_linker_0, # of connection points: 2
#     Edge 61, Type (0, 1), BuildingBlock: ZUJKAS_clean_linker_0, # of connection points: 2
# Relax obj value: 0.057
# Max RMSD: 0.136
# Mean RMSD: 0.097
data_MOF--net-ocu--node1-KUMJIN_clean_sbu_1--node2-VETTIZ_charged_sbu_0--edge1-ZUJKAS_clean_linker_0
_symmetry_space_group_name_H-M    P1
_symmetry_Int_Tables_number       1
_symmetry_cell_setting            triclinic
loop_
_symmetry_equiv_pos_as_xyz
'x, y, z'
_cell_length_a     49.49065
_cell_length_b     49.906906
_cell_length_c     52.213525
_cell_angle_alpha  98.341566
_cell_angle_beta   82.084396
_cell_angle_gamma 101.59733
loop_
_atom_site_label
_atom_site_type_symbol
_atom_site_fract_x
_atom_site_fract_y
_atom_site_fract_z
_atom_type_partial_charge
Eu0 Eu 0.24164 0.25643 0.23276 0.0
C1 C 0.30607 0.32226 0.32682 0.0
N2 N 0.31744 0.31172 0.30324 0.0
C3 C 0.35308 0.35202 0.3018 0.0
C4 C 0.3177 0.34851 0.33866 0.0
C5 C 0.3409 0.32587 0.29087 0.0
C6 C 0.34134 0.36347 0.32572 0.0
C7 C 0.27081 0.3169 0.36394 0.0
C8 C 0.28284 0.30665 0.33933 0.0
C9 C 0.28217 0.34315 0.37562 0.0
C10 C 0.30553 0.35891 0.36301 0.0
Eu11 Eu 0.29484 0.26784 0.28622 0.0
N12 N 0.27186 0.28153 0.32729 0.0
C13 C 0.24777 0.30037 0.37612 0.0
C14 C 0.25023 0.26488 0.33956 0.0
C15 C 0.23762 0.27413 0.36398 0.0
H16 H 0.35056 0.31682 0.27279 0.0
H17 H 0.2202 0.26095 0.3735 0.0
H18 H 0.18595 0.20796 0.24904 0.0
H19 H 0.31349 0.26038 0.1437 0.0
H20 H 0.24283 0.24445 0.3307 0.0
H21 H 0.23794 0.30749 0.39504 0.0
H22 H 0.29285 0.27796 0.1872 0.0
H23 H 0.37161 0.36324 0.29186 0.0
H24 H 0.27313 0.3514 0.39448 0.0
H25 H 0.31414 0.37907 0.37236 0.0
H26 H 0.16401 0.16139 0.23136 0.0
H27 H 0.35088 0.38371 0.33417 0.0
H28 H 0.2942 0.21378 0.12325 0.0
N29 N 0.21824 0.21212 0.21762 0.0
C30 C 0.22858 0.20103 0.19381 0.0
C31 C 0.18229 0.17222 0.22072 0.0
C32 C 0.21629 0.17468 0.18273 0.0
C33 C 0.19504 0.19847 0.23086 0.0
C34 C 0.19305 0.16018 0.19664 0.0
N35 N 0.26326 0.24131 0.19162 0.0
C36 C 0.28464 0.25753 0.17854 0.0
C37 C 0.26234 0.20538 0.15542 0.0
C38 C 0.25138 0.2162 0.18024 0.0
C39 C 0.28515 0.2214 0.14234 0.0
C40 C 0.29618 0.24767 0.15386 0.0
H41 H 0.18304 0.13987 0.18879 0.0
H42 H 0.21824 0.14346 0.14937 0.0
H43 H 0.25853 0.17031 0.1255 0.0
O44 O 0.2356 0.29049 0.21335 0.0
O45 O 0.27594 0.22962 0.22508 0.0
O46 O 0.3137 0.25361 0.24552 0.0
O47 O 0.20244 0.2555 0.21755 0.0
O48 O 0.27249 0.29699 0.23783 0.0
O49 O 0.31216 0.28753 0.25004 0.0
O50 O 0.30115 0.23375 0.30529 0.0
O51 O 0.26278 0.29674 0.29182 0.0
O52 O 0.22396 0.27231 0.2735 0.0
O53 O 0.33531 0.26745 0.29807 0.0
O54 O 0.26534 0.22737 0.27747 0.0
O55 O 0.22442 0.23703 0.26976 0.0
C56 C 0.30276 0.23443 0.22781 0.0
C57 C 0.1898 0.29868 0.21736 0.0
C58 C 0.16512 0.33245 0.20595 0.0
C59 C 0.15177 0.33446 0.23161 0.0
C60 C 0.17619 0.30109 0.24271 0.0
C61 C 0.15735 0.31895 0.24979 0.0
C62 C 0.18426 0.31438 0.199 0.0
C63 C 0.29964 0.30133 0.2373 0.0
C64 C 0.20985 0.27993 0.21 0.0
C65 C 0.22737 0.16371 0.15812 0.0
C66 C 0.2503 0.17902 0.1445 0.0
C67 C 0.23595 0.29271 0.28955 0.0
C68 C 0.33659 0.24287 0.33312 0.0
C69 C 0.35972 0.21917 0.35891 0.0
C70 C 0.35601 0.23939 0.38021 0.0
C71 C 0.33307 0.26283 0.3545 0.0
C72 C 0.34986 0.22113 0.33537 0.0
C73 C 0.34277 0.26104 0.37796 0.0
C74 C 0.23822 0.22318 0.28123 0.0
C75 C 0.32706 0.24436 0.30809 0.0
H76 H 0.13659 0.34768 0.23757 0.0
H77 H 0.18002 0.28897 0.25691 0.0
H78 H 0.14687 0.32062 0.26942 0.0
H79 H 0.19504 0.31267 0.17947 0.0
H80 H 0.36367 0.23868 0.39851 0.0
H81 H 0.32303 0.2798 0.35303 0.0
H82 H 0.35226 0.2056 0.31881 0.0
H83 H 0.34014 0.27656 0.39441 0.0
Eu84 Eu 0.74421 0.28933 0.2701 0.0
C85 C 0.84262 0.24255 0.2093 0.0
N86 N 0.81691 0.22799 0.21601 0.0
C87 C 0.81555 0.20477 0.17257 0.0
C88 C 0.85557 0.23915 0.18354 0.0
C89 C 0.8034 0.20904 0.19827 0.0
C90 C 0.8417 0.21997 0.16513 0.0
C91 C 0.88202 0.27735 0.22153 0.0
C92 C 0.85554 0.26164 0.22809 0.0
C93 C 0.89477 0.27436 0.19579 0.0
C94 C 0.88161 0.25528 0.17686 0.0
Eu95 Eu 0.79776 0.23685 0.25958 0.0
N96 N 0.84248 0.2645 0.2528 0.0
C97 C 0.89518 0.29522 0.24119 0.0
C98 C 0.85644 0.27978 0.27236 0.0
C99 C 0.88257 0.29599 0.26682 0.0
H100 H 0.78327 0.19715 0.204 0.0
H101 H 0.89321 0.30859 0.28241 0.0
H102 H 0.76681 0.34646 0.30946 0.0
H103 H 0.64764 0.21394 0.27996 0.0
H104 H 0.84809 0.2788 0.29236 0.0
H105 H 0.91552 0.30765 0.23696 0.0
H106 H 0.6922 0.23558 0.25788 0.0
H107 H 0.80474 0.18982 0.15851 0.0
H108 H 0.91498 0.28648 0.19038 0.0
H109 H 0.89176 0.25315 0.15711 0.0
H110 H 0.75255 0.36987 0.3528 0.0
H111 H 0.85095 0.21677 0.14514 0.0
H112 H 0.63034 0.23441 0.32366 0.0
N113 N 0.73172 0.31403 0.31054 0.0
C114 C 0.7071 0.30351 0.32368 0.0
C115 C 0.73966 0.35114 0.3449 0.0
C116 C 0.69799 0.31634 0.34834 0.0
C117 C 0.74785 0.3377 0.32052 0.0
C118 C 0.71469 0.34036 0.35894 0.0
N119 N 0.70077 0.26728 0.28907 0.0
C120 C 0.68516 0.24448 0.27701 0.0
C121 C 0.66551 0.26809 0.32582 0.0
C122 C 0.69101 0.27967 0.31253 0.0
C123 C 0.64997 0.244 0.31403 0.0
C124 C 0.65973 0.2323 0.28942 0.0
H125 H 0.70842 0.35082 0.37784 0.0
H126 H 0.66536 0.31433 0.38066 0.0
H127 H 0.637 0.27207 0.36098 0.0
O128 O 0.72264 0.2949 0.23793 0.0
O129 O 0.73965 0.25977 0.30088 0.0
O130 O 0.7554 0.22112 0.27956 0.0
O131 O 0.732 0.32867 0.26805 0.0
O132 O 0.74035 0.2554 0.23563 0.0
O133 O 0.75613 0.21771 0.24531 0.0
O134 O 0.81886 0.22006 0.28674 0.0
O135 O 0.79562 0.26349 0.22813 0.0
O136 O 0.7878 0.30399 0.25143 0.0
O137 O 0.80629 0.19522 0.25083 0.0
O138 O 0.79718 0.26769 0.29676 0.0
O139 O 0.78638 0.30637 0.28423 0.0
C140 C 0.74106 0.23347 0.29908 0.0
C141 C 0.73185 0.3397 0.22552 0.0
C142 C 0.72187 0.36394 0.19129 0.0
C143 C 0.75047 0.37434 0.18641 0.0
C144 C 0.76019 0.35048 0.22029 0.0
C145 C 0.76938 0.36772 0.20089 0.0
C146 C 0.71268 0.34658 0.21108 0.0
C147 C 0.74091 0.22879 0.23244 0.0
C148 C 0.72236 0.32089 0.24563 0.0
C149 C 0.67264 0.3048 0.36166 0.0
C150 C 0.65647 0.28075 0.35044 0.0
C151 C 0.79975 0.29048 0.23103 0.0
C152 C 0.82955 0.17328 0.27757 0.0
C153 C 0.84692 0.14893 0.30736 0.0
C154 C 0.85249 0.12888 0.28655 0.0
C155 C 0.83512 0.15278 0.25714 0.0
C156 C 0.83529 0.17117 0.30288 0.0
C157 C 0.8465 0.13077 0.26166 0.0
C158 C 0.79807 0.29459 0.29971 0.0
C159 C 0.81802 0.19662 0.27188 0.0
H160 H 0.75821 0.38807 0.17168 0.0
H161 H 0.7752 0.34566 0.2313 0.0
H162 H 0.79126 0.37615 0.19722 0.0
H163 H 0.69076 0.33818 0.21504 0.0
H164 H 0.86135 0.1116 0.28965 0.0
H165 H 0.83092 0.15387 0.23753 0.0
H166 H 0.83103 0.18675 0.31886 0.0
H167 H 0.85079 0.11514 0.24577 0.0
Eu168 Eu 0.77355 0.74773 0.28458 0.0
C169 C 0.82171 0.79001 0.18089 0.0
N170 N 0.82035 0.80416 0.20518 0.0
C171 C 0.86808 0.8257 0.19775 0.0
C172 C 0.84689 0.79243 0.16435 0.0
C173 C 0.84272 0.82243 0.21358 0.0
C174 C 0.87024 0.81048 0.17312 0.0
C175 C 0.79876 0.75765 0.1478 0.0
C176 C 0.79787 0.77281 0.17281 0.0
C177 C 0.82399 0.75939 0.13152 0.0
C178 C 0.84797 0.77679 0.13974 0.0
Eu179 Eu 0.77684 0.79811 0.23036 0.0
N180 N 0.77369 0.77164 0.18896 0.0
C181 C 0.7741 0.74171 0.13964 0.0
C182 C 0.74931 0.7579 0.18022 0.0
C183 C 0.7492 0.7422 0.15576 0.0
H184 H 0.84096 0.83426 0.23259 0.0
H185 H 0.72984 0.73088 0.14918 0.0
H186 H 0.72515 0.69146 0.26782 0.0
H187 H 0.78025 0.80811 0.37988 0.0
H188 H 0.72973 0.75951 0.19167 0.0
H189 H 0.77392 0.72974 0.12059 0.0
H190 H 0.79777 0.78951 0.33536 0.0
H191 H 0.88592 0.83992 0.20456 0.0
H192 H 0.82508 0.74773 0.11233 0.0
H193 H 0.86719 0.77816 0.12684 0.0
H194 H 0.67656 0.67206 0.28228 0.0
H195 H 0.88996 0.81294 0.16097 0.0
H196 H 0.73083 0.79398 0.39653 0.0
N197 N 0.72792 0.7252 0.29803 0.0
C198 C 0.71593 0.73586 0.32127 0.0
C199 C 0.68723 0.69027 0.29323 0.0
C200 C 0.6885 0.72478 0.33084 0.0
C201 C 0.71464 0.70168 0.28482 0.0
C202 C 0.6739 0.70219 0.3161 0.0
N203 N 0.75851 0.76599 0.32714 0.0
C204 C 0.77623 0.78335 0.34268 0.0
C205 C 0.72088 0.76662 0.36157 0.0
C206 C 0.73183 0.75654 0.33648 0.0
C207 C 0.73844 0.7858 0.37711 0.0
C208 C 0.76637 0.79381 0.36779 0.0
H209 H 0.65278 0.6931 0.32275 0.0
H210 H 0.6558 0.72776 0.36276 0.0
H211 H 0.68419 0.76439 0.38968 0.0
O212 O 0.81204 0.74011 0.29594 0.0
O213 O 0.75722 0.78855 0.29724 0.0
O214 O 0.73914 0.7951 0.26107 0.0
O215 O 0.77434 0.71062 0.30201 0.0
O216 O 0.81149 0.7815 0.27981 0.0
O217 O 0.79721 0.81802 0.26645 0.0
O218 O 0.75949 0.81946 0.20449 0.0
O219 O 0.81106 0.77237 0.22908 0.0
O220 O 0.78689 0.73201 0.24239 0.0
O221 O 0.78321 0.84298 0.23462 0.0
O222 O 0.73682 0.76719 0.23737 0.0
O223 O 0.75257 0.73037 0.24802 0.0
C224 C 0.73985 0.79919 0.28643 0.0
C225 C 0.81603 0.69344 0.29186 0.0
C226 C 0.84758 0.66276 0.29615 0.0
C227 C 0.84547 0.65158 0.27 0.0
C228 C 0.81395 0.68162 0.26601 0.0
C229 C 0.82873 0.66094 0.25511 0.0
C230 C 0.83272 0.68387 0.30698 0.0
C231 C 0.81269 0.8081 0.27995 0.0
C232 C 0.80104 0.71593 0.30287 0.0
C233 C 0.67694 0.73583 0.35523 0.0
C234 C 0.69311 0.75666 0.37058 0.0
C235 C 0.80729 0.74531 0.2275 0.0
C236 C 0.74473 0.86012 0.22537 0.0
C237 C 0.70872 0.88202 0.21395 0.0
C238 C 0.70156 0.88997 0.2406 0.0
C239 C 0.73712 0.86831 0.25187 0.0
C240 C 0.73051 0.86715 0.20648 0.0
C241 C 0.71573 0.88321 0.25935 0.0
C242 C 0.73392 0.74068 0.2389 0.0
C243 C 0.76683 0.84364 0.2173 0.0
H244 H 0.85631 0.63513 0.26117 0.0
H245 H 0.80077 0.68832 0.25432 0.0
H246 H 0.82705 0.65197 0.2351 0.0
H247 H 0.83432 0.69298 0.32699 0.0
H248 H 0.68523 0.9018 0.24696 0.0
H249 H 0.74757 0.86311 0.26687 0.0
H250 H 0.73612 0.86061 0.18605 0.0
H251 H 0.7101 0.88953 0.27979 0.0
Eu252 Eu 0.24474 0.77653 0.26924 0.0
C253 C 0.29904 0.68961 0.29957 0.0
N254 N 0.30977 0.71667 0.29794 0.0
C255 C 0.32531 0.72163 0.34013 0.0
C256 C 0.29989 0.6778 0.32231 0.0
C257 C 0.32378 0.73251 0.31726 0.0
C258 C 0.31302 0.69425 0.3428 0.0
C259 C 0.27571 0.64567 0.27963 0.0
C260 C 0.28708 0.67381 0.27841 0.0
C261 C 0.27558 0.63406 0.30262 0.0
C262 C 0.28773 0.65006 0.32386 0.0
Eu263 Eu 0.30606 0.73357 0.25898 0.0
N264 N 0.28764 0.68558 0.25633 0.0
C265 C 0.26552 0.62981 0.25744 0.0
C266 C 0.27993 0.66958 0.23405 0.0
C267 C 0.26812 0.64171 0.23443 0.0
H268 H 0.33333 0.75364 0.3151 0.0
H269 H 0.26145 0.62932 0.21684 0.0
H270 H 0.2036 0.74389 0.22278 0.0
H271 H 0.28635 0.88593 0.29008 0.0
H272 H 0.28326 0.67794 0.21572 0.0
H273 H 0.25659 0.60815 0.2576 0.0
H274 H 0.27436 0.83722 0.29839 0.0
H275 H 0.3359 0.73437 0.35567 0.0
H276 H 0.26666 0.61256 0.30397 0.0
H277 H 0.28789 0.64069 0.3413 0.0
H278 H 0.18964 0.75349 0.18219 0.0
H279 H 0.31409 0.68593 0.36061 0.0
H280 H 0.27471 0.89934 0.24969 0.0
N281 N 0.22851 0.78357 0.23055 0.0
C282 C 0.23504 0.80979 0.22425 0.0
C283 C 0.20283 0.76939 0.19358 0.0
C284 C 0.22655 0.81654 0.20164 0.0
C285 C 0.21144 0.76379 0.21632 0.0
C286 C 0.21077 0.79578 0.18597 0.0
N287 N 0.25717 0.82324 0.26265 0.0
C288 C 0.26961 0.84284 0.28054 0.0
C289 C 0.25575 0.85781 0.23544 0.0
C290 C 0.24941 0.83026 0.24095 0.0
C291 C 0.26953 0.87794 0.2532 0.0
C292 C 0.27622 0.87045 0.27598 0.0
H293 H 0.20384 0.80012 0.16846 0.0
H294 H 0.22726 0.84932 0.17835 0.0
H295 H 0.25285 0.88543 0.20792 0.0
O296 O 0.22518 0.788 0.30818 0.0
O297 O 0.2855 0.79514 0.24654 0.0
O298 O 0.30215 0.75689 0.22582 0.0
O299 O 0.20135 0.78079 0.27523 0.0
O300 O 0.27469 0.78686 0.30039 0.0
O301 O 0.31607 0.77772 0.27783 0.0
O302 O 0.33748 0.70982 0.24051 0.0
O303 O 0.27593 0.73447 0.29622 0.0
O304 O 0.23596 0.73295 0.27939 0.0
O305 O 0.35014 0.7518 0.25746 0.0
O306 O 0.27816 0.72468 0.22588 0.0
O307 O 0.23647 0.73323 0.24789 0.0
C308 C 0.30148 0.78333 0.22785 0.0
C309 C 0.18945 0.81375 0.30959 0.0
C310 C 0.18916 0.85711 0.33738 0.0
C311 C 0.16357 0.85857 0.32937 0.0
C312 C 0.16383 0.81542 0.30178 0.0
C313 C 0.15109 0.83787 0.3115 0.0
C314 C 0.20225 0.83491 0.32722 0.0
C315 C 0.30205 0.7907 0.2973 0.0
C316 C 0.20182 0.78933 0.29993 0.0
C317 C 0.23347 0.84383 0.19572 0.0
C318 C 0.24799 0.86441 0.21259 0.0
C319 C 0.24925 0.7254 0.29622 0.0
C320 C 0.37578 0.73715 0.21865 0.0
C321 C 0.38365 0.7332 0.17125 0.0
C322 C 0.40857 0.75243 0.17306 0.0
C323 C 0.40085 0.75601 0.22011 0.0
C324 C 0.36715 0.72605 0.19417 0.0
C325 C 0.41701 0.76379 0.19737 0.0
C326 C 0.25081 0.72105 0.2281 0.0
C327 C 0.35785 0.73075 0.24267 0.0
H328 H 0.15322 0.8757 0.33706 0.0
H329 H 0.15358 0.79923 0.2883 0.0
H330 H 0.13135 0.83905 0.30544 0.0
H331 H 0.22186 0.83383 0.33368 0.0
H332 H 0.42201 0.75802 0.15572 0.0
H333 H 0.40765 0.76507 0.23883 0.0
H334 H 0.34758 0.71182 0.19287 0.0
H335 H 0.43628 0.77845 0.19857 0.0
Eu336 Eu 0.24467 0.79406 0.76621 0.0
C337 C 0.33209 0.72171 0.70312 0.0
N338 N 0.30723 0.71263 0.71665 0.0
C339 C 0.29761 0.6746 0.68347 0.0
C340 C 0.34059 0.70753 0.67892 0.0
C341 C 0.29014 0.68926 0.70744 0.0
C342 C 0.3229 0.68382 0.66909 0.0
C343 C 0.37529 0.75491 0.70021 0.0
C344 C 0.34922 0.74517 0.7136 0.0
C345 C 0.38374 0.74094 0.67602 0.0
C346 C 0.36643 0.71734 0.6654 0.0
Eu347 Eu 0.2961 0.73907 0.75649 0.0
N348 N 0.34024 0.7586 0.73682 0.0
C349 C 0.39209 0.77841 0.71155 0.0
C350 C 0.35693 0.78092 0.74838 0.0
C351 C 0.38294 0.79134 0.73582 0.0
H352 H 0.27095 0.68166 0.71884 0.0
H353 H 0.39596 0.80928 0.74492 0.0
H354 H 0.25721 0.83146 0.82324 0.0
H355 H 0.14873 0.72662 0.73804 0.0
H356 H 0.35031 0.7908 0.76723 0.0
H357 H 0.41225 0.78656 0.70186 0.0
H358 H 0.19463 0.75595 0.73051 0.0
H359 H 0.28395 0.65611 0.67618 0.0
H360 H 0.40365 0.74818 0.6654 0.0
H361 H 0.37328 0.70674 0.64676 0.0
H362 H 0.23398 0.83759 0.86823 0.0
H363 H 0.32867 0.67237 0.65055 0.0
H364 H 0.12491 0.72535 0.78285 0.0
N365 N 0.22375 0.80165 0.80936 0.0
C366 C 0.1977 0.78725 0.81486 0.0
C367 C 0.22359 0.82332 0.85343 0.0
C368 C 0.18377 0.78991 0.84029 0.0
C369 C 0.23671 0.81979 0.82801 0.0
C370 C 0.19706 0.80823 0.85964 0.0
N371 N 0.19916 0.76741 0.77069 0.0
C372 C 0.18558 0.75385 0.75019 0.0
C373 C 0.15833 0.75389 0.80033 0.0
C374 C 0.1853 0.76925 0.79511 0.0
C375 C 0.14559 0.73747 0.77966 0.0
C376 C 0.15904 0.73796 0.75438 0.0
H377 H 0.18705 0.81083 0.87941 0.0
H378 H 0.14643 0.77548 0.86516 0.0
H379 H 0.12409 0.74406 0.83017 0.0
O380 O 0.2257 0.81351 0.73931 0.0
O381 O 0.24652 0.76804 0.79815 0.0
O382 O 0.25201 0.72688 0.775 0.0
O383 O 0.23874 0.83648 0.77578 0.0
O384 O 0.24494 0.76316 0.72899 0.0
O385 O 0.25362 0.72406 0.74247 0.0
O386 O 0.31485 0.73248 0.79022 0.0
O387 O 0.30273 0.76878 0.72546 0.0
O388 O 0.28759 0.80782 0.74648 0.0
O389 O 0.30534 0.69879 0.76012 0.0
O390 O 0.30253 0.77398 0.78986 0.0
O391 O 0.28613 0.81197 0.78138 0.0
C392 C 0.24119 0.74108 0.79556 0.0
C393 C 0.21851 0.86154 0.74934 0.0
C394 C 0.20602 0.88945 0.71952 0.0
C395 C 0.20462 0.91086 0.74008 0.0
C396 C 0.21682 0.8833 0.76952 0.0
C397 C 0.20982 0.90769 0.7649 0.0
C398 C 0.21263 0.86453 0.72431 0.0
C399 C 0.24312 0.73613 0.72635 0.0
C400 C 0.22788 0.83674 0.7546 0.0
C401 C 0.15732 0.77397 0.84568 0.0
C402 C 0.14466 0.75596 0.82577 0.0
C403 C 0.30143 0.79509 0.72688 0.0
C404 C 0.34403 0.69924 0.78242 0.0
C405 C 0.37559 0.68115 0.80504 0.0
C406 C 0.39581 0.68481 0.78342 0.0
C407 C 0.3647 0.70267 0.76131 0.0
C408 C 0.34948 0.68834 0.8043 0.0
C409 C 0.39037 0.6955 0.76183 0.0
C410 C 0.30178 0.80057 0.79352 0.0
C411 C 0.3169 0.70705 0.78154 0.0
H412 H 0.19922 0.93004 0.73697 0.0
H413 H 0.22111 0.88157 0.78895 0.0
H414 H 0.2086 0.92431 0.78059 0.0
H415 H 0.21402 0.84802 0.7085 0.0
H416 H 0.41582 0.67899 0.78297 0.0
H417 H 0.36097 0.7107 0.74429 0.0
H418 H 0.33361 0.68576 0.82072 0.0
H419 H 0.40611 0.69809 0.74534 0.0
Eu420 Eu 0.25874 0.23046 0.79348 0.0
C421 C 0.32305 0.29096 0.69913 0.0
N422 N 0.31291 0.30243 0.72286 0.0
C423 C 0.35457 0.33644 0.72489 0.0
C424 C 0.34987 0.30152 0.68767 0.0
C425 C 0.32788 0.32527 0.73549 0.0
C426 C 0.36572 0.32438 0.70099 0.0
C427 C 0.31653 0.25622 0.66163 0.0
C428 C 0.30654 0.26852 0.68622 0.0
C429 C 0.34337 0.26648 0.65036 0.0
C430 C 0.35998 0.28906 0.66333 0.0
Eu431 Eu 0.26813 0.28125 0.73943 0.0
N432 N 0.28093 0.25839 0.69798 0.0
C433 C 0.29918 0.23397 0.64907 0.0
C434 C 0.26338 0.23788 0.68514 0.0
C435 C 0.27235 0.22503 0.66073 0.0
H436 H 0.31902 0.33529 0.75346 0.0
H437 H 0.25846 0.20844 0.65081 0.0
H438 H 0.20413 0.18026 0.78063 0.0
H439 H 0.27257 0.30902 0.87781 0.0
H440 H 0.24231 0.23179 0.69334 0.0
H441 H 0.30608 0.22395 0.63016 0.0
H442 H 0.2871 0.28272 0.83638 0.0
H443 H 0.36645 0.35446 0.73508 0.0
H444 H 0.35143 0.25719 0.63154 0.0
H445 H 0.38058 0.29682 0.6543 0.0
H446 H 0.15664 0.16397 0.80079 0.0
H447 H 0.38641 0.3331 0.69282 0.0
H448 H 0.22517 0.29606 0.89994 0.0
N449 N 0.21331 0.21281 0.81106 0.0
C450 C 0.20449 0.22557 0.83468 0.0
C451 C 0.16983 0.18139 0.81044 0.0
C452 C 0.17751 0.21689 0.84687 0.0
C453 C 0.19665 0.19083 0.79896 0.0
C454 C 0.16018 0.19452 0.83444 0.0
N455 N 0.2478 0.25664 0.83371 0.0
C456 C 0.26612 0.27755 0.84516 0.0
C457 C 0.21314 0.26216 0.87038 0.0
C458 C 0.22217 0.24806 0.84631 0.0
C459 C 0.23136 0.28465 0.88151 0.0
C460 C 0.25807 0.29216 0.86899 0.0
H461 H 0.13933 0.18722 0.84321 0.0
H462 H 0.14784 0.22464 0.88041 0.0
H463 H 0.17897 0.26423 0.90095 0.0
O464 O 0.29084 0.22126 0.81407 0.0
O465 O 0.22645 0.25825 0.79468 0.0
O466 O 0.25179 0.29792 0.78054 0.0
O467 O 0.2536 0.19104 0.80858 0.0
O468 O 0.2991 0.26171 0.78877 0.0
O469 O 0.28652 0.29952 0.77665 0.0
O470 O 0.23267 0.29068 0.72372 0.0
O471 O 0.29896 0.25097 0.73404 0.0
O472 O 0.27692 0.21261 0.75362 0.0
O473 O 0.27126 0.31974 0.72313 0.0
O474 O 0.22929 0.24759 0.74196 0.0
O475 O 0.24179 0.21047 0.75605 0.0
C476 C 0.23055 0.28518 0.79499 0.0
C477 C 0.29515 0.17452 0.80701 0.0
C478 C 0.32815 0.14715 0.81495 0.0
C479 C 0.32695 0.13352 0.78948 0.0
C480 C 0.29395 0.16034 0.78183 0.0
C481 C 0.30998 0.14015 0.77304 0.0
C482 C 0.3124 0.168 0.82351 0.0
C483 C 0.30335 0.28835 0.78735 0.0
C484 C 0.2783 0.19594 0.8161 0.0
C485 C 0.16854 0.23097 0.87082 0.0
C486 C 0.18627 0.25353 0.88252 0.0
C487 C 0.29609 0.22456 0.73663 0.0
C488 C 0.23042 0.33808 0.72971 0.0
C489 C 0.20152 0.37068 0.72397 0.0
C490 C 0.20363 0.38231 0.75 0.0
C491 C 0.23269 0.35048 0.75539 0.0
C492 C 0.21473 0.34816 0.71401 0.0
C493 C 0.2191 0.37224 0.76555 0.0
C494 C 0.22664 0.22091 0.74273 0.0
C495 C 0.24529 0.31538 0.71919 0.0
H496 H 0.33915 0.11768 0.78227 0.0
H497 H 0.28036 0.16473 0.7691 0.0
H498 H 0.30904 0.12943 0.75353 0.0
H499 H 0.31299 0.17862 0.84313 0.0
H500 H 0.19329 0.39926 0.75837 0.0
H501 H 0.24535 0.34358 0.76744 0.0
H502 H 0.21347 0.33902 0.69397 0.0
H503 H 0.22082 0.38152 0.78547 0.0
Eu504 Eu 0.73239 0.29791 0.76423 0.0
C505 C 0.8247 0.22113 0.77677 0.0
N506 N 0.8287 0.24739 0.77106 0.0
C507 C 0.86925 0.25943 0.79367 0.0
C508 C 0.84236 0.21319 0.79213 0.0
C509 C 0.8512 0.26624 0.77828 0.0
C510 C 0.86454 0.2329 0.80101 0.0
C511 C 0.80049 0.17386 0.76972 0.0
C512 C 0.80411 0.20176 0.76568 0.0
C513 C 0.81701 0.16608 0.78617 0.0
C514 C 0.83792 0.18571 0.79735 0.0
Eu515 Eu 0.79583 0.25792 0.74722 0.0
N516 N 0.7888 0.2099 0.74959 0.0
C517 C 0.78103 0.15449 0.75643 0.0
C518 C 0.77101 0.19086 0.7354 0.0
C519 C 0.76657 0.16298 0.73887 0.0
H520 H 0.85487 0.28674 0.7725 0.0
H521 H 0.75209 0.14806 0.72789 0.0
H522 H 0.6995 0.2701 0.7117 0.0
H523 H 0.76962 0.40702 0.79604 0.0
H524 H 0.76007 0.197 0.72148 0.0
H525 H 0.77766 0.13285 0.75897 0.0
H526 H 0.75221 0.35808 0.80159 0.0
H527 H 0.88673 0.27464 0.79987 0.0
H528 H 0.81432 0.1448 0.78975 0.0
H529 H 0.85106 0.17928 0.80936 0.0
H530 H 0.69262 0.28308 0.66964 0.0
H531 H 0.87858 0.22764 0.81286 0.0
H532 H 0.76897 0.42324 0.75357 0.0
N533 N 0.72262 0.3093 0.7244 0.0
C534 C 0.73054 0.3361 0.72005 0.0
C535 C 0.70372 0.29812 0.68346 0.0
C536 C 0.72678 0.34462 0.69639 0.0
C537 C 0.70812 0.29065 0.70713 0.0
C538 C 0.71351 0.32513 0.67786 0.0
N539 N 0.74493 0.34611 0.76226 0.0
C540 C 0.75333 0.36463 0.78276 0.0
C541 C 0.7513 0.38287 0.7354 0.0
C542 C 0.74256 0.35494 0.73935 0.0
C543 C 0.76198 0.40161 0.75582 0.0
C544 C 0.7625 0.39251 0.77977 0.0
H545 H 0.71018 0.33084 0.65945 0.0
H546 H 0.73392 0.3791 0.67387 0.0
H547 H 0.75548 0.41261 0.70802 0.0
O548 O 0.70151 0.31849 0.78899 0.0
O549 O 0.76393 0.30177 0.72853 0.0
O550 O 0.80178 0.30389 0.74809 0.0
O551 O 0.68863 0.27878 0.76714 0.0
O552 O 0.76344 0.31242 0.79517 0.0
O553 O 0.80207 0.29094 0.78243 0.0
O554 O 0.80425 0.26347 0.70613 0.0
O555 O 0.75772 0.23623 0.77164 0.0
O556 O 0.74167 0.27383 0.7945 0.0
O557 O 0.83642 0.25433 0.72594 0.0
O558 O 0.76196 0.24685 0.72012 0.0
O559 O 0.72195 0.2535 0.74625 0.0
C560 C 0.7897 0.31306 0.73139 0.0
C561 C 0.66668 0.28588 0.80953 0.0
C562 C 0.66152 0.28502 0.85666 0.0
C563 C 0.63811 0.26382 0.8542 0.0
C564 C 0.64319 0.26495 0.80758 0.0
C565 C 0.62926 0.25374 0.82979 0.0
C566 C 0.67626 0.29509 0.83395 0.0
C567 C 0.78853 0.30833 0.79842 0.0
C568 C 0.68164 0.29712 0.78589 0.0
C569 C 0.73628 0.37223 0.69206 0.0
C570 C 0.7486 0.39129 0.71149 0.0
C571 C 0.74274 0.2475 0.79166 0.0
C572 C 0.83986 0.24447 0.68026 0.0
C573 C 0.83848 0.20182 0.65085 0.0
C574 C 0.86159 0.21507 0.63528 0.0
C575 C 0.86256 0.25729 0.66452 0.0
C576 C 0.82734 0.21717 0.67313 0.0
C577 C 0.87321 0.24266 0.64194 0.0
C578 C 0.73487 0.24139 0.72553 0.0
C579 C 0.82984 0.25994 0.70425 0.0
H580 H 0.62582 0.25576 0.87114 0.0
H581 H 0.63571 0.25721 0.78887 0.0
H582 H 0.6111 0.23764 0.82816 0.0
H583 H 0.695 0.31049 0.83532 0.0
H584 H 0.87161 0.204 0.61849 0.0
H585 H 0.87219 0.27852 0.66986 0.0
H586 H 0.8094 0.20795 0.68536 0.0
H587 H 0.89101 0.25248 0.62996 0.0
Eu588 Eu 0.75044 0.76322 0.73488 0.0
C589 C 0.79927 0.81118 0.84103 0.0
N590 N 0.80913 0.81061 0.81533 0.0
C591 C 0.82881 0.85871 0.82181 0.0
C592 C 0.80307 0.83601 0.85797 0.0
C593 C 0.82445 0.83365 0.80571 0.0
C594 C 0.8179 0.85996 0.84801 0.0
C595 C 0.77408 0.78697 0.87671 0.0
C596 C 0.78483 0.7869 0.85023 0.0
C597 C 0.77763 0.81172 0.89359 0.0
C598 C 0.79208 0.83616 0.88425 0.0
Eu599 Eu 0.80174 0.76711 0.79012 0.0
N600 N 0.78138 0.76325 0.8334 0.0
C601 C 0.76015 0.76211 0.88548 0.0
C602 C 0.76887 0.73879 0.84212 0.0
C603 C 0.75779 0.73788 0.86816 0.0
H604 H 0.83353 0.83278 0.78569 0.0
H605 H 0.74786 0.71844 0.87495 0.0
H606 H 0.69891 0.70877 0.74947 0.0
H607 H 0.81214 0.77748 0.6415 0.0
H608 H 0.76822 0.71978 0.82926 0.0
H609 H 0.75162 0.7613 0.90567 0.0
H610 H 0.79144 0.79184 0.68618 0.0
H611 H 0.84072 0.87702 0.81406 0.0
H612 H 0.7694 0.81216 0.91395 0.0
H613 H 0.79474 0.85506 0.89754 0.0
H614 H 0.68569 0.6598 0.73341 0.0
H615 H 0.82132 0.87943 0.86042 0.0
H616 H 0.80284 0.72848 0.62299 0.0
N617 N 0.73334 0.71628 0.72031 0.0
C618 C 0.74554 0.70641 0.69678 0.0
C619 C 0.70292 0.67253 0.72317 0.0
C620 C 0.73768 0.67867 0.6862 0.0
C621 C 0.71103 0.70026 0.73262 0.0
C622 C 0.71668 0.66152 0.70013 0.0
N623 N 0.7715 0.75124 0.69267 0.0
C624 C 0.78751 0.77043 0.67813 0.0
C625 C 0.7761 0.71537 0.65709 0.0
C626 C 0.76461 0.72449 0.68231 0.0
C627 C 0.79372 0.73467 0.64248 0.0
C628 C 0.7991 0.76238 0.65291 0.0
H629 H 0.71008 0.64011 0.69268 0.0
H630 H 0.74458 0.64789 0.65338 0.0
H631 H 0.77816 0.68003 0.6279 0.0
O632 O 0.74084 0.79881 0.72021 0.0
O633 O 0.79307 0.75001 0.72351 0.0
O634 O 0.79613 0.73005 0.75915 0.0
O635 O 0.71239 0.76 0.71707 0.0
O636 O 0.77957 0.80249 0.74704 0.0
O637 O 0.81941 0.7905 0.75514 0.0
O638 O 0.82469 0.74752 0.81302 0.0
O639 O 0.77035 0.79685 0.79892 0.0
O640 O 0.73248 0.77812 0.77594 0.0
O641 O 0.84709 0.77253 0.78295 0.0
O642 O 0.76902 0.72831 0.78378 0.0
O643 O 0.73196 0.74252 0.77071 0.0
C644 C 0.80269 0.73202 0.73423 0.0
C645 C 0.69308 0.80015 0.72545 0.0
C646 C 0.66231 0.8316 0.72145 0.0
C647 C 0.64911 0.82718 0.74655 0.0
C648 C 0.6792 0.79564 0.75019 0.0
C649 C 0.65749 0.80927 0.76072 0.0
C650 C 0.68459 0.81811 0.71111 0.0
C651 C 0.8066 0.8054 0.74366 0.0
C652 C 0.71633 0.7861 0.71461 0.0
C653 C 0.75018 0.66918 0.66165 0.0
C654 C 0.76926 0.6875 0.6471 0.0
C655 C 0.74404 0.79472 0.79517 0.0
C656 C 0.87518 0.75183 0.80687 0.0
C657 C 0.90171 0.72544 0.82695 0.0
C658 C 0.92637 0.74173 0.81676 0.0
C659 C 0.90019 0.76751 0.79685 0.0
C660 C 0.87601 0.73087 0.82216 0.0
C661 C 0.92555 0.76255 0.80189 0.0
C662 C 0.7422 0.72678 0.78352 0.0
C663 C 0.84855 0.75731 0.80085 0.0
H664 H 0.63234 0.83767 0.75531 0.0
H665 H 0.68517 0.78164 0.76144 0.0
H666 H 0.64711 0.80592 0.77994 0.0
H667 H 0.69498 0.82111 0.69178 0.0
H668 H 0.94642 0.73858 0.8205 0.0
H669 H 0.90019 0.78375 0.78515 0.0
H670 H 0.85683 0.71843 0.82976 0.0
H671 H 0.94471 0.77489 0.7942 0.0
Fe672 Fe 0.02269 0.07452 0.51128 0.0
O673 O 1.02031 0.03469 0.50033 0.0
Fe674 Fe 0.05353 0.01713 0.50658 0.0
Fe675 Fe 0.98948 1.0064 0.51459 0.0
O676 O 0.02304 0.03529 0.50028 0.0
O677 O 0.02272 0.98845 0.52038 0.0
O678 O 1.02 0.98768 0.51996 0.0
Fe679 Fe 1.02063 0.94861 0.50838 0.0
C680 C 0.98642 0.05045 0.55825 0.0
O681 O 0.98935 0.06789 0.49007 0.0
O682 O 0.9612 0.02985 0.5064 0.0
O683 O 0.05213 0.95432 0.47846 0.0
O684 O 0.05215 0.99615 0.47007 0.0
O685 O 0.08193 0.04939 0.48922 0.0
O686 O 0.05383 0.07829 0.48109 0.0
O687 O 0.98606 0.98621 0.47778 0.0
O688 O 0.99114 0.94406 0.48294 0.0
C689 C 0.07685 0.0688 0.47712 0.0
O690 O 0.05285 0.95481 0.53085 0.0
O691 O 0.08136 0.99389 0.51639 0.0
O692 O 0.9935 0.06939 0.54337 0.0
O693 O 0.99178 0.02653 0.5513 0.0
C694 C 0.96586 0.05101 0.49329 0.0
C695 C 0.98284 0.96047 0.47056 0.0
C696 C 0.96513 0.95338 0.54169 0.0
O697 O 0.96087 0.97434 0.53142 0.0
O698 O 0.98791 0.94353 0.53727 0.0
C699 C 0.06146 0.97396 0.46478 0.0
O700 O 0.05572 0.0381 0.54338 0.0
O701 O 0.05426 0.08004 0.53462 0.0
C702 C 0.07646 0.97185 0.52846 0.0
C703 C 0.06097 0.06411 0.54856 0.0
Fe704 Fe 0.52248 0.98337 1.00864 0.0
O705 O 0.54537 0.01562 0.99211 0.0
Fe706 Fe 0.46126 1.00909 0.03187 0.0
Fe707 Fe 0.58617 0.0232 0.98832 0.0
O708 O 0.50187 1.0124 0.02814 0.0
O709 O 0.50204 0.01562 0.02856 0.0
O710 O 0.54554 0.0189 0.99252 0.0
Fe711 Fe 0.52536 0.04792 0.01251 0.0
C712 C 0.57359 0.98963 0.03508 0.0
O713 O 0.54861 0.9575 0.98477 0.0
O714 O 0.58065 0.98812 0.96167 0.0
O715 O 0.50041 0.04281 0.98316 0.0
O716 O 0.45925 0.0367 1.00677 0.0
O717 O 0.45571 0.97799 1.0014 0.0
O718 O 0.49723 0.97533 0.97906 0.0
O719 O 0.58252 0.05159 0.96472 0.0
O720 O 0.55322 0.07757 0.99102 0.0
C721 C 0.47081 0.97068 0.98081 0.0
O722 O 0.49954 0.07382 0.03712 0.0
O723 O 0.46732 0.04284 0.05963 0.0
O724 O 0.5476 0.9894 0.03801 0.0
O725 O 0.58912 0.99726 0.01488 0.0
C726 C 0.56844 0.96327 0.96578 0.0
C727 C 0.57147 0.07352 0.97075 0.0
C728 C 0.57718 0.06197 0.03885 0.0
O729 O 0.59152 0.05615 0.0173 0.0
O730 O 0.55087 0.05471 0.04189 0.0
C731 C 0.47464 0.04348 0.98629 0.0
O732 O 0.46326 0.97917 0.05431 0.0
O733 O 0.49449 0.95384 0.03009 0.0
C734 C 0.4797 0.06777 0.05608 0.0
C735 C 0.47421 0.95721 0.04859 0.0
Fe736 Fe 0.02246 0.54829 0.01631 0.0
O737 O 0.99865 0.51555 0.03121 0.0
Fe738 Fe 0.0819 0.5223 0.98897 0.0
Fe739 Fe 0.95776 0.51029 0.03511 0.0
O740 O 0.04153 0.51944 0.99442 0.0
O741 O 0.04112 0.51626 0.99338 0.0
O742 O 0.99821 0.51227 0.0301 0.0
Fe743 Fe 1.01744 0.48341 1.00806 0.0
C744 C 0.9777 0.56793 0.06107 0.0
O745 O 0.99696 0.54512 0.98765 0.0
O746 O 0.95605 0.54005 0.01162 0.0
O747 O 0.04234 0.45754 0.98214 0.0
O748 O 0.07488 0.48901 0.96081 0.0
O749 O 0.07854 0.55278 0.96757 0.0
O750 O 0.05017 0.57833 0.99578 0.0
O751 O 0.95084 0.48073 1.00379 0.0
O752 O 0.99127 0.4784 0.97926 0.0
C753 C 0.06769 0.57471 0.97494 0.0
O754 O 0.04295 0.48625 0.03668 0.0
O755 O 0.08444 0.49395 0.01356 0.0
O756 O 0.99767 0.57407 0.04227 0.0
O757 O 0.96511 0.54291 0.06413 0.0
C758 C 0.97167 0.54774 0.99149 0.0
C759 C 0.96478 0.47424 0.98222 0.0
C760 C 0.9703 0.45615 0.04764 0.0
O761 O 0.95949 0.47807 0.05537 0.0
O762 O 0.98937 0.45336 0.02794 0.0
C763 C 0.06274 0.46389 0.96378 0.0
O764 O 0.08877 0.55338 0.01907 0.0
O765 O 0.04905 0.55346 0.04498 0.0
C766 C 0.06866 0.48513 0.0332 0.0
C767 C 0.07551 0.55941 0.04113 0.0
Fe768 Fe 0.52703 0.50794 0.98024 0.0
O769 O 0.54535 0.53386 1.00842 0.0
Fe770 Fe 0.46183 0.48352 1.01109 0.0
Fe771 Fe 0.58587 0.54174 1.00919 0.0
O772 O 0.50218 0.49171 1.0096 0.0
O773 O 0.50236 0.49157 0.0122 0.0
O774 O 0.54551 0.53373 1.01092 0.0
Fe775 Fe 0.52033 0.51799 0.04035 0.0
C776 C 0.57828 0.48495 0.98144 0.0
O777 O 0.55591 0.52897 0.95301 0.0
O778 O 0.58352 0.56231 0.97848 0.0
O779 O 0.49518 0.54513 0.0372 0.0
O780 O 0.45497 0.51586 0.03871 0.0
O781 O 0.46021 0.50775 0.98228 0.0
O782 O 0.50164 0.53518 0.9775 0.0
O783 O 0.57788 0.57168 0.03927 0.0
O784 O 0.54273 0.54832 0.06609 0.0
C785 C 0.4759 0.52936 0.97459 0.0
O786 O 0.49089 0.49754 0.06753 0.0
O787 O 0.464 0.46322 0.04216 0.0
O788 O 0.55201 0.48053 0.98264 0.0
O789 O 0.5926 0.50912 0.9816 0.0
C790 C 0.5731 0.55234 0.9568 0.0
C791 C 0.56323 0.56874 0.06169 0.0
C792 C 0.57168 0.49641 0.04611 0.0
O793 O 0.5874 0.51766 0.03782 0.0
O794 O 0.54571 0.49087 0.04406 0.0
C795 C 0.46885 0.54018 0.03879 0.0
O796 O 0.4701 0.45361 0.98099 0.0
O797 O 0.50449 0.47814 0.95436 0.0
C798 C 0.47348 0.47427 0.06405 0.0
C799 C 0.48468 0.45715 0.95864 0.0
Fe800 Fe 0.03063 0.45565 0.51272 0.0
O801 O 0.03556 0.49588 0.51372 0.0
Fe802 Fe 0.02701 0.51116 0.48051 0.0
Fe803 Fe 1.01651 0.51954 0.5423 0.0
O804 O 0.03655 0.49553 0.5106 0.0
O805 O 1.00847 0.53514 0.50921 0.0
O806 O 1.00749 0.5355 0.51225 0.0
Fe807 Fe 1.01337 0.57543 0.51079 0.0
C808 C 0.97734 0.46665 0.54718 0.0
O809 O 0.05404 0.46751 0.54355 0.0
O810 O 0.03056 0.49926 0.56954 0.0
O811 O 0.04795 0.57842 0.48384 0.0
O812 O 0.06399 0.5391 0.47956 0.0
O813 O 0.04903 0.48293 0.45459 0.0
O814 O 0.06253 0.45775 0.4827 0.0
O815 O 0.05313 0.54752 0.5446 0.0
O816 O 0.03916 0.5861 0.54033 0.0
C817 C 0.06404 0.46592 0.45996 0.0
O818 O 0.99071 0.56418 0.47945 0.0
O819 O 1.0127 0.53141 0.45333 0.0
O820 O 0.99704 0.45325 0.54091 0.0
O821 O 0.97966 0.49129 0.54224 0.0
C822 C 0.04837 0.4825 0.56542 0.0
C823 C 0.0558 0.57361 0.54844 0.0
C824 C 0.97912 0.56456 0.56281 0.0
O825 O 0.99394 0.54737 0.56817 0.0
O826 O 0.98081 0.57273 0.54005 0.0
C827 C 0.06716 0.5645 0.47665 0.0
O828 O 0.99026 0.48329 0.47902 0.0
O829 O 1.00386 0.44465 0.48394 0.0
C830 C 0.99561 0.54891 0.45756 0.0
C831 C 0.9873 0.45715 0.47568 0.0
Fe832 Fe 0.53179 0.95457 0.51017 0.0
O833 O 0.53422 0.99458 0.51288 0.0
Fe834 Fe 0.5249 1.01065 0.4806 0.0
Fe835 Fe 0.51425 0.01643 0.54231 0.0
O836 O 0.53554 0.99457 0.50984 0.0
O837 O 0.50511 0.0327 0.51007 0.0
O838 O 0.50381 0.03274 0.51312 0.0
Fe839 Fe 0.5079 0.07279 0.51279 0.0
C840 C 0.47715 0.96142 0.54489 0.0
O841 O 0.55452 0.96621 0.54156 0.0
O842 O 0.52953 0.99609 0.56849 0.0
O843 O 0.54195 0.07794 0.48546 0.0
O844 O 0.56081 0.04023 0.4802 0.0
O845 O 0.54815 0.98422 0.45363 0.0
O846 O 0.56403 0.95948 0.48059 0.0
O847 O 0.54994 0.0456 0.54466 0.0
O848 O 0.53416 0.08365 0.54182 0.0
C849 C 0.56438 0.96793 0.45815 0.0
O850 O 0.48505 0.06123 0.4816 0.0
O851 O 0.50927 0.03086 0.45444 0.0
O852 O 0.49761 0.94922 0.53739 0.0
O853 O 0.47841 0.98672 0.54239 0.0
C854 C 0.54794 0.98001 0.5639 0.0
C855 C 0.55169 0.07158 0.54907 0.0
C856 C 0.47586 0.06019 0.56504 0.0
O857 O 0.49107 0.04283 0.56926 0.0
O858 O 0.4759 0.06846 0.54259 0.0
C859 C 0.56227 0.06559 0.4779 0.0
O860 O 0.48926 0.98146 0.47864 0.0
O861 O 0.50547 0.94353 0.48106 0.0
C862 C 0.49102 0.04717 0.45925 0.0
C863 C 0.4876 0.9555 0.47424 0.0
H864 H 0.26017 0.18612 0.3019 0.0
H865 H 0.23687 0.15424 0.33281 0.0
H866 H 0.15957 0.18049 0.33013 0.0
H867 H 0.18277 0.21264 0.29921 0.0
H868 H 0.2096 0.16796 0.38208 0.0
H869 H 0.13816 0.09607 0.31965 0.0
H870 H 0.1678 0.11955 0.30647 0.0
H871 H 0.13623 0.1316 0.31956 0.0
C872 C 0.23813 0.18495 0.30761 0.0
C873 C 0.22331 0.2019 0.29792 0.0
C874 C 0.22486 0.16669 0.32534 0.0
C875 C 0.19643 0.16473 0.33359 0.0
C876 C 0.18144 0.18126 0.32365 0.0
H877 H 0.06917 0.10247 0.44326 0.0
H878 H 0.10155 0.12211 0.40897 0.0
C879 C 0.19472 0.19964 0.30595 0.0
C880 C 0.18274 0.1465 0.3536 0.0
H881 H 0.12791 0.09458 0.36564 0.0
C882 C 0.19199 0.1516 0.37843 0.0
C883 C 0.16002 0.12497 0.3487 0.0
C884 C 0.1501 0.11749 0.32208 0.0
C885 C 0.17796 0.13697 0.39895 0.0
C886 C 0.15433 0.11641 0.39438 0.0
C887 C 0.14603 0.11036 0.36917 0.0
C888 C 0.13551 0.10388 0.41599 0.0
C889 C 0.18754 0.14467 0.42569 0.0
C890 C 0.1438 0.087 0.43172 0.0
C891 C 0.12511 0.07567 0.45194 0.0
C892 C 0.09783 0.08092 0.45656 0.0
C893 C 0.08993 0.09789 0.44063 0.0
C894 C 0.10844 0.10913 0.42073 0.0
H895 H 0.20382 0.16357 0.42674 0.0
H896 H 0.16978 0.14803 0.44051 0.0
H897 H 0.19621 0.12753 0.4308 0.0
H898 H 0.16456 0.0824 0.42823 0.0
H899 H 0.13195 0.06282 0.46382 0.0
H900 H 0.89786 0.15082 0.32154 0.0
H901 H 0.9088 0.13648 0.36124 0.0
H902 H 0.82206 0.12416 0.39097 0.0
H903 H 0.81107 0.13884 0.35111 0.0
H904 H 0.89553 0.15446 0.4177 0.0
H905 H 0.84695 0.0467 0.38355 0.0
H906 H 0.85661 0.07298 0.36188 0.0
H907 H 0.8268 0.07339 0.38563 0.0
C908 C 0.88126 0.14577 0.33688 0.0
C909 C 0.85368 0.14597 0.33342 0.0
C910 C 0.88749 0.13755 0.3595 0.0
C911 C 0.86621 0.129 0.3789 0.0
C912 C 0.83874 0.13056 0.37613 0.0
H913 H 0.92106 0.07419 0.51431 0.0
H914 H 0.8908 0.09238 0.49 0.0
C915 C 0.83251 0.13911 0.35353 0.0
C916 C 0.87295 0.11616 0.40057 0.0
H917 H 0.87217 0.05325 0.4195 0.0
C918 C 0.88993 0.13243 0.41855 0.0
C919 C 0.86583 0.08735 0.40135 0.0
C920 C 0.84816 0.0689 0.38206 0.0
C921 C 0.90089 0.12049 0.43666 0.0
C922 C 0.8946 0.09155 0.43679 0.0
C923 C 0.87672 0.07543 0.4195 0.0
C924 C 0.90949 0.07745 0.45201 0.0
C925 C 0.92048 0.1387 0.45445 0.0
C926 C 0.92912 0.06212 0.43874 0.0
C927 C 0.94618 0.05177 0.45251 0.0
C928 C 0.94359 0.05615 0.4798 0.0
C929 C 0.92297 0.07015 0.49325 0.0
C930 C 0.90595 0.08075 0.4794 0.0
H931 H 0.92574 0.16029 0.44979 0.0
H932 H 0.91072 0.13882 0.47491 0.0
H933 H 0.93999 0.13055 0.45309 0.0
H934 H 0.93223 0.05939 0.41763 0.0
H935 H 0.96233 0.04146 0.44181 0.0
H936 H 0.81806 0.86434 0.28999 0.0
H937 H 0.84912 0.89584 0.31834 0.0
H938 H 0.88184 0.82729 0.33518 0.0
H939 H 0.85136 0.79581 0.30677 0.0
H940 H 0.85109 0.89482 0.37154 0.0
H941 H 0.95197 0.88234 0.31524 0.0
H942 H 0.91947 0.87178 0.30132 0.0
H943 H 0.93015 0.84999 0.32113 0.0
C944 C 0.83212 0.856 0.29946 0.0
C945 C 0.83231 0.82753 0.29598 0.0
C946 C 0.84979 0.87403 0.3157 0.0
C947 C 0.86809 0.86394 0.3285 0.0
C948 C 0.86834 0.83559 0.32501 0.0
H949 H 0.97393 0.90705 0.44777 0.0
H950 H 0.94641 0.88723 0.41201 0.0
C951 C 0.85075 0.81759 0.30884 0.0
C952 C 0.88606 0.88262 0.3466 0.0
H953 H 0.95327 0.90107 0.36019 0.0
C954 C 0.87348 0.89663 0.36889 0.0
C955 C 0.91525 0.885 0.34299 0.0
C956 C 0.93005 0.8717 0.31873 0.0
C957 C 0.88922 0.91167 0.38844 0.0
C958 C 0.91829 0.91294 0.38535 0.0
C959 C 0.93096 0.89991 0.36254 0.0
C960 C 0.93564 0.92574 0.40643 0.0
C961 C 0.87453 0.92491 0.41279 0.0
C962 C 0.93908 0.95409 0.41486 0.0
C963 C 0.95486 0.96557 0.43538 0.0
C964 C 0.96751 0.94885 0.44777 0.0
C965 C 0.96446 0.92055 0.4388 0.0
C966 C 0.94875 0.90916 0.41831 0.0
H967 H 0.85165 0.91795 0.41408 0.0
H968 H 0.88203 0.9202 0.43043 0.0
H969 H 0.87907 0.94761 0.41282 0.0
H970 H 0.92947 0.9673 0.40565 0.0
H971 H 0.95679 0.98744 0.44176 0.0
H972 H 0.16535 0.86984 0.38581 0.0
H973 H 0.17909 0.91087 0.41543 0.0
H974 H 0.25414 0.93313 0.36405 0.0
H975 H 0.23986 0.89146 0.33388 0.0
H976 H 0.22364 0.94386 0.44262 0.0
H977 H 0.21143 0.9927 0.35731 0.0
H978 H 0.20468 0.95565 0.3522 0.0
H979 H 0.23905 0.97406 0.35768 0.0
C980 C 0.18513 0.88311 0.38121 0.0
C981 C 0.20117 0.87822 0.35741 0.0
C982 C 0.19327 0.90642 0.3983 0.0
C983 C 0.21749 0.92549 0.39177 0.0
C984 C 0.23523 0.91894 0.36931 0.0
H985 H 0.09653 0.01763 0.44405 0.0
H986 H 0.14686 0.02182 0.43226 0.0
C987 C 0.22706 0.89528 0.35211 0.0
C988 C 0.21897 0.95398 0.40495 0.0
H989 H 0.17668 0.99589 0.3941 0.0
C990 C 0.21478 0.95675 0.43229 0.0
C991 C 0.20919 0.97256 0.39199 0.0
C992 C 0.21656 0.97394 0.36318 0.0
C993 C 0.19366 0.97017 0.44552 0.0
C994 C 0.17773 0.98147 0.43081 0.0
C995 C 0.18791 0.98578 0.40508 0.0
C996 C 0.14766 0.9801 0.43843 0.0
C997 C 0.18583 0.96843 0.47426 0.0
C998 C 0.13129 0.95467 0.44374 0.0
C999 C 0.10278 0.95209 0.45011 0.0
C1000 C 0.08988 0.97493 0.4513 0.0
C1001 C 0.10596 0.99984 0.44389 0.0
C1002 C 0.1347 1.0024 0.43748 0.0
H1003 H 0.20476 0.97128 0.48432 0.0
H1004 H 0.17323 0.98412 0.48334 0.0
H1005 H 0.17365 0.94764 0.47718 0.0
H1006 H 0.14061 0.93667 0.44307 0.0
H1007 H 0.09105 0.93244 0.4552 0.0
H1008 H 0.23048 0.93176 0.6919 0.0
H1009 H 0.21505 0.94428 0.65336 0.0
H1010 H 0.15254 0.87039 0.6503 0.0
H1011 H 0.16808 0.8576 0.68891 0.0
H1012 H 0.19921 0.90504 0.59771 0.0
H1013 H 0.11865 0.9495 0.66688 0.0
H1014 H 0.15136 0.94685 0.67704 0.0
H1015 H 0.12585 0.91639 0.67082 0.0
C1016 C 0.21389 0.91786 0.68261 0.0
C1017 C 0.20032 0.89381 0.69343 0.0
C1018 C 0.20518 0.92499 0.6606 0.0
C1019 C 0.18265 0.9083 0.64912 0.0
C1020 C 0.17007 0.88344 0.65889 0.0
H1021 H 0.0885 0.92123 0.52742 0.0
H1022 H 0.11885 0.90753 0.55429 0.0
C1023 C 0.17898 0.87613 0.68085 0.0
C1024 C 0.1703 0.91871 0.62916 0.0
H1025 H 0.11954 0.95367 0.62254 0.0
C1026 C 0.18178 0.91564 0.60303 0.0
C1027 C 0.14784 0.93284 0.63635 0.0
C1028 C 0.13508 0.93679 0.66428 0.0
C1029 C 0.17095 0.92604 0.58376 0.0
C1030 C 0.14823 0.93987 0.59094 0.0
C1031 C 0.13712 0.94329 0.61715 0.0
C1032 C 0.13406 0.94901 0.57144 0.0
C1033 C 0.18382 0.92229 0.55588 0.0
C1034 C 0.13294 0.97701 0.5718 0.0
C1035 C 0.11574 0.98497 0.55619 0.0
C1036 C 0.09901 0.96491 0.54054 0.0
C1037 C 0.1012 0.93709 0.53935 0.0
C1038 C 0.11862 0.92923 0.55459 0.0
H1039 H 0.20478 0.91699 0.55441 0.0
H1040 H 0.17042 0.90529 0.54479 0.0
H1041 H 0.18545 0.94128 0.54655 0.0
H1042 H 0.14454 0.99254 0.5849 0.0
H1043 H 0.11416 1.00649 0.55764 0.0
H1044 H 0.23402 0.17154 0.71611 0.0
H1045 H 0.20511 0.14274 0.68445 0.0
H1046 H 0.14616 0.19776 0.70204 0.0
H1047 H 0.17612 0.22761 0.73236 0.0
H1048 H 0.15618 0.1137 0.68456 0.0
H1049 H 0.16017 0.19852 0.62601 0.0
H1050 H 0.18068 0.20231 0.65268 0.0
H1051 H 0.14491 0.20655 0.65866 0.0
C1052 C 0.21476 0.17732 0.71331 0.0
C1053 C 0.20733 0.20186 0.7264 0.0
C1054 C 0.19827 0.16089 0.6952 0.0
C1055 C 0.17378 0.16843 0.69026 0.0
C1056 C 0.16547 0.19204 0.70471 0.0
H1057 H 0.05102 0.05636 0.5999 0.0
H1058 H 0.07828 0.0806 0.63503 0.0
C1059 C 0.1824 0.20894 0.72222 0.0
C1060 C 0.15743 0.152 0.66956 0.0
H1061 H 0.1276 0.15761 0.61594 0.0
C1062 C 0.15009 0.12327 0.66943 0.0
C1063 C 0.15002 0.16433 0.6494 0.0
C1064 C 0.15964 0.19455 0.64649 0.0
C1065 C 0.13542 0.10661 0.64987 0.0
C1066 C 0.12661 0.11916 0.6306 0.0
C1067 C 0.13403 0.14788 0.63078 0.0
C1068 C 0.11045 0.10317 0.60953 0.0
C1069 C 0.13046 0.07574 0.64967 0.0
C1070 C 0.11886 0.10826 0.58357 0.0
C1071 C 0.10272 0.09533 0.56381 0.0
C1072 C 0.07823 0.07651 0.56948 0.0
C1073 C 0.07007 0.07064 0.59517 0.0
C1074 C 0.08579 0.08429 0.61516 0.0
H1075 H 0.14622 0.06944 0.65964 0.0
H1076 H 0.10981 0.0688 0.66032 0.0
H1077 H 0.13101 0.06495 0.62951 0.0
H1078 H 0.13778 0.1226 0.57859 0.0
H1079 H 0.1094 0.10002 0.54404 0.0
H1080 H 0.83899 0.16881 0.60375 0.0
H1081 H 0.84253 0.12087 0.59814 0.0
H1082 H 0.81494 0.11615 0.67978 0.0
H1083 H 0.81531 0.16506 0.68633 0.0
H1084 H 0.86231 0.10788 0.67321 0.0
H1085 H 0.81725 0.04224 0.59137 0.0
H1086 H 0.83154 0.07407 0.57871 0.0
H1087 H 0.80386 0.07292 0.60536 0.0
C1088 C 0.8334 0.15762 0.62056 0.0
C1089 C 0.82882 0.17147 0.64575 0.0
C1090 C 0.83451 0.12966 0.61715 0.0
C1091 C 0.82966 0.11472 0.63871 0.0
C1092 C 0.81942 0.12731 0.66292 0.0
H1093 H 0.95217 1.01048 0.58402 0.0
H1094 H 0.9091 0.01576 0.61195 0.0
C1095 C 0.81957 0.15559 0.66659 0.0
C1096 C 0.84381 0.09094 0.63764 0.0
H1097 H 0.87008 0.04477 0.59123 0.0
C1098 C 0.86293 0.09309 0.65584 0.0
C1099 C 0.84466 0.07088 0.61555 0.0
C1100 C 0.8229 0.06483 0.5969 0.0
C1101 C 0.88558 0.07961 0.65012 0.0
C1102 C 0.8891 0.06376 0.62577 0.0
C1103 C 0.86762 0.05766 0.60969 0.0
C1104 C 0.917 0.06015 0.61383 0.0
C1105 C 0.90733 0.08504 0.66875 0.0
C1106 C 0.93591 0.08348 0.6065 0.0
C1107 C 0.96005 0.08053 0.59009 0.0
C1108 C 0.96567 0.05417 0.58092 0.0
C1109 C 0.94807 0.03101 0.59046 0.0
C1110 C 0.92353 0.03393 0.60643 0.0
H1111 H 0.89809 0.08967 0.68915 0.0
H1112 H 0.91783 0.06711 0.66739 0.0
H1113 H 0.92322 0.10319 0.66376 0.0
H1114 H 0.93102 0.10391 0.61199 0.0
H1115 H 0.97333 0.09874 0.58328 0.0
H1116 H 0.78742 0.84497 0.72419 0.0
H1117 H 0.81113 0.87394 0.69097 0.0
H1118 H 0.88491 0.84001 0.68929 0.0
H1119 H 0.8612 0.81051 0.72254 0.0
H1120 H 0.88633 0.90657 0.69046 0.0
H1121 H 0.83539 0.83304 0.61264 0.0
H1122 H 0.81593 0.8402 0.6439 0.0
H1123 H 0.84367 0.82142 0.64132 0.0
C1124 C 0.80879 0.84378 0.71701 0.0
C1125 C 0.82236 0.82521 0.7259 0.0
C1126 C 0.82229 0.86043 0.69804 0.0
C1127 C 0.84966 0.85901 0.68766 0.0
C1128 C 0.86374 0.84139 0.69716 0.0
H1129 H 0.96177 0.90333 0.55802 0.0
H1130 H 0.93061 0.88317 0.59316 0.0
C1131 C 0.8502 0.8246 0.71616 0.0
C1132 C 0.86288 0.87465 0.66573 0.0
H1133 H 0.86685 0.8719 0.59959 0.0
C1134 C 0.8819 0.89923 0.67062 0.0
C1135 C 0.85692 0.86497 0.63994 0.0
C1136 C 0.83689 0.83844 0.63386 0.0
C1137 C 0.89563 0.91409 0.65014 0.0
C1138 C 0.89012 0.90404 0.62427 0.0
C1139 C 0.87068 0.87974 0.6195 0.0
C1140 C 0.90723 0.91619 0.60172 0.0
C1141 C 0.91682 0.9398 0.65603 0.0
C1142 C 0.90383 0.94117 0.59428 0.0
C1143 C 0.92158 0.9528 0.57372 0.0
C1144 C 0.94331 0.93986 0.56075 0.0
C1145 C 0.94566 0.91425 0.56773 0.0
C1146 C 0.92781 0.90257 0.58787 0.0
H1147 H 0.91937 0.94443 0.67711 0.0
H1148 H 0.93722 0.93746 0.64497 0.0
H1149 H 0.91041 0.95762 0.64962 0.0
H1150 H 0.88777 0.95182 0.6046 0.0
H1151 H 0.91882 0.97224 0.56858 0.0
H1152 H 0.29006 0.18548 0.19561 0.0
H1153 H 0.32202 0.16051 0.16582 0.0
H1154 H 0.39101 0.22367 0.18745 0.0
H1155 H 0.35935 0.24846 0.2173 0.0
H1156 H 0.35791 0.17159 0.12333 0.0
H1157 H 0.41843 0.15723 0.20017 0.0
H1158 H 0.38629 0.16996 0.20763 0.0
H1159 H 0.41822 0.19286 0.19874 0.0
C1160 C 0.31202 0.19415 0.19396 0.0
C1161 C 0.32196 0.21903 0.20913 0.0
C1162 C 0.33038 0.17976 0.17688 0.0
C1163 C 0.35927 0.1897 0.17458 0.0
C1164 C 0.36908 0.21491 0.18924 0.0
H1165 H 0.47557 0.12054 0.04728 0.0
H1166 H 0.4481 0.15207 0.07507 0.0
C1167 C 0.35079 0.22921 0.20634 0.0
C1168 C 0.3791 0.17376 0.15711 0.0
H1169 H 0.43703 0.14565 0.15654 0.0
C1170 C 0.37521 0.16594 0.13065 0.0
C1171 C 0.40164 0.16587 0.16643 0.0
C1172 C 0.40628 0.17164 0.19483 0.0
C1173 C 0.39306 0.15082 0.11347 0.0
C1174 C 0.41606 0.14364 0.12265 0.0
C1175 C 0.41984 0.15139 0.14913 0.0
C1176 C 0.43492 0.12601 0.10598 0.0
C1177 C 0.38644 0.14183 0.08582 0.0
C1178 C 0.43821 0.10147 0.11438 0.0
C1179 C 0.45423 0.08379 0.09879 0.0
C1180 C 0.46777 0.08991 0.07414 0.0
C1181 C 0.46572 0.11515 0.06616 0.0
C1182 C 0.44952 0.13299 0.08191 0.0
H1183 H 0.36467 0.1429 0.08364 0.0
H1184 H 0.40036 0.15565 0.07277 0.0
H1185 H 0.38972 0.12043 0.07929 0.0
H1186 H 0.42755 0.09542 0.13279 0.0
H1187 H 0.45525 0.06466 0.10579 0.0
H1188 H 0.82909 0.34309 0.23766 0.0
H1189 H 0.86067 0.36814 0.20501 0.0
H1190 H 0.84478 0.29751 0.14727 0.0
H1191 H 0.81274 0.27258 0.17968 0.0
H1192 H 0.90306 0.32314 0.14844 0.0
H1193 H 0.83485 0.39791 0.14384 0.0
H1194 H 0.84129 0.39374 0.17596 0.0
H1195 H 0.82213 0.36541 0.15658 0.0
C1196 C 0.83218 0.33298 0.21796 0.0
C1197 C 0.8185 0.30584 0.21124 0.0
C1198 C 0.85028 0.34728 0.19935 0.0
C1199 C 0.85498 0.33474 0.17367 0.0
C1200 C 0.84152 0.30756 0.16697 0.0
H1201 H 0.92138 0.42249 0.04092 0.0
H1202 H 0.89507 0.38975 0.07006 0.0
C1203 C 0.82328 0.29333 0.18553 0.0
C1204 C 0.87339 0.3502 0.15363 0.0
H1205 H 0.87942 0.4057 0.12058 0.0
C1206 C 0.89794 0.34119 0.14228 0.0
C1207 C 0.86646 0.37348 0.14538 0.0
C1208 C 0.83966 0.38319 0.15585 0.0
C1209 C 0.91595 0.35513 0.12312 0.0
C1210 C 0.90932 0.37885 0.11535 0.0
C1211 C 0.8846 0.3876 0.12658 0.0
C1212 C 0.92732 0.39496 0.09545 0.0
C1213 C 0.94159 0.34407 0.11103 0.0
C1214 C 0.95456 0.40824 0.09953 0.0
C1215 C 0.96974 0.42673 0.08263 0.0
C1216 C 0.95783 0.43221 0.0615 0.0
C1217 C 0.93113 0.41813 0.05682 0.0
C1218 C 0.91605 0.3996 0.07357 0.0
H1219 H 0.9399 0.32213 0.11388 0.0
H1220 H 0.94548 0.3459 0.08984 0.0
H1221 H 0.9598 0.3562 0.12035 0.0
H1222 H 0.9635 0.40551 0.11655 0.0
H1223 H 0.99006 0.43793 0.08692 0.0
H1224 H 0.65279 0.87964 0.21561 0.0
H1225 H 0.6282 0.89535 0.18476 0.0
H1226 H 0.70558 0.9176 0.13693 0.0
H1227 H 0.73034 0.90192 0.16771 0.0
H1228 H 0.63587 0.94781 0.17161 0.0
H1229 H 0.65545 0.87459 0.0836 0.0
H1230 H 0.6613 0.86899 0.11563 0.0
H1231 H 0.68653 0.89222 0.09723 0.0
C1232 C 0.66458 0.88779 0.19847 0.0
C1233 C 0.69356 0.88962 0.19416 0.0
C1234 C 0.65047 0.89666 0.18081 0.0
C1235 C 0.66498 0.9074 0.1584 0.0
C1236 C 0.69385 0.90884 0.15379 0.0
H1237 H 0.62846 0.989 0.03647 0.0
H1238 H 0.64907 0.96897 0.06722 0.0
C1239 C 0.70799 0.8999 0.17143 0.0
C1240 C 0.65014 0.91862 0.14074 0.0
H1241 H 0.63726 0.91369 0.07746 0.0
C1242 C 0.63595 0.94019 0.15107 0.0
C1243 C 0.65026 0.90864 0.11395 0.0
C1244 C 0.66397 0.88466 0.10196 0.0
C1245 C 0.62259 0.9526 0.13519 0.0
C1246 C 0.62311 0.94292 0.10834 0.0
C1247 C 0.63697 0.92111 0.09806 0.0
C1248 C 0.61021 0.95572 0.09035 0.0
C1249 C 0.60877 0.97653 0.14712 0.0
C1250 C 0.58145 0.95498 0.09318 0.0
C1251 C 0.5695 0.96653 0.07562 0.0
C1252 C 0.58613 0.97886 0.0548 0.0
C1253 C 0.61497 0.9797 0.05222 0.0
C1254 C 0.62684 0.96819 0.06976 0.0
H1255 H 0.61552 0.98536 0.1665 0.0
H1256 H 0.61334 0.99309 0.1342 0.0
H1257 H 0.58595 0.96936 0.14971 0.0
H1258 H 0.56817 0.94506 0.10871 0.0
H1259 H 0.54721 0.96531 0.0781 0.0
H1260 H 0.26578 0.70459 0.17614 0.0
H1261 H 0.2357 0.67506 0.14522 0.0
H1262 H 0.1694 0.66248 0.20756 0.0
H1263 H 0.19901 0.69156 0.23824 0.0
H1264 H 0.20431 0.6182 0.14651 0.0
H1265 H 0.13567 0.69496 0.15296 0.0
H1266 H 0.17007 0.70383 0.16322 0.0
H1267 H 0.14179 0.68636 0.18365 0.0
C1268 C 0.24491 0.69522 0.18322 0.0
C1269 C 0.23465 0.70076 0.20953 0.0
C1270 C 0.22772 0.67846 0.16557 0.0
C1271 C 0.20007 0.66711 0.17401 0.0
C1272 C 0.19039 0.67153 0.20049 0.0
H1273 H 0.05854 0.57398 0.0934 0.0
H1274 H 0.08795 0.59879 0.12699 0.0
C1275 C 0.20744 0.68812 0.21802 0.0
C1276 C 0.18095 0.65099 0.15532 0.0
H1277 H 0.121 0.65124 0.12968 0.0
C1278 C 0.18617 0.62545 0.14273 0.0
C1279 C 0.15706 0.66033 0.15067 0.0
C1280 C 0.1508 0.68796 0.16314 0.0
C1281 C 0.16804 0.60889 0.12576 0.0
C1282 C 0.14435 0.61841 0.12076 0.0
C1283 C 0.13901 0.64385 0.13359 0.0
C1284 C 0.12612 0.60321 0.10085 0.0
C1285 C 0.17427 0.58114 0.11365 0.0
C1286 C 0.1376 0.598 0.07499 0.0
C1287 C 0.12103 0.5839 0.05597 0.0
C1288 C 0.09228 0.5748 0.0621 0.0
C1289 C 0.08055 0.58054 0.08797 0.0
C1290 C 0.09735 0.5947 0.10717 0.0
H1291 H 0.18713 0.57319 0.1256 0.0
H1292 H 0.1549 0.56577 0.11122 0.0
H1293 H 0.18612 0.58319 0.09417 0.0
H1294 H 0.1595 0.60504 0.06939 0.0
H1295 H 0.13095 0.58029 0.03628 0.0
H1296 H 0.30639 0.85641 0.80784 0.0
H1297 H 0.33675 0.88592 0.838 0.0
H1298 H 0.36963 0.81581 0.85048 0.0
H1299 H 0.33917 0.78596 0.82071 0.0
H1300 H 0.33945 0.87255 0.89499 0.0
H1301 H 0.43801 0.88124 0.82829 0.0
H1302 H 0.40447 0.8748 0.81623 0.0
H1303 H 0.41564 0.848 0.82913 0.0
C1304 C 0.32 0.84716 0.817 0.0
C1305 C 0.32017 0.81869 0.81183 0.0
C1306 C 0.33738 0.86411 0.83419 0.0
C1307 C 0.35554 0.85305 0.84627 0.0
C1308 C 0.35589 0.82475 0.84116 0.0
H1309 H 0.48321 0.92511 0.94895 0.0
H1310 H 0.4553 0.89665 0.91601 0.0
C1311 C 0.33836 0.80773 0.82418 0.0
C1312 C 0.37354 0.87092 0.86486 0.0
H1313 H 0.44052 0.90277 0.87139 0.0
C1314 C 0.36154 0.87928 0.88989 0.0
C1315 C 0.40236 0.87922 0.85818 0.0
C1316 C 0.41608 0.87054 0.83149 0.0
C1317 C 0.37766 0.89554 0.90861 0.0
C1318 C 0.4065 0.90463 0.90178 0.0
C1319 C 0.41847 0.89606 0.87667 0.0
C1320 C 0.42452 0.92284 0.92047 0.0
C1321 C 0.36362 0.90194 0.93576 0.0
C1322 C 0.41721 0.94756 0.9333 0.0
C1323 C 0.43272 0.96338 0.95248 0.0
C1324 C 0.45648 0.95538 0.95858 0.0
C1325 C 0.46497 0.9317 0.94457 0.0
C1326 C 0.44899 0.91544 0.9258 0.0
H1327 H 0.34462 0.88637 0.93997 0.0
H1328 H 0.37772 0.90266 0.95075 0.0
H1329 H 0.3572 0.92225 0.93751 0.0
H1330 H 0.39918 0.95443 0.92883 0.0
H1331 H 0.42601 0.98183 0.96271 0.0
H1332 H 0.23957 0.34073 0.81278 0.0
H1333 H 0.20781 0.36719 0.84094 0.0
H1334 H 0.14674 0.29296 0.84729 0.0
H1335 H 0.17785 0.26661 0.81808 0.0
H1336 H 0.15071 0.3705 0.83237 0.0
H1337 H 0.15376 0.32855 0.92469 0.0
H1338 H 0.18035 0.32621 0.89745 0.0
H1339 H 0.14709 0.30401 0.89639 0.0
C1340 C 0.21923 0.33002 0.81977 0.0
C1341 C 0.21135 0.30142 0.81275 0.0
C1342 C 0.20112 0.3452 0.83618 0.0
C1343 C 0.1748 0.3322 0.8466 0.0
C1344 C 0.16697 0.30359 0.8399 0.0
H1345 H 0.04847 0.40597 0.95973 0.0
H1346 H 0.07275 0.37221 0.93101 0.0
C1347 C 0.18489 0.28848 0.82312 0.0
C1348 C 0.15532 0.34874 0.86365 0.0
H1349 H 0.12426 0.36069 0.92616 0.0
C1350 C 0.14492 0.36827 0.85286 0.0
C1351 C 0.14718 0.34567 0.89036 0.0
C1352 C 0.15772 0.32513 0.90311 0.0
C1353 C 0.12693 0.38476 0.86784 0.0
C1354 C 0.11972 0.3827 0.89493 0.0
C1355 C 0.1296 0.3626 0.90558 0.0
C1356 C 0.10399 0.40267 0.91259 0.0
C1357 C 0.11548 0.40393 0.85412 0.0
C1358 C 0.11331 0.43112 0.91243 0.0
C1359 C 0.0993 0.45025 0.92833 0.0
C1360 C 0.07553 0.44196 0.94578 0.0
C1361 C 0.06633 0.41337 0.94646 0.0
C1362 C 0.08039 0.394 0.93007 0.0
H1363 H 0.11374 0.3957 0.83335 0.0
H1364 H 0.09471 0.40729 0.86351 0.0
H1365 H 0.12989 0.4241 0.8545 0.0
H1366 H 0.13191 0.43878 0.90014 0.0
H1367 H 0.10776 0.47184 0.92713 0.0
H1368 H 0.72422 0.19128 0.78703 0.0
H1369 H 0.69237 0.16464 0.81863 0.0
H1370 H 0.69049 0.23868 0.87223 0.0
H1371 H 0.72199 0.26535 0.84093 0.0
H1372 H 0.69752 0.19115 0.8951 0.0
H1373 H 0.60789 0.16958 0.83724 0.0
H1374 H 0.63941 0.16035 0.82002 0.0
H1375 H 0.63801 0.19591 0.83083 0.0
C1376 C 0.71718 0.20183 0.80562 0.0
C1377 C 0.72553 0.2305 0.81132 0.0
C1378 C 0.69881 0.18663 0.82359 0.0
C1379 C 0.68867 0.19974 0.8477 0.0
C1380 C 0.69778 0.22815 0.85374 0.0
H1381 H 0.58318 0.13021 0.98324 0.0
H1382 H 0.60944 0.16394 0.95454 0.0
C1383 C 0.71581 0.24336 0.83574 0.0
C1384 C 0.66853 0.18397 0.86663 0.0
H1385 H 0.60276 0.14629 0.87472 0.0
C1386 C 0.67673 0.18149 0.89076 0.0
C1387 C 0.6413 0.17161 0.86108 0.0
C1388 C 0.63091 0.17462 0.836 0.0
C1389 C 0.65891 0.16596 0.90895 0.0
C1390 C 0.6318 0.15307 0.90319 0.0
C1391 C 0.62341 0.15621 0.87929 0.0
C1392 C 0.61299 0.13397 0.92036 0.0
C1393 C 0.66972 0.16247 0.93368 0.0
C1394 C 0.6049 0.10626 0.9105 0.0
C1395 C 0.58981 0.0872 0.9267 0.0
C1396 C 0.58214 0.09528 0.95325 0.0
C1397 C 0.58863 0.12336 0.96287 0.0
C1398 C 0.60398 0.14256 0.94655 0.0
H1399 H 0.69264 0.16888 0.93271 0.0
H1400 H 0.66027 0.17537 0.95027 0.0
H1401 H 0.66406 0.14068 0.93772 0.0
H1402 H 0.61131 0.09905 0.89042 0.0
H1403 H 0.58502 0.06576 0.9186 0.0
H1404 H 0.87083 0.71171 0.87293 0.0
H1405 H 0.87848 0.67865 0.90066 0.0
H1406 H 0.94439 0.6559 0.84388 0.0
H1407 H 0.93672 0.68839 0.81607 0.0
H1408 H 0.88162 0.61783 0.88895 0.0
H1409 H 0.98037 0.68603 0.91351 0.0
H1410 H 0.95377 0.69827 0.90045 0.0
H1411 H 0.97637 0.67851 0.87936 0.0
C1412 C 0.88659 0.69929 0.86616 0.0
C1413 C 0.90348 0.70306 0.84247 0.0
C1414 C 0.89101 0.68049 0.88206 0.0
C1415 C 0.91235 0.66519 0.87453 0.0
C1416 C 0.92814 0.66784 0.85029 0.0
H1417 H 0.99734 0.56385 0.94473 0.0
H1418 H 0.98104 0.59061 0.91634 0.0
C1419 C 0.92377 0.6865 0.83445 0.0
C1420 C 0.91937 0.64756 0.89238 0.0
H1421 H 0.971 0.64172 0.92728 0.0
C1422 C 0.90105 0.62308 0.89752 0.0
C1423 C 0.94479 0.65441 0.90343 0.0
C1424 C 0.96493 0.68083 0.89915 0.0
C1425 C 0.90786 0.60484 0.91281 0.0
C1426 C 0.93343 0.61163 0.92376 0.0
C1427 C 0.9515 0.63636 0.91884 0.0
C1428 C 0.94212 0.5935 0.94025 0.0
C1429 C 0.88804 0.57807 0.91632 0.0
C1430 C 0.9257 0.58602 0.96319 0.0
C1431 C 0.93487 0.57044 0.9794 0.0
C1432 C 0.9609 0.56233 0.97325 0.0
C1433 C 0.97719 0.56965 0.95013 0.0
C1434 C 0.9679 0.58503 0.93386 0.0
H1435 H 0.87394 0.57232 0.90079 0.0
H1436 H 0.89938 0.56099 0.91625 0.0
H1437 H 0.87501 0.58036 0.9353 0.0
H1438 H 0.9061 0.59285 0.96899 0.0
H1439 H 0.92187 0.56543 0.99714 0.0
H1440 H 0.15868 0.3166 0.15407 0.0
H1441 H 0.14546 0.34313 0.12338 0.0
H1442 H 0.14203 0.41152 0.1838 0.0
H1443 H 0.15641 0.38574 0.21416 0.0
H1444 H 0.09819 0.36294 0.12555 0.0
H1445 H 0.18718 0.45006 0.12511 0.0
H1446 H 0.18761 0.41891 0.13868 0.0
H1447 H 0.17078 0.44541 0.1574 0.0
C1448 C 0.1557 0.3375 0.16069 0.0
C1449 C 0.15862 0.34897 0.18666 0.0
C1450 C 0.14791 0.35258 0.14316 0.0
C1451 C 0.14305 0.3795 0.15114 0.0
C1452 C 0.14618 0.39104 0.17696 0.0
H1453 H 0.04258 0.46529 0.07845 0.0
H1454 H 0.06076 0.43984 0.10674 0.0
C1455 C 0.15406 0.37607 0.19444 0.0
C1456 C 0.1334 0.39505 0.13294 0.0
H1457 H 0.14707 0.4564 0.10756 0.0
C1458 C 0.109 0.38329 0.12147 0.0
C1459 C 0.14765 0.42148 0.12729 0.0
C1460 C 0.17491 0.43459 0.13755 0.0
C1461 C 0.09813 0.39745 0.10505 0.0
C1462 C 0.11167 0.42443 0.10042 0.0
C1463 C 0.13643 0.43591 0.11138 0.0
C1464 C 0.10083 0.44088 0.08384 0.0
C1465 C 0.07251 0.38311 0.09249 0.0
C1466 C 0.11763 0.45103 0.06212 0.0
C1467 C 0.10744 0.46597 0.04609 0.0
C1468 C 0.08015 0.47113 0.0514 0.0
C1469 C 0.0636 0.46156 0.0736 0.0
C1470 C 0.0739 0.44676 0.08971 0.0
H1471 H 0.06962 0.36036 0.09175 0.0
H1472 H 0.05398 0.38978 0.10412 0.0
H1473 H 0.07352 0.38831 0.07237 0.0
H1474 H 0.13854 0.44696 0.05726 0.0
H1475 H 0.12082 0.47298 0.02922 0.0
H1476 H 0.2295 0.75942 0.84701 0.0
H1477 H 0.19639 0.73567 0.87959 0.0
H1478 H 0.17623 0.66619 0.82157 0.0
H1479 H 0.20889 0.69001 0.78883 0.0
H1480 H 0.13652 0.71203 0.87855 0.0
H1481 H 0.20225 0.63491 0.8822 0.0
H1482 H 0.21564 0.66697 0.86878 0.0
H1483 H 0.19572 0.63869 0.85002 0.0
C1484 C 0.21781 0.73917 0.84118 0.0
C1485 C 0.22172 0.72657 0.81539 0.0
C1486 C 0.19894 0.72565 0.85979 0.0
C1487 C 0.18401 0.69913 0.85301 0.0
C1488 C 0.18776 0.68657 0.82723 0.0
H1489 H 0.07501 0.56872 0.92249 0.0
H1490 H 0.10073 0.60237 0.89433 0.0
C1491 C 0.20651 0.70013 0.8086 0.0
C1492 C 0.16529 0.684 0.873 0.0
H1493 H 0.15636 0.62627 0.90338 0.0
C1494 C 0.14088 0.6934 0.88422 0.0
C1495 C 0.17123 0.65988 0.88046 0.0
C1496 C 0.19774 0.64957 0.86996 0.0
C1497 C 0.12164 0.67852 0.90194 0.0
C1498 C 0.12722 0.65391 0.9087 0.0
C1499 C 0.15204 0.64508 0.89804 0.0
C1500 C 0.10713 0.6358 0.92552 0.0
C1501 C 0.09508 0.68856 0.91258 0.0
C1502 C 0.10122 0.64372 0.95237 0.0
C1503 C 0.08618 0.62441 0.96862 0.0
C1504 C 0.07729 0.59696 0.95815 0.0
C1505 C 0.08176 0.58972 0.93108 0.0
C1506 C 0.09647 0.60891 0.91497 0.0
H1507 H 0.09199 0.70566 0.90248 0.0
H1508 H 0.07701 0.67142 0.91068 0.0
H1509 H 0.09561 0.69606 0.93361 0.0
H1510 H 0.10956 0.66429 0.96096 0.0
H1511 H 0.08328 0.6304 0.98945 0.0
H1512 H 0.33066 0.09505 0.82285 0.0
H1513 H 0.35895 0.08086 0.85138 0.0
H1514 H 0.39269 0.16607 0.87534 0.0
H1515 H 0.36398 0.18045 0.84697 0.0
H1516 H 0.41505 0.08984 0.85051 0.0
H1517 H 0.36711 0.13643 0.94467 0.0
H1518 H 0.35193 0.1333 0.91464 0.0
H1519 H 0.38105 0.16023 0.92139 0.0
C1520 C 0.34416 0.11078 0.83414 0.0
C1521 C 0.34515 0.13886 0.83267 0.0
C1522 C 0.36027 0.10265 0.85047 0.0
C1523 C 0.37775 0.12239 0.86566 0.0
C1524 C 0.37894 0.15049 0.86417 0.0
H1525 H 0.50146 0.07263 0.94642 0.0
H1526 H 0.48022 0.09335 0.9163 0.0
C1527 C 0.36259 0.15868 0.84795 0.0
C1528 C 0.39476 0.11318 0.88277 0.0
H1529 H 0.40463 0.1144 0.94638 0.0
C1530 C 0.41291 0.09531 0.87147 0.0
C1531 C 0.39176 0.12023 0.91012 0.0
C1532 C 0.37175 0.1384 0.92352 0.0
C1533 C 0.42767 0.08378 0.88681 0.0
C1534 C 0.42464 0.0908 0.91414 0.0
C1535 C 0.40699 0.10917 0.92539 0.0
C1536 C 0.43794 0.07785 0.93166 0.0
C1537 C 0.44547 0.06332 0.87373 0.0
C1538 C 0.42124 0.06248 0.95037 0.0
C1539 C 0.43325 0.05086 0.96766 0.0
C1540 C 0.46227 0.05436 0.96664 0.0
C1541 C 0.47904 0.06939 0.94758 0.0
C1542 C 0.46694 0.08119 0.93033 0.0
H1543 H 0.44064 0.05554 0.85352 0.0
H1544 H 0.46763 0.07347 0.8728 0.0
H1545 H 0.44264 0.04548 0.88493 0.0
H1546 H 0.39882 0.05956 0.95167 0.0
H1547 H 0.41971 0.03928 0.98198 0.0
H1548 H 0.77614 0.35433 0.83193 0.0
H1549 H 0.80573 0.38417 0.86246 0.0
H1550 H 0.8632 0.32794 0.84751 0.0
H1551 H 0.83365 0.29817 0.81753 0.0
H1552 H 0.82817 0.3707 0.90813 0.0
H1553 H 0.91056 0.40437 0.82966 0.0
H1554 H 0.87531 0.38945 0.82349 0.0
H1555 H 0.89851 0.36778 0.82856 0.0
C1556 C 0.79521 0.34846 0.83462 0.0
C1557 C 0.80344 0.32467 0.82038 0.0
C1558 C 0.81205 0.36549 0.85238 0.0
C1559 C 0.83729 0.35886 0.85641 0.0
C1560 C 0.8444 0.33408 0.84392 0.0
H1561 H 0.97767 0.43358 0.94345 0.0
H1562 H 0.9467 0.40599 0.91241 0.0
C1563 C 0.82757 0.31716 0.8264 0.0
C1564 C 0.85643 0.37759 0.87359 0.0
H1565 H 0.92144 0.41722 0.87306 0.0
C1566 C 0.84847 0.38109 0.9005 0.0
C1567 C 0.88303 0.39082 0.86357 0.0
C1568 C 0.89241 0.38817 0.83472 0.0
C1569 C 0.86664 0.39699 0.91776 0.0
C1570 C 0.89326 0.41044 0.90775 0.0
C1571 C 0.90112 0.40697 0.88077 0.0
C1572 C 0.91301 0.42838 0.92498 0.0
C1573 C 0.85741 0.39844 0.94663 0.0
C1574 C 0.90493 0.45084 0.94153 0.0
C1575 C 0.9224 0.46634 0.95929 0.0
C1576 C 0.94865 0.46015 0.9606 0.0
C1577 C 0.95759 0.43884 0.94286 0.0
C1578 C 0.93984 0.42301 0.92523 0.0
H1579 H 0.84077 0.38072 0.95133 0.0
H1580 H 0.875 0.39874 0.95784 0.0
H1581 H 0.84895 0.41757 0.95322 0.0
H1582 H 0.88482 0.45608 0.9411 0.0
H1583 H 0.9151 0.48294 0.97243 0.0
H1584 H 0.7307 0.79449 0.84802 0.0
H1585 H 0.6988 0.81993 0.87735 0.0
H1586 H 0.6845 0.85837 0.81284 0.0
H1587 H 0.71608 0.83257 0.78364 0.0
H1588 H 0.6968 0.87107 0.89397 0.0
H1589 H 0.60625 0.83345 0.83884 0.0
H1590 H 0.63752 0.81924 0.83113 0.0
H1591 H 0.63511 0.85063 0.81899 0.0
C1592 C 0.72105 0.80865 0.84021 0.0
C1593 C 0.72605 0.81152 0.81348 0.0
C1594 C 0.70251 0.8231 0.85698 0.0
C1595 C 0.68832 0.84081 0.8475 0.0
C1596 C 0.69408 0.84424 0.82082 0.0
H1597 H 0.58761 0.96276 0.91426 0.0
H1598 H 0.61484 0.93131 0.88703 0.0
C1599 C 0.7124 0.82959 0.80406 0.0
C1600 C 0.66802 0.85593 0.86548 0.0
H1601 H 0.60285 0.87189 0.87154 0.0
C1602 C 0.67616 0.87088 0.8891 0.0
C1603 C 0.64076 0.85586 0.8596 0.0
C1604 C 0.62928 0.8387 0.83591 0.0
C1605 C 0.6585 0.88624 0.90623 0.0
C1606 C 0.63167 0.88681 0.89991 0.0
C1607 C 0.62334 0.87162 0.87653 0.0
C1608 C 0.61275 0.9044 0.91642 0.0
C1609 C 0.66904 0.90257 0.93066 0.0
C1610 C 0.60138 0.89947 0.942 0.0
C1611 C 0.58518 0.91735 0.95765 0.0
C1612 C 0.58023 0.94077 0.94819 0.0
C1613 C 0.59083 0.94494 0.92227 0.0
C1614 C 0.60657 0.92696 0.90662 0.0
H1615 H 0.69166 0.90364 0.93076 0.0
H1616 H 0.66483 0.92387 0.93282 0.0
H1617 H 0.65797 0.89271 0.94784 0.0
H1618 H 0.60546 0.88207 0.95006 0.0
H1619 H 0.57778 0.91363 0.97756 0.0
H1620 H 0.7978 0.69052 0.20773 0.0
H1621 H 0.82964 0.66417 0.17969 0.0
H1622 H 0.89209 0.73791 0.17679 0.0
H1623 H 0.86085 0.76391 0.20619 0.0
H1624 H 0.85365 0.66583 0.13143 0.0
H1625 H 0.93796 0.68796 0.19534 0.0
H1626 H 0.90424 0.6966 0.20622 0.0
H1627 H 0.92959 0.71852 0.18658 0.0
C1628 C 0.81845 0.70112 0.20144 0.0
C1629 C 0.82667 0.72947 0.2095 0.0
C1630 C 0.83668 0.68599 0.18513 0.0
C1631 C 0.86377 0.69865 0.17623 0.0
C1632 C 0.87176 0.72717 0.18375 0.0
H1633 H 0.98198 0.62343 0.05534 0.0
H1634 H 0.95614 0.65695 0.08231 0.0
C1635 C 0.85361 0.74224 0.20032 0.0
C1636 C 0.88326 0.68202 0.15898 0.0
H1637 H 0.94761 0.66414 0.15337 0.0
C1638 C 0.87422 0.66568 0.13629 0.0
C1639 C 0.91023 0.68128 0.1651 0.0
C1640 C 0.92103 0.69679 0.18975 0.0
C1641 C 0.89111 0.64901 0.11983 0.0
C1642 C 0.91802 0.6485 0.12585 0.0
C1643 C 0.92721 0.66481 0.1484 0.0
C1644 C 0.93566 0.62921 0.1102 0.0
C1645 C 0.87991 0.63139 0.09626 0.0
C1646 C 0.93339 0.60263 0.11705 0.0
C1647 C 0.94815 0.58356 0.10181 0.0
C1648 C 0.96583 0.59031 0.07908 0.0
C1649 C 0.9689 0.61738 0.07272 0.0
C1650 C 0.95394 0.63656 0.08807 0.0
H1651 H 0.85909 0.63485 0.09344 0.0
H1652 H 0.89442 0.63581 0.07854 0.0
H1653 H 0.87839 0.60931 0.09842 0.0
H1654 H 0.91956 0.59634 0.13396 0.0
H1655 H 0.94505 0.56308 0.10761 0.0
H1656 H 0.29085 0.82273 0.20084 0.0
H1657 H 0.32343 0.85109 0.17141 0.0
H1658 H 0.38937 0.81208 0.18544 0.0
H1659 H 0.35649 0.78366 0.21461 0.0
H1660 H 0.3696 0.88873 0.17752 0.0
H1661 H 0.39817 0.80147 0.10794 0.0
H1662 H 0.3699 0.79697 0.13362 0.0
H1663 H 0.40528 0.80045 0.14053 0.0
C1664 C 0.31226 0.82031 0.19776 0.0
C1665 C 0.32103 0.80066 0.20984 0.0
C1666 C 0.33096 0.83649 0.18079 0.0
C1667 C 0.35894 0.83348 0.17558 0.0
C1668 C 0.36782 0.81431 0.18827 0.0
H1669 H 0.49679 0.92355 0.07446 0.0
H1670 H 0.47095 0.89303 0.10653 0.0
C1671 C 0.34902 0.79797 0.20496 0.0
C1672 C 0.37868 0.85036 0.15697 0.0
H1673 H 0.42376 0.84559 0.10109 0.0
C1674 C 0.38141 0.87921 0.16086 0.0
C1675 C 0.39434 0.83825 0.1351 0.0
C1676 C 0.39161 0.80758 0.12884 0.0
C1677 C 0.39908 0.89598 0.14357 0.0
C1678 C 0.41441 0.88368 0.12162 0.0
C1679 C 0.41224 0.85503 0.11802 0.0
C1680 C 0.43048 0.90004 0.10093 0.0
C1681 C 0.40112 0.9268 0.14885 0.0
C1682 C 0.41628 0.91285 0.08627 0.0
C1683 C 0.43081 0.92977 0.06798 0.0
C1684 C 0.46 0.93433 0.06368 0.0
C1685 C 0.47432 0.92021 0.07716 0.0
C1686 C 0.45959 0.90306 0.09566 0.0
H1687 H 0.39434 0.93345 0.16957 0.0
H1688 H 0.4227 0.93763 0.14382 0.0
H1689 H 0.38749 0.93326 0.13663 0.0
H1690 H 0.39385 0.9103 0.08945 0.0
H1691 H 0.41917 0.94024 0.05777 0.0
H1692 H 0.71191 0.24387 0.19749 0.0
H1693 H 0.68231 0.21395 0.16719 0.0
H1694 H 0.69923 0.14239 0.19496 0.0
H1695 H 0.72945 0.17221 0.22501 0.0
H1696 H 0.70285 0.13602 0.14317 0.0
H1697 H 0.60476 0.17172 0.182 0.0
H1698 H 0.63192 0.19963 0.17332 0.0
H1699 H 0.63518 0.18061 0.19918 0.0
C1700 C 0.70931 0.22177 0.19728 0.0
C1701 C 0.72306 0.21049 0.21381 0.0
C1702 C 0.69213 0.20465 0.18004 0.0
C1703 C 0.68797 0.17587 0.17914 0.0
C1704 C 0.70191 0.16453 0.19541 0.0
H1705 H 0.56035 0.06592 0.09156 0.0
H1706 H 0.58666 0.09198 0.12672 0.0
C1707 C 0.71923 0.18164 0.21258 0.0
C1708 C 0.67002 0.15763 0.16047 0.0
H1709 H 0.6056 0.14554 0.13968 0.0
C1710 C 0.6815 0.13796 0.14259 0.0
C1711 C 0.64195 0.15968 0.15996 0.0
C1712 C 0.62763 0.17884 0.17983 0.0
C1713 C 0.66609 0.12098 0.12371 0.0
C1714 C 0.6386 0.12427 0.1221 0.0
C1715 C 0.62677 0.14325 0.14059 0.0
C1716 C 0.62219 0.1088 0.10094 0.0
C1717 C 0.67945 0.0995 0.10589 0.0
C1718 C 0.63299 0.11008 0.07475 0.0
C1719 C 0.61824 0.09498 0.05477 0.0
C1720 C 0.59194 0.07869 0.0604 0.0
C1721 C 0.58056 0.07823 0.08659 0.0
C1722 C 0.5956 0.0931 0.10668 0.0
H1723 H 0.69588 0.09334 0.11504 0.0
H1724 H 0.66394 0.08079 0.1006 0.0
H1725 H 0.6894 0.10821 0.08777 0.0
H1726 H 0.65296 0.12278 0.06969 0.0
H1727 H 0.62743 0.09622 0.03481 0.0
H1728 H 0.6894 0.72989 0.80421 0.0
H1729 H 0.65707 0.69686 0.82927 0.0
H1730 H 0.71773 0.64391 0.81879 0.0
H1731 H 0.75037 0.6771 0.7939 0.0
H1732 H 0.63434 0.64045 0.81776 0.0
H1733 H 0.70142 0.66019 0.89814 0.0
H1734 H 0.70615 0.68224 0.87279 0.0
H1735 H 0.71836 0.65009 0.86653 0.0
C1736 C 0.69575 0.71109 0.80709 0.0
C1737 C 0.72246 0.70613 0.79746 0.0
C1738 C 0.67726 0.69225 0.82132 0.0
C1739 C 0.68518 0.66817 0.82608 0.0
C1740 C 0.71146 0.66264 0.81562 0.0
H1741 H 0.58198 0.53384 0.90482 0.0
H1742 H 0.60642 0.56142 0.87038 0.0
C1743 C 0.73004 0.68156 0.80149 0.0
C1744 C 0.66653 0.64975 0.84331 0.0
H1745 H 0.66132 0.62587 0.90201 0.0
C1746 C 0.64018 0.63711 0.83616 0.0
C1747 C 0.67415 0.64594 0.86745 0.0
C1748 C 0.70144 0.66048 0.87689 0.0
C1749 C 0.62119 0.6206 0.85262 0.0
C1750 C 0.62907 0.61646 0.87653 0.0
C1751 C 0.65546 0.629 0.88354 0.0
C1752 C 0.6101 0.60026 0.89542 0.0
C1753 C 0.59266 0.60842 0.84476 0.0
C1754 C 0.60366 0.61309 0.9206 0.0
C1755 C 0.5902 0.59746 0.94018 0.0
C1756 C 0.58279 0.5687 0.93492 0.0
C1757 C 0.58744 0.556 0.9093 0.0
C1758 C 0.60128 0.57171 0.88965 0.0
H1759 H 0.58787 0.6183 0.8286 0.0
H1760 H 0.59149 0.58611 0.83815 0.0
H1761 H 0.57653 0.61063 0.86157 0.0
H1762 H 0.61021 0.63512 0.92539 0.0
H1763 H 0.5865 0.60782 0.95972 0.0
H1764 H 0.34271 0.64165 0.83338 0.0
H1765 H 0.35673 0.61816 0.86626 0.0
H1766 H 0.43769 0.67004 0.86025 0.0
H1767 H 0.42382 0.69372 0.82786 0.0
H1768 H 0.43832 0.61276 0.85249 0.0
H1769 H 0.3724 0.64175 0.94339 0.0
H1770 H 0.35465 0.62905 0.91498 0.0
H1771 H 0.37866 0.66123 0.91588 0.0
C1772 C 0.36325 0.6485 0.83954 0.0
C1773 C 0.38222 0.66939 0.8277 0.0
C1774 C 0.37126 0.63503 0.85834 0.0
C1775 C 0.3983 0.64233 0.86577 0.0
C1776 C 0.41678 0.66396 0.8548 0.0
H1777 H 0.5028 0.57564 0.95242 0.0
H1778 H 0.48347 0.60375 0.92754 0.0
C1779 C 0.40882 0.67741 0.83616 0.0
C1780 C 0.40838 0.62609 0.8831 0.0
H1781 H 0.40028 0.60878 0.94513 0.0
C1782 C 0.43004 0.61196 0.87277 0.0
C1783 C 0.39745 0.62487 0.90951 0.0
C1784 C 0.37464 0.64016 0.92178 0.0
C1785 C 0.44096 0.59654 0.88797 0.0
C1786 C 0.43042 0.59569 0.91453 0.0
C1787 C 0.4085 0.60957 0.92484 0.0
C1788 C 0.44169 0.5801 0.93163 0.0
C1789 C 0.46329 0.58078 0.87521 0.0
C1790 C 0.42446 0.55813 0.94324 0.0
C1791 C 0.43543 0.54206 0.95762 0.0
C1792 C 0.46391 0.54765 0.96084 0.0
C1793 C 0.48087 0.57045 0.95013 0.0
C1794 C 0.46986 0.58651 0.93576 0.0
H1795 H 0.46368 0.57751 0.85366 0.0
H1796 H 0.48384 0.59269 0.87992 0.0
H1797 H 0.46029 0.5604 0.8824 0.0
H1798 H 0.40263 0.55291 0.94054 0.0
H1799 H 0.42162 0.52492 0.96582 0.0
H1800 H 0.31045 0.34413 0.80095 0.0
H1801 H 0.34719 0.37374 0.8241 0.0
H1802 H 0.38385 0.30321 0.82805 0.0
H1803 H 0.34772 0.27356 0.804 0.0
H1804 H 0.35673 0.37044 0.87264 0.0
H1805 H 0.45167 0.35875 0.80548 0.0
H1806 H 0.41725 0.34827 0.7954 0.0
H1807 H 0.4309 0.32635 0.81283 0.0
C1808 C 0.32671 0.33498 0.80614 0.0
C1809 C 0.32637 0.30652 0.8003 0.0
C1810 C 0.34763 0.35194 0.8195 0.0
C1811 C 0.36858 0.3408 0.8274 0.0
C1812 C 0.36836 0.3124 0.82153 0.0
H1813 H 0.45719 0.40415 0.95926 0.0
H1814 H 0.43183 0.37578 0.92498 0.0
C1815 C 0.34751 0.29543 0.80802 0.0
C1816 C 0.38906 0.35845 0.84384 0.0
H1817 H 0.45848 0.37853 0.84939 0.0
C1818 C 0.37897 0.37239 0.86739 0.0
C1819 C 0.4181 0.36125 0.83687 0.0
C1820 C 0.43016 0.34809 0.81114 0.0
C1821 C 0.39704 0.38834 0.88454 0.0
C1822 C 0.426 0.38997 0.87822 0.0
C1823 C 0.43624 0.37686 0.8543 0.0
C1824 C 0.44558 0.40481 0.89679 0.0
C1825 C 0.38496 0.40329 0.90937 0.0
C1826 C 0.46298 0.4298 0.8917 0.0
C1827 C 0.47775 0.44608 0.91127 0.0
C1828 C 0.47514 0.43754 0.93618 0.0
C1829 C 0.4594 0.41146 0.94039 0.0
C1830 C 0.44484 0.39522 0.92086 0.0
H1831 H 0.36323 0.40542 0.90832 0.0
H1832 H 0.38496 0.39151 0.92583 0.0
H1833 H 0.39759 0.42415 0.91366 0.0
H1834 H 0.46386 0.43745 0.87317 0.0
H1835 H 0.4896 0.46611 0.90745 0.0
H1836 H 0.65508 0.26325 0.90354 0.0
H1837 H 0.65101 0.28969 0.94675 0.0
H1838 H 0.67959 0.3652 0.91227 0.0
H1839 H 0.68248 0.33974 0.86957 0.0
H1840 H 0.69 0.36798 0.96732 0.0
H1841 H 0.5811 0.32449 0.94589 0.0
H1842 H 0.6041 0.30171 0.94887 0.0
H1843 H 0.60969 0.32054 0.92119 0.0
C1844 C 0.66112 0.28547 0.90519 0.0
C1845 C 0.66801 0.29928 0.8828 0.0
C1846 C 0.65922 0.30047 0.92998 0.0
C1847 C 0.66439 0.32936 0.93253 0.0
C1848 C 0.67545 0.34288 0.91069 0.0
H1849 H 0.63045 0.47858 0.96043 0.0
H1850 H 0.65212 0.43886 0.96085 0.0
C1851 C 0.67702 0.32806 0.88604 0.0
C1852 C 0.65113 0.34562 0.95483 0.0
H1853 H 0.58961 0.36788 0.96901 0.0
C1854 C 0.66784 0.36746 0.9687 0.0
C1855 C 0.62215 0.34472 0.95686 0.0
C1856 C 0.60307 0.32169 0.94247 0.0
C1857 C 0.65674 0.39003 0.98204 0.0
C1858 C 0.62862 0.39093 0.98062 0.0
C1859 C 0.61129 0.36742 0.9698 0.0
C1860 C 0.61792 0.41708 0.98506 0.0
C1861 C 0.67561 0.41333 0.99617 0.0
C1862 C 0.59126 0.41797 0.99803 0.0
C1863 C 0.57835 0.44 0.99659 0.0
C1864 C 0.59214 0.46186 0.98273 0.0
C1865 C 0.61938 0.46184 0.97108 0.0
C1866 C 0.63199 0.4394 0.97184 0.0
H1867 H 0.69047 0.40517 1.0057 0.0
H1868 H 0.68798 0.42676 0.98193 0.0
H1869 H 0.66373 0.42593 1.01119 0.0
H1870 H 0.57995 0.40101 1.00826 0.0
H1871 H 0.55752 0.4399 1.00631 0.0
H1872 H 0.72661 0.36559 0.13867 0.0
H1873 H 0.69694 0.38369 0.11417 0.0
H1874 H 0.64252 0.39848 0.18452 0.0
H1875 H 0.67233 0.38064 0.20927 0.0
H1876 H 0.63794 0.36899 0.10818 0.0
H1877 H 0.66943 0.47519 0.15735 0.0
H1878 H 0.68827 0.44796 0.1582 0.0
H1879 H 0.65604 0.44902 0.17851 0.0
C1880 C 0.70824 0.37256 0.14893 0.0
C1881 C 0.70201 0.37193 0.176 0.0
C1882 C 0.69121 0.38275 0.13486 0.0
C1883 C 0.66769 0.39275 0.14754 0.0
C1884 C 0.66073 0.39112 0.17437 0.0
H1885 H 0.54569 0.45292 0.07314 0.0
H1886 H 0.56745 0.42567 0.09714 0.0
C1887 C 0.67768 0.38074 0.18846 0.0
C1888 C 0.65155 0.40635 0.13292 0.0
H1889 H 0.63688 0.46912 0.12715 0.0
C1890 C 0.63749 0.39083 0.11242 0.0
C1891 C 0.65141 0.43495 0.13819 0.0
C1892 C 0.66724 0.45291 0.1591 0.0
C1893 C 0.62325 0.40319 0.09714 0.0
C1894 C 0.62289 0.43173 0.10264 0.0
C1895 C 0.63694 0.44718 0.12313 0.0
C1896 C 0.60945 0.44646 0.08658 0.0
C1897 C 0.60944 0.38591 0.07469 0.0
C1898 C 0.62578 0.46707 0.07261 0.0
C1899 C 0.61347 0.48268 0.05902 0.0
C1900 C 0.58443 0.47822 0.05919 0.0
C1901 C 0.56809 0.45698 0.07262 0.0
C1902 C 0.5805 0.4413 0.08626 0.0
H1903 H 0.61571 0.36543 0.07016 0.0
H1904 H 0.58658 0.38264 0.07969 0.0
H1905 H 0.61459 0.39666 0.05695 0.0
H1906 H 0.64814 0.47135 0.07249 0.0
H1907 H 0.62683 0.49857 0.04868 0.0
H1908 H 0.73353 0.68914 0.21298 0.0
H1909 H 0.69651 0.6606 0.18914 0.0
H1910 H 0.6443 0.72103 0.21572 0.0
H1911 H 0.68178 0.75016 0.23858 0.0
H1912 H 0.64387 0.63593 0.20073 0.0
H1913 H 0.64637 0.71787 0.13855 0.0
H1914 H 0.67176 0.72021 0.16078 0.0
H1915 H 0.63801 0.72817 0.1726 0.0
C1916 C 0.71403 0.69615 0.21391 0.0
C1917 C 0.71054 0.72194 0.22728 0.0
C1918 C 0.69288 0.67985 0.20033 0.0
C1919 C 0.66782 0.68895 0.20013 0.0
C1920 C 0.66373 0.71395 0.21492 0.0
H1921 H 0.54065 0.57299 0.11341 0.0
H1922 H 0.56091 0.60329 0.15007 0.0
C1923 C 0.68506 0.73049 0.22808 0.0
C1924 C 0.64685 0.67301 0.1832 0.0
H1925 H 0.61363 0.67724 0.1312 0.0
C1926 C 0.63709 0.64494 0.1856 0.0
C1927 C 0.63818 0.6848 0.16334 0.0
C1928 C 0.64929 0.71432 0.15843 0.0
C1929 C 0.61978 0.62809 0.1681 0.0
C1930 C 0.61124 0.63989 0.14816 0.0
C1931 C 0.61999 0.66824 0.14659 0.0
C1932 C 0.59689 0.62285 0.12642 0.0
C1933 C 0.61218 0.5976 0.17026 0.0
C1934 C 0.60952 0.62471 0.10085 0.0
C1935 C 0.59773 0.6081 0.07998 0.0
C1936 C 0.57303 0.58876 0.084 0.0
C1937 C 0.55975 0.5875 0.10956 0.0
C1938 C 0.57148 0.6046 0.13059 0.0
H1939 H 0.62515 0.5911 0.18313 0.0
H1940 H 0.59018 0.59254 0.17863 0.0
H1941 H 0.61457 0.58541 0.1508 0.0
H1942 H 0.62909 0.63858 0.09702 0.0
H1943 H 0.60872 0.60989 0.0607 0.0
H1944 H 0.36374 0.67834 0.15942 0.0
H1945 H 0.36497 0.65265 0.11618 0.0
H1946 H 0.38833 0.72859 0.0817 0.0
H1947 H 0.38789 0.75428 0.12507 0.0
H1948 H 0.35055 0.64973 0.06225 0.0
H1949 H 0.4605 0.69755 0.07705 0.0
H1950 H 0.43309 0.70025 0.10323 0.0
H1951 H 0.43604 0.71942 0.07606 0.0
C1952 C 0.36797 0.68971 0.14271 0.0
C1953 C 0.37646 0.71849 0.14564 0.0
C1954 C 0.36843 0.67496 0.11792 0.0
C1955 C 0.37732 0.6888 0.09585 0.0
C1956 C 0.3817 0.71759 0.09858 0.0
H1957 H 0.48666 0.58556 0.01365 0.0
H1958 H 0.46162 0.62289 0.01268 0.0
C1959 C 0.38166 0.7323 0.12339 0.0
C1960 C 0.3898 0.67347 0.07251 0.0
H1961 H 0.45258 0.65553 0.05185 0.0
C1962 C 0.37293 0.65145 0.05909 0.0
C1963 C 0.41905 0.67615 0.06803 0.0
C1964 C 0.43835 0.69953 0.0818 0.0
C1965 C 0.38449 0.63023 0.04369 0.0
C1966 C 0.41332 0.63085 0.04266 0.0
C1967 C 0.43041 0.6548 0.05296 0.0
C1968 C 0.42527 0.60547 0.03726 0.0
C1969 C 0.36553 0.60656 0.03015 0.0
C1970 C 0.41302 0.58303 0.05099 0.0
C1971 C 0.42708 0.56157 0.05119 0.0
C1972 C 0.45401 0.56267 0.03842 0.0
C1973 C 0.46609 0.58466 0.02414 0.0
C1974 C 0.45165 0.60573 0.02325 0.0
H1975 H 0.34952 0.61431 0.0218 0.0
H1976 H 0.3771 0.59457 0.01431 0.0
H1977 H 0.35444 0.59266 0.04455 0.0
H1978 H 0.39326 0.58276 0.06287 0.0
H1979 H 0.41735 0.54469 0.06221 0.0
H1980 H 0.28311 0.33972 0.21314 0.0
H1981 H 0.31286 0.37321 0.18639 0.0
H1982 H 0.38504 0.34346 0.19983 0.0
H1983 H 0.35581 0.30974 0.22584 0.0
H1984 H 0.38672 0.40582 0.2068 0.0
H1985 H 0.35672 0.34679 0.11269 0.0
H1986 H 0.32954 0.35232 0.13856 0.0
H1987 H 0.35326 0.33062 0.14203 0.0
C1988 C 0.30532 0.34043 0.21049 0.0
C1989 C 0.31711 0.32231 0.22191 0.0
C1990 C 0.32222 0.35954 0.19529 0.0
C1991 C 0.35103 0.36075 0.1914 0.0
C1992 C 0.36284 0.34293 0.20292 0.0
H1993 H 0.47244 0.42128 0.0701 0.0
H1994 H 0.44425 0.39543 0.10394 0.0
C1995 C 0.34604 0.32376 0.21787 0.0
C1996 C 0.36909 0.37971 0.17442 0.0
H1997 H 0.3898 0.38754 0.1106 0.0
C1998 C 0.38737 0.40209 0.18575 0.0
C1999 C 0.37 0.37425 0.14709 0.0
C2000 C 0.3515 0.34964 0.13417 0.0
C2001 C 0.40693 0.41918 0.17029 0.0
C2002 C 0.40779 0.41384 0.14285 0.0
C2003 C 0.38915 0.39158 0.13164 0.0
C2004 C 0.42807 0.43055 0.12513 0.0
C2005 C 0.427 0.44214 0.1835 0.0
C2006 C 0.42908 0.45904 0.12633 0.0
C2007 C 0.44585 0.47393 0.10744 0.0
C2008 C 0.46117 0.46033 0.08681 0.0
C2009 C 0.46088 0.4321 0.08604 0.0
C2010 C 0.44469 0.41738 0.10522 0.0
H2011 H 0.429 0.43838 0.20356 0.0
H2012 H 0.4479 0.44471 0.17225 0.0
H2013 H 0.41922 0.46173 0.185 0.0
H2014 H 0.4159 0.46951 0.14106 0.0
H2015 H 0.44537 0.49562 0.10794 0.0
H2016 H 0.82047 0.68794 0.74839 0.0
H2017 H 0.85107 0.65864 0.72263 0.0
H2018 H 0.85673 0.70455 0.65763 0.0
H2019 H 0.82773 0.73491 0.68389 0.0
H2020 H 0.84778 0.62366 0.68014 0.0
H2021 H 0.93682 0.70669 0.65861 0.0
H2022 H 0.90746 0.71284 0.6817 0.0
H2023 H 0.90612 0.71237 0.64729 0.0
C2024 C 0.82839 0.692 0.72866 0.0
C2025 C 0.82124 0.71385 0.71824 0.0
C2026 C 0.8459 0.67504 0.71383 0.0
C2027 C 0.85692 0.67938 0.68809 0.0
C2028 C 0.84938 0.70093 0.67755 0.0
H2029 H 0.943 0.59719 0.55611 0.0
H2030 H 0.91492 0.62284 0.58841 0.0
C2031 C 0.8322 0.7181 0.6925 0.0
C2032 C 0.8759 0.66127 0.67231 0.0
H2033 H 0.93757 0.66295 0.63284 0.0
C2034 C 0.86758 0.63236 0.67014 0.0
C2035 C 0.90205 0.67221 0.65922 0.0
C2036 C 0.91378 0.7027 0.66204 0.0
C2037 C 0.88393 0.61447 0.65464 0.0
C2038 C 0.90942 0.62553 0.6408 0.0
C2039 C 0.91806 0.65432 0.64339 0.0
C2040 C 0.9261 0.60797 0.62155 0.0
C2041 C 0.87342 0.58381 0.6523 0.0
C2042 C 0.94191 0.59046 0.62915 0.0
C2043 C 0.95862 0.57553 0.6104 0.0
C2044 C 0.95978 0.57773 0.58361 0.0
C2045 C 0.94316 0.59477 0.57636 0.0
C2046 C 0.92687 0.60967 0.59492 0.0
H2047 H 0.85232 0.57841 0.66277 0.0
H2048 H 0.87291 0.57532 0.63146 0.0
H2049 H 0.88782 0.57373 0.66045 0.0
H2050 H 0.94184 0.58882 0.64961 0.0
H2051 H 0.97105 0.56284 0.61692 0.0
H2052 H 0.30926 0.85092 0.72758 0.0
H2053 H 0.33538 0.87911 0.6949 0.0
H2054 H 0.35776 0.80656 0.64818 0.0
H2055 H 0.3307 0.77784 0.68052 0.0
H2056 H 0.3905 0.88659 0.67752 0.0
H2057 H 0.32842 0.84281 0.59545 0.0
H2058 H 0.31647 0.83614 0.62858 0.0
H2059 H 0.3415 0.81776 0.60932 0.0
C2060 C 0.31959 0.84077 0.71033 0.0
C2061 C 0.31791 0.81198 0.70683 0.0
C2062 C 0.33459 0.85703 0.69164 0.0
C2063 C 0.34827 0.84501 0.66888 0.0
C2064 C 0.34693 0.8163 0.66534 0.0
H2065 H 0.46045 0.9059 0.54091 0.0
H2066 H 0.42686 0.87927 0.57063 0.0
C2067 C 0.33174 0.79991 0.68404 0.0
C2068 C 0.36443 0.86283 0.64938 0.0
H2069 H 0.37021 0.87434 0.5857 0.0
C2070 C 0.38593 0.88403 0.65749 0.0
C2071 C 0.35841 0.85956 0.62324 0.0
C2072 C 0.33479 0.83801 0.61361 0.0
C2073 C 0.40205 0.90155 0.64008 0.0
C2074 C 0.3962 0.89816 0.61389 0.0
C2075 C 0.37455 0.87709 0.60581 0.0
C2076 C 0.41382 0.91476 0.59417 0.0
C2077 C 0.42586 0.92292 0.64969 0.0
C2078 C 0.41687 0.94366 0.59677 0.0
C2079 C 0.43617 0.9591 0.57964 0.0
C2080 C 0.45273 0.94582 0.55971 0.0
C2081 C 0.44823 0.91681 0.55622 0.0
C2082 C 0.42898 0.9015 0.57319 0.0
H2083 H 0.4312 0.919 0.66862 0.0
H2084 H 0.44463 0.92342 0.63528 0.0
H2085 H 0.41999 0.94355 0.65243 0.0
H2086 H 0.40496 0.95432 0.61252 0.0
H2087 H 0.43916 0.98138 0.58288 0.0
H2088 H 0.20365 0.42506 0.72033 0.0
H2089 H 0.17628 0.44517 0.69534 0.0
H2090 H 0.13685 0.3638 0.66507 0.0
H2091 H 0.16446 0.34344 0.69 0.0
H2092 H 0.15164 0.39802 0.62749 0.0
H2093 H 0.09494 0.44979 0.71309 0.0
H2094 H 0.1319 0.45931 0.71293 0.0
H2095 H 0.11513 0.42419 0.71582 0.0
C2096 C 0.18901 0.41141 0.7085 0.0
C2097 C 0.18593 0.38263 0.70744 0.0
C2098 C 0.1733 0.42296 0.69429 0.0
C2099 C 0.15394 0.40603 0.6789 0.0
C2100 C 0.15145 0.37727 0.67707 0.0
H2101 H 0.02618 0.46175 0.61086 0.0
H2102 H 0.05151 0.44376 0.63984 0.0
C2103 C 0.16731 0.36566 0.69121 0.0
C2104 C 0.13677 0.41846 0.66437 0.0
H2105 H 0.09188 0.46364 0.67178 0.0
C2106 C 0.13845 0.41223 0.63719 0.0
C2107 C 0.11914 0.43664 0.67706 0.0
C2108 C 0.1149 0.44267 0.70635 0.0
C2109 C 0.12362 0.42424 0.62229 0.0
C2110 C 0.10721 0.44363 0.63486 0.0
C2111 C 0.10486 0.44922 0.66211 0.0
C2112 C 0.09214 0.45795 0.61993 0.0
C2113 C 0.12537 0.41564 0.59326 0.0
C2114 C 0.10662 0.47322 0.6001 0.0
C2115 C 0.09218 0.48321 0.58351 0.0
C2116 C 0.06306 0.47885 0.58693 0.0
C2117 C 0.04863 0.46569 0.6081 0.0
C2118 C 0.0631 0.45525 0.6245 0.0
H2119 H 0.13167 0.39521 0.58799 0.0
H2120 H 0.10519 0.41462 0.5858 0.0
H2121 H 0.14123 0.43091 0.58326 0.0
H2122 H 0.12905 0.47632 0.5967 0.0
H2123 H 0.10369 0.49323 0.5672 0.0
H2124 H 0.68382 0.20983 0.73642 0.0
H2125 H 0.65528 0.17853 0.70592 0.0
H2126 H 0.71874 0.19821 0.64252 0.0
H2127 H 0.74793 0.22835 0.67321 0.0
H2128 H 0.63221 0.1885 0.66842 0.0
H2129 H 0.70316 0.11735 0.62502 0.0
H2130 H 0.71033 0.14193 0.65326 0.0
H2131 H 0.71861 0.15238 0.62104 0.0
C2132 C 0.69182 0.20716 0.71601 0.0
C2133 C 0.71816 0.22143 0.70722 0.0
C2134 C 0.67547 0.18928 0.69855 0.0
C2135 C 0.68489 0.18553 0.67183 0.0
C2136 C 0.71123 0.19991 0.66305 0.0
H2137 H 0.56902 0.12762 0.55508 0.0
H2138 H 0.60221 0.15489 0.58372 0.0
C2139 C 0.72786 0.21734 0.68061 0.0
C2140 C 0.66641 0.16793 0.65314 0.0
H2141 H 0.66374 0.11585 0.60257 0.0
C2142 C 0.63913 0.17249 0.65417 0.0
C2143 C 0.67511 0.1467 0.63465 0.0
C2144 C 0.7033 0.13909 0.63359 0.0
C2145 C 0.62054 0.15677 0.63726 0.0
C2146 C 0.62968 0.13653 0.61791 0.0
C2147 C 0.65681 0.13165 0.61706 0.0
C2148 C 0.61116 0.11983 0.59884 0.0
C2149 C 0.59102 0.1616 0.64086 0.0
C2150 C 0.60618 0.0909 0.59662 0.0
C2151 C 0.58757 0.07519 0.57983 0.0
C2152 C 0.57342 0.08807 0.56495 0.0
C2153 C 0.57923 0.11701 0.5665 0.0
C2154 C 0.59809 0.13267 0.58305 0.0
H2155 H 0.58523 0.17113 0.66094 0.0
H2156 H 0.58891 0.17593 0.62718 0.0
H2157 H 0.5761 0.14206 0.6369 0.0
H2158 H 0.61613 0.08045 0.60841 0.0
H2159 H 0.58366 0.05295 0.57914 0.0
H2160 H 0.81729 0.3505 0.30359 0.0
H2161 H 0.84669 0.37888 0.33501 0.0
H2162 H 0.84769 0.30706 0.37163 0.0
H2163 H 0.81708 0.27878 0.34108 0.0
H2164 H 0.84285 0.34983 0.40765 0.0
H2165 H 0.92851 0.38341 0.33241 0.0
H2166 H 0.89647 0.39251 0.32764 0.0
H2167 H 0.89923 0.35675 0.32497 0.0
C2168 C 0.82336 0.34076 0.31857 0.0
C2169 C 0.81475 0.31227 0.31973 0.0
C2170 C 0.8406 0.357 0.33633 0.0
C2171 C 0.85013 0.34509 0.35539 0.0
C2172 C 0.84089 0.31679 0.35704 0.0
H2173 H 0.96936 0.40102 0.4693 0.0
H2174 H 0.93518 0.37426 0.44123 0.0
C2175 C 0.82339 0.3006 0.33949 0.0
C2176 C 0.86968 0.36201 0.37355 0.0
H2177 H 0.93255 0.40564 0.37556 0.0
C2178 C 0.8625 0.36192 0.40058 0.0
C2179 C 0.8955 0.37777 0.36447 0.0
C2180 C 0.90555 0.37744 0.3358 0.0
C2181 C 0.8801 0.37738 0.41862 0.0
C2182 C 0.90565 0.39337 0.4095 0.0
C2183 C 0.91286 0.39354 0.38255 0.0
C2184 C 0.92544 0.40973 0.42757 0.0
C2185 C 0.87109 0.37684 0.44736 0.0
C2186 C 0.93146 0.43861 0.42923 0.0
C2187 C 0.95089 0.45402 0.44541 0.0
C2188 C 0.9651 0.44087 0.46004 0.0
C2189 C 0.95885 0.4119 0.45842 0.0
C2190 C 0.93921 0.39654 0.44242 0.0
H2191 H 0.84865 0.36813 0.45134 0.0
H2192 H 0.88306 0.36389 0.45517 0.0
H2193 H 0.87536 0.39791 0.45801 0.0
H2194 H 0.9212 0.44924 0.41788 0.0
H2195 H 0.95523 0.47625 0.44596 0.0
H2196 H 0.69338 0.81454 0.2737 0.0
H2197 H 0.66413 0.84503 0.29981 0.0
H2198 H 0.71423 0.85456 0.36296 0.0
H2199 H 0.74407 0.82499 0.33655 0.0
H2200 H 0.63128 0.84266 0.34542 0.0
H2201 H 0.71481 0.93395 0.35745 0.0
H2202 H 0.71954 0.90385 0.33486 0.0
H2203 H 0.72253 0.90448 0.36895 0.0
C2204 C 0.69826 0.82314 0.29315 0.0
C2205 C 0.72123 0.81703 0.30293 0.0
C2206 C 0.68136 0.84061 0.30817 0.0
C2207 C 0.68699 0.85279 0.33341 0.0
C2208 C 0.70958 0.84621 0.34341 0.0
H2209 H 0.61365 0.95372 0.46275 0.0
H2210 H 0.64198 0.92729 0.43094 0.0
C2211 C 0.7265 0.82879 0.32837 0.0
C2212 C 0.66921 0.87208 0.34925 0.0
H2213 H 0.67214 0.9361 0.38445 0.0
C2214 C 0.64025 0.86319 0.35372 0.0
C2215 C 0.68054 0.89911 0.36012 0.0
C2216 C 0.71101 0.91106 0.3549 0.0
C2217 C 0.62275 0.87988 0.36938 0.0
C2218 C 0.63421 0.90664 0.38079 0.0
C2219 C 0.66308 0.91571 0.37588 0.0
C2220 C 0.61715 0.92468 0.39939 0.0
C2221 C 0.59221 0.86819 0.37443 0.0
C2222 C 0.59389 0.93325 0.39241 0.0
C2223 C 0.57748 0.94883 0.41081 0.0
C2224 C 0.58389 0.95616 0.43669 0.0
C2225 C 0.60785 0.94851 0.44313 0.0
C2226 C 0.62419 0.93323 0.42485 0.0
H2227 H 0.58769 0.84547 0.36926 0.0
H2228 H 0.58443 0.87314 0.39522 0.0
H2229 H 0.58054 0.87746 0.36243 0.0
H2230 H 0.58815 0.92758 0.37282 0.0
H2231 H 0.55916 0.95406 0.40508 0.0
H2232 H 0.26112 0.72086 0.34489 0.0
H2233 H 0.23454 0.69004 0.37575 0.0
H2234 H 0.17646 0.65585 0.31976 0.0
H2235 H 0.20279 0.68678 0.28908 0.0
H2236 H 0.15037 0.67046 0.36637 0.0
H2237 H 0.22761 0.60835 0.37926 0.0
H2238 H 0.24003 0.64489 0.38411 0.0
H2239 H 0.2315 0.62852 0.3525 0.0
C2240 C 0.24293 0.70643 0.33907 0.0
C2241 C 0.23407 0.70612 0.31458 0.0
C2242 C 0.22782 0.68872 0.35665 0.0
C2243 C 0.20369 0.67026 0.34997 0.0
C2244 C 0.19505 0.6698 0.32535 0.0
H2245 H 0.10045 0.5414 0.43647 0.0
H2246 H 0.13577 0.56635 0.40614 0.0
C2247 C 0.21004 0.68756 0.30787 0.0
C2248 C 0.18611 0.65304 0.36924 0.0
H2249 H 0.18641 0.60449 0.40919 0.0
C2250 C 0.15827 0.65595 0.37561 0.0
C2251 C 0.19625 0.6338 0.38107 0.0
C2252 C 0.2254 0.62843 0.37376 0.0
C2253 C 0.14045 0.64061 0.39373 0.0
C2254 C 0.15089 0.6223 0.40648 0.0
C2255 C 0.17856 0.61884 0.39973 0.0
C2256 C 0.1331 0.60675 0.42683 0.0
C2257 C 0.11043 0.64389 0.39872 0.0
C2258 C 0.12097 0.62104 0.44917 0.0
C2259 C 0.10076 0.60693 0.4663 0.0
C2260 C 0.09258 0.57815 0.46172 0.0
C2261 C 0.10641 0.56357 0.44055 0.0
C2262 C 0.12649 0.5778 0.42317 0.0
H2263 H 0.10406 0.65238 0.38243 0.0
H2264 H 0.09646 0.62389 0.40154 0.0
H2265 H 0.10752 0.65843 0.41664 0.0
H2266 H 0.12625 0.64329 0.45276 0.0
H2267 H 0.0907 0.6187 0.48262 0.0
H2268 H 0.3528 0.1887 0.39956 0.0
H2269 H 0.37685 0.15167 0.40408 0.0
H2270 H 0.42192 0.15975 0.32799 0.0
H2271 H 0.39831 0.1973 0.32347 0.0
H2272 H 0.37987 0.09974 0.36817 0.0
H2273 H 0.48225 0.16878 0.3797 0.0
H2274 H 0.45034 0.18209 0.38481 0.0
H2275 H 0.46436 0.17077 0.35244 0.0
C2276 C 0.36795 0.18275 0.38384 0.0
C2277 C 0.37379 0.1961 0.36125 0.0
C2278 C 0.38149 0.16143 0.38636 0.0
C2279 C 0.40123 0.15312 0.36643 0.0
C2280 C 0.40686 0.16602 0.34365 0.0
H2281 H 0.51217 0.05369 0.40858 0.0
H2282 H 0.49065 0.07329 0.37758 0.0
C2283 C 0.39323 0.18733 0.34105 0.0
C2284 C 0.41634 0.13149 0.37024 0.0
H2285 H 0.47749 0.12329 0.3884 0.0
C2286 C 0.40139 0.10469 0.3721 0.0
C2287 C 0.44451 0.13791 0.37489 0.0
C2288 C 0.46145 0.16643 0.37299 0.0
C2289 C 0.41342 0.08451 0.38002 0.0
C2290 C 0.44085 0.0916 0.38695 0.0
C2291 C 0.45645 0.11782 0.38315 0.0
C2292 C 0.45192 0.07434 0.4024 0.0
C2293 C 0.39625 0.05607 0.38171 0.0
C2294 C 0.43709 0.06774 0.42625 0.0
C2295 C 0.44922 0.05657 0.44372 0.0
C2296 C 0.47659 0.05195 0.4379 0.0
C2297 C 0.49092 0.05676 0.41336 0.0
C2298 C 0.47871 0.06811 0.39577 0.0
H2299 H 0.38202 0.05055 0.36628 0.0
H2300 H 0.40946 0.04019 0.37983 0.0
H2301 H 0.38321 0.05578 0.40078 0.0
H2302 H 0.41678 0.07299 0.43224 0.0
H2303 H 0.43773 0.05309 0.46253 0.0
H2304 H 0.60867 0.8352 0.71755 0.0
H2305 H 0.59217 0.86586 0.69328 0.0
H2306 H 0.67663 0.89977 0.66598 0.0
H2307 H 0.69346 0.86941 0.69061 0.0
H2308 H 0.60576 0.92552 0.6978 0.0
H2309 H 0.63689 0.87498 0.59894 0.0
H2310 H 0.63431 0.85838 0.62792 0.0
H2311 H 0.66353 0.88493 0.62048 0.0
C2312 C 0.6238 0.84934 0.7066 0.0
C2313 C 0.65242 0.8499 0.70611 0.0
C2314 C 0.6143 0.86677 0.69266 0.0
C2315 C 0.63316 0.88495 0.67777 0.0
C2316 C 0.66173 0.88562 0.67714 0.0
H2317 H 0.60294 0.98501 0.56595 0.0
H2318 H 0.62513 0.96643 0.59676 0.0
C2319 C 0.6713 0.8682 0.69115 0.0
C2320 C 0.6227 0.90312 0.66293 0.0
H2321 H 0.61659 0.91408 0.60123 0.0
C2322 C 0.60821 0.92318 0.67667 0.0
C2323 C 0.62601 0.89999 0.63542 0.0
C2324 C 0.64084 0.8783 0.61971 0.0
C2325 C 0.59698 0.94036 0.66359 0.0
C2326 C 0.59974 0.93684 0.63603 0.0
C2327 C 0.61454 0.91691 0.62235 0.0
C2328 C 0.58685 0.95279 0.62069 0.0
C2329 C 0.58264 0.96228 0.67949 0.0
C2330 C 0.55805 0.95233 0.62443 0.0
C2331 C 0.54547 0.96367 0.60718 0.0
C2332 C 0.56143 0.97498 0.58566 0.0
C2333 C 0.5903 0.97657 0.5826 0.0
C2334 C 0.60292 0.9658 0.60008 0.0
H2335 H 0.5904 0.96843 0.69886 0.0
H2336 H 0.58564 0.98091 0.66934 0.0
H2337 H 0.56006 0.95399 0.68281 0.0
H2338 H 0.54505 0.94179 0.63971 0.0
H2339 H 0.52308 0.96167 0.60952 0.0
H2340 H 0.72931 0.17728 0.29605 0.0
H2341 H 0.70143 0.14888 0.32794 0.0
H2342 H 0.68683 0.22207 0.37861 0.0
H2343 H 0.7148 0.25077 0.34675 0.0
H2344 H 0.70871 0.14656 0.37925 0.0
H2345 H 0.6085 0.1779 0.37326 0.0
H2346 H 0.63833 0.18527 0.34955 0.0
H2347 H 0.63625 0.20608 0.38061 0.0
C2348 C 0.72019 0.18744 0.31395 0.0
C2349 C 0.72409 0.21639 0.31867 0.0
C2350 C 0.70424 0.17111 0.33219 0.0
C2351 C 0.69172 0.18328 0.35552 0.0
C2352 C 0.69581 0.21218 0.3605 0.0
H2353 H 0.58172 0.12056 0.4854 0.0
H2354 H 0.61555 0.14822 0.4566 0.0
C2355 C 0.71182 0.22858 0.34224 0.0
C2356 C 0.67459 0.16561 0.37463 0.0
H2357 H 0.6092 0.1498 0.40593 0.0
C2358 C 0.68693 0.14721 0.38508 0.0
C2359 C 0.64616 0.16639 0.3821 0.0
C2360 C 0.63139 0.18476 0.37066 0.0
C2361 C 0.67175 0.12998 0.40322 0.0
C2362 C 0.64334 0.13086 0.4108 0.0
C2363 C 0.63101 0.14918 0.40021 0.0
C2364 C 0.62589 0.11339 0.42996 0.0
C2365 C 0.68641 0.11148 0.41455 0.0
C2366 C 0.62102 0.08443 0.42509 0.0
C2367 C 0.60178 0.06843 0.44181 0.0
C2368 C 0.58685 0.08121 0.46342 0.0
C2369 C 0.59282 0.1101 0.46885 0.0
C2370 C 0.61209 0.12597 0.45235 0.0
H2371 H 0.7093 0.11836 0.41205 0.0
H2372 H 0.67936 0.11079 0.43561 0.0
H2373 H 0.68158 0.09025 0.40439 0.0
H2374 H 0.63105 0.07423 0.40771 0.0
H2375 H 0.59734 0.04626 0.43692 0.0
H2376 H 0.89954 0.65076 0.28178 0.0
H2377 H 0.92589 0.62839 0.306 0.0
H2378 H 0.86124 0.62767 0.37045 0.0
H2379 H 0.83449 0.64962 0.34614 0.0
H2380 H 0.94559 0.64467 0.35552 0.0
H2381 H 0.86983 0.5461 0.35322 0.0
H2382 H 0.86952 0.57196 0.33245 0.0
H2383 H 0.85517 0.57611 0.36602 0.0
C2384 C 0.8909 0.6458 0.30111 0.0
C2385 C 0.86476 0.65171 0.31193 0.0
C2386 C 0.90604 0.63313 0.31495 0.0
C2387 C 0.8953 0.62587 0.3398 0.0
C2388 C 0.86969 0.63262 0.35108 0.0
H2389 H 0.94254 0.55605 0.46182 0.0
H2390 H 0.91968 0.57215 0.4301 0.0
C2391 C 0.85456 0.64544 0.33729 0.0
C2392 C 0.91079 0.61104 0.3538 0.0
H2393 H 0.90597 0.55124 0.38017 0.0
C2394 C 0.9371 0.62413 0.3607 0.0
C2395 C 0.89972 0.58418 0.36038 0.0
C2396 C 0.87212 0.56859 0.35246 0.0
C2397 C 0.95212 0.61155 0.37499 0.0
C2398 C 0.94076 0.5849 0.38207 0.0
C2399 C 0.91475 0.57157 0.37458 0.0
C2400 C 0.95405 0.57188 0.39967 0.0
C2401 C 0.97943 0.62738 0.38341 0.0
C2402 C 0.98064 0.5652 0.39276 0.0
C2403 C 0.9938 0.55571 0.41096 0.0
C2404 C 0.98053 0.55298 0.43628 0.0
C2405 C 0.95334 0.55814 0.44249 0.0
C2406 C 0.94022 0.56735 0.42438 0.0
H2407 H 0.98278 0.64947 0.38047 0.0
H2408 H 0.98046 0.62603 0.40429 0.0
H2409 H 0.99665 0.61831 0.37183 0.0
H2410 H 0.9915 0.5681 0.37361 0.0
H2411 H 1.01481 0.55204 0.40574 0.0
H2412 H 0.2859 0.80549 0.34903 0.0
H2413 H 0.31458 0.83392 0.38126 0.0
H2414 H 0.38293 0.84837 0.32094 0.0
H2415 H 0.35487 0.819 0.28912 0.0
H2416 H 0.40109 0.83569 0.3603 0.0
H2417 H 0.33685 0.91481 0.39806 0.0
H2418 H 0.31841 0.88057 0.40185 0.0
H2419 H 0.32959 0.89045 0.36969 0.0
C2420 C 0.30695 0.81504 0.34265 0.0
C2421 C 0.31813 0.80998 0.31655 0.0
C2422 C 0.32331 0.83146 0.36108 0.0
C2423 C 0.35094 0.84374 0.35361 0.0
C2424 C 0.36177 0.83917 0.32734 0.0
H2425 H 0.45757 0.97366 0.44219 0.0
H2426 H 0.42387 0.94606 0.41423 0.0
C2427 C 0.34566 0.82238 0.30911 0.0
C2428 C 0.3693 0.86002 0.37309 0.0
H2429 H 0.37491 0.91447 0.42132 0.0
C2430 C 0.39533 0.85298 0.37356 0.0
C2431 C 0.36207 0.88283 0.39031 0.0
C2432 C 0.33534 0.89282 0.38981 0.0
C2433 C 0.41431 0.86805 0.39042 0.0
C2434 C 0.40673 0.89023 0.4083 0.0
C2435 C 0.38067 0.89728 0.40792 0.0
C2436 C 0.42603 0.90708 0.42667 0.0
C2437 C 0.44272 0.86057 0.38809 0.0
C2438 C 0.43809 0.89461 0.44361 0.0
C2439 C 0.45781 0.91032 0.4593 0.0
C2440 C 0.46538 0.93898 0.45894 0.0
C2441 C 0.45226 0.95163 0.44296 0.0
C2442 C 0.43293 0.93584 0.42694 0.0
H2443 H 0.44802 0.84922 0.3687 0.0
H2444 H 0.45905 0.8792 0.39111 0.0
H2445 H 0.443 0.84696 0.40303 0.0
H2446 H 0.43249 0.87262 0.4445 0.0
H2447 H 0.46717 0.89999 0.47167 0.0
H2448 H 0.17917 0.28367 0.30184 0.0
H2449 H 0.15043 0.31491 0.32726 0.0
H2450 H 0.22402 0.37484 0.34251 0.0
H2451 H 0.25281 0.34412 0.3161 0.0
H2452 H 0.14664 0.33581 0.37718 0.0
H2453 H 0.17867 0.42338 0.31885 0.0
H2454 H 0.18712 0.38982 0.30748 0.0
H2455 H 0.20737 0.41336 0.33018 0.0
C2456 C 0.1893 0.30369 0.31017 0.0
C2457 C 0.21843 0.31144 0.30627 0.0
C2458 C 0.17276 0.32156 0.32497 0.0
C2459 C 0.18474 0.34778 0.33649 0.0
C2460 C 0.21393 0.35524 0.33329 0.0
H2461 H 0.10897 0.44527 0.46723 0.0
H2462 H 0.13688 0.41786 0.43622 0.0
C2463 C 0.2305 0.3374 0.31836 0.0
C2464 C 0.16673 0.36668 0.3525 0.0
H2465 H 0.15207 0.43204 0.35996 0.0
C2466 C 0.14782 0.35678 0.37321 0.0
C2467 C 0.16764 0.39409 0.34738 0.0
C2468 C 0.18607 0.40576 0.32461 0.0
C2469 C 0.13065 0.37345 0.38917 0.0
C2470 C 0.13241 0.40121 0.38478 0.0
C2471 C 0.15069 0.41094 0.36362 0.0
C2472 C 0.11649 0.4205 0.40291 0.0
C2473 C 0.11055 0.36104 0.41064 0.0
C2474 C 0.09626 0.43262 0.39459 0.0
C2475 C 0.07997 0.44873 0.41256 0.0
C2476 C 0.08365 0.45314 0.43926 0.0
C2477 C 0.10502 0.44216 0.44702 0.0
C2478 C 0.12109 0.42624 0.42923 0.0
H2479 H 0.10591 0.33818 0.40689 0.0
H2480 H 0.11983 0.36678 0.4293 0.0
H2481 H 0.09074 0.36883 0.41294 0.0
H2482 H 0.09237 0.42881 0.37435 0.0
H2483 H 0.06378 0.45666 0.40576 0.0
H2484 H 0.34671 0.241 0.70799 0.0
H2485 H 0.37651 0.21196 0.68033 0.0
H2486 H 0.31767 0.13934 0.69914 0.0
H2487 H 0.2871 0.1682 0.725 0.0
H2488 H 0.40388 0.17516 0.6902 0.0
H2489 H 0.32859 0.11966 0.62291 0.0
H2490 H 0.32187 0.14909 0.64554 0.0
H2491 H 0.31571 0.11535 0.65613 0.0
C2492 C 0.33988 0.21886 0.70593 0.0
C2493 C 0.31443 0.20712 0.71916 0.0
C2494 C 0.35712 0.20215 0.69018 0.0
C2495 C 0.34948 0.17315 0.68709 0.0
C2496 C 0.32409 0.16149 0.7004 0.0
H2497 H 0.43565 0.03918 0.60376 0.0
H2498 H 0.40524 0.06531 0.63508 0.0
C2499 C 0.30674 0.17816 0.7158 0.0
C2500 C 0.36825 0.15515 0.67068 0.0
H2501 H 0.36986 0.10149 0.62142 0.0
C2502 C 0.39631 0.15916 0.67513 0.0
C2503 C 0.35882 0.13401 0.65081 0.0
C2504 C 0.32969 0.12944 0.64336 0.0
C2505 C 0.41478 0.14275 0.66072 0.0
C2506 C 0.40527 0.12155 0.64106 0.0
C2507 C 0.37723 0.11735 0.63669 0.0
C2508 C 0.42463 0.10527 0.6234 0.0
C2509 C 0.44446 0.14817 0.66679 0.0
C2510 C 0.44579 0.11875 0.60642 0.0
C2511 C 0.4629 0.10391 0.58857 0.0
C2512 C 0.45971 0.07502 0.58714 0.0
C2513 C 0.43903 0.0614 0.60459 0.0
C2514 C 0.42148 0.07636 0.62236 0.0
H2515 H 0.44679 0.15973 0.68646 0.0
H2516 H 0.4522 0.12858 0.66565 0.0
H2517 H 0.45772 0.16071 0.65228 0.0
H2518 H 0.44859 0.14084 0.60637 0.0
H2519 H 0.47843 0.11511 0.57533 0.0
H2520 H 0.77642 0.32059 0.68396 0.0
H2521 H 0.80531 0.34762 0.65129 0.0
H2522 H 0.87124 0.369 0.7008 0.0
H2523 H 0.84229 0.34244 0.73376 0.0
H2524 H 0.83116 0.4048 0.65586 0.0
H2525 H 0.90815 0.33554 0.63096 0.0
H2526 H 0.87439 0.32522 0.64844 0.0
H2527 H 0.90187 0.34667 0.66517 0.0
C2528 C 0.79688 0.3314 0.6881 0.0
C2529 C 0.80695 0.32959 0.71159 0.0
C2530 C 0.81344 0.34668 0.66931 0.0
C2531 C 0.84053 0.36007 0.67348 0.0
C2532 C 0.85054 0.35848 0.697 0.0
H2533 H 0.98155 0.45701 0.59545 0.0
H2534 H 0.94615 0.43209 0.62522 0.0
C2535 C 0.83395 0.34335 0.71584 0.0
C2536 C 0.85844 0.3757 0.6533 0.0
H2537 H 0.92023 0.37895 0.61463 0.0
C2538 C 0.85054 0.39908 0.64664 0.0
C2539 C 0.88358 0.36804 0.64118 0.0
C2540 C 0.89246 0.34236 0.64656 0.0
C2541 C 0.86777 0.41573 0.62903 0.0
C2542 C 0.89332 0.40849 0.61746 0.0
C2543 C 0.90074 0.38462 0.6236 0.0
C2544 C 0.91356 0.42602 0.60011 0.0
C2545 C 0.85899 0.44147 0.62375 0.0
C2546 C 0.90695 0.43148 0.5762 0.0
C2547 C 0.92725 0.44617 0.55925 0.0
C2548 C 0.95439 0.45524 0.56594 0.0
C2549 C 0.9607 0.45031 0.59002 0.0
C2550 C 0.94052 0.43598 0.60695 0.0
H2551 H 0.84211 0.44738 0.6385 0.0
H2552 H 0.87682 0.45899 0.62351 0.0
H2553 H 0.85122 0.43778 0.60436 0.0
H2554 H 0.88647 0.42354 0.57023 0.0
H2555 H 0.92212 0.44932 0.54053 0.0
H2556 H 0.22637 0.75174 0.68361 0.0
H2557 H 0.19578 0.72369 0.65284 0.0
H2558 H 0.19223 0.65262 0.69217 0.0
H2559 H 0.22138 0.68082 0.7238 0.0
H2560 H 0.1996 0.68003 0.61813 0.0
H2561 H 0.11137 0.65034 0.69224 0.0
H2562 H 0.14114 0.67625 0.69993 0.0
H2563 H 0.14242 0.64022 0.69834 0.0
C2564 C 0.21901 0.73014 0.68576 0.0
C2565 C 0.22632 0.71864 0.70632 0.0
C2566 C 0.20153 0.71407 0.66808 0.0
C2567 C 0.19104 0.68607 0.67041 0.0
C2568 C 0.19925 0.6743 0.6903 0.0
H2569 H 0.08715 0.55453 0.57892 0.0
H2570 H 0.1207 0.58162 0.6075 0.0
C2571 C 0.21639 0.69042 0.70819 0.0
C2572 C 0.17164 0.66924 0.65203 0.0
H2573 H 0.10822 0.62665 0.64944 0.0
C2574 C 0.17958 0.6685 0.62504 0.0
C2575 C 0.14532 0.65419 0.66088 0.0
C2576 C 0.13441 0.65549 0.68941 0.0
C2577 C 0.16227 0.65289 0.60683 0.0
C2578 C 0.13627 0.63755 0.61573 0.0
C2579 C 0.12828 0.63822 0.64263 0.0
C2580 C 0.11679 0.62109 0.59742 0.0
C2581 C 0.17201 0.6526 0.57814 0.0
C2582 C 0.10339 0.63423 0.58221 0.0
C2583 C 0.08403 0.61883 0.56596 0.0
C2584 C 0.07771 0.58986 0.56444 0.0
C2585 C 0.09156 0.57674 0.57941 0.0
C2586 C 0.11071 0.59221 0.59586 0.0
H2587 H 0.19449 0.66129 0.57449 0.0
H2588 H 0.16797 0.63126 0.56801 0.0
H2589 H 0.16027 0.66511 0.56948 0.0
H2590 H 0.10752 0.6565 0.58329 0.0
H2591 H 0.0738 0.62967 0.55478 0.0
loop_
_geom_bond_atom_site_label_1
_geom_bond_atom_site_label_2
_geom_bond_distance
_geom_bond_site_symmetry_2
_ccdc_geom_bond_type
Eu0 N29 2.600 . S
Eu0 N35 2.562 . S
Eu0 O44 2.462 . S
Eu0 O45 2.373 . S
Eu0 O47 2.432 . S
Eu0 O48 2.291 . S
Eu0 O52 2.335 . S
Eu0 O55 2.372 . S
Eu0 C64 2.787 . S
C1 N2 1.365 . S
C1 C4 1.405 . S
C1 C8 1.448 . S
N2 C1 1.365 . S
N2 C5 1.319 . S
N2 Eu11 2.600 . S
C3 C5 1.397 . S
C3 C6 1.367 . S
C3 H23 0.931 . S
C4 C1 1.405 . S
C4 C6 1.403 . S
C4 C10 1.439 . S
C5 N2 1.319 . S
C5 C3 1.397 . S
C5 H16 0.930 . S
C6 C3 1.367 . S
C6 C4 1.403 . S
C6 H27 0.929 . S
C7 C8 1.430 . S
C7 C9 1.387 . S
C7 C13 1.404 . S
C8 C1 1.448 . S
C8 C7 1.430 . S
C8 N12 1.351 . S
C9 C7 1.387 . S
C9 C10 1.374 . S
C9 H24 0.931 . S
C10 C4 1.439 . S
C10 C9 1.374 . S
C10 H25 0.931 . S
Eu11 N2 2.600 . S
Eu11 N12 2.562 . S
Eu11 O46 2.335 . S
Eu11 O49 2.372 . S
Eu11 O50 2.462 . S
Eu11 O51 2.373 . S
Eu11 O53 2.432 . S
Eu11 O54 2.291 . S
Eu11 C75 2.787 . S
N12 C8 1.351 . S
N12 Eu11 2.562 . S
N12 C14 1.325 . S
C13 C7 1.404 . S
C13 C15 1.366 . S
C13 H21 0.930 . S
C14 N12 1.325 . S
C14 C15 1.416 . S
C14 H20 0.929 . S
C15 C13 1.366 . S
C15 C14 1.416 . S
C15 H17 0.930 . S
H16 C5 0.930 . S
H17 C15 0.930 . S
H18 C33 0.930 . S
H19 C40 0.930 . S
H20 C14 0.929 . S
H21 C13 0.930 . S
H22 C36 0.929 . S
H23 C3 0.931 . S
H24 C9 0.931 . S
H25 C10 0.931 . S
H26 C31 0.931 . S
H27 C6 0.929 . S
H28 C39 0.930 . S
N29 Eu0 2.600 . S
N29 C30 1.365 . S
N29 C33 1.319 . S
C30 N29 1.365 . S
C30 C32 1.405 . S
C30 C38 1.448 . S
C31 H26 0.931 . S
C31 C33 1.397 . S
C31 C34 1.367 . S
C32 C30 1.405 . S
C32 C34 1.403 . S
C32 C65 1.439 . S
C33 H18 0.930 . S
C33 N29 1.319 . S
C33 C31 1.397 . S
C34 C31 1.367 . S
C34 C32 1.403 . S
C34 H41 0.929 . S
N35 Eu0 2.562 . S
N35 C36 1.325 . S
N35 C38 1.351 . S
C36 H22 0.929 . S
C36 N35 1.325 . S
C36 C40 1.416 . S
C37 C38 1.430 . S
C37 C39 1.404 . S
C37 C66 1.387 . S
C38 C30 1.448 . S
C38 N35 1.351 . S
C38 C37 1.430 . S
C39 H28 0.930 . S
C39 C37 1.404 . S
C39 C40 1.366 . S
C40 H19 0.930 . S
C40 C36 1.416 . S
C40 C39 1.366 . S
H41 C34 0.929 . S
H42 C65 0.931 . S
H43 C66 0.931 . S
O44 Eu0 2.462 . S
O44 C64 1.252 . S
O45 Eu0 2.373 . S
O45 C56 1.249 . S
O46 Eu11 2.335 . S
O46 C56 1.264 . S
O47 Eu0 2.432 . S
O47 C64 1.268 . S
O48 Eu0 2.291 . S
O48 C63 1.255 . S
O49 Eu11 2.372 . S
O49 C63 1.257 . S
O50 Eu11 2.462 . S
O50 C75 1.252 . S
O51 Eu11 2.373 . S
O51 C67 1.249 . S
O52 Eu0 2.335 . S
O52 C67 1.264 . S
O53 Eu11 2.432 . S
O53 C75 1.268 . S
O54 Eu11 2.291 . S
O54 C74 1.255 . S
O55 Eu0 2.372 . S
O55 C74 1.257 . S
C56 O45 1.249 . S
C56 O46 1.264 . S
C57 C60 1.382 . S
C57 C62 1.390 . S
C57 C64 1.506 . S
C58 C59 1.398 . S
C58 C62 1.392 . S
C59 C58 1.398 . S
C59 C61 1.372 . S
C59 H76 0.931 . S
C60 C57 1.382 . S
C60 C61 1.390 . S
C60 H77 0.931 . S
C61 C59 1.372 . S
C61 C60 1.390 . S
C61 H78 0.929 . S
C62 C57 1.390 . S
C62 C58 1.392 . S
C62 H79 0.930 . S
C63 O48 1.255 . S
C63 O49 1.257 . S
C64 Eu0 2.787 . S
C64 O44 1.252 . S
C64 O47 1.268 . S
C64 C57 1.506 . S
C65 C32 1.439 . S
C65 H42 0.931 . S
C65 C66 1.374 . S
C66 C37 1.387 . S
C66 H43 0.931 . S
C66 C65 1.374 . S
C67 O51 1.249 . S
C67 O52 1.264 . S
C68 C71 1.382 . S
C68 C72 1.390 . S
C68 C75 1.506 . S
C69 C70 1.398 . S
C69 C72 1.392 . S
C70 C69 1.398 . S
C70 C73 1.372 . S
C70 H80 0.931 . S
C71 C68 1.382 . S
C71 C73 1.390 . S
C71 H81 0.931 . S
C72 C68 1.390 . S
C72 C69 1.392 . S
C72 H82 0.930 . S
C73 C70 1.372 . S
C73 C71 1.390 . S
C73 H83 0.929 . S
C74 O54 1.255 . S
C74 O55 1.257 . S
C75 Eu11 2.787 . S
C75 O50 1.252 . S
C75 O53 1.268 . S
C75 C68 1.506 . S
H76 C59 0.931 . S
H77 C60 0.931 . S
H78 C61 0.929 . S
H79 C62 0.930 . S
H80 C70 0.931 . S
H81 C71 0.931 . S
H82 C72 0.930 . S
H83 C73 0.929 . S
Eu84 N113 2.600 . S
Eu84 N119 2.562 . S
Eu84 O128 2.462 . S
Eu84 O129 2.373 . S
Eu84 O131 2.432 . S
Eu84 O132 2.291 . S
Eu84 O136 2.335 . S
Eu84 O139 2.372 . S
Eu84 C148 2.787 . S
C85 N86 1.365 . S
C85 C88 1.405 . S
C85 C92 1.448 . S
N86 C85 1.365 . S
N86 C89 1.319 . S
N86 Eu95 2.600 . S
C87 C89 1.397 . S
C87 C90 1.367 . S
C87 H107 0.931 . S
C88 C85 1.405 . S
C88 C90 1.403 . S
C88 C94 1.439 . S
C89 N86 1.319 . S
C89 C87 1.397 . S
C89 H100 0.930 . S
C90 C87 1.367 . S
C90 C88 1.403 . S
C90 H111 0.929 . S
C91 C92 1.430 . S
C91 C93 1.387 . S
C91 C97 1.404 . S
C92 C85 1.448 . S
C92 C91 1.430 . S
C92 N96 1.351 . S
C93 C91 1.387 . S
C93 C94 1.374 . S
C93 H108 0.931 . S
C94 C88 1.439 . S
C94 C93 1.374 . S
C94 H109 0.931 . S
Eu95 N86 2.600 . S
Eu95 N96 2.562 . S
Eu95 O130 2.335 . S
Eu95 O133 2.372 . S
Eu95 O134 2.462 . S
Eu95 O135 2.373 . S
Eu95 O137 2.432 . S
Eu95 O138 2.291 . S
Eu95 C159 2.787 . S
N96 C92 1.351 . S
N96 Eu95 2.562 . S
N96 C98 1.325 . S
C97 C91 1.404 . S
C97 C99 1.366 . S
C97 H105 0.930 . S
C98 N96 1.325 . S
C98 C99 1.416 . S
C98 H104 0.929 . S
C99 C97 1.366 . S
C99 C98 1.416 . S
C99 H101 0.930 . S
H100 C89 0.930 . S
H101 C99 0.930 . S
H102 C117 0.930 . S
H103 C124 0.930 . S
H104 C98 0.929 . S
H105 C97 0.930 . S
H106 C120 0.929 . S
H107 C87 0.931 . S
H108 C93 0.931 . S
H109 C94 0.931 . S
H110 C115 0.931 . S
H111 C90 0.929 . S
H112 C123 0.930 . S
N113 Eu84 2.600 . S
N113 C114 1.365 . S
N113 C117 1.319 . S
C114 N113 1.365 . S
C114 C116 1.405 . S
C114 C122 1.448 . S
C115 H110 0.931 . S
C115 C117 1.397 . S
C115 C118 1.367 . S
C116 C114 1.405 . S
C116 C118 1.403 . S
C116 C149 1.439 . S
C117 H102 0.930 . S
C117 N113 1.319 . S
C117 C115 1.397 . S
C118 C115 1.367 . S
C118 C116 1.403 . S
C118 H125 0.929 . S
N119 Eu84 2.562 . S
N119 C120 1.325 . S
N119 C122 1.351 . S
C120 H106 0.929 . S
C120 N119 1.325 . S
C120 C124 1.416 . S
C121 C122 1.430 . S
C121 C123 1.404 . S
C121 C150 1.387 . S
C122 C114 1.448 . S
C122 N119 1.351 . S
C122 C121 1.430 . S
C123 H112 0.930 . S
C123 C121 1.404 . S
C123 C124 1.366 . S
C124 H103 0.930 . S
C124 C120 1.416 . S
C124 C123 1.366 . S
H125 C118 0.929 . S
H126 C149 0.931 . S
H127 C150 0.931 . S
O128 Eu84 2.462 . S
O128 C148 1.252 . S
O129 Eu84 2.373 . S
O129 C140 1.249 . S
O130 Eu95 2.335 . S
O130 C140 1.264 . S
O131 Eu84 2.432 . S
O131 C148 1.268 . S
O132 Eu84 2.291 . S
O132 C147 1.255 . S
O133 Eu95 2.372 . S
O133 C147 1.257 . S
O134 Eu95 2.462 . S
O134 C159 1.252 . S
O135 Eu95 2.373 . S
O135 C151 1.249 . S
O136 Eu84 2.335 . S
O136 C151 1.264 . S
O137 Eu95 2.432 . S
O137 C159 1.268 . S
O138 Eu95 2.291 . S
O138 C158 1.255 . S
O139 Eu84 2.372 . S
O139 C158 1.257 . S
C140 O129 1.249 . S
C140 O130 1.264 . S
C141 C144 1.382 . S
C141 C146 1.390 . S
C141 C148 1.506 . S
C142 C143 1.398 . S
C142 C146 1.392 . S
C143 C142 1.398 . S
C143 C145 1.372 . S
C143 H160 0.931 . S
C144 C141 1.382 . S
C144 C145 1.390 . S
C144 H161 0.931 . S
C145 C143 1.372 . S
C145 C144 1.390 . S
C145 H162 0.929 . S
C146 C141 1.390 . S
C146 C142 1.392 . S
C146 H163 0.930 . S
C147 O132 1.255 . S
C147 O133 1.257 . S
C148 Eu84 2.787 . S
C148 O128 1.252 . S
C148 O131 1.268 . S
C148 C141 1.506 . S
C149 C116 1.439 . S
C149 H126 0.931 . S
C149 C150 1.374 . S
C150 C121 1.387 . S
C150 H127 0.931 . S
C150 C149 1.374 . S
C151 O135 1.249 . S
C151 O136 1.264 . S
C152 C155 1.382 . S
C152 C156 1.390 . S
C152 C159 1.506 . S
C153 C154 1.398 . S
C153 C156 1.392 . S
C154 C153 1.398 . S
C154 C157 1.372 . S
C154 H164 0.931 . S
C155 C152 1.382 . S
C155 C157 1.390 . S
C155 H165 0.931 . S
C156 C152 1.390 . S
C156 C153 1.392 . S
C156 H166 0.930 . S
C157 C154 1.372 . S
C157 C155 1.390 . S
C157 H167 0.929 . S
C158 O138 1.255 . S
C158 O139 1.257 . S
C159 Eu95 2.787 . S
C159 O134 1.252 . S
C159 O137 1.268 . S
C159 C152 1.506 . S
H160 C143 0.931 . S
H161 C144 0.931 . S
H162 C145 0.929 . S
H163 C146 0.930 . S
H164 C154 0.931 . S
H165 C155 0.931 . S
H166 C156 0.930 . S
H167 C157 0.929 . S
Eu168 N197 2.600 . S
Eu168 N203 2.562 . S
Eu168 O212 2.462 . S
Eu168 O213 2.373 . S
Eu168 O215 2.432 . S
Eu168 O216 2.291 . S
Eu168 O220 2.335 . S
Eu168 O223 2.372 . S
Eu168 C232 2.787 . S
C169 N170 1.365 . S
C169 C172 1.405 . S
C169 C176 1.448 . S
N170 C169 1.365 . S
N170 C173 1.319 . S
N170 Eu179 2.600 . S
C171 C173 1.397 . S
C171 C174 1.367 . S
C171 H191 0.931 . S
C172 C169 1.405 . S
C172 C174 1.403 . S
C172 C178 1.439 . S
C173 N170 1.319 . S
C173 C171 1.397 . S
C173 H184 0.930 . S
C174 C171 1.367 . S
C174 C172 1.403 . S
C174 H195 0.929 . S
C175 C176 1.430 . S
C175 C177 1.387 . S
C175 C181 1.404 . S
C176 C169 1.448 . S
C176 C175 1.430 . S
C176 N180 1.351 . S
C177 C175 1.387 . S
C177 C178 1.374 . S
C177 H192 0.931 . S
C178 C172 1.439 . S
C178 C177 1.374 . S
C178 H193 0.931 . S
Eu179 N170 2.600 . S
Eu179 N180 2.562 . S
Eu179 O214 2.335 . S
Eu179 O217 2.372 . S
Eu179 O218 2.462 . S
Eu179 O219 2.373 . S
Eu179 O221 2.432 . S
Eu179 O222 2.291 . S
Eu179 C243 2.787 . S
N180 C176 1.351 . S
N180 Eu179 2.562 . S
N180 C182 1.325 . S
C181 C175 1.404 . S
C181 C183 1.366 . S
C181 H189 0.930 . S
C182 N180 1.325 . S
C182 C183 1.416 . S
C182 H188 0.929 . S
C183 C181 1.366 . S
C183 C182 1.416 . S
C183 H185 0.930 . S
H184 C173 0.930 . S
H185 C183 0.930 . S
H186 C201 0.930 . S
H187 C208 0.930 . S
H188 C182 0.929 . S
H189 C181 0.930 . S
H190 C204 0.929 . S
H191 C171 0.931 . S
H192 C177 0.931 . S
H193 C178 0.931 . S
H194 C199 0.931 . S
H195 C174 0.929 . S
H196 C207 0.930 . S
N197 Eu168 2.600 . S
N197 C198 1.365 . S
N197 C201 1.319 . S
C198 N197 1.365 . S
C198 C200 1.405 . S
C198 C206 1.448 . S
C199 H194 0.931 . S
C199 C201 1.397 . S
C199 C202 1.367 . S
C200 C198 1.405 . S
C200 C202 1.403 . S
C200 C233 1.439 . S
C201 H186 0.930 . S
C201 N197 1.319 . S
C201 C199 1.397 . S
C202 C199 1.367 . S
C202 C200 1.403 . S
C202 H209 0.929 . S
N203 Eu168 2.562 . S
N203 C204 1.325 . S
N203 C206 1.351 . S
C204 H190 0.929 . S
C204 N203 1.325 . S
C204 C208 1.416 . S
C205 C206 1.430 . S
C205 C207 1.404 . S
C205 C234 1.387 . S
C206 C198 1.448 . S
C206 N203 1.351 . S
C206 C205 1.430 . S
C207 H196 0.930 . S
C207 C205 1.404 . S
C207 C208 1.366 . S
C208 H187 0.930 . S
C208 C204 1.416 . S
C208 C207 1.366 . S
H209 C202 0.929 . S
H210 C233 0.931 . S
H211 C234 0.931 . S
O212 Eu168 2.462 . S
O212 C232 1.252 . S
O213 Eu168 2.373 . S
O213 C224 1.249 . S
O214 Eu179 2.335 . S
O214 C224 1.264 . S
O215 Eu168 2.432 . S
O215 C232 1.268 . S
O216 Eu168 2.291 . S
O216 C231 1.255 . S
O217 Eu179 2.372 . S
O217 C231 1.257 . S
O218 Eu179 2.462 . S
O218 C243 1.252 . S
O219 Eu179 2.373 . S
O219 C235 1.249 . S
O220 Eu168 2.335 . S
O220 C235 1.264 . S
O221 Eu179 2.432 . S
O221 C243 1.268 . S
O222 Eu179 2.291 . S
O222 C242 1.255 . S
O223 Eu168 2.372 . S
O223 C242 1.257 . S
C224 O213 1.249 . S
C224 O214 1.264 . S
C225 C228 1.382 . S
C225 C230 1.390 . S
C225 C232 1.506 . S
C226 C227 1.398 . S
C226 C230 1.392 . S
C227 C226 1.398 . S
C227 C229 1.372 . S
C227 H244 0.931 . S
C228 C225 1.382 . S
C228 C229 1.390 . S
C228 H245 0.931 . S
C229 C227 1.372 . S
C229 C228 1.390 . S
C229 H246 0.929 . S
C230 C225 1.390 . S
C230 C226 1.392 . S
C230 H247 0.930 . S
C231 O216 1.255 . S
C231 O217 1.257 . S
C232 Eu168 2.787 . S
C232 O212 1.252 . S
C232 O215 1.268 . S
C232 C225 1.506 . S
C233 C200 1.439 . S
C233 H210 0.931 . S
C233 C234 1.374 . S
C234 C205 1.387 . S
C234 H211 0.931 . S
C234 C233 1.374 . S
C235 O219 1.249 . S
C235 O220 1.264 . S
C236 C239 1.382 . S
C236 C240 1.390 . S
C236 C243 1.506 . S
C237 C238 1.398 . S
C237 C240 1.392 . S
C238 C237 1.398 . S
C238 C241 1.372 . S
C238 H248 0.931 . S
C239 C236 1.382 . S
C239 C241 1.390 . S
C239 H249 0.931 . S
C240 C236 1.390 . S
C240 C237 1.392 . S
C240 H250 0.930 . S
C241 C238 1.372 . S
C241 C239 1.390 . S
C241 H251 0.929 . S
C242 O222 1.255 . S
C242 O223 1.257 . S
C243 Eu179 2.787 . S
C243 O218 1.252 . S
C243 O221 1.268 . S
C243 C236 1.506 . S
H244 C227 0.931 . S
H245 C228 0.931 . S
H246 C229 0.929 . S
H247 C230 0.930 . S
H248 C238 0.931 . S
H249 C239 0.931 . S
H250 C240 0.930 . S
H251 C241 0.929 . S
Eu252 N281 2.600 . S
Eu252 N287 2.562 . S
Eu252 O296 2.462 . S
Eu252 O297 2.373 . S
Eu252 O299 2.432 . S
Eu252 O300 2.291 . S
Eu252 O304 2.335 . S
Eu252 O307 2.372 . S
Eu252 C316 2.787 . S
C253 N254 1.365 . S
C253 C256 1.405 . S
C253 C260 1.448 . S
N254 C253 1.365 . S
N254 C257 1.319 . S
N254 Eu263 2.600 . S
C255 C257 1.397 . S
C255 C258 1.367 . S
C255 H275 0.931 . S
C256 C253 1.405 . S
C256 C258 1.403 . S
C256 C262 1.439 . S
C257 N254 1.319 . S
C257 C255 1.397 . S
C257 H268 0.930 . S
C258 C255 1.367 . S
C258 C256 1.403 . S
C258 H279 0.929 . S
C259 C260 1.430 . S
C259 C261 1.387 . S
C259 C265 1.404 . S
C260 C253 1.448 . S
C260 C259 1.430 . S
C260 N264 1.351 . S
C261 C259 1.387 . S
C261 C262 1.374 . S
C261 H276 0.931 . S
C262 C256 1.439 . S
C262 C261 1.374 . S
C262 H277 0.931 . S
Eu263 N254 2.600 . S
Eu263 N264 2.562 . S
Eu263 O298 2.335 . S
Eu263 O301 2.372 . S
Eu263 O302 2.462 . S
Eu263 O303 2.373 . S
Eu263 O305 2.432 . S
Eu263 O306 2.291 . S
Eu263 C327 2.787 . S
N264 C260 1.351 . S
N264 Eu263 2.562 . S
N264 C266 1.325 . S
C265 C259 1.404 . S
C265 C267 1.366 . S
C265 H273 0.930 . S
C266 N264 1.325 . S
C266 C267 1.416 . S
C266 H272 0.929 . S
C267 C265 1.366 . S
C267 C266 1.416 . S
C267 H269 0.930 . S
H268 C257 0.930 . S
H269 C267 0.930 . S
H270 C285 0.930 . S
H271 C292 0.930 . S
H272 C266 0.929 . S
H273 C265 0.930 . S
H274 C288 0.929 . S
H275 C255 0.931 . S
H276 C261 0.931 . S
H277 C262 0.931 . S
H278 C283 0.931 . S
H279 C258 0.929 . S
H280 C291 0.930 . S
N281 Eu252 2.600 . S
N281 C282 1.365 . S
N281 C285 1.319 . S
C282 N281 1.365 . S
C282 C284 1.405 . S
C282 C290 1.448 . S
C283 H278 0.931 . S
C283 C285 1.397 . S
C283 C286 1.367 . S
C284 C282 1.405 . S
C284 C286 1.403 . S
C284 C317 1.439 . S
C285 H270 0.930 . S
C285 N281 1.319 . S
C285 C283 1.397 . S
C286 C283 1.367 . S
C286 C284 1.403 . S
C286 H293 0.929 . S
N287 Eu252 2.562 . S
N287 C288 1.325 . S
N287 C290 1.351 . S
C288 H274 0.929 . S
C288 N287 1.325 . S
C288 C292 1.416 . S
C289 C290 1.430 . S
C289 C291 1.404 . S
C289 C318 1.387 . S
C290 C282 1.448 . S
C290 N287 1.351 . S
C290 C289 1.430 . S
C291 H280 0.930 . S
C291 C289 1.404 . S
C291 C292 1.366 . S
C292 H271 0.930 . S
C292 C288 1.416 . S
C292 C291 1.366 . S
H293 C286 0.929 . S
H294 C317 0.931 . S
H295 C318 0.931 . S
O296 Eu252 2.462 . S
O296 C316 1.252 . S
O297 Eu252 2.373 . S
O297 C308 1.249 . S
O298 Eu263 2.335 . S
O298 C308 1.264 . S
O299 Eu252 2.432 . S
O299 C316 1.268 . S
O300 Eu252 2.291 . S
O300 C315 1.255 . S
O301 Eu263 2.372 . S
O301 C315 1.257 . S
O302 Eu263 2.462 . S
O302 C327 1.252 . S
O303 Eu263 2.373 . S
O303 C319 1.249 . S
O304 Eu252 2.335 . S
O304 C319 1.264 . S
O305 Eu263 2.432 . S
O305 C327 1.268 . S
O306 Eu263 2.291 . S
O306 C326 1.255 . S
O307 Eu252 2.372 . S
O307 C326 1.257 . S
C308 O297 1.249 . S
C308 O298 1.264 . S
C309 C312 1.382 . S
C309 C314 1.390 . S
C309 C316 1.506 . S
C310 C311 1.398 . S
C310 C314 1.392 . S
C311 C310 1.398 . S
C311 C313 1.372 . S
C311 H328 0.931 . S
C312 C309 1.382 . S
C312 C313 1.390 . S
C312 H329 0.931 . S
C313 C311 1.372 . S
C313 C312 1.390 . S
C313 H330 0.929 . S
C314 C309 1.390 . S
C314 C310 1.392 . S
C314 H331 0.930 . S
C315 O300 1.255 . S
C315 O301 1.257 . S
C316 Eu252 2.787 . S
C316 O296 1.252 . S
C316 O299 1.268 . S
C316 C309 1.506 . S
C317 C284 1.439 . S
C317 H294 0.931 . S
C317 C318 1.374 . S
C318 C289 1.387 . S
C318 H295 0.931 . S
C318 C317 1.374 . S
C319 O303 1.249 . S
C319 O304 1.264 . S
C320 C323 1.382 . S
C320 C324 1.390 . S
C320 C327 1.506 . S
C321 C322 1.398 . S
C321 C324 1.392 . S
C322 C321 1.398 . S
C322 C325 1.372 . S
C322 H332 0.931 . S
C323 C320 1.382 . S
C323 C325 1.390 . S
C323 H333 0.931 . S
C324 C320 1.390 . S
C324 C321 1.392 . S
C324 H334 0.930 . S
C325 C322 1.372 . S
C325 C323 1.390 . S
C325 H335 0.929 . S
C326 O306 1.255 . S
C326 O307 1.257 . S
C327 Eu263 2.787 . S
C327 O302 1.252 . S
C327 O305 1.268 . S
C327 C320 1.506 . S
H328 C311 0.931 . S
H329 C312 0.931 . S
H330 C313 0.929 . S
H331 C314 0.930 . S
H332 C322 0.931 . S
H333 C323 0.931 . S
H334 C324 0.930 . S
H335 C325 0.929 . S
Eu336 N365 2.600 . S
Eu336 N371 2.562 . S
Eu336 O380 2.462 . S
Eu336 O381 2.373 . S
Eu336 O383 2.432 . S
Eu336 O384 2.291 . S
Eu336 O388 2.335 . S
Eu336 O391 2.372 . S
Eu336 C400 2.787 . S
C337 N338 1.365 . S
C337 C340 1.405 . S
C337 C344 1.448 . S
N338 C337 1.365 . S
N338 C341 1.319 . S
N338 Eu347 2.600 . S
C339 C341 1.397 . S
C339 C342 1.367 . S
C339 H359 0.931 . S
C340 C337 1.405 . S
C340 C342 1.403 . S
C340 C346 1.439 . S
C341 N338 1.319 . S
C341 C339 1.397 . S
C341 H352 0.930 . S
C342 C339 1.367 . S
C342 C340 1.403 . S
C342 H363 0.929 . S
C343 C344 1.430 . S
C343 C345 1.387 . S
C343 C349 1.404 . S
C344 C337 1.448 . S
C344 C343 1.430 . S
C344 N348 1.351 . S
C345 C343 1.387 . S
C345 C346 1.374 . S
C345 H360 0.931 . S
C346 C340 1.439 . S
C346 C345 1.374 . S
C346 H361 0.931 . S
Eu347 N338 2.600 . S
Eu347 N348 2.562 . S
Eu347 O382 2.335 . S
Eu347 O385 2.372 . S
Eu347 O386 2.462 . S
Eu347 O387 2.373 . S
Eu347 O389 2.432 . S
Eu347 O390 2.291 . S
Eu347 C411 2.787 . S
N348 C344 1.351 . S
N348 Eu347 2.562 . S
N348 C350 1.325 . S
C349 C343 1.404 . S
C349 C351 1.366 . S
C349 H357 0.930 . S
C350 N348 1.325 . S
C350 C351 1.416 . S
C350 H356 0.929 . S
C351 C349 1.366 . S
C351 C350 1.416 . S
C351 H353 0.930 . S
H352 C341 0.930 . S
H353 C351 0.930 . S
H354 C369 0.930 . S
H355 C376 0.930 . S
H356 C350 0.929 . S
H357 C349 0.930 . S
H358 C372 0.929 . S
H359 C339 0.931 . S
H360 C345 0.931 . S
H361 C346 0.931 . S
H362 C367 0.931 . S
H363 C342 0.929 . S
H364 C375 0.930 . S
N365 Eu336 2.600 . S
N365 C366 1.365 . S
N365 C369 1.319 . S
C366 N365 1.365 . S
C366 C368 1.405 . S
C366 C374 1.448 . S
C367 H362 0.931 . S
C367 C369 1.397 . S
C367 C370 1.367 . S
C368 C366 1.405 . S
C368 C370 1.403 . S
C368 C401 1.439 . S
C369 H354 0.930 . S
C369 N365 1.319 . S
C369 C367 1.397 . S
C370 C367 1.367 . S
C370 C368 1.403 . S
C370 H377 0.929 . S
N371 Eu336 2.562 . S
N371 C372 1.325 . S
N371 C374 1.351 . S
C372 H358 0.929 . S
C372 N371 1.325 . S
C372 C376 1.416 . S
C373 C374 1.430 . S
C373 C375 1.404 . S
C373 C402 1.387 . S
C374 C366 1.448 . S
C374 N371 1.351 . S
C374 C373 1.430 . S
C375 H364 0.930 . S
C375 C373 1.404 . S
C375 C376 1.366 . S
C376 H355 0.930 . S
C376 C372 1.416 . S
C376 C375 1.366 . S
H377 C370 0.929 . S
H378 C401 0.931 . S
H379 C402 0.931 . S
O380 Eu336 2.462 . S
O380 C400 1.252 . S
O381 Eu336 2.373 . S
O381 C392 1.249 . S
O382 Eu347 2.335 . S
O382 C392 1.264 . S
O383 Eu336 2.432 . S
O383 C400 1.268 . S
O384 Eu336 2.291 . S
O384 C399 1.255 . S
O385 Eu347 2.372 . S
O385 C399 1.257 . S
O386 Eu347 2.462 . S
O386 C411 1.252 . S
O387 Eu347 2.373 . S
O387 C403 1.249 . S
O388 Eu336 2.335 . S
O388 C403 1.264 . S
O389 Eu347 2.432 . S
O389 C411 1.268 . S
O390 Eu347 2.291 . S
O390 C410 1.255 . S
O391 Eu336 2.372 . S
O391 C410 1.257 . S
C392 O381 1.249 . S
C392 O382 1.264 . S
C393 C396 1.382 . S
C393 C398 1.390 . S
C393 C400 1.506 . S
C394 C395 1.398 . S
C394 C398 1.392 . S
C395 C394 1.398 . S
C395 C397 1.372 . S
C395 H412 0.931 . S
C396 C393 1.382 . S
C396 C397 1.390 . S
C396 H413 0.931 . S
C397 C395 1.372 . S
C397 C396 1.390 . S
C397 H414 0.929 . S
C398 C393 1.390 . S
C398 C394 1.392 . S
C398 H415 0.930 . S
C399 O384 1.255 . S
C399 O385 1.257 . S
C400 Eu336 2.787 . S
C400 O380 1.252 . S
C400 O383 1.268 . S
C400 C393 1.506 . S
C401 C368 1.439 . S
C401 H378 0.931 . S
C401 C402 1.374 . S
C402 C373 1.387 . S
C402 H379 0.931 . S
C402 C401 1.374 . S
C403 O387 1.249 . S
C403 O388 1.264 . S
C404 C407 1.382 . S
C404 C408 1.390 . S
C404 C411 1.506 . S
C405 C406 1.398 . S
C405 C408 1.392 . S
C406 C405 1.398 . S
C406 C409 1.372 . S
C406 H416 0.931 . S
C407 C404 1.382 . S
C407 C409 1.390 . S
C407 H417 0.931 . S
C408 C404 1.390 . S
C408 C405 1.392 . S
C408 H418 0.930 . S
C409 C406 1.372 . S
C409 C407 1.390 . S
C409 H419 0.929 . S
C410 O390 1.255 . S
C410 O391 1.257 . S
C411 Eu347 2.787 . S
C411 O386 1.252 . S
C411 O389 1.268 . S
C411 C404 1.506 . S
H412 C395 0.931 . S
H413 C396 0.931 . S
H414 C397 0.929 . S
H415 C398 0.930 . S
H416 C406 0.931 . S
H417 C407 0.931 . S
H418 C408 0.930 . S
H419 C409 0.929 . S
Eu420 N449 2.600 . S
Eu420 N455 2.562 . S
Eu420 O464 2.462 . S
Eu420 O465 2.373 . S
Eu420 O467 2.432 . S
Eu420 O468 2.291 . S
Eu420 O472 2.335 . S
Eu420 O475 2.372 . S
Eu420 C484 2.787 . S
C421 N422 1.365 . S
C421 C424 1.405 . S
C421 C428 1.448 . S
N422 C421 1.365 . S
N422 C425 1.319 . S
N422 Eu431 2.600 . S
C423 C425 1.397 . S
C423 C426 1.367 . S
C423 H443 0.931 . S
C424 C421 1.405 . S
C424 C426 1.403 . S
C424 C430 1.439 . S
C425 N422 1.319 . S
C425 C423 1.397 . S
C425 H436 0.930 . S
C426 C423 1.367 . S
C426 C424 1.403 . S
C426 H447 0.929 . S
C427 C428 1.430 . S
C427 C429 1.387 . S
C427 C433 1.404 . S
C428 C421 1.448 . S
C428 C427 1.430 . S
C428 N432 1.351 . S
C429 C427 1.387 . S
C429 C430 1.374 . S
C429 H444 0.931 . S
C430 C424 1.439 . S
C430 C429 1.374 . S
C430 H445 0.931 . S
Eu431 N422 2.600 . S
Eu431 N432 2.562 . S
Eu431 O466 2.335 . S
Eu431 O469 2.372 . S
Eu431 O470 2.462 . S
Eu431 O471 2.373 . S
Eu431 O473 2.432 . S
Eu431 O474 2.291 . S
Eu431 C495 2.787 . S
N432 C428 1.351 . S
N432 Eu431 2.562 . S
N432 C434 1.325 . S
C433 C427 1.404 . S
C433 C435 1.366 . S
C433 H441 0.930 . S
C434 N432 1.325 . S
C434 C435 1.416 . S
C434 H440 0.929 . S
C435 C433 1.366 . S
C435 C434 1.416 . S
C435 H437 0.930 . S
H436 C425 0.930 . S
H437 C435 0.930 . S
H438 C453 0.930 . S
H439 C460 0.930 . S
H440 C434 0.929 . S
H441 C433 0.930 . S
H442 C456 0.929 . S
H443 C423 0.931 . S
H444 C429 0.931 . S
H445 C430 0.931 . S
H446 C451 0.931 . S
H447 C426 0.929 . S
H448 C459 0.930 . S
N449 Eu420 2.600 . S
N449 C450 1.365 . S
N449 C453 1.319 . S
C450 N449 1.365 . S
C450 C452 1.405 . S
C450 C458 1.448 . S
C451 H446 0.931 . S
C451 C453 1.397 . S
C451 C454 1.367 . S
C452 C450 1.405 . S
C452 C454 1.403 . S
C452 C485 1.439 . S
C453 H438 0.930 . S
C453 N449 1.319 . S
C453 C451 1.397 . S
C454 C451 1.367 . S
C454 C452 1.403 . S
C454 H461 0.929 . S
N455 Eu420 2.562 . S
N455 C456 1.325 . S
N455 C458 1.351 . S
C456 H442 0.929 . S
C456 N455 1.325 . S
C456 C460 1.416 . S
C457 C458 1.430 . S
C457 C459 1.404 . S
C457 C486 1.387 . S
C458 C450 1.448 . S
C458 N455 1.351 . S
C458 C457 1.430 . S
C459 H448 0.930 . S
C459 C457 1.404 . S
C459 C460 1.366 . S
C460 H439 0.930 . S
C460 C456 1.416 . S
C460 C459 1.366 . S
H461 C454 0.929 . S
H462 C485 0.931 . S
H463 C486 0.931 . S
O464 Eu420 2.462 . S
O464 C484 1.252 . S
O465 Eu420 2.373 . S
O465 C476 1.249 . S
O466 Eu431 2.335 . S
O466 C476 1.264 . S
O467 Eu420 2.432 . S
O467 C484 1.268 . S
O468 Eu420 2.291 . S
O468 C483 1.255 . S
O469 Eu431 2.372 . S
O469 C483 1.257 . S
O470 Eu431 2.462 . S
O470 C495 1.252 . S
O471 Eu431 2.373 . S
O471 C487 1.249 . S
O472 Eu420 2.335 . S
O472 C487 1.264 . S
O473 Eu431 2.432 . S
O473 C495 1.268 . S
O474 Eu431 2.291 . S
O474 C494 1.255 . S
O475 Eu420 2.372 . S
O475 C494 1.257 . S
C476 O465 1.249 . S
C476 O466 1.264 . S
C477 C480 1.382 . S
C477 C482 1.390 . S
C477 C484 1.506 . S
C478 C479 1.398 . S
C478 C482 1.392 . S
C479 C478 1.398 . S
C479 C481 1.372 . S
C479 H496 0.931 . S
C480 C477 1.382 . S
C480 C481 1.390 . S
C480 H497 0.931 . S
C481 C479 1.372 . S
C481 C480 1.390 . S
C481 H498 0.929 . S
C482 C477 1.390 . S
C482 C478 1.392 . S
C482 H499 0.930 . S
C483 O468 1.255 . S
C483 O469 1.257 . S
C484 Eu420 2.787 . S
C484 O464 1.252 . S
C484 O467 1.268 . S
C484 C477 1.506 . S
C485 C452 1.439 . S
C485 H462 0.931 . S
C485 C486 1.374 . S
C486 C457 1.387 . S
C486 H463 0.931 . S
C486 C485 1.374 . S
C487 O471 1.249 . S
C487 O472 1.264 . S
C488 C491 1.382 . S
C488 C492 1.390 . S
C488 C495 1.506 . S
C489 C490 1.398 . S
C489 C492 1.392 . S
C490 C489 1.398 . S
C490 C493 1.372 . S
C490 H500 0.931 . S
C491 C488 1.382 . S
C491 C493 1.390 . S
C491 H501 0.931 . S
C492 C488 1.390 . S
C492 C489 1.392 . S
C492 H502 0.930 . S
C493 C490 1.372 . S
C493 C491 1.390 . S
C493 H503 0.929 . S
C494 O474 1.255 . S
C494 O475 1.257 . S
C495 Eu431 2.787 . S
C495 O470 1.252 . S
C495 O473 1.268 . S
C495 C488 1.506 . S
H496 C479 0.931 . S
H497 C480 0.931 . S
H498 C481 0.929 . S
H499 C482 0.930 . S
H500 C490 0.931 . S
H501 C491 0.931 . S
H502 C492 0.930 . S
H503 C493 0.929 . S
Eu504 N533 2.600 . S
Eu504 N539 2.562 . S
Eu504 O548 2.462 . S
Eu504 O549 2.373 . S
Eu504 O551 2.432 . S
Eu504 O552 2.291 . S
Eu504 O556 2.335 . S
Eu504 O559 2.372 . S
Eu504 C568 2.787 . S
C505 N506 1.365 . S
C505 C508 1.405 . S
C505 C512 1.448 . S
N506 C505 1.365 . S
N506 C509 1.319 . S
N506 Eu515 2.600 . S
C507 C509 1.397 . S
C507 C510 1.367 . S
C507 H527 0.931 . S
C508 C505 1.405 . S
C508 C510 1.403 . S
C508 C514 1.439 . S
C509 N506 1.319 . S
C509 C507 1.397 . S
C509 H520 0.930 . S
C510 C507 1.367 . S
C510 C508 1.403 . S
C510 H531 0.929 . S
C511 C512 1.430 . S
C511 C513 1.387 . S
C511 C517 1.404 . S
C512 C505 1.448 . S
C512 C511 1.430 . S
C512 N516 1.351 . S
C513 C511 1.387 . S
C513 C514 1.374 . S
C513 H528 0.931 . S
C514 C508 1.439 . S
C514 C513 1.374 . S
C514 H529 0.931 . S
Eu515 N506 2.600 . S
Eu515 N516 2.562 . S
Eu515 O550 2.335 . S
Eu515 O553 2.372 . S
Eu515 O554 2.462 . S
Eu515 O555 2.373 . S
Eu515 O557 2.432 . S
Eu515 O558 2.291 . S
Eu515 C579 2.787 . S
N516 C512 1.351 . S
N516 Eu515 2.562 . S
N516 C518 1.325 . S
C517 C511 1.404 . S
C517 C519 1.366 . S
C517 H525 0.930 . S
C518 N516 1.325 . S
C518 C519 1.416 . S
C518 H524 0.929 . S
C519 C517 1.366 . S
C519 C518 1.416 . S
C519 H521 0.930 . S
H520 C509 0.930 . S
H521 C519 0.930 . S
H522 C537 0.930 . S
H523 C544 0.930 . S
H524 C518 0.929 . S
H525 C517 0.930 . S
H526 C540 0.929 . S
H527 C507 0.931 . S
H528 C513 0.931 . S
H529 C514 0.931 . S
H530 C535 0.931 . S
H531 C510 0.929 . S
H532 C543 0.930 . S
N533 Eu504 2.600 . S
N533 C534 1.365 . S
N533 C537 1.319 . S
C534 N533 1.365 . S
C534 C536 1.405 . S
C534 C542 1.448 . S
C535 H530 0.931 . S
C535 C537 1.397 . S
C535 C538 1.367 . S
C536 C534 1.405 . S
C536 C538 1.403 . S
C536 C569 1.439 . S
C537 H522 0.930 . S
C537 N533 1.319 . S
C537 C535 1.397 . S
C538 C535 1.367 . S
C538 C536 1.403 . S
C538 H545 0.929 . S
N539 Eu504 2.562 . S
N539 C540 1.325 . S
N539 C542 1.351 . S
C540 H526 0.929 . S
C540 N539 1.325 . S
C540 C544 1.416 . S
C541 C542 1.430 . S
C541 C543 1.404 . S
C541 C570 1.387 . S
C542 C534 1.448 . S
C542 N539 1.351 . S
C542 C541 1.430 . S
C543 H532 0.930 . S
C543 C541 1.404 . S
C543 C544 1.366 . S
C544 H523 0.930 . S
C544 C540 1.416 . S
C544 C543 1.366 . S
H545 C538 0.929 . S
H546 C569 0.931 . S
H547 C570 0.931 . S
O548 Eu504 2.462 . S
O548 C568 1.252 . S
O549 Eu504 2.373 . S
O549 C560 1.249 . S
O550 Eu515 2.335 . S
O550 C560 1.264 . S
O551 Eu504 2.432 . S
O551 C568 1.268 . S
O552 Eu504 2.291 . S
O552 C567 1.255 . S
O553 Eu515 2.372 . S
O553 C567 1.257 . S
O554 Eu515 2.462 . S
O554 C579 1.252 . S
O555 Eu515 2.373 . S
O555 C571 1.249 . S
O556 Eu504 2.335 . S
O556 C571 1.264 . S
O557 Eu515 2.432 . S
O557 C579 1.268 . S
O558 Eu515 2.291 . S
O558 C578 1.255 . S
O559 Eu504 2.372 . S
O559 C578 1.257 . S
C560 O549 1.249 . S
C560 O550 1.264 . S
C561 C564 1.382 . S
C561 C566 1.390 . S
C561 C568 1.506 . S
C562 C563 1.398 . S
C562 C566 1.392 . S
C563 C562 1.398 . S
C563 C565 1.372 . S
C563 H580 0.931 . S
C564 C561 1.382 . S
C564 C565 1.390 . S
C564 H581 0.931 . S
C565 C563 1.372 . S
C565 C564 1.390 . S
C565 H582 0.929 . S
C566 C561 1.390 . S
C566 C562 1.392 . S
C566 H583 0.930 . S
C567 O552 1.255 . S
C567 O553 1.257 . S
C568 Eu504 2.787 . S
C568 O548 1.252 . S
C568 O551 1.268 . S
C568 C561 1.506 . S
C569 C536 1.439 . S
C569 H546 0.931 . S
C569 C570 1.374 . S
C570 C541 1.387 . S
C570 H547 0.931 . S
C570 C569 1.374 . S
C571 O555 1.249 . S
C571 O556 1.264 . S
C572 C575 1.382 . S
C572 C576 1.390 . S
C572 C579 1.506 . S
C573 C574 1.398 . S
C573 C576 1.392 . S
C574 C573 1.398 . S
C574 C577 1.372 . S
C574 H584 0.931 . S
C575 C572 1.382 . S
C575 C577 1.390 . S
C575 H585 0.931 . S
C576 C572 1.390 . S
C576 C573 1.392 . S
C576 H586 0.930 . S
C577 C574 1.372 . S
C577 C575 1.390 . S
C577 H587 0.929 . S
C578 O558 1.255 . S
C578 O559 1.257 . S
C579 Eu515 2.787 . S
C579 O554 1.252 . S
C579 O557 1.268 . S
C579 C572 1.506 . S
H580 C563 0.931 . S
H581 C564 0.931 . S
H582 C565 0.929 . S
H583 C566 0.930 . S
H584 C574 0.931 . S
H585 C575 0.931 . S
H586 C576 0.930 . S
H587 C577 0.929 . S
Eu588 N617 2.600 . S
Eu588 N623 2.562 . S
Eu588 O632 2.462 . S
Eu588 O633 2.373 . S
Eu588 O635 2.432 . S
Eu588 O636 2.291 . S
Eu588 O640 2.335 . S
Eu588 O643 2.372 . S
Eu588 C652 2.787 . S
C589 N590 1.365 . S
C589 C592 1.405 . S
C589 C596 1.448 . S
N590 C589 1.365 . S
N590 C593 1.319 . S
N590 Eu599 2.600 . S
C591 C593 1.397 . S
C591 C594 1.367 . S
C591 H611 0.931 . S
C592 C589 1.405 . S
C592 C594 1.403 . S
C592 C598 1.439 . S
C593 N590 1.319 . S
C593 C591 1.397 . S
C593 H604 0.930 . S
C594 C591 1.367 . S
C594 C592 1.403 . S
C594 H615 0.929 . S
C595 C596 1.430 . S
C595 C597 1.387 . S
C595 C601 1.404 . S
C596 C589 1.448 . S
C596 C595 1.430 . S
C596 N600 1.351 . S
C597 C595 1.387 . S
C597 C598 1.374 . S
C597 H612 0.931 . S
C598 C592 1.439 . S
C598 C597 1.374 . S
C598 H613 0.931 . S
Eu599 N590 2.600 . S
Eu599 N600 2.562 . S
Eu599 O634 2.335 . S
Eu599 O637 2.372 . S
Eu599 O638 2.462 . S
Eu599 O639 2.373 . S
Eu599 O641 2.432 . S
Eu599 O642 2.291 . S
Eu599 C663 2.787 . S
N600 C596 1.351 . S
N600 Eu599 2.562 . S
N600 C602 1.325 . S
C601 C595 1.404 . S
C601 C603 1.366 . S
C601 H609 0.930 . S
C602 N600 1.325 . S
C602 C603 1.416 . S
C602 H608 0.929 . S
C603 C601 1.366 . S
C603 C602 1.416 . S
C603 H605 0.930 . S
H604 C593 0.930 . S
H605 C603 0.930 . S
H606 C621 0.930 . S
H607 C628 0.930 . S
H608 C602 0.929 . S
H609 C601 0.930 . S
H610 C624 0.929 . S
H611 C591 0.931 . S
H612 C597 0.931 . S
H613 C598 0.931 . S
H614 C619 0.931 . S
H615 C594 0.929 . S
H616 C627 0.930 . S
N617 Eu588 2.600 . S
N617 C618 1.365 . S
N617 C621 1.319 . S
C618 N617 1.365 . S
C618 C620 1.405 . S
C618 C626 1.448 . S
C619 H614 0.931 . S
C619 C621 1.397 . S
C619 C622 1.367 . S
C620 C618 1.405 . S
C620 C622 1.403 . S
C620 C653 1.439 . S
C621 H606 0.930 . S
C621 N617 1.319 . S
C621 C619 1.397 . S
C622 C619 1.367 . S
C622 C620 1.403 . S
C622 H629 0.929 . S
N623 Eu588 2.562 . S
N623 C624 1.325 . S
N623 C626 1.351 . S
C624 H610 0.929 . S
C624 N623 1.325 . S
C624 C628 1.416 . S
C625 C626 1.430 . S
C625 C627 1.404 . S
C625 C654 1.387 . S
C626 C618 1.448 . S
C626 N623 1.351 . S
C626 C625 1.430 . S
C627 H616 0.930 . S
C627 C625 1.404 . S
C627 C628 1.366 . S
C628 H607 0.930 . S
C628 C624 1.416 . S
C628 C627 1.366 . S
H629 C622 0.929 . S
H630 C653 0.931 . S
H631 C654 0.931 . S
O632 Eu588 2.462 . S
O632 C652 1.252 . S
O633 Eu588 2.373 . S
O633 C644 1.249 . S
O634 Eu599 2.335 . S
O634 C644 1.264 . S
O635 Eu588 2.432 . S
O635 C652 1.268 . S
O636 Eu588 2.291 . S
O636 C651 1.255 . S
O637 Eu599 2.372 . S
O637 C651 1.257 . S
O638 Eu599 2.462 . S
O638 C663 1.252 . S
O639 Eu599 2.373 . S
O639 C655 1.249 . S
O640 Eu588 2.335 . S
O640 C655 1.264 . S
O641 Eu599 2.432 . S
O641 C663 1.268 . S
O642 Eu599 2.291 . S
O642 C662 1.255 . S
O643 Eu588 2.372 . S
O643 C662 1.257 . S
C644 O633 1.249 . S
C644 O634 1.264 . S
C645 C648 1.382 . S
C645 C650 1.390 . S
C645 C652 1.506 . S
C646 C647 1.398 . S
C646 C650 1.392 . S
C647 C646 1.398 . S
C647 C649 1.372 . S
C647 H664 0.931 . S
C648 C645 1.382 . S
C648 C649 1.390 . S
C648 H665 0.931 . S
C649 C647 1.372 . S
C649 C648 1.390 . S
C649 H666 0.929 . S
C650 C645 1.390 . S
C650 C646 1.392 . S
C650 H667 0.930 . S
C651 O636 1.255 . S
C651 O637 1.257 . S
C652 Eu588 2.787 . S
C652 O632 1.252 . S
C652 O635 1.268 . S
C652 C645 1.506 . S
C653 C620 1.439 . S
C653 H630 0.931 . S
C653 C654 1.374 . S
C654 C625 1.387 . S
C654 H631 0.931 . S
C654 C653 1.374 . S
C655 O639 1.249 . S
C655 O640 1.264 . S
C656 C659 1.382 . S
C656 C660 1.390 . S
C656 C663 1.506 . S
C657 C658 1.398 . S
C657 C660 1.392 . S
C658 C657 1.398 . S
C658 C661 1.372 . S
C658 H668 0.931 . S
C659 C656 1.382 . S
C659 C661 1.390 . S
C659 H669 0.931 . S
C660 C656 1.390 . S
C660 C657 1.392 . S
C660 H670 0.930 . S
C661 C658 1.372 . S
C661 C659 1.390 . S
C661 H671 0.929 . S
C662 O642 1.255 . S
C662 O643 1.257 . S
C663 Eu599 2.787 . S
C663 O638 1.252 . S
C663 O641 1.268 . S
C663 C656 1.506 . S
H664 C647 0.931 . S
H665 C648 0.931 . S
H666 C649 0.929 . S
H667 C650 0.930 . S
H668 C658 0.931 . S
H669 C659 0.931 . S
H670 C660 0.930 . S
H671 C661 0.929 . S
Fe672 O673 1.886 1_455 S
Fe672 O676 1.715 . S
Fe672 O681 2.077 1_455 S
Fe672 O686 1.935 . S
Fe672 O692 2.077 1_455 S
Fe672 O701 1.935 . S
O673 Fe672 1.886 1_655 S
O673 Fe675 1.715 1_545 S
Fe674 O676 1.886 . S
Fe674 O677 1.715 1_545 S
Fe674 O684 1.935 1_545 S
Fe674 O685 2.077 . S
Fe674 O691 1.935 1_545 S
Fe674 O700 2.077 . S
Fe675 O673 1.715 1_565 S
Fe675 O678 1.886 . S
Fe675 O682 1.935 1_565 S
Fe675 O687 2.077 . S
Fe675 O693 1.935 1_565 S
Fe675 O697 2.077 . S
O676 Fe672 1.715 . S
O676 Fe674 1.886 . S
O677 Fe674 1.715 1_565 S
O677 Fe679 1.886 1_455 S
O678 Fe675 1.886 . S
O678 Fe679 1.715 . S
Fe679 O677 1.886 1_655 S
Fe679 O678 1.715 . S
Fe679 O683 2.077 1_655 S
Fe679 O688 1.935 . S
Fe679 O690 2.077 1_655 S
Fe679 O698 1.935 . S
C680 O692 1.381 . S
C680 O693 1.421 . S
O681 Fe672 2.077 1_655 S
O681 C694 1.381 . S
O682 Fe675 1.935 1_545 S
O682 C694 1.421 . S
O683 Fe679 2.077 1_455 S
O683 C699 1.381 . S
O684 Fe674 1.935 1_565 S
O684 C699 1.421 . S
O685 Fe674 2.077 . S
O685 C689 1.381 . S
O686 Fe672 1.935 . S
O686 C689 1.421 . S
O687 Fe675 2.077 . S
O687 C695 1.381 . S
O688 Fe679 1.935 . S
O688 C695 1.421 . S
C689 O685 1.381 . S
C689 O686 1.421 . S
O690 Fe679 2.077 1_455 S
O690 C702 1.381 . S
O691 Fe674 1.935 1_565 S
O691 C702 1.421 . S
O692 Fe672 2.077 1_655 S
O692 C680 1.381 . S
O693 Fe675 1.935 1_545 S
O693 C680 1.421 . S
C694 O681 1.381 . S
C694 O682 1.421 . S
C695 O687 1.381 . S
C695 O688 1.421 . S
C696 O697 1.381 . S
C696 O698 1.421 . S
O697 Fe675 2.077 . S
O697 C696 1.381 . S
O698 Fe679 1.935 . S
O698 C696 1.421 . S
C699 O683 1.381 . S
C699 O684 1.421 . S
O700 Fe674 2.077 . S
O700 C703 1.381 . S
O701 Fe672 1.935 . S
O701 C703 1.421 . S
C702 O690 1.381 . S
C702 O691 1.421 . S
C703 O700 1.381 . S
C703 O701 1.421 . S
Fe704 O705 1.886 . S
Fe704 O708 1.715 . S
Fe704 O713 2.077 . S
Fe704 O718 1.935 . S
Fe704 O724 2.077 1_556 S
Fe704 O733 1.935 1_556 S
O705 Fe704 1.886 . S
O705 Fe707 1.715 1_565 S
Fe706 O708 1.886 1_554 S
Fe706 O709 1.715 1_565 S
Fe706 O716 1.935 1_564 S
Fe706 O717 2.077 1_554 S
Fe706 O723 1.935 1_565 S
Fe706 O732 2.077 . S
Fe707 O705 1.715 1_545 S
Fe707 O710 1.886 1_556 S
Fe707 O714 1.935 1_545 S
Fe707 O719 2.077 . S
Fe707 O725 1.935 1_546 S
Fe707 O729 2.077 1_556 S
O708 Fe704 1.715 . S
O708 Fe706 1.886 1_556 S
O709 Fe706 1.715 1_545 S
O709 Fe711 1.886 . S
O710 Fe707 1.886 1_554 S
O710 Fe711 1.714 . S
Fe711 O709 1.886 . S
Fe711 O710 1.714 . S
Fe711 O715 2.077 1_554 S
Fe711 O720 1.935 1_554 S
Fe711 O722 2.077 . S
Fe711 O730 1.935 . S
C712 O724 1.381 . S
C712 O725 1.421 . S
O713 Fe704 2.077 . S
O713 C726 1.381 . S
O714 Fe707 1.935 1_565 S
O714 C726 1.421 . S
O715 Fe711 2.077 1_556 S
O715 C731 1.381 . S
O716 Fe706 1.935 1_546 S
O716 C731 1.421 . S
O717 Fe706 2.077 1_556 S
O717 C721 1.381 . S
O718 Fe704 1.935 . S
O718 C721 1.421 . S
O719 Fe707 2.077 . S
O719 C727 1.381 . S
O720 Fe711 1.935 1_556 S
O720 C727 1.421 . S
C721 O717 1.381 . S
C721 O718 1.421 . S
O722 Fe711 2.077 . S
O722 C734 1.381 . S
O723 Fe706 1.935 1_545 S
O723 C734 1.421 . S
O724 Fe704 2.077 1_554 S
O724 C712 1.381 . S
O725 Fe707 1.935 1_564 S
O725 C712 1.421 . S
C726 O713 1.381 . S
C726 O714 1.421 . S
C727 O719 1.381 . S
C727 O720 1.421 . S
C728 O729 1.381 . S
C728 O730 1.421 . S
O729 Fe707 2.077 1_554 S
O729 C728 1.381 . S
O730 Fe711 1.935 . S
O730 C728 1.421 . S
C731 O715 1.381 . S
C731 O716 1.421 . S
O732 Fe706 2.077 . S
O732 C735 1.381 . S
O733 Fe704 1.935 1_554 S
O733 C735 1.421 . S
C734 O722 1.381 . S
C734 O723 1.421 . S
C735 O732 1.381 . S
C735 O733 1.421 . S
Fe736 O737 1.886 1_455 S
Fe736 O740 1.714 . S
Fe736 O745 2.077 1_454 S
Fe736 O750 1.935 1_554 S
Fe736 O756 2.077 1_455 S
Fe736 O765 1.935 . S
O737 Fe736 1.886 1_655 S
O737 Fe739 1.715 . S
Fe738 O740 1.886 1_556 S
Fe738 O741 1.715 . S
Fe738 O748 1.935 . S
Fe738 O749 2.077 . S
Fe738 O755 1.935 1_556 S
Fe738 O764 2.077 1_556 S
Fe739 O737 1.715 . S
Fe739 O742 1.886 1_554 S
Fe739 O746 1.935 1_554 S
Fe739 O751 2.077 1_554 S
Fe739 O757 1.935 . S
Fe739 O761 2.077 . S
O740 Fe736 1.714 . S
O740 Fe738 1.886 1_554 S
O741 Fe738 1.715 . S
O741 Fe743 1.886 1_455 S
O742 Fe739 1.886 1_556 S
O742 Fe743 1.715 . S
Fe743 O741 1.886 1_655 S
Fe743 O742 1.715 . S
Fe743 O747 2.077 1_655 S
Fe743 O752 1.935 . S
Fe743 O754 2.077 1_656 S
Fe743 O762 1.935 1_556 S
C744 O756 1.381 . S
C744 O757 1.421 . S
O745 Fe736 2.077 1_656 S
O745 C758 1.381 . S
O746 Fe739 1.935 1_556 S
O746 C758 1.421 . S
O747 Fe743 2.077 1_455 S
O747 C763 1.381 . S
O748 Fe738 1.935 . S
O748 C763 1.421 . S
O749 Fe738 2.077 . S
O749 C753 1.381 . S
O750 Fe736 1.935 1_556 S
O750 C753 1.421 . S
O751 Fe739 2.077 1_556 S
O751 C759 1.381 . S
O752 Fe743 1.935 . S
O752 C759 1.421 . S
C753 O749 1.381 . S
C753 O750 1.421 . S
O754 Fe743 2.077 1_454 S
O754 C766 1.381 . S
O755 Fe738 1.935 1_554 S
O755 C766 1.421 . S
O756 Fe736 2.077 1_655 S
O756 C744 1.381 . S
O757 Fe739 1.935 . S
O757 C744 1.421 . S
C758 O745 1.381 . S
C758 O746 1.421 . S
C759 O751 1.381 . S
C759 O752 1.421 . S
C760 O761 1.381 . S
C760 O762 1.421 . S
O761 Fe739 2.077 . S
O761 C760 1.381 . S
O762 Fe743 1.935 1_554 S
O762 C760 1.421 . S
C763 O747 1.381 . S
C763 O748 1.421 . S
O764 Fe738 2.077 1_554 S
O764 C767 1.381 . S
O765 Fe736 1.935 . S
O765 C767 1.421 . S
C766 O754 1.381 . S
C766 O755 1.421 . S
C767 O764 1.381 . S
C767 O765 1.421 . S
Fe768 O769 1.886 . S
Fe768 O772 1.715 . S
Fe768 O777 2.077 . S
Fe768 O782 1.935 . S
Fe768 O788 2.077 . S
Fe768 O797 1.935 . S
O769 Fe768 1.886 . S
O769 Fe771 1.715 . S
Fe770 O772 1.886 1_554 S
Fe770 O773 1.715 . S
Fe770 O780 1.935 . S
Fe770 O781 2.077 1_554 S
Fe770 O787 1.935 . S
Fe770 O796 2.077 1_554 S
Fe771 O769 1.715 . S
Fe771 O774 1.886 1_556 S
Fe771 O778 1.935 . S
Fe771 O783 2.077 1_556 S
Fe771 O789 1.935 . S
Fe771 O793 2.077 1_556 S
O772 Fe768 1.715 . S
O772 Fe770 1.886 1_556 S
O773 Fe770 1.715 . S
O773 Fe775 1.886 . S
O774 Fe771 1.886 1_554 S
O774 Fe775 1.715 . S
Fe775 O773 1.886 . S
Fe775 O774 1.715 . S
Fe775 O779 2.077 . S
Fe775 O784 1.935 . S
Fe775 O786 2.077 . S
Fe775 O794 1.935 . S
C776 O788 1.381 . S
C776 O789 1.421 . S
O777 Fe768 2.077 . S
O777 C790 1.381 . S
O778 Fe771 1.935 . S
O778 C790 1.421 . S
O779 Fe775 2.077 . S
O779 C795 1.381 . S
O780 Fe770 1.935 . S
O780 C795 1.421 . S
O781 Fe770 2.077 1_556 S
O781 C785 1.381 . S
O782 Fe768 1.935 . S
O782 C785 1.421 . S
O783 Fe771 2.077 1_554 S
O783 C791 1.381 . S
O784 Fe775 1.935 . S
O784 C791 1.421 . S
C785 O781 1.381 . S
C785 O782 1.421 . S
O786 Fe775 2.077 . S
O786 C798 1.381 . S
O787 Fe770 1.935 . S
O787 C798 1.421 . S
O788 Fe768 2.077 . S
O788 C776 1.381 . S
O789 Fe771 1.935 . S
O789 C776 1.421 . S
C790 O777 1.381 . S
C790 O778 1.421 . S
C791 O783 1.381 . S
C791 O784 1.421 . S
C792 O793 1.381 . S
C792 O794 1.421 . S
O793 Fe771 2.077 1_554 S
O793 C792 1.381 . S
O794 Fe775 1.935 . S
O794 C792 1.421 . S
C795 O779 1.381 . S
C795 O780 1.421 . S
O796 Fe770 2.077 1_556 S
O796 C799 1.381 . S
O797 Fe768 1.935 . S
O797 C799 1.421 . S
C798 O786 1.381 . S
C798 O787 1.421 . S
C799 O796 1.381 . S
C799 O797 1.421 . S
Fe800 O801 1.886 . S
Fe800 O804 1.715 . S
Fe800 O809 2.077 1_655 S
Fe800 O814 1.935 1_655 S
Fe800 O820 2.077 . S
Fe800 O829 1.935 . S
O801 Fe800 1.886 . S
O801 Fe803 1.715 . S
Fe802 O804 1.886 1_455 S
Fe802 O805 1.715 . S
Fe802 O812 1.935 . S
Fe802 O813 2.077 . S
Fe802 O819 1.935 1_455 S
Fe802 O828 2.077 1_455 S
Fe803 O801 1.715 . S
Fe803 O806 1.886 1_655 S
Fe803 O810 1.935 1_655 S
Fe803 O815 2.077 1_655 S
Fe803 O821 1.935 . S
Fe803 O825 2.077 . S
O804 Fe800 1.715 . S
O804 Fe802 1.886 1_655 S
O805 Fe802 1.715 . S
O805 Fe807 1.886 . S
O806 Fe803 1.886 1_455 S
O806 Fe807 1.715 . S
Fe807 O805 1.886 . S
Fe807 O806 1.715 . S
Fe807 O811 2.077 . S
Fe807 O816 1.935 . S
Fe807 O818 2.077 1_455 S
Fe807 O826 1.935 1_455 S
C808 O820 1.381 . S
C808 O821 1.421 . S
O809 Fe800 2.077 1_455 S
O809 C822 1.381 . S
O810 Fe803 1.935 1_455 S
O810 C822 1.421 . S
O811 Fe807 2.077 . S
O811 C827 1.381 . S
O812 Fe802 1.935 . S
O812 C827 1.421 . S
O813 Fe802 2.077 . S
O813 C817 1.381 . S
O814 Fe800 1.935 1_455 S
O814 C817 1.421 . S
O815 Fe803 2.077 1_455 S
O815 C823 1.381 . S
O816 Fe807 1.935 . S
O816 C823 1.421 . S
C817 O813 1.381 . S
C817 O814 1.421 . S
O818 Fe807 2.077 1_655 S
O818 C830 1.381 . S
O819 Fe802 1.935 1_655 S
O819 C830 1.421 . S
O820 Fe800 2.077 . S
O820 C808 1.381 . S
O821 Fe803 1.935 . S
O821 C808 1.421 . S
C822 O809 1.381 . S
C822 O810 1.421 . S
C823 O815 1.381 . S
C823 O816 1.421 . S
C824 O825 1.381 . S
C824 O826 1.421 . S
O825 Fe803 2.077 . S
O825 C824 1.381 . S
O826 Fe807 1.935 1_655 S
O826 C824 1.421 . S
C827 O811 1.381 . S
C827 O812 1.421 . S
O828 Fe802 2.077 1_655 S
O828 C831 1.381 . S
O829 Fe800 1.935 . S
O829 C831 1.421 . S
C830 O818 1.381 . S
C830 O819 1.421 . S
C831 O828 1.381 . S
C831 O829 1.421 . S
Fe832 O833 1.886 . S
Fe832 O836 1.715 . S
Fe832 O841 2.077 . S
Fe832 O846 1.935 . S
Fe832 O852 2.077 . S
Fe832 O861 1.935 . S
O833 Fe832 1.886 . S
O833 Fe835 1.715 1_565 S
Fe834 O836 1.886 . S
Fe834 O837 1.715 1_565 S
Fe834 O844 1.935 1_565 S
Fe834 O845 2.077 . S
Fe834 O851 1.935 1_565 S
Fe834 O860 2.077 . S
Fe835 O833 1.715 1_545 S
Fe835 O838 1.886 . S
Fe835 O842 1.935 1_545 S
Fe835 O847 2.077 . S
Fe835 O853 1.935 1_545 S
Fe835 O857 2.077 . S
O836 Fe832 1.715 . S
O836 Fe834 1.886 . S
O837 Fe834 1.715 1_545 S
O837 Fe839 1.886 . S
O838 Fe835 1.886 . S
O838 Fe839 1.715 . S
Fe839 O837 1.886 . S
Fe839 O838 1.715 . S
Fe839 O843 2.077 . S
Fe839 O848 1.935 . S
Fe839 O850 2.077 . S
Fe839 O858 1.935 . S
C840 O852 1.381 . S
C840 O853 1.421 . S
O841 Fe832 2.077 . S
O841 C854 1.381 . S
O842 Fe835 1.935 1_565 S
O842 C854 1.421 . S
O843 Fe839 2.077 . S
O843 C859 1.381 . S
O844 Fe834 1.935 1_545 S
O844 C859 1.421 . S
O845 Fe834 2.077 . S
O845 C849 1.381 . S
O846 Fe832 1.935 . S
O846 C849 1.421 . S
O847 Fe835 2.077 . S
O847 C855 1.381 . S
O848 Fe839 1.935 . S
O848 C855 1.421 . S
C849 O845 1.381 . S
C849 O846 1.421 . S
O850 Fe839 2.077 . S
O850 C862 1.381 . S
O851 Fe834 1.935 1_545 S
O851 C862 1.421 . S
O852 Fe832 2.077 . S
O852 C840 1.381 . S
O853 Fe835 1.935 1_565 S
O853 C840 1.421 . S
C854 O841 1.381 . S
C854 O842 1.421 . S
C855 O847 1.381 . S
C855 O848 1.421 . S
C856 O857 1.381 . S
C856 O858 1.421 . S
O857 Fe835 2.077 . S
O857 C856 1.381 . S
O858 Fe839 1.935 . S
O858 C856 1.421 . S
C859 O843 1.381 . S
C859 O844 1.421 . S
O860 Fe834 2.077 . S
O860 C863 1.381 . S
O861 Fe832 1.935 . S
O861 C863 1.421 . S
C862 O850 1.381 . S
C862 O851 1.421 . S
C863 O860 1.381 . S
C863 O861 1.421 . S
H864 C872 0.929 . S
H865 C874 0.930 . S
H866 C876 0.930 . S
H867 C879 0.929 . S
H868 C882 0.930 . S
H869 C884 0.960 . S
H870 C884 0.960 . S
H871 C884 0.960 . S
C872 H864 0.929 . S
C872 C873 1.377 . S
C872 C874 1.384 . S
C873 C872 1.377 . S
C873 C879 1.390 . S
C874 H865 0.930 . S
C874 C872 1.384 . S
C874 C875 1.372 . S
C875 C874 1.372 . S
C875 C876 1.400 . S
C875 C880 1.490 . S
C876 H866 0.930 . S
C876 C875 1.400 . S
C876 C879 1.386 . S
H877 C893 0.930 . S
H878 C894 0.931 . S
C879 H867 0.929 . S
C879 C873 1.390 . S
C879 C876 1.386 . S
C880 C875 1.490 . S
C880 C882 1.395 . S
C880 C883 1.403 . S
H881 C887 0.930 . S
C882 H868 0.930 . S
C882 C880 1.395 . S
C882 C885 1.403 . S
C883 C880 1.403 . S
C883 C884 1.524 . S
C883 C887 1.400 . S
C884 H869 0.960 . S
C884 H870 0.960 . S
C884 H871 0.960 . S
C884 C883 1.524 . S
C885 C882 1.403 . S
C885 C886 1.392 . S
C885 C889 1.495 . S
C886 C885 1.392 . S
C886 C887 1.385 . S
C886 C888 1.478 . S
C887 H881 0.930 . S
C887 C883 1.400 . S
C887 C886 1.385 . S
C888 C886 1.478 . S
C888 C890 1.381 . S
C888 C894 1.383 . S
C889 C885 1.495 . S
C889 H895 0.959 . S
C889 H896 0.961 . S
C889 H897 0.960 . S
C890 C888 1.381 . S
C890 C891 1.394 . S
C890 H898 0.930 . S
C891 C890 1.394 . S
C891 C892 1.383 . S
C891 H899 0.929 . S
C892 C891 1.383 . S
C892 C893 1.377 . S
C893 H877 0.930 . S
C893 C892 1.377 . S
C893 C894 1.379 . S
C894 H878 0.931 . S
C894 C888 1.383 . S
C894 C893 1.379 . S
H895 C889 0.959 . S
H896 C889 0.961 . S
H897 C889 0.960 . S
H898 C890 0.930 . S
H899 C891 0.929 . S
H900 C908 0.929 . S
H901 C910 0.930 . S
H902 C912 0.930 . S
H903 C915 0.929 . S
H904 C918 0.930 . S
H905 C920 0.960 . S
H906 C920 0.960 . S
H907 C920 0.960 . S
C908 H900 0.929 . S
C908 C909 1.377 . S
C908 C910 1.384 . S
C909 C908 1.377 . S
C909 C915 1.390 . S
C910 H901 0.930 . S
C910 C908 1.384 . S
C910 C911 1.372 . S
C911 C910 1.372 . S
C911 C912 1.400 . S
C911 C916 1.490 . S
C912 H902 0.930 . S
C912 C911 1.400 . S
C912 C915 1.386 . S
H913 C929 0.930 . S
H914 C930 0.931 . S
C915 H903 0.929 . S
C915 C909 1.390 . S
C915 C912 1.386 . S
C916 C911 1.490 . S
C916 C918 1.395 . S
C916 C919 1.403 . S
H917 C923 0.930 . S
C918 H904 0.930 . S
C918 C916 1.395 . S
C918 C921 1.403 . S
C919 C916 1.403 . S
C919 C920 1.524 . S
C919 C923 1.400 . S
C920 H905 0.960 . S
C920 H906 0.960 . S
C920 H907 0.960 . S
C920 C919 1.524 . S
C921 C918 1.403 . S
C921 C922 1.392 . S
C921 C925 1.495 . S
C922 C921 1.392 . S
C922 C923 1.385 . S
C922 C924 1.478 . S
C923 H917 0.930 . S
C923 C919 1.400 . S
C923 C922 1.385 . S
C924 C922 1.478 . S
C924 C926 1.381 . S
C924 C930 1.383 . S
C925 C921 1.495 . S
C925 H931 0.959 . S
C925 H932 0.961 . S
C925 H933 0.960 . S
C926 C924 1.381 . S
C926 C927 1.394 . S
C926 H934 0.930 . S
C927 C926 1.394 . S
C927 C928 1.383 . S
C927 H935 0.929 . S
C928 C927 1.383 . S
C928 C929 1.377 . S
C929 H913 0.930 . S
C929 C928 1.377 . S
C929 C930 1.379 . S
C930 H914 0.931 . S
C930 C924 1.383 . S
C930 C929 1.379 . S
H931 C925 0.959 . S
H932 C925 0.961 . S
H933 C925 0.960 . S
H934 C926 0.930 . S
H935 C927 0.929 . S
H936 C944 0.929 . S
H937 C946 0.930 . S
H938 C948 0.930 . S
H939 C951 0.929 . S
H940 C954 0.930 . S
H941 C956 0.960 . S
H942 C956 0.960 . S
H943 C956 0.960 . S
C944 H936 0.929 . S
C944 C945 1.377 . S
C944 C946 1.384 . S
C945 C944 1.377 . S
C945 C951 1.390 . S
C946 H937 0.930 . S
C946 C944 1.384 . S
C946 C947 1.372 . S
C947 C946 1.372 . S
C947 C948 1.400 . S
C947 C952 1.490 . S
C948 H938 0.930 . S
C948 C947 1.400 . S
C948 C951 1.386 . S
H949 C965 0.930 . S
H950 C966 0.931 . S
C951 H939 0.929 . S
C951 C945 1.390 . S
C951 C948 1.386 . S
C952 C947 1.490 . S
C952 C954 1.395 . S
C952 C955 1.403 . S
H953 C959 0.930 . S
C954 H940 0.930 . S
C954 C952 1.395 . S
C954 C957 1.403 . S
C955 C952 1.403 . S
C955 C956 1.524 . S
C955 C959 1.400 . S
C956 H941 0.960 . S
C956 H942 0.960 . S
C956 H943 0.960 . S
C956 C955 1.524 . S
C957 C954 1.403 . S
C957 C958 1.392 . S
C957 C961 1.495 . S
C958 C957 1.392 . S
C958 C959 1.385 . S
C958 C960 1.478 . S
C959 H953 0.930 . S
C959 C955 1.400 . S
C959 C958 1.385 . S
C960 C958 1.478 . S
C960 C962 1.381 . S
C960 C966 1.383 . S
C961 C957 1.495 . S
C961 H967 0.959 . S
C961 H968 0.961 . S
C961 H969 0.960 . S
C962 C960 1.381 . S
C962 C963 1.394 . S
C962 H970 0.930 . S
C963 C962 1.394 . S
C963 C964 1.383 . S
C963 H971 0.929 . S
C964 C963 1.383 . S
C964 C965 1.377 . S
C965 H949 0.930 . S
C965 C964 1.377 . S
C965 C966 1.379 . S
C966 H950 0.931 . S
C966 C960 1.383 . S
C966 C965 1.379 . S
H967 C961 0.959 . S
H968 C961 0.961 . S
H969 C961 0.960 . S
H970 C962 0.930 . S
H971 C963 0.929 . S
H972 C980 0.929 . S
H973 C982 0.930 . S
H974 C984 0.930 . S
H975 C987 0.929 . S
H976 C990 0.930 . S
H977 C992 0.960 . S
H978 C992 0.960 . S
H979 C992 0.960 . S
C980 H972 0.929 . S
C980 C981 1.377 . S
C980 C982 1.384 . S
C981 C980 1.377 . S
C981 C987 1.390 . S
C982 H973 0.930 . S
C982 C980 1.384 . S
C982 C983 1.372 . S
C983 C982 1.372 . S
C983 C984 1.400 . S
C983 C988 1.490 . S
C984 H974 0.930 . S
C984 C983 1.400 . S
C984 C987 1.386 . S
H985 C1001 0.930 . S
H986 C1002 0.931 . S
C987 H975 0.929 . S
C987 C981 1.390 . S
C987 C984 1.386 . S
C988 C983 1.490 . S
C988 C990 1.395 . S
C988 C991 1.403 . S
H989 C995 0.930 . S
C990 H976 0.930 . S
C990 C988 1.395 . S
C990 C993 1.403 . S
C991 C988 1.403 . S
C991 C992 1.524 . S
C991 C995 1.400 . S
C992 H977 0.960 . S
C992 H978 0.960 . S
C992 H979 0.960 . S
C992 C991 1.524 . S
C993 C990 1.403 . S
C993 C994 1.392 . S
C993 C997 1.495 . S
C994 C993 1.392 . S
C994 C995 1.385 . S
C994 C996 1.478 . S
C995 H989 0.930 . S
C995 C991 1.400 . S
C995 C994 1.385 . S
C996 C994 1.478 . S
C996 C998 1.381 . S
C996 C1002 1.383 . S
C997 C993 1.495 . S
C997 H1003 0.959 . S
C997 H1004 0.961 . S
C997 H1005 0.960 . S
C998 C996 1.381 . S
C998 C999 1.394 . S
C998 H1006 0.930 . S
C999 C998 1.394 . S
C999 C1000 1.383 . S
C999 H1007 0.929 . S
C1000 C999 1.383 . S
C1000 C1001 1.377 . S
C1001 H985 0.930 . S
C1001 C1000 1.377 . S
C1001 C1002 1.379 . S
C1002 H986 0.931 . S
C1002 C996 1.383 . S
C1002 C1001 1.379 . S
H1003 C997 0.959 . S
H1004 C997 0.961 . S
H1005 C997 0.960 . S
H1006 C998 0.930 . S
H1007 C999 0.929 . S
H1008 C1016 0.929 . S
H1009 C1018 0.930 . S
H1010 C1020 0.930 . S
H1011 C1023 0.929 . S
H1012 C1026 0.930 . S
H1013 C1028 0.960 . S
H1014 C1028 0.960 . S
H1015 C1028 0.960 . S
C1016 H1008 0.929 . S
C1016 C1017 1.377 . S
C1016 C1018 1.384 . S
C1017 C1016 1.377 . S
C1017 C1023 1.390 . S
C1018 H1009 0.930 . S
C1018 C1016 1.384 . S
C1018 C1019 1.372 . S
C1019 C1018 1.372 . S
C1019 C1020 1.400 . S
C1019 C1024 1.490 . S
C1020 H1010 0.930 . S
C1020 C1019 1.400 . S
C1020 C1023 1.386 . S
H1021 C1037 0.930 . S
H1022 C1038 0.931 . S
C1023 H1011 0.929 . S
C1023 C1017 1.390 . S
C1023 C1020 1.386 . S
C1024 C1019 1.490 . S
C1024 C1026 1.395 . S
C1024 C1027 1.403 . S
H1025 C1031 0.930 . S
C1026 H1012 0.930 . S
C1026 C1024 1.395 . S
C1026 C1029 1.403 . S
C1027 C1024 1.403 . S
C1027 C1028 1.524 . S
C1027 C1031 1.400 . S
C1028 H1013 0.960 . S
C1028 H1014 0.960 . S
C1028 H1015 0.960 . S
C1028 C1027 1.524 . S
C1029 C1026 1.403 . S
C1029 C1030 1.392 . S
C1029 C1033 1.495 . S
C1030 C1029 1.392 . S
C1030 C1031 1.385 . S
C1030 C1032 1.478 . S
C1031 H1025 0.930 . S
C1031 C1027 1.400 . S
C1031 C1030 1.385 . S
C1032 C1030 1.478 . S
C1032 C1034 1.381 . S
C1032 C1038 1.383 . S
C1033 C1029 1.495 . S
C1033 H1039 0.959 . S
C1033 H1040 0.961 . S
C1033 H1041 0.960 . S
C1034 C1032 1.381 . S
C1034 C1035 1.394 . S
C1034 H1042 0.930 . S
C1035 C1034 1.394 . S
C1035 C1036 1.383 . S
C1035 H1043 0.929 . S
C1036 C1035 1.383 . S
C1036 C1037 1.377 . S
C1037 H1021 0.930 . S
C1037 C1036 1.377 . S
C1037 C1038 1.379 . S
C1038 H1022 0.931 . S
C1038 C1032 1.383 . S
C1038 C1037 1.379 . S
H1039 C1033 0.959 . S
H1040 C1033 0.961 . S
H1041 C1033 0.960 . S
H1042 C1034 0.930 . S
H1043 C1035 0.929 . S
H1044 C1052 0.929 . S
H1045 C1054 0.930 . S
H1046 C1056 0.930 . S
H1047 C1059 0.929 . S
H1048 C1062 0.930 . S
H1049 C1064 0.960 . S
H1050 C1064 0.960 . S
H1051 C1064 0.960 . S
C1052 H1044 0.929 . S
C1052 C1053 1.377 . S
C1052 C1054 1.384 . S
C1053 C1052 1.377 . S
C1053 C1059 1.390 . S
C1054 H1045 0.930 . S
C1054 C1052 1.384 . S
C1054 C1055 1.372 . S
C1055 C1054 1.372 . S
C1055 C1056 1.400 . S
C1055 C1060 1.490 . S
C1056 H1046 0.930 . S
C1056 C1055 1.400 . S
C1056 C1059 1.386 . S
H1057 C1073 0.930 . S
H1058 C1074 0.931 . S
C1059 H1047 0.929 . S
C1059 C1053 1.390 . S
C1059 C1056 1.386 . S
C1060 C1055 1.490 . S
C1060 C1062 1.395 . S
C1060 C1063 1.403 . S
H1061 C1067 0.930 . S
C1062 H1048 0.930 . S
C1062 C1060 1.395 . S
C1062 C1065 1.403 . S
C1063 C1060 1.403 . S
C1063 C1064 1.524 . S
C1063 C1067 1.400 . S
C1064 H1049 0.960 . S
C1064 H1050 0.960 . S
C1064 H1051 0.960 . S
C1064 C1063 1.524 . S
C1065 C1062 1.403 . S
C1065 C1066 1.392 . S
C1065 C1069 1.495 . S
C1066 C1065 1.392 . S
C1066 C1067 1.385 . S
C1066 C1068 1.478 . S
C1067 H1061 0.930 . S
C1067 C1063 1.400 . S
C1067 C1066 1.385 . S
C1068 C1066 1.478 . S
C1068 C1070 1.381 . S
C1068 C1074 1.383 . S
C1069 C1065 1.495 . S
C1069 H1075 0.959 . S
C1069 H1076 0.961 . S
C1069 H1077 0.960 . S
C1070 C1068 1.381 . S
C1070 C1071 1.394 . S
C1070 H1078 0.930 . S
C1071 C1070 1.394 . S
C1071 C1072 1.383 . S
C1071 H1079 0.929 . S
C1072 C1071 1.383 . S
C1072 C1073 1.377 . S
C1073 H1057 0.930 . S
C1073 C1072 1.377 . S
C1073 C1074 1.379 . S
C1074 H1058 0.931 . S
C1074 C1068 1.383 . S
C1074 C1073 1.379 . S
H1075 C1069 0.959 . S
H1076 C1069 0.961 . S
H1077 C1069 0.960 . S
H1078 C1070 0.930 . S
H1079 C1071 0.929 . S
H1080 C1088 0.929 . S
H1081 C1090 0.930 . S
H1082 C1092 0.930 . S
H1083 C1095 0.929 . S
H1084 C1098 0.930 . S
H1085 C1100 0.960 . S
H1086 C1100 0.960 . S
H1087 C1100 0.960 . S
C1088 H1080 0.929 . S
C1088 C1089 1.377 . S
C1088 C1090 1.384 . S
C1089 C1088 1.377 . S
C1089 C1095 1.390 . S
C1090 H1081 0.930 . S
C1090 C1088 1.384 . S
C1090 C1091 1.372 . S
C1091 C1090 1.372 . S
C1091 C1092 1.400 . S
C1091 C1096 1.490 . S
C1092 H1082 0.930 . S
C1092 C1091 1.400 . S
C1092 C1095 1.386 . S
H1093 C1109 0.930 . S
H1094 C1110 0.931 . S
C1095 H1083 0.929 . S
C1095 C1089 1.390 . S
C1095 C1092 1.386 . S
C1096 C1091 1.490 . S
C1096 C1098 1.395 . S
C1096 C1099 1.403 . S
H1097 C1103 0.930 . S
C1098 H1084 0.930 . S
C1098 C1096 1.395 . S
C1098 C1101 1.403 . S
C1099 C1096 1.403 . S
C1099 C1100 1.524 . S
C1099 C1103 1.400 . S
C1100 H1085 0.960 . S
C1100 H1086 0.960 . S
C1100 H1087 0.960 . S
C1100 C1099 1.524 . S
C1101 C1098 1.403 . S
C1101 C1102 1.392 . S
C1101 C1105 1.495 . S
C1102 C1101 1.392 . S
C1102 C1103 1.385 . S
C1102 C1104 1.478 . S
C1103 H1097 0.930 . S
C1103 C1099 1.400 . S
C1103 C1102 1.385 . S
C1104 C1102 1.478 . S
C1104 C1106 1.381 . S
C1104 C1110 1.383 . S
C1105 C1101 1.495 . S
C1105 H1111 0.959 . S
C1105 H1112 0.961 . S
C1105 H1113 0.960 . S
C1106 C1104 1.381 . S
C1106 C1107 1.394 . S
C1106 H1114 0.930 . S
C1107 C1106 1.394 . S
C1107 C1108 1.383 . S
C1107 H1115 0.929 . S
C1108 C1107 1.383 . S
C1108 C1109 1.377 . S
C1109 H1093 0.930 . S
C1109 C1108 1.377 . S
C1109 C1110 1.379 . S
C1110 H1094 0.931 . S
C1110 C1104 1.383 . S
C1110 C1109 1.379 . S
H1111 C1105 0.959 . S
H1112 C1105 0.961 . S
H1113 C1105 0.960 . S
H1114 C1106 0.930 . S
H1115 C1107 0.929 . S
H1116 C1124 0.929 . S
H1117 C1126 0.930 . S
H1118 C1128 0.930 . S
H1119 C1131 0.929 . S
H1120 C1134 0.930 . S
H1121 C1136 0.960 . S
H1122 C1136 0.960 . S
H1123 C1136 0.960 . S
C1124 H1116 0.929 . S
C1124 C1125 1.377 . S
C1124 C1126 1.384 . S
C1125 C1124 1.377 . S
C1125 C1131 1.390 . S
C1126 H1117 0.930 . S
C1126 C1124 1.384 . S
C1126 C1127 1.372 . S
C1127 C1126 1.372 . S
C1127 C1128 1.400 . S
C1127 C1132 1.490 . S
C1128 H1118 0.930 . S
C1128 C1127 1.400 . S
C1128 C1131 1.386 . S
H1129 C1145 0.930 . S
H1130 C1146 0.931 . S
C1131 H1119 0.929 . S
C1131 C1125 1.390 . S
C1131 C1128 1.386 . S
C1132 C1127 1.490 . S
C1132 C1134 1.395 . S
C1132 C1135 1.403 . S
H1133 C1139 0.930 . S
C1134 H1120 0.930 . S
C1134 C1132 1.395 . S
C1134 C1137 1.403 . S
C1135 C1132 1.403 . S
C1135 C1136 1.524 . S
C1135 C1139 1.400 . S
C1136 H1121 0.960 . S
C1136 H1122 0.960 . S
C1136 H1123 0.960 . S
C1136 C1135 1.524 . S
C1137 C1134 1.403 . S
C1137 C1138 1.392 . S
C1137 C1141 1.495 . S
C1138 C1137 1.392 . S
C1138 C1139 1.385 . S
C1138 C1140 1.478 . S
C1139 H1133 0.930 . S
C1139 C1135 1.400 . S
C1139 C1138 1.385 . S
C1140 C1138 1.478 . S
C1140 C1142 1.381 . S
C1140 C1146 1.383 . S
C1141 C1137 1.495 . S
C1141 H1147 0.959 . S
C1141 H1148 0.961 . S
C1141 H1149 0.960 . S
C1142 C1140 1.381 . S
C1142 C1143 1.394 . S
C1142 H1150 0.930 . S
C1143 C1142 1.394 . S
C1143 C1144 1.383 . S
C1143 H1151 0.929 . S
C1144 C1143 1.383 . S
C1144 C1145 1.377 . S
C1145 H1129 0.930 . S
C1145 C1144 1.377 . S
C1145 C1146 1.379 . S
C1146 H1130 0.931 . S
C1146 C1140 1.383 . S
C1146 C1145 1.379 . S
H1147 C1141 0.959 . S
H1148 C1141 0.961 . S
H1149 C1141 0.960 . S
H1150 C1142 0.930 . S
H1151 C1143 0.929 . S
H1152 C1160 0.929 . S
H1153 C1162 0.930 . S
H1154 C1164 0.930 . S
H1155 C1167 0.929 . S
H1156 C1170 0.930 . S
H1157 C1172 0.960 . S
H1158 C1172 0.960 . S
H1159 C1172 0.960 . S
C1160 H1152 0.929 . S
C1160 C1161 1.377 . S
C1160 C1162 1.384 . S
C1161 C1160 1.377 . S
C1161 C1167 1.390 . S
C1162 H1153 0.930 . S
C1162 C1160 1.384 . S
C1162 C1163 1.372 . S
C1163 C1162 1.372 . S
C1163 C1164 1.400 . S
C1163 C1168 1.490 . S
C1164 H1154 0.930 . S
C1164 C1163 1.400 . S
C1164 C1167 1.386 . S
H1165 C1181 0.930 . S
H1166 C1182 0.931 . S
C1167 H1155 0.929 . S
C1167 C1161 1.390 . S
C1167 C1164 1.386 . S
C1168 C1163 1.490 . S
C1168 C1170 1.395 . S
C1168 C1171 1.403 . S
H1169 C1175 0.930 . S
C1170 H1156 0.930 . S
C1170 C1168 1.395 . S
C1170 C1173 1.403 . S
C1171 C1168 1.403 . S
C1171 C1172 1.524 . S
C1171 C1175 1.400 . S
C1172 H1157 0.960 . S
C1172 H1158 0.960 . S
C1172 H1159 0.960 . S
C1172 C1171 1.524 . S
C1173 C1170 1.403 . S
C1173 C1174 1.392 . S
C1173 C1177 1.495 . S
C1174 C1173 1.392 . S
C1174 C1175 1.385 . S
C1174 C1176 1.478 . S
C1175 H1169 0.930 . S
C1175 C1171 1.400 . S
C1175 C1174 1.385 . S
C1176 C1174 1.478 . S
C1176 C1178 1.381 . S
C1176 C1182 1.383 . S
C1177 C1173 1.495 . S
C1177 H1183 0.959 . S
C1177 H1184 0.961 . S
C1177 H1185 0.960 . S
C1178 C1176 1.381 . S
C1178 C1179 1.394 . S
C1178 H1186 0.930 . S
C1179 C1178 1.394 . S
C1179 C1180 1.383 . S
C1179 H1187 0.929 . S
C1180 C1179 1.383 . S
C1180 C1181 1.377 . S
C1181 H1165 0.930 . S
C1181 C1180 1.377 . S
C1181 C1182 1.379 . S
C1182 H1166 0.931 . S
C1182 C1176 1.383 . S
C1182 C1181 1.379 . S
H1183 C1177 0.959 . S
H1184 C1177 0.961 . S
H1185 C1177 0.960 . S
H1186 C1178 0.930 . S
H1187 C1179 0.929 . S
H1188 C1196 0.929 . S
H1189 C1198 0.930 . S
H1190 C1200 0.930 . S
H1191 C1203 0.929 . S
H1192 C1206 0.930 . S
H1193 C1208 0.960 . S
H1194 C1208 0.960 . S
H1195 C1208 0.960 . S
C1196 H1188 0.929 . S
C1196 C1197 1.377 . S
C1196 C1198 1.384 . S
C1197 C1196 1.377 . S
C1197 C1203 1.390 . S
C1198 H1189 0.930 . S
C1198 C1196 1.384 . S
C1198 C1199 1.372 . S
C1199 C1198 1.372 . S
C1199 C1200 1.400 . S
C1199 C1204 1.490 . S
C1200 H1190 0.930 . S
C1200 C1199 1.400 . S
C1200 C1203 1.386 . S
H1201 C1217 0.930 . S
H1202 C1218 0.931 . S
C1203 H1191 0.929 . S
C1203 C1197 1.390 . S
C1203 C1200 1.386 . S
C1204 C1199 1.490 . S
C1204 C1206 1.395 . S
C1204 C1207 1.403 . S
H1205 C1211 0.930 . S
C1206 H1192 0.930 . S
C1206 C1204 1.395 . S
C1206 C1209 1.403 . S
C1207 C1204 1.403 . S
C1207 C1208 1.524 . S
C1207 C1211 1.400 . S
C1208 H1193 0.960 . S
C1208 H1194 0.960 . S
C1208 H1195 0.960 . S
C1208 C1207 1.524 . S
C1209 C1206 1.403 . S
C1209 C1210 1.392 . S
C1209 C1213 1.495 . S
C1210 C1209 1.392 . S
C1210 C1211 1.385 . S
C1210 C1212 1.478 . S
C1211 H1205 0.930 . S
C1211 C1207 1.400 . S
C1211 C1210 1.385 . S
C1212 C1210 1.478 . S
C1212 C1214 1.381 . S
C1212 C1218 1.383 . S
C1213 C1209 1.495 . S
C1213 H1219 0.959 . S
C1213 H1220 0.961 . S
C1213 H1221 0.960 . S
C1214 C1212 1.381 . S
C1214 C1215 1.394 . S
C1214 H1222 0.930 . S
C1215 C1214 1.394 . S
C1215 C1216 1.383 . S
C1215 H1223 0.929 . S
C1216 C1215 1.383 . S
C1216 C1217 1.377 . S
C1217 H1201 0.930 . S
C1217 C1216 1.377 . S
C1217 C1218 1.379 . S
C1218 H1202 0.931 . S
C1218 C1212 1.383 . S
C1218 C1217 1.379 . S
H1219 C1213 0.959 . S
H1220 C1213 0.961 . S
H1221 C1213 0.960 . S
H1222 C1214 0.930 . S
H1223 C1215 0.929 . S
H1224 C1232 0.929 . S
H1225 C1234 0.930 . S
H1226 C1236 0.930 . S
H1227 C1239 0.929 . S
H1228 C1242 0.930 . S
H1229 C1244 0.960 . S
H1230 C1244 0.960 . S
H1231 C1244 0.960 . S
C1232 H1224 0.929 . S
C1232 C1233 1.377 . S
C1232 C1234 1.384 . S
C1233 C1232 1.377 . S
C1233 C1239 1.390 . S
C1234 H1225 0.930 . S
C1234 C1232 1.384 . S
C1234 C1235 1.372 . S
C1235 C1234 1.372 . S
C1235 C1236 1.400 . S
C1235 C1240 1.490 . S
C1236 H1226 0.930 . S
C1236 C1235 1.400 . S
C1236 C1239 1.386 . S
H1237 C1253 0.930 . S
H1238 C1254 0.931 . S
C1239 H1227 0.929 . S
C1239 C1233 1.390 . S
C1239 C1236 1.386 . S
C1240 C1235 1.490 . S
C1240 C1242 1.395 . S
C1240 C1243 1.403 . S
H1241 C1247 0.930 . S
C1242 H1228 0.930 . S
C1242 C1240 1.395 . S
C1242 C1245 1.403 . S
C1243 C1240 1.403 . S
C1243 C1244 1.524 . S
C1243 C1247 1.400 . S
C1244 H1229 0.960 . S
C1244 H1230 0.960 . S
C1244 H1231 0.960 . S
C1244 C1243 1.524 . S
C1245 C1242 1.403 . S
C1245 C1246 1.392 . S
C1245 C1249 1.495 . S
C1246 C1245 1.392 . S
C1246 C1247 1.385 . S
C1246 C1248 1.478 . S
C1247 H1241 0.930 . S
C1247 C1243 1.400 . S
C1247 C1246 1.385 . S
C1248 C1246 1.478 . S
C1248 C1250 1.381 . S
C1248 C1254 1.383 . S
C1249 C1245 1.495 . S
C1249 H1255 0.959 . S
C1249 H1256 0.961 . S
C1249 H1257 0.960 . S
C1250 C1248 1.381 . S
C1250 C1251 1.394 . S
C1250 H1258 0.930 . S
C1251 C1250 1.394 . S
C1251 C1252 1.383 . S
C1251 H1259 0.929 . S
C1252 C1251 1.383 . S
C1252 C1253 1.377 . S
C1253 H1237 0.930 . S
C1253 C1252 1.377 . S
C1253 C1254 1.379 . S
C1254 H1238 0.931 . S
C1254 C1248 1.383 . S
C1254 C1253 1.379 . S
H1255 C1249 0.959 . S
H1256 C1249 0.961 . S
H1257 C1249 0.960 . S
H1258 C1250 0.930 . S
H1259 C1251 0.929 . S
H1260 C1268 0.929 . S
H1261 C1270 0.930 . S
H1262 C1272 0.930 . S
H1263 C1275 0.929 . S
H1264 C1278 0.930 . S
H1265 C1280 0.960 . S
H1266 C1280 0.960 . S
H1267 C1280 0.960 . S
C1268 H1260 0.929 . S
C1268 C1269 1.377 . S
C1268 C1270 1.384 . S
C1269 C1268 1.377 . S
C1269 C1275 1.390 . S
C1270 H1261 0.930 . S
C1270 C1268 1.384 . S
C1270 C1271 1.372 . S
C1271 C1270 1.372 . S
C1271 C1272 1.400 . S
C1271 C1276 1.490 . S
C1272 H1262 0.930 . S
C1272 C1271 1.400 . S
C1272 C1275 1.386 . S
H1273 C1289 0.930 . S
H1274 C1290 0.931 . S
C1275 H1263 0.929 . S
C1275 C1269 1.390 . S
C1275 C1272 1.386 . S
C1276 C1271 1.490 . S
C1276 C1278 1.395 . S
C1276 C1279 1.403 . S
H1277 C1283 0.930 . S
C1278 H1264 0.930 . S
C1278 C1276 1.395 . S
C1278 C1281 1.403 . S
C1279 C1276 1.403 . S
C1279 C1280 1.524 . S
C1279 C1283 1.400 . S
C1280 H1265 0.960 . S
C1280 H1266 0.960 . S
C1280 H1267 0.960 . S
C1280 C1279 1.524 . S
C1281 C1278 1.403 . S
C1281 C1282 1.392 . S
C1281 C1285 1.495 . S
C1282 C1281 1.392 . S
C1282 C1283 1.385 . S
C1282 C1284 1.478 . S
C1283 H1277 0.930 . S
C1283 C1279 1.400 . S
C1283 C1282 1.385 . S
C1284 C1282 1.478 . S
C1284 C1286 1.381 . S
C1284 C1290 1.383 . S
C1285 C1281 1.495 . S
C1285 H1291 0.959 . S
C1285 H1292 0.961 . S
C1285 H1293 0.960 . S
C1286 C1284 1.381 . S
C1286 C1287 1.394 . S
C1286 H1294 0.930 . S
C1287 C1286 1.394 . S
C1287 C1288 1.383 . S
C1287 H1295 0.929 . S
C1288 C1287 1.383 . S
C1288 C1289 1.377 . S
C1289 H1273 0.930 . S
C1289 C1288 1.377 . S
C1289 C1290 1.379 . S
C1290 H1274 0.931 . S
C1290 C1284 1.383 . S
C1290 C1289 1.379 . S
H1291 C1285 0.959 . S
H1292 C1285 0.961 . S
H1293 C1285 0.960 . S
H1294 C1286 0.930 . S
H1295 C1287 0.929 . S
H1296 C1304 0.929 . S
H1297 C1306 0.930 . S
H1298 C1308 0.930 . S
H1299 C1311 0.929 . S
H1300 C1314 0.930 . S
H1301 C1316 0.960 . S
H1302 C1316 0.960 . S
H1303 C1316 0.960 . S
C1304 H1296 0.929 . S
C1304 C1305 1.377 . S
C1304 C1306 1.384 . S
C1305 C1304 1.377 . S
C1305 C1311 1.390 . S
C1306 H1297 0.930 . S
C1306 C1304 1.384 . S
C1306 C1307 1.372 . S
C1307 C1306 1.372 . S
C1307 C1308 1.400 . S
C1307 C1312 1.490 . S
C1308 H1298 0.930 . S
C1308 C1307 1.400 . S
C1308 C1311 1.386 . S
H1309 C1325 0.930 . S
H1310 C1326 0.931 . S
C1311 H1299 0.929 . S
C1311 C1305 1.390 . S
C1311 C1308 1.386 . S
C1312 C1307 1.490 . S
C1312 C1314 1.395 . S
C1312 C1315 1.403 . S
H1313 C1319 0.930 . S
C1314 H1300 0.930 . S
C1314 C1312 1.395 . S
C1314 C1317 1.403 . S
C1315 C1312 1.403 . S
C1315 C1316 1.524 . S
C1315 C1319 1.400 . S
C1316 H1301 0.960 . S
C1316 H1302 0.960 . S
C1316 H1303 0.960 . S
C1316 C1315 1.524 . S
C1317 C1314 1.403 . S
C1317 C1318 1.392 . S
C1317 C1321 1.495 . S
C1318 C1317 1.392 . S
C1318 C1319 1.385 . S
C1318 C1320 1.478 . S
C1319 H1313 0.930 . S
C1319 C1315 1.400 . S
C1319 C1318 1.385 . S
C1320 C1318 1.478 . S
C1320 C1322 1.381 . S
C1320 C1326 1.383 . S
C1321 C1317 1.495 . S
C1321 H1327 0.959 . S
C1321 H1328 0.961 . S
C1321 H1329 0.960 . S
C1322 C1320 1.381 . S
C1322 C1323 1.394 . S
C1322 H1330 0.930 . S
C1323 C1322 1.394 . S
C1323 C1324 1.383 . S
C1323 H1331 0.929 . S
C1324 C1323 1.383 . S
C1324 C1325 1.377 . S
C1325 H1309 0.930 . S
C1325 C1324 1.377 . S
C1325 C1326 1.379 . S
C1326 H1310 0.931 . S
C1326 C1320 1.383 . S
C1326 C1325 1.379 . S
H1327 C1321 0.959 . S
H1328 C1321 0.961 . S
H1329 C1321 0.960 . S
H1330 C1322 0.930 . S
H1331 C1323 0.929 . S
H1332 C1340 0.929 . S
H1333 C1342 0.930 . S
H1334 C1344 0.930 . S
H1335 C1347 0.929 . S
H1336 C1350 0.930 . S
H1337 C1352 0.960 . S
H1338 C1352 0.960 . S
H1339 C1352 0.960 . S
C1340 H1332 0.929 . S
C1340 C1341 1.377 . S
C1340 C1342 1.384 . S
C1341 C1340 1.377 . S
C1341 C1347 1.390 . S
C1342 H1333 0.930 . S
C1342 C1340 1.384 . S
C1342 C1343 1.372 . S
C1343 C1342 1.372 . S
C1343 C1344 1.400 . S
C1343 C1348 1.490 . S
C1344 H1334 0.930 . S
C1344 C1343 1.400 . S
C1344 C1347 1.386 . S
H1345 C1361 0.930 . S
H1346 C1362 0.931 . S
C1347 H1335 0.929 . S
C1347 C1341 1.390 . S
C1347 C1344 1.386 . S
C1348 C1343 1.490 . S
C1348 C1350 1.395 . S
C1348 C1351 1.403 . S
H1349 C1355 0.930 . S
C1350 H1336 0.930 . S
C1350 C1348 1.395 . S
C1350 C1353 1.403 . S
C1351 C1348 1.403 . S
C1351 C1352 1.524 . S
C1351 C1355 1.400 . S
C1352 H1337 0.960 . S
C1352 H1338 0.960 . S
C1352 H1339 0.960 . S
C1352 C1351 1.524 . S
C1353 C1350 1.403 . S
C1353 C1354 1.392 . S
C1353 C1357 1.495 . S
C1354 C1353 1.392 . S
C1354 C1355 1.385 . S
C1354 C1356 1.478 . S
C1355 H1349 0.930 . S
C1355 C1351 1.400 . S
C1355 C1354 1.385 . S
C1356 C1354 1.478 . S
C1356 C1358 1.381 . S
C1356 C1362 1.383 . S
C1357 C1353 1.495 . S
C1357 H1363 0.959 . S
C1357 H1364 0.961 . S
C1357 H1365 0.960 . S
C1358 C1356 1.381 . S
C1358 C1359 1.394 . S
C1358 H1366 0.930 . S
C1359 C1358 1.394 . S
C1359 C1360 1.383 . S
C1359 H1367 0.929 . S
C1360 C1359 1.383 . S
C1360 C1361 1.377 . S
C1361 H1345 0.930 . S
C1361 C1360 1.377 . S
C1361 C1362 1.379 . S
C1362 H1346 0.931 . S
C1362 C1356 1.383 . S
C1362 C1361 1.379 . S
H1363 C1357 0.959 . S
H1364 C1357 0.961 . S
H1365 C1357 0.960 . S
H1366 C1358 0.930 . S
H1367 C1359 0.929 . S
H1368 C1376 0.929 . S
H1369 C1378 0.930 . S
H1370 C1380 0.930 . S
H1371 C1383 0.929 . S
H1372 C1386 0.930 . S
H1373 C1388 0.960 . S
H1374 C1388 0.960 . S
H1375 C1388 0.960 . S
C1376 H1368 0.929 . S
C1376 C1377 1.377 . S
C1376 C1378 1.384 . S
C1377 C1376 1.377 . S
C1377 C1383 1.390 . S
C1378 H1369 0.930 . S
C1378 C1376 1.384 . S
C1378 C1379 1.372 . S
C1379 C1378 1.372 . S
C1379 C1380 1.400 . S
C1379 C1384 1.490 . S
C1380 H1370 0.930 . S
C1380 C1379 1.400 . S
C1380 C1383 1.386 . S
H1381 C1397 0.930 . S
H1382 C1398 0.931 . S
C1383 H1371 0.929 . S
C1383 C1377 1.390 . S
C1383 C1380 1.386 . S
C1384 C1379 1.490 . S
C1384 C1386 1.395 . S
C1384 C1387 1.403 . S
H1385 C1391 0.930 . S
C1386 H1372 0.930 . S
C1386 C1384 1.395 . S
C1386 C1389 1.403 . S
C1387 C1384 1.403 . S
C1387 C1388 1.524 . S
C1387 C1391 1.400 . S
C1388 H1373 0.960 . S
C1388 H1374 0.960 . S
C1388 H1375 0.960 . S
C1388 C1387 1.524 . S
C1389 C1386 1.403 . S
C1389 C1390 1.392 . S
C1389 C1393 1.495 . S
C1390 C1389 1.392 . S
C1390 C1391 1.385 . S
C1390 C1392 1.478 . S
C1391 H1385 0.930 . S
C1391 C1387 1.400 . S
C1391 C1390 1.385 . S
C1392 C1390 1.478 . S
C1392 C1394 1.381 . S
C1392 C1398 1.383 . S
C1393 C1389 1.495 . S
C1393 H1399 0.959 . S
C1393 H1400 0.961 . S
C1393 H1401 0.960 . S
C1394 C1392 1.381 . S
C1394 C1395 1.394 . S
C1394 H1402 0.930 . S
C1395 C1394 1.394 . S
C1395 C1396 1.383 . S
C1395 H1403 0.929 . S
C1396 C1395 1.383 . S
C1396 C1397 1.377 . S
C1397 H1381 0.930 . S
C1397 C1396 1.377 . S
C1397 C1398 1.379 . S
C1398 H1382 0.931 . S
C1398 C1392 1.383 . S
C1398 C1397 1.379 . S
H1399 C1393 0.959 . S
H1400 C1393 0.961 . S
H1401 C1393 0.960 . S
H1402 C1394 0.930 . S
H1403 C1395 0.929 . S
H1404 C1412 0.929 . S
H1405 C1414 0.930 . S
H1406 C1416 0.930 . S
H1407 C1419 0.929 . S
H1408 C1422 0.930 . S
H1409 C1424 0.960 . S
H1410 C1424 0.960 . S
H1411 C1424 0.960 . S
C1412 H1404 0.929 . S
C1412 C1413 1.377 . S
C1412 C1414 1.384 . S
C1413 C1412 1.377 . S
C1413 C1419 1.390 . S
C1414 H1405 0.930 . S
C1414 C1412 1.384 . S
C1414 C1415 1.372 . S
C1415 C1414 1.372 . S
C1415 C1416 1.400 . S
C1415 C1420 1.490 . S
C1416 H1406 0.930 . S
C1416 C1415 1.400 . S
C1416 C1419 1.386 . S
H1417 C1433 0.930 . S
H1418 C1434 0.931 . S
C1419 H1407 0.929 . S
C1419 C1413 1.390 . S
C1419 C1416 1.386 . S
C1420 C1415 1.490 . S
C1420 C1422 1.395 . S
C1420 C1423 1.403 . S
H1421 C1427 0.930 . S
C1422 H1408 0.930 . S
C1422 C1420 1.395 . S
C1422 C1425 1.403 . S
C1423 C1420 1.403 . S
C1423 C1424 1.524 . S
C1423 C1427 1.400 . S
C1424 H1409 0.960 . S
C1424 H1410 0.960 . S
C1424 H1411 0.960 . S
C1424 C1423 1.524 . S
C1425 C1422 1.403 . S
C1425 C1426 1.392 . S
C1425 C1429 1.495 . S
C1426 C1425 1.392 . S
C1426 C1427 1.385 . S
C1426 C1428 1.478 . S
C1427 H1421 0.930 . S
C1427 C1423 1.400 . S
C1427 C1426 1.385 . S
C1428 C1426 1.478 . S
C1428 C1430 1.381 . S
C1428 C1434 1.383 . S
C1429 C1425 1.495 . S
C1429 H1435 0.959 . S
C1429 H1436 0.961 . S
C1429 H1437 0.960 . S
C1430 C1428 1.381 . S
C1430 C1431 1.394 . S
C1430 H1438 0.930 . S
C1431 C1430 1.394 . S
C1431 C1432 1.383 . S
C1431 H1439 0.929 . S
C1432 C1431 1.383 . S
C1432 C1433 1.377 . S
C1433 H1417 0.930 . S
C1433 C1432 1.377 . S
C1433 C1434 1.379 . S
C1434 H1418 0.931 . S
C1434 C1428 1.383 . S
C1434 C1433 1.379 . S
H1435 C1429 0.959 . S
H1436 C1429 0.961 . S
H1437 C1429 0.960 . S
H1438 C1430 0.930 . S
H1439 C1431 0.929 . S
H1440 C1448 0.929 . S
H1441 C1450 0.930 . S
H1442 C1452 0.930 . S
H1443 C1455 0.929 . S
H1444 C1458 0.930 . S
H1445 C1460 0.960 . S
H1446 C1460 0.960 . S
H1447 C1460 0.960 . S
C1448 H1440 0.929 . S
C1448 C1449 1.377 . S
C1448 C1450 1.384 . S
C1449 C1448 1.377 . S
C1449 C1455 1.390 . S
C1450 H1441 0.930 . S
C1450 C1448 1.384 . S
C1450 C1451 1.372 . S
C1451 C1450 1.372 . S
C1451 C1452 1.400 . S
C1451 C1456 1.490 . S
C1452 H1442 0.930 . S
C1452 C1451 1.400 . S
C1452 C1455 1.386 . S
H1453 C1469 0.930 . S
H1454 C1470 0.931 . S
C1455 H1443 0.929 . S
C1455 C1449 1.390 . S
C1455 C1452 1.386 . S
C1456 C1451 1.490 . S
C1456 C1458 1.395 . S
C1456 C1459 1.403 . S
H1457 C1463 0.930 . S
C1458 H1444 0.930 . S
C1458 C1456 1.395 . S
C1458 C1461 1.403 . S
C1459 C1456 1.403 . S
C1459 C1460 1.524 . S
C1459 C1463 1.400 . S
C1460 H1445 0.960 . S
C1460 H1446 0.960 . S
C1460 H1447 0.960 . S
C1460 C1459 1.524 . S
C1461 C1458 1.403 . S
C1461 C1462 1.392 . S
C1461 C1465 1.495 . S
C1462 C1461 1.392 . S
C1462 C1463 1.385 . S
C1462 C1464 1.478 . S
C1463 H1457 0.930 . S
C1463 C1459 1.400 . S
C1463 C1462 1.385 . S
C1464 C1462 1.478 . S
C1464 C1466 1.381 . S
C1464 C1470 1.383 . S
C1465 C1461 1.495 . S
C1465 H1471 0.959 . S
C1465 H1472 0.961 . S
C1465 H1473 0.960 . S
C1466 C1464 1.381 . S
C1466 C1467 1.394 . S
C1466 H1474 0.930 . S
C1467 C1466 1.394 . S
C1467 C1468 1.383 . S
C1467 H1475 0.929 . S
C1468 C1467 1.383 . S
C1468 C1469 1.377 . S
C1469 H1453 0.930 . S
C1469 C1468 1.377 . S
C1469 C1470 1.379 . S
C1470 H1454 0.931 . S
C1470 C1464 1.383 . S
C1470 C1469 1.379 . S
H1471 C1465 0.959 . S
H1472 C1465 0.961 . S
H1473 C1465 0.960 . S
H1474 C1466 0.930 . S
H1475 C1467 0.929 . S
H1476 C1484 0.929 . S
H1477 C1486 0.930 . S
H1478 C1488 0.930 . S
H1479 C1491 0.929 . S
H1480 C1494 0.930 . S
H1481 C1496 0.960 . S
H1482 C1496 0.960 . S
H1483 C1496 0.960 . S
C1484 H1476 0.929 . S
C1484 C1485 1.377 . S
C1484 C1486 1.384 . S
C1485 C1484 1.377 . S
C1485 C1491 1.390 . S
C1486 H1477 0.930 . S
C1486 C1484 1.384 . S
C1486 C1487 1.372 . S
C1487 C1486 1.372 . S
C1487 C1488 1.400 . S
C1487 C1492 1.490 . S
C1488 H1478 0.930 . S
C1488 C1487 1.400 . S
C1488 C1491 1.386 . S
H1489 C1505 0.930 . S
H1490 C1506 0.931 . S
C1491 H1479 0.929 . S
C1491 C1485 1.390 . S
C1491 C1488 1.386 . S
C1492 C1487 1.490 . S
C1492 C1494 1.395 . S
C1492 C1495 1.403 . S
H1493 C1499 0.930 . S
C1494 H1480 0.930 . S
C1494 C1492 1.395 . S
C1494 C1497 1.403 . S
C1495 C1492 1.403 . S
C1495 C1496 1.524 . S
C1495 C1499 1.400 . S
C1496 H1481 0.960 . S
C1496 H1482 0.960 . S
C1496 H1483 0.960 . S
C1496 C1495 1.524 . S
C1497 C1494 1.403 . S
C1497 C1498 1.392 . S
C1497 C1501 1.495 . S
C1498 C1497 1.392 . S
C1498 C1499 1.385 . S
C1498 C1500 1.478 . S
C1499 H1493 0.930 . S
C1499 C1495 1.400 . S
C1499 C1498 1.385 . S
C1500 C1498 1.478 . S
C1500 C1502 1.381 . S
C1500 C1506 1.383 . S
C1501 C1497 1.495 . S
C1501 H1507 0.959 . S
C1501 H1508 0.961 . S
C1501 H1509 0.960 . S
C1502 C1500 1.381 . S
C1502 C1503 1.394 . S
C1502 H1510 0.930 . S
C1503 C1502 1.394 . S
C1503 C1504 1.383 . S
C1503 H1511 0.929 . S
C1504 C1503 1.383 . S
C1504 C1505 1.377 . S
C1505 H1489 0.930 . S
C1505 C1504 1.377 . S
C1505 C1506 1.379 . S
C1506 H1490 0.931 . S
C1506 C1500 1.383 . S
C1506 C1505 1.379 . S
H1507 C1501 0.959 . S
H1508 C1501 0.961 . S
H1509 C1501 0.960 . S
H1510 C1502 0.930 . S
H1511 C1503 0.929 . S
H1512 C1520 0.929 . S
H1513 C1522 0.930 . S
H1514 C1524 0.930 . S
H1515 C1527 0.929 . S
H1516 C1530 0.930 . S
H1517 C1532 0.960 . S
H1518 C1532 0.960 . S
H1519 C1532 0.960 . S
C1520 H1512 0.929 . S
C1520 C1521 1.377 . S
C1520 C1522 1.384 . S
C1521 C1520 1.377 . S
C1521 C1527 1.390 . S
C1522 H1513 0.930 . S
C1522 C1520 1.384 . S
C1522 C1523 1.372 . S
C1523 C1522 1.372 . S
C1523 C1524 1.400 . S
C1523 C1528 1.490 . S
C1524 H1514 0.930 . S
C1524 C1523 1.400 . S
C1524 C1527 1.386 . S
H1525 C1541 0.930 . S
H1526 C1542 0.931 . S
C1527 H1515 0.929 . S
C1527 C1521 1.390 . S
C1527 C1524 1.386 . S
C1528 C1523 1.490 . S
C1528 C1530 1.395 . S
C1528 C1531 1.403 . S
H1529 C1535 0.930 . S
C1530 H1516 0.930 . S
C1530 C1528 1.395 . S
C1530 C1533 1.403 . S
C1531 C1528 1.403 . S
C1531 C1532 1.524 . S
C1531 C1535 1.400 . S
C1532 H1517 0.960 . S
C1532 H1518 0.960 . S
C1532 H1519 0.960 . S
C1532 C1531 1.524 . S
C1533 C1530 1.403 . S
C1533 C1534 1.392 . S
C1533 C1537 1.495 . S
C1534 C1533 1.392 . S
C1534 C1535 1.385 . S
C1534 C1536 1.478 . S
C1535 H1529 0.930 . S
C1535 C1531 1.400 . S
C1535 C1534 1.385 . S
C1536 C1534 1.478 . S
C1536 C1538 1.381 . S
C1536 C1542 1.383 . S
C1537 C1533 1.495 . S
C1537 H1543 0.959 . S
C1537 H1544 0.961 . S
C1537 H1545 0.960 . S
C1538 C1536 1.381 . S
C1538 C1539 1.394 . S
C1538 H1546 0.930 . S
C1539 C1538 1.394 . S
C1539 C1540 1.383 . S
C1539 H1547 0.929 . S
C1540 C1539 1.383 . S
C1540 C1541 1.377 . S
C1541 H1525 0.930 . S
C1541 C1540 1.377 . S
C1541 C1542 1.379 . S
C1542 H1526 0.931 . S
C1542 C1536 1.383 . S
C1542 C1541 1.379 . S
H1543 C1537 0.959 . S
H1544 C1537 0.961 . S
H1545 C1537 0.960 . S
H1546 C1538 0.930 . S
H1547 C1539 0.929 . S
H1548 C1556 0.929 . S
H1549 C1558 0.930 . S
H1550 C1560 0.930 . S
H1551 C1563 0.929 . S
H1552 C1566 0.930 . S
H1553 C1568 0.960 . S
H1554 C1568 0.960 . S
H1555 C1568 0.960 . S
C1556 H1548 0.929 . S
C1556 C1557 1.377 . S
C1556 C1558 1.384 . S
C1557 C1556 1.377 . S
C1557 C1563 1.390 . S
C1558 H1549 0.930 . S
C1558 C1556 1.384 . S
C1558 C1559 1.372 . S
C1559 C1558 1.372 . S
C1559 C1560 1.400 . S
C1559 C1564 1.490 . S
C1560 H1550 0.930 . S
C1560 C1559 1.400 . S
C1560 C1563 1.386 . S
H1561 C1577 0.930 . S
H1562 C1578 0.931 . S
C1563 H1551 0.929 . S
C1563 C1557 1.390 . S
C1563 C1560 1.386 . S
C1564 C1559 1.490 . S
C1564 C1566 1.395 . S
C1564 C1567 1.403 . S
H1565 C1571 0.930 . S
C1566 H1552 0.930 . S
C1566 C1564 1.395 . S
C1566 C1569 1.403 . S
C1567 C1564 1.403 . S
C1567 C1568 1.524 . S
C1567 C1571 1.400 . S
C1568 H1553 0.960 . S
C1568 H1554 0.960 . S
C1568 H1555 0.960 . S
C1568 C1567 1.524 . S
C1569 C1566 1.403 . S
C1569 C1570 1.392 . S
C1569 C1573 1.495 . S
C1570 C1569 1.392 . S
C1570 C1571 1.385 . S
C1570 C1572 1.478 . S
C1571 H1565 0.930 . S
C1571 C1567 1.400 . S
C1571 C1570 1.385 . S
C1572 C1570 1.478 . S
C1572 C1574 1.381 . S
C1572 C1578 1.383 . S
C1573 C1569 1.495 . S
C1573 H1579 0.959 . S
C1573 H1580 0.961 . S
C1573 H1581 0.960 . S
C1574 C1572 1.381 . S
C1574 C1575 1.394 . S
C1574 H1582 0.930 . S
C1575 C1574 1.394 . S
C1575 C1576 1.383 . S
C1575 H1583 0.929 . S
C1576 C1575 1.383 . S
C1576 C1577 1.377 . S
C1577 H1561 0.930 . S
C1577 C1576 1.377 . S
C1577 C1578 1.379 . S
C1578 H1562 0.931 . S
C1578 C1572 1.383 . S
C1578 C1577 1.379 . S
H1579 C1573 0.959 . S
H1580 C1573 0.961 . S
H1581 C1573 0.960 . S
H1582 C1574 0.930 . S
H1583 C1575 0.929 . S
H1584 C1592 0.929 . S
H1585 C1594 0.930 . S
H1586 C1596 0.930 . S
H1587 C1599 0.929 . S
H1588 C1602 0.930 . S
H1589 C1604 0.960 . S
H1590 C1604 0.960 . S
H1591 C1604 0.960 . S
C1592 H1584 0.929 . S
C1592 C1593 1.377 . S
C1592 C1594 1.384 . S
C1593 C1592 1.377 . S
C1593 C1599 1.390 . S
C1594 H1585 0.930 . S
C1594 C1592 1.384 . S
C1594 C1595 1.372 . S
C1595 C1594 1.372 . S
C1595 C1596 1.400 . S
C1595 C1600 1.490 . S
C1596 H1586 0.930 . S
C1596 C1595 1.400 . S
C1596 C1599 1.386 . S
H1597 C1613 0.930 . S
H1598 C1614 0.931 . S
C1599 H1587 0.929 . S
C1599 C1593 1.390 . S
C1599 C1596 1.386 . S
C1600 C1595 1.490 . S
C1600 C1602 1.395 . S
C1600 C1603 1.403 . S
H1601 C1607 0.930 . S
C1602 H1588 0.930 . S
C1602 C1600 1.395 . S
C1602 C1605 1.403 . S
C1603 C1600 1.403 . S
C1603 C1604 1.524 . S
C1603 C1607 1.400 . S
C1604 H1589 0.960 . S
C1604 H1590 0.960 . S
C1604 H1591 0.960 . S
C1604 C1603 1.524 . S
C1605 C1602 1.403 . S
C1605 C1606 1.392 . S
C1605 C1609 1.495 . S
C1606 C1605 1.392 . S
C1606 C1607 1.385 . S
C1606 C1608 1.478 . S
C1607 H1601 0.930 . S
C1607 C1603 1.400 . S
C1607 C1606 1.385 . S
C1608 C1606 1.478 . S
C1608 C1610 1.381 . S
C1608 C1614 1.383 . S
C1609 C1605 1.495 . S
C1609 H1615 0.959 . S
C1609 H1616 0.961 . S
C1609 H1617 0.960 . S
C1610 C1608 1.381 . S
C1610 C1611 1.394 . S
C1610 H1618 0.930 . S
C1611 C1610 1.394 . S
C1611 C1612 1.383 . S
C1611 H1619 0.929 . S
C1612 C1611 1.383 . S
C1612 C1613 1.377 . S
C1613 H1597 0.930 . S
C1613 C1612 1.377 . S
C1613 C1614 1.379 . S
C1614 H1598 0.931 . S
C1614 C1608 1.383 . S
C1614 C1613 1.379 . S
H1615 C1609 0.959 . S
H1616 C1609 0.961 . S
H1617 C1609 0.960 . S
H1618 C1610 0.930 . S
H1619 C1611 0.929 . S
H1620 C1628 0.929 . S
H1621 C1630 0.930 . S
H1622 C1632 0.930 . S
H1623 C1635 0.929 . S
H1624 C1638 0.930 . S
H1625 C1640 0.960 . S
H1626 C1640 0.960 . S
H1627 C1640 0.960 . S
C1628 H1620 0.929 . S
C1628 C1629 1.377 . S
C1628 C1630 1.384 . S
C1629 C1628 1.377 . S
C1629 C1635 1.390 . S
C1630 H1621 0.930 . S
C1630 C1628 1.384 . S
C1630 C1631 1.372 . S
C1631 C1630 1.372 . S
C1631 C1632 1.400 . S
C1631 C1636 1.490 . S
C1632 H1622 0.930 . S
C1632 C1631 1.400 . S
C1632 C1635 1.386 . S
H1633 C1649 0.930 . S
H1634 C1650 0.931 . S
C1635 H1623 0.929 . S
C1635 C1629 1.390 . S
C1635 C1632 1.386 . S
C1636 C1631 1.490 . S
C1636 C1638 1.395 . S
C1636 C1639 1.403 . S
H1637 C1643 0.930 . S
C1638 H1624 0.930 . S
C1638 C1636 1.395 . S
C1638 C1641 1.403 . S
C1639 C1636 1.403 . S
C1639 C1640 1.524 . S
C1639 C1643 1.400 . S
C1640 H1625 0.960 . S
C1640 H1626 0.960 . S
C1640 H1627 0.960 . S
C1640 C1639 1.524 . S
C1641 C1638 1.403 . S
C1641 C1642 1.392 . S
C1641 C1645 1.495 . S
C1642 C1641 1.392 . S
C1642 C1643 1.385 . S
C1642 C1644 1.478 . S
C1643 H1637 0.930 . S
C1643 C1639 1.400 . S
C1643 C1642 1.385 . S
C1644 C1642 1.478 . S
C1644 C1646 1.381 . S
C1644 C1650 1.383 . S
C1645 C1641 1.495 . S
C1645 H1651 0.959 . S
C1645 H1652 0.961 . S
C1645 H1653 0.960 . S
C1646 C1644 1.381 . S
C1646 C1647 1.394 . S
C1646 H1654 0.930 . S
C1647 C1646 1.394 . S
C1647 C1648 1.383 . S
C1647 H1655 0.929 . S
C1648 C1647 1.383 . S
C1648 C1649 1.377 . S
C1649 H1633 0.930 . S
C1649 C1648 1.377 . S
C1649 C1650 1.379 . S
C1650 H1634 0.931 . S
C1650 C1644 1.383 . S
C1650 C1649 1.379 . S
H1651 C1645 0.959 . S
H1652 C1645 0.961 . S
H1653 C1645 0.960 . S
H1654 C1646 0.930 . S
H1655 C1647 0.929 . S
H1656 C1664 0.929 . S
H1657 C1666 0.930 . S
H1658 C1668 0.930 . S
H1659 C1671 0.929 . S
H1660 C1674 0.930 . S
H1661 C1676 0.960 . S
H1662 C1676 0.960 . S
H1663 C1676 0.960 . S
C1664 H1656 0.929 . S
C1664 C1665 1.377 . S
C1664 C1666 1.384 . S
C1665 C1664 1.377 . S
C1665 C1671 1.390 . S
C1666 H1657 0.930 . S
C1666 C1664 1.384 . S
C1666 C1667 1.372 . S
C1667 C1666 1.372 . S
C1667 C1668 1.400 . S
C1667 C1672 1.490 . S
C1668 H1658 0.930 . S
C1668 C1667 1.400 . S
C1668 C1671 1.386 . S
H1669 C1685 0.930 . S
H1670 C1686 0.931 . S
C1671 H1659 0.929 . S
C1671 C1665 1.390 . S
C1671 C1668 1.386 . S
C1672 C1667 1.490 . S
C1672 C1674 1.395 . S
C1672 C1675 1.403 . S
H1673 C1679 0.930 . S
C1674 H1660 0.930 . S
C1674 C1672 1.395 . S
C1674 C1677 1.403 . S
C1675 C1672 1.403 . S
C1675 C1676 1.524 . S
C1675 C1679 1.400 . S
C1676 H1661 0.960 . S
C1676 H1662 0.960 . S
C1676 H1663 0.960 . S
C1676 C1675 1.524 . S
C1677 C1674 1.403 . S
C1677 C1678 1.392 . S
C1677 C1681 1.495 . S
C1678 C1677 1.392 . S
C1678 C1679 1.385 . S
C1678 C1680 1.478 . S
C1679 H1673 0.930 . S
C1679 C1675 1.400 . S
C1679 C1678 1.385 . S
C1680 C1678 1.478 . S
C1680 C1682 1.381 . S
C1680 C1686 1.383 . S
C1681 C1677 1.495 . S
C1681 H1687 0.959 . S
C1681 H1688 0.961 . S
C1681 H1689 0.960 . S
C1682 C1680 1.381 . S
C1682 C1683 1.394 . S
C1682 H1690 0.930 . S
C1683 C1682 1.394 . S
C1683 C1684 1.383 . S
C1683 H1691 0.929 . S
C1684 C1683 1.383 . S
C1684 C1685 1.377 . S
C1685 H1669 0.930 . S
C1685 C1684 1.377 . S
C1685 C1686 1.379 . S
C1686 H1670 0.931 . S
C1686 C1680 1.383 . S
C1686 C1685 1.379 . S
H1687 C1681 0.959 . S
H1688 C1681 0.961 . S
H1689 C1681 0.960 . S
H1690 C1682 0.930 . S
H1691 C1683 0.929 . S
H1692 C1700 0.929 . S
H1693 C1702 0.930 . S
H1694 C1704 0.930 . S
H1695 C1707 0.929 . S
H1696 C1710 0.930 . S
H1697 C1712 0.960 . S
H1698 C1712 0.960 . S
H1699 C1712 0.960 . S
C1700 H1692 0.929 . S
C1700 C1701 1.377 . S
C1700 C1702 1.384 . S
C1701 C1700 1.377 . S
C1701 C1707 1.390 . S
C1702 H1693 0.930 . S
C1702 C1700 1.384 . S
C1702 C1703 1.372 . S
C1703 C1702 1.372 . S
C1703 C1704 1.400 . S
C1703 C1708 1.490 . S
C1704 H1694 0.930 . S
C1704 C1703 1.400 . S
C1704 C1707 1.386 . S
H1705 C1721 0.930 . S
H1706 C1722 0.931 . S
C1707 H1695 0.929 . S
C1707 C1701 1.390 . S
C1707 C1704 1.386 . S
C1708 C1703 1.490 . S
C1708 C1710 1.395 . S
C1708 C1711 1.403 . S
H1709 C1715 0.930 . S
C1710 H1696 0.930 . S
C1710 C1708 1.395 . S
C1710 C1713 1.403 . S
C1711 C1708 1.403 . S
C1711 C1712 1.524 . S
C1711 C1715 1.400 . S
C1712 H1697 0.960 . S
C1712 H1698 0.960 . S
C1712 H1699 0.960 . S
C1712 C1711 1.524 . S
C1713 C1710 1.403 . S
C1713 C1714 1.392 . S
C1713 C1717 1.495 . S
C1714 C1713 1.392 . S
C1714 C1715 1.385 . S
C1714 C1716 1.478 . S
C1715 H1709 0.930 . S
C1715 C1711 1.400 . S
C1715 C1714 1.385 . S
C1716 C1714 1.478 . S
C1716 C1718 1.381 . S
C1716 C1722 1.383 . S
C1717 C1713 1.495 . S
C1717 H1723 0.959 . S
C1717 H1724 0.961 . S
C1717 H1725 0.960 . S
C1718 C1716 1.381 . S
C1718 C1719 1.394 . S
C1718 H1726 0.930 . S
C1719 C1718 1.394 . S
C1719 C1720 1.383 . S
C1719 H1727 0.929 . S
C1720 C1719 1.383 . S
C1720 C1721 1.377 . S
C1721 H1705 0.930 . S
C1721 C1720 1.377 . S
C1721 C1722 1.379 . S
C1722 H1706 0.931 . S
C1722 C1716 1.383 . S
C1722 C1721 1.379 . S
H1723 C1717 0.959 . S
H1724 C1717 0.961 . S
H1725 C1717 0.960 . S
H1726 C1718 0.930 . S
H1727 C1719 0.929 . S
H1728 C1736 0.929 . S
H1729 C1738 0.930 . S
H1730 C1740 0.930 . S
H1731 C1743 0.929 . S
H1732 C1746 0.930 . S
H1733 C1748 0.960 . S
H1734 C1748 0.960 . S
H1735 C1748 0.960 . S
C1736 H1728 0.929 . S
C1736 C1737 1.377 . S
C1736 C1738 1.384 . S
C1737 C1736 1.377 . S
C1737 C1743 1.390 . S
C1738 H1729 0.930 . S
C1738 C1736 1.384 . S
C1738 C1739 1.372 . S
C1739 C1738 1.372 . S
C1739 C1740 1.400 . S
C1739 C1744 1.490 . S
C1740 H1730 0.930 . S
C1740 C1739 1.400 . S
C1740 C1743 1.386 . S
H1741 C1757 0.930 . S
H1742 C1758 0.931 . S
C1743 H1731 0.929 . S
C1743 C1737 1.390 . S
C1743 C1740 1.386 . S
C1744 C1739 1.490 . S
C1744 C1746 1.395 . S
C1744 C1747 1.403 . S
H1745 C1751 0.930 . S
C1746 H1732 0.930 . S
C1746 C1744 1.395 . S
C1746 C1749 1.403 . S
C1747 C1744 1.403 . S
C1747 C1748 1.524 . S
C1747 C1751 1.400 . S
C1748 H1733 0.960 . S
C1748 H1734 0.960 . S
C1748 H1735 0.960 . S
C1748 C1747 1.524 . S
C1749 C1746 1.403 . S
C1749 C1750 1.392 . S
C1749 C1753 1.495 . S
C1750 C1749 1.392 . S
C1750 C1751 1.385 . S
C1750 C1752 1.478 . S
C1751 H1745 0.930 . S
C1751 C1747 1.400 . S
C1751 C1750 1.385 . S
C1752 C1750 1.478 . S
C1752 C1754 1.381 . S
C1752 C1758 1.383 . S
C1753 C1749 1.495 . S
C1753 H1759 0.959 . S
C1753 H1760 0.961 . S
C1753 H1761 0.960 . S
C1754 C1752 1.381 . S
C1754 C1755 1.394 . S
C1754 H1762 0.930 . S
C1755 C1754 1.394 . S
C1755 C1756 1.383 . S
C1755 H1763 0.929 . S
C1756 C1755 1.383 . S
C1756 C1757 1.377 . S
C1757 H1741 0.930 . S
C1757 C1756 1.377 . S
C1757 C1758 1.379 . S
C1758 H1742 0.931 . S
C1758 C1752 1.383 . S
C1758 C1757 1.379 . S
H1759 C1753 0.959 . S
H1760 C1753 0.961 . S
H1761 C1753 0.960 . S
H1762 C1754 0.930 . S
H1763 C1755 0.929 . S
H1764 C1772 0.929 . S
H1765 C1774 0.930 . S
H1766 C1776 0.930 . S
H1767 C1779 0.929 . S
H1768 C1782 0.930 . S
H1769 C1784 0.960 . S
H1770 C1784 0.960 . S
H1771 C1784 0.960 . S
C1772 H1764 0.929 . S
C1772 C1773 1.377 . S
C1772 C1774 1.384 . S
C1773 C1772 1.377 . S
C1773 C1779 1.390 . S
C1774 H1765 0.930 . S
C1774 C1772 1.384 . S
C1774 C1775 1.372 . S
C1775 C1774 1.372 . S
C1775 C1776 1.400 . S
C1775 C1780 1.490 . S
C1776 H1766 0.930 . S
C1776 C1775 1.400 . S
C1776 C1779 1.386 . S
H1777 C1793 0.930 . S
H1778 C1794 0.931 . S
C1779 H1767 0.929 . S
C1779 C1773 1.390 . S
C1779 C1776 1.386 . S
C1780 C1775 1.490 . S
C1780 C1782 1.395 . S
C1780 C1783 1.403 . S
H1781 C1787 0.930 . S
C1782 H1768 0.930 . S
C1782 C1780 1.395 . S
C1782 C1785 1.403 . S
C1783 C1780 1.403 . S
C1783 C1784 1.524 . S
C1783 C1787 1.400 . S
C1784 H1769 0.960 . S
C1784 H1770 0.960 . S
C1784 H1771 0.960 . S
C1784 C1783 1.524 . S
C1785 C1782 1.403 . S
C1785 C1786 1.392 . S
C1785 C1789 1.495 . S
C1786 C1785 1.392 . S
C1786 C1787 1.385 . S
C1786 C1788 1.478 . S
C1787 H1781 0.930 . S
C1787 C1783 1.400 . S
C1787 C1786 1.385 . S
C1788 C1786 1.478 . S
C1788 C1790 1.381 . S
C1788 C1794 1.383 . S
C1789 C1785 1.495 . S
C1789 H1795 0.959 . S
C1789 H1796 0.961 . S
C1789 H1797 0.960 . S
C1790 C1788 1.381 . S
C1790 C1791 1.394 . S
C1790 H1798 0.930 . S
C1791 C1790 1.394 . S
C1791 C1792 1.383 . S
C1791 H1799 0.929 . S
C1792 C1791 1.383 . S
C1792 C1793 1.377 . S
C1793 H1777 0.930 . S
C1793 C1792 1.377 . S
C1793 C1794 1.379 . S
C1794 H1778 0.931 . S
C1794 C1788 1.383 . S
C1794 C1793 1.379 . S
H1795 C1789 0.959 . S
H1796 C1789 0.961 . S
H1797 C1789 0.960 . S
H1798 C1790 0.930 . S
H1799 C1791 0.929 . S
H1800 C1808 0.929 . S
H1801 C1810 0.930 . S
H1802 C1812 0.930 . S
H1803 C1815 0.929 . S
H1804 C1818 0.930 . S
H1805 C1820 0.960 . S
H1806 C1820 0.960 . S
H1807 C1820 0.960 . S
C1808 H1800 0.929 . S
C1808 C1809 1.377 . S
C1808 C1810 1.384 . S
C1809 C1808 1.377 . S
C1809 C1815 1.390 . S
C1810 H1801 0.930 . S
C1810 C1808 1.384 . S
C1810 C1811 1.372 . S
C1811 C1810 1.372 . S
C1811 C1812 1.400 . S
C1811 C1816 1.490 . S
C1812 H1802 0.930 . S
C1812 C1811 1.400 . S
C1812 C1815 1.386 . S
H1813 C1829 0.930 . S
H1814 C1830 0.931 . S
C1815 H1803 0.929 . S
C1815 C1809 1.390 . S
C1815 C1812 1.386 . S
C1816 C1811 1.490 . S
C1816 C1818 1.395 . S
C1816 C1819 1.403 . S
H1817 C1823 0.930 . S
C1818 H1804 0.930 . S
C1818 C1816 1.395 . S
C1818 C1821 1.403 . S
C1819 C1816 1.403 . S
C1819 C1820 1.524 . S
C1819 C1823 1.400 . S
C1820 H1805 0.960 . S
C1820 H1806 0.960 . S
C1820 H1807 0.960 . S
C1820 C1819 1.524 . S
C1821 C1818 1.403 . S
C1821 C1822 1.392 . S
C1821 C1825 1.495 . S
C1822 C1821 1.392 . S
C1822 C1823 1.385 . S
C1822 C1824 1.478 . S
C1823 H1817 0.930 . S
C1823 C1819 1.400 . S
C1823 C1822 1.385 . S
C1824 C1822 1.478 . S
C1824 C1826 1.381 . S
C1824 C1830 1.383 . S
C1825 C1821 1.495 . S
C1825 H1831 0.959 . S
C1825 H1832 0.961 . S
C1825 H1833 0.960 . S
C1826 C1824 1.381 . S
C1826 C1827 1.394 . S
C1826 H1834 0.930 . S
C1827 C1826 1.394 . S
C1827 C1828 1.383 . S
C1827 H1835 0.929 . S
C1828 C1827 1.383 . S
C1828 C1829 1.377 . S
C1829 H1813 0.930 . S
C1829 C1828 1.377 . S
C1829 C1830 1.379 . S
C1830 H1814 0.931 . S
C1830 C1824 1.383 . S
C1830 C1829 1.379 . S
H1831 C1825 0.959 . S
H1832 C1825 0.961 . S
H1833 C1825 0.960 . S
H1834 C1826 0.930 . S
H1835 C1827 0.929 . S
H1836 C1844 0.929 . S
H1837 C1846 0.930 . S
H1838 C1848 0.930 . S
H1839 C1851 0.929 . S
H1840 C1854 0.930 . S
H1841 C1856 0.960 . S
H1842 C1856 0.960 . S
H1843 C1856 0.960 . S
C1844 H1836 0.929 . S
C1844 C1845 1.377 . S
C1844 C1846 1.384 . S
C1845 C1844 1.377 . S
C1845 C1851 1.390 . S
C1846 H1837 0.930 . S
C1846 C1844 1.384 . S
C1846 C1847 1.372 . S
C1847 C1846 1.372 . S
C1847 C1848 1.400 . S
C1847 C1852 1.490 . S
C1848 H1838 0.930 . S
C1848 C1847 1.400 . S
C1848 C1851 1.386 . S
H1849 C1865 0.930 . S
H1850 C1866 0.931 . S
C1851 H1839 0.929 . S
C1851 C1845 1.390 . S
C1851 C1848 1.386 . S
C1852 C1847 1.490 . S
C1852 C1854 1.395 . S
C1852 C1855 1.403 . S
H1853 C1859 0.930 . S
C1854 H1840 0.930 . S
C1854 C1852 1.395 . S
C1854 C1857 1.403 . S
C1855 C1852 1.403 . S
C1855 C1856 1.524 . S
C1855 C1859 1.400 . S
C1856 H1841 0.960 . S
C1856 H1842 0.960 . S
C1856 H1843 0.960 . S
C1856 C1855 1.524 . S
C1857 C1854 1.403 . S
C1857 C1858 1.392 . S
C1857 C1861 1.495 . S
C1858 C1857 1.392 . S
C1858 C1859 1.385 . S
C1858 C1860 1.478 . S
C1859 H1853 0.930 . S
C1859 C1855 1.400 . S
C1859 C1858 1.385 . S
C1860 C1858 1.478 . S
C1860 C1862 1.381 . S
C1860 C1866 1.383 . S
C1861 C1857 1.495 . S
C1861 H1867 0.959 . S
C1861 H1868 0.961 . S
C1861 H1869 0.960 . S
C1862 C1860 1.381 . S
C1862 C1863 1.394 . S
C1862 H1870 0.930 . S
C1863 C1862 1.394 . S
C1863 C1864 1.383 . S
C1863 H1871 0.929 . S
C1864 C1863 1.383 . S
C1864 C1865 1.377 . S
C1865 H1849 0.930 . S
C1865 C1864 1.377 . S
C1865 C1866 1.379 . S
C1866 H1850 0.931 . S
C1866 C1860 1.383 . S
C1866 C1865 1.379 . S
H1867 C1861 0.959 . S
H1868 C1861 0.961 . S
H1869 C1861 0.960 . S
H1870 C1862 0.930 . S
H1871 C1863 0.929 . S
H1872 C1880 0.929 . S
H1873 C1882 0.930 . S
H1874 C1884 0.930 . S
H1875 C1887 0.929 . S
H1876 C1890 0.930 . S
H1877 C1892 0.960 . S
H1878 C1892 0.960 . S
H1879 C1892 0.960 . S
C1880 H1872 0.929 . S
C1880 C1881 1.377 . S
C1880 C1882 1.384 . S
C1881 C1880 1.377 . S
C1881 C1887 1.390 . S
C1882 H1873 0.930 . S
C1882 C1880 1.384 . S
C1882 C1883 1.372 . S
C1883 C1882 1.372 . S
C1883 C1884 1.400 . S
C1883 C1888 1.490 . S
C1884 H1874 0.930 . S
C1884 C1883 1.400 . S
C1884 C1887 1.386 . S
H1885 C1901 0.930 . S
H1886 C1902 0.931 . S
C1887 H1875 0.929 . S
C1887 C1881 1.390 . S
C1887 C1884 1.386 . S
C1888 C1883 1.490 . S
C1888 C1890 1.395 . S
C1888 C1891 1.403 . S
H1889 C1895 0.930 . S
C1890 H1876 0.930 . S
C1890 C1888 1.395 . S
C1890 C1893 1.403 . S
C1891 C1888 1.403 . S
C1891 C1892 1.524 . S
C1891 C1895 1.400 . S
C1892 H1877 0.960 . S
C1892 H1878 0.960 . S
C1892 H1879 0.960 . S
C1892 C1891 1.524 . S
C1893 C1890 1.403 . S
C1893 C1894 1.392 . S
C1893 C1897 1.495 . S
C1894 C1893 1.392 . S
C1894 C1895 1.385 . S
C1894 C1896 1.478 . S
C1895 H1889 0.930 . S
C1895 C1891 1.400 . S
C1895 C1894 1.385 . S
C1896 C1894 1.478 . S
C1896 C1898 1.381 . S
C1896 C1902 1.383 . S
C1897 C1893 1.495 . S
C1897 H1903 0.959 . S
C1897 H1904 0.961 . S
C1897 H1905 0.960 . S
C1898 C1896 1.381 . S
C1898 C1899 1.394 . S
C1898 H1906 0.930 . S
C1899 C1898 1.394 . S
C1899 C1900 1.383 . S
C1899 H1907 0.929 . S
C1900 C1899 1.383 . S
C1900 C1901 1.377 . S
C1901 H1885 0.930 . S
C1901 C1900 1.377 . S
C1901 C1902 1.379 . S
C1902 H1886 0.931 . S
C1902 C1896 1.383 . S
C1902 C1901 1.379 . S
H1903 C1897 0.959 . S
H1904 C1897 0.961 . S
H1905 C1897 0.960 . S
H1906 C1898 0.930 . S
H1907 C1899 0.929 . S
H1908 C1916 0.929 . S
H1909 C1918 0.930 . S
H1910 C1920 0.930 . S
H1911 C1923 0.929 . S
H1912 C1926 0.930 . S
H1913 C1928 0.960 . S
H1914 C1928 0.960 . S
H1915 C1928 0.960 . S
C1916 H1908 0.929 . S
C1916 C1917 1.377 . S
C1916 C1918 1.384 . S
C1917 C1916 1.377 . S
C1917 C1923 1.390 . S
C1918 H1909 0.930 . S
C1918 C1916 1.384 . S
C1918 C1919 1.372 . S
C1919 C1918 1.372 . S
C1919 C1920 1.400 . S
C1919 C1924 1.490 . S
C1920 H1910 0.930 . S
C1920 C1919 1.400 . S
C1920 C1923 1.386 . S
H1921 C1937 0.930 . S
H1922 C1938 0.931 . S
C1923 H1911 0.929 . S
C1923 C1917 1.390 . S
C1923 C1920 1.386 . S
C1924 C1919 1.490 . S
C1924 C1926 1.395 . S
C1924 C1927 1.403 . S
H1925 C1931 0.930 . S
C1926 H1912 0.930 . S
C1926 C1924 1.395 . S
C1926 C1929 1.403 . S
C1927 C1924 1.403 . S
C1927 C1928 1.524 . S
C1927 C1931 1.400 . S
C1928 H1913 0.960 . S
C1928 H1914 0.960 . S
C1928 H1915 0.960 . S
C1928 C1927 1.524 . S
C1929 C1926 1.403 . S
C1929 C1930 1.392 . S
C1929 C1933 1.495 . S
C1930 C1929 1.392 . S
C1930 C1931 1.385 . S
C1930 C1932 1.478 . S
C1931 H1925 0.930 . S
C1931 C1927 1.400 . S
C1931 C1930 1.385 . S
C1932 C1930 1.478 . S
C1932 C1934 1.381 . S
C1932 C1938 1.383 . S
C1933 C1929 1.495 . S
C1933 H1939 0.959 . S
C1933 H1940 0.961 . S
C1933 H1941 0.960 . S
C1934 C1932 1.381 . S
C1934 C1935 1.394 . S
C1934 H1942 0.930 . S
C1935 C1934 1.394 . S
C1935 C1936 1.383 . S
C1935 H1943 0.929 . S
C1936 C1935 1.383 . S
C1936 C1937 1.377 . S
C1937 H1921 0.930 . S
C1937 C1936 1.377 . S
C1937 C1938 1.379 . S
C1938 H1922 0.931 . S
C1938 C1932 1.383 . S
C1938 C1937 1.379 . S
H1939 C1933 0.959 . S
H1940 C1933 0.961 . S
H1941 C1933 0.960 . S
H1942 C1934 0.930 . S
H1943 C1935 0.929 . S
H1944 C1952 0.929 . S
H1945 C1954 0.930 . S
H1946 C1956 0.930 . S
H1947 C1959 0.929 . S
H1948 C1962 0.930 . S
H1949 C1964 0.960 . S
H1950 C1964 0.960 . S
H1951 C1964 0.960 . S
C1952 H1944 0.929 . S
C1952 C1953 1.377 . S
C1952 C1954 1.384 . S
C1953 C1952 1.377 . S
C1953 C1959 1.390 . S
C1954 H1945 0.930 . S
C1954 C1952 1.384 . S
C1954 C1955 1.372 . S
C1955 C1954 1.372 . S
C1955 C1956 1.400 . S
C1955 C1960 1.490 . S
C1956 H1946 0.930 . S
C1956 C1955 1.400 . S
C1956 C1959 1.386 . S
H1957 C1973 0.930 . S
H1958 C1974 0.931 . S
C1959 H1947 0.929 . S
C1959 C1953 1.390 . S
C1959 C1956 1.386 . S
C1960 C1955 1.490 . S
C1960 C1962 1.395 . S
C1960 C1963 1.403 . S
H1961 C1967 0.930 . S
C1962 H1948 0.930 . S
C1962 C1960 1.395 . S
C1962 C1965 1.403 . S
C1963 C1960 1.403 . S
C1963 C1964 1.524 . S
C1963 C1967 1.400 . S
C1964 H1949 0.960 . S
C1964 H1950 0.960 . S
C1964 H1951 0.960 . S
C1964 C1963 1.524 . S
C1965 C1962 1.403 . S
C1965 C1966 1.392 . S
C1965 C1969 1.495 . S
C1966 C1965 1.392 . S
C1966 C1967 1.385 . S
C1966 C1968 1.478 . S
C1967 H1961 0.930 . S
C1967 C1963 1.400 . S
C1967 C1966 1.385 . S
C1968 C1966 1.478 . S
C1968 C1970 1.381 . S
C1968 C1974 1.383 . S
C1969 C1965 1.495 . S
C1969 H1975 0.959 . S
C1969 H1976 0.961 . S
C1969 H1977 0.960 . S
C1970 C1968 1.381 . S
C1970 C1971 1.394 . S
C1970 H1978 0.930 . S
C1971 C1970 1.394 . S
C1971 C1972 1.383 . S
C1971 H1979 0.929 . S
C1972 C1971 1.383 . S
C1972 C1973 1.377 . S
C1973 H1957 0.930 . S
C1973 C1972 1.377 . S
C1973 C1974 1.379 . S
C1974 H1958 0.931 . S
C1974 C1968 1.383 . S
C1974 C1973 1.379 . S
H1975 C1969 0.959 . S
H1976 C1969 0.961 . S
H1977 C1969 0.960 . S
H1978 C1970 0.930 . S
H1979 C1971 0.929 . S
H1980 C1988 0.929 . S
H1981 C1990 0.930 . S
H1982 C1992 0.930 . S
H1983 C1995 0.929 . S
H1984 C1998 0.930 . S
H1985 C2000 0.960 . S
H1986 C2000 0.960 . S
H1987 C2000 0.960 . S
C1988 H1980 0.929 . S
C1988 C1989 1.377 . S
C1988 C1990 1.384 . S
C1989 C1988 1.377 . S
C1989 C1995 1.390 . S
C1990 H1981 0.930 . S
C1990 C1988 1.384 . S
C1990 C1991 1.372 . S
C1991 C1990 1.372 . S
C1991 C1992 1.400 . S
C1991 C1996 1.490 . S
C1992 H1982 0.930 . S
C1992 C1991 1.400 . S
C1992 C1995 1.386 . S
H1993 C2009 0.930 . S
H1994 C2010 0.931 . S
C1995 H1983 0.929 . S
C1995 C1989 1.390 . S
C1995 C1992 1.386 . S
C1996 C1991 1.490 . S
C1996 C1998 1.395 . S
C1996 C1999 1.403 . S
H1997 C2003 0.930 . S
C1998 H1984 0.930 . S
C1998 C1996 1.395 . S
C1998 C2001 1.403 . S
C1999 C1996 1.403 . S
C1999 C2000 1.524 . S
C1999 C2003 1.400 . S
C2000 H1985 0.960 . S
C2000 H1986 0.960 . S
C2000 H1987 0.960 . S
C2000 C1999 1.524 . S
C2001 C1998 1.403 . S
C2001 C2002 1.392 . S
C2001 C2005 1.495 . S
C2002 C2001 1.392 . S
C2002 C2003 1.385 . S
C2002 C2004 1.478 . S
C2003 H1997 0.930 . S
C2003 C1999 1.400 . S
C2003 C2002 1.385 . S
C2004 C2002 1.478 . S
C2004 C2006 1.381 . S
C2004 C2010 1.383 . S
C2005 C2001 1.495 . S
C2005 H2011 0.959 . S
C2005 H2012 0.961 . S
C2005 H2013 0.960 . S
C2006 C2004 1.381 . S
C2006 C2007 1.394 . S
C2006 H2014 0.930 . S
C2007 C2006 1.394 . S
C2007 C2008 1.383 . S
C2007 H2015 0.929 . S
C2008 C2007 1.383 . S
C2008 C2009 1.377 . S
C2009 H1993 0.930 . S
C2009 C2008 1.377 . S
C2009 C2010 1.379 . S
C2010 H1994 0.931 . S
C2010 C2004 1.383 . S
C2010 C2009 1.379 . S
H2011 C2005 0.959 . S
H2012 C2005 0.961 . S
H2013 C2005 0.960 . S
H2014 C2006 0.930 . S
H2015 C2007 0.929 . S
H2016 C2024 0.929 . S
H2017 C2026 0.930 . S
H2018 C2028 0.930 . S
H2019 C2031 0.929 . S
H2020 C2034 0.930 . S
H2021 C2036 0.960 . S
H2022 C2036 0.960 . S
H2023 C2036 0.960 . S
C2024 H2016 0.929 . S
C2024 C2025 1.377 . S
C2024 C2026 1.384 . S
C2025 C2024 1.377 . S
C2025 C2031 1.390 . S
C2026 H2017 0.930 . S
C2026 C2024 1.384 . S
C2026 C2027 1.372 . S
C2027 C2026 1.372 . S
C2027 C2028 1.400 . S
C2027 C2032 1.490 . S
C2028 H2018 0.930 . S
C2028 C2027 1.400 . S
C2028 C2031 1.386 . S
H2029 C2045 0.930 . S
H2030 C2046 0.931 . S
C2031 H2019 0.929 . S
C2031 C2025 1.390 . S
C2031 C2028 1.386 . S
C2032 C2027 1.490 . S
C2032 C2034 1.395 . S
C2032 C2035 1.403 . S
H2033 C2039 0.930 . S
C2034 H2020 0.930 . S
C2034 C2032 1.395 . S
C2034 C2037 1.403 . S
C2035 C2032 1.403 . S
C2035 C2036 1.524 . S
C2035 C2039 1.400 . S
C2036 H2021 0.960 . S
C2036 H2022 0.960 . S
C2036 H2023 0.960 . S
C2036 C2035 1.524 . S
C2037 C2034 1.403 . S
C2037 C2038 1.392 . S
C2037 C2041 1.495 . S
C2038 C2037 1.392 . S
C2038 C2039 1.385 . S
C2038 C2040 1.478 . S
C2039 H2033 0.930 . S
C2039 C2035 1.400 . S
C2039 C2038 1.385 . S
C2040 C2038 1.478 . S
C2040 C2042 1.381 . S
C2040 C2046 1.383 . S
C2041 C2037 1.495 . S
C2041 H2047 0.959 . S
C2041 H2048 0.961 . S
C2041 H2049 0.960 . S
C2042 C2040 1.381 . S
C2042 C2043 1.394 . S
C2042 H2050 0.930 . S
C2043 C2042 1.394 . S
C2043 C2044 1.383 . S
C2043 H2051 0.929 . S
C2044 C2043 1.383 . S
C2044 C2045 1.377 . S
C2045 H2029 0.930 . S
C2045 C2044 1.377 . S
C2045 C2046 1.379 . S
C2046 H2030 0.931 . S
C2046 C2040 1.383 . S
C2046 C2045 1.379 . S
H2047 C2041 0.959 . S
H2048 C2041 0.961 . S
H2049 C2041 0.960 . S
H2050 C2042 0.930 . S
H2051 C2043 0.929 . S
H2052 C2060 0.929 . S
H2053 C2062 0.930 . S
H2054 C2064 0.930 . S
H2055 C2067 0.929 . S
H2056 C2070 0.930 . S
H2057 C2072 0.960 . S
H2058 C2072 0.960 . S
H2059 C2072 0.960 . S
C2060 H2052 0.929 . S
C2060 C2061 1.377 . S
C2060 C2062 1.384 . S
C2061 C2060 1.377 . S
C2061 C2067 1.390 . S
C2062 H2053 0.930 . S
C2062 C2060 1.384 . S
C2062 C2063 1.372 . S
C2063 C2062 1.372 . S
C2063 C2064 1.400 . S
C2063 C2068 1.490 . S
C2064 H2054 0.930 . S
C2064 C2063 1.400 . S
C2064 C2067 1.386 . S
H2065 C2081 0.930 . S
H2066 C2082 0.931 . S
C2067 H2055 0.929 . S
C2067 C2061 1.390 . S
C2067 C2064 1.386 . S
C2068 C2063 1.490 . S
C2068 C2070 1.395 . S
C2068 C2071 1.403 . S
H2069 C2075 0.930 . S
C2070 H2056 0.930 . S
C2070 C2068 1.395 . S
C2070 C2073 1.403 . S
C2071 C2068 1.403 . S
C2071 C2072 1.524 . S
C2071 C2075 1.400 . S
C2072 H2057 0.960 . S
C2072 H2058 0.960 . S
C2072 H2059 0.960 . S
C2072 C2071 1.524 . S
C2073 C2070 1.403 . S
C2073 C2074 1.392 . S
C2073 C2077 1.495 . S
C2074 C2073 1.392 . S
C2074 C2075 1.385 . S
C2074 C2076 1.478 . S
C2075 H2069 0.930 . S
C2075 C2071 1.400 . S
C2075 C2074 1.385 . S
C2076 C2074 1.478 . S
C2076 C2078 1.381 . S
C2076 C2082 1.383 . S
C2077 C2073 1.495 . S
C2077 H2083 0.959 . S
C2077 H2084 0.961 . S
C2077 H2085 0.960 . S
C2078 C2076 1.381 . S
C2078 C2079 1.394 . S
C2078 H2086 0.930 . S
C2079 C2078 1.394 . S
C2079 C2080 1.383 . S
C2079 H2087 0.929 . S
C2080 C2079 1.383 . S
C2080 C2081 1.377 . S
C2081 H2065 0.930 . S
C2081 C2080 1.377 . S
C2081 C2082 1.379 . S
C2082 H2066 0.931 . S
C2082 C2076 1.383 . S
C2082 C2081 1.379 . S
H2083 C2077 0.959 . S
H2084 C2077 0.961 . S
H2085 C2077 0.960 . S
H2086 C2078 0.930 . S
H2087 C2079 0.929 . S
H2088 C2096 0.929 . S
H2089 C2098 0.930 . S
H2090 C2100 0.930 . S
H2091 C2103 0.929 . S
H2092 C2106 0.930 . S
H2093 C2108 0.960 . S
H2094 C2108 0.960 . S
H2095 C2108 0.960 . S
C2096 H2088 0.929 . S
C2096 C2097 1.377 . S
C2096 C2098 1.384 . S
C2097 C2096 1.377 . S
C2097 C2103 1.390 . S
C2098 H2089 0.930 . S
C2098 C2096 1.384 . S
C2098 C2099 1.372 . S
C2099 C2098 1.372 . S
C2099 C2100 1.400 . S
C2099 C2104 1.490 . S
C2100 H2090 0.930 . S
C2100 C2099 1.400 . S
C2100 C2103 1.386 . S
H2101 C2117 0.930 . S
H2102 C2118 0.931 . S
C2103 H2091 0.929 . S
C2103 C2097 1.390 . S
C2103 C2100 1.386 . S
C2104 C2099 1.490 . S
C2104 C2106 1.395 . S
C2104 C2107 1.403 . S
H2105 C2111 0.930 . S
C2106 H2092 0.930 . S
C2106 C2104 1.395 . S
C2106 C2109 1.403 . S
C2107 C2104 1.403 . S
C2107 C2108 1.524 . S
C2107 C2111 1.400 . S
C2108 H2093 0.960 . S
C2108 H2094 0.960 . S
C2108 H2095 0.960 . S
C2108 C2107 1.524 . S
C2109 C2106 1.403 . S
C2109 C2110 1.392 . S
C2109 C2113 1.495 . S
C2110 C2109 1.392 . S
C2110 C2111 1.385 . S
C2110 C2112 1.478 . S
C2111 H2105 0.930 . S
C2111 C2107 1.400 . S
C2111 C2110 1.385 . S
C2112 C2110 1.478 . S
C2112 C2114 1.381 . S
C2112 C2118 1.383 . S
C2113 C2109 1.495 . S
C2113 H2119 0.959 . S
C2113 H2120 0.961 . S
C2113 H2121 0.960 . S
C2114 C2112 1.381 . S
C2114 C2115 1.394 . S
C2114 H2122 0.930 . S
C2115 C2114 1.394 . S
C2115 C2116 1.383 . S
C2115 H2123 0.929 . S
C2116 C2115 1.383 . S
C2116 C2117 1.377 . S
C2117 H2101 0.930 . S
C2117 C2116 1.377 . S
C2117 C2118 1.379 . S
C2118 H2102 0.931 . S
C2118 C2112 1.383 . S
C2118 C2117 1.379 . S
H2119 C2113 0.959 . S
H2120 C2113 0.961 . S
H2121 C2113 0.960 . S
H2122 C2114 0.930 . S
H2123 C2115 0.929 . S
H2124 C2132 0.929 . S
H2125 C2134 0.930 . S
H2126 C2136 0.930 . S
H2127 C2139 0.929 . S
H2128 C2142 0.930 . S
H2129 C2144 0.960 . S
H2130 C2144 0.960 . S
H2131 C2144 0.960 . S
C2132 H2124 0.929 . S
C2132 C2133 1.377 . S
C2132 C2134 1.384 . S
C2133 C2132 1.377 . S
C2133 C2139 1.390 . S
C2134 H2125 0.930 . S
C2134 C2132 1.384 . S
C2134 C2135 1.372 . S
C2135 C2134 1.372 . S
C2135 C2136 1.400 . S
C2135 C2140 1.490 . S
C2136 H2126 0.930 . S
C2136 C2135 1.400 . S
C2136 C2139 1.386 . S
H2137 C2153 0.930 . S
H2138 C2154 0.931 . S
C2139 H2127 0.929 . S
C2139 C2133 1.390 . S
C2139 C2136 1.386 . S
C2140 C2135 1.490 . S
C2140 C2142 1.395 . S
C2140 C2143 1.403 . S
H2141 C2147 0.930 . S
C2142 H2128 0.930 . S
C2142 C2140 1.395 . S
C2142 C2145 1.403 . S
C2143 C2140 1.403 . S
C2143 C2144 1.524 . S
C2143 C2147 1.400 . S
C2144 H2129 0.960 . S
C2144 H2130 0.960 . S
C2144 H2131 0.960 . S
C2144 C2143 1.524 . S
C2145 C2142 1.403 . S
C2145 C2146 1.392 . S
C2145 C2149 1.495 . S
C2146 C2145 1.392 . S
C2146 C2147 1.385 . S
C2146 C2148 1.478 . S
C2147 H2141 0.930 . S
C2147 C2143 1.400 . S
C2147 C2146 1.385 . S
C2148 C2146 1.478 . S
C2148 C2150 1.381 . S
C2148 C2154 1.383 . S
C2149 C2145 1.495 . S
C2149 H2155 0.959 . S
C2149 H2156 0.961 . S
C2149 H2157 0.960 . S
C2150 C2148 1.381 . S
C2150 C2151 1.394 . S
C2150 H2158 0.930 . S
C2151 C2150 1.394 . S
C2151 C2152 1.383 . S
C2151 H2159 0.929 . S
C2152 C2151 1.383 . S
C2152 C2153 1.377 . S
C2153 H2137 0.930 . S
C2153 C2152 1.377 . S
C2153 C2154 1.379 . S
C2154 H2138 0.931 . S
C2154 C2148 1.383 . S
C2154 C2153 1.379 . S
H2155 C2149 0.959 . S
H2156 C2149 0.961 . S
H2157 C2149 0.960 . S
H2158 C2150 0.930 . S
H2159 C2151 0.929 . S
H2160 C2168 0.929 . S
H2161 C2170 0.930 . S
H2162 C2172 0.930 . S
H2163 C2175 0.929 . S
H2164 C2178 0.930 . S
H2165 C2180 0.960 . S
H2166 C2180 0.960 . S
H2167 C2180 0.960 . S
C2168 H2160 0.929 . S
C2168 C2169 1.377 . S
C2168 C2170 1.384 . S
C2169 C2168 1.377 . S
C2169 C2175 1.390 . S
C2170 H2161 0.930 . S
C2170 C2168 1.384 . S
C2170 C2171 1.372 . S
C2171 C2170 1.372 . S
C2171 C2172 1.400 . S
C2171 C2176 1.490 . S
C2172 H2162 0.930 . S
C2172 C2171 1.400 . S
C2172 C2175 1.386 . S
H2173 C2189 0.930 . S
H2174 C2190 0.931 . S
C2175 H2163 0.929 . S
C2175 C2169 1.390 . S
C2175 C2172 1.386 . S
C2176 C2171 1.490 . S
C2176 C2178 1.395 . S
C2176 C2179 1.403 . S
H2177 C2183 0.930 . S
C2178 H2164 0.930 . S
C2178 C2176 1.395 . S
C2178 C2181 1.403 . S
C2179 C2176 1.403 . S
C2179 C2180 1.524 . S
C2179 C2183 1.400 . S
C2180 H2165 0.960 . S
C2180 H2166 0.960 . S
C2180 H2167 0.960 . S
C2180 C2179 1.524 . S
C2181 C2178 1.403 . S
C2181 C2182 1.392 . S
C2181 C2185 1.495 . S
C2182 C2181 1.392 . S
C2182 C2183 1.385 . S
C2182 C2184 1.478 . S
C2183 H2177 0.930 . S
C2183 C2179 1.400 . S
C2183 C2182 1.385 . S
C2184 C2182 1.478 . S
C2184 C2186 1.381 . S
C2184 C2190 1.383 . S
C2185 C2181 1.495 . S
C2185 H2191 0.959 . S
C2185 H2192 0.961 . S
C2185 H2193 0.960 . S
C2186 C2184 1.381 . S
C2186 C2187 1.394 . S
C2186 H2194 0.930 . S
C2187 C2186 1.394 . S
C2187 C2188 1.383 . S
C2187 H2195 0.929 . S
C2188 C2187 1.383 . S
C2188 C2189 1.377 . S
C2189 H2173 0.930 . S
C2189 C2188 1.377 . S
C2189 C2190 1.379 . S
C2190 H2174 0.931 . S
C2190 C2184 1.383 . S
C2190 C2189 1.379 . S
H2191 C2185 0.959 . S
H2192 C2185 0.961 . S
H2193 C2185 0.960 . S
H2194 C2186 0.930 . S
H2195 C2187 0.929 . S
H2196 C2204 0.929 . S
H2197 C2206 0.930 . S
H2198 C2208 0.930 . S
H2199 C2211 0.929 . S
H2200 C2214 0.930 . S
H2201 C2216 0.960 . S
H2202 C2216 0.960 . S
H2203 C2216 0.960 . S
C2204 H2196 0.929 . S
C2204 C2205 1.377 . S
C2204 C2206 1.384 . S
C2205 C2204 1.377 . S
C2205 C2211 1.390 . S
C2206 H2197 0.930 . S
C2206 C2204 1.384 . S
C2206 C2207 1.372 . S
C2207 C2206 1.372 . S
C2207 C2208 1.400 . S
C2207 C2212 1.490 . S
C2208 H2198 0.930 . S
C2208 C2207 1.400 . S
C2208 C2211 1.386 . S
H2209 C2225 0.930 . S
H2210 C2226 0.931 . S
C2211 H2199 0.929 . S
C2211 C2205 1.390 . S
C2211 C2208 1.386 . S
C2212 C2207 1.490 . S
C2212 C2214 1.395 . S
C2212 C2215 1.403 . S
H2213 C2219 0.930 . S
C2214 H2200 0.930 . S
C2214 C2212 1.395 . S
C2214 C2217 1.403 . S
C2215 C2212 1.403 . S
C2215 C2216 1.524 . S
C2215 C2219 1.400 . S
C2216 H2201 0.960 . S
C2216 H2202 0.960 . S
C2216 H2203 0.960 . S
C2216 C2215 1.524 . S
C2217 C2214 1.403 . S
C2217 C2218 1.392 . S
C2217 C2221 1.495 . S
C2218 C2217 1.392 . S
C2218 C2219 1.385 . S
C2218 C2220 1.478 . S
C2219 H2213 0.930 . S
C2219 C2215 1.400 . S
C2219 C2218 1.385 . S
C2220 C2218 1.478 . S
C2220 C2222 1.381 . S
C2220 C2226 1.383 . S
C2221 C2217 1.495 . S
C2221 H2227 0.959 . S
C2221 H2228 0.961 . S
C2221 H2229 0.960 . S
C2222 C2220 1.381 . S
C2222 C2223 1.394 . S
C2222 H2230 0.930 . S
C2223 C2222 1.394 . S
C2223 C2224 1.383 . S
C2223 H2231 0.929 . S
C2224 C2223 1.383 . S
C2224 C2225 1.377 . S
C2225 H2209 0.930 . S
C2225 C2224 1.377 . S
C2225 C2226 1.379 . S
C2226 H2210 0.931 . S
C2226 C2220 1.383 . S
C2226 C2225 1.379 . S
H2227 C2221 0.959 . S
H2228 C2221 0.961 . S
H2229 C2221 0.960 . S
H2230 C2222 0.930 . S
H2231 C2223 0.929 . S
H2232 C2240 0.929 . S
H2233 C2242 0.930 . S
H2234 C2244 0.930 . S
H2235 C2247 0.929 . S
H2236 C2250 0.930 . S
H2237 C2252 0.960 . S
H2238 C2252 0.960 . S
H2239 C2252 0.960 . S
C2240 H2232 0.929 . S
C2240 C2241 1.377 . S
C2240 C2242 1.384 . S
C2241 C2240 1.377 . S
C2241 C2247 1.390 . S
C2242 H2233 0.930 . S
C2242 C2240 1.384 . S
C2242 C2243 1.372 . S
C2243 C2242 1.372 . S
C2243 C2244 1.400 . S
C2243 C2248 1.490 . S
C2244 H2234 0.930 . S
C2244 C2243 1.400 . S
C2244 C2247 1.386 . S
H2245 C2261 0.930 . S
H2246 C2262 0.931 . S
C2247 H2235 0.929 . S
C2247 C2241 1.390 . S
C2247 C2244 1.386 . S
C2248 C2243 1.490 . S
C2248 C2250 1.395 . S
C2248 C2251 1.403 . S
H2249 C2255 0.930 . S
C2250 H2236 0.930 . S
C2250 C2248 1.395 . S
C2250 C2253 1.403 . S
C2251 C2248 1.403 . S
C2251 C2252 1.524 . S
C2251 C2255 1.400 . S
C2252 H2237 0.960 . S
C2252 H2238 0.960 . S
C2252 H2239 0.960 . S
C2252 C2251 1.524 . S
C2253 C2250 1.403 . S
C2253 C2254 1.392 . S
C2253 C2257 1.495 . S
C2254 C2253 1.392 . S
C2254 C2255 1.385 . S
C2254 C2256 1.478 . S
C2255 H2249 0.930 . S
C2255 C2251 1.400 . S
C2255 C2254 1.385 . S
C2256 C2254 1.478 . S
C2256 C2258 1.381 . S
C2256 C2262 1.383 . S
C2257 C2253 1.495 . S
C2257 H2263 0.959 . S
C2257 H2264 0.961 . S
C2257 H2265 0.960 . S
C2258 C2256 1.381 . S
C2258 C2259 1.394 . S
C2258 H2266 0.930 . S
C2259 C2258 1.394 . S
C2259 C2260 1.383 . S
C2259 H2267 0.929 . S
C2260 C2259 1.383 . S
C2260 C2261 1.377 . S
C2261 H2245 0.930 . S
C2261 C2260 1.377 . S
C2261 C2262 1.379 . S
C2262 H2246 0.931 . S
C2262 C2256 1.383 . S
C2262 C2261 1.379 . S
H2263 C2257 0.959 . S
H2264 C2257 0.961 . S
H2265 C2257 0.960 . S
H2266 C2258 0.930 . S
H2267 C2259 0.929 . S
H2268 C2276 0.929 . S
H2269 C2278 0.930 . S
H2270 C2280 0.930 . S
H2271 C2283 0.929 . S
H2272 C2286 0.930 . S
H2273 C2288 0.960 . S
H2274 C2288 0.960 . S
H2275 C2288 0.960 . S
C2276 H2268 0.929 . S
C2276 C2277 1.377 . S
C2276 C2278 1.384 . S
C2277 C2276 1.377 . S
C2277 C2283 1.390 . S
C2278 H2269 0.930 . S
C2278 C2276 1.384 . S
C2278 C2279 1.372 . S
C2279 C2278 1.372 . S
C2279 C2280 1.400 . S
C2279 C2284 1.490 . S
C2280 H2270 0.930 . S
C2280 C2279 1.400 . S
C2280 C2283 1.386 . S
H2281 C2297 0.930 . S
H2282 C2298 0.931 . S
C2283 H2271 0.929 . S
C2283 C2277 1.390 . S
C2283 C2280 1.386 . S
C2284 C2279 1.490 . S
C2284 C2286 1.395 . S
C2284 C2287 1.403 . S
H2285 C2291 0.930 . S
C2286 H2272 0.930 . S
C2286 C2284 1.395 . S
C2286 C2289 1.403 . S
C2287 C2284 1.403 . S
C2287 C2288 1.524 . S
C2287 C2291 1.400 . S
C2288 H2273 0.960 . S
C2288 H2274 0.960 . S
C2288 H2275 0.960 . S
C2288 C2287 1.524 . S
C2289 C2286 1.403 . S
C2289 C2290 1.392 . S
C2289 C2293 1.495 . S
C2290 C2289 1.392 . S
C2290 C2291 1.385 . S
C2290 C2292 1.478 . S
C2291 H2285 0.930 . S
C2291 C2287 1.400 . S
C2291 C2290 1.385 . S
C2292 C2290 1.478 . S
C2292 C2294 1.381 . S
C2292 C2298 1.383 . S
C2293 C2289 1.495 . S
C2293 H2299 0.959 . S
C2293 H2300 0.961 . S
C2293 H2301 0.960 . S
C2294 C2292 1.381 . S
C2294 C2295 1.394 . S
C2294 H2302 0.930 . S
C2295 C2294 1.394 . S
C2295 C2296 1.383 . S
C2295 H2303 0.929 . S
C2296 C2295 1.383 . S
C2296 C2297 1.377 . S
C2297 H2281 0.930 . S
C2297 C2296 1.377 . S
C2297 C2298 1.379 . S
C2298 H2282 0.931 . S
C2298 C2292 1.383 . S
C2298 C2297 1.379 . S
H2299 C2293 0.959 . S
H2300 C2293 0.961 . S
H2301 C2293 0.960 . S
H2302 C2294 0.930 . S
H2303 C2295 0.929 . S
H2304 C2312 0.929 . S
H2305 C2314 0.930 . S
H2306 C2316 0.930 . S
H2307 C2319 0.929 . S
H2308 C2322 0.930 . S
H2309 C2324 0.960 . S
H2310 C2324 0.960 . S
H2311 C2324 0.960 . S
C2312 H2304 0.929 . S
C2312 C2313 1.377 . S
C2312 C2314 1.384 . S
C2313 C2312 1.377 . S
C2313 C2319 1.390 . S
C2314 H2305 0.930 . S
C2314 C2312 1.384 . S
C2314 C2315 1.372 . S
C2315 C2314 1.372 . S
C2315 C2316 1.400 . S
C2315 C2320 1.490 . S
C2316 H2306 0.930 . S
C2316 C2315 1.400 . S
C2316 C2319 1.386 . S
H2317 C2333 0.930 . S
H2318 C2334 0.931 . S
C2319 H2307 0.929 . S
C2319 C2313 1.390 . S
C2319 C2316 1.386 . S
C2320 C2315 1.490 . S
C2320 C2322 1.395 . S
C2320 C2323 1.403 . S
H2321 C2327 0.930 . S
C2322 H2308 0.930 . S
C2322 C2320 1.395 . S
C2322 C2325 1.403 . S
C2323 C2320 1.403 . S
C2323 C2324 1.524 . S
C2323 C2327 1.400 . S
C2324 H2309 0.960 . S
C2324 H2310 0.960 . S
C2324 H2311 0.960 . S
C2324 C2323 1.524 . S
C2325 C2322 1.403 . S
C2325 C2326 1.392 . S
C2325 C2329 1.495 . S
C2326 C2325 1.392 . S
C2326 C2327 1.385 . S
C2326 C2328 1.478 . S
C2327 H2321 0.930 . S
C2327 C2323 1.400 . S
C2327 C2326 1.385 . S
C2328 C2326 1.478 . S
C2328 C2330 1.381 . S
C2328 C2334 1.383 . S
C2329 C2325 1.495 . S
C2329 H2335 0.959 . S
C2329 H2336 0.961 . S
C2329 H2337 0.960 . S
C2330 C2328 1.381 . S
C2330 C2331 1.394 . S
C2330 H2338 0.930 . S
C2331 C2330 1.394 . S
C2331 C2332 1.383 . S
C2331 H2339 0.929 . S
C2332 C2331 1.383 . S
C2332 C2333 1.377 . S
C2333 H2317 0.930 . S
C2333 C2332 1.377 . S
C2333 C2334 1.379 . S
C2334 H2318 0.931 . S
C2334 C2328 1.383 . S
C2334 C2333 1.379 . S
H2335 C2329 0.959 . S
H2336 C2329 0.961 . S
H2337 C2329 0.960 . S
H2338 C2330 0.930 . S
H2339 C2331 0.929 . S
H2340 C2348 0.929 . S
H2341 C2350 0.930 . S
H2342 C2352 0.930 . S
H2343 C2355 0.929 . S
H2344 C2358 0.930 . S
H2345 C2360 0.960 . S
H2346 C2360 0.960 . S
H2347 C2360 0.960 . S
C2348 H2340 0.929 . S
C2348 C2349 1.377 . S
C2348 C2350 1.384 . S
C2349 C2348 1.377 . S
C2349 C2355 1.390 . S
C2350 H2341 0.930 . S
C2350 C2348 1.384 . S
C2350 C2351 1.372 . S
C2351 C2350 1.372 . S
C2351 C2352 1.400 . S
C2351 C2356 1.490 . S
C2352 H2342 0.930 . S
C2352 C2351 1.400 . S
C2352 C2355 1.386 . S
H2353 C2369 0.930 . S
H2354 C2370 0.931 . S
C2355 H2343 0.929 . S
C2355 C2349 1.390 . S
C2355 C2352 1.386 . S
C2356 C2351 1.490 . S
C2356 C2358 1.395 . S
C2356 C2359 1.403 . S
H2357 C2363 0.930 . S
C2358 H2344 0.930 . S
C2358 C2356 1.395 . S
C2358 C2361 1.403 . S
C2359 C2356 1.403 . S
C2359 C2360 1.524 . S
C2359 C2363 1.400 . S
C2360 H2345 0.960 . S
C2360 H2346 0.960 . S
C2360 H2347 0.960 . S
C2360 C2359 1.524 . S
C2361 C2358 1.403 . S
C2361 C2362 1.392 . S
C2361 C2365 1.495 . S
C2362 C2361 1.392 . S
C2362 C2363 1.385 . S
C2362 C2364 1.478 . S
C2363 H2357 0.930 . S
C2363 C2359 1.400 . S
C2363 C2362 1.385 . S
C2364 C2362 1.478 . S
C2364 C2366 1.381 . S
C2364 C2370 1.383 . S
C2365 C2361 1.495 . S
C2365 H2371 0.959 . S
C2365 H2372 0.961 . S
C2365 H2373 0.960 . S
C2366 C2364 1.381 . S
C2366 C2367 1.394 . S
C2366 H2374 0.930 . S
C2367 C2366 1.394 . S
C2367 C2368 1.383 . S
C2367 H2375 0.929 . S
C2368 C2367 1.383 . S
C2368 C2369 1.377 . S
C2369 H2353 0.930 . S
C2369 C2368 1.377 . S
C2369 C2370 1.379 . S
C2370 H2354 0.931 . S
C2370 C2364 1.383 . S
C2370 C2369 1.379 . S
H2371 C2365 0.959 . S
H2372 C2365 0.961 . S
H2373 C2365 0.960 . S
H2374 C2366 0.930 . S
H2375 C2367 0.929 . S
H2376 C2384 0.929 . S
H2377 C2386 0.930 . S
H2378 C2388 0.930 . S
H2379 C2391 0.929 . S
H2380 C2394 0.930 . S
H2381 C2396 0.960 . S
H2382 C2396 0.960 . S
H2383 C2396 0.960 . S
C2384 H2376 0.929 . S
C2384 C2385 1.377 . S
C2384 C2386 1.384 . S
C2385 C2384 1.377 . S
C2385 C2391 1.390 . S
C2386 H2377 0.930 . S
C2386 C2384 1.384 . S
C2386 C2387 1.372 . S
C2387 C2386 1.372 . S
C2387 C2388 1.400 . S
C2387 C2392 1.490 . S
C2388 H2378 0.930 . S
C2388 C2387 1.400 . S
C2388 C2391 1.386 . S
H2389 C2405 0.930 . S
H2390 C2406 0.931 . S
C2391 H2379 0.929 . S
C2391 C2385 1.390 . S
C2391 C2388 1.386 . S
C2392 C2387 1.490 . S
C2392 C2394 1.395 . S
C2392 C2395 1.403 . S
H2393 C2399 0.930 . S
C2394 H2380 0.930 . S
C2394 C2392 1.395 . S
C2394 C2397 1.403 . S
C2395 C2392 1.403 . S
C2395 C2396 1.524 . S
C2395 C2399 1.400 . S
C2396 H2381 0.960 . S
C2396 H2382 0.960 . S
C2396 H2383 0.960 . S
C2396 C2395 1.524 . S
C2397 C2394 1.403 . S
C2397 C2398 1.392 . S
C2397 C2401 1.495 . S
C2398 C2397 1.392 . S
C2398 C2399 1.385 . S
C2398 C2400 1.478 . S
C2399 H2393 0.930 . S
C2399 C2395 1.400 . S
C2399 C2398 1.385 . S
C2400 C2398 1.478 . S
C2400 C2402 1.381 . S
C2400 C2406 1.383 . S
C2401 C2397 1.495 . S
C2401 H2407 0.959 . S
C2401 H2408 0.961 . S
C2401 H2409 0.960 . S
C2402 C2400 1.381 . S
C2402 C2403 1.394 . S
C2402 H2410 0.930 . S
C2403 C2402 1.394 . S
C2403 C2404 1.383 . S
C2403 H2411 0.929 . S
C2404 C2403 1.383 . S
C2404 C2405 1.377 . S
C2405 H2389 0.930 . S
C2405 C2404 1.377 . S
C2405 C2406 1.379 . S
C2406 H2390 0.931 . S
C2406 C2400 1.383 . S
C2406 C2405 1.379 . S
H2407 C2401 0.959 . S
H2408 C2401 0.961 . S
H2409 C2401 0.960 . S
H2410 C2402 0.930 . S
H2411 C2403 0.929 . S
H2412 C2420 0.929 . S
H2413 C2422 0.930 . S
H2414 C2424 0.930 . S
H2415 C2427 0.929 . S
H2416 C2430 0.930 . S
H2417 C2432 0.960 . S
H2418 C2432 0.960 . S
H2419 C2432 0.960 . S
C2420 H2412 0.929 . S
C2420 C2421 1.377 . S
C2420 C2422 1.384 . S
C2421 C2420 1.377 . S
C2421 C2427 1.390 . S
C2422 H2413 0.930 . S
C2422 C2420 1.384 . S
C2422 C2423 1.372 . S
C2423 C2422 1.372 . S
C2423 C2424 1.400 . S
C2423 C2428 1.490 . S
C2424 H2414 0.930 . S
C2424 C2423 1.400 . S
C2424 C2427 1.386 . S
H2425 C2441 0.930 . S
H2426 C2442 0.931 . S
C2427 H2415 0.929 . S
C2427 C2421 1.390 . S
C2427 C2424 1.386 . S
C2428 C2423 1.490 . S
C2428 C2430 1.395 . S
C2428 C2431 1.403 . S
H2429 C2435 0.930 . S
C2430 H2416 0.930 . S
C2430 C2428 1.395 . S
C2430 C2433 1.403 . S
C2431 C2428 1.403 . S
C2431 C2432 1.524 . S
C2431 C2435 1.400 . S
C2432 H2417 0.960 . S
C2432 H2418 0.960 . S
C2432 H2419 0.960 . S
C2432 C2431 1.524 . S
C2433 C2430 1.403 . S
C2433 C2434 1.392 . S
C2433 C2437 1.495 . S
C2434 C2433 1.392 . S
C2434 C2435 1.385 . S
C2434 C2436 1.478 . S
C2435 H2429 0.930 . S
C2435 C2431 1.400 . S
C2435 C2434 1.385 . S
C2436 C2434 1.478 . S
C2436 C2438 1.381 . S
C2436 C2442 1.383 . S
C2437 C2433 1.495 . S
C2437 H2443 0.959 . S
C2437 H2444 0.961 . S
C2437 H2445 0.960 . S
C2438 C2436 1.381 . S
C2438 C2439 1.394 . S
C2438 H2446 0.930 . S
C2439 C2438 1.394 . S
C2439 C2440 1.383 . S
C2439 H2447 0.929 . S
C2440 C2439 1.383 . S
C2440 C2441 1.377 . S
C2441 H2425 0.930 . S
C2441 C2440 1.377 . S
C2441 C2442 1.379 . S
C2442 H2426 0.931 . S
C2442 C2436 1.383 . S
C2442 C2441 1.379 . S
H2443 C2437 0.959 . S
H2444 C2437 0.961 . S
H2445 C2437 0.960 . S
H2446 C2438 0.930 . S
H2447 C2439 0.929 . S
H2448 C2456 0.929 . S
H2449 C2458 0.930 . S
H2450 C2460 0.930 . S
H2451 C2463 0.929 . S
H2452 C2466 0.930 . S
H2453 C2468 0.960 . S
H2454 C2468 0.960 . S
H2455 C2468 0.960 . S
C2456 H2448 0.929 . S
C2456 C2457 1.377 . S
C2456 C2458 1.384 . S
C2457 C2456 1.377 . S
C2457 C2463 1.390 . S
C2458 H2449 0.930 . S
C2458 C2456 1.384 . S
C2458 C2459 1.372 . S
C2459 C2458 1.372 . S
C2459 C2460 1.400 . S
C2459 C2464 1.490 . S
C2460 H2450 0.930 . S
C2460 C2459 1.400 . S
C2460 C2463 1.386 . S
H2461 C2477 0.930 . S
H2462 C2478 0.931 . S
C2463 H2451 0.929 . S
C2463 C2457 1.390 . S
C2463 C2460 1.386 . S
C2464 C2459 1.490 . S
C2464 C2466 1.395 . S
C2464 C2467 1.403 . S
H2465 C2471 0.930 . S
C2466 H2452 0.930 . S
C2466 C2464 1.395 . S
C2466 C2469 1.403 . S
C2467 C2464 1.403 . S
C2467 C2468 1.524 . S
C2467 C2471 1.400 . S
C2468 H2453 0.960 . S
C2468 H2454 0.960 . S
C2468 H2455 0.960 . S
C2468 C2467 1.524 . S
C2469 C2466 1.403 . S
C2469 C2470 1.392 . S
C2469 C2473 1.495 . S
C2470 C2469 1.392 . S
C2470 C2471 1.385 . S
C2470 C2472 1.478 . S
C2471 H2465 0.930 . S
C2471 C2467 1.400 . S
C2471 C2470 1.385 . S
C2472 C2470 1.478 . S
C2472 C2474 1.381 . S
C2472 C2478 1.383 . S
C2473 C2469 1.495 . S
C2473 H2479 0.959 . S
C2473 H2480 0.961 . S
C2473 H2481 0.960 . S
C2474 C2472 1.381 . S
C2474 C2475 1.394 . S
C2474 H2482 0.930 . S
C2475 C2474 1.394 . S
C2475 C2476 1.383 . S
C2475 H2483 0.929 . S
C2476 C2475 1.383 . S
C2476 C2477 1.377 . S
C2477 H2461 0.930 . S
C2477 C2476 1.377 . S
C2477 C2478 1.379 . S
C2478 H2462 0.931 . S
C2478 C2472 1.383 . S
C2478 C2477 1.379 . S
H2479 C2473 0.959 . S
H2480 C2473 0.961 . S
H2481 C2473 0.960 . S
H2482 C2474 0.930 . S
H2483 C2475 0.929 . S
H2484 C2492 0.929 . S
H2485 C2494 0.930 . S
H2486 C2496 0.930 . S
H2487 C2499 0.929 . S
H2488 C2502 0.930 . S
H2489 C2504 0.960 . S
H2490 C2504 0.960 . S
H2491 C2504 0.960 . S
C2492 H2484 0.929 . S
C2492 C2493 1.377 . S
C2492 C2494 1.384 . S
C2493 C2492 1.377 . S
C2493 C2499 1.390 . S
C2494 H2485 0.930 . S
C2494 C2492 1.384 . S
C2494 C2495 1.372 . S
C2495 C2494 1.372 . S
C2495 C2496 1.400 . S
C2495 C2500 1.490 . S
C2496 H2486 0.930 . S
C2496 C2495 1.400 . S
C2496 C2499 1.386 . S
H2497 C2513 0.930 . S
H2498 C2514 0.931 . S
C2499 H2487 0.929 . S
C2499 C2493 1.390 . S
C2499 C2496 1.386 . S
C2500 C2495 1.490 . S
C2500 C2502 1.395 . S
C2500 C2503 1.403 . S
H2501 C2507 0.930 . S
C2502 H2488 0.930 . S
C2502 C2500 1.395 . S
C2502 C2505 1.403 . S
C2503 C2500 1.403 . S
C2503 C2504 1.524 . S
C2503 C2507 1.400 . S
C2504 H2489 0.960 . S
C2504 H2490 0.960 . S
C2504 H2491 0.960 . S
C2504 C2503 1.524 . S
C2505 C2502 1.403 . S
C2505 C2506 1.392 . S
C2505 C2509 1.495 . S
C2506 C2505 1.392 . S
C2506 C2507 1.385 . S
C2506 C2508 1.478 . S
C2507 H2501 0.930 . S
C2507 C2503 1.400 . S
C2507 C2506 1.385 . S
C2508 C2506 1.478 . S
C2508 C2510 1.381 . S
C2508 C2514 1.383 . S
C2509 C2505 1.495 . S
C2509 H2515 0.959 . S
C2509 H2516 0.961 . S
C2509 H2517 0.960 . S
C2510 C2508 1.381 . S
C2510 C2511 1.394 . S
C2510 H2518 0.930 . S
C2511 C2510 1.394 . S
C2511 C2512 1.383 . S
C2511 H2519 0.929 . S
C2512 C2511 1.383 . S
C2512 C2513 1.377 . S
C2513 H2497 0.930 . S
C2513 C2512 1.377 . S
C2513 C2514 1.379 . S
C2514 H2498 0.931 . S
C2514 C2508 1.383 . S
C2514 C2513 1.379 . S
H2515 C2509 0.959 . S
H2516 C2509 0.961 . S
H2517 C2509 0.960 . S
H2518 C2510 0.930 . S
H2519 C2511 0.929 . S
H2520 C2528 0.929 . S
H2521 C2530 0.930 . S
H2522 C2532 0.930 . S
H2523 C2535 0.929 . S
H2524 C2538 0.930 . S
H2525 C2540 0.960 . S
H2526 C2540 0.960 . S
H2527 C2540 0.960 . S
C2528 H2520 0.929 . S
C2528 C2529 1.377 . S
C2528 C2530 1.384 . S
C2529 C2528 1.377 . S
C2529 C2535 1.390 . S
C2530 H2521 0.930 . S
C2530 C2528 1.384 . S
C2530 C2531 1.372 . S
C2531 C2530 1.372 . S
C2531 C2532 1.400 . S
C2531 C2536 1.490 . S
C2532 H2522 0.930 . S
C2532 C2531 1.400 . S
C2532 C2535 1.386 . S
H2533 C2549 0.930 . S
H2534 C2550 0.931 . S
C2535 H2523 0.929 . S
C2535 C2529 1.390 . S
C2535 C2532 1.386 . S
C2536 C2531 1.490 . S
C2536 C2538 1.395 . S
C2536 C2539 1.403 . S
H2537 C2543 0.930 . S
C2538 H2524 0.930 . S
C2538 C2536 1.395 . S
C2538 C2541 1.403 . S
C2539 C2536 1.403 . S
C2539 C2540 1.524 . S
C2539 C2543 1.400 . S
C2540 H2525 0.960 . S
C2540 H2526 0.960 . S
C2540 H2527 0.960 . S
C2540 C2539 1.524 . S
C2541 C2538 1.403 . S
C2541 C2542 1.392 . S
C2541 C2545 1.495 . S
C2542 C2541 1.392 . S
C2542 C2543 1.385 . S
C2542 C2544 1.478 . S
C2543 H2537 0.930 . S
C2543 C2539 1.400 . S
C2543 C2542 1.385 . S
C2544 C2542 1.478 . S
C2544 C2546 1.381 . S
C2544 C2550 1.383 . S
C2545 C2541 1.495 . S
C2545 H2551 0.959 . S
C2545 H2552 0.961 . S
C2545 H2553 0.960 . S
C2546 C2544 1.381 . S
C2546 C2547 1.394 . S
C2546 H2554 0.930 . S
C2547 C2546 1.394 . S
C2547 C2548 1.383 . S
C2547 H2555 0.929 . S
C2548 C2547 1.383 . S
C2548 C2549 1.377 . S
C2549 H2533 0.930 . S
C2549 C2548 1.377 . S
C2549 C2550 1.379 . S
C2550 H2534 0.931 . S
C2550 C2544 1.383 . S
C2550 C2549 1.379 . S
H2551 C2545 0.959 . S
H2552 C2545 0.961 . S
H2553 C2545 0.960 . S
H2554 C2546 0.930 . S
H2555 C2547 0.929 . S
H2556 C2564 0.929 . S
H2557 C2566 0.930 . S
H2558 C2568 0.930 . S
H2559 C2571 0.929 . S
H2560 C2574 0.930 . S
H2561 C2576 0.960 . S
H2562 C2576 0.960 . S
H2563 C2576 0.960 . S
C2564 H2556 0.929 . S
C2564 C2565 1.377 . S
C2564 C2566 1.384 . S
C2565 C2564 1.377 . S
C2565 C2571 1.390 . S
C2566 H2557 0.930 . S
C2566 C2564 1.384 . S
C2566 C2567 1.372 . S
C2567 C2566 1.372 . S
C2567 C2568 1.400 . S
C2567 C2572 1.490 . S
C2568 H2558 0.930 . S
C2568 C2567 1.400 . S
C2568 C2571 1.386 . S
H2569 C2585 0.930 . S
H2570 C2586 0.931 . S
C2571 H2559 0.929 . S
C2571 C2565 1.390 . S
C2571 C2568 1.386 . S
C2572 C2567 1.490 . S
C2572 C2574 1.395 . S
C2572 C2575 1.403 . S
H2573 C2579 0.930 . S
C2574 H2560 0.930 . S
C2574 C2572 1.395 . S
C2574 C2577 1.403 . S
C2575 C2572 1.403 . S
C2575 C2576 1.524 . S
C2575 C2579 1.400 . S
C2576 H2561 0.960 . S
C2576 H2562 0.960 . S
C2576 H2563 0.960 . S
C2576 C2575 1.524 . S
C2577 C2574 1.403 . S
C2577 C2578 1.392 . S
C2577 C2581 1.495 . S
C2578 C2577 1.392 . S
C2578 C2579 1.385 . S
C2578 C2580 1.478 . S
C2579 H2573 0.930 . S
C2579 C2575 1.400 . S
C2579 C2578 1.385 . S
C2580 C2578 1.478 . S
C2580 C2582 1.381 . S
C2580 C2586 1.383 . S
C2581 C2577 1.495 . S
C2581 H2587 0.959 . S
C2581 H2588 0.961 . S
C2581 H2589 0.960 . S
C2582 C2580 1.381 . S
C2582 C2583 1.394 . S
C2582 H2590 0.930 . S
C2583 C2582 1.394 . S
C2583 C2584 1.383 . S
C2583 H2591 0.929 . S
C2584 C2583 1.383 . S
C2584 C2585 1.377 . S
C2585 H2569 0.930 . S
C2585 C2584 1.377 . S
C2585 C2586 1.379 . S
C2586 H2570 0.931 . S
C2586 C2580 1.383 . S
C2586 C2585 1.379 . S
H2587 C2581 0.959 . S
H2588 C2581 0.961 . S
H2589 C2581 0.960 . S
H2590 C2582 0.930 . S
H2591 C2583 0.929 . S
C892 C689 1.575 . S
C873 C74 1.583 . S
C928 C694 1.292 . S
C909 C153 1.232 . S
C964 C695 1.537 . S
C945 C231 1.532 . S
C981 C310 0.779 . S
C1000 C699 0.500 . S
C1017 C394 1.225 . S
C1036 C702 1.281 . S
C1072 C703 1.544 . S
C1053 C494 1.524 . S
C1089 C573 0.808 . S
C1108 C680 0.614 . S
C1125 C651 1.585 . S
C1144 C696 1.610 . S
C1180 C734 2.321 . S
C1161 C56 2.418 . S
C1197 C151 1.524 . S
C1216 C760 1.466 . S
C1252 C712 1.316 . S
C1233 C237 1.239 . S
C1288 C767 1.487 . S
C1269 C326 1.484 . S
C1305 C410 1.511 . S
C1324 C721 1.502 . S
C1360 C763 2.330 . S
C1341 C476 2.405 . S
C1377 C571 1.543 . S
C1396 C727 1.491 . S
C1413 C657 1.217 . S
C1432 C758 1.274 . S
C1449 C58 1.228 . S
C1468 C766 1.286 . S
C1485 C392 1.522 . S
C1504 C753 1.482 . S
C1540 C731 1.318 . S
C1521 C478 1.228 . S
C1576 C759 1.474 . S
C1557 C567 1.492 . S
C1593 C655 2.421 . S
C1612 C726 2.319 . S
C1629 C235 2.405 . S
C1648 C744 2.311 . S
C1684 C735 1.524 . S
C1665 C308 1.541 . S
C1701 C147 1.517 . S
C1720 C728 1.486 . S
C1737 C662 1.548 . S
C1756 C790 1.546 . S
C1773 C405 1.202 . S
C1792 C785 1.259 . S
C1828 C799 1.454 . S
C1809 C483 1.506 . S
C1864 C776 0.369 . S
C1845 C562 0.814 . S
C1881 C142 1.205 . S
C1900 C792 1.299 . S
C1936 C791 1.438 . S
C1917 C242 1.497 . S
C1953 C321 0.802 . S
C1972 C795 0.356 . S
C1989 C63 1.551 . S
C2008 C798 1.508 . S
C2025 C644 2.428 . S
C2044 C824 2.388 . S
C2080 C840 1.457 . S
C2061 C403 1.539 . S
C2097 C489 1.228 . S
C2116 C822 1.320 . S
C2133 C578 1.514 . S
C2152 C855 1.492 . S
C2188 C831 1.491 . S
C2169 C158 1.497 . S
C2205 C224 2.442 . S
C2224 C849 2.356 . S
C2260 C827 1.436 . S
C2241 C319 1.524 . S
C2296 C862 1.338 . S
C2277 C69 1.241 . S
C2332 C854 1.285 . S
C2313 C646 1.249 . S
C2349 C140 1.539 . S
C2368 C859 1.485 . S
C2385 C226 1.235 . S
C2404 C830 1.301 . S
C2440 C863 1.483 . S
C2421 C315 1.515 . S
C2457 C67 2.428 . S
C2476 C817 2.357 . S
C2493 C487 2.443 . S
C2512 C856 2.352 . S
C2548 C808 1.473 . S
C2529 C560 1.528 . S
C2584 C823 1.480 . S
C2565 C399 1.494 . S
