# Generated by pormake.
# Topology rtl, (3,6)-cn, num edge types: 1
# Building blocks:
#     Node 0, Type 0, BuildingBlock: OLANEW_clean_sbu_2, # of connection points: 3
#     Node 1, Type 0, BuildingBlock: OLANEW_clean_sbu_2, # of connection points: 3
#     Node 2, Type 0, BuildingBlock: OLANEW_clean_sbu_2, # of connection points: 3
#     Node 3, Type 0, BuildingBlock: OLANEW_clean_sbu_2, # of connection points: 3
#     Node 4, Type 1, BuildingBlock: CIFDUS_clean_sbu_1, # of connection points: 6
#     Node 5, Type 1, BuildingBlock: CIFDUS_clean_sbu_1, # of connection points: 6
#     Edge 6, Type (0, 1), BuildingBlock: UVAHIK_clean_linker_0, # of connection points: 2
#     Edge 7, Type (0, 1), BuildingBlock: UVAHIK_clean_linker_0, # of connection points: 2
#     Edge 8, Type (0, 1), BuildingBlock: UVAHIK_clean_linker_0, # of connection points: 2
#     Edge 9, Type (0, 1), BuildingBlock: UVAHIK_clean_linker_0, # of connection points: 2
#     Edge 10, Type (0, 1), BuildingBlock: UVAHIK_clean_linker_0, # of connection points: 2
#     Edge 11, Type (0, 1), BuildingBlock: UVAHIK_clean_linker_0, # of connection points: 2
#     Edge 12, Type (0, 1), BuildingBlock: UVAHIK_clean_linker_0, # of connection points: 2
#     Edge 13, Type (0, 1), BuildingBlock: UVAHIK_clean_linker_0, # of connection points: 2
#     Edge 14, Type (0, 1), BuildingBlock: UVAHIK_clean_linker_0, # of connection points: 2
#     Edge 15, Type (0, 1), BuildingBlock: UVAHIK_clean_linker_0, # of connection points: 2
#     Edge 16, Type (0, 1), BuildingBlock: UVAHIK_clean_linker_0, # of connection points: 2
#     Edge 17, Type (0, 1), BuildingBlock: UVAHIK_clean_linker_0, # of connection points: 2
# Relax obj value: 0.015
# Max RMSD: 0.122
# Mean RMSD: 0.078
data_MOF--net-rtl--node1-OLANEW_clean_sbu_2--node2-CIFDUS_clean_sbu_1--edge1-UVAHIK_clean_linker_0
_symmetry_space_group_name_H-M    P1
_symmetry_Int_Tables_number       1
_symmetry_cell_setting            triclinic
loop_
_symmetry_equiv_pos_as_xyz
'x, y, z'
_cell_length_a     47.499622
_cell_length_b     47.953836
_cell_length_c     30.707999
_cell_angle_alpha  87.665544
_cell_angle_beta   100.48666
_cell_angle_gamma 89.941938
loop_
_atom_site_label
_atom_site_type_symbol
_atom_site_fract_x
_atom_site_fract_y
_atom_site_fract_z
_atom_type_partial_charge
O0 O 0.19635 0.82135 0.02068 0.0
Cd1 Cd 0.22041 0.8016 0.09321 0.0
O2 O 0.18336 0.85894 0.05129 0.0
Cd3 Cd 0.2016 0.85045 0.12126 0.0
O4 O 0.19906 0.8621 0.18875 0.0
C5 C 0.19927 0.88801 0.19625 0.0
O6 O 0.20297 0.90602 0.1644 0.0
C7 C 0.18347 0.84487 0.01706 0.0
C8 C 0.2627 0.76106 0.09109 0.0
O9 O 0.23628 0.75435 0.08742 0.0
O10 O 0.26905 0.78694 0.09488 0.0
O11 O 0.70945 0.70841 0.67803 0.0
Cd12 Cd 0.72008 0.7378 0.6155 0.0
O13 O 0.68577 0.67737 0.63456 0.0
Cd14 Cd 0.68642 0.695 0.56773 0.0
O15 O 0.67036 0.68685 0.4976 0.0
C16 C 0.66426 0.66137 0.49096 0.0
O17 O 0.6687 0.64344 0.5251 0.0
C18 C 0.69556 0.68568 0.67321 0.0
C19 C 0.76263 0.7784 0.63614 0.0
O20 O 0.73625 0.78397 0.63633 0.0
O21 O 0.76899 0.75351 0.62736 0.0
O22 O 0.80405 0.21338 0.07905 0.0
Cd23 Cd 0.78163 0.22674 0.00214 0.0
O24 O 0.84603 0.20793 0.05948 0.0
Cd25 Cd 0.83009 0.21048 0.98796 0.0
O26 O 0.82715 0.19539 0.92094 0.0
C27 C 0.82596 0.16912 0.91659 0.0
O28 O 0.82509 0.15279 0.95174 0.0
C29 C 0.83079 0.20821 0.0895 0.0
C30 C 0.7428 0.27175 0.99033 0.0
O31 O 0.73436 0.24655 0.99448 0.0
O32 O 0.76971 0.2758 0.99285 0.0
O33 O 0.29796 0.33559 0.54763 0.0
Cd34 Cd 0.27587 0.31529 0.47703 0.0
O35 O 0.30434 0.37557 0.51285 0.0
Cd36 Cd 0.28723 0.36619 0.444 0.0
O37 O 0.28854 0.37764 0.37453 0.0
C38 C 0.29112 0.40349 0.36514 0.0
O39 O 0.29121 0.42134 0.39652 0.0
C40 C 0.30698 0.36061 0.5486 0.0
C41 C 0.23522 0.27307 0.48002 0.0
O42 O 0.26206 0.26732 0.48627 0.0
O43 O 0.22764 0.2988 0.47364 0.0
O44 O 0.98119 0.04465 0.49541 0.0
Mn45 Mn -0.00034 0.02003 0.55155 0.0
O46 O 0.95605 0.01575 0.44709 0.0
Mn47 Mn 0.97238 0.98301 0.47479 0.0
O48 O 0.01808 0.9957 0.60795 0.0
O49 O 0.02547 0.05204 0.57168 0.0
Mn50 Mn 0.02416 0.05852 0.62737 0.0
O51 O 0.96741 0.03465 0.58374 0.0
O52 O 0.03664 0.02592 0.6597 0.0
O53 O 0.03143 0.00522 0.51879 0.0
O54 O 0.00969 0.97515 0.46897 0.0
O55 O 0.04969 0.08387 0.61036 0.0
O56 O 0.98673 0.06888 0.62733 0.0
C57 C 0.95761 0.96659 0.53269 0.0
C58 C 0.96345 0.04018 0.45942 0.0
C59 C 0.03175 0.00111 0.64685 0.0
C60 C 0.04359 0.07216 0.57264 0.0
C61 C 0.96532 0.05494 0.6091 0.0
C62 C 0.03199 0.98711 0.48917 0.0
O63 O 0.97418 0.9878 0.53177 0.0
O64 O 0.95017 0.95536 0.49479 0.0
O65 O 0.51651 0.53497 0.06558 0.0
Mn66 Mn 0.49765 0.51758 0.00567 0.0
O67 O 0.52773 0.49867 0.11466 0.0
Mn68 Mn 0.51164 0.47069 0.07829 0.0
O69 O 0.47864 0.49982 0.94616 0.0
O70 O 0.47792 0.55398 0.98602 0.0
Mn71 Mn 0.48103 0.56366 0.9312 0.0
O72 O 0.53368 0.52998 0.97877 0.0
O73 O 0.46357 0.53524 0.89703 0.0
O74 O 0.4613 0.50587 0.03222 0.0
O75 O 0.47265 0.4661 0.07294 0.0
O76 O 0.45972 0.59151 0.9505 0.0
O77 O 0.51993 0.56746 0.93287 0.0
C78 C 0.53257 0.45838 0.026 0.0
C79 C 0.52753 0.52479 0.10445 0.0
C80 C 0.46559 0.50922 0.9079 0.0
C81 C 0.46308 0.57634 0.98687 0.0
C82 C 0.53901 0.55046 0.95309 0.0
C83 C 0.4545 0.48445 0.05455 0.0
O84 O 0.51752 0.48091 0.02498 0.0
O85 O 0.53397 0.44293 0.06188 0.0
C86 C 0.18424 0.2568 0.46621 0.0
C87 C 0.21359 0.25063 0.47909 0.0
C88 C 0.16385 0.23564 0.46461 0.0
C89 C 0.15546 0.15809 0.46437 0.0
H90 H 0.08598 0.17457 0.50808 0.0
C91 C 0.08621 0.07634 0.53772 0.0
C92 C 0.05706 0.0822 0.53564 0.0
C93 C 0.10322 0.09454 0.51709 0.0
C94 C 0.10491 0.16966 0.49476 0.0
H95 H 0.24449 0.21726 0.50026 0.0
H96 H 0.20896 0.1805 0.49874 0.0
H97 H 0.12005 0.21145 0.50173 0.0
H98 H 0.0222 0.11025 0.50781 0.0
H99 H 0.05159 0.14171 0.47048 0.0
H100 H 0.14063 0.11587 0.45931 0.0
C101 C 0.20165 0.2016 0.48887 0.0
C102 C 0.12459 0.19091 0.49122 0.0
C103 C 0.22206 0.22275 0.49017 0.0
C104 C 0.04452 0.10496 0.50897 0.0
C105 C 0.06149 0.12323 0.48835 0.0
C106 C 0.13578 0.13674 0.46814 0.0
C107 C 0.17223 0.20774 0.47617 0.0
C108 C 0.15038 0.18537 0.47666 0.0
C109 C 0.09134 0.11913 0.49444 0.0
C110 C 0.11044 0.14219 0.48402 0.0
H111 H 0.17697 0.278 0.45702 0.0
H112 H 0.14148 0.24117 0.45401 0.0
H113 H 0.17481 0.15311 0.45222 0.0
H114 H 0.09645 0.05928 0.55906 0.0
H115 H 0.12609 0.09073 0.52268 0.0
C116 C 0.31435 0.74667 0.10141 0.0
C117 C 0.28526 0.73957 0.09139 0.0
C118 C 0.33568 0.72653 0.10147 0.0
C119 C 0.34882 0.64965 0.10165 0.0
H120 H 0.41352 0.67302 0.04878 0.0
C121 C 0.42146 0.57603 0.02483 0.0
C122 C 0.44955 0.58457 0.02372 0.0
C123 C 0.40366 0.59202 0.04597 0.0
C124 C 0.39598 0.66615 0.06461 0.0
H125 H 0.25579 0.70559 0.07408 0.0
H126 H 0.29295 0.67063 0.07292 0.0
H127 H 0.37773 0.70712 0.05825 0.0
H128 H 0.48208 0.61471 0.04678 0.0
H129 H 0.45154 0.64206 0.08524 0.0
H130 H 0.36682 0.6083 0.10624 0.0
C131 C 0.29935 0.69164 0.08166 0.0
C132 C 0.37532 0.68581 0.06996 0.0
C133 C 0.278 0.71177 0.08194 0.0
C134 C 0.46057 0.60755 0.0478 0.0
C135 C 0.44291 0.62343 0.06916 0.0
C136 C 0.36952 0.62988 0.09608 0.0
C137 C 0.3285 0.69879 0.09111 0.0
C138 C 0.35128 0.67784 0.08811 0.0
C139 C 0.41375 0.61686 0.06608 0.0
C140 C 0.39325 0.63787 0.07711 0.0
H141 H 0.32071 0.76782 0.10933 0.0
H142 H 0.35786 0.73276 0.10969 0.0
H143 H 0.33081 0.64281 0.11636 0.0
H144 H 0.4124 0.55866 0.00564 0.0
H145 H 0.38135 0.58632 0.04286 0.0
C146 C 0.77741 0.82813 0.64975 0.0
C147 C 0.78487 0.80036 0.64355 0.0
C148 C 0.79799 0.84923 0.65289 0.0
C149 C 0.87674 0.86183 0.66915 0.0
H150 H 0.85422 0.92858 0.59556 0.0
C151 C 0.9534 0.92642 0.58341 0.0
C152 C 0.94756 0.9547 0.57193 0.0
C153 C 0.93616 0.91111 0.60776 0.0
C154 C 0.86084 0.91048 0.61726 0.0
H155 H 0.82011 0.77292 0.63738 0.0
H156 H 0.85582 0.8096 0.6424 0.0
H157 H 0.81824 0.89445 0.60713 0.0
H158 H 0.92051 0.98983 0.57932 0.0
H159 H 0.89028 0.96315 0.6226 0.0
H160 H 0.91959 0.8774 0.67769 0.0
C161 C 0.83416 0.81512 0.64535 0.0
C162 C 0.84013 0.89077 0.62379 0.0
C163 C 0.81359 0.79406 0.64213 0.0
C164 C 0.92573 0.96813 0.58852 0.0
C165 C 0.90819 0.95272 0.61266 0.0
C166 C 0.89747 0.88156 0.66265 0.0
C167 C 0.82655 0.84308 0.65003 0.0
C168 C 0.84793 0.86577 0.64867 0.0
C169 C 0.91235 0.92369 0.6206 0.0
C170 C 0.88993 0.90573 0.63544 0.0
H171 H 0.75551 0.83373 0.65118 0.0
H172 H 0.79142 0.87045 0.65702 0.0
H173 H 0.88343 0.8431 0.68929 0.0
H174 H 0.96982 0.91555 0.57024 0.0
H175 H 0.93997 0.88885 0.61281 0.0
C176 C 0.73141 0.32314 0.98092 0.0
C177 C 0.72199 0.29536 0.98195 0.0
C178 C 0.71167 0.34532 0.97277 0.0
C179 C 0.63544 0.3622 0.92695 0.0
H180 H 0.6465 0.42315 0.00725 0.0
C181 C 0.54394 0.42327 0.97574 0.0
C182 C 0.54855 0.45012 0.99186 0.0
C183 C 0.56536 0.40942 0.95925 0.0
C184 C 0.64332 0.40678 0.98362 0.0
H185 H 0.68437 0.26915 0.9747 0.0
H186 H 0.65006 0.30772 0.96073 0.0
H187 H 0.68419 0.38833 0.01046 0.0
H188 H 0.57799 0.48467 2e-05 0.0
H189 H 0.61557 0.46066 0.97035 0.0
H190 H 0.59417 0.38013 0.9011 0.0
C191 C 0.6727 0.3124 0.96578 0.0
C192 C 0.66495 0.38667 0.98568 0.0
C193 C 0.6924 0.29027 0.97422 0.0
C194 C 0.57378 0.46412 0.98702 0.0
C195 C 0.59545 0.45015 0.97076 0.0
C196 C 0.61386 0.38238 0.92473 0.0
C197 C 0.68206 0.34021 0.96508 0.0
C198 C 0.66087 0.36363 0.95841 0.0
C199 C 0.59206 0.42206 0.95906 0.0
C200 C 0.6171 0.40441 0.95411 0.0
H201 H 0.75406 0.3278 0.98659 0.0
H202 H 0.71959 0.36648 0.97227 0.0
H203 H 0.63188 0.34503 0.90481 0.0
H204 H 0.52481 0.41193 0.9799 0.0
H205 H 0.5619 0.38782 0.95089 0.0
C206 C 0.18491 0.87899 0.27028 0.0
C207 C 0.19174 0.89799 0.2378 0.0
C208 C 0.1742 0.8885 0.30658 0.0
C209 C 0.1628 0.95156 0.3686 0.0
H210 H 0.09494 0.91186 0.38829 0.0
C211 C 0.07521 0.99762 0.45577 0.0
C212 C 0.05938 0.97876 0.47756 0.0
C213 C 0.09692 0.98779 0.43474 0.0
C214 C 0.11419 0.92294 0.38416 0.0
H215 H 0.1943 0.94199 0.2195 0.0
H216 H 0.17532 0.95849 0.28243 0.0
H217 H 0.12298 0.89429 0.33685 0.0
H218 H 0.05503 0.93554 0.49804 0.0
H219 H 0.09372 0.91853 0.46362 0.0
H220 H 0.1534 0.98063 0.41546 0.0
C221 C 0.1784 0.93626 0.28007 0.0
C222 C 0.13031 0.91281 0.35446 0.0
C223 C 0.18913 0.92675 0.24378 0.0
C224 C 0.06699 0.95041 0.48124 0.0
C225 C 0.08892 0.94068 0.46106 0.0
C226 C 0.14665 0.96171 0.39862 0.0
C227 C 0.17005 0.91721 0.31124 0.0
C228 C 0.15466 0.92708 0.34593 0.0
C229 C 0.1032 0.959 0.43565 0.0
C230 C 0.12198 0.9476 0.4065 0.0
H231 H 0.1869 0.85671 0.26694 0.0
H232 H 0.16845 0.87329 0.33045 0.0
H233 H 0.18157 0.96296 0.36298 0.0
H234 H 0.06941 0.01956 0.45221 0.0
H235 H 0.10739 0.00251 0.41539 0.0
C236 C 0.69353 0.67991 0.75465 0.0
C237 C 0.68956 0.66891 0.71222 0.0
C238 C 0.68527 0.66467 0.79016 0.0
C239 C 0.66443 0.59366 0.82652 0.0
H240 H 0.61653 0.6342 0.8922 0.0
C241 C 0.57675 0.54215 0.90899 0.0
C242 C 0.56812 0.55505 0.9446 0.0
C243 C 0.59917 0.5533 0.88999 0.0
C244 C 0.63041 0.62251 0.87513 0.0
H245 H 0.67501 0.63266 0.67451 0.0
H246 H 0.66068 0.60636 0.73599 0.0
H247 H 0.64174 0.6595 0.84118 0.0
H248 H 0.57702 0.58834 0.99037 0.0
H249 H 0.61702 0.60715 0.95872 0.0
H250 H 0.65238 0.55654 0.85959 0.0
C251 C 0.67025 0.62665 0.74207 0.0
C252 C 0.64486 0.63711 0.84568 0.0
C253 C 0.67826 0.6419 0.70663 0.0
C254 C 0.58367 0.57781 0.96331 0.0
C255 C 0.60624 0.58882 0.94465 0.0
C256 C 0.65006 0.57903 0.85618 0.0
C257 C 0.67316 0.638 0.7841 0.0
C258 C 0.66143 0.62282 0.82011 0.0
C259 C 0.6133 0.57762 0.9063 0.0
C260 C 0.63225 0.59319 0.88006 0.0
H261 H 0.70222 0.70061 0.76014 0.0
H262 H 0.68801 0.67392 0.82223 0.0
H263 H 0.6774 0.58205 0.80782 0.0
H264 H 0.56458 0.52496 0.89344 0.0
H265 H 0.60375 0.54417 0.86035 0.0
C266 C 0.82825 0.18584 0.16391 0.0
C267 C 0.84412 0.19998 0.13568 0.0
C268 C 0.84194 0.17407 0.20482 0.0
C269 C 0.91471 0.1504 0.26216 0.0
H270 H 0.87489 0.13482 0.35986 0.0
C271 C 0.96628 0.088 0.42358 0.0
C272 C 0.95044 0.06404 0.43067 0.0
C273 C 0.95425 0.10911 0.39277 0.0
C274 C 0.88633 0.13925 0.33293 0.0
H275 H 0.88635 0.21469 0.12945 0.0
H276 H 0.90995 0.19572 0.20158 0.0
H277 H 0.85219 0.16468 0.29695 0.0
H278 H 0.9093 0.04398 0.413 0.0
H279 H 0.88814 0.08109 0.36048 0.0
H280 H 0.9489 0.125 0.29868 0.0
C281 C 0.88718 0.19244 0.1916 0.0
C282 C 0.87324 0.15614 0.29659 0.0
C283 C 0.87361 0.20363 0.15034 0.0
C284 C 0.92205 0.06215 0.40799 0.0
C285 C 0.90986 0.08346 0.37817 0.0
C286 C 0.92799 0.13398 0.29888 0.0
C287 C 0.87176 0.17666 0.21889 0.0
C288 C 0.88692 0.1614 0.26007 0.0
C289 C 0.92597 0.1069 0.36959 0.0
C290 C 0.91365 0.12769 0.33411 0.0
H291 H 0.80553 0.18249 0.15335 0.0
H292 H 0.82921 0.16183 0.22429 0.0
H293 H 0.92589 0.15335 0.23462 0.0
H294 H 0.98825 0.08988 0.44045 0.0
H295 H 0.9671 0.127 0.38665 0.0
C296 C 0.33147 0.40026 0.58995 0.0
C297 C 0.32227 0.3724 0.59039 0.0
C298 C 0.34815 0.4112 0.62738 0.0
C299 C 0.36968 0.40361 0.74822 0.0
H300 H 0.43341 0.44895 0.72533 0.0
C301 C 0.44726 0.4613 0.88589 0.0
C302 C 0.45198 0.48943 0.87443 0.0
C303 C 0.43324 0.44342 0.85387 0.0
C304 C 0.41569 0.4364 0.73234 0.0
H305 H 0.32263 0.3345 0.63155 0.0
H306 H 0.35188 0.35391 0.69759 0.0
H307 H 0.40471 0.42448 0.6651 0.0
H308 H 0.44597 0.52052 0.82002 0.0
H309 H 0.42192 0.48965 0.76496 0.0
H310 H 0.38047 0.41626 0.81553 0.0
C311 C 0.34609 0.36712 0.66784 0.0
C312 C 0.39921 0.42239 0.6978 0.0
C313 C 0.32937 0.35603 0.63003 0.0
C314 C 0.44275 0.49906 0.83025 0.0
C315 C 0.42908 0.48125 0.79844 0.0
C316 C 0.38625 0.41774 0.78299 0.0
C317 C 0.35617 0.39468 0.66652 0.0
C318 C 0.3755 0.4065 0.70495 0.0
C319 C 0.42409 0.45325 0.80973 0.0
C320 C 0.40893 0.43495 0.77506 0.0
H321 H 0.32626 0.41366 0.5603 0.0
H322 H 0.35498 0.4327 0.62554 0.0
H323 H 0.35155 0.3915 0.75475 0.0
H324 H 0.454 0.45321 0.91963 0.0
H325 H 0.42977 0.42191 0.86354 0.0
C326 C 0.64342 0.67047 0.40983 0.0
C327 C 0.65198 0.65164 0.44625 0.0
C328 C 0.63126 0.66066 0.36814 0.0
C329 C 0.62725 0.59709 0.30338 0.0
H330 H 0.55553 0.62728 0.23735 0.0
C331 C 0.55409 0.53184 0.1812 0.0
C332 C 0.54145 0.54351 0.1394 0.0
C333 C 0.56847 0.54847 0.21406 0.0
C334 C 0.57582 0.61896 0.25501 0.0
H335 H 0.65442 0.6078 0.46726 0.0
H336 H 0.63351 0.59092 0.39524 0.0
H337 H 0.57978 0.65039 0.30366 0.0
H338 H 0.53343 0.58233 0.10017 0.0
H339 H 0.55875 0.61167 0.15845 0.0
H340 H 0.62311 0.56531 0.25589 0.0
C341 C 0.63636 0.61319 0.39856 0.0
C342 C 0.58968 0.63216 0.29294 0.0
C343 C 0.64823 0.62293 0.44001 0.0
C344 C 0.54302 0.5726 0.13186 0.0
C345 C 0.55743 0.58941 0.1652 0.0
C346 C 0.6135 0.584 0.26571 0.0
C347 C 0.62779 0.63186 0.36207 0.0
C348 C 0.61508 0.62078 0.31831 0.0
C349 C 0.57071 0.57736 0.2064 0.0
C350 C 0.58715 0.59419 0.24192 0.0
H351 H 0.64594 0.69273 0.41358 0.0
H352 H 0.6249 0.67554 0.3406 0.0
H353 H 0.64713 0.58818 0.32159 0.0
H354 H 0.5532 0.50963 0.1887 0.0
H355 H 0.57785 0.53861 0.24575 0.0
C356 C 0.83188 0.12787 0.87143 0.0
C357 C 0.82887 0.1569 0.87404 0.0
C358 C 0.83817 0.11646 0.83309 0.0
C359 C 0.87367 0.13657 0.74025 0.0
H360 H 0.85008 0.06336 0.69892 0.0
C361 C 0.92704 0.08976 0.60924 0.0
C362 C 0.93749 0.06252 0.61975 0.0
C363 C 0.90582 0.10045 0.63004 0.0
C364 C 0.85684 0.08383 0.71006 0.0
H365 H 0.82816 0.19655 0.83725 0.0
H366 H 0.83871 0.17662 0.77013 0.0
H367 H 0.82743 0.08428 0.75541 0.0
H368 H 0.93305 0.02435 0.65774 0.0
H369 H 0.8964 0.04317 0.69533 0.0
H370 H 0.90378 0.13591 0.69669 0.0
C371 C 0.83684 0.1627 0.79812 0.0
C372 C 0.84389 0.09582 0.74243 0.0
C373 C 0.83067 0.17413 0.83654 0.0
C374 C 0.92493 0.04532 0.64877 0.0
C375 C 0.90397 0.05618 0.67028 0.0
C376 C 0.88657 0.12464 0.70809 0.0
C377 C 0.84149 0.13381 0.79638 0.0
C378 C 0.85251 0.12216 0.75843 0.0
C379 C 0.89523 0.08434 0.66274 0.0
C380 C 0.87868 0.09795 0.69299 0.0
H381 H 0.83053 0.11396 0.89965 0.0
H382 H 0.84185 0.09416 0.83314 0.0
H383 H 0.88134 0.15658 0.75237 0.0
H384 H 0.93659 0.10336 0.587 0.0
H385 H 0.89904 0.12195 0.62253 0.0
C386 C 0.29875 0.3942 0.28816 0.0
C387 C 0.29721 0.41319 0.32133 0.0
C388 C 0.30774 0.40298 0.24891 0.0
C389 C 0.32384 0.46585 0.18179 0.0
H390 H 0.38116 0.41675 0.15052 0.0
C391 C 0.41345 0.50132 0.08688 0.0
C392 C 0.42523 0.48124 0.06329 0.0
C393 C 0.39056 0.49431 0.10822 0.0
C394 C 0.36473 0.43054 0.15785 0.0
H395 H 0.30242 0.45663 0.33816 0.0
H396 H 0.31857 0.47176 0.27033 0.0
H397 H 0.35464 0.40157 0.2072 0.0
H398 H 0.42076 0.43944 0.03918 0.0
H399 H 0.37997 0.42766 0.07417 0.0
H400 H 0.3349 0.49525 0.13317 0.0
C401 C 0.31254 0.45016 0.27425 0.0
C402 C 0.34947 0.42178 0.19059 0.0
C403 C 0.30347 0.4414 0.3134 0.0
C404 C 0.41199 0.45521 0.05733 0.0
C405 C 0.38888 0.44839 0.07787 0.0
C406 C 0.33917 0.47467 0.14884 0.0
C407 C 0.31549 0.43093 0.24199 0.0
C408 C 0.32915 0.43943 0.20355 0.0
C409 C 0.37903 0.46721 0.10582 0.0
C410 C 0.36011 0.45723 0.1369 0.0
H411 H 0.29383 0.37237 0.293 0.0
H412 H 0.30927 0.38771 0.22441 0.0
H413 H 0.3081 0.47987 0.19063 0.0
H414 H 0.42359 0.52143 0.0923 0.0
H415 H 0.38356 0.50934 0.12946 0.0
C416 C 0.15113 0.88058 0.97195 0.0
C417 C 0.1672 0.85578 0.97372 0.0
C418 C 0.13436 0.89054 0.93235 0.0
C419 C 0.12495 0.89039 0.81184 0.0
H420 H 0.04989 0.91953 0.81962 0.0
C421 C 0.05091 0.95209 0.66598 0.0
C422 C 0.04241 0.97805 0.67926 0.0
C423 C 0.06356 0.93173 0.69782 0.0
C424 C 0.07071 0.91133 0.81678 0.0
H425 H 0.1787 0.82239 0.93451 0.0
H426 H 0.14936 0.84023 0.86458 0.0
H427 H 0.07795 0.89405 0.88319 0.0
H428 H 0.03929 0.0025 0.73613 0.0
H429 H 0.06067 0.96722 0.79099 0.0
H430 H 0.11796 0.9088 0.74573 0.0
C431 C 0.1498 0.85172 0.89433 0.0
C432 C 0.08681 0.89681 0.8532 0.0
C433 C 0.16654 0.84152 0.93434 0.0
C434 C 0.04574 0.9828 0.72475 0.0
C435 C 0.05783 0.96247 0.75628 0.0
C436 C 0.10875 0.90501 0.77518 0.0
C437 C 0.13318 0.87613 0.89318 0.0
C438 C 0.11454 0.88709 0.85177 0.0
C439 C 0.06722 0.93684 0.74332 0.0
C440 C 0.0819 0.91653 0.77795 0.0
H441 H 0.15114 0.89228 0.00139 0.0
H442 H 0.1223 0.90973 0.93241 0.0
H443 H 0.14625 0.88313 0.80978 0.0
H444 H 0.04869 0.94791 0.63112 0.0
H445 H 0.07058 0.91212 0.68695 0.0
loop_
_geom_bond_atom_site_label_1
_geom_bond_atom_site_label_2
_geom_bond_distance
_geom_bond_site_symmetry_2
_ccdc_geom_bond_type
O0 Cd1 2.300 . S
O0 C7 1.275 . S
Cd1 O0 2.300 . S
Cd1 O9 2.381 . S
Cd1 O10 2.378 . S
O2 Cd3 2.385 . S
O2 C7 1.255 . S
Cd3 O2 2.385 . S
Cd3 O4 2.317 . S
O4 Cd3 2.317 . S
O4 C5 1.232 . S
C5 O4 1.232 . S
C5 O6 1.218 . S
O6 C5 1.218 . S
C7 O0 1.275 . S
C7 O2 1.255 . S
C8 O9 1.258 . S
C8 O10 1.256 . S
O9 Cd1 2.381 . S
O9 C8 1.258 . S
O10 Cd1 2.378 . S
O10 C8 1.256 . S
O11 Cd12 2.300 . S
O11 C18 1.275 . S
Cd12 O11 2.300 . S
Cd12 O20 2.381 . S
Cd12 O21 2.378 . S
O13 Cd14 2.385 . S
O13 C18 1.255 . S
Cd14 O13 2.385 . S
Cd14 O15 2.317 . S
O15 Cd14 2.317 . S
O15 C16 1.232 . S
C16 O15 1.232 . S
C16 O17 1.218 . S
O17 C16 1.218 . S
C18 O11 1.275 . S
C18 O13 1.255 . S
C19 O20 1.258 . S
C19 O21 1.256 . S
O20 Cd12 2.381 . S
O20 C19 1.258 . S
O21 Cd12 2.378 . S
O21 C19 1.256 . S
O22 Cd23 2.300 . S
O22 C29 1.275 . S
Cd23 O22 2.300 . S
Cd23 O31 2.381 . S
Cd23 O32 2.378 1_554 S
O24 Cd25 2.385 1_554 S
O24 C29 1.255 . S
Cd25 O24 2.385 1_556 S
Cd25 O26 2.317 . S
O26 Cd25 2.317 . S
O26 C27 1.232 . S
C27 O26 1.232 . S
C27 O28 1.218 . S
O28 C27 1.218 . S
C29 O22 1.275 . S
C29 O24 1.255 . S
C30 O31 1.258 . S
C30 O32 1.256 1_554 S
O31 Cd23 2.381 . S
O31 C30 1.258 . S
O32 Cd23 2.378 1_556 S
O32 C30 1.256 1_556 S
O33 Cd34 2.300 . S
O33 C40 1.275 . S
Cd34 O33 2.300 . S
Cd34 O42 2.381 . S
Cd34 O43 2.378 . S
O35 Cd36 2.385 . S
O35 C40 1.255 . S
Cd36 O35 2.385 . S
Cd36 O37 2.317 . S
O37 Cd36 2.317 . S
O37 C38 1.232 . S
C38 O37 1.232 . S
C38 O39 1.218 . S
O39 C38 1.218 . S
C40 O33 1.275 . S
C40 O35 1.255 . S
C41 O42 1.258 . S
C41 O43 1.256 . S
O42 Cd34 2.381 . S
O42 C41 1.258 . S
O43 Cd34 2.378 . S
O43 C41 1.256 . S
O44 Mn45 2.163 1_655 S
O44 C58 1.244 . S
Mn45 O44 2.163 1_455 S
Mn45 O48 2.160 1_545 S
Mn45 O49 2.221 . S
Mn45 O51 2.163 1_455 S
Mn45 O53 2.160 1_545 S
Mn45 O63 2.221 1_445 S
O46 Mn47 2.087 1_545 S
O46 C58 1.256 . S
Mn47 O46 2.087 1_565 S
Mn47 O54 2.089 1_655 S
Mn47 O63 2.290 . S
Mn47 O64 2.251 . S
O48 Mn45 2.160 1_565 S
O48 C59 1.239 . S
O49 Mn45 2.221 . S
O49 Mn50 2.290 . S
O49 C60 1.278 . S
Mn50 O49 2.290 . S
Mn50 O52 2.089 . S
Mn50 O55 2.251 . S
Mn50 O56 2.124 . S
O51 Mn45 2.163 1_655 S
O51 C61 1.244 . S
O52 Mn50 2.089 . S
O52 C59 1.256 1_545 S
O53 Mn45 2.160 1_565 S
O53 C62 1.239 . S
O54 Mn47 2.089 1_455 S
O54 C62 1.256 . S
O55 Mn50 2.251 . S
O55 C60 1.241 . S
O56 Mn50 2.124 . S
O56 C61 1.230 1_455 S
C57 O63 1.278 . S
C57 O64 1.241 . S
C58 O44 1.244 . S
C58 O46 1.256 . S
C59 O48 1.239 . S
C59 O52 1.256 1_565 S
C60 O49 1.278 . S
C60 O55 1.241 . S
C61 O51 1.244 . S
C61 O56 1.230 1_655 S
C62 O53 1.239 . S
C62 O54 1.256 . S
O63 Mn45 2.221 1_665 S
O63 Mn47 2.290 . S
O63 C57 1.278 . S
O64 Mn47 2.251 . S
O64 C57 1.241 . S
O65 Mn66 2.163 . S
O65 C79 1.244 . S
Mn66 O65 2.163 . S
Mn66 O69 2.160 1_554 S
Mn66 O70 2.221 1_554 S
Mn66 O72 2.163 1_554 S
Mn66 O74 2.160 . S
Mn66 O84 2.221 . S
O67 Mn68 2.087 . S
O67 C79 1.256 . S
Mn68 O67 2.087 . S
Mn68 O75 2.089 . S
Mn68 O84 2.290 . S
Mn68 O85 2.251 . S
O69 Mn66 2.160 1_556 S
O69 C80 1.239 . S
O70 Mn66 2.221 1_556 S
O70 Mn71 2.290 . S
O70 C81 1.278 1_556 S
Mn71 O70 2.290 . S
Mn71 O73 2.089 . S
Mn71 O76 2.251 . S
Mn71 O77 2.087 . S
O72 Mn66 2.163 1_556 S
O72 C82 1.244 . S
O73 Mn71 2.089 . S
O73 C80 1.256 . S
O74 Mn66 2.160 . S
O74 C83 1.239 . S
O75 Mn68 2.089 . S
O75 C83 1.256 . S
O76 Mn71 2.251 . S
O76 C81 1.241 1_556 S
O77 Mn71 2.087 . S
O77 C82 1.256 . S
C78 O84 1.278 . S
C78 O85 1.241 . S
C79 O65 1.244 . S
C79 O67 1.256 . S
C80 O69 1.239 . S
C80 O73 1.256 . S
C81 O70 1.278 1_554 S
C81 O76 1.241 1_554 S
C82 O72 1.244 . S
C82 O77 1.256 . S
C83 O74 1.239 . S
C83 O75 1.256 . S
O84 Mn66 2.221 . S
O84 Mn68 2.290 . S
O84 C78 1.278 . S
O85 Mn68 2.251 . S
O85 C78 1.241 . S
C86 C87 1.349 . S
C86 C88 1.327 . S
C86 H111 0.950 . S
C87 C86 1.349 . S
C87 C103 1.349 . S
C88 C86 1.327 . S
C88 C107 1.429 . S
C88 H112 0.950 . S
C89 C106 1.574 . S
C89 C108 1.368 . S
C89 H113 0.949 . S
H90 C94 0.949 . S
C91 C92 1.349 . S
C91 C93 1.327 . S
C91 H114 0.950 . S
C92 C91 1.349 . S
C92 C104 1.349 . S
C93 C91 1.327 . S
C93 C109 1.429 . S
C93 H115 0.950 . S
C94 H90 0.949 . S
C94 C102 1.574 . S
C94 C110 1.368 . S
H95 C103 0.950 . S
H96 C101 0.950 . S
H97 C102 0.949 . S
H98 C104 0.950 . S
H99 C105 0.950 . S
H100 C106 0.949 . S
C101 H96 0.950 . S
C101 C103 1.327 . S
C101 C107 1.429 . S
C102 C94 1.574 . S
C102 H97 0.949 . S
C102 C108 1.368 . S
C103 C87 1.349 . S
C103 H95 0.950 . S
C103 C101 1.327 . S
C104 C92 1.349 . S
C104 H98 0.950 . S
C104 C105 1.327 . S
C105 H99 0.950 . S
C105 C104 1.327 . S
C105 C109 1.429 . S
C106 C89 1.574 . S
C106 H100 0.949 . S
C106 C110 1.368 . S
C107 C88 1.429 . S
C107 C101 1.429 . S
C107 C108 1.523 . S
C108 C89 1.368 . S
C108 C102 1.368 . S
C108 C107 1.523 . S
C109 C93 1.429 . S
C109 C105 1.429 . S
C109 C110 1.523 . S
C110 C94 1.368 . S
C110 C106 1.368 . S
C110 C109 1.523 . S
H111 C86 0.950 . S
H112 C88 0.950 . S
H113 C89 0.949 . S
H114 C91 0.950 . S
H115 C93 0.950 . S
C116 C117 1.349 . S
C116 C118 1.327 . S
C116 H141 0.950 . S
C117 C116 1.349 . S
C117 C133 1.349 . S
C118 C116 1.327 . S
C118 C137 1.429 . S
C118 H142 0.950 . S
C119 C136 1.574 . S
C119 C138 1.368 . S
C119 H143 0.949 . S
H120 C124 0.949 . S
C121 C122 1.349 . S
C121 C123 1.327 . S
C121 H144 0.950 . S
C122 C121 1.349 . S
C122 C134 1.349 . S
C123 C121 1.327 . S
C123 C139 1.429 . S
C123 H145 0.950 . S
C124 H120 0.949 . S
C124 C132 1.574 . S
C124 C140 1.368 . S
H125 C133 0.950 . S
H126 C131 0.950 . S
H127 C132 0.949 . S
H128 C134 0.950 1_556 S
H129 C135 0.950 1_556 S
H130 C136 0.949 . S
C131 H126 0.950 . S
C131 C133 1.327 . S
C131 C137 1.429 . S
C132 C124 1.574 . S
C132 H127 0.949 . S
C132 C138 1.368 . S
C133 C117 1.349 . S
C133 H125 0.950 . S
C133 C131 1.327 . S
C134 C122 1.349 . S
C134 H128 0.950 1_554 S
C134 C135 1.327 . S
C135 H129 0.950 1_554 S
C135 C134 1.327 . S
C135 C139 1.429 . S
C136 C119 1.574 . S
C136 H130 0.949 . S
C136 C140 1.368 . S
C137 C118 1.429 . S
C137 C131 1.429 . S
C137 C138 1.523 . S
C138 C119 1.368 . S
C138 C132 1.368 . S
C138 C137 1.523 . S
C139 C123 1.429 . S
C139 C135 1.429 . S
C139 C140 1.523 . S
C140 C124 1.368 . S
C140 C136 1.368 . S
C140 C139 1.523 . S
H141 C116 0.950 . S
H142 C118 0.950 . S
H143 C119 0.949 . S
H144 C121 0.950 . S
H145 C123 0.950 . S
C146 C147 1.349 . S
C146 C148 1.327 . S
C146 H171 0.950 . S
C147 C146 1.349 . S
C147 C163 1.349 . S
C148 C146 1.327 . S
C148 C167 1.429 . S
C148 H172 0.950 . S
C149 C166 1.574 . S
C149 C168 1.368 . S
C149 H173 0.949 . S
H150 C154 0.949 . S
C151 C152 1.349 . S
C151 C153 1.327 . S
C151 H174 0.950 . S
C152 C151 1.349 . S
C152 C164 1.349 . S
C153 C151 1.327 . S
C153 C169 1.429 . S
C153 H175 0.950 . S
C154 H150 0.949 . S
C154 C162 1.574 . S
C154 C170 1.368 . S
H155 C163 0.950 . S
H156 C161 0.950 . S
H157 C162 0.949 . S
H158 C164 0.950 . S
H159 C165 0.950 . S
H160 C166 0.949 . S
C161 H156 0.950 . S
C161 C163 1.327 . S
C161 C167 1.429 . S
C162 C154 1.574 . S
C162 H157 0.949 . S
C162 C168 1.368 . S
C163 C147 1.349 . S
C163 H155 0.950 . S
C163 C161 1.327 . S
C164 C152 1.349 . S
C164 H158 0.950 . S
C164 C165 1.327 . S
C165 H159 0.950 . S
C165 C164 1.327 . S
C165 C169 1.429 . S
C166 C149 1.574 . S
C166 H160 0.949 . S
C166 C170 1.368 . S
C167 C148 1.429 . S
C167 C161 1.429 . S
C167 C168 1.523 . S
C168 C149 1.368 . S
C168 C162 1.368 . S
C168 C167 1.523 . S
C169 C153 1.429 . S
C169 C165 1.429 . S
C169 C170 1.523 . S
C170 C154 1.368 . S
C170 C166 1.368 . S
C170 C169 1.523 . S
H171 C146 0.950 . S
H172 C148 0.950 . S
H173 C149 0.949 . S
H174 C151 0.950 . S
H175 C153 0.950 . S
C176 C177 1.349 . S
C176 C178 1.327 . S
C176 H201 0.950 . S
C177 C176 1.349 . S
C177 C193 1.349 1_554 S
C178 C176 1.327 . S
C178 C197 1.429 . S
C178 H202 0.950 . S
C179 C196 1.574 . S
C179 C198 1.368 1_556 S
C179 H203 0.949 . S
H180 C184 0.949 . S
C181 C182 1.349 1_556 S
C181 C183 1.327 . S
C181 H204 0.950 . S
C182 C181 1.349 1_554 S
C182 C194 1.349 . S
C183 C181 1.327 . S
C183 C199 1.429 1_556 S
C183 H205 0.950 . S
C184 H180 0.949 . S
C184 C192 1.574 . S
C184 C200 1.368 . S
H185 C193 0.950 . S
H186 C191 0.950 . S
H187 C192 0.949 . S
H188 C194 0.950 . S
H189 C195 0.950 . S
H190 C196 0.949 . S
C191 H186 0.950 . S
C191 C193 1.327 . S
C191 C197 1.429 1_556 S
C192 C184 1.574 . S
C192 H187 0.949 . S
C192 C198 1.368 . S
C193 C177 1.349 1_556 S
C193 H185 0.950 . S
C193 C191 1.327 . S
C194 C182 1.349 . S
C194 H188 0.950 . S
C194 C195 1.327 . S
C195 H189 0.950 . S
C195 C194 1.327 . S
C195 C199 1.429 . S
C196 C179 1.574 . S
C196 H190 0.949 . S
C196 C200 1.368 1_556 S
C197 C178 1.429 . S
C197 C191 1.429 1_554 S
C197 C198 1.523 . S
C198 C179 1.368 1_554 S
C198 C192 1.368 . S
C198 C197 1.523 . S
C199 C183 1.429 1_554 S
C199 C195 1.429 . S
C199 C200 1.523 . S
C200 C184 1.368 . S
C200 C196 1.368 1_554 S
C200 C199 1.523 . S
H201 C176 0.950 . S
H202 C178 0.950 . S
H203 C179 0.949 . S
H204 C181 0.950 . S
H205 C183 0.950 . S
C206 C207 1.349 . S
C206 C208 1.327 . S
C206 H231 0.950 . S
C207 C206 1.349 . S
C207 C223 1.349 . S
C208 C206 1.327 . S
C208 C227 1.429 . S
C208 H232 0.950 . S
C209 C226 1.574 . S
C209 C228 1.368 . S
C209 H233 0.949 . S
H210 C214 0.949 . S
C211 C212 1.349 . S
C211 C213 1.327 . S
C211 H234 0.950 . S
C212 C211 1.349 . S
C212 C224 1.349 . S
C213 C211 1.327 . S
C213 C229 1.429 . S
C213 H235 0.950 . S
C214 H210 0.949 . S
C214 C222 1.574 . S
C214 C230 1.368 . S
H215 C223 0.950 . S
H216 C221 0.950 . S
H217 C222 0.949 . S
H218 C224 0.950 . S
H219 C225 0.950 . S
H220 C226 0.949 . S
C221 H216 0.950 . S
C221 C223 1.327 . S
C221 C227 1.429 . S
C222 C214 1.574 . S
C222 H217 0.949 . S
C222 C228 1.368 . S
C223 C207 1.349 . S
C223 H215 0.950 . S
C223 C221 1.327 . S
C224 C212 1.349 . S
C224 H218 0.950 . S
C224 C225 1.327 . S
C225 H219 0.950 . S
C225 C224 1.327 . S
C225 C229 1.429 . S
C226 C209 1.574 . S
C226 H220 0.949 . S
C226 C230 1.368 . S
C227 C208 1.429 . S
C227 C221 1.429 . S
C227 C228 1.523 . S
C228 C209 1.368 . S
C228 C222 1.368 . S
C228 C227 1.523 . S
C229 C213 1.429 . S
C229 C225 1.429 . S
C229 C230 1.523 . S
C230 C214 1.368 . S
C230 C226 1.368 . S
C230 C229 1.523 . S
H231 C206 0.950 . S
H232 C208 0.950 . S
H233 C209 0.949 . S
H234 C211 0.950 . S
H235 C213 0.950 . S
C236 C237 1.349 . S
C236 C238 1.327 . S
C236 H261 0.950 . S
C237 C236 1.349 . S
C237 C253 1.349 . S
C238 C236 1.327 . S
C238 C257 1.429 . S
C238 H262 0.950 . S
C239 C256 1.574 . S
C239 C258 1.368 . S
C239 H263 0.949 . S
H240 C244 0.949 . S
C241 C242 1.349 . S
C241 C243 1.327 . S
C241 H264 0.950 . S
C242 C241 1.349 . S
C242 C254 1.349 . S
C243 C241 1.327 . S
C243 C259 1.429 . S
C243 H265 0.950 . S
C244 H240 0.949 . S
C244 C252 1.574 . S
C244 C260 1.368 . S
H245 C253 0.950 . S
H246 C251 0.950 . S
H247 C252 0.949 . S
H248 C254 0.950 . S
H249 C255 0.950 . S
H250 C256 0.949 . S
C251 H246 0.950 . S
C251 C253 1.327 . S
C251 C257 1.429 . S
C252 C244 1.574 . S
C252 H247 0.949 . S
C252 C258 1.368 . S
C253 C237 1.349 . S
C253 H245 0.950 . S
C253 C251 1.327 . S
C254 C242 1.349 . S
C254 H248 0.950 . S
C254 C255 1.327 . S
C255 H249 0.950 . S
C255 C254 1.327 . S
C255 C259 1.429 . S
C256 C239 1.574 . S
C256 H250 0.949 . S
C256 C260 1.368 . S
C257 C238 1.429 . S
C257 C251 1.429 . S
C257 C258 1.523 . S
C258 C239 1.368 . S
C258 C252 1.368 . S
C258 C257 1.523 . S
C259 C243 1.429 . S
C259 C255 1.429 . S
C259 C260 1.523 . S
C260 C244 1.368 . S
C260 C256 1.368 . S
C260 C259 1.523 . S
H261 C236 0.950 . S
H262 C238 0.950 . S
H263 C239 0.949 . S
H264 C241 0.950 . S
H265 C243 0.950 . S
C266 C267 1.349 . S
C266 C268 1.327 . S
C266 H291 0.950 . S
C267 C266 1.349 . S
C267 C283 1.349 . S
C268 C266 1.327 . S
C268 C287 1.429 . S
C268 H292 0.950 . S
C269 C286 1.574 . S
C269 C288 1.368 . S
C269 H293 0.949 . S
H270 C274 0.949 . S
C271 C272 1.349 . S
C271 C273 1.327 . S
C271 H294 0.950 . S
C272 C271 1.349 . S
C272 C284 1.349 . S
C273 C271 1.327 . S
C273 C289 1.429 . S
C273 H295 0.950 . S
C274 H270 0.949 . S
C274 C282 1.574 . S
C274 C290 1.368 . S
H275 C283 0.950 . S
H276 C281 0.950 . S
H277 C282 0.949 . S
H278 C284 0.950 . S
H279 C285 0.950 . S
H280 C286 0.949 . S
C281 H276 0.950 . S
C281 C283 1.327 . S
C281 C287 1.429 . S
C282 C274 1.574 . S
C282 H277 0.949 . S
C282 C288 1.368 . S
C283 C267 1.349 . S
C283 H275 0.950 . S
C283 C281 1.327 . S
C284 C272 1.349 . S
C284 H278 0.950 . S
C284 C285 1.327 . S
C285 H279 0.950 . S
C285 C284 1.327 . S
C285 C289 1.429 . S
C286 C269 1.574 . S
C286 H280 0.949 . S
C286 C290 1.368 . S
C287 C268 1.429 . S
C287 C281 1.429 . S
C287 C288 1.523 . S
C288 C269 1.368 . S
C288 C282 1.368 . S
C288 C287 1.523 . S
C289 C273 1.429 . S
C289 C285 1.429 . S
C289 C290 1.523 . S
C290 C274 1.368 . S
C290 C286 1.368 . S
C290 C289 1.523 . S
H291 C266 0.950 . S
H292 C268 0.950 . S
H293 C269 0.949 . S
H294 C271 0.950 . S
H295 C273 0.950 . S
C296 C297 1.349 . S
C296 C298 1.327 . S
C296 H321 0.950 . S
C297 C296 1.349 . S
C297 C313 1.349 . S
C298 C296 1.327 . S
C298 C317 1.429 . S
C298 H322 0.950 . S
C299 C316 1.574 . S
C299 C318 1.368 . S
C299 H323 0.949 . S
H300 C304 0.949 . S
C301 C302 1.349 . S
C301 C303 1.327 . S
C301 H324 0.950 . S
C302 C301 1.349 . S
C302 C314 1.349 . S
C303 C301 1.327 . S
C303 C319 1.429 . S
C303 H325 0.950 . S
C304 H300 0.949 . S
C304 C312 1.574 . S
C304 C320 1.368 . S
H305 C313 0.950 . S
H306 C311 0.950 . S
H307 C312 0.949 . S
H308 C314 0.950 . S
H309 C315 0.950 . S
H310 C316 0.949 . S
C311 H306 0.950 . S
C311 C313 1.327 . S
C311 C317 1.429 . S
C312 C304 1.574 . S
C312 H307 0.949 . S
C312 C318 1.368 . S
C313 C297 1.349 . S
C313 H305 0.950 . S
C313 C311 1.327 . S
C314 C302 1.349 . S
C314 H308 0.950 . S
C314 C315 1.327 . S
C315 H309 0.950 . S
C315 C314 1.327 . S
C315 C319 1.429 . S
C316 C299 1.574 . S
C316 H310 0.949 . S
C316 C320 1.368 . S
C317 C298 1.429 . S
C317 C311 1.429 . S
C317 C318 1.523 . S
C318 C299 1.368 . S
C318 C312 1.368 . S
C318 C317 1.523 . S
C319 C303 1.429 . S
C319 C315 1.429 . S
C319 C320 1.523 . S
C320 C304 1.368 . S
C320 C316 1.368 . S
C320 C319 1.523 . S
H321 C296 0.950 . S
H322 C298 0.950 . S
H323 C299 0.949 . S
H324 C301 0.950 . S
H325 C303 0.950 . S
C326 C327 1.349 . S
C326 C328 1.327 . S
C326 H351 0.950 . S
C327 C326 1.349 . S
C327 C343 1.349 . S
C328 C326 1.327 . S
C328 C347 1.429 . S
C328 H352 0.950 . S
C329 C346 1.574 . S
C329 C348 1.368 . S
C329 H353 0.949 . S
H330 C334 0.949 . S
C331 C332 1.349 . S
C331 C333 1.327 . S
C331 H354 0.950 . S
C332 C331 1.349 . S
C332 C344 1.349 . S
C333 C331 1.327 . S
C333 C349 1.429 . S
C333 H355 0.950 . S
C334 H330 0.949 . S
C334 C342 1.574 . S
C334 C350 1.368 . S
H335 C343 0.950 . S
H336 C341 0.950 . S
H337 C342 0.949 . S
H338 C344 0.950 . S
H339 C345 0.950 . S
H340 C346 0.949 . S
C341 H336 0.950 . S
C341 C343 1.327 . S
C341 C347 1.429 . S
C342 C334 1.574 . S
C342 H337 0.949 . S
C342 C348 1.368 . S
C343 C327 1.349 . S
C343 H335 0.950 . S
C343 C341 1.327 . S
C344 C332 1.349 . S
C344 H338 0.950 . S
C344 C345 1.327 . S
C345 H339 0.950 . S
C345 C344 1.327 . S
C345 C349 1.429 . S
C346 C329 1.574 . S
C346 H340 0.949 . S
C346 C350 1.368 . S
C347 C328 1.429 . S
C347 C341 1.429 . S
C347 C348 1.523 . S
C348 C329 1.368 . S
C348 C342 1.368 . S
C348 C347 1.523 . S
C349 C333 1.429 . S
C349 C345 1.429 . S
C349 C350 1.523 . S
C350 C334 1.368 . S
C350 C346 1.368 . S
C350 C349 1.523 . S
H351 C326 0.950 . S
H352 C328 0.950 . S
H353 C329 0.949 . S
H354 C331 0.950 . S
H355 C333 0.950 . S
C356 C357 1.349 . S
C356 C358 1.327 . S
C356 H381 0.950 . S
C357 C356 1.349 . S
C357 C373 1.349 . S
C358 C356 1.327 . S
C358 C377 1.429 . S
C358 H382 0.950 . S
C359 C376 1.574 . S
C359 C378 1.368 . S
C359 H383 0.949 . S
H360 C364 0.949 . S
C361 C362 1.349 . S
C361 C363 1.327 . S
C361 H384 0.950 . S
C362 C361 1.349 . S
C362 C374 1.349 . S
C363 C361 1.327 . S
C363 C379 1.429 . S
C363 H385 0.950 . S
C364 H360 0.949 . S
C364 C372 1.574 . S
C364 C380 1.368 . S
H365 C373 0.950 . S
H366 C371 0.950 . S
H367 C372 0.949 . S
H368 C374 0.950 . S
H369 C375 0.950 . S
H370 C376 0.949 . S
C371 H366 0.950 . S
C371 C373 1.327 . S
C371 C377 1.429 . S
C372 C364 1.574 . S
C372 H367 0.949 . S
C372 C378 1.368 . S
C373 C357 1.349 . S
C373 H365 0.950 . S
C373 C371 1.327 . S
C374 C362 1.349 . S
C374 H368 0.950 . S
C374 C375 1.327 . S
C375 H369 0.950 . S
C375 C374 1.327 . S
C375 C379 1.429 . S
C376 C359 1.574 . S
C376 H370 0.949 . S
C376 C380 1.368 . S
C377 C358 1.429 . S
C377 C371 1.429 . S
C377 C378 1.523 . S
C378 C359 1.368 . S
C378 C372 1.368 . S
C378 C377 1.523 . S
C379 C363 1.429 . S
C379 C375 1.429 . S
C379 C380 1.523 . S
C380 C364 1.368 . S
C380 C376 1.368 . S
C380 C379 1.523 . S
H381 C356 0.950 . S
H382 C358 0.950 . S
H383 C359 0.949 . S
H384 C361 0.950 . S
H385 C363 0.950 . S
C386 C387 1.349 . S
C386 C388 1.327 . S
C386 H411 0.950 . S
C387 C386 1.349 . S
C387 C403 1.349 . S
C388 C386 1.327 . S
C388 C407 1.429 . S
C388 H412 0.950 . S
C389 C406 1.574 . S
C389 C408 1.368 . S
C389 H413 0.949 . S
H390 C394 0.949 . S
C391 C392 1.349 . S
C391 C393 1.327 . S
C391 H414 0.950 . S
C392 C391 1.349 . S
C392 C404 1.349 . S
C393 C391 1.327 . S
C393 C409 1.429 . S
C393 H415 0.950 . S
C394 H390 0.949 . S
C394 C402 1.574 . S
C394 C410 1.368 . S
H395 C403 0.950 . S
H396 C401 0.950 . S
H397 C402 0.949 . S
H398 C404 0.950 . S
H399 C405 0.950 . S
H400 C406 0.949 . S
C401 H396 0.950 . S
C401 C403 1.327 . S
C401 C407 1.429 . S
C402 C394 1.574 . S
C402 H397 0.949 . S
C402 C408 1.368 . S
C403 C387 1.349 . S
C403 H395 0.950 . S
C403 C401 1.327 . S
C404 C392 1.349 . S
C404 H398 0.950 . S
C404 C405 1.327 . S
C405 H399 0.950 . S
C405 C404 1.327 . S
C405 C409 1.429 . S
C406 C389 1.574 . S
C406 H400 0.949 . S
C406 C410 1.368 . S
C407 C388 1.429 . S
C407 C401 1.429 . S
C407 C408 1.523 . S
C408 C389 1.368 . S
C408 C402 1.368 . S
C408 C407 1.523 . S
C409 C393 1.429 . S
C409 C405 1.429 . S
C409 C410 1.523 . S
C410 C394 1.368 . S
C410 C406 1.368 . S
C410 C409 1.523 . S
H411 C386 0.950 . S
H412 C388 0.950 . S
H413 C389 0.949 . S
H414 C391 0.950 . S
H415 C393 0.950 . S
C416 C417 1.349 . S
C416 C418 1.327 . S
C416 H441 0.950 1_556 S
C417 C416 1.349 . S
C417 C433 1.349 . S
C418 C416 1.327 . S
C418 C437 1.429 . S
C418 H442 0.950 . S
C419 C436 1.574 . S
C419 C438 1.368 . S
C419 H443 0.949 . S
H420 C424 0.949 . S
C421 C422 1.349 . S
C421 C423 1.327 . S
C421 H444 0.950 . S
C422 C421 1.349 . S
C422 C434 1.349 . S
C423 C421 1.327 . S
C423 C439 1.429 . S
C423 H445 0.950 . S
C424 H420 0.949 . S
C424 C432 1.574 . S
C424 C440 1.368 . S
H425 C433 0.950 . S
H426 C431 0.950 . S
H427 C432 0.949 . S
H428 C434 0.950 1_545 S
H429 C435 0.950 . S
H430 C436 0.949 . S
C431 H426 0.950 . S
C431 C433 1.327 . S
C431 C437 1.429 . S
C432 C424 1.574 . S
C432 H427 0.949 . S
C432 C438 1.368 . S
C433 C417 1.349 . S
C433 H425 0.950 . S
C433 C431 1.327 . S
C434 C422 1.349 . S
C434 H428 0.950 1_565 S
C434 C435 1.327 . S
C435 H429 0.950 . S
C435 C434 1.327 . S
C435 C439 1.429 . S
C436 C419 1.574 . S
C436 H430 0.949 . S
C436 C440 1.368 . S
C437 C418 1.429 . S
C437 C431 1.429 . S
C437 C438 1.523 . S
C438 C419 1.368 . S
C438 C432 1.368 . S
C438 C437 1.523 . S
C439 C423 1.429 . S
C439 C435 1.429 . S
C439 C440 1.523 . S
C440 C424 1.368 . S
C440 C436 1.368 . S
C440 C439 1.523 . S
H441 C416 0.950 1_554 S
H442 C418 0.950 . S
H443 C419 0.949 . S
H444 C421 0.950 . S
H445 C423 0.950 . S
C92 C60 1.231 . S
C87 C41 1.410 . S
C117 C8 1.417 . S
C122 C81 1.262 . S
C147 C19 1.658 . S
C152 C57 1.447 . S
C177 C30 1.602 . S
C182 C78 1.383 . S
C212 C62 1.529 . S
C207 C5 1.397 . S
C242 C82 1.638 . S
C237 C18 1.665 . S
C267 C29 1.575 . S
C272 C58 1.571 . S
C297 C40 1.591 . S
C302 C80 1.571 . S
C332 C79 1.390 . S
C327 C16 1.264 . S
C362 C61 1.419 . S
C357 C27 1.278 . S
C392 C83 1.333 . S
C387 C38 1.222 . S
C417 C7 1.385 1_556 S
C422 C59 1.363 . S
