# Generated by pormake.
# Topology ibd, (4,6)-cn, num edge types: 1
# Building blocks:
#     Node 0, Type 0, BuildingBlock: QUQFOY_clean_sbu_3, # of connection points: 4
#     Node 1, Type 0, BuildingBlock: QUQFOY_clean_sbu_3, # of connection points: 4
#     Node 2, Type 0, BuildingBlock: QUQFOY_clean_sbu_3, # of connection points: 4
#     Node 3, Type 0, BuildingBlock: QUQFOY_clean_sbu_3, # of connection points: 4
#     Node 4, Type 0, BuildingBlock: QUQFOY_clean_sbu_3, # of connection points: 4
#     Node 5, Type 0, BuildingBlock: QUQFOY_clean_sbu_3, # of connection points: 4
#     Node 6, Type 0, BuildingBlock: QUQFOY_clean_sbu_3, # of connection points: 4
#     Node 7, Type 0, BuildingBlock: QUQFOY_clean_sbu_3, # of connection points: 4
#     Node 8, Type 0, BuildingBlock: QUQFOY_clean_sbu_3, # of connection points: 4
#     Node 9, Type 0, BuildingBlock: QUQFOY_clean_sbu_3, # of connection points: 4
#     Node 10, Type 0, BuildingBlock: QUQFOY_clean_sbu_3, # of connection points: 4
#     Node 11, Type 0, BuildingBlock: QUQFOY_clean_sbu_3, # of connection points: 4
#     Node 12, Type 0, BuildingBlock: QUQFOY_clean_sbu_3, # of connection points: 4
#     Node 13, Type 0, BuildingBlock: QUQFOY_clean_sbu_3, # of connection points: 4
#     Node 14, Type 0, BuildingBlock: QUQFOY_clean_sbu_3, # of connection points: 4
#     Node 15, Type 0, BuildingBlock: QUQFOY_clean_sbu_3, # of connection points: 4
#     Node 16, Type 0, BuildingBlock: QUQFOY_clean_sbu_3, # of connection points: 4
#     Node 17, Type 0, BuildingBlock: QUQFOY_clean_sbu_3, # of connection points: 4
#     Node 18, Type 0, BuildingBlock: QUQFOY_clean_sbu_3, # of connection points: 4
#     Node 19, Type 0, BuildingBlock: QUQFOY_clean_sbu_3, # of connection points: 4
#     Node 20, Type 0, BuildingBlock: QUQFOY_clean_sbu_3, # of connection points: 4
#     Node 21, Type 0, BuildingBlock: QUQFOY_clean_sbu_3, # of connection points: 4
#     Node 22, Type 0, BuildingBlock: QUQFOY_clean_sbu_3, # of connection points: 4
#     Node 23, Type 0, BuildingBlock: QUQFOY_clean_sbu_3, # of connection points: 4
#     Node 24, Type 1, BuildingBlock: OJICUG_clean_sbu_0, # of connection points: 6
#     Node 25, Type 1, BuildingBlock: OJICUG_clean_sbu_0, # of connection points: 6
#     Node 26, Type 1, BuildingBlock: OJICUG_clean_sbu_0, # of connection points: 6
#     Node 27, Type 1, BuildingBlock: OJICUG_clean_sbu_0, # of connection points: 6
#     Node 28, Type 1, BuildingBlock: OJICUG_clean_sbu_0, # of connection points: 6
#     Node 29, Type 1, BuildingBlock: OJICUG_clean_sbu_0, # of connection points: 6
#     Node 30, Type 1, BuildingBlock: OJICUG_clean_sbu_0, # of connection points: 6
#     Node 31, Type 1, BuildingBlock: OJICUG_clean_sbu_0, # of connection points: 6
#     Node 32, Type 1, BuildingBlock: OJICUG_clean_sbu_0, # of connection points: 6
#     Node 33, Type 1, BuildingBlock: OJICUG_clean_sbu_0, # of connection points: 6
#     Node 34, Type 1, BuildingBlock: OJICUG_clean_sbu_0, # of connection points: 6
#     Node 35, Type 1, BuildingBlock: OJICUG_clean_sbu_0, # of connection points: 6
#     Node 36, Type 1, BuildingBlock: OJICUG_clean_sbu_0, # of connection points: 6
#     Node 37, Type 1, BuildingBlock: OJICUG_clean_sbu_0, # of connection points: 6
#     Node 38, Type 1, BuildingBlock: OJICUG_clean_sbu_0, # of connection points: 6
#     Node 39, Type 1, BuildingBlock: OJICUG_clean_sbu_0, # of connection points: 6
#     Edge 40, Type (0, 1), BuildingBlock: MIFKUJ_clean_linker_0, # of connection points: 2
#     Edge 41, Type (0, 1), BuildingBlock: MIFKUJ_clean_linker_0, # of connection points: 2
#     Edge 42, Type (0, 1), BuildingBlock: MIFKUJ_clean_linker_0, # of connection points: 2
#     Edge 43, Type (0, 1), BuildingBlock: MIFKUJ_clean_linker_0, # of connection points: 2
#     Edge 44, Type (0, 1), BuildingBlock: MIFKUJ_clean_linker_0, # of connection points: 2
#     Edge 45, Type (0, 1), BuildingBlock: MIFKUJ_clean_linker_0, # of connection points: 2
#     Edge 46, Type (0, 1), BuildingBlock: MIFKUJ_clean_linker_0, # of connection points: 2
#     Edge 47, Type (0, 1), BuildingBlock: MIFKUJ_clean_linker_0, # of connection points: 2
#     Edge 48, Type (0, 1), BuildingBlock: MIFKUJ_clean_linker_0, # of connection points: 2
#     Edge 49, Type (0, 1), BuildingBlock: MIFKUJ_clean_linker_0, # of connection points: 2
#     Edge 50, Type (0, 1), BuildingBlock: MIFKUJ_clean_linker_0, # of connection points: 2
#     Edge 51, Type (0, 1), BuildingBlock: MIFKUJ_clean_linker_0, # of connection points: 2
#     Edge 52, Type (0, 1), BuildingBlock: MIFKUJ_clean_linker_0, # of connection points: 2
#     Edge 53, Type (0, 1), BuildingBlock: MIFKUJ_clean_linker_0, # of connection points: 2
#     Edge 54, Type (0, 1), BuildingBlock: MIFKUJ_clean_linker_0, # of connection points: 2
#     Edge 55, Type (0, 1), BuildingBlock: MIFKUJ_clean_linker_0, # of connection points: 2
#     Edge 56, Type (0, 1), BuildingBlock: MIFKUJ_clean_linker_0, # of connection points: 2
#     Edge 57, Type (0, 1), BuildingBlock: MIFKUJ_clean_linker_0, # of connection points: 2
#     Edge 58, Type (0, 1), BuildingBlock: MIFKUJ_clean_linker_0, # of connection points: 2
#     Edge 59, Type (0, 1), BuildingBlock: MIFKUJ_clean_linker_0, # of connection points: 2
#     Edge 60, Type (0, 1), BuildingBlock: MIFKUJ_clean_linker_0, # of connection points: 2
#     Edge 61, Type (0, 1), BuildingBlock: MIFKUJ_clean_linker_0, # of connection points: 2
#     Edge 62, Type (0, 1), BuildingBlock: MIFKUJ_clean_linker_0, # of connection points: 2
#     Edge 63, Type (0, 1), BuildingBlock: MIFKUJ_clean_linker_0, # of connection points: 2
#     Edge 64, Type (0, 1), BuildingBlock: MIFKUJ_clean_linker_0, # of connection points: 2
#     Edge 65, Type (0, 1), BuildingBlock: MIFKUJ_clean_linker_0, # of connection points: 2
#     Edge 66, Type (0, 1), BuildingBlock: MIFKUJ_clean_linker_0, # of connection points: 2
#     Edge 67, Type (0, 1), BuildingBlock: MIFKUJ_clean_linker_0, # of connection points: 2
#     Edge 68, Type (0, 1), BuildingBlock: MIFKUJ_clean_linker_0, # of connection points: 2
#     Edge 69, Type (0, 1), BuildingBlock: MIFKUJ_clean_linker_0, # of connection points: 2
#     Edge 70, Type (0, 1), BuildingBlock: MIFKUJ_clean_linker_0, # of connection points: 2
#     Edge 71, Type (0, 1), BuildingBlock: MIFKUJ_clean_linker_0, # of connection points: 2
#     Edge 72, Type (0, 1), BuildingBlock: MIFKUJ_clean_linker_0, # of connection points: 2
#     Edge 73, Type (0, 1), BuildingBlock: MIFKUJ_clean_linker_0, # of connection points: 2
#     Edge 74, Type (0, 1), BuildingBlock: MIFKUJ_clean_linker_0, # of connection points: 2
#     Edge 75, Type (0, 1), BuildingBlock: MIFKUJ_clean_linker_0, # of connection points: 2
#     Edge 76, Type (0, 1), BuildingBlock: MIFKUJ_clean_linker_0, # of connection points: 2
#     Edge 77, Type (0, 1), BuildingBlock: MIFKUJ_clean_linker_0, # of connection points: 2
#     Edge 78, Type (0, 1), BuildingBlock: MIFKUJ_clean_linker_0, # of connection points: 2
#     Edge 79, Type (0, 1), BuildingBlock: MIFKUJ_clean_linker_0, # of connection points: 2
#     Edge 80, Type (0, 1), BuildingBlock: MIFKUJ_clean_linker_0, # of connection points: 2
#     Edge 81, Type (0, 1), BuildingBlock: MIFKUJ_clean_linker_0, # of connection points: 2
#     Edge 82, Type (0, 1), BuildingBlock: MIFKUJ_clean_linker_0, # of connection points: 2
#     Edge 83, Type (0, 1), BuildingBlock: MIFKUJ_clean_linker_0, # of connection points: 2
#     Edge 84, Type (0, 1), BuildingBlock: MIFKUJ_clean_linker_0, # of connection points: 2
#     Edge 85, Type (0, 1), BuildingBlock: MIFKUJ_clean_linker_0, # of connection points: 2
#     Edge 86, Type (0, 1), BuildingBlock: MIFKUJ_clean_linker_0, # of connection points: 2
#     Edge 87, Type (0, 1), BuildingBlock: MIFKUJ_clean_linker_0, # of connection points: 2
#     Edge 88, Type (0, 1), BuildingBlock: MIFKUJ_clean_linker_0, # of connection points: 2
#     Edge 89, Type (0, 1), BuildingBlock: MIFKUJ_clean_linker_0, # of connection points: 2
#     Edge 90, Type (0, 1), BuildingBlock: MIFKUJ_clean_linker_0, # of connection points: 2
#     Edge 91, Type (0, 1), BuildingBlock: MIFKUJ_clean_linker_0, # of connection points: 2
#     Edge 92, Type (0, 1), BuildingBlock: MIFKUJ_clean_linker_0, # of connection points: 2
#     Edge 93, Type (0, 1), BuildingBlock: MIFKUJ_clean_linker_0, # of connection points: 2
#     Edge 94, Type (0, 1), BuildingBlock: MIFKUJ_clean_linker_0, # of connection points: 2
#     Edge 95, Type (0, 1), BuildingBlock: MIFKUJ_clean_linker_0, # of connection points: 2
#     Edge 96, Type (0, 1), BuildingBlock: MIFKUJ_clean_linker_0, # of connection points: 2
#     Edge 97, Type (0, 1), BuildingBlock: MIFKUJ_clean_linker_0, # of connection points: 2
#     Edge 98, Type (0, 1), BuildingBlock: MIFKUJ_clean_linker_0, # of connection points: 2
#     Edge 99, Type (0, 1), BuildingBlock: MIFKUJ_clean_linker_0, # of connection points: 2
#     Edge 100, Type (0, 1), BuildingBlock: MIFKUJ_clean_linker_0, # of connection points: 2
#     Edge 101, Type (0, 1), BuildingBlock: MIFKUJ_clean_linker_0, # of connection points: 2
#     Edge 102, Type (0, 1), BuildingBlock: MIFKUJ_clean_linker_0, # of connection points: 2
#     Edge 103, Type (0, 1), BuildingBlock: MIFKUJ_clean_linker_0, # of connection points: 2
#     Edge 104, Type (0, 1), BuildingBlock: MIFKUJ_clean_linker_0, # of connection points: 2
#     Edge 105, Type (0, 1), BuildingBlock: MIFKUJ_clean_linker_0, # of connection points: 2
#     Edge 106, Type (0, 1), BuildingBlock: MIFKUJ_clean_linker_0, # of connection points: 2
#     Edge 107, Type (0, 1), BuildingBlock: MIFKUJ_clean_linker_0, # of connection points: 2
#     Edge 108, Type (0, 1), BuildingBlock: MIFKUJ_clean_linker_0, # of connection points: 2
#     Edge 109, Type (0, 1), BuildingBlock: MIFKUJ_clean_linker_0, # of connection points: 2
#     Edge 110, Type (0, 1), BuildingBlock: MIFKUJ_clean_linker_0, # of connection points: 2
#     Edge 111, Type (0, 1), BuildingBlock: MIFKUJ_clean_linker_0, # of connection points: 2
#     Edge 112, Type (0, 1), BuildingBlock: MIFKUJ_clean_linker_0, # of connection points: 2
#     Edge 113, Type (0, 1), BuildingBlock: MIFKUJ_clean_linker_0, # of connection points: 2
#     Edge 114, Type (0, 1), BuildingBlock: MIFKUJ_clean_linker_0, # of connection points: 2
#     Edge 115, Type (0, 1), BuildingBlock: MIFKUJ_clean_linker_0, # of connection points: 2
#     Edge 116, Type (0, 1), BuildingBlock: MIFKUJ_clean_linker_0, # of connection points: 2
#     Edge 117, Type (0, 1), BuildingBlock: MIFKUJ_clean_linker_0, # of connection points: 2
#     Edge 118, Type (0, 1), BuildingBlock: MIFKUJ_clean_linker_0, # of connection points: 2
#     Edge 119, Type (0, 1), BuildingBlock: MIFKUJ_clean_linker_0, # of connection points: 2
#     Edge 120, Type (0, 1), BuildingBlock: MIFKUJ_clean_linker_0, # of connection points: 2
#     Edge 121, Type (0, 1), BuildingBlock: MIFKUJ_clean_linker_0, # of connection points: 2
#     Edge 122, Type (0, 1), BuildingBlock: MIFKUJ_clean_linker_0, # of connection points: 2
#     Edge 123, Type (0, 1), BuildingBlock: MIFKUJ_clean_linker_0, # of connection points: 2
#     Edge 124, Type (0, 1), BuildingBlock: MIFKUJ_clean_linker_0, # of connection points: 2
#     Edge 125, Type (0, 1), BuildingBlock: MIFKUJ_clean_linker_0, # of connection points: 2
#     Edge 126, Type (0, 1), BuildingBlock: MIFKUJ_clean_linker_0, # of connection points: 2
#     Edge 127, Type (0, 1), BuildingBlock: MIFKUJ_clean_linker_0, # of connection points: 2
#     Edge 128, Type (0, 1), BuildingBlock: MIFKUJ_clean_linker_0, # of connection points: 2
#     Edge 129, Type (0, 1), BuildingBlock: MIFKUJ_clean_linker_0, # of connection points: 2
#     Edge 130, Type (0, 1), BuildingBlock: MIFKUJ_clean_linker_0, # of connection points: 2
#     Edge 131, Type (0, 1), BuildingBlock: MIFKUJ_clean_linker_0, # of connection points: 2
#     Edge 132, Type (0, 1), BuildingBlock: MIFKUJ_clean_linker_0, # of connection points: 2
#     Edge 133, Type (0, 1), BuildingBlock: MIFKUJ_clean_linker_0, # of connection points: 2
#     Edge 134, Type (0, 1), BuildingBlock: MIFKUJ_clean_linker_0, # of connection points: 2
#     Edge 135, Type (0, 1), BuildingBlock: MIFKUJ_clean_linker_0, # of connection points: 2
# Relax obj value: 0.375
# Max RMSD: 0.288
# Mean RMSD: 0.282
data_MOF--net-ibd--node1-QUQFOY_clean_sbu_3--node2-OJICUG_clean_sbu_0--edge1-MIFKUJ_clean_linker_0
_symmetry_space_group_name_H-M    P1
_symmetry_Int_Tables_number       1
_symmetry_cell_setting            triclinic
loop_
_symmetry_equiv_pos_as_xyz
'x, y, z'
_cell_length_a     63.059561
_cell_length_b     63.081019
_cell_length_c     63.039576
_cell_angle_alpha  90.156195
_cell_angle_beta   90.094227
_cell_angle_gamma 91.160459
loop_
_atom_site_label
_atom_site_type_symbol
_atom_site_fract_x
_atom_site_fract_y
_atom_site_fract_z
_atom_type_partial_charge
C0 C 0.96802 0.22203 0.40271 0.0
O1 O 0.95732 0.23635 0.39379 0.0
Cd2 Cd 0.97072 0.25913 0.36639 0.0
O3 O 0.98713 0.21874 0.39725 0.0
Cd4 Cd 0.01294 0.23234 0.37086 0.0
C5 C 0.01384 0.28262 0.39026 0.0
O6 O 0.9874 0.23497 0.34254 0.0
O7 O 0.01837 0.24793 0.33544 0.0
O8 O 0.02607 0.19682 0.36547 0.0
C9 C -0.0002 0.24328 0.32905 0.0
O10 O -0.00476 0.28504 0.38289 0.0
C11 C 0.04547 0.20192 0.36815 0.0
O12 O 0.02294 0.26488 0.3888 0.0
O13 O 0.04959 0.22105 0.37326 0.0
C14 C 0.01229 0.80505 0.60972 0.0
O15 O -0.00444 0.81197 0.61828 0.0
Cd16 Cd 0.97677 0.79536 0.64656 0.0
O17 O 0.0214 0.78869 0.61698 0.0
Cd18 Cd 0.01716 0.76282 0.64635 0.0
C19 C 0.97136 0.74629 0.6225 0.0
O20 O 0.00386 0.7874 0.67123 0.0
O21 O -0.0009 0.75494 0.6805 0.0
O22 O 0.0544 0.76217 0.65683 0.0
C23 C -0.00281 0.77442 0.68501 0.0
O24 O 0.96276 0.76329 0.62882 0.0
C25 C 0.05627 0.74241 0.65355 0.0
O26 O 0.99079 0.74276 0.62637 0.0
O27 O 0.04021 0.73246 0.64608 0.0
C28 C 0.46015 0.71254 0.89562 0.0
O29 O 0.45084 0.72882 0.88876 0.0
Cd30 Cd 0.466 0.75548 0.86668 0.0
O31 O 0.47929 0.70886 0.89046 0.0
Cd32 Cd 0.50571 0.72615 0.86636 0.0
C33 C 0.50984 0.77126 0.89491 0.0
O34 O 0.48142 0.73543 0.83856 0.0
O35 O 0.51192 0.75125 0.83703 0.0
O36 O 0.51904 0.69327 0.85166 0.0
C37 C 0.49429 0.74698 0.82822 0.0
O38 O 0.49156 0.77636 0.88827 0.0
C39 C 0.53836 0.69786 0.85556 0.0
O40 O 0.51773 0.75354 0.8901 0.0
O41 O 0.54211 0.71474 0.866 0.0
C42 C 0.47966 0.28066 0.09698 0.0
O43 O 0.46103 0.28782 0.0953 0.0
Cd44 Cd 0.43098 0.27801 0.11632 0.0
O45 O 0.48404 0.26682 0.11095 0.0
Cd46 Cd 0.46537 0.24669 0.13945 0.0
C47 C 0.43079 0.22481 0.10378 0.0
O48 O 0.44527 0.27646 0.15091 0.0
O49 O 0.43704 0.24729 0.16677 0.0
O50 O 0.49824 0.24923 0.15979 0.0
C51 C 0.43401 0.26697 0.16458 0.0
O52 O 0.42185 0.24272 0.10313 0.0
C53 C 0.49872 0.22963 0.16427 0.0
O54 O 0.44749 0.22222 0.11479 0.0
O55 O 0.48376 0.21794 0.15698 0.0
C56 C 0.91802 0.73411 0.12919 0.0
O57 O 0.90922 0.752 0.12776 0.0
Cd58 Cd 0.92031 0.78076 0.10552 0.0
O59 O 0.934 0.72974 0.11773 0.0
Cd60 Cd 0.95607 0.74657 0.08983 0.0
C61 C 0.97184 0.78659 0.12298 0.0
O62 O 0.92809 0.76471 0.0724 0.0
O63 O 0.95949 0.77387 0.06213 0.0
O64 O 0.95916 0.7149 0.06783 0.0
C65 C 0.93962 0.77615 0.06045 0.0
O66 O 0.95322 0.79402 0.12199 0.0
C67 C 0.97899 0.7132 0.07079 0.0
O68 O 0.97647 0.76943 0.11354 0.0
O69 O 0.988 0.72692 0.08271 0.0
C70 C 0.5299 0.76781 0.38035 0.0
O71 O 0.52022 0.7823 0.39021 0.0
Cd72 Cd 0.49198 0.77713 0.41494 0.0
O73 O 0.52622 0.74825 0.38432 0.0
Cd74 Cd 0.50486 0.72606 0.40922 0.0
C75 C 0.46091 0.74373 0.38394 0.0
O76 O 0.50556 0.75083 0.4378 0.0
O77 O 0.48389 0.72463 0.44224 0.0
O78 O 0.53446 0.7026 0.41419 0.0
C79 C 0.49154 0.74201 0.44923 0.0
O80 O 0.4636 0.76209 0.39217 0.0
C81 C 0.52369 0.68563 0.41102 0.0
O82 O 0.47387 0.72892 0.38737 0.0
O83 O 0.5042 0.68757 0.40642 0.0
C84 C 0.43431 0.23567 0.60786 0.0
O85 O 0.43216 0.25426 0.60059 0.0
Cd86 Cd 0.46068 0.27402 0.58428 0.0
O87 O 0.45182 0.22618 0.60588 0.0
Cd88 Cd 0.48742 0.23197 0.59102 0.0
C89 C 0.49502 0.27109 0.62653 0.0
O90 O 0.47964 0.25242 0.55999 0.0
O91 O 0.51153 0.25614 0.57194 0.0
O92 O 0.48842 0.19729 0.57463 0.0
C93 C 0.4981 0.26037 0.55767 0.0
O94 O 0.48411 0.28268 0.61427 0.0
C95 C 0.50538 0.19169 0.58375 0.0
O96 O 0.4973 0.25143 0.62273 0.0
O97 O 0.51365 0.20466 0.59698 0.0
C98 C 0.01264 0.28115 0.84436 0.0
O99 O -0.00271 0.29376 0.84262 0.0
Cd100 Cd 0.96646 0.29492 0.8639 0.0
O101 O 0.01271 0.26703 0.85881 0.0
Cd102 Cd 0.98799 0.25683 0.88812 0.0
C103 C 0.94712 0.245 0.85476 0.0
O104 O 0.98129 0.29272 0.89876 0.0
O105 O 0.96086 0.26933 0.91339 0.0
O106 O 0.01641 0.24712 0.91262 0.0
C107 C 0.96724 0.28849 0.91239 0.0
O108 O 0.94458 0.26474 0.85186 0.0
C109 C 0.00967 0.22817 0.91504 0.0
O110 O 0.96207 0.23843 0.86638 0.0
O111 O 0.99321 0.22262 0.90468 0.0
C112 C 0.41149 0.9523 0.21893 0.0
O113 O 0.41081 0.93973 0.23465 0.0
Cd114 Cd 0.38955 0.94487 0.2658 0.0
O115 O 0.40091 0.96925 0.21899 0.0
Cd116 Cd 0.37633 0.98774 0.24224 0.0
C117 C 0.40963 0.99167 0.28464 0.0
O118 O 0.35627 0.95585 0.25149 0.0
O119 O 0.34528 0.98516 0.26502 0.0
O120 O 0.3601 0.00032 0.20995 0.0
C121 C 0.34277 0.96532 0.26272 0.0
O122 O 0.40766 0.97178 0.28754 0.0
C123 C 0.36088 0.01978 0.21517 0.0
O124 O 0.40071 0.00059 0.26904 0.0
O125 O 0.36927 0.02436 0.23297 0.0
C126 C 0.31019 0.09628 0.49576 0.0
O127 O 0.31567 0.09381 0.47654 0.0
Cd128 Cd 0.29468 0.10634 0.44744 0.0
O129 O 0.29269 0.10483 0.5004 0.0
Cd130 Cd 0.2618 0.12065 0.48402 0.0
C131 C 0.24922 0.07687 0.45477 0.0
O132 O 0.28335 0.14024 0.45943 0.0
O133 O 0.24973 0.14511 0.45616 0.0
O134 O 0.26011 0.1429 0.51546 0.0
C135 C 0.26845 0.14956 0.45009 0.0
O136 O 0.26506 0.08108 0.44289 0.0
C137 C 0.24076 0.13856 0.5194 0.0
O138 O 0.24554 0.08799 0.47115 0.0
O139 O 0.23121 0.12583 0.50682 0.0
C140 C 0.13579 0.91775 0.77158 0.0
O141 O 0.13669 0.918 0.79171 0.0
Cd142 Cd 0.12471 0.94697 0.81282 0.0
O143 O 0.12807 0.93327 0.76146 0.0
Cd144 Cd 0.11168 0.96772 0.76875 0.0
C145 C 0.15589 0.98722 0.79364 0.0
O146 O 0.09046 0.95435 0.79796 0.0
O147 O 0.08708 0.98762 0.79108 0.0
O148 O 0.08964 0.96309 0.73703 0.0
C149 C 0.08115 0.97156 0.80172 0.0
O150 O 0.15233 0.97461 0.80901 0.0
C151 C 0.09549 0.98059 0.72874 0.0
O152 O 0.14375 0.9873 0.77757 0.0
O153 O 0.10895 0.9918 0.739 0.0
C154 C 0.28954 0.85056 0.02528 0.0
O155 O 0.30255 0.85409 0.01025 0.0
Cd156 Cd 0.29541 0.87304 0.97828 0.0
O157 O 0.27075 0.85763 0.02473 0.0
Cd158 Cd 0.24862 0.88002 0.00192 0.0
C159 C 0.25129 0.84569 0.96011 0.0
O160 O 0.2778 0.90276 0.99258 0.0
O161 O 0.2481 0.91133 0.97848 0.0
O162 O 0.23325 0.89463 0.03382 0.0
C163 C 0.26783 0.91502 0.98051 0.0
O164 O 0.27095 0.85017 0.95782 0.0
C165 C 0.21412 0.89113 0.02827 0.0
O166 O 0.24051 0.85392 0.97492 0.0
O167 O 0.21105 0.88207 0.01048 0.0
C168 C 0.25871 0.3353 0.04533 0.0
O169 O 0.27853 0.33477 0.04882 0.0
Cd170 Cd 0.30358 0.35914 0.03303 0.0
O171 O 0.25113 0.34889 0.03267 0.0
Cd172 Cd 0.26351 0.37803 0.00978 0.0
C173 C 0.29745 0.34945 0.98011 0.0
O174 O 0.28771 0.39336 0.03566 0.0
O175 O 0.2891 0.4073 0.0044 0.0
O176 O 0.23197 0.3997 0.01452 0.0
C177 C 0.29527 0.40762 0.02356 0.0
O178 O 0.30946 0.34806 -0.00372 0.0
C179 C 0.22538 0.3968 -0.00434 0.0
O180 O 0.27971 0.35853 0.98137 0.0
O181 O 0.23658 0.38542 0.98365 0.0
C182 C 0.73493 0.08596 0.02683 0.0
O183 O 0.7483 0.09506 0.03913 0.0
Cd184 Cd 0.7676 0.12769 0.0323 0.0
O185 O 0.72975 0.09435 0.00925 0.0
Cd186 Cd 0.73787 0.12725 0.98942 0.0
C187 C 0.79038 0.11591 0.98468 0.0
O188 O 0.74176 0.15138 0.01905 0.0
O189 O 0.7506 0.16399 0.98859 0.0
O190 O 0.70152 0.13219 0.97782 0.0
C191 C 0.74892 0.16693 0.00839 0.0
O192 O 0.79326 0.11956 0.00438 0.0
C193 C 0.70586 0.13155 0.95815 0.0
O194 O 0.77198 0.11665 0.97641 0.0
O195 O 0.72495 0.12787 0.95319 0.0
C196 C 0.16871 0.50938 0.25644 0.0
O197 O 0.16242 0.49632 0.24226 0.0
Cd198 Cd 0.12982 0.47615 0.24339 0.0
O199 O 0.15742 0.51292 0.27278 0.0
Cd200 Cd 0.1228 0.50189 0.2879 0.0
C201 C 0.1369 0.45006 0.2904 0.0
O202 O 0.10489 0.50208 0.25416 0.0
O203 O 0.08547 0.49225 0.28054 0.0
O204 O 0.11945 0.53792 0.30095 0.0
C205 C 0.08687 0.49609 0.26087 0.0
O206 O 0.13632 0.44918 0.27023 0.0
C207 C 0.11516 0.53261 0.3199 0.0
O208 O 0.13321 0.46721 0.30028 0.0
O209 O 0.11514 0.51293 0.32409 0.0
C210 C 0.73806 0.86454 0.55298 0.0
O211 O 0.75702 0.87163 0.55408 0.0
Cd212 Cd 0.77326 0.89366 0.52751 0.0
O213 O 0.72633 0.86897 0.5372 0.0
Cd214 Cd 0.72906 0.88894 0.50384 0.0
C215 C 0.76862 0.85887 0.48609 0.0
O216 O 0.74832 0.91949 0.51657 0.0
O217 O 0.75012 0.91483 0.48283 0.0
O218 O 0.69333 0.90269 0.50523 0.0
C219 C 0.7544 0.92647 0.49874 0.0
O220 O 0.78116 0.86976 0.4979 0.0
C221 C 0.68772 0.89508 0.48735 0.0
O222 O 0.74868 0.86141 0.48676 0.0
O223 O 0.70111 0.88381 0.47771 0.0
C224 C 0.87314 0.01707 0.15554 0.0
O225 O 0.86555 -0.00156 0.15299 0.0
Cd226 Cd 0.84633 0.97915 0.17993 0.0
O227 O 0.87107 0.02673 0.17316 0.0
Cd228 Cd 0.85575 0.02059 0.20834 0.0
C229 C 0.88597 0.97788 0.21695 0.0
O230 O 0.82316 0.00312 0.19741 0.0
O231 O 0.83128 -0.0003 0.23036 0.0
O232 O 0.84449 0.05706 0.21268 0.0
C233 C 0.81803 -0.00377 0.21558 0.0
O234 O 0.87321 0.96718 0.2052 0.0
C235 C 0.85359 0.05977 0.23052 0.0
O236 O 0.88422 -0.00216 0.21909 0.0
O237 O 0.86464 0.04461 0.23731 0.0
C238 C 0.20888 0.61137 0.51828 0.0
O239 O 0.21995 0.62285 0.53086 0.0
Cd240 Cd 0.24509 0.64967 0.5203 0.0
O241 O 0.20885 0.61488 0.49837 0.0
Cd242 Cd 0.22329 0.64096 0.47249 0.0
C243 C 0.27176 0.62104 0.48207 0.0
O244 O 0.22713 0.67085 0.49545 0.0
O245 O 0.2439 0.67377 0.46594 0.0
O246 O 0.18868 0.64645 0.45755 0.0
C247 C 0.23967 0.68167 0.48391 0.0
O248 O 0.27154 0.62968 0.50039 0.0
C249 C 0.19377 0.64221 0.43854 0.0
O250 O 0.25602 0.6221 0.46942 0.0
O251 O 0.21273 0.63652 0.43532 0.0
C252 C 0.39294 0.51167 0.68364 0.0
O253 O 0.38572 0.49295 0.68074 0.0
Cd254 Cd 0.36247 0.47509 0.70519 0.0
O255 O 0.38777 0.52223 0.70003 0.0
Cd256 Cd 0.36582 0.51784 0.7319 0.0
C257 C 0.39508 0.47732 0.74874 0.0
O258 O 0.33618 0.4995 0.7159 0.0
O259 O 0.33883 0.49563 0.74969 0.0
O260 O 0.35184 0.55348 0.73141 0.0
C261 C 0.32803 0.4927 0.73293 0.0
O262 O 0.38478 0.46564 0.73562 0.0
C263 C 0.35804 0.55818 0.75005 0.0
O264 O 0.39264 0.49728 0.74927 0.0
O265 O 0.36882 0.54443 0.75973 0.0
C266 C 0.63427 0.0199 0.73693 0.0
O267 O 0.62249 0.0144 0.7214 0.0
Cd268 Cd 0.58893 -0.00359 0.724 0.0
O269 O 0.62816 0.01725 0.75603 0.0
Cd270 Cd 0.59627 0.00472 0.77563 0.0
C271 C 0.60472 0.95531 0.75619 0.0
O272 O 0.57128 0.01683 0.74986 0.0
O273 O 0.55784 -0.00297 0.77419 0.0
O274 O 0.6025 0.03521 0.79838 0.0
C275 C 0.55496 0.00785 0.75757 0.0
O276 O 0.59847 0.96167 0.73809 0.0
C277 C 0.59858 0.02563 0.81567 0.0
O278 O 0.60604 0.96794 0.77198 0.0
O279 O 0.5946 0.00583 0.81446 0.0
C280 C 0.79617 0.60649 0.02858 0.0
O281 O 0.8041 0.60621 0.01008 0.0
Cd282 Cd 0.78366 0.61813 0.97992 0.0
O283 O 0.77724 0.61234 0.03141 0.0
Cd284 Cd 0.7462 0.62533 0.01322 0.0
C285 C 0.74124 0.58368 0.97942 0.0
O286 O 0.76587 0.64992 0.99097 0.0
O287 O 0.7319 0.6482 0.98604 0.0
O288 O 0.73956 0.64447 0.04569 0.0
C289 C 0.74971 0.65644 0.98109 0.0
O290 O 0.75816 0.58987 0.9701 0.0
C291 C 0.72117 0.63647 0.04865 0.0
O292 O 0.73465 0.59317 -0.00413 0.0
O293 O 0.7141 0.62363 0.03466 0.0
C294 C 0.89805 0.46739 0.70945 0.0
O295 O 0.89067 0.45227 0.72065 0.0
Cd296 Cd 0.86833 0.45652 0.75062 0.0
O297 O 0.89284 0.4865 0.71295 0.0
Cd298 Cd 0.86762 0.50509 0.7365 0.0
C299 C 0.89675 0.49313 0.7798 0.0
O300 O 0.84056 0.47751 0.73615 0.0
O301 O 0.8358 0.50223 0.75912 0.0
O302 O 0.85796 0.52728 0.70681 0.0
C303 C 0.82877 0.48553 0.75008 0.0
O304 O 0.89067 0.47382 0.77813 0.0
C305 C 0.86086 0.54476 0.71654 0.0
O306 O 0.89104 0.50689 0.76639 0.0
O307 O 0.86722 0.54378 0.73562 0.0
C308 C 0.79972 0.33877 0.54038 0.0
O309 O 0.81309 0.34566 0.52686 0.0
Cd310 Cd 0.80592 0.37033 0.49928 0.0
O311 O 0.78062 0.34501 0.54029 0.0
Cd312 Cd 0.75908 0.37065 0.52053 0.0
C313 C 0.76494 0.34533 0.4733 0.0
O314 O 0.78748 0.39673 0.51888 0.0
O315 O 0.75858 0.40567 0.50346 0.0
O316 O 0.74093 0.37609 0.55396 0.0
C317 C 0.7774 0.41059 0.50882 0.0
O318 O 0.78443 0.35092 0.47284 0.0
C319 C 0.72249 0.37645 0.54587 0.0
O320 O 0.7532 0.35 0.48892 0.0
O321 O 0.72104 0.37316 0.52604 0.0
C322 C 0.64107 0.45584 0.22318 0.0
O323 O 0.63374 0.45289 0.24169 0.0
Cd324 Cd 0.61544 0.47908 0.26094 0.0
O325 O 0.63881 0.47354 0.21375 0.0
Cd326 Cd 0.62179 0.50808 0.22078 0.0
C327 C 0.65388 0.51852 0.26218 0.0
O328 O 0.59059 0.49216 0.23565 0.0
O329 O 0.59467 0.52527 0.24318 0.0
O330 O 0.61169 0.50986 0.18334 0.0
C331 C 0.58278 0.50885 0.2431 0.0
O332 O 0.64283 0.50492 0.27247 0.0
C333 C 0.61561 0.5296 0.18163 0.0
O334 O 0.65038 0.52178 0.2426 0.0
O335 O 0.62353 0.53891 0.19775 0.0
Sc336 Sc 0.10167 0.1326 0.14 0.0
Sc337 Sc 0.12381 0.085 0.15804 0.0
Sc338 Sc 0.13987 0.10682 0.10928 0.0
O339 O 0.12182 0.10818 0.13582 0.0
C340 C 0.09653 0.12245 0.0903 0.0
C341 C 0.07412 0.09244 0.1543 0.0
C342 C 0.12771 0.05789 0.11584 0.0
C343 C 0.11855 0.12568 0.18725 0.0
C344 C 0.14115 0.15657 0.12 0.0
C345 C 0.1722 0.09403 0.14548 0.0
O346 O 0.09107 0.13168 0.10736 0.0
O347 O 0.08983 0.08122 0.15953 0.0
O348 O 0.13478 0.07323 0.10473 0.0
O349 O 0.1095 0.13659 0.17308 0.0
O350 O 0.14721 0.14023 0.11006 0.0
O351 O 0.15803 0.08648 0.15786 0.0
O352 O 0.12551 0.15624 0.13269 0.0
O353 O 0.1249 0.10702 0.18398 0.0
O354 O 0.16806 0.10215 0.12755 0.0
O355 O 0.076 0.11122 0.14725 0.0
O356 O 0.11329 0.11172 0.08881 0.0
O357 O 0.12281 0.05989 0.1352 0.0
Sc358 Sc 0.11993 0.85974 0.37478 0.0
Sc359 Sc 0.07216 0.84467 0.34935 0.0
Sc360 Sc 0.1018 0.889 0.3313 0.0
O361 O 0.09792 0.86452 0.35182 0.0
C362 C 0.11775 0.90988 0.37491 0.0
C363 C 0.07656 0.84992 0.39928 0.0
C364 C 0.05198 0.88948 0.33849 0.0
C365 C 0.10913 0.81251 0.36002 0.0
C366 C 0.14912 0.87345 0.33571 0.0
C367 C 0.08385 0.85223 0.30093 0.0
O368 O 0.12057 0.89242 0.38437 0.0
O369 O 0.06527 0.84668 0.38282 0.0
O370 O 0.0696 0.89888 0.33472 0.0
O371 O 0.12173 0.82657 0.36761 0.0
O372 O 0.13426 0.88173 0.32519 0.0
O373 O 0.07619 0.84082 0.31575 0.0
O374 O 0.14641 0.86534 0.35395 0.0
O375 O 0.09057 0.81658 0.35354 0.0
O376 O 0.09307 0.87003 0.30423 0.0
O377 O 0.09633 0.85401 0.39847 0.0
O378 O 0.11141 0.91105 0.3558 0.0
O379 O 0.05059 0.8701 0.34391 0.0
Sc380 Sc 0.3815 0.86294 0.62252 0.0
Sc381 Sc 0.32912 0.86935 0.60878 0.0
Sc382 Sc 0.34892 0.89317 0.65444 0.0
O383 O 0.35321 0.87512 0.62878 0.0
C384 C 0.37848 0.85602 0.6712 0.0
C385 C 0.34872 0.82551 0.60968 0.0
C386 C 0.30566 0.86889 0.65333 0.0
C387 C 0.36871 0.87258 0.5772 0.0
C388 C 0.39425 0.90854 0.64152 0.0
C389 C 0.32576 0.91773 0.61719 0.0
O390 O 0.3822 0.84833 0.65296 0.0
O391 O 0.33221 0.83611 0.61357 0.0
O392 O 0.32204 0.87426 0.66391 0.0
O393 O 0.3818 0.87731 0.59184 0.0
O394 O 0.3755 0.91309 0.64683 0.0
O395 O 0.32651 0.90256 0.60389 0.0
O396 O 0.39919 0.89028 0.63466 0.0
O397 O 0.34959 0.86716 0.58123 0.0
O398 O 0.32962 0.91538 0.63693 0.0
O399 O 0.36731 0.8339 0.60952 0.0
O400 O 0.3686 0.87324 0.6741 0.0
O401 O 0.30504 0.86977 0.6332 0.0
Sc402 Sc 0.38167 0.11616 0.8354 0.0
Sc403 Sc 0.39588 0.16529 0.85884 0.0
Sc404 Sc 0.34646 0.1411 0.87001 0.0
O405 O 0.37468 0.14087 0.85472 0.0
C406 C 0.33231 0.12289 0.82543 0.0
C407 C 0.39748 0.15648 0.80902 0.0
C408 C 0.35266 0.19019 0.85918 0.0
C409 C 0.42663 0.12597 0.85719 0.0
C410 C 0.35831 0.09202 0.87257 0.0
C411 C 0.37913 0.15598 0.90579 0.0
O412 O 0.35023 0.11467 0.82186 0.0
O413 O 0.4006 0.16836 0.82513 0.0
O414 O 0.34149 0.1743 0.86499 0.0
O415 O 0.41365 0.11414 0.84695 0.0
O416 O 0.34729 0.10798 0.87726 0.0
O417 O 0.3925 0.16421 0.89294 0.0
O418 O 0.37274 0.09262 0.85853 0.0
O419 O 0.42242 0.14481 0.86255 0.0
O420 O 0.36191 0.14695 0.89986 0.0
O421 O 0.39091 0.13733 0.81031 0.0
O422 O 0.32884 0.13454 0.8415 0.0
O423 O 0.37242 0.18921 0.85582 0.0
Sc424 Sc 0.63453 0.35657 0.88655 0.0
Sc425 Sc 0.58426 0.34015 0.86833 0.0
Sc426 Sc 0.60844 0.38589 0.84753 0.0
O427 O 0.6091 0.3609 0.86748 0.0
C428 C 0.63005 0.4061 0.88924 0.0
C429 C 0.59551 0.34393 0.91683 0.0
C430 C 0.56083 0.38433 0.86218 0.0
C431 C 0.62392 0.30953 0.87302 0.0
C432 C 0.65626 0.37318 0.84363 0.0
C433 C 0.58774 0.34851 0.81933 0.0
O434 O 0.63388 0.3885 0.89806 0.0
O435 O 0.5818 0.34304 0.90204 0.0
O436 O 0.57759 0.39496 0.85792 0.0
O437 O 0.63755 0.32424 0.87653 0.0
O438 O 0.63917 0.37921 0.83508 0.0
O439 O 0.58483 0.33576 0.83467 0.0
O440 O 0.65714 0.36598 0.86243 0.0
O441 O 0.60417 0.31292 0.87141 0.0
O442 O 0.59477 0.36741 0.82185 0.0
O443 O 0.61523 0.34698 0.9134 0.0
O444 O 0.62203 0.40746 0.87076 0.0
O445 O 0.56078 0.36439 0.86506 0.0
Sc446 Sc 0.89901 0.37255 0.11561 0.0
Sc447 Sc 0.8701 0.3959 0.15713 0.0
Sc448 Sc 0.84534 0.38478 0.10842 0.0
O449 O 0.87153 0.38438 0.12708 0.0
C450 C 0.88145 0.3947 0.07436 0.0
C451 C 0.91564 0.41269 0.14188 0.0
C452 C 0.84488 0.43005 0.13013 0.0
C453 C 0.8991 0.35562 0.16321 0.0
C454 C 0.86348 0.33931 0.09963 0.0
C455 C 0.82462 0.37436 0.15349 0.0
O456 O 0.89669 0.38917 0.08613 0.0
O457 O 0.89928 0.4133 0.15355 0.0
O458 O 0.84112 0.41792 0.11434 0.0
O459 O 0.90486 0.35478 0.14393 0.0
O460 O 0.84808 0.35177 0.10186 0.0
O461 O 0.84059 0.37997 0.16455 0.0
O462 O 0.88283 0.3447 0.10265 0.0
O463 O 0.88639 0.36936 0.17022 0.0
O464 O 0.82414 0.37621 0.1335 0.0
O465 O 0.91801 0.39886 0.12741 0.0
O466 O 0.86219 0.39292 0.07991 0.0
O467 O 0.85415 0.42395 0.14691 0.0
Sc468 Sc 0.88548 0.61014 0.36811 0.0
Sc469 Sc 0.90101 0.66274 0.38108 0.0
Sc470 Sc 0.85436 0.64032 0.40269 0.0
O471 O 0.88029 0.63773 0.38394 0.0
C472 C 0.83519 0.61419 0.36375 0.0
C473 C 0.89661 0.6456 0.33367 0.0
C474 C 0.85705 0.68665 0.38306 0.0
C475 C 0.93257 0.62379 0.38118 0.0
C476 C 0.86869 0.59311 0.41245 0.0
C477 C 0.89091 0.66271 0.43047 0.0
O478 O 0.8529 0.60663 0.35827 0.0
O479 O 0.90005 0.66037 0.3471 0.0
O480 O 0.84681 0.67116 0.39113 0.0
O481 O 0.91847 0.61001 0.37627 0.0
O482 O 0.85866 0.60984 0.41666 0.0
O483 O 0.90308 0.66713 0.41493 0.0
O484 O 0.87949 0.59085 0.39563 0.0
O485 O 0.92868 0.64337 0.38298 0.0
O486 O 0.87294 0.65342 0.42836 0.0
O487 O 0.89192 0.62658 0.3388 0.0
O488 O 0.83325 0.62716 0.37905 0.0
O489 O 0.8767 0.686 0.37894 0.0
Sc490 Sc 0.84679 0.86992 0.86829 0.0
Sc491 Sc 0.79804 0.89195 0.87998 0.0
Sc492 Sc 0.82753 0.91018 0.83604 0.0
O493 O 0.82403 0.89058 0.86128 0.0
C494 C 0.87402 0.9109 0.85424 0.0
C495 C 0.83506 0.88658 0.91363 0.0
C496 C 0.80977 0.94009 0.87224 0.0
C497 C 0.80417 0.84297 0.87778 0.0
C498 C 0.84572 0.8663 0.81874 0.0
C499 C 0.77909 0.89724 0.83327 0.0
O500 O 0.87221 0.89202 0.86113 0.0
O501 O 0.81545 0.88809 0.90937 0.0
O502 O 0.81593 0.93739 0.85322 0.0
O503 O 0.82425 0.84509 0.87661 0.0
O504 O 0.84061 0.88557 0.81624 0.0
O505 O 0.77715 0.89588 0.8533 0.0
O506 O 0.84669 0.85749 0.83678 0.0
O507 O 0.79181 0.8586 0.8774 0.0
O508 O 0.7967 0.90114 0.8242 0.0
O509 O 0.84879 0.88147 0.9 0.0
O510 O 0.85871 0.92057 0.84579 0.0
O511 O 0.8033 0.92505 0.88402 0.0
Sc512 Sc 0.85611 0.10661 0.61987 0.0
Sc513 Sc 0.90786 0.12216 0.63428 0.0
Sc514 Sc 0.88516 0.07512 0.65512 0.0
O515 O 0.88306 0.10127 0.63643 0.0
C516 C 0.83672 0.08742 0.66217 0.0
C517 C 0.86846 0.15336 0.63397 0.0
C518 C 0.90412 0.11257 0.68389 0.0
C519 C 0.89236 0.11933 0.58648 0.0
C520 C 0.86323 0.057 0.61345 0.0
C521 C 0.93258 0.07887 0.63771 0.0
O522 O 0.83572 0.0993 0.64603 0.0
O523 O 0.88809 0.14954 0.63559 0.0
O524 O 0.89515 0.09437 0.68189 0.0
O525 O 0.87328 0.11462 0.59137 0.0
O526 O 0.87535 0.05441 0.62937 0.0
O527 O 0.93146 0.09819 0.63245 0.0
O528 O 0.85477 0.07455 0.60898 0.0
O529 O 0.90699 0.12195 0.60021 0.0
O530 O 0.91725 0.06882 0.64628 0.0
O531 O 0.85471 0.13921 0.62917 0.0
O532 O 0.85321 0.07723 0.66692 0.0
O533 O 0.91006 0.12387 0.66819 0.0
Sc534 Sc 0.63705 0.10179 0.34676 0.0
Sc535 Sc 0.66143 0.11553 0.39528 0.0
Sc536 Sc 0.6161 0.14245 0.37826 0.0
O537 O 0.6382 0.11997 0.37339 0.0
C538 C 0.62414 0.14703 0.32867 0.0
C539 C 0.6866 0.11011 0.3517 0.0
C540 C 0.65911 0.16567 0.39338 0.0
C541 C 0.64823 0.06827 0.38267 0.0
C542 C 0.58826 0.10441 0.35894 0.0
C543 C 0.62146 0.1239 0.42483 0.0
O544 O 0.63083 0.12829 0.32636 0.0
O545 O 0.68583 0.11268 0.37167 0.0
O546 O 0.63974 0.16568 0.38773 0.0
O547 O 0.6425 0.07301 0.36398 0.0
O548 O 0.5901 0.12184 0.36898 0.0
O549 O 0.64032 0.11789 0.42191 0.0
O550 O 0.6038 0.09509 0.3505 0.0
O551 O 0.65511 0.08194 0.396 0.0
O552 O 0.61056 0.13255 0.41041 0.0
O553 O 0.6702 0.1066 0.34041 0.0
O554 O 0.61879 0.15452 0.34657 0.0
O555 O 0.66931 0.14877 0.39644 0.0
Sc556 Sc 0.64984 0.84074 0.11344 0.0
Sc557 Sc 0.59678 0.83118 0.12902 0.0
Sc558 Sc 0.62576 0.87383 0.15115 0.0
O559 O 0.62414 0.84861 0.13114 0.0
C560 C 0.67077 0.85328 0.15801 0.0
C561 C 0.63188 0.79563 0.12875 0.0
C562 C 0.59891 0.84051 0.17855 0.0
C563 C 0.61161 0.83274 0.08084 0.0
C564 C 0.65188 0.89101 0.11093 0.0
C565 C 0.58005 0.87853 0.13082 0.0
O566 O 0.67181 0.84519 0.13955 0.0
O567 O 0.61294 0.80168 0.13103 0.0
O568 O 0.61007 0.85735 0.17661 0.0
O569 O 0.6312 0.83563 0.08498 0.0
O570 O 0.64212 0.89346 0.12837 0.0
O571 O 0.57775 0.85891 0.12662 0.0
O572 O 0.65527 0.8729 0.10286 0.0
O573 O 0.59757 0.83099 0.09514 0.0
O574 O 0.59651 0.88642 0.1397 0.0
O575 O 0.64689 0.8079 0.12256 0.0
O576 O 0.65491 0.86349 0.16453 0.0
O577 O 0.59302 0.82927 0.16281 0.0
Sc578 Sc 0.35953 0.63498 0.13194 0.0
Sc579 Sc 0.40861 0.6613 0.13988 0.0
Sc580 Sc 0.39741 0.6134 0.1662 0.0
O581 O 0.3885 0.63657 0.14597 0.0
C582 C 0.34806 0.61722 0.17731 0.0
C583 C 0.36432 0.6844 0.14207 0.0
C584 C 0.41218 0.65545 0.19006 0.0
C585 C 0.38892 0.65142 0.09418 0.0
C586 C 0.3753 0.58708 0.1295 0.0
C587 C 0.44111 0.62392 0.1424 0.0
O588 O 0.34336 0.62808 0.16111 0.0
O589 O 0.38435 0.6842 0.144 0.0
O590 O 0.40504 0.63643 0.19043 0.0
O591 O 0.37258 0.6415 0.10102 0.0
O592 O 0.39011 0.589 0.14313 0.0
O593 O 0.43534 0.64138 0.1346 0.0
O594 O 0.36251 0.6018 0.12515 0.0
O595 O 0.40287 0.65974 0.10636 0.0
O596 O 0.42955 0.6131 0.15498 0.0
O597 O 0.35332 0.66799 0.13725 0.0
O598 O 0.36648 0.61004 0.18039 0.0
O599 O 0.41577 0.66556 0.17296 0.0
Sc600 Sc 0.13505 0.58788 0.84687 0.0
Sc601 Sc 0.1511 0.61205 0.89481 0.0
Sc602 Sc 0.10944 0.63346 0.86509 0.0
O603 O 0.13184 0.61113 0.86894 0.0
C604 C 0.12608 0.62818 0.8179 0.0
C605 C 0.18295 0.60017 0.85753 0.0
C606 C 0.14882 0.66077 0.88277 0.0
C607 C 0.14166 0.56273 0.89029 0.0
C608 C 0.08509 0.59082 0.85056 0.0
C609 C 0.10651 0.62471 0.91462 0.0
O610 O 0.1316 0.6091 0.82042 0.0
O611 O 0.17904 0.60581 0.87646 0.0
O612 O 0.13071 0.65915 0.87397 0.0
O613 O 0.13876 0.56349 0.87036 0.0
O614 O 0.08556 0.61028 0.85591 0.0
O615 O 0.12556 0.61872 0.91628 0.0
O616 O 0.10173 0.58027 0.84727 0.0
O617 O 0.14564 0.5791 0.90148 0.0
O618 O 0.09824 0.62997 0.89706 0.0
O619 O 0.16864 0.59382 0.84465 0.0
O620 O 0.11848 0.6393 0.83278 0.0
O621 O 0.15839 0.64508 0.89057 0.0
Sc622 Sc 0.15574 0.35925 0.59693 0.0
Sc623 Sc 0.10472 0.34068 0.61202 0.0
Sc624 Sc 0.12973 0.38189 0.64062 0.0
O625 O 0.13007 0.36064 0.61646 0.0
C626 C 0.17715 0.36575 0.64234 0.0
C627 C 0.1435 0.31041 0.60212 0.0
C628 C 0.11006 0.34001 0.66196 0.0
C629 C 0.11652 0.35478 0.56505 0.0
C630 C 0.15162 0.40912 0.60378 0.0
C631 C 0.08196 0.38358 0.62496 0.0
O632 O 0.17815 0.36024 0.62295 0.0
O633 O 0.1241 0.31359 0.60617 0.0
O634 O 0.11864 0.3584 0.66281 0.0
O635 O 0.13617 0.35806 0.56872 0.0
O636 O 0.14157 0.40748 0.62118 0.0
O637 O 0.08189 0.36492 0.61737 0.0
O638 O 0.15758 0.39315 0.59316 0.0
O639 O 0.10329 0.34879 0.5791 0.0
O640 O 0.09826 0.39216 0.63346 0.0
O641 O 0.15681 0.32537 0.59875 0.0
O642 O 0.16083 0.37387 0.65047 0.0
O643 O 0.10401 0.33122 0.64477 0.0
Sc644 Sc 0.6172 0.63717 0.61864 0.0
Sc645 Sc 0.64305 0.59832 0.64846 0.0
Sc646 Sc 0.6635 0.61366 0.59876 0.0
O647 O 0.64125 0.61641 0.62195 0.0
C648 C 0.62096 0.61735 0.57215 0.0
C649 C 0.59336 0.59734 0.63892 0.0
C650 C 0.65535 0.56547 0.61251 0.0
C651 C 0.62913 0.64267 0.6675 0.0
C652 C 0.65673 0.66356 0.60065 0.0
C653 C 0.6914 0.61172 0.64069 0.0
O654 O 0.61068 0.62648 0.58676 0.0
O655 O 0.60982 0.58955 0.64726 0.0
O656 O 0.66183 0.57933 0.59925 0.0
O657 O 0.62067 0.64947 0.65056 0.0
O658 O 0.66767 0.64747 0.59618 0.0
O659 O 0.67646 0.60497 0.65254 0.0
O660 O 0.63815 0.66227 0.60831 0.0
O661 O 0.63761 0.62467 0.66889 0.0
O662 O 0.68912 0.61523 0.62104 0.0
O663 O 0.59374 0.6145 0.62852 0.0
O664 O 0.64028 0.61236 0.57386 0.0
O665 O 0.64852 0.57016 0.63079 0.0
Sc666 Sc 0.35591 0.39376 0.40992 0.0
Sc667 Sc 0.36047 0.41941 0.36038 0.0
Sc668 Sc 0.39133 0.37506 0.37129 0.0
O669 O 0.36924 0.3961 0.38057 0.0
C670 C 0.40379 0.38156 0.41976 0.0
C671 C 0.36366 0.44339 0.40508 0.0
C672 C 0.41045 0.41858 0.35371 0.0
C673 C 0.31629 0.40617 0.38131 0.0
C674 C 0.35649 0.34577 0.39381 0.0
C675 C 0.36444 0.38058 0.32877 0.0
O676 O 0.38584 0.38829 0.42556 0.0
O677 O 0.36324 0.4429 0.38492 0.0
O678 O 0.41273 0.39982 0.36057 0.0
O679 O 0.32424 0.39879 0.39822 0.0
O680 O 0.37195 0.34855 0.38114 0.0
O681 O 0.35682 0.39845 0.33349 0.0
O682 O 0.34927 0.36041 0.40552 0.0
O683 O 0.32751 0.41399 0.36647 0.0
O684 O 0.37734 0.37098 0.34063 0.0
O685 O 0.36108 0.42695 0.41648 0.0
O686 O 0.40777 0.37613 0.40085 0.0
O687 O 0.39253 0.42725 0.35213 0.0
H688 H 0.08843 0.20897 0.37021 0.0
H689 H 0.1145 0.19174 0.34769 0.0
H690 H 0.06663 0.14619 0.3274 0.0
H691 H 0.04085 0.16275 0.35033 0.0
H692 H 0.10444 0.12987 0.3221 0.0
H693 H 0.0695 0.19621 0.30451 0.0
H694 H 0.06091 0.23365 0.31114 0.0
H695 H 0.12726 0.25049 0.31081 0.0
H696 H 0.1362 0.21305 0.30441 0.0
H697 H 0.0949 0.1566 0.20507 0.0
H698 H 0.09446 0.16748 0.24209 0.0
H699 H 0.14643 0.12602 0.25554 0.0
H700 H 0.14626 0.11428 0.21849 0.0
H701 H 0.11874 0.18603 0.26873 0.0
H702 H 0.14052 0.10692 0.30624 0.0
H703 H 0.14118 0.06873 0.29759 0.0
H704 H 0.08956 0.07623 0.2539 0.0
H705 H 0.08848 0.11439 0.26248 0.0
C706 C 0.08373 0.1947 0.36168 0.0
C707 C 0.06243 0.18764 0.36141 0.0
C708 C 0.09866 0.18487 0.34881 0.0
C709 C 0.09228 0.1682 0.33528 0.0
C710 C 0.07187 0.1592 0.3375 0.0
C711 C 0.05705 0.16881 0.35056 0.0
C712 C 0.10441 0.16339 0.31581 0.0
C713 C 0.10808 0.14216 0.31058 0.0
C714 C 0.10881 0.1794 0.30062 0.0
C715 C 0.10352 0.20188 0.30426 0.0
C716 C 0.08224 0.20792 0.30594 0.0
C717 C 0.07731 0.22911 0.30966 0.0
C718 C 0.09354 0.24443 0.31146 0.0
C719 C 0.11472 0.23859 0.30947 0.0
C720 C 0.11972 0.2174 0.30581 0.0
C721 C 0.10643 0.14999 0.21582 0.0
C722 C 0.12042 0.13439 0.20894 0.0
C723 C 0.10623 0.15627 0.23701 0.0
C724 C 0.12022 0.14735 0.25172 0.0
C725 C 0.13518 0.13279 0.2446 0.0
C726 C 0.1351 0.12615 0.22343 0.0
C727 C 0.11774 0.15238 0.27458 0.0
C728 C 0.11606 0.17373 0.28049 0.0
C729 C 0.11421 0.13638 0.29001 0.0
C730 C 0.11466 0.11351 0.28476 0.0
C731 C 0.12933 0.10039 0.29479 0.0
C732 C 0.12977 0.07876 0.28992 0.0
C733 C 0.11549 0.07008 0.27513 0.0
C734 C 0.10068 0.08299 0.26527 0.0
C735 C 0.10016 0.10461 0.27012 0.0
H736 H 0.11586 0.05334 0.27136 0.0
H737 H 0.0897 0.26083 0.31434 0.0
H738 H -0.00239 0.84061 0.59035 0.0
H739 H 0.00495 0.85225 0.55413 0.0
H740 H 0.05027 0.80244 0.54701 0.0
H741 H 0.04298 0.79053 0.58312 0.0
H742 H 0.04025 0.86534 0.53212 0.0
H743 H 0.04153 0.7792 0.49872 0.0
H744 H 0.02589 0.74409 0.50731 0.0
H745 H 0.97406 0.77381 0.53897 0.0
H746 H 0.98912 0.80907 0.5302 0.0
H747 H 0.09578 0.85678 0.43749 0.0
H748 H 0.0803 0.85364 0.47254 0.0
H749 H 0.01942 0.83775 0.44478 0.0
H750 H 0.03496 0.84049 0.40924 0.0
H751 H 0.02893 0.81103 0.47585 0.0
H752 H 0.02725 0.88565 0.46869 0.0
H753 H 0.04076 0.92154 0.46005 0.0
H754 H 0.08825 0.91683 0.50859 0.0
H755 H 0.07525 0.88078 0.51733 0.0
C756 C 0.0094 0.83232 0.58122 0.0
C757 C 0.01952 0.81446 0.58951 0.0
C758 C 0.01355 0.83902 0.56055 0.0
C759 C 0.02777 0.8279 0.54786 0.0
C760 C 0.03893 0.81096 0.55652 0.0
C761 C 0.03484 0.80427 0.57719 0.0
C762 C 0.03023 0.83324 0.52522 0.0
C763 C 0.03772 0.85355 0.51976 0.0
C764 C 0.0261 0.818 0.50915 0.0
C765 C 0.0166 0.7968 0.51397 0.0
C766 C 0.02672 0.77825 0.50739 0.0
C767 C 0.01796 0.75832 0.5123 0.0
C768 C -0.00095 0.75673 0.52376 0.0
C769 C 0.98875 0.77506 0.53017 0.0
C770 C -0.0026 0.79502 0.52524 0.0
C771 C 0.07905 0.85273 0.43869 0.0
C772 C 0.06662 0.84882 0.42049 0.0
C773 C 0.07019 0.85112 0.45881 0.0
C774 C 0.04866 0.8458 0.46124 0.0
C775 C 0.03607 0.84202 0.44318 0.0
C776 C 0.04497 0.84359 0.42292 0.0
C777 C 0.03993 0.84287 0.48279 0.0
C778 C 0.03119 0.82298 0.48811 0.0
C779 C 0.0425 0.85865 0.49866 0.0
C780 C 0.05031 0.88044 0.4936 0.0
C781 C 0.04066 0.8922 0.47744 0.0
C782 C 0.04822 0.91259 0.47253 0.0
C783 C 0.06537 0.92145 0.48374 0.0
C784 C 0.07496 0.90995 0.49992 0.0
C785 C 0.06748 0.88955 0.50488 0.0
H786 H 0.0712 0.93723 0.47991 0.0
H787 H 0.99238 0.74129 0.52769 0.0
H788 H 0.46566 0.73327 0.79912 0.0
H789 H 0.44929 0.75423 0.77111 0.0
H790 H 0.48895 0.8081 0.78825 0.0
H791 H 0.50598 0.78694 0.81592 0.0
H792 H 0.43889 0.81042 0.78835 0.0
H793 H 0.50061 0.79493 0.7465 0.0
H794 H 0.52726 0.77126 0.73126 0.0
H795 H 0.47817 0.73623 0.69838 0.0
H796 H 0.45116 0.75948 0.71374 0.0
H797 H 0.39536 0.87463 0.70652 0.0
H798 H 0.41718 0.85769 0.73343 0.0
H799 H 0.40501 0.79677 0.70389 0.0
H800 H 0.38408 0.81385 0.6764 0.0
H801 H 0.44482 0.80104 0.71046 0.0
H802 H 0.38307 0.81209 0.75314 0.0
H803 H 0.35437 0.83242 0.76954 0.0
H804 H 0.40037 0.87197 0.80181 0.0
H805 H 0.42936 0.85203 0.78539 0.0
C806 C 0.47119 0.74944 0.79657 0.0
C807 C 0.48697 0.75859 0.80959 0.0
C808 C 0.46187 0.76134 0.78065 0.0
C809 C 0.46796 0.78261 0.77782 0.0
C810 C 0.48419 0.79164 0.79031 0.0
C811 C 0.49391 0.77956 0.80595 0.0
C812 C 0.45595 0.79563 0.76295 0.0
C813 C 0.44041 0.80883 0.77128 0.0
C814 C 0.45761 0.79274 0.74085 0.0
C815 C 0.47384 0.77884 0.73144 0.0
C816 C 0.49547 0.78205 0.73619 0.0
C817 C 0.51065 0.76874 0.72749 0.0
C818 C 0.50441 0.75222 0.7139 0.0
C819 C 0.48298 0.74902 0.70893 0.0
C820 C 0.46773 0.76228 0.71762 0.0
C821 C 0.397 0.85757 0.70609 0.0
C822 C 0.38811 0.84549 0.68946 0.0
C823 C 0.40946 0.8479 0.72145 0.0
C824 C 0.41271 0.82594 0.7207 0.0
C825 C 0.40288 0.81376 0.70466 0.0
C826 C 0.39083 0.82348 0.68907 0.0
C827 C 0.42731 0.81575 0.73577 0.0
C828 C 0.44336 0.80298 0.72749 0.0
C829 C 0.42579 0.81869 0.75798 0.0
C830 C 0.40838 0.83073 0.76784 0.0
C831 C 0.38706 0.82524 0.76359 0.0
C832 C 0.37074 0.83667 0.77292 0.0
C833 C 0.37554 0.85352 0.78665 0.0
C834 C 0.39668 0.85894 0.79114 0.0
C835 C 0.41306 0.84757 0.78184 0.0
H836 H 0.36288 0.86235 0.79386 0.0
H837 H 0.51619 0.74193 0.70718 0.0
H838 H 0.39547 0.22503 0.07892 0.0
H839 H 0.38603 0.20041 0.05081 0.0
H840 H 0.43816 0.16066 0.0683 0.0
H841 H 0.44825 0.1859 0.09631 0.0
H842 H 0.44058 0.16727 0.029 0.0
H843 H 0.38542 0.14118 0.07 0.0
H844 H 0.35546 0.13979 0.09504 0.0
H845 H 0.31758 0.1752 0.05158 0.0
H846 H 0.34739 0.17711 0.02639 0.0
H847 H 0.36413 0.12862 0.93594 0.0
H848 H 0.37345 0.12783 0.97355 0.0
H849 H 0.41427 0.18291 0.96495 0.0
H850 H 0.40574 0.18319 0.92721 0.0
H851 H 0.36714 0.1521 0.0042 0.0
H852 H 0.45565 0.18431 -0.00307 0.0
H853 H 0.48581 0.17924 0.97275 0.0
H854 H 0.45813 0.12029 0.95115 0.0
H855 H 0.42821 0.12458 0.9757 0.0
C856 C 0.40473 0.21086 0.07716 0.0
C857 C 0.42282 0.20762 0.08968 0.0
C858 C 0.39914 0.19658 0.06115 0.0
C859 C 0.41126 0.17852 0.05746 0.0
C860 C 0.42856 0.17449 0.07083 0.0
C861 C 0.43428 0.18891 0.08686 0.0
C862 C 0.40754 0.16604 0.03776 0.0
C863 C 0.42456 0.16361 0.02368 0.0
C864 C 0.3868 0.16011 0.03113 0.0
C865 C 0.36872 0.15928 0.04626 0.0
C866 C 0.37076 0.1488 0.06582 0.0
C867 C 0.35378 0.1479 0.08004 0.0
C868 C 0.33463 0.15739 0.0749 0.0
C869 C 0.33242 0.16781 0.05552 0.0
C870 C 0.34935 0.16877 0.04123 0.0
C871 C 0.37513 0.14055 0.94209 0.0
C872 C 0.38423 0.15599 0.92864 0.0
C873 C 0.38048 0.14002 0.96358 0.0
C874 C 0.39486 0.15505 0.97206 0.0
C875 C 0.40364 0.17072 0.95869 0.0
C876 C 0.39861 0.17102 0.93714 0.0
C877 C 0.39996 0.15526 -0.00495 0.0
C878 C 0.38321 0.15518 0.00969 0.0
C879 C 0.42107 0.15783 0.00243 0.0
C880 C 0.43956 0.15484 0.98816 0.0
C881 C 0.45611 0.17012 0.98725 0.0
C882 C 0.47319 0.16738 0.97345 0.0
C883 C 0.47392 0.14944 0.96044 0.0
C884 C 0.45762 0.13415 0.96128 0.0
C885 C 0.4406 0.13672 0.97515 0.0
H886 H 0.4871 0.1474 0.9497 0.0
H887 H 0.32149 0.15665 0.08592 0.0
H888 H 0.96581 0.81396 0.15586 0.0
H889 H 0.99268 0.82878 0.17979 0.0
H890 H 0.04176 0.79945 0.14287 0.0
H891 H 0.01478 0.78375 0.11946 0.0
H892 H 0.04823 0.79088 0.18098 0.0
H893 H 0.03515 0.85528 0.146 0.0
H894 H 0.01525 0.8847 0.13049 0.0
H895 H 0.99082 0.90048 0.19195 0.0
H896 H 0.0102 0.87093 0.2078 0.0
H897 H 0.0966 0.87256 0.2646 0.0
H898 H 0.08655 0.86354 0.22821 0.0
H899 H 0.05227 0.80817 0.25075 0.0
H900 H 0.06258 0.8167 0.28698 0.0
H901 H 0.04831 0.8628 0.21287 0.0
H902 H 0.04962 0.77008 0.2153 0.0
H903 H 0.07244 0.74229 0.22971 0.0
H904 H 0.12573 0.78575 0.22973 0.0
H905 H 0.10332 0.81372 0.21503 0.0
C906 C 0.98235 0.81094 0.15267 0.0
C907 C 0.9882 0.79756 0.13593 0.0
C908 C -0.00225 0.81958 0.16625 0.0
C909 C 0.01932 0.81546 0.16303 0.0
C910 C 0.02523 0.80284 0.14572 0.0
C911 C 0.00981 0.79386 0.13237 0.0
C912 C 0.03529 0.82224 0.1791 0.0
C913 C 0.04843 0.80671 0.18773 0.0
C914 C 0.03608 0.84306 0.18758 0.0
C915 C 0.02406 0.86072 0.17807 0.0
C916 C 0.02537 0.86487 0.15619 0.0
C917 C 0.01419 0.88161 0.14734 0.0
C918 C 0.00175 0.89442 0.16022 0.0
C919 C 0.00045 0.89053 0.18199 0.0
C920 C 0.01154 0.87379 0.19092 0.0
C921 C 0.0873 0.8582 0.26179 0.0
C922 C 0.08031 0.84539 0.27875 0.0
C923 C 0.08156 0.85311 0.24097 0.0
C924 C 0.06882 0.83512 0.23676 0.0
C925 C 0.06248 0.82191 0.25357 0.0
C926 C 0.06828 0.8269 0.27434 0.0
C927 C 0.06019 0.83116 0.21527 0.0
C928 C 0.04846 0.84717 0.20568 0.0
C929 C 0.06105 0.81097 0.2056 0.0
C930 C 0.07473 0.79405 0.21411 0.0
C931 C 0.06624 0.77368 0.21821 0.0
C932 C 0.0791 0.7579 0.22648 0.0
C933 C 0.10051 0.76226 0.23066 0.0
C934 C 0.10913 0.7824 0.22654 0.0
C935 C 0.09634 0.79824 0.21826 0.0
H936 H 0.11044 0.75002 0.23709 0.0
H937 H 0.99314 0.90739 0.15333 0.0
H938 H 0.4516 0.7344 0.46458 0.0
H939 H 0.42981 0.75934 0.48427 0.0
H940 H 0.48292 0.80335 0.48817 0.0
H941 H 0.50479 0.7786 0.46836 0.0
H942 H 0.4583 0.79966 0.52599 0.0
H943 H 0.44926 0.81006 0.45038 0.0
H944 H 0.44102 0.7976 0.41413 0.0
H945 H 0.37848 0.77825 0.434 0.0
H946 H 0.38648 0.79026 0.47048 0.0
H947 H 0.40581 0.88707 0.55961 0.0
H948 H 0.42603 0.86821 0.53276 0.0
H949 H 0.37251 0.82594 0.52165 0.0
H950 H 0.35202 0.84502 0.54793 0.0
H951 H 0.39748 0.82923 0.48643 0.0
H952 H 0.40526 0.8145 0.56048 0.0
H953 H 0.4115 0.82377 0.59806 0.0
H954 H 0.47397 0.84732 0.5827 0.0
H955 H 0.46793 0.83847 0.54495 0.0
C956 C 0.45878 0.74917 0.47005 0.0
C957 C 0.47983 0.75468 0.46479 0.0
C958 C 0.44628 0.76343 0.48114 0.0
C959 C 0.45472 0.78326 0.48724 0.0
C960 C 0.47614 0.78815 0.48341 0.0
C961 C 0.48859 0.774 0.47214 0.0
C962 C 0.44097 0.79943 0.49656 0.0
C963 C 0.44521 0.80638 0.51725 0.0
C964 C 0.42355 0.80765 0.48525 0.0
C965 C 0.41855 0.80089 0.46321 0.0
C966 C 0.4338 0.80302 0.44705 0.0
C967 C 0.42917 0.79604 0.42646 0.0
C968 C 0.40926 0.78708 0.42177 0.0
C969 C 0.39391 0.78517 0.43766 0.0
C970 C 0.39848 0.79207 0.45829 0.0
C971 C 0.39804 0.87437 0.55077 0.0
C972 C 0.37754 0.86718 0.55626 0.0
C973 C 0.40962 0.86357 0.53548 0.0
C974 C 0.40095 0.84527 0.52583 0.0
C975 C 0.37954 0.83991 0.5291 0.0
C976 C 0.36783 0.85088 0.54417 0.0
C977 C 0.41502 0.82972 0.51578 0.0
C978 C 0.41074 0.82273 0.49505 0.0
C979 C 0.43217 0.82106 0.52719 0.0
C980 C 0.43605 0.82605 0.5499 0.0
C981 C 0.42027 0.82178 0.56512 0.0
C982 C 0.42377 0.82695 0.58643 0.0
C983 C 0.44309 0.83619 0.59275 0.0
C984 C 0.45899 0.8402 0.57777 0.0
C985 C 0.45554 0.83511 0.55642 0.0
H986 H 0.44578 0.8402 0.60925 0.0
H987 H 0.40572 0.78167 0.40582 0.0
H988 H 0.42834 0.19428 0.61903 0.0
H989 H 0.41177 0.1819 0.65182 0.0
H990 H 0.38902 0.24479 0.66392 0.0
H991 H 0.40524 0.25725 0.63095 0.0
H992 H 0.41978 0.22991 0.6928 0.0
H993 H 0.35361 0.20745 0.66324 0.0
H994 H 0.32945 0.18924 0.63804 0.0
H995 H 0.35497 0.12917 0.65559 0.0
H996 H 0.3795 0.14703 0.6807 0.0
H997 H 0.39478 0.19817 0.7982 0.0
H998 H 0.39381 0.21302 0.76251 0.0
H999 H 0.40391 0.15087 0.73599 0.0
H1000 H 0.40409 0.1358 0.77163 0.0
H1001 H 0.37405 0.16908 0.71488 0.0
H1002 H 0.4437 0.19059 0.73894 0.0
H1003 H 0.47037 0.20763 0.7624 0.0
H1004 H 0.44135 0.26791 0.75327 0.0
H1005 H 0.41429 0.25117 0.72997 0.0
C1006 C 0.419 0.20525 0.62819 0.0
C1007 C 0.41841 0.2268 0.62267 0.0
C1008 C 0.40947 0.19814 0.64688 0.0
C1009 C 0.39941 0.21253 0.66034 0.0
C1010 C 0.39675 0.2335 0.65369 0.0
C1011 C 0.40599 0.24055 0.6348 0.0
C1012 C 0.39617 0.20683 0.6828 0.0
C1013 C 0.40934 0.21698 0.6978 0.0
C1014 C 0.38316 0.18947 0.68897 0.0
C1015 C 0.36852 0.17863 0.67378 0.0
C1016 C 0.35422 0.19038 0.6616 0.0
C1017 C 0.34042 0.18011 0.64736 0.0
C1018 C 0.3407 0.15807 0.64519 0.0
C1019 C 0.35477 0.14625 0.65728 0.0
C1020 C 0.3686 0.15643 0.67156 0.0
C1021 C 0.39712 0.18772 0.78478 0.0
C1022 C 0.39962 0.16583 0.7877 0.0
C1023 C 0.39651 0.19623 0.76437 0.0
C1024 C 0.3989 0.18308 0.74657 0.0
C1025 C 0.40189 0.16129 0.7495 0.0
C1026 C 0.40215 0.15272 0.76986 0.0
C1027 C 0.39803 0.19189 0.72483 0.0
C1028 C 0.38417 0.18229 0.70999 0.0
C1029 C 0.41075 0.20954 0.71864 0.0
C1030 C 0.4268 0.21957 0.73294 0.0
C1031 C 0.44286 0.20744 0.74211 0.0
C1032 C 0.45808 0.21705 0.75535 0.0
C1033 C 0.45751 0.23883 0.75938 0.0
C1034 C 0.44173 0.25104 0.75018 0.0
C1035 C 0.42645 0.2415 0.73696 0.0
H1036 H 0.46933 0.24624 0.76959 0.0
H1037 H 0.33 0.15015 0.63416 0.0
H1038 H 0.03878 0.23778 0.94585 0.0
H1039 H 0.05285 0.21396 0.97266 0.0
H1040 H 0.01764 0.16155 0.94465 0.0
H1041 H 0.00292 0.18548 0.91826 0.0
H1042 H 0.01259 0.16047 0.98506 0.0
H1043 H 0.07291 0.16734 0.93997 0.0
H1044 H 0.10092 0.18543 0.91914 0.0
H1045 H 0.12521 0.21529 0.97572 0.0
H1046 H 0.09712 0.19769 -0.00317 0.0
H1047 H 0.10428 0.10734 0.05039 0.0
H1048 H 0.08735 0.11802 0.01744 0.0
H1049 H 0.04361 0.15612 0.05275 0.0
H1050 H 0.06033 0.14547 0.08589 0.0
H1051 H 0.08866 0.15826 0.00476 0.0
H1052 H -0.00216 0.16109 0.02318 0.0
H1053 H 0.97023 0.13936 0.04096 0.0
H1054 H 0.00818 0.08407 0.03387 0.0
H1055 H 0.03589 0.10536 0.0158 0.0
C1056 C 0.03423 0.22114 0.94527 0.0
C1057 C 0.01975 0.21349 0.93 0.0
C1058 C 0.04235 0.20751 0.96055 0.0
C1059 C 0.03647 0.1859 0.96055 0.0
C1060 C 0.02236 0.17816 0.94499 0.0
C1061 C 0.01403 0.19184 0.92989 0.0
C1062 C 0.04421 0.17165 0.97744 0.0
C1063 C 0.02924 0.1599 0.98931 0.0
C1064 C 0.06599 0.17048 0.98266 0.0
C1065 C 0.08278 0.1813 0.96996 0.0
C1066 C 0.0841 0.17792 0.94794 0.0
C1067 C 0.10001 0.18807 0.93609 0.0
C1068 C 0.1148 0.20154 0.94609 0.0
C1069 C 0.11372 0.20488 0.96798 0.0
C1070 C 0.09782 0.19481 0.9799 0.0
C1071 C 0.09079 0.11766 0.05126 0.0
C1072 C 0.08394 0.12589 0.0708 0.0
C1073 C 0.08113 0.12371 0.03237 0.0
C1074 C 0.06433 0.13792 0.03267 0.0
C1075 C 0.05647 0.14501 0.05219 0.0
C1076 C 0.06616 0.13901 0.07113 0.0
C1077 C 0.05699 0.14759 0.01269 0.0
C1078 C 0.07204 0.15861 0.00033 0.0
C1079 C 0.03537 0.14771 0.00679 0.0
C1080 C 0.01903 0.1349 0.01823 0.0
C1081 C 0.00028 0.14429 0.02535 0.0
C1082 C 0.98458 0.13203 0.03544 0.0
C1083 C 0.98739 0.11033 0.03841 0.0
C1084 C 0.00599 0.10087 0.03147 0.0
C1085 C 0.02174 0.11305 0.02139 0.0
H1086 H 0.97525 0.10088 0.04627 0.0
H1087 H 0.12712 0.20936 0.93688 0.0
H1088 H 0.35861 0.06237 0.22299 0.0
H1089 H 0.33339 0.08664 0.20706 0.0
H1090 H 0.31309 0.03752 0.16332 0.0
H1091 H 0.33854 0.01349 0.17867 0.0
H1092 H 0.30777 0.07565 0.14595 0.0
H1093 H 0.29156 0.04018 0.21332 0.0
H1094 H 0.29853 0.03228 0.25099 0.0
H1095 H 0.29594 0.0986 0.26613 0.0
H1096 H 0.28919 0.10687 0.22846 0.0
H1097 H 0.18989 0.06668 0.17339 0.0
H1098 H 0.22723 0.06417 0.18285 0.0
H1099 H 0.2423 0.11786 0.14286 0.0
H1100 H 0.20496 0.11985 0.1326 0.0
H1101 H 0.25438 0.08834 0.20208 0.0
H1102 H 0.29291 0.11197 0.12341 0.0
H1103 H 0.2844 0.11411 0.08524 0.0
H1104 H 0.23902 0.06285 0.09178 0.0
H1105 H 0.24746 0.06029 0.12992 0.0
C1106 C 0.34926 0.057 0.20951 0.0
C1107 C 0.35007 0.03587 0.20244 0.0
C1108 C 0.33491 0.0709 0.20041 0.0
C1109 C 0.32103 0.06368 0.1844 0.0
C1110 C 0.32359 0.04339 0.17574 0.0
C1111 C 0.33804 0.02958 0.18467 0.0
C1112 C 0.30141 0.07511 0.17949 0.0
C1113 C 0.29621 0.07889 0.15821 0.0
C1114 C 0.28627 0.07909 0.1955 0.0
C1115 C 0.29015 0.07415 0.21812 0.0
C1116 C 0.29259 0.05306 0.2247 0.0
C1117 C 0.2965 0.04852 0.24602 0.0
C1118 C 0.29775 0.06494 0.26094 0.0
C1119 C 0.29503 0.08592 0.25455 0.0
C1120 C 0.29117 0.09054 0.23323 0.0
C1121 C 0.20114 0.078 0.16667 0.0
C1122 C 0.19458 0.09329 0.15209 0.0
C1123 C 0.22247 0.07663 0.17215 0.0
C1124 C 0.2376 0.09072 0.16341 0.0
C1125 C 0.23097 0.10658 0.14948 0.0
C1126 C 0.20965 0.10769 0.14366 0.0
C1127 C 0.26031 0.08791 0.16842 0.0
C1128 C 0.26613 0.08594 0.18979 0.0
C1129 C 0.27573 0.08491 0.15242 0.0
C1130 C 0.2706 0.08616 0.12952 0.0
C1131 C 0.28113 0.10116 0.11667 0.0
C1132 C 0.27633 0.10244 0.09505 0.0
C1133 C 0.26111 0.08869 0.08611 0.0
C1134 C 0.25074 0.07356 0.09875 0.0
C1135 C 0.25551 0.0722 0.12036 0.0
H1136 H 0.2574 0.08971 0.06938 0.0
H1137 H 0.30077 0.0614 0.27744 0.0
H1138 H 0.2439 0.05799 0.4161 0.0
H1139 H 0.21765 0.03058 0.4063 0.0
H1140 H 0.195 0.02861 0.47078 0.0
H1141 H 0.22096 0.05634 0.4807 0.0
H1142 H 0.20248 0.98727 0.4495 0.0
H1143 H 0.16572 0.05272 0.44114 0.0
H1144 H 0.1615 0.08933 0.42845 0.0
H1145 H 0.16629 0.06794 0.36394 0.0
H1146 H 0.17089 0.03122 0.37627 0.0
H1147 H 0.11838 0.91844 0.41748 0.0
H1148 H 0.13621 0.94858 0.43504 0.0
H1149 H 0.1532 0.97443 0.37386 0.0
H1150 H 0.13447 0.94515 0.3564 0.0
H1151 H 0.1456 0.0051 0.39847 0.0
H1152 H 0.18577 0.94068 0.40595 0.0
H1153 H 0.19247 0.90423 0.41766 0.0
H1154 H 0.18338 0.92295 0.48251 0.0
H1155 H 0.17646 0.95956 0.47109 0.0
C1156 C 0.23344 0.05163 0.42823 0.0
C1157 C 0.23439 0.05937 0.44913 0.0
C1158 C 0.21844 0.03605 0.42259 0.0
C1159 C 0.20438 0.02779 0.43782 0.0
C1160 C 0.20573 0.03492 0.45885 0.0
C1161 C 0.22048 0.05077 0.46443 0.0
C1162 C 0.18799 0.01202 0.43151 0.0
C1163 C 0.18977 0.99113 0.43863 0.0
C1164 C 0.17174 0.0172 0.41712 0.0
C1165 C 0.16884 0.03925 0.40964 0.0
C1166 C 0.16607 0.05585 0.42425 0.0
C1167 C 0.16357 0.07661 0.41712 0.0
C1168 C 0.16367 0.08097 0.3954 0.0
C1169 C 0.16623 0.06455 0.38076 0.0
C1170 C 0.16877 0.04375 0.38781 0.0
C1171 C 0.12552 0.93086 0.40785 0.0
C1172 C 0.12511 0.92947 0.3856 0.0
C1173 C 0.13585 0.94796 0.41787 0.0
C1174 C 0.14656 0.96348 0.40578 0.0
C1175 C 0.14512 0.96265 0.38356 0.0
C1176 C 0.13435 0.9459 0.37357 0.0
C1177 C 0.16032 0.97996 0.41592 0.0
C1178 C 0.15807 0.00112 0.40955 0.0
C1179 C 0.17635 0.97491 0.4308 0.0
C1180 C 0.1804 0.95285 0.43762 0.0
C1181 C 0.18512 0.93704 0.42267 0.0
C1182 C 0.18896 0.91633 0.42927 0.0
C1183 C 0.1883 0.91125 0.45082 0.0
C1184 C 0.18385 0.92689 0.46581 0.0
C1185 C 0.17997 0.94763 0.45928 0.0
H1186 H 0.19127 0.89521 0.4559 0.0
H1187 H 0.16173 0.09705 0.38992 0.0
H1188 H 0.15867 0.88506 0.7876 0.0
H1189 H 0.18336 0.8632 0.7679 0.0
H1190 H 0.16154 0.88997 0.70912 0.0
H1191 H 0.13671 0.91187 0.7286 0.0
H1192 H 0.17709 0.84668 0.70558 0.0
H1193 H 0.19715 0.91725 0.73185 0.0
H1194 H 0.20034 0.94434 0.76004 0.0
H1195 H 0.23896 0.90276 0.79678 0.0
H1196 H 0.23569 0.87529 0.76889 0.0
H1197 H 0.26473 0.87011 0.63926 0.0
H1198 H 0.23263 0.86551 0.6604 0.0
H1199 H 0.27051 0.84884 0.71474 0.0
H1200 H 0.30273 0.85416 0.69385 0.0
H1201 H 0.24668 0.88006 0.72401 0.0
H1202 H 0.23388 0.81309 0.69112 0.0
H1203 H 0.23037 0.78743 0.66171 0.0
H1204 H 0.1786 0.82236 0.63599 0.0
H1205 H 0.18199 0.84843 0.66507 0.0
C1206 C 0.15857 0.88579 0.77044 0.0
C1207 C 0.14622 0.90067 0.75968 0.0
C1208 C 0.1726 0.87317 0.75921 0.0
C1209 C 0.17444 0.87529 0.73715 0.0
C1210 C 0.16031 0.88815 0.72617 0.0
C1211 C 0.1463 0.90083 0.73737 0.0
C1212 C 0.19384 0.86836 0.72636 0.0
C1213 C 0.19239 0.8538 0.70955 0.0
C1214 C 0.21372 0.87758 0.73182 0.0
C1215 C 0.21596 0.89415 0.74845 0.0
C1216 C 0.20619 0.91384 0.74602 0.0
C1217 C 0.20802 0.92926 0.76192 0.0
C1218 C 0.21979 0.92525 0.78022 0.0
C1219 C 0.22981 0.90583 0.78262 0.0
C1220 C 0.22797 0.89033 0.76677 0.0
C1221 C 0.2662 0.86503 0.65558 0.0
C1222 C 0.28623 0.86286 0.66502 0.0
C1223 C 0.2478 0.8622 0.66762 0.0
C1224 C 0.24914 0.85672 0.68915 0.0
C1225 C 0.26911 0.85311 0.69816 0.0
C1226 C 0.2875 0.85625 0.68624 0.0
C1227 C 0.23025 0.85823 0.70295 0.0
C1228 C 0.23168 0.87216 0.7203 0.0
C1229 C 0.21046 0.84849 0.69777 0.0
C1230 C 0.20828 0.83279 0.68026 0.0
C1231 C 0.22184 0.81539 0.67912 0.0
C1232 C 0.21985 0.80075 0.66251 0.0
C1233 C 0.20429 0.80328 0.64698 0.0
C1234 C 0.19065 0.82042 0.64804 0.0
C1235 C 0.19257 0.83512 0.66461 0.0
H1236 H 0.20278 0.79193 0.63413 0.0
H1237 H 0.22119 0.9372 0.79252 0.0
H1238 H 0.31001 0.91758 0.97189 0.0
H1239 H 0.32868 0.94455 0.95095 0.0
H1240 H 0.26969 0.9766 0.94063 0.0
H1241 H 0.2508 0.94908 0.9608 0.0
H1242 H 0.29099 0.97647 0.90577 0.0
H1243 H 0.30769 0.99344 0.97843 0.0
H1244 H 0.32097 0.9867 0.01456 0.0
H1245 H 0.38263 0.97355 0.98952 0.0
H1246 H 0.36962 0.97998 0.9532 0.0
H1247 H 0.32921 0.08526 0.90383 0.0
H1248 H 0.31729 0.05146 0.91851 0.0
H1249 H 0.36354 0.01893 0.88093 0.0
H1250 H 0.37518 0.05278 0.86523 0.0
H1251 H 0.35262 0.01612 0.93629 0.0
H1252 H 0.33294 0.00129 0.86199 0.0
H1253 H 0.31649 0.00887 0.82739 0.0
H1254 H 0.2572 0.02083 0.85811 0.0
H1255 H 0.27347 0.01386 0.89297 0.0
C1256 C 0.30104 0.9304 0.96515 0.0
C1257 C 0.279 0.93139 0.96803 0.0
C1258 C 0.31174 0.94581 0.95325 0.0
C1259 C 0.30064 0.96276 0.94451 0.0
C1260 C 0.27857 0.96364 0.94722 0.0
C1261 C 0.2678 0.94799 0.9588 0.0
C1262 C 0.31198 0.97972 0.93267 0.0
C1263 C 0.30447 0.98513 0.91248 0.0
C1264 C 0.32978 0.9908 0.94127 0.0
C1265 C 0.33762 0.98694 0.96309 0.0
C1266 C 0.32403 0.98895 0.98062 0.0
C1267 C 0.33152 0.98521 0.00113 0.0
C1268 C 0.35261 0.97963 0.00433 0.0
C1269 C 0.36628 0.97783 0.98702 0.0
C1270 C 0.35887 0.98153 0.96647 0.0
C1271 C 0.33694 0.07099 0.8986 0.0
C1272 C 0.35299 0.07172 0.88311 0.0
C1273 C 0.33002 0.0517 0.90697 0.0
C1274 C 0.33925 0.03285 0.90037 0.0
C1275 C 0.35597 0.03342 0.88577 0.0
C1276 C 0.36269 0.05275 0.87701 0.0
C1277 C 0.33152 0.0128 0.90959 0.0
C1278 C 0.33952 0.00702 0.92943 0.0
C1279 C 0.3139 0.00168 0.90088 0.0
C1280 C 0.30453 0.00735 0.88011 0.0
C1281 C 0.31653 0.00598 0.86142 0.0
C1282 C 0.30719 0.01 0.84174 0.0
C1283 C 0.28578 0.01517 0.84054 0.0
C1284 C 0.27374 0.01666 0.85905 0.0
C1285 C 0.28304 0.01277 0.87877 0.0
H1286 H 0.27855 0.01818 0.82528 0.0
H1287 H 0.35838 0.97675 0.02022 0.0
H1288 H 0.33955 0.92339 0.27236 0.0
H1289 H 0.30846 0.9042 0.28619 0.0
H1290 H 0.27323 0.96223 0.28579 0.0
H1291 H 0.30463 0.9816 0.27316 0.0
H1292 H 0.26339 0.94236 0.31889 0.0
H1293 H 0.26862 0.92244 0.24573 0.0
H1294 H 0.28567 0.90842 0.21358 0.0
H1295 H 0.2931 0.84818 0.24398 0.0
H1296 H 0.27631 0.86194 0.27642 0.0
H1297 H 0.16126 0.8816 0.29496 0.0
H1298 H 0.1965 0.89304 0.28307 0.0
H1299 H 0.22131 0.88299 0.34597 0.0
H1300 H 0.18615 0.87145 0.35805 0.0
H1301 H 0.23678 0.87732 0.28229 0.0
H1302 H 0.25069 0.92923 0.35793 0.0
H1303 H 0.23013 0.94926 0.3843 0.0
H1304 H 0.17808 0.9528 0.34057 0.0
H1305 H 0.1984 0.93313 0.31386 0.0
C1306 C 0.32517 0.932 0.27537 0.0
C1307 C 0.32436 0.9539 0.27166 0.0
C1308 C 0.30741 0.92103 0.28315 0.0
C1309 C 0.28839 0.93168 0.28666 0.0
C1310 C 0.28773 0.95366 0.28324 0.0
C1311 C 0.30564 0.96472 0.27598 0.0
C1312 C 0.26903 0.92003 0.29367 0.0
C1313 C 0.25771 0.92805 0.31097 0.0
C1314 C 0.2613 0.9016 0.28304 0.0
C1315 C 0.27143 0.8933 0.26357 0.0
C1316 C 0.27404 0.90626 0.24561 0.0
C1317 C 0.28363 0.89835 0.22733 0.0
C1318 C 0.29052 0.87744 0.22676 0.0
C1319 C 0.28779 0.86438 0.24446 0.0
C1320 C 0.27822 0.87222 0.26279 0.0
C1321 C 0.17431 0.88136 0.30615 0.0
C1322 C 0.1709 0.87589 0.3275 0.0
C1323 C 0.19442 0.88782 0.29931 0.0
C1324 C 0.21132 0.88913 0.31376 0.0
C1325 C 0.20834 0.88224 0.33468 0.0
C1326 C 0.18827 0.87557 0.3415 0.0
C1327 C 0.23138 0.89968 0.30745 0.0
C1328 C 0.24278 0.89142 0.29037 0.0
C1329 C 0.23868 0.91846 0.31763 0.0
C1330 C 0.22598 0.92943 0.33401 0.0
C1331 C 0.23482 0.9342 0.35399 0.0
C1332 C 0.22323 0.94555 0.36896 0.0
C1333 C 0.20284 0.95232 0.36407 0.0
C1334 C 0.19387 0.94753 0.34433 0.0
C1335 C 0.20539 0.93622 0.32929 0.0
H1336 H 0.19404 0.96144 0.37551 0.0
H1337 H 0.29793 0.87134 0.21259 0.0
H1338 H 0.33849 0.06436 0.49226 0.0
H1339 H 0.34699 0.03966 0.52055 0.0
H1340 H 0.31711 0.08022 0.56625 0.0
H1341 H 0.30839 0.10504 0.53806 0.0
H1342 H 0.35545 0.04707 0.57921 0.0
H1343 H 0.28193 0.05571 0.55141 0.0
H1344 H 0.25873 0.06263 0.52069 0.0
H1345 H 0.28484 0.00963 0.48759 0.0
H1346 H 0.30845 0.00267 0.51798 0.0
H1347 H 0.32322 0.95519 0.63951 0.0
H1348 H 0.32303 0.99108 0.62472 0.0
H1349 H 0.32278 0.96473 0.56143 0.0
H1350 H 0.32208 0.92924 0.57585 0.0
H1351 H 0.29733 -0.00464 0.56251 0.0
H1352 H 0.36934 0.98475 0.58869 0.0
H1353 H 0.39754 0.97949 0.61526 0.0
H1354 H 0.37804 0.03504 0.64893 0.0
H1355 H 0.34966 0.04054 0.62265 0.0
C1356 C 0.33466 0.06858 0.50845 0.0
C1357 C 0.32215 0.08619 0.51291 0.0
C1358 C 0.33965 0.05451 0.52462 0.0
C1359 C 0.33231 0.05808 0.54528 0.0
C1360 C 0.32285 0.0773 0.55034 0.0
C1361 C 0.3177 0.09132 0.53416 0.0
C1362 C 0.32869 0.03974 0.55918 0.0
C1363 C 0.3426 0.03584 0.57594 0.0
C1364 C 0.31193 0.02525 0.55463 0.0
C1365 C 0.29699 0.02876 0.53686 0.0
C1366 C 0.28273 0.04558 0.53754 0.0
C1367 C 0.26954 0.04952 0.5202 0.0
C1368 C 0.27034 0.03659 0.50219 0.0
C1369 C 0.28425 0.01963 0.50154 0.0
C1370 C 0.29752 0.01568 0.51881 0.0
C1371 C 0.32274 0.95709 0.62244 0.0
C1372 C 0.32269 0.93932 0.60887 0.0
C1373 C 0.32287 0.9776 0.61404 0.0
C1374 C 0.32326 0.98057 0.59198 0.0
C1375 C 0.32248 0.96284 0.57851 0.0
C1376 C 0.32205 0.94248 0.58683 0.0
C1377 C 0.32459 0.00194 0.58242 0.0
C1378 C 0.31001 0.00662 0.56634 0.0
C1379 C 0.3409 0.01692 0.58756 0.0
C1380 C 0.35723 0.0129 0.60388 0.0
C1381 C 0.3709 -0.00433 0.60193 0.0
C1382 C 0.38696 0.99269 0.61689 0.0
C1383 C 0.38953 0.00691 0.63378 0.0
C1384 C 0.37599 0.02403 0.63585 0.0
C1385 C 0.35994 0.02709 0.62094 0.0
H1386 H 0.40213 0.00484 0.64518 0.0
H1387 H 0.26018 0.03969 0.48876 0.0
H1388 H 0.16025 0.025 0.77333 0.0
H1389 H 0.1908 0.04932 0.77382 0.0
H1390 H 0.22429 0.00631 0.81451 0.0
H1391 H 0.19324 0.9824 0.81491 0.0
H1392 H 0.23072 0.04297 0.82843 0.0
H1393 H 0.23593 0.01314 0.75971 0.0
H1394 H 0.22424 0.00175 0.72405 0.0
H1395 H 0.21231 0.06638 0.70738 0.0
H1396 H 0.22364 0.07815 0.74306 0.0
H1397 H 0.33186 0.09448 0.7924 0.0
H1398 H 0.30105 0.07374 0.78038 0.0
H1399 H 0.26016 0.11312 0.81764 0.0
H1400 H 0.29077 0.13395 0.82984 0.0
H1401 H 0.26011 0.07622 0.7632 0.0
H1402 H 0.23375 0.07698 0.85226 0.0
H1403 H 0.24984 0.08266 0.88758 0.0
H1404 H 0.31098 0.06748 0.86248 0.0
H1405 H 0.29527 0.06131 0.82738 0.0
C1406 C 0.17414 0.02074 0.78238 0.0
C1407 C 0.17439 0.00186 0.79414 0.0
C1408 C 0.19168 0.03457 0.78249 0.0
C1409 C 0.21004 0.0295 0.79386 0.0
C1410 C 0.21031 0.01058 0.8056 0.0
C1411 C 0.19258 -0.00306 0.80586 0.0
C1412 C 0.22854 0.04442 0.79433 0.0
C1413 C 0.23706 0.05021 0.81413 0.0
C1414 C 0.2373 0.05349 0.77564 0.0
C1415 C 0.23047 0.0465 0.75414 0.0
C1416 C 0.23066 0.02492 0.7485 0.0
C1417 C 0.22413 0.01839 0.72827 0.0
C1418 C 0.21749 0.03333 0.71348 0.0
C1419 C 0.21743 0.05483 0.71887 0.0
C1420 C 0.22393 0.06144 0.73909 0.0
C1421 C 0.31626 0.09927 0.79746 0.0
C1422 C 0.31386 0.11542 0.81269 0.0
C1423 C 0.29864 0.08743 0.79045 0.0
C1424 C 0.27849 0.09159 0.79862 0.0
C1425 C 0.2757 0.1095 0.81146 0.0
C1426 C 0.29327 0.12136 0.81846 0.0
C1427 C 0.2615 0.07517 0.79726 0.0
C1428 C 0.25348 0.06903 0.7774 0.0
C1429 C 0.25373 0.06509 0.81581 0.0
C1430 C 0.26334 0.06906 0.83703 0.0
C1431 C 0.25063 0.07488 0.85431 0.0
C1432 C 0.2597 0.07815 0.87434 0.0
C1433 C 0.28146 0.07558 0.87731 0.0
C1434 C 0.29418 0.06971 0.86025 0.0
C1435 C 0.28521 0.0664 0.84024 0.0
H1436 H 0.28842 0.07805 0.89284 0.0
H1437 H 0.21244 0.02825 0.69782 0.0
H1438 H 0.21658 0.91395 0.06484 0.0
H1439 H 0.18817 0.93262 0.08218 0.0
H1440 H 0.1428 0.90479 0.03834 0.0
H1441 H 0.17155 0.8865 0.02032 0.0
H1442 H 0.13805 0.94431 0.03821 0.0
H1443 H 0.13801 0.89621 0.09355 0.0
H1444 H 0.15133 0.87143 0.12037 0.0
H1445 H 0.18239 0.92301 0.15331 0.0
H1446 H 0.16958 0.94809 0.12654 0.0
H1447 H 0.10515 0.02348 0.13057 0.0
H1448 H 0.10503 0.98736 0.1164 0.0
H1449 H 0.14664 0.00796 0.06585 0.0
H1450 H 0.14626 0.04403 0.07944 0.0
H1451 H 0.13557 0.96219 0.11479 0.0
H1452 H 0.14373 0.98007 0.02328 0.0
H1453 H 0.12662 0.00294 -0.00305 0.0
H1454 H 0.0718 0.00754 0.03686 0.0
H1455 H 0.0884 0.98441 0.06331 0.0
C1456 C 0.20051 0.91138 0.05916 0.0
C1457 C 0.19634 0.89901 0.04104 0.0
C1458 C 0.18416 0.9219 0.06927 0.0
C1459 C 0.16322 0.92 0.06173 0.0
C1460 C 0.1588 0.90649 0.04447 0.0
C1461 C 0.17525 0.89606 0.03419 0.0
C1462 C 0.14713 0.93485 0.06973 0.0
C1463 C 0.13714 0.94799 0.05498 0.0
C1464 C 0.14492 0.93903 0.09167 0.0
C1465 C 0.15276 0.92408 0.10798 0.0
C1466 C 0.14777 0.90229 0.10645 0.0
C1467 C 0.15523 0.88817 0.12166 0.0
C1468 C 0.16769 0.89564 0.13854 0.0
C1469 C 0.1727 0.91725 0.14025 0.0
C1470 C 0.16528 0.93144 0.12508 0.0
C1471 C 0.114 0.02035 0.11622 0.0
C1472 C 0.12587 0.03658 0.10619 0.0
C1473 C 0.11385 -0.00029 0.10813 0.0
C1474 C 0.12561 -0.00507 0.08993 0.0
C1475 C 0.13694 0.01129 0.07957 0.0
C1476 C 0.13689 0.03194 0.08748 0.0
C1477 C 0.12846 0.97267 0.08309 0.0
C1478 C 0.13578 0.95809 0.09808 0.0
C1479 C 0.12754 0.96679 0.06144 0.0
C1480 C 0.11735 0.98046 0.04533 0.0
C1481 C 0.12794 0.98576 0.02638 0.0
C1482 C 0.11835 -0.00116 0.01144 0.0
C1483 C 0.09814 0.00669 0.01523 0.0
C1484 C 0.08747 0.00147 0.03396 0.0
C1485 C 0.09697 0.9884 0.04894 0.0
H1486 H 0.09076 0.01683 0.00366 0.0
H1487 H 0.17346 0.88469 0.1503 0.0
H1488 H 0.2156 0.33208 0.04146 0.0
H1489 H 0.19184 0.30573 0.05762 0.0
H1490 H 0.24515 0.27718 0.08864 0.0
H1491 H 0.26904 0.30361 0.07279 0.0
H1492 H 0.19128 0.26424 0.05164 0.0
H1493 H 0.22964 0.25587 0.1354 0.0
H1494 H 0.2474 0.27867 0.16215 0.0
H1495 H 0.21592 0.33305 0.1374 0.0
H1496 H 0.19773 0.31054 0.11071 0.0
H1497 H 0.1747 0.16362 0.09349 0.0
H1498 H 0.19084 0.19754 0.08367 0.0
H1499 H 0.14881 0.22988 0.12623 0.0
H1500 H 0.13244 0.19586 0.13635 0.0
H1501 H 0.19025 0.24549 0.12807 0.0
H1502 H 0.13725 0.23103 0.07606 0.0
H1503 H 0.1172 0.20978 0.04965 0.0
H1504 H 0.17322 0.20454 0.01154 0.0
H1505 H 0.19372 0.22547 0.03789 0.0
C1506 C 0.22228 0.3203 0.05186 0.0
C1507 C 0.24424 0.31989 0.05578 0.0
C1508 C 0.20866 0.30528 0.06107 0.0
C1509 C 0.21672 0.28965 0.07445 0.0
C1510 C 0.23857 0.28935 0.07864 0.0
C1511 C 0.25222 0.30438 0.06945 0.0
C1512 C 0.20255 0.27275 0.08288 0.0
C1513 C 0.19092 0.26024 0.06837 0.0
C1514 C 0.20172 0.26789 0.10477 0.0
C1515 C 0.21244 0.28151 0.12093 0.0
C1516 C 0.22642 0.27267 0.13573 0.0
C1517 C 0.23659 0.28555 0.15087 0.0
C1518 C 0.23284 0.3073 0.15144 0.0
C1519 C 0.21887 0.31621 0.1369 0.0
C1520 C 0.20866 0.3034 0.12173 0.0
C1521 C 0.16891 0.17787 0.10093 0.0
C1522 C 0.15211 0.17701 0.11557 0.0
C1523 C 0.17812 0.19725 0.09522 0.0
C1524 C 0.17073 0.21615 0.10397 0.0
C1525 C 0.1546 0.2154 0.11924 0.0
C1526 C 0.14528 0.19596 0.12496 0.0
C1527 C 0.17975 0.23661 0.0967 0.0
C1528 C 0.1904 0.24973 0.1114 0.0
C1529 C 0.17934 0.2423 0.07502 0.0
C1530 C 0.16707 0.22972 0.05906 0.0
C1531 C 0.14535 0.22521 0.06214 0.0
C1532 C 0.13389 0.21324 0.04716 0.0
C1533 C 0.14393 0.20579 0.02895 0.0
C1534 C 0.16546 0.21032 0.02566 0.0
C1535 C 0.177 0.22226 0.04061 0.0
H1536 H 0.13504 0.19653 0.01737 0.0
H1537 H 0.24073 0.31724 0.16317 0.0
H1538 H 0.71186 0.13487 0.91535 0.0
H1539 H 0.6926 0.15856 0.89198 0.0
H1540 H 0.64651 0.16877 0.94117 0.0
H1541 H 0.66561 0.14517 0.96468 0.0
H1542 H 0.64779 0.17124 0.87803 0.0
H1543 H 0.65596 0.21966 0.95375 0.0
H1544 H 0.67624 0.21959 0.98731 0.0
H1545 H 0.72913 0.19211 0.95529 0.0
H1546 H 0.70929 0.1924 0.92152 0.0
H1547 H 0.59941 0.27317 0.87284 0.0
H1548 H 0.61126 0.23709 0.87876 0.0
H1549 H 0.67637 0.25942 0.87852 0.0
H1550 H 0.66472 0.2956 0.8729 0.0
H1551 H 0.66695 0.2391 0.91406 0.0
H1552 H 0.65774 0.22614 0.84002 0.0
H1553 H 0.63895 0.22556 0.8057 0.0
H1554 H 0.59164 0.18295 0.83126 0.0
H1555 H 0.60997 0.18352 0.86586 0.0
C1556 C 0.69709 0.14138 0.92088 0.0
C1557 C 0.6906 0.13876 0.94208 0.0
C1558 C 0.68601 0.15478 0.90741 0.0
C1559 C 0.66844 0.16565 0.91507 0.0
C1560 C 0.66014 0.16054 0.93509 0.0
C1561 C 0.67117 0.14714 0.94855 0.0
C1562 C 0.66275 0.18591 0.9052 0.0
C1563 C 0.65183 0.18614 0.88582 0.0
C1564 C 0.66868 0.20523 0.91518 0.0
C1565 C 0.68106 0.20585 0.93521 0.0
C1566 C 0.67196 0.21373 0.95388 0.0
C1567 C 0.68337 0.21364 0.97293 0.0
C1568 C 0.70394 0.20578 0.97345 0.0
C1569 C 0.71319 0.19814 0.95489 0.0
C1570 C 0.70187 0.19826 0.9358 0.0
C1571 C 0.61628 0.27038 0.87357 0.0
C1572 C 0.63111 0.28735 0.87276 0.0
C1573 C 0.62302 0.24969 0.87684 0.0
C1574 C 0.64468 0.24561 0.87912 0.0
C1575 C 0.65956 0.26229 0.87688 0.0
C1576 C 0.65286 0.28297 0.87371 0.0
C1577 C 0.65162 0.22473 0.88681 0.0
C1578 C 0.66285 0.22434 0.90601 0.0
C1579 C 0.64621 0.20543 0.8764 0.0
C1580 C 0.63514 0.20503 0.85561 0.0
C1581 C 0.64322 0.21679 0.83839 0.0
C1582 C 0.63267 0.21643 0.81887 0.0
C1583 C 0.61408 0.20427 0.81631 0.0
C1584 C 0.60603 0.19239 0.83327 0.0
C1585 C 0.61651 0.1927 0.85283 0.0
H1586 H 0.60594 0.20401 0.80119 0.0
H1587 H 0.71272 0.20564 0.98822 0.0
H1588 H 0.08862 0.49304 0.21783 0.0
H1589 H 0.0599 0.48284 0.19365 0.0
H1590 H 0.01643 0.47915 0.24642 0.0
H1591 H 0.04532 0.4887 0.27079 0.0
H1592 H 0.01215 0.44543 0.22312 0.0
H1593 H 0.01548 0.51994 0.20909 0.0
H1594 H 0.03228 0.55427 0.19969 0.0
H1595 H 0.05002 0.52933 0.13896 0.0
H1596 H 0.03358 0.49473 0.14811 0.0
H1597 H 0.91539 0.44557 0.17001 0.0
H1598 H 0.94613 0.4642 0.18487 0.0
H1599 H 0.98695 0.43235 0.14085 0.0
H1600 H 0.95621 0.41308 0.12594 0.0
H1601 H 0.99323 0.48386 0.15731 0.0
H1602 H 0.99207 0.40728 0.17529 0.0
H1603 H 0.972 0.37483 0.18531 0.0
H1604 H 0.94739 0.40665 0.24002 0.0
H1605 H 0.96704 0.4394 0.23007 0.0
C1606 C 0.07289 0.49025 0.22425 0.0
C1607 C 0.06918 0.49155 0.24618 0.0
C1608 C 0.05647 0.48453 0.2104 0.0
C1609 C 0.03598 0.48041 0.2182 0.0
C1610 C 0.03215 0.48221 0.24007 0.0
C1611 C 0.04863 0.48768 0.25397 0.0
C1612 C 0.01883 0.47296 0.20378 0.0
C1613 C 0.00803 0.45397 0.20882 0.0
C1614 C 0.01358 0.48389 0.18492 0.0
C1615 C 0.02349 0.50467 0.17938 0.0
C1616 C 0.02312 0.52172 0.1938 0.0
C1617 C 0.03255 0.54124 0.1885 0.0
C1618 C 0.04226 0.54396 0.16876 0.0
C1619 C 0.04252 0.52718 0.15426 0.0
C1620 C 0.03313 0.50762 0.15948 0.0
C1621 C 0.93079 0.44279 0.16308 0.0
C1622 C 0.93342 0.42741 0.14713 0.0
C1623 C 0.9483 0.45361 0.17152 0.0
C1624 C 0.96865 0.44943 0.16401 0.0
C1625 C 0.97123 0.43572 0.14673 0.0
C1626 C 0.95368 0.42468 0.13833 0.0
C1627 C 0.98701 0.45649 0.17674 0.0
C1628 C -0.00222 0.47535 0.17148 0.0
C1629 C 0.99219 0.44562 0.19553 0.0
C1630 C 0.98084 0.42581 0.20183 0.0
C1631 C 0.98224 0.40738 0.18936 0.0
C1632 C 0.97097 0.38894 0.19503 0.0
C1633 C 0.95838 0.38869 0.21326 0.0
C1634 C 0.95712 0.40687 0.22589 0.0
C1635 C 0.96832 0.42537 0.22025 0.0
H1636 H 0.94965 0.3744 0.21761 0.0
H1637 H 0.04954 0.55909 0.16469 0.0
H1638 H 0.80929 0.85609 0.47137 0.0
H1639 H 0.8231 0.82951 0.44679 0.0
H1640 H 0.76116 0.79946 0.44312 0.0
H1641 H 0.74715 0.82601 0.46732 0.0
H1642 H 0.7963 0.77243 0.45381 0.0
H1643 H 0.77534 0.82509 0.40278 0.0
H1644 H 0.77519 0.86101 0.38748 0.0
H1645 H 0.84254 0.85895 0.37804 0.0
H1646 H 0.84314 0.82312 0.39361 0.0
H1647 H 0.81447 0.69361 0.38295 0.0
H1648 H 0.7977 0.72682 0.39238 0.0
H1649 H 0.85852 0.75927 0.39053 0.0
H1650 H 0.87544 0.72621 0.38072 0.0
H1651 H 0.82408 0.78619 0.38134 0.0
H1652 H 0.84706 0.73714 0.43424 0.0
H1653 H 0.85001 0.70181 0.45051 0.0
H1654 H 0.78242 0.69831 0.45865 0.0
H1655 H 0.77906 0.73348 0.44201 0.0
C1656 C 0.79862 0.84385 0.46527 0.0
C1657 C 0.77717 0.84306 0.4713 0.0
C1658 C 0.80649 0.82882 0.45115 0.0
C1659 C 0.79305 0.81272 0.44313 0.0
C1660 C 0.77168 0.81189 0.44912 0.0
C1661 C 0.76374 0.82705 0.46293 0.0
C1662 C 0.8015 0.79589 0.42952 0.0
C1663 C 0.80205 0.77536 0.43784 0.0
C1664 C 0.80967 0.80002 0.40903 0.0
C1665 C 0.80931 0.82151 0.39957 0.0
C1666 C 0.79015 0.83237 0.39764 0.0
C1667 C 0.78997 0.8527 0.38887 0.0
C1668 C 0.80885 0.86228 0.38184 0.0
C1669 C 0.82793 0.85152 0.38352 0.0
C1670 C 0.8282 0.8312 0.39229 0.0
C1671 C 0.82419 0.70795 0.38377 0.0
C1672 C 0.84635 0.70719 0.38175 0.0
C1673 C 0.81457 0.72692 0.38908 0.0
C1674 C 0.82702 0.74526 0.3927 0.0
C1675 C 0.84871 0.7452 0.38793 0.0
C1676 C 0.85835 0.72624 0.38241 0.0
C1677 C 0.81839 0.76268 0.40549 0.0
C1678 C 0.81807 0.78327 0.3972 0.0
C1679 C 0.81081 0.75879 0.42628 0.0
C1680 C 0.81278 0.73782 0.43666 0.0
C1681 C 0.83281 0.72876 0.43935 0.0
C1682 C 0.83457 0.70878 0.44864 0.0
C1683 C 0.8164 0.6978 0.45556 0.0
C1684 C 0.79647 0.70682 0.45325 0.0
C1685 C 0.79463 0.72678 0.44388 0.0
H1686 H 0.81778 0.68233 0.46275 0.0
H1687 H 0.80868 0.87802 0.37506 0.0
H1688 H 0.8953 -0.00424 0.12531 0.0
H1689 H 0.92971 0.00749 0.11155 0.0
H1690 H 0.92002 0.06995 0.13725 0.0
H1691 H 0.88567 0.05839 0.15107 0.0
H1692 H 0.95022 0.06894 0.10265 0.0
H1693 H 0.93385 0.03519 0.17155 0.0
H1694 H 0.91812 0.00607 0.19261 0.0
H1695 H 0.95679 0.96129 0.15987 0.0
H1696 H 0.9724 0.99024 0.13823 0.0
H1697 H 0.03603 0.11157 0.15767 0.0
H1698 H 0.00139 0.09625 0.14837 0.0
H1699 H 0.02998 0.03563 0.13725 0.0
H1700 H 0.06461 0.0507 0.14731 0.0
H1701 H 0.99312 0.03061 0.15586 0.0
H1702 H 0.01808 0.06869 0.09566 0.0
H1703 H 0.03424 0.09973 0.07775 0.0
H1704 H 0.98057 0.13706 0.09442 0.0
H1705 H 0.96425 0.10638 0.11281 0.0
C1706 C 0.89996 0.0123 0.12705 0.0
C1707 C 0.88824 0.02599 0.13995 0.0
C1708 C 0.91963 0.01898 0.1191 0.0
C1709 C 0.92757 0.03936 0.12397 0.0
C1710 C 0.91421 0.05408 0.13351 0.0
C1711 C 0.89463 0.0474 0.14157 0.0
C1712 C 0.95067 0.04339 0.12519 0.0
C1713 C 0.95977 0.06046 0.11403 0.0
C1714 C 0.96309 0.03211 0.13994 0.0
C1715 C 0.95404 0.01477 0.15312 0.0
C1716 C 0.93888 0.01911 0.16877 0.0
C1717 C 0.92999 0.00264 0.18081 0.0
C1718 C 0.93641 0.9818 0.17758 0.0
C1719 C 0.95178 0.97743 0.16231 0.0
C1720 C 0.96063 -0.00615 0.15012 0.0
C1721 C 0.03483 0.09487 0.15366 0.0
C1722 C 0.05295 0.08233 0.15313 0.0
C1723 C 0.01512 0.08621 0.14809 0.0
C1724 C 0.01331 0.06502 0.14136 0.0
C1725 C 0.03114 0.0521 0.1421 0.0
C1726 C 0.05085 0.06068 0.14803 0.0
C1727 C 0.99272 0.05648 0.13363 0.0
C1728 C 0.98403 0.03861 0.14375 0.0
C1729 C 0.98083 0.06704 0.11788 0.0
C1730 C 0.98999 0.08522 0.10576 0.0
C1731 C 0.00973 0.08353 0.09557 0.0
C1732 C 0.01898 0.10109 0.08542 0.0
C1733 C 0.00853 0.1204 0.08516 0.0
C1734 C 0.9887 0.12212 0.09479 0.0
C1735 C 0.97942 0.10463 0.10503 0.0
H1736 H 0.01568 0.13397 0.07728 0.0
H1737 H 0.92952 0.96906 0.18693 0.0
H1738 H 0.2327 0.70454 0.51956 0.0
H1739 H 0.25888 0.72509 0.53994 0.0
H1740 H 0.30599 0.71356 0.49188 0.0
H1741 H 0.27961 0.6935 0.47107 0.0
H1742 H 0.29387 0.70904 0.5568 0.0
H1743 H 0.34548 0.75431 0.49705 0.0
H1744 H 0.34385 0.7694 0.46103 0.0
H1745 H 0.27686 0.77822 0.46791 0.0
H1746 H 0.27817 0.76351 0.50409 0.0
H1747 H 0.37529 0.80334 0.58404 0.0
H1748 H 0.36567 0.77203 0.56286 0.0
H1749 H 0.30502 0.7683 0.59444 0.0
H1750 H 0.31461 0.79921 0.6157 0.0
H1751 H 0.3343 0.77361 0.5352 0.0
H1752 H 0.28307 0.72112 0.59315 0.0
H1753 H 0.28577 0.70707 0.62947 0.0
H1754 H 0.35364 0.7132 0.62682 0.0
H1755 H 0.35141 0.72699 0.59036 0.0
C1756 C 0.24849 0.70684 0.5131 0.0
C1757 C 0.25413 0.69743 0.4938 0.0
C1758 C 0.26348 0.71841 0.52481 0.0
C1759 C 0.28442 0.72066 0.51752 0.0
C1760 C 0.28988 0.71214 0.49773 0.0
C1761 C 0.27477 0.70075 0.48584 0.0
C1762 C 0.30052 0.73097 0.5314 0.0
C1763 C 0.30268 0.72322 0.55215 0.0
C1764 C 0.313 0.74864 0.52487 0.0
C1765 C 0.31188 0.75747 0.50313 0.0
C1766 C 0.3304 0.75946 0.49086 0.0
C1767 C 0.32954 0.76797 0.47043 0.0
C1768 C 0.31023 0.77464 0.46214 0.0
C1769 C 0.29177 0.77292 0.47431 0.0
C1770 C 0.29256 0.76447 0.49477 0.0
C1771 C 0.36025 0.79533 0.58702 0.0
C1772 C 0.34556 0.80385 0.6013 0.0
C1773 C 0.35476 0.77751 0.57484 0.0
C1774 C 0.33465 0.76784 0.57706 0.0
C1775 C 0.32076 0.77527 0.59265 0.0
C1776 C 0.32618 0.79308 0.60471 0.0
C1777 C 0.3265 0.75254 0.56106 0.0
C1778 C 0.32597 0.75912 0.5398 0.0
C1779 C 0.31558 0.73374 0.56708 0.0
C1780 C 0.31705 0.72516 0.58897 0.0
C1781 C 0.29859 0.71932 0.60022 0.0
C1782 C 0.30004 0.71144 0.62087 0.0
C1783 C 0.31986 0.70927 0.63045 0.0
C1784 C 0.33829 0.71494 0.61939 0.0
C1785 C 0.33694 0.72282 0.59874 0.0
H1786 H 0.32095 0.70318 0.64644 0.0
H1787 H 0.30959 0.78122 0.44632 0.0
H1788 H 0.10315 0.52563 0.36099 0.0
H1789 H 0.07876 0.54751 0.38112 0.0
H1790 H 0.08384 0.59624 0.33352 0.0
H1791 H 0.10829 0.57463 0.31333 0.0
H1792 H 0.06999 0.59596 0.39371 0.0
H1793 H 0.0361 0.59116 0.3117 0.0
H1794 H 0.04009 0.57078 0.27846 0.0
H1795 H 0.05286 0.51465 0.31429 0.0
H1796 H 0.04857 0.53465 0.34769 0.0
H1797 H 0.96887 0.64845 0.38397 0.0
H1798 H 0.00546 0.63636 0.38227 0.0
H1799 H 0.98289 0.57136 0.38208 0.0
H1800 H 0.9464 0.58317 0.38358 0.0
H1801 H 0.0072 0.58086 0.34802 0.0
H1802 H 0.01015 0.59093 0.42362 0.0
H1803 H 0.00692 0.61111 0.45697 0.0
H1804 H 0.05496 0.65539 0.4359 0.0
H1805 H 0.05823 0.63568 0.40225 0.0
C1806 C 0.09986 0.54141 0.35528 0.0
C1807 C 0.10705 0.54816 0.33526 0.0
C1808 C 0.08609 0.55399 0.36695 0.0
C1809 C 0.07935 0.57329 0.3586 0.0
C1810 C 0.08893 0.58136 0.34018 0.0
C1811 C 0.10276 0.56887 0.32856 0.0
C1812 C 0.05851 0.58128 0.36494 0.0
C1813 C 0.0562 0.59283 0.3838 0.0
C1814 C 0.04061 0.57681 0.35205 0.0
C1815 C 0.04221 0.56442 0.33211 0.0
C1816 C 0.03961 0.57444 0.31244 0.0
C1817 C 0.04194 0.56296 0.29359 0.0
C1818 C 0.04679 0.54145 0.29427 0.0
C1819 C 0.04915 0.53132 0.31379 0.0
C1820 C 0.04677 0.54271 0.33267 0.0
C1821 C 0.9717 0.63157 0.38399 0.0
C1822 C 0.95469 0.61677 0.38352 0.0
C1823 C 0.99263 0.62472 0.38313 0.0
C1824 C -0.00319 0.60299 0.38196 0.0
C1825 C 0.97993 0.58821 0.38286 0.0
C1826 C 0.95908 0.59501 0.38365 0.0
C1827 C 0.01833 0.5956 0.37701 0.0
C1828 C 0.02083 0.58413 0.35813 0.0
C1829 C 0.03619 0.6001 0.39005 0.0
C1830 C 0.0343 0.61192 0.41032 0.0
C1831 C 0.01989 0.60508 0.42601 0.0
C1832 C 0.01808 0.61641 0.44499 0.0
C1833 C 0.03071 0.63453 0.44854 0.0
C1834 C 0.04519 0.64135 0.43312 0.0
C1835 C 0.04704 0.63009 0.4141 0.0
H1836 H 0.02933 0.64324 0.46327 0.0
H1837 H 0.04869 0.53262 0.27966 0.0
H1838 H 0.39436 0.43676 0.76384 0.0
H1839 H 0.41946 0.42103 0.78881 0.0
H1840 H 0.45478 0.48021 0.79174 0.0
H1841 H 0.42954 0.49621 0.76731 0.0
H1842 H 0.47765 0.43936 0.78092 0.0
H1843 H 0.42994 0.47213 0.83132 0.0
H1844 H 0.39483 0.47818 0.8471 0.0
H1845 H 0.38829 0.41189 0.86156 0.0
H1846 H 0.42324 0.40539 0.84553 0.0
H1847 H 0.55425 0.4266 0.85634 0.0
H1848 H 0.522 0.44235 0.84283 0.0
H1849 H 0.48852 0.3825 0.84947 0.0
H1850 H 0.5208 0.36639 0.86294 0.0
H1851 H 0.46286 0.42135 0.8562 0.0
H1852 H 0.50675 0.38665 0.80591 0.0
H1853 H 0.54048 0.37708 0.78917 0.0
H1854 H 0.55226 0.44226 0.77258 0.0
H1855 H 0.51865 0.45225 0.78961 0.0
C1856 C 0.40745 0.4464 0.76988 0.0
C1857 C 0.41007 0.46768 0.76365 0.0
C1858 C 0.42163 0.43746 0.78419 0.0
C1859 C 0.43876 0.44957 0.79212 0.0
C1860 C 0.4415 0.47073 0.78583 0.0
C1861 C 0.42711 0.47981 0.7719 0.0
C1862 C 0.4546 0.43989 0.80605 0.0
C1863 C 0.47451 0.43566 0.79743 0.0
C1864 C 0.45006 0.43431 0.82731 0.0
C1865 C 0.42909 0.43823 0.83698 0.0
C1866 C 0.42092 0.4588 0.83764 0.0
C1867 C 0.40106 0.46232 0.84668 0.0
C1868 C 0.3893 0.44542 0.85526 0.0
C1869 C 0.39739 0.42496 0.85487 0.0
C1870 C 0.41723 0.42136 0.84582 0.0
C1871 C 0.53992 0.41687 0.85558 0.0
C1872 C 0.54027 0.39508 0.8602 0.0
C1873 C 0.52148 0.42595 0.84791 0.0
C1874 C 0.5031 0.41344 0.84486 0.0
C1875 C 0.50263 0.39234 0.85172 0.0
C1876 C 0.52114 0.38317 0.85934 0.0
C1877 C 0.48605 0.4214 0.83117 0.0
C1878 C 0.46595 0.42512 0.8397 0.0
C1879 C 0.49015 0.42606 0.80961 0.0
C1880 C 0.51033 0.42022 0.79925 0.0
C1881 C 0.51663 0.39897 0.79888 0.0
C1882 C 0.53572 0.39346 0.7893 0.0
C1883 C 0.54856 0.40906 0.77984 0.0
C1884 C 0.54231 0.4302 0.77994 0.0
C1885 C 0.52323 0.43579 0.78955 0.0
H1886 H 0.56332 0.40477 0.77239 0.0
H1887 H 0.37393 0.44818 0.86226 0.0
H1888 H 0.98898 0.81504 0.69567 0.0
H1889 H 0.96156 0.82751 0.71932 0.0
H1890 H 0.94542 0.76294 0.73633 0.0
H1891 H 0.9727 0.75018 0.71198 0.0
H1892 H 0.91085 0.78398 0.7263 0.0
H1893 H 0.96954 0.79692 0.77208 0.0
H1894 H 0.00513 0.80965 0.78301 0.0
H1895 H 0.98786 0.87377 0.7698 0.0
H1896 H 0.95227 0.86142 0.75845 0.0
H1897 H 0.84835 0.82341 0.81428 0.0
H1898 H 0.87142 0.80483 0.78962 0.0
H1899 H 0.8864 0.86389 0.75822 0.0
H1900 H 0.86324 0.88261 0.78266 0.0
H1901 H 0.92121 0.84271 0.77799 0.0
H1902 H 0.86262 0.82835 0.73059 0.0
H1903 H 0.8269 0.81482 0.72109 0.0
H1904 H 0.84413 0.75211 0.73995 0.0
H1905 H 0.87989 0.76534 0.74986 0.0
C1906 C 0.97985 0.80345 0.70467 0.0
C1907 C 0.9829 0.78162 0.7019 0.0
C1908 C 0.96423 0.81063 0.71828 0.0
C1909 C 0.95156 0.79616 0.72971 0.0
C1910 C 0.95506 0.77434 0.72763 0.0
C1911 C 0.9707 0.7671 0.71384 0.0
C1912 C 0.93377 0.80405 0.74256 0.0
C1913 C 0.91315 0.79653 0.73793 0.0
C1914 C 0.93678 0.82066 0.75746 0.0
C1915 C 0.95824 0.8282 0.76424 0.0
C1916 C 0.97337 0.81372 0.77132 0.0
C1917 C 0.99355 0.82087 0.77763 0.0
C1918 C -0.00123 0.84249 0.77705 0.0
C1919 C 0.98381 0.85702 0.77022 0.0
C1920 C 0.96361 0.84995 0.76387 0.0
C1921 C 0.85601 0.83232 0.80168 0.0
C1922 C 0.85429 0.8545 0.80058 0.0
C1923 C 0.86912 0.82168 0.7876 0.0
C1924 C 0.8807 0.83309 0.77235 0.0
C1925 C 0.87756 0.8549 0.77 0.0
C1926 C 0.86425 0.86553 0.7839 0.0
C1927 C 0.89841 0.82303 0.76127 0.0
C1928 C 0.91901 0.83007 0.76643 0.0
C1929 C 0.89536 0.80586 0.74714 0.0
C1930 C 0.87387 0.79789 0.74119 0.0
C1931 C 0.85873 0.81172 0.73292 0.0
C1932 C 0.83849 0.80409 0.72741 0.0
C1933 C 0.83322 0.78263 0.72997 0.0
C1934 C 0.84822 0.76874 0.738 0.0
C1935 C 0.86849 0.77629 0.74355 0.0
H1936 H 0.81755 0.77675 0.72569 0.0
H1937 H 0.01441 0.84798 0.78191 0.0
H1938 H 0.92575 0.21673 0.41095 0.0
H1939 H 0.90924 0.19434 0.43809 0.0
H1940 H 0.9711 0.17517 0.45919 0.0
H1941 H 0.98767 0.1969 0.43157 0.0
H1942 H 0.94504 0.14227 0.45891 0.0
H1943 H 0.94204 0.21421 0.48559 0.0
H1944 H 0.9327 0.25197 0.48417 0.0
H1945 H 0.86678 0.23452 0.47804 0.0
H1946 H 0.87577 0.19666 0.47933 0.0
H1947 H 0.93162 0.12183 0.56832 0.0
H1948 H 0.94023 0.13312 0.53232 0.0
H1949 H 0.87361 0.13714 0.51765 0.0
H1950 H 0.86476 0.1257 0.55365 0.0
H1951 H 0.89676 0.17474 0.51126 0.0
H1952 H 0.90055 0.10211 0.49018 0.0
H1953 H 0.9111 0.06472 0.49228 0.0
H1954 H 0.97675 0.08389 0.48999 0.0
H1955 H 0.96664 0.12138 0.48769 0.0
C1956 C 0.93583 0.20775 0.42138 0.0
C1957 C 0.95802 0.20869 0.41925 0.0
C1958 C 0.92637 0.19498 0.43689 0.0
C1959 C 0.93895 0.1833 0.45085 0.0
C1960 C 0.96109 0.18401 0.44856 0.0
C1961 C 0.97054 0.19652 0.43285 0.0
C1962 C 0.92918 0.17077 0.46824 0.0
C1963 C 0.93457 0.14939 0.47042 0.0
C1964 C 0.91502 0.17988 0.48291 0.0
C1965 C 0.90959 0.20263 0.4823 0.0
C1966 C 0.92557 0.21844 0.48382 0.0
C1967 C 0.92034 0.23986 0.48308 0.0
C1968 C 0.89917 0.24564 0.48095 0.0
C1969 C 0.88318 0.23003 0.47967 0.0
C1970 C 0.88832 0.20859 0.48044 0.0
C1971 C 0.91877 0.12475 0.55736 0.0
C1972 C 0.89751 0.1232 0.56395 0.0
C1973 C 0.92372 0.13102 0.53673 0.0
C1974 C 0.90754 0.13591 0.52238 0.0
C1975 C 0.88629 0.13337 0.52854 0.0
C1976 C 0.8813 0.12686 0.54911 0.0
C1977 C 0.91302 0.14642 0.50218 0.0
C1978 C 0.90687 0.16748 0.4995 0.0
C1979 C 0.92666 0.13708 0.48725 0.0
C1980 C 0.93283 0.11457 0.48888 0.0
C1981 C 0.91724 0.09837 0.49027 0.0
C1982 C 0.92314 0.07715 0.49145 0.0
C1983 C 0.94457 0.07195 0.49141 0.0
C1984 C 0.96016 0.08794 0.49005 0.0
C1985 C 0.95435 0.10917 0.4887 0.0
H1986 H 0.94909 0.05552 0.49237 0.0
H1987 H 0.89517 0.26223 0.48033 0.0
H1988 H 0.53239 0.25099 0.18218 0.0
H1989 H 0.55845 0.23716 0.20704 0.0
H1990 H 0.52892 0.17502 0.20238 0.0
H1991 H 0.50266 0.18877 0.17768 0.0
H1992 H 0.53474 0.18648 0.24279 0.0
H1993 H 0.57693 0.18492 0.17987 0.0
H1994 H 0.59355 0.19926 0.14742 0.0
H1995 H 0.62813 0.24555 0.1845 0.0
H1996 H 0.6115 0.23167 0.21716 0.0
H1997 H 0.63197 0.13667 0.28715 0.0
H1998 H 0.61602 0.1528 0.25592 0.0
H1999 H 0.5896 0.20158 0.29527 0.0
H2000 H 0.60545 0.18575 0.32657 0.0
H2001 H 0.61294 0.19408 0.23583 0.0
H2002 H 0.53428 0.19856 0.2828 0.0
H2003 H 0.51827 0.18328 0.31514 0.0
H2004 H 0.55696 0.12841 0.30896 0.0
H2005 H 0.57234 0.14277 0.27597 0.0
C2006 C 0.53156 0.23433 0.18628 0.0
C2007 C 0.51542 0.22098 0.17804 0.0
C2008 C 0.54653 0.22644 0.20041 0.0
C2009 C 0.54569 0.20504 0.20645 0.0
C2010 C 0.52984 0.19159 0.19791 0.0
C2011 C 0.51488 0.19946 0.18378 0.0
C2012 C 0.56047 0.19701 0.2227 0.0
C2013 C 0.55182 0.18809 0.24121 0.0
C2014 C 0.58278 0.19899 0.22056 0.0
C2015 C 0.59282 0.20736 0.20095 0.0
C2016 C 0.58795 0.19827 0.18109 0.0
C2017 C 0.5974 0.20629 0.16266 0.0
C2018 C 0.61185 0.22334 0.16389 0.0
C2019 C 0.61692 0.23236 0.18357 0.0
C2020 C 0.60751 0.2244 0.20205 0.0
C2021 C 0.6233 0.15118 0.28913 0.0
C2022 C 0.61951 0.15958 0.30946 0.0
C2023 C 0.61431 0.16044 0.27122 0.0
C2024 C 0.60133 0.17807 0.27346 0.0
C2025 C 0.59941 0.1878 0.29335 0.0
C2026 C 0.60846 0.17866 0.31123 0.0
C2027 C 0.58712 0.1841 0.25596 0.0
C2028 C 0.59584 0.19253 0.2373 0.0
C2029 C 0.56484 0.18146 0.25784 0.0
C2030 C 0.55478 0.17199 0.27706 0.0
C2031 C 0.53923 0.18313 0.2882 0.0
C2032 C 0.53019 0.17458 0.30661 0.0
C2033 C 0.53665 0.15492 0.31414 0.0
C2034 C 0.55203 0.14369 0.30316 0.0
C2035 C 0.56083 0.15198 0.28453 0.0
H2036 H 0.52968 0.14837 0.32843 0.0
H2037 H 0.61915 0.22952 0.14961 0.0
H2038 H 0.49584 0.79597 0.92736 0.0
H2039 H 0.51788 0.81462 0.95367 0.0
H2040 H 0.57409 0.79847 0.91853 0.0
H2041 H 0.55211 0.77875 0.89303 0.0
H2042 H 0.57943 0.78722 0.95594 0.0
H2043 H 0.55731 0.8519 0.92642 0.0
H2044 H 0.53277 0.87818 0.912 0.0
H2045 H 0.501 0.88141 0.97207 0.0
H2046 H 0.52513 0.85492 0.98679 0.0
H2047 H 0.63607 0.83113 0.04477 0.0
H2048 H 0.62358 0.82848 0.00798 0.0
H2049 H 0.55877 0.82941 0.0297 0.0
H2050 H 0.57093 0.83224 0.0662 0.0
H2051 H 0.56483 0.85407 -0.00574 0.0
H2052 H 0.58109 0.78138 0.01768 0.0
H2053 H 0.60505 0.75405 0.03111 0.0
H2054 H 0.64908 0.76789 0.98091 0.0
H2055 H 0.62515 0.79511 0.96697 0.0
C2056 C 0.51286 0.79686 0.92508 0.0
C2057 C 0.52237 0.78579 0.90843 0.0
C2058 C 0.52547 0.80766 0.94 0.0
C2059 C 0.54772 0.80808 0.93806 0.0
C2060 C 0.55701 0.79828 0.92046 0.0
C2061 C 0.54447 0.78703 0.90592 0.0
C2062 C 0.56127 0.8159 0.95582 0.0
C2063 C 0.57661 0.80219 0.96385 0.0
C2064 C 0.55757 0.83529 0.96642 0.0
C2065 C 0.54301 0.85131 0.95769 0.0
C2066 C 0.545 0.8581 0.93653 0.0
C2067 C 0.53117 0.87306 0.9283 0.0
C2068 C 0.51532 0.88144 0.9411 0.0
C2069 C 0.51329 0.87491 0.96217 0.0
C2070 C 0.52707 0.85995 0.97048 0.0
C2071 C 0.61917 0.83089 0.04168 0.0
C2072 C 0.60452 0.83167 0.05846 0.0
C2073 C 0.61208 0.82939 0.02068 0.0
C2074 C 0.59026 0.82869 0.01618 0.0
C2075 C 0.57567 0.83005 0.03283 0.0
C2076 C 0.5827 0.83147 0.05374 0.0
C2077 C 0.58224 0.82507 -0.0056 0.0
C2078 C 0.568 0.83952 0.98572 0.0
C2079 C 0.58706 0.8065 0.983 0.0
C2080 C 0.60151 0.79038 0.99147 0.0
C2081 C 0.59595 0.77866 0.00961 0.0
C2082 C 0.6095 0.76317 0.01728 0.0
C2083 C 0.62867 0.75936 0.00701 0.0
C2084 C 0.63426 0.77091 0.9889 0.0
C2085 C 0.62068 0.7863 0.98105 0.0
H2086 H 0.63915 0.74738 0.01302 0.0
H2087 H 0.50463 0.89302 0.9347 0.0
H2088 H 0.93863 0.20382 0.86528 0.0
H2089 H 0.92314 0.17629 0.84231 0.0
H2090 H 0.91227 0.22311 0.79388 0.0
H2091 H 0.92677 0.25077 0.81715 0.0
H2092 H 0.8826 0.19413 0.7915 0.0
H2093 H 0.95937 0.19399 0.79715 0.0
H2094 H 0.99346 0.19154 0.81617 0.0
H2095 H 0.97568 0.12938 0.83833 0.0
H2096 H 0.94136 0.1316 0.81963 0.0
H2097 H 0.91159 0.15412 0.69332 0.0
H2098 H 0.91148 0.17097 0.72801 0.0
H2099 H 0.90035 0.1103 0.75776 0.0
H2100 H 0.90009 0.09303 0.72273 0.0
H2101 H 0.93497 0.13871 0.77517 0.0
H2102 H 0.86092 0.13829 0.75855 0.0
H2103 H 0.82994 0.14319 0.7353 0.0
H2104 H 0.84578 0.20943 0.72944 0.0
H2105 H 0.87707 0.20488 0.75237 0.0
C2106 C 0.93243 0.20828 0.84993 0.0
C2107 C 0.93418 0.22934 0.84282 0.0
C2108 C 0.92365 0.19254 0.83681 0.0
C2109 C 0.9171 0.19754 0.81616 0.0
C2110 C 0.9173 0.21885 0.80972 0.0
C2111 C 0.92565 0.23466 0.82301 0.0
C2112 C 0.91244 0.18063 0.80037 0.0
C2113 C 0.89398 0.18193 0.78802 0.0
C2114 C 0.92713 0.16444 0.79604 0.0
C2115 C 0.94772 0.16308 0.80726 0.0
C2116 C 0.96269 0.17987 0.8062 0.0
C2117 C 0.98205 0.17852 0.81691 0.0
C2118 C 0.9867 0.16035 0.82852 0.0
C2119 C 0.97203 0.14347 0.82939 0.0
C2120 C 0.95262 0.14476 0.81875 0.0
C2121 C 0.90928 0.14421 0.70717 0.0
C2122 C 0.90589 0.12218 0.70524 0.0
C2123 C 0.90903 0.15394 0.72697 0.0
C2124 C 0.90557 0.14188 0.74528 0.0
C2125 C 0.90282 0.11982 0.74367 0.0
C2126 C 0.90275 0.11002 0.72371 0.0
C2127 C 0.90556 0.15274 0.766 0.0
C2128 C 0.9232 0.15037 0.7792 0.0
C2129 C 0.89044 0.1683 0.77071 0.0
C2130 C 0.87141 0.17121 0.75716 0.0
C2131 C 0.85788 0.15388 0.75221 0.0
C2132 C 0.84025 0.1566 0.73909 0.0
C2133 C 0.83591 0.17661 0.73088 0.0
C2134 C 0.84916 0.19395 0.73582 0.0
C2135 C 0.86682 0.19131 0.74892 0.0
H2136 H 0.82227 0.17868 0.72071 0.0
H2137 H 0.0017 0.15932 0.83679 0.0
H2138 H 0.54153 0.17501 0.60051 0.0
H2139 H 0.56455 0.14956 0.58303 0.0
H2140 H 0.51794 0.14071 0.5334 0.0
H2141 H 0.49464 0.16525 0.55116 0.0
H2142 H 0.54034 0.10618 0.53663 0.0
H2143 H 0.55579 0.1827 0.53251 0.0
H2144 H 0.56492 0.21759 0.54821 0.0
H2145 H 0.62122 0.19194 0.5757 0.0
H2146 H 0.61224 0.15682 0.56031 0.0
H2147 H 0.57944 0.12419 0.43493 0.0
H2148 H 0.56367 0.1223 0.47016 0.0
H2149 H 0.62566 0.11513 0.49794 0.0
H2150 H 0.64167 0.1169 0.46259 0.0
H2151 H 0.60354 0.14855 0.51429 0.0
H2152 H 0.5912 0.07519 0.5032 0.0
H2153 H 0.58027 0.04284 0.48376 0.0
H2154 H 0.51621 0.06449 0.48096 0.0
H2155 H 0.52681 0.09717 0.50005 0.0
C2156 C 0.5359 0.16704 0.58627 0.0
C2157 C 0.51656 0.17255 0.57686 0.0
C2158 C 0.54908 0.15252 0.5763 0.0
C2159 C 0.54326 0.14377 0.55656 0.0
C2160 C 0.52288 0.14737 0.54853 0.0
C2161 C 0.50959 0.16157 0.55864 0.0
C2162 C 0.55924 0.13444 0.54228 0.0
C2163 C 0.5543 0.11527 0.53184 0.0
C2164 C 0.57776 0.14608 0.53639 0.0
C2165 C 0.58321 0.16714 0.54554 0.0
C2166 C 0.57005 0.18451 0.542 0.0
C2167 C 0.5752 0.20431 0.55083 0.0
C2168 C 0.5936 0.20696 0.56301 0.0
C2169 C 0.60693 0.18984 0.56632 0.0
C2170 C 0.60182 0.16999 0.55756 0.0
C2171 C 0.58973 0.12195 0.44848 0.0
C2172 C 0.61183 0.12095 0.446 0.0
C2173 C 0.58066 0.1206 0.46859 0.0
C2174 C 0.5935 0.11832 0.48661 0.0
C2175 C 0.6155 0.11666 0.48418 0.0
C2176 C 0.6246 0.11776 0.46399 0.0
C2177 C 0.58401 0.12086 0.50787 0.0
C2178 C 0.59018 0.13884 0.51962 0.0
C2179 C 0.56638 0.10839 0.51453 0.0
C2180 C 0.55984 0.08869 0.50308 0.0
C2181 C 0.57481 0.07313 0.49833 0.0
C2182 C 0.56865 0.05471 0.48737 0.0
C2183 C 0.54754 0.0516 0.48115 0.0
C2184 C 0.53255 0.06691 0.48584 0.0
C2185 C 0.53862 0.08537 0.49677 0.0
H2186 H 0.54277 0.03733 0.47271 0.0
H2187 H 0.59757 0.2223 0.56983 0.0
H2188 H 0.54078 0.74356 0.34631 0.0
H2189 H 0.55768 0.75584 0.31367 0.0
H2190 H 0.56746 0.81793 0.3414 0.0
H2191 H 0.54983 0.80594 0.37379 0.0
H2192 H 0.54844 0.82154 0.30558 0.0
H2193 H 0.6095 0.78438 0.3283 0.0
H2194 H 0.62987 0.75426 0.3417 0.0
H2195 H 0.61212 0.71752 0.28681 0.0
H2196 H 0.5914 0.74733 0.2732 0.0
H2197 H 0.60375 0.8623 0.21588 0.0
H2198 H 0.59614 0.84953 0.25166 0.0
H2199 H 0.57471 0.78932 0.22609 0.0
H2200 H 0.58226 0.80188 0.19019 0.0
H2201 H 0.60218 0.78588 0.26141 0.0
H2202 H 0.53898 0.82269 0.24073 0.0
H2203 H 0.51922 0.85328 0.22742 0.0
H2204 H 0.5424 0.89128 0.27945 0.0
H2205 H 0.56254 0.86097 0.2929 0.0
C2206 C 0.547 0.75968 0.34563 0.0
C2207 C 0.54381 0.77387 0.36249 0.0
C2208 C 0.55675 0.76667 0.32698 0.0
C2209 C 0.56388 0.78782 0.32507 0.0
C2210 C 0.56197 0.80159 0.34247 0.0
C2211 C 0.55193 0.79471 0.36097 0.0
C2212 C 0.57093 0.79623 0.30426 0.0
C2213 C 0.56054 0.81397 0.29617 0.0
C2214 C 0.58629 0.78604 0.29169 0.0
C2215 C 0.59874 0.76806 0.29982 0.0
C2216 C 0.6098 0.76983 0.31916 0.0
C2217 C 0.62143 0.75281 0.32678 0.0
C2218 C 0.62225 0.73397 0.31513 0.0
C2219 C 0.61146 0.73212 0.29582 0.0
C2220 C 0.59979 0.74908 0.28813 0.0
C2221 C 0.59736 0.84636 0.21782 0.0
C2222 C 0.59348 0.83316 0.20015 0.0
C2223 C 0.59306 0.8391 0.23827 0.0
C2224 C 0.58486 0.81852 0.24142 0.0
C2225 C 0.58111 0.80524 0.22391 0.0
C2226 C 0.58526 0.81252 0.20342 0.0
C2227 C 0.57968 0.81104 0.263 0.0
C2228 C 0.59032 0.79349 0.27109 0.0
C2229 C 0.56465 0.82145 0.27569 0.0
C2230 C 0.55244 0.83964 0.26769 0.0
C2231 C 0.54 0.83762 0.24923 0.0
C2232 C 0.52871 0.8549 0.24168 0.0
C2233 C 0.5296 0.87423 0.25255 0.0
C2234 C 0.54175 0.8763 0.27103 0.0
C2235 C 0.55309 0.85908 0.27863 0.0
H2236 H 0.52085 0.88759 0.24668 0.0
H2237 H 0.63127 0.72082 0.32106 0.0
H2238 H 0.96088 0.80737 0.03857 0.0
H2239 H 0.94546 0.83747 0.02 0.0
H2240 H 0.88271 0.81494 0.03709 0.0
H2241 H 0.89793 0.78521 0.0559 0.0
H2242 H 0.92039 0.83661 0.98682 0.0
H2243 H 0.84899 0.85442 0.04309 0.0
H2244 H 0.84185 0.85584 0.0815 0.0
H2245 H 0.90819 0.86633 0.094 0.0
H2246 H 0.91572 0.86532 0.05566 0.0
H2247 H 0.81802 0.86869 0.94906 0.0
H2248 H 0.8377 0.8621 0.98182 0.0
H2249 H 0.88869 0.90311 0.96004 0.0
H2250 H 0.86939 0.90912 0.92702 0.0
H2251 H 0.86273 0.88078 0.01556 0.0
H2252 H 0.93147 0.87386 0.95893 0.0
H2253 H 0.93835 0.8731 0.92035 0.0
H2254 H 0.87858 0.84086 0.90993 0.0
H2255 H 0.87152 0.84123 0.94843 0.0
C2256 C 0.9438 0.80892 0.03841 0.0
C2257 C 0.93059 0.79394 0.04863 0.0
C2258 C 0.93504 0.82615 0.02792 0.0
C2259 C 0.91298 0.82867 0.02755 0.0
C2260 C 0.89981 0.81365 0.03767 0.0
C2261 C 0.90852 0.79651 0.0482 0.0
C2262 C 0.90339 0.84574 0.01494 0.0
C2263 C 0.90827 0.84673 0.99329 0.0
C2264 C 0.88739 0.8588 0.02333 0.0
C2265 C 0.88292 0.85967 0.04645 0.0
C2266 C 0.86205 0.85717 0.05401 0.0
C2267 C 0.85793 0.85787 0.07578 0.0
C2268 C 0.87456 0.86113 0.09018 0.0
C2269 C 0.89533 0.86375 0.08283 0.0
C2270 C 0.89953 0.86308 0.06108 0.0
C2271 C 0.83296 0.87706 0.95176 0.0
C2272 C 0.84251 0.88899 0.93553 0.0
C2273 C 0.84416 0.87337 0.97048 0.0
C2274 C 0.86482 0.88174 0.97302 0.0
C2275 C 0.87286 0.89633 0.95819 0.0
C2276 C 0.86189 0.89968 0.93935 0.0
C2277 C 0.87947 0.87108 0.9876 0.0
C2278 C 0.87543 0.87119 0.00943 0.0
C2279 C 0.89637 0.85904 0.97949 0.0
C2280 C 0.90092 0.85775 0.95647 0.0
C2281 C 0.9199 0.86648 0.94838 0.0
C2282 C 0.9238 0.86615 0.92655 0.0
C2283 C 0.90888 0.85699 0.9127 0.0
C2284 C 0.89011 0.84798 0.92067 0.0
C2285 C 0.88616 0.84823 0.94248 0.0
H2286 H 0.91188 0.85685 0.8958 0.0
H2287 H 0.87134 0.86166 0.10703 0.0
H2288 H 0.6175 0.92898 0.72429 0.0
H2289 H 0.64273 0.90038 0.72808 0.0
H2290 H 0.63807 0.90532 0.7962 0.0
H2291 H 0.61292 0.9337 0.79254 0.0
H2292 H 0.67854 0.91427 0.74503 0.0
H2293 H 0.65689 0.86501 0.82152 0.0
H2294 H 0.62705 0.84286 0.83448 0.0
H2295 H 0.60553 0.83274 0.77054 0.0
H2296 H 0.63542 0.85457 0.7571 0.0
H2297 H 0.73784 0.89767 0.84595 0.0
H2298 H 0.70629 0.89174 0.82433 0.0
H2299 H 0.74542 0.88072 0.76944 0.0
H2300 H 0.77725 0.88732 0.79095 0.0
H2301 H 0.68944 0.86038 0.80085 0.0
H2302 H 0.72018 0.90114 0.72669 0.0
H2303 H 0.74831 0.92624 0.71488 0.0
H2304 H 0.74792 0.95675 0.77586 0.0
H2305 H 0.71968 0.93195 0.78792 0.0
C2306 C 0.62113 0.92333 0.74006 0.0
C2307 C 0.6138 0.93401 0.75816 0.0
C2308 C 0.6355 0.90689 0.74218 0.0
C2309 C 0.64248 0.90084 0.76239 0.0
C2310 C 0.63285 0.90954 0.78041 0.0
C2311 C 0.61863 0.92602 0.77831 0.0
C2312 C 0.66333 0.8908 0.76503 0.0
C2313 C 0.68093 0.90182 0.75659 0.0
C2314 C 0.6665 0.87472 0.78021 0.0
C2315 C 0.6485 0.86146 0.78827 0.0
C2316 C 0.64594 0.85792 0.81017 0.0
C2317 C 0.62896 0.84545 0.81761 0.0
C2318 C 0.61441 0.83639 0.80334 0.0
C2319 C 0.6168 0.83979 0.78158 0.0
C2320 C 0.63374 0.85225 0.77404 0.0
C2321 C 0.73979 0.89394 0.8293 0.0
C2322 C 0.76003 0.89334 0.82008 0.0
C2323 C 0.72172 0.8903 0.81699 0.0
C2324 C 0.72349 0.88583 0.79526 0.0
C2325 C 0.7437 0.88435 0.78614 0.0
C2326 C 0.76185 0.88828 0.79842 0.0
C2327 C 0.70402 0.88515 0.78213 0.0
C2328 C 0.68695 0.87202 0.78851 0.0
C2329 C 0.70115 0.89957 0.76529 0.0
C2330 C 0.71812 0.91452 0.75826 0.0
C2331 C 0.72615 0.91321 0.73755 0.0
C2332 C 0.74208 0.92738 0.73082 0.0
C2333 C 0.74996 0.94302 0.74464 0.0
C2334 C 0.74187 0.94457 0.7652 0.0
C2335 C 0.72592 0.93046 0.772 0.0
H2336 H 0.76229 0.95397 0.7394 0.0
H2337 H 0.60128 0.82673 0.80914 0.0
H2338 H 0.7896 0.92745 0.47343 0.0
H2339 H 0.82218 0.94844 0.48039 0.0
H2340 H 0.79001 0.9822 0.53001 0.0
H2341 H 0.75776 0.96123 0.5234 0.0
H2342 H 0.82832 0.00331 0.49606 0.0
H2343 H 0.81581 0.94995 0.56758 0.0
H2344 H 0.80492 0.91294 0.57514 0.0
H2345 H 0.83329 0.89262 0.51684 0.0
H2346 H 0.84462 0.92948 0.50912 0.0
H2347 H 0.82817 0.05022 0.58972 0.0
H2348 H 0.82384 0.02593 0.56002 0.0
H2349 H 0.88558 0.00034 0.57236 0.0
H2350 H 0.89007 0.02494 0.6026 0.0
H2351 H 0.85316 0.96962 0.56248 0.0
H2352 H 0.88363 0.02982 0.53188 0.0
H2353 H 0.89066 0.06807 0.52718 0.0
H2354 H 0.82741 0.07591 0.50367 0.0
H2355 H 0.81959 0.03793 0.50911 0.0
C2356 C 0.7893 0.93999 0.48519 0.0
C2357 C 0.77134 0.94272 0.49806 0.0
C2358 C 0.80789 0.95188 0.48914 0.0
C2359 C 0.8084 0.96665 0.50579 0.0
C2360 C 0.7898 0.97086 0.51706 0.0
C2361 C 0.77144 0.95888 0.51333 0.0
C2362 C 0.82849 0.9749 0.51475 0.0
C2363 C 0.83454 -0.00414 0.51018 0.0
C2364 C 0.83699 0.96474 0.53273 0.0
C2365 C 0.83107 0.94244 0.53779 0.0
C2366 C 0.81992 0.93754 0.5565 0.0
C2367 C 0.81363 0.91661 0.56079 0.0
C2368 C 0.81845 0.90043 0.5465 0.0
C2369 C 0.8296 0.90516 0.52791 0.0
C2370 C 0.83595 0.92606 0.52357 0.0
C2371 C 0.84078 0.03931 0.5863 0.0
C2372 C 0.85954 0.03958 0.59828 0.0
C2373 C 0.83836 0.02556 0.56923 0.0
C2374 C 0.85472 0.01193 0.56362 0.0
C2375 C 0.87299 0.01109 0.5763 0.0
C2376 C 0.87542 0.02494 0.59361 0.0
C2377 C 0.85179 -0.00144 0.54457 0.0
C2378 C 0.84864 0.97676 0.54755 0.0
C2379 C 0.84637 0.00794 0.52494 0.0
C2380 C 0.85107 0.03082 0.5208 0.0
C2381 C 0.87116 0.03967 0.52576 0.0
C2382 C 0.87527 0.06135 0.52302 0.0
C2383 C 0.85955 0.07438 0.51498 0.0
C2384 C 0.83962 0.06577 0.50979 0.0
C2385 C 0.83533 0.04413 0.51272 0.0
H2386 H 0.86279 0.09115 0.51284 0.0
H2387 H 0.81348 0.88425 0.5498 0.0
H2388 H 0.86455 0.0654 0.27206 0.0
H2389 H 0.84369 0.0849 0.2978 0.0
H2390 H 0.80845 0.11328 0.24699 0.0
H2391 H 0.82911 0.09373 0.22107 0.0
H2392 H 0.80995 0.13714 0.28982 0.0
H2393 H 0.79051 0.06823 0.25476 0.0
H2394 H 0.79962 0.03189 0.24398 0.0
H2395 H 0.81607 0.0172 0.30836 0.0
H2396 H 0.80724 0.05359 0.31942 0.0
H2397 H 0.69579 0.0984 0.31113 0.0
H2398 H 0.73043 0.09826 0.29411 0.0
H2399 H 0.75948 0.12372 0.35093 0.0
H2400 H 0.72473 0.12389 0.36831 0.0
H2401 H 0.76478 0.07497 0.30991 0.0
H2402 H 0.80375 0.1554 0.32972 0.0
H2403 H 0.79355 0.19178 0.33923 0.0
H2404 H 0.73552 0.1838 0.30411 0.0
H2405 H 0.74552 0.14752 0.29416 0.0
C2406 C 0.85311 0.0766 0.26627 0.0
C2407 C 0.84789 0.07748 0.2446 0.0
C2408 C 0.8413 0.08786 0.28105 0.0
C2409 C 0.82431 0.10013 0.27424 0.0
C2410 C 0.82151 0.10382 0.25251 0.0
C2411 C 0.83322 0.09248 0.2377 0.0
C2412 C 0.80613 0.10316 0.28851 0.0
C2413 C 0.80021 0.12361 0.29457 0.0
C2414 C 0.79335 0.08546 0.2944 0.0
C2415 C 0.79843 0.06359 0.28785 0.0
C2416 C 0.79619 0.05726 0.26656 0.0
C2417 C 0.80129 0.03667 0.26041 0.0
C2418 C 0.80847 0.02225 0.27547 0.0
C2419 C 0.81054 0.02839 0.29671 0.0
C2420 C 0.80548 0.04898 0.30293 0.0
C2421 C 0.70946 0.10413 0.32003 0.0
C2422 C 0.7075 0.11098 0.34115 0.0
C2423 C 0.72924 0.10403 0.31026 0.0
C2424 C 0.7474 0.111 0.3213 0.0
C2425 C 0.74556 0.1184 0.34217 0.0
C2426 C 0.72573 0.11835 0.35207 0.0
C2427 C 0.76832 0.109 0.31117 0.0
C2428 C 0.77474 0.08858 0.30578 0.0
C2429 C 0.78134 0.12675 0.30592 0.0
C2430 C 0.77528 0.14866 0.31144 0.0
C2431 C 0.78884 0.16145 0.32399 0.0
C2432 C 0.78309 0.18205 0.32946 0.0
C2433 C 0.76385 0.19006 0.32235 0.0
C2434 C 0.75037 0.17753 0.30969 0.0
C2435 C 0.75605 0.15694 0.30416 0.0
H2436 H 0.75942 0.206 0.32662 0.0
H2437 H 0.81236 0.0063 0.27071 0.0
H2438 H 0.71787 0.05533 0.00083 0.0
H2439 H 0.70227 0.02095 0.01129 0.0
H2440 H 0.71449 0.03592 0.07701 0.0
H2441 H 0.73052 0.07 0.06672 0.0
H2442 H 0.72328 0.98771 0.03899 0.0
H2443 H 0.66598 0.02098 0.10127 0.0
H2444 H 0.64527 0.05314 0.10763 0.0
H2445 H 0.64191 0.06434 0.04057 0.0
H2446 H 0.66231 0.03208 0.0338 0.0
H2447 H 0.6587 0.93034 0.12781 0.0
H2448 H 0.67192 0.96209 0.11001 0.0
H2449 H 0.67524 0.92751 0.05096 0.0
H2450 H 0.6628 0.89526 0.069 0.0
H2451 H 0.65653 0.98502 0.08055 0.0
H2452 H 0.71397 0.94951 0.01943 0.0
H2453 H 0.7365 0.91828 0.01493 0.0
H2454 H 0.74212 0.91247 0.08255 0.0
H2455 H 0.71986 0.94381 0.08743 0.0
C2456 C 0.71719 0.05128 0.0175 0.0
C2457 C 0.72533 0.06535 0.03299 0.0
C2458 C 0.70841 0.03164 0.02341 0.0
C2459 C 0.7072 0.02606 0.04488 0.0
C2460 C 0.71526 0.04006 0.06035 0.0
C2461 C 0.72442 0.05948 0.05445 0.0
C2462 C 0.69741 0.00566 0.05141 0.0
C2463 C 0.70847 0.98696 0.04773 0.0
C2464 C 0.67839 0.00493 0.06318 0.0
C2465 C 0.66587 0.02423 0.06706 0.0
C2466 C 0.66076 0.03027 0.08788 0.0
C2467 C 0.64907 0.04851 0.09156 0.0
C2468 C 0.64234 0.06081 0.07452 0.0
C2469 C 0.64722 0.05485 0.05376 0.0
C2470 C 0.65888 0.03661 0.05 0.0
C2471 C 0.66231 0.92941 0.11105 0.0
C2472 C 0.65979 0.91023 0.09984 0.0
C2473 C 0.66981 0.94763 0.10086 0.0
C2474 C 0.67474 0.94721 0.07916 0.0
C2475 C 0.67194 0.92816 0.0678 0.0
C2476 C 0.66476 0.90975 0.0781 0.0
C2477 C 0.68264 0.96689 0.06868 0.0
C2478 C 0.6712 0.98556 0.07159 0.0
C2479 C 0.70151 0.9676 0.05649 0.0
C2480 C 0.71503 0.94883 0.05377 0.0
C2481 C 0.72006 0.94158 0.03332 0.0
C2482 C 0.73277 0.92386 0.03071 0.0
C2483 C 0.74066 0.91335 0.04844 0.0
C2484 C 0.73592 0.92058 0.06883 0.0
C2485 C 0.72323 0.9383 0.07153 0.0
H2486 H 0.75049 0.89963 0.04638 0.0
H2487 H 0.63331 0.07494 0.0774 0.0
H2488 H 0.66843 0.02212 0.76373 0.0
H2489 H 0.70432 0.03502 0.75539 0.0
H2490 H 0.68366 0.05174 0.6924 0.0
H2491 H 0.64811 0.03821 0.70035 0.0
H2492 H 0.71838 0.03101 0.68995 0.0
H2493 H 0.69435 0.08923 0.73275 0.0
H2494 H 0.67985 0.10609 0.7648 0.0
H2495 H 0.73244 0.08409 0.80144 0.0
H2496 H 0.74712 0.06685 0.76965 0.0
H2497 H 0.79675 0.10026 0.65278 0.0
H2498 H 0.76396 0.09032 0.67087 0.0
H2499 H 0.79942 0.0572 0.71849 0.0
H2500 H 0.83259 0.06685 0.70034 0.0
H2501 H 0.75999 0.08405 0.73189 0.0
H2502 H 0.78388 0.02648 0.68714 0.0
H2503 H 0.79816 0.01212 0.65378 0.0
H2504 H 0.74446 0.03539 0.61967 0.0
H2505 H 0.73006 0.05022 0.6528 0.0
C2506 C 0.67154 0.02872 0.74817 0.0
C2507 C 0.65552 0.02907 0.73264 0.0
C2508 C 0.69202 0.03616 0.74346 0.0
C2509 C 0.69665 0.04445 0.7233 0.0
C2510 C 0.68049 0.04529 0.70801 0.0
C2511 C 0.66017 0.03758 0.71259 0.0
C2512 C 0.71849 0.05132 0.71755 0.0
C2513 C 0.72735 0.04271 0.69911 0.0
C2514 C 0.73049 0.06617 0.72977 0.0
C2515 C 0.7217 0.07655 0.74888 0.0
C2516 C 0.70273 0.08784 0.74768 0.0
C2517 C 0.6945 0.09749 0.76579 0.0
C2518 C 0.70518 0.0961 0.78516 0.0
C2519 C 0.72416 0.08511 0.78644 0.0
C2520 C 0.73245 0.07542 0.76838 0.0
C2521 C 0.79773 0.09119 0.66731 0.0
C2522 C 0.8173 0.08407 0.67494 0.0
C2523 C 0.77895 0.08559 0.67763 0.0
C2524 C 0.7794 0.07298 0.69586 0.0
C2525 C 0.79889 0.06701 0.70442 0.0
C2526 C 0.81776 0.07242 0.69395 0.0
C2527 C 0.75935 0.06404 0.7042 0.0
C2528 C 0.75096 0.07218 0.72302 0.0
C2529 C 0.7476 0.0489 0.69228 0.0
C2530 C 0.75601 0.03963 0.67241 0.0
C2531 C 0.77521 0.02869 0.6725 0.0
C2532 C 0.78331 0.02044 0.65364 0.0
C2533 C 0.77225 0.02289 0.63461 0.0
C2534 C 0.75303 0.03352 0.63442 0.0
C2535 C 0.74488 0.04184 0.65323 0.0
H2536 H 0.77856 0.01651 0.62002 0.0
H2537 H 0.69879 0.10359 0.79916 0.0
H2538 H 0.6713 0.88118 0.4495 0.0
H2539 H 0.64975 0.90249 0.42582 0.0
H2540 H 0.64042 0.94775 0.4762 0.0
H2541 H 0.6613 0.92629 0.50006 0.0
H2542 H 0.60942 0.95075 0.44616 0.0
H2543 H 0.68719 0.94919 0.44948 0.0
H2544 H 0.72119 0.93061 0.44739 0.0
H2545 H 0.70626 0.9103 0.38391 0.0
H2546 H 0.67201 0.92857 0.38579 0.0
H2547 H 0.64447 0.05392 0.42322 0.0
H2548 H 0.63842 0.01746 0.4349 0.0
H2549 H 0.63901 -0.00401 0.3699 0.0
H2550 H 0.64481 0.03262 0.35794 0.0
H2551 H 0.66683 0.97492 0.39758 0.0
H2552 H 0.59442 0.99234 0.39364 0.0
H2553 H 0.56261 0.01374 0.39897 0.0
H2554 H 0.56881 0.00712 0.46645 0.0
H2555 H 0.60103 0.98628 0.4616 0.0
C2556 C 0.66379 0.89513 0.45582 0.0
C2557 C 0.66864 0.90256 0.47635 0.0
C2558 C 0.65143 0.90727 0.44227 0.0
C2559 C 0.64424 0.92707 0.44906 0.0
C2560 C 0.64608 0.93265 0.47055 0.0
C2561 C 0.65818 0.92039 0.48418 0.0
C2562 C 0.64024 0.94406 0.43351 0.0
C2563 C 0.62178 0.95597 0.43531 0.0
C2564 C 0.65634 0.95066 0.41917 0.0
C2565 C 0.67701 0.93998 0.41785 0.0
C2566 C 0.69116 0.94068 0.43512 0.0
C2567 C 0.71045 0.93021 0.43398 0.0
C2568 C 0.71586 0.91922 0.41555 0.0
C2569 C 0.70202 0.91876 0.3982 0.0
C2570 C 0.68266 0.92916 0.39929 0.0
C2571 C 0.64334 0.04147 0.41138 0.0
C2572 C 0.64532 0.0461 0.38967 0.0
C2573 C 0.63958 0.0207 0.41806 0.0
C2574 C 0.63792 0.00417 0.40321 0.0
C2575 C 0.63997 0.00865 0.38153 0.0
C2576 C 0.64341 0.02951 0.37478 0.0
C2577 C 0.63632 0.98208 0.41076 0.0
C2578 C 0.65391 0.96929 0.40758 0.0
C2579 C 0.61963 0.97506 0.42415 0.0
C2580 C 0.60027 0.98776 0.42722 0.0
C2581 C 0.58916 -0.00437 0.40963 0.0
C2582 C 0.57104 0.00769 0.41258 0.0
C2583 C 0.56372 0.01186 0.43304 0.0
C2584 C 0.57453 0.00398 0.45061 0.0
C2585 C 0.59273 0.99202 0.44776 0.0
H2586 H 0.54966 0.02115 0.43527 0.0
H2587 H 0.7308 0.91112 0.41469 0.0
H2588 H 0.81204 0.96793 0.24789 0.0
H2589 H 0.78733 0.93747 0.24819 0.0
H2590 H 0.76097 0.95803 0.18867 0.0
H2591 H 0.78559 0.98835 0.18822 0.0
H2592 H 0.73054 0.94254 0.21609 0.0
H2593 H 0.79987 0.92396 0.18839 0.0
H2594 H 0.83866 0.92075 0.19161 0.0
H2595 H 0.83032 0.87858 0.24445 0.0
H2596 H 0.79145 0.88187 0.24175 0.0
H2597 H 0.71203 0.85602 0.14546 0.0
H2598 H 0.74057 0.872 0.16667 0.0
H2599 H 0.70101 0.86857 0.22233 0.0
H2600 H 0.67222 0.85305 0.20111 0.0
H2601 H 0.76424 0.87277 0.20564 0.0
H2602 H 0.69408 0.91792 0.23678 0.0
H2603 H 0.65595 0.92222 0.22919 0.0
H2604 H 0.66753 0.91299 0.16272 0.0
H2605 H 0.7057 0.90899 0.16992 0.0
C2606 C 0.80068 0.96619 0.23516 0.0
C2607 C 0.80087 0.9803 0.21791 0.0
C2608 C 0.78663 0.94877 0.23531 0.0
C2609 C 0.77256 0.94545 0.21833 0.0
C2610 C 0.77175 0.96036 0.2019 0.0
C2611 C 0.78586 0.9776 0.20165 0.0
C2612 C 0.75986 0.92565 0.21635 0.0
C2613 C 0.73785 0.92721 0.21434 0.0
C2614 C 0.7695 0.90572 0.21374 0.0
C2615 C 0.7928 0.90336 0.21504 0.0
C2616 C 0.80633 0.91412 0.20078 0.0
C2617 C 0.82832 0.91228 0.2025 0.0
C2618 C 0.83696 0.89952 0.21827 0.0
C2619 C 0.82361 0.8885 0.23228 0.0
C2620 C 0.8016 0.89035 0.23066 0.0
C2621 C 0.7098 0.85763 0.16242 0.0
C2622 C 0.68978 0.85399 0.17157 0.0
C2623 C 0.72618 0.86668 0.17457 0.0
C2624 C 0.72261 0.87197 0.1959 0.0
C2625 C 0.70391 0.86484 0.20582 0.0
C2626 C 0.68745 0.85609 0.19365 0.0
C2627 C 0.73497 0.88977 0.2053 0.0
C2628 C 0.75686 0.8879 0.20845 0.0
C2629 C 0.72536 0.90963 0.20849 0.0
C2630 C 0.70262 0.91295 0.20393 0.0
C2631 C 0.68846 0.91695 0.22056 0.0
C2632 C 0.66686 0.91932 0.21631 0.0
C2633 C 0.65931 0.91783 0.19549 0.0
C2634 C 0.67337 0.91414 0.17884 0.0
C2635 C 0.69498 0.91184 0.18299 0.0
H2636 H 0.64257 0.91956 0.19225 0.0
H2637 H 0.85399 0.89814 0.2196 0.0
H2638 H 0.79431 0.11817 0.94182 0.0
H2639 H 0.81348 0.09291 0.92023 0.0
H2640 H 0.84455 0.06958 0.97619 0.0
H2641 H 0.8254 0.09485 -0.00202 0.0
H2642 H 0.85498 0.06695 0.91418 0.0
H2643 H 0.82067 0.02588 0.98309 0.0
H2644 H 0.79706 0.03133 0.01378 0.0
H2645 H 0.75659 0.06968 0.97552 0.0
H2646 H 0.77994 0.0643 0.94459 0.0
H2647 H 0.81794 0.94692 0.91368 0.0
H2648 H 0.82711 0.98006 0.93116 0.0
H2649 H 0.81991 0.01346 0.87195 0.0
H2650 H 0.81166 0.97968 0.85389 0.0
H2651 H 0.80351 0.01104 0.93718 0.0
H2652 H 0.85122 0.0607 0.87411 0.0
H2653 H 0.87587 0.05418 0.84459 0.0
H2654 H 0.89275 -0.00529 0.8722 0.0
H2655 H 0.86899 0.00127 0.90237 0.0
C2656 C 0.80604 0.10841 0.9494 0.0
C2657 C 0.80777 0.10777 0.97162 0.0
C2658 C 0.81724 0.09419 0.93697 0.0
C2659 C 0.82996 0.0791 0.94674 0.0
C2660 C 0.8347 0.08112 0.96844 0.0
C2661 C 0.82356 0.09544 0.98091 0.0
C2662 C 0.83083 0.05804 0.93672 0.0
C2663 C 0.84394 0.05454 0.91915 0.0
C2664 C 0.81651 0.04194 0.94346 0.0
C2665 C 0.80207 0.04482 0.96169 0.0
C2666 C 0.80668 0.0354 0.98126 0.0
C2667 C 0.79338 0.0385 -0.00133 0.0
C2668 C 0.77538 0.05089 -0.0034 0.0
C2669 C 0.77056 0.06011 0.97709 0.0
C2670 C 0.78382 0.05705 0.95963 0.0
C2671 C 0.81812 0.9613 0.90431 0.0
C2672 C 0.81363 0.9608 0.88247 0.0
C2673 C 0.82358 0.98023 0.91433 0.0
C2674 C 0.82428 -0.00077 0.90288 0.0
C2675 C 0.81981 -0.0011 0.88102 0.0
C2676 C 0.81481 0.97971 0.87079 0.0
C2677 C 0.82789 0.01938 0.9145 0.0
C2678 C 0.81516 0.02294 0.93229 0.0
C2679 C 0.84297 0.03508 0.90812 0.0
C2680 C 0.85802 0.03138 0.89041 0.0
C2681 C 0.86034 0.04633 0.87403 0.0
C2682 C 0.87422 0.04265 0.85719 0.0
C2683 C 0.88585 0.02404 0.85651 0.0
C2684 C 0.88373 0.00913 0.87274 0.0
C2685 C 0.87011 0.01286 0.88976 0.0
H2686 H 0.89652 0.02118 0.84343 0.0
H2687 H 0.76517 0.0533 0.01012 0.0
H2688 H 0.7859 0.67532 0.96627 0.0
H2689 H 0.78894 0.70391 0.94041 0.0
H2690 H 0.72093 0.70321 0.93264 0.0
H2691 H 0.7177 0.67464 0.95873 0.0
H2692 H 0.77673 0.70793 0.89844 0.0
H2693 H 0.70712 0.75619 0.9269 0.0
H2694 H 0.68401 0.7603 0.95815 0.0
H2695 H 0.73488 0.74176 -0.00096 0.0
H2696 H 0.75833 0.7378 0.96805 0.0
H2697 H 0.76233 0.83068 0.87514 0.0
H2698 H 0.74695 0.79573 0.8831 0.0
H2699 H 0.80954 0.77218 0.89553 0.0
H2700 H 0.82503 0.80669 0.88709 0.0
H2701 H 0.7475 0.77727 0.9196 0.0
H2702 H 0.8134 0.72099 0.88802 0.0
H2703 H 0.83612 0.71784 0.85643 0.0
H2704 H 0.79182 0.75355 0.81994 0.0
H2705 H 0.76865 0.75665 0.8512 0.0
C2706 C 0.77159 0.68116 0.95899 0.0
C2707 C 0.75155 0.67293 0.96468 0.0
C2708 C 0.77336 0.69737 0.9441 0.0
C2709 C 0.75515 0.70568 0.93473 0.0
C2710 C 0.73515 0.69705 0.93983 0.0
C2711 C 0.73335 0.68079 0.95474 0.0
C2712 C 0.75734 0.72443 0.92091 0.0
C2713 C 0.77034 0.72313 0.90294 0.0
C2714 C 0.74817 0.74397 0.92634 0.0
C2715 C 0.73434 0.74641 0.94515 0.0
C2716 C 0.71335 0.75301 0.94258 0.0
C2717 C 0.7002 0.75532 0.96024 0.0
C2718 C 0.70794 0.7512 0.98057 0.0
C2719 C 0.72887 0.74485 0.98328 0.0
C2720 C 0.74209 0.74255 0.96567 0.0
C2721 C 0.77284 0.81795 0.87924 0.0
C2722 C 0.7949 0.8215 0.88064 0.0
C2723 C 0.76402 0.79799 0.88372 0.0
C2724 C 0.77709 0.78128 0.88967 0.0
C2725 C 0.79915 0.78466 0.89045 0.0
C2726 C 0.80799 0.8045 0.8858 0.0
C2727 C 0.76782 0.76109 0.89761 0.0
C2728 C 0.75341 0.76204 0.91451 0.0
C2729 C 0.77556 0.74123 0.89103 0.0
C2730 C 0.7893 0.73912 0.87203 0.0
C2731 C 0.8084 0.72803 0.87323 0.0
C2732 C 0.82139 0.7263 0.85538 0.0
C2733 C 0.81543 0.73552 0.8362 0.0
C2734 C 0.79644 0.74646 0.83482 0.0
C2735 C 0.78339 0.74824 0.85261 0.0
H2736 H 0.82553 0.73417 0.82241 0.0
H2737 H 0.69772 0.75298 -0.00579 0.0
H2738 H 0.26464 0.82705 0.05205 0.0
H2739 H 0.27642 0.80357 0.0803 0.0
H2740 H 0.3414 0.82307 0.06866 0.0
H2741 H 0.32976 0.84573 0.03977 0.0
H2742 H 0.33921 0.78314 0.06899 0.0
H2743 H 0.31337 0.83616 0.11556 0.0
H2744 H 0.28798 0.8614 0.13044 0.0
H2745 H 0.24483 0.81003 0.14514 0.0
H2746 H 0.26984 0.78447 0.13009 0.0
H2747 H 0.38301 0.7235 0.14768 0.0
H2748 H 0.36801 0.75721 0.13741 0.0
H2749 H 0.3072 0.72649 0.12706 0.0
H2750 H 0.32202 0.69249 0.13712 0.0
H2751 H 0.3084 0.77389 0.14088 0.0
H2752 H 0.33526 0.72218 0.08904 0.0
H2753 H 0.36316 0.69838 0.07638 0.0
H2754 H 0.40717 0.75107 0.07289 0.0
H2755 H 0.37974 0.77505 0.08622 0.0
C2756 C 0.28141 0.82647 0.05572 0.0
C2757 C 0.29633 0.83796 0.0436 0.0
C2758 C 0.28811 0.81321 0.07199 0.0
C2759 C 0.3098 0.81167 0.07674 0.0
C2760 C 0.3246 0.82393 0.06523 0.0
C2761 C 0.31795 0.83682 0.0487 0.0
C2762 C 0.31729 0.79559 0.09194 0.0
C2763 C 0.3327 0.7815 0.08484 0.0
C2764 C 0.30857 0.7931 0.11252 0.0
C2765 C 0.29342 0.80841 0.12151 0.0
C2766 C 0.29839 0.83025 0.1218 0.0
C2767 C 0.28408 0.84462 0.1303 0.0
C2768 C 0.26479 0.83733 0.13869 0.0
C2769 C 0.25978 0.81565 0.13863 0.0
C2770 C 0.27403 0.80122 0.13013 0.0
C2771 C 0.36625 0.72393 0.14395 0.0
C2772 C 0.35388 0.70516 0.14246 0.0
C2773 C 0.35769 0.74329 0.13826 0.0
C2774 C 0.33667 0.74412 0.13117 0.0
C2775 C 0.32349 0.72603 0.13248 0.0
C2776 C 0.33207 0.70658 0.13804 0.0
C2777 C 0.33021 0.76193 0.11779 0.0
C2778 C 0.31496 0.77601 0.12511 0.0
C2779 C 0.33926 0.76474 0.09747 0.0
C2780 C 0.35555 0.75034 0.08897 0.0
C2781 C 0.35097 0.72863 0.08588 0.0
C2782 C 0.36671 0.7151 0.07862 0.0
C2783 C 0.38696 0.7232 0.074 0.0
C2784 C 0.39152 0.74482 0.07661 0.0
C2785 C 0.3759 0.75836 0.08406 0.0
H2786 H 0.39907 0.71282 0.06815 0.0
H2787 H 0.25373 0.84848 0.14527 0.0
H2788 H 0.89838 0.53104 0.79988 0.0
H2789 H 0.92814 0.54577 0.82026 0.0
H2790 H 0.95956 0.48576 0.81665 0.0
H2791 H 0.92936 0.47068 0.79665 0.0
H2792 H 0.96934 0.50984 0.85459 0.0
H2793 H 0.96842 0.518 0.77838 0.0
H2794 H 0.95198 0.52754 0.74428 0.0
H2795 H 0.94556 0.59173 0.76582 0.0
H2796 H 0.96165 0.58246 0.8002 0.0
H2797 H 0.07688 0.54817 0.84729 0.0
H2798 H 0.0424 0.53038 0.84252 0.0
H2799 H 0.01171 0.59085 0.84403 0.0
H2800 H 0.04605 0.60883 0.84882 0.0
H2801 H 0.00098 0.56637 0.80921 0.0
H2802 H 0.00501 0.55887 0.88453 0.0
H2803 H 0.02164 0.5492 0.91848 0.0
H2804 H 0.02322 0.48406 0.89869 0.0
H2805 H 0.00685 0.49339 0.86447 0.0
C2806 C 0.91132 0.52078 0.80404 0.0
C2807 C 0.91184 0.49987 0.79642 0.0
C2808 C 0.92825 0.52919 0.81573 0.0
C2809 C 0.94618 0.51696 0.8195 0.0
C2810 C 0.94584 0.49542 0.81381 0.0
C2811 C 0.92865 0.48686 0.80236 0.0
C2812 C 0.96631 0.52766 0.8257 0.0
C2813 C 0.97641 0.52207 0.84466 0.0
C2814 C 0.97532 0.54377 0.81275 0.0
C2815 C 0.96604 0.54949 0.79193 0.0
C2816 C 0.96338 0.53411 0.77589 0.0
C2817 C 0.95413 0.53948 0.75651 0.0
C2818 C 0.94768 0.56022 0.7529 0.0
C2819 C 0.95054 0.57566 0.76865 0.0
C2820 C 0.95972 0.57037 0.78808 0.0
C2821 C 0.0628 0.5577 0.84669 0.0
C2822 C 0.06423 0.57994 0.84825 0.0
C2823 C 0.04311 0.54748 0.84417 0.0
C2824 C 0.02457 0.55933 0.8431 0.0
C2825 C 0.02589 0.58147 0.84493 0.0
C2826 C 0.04552 0.59169 0.84763 0.0
C2827 C 0.00402 0.54878 0.83825 0.0
C2828 C -0.00611 0.55428 0.81933 0.0
C2829 C -0.00482 0.53259 0.85121 0.0
C2830 C 0.00488 0.52687 0.87183 0.0
C2831 C 0.00906 0.54251 0.88733 0.0
C2832 C 0.01841 0.53708 0.90665 0.0
C2833 C 0.02354 0.51604 0.91072 0.0
C2834 C 0.01926 0.50036 0.8955 0.0
C2835 C 0.00992 0.50571 0.87615 0.0
H2836 H 0.03078 0.51187 0.92567 0.0
H2837 H 0.94052 0.56434 0.7379 0.0
H2838 H 0.25524 0.17123 0.54411 0.0
H2839 H 0.23476 0.19238 0.56867 0.0
H2840 H 0.18042 0.15065 0.55924 0.0
H2841 H 0.20075 0.12976 0.53394 0.0
H2842 H 0.1698 0.18873 0.55192 0.0
H2843 H 0.20457 0.15722 0.60957 0.0
H2844 H 0.23405 0.14312 0.63064 0.0
H2845 H 0.26292 0.20526 0.63416 0.0
H2846 H 0.2338 0.2197 0.61285 0.0
H2847 H 0.11986 0.27353 0.60544 0.0
H2848 H 0.13237 0.23723 0.60186 0.0
H2849 H 0.19637 0.26113 0.59349 0.0
H2850 H 0.1842 0.2973 0.59723 0.0
H2851 H 0.19467 0.22454 0.61781 0.0
H2852 H 0.16532 0.25138 0.55097 0.0
H2853 H 0.13631 0.26556 0.52924 0.0
H2854 H 0.09742 0.21083 0.54368 0.0
H2855 H 0.12616 0.19647 0.56572 0.0
C2856 C 0.23908 0.16627 0.5476 0.0
C2857 C 0.22949 0.14905 0.53687 0.0
C2858 C 0.22741 0.17825 0.56186 0.0
C2859 C 0.20606 0.17302 0.56599 0.0
C2860 C 0.19688 0.15497 0.55632 0.0
C2861 C 0.20848 0.14309 0.54184 0.0
C2862 C 0.1927 0.18837 0.57741 0.0
C2863 C 0.17487 0.19603 0.56674 0.0
C2864 C 0.19934 0.1981 0.59664 0.0
C2865 C 0.21696 0.18954 0.60954 0.0
C2866 C 0.21726 0.16787 0.61472 0.0
C2867 C 0.23391 0.15982 0.62673 0.0
C2868 C 0.25035 0.17328 0.63373 0.0
C2869 C 0.25016 0.19485 0.62875 0.0
C2870 C 0.23355 0.20299 0.61674 0.0
C2871 C 0.13664 0.27106 0.60306 0.0
C2872 C 0.15098 0.28836 0.60127 0.0
C2873 C 0.14374 0.25031 0.60111 0.0
C2874 C 0.16525 0.24656 0.59731 0.0
C2875 C 0.17971 0.26371 0.59652 0.0
C2876 C 0.17266 0.28441 0.59844 0.0
C2877 C 0.17264 0.2252 0.59174 0.0
C2878 C 0.18925 0.21653 0.60349 0.0
C2879 C 0.16491 0.21444 0.57353 0.0
C2880 C 0.14774 0.223 0.56018 0.0
C2881 C 0.15052 0.24246 0.54961 0.0
C2882 C 0.13415 0.25051 0.53723 0.0
C2883 C 0.11501 0.23914 0.53514 0.0
C2884 C 0.11223 0.21965 0.54537 0.0
C2885 C 0.12855 0.21155 0.5578 0.0
H2886 H 0.10235 0.2454 0.52555 0.0
H2887 H 0.26323 0.16701 0.64301 0.0
H2888 H 0.0703 0.94345 0.83248 0.0
H2889 H 0.03544 0.93861 0.84872 0.0
H2890 H 0.01341 -0.00576 0.81645 0.0
H2891 H 0.04856 -0.00048 0.80052 0.0
H2892 H -0.00615 0.98806 0.8562 0.0
H2893 H 0.00742 0.94891 0.79223 0.0
H2894 H 0.02737 0.9251 0.76885 0.0
H2895 H 0.02066 0.8749 0.81437 0.0
H2896 H 0.00093 0.89853 0.83817 0.0
H2897 H 0.88552 0.95066 0.84007 0.0
H2898 H 0.92135 0.96622 0.83867 0.0
H2899 H 0.94578 0.91123 0.87021 0.0
H2900 H 0.91025 0.89552 0.87166 0.0
H2901 H 0.96396 0.91881 0.83174 0.0
H2902 H 0.94739 0.95798 0.89463 0.0
H2903 H 0.92733 0.98232 0.91732 0.0
H2904 H 0.93817 0.03276 0.87282 0.0
H2905 H 0.95803 0.00864 0.84967 0.0
C2906 C 0.05821 0.95499 0.8293 0.0
C2907 C 0.06194 0.97161 0.81495 0.0
C2908 C 0.03833 0.95223 0.83861 0.0
C2909 C 0.02178 0.9658 0.83336 0.0
C2910 C 0.026 0.98357 0.8206 0.0
C2911 C 0.04604 0.98652 0.81147 0.0
C2912 C -0.00031 0.95952 0.83851 0.0
C2913 C 0.98717 0.97302 0.85075 0.0
C2914 C 0.99112 0.93984 0.83142 0.0
C2915 C 0.00292 0.92556 0.81709 0.0
C2916 C 0.01036 0.93285 0.79733 0.0
C2917 C 0.0216 0.91938 0.78399 0.0
C2918 C 0.02535 0.89853 0.79015 0.0
C2919 C 0.0178 0.89108 0.80964 0.0
C2920 C 0.00657 0.90449 0.82305 0.0
C2921 C 0.89847 0.942 0.84698 0.0
C2922 C 0.89507 0.92162 0.85554 0.0
C2923 C 0.91889 0.95102 0.84633 0.0
C2924 C 0.93616 0.93982 0.85429 0.0
C2925 C 0.93262 0.92007 0.86394 0.0
C2926 C 0.91229 0.91108 0.86463 0.0
C2927 C 0.95812 0.94707 0.8499 0.0
C2928 C 0.97059 0.93379 0.83744 0.0
C2929 C 0.9664 0.967 0.85663 0.0
C2930 C 0.95407 0.98143 0.87031 0.0
C2931 C 0.94532 0.9742 0.88956 0.0
C2932 C 0.93405 0.98798 0.90255 0.0
C2933 C 0.93156 0.00909 0.89656 0.0
C2934 C 0.94021 0.01643 0.87749 0.0
C2935 C 0.95146 0.0027 0.86442 0.0
H2936 H 0.92282 0.01974 0.90663 0.0
H2937 H 0.03403 0.88811 0.77979 0.0
H2938 H 0.78371 0.31338 0.4516 0.0
H2939 H 0.76559 0.2865 0.42973 0.0
H2940 H 0.70739 0.32114 0.43454 0.0
H2941 H 0.72524 0.34735 0.45726 0.0
H2942 H 0.70102 0.28362 0.44787 0.0
H2943 H 0.73368 0.31205 0.38588 0.0
H2944 H 0.76263 0.32548 0.36304 0.0
H2945 H 0.79256 0.26501 0.36584 0.0
H2946 H 0.76395 0.25129 0.38896 0.0
H2947 H 0.64219 0.20525 0.39223 0.0
H2948 H 0.66052 0.23915 0.39839 0.0
H2949 H 0.71953 0.20688 0.40711 0.0
H2950 H 0.70144 0.17282 0.40086 0.0
H2951 H 0.72354 0.245 0.38335 0.0
H2952 H 0.69291 0.21914 0.44919 0.0
H2953 H 0.66366 0.2059 0.47179 0.0
H2954 H 0.62953 0.26306 0.46075 0.0
H2955 H 0.65848 0.27651 0.43782 0.0
C2956 C 0.76722 0.3155 0.44744 0.0
C2957 C 0.75573 0.33216 0.45627 0.0
C2958 C 0.75688 0.30022 0.43484 0.0
C2959 C 0.73508 0.30177 0.43052 0.0
C2960 C 0.72416 0.31953 0.43781 0.0
C2961 C 0.73434 0.33447 0.45077 0.0
C2962 C 0.72299 0.28343 0.42163 0.0
C2963 C 0.70569 0.27557 0.43343 0.0
C2964 C 0.7294 0.27248 0.40316 0.0
C2965 C 0.74672 0.2807 0.38932 0.0
C2966 C 0.74652 0.30166 0.38179 0.0
C2967 C 0.76286 0.30932 0.36876 0.0
C2968 C 0.77944 0.29612 0.36303 0.0
C2969 C 0.77971 0.27522 0.3703 0.0
C2970 C 0.76341 0.26749 0.38335 0.0
C2971 C 0.6591 0.20531 0.39531 0.0
C2972 C 0.6703 0.18628 0.39634 0.0
C2973 C 0.66953 0.22471 0.39874 0.0
C2974 C 0.6913 0.22541 0.40329 0.0
C2975 C 0.70271 0.20659 0.40355 0.0
C2976 C 0.69229 0.18715 0.40019 0.0
C2977 C 0.70179 0.24555 0.40961 0.0
C2978 C 0.71878 0.25351 0.39749 0.0
C2979 C 0.69509 0.25675 0.42774 0.0
C2980 C 0.67774 0.24871 0.4416 0.0
C2981 C 0.67909 0.2288 0.45144 0.0
C2982 C 0.66258 0.22128 0.46433 0.0
C2983 C 0.64471 0.2336 0.46765 0.0
C2984 C 0.64335 0.25351 0.45813 0.0
C2985 C 0.65981 0.2611 0.44519 0.0
H2986 H 0.63195 0.22775 0.47764 0.0
H2987 H 0.79207 0.30207 0.35293 0.0
H2988 H 0.89899 0.43212 0.68491 0.0
H2989 H 0.92768 0.42118 0.66162 0.0
H2990 H 0.96123 0.48024 0.67402 0.0
H2991 H 0.93195 0.4917 0.69663 0.0
H2992 H 0.96962 0.46601 0.63424 0.0
H2993 H 0.97023 0.43802 0.70486 0.0
H2994 H 0.95534 0.41983 0.73622 0.0
H2995 H 0.94566 0.36295 0.69957 0.0
H2996 H 0.96022 0.38093 0.6679 0.0
H2997 H 0.07586 0.42508 0.63598 0.0
H2998 H 0.04194 0.44241 0.64126 0.0
H2999 H 0.00872 0.38587 0.61986 0.0
H3000 H 0.04243 0.36841 0.61439 0.0
H3001 H -0.00064 0.39909 0.66148 0.0
H3002 H 0.00419 0.42801 0.59137 0.0
H3003 H 0.0213 0.44752 0.56197 0.0
H3004 H 0.02405 0.50408 0.60001 0.0
H3005 H 0.00724 0.48483 0.62977 0.0
C3006 C 0.91227 0.44296 0.68226 0.0
C3007 C 0.91353 0.46256 0.6928 0.0
C3008 C 0.92861 0.43672 0.66895 0.0
C3009 C 0.9468 0.44967 0.66657 0.0
C3010 C 0.94736 0.46999 0.67574 0.0
C3011 C 0.93071 0.47647 0.68871 0.0
C3012 C 0.96615 0.44083 0.65708 0.0
C3013 C 0.97624 0.45145 0.64022 0.0
C3014 C 0.97471 0.4218 0.66491 0.0
C3015 C 0.9661 0.41089 0.68397 0.0
C3016 C 0.96479 0.42168 0.70346 0.0
C3017 C 0.95642 0.4114 0.72129 0.0
C3018 C 0.94951 0.39026 0.71987 0.0
C3019 C 0.95099 0.37934 0.70063 0.0
C3020 C 0.9593 0.38956 0.68274 0.0
C3021 C 0.06136 0.41645 0.632 0.0
C3022 C 0.06184 0.39522 0.62514 0.0
C3023 C 0.04202 0.42646 0.63485 0.0
C3024 C 0.02292 0.41538 0.63093 0.0
C3025 C 0.02336 0.39466 0.6229 0.0
C3026 C 0.04266 0.3847 0.61987 0.0
C3027 C 0.00271 0.42404 0.63841 0.0
C3028 C 0.9926 0.41347 0.65519 0.0
C3029 C -0.00547 0.44328 0.63077 0.0
C3030 C 0.00462 0.45491 0.61288 0.0
C3031 C 0.00862 0.44456 0.59355 0.0
C3032 C 0.01822 0.45558 0.5768 0.0
C3033 C 0.0238 0.47701 0.57914 0.0
C3034 C 0.01974 0.48747 0.59822 0.0
C3035 C 0.01015 0.47651 0.61503 0.0
H3036 H 0.03123 0.48552 0.56615 0.0
H3037 H 0.94304 0.38233 0.7337 0.0
H3038 H 0.60436 0.5149 0.14215 0.0
H3039 H 0.5819 0.53312 0.11662 0.0
H3040 H 0.58414 0.58902 0.15644 0.0
H3041 H 0.60774 0.57161 0.18062 0.0
H3042 H 0.54557 0.54067 0.12371 0.0
H3043 H 0.56604 0.63194 0.13856 0.0
H3044 H 0.59793 0.65507 0.13691 0.0
H3045 H 0.62851 0.60996 0.09676 0.0
H3046 H 0.59667 0.58673 0.0977 0.0
H3047 H 0.46294 0.59326 0.16266 0.0
H3048 H 0.49674 0.57845 0.15281 0.0
H3049 H 0.50041 0.61991 0.09853 0.0
H3050 H 0.4665 0.63543 0.10874 0.0
H3051 H 0.53763 0.61835 0.11643 0.0
H3052 H 0.49125 0.56666 0.09047 0.0
H3053 H 0.45976 0.54292 0.08882 0.0
H3054 H 0.48245 0.50826 0.14249 0.0
H3055 H 0.51389 0.532 0.14476 0.0
C3056 C 0.6008 0.53142 0.14483 0.0
C3057 C 0.60753 0.54176 0.16349 0.0
C3058 C 0.58788 0.54182 0.13028 0.0
C3059 C 0.58103 0.56251 0.13449 0.0
C3060 C 0.58943 0.57335 0.15224 0.0
C3061 C 0.60285 0.56322 0.16636 0.0
C3062 C 0.56203 0.57106 0.12359 0.0
C3063 C 0.54406 0.55762 0.12165 0.0
C3064 C 0.55996 0.59303 0.11955 0.0
C3065 C 0.57885 0.60751 0.11821 0.0
C3066 C 0.5794 0.62704 0.12909 0.0
C3067 C 0.59753 0.64016 0.12835 0.0
C3068 C 0.61523 0.63394 0.1168 0.0
C3069 C 0.61479 0.61472 0.10575 0.0
C3070 C 0.5967 0.60157 0.10638 0.0
C3071 C 0.47083 0.59924 0.14857 0.0
C3072 C 0.46196 0.61544 0.13643 0.0
C3073 C 0.49011 0.59061 0.14283 0.0
C3074 C 0.50083 0.59763 0.12457 0.0
C3075 C 0.49228 0.61409 0.11254 0.0
C3076 C 0.47296 0.62296 0.11844 0.0
C3077 C 0.52143 0.58813 0.11911 0.0
C3078 C 0.53953 0.60136 0.11768 0.0
C3079 C 0.52376 0.56588 0.11913 0.0
C3080 C 0.50504 0.55115 0.11773 0.0
C3081 C 0.48953 0.55402 0.10197 0.0
C3082 C 0.47166 0.54056 0.10093 0.0
C3083 C 0.46912 0.52408 0.11552 0.0
C3084 C 0.48447 0.521 0.13116 0.0
C3085 C 0.50236 0.53444 0.13229 0.0
H3086 H 0.45525 0.5137 0.11472 0.0
H3087 H 0.62931 0.64396 0.1165 0.0
H3088 H 0.58023 0.70947 0.85432 0.0
H3089 H 0.60498 0.69981 0.82637 0.0
H3090 H 0.5602 0.65258 0.80324 0.0
H3091 H 0.53528 0.6622 0.83105 0.0
H3092 H 0.60288 0.64201 0.79599 0.0
H3093 H 0.55415 0.69974 0.78589 0.0
H3094 H 0.53797 0.73364 0.79581 0.0
H3095 H 0.59892 0.76505 0.79231 0.0
H3096 H 0.6155 0.73121 0.78268 0.0
H3097 H 0.59674 0.6679 0.67969 0.0
H3098 H 0.58958 0.67969 0.71592 0.0
H3099 H 0.65047 0.65696 0.73608 0.0
H3100 H 0.65736 0.64448 0.70006 0.0
H3101 H 0.60506 0.70383 0.7473 0.0
H3102 H 0.64371 0.62979 0.78169 0.0
H3103 H 0.65509 0.59441 0.76999 0.0
H3104 H 0.60687 0.59336 0.72178 0.0
H3105 H 0.59506 0.62858 0.73338 0.0
C3106 C 0.57597 0.69642 0.84385 0.0
C3107 C 0.55559 0.68696 0.84448 0.0
C3108 C 0.59015 0.69096 0.82787 0.0
C3109 C 0.58413 0.67588 0.81253 0.0
C3110 C 0.56502 0.66438 0.81491 0.0
C3111 C 0.55077 0.66992 0.83079 0.0
C3112 C 0.59545 0.67491 0.79211 0.0
C3113 C 0.60377 0.6556 0.78548 0.0
C3114 C 0.59603 0.69255 0.77825 0.0
C3115 C 0.5861 0.71293 0.78385 0.0
C3116 C 0.56412 0.71385 0.78741 0.0
C3117 C 0.55487 0.73304 0.79295 0.0
C3118 C 0.56742 0.75147 0.79476 0.0
C3119 C 0.58924 0.75075 0.79096 0.0
C3120 C 0.59856 0.73157 0.78546 0.0
C3121 C 0.60885 0.66603 0.69172 0.0
C3122 C 0.62738 0.65494 0.68726 0.0
C3123 C 0.60477 0.67277 0.7124 0.0
C3124 C 0.61928 0.66867 0.72875 0.0
C3125 C 0.63887 0.65981 0.72377 0.0
C3126 C 0.64279 0.65275 0.70321 0.0
C3127 C 0.61261 0.6709 0.75112 0.0
C3128 C 0.60495 0.69042 0.75806 0.0
C3129 C 0.61207 0.65327 0.76504 0.0
C3130 C 0.61869 0.63188 0.75825 0.0
C3131 C 0.6355 0.62195 0.76865 0.0
C3132 C 0.64203 0.60194 0.76203 0.0
C3133 C 0.63176 0.59167 0.74511 0.0
C3134 C 0.61486 0.60135 0.73484 0.0
C3135 C 0.60824 0.62133 0.74143 0.0
H3136 H 0.63686 0.57621 0.73998 0.0
H3137 H 0.56024 0.76632 0.79904 0.0
H3138 H 0.5229 0.277 0.1001 0.0
H3139 H 0.54955 0.28762 0.0735 0.0
H3140 H 0.4999 0.31028 0.03286 0.0
H3141 H 0.47338 0.30025 0.05924 0.0
H3142 H 0.53127 0.27845 0.01543 0.0
H3143 H 0.52427 0.34567 0.05444 0.0
H3144 H 0.52709 0.36743 0.08692 0.0
H3145 H 0.59303 0.35259 0.09248 0.0
H3146 H 0.59048 0.33048 0.06017 0.0
H3147 H 0.55469 0.34136 0.93078 0.0
H3148 H 0.54223 0.33021 0.96554 0.0
H3149 H 0.60676 0.32596 0.98757 0.0
H3150 H 0.61961 0.33724 0.95255 0.0
H3151 H 0.57695 0.34346 0.01819 0.0
H3152 H 0.58623 0.28227 0.97577 0.0
H3153 H 0.58432 0.26054 0.94323 0.0
H3154 H 0.51629 0.26198 0.94483 0.0
H3155 H 0.51779 0.28405 0.97717 0.0
C3156 C 0.51773 0.2844 0.08555 0.0
C3157 C 0.49605 0.28778 0.08174 0.0
C3158 C 0.53294 0.29046 0.07046 0.0
C3159 C 0.52656 0.29966 0.05133 0.0
C3160 C 0.50503 0.30319 0.0476 0.0
C3161 C 0.48993 0.2975 0.06272 0.0
C3162 C 0.54194 0.30493 0.03451 0.0
C3163 C 0.54138 0.29257 0.01603 0.0
C3164 C 0.55564 0.3229 0.03574 0.0
C3165 C 0.55711 0.33618 0.0551 0.0
C3166 C 0.5393 0.34685 0.06273 0.0
C3167 C 0.54086 0.3593 0.08107 0.0
C3168 C 0.56021 0.36133 0.09181 0.0
C3169 C 0.57804 0.35096 0.08418 0.0
C3170 C 0.57655 0.33848 0.06586 0.0
C3171 C 0.56633 0.33829 0.94299 0.0
C3172 C 0.58818 0.33987 0.93875 0.0
C3173 C 0.55915 0.33195 0.96287 0.0
C3174 C 0.57361 0.32695 0.97892 0.0
C3175 C 0.59541 0.32968 0.97528 0.0
C3176 C 0.60268 0.33607 0.95527 0.0
C3177 C 0.5655 0.31748 -0.00124 0.0
C3178 C 0.5674 0.32896 0.01778 0.0
C3179 C 0.55321 0.29847 -0.00183 0.0
C3180 C 0.55214 0.28491 0.97887 0.0
C3181 C 0.57086 0.27807 0.96911 0.0
C3182 C 0.56985 0.26568 0.9507 0.0
C3183 C 0.5502 0.2599 0.94196 0.0
C3184 C 0.53151 0.26647 0.95163 0.0
C3185 C 0.53243 0.27889 0.97002 0.0
H3186 H 0.54945 0.25032 0.9277 0.0
H3187 H 0.56139 0.37098 0.106 0.0
H3188 H 0.02087 0.26703 0.29923 0.0
H3189 H 0.00565 0.28284 0.26734 0.0
H3190 H 0.94557 0.25176 0.2806 0.0
H3191 H 0.96063 0.23578 0.31226 0.0
H3192 H 0.9538 0.25262 0.23819 0.0
H3193 H 0.95477 0.30078 0.29806 0.0
H3194 H 0.97175 0.3214 0.32697 0.0
H3195 H 0.01062 0.35482 0.28171 0.0
H3196 H -0.0059 0.33414 0.25254 0.0
H3197 H 0.89222 0.3531 0.20595 0.0
H3198 H 0.91053 0.33094 0.23145 0.0
H3199 H 0.94667 0.3032 0.18079 0.0
H3200 H 0.92827 0.32507 0.15504 0.0
H3201 H 0.95207 0.33123 0.24043 0.0
H3202 H 0.95795 0.25187 0.1952 0.0
H3203 H 0.93821 0.23126 0.16801 0.0
H3204 H 0.8803 0.26047 0.187 0.0
H3205 H 0.89964 0.28102 0.21447 0.0
C3206 C 0.00452 0.26329 0.29513 0.0
C3207 C 0.99181 0.25047 0.30838 0.0
C3208 C -0.00412 0.27232 0.27695 0.0
C3209 C 0.97444 0.26866 0.27185 0.0
C3210 C 0.96215 0.25477 0.2843 0.0
C3211 C 0.97075 0.24577 0.30245 0.0
C3212 C 0.96411 0.28084 0.25491 0.0
C3213 C 0.95357 0.26981 0.23852 0.0
C3214 C 0.96353 0.30323 0.25566 0.0
C3215 C 0.97341 0.31572 0.27316 0.0
C3216 C 0.96707 0.3124 0.2943 0.0
C3217 C 0.97659 0.32411 0.31072 0.0
C3218 C 0.99231 0.33936 0.30619 0.0
C3219 C -0.00151 0.34296 0.2852 0.0
C3220 C 0.98906 0.33125 0.26872 0.0
C3221 C 0.90387 0.34212 0.20015 0.0
C3222 C 0.90877 0.34088 0.17843 0.0
C3223 C 0.91439 0.32955 0.21477 0.0
C3224 C 0.9299 0.31546 0.20797 0.0
C3225 C 0.93458 0.31385 0.1863 0.0
C3226 C 0.92405 0.3264 0.17164 0.0
C3227 C 0.94166 0.30303 0.22373 0.0
C3228 C 0.95253 0.31404 0.23989 0.0
C3229 C 0.94216 0.28064 0.22298 0.0
C3230 C 0.9303 0.26815 0.20672 0.0
C3231 C 0.94099 0.25383 0.19361 0.0
C3232 C 0.92988 0.24217 0.17815 0.0
C3233 C 0.90803 0.24462 0.17573 0.0
C3234 C 0.89724 0.25866 0.18883 0.0
C3235 C 0.90828 0.27034 0.20433 0.0
H3236 H 0.89946 0.2356 0.16373 0.0
H3237 H -0.00035 0.34842 0.31892 0.0
H3238 H 0.93344 0.75292 0.60275 0.0
H3239 H 0.91775 0.73197 0.57402 0.0
H3240 H 0.9666 0.68556 0.58113 0.0
H3241 H 0.98272 0.70672 0.60959 0.0
H3242 H 0.96517 0.69748 0.54228 0.0
H3243 H 0.91402 0.6728 0.59103 0.0
H3244 H 0.88721 0.67387 0.61938 0.0
H3245 H 0.8471 0.71132 0.57989 0.0
H3246 H 0.87384 0.71082 0.5514 0.0
H3247 H 0.88049 0.64249 0.46722 0.0
H3248 H 0.89336 0.65073 0.50295 0.0
H3249 H 0.92933 0.70416 0.47831 0.0
H3250 H 0.9174 0.69527 0.44244 0.0
H3251 H 0.88911 0.68125 0.52847 0.0
H3252 H 0.97258 0.7146 0.50524 0.0
H3253 H 2e-05 0.70856 0.47818 0.0
H3254 H 0.9769 0.64461 0.46953 0.0
H3255 H 0.94952 0.65019 0.49679 0.0
C3256 C 0.94057 0.73801 0.59858 0.0
C3257 C 0.95949 0.73163 0.60827 0.0
C3258 C 0.93151 0.72597 0.58218 0.0
C3259 C 0.94101 0.70719 0.57539 0.0
C3260 C 0.95908 0.70006 0.58603 0.0
C3261 C 0.96825 0.71217 0.60231 0.0
C3262 C 0.93369 0.69659 0.55561 0.0
C3263 C 0.94856 0.6937 0.53936 0.0
C3264 C 0.91211 0.69122 0.55192 0.0
C3265 C 0.89604 0.69189 0.56911 0.0
C3266 C 0.89958 0.68144 0.58845 0.0
C3267 C 0.88436 0.6819 0.60453 0.0
C3268 C 0.86546 0.69264 0.60144 0.0
C3269 C 0.86175 0.70299 0.58226 0.0
C3270 C 0.87693 0.70261 0.56612 0.0
C3271 C 0.89121 0.65596 0.46946 0.0
C3272 C 0.89812 0.66816 0.45208 0.0
C3273 C 0.89852 0.66066 0.48988 0.0
C3274 C 0.91264 0.67782 0.49331 0.0
C3275 C 0.91899 0.69043 0.47601 0.0
C3276 C 0.91207 0.68544 0.45553 0.0
C3277 C 0.92051 0.68277 0.51499 0.0
C3278 C 0.90576 0.68467 0.53154 0.0
C3279 C 0.94232 0.6865 0.51922 0.0
C3280 C 0.95894 0.68287 0.50301 0.0
C3281 C 0.97347 0.69921 0.49769 0.0
C3282 C 0.98897 0.69587 0.48228 0.0
C3283 C 0.99016 0.67623 0.4721 0.0
C3284 C 0.97591 0.65984 0.47738 0.0
C3285 C 0.96038 0.66309 0.49281 0.0
H3286 H 0.00212 0.67372 0.46011 0.0
H3287 H 0.85368 0.69294 0.6139 0.0
H3288 H 0.50428 0.31294 0.63405 0.0
H3289 H 0.52113 0.32842 0.66573 0.0
H3290 H 0.52488 0.26623 0.69355 0.0
H3291 H 0.5084 0.25057 0.6619 0.0
H3292 H 0.5071 0.29936 0.72019 0.0
H3293 H 0.56746 0.28526 0.67463 0.0
H3294 H 0.58782 0.28857 0.6414 0.0
H3295 H 0.5907 0.35625 0.64882 0.0
H3296 H 0.57008 0.35336 0.68197 0.0
H3297 H 0.57417 0.30894 0.8071 0.0
H3298 H 0.55932 0.29841 0.77292 0.0
H3299 H 0.57087 0.36154 0.74884 0.0
H3300 H 0.58629 0.37218 0.78295 0.0
H3301 H 0.57938 0.33204 0.71925 0.0
H3302 H 0.52232 0.34765 0.76502 0.0
H3303 H 0.5009 0.34661 0.79769 0.0
H3304 H 0.48941 0.2798 0.78914 0.0
H3305 H 0.51114 0.28034 0.75665 0.0
C3306 C 0.5087 0.30258 0.64693 0.0
C3307 C 0.50507 0.28055 0.64553 0.0
C3308 C 0.51835 0.31143 0.66492 0.0
C3309 C 0.52423 0.2984 0.68182 0.0
C3310 C 0.52042 0.27647 0.68058 0.0
C3311 C 0.5111 0.26758 0.66249 0.0
C3312 C 0.53421 0.30754 0.70099 0.0
C3313 C 0.52297 0.30634 0.7201 0.0
C3314 C 0.55453 0.3174 0.70049 0.0
C3315 C 0.56701 0.31911 0.68063 0.0
C3316 C 0.57226 0.30086 0.66907 0.0
C3317 C 0.58388 0.30266 0.65027 0.0
C3318 C 0.59049 0.32261 0.64297 0.0
C3319 C 0.58554 0.34081 0.65448 0.0
C3320 C 0.5739 0.3391 0.67328 0.0
C3321 C 0.57379 0.32058 0.79452 0.0
C3322 C 0.58113 0.34151 0.79788 0.0
C3323 C 0.56521 0.31454 0.775 0.0
C3324 C 0.56356 0.32934 0.75856 0.0
C3325 C 0.57188 0.34993 0.76142 0.0
C3326 C 0.58065 0.35597 0.78093 0.0
C3327 C 0.55252 0.32331 0.73869 0.0
C3328 C 0.56345 0.32521 0.7194 0.0
C3329 C 0.53171 0.31445 0.73894 0.0
C3330 C 0.51857 0.314 0.75849 0.0
C3331 C 0.51541 0.33269 0.77022 0.0
C3332 C 0.50319 0.3322 0.78869 0.0
C3333 C 0.49385 0.31314 0.79551 0.0
C3334 C 0.49669 0.29454 0.78385 0.0
C3335 C 0.50896 0.29493 0.7654 0.0
H3336 H 0.48437 0.3128 0.80981 0.0
H3337 H 0.59949 0.32397 0.62841 0.0
H3338 H 0.92881 0.28771 0.93232 0.0
H3339 H 0.91329 0.31631 0.9533 0.0
H3340 H 0.96866 0.3558 0.94178 0.0
H3341 H 0.98403 0.32759 0.92035 0.0
H3342 H 0.9533 0.3447 0.98777 0.0
H3343 H 0.93333 0.37417 0.91999 0.0
H3344 H 0.91688 0.37225 0.88451 0.0
H3345 H 0.85661 0.35658 0.9126 0.0
H3346 H 0.87279 0.35807 0.94825 0.0
H3347 H 0.91637 0.41508 0.05816 0.0
H3348 H 0.9302 0.40948 0.02243 0.0
H3349 H 0.87209 0.37655 0.00501 0.0
H3350 H 0.85778 0.3832 0.04015 0.0
H3351 H 0.89188 0.38946 0.97009 0.0
H3352 H 0.9094 0.35038 0.03319 0.0
H3353 H 0.922 0.34689 0.07005 0.0
H3354 H 0.98257 0.37373 0.05242 0.0
H3355 H 0.97016 0.37764 0.01547 0.0
C3356 C 0.93755 0.30254 0.93414 0.0
C3357 C 0.9576 0.30546 0.92484 0.0
C3358 C 0.92863 0.31887 0.94592 0.0
C3359 C 0.9398 0.33812 0.94874 0.0
C3360 C 0.95977 0.34109 0.93945 0.0
C3361 C 0.96851 0.32497 0.92735 0.0
C3362 C 0.93163 0.35418 0.96335 0.0
C3363 C 0.94026 0.35495 0.98378 0.0
C3364 C 0.91412 0.36678 0.95818 0.0
C3365 C 0.90432 0.36606 0.93678 0.0
C3366 C 0.91662 0.37012 0.91859 0.0
C3367 C 0.90733 0.36915 0.89845 0.0
C3368 C 0.88573 0.36425 0.8963 0.0
C3369 C 0.87335 0.36036 0.91429 0.0
C3370 C 0.88256 0.36129 0.93447 0.0
C3371 C 0.90616 0.40767 0.04632 0.0
C3372 C 0.88629 0.39903 0.05198 0.0
C3373 C 0.91406 0.40446 0.02593 0.0
C3374 C 0.9025 0.3918 0.01144 0.0
C3375 C 0.88139 0.38611 0.01604 0.0
C3376 C 0.87324 0.38988 0.03622 0.0
C3377 C 0.91366 0.38014 -0.00543 0.0
C3378 C 0.90543 0.37984 0.97387 0.0
C3379 C 0.93112 0.36724 -0.00038 0.0
C3380 C 0.9388 0.36453 0.02168 0.0
C3381 C 0.92537 0.35561 0.03721 0.0
C3382 C 0.93247 0.35356 0.05811 0.0
C3383 C 0.95306 0.36015 0.06359 0.0
C3384 C 0.96661 0.36869 0.04816 0.0
C3385 C 0.95956 0.37083 0.02724 0.0
H3386 H 0.95852 0.35858 0.07979 0.0
H3387 H 0.87857 0.3635 0.88069 0.0
H3388 H 0.9335 0.69475 0.13803 0.0
H3389 H 0.92707 0.67397 0.17025 0.0
H3390 H 0.88138 0.71945 0.19104 0.0
H3391 H 0.88742 0.74018 0.15898 0.0
H3392 H 0.91978 0.71307 0.21739 0.0
H3393 H 0.8628 0.6746 0.18069 0.0
H3394 H 0.84868 0.65206 0.15171 0.0
H3395 H 0.89196 0.60313 0.16839 0.0
H3396 H 0.90655 0.62551 0.19732 0.0
H3397 H 0.88398 0.68218 0.31586 0.0
H3398 H 0.88547 0.69211 0.27857 0.0
H3399 H 0.91277 0.63178 0.26312 0.0
H3400 H 0.9101 0.62126 0.30054 0.0
H3401 H 0.88719 0.64248 0.23255 0.0
H3402 H 0.94412 0.67754 0.26835 0.0
H3403 H 0.96197 0.69884 0.29623 0.0
H3404 H 0.92462 0.75254 0.27975 0.0
H3405 H 0.90633 0.73148 0.25195 0.0
C3406 C 0.92168 0.70004 0.14919 0.0
C3407 C 0.91124 0.71932 0.14613 0.0
C3408 C 0.91799 0.6881 0.16752 0.0
C3409 C 0.90386 0.69532 0.18293 0.0
C3410 C 0.89235 0.7137 0.17922 0.0
C3411 C 0.89587 0.72553 0.1609 0.0
C3412 C 0.90342 0.6858 0.20423 0.0
C3413 C 0.91244 0.69774 0.2208 0.0
C3414 C 0.89488 0.66535 0.20825 0.0
C3415 C 0.88592 0.65183 0.19102 0.0
C3416 C 0.86944 0.65912 0.17806 0.0
C3417 C 0.86132 0.64635 0.16167 0.0
C3418 C 0.86946 0.62621 0.15816 0.0
C3419 C 0.88569 0.61875 0.1711 0.0
C3420 C 0.89387 0.63146 0.18752 0.0
C3421 C 0.89028 0.67103 0.3045 0.0
C3422 C 0.89727 0.65112 0.31104 0.0
C3423 C 0.89116 0.67671 0.28321 0.0
C3424 C 0.89981 0.66293 0.26814 0.0
C3425 C 0.90618 0.64271 0.27451 0.0
C3426 C 0.90475 0.63677 0.29584 0.0
C3427 C 0.9028 0.67019 0.24599 0.0
C3428 C 0.89458 0.65778 0.2292 0.0
C3429 C 0.91266 0.69005 0.24156 0.0
C3430 C 0.92375 0.70287 0.25815 0.0
C3431 C 0.93963 0.69386 0.27075 0.0
C3432 C 0.94983 0.70589 0.28653 0.0
C3433 C 0.94441 0.72702 0.28979 0.0
C3434 C 0.9288 0.73617 0.27722 0.0
C3435 C 0.91853 0.7242 0.26143 0.0
H3436 H 0.95232 0.7363 0.30202 0.0
H3437 H 0.86316 0.61636 0.14547 0.0
H3438 H 0.56533 0.67599 0.41575 0.0
H3439 H 0.57879 0.64553 0.43472 0.0
H3440 H 0.51573 0.61782 0.43689 0.0
H3441 H 0.50213 0.64828 0.41768 0.0
H3442 H 0.53048 0.6306 0.47519 0.0
H3443 H 0.55505 0.58661 0.4209 0.0
H3444 H 0.57234 0.57655 0.38743 0.0
H3445 H 0.63247 0.59879 0.41163 0.0
H3446 H 0.61554 0.60933 0.44513 0.0
H3447 H 0.58221 0.59831 0.56739 0.0
H3448 H 0.56295 0.59183 0.53412 0.0
H3449 H 0.61543 0.61962 0.49921 0.0
H3450 H 0.63523 0.62446 0.53226 0.0
H3451 H 0.59782 0.59141 0.47542 0.0
H3452 H 0.57082 0.64867 0.51983 0.0
H3453 H 0.55465 0.66355 0.55208 0.0
H3454 H 0.50052 0.62187 0.54428 0.0
H3455 H 0.51662 0.60637 0.51226 0.0
C3456 C 0.55447 0.663 0.41946 0.0
C3457 C 0.53261 0.66475 0.41581 0.0
C3458 C 0.56223 0.64542 0.4301 0.0
C3459 C 0.54821 0.62948 0.43739 0.0
C3460 C 0.52679 0.62994 0.43137 0.0
C3461 C 0.51904 0.64744 0.42049 0.0
C3462 C 0.55473 0.61673 0.45584 0.0
C3463 C 0.54478 0.62129 0.47516 0.0
C3464 C 0.57357 0.60499 0.4558 0.0
C3465 C 0.58396 0.59877 0.43562 0.0
C3466 C 0.57194 0.5895 0.41907 0.0
C3467 C 0.58169 0.58369 0.40008 0.0
C3468 C 0.60349 0.58702 0.39741 0.0
C3469 C 0.61559 0.59618 0.41374 0.0
C3470 C 0.60592 0.60203 0.43276 0.0
C3471 C 0.58965 0.6027 0.5525 0.0
C3472 C 0.60993 0.61227 0.55222 0.0
C3473 C 0.5787 0.59897 0.53354 0.0
C3474 C 0.58749 0.60574 0.51416 0.0
C3475 C 0.60827 0.61424 0.5139 0.0
C3476 C 0.6195 0.61724 0.53278 0.0
C3477 C 0.57439 0.60678 0.49462 0.0
C3478 C 0.58304 0.59991 0.47529 0.0
C3479 C 0.55462 0.61706 0.49451 0.0
C3480 C 0.54506 0.62614 0.5139 0.0
C3481 C 0.55556 0.64254 0.52514 0.0
C3482 C 0.54643 0.65106 0.54338 0.0
C3483 C 0.52664 0.64353 0.55032 0.0
C3484 C 0.51593 0.62752 0.539 0.0
C3485 C 0.52506 0.61884 0.52083 0.0
H3486 H 0.51956 0.65017 0.56442 0.0
H3487 H 0.61101 0.5825 0.3827 0.0
H3488 H 0.84581 0.5509 0.67667 0.0
H3489 H 0.82686 0.58138 0.66416 0.0
H3490 H 0.84289 0.61534 0.72179 0.0
H3491 H 0.86146 0.58426 0.73476 0.0
H3492 H 0.80396 0.61507 0.71911 0.0
H3493 H 0.85232 0.63895 0.67102 0.0
H3494 H 0.88076 0.64098 0.64435 0.0
H3495 H 0.83981 0.61085 0.59839 0.0
H3496 H 0.81123 0.60817 0.62485 0.0
H3497 H 0.71963 0.64294 0.62962 0.0
H3498 H 0.75476 0.65012 0.64491 0.0
H3499 H 0.74562 0.59707 0.68739 0.0
H3500 H 0.71016 0.59083 0.6731 0.0
H3501 H 0.78784 0.63062 0.64385 0.0
H3502 H 0.77087 0.59829 0.73051 0.0
H3503 H 0.74348 0.60289 0.75785 0.0
H3504 H 0.72475 0.66108 0.72879 0.0
H3505 H 0.75228 0.65708 0.70145 0.0
C3506 C 0.84588 0.56505 0.68644 0.0
C3507 C 0.8546 0.56499 0.70692 0.0
C3508 C 0.83524 0.58272 0.67912 0.0
C3509 C 0.8333 0.60079 0.69203 0.0
C3510 C 0.84404 0.60157 0.71158 0.0
C3511 C 0.85461 0.58377 0.71899 0.0
C3512 C 0.81622 0.6159 0.68717 0.0
C3513 C 0.80061 0.61892 0.70272 0.0
C3514 C 0.81227 0.6225 0.66613 0.0
C3515 C 0.82951 0.62345 0.65002 0.0
C3516 C 0.84938 0.6326 0.65529 0.0
C3517 C 0.86555 0.63388 0.64017 0.0
C3518 C 0.86207 0.62613 0.61966 0.0
C3519 C 0.84245 0.61695 0.61426 0.0
C3520 C 0.82622 0.61558 0.62933 0.0
C3521 C 0.72512 0.63302 0.64243 0.0
C3522 C 0.7123 0.61629 0.65021 0.0
C3523 C 0.74514 0.63718 0.65119 0.0
C3524 C 0.75279 0.62445 0.66763 0.0
C3525 C 0.73987 0.60771 0.67533 0.0
C3526 C 0.71968 0.60392 0.66697 0.0
C3527 C 0.77498 0.62684 0.67532 0.0
C3528 C 0.79146 0.62752 0.66034 0.0
C3529 C 0.78002 0.6247 0.69707 0.0
C3530 C 0.76375 0.62739 0.71389 0.0
C3531 C 0.76113 0.61222 0.73006 0.0
C3532 C 0.7455 0.61468 0.74553 0.0
C3533 C 0.73239 0.63227 0.74506 0.0
C3534 C 0.73491 0.64746 0.72913 0.0
C3535 C 0.75052 0.64509 0.71363 0.0
H3536 H 0.72027 0.63411 0.75703 0.0
H3537 H 0.87459 0.62721 0.60797 0.0
H3538 H 0.75295 0.55346 0.95065 0.0
H3539 H 0.73054 0.52507 0.93556 0.0
H3540 H 0.67737 0.54696 0.97207 0.0
H3541 H 0.69979 0.57465 0.98779 0.0
H3542 H 0.67753 0.50693 0.97406 0.0
H3543 H 0.68247 0.55651 0.91754 0.0
H3544 H 0.69998 0.58039 0.89176 0.0
H3545 H 0.73134 0.5275 0.86361 0.0
H3546 H 0.71423 0.50333 0.88941 0.0
H3547 H 0.62085 0.44706 0.87872 0.0
H3548 H 0.63532 0.47951 0.89496 0.0
H3549 H 0.66999 0.44209 0.93997 0.0
H3550 H 0.65519 0.40977 0.92437 0.0
H3551 H 0.6743 0.49315 0.89661 0.0
H3552 H 0.67793 0.46748 0.98546 0.0
H3553 H 0.65649 0.44641 0.01076 0.0
H3554 H 0.60062 0.45687 0.97353 0.0
H3555 H 0.62164 0.47825 0.94817 0.0
C3556 C 0.7365 0.55214 0.95547 0.0
C3557 C 0.72815 0.56622 0.97044 0.0
C3558 C 0.72367 0.53603 0.94674 0.0
C3559 C 0.70218 0.53408 0.95245 0.0
C3560 C 0.69389 0.54812 0.96744 0.0
C3561 C 0.70676 0.56394 0.97642 0.0
C3562 C 0.68838 0.51713 0.94325 0.0
C3563 C 0.67677 0.50398 0.95712 0.0
C3564 C 0.68687 0.51366 0.9211 0.0
C3565 C 0.6972 0.52813 0.90553 0.0
C3566 C 0.69322 0.54999 0.90595 0.0
C3567 C 0.70305 0.56358 0.89132 0.0
C3568 C 0.7168 0.55548 0.87609 0.0
C3569 C 0.7207 0.53376 0.87543 0.0
C3570 C 0.71092 0.5201 0.89004 0.0
C3571 C 0.63129 0.44576 0.8923 0.0
C3572 C 0.63686 0.42581 0.90025 0.0
C3573 C 0.63959 0.46431 0.9015 0.0
C3574 C 0.65361 0.46323 0.91876 0.0
C3575 C 0.65886 0.44335 0.92695 0.0
C3576 C 0.65041 0.42484 0.91793 0.0
C3577 C 0.66387 0.48269 0.92747 0.0
C3578 C 0.67488 0.49627 0.91353 0.0
C3579 C 0.66424 0.48701 0.9495 0.0
C3580 C 0.65142 0.47434 0.96482 0.0
C3581 C 0.66105 0.46538 0.98273 0.0
C3582 C 0.64897 0.45336 -0.00293 0.0
C3583 C 0.62722 0.45026 0.99373 0.0
C3584 C 0.61748 0.45922 0.97606 0.0
C3585 C 0.62948 0.47126 0.96168 0.0
H3586 H 0.6179 0.44094 0.00484 0.0
H3587 H 0.72439 0.56602 0.86477 0.0
H3588 H 0.6548 0.45384 0.18214 0.0
H3589 H 0.68041 0.42923 0.16755 0.0
H3590 H 0.68191 0.39596 0.22725 0.0
H3591 H 0.65591 0.42002 0.24172 0.0
H3592 H 0.7184 0.42949 0.18279 0.0
H3593 H 0.70209 0.3466 0.22104 0.0
H3594 H 0.67155 0.32302 0.22921 0.0
H3595 H 0.63506 0.35247 0.1803 0.0
H3596 H 0.66546 0.37603 0.17161 0.0
H3597 H 0.81326 0.38345 0.19423 0.0
H3598 H 0.77685 0.38636 0.2067 0.0
H3599 H 0.75386 0.35646 0.14932 0.0
H3600 H 0.79023 0.35341 0.13666 0.0
H3601 H 0.72618 0.35152 0.18805 0.0
H3602 H 0.76146 0.40369 0.14231 0.0
H3603 H 0.79098 0.4278 0.13201 0.0
H3604 H 0.78662 0.46012 0.19182 0.0
H3605 H 0.75729 0.43598 0.20259 0.0
C3606 C 0.6602 0.44097 0.19199 0.0
C3607 C 0.65368 0.43911 0.2132 0.0
C3608 C 0.67474 0.42686 0.1836 0.0
C3609 C 0.6831 0.4108 0.19633 0.0
C3610 C 0.67546 0.40801 0.21703 0.0
C3611 C 0.66073 0.42196 0.22535 0.0
C3612 C 0.70235 0.39972 0.18949 0.0
C3613 C 0.7199 0.4124 0.18371 0.0
C3614 C 0.7044 0.37743 0.19078 0.0
C3615 C 0.68605 0.36321 0.19579 0.0
C3616 C 0.68759 0.34799 0.21195 0.0
C3617 C 0.67029 0.33463 0.21669 0.0
C3618 C 0.65136 0.33628 0.20532 0.0
C3619 C 0.64971 0.35126 0.18915 0.0
C3620 C 0.66696 0.36465 0.18434 0.0
C3621 C 0.80058 0.37656 0.18469 0.0
C3622 C 0.80449 0.36885 0.16417 0.0
C3623 C 0.77978 0.37819 0.19188 0.0
C3624 C 0.76281 0.37203 0.17866 0.0
C3625 C 0.76682 0.36137 0.15964 0.0
C3626 C 0.78761 0.35983 0.15238 0.0
C3627 C 0.74192 0.38145 0.18194 0.0
C3628 C 0.72432 0.36854 0.187 0.0
C3629 C 0.73956 0.40356 0.17971 0.0
C3630 C 0.75737 0.41789 0.17334 0.0
C3631 C 0.76697 0.41578 0.15335 0.0
C3632 C 0.78363 0.42948 0.14741 0.0
C3633 C 0.79068 0.44544 0.16128 0.0
C3634 C 0.78116 0.44771 0.18113 0.0
C3635 C 0.76452 0.43404 0.18715 0.0
H3636 H 0.80341 0.45618 0.15664 0.0
H3637 H 0.63798 0.32593 0.20902 0.0
H3638 H 0.81927 0.42145 0.51193 0.0
H3639 H 0.83689 0.45355 0.49872 0.0
H3640 H 0.77664 0.47695 0.47742 0.0
H3641 H 0.75896 0.44453 0.4901 0.0
H3642 H 0.8048 0.48165 0.44761 0.0
H3643 H 0.80199 0.49801 0.52132 0.0
H3644 H 0.80684 0.49223 0.55968 0.0
H3645 H 0.8742 0.48886 0.5509 0.0
H3646 H 0.86973 0.49433 0.51243 0.0
H3647 H 0.85089 0.59301 0.45189 0.0
H3648 H 0.83884 0.56208 0.47191 0.0
H3649 H 0.86764 0.521 0.42587 0.0
H3650 H 0.87954 0.55186 0.40546 0.0
H3651 H 0.85442 0.52652 0.49041 0.0
H3652 H 0.83022 0.48356 0.41257 0.0
H3653 H 0.82199 0.49258 0.37541 0.0
H3654 H 0.80197 0.55428 0.39495 0.0
H3655 H 0.80972 0.54549 0.43223 0.0
C3656 C 0.80975 0.4335 0.50458 0.0
C3657 C 0.78776 0.43052 0.50198 0.0
C3658 C 0.81983 0.45187 0.49713 0.0
C3659 C 0.80804 0.4677 0.48728 0.0
C3660 C 0.78602 0.46489 0.48497 0.0
C3661 C 0.77594 0.44642 0.49224 0.0
C3662 C 0.81884 0.48671 0.47848 0.0
C3663 C 0.81564 0.49144 0.457 0.0
C3664 C 0.83273 0.49966 0.49082 0.0
C3665 C 0.8355 0.49639 0.51396 0.0
C3666 C 0.81783 0.49586 0.52754 0.0
C3667 C 0.82051 0.49268 0.54931 0.0
C3668 C 0.84081 0.49013 0.55771 0.0
C3669 C 0.85848 0.49081 0.54436 0.0
C3670 C 0.85588 0.49398 0.52258 0.0
C3671 C 0.85504 0.57742 0.4462 0.0
C3672 C 0.8657 0.57486 0.42679 0.0
C3673 C 0.84827 0.55978 0.45777 0.0
C3674 C 0.85201 0.53936 0.45009 0.0
C3675 C 0.86438 0.53673 0.43183 0.0
C3676 C 0.87117 0.55437 0.42021 0.0
C3677 C 0.84064 0.52108 0.45956 0.0
C3678 C 0.84369 0.51656 0.48109 0.0
C3679 C 0.82604 0.50871 0.44748 0.0
C3680 C 0.8208 0.51394 0.42515 0.0
C3681 C 0.82397 0.49901 0.40893 0.0
C3682 C 0.81939 0.50408 0.38786 0.0
C3683 C 0.81154 0.52402 0.38282 0.0
C3684 C 0.80812 0.53887 0.39886 0.0
C3685 C 0.81261 0.53385 0.41997 0.0
H3686 H 0.80806 0.52794 0.36649 0.0
H3687 H 0.84286 0.48766 0.57457 0.0
H3688 H 0.80488 0.45628 0.72864 0.0
H3689 H 0.77563 0.43429 0.74261 0.0
H3690 H 0.78191 0.46541 0.80333 0.0
H3691 H 0.81079 0.48792 0.78933 0.0
H3692 H 0.78263 0.41545 0.79945 0.0
H3693 H 0.74357 0.4795 0.78235 0.0
H3694 H 0.73235 0.50753 0.75781 0.0
H3695 H 0.70624 0.46038 0.71541 0.0
H3696 H 0.7176 0.43205 0.73959 0.0
H3697 H 0.69453 0.38392 0.86073 0.0
H3698 H 0.72501 0.39911 0.8422 0.0
H3699 H 0.69372 0.38766 0.78212 0.0
H3700 H 0.66257 0.37357 0.80083 0.0
H3701 H 0.70669 0.42537 0.78228 0.0
H3702 H 0.74099 0.36138 0.79878 0.0
H3703 H 0.753 0.33146 0.82049 0.0
H3704 H 0.78916 0.37441 0.85998 0.0
H3705 H 0.77713 0.40465 0.83871 0.0
C3706 C 0.79984 0.4586 0.7449 0.0
C3707 C 0.81003 0.47377 0.75794 0.0
C3708 C 0.78321 0.44603 0.7528 0.0
C3709 C 0.77682 0.44826 0.77394 0.0
C3710 C 0.78676 0.46354 0.78695 0.0
C3711 C 0.8031 0.47644 0.77892 0.0
C3712 C 0.76007 0.43422 0.78262 0.0
C3713 C 0.76596 0.41763 0.79596 0.0
C3714 C 0.73858 0.43664 0.7771 0.0
C3715 C 0.73167 0.45367 0.76264 0.0
C3716 C 0.73564 0.47511 0.76769 0.0
C3717 C 0.7292 0.49105 0.75387 0.0
C3718 C 0.71865 0.48574 0.73502 0.0
C3719 C 0.71445 0.46447 0.72999 0.0
C3720 C 0.72087 0.44847 0.74376 0.0
C3721 C 0.69438 0.3841 0.84354 0.0
C3722 C 0.67619 0.37763 0.8322 0.0
C3723 C 0.71189 0.39274 0.83291 0.0
C3724 C 0.7118 0.39445 0.81069 0.0
C3725 C 0.69414 0.38664 0.79927 0.0
C3726 C 0.6764 0.37849 0.80994 0.0
C3727 C 0.729 0.4065 0.79971 0.0
C3728 C 0.72329 0.42281 0.78577 0.0
C3729 C 0.75073 0.40346 0.80432 0.0
C3730 C 0.75801 0.38532 0.81722 0.0
C3731 C 0.75137 0.36447 0.81219 0.0
C3732 C 0.75821 0.34745 0.82441 0.0
C3733 C 0.7718 0.35104 0.84163 0.0
C3734 C 0.77862 0.37166 0.84664 0.0
C3735 C 0.77182 0.38875 0.83449 0.0
H3736 H 0.77707 0.33783 0.85106 0.0
H3737 H 0.71368 0.4981 0.72435 0.0
H3738 H 0.78789 0.61329 0.07033 0.0
H3739 H 0.80076 0.59268 0.1002 0.0
H3740 H 0.84296 0.55965 0.05827 0.0
H3741 H 0.83035 0.58042 0.02835 0.0
H3742 H 0.79178 0.5524 0.10045 0.0
H3743 H 0.88216 0.5374 0.08421 0.0
H3744 H 0.91453 0.55864 0.0768 0.0
H3745 H 0.88605 0.61353 0.10425 0.0
H3746 H 0.85358 0.59259 0.11201 0.0
H3747 H 0.81962 0.44814 0.10041 0.0
H3748 H 0.81344 0.4857 0.09529 0.0
H3749 H 0.85146 0.50077 0.15047 0.0
H3750 H 0.85804 0.46302 0.15563 0.0
H3751 H 0.86302 0.52474 0.11675 0.0
H3752 H 0.79948 0.50996 0.15336 0.0
H3753 H 0.76722 0.48967 0.16335 0.0
H3754 H 0.74223 0.49713 0.10049 0.0
H3755 H 0.77435 0.51742 0.09007 0.0
C3756 C 0.80038 0.60207 0.06758 0.0
C3757 C 0.80779 0.59807 0.04694 0.0
C3758 C 0.80777 0.59039 0.0847 0.0
C3759 C 0.82267 0.57454 0.08146 0.0
C3760 C 0.83162 0.57199 0.06121 0.0
C3761 C 0.8243 0.58377 0.04406 0.0
C3762 C 0.82555 0.55791 0.09764 0.0
C3763 C 0.80737 0.54662 0.1044 0.0
C3764 C 0.84584 0.55075 0.1034 0.0
C3765 C 0.86537 0.5634 0.09865 0.0
C3766 C 0.88282 0.55396 0.08878 0.0
C3767 C 0.90119 0.56597 0.08446 0.0
C3768 C 0.90234 0.58743 0.09002 0.0
C3769 C 0.88512 0.59693 0.09988 0.0
C3770 C 0.86671 0.58501 0.10419 0.0
C3771 C 0.82653 0.45937 0.11161 0.0
C3772 C 0.83941 0.45259 0.12835 0.0
C3773 C 0.82284 0.48084 0.10876 0.0
C3774 C 0.83184 0.49595 0.12264 0.0
C3775 C 0.84432 0.48929 0.13967 0.0
C3776 C 0.84799 0.46774 0.1426 0.0
C3777 C 0.8293 0.51868 0.11805 0.0
C3778 C 0.84748 0.53103 0.11348 0.0
C3779 C 0.809 0.5271 0.1147 0.0
C3780 C 0.78937 0.51525 0.12094 0.0
C3781 C 0.78713 0.50724 0.14164 0.0
C3782 C 0.76887 0.49573 0.14738 0.0
C3783 C 0.75272 0.49205 0.13255 0.0
C3784 C 0.75474 0.5 0.11198 0.0
C3785 C 0.77294 0.51161 0.10617 0.0
H3786 H 0.73863 0.48305 0.13702 0.0
H3787 H 0.91658 0.59668 0.08668 0.0
H3788 H 0.672 0.51047 0.30073 0.0
H3789 H 0.70129 0.53 0.31773 0.0
H3790 H 0.70331 0.57392 0.26535 0.0
H3791 H 0.67455 0.5541 0.24797 0.0
H3792 H 0.74119 0.56321 0.27423 0.0
H3793 H 0.68316 0.58769 0.31489 0.0
H3794 H 0.65087 0.58529 0.33683 0.0
H3795 H 0.68503 0.55197 0.38489 0.0
H3796 H 0.71747 0.5539 0.36311 0.0
H3797 H 0.79641 0.6329 0.36267 0.0
H3798 H 0.76431 0.61993 0.34458 0.0
H3799 H 0.79798 0.56535 0.32222 0.0
H3800 H 0.83019 0.5785 0.33962 0.0
H3801 H 0.74065 0.58606 0.34958 0.0
H3802 H 0.78007 0.54925 0.27495 0.0
H3803 H 0.81106 0.55603 0.25194 0.0
H3804 H 0.81132 0.62187 0.26941 0.0
H3805 H 0.78016 0.61555 0.29229 0.0
C3806 C 0.67862 0.52435 0.29289 0.0
C3807 C 0.67101 0.5307 0.27298 0.0
C3808 C 0.69528 0.53558 0.30268 0.0
C3809 C 0.70435 0.55357 0.29292 0.0
C3810 C 0.69659 0.56007 0.27316 0.0
C3811 C 0.68013 0.54872 0.26325 0.0
C3812 C 0.7226 0.56505 0.30281 0.0
C3813 C 0.74102 0.56828 0.29068 0.0
C3814 C 0.72223 0.57212 0.32414 0.0
C3815 C 0.70272 0.57079 0.33726 0.0
C3816 C 0.68375 0.57969 0.33005 0.0
C3817 C 0.66542 0.57844 0.34248 0.0
C3818 C 0.66588 0.56845 0.36223 0.0
C3819 C 0.68469 0.55969 0.36959 0.0
C3820 C 0.70306 0.56088 0.35721 0.0
C3821 C 0.79699 0.61821 0.35375 0.0
C3822 C 0.81589 0.60683 0.3524 0.0
C3823 C 0.77863 0.6108 0.3435 0.0
C3824 C 0.77881 0.59182 0.33182 0.0
C3825 C 0.79759 0.5803 0.33071 0.0
C3826 C 0.816 0.58783 0.3407 0.0
C3827 C 0.75932 0.58379 0.3211 0.0
C3828 C 0.74072 0.58114 0.33308 0.0
C3829 C 0.75928 0.57786 0.29943 0.0
C3830 C 0.77788 0.58187 0.28548 0.0
C3831 C 0.78668 0.56519 0.2738 0.0
C3832 C 0.80429 0.56895 0.2608 0.0
C3833 C 0.81319 0.58935 0.25926 0.0
C3834 C 0.80445 0.60606 0.27067 0.0
C3835 C 0.78683 0.60239 0.28368 0.0
H3836 H 0.82684 0.59222 0.2492 0.0
H3837 H 0.65169 0.56753 0.37184 0.0
H3838 H 0.71867 0.37905 0.58888 0.0
H3839 H 0.69592 0.40364 0.6077 0.0
H3840 H 0.66407 0.41797 0.54894 0.0
H3841 H 0.68602 0.39279 0.53036 0.0
H3842 H 0.70384 0.44198 0.59769 0.0
H3843 H 0.62109 0.44713 0.55559 0.0
H3844 H 0.59164 0.42305 0.54503 0.0
H3845 H 0.61076 0.378 0.5919 0.0
H3846 H 0.64015 0.40191 0.60297 0.0
H3847 H 0.67754 0.5466 0.5805 0.0
H3848 H 0.68032 0.50853 0.57365 0.0
H3849 H 0.63658 0.4951 0.62461 0.0
H3850 H 0.63361 0.53299 0.63157 0.0
H3851 H 0.63073 0.46813 0.58867 0.0
H3852 H 0.68495 0.49196 0.63695 0.0
H3853 H 0.71396 0.51567 0.64943 0.0
H3854 H 0.75079 0.50019 0.5945 0.0
H3855 H 0.72185 0.47662 0.58153 0.0
C3856 C 0.70611 0.38669 0.58021 0.0
C3857 C 0.70448 0.38453 0.5581 0.0
C3858 C 0.6931 0.40072 0.59097 0.0
C3859 C 0.67859 0.413 0.57968 0.0
C3860 C 0.67502 0.40864 0.55809 0.0
C3861 C 0.68775 0.3943 0.5474 0.0
C3862 C 0.67171 0.4335 0.58858 0.0
C3863 C 0.68771 0.44744 0.59605 0.0
C3864 C 0.65071 0.44076 0.58653 0.0
C3865 C 0.63293 0.42632 0.58005 0.0
C3866 C 0.61895 0.43215 0.56375 0.0
C3867 C 0.60228 0.4185 0.55764 0.0
C3868 C 0.59936 0.39899 0.56776 0.0
C3869 C 0.61308 0.39309 0.58403 0.0
C3870 C 0.62979 0.40667 0.59019 0.0
C3871 C 0.6683 0.53557 0.59004 0.0
C3872 C 0.65568 0.54277 0.6068 0.0
C3873 C 0.66987 0.51387 0.58611 0.0
C3874 C 0.65878 0.49912 0.5988 0.0
C3875 C 0.64524 0.50628 0.6147 0.0
C3876 C 0.64377 0.52793 0.61875 0.0
C3877 C 0.66304 0.47631 0.59681 0.0
C3878 C 0.64664 0.46222 0.59066 0.0
C3879 C 0.68361 0.46867 0.60035 0.0
C3880 C 0.70117 0.48265 0.60821 0.0
C3881 C 0.69918 0.49372 0.62747 0.0
C3882 C 0.71562 0.50712 0.63464 0.0
C3883 C 0.73419 0.50946 0.62275 0.0
C3884 C 0.73639 0.49837 0.60369 0.0
C3885 C 0.71998 0.48497 0.59643 0.0
H3886 H 0.7469 0.51985 0.62833 0.0
H3887 H 0.58644 0.38844 0.56301 0.0
H3888 H 0.69723 0.85163 0.56042 0.0
H3889 H 0.68585 0.81909 0.57826 0.0
H3890 H 0.75041 0.80786 0.59716 0.0
H3891 H 0.76196 0.84054 0.57949 0.0
H3892 H 0.73267 0.77681 0.57084 0.0
H3893 H 0.71516 0.81222 0.63489 0.0
H3894 H 0.6992 0.83967 0.65734 0.0
H3895 H 0.63706 0.82038 0.63596 0.0
H3896 H 0.65264 0.79301 0.61313 0.0
H3897 H 0.69875 0.67401 0.60325 0.0
H3898 H 0.7149 0.70952 0.60289 0.0
H3899 H 0.65329 0.73645 0.59282 0.0
H3900 H 0.63696 0.70101 0.59415 0.0
H3901 H 0.67401 0.75932 0.62049 0.0
H3902 H 0.69082 0.72981 0.55191 0.0
H3903 H 0.70552 0.70357 0.52717 0.0
H3904 H 0.76739 0.71328 0.5545 0.0
H3905 H 0.75298 0.7394 0.57958 0.0
C3906 C 0.70891 0.84261 0.56896 0.0
C3907 C 0.73053 0.84842 0.56825 0.0
C3908 C 0.70236 0.82409 0.57927 0.0
C3909 C 0.71733 0.81108 0.58891 0.0
C3910 C 0.73866 0.81777 0.58981 0.0
C3911 C 0.7452 0.83645 0.57972 0.0
C3912 C 0.71127 0.78903 0.59428 0.0
C3913 C 0.72023 0.77287 0.58213 0.0
C3914 C 0.69459 0.78414 0.60848 0.0
C3915 C 0.68511 0.80062 0.62218 0.0
C3916 C 0.6981 0.81394 0.63483 0.0
C3917 C 0.68912 0.82946 0.64766 0.0
C3918 C 0.66714 0.83179 0.64806 0.0
C3919 C 0.65409 0.81856 0.63564 0.0
C3920 C 0.66299 0.80301 0.62278 0.0
C3921 C 0.68869 0.6875 0.60073 0.0
C3922 C 0.66663 0.68478 0.5985 0.0
C3923 C 0.69793 0.70778 0.60058 0.0
C3924 C 0.68533 0.72563 0.5976 0.0
C3925 C 0.66331 0.72291 0.59523 0.0
C3926 C 0.65401 0.70267 0.59582 0.0
C3927 C 0.69504 0.74718 0.59663 0.0
C3928 C 0.68675 0.7632 0.60954 0.0
C3929 C 0.71211 0.75208 0.58282 0.0
C3930 C 0.72078 0.73635 0.56778 0.0
C3931 C 0.70752 0.72622 0.55275 0.0
C3932 C 0.71581 0.71139 0.53865 0.0
C3933 C 0.73736 0.70671 0.53931 0.0
C3934 C 0.75069 0.71689 0.55404 0.0
C3935 C 0.74248 0.73171 0.56819 0.0
H3936 H 0.74375 0.69523 0.52837 0.0
H3937 H 0.66021 0.84382 0.65801 0.0
H3938 H 0.20087 0.6381 0.39575 0.0
H3939 H 0.18156 0.6564 0.36774 0.0
H3940 H 0.13552 0.67658 0.4138 0.0
H3941 H 0.15397 0.65762 0.44135 0.0
H3942 H 0.11767 0.67697 0.37706 0.0
H3943 H 0.18603 0.7037 0.40644 0.0
H3944 H 0.22458 0.70118 0.41253 0.0
H3945 H 0.23491 0.69596 0.3454 0.0
H3946 H 0.19635 0.69824 0.33899 0.0
H3947 H 0.14043 0.79513 0.38345 0.0
H3948 H 0.15148 0.75851 0.38369 0.0
H3949 H 0.1059 0.74311 0.33452 0.0
H3950 H 0.09406 0.77993 0.33486 0.0
H3951 H 0.16898 0.734 0.35687 0.0
H3952 H 0.09092 0.69007 0.34113 0.0
H3953 H 0.05223 0.69526 0.34276 0.0
H3954 H 0.061 0.73983 0.3938 0.0
H3955 H 0.09968 0.73471 0.39258 0.0
C3956 C 0.18614 0.64572 0.39968 0.0
C3957 C 0.17931 0.64709 0.42086 0.0
C3958 C 0.17513 0.65619 0.38366 0.0
C3959 C 0.15756 0.66855 0.38881 0.0
C3960 C 0.14917 0.66739 0.4094 0.0
C3961 C 0.1599 0.65666 0.42527 0.0
C3962 C 0.1507 0.6861 0.37493 0.0
C3963 C 0.12889 0.68925 0.37212 0.0
C3964 C 0.16529 0.7022 0.36848 0.0
C3965 C 0.1884 0.70085 0.37226 0.0
C3966 C 0.19656 0.70193 0.39301 0.0
C3967 C 0.21838 0.70054 0.39652 0.0
C3968 C 0.23218 0.69834 0.37937 0.0
C3969 C 0.22419 0.69759 0.35867 0.0
C3970 C 0.20237 0.69891 0.35509 0.0
C3971 C 0.13279 0.78403 0.37259 0.0
C3972 C 0.11629 0.79039 0.35924 0.0
C3973 C 0.1392 0.76306 0.37265 0.0
C3974 C 0.12952 0.74798 0.35914 0.0
C3975 C 0.11343 0.75438 0.34527 0.0
C3976 C 0.1067 0.7754 0.34548 0.0
C3977 C 0.13594 0.72556 0.36079 0.0
C3978 C 0.15771 0.72139 0.36083 0.0
C3979 C 0.1213 0.70897 0.36566 0.0
C3980 C 0.09814 0.71226 0.36651 0.0
C3981 C 0.08455 0.70099 0.35266 0.0
C3982 C 0.06265 0.7039 0.35353 0.0
C3983 C 0.05418 0.71794 0.3683 0.0
C3984 C 0.06759 0.72903 0.3823 0.0
C3985 C 0.0895 0.72615 0.38151 0.0
H3986 H 0.03722 0.72018 0.36895 0.0
H3987 H 0.24908 0.69727 0.38211 0.0
H3988 H 0.54537 0.02757 0.72045 0.0
H3989 H 0.5156 0.01925 0.69672 0.0
H3990 H 0.49136 0.9736 0.74194 0.0
H3991 H 0.52066 0.98222 0.76588 0.0
H3992 H 0.50832 0.98309 0.67782 0.0
H3993 H 0.43952 0.96644 0.73792 0.0
H3994 H 0.42588 0.98158 0.77119 0.0
H3995 H 0.45469 0.04188 0.75595 0.0
H3996 H 0.46824 0.02721 0.72244 0.0
H3997 H 0.43679 0.90206 0.64591 0.0
H3998 H 0.46304 0.92695 0.66064 0.0
H3999 H 0.41611 0.9757 0.66253 0.0
H4000 H 0.38969 0.95092 0.64806 0.0
H4001 H 0.43294 0.97354 0.6986 0.0
H4002 H 0.4609 0.97898 0.62921 0.0
H4003 H 0.47386 0.96666 0.59451 0.0
H4004 H 0.52508 0.93489 0.62513 0.0
H4005 H 0.51227 0.94676 0.66005 0.0
C4006 C 0.53341 0.01611 0.72551 0.0
C4007 C 0.53539 0.00541 0.74493 0.0
C4008 C 0.51648 0.01133 0.71192 0.0
C4009 C 0.50126 -0.00415 0.71756 0.0
C4010 C 0.50272 0.98587 0.73738 0.0
C4011 C 0.51954 0.99073 0.75103 0.0
C4012 C 0.485 0.98856 0.7021 0.0
C4013 C 0.49177 0.98122 0.68222 0.0
C4014 C 0.46334 0.98664 0.70764 0.0
C4015 C 0.455 -0.00433 0.72769 0.0
C4016 C 0.44284 0.98297 0.74159 0.0
C4017 C 0.43515 0.99146 0.76052 0.0
C4018 C 0.43945 0.01266 0.7657 0.0
C4019 C 0.45141 0.02544 0.75195 0.0
C4020 C 0.45913 0.01703 0.73299 0.0
C4021 C 0.43222 0.91827 0.64886 0.0
C4022 C 0.41113 0.92447 0.64601 0.0
C4023 C 0.44727 0.93253 0.65723 0.0
C4024 C 0.44156 0.9533 0.66253 0.0
C4025 C 0.42086 0.95983 0.65843 0.0
C4026 C 0.40578 0.9456 0.65022 0.0
C4027 C 0.45639 0.96732 0.6746 0.0
C4028 C 0.44937 0.97584 0.69391 0.0
C4029 C 0.47767 0.9708 0.66827 0.0
C4030 C 0.48555 0.96369 0.64728 0.0
C4031 C 0.47486 0.96926 0.62857 0.0
C4032 C 0.48218 0.96236 0.60885 0.0
C4033 C 0.50026 0.94998 0.60762 0.0
C4034 C 0.51108 0.94449 0.62611 0.0
C4035 C 0.50381 0.95133 0.64587 0.0
H4036 H 0.50591 0.94465 0.59234 0.0
H4037 H 0.4335 0.0192 0.78037 0.0
H4038 H 0.32839 0.3207 0.9731 0.0
H4039 H 0.33692 0.30326 0.93981 0.0
H4040 H 0.2901 0.34027 0.90732 0.0
H4041 H 0.28089 0.35723 0.94088 0.0
H4042 H 0.28492 0.30248 0.89568 0.0
H4043 H 0.3444 0.34672 0.89552 0.0
H4044 H 0.37537 0.36727 0.90874 0.0
H4045 H 0.40684 0.30958 0.92414 0.0
H4046 H 0.37597 0.28866 0.91132 0.0
H4047 H 0.36665 0.2259 0.83845 0.0
H4048 H 0.35424 0.26201 0.8438 0.0
H4049 H 0.30525 0.23789 0.88563 0.0
H4050 H 0.31677 0.20206 0.87941 0.0
H4051 H 0.35803 0.28191 0.87706 0.0
H4052 H 0.26673 0.26792 0.89549 0.0
H4053 H 0.23593 0.25069 0.87803 0.0
H4054 H 0.26777 0.25415 0.81796 0.0
H4055 H 0.29867 0.27172 0.83496 0.0
C4056 C 0.3201 0.32534 0.95884 0.0
C4057 C 0.30389 0.34021 0.95964 0.0
C4058 C 0.32513 0.31551 0.93972 0.0
C4059 C 0.31441 0.3207 0.92092 0.0
C4060 C 0.29863 0.33604 0.92157 0.0
C4061 C 0.29337 0.34568 0.94078 0.0
C4062 C 0.31825 0.30829 0.90133 0.0
C4063 C 0.30089 0.29818 0.89131 0.0
C4064 C 0.33904 0.30369 0.89462 0.0
C4065 C 0.3578 0.3161 0.90242 0.0
C4066 C 0.35787 0.3384 0.90182 0.0
C4067 C 0.37543 0.35012 0.90924 0.0
C4068 C 0.39306 0.33974 0.91727 0.0
C4069 C 0.39319 0.3176 0.91788 0.0
C4070 C 0.37567 0.3058 0.91048 0.0
C4071 C 0.3528 0.22833 0.84823 0.0
C4072 C 0.34283 0.21121 0.85874 0.0
C4073 C 0.34571 0.24896 0.85127 0.0
C4074 C 0.32876 0.25282 0.86509 0.0
C4075 C 0.31797 0.23549 0.87442 0.0
C4076 C 0.32474 0.21489 0.87103 0.0
C4077 C 0.32469 0.27455 0.87302 0.0
C4078 C 0.34202 0.28662 0.88075 0.0
C4079 C 0.30385 0.28154 0.87688 0.0
C4080 C 0.28508 0.2712 0.86655 0.0
C4081 C 0.26712 0.26523 0.87852 0.0
C4082 C 0.24965 0.25533 0.86871 0.0
C4083 C 0.2499 0.25132 0.84691 0.0
C4084 C 0.26761 0.25723 0.83486 0.0
C4085 C 0.28513 0.26714 0.84459 0.0
H4086 H 0.23636 0.24364 0.83935 0.0
H4087 H 0.40663 0.34884 0.92301 0.0
H4088 H 0.41414 0.49091 0.6521 0.0
H4089 H 0.44821 0.50198 0.6367 0.0
H4090 H 0.44447 0.56217 0.66886 0.0
H4091 H 0.41053 0.55145 0.68423 0.0
H4092 H 0.46721 0.54254 0.61487 0.0
H4093 H 0.48728 0.56012 0.70191 0.0
H4094 H 0.47547 0.54883 0.73752 0.0
H4095 H 0.458 0.48736 0.71295 0.0
H4096 H 0.47008 0.49817 0.6773 0.0
H4097 H 0.55432 0.61145 0.62791 0.0
H4098 H 0.52067 0.59202 0.62902 0.0
H4099 H 0.55215 0.53722 0.65376 0.0
H4100 H 0.5861 0.55674 0.65305 0.0
H4101 H 0.51752 0.54535 0.67559 0.0
H4102 H 0.53454 0.53848 0.60271 0.0
H4103 H 0.54589 0.55053 0.56726 0.0
H4104 H 0.49028 0.58832 0.56207 0.0
H4105 H 0.47894 0.57711 0.59774 0.0
C4106 C 0.4202 0.50679 0.6553 0.0
C4107 C 0.40994 0.52013 0.66981 0.0
C4108 C 0.43961 0.51308 0.64641 0.0
C4109 C 0.44883 0.53269 0.65199 0.0
C4110 C 0.43753 0.54689 0.66456 0.0
C4111 C 0.41819 0.54069 0.67339 0.0
C4112 C 0.47151 0.53697 0.64821 0.0
C4113 C 0.47837 0.54302 0.62798 0.0
C4114 C 0.48596 0.53694 0.66536 0.0
C4115 C 0.47942 0.53002 0.68692 0.0
C4116 C 0.48106 0.54415 0.70415 0.0
C4117 C 0.4743 0.53784 0.72433 0.0
C4118 C 0.46594 0.51741 0.72748 0.0
C4119 C 0.46442 0.5032 0.71047 0.0
C4120 C 0.47121 0.50942 0.69028 0.0
C4121 C 0.55418 0.59525 0.63357 0.0
C4122 C 0.57292 0.58564 0.64042 0.0
C4123 C 0.53493 0.5841 0.634 0.0
C4124 C 0.53403 0.56305 0.64102 0.0
C4125 C 0.55261 0.55342 0.64809 0.0
C4126 C 0.57194 0.56462 0.64778 0.0
C4127 C 0.51333 0.55177 0.64228 0.0
C4128 C 0.50671 0.54442 0.6622 0.0
C4129 C 0.49928 0.5504 0.62471 0.0
C4130 C 0.50593 0.55701 0.60304 0.0
C4131 C 0.52481 0.54952 0.59411 0.0
C4132 C 0.53128 0.55623 0.57397 0.0
C4133 C 0.51887 0.57026 0.56245 0.0
C4134 C 0.49995 0.57755 0.57104 0.0
C4135 C 0.49349 0.57101 0.59123 0.0
H4136 H 0.52389 0.57542 0.54685 0.0
H4137 H 0.46068 0.51257 0.7431 0.0
H4138 H 0.74949 0.17681 0.05058 0.0
H4139 H 0.7711 0.20444 0.06807 0.0
H4140 H 0.79516 0.22491 0.00732 0.0
H4141 H 0.77349 0.19757 0.98967 0.0
H4142 H 0.82702 0.21782 0.03886 0.0
H4143 H 0.76081 0.25415 0.02969 0.0
H4144 H 0.72218 0.25822 0.03335 0.0
H4145 H 0.72797 0.25532 0.10116 0.0
H4146 H 0.76662 0.2509 0.09787 0.0
H4147 H 0.87314 0.31924 0.06285 0.0
H4148 H 0.85614 0.28651 0.04954 0.0
H4149 H 0.82433 0.27812 0.10968 0.0
H4150 H 0.84052 0.31132 0.12247 0.0
H4151 H 0.79679 0.27705 0.08005 0.0
H4152 H 0.86262 0.24288 0.09059 0.0
H4153 H 0.90119 0.23774 0.08812 0.0
H4154 H 0.89673 0.23503 0.02019 0.0
H4155 H 0.85816 0.24045 0.02222 0.0
C4156 C 0.75918 0.18738 0.04094 0.0
C4157 C 0.75986 0.18502 0.01878 0.0
C4158 C 0.77154 0.20307 0.05094 0.0
C4159 C 0.78478 0.21652 0.03893 0.0
C4160 C 0.78513 0.21452 0.01681 0.0
C4161 C 0.77263 0.199 0.00677 0.0
C4162 C 0.79844 0.23262 0.04946 0.0
C4163 C 0.82052 0.23093 0.04774 0.0
C4164 C 0.7898 0.24919 0.06154 0.0
C4165 C 0.76657 0.25195 0.06352 0.0
C4166 C 0.75382 0.25418 0.04537 0.0
C4167 C 0.73193 0.25659 0.04738 0.0
C4168 C 0.72262 0.25697 0.06748 0.0
C4169 C 0.7352 0.25499 0.0856 0.0
C4170 C 0.7571 0.25254 0.08368 0.0
C4171 C 0.86304 0.30995 0.07334 0.0
C4172 C 0.85807 0.3175 0.0936 0.0
C4173 C 0.85336 0.29127 0.0658 0.0
C4174 C 0.83894 0.27983 0.07863 0.0
C4175 C 0.83529 0.28672 0.09947 0.0
C4176 C 0.84461 0.30555 0.10682 0.0
C4177 C 0.82563 0.26242 0.06956 0.0
C4178 C 0.8035 0.26387 0.07144 0.0
C4179 C 0.83429 0.2455 0.05787 0.0
C4180 C 0.8575 0.24226 0.05656 0.0
C4181 C 0.86988 0.24136 0.07511 0.0
C4182 C 0.89175 0.23836 0.07379 0.0
C4183 C 0.90141 0.23611 0.05401 0.0
C4184 C 0.88922 0.2368 0.0355 0.0
C4185 C 0.86735 0.23981 0.03673 0.0
H4186 H 0.91834 0.23379 0.05302 0.0
H4187 H 0.70566 0.25884 0.069 0.0
H4188 H 0.57597 0.01257 0.85027 0.0
H4189 H 0.55507 0.03624 0.87204 0.0
H4190 H 0.58968 0.09012 0.84689 0.0
H4191 H 0.61032 0.06658 0.82461 0.0
H4192 H 0.55156 0.0755 0.89763 0.0
H4193 H 0.5571 0.1133 0.81777 0.0
H4194 H 0.56979 0.10612 0.78142 0.0
H4195 H 0.55175 0.04047 0.78806 0.0
H4196 H 0.53893 0.04732 0.8243 0.0
H4197 H 0.45953 0.14614 0.87835 0.0
H4198 H 0.49553 0.13305 0.88366 0.0
H4199 H 0.47728 0.07391 0.85374 0.0
H4200 H 0.44151 0.08662 0.84837 0.0
H4201 H 0.51132 0.09856 0.83426 0.0
H4202 H 0.48643 0.07175 0.90243 0.0
H4203 H 0.47229 0.07544 0.93868 0.0
H4204 H 0.52539 0.11568 0.95568 0.0
H4205 H 0.53973 0.11244 0.91943 0.0
C4206 C 0.57998 0.02935 0.85021 0.0
C4207 C 0.5941 0.03785 0.8351 0.0
C4208 C 0.56808 0.0429 0.86285 0.0
C4209 C 0.57039 0.06493 0.86051 0.0
C4210 C 0.5875 0.07314 0.84868 0.0
C4211 C 0.59919 0.05964 0.83581 0.0
C4212 C 0.55141 0.07797 0.86355 0.0
C4213 C 0.54292 0.08101 0.88388 0.0
C4214 C 0.54 0.08486 0.84557 0.0
C4215 C 0.54726 0.08078 0.82368 0.0
C4216 C 0.55582 0.09736 0.81137 0.0
C4217 C 0.56305 0.09334 0.79082 0.0
C4218 C 0.56164 0.07282 0.78242 0.0
C4219 C 0.55289 0.05632 0.79453 0.0
C4220 C 0.54565 0.06026 0.81507 0.0
C4221 C 0.4631 0.13022 0.87316 0.0
C4222 C 0.44773 0.11757 0.86254 0.0
C4223 C 0.48361 0.12276 0.87638 0.0
C4224 C 0.48894 0.10258 0.86906 0.0
C4225 C 0.47337 0.08955 0.85951 0.0
C4226 C 0.45296 0.09691 0.85634 0.0
C4227 C 0.51118 0.09589 0.86831 0.0
C4228 C 0.52026 0.09396 0.84819 0.0
C4229 C 0.52279 0.08995 0.88649 0.0
C4230 C 0.51401 0.09206 0.90815 0.0
C4231 C 0.49497 0.08158 0.91382 0.0
C4232 C 0.48697 0.08352 0.93439 0.0
C4233 C 0.49795 0.09577 0.94947 0.0
C4234 C 0.51693 0.10617 0.94399 0.0
C4235 C 0.525 0.10428 0.92344 0.0
H4236 H 0.49175 0.09723 0.96539 0.0
H4237 H 0.56728 0.0697 0.76653 0.0
H4238 H 0.88589 0.93669 0.23027 0.0
H4239 H 0.9125 0.91982 0.2528 0.0
H4240 H 0.95016 0.97762 0.25283 0.0
H4241 H 0.92342 -0.00518 0.23106 0.0
H4242 H 0.97111 0.9336 0.24355 0.0
H4243 H 0.92683 0.97442 0.29254 0.0
H4244 H 0.8922 0.98356 0.3078 0.0
H4245 H 0.88142 0.9186 0.32571 0.0
H4246 H 0.91588 0.90904 0.31023 0.0
H4247 H 0.04837 0.92891 0.32105 0.0
H4248 H 0.01773 0.94219 0.30209 0.0
H4249 H 0.98033 0.88799 0.32233 0.0
H4250 H 0.01095 0.87438 0.34139 0.0
H4251 H 0.9572 0.9256 0.32069 0.0
H4252 H 0.00103 0.88415 0.27683 0.0
H4253 H 0.03397 0.87164 0.26037 0.0
H4254 H 0.04382 0.93238 0.23104 0.0
H4255 H 0.01113 0.94539 0.24763 0.0
C4256 C 0.89994 0.94572 0.23495 0.0
C4257 C 0.90261 0.96706 0.22897 0.0
C4258 C 0.91503 0.9361 0.24781 0.0
C4259 C 0.93314 0.94758 0.25441 0.0
C4260 C 0.93622 0.96859 0.24783 0.0
C4261 C 0.92094 0.97837 0.23545 0.0
C4262 C 0.94867 0.93801 0.26877 0.0
C4263 C 0.96821 0.93197 0.26044 0.0
C4264 C 0.94438 0.93518 0.29058 0.0
C4265 C 0.92377 0.94097 0.29998 0.0
C4266 C 0.91697 0.96205 0.29952 0.0
C4267 C 0.8974 0.96732 0.30826 0.0
C4268 C 0.88458 0.95166 0.31765 0.0
C4269 C 0.89134 0.93071 0.31839 0.0
C4270 C 0.91089 0.92536 0.30964 0.0
C4271 C 0.03352 0.92002 0.32201 0.0
C4272 C 0.03228 0.90032 0.33241 0.0
C4273 C 0.01606 0.9276 0.31103 0.0
C4274 C -0.00297 0.91574 0.31039 0.0
C4275 C -0.00499 0.89721 0.32249 0.0
C4276 C 0.01254 0.88951 0.3334 0.0
C4277 C 0.98003 0.92185 0.29563 0.0
C4278 C 0.96015 0.9271 0.3038 0.0
C4279 C 0.98386 0.92349 0.27355 0.0
C4280 C 0.00373 0.91584 0.26371 0.0
C4281 C 0.01034 0.89493 0.26708 0.0
C4282 C 0.02894 0.88773 0.25768 0.0
C4283 C 0.04101 0.90124 0.24474 0.0
C4284 C 0.03448 0.92195 0.24112 0.0
C4285 C 0.0159 0.92925 0.25051 0.0
H4286 H 0.05541 0.89565 0.23748 0.0
H4287 H 0.86943 0.95576 0.32442 0.0
H4288 H 0.41537 0.30375 0.15341 0.0
H4289 H 0.39064 0.32445 0.17437 0.0
H4290 H 0.39086 0.27653 0.22311 0.0
H4291 H 0.41499 0.25532 0.20175 0.0
H4292 H 0.3524 0.29447 0.22053 0.0
H4293 H 0.42615 0.3189 0.22425 0.0
H4294 H 0.45993 0.33215 0.20909 0.0
H4295 H 0.42818 0.38562 0.1827 0.0
H4296 H 0.39415 0.37251 0.19752 0.0
H4297 H 0.36296 0.33852 0.32033 0.0
H4298 H 0.3608 0.32163 0.28573 0.0
H4299 H 0.35114 0.38246 0.25642 0.0
H4300 H 0.35346 0.39962 0.29139 0.0
H4301 H 0.38543 0.36345 0.24153 0.0
H4302 H 0.3138 0.34277 0.24983 0.0
H4303 H 0.28193 0.32915 0.26828 0.0
H4304 H 0.31058 0.26842 0.2753 0.0
H4305 H 0.34277 0.28171 0.25716 0.0
C4306 C 0.40988 0.29748 0.16846 0.0
C4307 C 0.41738 0.27816 0.17622 0.0
C4308 C 0.3957 0.30928 0.18036 0.0
C4309 C 0.38925 0.30222 0.20046 0.0
C4310 C 0.39565 0.28227 0.20763 0.0
C4311 C 0.40955 0.27025 0.19552 0.0
C4312 C 0.37824 0.31664 0.21516 0.0
C4313 C 0.3595 0.30961 0.22513 0.0
C4314 C 0.38718 0.3367 0.22061 0.0
C4315 C 0.4076 0.34459 0.21172 0.0
C4316 C 0.42637 0.3334 0.21508 0.0
C4317 C 0.44555 0.34089 0.20658 0.0
C4318 C 0.44618 0.35967 0.19487 0.0
C4319 C 0.42765 0.37104 0.19171 0.0
C4320 C 0.40842 0.36359 0.20016 0.0
C4321 C 0.35988 0.34827 0.30659 0.0
C4322 C 0.3588 0.37041 0.30843 0.0
C4323 C 0.35834 0.33855 0.28681 0.0
C4324 C 0.35569 0.35076 0.26848 0.0
C4325 C 0.35305 0.37275 0.27042 0.0
C4326 C 0.35441 0.38252 0.29035 0.0
C4327 C 0.36001 0.34096 0.24764 0.0
C4328 C 0.37768 0.34878 0.23645 0.0
C4329 C 0.35021 0.32155 0.24137 0.0
C4330 C 0.33075 0.31328 0.25207 0.0
C4331 C 0.31337 0.32653 0.25538 0.0
C4332 C 0.29523 0.31886 0.26578 0.0
C4333 C 0.29422 0.29793 0.27292 0.0
C4334 C 0.31136 0.28461 0.26968 0.0
C4335 C 0.32954 0.29219 0.25928 0.0
H4336 H 0.28016 0.29201 0.28094 0.0
H4337 H 0.46105 0.36546 0.1883 0.0
H4338 H 0.47703 0.68591 0.92505 0.0
H4339 H 0.45805 0.66814 0.95397 0.0
H4340 H 0.39855 0.68964 0.92879 0.0
H4341 H 0.41747 0.70796 0.90029 0.0
H4342 H 0.40218 0.70136 0.96758 0.0
H4343 H 0.40987 0.63592 0.93184 0.0
H4344 H 0.42803 0.60774 0.91222 0.0
H4345 H 0.46886 0.59746 0.96562 0.0
H4346 H 0.45116 0.62578 0.98548 0.0
H4347 H 0.36767 0.63032 0.06214 0.0
H4348 H 0.37298 0.63463 0.0238 0.0
H4349 H 0.42181 0.68198 0.03583 0.0
H4350 H 0.41709 0.67752 0.07387 0.0
H4351 H 0.41372 0.63087 -0.00016 0.0
H4352 H 0.40946 0.72279 0.00197 0.0
H4353 H 0.38946 0.75068 0.02017 0.0
H4354 H 0.3381 0.70648 0.03151 0.0
H4355 H 0.35765 0.6784 0.01315 0.0
C4356 C 0.45987 0.68641 0.92542 0.0
C4357 C 0.44874 0.69859 0.91067 0.0
C4358 C 0.44901 0.67612 0.94187 0.0
C4359 C 0.42685 0.67755 0.94353 0.0
C4360 C 0.41564 0.68842 0.92787 0.0
C4361 C 0.42649 0.69892 0.91164 0.0
C4362 C 0.41589 0.67059 0.96315 0.0
C4363 C 0.40445 0.68581 0.97442 0.0
C4364 C 0.41851 0.6502 0.97196 0.0
C4365 C 0.42921 0.63307 0.96012 0.0
C4366 C 0.42281 0.62776 0.93936 0.0
C4367 C 0.43302 0.61173 0.9282 0.0
C4368 C 0.4496 0.60083 0.93766 0.0
C4369 C 0.456 0.60591 0.95832 0.0
C4370 C 0.44585 0.62192 0.96955 0.0
C4371 C 0.37955 0.64163 0.0566 0.0
C4372 C 0.39189 0.65367 0.07106 0.0
C4373 C 0.38257 0.64399 0.03475 0.0
C4374 C 0.39765 0.65871 0.02715 0.0
C4375 C 0.41 0.67064 0.04149 0.0
C4376 C 0.40727 0.66804 0.06322 0.0
C4377 C 0.40088 0.66192 0.00426 0.0
C4378 C 0.411 0.64614 0.99255 0.0
C4379 C 0.39682 0.6817 -0.00515 0.0
C4380 C 0.38509 0.69846 0.00623 0.0
C4381 C 0.39386 0.71904 0.00826 0.0
C4382 C 0.38259 0.73489 0.01857 0.0
C4383 C 0.36247 0.73039 0.02686 0.0
C4384 C 0.35365 0.70997 0.025 0.0
C4385 C 0.36486 0.69406 0.01471 0.0
H4386 H 0.35378 0.74268 0.03487 0.0
H4387 H 0.45749 0.58844 0.92899 0.0
H4388 H 0.06943 0.70331 0.64117 0.0
H4389 H 0.09356 0.68065 0.66081 0.0
H4390 H 0.10765 0.73225 0.70403 0.0
H4391 H 0.08455 0.7552 0.6838 0.0
H4392 H 0.14001 0.70687 0.70326 0.0
H4393 H 0.06355 0.69805 0.71088 0.0
H4394 H 0.02725 0.69056 0.69782 0.0
H4395 H 0.04623 0.62933 0.67577 0.0
H4396 H 0.08273 0.63661 0.68849 0.0
H4397 H 0.12717 0.67025 0.80798 0.0
H4398 H 0.12704 0.68604 0.77269 0.0
H4399 H 0.12917 0.62381 0.74436 0.0
H4400 H 0.12949 0.6078 0.77971 0.0
H4401 H 0.09509 0.64793 0.73141 0.0
H4402 H 0.16991 0.65575 0.73644 0.0
H4403 H 0.20414 0.66531 0.75316 0.0
H4404 H 0.18644 0.73064 0.75561 0.0
H4405 H 0.15192 0.72144 0.73925 0.0
C4406 C 0.07832 0.71001 0.65439 0.0
C4407 C 0.0748 0.73084 0.66128 0.0
C4408 C 0.09205 0.69705 0.66563 0.0
C4409 C 0.10181 0.70454 0.68433 0.0
C4410 C 0.10016 0.72604 0.68976 0.0
C4411 C 0.08686 0.73916 0.67822 0.0
C4412 C 0.11036 0.68957 0.70015 0.0
C4413 C 0.13029 0.6939 0.70937 0.0
C4414 C 0.0978 0.6724 0.70792 0.0
C4415 C 0.07588 0.66797 0.70035 0.0
C4416 C 0.05999 0.68304 0.70313 0.0
C4417 C 0.03939 0.67884 0.6958 0.0
C4418 C 0.03446 0.65951 0.6859 0.0
C4419 C 0.0501 0.64432 0.68338 0.0
C4420 C 0.07074 0.64847 0.69063 0.0
C4421 C 0.12791 0.65991 0.79426 0.0
C4422 C 0.12808 0.63776 0.79662 0.0
C4423 C 0.12808 0.66898 0.77411 0.0
C4424 C 0.12829 0.65608 0.75596 0.0
C4425 C 0.1292 0.634 0.75822 0.0
C4426 C 0.12932 0.62491 0.7784 0.0
C4427 C 0.12443 0.66563 0.73496 0.0
C4428 C 0.10525 0.66035 0.72484 0.0
C4429 C 0.13745 0.68221 0.72683 0.0
C4430 C 0.15825 0.68787 0.73665 0.0
C4431 C 0.17323 0.67214 0.74068 0.0
C4432 C 0.19271 0.6775 0.75009 0.0
C4433 C 0.19746 0.69857 0.75544 0.0
C4434 C 0.18274 0.71432 0.75142 0.0
C4435 C 0.16322 0.70904 0.74205 0.0
H4436 H 0.21257 0.70272 0.76266 0.0
H4437 H 0.0185 0.65627 0.68024 0.0
H4438 H -0.00351 0.31831 0.40728 0.0
H4439 H 0.01401 0.34388 0.43121 0.0
H4440 H 0.07326 0.3119 0.42285 0.0
H4441 H 0.05599 0.28644 0.39907 0.0
H4442 H 0.03012 0.3292 0.46787 0.0
H4443 H 0.11485 0.34543 0.43312 0.0
H4444 H 0.13124 0.35425 0.3987 0.0
H4445 H 0.07245 0.3795 0.37678 0.0
H4446 H 0.05576 0.37119 0.41117 0.0
H4447 H 0.1335 0.34145 0.52772 0.0
H4448 H 0.11594 0.3412 0.49296 0.0
H4449 H 0.06414 0.37638 0.5193 0.0
H4450 H 0.08105 0.37551 0.5542 0.0
H4451 H 0.09984 0.3668 0.46348 0.0
H4452 H 0.01817 0.3559 0.50231 0.0
H4453 H 0.00247 0.3449 0.53652 0.0
H4454 H 0.05571 0.30523 0.54853 0.0
H4455 H 0.07155 0.31581 0.5143 0.0
C4456 C 0.01337 0.31709 0.41012 0.0
C4457 C 0.0248 0.30016 0.40163 0.0
C4458 C 0.02335 0.33174 0.42371 0.0
C4459 C 0.04494 0.32984 0.42871 0.0
C4460 C 0.05667 0.31388 0.41897 0.0
C4461 C 0.0467 0.29916 0.40558 0.0
C4462 C 0.05431 0.34154 0.44691 0.0
C4463 C 0.04502 0.33805 0.46681 0.0
C4464 C 0.07406 0.3525 0.44554 0.0
C4465 C 0.08401 0.35756 0.42475 0.0
C4466 C 0.10543 0.35297 0.42101 0.0
C4467 C 0.11477 0.35787 0.40148 0.0
C4468 C 0.10289 0.3674 0.38555 0.0
C4469 C 0.08162 0.37206 0.38911 0.0
C4470 C 0.0722 0.36722 0.40862 0.0
C4471 C 0.11856 0.34943 0.52589 0.0
C4472 C 0.10832 0.35807 0.54355 0.0
C4473 C 0.1086 0.34941 0.50606 0.0
C4474 C 0.0885 0.35835 0.50368 0.0
C4475 C 0.07939 0.36895 0.52091 0.0
C4476 C 0.08902 0.36843 0.5408 0.0
C4477 C 0.07586 0.35388 0.48429 0.0
C4478 C 0.08459 0.35859 0.46434 0.0
C4479 C 0.05569 0.34366 0.48549 0.0
C4480 C 0.04614 0.33686 0.50591 0.0
C4481 C 0.02647 0.34479 0.51225 0.0
C4482 C 0.01756 0.33863 0.53163 0.0
C4483 C 0.02813 0.32444 0.54473 0.0
C4484 C 0.04757 0.31628 0.53841 0.0
C4485 C 0.05652 0.32235 0.51903 0.0
H4486 H 0.02123 0.31973 0.55974 0.0
H4487 H 0.11016 0.37119 0.37045 0.0
H4488 H 0.44433 0.77221 0.35627 0.0
H4489 H 0.42565 0.76319 0.32323 0.0
H4490 H 0.42208 0.69757 0.34233 0.0
H4491 H 0.44072 0.70645 0.3751 0.0
H4492 H 0.44707 0.73703 0.29699 0.0
H4493 H 0.38342 0.67123 0.31593 0.0
H4494 H 0.35446 0.66493 0.34149 0.0
H4495 H 0.34911 0.732 0.3512 0.0
H4496 H 0.37781 0.73875 0.32546 0.0
H4497 H 0.41123 0.63948 0.23047 0.0
H4498 H 0.41225 0.65956 0.26371 0.0
H4499 H 0.41769 0.71801 0.22856 0.0
H4500 H 0.4173 0.69818 0.19541 0.0
H4501 H 0.38642 0.68872 0.27971 0.0
H4502 H 0.44763 0.75363 0.25633 0.0
H4503 H 0.47817 0.75879 0.2323 0.0
H4504 H 0.49018 0.69206 0.23418 0.0
H4505 H 0.45991 0.68656 0.25841 0.0
C4506 C 0.43873 0.75605 0.35378 0.0
C4507 C 0.44424 0.73993 0.36796 0.0
C4508 C 0.42811 0.75091 0.33492 0.0
C4509 C 0.42259 0.72972 0.33031 0.0
C4510 C 0.42599 0.71406 0.34563 0.0
C4511 C 0.43679 0.71912 0.36429 0.0
C4512 C 0.41776 0.72304 0.30832 0.0
C4513 C 0.43343 0.72701 0.293 0.0
C4514 C 0.40035 0.70942 0.30342 0.0
C4515 C 0.38289 0.70549 0.3188 0.0
C4516 C 0.37599 0.68465 0.3234 0.0
C4517 C 0.35963 0.681 0.33796 0.0
C4518 C 0.34997 0.69805 0.34799 0.0
C4519 C 0.35664 0.7188 0.34347 0.0
C4520 C 0.37299 0.72255 0.32891 0.0
C4521 C 0.41288 0.65659 0.22983 0.0
C4522 C 0.41444 0.66718 0.21029 0.0
C4523 C 0.41327 0.66804 0.24881 0.0
C4524 C 0.41514 0.69025 0.24858 0.0
C4525 C 0.41655 0.70086 0.22911 0.0
C4526 C 0.41641 0.68945 0.21017 0.0
C4527 C 0.41605 0.70227 0.26874 0.0
C4528 C 0.39971 0.69922 0.2836 0.0
C4529 C 0.43301 0.71656 0.27341 0.0
C4530 C 0.45133 0.71967 0.25894 0.0
C4531 C 0.45682 0.74008 0.25163 0.0
C4532 C 0.47408 0.74306 0.23798 0.0
C4533 C 0.48604 0.72575 0.23164 0.0
C4534 C 0.48084 0.70544 0.23901 0.0
C4535 C 0.46361 0.70238 0.25268 0.0
H4536 H 0.49939 0.72809 0.22107 0.0
H4537 H 0.33731 0.69519 0.35926 0.0
H4538 H 0.01823 0.69912 0.0812 0.0
H4539 H 0.04053 0.67574 0.06024 0.0
H4540 H 0.99031 0.66819 0.01404 0.0
H4541 H 0.96763 0.69073 0.03545 0.0
H4542 H 0.01129 0.63275 0.01652 0.0
H4543 H 0.0303 0.70714 0.00953 0.0
H4544 H 0.04156 0.74261 0.02234 0.0
H4545 H 0.09867 0.71675 0.04781 0.0
H4546 H 0.08759 0.68106 0.03537 0.0
H4547 H 0.06365 0.62955 0.91747 0.0
H4548 H 0.04299 0.63624 0.94939 0.0
H4549 H 0.09934 0.63081 0.98771 0.0
H4550 H 0.12023 0.62411 0.95583 0.0
H4551 H 0.07847 0.6681 0.99383 0.0
H4552 H 0.06112 0.59427 0.99288 0.0
H4553 H 0.04946 0.56042 0.97657 0.0
H4554 H 0.98867 0.58652 0.96262 0.0
H4555 H 5e-05 0.62065 0.97856 0.0
C4556 C 0.01184 0.69215 0.06676 0.0
C4557 C 0.99135 0.69697 0.05975 0.0
C4558 C 0.02459 0.67882 0.05479 0.0
C4559 C 0.01728 0.67064 0.03531 0.0
C4560 C -0.00368 0.67437 0.02899 0.0
C4561 C 0.98341 0.68734 0.04118 0.0
C4562 C 0.03197 0.66011 0.02049 0.0
C4563 C 0.02598 0.64046 0.01154 0.0
C4564 C 0.05135 0.66999 0.01426 0.0
C4565 C 0.05799 0.69142 0.02178 0.0
C4566 C 0.04517 0.709 0.01801 0.0
C4567 C 0.05153 0.72914 0.02518 0.0
C4568 C 0.07078 0.73192 0.03595 0.0
C4569 C 0.08374 0.71457 0.03952 0.0
C4570 C 0.07743 0.69439 0.03242 0.0
C4571 C 0.07163 0.6295 0.9327 0.0
C4572 C 0.09363 0.62652 0.93409 0.0
C4573 C 0.05976 0.63313 0.95094 0.0
C4574 C 0.06964 0.63386 0.97088 0.0
C4575 C 0.09144 0.63018 0.97244 0.0
C4576 C 0.10333 0.62637 0.9542 0.0
C4577 C 0.05763 0.64096 0.9896 0.0
C4578 C 0.06408 0.66008 -0.00078 0.0
C4579 C 0.03858 0.63074 -0.0039 0.0
C4580 C 0.0315 0.61009 0.98684 0.0
C4581 C 0.0453 0.59285 0.98623 0.0
C4582 C 0.03874 0.5736 0.97706 0.0
C4583 C 0.01835 0.57134 0.96853 0.0
C4584 C 0.00446 0.5883 0.96923 0.0
C4585 C 0.01095 0.60759 0.97837 0.0
H4586 H 0.01331 0.55643 0.96141 0.0
H4587 H 0.07568 0.74752 0.04148 0.0
H4588 H 0.0459 0.25411 0.83802 0.0
H4589 H 0.0743 0.25784 0.81146 0.0
H4590 H 0.04735 0.31639 0.7901 0.0
H4591 H 0.01949 0.313 0.81629 0.0
H4592 H 0.07127 0.25937 0.76841 0.0
H4593 H 0.08287 0.35164 0.77797 0.0
H4594 H 0.08601 0.37753 0.8072 0.0
H4595 H 0.10534 0.32833 0.84955 0.0
H4596 H 0.10265 0.30216 0.82051 0.0
H4597 H 0.07782 0.313 0.67329 0.0
H4598 H 0.07264 0.29591 0.70763 0.0
H4599 H 0.13271 0.32215 0.72933 0.0
H4600 H 0.13717 0.34037 0.69543 0.0
H4601 H 0.10717 0.32914 0.75734 0.0
H4602 H 0.12278 0.26609 0.72276 0.0
H4603 H 0.1229 0.23869 0.69482 0.0
H4604 H 0.05646 0.22629 0.70473 0.0
H4605 H 0.05582 0.25385 0.73249 0.0
C4606 C 0.04624 0.26786 0.82777 0.0
C4607 C 0.03043 0.28325 0.82924 0.0
C4608 C 0.06242 0.26994 0.81265 0.0
C4609 C 0.0631 0.28757 0.79909 0.0
C4610 C 0.04742 0.30291 0.80072 0.0
C4611 C 0.03135 0.30083 0.81563 0.0
C4612 C 0.0791 0.28983 0.78209 0.0
C4613 C 0.0795 0.27443 0.76602 0.0
C4614 C 0.09065 0.30908 0.77953 0.0
C4615 C 0.09256 0.3249 0.797 0.0
C4616 C 0.08799 0.34634 0.79345 0.0
C4617 C 0.08963 0.36107 0.81002 0.0
C4618 C 0.09587 0.35458 0.83022 0.0
C4619 C 0.10048 0.33334 0.8339 0.0
C4620 C 0.09887 0.31854 0.8174 0.0
C4621 C 0.08998 0.3149 0.68536 0.0
C4622 C 0.10771 0.32819 0.68191 0.0
C4623 C 0.08718 0.3049 0.7049 0.0
C4624 C 0.10244 0.30742 0.72109 0.0
C4625 C 0.12068 0.31996 0.71719 0.0
C4626 C 0.12317 0.33043 0.69787 0.0
C4627 C 0.0979 0.29937 0.74276 0.0
C4628 C 0.09971 0.31371 0.75978 0.0
C4629 C 0.08906 0.27886 0.74637 0.0
C4630 C 0.08927 0.2621 0.72974 0.0
C4631 C 0.10816 0.25761 0.71892 0.0
C4632 C 0.10832 0.24203 0.7031 0.0
C4633 C 0.0897 0.23076 0.698 0.0
C4634 C 0.07088 0.23501 0.70873 0.0
C4635 C 0.07062 0.25058 0.72455 0.0
H4636 H 0.08986 0.21871 0.68575 0.0
H4637 H 0.09711 0.36601 0.84302 0.0
H4638 H 0.48915 0.26374 0.51593 0.0
H4639 H 0.48567 0.29677 0.496 0.0
H4640 H 0.50744 0.33257 0.55049 0.0
H4641 H 0.51194 0.29939 0.57018 0.0
H4642 H 0.46117 0.33622 0.53197 0.0
H4643 H 0.5342 0.346 0.51664 0.0
H4644 H 0.56994 0.33518 0.5058 0.0
H4645 H 0.54628 0.31827 0.44401 0.0
H4646 H 0.51033 0.32867 0.45455 0.0
H4647 H 0.40924 0.40188 0.4581 0.0
H4648 H 0.43608 0.3944 0.48518 0.0
H4649 H 0.46198 0.34615 0.44454 0.0
H4650 H 0.4363 0.35433 0.41735 0.0
H4651 H 0.49271 0.36291 0.46494 0.0
H4652 H 0.42124 0.3367 0.48492 0.0
H4653 H 0.38369 0.34144 0.49453 0.0
H4654 H 0.40251 0.38298 0.54558 0.0
H4655 H 0.44017 0.37859 0.53611 0.0
C4656 C 0.49406 0.27861 0.52327 0.0
C4657 C 0.50094 0.27918 0.54438 0.0
C4658 C 0.49213 0.2974 0.51194 0.0
C4659 C 0.49645 0.31698 0.52182 0.0
C4660 C 0.50438 0.31754 0.54258 0.0
C4661 C 0.50695 0.29865 0.55373 0.0
C4662 C 0.48855 0.33625 0.51166 0.0
C4663 C 0.46833 0.34275 0.51769 0.0
C4664 C 0.49789 0.3443 0.49298 0.0
C4665 C 0.51952 0.33811 0.48643 0.0
C4666 C 0.53658 0.33985 0.50078 0.0
C4667 C 0.55689 0.33381 0.49468 0.0
C4668 C 0.56038 0.32604 0.47423 0.0
C4669 C 0.54356 0.32432 0.45983 0.0
C4670 C 0.52321 0.33033 0.46585 0.0
C4671 C 0.4209 0.38991 0.45494 0.0
C4672 C 0.42054 0.37851 0.43575 0.0
C4673 C 0.43622 0.38566 0.47037 0.0
C4674 C 0.45089 0.36947 0.46707 0.0
C4675 C 0.451 0.35881 0.4475 0.0
C4676 C 0.43614 0.36339 0.43198 0.0
C4677 C 0.46459 0.36157 0.48436 0.0
C4678 C 0.4859 0.35728 0.47972 0.0
C4679 C 0.45598 0.35485 0.50403 0.0
C4680 C 0.43342 0.35758 0.50963 0.0
C4681 C 0.41732 0.34694 0.49811 0.0
C4682 C 0.39605 0.34955 0.50353 0.0
C4683 C 0.39072 0.36258 0.5206 0.0
C4684 C 0.40666 0.37296 0.53232 0.0
C4685 C 0.42796 0.37043 0.52693 0.0
H4686 H 0.37424 0.36457 0.52479 0.0
H4687 H 0.57612 0.32137 0.46954 0.0
H4688 H 0.12514 0.43565 0.32963 0.0
H4689 H 0.1463 0.41308 0.35273 0.0
H4690 H 0.19089 0.40431 0.30161 0.0
H4691 H 0.16883 0.42495 0.27825 0.0
H4692 H 0.19562 0.37389 0.32576 0.0
H4693 H 0.19104 0.45084 0.33873 0.0
H4694 H 0.17162 0.48311 0.34824 0.0
H4695 H 0.15219 0.45446 0.407 0.0
H4696 H 0.17136 0.42196 0.39768 0.0
H4697 H 0.29462 0.41569 0.34535 0.0
H4698 H 0.25699 0.4108 0.33843 0.0
H4699 H 0.2473 0.38786 0.40211 0.0
H4700 H 0.28545 0.39254 0.40936 0.0
H4701 H 0.21837 0.42199 0.3843 0.0
H4702 H 0.24362 0.35206 0.36923 0.0
H4703 H 0.27118 0.32932 0.35419 0.0
H4704 H 0.2583 0.35332 0.29192 0.0
H4705 H 0.23109 0.37663 0.30662 0.0
C4706 C 0.139 0.42807 0.3232 0.0
C4707 C 0.14566 0.43228 0.30236 0.0
C4708 C 0.15116 0.41531 0.33641 0.0
C4709 C 0.17073 0.40776 0.32926 0.0
C4710 C 0.176 0.41004 0.30771 0.0
C4711 C 0.16341 0.42198 0.2943 0.0
C4712 C 0.18756 0.40131 0.34436 0.0
C4713 C 0.20037 0.38417 0.33882 0.0
C4714 C 0.19374 0.41447 0.36172 0.0
C4715 C 0.18234 0.43396 0.36741 0.0
C4716 C 0.18256 0.45145 0.35364 0.0
C4717 C 0.1716 0.46975 0.35899 0.0
C4718 C 0.16062 0.4708 0.37819 0.0
C4719 C 0.16064 0.45359 0.39211 0.0
C4720 C 0.17153 0.43523 0.38681 0.0
C4721 C 0.28462 0.40968 0.35802 0.0
C4722 C 0.29312 0.40445 0.37792 0.0
C4723 C 0.26311 0.40678 0.35396 0.0
C4724 C 0.24957 0.39865 0.36966 0.0
C4725 C 0.25768 0.39396 0.38978 0.0
C4726 C 0.2794 0.39668 0.39386 0.0
C4727 C 0.2269 0.39572 0.36454 0.0
C4728 C 0.21298 0.41096 0.37208 0.0
C4729 C 0.22032 0.38162 0.34824 0.0
C4730 C 0.23523 0.36609 0.33907 0.0
C4731 C 0.24659 0.35242 0.35231 0.0
C4732 C 0.26223 0.3395 0.34385 0.0
C4733 C 0.26652 0.33991 0.32211 0.0
C4734 C 0.25496 0.35301 0.30875 0.0
C4735 C 0.23939 0.36606 0.31715 0.0
H4736 H 0.27885 0.33015 0.3156 0.0
H4737 H 0.15214 0.48498 0.3823 0.0
H4738 H 0.30551 0.41579 0.06467 0.0
H4739 H 0.32792 0.44458 0.07838 0.0
H4740 H 0.34286 0.46403 0.01443 0.0
H4741 H 0.31966 0.43559 0.00056 0.0
H4742 H 0.36757 0.45815 0.07694 0.0
H4743 H 0.34492 0.51761 0.01307 0.0
H4744 H 0.31728 0.52322 0.98596 0.0
H4745 H 0.27189 0.48891 0.02406 0.0
H4746 H 0.2992 0.48332 0.05145 0.0
H4747 H 0.40599 0.56046 0.11516 0.0
H4748 H 0.40061 0.52893 0.09264 0.0
H4749 H 0.33283 0.53707 0.09589 0.0
H4750 H 0.33821 0.56884 0.11732 0.0
H4751 H 0.34306 0.52969 0.05728 0.0
H4752 H 0.36154 0.49836 0.12605 0.0
H4753 H 0.38587 0.49316 0.15623 0.0
H4754 H 0.43387 0.47135 0.11362 0.0
H4755 H 0.40983 0.47655 0.08319 0.0
C4756 C 0.31371 0.42606 0.0535 0.0
C4757 C 0.31054 0.42372 0.03156 0.0
C4758 C 0.32668 0.44241 0.06136 0.0
C4759 C 0.33687 0.45661 0.04744 0.0
C4760 C 0.33487 0.45344 0.02545 0.0
C4761 C 0.32159 0.43725 0.01756 0.0
C4762 C 0.34737 0.47593 0.0562 0.0
C4763 C 0.36244 0.47383 0.07247 0.0
C4764 C 0.34073 0.4964 0.05036 0.0
C4765 C 0.32415 0.49982 0.03411 0.0
C4766 C 0.32902 0.5113 0.01564 0.0
C4767 C 0.31343 0.51447 0.00024 0.0
C4768 C 0.29287 0.50635 0.00324 0.0
C4769 C 0.28783 0.49512 0.02171 0.0
C4770 C 0.30336 0.49194 0.03716 0.0
C4771 C 0.38999 0.55531 0.11114 0.0
C4772 C 0.37249 0.56701 0.11786 0.0
C4773 C 0.38693 0.53736 0.09828 0.0
C4774 C 0.3663 0.53066 0.09253 0.0
C4775 C 0.3489 0.54209 0.09984 0.0
C4776 C 0.35196 0.56016 0.1122 0.0
C4777 C 0.36228 0.51184 0.07888 0.0
C4778 C 0.34866 0.51408 0.06143 0.0
C4779 C 0.36976 0.49151 0.08409 0.0
C4780 C 0.384 0.48802 0.10239 0.0
C4781 C 0.37731 0.49252 0.12315 0.0
C4782 C 0.39104 0.48956 0.14028 0.0
C4783 C 0.41142 0.48198 0.13684 0.0
C4784 C 0.41808 0.47723 0.11626 0.0
C4785 C 0.40441 0.48015 0.09908 0.0
H4786 H 0.42204 0.47974 0.15011 0.0
H4787 H 0.28082 0.5088 0.99129 0.0
H4788 H 0.3702 0.57374 0.78883 0.0
H4789 H 0.3479 0.59459 0.81231 0.0
H4790 H 0.3037 0.60381 0.76101 0.0
H4791 H 0.32623 0.58379 0.73734 0.0
H4792 H 0.2997 0.63465 0.79015 0.0
H4793 H 0.30245 0.55722 0.78901 0.0
H4794 H 0.32101 0.52332 0.79236 0.0
H4795 H 0.33924 0.53957 0.85614 0.0
H4796 H 0.321 0.57372 0.853 0.0
H4797 H 0.19624 0.6023 0.81646 0.0
H4798 H 0.2325 0.60689 0.80358 0.0
H4799 H 0.25577 0.60785 0.86795 0.0
H4800 H 0.21939 0.60343 0.8811 0.0
H4801 H 0.27577 0.579 0.84078 0.0
H4802 H 0.25922 0.65195 0.84238 0.0
H4803 H 0.23751 0.68338 0.83615 0.0
H4804 H 0.24197 0.67371 0.76887 0.0
H4805 H 0.26328 0.64193 0.77468 0.0
C4806 C 0.35623 0.58105 0.78232 0.0
C4807 C 0.34954 0.57656 0.76148 0.0
C4808 C 0.34351 0.59297 0.79576 0.0
C4809 C 0.32377 0.60001 0.78859 0.0
C4810 C 0.31874 0.59829 0.76695 0.0
C4811 C 0.33162 0.58671 0.75343 0.0
C4812 C 0.30651 0.60429 0.8038 0.0
C4813 C 0.29454 0.62265 0.80141 0.0
C4814 C 0.29992 0.58866 0.81866 0.0
C4815 C 0.31063 0.56807 0.82069 0.0
C4816 C 0.31051 0.55357 0.8037 0.0
C4817 C 0.32096 0.53434 0.80556 0.0
C4818 C 0.33135 0.52932 0.82443 0.0
C4819 C 0.33124 0.54351 0.84151 0.0
C4820 C 0.32086 0.56281 0.8397 0.0
C4821 C 0.20904 0.60347 0.82791 0.0
C4822 C 0.20497 0.60234 0.8498 0.0
C4823 C 0.22971 0.60637 0.82053 0.0
C4824 C 0.24669 0.60805 0.83485 0.0
C4825 C 0.24278 0.60683 0.8567 0.0
C4826 C 0.22204 0.60421 0.86414 0.0
C4827 C 0.2686 0.60905 0.82668 0.0
C4828 C 0.28135 0.59152 0.83028 0.0
C4829 C 0.27553 0.62521 0.81263 0.0
C4830 C 0.26282 0.64445 0.809 0.0
C4831 C 0.25543 0.6564 0.82625 0.0
C4832 C 0.24318 0.6743 0.8228 0.0
C4833 C 0.23831 0.68051 0.80213 0.0
C4834 C 0.24571 0.66886 0.78488 0.0
C4835 C 0.2579 0.65091 0.78825 0.0
H4836 H 0.22884 0.69438 0.7995 0.0
H4837 H 0.33944 0.51442 0.82585 0.0
H4838 H 0.19695 0.57544 0.49691 0.0
H4839 H 0.18327 0.54239 0.51208 0.0
H4840 H 0.18094 0.57193 0.57388 0.0
H4841 H 0.19556 0.60477 0.5589 0.0
H4842 H 0.20014 0.53689 0.57709 0.0
H4843 H 0.13494 0.55621 0.54446 0.0
H4844 H 0.11143 0.56784 0.51564 0.0
H4845 H 0.12619 0.5123 0.47947 0.0
H4846 H 0.15003 0.50047 0.50795 0.0
H4847 H 0.1493 0.44697 0.62482 0.0
H4848 H 0.15628 0.48244 0.61067 0.0
H4849 H 0.17163 0.45546 0.54981 0.0
H4850 H 0.16467 0.41986 0.56377 0.0
H4851 H 0.1434 0.48976 0.54762 0.0
H4852 H 0.215 0.4771 0.57604 0.0
H4853 H 0.24012 0.46634 0.60386 0.0
H4854 H 0.21119 0.5088 0.64805 0.0
H4855 H 0.18645 0.52044 0.62015 0.0
C4856 C 0.19312 0.57501 0.51365 0.0
C4857 C 0.19743 0.59262 0.52676 0.0
C4858 C 0.18519 0.55611 0.5223 0.0
C4859 C 0.1809 0.55467 0.54412 0.0
C4860 C 0.1842 0.57263 0.55702 0.0
C4861 C 0.19251 0.59139 0.54845 0.0
C4862 C 0.17507 0.53396 0.55381 0.0
C4863 C 0.18738 0.52686 0.57087 0.0
C4864 C 0.15883 0.52052 0.54543 0.0
C4865 C 0.14441 0.52753 0.5283 0.0
C4866 C 0.1333 0.54654 0.5303 0.0
C4867 C 0.11989 0.55316 0.51403 0.0
C4868 C 0.11735 0.54084 0.49572 0.0
C4869 C 0.12818 0.52184 0.49366 0.0
C4870 C 0.14162 0.51515 0.50988 0.0
C4871 C 0.15417 0.44854 0.60842 0.0
C4872 C 0.15638 0.43057 0.59541 0.0
C4873 C 0.15824 0.46882 0.60041 0.0
C4874 C 0.16451 0.4715 0.57924 0.0
C4875 C 0.16676 0.45366 0.56619 0.0
C4876 C 0.16287 0.43335 0.57423 0.0
C4877 C 0.16849 0.49298 0.57066 0.0
C4878 C 0.15589 0.50009 0.55387 0.0
C4879 C 0.18432 0.50655 0.57929 0.0
C4880 C 0.19884 0.49945 0.59615 0.0
C4881 C 0.21399 0.48406 0.59173 0.0
C4882 C 0.2282 0.47788 0.60747 0.0
C4883 C 0.22708 0.48665 0.62781 0.0
C4884 C 0.21198 0.50194 0.63233 0.0
C4885 C 0.198 0.50848 0.61651 0.0
H4886 H 0.23798 0.48168 0.64002 0.0
H4887 H 0.10697 0.54599 0.48314 0.0
H4888 H 0.19642 0.50646 0.22337 0.0
H4889 H 0.22909 0.52695 0.21786 0.0
H4890 H 0.21993 0.55931 0.27742 0.0
H4891 H 0.18692 0.53905 0.28298 0.0
H4892 H 0.23027 0.58676 0.24678 0.0
H4893 H 0.2583 0.523 0.27343 0.0
H4894 H 0.26265 0.48439 0.27665 0.0
H4895 H 0.2849 0.48147 0.21239 0.0
H4896 H 0.28039 0.52002 0.20867 0.0
H4897 H 0.352 0.5978 0.21588 0.0
H4898 H 0.32352 0.58309 0.23792 0.0
H4899 H 0.27713 0.60716 0.19424 0.0
H4900 H 0.30537 0.62233 0.17245 0.0
H4901 H 0.29764 0.55279 0.22672 0.0
H4902 H 0.23051 0.6146 0.21727 0.0
H4903 H 0.22699 0.65344 0.21643 0.0
H4904 H 0.28496 0.66109 0.25169 0.0
H4905 H 0.2887 0.62229 0.25302 0.0
C4906 C 0.20137 0.51781 0.2354 0.0
C4907 C 0.18905 0.5211 0.25362 0.0
C4908 C 0.22013 0.52945 0.23226 0.0
C4909 C 0.22704 0.54446 0.24736 0.0
C4910 C 0.21487 0.54774 0.26562 0.0
C4911 C 0.19605 0.53611 0.26878 0.0
C4912 C 0.24656 0.55725 0.24344 0.0
C4913 C 0.24509 0.5794 0.24258 0.0
C4914 C 0.26602 0.54763 0.23859 0.0
C4915 C 0.2689 0.52442 0.24075 0.0
C4916 C 0.26399 0.51411 0.25994 0.0
C4917 C 0.2665 0.49223 0.26186 0.0
C4918 C 0.27402 0.48048 0.24473 0.0
C4919 C 0.27908 0.49059 0.22565 0.0
C4920 C 0.27658 0.51247 0.22364 0.0
C4921 C 0.33572 0.60033 0.21118 0.0
C4922 C 0.33098 0.61108 0.19228 0.0
C4923 C 0.31947 0.5919 0.22381 0.0
C4924 C 0.2982 0.59407 0.21778 0.0
C4925 C 0.2934 0.60561 0.19944 0.0
C4926 C 0.30962 0.61418 0.1869 0.0
C4927 C 0.28113 0.5823 0.22915 0.0
C4928 C 0.28301 0.56028 0.23135 0.0
C4929 C 0.26222 0.59211 0.23563 0.0
C4930 C 0.25994 0.6155 0.23514 0.0
C4931 C 0.24245 0.62455 0.22496 0.0
C4932 C 0.24043 0.64657 0.22437 0.0
C4933 C 0.25576 0.65973 0.23396 0.0
C4934 C 0.27313 0.65088 0.24421 0.0
C4935 C 0.27522 0.62887 0.24486 0.0
H4936 H 0.25418 0.67677 0.23347 0.0
H4937 H 0.27594 0.46354 0.24624 0.0
H4938 H 0.20182 0.38551 0.96111 0.0
H4939 H 0.17524 0.40685 0.94334 0.0
H4940 H 0.18055 0.45377 0.9931 0.0
H4941 H 0.20656 0.43208 0.01137 0.0
H4942 H 0.14056 0.45265 0.97589 0.0
H4943 H 0.21387 0.45585 0.95072 0.0
H4944 H 0.24637 0.44006 0.93641 0.0
H4945 H 0.21147 0.41655 0.88241 0.0
H4946 H 0.1787 0.432 0.89657 0.0
H4947 H 0.14595 0.5545 0.93262 0.0
H4948 H 0.14812 0.52003 0.94959 0.0
H4949 H 0.13731 0.48908 0.88931 0.0
H4950 H 0.13537 0.5236 0.87202 0.0
H4951 H 0.17238 0.47597 0.90766 0.0
H4952 H 0.10125 0.48281 0.92903 0.0
H4953 H 0.06988 0.50059 0.94332 0.0
H4954 H 0.10037 0.50685 0.00403 0.0
H4955 H 0.13209 0.48941 0.99003 0.0
C4956 C 0.19688 0.4001 0.96854 0.0
C4957 C 0.20654 0.40743 0.98735 0.0
C4958 C 0.18165 0.41222 0.95842 0.0
C4959 C 0.17633 0.4321 0.96666 0.0
C4960 C 0.1845 0.43849 0.98645 0.0
C4961 C 0.19945 0.42617 -0.00319 0.0
C4962 C 0.16548 0.4477 0.9532 0.0
C4963 C 0.14739 0.45776 0.96093 0.0
C4964 C 0.17412 0.45394 0.93341 0.0
C4965 C 0.19383 0.44483 0.92481 0.0
C4966 C 0.21313 0.4472 0.93586 0.0
C4967 C 0.23158 0.43833 0.92778 0.0
C4968 C 0.23097 0.42725 0.90855 0.0
C4969 C 0.21191 0.42509 0.89733 0.0
C4970 C 0.19339 0.43389 0.90537 0.0
C4971 C 0.14374 0.5404 0.92295 0.0
C4972 C 0.14083 0.54184 0.90089 0.0
C4973 C 0.14472 0.52068 0.93276 0.0
C4974 C 0.14267 0.502 0.92074 0.0
C4975 C 0.13882 0.50333 0.89887 0.0
C4976 C 0.13783 0.52308 0.88902 0.0
C4977 C 0.14775 0.48146 0.93056 0.0
C4978 C 0.16494 0.47048 0.92221 0.0
C4979 C 0.13829 0.47457 0.94976 0.0
C4980 C 0.11913 0.48484 0.95842 0.0
C4981 C 0.10134 0.48808 0.9454 0.0
C4982 C 0.08348 0.49809 0.95345 0.0
C4983 C 0.08314 0.50487 0.97456 0.0
C4984 C 0.10065 0.50158 0.98768 0.0
C4985 C 0.11857 0.49159 0.9797 0.0
H4986 H 0.06931 0.51265 0.98076 0.0
H4987 H 0.24527 0.42039 0.90232 0.0
H4988 H 0.28677 0.49636 0.72224 0.0
H4989 H 0.2622 0.46729 0.7127 0.0
H4990 H 0.31028 0.42201 0.72837 0.0
H4991 H 0.33416 0.45109 0.73924 0.0
H4992 H 0.26638 0.44354 0.68152 0.0
H4993 H 0.28928 0.37271 0.73559 0.0
H4994 H 0.29995 0.36626 0.77265 0.0
H4995 H 0.26933 0.42321 0.79232 0.0
H4996 H 0.25824 0.42985 0.75545 0.0
H4997 H 0.21864 0.36229 0.62988 0.0
H4998 H 0.24941 0.37344 0.65106 0.0
H4999 H 0.20945 0.37973 0.70608 0.0
H5000 H 0.17892 0.36783 0.68541 0.0
H5001 H 0.25091 0.37518 0.71773 0.0
H5002 H 0.20855 0.42096 0.67295 0.0
H5003 H 0.19076 0.42768 0.63877 0.0
H5004 H 0.2506 0.42477 0.60658 0.0
H5005 H 0.26871 0.41811 0.64065 0.0
C5006 C 0.29163 0.48013 0.7244 0.0
C5007 C 0.31202 0.47574 0.73172 0.0
C5008 C 0.27776 0.46355 0.71878 0.0
C5009 C 0.28438 0.44241 0.71976 0.0
C5010 C 0.30458 0.43808 0.72788 0.0
C5011 C 0.31822 0.45466 0.73407 0.0
C5012 C 0.27109 0.4253 0.71008 0.0
C5013 C 0.26311 0.42864 0.68957 0.0
C5014 C 0.26664 0.40579 0.72044 0.0
C5015 C 0.27315 0.40189 0.7427 0.0
C5016 C 0.28478 0.38382 0.74783 0.0
C5017 C 0.29091 0.38014 0.76881 0.0
C5018 C 0.28539 0.39435 0.78482 0.0
C5019 C 0.27368 0.41225 0.77989 0.0
C5020 C 0.2675 0.41601 0.75895 0.0
C5021 C 0.21659 0.36507 0.6467 0.0
C5022 C 0.19627 0.36515 0.65579 0.0
C5023 C 0.2342 0.37137 0.65881 0.0
C5024 C 0.23147 0.37812 0.67988 0.0
C5025 C 0.21183 0.37486 0.68977 0.0
C5026 C 0.19432 0.36835 0.6778 0.0
C5027 C 0.24653 0.3936 0.68945 0.0
C5028 C 0.25469 0.39001 0.70979 0.0
C5029 C 0.25039 0.41335 0.67948 0.0
C5030 C 0.23993 0.41898 0.65925 0.0
C5031 C 0.21789 0.42191 0.65858 0.0
C5032 C 0.20775 0.42565 0.63924 0.0
C5033 C 0.21952 0.42654 0.62051 0.0
C5034 C 0.2415 0.424 0.62111 0.0
C5035 C 0.25173 0.42037 0.64043 0.0
H5036 H 0.21163 0.42932 0.60553 0.0
H5037 H 0.29016 0.39147 0.80104 0.0
H5038 H 0.29707 0.59694 0.50692 0.0
H5039 H 0.32336 0.57169 0.49473 0.0
H5040 H 0.31482 0.59325 0.43036 0.0
H5041 H 0.28773 0.61761 0.44239 0.0
H5042 H 0.30801 0.55366 0.4318 0.0
H5043 H 0.36345 0.59866 0.45853 0.0
H5044 H 0.38275 0.62111 0.48449 0.0
H5045 H 0.38887 0.56776 0.52604 0.0
H5046 H 0.36933 0.54503 0.50047 0.0
H5047 H 0.37347 0.48134 0.3865 0.0
H5048 H 0.36933 0.51639 0.40199 0.0
H5049 H 0.3549 0.4882 0.4626 0.0
H5050 H 0.35894 0.45286 0.4473 0.0
H5051 H 0.37732 0.53278 0.46183 0.0
H5052 H 0.31509 0.49113 0.43715 0.0
H5053 H 0.2971 0.46857 0.41032 0.0
H5054 H 0.30519 0.51775 0.36388 0.0
H5055 H 0.3236 0.54043 0.3904 0.0
C5056 C 0.3012 0.59656 0.49025 0.0
C5057 C 0.29021 0.60885 0.4755 0.0
C5058 C 0.31635 0.58228 0.48331 0.0
C5059 C 0.32108 0.58057 0.46161 0.0
C5060 C 0.31131 0.59419 0.44715 0.0
C5061 C 0.29582 0.60803 0.454 0.0
C5062 C 0.33323 0.56241 0.45357 0.0
C5063 C 0.3234 0.54952 0.4381 0.0
C5064 C 0.35305 0.55654 0.46215 0.0
C5065 C 0.36476 0.57017 0.47763 0.0
C5066 C 0.36874 0.59174 0.47328 0.0
C5067 C 0.37977 0.60452 0.48791 0.0
C5068 C 0.38699 0.59588 0.50692 0.0
C5069 C 0.38325 0.57443 0.51132 0.0
C5070 C 0.37223 0.56159 0.49674 0.0
C5071 C 0.36996 0.48252 0.40327 0.0
C5072 C 0.36582 0.4643 0.41552 0.0
C5073 C 0.36789 0.50259 0.41213 0.0
C5074 C 0.36164 0.50473 0.43331 0.0
C5075 C 0.35984 0.48674 0.44622 0.0
C5076 C 0.3619 0.46658 0.43736 0.0
C5077 C 0.35203 0.52462 0.4402 0.0
C5078 C 0.36215 0.53748 0.45545 0.0
C5079 C 0.33248 0.53071 0.43142 0.0
C5080 C 0.32089 0.51735 0.41566 0.0
C5081 C 0.31315 0.49705 0.42118 0.0
C5082 C 0.30288 0.48426 0.40604 0.0
C5083 C 0.30005 0.4917 0.38539 0.0
C5084 C 0.30743 0.51199 0.37987 0.0
C5085 C 0.31777 0.52482 0.39494 0.0
H5086 H 0.29211 0.48177 0.37368 0.0
H5087 H 0.39553 0.60579 0.51823 0.0
H5088 H 0.30359 0.15399 0.42591 0.0
H5089 H 0.31581 0.18612 0.40785 0.0
H5090 H 0.257 0.21637 0.42315 0.0
H5091 H 0.2444 0.18392 0.44089 0.0
H5092 H 0.27518 0.23011 0.38402 0.0
H5093 H 0.29479 0.2212 0.45742 0.0
H5094 H 0.30945 0.20159 0.4877 0.0
H5095 H 0.36975 0.19875 0.45638 0.0
H5096 H 0.35532 0.21807 0.42575 0.0
H5097 H 0.31547 0.33654 0.40464 0.0
H5098 H 0.29792 0.30155 0.40538 0.0
H5099 H 0.35572 0.27281 0.38435 0.0
H5100 H 0.3733 0.30772 0.38319 0.0
H5101 H 0.33795 0.25775 0.42376 0.0
H5102 H 0.31897 0.27019 0.35169 0.0
H5103 H 0.30343 0.28693 0.32017 0.0
H5104 H 0.24169 0.28326 0.34866 0.0
H5105 H 0.25689 0.26684 0.38056 0.0
C5106 C 0.29302 0.16728 0.42487 0.0
C5107 C 0.27327 0.16675 0.43511 0.0
C5108 C 0.29998 0.18556 0.41452 0.0
C5109 C 0.28747 0.20367 0.41466 0.0
C5110 C 0.26686 0.20251 0.423 0.0
C5111 C 0.25974 0.18404 0.43316 0.0
C5112 C 0.29721 0.2244 0.40934 0.0
C5113 C 0.28875 0.23636 0.39278 0.0
C5114 C 0.31512 0.23221 0.42068 0.0
C5115 C 0.32392 0.22088 0.43922 0.0
C5116 C 0.31113 0.21627 0.45694 0.0
C5117 C 0.3194 0.20522 0.47416 0.0
C5118 C 0.3405 0.19888 0.47394 0.0
C5119 C 0.3534 0.20364 0.45651 0.0
C5120 C 0.34519 0.21465 0.43922 0.0
C5121 C 0.32441 0.32276 0.4001 0.0
C5122 C 0.34584 0.32477 0.39416 0.0
C5123 C 0.31428 0.30288 0.40024 0.0
C5124 C 0.32553 0.28476 0.39471 0.0
C5125 C 0.34679 0.28673 0.38844 0.0
C5126 C 0.35682 0.30662 0.38794 0.0
C5127 C 0.31602 0.26358 0.3983 0.0
C5128 C 0.32445 0.25156 0.41482 0.0
C5129 C 0.29802 0.25594 0.38701 0.0
C5130 C 0.28913 0.26743 0.36863 0.0
C5131 C 0.30215 0.2733 0.35143 0.0
C5132 C 0.29337 0.2826 0.33342 0.0
C5133 C 0.27156 0.28597 0.33235 0.0
C5134 C 0.25855 0.28049 0.34947 0.0
C5135 C 0.26725 0.27122 0.36753 0.0
H5136 H 0.26472 0.29284 0.31828 0.0
H5137 H 0.34688 0.19032 0.48729 0.0
H5138 H 0.84006 0.33102 0.55301 0.0
H5139 H 0.85177 0.30358 0.57727 0.0
H5140 H 0.78672 0.28395 0.58794 0.0
H5141 H 0.77478 0.31193 0.5641 0.0
H5142 H 0.81055 0.28003 0.62404 0.0
H5143 H 0.81419 0.25914 0.55141 0.0
H5144 H 0.82362 0.26349 0.51372 0.0
H5145 H 0.88977 0.26478 0.52999 0.0
H5146 H 0.88071 0.26083 0.5679 0.0
H5147 H 0.82793 0.16795 0.63599 0.0
H5148 H 0.8168 0.20414 0.62909 0.0
H5149 H 0.88224 0.22521 0.62702 0.0
H5150 H 0.8936 0.18916 0.63402 0.0
H5151 H 0.85889 0.22974 0.58891 0.0
H5152 H 0.85254 0.2455 0.66313 0.0
H5153 H 0.8401 0.23905 0.69963 0.0
H5154 H 0.77545 0.24354 0.67891 0.0
H5155 H 0.78749 0.24968 0.64218 0.0
C5156 C 0.82822 0.32102 0.56068 0.0
C5157 C 0.80654 0.32331 0.55636 0.0
C5158 C 0.83493 0.30543 0.57461 0.0
C5159 C 0.82011 0.29154 0.58408 0.0
C5160 C 0.79838 0.29453 0.58076 0.0
C5161 C 0.79161 0.31038 0.56703 0.0
C5162 C 0.82751 0.2726 0.5954 0.0
C5163 C 0.82103 0.26894 0.61639 0.0
C5164 C 0.84117 0.25819 0.58533 0.0
C5165 C 0.84676 0.25999 0.56251 0.0
C5166 C 0.83075 0.26049 0.54697 0.0
C5167 C 0.83602 0.26288 0.52558 0.0
C5168 C 0.85727 0.26455 0.5195 0.0
C5169 C 0.87331 0.26359 0.53476 0.0
C5170 C 0.86812 0.26127 0.55621 0.0
C5171 C 0.83996 0.18038 0.63467 0.0
C5172 C 0.86166 0.17561 0.63507 0.0
C5173 C 0.83355 0.20107 0.63088 0.0
C5174 C 0.84874 0.21721 0.62744 0.0
C5175 C 0.87033 0.21287 0.62966 0.0
C5176 C 0.87677 0.19225 0.63363 0.0
C5177 C 0.8423 0.2373 0.61772 0.0
C5178 C 0.84874 0.24101 0.59678 0.0
C5179 C 0.82821 0.25131 0.62771 0.0
C5180 C 0.82093 0.24788 0.64984 0.0
C5181 C 0.83566 0.24494 0.66631 0.0
C5182 C 0.82868 0.24137 0.68706 0.0
C5183 C 0.807 0.24083 0.69158 0.0
C5184 C 0.79225 0.24395 0.67538 0.0
C5185 C 0.79914 0.2475 0.65459 0.0
H5186 H 0.80163 0.23804 0.70765 0.0
H5187 H 0.86128 0.26661 0.50295 0.0
H5188 H 0.44163 0.97839 0.3103 0.0
H5189 H 0.46711 0.0007 0.32976 0.0
H5190 H 0.43318 0.05645 0.31113 0.0
H5191 H 0.40814 0.03427 0.291 0.0
H5192 H 0.47233 0.06107 0.30126 0.0
H5193 H 0.43661 0.04001 0.36416 0.0
H5194 H 0.41983 0.01561 0.3899 0.0
H5195 H 0.47929 0.98506 0.39953 0.0
H5196 H 0.49639 0.00906 0.3736 0.0
H5197 H 0.55043 0.12441 0.35625 0.0
H5198 H 0.51549 0.108 0.34922 0.0
H5199 H 0.54344 0.04614 0.34948 0.0
H5200 H 0.5784 0.06241 0.35599 0.0
H5201 H 0.50365 0.04931 0.37238 0.0
H5202 H 0.53619 0.06556 0.30426 0.0
H5203 H 0.55208 0.08798 0.27624 0.0
H5204 H 0.49733 0.12733 0.27665 0.0
H5205 H 0.48117 0.1052 0.30481 0.0
C5206 C 0.43939 -0.00464 0.3107 0.0
C5207 C 0.42312 0.00464 0.29893 0.0
C5208 C 0.45386 0.00811 0.32197 0.0
C5209 C 0.45198 0.03027 0.32201 0.0
C5210 C 0.43496 0.0394 0.31127 0.0
C5211 C 0.42071 0.02672 0.29974 0.0
C5212 C 0.46926 0.04394 0.33072 0.0
C5213 C 0.47874 0.05889 0.31708 0.0
C5214 C 0.47796 0.04078 0.35116 0.0
C5215 C 0.46776 0.02628 0.3668 0.0
C5216 C 0.44609 0.02799 0.37163 0.0
C5217 C 0.43652 0.01424 0.38629 0.0
C5218 C 0.44848 -0.00122 0.39632 0.0
C5219 C 0.47005 -0.00295 0.39174 0.0
C5220 C 0.47969 0.01074 0.37709 0.0
C5221 C 0.54903 0.1073 0.35504 0.0
C5222 C 0.56704 0.09463 0.35651 0.0
C5223 C 0.52914 0.098 0.35102 0.0
C5224 C 0.52703 0.07593 0.34886 0.0
C5225 C 0.54484 0.06321 0.35119 0.0
C5226 C 0.56476 0.07251 0.35476 0.0
C5227 C 0.50658 0.06602 0.34278 0.0
C5228 C 0.49668 0.0518 0.35686 0.0
C5229 C 0.49737 0.06986 0.32278 0.0
C5230 C 0.50759 0.08389 0.30679 0.0
C5231 C 0.52767 0.07916 0.29858 0.0
C5232 C 0.53665 0.09171 0.28256 0.0
C5233 C 0.52564 0.10896 0.27456 0.0
C5234 C 0.50576 0.11388 0.28277 0.0
C5235 C 0.4967 0.10135 0.29876 0.0
H5236 H 0.53257 0.1186 0.2621 0.0
H5237 H 0.44104 0.98815 0.40766 0.0
H5238 H 0.73252 0.66368 0.08033 0.0
H5239 H 0.70987 0.67797 0.10767 0.0
H5240 H 0.65821 0.6371 0.08661 0.0
H5241 H 0.68087 0.623 0.05866 0.0
H5242 H 0.64637 0.67533 0.08597 0.0
H5243 H 0.67572 0.6353 0.1398 0.0
H5244 H 0.70257 0.61661 0.16068 0.0
H5245 H 0.73327 0.67598 0.17634 0.0
H5246 H 0.70685 0.69505 0.1553 0.0
H5247 H 0.60354 0.76324 0.13734 0.0
H5248 H 0.61088 0.72537 0.13879 0.0
H5249 H 0.67768 0.73928 0.13112 0.0
H5250 H 0.67061 0.77703 0.12976 0.0
H5251 H 0.66889 0.70253 0.15657 0.0
H5252 H 0.64649 0.7359 0.08838 0.0
H5253 H 0.61942 0.75445 0.06765 0.0
H5254 H 0.57427 0.70416 0.08026 0.0
H5255 H 0.60102 0.6856 0.10161 0.0
C5256 C 0.71648 0.65738 0.08177 0.0
C5257 C 0.70832 0.64256 0.0671 0.0
C5258 C 0.70359 0.66532 0.09768 0.0
C5259 C 0.68234 0.65844 0.09942 0.0
C5260 C 0.67458 0.64253 0.08567 0.0
C5261 C 0.68749 0.63461 0.06962 0.0
C5262 C 0.66767 0.67109 0.1124 0.0
C5263 C 0.65078 0.6806 0.1018 0.0
C5264 C 0.67314 0.6779 0.13315 0.0
C5265 C 0.68919 0.66663 0.14596 0.0
C5266 C 0.68825 0.64439 0.14761 0.0
C5267 C 0.70341 0.63372 0.15949 0.0
C5268 C 0.7196 0.6451 0.16985 0.0
C5269 C 0.72068 0.66719 0.16836 0.0
C5270 C 0.70556 0.67795 0.1565 0.0
C5271 C 0.61986 0.75829 0.13643 0.0
C5272 C 0.63646 0.77312 0.13282 0.0
C5273 C 0.624 0.73665 0.13748 0.0
C5274 C 0.64477 0.72959 0.13491 0.0
C5275 C 0.66153 0.74445 0.13324 0.0
C5276 C 0.65742 0.76603 0.13213 0.0
C5277 C 0.64894 0.70734 0.12938 0.0
C5278 C 0.66381 0.69621 0.14133 0.0
C5279 C 0.64141 0.6987 0.11001 0.0
C5280 C 0.62559 0.70956 0.09677 0.0
C5281 C 0.63075 0.72887 0.0868 0.0
C5282 C 0.61547 0.73939 0.07496 0.0
C5283 C 0.59511 0.7305 0.07264 0.0
C5284 C 0.59002 0.71105 0.08213 0.0
C5285 C 0.60521 0.70056 0.09415 0.0
H5286 H 0.58328 0.73866 0.06346 0.0
H5287 H 0.73133 0.63681 0.17903 0.0
H5288 H 0.54664 0.48866 0.23192 0.0
H5289 H 0.51746 0.47835 0.25532 0.0
H5290 H 0.54728 0.51312 0.30682 0.0
H5291 H 0.57613 0.52428 0.28294 0.0
H5292 H 0.52346 0.45346 0.2875 0.0
H5293 H 0.50843 0.52212 0.34516 0.0
H5294 H 0.51011 0.56124 0.34616 0.0
H5295 H 0.49827 0.56334 0.2791 0.0
H5296 H 0.49629 0.52427 0.27777 0.0
H5297 H 0.45211 0.41109 0.36295 0.0
H5298 H 0.48324 0.43119 0.35043 0.0
H5299 H 0.44245 0.47389 0.31692 0.0
H5300 H 0.41142 0.45443 0.32981 0.0
H5301 H 0.47544 0.49528 0.3328 0.0
H5302 H 0.46362 0.42992 0.29241 0.0
H5303 H 0.45977 0.3911 0.2885 0.0
H5304 H 0.52175 0.38326 0.31534 0.0
H5305 H 0.52584 0.42206 0.31961 0.0
C5306 C 0.54653 0.49467 0.24804 0.0
C5307 C 0.56342 0.50722 0.25574 0.0
C5308 C 0.53001 0.48867 0.26143 0.0
C5309 C 0.53036 0.49475 0.28286 0.0
C5310 C 0.54663 0.5084 0.2903 0.0
C5311 C 0.56302 0.51481 0.27669 0.0
C5312 C 0.51484 0.48486 0.29751 0.0
C5313 C 0.51304 0.46265 0.29748 0.0
C5314 C 0.50149 0.4968 0.31076 0.0
C5315 C 0.50248 0.52029 0.31134 0.0
C5316 C 0.50615 0.53095 0.33065 0.0
C5317 C 0.50716 0.5531 0.33127 0.0
C5318 C 0.50438 0.56476 0.31269 0.0
C5319 C 0.50051 0.55429 0.29346 0.0
C5320 C 0.49949 0.53214 0.29276 0.0
C5321 C 0.44981 0.42486 0.35304 0.0
C5322 C 0.42934 0.43099 0.34708 0.0
C5323 C 0.46757 0.43637 0.34601 0.0
C5324 C 0.46511 0.45387 0.33257 0.0
C5325 C 0.44469 0.4605 0.32736 0.0
C5326 C 0.42697 0.44922 0.33459 0.0
C5327 C 0.48354 0.46401 0.32199 0.0
C5328 C 0.48611 0.48617 0.32303 0.0
C5329 C 0.49734 0.4521 0.3092 0.0
C5330 C 0.49493 0.42882 0.30656 0.0
C5331 C 0.47636 0.41989 0.29759 0.0
C5332 C 0.47414 0.39791 0.2953 0.0
C5333 C 0.49048 0.38472 0.30173 0.0
C5334 C 0.50909 0.39349 0.31041 0.0
C5335 C 0.51137 0.41547 0.31277 0.0
H5336 H 0.48874 0.3677 0.29994 0.0
H5337 H 0.50517 0.58191 0.3132 0.0
H5338 H 0.26925 0.81303 0.9386 0.0
H5339 H 0.25075 0.78479 0.9189 0.0
H5340 H 0.19116 0.81572 0.92932 0.0
H5341 H 0.20948 0.84339 0.94983 0.0
H5342 H 0.18712 0.77713 0.94003 0.0
H5343 H 0.2152 0.81145 0.87872 0.0
H5344 H 0.24242 0.82803 0.85576 0.0
H5345 H 0.27577 0.76942 0.85314 0.0
H5346 H 0.24891 0.75254 0.87632 0.0
H5347 H 0.13003 0.69939 0.8809 0.0
H5348 H 0.1468 0.73414 0.88745 0.0
H5349 H 0.20746 0.70466 0.8949 0.0
H5350 H 0.19087 0.66986 0.88856 0.0
H5351 H 0.20841 0.74452 0.8718 0.0
H5352 H 0.18203 0.71268 0.93714 0.0
H5353 H 0.15422 0.69638 0.95961 0.0
H5354 H 0.11667 0.75207 0.95341 0.0
H5355 H 0.14415 0.76856 0.9306 0.0
C5356 C 0.25226 0.81394 0.93636 0.0
C5357 C 0.24075 0.83022 0.94588 0.0
C5358 C 0.2417 0.79789 0.92498 0.0
C5359 C 0.21955 0.7982 0.92249 0.0
C5360 C 0.20823 0.81509 0.93111 0.0
C5361 C 0.21871 0.83087 0.94283 0.0
C5362 C 0.20794 0.77986 0.91297 0.0
C5363 C 0.1915 0.77037 0.92485 0.0
C5364 C 0.2139 0.7707 0.89338 0.0
C5365 C 0.2301 0.78077 0.87941 0.0
C5366 C 0.22842 0.80213 0.87338 0.0
C5367 C 0.24377 0.81158 0.8603 0.0
C5368 C 0.26084 0.7998 0.85303 0.0
C5369 C 0.26255 0.77853 0.85879 0.0
C5370 C 0.24725 0.769 0.87188 0.0
C5371 C 0.14698 0.70034 0.88362 0.0
C5372 C 0.1591 0.6819 0.88454 0.0
C5373 C 0.15651 0.72017 0.8873 0.0
C5374 C 0.17829 0.72182 0.89173 0.0
C5375 C 0.19063 0.70361 0.89145 0.0
C5376 C 0.18109 0.68377 0.88804 0.0
C5377 C 0.18783 0.74211 0.89891 0.0
C5378 C 0.20388 0.75174 0.88672 0.0
C5379 C 0.18145 0.75159 0.91812 0.0
C5380 C 0.16501 0.74174 0.93196 0.0
C5381 C 0.16776 0.72137 0.94041 0.0
C5382 C 0.15207 0.71211 0.95323 0.0
C5383 C 0.13366 0.72315 0.95788 0.0
C5384 C 0.13092 0.74351 0.94976 0.0
C5385 C 0.14655 0.75282 0.93688 0.0
H5386 H 0.12154 0.71596 0.96782 0.0
H5387 H 0.27271 0.80714 0.84291 0.0
H5388 H 0.41416 0.97379 0.18128 0.0
H5389 H 0.4364 0.96549 0.1507 0.0
H5390 H 0.46068 0.91144 0.18405 0.0
H5391 H 0.43832 0.91928 0.21431 0.0
H5392 H 0.47734 0.96537 0.14724 0.0
H5393 H 0.47156 0.87216 0.15417 0.0
H5394 H 0.44348 0.84493 0.15921 0.0
H5395 H 0.39676 0.88822 0.13701 0.0
H5396 H 0.42458 0.91564 0.13149 0.0
H5397 H 0.57016 0.9147 0.15169 0.0
H5398 H 0.53701 0.93336 0.14983 0.0
H5399 H 0.51635 0.89314 0.09785 0.0
H5400 H 0.54929 0.87352 0.10058 0.0
H5401 H 0.48835 0.89112 0.12447 0.0
H5402 H 0.51896 0.95031 0.09349 0.0
H5403 H 0.5453 0.97831 0.08478 0.0
H5404 H 0.53933 0.00456 0.14733 0.0
H5405 H 0.51323 0.97655 0.1566 0.0
C5406 C 0.42411 0.96001 0.182 0.0
C5407 C 0.42452 0.94718 0.20025 0.0
C5408 C 0.43674 0.95529 0.16449 0.0
C5409 C 0.44986 0.93764 0.16492 0.0
C5410 C 0.4502 0.92481 0.1831 0.0
C5411 C 0.43756 0.92943 0.20051 0.0
C5412 C 0.46482 0.93335 0.14745 0.0
C5413 C 0.47966 0.94924 0.14189 0.0
C5414 C 0.46699 0.91263 0.1393 0.0
C5415 C 0.45022 0.896 0.14238 0.0
C5416 C 0.45534 0.87584 0.15014 0.0
C5417 C 0.43944 0.86037 0.15315 0.0
C5418 C 0.41835 0.86484 0.14843 0.0
C5419 C 0.4131 0.88478 0.14068 0.0
C5420 C 0.42893 0.90031 0.13764 0.0
C5421 C 0.55881 0.91019 0.13949 0.0
C5422 C 0.56208 0.89243 0.12657 0.0
C5423 C 0.53987 0.92108 0.13821 0.0
C5424 C 0.52408 0.91482 0.12357 0.0
C5425 C 0.5282 0.89823 0.10934 0.0
C5426 C 0.54697 0.88699 0.11097 0.0
C5427 C 0.50223 0.92265 0.12635 0.0
C5428 C 0.48584 0.90747 0.12898 0.0
C5429 C 0.49835 0.94417 0.13109 0.0
C5430 C 0.51401 0.96128 0.12571 0.0
C5431 C 0.52331 0.96199 0.10544 0.0
C5432 C 0.53822 0.97788 0.1004 0.0
C5433 C 0.54397 0.99322 0.11548 0.0
C5434 C 0.53481 0.9927 0.13564 0.0
C5435 C 0.51989 0.97684 0.14077 0.0
H5436 H 0.55553 0.0055 0.11155 0.0
H5437 H 0.40607 0.85284 0.15079 0.0
H5438 H 0.06141 0.96383 0.70736 0.0
H5439 H 0.04141 0.9807 0.67917 0.0
H5440 H 0.08761 0.0321 0.67729 0.0
H5441 H 0.10742 0.01553 0.70593 0.0
H5442 H 0.05038 0.04682 0.68388 0.0
H5443 H 0.07787 0.00019 0.63289 0.0
H5444 H 0.08907 0.96644 0.6171 0.0
H5445 H 0.02481 0.9427 0.61872 0.0
H5446 H 0.01324 0.97617 0.63483 0.0
H5447 H 0.9709 0.09613 0.62545 0.0
H5448 H 0.00551 0.07953 0.62783 0.0
H5449 H 0.97522 0.02077 0.64704 0.0
H5450 H 0.94062 0.03703 0.6445 0.0
H5451 H 0.01171 0.01432 0.62298 0.0
H5452 H 0.98853 0.05651 0.68397 0.0
H5453 H 0.97698 0.08981 0.70057 0.0
H5454 H 0.03432 0.1213 0.67997 0.0
H5455 H 0.04606 0.08821 0.66299 0.0
C5456 C 0.0676 0.97845 0.70058 0.0
C5457 C 0.08577 0.98854 0.70907 0.0
C5458 C 0.05625 0.98801 0.68429 0.0
C5459 C 0.06305 0.00766 0.67602 0.0
C5460 C 0.08207 0.01695 0.68344 0.0
C5461 C 0.09334 0.00749 0.69984 0.0
C5462 C 0.04845 0.01998 0.6626 0.0
C5463 C 0.04248 0.03996 0.6701 0.0
C5464 C 0.03787 0.01098 0.64481 0.0
C5465 C 0.0447 0.99073 0.63516 0.0
C5466 C 0.06614 0.98773 0.63003 0.0
C5467 C 0.07255 0.96865 0.62099 0.0
C5468 C 0.05767 0.95243 0.61692 0.0
C5469 C 0.03632 0.95528 0.62187 0.0
C5470 C 0.02982 0.97433 0.63091 0.0
C5471 C 0.97154 0.07953 0.62969 0.0
C5472 C 0.95303 0.06805 0.63532 0.0
C5473 C 0.99134 0.07007 0.63095 0.0
C5474 C 0.99289 0.04905 0.63791 0.0
C5475 C 0.97434 0.03703 0.64165 0.0
C5476 C 0.95458 0.04644 0.64041 0.0
C5477 C 0.01345 0.04058 0.64481 0.0
C5478 C 0.02035 0.02139 0.6362 0.0
C5479 C 0.02498 0.05023 0.66163 0.0
C5480 C 0.01803 0.07002 0.672 0.0
C5481 C -0.0014 0.07059 0.68287 0.0
C5482 C 0.99202 0.0894 0.69235 0.0
C5483 C 0.00488 0.10768 0.69126 0.0
C5484 C 0.02436 0.10715 0.68075 0.0
C5485 C 0.03098 0.08838 0.67119 0.0
H5486 H -0.00024 0.12223 0.69861 0.0
H5487 H 0.06267 0.93767 0.60992 0.0
loop_
_geom_bond_atom_site_label_1
_geom_bond_atom_site_label_2
_geom_bond_distance
_geom_bond_site_symmetry_2
_ccdc_geom_bond_type
C0 O1 1.306 . S
C0 O3 1.160 . S
O1 C0 1.306 . S
O1 Cd2 2.228 . S
Cd2 O1 2.228 . S
Cd2 O6 2.273 . S
Cd2 O10 2.322 . S
O3 C0 1.160 . S
O3 Cd4 2.203 1_655 S
Cd4 O3 2.203 1_455 S
Cd4 O6 2.411 1_455 S
Cd4 O7 2.333 . S
Cd4 O8 2.352 . S
Cd4 O12 2.277 . S
Cd4 O13 2.356 . S
C5 O10 1.163 1_455 S
C5 O12 1.226 . S
O6 Cd2 2.273 . S
O6 Cd4 2.411 1_655 S
O6 C9 1.320 . S
O7 Cd4 2.333 . S
O7 C9 1.214 1_455 S
O8 Cd4 2.352 . S
O8 C11 1.258 . S
C9 O6 1.320 . S
C9 O7 1.214 1_655 S
O10 Cd2 2.322 . S
O10 C5 1.163 1_655 S
C11 O8 1.258 . S
C11 O13 1.282 . S
O12 Cd4 2.277 . S
O12 C5 1.226 . S
O13 Cd4 2.356 . S
O13 C11 1.282 . S
C14 O15 1.306 . S
C14 O17 1.160 . S
O15 C14 1.306 . S
O15 Cd16 2.228 1_455 S
Cd16 O15 2.228 1_655 S
Cd16 O20 2.273 . S
Cd16 O24 2.277 . S
O17 C14 1.160 . S
O17 Cd18 2.203 . S
Cd18 O17 2.203 . S
Cd18 O20 2.411 1_455 S
Cd18 O21 2.333 1_455 S
Cd18 O22 2.352 . S
Cd18 O26 2.277 1_455 S
Cd18 O27 2.356 . S
C19 O24 1.209 . S
C19 O26 1.226 . S
O20 Cd16 2.273 . S
O20 Cd18 2.411 1_655 S
O20 C23 1.320 . S
O21 Cd18 2.333 1_655 S
O21 C23 1.214 . S
O22 Cd18 2.352 . S
O22 C25 1.258 . S
C23 O20 1.320 . S
C23 O21 1.214 . S
O24 Cd16 2.277 . S
O24 C19 1.209 . S
C25 O22 1.258 . S
C25 O27 1.282 . S
O26 Cd18 2.277 1_655 S
O26 C19 1.226 . S
O27 Cd18 2.356 . S
O27 C25 1.282 . S
C28 O29 1.306 . S
C28 O31 1.160 . S
O29 C28 1.306 . S
O29 Cd30 2.228 . S
Cd30 O29 2.228 . S
Cd30 O34 2.273 . S
Cd30 O38 2.277 . S
O31 C28 1.160 . S
O31 Cd32 2.203 . S
Cd32 O31 2.203 . S
Cd32 O34 2.411 . S
Cd32 O35 2.333 . S
Cd32 O36 2.352 . S
Cd32 O40 2.277 . S
Cd32 O41 2.356 . S
C33 O38 1.209 . S
C33 O40 1.226 . S
O34 Cd30 2.273 . S
O34 Cd32 2.411 . S
O34 C37 1.320 . S
O35 Cd32 2.333 . S
O35 C37 1.214 . S
O36 Cd32 2.352 . S
O36 C39 1.258 . S
C37 O34 1.320 . S
C37 O35 1.214 . S
O38 Cd30 2.277 . S
O38 C33 1.209 . S
C39 O36 1.258 . S
C39 O41 1.282 . S
O40 Cd32 2.277 . S
O40 C33 1.226 . S
O41 Cd32 2.356 . S
O41 C39 1.282 . S
C42 O43 1.306 . S
C42 O45 1.160 . S
O43 C42 1.306 . S
O43 Cd44 2.228 . S
Cd44 O43 2.228 . S
Cd44 O48 2.273 . S
Cd44 O52 2.277 . S
O45 C42 1.160 . S
O45 Cd46 2.203 . S
Cd46 O45 2.203 . S
Cd46 O48 2.411 . S
Cd46 O49 2.333 . S
Cd46 O50 2.352 . S
Cd46 O54 2.277 . S
Cd46 O55 2.356 . S
C47 O52 1.209 . S
C47 O54 1.226 . S
O48 Cd44 2.273 . S
O48 Cd46 2.411 . S
O48 C51 1.320 . S
O49 Cd46 2.333 . S
O49 C51 1.214 . S
O50 Cd46 2.352 . S
O50 C53 1.258 . S
C51 O48 1.320 . S
C51 O49 1.214 . S
O52 Cd44 2.277 . S
O52 C47 1.209 . S
C53 O50 1.258 . S
C53 O55 1.282 . S
O54 Cd46 2.277 . S
O54 C47 1.226 . S
O55 Cd46 2.356 . S
O55 C53 1.282 . S
C56 O57 1.306 . S
C56 O59 1.160 . S
O57 C56 1.306 . S
O57 Cd58 2.228 . S
Cd58 O57 2.228 . S
Cd58 O62 2.273 . S
Cd58 O66 2.277 . S
O59 C56 1.160 . S
O59 Cd60 2.203 1_655 S
Cd60 O59 2.203 1_455 S
Cd60 O62 2.411 1_455 S
Cd60 O63 2.333 . S
Cd60 O64 2.359 . S
Cd60 O68 2.277 . S
Cd60 O69 2.356 . S
C61 O66 1.209 1_455 S
C61 O68 1.226 . S
O62 Cd58 2.273 . S
O62 Cd60 2.411 1_655 S
O62 C65 1.320 . S
O63 Cd60 2.333 . S
O63 C65 1.214 1_455 S
O64 Cd60 2.359 . S
O64 C67 1.313 . S
C65 O62 1.320 . S
C65 O63 1.214 1_655 S
O66 Cd58 2.277 . S
O66 C61 1.209 1_655 S
C67 O64 1.313 . S
C67 O69 1.282 . S
O68 Cd60 2.277 . S
O68 C61 1.226 . S
O69 Cd60 2.356 . S
O69 C67 1.282 . S
C70 O71 1.306 . S
C70 O73 1.160 . S
O71 C70 1.306 . S
O71 Cd72 2.228 . S
Cd72 O71 2.228 . S
Cd72 O76 2.273 . S
Cd72 O80 2.277 . S
O73 C70 1.160 . S
O73 Cd74 2.203 . S
Cd74 O73 2.203 . S
Cd74 O76 2.411 . S
Cd74 O77 2.333 . S
Cd74 O78 2.352 . S
Cd74 O82 2.277 . S
Cd74 O83 2.356 . S
C75 O80 1.209 . S
C75 O82 1.226 . S
O76 Cd72 2.273 . S
O76 Cd74 2.411 . S
O76 C79 1.320 . S
O77 Cd74 2.333 . S
O77 C79 1.214 . S
O78 Cd74 2.352 . S
O78 C81 1.258 . S
C79 O76 1.320 . S
C79 O77 1.214 . S
O80 Cd72 2.277 . S
O80 C75 1.209 . S
C81 O78 1.258 . S
C81 O83 1.282 . S
O82 Cd74 2.277 . S
O82 C75 1.226 . S
O83 Cd74 2.356 . S
O83 C81 1.282 . S
C84 O85 1.306 . S
C84 O87 1.160 . S
O85 C84 1.306 . S
O85 Cd86 2.228 . S
Cd86 O85 2.228 . S
Cd86 O90 2.273 . S
Cd86 O94 2.277 . S
O87 C84 1.160 . S
O87 Cd88 2.203 . S
Cd88 O87 2.203 . S
Cd88 O90 2.411 . S
Cd88 O91 2.333 . S
Cd88 O92 2.352 . S
Cd88 O96 2.277 . S
Cd88 O97 2.356 . S
C89 O94 1.209 . S
C89 O96 1.226 . S
O90 Cd86 2.273 . S
O90 Cd88 2.411 . S
O90 C93 1.320 . S
O91 Cd88 2.333 . S
O91 C93 1.214 . S
O92 Cd88 2.352 . S
O92 C95 1.258 . S
C93 O90 1.320 . S
C93 O91 1.214 . S
O94 Cd86 2.277 . S
O94 C89 1.209 . S
C95 O92 1.258 . S
C95 O97 1.282 . S
O96 Cd88 2.277 . S
O96 C89 1.226 . S
O97 Cd88 2.356 . S
O97 C95 1.282 . S
C98 O99 1.306 . S
C98 O101 1.160 . S
O99 C98 1.306 . S
O99 Cd100 2.228 1_455 S
Cd100 O99 2.228 1_655 S
Cd100 O104 2.273 . S
Cd100 O108 2.277 . S
O101 C98 1.160 . S
O101 Cd102 2.203 . S
Cd102 O101 2.203 . S
Cd102 O104 2.411 1_455 S
Cd102 O105 2.333 1_455 S
Cd102 O106 2.352 . S
Cd102 O110 2.277 1_455 S
Cd102 O111 2.356 . S
C103 O108 1.209 . S
C103 O110 1.226 . S
O104 Cd100 2.273 . S
O104 Cd102 2.411 1_655 S
O104 C107 1.320 . S
O105 Cd102 2.333 1_655 S
O105 C107 1.214 . S
O106 Cd102 2.352 . S
O106 C109 1.258 . S
C107 O104 1.320 . S
C107 O105 1.214 . S
O108 Cd100 2.277 . S
O108 C103 1.209 . S
C109 O106 1.258 . S
C109 O111 1.282 . S
O110 Cd102 2.277 1_655 S
O110 C103 1.226 . S
O111 Cd102 2.356 . S
O111 C109 1.282 . S
C112 O113 1.306 . S
C112 O115 1.160 1_565 S
O113 C112 1.306 . S
O113 Cd114 2.228 . S
Cd114 O113 2.228 . S
Cd114 O118 2.273 . S
Cd114 O122 2.277 1_565 S
O115 C112 1.160 1_545 S
O115 Cd116 2.203 . S
Cd116 O115 2.203 . S
Cd116 O118 2.411 1_545 S
Cd116 O119 2.333 . S
Cd116 O120 2.352 . S
Cd116 O124 2.277 . S
Cd116 O125 2.356 . S
C117 O122 1.209 . S
C117 O124 1.226 . S
O118 Cd114 2.273 . S
O118 Cd116 2.411 1_565 S
O118 C121 1.320 . S
O119 Cd116 2.333 . S
O119 C121 1.214 1_545 S
O120 Cd116 2.352 . S
O120 C123 1.258 . S
C121 O118 1.320 . S
C121 O119 1.214 1_565 S
O122 Cd114 2.277 1_545 S
O122 C117 1.209 . S
C123 O120 1.258 . S
C123 O125 1.282 . S
O124 Cd116 2.277 . S
O124 C117 1.226 . S
O125 Cd116 2.356 . S
O125 C123 1.282 . S
C126 O127 1.306 . S
C126 O129 1.160 . S
O127 C126 1.306 . S
O127 Cd128 2.228 . S
Cd128 O127 2.228 . S
Cd128 O132 2.273 . S
Cd128 O136 2.277 . S
O129 C126 1.160 . S
O129 Cd130 2.203 . S
Cd130 O129 2.203 . S
Cd130 O132 2.411 . S
Cd130 O133 2.333 . S
Cd130 O134 2.352 . S
Cd130 O138 2.277 . S
Cd130 O139 2.356 . S
C131 O136 1.209 . S
C131 O138 1.226 . S
O132 Cd128 2.273 . S
O132 Cd130 2.411 . S
O132 C135 1.320 . S
O133 Cd130 2.333 . S
O133 C135 1.214 . S
O134 Cd130 2.352 . S
O134 C137 1.258 . S
C135 O132 1.320 . S
C135 O133 1.214 . S
O136 Cd128 2.277 . S
O136 C131 1.209 . S
C137 O134 1.258 . S
C137 O139 1.282 . S
O138 Cd130 2.277 . S
O138 C131 1.226 . S
O139 Cd130 2.356 . S
O139 C137 1.282 . S
C140 O141 1.306 . S
C140 O143 1.160 . S
O141 C140 1.306 . S
O141 Cd142 2.228 . S
Cd142 O141 2.228 . S
Cd142 O146 2.273 . S
Cd142 O150 2.277 . S
O143 C140 1.160 . S
O143 Cd144 2.203 1_565 S
Cd144 O143 2.203 1_545 S
Cd144 O146 2.411 1_545 S
Cd144 O147 2.333 . S
Cd144 O148 2.352 . S
Cd144 O152 2.277 . S
Cd144 O153 2.356 . S
C145 O150 1.209 1_545 S
C145 O152 1.226 . S
O146 Cd142 2.273 . S
O146 Cd144 2.411 1_565 S
O146 C149 1.320 . S
O147 Cd144 2.333 . S
O147 C149 1.214 1_545 S
O148 Cd144 2.352 . S
O148 C151 1.258 . S
C149 O146 1.320 . S
C149 O147 1.214 1_565 S
O150 Cd142 2.277 . S
O150 C145 1.209 1_565 S
C151 O148 1.258 . S
C151 O153 1.282 . S
O152 Cd144 2.277 . S
O152 C145 1.226 . S
O153 Cd144 2.356 . S
O153 C151 1.282 . S
C154 O155 1.306 . S
C154 O157 1.160 . S
O155 C154 1.306 . S
O155 Cd156 2.228 1_554 S
Cd156 O155 2.228 1_556 S
Cd156 O160 2.273 . S
Cd156 O164 2.277 . S
O157 C154 1.160 . S
O157 Cd158 2.203 . S
Cd158 O157 2.203 . S
Cd158 O160 2.411 1_554 S
Cd158 O161 2.333 1_554 S
Cd158 O162 2.352 . S
Cd158 O166 2.277 1_554 S
Cd158 O167 2.356 . S
C159 O164 1.209 . S
C159 O166 1.226 . S
O160 Cd156 2.273 . S
O160 Cd158 2.411 1_556 S
O160 C163 1.320 . S
O161 Cd158 2.333 1_556 S
O161 C163 1.214 . S
O162 Cd158 2.352 . S
O162 C165 1.258 . S
C163 O160 1.320 . S
C163 O161 1.214 . S
O164 Cd156 2.277 . S
O164 C159 1.209 . S
C165 O162 1.258 . S
C165 O167 1.282 . S
O166 Cd158 2.277 1_556 S
O166 C159 1.226 . S
O167 Cd158 2.356 . S
O167 C165 1.282 . S
C168 O169 1.306 . S
C168 O171 1.160 . S
O169 C168 1.306 . S
O169 Cd170 2.228 . S
Cd170 O169 2.228 . S
Cd170 O174 2.273 . S
Cd170 O178 2.277 . S
O171 C168 1.160 . S
O171 Cd172 2.203 1_554 S
Cd172 O171 2.203 1_556 S
Cd172 O174 2.411 1_556 S
Cd172 O175 2.334 . S
Cd172 O176 2.345 1_556 S
Cd172 O180 2.277 . S
Cd172 O181 2.356 . S
C173 O178 1.209 1_556 S
C173 O180 1.226 . S
O174 Cd170 2.273 . S
O174 Cd172 2.411 1_554 S
O174 C177 1.320 . S
O175 Cd172 2.334 . S
O175 C177 1.198 1_556 S
O176 Cd172 2.345 1_554 S
O176 C179 1.207 1_554 S
C177 O174 1.320 . S
C177 O175 1.198 1_554 S
O178 Cd170 2.277 . S
O178 C173 1.209 1_554 S
C179 O176 1.207 1_556 S
C179 O181 1.282 . S
O180 Cd172 2.277 . S
O180 C173 1.226 . S
O181 Cd172 2.356 . S
O181 C179 1.282 . S
C182 O183 1.306 . S
C182 O185 1.160 . S
O183 C182 1.306 . S
O183 Cd184 2.228 . S
Cd184 O183 2.228 . S
Cd184 O188 2.273 . S
Cd184 O192 2.277 . S
O185 C182 1.160 . S
O185 Cd186 2.203 1_554 S
Cd186 O185 2.203 1_556 S
Cd186 O188 2.411 1_556 S
Cd186 O189 2.333 . S
Cd186 O190 2.360 . S
Cd186 O194 2.277 . S
Cd186 O195 2.356 . S
C187 O192 1.209 1_556 S
C187 O194 1.226 . S
O188 Cd184 2.273 . S
O188 Cd186 2.411 1_554 S
O188 C191 1.320 . S
O189 Cd186 2.333 . S
O189 C191 1.214 1_556 S
O190 Cd186 2.360 . S
O190 C193 1.312 . S
C191 O188 1.320 . S
C191 O189 1.214 1_554 S
O192 Cd184 2.277 . S
O192 C187 1.209 1_554 S
C193 O190 1.312 . S
C193 O195 1.282 . S
O194 Cd186 2.277 . S
O194 C187 1.226 . S
O195 Cd186 2.356 . S
O195 C193 1.282 . S
C196 O197 1.306 . S
C196 O199 1.160 . S
O197 C196 1.306 . S
O197 Cd198 2.228 . S
Cd198 O197 2.228 . S
Cd198 O202 2.273 . S
Cd198 O206 2.277 . S
O199 C196 1.160 . S
O199 Cd200 2.203 . S
Cd200 O199 2.203 . S
Cd200 O202 2.411 . S
Cd200 O203 2.333 . S
Cd200 O204 2.352 . S
Cd200 O208 2.277 . S
Cd200 O209 2.356 . S
C201 O206 1.209 . S
C201 O208 1.226 . S
O202 Cd198 2.273 . S
O202 Cd200 2.411 . S
O202 C205 1.320 . S
O203 Cd200 2.333 . S
O203 C205 1.214 . S
O204 Cd200 2.352 . S
O204 C207 1.258 . S
C205 O202 1.320 . S
C205 O203 1.214 . S
O206 Cd198 2.277 . S
O206 C201 1.209 . S
C207 O204 1.258 . S
C207 O209 1.282 . S
O208 Cd200 2.277 . S
O208 C201 1.226 . S
O209 Cd200 2.356 . S
O209 C207 1.282 . S
C210 O211 1.306 . S
C210 O213 1.160 . S
O211 C210 1.306 . S
O211 Cd212 2.228 . S
Cd212 O211 2.228 . S
Cd212 O216 2.273 . S
Cd212 O220 2.277 . S
O213 C210 1.160 . S
O213 Cd214 2.203 . S
Cd214 O213 2.203 . S
Cd214 O216 2.411 . S
Cd214 O217 2.333 . S
Cd214 O218 2.352 . S
Cd214 O222 2.277 . S
Cd214 O223 2.356 . S
C215 O220 1.209 . S
C215 O222 1.226 . S
O216 Cd212 2.273 . S
O216 Cd214 2.411 . S
O216 C219 1.320 . S
O217 Cd214 2.333 . S
O217 C219 1.214 . S
O218 Cd214 2.352 . S
O218 C221 1.258 . S
C219 O216 1.320 . S
C219 O217 1.214 . S
O220 Cd212 2.277 . S
O220 C215 1.209 . S
C221 O218 1.258 . S
C221 O223 1.282 . S
O222 Cd214 2.277 . S
O222 C215 1.226 . S
O223 Cd214 2.356 . S
O223 C221 1.282 . S
C224 O225 1.306 . S
C224 O227 1.160 . S
O225 C224 1.306 . S
O225 Cd226 2.228 1_545 S
Cd226 O225 2.228 1_565 S
Cd226 O230 2.273 . S
Cd226 O234 2.277 . S
O227 C224 1.160 . S
O227 Cd228 2.203 . S
Cd228 O227 2.203 . S
Cd228 O230 2.411 1_545 S
Cd228 O231 2.333 1_545 S
Cd228 O232 2.352 . S
Cd228 O236 2.277 1_545 S
Cd228 O237 2.356 . S
C229 O234 1.209 . S
C229 O236 1.226 . S
O230 Cd226 2.273 . S
O230 Cd228 2.411 1_565 S
O230 C233 1.320 . S
O231 Cd228 2.333 1_565 S
O231 C233 1.214 . S
O232 Cd228 2.352 . S
O232 C235 1.258 . S
C233 O230 1.320 . S
C233 O231 1.214 . S
O234 Cd226 2.277 . S
O234 C229 1.209 . S
C235 O232 1.258 . S
C235 O237 1.282 . S
O236 Cd228 2.277 1_565 S
O236 C229 1.226 . S
O237 Cd228 2.356 . S
O237 C235 1.282 . S
C238 O239 1.306 . S
C238 O241 1.160 . S
O239 C238 1.306 . S
O239 Cd240 2.228 . S
Cd240 O239 2.228 . S
Cd240 O244 2.273 . S
Cd240 O248 2.277 . S
O241 C238 1.160 . S
O241 Cd242 2.203 . S
Cd242 O241 2.203 . S
Cd242 O244 2.411 . S
Cd242 O245 2.333 . S
Cd242 O246 2.352 . S
Cd242 O250 2.277 . S
Cd242 O251 2.356 . S
C243 O248 1.209 . S
C243 O250 1.226 . S
O244 Cd240 2.273 . S
O244 Cd242 2.411 . S
O244 C247 1.320 . S
O245 Cd242 2.333 . S
O245 C247 1.214 . S
O246 Cd242 2.352 . S
O246 C249 1.258 . S
C247 O244 1.320 . S
C247 O245 1.214 . S
O248 Cd240 2.277 . S
O248 C243 1.209 . S
C249 O246 1.258 . S
C249 O251 1.282 . S
O250 Cd242 2.277 . S
O250 C243 1.226 . S
O251 Cd242 2.356 . S
O251 C249 1.282 . S
C252 O253 1.306 . S
C252 O255 1.160 . S
O253 C252 1.306 . S
O253 Cd254 2.228 . S
Cd254 O253 2.228 . S
Cd254 O258 2.273 . S
Cd254 O262 2.277 . S
O255 C252 1.160 . S
O255 Cd256 2.203 . S
Cd256 O255 2.203 . S
Cd256 O258 2.411 . S
Cd256 O259 2.333 . S
Cd256 O260 2.352 . S
Cd256 O264 2.277 . S
Cd256 O265 2.356 . S
C257 O262 1.209 . S
C257 O264 1.226 . S
O258 Cd254 2.273 . S
O258 Cd256 2.411 . S
O258 C261 1.320 . S
O259 Cd256 2.333 . S
O259 C261 1.214 . S
O260 Cd256 2.352 . S
O260 C263 1.258 . S
C261 O258 1.320 . S
C261 O259 1.214 . S
O262 Cd254 2.277 . S
O262 C257 1.209 . S
C263 O260 1.258 . S
C263 O265 1.282 . S
O264 Cd256 2.277 . S
O264 C257 1.226 . S
O265 Cd256 2.356 . S
O265 C263 1.282 . S
C266 O267 1.306 . S
C266 O269 1.160 . S
O267 C266 1.306 . S
O267 Cd268 2.228 1_545 S
Cd268 O267 2.228 1_565 S
Cd268 O272 2.273 . S
Cd268 O276 2.277 . S
O269 C266 1.160 . S
O269 Cd270 2.203 . S
Cd270 O269 2.203 . S
Cd270 O272 2.411 1_545 S
Cd270 O273 2.333 1_545 S
Cd270 O274 2.352 . S
Cd270 O278 2.277 1_545 S
Cd270 O279 2.356 . S
C271 O276 1.209 . S
C271 O278 1.226 . S
O272 Cd268 2.273 . S
O272 Cd270 2.411 1_565 S
O272 C275 1.320 . S
O273 Cd270 2.333 1_565 S
O273 C275 1.214 . S
O274 Cd270 2.352 . S
O274 C277 1.258 . S
C275 O272 1.320 . S
C275 O273 1.214 . S
O276 Cd268 2.277 . S
O276 C271 1.209 . S
C277 O274 1.258 . S
C277 O279 1.282 . S
O278 Cd270 2.277 1_565 S
O278 C271 1.226 . S
O279 Cd270 2.356 . S
O279 C277 1.282 . S
C280 O281 1.306 . S
C280 O283 1.160 . S
O281 C280 1.306 . S
O281 Cd282 2.228 1_554 S
Cd282 O281 2.228 1_556 S
Cd282 O286 2.273 . S
Cd282 O290 2.277 . S
O283 C280 1.160 . S
O283 Cd284 2.203 . S
Cd284 O283 2.203 . S
Cd284 O286 2.411 1_554 S
Cd284 O287 2.333 1_554 S
Cd284 O288 2.352 . S
Cd284 O292 2.277 1_554 S
Cd284 O293 2.356 . S
C285 O290 1.209 . S
C285 O292 1.226 . S
O286 Cd282 2.273 . S
O286 Cd284 2.411 1_556 S
O286 C289 1.320 . S
O287 Cd284 2.333 1_556 S
O287 C289 1.214 . S
O288 Cd284 2.352 . S
O288 C291 1.258 . S
C289 O286 1.320 . S
C289 O287 1.214 . S
O290 Cd282 2.277 . S
O290 C285 1.209 . S
C291 O288 1.258 . S
C291 O293 1.282 . S
O292 Cd284 2.277 1_556 S
O292 C285 1.226 . S
O293 Cd284 2.356 . S
O293 C291 1.282 . S
C294 O295 1.306 . S
C294 O297 1.160 . S
O295 C294 1.306 . S
O295 Cd296 2.228 . S
Cd296 O295 2.228 . S
Cd296 O300 2.273 . S
Cd296 O304 2.277 . S
O297 C294 1.160 . S
O297 Cd298 2.203 . S
Cd298 O297 2.203 . S
Cd298 O300 2.411 . S
Cd298 O301 2.333 . S
Cd298 O302 2.352 . S
Cd298 O306 2.277 . S
Cd298 O307 2.356 . S
C299 O304 1.209 . S
C299 O306 1.226 . S
O300 Cd296 2.273 . S
O300 Cd298 2.411 . S
O300 C303 1.320 . S
O301 Cd298 2.333 . S
O301 C303 1.214 . S
O302 Cd298 2.352 . S
O302 C305 1.258 . S
C303 O300 1.320 . S
C303 O301 1.214 . S
O304 Cd296 2.277 . S
O304 C299 1.209 . S
C305 O302 1.258 . S
C305 O307 1.282 . S
O306 Cd298 2.277 . S
O306 C299 1.226 . S
O307 Cd298 2.356 . S
O307 C305 1.282 . S
C308 O309 1.306 . S
C308 O311 1.160 . S
O309 C308 1.306 . S
O309 Cd310 2.228 . S
Cd310 O309 2.228 . S
Cd310 O314 2.273 . S
Cd310 O318 2.277 . S
O311 C308 1.160 . S
O311 Cd312 2.203 . S
Cd312 O311 2.203 . S
Cd312 O314 2.411 . S
Cd312 O315 2.333 . S
Cd312 O316 2.352 . S
Cd312 O320 2.277 . S
Cd312 O321 2.356 . S
C313 O318 1.209 . S
C313 O320 1.226 . S
O314 Cd310 2.273 . S
O314 Cd312 2.411 . S
O314 C317 1.320 . S
O315 Cd312 2.333 . S
O315 C317 1.214 . S
O316 Cd312 2.352 . S
O316 C319 1.258 . S
C317 O314 1.320 . S
C317 O315 1.214 . S
O318 Cd310 2.277 . S
O318 C313 1.209 . S
C319 O316 1.258 . S
C319 O321 1.282 . S
O320 Cd312 2.277 . S
O320 C313 1.226 . S
O321 Cd312 2.356 . S
O321 C319 1.282 . S
C322 O323 1.306 . S
C322 O325 1.160 . S
O323 C322 1.306 . S
O323 Cd324 2.228 . S
Cd324 O323 2.228 . S
Cd324 O328 2.273 . S
Cd324 O332 2.277 . S
O325 C322 1.160 . S
O325 Cd326 2.203 . S
Cd326 O325 2.203 . S
Cd326 O328 2.411 . S
Cd326 O329 2.333 . S
Cd326 O330 2.352 . S
Cd326 O334 2.277 . S
Cd326 O335 2.356 . S
C327 O332 1.209 . S
C327 O334 1.226 . S
O328 Cd324 2.273 . S
O328 Cd326 2.411 . S
O328 C331 1.320 . S
O329 Cd326 2.333 . S
O329 C331 1.214 . S
O330 Cd326 2.352 . S
O330 C333 1.258 . S
C331 O328 1.320 . S
C331 O329 1.214 . S
O332 Cd324 2.277 . S
O332 C327 1.209 . S
C333 O330 1.258 . S
C333 O335 1.282 . S
O334 Cd326 2.277 . S
O334 C327 1.226 . S
O335 Cd326 2.356 . S
O335 C333 1.282 . S
Sc336 O339 2.025 . S
Sc336 O346 2.105 . S
Sc336 O349 2.105 . S
Sc336 O352 2.105 . S
Sc336 O355 2.105 . S
Sc337 O339 2.025 . S
Sc337 O347 2.105 . S
Sc337 O351 2.105 . S
Sc337 O353 2.105 . S
Sc337 O357 2.105 . S
Sc338 O339 2.025 . S
Sc338 O348 2.105 . S
Sc338 O350 2.105 . S
Sc338 O354 2.105 . S
Sc338 O356 2.105 . S
O339 Sc336 2.025 . S
O339 Sc337 2.025 . S
O339 Sc338 2.025 . S
C340 O346 1.268 . S
C340 O356 1.268 . S
C341 O347 1.268 . S
C341 O355 1.268 . S
C342 O348 1.268 . S
C342 O357 1.268 . S
C343 O349 1.268 . S
C343 O353 1.268 . S
C344 O350 1.268 . S
C344 O352 1.268 . S
C345 O351 1.268 . S
C345 O354 1.268 . S
O346 Sc336 2.105 . S
O346 C340 1.268 . S
O347 Sc337 2.105 . S
O347 C341 1.268 . S
O348 Sc338 2.105 . S
O348 C342 1.268 . S
O349 Sc336 2.105 . S
O349 C343 1.268 . S
O350 Sc338 2.105 . S
O350 C344 1.268 . S
O351 Sc337 2.105 . S
O351 C345 1.268 . S
O352 Sc336 2.105 . S
O352 C344 1.268 . S
O353 Sc337 2.105 . S
O353 C343 1.268 . S
O354 Sc338 2.105 . S
O354 C345 1.268 . S
O355 Sc336 2.105 . S
O355 C341 1.268 . S
O356 Sc338 2.105 . S
O356 C340 1.268 . S
O357 Sc337 2.105 . S
O357 C342 1.268 . S
Sc358 O361 2.025 . S
Sc358 O368 2.105 . S
Sc358 O371 2.105 . S
Sc358 O374 2.105 . S
Sc358 O377 2.105 . S
Sc359 O361 2.025 . S
Sc359 O369 2.105 . S
Sc359 O373 2.105 . S
Sc359 O375 2.105 . S
Sc359 O379 2.105 . S
Sc360 O361 2.025 . S
Sc360 O370 2.105 . S
Sc360 O372 2.105 . S
Sc360 O376 2.105 . S
Sc360 O378 2.105 . S
O361 Sc358 2.025 . S
O361 Sc359 2.025 . S
O361 Sc360 2.025 . S
C362 O368 1.268 . S
C362 O378 1.268 . S
C363 O369 1.268 . S
C363 O377 1.268 . S
C364 O370 1.268 . S
C364 O379 1.268 . S
C365 O371 1.268 . S
C365 O375 1.268 . S
C366 O372 1.268 . S
C366 O374 1.268 . S
C367 O373 1.268 . S
C367 O376 1.268 . S
O368 Sc358 2.105 . S
O368 C362 1.268 . S
O369 Sc359 2.105 . S
O369 C363 1.268 . S
O370 Sc360 2.105 . S
O370 C364 1.268 . S
O371 Sc358 2.105 . S
O371 C365 1.268 . S
O372 Sc360 2.105 . S
O372 C366 1.268 . S
O373 Sc359 2.105 . S
O373 C367 1.268 . S
O374 Sc358 2.105 . S
O374 C366 1.268 . S
O375 Sc359 2.105 . S
O375 C365 1.268 . S
O376 Sc360 2.105 . S
O376 C367 1.268 . S
O377 Sc358 2.105 . S
O377 C363 1.268 . S
O378 Sc360 2.105 . S
O378 C362 1.268 . S
O379 Sc359 2.105 . S
O379 C364 1.268 . S
Sc380 O383 2.025 . S
Sc380 O390 2.105 . S
Sc380 O393 2.105 . S
Sc380 O396 2.105 . S
Sc380 O399 2.105 . S
Sc381 O383 2.025 . S
Sc381 O391 2.105 . S
Sc381 O395 2.105 . S
Sc381 O397 2.105 . S
Sc381 O401 2.105 . S
Sc382 O383 2.025 . S
Sc382 O392 2.105 . S
Sc382 O394 2.105 . S
Sc382 O398 2.105 . S
Sc382 O400 2.105 . S
O383 Sc380 2.025 . S
O383 Sc381 2.025 . S
O383 Sc382 2.025 . S
C384 O390 1.268 . S
C384 O400 1.268 . S
C385 O391 1.268 . S
C385 O399 1.268 . S
C386 O392 1.268 . S
C386 O401 1.268 . S
C387 O393 1.268 . S
C387 O397 1.268 . S
C388 O394 1.268 . S
C388 O396 1.268 . S
C389 O395 1.268 . S
C389 O398 1.268 . S
O390 Sc380 2.105 . S
O390 C384 1.268 . S
O391 Sc381 2.105 . S
O391 C385 1.268 . S
O392 Sc382 2.105 . S
O392 C386 1.268 . S
O393 Sc380 2.105 . S
O393 C387 1.268 . S
O394 Sc382 2.105 . S
O394 C388 1.268 . S
O395 Sc381 2.105 . S
O395 C389 1.268 . S
O396 Sc380 2.105 . S
O396 C388 1.268 . S
O397 Sc381 2.105 . S
O397 C387 1.268 . S
O398 Sc382 2.105 . S
O398 C389 1.268 . S
O399 Sc380 2.105 . S
O399 C385 1.268 . S
O400 Sc382 2.105 . S
O400 C384 1.268 . S
O401 Sc381 2.105 . S
O401 C386 1.268 . S
Sc402 O405 2.025 . S
Sc402 O412 2.105 . S
Sc402 O415 2.105 . S
Sc402 O418 2.105 . S
Sc402 O421 2.105 . S
Sc403 O405 2.025 . S
Sc403 O413 2.105 . S
Sc403 O417 2.105 . S
Sc403 O419 2.105 . S
Sc403 O423 2.105 . S
Sc404 O405 2.025 . S
Sc404 O414 2.105 . S
Sc404 O416 2.105 . S
Sc404 O420 2.105 . S
Sc404 O422 2.105 . S
O405 Sc402 2.025 . S
O405 Sc403 2.025 . S
O405 Sc404 2.025 . S
C406 O412 1.268 . S
C406 O422 1.268 . S
C407 O413 1.268 . S
C407 O421 1.268 . S
C408 O414 1.268 . S
C408 O423 1.268 . S
C409 O415 1.268 . S
C409 O419 1.268 . S
C410 O416 1.268 . S
C410 O418 1.268 . S
C411 O417 1.268 . S
C411 O420 1.268 . S
O412 Sc402 2.105 . S
O412 C406 1.268 . S
O413 Sc403 2.105 . S
O413 C407 1.268 . S
O414 Sc404 2.105 . S
O414 C408 1.268 . S
O415 Sc402 2.105 . S
O415 C409 1.268 . S
O416 Sc404 2.105 . S
O416 C410 1.268 . S
O417 Sc403 2.105 . S
O417 C411 1.268 . S
O418 Sc402 2.105 . S
O418 C410 1.268 . S
O419 Sc403 2.105 . S
O419 C409 1.268 . S
O420 Sc404 2.105 . S
O420 C411 1.268 . S
O421 Sc402 2.105 . S
O421 C407 1.268 . S
O422 Sc404 2.105 . S
O422 C406 1.268 . S
O423 Sc403 2.105 . S
O423 C408 1.268 . S
Sc424 O427 2.025 . S
Sc424 O434 2.105 . S
Sc424 O437 2.105 . S
Sc424 O440 2.105 . S
Sc424 O443 2.105 . S
Sc425 O427 2.025 . S
Sc425 O435 2.105 . S
Sc425 O439 2.105 . S
Sc425 O441 2.105 . S
Sc425 O445 2.105 . S
Sc426 O427 2.025 . S
Sc426 O436 2.105 . S
Sc426 O438 2.105 . S
Sc426 O442 2.105 . S
Sc426 O444 2.105 . S
O427 Sc424 2.025 . S
O427 Sc425 2.025 . S
O427 Sc426 2.025 . S
C428 O434 1.268 . S
C428 O444 1.268 . S
C429 O435 1.268 . S
C429 O443 1.268 . S
C430 O436 1.268 . S
C430 O445 1.268 . S
C431 O437 1.268 . S
C431 O441 1.268 . S
C432 O438 1.268 . S
C432 O440 1.268 . S
C433 O439 1.268 . S
C433 O442 1.268 . S
O434 Sc424 2.105 . S
O434 C428 1.268 . S
O435 Sc425 2.105 . S
O435 C429 1.268 . S
O436 Sc426 2.105 . S
O436 C430 1.268 . S
O437 Sc424 2.105 . S
O437 C431 1.268 . S
O438 Sc426 2.105 . S
O438 C432 1.268 . S
O439 Sc425 2.105 . S
O439 C433 1.268 . S
O440 Sc424 2.105 . S
O440 C432 1.268 . S
O441 Sc425 2.105 . S
O441 C431 1.268 . S
O442 Sc426 2.105 . S
O442 C433 1.268 . S
O443 Sc424 2.105 . S
O443 C429 1.268 . S
O444 Sc426 2.105 . S
O444 C428 1.268 . S
O445 Sc425 2.105 . S
O445 C430 1.268 . S
Sc446 O449 2.025 . S
Sc446 O456 2.105 . S
Sc446 O459 2.105 . S
Sc446 O462 2.105 . S
Sc446 O465 2.105 . S
Sc447 O449 2.025 . S
Sc447 O457 2.105 . S
Sc447 O461 2.105 . S
Sc447 O463 2.105 . S
Sc447 O467 2.105 . S
Sc448 O449 2.025 . S
Sc448 O458 2.105 . S
Sc448 O460 2.105 . S
Sc448 O464 2.105 . S
Sc448 O466 2.105 . S
O449 Sc446 2.025 . S
O449 Sc447 2.025 . S
O449 Sc448 2.025 . S
C450 O456 1.268 . S
C450 O466 1.268 . S
C451 O457 1.268 . S
C451 O465 1.268 . S
C452 O458 1.268 . S
C452 O467 1.268 . S
C453 O459 1.268 . S
C453 O463 1.268 . S
C454 O460 1.268 . S
C454 O462 1.268 . S
C455 O461 1.268 . S
C455 O464 1.268 . S
O456 Sc446 2.105 . S
O456 C450 1.268 . S
O457 Sc447 2.105 . S
O457 C451 1.268 . S
O458 Sc448 2.105 . S
O458 C452 1.268 . S
O459 Sc446 2.105 . S
O459 C453 1.268 . S
O460 Sc448 2.105 . S
O460 C454 1.268 . S
O461 Sc447 2.105 . S
O461 C455 1.268 . S
O462 Sc446 2.105 . S
O462 C454 1.268 . S
O463 Sc447 2.105 . S
O463 C453 1.268 . S
O464 Sc448 2.105 . S
O464 C455 1.268 . S
O465 Sc446 2.105 . S
O465 C451 1.268 . S
O466 Sc448 2.105 . S
O466 C450 1.268 . S
O467 Sc447 2.105 . S
O467 C452 1.268 . S
Sc468 O471 2.025 . S
Sc468 O478 2.105 . S
Sc468 O481 2.105 . S
Sc468 O484 2.105 . S
Sc468 O487 2.105 . S
Sc469 O471 2.025 . S
Sc469 O479 2.105 . S
Sc469 O483 2.105 . S
Sc469 O485 2.105 . S
Sc469 O489 2.105 . S
Sc470 O471 2.025 . S
Sc470 O480 2.105 . S
Sc470 O482 2.105 . S
Sc470 O486 2.105 . S
Sc470 O488 2.105 . S
O471 Sc468 2.025 . S
O471 Sc469 2.025 . S
O471 Sc470 2.025 . S
C472 O478 1.268 . S
C472 O488 1.268 . S
C473 O479 1.268 . S
C473 O487 1.268 . S
C474 O480 1.268 . S
C474 O489 1.268 . S
C475 O481 1.268 . S
C475 O485 1.268 . S
C476 O482 1.268 . S
C476 O484 1.268 . S
C477 O483 1.268 . S
C477 O486 1.268 . S
O478 Sc468 2.105 . S
O478 C472 1.268 . S
O479 Sc469 2.105 . S
O479 C473 1.268 . S
O480 Sc470 2.105 . S
O480 C474 1.268 . S
O481 Sc468 2.105 . S
O481 C475 1.268 . S
O482 Sc470 2.105 . S
O482 C476 1.268 . S
O483 Sc469 2.105 . S
O483 C477 1.268 . S
O484 Sc468 2.105 . S
O484 C476 1.268 . S
O485 Sc469 2.105 . S
O485 C475 1.268 . S
O486 Sc470 2.105 . S
O486 C477 1.268 . S
O487 Sc468 2.105 . S
O487 C473 1.268 . S
O488 Sc470 2.105 . S
O488 C472 1.268 . S
O489 Sc469 2.105 . S
O489 C474 1.268 . S
Sc490 O493 2.025 . S
Sc490 O500 2.105 . S
Sc490 O503 2.105 . S
Sc490 O506 2.105 . S
Sc490 O509 2.105 . S
Sc491 O493 2.025 . S
Sc491 O501 2.105 . S
Sc491 O505 2.105 . S
Sc491 O507 2.105 . S
Sc491 O511 2.105 . S
Sc492 O493 2.025 . S
Sc492 O502 2.105 . S
Sc492 O504 2.105 . S
Sc492 O508 2.105 . S
Sc492 O510 2.105 . S
O493 Sc490 2.025 . S
O493 Sc491 2.025 . S
O493 Sc492 2.025 . S
C494 O500 1.268 . S
C494 O510 1.268 . S
C495 O501 1.268 . S
C495 O509 1.268 . S
C496 O502 1.268 . S
C496 O511 1.268 . S
C497 O503 1.268 . S
C497 O507 1.268 . S
C498 O504 1.268 . S
C498 O506 1.268 . S
C499 O505 1.268 . S
C499 O508 1.268 . S
O500 Sc490 2.105 . S
O500 C494 1.268 . S
O501 Sc491 2.105 . S
O501 C495 1.268 . S
O502 Sc492 2.105 . S
O502 C496 1.268 . S
O503 Sc490 2.105 . S
O503 C497 1.268 . S
O504 Sc492 2.105 . S
O504 C498 1.268 . S
O505 Sc491 2.105 . S
O505 C499 1.268 . S
O506 Sc490 2.105 . S
O506 C498 1.268 . S
O507 Sc491 2.105 . S
O507 C497 1.268 . S
O508 Sc492 2.105 . S
O508 C499 1.268 . S
O509 Sc490 2.105 . S
O509 C495 1.268 . S
O510 Sc492 2.105 . S
O510 C494 1.268 . S
O511 Sc491 2.105 . S
O511 C496 1.268 . S
Sc512 O515 2.025 . S
Sc512 O522 2.105 . S
Sc512 O525 2.105 . S
Sc512 O528 2.105 . S
Sc512 O531 2.105 . S
Sc513 O515 2.025 . S
Sc513 O523 2.105 . S
Sc513 O527 2.105 . S
Sc513 O529 2.105 . S
Sc513 O533 2.105 . S
Sc514 O515 2.025 . S
Sc514 O524 2.105 . S
Sc514 O526 2.105 . S
Sc514 O530 2.105 . S
Sc514 O532 2.105 . S
O515 Sc512 2.025 . S
O515 Sc513 2.025 . S
O515 Sc514 2.025 . S
C516 O522 1.268 . S
C516 O532 1.268 . S
C517 O523 1.268 . S
C517 O531 1.268 . S
C518 O524 1.268 . S
C518 O533 1.268 . S
C519 O525 1.268 . S
C519 O529 1.268 . S
C520 O526 1.268 . S
C520 O528 1.268 . S
C521 O527 1.268 . S
C521 O530 1.268 . S
O522 Sc512 2.105 . S
O522 C516 1.268 . S
O523 Sc513 2.105 . S
O523 C517 1.268 . S
O524 Sc514 2.105 . S
O524 C518 1.268 . S
O525 Sc512 2.105 . S
O525 C519 1.268 . S
O526 Sc514 2.105 . S
O526 C520 1.268 . S
O527 Sc513 2.105 . S
O527 C521 1.268 . S
O528 Sc512 2.105 . S
O528 C520 1.268 . S
O529 Sc513 2.105 . S
O529 C519 1.268 . S
O530 Sc514 2.105 . S
O530 C521 1.268 . S
O531 Sc512 2.105 . S
O531 C517 1.268 . S
O532 Sc514 2.105 . S
O532 C516 1.268 . S
O533 Sc513 2.105 . S
O533 C518 1.268 . S
Sc534 O537 2.025 . S
Sc534 O544 2.105 . S
Sc534 O547 2.105 . S
Sc534 O550 2.105 . S
Sc534 O553 2.105 . S
Sc535 O537 2.025 . S
Sc535 O545 2.105 . S
Sc535 O549 2.105 . S
Sc535 O551 2.105 . S
Sc535 O555 2.105 . S
Sc536 O537 2.025 . S
Sc536 O546 2.105 . S
Sc536 O548 2.105 . S
Sc536 O552 2.105 . S
Sc536 O554 2.105 . S
O537 Sc534 2.025 . S
O537 Sc535 2.025 . S
O537 Sc536 2.025 . S
C538 O544 1.268 . S
C538 O554 1.268 . S
C539 O545 1.268 . S
C539 O553 1.268 . S
C540 O546 1.268 . S
C540 O555 1.268 . S
C541 O547 1.268 . S
C541 O551 1.268 . S
C542 O548 1.268 . S
C542 O550 1.268 . S
C543 O549 1.268 . S
C543 O552 1.268 . S
O544 Sc534 2.105 . S
O544 C538 1.268 . S
O545 Sc535 2.105 . S
O545 C539 1.268 . S
O546 Sc536 2.105 . S
O546 C540 1.268 . S
O547 Sc534 2.105 . S
O547 C541 1.268 . S
O548 Sc536 2.105 . S
O548 C542 1.268 . S
O549 Sc535 2.105 . S
O549 C543 1.268 . S
O550 Sc534 2.105 . S
O550 C542 1.268 . S
O551 Sc535 2.105 . S
O551 C541 1.268 . S
O552 Sc536 2.105 . S
O552 C543 1.268 . S
O553 Sc534 2.105 . S
O553 C539 1.268 . S
O554 Sc536 2.105 . S
O554 C538 1.268 . S
O555 Sc535 2.105 . S
O555 C540 1.268 . S
Sc556 O559 2.025 . S
Sc556 O566 2.105 . S
Sc556 O569 2.105 . S
Sc556 O572 2.105 . S
Sc556 O575 2.105 . S
Sc557 O559 2.025 . S
Sc557 O567 2.105 . S
Sc557 O571 2.105 . S
Sc557 O573 2.105 . S
Sc557 O577 2.105 . S
Sc558 O559 2.025 . S
Sc558 O568 2.105 . S
Sc558 O570 2.105 . S
Sc558 O574 2.105 . S
Sc558 O576 2.105 . S
O559 Sc556 2.025 . S
O559 Sc557 2.025 . S
O559 Sc558 2.025 . S
C560 O566 1.268 . S
C560 O576 1.268 . S
C561 O567 1.268 . S
C561 O575 1.268 . S
C562 O568 1.268 . S
C562 O577 1.268 . S
C563 O569 1.268 . S
C563 O573 1.268 . S
C564 O570 1.268 . S
C564 O572 1.268 . S
C565 O571 1.268 . S
C565 O574 1.268 . S
O566 Sc556 2.105 . S
O566 C560 1.268 . S
O567 Sc557 2.105 . S
O567 C561 1.268 . S
O568 Sc558 2.105 . S
O568 C562 1.268 . S
O569 Sc556 2.105 . S
O569 C563 1.268 . S
O570 Sc558 2.105 . S
O570 C564 1.268 . S
O571 Sc557 2.105 . S
O571 C565 1.268 . S
O572 Sc556 2.105 . S
O572 C564 1.268 . S
O573 Sc557 2.105 . S
O573 C563 1.268 . S
O574 Sc558 2.105 . S
O574 C565 1.268 . S
O575 Sc556 2.105 . S
O575 C561 1.268 . S
O576 Sc558 2.105 . S
O576 C560 1.268 . S
O577 Sc557 2.105 . S
O577 C562 1.268 . S
Sc578 O581 2.025 . S
Sc578 O588 2.105 . S
Sc578 O591 2.105 . S
Sc578 O594 2.105 . S
Sc578 O597 2.105 . S
Sc579 O581 2.025 . S
Sc579 O589 2.105 . S
Sc579 O593 2.105 . S
Sc579 O595 2.105 . S
Sc579 O599 2.105 . S
Sc580 O581 2.025 . S
Sc580 O590 2.105 . S
Sc580 O592 2.105 . S
Sc580 O596 2.105 . S
Sc580 O598 2.105 . S
O581 Sc578 2.025 . S
O581 Sc579 2.025 . S
O581 Sc580 2.025 . S
C582 O588 1.268 . S
C582 O598 1.268 . S
C583 O589 1.268 . S
C583 O597 1.268 . S
C584 O590 1.268 . S
C584 O599 1.268 . S
C585 O591 1.268 . S
C585 O595 1.268 . S
C586 O592 1.268 . S
C586 O594 1.268 . S
C587 O593 1.268 . S
C587 O596 1.268 . S
O588 Sc578 2.105 . S
O588 C582 1.268 . S
O589 Sc579 2.105 . S
O589 C583 1.268 . S
O590 Sc580 2.105 . S
O590 C584 1.268 . S
O591 Sc578 2.105 . S
O591 C585 1.268 . S
O592 Sc580 2.105 . S
O592 C586 1.268 . S
O593 Sc579 2.105 . S
O593 C587 1.268 . S
O594 Sc578 2.105 . S
O594 C586 1.268 . S
O595 Sc579 2.105 . S
O595 C585 1.268 . S
O596 Sc580 2.105 . S
O596 C587 1.268 . S
O597 Sc578 2.105 . S
O597 C583 1.268 . S
O598 Sc580 2.105 . S
O598 C582 1.268 . S
O599 Sc579 2.105 . S
O599 C584 1.268 . S
Sc600 O603 2.025 . S
Sc600 O610 2.105 . S
Sc600 O613 2.105 . S
Sc600 O616 2.105 . S
Sc600 O619 2.105 . S
Sc601 O603 2.025 . S
Sc601 O611 2.105 . S
Sc601 O615 2.105 . S
Sc601 O617 2.105 . S
Sc601 O621 2.105 . S
Sc602 O603 2.025 . S
Sc602 O612 2.105 . S
Sc602 O614 2.105 . S
Sc602 O618 2.105 . S
Sc602 O620 2.105 . S
O603 Sc600 2.025 . S
O603 Sc601 2.025 . S
O603 Sc602 2.025 . S
C604 O610 1.268 . S
C604 O620 1.268 . S
C605 O611 1.268 . S
C605 O619 1.268 . S
C606 O612 1.268 . S
C606 O621 1.268 . S
C607 O613 1.268 . S
C607 O617 1.268 . S
C608 O614 1.268 . S
C608 O616 1.268 . S
C609 O615 1.268 . S
C609 O618 1.268 . S
O610 Sc600 2.105 . S
O610 C604 1.268 . S
O611 Sc601 2.105 . S
O611 C605 1.268 . S
O612 Sc602 2.105 . S
O612 C606 1.268 . S
O613 Sc600 2.105 . S
O613 C607 1.268 . S
O614 Sc602 2.105 . S
O614 C608 1.268 . S
O615 Sc601 2.105 . S
O615 C609 1.268 . S
O616 Sc600 2.105 . S
O616 C608 1.268 . S
O617 Sc601 2.105 . S
O617 C607 1.268 . S
O618 Sc602 2.105 . S
O618 C609 1.268 . S
O619 Sc600 2.105 . S
O619 C605 1.268 . S
O620 Sc602 2.105 . S
O620 C604 1.268 . S
O621 Sc601 2.105 . S
O621 C606 1.268 . S
Sc622 O625 2.025 . S
Sc622 O632 2.105 . S
Sc622 O635 2.105 . S
Sc622 O638 2.105 . S
Sc622 O641 2.105 . S
Sc623 O625 2.025 . S
Sc623 O633 2.105 . S
Sc623 O637 2.105 . S
Sc623 O639 2.105 . S
Sc623 O643 2.105 . S
Sc624 O625 2.025 . S
Sc624 O634 2.105 . S
Sc624 O636 2.105 . S
Sc624 O640 2.105 . S
Sc624 O642 2.105 . S
O625 Sc622 2.025 . S
O625 Sc623 2.025 . S
O625 Sc624 2.025 . S
C626 O632 1.268 . S
C626 O642 1.268 . S
C627 O633 1.268 . S
C627 O641 1.268 . S
C628 O634 1.268 . S
C628 O643 1.268 . S
C629 O635 1.268 . S
C629 O639 1.268 . S
C630 O636 1.268 . S
C630 O638 1.268 . S
C631 O637 1.268 . S
C631 O640 1.268 . S
O632 Sc622 2.105 . S
O632 C626 1.268 . S
O633 Sc623 2.105 . S
O633 C627 1.268 . S
O634 Sc624 2.105 . S
O634 C628 1.268 . S
O635 Sc622 2.105 . S
O635 C629 1.268 . S
O636 Sc624 2.105 . S
O636 C630 1.268 . S
O637 Sc623 2.105 . S
O637 C631 1.268 . S
O638 Sc622 2.105 . S
O638 C630 1.268 . S
O639 Sc623 2.105 . S
O639 C629 1.268 . S
O640 Sc624 2.105 . S
O640 C631 1.268 . S
O641 Sc622 2.105 . S
O641 C627 1.268 . S
O642 Sc624 2.105 . S
O642 C626 1.268 . S
O643 Sc623 2.105 . S
O643 C628 1.268 . S
Sc644 O647 2.025 . S
Sc644 O654 2.105 . S
Sc644 O657 2.105 . S
Sc644 O660 2.105 . S
Sc644 O663 2.105 . S
Sc645 O647 2.025 . S
Sc645 O655 2.105 . S
Sc645 O659 2.105 . S
Sc645 O661 2.105 . S
Sc645 O665 2.105 . S
Sc646 O647 2.025 . S
Sc646 O656 2.105 . S
Sc646 O658 2.105 . S
Sc646 O662 2.105 . S
Sc646 O664 2.105 . S
O647 Sc644 2.025 . S
O647 Sc645 2.025 . S
O647 Sc646 2.025 . S
C648 O654 1.268 . S
C648 O664 1.268 . S
C649 O655 1.268 . S
C649 O663 1.268 . S
C650 O656 1.268 . S
C650 O665 1.268 . S
C651 O657 1.268 . S
C651 O661 1.268 . S
C652 O658 1.268 . S
C652 O660 1.268 . S
C653 O659 1.268 . S
C653 O662 1.268 . S
O654 Sc644 2.105 . S
O654 C648 1.268 . S
O655 Sc645 2.105 . S
O655 C649 1.268 . S
O656 Sc646 2.105 . S
O656 C650 1.268 . S
O657 Sc644 2.105 . S
O657 C651 1.268 . S
O658 Sc646 2.105 . S
O658 C652 1.268 . S
O659 Sc645 2.105 . S
O659 C653 1.268 . S
O660 Sc644 2.105 . S
O660 C652 1.268 . S
O661 Sc645 2.105 . S
O661 C651 1.268 . S
O662 Sc646 2.105 . S
O662 C653 1.268 . S
O663 Sc644 2.105 . S
O663 C649 1.268 . S
O664 Sc646 2.105 . S
O664 C648 1.268 . S
O665 Sc645 2.105 . S
O665 C650 1.268 . S
Sc666 O669 2.025 . S
Sc666 O676 2.105 . S
Sc666 O679 2.105 . S
Sc666 O682 2.105 . S
Sc666 O685 2.105 . S
Sc667 O669 2.025 . S
Sc667 O677 2.105 . S
Sc667 O681 2.105 . S
Sc667 O683 2.105 . S
Sc667 O687 2.105 . S
Sc668 O669 2.025 . S
Sc668 O678 2.105 . S
Sc668 O680 2.105 . S
Sc668 O684 2.105 . S
Sc668 O686 2.105 . S
O669 Sc666 2.025 . S
O669 Sc667 2.025 . S
O669 Sc668 2.025 . S
C670 O676 1.268 . S
C670 O686 1.268 . S
C671 O677 1.268 . S
C671 O685 1.268 . S
C672 O678 1.268 . S
C672 O687 1.268 . S
C673 O679 1.268 . S
C673 O683 1.268 . S
C674 O680 1.268 . S
C674 O682 1.268 . S
C675 O681 1.268 . S
C675 O684 1.268 . S
O676 Sc666 2.105 . S
O676 C670 1.268 . S
O677 Sc667 2.105 . S
O677 C671 1.268 . S
O678 Sc668 2.105 . S
O678 C672 1.268 . S
O679 Sc666 2.105 . S
O679 C673 1.268 . S
O680 Sc668 2.105 . S
O680 C674 1.268 . S
O681 Sc667 2.105 . S
O681 C675 1.268 . S
O682 Sc666 2.105 . S
O682 C674 1.268 . S
O683 Sc667 2.105 . S
O683 C673 1.268 . S
O684 Sc668 2.105 . S
O684 C675 1.268 . S
O685 Sc666 2.105 . S
O685 C671 1.268 . S
O686 Sc668 2.105 . S
O686 C670 1.268 . S
O687 Sc667 2.105 . S
O687 C672 1.268 . S
H688 C706 0.951 . S
H689 C708 0.951 . S
H690 C710 0.950 . S
H691 C711 0.950 . S
H692 C713 0.950 . S
H693 C716 0.950 . S
H694 C717 0.950 . S
H695 C719 0.950 . S
H696 C720 0.950 . S
H697 C721 0.951 . S
H698 C723 0.951 . S
H699 C725 0.950 . S
H700 C726 0.950 . S
H701 C728 0.950 . S
H702 C731 0.950 . S
H703 C732 0.950 . S
H704 C734 0.950 . S
H705 C735 0.950 . S
C706 H688 0.951 . S
C706 C707 1.366 . S
C706 C708 1.388 . S
C707 C706 1.366 . S
C707 C711 1.385 . S
C708 H689 0.951 . S
C708 C706 1.388 . S
C708 C709 1.366 . S
C709 C708 1.366 . S
C709 C710 1.414 . S
C709 C712 1.499 . S
C710 H690 0.950 . S
C710 C709 1.414 . S
C710 C711 1.374 . S
C711 H691 0.950 . S
C711 C707 1.385 . S
C711 C710 1.374 . S
C712 C709 1.499 . S
C712 C713 1.373 . S
C712 C714 1.389 . S
C713 H692 0.950 . S
C713 C712 1.373 . S
C713 C729 1.377 . S
C714 C712 1.389 . S
C714 C715 1.524 . S
C714 C728 1.377 . S
C715 C714 1.524 . S
C715 C716 1.397 . S
C715 C720 1.363 . S
C716 H693 0.950 . S
C716 C715 1.397 . S
C716 C717 1.334 . S
C717 H694 0.950 . S
C717 C716 1.334 . S
C717 C718 1.287 . S
C718 C717 1.287 . S
C718 C719 1.524 . S
C718 H737 0.913 . S
C719 H695 0.950 . S
C719 C718 1.524 . S
C719 C720 1.415 . S
C720 H696 0.950 . S
C720 C715 1.363 . S
C720 C719 1.415 . S
C721 H697 0.951 . S
C721 C722 1.366 . S
C721 C723 1.388 . S
C722 C721 1.366 . S
C722 C726 1.385 . S
C723 H698 0.951 . S
C723 C721 1.388 . S
C723 C724 1.366 . S
C724 C723 1.366 . S
C724 C725 1.414 . S
C724 C727 1.499 . S
C725 H699 0.950 . S
C725 C724 1.414 . S
C725 C726 1.374 . S
C726 H700 0.950 . S
C726 C722 1.385 . S
C726 C725 1.374 . S
C727 C724 1.499 . S
C727 C728 1.373 . S
C727 C729 1.389 . S
C728 H701 0.950 . S
C728 C714 1.377 . S
C728 C727 1.373 . S
C729 C713 1.377 . S
C729 C727 1.389 . S
C729 C730 1.524 . S
C730 C729 1.524 . S
C730 C731 1.397 . S
C730 C735 1.363 . S
C731 H702 0.950 . S
C731 C730 1.397 . S
C731 C732 1.334 . S
C732 H703 0.950 . S
C732 C731 1.334 . S
C732 C733 1.287 . S
C733 C732 1.287 . S
C733 C734 1.524 . S
C733 H736 0.999 . S
C734 H704 0.950 . S
C734 C733 1.524 . S
C734 C735 1.415 . S
C735 H705 0.950 . S
C735 C730 1.363 . S
C735 C734 1.415 . S
H736 C733 0.999 . S
H737 C718 0.913 . S
H738 C756 0.951 . S
H739 C758 0.951 . S
H740 C760 0.950 . S
H741 C761 0.950 . S
H742 C763 0.950 . S
H743 C766 0.950 . S
H744 C767 0.950 . S
H745 C769 0.950 . S
H746 C770 0.950 . S
H747 C771 0.951 . S
H748 C773 0.951 . S
H749 C775 0.950 . S
H750 C776 0.950 . S
H751 C778 0.950 . S
H752 C781 0.950 . S
H753 C782 0.950 . S
H754 C784 0.950 . S
H755 C785 0.950 . S
C756 H738 0.951 . S
C756 C757 1.366 . S
C756 C758 1.388 . S
C757 C756 1.366 . S
C757 C761 1.385 . S
C758 H739 0.951 . S
C758 C756 1.388 . S
C758 C759 1.366 . S
C759 C758 1.366 . S
C759 C760 1.414 . S
C759 C762 1.499 . S
C760 H740 0.950 . S
C760 C759 1.414 . S
C760 C761 1.374 . S
C761 H741 0.950 . S
C761 C757 1.385 . S
C761 C760 1.374 . S
C762 C759 1.499 . S
C762 C763 1.373 . S
C762 C764 1.389 . S
C763 H742 0.950 . S
C763 C762 1.373 . S
C763 C779 1.377 . S
C764 C762 1.389 . S
C764 C765 1.524 . S
C764 C778 1.377 . S
C765 C764 1.524 . S
C765 C766 1.397 . S
C765 C770 1.363 . S
C766 H743 0.950 . S
C766 C765 1.397 . S
C766 C767 1.334 . S
C767 H744 0.950 . S
C767 C766 1.334 . S
C767 C768 1.287 . S
C768 C767 1.287 . S
C768 C769 1.524 . S
C768 H787 0.913 . S
C769 H745 0.950 . S
C769 C768 1.524 . S
C769 C770 1.415 . S
C770 H746 0.950 . S
C770 C765 1.363 . S
C770 C769 1.415 . S
C771 H747 0.951 . S
C771 C772 1.366 . S
C771 C773 1.388 . S
C772 C771 1.366 . S
C772 C776 1.385 . S
C773 H748 0.951 . S
C773 C771 1.388 . S
C773 C774 1.366 . S
C774 C773 1.366 . S
C774 C775 1.414 . S
C774 C777 1.499 . S
C775 H749 0.950 . S
C775 C774 1.414 . S
C775 C776 1.374 . S
C776 H750 0.950 . S
C776 C772 1.385 . S
C776 C775 1.374 . S
C777 C774 1.499 . S
C777 C778 1.373 . S
C777 C779 1.389 . S
C778 H751 0.950 . S
C778 C764 1.377 . S
C778 C777 1.373 . S
C779 C763 1.377 . S
C779 C777 1.389 . S
C779 C780 1.524 . S
C780 C779 1.524 . S
C780 C781 1.397 . S
C780 C785 1.363 . S
C781 H752 0.950 . S
C781 C780 1.397 . S
C781 C782 1.334 . S
C782 H753 0.950 . S
C782 C781 1.334 . S
C782 C783 1.287 . S
C783 C782 1.287 . S
C783 C784 1.524 . S
C783 H786 0.999 . S
C784 H754 0.950 . S
C784 C783 1.524 . S
C784 C785 1.415 . S
C785 H755 0.950 . S
C785 C780 1.363 . S
C785 C784 1.415 . S
H786 C783 0.999 . S
H787 C768 0.913 . S
H788 C806 0.951 . S
H789 C808 0.951 . S
H790 C810 0.950 . S
H791 C811 0.950 . S
H792 C813 0.950 . S
H793 C816 0.950 . S
H794 C817 0.950 . S
H795 C819 0.950 . S
H796 C820 0.950 . S
H797 C821 0.951 . S
H798 C823 0.951 . S
H799 C825 0.950 . S
H800 C826 0.950 . S
H801 C828 0.950 . S
H802 C831 0.950 . S
H803 C832 0.950 . S
H804 C834 0.950 . S
H805 C835 0.950 . S
C806 H788 0.951 . S
C806 C807 1.366 . S
C806 C808 1.388 . S
C807 C806 1.366 . S
C807 C811 1.385 . S
C808 H789 0.951 . S
C808 C806 1.388 . S
C808 C809 1.366 . S
C809 C808 1.366 . S
C809 C810 1.414 . S
C809 C812 1.499 . S
C810 H790 0.950 . S
C810 C809 1.414 . S
C810 C811 1.374 . S
C811 H791 0.950 . S
C811 C807 1.385 . S
C811 C810 1.374 . S
C812 C809 1.499 . S
C812 C813 1.373 . S
C812 C814 1.389 . S
C813 H792 0.950 . S
C813 C812 1.373 . S
C813 C829 1.377 . S
C814 C812 1.389 . S
C814 C815 1.524 . S
C814 C828 1.377 . S
C815 C814 1.524 . S
C815 C816 1.397 . S
C815 C820 1.363 . S
C816 H793 0.950 . S
C816 C815 1.397 . S
C816 C817 1.334 . S
C817 H794 0.950 . S
C817 C816 1.334 . S
C817 C818 1.287 . S
C818 C817 1.287 . S
C818 C819 1.524 . S
C818 H837 0.913 . S
C819 H795 0.950 . S
C819 C818 1.524 . S
C819 C820 1.415 . S
C820 H796 0.950 . S
C820 C815 1.363 . S
C820 C819 1.415 . S
C821 H797 0.951 . S
C821 C822 1.366 . S
C821 C823 1.388 . S
C822 C821 1.366 . S
C822 C826 1.385 . S
C823 H798 0.951 . S
C823 C821 1.388 . S
C823 C824 1.366 . S
C824 C823 1.366 . S
C824 C825 1.414 . S
C824 C827 1.499 . S
C825 H799 0.950 . S
C825 C824 1.414 . S
C825 C826 1.374 . S
C826 H800 0.950 . S
C826 C822 1.385 . S
C826 C825 1.374 . S
C827 C824 1.499 . S
C827 C828 1.373 . S
C827 C829 1.389 . S
C828 H801 0.950 . S
C828 C814 1.377 . S
C828 C827 1.373 . S
C829 C813 1.377 . S
C829 C827 1.389 . S
C829 C830 1.524 . S
C830 C829 1.524 . S
C830 C831 1.397 . S
C830 C835 1.363 . S
C831 H802 0.950 . S
C831 C830 1.397 . S
C831 C832 1.334 . S
C832 H803 0.950 . S
C832 C831 1.334 . S
C832 C833 1.287 . S
C833 C832 1.287 . S
C833 C834 1.524 . S
C833 H836 0.999 . S
C834 H804 0.950 . S
C834 C833 1.524 . S
C834 C835 1.415 . S
C835 H805 0.950 . S
C835 C830 1.363 . S
C835 C834 1.415 . S
H836 C833 0.999 . S
H837 C818 0.913 . S
H838 C856 0.951 . S
H839 C858 0.951 . S
H840 C860 0.950 . S
H841 C861 0.950 . S
H842 C863 0.950 . S
H843 C866 0.950 . S
H844 C867 0.950 . S
H845 C869 0.950 . S
H846 C870 0.950 . S
H847 C871 0.951 . S
H848 C873 0.951 . S
H849 C875 0.950 . S
H850 C876 0.950 . S
H851 C878 0.950 . S
H852 C881 0.950 . S
H853 C882 0.950 . S
H854 C884 0.950 . S
H855 C885 0.950 1_554 S
C856 H838 0.951 . S
C856 C857 1.366 . S
C856 C858 1.388 . S
C857 C856 1.366 . S
C857 C861 1.385 . S
C858 H839 0.951 . S
C858 C856 1.388 . S
C858 C859 1.366 . S
C859 C858 1.366 . S
C859 C860 1.414 . S
C859 C862 1.499 . S
C860 H840 0.950 . S
C860 C859 1.414 . S
C860 C861 1.374 . S
C861 H841 0.950 . S
C861 C857 1.385 . S
C861 C860 1.374 . S
C862 C859 1.499 . S
C862 C863 1.373 . S
C862 C864 1.389 . S
C863 H842 0.950 . S
C863 C862 1.373 . S
C863 C879 1.377 . S
C864 C862 1.389 . S
C864 C865 1.524 . S
C864 C878 1.377 . S
C865 C864 1.524 . S
C865 C866 1.397 . S
C865 C870 1.363 . S
C866 H843 0.950 . S
C866 C865 1.397 . S
C866 C867 1.334 . S
C867 H844 0.950 . S
C867 C866 1.334 . S
C867 C868 1.287 . S
C868 C867 1.287 . S
C868 C869 1.524 . S
C868 H887 0.913 . S
C869 H845 0.950 . S
C869 C868 1.524 . S
C869 C870 1.415 . S
C870 H846 0.950 . S
C870 C865 1.363 . S
C870 C869 1.415 . S
C871 H847 0.951 . S
C871 C872 1.366 . S
C871 C873 1.388 . S
C872 C871 1.366 . S
C872 C876 1.385 . S
C873 H848 0.951 . S
C873 C871 1.388 . S
C873 C874 1.366 . S
C874 C873 1.366 . S
C874 C875 1.414 . S
C874 C877 1.499 . S
C875 H849 0.950 . S
C875 C874 1.414 . S
C875 C876 1.374 . S
C876 H850 0.950 . S
C876 C872 1.385 . S
C876 C875 1.374 . S
C877 C874 1.499 . S
C877 C878 1.373 1_556 S
C877 C879 1.389 1_556 S
C878 H851 0.950 . S
C878 C864 1.377 . S
C878 C877 1.373 1_554 S
C879 C863 1.377 . S
C879 C877 1.389 1_554 S
C879 C880 1.524 1_554 S
C880 C879 1.524 1_556 S
C880 C881 1.397 . S
C880 C885 1.363 . S
C881 H852 0.950 . S
C881 C880 1.397 . S
C881 C882 1.334 . S
C882 H853 0.950 . S
C882 C881 1.334 . S
C882 C883 1.287 . S
C883 C882 1.287 . S
C883 C884 1.524 . S
C883 H886 0.999 . S
C884 H854 0.950 . S
C884 C883 1.524 . S
C884 C885 1.415 . S
C885 H855 0.950 1_556 S
C885 C880 1.363 . S
C885 C884 1.415 . S
H886 C883 0.999 . S
H887 C868 0.913 . S
H888 C906 0.954 1_655 S
H889 C908 0.951 . S
H890 C910 0.950 . S
H891 C911 0.950 . S
H892 C913 0.950 . S
H893 C916 0.950 . S
H894 C917 0.950 . S
H895 C919 0.950 . S
H896 C920 0.950 . S
H897 C921 0.951 . S
H898 C923 0.951 . S
H899 C925 0.950 . S
H900 C926 0.950 . S
H901 C928 0.950 . S
H902 C931 0.950 . S
H903 C932 0.950 . S
H904 C934 0.950 . S
H905 C935 0.950 . S
C906 H888 0.954 1_455 S
C906 C907 1.366 . S
C906 C908 1.388 . S
C907 C906 1.366 . S
C907 C911 1.385 . S
C908 H889 0.951 . S
C908 C906 1.388 . S
C908 C909 1.366 . S
C909 C908 1.366 . S
C909 C910 1.414 . S
C909 C912 1.499 . S
C910 H890 0.950 . S
C910 C909 1.414 . S
C910 C911 1.374 . S
C911 H891 0.950 . S
C911 C907 1.385 . S
C911 C910 1.374 . S
C912 C909 1.499 . S
C912 C913 1.373 . S
C912 C914 1.389 . S
C913 H892 0.950 . S
C913 C912 1.373 . S
C913 C929 1.377 . S
C914 C912 1.389 . S
C914 C915 1.524 . S
C914 C928 1.377 . S
C915 C914 1.524 . S
C915 C916 1.397 . S
C915 C920 1.363 . S
C916 H893 0.950 . S
C916 C915 1.397 . S
C916 C917 1.334 . S
C917 H894 0.950 . S
C917 C916 1.334 . S
C917 C918 1.287 . S
C918 C917 1.287 . S
C918 C919 1.524 . S
C918 H937 0.913 . S
C919 H895 0.950 . S
C919 C918 1.524 . S
C919 C920 1.415 . S
C920 H896 0.950 . S
C920 C915 1.363 . S
C920 C919 1.415 . S
C921 H897 0.951 . S
C921 C922 1.366 . S
C921 C923 1.388 . S
C922 C921 1.366 . S
C922 C926 1.385 . S
C923 H898 0.951 . S
C923 C921 1.388 . S
C923 C924 1.366 . S
C924 C923 1.366 . S
C924 C925 1.414 . S
C924 C927 1.499 . S
C925 H899 0.950 . S
C925 C924 1.414 . S
C925 C926 1.374 . S
C926 H900 0.950 . S
C926 C922 1.385 . S
C926 C925 1.374 . S
C927 C924 1.499 . S
C927 C928 1.373 . S
C927 C929 1.389 . S
C928 H901 0.950 . S
C928 C914 1.377 . S
C928 C927 1.373 . S
C929 C913 1.377 . S
C929 C927 1.389 . S
C929 C930 1.524 . S
C930 C929 1.524 . S
C930 C931 1.397 . S
C930 C935 1.363 . S
C931 H902 0.950 . S
C931 C930 1.397 . S
C931 C932 1.334 . S
C932 H903 0.950 . S
C932 C931 1.334 . S
C932 C933 1.287 . S
C933 C932 1.287 . S
C933 C934 1.524 . S
C933 H936 0.999 . S
C934 H904 0.950 . S
C934 C933 1.524 . S
C934 C935 1.415 . S
C935 H905 0.950 . S
C935 C930 1.363 . S
C935 C934 1.415 . S
H936 C933 0.999 . S
H937 C918 0.913 . S
H938 C956 0.951 . S
H939 C958 0.951 . S
H940 C960 0.950 . S
H941 C961 0.950 . S
H942 C963 0.950 . S
H943 C966 0.950 . S
H944 C967 0.950 . S
H945 C969 0.950 . S
H946 C970 0.950 . S
H947 C971 0.951 . S
H948 C973 0.951 . S
H949 C975 0.950 . S
H950 C976 0.950 . S
H951 C978 0.950 . S
H952 C981 0.950 . S
H953 C982 0.950 . S
H954 C984 0.950 . S
H955 C985 0.950 . S
C956 H938 0.951 . S
C956 C957 1.366 . S
C956 C958 1.388 . S
C957 C956 1.366 . S
C957 C961 1.385 . S
C958 H939 0.951 . S
C958 C956 1.388 . S
C958 C959 1.366 . S
C959 C958 1.366 . S
C959 C960 1.414 . S
C959 C962 1.499 . S
C960 H940 0.950 . S
C960 C959 1.414 . S
C960 C961 1.374 . S
C961 H941 0.950 . S
C961 C957 1.385 . S
C961 C960 1.374 . S
C962 C959 1.499 . S
C962 C963 1.373 . S
C962 C964 1.389 . S
C963 H942 0.950 . S
C963 C962 1.373 . S
C963 C979 1.377 . S
C964 C962 1.389 . S
C964 C965 1.524 . S
C964 C978 1.377 . S
C965 C964 1.524 . S
C965 C966 1.397 . S
C965 C970 1.363 . S
C966 H943 0.950 . S
C966 C965 1.397 . S
C966 C967 1.334 . S
C967 H944 0.950 . S
C967 C966 1.334 . S
C967 C968 1.287 . S
C968 C967 1.287 . S
C968 C969 1.524 . S
C968 H987 0.913 . S
C969 H945 0.950 . S
C969 C968 1.524 . S
C969 C970 1.415 . S
C970 H946 0.950 . S
C970 C965 1.363 . S
C970 C969 1.415 . S
C971 H947 0.951 . S
C971 C972 1.366 . S
C971 C973 1.388 . S
C972 C971 1.366 . S
C972 C976 1.385 . S
C973 H948 0.951 . S
C973 C971 1.388 . S
C973 C974 1.366 . S
C974 C973 1.366 . S
C974 C975 1.414 . S
C974 C977 1.499 . S
C975 H949 0.950 . S
C975 C974 1.414 . S
C975 C976 1.374 . S
C976 H950 0.950 . S
C976 C972 1.385 . S
C976 C975 1.374 . S
C977 C974 1.499 . S
C977 C978 1.373 . S
C977 C979 1.389 . S
C978 H951 0.950 . S
C978 C964 1.377 . S
C978 C977 1.373 . S
C979 C963 1.377 . S
C979 C977 1.389 . S
C979 C980 1.524 . S
C980 C979 1.524 . S
C980 C981 1.397 . S
C980 C985 1.363 . S
C981 H952 0.950 . S
C981 C980 1.397 . S
C981 C982 1.334 . S
C982 H953 0.950 . S
C982 C981 1.334 . S
C982 C983 1.287 . S
C983 C982 1.287 . S
C983 C984 1.524 . S
C983 H986 0.999 . S
C984 H954 0.950 . S
C984 C983 1.524 . S
C984 C985 1.415 . S
C985 H955 0.950 . S
C985 C980 1.363 . S
C985 C984 1.415 . S
H986 C983 0.999 . S
H987 C968 0.913 . S
H988 C1006 0.951 . S
H989 C1008 0.951 . S
H990 C1010 0.950 . S
H991 C1011 0.950 . S
H992 C1013 0.950 . S
H993 C1016 0.950 . S
H994 C1017 0.950 . S
H995 C1019 0.950 . S
H996 C1020 0.950 . S
H997 C1021 0.951 . S
H998 C1023 0.951 . S
H999 C1025 0.950 . S
H1000 C1026 0.950 . S
H1001 C1028 0.950 . S
H1002 C1031 0.950 . S
H1003 C1032 0.950 . S
H1004 C1034 0.950 . S
H1005 C1035 0.950 . S
C1006 H988 0.951 . S
C1006 C1007 1.366 . S
C1006 C1008 1.388 . S
C1007 C1006 1.366 . S
C1007 C1011 1.385 . S
C1008 H989 0.951 . S
C1008 C1006 1.388 . S
C1008 C1009 1.366 . S
C1009 C1008 1.366 . S
C1009 C1010 1.414 . S
C1009 C1012 1.499 . S
C1010 H990 0.950 . S
C1010 C1009 1.414 . S
C1010 C1011 1.374 . S
C1011 H991 0.950 . S
C1011 C1007 1.385 . S
C1011 C1010 1.374 . S
C1012 C1009 1.499 . S
C1012 C1013 1.373 . S
C1012 C1014 1.389 . S
C1013 H992 0.950 . S
C1013 C1012 1.373 . S
C1013 C1029 1.377 . S
C1014 C1012 1.389 . S
C1014 C1015 1.524 . S
C1014 C1028 1.377 . S
C1015 C1014 1.524 . S
C1015 C1016 1.397 . S
C1015 C1020 1.363 . S
C1016 H993 0.950 . S
C1016 C1015 1.397 . S
C1016 C1017 1.334 . S
C1017 H994 0.950 . S
C1017 C1016 1.334 . S
C1017 C1018 1.287 . S
C1018 C1017 1.287 . S
C1018 C1019 1.524 . S
C1018 H1037 0.913 . S
C1019 H995 0.950 . S
C1019 C1018 1.524 . S
C1019 C1020 1.415 . S
C1020 H996 0.950 . S
C1020 C1015 1.363 . S
C1020 C1019 1.415 . S
C1021 H997 0.951 . S
C1021 C1022 1.366 . S
C1021 C1023 1.388 . S
C1022 C1021 1.366 . S
C1022 C1026 1.385 . S
C1023 H998 0.951 . S
C1023 C1021 1.388 . S
C1023 C1024 1.366 . S
C1024 C1023 1.366 . S
C1024 C1025 1.414 . S
C1024 C1027 1.499 . S
C1025 H999 0.950 . S
C1025 C1024 1.414 . S
C1025 C1026 1.374 . S
C1026 H1000 0.950 . S
C1026 C1022 1.385 . S
C1026 C1025 1.374 . S
C1027 C1024 1.499 . S
C1027 C1028 1.373 . S
C1027 C1029 1.389 . S
C1028 H1001 0.950 . S
C1028 C1014 1.377 . S
C1028 C1027 1.373 . S
C1029 C1013 1.377 . S
C1029 C1027 1.389 . S
C1029 C1030 1.524 . S
C1030 C1029 1.524 . S
C1030 C1031 1.397 . S
C1030 C1035 1.363 . S
C1031 H1002 0.950 . S
C1031 C1030 1.397 . S
C1031 C1032 1.334 . S
C1032 H1003 0.950 . S
C1032 C1031 1.334 . S
C1032 C1033 1.287 . S
C1033 C1032 1.287 . S
C1033 C1034 1.524 . S
C1033 H1036 0.999 . S
C1034 H1004 0.950 . S
C1034 C1033 1.524 . S
C1034 C1035 1.415 . S
C1035 H1005 0.950 . S
C1035 C1030 1.363 . S
C1035 C1034 1.415 . S
H1036 C1033 0.999 . S
H1037 C1018 0.913 . S
H1038 C1056 0.951 . S
H1039 C1058 0.951 . S
H1040 C1060 0.950 . S
H1041 C1061 0.950 . S
H1042 C1063 0.950 . S
H1043 C1066 0.950 . S
H1044 C1067 0.950 . S
H1045 C1069 0.950 . S
H1046 C1070 0.950 . S
H1047 C1071 0.951 . S
H1048 C1073 0.951 . S
H1049 C1075 0.950 . S
H1050 C1076 0.950 . S
H1051 C1078 0.950 . S
H1052 C1081 0.950 . S
H1053 C1082 0.950 . S
H1054 C1084 0.950 . S
H1055 C1085 0.950 . S
C1056 H1038 0.951 . S
C1056 C1057 1.366 . S
C1056 C1058 1.388 . S
C1057 C1056 1.366 . S
C1057 C1061 1.385 . S
C1058 H1039 0.951 . S
C1058 C1056 1.388 . S
C1058 C1059 1.366 . S
C1059 C1058 1.366 . S
C1059 C1060 1.414 . S
C1059 C1062 1.499 . S
C1060 H1040 0.950 . S
C1060 C1059 1.414 . S
C1060 C1061 1.374 . S
C1061 H1041 0.950 . S
C1061 C1057 1.385 . S
C1061 C1060 1.374 . S
C1062 C1059 1.499 . S
C1062 C1063 1.373 . S
C1062 C1064 1.389 . S
C1063 H1042 0.950 . S
C1063 C1062 1.373 . S
C1063 C1079 1.377 . S
C1064 C1062 1.389 . S
C1064 C1065 1.524 . S
C1064 C1078 1.377 1_556 S
C1065 C1064 1.524 . S
C1065 C1066 1.397 . S
C1065 C1070 1.363 1_556 S
C1066 H1043 0.950 . S
C1066 C1065 1.397 . S
C1066 C1067 1.334 . S
C1067 H1044 0.950 . S
C1067 C1066 1.334 . S
C1067 C1068 1.287 . S
C1068 C1067 1.287 . S
C1068 C1069 1.524 1_556 S
C1068 H1087 0.913 . S
C1069 H1045 0.950 . S
C1069 C1068 1.524 1_554 S
C1069 C1070 1.415 . S
C1070 H1046 0.950 . S
C1070 C1065 1.363 1_554 S
C1070 C1069 1.415 . S
C1071 H1047 0.951 . S
C1071 C1072 1.366 . S
C1071 C1073 1.388 . S
C1072 C1071 1.366 . S
C1072 C1076 1.385 . S
C1073 H1048 0.951 . S
C1073 C1071 1.388 . S
C1073 C1074 1.366 . S
C1074 C1073 1.366 . S
C1074 C1075 1.414 . S
C1074 C1077 1.499 . S
C1075 H1049 0.950 . S
C1075 C1074 1.414 . S
C1075 C1076 1.374 . S
C1076 H1050 0.950 . S
C1076 C1072 1.385 . S
C1076 C1075 1.374 . S
C1077 C1074 1.499 . S
C1077 C1078 1.373 . S
C1077 C1079 1.389 1_554 S
C1078 H1051 0.950 . S
C1078 C1064 1.377 1_554 S
C1078 C1077 1.373 . S
C1079 C1063 1.377 . S
C1079 C1077 1.389 1_556 S
C1079 C1080 1.519 1_556 S
C1080 C1079 1.519 1_554 S
C1080 C1081 1.441 . S
C1080 C1085 1.325 1_554 S
C1081 H1052 0.950 . S
C1081 C1080 1.441 . S
C1081 C1082 1.334 . S
C1082 H1053 0.950 . S
C1082 C1081 1.334 . S
C1082 C1083 1.287 . S
C1083 C1082 1.287 . S
C1083 C1084 1.524 1_554 S
C1083 H1086 0.999 . S
C1084 H1054 0.950 . S
C1084 C1083 1.524 1_556 S
C1084 C1085 1.415 . S
C1085 H1055 0.950 . S
C1085 C1080 1.325 1_556 S
C1085 C1084 1.415 . S
H1086 C1083 0.999 . S
H1087 C1068 0.913 . S
H1088 C1106 0.951 . S
H1089 C1108 0.951 . S
H1090 C1110 0.950 . S
H1091 C1111 0.950 . S
H1092 C1113 0.950 . S
H1093 C1116 0.950 . S
H1094 C1117 0.950 . S
H1095 C1119 0.950 . S
H1096 C1120 0.950 . S
H1097 C1121 0.951 . S
H1098 C1123 0.951 . S
H1099 C1125 0.950 . S
H1100 C1126 0.950 . S
H1101 C1128 0.950 . S
H1102 C1131 0.950 . S
H1103 C1132 0.950 . S
H1104 C1134 0.950 . S
H1105 C1135 0.950 . S
C1106 H1088 0.951 . S
C1106 C1107 1.366 . S
C1106 C1108 1.388 . S
C1107 C1106 1.366 . S
C1107 C1111 1.385 . S
C1108 H1089 0.951 . S
C1108 C1106 1.388 . S
C1108 C1109 1.366 . S
C1109 C1108 1.366 . S
C1109 C1110 1.414 . S
C1109 C1112 1.499 . S
C1110 H1090 0.950 . S
C1110 C1109 1.414 . S
C1110 C1111 1.374 . S
C1111 H1091 0.950 . S
C1111 C1107 1.385 . S
C1111 C1110 1.374 . S
C1112 C1109 1.499 . S
C1112 C1113 1.373 . S
C1112 C1114 1.389 . S
C1113 H1092 0.950 . S
C1113 C1112 1.373 . S
C1113 C1129 1.377 . S
C1114 C1112 1.389 . S
C1114 C1115 1.524 . S
C1114 C1128 1.377 . S
C1115 C1114 1.524 . S
C1115 C1116 1.397 . S
C1115 C1120 1.363 . S
C1116 H1093 0.950 . S
C1116 C1115 1.397 . S
C1116 C1117 1.334 . S
C1117 H1094 0.950 . S
C1117 C1116 1.334 . S
C1117 C1118 1.287 . S
C1118 C1117 1.287 . S
C1118 C1119 1.524 . S
C1118 H1137 0.913 . S
C1119 H1095 0.950 . S
C1119 C1118 1.524 . S
C1119 C1120 1.415 . S
C1120 H1096 0.950 . S
C1120 C1115 1.363 . S
C1120 C1119 1.415 . S
C1121 H1097 0.951 . S
C1121 C1122 1.366 . S
C1121 C1123 1.388 . S
C1122 C1121 1.366 . S
C1122 C1126 1.385 . S
C1123 H1098 0.951 . S
C1123 C1121 1.388 . S
C1123 C1124 1.366 . S
C1124 C1123 1.366 . S
C1124 C1125 1.414 . S
C1124 C1127 1.499 . S
C1125 H1099 0.950 . S
C1125 C1124 1.414 . S
C1125 C1126 1.374 . S
C1126 H1100 0.950 . S
C1126 C1122 1.385 . S
C1126 C1125 1.374 . S
C1127 C1124 1.499 . S
C1127 C1128 1.373 . S
C1127 C1129 1.389 . S
C1128 H1101 0.950 . S
C1128 C1114 1.377 . S
C1128 C1127 1.373 . S
C1129 C1113 1.377 . S
C1129 C1127 1.389 . S
C1129 C1130 1.524 . S
C1130 C1129 1.524 . S
C1130 C1131 1.397 . S
C1130 C1135 1.363 . S
C1131 H1102 0.950 . S
C1131 C1130 1.397 . S
C1131 C1132 1.334 . S
C1132 H1103 0.950 . S
C1132 C1131 1.334 . S
C1132 C1133 1.287 . S
C1133 C1132 1.287 . S
C1133 C1134 1.524 . S
C1133 H1136 0.999 . S
C1134 H1104 0.950 . S
C1134 C1133 1.524 . S
C1134 C1135 1.415 . S
C1135 H1105 0.950 . S
C1135 C1130 1.363 . S
C1135 C1134 1.415 . S
H1136 C1133 0.999 . S
H1137 C1118 0.913 . S
H1138 C1156 0.951 . S
H1139 C1158 0.951 . S
H1140 C1160 0.950 . S
H1141 C1161 0.950 . S
H1142 C1163 0.950 . S
H1143 C1166 0.950 . S
H1144 C1167 0.950 . S
H1145 C1169 0.950 . S
H1146 C1170 0.950 . S
H1147 C1171 0.951 . S
H1148 C1173 0.951 . S
H1149 C1175 0.950 . S
H1150 C1176 0.950 . S
H1151 C1178 0.950 . S
H1152 C1181 0.950 . S
H1153 C1182 0.950 . S
H1154 C1184 0.950 . S
H1155 C1185 0.950 . S
C1156 H1138 0.951 . S
C1156 C1157 1.366 . S
C1156 C1158 1.388 . S
C1157 C1156 1.366 . S
C1157 C1161 1.385 . S
C1158 H1139 0.951 . S
C1158 C1156 1.388 . S
C1158 C1159 1.366 . S
C1159 C1158 1.366 . S
C1159 C1160 1.414 . S
C1159 C1162 1.499 . S
C1160 H1140 0.950 . S
C1160 C1159 1.414 . S
C1160 C1161 1.374 . S
C1161 H1141 0.950 . S
C1161 C1157 1.385 . S
C1161 C1160 1.374 . S
C1162 C1159 1.499 . S
C1162 C1163 1.373 . S
C1162 C1164 1.389 . S
C1163 H1142 0.950 . S
C1163 C1162 1.373 . S
C1163 C1179 1.377 1_545 S
C1164 C1162 1.389 . S
C1164 C1165 1.524 . S
C1164 C1178 1.377 . S
C1165 C1164 1.524 . S
C1165 C1166 1.397 . S
C1165 C1170 1.363 . S
C1166 H1143 0.950 . S
C1166 C1165 1.397 . S
C1166 C1167 1.334 . S
C1167 H1144 0.950 . S
C1167 C1166 1.334 . S
C1167 C1168 1.287 . S
C1168 C1167 1.287 . S
C1168 C1169 1.524 . S
C1168 H1187 0.913 . S
C1169 H1145 0.950 . S
C1169 C1168 1.524 . S
C1169 C1170 1.415 . S
C1170 H1146 0.950 . S
C1170 C1165 1.363 . S
C1170 C1169 1.415 . S
C1171 H1147 0.951 . S
C1171 C1172 1.366 . S
C1171 C1173 1.388 . S
C1172 C1171 1.366 . S
C1172 C1176 1.385 . S
C1173 H1148 0.951 . S
C1173 C1171 1.388 . S
C1173 C1174 1.366 . S
C1174 C1173 1.366 . S
C1174 C1175 1.414 . S
C1174 C1177 1.499 . S
C1175 H1149 0.950 . S
C1175 C1174 1.414 . S
C1175 C1176 1.374 . S
C1176 H1150 0.950 . S
C1176 C1172 1.385 . S
C1176 C1175 1.374 . S
C1177 C1174 1.499 . S
C1177 C1178 1.373 1_565 S
C1177 C1179 1.389 . S
C1178 H1151 0.950 . S
C1178 C1164 1.377 . S
C1178 C1177 1.373 1_545 S
C1179 C1163 1.377 1_565 S
C1179 C1177 1.389 . S
C1179 C1180 1.524 . S
C1180 C1179 1.524 . S
C1180 C1181 1.397 . S
C1180 C1185 1.363 . S
C1181 H1152 0.950 . S
C1181 C1180 1.397 . S
C1181 C1182 1.334 . S
C1182 H1153 0.950 . S
C1182 C1181 1.334 . S
C1182 C1183 1.287 . S
C1183 C1182 1.287 . S
C1183 C1184 1.524 . S
C1183 H1186 0.999 . S
C1184 H1154 0.950 . S
C1184 C1183 1.524 . S
C1184 C1185 1.415 . S
C1185 H1155 0.950 . S
C1185 C1180 1.363 . S
C1185 C1184 1.415 . S
H1186 C1183 0.999 . S
H1187 C1168 0.913 . S
H1188 C1206 0.951 . S
H1189 C1208 0.951 . S
H1190 C1210 0.950 . S
H1191 C1211 0.950 . S
H1192 C1213 0.950 . S
H1193 C1216 0.950 . S
H1194 C1217 0.950 1_545 S
H1195 C1219 0.950 . S
H1196 C1220 0.950 . S
H1197 C1221 0.951 . S
H1198 C1223 0.951 . S
H1199 C1225 0.950 . S
H1200 C1226 0.950 . S
H1201 C1228 0.950 . S
H1202 C1231 0.950 . S
H1203 C1232 0.950 . S
H1204 C1234 0.950 . S
H1205 C1235 0.950 . S
C1206 H1188 0.951 . S
C1206 C1207 1.366 . S
C1206 C1208 1.388 . S
C1207 C1206 1.366 . S
C1207 C1211 1.385 . S
C1208 H1189 0.951 . S
C1208 C1206 1.388 . S
C1208 C1209 1.366 . S
C1209 C1208 1.366 . S
C1209 C1210 1.414 . S
C1209 C1212 1.499 . S
C1210 H1190 0.950 . S
C1210 C1209 1.414 . S
C1210 C1211 1.374 . S
C1211 H1191 0.950 . S
C1211 C1207 1.385 . S
C1211 C1210 1.374 . S
C1212 C1209 1.499 . S
C1212 C1213 1.373 . S
C1212 C1214 1.389 . S
C1213 H1192 0.950 . S
C1213 C1212 1.373 . S
C1213 C1229 1.377 . S
C1214 C1212 1.389 . S
C1214 C1215 1.524 . S
C1214 C1228 1.377 . S
C1215 C1214 1.524 . S
C1215 C1216 1.397 . S
C1215 C1220 1.363 . S
C1216 H1193 0.950 . S
C1216 C1215 1.397 . S
C1216 C1217 1.334 . S
C1217 H1194 0.950 1_565 S
C1217 C1216 1.334 . S
C1217 C1218 1.287 . S
C1218 C1217 1.287 . S
C1218 C1219 1.524 . S
C1218 H1237 0.913 1_565 S
C1219 H1195 0.950 . S
C1219 C1218 1.524 . S
C1219 C1220 1.415 . S
C1220 H1196 0.950 . S
C1220 C1215 1.363 . S
C1220 C1219 1.415 . S
C1221 H1197 0.951 . S
C1221 C1222 1.366 . S
C1221 C1223 1.388 . S
C1222 C1221 1.366 . S
C1222 C1226 1.385 . S
C1223 H1198 0.951 . S
C1223 C1221 1.388 . S
C1223 C1224 1.366 . S
C1224 C1223 1.366 . S
C1224 C1225 1.414 . S
C1224 C1227 1.499 . S
C1225 H1199 0.950 . S
C1225 C1224 1.414 . S
C1225 C1226 1.374 . S
C1226 H1200 0.950 . S
C1226 C1222 1.385 . S
C1226 C1225 1.374 . S
C1227 C1224 1.499 . S
C1227 C1228 1.373 . S
C1227 C1229 1.389 . S
C1228 H1201 0.950 . S
C1228 C1214 1.377 . S
C1228 C1227 1.373 . S
C1229 C1213 1.377 . S
C1229 C1227 1.389 . S
C1229 C1230 1.524 . S
C1230 C1229 1.524 . S
C1230 C1231 1.397 . S
C1230 C1235 1.363 . S
C1231 H1202 0.950 . S
C1231 C1230 1.397 . S
C1231 C1232 1.334 . S
C1232 H1203 0.950 . S
C1232 C1231 1.334 . S
C1232 C1233 1.287 . S
C1233 C1232 1.287 . S
C1233 C1234 1.524 . S
C1233 H1236 0.999 . S
C1234 H1204 0.950 . S
C1234 C1233 1.524 . S
C1234 C1235 1.415 . S
C1235 H1205 0.950 . S
C1235 C1230 1.363 . S
C1235 C1234 1.415 . S
H1236 C1233 0.999 . S
H1237 C1218 0.913 1_545 S
H1238 C1256 0.951 . S
H1239 C1258 0.951 . S
H1240 C1260 0.950 . S
H1241 C1261 0.950 . S
H1242 C1263 0.950 . S
H1243 C1266 0.950 . S
H1244 C1267 0.950 . S
H1245 C1269 0.950 . S
H1246 C1270 0.950 . S
H1247 C1271 0.951 . S
H1248 C1273 0.951 . S
H1249 C1275 0.950 . S
H1250 C1276 0.950 . S
H1251 C1278 0.950 . S
H1252 C1281 0.950 . S
H1253 C1282 0.950 . S
H1254 C1284 0.950 . S
H1255 C1285 0.950 . S
C1256 H1238 0.951 . S
C1256 C1257 1.366 . S
C1256 C1258 1.388 . S
C1257 C1256 1.366 . S
C1257 C1261 1.385 . S
C1258 H1239 0.951 . S
C1258 C1256 1.388 . S
C1258 C1259 1.366 . S
C1259 C1258 1.366 . S
C1259 C1260 1.414 . S
C1259 C1262 1.499 . S
C1260 H1240 0.950 . S
C1260 C1259 1.414 . S
C1260 C1261 1.374 . S
C1261 H1241 0.950 . S
C1261 C1257 1.385 . S
C1261 C1260 1.374 . S
C1262 C1259 1.499 . S
C1262 C1263 1.373 . S
C1262 C1264 1.389 . S
C1263 H1242 0.950 . S
C1263 C1262 1.373 . S
C1263 C1279 1.377 . S
C1264 C1262 1.389 . S
C1264 C1265 1.524 . S
C1264 C1278 1.377 1_565 S
C1265 C1264 1.524 . S
C1265 C1266 1.397 . S
C1265 C1270 1.363 . S
C1266 H1243 0.950 . S
C1266 C1265 1.397 . S
C1266 C1267 1.334 1_556 S
C1267 H1244 0.950 . S
C1267 C1266 1.334 1_554 S
C1267 C1268 1.287 . S
C1268 C1267 1.287 . S
C1268 C1269 1.524 . S
C1268 H1287 0.913 . S
C1269 H1245 0.950 . S
C1269 C1268 1.524 . S
C1269 C1270 1.415 1_554 S
C1270 H1246 0.950 . S
C1270 C1265 1.363 . S
C1270 C1269 1.415 1_556 S
C1271 H1247 0.951 . S
C1271 C1272 1.366 . S
C1271 C1273 1.388 . S
C1272 C1271 1.366 . S
C1272 C1276 1.385 . S
C1273 H1248 0.951 . S
C1273 C1271 1.388 . S
C1273 C1274 1.366 . S
C1274 C1273 1.366 . S
C1274 C1275 1.414 . S
C1274 C1277 1.499 . S
C1275 H1249 0.950 . S
C1275 C1274 1.414 . S
C1275 C1276 1.374 . S
C1276 H1250 0.950 . S
C1276 C1272 1.385 . S
C1276 C1275 1.374 . S
C1277 C1274 1.499 . S
C1277 C1278 1.373 . S
C1277 C1279 1.389 1_545 S
C1278 H1251 0.950 . S
C1278 C1264 1.377 1_545 S
C1278 C1277 1.373 . S
C1279 C1263 1.377 . S
C1279 C1277 1.389 1_565 S
C1279 C1280 1.524 . S
C1280 C1279 1.524 . S
C1280 C1281 1.397 . S
C1280 C1285 1.363 . S
C1281 H1252 0.950 . S
C1281 C1280 1.397 . S
C1281 C1282 1.334 . S
C1282 H1253 0.950 . S
C1282 C1281 1.334 . S
C1282 C1283 1.287 . S
C1283 C1282 1.287 . S
C1283 C1284 1.524 . S
C1283 H1286 0.999 . S
C1284 H1254 0.950 . S
C1284 C1283 1.524 . S
C1284 C1285 1.415 . S
C1285 H1255 0.950 . S
C1285 C1280 1.363 . S
C1285 C1284 1.415 . S
H1286 C1283 0.999 . S
H1287 C1268 0.913 . S
H1288 C1306 0.951 . S
H1289 C1308 0.951 . S
H1290 C1310 0.950 . S
H1291 C1311 0.950 1_545 S
H1292 C1313 0.950 . S
H1293 C1316 0.950 . S
H1294 C1317 0.950 . S
H1295 C1319 0.950 . S
H1296 C1320 0.950 . S
H1297 C1321 0.951 . S
H1298 C1323 0.951 . S
H1299 C1325 0.950 . S
H1300 C1326 0.950 . S
H1301 C1328 0.950 . S
H1302 C1331 0.950 . S
H1303 C1332 0.950 . S
H1304 C1334 0.950 1_545 S
H1305 C1335 0.950 . S
C1306 H1288 0.951 . S
C1306 C1307 1.366 . S
C1306 C1308 1.388 . S
C1307 C1306 1.366 . S
C1307 C1311 1.385 . S
C1308 H1289 0.951 . S
C1308 C1306 1.388 . S
C1308 C1309 1.366 . S
C1309 C1308 1.366 . S
C1309 C1310 1.414 . S
C1309 C1312 1.499 . S
C1310 H1290 0.950 . S
C1310 C1309 1.414 . S
C1310 C1311 1.374 . S
C1311 H1291 0.950 1_565 S
C1311 C1307 1.385 . S
C1311 C1310 1.374 . S
C1312 C1309 1.499 . S
C1312 C1313 1.373 . S
C1312 C1314 1.389 . S
C1313 H1292 0.950 . S
C1313 C1312 1.373 . S
C1313 C1329 1.377 . S
C1314 C1312 1.389 . S
C1314 C1315 1.524 . S
C1314 C1328 1.377 . S
C1315 C1314 1.524 . S
C1315 C1316 1.397 . S
C1315 C1320 1.363 . S
C1316 H1293 0.950 . S
C1316 C1315 1.397 . S
C1316 C1317 1.334 . S
C1317 H1294 0.950 . S
C1317 C1316 1.334 . S
C1317 C1318 1.287 . S
C1318 C1317 1.287 . S
C1318 C1319 1.524 . S
C1318 H1337 0.913 . S
C1319 H1295 0.950 . S
C1319 C1318 1.524 . S
C1319 C1320 1.415 . S
C1320 H1296 0.950 . S
C1320 C1315 1.363 . S
C1320 C1319 1.415 . S
C1321 H1297 0.951 . S
C1321 C1322 1.366 . S
C1321 C1323 1.388 . S
C1322 C1321 1.366 . S
C1322 C1326 1.385 . S
C1323 H1298 0.951 . S
C1323 C1321 1.388 . S
C1323 C1324 1.366 . S
C1324 C1323 1.366 . S
C1324 C1325 1.414 . S
C1324 C1327 1.499 . S
C1325 H1299 0.950 . S
C1325 C1324 1.414 . S
C1325 C1326 1.374 . S
C1326 H1300 0.950 . S
C1326 C1322 1.385 . S
C1326 C1325 1.374 . S
C1327 C1324 1.499 . S
C1327 C1328 1.373 . S
C1327 C1329 1.389 . S
C1328 H1301 0.950 . S
C1328 C1314 1.377 . S
C1328 C1327 1.373 . S
C1329 C1313 1.377 . S
C1329 C1327 1.389 . S
C1329 C1330 1.524 . S
C1330 C1329 1.524 . S
C1330 C1331 1.397 . S
C1330 C1335 1.363 . S
C1331 H1302 0.950 . S
C1331 C1330 1.397 . S
C1331 C1332 1.334 . S
C1332 H1303 0.950 . S
C1332 C1331 1.334 . S
C1332 C1333 1.287 . S
C1333 C1332 1.287 . S
C1333 C1334 1.524 . S
C1333 H1336 0.999 . S
C1334 H1304 0.950 1_565 S
C1334 C1333 1.524 . S
C1334 C1335 1.415 . S
C1335 H1305 0.950 . S
C1335 C1330 1.363 . S
C1335 C1334 1.415 . S
H1336 C1333 0.999 . S
H1337 C1318 0.913 . S
H1338 C1356 0.951 . S
H1339 C1358 0.951 . S
H1340 C1360 0.950 . S
H1341 C1361 0.950 . S
H1342 C1363 0.950 . S
H1343 C1366 0.950 . S
H1344 C1367 0.950 . S
H1345 C1369 0.950 . S
H1346 C1370 0.950 . S
H1347 C1371 0.951 . S
H1348 C1373 0.951 . S
H1349 C1375 0.950 . S
H1350 C1376 0.950 . S
H1351 C1378 0.950 1_565 S
H1352 C1381 0.950 . S
H1353 C1382 0.950 . S
H1354 C1384 0.950 . S
H1355 C1385 0.950 . S
C1356 H1338 0.951 . S
C1356 C1357 1.366 . S
C1356 C1358 1.388 . S
C1357 C1356 1.366 . S
C1357 C1361 1.385 . S
C1358 H1339 0.951 . S
C1358 C1356 1.388 . S
C1358 C1359 1.366 . S
C1359 C1358 1.366 . S
C1359 C1360 1.414 . S
C1359 C1362 1.499 . S
C1360 H1340 0.950 . S
C1360 C1359 1.414 . S
C1360 C1361 1.374 . S
C1361 H1341 0.950 . S
C1361 C1357 1.385 . S
C1361 C1360 1.374 . S
C1362 C1359 1.499 . S
C1362 C1363 1.373 . S
C1362 C1364 1.389 . S
C1363 H1342 0.950 . S
C1363 C1362 1.373 . S
C1363 C1379 1.377 . S
C1364 C1362 1.389 . S
C1364 C1365 1.524 . S
C1364 C1378 1.377 . S
C1365 C1364 1.524 . S
C1365 C1366 1.397 . S
C1365 C1370 1.363 . S
C1366 H1343 0.950 . S
C1366 C1365 1.397 . S
C1366 C1367 1.334 . S
C1367 H1344 0.950 . S
C1367 C1366 1.334 . S
C1367 C1368 1.287 . S
C1368 C1367 1.287 . S
C1368 C1369 1.524 . S
C1368 H1387 0.913 . S
C1369 H1345 0.950 . S
C1369 C1368 1.524 . S
C1369 C1370 1.415 . S
C1370 H1346 0.950 . S
C1370 C1365 1.363 . S
C1370 C1369 1.415 . S
C1371 H1347 0.951 . S
C1371 C1372 1.366 . S
C1371 C1373 1.388 . S
C1372 C1371 1.366 . S
C1372 C1376 1.385 . S
C1373 H1348 0.951 . S
C1373 C1371 1.388 . S
C1373 C1374 1.366 . S
C1374 C1373 1.366 . S
C1374 C1375 1.414 . S
C1374 C1377 1.499 . S
C1375 H1349 0.950 . S
C1375 C1374 1.414 . S
C1375 C1376 1.374 . S
C1376 H1350 0.950 . S
C1376 C1372 1.385 . S
C1376 C1375 1.374 . S
C1377 C1374 1.499 . S
C1377 C1378 1.373 1_565 S
C1377 C1379 1.389 1_565 S
C1378 H1351 0.950 1_545 S
C1378 C1364 1.377 . S
C1378 C1377 1.373 1_545 S
C1379 C1363 1.377 . S
C1379 C1377 1.389 1_545 S
C1379 C1380 1.524 . S
C1380 C1379 1.524 . S
C1380 C1381 1.397 . S
C1380 C1385 1.363 . S
C1381 H1352 0.950 . S
C1381 C1380 1.397 . S
C1381 C1382 1.334 . S
C1382 H1353 0.950 . S
C1382 C1381 1.334 . S
C1382 C1383 1.287 . S
C1383 C1382 1.287 . S
C1383 C1384 1.524 . S
C1383 H1386 0.999 . S
C1384 H1354 0.950 . S
C1384 C1383 1.524 . S
C1384 C1385 1.415 . S
C1385 H1355 0.950 . S
C1385 C1380 1.363 . S
C1385 C1384 1.415 . S
H1386 C1383 0.999 . S
H1387 C1368 0.913 . S
H1388 C1406 0.951 . S
H1389 C1408 0.951 . S
H1390 C1410 0.950 . S
H1391 C1411 0.950 . S
H1392 C1413 0.950 . S
H1393 C1416 0.950 . S
H1394 C1417 0.950 . S
H1395 C1419 0.950 . S
H1396 C1420 0.950 . S
H1397 C1421 0.951 . S
H1398 C1423 0.951 . S
H1399 C1425 0.950 . S
H1400 C1426 0.950 . S
H1401 C1428 0.950 . S
H1402 C1431 0.950 . S
H1403 C1432 0.950 . S
H1404 C1434 0.976 . S
H1405 C1435 0.950 . S
C1406 H1388 0.951 . S
C1406 C1407 1.366 . S
C1406 C1408 1.388 . S
C1407 C1406 1.366 . S
C1407 C1411 1.385 . S
C1408 H1389 0.951 . S
C1408 C1406 1.388 . S
C1408 C1409 1.366 . S
C1409 C1408 1.366 . S
C1409 C1410 1.414 . S
C1409 C1412 1.499 . S
C1410 H1390 0.950 . S
C1410 C1409 1.414 . S
C1410 C1411 1.374 . S
C1411 H1391 0.950 . S
C1411 C1407 1.385 . S
C1411 C1410 1.374 . S
C1412 C1409 1.499 . S
C1412 C1413 1.373 . S
C1412 C1414 1.389 . S
C1413 H1392 0.950 . S
C1413 C1412 1.373 . S
C1413 C1429 1.377 . S
C1414 C1412 1.389 . S
C1414 C1415 1.524 . S
C1414 C1428 1.377 . S
C1415 C1414 1.524 . S
C1415 C1416 1.397 . S
C1415 C1420 1.363 . S
C1416 H1393 0.950 . S
C1416 C1415 1.397 . S
C1416 C1417 1.334 . S
C1417 H1394 0.950 . S
C1417 C1416 1.334 . S
C1417 C1418 1.287 . S
C1418 C1417 1.287 . S
C1418 C1419 1.524 . S
C1418 H1437 0.913 . S
C1419 H1395 0.950 . S
C1419 C1418 1.524 . S
C1419 C1420 1.415 . S
C1420 H1396 0.950 . S
C1420 C1415 1.363 . S
C1420 C1419 1.415 . S
C1421 H1397 0.951 . S
C1421 C1422 1.366 . S
C1421 C1423 1.388 . S
C1422 C1421 1.366 . S
C1422 C1426 1.385 . S
C1423 H1398 0.951 . S
C1423 C1421 1.388 . S
C1423 C1424 1.366 . S
C1424 C1423 1.366 . S
C1424 C1425 1.414 . S
C1424 C1427 1.499 . S
C1425 H1399 0.950 . S
C1425 C1424 1.414 . S
C1425 C1426 1.374 . S
C1426 H1400 0.950 . S
C1426 C1422 1.385 . S
C1426 C1425 1.374 . S
C1427 C1424 1.499 . S
C1427 C1428 1.373 . S
C1427 C1429 1.389 . S
C1428 H1401 0.950 . S
C1428 C1414 1.377 . S
C1428 C1427 1.373 . S
C1429 C1413 1.377 . S
C1429 C1427 1.389 . S
C1429 C1430 1.524 . S
C1430 C1429 1.524 . S
C1430 C1431 1.397 . S
C1430 C1435 1.363 . S
C1431 H1402 0.950 . S
C1431 C1430 1.397 . S
C1431 C1432 1.334 . S
C1432 H1403 0.950 . S
C1432 C1431 1.334 . S
C1432 C1433 1.287 . S
C1433 C1432 1.287 . S
C1433 C1434 1.524 . S
C1433 H1436 0.999 . S
C1434 H1404 0.976 . S
C1434 C1433 1.524 . S
C1434 C1435 1.415 . S
C1435 H1405 0.950 . S
C1435 C1430 1.363 . S
C1435 C1434 1.415 . S
H1436 C1433 0.999 . S
H1437 C1418 0.913 . S
H1438 C1456 0.951 . S
H1439 C1458 0.951 . S
H1440 C1460 0.950 . S
H1441 C1461 0.950 . S
H1442 C1463 0.950 . S
H1443 C1466 0.950 . S
H1444 C1467 0.950 . S
H1445 C1469 0.950 . S
H1446 C1470 0.950 1_545 S
H1447 C1471 0.951 . S
H1448 C1473 0.951 . S
H1449 C1475 0.950 . S
H1450 C1476 0.950 . S
H1451 C1478 0.950 . S
H1452 C1481 0.950 . S
H1453 C1482 0.950 . S
H1454 C1484 0.931 1_565 S
H1455 C1485 0.950 . S
C1456 H1438 0.951 . S
C1456 C1457 1.366 . S
C1456 C1458 1.388 . S
C1457 C1456 1.366 . S
C1457 C1461 1.385 . S
C1458 H1439 0.951 . S
C1458 C1456 1.388 . S
C1458 C1459 1.366 . S
C1459 C1458 1.366 . S
C1459 C1460 1.414 . S
C1459 C1462 1.499 . S
C1460 H1440 0.950 . S
C1460 C1459 1.414 . S
C1460 C1461 1.374 . S
C1461 H1441 0.950 . S
C1461 C1457 1.385 . S
C1461 C1460 1.374 . S
C1462 C1459 1.499 . S
C1462 C1463 1.373 . S
C1462 C1464 1.389 . S
C1463 H1442 0.950 . S
C1463 C1462 1.373 . S
C1463 C1479 1.354 1_565 S
C1464 C1462 1.389 . S
C1464 C1465 1.524 . S
C1464 C1478 1.377 1_565 S
C1465 C1464 1.524 . S
C1465 C1466 1.397 . S
C1465 C1470 1.363 . S
C1466 H1443 0.950 . S
C1466 C1465 1.397 . S
C1466 C1467 1.334 . S
C1467 H1444 0.950 . S
C1467 C1466 1.334 . S
C1467 C1468 1.287 . S
C1468 C1467 1.287 . S
C1468 C1469 1.524 . S
C1468 H1487 0.913 . S
C1469 H1445 0.950 . S
C1469 C1468 1.524 . S
C1469 C1470 1.415 . S
C1470 H1446 0.950 1_565 S
C1470 C1465 1.363 . S
C1470 C1469 1.415 . S
C1471 H1447 0.951 . S
C1471 C1472 1.366 . S
C1471 C1473 1.388 . S
C1472 C1471 1.366 . S
C1472 C1476 1.385 . S
C1473 H1448 0.951 . S
C1473 C1471 1.388 . S
C1473 C1474 1.366 . S
C1474 C1473 1.366 . S
C1474 C1475 1.414 . S
C1474 C1477 1.499 . S
C1475 H1449 0.950 . S
C1475 C1474 1.414 . S
C1475 C1476 1.374 . S
C1476 H1450 0.950 . S
C1476 C1472 1.385 . S
C1476 C1475 1.374 . S
C1477 C1474 1.499 . S
C1477 C1478 1.373 . S
C1477 C1479 1.403 . S
C1478 H1451 0.950 . S
C1478 C1464 1.377 1_545 S
C1478 C1477 1.373 . S
C1479 C1463 1.354 1_545 S
C1479 C1477 1.403 . S
C1479 C1480 1.533 . S
C1480 C1479 1.533 . S
C1480 C1481 1.397 . S
C1480 C1485 1.363 1_545 S
C1481 H1452 0.950 . S
C1481 C1480 1.397 . S
C1481 C1482 1.334 . S
C1482 H1453 0.950 . S
C1482 C1481 1.334 . S
C1482 C1483 1.287 . S
C1483 C1482 1.287 . S
C1483 C1484 1.556 . S
C1483 H1486 0.999 . S
C1484 H1454 0.931 1_545 S
C1484 C1483 1.556 . S
C1484 C1485 1.405 1_545 S
C1485 H1455 0.950 . S
C1485 C1480 1.363 1_565 S
C1485 C1484 1.405 1_565 S
H1486 C1483 0.999 . S
H1487 C1468 0.913 . S
H1488 C1506 0.951 . S
H1489 C1508 0.951 . S
H1490 C1510 0.950 . S
H1491 C1511 0.950 . S
H1492 C1513 0.950 . S
H1493 C1516 0.950 . S
H1494 C1517 0.950 . S
H1495 C1519 0.950 . S
H1496 C1520 0.950 . S
H1497 C1521 0.951 . S
H1498 C1523 0.951 . S
H1499 C1525 0.950 . S
H1500 C1526 0.950 . S
H1501 C1528 0.950 . S
H1502 C1531 0.950 . S
H1503 C1532 0.950 . S
H1504 C1534 0.950 . S
H1505 C1535 0.950 . S
C1506 H1488 0.951 . S
C1506 C1507 1.366 . S
C1506 C1508 1.388 . S
C1507 C1506 1.366 . S
C1507 C1511 1.385 . S
C1508 H1489 0.951 . S
C1508 C1506 1.388 . S
C1508 C1509 1.366 . S
C1509 C1508 1.366 . S
C1509 C1510 1.414 . S
C1509 C1512 1.499 . S
C1510 H1490 0.950 . S
C1510 C1509 1.414 . S
C1510 C1511 1.374 . S
C1511 H1491 0.950 . S
C1511 C1507 1.385 . S
C1511 C1510 1.374 . S
C1512 C1509 1.499 . S
C1512 C1513 1.373 . S
C1512 C1514 1.389 . S
C1513 H1492 0.950 . S
C1513 C1512 1.373 . S
C1513 C1529 1.377 . S
C1514 C1512 1.389 . S
C1514 C1515 1.524 . S
C1514 C1528 1.377 . S
C1515 C1514 1.524 . S
C1515 C1516 1.397 . S
C1515 C1520 1.363 . S
C1516 H1493 0.950 . S
C1516 C1515 1.397 . S
C1516 C1517 1.334 . S
C1517 H1494 0.950 . S
C1517 C1516 1.334 . S
C1517 C1518 1.287 . S
C1518 C1517 1.287 . S
C1518 C1519 1.524 . S
C1518 H1537 0.913 . S
C1519 H1495 0.950 . S
C1519 C1518 1.524 . S
C1519 C1520 1.415 . S
C1520 H1496 0.950 . S
C1520 C1515 1.363 . S
C1520 C1519 1.415 . S
C1521 H1497 0.951 . S
C1521 C1522 1.366 . S
C1521 C1523 1.388 . S
C1522 C1521 1.366 . S
C1522 C1526 1.385 . S
C1523 H1498 0.951 . S
C1523 C1521 1.388 . S
C1523 C1524 1.366 . S
C1524 C1523 1.366 . S
C1524 C1525 1.414 . S
C1524 C1527 1.499 . S
C1525 H1499 0.950 . S
C1525 C1524 1.414 . S
C1525 C1526 1.374 . S
C1526 H1500 0.950 . S
C1526 C1522 1.385 . S
C1526 C1525 1.374 . S
C1527 C1524 1.499 . S
C1527 C1528 1.373 . S
C1527 C1529 1.389 . S
C1528 H1501 0.950 . S
C1528 C1514 1.377 . S
C1528 C1527 1.373 . S
C1529 C1513 1.377 . S
C1529 C1527 1.389 . S
C1529 C1530 1.524 . S
C1530 C1529 1.524 . S
C1530 C1531 1.397 . S
C1530 C1535 1.363 . S
C1531 H1502 0.950 . S
C1531 C1530 1.397 . S
C1531 C1532 1.334 . S
C1532 H1503 0.950 . S
C1532 C1531 1.334 . S
C1532 C1533 1.287 . S
C1533 C1532 1.287 . S
C1533 C1534 1.524 . S
C1533 H1536 0.999 . S
C1534 H1504 0.950 . S
C1534 C1533 1.524 . S
C1534 C1535 1.415 . S
C1535 H1505 0.950 . S
C1535 C1530 1.363 . S
C1535 C1534 1.415 . S
H1536 C1533 0.999 . S
H1537 C1518 0.913 . S
H1538 C1556 0.951 . S
H1539 C1558 0.951 . S
H1540 C1560 0.950 . S
H1541 C1561 0.950 . S
H1542 C1563 0.950 . S
H1543 C1566 0.950 . S
H1544 C1567 0.950 . S
H1545 C1569 0.950 . S
H1546 C1570 0.950 . S
H1547 C1571 0.951 . S
H1548 C1573 0.951 . S
H1549 C1575 0.950 . S
H1550 C1576 0.950 . S
H1551 C1578 0.950 . S
H1552 C1581 0.950 . S
H1553 C1582 0.950 . S
H1554 C1584 0.950 . S
H1555 C1585 0.950 . S
C1556 H1538 0.951 . S
C1556 C1557 1.366 . S
C1556 C1558 1.388 . S
C1557 C1556 1.366 . S
C1557 C1561 1.385 . S
C1558 H1539 0.951 . S
C1558 C1556 1.388 . S
C1558 C1559 1.366 . S
C1559 C1558 1.366 . S
C1559 C1560 1.414 . S
C1559 C1562 1.499 . S
C1560 H1540 0.950 . S
C1560 C1559 1.414 . S
C1560 C1561 1.374 . S
C1561 H1541 0.950 . S
C1561 C1557 1.385 . S
C1561 C1560 1.374 . S
C1562 C1559 1.499 . S
C1562 C1563 1.373 . S
C1562 C1564 1.389 . S
C1563 H1542 0.950 . S
C1563 C1562 1.373 . S
C1563 C1579 1.377 . S
C1564 C1562 1.389 . S
C1564 C1565 1.524 . S
C1564 C1578 1.377 . S
C1565 C1564 1.524 . S
C1565 C1566 1.397 . S
C1565 C1570 1.363 . S
C1566 H1543 0.950 . S
C1566 C1565 1.397 . S
C1566 C1567 1.334 1_556 S
C1567 H1544 0.950 . S
C1567 C1566 1.334 1_554 S
C1567 C1568 1.287 . S
C1568 C1567 1.287 . S
C1568 C1569 1.524 . S
C1568 H1587 0.913 . S
C1569 H1545 0.950 . S
C1569 C1568 1.524 . S
C1569 C1570 1.415 1_554 S
C1570 H1546 0.950 . S
C1570 C1565 1.363 . S
C1570 C1569 1.415 1_556 S
C1571 H1547 0.951 . S
C1571 C1572 1.366 . S
C1571 C1573 1.388 . S
C1572 C1571 1.366 . S
C1572 C1576 1.385 . S
C1573 H1548 0.951 . S
C1573 C1571 1.388 . S
C1573 C1574 1.366 . S
C1574 C1573 1.366 . S
C1574 C1575 1.414 . S
C1574 C1577 1.499 . S
C1575 H1549 0.950 . S
C1575 C1574 1.414 . S
C1575 C1576 1.374 . S
C1576 H1550 0.950 . S
C1576 C1572 1.385 . S
C1576 C1575 1.374 . S
C1577 C1574 1.499 . S
C1577 C1578 1.373 . S
C1577 C1579 1.389 . S
C1578 H1551 0.950 . S
C1578 C1564 1.377 . S
C1578 C1577 1.373 . S
C1579 C1563 1.377 . S
C1579 C1577 1.389 . S
C1579 C1580 1.524 . S
C1580 C1579 1.524 . S
C1580 C1581 1.397 . S
C1580 C1585 1.363 . S
C1581 H1552 0.950 . S
C1581 C1580 1.397 . S
C1581 C1582 1.334 . S
C1582 H1553 0.950 . S
C1582 C1581 1.334 . S
C1582 C1583 1.287 . S
C1583 C1582 1.287 . S
C1583 C1584 1.524 . S
C1583 H1586 0.999 . S
C1584 H1554 0.950 . S
C1584 C1583 1.524 . S
C1584 C1585 1.415 . S
C1585 H1555 0.950 . S
C1585 C1580 1.363 . S
C1585 C1584 1.415 . S
H1586 C1583 0.999 . S
H1587 C1568 0.913 . S
H1588 C1606 0.951 . S
H1589 C1608 0.951 . S
H1590 C1610 0.950 . S
H1591 C1611 0.950 . S
H1592 C1613 0.950 . S
H1593 C1616 0.950 . S
H1594 C1617 0.950 . S
H1595 C1619 0.950 . S
H1596 C1620 0.950 . S
H1597 C1621 0.951 . S
H1598 C1623 0.951 . S
H1599 C1625 0.950 . S
H1600 C1626 0.950 . S
H1601 C1628 0.950 . S
H1602 C1631 0.950 . S
H1603 C1632 0.950 . S
H1604 C1634 0.950 . S
H1605 C1635 0.950 . S
C1606 H1588 0.951 . S
C1606 C1607 1.366 . S
C1606 C1608 1.388 . S
C1607 C1606 1.366 . S
C1607 C1611 1.385 . S
C1608 H1589 0.951 . S
C1608 C1606 1.388 . S
C1608 C1609 1.366 . S
C1609 C1608 1.366 . S
C1609 C1610 1.414 . S
C1609 C1612 1.499 . S
C1610 H1590 0.950 . S
C1610 C1609 1.414 . S
C1610 C1611 1.374 . S
C1611 H1591 0.950 . S
C1611 C1607 1.385 . S
C1611 C1610 1.374 . S
C1612 C1609 1.499 . S
C1612 C1613 1.373 . S
C1612 C1614 1.389 . S
C1613 H1592 0.950 . S
C1613 C1612 1.373 . S
C1613 C1629 1.377 1_455 S
C1614 C1612 1.389 . S
C1614 C1615 1.524 . S
C1614 C1628 1.377 . S
C1615 C1614 1.524 . S
C1615 C1616 1.397 . S
C1615 C1620 1.363 . S
C1616 H1593 0.950 . S
C1616 C1615 1.397 . S
C1616 C1617 1.334 . S
C1617 H1594 0.950 . S
C1617 C1616 1.334 . S
C1617 C1618 1.287 . S
C1618 C1617 1.287 . S
C1618 C1619 1.524 . S
C1618 H1637 0.913 . S
C1619 H1595 0.950 . S
C1619 C1618 1.524 . S
C1619 C1620 1.415 . S
C1620 H1596 0.950 . S
C1620 C1615 1.363 . S
C1620 C1619 1.415 . S
C1621 H1597 0.951 . S
C1621 C1622 1.366 . S
C1621 C1623 1.388 . S
C1622 C1621 1.366 . S
C1622 C1626 1.385 . S
C1623 H1598 0.951 . S
C1623 C1621 1.388 . S
C1623 C1624 1.366 . S
C1624 C1623 1.366 . S
C1624 C1625 1.414 . S
C1624 C1627 1.499 . S
C1625 H1599 0.950 . S
C1625 C1624 1.414 . S
C1625 C1626 1.374 . S
C1626 H1600 0.950 . S
C1626 C1622 1.385 . S
C1626 C1625 1.374 . S
C1627 C1624 1.499 . S
C1627 C1628 1.373 1_655 S
C1627 C1629 1.389 . S
C1628 H1601 0.950 . S
C1628 C1614 1.377 . S
C1628 C1627 1.373 1_455 S
C1629 C1613 1.377 1_655 S
C1629 C1627 1.389 . S
C1629 C1630 1.524 . S
C1630 C1629 1.524 . S
C1630 C1631 1.397 . S
C1630 C1635 1.363 . S
C1631 H1602 0.950 . S
C1631 C1630 1.397 . S
C1631 C1632 1.334 . S
C1632 H1603 0.950 . S
C1632 C1631 1.334 . S
C1632 C1633 1.287 . S
C1633 C1632 1.287 . S
C1633 C1634 1.524 . S
C1633 H1636 0.999 . S
C1634 H1604 0.950 . S
C1634 C1633 1.524 . S
C1634 C1635 1.415 . S
C1635 H1605 0.950 . S
C1635 C1630 1.363 . S
C1635 C1634 1.415 . S
H1636 C1633 0.999 . S
H1637 C1618 0.913 . S
H1638 C1656 0.951 . S
H1639 C1658 0.951 . S
H1640 C1660 0.950 . S
H1641 C1661 0.950 . S
H1642 C1663 0.950 . S
H1643 C1666 0.950 . S
H1644 C1667 0.950 . S
H1645 C1669 0.950 . S
H1646 C1670 0.950 . S
H1647 C1671 0.951 . S
H1648 C1673 0.951 . S
H1649 C1675 0.950 . S
H1650 C1676 0.950 . S
H1651 C1678 0.950 . S
H1652 C1681 0.950 . S
H1653 C1682 0.950 . S
H1654 C1684 0.950 . S
H1655 C1685 0.950 . S
C1656 H1638 0.951 . S
C1656 C1657 1.366 . S
C1656 C1658 1.388 . S
C1657 C1656 1.366 . S
C1657 C1661 1.385 . S
C1658 H1639 0.951 . S
C1658 C1656 1.388 . S
C1658 C1659 1.366 . S
C1659 C1658 1.366 . S
C1659 C1660 1.414 . S
C1659 C1662 1.499 . S
C1660 H1640 0.950 . S
C1660 C1659 1.414 . S
C1660 C1661 1.374 . S
C1661 H1641 0.950 . S
C1661 C1657 1.385 . S
C1661 C1660 1.374 . S
C1662 C1659 1.499 . S
C1662 C1663 1.373 . S
C1662 C1664 1.389 . S
C1663 H1642 0.950 . S
C1663 C1662 1.373 . S
C1663 C1679 1.377 . S
C1664 C1662 1.389 . S
C1664 C1665 1.524 . S
C1664 C1678 1.377 . S
C1665 C1664 1.524 . S
C1665 C1666 1.397 . S
C1665 C1670 1.363 . S
C1666 H1643 0.950 . S
C1666 C1665 1.397 . S
C1666 C1667 1.334 . S
C1667 H1644 0.950 . S
C1667 C1666 1.334 . S
C1667 C1668 1.287 . S
C1668 C1667 1.287 . S
C1668 C1669 1.524 . S
C1668 H1687 0.913 . S
C1669 H1645 0.950 . S
C1669 C1668 1.524 . S
C1669 C1670 1.415 . S
C1670 H1646 0.950 . S
C1670 C1665 1.363 . S
C1670 C1669 1.415 . S
C1671 H1647 0.951 . S
C1671 C1672 1.366 . S
C1671 C1673 1.388 . S
C1672 C1671 1.366 . S
C1672 C1676 1.385 . S
C1673 H1648 0.951 . S
C1673 C1671 1.388 . S
C1673 C1674 1.366 . S
C1674 C1673 1.366 . S
C1674 C1675 1.414 . S
C1674 C1677 1.499 . S
C1675 H1649 0.950 . S
C1675 C1674 1.414 . S
C1675 C1676 1.374 . S
C1676 H1650 0.950 . S
C1676 C1672 1.385 . S
C1676 C1675 1.374 . S
C1677 C1674 1.499 . S
C1677 C1678 1.373 . S
C1677 C1679 1.389 . S
C1678 H1651 0.950 . S
C1678 C1664 1.377 . S
C1678 C1677 1.373 . S
C1679 C1663 1.377 . S
C1679 C1677 1.389 . S
C1679 C1680 1.524 . S
C1680 C1679 1.524 . S
C1680 C1681 1.397 . S
C1680 C1685 1.363 . S
C1681 H1652 0.950 . S
C1681 C1680 1.397 . S
C1681 C1682 1.334 . S
C1682 H1653 0.950 . S
C1682 C1681 1.334 . S
C1682 C1683 1.287 . S
C1683 C1682 1.287 . S
C1683 C1684 1.524 . S
C1683 H1686 0.999 . S
C1684 H1654 0.950 . S
C1684 C1683 1.524 . S
C1684 C1685 1.415 . S
C1685 H1655 0.950 . S
C1685 C1680 1.363 . S
C1685 C1684 1.415 . S
H1686 C1683 0.999 . S
H1687 C1668 0.913 . S
H1688 C1706 0.951 . S
H1689 C1708 0.951 . S
H1690 C1710 0.950 . S
H1691 C1711 0.950 . S
H1692 C1713 0.950 . S
H1693 C1716 0.950 . S
H1694 C1717 0.944 1_565 S
H1695 C1719 0.950 . S
H1696 C1720 0.950 . S
H1697 C1721 0.951 . S
H1698 C1723 0.951 . S
H1699 C1725 0.950 . S
H1700 C1726 0.950 . S
H1701 C1728 0.950 . S
H1702 C1731 0.950 . S
H1703 C1732 0.950 . S
H1704 C1734 0.950 . S
H1705 C1735 0.950 . S
C1706 H1688 0.951 . S
C1706 C1707 1.366 . S
C1706 C1708 1.388 . S
C1707 C1706 1.366 . S
C1707 C1711 1.385 . S
C1708 H1689 0.951 . S
C1708 C1706 1.388 . S
C1708 C1709 1.366 . S
C1709 C1708 1.366 . S
C1709 C1710 1.414 . S
C1709 C1712 1.499 . S
C1710 H1690 0.950 . S
C1710 C1709 1.414 . S
C1710 C1711 1.374 . S
C1711 H1691 0.950 . S
C1711 C1707 1.385 . S
C1711 C1710 1.374 . S
C1712 C1709 1.499 . S
C1712 C1713 1.373 . S
C1712 C1714 1.389 . S
C1713 H1692 0.950 . S
C1713 C1712 1.373 . S
C1713 C1729 1.377 . S
C1714 C1712 1.389 . S
C1714 C1715 1.524 . S
C1714 C1728 1.377 1_655 S
C1715 C1714 1.524 . S
C1715 C1716 1.397 . S
C1715 C1720 1.363 . S
C1716 H1693 0.950 . S
C1716 C1715 1.397 . S
C1716 C1717 1.334 . S
C1717 H1694 0.944 1_545 S
C1717 C1716 1.334 . S
C1717 C1718 1.287 1_545 S
C1718 C1717 1.287 1_565 S
C1718 C1719 1.524 . S
C1718 H1737 0.913 . S
C1719 H1695 0.950 . S
C1719 C1718 1.524 . S
C1719 C1720 1.415 1_565 S
C1720 H1696 0.950 . S
C1720 C1715 1.363 . S
C1720 C1719 1.415 1_545 S
C1721 H1697 0.951 . S
C1721 C1722 1.366 . S
C1721 C1723 1.388 . S
C1722 C1721 1.366 . S
C1722 C1726 1.385 . S
C1723 H1698 0.951 . S
C1723 C1721 1.388 . S
C1723 C1724 1.366 . S
C1724 C1723 1.366 . S
C1724 C1725 1.414 . S
C1724 C1727 1.499 . S
C1725 H1699 0.950 . S
C1725 C1724 1.414 . S
C1725 C1726 1.374 . S
C1726 H1700 0.950 . S
C1726 C1722 1.385 . S
C1726 C1725 1.374 . S
C1727 C1724 1.499 . S
C1727 C1728 1.373 . S
C1727 C1729 1.389 1_455 S
C1728 H1701 0.950 . S
C1728 C1714 1.377 1_455 S
C1728 C1727 1.373 . S
C1729 C1713 1.377 . S
C1729 C1727 1.389 1_655 S
C1729 C1730 1.524 . S
C1730 C1729 1.524 . S
C1730 C1731 1.397 . S
C1730 C1735 1.363 . S
C1731 H1702 0.950 . S
C1731 C1730 1.397 . S
C1731 C1732 1.334 . S
C1732 H1703 0.950 . S
C1732 C1731 1.334 . S
C1732 C1733 1.287 . S
C1733 C1732 1.287 . S
C1733 C1734 1.524 . S
C1733 H1736 0.999 . S
C1734 H1704 0.950 . S
C1734 C1733 1.524 . S
C1734 C1735 1.415 . S
C1735 H1705 0.950 . S
C1735 C1730 1.363 . S
C1735 C1734 1.415 . S
H1736 C1733 0.999 . S
H1737 C1718 0.913 . S
H1738 C1756 0.951 . S
H1739 C1758 0.951 . S
H1740 C1760 0.950 . S
H1741 C1761 0.950 . S
H1742 C1763 0.950 . S
H1743 C1766 0.950 . S
H1744 C1767 0.950 . S
H1745 C1769 0.950 . S
H1746 C1770 0.950 . S
H1747 C1771 0.951 . S
H1748 C1773 0.951 . S
H1749 C1775 0.950 . S
H1750 C1776 0.950 . S
H1751 C1778 0.950 . S
H1752 C1781 0.950 . S
H1753 C1782 0.950 . S
H1754 C1784 0.950 . S
H1755 C1785 0.950 . S
C1756 H1738 0.951 . S
C1756 C1757 1.366 . S
C1756 C1758 1.388 . S
C1757 C1756 1.366 . S
C1757 C1761 1.385 . S
C1758 H1739 0.951 . S
C1758 C1756 1.388 . S
C1758 C1759 1.366 . S
C1759 C1758 1.366 . S
C1759 C1760 1.414 . S
C1759 C1762 1.499 . S
C1760 H1740 0.950 . S
C1760 C1759 1.414 . S
C1760 C1761 1.374 . S
C1761 H1741 0.950 . S
C1761 C1757 1.385 . S
C1761 C1760 1.374 . S
C1762 C1759 1.499 . S
C1762 C1763 1.373 . S
C1762 C1764 1.389 . S
C1763 H1742 0.950 . S
C1763 C1762 1.373 . S
C1763 C1779 1.377 . S
C1764 C1762 1.389 . S
C1764 C1765 1.524 . S
C1764 C1778 1.377 . S
C1765 C1764 1.524 . S
C1765 C1766 1.397 . S
C1765 C1770 1.363 . S
C1766 H1743 0.950 . S
C1766 C1765 1.397 . S
C1766 C1767 1.334 . S
C1767 H1744 0.950 . S
C1767 C1766 1.334 . S
C1767 C1768 1.287 . S
C1768 C1767 1.287 . S
C1768 C1769 1.524 . S
C1768 H1787 0.913 . S
C1769 H1745 0.950 . S
C1769 C1768 1.524 . S
C1769 C1770 1.415 . S
C1770 H1746 0.950 . S
C1770 C1765 1.363 . S
C1770 C1769 1.415 . S
C1771 H1747 0.951 . S
C1771 C1772 1.366 . S
C1771 C1773 1.388 . S
C1772 C1771 1.366 . S
C1772 C1776 1.385 . S
C1773 H1748 0.951 . S
C1773 C1771 1.388 . S
C1773 C1774 1.366 . S
C1774 C1773 1.366 . S
C1774 C1775 1.414 . S
C1774 C1777 1.499 . S
C1775 H1749 0.950 . S
C1775 C1774 1.414 . S
C1775 C1776 1.374 . S
C1776 H1750 0.950 . S
C1776 C1772 1.385 . S
C1776 C1775 1.374 . S
C1777 C1774 1.499 . S
C1777 C1778 1.373 . S
C1777 C1779 1.389 . S
C1778 H1751 0.950 . S
C1778 C1764 1.377 . S
C1778 C1777 1.373 . S
C1779 C1763 1.377 . S
C1779 C1777 1.389 . S
C1779 C1780 1.524 . S
C1780 C1779 1.524 . S
C1780 C1781 1.397 . S
C1780 C1785 1.363 . S
C1781 H1752 0.950 . S
C1781 C1780 1.397 . S
C1781 C1782 1.334 . S
C1782 H1753 0.950 . S
C1782 C1781 1.334 . S
C1782 C1783 1.287 . S
C1783 C1782 1.287 . S
C1783 C1784 1.524 . S
C1783 H1786 0.999 . S
C1784 H1754 0.950 . S
C1784 C1783 1.524 . S
C1784 C1785 1.415 . S
C1785 H1755 0.950 . S
C1785 C1780 1.363 . S
C1785 C1784 1.415 . S
H1786 C1783 0.999 . S
H1787 C1768 0.913 . S
H1788 C1806 0.951 . S
H1789 C1808 0.951 . S
H1790 C1810 0.950 . S
H1791 C1811 0.950 . S
H1792 C1813 0.950 . S
H1793 C1816 0.950 . S
H1794 C1817 0.950 . S
H1795 C1819 0.950 . S
H1796 C1820 0.950 . S
H1797 C1821 0.951 . S
H1798 C1823 0.951 . S
H1799 C1825 0.950 . S
H1800 C1826 0.950 . S
H1801 C1828 0.950 . S
H1802 C1831 0.950 1_655 S
H1803 C1832 0.950 . S
H1804 C1834 0.950 . S
H1805 C1835 0.950 . S
C1806 H1788 0.951 . S
C1806 C1807 1.366 . S
C1806 C1808 1.388 . S
C1807 C1806 1.366 . S
C1807 C1811 1.385 . S
C1808 H1789 0.951 . S
C1808 C1806 1.388 . S
C1808 C1809 1.366 . S
C1809 C1808 1.366 . S
C1809 C1810 1.414 . S
C1809 C1812 1.499 . S
C1810 H1790 0.950 . S
C1810 C1809 1.414 . S
C1810 C1811 1.374 . S
C1811 H1791 0.950 . S
C1811 C1807 1.385 . S
C1811 C1810 1.374 . S
C1812 C1809 1.499 . S
C1812 C1813 1.373 . S
C1812 C1814 1.389 . S
C1813 H1792 0.950 . S
C1813 C1812 1.373 . S
C1813 C1829 1.377 . S
C1814 C1812 1.389 . S
C1814 C1815 1.524 . S
C1814 C1828 1.377 1_455 S
C1815 C1814 1.524 . S
C1815 C1816 1.397 . S
C1815 C1820 1.363 1_455 S
C1816 H1793 0.950 . S
C1816 C1815 1.397 . S
C1816 C1817 1.334 . S
C1817 H1794 0.950 . S
C1817 C1816 1.334 . S
C1817 C1818 1.287 1_455 S
C1818 C1817 1.287 1_655 S
C1818 C1819 1.524 . S
C1818 H1837 0.913 . S
C1819 H1795 0.950 . S
C1819 C1818 1.524 . S
C1819 C1820 1.415 . S
C1820 H1796 0.950 . S
C1820 C1815 1.363 1_655 S
C1820 C1819 1.415 . S
C1821 H1797 0.951 . S
C1821 C1822 1.366 . S
C1821 C1823 1.388 . S
C1822 C1821 1.366 . S
C1822 C1826 1.385 . S
C1823 H1798 0.951 . S
C1823 C1821 1.388 . S
C1823 C1824 1.366 . S
C1824 C1823 1.366 . S
C1824 C1825 1.414 . S
C1824 C1827 1.499 . S
C1825 H1799 0.950 . S
C1825 C1824 1.414 . S
C1825 C1826 1.374 . S
C1826 H1800 0.950 . S
C1826 C1822 1.385 . S
C1826 C1825 1.374 . S
C1827 C1824 1.499 . S
C1827 C1828 1.373 . S
C1827 C1829 1.389 1_655 S
C1828 H1801 0.950 . S
C1828 C1814 1.377 1_655 S
C1828 C1827 1.373 . S
C1829 C1813 1.377 . S
C1829 C1827 1.389 1_455 S
C1829 C1830 1.524 . S
C1830 C1829 1.524 . S
C1830 C1831 1.397 . S
C1830 C1835 1.363 . S
C1831 H1802 0.950 1_455 S
C1831 C1830 1.397 . S
C1831 C1832 1.334 . S
C1832 H1803 0.950 . S
C1832 C1831 1.334 . S
C1832 C1833 1.287 . S
C1833 C1832 1.287 . S
C1833 C1834 1.524 . S
C1833 H1836 0.999 . S
C1834 H1804 0.950 . S
C1834 C1833 1.524 . S
C1834 C1835 1.415 . S
C1835 H1805 0.950 . S
C1835 C1830 1.363 . S
C1835 C1834 1.415 . S
H1836 C1833 0.999 . S
H1837 C1818 0.913 . S
H1838 C1856 0.951 . S
H1839 C1858 0.951 . S
H1840 C1860 0.950 . S
H1841 C1861 0.950 . S
H1842 C1863 0.950 . S
H1843 C1866 0.950 . S
H1844 C1867 0.950 . S
H1845 C1869 0.950 . S
H1846 C1870 0.950 . S
H1847 C1871 0.951 . S
H1848 C1873 0.951 . S
H1849 C1875 0.950 . S
H1850 C1876 0.950 . S
H1851 C1878 0.950 . S
H1852 C1881 0.950 . S
H1853 C1882 0.950 . S
H1854 C1884 0.950 . S
H1855 C1885 0.950 . S
C1856 H1838 0.951 . S
C1856 C1857 1.366 . S
C1856 C1858 1.388 . S
C1857 C1856 1.366 . S
C1857 C1861 1.385 . S
C1858 H1839 0.951 . S
C1858 C1856 1.388 . S
C1858 C1859 1.366 . S
C1859 C1858 1.366 . S
C1859 C1860 1.414 . S
C1859 C1862 1.499 . S
C1860 H1840 0.950 . S
C1860 C1859 1.414 . S
C1860 C1861 1.374 . S
C1861 H1841 0.950 . S
C1861 C1857 1.385 . S
C1861 C1860 1.374 . S
C1862 C1859 1.499 . S
C1862 C1863 1.373 . S
C1862 C1864 1.389 . S
C1863 H1842 0.950 . S
C1863 C1862 1.373 . S
C1863 C1879 1.377 . S
C1864 C1862 1.389 . S
C1864 C1865 1.524 . S
C1864 C1878 1.377 . S
C1865 C1864 1.524 . S
C1865 C1866 1.397 . S
C1865 C1870 1.363 . S
C1866 H1843 0.950 . S
C1866 C1865 1.397 . S
C1866 C1867 1.334 . S
C1867 H1844 0.950 . S
C1867 C1866 1.334 . S
C1867 C1868 1.287 . S
C1868 C1867 1.287 . S
C1868 C1869 1.524 . S
C1868 H1887 0.913 . S
C1869 H1845 0.950 . S
C1869 C1868 1.524 . S
C1869 C1870 1.415 . S
C1870 H1846 0.950 . S
C1870 C1865 1.363 . S
C1870 C1869 1.415 . S
C1871 H1847 0.951 . S
C1871 C1872 1.366 . S
C1871 C1873 1.388 . S
C1872 C1871 1.366 . S
C1872 C1876 1.385 . S
C1873 H1848 0.951 . S
C1873 C1871 1.388 . S
C1873 C1874 1.366 . S
C1874 C1873 1.366 . S
C1874 C1875 1.414 . S
C1874 C1877 1.499 . S
C1875 H1849 0.950 . S
C1875 C1874 1.414 . S
C1875 C1876 1.374 . S
C1876 H1850 0.950 . S
C1876 C1872 1.385 . S
C1876 C1875 1.374 . S
C1877 C1874 1.499 . S
C1877 C1878 1.373 . S
C1877 C1879 1.389 . S
C1878 H1851 0.950 . S
C1878 C1864 1.377 . S
C1878 C1877 1.373 . S
C1879 C1863 1.377 . S
C1879 C1877 1.389 . S
C1879 C1880 1.524 . S
C1880 C1879 1.524 . S
C1880 C1881 1.397 . S
C1880 C1885 1.363 . S
C1881 H1852 0.950 . S
C1881 C1880 1.397 . S
C1881 C1882 1.334 . S
C1882 H1853 0.950 . S
C1882 C1881 1.334 . S
C1882 C1883 1.287 . S
C1883 C1882 1.287 . S
C1883 C1884 1.524 . S
C1883 H1886 0.999 . S
C1884 H1854 0.950 . S
C1884 C1883 1.524 . S
C1884 C1885 1.415 . S
C1885 H1855 0.950 . S
C1885 C1880 1.363 . S
C1885 C1884 1.415 . S
H1886 C1883 0.999 . S
H1887 C1868 0.913 . S
H1888 C1906 0.951 . S
H1889 C1908 0.951 . S
H1890 C1910 0.950 . S
H1891 C1911 0.950 . S
H1892 C1913 0.950 . S
H1893 C1916 0.950 . S
H1894 C1917 0.950 . S
H1895 C1919 0.950 . S
H1896 C1920 0.950 . S
H1897 C1921 0.951 . S
H1898 C1923 0.951 . S
H1899 C1925 0.950 . S
H1900 C1926 0.950 . S
H1901 C1928 0.950 . S
H1902 C1931 0.950 . S
H1903 C1932 0.950 . S
H1904 C1934 0.950 . S
H1905 C1935 0.950 . S
C1906 H1888 0.951 . S
C1906 C1907 1.366 . S
C1906 C1908 1.388 . S
C1907 C1906 1.366 . S
C1907 C1911 1.385 . S
C1908 H1889 0.951 . S
C1908 C1906 1.388 . S
C1908 C1909 1.366 . S
C1909 C1908 1.366 . S
C1909 C1910 1.414 . S
C1909 C1912 1.499 . S
C1910 H1890 0.950 . S
C1910 C1909 1.414 . S
C1910 C1911 1.374 . S
C1911 H1891 0.950 . S
C1911 C1907 1.385 . S
C1911 C1910 1.374 . S
C1912 C1909 1.499 . S
C1912 C1913 1.373 . S
C1912 C1914 1.389 . S
C1913 H1892 0.950 . S
C1913 C1912 1.373 . S
C1913 C1929 1.377 . S
C1914 C1912 1.389 . S
C1914 C1915 1.524 . S
C1914 C1928 1.377 . S
C1915 C1914 1.524 . S
C1915 C1916 1.397 . S
C1915 C1920 1.363 . S
C1916 H1893 0.950 . S
C1916 C1915 1.397 . S
C1916 C1917 1.334 . S
C1917 H1894 0.950 . S
C1917 C1916 1.334 . S
C1917 C1918 1.287 1_655 S
C1918 C1917 1.287 1_455 S
C1918 C1919 1.524 . S
C1918 H1937 0.913 . S
C1919 H1895 0.950 . S
C1919 C1918 1.524 . S
C1919 C1920 1.415 1_455 S
C1920 H1896 0.950 . S
C1920 C1915 1.363 . S
C1920 C1919 1.415 1_655 S
C1921 H1897 0.951 . S
C1921 C1922 1.366 . S
C1921 C1923 1.388 . S
C1922 C1921 1.366 . S
C1922 C1926 1.385 . S
C1923 H1898 0.951 . S
C1923 C1921 1.388 . S
C1923 C1924 1.366 . S
C1924 C1923 1.366 . S
C1924 C1925 1.414 . S
C1924 C1927 1.499 . S
C1925 H1899 0.950 . S
C1925 C1924 1.414 . S
C1925 C1926 1.374 . S
C1926 H1900 0.950 . S
C1926 C1922 1.385 . S
C1926 C1925 1.374 . S
C1927 C1924 1.499 . S
C1927 C1928 1.373 . S
C1927 C1929 1.389 . S
C1928 H1901 0.950 . S
C1928 C1914 1.377 . S
C1928 C1927 1.373 . S
C1929 C1913 1.377 . S
C1929 C1927 1.389 . S
C1929 C1930 1.524 . S
C1930 C1929 1.524 . S
C1930 C1931 1.397 . S
C1930 C1935 1.363 . S
C1931 H1902 0.950 . S
C1931 C1930 1.397 . S
C1931 C1932 1.334 . S
C1932 H1903 0.950 . S
C1932 C1931 1.334 . S
C1932 C1933 1.287 . S
C1933 C1932 1.287 . S
C1933 C1934 1.524 . S
C1933 H1936 0.999 . S
C1934 H1904 0.950 . S
C1934 C1933 1.524 . S
C1934 C1935 1.415 . S
C1935 H1905 0.950 . S
C1935 C1930 1.363 . S
C1935 C1934 1.415 . S
H1936 C1933 0.999 . S
H1937 C1918 0.913 . S
H1938 C1956 0.951 . S
H1939 C1958 0.951 . S
H1940 C1960 0.950 . S
H1941 C1961 0.950 1_455 S
H1942 C1963 0.950 . S
H1943 C1966 0.950 . S
H1944 C1967 0.950 . S
H1945 C1969 0.950 . S
H1946 C1970 0.950 . S
H1947 C1971 0.951 . S
H1948 C1973 0.951 . S
H1949 C1975 0.950 . S
H1950 C1976 0.950 . S
H1951 C1978 0.950 . S
H1952 C1981 0.950 . S
H1953 C1982 0.950 . S
H1954 C1984 0.950 1_455 S
H1955 C1985 0.950 . S
C1956 H1938 0.951 . S
C1956 C1957 1.366 . S
C1956 C1958 1.388 . S
C1957 C1956 1.366 . S
C1957 C1961 1.385 . S
C1958 H1939 0.951 . S
C1958 C1956 1.388 . S
C1958 C1959 1.366 . S
C1959 C1958 1.366 . S
C1959 C1960 1.414 . S
C1959 C1962 1.499 . S
C1960 H1940 0.950 . S
C1960 C1959 1.414 . S
C1960 C1961 1.374 . S
C1961 H1941 0.950 1_655 S
C1961 C1957 1.385 . S
C1961 C1960 1.374 . S
C1962 C1959 1.499 . S
C1962 C1963 1.373 . S
C1962 C1964 1.389 . S
C1963 H1942 0.950 . S
C1963 C1962 1.373 . S
C1963 C1979 1.377 . S
C1964 C1962 1.389 . S
C1964 C1965 1.524 . S
C1964 C1978 1.377 . S
C1965 C1964 1.524 . S
C1965 C1966 1.397 . S
C1965 C1970 1.363 . S
C1966 H1943 0.950 . S
C1966 C1965 1.397 . S
C1966 C1967 1.334 . S
C1967 H1944 0.950 . S
C1967 C1966 1.334 . S
C1967 C1968 1.287 . S
C1968 C1967 1.287 . S
C1968 C1969 1.524 . S
C1968 H1987 0.913 . S
C1969 H1945 0.950 . S
C1969 C1968 1.524 . S
C1969 C1970 1.415 . S
C1970 H1946 0.950 . S
C1970 C1965 1.363 . S
C1970 C1969 1.415 . S
C1971 H1947 0.951 . S
C1971 C1972 1.366 . S
C1971 C1973 1.388 . S
C1972 C1971 1.366 . S
C1972 C1976 1.385 . S
C1973 H1948 0.951 . S
C1973 C1971 1.388 . S
C1973 C1974 1.366 . S
C1974 C1973 1.366 . S
C1974 C1975 1.414 . S
C1974 C1977 1.499 . S
C1975 H1949 0.950 . S
C1975 C1974 1.414 . S
C1975 C1976 1.374 . S
C1976 H1950 0.950 . S
C1976 C1972 1.385 . S
C1976 C1975 1.374 . S
C1977 C1974 1.499 . S
C1977 C1978 1.373 . S
C1977 C1979 1.389 . S
C1978 H1951 0.950 . S
C1978 C1964 1.377 . S
C1978 C1977 1.373 . S
C1979 C1963 1.377 . S
C1979 C1977 1.389 . S
C1979 C1980 1.524 . S
C1980 C1979 1.524 . S
C1980 C1981 1.397 . S
C1980 C1985 1.363 . S
C1981 H1952 0.950 . S
C1981 C1980 1.397 . S
C1981 C1982 1.334 . S
C1982 H1953 0.950 . S
C1982 C1981 1.334 . S
C1982 C1983 1.287 . S
C1983 C1982 1.287 . S
C1983 C1984 1.524 . S
C1983 H1986 0.999 . S
C1984 H1954 0.950 1_655 S
C1984 C1983 1.524 . S
C1984 C1985 1.415 . S
C1985 H1955 0.950 . S
C1985 C1980 1.363 . S
C1985 C1984 1.415 . S
H1986 C1983 0.999 . S
H1987 C1968 0.913 . S
H1988 C2006 0.951 . S
H1989 C2008 0.951 . S
H1990 C2010 0.950 . S
H1991 C2011 0.950 . S
H1992 C2013 0.950 . S
H1993 C2016 0.950 . S
H1994 C2017 0.950 . S
H1995 C2019 0.950 . S
H1996 C2020 0.950 . S
H1997 C2021 0.951 . S
H1998 C2023 0.951 . S
H1999 C2025 0.950 . S
H2000 C2026 0.950 . S
H2001 C2028 0.950 . S
H2002 C2031 0.950 . S
H2003 C2032 0.950 . S
H2004 C2034 0.950 . S
H2005 C2035 0.950 . S
C2006 H1988 0.951 . S
C2006 C2007 1.366 . S
C2006 C2008 1.388 . S
C2007 C2006 1.366 . S
C2007 C2011 1.385 . S
C2008 H1989 0.951 . S
C2008 C2006 1.388 . S
C2008 C2009 1.366 . S
C2009 C2008 1.366 . S
C2009 C2010 1.414 . S
C2009 C2012 1.499 . S
C2010 H1990 0.950 . S
C2010 C2009 1.414 . S
C2010 C2011 1.374 . S
C2011 H1991 0.950 . S
C2011 C2007 1.385 . S
C2011 C2010 1.374 . S
C2012 C2009 1.499 . S
C2012 C2013 1.373 . S
C2012 C2014 1.389 . S
C2013 H1992 0.950 . S
C2013 C2012 1.373 . S
C2013 C2029 1.377 . S
C2014 C2012 1.389 . S
C2014 C2015 1.524 . S
C2014 C2028 1.377 . S
C2015 C2014 1.524 . S
C2015 C2016 1.397 . S
C2015 C2020 1.363 . S
C2016 H1993 0.950 . S
C2016 C2015 1.397 . S
C2016 C2017 1.334 . S
C2017 H1994 0.950 . S
C2017 C2016 1.334 . S
C2017 C2018 1.287 . S
C2018 C2017 1.287 . S
C2018 C2019 1.524 . S
C2018 H2037 0.913 . S
C2019 H1995 0.950 . S
C2019 C2018 1.524 . S
C2019 C2020 1.415 . S
C2020 H1996 0.950 . S
C2020 C2015 1.363 . S
C2020 C2019 1.415 . S
C2021 H1997 0.951 . S
C2021 C2022 1.366 . S
C2021 C2023 1.388 . S
C2022 C2021 1.366 . S
C2022 C2026 1.385 . S
C2023 H1998 0.951 . S
C2023 C2021 1.388 . S
C2023 C2024 1.366 . S
C2024 C2023 1.366 . S
C2024 C2025 1.414 . S
C2024 C2027 1.499 . S
C2025 H1999 0.950 . S
C2025 C2024 1.414 . S
C2025 C2026 1.374 . S
C2026 H2000 0.950 . S
C2026 C2022 1.385 . S
C2026 C2025 1.374 . S
C2027 C2024 1.499 . S
C2027 C2028 1.373 . S
C2027 C2029 1.389 . S
C2028 H2001 0.950 . S
C2028 C2014 1.377 . S
C2028 C2027 1.373 . S
C2029 C2013 1.377 . S
C2029 C2027 1.389 . S
C2029 C2030 1.524 . S
C2030 C2029 1.524 . S
C2030 C2031 1.397 . S
C2030 C2035 1.363 . S
C2031 H2002 0.950 . S
C2031 C2030 1.397 . S
C2031 C2032 1.334 . S
C2032 H2003 0.950 . S
C2032 C2031 1.334 . S
C2032 C2033 1.287 . S
C2033 C2032 1.287 . S
C2033 C2034 1.524 . S
C2033 H2036 0.999 . S
C2034 H2004 0.950 . S
C2034 C2033 1.524 . S
C2034 C2035 1.415 . S
C2035 H2005 0.950 . S
C2035 C2030 1.363 . S
C2035 C2034 1.415 . S
H2036 C2033 0.999 . S
H2037 C2018 0.913 . S
H2038 C2056 0.951 . S
H2039 C2058 0.951 . S
H2040 C2060 0.950 . S
H2041 C2061 0.950 . S
H2042 C2063 0.950 . S
H2043 C2066 0.950 . S
H2044 C2067 0.950 . S
H2045 C2069 0.950 . S
H2046 C2070 0.950 1_554 S
H2047 C2071 0.951 . S
H2048 C2073 0.951 . S
H2049 C2075 0.950 . S
H2050 C2076 0.950 . S
H2051 C2078 0.950 . S
H2052 C2081 0.950 . S
H2053 C2082 0.950 . S
H2054 C2084 0.931 1_556 S
H2055 C2085 0.950 . S
C2056 H2038 0.951 . S
C2056 C2057 1.366 . S
C2056 C2058 1.388 . S
C2057 C2056 1.366 . S
C2057 C2061 1.385 . S
C2058 H2039 0.951 . S
C2058 C2056 1.388 . S
C2058 C2059 1.366 . S
C2059 C2058 1.366 . S
C2059 C2060 1.414 . S
C2059 C2062 1.499 . S
C2060 H2040 0.950 . S
C2060 C2059 1.414 . S
C2060 C2061 1.374 . S
C2061 H2041 0.950 . S
C2061 C2057 1.385 . S
C2061 C2060 1.374 . S
C2062 C2059 1.499 . S
C2062 C2063 1.373 . S
C2062 C2064 1.389 . S
C2063 H2042 0.950 . S
C2063 C2062 1.373 . S
C2063 C2079 1.377 1_556 S
C2064 C2062 1.389 . S
C2064 C2065 1.524 . S
C2064 C2078 1.377 1_556 S
C2065 C2064 1.524 . S
C2065 C2066 1.397 . S
C2065 C2070 1.363 . S
C2066 H2043 0.950 . S
C2066 C2065 1.397 . S
C2066 C2067 1.334 . S
C2067 H2044 0.950 . S
C2067 C2066 1.334 . S
C2067 C2068 1.287 . S
C2068 C2067 1.287 . S
C2068 C2069 1.524 . S
C2068 H2087 0.913 . S
C2069 H2045 0.950 . S
C2069 C2068 1.524 . S
C2069 C2070 1.415 . S
C2070 H2046 0.950 1_556 S
C2070 C2065 1.363 . S
C2070 C2069 1.415 . S
C2071 H2047 0.951 . S
C2071 C2072 1.366 . S
C2071 C2073 1.388 . S
C2072 C2071 1.366 . S
C2072 C2076 1.385 . S
C2073 H2048 0.951 . S
C2073 C2071 1.388 . S
C2073 C2074 1.366 . S
C2074 C2073 1.366 . S
C2074 C2075 1.414 . S
C2074 C2077 1.499 . S
C2075 H2049 0.950 . S
C2075 C2074 1.414 . S
C2075 C2076 1.374 . S
C2076 H2050 0.950 . S
C2076 C2072 1.385 . S
C2076 C2075 1.374 . S
C2077 C2074 1.499 . S
C2077 C2078 1.373 . S
C2077 C2079 1.389 . S
C2078 H2051 0.950 . S
C2078 C2064 1.377 1_554 S
C2078 C2077 1.373 . S
C2079 C2063 1.377 1_554 S
C2079 C2077 1.389 . S
C2079 C2080 1.524 . S
C2080 C2079 1.524 . S
C2080 C2081 1.397 . S
C2080 C2085 1.363 1_554 S
C2081 H2052 0.950 . S
C2081 C2080 1.397 . S
C2081 C2082 1.334 . S
C2082 H2053 0.950 . S
C2082 C2081 1.334 . S
C2082 C2083 1.287 . S
C2083 C2082 1.287 . S
C2083 C2084 1.524 . S
C2083 H2086 0.999 . S
C2084 H2054 0.931 1_554 S
C2084 C2083 1.524 . S
C2084 C2085 1.415 1_554 S
C2085 H2055 0.950 . S
C2085 C2080 1.363 1_556 S
C2085 C2084 1.415 1_556 S
H2086 C2083 0.999 . S
H2087 C2068 0.913 . S
H2088 C2106 0.951 . S
H2089 C2108 0.951 . S
H2090 C2110 0.950 . S
H2091 C2111 0.950 . S
H2092 C2113 0.950 . S
H2093 C2116 0.950 . S
H2094 C2117 0.950 . S
H2095 C2119 0.950 . S
H2096 C2120 0.950 . S
H2097 C2121 0.951 . S
H2098 C2123 0.951 . S
H2099 C2125 0.950 . S
H2100 C2126 0.950 . S
H2101 C2128 0.950 . S
H2102 C2131 0.950 . S
H2103 C2132 0.950 . S
H2104 C2134 0.950 . S
H2105 C2135 0.950 . S
C2106 H2088 0.951 . S
C2106 C2107 1.366 . S
C2106 C2108 1.388 . S
C2107 C2106 1.366 . S
C2107 C2111 1.385 . S
C2108 H2089 0.951 . S
C2108 C2106 1.388 . S
C2108 C2109 1.366 . S
C2109 C2108 1.366 . S
C2109 C2110 1.414 . S
C2109 C2112 1.499 . S
C2110 H2090 0.950 . S
C2110 C2109 1.414 . S
C2110 C2111 1.374 . S
C2111 H2091 0.950 . S
C2111 C2107 1.385 . S
C2111 C2110 1.374 . S
C2112 C2109 1.499 . S
C2112 C2113 1.373 . S
C2112 C2114 1.389 . S
C2113 H2092 0.950 . S
C2113 C2112 1.373 . S
C2113 C2129 1.377 . S
C2114 C2112 1.389 . S
C2114 C2115 1.524 . S
C2114 C2128 1.377 . S
C2115 C2114 1.524 . S
C2115 C2116 1.397 . S
C2115 C2120 1.363 . S
C2116 H2093 0.950 . S
C2116 C2115 1.397 . S
C2116 C2117 1.334 1_655 S
C2117 H2094 0.950 . S
C2117 C2116 1.334 1_455 S
C2117 C2118 1.287 . S
C2118 C2117 1.287 . S
C2118 C2119 1.524 1_455 S
C2118 H2137 0.913 . S
C2119 H2095 0.950 . S
C2119 C2118 1.524 1_655 S
C2119 C2120 1.415 . S
C2120 H2096 0.950 . S
C2120 C2115 1.363 . S
C2120 C2119 1.415 . S
C2121 H2097 0.951 . S
C2121 C2122 1.366 . S
C2121 C2123 1.388 . S
C2122 C2121 1.366 . S
C2122 C2126 1.385 . S
C2123 H2098 0.951 . S
C2123 C2121 1.388 . S
C2123 C2124 1.366 . S
C2124 C2123 1.366 . S
C2124 C2125 1.414 . S
C2124 C2127 1.499 . S
C2125 H2099 0.950 . S
C2125 C2124 1.414 . S
C2125 C2126 1.374 . S
C2126 H2100 0.950 . S
C2126 C2122 1.385 . S
C2126 C2125 1.374 . S
C2127 C2124 1.499 . S
C2127 C2128 1.373 . S
C2127 C2129 1.389 . S
C2128 H2101 0.950 . S
C2128 C2114 1.377 . S
C2128 C2127 1.373 . S
C2129 C2113 1.377 . S
C2129 C2127 1.389 . S
C2129 C2130 1.524 . S
C2130 C2129 1.524 . S
C2130 C2131 1.397 . S
C2130 C2135 1.363 . S
C2131 H2102 0.950 . S
C2131 C2130 1.397 . S
C2131 C2132 1.334 . S
C2132 H2103 0.950 . S
C2132 C2131 1.334 . S
C2132 C2133 1.287 . S
C2133 C2132 1.287 . S
C2133 C2134 1.524 . S
C2133 H2136 0.999 . S
C2134 H2104 0.950 . S
C2134 C2133 1.524 . S
C2134 C2135 1.415 . S
C2135 H2105 0.950 . S
C2135 C2130 1.363 . S
C2135 C2134 1.415 . S
H2136 C2133 0.999 . S
H2137 C2118 0.913 . S
H2138 C2156 0.951 . S
H2139 C2158 0.951 . S
H2140 C2160 0.950 . S
H2141 C2161 0.950 . S
H2142 C2163 0.950 . S
H2143 C2166 0.950 . S
H2144 C2167 0.950 . S
H2145 C2169 0.950 . S
H2146 C2170 0.950 . S
H2147 C2171 0.951 . S
H2148 C2173 0.951 . S
H2149 C2175 0.950 . S
H2150 C2176 0.950 . S
H2151 C2178 0.950 . S
H2152 C2181 0.950 . S
H2153 C2182 0.950 . S
H2154 C2184 0.950 . S
H2155 C2185 0.950 . S
C2156 H2138 0.951 . S
C2156 C2157 1.366 . S
C2156 C2158 1.388 . S
C2157 C2156 1.366 . S
C2157 C2161 1.385 . S
C2158 H2139 0.951 . S
C2158 C2156 1.388 . S
C2158 C2159 1.366 . S
C2159 C2158 1.366 . S
C2159 C2160 1.414 . S
C2159 C2162 1.499 . S
C2160 H2140 0.950 . S
C2160 C2159 1.414 . S
C2160 C2161 1.374 . S
C2161 H2141 0.950 . S
C2161 C2157 1.385 . S
C2161 C2160 1.374 . S
C2162 C2159 1.499 . S
C2162 C2163 1.373 . S
C2162 C2164 1.389 . S
C2163 H2142 0.950 . S
C2163 C2162 1.373 . S
C2163 C2179 1.377 . S
C2164 C2162 1.389 . S
C2164 C2165 1.524 . S
C2164 C2178 1.377 . S
C2165 C2164 1.524 . S
C2165 C2166 1.397 . S
C2165 C2170 1.363 . S
C2166 H2143 0.950 . S
C2166 C2165 1.397 . S
C2166 C2167 1.334 . S
C2167 H2144 0.950 . S
C2167 C2166 1.334 . S
C2167 C2168 1.287 . S
C2168 C2167 1.287 . S
C2168 C2169 1.524 . S
C2168 H2187 0.913 . S
C2169 H2145 0.950 . S
C2169 C2168 1.524 . S
C2169 C2170 1.415 . S
C2170 H2146 0.950 . S
C2170 C2165 1.363 . S
C2170 C2169 1.415 . S
C2171 H2147 0.951 . S
C2171 C2172 1.366 . S
C2171 C2173 1.388 . S
C2172 C2171 1.366 . S
C2172 C2176 1.385 . S
C2173 H2148 0.951 . S
C2173 C2171 1.388 . S
C2173 C2174 1.366 . S
C2174 C2173 1.366 . S
C2174 C2175 1.414 . S
C2174 C2177 1.499 . S
C2175 H2149 0.950 . S
C2175 C2174 1.414 . S
C2175 C2176 1.374 . S
C2176 H2150 0.950 . S
C2176 C2172 1.385 . S
C2176 C2175 1.374 . S
C2177 C2174 1.499 . S
C2177 C2178 1.373 . S
C2177 C2179 1.389 . S
C2178 H2151 0.950 . S
C2178 C2164 1.377 . S
C2178 C2177 1.373 . S
C2179 C2163 1.377 . S
C2179 C2177 1.389 . S
C2179 C2180 1.524 . S
C2180 C2179 1.524 . S
C2180 C2181 1.397 . S
C2180 C2185 1.363 . S
C2181 H2152 0.950 . S
C2181 C2180 1.397 . S
C2181 C2182 1.334 . S
C2182 H2153 0.950 . S
C2182 C2181 1.334 . S
C2182 C2183 1.287 . S
C2183 C2182 1.287 . S
C2183 C2184 1.524 . S
C2183 H2186 0.999 . S
C2184 H2154 0.950 . S
C2184 C2183 1.524 . S
C2184 C2185 1.415 . S
C2185 H2155 0.950 . S
C2185 C2180 1.363 . S
C2185 C2184 1.415 . S
H2186 C2183 0.999 . S
H2187 C2168 0.913 . S
H2188 C2206 0.951 . S
H2189 C2208 0.951 . S
H2190 C2210 0.950 . S
H2191 C2211 0.950 . S
H2192 C2213 0.950 . S
H2193 C2216 0.950 . S
H2194 C2217 0.950 . S
H2195 C2219 0.950 . S
H2196 C2220 0.950 . S
H2197 C2221 0.951 . S
H2198 C2223 0.951 . S
H2199 C2225 0.950 . S
H2200 C2226 0.950 . S
H2201 C2228 0.950 . S
H2202 C2231 0.950 . S
H2203 C2232 0.950 . S
H2204 C2234 0.950 . S
H2205 C2235 0.950 . S
C2206 H2188 0.951 . S
C2206 C2207 1.366 . S
C2206 C2208 1.388 . S
C2207 C2206 1.366 . S
C2207 C2211 1.385 . S
C2208 H2189 0.951 . S
C2208 C2206 1.388 . S
C2208 C2209 1.366 . S
C2209 C2208 1.366 . S
C2209 C2210 1.414 . S
C2209 C2212 1.499 . S
C2210 H2190 0.950 . S
C2210 C2209 1.414 . S
C2210 C2211 1.374 . S
C2211 H2191 0.950 . S
C2211 C2207 1.385 . S
C2211 C2210 1.374 . S
C2212 C2209 1.499 . S
C2212 C2213 1.373 . S
C2212 C2214 1.389 . S
C2213 H2192 0.950 . S
C2213 C2212 1.373 . S
C2213 C2229 1.377 . S
C2214 C2212 1.389 . S
C2214 C2215 1.524 . S
C2214 C2228 1.377 . S
C2215 C2214 1.524 . S
C2215 C2216 1.397 . S
C2215 C2220 1.363 . S
C2216 H2193 0.950 . S
C2216 C2215 1.397 . S
C2216 C2217 1.334 . S
C2217 H2194 0.950 . S
C2217 C2216 1.334 . S
C2217 C2218 1.287 . S
C2218 C2217 1.287 . S
C2218 C2219 1.524 . S
C2218 H2237 0.913 . S
C2219 H2195 0.950 . S
C2219 C2218 1.524 . S
C2219 C2220 1.415 . S
C2220 H2196 0.950 . S
C2220 C2215 1.363 . S
C2220 C2219 1.415 . S
C2221 H2197 0.951 . S
C2221 C2222 1.366 . S
C2221 C2223 1.388 . S
C2222 C2221 1.366 . S
C2222 C2226 1.385 . S
C2223 H2198 0.951 . S
C2223 C2221 1.388 . S
C2223 C2224 1.366 . S
C2224 C2223 1.366 . S
C2224 C2225 1.414 . S
C2224 C2227 1.499 . S
C2225 H2199 0.950 . S
C2225 C2224 1.414 . S
C2225 C2226 1.374 . S
C2226 H2200 0.950 . S
C2226 C2222 1.385 . S
C2226 C2225 1.374 . S
C2227 C2224 1.499 . S
C2227 C2228 1.373 . S
C2227 C2229 1.389 . S
C2228 H2201 0.950 . S
C2228 C2214 1.377 . S
C2228 C2227 1.373 . S
C2229 C2213 1.377 . S
C2229 C2227 1.389 . S
C2229 C2230 1.524 . S
C2230 C2229 1.524 . S
C2230 C2231 1.397 . S
C2230 C2235 1.363 . S
C2231 H2202 0.950 . S
C2231 C2230 1.397 . S
C2231 C2232 1.334 . S
C2232 H2203 0.950 . S
C2232 C2231 1.334 . S
C2232 C2233 1.287 . S
C2233 C2232 1.287 . S
C2233 C2234 1.524 . S
C2233 H2236 0.999 . S
C2234 H2204 0.950 . S
C2234 C2233 1.524 . S
C2234 C2235 1.415 . S
C2235 H2205 0.950 . S
C2235 C2230 1.363 . S
C2235 C2234 1.415 . S
H2236 C2233 0.999 . S
H2237 C2218 0.913 . S
H2238 C2256 0.951 . S
H2239 C2258 0.951 . S
H2240 C2260 0.950 . S
H2241 C2261 0.950 . S
H2242 C2263 0.950 . S
H2243 C2266 0.950 . S
H2244 C2267 0.950 . S
H2245 C2269 0.950 . S
H2246 C2270 0.950 . S
H2247 C2271 0.951 . S
H2248 C2273 0.951 . S
H2249 C2275 0.950 . S
H2250 C2276 0.950 . S
H2251 C2278 0.950 . S
H2252 C2281 0.950 . S
H2253 C2282 0.950 . S
H2254 C2284 0.950 . S
H2255 C2285 0.950 . S
C2256 H2238 0.951 . S
C2256 C2257 1.366 . S
C2256 C2258 1.388 . S
C2257 C2256 1.366 . S
C2257 C2261 1.385 . S
C2258 H2239 0.951 . S
C2258 C2256 1.388 . S
C2258 C2259 1.366 . S
C2259 C2258 1.366 . S
C2259 C2260 1.414 . S
C2259 C2262 1.499 . S
C2260 H2240 0.950 . S
C2260 C2259 1.414 . S
C2260 C2261 1.374 . S
C2261 H2241 0.950 . S
C2261 C2257 1.385 . S
C2261 C2260 1.374 . S
C2262 C2259 1.499 . S
C2262 C2263 1.373 . S
C2262 C2264 1.389 . S
C2263 H2242 0.950 . S
C2263 C2262 1.373 . S
C2263 C2279 1.377 1_554 S
C2264 C2262 1.389 . S
C2264 C2265 1.524 . S
C2264 C2278 1.377 . S
C2265 C2264 1.524 . S
C2265 C2266 1.397 . S
C2265 C2270 1.363 . S
C2266 H2243 0.950 . S
C2266 C2265 1.397 . S
C2266 C2267 1.334 . S
C2267 H2244 0.950 . S
C2267 C2266 1.334 . S
C2267 C2268 1.287 . S
C2268 C2267 1.287 . S
C2268 C2269 1.524 . S
C2268 H2287 0.913 . S
C2269 H2245 0.950 . S
C2269 C2268 1.524 . S
C2269 C2270 1.415 . S
C2270 H2246 0.950 . S
C2270 C2265 1.363 . S
C2270 C2269 1.415 . S
C2271 H2247 0.951 . S
C2271 C2272 1.366 . S
C2271 C2273 1.388 . S
C2272 C2271 1.366 . S
C2272 C2276 1.385 . S
C2273 H2248 0.951 . S
C2273 C2271 1.388 . S
C2273 C2274 1.366 . S
C2274 C2273 1.366 . S
C2274 C2275 1.414 . S
C2274 C2277 1.499 . S
C2275 H2249 0.950 . S
C2275 C2274 1.414 . S
C2275 C2276 1.374 . S
C2276 H2250 0.950 . S
C2276 C2272 1.385 . S
C2276 C2275 1.374 . S
C2277 C2274 1.499 . S
C2277 C2278 1.373 1_556 S
C2277 C2279 1.389 . S
C2278 H2251 0.950 . S
C2278 C2264 1.377 . S
C2278 C2277 1.373 1_554 S
C2279 C2263 1.377 1_556 S
C2279 C2277 1.389 . S
C2279 C2280 1.524 . S
C2280 C2279 1.524 . S
C2280 C2281 1.397 . S
C2280 C2285 1.363 . S
C2281 H2252 0.950 . S
C2281 C2280 1.397 . S
C2281 C2282 1.334 . S
C2282 H2253 0.950 . S
C2282 C2281 1.334 . S
C2282 C2283 1.287 . S
C2283 C2282 1.287 . S
C2283 C2284 1.524 . S
C2283 H2286 0.999 . S
C2284 H2254 0.950 . S
C2284 C2283 1.524 . S
C2284 C2285 1.415 . S
C2285 H2255 0.950 . S
C2285 C2280 1.363 . S
C2285 C2284 1.415 . S
H2286 C2283 0.999 . S
H2287 C2268 0.913 . S
H2288 C2306 0.951 . S
H2289 C2308 0.951 . S
H2290 C2310 0.950 . S
H2291 C2311 0.950 . S
H2292 C2313 0.950 . S
H2293 C2316 0.950 . S
H2294 C2317 0.950 . S
H2295 C2319 0.950 . S
H2296 C2320 0.950 . S
H2297 C2321 0.951 . S
H2298 C2323 0.951 . S
H2299 C2325 0.950 . S
H2300 C2326 0.950 . S
H2301 C2328 0.950 . S
H2302 C2331 0.950 . S
H2303 C2332 0.950 . S
H2304 C2334 0.950 . S
H2305 C2335 0.950 . S
C2306 H2288 0.951 . S
C2306 C2307 1.366 . S
C2306 C2308 1.388 . S
C2307 C2306 1.366 . S
C2307 C2311 1.385 . S
C2308 H2289 0.951 . S
C2308 C2306 1.388 . S
C2308 C2309 1.366 . S
C2309 C2308 1.366 . S
C2309 C2310 1.414 . S
C2309 C2312 1.499 . S
C2310 H2290 0.950 . S
C2310 C2309 1.414 . S
C2310 C2311 1.374 . S
C2311 H2291 0.950 . S
C2311 C2307 1.385 . S
C2311 C2310 1.374 . S
C2312 C2309 1.499 . S
C2312 C2313 1.373 . S
C2312 C2314 1.389 . S
C2313 H2292 0.950 . S
C2313 C2312 1.373 . S
C2313 C2329 1.377 . S
C2314 C2312 1.389 . S
C2314 C2315 1.524 . S
C2314 C2328 1.377 . S
C2315 C2314 1.524 . S
C2315 C2316 1.397 . S
C2315 C2320 1.363 . S
C2316 H2293 0.950 . S
C2316 C2315 1.397 . S
C2316 C2317 1.334 . S
C2317 H2294 0.950 . S
C2317 C2316 1.334 . S
C2317 C2318 1.287 . S
C2318 C2317 1.287 . S
C2318 C2319 1.524 . S
C2318 H2337 0.913 . S
C2319 H2295 0.950 . S
C2319 C2318 1.524 . S
C2319 C2320 1.415 . S
C2320 H2296 0.950 . S
C2320 C2315 1.363 . S
C2320 C2319 1.415 . S
C2321 H2297 0.951 . S
C2321 C2322 1.366 . S
C2321 C2323 1.388 . S
C2322 C2321 1.366 . S
C2322 C2326 1.385 . S
C2323 H2298 0.951 . S
C2323 C2321 1.388 . S
C2323 C2324 1.366 . S
C2324 C2323 1.366 . S
C2324 C2325 1.414 . S
C2324 C2327 1.499 . S
C2325 H2299 0.950 . S
C2325 C2324 1.414 . S
C2325 C2326 1.374 . S
C2326 H2300 0.950 . S
C2326 C2322 1.385 . S
C2326 C2325 1.374 . S
C2327 C2324 1.499 . S
C2327 C2328 1.373 . S
C2327 C2329 1.389 . S
C2328 H2301 0.950 . S
C2328 C2314 1.377 . S
C2328 C2327 1.373 . S
C2329 C2313 1.377 . S
C2329 C2327 1.389 . S
C2329 C2330 1.524 . S
C2330 C2329 1.524 . S
C2330 C2331 1.397 . S
C2330 C2335 1.363 . S
C2331 H2302 0.950 . S
C2331 C2330 1.397 . S
C2331 C2332 1.334 . S
C2332 H2303 0.950 . S
C2332 C2331 1.334 . S
C2332 C2333 1.287 . S
C2333 C2332 1.287 . S
C2333 C2334 1.524 . S
C2333 H2336 0.999 . S
C2334 H2304 0.950 . S
C2334 C2333 1.524 . S
C2334 C2335 1.415 . S
C2335 H2305 0.950 . S
C2335 C2330 1.363 . S
C2335 C2334 1.415 . S
H2336 C2333 0.999 . S
H2337 C2318 0.913 . S
H2338 C2356 0.951 . S
H2339 C2358 0.951 . S
H2340 C2360 0.950 . S
H2341 C2361 0.950 . S
H2342 C2363 0.950 . S
H2343 C2366 0.950 . S
H2344 C2367 0.950 . S
H2345 C2369 0.950 . S
H2346 C2370 0.950 . S
H2347 C2371 0.951 . S
H2348 C2373 0.951 . S
H2349 C2375 0.950 . S
H2350 C2376 0.950 . S
H2351 C2378 0.950 . S
H2352 C2381 0.950 . S
H2353 C2382 0.950 . S
H2354 C2384 0.950 . S
H2355 C2385 0.950 . S
C2356 H2338 0.951 . S
C2356 C2357 1.366 . S
C2356 C2358 1.388 . S
C2357 C2356 1.366 . S
C2357 C2361 1.385 . S
C2358 H2339 0.951 . S
C2358 C2356 1.388 . S
C2358 C2359 1.366 . S
C2359 C2358 1.366 . S
C2359 C2360 1.414 . S
C2359 C2362 1.499 . S
C2360 H2340 0.950 . S
C2360 C2359 1.414 . S
C2360 C2361 1.374 . S
C2361 H2341 0.950 . S
C2361 C2357 1.385 . S
C2361 C2360 1.374 . S
C2362 C2359 1.499 . S
C2362 C2363 1.373 . S
C2362 C2364 1.389 . S
C2363 H2342 0.950 . S
C2363 C2362 1.373 . S
C2363 C2379 1.377 1_565 S
C2364 C2362 1.389 . S
C2364 C2365 1.524 . S
C2364 C2378 1.377 . S
C2365 C2364 1.524 . S
C2365 C2366 1.397 . S
C2365 C2370 1.363 . S
C2366 H2343 0.950 . S
C2366 C2365 1.397 . S
C2366 C2367 1.334 . S
C2367 H2344 0.950 . S
C2367 C2366 1.334 . S
C2367 C2368 1.287 . S
C2368 C2367 1.287 . S
C2368 C2369 1.524 . S
C2368 H2387 0.913 . S
C2369 H2345 0.950 . S
C2369 C2368 1.524 . S
C2369 C2370 1.415 . S
C2370 H2346 0.950 . S
C2370 C2365 1.363 . S
C2370 C2369 1.415 . S
C2371 H2347 0.951 . S
C2371 C2372 1.366 . S
C2371 C2373 1.388 . S
C2372 C2371 1.366 . S
C2372 C2376 1.385 . S
C2373 H2348 0.951 . S
C2373 C2371 1.388 . S
C2373 C2374 1.366 . S
C2374 C2373 1.366 . S
C2374 C2375 1.414 . S
C2374 C2377 1.499 . S
C2375 H2349 0.950 . S
C2375 C2374 1.414 . S
C2375 C2376 1.374 . S
C2376 H2350 0.950 . S
C2376 C2372 1.385 . S
C2376 C2375 1.374 . S
C2377 C2374 1.499 . S
C2377 C2378 1.373 1_545 S
C2377 C2379 1.389 . S
C2378 H2351 0.950 . S
C2378 C2364 1.377 . S
C2378 C2377 1.373 1_565 S
C2379 C2363 1.377 1_545 S
C2379 C2377 1.389 . S
C2379 C2380 1.524 . S
C2380 C2379 1.524 . S
C2380 C2381 1.397 . S
C2380 C2385 1.363 . S
C2381 H2352 0.950 . S
C2381 C2380 1.397 . S
C2381 C2382 1.334 . S
C2382 H2353 0.950 . S
C2382 C2381 1.334 . S
C2382 C2383 1.287 . S
C2383 C2382 1.287 . S
C2383 C2384 1.524 . S
C2383 H2386 0.999 . S
C2384 H2354 0.950 . S
C2384 C2383 1.524 . S
C2384 C2385 1.415 . S
C2385 H2355 0.950 . S
C2385 C2380 1.363 . S
C2385 C2384 1.415 . S
H2386 C2383 0.999 . S
H2387 C2368 0.913 . S
H2388 C2406 0.951 . S
H2389 C2408 0.951 . S
H2390 C2410 0.950 . S
H2391 C2411 0.950 . S
H2392 C2413 0.950 . S
H2393 C2416 0.950 . S
H2394 C2417 0.950 . S
H2395 C2419 0.937 1_565 S
H2396 C2420 0.950 . S
H2397 C2421 0.951 . S
H2398 C2423 0.951 . S
H2399 C2425 0.950 . S
H2400 C2426 0.950 . S
H2401 C2428 0.950 . S
H2402 C2431 0.950 . S
H2403 C2432 0.950 . S
H2404 C2434 0.950 . S
H2405 C2435 0.950 . S
C2406 H2388 0.951 . S
C2406 C2407 1.366 . S
C2406 C2408 1.388 . S
C2407 C2406 1.366 . S
C2407 C2411 1.385 . S
C2408 H2389 0.951 . S
C2408 C2406 1.388 . S
C2408 C2409 1.366 . S
C2409 C2408 1.366 . S
C2409 C2410 1.414 . S
C2409 C2412 1.499 . S
C2410 H2390 0.950 . S
C2410 C2409 1.414 . S
C2410 C2411 1.374 . S
C2411 H2391 0.950 . S
C2411 C2407 1.385 . S
C2411 C2410 1.374 . S
C2412 C2409 1.499 . S
C2412 C2413 1.373 . S
C2412 C2414 1.389 . S
C2413 H2392 0.950 . S
C2413 C2412 1.373 . S
C2413 C2429 1.377 . S
C2414 C2412 1.389 . S
C2414 C2415 1.524 . S
C2414 C2428 1.377 . S
C2415 C2414 1.524 . S
C2415 C2416 1.397 . S
C2415 C2420 1.363 . S
C2416 H2393 0.950 . S
C2416 C2415 1.397 . S
C2416 C2417 1.334 . S
C2417 H2394 0.950 . S
C2417 C2416 1.334 . S
C2417 C2418 1.287 1_545 S
C2418 C2417 1.287 1_565 S
C2418 C2419 1.521 1_565 S
C2418 H2437 0.913 . S
C2419 H2395 0.937 1_545 S
C2419 C2418 1.521 1_545 S
C2419 C2420 1.432 . S
C2420 H2396 0.950 . S
C2420 C2415 1.363 . S
C2420 C2419 1.432 . S
C2421 H2397 0.951 . S
C2421 C2422 1.366 . S
C2421 C2423 1.388 . S
C2422 C2421 1.366 . S
C2422 C2426 1.385 . S
C2423 H2398 0.951 . S
C2423 C2421 1.388 . S
C2423 C2424 1.366 . S
C2424 C2423 1.366 . S
C2424 C2425 1.414 . S
C2424 C2427 1.499 . S
C2425 H2399 0.950 . S
C2425 C2424 1.414 . S
C2425 C2426 1.374 . S
C2426 H2400 0.950 . S
C2426 C2422 1.385 . S
C2426 C2425 1.374 . S
C2427 C2424 1.499 . S
C2427 C2428 1.373 . S
C2427 C2429 1.389 . S
C2428 H2401 0.950 . S
C2428 C2414 1.377 . S
C2428 C2427 1.373 . S
C2429 C2413 1.377 . S
C2429 C2427 1.389 . S
C2429 C2430 1.524 . S
C2430 C2429 1.524 . S
C2430 C2431 1.397 . S
C2430 C2435 1.363 . S
C2431 H2402 0.950 . S
C2431 C2430 1.397 . S
C2431 C2432 1.334 . S
C2432 H2403 0.950 . S
C2432 C2431 1.334 . S
C2432 C2433 1.287 . S
C2433 C2432 1.287 . S
C2433 C2434 1.524 . S
C2433 H2436 0.999 . S
C2434 H2404 0.950 . S
C2434 C2433 1.524 . S
C2434 C2435 1.415 . S
C2435 H2405 0.950 . S
C2435 C2430 1.363 . S
C2435 C2434 1.415 . S
H2436 C2433 0.999 . S
H2437 C2418 0.913 . S
H2438 C2456 0.951 . S
H2439 C2458 0.951 . S
H2440 C2460 0.950 . S
H2441 C2461 0.950 . S
H2442 C2463 0.950 . S
H2443 C2466 0.950 . S
H2444 C2467 0.950 . S
H2445 C2469 0.950 . S
H2446 C2470 0.950 . S
H2447 C2471 0.951 . S
H2448 C2473 0.951 . S
H2449 C2475 0.950 . S
H2450 C2476 0.950 . S
H2451 C2478 0.950 . S
H2452 C2481 0.950 . S
H2453 C2482 0.950 . S
H2454 C2484 0.950 . S
H2455 C2485 0.950 . S
C2456 H2438 0.951 . S
C2456 C2457 1.366 . S
C2456 C2458 1.388 . S
C2457 C2456 1.366 . S
C2457 C2461 1.385 . S
C2458 H2439 0.951 . S
C2458 C2456 1.388 . S
C2458 C2459 1.366 . S
C2459 C2458 1.366 . S
C2459 C2460 1.414 . S
C2459 C2462 1.499 . S
C2460 H2440 0.950 . S
C2460 C2459 1.414 . S
C2460 C2461 1.374 . S
C2461 H2441 0.950 . S
C2461 C2457 1.385 . S
C2461 C2460 1.374 . S
C2462 C2459 1.499 . S
C2462 C2463 1.373 . S
C2462 C2464 1.389 . S
C2463 H2442 0.950 . S
C2463 C2462 1.373 . S
C2463 C2479 1.377 1_545 S
C2464 C2462 1.389 . S
C2464 C2465 1.524 . S
C2464 C2478 1.377 . S
C2465 C2464 1.524 . S
C2465 C2466 1.397 . S
C2465 C2470 1.363 . S
C2466 H2443 0.950 . S
C2466 C2465 1.397 . S
C2466 C2467 1.334 . S
C2467 H2444 0.950 . S
C2467 C2466 1.334 . S
C2467 C2468 1.287 . S
C2468 C2467 1.287 . S
C2468 C2469 1.524 . S
C2468 H2487 0.913 . S
C2469 H2445 0.950 . S
C2469 C2468 1.524 . S
C2469 C2470 1.415 . S
C2470 H2446 0.950 . S
C2470 C2465 1.363 . S
C2470 C2469 1.415 . S
C2471 H2447 0.951 . S
C2471 C2472 1.366 . S
C2471 C2473 1.388 . S
C2472 C2471 1.366 . S
C2472 C2476 1.385 . S
C2473 H2448 0.951 . S
C2473 C2471 1.388 . S
C2473 C2474 1.366 . S
C2474 C2473 1.366 . S
C2474 C2475 1.414 . S
C2474 C2477 1.499 . S
C2475 H2449 0.950 . S
C2475 C2474 1.414 . S
C2475 C2476 1.374 . S
C2476 H2450 0.950 . S
C2476 C2472 1.385 . S
C2476 C2475 1.374 . S
C2477 C2474 1.499 . S
C2477 C2478 1.373 1_565 S
C2477 C2479 1.389 . S
C2478 H2451 0.950 . S
C2478 C2464 1.377 . S
C2478 C2477 1.373 1_545 S
C2479 C2463 1.377 1_565 S
C2479 C2477 1.389 . S
C2479 C2480 1.524 . S
C2480 C2479 1.524 . S
C2480 C2481 1.397 . S
C2480 C2485 1.363 . S
C2481 H2452 0.950 . S
C2481 C2480 1.397 . S
C2481 C2482 1.334 . S
C2482 H2453 0.950 . S
C2482 C2481 1.334 . S
C2482 C2483 1.287 . S
C2483 C2482 1.287 . S
C2483 C2484 1.524 . S
C2483 H2486 0.999 . S
C2484 H2454 0.950 . S
C2484 C2483 1.524 . S
C2484 C2485 1.415 . S
C2485 H2455 0.950 . S
C2485 C2480 1.363 . S
C2485 C2484 1.415 . S
H2486 C2483 0.999 . S
H2487 C2468 0.913 . S
H2488 C2506 0.951 . S
H2489 C2508 0.951 . S
H2490 C2510 0.950 . S
H2491 C2511 0.950 . S
H2492 C2513 0.950 . S
H2493 C2516 0.950 . S
H2494 C2517 0.950 . S
H2495 C2519 0.950 . S
H2496 C2520 0.950 . S
H2497 C2521 0.951 . S
H2498 C2523 0.951 . S
H2499 C2525 0.950 . S
H2500 C2526 0.950 . S
H2501 C2528 0.950 . S
H2502 C2531 0.950 . S
H2503 C2532 0.950 . S
H2504 C2534 0.950 . S
H2505 C2535 0.950 . S
C2506 H2488 0.951 . S
C2506 C2507 1.366 . S
C2506 C2508 1.388 . S
C2507 C2506 1.366 . S
C2507 C2511 1.385 . S
C2508 H2489 0.951 . S
C2508 C2506 1.388 . S
C2508 C2509 1.366 . S
C2509 C2508 1.366 . S
C2509 C2510 1.414 . S
C2509 C2512 1.499 . S
C2510 H2490 0.950 . S
C2510 C2509 1.414 . S
C2510 C2511 1.374 . S
C2511 H2491 0.950 . S
C2511 C2507 1.385 . S
C2511 C2510 1.374 . S
C2512 C2509 1.499 . S
C2512 C2513 1.373 . S
C2512 C2514 1.389 . S
C2513 H2492 0.950 . S
C2513 C2512 1.373 . S
C2513 C2529 1.377 . S
C2514 C2512 1.389 . S
C2514 C2515 1.524 . S
C2514 C2528 1.377 . S
C2515 C2514 1.524 . S
C2515 C2516 1.397 . S
C2515 C2520 1.363 . S
C2516 H2493 0.950 . S
C2516 C2515 1.397 . S
C2516 C2517 1.334 . S
C2517 H2494 0.950 . S
C2517 C2516 1.334 . S
C2517 C2518 1.287 . S
C2518 C2517 1.287 . S
C2518 C2519 1.524 . S
C2518 H2537 0.913 . S
C2519 H2495 0.950 . S
C2519 C2518 1.524 . S
C2519 C2520 1.415 . S
C2520 H2496 0.950 . S
C2520 C2515 1.363 . S
C2520 C2519 1.415 . S
C2521 H2497 0.951 . S
C2521 C2522 1.366 . S
C2521 C2523 1.388 . S
C2522 C2521 1.366 . S
C2522 C2526 1.385 . S
C2523 H2498 0.951 . S
C2523 C2521 1.388 . S
C2523 C2524 1.366 . S
C2524 C2523 1.366 . S
C2524 C2525 1.414 . S
C2524 C2527 1.499 . S
C2525 H2499 0.950 . S
C2525 C2524 1.414 . S
C2525 C2526 1.374 . S
C2526 H2500 0.950 . S
C2526 C2522 1.385 . S
C2526 C2525 1.374 . S
C2527 C2524 1.499 . S
C2527 C2528 1.373 . S
C2527 C2529 1.389 . S
C2528 H2501 0.950 . S
C2528 C2514 1.377 . S
C2528 C2527 1.373 . S
C2529 C2513 1.377 . S
C2529 C2527 1.389 . S
C2529 C2530 1.524 . S
C2530 C2529 1.524 . S
C2530 C2531 1.397 . S
C2530 C2535 1.363 . S
C2531 H2502 0.950 . S
C2531 C2530 1.397 . S
C2531 C2532 1.334 . S
C2532 H2503 0.950 . S
C2532 C2531 1.334 . S
C2532 C2533 1.287 . S
C2533 C2532 1.287 . S
C2533 C2534 1.524 . S
C2533 H2536 0.999 . S
C2534 H2504 0.950 . S
C2534 C2533 1.524 . S
C2534 C2535 1.415 . S
C2535 H2505 0.950 . S
C2535 C2530 1.363 . S
C2535 C2534 1.415 . S
H2536 C2533 0.999 . S
H2537 C2518 0.913 . S
H2538 C2556 0.951 . S
H2539 C2558 0.951 . S
H2540 C2560 0.950 . S
H2541 C2561 0.950 . S
H2542 C2563 0.950 . S
H2543 C2566 0.950 . S
H2544 C2567 0.950 . S
H2545 C2569 0.950 . S
H2546 C2570 0.950 . S
H2547 C2571 0.951 . S
H2548 C2573 0.951 . S
H2549 C2575 0.950 . S
H2550 C2576 0.950 . S
H2551 C2578 0.950 . S
H2552 C2581 0.950 . S
H2553 C2582 0.950 . S
H2554 C2584 0.950 . S
H2555 C2585 0.950 . S
C2556 H2538 0.951 . S
C2556 C2557 1.366 . S
C2556 C2558 1.388 . S
C2557 C2556 1.366 . S
C2557 C2561 1.385 . S
C2558 H2539 0.951 . S
C2558 C2556 1.388 . S
C2558 C2559 1.366 . S
C2559 C2558 1.366 . S
C2559 C2560 1.414 . S
C2559 C2562 1.499 . S
C2560 H2540 0.950 . S
C2560 C2559 1.414 . S
C2560 C2561 1.374 . S
C2561 H2541 0.950 . S
C2561 C2557 1.385 . S
C2561 C2560 1.374 . S
C2562 C2559 1.499 . S
C2562 C2563 1.373 . S
C2562 C2564 1.389 . S
C2563 H2542 0.950 . S
C2563 C2562 1.373 . S
C2563 C2579 1.377 1_565 S
C2564 C2562 1.389 . S
C2564 C2565 1.524 . S
C2564 C2578 1.377 1_565 S
C2565 C2564 1.524 . S
C2565 C2566 1.397 . S
C2565 C2570 1.363 . S
C2566 H2543 0.950 . S
C2566 C2565 1.397 . S
C2566 C2567 1.334 . S
C2567 H2544 0.950 . S
C2567 C2566 1.334 . S
C2567 C2568 1.287 . S
C2568 C2567 1.287 . S
C2568 C2569 1.524 . S
C2568 H2587 0.913 . S
C2569 H2545 0.950 . S
C2569 C2568 1.524 . S
C2569 C2570 1.415 . S
C2570 H2546 0.950 . S
C2570 C2565 1.363 . S
C2570 C2569 1.415 . S
C2571 H2547 0.951 . S
C2571 C2572 1.366 . S
C2571 C2573 1.388 . S
C2572 C2571 1.366 . S
C2572 C2576 1.385 . S
C2573 H2548 0.951 . S
C2573 C2571 1.388 . S
C2573 C2574 1.366 . S
C2574 C2573 1.366 . S
C2574 C2575 1.414 . S
C2574 C2577 1.499 . S
C2575 H2549 0.950 . S
C2575 C2574 1.414 . S
C2575 C2576 1.374 . S
C2576 H2550 0.950 . S
C2576 C2572 1.385 . S
C2576 C2575 1.374 . S
C2577 C2574 1.499 . S
C2577 C2578 1.373 . S
C2577 C2579 1.389 . S
C2578 H2551 0.950 . S
C2578 C2564 1.377 1_545 S
C2578 C2577 1.373 . S
C2579 C2563 1.377 1_545 S
C2579 C2577 1.389 . S
C2579 C2580 1.524 . S
C2580 C2579 1.524 . S
C2580 C2581 1.397 . S
C2580 C2585 1.363 . S
C2581 H2552 0.950 . S
C2581 C2580 1.397 . S
C2581 C2582 1.334 . S
C2582 H2553 0.950 . S
C2582 C2581 1.334 . S
C2582 C2583 1.287 . S
C2583 C2582 1.287 . S
C2583 C2584 1.524 . S
C2583 H2586 0.999 . S
C2584 H2554 0.950 . S
C2584 C2583 1.524 . S
C2584 C2585 1.415 . S
C2585 H2555 0.950 . S
C2585 C2580 1.363 . S
C2585 C2584 1.415 . S
H2586 C2583 0.999 . S
H2587 C2568 0.913 . S
H2588 C2606 0.951 . S
H2589 C2608 0.951 . S
H2590 C2610 0.950 . S
H2591 C2611 0.950 . S
H2592 C2613 0.950 . S
H2593 C2616 0.950 . S
H2594 C2617 0.950 . S
H2595 C2619 0.950 . S
H2596 C2620 0.950 . S
H2597 C2621 0.951 . S
H2598 C2623 0.951 . S
H2599 C2625 0.950 . S
H2600 C2626 0.950 . S
H2601 C2628 0.950 . S
H2602 C2631 0.950 . S
H2603 C2632 0.950 . S
H2604 C2634 0.950 1_545 S
H2605 C2635 0.950 . S
C2606 H2588 0.951 . S
C2606 C2607 1.366 . S
C2606 C2608 1.388 . S
C2607 C2606 1.366 . S
C2607 C2611 1.385 . S
C2608 H2589 0.951 . S
C2608 C2606 1.388 . S
C2608 C2609 1.366 . S
C2609 C2608 1.366 . S
C2609 C2610 1.414 . S
C2609 C2612 1.499 . S
C2610 H2590 0.950 . S
C2610 C2609 1.414 . S
C2610 C2611 1.374 . S
C2611 H2591 0.950 . S
C2611 C2607 1.385 . S
C2611 C2610 1.374 . S
C2612 C2609 1.499 . S
C2612 C2613 1.373 . S
C2612 C2614 1.389 . S
C2613 H2592 0.950 . S
C2613 C2612 1.373 . S
C2613 C2629 1.377 . S
C2614 C2612 1.389 . S
C2614 C2615 1.524 . S
C2614 C2628 1.377 . S
C2615 C2614 1.524 . S
C2615 C2616 1.397 . S
C2615 C2620 1.363 . S
C2616 H2593 0.950 . S
C2616 C2615 1.397 . S
C2616 C2617 1.334 . S
C2617 H2594 0.950 . S
C2617 C2616 1.334 . S
C2617 C2618 1.287 . S
C2618 C2617 1.287 . S
C2618 C2619 1.524 . S
C2618 H2637 0.913 . S
C2619 H2595 0.950 . S
C2619 C2618 1.524 . S
C2619 C2620 1.415 . S
C2620 H2596 0.950 . S
C2620 C2615 1.363 . S
C2620 C2619 1.415 . S
C2621 H2597 0.951 . S
C2621 C2622 1.366 . S
C2621 C2623 1.388 . S
C2622 C2621 1.366 . S
C2622 C2626 1.385 . S
C2623 H2598 0.951 . S
C2623 C2621 1.388 . S
C2623 C2624 1.366 . S
C2624 C2623 1.366 . S
C2624 C2625 1.414 . S
C2624 C2627 1.499 . S
C2625 H2599 0.950 . S
C2625 C2624 1.414 . S
C2625 C2626 1.374 . S
C2626 H2600 0.950 . S
C2626 C2622 1.385 . S
C2626 C2625 1.374 . S
C2627 C2624 1.499 . S
C2627 C2628 1.373 . S
C2627 C2629 1.389 . S
C2628 H2601 0.950 . S
C2628 C2614 1.377 . S
C2628 C2627 1.373 . S
C2629 C2613 1.377 . S
C2629 C2627 1.389 . S
C2629 C2630 1.524 . S
C2630 C2629 1.524 . S
C2630 C2631 1.397 . S
C2630 C2635 1.363 . S
C2631 H2602 0.950 . S
C2631 C2630 1.397 . S
C2631 C2632 1.334 . S
C2632 H2603 0.950 . S
C2632 C2631 1.334 . S
C2632 C2633 1.287 . S
C2633 C2632 1.287 . S
C2633 C2634 1.524 . S
C2633 H2636 0.999 . S
C2634 H2604 0.950 1_565 S
C2634 C2633 1.524 . S
C2634 C2635 1.415 . S
C2635 H2605 0.950 . S
C2635 C2630 1.363 . S
C2635 C2634 1.415 . S
H2636 C2633 0.999 . S
H2637 C2618 0.913 . S
H2638 C2656 0.951 . S
H2639 C2658 0.951 . S
H2640 C2660 0.950 . S
H2641 C2661 0.950 . S
H2642 C2663 0.950 . S
H2643 C2666 0.950 . S
H2644 C2667 0.950 . S
H2645 C2669 0.950 . S
H2646 C2670 0.950 . S
H2647 C2671 0.951 . S
H2648 C2673 0.951 . S
H2649 C2675 0.950 . S
H2650 C2676 0.950 . S
H2651 C2678 0.950 . S
H2652 C2681 0.950 . S
H2653 C2682 0.950 . S
H2654 C2684 0.950 . S
H2655 C2685 0.950 . S
C2656 H2638 0.951 . S
C2656 C2657 1.366 . S
C2656 C2658 1.388 . S
C2657 C2656 1.366 . S
C2657 C2661 1.385 . S
C2658 H2639 0.951 . S
C2658 C2656 1.388 . S
C2658 C2659 1.366 . S
C2659 C2658 1.366 . S
C2659 C2660 1.414 . S
C2659 C2662 1.499 . S
C2660 H2640 0.950 . S
C2660 C2659 1.414 . S
C2660 C2661 1.374 . S
C2661 H2641 0.950 . S
C2661 C2657 1.385 . S
C2661 C2660 1.374 . S
C2662 C2659 1.499 . S
C2662 C2663 1.373 . S
C2662 C2664 1.389 . S
C2663 H2642 0.950 . S
C2663 C2662 1.373 . S
C2663 C2679 1.377 . S
C2664 C2662 1.389 . S
C2664 C2665 1.524 . S
C2664 C2678 1.377 1_545 S
C2665 C2664 1.524 . S
C2665 C2666 1.397 . S
C2665 C2670 1.363 1_545 S
C2666 H2643 0.950 . S
C2666 C2665 1.397 . S
C2666 C2667 1.334 1_556 S
C2667 H2644 0.950 . S
C2667 C2666 1.334 1_554 S
C2667 C2668 1.287 1_545 S
C2668 C2667 1.287 1_565 S
C2668 C2669 1.524 1_554 S
C2668 H2687 0.913 . S
C2669 H2645 0.950 . S
C2669 C2668 1.524 1_556 S
C2669 C2670 1.415 . S
C2670 H2646 0.950 . S
C2670 C2665 1.363 1_565 S
C2670 C2669 1.415 . S
C2671 H2647 0.951 . S
C2671 C2672 1.366 . S
C2671 C2673 1.388 . S
C2672 C2671 1.366 . S
C2672 C2676 1.385 . S
C2673 H2648 0.951 . S
C2673 C2671 1.388 . S
C2673 C2674 1.366 . S
C2674 C2673 1.366 . S
C2674 C2675 1.414 . S
C2674 C2677 1.499 . S
C2675 H2649 0.950 . S
C2675 C2674 1.414 . S
C2675 C2676 1.374 . S
C2676 H2650 0.950 . S
C2676 C2672 1.385 . S
C2676 C2675 1.374 . S
C2677 C2674 1.499 . S
C2677 C2678 1.373 . S
C2677 C2679 1.389 1_565 S
C2678 H2651 0.950 . S
C2678 C2664 1.377 1_565 S
C2678 C2677 1.373 . S
C2679 C2663 1.377 . S
C2679 C2677 1.389 1_545 S
C2679 C2680 1.524 . S
C2680 C2679 1.524 . S
C2680 C2681 1.397 . S
C2680 C2685 1.363 . S
C2681 H2652 0.950 . S
C2681 C2680 1.397 . S
C2681 C2682 1.334 . S
C2682 H2653 0.950 . S
C2682 C2681 1.334 . S
C2682 C2683 1.287 . S
C2683 C2682 1.287 . S
C2683 C2684 1.524 . S
C2683 H2686 0.999 . S
C2684 H2654 0.950 . S
C2684 C2683 1.524 . S
C2684 C2685 1.415 . S
C2685 H2655 0.950 . S
C2685 C2680 1.363 . S
C2685 C2684 1.415 . S
H2686 C2683 0.999 . S
H2687 C2668 0.913 . S
H2688 C2706 0.951 . S
H2689 C2708 0.951 . S
H2690 C2710 0.950 . S
H2691 C2711 0.950 . S
H2692 C2713 0.950 . S
H2693 C2716 0.950 . S
H2694 C2717 0.950 . S
H2695 C2719 0.950 . S
H2696 C2720 0.950 . S
H2697 C2721 0.951 . S
H2698 C2723 0.951 . S
H2699 C2725 0.950 . S
H2700 C2726 0.950 . S
H2701 C2728 0.950 . S
H2702 C2731 0.950 . S
H2703 C2732 0.950 . S
H2704 C2734 0.950 . S
H2705 C2735 0.950 . S
C2706 H2688 0.951 . S
C2706 C2707 1.366 . S
C2706 C2708 1.388 . S
C2707 C2706 1.366 . S
C2707 C2711 1.385 . S
C2708 H2689 0.951 . S
C2708 C2706 1.388 . S
C2708 C2709 1.366 . S
C2709 C2708 1.366 . S
C2709 C2710 1.414 . S
C2709 C2712 1.499 . S
C2710 H2690 0.950 . S
C2710 C2709 1.414 . S
C2710 C2711 1.374 . S
C2711 H2691 0.950 . S
C2711 C2707 1.385 . S
C2711 C2710 1.374 . S
C2712 C2709 1.499 . S
C2712 C2713 1.373 . S
C2712 C2714 1.389 . S
C2713 H2692 0.950 . S
C2713 C2712 1.373 . S
C2713 C2729 1.377 . S
C2714 C2712 1.389 . S
C2714 C2715 1.524 . S
C2714 C2728 1.377 . S
C2715 C2714 1.524 . S
C2715 C2716 1.397 . S
C2715 C2720 1.363 . S
C2716 H2693 0.950 . S
C2716 C2715 1.397 . S
C2716 C2717 1.334 . S
C2717 H2694 0.950 . S
C2717 C2716 1.334 . S
C2717 C2718 1.287 1_556 S
C2718 C2717 1.287 1_554 S
C2718 C2719 1.524 . S
C2718 H2737 0.913 . S
C2719 H2695 0.950 . S
C2719 C2718 1.524 . S
C2719 C2720 1.415 1_554 S
C2720 H2696 0.950 . S
C2720 C2715 1.363 . S
C2720 C2719 1.415 1_556 S
C2721 H2697 0.951 . S
C2721 C2722 1.366 . S
C2721 C2723 1.388 . S
C2722 C2721 1.366 . S
C2722 C2726 1.385 . S
C2723 H2698 0.951 . S
C2723 C2721 1.388 . S
C2723 C2724 1.366 . S
C2724 C2723 1.366 . S
C2724 C2725 1.414 . S
C2724 C2727 1.499 . S
C2725 H2699 0.950 . S
C2725 C2724 1.414 . S
C2725 C2726 1.374 . S
C2726 H2700 0.950 . S
C2726 C2722 1.385 . S
C2726 C2725 1.374 . S
C2727 C2724 1.499 . S
C2727 C2728 1.373 . S
C2727 C2729 1.389 . S
C2728 H2701 0.950 . S
C2728 C2714 1.377 . S
C2728 C2727 1.373 . S
C2729 C2713 1.377 . S
C2729 C2727 1.389 . S
C2729 C2730 1.524 . S
C2730 C2729 1.524 . S
C2730 C2731 1.397 . S
C2730 C2735 1.363 . S
C2731 H2702 0.950 . S
C2731 C2730 1.397 . S
C2731 C2732 1.334 . S
C2732 H2703 0.950 . S
C2732 C2731 1.334 . S
C2732 C2733 1.287 . S
C2733 C2732 1.287 . S
C2733 C2734 1.524 . S
C2733 H2736 0.999 . S
C2734 H2704 0.950 . S
C2734 C2733 1.524 . S
C2734 C2735 1.415 . S
C2735 H2705 0.950 . S
C2735 C2730 1.363 . S
C2735 C2734 1.415 . S
H2736 C2733 0.999 . S
H2737 C2718 0.913 . S
H2738 C2756 0.951 . S
H2739 C2758 0.951 . S
H2740 C2760 0.950 . S
H2741 C2761 0.950 . S
H2742 C2763 0.950 . S
H2743 C2766 0.950 . S
H2744 C2767 0.950 . S
H2745 C2769 0.950 . S
H2746 C2770 0.950 . S
H2747 C2771 0.951 . S
H2748 C2773 0.951 . S
H2749 C2775 0.950 . S
H2750 C2776 0.950 . S
H2751 C2778 0.950 . S
H2752 C2781 0.950 . S
H2753 C2782 0.950 . S
H2754 C2784 0.950 . S
H2755 C2785 0.950 . S
C2756 H2738 0.951 . S
C2756 C2757 1.366 . S
C2756 C2758 1.388 . S
C2757 C2756 1.366 . S
C2757 C2761 1.385 . S
C2758 H2739 0.951 . S
C2758 C2756 1.388 . S
C2758 C2759 1.366 . S
C2759 C2758 1.366 . S
C2759 C2760 1.414 . S
C2759 C2762 1.499 . S
C2760 H2740 0.950 . S
C2760 C2759 1.414 . S
C2760 C2761 1.374 . S
C2761 H2741 0.950 . S
C2761 C2757 1.385 . S
C2761 C2760 1.374 . S
C2762 C2759 1.499 . S
C2762 C2763 1.373 . S
C2762 C2764 1.389 . S
C2763 H2742 0.950 . S
C2763 C2762 1.373 . S
C2763 C2779 1.377 . S
C2764 C2762 1.389 . S
C2764 C2765 1.524 . S
C2764 C2778 1.377 . S
C2765 C2764 1.524 . S
C2765 C2766 1.397 . S
C2765 C2770 1.363 . S
C2766 H2743 0.950 . S
C2766 C2765 1.397 . S
C2766 C2767 1.334 . S
C2767 H2744 0.950 . S
C2767 C2766 1.334 . S
C2767 C2768 1.287 . S
C2768 C2767 1.287 . S
C2768 C2769 1.524 . S
C2768 H2787 0.913 . S
C2769 H2745 0.950 . S
C2769 C2768 1.524 . S
C2769 C2770 1.415 . S
C2770 H2746 0.950 . S
C2770 C2765 1.363 . S
C2770 C2769 1.415 . S
C2771 H2747 0.951 . S
C2771 C2772 1.366 . S
C2771 C2773 1.388 . S
C2772 C2771 1.366 . S
C2772 C2776 1.385 . S
C2773 H2748 0.951 . S
C2773 C2771 1.388 . S
C2773 C2774 1.366 . S
C2774 C2773 1.366 . S
C2774 C2775 1.414 . S
C2774 C2777 1.499 . S
C2775 H2749 0.950 . S
C2775 C2774 1.414 . S
C2775 C2776 1.374 . S
C2776 H2750 0.950 . S
C2776 C2772 1.385 . S
C2776 C2775 1.374 . S
C2777 C2774 1.499 . S
C2777 C2778 1.373 . S
C2777 C2779 1.389 . S
C2778 H2751 0.950 . S
C2778 C2764 1.377 . S
C2778 C2777 1.373 . S
C2779 C2763 1.377 . S
C2779 C2777 1.389 . S
C2779 C2780 1.524 . S
C2780 C2779 1.524 . S
C2780 C2781 1.397 . S
C2780 C2785 1.363 . S
C2781 H2752 0.950 . S
C2781 C2780 1.397 . S
C2781 C2782 1.334 . S
C2782 H2753 0.950 . S
C2782 C2781 1.334 . S
C2782 C2783 1.287 . S
C2783 C2782 1.287 . S
C2783 C2784 1.524 . S
C2783 H2786 0.999 . S
C2784 H2754 0.950 . S
C2784 C2783 1.524 . S
C2784 C2785 1.415 . S
C2785 H2755 0.950 . S
C2785 C2780 1.363 . S
C2785 C2784 1.415 . S
H2786 C2783 0.999 . S
H2787 C2768 0.913 . S
H2788 C2806 0.951 . S
H2789 C2808 0.951 . S
H2790 C2810 0.950 . S
H2791 C2811 0.950 . S
H2792 C2813 0.950 . S
H2793 C2816 0.950 . S
H2794 C2817 0.950 . S
H2795 C2819 0.950 . S
H2796 C2820 0.950 . S
H2797 C2821 0.951 . S
H2798 C2823 0.951 . S
H2799 C2825 0.950 . S
H2800 C2826 0.950 . S
H2801 C2828 0.950 . S
H2802 C2831 0.950 . S
H2803 C2832 0.949 1_455 S
H2804 C2834 0.947 1_455 S
H2805 C2835 0.950 . S
C2806 H2788 0.951 . S
C2806 C2807 1.366 . S
C2806 C2808 1.388 . S
C2807 C2806 1.366 . S
C2807 C2811 1.385 . S
C2808 H2789 0.951 . S
C2808 C2806 1.388 . S
C2808 C2809 1.366 . S
C2809 C2808 1.366 . S
C2809 C2810 1.414 . S
C2809 C2812 1.499 . S
C2810 H2790 0.950 . S
C2810 C2809 1.414 . S
C2810 C2811 1.374 . S
C2811 H2791 0.950 . S
C2811 C2807 1.385 . S
C2811 C2810 1.374 . S
C2812 C2809 1.499 . S
C2812 C2813 1.373 . S
C2812 C2814 1.389 . S
C2813 H2792 0.950 . S
C2813 C2812 1.373 . S
C2813 C2829 1.377 . S
C2814 C2812 1.389 . S
C2814 C2815 1.524 . S
C2814 C2828 1.377 1_655 S
C2815 C2814 1.524 . S
C2815 C2816 1.397 . S
C2815 C2820 1.363 . S
C2816 H2793 0.950 . S
C2816 C2815 1.397 . S
C2816 C2817 1.334 . S
C2817 H2794 0.950 . S
C2817 C2816 1.334 . S
C2817 C2818 1.287 . S
C2818 C2817 1.287 . S
C2818 C2819 1.524 . S
C2818 H2837 0.913 . S
C2819 H2795 0.950 . S
C2819 C2818 1.524 . S
C2819 C2820 1.415 . S
C2820 H2796 0.950 . S
C2820 C2815 1.363 . S
C2820 C2819 1.415 . S
C2821 H2797 0.951 . S
C2821 C2822 1.366 . S
C2821 C2823 1.388 . S
C2822 C2821 1.366 . S
C2822 C2826 1.385 . S
C2823 H2798 0.951 . S
C2823 C2821 1.388 . S
C2823 C2824 1.366 . S
C2824 C2823 1.366 . S
C2824 C2825 1.414 . S
C2824 C2827 1.499 . S
C2825 H2799 0.950 . S
C2825 C2824 1.414 . S
C2825 C2826 1.374 . S
C2826 H2800 0.950 . S
C2826 C2822 1.385 . S
C2826 C2825 1.374 . S
C2827 C2824 1.499 . S
C2827 C2828 1.373 . S
C2827 C2829 1.389 1_455 S
C2828 H2801 0.950 . S
C2828 C2814 1.377 1_455 S
C2828 C2827 1.373 . S
C2829 C2813 1.377 . S
C2829 C2827 1.389 1_655 S
C2829 C2830 1.524 . S
C2830 C2829 1.524 . S
C2830 C2831 1.397 . S
C2830 C2835 1.363 . S
C2831 H2802 0.950 . S
C2831 C2830 1.397 . S
C2831 C2832 1.337 . S
C2832 H2803 0.949 1_655 S
C2832 C2831 1.337 . S
C2832 C2833 1.287 . S
C2833 C2832 1.287 . S
C2833 C2834 1.524 . S
C2833 H2836 0.997 1_655 S
C2834 H2804 0.947 1_655 S
C2834 C2833 1.524 . S
C2834 C2835 1.416 . S
C2835 H2805 0.950 . S
C2835 C2830 1.363 . S
C2835 C2834 1.416 . S
H2836 C2833 0.997 1_455 S
H2837 C2818 0.913 . S
H2838 C2856 0.951 . S
H2839 C2858 0.951 . S
H2840 C2860 0.950 . S
H2841 C2861 0.950 . S
H2842 C2863 0.950 . S
H2843 C2866 0.950 . S
H2844 C2867 0.950 . S
H2845 C2869 0.950 . S
H2846 C2870 0.950 . S
H2847 C2871 0.951 . S
H2848 C2873 0.951 . S
H2849 C2875 0.950 . S
H2850 C2876 0.950 . S
H2851 C2878 0.950 . S
H2852 C2881 0.950 . S
H2853 C2882 0.950 . S
H2854 C2884 0.950 . S
H2855 C2885 0.950 . S
C2856 H2838 0.951 . S
C2856 C2857 1.366 . S
C2856 C2858 1.388 . S
C2857 C2856 1.366 . S
C2857 C2861 1.385 . S
C2858 H2839 0.951 . S
C2858 C2856 1.388 . S
C2858 C2859 1.366 . S
C2859 C2858 1.366 . S
C2859 C2860 1.414 . S
C2859 C2862 1.499 . S
C2860 H2840 0.950 . S
C2860 C2859 1.414 . S
C2860 C2861 1.374 . S
C2861 H2841 0.950 . S
C2861 C2857 1.385 . S
C2861 C2860 1.374 . S
C2862 C2859 1.499 . S
C2862 C2863 1.373 . S
C2862 C2864 1.389 . S
C2863 H2842 0.950 . S
C2863 C2862 1.373 . S
C2863 C2879 1.377 . S
C2864 C2862 1.389 . S
C2864 C2865 1.524 . S
C2864 C2878 1.377 . S
C2865 C2864 1.524 . S
C2865 C2866 1.397 . S
C2865 C2870 1.363 . S
C2866 H2843 0.950 . S
C2866 C2865 1.397 . S
C2866 C2867 1.334 . S
C2867 H2844 0.950 . S
C2867 C2866 1.334 . S
C2867 C2868 1.287 . S
C2868 C2867 1.287 . S
C2868 C2869 1.524 . S
C2868 H2887 0.913 . S
C2869 H2845 0.950 . S
C2869 C2868 1.524 . S
C2869 C2870 1.415 . S
C2870 H2846 0.950 . S
C2870 C2865 1.363 . S
C2870 C2869 1.415 . S
C2871 H2847 0.951 . S
C2871 C2872 1.366 . S
C2871 C2873 1.388 . S
C2872 C2871 1.366 . S
C2872 C2876 1.385 . S
C2873 H2848 0.951 . S
C2873 C2871 1.388 . S
C2873 C2874 1.366 . S
C2874 C2873 1.366 . S
C2874 C2875 1.414 . S
C2874 C2877 1.499 . S
C2875 H2849 0.950 . S
C2875 C2874 1.414 . S
C2875 C2876 1.374 . S
C2876 H2850 0.950 . S
C2876 C2872 1.385 . S
C2876 C2875 1.374 . S
C2877 C2874 1.499 . S
C2877 C2878 1.373 . S
C2877 C2879 1.389 . S
C2878 H2851 0.950 . S
C2878 C2864 1.377 . S
C2878 C2877 1.373 . S
C2879 C2863 1.377 . S
C2879 C2877 1.389 . S
C2879 C2880 1.524 . S
C2880 C2879 1.524 . S
C2880 C2881 1.397 . S
C2880 C2885 1.363 . S
C2881 H2852 0.950 . S
C2881 C2880 1.397 . S
C2881 C2882 1.334 . S
C2882 H2853 0.950 . S
C2882 C2881 1.334 . S
C2882 C2883 1.287 . S
C2883 C2882 1.287 . S
C2883 C2884 1.524 . S
C2883 H2886 0.999 . S
C2884 H2854 0.950 . S
C2884 C2883 1.524 . S
C2884 C2885 1.415 . S
C2885 H2855 0.950 . S
C2885 C2880 1.363 . S
C2885 C2884 1.415 . S
H2886 C2883 0.999 . S
H2887 C2868 0.913 . S
H2888 C2906 0.951 . S
H2889 C2908 0.951 . S
H2890 C2910 0.950 . S
H2891 C2911 0.950 1_545 S
H2892 C2913 0.950 . S
H2893 C2916 0.950 . S
H2894 C2917 0.950 . S
H2895 C2919 0.950 . S
H2896 C2920 0.950 . S
H2897 C2921 0.951 . S
H2898 C2923 0.951 . S
H2899 C2925 0.950 . S
H2900 C2926 0.950 . S
H2901 C2928 0.950 1_655 S
H2902 C2931 0.950 . S
H2903 C2932 0.949 1_655 S
H2904 C2934 0.950 1_545 S
H2905 C2935 0.950 . S
C2906 H2888 0.951 . S
C2906 C2907 1.366 . S
C2906 C2908 1.388 . S
C2907 C2906 1.366 . S
C2907 C2911 1.385 . S
C2908 H2889 0.951 . S
C2908 C2906 1.388 . S
C2908 C2909 1.366 . S
C2909 C2908 1.366 . S
C2909 C2910 1.414 . S
C2909 C2912 1.499 . S
C2910 H2890 0.950 . S
C2910 C2909 1.414 . S
C2910 C2911 1.374 . S
C2911 H2891 0.950 1_565 S
C2911 C2907 1.385 . S
C2911 C2910 1.374 . S
C2912 C2909 1.499 . S
C2912 C2913 1.373 . S
C2912 C2914 1.389 . S
C2913 H2892 0.950 . S
C2913 C2912 1.373 . S
C2913 C2929 1.377 . S
C2914 C2912 1.389 . S
C2914 C2915 1.524 . S
C2914 C2928 1.377 . S
C2915 C2914 1.524 . S
C2915 C2916 1.397 . S
C2915 C2920 1.363 . S
C2916 H2893 0.950 . S
C2916 C2915 1.397 . S
C2916 C2917 1.334 . S
C2917 H2894 0.950 . S
C2917 C2916 1.334 . S
C2917 C2918 1.287 . S
C2918 C2917 1.287 . S
C2918 C2919 1.524 . S
C2918 H2937 0.913 . S
C2919 H2895 0.950 . S
C2919 C2918 1.524 . S
C2919 C2920 1.415 . S
C2920 H2896 0.950 . S
C2920 C2915 1.363 . S
C2920 C2919 1.415 . S
C2921 H2897 0.951 . S
C2921 C2922 1.366 . S
C2921 C2923 1.388 . S
C2922 C2921 1.366 . S
C2922 C2926 1.385 . S
C2923 H2898 0.951 . S
C2923 C2921 1.388 . S
C2923 C2924 1.366 . S
C2924 C2923 1.366 . S
C2924 C2925 1.414 . S
C2924 C2927 1.499 . S
C2925 H2899 0.950 . S
C2925 C2924 1.414 . S
C2925 C2926 1.374 . S
C2926 H2900 0.950 . S
C2926 C2922 1.385 . S
C2926 C2925 1.374 . S
C2927 C2924 1.499 . S
C2927 C2928 1.373 1_655 S
C2927 C2929 1.389 1_655 S
C2928 H2901 0.950 1_455 S
C2928 C2914 1.377 . S
C2928 C2927 1.373 1_455 S
C2929 C2913 1.377 . S
C2929 C2927 1.389 1_455 S
C2929 C2930 1.524 . S
C2930 C2929 1.524 . S
C2930 C2931 1.397 . S
C2930 C2935 1.363 . S
C2931 H2902 0.950 . S
C2931 C2930 1.397 . S
C2931 C2932 1.339 . S
C2932 H2903 0.949 1_455 S
C2932 C2931 1.339 . S
C2932 C2933 1.284 1_455 S
C2933 C2932 1.284 1_655 S
C2933 C2934 1.524 . S
C2933 H2936 0.999 . S
C2934 H2904 0.950 1_565 S
C2934 C2933 1.524 . S
C2934 C2935 1.415 1_655 S
C2935 H2905 0.950 . S
C2935 C2930 1.363 . S
C2935 C2934 1.415 1_455 S
H2936 C2933 0.999 . S
H2937 C2918 0.913 . S
H2938 C2956 0.951 . S
H2939 C2958 0.951 . S
H2940 C2960 0.950 . S
H2941 C2961 0.950 . S
H2942 C2963 0.950 . S
H2943 C2966 0.950 . S
H2944 C2967 0.950 . S
H2945 C2969 0.950 . S
H2946 C2970 0.950 . S
H2947 C2971 0.951 . S
H2948 C2973 0.951 . S
H2949 C2975 0.950 . S
H2950 C2976 0.950 . S
H2951 C2978 0.950 . S
H2952 C2981 0.950 . S
H2953 C2982 0.950 . S
H2954 C2984 0.950 . S
H2955 C2985 0.950 . S
C2956 H2938 0.951 . S
C2956 C2957 1.366 . S
C2956 C2958 1.388 . S
C2957 C2956 1.366 . S
C2957 C2961 1.385 . S
C2958 H2939 0.951 . S
C2958 C2956 1.388 . S
C2958 C2959 1.366 . S
C2959 C2958 1.366 . S
C2959 C2960 1.414 . S
C2959 C2962 1.499 . S
C2960 H2940 0.950 . S
C2960 C2959 1.414 . S
C2960 C2961 1.374 . S
C2961 H2941 0.950 . S
C2961 C2957 1.385 . S
C2961 C2960 1.374 . S
C2962 C2959 1.499 . S
C2962 C2963 1.373 . S
C2962 C2964 1.389 . S
C2963 H2942 0.950 . S
C2963 C2962 1.373 . S
C2963 C2979 1.377 . S
C2964 C2962 1.389 . S
C2964 C2965 1.524 . S
C2964 C2978 1.377 . S
C2965 C2964 1.524 . S
C2965 C2966 1.397 . S
C2965 C2970 1.363 . S
C2966 H2943 0.950 . S
C2966 C2965 1.397 . S
C2966 C2967 1.334 . S
C2967 H2944 0.950 . S
C2967 C2966 1.334 . S
C2967 C2968 1.287 . S
C2968 C2967 1.287 . S
C2968 C2969 1.524 . S
C2968 H2987 0.913 . S
C2969 H2945 0.950 . S
C2969 C2968 1.524 . S
C2969 C2970 1.415 . S
C2970 H2946 0.950 . S
C2970 C2965 1.363 . S
C2970 C2969 1.415 . S
C2971 H2947 0.951 . S
C2971 C2972 1.366 . S
C2971 C2973 1.388 . S
C2972 C2971 1.366 . S
C2972 C2976 1.385 . S
C2973 H2948 0.951 . S
C2973 C2971 1.388 . S
C2973 C2974 1.366 . S
C2974 C2973 1.366 . S
C2974 C2975 1.414 . S
C2974 C2977 1.499 . S
C2975 H2949 0.950 . S
C2975 C2974 1.414 . S
C2975 C2976 1.374 . S
C2976 H2950 0.950 . S
C2976 C2972 1.385 . S
C2976 C2975 1.374 . S
C2977 C2974 1.499 . S
C2977 C2978 1.373 . S
C2977 C2979 1.389 . S
C2978 H2951 0.950 . S
C2978 C2964 1.377 . S
C2978 C2977 1.373 . S
C2979 C2963 1.377 . S
C2979 C2977 1.389 . S
C2979 C2980 1.524 . S
C2980 C2979 1.524 . S
C2980 C2981 1.397 . S
C2980 C2985 1.363 . S
C2981 H2952 0.950 . S
C2981 C2980 1.397 . S
C2981 C2982 1.334 . S
C2982 H2953 0.950 . S
C2982 C2981 1.334 . S
C2982 C2983 1.287 . S
C2983 C2982 1.287 . S
C2983 C2984 1.524 . S
C2983 H2986 0.999 . S
C2984 H2954 0.950 . S
C2984 C2983 1.524 . S
C2984 C2985 1.415 . S
C2985 H2955 0.950 . S
C2985 C2980 1.363 . S
C2985 C2984 1.415 . S
H2986 C2983 0.999 . S
H2987 C2968 0.913 . S
H2988 C3006 0.951 . S
H2989 C3008 0.951 . S
H2990 C3010 0.950 . S
H2991 C3011 0.950 . S
H2992 C3013 0.950 . S
H2993 C3016 0.950 . S
H2994 C3017 0.950 . S
H2995 C3019 0.950 . S
H2996 C3020 0.950 . S
H2997 C3021 0.951 . S
H2998 C3023 0.951 . S
H2999 C3025 0.950 . S
H3000 C3026 0.950 . S
H3001 C3028 0.950 . S
H3002 C3031 0.950 . S
H3003 C3032 0.950 . S
H3004 C3034 0.950 . S
H3005 C3035 0.951 . S
C3006 H2988 0.951 . S
C3006 C3007 1.366 . S
C3006 C3008 1.388 . S
C3007 C3006 1.366 . S
C3007 C3011 1.385 . S
C3008 H2989 0.951 . S
C3008 C3006 1.388 . S
C3008 C3009 1.366 . S
C3009 C3008 1.366 . S
C3009 C3010 1.414 . S
C3009 C3012 1.499 . S
C3010 H2990 0.950 . S
C3010 C3009 1.414 . S
C3010 C3011 1.374 . S
C3011 H2991 0.950 . S
C3011 C3007 1.385 . S
C3011 C3010 1.374 . S
C3012 C3009 1.499 . S
C3012 C3013 1.373 . S
C3012 C3014 1.389 . S
C3013 H2992 0.950 . S
C3013 C3012 1.373 . S
C3013 C3029 1.377 . S
C3014 C3012 1.389 . S
C3014 C3015 1.524 . S
C3014 C3028 1.377 1_655 S
C3015 C3014 1.524 . S
C3015 C3016 1.397 . S
C3015 C3020 1.363 . S
C3016 H2993 0.950 . S
C3016 C3015 1.397 . S
C3016 C3017 1.334 . S
C3017 H2994 0.950 . S
C3017 C3016 1.334 . S
C3017 C3018 1.287 . S
C3018 C3017 1.287 . S
C3018 C3019 1.524 . S
C3018 H3037 0.913 . S
C3019 H2995 0.950 . S
C3019 C3018 1.524 . S
C3019 C3020 1.415 . S
C3020 H2996 0.950 . S
C3020 C3015 1.363 . S
C3020 C3019 1.415 . S
C3021 H2997 0.951 . S
C3021 C3022 1.366 . S
C3021 C3023 1.388 . S
C3022 C3021 1.366 . S
C3022 C3026 1.385 . S
C3023 H2998 0.951 . S
C3023 C3021 1.388 . S
C3023 C3024 1.366 . S
C3024 C3023 1.366 . S
C3024 C3025 1.414 . S
C3024 C3027 1.499 . S
C3025 H2999 0.950 . S
C3025 C3024 1.414 . S
C3025 C3026 1.374 . S
C3026 H3000 0.950 . S
C3026 C3022 1.385 . S
C3026 C3025 1.374 . S
C3027 C3024 1.499 . S
C3027 C3028 1.373 . S
C3027 C3029 1.389 1_455 S
C3028 H3001 0.950 . S
C3028 C3014 1.377 1_455 S
C3028 C3027 1.373 . S
C3029 C3013 1.377 . S
C3029 C3027 1.389 1_655 S
C3029 C3030 1.525 . S
C3030 C3029 1.525 . S
C3030 C3031 1.397 . S
C3030 C3035 1.363 1_655 S
C3031 H3002 0.950 . S
C3031 C3030 1.397 . S
C3031 C3032 1.334 1_655 S
C3032 H3003 0.950 . S
C3032 C3031 1.334 1_455 S
C3032 C3033 1.287 . S
C3033 C3032 1.287 . S
C3033 C3034 1.524 . S
C3033 H3036 0.999 . S
C3034 H3004 0.950 . S
C3034 C3033 1.524 . S
C3034 C3035 1.415 . S
C3035 H3005 0.951 . S
C3035 C3030 1.363 1_455 S
C3035 C3034 1.415 . S
H3036 C3033 0.999 . S
H3037 C3018 0.913 . S
H3038 C3056 0.951 . S
H3039 C3058 0.951 . S
H3040 C3060 0.950 . S
H3041 C3061 0.950 . S
H3042 C3063 0.950 . S
H3043 C3066 0.950 . S
H3044 C3067 0.950 . S
H3045 C3069 0.950 . S
H3046 C3070 0.950 . S
H3047 C3071 0.951 . S
H3048 C3073 0.951 . S
H3049 C3075 0.950 . S
H3050 C3076 0.950 . S
H3051 C3078 0.950 . S
H3052 C3081 0.950 . S
H3053 C3082 0.950 . S
H3054 C3084 0.950 . S
H3055 C3085 0.950 . S
C3056 H3038 0.951 . S
C3056 C3057 1.366 . S
C3056 C3058 1.388 . S
C3057 C3056 1.366 . S
C3057 C3061 1.385 . S
C3058 H3039 0.951 . S
C3058 C3056 1.388 . S
C3058 C3059 1.366 . S
C3059 C3058 1.366 . S
C3059 C3060 1.414 . S
C3059 C3062 1.499 . S
C3060 H3040 0.950 . S
C3060 C3059 1.414 . S
C3060 C3061 1.374 . S
C3061 H3041 0.950 . S
C3061 C3057 1.385 . S
C3061 C3060 1.374 . S
C3062 C3059 1.499 . S
C3062 C3063 1.373 . S
C3062 C3064 1.389 . S
C3063 H3042 0.950 . S
C3063 C3062 1.373 . S
C3063 C3079 1.377 . S
C3064 C3062 1.389 . S
C3064 C3065 1.524 . S
C3064 C3078 1.377 . S
C3065 C3064 1.524 . S
C3065 C3066 1.397 . S
C3065 C3070 1.363 . S
C3066 H3043 0.950 . S
C3066 C3065 1.397 . S
C3066 C3067 1.334 . S
C3067 H3044 0.950 . S
C3067 C3066 1.334 . S
C3067 C3068 1.287 . S
C3068 C3067 1.287 . S
C3068 C3069 1.524 . S
C3068 H3087 0.913 . S
C3069 H3045 0.950 . S
C3069 C3068 1.524 . S
C3069 C3070 1.415 . S
C3070 H3046 0.950 . S
C3070 C3065 1.363 . S
C3070 C3069 1.415 . S
C3071 H3047 0.951 . S
C3071 C3072 1.366 . S
C3071 C3073 1.388 . S
C3072 C3071 1.366 . S
C3072 C3076 1.385 . S
C3073 H3048 0.951 . S
C3073 C3071 1.388 . S
C3073 C3074 1.366 . S
C3074 C3073 1.366 . S
C3074 C3075 1.414 . S
C3074 C3077 1.499 . S
C3075 H3049 0.950 . S
C3075 C3074 1.414 . S
C3075 C3076 1.374 . S
C3076 H3050 0.950 . S
C3076 C3072 1.385 . S
C3076 C3075 1.374 . S
C3077 C3074 1.499 . S
C3077 C3078 1.373 . S
C3077 C3079 1.389 . S
C3078 H3051 0.950 . S
C3078 C3064 1.377 . S
C3078 C3077 1.373 . S
C3079 C3063 1.377 . S
C3079 C3077 1.389 . S
C3079 C3080 1.524 . S
C3080 C3079 1.524 . S
C3080 C3081 1.397 . S
C3080 C3085 1.363 . S
C3081 H3052 0.950 . S
C3081 C3080 1.397 . S
C3081 C3082 1.334 . S
C3082 H3053 0.950 . S
C3082 C3081 1.334 . S
C3082 C3083 1.287 . S
C3083 C3082 1.287 . S
C3083 C3084 1.524 . S
C3083 H3086 0.999 . S
C3084 H3054 0.950 . S
C3084 C3083 1.524 . S
C3084 C3085 1.415 . S
C3085 H3055 0.950 . S
C3085 C3080 1.363 . S
C3085 C3084 1.415 . S
H3086 C3083 0.999 . S
H3087 C3068 0.913 . S
H3088 C3106 0.951 . S
H3089 C3108 0.951 . S
H3090 C3110 0.950 . S
H3091 C3111 0.950 . S
H3092 C3113 0.950 . S
H3093 C3116 0.950 . S
H3094 C3117 0.950 . S
H3095 C3119 0.950 . S
H3096 C3120 0.950 . S
H3097 C3121 0.951 . S
H3098 C3123 0.951 . S
H3099 C3125 0.950 . S
H3100 C3126 0.950 . S
H3101 C3128 0.950 . S
H3102 C3131 0.950 . S
H3103 C3132 0.950 . S
H3104 C3134 0.950 . S
H3105 C3135 0.950 . S
C3106 H3088 0.951 . S
C3106 C3107 1.366 . S
C3106 C3108 1.388 . S
C3107 C3106 1.366 . S
C3107 C3111 1.385 . S
C3108 H3089 0.951 . S
C3108 C3106 1.388 . S
C3108 C3109 1.366 . S
C3109 C3108 1.366 . S
C3109 C3110 1.414 . S
C3109 C3112 1.499 . S
C3110 H3090 0.950 . S
C3110 C3109 1.414 . S
C3110 C3111 1.374 . S
C3111 H3091 0.950 . S
C3111 C3107 1.385 . S
C3111 C3110 1.374 . S
C3112 C3109 1.499 . S
C3112 C3113 1.373 . S
C3112 C3114 1.389 . S
C3113 H3092 0.950 . S
C3113 C3112 1.373 . S
C3113 C3129 1.377 . S
C3114 C3112 1.389 . S
C3114 C3115 1.524 . S
C3114 C3128 1.377 . S
C3115 C3114 1.524 . S
C3115 C3116 1.397 . S
C3115 C3120 1.363 . S
C3116 H3093 0.950 . S
C3116 C3115 1.397 . S
C3116 C3117 1.334 . S
C3117 H3094 0.950 . S
C3117 C3116 1.334 . S
C3117 C3118 1.287 . S
C3118 C3117 1.287 . S
C3118 C3119 1.524 . S
C3118 H3137 0.913 . S
C3119 H3095 0.950 . S
C3119 C3118 1.524 . S
C3119 C3120 1.415 . S
C3120 H3096 0.950 . S
C3120 C3115 1.363 . S
C3120 C3119 1.415 . S
C3121 H3097 0.951 . S
C3121 C3122 1.366 . S
C3121 C3123 1.388 . S
C3122 C3121 1.366 . S
C3122 C3126 1.385 . S
C3123 H3098 0.951 . S
C3123 C3121 1.388 . S
C3123 C3124 1.366 . S
C3124 C3123 1.366 . S
C3124 C3125 1.414 . S
C3124 C3127 1.499 . S
C3125 H3099 0.950 . S
C3125 C3124 1.414 . S
C3125 C3126 1.374 . S
C3126 H3100 0.950 . S
C3126 C3122 1.385 . S
C3126 C3125 1.374 . S
C3127 C3124 1.499 . S
C3127 C3128 1.373 . S
C3127 C3129 1.389 . S
C3128 H3101 0.950 . S
C3128 C3114 1.377 . S
C3128 C3127 1.373 . S
C3129 C3113 1.377 . S
C3129 C3127 1.389 . S
C3129 C3130 1.524 . S
C3130 C3129 1.524 . S
C3130 C3131 1.397 . S
C3130 C3135 1.363 . S
C3131 H3102 0.950 . S
C3131 C3130 1.397 . S
C3131 C3132 1.334 . S
C3132 H3103 0.950 . S
C3132 C3131 1.334 . S
C3132 C3133 1.287 . S
C3133 C3132 1.287 . S
C3133 C3134 1.524 . S
C3133 H3136 0.999 . S
C3134 H3104 0.950 . S
C3134 C3133 1.524 . S
C3134 C3135 1.415 . S
C3135 H3105 0.950 . S
C3135 C3130 1.363 . S
C3135 C3134 1.415 . S
H3136 C3133 0.999 . S
H3137 C3118 0.913 . S
H3138 C3156 0.951 . S
H3139 C3158 0.951 . S
H3140 C3160 0.950 . S
H3141 C3161 0.950 . S
H3142 C3163 0.950 . S
H3143 C3166 0.950 . S
H3144 C3167 0.950 . S
H3145 C3169 0.950 . S
H3146 C3170 0.950 . S
H3147 C3171 0.951 . S
H3148 C3173 0.951 . S
H3149 C3175 0.950 . S
H3150 C3176 0.950 . S
H3151 C3178 0.950 . S
H3152 C3181 0.950 . S
H3153 C3182 0.950 . S
H3154 C3184 0.950 . S
H3155 C3185 0.950 . S
C3156 H3138 0.951 . S
C3156 C3157 1.366 . S
C3156 C3158 1.388 . S
C3157 C3156 1.366 . S
C3157 C3161 1.385 . S
C3158 H3139 0.951 . S
C3158 C3156 1.388 . S
C3158 C3159 1.366 . S
C3159 C3158 1.366 . S
C3159 C3160 1.414 . S
C3159 C3162 1.499 . S
C3160 H3140 0.950 . S
C3160 C3159 1.414 . S
C3160 C3161 1.374 . S
C3161 H3141 0.950 . S
C3161 C3157 1.385 . S
C3161 C3160 1.374 . S
C3162 C3159 1.499 . S
C3162 C3163 1.373 . S
C3162 C3164 1.389 . S
C3163 H3142 0.950 . S
C3163 C3162 1.373 . S
C3163 C3179 1.377 1_554 S
C3164 C3162 1.389 . S
C3164 C3165 1.524 . S
C3164 C3178 1.377 . S
C3165 C3164 1.524 . S
C3165 C3166 1.397 . S
C3165 C3170 1.363 . S
C3166 H3143 0.950 . S
C3166 C3165 1.397 . S
C3166 C3167 1.334 . S
C3167 H3144 0.950 . S
C3167 C3166 1.334 . S
C3167 C3168 1.287 . S
C3168 C3167 1.287 . S
C3168 C3169 1.524 . S
C3168 H3187 0.913 . S
C3169 H3145 0.950 . S
C3169 C3168 1.524 . S
C3169 C3170 1.415 . S
C3170 H3146 0.950 . S
C3170 C3165 1.363 . S
C3170 C3169 1.415 . S
C3171 H3147 0.951 . S
C3171 C3172 1.366 . S
C3171 C3173 1.388 . S
C3172 C3171 1.366 . S
C3172 C3176 1.385 . S
C3173 H3148 0.951 . S
C3173 C3171 1.388 . S
C3173 C3174 1.366 . S
C3174 C3173 1.366 . S
C3174 C3175 1.414 . S
C3174 C3177 1.499 . S
C3175 H3149 0.950 . S
C3175 C3174 1.414 . S
C3175 C3176 1.374 . S
C3176 H3150 0.950 . S
C3176 C3172 1.385 . S
C3176 C3175 1.374 . S
C3177 C3174 1.499 . S
C3177 C3178 1.373 1_556 S
C3177 C3179 1.389 . S
C3178 H3151 0.950 . S
C3178 C3164 1.377 . S
C3178 C3177 1.373 1_554 S
C3179 C3163 1.377 1_556 S
C3179 C3177 1.389 . S
C3179 C3180 1.524 . S
C3180 C3179 1.524 . S
C3180 C3181 1.397 . S
C3180 C3185 1.363 . S
C3181 H3152 0.950 . S
C3181 C3180 1.397 . S
C3181 C3182 1.334 . S
C3182 H3153 0.950 . S
C3182 C3181 1.334 . S
C3182 C3183 1.287 . S
C3183 C3182 1.287 . S
C3183 C3184 1.524 . S
C3183 H3186 0.999 . S
C3184 H3154 0.950 . S
C3184 C3183 1.524 . S
C3184 C3185 1.415 . S
C3185 H3155 0.950 . S
C3185 C3180 1.363 . S
C3185 C3184 1.415 . S
H3186 C3183 0.999 . S
H3187 C3168 0.913 . S
H3188 C3206 0.951 . S
H3189 C3208 0.951 . S
H3190 C3210 0.950 . S
H3191 C3211 0.950 . S
H3192 C3213 0.950 . S
H3193 C3216 0.950 . S
H3194 C3217 0.950 . S
H3195 C3219 0.950 . S
H3196 C3220 0.950 . S
H3197 C3221 0.951 . S
H3198 C3223 0.951 . S
H3199 C3225 0.950 . S
H3200 C3226 0.950 . S
H3201 C3228 0.950 . S
H3202 C3231 0.950 . S
H3203 C3232 0.950 . S
H3204 C3234 0.950 . S
H3205 C3235 0.950 . S
C3206 H3188 0.951 . S
C3206 C3207 1.366 . S
C3206 C3208 1.388 . S
C3207 C3206 1.366 . S
C3207 C3211 1.385 . S
C3208 H3189 0.951 . S
C3208 C3206 1.388 . S
C3208 C3209 1.366 . S
C3209 C3208 1.366 . S
C3209 C3210 1.414 . S
C3209 C3212 1.499 . S
C3210 H3190 0.950 . S
C3210 C3209 1.414 . S
C3210 C3211 1.374 . S
C3211 H3191 0.950 . S
C3211 C3207 1.385 . S
C3211 C3210 1.374 . S
C3212 C3209 1.499 . S
C3212 C3213 1.373 . S
C3212 C3214 1.389 . S
C3213 H3192 0.950 . S
C3213 C3212 1.373 . S
C3213 C3229 1.377 . S
C3214 C3212 1.389 . S
C3214 C3215 1.524 . S
C3214 C3228 1.377 . S
C3215 C3214 1.524 . S
C3215 C3216 1.397 . S
C3215 C3220 1.363 . S
C3216 H3193 0.950 . S
C3216 C3215 1.397 . S
C3216 C3217 1.334 . S
C3217 H3194 0.950 . S
C3217 C3216 1.334 . S
C3217 C3218 1.287 . S
C3218 C3217 1.287 . S
C3218 C3219 1.524 . S
C3218 H3237 0.913 . S
C3219 H3195 0.950 . S
C3219 C3218 1.524 . S
C3219 C3220 1.415 . S
C3220 H3196 0.950 . S
C3220 C3215 1.363 . S
C3220 C3219 1.415 . S
C3221 H3197 0.951 . S
C3221 C3222 1.366 . S
C3221 C3223 1.388 . S
C3222 C3221 1.366 . S
C3222 C3226 1.385 . S
C3223 H3198 0.951 . S
C3223 C3221 1.388 . S
C3223 C3224 1.366 . S
C3224 C3223 1.366 . S
C3224 C3225 1.414 . S
C3224 C3227 1.499 . S
C3225 H3199 0.950 . S
C3225 C3224 1.414 . S
C3225 C3226 1.374 . S
C3226 H3200 0.950 . S
C3226 C3222 1.385 . S
C3226 C3225 1.374 . S
C3227 C3224 1.499 . S
C3227 C3228 1.373 . S
C3227 C3229 1.389 . S
C3228 H3201 0.950 . S
C3228 C3214 1.377 . S
C3228 C3227 1.373 . S
C3229 C3213 1.377 . S
C3229 C3227 1.389 . S
C3229 C3230 1.524 . S
C3230 C3229 1.524 . S
C3230 C3231 1.397 . S
C3230 C3235 1.363 . S
C3231 H3202 0.950 . S
C3231 C3230 1.397 . S
C3231 C3232 1.334 . S
C3232 H3203 0.950 . S
C3232 C3231 1.334 . S
C3232 C3233 1.287 . S
C3233 C3232 1.287 . S
C3233 C3234 1.524 . S
C3233 H3236 0.999 . S
C3234 H3204 0.950 . S
C3234 C3233 1.524 . S
C3234 C3235 1.415 . S
C3235 H3205 0.950 . S
C3235 C3230 1.363 . S
C3235 C3234 1.415 . S
H3236 C3233 0.999 . S
H3237 C3218 0.913 . S
H3238 C3256 0.951 . S
H3239 C3258 0.951 . S
H3240 C3260 0.950 . S
H3241 C3261 0.950 . S
H3242 C3263 0.950 . S
H3243 C3266 0.950 . S
H3244 C3267 0.950 . S
H3245 C3269 0.950 . S
H3246 C3270 0.950 . S
H3247 C3271 0.951 . S
H3248 C3273 0.951 . S
H3249 C3275 0.950 . S
H3250 C3276 0.950 . S
H3251 C3278 0.950 . S
H3252 C3281 0.950 . S
H3253 C3282 0.950 . S
H3254 C3284 0.950 . S
H3255 C3285 0.950 . S
C3256 H3238 0.951 . S
C3256 C3257 1.366 . S
C3256 C3258 1.388 . S
C3257 C3256 1.366 . S
C3257 C3261 1.385 . S
C3258 H3239 0.951 . S
C3258 C3256 1.388 . S
C3258 C3259 1.366 . S
C3259 C3258 1.366 . S
C3259 C3260 1.414 . S
C3259 C3262 1.499 . S
C3260 H3240 0.950 . S
C3260 C3259 1.414 . S
C3260 C3261 1.374 . S
C3261 H3241 0.950 . S
C3261 C3257 1.385 . S
C3261 C3260 1.374 . S
C3262 C3259 1.499 . S
C3262 C3263 1.373 . S
C3262 C3264 1.389 . S
C3263 H3242 0.950 . S
C3263 C3262 1.373 . S
C3263 C3279 1.377 . S
C3264 C3262 1.389 . S
C3264 C3265 1.524 . S
C3264 C3278 1.377 . S
C3265 C3264 1.524 . S
C3265 C3266 1.397 . S
C3265 C3270 1.363 . S
C3266 H3243 0.950 . S
C3266 C3265 1.397 . S
C3266 C3267 1.334 . S
C3267 H3244 0.950 . S
C3267 C3266 1.334 . S
C3267 C3268 1.287 . S
C3268 C3267 1.287 . S
C3268 C3269 1.524 . S
C3268 H3287 0.913 . S
C3269 H3245 0.950 . S
C3269 C3268 1.524 . S
C3269 C3270 1.415 . S
C3270 H3246 0.950 . S
C3270 C3265 1.363 . S
C3270 C3269 1.415 . S
C3271 H3247 0.951 . S
C3271 C3272 1.366 . S
C3271 C3273 1.388 . S
C3272 C3271 1.366 . S
C3272 C3276 1.385 . S
C3273 H3248 0.951 . S
C3273 C3271 1.388 . S
C3273 C3274 1.366 . S
C3274 C3273 1.366 . S
C3274 C3275 1.414 . S
C3274 C3277 1.499 . S
C3275 H3249 0.950 . S
C3275 C3274 1.414 . S
C3275 C3276 1.374 . S
C3276 H3250 0.950 . S
C3276 C3272 1.385 . S
C3276 C3275 1.374 . S
C3277 C3274 1.499 . S
C3277 C3278 1.373 . S
C3277 C3279 1.389 . S
C3278 H3251 0.950 . S
C3278 C3264 1.377 . S
C3278 C3277 1.373 . S
C3279 C3263 1.377 . S
C3279 C3277 1.389 . S
C3279 C3280 1.524 . S
C3280 C3279 1.524 . S
C3280 C3281 1.397 . S
C3280 C3285 1.363 . S
C3281 H3252 0.950 . S
C3281 C3280 1.397 . S
C3281 C3282 1.334 . S
C3282 H3253 0.950 . S
C3282 C3281 1.334 . S
C3282 C3283 1.287 . S
C3283 C3282 1.287 . S
C3283 C3284 1.524 . S
C3283 H3286 0.999 1_655 S
C3284 H3254 0.950 . S
C3284 C3283 1.524 . S
C3284 C3285 1.415 . S
C3285 H3255 0.950 . S
C3285 C3280 1.363 . S
C3285 C3284 1.415 . S
H3286 C3283 0.999 1_455 S
H3287 C3268 0.913 . S
H3288 C3306 0.951 . S
H3289 C3308 0.951 . S
H3290 C3310 0.950 . S
H3291 C3311 0.950 . S
H3292 C3313 0.950 . S
H3293 C3316 0.950 . S
H3294 C3317 0.950 . S
H3295 C3319 0.950 . S
H3296 C3320 0.950 . S
H3297 C3321 0.951 . S
H3298 C3323 0.951 . S
H3299 C3325 0.950 . S
H3300 C3326 0.950 . S
H3301 C3328 0.950 . S
H3302 C3331 0.950 . S
H3303 C3332 0.950 . S
H3304 C3334 0.950 . S
H3305 C3335 0.950 . S
C3306 H3288 0.951 . S
C3306 C3307 1.366 . S
C3306 C3308 1.388 . S
C3307 C3306 1.366 . S
C3307 C3311 1.385 . S
C3308 H3289 0.951 . S
C3308 C3306 1.388 . S
C3308 C3309 1.366 . S
C3309 C3308 1.366 . S
C3309 C3310 1.414 . S
C3309 C3312 1.499 . S
C3310 H3290 0.950 . S
C3310 C3309 1.414 . S
C3310 C3311 1.374 . S
C3311 H3291 0.950 . S
C3311 C3307 1.385 . S
C3311 C3310 1.374 . S
C3312 C3309 1.499 . S
C3312 C3313 1.373 . S
C3312 C3314 1.389 . S
C3313 H3292 0.950 . S
C3313 C3312 1.373 . S
C3313 C3329 1.377 . S
C3314 C3312 1.389 . S
C3314 C3315 1.524 . S
C3314 C3328 1.377 . S
C3315 C3314 1.524 . S
C3315 C3316 1.397 . S
C3315 C3320 1.363 . S
C3316 H3293 0.950 . S
C3316 C3315 1.397 . S
C3316 C3317 1.334 . S
C3317 H3294 0.950 . S
C3317 C3316 1.334 . S
C3317 C3318 1.287 . S
C3318 C3317 1.287 . S
C3318 C3319 1.524 . S
C3318 H3337 0.913 . S
C3319 H3295 0.950 . S
C3319 C3318 1.524 . S
C3319 C3320 1.415 . S
C3320 H3296 0.950 . S
C3320 C3315 1.363 . S
C3320 C3319 1.415 . S
C3321 H3297 0.951 . S
C3321 C3322 1.366 . S
C3321 C3323 1.388 . S
C3322 C3321 1.366 . S
C3322 C3326 1.385 . S
C3323 H3298 0.951 . S
C3323 C3321 1.388 . S
C3323 C3324 1.366 . S
C3324 C3323 1.366 . S
C3324 C3325 1.414 . S
C3324 C3327 1.499 . S
C3325 H3299 0.950 . S
C3325 C3324 1.414 . S
C3325 C3326 1.374 . S
C3326 H3300 0.950 . S
C3326 C3322 1.385 . S
C3326 C3325 1.374 . S
C3327 C3324 1.499 . S
C3327 C3328 1.373 . S
C3327 C3329 1.389 . S
C3328 H3301 0.950 . S
C3328 C3314 1.377 . S
C3328 C3327 1.373 . S
C3329 C3313 1.377 . S
C3329 C3327 1.389 . S
C3329 C3330 1.524 . S
C3330 C3329 1.524 . S
C3330 C3331 1.397 . S
C3330 C3335 1.363 . S
C3331 H3302 0.950 . S
C3331 C3330 1.397 . S
C3331 C3332 1.334 . S
C3332 H3303 0.950 . S
C3332 C3331 1.334 . S
C3332 C3333 1.287 . S
C3333 C3332 1.287 . S
C3333 C3334 1.524 . S
C3333 H3336 0.999 . S
C3334 H3304 0.950 . S
C3334 C3333 1.524 . S
C3334 C3335 1.415 . S
C3335 H3305 0.950 . S
C3335 C3330 1.363 . S
C3335 C3334 1.415 . S
H3336 C3333 0.999 . S
H3337 C3318 0.913 . S
H3338 C3356 0.951 . S
H3339 C3358 0.951 . S
H3340 C3360 0.950 . S
H3341 C3361 0.950 . S
H3342 C3363 0.950 . S
H3343 C3366 0.950 . S
H3344 C3367 0.950 . S
H3345 C3369 0.950 . S
H3346 C3370 0.950 . S
H3347 C3371 0.951 . S
H3348 C3373 0.951 . S
H3349 C3375 0.950 . S
H3350 C3376 0.950 . S
H3351 C3378 0.950 . S
H3352 C3381 0.950 . S
H3353 C3382 0.950 . S
H3354 C3384 0.950 . S
H3355 C3385 0.950 . S
C3356 H3338 0.951 . S
C3356 C3357 1.366 . S
C3356 C3358 1.388 . S
C3357 C3356 1.366 . S
C3357 C3361 1.385 . S
C3358 H3339 0.951 . S
C3358 C3356 1.388 . S
C3358 C3359 1.366 . S
C3359 C3358 1.366 . S
C3359 C3360 1.414 . S
C3359 C3362 1.499 . S
C3360 H3340 0.950 . S
C3360 C3359 1.414 . S
C3360 C3361 1.374 . S
C3361 H3341 0.950 . S
C3361 C3357 1.385 . S
C3361 C3360 1.374 . S
C3362 C3359 1.499 . S
C3362 C3363 1.373 . S
C3362 C3364 1.389 . S
C3363 H3342 0.950 . S
C3363 C3362 1.373 . S
C3363 C3379 1.377 1_556 S
C3364 C3362 1.389 . S
C3364 C3365 1.524 . S
C3364 C3378 1.377 . S
C3365 C3364 1.524 . S
C3365 C3366 1.397 . S
C3365 C3370 1.363 . S
C3366 H3343 0.950 . S
C3366 C3365 1.397 . S
C3366 C3367 1.334 . S
C3367 H3344 0.950 . S
C3367 C3366 1.334 . S
C3367 C3368 1.287 . S
C3368 C3367 1.287 . S
C3368 C3369 1.524 . S
C3368 H3387 0.913 . S
C3369 H3345 0.950 . S
C3369 C3368 1.524 . S
C3369 C3370 1.415 . S
C3370 H3346 0.950 . S
C3370 C3365 1.363 . S
C3370 C3369 1.415 . S
C3371 H3347 0.951 . S
C3371 C3372 1.366 . S
C3371 C3373 1.388 . S
C3372 C3371 1.366 . S
C3372 C3376 1.385 . S
C3373 H3348 0.951 . S
C3373 C3371 1.388 . S
C3373 C3374 1.366 . S
C3374 C3373 1.366 . S
C3374 C3375 1.414 . S
C3374 C3377 1.499 . S
C3375 H3349 0.950 . S
C3375 C3374 1.414 . S
C3375 C3376 1.374 . S
C3376 H3350 0.950 . S
C3376 C3372 1.385 . S
C3376 C3375 1.374 . S
C3377 C3374 1.499 . S
C3377 C3378 1.373 1_554 S
C3377 C3379 1.389 . S
C3378 H3351 0.950 . S
C3378 C3364 1.377 . S
C3378 C3377 1.373 1_556 S
C3379 C3363 1.377 1_554 S
C3379 C3377 1.389 . S
C3379 C3380 1.524 . S
C3380 C3379 1.524 . S
C3380 C3381 1.397 . S
C3380 C3385 1.363 . S
C3381 H3352 0.950 . S
C3381 C3380 1.397 . S
C3381 C3382 1.334 . S
C3382 H3353 0.950 . S
C3382 C3381 1.334 . S
C3382 C3383 1.287 . S
C3383 C3382 1.287 . S
C3383 C3384 1.524 1_655 S
C3383 H3386 0.999 1_655 S
C3384 H3354 0.950 . S
C3384 C3383 1.524 1_455 S
C3384 C3385 1.415 1_455 S
C3385 H3355 0.950 . S
C3385 C3380 1.363 . S
C3385 C3384 1.415 1_655 S
H3386 C3383 0.999 1_455 S
H3387 C3368 0.913 . S
H3388 C3406 0.951 . S
H3389 C3408 0.951 . S
H3390 C3410 0.950 . S
H3391 C3411 0.950 . S
H3392 C3413 0.950 . S
H3393 C3416 0.950 . S
H3394 C3417 0.950 . S
H3395 C3419 0.950 . S
H3396 C3420 0.950 . S
H3397 C3421 0.951 . S
H3398 C3423 0.951 . S
H3399 C3425 0.950 . S
H3400 C3426 0.950 . S
H3401 C3428 0.950 . S
H3402 C3431 0.950 . S
H3403 C3432 0.950 . S
H3404 C3434 0.950 . S
H3405 C3435 0.950 . S
C3406 H3388 0.951 . S
C3406 C3407 1.366 . S
C3406 C3408 1.388 . S
C3407 C3406 1.366 . S
C3407 C3411 1.385 . S
C3408 H3389 0.951 . S
C3408 C3406 1.388 . S
C3408 C3409 1.366 . S
C3409 C3408 1.366 . S
C3409 C3410 1.414 . S
C3409 C3412 1.499 . S
C3410 H3390 0.950 . S
C3410 C3409 1.414 . S
C3410 C3411 1.374 . S
C3411 H3391 0.950 . S
C3411 C3407 1.385 . S
C3411 C3410 1.374 . S
C3412 C3409 1.499 . S
C3412 C3413 1.373 . S
C3412 C3414 1.389 . S
C3413 H3392 0.950 . S
C3413 C3412 1.373 . S
C3413 C3429 1.377 . S
C3414 C3412 1.389 . S
C3414 C3415 1.524 . S
C3414 C3428 1.377 . S
C3415 C3414 1.524 . S
C3415 C3416 1.397 . S
C3415 C3420 1.363 . S
C3416 H3393 0.950 . S
C3416 C3415 1.397 . S
C3416 C3417 1.334 . S
C3417 H3394 0.950 . S
C3417 C3416 1.334 . S
C3417 C3418 1.287 . S
C3418 C3417 1.287 . S
C3418 C3419 1.524 . S
C3418 H3437 0.913 . S
C3419 H3395 0.950 . S
C3419 C3418 1.524 . S
C3419 C3420 1.415 . S
C3420 H3396 0.950 . S
C3420 C3415 1.363 . S
C3420 C3419 1.415 . S
C3421 H3397 0.951 . S
C3421 C3422 1.366 . S
C3421 C3423 1.388 . S
C3422 C3421 1.366 . S
C3422 C3426 1.385 . S
C3423 H3398 0.951 . S
C3423 C3421 1.388 . S
C3423 C3424 1.366 . S
C3424 C3423 1.366 . S
C3424 C3425 1.414 . S
C3424 C3427 1.499 . S
C3425 H3399 0.950 . S
C3425 C3424 1.414 . S
C3425 C3426 1.374 . S
C3426 H3400 0.950 . S
C3426 C3422 1.385 . S
C3426 C3425 1.374 . S
C3427 C3424 1.499 . S
C3427 C3428 1.373 . S
C3427 C3429 1.389 . S
C3428 H3401 0.950 . S
C3428 C3414 1.377 . S
C3428 C3427 1.373 . S
C3429 C3413 1.377 . S
C3429 C3427 1.389 . S
C3429 C3430 1.524 . S
C3430 C3429 1.524 . S
C3430 C3431 1.397 . S
C3430 C3435 1.363 . S
C3431 H3402 0.950 . S
C3431 C3430 1.397 . S
C3431 C3432 1.334 . S
C3432 H3403 0.950 . S
C3432 C3431 1.334 . S
C3432 C3433 1.287 . S
C3433 C3432 1.287 . S
C3433 C3434 1.524 . S
C3433 H3436 0.999 . S
C3434 H3404 0.950 . S
C3434 C3433 1.524 . S
C3434 C3435 1.415 . S
C3435 H3405 0.950 . S
C3435 C3430 1.363 . S
C3435 C3434 1.415 . S
H3436 C3433 0.999 . S
H3437 C3418 0.913 . S
H3438 C3456 0.951 . S
H3439 C3458 0.951 . S
H3440 C3460 0.950 . S
H3441 C3461 0.950 . S
H3442 C3463 0.950 . S
H3443 C3466 0.950 . S
H3444 C3467 0.950 . S
H3445 C3469 0.950 . S
H3446 C3470 0.950 . S
H3447 C3471 0.951 . S
H3448 C3473 0.951 . S
H3449 C3475 0.950 . S
H3450 C3476 0.950 . S
H3451 C3478 0.950 . S
H3452 C3481 0.950 . S
H3453 C3482 0.950 . S
H3454 C3484 0.950 . S
H3455 C3485 0.950 . S
C3456 H3438 0.951 . S
C3456 C3457 1.366 . S
C3456 C3458 1.388 . S
C3457 C3456 1.366 . S
C3457 C3461 1.385 . S
C3458 H3439 0.951 . S
C3458 C3456 1.388 . S
C3458 C3459 1.366 . S
C3459 C3458 1.366 . S
C3459 C3460 1.414 . S
C3459 C3462 1.499 . S
C3460 H3440 0.950 . S
C3460 C3459 1.414 . S
C3460 C3461 1.374 . S
C3461 H3441 0.950 . S
C3461 C3457 1.385 . S
C3461 C3460 1.374 . S
C3462 C3459 1.499 . S
C3462 C3463 1.373 . S
C3462 C3464 1.389 . S
C3463 H3442 0.950 . S
C3463 C3462 1.373 . S
C3463 C3479 1.377 . S
C3464 C3462 1.389 . S
C3464 C3465 1.524 . S
C3464 C3478 1.377 . S
C3465 C3464 1.524 . S
C3465 C3466 1.397 . S
C3465 C3470 1.363 . S
C3466 H3443 0.950 . S
C3466 C3465 1.397 . S
C3466 C3467 1.334 . S
C3467 H3444 0.950 . S
C3467 C3466 1.334 . S
C3467 C3468 1.287 . S
C3468 C3467 1.287 . S
C3468 C3469 1.524 . S
C3468 H3487 0.913 . S
C3469 H3445 0.950 . S
C3469 C3468 1.524 . S
C3469 C3470 1.415 . S
C3470 H3446 0.950 . S
C3470 C3465 1.363 . S
C3470 C3469 1.415 . S
C3471 H3447 0.951 . S
C3471 C3472 1.366 . S
C3471 C3473 1.388 . S
C3472 C3471 1.366 . S
C3472 C3476 1.385 . S
C3473 H3448 0.951 . S
C3473 C3471 1.388 . S
C3473 C3474 1.366 . S
C3474 C3473 1.366 . S
C3474 C3475 1.414 . S
C3474 C3477 1.499 . S
C3475 H3449 0.950 . S
C3475 C3474 1.414 . S
C3475 C3476 1.374 . S
C3476 H3450 0.950 . S
C3476 C3472 1.385 . S
C3476 C3475 1.374 . S
C3477 C3474 1.499 . S
C3477 C3478 1.373 . S
C3477 C3479 1.389 . S
C3478 H3451 0.950 . S
C3478 C3464 1.377 . S
C3478 C3477 1.373 . S
C3479 C3463 1.377 . S
C3479 C3477 1.389 . S
C3479 C3480 1.524 . S
C3480 C3479 1.524 . S
C3480 C3481 1.397 . S
C3480 C3485 1.363 . S
C3481 H3452 0.950 . S
C3481 C3480 1.397 . S
C3481 C3482 1.334 . S
C3482 H3453 0.950 . S
C3482 C3481 1.334 . S
C3482 C3483 1.287 . S
C3483 C3482 1.287 . S
C3483 C3484 1.524 . S
C3483 H3486 0.999 . S
C3484 H3454 0.950 . S
C3484 C3483 1.524 . S
C3484 C3485 1.415 . S
C3485 H3455 0.950 . S
C3485 C3480 1.363 . S
C3485 C3484 1.415 . S
H3486 C3483 0.999 . S
H3487 C3468 0.913 . S
H3488 C3506 0.951 . S
H3489 C3508 0.951 . S
H3490 C3510 0.950 . S
H3491 C3511 0.950 . S
H3492 C3513 0.950 . S
H3493 C3516 0.950 . S
H3494 C3517 0.950 . S
H3495 C3519 0.950 . S
H3496 C3520 0.950 . S
H3497 C3521 0.951 . S
H3498 C3523 0.951 . S
H3499 C3525 0.950 . S
H3500 C3526 0.950 . S
H3501 C3528 0.950 . S
H3502 C3531 0.950 . S
H3503 C3532 0.950 . S
H3504 C3534 0.950 . S
H3505 C3535 0.950 . S
C3506 H3488 0.951 . S
C3506 C3507 1.366 . S
C3506 C3508 1.388 . S
C3507 C3506 1.366 . S
C3507 C3511 1.385 . S
C3508 H3489 0.951 . S
C3508 C3506 1.388 . S
C3508 C3509 1.366 . S
C3509 C3508 1.366 . S
C3509 C3510 1.414 . S
C3509 C3512 1.499 . S
C3510 H3490 0.950 . S
C3510 C3509 1.414 . S
C3510 C3511 1.374 . S
C3511 H3491 0.950 . S
C3511 C3507 1.385 . S
C3511 C3510 1.374 . S
C3512 C3509 1.499 . S
C3512 C3513 1.373 . S
C3512 C3514 1.389 . S
C3513 H3492 0.950 . S
C3513 C3512 1.373 . S
C3513 C3529 1.377 . S
C3514 C3512 1.389 . S
C3514 C3515 1.524 . S
C3514 C3528 1.377 . S
C3515 C3514 1.524 . S
C3515 C3516 1.397 . S
C3515 C3520 1.363 . S
C3516 H3493 0.950 . S
C3516 C3515 1.397 . S
C3516 C3517 1.334 . S
C3517 H3494 0.950 . S
C3517 C3516 1.334 . S
C3517 C3518 1.287 . S
C3518 C3517 1.287 . S
C3518 C3519 1.524 . S
C3518 H3537 0.913 . S
C3519 H3495 0.950 . S
C3519 C3518 1.524 . S
C3519 C3520 1.415 . S
C3520 H3496 0.950 . S
C3520 C3515 1.363 . S
C3520 C3519 1.415 . S
C3521 H3497 0.951 . S
C3521 C3522 1.366 . S
C3521 C3523 1.388 . S
C3522 C3521 1.366 . S
C3522 C3526 1.385 . S
C3523 H3498 0.951 . S
C3523 C3521 1.388 . S
C3523 C3524 1.366 . S
C3524 C3523 1.366 . S
C3524 C3525 1.414 . S
C3524 C3527 1.499 . S
C3525 H3499 0.950 . S
C3525 C3524 1.414 . S
C3525 C3526 1.374 . S
C3526 H3500 0.950 . S
C3526 C3522 1.385 . S
C3526 C3525 1.374 . S
C3527 C3524 1.499 . S
C3527 C3528 1.373 . S
C3527 C3529 1.389 . S
C3528 H3501 0.950 . S
C3528 C3514 1.377 . S
C3528 C3527 1.373 . S
C3529 C3513 1.377 . S
C3529 C3527 1.389 . S
C3529 C3530 1.524 . S
C3530 C3529 1.524 . S
C3530 C3531 1.397 . S
C3530 C3535 1.363 . S
C3531 H3502 0.950 . S
C3531 C3530 1.397 . S
C3531 C3532 1.334 . S
C3532 H3503 0.950 . S
C3532 C3531 1.334 . S
C3532 C3533 1.287 . S
C3533 C3532 1.287 . S
C3533 C3534 1.524 . S
C3533 H3536 0.999 . S
C3534 H3504 0.950 . S
C3534 C3533 1.524 . S
C3534 C3535 1.415 . S
C3535 H3505 0.950 . S
C3535 C3530 1.363 . S
C3535 C3534 1.415 . S
H3536 C3533 0.999 . S
H3537 C3518 0.913 . S
H3538 C3556 0.951 . S
H3539 C3558 0.951 . S
H3540 C3560 0.950 . S
H3541 C3561 0.950 . S
H3542 C3563 0.950 . S
H3543 C3566 0.950 . S
H3544 C3567 0.950 . S
H3545 C3569 0.950 . S
H3546 C3570 0.950 . S
H3547 C3571 0.951 . S
H3548 C3573 0.951 . S
H3549 C3575 0.950 . S
H3550 C3576 0.950 . S
H3551 C3578 0.950 . S
H3552 C3581 0.950 . S
H3553 C3582 0.950 . S
H3554 C3584 0.950 . S
H3555 C3585 0.950 . S
C3556 H3538 0.951 . S
C3556 C3557 1.366 . S
C3556 C3558 1.388 . S
C3557 C3556 1.366 . S
C3557 C3561 1.385 . S
C3558 H3539 0.951 . S
C3558 C3556 1.388 . S
C3558 C3559 1.366 . S
C3559 C3558 1.366 . S
C3559 C3560 1.414 . S
C3559 C3562 1.499 . S
C3560 H3540 0.950 . S
C3560 C3559 1.414 . S
C3560 C3561 1.374 . S
C3561 H3541 0.950 . S
C3561 C3557 1.385 . S
C3561 C3560 1.374 . S
C3562 C3559 1.499 . S
C3562 C3563 1.373 . S
C3562 C3564 1.389 . S
C3563 H3542 0.950 . S
C3563 C3562 1.373 . S
C3563 C3579 1.377 . S
C3564 C3562 1.389 . S
C3564 C3565 1.524 . S
C3564 C3578 1.377 . S
C3565 C3564 1.524 . S
C3565 C3566 1.397 . S
C3565 C3570 1.363 . S
C3566 H3543 0.950 . S
C3566 C3565 1.397 . S
C3566 C3567 1.334 . S
C3567 H3544 0.950 . S
C3567 C3566 1.334 . S
C3567 C3568 1.287 . S
C3568 C3567 1.287 . S
C3568 C3569 1.524 . S
C3568 H3587 0.913 . S
C3569 H3545 0.950 . S
C3569 C3568 1.524 . S
C3569 C3570 1.415 . S
C3570 H3546 0.950 . S
C3570 C3565 1.363 . S
C3570 C3569 1.415 . S
C3571 H3547 0.951 . S
C3571 C3572 1.366 . S
C3571 C3573 1.388 . S
C3572 C3571 1.366 . S
C3572 C3576 1.385 . S
C3573 H3548 0.951 . S
C3573 C3571 1.388 . S
C3573 C3574 1.366 . S
C3574 C3573 1.366 . S
C3574 C3575 1.414 . S
C3574 C3577 1.499 . S
C3575 H3549 0.950 . S
C3575 C3574 1.414 . S
C3575 C3576 1.374 . S
C3576 H3550 0.950 . S
C3576 C3572 1.385 . S
C3576 C3575 1.374 . S
C3577 C3574 1.499 . S
C3577 C3578 1.373 . S
C3577 C3579 1.389 . S
C3578 H3551 0.950 . S
C3578 C3564 1.377 . S
C3578 C3577 1.373 . S
C3579 C3563 1.377 . S
C3579 C3577 1.389 . S
C3579 C3580 1.524 . S
C3580 C3579 1.524 . S
C3580 C3581 1.397 . S
C3580 C3585 1.363 . S
C3581 H3552 0.950 . S
C3581 C3580 1.397 . S
C3581 C3582 1.334 . S
C3582 H3553 0.950 . S
C3582 C3581 1.334 . S
C3582 C3583 1.287 . S
C3583 C3582 1.287 . S
C3583 C3584 1.524 . S
C3583 H3586 0.999 . S
C3584 H3554 0.950 . S
C3584 C3583 1.524 . S
C3584 C3585 1.415 . S
C3585 H3555 0.950 . S
C3585 C3580 1.363 . S
C3585 C3584 1.415 . S
H3586 C3583 0.999 . S
H3587 C3568 0.913 . S
H3588 C3606 0.951 . S
H3589 C3608 0.951 . S
H3590 C3610 0.950 . S
H3591 C3611 0.950 . S
H3592 C3613 0.950 . S
H3593 C3616 0.950 . S
H3594 C3617 0.950 . S
H3595 C3619 0.950 . S
H3596 C3620 0.950 . S
H3597 C3621 0.951 . S
H3598 C3623 0.951 . S
H3599 C3625 0.950 . S
H3600 C3626 0.950 . S
H3601 C3628 0.950 . S
H3602 C3631 0.950 . S
H3603 C3632 0.950 . S
H3604 C3634 0.950 . S
H3605 C3635 0.950 . S
C3606 H3588 0.951 . S
C3606 C3607 1.366 . S
C3606 C3608 1.388 . S
C3607 C3606 1.366 . S
C3607 C3611 1.385 . S
C3608 H3589 0.951 . S
C3608 C3606 1.388 . S
C3608 C3609 1.366 . S
C3609 C3608 1.366 . S
C3609 C3610 1.414 . S
C3609 C3612 1.499 . S
C3610 H3590 0.950 . S
C3610 C3609 1.414 . S
C3610 C3611 1.374 . S
C3611 H3591 0.950 . S
C3611 C3607 1.385 . S
C3611 C3610 1.374 . S
C3612 C3609 1.499 . S
C3612 C3613 1.373 . S
C3612 C3614 1.389 . S
C3613 H3592 0.950 . S
C3613 C3612 1.373 . S
C3613 C3629 1.377 . S
C3614 C3612 1.389 . S
C3614 C3615 1.524 . S
C3614 C3628 1.377 . S
C3615 C3614 1.524 . S
C3615 C3616 1.397 . S
C3615 C3620 1.363 . S
C3616 H3593 0.950 . S
C3616 C3615 1.397 . S
C3616 C3617 1.334 . S
C3617 H3594 0.950 . S
C3617 C3616 1.334 . S
C3617 C3618 1.287 . S
C3618 C3617 1.287 . S
C3618 C3619 1.524 . S
C3618 H3637 0.913 . S
C3619 H3595 0.950 . S
C3619 C3618 1.524 . S
C3619 C3620 1.415 . S
C3620 H3596 0.950 . S
C3620 C3615 1.363 . S
C3620 C3619 1.415 . S
C3621 H3597 0.951 . S
C3621 C3622 1.366 . S
C3621 C3623 1.388 . S
C3622 C3621 1.366 . S
C3622 C3626 1.385 . S
C3623 H3598 0.951 . S
C3623 C3621 1.388 . S
C3623 C3624 1.366 . S
C3624 C3623 1.366 . S
C3624 C3625 1.414 . S
C3624 C3627 1.499 . S
C3625 H3599 0.950 . S
C3625 C3624 1.414 . S
C3625 C3626 1.374 . S
C3626 H3600 0.950 . S
C3626 C3622 1.385 . S
C3626 C3625 1.374 . S
C3627 C3624 1.499 . S
C3627 C3628 1.373 . S
C3627 C3629 1.389 . S
C3628 H3601 0.950 . S
C3628 C3614 1.377 . S
C3628 C3627 1.373 . S
C3629 C3613 1.377 . S
C3629 C3627 1.389 . S
C3629 C3630 1.524 . S
C3630 C3629 1.524 . S
C3630 C3631 1.397 . S
C3630 C3635 1.363 . S
C3631 H3602 0.950 . S
C3631 C3630 1.397 . S
C3631 C3632 1.334 . S
C3632 H3603 0.950 . S
C3632 C3631 1.334 . S
C3632 C3633 1.287 . S
C3633 C3632 1.287 . S
C3633 C3634 1.524 . S
C3633 H3636 0.999 . S
C3634 H3604 0.950 . S
C3634 C3633 1.524 . S
C3634 C3635 1.415 . S
C3635 H3605 0.950 . S
C3635 C3630 1.363 . S
C3635 C3634 1.415 . S
H3636 C3633 0.999 . S
H3637 C3618 0.913 . S
H3638 C3656 0.951 . S
H3639 C3658 0.951 . S
H3640 C3660 0.950 . S
H3641 C3661 0.950 . S
H3642 C3663 0.950 . S
H3643 C3666 0.950 . S
H3644 C3667 0.950 . S
H3645 C3669 0.950 . S
H3646 C3670 0.950 . S
H3647 C3671 0.951 . S
H3648 C3673 0.951 . S
H3649 C3675 0.950 . S
H3650 C3676 0.950 . S
H3651 C3678 0.950 . S
H3652 C3681 0.950 . S
H3653 C3682 0.950 . S
H3654 C3684 0.950 . S
H3655 C3685 0.950 . S
C3656 H3638 0.951 . S
C3656 C3657 1.366 . S
C3656 C3658 1.388 . S
C3657 C3656 1.366 . S
C3657 C3661 1.385 . S
C3658 H3639 0.951 . S
C3658 C3656 1.388 . S
C3658 C3659 1.366 . S
C3659 C3658 1.366 . S
C3659 C3660 1.414 . S
C3659 C3662 1.499 . S
C3660 H3640 0.950 . S
C3660 C3659 1.414 . S
C3660 C3661 1.374 . S
C3661 H3641 0.950 . S
C3661 C3657 1.385 . S
C3661 C3660 1.374 . S
C3662 C3659 1.499 . S
C3662 C3663 1.373 . S
C3662 C3664 1.389 . S
C3663 H3642 0.950 . S
C3663 C3662 1.373 . S
C3663 C3679 1.377 . S
C3664 C3662 1.389 . S
C3664 C3665 1.524 . S
C3664 C3678 1.377 . S
C3665 C3664 1.524 . S
C3665 C3666 1.397 . S
C3665 C3670 1.363 . S
C3666 H3643 0.950 . S
C3666 C3665 1.397 . S
C3666 C3667 1.334 . S
C3667 H3644 0.950 . S
C3667 C3666 1.334 . S
C3667 C3668 1.287 . S
C3668 C3667 1.287 . S
C3668 C3669 1.524 . S
C3668 H3687 0.913 . S
C3669 H3645 0.950 . S
C3669 C3668 1.524 . S
C3669 C3670 1.415 . S
C3670 H3646 0.950 . S
C3670 C3665 1.363 . S
C3670 C3669 1.415 . S
C3671 H3647 0.951 . S
C3671 C3672 1.366 . S
C3671 C3673 1.388 . S
C3672 C3671 1.366 . S
C3672 C3676 1.385 . S
C3673 H3648 0.951 . S
C3673 C3671 1.388 . S
C3673 C3674 1.366 . S
C3674 C3673 1.366 . S
C3674 C3675 1.414 . S
C3674 C3677 1.499 . S
C3675 H3649 0.950 . S
C3675 C3674 1.414 . S
C3675 C3676 1.374 . S
C3676 H3650 0.950 . S
C3676 C3672 1.385 . S
C3676 C3675 1.374 . S
C3677 C3674 1.499 . S
C3677 C3678 1.373 . S
C3677 C3679 1.389 . S
C3678 H3651 0.950 . S
C3678 C3664 1.377 . S
C3678 C3677 1.373 . S
C3679 C3663 1.377 . S
C3679 C3677 1.389 . S
C3679 C3680 1.524 . S
C3680 C3679 1.524 . S
C3680 C3681 1.397 . S
C3680 C3685 1.363 . S
C3681 H3652 0.950 . S
C3681 C3680 1.397 . S
C3681 C3682 1.334 . S
C3682 H3653 0.950 . S
C3682 C3681 1.334 . S
C3682 C3683 1.287 . S
C3683 C3682 1.287 . S
C3683 C3684 1.524 . S
C3683 H3686 0.999 . S
C3684 H3654 0.950 . S
C3684 C3683 1.524 . S
C3684 C3685 1.415 . S
C3685 H3655 0.950 . S
C3685 C3680 1.363 . S
C3685 C3684 1.415 . S
H3686 C3683 0.999 . S
H3687 C3668 0.913 . S
H3688 C3706 0.951 . S
H3689 C3708 0.951 . S
H3690 C3710 0.950 . S
H3691 C3711 0.950 . S
H3692 C3713 0.950 . S
H3693 C3716 0.950 . S
H3694 C3717 0.950 . S
H3695 C3719 0.950 . S
H3696 C3720 0.950 . S
H3697 C3721 0.951 . S
H3698 C3723 0.951 . S
H3699 C3725 0.950 . S
H3700 C3726 0.950 . S
H3701 C3728 0.950 . S
H3702 C3731 0.950 . S
H3703 C3732 0.950 . S
H3704 C3734 0.950 . S
H3705 C3735 0.950 . S
C3706 H3688 0.951 . S
C3706 C3707 1.366 . S
C3706 C3708 1.388 . S
C3707 C3706 1.366 . S
C3707 C3711 1.385 . S
C3708 H3689 0.951 . S
C3708 C3706 1.388 . S
C3708 C3709 1.366 . S
C3709 C3708 1.366 . S
C3709 C3710 1.414 . S
C3709 C3712 1.499 . S
C3710 H3690 0.950 . S
C3710 C3709 1.414 . S
C3710 C3711 1.374 . S
C3711 H3691 0.950 . S
C3711 C3707 1.385 . S
C3711 C3710 1.374 . S
C3712 C3709 1.499 . S
C3712 C3713 1.373 . S
C3712 C3714 1.389 . S
C3713 H3692 0.950 . S
C3713 C3712 1.373 . S
C3713 C3729 1.377 . S
C3714 C3712 1.389 . S
C3714 C3715 1.524 . S
C3714 C3728 1.377 . S
C3715 C3714 1.524 . S
C3715 C3716 1.397 . S
C3715 C3720 1.363 . S
C3716 H3693 0.950 . S
C3716 C3715 1.397 . S
C3716 C3717 1.334 . S
C3717 H3694 0.950 . S
C3717 C3716 1.334 . S
C3717 C3718 1.287 . S
C3718 C3717 1.287 . S
C3718 C3719 1.524 . S
C3718 H3737 0.913 . S
C3719 H3695 0.950 . S
C3719 C3718 1.524 . S
C3719 C3720 1.415 . S
C3720 H3696 0.950 . S
C3720 C3715 1.363 . S
C3720 C3719 1.415 . S
C3721 H3697 0.951 . S
C3721 C3722 1.366 . S
C3721 C3723 1.388 . S
C3722 C3721 1.366 . S
C3722 C3726 1.385 . S
C3723 H3698 0.951 . S
C3723 C3721 1.388 . S
C3723 C3724 1.366 . S
C3724 C3723 1.366 . S
C3724 C3725 1.414 . S
C3724 C3727 1.499 . S
C3725 H3699 0.950 . S
C3725 C3724 1.414 . S
C3725 C3726 1.374 . S
C3726 H3700 0.950 . S
C3726 C3722 1.385 . S
C3726 C3725 1.374 . S
C3727 C3724 1.499 . S
C3727 C3728 1.373 . S
C3727 C3729 1.389 . S
C3728 H3701 0.950 . S
C3728 C3714 1.377 . S
C3728 C3727 1.373 . S
C3729 C3713 1.377 . S
C3729 C3727 1.389 . S
C3729 C3730 1.524 . S
C3730 C3729 1.524 . S
C3730 C3731 1.397 . S
C3730 C3735 1.363 . S
C3731 H3702 0.950 . S
C3731 C3730 1.397 . S
C3731 C3732 1.334 . S
C3732 H3703 0.950 . S
C3732 C3731 1.334 . S
C3732 C3733 1.287 . S
C3733 C3732 1.287 . S
C3733 C3734 1.524 . S
C3733 H3736 0.999 . S
C3734 H3704 0.950 . S
C3734 C3733 1.524 . S
C3734 C3735 1.415 . S
C3735 H3705 0.950 . S
C3735 C3730 1.363 . S
C3735 C3734 1.415 . S
H3736 C3733 0.999 . S
H3737 C3718 0.913 . S
H3738 C3756 0.951 . S
H3739 C3758 0.951 . S
H3740 C3760 0.950 . S
H3741 C3761 0.950 . S
H3742 C3763 0.950 . S
H3743 C3766 0.950 . S
H3744 C3767 0.950 . S
H3745 C3769 0.950 . S
H3746 C3770 0.950 . S
H3747 C3771 0.951 . S
H3748 C3773 0.951 . S
H3749 C3775 0.950 . S
H3750 C3776 0.950 . S
H3751 C3778 0.950 . S
H3752 C3781 0.950 . S
H3753 C3782 0.950 . S
H3754 C3784 0.950 . S
H3755 C3785 0.950 . S
C3756 H3738 0.951 . S
C3756 C3757 1.366 . S
C3756 C3758 1.388 . S
C3757 C3756 1.366 . S
C3757 C3761 1.385 . S
C3758 H3739 0.951 . S
C3758 C3756 1.388 . S
C3758 C3759 1.366 . S
C3759 C3758 1.366 . S
C3759 C3760 1.414 . S
C3759 C3762 1.499 . S
C3760 H3740 0.950 . S
C3760 C3759 1.414 . S
C3760 C3761 1.374 . S
C3761 H3741 0.950 . S
C3761 C3757 1.385 . S
C3761 C3760 1.374 . S
C3762 C3759 1.499 . S
C3762 C3763 1.373 . S
C3762 C3764 1.389 . S
C3763 H3742 0.950 . S
C3763 C3762 1.373 . S
C3763 C3779 1.377 . S
C3764 C3762 1.389 . S
C3764 C3765 1.524 . S
C3764 C3778 1.377 . S
C3765 C3764 1.524 . S
C3765 C3766 1.397 . S
C3765 C3770 1.363 . S
C3766 H3743 0.950 . S
C3766 C3765 1.397 . S
C3766 C3767 1.334 . S
C3767 H3744 0.950 . S
C3767 C3766 1.334 . S
C3767 C3768 1.287 . S
C3768 C3767 1.287 . S
C3768 C3769 1.524 . S
C3768 H3787 0.913 . S
C3769 H3745 0.950 . S
C3769 C3768 1.524 . S
C3769 C3770 1.415 . S
C3770 H3746 0.950 . S
C3770 C3765 1.363 . S
C3770 C3769 1.415 . S
C3771 H3747 0.951 . S
C3771 C3772 1.366 . S
C3771 C3773 1.388 . S
C3772 C3771 1.366 . S
C3772 C3776 1.385 . S
C3773 H3748 0.951 . S
C3773 C3771 1.388 . S
C3773 C3774 1.366 . S
C3774 C3773 1.366 . S
C3774 C3775 1.414 . S
C3774 C3777 1.499 . S
C3775 H3749 0.950 . S
C3775 C3774 1.414 . S
C3775 C3776 1.374 . S
C3776 H3750 0.950 . S
C3776 C3772 1.385 . S
C3776 C3775 1.374 . S
C3777 C3774 1.499 . S
C3777 C3778 1.373 . S
C3777 C3779 1.389 . S
C3778 H3751 0.950 . S
C3778 C3764 1.377 . S
C3778 C3777 1.373 . S
C3779 C3763 1.377 . S
C3779 C3777 1.389 . S
C3779 C3780 1.524 . S
C3780 C3779 1.524 . S
C3780 C3781 1.397 . S
C3780 C3785 1.363 . S
C3781 H3752 0.950 . S
C3781 C3780 1.397 . S
C3781 C3782 1.334 . S
C3782 H3753 0.950 . S
C3782 C3781 1.334 . S
C3782 C3783 1.287 . S
C3783 C3782 1.287 . S
C3783 C3784 1.524 . S
C3783 H3786 0.999 . S
C3784 H3754 0.950 . S
C3784 C3783 1.524 . S
C3784 C3785 1.415 . S
C3785 H3755 0.950 . S
C3785 C3780 1.363 . S
C3785 C3784 1.415 . S
H3786 C3783 0.999 . S
H3787 C3768 0.913 . S
H3788 C3806 0.951 . S
H3789 C3808 0.951 . S
H3790 C3810 0.950 . S
H3791 C3811 0.950 . S
H3792 C3813 0.950 . S
H3793 C3816 0.950 . S
H3794 C3817 0.950 . S
H3795 C3819 0.950 . S
H3796 C3820 0.950 . S
H3797 C3821 0.951 . S
H3798 C3823 0.951 . S
H3799 C3825 0.950 . S
H3800 C3826 0.950 . S
H3801 C3828 0.950 . S
H3802 C3831 0.950 . S
H3803 C3832 0.950 . S
H3804 C3834 0.950 . S
H3805 C3835 0.950 . S
C3806 H3788 0.951 . S
C3806 C3807 1.366 . S
C3806 C3808 1.388 . S
C3807 C3806 1.366 . S
C3807 C3811 1.385 . S
C3808 H3789 0.951 . S
C3808 C3806 1.388 . S
C3808 C3809 1.366 . S
C3809 C3808 1.366 . S
C3809 C3810 1.414 . S
C3809 C3812 1.499 . S
C3810 H3790 0.950 . S
C3810 C3809 1.414 . S
C3810 C3811 1.374 . S
C3811 H3791 0.950 . S
C3811 C3807 1.385 . S
C3811 C3810 1.374 . S
C3812 C3809 1.499 . S
C3812 C3813 1.373 . S
C3812 C3814 1.389 . S
C3813 H3792 0.950 . S
C3813 C3812 1.373 . S
C3813 C3829 1.377 . S
C3814 C3812 1.389 . S
C3814 C3815 1.524 . S
C3814 C3828 1.377 . S
C3815 C3814 1.524 . S
C3815 C3816 1.397 . S
C3815 C3820 1.363 . S
C3816 H3793 0.950 . S
C3816 C3815 1.397 . S
C3816 C3817 1.334 . S
C3817 H3794 0.950 . S
C3817 C3816 1.334 . S
C3817 C3818 1.287 . S
C3818 C3817 1.287 . S
C3818 C3819 1.524 . S
C3818 H3837 0.913 . S
C3819 H3795 0.950 . S
C3819 C3818 1.524 . S
C3819 C3820 1.415 . S
C3820 H3796 0.950 . S
C3820 C3815 1.363 . S
C3820 C3819 1.415 . S
C3821 H3797 0.951 . S
C3821 C3822 1.366 . S
C3821 C3823 1.388 . S
C3822 C3821 1.366 . S
C3822 C3826 1.385 . S
C3823 H3798 0.951 . S
C3823 C3821 1.388 . S
C3823 C3824 1.366 . S
C3824 C3823 1.366 . S
C3824 C3825 1.414 . S
C3824 C3827 1.499 . S
C3825 H3799 0.950 . S
C3825 C3824 1.414 . S
C3825 C3826 1.374 . S
C3826 H3800 0.950 . S
C3826 C3822 1.385 . S
C3826 C3825 1.374 . S
C3827 C3824 1.499 . S
C3827 C3828 1.373 . S
C3827 C3829 1.389 . S
C3828 H3801 0.950 . S
C3828 C3814 1.377 . S
C3828 C3827 1.373 . S
C3829 C3813 1.377 . S
C3829 C3827 1.389 . S
C3829 C3830 1.524 . S
C3830 C3829 1.524 . S
C3830 C3831 1.397 . S
C3830 C3835 1.363 . S
C3831 H3802 0.950 . S
C3831 C3830 1.397 . S
C3831 C3832 1.334 . S
C3832 H3803 0.950 . S
C3832 C3831 1.334 . S
C3832 C3833 1.287 . S
C3833 C3832 1.287 . S
C3833 C3834 1.524 . S
C3833 H3836 0.999 . S
C3834 H3804 0.950 . S
C3834 C3833 1.524 . S
C3834 C3835 1.415 . S
C3835 H3805 0.950 . S
C3835 C3830 1.363 . S
C3835 C3834 1.415 . S
H3836 C3833 0.999 . S
H3837 C3818 0.913 . S
H3838 C3856 0.951 . S
H3839 C3858 0.951 . S
H3840 C3860 0.950 . S
H3841 C3861 0.950 . S
H3842 C3863 0.950 . S
H3843 C3866 0.950 . S
H3844 C3867 0.950 . S
H3845 C3869 0.950 . S
H3846 C3870 0.950 . S
H3847 C3871 0.951 . S
H3848 C3873 0.951 . S
H3849 C3875 0.950 . S
H3850 C3876 0.950 . S
H3851 C3878 0.950 . S
H3852 C3881 0.950 . S
H3853 C3882 0.950 . S
H3854 C3884 0.950 . S
H3855 C3885 0.950 . S
C3856 H3838 0.951 . S
C3856 C3857 1.366 . S
C3856 C3858 1.388 . S
C3857 C3856 1.366 . S
C3857 C3861 1.385 . S
C3858 H3839 0.951 . S
C3858 C3856 1.388 . S
C3858 C3859 1.366 . S
C3859 C3858 1.366 . S
C3859 C3860 1.414 . S
C3859 C3862 1.499 . S
C3860 H3840 0.950 . S
C3860 C3859 1.414 . S
C3860 C3861 1.374 . S
C3861 H3841 0.950 . S
C3861 C3857 1.385 . S
C3861 C3860 1.374 . S
C3862 C3859 1.499 . S
C3862 C3863 1.373 . S
C3862 C3864 1.389 . S
C3863 H3842 0.950 . S
C3863 C3862 1.373 . S
C3863 C3879 1.377 . S
C3864 C3862 1.389 . S
C3864 C3865 1.524 . S
C3864 C3878 1.377 . S
C3865 C3864 1.524 . S
C3865 C3866 1.397 . S
C3865 C3870 1.363 . S
C3866 H3843 0.950 . S
C3866 C3865 1.397 . S
C3866 C3867 1.334 . S
C3867 H3844 0.950 . S
C3867 C3866 1.334 . S
C3867 C3868 1.287 . S
C3868 C3867 1.287 . S
C3868 C3869 1.524 . S
C3868 H3887 0.913 . S
C3869 H3845 0.950 . S
C3869 C3868 1.524 . S
C3869 C3870 1.415 . S
C3870 H3846 0.950 . S
C3870 C3865 1.363 . S
C3870 C3869 1.415 . S
C3871 H3847 0.951 . S
C3871 C3872 1.366 . S
C3871 C3873 1.388 . S
C3872 C3871 1.366 . S
C3872 C3876 1.385 . S
C3873 H3848 0.951 . S
C3873 C3871 1.388 . S
C3873 C3874 1.366 . S
C3874 C3873 1.366 . S
C3874 C3875 1.414 . S
C3874 C3877 1.499 . S
C3875 H3849 0.950 . S
C3875 C3874 1.414 . S
C3875 C3876 1.374 . S
C3876 H3850 0.950 . S
C3876 C3872 1.385 . S
C3876 C3875 1.374 . S
C3877 C3874 1.499 . S
C3877 C3878 1.373 . S
C3877 C3879 1.389 . S
C3878 H3851 0.950 . S
C3878 C3864 1.377 . S
C3878 C3877 1.373 . S
C3879 C3863 1.377 . S
C3879 C3877 1.389 . S
C3879 C3880 1.524 . S
C3880 C3879 1.524 . S
C3880 C3881 1.397 . S
C3880 C3885 1.363 . S
C3881 H3852 0.950 . S
C3881 C3880 1.397 . S
C3881 C3882 1.334 . S
C3882 H3853 0.950 . S
C3882 C3881 1.334 . S
C3882 C3883 1.287 . S
C3883 C3882 1.287 . S
C3883 C3884 1.524 . S
C3883 H3886 0.999 . S
C3884 H3854 0.950 . S
C3884 C3883 1.524 . S
C3884 C3885 1.415 . S
C3885 H3855 0.950 . S
C3885 C3880 1.363 . S
C3885 C3884 1.415 . S
H3886 C3883 0.999 . S
H3887 C3868 0.913 . S
H3888 C3906 0.951 . S
H3889 C3908 0.951 . S
H3890 C3910 0.950 . S
H3891 C3911 0.950 . S
H3892 C3913 0.950 . S
H3893 C3916 0.950 . S
H3894 C3917 0.950 . S
H3895 C3919 0.950 . S
H3896 C3920 0.950 . S
H3897 C3921 0.951 . S
H3898 C3923 0.951 . S
H3899 C3925 0.950 . S
H3900 C3926 0.950 . S
H3901 C3928 0.950 . S
H3902 C3931 0.950 . S
H3903 C3932 0.950 . S
H3904 C3934 0.950 . S
H3905 C3935 0.950 . S
C3906 H3888 0.951 . S
C3906 C3907 1.366 . S
C3906 C3908 1.388 . S
C3907 C3906 1.366 . S
C3907 C3911 1.385 . S
C3908 H3889 0.951 . S
C3908 C3906 1.388 . S
C3908 C3909 1.366 . S
C3909 C3908 1.366 . S
C3909 C3910 1.414 . S
C3909 C3912 1.499 . S
C3910 H3890 0.950 . S
C3910 C3909 1.414 . S
C3910 C3911 1.374 . S
C3911 H3891 0.950 . S
C3911 C3907 1.385 . S
C3911 C3910 1.374 . S
C3912 C3909 1.499 . S
C3912 C3913 1.373 . S
C3912 C3914 1.389 . S
C3913 H3892 0.950 . S
C3913 C3912 1.373 . S
C3913 C3929 1.377 . S
C3914 C3912 1.389 . S
C3914 C3915 1.524 . S
C3914 C3928 1.377 . S
C3915 C3914 1.524 . S
C3915 C3916 1.397 . S
C3915 C3920 1.363 . S
C3916 H3893 0.950 . S
C3916 C3915 1.397 . S
C3916 C3917 1.334 . S
C3917 H3894 0.950 . S
C3917 C3916 1.334 . S
C3917 C3918 1.287 . S
C3918 C3917 1.287 . S
C3918 C3919 1.524 . S
C3918 H3937 0.913 . S
C3919 H3895 0.950 . S
C3919 C3918 1.524 . S
C3919 C3920 1.415 . S
C3920 H3896 0.950 . S
C3920 C3915 1.363 . S
C3920 C3919 1.415 . S
C3921 H3897 0.951 . S
C3921 C3922 1.366 . S
C3921 C3923 1.388 . S
C3922 C3921 1.366 . S
C3922 C3926 1.385 . S
C3923 H3898 0.951 . S
C3923 C3921 1.388 . S
C3923 C3924 1.366 . S
C3924 C3923 1.366 . S
C3924 C3925 1.414 . S
C3924 C3927 1.499 . S
C3925 H3899 0.950 . S
C3925 C3924 1.414 . S
C3925 C3926 1.374 . S
C3926 H3900 0.950 . S
C3926 C3922 1.385 . S
C3926 C3925 1.374 . S
C3927 C3924 1.499 . S
C3927 C3928 1.373 . S
C3927 C3929 1.389 . S
C3928 H3901 0.950 . S
C3928 C3914 1.377 . S
C3928 C3927 1.373 . S
C3929 C3913 1.377 . S
C3929 C3927 1.389 . S
C3929 C3930 1.524 . S
C3930 C3929 1.524 . S
C3930 C3931 1.397 . S
C3930 C3935 1.363 . S
C3931 H3902 0.950 . S
C3931 C3930 1.397 . S
C3931 C3932 1.334 . S
C3932 H3903 0.950 . S
C3932 C3931 1.334 . S
C3932 C3933 1.287 . S
C3933 C3932 1.287 . S
C3933 C3934 1.524 . S
C3933 H3936 0.999 . S
C3934 H3904 0.950 . S
C3934 C3933 1.524 . S
C3934 C3935 1.415 . S
C3935 H3905 0.950 . S
C3935 C3930 1.363 . S
C3935 C3934 1.415 . S
H3936 C3933 0.999 . S
H3937 C3918 0.913 . S
H3938 C3956 0.951 . S
H3939 C3958 0.951 . S
H3940 C3960 0.950 . S
H3941 C3961 0.950 . S
H3942 C3963 0.950 . S
H3943 C3966 0.950 . S
H3944 C3967 0.950 . S
H3945 C3969 0.950 . S
H3946 C3970 0.950 . S
H3947 C3971 0.951 . S
H3948 C3973 0.951 . S
H3949 C3975 0.950 . S
H3950 C3976 0.950 . S
H3951 C3978 0.950 . S
H3952 C3981 0.950 . S
H3953 C3982 0.950 . S
H3954 C3984 0.950 . S
H3955 C3985 0.950 . S
C3956 H3938 0.951 . S
C3956 C3957 1.366 . S
C3956 C3958 1.388 . S
C3957 C3956 1.366 . S
C3957 C3961 1.385 . S
C3958 H3939 0.951 . S
C3958 C3956 1.388 . S
C3958 C3959 1.366 . S
C3959 C3958 1.366 . S
C3959 C3960 1.414 . S
C3959 C3962 1.499 . S
C3960 H3940 0.950 . S
C3960 C3959 1.414 . S
C3960 C3961 1.374 . S
C3961 H3941 0.950 . S
C3961 C3957 1.385 . S
C3961 C3960 1.374 . S
C3962 C3959 1.499 . S
C3962 C3963 1.373 . S
C3962 C3964 1.389 . S
C3963 H3942 0.950 . S
C3963 C3962 1.373 . S
C3963 C3979 1.377 . S
C3964 C3962 1.389 . S
C3964 C3965 1.524 . S
C3964 C3978 1.377 . S
C3965 C3964 1.524 . S
C3965 C3966 1.397 . S
C3965 C3970 1.363 . S
C3966 H3943 0.950 . S
C3966 C3965 1.397 . S
C3966 C3967 1.334 . S
C3967 H3944 0.950 . S
C3967 C3966 1.334 . S
C3967 C3968 1.287 . S
C3968 C3967 1.287 . S
C3968 C3969 1.524 . S
C3968 H3987 0.913 . S
C3969 H3945 0.950 . S
C3969 C3968 1.524 . S
C3969 C3970 1.415 . S
C3970 H3946 0.950 . S
C3970 C3965 1.363 . S
C3970 C3969 1.415 . S
C3971 H3947 0.951 . S
C3971 C3972 1.366 . S
C3971 C3973 1.388 . S
C3972 C3971 1.366 . S
C3972 C3976 1.385 . S
C3973 H3948 0.951 . S
C3973 C3971 1.388 . S
C3973 C3974 1.366 . S
C3974 C3973 1.366 . S
C3974 C3975 1.414 . S
C3974 C3977 1.499 . S
C3975 H3949 0.950 . S
C3975 C3974 1.414 . S
C3975 C3976 1.374 . S
C3976 H3950 0.950 . S
C3976 C3972 1.385 . S
C3976 C3975 1.374 . S
C3977 C3974 1.499 . S
C3977 C3978 1.373 . S
C3977 C3979 1.389 . S
C3978 H3951 0.950 . S
C3978 C3964 1.377 . S
C3978 C3977 1.373 . S
C3979 C3963 1.377 . S
C3979 C3977 1.389 . S
C3979 C3980 1.524 . S
C3980 C3979 1.524 . S
C3980 C3981 1.397 . S
C3980 C3985 1.363 . S
C3981 H3952 0.950 . S
C3981 C3980 1.397 . S
C3981 C3982 1.334 . S
C3982 H3953 0.950 . S
C3982 C3981 1.334 . S
C3982 C3983 1.287 . S
C3983 C3982 1.287 . S
C3983 C3984 1.524 . S
C3983 H3986 0.999 . S
C3984 H3954 0.950 . S
C3984 C3983 1.524 . S
C3984 C3985 1.415 . S
C3985 H3955 0.950 . S
C3985 C3980 1.363 . S
C3985 C3984 1.415 . S
H3986 C3983 0.999 . S
H3987 C3968 0.913 . S
H3988 C4006 0.951 . S
H3989 C4008 0.951 . S
H3990 C4010 0.950 . S
H3991 C4011 0.950 . S
H3992 C4013 0.950 . S
H3993 C4016 0.950 . S
H3994 C4017 0.950 . S
H3995 C4019 0.950 . S
H3996 C4020 0.950 . S
H3997 C4021 0.951 . S
H3998 C4023 0.951 . S
H3999 C4025 0.950 . S
H4000 C4026 0.950 . S
H4001 C4028 0.950 . S
H4002 C4031 0.950 . S
H4003 C4032 0.950 . S
H4004 C4034 0.950 . S
H4005 C4035 0.950 . S
C4006 H3988 0.951 . S
C4006 C4007 1.366 . S
C4006 C4008 1.388 . S
C4007 C4006 1.366 . S
C4007 C4011 1.385 . S
C4008 H3989 0.951 . S
C4008 C4006 1.388 . S
C4008 C4009 1.366 . S
C4009 C4008 1.366 . S
C4009 C4010 1.414 . S
C4009 C4012 1.499 . S
C4010 H3990 0.950 . S
C4010 C4009 1.414 . S
C4010 C4011 1.374 . S
C4011 H3991 0.950 . S
C4011 C4007 1.385 . S
C4011 C4010 1.374 . S
C4012 C4009 1.499 . S
C4012 C4013 1.373 . S
C4012 C4014 1.389 . S
C4013 H3992 0.950 . S
C4013 C4012 1.373 . S
C4013 C4029 1.377 . S
C4014 C4012 1.389 . S
C4014 C4015 1.524 . S
C4014 C4028 1.377 . S
C4015 C4014 1.524 . S
C4015 C4016 1.397 . S
C4015 C4020 1.363 . S
C4016 H3993 0.950 . S
C4016 C4015 1.397 . S
C4016 C4017 1.334 . S
C4017 H3994 0.950 . S
C4017 C4016 1.334 . S
C4017 C4018 1.287 . S
C4018 C4017 1.287 . S
C4018 C4019 1.524 . S
C4018 H4037 0.913 . S
C4019 H3995 0.950 . S
C4019 C4018 1.524 . S
C4019 C4020 1.415 . S
C4020 H3996 0.950 . S
C4020 C4015 1.363 . S
C4020 C4019 1.415 . S
C4021 H3997 0.951 . S
C4021 C4022 1.366 . S
C4021 C4023 1.388 . S
C4022 C4021 1.366 . S
C4022 C4026 1.385 . S
C4023 H3998 0.951 . S
C4023 C4021 1.388 . S
C4023 C4024 1.366 . S
C4024 C4023 1.366 . S
C4024 C4025 1.414 . S
C4024 C4027 1.499 . S
C4025 H3999 0.950 . S
C4025 C4024 1.414 . S
C4025 C4026 1.374 . S
C4026 H4000 0.950 . S
C4026 C4022 1.385 . S
C4026 C4025 1.374 . S
C4027 C4024 1.499 . S
C4027 C4028 1.373 . S
C4027 C4029 1.389 . S
C4028 H4001 0.950 . S
C4028 C4014 1.377 . S
C4028 C4027 1.373 . S
C4029 C4013 1.377 . S
C4029 C4027 1.389 . S
C4029 C4030 1.524 . S
C4030 C4029 1.524 . S
C4030 C4031 1.397 . S
C4030 C4035 1.363 . S
C4031 H4002 0.950 . S
C4031 C4030 1.397 . S
C4031 C4032 1.334 . S
C4032 H4003 0.950 . S
C4032 C4031 1.334 . S
C4032 C4033 1.287 . S
C4033 C4032 1.287 . S
C4033 C4034 1.524 . S
C4033 H4036 0.999 . S
C4034 H4004 0.950 . S
C4034 C4033 1.524 . S
C4034 C4035 1.415 . S
C4035 H4005 0.950 . S
C4035 C4030 1.363 . S
C4035 C4034 1.415 . S
H4036 C4033 0.999 . S
H4037 C4018 0.913 . S
H4038 C4056 0.951 1_554 S
H4039 C4058 0.951 . S
H4040 C4060 0.950 . S
H4041 C4061 0.950 . S
H4042 C4063 0.950 . S
H4043 C4066 0.950 . S
H4044 C4067 0.950 . S
H4045 C4069 0.950 . S
H4046 C4070 0.950 . S
H4047 C4071 0.951 . S
H4048 C4073 0.951 . S
H4049 C4075 0.950 . S
H4050 C4076 0.950 . S
H4051 C4078 0.950 . S
H4052 C4081 0.950 . S
H4053 C4082 0.950 . S
H4054 C4084 0.950 . S
H4055 C4085 0.950 . S
C4056 H4038 0.951 1_556 S
C4056 C4057 1.366 . S
C4056 C4058 1.388 . S
C4057 C4056 1.366 . S
C4057 C4061 1.385 . S
C4058 H4039 0.951 . S
C4058 C4056 1.388 . S
C4058 C4059 1.366 . S
C4059 C4058 1.366 . S
C4059 C4060 1.414 . S
C4059 C4062 1.499 . S
C4060 H4040 0.950 . S
C4060 C4059 1.414 . S
C4060 C4061 1.374 . S
C4061 H4041 0.950 . S
C4061 C4057 1.385 . S
C4061 C4060 1.374 . S
C4062 C4059 1.499 . S
C4062 C4063 1.373 . S
C4062 C4064 1.389 . S
C4063 H4042 0.950 . S
C4063 C4062 1.373 . S
C4063 C4079 1.377 . S
C4064 C4062 1.389 . S
C4064 C4065 1.524 . S
C4064 C4078 1.377 . S
C4065 C4064 1.524 . S
C4065 C4066 1.397 . S
C4065 C4070 1.363 . S
C4066 H4043 0.950 . S
C4066 C4065 1.397 . S
C4066 C4067 1.334 . S
C4067 H4044 0.950 . S
C4067 C4066 1.334 . S
C4067 C4068 1.287 . S
C4068 C4067 1.287 . S
C4068 C4069 1.524 . S
C4068 H4087 0.913 . S
C4069 H4045 0.950 . S
C4069 C4068 1.524 . S
C4069 C4070 1.415 . S
C4070 H4046 0.950 . S
C4070 C4065 1.363 . S
C4070 C4069 1.415 . S
C4071 H4047 0.951 . S
C4071 C4072 1.366 . S
C4071 C4073 1.388 . S
C4072 C4071 1.366 . S
C4072 C4076 1.385 . S
C4073 H4048 0.951 . S
C4073 C4071 1.388 . S
C4073 C4074 1.366 . S
C4074 C4073 1.366 . S
C4074 C4075 1.414 . S
C4074 C4077 1.499 . S
C4075 H4049 0.950 . S
C4075 C4074 1.414 . S
C4075 C4076 1.374 . S
C4076 H4050 0.950 . S
C4076 C4072 1.385 . S
C4076 C4075 1.374 . S
C4077 C4074 1.499 . S
C4077 C4078 1.373 . S
C4077 C4079 1.389 . S
C4078 H4051 0.950 . S
C4078 C4064 1.377 . S
C4078 C4077 1.373 . S
C4079 C4063 1.377 . S
C4079 C4077 1.389 . S
C4079 C4080 1.524 . S
C4080 C4079 1.524 . S
C4080 C4081 1.397 . S
C4080 C4085 1.363 . S
C4081 H4052 0.950 . S
C4081 C4080 1.397 . S
C4081 C4082 1.334 . S
C4082 H4053 0.950 . S
C4082 C4081 1.334 . S
C4082 C4083 1.287 . S
C4083 C4082 1.287 . S
C4083 C4084 1.524 . S
C4083 H4086 0.999 . S
C4084 H4054 0.950 . S
C4084 C4083 1.524 . S
C4084 C4085 1.415 . S
C4085 H4055 0.950 . S
C4085 C4080 1.363 . S
C4085 C4084 1.415 . S
H4086 C4083 0.999 . S
H4087 C4068 0.913 . S
H4088 C4106 0.951 . S
H4089 C4108 0.951 . S
H4090 C4110 0.950 . S
H4091 C4111 0.950 . S
H4092 C4113 0.950 . S
H4093 C4116 0.950 . S
H4094 C4117 0.950 . S
H4095 C4119 0.950 . S
H4096 C4120 0.950 . S
H4097 C4121 0.951 . S
H4098 C4123 0.951 . S
H4099 C4125 0.950 . S
H4100 C4126 0.950 . S
H4101 C4128 0.950 . S
H4102 C4131 0.950 . S
H4103 C4132 0.950 . S
H4104 C4134 0.950 . S
H4105 C4135 0.950 . S
C4106 H4088 0.951 . S
C4106 C4107 1.366 . S
C4106 C4108 1.388 . S
C4107 C4106 1.366 . S
C4107 C4111 1.385 . S
C4108 H4089 0.951 . S
C4108 C4106 1.388 . S
C4108 C4109 1.366 . S
C4109 C4108 1.366 . S
C4109 C4110 1.414 . S
C4109 C4112 1.499 . S
C4110 H4090 0.950 . S
C4110 C4109 1.414 . S
C4110 C4111 1.374 . S
C4111 H4091 0.950 . S
C4111 C4107 1.385 . S
C4111 C4110 1.374 . S
C4112 C4109 1.499 . S
C4112 C4113 1.373 . S
C4112 C4114 1.389 . S
C4113 H4092 0.950 . S
C4113 C4112 1.373 . S
C4113 C4129 1.377 . S
C4114 C4112 1.389 . S
C4114 C4115 1.524 . S
C4114 C4128 1.377 . S
C4115 C4114 1.524 . S
C4115 C4116 1.397 . S
C4115 C4120 1.363 . S
C4116 H4093 0.950 . S
C4116 C4115 1.397 . S
C4116 C4117 1.334 . S
C4117 H4094 0.950 . S
C4117 C4116 1.334 . S
C4117 C4118 1.287 . S
C4118 C4117 1.287 . S
C4118 C4119 1.524 . S
C4118 H4137 0.913 . S
C4119 H4095 0.950 . S
C4119 C4118 1.524 . S
C4119 C4120 1.415 . S
C4120 H4096 0.950 . S
C4120 C4115 1.363 . S
C4120 C4119 1.415 . S
C4121 H4097 0.951 . S
C4121 C4122 1.366 . S
C4121 C4123 1.388 . S
C4122 C4121 1.366 . S
C4122 C4126 1.385 . S
C4123 H4098 0.951 . S
C4123 C4121 1.388 . S
C4123 C4124 1.366 . S
C4124 C4123 1.366 . S
C4124 C4125 1.414 . S
C4124 C4127 1.499 . S
C4125 H4099 0.950 . S
C4125 C4124 1.414 . S
C4125 C4126 1.374 . S
C4126 H4100 0.950 . S
C4126 C4122 1.385 . S
C4126 C4125 1.374 . S
C4127 C4124 1.499 . S
C4127 C4128 1.373 . S
C4127 C4129 1.389 . S
C4128 H4101 0.950 . S
C4128 C4114 1.377 . S
C4128 C4127 1.373 . S
C4129 C4113 1.377 . S
C4129 C4127 1.389 . S
C4129 C4130 1.524 . S
C4130 C4129 1.524 . S
C4130 C4131 1.397 . S
C4130 C4135 1.363 . S
C4131 H4102 0.950 . S
C4131 C4130 1.397 . S
C4131 C4132 1.334 . S
C4132 H4103 0.950 . S
C4132 C4131 1.334 . S
C4132 C4133 1.287 . S
C4133 C4132 1.287 . S
C4133 C4134 1.524 . S
C4133 H4136 0.999 . S
C4134 H4104 0.950 . S
C4134 C4133 1.524 . S
C4134 C4135 1.415 . S
C4135 H4105 0.950 . S
C4135 C4130 1.363 . S
C4135 C4134 1.415 . S
H4136 C4133 0.999 . S
H4137 C4118 0.913 . S
H4138 C4156 0.951 . S
H4139 C4158 0.951 . S
H4140 C4160 0.950 . S
H4141 C4161 0.950 . S
H4142 C4163 0.950 . S
H4143 C4166 0.950 . S
H4144 C4167 0.950 . S
H4145 C4169 0.950 . S
H4146 C4170 0.950 . S
H4147 C4171 0.951 . S
H4148 C4173 0.951 . S
H4149 C4175 0.950 . S
H4150 C4176 0.950 . S
H4151 C4178 0.950 . S
H4152 C4181 0.950 . S
H4153 C4182 0.950 . S
H4154 C4184 0.950 . S
H4155 C4185 0.950 . S
C4156 H4138 0.951 . S
C4156 C4157 1.366 . S
C4156 C4158 1.388 . S
C4157 C4156 1.366 . S
C4157 C4161 1.385 . S
C4158 H4139 0.951 . S
C4158 C4156 1.388 . S
C4158 C4159 1.366 . S
C4159 C4158 1.366 . S
C4159 C4160 1.414 . S
C4159 C4162 1.499 . S
C4160 H4140 0.950 . S
C4160 C4159 1.414 . S
C4160 C4161 1.374 . S
C4161 H4141 0.950 . S
C4161 C4157 1.385 . S
C4161 C4160 1.374 . S
C4162 C4159 1.499 . S
C4162 C4163 1.373 . S
C4162 C4164 1.389 . S
C4163 H4142 0.950 . S
C4163 C4162 1.373 . S
C4163 C4179 1.377 . S
C4164 C4162 1.389 . S
C4164 C4165 1.524 . S
C4164 C4178 1.377 . S
C4165 C4164 1.524 . S
C4165 C4166 1.397 . S
C4165 C4170 1.363 . S
C4166 H4143 0.950 . S
C4166 C4165 1.397 . S
C4166 C4167 1.334 . S
C4167 H4144 0.950 . S
C4167 C4166 1.334 . S
C4167 C4168 1.287 . S
C4168 C4167 1.287 . S
C4168 C4169 1.524 . S
C4168 H4187 0.913 . S
C4169 H4145 0.950 . S
C4169 C4168 1.524 . S
C4169 C4170 1.415 . S
C4170 H4146 0.950 . S
C4170 C4165 1.363 . S
C4170 C4169 1.415 . S
C4171 H4147 0.951 . S
C4171 C4172 1.366 . S
C4171 C4173 1.388 . S
C4172 C4171 1.366 . S
C4172 C4176 1.385 . S
C4173 H4148 0.951 . S
C4173 C4171 1.388 . S
C4173 C4174 1.366 . S
C4174 C4173 1.366 . S
C4174 C4175 1.414 . S
C4174 C4177 1.499 . S
C4175 H4149 0.950 . S
C4175 C4174 1.414 . S
C4175 C4176 1.374 . S
C4176 H4150 0.950 . S
C4176 C4172 1.385 . S
C4176 C4175 1.374 . S
C4177 C4174 1.499 . S
C4177 C4178 1.373 . S
C4177 C4179 1.389 . S
C4178 H4151 0.950 . S
C4178 C4164 1.377 . S
C4178 C4177 1.373 . S
C4179 C4163 1.377 . S
C4179 C4177 1.389 . S
C4179 C4180 1.524 . S
C4180 C4179 1.524 . S
C4180 C4181 1.397 . S
C4180 C4185 1.363 . S
C4181 H4152 0.950 . S
C4181 C4180 1.397 . S
C4181 C4182 1.334 . S
C4182 H4153 0.950 . S
C4182 C4181 1.334 . S
C4182 C4183 1.287 . S
C4183 C4182 1.287 . S
C4183 C4184 1.524 . S
C4183 H4186 0.999 . S
C4184 H4154 0.950 . S
C4184 C4183 1.524 . S
C4184 C4185 1.415 . S
C4185 H4155 0.950 . S
C4185 C4180 1.363 . S
C4185 C4184 1.415 . S
H4186 C4183 0.999 . S
H4187 C4168 0.913 . S
H4188 C4206 0.951 . S
H4189 C4208 0.951 . S
H4190 C4210 0.950 . S
H4191 C4211 0.950 . S
H4192 C4213 0.950 . S
H4193 C4216 0.950 . S
H4194 C4217 0.950 . S
H4195 C4219 0.950 . S
H4196 C4220 0.950 . S
H4197 C4221 0.951 . S
H4198 C4223 0.951 . S
H4199 C4225 0.950 . S
H4200 C4226 0.950 . S
H4201 C4228 0.950 . S
H4202 C4231 0.950 . S
H4203 C4232 0.950 . S
H4204 C4234 0.950 . S
H4205 C4235 0.950 . S
C4206 H4188 0.951 . S
C4206 C4207 1.366 . S
C4206 C4208 1.388 . S
C4207 C4206 1.366 . S
C4207 C4211 1.385 . S
C4208 H4189 0.951 . S
C4208 C4206 1.388 . S
C4208 C4209 1.366 . S
C4209 C4208 1.366 . S
C4209 C4210 1.414 . S
C4209 C4212 1.499 . S
C4210 H4190 0.950 . S
C4210 C4209 1.414 . S
C4210 C4211 1.374 . S
C4211 H4191 0.950 . S
C4211 C4207 1.385 . S
C4211 C4210 1.374 . S
C4212 C4209 1.499 . S
C4212 C4213 1.373 . S
C4212 C4214 1.389 . S
C4213 H4192 0.950 . S
C4213 C4212 1.373 . S
C4213 C4229 1.377 . S
C4214 C4212 1.389 . S
C4214 C4215 1.524 . S
C4214 C4228 1.377 . S
C4215 C4214 1.524 . S
C4215 C4216 1.397 . S
C4215 C4220 1.363 . S
C4216 H4193 0.950 . S
C4216 C4215 1.397 . S
C4216 C4217 1.334 . S
C4217 H4194 0.950 . S
C4217 C4216 1.334 . S
C4217 C4218 1.287 . S
C4218 C4217 1.287 . S
C4218 C4219 1.524 . S
C4218 H4237 0.913 . S
C4219 H4195 0.950 . S
C4219 C4218 1.524 . S
C4219 C4220 1.415 . S
C4220 H4196 0.950 . S
C4220 C4215 1.363 . S
C4220 C4219 1.415 . S
C4221 H4197 0.951 . S
C4221 C4222 1.366 . S
C4221 C4223 1.388 . S
C4222 C4221 1.366 . S
C4222 C4226 1.385 . S
C4223 H4198 0.951 . S
C4223 C4221 1.388 . S
C4223 C4224 1.366 . S
C4224 C4223 1.366 . S
C4224 C4225 1.414 . S
C4224 C4227 1.499 . S
C4225 H4199 0.950 . S
C4225 C4224 1.414 . S
C4225 C4226 1.374 . S
C4226 H4200 0.950 . S
C4226 C4222 1.385 . S
C4226 C4225 1.374 . S
C4227 C4224 1.499 . S
C4227 C4228 1.373 . S
C4227 C4229 1.389 . S
C4228 H4201 0.950 . S
C4228 C4214 1.377 . S
C4228 C4227 1.373 . S
C4229 C4213 1.377 . S
C4229 C4227 1.389 . S
C4229 C4230 1.524 . S
C4230 C4229 1.524 . S
C4230 C4231 1.397 . S
C4230 C4235 1.363 . S
C4231 H4202 0.950 . S
C4231 C4230 1.397 . S
C4231 C4232 1.334 . S
C4232 H4203 0.950 . S
C4232 C4231 1.334 . S
C4232 C4233 1.287 . S
C4233 C4232 1.287 . S
C4233 C4234 1.524 . S
C4233 H4236 0.999 . S
C4234 H4204 0.950 . S
C4234 C4233 1.524 . S
C4234 C4235 1.415 . S
C4235 H4205 0.950 . S
C4235 C4230 1.363 . S
C4235 C4234 1.415 . S
H4236 C4233 0.999 . S
H4237 C4218 0.913 . S
H4238 C4256 0.951 . S
H4239 C4258 0.951 . S
H4240 C4260 0.950 . S
H4241 C4261 0.950 . S
H4242 C4263 0.950 . S
H4243 C4266 0.950 . S
H4244 C4267 0.950 . S
H4245 C4269 0.950 . S
H4246 C4270 0.950 . S
H4247 C4271 0.951 . S
H4248 C4273 0.951 . S
H4249 C4275 0.950 . S
H4250 C4276 0.950 . S
H4251 C4278 0.950 . S
H4252 C4281 0.950 . S
H4253 C4282 0.950 . S
H4254 C4284 0.950 . S
H4255 C4285 0.950 . S
C4256 H4238 0.951 . S
C4256 C4257 1.366 . S
C4256 C4258 1.388 . S
C4257 C4256 1.366 . S
C4257 C4261 1.385 . S
C4258 H4239 0.951 . S
C4258 C4256 1.388 . S
C4258 C4259 1.366 . S
C4259 C4258 1.366 . S
C4259 C4260 1.414 . S
C4259 C4262 1.499 . S
C4260 H4240 0.950 . S
C4260 C4259 1.414 . S
C4260 C4261 1.374 . S
C4261 H4241 0.950 . S
C4261 C4257 1.385 . S
C4261 C4260 1.374 . S
C4262 C4259 1.499 . S
C4262 C4263 1.373 . S
C4262 C4264 1.389 . S
C4263 H4242 0.950 . S
C4263 C4262 1.373 . S
C4263 C4279 1.377 1_655 S
C4264 C4262 1.389 . S
C4264 C4265 1.524 . S
C4264 C4278 1.377 . S
C4265 C4264 1.524 . S
C4265 C4266 1.397 . S
C4265 C4270 1.363 . S
C4266 H4243 0.950 . S
C4266 C4265 1.397 . S
C4266 C4267 1.334 . S
C4267 H4244 0.950 . S
C4267 C4266 1.334 . S
C4267 C4268 1.287 . S
C4268 C4267 1.287 . S
C4268 C4269 1.524 . S
C4268 H4287 0.913 . S
C4269 H4245 0.950 . S
C4269 C4268 1.524 . S
C4269 C4270 1.415 . S
C4270 H4246 0.950 . S
C4270 C4265 1.363 . S
C4270 C4269 1.415 . S
C4271 H4247 0.951 . S
C4271 C4272 1.366 . S
C4271 C4273 1.388 . S
C4272 C4271 1.366 . S
C4272 C4276 1.385 . S
C4273 H4248 0.951 . S
C4273 C4271 1.388 . S
C4273 C4274 1.366 . S
C4274 C4273 1.366 . S
C4274 C4275 1.414 . S
C4274 C4277 1.499 . S
C4275 H4249 0.950 . S
C4275 C4274 1.414 . S
C4275 C4276 1.374 . S
C4276 H4250 0.950 . S
C4276 C4272 1.385 . S
C4276 C4275 1.374 . S
C4277 C4274 1.499 . S
C4277 C4278 1.373 1_455 S
C4277 C4279 1.389 . S
C4278 H4251 0.950 . S
C4278 C4264 1.377 . S
C4278 C4277 1.373 1_655 S
C4279 C4263 1.377 1_455 S
C4279 C4277 1.389 . S
C4279 C4280 1.524 . S
C4280 C4279 1.524 . S
C4280 C4281 1.397 . S
C4280 C4285 1.363 . S
C4281 H4252 0.950 . S
C4281 C4280 1.397 . S
C4281 C4282 1.334 . S
C4282 H4253 0.950 . S
C4282 C4281 1.334 . S
C4282 C4283 1.287 . S
C4283 C4282 1.287 . S
C4283 C4284 1.524 . S
C4283 H4286 0.999 . S
C4284 H4254 0.950 . S
C4284 C4283 1.524 . S
C4284 C4285 1.415 . S
C4285 H4255 0.950 . S
C4285 C4280 1.363 . S
C4285 C4284 1.415 . S
H4286 C4283 0.999 . S
H4287 C4268 0.913 . S
H4288 C4306 0.951 . S
H4289 C4308 0.951 . S
H4290 C4310 0.950 . S
H4291 C4311 0.950 . S
H4292 C4313 0.950 . S
H4293 C4316 0.950 . S
H4294 C4317 0.950 . S
H4295 C4319 0.950 . S
H4296 C4320 0.950 . S
H4297 C4321 0.951 . S
H4298 C4323 0.951 . S
H4299 C4325 0.950 . S
H4300 C4326 0.950 . S
H4301 C4328 0.950 . S
H4302 C4331 0.950 . S
H4303 C4332 0.950 . S
H4304 C4334 0.950 . S
H4305 C4335 0.950 . S
C4306 H4288 0.951 . S
C4306 C4307 1.366 . S
C4306 C4308 1.388 . S
C4307 C4306 1.366 . S
C4307 C4311 1.385 . S
C4308 H4289 0.951 . S
C4308 C4306 1.388 . S
C4308 C4309 1.366 . S
C4309 C4308 1.366 . S
C4309 C4310 1.414 . S
C4309 C4312 1.499 . S
C4310 H4290 0.950 . S
C4310 C4309 1.414 . S
C4310 C4311 1.374 . S
C4311 H4291 0.950 . S
C4311 C4307 1.385 . S
C4311 C4310 1.374 . S
C4312 C4309 1.499 . S
C4312 C4313 1.373 . S
C4312 C4314 1.389 . S
C4313 H4292 0.950 . S
C4313 C4312 1.373 . S
C4313 C4329 1.377 . S
C4314 C4312 1.389 . S
C4314 C4315 1.524 . S
C4314 C4328 1.377 . S
C4315 C4314 1.524 . S
C4315 C4316 1.397 . S
C4315 C4320 1.363 . S
C4316 H4293 0.950 . S
C4316 C4315 1.397 . S
C4316 C4317 1.334 . S
C4317 H4294 0.950 . S
C4317 C4316 1.334 . S
C4317 C4318 1.287 . S
C4318 C4317 1.287 . S
C4318 C4319 1.524 . S
C4318 H4337 0.913 . S
C4319 H4295 0.950 . S
C4319 C4318 1.524 . S
C4319 C4320 1.415 . S
C4320 H4296 0.950 . S
C4320 C4315 1.363 . S
C4320 C4319 1.415 . S
C4321 H4297 0.951 . S
C4321 C4322 1.366 . S
C4321 C4323 1.388 . S
C4322 C4321 1.366 . S
C4322 C4326 1.385 . S
C4323 H4298 0.951 . S
C4323 C4321 1.388 . S
C4323 C4324 1.366 . S
C4324 C4323 1.366 . S
C4324 C4325 1.414 . S
C4324 C4327 1.499 . S
C4325 H4299 0.950 . S
C4325 C4324 1.414 . S
C4325 C4326 1.374 . S
C4326 H4300 0.950 . S
C4326 C4322 1.385 . S
C4326 C4325 1.374 . S
C4327 C4324 1.499 . S
C4327 C4328 1.373 . S
C4327 C4329 1.389 . S
C4328 H4301 0.950 . S
C4328 C4314 1.377 . S
C4328 C4327 1.373 . S
C4329 C4313 1.377 . S
C4329 C4327 1.389 . S
C4329 C4330 1.524 . S
C4330 C4329 1.524 . S
C4330 C4331 1.397 . S
C4330 C4335 1.363 . S
C4331 H4302 0.950 . S
C4331 C4330 1.397 . S
C4331 C4332 1.334 . S
C4332 H4303 0.950 . S
C4332 C4331 1.334 . S
C4332 C4333 1.287 . S
C4333 C4332 1.287 . S
C4333 C4334 1.524 . S
C4333 H4336 0.999 . S
C4334 H4304 0.950 . S
C4334 C4333 1.524 . S
C4334 C4335 1.415 . S
C4335 H4305 0.950 . S
C4335 C4330 1.363 . S
C4335 C4334 1.415 . S
H4336 C4333 0.999 . S
H4337 C4318 0.913 . S
H4338 C4356 0.951 . S
H4339 C4358 0.951 . S
H4340 C4360 0.950 . S
H4341 C4361 0.950 . S
H4342 C4363 0.950 . S
H4343 C4366 0.950 . S
H4344 C4367 0.950 . S
H4345 C4369 0.950 . S
H4346 C4370 0.950 . S
H4347 C4371 0.951 . S
H4348 C4373 0.951 . S
H4349 C4375 0.950 . S
H4350 C4376 0.950 . S
H4351 C4378 0.950 . S
H4352 C4381 0.950 . S
H4353 C4382 0.950 . S
H4354 C4384 0.950 . S
H4355 C4385 0.972 . S
C4356 H4338 0.951 . S
C4356 C4357 1.366 . S
C4356 C4358 1.388 . S
C4357 C4356 1.366 . S
C4357 C4361 1.385 . S
C4358 H4339 0.951 . S
C4358 C4356 1.388 . S
C4358 C4359 1.366 . S
C4359 C4358 1.366 . S
C4359 C4360 1.414 . S
C4359 C4362 1.499 . S
C4360 H4340 0.950 . S
C4360 C4359 1.414 . S
C4360 C4361 1.374 . S
C4361 H4341 0.950 . S
C4361 C4357 1.385 . S
C4361 C4360 1.374 . S
C4362 C4359 1.499 . S
C4362 C4363 1.373 . S
C4362 C4364 1.389 . S
C4363 H4342 0.950 . S
C4363 C4362 1.373 . S
C4363 C4379 1.377 1_556 S
C4364 C4362 1.389 . S
C4364 C4365 1.524 . S
C4364 C4378 1.377 1_556 S
C4365 C4364 1.524 . S
C4365 C4366 1.397 . S
C4365 C4370 1.363 . S
C4366 H4343 0.950 . S
C4366 C4365 1.397 . S
C4366 C4367 1.334 . S
C4367 H4344 0.950 . S
C4367 C4366 1.334 . S
C4367 C4368 1.287 . S
C4368 C4367 1.287 . S
C4368 C4369 1.524 . S
C4368 H4387 0.913 . S
C4369 H4345 0.950 . S
C4369 C4368 1.524 . S
C4369 C4370 1.415 . S
C4370 H4346 0.950 . S
C4370 C4365 1.363 . S
C4370 C4369 1.415 . S
C4371 H4347 0.951 . S
C4371 C4372 1.366 . S
C4371 C4373 1.388 . S
C4372 C4371 1.366 . S
C4372 C4376 1.385 . S
C4373 H4348 0.951 . S
C4373 C4371 1.388 . S
C4373 C4374 1.366 . S
C4374 C4373 1.366 . S
C4374 C4375 1.414 . S
C4374 C4377 1.499 . S
C4375 H4349 0.950 . S
C4375 C4374 1.414 . S
C4375 C4376 1.374 . S
C4376 H4350 0.950 . S
C4376 C4372 1.385 . S
C4376 C4375 1.374 . S
C4377 C4374 1.499 . S
C4377 C4378 1.373 . S
C4377 C4379 1.389 . S
C4378 H4351 0.950 . S
C4378 C4364 1.377 1_554 S
C4378 C4377 1.373 . S
C4379 C4363 1.377 1_554 S
C4379 C4377 1.389 . S
C4379 C4380 1.524 . S
C4380 C4379 1.524 . S
C4380 C4381 1.397 . S
C4380 C4385 1.351 1_554 S
C4381 H4352 0.950 . S
C4381 C4380 1.397 . S
C4381 C4382 1.334 . S
C4382 H4353 0.950 . S
C4382 C4381 1.334 . S
C4382 C4383 1.287 . S
C4383 C4382 1.287 . S
C4383 C4384 1.524 . S
C4383 H4386 0.999 . S
C4384 H4354 0.950 . S
C4384 C4383 1.524 . S
C4384 C4385 1.406 1_554 S
C4385 H4355 0.972 . S
C4385 C4380 1.351 1_556 S
C4385 C4384 1.406 1_556 S
H4386 C4383 0.999 . S
H4387 C4368 0.913 . S
H4388 C4406 0.951 . S
H4389 C4408 0.951 . S
H4390 C4410 0.950 . S
H4391 C4411 0.950 . S
H4392 C4413 0.950 . S
H4393 C4416 0.950 . S
H4394 C4417 0.950 . S
H4395 C4419 0.950 . S
H4396 C4420 0.950 . S
H4397 C4421 0.951 . S
H4398 C4423 0.951 . S
H4399 C4425 0.950 . S
H4400 C4426 0.950 . S
H4401 C4428 0.950 . S
H4402 C4431 0.950 . S
H4403 C4432 0.950 . S
H4404 C4434 0.950 . S
H4405 C4435 0.950 . S
C4406 H4388 0.951 . S
C4406 C4407 1.366 . S
C4406 C4408 1.388 . S
C4407 C4406 1.366 . S
C4407 C4411 1.385 . S
C4408 H4389 0.951 . S
C4408 C4406 1.388 . S
C4408 C4409 1.366 . S
C4409 C4408 1.366 . S
C4409 C4410 1.414 . S
C4409 C4412 1.499 . S
C4410 H4390 0.950 . S
C4410 C4409 1.414 . S
C4410 C4411 1.374 . S
C4411 H4391 0.950 . S
C4411 C4407 1.385 . S
C4411 C4410 1.374 . S
C4412 C4409 1.499 . S
C4412 C4413 1.373 . S
C4412 C4414 1.389 . S
C4413 H4392 0.950 . S
C4413 C4412 1.373 . S
C4413 C4429 1.377 . S
C4414 C4412 1.389 . S
C4414 C4415 1.524 . S
C4414 C4428 1.377 . S
C4415 C4414 1.524 . S
C4415 C4416 1.397 . S
C4415 C4420 1.363 . S
C4416 H4393 0.950 . S
C4416 C4415 1.397 . S
C4416 C4417 1.334 . S
C4417 H4394 0.950 . S
C4417 C4416 1.334 . S
C4417 C4418 1.287 . S
C4418 C4417 1.287 . S
C4418 C4419 1.524 . S
C4418 H4437 0.913 . S
C4419 H4395 0.950 . S
C4419 C4418 1.524 . S
C4419 C4420 1.415 . S
C4420 H4396 0.950 . S
C4420 C4415 1.363 . S
C4420 C4419 1.415 . S
C4421 H4397 0.951 . S
C4421 C4422 1.366 . S
C4421 C4423 1.388 . S
C4422 C4421 1.366 . S
C4422 C4426 1.385 . S
C4423 H4398 0.951 . S
C4423 C4421 1.388 . S
C4423 C4424 1.366 . S
C4424 C4423 1.366 . S
C4424 C4425 1.414 . S
C4424 C4427 1.499 . S
C4425 H4399 0.950 . S
C4425 C4424 1.414 . S
C4425 C4426 1.374 . S
C4426 H4400 0.950 . S
C4426 C4422 1.385 . S
C4426 C4425 1.374 . S
C4427 C4424 1.499 . S
C4427 C4428 1.373 . S
C4427 C4429 1.389 . S
C4428 H4401 0.950 . S
C4428 C4414 1.377 . S
C4428 C4427 1.373 . S
C4429 C4413 1.377 . S
C4429 C4427 1.389 . S
C4429 C4430 1.524 . S
C4430 C4429 1.524 . S
C4430 C4431 1.397 . S
C4430 C4435 1.363 . S
C4431 H4402 0.950 . S
C4431 C4430 1.397 . S
C4431 C4432 1.334 . S
C4432 H4403 0.950 . S
C4432 C4431 1.334 . S
C4432 C4433 1.287 . S
C4433 C4432 1.287 . S
C4433 C4434 1.524 . S
C4433 H4436 0.999 . S
C4434 H4404 0.950 . S
C4434 C4433 1.524 . S
C4434 C4435 1.415 . S
C4435 H4405 0.950 . S
C4435 C4430 1.363 . S
C4435 C4434 1.415 . S
H4436 C4433 0.999 . S
H4437 C4418 0.913 . S
H4438 C4456 0.951 . S
H4439 C4458 0.951 . S
H4440 C4460 0.950 . S
H4441 C4461 0.950 . S
H4442 C4463 0.950 . S
H4443 C4466 0.950 . S
H4444 C4467 0.950 . S
H4445 C4469 0.950 . S
H4446 C4470 0.950 . S
H4447 C4471 0.951 . S
H4448 C4473 0.951 . S
H4449 C4475 0.950 . S
H4450 C4476 0.950 . S
H4451 C4478 0.950 . S
H4452 C4481 0.950 . S
H4453 C4482 0.950 . S
H4454 C4484 0.950 . S
H4455 C4485 0.950 . S
C4456 H4438 0.951 . S
C4456 C4457 1.366 . S
C4456 C4458 1.388 . S
C4457 C4456 1.366 . S
C4457 C4461 1.385 . S
C4458 H4439 0.951 . S
C4458 C4456 1.388 . S
C4458 C4459 1.366 . S
C4459 C4458 1.366 . S
C4459 C4460 1.414 . S
C4459 C4462 1.499 . S
C4460 H4440 0.950 . S
C4460 C4459 1.414 . S
C4460 C4461 1.374 . S
C4461 H4441 0.950 . S
C4461 C4457 1.385 . S
C4461 C4460 1.374 . S
C4462 C4459 1.499 . S
C4462 C4463 1.373 . S
C4462 C4464 1.389 . S
C4463 H4442 0.950 . S
C4463 C4462 1.373 . S
C4463 C4479 1.377 . S
C4464 C4462 1.389 . S
C4464 C4465 1.524 . S
C4464 C4478 1.377 . S
C4465 C4464 1.524 . S
C4465 C4466 1.397 . S
C4465 C4470 1.363 . S
C4466 H4443 0.950 . S
C4466 C4465 1.397 . S
C4466 C4467 1.334 . S
C4467 H4444 0.950 . S
C4467 C4466 1.334 . S
C4467 C4468 1.287 . S
C4468 C4467 1.287 . S
C4468 C4469 1.524 . S
C4468 H4487 0.913 . S
C4469 H4445 0.950 . S
C4469 C4468 1.524 . S
C4469 C4470 1.415 . S
C4470 H4446 0.950 . S
C4470 C4465 1.363 . S
C4470 C4469 1.415 . S
C4471 H4447 0.951 . S
C4471 C4472 1.366 . S
C4471 C4473 1.388 . S
C4472 C4471 1.366 . S
C4472 C4476 1.385 . S
C4473 H4448 0.951 . S
C4473 C4471 1.388 . S
C4473 C4474 1.366 . S
C4474 C4473 1.366 . S
C4474 C4475 1.414 . S
C4474 C4477 1.499 . S
C4475 H4449 0.950 . S
C4475 C4474 1.414 . S
C4475 C4476 1.374 . S
C4476 H4450 0.950 . S
C4476 C4472 1.385 . S
C4476 C4475 1.374 . S
C4477 C4474 1.499 . S
C4477 C4478 1.373 . S
C4477 C4479 1.389 . S
C4478 H4451 0.950 . S
C4478 C4464 1.377 . S
C4478 C4477 1.373 . S
C4479 C4463 1.377 . S
C4479 C4477 1.389 . S
C4479 C4480 1.524 . S
C4480 C4479 1.524 . S
C4480 C4481 1.397 . S
C4480 C4485 1.363 . S
C4481 H4452 0.950 . S
C4481 C4480 1.397 . S
C4481 C4482 1.334 . S
C4482 H4453 0.950 . S
C4482 C4481 1.334 . S
C4482 C4483 1.287 . S
C4483 C4482 1.287 . S
C4483 C4484 1.524 . S
C4483 H4486 0.999 . S
C4484 H4454 0.950 . S
C4484 C4483 1.524 . S
C4484 C4485 1.415 . S
C4485 H4455 0.950 . S
C4485 C4480 1.363 . S
C4485 C4484 1.415 . S
H4486 C4483 0.999 . S
H4487 C4468 0.913 . S
H4488 C4506 0.951 . S
H4489 C4508 0.951 . S
H4490 C4510 0.950 . S
H4491 C4511 0.950 . S
H4492 C4513 0.950 . S
H4493 C4516 0.950 . S
H4494 C4517 0.950 . S
H4495 C4519 0.950 . S
H4496 C4520 0.950 . S
H4497 C4521 0.951 . S
H4498 C4523 0.951 . S
H4499 C4525 0.950 . S
H4500 C4526 0.950 . S
H4501 C4528 0.950 . S
H4502 C4531 0.950 . S
H4503 C4532 0.950 . S
H4504 C4534 0.950 . S
H4505 C4535 0.950 . S
C4506 H4488 0.951 . S
C4506 C4507 1.366 . S
C4506 C4508 1.388 . S
C4507 C4506 1.366 . S
C4507 C4511 1.385 . S
C4508 H4489 0.951 . S
C4508 C4506 1.388 . S
C4508 C4509 1.366 . S
C4509 C4508 1.366 . S
C4509 C4510 1.414 . S
C4509 C4512 1.499 . S
C4510 H4490 0.950 . S
C4510 C4509 1.414 . S
C4510 C4511 1.374 . S
C4511 H4491 0.950 . S
C4511 C4507 1.385 . S
C4511 C4510 1.374 . S
C4512 C4509 1.499 . S
C4512 C4513 1.373 . S
C4512 C4514 1.389 . S
C4513 H4492 0.950 . S
C4513 C4512 1.373 . S
C4513 C4529 1.377 . S
C4514 C4512 1.389 . S
C4514 C4515 1.524 . S
C4514 C4528 1.377 . S
C4515 C4514 1.524 . S
C4515 C4516 1.397 . S
C4515 C4520 1.363 . S
C4516 H4493 0.950 . S
C4516 C4515 1.397 . S
C4516 C4517 1.334 . S
C4517 H4494 0.950 . S
C4517 C4516 1.334 . S
C4517 C4518 1.287 . S
C4518 C4517 1.287 . S
C4518 C4519 1.524 . S
C4518 H4537 0.913 . S
C4519 H4495 0.950 . S
C4519 C4518 1.524 . S
C4519 C4520 1.415 . S
C4520 H4496 0.950 . S
C4520 C4515 1.363 . S
C4520 C4519 1.415 . S
C4521 H4497 0.951 . S
C4521 C4522 1.366 . S
C4521 C4523 1.388 . S
C4522 C4521 1.366 . S
C4522 C4526 1.385 . S
C4523 H4498 0.951 . S
C4523 C4521 1.388 . S
C4523 C4524 1.366 . S
C4524 C4523 1.366 . S
C4524 C4525 1.414 . S
C4524 C4527 1.499 . S
C4525 H4499 0.950 . S
C4525 C4524 1.414 . S
C4525 C4526 1.374 . S
C4526 H4500 0.950 . S
C4526 C4522 1.385 . S
C4526 C4525 1.374 . S
C4527 C4524 1.499 . S
C4527 C4528 1.373 . S
C4527 C4529 1.389 . S
C4528 H4501 0.950 . S
C4528 C4514 1.377 . S
C4528 C4527 1.373 . S
C4529 C4513 1.377 . S
C4529 C4527 1.389 . S
C4529 C4530 1.524 . S
C4530 C4529 1.524 . S
C4530 C4531 1.397 . S
C4530 C4535 1.363 . S
C4531 H4502 0.950 . S
C4531 C4530 1.397 . S
C4531 C4532 1.334 . S
C4532 H4503 0.950 . S
C4532 C4531 1.334 . S
C4532 C4533 1.287 . S
C4533 C4532 1.287 . S
C4533 C4534 1.524 . S
C4533 H4536 0.999 . S
C4534 H4504 0.950 . S
C4534 C4533 1.524 . S
C4534 C4535 1.415 . S
C4535 H4505 0.950 . S
C4535 C4530 1.363 . S
C4535 C4534 1.415 . S
H4536 C4533 0.999 . S
H4537 C4518 0.913 . S
H4538 C4556 0.951 . S
H4539 C4558 0.951 . S
H4540 C4560 0.950 . S
H4541 C4561 0.950 1_655 S
H4542 C4563 0.950 . S
H4543 C4566 0.950 . S
H4544 C4567 0.950 . S
H4545 C4569 0.950 . S
H4546 C4570 0.950 . S
H4547 C4571 0.951 . S
H4548 C4573 0.951 . S
H4549 C4575 0.950 . S
H4550 C4576 0.950 . S
H4551 C4578 0.950 1_556 S
H4552 C4581 0.949 . S
H4553 C4582 0.950 . S
H4554 C4584 0.924 1_655 S
H4555 C4585 0.950 . S
C4556 H4538 0.951 . S
C4556 C4557 1.366 . S
C4556 C4558 1.388 . S
C4557 C4556 1.366 . S
C4557 C4561 1.385 . S
C4558 H4539 0.951 . S
C4558 C4556 1.388 . S
C4558 C4559 1.366 . S
C4559 C4558 1.366 . S
C4559 C4560 1.414 . S
C4559 C4562 1.499 . S
C4560 H4540 0.950 . S
C4560 C4559 1.414 . S
C4560 C4561 1.374 . S
C4561 H4541 0.950 1_455 S
C4561 C4557 1.385 . S
C4561 C4560 1.374 . S
C4562 C4559 1.499 . S
C4562 C4563 1.373 . S
C4562 C4564 1.389 . S
C4563 H4542 0.950 . S
C4563 C4562 1.373 . S
C4563 C4579 1.377 . S
C4564 C4562 1.389 . S
C4564 C4565 1.524 . S
C4564 C4578 1.377 . S
C4565 C4564 1.524 . S
C4565 C4566 1.397 . S
C4565 C4570 1.363 . S
C4566 H4543 0.950 . S
C4566 C4565 1.397 . S
C4566 C4567 1.334 . S
C4567 H4544 0.950 . S
C4567 C4566 1.334 . S
C4567 C4568 1.287 . S
C4568 C4567 1.287 . S
C4568 C4569 1.524 . S
C4568 H4587 0.913 . S
C4569 H4545 0.950 . S
C4569 C4568 1.524 . S
C4569 C4570 1.415 . S
C4570 H4546 0.950 . S
C4570 C4565 1.363 . S
C4570 C4569 1.415 . S
C4571 H4547 0.951 . S
C4571 C4572 1.366 . S
C4571 C4573 1.388 . S
C4572 C4571 1.366 . S
C4572 C4576 1.385 . S
C4573 H4548 0.951 . S
C4573 C4571 1.388 . S
C4573 C4574 1.366 . S
C4574 C4573 1.366 . S
C4574 C4575 1.414 . S
C4574 C4577 1.499 . S
C4575 H4549 0.950 . S
C4575 C4574 1.414 . S
C4575 C4576 1.374 . S
C4576 H4550 0.950 . S
C4576 C4572 1.385 . S
C4576 C4575 1.374 . S
C4577 C4574 1.499 . S
C4577 C4578 1.373 1_556 S
C4577 C4579 1.389 1_556 S
C4578 H4551 0.950 1_554 S
C4578 C4564 1.377 . S
C4578 C4577 1.373 1_554 S
C4579 C4563 1.377 . S
C4579 C4577 1.389 1_554 S
C4579 C4580 1.523 . S
C4580 C4579 1.523 . S
C4580 C4581 1.397 . S
C4580 C4585 1.364 1_554 S
C4581 H4552 0.949 . S
C4581 C4580 1.397 . S
C4581 C4582 1.335 1_554 S
C4582 H4553 0.950 . S
C4582 C4581 1.335 1_556 S
C4582 C4583 1.287 . S
C4583 C4582 1.287 . S
C4583 C4584 1.524 . S
C4583 H4586 0.999 . S
C4584 H4554 0.924 1_455 S
C4584 C4583 1.524 . S
C4584 C4585 1.415 . S
C4585 H4555 0.950 . S
C4585 C4580 1.364 1_556 S
C4585 C4584 1.415 . S
H4586 C4583 0.999 . S
H4587 C4568 0.913 . S
H4588 C4606 0.951 . S
H4589 C4608 0.951 . S
H4590 C4610 0.950 . S
H4591 C4611 0.950 . S
H4592 C4613 0.950 . S
H4593 C4616 0.950 . S
H4594 C4617 0.950 . S
H4595 C4619 0.950 . S
H4596 C4620 0.950 . S
H4597 C4621 0.951 . S
H4598 C4623 0.951 . S
H4599 C4625 0.950 . S
H4600 C4626 0.950 . S
H4601 C4628 0.950 . S
H4602 C4631 0.950 . S
H4603 C4632 0.950 . S
H4604 C4634 0.950 . S
H4605 C4635 0.950 . S
C4606 H4588 0.951 . S
C4606 C4607 1.366 . S
C4606 C4608 1.388 . S
C4607 C4606 1.366 . S
C4607 C4611 1.385 . S
C4608 H4589 0.951 . S
C4608 C4606 1.388 . S
C4608 C4609 1.366 . S
C4609 C4608 1.366 . S
C4609 C4610 1.414 . S
C4609 C4612 1.499 . S
C4610 H4590 0.950 . S
C4610 C4609 1.414 . S
C4610 C4611 1.374 . S
C4611 H4591 0.950 . S
C4611 C4607 1.385 . S
C4611 C4610 1.374 . S
C4612 C4609 1.499 . S
C4612 C4613 1.373 . S
C4612 C4614 1.389 . S
C4613 H4592 0.950 . S
C4613 C4612 1.373 . S
C4613 C4629 1.377 . S
C4614 C4612 1.389 . S
C4614 C4615 1.524 . S
C4614 C4628 1.377 . S
C4615 C4614 1.524 . S
C4615 C4616 1.397 . S
C4615 C4620 1.363 . S
C4616 H4593 0.950 . S
C4616 C4615 1.397 . S
C4616 C4617 1.334 . S
C4617 H4594 0.950 . S
C4617 C4616 1.334 . S
C4617 C4618 1.287 . S
C4618 C4617 1.287 . S
C4618 C4619 1.524 . S
C4618 H4637 0.913 . S
C4619 H4595 0.950 . S
C4619 C4618 1.524 . S
C4619 C4620 1.415 . S
C4620 H4596 0.950 . S
C4620 C4615 1.363 . S
C4620 C4619 1.415 . S
C4621 H4597 0.951 . S
C4621 C4622 1.366 . S
C4621 C4623 1.388 . S
C4622 C4621 1.366 . S
C4622 C4626 1.385 . S
C4623 H4598 0.951 . S
C4623 C4621 1.388 . S
C4623 C4624 1.366 . S
C4624 C4623 1.366 . S
C4624 C4625 1.414 . S
C4624 C4627 1.499 . S
C4625 H4599 0.950 . S
C4625 C4624 1.414 . S
C4625 C4626 1.374 . S
C4626 H4600 0.950 . S
C4626 C4622 1.385 . S
C4626 C4625 1.374 . S
C4627 C4624 1.499 . S
C4627 C4628 1.373 . S
C4627 C4629 1.389 . S
C4628 H4601 0.950 . S
C4628 C4614 1.377 . S
C4628 C4627 1.373 . S
C4629 C4613 1.377 . S
C4629 C4627 1.389 . S
C4629 C4630 1.524 . S
C4630 C4629 1.524 . S
C4630 C4631 1.397 . S
C4630 C4635 1.363 . S
C4631 H4602 0.950 . S
C4631 C4630 1.397 . S
C4631 C4632 1.334 . S
C4632 H4603 0.950 . S
C4632 C4631 1.334 . S
C4632 C4633 1.287 . S
C4633 C4632 1.287 . S
C4633 C4634 1.524 . S
C4633 H4636 0.999 . S
C4634 H4604 0.950 . S
C4634 C4633 1.524 . S
C4634 C4635 1.415 . S
C4635 H4605 0.950 . S
C4635 C4630 1.363 . S
C4635 C4634 1.415 . S
H4636 C4633 0.999 . S
H4637 C4618 0.913 . S
H4638 C4656 0.951 . S
H4639 C4658 0.951 . S
H4640 C4660 0.950 . S
H4641 C4661 0.950 . S
H4642 C4663 0.950 . S
H4643 C4666 0.950 . S
H4644 C4667 0.950 . S
H4645 C4669 0.950 . S
H4646 C4670 0.950 . S
H4647 C4671 0.951 . S
H4648 C4673 0.951 . S
H4649 C4675 0.950 . S
H4650 C4676 0.950 . S
H4651 C4678 0.950 . S
H4652 C4681 0.950 . S
H4653 C4682 0.950 . S
H4654 C4684 0.950 . S
H4655 C4685 0.950 . S
C4656 H4638 0.951 . S
C4656 C4657 1.366 . S
C4656 C4658 1.388 . S
C4657 C4656 1.366 . S
C4657 C4661 1.385 . S
C4658 H4639 0.951 . S
C4658 C4656 1.388 . S
C4658 C4659 1.366 . S
C4659 C4658 1.366 . S
C4659 C4660 1.414 . S
C4659 C4662 1.499 . S
C4660 H4640 0.950 . S
C4660 C4659 1.414 . S
C4660 C4661 1.374 . S
C4661 H4641 0.950 . S
C4661 C4657 1.385 . S
C4661 C4660 1.374 . S
C4662 C4659 1.499 . S
C4662 C4663 1.373 . S
C4662 C4664 1.389 . S
C4663 H4642 0.950 . S
C4663 C4662 1.373 . S
C4663 C4679 1.377 . S
C4664 C4662 1.389 . S
C4664 C4665 1.524 . S
C4664 C4678 1.377 . S
C4665 C4664 1.524 . S
C4665 C4666 1.397 . S
C4665 C4670 1.363 . S
C4666 H4643 0.950 . S
C4666 C4665 1.397 . S
C4666 C4667 1.334 . S
C4667 H4644 0.950 . S
C4667 C4666 1.334 . S
C4667 C4668 1.287 . S
C4668 C4667 1.287 . S
C4668 C4669 1.524 . S
C4668 H4687 0.913 . S
C4669 H4645 0.950 . S
C4669 C4668 1.524 . S
C4669 C4670 1.415 . S
C4670 H4646 0.950 . S
C4670 C4665 1.363 . S
C4670 C4669 1.415 . S
C4671 H4647 0.951 . S
C4671 C4672 1.366 . S
C4671 C4673 1.388 . S
C4672 C4671 1.366 . S
C4672 C4676 1.385 . S
C4673 H4648 0.951 . S
C4673 C4671 1.388 . S
C4673 C4674 1.366 . S
C4674 C4673 1.366 . S
C4674 C4675 1.414 . S
C4674 C4677 1.499 . S
C4675 H4649 0.950 . S
C4675 C4674 1.414 . S
C4675 C4676 1.374 . S
C4676 H4650 0.950 . S
C4676 C4672 1.385 . S
C4676 C4675 1.374 . S
C4677 C4674 1.499 . S
C4677 C4678 1.373 . S
C4677 C4679 1.389 . S
C4678 H4651 0.950 . S
C4678 C4664 1.377 . S
C4678 C4677 1.373 . S
C4679 C4663 1.377 . S
C4679 C4677 1.389 . S
C4679 C4680 1.524 . S
C4680 C4679 1.524 . S
C4680 C4681 1.397 . S
C4680 C4685 1.363 . S
C4681 H4652 0.950 . S
C4681 C4680 1.397 . S
C4681 C4682 1.334 . S
C4682 H4653 0.950 . S
C4682 C4681 1.334 . S
C4682 C4683 1.287 . S
C4683 C4682 1.287 . S
C4683 C4684 1.524 . S
C4683 H4686 0.999 . S
C4684 H4654 0.950 . S
C4684 C4683 1.524 . S
C4684 C4685 1.415 . S
C4685 H4655 0.950 . S
C4685 C4680 1.363 . S
C4685 C4684 1.415 . S
H4686 C4683 0.999 . S
H4687 C4668 0.913 . S
H4688 C4706 0.951 . S
H4689 C4708 0.951 . S
H4690 C4710 0.950 . S
H4691 C4711 0.950 . S
H4692 C4713 0.950 . S
H4693 C4716 0.950 . S
H4694 C4717 0.950 . S
H4695 C4719 0.950 . S
H4696 C4720 0.950 . S
H4697 C4721 0.951 . S
H4698 C4723 0.951 . S
H4699 C4725 0.950 . S
H4700 C4726 0.950 . S
H4701 C4728 0.950 . S
H4702 C4731 0.950 . S
H4703 C4732 0.950 . S
H4704 C4734 0.950 . S
H4705 C4735 0.950 . S
C4706 H4688 0.951 . S
C4706 C4707 1.366 . S
C4706 C4708 1.388 . S
C4707 C4706 1.366 . S
C4707 C4711 1.385 . S
C4708 H4689 0.951 . S
C4708 C4706 1.388 . S
C4708 C4709 1.366 . S
C4709 C4708 1.366 . S
C4709 C4710 1.414 . S
C4709 C4712 1.499 . S
C4710 H4690 0.950 . S
C4710 C4709 1.414 . S
C4710 C4711 1.374 . S
C4711 H4691 0.950 . S
C4711 C4707 1.385 . S
C4711 C4710 1.374 . S
C4712 C4709 1.499 . S
C4712 C4713 1.373 . S
C4712 C4714 1.389 . S
C4713 H4692 0.950 . S
C4713 C4712 1.373 . S
C4713 C4729 1.377 . S
C4714 C4712 1.389 . S
C4714 C4715 1.524 . S
C4714 C4728 1.377 . S
C4715 C4714 1.524 . S
C4715 C4716 1.397 . S
C4715 C4720 1.363 . S
C4716 H4693 0.950 . S
C4716 C4715 1.397 . S
C4716 C4717 1.334 . S
C4717 H4694 0.950 . S
C4717 C4716 1.334 . S
C4717 C4718 1.287 . S
C4718 C4717 1.287 . S
C4718 C4719 1.524 . S
C4718 H4737 0.913 . S
C4719 H4695 0.950 . S
C4719 C4718 1.524 . S
C4719 C4720 1.415 . S
C4720 H4696 0.950 . S
C4720 C4715 1.363 . S
C4720 C4719 1.415 . S
C4721 H4697 0.951 . S
C4721 C4722 1.366 . S
C4721 C4723 1.388 . S
C4722 C4721 1.366 . S
C4722 C4726 1.385 . S
C4723 H4698 0.951 . S
C4723 C4721 1.388 . S
C4723 C4724 1.366 . S
C4724 C4723 1.366 . S
C4724 C4725 1.414 . S
C4724 C4727 1.499 . S
C4725 H4699 0.950 . S
C4725 C4724 1.414 . S
C4725 C4726 1.374 . S
C4726 H4700 0.950 . S
C4726 C4722 1.385 . S
C4726 C4725 1.374 . S
C4727 C4724 1.499 . S
C4727 C4728 1.373 . S
C4727 C4729 1.389 . S
C4728 H4701 0.950 . S
C4728 C4714 1.377 . S
C4728 C4727 1.373 . S
C4729 C4713 1.377 . S
C4729 C4727 1.389 . S
C4729 C4730 1.524 . S
C4730 C4729 1.524 . S
C4730 C4731 1.397 . S
C4730 C4735 1.363 . S
C4731 H4702 0.950 . S
C4731 C4730 1.397 . S
C4731 C4732 1.334 . S
C4732 H4703 0.950 . S
C4732 C4731 1.334 . S
C4732 C4733 1.287 . S
C4733 C4732 1.287 . S
C4733 C4734 1.524 . S
C4733 H4736 0.999 . S
C4734 H4704 0.950 . S
C4734 C4733 1.524 . S
C4734 C4735 1.415 . S
C4735 H4705 0.950 . S
C4735 C4730 1.363 . S
C4735 C4734 1.415 . S
H4736 C4733 0.999 . S
H4737 C4718 0.913 . S
H4738 C4756 0.951 . S
H4739 C4758 0.951 . S
H4740 C4760 0.950 . S
H4741 C4761 0.950 . S
H4742 C4763 0.950 . S
H4743 C4766 0.950 . S
H4744 C4767 0.950 1_556 S
H4745 C4769 0.950 . S
H4746 C4770 0.950 . S
H4747 C4771 0.951 . S
H4748 C4773 0.951 . S
H4749 C4775 0.950 . S
H4750 C4776 0.950 . S
H4751 C4778 0.950 . S
H4752 C4781 0.950 . S
H4753 C4782 0.950 . S
H4754 C4784 0.950 . S
H4755 C4785 0.950 . S
C4756 H4738 0.951 . S
C4756 C4757 1.366 . S
C4756 C4758 1.388 . S
C4757 C4756 1.366 . S
C4757 C4761 1.385 . S
C4758 H4739 0.951 . S
C4758 C4756 1.388 . S
C4758 C4759 1.366 . S
C4759 C4758 1.366 . S
C4759 C4760 1.414 . S
C4759 C4762 1.499 . S
C4760 H4740 0.950 . S
C4760 C4759 1.414 . S
C4760 C4761 1.374 . S
C4761 H4741 0.950 . S
C4761 C4757 1.385 . S
C4761 C4760 1.374 . S
C4762 C4759 1.499 . S
C4762 C4763 1.373 . S
C4762 C4764 1.389 . S
C4763 H4742 0.950 . S
C4763 C4762 1.373 . S
C4763 C4779 1.377 . S
C4764 C4762 1.389 . S
C4764 C4765 1.524 . S
C4764 C4778 1.377 . S
C4765 C4764 1.524 . S
C4765 C4766 1.397 . S
C4765 C4770 1.363 . S
C4766 H4743 0.950 . S
C4766 C4765 1.397 . S
C4766 C4767 1.334 . S
C4767 H4744 0.950 1_554 S
C4767 C4766 1.334 . S
C4767 C4768 1.287 . S
C4768 C4767 1.287 . S
C4768 C4769 1.524 . S
C4768 H4787 0.913 . S
C4769 H4745 0.950 . S
C4769 C4768 1.524 . S
C4769 C4770 1.415 . S
C4770 H4746 0.950 . S
C4770 C4765 1.363 . S
C4770 C4769 1.415 . S
C4771 H4747 0.951 . S
C4771 C4772 1.366 . S
C4771 C4773 1.388 . S
C4772 C4771 1.366 . S
C4772 C4776 1.385 . S
C4773 H4748 0.951 . S
C4773 C4771 1.388 . S
C4773 C4774 1.366 . S
C4774 C4773 1.366 . S
C4774 C4775 1.414 . S
C4774 C4777 1.499 . S
C4775 H4749 0.950 . S
C4775 C4774 1.414 . S
C4775 C4776 1.374 . S
C4776 H4750 0.950 . S
C4776 C4772 1.385 . S
C4776 C4775 1.374 . S
C4777 C4774 1.499 . S
C4777 C4778 1.373 . S
C4777 C4779 1.389 . S
C4778 H4751 0.950 . S
C4778 C4764 1.377 . S
C4778 C4777 1.373 . S
C4779 C4763 1.377 . S
C4779 C4777 1.389 . S
C4779 C4780 1.524 . S
C4780 C4779 1.524 . S
C4780 C4781 1.397 . S
C4780 C4785 1.363 . S
C4781 H4752 0.950 . S
C4781 C4780 1.397 . S
C4781 C4782 1.334 . S
C4782 H4753 0.950 . S
C4782 C4781 1.334 . S
C4782 C4783 1.287 . S
C4783 C4782 1.287 . S
C4783 C4784 1.524 . S
C4783 H4786 0.999 . S
C4784 H4754 0.950 . S
C4784 C4783 1.524 . S
C4784 C4785 1.415 . S
C4785 H4755 0.950 . S
C4785 C4780 1.363 . S
C4785 C4784 1.415 . S
H4786 C4783 0.999 . S
H4787 C4768 0.913 . S
H4788 C4806 0.951 . S
H4789 C4808 0.951 . S
H4790 C4810 0.950 . S
H4791 C4811 0.950 . S
H4792 C4813 0.950 . S
H4793 C4816 0.950 . S
H4794 C4817 0.950 . S
H4795 C4819 0.950 . S
H4796 C4820 0.950 . S
H4797 C4821 0.951 . S
H4798 C4823 0.951 . S
H4799 C4825 0.950 . S
H4800 C4826 0.950 . S
H4801 C4828 0.950 . S
H4802 C4831 0.950 . S
H4803 C4832 0.950 . S
H4804 C4834 0.950 . S
H4805 C4835 0.950 . S
C4806 H4788 0.951 . S
C4806 C4807 1.366 . S
C4806 C4808 1.388 . S
C4807 C4806 1.366 . S
C4807 C4811 1.385 . S
C4808 H4789 0.951 . S
C4808 C4806 1.388 . S
C4808 C4809 1.366 . S
C4809 C4808 1.366 . S
C4809 C4810 1.414 . S
C4809 C4812 1.499 . S
C4810 H4790 0.950 . S
C4810 C4809 1.414 . S
C4810 C4811 1.374 . S
C4811 H4791 0.950 . S
C4811 C4807 1.385 . S
C4811 C4810 1.374 . S
C4812 C4809 1.499 . S
C4812 C4813 1.373 . S
C4812 C4814 1.389 . S
C4813 H4792 0.950 . S
C4813 C4812 1.373 . S
C4813 C4829 1.377 . S
C4814 C4812 1.389 . S
C4814 C4815 1.524 . S
C4814 C4828 1.377 . S
C4815 C4814 1.524 . S
C4815 C4816 1.397 . S
C4815 C4820 1.363 . S
C4816 H4793 0.950 . S
C4816 C4815 1.397 . S
C4816 C4817 1.334 . S
C4817 H4794 0.950 . S
C4817 C4816 1.334 . S
C4817 C4818 1.287 . S
C4818 C4817 1.287 . S
C4818 C4819 1.524 . S
C4818 H4837 0.913 . S
C4819 H4795 0.950 . S
C4819 C4818 1.524 . S
C4819 C4820 1.415 . S
C4820 H4796 0.950 . S
C4820 C4815 1.363 . S
C4820 C4819 1.415 . S
C4821 H4797 0.951 . S
C4821 C4822 1.366 . S
C4821 C4823 1.388 . S
C4822 C4821 1.366 . S
C4822 C4826 1.385 . S
C4823 H4798 0.951 . S
C4823 C4821 1.388 . S
C4823 C4824 1.366 . S
C4824 C4823 1.366 . S
C4824 C4825 1.414 . S
C4824 C4827 1.499 . S
C4825 H4799 0.950 . S
C4825 C4824 1.414 . S
C4825 C4826 1.374 . S
C4826 H4800 0.950 . S
C4826 C4822 1.385 . S
C4826 C4825 1.374 . S
C4827 C4824 1.499 . S
C4827 C4828 1.373 . S
C4827 C4829 1.389 . S
C4828 H4801 0.950 . S
C4828 C4814 1.377 . S
C4828 C4827 1.373 . S
C4829 C4813 1.377 . S
C4829 C4827 1.389 . S
C4829 C4830 1.524 . S
C4830 C4829 1.524 . S
C4830 C4831 1.397 . S
C4830 C4835 1.363 . S
C4831 H4802 0.950 . S
C4831 C4830 1.397 . S
C4831 C4832 1.334 . S
C4832 H4803 0.950 . S
C4832 C4831 1.334 . S
C4832 C4833 1.287 . S
C4833 C4832 1.287 . S
C4833 C4834 1.524 . S
C4833 H4836 0.999 . S
C4834 H4804 0.950 . S
C4834 C4833 1.524 . S
C4834 C4835 1.415 . S
C4835 H4805 0.950 . S
C4835 C4830 1.363 . S
C4835 C4834 1.415 . S
H4836 C4833 0.999 . S
H4837 C4818 0.913 . S
H4838 C4856 0.951 . S
H4839 C4858 0.951 . S
H4840 C4860 0.950 . S
H4841 C4861 0.950 . S
H4842 C4863 0.950 . S
H4843 C4866 0.950 . S
H4844 C4867 0.950 . S
H4845 C4869 0.950 . S
H4846 C4870 0.950 . S
H4847 C4871 0.951 . S
H4848 C4873 0.951 . S
H4849 C4875 0.950 . S
H4850 C4876 0.950 . S
H4851 C4878 0.950 . S
H4852 C4881 0.950 . S
H4853 C4882 0.950 . S
H4854 C4884 0.950 . S
H4855 C4885 0.950 . S
C4856 H4838 0.951 . S
C4856 C4857 1.366 . S
C4856 C4858 1.388 . S
C4857 C4856 1.366 . S
C4857 C4861 1.385 . S
C4858 H4839 0.951 . S
C4858 C4856 1.388 . S
C4858 C4859 1.366 . S
C4859 C4858 1.366 . S
C4859 C4860 1.414 . S
C4859 C4862 1.499 . S
C4860 H4840 0.950 . S
C4860 C4859 1.414 . S
C4860 C4861 1.374 . S
C4861 H4841 0.950 . S
C4861 C4857 1.385 . S
C4861 C4860 1.374 . S
C4862 C4859 1.499 . S
C4862 C4863 1.373 . S
C4862 C4864 1.389 . S
C4863 H4842 0.950 . S
C4863 C4862 1.373 . S
C4863 C4879 1.377 . S
C4864 C4862 1.389 . S
C4864 C4865 1.524 . S
C4864 C4878 1.377 . S
C4865 C4864 1.524 . S
C4865 C4866 1.397 . S
C4865 C4870 1.363 . S
C4866 H4843 0.950 . S
C4866 C4865 1.397 . S
C4866 C4867 1.334 . S
C4867 H4844 0.950 . S
C4867 C4866 1.334 . S
C4867 C4868 1.287 . S
C4868 C4867 1.287 . S
C4868 C4869 1.524 . S
C4868 H4887 0.913 . S
C4869 H4845 0.950 . S
C4869 C4868 1.524 . S
C4869 C4870 1.415 . S
C4870 H4846 0.950 . S
C4870 C4865 1.363 . S
C4870 C4869 1.415 . S
C4871 H4847 0.951 . S
C4871 C4872 1.366 . S
C4871 C4873 1.388 . S
C4872 C4871 1.366 . S
C4872 C4876 1.385 . S
C4873 H4848 0.951 . S
C4873 C4871 1.388 . S
C4873 C4874 1.366 . S
C4874 C4873 1.366 . S
C4874 C4875 1.414 . S
C4874 C4877 1.499 . S
C4875 H4849 0.950 . S
C4875 C4874 1.414 . S
C4875 C4876 1.374 . S
C4876 H4850 0.950 . S
C4876 C4872 1.385 . S
C4876 C4875 1.374 . S
C4877 C4874 1.499 . S
C4877 C4878 1.373 . S
C4877 C4879 1.389 . S
C4878 H4851 0.950 . S
C4878 C4864 1.377 . S
C4878 C4877 1.373 . S
C4879 C4863 1.377 . S
C4879 C4877 1.389 . S
C4879 C4880 1.524 . S
C4880 C4879 1.524 . S
C4880 C4881 1.397 . S
C4880 C4885 1.363 . S
C4881 H4852 0.950 . S
C4881 C4880 1.397 . S
C4881 C4882 1.334 . S
C4882 H4853 0.950 . S
C4882 C4881 1.334 . S
C4882 C4883 1.287 . S
C4883 C4882 1.287 . S
C4883 C4884 1.524 . S
C4883 H4886 0.999 . S
C4884 H4854 0.950 . S
C4884 C4883 1.524 . S
C4884 C4885 1.415 . S
C4885 H4855 0.950 . S
C4885 C4880 1.363 . S
C4885 C4884 1.415 . S
H4886 C4883 0.999 . S
H4887 C4868 0.913 . S
H4888 C4906 0.951 . S
H4889 C4908 0.951 . S
H4890 C4910 0.950 . S
H4891 C4911 0.950 . S
H4892 C4913 0.950 . S
H4893 C4916 0.950 . S
H4894 C4917 0.950 . S
H4895 C4919 0.950 . S
H4896 C4920 0.950 . S
H4897 C4921 0.951 . S
H4898 C4923 0.951 . S
H4899 C4925 0.950 . S
H4900 C4926 0.950 . S
H4901 C4928 0.950 . S
H4902 C4931 0.950 . S
H4903 C4932 0.950 . S
H4904 C4934 0.950 . S
H4905 C4935 0.950 . S
C4906 H4888 0.951 . S
C4906 C4907 1.366 . S
C4906 C4908 1.388 . S
C4907 C4906 1.366 . S
C4907 C4911 1.385 . S
C4908 H4889 0.951 . S
C4908 C4906 1.388 . S
C4908 C4909 1.366 . S
C4909 C4908 1.366 . S
C4909 C4910 1.414 . S
C4909 C4912 1.499 . S
C4910 H4890 0.950 . S
C4910 C4909 1.414 . S
C4910 C4911 1.374 . S
C4911 H4891 0.950 . S
C4911 C4907 1.385 . S
C4911 C4910 1.374 . S
C4912 C4909 1.499 . S
C4912 C4913 1.373 . S
C4912 C4914 1.389 . S
C4913 H4892 0.950 . S
C4913 C4912 1.373 . S
C4913 C4929 1.377 . S
C4914 C4912 1.389 . S
C4914 C4915 1.524 . S
C4914 C4928 1.377 . S
C4915 C4914 1.524 . S
C4915 C4916 1.397 . S
C4915 C4920 1.363 . S
C4916 H4893 0.950 . S
C4916 C4915 1.397 . S
C4916 C4917 1.334 . S
C4917 H4894 0.950 . S
C4917 C4916 1.334 . S
C4917 C4918 1.287 . S
C4918 C4917 1.287 . S
C4918 C4919 1.524 . S
C4918 H4937 0.913 . S
C4919 H4895 0.950 . S
C4919 C4918 1.524 . S
C4919 C4920 1.415 . S
C4920 H4896 0.950 . S
C4920 C4915 1.363 . S
C4920 C4919 1.415 . S
C4921 H4897 0.951 . S
C4921 C4922 1.366 . S
C4921 C4923 1.388 . S
C4922 C4921 1.366 . S
C4922 C4926 1.385 . S
C4923 H4898 0.951 . S
C4923 C4921 1.388 . S
C4923 C4924 1.366 . S
C4924 C4923 1.366 . S
C4924 C4925 1.414 . S
C4924 C4927 1.499 . S
C4925 H4899 0.950 . S
C4925 C4924 1.414 . S
C4925 C4926 1.374 . S
C4926 H4900 0.950 . S
C4926 C4922 1.385 . S
C4926 C4925 1.374 . S
C4927 C4924 1.499 . S
C4927 C4928 1.373 . S
C4927 C4929 1.389 . S
C4928 H4901 0.950 . S
C4928 C4914 1.377 . S
C4928 C4927 1.373 . S
C4929 C4913 1.377 . S
C4929 C4927 1.389 . S
C4929 C4930 1.524 . S
C4930 C4929 1.524 . S
C4930 C4931 1.397 . S
C4930 C4935 1.363 . S
C4931 H4902 0.950 . S
C4931 C4930 1.397 . S
C4931 C4932 1.334 . S
C4932 H4903 0.950 . S
C4932 C4931 1.334 . S
C4932 C4933 1.287 . S
C4933 C4932 1.287 . S
C4933 C4934 1.524 . S
C4933 H4936 0.999 . S
C4934 H4904 0.950 . S
C4934 C4933 1.524 . S
C4934 C4935 1.415 . S
C4935 H4905 0.950 . S
C4935 C4930 1.363 . S
C4935 C4934 1.415 . S
H4936 C4933 0.999 . S
H4937 C4918 0.913 . S
H4938 C4956 0.951 . S
H4939 C4958 0.951 . S
H4940 C4960 0.950 . S
H4941 C4961 0.950 . S
H4942 C4963 0.950 . S
H4943 C4966 0.950 . S
H4944 C4967 0.950 . S
H4945 C4969 0.950 . S
H4946 C4970 0.950 . S
H4947 C4971 0.951 . S
H4948 C4973 0.951 . S
H4949 C4975 0.950 . S
H4950 C4976 0.950 . S
H4951 C4978 0.950 . S
H4952 C4981 0.950 . S
H4953 C4982 0.950 . S
H4954 C4984 0.950 . S
H4955 C4985 0.950 . S
C4956 H4938 0.951 . S
C4956 C4957 1.366 . S
C4956 C4958 1.388 . S
C4957 C4956 1.366 . S
C4957 C4961 1.385 . S
C4958 H4939 0.951 . S
C4958 C4956 1.388 . S
C4958 C4959 1.366 . S
C4959 C4958 1.366 . S
C4959 C4960 1.414 . S
C4959 C4962 1.499 . S
C4960 H4940 0.950 . S
C4960 C4959 1.414 . S
C4960 C4961 1.374 . S
C4961 H4941 0.950 . S
C4961 C4957 1.385 . S
C4961 C4960 1.374 . S
C4962 C4959 1.499 . S
C4962 C4963 1.373 . S
C4962 C4964 1.389 . S
C4963 H4942 0.950 . S
C4963 C4962 1.373 . S
C4963 C4979 1.377 . S
C4964 C4962 1.389 . S
C4964 C4965 1.524 . S
C4964 C4978 1.377 . S
C4965 C4964 1.524 . S
C4965 C4966 1.397 . S
C4965 C4970 1.363 . S
C4966 H4943 0.950 . S
C4966 C4965 1.397 . S
C4966 C4967 1.334 . S
C4967 H4944 0.950 . S
C4967 C4966 1.334 . S
C4967 C4968 1.287 . S
C4968 C4967 1.287 . S
C4968 C4969 1.524 . S
C4968 H4987 0.913 . S
C4969 H4945 0.950 . S
C4969 C4968 1.524 . S
C4969 C4970 1.415 . S
C4970 H4946 0.950 . S
C4970 C4965 1.363 . S
C4970 C4969 1.415 . S
C4971 H4947 0.951 . S
C4971 C4972 1.366 . S
C4971 C4973 1.388 . S
C4972 C4971 1.366 . S
C4972 C4976 1.385 . S
C4973 H4948 0.951 . S
C4973 C4971 1.388 . S
C4973 C4974 1.366 . S
C4974 C4973 1.366 . S
C4974 C4975 1.414 . S
C4974 C4977 1.499 . S
C4975 H4949 0.950 . S
C4975 C4974 1.414 . S
C4975 C4976 1.374 . S
C4976 H4950 0.950 . S
C4976 C4972 1.385 . S
C4976 C4975 1.374 . S
C4977 C4974 1.499 . S
C4977 C4978 1.373 . S
C4977 C4979 1.389 . S
C4978 H4951 0.950 . S
C4978 C4964 1.377 . S
C4978 C4977 1.373 . S
C4979 C4963 1.377 . S
C4979 C4977 1.389 . S
C4979 C4980 1.524 . S
C4980 C4979 1.524 . S
C4980 C4981 1.397 . S
C4980 C4985 1.363 . S
C4981 H4952 0.950 . S
C4981 C4980 1.397 . S
C4981 C4982 1.334 . S
C4982 H4953 0.950 . S
C4982 C4981 1.334 . S
C4982 C4983 1.287 . S
C4983 C4982 1.287 . S
C4983 C4984 1.524 1_556 S
C4983 H4986 0.999 1_556 S
C4984 H4954 0.950 . S
C4984 C4983 1.524 1_554 S
C4984 C4985 1.415 1_554 S
C4985 H4955 0.950 . S
C4985 C4980 1.363 . S
C4985 C4984 1.415 1_556 S
H4986 C4983 0.999 1_554 S
H4987 C4968 0.913 . S
H4988 C5006 0.951 . S
H4989 C5008 0.951 . S
H4990 C5010 0.950 . S
H4991 C5011 0.950 . S
H4992 C5013 0.950 . S
H4993 C5016 0.950 . S
H4994 C5017 0.950 . S
H4995 C5019 0.950 . S
H4996 C5020 0.950 . S
H4997 C5021 0.951 . S
H4998 C5023 0.951 . S
H4999 C5025 0.950 . S
H5000 C5026 0.950 . S
H5001 C5028 0.950 . S
H5002 C5031 0.950 . S
H5003 C5032 0.950 . S
H5004 C5034 0.950 . S
H5005 C5035 0.950 . S
C5006 H4988 0.951 . S
C5006 C5007 1.366 . S
C5006 C5008 1.388 . S
C5007 C5006 1.366 . S
C5007 C5011 1.385 . S
C5008 H4989 0.951 . S
C5008 C5006 1.388 . S
C5008 C5009 1.366 . S
C5009 C5008 1.366 . S
C5009 C5010 1.414 . S
C5009 C5012 1.499 . S
C5010 H4990 0.950 . S
C5010 C5009 1.414 . S
C5010 C5011 1.374 . S
C5011 H4991 0.950 . S
C5011 C5007 1.385 . S
C5011 C5010 1.374 . S
C5012 C5009 1.499 . S
C5012 C5013 1.373 . S
C5012 C5014 1.389 . S
C5013 H4992 0.950 . S
C5013 C5012 1.373 . S
C5013 C5029 1.377 . S
C5014 C5012 1.389 . S
C5014 C5015 1.524 . S
C5014 C5028 1.377 . S
C5015 C5014 1.524 . S
C5015 C5016 1.397 . S
C5015 C5020 1.363 . S
C5016 H4993 0.950 . S
C5016 C5015 1.397 . S
C5016 C5017 1.334 . S
C5017 H4994 0.950 . S
C5017 C5016 1.334 . S
C5017 C5018 1.287 . S
C5018 C5017 1.287 . S
C5018 C5019 1.524 . S
C5018 H5037 0.913 . S
C5019 H4995 0.950 . S
C5019 C5018 1.524 . S
C5019 C5020 1.415 . S
C5020 H4996 0.950 . S
C5020 C5015 1.363 . S
C5020 C5019 1.415 . S
C5021 H4997 0.951 . S
C5021 C5022 1.366 . S
C5021 C5023 1.388 . S
C5022 C5021 1.366 . S
C5022 C5026 1.385 . S
C5023 H4998 0.951 . S
C5023 C5021 1.388 . S
C5023 C5024 1.366 . S
C5024 C5023 1.366 . S
C5024 C5025 1.414 . S
C5024 C5027 1.499 . S
C5025 H4999 0.950 . S
C5025 C5024 1.414 . S
C5025 C5026 1.374 . S
C5026 H5000 0.950 . S
C5026 C5022 1.385 . S
C5026 C5025 1.374 . S
C5027 C5024 1.499 . S
C5027 C5028 1.373 . S
C5027 C5029 1.389 . S
C5028 H5001 0.950 . S
C5028 C5014 1.377 . S
C5028 C5027 1.373 . S
C5029 C5013 1.377 . S
C5029 C5027 1.389 . S
C5029 C5030 1.524 . S
C5030 C5029 1.524 . S
C5030 C5031 1.397 . S
C5030 C5035 1.363 . S
C5031 H5002 0.950 . S
C5031 C5030 1.397 . S
C5031 C5032 1.334 . S
C5032 H5003 0.950 . S
C5032 C5031 1.334 . S
C5032 C5033 1.287 . S
C5033 C5032 1.287 . S
C5033 C5034 1.524 . S
C5033 H5036 0.999 . S
C5034 H5004 0.950 . S
C5034 C5033 1.524 . S
C5034 C5035 1.415 . S
C5035 H5005 0.950 . S
C5035 C5030 1.363 . S
C5035 C5034 1.415 . S
H5036 C5033 0.999 . S
H5037 C5018 0.913 . S
H5038 C5056 0.951 . S
H5039 C5058 0.951 . S
H5040 C5060 0.950 . S
H5041 C5061 0.950 . S
H5042 C5063 0.950 . S
H5043 C5066 0.950 . S
H5044 C5067 0.950 . S
H5045 C5069 0.950 . S
H5046 C5070 0.950 . S
H5047 C5071 0.951 . S
H5048 C5073 0.951 . S
H5049 C5075 0.950 . S
H5050 C5076 0.950 . S
H5051 C5078 0.950 . S
H5052 C5081 0.950 . S
H5053 C5082 0.950 . S
H5054 C5084 0.950 . S
H5055 C5085 0.950 . S
C5056 H5038 0.951 . S
C5056 C5057 1.366 . S
C5056 C5058 1.388 . S
C5057 C5056 1.366 . S
C5057 C5061 1.385 . S
C5058 H5039 0.951 . S
C5058 C5056 1.388 . S
C5058 C5059 1.366 . S
C5059 C5058 1.366 . S
C5059 C5060 1.414 . S
C5059 C5062 1.499 . S
C5060 H5040 0.950 . S
C5060 C5059 1.414 . S
C5060 C5061 1.374 . S
C5061 H5041 0.950 . S
C5061 C5057 1.385 . S
C5061 C5060 1.374 . S
C5062 C5059 1.499 . S
C5062 C5063 1.373 . S
C5062 C5064 1.389 . S
C5063 H5042 0.950 . S
C5063 C5062 1.373 . S
C5063 C5079 1.377 . S
C5064 C5062 1.389 . S
C5064 C5065 1.524 . S
C5064 C5078 1.377 . S
C5065 C5064 1.524 . S
C5065 C5066 1.397 . S
C5065 C5070 1.363 . S
C5066 H5043 0.950 . S
C5066 C5065 1.397 . S
C5066 C5067 1.334 . S
C5067 H5044 0.950 . S
C5067 C5066 1.334 . S
C5067 C5068 1.287 . S
C5068 C5067 1.287 . S
C5068 C5069 1.524 . S
C5068 H5087 0.913 . S
C5069 H5045 0.950 . S
C5069 C5068 1.524 . S
C5069 C5070 1.415 . S
C5070 H5046 0.950 . S
C5070 C5065 1.363 . S
C5070 C5069 1.415 . S
C5071 H5047 0.951 . S
C5071 C5072 1.366 . S
C5071 C5073 1.388 . S
C5072 C5071 1.366 . S
C5072 C5076 1.385 . S
C5073 H5048 0.951 . S
C5073 C5071 1.388 . S
C5073 C5074 1.366 . S
C5074 C5073 1.366 . S
C5074 C5075 1.414 . S
C5074 C5077 1.499 . S
C5075 H5049 0.950 . S
C5075 C5074 1.414 . S
C5075 C5076 1.374 . S
C5076 H5050 0.950 . S
C5076 C5072 1.385 . S
C5076 C5075 1.374 . S
C5077 C5074 1.499 . S
C5077 C5078 1.373 . S
C5077 C5079 1.389 . S
C5078 H5051 0.950 . S
C5078 C5064 1.377 . S
C5078 C5077 1.373 . S
C5079 C5063 1.377 . S
C5079 C5077 1.389 . S
C5079 C5080 1.524 . S
C5080 C5079 1.524 . S
C5080 C5081 1.397 . S
C5080 C5085 1.363 . S
C5081 H5052 0.950 . S
C5081 C5080 1.397 . S
C5081 C5082 1.334 . S
C5082 H5053 0.950 . S
C5082 C5081 1.334 . S
C5082 C5083 1.287 . S
C5083 C5082 1.287 . S
C5083 C5084 1.524 . S
C5083 H5086 0.999 . S
C5084 H5054 0.950 . S
C5084 C5083 1.524 . S
C5084 C5085 1.415 . S
C5085 H5055 0.950 . S
C5085 C5080 1.363 . S
C5085 C5084 1.415 . S
H5086 C5083 0.999 . S
H5087 C5068 0.913 . S
H5088 C5106 0.951 . S
H5089 C5108 0.951 . S
H5090 C5110 0.950 . S
H5091 C5111 0.950 . S
H5092 C5113 0.950 . S
H5093 C5116 0.950 . S
H5094 C5117 0.950 . S
H5095 C5119 0.950 . S
H5096 C5120 0.950 . S
H5097 C5121 0.951 . S
H5098 C5123 0.951 . S
H5099 C5125 0.950 . S
H5100 C5126 0.950 . S
H5101 C5128 0.950 . S
H5102 C5131 0.950 . S
H5103 C5132 0.950 . S
H5104 C5134 0.950 . S
H5105 C5135 0.950 . S
C5106 H5088 0.951 . S
C5106 C5107 1.366 . S
C5106 C5108 1.388 . S
C5107 C5106 1.366 . S
C5107 C5111 1.385 . S
C5108 H5089 0.951 . S
C5108 C5106 1.388 . S
C5108 C5109 1.366 . S
C5109 C5108 1.366 . S
C5109 C5110 1.414 . S
C5109 C5112 1.499 . S
C5110 H5090 0.950 . S
C5110 C5109 1.414 . S
C5110 C5111 1.374 . S
C5111 H5091 0.950 . S
C5111 C5107 1.385 . S
C5111 C5110 1.374 . S
C5112 C5109 1.499 . S
C5112 C5113 1.373 . S
C5112 C5114 1.389 . S
C5113 H5092 0.950 . S
C5113 C5112 1.373 . S
C5113 C5129 1.377 . S
C5114 C5112 1.389 . S
C5114 C5115 1.524 . S
C5114 C5128 1.377 . S
C5115 C5114 1.524 . S
C5115 C5116 1.397 . S
C5115 C5120 1.363 . S
C5116 H5093 0.950 . S
C5116 C5115 1.397 . S
C5116 C5117 1.334 . S
C5117 H5094 0.950 . S
C5117 C5116 1.334 . S
C5117 C5118 1.287 . S
C5118 C5117 1.287 . S
C5118 C5119 1.524 . S
C5118 H5137 0.913 . S
C5119 H5095 0.950 . S
C5119 C5118 1.524 . S
C5119 C5120 1.415 . S
C5120 H5096 0.950 . S
C5120 C5115 1.363 . S
C5120 C5119 1.415 . S
C5121 H5097 0.951 . S
C5121 C5122 1.366 . S
C5121 C5123 1.388 . S
C5122 C5121 1.366 . S
C5122 C5126 1.385 . S
C5123 H5098 0.951 . S
C5123 C5121 1.388 . S
C5123 C5124 1.366 . S
C5124 C5123 1.366 . S
C5124 C5125 1.414 . S
C5124 C5127 1.499 . S
C5125 H5099 0.950 . S
C5125 C5124 1.414 . S
C5125 C5126 1.374 . S
C5126 H5100 0.950 . S
C5126 C5122 1.385 . S
C5126 C5125 1.374 . S
C5127 C5124 1.499 . S
C5127 C5128 1.373 . S
C5127 C5129 1.389 . S
C5128 H5101 0.950 . S
C5128 C5114 1.377 . S
C5128 C5127 1.373 . S
C5129 C5113 1.377 . S
C5129 C5127 1.389 . S
C5129 C5130 1.524 . S
C5130 C5129 1.524 . S
C5130 C5131 1.397 . S
C5130 C5135 1.363 . S
C5131 H5102 0.950 . S
C5131 C5130 1.397 . S
C5131 C5132 1.334 . S
C5132 H5103 0.950 . S
C5132 C5131 1.334 . S
C5132 C5133 1.287 . S
C5133 C5132 1.287 . S
C5133 C5134 1.524 . S
C5133 H5136 0.999 . S
C5134 H5104 0.950 . S
C5134 C5133 1.524 . S
C5134 C5135 1.415 . S
C5135 H5105 0.950 . S
C5135 C5130 1.363 . S
C5135 C5134 1.415 . S
H5136 C5133 0.999 . S
H5137 C5118 0.913 . S
H5138 C5156 0.951 . S
H5139 C5158 0.951 . S
H5140 C5160 0.950 . S
H5141 C5161 0.950 . S
H5142 C5163 0.950 . S
H5143 C5166 0.950 . S
H5144 C5167 0.950 . S
H5145 C5169 0.950 . S
H5146 C5170 0.950 . S
H5147 C5171 0.951 . S
H5148 C5173 0.951 . S
H5149 C5175 0.950 . S
H5150 C5176 0.950 . S
H5151 C5178 0.950 . S
H5152 C5181 0.950 . S
H5153 C5182 0.950 . S
H5154 C5184 0.950 . S
H5155 C5185 0.950 . S
C5156 H5138 0.951 . S
C5156 C5157 1.366 . S
C5156 C5158 1.388 . S
C5157 C5156 1.366 . S
C5157 C5161 1.385 . S
C5158 H5139 0.951 . S
C5158 C5156 1.388 . S
C5158 C5159 1.366 . S
C5159 C5158 1.366 . S
C5159 C5160 1.414 . S
C5159 C5162 1.499 . S
C5160 H5140 0.950 . S
C5160 C5159 1.414 . S
C5160 C5161 1.374 . S
C5161 H5141 0.950 . S
C5161 C5157 1.385 . S
C5161 C5160 1.374 . S
C5162 C5159 1.499 . S
C5162 C5163 1.373 . S
C5162 C5164 1.389 . S
C5163 H5142 0.950 . S
C5163 C5162 1.373 . S
C5163 C5179 1.377 . S
C5164 C5162 1.389 . S
C5164 C5165 1.524 . S
C5164 C5178 1.377 . S
C5165 C5164 1.524 . S
C5165 C5166 1.397 . S
C5165 C5170 1.363 . S
C5166 H5143 0.950 . S
C5166 C5165 1.397 . S
C5166 C5167 1.334 . S
C5167 H5144 0.950 . S
C5167 C5166 1.334 . S
C5167 C5168 1.287 . S
C5168 C5167 1.287 . S
C5168 C5169 1.524 . S
C5168 H5187 0.913 . S
C5169 H5145 0.950 . S
C5169 C5168 1.524 . S
C5169 C5170 1.415 . S
C5170 H5146 0.950 . S
C5170 C5165 1.363 . S
C5170 C5169 1.415 . S
C5171 H5147 0.951 . S
C5171 C5172 1.366 . S
C5171 C5173 1.388 . S
C5172 C5171 1.366 . S
C5172 C5176 1.385 . S
C5173 H5148 0.951 . S
C5173 C5171 1.388 . S
C5173 C5174 1.366 . S
C5174 C5173 1.366 . S
C5174 C5175 1.414 . S
C5174 C5177 1.499 . S
C5175 H5149 0.950 . S
C5175 C5174 1.414 . S
C5175 C5176 1.374 . S
C5176 H5150 0.950 . S
C5176 C5172 1.385 . S
C5176 C5175 1.374 . S
C5177 C5174 1.499 . S
C5177 C5178 1.373 . S
C5177 C5179 1.389 . S
C5178 H5151 0.950 . S
C5178 C5164 1.377 . S
C5178 C5177 1.373 . S
C5179 C5163 1.377 . S
C5179 C5177 1.389 . S
C5179 C5180 1.524 . S
C5180 C5179 1.524 . S
C5180 C5181 1.397 . S
C5180 C5185 1.363 . S
C5181 H5152 0.950 . S
C5181 C5180 1.397 . S
C5181 C5182 1.334 . S
C5182 H5153 0.950 . S
C5182 C5181 1.334 . S
C5182 C5183 1.287 . S
C5183 C5182 1.287 . S
C5183 C5184 1.524 . S
C5183 H5186 0.999 . S
C5184 H5154 0.950 . S
C5184 C5183 1.524 . S
C5184 C5185 1.415 . S
C5185 H5155 0.950 . S
C5185 C5180 1.363 . S
C5185 C5184 1.415 . S
H5186 C5183 0.999 . S
H5187 C5168 0.913 . S
H5188 C5206 0.946 . S
H5189 C5208 0.951 . S
H5190 C5210 0.950 . S
H5191 C5211 0.950 . S
H5192 C5213 0.950 . S
H5193 C5216 0.950 . S
H5194 C5217 0.950 . S
H5195 C5219 0.988 . S
H5196 C5220 0.950 . S
H5197 C5221 0.951 . S
H5198 C5223 0.951 . S
H5199 C5225 0.950 . S
H5200 C5226 0.950 . S
H5201 C5228 0.950 . S
H5202 C5231 0.950 . S
H5203 C5232 0.950 . S
H5204 C5234 0.950 . S
H5205 C5235 0.950 . S
C5206 H5188 0.946 . S
C5206 C5207 1.366 . S
C5206 C5208 1.388 . S
C5207 C5206 1.366 . S
C5207 C5211 1.385 . S
C5208 H5189 0.951 . S
C5208 C5206 1.388 . S
C5208 C5209 1.366 . S
C5209 C5208 1.366 . S
C5209 C5210 1.414 . S
C5209 C5212 1.499 . S
C5210 H5190 0.950 . S
C5210 C5209 1.414 . S
C5210 C5211 1.374 . S
C5211 H5191 0.950 . S
C5211 C5207 1.385 . S
C5211 C5210 1.374 . S
C5212 C5209 1.499 . S
C5212 C5213 1.373 . S
C5212 C5214 1.389 . S
C5213 H5192 0.950 . S
C5213 C5212 1.373 . S
C5213 C5229 1.377 . S
C5214 C5212 1.389 . S
C5214 C5215 1.524 . S
C5214 C5228 1.377 . S
C5215 C5214 1.524 . S
C5215 C5216 1.397 . S
C5215 C5220 1.363 . S
C5216 H5193 0.950 . S
C5216 C5215 1.397 . S
C5216 C5217 1.334 . S
C5217 H5194 0.950 . S
C5217 C5216 1.334 . S
C5217 C5218 1.287 . S
C5218 C5217 1.287 . S
C5218 C5219 1.511 1_545 S
C5218 H5237 0.913 1_545 S
C5219 H5195 0.988 . S
C5219 C5218 1.511 1_565 S
C5219 C5220 1.385 1_565 S
C5220 H5196 0.950 . S
C5220 C5215 1.363 . S
C5220 C5219 1.385 1_545 S
C5221 H5197 0.951 . S
C5221 C5222 1.366 . S
C5221 C5223 1.388 . S
C5222 C5221 1.366 . S
C5222 C5226 1.385 . S
C5223 H5198 0.951 . S
C5223 C5221 1.388 . S
C5223 C5224 1.366 . S
C5224 C5223 1.366 . S
C5224 C5225 1.414 . S
C5224 C5227 1.499 . S
C5225 H5199 0.950 . S
C5225 C5224 1.414 . S
C5225 C5226 1.374 . S
C5226 H5200 0.950 . S
C5226 C5222 1.385 . S
C5226 C5225 1.374 . S
C5227 C5224 1.499 . S
C5227 C5228 1.373 . S
C5227 C5229 1.389 . S
C5228 H5201 0.950 . S
C5228 C5214 1.377 . S
C5228 C5227 1.373 . S
C5229 C5213 1.377 . S
C5229 C5227 1.389 . S
C5229 C5230 1.524 . S
C5230 C5229 1.524 . S
C5230 C5231 1.397 . S
C5230 C5235 1.363 . S
C5231 H5202 0.950 . S
C5231 C5230 1.397 . S
C5231 C5232 1.334 . S
C5232 H5203 0.950 . S
C5232 C5231 1.334 . S
C5232 C5233 1.287 . S
C5233 C5232 1.287 . S
C5233 C5234 1.524 . S
C5233 H5236 0.999 . S
C5234 H5204 0.950 . S
C5234 C5233 1.524 . S
C5234 C5235 1.415 . S
C5235 H5205 0.950 . S
C5235 C5230 1.363 . S
C5235 C5234 1.415 . S
H5236 C5233 0.999 . S
H5237 C5218 0.913 1_565 S
H5238 C5256 0.951 . S
H5239 C5258 0.951 . S
H5240 C5260 0.950 . S
H5241 C5261 0.950 . S
H5242 C5263 0.950 . S
H5243 C5266 0.950 . S
H5244 C5267 0.950 . S
H5245 C5269 0.950 . S
H5246 C5270 0.950 . S
H5247 C5271 0.951 . S
H5248 C5273 0.951 . S
H5249 C5275 0.950 . S
H5250 C5276 0.950 . S
H5251 C5278 0.950 . S
H5252 C5281 0.950 . S
H5253 C5282 0.950 . S
H5254 C5284 0.950 . S
H5255 C5285 0.950 . S
C5256 H5238 0.951 . S
C5256 C5257 1.366 . S
C5256 C5258 1.388 . S
C5257 C5256 1.366 . S
C5257 C5261 1.385 . S
C5258 H5239 0.951 . S
C5258 C5256 1.388 . S
C5258 C5259 1.366 . S
C5259 C5258 1.366 . S
C5259 C5260 1.414 . S
C5259 C5262 1.499 . S
C5260 H5240 0.950 . S
C5260 C5259 1.414 . S
C5260 C5261 1.374 . S
C5261 H5241 0.950 . S
C5261 C5257 1.385 . S
C5261 C5260 1.374 . S
C5262 C5259 1.499 . S
C5262 C5263 1.373 . S
C5262 C5264 1.389 . S
C5263 H5242 0.950 . S
C5263 C5262 1.373 . S
C5263 C5279 1.377 . S
C5264 C5262 1.389 . S
C5264 C5265 1.524 . S
C5264 C5278 1.377 . S
C5265 C5264 1.524 . S
C5265 C5266 1.397 . S
C5265 C5270 1.363 . S
C5266 H5243 0.950 . S
C5266 C5265 1.397 . S
C5266 C5267 1.334 . S
C5267 H5244 0.950 . S
C5267 C5266 1.334 . S
C5267 C5268 1.287 . S
C5268 C5267 1.287 . S
C5268 C5269 1.524 . S
C5268 H5287 0.913 . S
C5269 H5245 0.950 . S
C5269 C5268 1.524 . S
C5269 C5270 1.415 . S
C5270 H5246 0.950 . S
C5270 C5265 1.363 . S
C5270 C5269 1.415 . S
C5271 H5247 0.951 . S
C5271 C5272 1.366 . S
C5271 C5273 1.388 . S
C5272 C5271 1.366 . S
C5272 C5276 1.385 . S
C5273 H5248 0.951 . S
C5273 C5271 1.388 . S
C5273 C5274 1.366 . S
C5274 C5273 1.366 . S
C5274 C5275 1.414 . S
C5274 C5277 1.499 . S
C5275 H5249 0.950 . S
C5275 C5274 1.414 . S
C5275 C5276 1.374 . S
C5276 H5250 0.950 . S
C5276 C5272 1.385 . S
C5276 C5275 1.374 . S
C5277 C5274 1.499 . S
C5277 C5278 1.373 . S
C5277 C5279 1.389 . S
C5278 H5251 0.950 . S
C5278 C5264 1.377 . S
C5278 C5277 1.373 . S
C5279 C5263 1.377 . S
C5279 C5277 1.389 . S
C5279 C5280 1.524 . S
C5280 C5279 1.524 . S
C5280 C5281 1.397 . S
C5280 C5285 1.363 . S
C5281 H5252 0.950 . S
C5281 C5280 1.397 . S
C5281 C5282 1.334 . S
C5282 H5253 0.950 . S
C5282 C5281 1.334 . S
C5282 C5283 1.287 . S
C5283 C5282 1.287 . S
C5283 C5284 1.524 . S
C5283 H5286 0.999 . S
C5284 H5254 0.950 . S
C5284 C5283 1.524 . S
C5284 C5285 1.415 . S
C5285 H5255 0.950 . S
C5285 C5280 1.363 . S
C5285 C5284 1.415 . S
H5286 C5283 0.999 . S
H5287 C5268 0.913 . S
H5288 C5306 0.951 . S
H5289 C5308 0.951 . S
H5290 C5310 0.950 . S
H5291 C5311 0.950 . S
H5292 C5313 0.950 . S
H5293 C5316 0.950 . S
H5294 C5317 0.950 . S
H5295 C5319 0.950 . S
H5296 C5320 0.950 . S
H5297 C5321 0.951 . S
H5298 C5323 0.951 . S
H5299 C5325 0.950 . S
H5300 C5326 0.950 . S
H5301 C5328 0.950 . S
H5302 C5331 0.950 . S
H5303 C5332 0.950 . S
H5304 C5334 0.950 . S
H5305 C5335 0.950 . S
C5306 H5288 0.951 . S
C5306 C5307 1.366 . S
C5306 C5308 1.388 . S
C5307 C5306 1.366 . S
C5307 C5311 1.385 . S
C5308 H5289 0.951 . S
C5308 C5306 1.388 . S
C5308 C5309 1.366 . S
C5309 C5308 1.366 . S
C5309 C5310 1.414 . S
C5309 C5312 1.499 . S
C5310 H5290 0.950 . S
C5310 C5309 1.414 . S
C5310 C5311 1.374 . S
C5311 H5291 0.950 . S
C5311 C5307 1.385 . S
C5311 C5310 1.374 . S
C5312 C5309 1.499 . S
C5312 C5313 1.373 . S
C5312 C5314 1.389 . S
C5313 H5292 0.950 . S
C5313 C5312 1.373 . S
C5313 C5329 1.377 . S
C5314 C5312 1.389 . S
C5314 C5315 1.524 . S
C5314 C5328 1.377 . S
C5315 C5314 1.524 . S
C5315 C5316 1.397 . S
C5315 C5320 1.363 . S
C5316 H5293 0.950 . S
C5316 C5315 1.397 . S
C5316 C5317 1.334 . S
C5317 H5294 0.950 . S
C5317 C5316 1.334 . S
C5317 C5318 1.287 . S
C5318 C5317 1.287 . S
C5318 C5319 1.524 . S
C5318 H5337 0.913 . S
C5319 H5295 0.950 . S
C5319 C5318 1.524 . S
C5319 C5320 1.415 . S
C5320 H5296 0.950 . S
C5320 C5315 1.363 . S
C5320 C5319 1.415 . S
C5321 H5297 0.951 . S
C5321 C5322 1.366 . S
C5321 C5323 1.388 . S
C5322 C5321 1.366 . S
C5322 C5326 1.385 . S
C5323 H5298 0.951 . S
C5323 C5321 1.388 . S
C5323 C5324 1.366 . S
C5324 C5323 1.366 . S
C5324 C5325 1.414 . S
C5324 C5327 1.499 . S
C5325 H5299 0.950 . S
C5325 C5324 1.414 . S
C5325 C5326 1.374 . S
C5326 H5300 0.950 . S
C5326 C5322 1.385 . S
C5326 C5325 1.374 . S
C5327 C5324 1.499 . S
C5327 C5328 1.373 . S
C5327 C5329 1.389 . S
C5328 H5301 0.950 . S
C5328 C5314 1.377 . S
C5328 C5327 1.373 . S
C5329 C5313 1.377 . S
C5329 C5327 1.389 . S
C5329 C5330 1.524 . S
C5330 C5329 1.524 . S
C5330 C5331 1.397 . S
C5330 C5335 1.363 . S
C5331 H5302 0.950 . S
C5331 C5330 1.397 . S
C5331 C5332 1.334 . S
C5332 H5303 0.950 . S
C5332 C5331 1.334 . S
C5332 C5333 1.287 . S
C5333 C5332 1.287 . S
C5333 C5334 1.524 . S
C5333 H5336 0.999 . S
C5334 H5304 0.950 . S
C5334 C5333 1.524 . S
C5334 C5335 1.415 . S
C5335 H5305 0.950 . S
C5335 C5330 1.363 . S
C5335 C5334 1.415 . S
H5336 C5333 0.999 . S
H5337 C5318 0.913 . S
H5338 C5356 0.951 . S
H5339 C5358 0.951 . S
H5340 C5360 0.950 . S
H5341 C5361 0.950 . S
H5342 C5363 0.950 . S
H5343 C5366 0.950 . S
H5344 C5367 0.950 . S
H5345 C5369 0.950 . S
H5346 C5370 0.950 . S
H5347 C5371 0.951 . S
H5348 C5373 0.951 . S
H5349 C5375 0.950 . S
H5350 C5376 0.950 . S
H5351 C5378 0.950 . S
H5352 C5381 0.950 . S
H5353 C5382 0.950 . S
H5354 C5384 0.950 1_554 S
H5355 C5385 0.950 . S
C5356 H5338 0.951 . S
C5356 C5357 1.366 . S
C5356 C5358 1.388 . S
C5357 C5356 1.366 . S
C5357 C5361 1.385 . S
C5358 H5339 0.951 . S
C5358 C5356 1.388 . S
C5358 C5359 1.366 . S
C5359 C5358 1.366 . S
C5359 C5360 1.414 . S
C5359 C5362 1.499 . S
C5360 H5340 0.950 . S
C5360 C5359 1.414 . S
C5360 C5361 1.374 . S
C5361 H5341 0.950 . S
C5361 C5357 1.385 . S
C5361 C5360 1.374 . S
C5362 C5359 1.499 . S
C5362 C5363 1.373 . S
C5362 C5364 1.389 . S
C5363 H5342 0.950 . S
C5363 C5362 1.373 . S
C5363 C5379 1.377 . S
C5364 C5362 1.389 . S
C5364 C5365 1.524 . S
C5364 C5378 1.377 . S
C5365 C5364 1.524 . S
C5365 C5366 1.397 . S
C5365 C5370 1.363 . S
C5366 H5343 0.950 . S
C5366 C5365 1.397 . S
C5366 C5367 1.334 . S
C5367 H5344 0.950 . S
C5367 C5366 1.334 . S
C5367 C5368 1.287 . S
C5368 C5367 1.287 . S
C5368 C5369 1.524 . S
C5368 H5387 0.913 . S
C5369 H5345 0.950 . S
C5369 C5368 1.524 . S
C5369 C5370 1.415 . S
C5370 H5346 0.950 . S
C5370 C5365 1.363 . S
C5370 C5369 1.415 . S
C5371 H5347 0.951 . S
C5371 C5372 1.366 . S
C5371 C5373 1.388 . S
C5372 C5371 1.366 . S
C5372 C5376 1.385 . S
C5373 H5348 0.951 . S
C5373 C5371 1.388 . S
C5373 C5374 1.366 . S
C5374 C5373 1.366 . S
C5374 C5375 1.414 . S
C5374 C5377 1.499 . S
C5375 H5349 0.950 . S
C5375 C5374 1.414 . S
C5375 C5376 1.374 . S
C5376 H5350 0.950 . S
C5376 C5372 1.385 . S
C5376 C5375 1.374 . S
C5377 C5374 1.499 . S
C5377 C5378 1.373 . S
C5377 C5379 1.389 . S
C5378 H5351 0.950 . S
C5378 C5364 1.377 . S
C5378 C5377 1.373 . S
C5379 C5363 1.377 . S
C5379 C5377 1.389 . S
C5379 C5380 1.524 . S
C5380 C5379 1.524 . S
C5380 C5381 1.397 . S
C5380 C5385 1.363 . S
C5381 H5352 0.950 . S
C5381 C5380 1.397 . S
C5381 C5382 1.334 . S
C5382 H5353 0.950 . S
C5382 C5381 1.334 . S
C5382 C5383 1.287 . S
C5383 C5382 1.287 . S
C5383 C5384 1.524 . S
C5383 H5386 0.999 . S
C5384 H5354 0.950 1_556 S
C5384 C5383 1.524 . S
C5384 C5385 1.415 . S
C5385 H5355 0.950 . S
C5385 C5380 1.363 . S
C5385 C5384 1.415 . S
H5386 C5383 0.999 . S
H5387 C5368 0.913 . S
H5388 C5406 0.951 . S
H5389 C5408 0.951 . S
H5390 C5410 0.950 . S
H5391 C5411 0.950 . S
H5392 C5413 0.950 . S
H5393 C5416 0.950 . S
H5394 C5417 0.950 . S
H5395 C5419 0.950 . S
H5396 C5420 0.950 . S
H5397 C5421 0.951 . S
H5398 C5423 0.951 . S
H5399 C5425 0.950 . S
H5400 C5426 0.950 . S
H5401 C5428 0.950 . S
H5402 C5431 0.950 . S
H5403 C5432 0.950 . S
H5404 C5434 0.950 . S
H5405 C5435 0.950 . S
C5406 H5388 0.951 . S
C5406 C5407 1.366 . S
C5406 C5408 1.388 . S
C5407 C5406 1.366 . S
C5407 C5411 1.385 . S
C5408 H5389 0.951 . S
C5408 C5406 1.388 . S
C5408 C5409 1.366 . S
C5409 C5408 1.366 . S
C5409 C5410 1.414 . S
C5409 C5412 1.499 . S
C5410 H5390 0.950 . S
C5410 C5409 1.414 . S
C5410 C5411 1.374 . S
C5411 H5391 0.950 . S
C5411 C5407 1.385 . S
C5411 C5410 1.374 . S
C5412 C5409 1.499 . S
C5412 C5413 1.373 . S
C5412 C5414 1.389 . S
C5413 H5392 0.950 . S
C5413 C5412 1.373 . S
C5413 C5429 1.377 . S
C5414 C5412 1.389 . S
C5414 C5415 1.524 . S
C5414 C5428 1.377 . S
C5415 C5414 1.524 . S
C5415 C5416 1.397 . S
C5415 C5420 1.363 . S
C5416 H5393 0.950 . S
C5416 C5415 1.397 . S
C5416 C5417 1.334 . S
C5417 H5394 0.950 . S
C5417 C5416 1.334 . S
C5417 C5418 1.287 . S
C5418 C5417 1.287 . S
C5418 C5419 1.524 . S
C5418 H5437 0.913 . S
C5419 H5395 0.950 . S
C5419 C5418 1.524 . S
C5419 C5420 1.415 . S
C5420 H5396 0.950 . S
C5420 C5415 1.363 . S
C5420 C5419 1.415 . S
C5421 H5397 0.951 . S
C5421 C5422 1.366 . S
C5421 C5423 1.388 . S
C5422 C5421 1.366 . S
C5422 C5426 1.385 . S
C5423 H5398 0.951 . S
C5423 C5421 1.388 . S
C5423 C5424 1.366 . S
C5424 C5423 1.366 . S
C5424 C5425 1.414 . S
C5424 C5427 1.499 . S
C5425 H5399 0.950 . S
C5425 C5424 1.414 . S
C5425 C5426 1.374 . S
C5426 H5400 0.950 . S
C5426 C5422 1.385 . S
C5426 C5425 1.374 . S
C5427 C5424 1.499 . S
C5427 C5428 1.373 . S
C5427 C5429 1.389 . S
C5428 H5401 0.950 . S
C5428 C5414 1.377 . S
C5428 C5427 1.373 . S
C5429 C5413 1.377 . S
C5429 C5427 1.389 . S
C5429 C5430 1.524 . S
C5430 C5429 1.524 . S
C5430 C5431 1.397 . S
C5430 C5435 1.363 . S
C5431 H5402 0.950 . S
C5431 C5430 1.397 . S
C5431 C5432 1.334 . S
C5432 H5403 0.950 . S
C5432 C5431 1.334 . S
C5432 C5433 1.287 . S
C5433 C5432 1.287 . S
C5433 C5434 1.524 . S
C5433 H5436 0.999 1_565 S
C5434 H5404 0.950 . S
C5434 C5433 1.524 . S
C5434 C5435 1.415 . S
C5435 H5405 0.950 . S
C5435 C5430 1.363 . S
C5435 C5434 1.415 . S
H5436 C5433 0.999 1_545 S
H5437 C5418 0.913 . S
H5438 C5456 0.951 . S
H5439 C5458 0.951 . S
H5440 C5460 0.950 . S
H5441 C5461 0.950 . S
H5442 C5463 0.950 . S
H5443 C5466 0.950 . S
H5444 C5467 0.950 . S
H5445 C5469 0.950 1_655 S
H5446 C5470 0.950 1_655 S
H5447 C5471 0.951 . S
H5448 C5473 0.951 . S
H5449 C5475 0.950 . S
H5450 C5476 0.950 . S
H5451 C5478 0.950 . S
H5452 C5481 0.950 . S
H5453 C5482 0.950 . S
H5454 C5484 0.950 . S
H5455 C5485 0.950 . S
C5456 H5438 0.951 . S
C5456 C5457 1.366 . S
C5456 C5458 1.388 . S
C5457 C5456 1.366 . S
C5457 C5461 1.385 . S
C5458 H5439 0.951 . S
C5458 C5456 1.388 . S
C5458 C5459 1.366 . S
C5459 C5458 1.366 . S
C5459 C5460 1.414 . S
C5459 C5462 1.499 . S
C5460 H5440 0.950 . S
C5460 C5459 1.414 . S
C5460 C5461 1.374 . S
C5461 H5441 0.950 . S
C5461 C5457 1.385 . S
C5461 C5460 1.374 . S
C5462 C5459 1.499 . S
C5462 C5463 1.373 . S
C5462 C5464 1.389 . S
C5463 H5442 0.950 . S
C5463 C5462 1.373 . S
C5463 C5479 1.377 . S
C5464 C5462 1.389 . S
C5464 C5465 1.524 . S
C5464 C5478 1.377 1_455 S
C5465 C5464 1.524 . S
C5465 C5466 1.397 . S
C5465 C5470 1.363 . S
C5466 H5443 0.950 . S
C5466 C5465 1.397 . S
C5466 C5467 1.334 1_545 S
C5467 H5444 0.950 . S
C5467 C5466 1.334 1_565 S
C5467 C5468 1.287 . S
C5468 C5467 1.287 . S
C5468 C5469 1.524 . S
C5468 H5487 0.913 . S
C5469 H5445 0.950 1_455 S
C5469 C5468 1.524 . S
C5469 C5470 1.415 1_565 S
C5470 H5446 0.950 1_455 S
C5470 C5465 1.363 . S
C5470 C5469 1.415 1_545 S
C5471 H5447 0.951 . S
C5471 C5472 1.366 . S
C5471 C5473 1.388 . S
C5472 C5471 1.366 . S
C5472 C5476 1.385 . S
C5473 H5448 0.951 . S
C5473 C5471 1.388 . S
C5473 C5474 1.366 . S
C5474 C5473 1.366 . S
C5474 C5475 1.414 . S
C5474 C5477 1.499 . S
C5475 H5449 0.950 . S
C5475 C5474 1.414 . S
C5475 C5476 1.374 . S
C5476 H5450 0.950 . S
C5476 C5472 1.385 . S
C5476 C5475 1.374 . S
C5477 C5474 1.499 . S
C5477 C5478 1.373 . S
C5477 C5479 1.389 1_655 S
C5478 H5451 0.950 . S
C5478 C5464 1.377 1_655 S
C5478 C5477 1.373 . S
C5479 C5463 1.377 . S
C5479 C5477 1.389 1_455 S
C5479 C5480 1.524 . S
C5480 C5479 1.524 . S
C5480 C5481 1.397 1_455 S
C5480 C5485 1.363 . S
C5481 H5452 0.950 . S
C5481 C5480 1.397 1_655 S
C5481 C5482 1.334 . S
C5482 H5453 0.950 . S
C5482 C5481 1.334 . S
C5482 C5483 1.287 . S
C5483 C5482 1.287 . S
C5483 C5484 1.524 1_655 S
C5483 H5486 0.999 . S
C5484 H5454 0.950 . S
C5484 C5483 1.524 1_455 S
C5484 C5485 1.415 . S
C5485 H5455 0.950 . S
C5485 C5480 1.363 . S
C5485 C5484 1.415 . S
H5486 C5483 0.999 . S
H5487 C5468 0.913 . S
C722 C343 0.887 . S
C707 C11 0.904 . S
C757 C14 1.034 . S
C772 C363 1.014 . S
C822 C384 1.041 . S
C807 C37 1.070 . S
C872 C411 0.995 . S
C857 C47 1.028 . S
C922 C367 0.994 . S
C907 C61 1.024 . S
C957 C79 1.070 . S
C972 C387 1.043 . S
C1022 C407 1.016 . S
C1007 C84 1.034 . S
C1057 C109 0.903 . S
C1072 C340 0.885 . S
C1107 C123 0.918 . S
C1122 C345 0.899 . S
C1172 C362 0.985 . S
C1157 C131 1.017 . S
C1222 C386 1.063 . S
C1207 C140 1.090 . S
C1272 C410 0.992 . S
C1257 C163 1.015 . S
C1322 C366 0.992 . S
C1307 C121 1.014 . S
C1372 C389 1.064 . S
C1357 C126 1.088 . S
C1407 C145 1.018 . S
C1422 C406 0.985 . S
C1472 C342 0.898 . S
C1457 C165 0.916 . S
C1507 C168 0.956 . S
C1522 C344 0.940 . S
C1557 C193 0.975 . S
C1572 C431 0.951 . S
C1622 C451 1.018 . S
C1607 C205 1.044 . S
C1672 C474 1.026 . S
C1657 C215 1.061 . S
C1707 C224 0.956 . S
C1722 C341 0.938 . S
C1757 C247 1.043 . S
C1772 C385 1.016 . S
C1822 C475 0.951 . S
C1807 C207 0.975 . S
C1872 C430 1.026 . S
C1857 C257 1.061 . S
C1922 C498 1.016 . S
C1907 C23 1.038 . S
C1972 C519 0.953 . S
C1957 C0 0.971 . S
C2007 C53 0.884 . S
C2022 C538 0.872 . S
C2057 C33 1.051 . S
C2072 C563 1.025 . S
C2107 C103 1.052 . S
C2122 C518 1.023 . S
C2157 C95 0.885 . S
C2172 C543 0.870 . S
C2222 C562 0.955 . S
C2207 C70 0.969 . S
C2257 C65 1.037 . S
C2272 C495 1.020 . S
C2307 C271 1.074 . S
C2322 C499 1.041 . S
C2372 C520 0.996 . S
C2357 C219 1.011 . S
C2422 C539 0.872 . S
C2407 C235 0.887 . S
C2472 C564 0.956 . S
C2457 C182 0.972 . S
C2522 C516 0.957 . S
C2507 C266 0.972 . S
C2572 C541 0.872 . S
C2557 C221 0.887 . S
C2622 C560 0.997 . S
C2607 C233 1.011 . S
C2657 C187 1.074 . S
C2672 C496 1.041 . S
C2722 C497 0.971 . S
C2707 C289 0.991 . S
C2757 C154 1.021 . S
C2772 C583 1.006 . S
C2822 C608 0.939 . S
C2807 C299 0.964 . S
C2857 C137 0.963 . S
C2872 C627 0.948 . S
C2922 C494 0.970 . S
C2907 C149 0.994 . S
C2972 C540 0.941 . S
C2957 C313 0.963 . S
C3022 C631 1.004 . S
C3007 C294 1.022 . S
C3057 C333 0.964 . S
C3072 C587 0.946 . S
C3107 C39 0.904 . S
C3122 C651 0.886 . S
C3157 C42 1.035 . S
C3172 C429 1.016 . S
C3222 C453 1.042 . S
C3207 C9 1.069 . S
C3257 C19 1.028 . S
C3272 C477 0.994 . S
C3307 C89 1.028 . S
C3322 C433 0.996 . S
C3357 C107 1.070 . S
C3372 C450 1.043 . S
C3422 C473 1.016 . S
C3407 C56 1.037 . S
C3472 C648 0.886 . S
C3457 C81 0.903 . S
C3522 C653 0.898 . S
C3507 C305 0.916 . S
C3572 C428 0.983 . S
C3557 C285 1.017 . S
C3622 C455 1.065 . S
C3607 C322 1.087 . S
C3657 C317 1.015 . S
C3672 C476 0.992 . S
C3722 C432 0.991 . S
C3707 C303 1.015 . S
C3757 C280 1.088 . S
C3772 C452 1.065 . S
C3822 C472 0.984 . S
C3807 C327 1.017 . S
C3857 C319 0.917 . S
C3872 C650 0.899 . S
C3922 C652 0.939 . S
C3907 C210 0.955 . S
C3957 C249 0.975 . S
C3972 C365 0.953 . S
C4022 C388 1.016 . S
C4007 C275 1.044 . S
C4057 C173 1.061 . S
C4072 C408 1.025 . S
C4122 C649 0.937 . S
C4107 C252 0.955 . S
C4172 C454 1.017 . S
C4157 C191 1.044 . S
C4222 C409 0.951 . S
C4207 C277 0.975 . S
C4272 C364 1.026 . S
C4257 C229 1.062 . S
C4307 C51 1.037 . S
C4322 C675 1.016 . S
C4357 C28 0.969 . S
C4372 C585 0.955 . S
C4407 C25 0.885 . S
C4422 C604 0.871 . S
C4472 C629 1.024 . S
C4457 C5 1.051 . S
C4522 C584 1.025 . S
C4507 C75 1.051 . S
C4557 C67 0.884 . S
C4572 C609 0.866 . S
C4622 C628 0.954 . S
C4607 C98 0.970 . S
C4657 C93 1.038 . S
C4672 C670 1.017 . S
C4722 C673 1.040 . S
C4707 C201 1.074 . S
C4757 C177 1.012 . S
C4772 C586 0.996 . S
C4807 C263 0.887 . S
C4822 C605 0.872 . S
C4872 C630 0.957 . S
C4857 C238 0.972 . S
C4922 C582 0.955 . S
C4907 C196 0.973 . S
C4957 C179 0.887 . S
C4972 C607 0.872 . S
C5022 C626 0.997 . S
C5007 C261 1.012 . S
C5072 C671 1.042 . S
C5057 C243 1.074 . S
C5122 C674 0.970 . S
C5107 C135 0.991 . S
C5172 C517 1.004 . S
C5157 C308 1.023 . S
C5207 C117 0.963 . S
C5222 C542 0.941 . S
C5257 C291 0.963 . S
C5272 C561 0.948 . S
C5322 C672 0.972 . S
C5307 C331 0.991 . S
C5372 C606 0.941 . S
C5357 C159 0.963 . S
C5422 C565 1.005 . S
C5407 C112 1.022 . S
C5472 C521 0.947 . S
C5457 C151 0.961 . S
