# Generated by pormake.
# Topology gar, (4,6)-cn, num edge types: 1
# Building blocks:
#     Node 0, Type 0, BuildingBlock: TATPOV_clean_sbu_0, # of connection points: 4
#     Node 1, Type 0, BuildingBlock: TATPOV_clean_sbu_0, # of connection points: 4
#     Node 2, Type 0, BuildingBlock: TATPOV_clean_sbu_0, # of connection points: 4
#     Node 3, Type 0, BuildingBlock: TATPOV_clean_sbu_0, # of connection points: 4
#     Node 4, Type 0, BuildingBlock: TATPOV_clean_sbu_0, # of connection points: 4
#     Node 5, Type 0, BuildingBlock: TATPOV_clean_sbu_0, # of connection points: 4
#     Node 6, Type 0, BuildingBlock: TATPOV_clean_sbu_0, # of connection points: 4
#     Node 7, Type 0, BuildingBlock: TATPOV_clean_sbu_0, # of connection points: 4
#     Node 8, Type 0, BuildingBlock: TATPOV_clean_sbu_0, # of connection points: 4
#     Node 9, Type 0, BuildingBlock: TATPOV_clean_sbu_0, # of connection points: 4
#     Node 10, Type 0, BuildingBlock: TATPOV_clean_sbu_0, # of connection points: 4
#     Node 11, Type 0, BuildingBlock: TATPOV_clean_sbu_0, # of connection points: 4
#     Node 12, Type 0, BuildingBlock: TATPOV_clean_sbu_0, # of connection points: 4
#     Node 13, Type 0, BuildingBlock: TATPOV_clean_sbu_0, # of connection points: 4
#     Node 14, Type 0, BuildingBlock: TATPOV_clean_sbu_0, # of connection points: 4
#     Node 15, Type 0, BuildingBlock: TATPOV_clean_sbu_0, # of connection points: 4
#     Node 16, Type 0, BuildingBlock: TATPOV_clean_sbu_0, # of connection points: 4
#     Node 17, Type 0, BuildingBlock: TATPOV_clean_sbu_0, # of connection points: 4
#     Node 18, Type 0, BuildingBlock: TATPOV_clean_sbu_0, # of connection points: 4
#     Node 19, Type 0, BuildingBlock: TATPOV_clean_sbu_0, # of connection points: 4
#     Node 20, Type 0, BuildingBlock: TATPOV_clean_sbu_0, # of connection points: 4
#     Node 21, Type 0, BuildingBlock: TATPOV_clean_sbu_0, # of connection points: 4
#     Node 22, Type 0, BuildingBlock: TATPOV_clean_sbu_0, # of connection points: 4
#     Node 23, Type 0, BuildingBlock: TATPOV_clean_sbu_0, # of connection points: 4
#     Node 24, Type 1, BuildingBlock: BETDEL_clean_sbu_0, # of connection points: 6
#     Node 25, Type 1, BuildingBlock: BETDEL_clean_sbu_0, # of connection points: 6
#     Node 26, Type 1, BuildingBlock: BETDEL_clean_sbu_0, # of connection points: 6
#     Node 27, Type 1, BuildingBlock: BETDEL_clean_sbu_0, # of connection points: 6
#     Node 28, Type 1, BuildingBlock: BETDEL_clean_sbu_0, # of connection points: 6
#     Node 29, Type 1, BuildingBlock: BETDEL_clean_sbu_0, # of connection points: 6
#     Node 30, Type 1, BuildingBlock: BETDEL_clean_sbu_0, # of connection points: 6
#     Node 31, Type 1, BuildingBlock: BETDEL_clean_sbu_0, # of connection points: 6
#     Node 32, Type 1, BuildingBlock: BETDEL_clean_sbu_0, # of connection points: 6
#     Node 33, Type 1, BuildingBlock: BETDEL_clean_sbu_0, # of connection points: 6
#     Node 34, Type 1, BuildingBlock: BETDEL_clean_sbu_0, # of connection points: 6
#     Node 35, Type 1, BuildingBlock: BETDEL_clean_sbu_0, # of connection points: 6
#     Node 36, Type 1, BuildingBlock: BETDEL_clean_sbu_0, # of connection points: 6
#     Node 37, Type 1, BuildingBlock: BETDEL_clean_sbu_0, # of connection points: 6
#     Node 38, Type 1, BuildingBlock: BETDEL_clean_sbu_0, # of connection points: 6
#     Node 39, Type 1, BuildingBlock: BETDEL_clean_sbu_0, # of connection points: 6
#     Edge 40, Type (0, 1), BuildingBlock: XUDNAN_clean_linker_2, # of connection points: 2
#     Edge 41, Type (0, 1), BuildingBlock: XUDNAN_clean_linker_2, # of connection points: 2
#     Edge 42, Type (0, 1), BuildingBlock: XUDNAN_clean_linker_2, # of connection points: 2
#     Edge 43, Type (0, 1), BuildingBlock: XUDNAN_clean_linker_2, # of connection points: 2
#     Edge 44, Type (0, 1), BuildingBlock: XUDNAN_clean_linker_2, # of connection points: 2
#     Edge 45, Type (0, 1), BuildingBlock: XUDNAN_clean_linker_2, # of connection points: 2
#     Edge 46, Type (0, 1), BuildingBlock: XUDNAN_clean_linker_2, # of connection points: 2
#     Edge 47, Type (0, 1), BuildingBlock: XUDNAN_clean_linker_2, # of connection points: 2
#     Edge 48, Type (0, 1), BuildingBlock: XUDNAN_clean_linker_2, # of connection points: 2
#     Edge 49, Type (0, 1), BuildingBlock: XUDNAN_clean_linker_2, # of connection points: 2
#     Edge 50, Type (0, 1), BuildingBlock: XUDNAN_clean_linker_2, # of connection points: 2
#     Edge 51, Type (0, 1), BuildingBlock: XUDNAN_clean_linker_2, # of connection points: 2
#     Edge 52, Type (0, 1), BuildingBlock: XUDNAN_clean_linker_2, # of connection points: 2
#     Edge 53, Type (0, 1), BuildingBlock: XUDNAN_clean_linker_2, # of connection points: 2
#     Edge 54, Type (0, 1), BuildingBlock: XUDNAN_clean_linker_2, # of connection points: 2
#     Edge 55, Type (0, 1), BuildingBlock: XUDNAN_clean_linker_2, # of connection points: 2
#     Edge 56, Type (0, 1), BuildingBlock: XUDNAN_clean_linker_2, # of connection points: 2
#     Edge 57, Type (0, 1), BuildingBlock: XUDNAN_clean_linker_2, # of connection points: 2
#     Edge 58, Type (0, 1), BuildingBlock: XUDNAN_clean_linker_2, # of connection points: 2
#     Edge 59, Type (0, 1), BuildingBlock: XUDNAN_clean_linker_2, # of connection points: 2
#     Edge 60, Type (0, 1), BuildingBlock: XUDNAN_clean_linker_2, # of connection points: 2
#     Edge 61, Type (0, 1), BuildingBlock: XUDNAN_clean_linker_2, # of connection points: 2
#     Edge 62, Type (0, 1), BuildingBlock: XUDNAN_clean_linker_2, # of connection points: 2
#     Edge 63, Type (0, 1), BuildingBlock: XUDNAN_clean_linker_2, # of connection points: 2
#     Edge 64, Type (0, 1), BuildingBlock: XUDNAN_clean_linker_2, # of connection points: 2
#     Edge 65, Type (0, 1), BuildingBlock: XUDNAN_clean_linker_2, # of connection points: 2
#     Edge 66, Type (0, 1), BuildingBlock: XUDNAN_clean_linker_2, # of connection points: 2
#     Edge 67, Type (0, 1), BuildingBlock: XUDNAN_clean_linker_2, # of connection points: 2
#     Edge 68, Type (0, 1), BuildingBlock: XUDNAN_clean_linker_2, # of connection points: 2
#     Edge 69, Type (0, 1), BuildingBlock: XUDNAN_clean_linker_2, # of connection points: 2
#     Edge 70, Type (0, 1), BuildingBlock: XUDNAN_clean_linker_2, # of connection points: 2
#     Edge 71, Type (0, 1), BuildingBlock: XUDNAN_clean_linker_2, # of connection points: 2
#     Edge 72, Type (0, 1), BuildingBlock: XUDNAN_clean_linker_2, # of connection points: 2
#     Edge 73, Type (0, 1), BuildingBlock: XUDNAN_clean_linker_2, # of connection points: 2
#     Edge 74, Type (0, 1), BuildingBlock: XUDNAN_clean_linker_2, # of connection points: 2
#     Edge 75, Type (0, 1), BuildingBlock: XUDNAN_clean_linker_2, # of connection points: 2
#     Edge 76, Type (0, 1), BuildingBlock: XUDNAN_clean_linker_2, # of connection points: 2
#     Edge 77, Type (0, 1), BuildingBlock: XUDNAN_clean_linker_2, # of connection points: 2
#     Edge 78, Type (0, 1), BuildingBlock: XUDNAN_clean_linker_2, # of connection points: 2
#     Edge 79, Type (0, 1), BuildingBlock: XUDNAN_clean_linker_2, # of connection points: 2
#     Edge 80, Type (0, 1), BuildingBlock: XUDNAN_clean_linker_2, # of connection points: 2
#     Edge 81, Type (0, 1), BuildingBlock: XUDNAN_clean_linker_2, # of connection points: 2
#     Edge 82, Type (0, 1), BuildingBlock: XUDNAN_clean_linker_2, # of connection points: 2
#     Edge 83, Type (0, 1), BuildingBlock: XUDNAN_clean_linker_2, # of connection points: 2
#     Edge 84, Type (0, 1), BuildingBlock: XUDNAN_clean_linker_2, # of connection points: 2
#     Edge 85, Type (0, 1), BuildingBlock: XUDNAN_clean_linker_2, # of connection points: 2
#     Edge 86, Type (0, 1), BuildingBlock: XUDNAN_clean_linker_2, # of connection points: 2
#     Edge 87, Type (0, 1), BuildingBlock: XUDNAN_clean_linker_2, # of connection points: 2
#     Edge 88, Type (0, 1), BuildingBlock: XUDNAN_clean_linker_2, # of connection points: 2
#     Edge 89, Type (0, 1), BuildingBlock: XUDNAN_clean_linker_2, # of connection points: 2
#     Edge 90, Type (0, 1), BuildingBlock: XUDNAN_clean_linker_2, # of connection points: 2
#     Edge 91, Type (0, 1), BuildingBlock: XUDNAN_clean_linker_2, # of connection points: 2
#     Edge 92, Type (0, 1), BuildingBlock: XUDNAN_clean_linker_2, # of connection points: 2
#     Edge 93, Type (0, 1), BuildingBlock: XUDNAN_clean_linker_2, # of connection points: 2
#     Edge 94, Type (0, 1), BuildingBlock: XUDNAN_clean_linker_2, # of connection points: 2
#     Edge 95, Type (0, 1), BuildingBlock: XUDNAN_clean_linker_2, # of connection points: 2
#     Edge 96, Type (0, 1), BuildingBlock: XUDNAN_clean_linker_2, # of connection points: 2
#     Edge 97, Type (0, 1), BuildingBlock: XUDNAN_clean_linker_2, # of connection points: 2
#     Edge 98, Type (0, 1), BuildingBlock: XUDNAN_clean_linker_2, # of connection points: 2
#     Edge 99, Type (0, 1), BuildingBlock: XUDNAN_clean_linker_2, # of connection points: 2
#     Edge 100, Type (0, 1), BuildingBlock: XUDNAN_clean_linker_2, # of connection points: 2
#     Edge 101, Type (0, 1), BuildingBlock: XUDNAN_clean_linker_2, # of connection points: 2
#     Edge 102, Type (0, 1), BuildingBlock: XUDNAN_clean_linker_2, # of connection points: 2
#     Edge 103, Type (0, 1), BuildingBlock: XUDNAN_clean_linker_2, # of connection points: 2
#     Edge 104, Type (0, 1), BuildingBlock: XUDNAN_clean_linker_2, # of connection points: 2
#     Edge 105, Type (0, 1), BuildingBlock: XUDNAN_clean_linker_2, # of connection points: 2
#     Edge 106, Type (0, 1), BuildingBlock: XUDNAN_clean_linker_2, # of connection points: 2
#     Edge 107, Type (0, 1), BuildingBlock: XUDNAN_clean_linker_2, # of connection points: 2
#     Edge 108, Type (0, 1), BuildingBlock: XUDNAN_clean_linker_2, # of connection points: 2
#     Edge 109, Type (0, 1), BuildingBlock: XUDNAN_clean_linker_2, # of connection points: 2
#     Edge 110, Type (0, 1), BuildingBlock: XUDNAN_clean_linker_2, # of connection points: 2
#     Edge 111, Type (0, 1), BuildingBlock: XUDNAN_clean_linker_2, # of connection points: 2
#     Edge 112, Type (0, 1), BuildingBlock: XUDNAN_clean_linker_2, # of connection points: 2
#     Edge 113, Type (0, 1), BuildingBlock: XUDNAN_clean_linker_2, # of connection points: 2
#     Edge 114, Type (0, 1), BuildingBlock: XUDNAN_clean_linker_2, # of connection points: 2
#     Edge 115, Type (0, 1), BuildingBlock: XUDNAN_clean_linker_2, # of connection points: 2
#     Edge 116, Type (0, 1), BuildingBlock: XUDNAN_clean_linker_2, # of connection points: 2
#     Edge 117, Type (0, 1), BuildingBlock: XUDNAN_clean_linker_2, # of connection points: 2
#     Edge 118, Type (0, 1), BuildingBlock: XUDNAN_clean_linker_2, # of connection points: 2
#     Edge 119, Type (0, 1), BuildingBlock: XUDNAN_clean_linker_2, # of connection points: 2
#     Edge 120, Type (0, 1), BuildingBlock: XUDNAN_clean_linker_2, # of connection points: 2
#     Edge 121, Type (0, 1), BuildingBlock: XUDNAN_clean_linker_2, # of connection points: 2
#     Edge 122, Type (0, 1), BuildingBlock: XUDNAN_clean_linker_2, # of connection points: 2
#     Edge 123, Type (0, 1), BuildingBlock: XUDNAN_clean_linker_2, # of connection points: 2
#     Edge 124, Type (0, 1), BuildingBlock: XUDNAN_clean_linker_2, # of connection points: 2
#     Edge 125, Type (0, 1), BuildingBlock: XUDNAN_clean_linker_2, # of connection points: 2
#     Edge 126, Type (0, 1), BuildingBlock: XUDNAN_clean_linker_2, # of connection points: 2
#     Edge 127, Type (0, 1), BuildingBlock: XUDNAN_clean_linker_2, # of connection points: 2
#     Edge 128, Type (0, 1), BuildingBlock: XUDNAN_clean_linker_2, # of connection points: 2
#     Edge 129, Type (0, 1), BuildingBlock: XUDNAN_clean_linker_2, # of connection points: 2
#     Edge 130, Type (0, 1), BuildingBlock: XUDNAN_clean_linker_2, # of connection points: 2
#     Edge 131, Type (0, 1), BuildingBlock: XUDNAN_clean_linker_2, # of connection points: 2
#     Edge 132, Type (0, 1), BuildingBlock: XUDNAN_clean_linker_2, # of connection points: 2
#     Edge 133, Type (0, 1), BuildingBlock: XUDNAN_clean_linker_2, # of connection points: 2
#     Edge 134, Type (0, 1), BuildingBlock: XUDNAN_clean_linker_2, # of connection points: 2
#     Edge 135, Type (0, 1), BuildingBlock: XUDNAN_clean_linker_2, # of connection points: 2
# Relax obj value: 0.151
# Max RMSD: 0.270
# Mean RMSD: 0.169
data_MOF--net-gar--node1-TATPOV_clean_sbu_0--node2-BETDEL_clean_sbu_0--edge1-XUDNAN_clean_linker_2
_symmetry_space_group_name_H-M    P1
_symmetry_Int_Tables_number       1
_symmetry_cell_setting            triclinic
loop_
_symmetry_equiv_pos_as_xyz
'x, y, z'
_cell_length_a     55.372215
_cell_length_b     52.878203
_cell_length_c     54.591658
_cell_angle_alpha  95.701225
_cell_angle_beta   93.081975
_cell_angle_gamma 102.79314
loop_
_atom_site_label
_atom_site_type_symbol
_atom_site_fract_x
_atom_site_fract_y
_atom_site_fract_z
_atom_type_partial_charge
Zn0 Zn 0.99453 0.25427 0.43183 0.0
Zn1 Zn 0.03397 0.26422 0.40582 0.0
O2 O 0.04118 0.29797 0.4301 0.0
O3 O 0.00738 0.2901 0.45036 0.0
O4 O 0.06275 0.26824 0.38388 0.0
O5 O 0.00317 0.22241 0.44314 0.0
O6 O 0.03637 0.23082 0.42217 0.0
C7 C 0.02765 0.30515 0.44638 0.0
C8 C 0.97984 0.25726 0.38239 0.0
O9 O 0.00337 0.26283 0.38117 0.0
O10 O 0.97081 0.25111 0.40234 0.0
C11 C 0.06486 0.28431 0.36784 0.0
O12 O 0.04854 0.29884 0.36625 0.0
C13 C 0.02288 0.21666 0.43615 0.0
Zn14 Zn 0.98077 0.70424 0.64975 0.0
Zn15 Zn 0.99639 0.74285 0.62318 0.0
O16 O 0.97 0.75474 0.64518 0.0
O17 O 0.95837 0.72272 0.66791 0.0
O18 O 0.00234 0.77015 0.599 0.0
O19 O 0.01682 0.70884 0.66165 0.0
O20 O 0.03038 0.74273 0.64162 0.0
C21 C 0.95674 0.74475 0.66179 0.0
C22 C 0.97223 0.68601 0.59982 0.0
O23 O 0.98428 0.70932 0.59863 0.0
O24 O 0.96637 0.6785 0.62038 0.0
C25 C 0.00966 0.79466 0.60482 0.0
O26 O 0.01542 0.80378 0.62818 0.0
C27 C 0.03465 0.72633 0.65604 0.0
Zn28 Zn 0.50466 0.76851 0.9339 0.0
Zn29 Zn 0.54301 0.77562 0.90709 0.0
O30 O 0.5527 0.80936 0.9316 0.0
O31 O 0.52023 0.80287 0.95378 0.0
O32 O 0.57144 0.77764 0.88465 0.0
O33 O 0.50923 0.7346 0.94372 0.0
O34 O 0.5428 0.74119 0.92308 0.0
C35 C 0.54061 0.8171 0.94896 0.0
C36 C 0.48946 0.77444 0.88542 0.0
O37 O 0.51272 0.77723 0.88309 0.0
O38 O 0.4808 0.76913 0.90572 0.0
C39 C 0.57471 0.79458 0.86942 0.0
O40 O 0.55988 0.81082 0.86903 0.0
C41 C 0.52819 0.72741 0.93651 0.0
Zn42 Zn 0.4676 0.20473 0.13843 0.0
Zn43 Zn 0.48612 0.2492 0.11938 0.0
O44 O 0.45904 0.258 0.14145 0.0
O45 O 0.44333 0.22138 0.15661 0.0
O46 O 0.49319 0.27901 0.09845 0.0
O47 O 0.50335 0.20975 0.15277 0.0
O48 O 0.51852 0.24718 0.13855 0.0
C49 C 0.44376 0.24518 0.15493 0.0
C50 C 0.46621 0.19494 0.08758 0.0
O51 O 0.47699 0.21902 0.09157 0.0
O52 O 0.45772 0.18291 0.1053 0.0
C53 C 0.50525 0.30246 0.10399 0.0
O54 O 0.51582 0.31003 0.12644 0.0
C55 C 0.52162 0.22852 0.15062 0.0
Zn56 Zn 0.07632 0.79163 0.11293 0.0
Zn57 Zn 0.03687 0.79497 0.13851 0.0
O58 O 0.03612 0.8225 0.11439 0.0
O59 O 0.06783 0.81855 0.09274 0.0
O60 O 0.0084 0.79638 0.15994 0.0
O61 O 0.06217 0.75391 0.10204 0.0
O62 O 0.0288 0.75687 0.1214 0.0
C63 C 0.04972 0.82896 0.09688 0.0
C64 C 0.08971 0.80532 0.16412 0.0
O65 O 0.06651 0.80381 0.16492 0.0
O66 O 0.09884 0.80117 0.14378 0.0
C67 C 0.9878 0.8018 0.15381 0.0
O68 O 0.98331 0.80688 0.13116 0.0
C69 C 0.0408 0.7435 0.10802 0.0
Zn70 Zn 0.45468 0.74996 0.41505 0.0
Zn71 Zn 0.49006 0.75335 0.38204 0.0
O72 O 0.49686 0.79107 0.39849 0.0
O73 O 0.46854 0.78883 0.4256 0.0
O74 O 0.51619 0.75217 0.35807 0.0
O75 O 0.46833 0.72231 0.43118 0.0
O76 O 0.49704 0.72683 0.40461 0.0
C77 C 0.48645 0.80207 0.41545 0.0
C78 C 0.43494 0.73888 0.36391 0.0
O79 O 0.45778 0.74325 0.35965 0.0
O80 O 0.42877 0.73995 0.38595 0.0
C81 C 0.53864 0.76438 0.36326 0.0
O82 O 0.54476 0.77952 0.38427 0.0
C83 C 0.48746 0.71626 0.42282 0.0
Zn84 Zn 0.58187 0.3042 0.64715 0.0
Zn85 Zn 0.54244 0.29904 0.67473 0.0
O86 O 0.53912 0.32705 0.65171 0.0
O87 O 0.57109 0.33155 0.62896 0.0
O88 O 0.51221 0.29876 0.6946 0.0
O89 O 0.56965 0.26583 0.63439 0.0
O90 O 0.53638 0.2624 0.65543 0.0
C91 C 0.55119 0.33775 0.63477 0.0
C92 C 0.59642 0.31353 0.69891 0.0
O93 O 0.573 0.30701 0.70077 0.0
O94 O 0.60485 0.31493 0.67787 0.0
C95 C 0.51003 0.32041 0.70569 0.0
O96 O 0.52796 0.34122 0.70498 0.0
C97 C 0.54935 0.25231 0.6403 0.0
Zn98 Zn 0.9456 0.23073 0.87839 0.0
Zn99 Zn 0.98658 0.25118 0.85854 0.0
O100 O 0.98222 0.28482 0.87898 0.0
O101 O 0.94581 0.26765 0.89202 0.0
O102 O 0.01862 0.25983 0.84083 0.0
O103 O 0.96106 0.20845 0.89863 0.0
O104 O 0.99501 0.224 0.8808 0.0
C105 C 0.96334 0.28733 0.89064 0.0
C106 C 0.93623 0.22509 0.82768 0.0
O107 O 0.95824 0.23943 0.83005 0.0
O108 O 0.92645 0.21584 0.84621 0.0
C109 C 0.01897 0.26414 0.8183 0.0
O110 O 0.99817 0.26541 0.80624 0.0
C111 C 0.98369 0.20925 0.89572 0.0
Zn112 Zn 0.45019 0.03522 0.26517 0.0
Zn113 Zn 0.4213 0.06975 0.26741 0.0
O114 O 0.44095 0.07736 0.30141 0.0
O115 O 0.46478 0.04905 0.29975 0.0
O116 O 0.39758 0.09361 0.27104 0.0
O117 O 0.46583 0.05179 0.23695 0.0
O118 O 0.44194 0.08004 0.23753 0.0
C119 C 0.45742 0.06745 0.31147 0.0
C120 C 0.39897 0.01023 0.26015 0.0
O121 O 0.39698 0.03385 0.26326 0.0
O122 O 0.42018 0.00505 0.25931 0.0
C123 C 0.38109 0.09513 0.25447 0.0
O124 O 0.38019 0.08209 0.23254 0.0
C125 C 0.4593 0.07077 0.22823 0.0
Zn126 Zn 0.23415 0.18249 0.48919 0.0
Zn127 Zn 0.2717 0.15844 0.49194 0.0
O128 O 0.27837 0.18028 0.46184 0.0
O129 O 0.24724 0.19997 0.46012 0.0
O130 O 0.29949 0.13865 0.49249 0.0
O131 O 0.24378 0.19854 0.52458 0.0
O132 O 0.27594 0.18036 0.52618 0.0
C133 C 0.26687 0.19545 0.45164 0.0
C134 C 0.21666 0.12759 0.48465 0.0
O135 O 0.23975 0.12834 0.48861 0.0
O136 O 0.20935 0.14841 0.48289 0.0
C137 C 0.30165 0.12413 0.47306 0.0
O138 O 0.2862 0.12292 0.45362 0.0
C139 C 0.26265 0.19462 0.53646 0.0
Zn140 Zn 0.12184 0.04229 0.78981 0.0
Zn141 Zn 0.15589 0.01472 0.78823 0.0
O142 O 0.1375 0.00348 0.81913 0.0
O143 O 0.11424 0.0323 0.82328 0.0
O144 O 0.18152 0.99276 0.78476 0.0
O145 O 0.10282 0.02149 0.75946 0.0
O146 O 0.1356 0.00486 0.75448 0.0
C147 C 0.12244 0.01392 0.83124 0.0
C148 C 0.17035 0.07419 0.78984 0.0
O149 O 0.17666 0.05275 0.79244 0.0
O150 O 0.14766 0.07463 0.78663 0.0
C151 C 0.17508 0.96905 0.77523 0.0
O152 O 0.15147 0.95876 0.76879 0.0
C153 C 0.11453 0.00786 0.74649 0.0
Zn154 Zn 0.27302 0.85306 0.00572 0.0
Zn155 Zn 0.24959 0.8921 0.00907 0.0
O156 O 0.24286 0.8765 0.97227 0.0
O157 O 0.26095 0.84324 0.97059 0.0
O158 O 0.23074 0.92081 0.01164 0.0
O159 O 0.25252 0.83539 0.0304 0.0
O160 O 0.23371 0.86805 0.03442 0.0
C161 C 0.24827 0.85684 0.96017 0.0
C162 C 0.30612 0.90319 0.01957 0.0
O163 O 0.28609 0.91129 0.0184 0.0
O164 O 0.30547 0.87907 0.01508 0.0
C165 C 0.23517 0.93971 0.99859 0.0
O166 O 0.25262 0.9407 0.98309 0.0
C167 C 0.23652 0.84603 0.04012 0.0
Zn168 Zn 0.25945 0.35329 0.01976 0.0
Zn169 Zn 0.24193 0.39478 0.02772 0.0
O170 O 0.2327 0.37758 0.99138 0.0
O171 O 0.23963 0.33815 0.98779 0.0
O172 O 0.21926 0.42047 0.03216 0.0
O173 O 0.25081 0.33908 0.05154 0.0
O174 O 0.23572 0.37396 0.05863 0.0
C175 C 0.23208 0.35607 0.9782 0.0
C176 C 0.29563 0.40468 0.02154 0.0
O177 O 0.27818 0.41539 0.02826 0.0
O178 O 0.29171 0.38002 0.01705 0.0
C179 C 0.20884 0.42932 0.01452 0.0
O180 O 0.21407 0.42339 0.99178 0.0
C181 C 0.24022 0.35294 0.06559 0.0
Zn182 Zn 0.7728 0.19917 0.99181 0.0
Zn183 Zn 0.79892 0.16295 0.99687 0.0
O184 O 0.81562 0.18249 0.96905 0.0
O185 O 0.79579 0.21414 0.96723 0.0
O186 O 0.81917 0.13599 0.00127 0.0
O187 O 0.78035 0.2129 0.02723 0.0
O188 O 0.80433 0.18501 0.03107 0.0
C189 C 0.81271 0.20312 0.96018 0.0
C190 C 0.74233 0.14774 0.98283 0.0
O191 O 0.76274 0.1414 0.98822 0.0
O192 O 0.74186 0.17147 0.98215 0.0
C193 C 0.81408 0.11355 0.98887 0.0
O194 O 0.79468 0.10723 0.97269 0.0
C195 C 0.79519 0.20366 0.04014 0.0
Zn196 Zn 0.07846 0.5363 0.24431 0.0
Zn197 Zn 0.11038 0.50509 0.24395 0.0
O198 O 0.08801 0.49035 0.2704 0.0
O199 O 0.05957 0.51354 0.26788 0.0
O200 O 0.13678 0.48445 0.24217 0.0
O201 O 0.07023 0.52648 0.20805 0.0
O202 O 0.09258 0.4968 0.20879 0.0
C203 C 0.06766 0.49547 0.27674 0.0
C204 C 0.12759 0.56508 0.25752 0.0
O205 O 0.13182 0.54238 0.2534 0.0
O206 O 0.10556 0.56811 0.25567 0.0
C207 C 0.14807 0.47946 0.26135 0.0
O208 O 0.14149 0.48675 0.28324 0.0
C209 C 0.07788 0.50779 0.19727 0.0
Zn210 Zn 0.78044 0.86936 0.52413 0.0
Zn211 Zn 0.75416 0.90384 0.52624 0.0
O212 O 0.74972 0.88538 0.48998 0.0
O213 O 0.76354 0.8497 0.49211 0.0
O214 O 0.72977 0.92785 0.52684 0.0
O215 O 0.77202 0.85786 0.55698 0.0
O216 O 0.74451 0.88216 0.55599 0.0
C217 C 0.75341 0.86395 0.47959 0.0
C218 C 0.80968 0.92232 0.52713 0.0
O219 O 0.78921 0.92844 0.53167 0.0
O220 O 0.81031 0.89858 0.52217 0.0
C221 C 0.73533 0.9507 0.52018 0.0
O222 O 0.75738 0.95905 0.5123 0.0
C223 C 0.75442 0.86596 0.56645 0.0
Zn224 Zn 0.92035 0.00735 0.22736 0.0
Zn225 Zn 0.89177 0.03959 0.23318 0.0
O226 O 0.90848 0.03975 0.26859 0.0
O227 O 0.93668 0.01699 0.26149 0.0
O228 O 0.8707 0.06703 0.23651 0.0
O229 O 0.93554 0.02162 0.19821 0.0
O230 O 0.91459 0.05219 0.20497 0.0
C231 C 0.92611 0.02988 0.27654 0.0
C232 C 0.86944 0.98085 0.22184 0.0
O233 O 0.86604 0.00406 0.2243 0.0
O234 O 0.89124 0.97715 0.22259 0.0
C235 C 0.85364 0.0661 0.21959 0.0
O236 O 0.85002 0.04732 0.2012 0.0
C237 C 0.93004 0.0424 0.19275 0.0
Zn238 Zn 0.26049 0.67768 0.51393 0.0
Zn239 Zn 0.28646 0.64176 0.51347 0.0
O240 O 0.29966 0.66149 0.4844 0.0
O241 O 0.27418 0.68812 0.48276 0.0
O242 O 0.30508 0.61319 0.51457 0.0
O243 O 0.27789 0.69581 0.54548 0.0
O244 O 0.2974 0.6638 0.54735 0.0
C245 C 0.29176 0.67912 0.47434 0.0
C246 C 0.22907 0.62779 0.50908 0.0
O247 O 0.24975 0.62108 0.50783 0.0
O248 O 0.22862 0.65162 0.51314 0.0
C249 C 0.31358 0.60311 0.49574 0.0
O250 O 0.31035 0.61149 0.47422 0.0
C251 C 0.29288 0.6852 0.5566 0.0
Zn252 Zn 0.41678 0.5176 0.7299 0.0
Zn253 Zn 0.39702 0.55413 0.73845 0.0
O254 O 0.41979 0.55479 0.77098 0.0
O255 O 0.44399 0.5301 0.75628 0.0
O256 O 0.38009 0.58463 0.7442 0.0
O257 O 0.42306 0.52311 0.6954 0.0
O258 O 0.41587 0.56169 0.7064 0.0
C259 C 0.43872 0.5449 0.77379 0.0
C260 C 0.36718 0.49802 0.73598 0.0
O261 O 0.36695 0.52181 0.73404 0.0
O262 O 0.38753 0.49101 0.73695 0.0
C263 C 0.3717 0.58993 0.76487 0.0
O264 O 0.37476 0.57591 0.78287 0.0
C265 C 0.42336 0.54608 0.69072 0.0
Zn266 Zn 0.58531 0.02998 0.74222 0.0
Zn267 Zn 0.61858 0.0001 0.74593 0.0
O268 O 0.59479 0.98693 0.77187 0.0
O269 O 0.56566 0.00875 0.7664 0.0
O270 O 0.64577 0.9807 0.74903 0.0
O271 O 0.57968 0.01725 0.70606 0.0
O272 O 0.60376 0.98947 0.70986 0.0
C273 C 0.574 0.99182 0.77697 0.0
C274 C 0.63369 0.06049 0.75664 0.0
O275 O 0.63851 0.03799 0.75386 0.0
O276 O 0.61152 0.06285 0.75348 0.0
C277 C 0.66182 0.98746 0.76741 0.0
O278 O 0.65938 0.00589 0.78446 0.0
C279 C 0.58905 0.99908 0.69681 0.0
Zn280 Zn 0.72728 0.69423 0.9823 0.0
Zn281 Zn 0.76263 0.6714 0.99324 0.0
O282 O 0.77427 0.69017 0.96213 0.0
O283 O 0.74187 0.70567 0.95165 0.0
O284 O 0.7891 0.65187 0.00178 0.0
O285 O 0.734 0.71708 0.01448 0.0
O286 O 0.76168 0.69551 0.0257 0.0
C287 C 0.76317 0.70212 0.94748 0.0
C288 C 0.70804 0.64055 0.9842 0.0
O289 O 0.73107 0.64099 0.98799 0.0
O290 O 0.70126 0.66137 0.98097 0.0
C291 C 0.79589 0.63582 0.98616 0.0
O292 O 0.78662 0.63281 0.96311 0.0
C293 C 0.74903 0.71255 0.03087 0.0
Zn294 Zn 0.94818 0.54396 0.76098 0.0
Zn295 Zn 0.91012 0.5676 0.7565 0.0
O296 O 0.92265 0.575 0.79353 0.0
O297 O 0.95594 0.55877 0.79635 0.0
O298 O 0.88184 0.5859 0.75477 0.0
O299 O 0.96496 0.56438 0.73526 0.0
O300 O 0.93356 0.58336 0.73078 0.0
C301 C 0.94107 0.5709 0.80631 0.0
C302 C 0.9005 0.50833 0.74649 0.0
O303 O 0.89287 0.52936 0.74673 0.0
O304 O 0.9232 0.50915 0.75211 0.0
C305 C 0.86495 0.58121 0.76969 0.0
O306 O 0.8664 0.56451 0.78569 0.0
C307 C 0.95477 0.58016 0.72494 0.0
Zn308 Zn 0.75996 0.32567 0.50307 0.0
Zn309 Zn 0.73558 0.36415 0.49661 0.0
O310 O 0.73094 0.3429 0.46205 0.0
O311 O 0.74926 0.3107 0.46834 0.0
O312 O 0.7187 0.39386 0.49293 0.0
O313 O 0.73684 0.31365 0.52858 0.0
O314 O 0.717 0.34487 0.52345 0.0
C315 C 0.73711 0.32183 0.45429 0.0
C316 C 0.79163 0.37692 0.51198 0.0
O317 O 0.77136 0.38369 0.50723 0.0
O318 O 0.79202 0.353 0.5112 0.0
C319 C 0.71336 0.40633 0.51228 0.0
O320 O 0.71855 0.39921 0.53397 0.0
C321 C 0.71959 0.32498 0.53376 0.0
Zn322 Zn 0.61951 0.53168 0.29101 0.0
Zn323 Zn 0.64431 0.4987 0.28107 0.0
O324 O 0.62825 0.48915 0.31415 0.0
O325 O 0.61491 0.52441 0.32539 0.0
O326 O 0.66453 0.47096 0.27416 0.0
O327 O 0.59275 0.51572 0.26484 0.0
O328 O 0.61872 0.49311 0.25021 0.0
C329 C 0.61859 0.50259 0.32999 0.0
C330 C 0.66706 0.55794 0.2829 0.0
O331 O 0.67045 0.5348 0.28318 0.0
O332 O 0.64548 0.56188 0.2843 0.0
C333 C 0.68505 0.47311 0.28679 0.0
O334 O 0.69266 0.49332 0.30361 0.0
C335 C 0.59835 0.50052 0.24786 0.0
Dy336 Dy 1.0009 0.0264 0.00926 0.0
C337 C 0.10755 0.03973 0.01923 0.0
C338 C 0.95253 0.02945 0.0113 0.0
Dy339 Dy 0.05879 0.04231 0.0191 0.0
O340 O 0.96016 0.01198 0.99716 0.0
O341 O 0.97123 0.04467 0.02464 0.0
O342 O 0.00399 0.99894 0.97566 0.0
O343 O 0.03228 0.03231 0.98697 0.0
C344 C 0.0264 0.01158 0.97243 0.0
C345 C 0.03261 0.05668 0.05572 0.0
O346 O 0.05423 0.07686 0.00057 0.0
O347 O 0.01097 0.06785 -0.00022 0.0
O348 O 0.09305 0.03302 0.03654 0.0
O349 O 0.09565 0.04883 0.00225 0.0
O350 O 0.05476 0.06993 0.05231 0.0
O351 O 0.0273 0.03581 0.04136 0.0
O352 O 0.00708 0.99298 0.02863 0.0
O353 O 0.04775 0.99857 0.01771 0.0
C354 C 0.03268 0.08325 0.99615 0.0
C355 C 0.02744 0.98417 0.02548 0.0
Dy356 Dy 0.2604 0.78503 0.24141 0.0
C357 C 0.27987 0.78407 0.34618 0.0
C358 C 0.24061 0.78963 0.19605 0.0
Dy359 Dy 0.2691 0.79159 0.29867 0.0
O360 O 0.25018 0.77032 0.2014 0.0
O361 O 0.24219 0.80655 0.21532 0.0
O362 O 0.29044 0.76316 0.23543 0.0
O363 O 0.2922 0.78915 0.26771 0.0
C364 C 0.30125 0.77121 0.25746 0.0
C365 C 0.22759 0.80306 0.28027 0.0
O366 O 0.28849 0.83174 0.29238 0.0
O367 O 0.27832 0.8278 0.24976 0.0
O368 O 0.29525 0.79813 0.33298 0.0
O369 O 0.25858 0.77523 0.33366 0.0
O370 O 0.23901 0.81456 0.30121 0.0
O371 O 0.23759 0.78522 0.27221 0.0
O372 O 0.23694 0.74804 0.25131 0.0
O373 O 0.26006 0.74804 0.28784 0.0
C374 C 0.28825 0.84159 0.27099 0.0
C375 C 0.24361 0.73574 0.2696 0.0
Dy376 Dy 0.54569 0.04055 0.51225 0.0
C377 C 0.44041 0.03747 0.49446 0.0
C378 C 0.59229 0.03262 0.52205 0.0
Dy379 Dy 0.48666 0.03008 0.50709 0.0
O380 O 0.58747 0.05308 0.51316 0.0
O381 O 0.57168 0.01686 0.52604 0.0
O382 O 0.54909 0.0705 0.48522 0.0
O383 O 0.51695 0.04063 0.48386 0.0
C384 C 0.52612 0.06209 0.47628 0.0
C385 C 0.50668 0.00889 0.54307 0.0
O386 O 0.49076 0.99406 0.48405 0.0
O387 O 0.53399 0.00064 0.49084 0.0
O388 O 0.44979 0.03823 0.51697 0.0
O389 O 0.45594 0.0317 0.47897 0.0
O390 O 0.48415 0.99903 0.5331 0.0
O391 O 0.51533 0.03049 0.53546 0.0
O392 O 0.53999 0.07233 0.54009 0.0
O393 O 0.49972 0.07171 0.5246 0.0
C394 C 0.51192 0.98646 0.48147 0.0
C395 C 0.52027 0.08277 0.53896 0.0
Dy396 Dy 0.23358 0.28211 0.75311 0.0
C397 C 0.34134 0.30854 0.75925 0.0
C398 C 0.18333 0.26643 0.75659 0.0
Dy399 Dy 0.29096 0.29544 0.76284 0.0
O400 O 0.19382 0.27653 0.738 0.0
O401 O 0.20034 0.26397 0.77292 0.0
O402 O 0.23539 0.31574 0.73029 0.0
O403 O 0.26269 0.31771 0.75864 0.0
C404 C 0.25666 0.32881 0.74076 0.0
C405 C 0.26743 0.25061 0.77788 0.0
O406 O 0.28187 0.31583 0.79792 0.0
O407 O 0.23963 0.29564 0.79392 0.0
O408 O 0.32749 0.28508 0.75602 0.0
O409 O 0.32771 0.32511 0.76489 0.0
O410 O 0.28805 0.26499 0.78881 0.0
O411 O 0.26162 0.25962 0.75839 0.0
O412 O 0.24399 0.26026 0.71947 0.0
O413 O 0.28391 0.28623 0.7217 0.0
C414 C 0.25973 0.3102 0.80693 0.0
C415 C 0.26523 0.26864 0.70947 0.0
Dy416 Dy 0.00703 0.9893 0.47828 0.0
C417 C 0.04855 0.00476 0.57864 0.0
C418 C 0.97373 0.9831 0.43835 0.0
Dy419 Dy 0.0315 0.00715 0.53152 0.0
O420 O 0.99358 0.97358 0.43882 0.0
O421 O 0.97153 0.99441 0.46009 0.0
O422 O 0.04214 0.00648 0.46161 0.0
O423 O 0.04405 0.99333 0.49652 0.0
C424 C 0.05651 0.00546 0.48088 0.0
C425 C 0.98325 0.00796 0.524 0.0
O426 O 0.04343 0.04465 0.51577 0.0
O427 O 0.0109 0.03291 0.48513 0.0
O428 O 0.02604 0.99567 0.56914 0.0
O429 O 0.06225 0.0165 0.56252 0.0
O430 O 0.99882 0.02515 0.53919 0.0
O431 O 0.99405 0.99116 0.51481 0.0
O432 O 0.00393 0.94936 0.49088 0.0
O433 O 0.0306 0.96456 0.52632 0.0
C434 C 0.02927 0.05058 0.49791 0.0
C435 C 0.01646 0.94523 0.51108 0.0
Dy436 Dy 0.30694 0.80066 0.76264 0.0
C437 C 0.20957 0.75138 0.71839 0.0
C438 C 0.35174 0.81557 0.78972 0.0
Dy439 Dy 0.25512 0.77168 0.74329 0.0
O440 O 0.34803 0.81873 0.76665 0.0
O441 O 0.33071 0.80555 0.79821 0.0
O442 O 0.31677 0.80756 0.72435 0.0
O443 O 0.2917 0.77307 0.73 0.0
C444 C 0.30196 0.78624 0.71387 0.0
C445 C 0.26019 0.78786 0.79215 0.0
O446 O 0.27332 0.73767 0.74471 0.0
O447 O 0.30461 0.76026 0.77351 0.0
O448 O 0.21808 0.74322 0.73801 0.0
O449 O 0.22628 0.77037 0.71179 0.0
O450 O 0.2452 0.7664 0.7823 0.0
O451 O 0.27029 0.79969 0.7753 0.0
O452 O 0.29079 0.83547 0.7602 0.0
O453 O 0.2559 0.81317 0.735 0.0
C454 C 0.29156 0.73805 0.76159 0.0
C455 C 0.27066 0.83537 0.7458 0.0
Dy456 Dy 0.53187 0.04037 0.02999 0.0
C457 C 0.51546 0.97919 0.93463 0.0
C458 C 0.53208 0.07117 0.07332 0.0
Dy459 Dy 0.51735 0.01003 0.97813 0.0
O460 O 0.54145 0.05068 0.0708 0.0
O461 O 0.52302 0.07515 0.05197 0.0
O462 O 0.55765 0.01348 0.03683 0.0
O463 O 0.52424 -0.00025 0.01469 0.0
C464 C 0.54378 0.99393 0.02252 0.0
C465 C 0.50532 0.05627 0.98477 0.0
O466 O 0.48603 0.98993 0.99819 0.0
O467 O 0.49053 0.02356 0.02998 0.0
O468 O 0.49901 0.99224 0.94081 0.0
O469 O 0.53286 0.98279 0.95238 0.0
O470 O 0.49209 0.03679 0.97008 0.0
O471 O 0.52483 0.0508 0.9932 0.0
O472 O 0.56506 0.05883 0.01157 0.0
O473 O 0.55859 0.02709 0.97757 0.0
C474 C 0.47714 0.00202 0.01689 0.0
C475 C 0.57286 0.04738 0.99176 0.0
Dy476 Dy 0.26812 0.31641 0.26983 0.0
C477 C 0.2627 0.20658 0.26482 0.0
C478 C 0.26421 0.36683 0.26894 0.0
Dy479 Dy 0.25578 0.2554 0.25979 0.0
O480 O 0.26084 0.35379 0.28791 0.0
O481 O 0.27088 0.35265 0.25089 0.0
O482 O 0.29371 0.31432 0.30303 0.0
O483 O 0.26227 0.28426 0.29189 0.0
C484 C 0.28144 0.29107 0.30656 0.0
C485 C 0.24109 0.27971 0.22314 0.0
O486 O 0.22069 0.25985 0.27637 0.0
O487 O 0.2265 0.3039 0.27078 0.0
O488 O 0.2583 0.21511 0.24386 0.0
O489 O 0.26191 0.22426 0.28284 0.0
O490 O 0.23065 0.25555 0.22586 0.0
O491 O 0.2604 0.28757 0.23766 0.0
O492 O 0.30259 0.31262 0.25204 0.0
O493 O 0.29661 0.26788 0.25394 0.0
C494 C 0.21256 0.28169 0.27648 0.0
C495 C 0.31034 0.2906 0.24914 0.0
Dy496 Dy 0.50655 0.49928 0.98126 0.0
C497 C 0.53058 0.51888 0.08466 0.0
C498 C 0.49083 0.4972 0.93258 0.0
Dy499 Dy 0.5147 0.51548 0.03601 0.0
O500 O 0.51112 0.49135 0.94078 0.0
O501 O 0.47831 0.50263 0.95105 0.0
O502 O 0.54544 0.49363 0.98048 0.0
O503 O 0.53785 0.52309 0.00523 0.0
C504 C 0.55463 0.5119 0.99834 0.0
C505 C 0.4667 0.50214 0.01833 0.0
O506 O 0.52337 0.55553 0.02455 0.0
O507 O 0.50419 0.5418 0.98529 0.0
O508 O 0.51005 0.52418 0.0764 0.0
O509 O 0.54296 0.51286 0.06631 0.0
O510 O 0.47511 0.51984 0.03686 0.0
O511 O 0.48376 0.49135 0.01179 0.0
O512 O 0.50054 0.45905 0.99332 0.0
O513 O 0.52003 0.47458 0.03218 0.0
C514 C 0.51445 0.56073 0.0031 0.0
C515 C 0.51076 0.45505 0.01477 0.0
Dy516 Dy 0.79413 0.28053 0.25678 0.0
C517 C 0.69584 0.24331 0.20967 0.0
C518 C 0.83822 0.28809 0.28452 0.0
Dy519 Dy 0.74201 0.2581 0.23425 0.0
O520 O 0.83494 0.299 0.26469 0.0
O521 O 0.8172 0.27394 0.28968 0.0
O522 O 0.80478 0.29907 0.22263 0.0
O523 O 0.77829 0.2638 0.21961 0.0
C524 C 0.78912 0.28163 0.20772 0.0
C525 C 0.74774 0.25727 0.2834 0.0
O526 O 0.75914 0.2241 0.22381 0.0
O527 O 0.79233 0.23719 0.25312 0.0
O528 O 0.70464 0.23092 0.22606 0.0
O529 O 0.71256 0.26388 0.20612 0.0
O530 O 0.73264 0.23931 0.26865 0.0
O531 O 0.75778 0.27518 0.27129 0.0
O532 O 0.77859 0.31574 0.2654 0.0
O533 O 0.74323 0.30156 0.23838 0.0
C534 C 0.77804 0.21898 0.2369 0.0
C535 C 0.75866 0.32024 0.25349 0.0
Dy536 Dy 0.0114 0.52643 0.52666 0.0
C537 C 0.00153 0.46946 0.42938 0.0
C538 C 0.00922 0.5589 0.56801 0.0
Dy539 Dy 1.00049 0.49797 0.4736 0.0
O540 O 0.02692 0.54674 0.56423 0.0
O541 O 0.99268 0.5531 0.54938 0.0
O542 O 0.03502 0.49838 0.5367 0.0
O543 O 0.00487 0.48632 0.51016 0.0
C544 C 0.02328 0.47993 0.51993 0.0
C545 C 0.989 0.54484 0.48094 0.0
O546 O 0.96781 0.47655 0.49116 0.0
O547 O 0.97023 0.50821 0.5245 0.0
O548 O 0.98429 0.48156 0.4352 0.0
O549 O 0.01808 0.4727 0.44786 0.0
O550 O 0.97627 0.52589 0.46531 0.0
O551 O 0.00753 0.53818 0.49007 0.0
O552 O 0.04469 0.54628 0.50932 0.0
O553 O 0.04205 0.51397 0.47662 0.0
C554 C 0.95777 0.48729 0.50987 0.0
C555 C 0.05488 0.53457 0.49138 0.0
Dy556 Dy 0.73645 0.77099 0.26339 0.0
C557 C 0.84017 0.79311 0.24677 0.0
C558 C 0.68943 0.76108 0.27824 0.0
Dy559 Dy 0.79239 0.77884 0.25954 0.0
O560 O 0.70578 0.78294 0.28322 0.0
O561 O 0.69859 0.74433 0.26475 0.0
O562 O 0.73498 0.80409 0.24097 0.0
O563 O 0.76724 0.8049 0.26339 0.0
C564 C 0.75799 0.81592 0.24703 0.0
C565 C 0.77055 0.73251 0.27382 0.0
O566 O 0.79012 0.80283 0.29539 0.0
O567 O 0.75278 0.77657 0.30264 0.0
O568 O 0.83366 0.78357 0.26709 0.0
O569 O 0.82061 0.79519 0.23365 0.0
O570 O 0.79351 0.74427 0.28017 0.0
O571 O 0.76152 0.74468 0.25832 0.0
O572 O 0.73493 0.75516 0.22386 0.0
O573 O 0.77751 0.76772 0.21976 0.0
C574 C 0.77291 0.79471 0.31065 0.0
C575 C 0.75431 0.75821 0.21028 0.0
Dy576 Dy 0.76049 0.27543 0.72749 0.0
C577 C 0.82355 0.27622 0.81417 0.0
C578 C 0.72877 0.27859 0.68873 0.0
Dy579 Dy 0.79111 0.28373 0.77776 0.0
O580 O 0.73813 0.25855 0.69172 0.0
O581 O 0.737 0.29698 0.7067 0.0
O582 O 0.78407 0.24832 0.71275 0.0
O583 O 0.7993 0.27966 0.73942 0.0
C584 C 0.80347 0.25983 0.72739 0.0
C585 C 0.74857 0.29994 0.778 0.0
O586 O 0.81004 0.31975 0.76218 0.0
O587 O 0.77918 0.31825 0.73102 0.0
O588 O 0.80974 0.29318 0.81627 0.0
O589 O 0.81964 0.2636 0.79221 0.0
O590 O 0.76743 0.31024 0.79385 0.0
O591 O 0.75237 0.28007 0.76573 0.0
O592 O 0.73948 0.24201 0.74521 0.0
O593 O 0.77094 0.24114 0.77468 0.0
C594 C 0.79953 0.33079 0.74497 0.0
C595 C 0.74965 0.22987 0.76165 0.0
Dy596 Dy 0.77604 0.81924 0.76456 0.0
C597 C 0.76299 0.70793 0.75732 0.0
C598 C 0.77307 0.86971 0.7625 0.0
Dy599 Dy 0.76096 0.75879 0.75509 0.0
O600 O 0.78426 0.86147 0.78062 0.0
O601 O 0.76437 0.85054 0.74537 0.0
O602 O 0.80149 0.81625 0.79762 0.0
O603 O 0.76898 0.78752 0.78714 0.0
C604 C 0.78834 0.79354 0.80153 0.0
C605 C 0.74724 0.78398 0.71867 0.0
O606 O 0.72659 0.76473 0.77259 0.0
O607 O 0.73538 0.80978 0.77135 0.0
O608 O 0.76431 0.71953 0.73738 0.0
O609 O 0.75968 0.72387 0.77584 0.0
O610 O 0.73447 0.76122 0.72307 0.0
O611 O 0.76728 0.7904 0.73224 0.0
O612 O 0.80864 0.81358 0.74471 0.0
O613 O 0.80242 0.76962 0.75019 0.0
C614 C 0.72022 0.78757 0.77536 0.0
C615 C 0.81625 0.79149 0.74351 0.0
Dy616 Dy 0.49488 0.51051 0.50583 0.0
C617 C 0.60101 0.52329 0.5198 0.0
C618 C 0.44552 0.51032 0.50212 0.0
Dy619 Dy 0.55234 0.52604 0.51946 0.0
O620 O 0.46008 0.51372 0.48427 0.0
O621 O 0.45784 0.5065 0.5218 0.0
O622 O 0.5005 0.48029 0.47551 0.0
O623 O 0.52794 0.51442 0.486 0.0
C624 C 0.52311 0.49279 0.47284 0.0
C625 C 0.52481 0.5445 0.55239 0.0
O626 O 0.54848 0.5603 0.50021 0.0
O627 O 0.50559 0.55357 0.50217 0.0
O628 O 0.58805 0.52225 0.53899 0.0
O629 O 0.5876 0.52685 0.50076 0.0
O630 O 0.54775 0.55638 0.54996 0.0
O631 O 0.51943 0.52273 0.53931 0.0
O632 O 0.49797 0.47776 0.52731 0.0
O633 O 0.54083 0.48371 0.52638 0.0
C634 C 0.52737 0.56805 0.49752 0.0
C635 C 0.51884 0.4701 0.53159 0.0
Dy636 Dy 0.01602 0.51528 0.00051 0.0
C637 C 0.91314 0.52353 0.00773 0.0
C638 C 0.06172 0.50495 0.01043 0.0
Dy639 Dy 0.95849 0.5111 0.00475 0.0
O640 O 0.05364 0.51027 0.98911 0.0
O641 O 0.04506 0.50582 0.02613 0.0
O642 O 0.01751 0.54221 0.97116 0.0
O643 O 0.98412 0.51495 0.97551 0.0
C644 C 0.99374 0.53439 0.96467 0.0
C645 C 0.98344 0.49421 0.04063 0.0
O646 O 0.95553 0.47345 0.98184 0.0
O647 O 0.99774 0.47303 0.98649 0.0
O648 O 0.92843 0.52281 0.02636 0.0
O649 O 0.92209 0.51615 0.98741 0.0
O650 O 0.96017 0.48365 0.03395 0.0
O651 O 0.99076 0.51355 0.02925 0.0
O652 O 0.01715 0.55405 0.02221 0.0
O653 O 0.97576 0.55379 0.01175 0.0
C654 C 0.97416 0.46162 0.97893 0.0
C655 C 0.99815 0.56567 0.02199 0.0
H656 H 0.96409 0.1762 0.92859 0.0
H657 H 0.03288 0.20665 0.89597 0.0
H658 H 0.05423 0.18034 0.92101 0.0
H659 H 0.99124 0.17433 0.99015 0.0
H660 H 0.9697 0.14439 0.99443 0.0
H661 H 0.96037 0.16663 0.9749 0.0
H662 H 0.94867 0.12953 0.93858 0.0
H663 H 0.95774 0.10725 0.95813 0.0
H664 H 0.97148 0.11168 0.9292 0.0
H665 H 0.06743 0.14899 0.94868 0.0
H666 H 0.07068 0.11388 0.97457 0.0
H667 H 0.99301 0.10511 0.98877 0.0
C668 C 0.98369 0.17752 0.92672 0.0
C669 C 0.99682 0.19352 0.91031 0.0
C670 C 0.02243 0.19452 0.90842 0.0
C671 C 0.03473 0.17974 0.92265 0.0
C672 C 0.02116 0.16423 0.9387 0.0
C673 C 0.99617 0.16302 0.94073 0.0
C674 C 0.98541 0.14409 0.95846 0.0
C675 C 0.97615 0.15822 0.98081 0.0
C676 C 0.96461 0.12182 0.9453 0.0
C677 C 0.00815 0.13441 0.96582 0.0
C678 C 0.02868 0.14638 0.95448 0.0
C679 C 0.05152 0.13967 0.95781 0.0
C680 C 0.05321 0.11978 0.97264 0.0
C681 C 0.03212 0.10676 0.98376 0.0
C682 C 0.00952 0.11469 0.98064 0.0
H683 H 0.11899 0.77352 0.17522 0.0
H684 H 0.09674 0.84357 0.20367 0.0
H685 H 0.1282 0.84975 0.23944 0.0
H686 H 0.1314 0.75151 0.2364 0.0
H687 H 0.15694 0.73864 0.22558 0.0
H688 H 0.13085 0.73881 0.20444 0.0
H689 H 0.16076 0.76437 0.17581 0.0
H690 H 0.18677 0.76453 0.19696 0.0
H691 H 0.18128 0.79494 0.18814 0.0
H692 H 0.16588 0.84996 0.26963 0.0
H693 H 0.20407 0.84316 0.29167 0.0
H694 H 0.19924 0.77246 0.24228 0.0
C695 C 0.12048 0.78991 0.18925 0.0
C696 C 0.10581 0.80819 0.18688 0.0
C697 C 0.10796 0.82938 0.20544 0.0
C698 C 0.12571 0.83297 0.22571 0.0
C699 C 0.14046 0.81479 0.22719 0.0
C700 C 0.13754 0.79339 0.20961 0.0
C701 C 0.15607 0.77713 0.21443 0.0
C702 C 0.14303 0.74992 0.22059 0.0
C703 C 0.17219 0.77516 0.19254 0.0
C704 C 0.17085 0.79337 0.23677 0.0
C705 C 0.16151 0.81482 0.24426 0.0
C706 C 0.1731 0.83303 0.26409 0.0
C707 C 0.19474 0.8291 0.27643 0.0
C708 C 0.20449 0.80734 0.26861 0.0
C709 C 0.19221 0.78929 0.24871 0.0
H710 H 0.4612 0.83383 0.44108 0.0
H711 H 0.5299 0.83479 0.40603 0.0
H712 H 0.54312 0.88245 0.41779 0.0
H713 H 0.4523 0.89502 0.42239 0.0
H714 H 0.4398 0.90441 0.45082 0.0
H715 H 0.43576 0.87037 0.43978 0.0
H716 H 0.45615 0.86233 0.48128 0.0
H717 H 0.46013 0.8963 0.49249 0.0
H718 H 0.48657 0.88163 0.49234 0.0
H719 H 0.5496 0.92948 0.43494 0.0
H720 H 0.54853 0.97299 0.45529 0.0
H721 H 0.47464 0.94192 0.47731 0.0
C722 C 0.47908 0.84403 0.43595 0.0
C723 C 0.49461 0.83056 0.42275 0.0
C724 C 0.51772 0.84469 0.41614 0.0
C725 C 0.52537 0.87175 0.42273 0.0
C726 C 0.50956 0.88442 0.43565 0.0
C727 C 0.48685 0.87106 0.44207 0.0
C728 C 0.4733 0.88934 0.45584 0.0
C729 C 0.44884 0.88981 0.44133 0.0
C730 C 0.46878 0.88195 0.48204 0.0
C731 C 0.49209 0.91505 0.45643 0.0
C732 C 0.51291 0.91173 0.44475 0.0
C733 C 0.5333 0.93237 0.44392 0.0
C734 C 0.53252 0.95698 0.45556 0.0
C735 C 0.5114 0.96085 0.46765 0.0
C736 C 0.49081 0.93963 0.46779 0.0
H737 H 0.4669 0.28256 0.70712 0.0
H738 H 0.50086 0.36409 0.73106 0.0
H739 H 0.46206 0.36956 0.74875 0.0
H740 H 0.40711 0.29176 0.68922 0.0
H741 H 0.39029 0.26219 0.69991 0.0
H742 H 0.42117 0.26418 0.69025 0.0
H743 H 0.43516 0.25176 0.73261 0.0
H744 H 0.40427 0.24966 0.74238 0.0
H745 H 0.43054 0.27074 0.76055 0.0
H746 H 0.4187 0.36695 0.76198 0.0
H747 H 0.37436 0.35578 0.77052 0.0
H748 H 0.36868 0.27609 0.73854 0.0
C749 C 0.46629 0.30149 0.71634 0.0
C750 C 0.48704 0.32287 0.7177 0.0
C751 C 0.4853 0.34736 0.72976 0.0
C752 C 0.46331 0.3507 0.7399 0.0
C753 C 0.44313 0.32935 0.73797 0.0
C754 C 0.44444 0.30518 0.72661 0.0
C755 C 0.41982 0.28561 0.72646 0.0
C756 C 0.40896 0.27534 0.69988 0.0
C757 C 0.42262 0.26311 0.74139 0.0
C758 C 0.40444 0.30263 0.73926 0.0
C759 C 0.41823 0.3278 0.74578 0.0
C760 C 0.40778 0.34724 0.7571 0.0
C761 C 0.38257 0.34078 0.76181 0.0
C762 C 0.36813 0.31513 0.75524 0.0
C763 C 0.37934 0.29584 0.74398 0.0
H764 H 0.02939 0.84741 0.60985 0.0
H765 H 0.9903 0.78314 0.55646 0.0
H766 H 0.98861 0.81399 0.52549 0.0
H767 H 0.99616 0.89392 0.59324 0.0
H768 H 0.02288 0.92096 0.59776 0.0
H769 H 0.02162 0.89359 0.61514 0.0
H770 H 0.06343 0.88735 0.59918 0.0
H771 H 0.06476 0.9148 0.58183 0.0
H772 H 0.06659 0.8836 0.5664 0.0
H773 H 0.98909 0.85348 0.50089 0.0
H774 H 0.99365 0.89685 0.48537 0.0
H775 H 0.03365 0.93336 0.5551 0.0
C776 C 0.02063 0.83972 0.5916 0.0
C777 C 0.00997 0.81282 0.58565 0.0
C778 C 0.9987 0.80367 0.56148 0.0
C779 C 0.9976 0.82106 0.54375 0.0
C780 C 0.00807 0.84755 0.55034 0.0
C781 C 0.01957 0.85672 0.57368 0.0
C782 C 0.02924 0.88599 0.57641 0.0
C783 C 0.01671 0.89939 0.59684 0.0
C784 C 0.05769 0.89336 0.58122 0.0
C785 C 0.02116 0.89193 0.55112 0.0
C786 C 0.00891 0.86969 0.53622 0.0
C787 C 0.99895 0.87098 0.51236 0.0
C788 C 0.0016 0.89567 0.50366 0.0
C789 C 0.01427 0.91862 0.51875 0.0
C790 C 0.02419 0.91637 0.54271 0.0
H791 H 0.43927 0.76761 0.88508 0.0
H792 H 0.50149 0.79582 0.84224 0.0
H793 H 0.47329 0.81145 0.81346 0.0
H794 H 0.39242 0.74639 0.83384 0.0
H795 H 0.36876 0.75652 0.85123 0.0
H796 H 0.3938 0.74632 0.8669 0.0
H797 H 0.40435 0.79039 0.89511 0.0
H798 H 0.37972 0.80098 0.87914 0.0
H799 H 0.41103 0.82054 0.88133 0.0
H800 H 0.43763 0.82516 0.79014 0.0
H801 H 0.39771 0.8326 0.773 0.0
H802 H 0.36051 0.79701 0.83312 0.0
C803 C 0.44705 0.77674 0.86948 0.0
C804 C 0.47263 0.78043 0.8659 0.0
C805 C 0.48192 0.79258 0.84525 0.0
C806 C 0.46608 0.80168 0.82893 0.0
C807 C 0.44109 0.79849 0.83361 0.0
C808 C 0.43167 0.78604 0.85328 0.0
C809 C 0.40435 0.78529 0.85476 0.0
C810 C 0.38893 0.75695 0.85148 0.0
C811 C 0.3996 0.80019 0.87903 0.0
C812 C 0.39973 0.79939 0.83287 0.0
C813 C 0.42105 0.80686 0.8208 0.0
C814 C 0.4209 0.81947 0.79955 0.0
C815 C 0.39822 0.8238 0.79005 0.0
C816 C 0.37616 0.81566 0.80193 0.0
C817 C 0.37715 0.80385 0.82388 0.0
H818 H 0.44021 0.14553 0.0687 0.0
H819 H 0.49805 0.21066 0.05303 0.0
H820 H 0.5099 0.18289 0.01923 0.0
H821 H 0.46918 0.09745 0.06189 0.0
H822 H 0.44464 0.07268 0.04527 0.0
H823 H 0.43725 0.09894 0.06459 0.0
H824 H 0.41225 0.1099 0.02711 0.0
H825 H 0.42012 0.08359 0.00788 0.0
H826 H 0.42715 0.11623 -0.00092 0.0
H827 H 0.52326 0.14658 0.99672 0.0
H828 H 0.53237 0.10457 0.98072 0.0
H829 H 0.46357 0.06293 0.00613 0.0
C830 C 0.45465 0.15415 0.05744 0.0
C831 C 0.46828 0.1802 0.06362 0.0
C832 C 0.48722 0.19083 0.04864 0.0
C833 C 0.49414 0.17518 0.02934 0.0
C834 C 0.48134 0.1492 0.02461 0.0
C835 C 0.46132 0.13893 0.03752 0.0
C836 C 0.45184 0.10991 0.02956 0.0
C837 C 0.45071 0.09385 0.05166 0.0
C838 C 0.42633 0.1046 0.01504 0.0
C839 C 0.47163 0.10504 0.0127 0.0
C840 C 0.48812 0.12813 0.00967 0.0
C841 C 0.50993 0.12847 0.99794 0.0
C842 C 0.51506 0.10462 0.98908 0.0
C843 C 0.49827 0.08092 0.99167 0.0
C844 C 0.47611 0.08105 0.00318 0.0
H845 H 0.10105 0.25583 0.36461 0.0
H846 H 0.07433 0.31736 0.33234 0.0
H847 H 0.10751 0.321 0.3037 0.0
H848 H 0.16587 0.28347 0.36205 0.0
H849 H 0.17384 0.25253 0.35443 0.0
H850 H 0.14748 0.25419 0.37192 0.0
H851 H 0.1194 0.21953 0.33941 0.0
H852 H 0.14573 0.21807 0.32174 0.0
H853 H 0.11833 0.22531 0.30741 0.0
H854 H 0.14442 0.31965 0.27993 0.0
H855 H 0.18337 0.31377 0.2628 0.0
H856 H 0.18615 0.25239 0.30935 0.0
C857 C 0.10211 0.27 0.35146 0.0
C858 C 0.085 0.28631 0.35076 0.0
C859 C 0.08714 0.30463 0.33328 0.0
C860 C 0.1059 0.30681 0.31686 0.0
C861 C 0.12239 0.29045 0.318 0.0
C862 C 0.12074 0.2724 0.33482 0.0
C863 C 0.14131 0.25768 0.33252 0.0
C864 C 0.15812 0.26226 0.35667 0.0
C865 C 0.13054 0.22841 0.32481 0.0
C866 C 0.15492 0.27054 0.31198 0.0
C867 C 0.14359 0.28934 0.30387 0.0
C868 C 0.15332 0.3048 0.28593 0.0
C869 C 0.17545 0.30131 0.27631 0.0
C870 C 0.18761 0.28242 0.28452 0.0
C871 C 0.17695 0.26655 0.30231 0.0
H872 H 0.92833 0.01838 0.14673 0.0
H873 H 0.95876 0.09171 0.19191 0.0
H874 H 0.98596 0.10637 0.15886 0.0
H875 H 0.98116 0.00792 0.12558 0.0
H876 H 0.96918 0.99435 0.09456 0.0
H877 H 0.94878 0.99199 0.11913 0.0
H878 H 0.9196 0.01501 0.09536 0.0
H879 H 0.93974 0.017 0.0704 0.0
H880 H 0.93217 0.04613 0.08478 0.0
H881 H 0.01509 0.10899 0.12388 0.0
H882 H 0.04061 0.10082 0.08916 0.0
H883 H 0.98967 0.02603 0.0673 0.0
C884 C 0.94 0.03796 0.14916 0.0
C885 C 0.94135 0.05413 0.17155 0.0
C886 C 0.95718 0.07935 0.17458 0.0
C887 C 0.97273 0.08772 0.15596 0.0
C888 C 0.9717 0.07078 0.13437 0.0
C889 C 0.9552 0.04665 0.13068 0.0
C890 C 0.95895 0.03108 0.10698 0.0
C891 C 0.96488 0.00481 0.11188 0.0
C892 C 0.93627 0.02708 0.08828 0.0
C893 C 0.98115 0.04941 0.09865 0.0
C894 C 0.98811 0.07241 0.11434 0.0
C895 C 0.00941 0.0913 0.11119 0.0
C896 C 0.02387 0.08647 0.09155 0.0
C897 C 0.01698 0.06289 0.07552 0.0
C898 C 0.99521 0.0444 0.07905 0.0
H899 H 0.27072 0.66931 0.42837 0.0
H900 H 0.33446 0.71579 0.47384 0.0
H901 H 0.34133 0.74742 0.44298 0.0
H902 H 0.29364 0.68753 0.36506 0.0
H903 H 0.26232 0.68774 0.35444 0.0
H904 H 0.26783 0.66507 0.3755 0.0
H905 H 0.23869 0.68253 0.40505 0.0
H906 H 0.23398 0.70615 0.38495 0.0
H907 H 0.24578 0.71674 0.4166 0.0
H908 H 0.33508 0.7785 0.41208 0.0
H909 H 0.31945 0.80325 0.38071 0.0
H910 H 0.25799 0.73694 0.35833 0.0
C911 C 0.28712 0.68518 0.43083 0.0
C912 C 0.30252 0.68995 0.45284 0.0
C913 C 0.32308 0.71154 0.4565 0.0
C914 C 0.3269 0.7297 0.43921 0.0
C915 C 0.31002 0.72565 0.41852 0.0
C916 C 0.29093 0.70345 0.41391 0.0
C917 C 0.2731 0.70535 0.39262 0.0
C918 C 0.27431 0.68524 0.3706 0.0
C919 C 0.24633 0.70254 0.4003 0.0
C920 C 0.28405 0.73271 0.38715 0.0
C921 C 0.30564 0.744 0.40175 0.0
C922 C 0.31841 0.76966 0.40028 0.0
C923 C 0.3093 0.78366 0.38272 0.0
C924 C 0.28752 0.77197 0.36738 0.0
C925 C 0.27455 0.74647 0.37007 0.0
H926 H 0.60157 0.02522 0.65797 0.0
H927 H 0.55877 0.95258 0.67819 0.0
H928 H 0.5367 0.94287 0.63644 0.0
H929 H 0.55653 0.04434 0.63007 0.0
H930 H 0.5725 0.05842 0.605 0.0
H931 H 0.58984 0.05611 0.63305 0.0
H932 H 0.61712 0.02984 0.60883 0.0
H933 H 0.6002 0.03276 0.5805 0.0
H934 H 0.60249 0.00102 0.58833 0.0
H935 H 0.51275 0.94675 0.59695 0.0
H936 H 0.49166 0.96213 0.56199 0.0
H937 H 0.55076 0.03206 0.568 0.0
C938 C 0.58855 0.00661 0.65298 0.0
C939 C 0.58212 0.98931 0.67078 0.0
C940 C 0.56432 0.96561 0.66436 0.0
C941 C 0.55168 0.96004 0.64076 0.0
C942 C 0.5575 0.97821 0.62385 0.0
C943 C 0.57608 0.00072 0.62948 0.0
C944 C 0.57667 0.01876 0.60958 0.0
C945 C 0.57368 0.04598 0.62006 0.0
C946 C 0.60053 0.02069 0.59601 0.0
C947 C 0.55422 0.00405 0.59303 0.0
C948 C 0.54371 0.9804 0.60108 0.0
C949 C 0.52126 0.96485 0.59006 0.0
C950 C 0.5093 0.97379 0.57039 0.0
C951 C 0.51974 0.99813 0.56228 0.0
C952 C 0.54261 0.01312 0.57354 0.0
H953 H 0.21851 0.31233 0.94438 0.0
H954 H 0.24203 0.39678 0.95068 0.0
H955 H 0.25038 0.39432 0.90674 0.0
H956 H 0.26179 0.29754 0.90739 0.0
H957 H 0.24204 0.27069 0.88771 0.0
H958 H 0.23419 0.27871 0.91862 0.0
H959 H 0.19102 0.2839 0.90209 0.0
H960 H 0.19842 0.27512 0.87109 0.0
H961 H 0.189 0.30528 0.87869 0.0
H962 H 0.2645 0.38216 0.86506 0.0
H963 H 0.27404 0.36153 0.82502 0.0
H964 H 0.23743 0.28555 0.84404 0.0
C965 C 0.22443 0.33033 0.93623 0.0
C966 C 0.22955 0.35473 0.95095 0.0
C967 C 0.23764 0.37787 0.93973 0.0
C968 C 0.24268 0.37668 0.9148 0.0
C969 C 0.23879 0.35225 0.90115 0.0
C970 C 0.2289 0.32953 0.91116 0.0
C971 C 0.22705 0.30574 0.89258 0.0
C972 C 0.24218 0.28709 0.90216 0.0
C973 C 0.19975 0.29168 0.8857 0.0
C974 C 0.23862 0.31857 0.87108 0.0
C975 C 0.24547 0.3454 0.87646 0.0
C976 C 0.2586 0.36124 0.86035 0.0
C977 C 0.26422 0.34939 0.83786 0.0
C978 C 0.25634 0.3221 0.83163 0.0
C979 C 0.2434 0.30654 0.84842 0.0
H980 H 0.96292 0.01087 0.29838 0.0
H981 H 0.90068 0.04538 0.31525 0.0
H982 H 0.90494 0.0354 0.35842 0.0
H983 H 0.94711 0.95802 0.3328 0.0
H984 H 0.97859 0.9581 0.34318 0.0
H985 H 0.97228 0.97008 0.31433 0.0
H986 H 0.00271 0.01449 0.32893 0.0
H987 H 0.00965 0.0024 0.35756 0.0
H988 H 0.99897 0.03224 0.35789 0.0
H989 H 0.91462 0.01892 0.39925 0.0
H990 H 0.93184 0.00198 0.43535 0.0
H991 H 0.98674 0.97716 0.39081 0.0
C992 C 0.95045 0.01688 0.31121 0.0
C993 C 0.93148 0.02902 0.30336 0.0
C994 C 0.9155 0.03631 0.32082 0.0
C995 C 0.91765 0.03049 0.34533 0.0
C996 C 0.93587 0.01743 0.35207 0.0
C997 C 0.95224 0.01111 0.33557 0.0
C998 C 0.96988 0.99667 0.34713 0.0
C999 C 0.96676 0.96909 0.33354 0.0
C1000 C 0.9969 0.01239 0.34793 0.0
C1001 C 0.96082 0.99562 0.37274 0.0
C1002 C 0.94116 0.00766 0.37525 0.0
C1003 C 0.93 0.00949 0.39744 0.0
C1004 C 0.93977 0.99963 0.41778 0.0
C1005 C 0.96043 0.98802 0.41577 0.0
C1006 C 0.97065 0.98548 0.39278 0.0
H1007 H 0.28062 0.67395 0.60217 0.0
H1008 H 0.32991 0.72831 0.5628 0.0
H1009 H 0.34095 0.75919 0.60085 0.0
H1010 H 0.25487 0.71769 0.63248 0.0
H1011 H 0.25211 0.70426 0.66155 0.0
H1012 H 0.25282 0.68333 0.6337 0.0
H1013 H 0.29046 0.66823 0.65256 0.0
H1014 H 0.28946 0.68856 0.68084 0.0
H1015 H 0.31777 0.69225 0.66538 0.0
H1016 H 0.34009 0.78711 0.6399 0.0
H1017 H 0.33115 0.80867 0.67957 0.0
H1018 H 0.28153 0.73646 0.69332 0.0
C1019 C 0.29483 0.69169 0.60212 0.0
C1020 C 0.30514 0.69864 0.58008 0.0
C1021 C 0.32257 0.72255 0.57992 0.0
C1022 C 0.32878 0.7402 0.60135 0.0
C1023 C 0.31732 0.73348 0.62262 0.0
C1024 C 0.3011 0.70956 0.62338 0.0
C1025 C 0.28903 0.70847 0.6476 0.0
C1026 C 0.26053 0.70314 0.64356 0.0
C1027 C 0.29718 0.68817 0.66247 0.0
C1028 C 0.29994 0.73591 0.65967 0.0
C1029 C 0.31647 0.7499 0.64515 0.0
C1030 C 0.32764 0.7762 0.65173 0.0
C1031 C 0.32226 0.78834 0.67411 0.0
C1032 C 0.30575 0.77416 0.68942 0.0
C1033 C 0.29433 0.74771 0.68198 0.0
H1034 H 0.59215 0.97767 0.81979 0.0
H1035 H 0.52383 0.97833 0.77753 0.0
H1036 H 0.4998 0.96358 0.81223 0.0
H1037 H 0.56482 0.92217 0.85807 0.0
H1038 H 0.58399 0.93892 0.88513 0.0
H1039 H 0.59527 0.9419 0.85492 0.0
H1040 H 0.60332 0.99228 0.86343 0.0
H1041 H 0.59214 0.98944 0.89349 0.0
H1042 H 0.57817 0.00702 0.8722 0.0
H1043 H 0.48428 0.95871 0.85304 0.0
H1044 H 0.47876 0.96626 0.89747 0.0
H1045 H 0.55667 0.96895 0.91455 0.0
C1046 C 0.57205 0.97354 0.81757 0.0
C1047 C 0.55974 0.97877 0.796 0.0
C1048 C 0.53353 0.97424 0.79392 0.0
C1049 C 0.51973 0.96565 0.81345 0.0
C1050 C 0.53242 0.9617 0.83496 0.0
C1051 C 0.55803 0.96538 0.83715 0.0
C1052 C 0.56743 0.96438 0.86355 0.0
C1053 C 0.57853 0.94041 0.86553 0.0
C1054 C 0.58635 0.98979 0.87375 0.0
C1055 C 0.54338 0.96155 0.87612 0.0
C1056 C 0.5233 0.95914 0.85914 0.0
C1057 C 0.49969 0.95981 0.86647 0.0
C1058 C 0.49671 0.96415 0.89173 0.0
C1059 C 0.51725 0.9679 0.90927 0.0
C1060 C 0.54057 0.96542 0.90145 0.0
H1061 H 0.24034 0.30589 0.08244 0.0
H1062 H 0.22844 0.38285 0.10546 0.0
H1063 H 0.22412 0.37128 0.14812 0.0
H1064 H 0.19697 0.2702 0.12285 0.0
H1065 H 0.21674 0.24819 0.12857 0.0
H1066 H 0.21676 0.26191 0.09964 0.0
H1067 H 0.26439 0.27987 0.10674 0.0
H1068 H 0.26451 0.26633 0.13568 0.0
H1069 H 0.27715 0.30067 0.13474 0.0
H1070 H 0.22566 0.35265 0.18927 0.0
H1071 H 0.23051 0.32764 0.22459 0.0
H1072 H 0.24004 0.26263 0.17424 0.0
C1073 C 0.23642 0.32023 0.09633 0.0
C1074 C 0.23472 0.34532 0.09055 0.0
C1075 C 0.22966 0.36346 0.10936 0.0
C1076 C 0.22722 0.35707 0.13366 0.0
C1077 C 0.22955 0.33233 0.13879 0.0
C1078 C 0.23371 0.31409 0.12053 0.0
C1079 C 0.23642 0.28922 0.1309 0.0
C1080 C 0.21547 0.26601 0.11983 0.0
C1081 C 0.26215 0.28372 0.12677 0.0
C1082 C 0.23375 0.29646 0.15799 0.0
C1083 C 0.22978 0.32142 0.16221 0.0
C1084 C 0.22841 0.33299 0.18606 0.0
C1085 C 0.23138 0.31878 0.20601 0.0
C1086 C 0.23556 0.29333 0.20198 0.0
C1087 C 0.23636 0.2819 0.17768 0.0
H1088 H 0.19835 0.94389 0.02949 0.0
H1089 H 0.23813 0.98102 0.97137 0.0
H1090 H 0.21215 0.01348 0.97296 0.0
H1091 H 0.13896 0.95037 0.00856 0.0
H1092 H 0.12893 0.95664 0.03899 0.0
H1093 H 0.15183 0.93758 0.0344 0.0
H1094 H 0.18205 0.9693 0.06759 0.0
H1095 H 0.15923 0.98855 0.07218 0.0
H1096 H 0.1899 0.00371 0.06439 0.0
H1097 H 0.17945 0.03971 0.97854 0.0
H1098 H 0.14276 0.05747 0.98792 0.0
H1099 H 0.12536 0.00402 0.04309 0.0
C1100 C 0.20182 0.95901 0.01727 0.0
C1101 C 0.22034 0.9599 0.00032 0.0
C1102 C 0.22412 0.97994 0.98456 0.0
C1103 C 0.20948 0.99852 0.98536 0.0
C1104 C 0.19126 0.99694 0.00215 0.0
C1105 C 0.18747 0.97775 0.0179 0.0
C1106 C 0.16597 0.97962 0.03348 0.0
C1107 C 0.1452 0.95457 0.02855 0.0
C1108 C 0.17483 0.98566 0.06105 0.0
C1109 C 0.15798 0.00257 0.02374 0.0
C1110 C 0.17283 0.01237 0.00573 0.0
C1111 C 0.16794 0.03244 0.99287 0.0
C1112 C 0.14708 0.0424 0.99827 0.0
C1113 C 0.13147 0.0323 0.01636 0.0
C1114 C 0.13734 0.01253 0.02957 0.0
H1115 H 0.66013 0.63822 0.99362 0.0
H1116 H 0.71239 0.58921 0.97982 0.0
H1117 H 0.67924 0.55007 0.98431 0.0
H1118 H 0.62914 0.60331 0.0402 0.0
H1119 H 0.59916 0.60834 0.03026 0.0
H1120 H 0.62692 0.63195 0.02565 0.0
H1121 H 0.61363 0.62743 0.97908 0.0
H1122 H 0.58597 0.60334 0.9829 0.0
H1123 H 0.60744 0.59576 0.96127 0.0
H1124 H 0.63855 0.51614 0.98773 0.0
H1125 H 0.59538 0.49139 0.99125 0.0
H1126 H 0.57251 0.56425 0.00639 0.0
C1127 C 0.6647 0.61927 0.99139 0.0
C1128 C 0.68875 0.61668 0.98607 0.0
C1129 C 0.694 0.59156 0.98375 0.0
C1130 C 0.67532 0.5693 0.98633 0.0
C1131 C 0.65177 0.57268 0.99169 0.0
C1132 C 0.64659 0.59715 0.99437 0.0
C1133 C 0.62004 0.59595 0.00014 0.0
C1134 C 0.61876 0.61076 0.02558 0.0
C1135 C 0.60595 0.60623 0.97964 0.0
C1136 C 0.61085 0.56691 0.00023 0.0
C1137 C 0.62922 0.55364 0.99508 0.0
C1138 C 0.62421 0.5264 0.99223 0.0
C1139 C 0.59973 0.51251 0.99432 0.0
C1140 C 0.58085 0.52596 -0.00038 0.0
C1141 C 0.58671 0.55344 0.00306 0.0
H1142 H 0.67288 0.425 0.25806 0.0
H1143 H 0.73165 0.47603 0.30745 0.0
H1144 H 0.75701 0.44331 0.30287 0.0
H1145 H 0.67999 0.3652 0.28033 0.0
H1146 H 0.67387 0.34624 0.25044 0.0
H1147 H 0.66044 0.37405 0.25669 0.0
H1148 H 0.68019 0.39388 0.21893 0.0
H1149 H 0.6937 0.36611 0.21261 0.0
H1150 H 0.71323 0.39862 0.21676 0.0
H1151 H 0.77578 0.40501 0.29417 0.0
H1152 H 0.78668 0.36308 0.2822 0.0
H1153 H 0.71614 0.33587 0.23834 0.0
C1154 C 0.69116 0.42936 0.26775 0.0
C1155 C 0.70023 0.45323 0.2831 0.0
C1156 C 0.72419 0.45799 0.29561 0.0
C1157 C 0.73882 0.43951 0.2931 0.0
C1158 C 0.72932 0.41621 0.278 0.0
C1159 C 0.70606 0.41098 0.26553 0.0
C1160 C 0.70016 0.38398 0.25102 0.0
C1161 C 0.67726 0.36632 0.26018 0.0
C1162 C 0.69662 0.38577 0.22318 0.0
C1163 C 0.72369 0.37489 0.25743 0.0
C1164 C 0.74024 0.39389 0.27297 0.0
C1165 C 0.76302 0.39002 0.28191 0.0
C1166 C 0.76905 0.36605 0.27496 0.0
C1167 C 0.75238 0.34607 0.25919 0.0
C1168 C 0.72943 0.35075 0.25022 0.0
H1169 H 0.838 0.3713 0.50243 0.0
H1170 H 0.79777 0.42785 0.53153 0.0
H1171 H 0.83692 0.46195 0.53722 0.0
H1172 H 0.89636 0.39648 0.54075 0.0
H1173 H 0.91504 0.39038 0.51574 0.0
H1174 H 0.88447 0.36996 0.51674 0.0
H1175 H 0.87222 0.38016 0.47289 0.0
H1176 H 0.90269 0.40063 0.47183 0.0
H1177 H 0.87558 0.41367 0.46701 0.0
H1178 H 0.8804 0.49005 0.53846 0.0
H1179 H 0.92398 0.51067 0.53204 0.0
H1180 H 0.93445 0.436 0.49942 0.0
C1181 C 0.83752 0.39073 0.51048 0.0
C1182 C 0.81501 0.39695 0.51689 0.0
C1183 C 0.81493 0.42274 0.52667 0.0
C1184 C 0.83705 0.44216 0.53004 0.0
C1185 C 0.85892 0.43544 0.52324 0.0
C1186 C 0.85927 0.41039 0.51349 0.0
C1187 C 0.88468 0.40868 0.5056 0.0
C1188 C 0.89579 0.39029 0.52061 0.0
C1189 C 0.88372 0.4003 0.47768 0.0
C1190 C 0.89854 0.43675 0.51221 0.0
C1191 C 0.88354 0.45182 0.52277 0.0
C1192 C 0.89233 0.47843 0.53025 0.0
C1193 C 0.91705 0.48994 0.5266 0.0
C1194 C 0.93239 0.47489 0.51515 0.0
C1195 C 0.92302 0.44797 0.50805 0.0
H1196 H 0.34906 0.1115 0.22255 0.0
H1197 H 0.3697 0.11181 0.30046 0.0
H1198 H 0.33727 0.13534 0.3112 0.0
H1199 H 0.33961 0.17564 0.22748 0.0
H1200 H 0.31374 0.16837 0.2044 0.0
H1201 H 0.33699 0.14942 0.20303 0.0
H1202 H 0.30245 0.1073 0.20295 0.0
H1203 H 0.27923 0.12639 0.20479 0.0
H1204 H 0.28195 0.10455 0.2276 0.0
H1205 H 0.30423 0.16046 0.31375 0.0
H1206 H 0.27617 0.19002 0.30791 0.0
H1207 H 0.27739 0.17482 0.22848 0.0
C1208 C 0.34657 0.1163 0.24186 0.0
C1209 C 0.36185 0.1097 0.26066 0.0
C1210 C 0.35827 0.11668 0.28572 0.0
C1211 C 0.33974 0.12986 0.29203 0.0
C1212 C 0.32495 0.13601 0.27309 0.0
C1213 C 0.32829 0.12972 0.24851 0.0
C1214 C 0.31124 0.14053 0.23181 0.0
C1215 C 0.3263 0.15964 0.21575 0.0
C1216 C 0.29261 0.11837 0.21584 0.0
C1217 C 0.29831 0.15449 0.25087 0.0
C1218 C 0.30612 0.1511 0.27455 0.0
C1219 C 0.29778 0.16306 0.2953 0.0
C1220 C 0.28174 0.17972 0.2918 0.0
C1221 C 0.27443 0.18447 0.26776 0.0
C1222 C 0.28229 0.17112 0.24704 0.0
H1223 H 0.33378 0.11699 0.51112 0.0
H1224 H 0.31341 0.096 0.4326 0.0
H1225 H 0.34525 0.07008 0.43011 0.0
H1226 H 0.39943 0.12341 0.50803 0.0
H1227 H 0.40363 0.10954 0.53637 0.0
H1228 H 0.37891 0.1262 0.53219 0.0
H1229 H 0.34695 0.0851 0.54133 0.0
H1230 H 0.37159 0.06827 0.54542 0.0
H1231 H 0.34552 0.05424 0.52333 0.0
H1232 H 0.38043 0.04795 0.43547 0.0
H1233 H 0.41642 0.03066 0.44865 0.0
H1234 H 0.41339 0.06418 0.52392 0.0
C1235 C 0.336 0.10692 0.49342 0.0
C1236 C 0.32103 0.10862 0.47204 0.0
C1237 C 0.32455 0.09505 0.44926 0.0
C1238 C 0.34262 0.08021 0.44763 0.0
C1239 C 0.357 0.0789 0.46899 0.0
C1240 C 0.3539 0.0918 0.49148 0.0
C1241 C 0.37205 0.08725 0.51154 0.0
C1242 C 0.38954 0.11314 0.52268 0.0
C1243 C 0.35819 0.07285 0.53159 0.0
C1244 C 0.38594 0.07001 0.49674 0.0
C1245 C 0.37694 0.06548 0.47221 0.0
C1246 C 0.38745 0.05111 0.45467 0.0
C1247 C 0.40785 0.04133 0.46233 0.0
C1248 C 0.41743 0.04574 0.48733 0.0
C1249 C 0.40612 0.06005 0.50477 0.0
H1250 H 0.66363 0.60332 0.26536 0.0
H1251 H 0.71685 0.56439 0.29733 0.0
H1252 H 0.74971 0.60514 0.29864 0.0
H1253 H 0.70593 0.64138 0.22692 0.0
H1254 H 0.692 0.66908 0.23144 0.0
H1255 H 0.67348 0.63661 0.23233 0.0
H1256 H 0.66092 0.65078 0.27577 0.0
H1257 H 0.67965 0.68317 0.27513 0.0
H1258 H 0.68479 0.66472 0.30018 0.0
H1259 H 0.77573 0.65182 0.29919 0.0
H1260 H 0.79359 0.69834 0.29498 0.0
H1261 H 0.72302 0.70504 0.26105 0.0
C1262 C 0.68225 0.60322 0.27247 0.0
C1263 C 0.68772 0.58075 0.28138 0.0
C1264 C 0.71234 0.58137 0.29031 0.0
C1265 C 0.73102 0.60446 0.29124 0.0
C1266 C 0.72476 0.62648 0.28284 0.0
C1267 C 0.701 0.62583 0.27326 0.0
C1268 C 0.69881 0.6519 0.26532 0.0
C1269 C 0.69217 0.6496 0.23734 0.0
C1270 C 0.67993 0.6633 0.27998 0.0
C1271 C 0.72499 0.66761 0.27224 0.0
C1272 C 0.73971 0.65275 0.28247 0.0
C1273 C 0.76441 0.66349 0.29097 0.0
C1274 C 0.77435 0.68993 0.2886 0.0
C1275 C 0.75966 0.70519 0.27762 0.0
C1276 C 0.73468 0.69382 0.26946 0.0
H1277 H 0.9062 0.46114 0.75913 0.0
H1278 H 0.85402 0.4982 0.72256 0.0
H1279 H 0.8231 0.45603 0.71613 0.0
H1280 H 0.88872 0.39772 0.72167 0.0
H1281 H 0.89216 0.37999 0.7477 0.0
H1282 H 0.91085 0.41249 0.74735 0.0
H1283 H 0.89506 0.42687 0.78917 0.0
H1284 H 0.87626 0.39448 0.7896 0.0
H1285 H 0.86211 0.42214 0.79201 0.0
H1286 H 0.79745 0.41007 0.71498 0.0
H1287 H 0.7784 0.36439 0.72075 0.0
H1288 H 0.84693 0.35826 0.75979 0.0
C1289 C 0.88844 0.4603 0.74936 0.0
C1290 C 0.88258 0.48286 0.7411 0.0
C1291 C 0.85892 0.4811 0.72893 0.0
C1292 C 0.84128 0.45724 0.72515 0.0
C1293 C 0.84755 0.43543 0.73383 0.0
C1294 C 0.87053 0.43678 0.74576 0.0
C1295 C 0.87209 0.41098 0.75475 0.0
C1296 C 0.89214 0.39963 0.74211 0.0
C1297 C 0.87664 0.4138 0.78306 0.0
C1298 C 0.84632 0.39495 0.74622 0.0
C1299 C 0.83253 0.40928 0.73393 0.0
C1300 C 0.8081 0.39863 0.72451 0.0
C1301 C 0.79746 0.37267 0.72785 0.0
C1302 C 0.81117 0.3578 0.74076 0.0
C1303 C 0.83593 0.36916 0.74995 0.0
H1304 H 0.0217 0.86569 0.10569 0.0
H1305 H 0.06658 0.83612 0.05177 0.0
H1306 H 0.061 0.86976 0.02549 0.0
H1307 H 0.97833 0.8854 0.06038 0.0
H1308 H 0.97712 0.91454 0.07999 0.0
H1309 H 0.98177 0.88604 0.09348 0.0
H1310 H 0.02201 0.91356 0.11784 0.0
H1311 H 0.01748 0.94207 0.10445 0.0
H1312 H 0.04616 0.93169 0.10134 0.0
H1313 H 0.05531 0.90865 0.00745 0.0
H1314 H 0.04949 0.95169 0.99831 0.0
H1315 H 0.00747 0.95692 0.06271 0.0
C1316 C 0.02989 0.86602 0.08811 0.0
C1317 C 0.04457 0.84828 0.08078 0.0
C1318 C 0.05535 0.84957 0.05785 0.0
C1319 C 0.05216 0.86849 0.04267 0.0
C1320 C 0.03803 0.88598 0.05058 0.0
C1321 C 0.02697 0.88499 0.07268 0.0
C1322 C 0.0145 0.90764 0.07757 0.0
C1323 C 0.98625 0.89781 0.07787 0.0
C1324 C 0.02572 0.92475 0.10173 0.0
C1325 C 0.02106 0.92186 0.05518 0.0
C1326 C 0.03441 0.90875 0.03978 0.0
C1327 C 0.04448 0.9189 0.01905 0.0
C1328 C 0.04118 0.94336 0.01408 0.0
C1329 C 0.02786 0.9573 0.0297 0.0
C1330 C 0.0172 0.94623 0.05021 0.0
H1331 H 0.93122 0.26412 0.8005 0.0
H1332 H 0.90333 0.18174 0.8055 0.0
H1333 H 0.86957 0.18042 0.77353 0.0
H1334 H 0.87619 0.27937 0.80074 0.0
H1335 H 0.8807 0.30371 0.77955 0.0
H1336 H 0.90698 0.29754 0.79672 0.0
H1337 H 0.9276 0.28766 0.7568 0.0
H1338 H 0.90195 0.29473 0.73908 0.0
H1339 H 0.91047 0.26392 0.73244 0.0
H1340 H 0.83566 0.18926 0.74592 0.0
H1341 H 0.80276 0.20813 0.72752 0.0
H1342 H 0.85055 0.28553 0.74366 0.0
C1343 C 0.91875 0.24557 0.79384 0.0
C1344 C 0.92024 0.22282 0.80475 0.0
C1345 C 0.90278 0.19917 0.79679 0.0
C1346 C 0.88358 0.19827 0.77867 0.0
C1347 C 0.88195 0.22128 0.76892 0.0
C1348 C 0.8991 0.24454 0.77621 0.0
C1349 C 0.89094 0.26727 0.76611 0.0
C1350 C 0.88854 0.28818 0.78701 0.0
C1351 C 0.9088 0.27909 0.7475 0.0
C1352 C 0.8659 0.25341 0.75327 0.0
C1353 C 0.86148 0.22677 0.75427 0.0
C1354 C 0.83908 0.21003 0.74466 0.0
C1355 C 0.82054 0.22086 0.73419 0.0
C1356 C 0.82434 0.24817 0.73409 0.0
C1357 C 0.84742 0.26453 0.74332 0.0
H1358 H 0.5768 0.22071 0.618 0.0
H1359 H 0.50165 0.22274 0.63548 0.0
H1360 H 0.48626 0.17898 0.61226 0.0
H1361 H 0.56246 0.18979 0.55721 0.0
H1362 H 0.58492 0.16988 0.55872 0.0
H1363 H 0.59027 0.20073 0.57771 0.0
H1364 H 0.59499 0.17775 0.61688 0.0
H1365 H 0.58985 0.14681 0.59799 0.0
H1366 H 0.57058 0.15088 0.623 0.0
H1367 H 0.47871 0.1371 0.58404 0.0
H1368 H 0.47975 0.09776 0.55618 0.0
H1369 H 0.56016 0.12166 0.55896 0.0
C1370 C 0.55713 0.21184 0.61717 0.0
C1371 C 0.54038 0.22516 0.62847 0.0
C1372 C 0.51481 0.21285 0.62706 0.0
C1373 C 0.5059 0.18805 0.61385 0.0
C1374 C 0.52286 0.17569 0.60254 0.0
C1375 C 0.54799 0.18697 0.60441 0.0
C1376 C 0.56229 0.16959 0.59044 0.0
C1377 C 0.57577 0.18332 0.5698 0.0
C1378 C 0.5805 0.16073 0.60814 0.0
C1379 C 0.5412 0.14701 0.57995 0.0
C1380 C 0.51861 0.15101 0.58705 0.0
C1381 C 0.4963 0.13358 0.57864 0.0
C1382 C 0.4971 0.11137 0.56269 0.0
C1383 C 0.52006 0.10661 0.5555 0.0
C1384 C 0.54238 0.12464 0.56438 0.0
H1385 H 0.58632 0.79321 0.36409 0.0
H1386 H 0.53463 0.7254 0.32523 0.0
H1387 H 0.56765 0.71659 0.29918 0.0
H1388 H 0.61759 0.81385 0.31067 0.0
H1389 H 0.64759 0.82471 0.32759 0.0
H1390 H 0.61982 0.82545 0.34309 0.0
H1391 H 0.63328 0.79728 0.37524 0.0
H1392 H 0.66101 0.79633 0.35975 0.0
H1393 H 0.64002 0.76633 0.3648 0.0
H1394 H 0.6073 0.71408 0.27867 0.0
H1395 H 0.64936 0.72052 0.26321 0.0
H1396 H 0.67372 0.79101 0.31434 0.0
C1397 C 0.58191 0.77655 0.35006 0.0
C1398 C 0.55795 0.75996 0.34673 0.0
C1399 C 0.55287 0.73844 0.32805 0.0
C1400 C 0.57152 0.73321 0.31323 0.0
C1401 C 0.59504 0.74983 0.31717 0.0
C1402 C 0.60018 0.77123 0.33495 0.0
C1403 C 0.6268 0.78635 0.33523 0.0
C1404 C 0.62801 0.81424 0.32875 0.0
C1405 C 0.64111 0.78657 0.36024 0.0
C1406 C 0.63586 0.77006 0.31492 0.0
C1407 C 0.61741 0.74891 0.30484 0.0
C1408 C 0.62182 0.73072 0.28627 0.0
C1409 C 0.64569 0.73445 0.27764 0.0
C1410 C 0.66454 0.75636 0.28744 0.0
C1411 C 0.65951 0.77424 0.30632 0.0
H1412 H 0.99153 0.17141 0.44367 0.0
H1413 H 0.06968 0.20954 0.44758 0.0
H1414 H 0.08027 0.1715 0.46531 0.0
H1415 H 0.99175 0.14195 0.49901 0.0
H1416 H 0.97018 0.11208 0.48652 0.0
H1417 H 0.96902 0.14214 0.47415 0.0
H1418 H 0.97399 0.1212 0.43024 0.0
H1419 H 0.97483 0.09096 0.44242 0.0
H1420 H 0.99984 0.10624 0.42521 0.0
H1421 H 0.08144 0.13004 0.48556 0.0
H1422 H 0.07378 0.08633 0.50053 0.0
H1423 H 0.99505 0.07522 0.4802 0.0
C1424 C 0.01089 0.1717 0.44816 0.0
C1425 C 0.02982 0.19338 0.4445 0.0
C1426 C 0.05496 0.19299 0.45024 0.0
C1427 C 0.06109 0.17159 0.46043 0.0
C1428 C 0.04185 0.15067 0.46425 0.0
C1429 C 0.0173 0.1504 0.45777 0.0
C1430 C 1.00006 0.12534 0.46283 0.0
C1431 C 0.98167 0.13072 0.48175 0.0
C1432 C 0.98638 0.11003 0.43874 0.0
C1433 C 0.01865 0.11161 0.47354 0.0
C1434 C 0.04264 0.12657 0.47456 0.0
C1435 C 0.06276 0.11806 0.48458 0.0
C1436 C 0.05824 0.09338 0.49321 0.0
C1437 C 0.03386 0.07751 0.49139 0.0
C1438 C 0.0139 0.0869 0.48161 0.0
H1439 H 0.56659 0.26486 0.15126 0.0
H1440 H 0.53343 0.18869 0.17302 0.0
H1441 H 0.5745 0.18396 0.18801 0.0
H1442 H 0.62302 0.24873 0.13092 0.0
H1443 H 0.64292 0.27975 0.14307 0.0
H1444 H 0.6108 0.27771 0.13355 0.0
H1445 H 0.60424 0.29879 0.17684 0.0
H1446 H 0.63638 0.30113 0.1864 0.0
H1447 H 0.61229 0.28443 0.20385 0.0
H1448 H 0.61824 0.18653 0.20047 0.0
H1449 H 0.66304 0.19794 0.21283 0.0
H1450 H 0.66957 0.27263 0.1841 0.0
C1451 C 0.568 0.24726 0.15927 0.0
C1452 C 0.54663 0.22716 0.16088 0.0
C1453 C 0.54934 0.20444 0.17155 0.0
C1454 C 0.57268 0.20146 0.18006 0.0
C1455 C 0.59329 0.22137 0.17795 0.0
C1456 C 0.59132 0.24397 0.16809 0.0
C1457 C 0.61669 0.26251 0.16874 0.0
C1458 C 0.62377 0.26746 0.1425 0.0
C1459 C 0.61744 0.28823 0.18492 0.0
C1460 C 0.63305 0.24672 0.18054 0.0
C1461 C 0.61901 0.22298 0.18548 0.0
C1462 C 0.62949 0.20503 0.1967 0.0
C1463 C 0.65496 0.21168 0.20361 0.0
C1464 C 0.66974 0.23608 0.19933 0.0
C1465 C 0.65872 0.25371 0.18731 0.0
H1466 H 0.50944 0.8474 0.96247 0.0
H1467 H 0.5878 0.84791 0.96232 0.0
H1468 H 0.59809 0.89352 0.98315 0.0
H1469 H 0.51615 0.91301 0.94766 0.0
H1470 H 0.49126 0.91872 0.96582 0.0
H1471 H 0.49086 0.88623 0.95209 0.0
H1472 H 0.48712 0.86966 0.99529 0.0
H1473 H 0.48766 0.90216 0.00906 0.0
H1474 H 0.51 0.88499 0.02019 0.0
H1475 H 0.59874 0.93968 0.00534 0.0
H1476 H 0.58987 0.9819 0.02231 0.0
H1477 H 0.51117 0.94952 0.00452 0.0
C1478 C 0.52881 0.85694 0.96708 0.0
C1479 C 0.54785 0.84407 0.96133 0.0
C1480 C 0.57297 0.85748 0.96686 0.0
C1481 C 0.57892 0.88328 0.9787 0.0
C1482 C 0.55951 0.89536 0.98427 0.0
C1483 C 0.53497 0.8826 0.9782 0.0
C1484 C 0.51736 0.89988 0.98456 0.0
C1485 C 0.50308 0.90474 0.96114 0.0
C1486 C 0.4995 0.88849 0.0034 0.0
C1487 C 0.53566 0.9243 0.99579 0.0
C1488 C 0.55992 0.92155 0.99568 0.0
C1489 C 0.5798 0.94196 0.0054 0.0
C1490 C 0.57463 0.96576 0.01511 0.0
C1491 C 0.54987 0.96879 0.01467 0.0
C1492 C 0.5303 0.94773 0.00503 0.0
H1493 H 0.91714 0.72214 0.68572 0.0
H1494 H 0.95465 0.79664 0.66389 0.0
H1495 H 0.92369 0.81753 0.68403 0.0
H1496 H 0.85673 0.73135 0.67339 0.0
H1497 H 0.84302 0.71555 0.69858 0.0
H1498 H 0.86866 0.7053 0.6848 0.0
H1499 H 0.89499 0.71333 0.72593 0.0
H1500 H 0.86999 0.72273 0.74163 0.0
H1501 H 0.90025 0.74454 0.74442 0.0
H1502 H 0.88794 0.82981 0.70686 0.0
H1503 H 0.84996 0.83207 0.72795 0.0
H1504 H 0.83622 0.74884 0.73359 0.0
C1505 C 0.91909 0.74293 0.68534 0.0
C1506 C 0.93851 0.75786 0.67348 0.0
C1507 C 0.93997 0.78487 0.67294 0.0
C1508 C 0.92252 0.79687 0.6844 0.0
C1509 C 0.90366 0.7815 0.69604 0.0
C1510 C 0.9018 0.75506 0.69634 0.0
C1511 C 0.87917 0.74245 0.7088 0.0
C1512 C 0.86084 0.72246 0.69031 0.0
C1513 C 0.88655 0.73002 0.73153 0.0
C1514 C 0.86884 0.766 0.71615 0.0
C1515 C 0.8831 0.78837 0.70859 0.0
C1516 C 0.87672 0.8124 0.71289 0.0
C1517 C 0.85511 0.81347 0.72496 0.0
C1518 C 0.84009 0.79065 0.73261 0.0
C1519 C 0.84732 0.76671 0.72825 0.0
H1520 H 0.12386 0.04432 0.87398 0.0
H1521 H 0.0998 0.96448 0.84004 0.0
H1522 H 0.07548 0.95312 0.87592 0.0
H1523 H 0.12611 0.02882 0.9407 0.0
H1524 H 0.11532 0.05776 0.95028 0.0
H1525 H 0.13453 0.05735 0.92468 0.0
H1526 H 0.10066 0.07119 0.89769 0.0
H1527 H 0.08125 0.0707 0.92302 0.0
H1528 H 0.0695 0.05114 0.89412 0.0
H1529 H 0.04723 0.95341 0.91126 0.0
H1530 H 0.02154 0.96404 0.94503 0.0
H1531 H 0.06608 0.0433 0.95607 0.0
C1532 C 0.11433 0.02419 0.87469 0.0
C1533 C 0.11383 0.00513 0.85462 0.0
C1534 C 0.10074 0.97913 0.85562 0.0
C1535 C 0.08681 0.97261 0.87584 0.0
C1536 C 0.08674 0.99226 0.89495 0.0
C1537 C 0.10077 0.01739 0.89479 0.0
C1538 C 0.09599 0.03558 0.91621 0.0
C1539 C 0.11939 0.04544 0.93402 0.0
C1540 C 0.08627 0.05848 0.9072 0.0
C1541 C 0.07612 0.01719 0.92777 0.0
C1542 C 0.07106 0.99222 0.91546 0.0
C1543 C 0.05153 0.9727 0.92142 0.0
C1544 C 0.03693 0.97892 0.94044 0.0
C1545 C 0.04206 0.00439 0.95317 0.0
C1546 C 0.06209 0.02353 0.94693 0.0
H1547 H 0.7155 0.35272 0.5768 0.0
H1548 H 0.69212 0.27629 0.53548 0.0
H1549 H 0.67923 0.25725 0.57337 0.0
H1550 H 0.74699 0.33607 0.61949 0.0
H1551 H 0.74056 0.35602 0.64601 0.0
H1552 H 0.73704 0.36586 0.61588 0.0
H1553 H 0.69127 0.36737 0.62191 0.0
H1554 H 0.6949 0.35801 0.65254 0.0
H1555 H 0.67019 0.33925 0.63086 0.0
H1556 H 0.68304 0.24456 0.61453 0.0
H1557 H 0.70152 0.23965 0.65543 0.0
H1558 H 0.72433 0.32366 0.67147 0.0
C1559 C 0.70603 0.33234 0.57572 0.0
C1560 C 0.70417 0.31594 0.55347 0.0
C1561 C 0.69309 0.28909 0.55245 0.0
C1562 C 0.68569 0.27818 0.5739 0.0
C1563 C 0.68971 0.29441 0.59619 0.0
C1564 C 0.69921 0.32112 0.59724 0.0
C1565 C 0.70722 0.33319 0.62359 0.0
C1566 C 0.73456 0.34863 0.62637 0.0
C1567 C 0.68985 0.35047 0.63276 0.0
C1568 C 0.70365 0.30881 0.6366 0.0
C1569 C 0.69244 0.28678 0.62073 0.0
C1570 C 0.69091 0.26169 0.62741 0.0
C1571 C 0.70165 0.25904 0.65055 0.0
C1572 C 0.71383 0.28134 0.66658 0.0
C1573 C 0.71416 0.30642 0.65984 0.0
H1574 H 0.50169 0.06402 0.33342 0.0
H1575 H 0.43362 0.08842 0.34829 0.0
H1576 H 0.4464 0.09502 0.39304 0.0
H1577 H 0.5032 0.02756 0.38131 0.0
H1578 H 0.53635 0.03654 0.38851 0.0
H1579 H 0.52368 0.03758 0.35772 0.0
H1580 H 0.54648 0.08622 0.3594 0.0
H1581 H 0.55944 0.0853 0.39022 0.0
H1582 H 0.54198 0.10935 0.38432 0.0
H1583 H 0.46298 0.09091 0.43599 0.0
H1584 H 0.48433 0.08081 0.47368 0.0
H1585 H 0.54269 0.06204 0.43062 0.0
C1586 C 0.48979 0.07143 0.34606 0.0
C1587 C 0.4667 0.07572 0.3375 0.0
C1588 C 0.45152 0.08526 0.35452 0.0
C1589 C 0.4586 0.08901 0.37993 0.0
C1590 C 0.48116 0.08374 0.38785 0.0
C1591 C 0.49678 0.0757 0.37134 0.0
C1592 C 0.51925 0.06973 0.38452 0.0
C1593 C 0.52068 0.04117 0.3776 0.0
C1594 C 0.54321 0.0888 0.3793 0.0
C1595 C 0.51332 0.07449 0.41104 0.0
C1596 C 0.4913 0.08264 0.41264 0.0
C1597 C 0.48061 0.08535 0.43504 0.0
C1598 C 0.49271 0.07947 0.45627 0.0
C1599 C 0.51523 0.07124 0.45482 0.0
C1600 C 0.52585 0.06915 0.43211 0.0
H1601 H 0.78121 0.71262 0.0718 0.0
H1602 H 0.71528 0.73858 0.04847 0.0
H1603 H 0.70991 0.75274 0.09154 0.0
H1604 H 0.76009 0.68832 0.12647 0.0
H1605 H 0.78909 0.70009 0.14502 0.0
H1606 H 0.78906 0.69287 0.11208 0.0
H1607 H 0.81444 0.73977 0.10911 0.0
H1608 H 0.81485 0.74702 0.14211 0.0
H1609 H 0.80311 0.76728 0.12195 0.0
H1610 H 0.70832 0.75934 0.13678 0.0
H1611 H 0.7149 0.76514 0.18224 0.0
H1612 H 0.78366 0.73904 0.17738 0.0
C1613 C 0.76593 0.72172 0.07575 0.0
C1614 C 0.74865 0.72435 0.05663 0.0
C1615 C 0.72887 0.73635 0.06264 0.0
C1616 C 0.72552 0.74439 0.08713 0.0
C1617 C 0.74238 0.74085 0.10553 0.0
C1618 C 0.76257 0.73047 0.10024 0.0
C1619 C 0.77796 0.72923 0.1238 0.0
C1620 C 0.7791 0.70094 0.12702 0.0
C1621 C 0.80414 0.74688 0.12427 0.0
C1622 C 0.76282 0.73991 0.14301 0.0
C1623 C 0.74223 0.74617 0.13196 0.0
C1624 C 0.7246 0.75495 0.14569 0.0
C1625 C 0.72836 0.75795 0.17148 0.0
C1626 C 0.74977 0.75261 0.18322 0.0
C1627 C 0.76722 0.74346 0.16879 0.0
H1628 H 0.13415 0.02217 0.70418 0.0
H1629 H 0.07119 0.97296 0.73283 0.0
H1630 H 0.04991 0.96254 0.69087 0.0
H1631 H 0.09986 0.05134 0.66713 0.0
H1632 H 0.11949 0.05391 0.64178 0.0
H1633 H 0.13259 0.05282 0.67241 0.0
H1634 H 0.14985 0.01289 0.65699 0.0
H1635 H 0.13717 0.01412 0.62612 0.0
H1636 H 0.12913 0.98442 0.64047 0.0
H1637 H 0.03319 0.9627 0.64854 0.0
H1638 H 0.0213 0.97284 0.60738 0.0
H1639 H 0.09419 0.02377 0.60517 0.0
C1640 C 0.11637 0.00829 0.70123 0.0
C1641 C 0.10442 0.99765 0.72129 0.0
C1642 C 0.08068 0.98067 0.71738 0.0
C1643 C 0.06854 0.9747 0.69369 0.0
C1644 C 0.08038 0.98619 0.67431 0.0
C1645 C 0.1038 0.00255 0.67771 0.0
C1646 C 0.1108 0.01509 0.65446 0.0
C1647 C 0.11598 0.04506 0.65925 0.0
C1648 C 0.13306 0.00608 0.64388 0.0
C1649 C 0.08723 0.00405 0.63785 0.0
C1650 C 0.0702 0.98706 0.64964 0.0
C1651 C 0.04647 0.97564 0.63897 0.0
C1652 C 0.03986 0.98173 0.61563 0.0
C1653 C 0.05684 0.99917 0.60317 0.0
C1654 C 0.08095 0.01028 0.61429 0.0
H1655 H 0.75068 0.34317 0.4123 0.0
H1656 H 0.71129 0.27271 0.43982 0.0
H1657 H 0.70825 0.24861 0.3982 0.0
H1658 H 0.71869 0.33041 0.34841 0.0
H1659 H 0.7471 0.34342 0.33479 0.0
H1660 H 0.74222 0.35609 0.36556 0.0
H1661 H 0.78357 0.34598 0.38164 0.0
H1662 H 0.78826 0.33271 0.35108 0.0
H1663 H 0.78792 0.31313 0.37633 0.0
H1664 H 0.7132 0.23121 0.35522 0.0
H1665 H 0.72382 0.22212 0.31228 0.0
H1666 H 0.76222 0.30329 0.3134 0.0
C1667 C 0.74052 0.32298 0.40917 0.0
C1668 C 0.73063 0.30978 0.42883 0.0
C1669 C 0.71848 0.28308 0.42464 0.0
C1670 C 0.71677 0.26927 0.40117 0.0
C1671 C 0.72758 0.28248 0.38227 0.0
C1672 C 0.73903 0.30879 0.38587 0.0
C1673 C 0.75116 0.31763 0.36302 0.0
C1674 C 0.73906 0.33809 0.35231 0.0
C1675 C 0.7794 0.32796 0.36835 0.0
C1676 C 0.74515 0.29211 0.3463 0.0
C1677 C 0.73134 0.27215 0.35767 0.0
C1678 C 0.72383 0.24671 0.346 0.0
C1679 C 0.73008 0.24168 0.32176 0.0
C1680 C 0.74385 0.26196 0.30969 0.0
C1681 C 0.75178 0.28737 0.32228 0.0
H1682 H 0.49935 0.05732 0.20882 0.0
H1683 H 0.44767 0.10697 0.19882 0.0
H1684 H 0.46704 0.1196 0.16052 0.0
H1685 H 0.55338 0.09755 0.18195 0.0
H1686 H 0.56183 0.06869 0.16801 0.0
H1687 H 0.54724 0.06803 0.19675 0.0
H1688 H 0.51266 0.02844 0.17738 0.0
H1689 H 0.52715 0.02893 0.14877 0.0
H1690 H 0.49512 0.03103 0.1493 0.0
H1691 H 0.489 0.12203 0.12037 0.0
H1692 H 0.50815 0.11103 0.08185 0.0
H1693 H 0.54319 0.05811 0.11865 0.0
C1694 C 0.49233 0.07133 0.19898 0.0
C1695 C 0.47196 0.08116 0.20685 0.0
C1696 C 0.46335 0.09928 0.19322 0.0
C1697 C 0.47433 0.10664 0.17152 0.0
C1698 C 0.49401 0.0959 0.16396 0.0
C1699 C 0.50291 0.07866 0.17746 0.0
C1700 C 0.52196 0.06715 0.16427 0.0
C1701 C 0.54762 0.07589 0.1786 0.0
C1702 C 0.51371 0.03713 0.15965 0.0
C1703 C 0.52159 0.07948 0.14053 0.0
C1704 C 0.50595 0.09662 0.14086 0.0
C1705 C 0.50138 0.10879 0.12009 0.0
C1706 C 0.51215 0.10232 0.09826 0.0
C1707 C 0.52662 0.08334 0.09727 0.0
C1708 C 0.53228 0.07278 0.11896 0.0
H1709 H 0.73916 0.70296 0.90333 0.0
H1710 H 0.81217 0.72549 0.94248 0.0
H1711 H 0.82831 0.74953 0.90765 0.0
H1712 H 0.76077 0.69503 0.84051 0.0
H1713 H 0.73583 0.70744 0.82722 0.0
H1714 H 0.73128 0.68997 0.85393 0.0
H1715 H 0.71808 0.72919 0.87732 0.0
H1716 H 0.72291 0.74693 0.8509 0.0
H1717 H 0.73885 0.76104 0.88041 0.0
H1718 H 0.83424 0.77651 0.87039 0.0
H1719 H 0.8303 0.79946 0.83324 0.0
H1720 H 0.75369 0.75657 0.81897 0.0
C1721 C 0.75871 0.71244 0.90433 0.0
C1722 C 0.77448 0.7124 0.9255 0.0
C1723 C 0.7999 0.72508 0.92624 0.0
C1724 C 0.80913 0.73887 0.90662 0.0
C1725 C 0.79277 0.73925 0.88629 0.0
C1726 C 0.76819 0.72582 0.8849 0.0
C1727 C 0.75395 0.72985 0.86177 0.0
C1728 C 0.74494 0.70403 0.84485 0.0
C1729 C 0.73218 0.74251 0.868 0.0
C1730 C 0.77404 0.7484 0.85063 0.0
C1731 C 0.79637 0.75371 0.86487 0.0
C1732 C 0.81696 0.77201 0.8589 0.0
C1733 C 0.81456 0.78503 0.83787 0.0
C1734 C 0.79181 0.77954 0.82312 0.0
C1735 C 0.77149 0.76083 0.82959 0.0
H1736 H 0.85825 0.12238 0.01723 0.0
H1737 H 0.8071 0.06323 0.96704 0.0
H1738 H 0.83533 0.03334 0.97046 0.0
H1739 H 0.91306 0.11051 0.99331 0.0
H1740 H 0.9308 0.11637 0.02278 0.0
H1741 H 0.9056 0.13216 0.01792 0.0
H1742 H 0.88536 0.11285 0.05582 0.0
H1743 H 0.91048 0.09683 0.06064 0.0
H1744 H 0.87884 0.07806 0.05696 0.0
H1745 H 0.87082 0.01123 0.97667 0.0
H1746 H 0.91099 0.99913 0.98489 0.0
H1747 H 0.93818 0.07226 0.03173 0.0
C1748 C 0.85278 0.10301 0.00722 0.0
C1749 C 0.83039 0.09513 0.99192 0.0
C1750 C 0.82412 0.06972 0.97891 0.0
C1751 C 0.84 0.05255 0.98079 0.0
C1752 C 0.86204 0.06104 0.99585 0.0
C1753 C 0.86841 0.08566 0.00887 0.0
C1754 C 0.8938 0.09061 0.02262 0.0
C1755 C 0.91187 0.11377 0.01361 0.0
C1756 C 0.892 0.09483 0.05068 0.0
C1757 C 0.90086 0.06506 0.01504 0.0
C1758 C 0.88228 0.04818 -0.00033 0.0
C1759 C 0.88534 0.02412 0.98898 0.0
C1760 C 0.90815 0.01738 0.99377 0.0
C1761 C 0.92748 0.03463 0.00913 0.0
C1762 C 0.92353 0.05848 0.02027 0.0
H1763 H 0.32546 0.44982 0.04725 0.0
H1764 H 0.32018 0.39415 0.9821 0.0
H1765 H 0.36142 0.41692 0.97174 0.0
H1766 H 0.3619 0.50782 0.02085 0.0
H1767 H 0.38095 0.51986 0.04922 0.0
H1768 H 0.34943 0.50162 0.05006 0.0
H1769 H 0.36506 0.46896 0.07575 0.0
H1770 H 0.39656 0.4871 0.075 0.0
H1771 H 0.38822 0.45277 0.06403 0.0
H1772 H 0.40408 0.44198 0.97019 0.0
H1773 H 0.44719 0.46761 0.97852 0.0
H1774 H 0.42672 0.50768 0.04474 0.0
C1775 C 0.33287 0.44291 0.03056 0.0
C1776 C 0.31965 0.42031 0.0154 0.0
C1777 C 0.33008 0.41138 0.99399 0.0
C1778 C 0.35341 0.42427 0.98784 0.0
C1779 C 0.36627 0.44611 0.00332 0.0
C1780 C 0.35654 0.45543 0.02428 0.0
C1781 C 0.37551 0.47783 0.03883 0.0
C1782 C 0.3664 0.5033 0.03979 0.0
C1783 C 0.3817 0.47126 0.06494 0.0
C1784 C 0.3975 0.479 0.0231 0.0
C1785 C 0.3915 0.46073 0.00252 0.0
C1786 C 0.40896 0.45667 0.98602 0.0
C1787 C 0.43339 0.4713 0.99089 0.0
C1788 C 0.44018 0.48976 0.01208 0.0
C1789 C 0.42188 0.49403 0.02813 0.0
H1790 H 0.35201 0.61578 0.72982 0.0
H1791 H 0.36132 0.6127 0.80888 0.0
H1792 H 0.33946 0.64826 0.81617 0.0
H1793 H 0.36085 0.68508 0.73203 0.0
H1794 H 0.33748 0.68408 0.70745 0.0
H1795 H 0.35344 0.65792 0.70805 0.0
H1796 H 0.31137 0.62449 0.70655 0.0
H1797 H 0.29515 0.65046 0.70597 0.0
H1798 H 0.2899 0.62866 0.72948 0.0
H1799 H 0.31941 0.68599 0.81534 0.0
H1800 H 0.30097 0.72284 0.80622 0.0
H1801 H 0.30157 0.70029 0.72778 0.0
C1802 C 0.34942 0.62259 0.74866 0.0
C1803 C 0.35849 0.61144 0.76881 0.0
C1804 C 0.35456 0.62083 0.79314 0.0
C1805 C 0.34212 0.64104 0.79749 0.0
C1806 C 0.33337 0.65153 0.7773 0.0
C1807 C 0.33668 0.64259 0.75334 0.0
C1808 C 0.32546 0.65749 0.73502 0.0
C1809 C 0.34551 0.672 0.71974 0.0
C1810 C 0.30421 0.63918 0.71827 0.0
C1811 C 0.31572 0.67644 0.75248 0.0
C1812 C 0.3206 0.67265 0.77679 0.0
C1813 C 0.31506 0.68884 0.79639 0.0
C1814 C 0.30457 0.70966 0.79106 0.0
C1815 C 0.29931 0.7139 0.76636 0.0
C1816 C 0.30465 0.69687 0.74681 0.0
H1817 H 0.18445 0.63432 0.52299 0.0
H1818 H 0.21982 0.57768 0.48539 0.0
H1819 H 0.17851 0.54746 0.4751 0.0
H1820 H 0.13784 0.58807 0.54915 0.0
H1821 H 0.11468 0.60687 0.54547 0.0
H1822 H 0.14706 0.62307 0.55003 0.0
H1823 H 0.14292 0.64445 0.5097 0.0
H1824 H 0.11063 0.62797 0.50482 0.0
H1825 H 0.13144 0.62401 0.48119 0.0
H1826 H 0.13238 0.52452 0.46756 0.0
H1827 H 0.08666 0.50929 0.46722 0.0
H1828 H 0.08336 0.58188 0.5102 0.0
C1829 C 0.18361 0.61551 0.51269 0.0
C1830 C 0.20525 0.60833 0.50485 0.0
C1831 C 0.20339 0.58345 0.49164 0.0
C1832 C 0.18004 0.56629 0.48559 0.0
C1833 C 0.15897 0.57435 0.49313 0.0
C1834 C 0.1607 0.59826 0.50669 0.0
C1835 C 0.13558 0.60248 0.51294 0.0
C1836 C 0.13369 0.60527 0.54106 0.0
C1837 C 0.12981 0.62613 0.50147 0.0
C1838 C 0.11927 0.57725 0.50064 0.0
C1839 C 0.13293 0.56124 0.48914 0.0
C1840 C 0.12154 0.53688 0.47657 0.0
C1841 C 0.09559 0.52849 0.47632 0.0
C1842 C 0.08153 0.54442 0.48871 0.0
C1843 C 0.09359 0.56921 0.50062 0.0
H1844 H 0.67304 0.94978 0.73468 0.0
H1845 H 0.69925 0.99755 0.80441 0.0
H1846 H 0.73475 0.97659 0.80788 0.0
H1847 H 0.68626 0.8923 0.75214 0.0
H1848 H 0.69563 0.8817 0.72245 0.0
H1849 H 0.67394 0.90243 0.72445 0.0
H1850 H 0.7028 0.93578 0.70093 0.0
H1851 H 0.72475 0.91519 0.69919 0.0
H1852 H 0.73466 0.94868 0.71273 0.0
H1853 H 0.76486 0.94728 0.80584 0.0
H1854 H 0.78584 0.91067 0.79913 0.0
H1855 H 0.74079 0.88348 0.73014 0.0
C1856 C 0.6864 0.95609 0.75054 0.0
C1857 C 0.68337 0.97532 0.76926 0.0
C1858 C 0.70118 0.98286 0.78981 0.0
C1859 C 0.7215 0.97119 0.79188 0.0
C1860 C 0.72388 0.95221 0.77313 0.0
C1861 C 0.70681 0.94474 0.75284 0.0
C1862 C 0.71252 0.92258 0.73615 0.0
C1863 C 0.69081 0.89833 0.73367 0.0
C1864 C 0.71908 0.93108 0.71074 0.0
C1865 C 0.73501 0.91819 0.7506 0.0
C1866 C 0.7415 0.93565 0.77175 0.0
C1867 C 0.76028 0.93381 0.78911 0.0
C1868 C 0.77214 0.91305 0.78514 0.0
C1869 C 0.76508 0.89452 0.76402 0.0
C1870 C 0.74691 0.89771 0.7462 0.0
H1871 H 0.68678 0.93917 0.53304 0.0
H1872 H 0.74308 0.00118 0.50953 0.0
H1873 H 0.71347 0.02979 0.51034 0.0
H1874 H 0.63592 0.95093 0.49704 0.0
H1875 H 0.61389 0.94386 0.51996 0.0
H1876 H 0.63994 0.92867 0.51908 0.0
H1877 H 0.65311 0.94674 0.5649 0.0
H1878 H 0.62711 0.96207 0.56585 0.0
H1879 H 0.65816 0.98132 0.57414 0.0
H1880 H 0.6773 0.05122 0.51179 0.0
H1881 H 0.63662 0.06324 0.51262 0.0
H1882 H 0.60366 0.98771 0.53531 0.0
C1883 C 0.69296 0.95884 0.52826 0.0
C1884 C 0.71736 0.96788 0.52125 0.0
C1885 C 0.72456 0.99372 0.51497 0.0
C1886 C 0.70787 0.01021 0.51545 0.0
C1887 C 0.68399 0.00068 0.52232 0.0
C1888 C 0.67649 0.9756 0.52863 0.0
C1889 C 0.64942 0.96989 0.53436 0.0
C1890 C 0.63388 0.94698 0.51655 0.0
C1891 C 0.64681 0.9647 0.56142 0.0
C1892 C 0.64279 0.99547 0.52983 0.0
C1893 C 0.66307 0.01305 0.52313 0.0
C1894 C 0.66134 0.03768 0.5172 0.0
C1895 C 0.63818 0.04436 0.51775 0.0
C1896 C 0.61707 0.02647 0.52411 0.0
C1897 C 0.61955 0.00187 0.53057 0.0
H1898 H 0.36089 0.45922 0.76494 0.0
H1899 H 0.32272 0.49102 0.70829 0.0
H1900 H 0.28799 0.4516 0.70466 0.0
H1901 H 0.348 0.39602 0.73864 0.0
H1902 H 0.34344 0.38129 0.76692 0.0
H1903 H 0.3633 0.41324 0.76747 0.0
H1904 H 0.3373 0.43189 0.79985 0.0
H1905 H 0.31769 0.39974 0.79972 0.0
H1906 H 0.30416 0.4267 0.79354 0.0
H1907 H 0.2607 0.40543 0.70346 0.0
H1908 H 0.24132 0.35924 0.7079 0.0
H1909 H 0.29773 0.35965 0.76625 0.0
C1910 C 0.34487 0.45819 0.75225 0.0
C1911 C 0.34427 0.47797 0.73691 0.0
C1912 C 0.32322 0.47608 0.72039 0.0
C1913 C 0.30356 0.45374 0.71815 0.0
C1914 C 0.30523 0.43399 0.73293 0.0
C1915 C 0.32515 0.43639 0.75008 0.0
C1916 C 0.32342 0.41215 0.76295 0.0
C1917 C 0.34589 0.39999 0.75871 0.0
C1918 C 0.32046 0.41797 0.79066 0.0
C1919 C 0.29994 0.39518 0.74973 0.0
C1920 C 0.28954 0.408 0.73255 0.0
C1921 C 0.26848 0.39541 0.71717 0.0
C1922 C 0.25771 0.36919 0.71969 0.0
C1923 C 0.26811 0.35601 0.7374 0.0
C1924 C 0.2894 0.36926 0.75255 0.0
H1925 H 0.12861 0.61402 0.24583 0.0
H1926 H 0.17359 0.56805 0.2806 0.0
H1927 H 0.20847 0.60715 0.28863 0.0
H1928 H 0.17749 0.64998 0.2146 0.0
H1929 H 0.16647 0.67967 0.218 0.0
H1930 H 0.14483 0.64856 0.21661 0.0
H1931 H 0.12912 0.66315 0.25845 0.0
H1932 H 0.15069 0.69432 0.25984 0.0
H1933 H 0.15107 0.67467 0.28496 0.0
H1934 H 0.23797 0.65229 0.29375 0.0
H1935 H 0.26065 0.69808 0.29199 0.0
H1936 H 0.19683 0.71227 0.25056 0.0
C1937 C 0.1457 0.61225 0.2554 0.0
C1938 C 0.14838 0.5882 0.26293 0.0
C1939 C 0.1712 0.58642 0.27483 0.0
C1940 C 0.19103 0.6085 0.27949 0.0
C1941 C 0.18778 0.63196 0.27172 0.0
C1942 C 0.16575 0.63382 0.25965 0.0
C1943 C 0.16729 0.66073 0.25187 0.0
C1944 C 0.16382 0.65966 0.22359 0.0
C1945 C 0.14842 0.674 0.26455 0.0
C1946 C 0.19361 0.67384 0.2615 0.0
C1947 C 0.2051 0.65715 0.27323 0.0
C1948 C 0.22924 0.66542 0.28437 0.0
C1949 C 0.24194 0.6914 0.28332 0.0
C1950 C 0.23058 0.70846 0.27081 0.0
C1951 C 0.20615 0.69948 0.25982 0.0
H1952 H 0.46647 0.68052 0.45329 0.0
H1953 H 0.53395 0.70792 0.41739 0.0
H1954 H 0.55271 0.67496 0.43519 0.0
H1955 H 0.49596 0.66515 0.50965 0.0
H1956 H 0.4721 0.63621 0.51155 0.0
H1957 H 0.4646 0.66321 0.4975 0.0
H1958 H 0.44677 0.63228 0.4578 0.0
H1959 H 0.45451 0.60527 0.47156 0.0
H1960 H 0.46609 0.61336 0.44243 0.0
H1961 H 0.56367 0.63807 0.45572 0.0
H1962 H 0.565 0.59829 0.47546 0.0
H1963 H 0.49001 0.59442 0.49703 0.0
C1964 C 0.48531 0.6798 0.44942 0.0
C1965 C 0.4988 0.69689 0.43407 0.0
C1966 C 0.52325 0.69503 0.42911 0.0
C1967 C 0.53412 0.67645 0.43922 0.0
C1968 C 0.52027 0.65981 0.45416 0.0
C1969 C 0.49635 0.6612 0.45915 0.0
C1970 C 0.48496 0.64003 0.47457 0.0
C1971 C 0.47907 0.65187 0.49982 0.0
C1972 C 0.4617 0.62166 0.46074 0.0
C1973 C 0.50609 0.62634 0.4772 0.0
C1974 C 0.5264 0.63823 0.46557 0.0
C1975 C 0.54792 0.62867 0.46502 0.0
C1976 C 0.54853 0.6061 0.47635 0.0
C1977 C 0.52764 0.59323 0.48782 0.0
C1978 C 0.50631 0.60378 0.48845 0.0
H1979 H 0.64335 0.34368 0.70475 0.0
H1980 H 0.59064 0.28926 0.74106 0.0
H1981 H 0.6243 0.28635 0.77163 0.0
H1982 H 0.68927 0.31327 0.70622 0.0
H1983 H 0.71484 0.34153 0.7123 0.0
H1984 H 0.68606 0.34441 0.69742 0.0
H1985 H 0.68311 0.38115 0.7314 0.0
H1986 H 0.71218 0.37848 0.74626 0.0
H1987 H 0.68495 0.37547 0.7634 0.0
H1988 H 0.6648 0.28128 0.79128 0.0
H1989 H 0.70798 0.27693 0.80001 0.0
H1990 H 0.73425 0.33583 0.75206 0.0
C1991 C 0.63872 0.332 0.71978 0.0
C1992 C 0.61442 0.31678 0.72065 0.0
C1993 C 0.60906 0.30138 0.74029 0.0
C1994 C 0.62811 0.29959 0.7577 0.0
C1995 C 0.65221 0.31387 0.75555 0.0
C1996 C 0.65741 0.33033 0.73741 0.0
C1997 C 0.68509 0.34127 0.73719 0.0
C1998 C 0.69433 0.3347 0.71177 0.0
C1999 C 0.69172 0.37085 0.74504 0.0
C2000 C 0.69487 0.32678 0.75664 0.0
C2001 C 0.67561 0.31151 0.76746 0.0
C2002 C 0.68 0.29389 0.78365 0.0
C2003 C 0.70452 0.29153 0.78853 0.0
C2004 C 0.72427 0.30674 0.77734 0.0
C2005 C 0.71945 0.32487 0.7616 0.0
H2006 H 1.00035 0.33156 0.90659 0.0
H2007 H 0.92047 0.30087 0.90162 0.0
H2008 H 0.91501 0.34193 0.92331 0.0
H2009 H 0.00461 0.36525 0.96759 0.0
H2010 H 0.02813 0.39303 0.96169 0.0
H2011 H 0.02618 0.36159 0.94463 0.0
H2012 H 0.02239 0.38144 0.90346 0.0
H2013 H 0.02448 0.41297 0.92042 0.0
H2014 H 0.99838 0.3989 0.89838 0.0
H2015 H 0.91762 0.38521 0.94592 0.0
H2016 H 0.92825 0.42932 0.96837 0.0
H2017 H 0.00656 0.43299 0.96015 0.0
C2018 C 0.98175 0.33367 0.90986 0.0
C2019 C 0.96085 0.31297 0.90243 0.0
C2020 C 0.93679 0.31635 0.90727 0.0
C2021 C 0.93344 0.33965 0.91954 0.0
C2022 C 0.95434 0.35947 0.92699 0.0
C2023 C 0.97804 0.35688 0.92238 0.0
C2024 C 0.99723 0.38123 0.93311 0.0
C2025 C 0.01509 0.37488 0.95293 0.0
C2026 C 0.01146 0.39441 0.91262 0.0
C2027 C 0.98054 0.39771 0.94444 0.0
C2028 C 0.95588 0.3847 0.94054 0.0
C2029 C 0.93686 0.39568 0.94908 0.0
C2030 C 0.94312 0.4208 0.96183 0.0
C2031 C 0.96824 0.43472 0.96607 0.0
C2032 C 0.98719 0.42286 0.95733 0.0
H2033 H 0.94047 0.80974 0.14678 0.0
H2034 H 0.99273 0.79456 0.20259 0.0
H2035 H 0.96156 0.79404 0.23321 0.0
H2036 H 0.91172 0.85171 0.18795 0.0
H2037 H 0.88105 0.8389 0.17291 0.0
H2038 H 0.90795 0.83982 0.15554 0.0
H2039 H 0.89334 0.79008 0.14203 0.0
H2040 H 0.86637 0.78905 0.15923 0.0
H2041 H 0.88702 0.76801 0.16525 0.0
H2042 H 0.92416 0.79268 0.25728 0.0
H2043 H 0.88255 0.7896 0.27272 0.0
H2044 H 0.8546 0.80596 0.20164 0.0
C2045 C 0.94545 0.80655 0.16549 0.0
C2046 C 0.96911 0.80222 0.17224 0.0
C2047 C 0.97477 0.79793 0.19692 0.0
C2048 C 0.95721 0.79769 0.2145 0.0
C2049 C 0.93406 0.80186 0.20722 0.0
C2050 C 0.92812 0.80624 0.18332 0.0
C2051 C 0.90149 0.80904 0.18008 0.0
C2052 C 0.90051 0.8365 0.17374 0.0
C2053 C 0.88616 0.78778 0.16049 0.0
C2054 C 0.8933 0.805 0.20572 0.0
C2055 C 0.91244 0.80113 0.22116 0.0
C2056 C 0.90909 0.79593 0.24544 0.0
C2057 C 0.88543 0.79423 0.25406 0.0
C2058 C 0.86549 0.79767 0.23841 0.0
C2059 C 0.86962 0.80351 0.21408 0.0
H2060 H 0.52837 0.35461 0.10924 0.0
H2061 H 0.48352 0.29283 0.05668 0.0
H2062 H 0.48259 0.32437 0.02645 0.0
H2063 H 0.49755 0.40362 0.09588 0.0
H2064 H 0.52522 0.42956 0.09932 0.0
H2065 H 0.52383 0.40168 0.116 0.0
H2066 H 0.56373 0.39359 0.09695 0.0
H2067 H 0.56511 0.42149 0.08019 0.0
H2068 H 0.56474 0.39004 0.06385 0.0
H2069 H 0.48393 0.36374 0.00288 0.0
H2070 H 0.48767 0.40747 0.98861 0.0
H2071 H 0.53244 0.44238 0.05637 0.0
C2072 C 0.51861 0.34762 0.09128 0.0
C2073 C 0.50605 0.32121 0.08539 0.0
C2074 C 0.49335 0.31295 0.06167 0.0
C2075 C 0.49274 0.33072 0.04431 0.0
C2076 C 0.50507 0.35668 0.05081 0.0
C2077 C 0.51789 0.36506 0.07369 0.0
C2078 C 0.52874 0.39417 0.07654 0.0
C2079 C 0.51819 0.40806 0.09821 0.0
C2080 C 0.55728 0.40016 0.07955 0.0
C2081 C 0.51954 0.40089 0.05193 0.0
C2082 C 0.50606 0.37909 0.03721 0.0
C2083 C 0.49472 0.38094 0.01415 0.0
C2084 C 0.49696 0.40582 0.00615 0.0
C2085 C 0.51036 0.4284 0.02126 0.0
C2086 C 0.52211 0.42561 0.0442 0.0
H2087 H 0.92952 0.23951 0.37661 0.0
H2088 H 0.99147 0.28465 0.34267 0.0
H2089 H 0.96189 0.29741 0.31328 0.0
H2090 H 0.88838 0.21726 0.31939 0.0
H2091 H 0.86109 0.21953 0.33524 0.0
H2092 H 0.88734 0.212 0.35148 0.0
H2093 H 0.88867 0.25119 0.38453 0.0
H2094 H 0.86283 0.2592 0.36811 0.0
H2095 H 0.89157 0.28338 0.37509 0.0
H2096 H 0.925 0.30841 0.29016 0.0
H2097 H 0.88418 0.31318 0.27276 0.0
H2098 H 0.84714 0.26105 0.32263 0.0
C2099 C 0.93695 0.25164 0.36267 0.0
C2100 C 0.96283 0.26107 0.36192 0.0
C2101 C 0.97173 0.27699 0.34345 0.0
C2102 C 0.95506 0.28447 0.32679 0.0
C2103 C 0.92962 0.27563 0.32874 0.0
C2104 C 0.92066 0.25917 0.34596 0.0
C2105 C 0.89258 0.25301 0.34493 0.0
C2106 C 0.88171 0.22372 0.3373 0.0
C2107 C 0.88339 0.26225 0.36963 0.0
C2108 C 0.88707 0.2691 0.32486 0.0
C2109 C 0.90861 0.28196 0.31563 0.0
C2110 C 0.90804 0.29828 0.29715 0.0
C2111 C 0.88482 0.30102 0.28752 0.0
C2112 C 0.8626 0.2876 0.29648 0.0
C2113 C 0.86385 0.27168 0.31554 0.0
H2114 H 0.00535 0.67739 0.56709 0.0
H2115 H 0.92938 0.64989 0.58475 0.0
H2116 H 0.92354 0.61348 0.55112 0.0
H2117 H 0.99707 0.65669 0.49927 0.0
H2118 H 0.02597 0.64629 0.4996 0.0
H2119 H 0.02247 0.67294 0.52139 0.0
H2120 H 0.03509 0.64888 0.55719 0.0
H2121 H 0.03807 0.62172 0.53591 0.0
H2122 H 0.01763 0.61652 0.56043 0.0
H2123 H 0.92711 0.57833 0.51765 0.0
H2124 H 0.94117 0.54455 0.49091 0.0
H2125 H 0.01595 0.59288 0.49864 0.0
C2126 C 0.98723 0.66425 0.56316 0.0
C2127 C 0.96754 0.66672 0.57781 0.0
C2128 C 0.94445 0.64849 0.5732 0.0
C2129 C 0.94099 0.62786 0.55416 0.0
C2130 C 0.96096 0.62559 0.54025 0.0
C2131 C 0.98373 0.64317 0.54472 0.0
C2132 C 0.00324 0.63432 0.52985 0.0
C2133 C 0.01274 0.65372 0.51143 0.0
C2134 C 0.02477 0.63009 0.54685 0.0
C2135 C 0.98805 0.6088 0.51667 0.0
C2136 C 0.96354 0.60442 0.52234 0.0
C2137 C 0.94618 0.58168 0.51286 0.0
C2138 C 0.95424 0.56271 0.4976 0.0
C2139 C 0.9795 0.56646 0.49262 0.0
C2140 C 0.99646 0.58987 0.50198 0.0
H2141 H 0.60857 0.76329 0.86404 0.0
H2142 H 0.58611 0.82913 0.83554 0.0
H2143 H 0.61907 0.8322 0.80674 0.0
H2144 H 0.67404 0.78747 0.86187 0.0
H2145 H 0.68009 0.75594 0.85254 0.0
H2146 H 0.65412 0.75831 0.87037 0.0
H2147 H 0.62474 0.72654 0.83657 0.0
H2148 H 0.65073 0.72446 0.81858 0.0
H2149 H 0.62426 0.73423 0.80513 0.0
H2150 H 0.65529 0.82987 0.78251 0.0
H2151 H 0.69333 0.82257 0.76444 0.0
H2152 H 0.69269 0.75762 0.80736 0.0
C2153 C 0.61051 0.77827 0.85165 0.0
C2154 C 0.59465 0.79597 0.8521 0.0
C2155 C 0.59792 0.81532 0.83561 0.0
C2156 C 0.61658 0.8172 0.8191 0.0
C2157 C 0.63185 0.79952 0.81913 0.0
C2158 C 0.62908 0.7804 0.83492 0.0
C2159 C 0.64856 0.76436 0.83151 0.0
C2160 C 0.66519 0.76668 0.8555 0.0
C2161 C 0.63633 0.7357 0.8224 0.0
C2162 C 0.66288 0.77775 0.8116 0.0
C2163 C 0.65277 0.79791 0.80472 0.0
C2164 C 0.66324 0.81399 0.78756 0.0
C2165 C 0.68487 0.80969 0.77741 0.0
C2166 C 0.69582 0.78938 0.7843 0.0
C2167 C 0.68442 0.77293 0.80136 0.0
H2168 H 0.42401 0.51522 0.64843 0.0
H2169 H 0.44903 0.5951 0.6824 0.0
H2170 H 0.47528 0.60537 0.6476 0.0
H2171 H 0.48041 0.50765 0.63161 0.0
H2172 H 0.46926 0.4873 0.603 0.0
H2173 H 0.44924 0.48765 0.62779 0.0
H2174 H 0.41596 0.50084 0.59929 0.0
H2175 H 0.43585 0.49913 0.57444 0.0
H2176 H 0.42509 0.52851 0.58227 0.0
H2177 H 0.50425 0.60416 0.61247 0.0
H2178 H 0.52997 0.59259 0.57904 0.0
H2179 H 0.48455 0.51371 0.56882 0.0
C2180 C 0.43439 0.53513 0.64818 0.0
C2181 C 0.43446 0.55442 0.668 0.0
C2182 C 0.44848 0.58015 0.66718 0.0
C2183 C 0.46352 0.58607 0.64756 0.0
C2184 C 0.46392 0.56612 0.62885 0.0
C2185 C 0.44928 0.54128 0.62886 0.0
C2186 C 0.45447 0.52254 0.60815 0.0
C2187 C 0.46391 0.49998 0.61826 0.0
C2188 C 0.43145 0.51218 0.58995 0.0
C2189 C 0.47473 0.54046 0.59665 0.0
C2190 C 0.48005 0.56556 0.60871 0.0
C2191 C 0.49981 0.58473 0.60258 0.0
C2192 C 0.51438 0.578 0.5837 0.0
C2193 C 0.50899 0.55238 0.57124 0.0
C2194 C 0.48875 0.53361 0.57766 0.0
H2195 H 0.82214 0.25305 0.94974 0.0
H2196 H 0.83665 0.1775 0.92637 0.0
H2197 H 0.85357 0.19422 0.88859 0.0
H2198 H 0.79671 0.26256 0.89831 0.0
H2199 H 0.80917 0.29717 0.89894 0.0
H2200 H 0.8069 0.28276 0.92724 0.0
H2201 H 0.85398 0.30123 0.93844 0.0
H2202 H 0.85654 0.31581 0.9099 0.0
H2203 H 0.87606 0.29406 0.91726 0.0
H2204 H 0.85731 0.21451 0.84948 0.0
H2205 H 0.84623 0.2353 0.81333 0.0
H2206 H 0.82925 0.29789 0.8618 0.0
C2207 C 0.82982 0.24037 0.9371 0.0
C2208 C 0.82802 0.21402 0.94078 0.0
C2209 C 0.83805 0.19784 0.92392 0.0
C2210 C 0.8478 0.20725 0.90248 0.0
C2211 C 0.84788 0.233 0.89859 0.0
C2212 C 0.83957 0.24951 0.91577 0.0
C2213 C 0.83729 0.27456 0.90564 0.0
C2214 C 0.81096 0.27949 0.90763 0.0
C2215 C 0.85716 0.29779 0.91857 0.0
C2216 C 0.84266 0.2683 0.87916 0.0
C2217 C 0.84993 0.24482 0.87568 0.0
C2218 C 0.85235 0.23322 0.85212 0.0
C2219 C 0.84592 0.24511 0.83167 0.0
C2220 C 0.83683 0.26811 0.83499 0.0
C2221 C 0.83649 0.28051 0.85894 0.0
H2222 H 0.07477 0.53753 0.16046 0.0
H2223 H 0.05836 0.45742 0.1771 0.0
H2224 H 0.03413 0.44358 0.13649 0.0
H2225 H 0.01783 0.53779 0.13331 0.0
H2226 H 0.02912 0.55806 0.1098 0.0
H2227 H 0.04752 0.5607 0.13847 0.0
H2228 H 0.08411 0.55214 0.11452 0.0
H2229 H 0.06614 0.5482 0.08529 0.0
H2230 H 0.08058 0.52262 0.0939 0.0
H2231 H 0.00531 0.44062 0.0974 0.0
H2232 H 0.98011 0.4478 0.06065 0.0
H2233 H 0.01891 0.52924 0.0693 0.0
C2234 C 0.06672 0.51696 0.15515 0.0
C2235 C 0.06841 0.49845 0.17159 0.0
C2236 C 0.05748 0.47175 0.16441 0.0
C2237 C 0.0436 0.4638 0.14151 0.0
C2238 C 0.04147 0.48279 0.12601 0.0
C2239 C 0.05334 0.50874 0.13234 0.0
C2240 C 0.04744 0.52566 0.11321 0.0
C2241 C 0.03471 0.54677 0.12437 0.0
C2242 C 0.07095 0.53786 0.10098 0.0
C2243 C 0.02967 0.5054 0.0955 0.0
C2244 C 0.0262 0.48078 0.10311 0.0
C2245 C 0.00842 0.45967 0.09089 0.0
C2246 C 0.99406 0.4639 0.07025 0.0
C2247 C 0.99792 0.48892 0.0621 0.0
C2248 C 0.01601 0.50974 0.07483 0.0
H2249 H 0.74096 0.81639 0.45119 0.0
H2250 H 0.76417 0.89959 0.44689 0.0
H2251 H 0.77235 0.89085 0.40318 0.0
H2252 H 0.78374 0.79577 0.41528 0.0
H2253 H 0.76308 0.76709 0.39906 0.0
H2254 H 0.75674 0.77951 0.42937 0.0
H2255 H 0.71304 0.78311 0.41276 0.0
H2256 H 0.71895 0.76998 0.38251 0.0
H2257 H 0.71006 0.80082 0.38661 0.0
H2258 H 0.78437 0.87278 0.3622 0.0
H2259 H 0.79009 0.84703 0.32344 0.0
H2260 H 0.75517 0.77574 0.35272 0.0
C2261 C 0.74697 0.83274 0.44077 0.0
C2262 C 0.7518 0.85867 0.45236 0.0
C2263 C 0.75995 0.8796 0.43827 0.0
C2264 C 0.76492 0.87481 0.4135 0.0
C2265 C 0.76099 0.849 0.40291 0.0
C2266 C 0.7513 0.82832 0.41579 0.0
C2267 C 0.74854 0.80244 0.39994 0.0
C2268 C 0.76395 0.7852 0.41162 0.0
C2269 C 0.72101 0.78826 0.39517 0.0
C2270 C 0.75913 0.81176 0.37653 0.0
C2271 C 0.7665 0.83868 0.37873 0.0
C2272 C 0.77822 0.85172 0.36009 0.0
C2273 C 0.7817 0.83693 0.33827 0.0
C2274 C 0.77311 0.80945 0.33515 0.0
C2275 C 0.76187 0.79676 0.35464 0.0
H2276 H 0.42105 0.54584 0.82008 0.0
H2277 H 0.48741 0.54544 0.78144 0.0
H2278 H 0.50815 0.53456 0.81865 0.0
H2279 H 0.45542 0.57199 0.8833 0.0
H2280 H 0.43175 0.55186 0.8988 0.0
H2281 H 0.42357 0.56417 0.87062 0.0
H2282 H 0.40328 0.51689 0.85159 0.0
H2283 H 0.41201 0.50432 0.87937 0.0
H2284 H 0.42163 0.49262 0.85017 0.0
H2285 H 0.51893 0.51598 0.85631 0.0
H2286 H 0.52248 0.49861 0.89626 0.0
H2287 H 0.45016 0.51216 0.91233 0.0
C2288 C 0.44034 0.54472 0.81993 0.0
C2289 C 0.45273 0.54668 0.79795 0.0
C2290 C 0.47768 0.54419 0.79813 0.0
C2291 C 0.48958 0.53787 0.81914 0.0
C2292 C 0.4764 0.53439 0.83999 0.0
C2293 C 0.45262 0.53845 0.84093 0.0
C2294 C 0.4423 0.53188 0.86537 0.0
C2295 C 0.43801 0.55644 0.88041 0.0
C2296 C 0.41839 0.51013 0.86136 0.0
C2297 C 0.46355 0.52241 0.87736 0.0
C2298 C 0.48299 0.52408 0.86232 0.0
C2299 C 0.50408 0.5151 0.86853 0.0
C2300 C 0.50579 0.50497 0.89113 0.0
C2301 C 0.48662 0.50403 0.90736 0.0
C2302 C 0.4651 0.51264 0.90025 0.0
H2303 H 0.76541 0.19586 0.07742 0.0
H2304 H 0.83742 0.23804 0.05951 0.0
H2305 H 0.84335 0.26436 0.10056 0.0
H2306 H 0.74677 0.24823 0.1081 0.0
H2307 H 0.73165 0.23065 0.13179 0.0
H2308 H 0.73391 0.21357 0.1021 0.0
H2309 H 0.75588 0.18169 0.12275 0.0
H2310 H 0.75301 0.19821 0.15257 0.0
H2311 H 0.78307 0.19463 0.14374 0.0
H2312 H 0.83921 0.28862 0.14179 0.0
H2313 H 0.82862 0.30441 0.18313 0.0
H2314 H 0.75961 0.24526 0.17396 0.0
C2315 C 0.78273 0.21009 0.08258 0.0
C2316 C 0.80123 0.21482 0.06585 0.0
C2317 C 0.8234 0.23395 0.07257 0.0
C2318 C 0.82675 0.24907 0.09564 0.0
C2319 C 0.80776 0.24452 0.11155 0.0
C2320 C 0.78644 0.22506 0.10555 0.0
C2321 C 0.76873 0.22425 0.12574 0.0
C2322 C 0.7438 0.22949 0.11636 0.0
C2323 C 0.76496 0.19815 0.13686 0.0
C2324 C 0.78319 0.2466 0.14386 0.0
C2325 C 0.80555 0.2582 0.13531 0.0
C2326 C 0.82187 0.27953 0.14879 0.0
C2327 C 0.81559 0.28852 0.17211 0.0
C2328 C 0.79332 0.27597 0.18162 0.0
C2329 C 0.77673 0.25519 0.16705 0.0
H2330 H 0.08483 0.47977 0.31925 0.0
H2331 H 0.01763 0.47942 0.27465 0.0
H2332 H 0.99233 0.46098 0.30716 0.0
H2333 H 0.05789 0.42057 0.35338 0.0
H2334 H 0.07519 0.43647 0.38175 0.0
H2335 H 0.08795 0.44213 0.35254 0.0
H2336 H 0.0933 0.49196 0.36363 0.0
H2337 H 0.08068 0.48645 0.39271 0.0
H2338 H 0.06673 0.50451 0.37188 0.0
H2339 H 0.97488 0.45246 0.34646 0.0
H2340 H 0.96676 0.45682 0.39046 0.0
H2341 H 0.04466 0.4628 0.41099 0.0
C2342 C 0.06478 0.47467 0.31604 0.0
C2343 C 0.05306 0.48061 0.29447 0.0
C2344 C 0.02685 0.47479 0.29108 0.0
C2345 C 0.01235 0.4641 0.30934 0.0
C2346 C 0.02435 0.45942 0.33094 0.0
C2347 C 0.05001 0.46443 0.3344 0.0
C2348 C 0.05829 0.4622 0.36087 0.0
C2349 C 0.07055 0.43895 0.36221 0.0
C2350 C 0.07575 0.4878 0.37297 0.0
C2351 C 0.03344 0.45714 0.37208 0.0
C2352 C 0.01405 0.4547 0.35429 0.0
C2353 C 0.98975 0.45354 0.36048 0.0
C2354 C 0.98529 0.45609 0.3855 0.0
C2355 C 0.00505 0.45984 0.40393 0.0
C2356 C 0.02916 0.45919 0.39715 0.0
H2357 H 0.78437 0.86614 0.60724 0.0
H2358 H 0.70722 0.84518 0.5787 0.0
H2359 H 0.69584 0.82429 0.6166 0.0
H2360 H 0.7869 0.81031 0.63333 0.0
H2361 H 0.80657 0.82601 0.66045 0.0
H2362 H 0.80799 0.8415 0.63254 0.0
H2363 H 0.79862 0.88291 0.65605 0.0
H2364 H 0.79744 0.86759 0.68416 0.0
H2365 H 0.77147 0.87995 0.67332 0.0
H2366 H 0.69452 0.80001 0.65503 0.0
H2367 H 0.70257 0.77883 0.69226 0.0
H2368 H 0.78011 0.8192 0.69665 0.0
C2369 C 0.765 0.85765 0.60928 0.0
C2370 C 0.74661 0.85717 0.59021 0.0
C2371 C 0.72148 0.84589 0.5933 0.0
C2372 C 0.71492 0.83395 0.6147 0.0
C2373 C 0.73367 0.83417 0.63298 0.0
C2374 C 0.75813 0.84635 0.63069 0.0
C2375 C 0.77496 0.84341 0.6525 0.0
C2376 C 0.79529 0.82947 0.64419 0.0
C2377 C 0.78628 0.87005 0.66738 0.0
C2378 C 0.75644 0.82655 0.66688 0.0
C2379 C 0.73268 0.82142 0.65545 0.0
C2380 C 0.71295 0.80441 0.66439 0.0
C2381 C 0.71768 0.79238 0.68544 0.0
C2382 C 0.74187 0.79761 0.69738 0.0
C2383 C 0.76133 0.8152 0.68813 0.0
H2384 H 0.68648 0.42632 0.54665 0.0
H2385 H 0.71231 0.43565 0.47375 0.0
H2386 H 0.69101 0.47182 0.47063 0.0
H2387 H 0.62684 0.43448 0.53153 0.0
H2388 H 0.6236 0.45138 0.56105 0.0
H2389 H 0.64352 0.42879 0.55898 0.0
H2390 H 0.68032 0.46504 0.57989 0.0
H2391 H 0.66039 0.48777 0.58204 0.0
H2392 H 0.68879 0.4955 0.56684 0.0
H2393 H 0.6646 0.50475 0.47428 0.0
H2394 H 0.63168 0.5286 0.48255 0.0
H2395 H 0.62185 0.49657 0.55227 0.0
C2396 C 0.68806 0.43631 0.53023 0.0
C2397 C 0.70123 0.42839 0.51053 0.0
C2398 C 0.70235 0.44148 0.48907 0.0
C2399 C 0.69049 0.46216 0.48723 0.0
C2400 C 0.67753 0.46941 0.50696 0.0
C2401 C 0.67607 0.45672 0.52797 0.0
C2402 C 0.65879 0.46631 0.54537 0.0
C2403 C 0.6369 0.44389 0.54945 0.0
C2404 C 0.67293 0.47944 0.56999 0.0
C2405 C 0.65035 0.48605 0.5307 0.0
C2406 C 0.66173 0.48789 0.5088 0.0
C2407 C 0.65575 0.50362 0.49146 0.0
C2408 C 0.63703 0.51705 0.49625 0.0
C2409 C 0.62433 0.5144 0.51795 0.0
C2410 C 0.63164 0.49937 0.53574 0.0
H2411 H 0.17341 0.11353 0.45593 0.0
H2412 H 0.21655 0.08725 0.51269 0.0
H2413 H 0.18055 0.05093 0.51707 0.0
H2414 H 0.11785 0.10316 0.4825 0.0
H2415 H 0.09843 0.09182 0.45421 0.0
H2416 H 0.12829 0.11359 0.45364 0.0
H2417 H 0.14132 0.08061 0.42154 0.0
H2418 H 0.11125 0.0589 0.42167 0.0
H2419 H 0.13901 0.04743 0.42808 0.0
H2420 H 0.13714 0.02152 0.51914 0.0
H2421 H 0.09258 0.99834 0.51462 0.0
H2422 H 0.07984 0.04325 0.45495 0.0
C2423 C 0.17549 0.09969 0.46881 0.0
C2424 C 0.19767 0.10303 0.48392 0.0
C2425 C 0.19975 0.08473 0.50071 0.0
C2426 C 0.17935 0.0642 0.50343 0.0
C2427 C 0.15734 0.06205 0.48882 0.0
C2428 C 0.15559 0.07898 0.47139 0.0
C2429 C 0.12984 0.07324 0.45844 0.0
C2430 C 0.11791 0.09685 0.46246 0.0
C2431 C 0.1304 0.06452 0.43079 0.0
C2432 C 0.11704 0.05095 0.4718 0.0
C2433 C 0.13304 0.04471 0.48934 0.0
C2434 C 0.12464 0.02587 0.50507 0.0
C2435 C 0.09935 0.01291 0.5025 0.0
C2436 C 0.08302 0.01877 0.48419 0.0
C2437 C 0.09207 0.03799 0.46875 0.0
H2438 H 0.16715 0.91789 0.75523 0.0
H2439 H 0.2257 0.98489 0.78455 0.0
H2440 H 0.25701 0.95894 0.77636 0.0
H2441 H 0.19371 0.87016 0.78083 0.0
H2442 H 0.18362 0.84576 0.75464 0.0
H2443 H 0.16613 0.87012 0.76167 0.0
H2444 H 0.17044 0.88344 0.71737 0.0
H2445 H 0.18818 0.85925 0.71038 0.0
H2446 H 0.20092 0.89292 0.70642 0.0
H2447 H 0.28174 0.92502 0.76702 0.0
H2448 H 0.29781 0.88523 0.75901 0.0
H2449 H 0.22318 0.84064 0.73506 0.0
C2450 C 0.18656 0.9272 0.75981 0.0
C2451 C 0.19394 0.95349 0.77051 0.0
C2452 C 0.21955 0.96481 0.77634 0.0
C2453 C 0.23749 0.95026 0.77165 0.0
C2454 C 0.22956 0.92444 0.76102 0.0
C2455 C 0.20469 0.91298 0.75523 0.0
C2456 C 0.20097 0.88456 0.74498 0.0
C2457 C 0.18518 0.8666 0.76152 0.0
C2458 C 0.18945 0.87977 0.7182 0.0
C2459 C 0.22762 0.8817 0.74623 0.0
C2460 C 0.24384 0.90497 0.75539 0.0
C2461 C 0.26925 0.90677 0.75958 0.0
C2462 C 0.27821 0.88407 0.75492 0.0
C2463 C 0.26183 0.85986 0.74613 0.0
C2464 C 0.23629 0.85892 0.74122 0.0
H2465 H 0.35093 0.89468 0.00771 0.0
H2466 H 0.31625 0.9539 0.0417 0.0
H2467 H 0.3573 0.98511 0.0479 0.0
H2468 H 0.40983 0.91284 0.04533 0.0
H2469 H 0.42746 0.90641 0.01955 0.0
H2470 H 0.3959 0.88828 0.02022 0.0
H2471 H 0.38462 0.90239 0.97771 0.0
H2472 H 0.4161 0.92053 0.97694 0.0
H2473 H 0.39079 0.93663 0.97382 0.0
H2474 H 0.40244 0.01002 0.04924 0.0
H2475 H 0.44659 0.02742 0.0424 0.0
H2476 H 0.45009 0.95208 0.00522 0.0
C2477 C 0.35197 0.91406 0.01688 0.0
C2478 C 0.33048 0.92181 0.02453 0.0
C2479 C 0.33255 0.94756 0.03584 0.0
C2480 C 0.35577 0.96534 0.03951 0.0
C2481 C 0.37658 0.95706 0.03154 0.0
C2482 C 0.37478 0.93205 0.02029 0.0
C2483 C 0.39938 0.92844 0.01155 0.0
C2484 C 0.40869 0.90777 0.02497 0.0
C2485 C 0.39761 0.92161 0.98334 0.0
C2486 C 0.41533 0.95542 0.01939 0.0
C2487 C 0.40204 0.97158 0.03127 0.0
C2488 C 0.41299 0.99751 0.03997 0.0
C2489 C 0.43804 0.00722 0.03604 0.0
C2490 C 0.45162 0.99115 0.02314 0.0
C2491 C 0.44012 0.96487 0.01502 0.0
H2492 H 0.8533 0.61263 0.73592 0.0
H2493 H 0.83061 0.58161 0.80391 0.0
H2494 H 0.79824 0.60707 0.80558 0.0
H2495 H 0.84747 0.67577 0.75308 0.0
H2496 H 0.83564 0.68129 0.72321 0.0
H2497 H 0.85528 0.65861 0.72547 0.0
H2498 H 0.82165 0.622 0.70043 0.0
H2499 H 0.80198 0.64469 0.69751 0.0
H2500 H 0.79058 0.61456 0.71033 0.0
H2501 H 0.77182 0.63991 0.80249 0.0
H2502 H 0.75304 0.67687 0.79421 0.0
H2503 H 0.79148 0.68476 0.72735 0.0
C2504 C 0.84127 0.61085 0.75096 0.0
C2505 C 0.84449 0.59511 0.76978 0.0
C2506 C 0.82845 0.59346 0.78922 0.0
C2507 C 0.80995 0.6078 0.79031 0.0
C2508 C 0.80747 0.62339 0.77161 0.0
C2509 C 0.82255 0.62479 0.75219 0.0
C2510 C 0.81713 0.64418 0.73527 0.0
C2511 C 0.84028 0.66625 0.73422 0.0
C2512 C 0.80724 0.63053 0.70935 0.0
C2513 C 0.79709 0.65401 0.74853 0.0
C2514 C 0.79169 0.6417 0.76943 0.0
C2515 C 0.77548 0.64926 0.78588 0.0
C2516 C 0.76491 0.67023 0.78108 0.0
C2517 C 0.77047 0.68323 0.75995 0.0
C2518 C 0.7863 0.6746 0.74323 0.0
H2519 H 0.81921 0.60448 0.95703 0.0
H2520 H 0.81046 0.62973 0.03353 0.0
H2521 H 0.83692 0.60103 0.04711 0.0
H2522 H 0.81904 0.53723 0.96441 0.0
H2523 H 0.84255 0.53517 0.94319 0.0
H2524 H 0.82228 0.55707 0.93925 0.0
H2525 H 0.86041 0.5959 0.94046 0.0
H2526 H 0.88076 0.57406 0.94412 0.0
H2527 H 0.88343 0.60235 0.9663 0.0
H2528 H 0.86465 0.57004 0.05252 0.0
H2529 H 0.89454 0.54164 0.04939 0.0
H2530 H 0.8859 0.53677 0.9695 0.0
C2531 C 0.82281 0.60394 0.97664 0.0
C2532 C 0.81265 0.61933 0.99421 0.0
C2533 C 0.81803 0.6182 0.0197 0.0
C2534 C 0.83294 0.60183 0.02761 0.0
C2535 C 0.84247 0.58677 0.00983 0.0
C2536 C 0.83784 0.58786 0.98487 0.0
C2537 C 0.85124 0.57049 0.96961 0.0
C2538 C 0.83266 0.5487 0.95315 0.0
C2539 C 0.87008 0.58667 0.95422 0.0
C2540 C 0.86419 0.55955 0.9899 0.0
C2541 C 0.85868 0.56904 0.01295 0.0
C2542 C 0.869 0.56238 0.03457 0.0
C2543 C 0.88587 0.54615 0.03262 0.0
C2544 C 0.89232 0.53682 0.00923 0.0
C2545 C 0.88098 0.54327 0.98761 0.0
H2546 H 0.1655 0.11734 0.76856 0.0
H2547 H 0.21753 0.08664 0.81266 0.0
H2548 H 0.24784 0.12924 0.81548 0.0
H2549 H 0.21115 0.15436 0.73356 0.0
H2550 H 0.19539 0.18066 0.73232 0.0
H2551 H 0.17785 0.14802 0.73436 0.0
H2552 H 0.1589 0.16477 0.77349 0.0
H2553 H 0.17655 0.19743 0.77167 0.0
H2554 H 0.17924 0.18227 0.79953 0.0
H2555 H 0.27138 0.1759 0.81503 0.0
H2556 H 0.28852 0.22149 0.8074 0.0
H2557 H 0.2219 0.22019 0.76126 0.0
C2558 C 0.18327 0.11957 0.77885 0.0
C2559 C 0.18918 0.09885 0.79059 0.0
C2560 C 0.21272 0.10233 0.80353 0.0
C2561 C 0.22994 0.12644 0.80533 0.0
C2562 C 0.22336 0.14659 0.79377 0.0
C2563 C 0.20073 0.14326 0.78047 0.0
C2564 C 0.19848 0.16761 0.76898 0.0
C2565 C 0.19555 0.16234 0.74062 0.0
C2566 C 0.17702 0.17867 0.77903 0.0
C2567 C 0.22338 0.18528 0.77797 0.0
C2568 C 0.23733 0.17295 0.79253 0.0
C2569 C 0.26072 0.18566 0.8035 0.0
C2570 C 0.27024 0.21153 0.79914 0.0
C2571 C 0.25652 0.22414 0.78365 0.0
C2572 C 0.23278 0.21088 0.77306 0.0
H2573 H 0.3917 0.96023 0.23785 0.0
H2574 H 0.35699 0.01166 0.28362 0.0
H2575 H 0.3232 0.9741 0.28973 0.0
H2576 H 0.33227 0.91731 0.20855 0.0
H2577 H 0.34484 0.8886 0.20776 0.0
H2578 H 0.36493 0.91996 0.2053 0.0
H2579 H 0.3933 0.9137 0.24248 0.0
H2580 H 0.37315 0.88255 0.2453 0.0
H2581 H 0.38012 0.90742 0.27137 0.0
H2582 H 0.29729 0.9301 0.29623 0.0
H2583 H 0.27721 0.88338 0.29723 0.0
H2584 H 0.32634 0.86133 0.24409 0.0
C2585 C 0.37667 0.96363 0.24869 0.0
C2586 C 0.3769 0.98875 0.26031 0.0
C2587 C 0.357 0.99255 0.2744 0.0
C2588 C 0.33782 0.97134 0.27806 0.0
C2589 C 0.33854 0.94665 0.26697 0.0
C2590 C 0.35708 0.9428 0.25202 0.0
C2591 C 0.35381 0.91424 0.24261 0.0
C2592 C 0.34865 0.90977 0.21438 0.0
C2593 C 0.37644 0.90388 0.25095 0.0
C2594 C 0.33109 0.90251 0.25538 0.0
C2595 C 0.32264 0.92149 0.26949 0.0
C2596 C 0.30331 0.91512 0.28476 0.0
C2597 C 0.29216 0.88866 0.28537 0.0
C2598 C 0.30016 0.86915 0.2705 0.0
C2599 C 0.31968 0.87612 0.25522 0.0
H2600 H 0.57698 0.37393 0.60759 0.0
H2601 H 0.50325 0.34351 0.6304 0.0
H2602 H 0.48643 0.37254 0.60466 0.0
H2603 H 0.57028 0.43985 0.60948 0.0
H2604 H 0.58758 0.44765 0.58324 0.0
H2605 H 0.59498 0.42386 0.60209 0.0
H2606 H 0.58874 0.38877 0.5649 0.0
H2607 H 0.58206 0.41177 0.54478 0.0
H2608 H 0.56013 0.38113 0.54544 0.0
H2609 H 0.47764 0.40423 0.57557 0.0
H2610 H 0.4781 0.43917 0.54872 0.0
H2611 H 0.55793 0.4494 0.54597 0.0
C2612 C 0.55729 0.37335 0.60717 0.0
C2613 C 0.54136 0.35635 0.62084 0.0
C2614 C 0.51577 0.35644 0.6201 0.0
C2615 C 0.50604 0.37273 0.60542 0.0
C2616 C 0.5222 0.38897 0.59187 0.0
C2617 C 0.54734 0.38968 0.59292 0.0
C2618 C 0.56093 0.4098 0.57757 0.0
C2619 C 0.57956 0.43155 0.59407 0.0
C2620 C 0.57372 0.39709 0.55696 0.0
C2621 C 0.53943 0.41981 0.56718 0.0
C2622 C 0.51724 0.40757 0.57562 0.0
C2623 C 0.49491 0.41395 0.56885 0.0
C2624 C 0.49537 0.43377 0.55347 0.0
C2625 C 0.51804 0.44703 0.5451 0.0
C2626 C 0.54024 0.43958 0.55184 0.0
H2627 H 0.38776 0.745 0.3673 0.0
H2628 H 0.43913 0.72823 0.31405 0.0
H2629 H 0.40858 0.73065 0.27998 0.0
H2630 H 0.32949 0.71202 0.33157 0.0
H2631 H 0.31399 0.73743 0.34098 0.0
H2632 H 0.33775 0.73056 0.36153 0.0
H2633 H 0.36158 0.77818 0.36527 0.0
H2634 H 0.33988 0.78715 0.34388 0.0
H2635 H 0.37208 0.79272 0.3381 0.0
H2636 H 0.37296 0.73867 0.25185 0.0
H2637 H 0.33717 0.7532 0.23312 0.0
H2638 H 0.31177 0.7672 0.30564 0.0
C2639 C 0.39235 0.74091 0.3485 0.0
C2640 C 0.41569 0.73606 0.34334 0.0
C2641 C 0.42122 0.73174 0.31842 0.0
C2642 C 0.40398 0.73303 0.29896 0.0
C2643 C 0.38141 0.73879 0.3048 0.0
C2644 C 0.37566 0.74258 0.32902 0.0
C2645 C 0.35182 0.75173 0.33081 0.0
C2646 C 0.33211 0.73176 0.34192 0.0
C2647 C 0.35662 0.77903 0.34542 0.0
C2648 C 0.34498 0.75273 0.30389 0.0
C2649 C 0.36199 0.74486 0.289 0.0
C2650 C 0.35954 0.74477 0.26341 0.0
C2651 C 0.33924 0.75307 0.25295 0.0
C2652 C 0.32215 0.76185 0.26816 0.0
C2653 C 0.32498 0.76134 0.2938 0.0
H2654 H 0.06513 0.70689 0.08974 0.0
H2655 H 0.99166 0.7182 0.10424 0.0
H2656 H 0.97318 0.67347 0.08441 0.0
H2657 H 0.04945 0.67145 0.03098 0.0
H2658 H 0.06951 0.64933 0.03499 0.0
H2659 H 0.07725 0.68157 0.0516 0.0
H2660 H 0.0791 0.66185 0.09307 0.0
H2661 H 0.07163 0.62951 0.07657 0.0
H2662 H 0.05276 0.6379 0.10061 0.0
H2663 H 0.96267 0.62967 0.06014 0.0
H2664 H 0.96027 0.58732 0.03629 0.0
H2665 H 0.04088 0.60318 0.03869 0.0
C2666 C 0.04515 0.69988 0.08898 0.0
C2667 C 0.02976 0.71603 0.09843 0.0
C2668 C 0.00376 0.70611 0.0972 0.0
C2669 C 0.99313 0.6808 0.08591 0.0
C2670 C 0.00882 0.66564 0.07632 0.0
C2671 C 0.03428 0.6746 0.07808 0.0
C2672 C 0.04692 0.65439 0.06605 0.0
C2673 C 0.06164 0.66482 0.04463 0.0
C2674 C 0.06358 0.64538 0.08522 0.0
C2675 C 0.02448 0.63284 0.05671 0.0
C2676 C 0.00275 0.63987 0.06283 0.0
C2677 C 0.97954 0.62383 0.05547 0.0
C2678 C 0.97845 0.59983 0.04172 0.0
C2679 C 1.00045 0.59186 0.03552 0.0
C2680 C 0.02379 0.60864 0.04321 0.0
H2681 H 0.06498 0.25824 0.83611 0.0
H2682 H 0.02491 0.27251 0.77018 0.0
H2683 H 0.0618 0.27221 0.74699 0.0
H2684 H 0.12445 0.29873 0.82562 0.0
H2685 H 0.14212 0.27707 0.83728 0.0
H2686 H 0.11247 0.27828 0.84877 0.0
H2687 H 0.09736 0.22836 0.83684 0.0
H2688 H 0.12689 0.22709 0.82504 0.0
H2689 H 0.09863 0.21473 0.80545 0.0
H2690 H 0.10287 0.27059 0.73072 0.0
H2691 H 0.14639 0.2702 0.72317 0.0
H2692 H 0.16026 0.25661 0.79918 0.0
C2693 C 0.06399 0.26143 0.81683 0.0
C2694 C 0.04192 0.26541 0.80502 0.0
C2695 C 0.04149 0.26943 0.77972 0.0
C2696 C 0.06237 0.26921 0.76632 0.0
C2697 C 0.08365 0.26492 0.77839 0.0
C2698 C 0.08474 0.26126 0.80311 0.0
C2699 C 0.11013 0.25745 0.81164 0.0
C2700 C 0.12305 0.27918 0.83203 0.0
C2701 C 0.10812 0.23029 0.82025 0.0
C2702 C 0.12314 0.25969 0.78789 0.0
C2703 C 0.10744 0.26387 0.76893 0.0
C2704 C 0.11531 0.26723 0.7454 0.0
C2705 C 0.14003 0.26689 0.74125 0.0
C2706 C 0.15662 0.26319 0.7605 0.0
C2707 C 0.1479 0.25913 0.78402 0.0
H2708 H 0.49924 0.67842 0.9274 0.0
H2709 H 0.56795 0.72357 0.96613 0.0
H2710 H 0.57189 0.68553 0.98796 0.0
H2711 H 0.47516 0.64511 0.97518 0.0
H2712 H 0.46246 0.61417 0.957 0.0
H2713 H 0.46604 0.64394 0.9428 0.0
H2714 H 0.49266 0.62677 0.91023 0.0
H2715 H 0.48867 0.59666 0.92397 0.0
H2716 H 0.51946 0.61529 0.9203 0.0
H2717 H 0.56473 0.64478 0.00968 0.0
H2718 H 0.55188 0.60121 0.02385 0.0
H2719 H 0.48973 0.58138 0.96818 0.0
C2720 C 0.51548 0.67992 0.93992 0.0
C2721 C 0.53348 0.70361 0.94503 0.0
C2722 C 0.55429 0.7053 0.96176 0.0
C2723 C 0.55651 0.68392 0.97435 0.0
C2724 C 0.53799 0.66099 0.96951 0.0
C2725 C 0.51829 0.65858 0.9521 0.0
C2726 C 0.50087 0.63187 0.95036 0.0
C2727 C 0.47459 0.63392 0.95672 0.0
C2728 C 0.5004 0.61676 0.9247 0.0
C2729 C 0.51342 0.6199 0.97006 0.0
C2730 C 0.53462 0.6371 0.9811 0.0
C2731 C 0.54843 0.63098 0.00085 0.0
C2732 C 0.54085 0.60628 0.00892 0.0
C2733 C 0.51993 0.58789 0.99698 0.0
C2734 C 0.50593 0.59498 0.9775 0.0
H2735 H 0.07925 0.76278 0.65327 0.0
H2736 H 0.0482 0.68893 0.68072 0.0
H2737 H 0.08966 0.6866 0.69673 0.0
H2738 H 0.13721 0.74653 0.6354 0.0
H2739 H 0.15614 0.77864 0.64549 0.0
H2740 H 0.12394 0.77471 0.63503 0.0
H2741 H 0.11621 0.79908 0.67637 0.0
H2742 H 0.14839 0.80321 0.68688 0.0
H2743 H 0.12436 0.78766 0.70504 0.0
H2744 H 0.13335 0.69201 0.7112 0.0
H2745 H 0.17788 0.70617 0.72479 0.0
H2746 H 0.18267 0.77629 0.68847 0.0
C2747 C 0.08124 0.74612 0.66257 0.0
C2748 C 0.06027 0.72608 0.66567 0.0
C2749 C 0.06375 0.70466 0.6781 0.0
C2750 C 0.08733 0.70302 0.68723 0.0
C2751 C 0.10751 0.72293 0.68392 0.0
C2752 C 0.10488 0.74417 0.67203 0.0
C2753 C 0.12991 0.76318 0.67191 0.0
C2754 C 0.13723 0.76592 0.64537 0.0
C2755 C 0.1297 0.78986 0.68588 0.0
C2756 C 0.14676 0.7493 0.68574 0.0
C2757 C 0.1333 0.72604 0.69232 0.0
C2758 C 0.14419 0.71008 0.70602 0.0
C2759 C 0.1695 0.71826 0.71363 0.0
C2760 C 0.18372 0.74213 0.70748 0.0
C2761 C 0.17229 0.7577 0.69303 0.0
H2762 H 0.99495 0.33506 0.45521 0.0
H2763 H 0.07336 0.33604 0.46462 0.0
H2764 H 0.08142 0.38115 0.48636 0.0
H2765 H 0.00397 0.40177 0.44184 0.0
H2766 H 0.97687 0.40667 0.45679 0.0
H2767 H 0.97793 0.37463 0.44291 0.0
H2768 H 0.96872 0.35632 0.48471 0.0
H2769 H 0.96786 0.38837 0.49867 0.0
H2770 H 0.98868 0.37076 0.51203 0.0
H2771 H 0.07967 0.42626 0.5088 0.0
H2772 H 0.06909 0.46781 0.52511 0.0
H2773 H 0.99236 0.43618 0.49756 0.0
C2774 C 0.01382 0.34469 0.462 0.0
C2775 C 0.03351 0.33208 0.45873 0.0
C2776 C 0.05805 0.34547 0.46719 0.0
C2777 C 0.06272 0.37097 0.47957 0.0
C2778 C 0.0427 0.38277 0.48272 0.0
C2779 C 0.01881 0.3701 0.47371 0.0
C2780 C 1.00055 0.38713 0.47806 0.0
C2781 C 0.98917 0.39289 0.45344 0.0
C2782 C 0.98027 0.37491 0.49434 0.0
C2783 C 0.01767 0.41125 0.49153 0.0
C2784 C 0.04191 0.40854 0.49428 0.0
C2785 C 0.06076 0.42855 0.50659 0.0
C2786 C 0.05461 0.45196 0.51591 0.0
C2787 C 0.02996 0.45503 0.51251 0.0
C2788 C 0.01139 0.43436 0.50032 0.0
H2789 H 0.40625 0.22186 0.18151 0.0
H2790 H 0.44236 0.2972 0.16029 0.0
H2791 H 0.41387 0.31794 0.18444 0.0
H2792 H 0.34532 0.23189 0.17665 0.0
H2793 H 0.33493 0.21517 0.20264 0.0
H2794 H 0.35886 0.20569 0.18523 0.0
H2795 H 0.38872 0.2129 0.22433 0.0
H2796 H 0.36521 0.2219 0.24269 0.0
H2797 H 0.3953 0.24381 0.24346 0.0
H2798 H 0.38017 0.33005 0.21036 0.0
H2799 H 0.34348 0.33198 0.23382 0.0
H2800 H 0.33045 0.24847 0.23776 0.0
C2801 C 0.40835 0.24277 0.182 0.0
C2802 C 0.42665 0.25792 0.16905 0.0
C2803 C 0.4285 0.28518 0.17005 0.0
C2804 C 0.41246 0.29714 0.1838 0.0
C2805 C 0.3947 0.28158 0.19643 0.0
C2806 C 0.39255 0.25495 0.19553 0.0
C2807 C 0.37132 0.2423 0.20977 0.0
C2808 C 0.35145 0.22259 0.19254 0.0
C2809 C 0.38071 0.22948 0.23134 0.0
C2810 C 0.36185 0.26595 0.21896 0.0
C2811 C 0.37552 0.28847 0.21117 0.0
C2812 C 0.36945 0.31253 0.21668 0.0
C2813 C 0.34861 0.31344 0.23009 0.0
C2814 C 0.33406 0.29042 0.23778 0.0
C2815 C 0.34119 0.26653 0.23241 0.0
H2816 H 0.61828 0.53145 0.37342 0.0
H2817 H 0.5968 0.4521 0.33761 0.0
H2818 H 0.57253 0.43891 0.3731 0.0
H2819 H 0.6217 0.51564 0.43812 0.0
H2820 H 0.60921 0.54322 0.44879 0.0
H2821 H 0.62784 0.54472 0.42268 0.0
H2822 H 0.59226 0.55619 0.39645 0.0
H2823 H 0.57343 0.55442 0.42229 0.0
H2824 H 0.56182 0.53461 0.39348 0.0
H2825 H 0.54446 0.43704 0.40946 0.0
H2826 H 0.51937 0.44569 0.44448 0.0
H2827 H 0.56112 0.52609 0.45571 0.0
C2828 C 0.60917 0.51108 0.37343 0.0
C2829 C 0.6095 0.49273 0.35296 0.0
C2830 C 0.59709 0.46634 0.35338 0.0
C2831 C 0.58313 0.45877 0.37337 0.0
C2832 C 0.58221 0.47779 0.39281 0.0
C2833 C 0.59539 0.50331 0.39309 0.0
C2834 C 0.59006 0.5207 0.4148 0.0
C2835 C 0.61361 0.53171 0.43215 0.0
C2836 C 0.57872 0.54275 0.40622 0.0
C2837 C 0.5713 0.50124 0.42651 0.0
C2838 C 0.56685 0.47654 0.4137 0.0
C2839 C 0.54829 0.45615 0.41994 0.0
C2840 C 0.53406 0.46122 0.43973 0.0
C2841 C 0.5386 0.48642 0.45298 0.0
C2842 C 0.55764 0.50645 0.44635 0.0
H2843 H 0.22827 0.86849 0.08493 0.0
H2844 H 0.21643 0.79453 0.03912 0.0
H2845 H 0.20589 0.77115 0.07524 0.0
H2846 H 0.2613 0.85399 0.12915 0.0
H2847 H 0.25011 0.86986 0.15554 0.0
H2848 H 0.24723 0.88128 0.12594 0.0
H2849 H 0.1997 0.87493 0.12815 0.0
H2850 H 0.20245 0.864 0.15823 0.0
H2851 H 0.18135 0.84378 0.13408 0.0
H2852 H 0.2101 0.7564 0.11567 0.0
H2853 H 0.22467 0.75122 0.15801 0.0
H2854 H 0.23341 0.83412 0.17906 0.0
C2855 C 0.22189 0.84745 0.08243 0.0
C2856 C 0.22281 0.8332 0.05943 0.0
C2857 C 0.21554 0.80566 0.05669 0.0
C2858 C 0.20944 0.79224 0.07709 0.0
C2859 C 0.21061 0.8067 0.10004 0.0
C2860 C 0.21607 0.83376 0.10283 0.0
C2861 C 0.22068 0.84454 0.12988 0.0
C2862 C 0.24635 0.8635 0.13542 0.0
C2863 C 0.19979 0.85758 0.13806 0.0
C2864 C 0.21958 0.81954 0.14151 0.0
C2865 C 0.21297 0.79788 0.12407 0.0
C2866 C 0.21438 0.77305 0.12968 0.0
C2867 C 0.22297 0.77032 0.15363 0.0
C2868 C 0.22998 0.79228 0.17156 0.0
C2869 C 0.22766 0.81701 0.16563 0.0
H2870 H 0.98327 0.58852 0.83663 0.0
H2871 H 0.90344 0.56193 0.83643 0.0
H2872 H 0.90794 0.55579 0.88056 0.0
H2873 H 1.00001 0.54579 0.8692 0.0
H2874 H 0.02618 0.5665 0.88781 0.0
H2875 H 0.01683 0.57538 0.85848 0.0
H2876 H 0.01192 0.62002 0.87906 0.0
H2877 H 0.02197 0.61166 0.90856 0.0
H2878 H 0.99281 0.62117 0.90467 0.0
H2879 H 0.92203 0.5391 0.91836 0.0
H2880 H 0.94414 0.52282 0.95152 0.0
H2881 H 0.01442 0.56627 0.93122 0.0
C2882 C 0.96672 0.58276 0.84633 0.0
C2883 C 0.94303 0.57583 0.83338 0.0
C2884 C 0.92169 0.56777 0.84624 0.0
C2885 C 0.9241 0.56409 0.87125 0.0
C2886 C 0.9479 0.56949 0.88318 0.0
C2887 C 0.9688 0.57973 0.87146 0.0
C2888 C 0.99234 0.58165 0.88774 0.0
C2889 C 0.00984 0.56641 0.87504 0.0
C2890 C 0.00554 0.61034 0.89547 0.0
C2891 C 0.98153 0.56883 0.90952 0.0
C2892 C 0.95585 0.562 0.90653 0.0
C2893 C 0.94198 0.54575 0.92177 0.0
C2894 C 0.95462 0.53667 0.94072 0.0
C2895 C 0.98072 0.5445 0.94488 0.0
C2896 C 0.99432 0.56093 0.92913 0.0
H2897 H 0.23014 0.20807 0.56852 0.0
H2898 H 0.30758 0.20564 0.56375 0.0
H2899 H 0.31651 0.2242 0.60763 0.0
H2900 H 0.23938 0.26772 0.60876 0.0
H2901 H 0.21308 0.25639 0.62609 0.0
H2902 H 0.21298 0.24346 0.59429 0.0
H2903 H 0.20486 0.19653 0.60691 0.0
H2904 H 0.20496 0.20931 0.63877 0.0
H2905 H 0.22571 0.18869 0.62999 0.0
H2906 H 0.31715 0.2448 0.65133 0.0
H2907 H 0.30925 0.26298 0.69272 0.0
H2908 H 0.23068 0.24905 0.66998 0.0
C2909 C 0.24903 0.21158 0.57666 0.0
C2910 C 0.26828 0.2057 0.56267 0.0
C2911 C 0.29262 0.21009 0.57411 0.0
C2912 C 0.29783 0.22064 0.59899 0.0
C2913 C 0.27841 0.22624 0.61222 0.0
C2914 C 0.25444 0.22159 0.60154 0.0
C2915 C 0.23677 0.22857 0.62 0.0
C2916 C 0.22486 0.25033 0.61179 0.0
C2917 C 0.2169 0.20433 0.62416 0.0
C2918 C 0.25459 0.23823 0.64273 0.0
C2919 C 0.27855 0.23691 0.63775 0.0
C2920 C 0.29845 0.24569 0.65549 0.0
C2921 C 0.29376 0.25608 0.67891 0.0
C2922 C 0.26932 0.25731 0.68457 0.0
C2923 C 0.24948 0.24806 0.66625 0.0
H2924 H 0.61203 0.49262 0.20046 0.0
H2925 H 0.54885 0.49726 0.24296 0.0
H2926 H 0.52387 0.49962 0.20498 0.0
H2927 H 0.60518 0.53787 0.16254 0.0
H2928 H 0.61316 0.52195 0.13436 0.0
H2929 H 0.62514 0.51522 0.1637 0.0
H2930 H 0.60631 0.46572 0.15251 0.0
H2931 H 0.59486 0.4722 0.12277 0.0
H2932 H 0.57376 0.45462 0.14253 0.0
H2933 H 0.50831 0.50964 0.16475 0.0
H2934 H 0.5007 0.52018 0.1224 0.0
H2935 H 0.57313 0.50814 0.10483 0.0
C2936 C 0.59262 0.49291 0.20153 0.0
C2937 C 0.58231 0.49465 0.22459 0.0
C2938 C 0.55706 0.49585 0.22545 0.0
C2939 C 0.54272 0.49723 0.20398 0.0
C2940 C 0.5538 0.49709 0.18173 0.0
C2941 C 0.57794 0.49429 0.18013 0.0
C2942 C 0.58578 0.49672 0.15408 0.0
C2943 C 0.60867 0.51928 0.15367 0.0
C2944 C 0.59045 0.47077 0.14228 0.0
C2945 C 0.56278 0.50267 0.1418 0.0
C2946 C 0.54452 0.50259 0.15808 0.0
C2947 C 0.52222 0.50921 0.15163 0.0
C2948 C 0.51818 0.51545 0.12765 0.0
C2949 C 0.53632 0.51496 0.11045 0.0
C2950 C 0.55893 0.50859 0.11766 0.0
H2951 H 0.23928 0.80897 0.93419 0.0
H2952 H 0.24443 0.8907 0.92613 0.0
H2953 H 0.24394 0.88084 0.88078 0.0
H2954 H 0.27965 0.798 0.89272 0.0
H2955 H 0.26341 0.76551 0.88008 0.0
H2956 H 0.25911 0.77766 0.91109 0.0
H2957 H 0.21155 0.76867 0.90081 0.0
H2958 H 0.21556 0.75583 0.86982 0.0
H2959 H 0.19954 0.78188 0.87478 0.0
H2960 H 0.25164 0.86372 0.83833 0.0
H2961 H 0.26075 0.83957 0.80031 0.0
H2962 H 0.24864 0.76831 0.83557 0.0
C2963 C 0.23942 0.82462 0.92277 0.0
C2964 C 0.24187 0.85057 0.93347 0.0
C2965 C 0.24224 0.87066 0.91815 0.0
C2966 C 0.24209 0.86523 0.89245 0.0
C2967 C 0.24099 0.83958 0.88257 0.0
C2968 C 0.23897 0.81946 0.89721 0.0
C2969 C 0.24 0.79401 0.88238 0.0
C2970 C 0.26184 0.78318 0.89216 0.0
C2971 C 0.21518 0.77391 0.88191 0.0
C2972 C 0.24421 0.80318 0.8573 0.0
C2973 C 0.24464 0.82951 0.8578 0.0
C2974 C 0.25069 0.84299 0.83754 0.0
C2975 C 0.25613 0.82915 0.81614 0.0
C2976 C 0.25529 0.80208 0.81514 0.0
C2977 C 0.24906 0.78892 0.83588 0.0
H2978 H 0.93341 0.5836 0.67971 0.0
H2979 H 0.00372 0.60162 0.72367 0.0
H2980 H 0.02597 0.60939 0.68631 0.0
H2981 H 0.94896 0.54521 0.63657 0.0
H2982 H 0.93319 0.55374 0.60992 0.0
H2983 H 0.9222 0.55913 0.63983 0.0
H2984 H 0.92634 0.60816 0.63502 0.0
H2985 H 0.93681 0.60261 0.60465 0.0
H2986 H 0.95547 0.62737 0.62725 0.0
H2987 H 0.0404 0.60165 0.64545 0.0
H2988 H 0.0458 0.58185 0.60379 0.0
H2989 H 0.96681 0.56954 0.58465 0.0
C2990 C 0.95339 0.59079 0.68148 0.0
C2991 C 0.96693 0.59248 0.70444 0.0
C2992 C 0.99311 0.60061 0.70619 0.0
C2993 C 0.00588 0.60513 0.68506 0.0
C2994 C 0.99218 0.60145 0.66231 0.0
C2995 C 0.96643 0.59497 0.66036 0.0
C2996 C 0.95634 0.58732 0.63361 0.0
C2997 C 0.9392 0.55972 0.62979 0.0
C2998 C 0.94294 0.60759 0.6246 0.0
C2999 C 0.98031 0.58816 0.62125 0.0
C3000 C 1.0008 0.59708 0.63803 0.0
C3001 C 0.02463 0.59557 0.63192 0.0
C3002 C 0.02753 0.58411 0.60832 0.0
C3003 C 0.00673 0.57444 0.59118 0.0
C3004 C 0.98304 0.57739 0.59738 0.0
H3005 H 0.23832 0.20157 0.41177 0.0
H3006 H 0.31484 0.21733 0.44189 0.0
H3007 H 0.32792 0.24259 0.40689 0.0
H3008 H 0.25219 0.19363 0.34663 0.0
H3009 H 0.2275 0.20826 0.33644 0.0
H3010 H 0.22455 0.19059 0.36311 0.0
H3011 H 0.21655 0.23092 0.38941 0.0
H3012 H 0.21946 0.2489 0.36302 0.0
H3013 H 0.2388 0.26174 0.39107 0.0
H3014 H 0.33125 0.27084 0.37068 0.0
H3015 H 0.32521 0.29447 0.33446 0.0
H3016 H 0.24695 0.25645 0.32716 0.0
C3017 C 0.25789 0.21004 0.41081 0.0
C3018 C 0.27561 0.20767 0.42951 0.0
C3019 C 0.30104 0.21884 0.42761 0.0
C3020 C 0.30857 0.23329 0.40788 0.0
C3021 C 0.29047 0.23575 0.38997 0.0
C3022 C 0.26571 0.22387 0.39103 0.0
C3023 C 0.24976 0.22928 0.36967 0.0
C3024 C 0.2378 0.20393 0.35297 0.0
C3025 C 0.22999 0.24356 0.37886 0.0
C3026 C 0.2692 0.24684 0.35679 0.0
C3027 C 0.2926 0.25054 0.36872 0.0
C3028 C 0.31308 0.26762 0.36097 0.0
C3029 C 0.3095 0.28105 0.3405 0.0
C3030 C 0.28571 0.27702 0.32791 0.0
C3031 C 0.26546 0.25956 0.33616 0.0
H3032 H 0.34552 0.58783 0.46385 0.0
H3033 H 0.31491 0.57379 0.53409 0.0
H3034 H 0.3415 0.54278 0.54015 0.0
H3035 H 0.35446 0.52064 0.44646 0.0
H3036 H 0.38336 0.53278 0.43331 0.0
H3037 H 0.35922 0.55072 0.43256 0.0
H3038 H 0.38996 0.59206 0.45472 0.0
H3039 H 0.41401 0.57417 0.45503 0.0
H3040 H 0.40651 0.58993 0.48353 0.0
H3041 H 0.37416 0.51707 0.54074 0.0
H3042 H 0.41241 0.50073 0.53696 0.0
H3043 H 0.4227 0.53236 0.46704 0.0
C3044 C 0.34398 0.57774 0.48021 0.0
C3045 C 0.32804 0.58305 0.49842 0.0
C3046 C 0.32697 0.56995 0.51987 0.0
C3047 C 0.34187 0.55218 0.5234 0.0
C3048 C 0.35771 0.5477 0.5053 0.0
C3049 C 0.35891 0.56013 0.48413 0.0
C3050 C 0.37933 0.554 0.4688 0.0
C3051 C 0.36843 0.53861 0.4438 0.0
C3052 C 0.39858 0.57903 0.46535 0.0
C3053 C 0.3901 0.53708 0.48517 0.0
C3054 C 0.37699 0.53321 0.50585 0.0
C3055 C 0.38439 0.51971 0.52449 0.0
C3056 C 0.40617 0.5106 0.52227 0.0
C3057 C 0.42042 0.51536 0.5018 0.0
C3058 C 0.41189 0.52809 0.48269 0.0
H3059 H 0.84908 0.91742 0.50141 0.0
H3060 H 0.82278 0.97225 0.55176 0.0
H3061 H 0.86379 0.00343 0.55307 0.0
H3062 H 0.90793 0.92665 0.52919 0.0
H3063 H 0.92299 0.9237 0.50093 0.0
H3064 H 0.89092 0.90768 0.50187 0.0
H3065 H 0.87901 0.93147 0.46526 0.0
H3066 H 0.91116 0.94766 0.46425 0.0
H3067 H 0.88794 0.96659 0.46753 0.0
H3068 H 0.90992 0.02596 0.5524 0.0
H3069 H 0.95553 0.03758 0.54929 0.0
H3070 H 0.94963 0.96771 0.49847 0.0
C3071 C 0.85178 0.93613 0.5125 0.0
C3072 C 0.83289 0.9424 0.52666 0.0
C3073 C 0.83706 0.96713 0.54075 0.0
C3074 C 0.86025 0.98492 0.54155 0.0
C3075 C 0.87872 0.97778 0.52773 0.0
C3076 C 0.87448 0.95405 0.5132 0.0
C3077 C 0.89746 0.95008 0.5011 0.0
C3078 C 0.90528 0.92559 0.50875 0.0
C3079 C 0.89366 0.94888 0.47286 0.0
C3080 C 0.91574 0.97476 0.51191 0.0
C3081 C 0.90469 0.99077 0.52698 0.0
C3082 C 0.91861 0.01377 0.54029 0.0
C3083 C 0.94447 0.02021 0.53844 0.0
C3084 C 0.95598 0.0036 0.52352 0.0
C3085 C 0.94128 0.98098 0.50974 0.0
H3086 H 0.86013 0.11264 0.25023 0.0
H3087 H 0.81244 0.06477 0.18934 0.0
H3088 H 0.78742 0.09781 0.18809 0.0
H3089 H 0.81156 0.13754 0.28058 0.0
H3090 H 0.83095 0.16974 0.28918 0.0
H3091 H 0.8447 0.14184 0.28607 0.0
H3092 H 0.87372 0.1636 0.25468 0.0
H3093 H 0.85999 0.1915 0.25773 0.0
H3094 H 0.86041 0.17412 0.22769 0.0
H3095 H 0.768 0.13645 0.19243 0.0
H3096 H 0.75583 0.17828 0.20205 0.0
H3097 H 0.81595 0.20168 0.25994 0.0
C3098 C 0.8443 0.10901 0.23679 0.0
C3099 C 0.83828 0.08597 0.21991 0.0
C3100 C 0.81752 0.08218 0.20247 0.0
C3101 C 0.80311 0.10085 0.20161 0.0
C3102 C 0.80962 0.12338 0.21831 0.0
C3103 C 0.82971 0.1276 0.23559 0.0
C3104 C 0.83301 0.15391 0.25093 0.0
C3105 C 0.82986 0.15054 0.27831 0.0
C3106 C 0.85828 0.17184 0.24754 0.0
C3107 C 0.81173 0.16377 0.23947 0.0
C3108 C 0.79843 0.1458 0.22074 0.0
C3109 C 0.7782 0.15063 0.20715 0.0
C3110 C 0.77139 0.17448 0.21278 0.0
C3111 C 0.78479 0.19334 0.23182 0.0
C3112 C 0.80519 0.18771 0.24534 0.0
H3113 H 0.69708 0.15594 0.99246 0.0
H3114 H 0.7341 0.09509 0.96717 0.0
H3115 H 0.69371 0.06262 0.96365 0.0
H3116 H 0.65829 0.11827 0.0308 0.0
H3117 H 0.63238 0.13289 0.02497 0.0
H3118 H 0.66356 0.15126 0.02291 0.0
H3119 H 0.65189 0.15932 0.97816 0.0
H3120 H 0.62063 0.14095 0.98007 0.0
H3121 H 0.63861 0.13187 0.9555 0.0
H3122 H 0.64855 0.03702 0.96331 0.0
H3123 H 0.60432 0.01997 0.97045 0.0
H3124 H 0.59898 0.09782 -0.00088 0.0
C3125 C 0.69668 0.13586 0.98574 0.0
C3126 C 0.71858 0.12803 0.97966 0.0
C3127 C 0.71743 0.10145 0.97171 0.0
C3128 C 0.6946 0.08297 0.96958 0.0
C3129 C 0.67331 0.09142 0.97585 0.0
C3130 C 0.67433 0.11724 0.98405 0.0
C3131 C 0.64948 0.12124 0.99164 0.0
C3132 C 0.65103 0.13151 0.01921 0.0
C3133 C 0.63957 0.13942 0.97537 0.0
C3134 C 0.63419 0.09359 0.98658 0.0
C3135 C 0.64804 0.07667 0.97704 0.0
C3136 C 0.6376 0.05011 0.97081 0.0
C3137 C 0.6125 0.04063 0.97483 0.0
C3138 C 0.59843 0.05763 0.98543 0.0
C3139 C 0.60941 0.0844 0.99115 0.0
H3140 H 0.16937 0.45584 0.29652 0.0
H3141 H 0.17384 0.47343 0.22068 0.0
H3142 H 0.20857 0.45144 0.21642 0.0
H3143 H 0.23613 0.46233 0.31161 0.0
H3144 H 0.23106 0.43508 0.32959 0.0
H3145 H 0.20826 0.45455 0.32762 0.0
H3146 H 0.17422 0.41307 0.31175 0.0
H3147 H 0.19683 0.39353 0.31398 0.0
H3148 H 0.17906 0.39232 0.28508 0.0
H3149 H 0.24059 0.42494 0.21932 0.0
H3150 H 0.26507 0.39265 0.22811 0.0
H3151 H 0.23973 0.39202 0.3019 0.0
C3152 C 0.1779 0.45539 0.27914 0.0
C3153 C 0.16901 0.46648 0.25898 0.0
C3154 C 0.18035 0.46506 0.23638 0.0
C3155 C 0.20021 0.45279 0.23383 0.0
C3156 C 0.2085 0.442 0.25404 0.0
C3157 C 0.1976 0.443 0.27621 0.0
C3158 C 0.20855 0.42789 0.29434 0.0
C3159 C 0.22179 0.44605 0.31714 0.0
C3160 C 0.18847 0.40537 0.3017 0.0
C3161 C 0.22696 0.4178 0.27873 0.0
C3162 C 0.22692 0.4265 0.25567 0.0
C3163 C 0.24108 0.41831 0.23743 0.0
C3164 C 0.25501 0.40007 0.24262 0.0
C3165 C 0.2545 0.39016 0.26577 0.0
C3166 C 0.24088 0.39973 0.28424 0.0
H3167 H 0.18116 0.44879 0.98066 0.0
H3168 H 0.19148 0.44253 0.05906 0.0
H3169 H 0.15655 0.46355 0.06657 0.0
H3170 H 0.16368 0.51217 0.98714 0.0
H3171 H 0.14105 0.5032 0.96095 0.0
H3172 H 0.16795 0.48929 0.96189 0.0
H3173 H 0.13937 0.44283 0.95542 0.0
H3174 H 0.11241 0.45658 0.95454 0.0
H3175 H 0.11565 0.43388 0.97636 0.0
H3176 H 0.11837 0.48177 0.06522 0.0
H3177 H 0.08056 0.49739 0.05527 0.0
H3178 H 0.09539 0.49336 0.978 0.0
C3179 C 0.17634 0.45217 -0.00053 0.0
C3180 C 0.1892 0.444 0.01928 0.0
C3181 C 0.18206 0.44864 0.04357 0.0
C3182 C 0.1622 0.46058 0.04803 0.0
C3183 C 0.1497 0.46799 0.02806 0.0
C3184 C 0.15659 0.46415 0.00427 0.0
C3185 C 0.13948 0.47309 0.98598 0.0
C3186 C 0.15391 0.49579 0.97324 0.0
C3187 C 0.12593 0.45023 0.96696 0.0
C3188 C 0.12163 0.48213 0.00314 0.0
C3189 C 0.12793 0.47904 0.02734 0.0
C3190 C 0.11352 0.48467 0.0464 0.0
C3191 C 0.0921 0.49361 0.04059 0.0
C3192 C 0.0853 0.49705 0.01599 0.0
C3193 C 0.10039 0.49138 0.99705 0.0
H3194 H 0.87185 0.93324 0.23461 0.0
H3195 H 0.81978 0.97666 0.20806 0.0
H3196 H 0.78525 0.93778 0.20906 0.0
H3197 H 0.84191 0.86909 0.20317 0.0
H3198 H 0.84889 0.85274 0.22917 0.0
H3199 H 0.86932 0.88286 0.22364 0.0
H3200 H 0.86467 0.90292 0.26802 0.0
H3201 H 0.84419 0.87286 0.27353 0.0
H3202 H 0.83408 0.90305 0.27774 0.0
H3203 H 0.75655 0.89363 0.21368 0.0
H3204 H 0.73598 0.85017 0.22487 0.0
H3205 H 0.80733 0.83861 0.25191 0.0
C3206 C 0.85327 0.93453 0.22851 0.0
C3207 C 0.8485 0.95783 0.22084 0.0
C3208 C 0.82381 0.95889 0.21377 0.0
C3209 C 0.80417 0.93692 0.21423 0.0
C3210 C 0.80961 0.9143 0.22211 0.0
C3211 C 0.83359 0.91314 0.22931 0.0
C3212 C 0.83457 0.88753 0.23899 0.0
C3213 C 0.84955 0.87216 0.22276 0.0
C3214 C 0.84498 0.89187 0.26618 0.0
C3215 C 0.8073 0.8744 0.23635 0.0
C3216 C 0.79318 0.88984 0.22614 0.0
C3217 C 0.76746 0.88147 0.22173 0.0
C3218 C 0.75595 0.85681 0.22813 0.0
C3219 C 0.77015 0.8412 0.23927 0.0
C3220 C 0.79608 0.85016 0.24337 0.0
H3221 H 0.63253 0.11064 0.74982 0.0
H3222 H 0.68117 0.06321 0.77574 0.0
H3223 H 0.71585 0.10235 0.78304 0.0
H3224 H 0.67636 0.14841 0.71631 0.0
H3225 H 0.66593 0.17812 0.72316 0.0
H3226 H 0.64449 0.14703 0.7226 0.0
H3227 H 0.63413 0.15986 0.76725 0.0
H3228 H 0.65555 0.19106 0.76793 0.0
H3229 H 0.65891 0.17015 0.79142 0.0
H3230 H 0.74568 0.14677 0.78584 0.0
H3231 H 0.76848 0.19183 0.7814 0.0
H3232 H 0.7002 0.20878 0.75187 0.0
C3233 C 0.65035 0.10854 0.75747 0.0
C3234 C 0.65412 0.08396 0.76244 0.0
C3235 C 0.67787 0.08191 0.77189 0.0
C3236 C 0.69764 0.10403 0.77618 0.0
C3237 C 0.69334 0.12795 0.77077 0.0
C3238 C 0.67028 0.13026 0.76152 0.0
C3239 C 0.67086 0.15763 0.75542 0.0
C3240 C 0.66402 0.15779 0.72773 0.0
C3241 C 0.65386 0.17043 0.77147 0.0
C3242 C 0.69792 0.17032 0.76236 0.0
C3243 C 0.71057 0.15308 0.77154 0.0
C3244 C 0.73593 0.16046 0.77877 0.0
C3245 C 0.7487 0.18606 0.77625 0.0
C3246 C 0.73609 0.20368 0.76622 0.0
C3247 C 0.71036 0.19568 0.75947 0.0
loop_
_geom_bond_atom_site_label_1
_geom_bond_atom_site_label_2
_geom_bond_distance
_geom_bond_site_symmetry_2
_ccdc_geom_bond_type
Zn0 O3 2.035 . S
Zn0 O5 2.049 . S
Zn0 O10 2.067 . S
Zn1 O2 1.962 . S
Zn1 O4 1.986 . S
Zn1 O6 1.996 . S
Zn1 O9 1.943 . S
O2 Zn1 1.962 . S
O2 C7 1.254 . S
O3 Zn0 2.035 . S
O3 C7 1.250 1_655 S
O4 Zn1 1.986 . S
O4 C11 1.262 . S
O5 Zn0 2.049 . S
O5 C13 1.260 1_655 S
O6 Zn1 1.996 . S
O6 C13 1.257 . S
C7 O2 1.254 . S
C7 O3 1.250 1_455 S
C8 O9 1.249 1_655 S
C8 O10 1.270 . S
O9 Zn1 1.943 . S
O9 C8 1.249 1_455 S
O10 Zn0 2.067 . S
O10 C8 1.270 . S
C11 O4 1.262 . S
C11 O12 1.232 . S
O12 C11 1.232 . S
C13 O5 1.260 1_455 S
C13 O6 1.257 . S
Zn14 O17 2.031 1_455 S
Zn14 O19 2.049 . S
Zn14 O24 2.067 . S
Zn15 O16 1.962 1_455 S
Zn15 O18 1.986 . S
Zn15 O20 1.996 . S
Zn15 O23 1.943 . S
O16 Zn15 1.962 1_655 S
O16 C21 1.254 . S
O17 Zn14 2.031 1_655 S
O17 C21 1.269 . S
O18 Zn15 1.986 . S
O18 C25 1.262 . S
O19 Zn14 2.049 . S
O19 C27 1.260 . S
O20 Zn15 1.996 . S
O20 C27 1.257 . S
C21 O16 1.254 . S
C21 O17 1.269 . S
C22 O23 1.249 . S
C22 O24 1.270 . S
O23 Zn15 1.943 . S
O23 C22 1.249 . S
O24 Zn14 2.067 . S
O24 C22 1.270 . S
C25 O18 1.262 . S
C25 O26 1.232 1_455 S
O26 C25 1.232 1_655 S
C27 O19 1.260 . S
C27 O20 1.257 . S
Zn28 O31 2.031 . S
Zn28 O33 2.049 . S
Zn28 O38 2.067 . S
Zn29 O30 1.962 . S
Zn29 O32 1.986 . S
Zn29 O34 1.996 . S
Zn29 O37 1.943 . S
O30 Zn29 1.962 . S
O30 C35 1.254 . S
O31 Zn28 2.031 . S
O31 C35 1.269 . S
O32 Zn29 1.986 . S
O32 C39 1.262 . S
O33 Zn28 2.049 . S
O33 C41 1.260 . S
O34 Zn29 1.996 . S
O34 C41 1.257 . S
C35 O30 1.254 . S
C35 O31 1.269 . S
C36 O37 1.249 . S
C36 O38 1.270 . S
O37 Zn29 1.943 . S
O37 C36 1.249 . S
O38 Zn28 2.067 . S
O38 C36 1.270 . S
C39 O32 1.262 . S
C39 O40 1.232 . S
O40 C39 1.232 . S
C41 O33 1.260 . S
C41 O34 1.257 . S
Zn42 O45 2.031 . S
Zn42 O47 2.049 . S
Zn42 O52 2.067 . S
Zn43 O44 1.962 . S
Zn43 O46 1.986 . S
Zn43 O48 1.996 . S
Zn43 O51 1.943 . S
O44 Zn43 1.962 . S
O44 C49 1.254 . S
O45 Zn42 2.031 . S
O45 C49 1.269 . S
O46 Zn43 1.986 . S
O46 C53 1.262 . S
O47 Zn42 2.049 . S
O47 C55 1.260 . S
O48 Zn43 1.996 . S
O48 C55 1.257 . S
C49 O44 1.254 . S
C49 O45 1.269 . S
C50 O51 1.249 . S
C50 O52 1.270 . S
O51 Zn43 1.943 . S
O51 C50 1.249 . S
O52 Zn42 2.067 . S
O52 C50 1.270 . S
C53 O46 1.262 . S
C53 O54 1.232 . S
O54 C53 1.232 . S
C55 O47 1.260 . S
C55 O48 1.257 . S
Zn56 O59 2.031 . S
Zn56 O61 2.049 . S
Zn56 O66 2.067 . S
Zn57 O58 1.962 . S
Zn57 O60 1.986 1_455 S
Zn57 O62 1.996 . S
Zn57 O65 1.943 . S
O58 Zn57 1.962 . S
O58 C63 1.254 . S
O59 Zn56 2.031 . S
O59 C63 1.269 . S
O60 Zn57 1.986 1_655 S
O60 C67 1.262 . S
O61 Zn56 2.049 . S
O61 C69 1.260 . S
O62 Zn57 1.996 . S
O62 C69 1.257 . S
C63 O58 1.254 . S
C63 O59 1.269 . S
C64 O65 1.249 . S
C64 O66 1.270 . S
O65 Zn57 1.943 . S
O65 C64 1.249 . S
O66 Zn56 2.067 . S
O66 C64 1.270 . S
C67 O60 1.262 . S
C67 O68 1.232 . S
O68 C67 1.232 . S
C69 O61 1.260 . S
C69 O62 1.257 . S
Zn70 O73 2.031 . S
Zn70 O75 2.049 . S
Zn70 O80 2.067 . S
Zn71 O72 1.962 . S
Zn71 O74 1.986 . S
Zn71 O76 1.996 . S
Zn71 O79 1.943 . S
O72 Zn71 1.962 . S
O72 C77 1.254 . S
O73 Zn70 2.031 . S
O73 C77 1.269 . S
O74 Zn71 1.986 . S
O74 C81 1.262 . S
O75 Zn70 2.049 . S
O75 C83 1.260 . S
O76 Zn71 1.996 . S
O76 C83 1.257 . S
C77 O72 1.254 . S
C77 O73 1.269 . S
C78 O79 1.249 . S
C78 O80 1.270 . S
O79 Zn71 1.943 . S
O79 C78 1.249 . S
O80 Zn70 2.067 . S
O80 C78 1.270 . S
C81 O74 1.262 . S
C81 O82 1.232 . S
O82 C81 1.232 . S
C83 O75 1.260 . S
C83 O76 1.257 . S
Zn84 O87 2.031 . S
Zn84 O89 2.049 . S
Zn84 O94 2.067 . S
Zn85 O86 1.962 . S
Zn85 O88 1.986 . S
Zn85 O90 1.996 . S
Zn85 O93 1.943 . S
O86 Zn85 1.962 . S
O86 C91 1.254 . S
O87 Zn84 2.031 . S
O87 C91 1.269 . S
O88 Zn85 1.986 . S
O88 C95 1.262 . S
O89 Zn84 2.049 . S
O89 C97 1.260 . S
O90 Zn85 1.996 . S
O90 C97 1.257 . S
C91 O86 1.254 . S
C91 O87 1.269 . S
C92 O93 1.249 . S
C92 O94 1.270 . S
O93 Zn85 1.943 . S
O93 C92 1.249 . S
O94 Zn84 2.067 . S
O94 C92 1.270 . S
C95 O88 1.262 . S
C95 O96 1.232 . S
O96 C95 1.232 . S
C97 O89 1.260 . S
C97 O90 1.257 . S
Zn98 O101 2.031 . S
Zn98 O103 2.049 . S
Zn98 O108 2.067 . S
Zn99 O100 1.962 . S
Zn99 O102 1.986 . S
Zn99 O104 1.996 . S
Zn99 O107 1.943 1_455 S
O100 Zn99 1.962 . S
O100 C105 1.289 . S
O101 Zn98 2.031 . S
O101 C105 1.237 1_655 S
O102 Zn99 1.986 . S
O102 C109 1.262 . S
O103 Zn98 2.049 . S
O103 C111 1.260 . S
O104 Zn99 1.996 . S
O104 C111 1.257 1_455 S
C105 O100 1.289 . S
C105 O101 1.237 1_455 S
C106 O107 1.249 . S
C106 O108 1.270 . S
O107 Zn99 1.943 1_655 S
O107 C106 1.249 . S
O108 Zn98 2.067 . S
O108 C106 1.270 . S
C109 O102 1.262 . S
C109 O110 1.232 . S
O110 C109 1.232 . S
C111 O103 1.260 . S
C111 O104 1.257 1_655 S
Zn112 O115 2.027 1_565 S
Zn112 O117 2.049 . S
Zn112 O122 2.067 . S
Zn113 O114 1.962 . S
Zn113 O116 1.986 . S
Zn113 O118 1.996 . S
Zn113 O121 1.943 . S
O114 Zn113 1.962 . S
O114 C119 1.254 . S
O115 Zn112 2.027 1_545 S
O115 C119 1.287 . S
O116 Zn113 1.986 . S
O116 C123 1.262 . S
O117 Zn112 2.049 . S
O117 C125 1.260 1_565 S
O118 Zn113 1.996 . S
O118 C125 1.257 . S
C119 O114 1.254 . S
C119 O115 1.287 . S
C120 O121 1.249 1_565 S
C120 O122 1.270 . S
O121 Zn113 1.943 . S
O121 C120 1.249 1_545 S
O122 Zn112 2.067 . S
O122 C120 1.270 . S
C123 O116 1.262 . S
C123 O124 1.232 . S
O124 C123 1.232 . S
C125 O117 1.260 1_545 S
C125 O118 1.257 . S
Zn126 O129 2.031 . S
Zn126 O131 2.049 . S
Zn126 O136 2.067 . S
Zn127 O128 1.962 . S
Zn127 O130 1.986 . S
Zn127 O132 1.996 . S
Zn127 O135 1.943 . S
O128 Zn127 1.962 . S
O128 C133 1.254 . S
O129 Zn126 2.031 . S
O129 C133 1.269 . S
O130 Zn127 1.986 . S
O130 C137 1.262 . S
O131 Zn126 2.049 . S
O131 C139 1.260 . S
O132 Zn127 1.996 . S
O132 C139 1.257 . S
C133 O128 1.254 . S
C133 O129 1.269 . S
C134 O135 1.249 . S
C134 O136 1.270 . S
O135 Zn127 1.943 . S
O135 C134 1.249 . S
O136 Zn126 2.067 . S
O136 C134 1.270 . S
C137 O130 1.262 . S
C137 O138 1.232 . S
O138 C137 1.232 . S
C139 O131 1.260 . S
C139 O132 1.257 . S
Zn140 O143 2.031 . S
Zn140 O145 2.049 . S
Zn140 O150 2.067 . S
Zn141 O142 1.962 . S
Zn141 O144 1.986 . S
Zn141 O146 1.996 . S
Zn141 O149 1.943 1_565 S
O142 Zn141 1.962 . S
O142 C147 1.254 1_565 S
O143 Zn140 2.031 . S
O143 C147 1.269 . S
O144 Zn141 1.986 . S
O144 C151 1.262 . S
O145 Zn140 2.049 . S
O145 C153 1.260 . S
O146 Zn141 1.996 . S
O146 C153 1.257 1_565 S
C147 O142 1.254 1_545 S
C147 O143 1.269 . S
C148 O149 1.249 . S
C148 O150 1.270 . S
O149 Zn141 1.943 1_545 S
O149 C148 1.249 . S
O150 Zn140 2.067 . S
O150 C148 1.270 . S
C151 O144 1.262 . S
C151 O152 1.232 . S
O152 C151 1.232 . S
C153 O145 1.260 . S
C153 O146 1.257 1_545 S
Zn154 O157 2.031 1_554 S
Zn154 O159 2.049 . S
Zn154 O164 2.067 . S
Zn155 O156 1.962 1_554 S
Zn155 O158 1.986 . S
Zn155 O160 1.996 . S
Zn155 O163 1.943 . S
O156 Zn155 1.962 1_556 S
O156 C161 1.254 . S
O157 Zn154 2.031 1_556 S
O157 C161 1.269 . S
O158 Zn155 1.986 . S
O158 C165 1.262 . S
O159 Zn154 2.049 . S
O159 C167 1.260 . S
O160 Zn155 1.996 . S
O160 C167 1.257 . S
C161 O156 1.254 . S
C161 O157 1.269 . S
C162 O163 1.249 . S
C162 O164 1.270 . S
O163 Zn155 1.943 . S
O163 C162 1.249 . S
O164 Zn154 2.067 . S
O164 C162 1.270 . S
C165 O158 1.262 . S
C165 O166 1.266 . S
O166 C165 1.266 . S
C167 O159 1.260 . S
C167 O160 1.257 . S
Zn168 O171 2.031 1_554 S
Zn168 O173 2.049 . S
Zn168 O178 2.067 . S
Zn169 O170 1.962 1_554 S
Zn169 O172 1.986 . S
Zn169 O174 1.996 . S
Zn169 O177 1.943 . S
O170 Zn169 1.962 1_556 S
O170 C175 1.254 . S
O171 Zn168 2.031 1_556 S
O171 C175 1.269 . S
O172 Zn169 1.986 . S
O172 C179 1.262 . S
O173 Zn168 2.049 . S
O173 C181 1.260 . S
O174 Zn169 1.996 . S
O174 C181 1.257 . S
C175 O170 1.254 . S
C175 O171 1.269 . S
C176 O177 1.249 . S
C176 O178 1.270 . S
O177 Zn169 1.943 . S
O177 C176 1.249 . S
O178 Zn168 2.067 . S
O178 C176 1.270 . S
C179 O172 1.262 . S
C179 O180 1.232 1_554 S
O180 C179 1.232 1_556 S
C181 O173 1.260 . S
C181 O174 1.257 . S
Zn182 O185 2.031 1_554 S
Zn182 O187 2.049 . S
Zn182 O192 2.067 . S
Zn183 O184 1.962 1_554 S
Zn183 O186 1.986 . S
Zn183 O188 1.996 . S
Zn183 O191 1.945 1_554 S
O184 Zn183 1.962 1_556 S
O184 C189 1.254 . S
O185 Zn182 2.031 1_556 S
O185 C189 1.269 . S
O186 Zn183 1.986 . S
O186 C193 1.249 1_554 S
O187 Zn182 2.049 . S
O187 C195 1.260 . S
O188 Zn183 1.996 . S
O188 C195 1.257 . S
C189 O184 1.254 . S
C189 O185 1.269 . S
C190 O191 1.244 1_554 S
C190 O192 1.281 . S
O191 Zn183 1.945 1_556 S
O191 C190 1.244 1_556 S
O192 Zn182 2.067 . S
O192 C190 1.281 . S
C193 O186 1.249 1_556 S
C193 O194 1.248 . S
O194 C193 1.248 . S
C195 O187 1.260 . S
C195 O188 1.257 . S
Zn196 O199 2.031 . S
Zn196 O201 2.049 . S
Zn196 O206 2.067 . S
Zn197 O198 1.962 . S
Zn197 O200 1.986 . S
Zn197 O202 1.996 . S
Zn197 O205 1.943 . S
O198 Zn197 1.962 . S
O198 C203 1.254 . S
O199 Zn196 2.031 . S
O199 C203 1.269 . S
O200 Zn197 1.986 . S
O200 C207 1.262 . S
O201 Zn196 2.049 . S
O201 C209 1.260 . S
O202 Zn197 1.996 . S
O202 C209 1.257 . S
C203 O198 1.254 . S
C203 O199 1.269 . S
C204 O205 1.249 . S
C204 O206 1.270 . S
O205 Zn197 1.943 . S
O205 C204 1.249 . S
O206 Zn196 2.067 . S
O206 C204 1.270 . S
C207 O200 1.262 . S
C207 O208 1.232 . S
O208 C207 1.232 . S
C209 O201 1.260 . S
C209 O202 1.257 . S
Zn210 O213 2.031 . S
Zn210 O215 2.049 . S
Zn210 O220 2.067 . S
Zn211 O212 1.962 . S
Zn211 O214 1.986 . S
Zn211 O216 1.996 . S
Zn211 O219 1.943 . S
O212 Zn211 1.962 . S
O212 C217 1.254 . S
O213 Zn210 2.031 . S
O213 C217 1.269 . S
O214 Zn211 1.986 . S
O214 C221 1.262 . S
O215 Zn210 2.049 . S
O215 C223 1.260 . S
O216 Zn211 1.996 . S
O216 C223 1.257 . S
C217 O212 1.254 . S
C217 O213 1.269 . S
C218 O219 1.249 . S
C218 O220 1.270 . S
O219 Zn211 1.943 . S
O219 C218 1.249 . S
O220 Zn210 2.067 . S
O220 C218 1.270 . S
C221 O214 1.262 . S
C221 O222 1.232 . S
O222 C221 1.232 . S
C223 O215 1.260 . S
C223 O216 1.257 . S
Zn224 O227 2.031 . S
Zn224 O229 2.049 . S
Zn224 O234 2.067 1_545 S
Zn225 O226 1.962 . S
Zn225 O228 1.986 . S
Zn225 O230 1.996 . S
Zn225 O233 1.943 . S
O226 Zn225 1.962 . S
O226 C231 1.254 . S
O227 Zn224 2.031 . S
O227 C231 1.269 . S
O228 Zn225 1.986 . S
O228 C235 1.262 . S
O229 Zn224 2.049 . S
O229 C237 1.260 . S
O230 Zn225 1.996 . S
O230 C237 1.257 . S
C231 O226 1.254 . S
C231 O227 1.269 . S
C232 O233 1.249 . S
C232 O234 1.270 1_545 S
O233 Zn225 1.943 . S
O233 C232 1.249 . S
O234 Zn224 2.067 1_565 S
O234 C232 1.270 1_565 S
C235 O228 1.262 . S
C235 O236 1.232 . S
O236 C235 1.232 . S
C237 O229 1.260 . S
C237 O230 1.257 . S
Zn238 O241 2.031 . S
Zn238 O243 2.049 . S
Zn238 O248 2.067 . S
Zn239 O240 1.962 . S
Zn239 O242 1.986 . S
Zn239 O244 1.996 . S
Zn239 O247 1.943 . S
O240 Zn239 1.962 . S
O240 C245 1.254 . S
O241 Zn238 2.031 . S
O241 C245 1.269 . S
O242 Zn239 1.986 . S
O242 C249 1.262 . S
O243 Zn238 2.049 . S
O243 C251 1.260 . S
O244 Zn239 1.996 . S
O244 C251 1.257 . S
C245 O240 1.254 . S
C245 O241 1.269 . S
C246 O247 1.249 . S
C246 O248 1.270 . S
O247 Zn239 1.943 . S
O247 C246 1.249 . S
O248 Zn238 2.067 . S
O248 C246 1.270 . S
C249 O242 1.262 . S
C249 O250 1.232 . S
O250 C249 1.232 . S
C251 O243 1.260 . S
C251 O244 1.257 . S
Zn252 O255 2.031 . S
Zn252 O257 2.049 . S
Zn252 O262 2.067 . S
Zn253 O254 1.962 . S
Zn253 O256 1.986 . S
Zn253 O258 1.996 . S
Zn253 O261 1.943 . S
O254 Zn253 1.962 . S
O254 C259 1.254 . S
O255 Zn252 2.031 . S
O255 C259 1.269 . S
O256 Zn253 1.986 . S
O256 C263 1.262 . S
O257 Zn252 2.049 . S
O257 C265 1.260 . S
O258 Zn253 1.996 . S
O258 C265 1.257 . S
C259 O254 1.254 . S
C259 O255 1.269 . S
C260 O261 1.249 . S
C260 O262 1.270 . S
O261 Zn253 1.943 . S
O261 C260 1.249 . S
O262 Zn252 2.067 . S
O262 C260 1.270 . S
C263 O256 1.262 . S
C263 O264 1.232 . S
O264 C263 1.232 . S
C265 O257 1.260 . S
C265 O258 1.257 . S
Zn266 O269 2.031 . S
Zn266 O271 2.049 . S
Zn266 O276 2.067 . S
Zn267 O268 1.962 . S
Zn267 O270 1.986 1_545 S
Zn267 O272 1.996 . S
Zn267 O275 1.943 . S
O268 Zn267 1.962 . S
O268 C273 1.254 . S
O269 Zn266 2.031 . S
O269 C273 1.269 . S
O270 Zn267 1.986 1_565 S
O270 C277 1.262 . S
O271 Zn266 2.049 . S
O271 C279 1.260 . S
O272 Zn267 1.996 . S
O272 C279 1.257 . S
C273 O268 1.254 . S
C273 O269 1.269 . S
C274 O275 1.249 . S
C274 O276 1.270 . S
O275 Zn267 1.943 . S
O275 C274 1.249 . S
O276 Zn266 2.067 . S
O276 C274 1.270 . S
C277 O270 1.262 . S
C277 O278 1.232 . S
O278 C277 1.232 . S
C279 O271 1.260 . S
C279 O272 1.257 . S
Zn280 O283 2.031 1_554 S
Zn280 O285 2.049 . S
Zn280 O290 2.067 . S
Zn281 O282 1.962 1_554 S
Zn281 O284 1.986 . S
Zn281 O286 1.996 . S
Zn281 O289 1.943 . S
O282 Zn281 1.962 1_556 S
O282 C287 1.254 . S
O283 Zn280 2.031 1_556 S
O283 C287 1.269 . S
O284 Zn281 1.986 . S
O284 C291 1.262 . S
O285 Zn280 2.049 . S
O285 C293 1.260 . S
O286 Zn281 1.996 . S
O286 C293 1.257 . S
C287 O282 1.254 . S
C287 O283 1.269 . S
C288 O289 1.249 . S
C288 O290 1.270 . S
O289 Zn281 1.943 . S
O289 C288 1.249 . S
O290 Zn280 2.067 . S
O290 C288 1.270 . S
C291 O284 1.262 . S
C291 O292 1.232 1_554 S
O292 C291 1.232 1_556 S
C293 O285 1.260 . S
C293 O286 1.257 . S
Zn294 O297 2.031 . S
Zn294 O299 2.049 . S
Zn294 O304 2.067 . S
Zn295 O296 1.962 . S
Zn295 O298 1.986 . S
Zn295 O300 1.996 . S
Zn295 O303 1.943 . S
O296 Zn295 1.962 . S
O296 C301 1.254 . S
O297 Zn294 2.031 . S
O297 C301 1.269 . S
O298 Zn295 1.986 . S
O298 C305 1.262 . S
O299 Zn294 2.049 . S
O299 C307 1.260 . S
O300 Zn295 1.996 . S
O300 C307 1.257 . S
C301 O296 1.254 . S
C301 O297 1.269 . S
C302 O303 1.249 . S
C302 O304 1.270 . S
O303 Zn295 1.943 . S
O303 C302 1.249 . S
O304 Zn294 2.067 . S
O304 C302 1.270 . S
C305 O298 1.262 . S
C305 O306 1.232 . S
O306 C305 1.232 . S
C307 O299 1.260 . S
C307 O300 1.257 . S
Zn308 O311 2.031 . S
Zn308 O313 2.049 . S
Zn308 O318 2.067 . S
Zn309 O310 1.962 . S
Zn309 O312 1.986 . S
Zn309 O314 1.996 . S
Zn309 O317 1.943 . S
O310 Zn309 1.962 . S
O310 C315 1.254 . S
O311 Zn308 2.031 . S
O311 C315 1.269 . S
O312 Zn309 1.986 . S
O312 C319 1.262 . S
O313 Zn308 2.049 . S
O313 C321 1.260 . S
O314 Zn309 1.996 . S
O314 C321 1.257 . S
C315 O310 1.254 . S
C315 O311 1.269 . S
C316 O317 1.249 . S
C316 O318 1.270 . S
O317 Zn309 1.943 . S
O317 C316 1.249 . S
O318 Zn308 2.067 . S
O318 C316 1.270 . S
C319 O312 1.262 . S
C319 O320 1.232 . S
O320 C319 1.232 . S
C321 O313 1.260 . S
C321 O314 1.257 . S
Zn322 O325 2.031 . S
Zn322 O327 2.049 . S
Zn322 O332 2.067 . S
Zn323 O324 1.962 . S
Zn323 O326 1.986 . S
Zn323 O328 1.996 . S
Zn323 O331 1.943 . S
O324 Zn323 1.962 . S
O324 C329 1.254 . S
O325 Zn322 2.031 . S
O325 C329 1.269 . S
O326 Zn323 1.986 . S
O326 C333 1.262 . S
O327 Zn322 2.049 . S
O327 C335 1.260 . S
O328 Zn323 1.996 . S
O328 C335 1.257 . S
C329 O324 1.254 . S
C329 O325 1.269 . S
C330 O331 1.249 . S
C330 O332 1.270 . S
O331 Zn323 1.943 . S
O331 C330 1.249 . S
O332 Zn322 2.067 . S
O332 C330 1.270 . S
C333 O326 1.262 . S
C333 O334 1.232 . S
O334 C333 1.232 . S
C335 O327 1.260 . S
C335 O328 1.257 . S
Dy336 O340 2.398 . S
Dy336 O341 2.491 1_556 S
Dy336 O342 2.403 . S
Dy336 O343 2.664 1_655 S
Dy336 O347 2.326 1_655 S
Dy336 O351 2.310 1_656 S
Dy336 O352 2.351 1_546 S
C337 O348 1.185 . S
C337 O349 1.355 . S
C338 O340 1.185 . S
C338 O341 1.355 1_556 S
Dy339 O343 2.310 1_554 S
Dy339 O346 2.351 . S
Dy339 O348 2.398 . S
Dy339 O349 2.491 . S
Dy339 O350 2.403 . S
Dy339 O351 2.664 . S
Dy339 O353 2.326 1_545 S
O340 Dy336 2.398 . S
O340 C338 1.185 . S
O341 Dy336 2.491 1_554 S
O341 C338 1.355 1_554 S
O342 Dy336 2.403 . S
O342 C344 1.254 1_655 S
O343 Dy336 2.664 1_455 S
O343 Dy339 2.310 1_556 S
O343 C344 1.268 . S
C344 O342 1.254 1_455 S
C344 O343 1.268 . S
C345 O350 1.254 . S
C345 O351 1.268 . S
O346 Dy339 2.351 . S
O346 C354 1.249 . S
O347 Dy336 2.326 1_455 S
O347 C354 1.267 1_556 S
O348 C337 1.185 . S
O348 Dy339 2.398 . S
O349 C337 1.355 . S
O349 Dy339 2.491 . S
O350 Dy339 2.403 . S
O350 C345 1.254 . S
O351 Dy336 2.310 1_454 S
O351 Dy339 2.664 . S
O351 C345 1.268 . S
O352 Dy336 2.351 1_564 S
O352 C355 1.249 1_655 S
O353 Dy339 2.326 1_565 S
O353 C355 1.267 . S
C354 O346 1.249 . S
C354 O347 1.267 1_554 S
C355 O352 1.249 1_455 S
C355 O353 1.267 . S
Dy356 O360 2.398 . S
Dy356 O361 2.491 . S
Dy356 O362 2.403 . S
Dy356 O363 2.664 . S
Dy356 O367 2.326 . S
Dy356 O371 2.310 . S
Dy356 O372 2.351 . S
C357 O368 1.185 . S
C357 O369 1.355 . S
C358 O360 1.185 . S
C358 O361 1.355 . S
Dy359 O363 2.310 . S
Dy359 O366 2.351 . S
Dy359 O368 2.398 . S
Dy359 O369 2.491 . S
Dy359 O370 2.403 . S
Dy359 O371 2.664 . S
Dy359 O373 2.326 . S
O360 Dy356 2.398 . S
O360 C358 1.185 . S
O361 Dy356 2.491 . S
O361 C358 1.355 . S
O362 Dy356 2.403 . S
O362 C364 1.254 . S
O363 Dy356 2.664 . S
O363 Dy359 2.310 . S
O363 C364 1.268 . S
C364 O362 1.254 . S
C364 O363 1.268 . S
C365 O370 1.254 . S
C365 O371 1.268 . S
O366 Dy359 2.351 . S
O366 C374 1.249 . S
O367 Dy356 2.326 . S
O367 C374 1.267 . S
O368 C357 1.185 . S
O368 Dy359 2.398 . S
O369 C357 1.355 . S
O369 Dy359 2.491 . S
O370 Dy359 2.403 . S
O370 C365 1.254 . S
O371 Dy356 2.310 . S
O371 Dy359 2.664 . S
O371 C365 1.268 . S
O372 Dy356 2.351 . S
O372 C375 1.249 . S
O373 Dy359 2.326 . S
O373 C375 1.267 . S
C374 O366 1.249 . S
C374 O367 1.267 . S
C375 O372 1.249 . S
C375 O373 1.267 . S
Dy376 O380 2.398 . S
Dy376 O381 2.491 1_545 S
Dy376 O382 2.403 . S
Dy376 O383 2.664 . S
Dy376 O387 2.326 1_545 S
Dy376 O391 2.310 . S
Dy376 O392 2.351 . S
C377 O388 1.185 . S
C377 O389 1.355 . S
C378 O380 1.185 1_565 S
C378 O381 1.355 . S
Dy379 O383 2.310 . S
Dy379 O386 2.351 1_545 S
Dy379 O388 2.398 . S
Dy379 O389 2.491 . S
Dy379 O390 2.403 . S
Dy379 O391 2.664 . S
Dy379 O393 2.326 . S
O380 Dy376 2.398 . S
O380 C378 1.185 1_545 S
O381 Dy376 2.491 1_565 S
O381 C378 1.355 . S
O382 Dy376 2.403 . S
O382 C384 1.254 . S
O383 Dy376 2.664 . S
O383 Dy379 2.310 . S
O383 C384 1.268 . S
C384 O382 1.254 . S
C384 O383 1.268 . S
C385 O390 1.254 . S
C385 O391 1.268 . S
O386 Dy379 2.351 1_565 S
O386 C394 1.249 . S
O387 Dy376 2.326 1_565 S
O387 C394 1.267 . S
O388 C377 1.185 . S
O388 Dy379 2.398 . S
O389 C377 1.355 . S
O389 Dy379 2.491 . S
O390 Dy379 2.403 . S
O390 C385 1.254 . S
O391 Dy376 2.310 . S
O391 Dy379 2.664 . S
O391 C385 1.268 . S
O392 Dy376 2.351 . S
O392 C395 1.249 . S
O393 Dy379 2.326 . S
O393 C395 1.267 . S
C394 O386 1.249 . S
C394 O387 1.267 . S
C395 O392 1.249 . S
C395 O393 1.267 . S
Dy396 O400 2.398 . S
Dy396 O401 2.491 . S
Dy396 O402 2.403 . S
Dy396 O403 2.664 . S
Dy396 O407 2.326 . S
Dy396 O411 2.310 . S
Dy396 O412 2.351 . S
C397 O408 1.185 . S
C397 O409 1.355 . S
C398 O400 1.185 . S
C398 O401 1.355 . S
Dy399 O403 2.310 . S
Dy399 O406 2.351 . S
Dy399 O408 2.398 . S
Dy399 O409 2.491 . S
Dy399 O410 2.403 . S
Dy399 O411 2.664 . S
Dy399 O413 2.326 . S
O400 Dy396 2.398 . S
O400 C398 1.185 . S
O401 Dy396 2.491 . S
O401 C398 1.355 . S
O402 Dy396 2.403 . S
O402 C404 1.254 . S
O403 Dy396 2.664 . S
O403 Dy399 2.310 . S
O403 C404 1.268 . S
C404 O402 1.254 . S
C404 O403 1.268 . S
C405 O410 1.254 . S
C405 O411 1.268 . S
O406 Dy399 2.351 . S
O406 C414 1.249 . S
O407 Dy396 2.326 . S
O407 C414 1.267 . S
O408 C397 1.185 . S
O408 Dy399 2.398 . S
O409 C397 1.355 . S
O409 Dy399 2.491 . S
O410 Dy399 2.403 . S
O410 C405 1.254 . S
O411 Dy396 2.310 . S
O411 Dy399 2.664 . S
O411 C405 1.268 . S
O412 Dy396 2.351 . S
O412 C415 1.249 . S
O413 Dy399 2.326 . S
O413 C415 1.267 . S
C414 O406 1.249 . S
C414 O407 1.267 . S
C415 O412 1.249 . S
C415 O413 1.267 . S
Dy416 O420 2.398 . S
Dy416 O421 2.491 1_455 S
Dy416 O422 2.403 . S
Dy416 O423 2.664 . S
Dy416 O427 2.326 . S
Dy416 O431 2.310 1_455 S
Dy416 O432 2.351 1_545 S
C417 O428 1.185 . S
C417 O429 1.355 . S
C418 O420 1.185 1_655 S
C418 O421 1.355 . S
Dy419 O423 2.310 . S
Dy419 O426 2.351 . S
Dy419 O428 2.398 . S
Dy419 O429 2.491 . S
Dy419 O430 2.403 1_455 S
Dy419 O431 2.664 1_455 S
Dy419 O433 2.326 1_545 S
O420 Dy416 2.398 . S
O420 C418 1.185 1_455 S
O421 Dy416 2.491 1_655 S
O421 C418 1.355 . S
O422 Dy416 2.403 . S
O422 C424 1.254 . S
O423 Dy416 2.664 . S
O423 Dy419 2.310 . S
O423 C424 1.268 . S
C424 O422 1.254 . S
C424 O423 1.268 . S
C425 O430 1.254 . S
C425 O431 1.268 . S
O426 Dy419 2.351 . S
O426 C434 1.249 . S
O427 Dy416 2.326 . S
O427 C434 1.267 . S
O428 C417 1.185 . S
O428 Dy419 2.398 . S
O429 C417 1.355 . S
O429 Dy419 2.491 . S
O430 Dy419 2.403 1_655 S
O430 C425 1.254 . S
O431 Dy416 2.310 1_655 S
O431 Dy419 2.664 1_655 S
O431 C425 1.268 . S
O432 Dy416 2.351 1_565 S
O432 C435 1.249 . S
O433 Dy419 2.326 1_565 S
O433 C435 1.267 . S
C434 O426 1.249 . S
C434 O427 1.267 . S
C435 O432 1.249 . S
C435 O433 1.267 . S
Dy436 O440 2.398 . S
Dy436 O441 2.491 . S
Dy436 O442 2.403 . S
Dy436 O443 2.664 . S
Dy436 O447 2.326 . S
Dy436 O451 2.310 . S
Dy436 O452 2.351 . S
C437 O448 1.185 . S
C437 O449 1.355 . S
C438 O440 1.185 . S
C438 O441 1.355 . S
Dy439 O443 2.310 . S
Dy439 O446 2.351 . S
Dy439 O448 2.398 . S
Dy439 O449 2.491 . S
Dy439 O450 2.403 . S
Dy439 O451 2.664 . S
Dy439 O453 2.326 . S
O440 Dy436 2.398 . S
O440 C438 1.185 . S
O441 Dy436 2.491 . S
O441 C438 1.355 . S
O442 Dy436 2.403 . S
O442 C444 1.254 . S
O443 Dy436 2.664 . S
O443 Dy439 2.310 . S
O443 C444 1.268 . S
C444 O442 1.254 . S
C444 O443 1.268 . S
C445 O450 1.254 . S
C445 O451 1.268 . S
O446 Dy439 2.351 . S
O446 C454 1.249 . S
O447 Dy436 2.326 . S
O447 C454 1.267 . S
O448 C437 1.185 . S
O448 Dy439 2.398 . S
O449 C437 1.355 . S
O449 Dy439 2.491 . S
O450 Dy439 2.403 . S
O450 C445 1.254 . S
O451 Dy436 2.310 . S
O451 Dy439 2.664 . S
O451 C445 1.268 . S
O452 Dy436 2.351 . S
O452 C455 1.249 . S
O453 Dy439 2.326 . S
O453 C455 1.267 . S
C454 O446 1.249 . S
C454 O447 1.267 . S
C455 O452 1.249 . S
C455 O453 1.267 . S
Dy456 O460 2.398 1_545 S
Dy456 O461 2.491 . S
Dy456 O462 2.403 1_545 S
Dy456 O463 2.664 1_554 S
Dy456 O467 2.326 . S
Dy456 O471 2.310 . S
Dy456 O472 2.351 . S
C457 O468 1.185 . S
C457 O469 1.355 . S
C458 O460 1.185 1_545 S
C458 O461 1.355 . S
Dy459 O463 2.310 . S
Dy459 O466 2.351 . S
Dy459 O468 2.398 . S
Dy459 O469 2.491 . S
Dy459 O470 2.403 . S
Dy459 O471 2.664 1_556 S
Dy459 O473 2.326 . S
O460 Dy456 2.398 1_565 S
O460 C458 1.185 1_565 S
O461 Dy456 2.491 . S
O461 C458 1.355 . S
O462 Dy456 2.403 1_565 S
O462 C464 1.254 1_554 S
O463 Dy456 2.664 1_556 S
O463 Dy459 2.310 . S
O463 C464 1.268 1_545 S
C464 O462 1.254 1_556 S
C464 O463 1.268 1_565 S
C465 O470 1.254 1_554 S
C465 O471 1.268 . S
O466 Dy459 2.351 . S
O466 C474 1.249 1_556 S
O467 Dy456 2.326 . S
O467 C474 1.267 . S
O468 C457 1.185 . S
O468 Dy459 2.398 . S
O469 C457 1.355 . S
O469 Dy459 2.491 . S
O470 Dy459 2.403 . S
O470 C465 1.254 1_556 S
O471 Dy456 2.310 . S
O471 Dy459 2.664 1_554 S
O471 C465 1.268 . S
O472 Dy456 2.351 . S
O472 C475 1.249 . S
O473 Dy459 2.326 . S
O473 C475 1.267 1_556 S
C474 O466 1.249 1_554 S
C474 O467 1.267 . S
C475 O472 1.249 . S
C475 O473 1.267 1_554 S
Dy476 O480 2.398 . S
Dy476 O481 2.491 . S
Dy476 O482 2.403 . S
Dy476 O483 2.664 . S
Dy476 O487 2.326 . S
Dy476 O491 2.310 . S
Dy476 O492 2.351 . S
C477 O488 1.185 . S
C477 O489 1.355 . S
C478 O480 1.185 . S
C478 O481 1.355 . S
Dy479 O483 2.310 . S
Dy479 O486 2.351 . S
Dy479 O488 2.398 . S
Dy479 O489 2.491 . S
Dy479 O490 2.403 . S
Dy479 O491 2.664 . S
Dy479 O493 2.326 . S
O480 Dy476 2.398 . S
O480 C478 1.185 . S
O481 Dy476 2.491 . S
O481 C478 1.355 . S
O482 Dy476 2.403 . S
O482 C484 1.254 . S
O483 Dy476 2.664 . S
O483 Dy479 2.310 . S
O483 C484 1.268 . S
C484 O482 1.254 . S
C484 O483 1.268 . S
C485 O490 1.254 . S
C485 O491 1.268 . S
O486 Dy479 2.351 . S
O486 C494 1.249 . S
O487 Dy476 2.326 . S
O487 C494 1.267 . S
O488 C477 1.185 . S
O488 Dy479 2.398 . S
O489 C477 1.355 . S
O489 Dy479 2.491 . S
O490 Dy479 2.403 . S
O490 C485 1.254 . S
O491 Dy476 2.310 . S
O491 Dy479 2.664 . S
O491 C485 1.268 . S
O492 Dy476 2.351 . S
O492 C495 1.249 . S
O493 Dy479 2.326 . S
O493 C495 1.267 . S
C494 O486 1.249 . S
C494 O487 1.267 . S
C495 O492 1.249 . S
C495 O493 1.267 . S
Dy496 O500 2.398 . S
Dy496 O501 2.491 . S
Dy496 O502 2.403 . S
Dy496 O503 2.664 1_556 S
Dy496 O507 2.326 . S
Dy496 O511 2.290 1_556 S
Dy496 O512 2.351 . S
C497 O508 1.185 . S
C497 O509 1.355 . S
C498 O500 1.185 . S
C498 O501 1.355 . S
Dy499 O503 2.310 . S
Dy499 O506 2.351 . S
Dy499 O508 2.398 . S
Dy499 O509 2.491 . S
Dy499 O510 2.403 . S
Dy499 O511 2.684 . S
Dy499 O513 2.326 . S
O500 Dy496 2.398 . S
O500 C498 1.185 . S
O501 Dy496 2.491 . S
O501 C498 1.355 . S
O502 Dy496 2.403 . S
O502 C504 1.254 . S
O503 Dy496 2.664 1_554 S
O503 Dy499 2.310 . S
O503 C504 1.268 1_554 S
C504 O502 1.254 . S
C504 O503 1.268 1_556 S
C505 O510 1.254 . S
C505 O511 1.286 . S
O506 Dy499 2.351 . S
O506 C514 1.249 1_554 S
O507 Dy496 2.326 . S
O507 C514 1.267 . S
O508 C497 1.185 . S
O508 Dy499 2.398 . S
O509 C497 1.355 . S
O509 Dy499 2.491 . S
O510 Dy499 2.403 . S
O510 C505 1.254 . S
O511 Dy496 2.290 1_554 S
O511 Dy499 2.684 . S
O511 C505 1.286 . S
O512 Dy496 2.351 . S
O512 C515 1.249 1_556 S
O513 Dy499 2.326 . S
O513 C515 1.267 . S
C514 O506 1.249 1_556 S
C514 O507 1.267 . S
C515 O512 1.249 1_554 S
C515 O513 1.267 . S
Dy516 O520 2.398 . S
Dy516 O521 2.491 . S
Dy516 O522 2.403 . S
Dy516 O523 2.664 . S
Dy516 O527 2.326 . S
Dy516 O531 2.310 . S
Dy516 O532 2.351 . S
C517 O528 1.185 . S
C517 O529 1.355 . S
C518 O520 1.185 . S
C518 O521 1.355 . S
Dy519 O523 2.310 . S
Dy519 O526 2.351 . S
Dy519 O528 2.398 . S
Dy519 O529 2.491 . S
Dy519 O530 2.403 . S
Dy519 O531 2.664 . S
Dy519 O533 2.326 . S
O520 Dy516 2.398 . S
O520 C518 1.185 . S
O521 Dy516 2.491 . S
O521 C518 1.355 . S
O522 Dy516 2.403 . S
O522 C524 1.254 . S
O523 Dy516 2.664 . S
O523 Dy519 2.310 . S
O523 C524 1.268 . S
C524 O522 1.254 . S
C524 O523 1.268 . S
C525 O530 1.254 . S
C525 O531 1.268 . S
O526 Dy519 2.351 . S
O526 C534 1.249 . S
O527 Dy516 2.326 . S
O527 C534 1.267 . S
O528 C517 1.185 . S
O528 Dy519 2.398 . S
O529 C517 1.355 . S
O529 Dy519 2.491 . S
O530 Dy519 2.403 . S
O530 C525 1.254 . S
O531 Dy516 2.310 . S
O531 Dy519 2.664 . S
O531 C525 1.268 . S
O532 Dy516 2.351 . S
O532 C535 1.249 . S
O533 Dy519 2.326 . S
O533 C535 1.267 . S
C534 O526 1.249 . S
C534 O527 1.267 . S
C535 O532 1.249 . S
C535 O533 1.267 . S
Dy536 O540 2.398 1_455 S
Dy536 O541 2.491 1_455 S
Dy536 O542 2.403 . S
Dy536 O543 2.664 . S
Dy536 O547 2.326 1_455 S
Dy536 O551 2.310 . S
Dy536 O552 2.351 . S
C537 O548 1.185 . S
C537 O549 1.355 . S
C538 O540 1.185 . S
C538 O541 1.355 . S
Dy539 O543 2.310 . S
Dy539 O546 2.351 1_455 S
Dy539 O548 2.398 . S
Dy539 O549 2.491 . S
Dy539 O550 2.403 . S
Dy539 O551 2.664 . S
Dy539 O553 2.326 . S
O540 Dy536 2.398 1_655 S
O540 C538 1.185 . S
O541 Dy536 2.491 1_655 S
O541 C538 1.355 . S
O542 Dy536 2.403 . S
O542 C544 1.254 . S
O543 Dy536 2.664 . S
O543 Dy539 2.310 . S
O543 C544 1.268 . S
C544 O542 1.254 . S
C544 O543 1.268 . S
C545 O550 1.254 . S
C545 O551 1.268 . S
O546 Dy539 2.351 1_655 S
O546 C554 1.249 . S
O547 Dy536 2.326 1_655 S
O547 C554 1.267 . S
O548 C537 1.185 . S
O548 Dy539 2.398 . S
O549 C537 1.355 . S
O549 Dy539 2.491 . S
O550 Dy539 2.403 . S
O550 C545 1.254 . S
O551 Dy536 2.310 . S
O551 Dy539 2.664 . S
O551 C545 1.268 . S
O552 Dy536 2.351 . S
O552 C555 1.249 . S
O553 Dy539 2.326 . S
O553 C555 1.267 . S
C554 O546 1.249 . S
C554 O547 1.267 . S
C555 O552 1.249 . S
C555 O553 1.267 . S
Dy556 O560 2.398 . S
Dy556 O561 2.491 . S
Dy556 O562 2.403 . S
Dy556 O563 2.664 . S
Dy556 O567 2.326 . S
Dy556 O571 2.310 . S
Dy556 O572 2.351 . S
C557 O568 1.185 . S
C557 O569 1.355 . S
C558 O560 1.185 . S
C558 O561 1.355 . S
Dy559 O563 2.310 . S
Dy559 O566 2.351 . S
Dy559 O568 2.398 . S
Dy559 O569 2.491 . S
Dy559 O570 2.403 . S
Dy559 O571 2.664 . S
Dy559 O573 2.326 . S
O560 Dy556 2.398 . S
O560 C558 1.185 . S
O561 Dy556 2.491 . S
O561 C558 1.355 . S
O562 Dy556 2.403 . S
O562 C564 1.254 . S
O563 Dy556 2.664 . S
O563 Dy559 2.310 . S
O563 C564 1.268 . S
C564 O562 1.254 . S
C564 O563 1.268 . S
C565 O570 1.254 . S
C565 O571 1.268 . S
O566 Dy559 2.351 . S
O566 C574 1.249 . S
O567 Dy556 2.326 . S
O567 C574 1.267 . S
O568 C557 1.185 . S
O568 Dy559 2.398 . S
O569 C557 1.355 . S
O569 Dy559 2.491 . S
O570 Dy559 2.403 . S
O570 C565 1.254 . S
O571 Dy556 2.310 . S
O571 Dy559 2.664 . S
O571 C565 1.268 . S
O572 Dy556 2.351 . S
O572 C575 1.249 . S
O573 Dy559 2.326 . S
O573 C575 1.267 . S
C574 O566 1.249 . S
C574 O567 1.267 . S
C575 O572 1.249 . S
C575 O573 1.267 . S
Dy576 O580 2.398 . S
Dy576 O581 2.491 . S
Dy576 O582 2.403 . S
Dy576 O583 2.664 . S
Dy576 O587 2.326 . S
Dy576 O591 2.310 . S
Dy576 O592 2.351 . S
C577 O588 1.185 . S
C577 O589 1.355 . S
C578 O580 1.185 . S
C578 O581 1.355 . S
Dy579 O583 2.310 . S
Dy579 O586 2.351 . S
Dy579 O588 2.398 . S
Dy579 O589 2.491 . S
Dy579 O590 2.403 . S
Dy579 O591 2.664 . S
Dy579 O593 2.326 . S
O580 Dy576 2.398 . S
O580 C578 1.185 . S
O581 Dy576 2.491 . S
O581 C578 1.355 . S
O582 Dy576 2.403 . S
O582 C584 1.254 . S
O583 Dy576 2.664 . S
O583 Dy579 2.310 . S
O583 C584 1.268 . S
C584 O582 1.254 . S
C584 O583 1.268 . S
C585 O590 1.254 . S
C585 O591 1.268 . S
O586 Dy579 2.351 . S
O586 C594 1.249 . S
O587 Dy576 2.326 . S
O587 C594 1.267 . S
O588 C577 1.185 . S
O588 Dy579 2.398 . S
O589 C577 1.355 . S
O589 Dy579 2.491 . S
O590 Dy579 2.403 . S
O590 C585 1.254 . S
O591 Dy576 2.310 . S
O591 Dy579 2.664 . S
O591 C585 1.268 . S
O592 Dy576 2.351 . S
O592 C595 1.249 . S
O593 Dy579 2.326 . S
O593 C595 1.267 . S
C594 O586 1.249 . S
C594 O587 1.267 . S
C595 O592 1.249 . S
C595 O593 1.267 . S
Dy596 O600 2.398 . S
Dy596 O601 2.491 . S
Dy596 O602 2.403 . S
Dy596 O603 2.664 . S
Dy596 O607 2.326 . S
Dy596 O611 2.310 . S
Dy596 O612 2.351 . S
C597 O608 1.185 . S
C597 O609 1.355 . S
C598 O600 1.185 . S
C598 O601 1.355 . S
Dy599 O603 2.310 . S
Dy599 O606 2.351 . S
Dy599 O608 2.398 . S
Dy599 O609 2.491 . S
Dy599 O610 2.403 . S
Dy599 O611 2.664 . S
Dy599 O613 2.326 . S
O600 Dy596 2.398 . S
O600 C598 1.185 . S
O601 Dy596 2.491 . S
O601 C598 1.355 . S
O602 Dy596 2.403 . S
O602 C604 1.254 . S
O603 Dy596 2.664 . S
O603 Dy599 2.310 . S
O603 C604 1.268 . S
C604 O602 1.254 . S
C604 O603 1.268 . S
C605 O610 1.254 . S
C605 O611 1.268 . S
O606 Dy599 2.351 . S
O606 C614 1.249 . S
O607 Dy596 2.326 . S
O607 C614 1.267 . S
O608 C597 1.185 . S
O608 Dy599 2.398 . S
O609 C597 1.355 . S
O609 Dy599 2.491 . S
O610 Dy599 2.403 . S
O610 C605 1.254 . S
O611 Dy596 2.310 . S
O611 Dy599 2.664 . S
O611 C605 1.268 . S
O612 Dy596 2.351 . S
O612 C615 1.249 . S
O613 Dy599 2.326 . S
O613 C615 1.267 . S
C614 O606 1.249 . S
C614 O607 1.267 . S
C615 O612 1.249 . S
C615 O613 1.267 . S
Dy616 O620 2.398 . S
Dy616 O621 2.491 . S
Dy616 O622 2.403 . S
Dy616 O623 2.664 . S
Dy616 O627 2.326 . S
Dy616 O631 2.310 . S
Dy616 O632 2.351 . S
C617 O628 1.185 . S
C617 O629 1.355 . S
C618 O620 1.185 . S
C618 O621 1.355 . S
Dy619 O623 2.310 . S
Dy619 O626 2.351 . S
Dy619 O628 2.398 . S
Dy619 O629 2.491 . S
Dy619 O630 2.403 . S
Dy619 O631 2.664 . S
Dy619 O633 2.326 . S
O620 Dy616 2.398 . S
O620 C618 1.185 . S
O621 Dy616 2.491 . S
O621 C618 1.355 . S
O622 Dy616 2.403 . S
O622 C624 1.254 . S
O623 Dy616 2.664 . S
O623 Dy619 2.310 . S
O623 C624 1.268 . S
C624 O622 1.254 . S
C624 O623 1.268 . S
C625 O630 1.254 . S
C625 O631 1.268 . S
O626 Dy619 2.351 . S
O626 C634 1.249 . S
O627 Dy616 2.326 . S
O627 C634 1.267 . S
O628 C617 1.185 . S
O628 Dy619 2.398 . S
O629 C617 1.355 . S
O629 Dy619 2.491 . S
O630 Dy619 2.403 . S
O630 C625 1.254 . S
O631 Dy616 2.310 . S
O631 Dy619 2.664 . S
O631 C625 1.268 . S
O632 Dy616 2.351 . S
O632 C635 1.249 . S
O633 Dy619 2.326 . S
O633 C635 1.267 . S
C634 O626 1.249 . S
C634 O627 1.267 . S
C635 O632 1.249 . S
C635 O633 1.267 . S
Dy636 O640 2.398 1_554 S
Dy636 O641 2.491 . S
Dy636 O642 2.403 1_554 S
Dy636 O643 2.664 1_454 S
Dy636 O647 2.326 1_554 S
Dy636 O651 2.310 . S
Dy636 O652 2.351 . S
C637 O648 1.185 . S
C637 O649 1.355 . S
C638 O640 1.185 . S
C638 O641 1.355 1_556 S
Dy639 O643 2.310 1_554 S
Dy639 O646 2.351 . S
Dy639 O648 2.398 . S
Dy639 O649 2.491 . S
Dy639 O650 2.403 . S
Dy639 O651 2.664 1_655 S
Dy639 O653 2.326 . S
O640 Dy636 2.398 1_556 S
O640 C638 1.185 . S
O641 Dy636 2.491 . S
O641 C638 1.355 1_554 S
O642 Dy636 2.403 1_556 S
O642 C644 1.254 . S
O643 Dy636 2.664 1_656 S
O643 Dy639 2.310 1_556 S
O643 C644 1.268 1_655 S
C644 O642 1.254 . S
C644 O643 1.268 1_455 S
C645 O650 1.254 1_455 S
C645 O651 1.268 . S
O646 Dy639 2.351 . S
O646 C654 1.249 1_654 S
O647 Dy636 2.326 1_556 S
O647 C654 1.267 . S
O648 C637 1.185 . S
O648 Dy639 2.398 . S
O649 C637 1.355 . S
O649 Dy639 2.491 . S
O650 Dy639 2.403 . S
O650 C645 1.254 1_655 S
O651 Dy636 2.310 . S
O651 Dy639 2.664 1_455 S
O651 C645 1.268 . S
O652 Dy636 2.351 . S
O652 C655 1.249 . S
O653 Dy639 2.326 . S
O653 C655 1.267 1_655 S
C654 O646 1.249 1_456 S
C654 O647 1.267 . S
C655 O652 1.249 . S
C655 O653 1.267 1_455 S
H656 C668 0.930 . S
H657 C670 0.930 . S
H658 C671 0.930 . S
H659 C675 0.959 . S
H660 C675 0.959 . S
H661 C675 0.961 . S
H662 C676 0.960 . S
H663 C676 0.961 . S
H664 C676 0.959 . S
H665 C679 0.929 . S
H666 C680 0.931 . S
H667 C682 0.930 . S
C668 H656 0.930 . S
C668 C669 1.399 . S
C668 C673 1.399 1_655 S
C669 C668 1.399 . S
C669 C670 1.376 1_655 S
C670 H657 0.930 . S
C670 C669 1.376 1_455 S
C670 C671 1.388 . S
C671 H658 0.930 . S
C671 C670 1.388 . S
C671 C672 1.390 . S
C672 C671 1.390 . S
C672 C673 1.394 . S
C672 C678 1.465 . S
C673 C668 1.399 1_455 S
C673 C672 1.394 . S
C673 C674 1.516 . S
C674 C673 1.516 . S
C674 C675 1.502 1_455 S
C674 C676 1.561 . S
C674 C677 1.526 . S
C675 H659 0.959 . S
C675 H660 0.959 . S
C675 H661 0.961 . S
C675 C674 1.502 1_655 S
C676 H662 0.960 . S
C676 H663 0.961 . S
C676 H664 0.959 . S
C676 C674 1.561 . S
C677 C674 1.526 . S
C677 C678 1.396 . S
C677 C682 1.390 . S
C678 C672 1.465 . S
C678 C677 1.396 . S
C678 C679 1.399 1_556 S
C679 H665 0.929 . S
C679 C678 1.399 1_554 S
C679 C680 1.385 . S
C680 H666 0.931 . S
C680 C679 1.385 . S
C680 C681 1.389 1_554 S
C681 C680 1.389 1_556 S
C681 C682 1.387 . S
C682 H667 0.930 . S
C682 C677 1.390 . S
C682 C681 1.387 . S
H683 C695 0.930 . S
H684 C697 0.930 . S
H685 C698 0.930 . S
H686 C702 0.959 . S
H687 C702 0.959 . S
H688 C702 0.961 . S
H689 C703 0.960 . S
H690 C703 0.961 . S
H691 C703 0.959 . S
H692 C706 0.929 . S
H693 C707 0.931 . S
H694 C709 0.930 . S
C695 H683 0.930 . S
C695 C696 1.399 . S
C695 C700 1.399 . S
C696 C695 1.399 . S
C696 C697 1.376 . S
C697 H684 0.930 . S
C697 C696 1.376 . S
C697 C698 1.388 . S
C698 H685 0.930 . S
C698 C697 1.388 . S
C698 C699 1.390 . S
C699 C698 1.390 . S
C699 C700 1.394 . S
C699 C705 1.465 . S
C700 C695 1.399 . S
C700 C699 1.394 . S
C700 C701 1.516 . S
C701 C700 1.516 . S
C701 C702 1.502 . S
C701 C703 1.561 . S
C701 C704 1.526 . S
C702 H686 0.959 . S
C702 H687 0.959 . S
C702 H688 0.961 . S
C702 C701 1.502 . S
C703 H689 0.960 . S
C703 H690 0.961 . S
C703 H691 0.959 . S
C703 C701 1.561 . S
C704 C701 1.526 . S
C704 C705 1.396 . S
C704 C709 1.390 . S
C705 C699 1.465 . S
C705 C704 1.396 . S
C705 C706 1.399 . S
C706 H692 0.929 . S
C706 C705 1.399 . S
C706 C707 1.385 . S
C707 H693 0.931 . S
C707 C706 1.385 . S
C707 C708 1.389 . S
C708 C707 1.389 . S
C708 C709 1.387 . S
C709 H694 0.930 . S
C709 C704 1.390 . S
C709 C708 1.387 . S
H710 C722 0.930 . S
H711 C724 0.930 . S
H712 C725 0.930 . S
H713 C729 0.959 . S
H714 C729 0.959 . S
H715 C729 0.961 . S
H716 C730 0.960 . S
H717 C730 0.961 . S
H718 C730 0.959 . S
H719 C733 0.929 . S
H720 C734 0.931 . S
H721 C736 0.930 . S
C722 H710 0.930 . S
C722 C723 1.399 . S
C722 C727 1.399 . S
C723 C722 1.399 . S
C723 C724 1.376 . S
C724 H711 0.930 . S
C724 C723 1.376 . S
C724 C725 1.388 . S
C725 H712 0.930 . S
C725 C724 1.388 . S
C725 C726 1.390 . S
C726 C725 1.390 . S
C726 C727 1.394 . S
C726 C732 1.465 . S
C727 C722 1.399 . S
C727 C726 1.394 . S
C727 C728 1.516 . S
C728 C727 1.516 . S
C728 C729 1.502 . S
C728 C730 1.561 . S
C728 C731 1.526 . S
C729 H713 0.959 . S
C729 H714 0.959 . S
C729 H715 0.961 . S
C729 C728 1.502 . S
C730 H716 0.960 . S
C730 H717 0.961 . S
C730 H718 0.959 . S
C730 C728 1.561 . S
C731 C728 1.526 . S
C731 C732 1.396 . S
C731 C736 1.390 . S
C732 C726 1.465 . S
C732 C731 1.396 . S
C732 C733 1.399 . S
C733 H719 0.929 . S
C733 C732 1.399 . S
C733 C734 1.385 . S
C734 H720 0.931 . S
C734 C733 1.385 . S
C734 C735 1.389 . S
C735 C734 1.389 . S
C735 C736 1.387 . S
C736 H721 0.930 . S
C736 C731 1.390 . S
C736 C735 1.387 . S
H737 C749 0.930 . S
H738 C751 0.930 . S
H739 C752 0.930 . S
H740 C756 0.959 . S
H741 C756 0.959 . S
H742 C756 0.961 . S
H743 C757 0.960 . S
H744 C757 0.961 . S
H745 C757 0.959 . S
H746 C760 0.929 . S
H747 C761 0.931 . S
H748 C763 0.930 . S
C749 H737 0.930 . S
C749 C750 1.399 . S
C749 C754 1.399 . S
C750 C749 1.399 . S
C750 C751 1.376 . S
C751 H738 0.930 . S
C751 C750 1.376 . S
C751 C752 1.388 . S
C752 H739 0.930 . S
C752 C751 1.388 . S
C752 C753 1.390 . S
C753 C752 1.390 . S
C753 C754 1.394 . S
C753 C759 1.465 . S
C754 C749 1.399 . S
C754 C753 1.394 . S
C754 C755 1.516 . S
C755 C754 1.516 . S
C755 C756 1.502 . S
C755 C757 1.561 . S
C755 C758 1.526 . S
C756 H740 0.959 . S
C756 H741 0.959 . S
C756 H742 0.961 . S
C756 C755 1.502 . S
C757 H743 0.960 . S
C757 H744 0.961 . S
C757 H745 0.959 . S
C757 C755 1.561 . S
C758 C755 1.526 . S
C758 C759 1.396 . S
C758 C763 1.390 . S
C759 C753 1.465 . S
C759 C758 1.396 . S
C759 C760 1.399 . S
C760 H746 0.929 . S
C760 C759 1.399 . S
C760 C761 1.385 . S
C761 H747 0.931 . S
C761 C760 1.385 . S
C761 C762 1.389 . S
C762 C761 1.389 . S
C762 C763 1.387 . S
C763 H748 0.930 . S
C763 C758 1.390 . S
C763 C762 1.387 . S
H764 C776 0.930 . S
H765 C778 0.941 . S
H766 C779 0.930 . S
H767 C783 0.959 . S
H768 C783 0.959 . S
H769 C783 0.961 . S
H770 C784 0.960 . S
H771 C784 0.961 . S
H772 C784 0.959 1_655 S
H773 C787 0.929 . S
H774 C788 0.931 . S
H775 C790 0.930 . S
C776 H764 0.930 . S
C776 C777 1.399 . S
C776 C781 1.399 . S
C777 C776 1.399 . S
C777 C778 1.376 . S
C778 H765 0.941 . S
C778 C777 1.376 . S
C778 C779 1.388 . S
C779 H766 0.930 . S
C779 C778 1.388 . S
C779 C780 1.390 . S
C780 C779 1.390 . S
C780 C781 1.394 . S
C780 C786 1.465 . S
C781 C776 1.399 . S
C781 C780 1.394 . S
C781 C782 1.516 . S
C782 C781 1.516 . S
C782 C783 1.502 . S
C782 C784 1.561 . S
C782 C785 1.526 . S
C783 H767 0.959 . S
C783 H768 0.959 . S
C783 H769 0.961 . S
C783 C782 1.502 . S
C784 H770 0.960 . S
C784 H771 0.961 . S
C784 H772 0.959 1_455 S
C784 C782 1.561 . S
C785 C782 1.526 . S
C785 C786 1.396 . S
C785 C790 1.390 . S
C786 C780 1.465 . S
C786 C785 1.396 . S
C786 C787 1.399 . S
C787 H773 0.929 . S
C787 C786 1.399 . S
C787 C788 1.385 . S
C788 H774 0.931 . S
C788 C787 1.385 . S
C788 C789 1.389 . S
C789 C788 1.389 . S
C789 C790 1.387 . S
C790 H775 0.930 . S
C790 C785 1.390 . S
C790 C789 1.387 . S
H791 C803 0.930 . S
H792 C805 0.930 . S
H793 C806 0.930 . S
H794 C810 0.959 . S
H795 C810 0.959 . S
H796 C810 0.961 . S
H797 C811 0.960 . S
H798 C811 0.961 . S
H799 C811 0.959 . S
H800 C814 0.929 . S
H801 C815 0.931 . S
H802 C817 0.930 . S
C803 H791 0.930 . S
C803 C804 1.399 . S
C803 C808 1.399 . S
C804 C803 1.399 . S
C804 C805 1.376 . S
C805 H792 0.930 . S
C805 C804 1.376 . S
C805 C806 1.388 . S
C806 H793 0.930 . S
C806 C805 1.388 . S
C806 C807 1.390 . S
C807 C806 1.390 . S
C807 C808 1.394 . S
C807 C813 1.465 . S
C808 C803 1.399 . S
C808 C807 1.394 . S
C808 C809 1.516 . S
C809 C808 1.516 . S
C809 C810 1.502 . S
C809 C811 1.561 . S
C809 C812 1.526 . S
C810 H794 0.959 . S
C810 H795 0.959 . S
C810 H796 0.961 . S
C810 C809 1.502 . S
C811 H797 0.960 . S
C811 H798 0.961 . S
C811 H799 0.959 . S
C811 C809 1.561 . S
C812 C809 1.526 . S
C812 C813 1.396 . S
C812 C817 1.390 . S
C813 C807 1.465 . S
C813 C812 1.396 . S
C813 C814 1.399 . S
C814 H800 0.929 . S
C814 C813 1.399 . S
C814 C815 1.385 . S
C815 H801 0.931 . S
C815 C814 1.385 . S
C815 C816 1.389 . S
C816 C815 1.389 . S
C816 C817 1.387 . S
C817 H802 0.930 . S
C817 C812 1.390 . S
C817 C816 1.387 . S
H818 C830 0.930 . S
H819 C832 0.930 . S
H820 C833 0.930 . S
H821 C837 0.959 . S
H822 C837 0.959 . S
H823 C837 0.961 . S
H824 C838 0.960 . S
H825 C838 0.961 . S
H826 C838 0.959 . S
H827 C841 0.929 . S
H828 C842 0.931 . S
H829 C844 0.930 . S
C830 H818 0.930 . S
C830 C831 1.399 . S
C830 C835 1.399 . S
C831 C830 1.399 . S
C831 C832 1.376 . S
C832 H819 0.930 . S
C832 C831 1.376 . S
C832 C833 1.388 . S
C833 H820 0.930 . S
C833 C832 1.388 . S
C833 C834 1.390 . S
C834 C833 1.390 . S
C834 C835 1.394 . S
C834 C840 1.465 . S
C835 C830 1.399 . S
C835 C834 1.394 . S
C835 C836 1.516 . S
C836 C835 1.516 . S
C836 C837 1.502 . S
C836 C838 1.561 . S
C836 C839 1.526 . S
C837 H821 0.959 . S
C837 H822 0.959 . S
C837 H823 0.961 . S
C837 C836 1.502 . S
C838 H824 0.960 . S
C838 H825 0.961 . S
C838 H826 0.959 . S
C838 C836 1.561 . S
C839 C836 1.526 . S
C839 C840 1.396 . S
C839 C844 1.390 . S
C840 C834 1.465 . S
C840 C839 1.396 . S
C840 C841 1.399 . S
C841 H827 0.929 . S
C841 C840 1.399 . S
C841 C842 1.385 . S
C842 H828 0.931 . S
C842 C841 1.385 . S
C842 C843 1.389 . S
C843 C842 1.389 . S
C843 C844 1.387 . S
C844 H829 0.930 . S
C844 C839 1.390 . S
C844 C843 1.387 . S
H845 C857 0.930 . S
H846 C859 0.930 . S
H847 C860 0.930 . S
H848 C864 0.959 . S
H849 C864 0.959 . S
H850 C864 0.961 . S
H851 C865 0.960 . S
H852 C865 0.961 . S
H853 C865 0.959 . S
H854 C868 0.929 . S
H855 C869 0.931 . S
H856 C871 0.930 . S
C857 H845 0.930 . S
C857 C858 1.399 . S
C857 C862 1.399 . S
C858 C857 1.399 . S
C858 C859 1.376 . S
C859 H846 0.930 . S
C859 C858 1.376 . S
C859 C860 1.388 . S
C860 H847 0.930 . S
C860 C859 1.388 . S
C860 C861 1.390 . S
C861 C860 1.390 . S
C861 C862 1.394 . S
C861 C867 1.465 . S
C862 C857 1.399 . S
C862 C861 1.394 . S
C862 C863 1.516 . S
C863 C862 1.516 . S
C863 C864 1.502 . S
C863 C865 1.561 . S
C863 C866 1.526 . S
C864 H848 0.959 . S
C864 H849 0.959 . S
C864 H850 0.961 . S
C864 C863 1.502 . S
C865 H851 0.960 . S
C865 H852 0.961 . S
C865 H853 0.959 . S
C865 C863 1.561 . S
C866 C863 1.526 . S
C866 C867 1.396 . S
C866 C871 1.390 . S
C867 C861 1.465 . S
C867 C866 1.396 . S
C867 C868 1.399 . S
C868 H854 0.929 . S
C868 C867 1.399 . S
C868 C869 1.385 . S
C869 H855 0.931 . S
C869 C868 1.385 . S
C869 C870 1.389 . S
C870 C869 1.389 . S
C870 C871 1.387 . S
C871 H856 0.930 . S
C871 C866 1.390 . S
C871 C870 1.387 . S
H872 C884 0.930 . S
H873 C886 0.930 . S
H874 C887 0.930 . S
H875 C891 0.959 1_455 S
H876 C891 0.958 1_455 S
H877 C891 0.961 . S
H878 C892 0.960 . S
H879 C892 0.961 . S
H880 C892 0.959 . S
H881 C895 0.929 . S
H882 C896 0.931 . S
H883 C898 0.930 1_455 S
C884 H872 0.930 . S
C884 C885 1.399 . S
C884 C889 1.399 . S
C885 C884 1.399 . S
C885 C886 1.376 . S
C886 H873 0.930 . S
C886 C885 1.376 . S
C886 C887 1.388 . S
C887 H874 0.930 . S
C887 C886 1.388 . S
C887 C888 1.390 . S
C888 C887 1.390 . S
C888 C889 1.394 . S
C888 C894 1.465 . S
C889 C884 1.399 . S
C889 C888 1.394 . S
C889 C890 1.516 . S
C890 C889 1.516 . S
C890 C891 1.503 . S
C890 C892 1.561 1_545 S
C890 C893 1.526 . S
C891 H875 0.959 1_655 S
C891 H876 0.958 1_655 S
C891 H877 0.961 . S
C891 C890 1.503 . S
C892 H878 0.960 . S
C892 H879 0.961 . S
C892 H880 0.959 . S
C892 C890 1.561 1_565 S
C893 C890 1.526 . S
C893 C894 1.396 . S
C893 C898 1.390 . S
C894 C888 1.465 . S
C894 C893 1.396 . S
C894 C895 1.399 . S
C895 H881 0.929 . S
C895 C894 1.399 . S
C895 C896 1.385 . S
C896 H882 0.931 . S
C896 C895 1.385 . S
C896 C897 1.389 . S
C897 C896 1.389 . S
C897 C898 1.387 . S
C898 H883 0.930 1_655 S
C898 C893 1.390 . S
C898 C897 1.387 . S
H899 C911 0.930 . S
H900 C913 0.930 . S
H901 C914 0.930 . S
H902 C918 0.959 . S
H903 C918 0.959 . S
H904 C918 0.961 . S
H905 C919 0.960 . S
H906 C919 0.961 . S
H907 C919 0.959 . S
H908 C922 0.929 . S
H909 C923 0.931 . S
H910 C925 0.930 . S
C911 H899 0.930 . S
C911 C912 1.399 . S
C911 C916 1.399 . S
C912 C911 1.399 . S
C912 C913 1.376 . S
C913 H900 0.930 . S
C913 C912 1.376 . S
C913 C914 1.388 . S
C914 H901 0.930 . S
C914 C913 1.388 . S
C914 C915 1.390 . S
C915 C914 1.390 . S
C915 C916 1.394 . S
C915 C921 1.465 . S
C916 C911 1.399 . S
C916 C915 1.394 . S
C916 C917 1.516 . S
C917 C916 1.516 . S
C917 C918 1.502 . S
C917 C919 1.561 . S
C917 C920 1.526 . S
C918 H902 0.959 . S
C918 H903 0.959 . S
C918 H904 0.961 . S
C918 C917 1.502 . S
C919 H905 0.960 . S
C919 H906 0.961 . S
C919 H907 0.959 . S
C919 C917 1.561 . S
C920 C917 1.526 . S
C920 C921 1.396 . S
C920 C925 1.390 . S
C921 C915 1.465 . S
C921 C920 1.396 . S
C921 C922 1.399 . S
C922 H908 0.929 . S
C922 C921 1.399 . S
C922 C923 1.385 . S
C923 H909 0.931 . S
C923 C922 1.385 . S
C923 C924 1.389 . S
C924 C923 1.389 . S
C924 C925 1.387 . S
C925 H910 0.930 . S
C925 C920 1.390 . S
C925 C924 1.387 . S
H926 C938 0.930 . S
H927 C940 0.930 . S
H928 C941 0.930 . S
H929 C945 0.959 . S
H930 C945 0.959 . S
H931 C945 0.961 . S
H932 C946 0.960 . S
H933 C946 0.961 . S
H934 C946 0.959 . S
H935 C949 0.929 . S
H936 C950 0.931 . S
H937 C952 0.930 . S
C938 H926 0.930 . S
C938 C939 1.399 . S
C938 C943 1.399 . S
C939 C938 1.399 . S
C939 C940 1.376 1_545 S
C940 H927 0.930 . S
C940 C939 1.376 1_565 S
C940 C941 1.388 . S
C941 H928 0.930 . S
C941 C940 1.388 . S
C941 C942 1.390 1_565 S
C942 C941 1.390 1_545 S
C942 C943 1.394 . S
C942 C948 1.465 . S
C943 C938 1.399 . S
C943 C942 1.394 . S
C943 C944 1.516 . S
C944 C943 1.516 . S
C944 C945 1.502 . S
C944 C946 1.561 . S
C944 C947 1.526 . S
C945 H929 0.959 . S
C945 H930 0.959 . S
C945 H931 0.961 . S
C945 C944 1.502 . S
C946 H932 0.960 . S
C946 H933 0.961 . S
C946 H934 0.959 . S
C946 C944 1.561 . S
C947 C944 1.526 . S
C947 C948 1.396 . S
C947 C952 1.390 . S
C948 C942 1.465 . S
C948 C947 1.396 . S
C948 C949 1.399 1_545 S
C949 H935 0.929 . S
C949 C948 1.399 1_565 S
C949 C950 1.385 . S
C950 H936 0.931 . S
C950 C949 1.385 . S
C950 C951 1.389 1_565 S
C951 C950 1.389 1_545 S
C951 C952 1.387 . S
C952 H937 0.930 . S
C952 C947 1.390 . S
C952 C951 1.387 . S
H953 C965 0.930 . S
H954 C967 0.930 . S
H955 C968 0.930 . S
H956 C972 0.959 . S
H957 C972 0.959 . S
H958 C972 0.961 . S
H959 C973 0.960 . S
H960 C973 0.961 . S
H961 C973 0.959 . S
H962 C976 0.929 . S
H963 C977 0.931 . S
H964 C979 0.930 . S
C965 H953 0.930 . S
C965 C966 1.399 . S
C965 C970 1.399 . S
C966 C965 1.399 . S
C966 C967 1.376 . S
C967 H954 0.930 . S
C967 C966 1.376 . S
C967 C968 1.388 . S
C968 H955 0.930 . S
C968 C967 1.388 . S
C968 C969 1.390 . S
C969 C968 1.390 . S
C969 C970 1.394 . S
C969 C975 1.465 . S
C970 C965 1.399 . S
C970 C969 1.394 . S
C970 C971 1.516 . S
C971 C970 1.516 . S
C971 C972 1.502 . S
C971 C973 1.561 . S
C971 C974 1.526 . S
C972 H956 0.959 . S
C972 H957 0.959 . S
C972 H958 0.961 . S
C972 C971 1.502 . S
C973 H959 0.960 . S
C973 H960 0.961 . S
C973 H961 0.959 . S
C973 C971 1.561 . S
C974 C971 1.526 . S
C974 C975 1.396 . S
C974 C979 1.390 . S
C975 C969 1.465 . S
C975 C974 1.396 . S
C975 C976 1.399 . S
C976 H962 0.929 . S
C976 C975 1.399 . S
C976 C977 1.385 . S
C977 H963 0.931 . S
C977 C976 1.385 . S
C977 C978 1.389 . S
C978 C977 1.389 . S
C978 C979 1.387 . S
C979 H964 0.930 . S
C979 C974 1.390 . S
C979 C978 1.387 . S
H980 C992 0.930 . S
H981 C994 0.930 . S
H982 C995 0.930 1_565 S
H983 C999 0.959 1_455 S
H984 C999 0.959 . S
H985 C999 0.961 . S
H986 C1000 0.960 . S
H987 C1000 0.961 . S
H988 C1000 0.959 . S
H989 C1003 0.929 . S
H990 C1004 0.975 . S
H991 C1006 0.930 . S
C992 H980 0.930 . S
C992 C993 1.399 . S
C992 C997 1.399 . S
C993 C992 1.399 . S
C993 C994 1.376 . S
C994 H981 0.930 . S
C994 C993 1.376 . S
C994 C995 1.388 . S
C995 H982 0.930 1_545 S
C995 C994 1.388 . S
C995 C996 1.390 . S
C996 C995 1.390 . S
C996 C997 1.394 . S
C996 C1002 1.465 . S
C997 C992 1.399 . S
C997 C996 1.394 . S
C997 C998 1.516 . S
C998 C997 1.516 . S
C998 C999 1.502 . S
C998 C1000 1.561 . S
C998 C1001 1.526 . S
C999 H983 0.959 1_655 S
C999 H984 0.959 . S
C999 H985 0.961 . S
C999 C998 1.502 . S
C1000 H986 0.960 . S
C1000 H987 0.961 . S
C1000 H988 0.959 . S
C1000 C998 1.561 . S
C1001 C998 1.526 . S
C1001 C1002 1.396 . S
C1001 C1006 1.390 . S
C1002 C996 1.465 . S
C1002 C1001 1.396 . S
C1002 C1003 1.399 1_545 S
C1003 H989 0.929 . S
C1003 C1002 1.399 1_565 S
C1003 C1004 1.377 . S
C1004 H990 0.975 . S
C1004 C1003 1.377 . S
C1004 C1005 1.356 1_565 S
C1005 C1004 1.356 1_545 S
C1005 C1006 1.387 . S
C1006 H991 0.930 . S
C1006 C1001 1.390 . S
C1006 C1005 1.387 . S
H1007 C1019 0.930 . S
H1008 C1021 0.930 . S
H1009 C1022 0.930 . S
H1010 C1026 0.959 . S
H1011 C1026 0.959 . S
H1012 C1026 0.961 . S
H1013 C1027 0.960 . S
H1014 C1027 0.961 . S
H1015 C1027 0.959 . S
H1016 C1030 0.929 . S
H1017 C1031 0.931 . S
H1018 C1033 0.930 . S
C1019 H1007 0.930 . S
C1019 C1020 1.399 . S
C1019 C1024 1.399 . S
C1020 C1019 1.399 . S
C1020 C1021 1.376 . S
C1021 H1008 0.930 . S
C1021 C1020 1.376 . S
C1021 C1022 1.388 . S
C1022 H1009 0.930 . S
C1022 C1021 1.388 . S
C1022 C1023 1.390 . S
C1023 C1022 1.390 . S
C1023 C1024 1.394 . S
C1023 C1029 1.465 . S
C1024 C1019 1.399 . S
C1024 C1023 1.394 . S
C1024 C1025 1.516 . S
C1025 C1024 1.516 . S
C1025 C1026 1.502 . S
C1025 C1027 1.561 . S
C1025 C1028 1.526 . S
C1026 H1010 0.959 . S
C1026 H1011 0.959 . S
C1026 H1012 0.961 . S
C1026 C1025 1.502 . S
C1027 H1013 0.960 . S
C1027 H1014 0.961 . S
C1027 H1015 0.959 . S
C1027 C1025 1.561 . S
C1028 C1025 1.526 . S
C1028 C1029 1.396 . S
C1028 C1033 1.390 . S
C1029 C1023 1.465 . S
C1029 C1028 1.396 . S
C1029 C1030 1.399 . S
C1030 H1016 0.929 . S
C1030 C1029 1.399 . S
C1030 C1031 1.385 . S
C1031 H1017 0.931 . S
C1031 C1030 1.385 . S
C1031 C1032 1.389 . S
C1032 C1031 1.389 . S
C1032 C1033 1.387 . S
C1033 H1018 0.930 . S
C1033 C1028 1.390 . S
C1033 C1032 1.387 . S
H1034 C1046 0.930 1_565 S
H1035 C1048 0.930 . S
H1036 C1049 0.930 . S
H1037 C1053 0.959 1_545 S
H1038 C1053 0.959 . S
H1039 C1053 0.961 . S
H1040 C1054 0.960 . S
H1041 C1054 0.961 . S
H1042 C1054 0.966 . S
H1043 C1057 0.929 . S
H1044 C1058 0.931 . S
H1045 C1060 0.930 . S
C1046 H1034 0.930 1_545 S
C1046 C1047 1.399 . S
C1046 C1051 1.399 . S
C1047 C1046 1.399 . S
C1047 C1048 1.376 . S
C1048 H1035 0.930 . S
C1048 C1047 1.376 . S
C1048 C1049 1.388 . S
C1049 H1036 0.930 . S
C1049 C1048 1.388 . S
C1049 C1050 1.390 . S
C1050 C1049 1.390 . S
C1050 C1051 1.394 . S
C1050 C1056 1.465 . S
C1051 C1046 1.399 . S
C1051 C1050 1.394 . S
C1051 C1052 1.516 . S
C1052 C1051 1.516 . S
C1052 C1053 1.502 1_545 S
C1052 C1054 1.561 1_545 S
C1052 C1055 1.526 . S
C1053 H1037 0.959 1_565 S
C1053 H1038 0.959 . S
C1053 H1039 0.961 . S
C1053 C1052 1.502 1_565 S
C1054 H1040 0.960 . S
C1054 H1041 0.961 . S
C1054 H1042 0.966 . S
C1054 C1052 1.561 1_565 S
C1055 C1052 1.526 . S
C1055 C1056 1.396 . S
C1055 C1060 1.390 . S
C1056 C1050 1.465 . S
C1056 C1055 1.396 . S
C1056 C1057 1.399 . S
C1057 H1043 0.929 . S
C1057 C1056 1.399 . S
C1057 C1058 1.385 . S
C1058 H1044 0.931 . S
C1058 C1057 1.385 . S
C1058 C1059 1.389 . S
C1059 C1058 1.389 . S
C1059 C1060 1.387 . S
C1060 H1045 0.930 . S
C1060 C1055 1.390 . S
C1060 C1059 1.387 . S
H1061 C1073 0.930 . S
H1062 C1075 0.930 . S
H1063 C1076 0.930 . S
H1064 C1080 0.959 . S
H1065 C1080 0.959 . S
H1066 C1080 0.961 . S
H1067 C1081 0.960 . S
H1068 C1081 0.961 . S
H1069 C1081 0.959 . S
H1070 C1084 0.929 . S
H1071 C1085 0.931 . S
H1072 C1087 0.930 . S
C1073 H1061 0.930 . S
C1073 C1074 1.399 . S
C1073 C1078 1.399 . S
C1074 C1073 1.399 . S
C1074 C1075 1.376 . S
C1075 H1062 0.930 . S
C1075 C1074 1.376 . S
C1075 C1076 1.388 . S
C1076 H1063 0.930 . S
C1076 C1075 1.388 . S
C1076 C1077 1.390 . S
C1077 C1076 1.390 . S
C1077 C1078 1.394 . S
C1077 C1083 1.465 . S
C1078 C1073 1.399 . S
C1078 C1077 1.394 . S
C1078 C1079 1.516 . S
C1079 C1078 1.516 . S
C1079 C1080 1.502 . S
C1079 C1081 1.561 . S
C1079 C1082 1.526 . S
C1080 H1064 0.959 . S
C1080 H1065 0.959 . S
C1080 H1066 0.961 . S
C1080 C1079 1.502 . S
C1081 H1067 0.960 . S
C1081 H1068 0.961 . S
C1081 H1069 0.959 . S
C1081 C1079 1.561 . S
C1082 C1079 1.526 . S
C1082 C1083 1.396 . S
C1082 C1087 1.390 . S
C1083 C1077 1.465 . S
C1083 C1082 1.396 . S
C1083 C1084 1.399 . S
C1084 H1070 0.929 . S
C1084 C1083 1.399 . S
C1084 C1085 1.385 . S
C1085 H1071 0.931 . S
C1085 C1084 1.385 . S
C1085 C1086 1.389 . S
C1086 C1085 1.389 . S
C1086 C1087 1.387 . S
C1087 H1072 0.930 . S
C1087 C1082 1.390 . S
C1087 C1086 1.387 . S
H1088 C1100 0.930 . S
H1089 C1102 0.933 . S
H1090 C1103 0.930 . S
H1091 C1107 0.959 . S
H1092 C1107 0.959 . S
H1093 C1107 0.961 . S
H1094 C1108 0.960 . S
H1095 C1108 0.961 . S
H1096 C1108 0.959 1_545 S
H1097 C1111 0.929 1_556 S
H1098 C1112 0.960 . S
H1099 C1114 0.930 . S
C1100 H1088 0.930 . S
C1100 C1101 1.399 . S
C1100 C1105 1.399 . S
C1101 C1100 1.399 . S
C1101 C1102 1.374 1_554 S
C1102 H1089 0.933 . S
C1102 C1101 1.374 1_556 S
C1102 C1103 1.389 . S
C1103 H1090 0.930 . S
C1103 C1102 1.389 . S
C1103 C1104 1.390 1_556 S
C1104 C1103 1.390 1_554 S
C1104 C1105 1.394 . S
C1104 C1110 1.465 . S
C1105 C1100 1.399 . S
C1105 C1104 1.394 . S
C1105 C1106 1.516 . S
C1106 C1105 1.516 . S
C1106 C1107 1.502 . S
C1106 C1108 1.561 . S
C1106 C1109 1.526 . S
C1107 H1091 0.959 . S
C1107 H1092 0.959 . S
C1107 H1093 0.961 . S
C1107 C1106 1.502 . S
C1108 H1094 0.960 . S
C1108 H1095 0.961 . S
C1108 H1096 0.959 1_565 S
C1108 C1106 1.561 . S
C1109 C1106 1.526 . S
C1109 C1110 1.396 . S
C1109 C1114 1.390 . S
C1110 C1104 1.465 . S
C1110 C1109 1.396 . S
C1110 C1111 1.399 . S
C1111 H1097 0.929 1_554 S
C1111 C1110 1.399 . S
C1111 C1112 1.373 1_565 S
C1112 H1098 0.960 . S
C1112 C1111 1.373 1_545 S
C1112 C1113 1.386 1_545 S
C1113 C1112 1.386 1_565 S
C1113 C1114 1.401 . S
C1114 H1099 0.930 . S
C1114 C1109 1.390 . S
C1114 C1113 1.401 . S
H1115 C1127 0.930 . S
H1116 C1129 0.930 . S
H1117 C1130 0.930 . S
H1118 C1134 0.959 . S
H1119 C1134 0.959 . S
H1120 C1134 0.961 . S
H1121 C1135 0.960 . S
H1122 C1135 0.961 . S
H1123 C1135 0.959 . S
H1124 C1138 0.929 . S
H1125 C1139 0.931 . S
H1126 C1141 0.930 . S
C1127 H1115 0.930 . S
C1127 C1128 1.399 1_556 S
C1127 C1132 1.399 . S
C1128 C1127 1.399 1_554 S
C1128 C1129 1.376 . S
C1129 H1116 0.930 . S
C1129 C1128 1.376 . S
C1129 C1130 1.388 . S
C1130 H1117 0.930 . S
C1130 C1129 1.388 . S
C1130 C1131 1.390 . S
C1131 C1130 1.390 . S
C1131 C1132 1.394 1_554 S
C1131 C1137 1.465 . S
C1132 C1127 1.399 . S
C1132 C1131 1.394 1_556 S
C1132 C1133 1.516 . S
C1133 C1132 1.516 . S
C1133 C1134 1.502 . S
C1133 C1135 1.561 . S
C1133 C1136 1.526 . S
C1134 H1118 0.959 . S
C1134 H1119 0.959 . S
C1134 H1120 0.961 . S
C1134 C1133 1.502 . S
C1135 H1121 0.960 . S
C1135 H1122 0.961 . S
C1135 H1123 0.959 . S
C1135 C1133 1.561 . S
C1136 C1133 1.526 . S
C1136 C1137 1.396 1_556 S
C1136 C1141 1.390 . S
C1137 C1131 1.465 . S
C1137 C1136 1.396 1_554 S
C1137 C1138 1.399 . S
C1138 H1124 0.929 . S
C1138 C1137 1.399 . S
C1138 C1139 1.385 . S
C1139 H1125 0.931 . S
C1139 C1138 1.385 . S
C1139 C1140 1.389 . S
C1140 C1139 1.389 . S
C1140 C1141 1.387 1_554 S
C1141 H1126 0.930 . S
C1141 C1136 1.390 . S
C1141 C1140 1.387 1_556 S
H1142 C1154 0.930 . S
H1143 C1156 0.930 . S
H1144 C1157 0.930 . S
H1145 C1161 0.959 . S
H1146 C1161 0.959 . S
H1147 C1161 0.961 . S
H1148 C1162 0.960 . S
H1149 C1162 0.961 . S
H1150 C1162 0.959 . S
H1151 C1165 0.929 . S
H1152 C1166 0.931 . S
H1153 C1168 0.930 . S
C1154 H1142 0.930 . S
C1154 C1155 1.399 . S
C1154 C1159 1.399 . S
C1155 C1154 1.399 . S
C1155 C1156 1.376 . S
C1156 H1143 0.930 . S
C1156 C1155 1.376 . S
C1156 C1157 1.388 . S
C1157 H1144 0.930 . S
C1157 C1156 1.388 . S
C1157 C1158 1.390 . S
C1158 C1157 1.390 . S
C1158 C1159 1.394 . S
C1158 C1164 1.465 . S
C1159 C1154 1.399 . S
C1159 C1158 1.394 . S
C1159 C1160 1.516 . S
C1160 C1159 1.516 . S
C1160 C1161 1.502 . S
C1160 C1162 1.561 . S
C1160 C1163 1.526 . S
C1161 H1145 0.959 . S
C1161 H1146 0.959 . S
C1161 H1147 0.961 . S
C1161 C1160 1.502 . S
C1162 H1148 0.960 . S
C1162 H1149 0.961 . S
C1162 H1150 0.959 . S
C1162 C1160 1.561 . S
C1163 C1160 1.526 . S
C1163 C1164 1.396 . S
C1163 C1168 1.390 . S
C1164 C1158 1.465 . S
C1164 C1163 1.396 . S
C1164 C1165 1.399 . S
C1165 H1151 0.929 . S
C1165 C1164 1.399 . S
C1165 C1166 1.385 . S
C1166 H1152 0.931 . S
C1166 C1165 1.385 . S
C1166 C1167 1.389 . S
C1167 C1166 1.389 . S
C1167 C1168 1.387 . S
C1168 H1153 0.930 . S
C1168 C1163 1.390 . S
C1168 C1167 1.387 . S
H1169 C1181 0.930 . S
H1170 C1183 0.930 . S
H1171 C1184 0.930 . S
H1172 C1188 0.959 . S
H1173 C1188 0.959 . S
H1174 C1188 0.961 . S
H1175 C1189 0.960 . S
H1176 C1189 0.961 . S
H1177 C1189 0.959 . S
H1178 C1192 0.929 . S
H1179 C1193 0.931 . S
H1180 C1195 0.930 . S
C1181 H1169 0.930 . S
C1181 C1182 1.399 . S
C1181 C1186 1.399 . S
C1182 C1181 1.399 . S
C1182 C1183 1.376 . S
C1183 H1170 0.930 . S
C1183 C1182 1.376 . S
C1183 C1184 1.388 . S
C1184 H1171 0.930 . S
C1184 C1183 1.388 . S
C1184 C1185 1.390 . S
C1185 C1184 1.390 . S
C1185 C1186 1.394 . S
C1185 C1191 1.465 . S
C1186 C1181 1.399 . S
C1186 C1185 1.394 . S
C1186 C1187 1.516 . S
C1187 C1186 1.516 . S
C1187 C1188 1.502 . S
C1187 C1189 1.561 . S
C1187 C1190 1.526 . S
C1188 H1172 0.959 . S
C1188 H1173 0.959 . S
C1188 H1174 0.961 . S
C1188 C1187 1.502 . S
C1189 H1175 0.960 . S
C1189 H1176 0.961 . S
C1189 H1177 0.959 . S
C1189 C1187 1.561 . S
C1190 C1187 1.526 . S
C1190 C1191 1.396 . S
C1190 C1195 1.390 . S
C1191 C1185 1.465 . S
C1191 C1190 1.396 . S
C1191 C1192 1.399 . S
C1192 H1178 0.929 . S
C1192 C1191 1.399 . S
C1192 C1193 1.385 . S
C1193 H1179 0.931 . S
C1193 C1192 1.385 . S
C1193 C1194 1.389 . S
C1194 C1193 1.389 . S
C1194 C1195 1.387 . S
C1195 H1180 0.930 . S
C1195 C1190 1.390 . S
C1195 C1194 1.387 . S
H1196 C1208 0.930 . S
H1197 C1210 0.930 . S
H1198 C1211 0.930 . S
H1199 C1215 0.959 . S
H1200 C1215 0.959 . S
H1201 C1215 0.961 . S
H1202 C1216 0.960 . S
H1203 C1216 0.961 . S
H1204 C1216 0.959 . S
H1205 C1219 0.929 . S
H1206 C1220 0.931 . S
H1207 C1222 0.930 . S
C1208 H1196 0.930 . S
C1208 C1209 1.399 . S
C1208 C1213 1.399 . S
C1209 C1208 1.399 . S
C1209 C1210 1.376 . S
C1210 H1197 0.930 . S
C1210 C1209 1.376 . S
C1210 C1211 1.388 . S
C1211 H1198 0.930 . S
C1211 C1210 1.388 . S
C1211 C1212 1.390 . S
C1212 C1211 1.390 . S
C1212 C1213 1.394 . S
C1212 C1218 1.465 . S
C1213 C1208 1.399 . S
C1213 C1212 1.394 . S
C1213 C1214 1.516 . S
C1214 C1213 1.516 . S
C1214 C1215 1.502 . S
C1214 C1216 1.561 . S
C1214 C1217 1.526 . S
C1215 H1199 0.959 . S
C1215 H1200 0.959 . S
C1215 H1201 0.961 . S
C1215 C1214 1.502 . S
C1216 H1202 0.960 . S
C1216 H1203 0.961 . S
C1216 H1204 0.959 . S
C1216 C1214 1.561 . S
C1217 C1214 1.526 . S
C1217 C1218 1.396 . S
C1217 C1222 1.390 . S
C1218 C1212 1.465 . S
C1218 C1217 1.396 . S
C1218 C1219 1.399 . S
C1219 H1205 0.929 . S
C1219 C1218 1.399 . S
C1219 C1220 1.385 . S
C1220 H1206 0.931 . S
C1220 C1219 1.385 . S
C1220 C1221 1.389 . S
C1221 C1220 1.389 . S
C1221 C1222 1.387 . S
C1222 H1207 0.930 . S
C1222 C1217 1.390 . S
C1222 C1221 1.387 . S
H1223 C1235 0.930 . S
H1224 C1237 0.930 . S
H1225 C1238 0.930 . S
H1226 C1242 0.959 . S
H1227 C1242 0.959 . S
H1228 C1242 0.961 . S
H1229 C1243 0.960 . S
H1230 C1243 0.961 . S
H1231 C1243 0.959 . S
H1232 C1246 0.929 . S
H1233 C1247 0.931 . S
H1234 C1249 0.930 . S
C1235 H1223 0.930 . S
C1235 C1236 1.399 . S
C1235 C1240 1.399 . S
C1236 C1235 1.399 . S
C1236 C1237 1.376 . S
C1237 H1224 0.930 . S
C1237 C1236 1.376 . S
C1237 C1238 1.388 . S
C1238 H1225 0.930 . S
C1238 C1237 1.388 . S
C1238 C1239 1.390 . S
C1239 C1238 1.390 . S
C1239 C1240 1.394 . S
C1239 C1245 1.465 . S
C1240 C1235 1.399 . S
C1240 C1239 1.394 . S
C1240 C1241 1.516 . S
C1241 C1240 1.516 . S
C1241 C1242 1.502 . S
C1241 C1243 1.561 . S
C1241 C1244 1.526 . S
C1242 H1226 0.959 . S
C1242 H1227 0.959 . S
C1242 H1228 0.961 . S
C1242 C1241 1.502 . S
C1243 H1229 0.960 . S
C1243 H1230 0.961 . S
C1243 H1231 0.959 . S
C1243 C1241 1.561 . S
C1244 C1241 1.526 . S
C1244 C1245 1.396 . S
C1244 C1249 1.390 . S
C1245 C1239 1.465 . S
C1245 C1244 1.396 . S
C1245 C1246 1.399 . S
C1246 H1232 0.929 . S
C1246 C1245 1.399 . S
C1246 C1247 1.385 . S
C1247 H1233 0.931 . S
C1247 C1246 1.385 . S
C1247 C1248 1.389 . S
C1248 C1247 1.389 . S
C1248 C1249 1.387 . S
C1249 H1234 0.930 . S
C1249 C1244 1.390 . S
C1249 C1248 1.387 . S
H1250 C1262 0.930 . S
H1251 C1264 0.930 . S
H1252 C1265 0.930 . S
H1253 C1269 0.959 . S
H1254 C1269 0.959 . S
H1255 C1269 0.961 . S
H1256 C1270 0.960 . S
H1257 C1270 0.961 . S
H1258 C1270 0.959 . S
H1259 C1273 0.929 . S
H1260 C1274 0.931 . S
H1261 C1276 0.930 . S
C1262 H1250 0.930 . S
C1262 C1263 1.399 . S
C1262 C1267 1.399 . S
C1263 C1262 1.399 . S
C1263 C1264 1.376 . S
C1264 H1251 0.930 . S
C1264 C1263 1.376 . S
C1264 C1265 1.388 . S
C1265 H1252 0.930 . S
C1265 C1264 1.388 . S
C1265 C1266 1.390 . S
C1266 C1265 1.390 . S
C1266 C1267 1.394 . S
C1266 C1272 1.465 . S
C1267 C1262 1.399 . S
C1267 C1266 1.394 . S
C1267 C1268 1.516 . S
C1268 C1267 1.516 . S
C1268 C1269 1.502 . S
C1268 C1270 1.561 . S
C1268 C1271 1.526 . S
C1269 H1253 0.959 . S
C1269 H1254 0.959 . S
C1269 H1255 0.961 . S
C1269 C1268 1.502 . S
C1270 H1256 0.960 . S
C1270 H1257 0.961 . S
C1270 H1258 0.959 . S
C1270 C1268 1.561 . S
C1271 C1268 1.526 . S
C1271 C1272 1.396 . S
C1271 C1276 1.390 . S
C1272 C1266 1.465 . S
C1272 C1271 1.396 . S
C1272 C1273 1.399 . S
C1273 H1259 0.929 . S
C1273 C1272 1.399 . S
C1273 C1274 1.385 . S
C1274 H1260 0.931 . S
C1274 C1273 1.385 . S
C1274 C1275 1.389 . S
C1275 C1274 1.389 . S
C1275 C1276 1.387 . S
C1276 H1261 0.930 . S
C1276 C1271 1.390 . S
C1276 C1275 1.387 . S
H1277 C1289 0.930 . S
H1278 C1291 0.930 . S
H1279 C1292 0.930 . S
H1280 C1296 0.959 . S
H1281 C1296 0.959 . S
H1282 C1296 0.961 . S
H1283 C1297 0.960 . S
H1284 C1297 0.961 . S
H1285 C1297 0.959 . S
H1286 C1300 0.929 . S
H1287 C1301 0.931 . S
H1288 C1303 0.930 . S
C1289 H1277 0.930 . S
C1289 C1290 1.399 . S
C1289 C1294 1.399 . S
C1290 C1289 1.399 . S
C1290 C1291 1.376 . S
C1291 H1278 0.930 . S
C1291 C1290 1.376 . S
C1291 C1292 1.388 . S
C1292 H1279 0.930 . S
C1292 C1291 1.388 . S
C1292 C1293 1.390 . S
C1293 C1292 1.390 . S
C1293 C1294 1.394 . S
C1293 C1299 1.465 . S
C1294 C1289 1.399 . S
C1294 C1293 1.394 . S
C1294 C1295 1.516 . S
C1295 C1294 1.516 . S
C1295 C1296 1.502 . S
C1295 C1297 1.561 . S
C1295 C1298 1.526 . S
C1296 H1280 0.959 . S
C1296 H1281 0.959 . S
C1296 H1282 0.961 . S
C1296 C1295 1.502 . S
C1297 H1283 0.960 . S
C1297 H1284 0.961 . S
C1297 H1285 0.959 . S
C1297 C1295 1.561 . S
C1298 C1295 1.526 . S
C1298 C1299 1.396 . S
C1298 C1303 1.390 . S
C1299 C1293 1.465 . S
C1299 C1298 1.396 . S
C1299 C1300 1.399 . S
C1300 H1286 0.929 . S
C1300 C1299 1.399 . S
C1300 C1301 1.385 . S
C1301 H1287 0.931 . S
C1301 C1300 1.385 . S
C1301 C1302 1.389 . S
C1302 C1301 1.389 . S
C1302 C1303 1.387 . S
C1303 H1288 0.930 . S
C1303 C1298 1.390 . S
C1303 C1302 1.387 . S
H1304 C1316 0.930 . S
H1305 C1318 0.930 . S
H1306 C1319 0.930 . S
H1307 C1323 0.959 . S
H1308 C1323 0.959 . S
H1309 C1323 0.961 . S
H1310 C1324 0.960 . S
H1311 C1324 0.961 . S
H1312 C1324 0.959 . S
H1313 C1327 0.929 . S
H1314 C1328 0.931 1_556 S
H1315 C1330 0.930 . S
C1316 H1304 0.930 . S
C1316 C1317 1.399 . S
C1316 C1321 1.399 . S
C1317 C1316 1.399 . S
C1317 C1318 1.376 . S
C1318 H1305 0.930 . S
C1318 C1317 1.376 . S
C1318 C1319 1.388 . S
C1319 H1306 0.930 . S
C1319 C1318 1.388 . S
C1319 C1320 1.390 . S
C1320 C1319 1.390 . S
C1320 C1321 1.394 . S
C1320 C1326 1.465 . S
C1321 C1316 1.399 . S
C1321 C1320 1.394 . S
C1321 C1322 1.516 . S
C1322 C1321 1.516 . S
C1322 C1323 1.502 1_455 S
C1322 C1324 1.561 . S
C1322 C1325 1.526 . S
C1323 H1307 0.959 . S
C1323 H1308 0.959 . S
C1323 H1309 0.961 . S
C1323 C1322 1.502 1_655 S
C1324 H1310 0.960 . S
C1324 H1311 0.961 . S
C1324 H1312 0.959 . S
C1324 C1322 1.561 . S
C1325 C1322 1.526 . S
C1325 C1326 1.396 . S
C1325 C1330 1.390 . S
C1326 C1320 1.465 . S
C1326 C1325 1.396 . S
C1326 C1327 1.399 . S
C1327 H1313 0.929 . S
C1327 C1326 1.399 . S
C1327 C1328 1.385 . S
C1328 H1314 0.931 1_554 S
C1328 C1327 1.385 . S
C1328 C1329 1.389 . S
C1329 C1328 1.389 . S
C1329 C1330 1.387 . S
C1330 H1315 0.930 . S
C1330 C1325 1.390 . S
C1330 C1329 1.387 . S
H1331 C1343 0.930 . S
H1332 C1345 0.930 . S
H1333 C1346 0.930 . S
H1334 C1350 0.959 . S
H1335 C1350 0.959 . S
H1336 C1350 0.961 . S
H1337 C1351 0.960 . S
H1338 C1351 0.961 . S
H1339 C1351 0.959 . S
H1340 C1354 0.929 . S
H1341 C1355 0.931 . S
H1342 C1357 0.930 . S
C1343 H1331 0.930 . S
C1343 C1344 1.399 . S
C1343 C1348 1.399 . S
C1344 C1343 1.399 . S
C1344 C1345 1.376 . S
C1345 H1332 0.930 . S
C1345 C1344 1.376 . S
C1345 C1346 1.388 . S
C1346 H1333 0.930 . S
C1346 C1345 1.388 . S
C1346 C1347 1.390 . S
C1347 C1346 1.390 . S
C1347 C1348 1.394 . S
C1347 C1353 1.465 . S
C1348 C1343 1.399 . S
C1348 C1347 1.394 . S
C1348 C1349 1.516 . S
C1349 C1348 1.516 . S
C1349 C1350 1.502 . S
C1349 C1351 1.561 . S
C1349 C1352 1.526 . S
C1350 H1334 0.959 . S
C1350 H1335 0.959 . S
C1350 H1336 0.961 . S
C1350 C1349 1.502 . S
C1351 H1337 0.960 . S
C1351 H1338 0.961 . S
C1351 H1339 0.959 . S
C1351 C1349 1.561 . S
C1352 C1349 1.526 . S
C1352 C1353 1.396 . S
C1352 C1357 1.390 . S
C1353 C1347 1.465 . S
C1353 C1352 1.396 . S
C1353 C1354 1.399 . S
C1354 H1340 0.929 . S
C1354 C1353 1.399 . S
C1354 C1355 1.385 . S
C1355 H1341 0.931 . S
C1355 C1354 1.385 . S
C1355 C1356 1.389 . S
C1356 C1355 1.389 . S
C1356 C1357 1.387 . S
C1357 H1342 0.930 . S
C1357 C1352 1.390 . S
C1357 C1356 1.387 . S
H1358 C1370 0.930 . S
H1359 C1372 0.930 . S
H1360 C1373 0.930 . S
H1361 C1377 0.959 . S
H1362 C1377 0.959 . S
H1363 C1377 0.961 . S
H1364 C1378 0.960 . S
H1365 C1378 0.961 . S
H1366 C1378 0.959 . S
H1367 C1381 0.929 . S
H1368 C1382 0.931 . S
H1369 C1384 0.930 . S
C1370 H1358 0.930 . S
C1370 C1371 1.399 . S
C1370 C1375 1.399 . S
C1371 C1370 1.399 . S
C1371 C1372 1.376 . S
C1372 H1359 0.930 . S
C1372 C1371 1.376 . S
C1372 C1373 1.388 . S
C1373 H1360 0.930 . S
C1373 C1372 1.388 . S
C1373 C1374 1.390 . S
C1374 C1373 1.390 . S
C1374 C1375 1.394 . S
C1374 C1380 1.465 . S
C1375 C1370 1.399 . S
C1375 C1374 1.394 . S
C1375 C1376 1.516 . S
C1376 C1375 1.516 . S
C1376 C1377 1.502 . S
C1376 C1378 1.561 . S
C1376 C1379 1.526 . S
C1377 H1361 0.959 . S
C1377 H1362 0.959 . S
C1377 H1363 0.961 . S
C1377 C1376 1.502 . S
C1378 H1364 0.960 . S
C1378 H1365 0.961 . S
C1378 H1366 0.959 . S
C1378 C1376 1.561 . S
C1379 C1376 1.526 . S
C1379 C1380 1.396 . S
C1379 C1384 1.390 . S
C1380 C1374 1.465 . S
C1380 C1379 1.396 . S
C1380 C1381 1.399 . S
C1381 H1367 0.929 . S
C1381 C1380 1.399 . S
C1381 C1382 1.385 . S
C1382 H1368 0.931 . S
C1382 C1381 1.385 . S
C1382 C1383 1.389 . S
C1383 C1382 1.389 . S
C1383 C1384 1.387 . S
C1384 H1369 0.930 . S
C1384 C1379 1.390 . S
C1384 C1383 1.387 . S
H1385 C1397 0.930 . S
H1386 C1399 0.930 . S
H1387 C1400 0.930 . S
H1388 C1404 0.959 . S
H1389 C1404 0.959 . S
H1390 C1404 0.961 . S
H1391 C1405 0.960 . S
H1392 C1405 0.961 . S
H1393 C1405 0.959 . S
H1394 C1408 0.929 . S
H1395 C1409 0.931 . S
H1396 C1411 0.930 . S
C1397 H1385 0.930 . S
C1397 C1398 1.399 . S
C1397 C1402 1.399 . S
C1398 C1397 1.399 . S
C1398 C1399 1.376 . S
C1399 H1386 0.930 . S
C1399 C1398 1.376 . S
C1399 C1400 1.388 . S
C1400 H1387 0.930 . S
C1400 C1399 1.388 . S
C1400 C1401 1.390 . S
C1401 C1400 1.390 . S
C1401 C1402 1.394 . S
C1401 C1407 1.465 . S
C1402 C1397 1.399 . S
C1402 C1401 1.394 . S
C1402 C1403 1.516 . S
C1403 C1402 1.516 . S
C1403 C1404 1.502 . S
C1403 C1405 1.561 . S
C1403 C1406 1.526 . S
C1404 H1388 0.959 . S
C1404 H1389 0.959 . S
C1404 H1390 0.961 . S
C1404 C1403 1.502 . S
C1405 H1391 0.960 . S
C1405 H1392 0.961 . S
C1405 H1393 0.959 . S
C1405 C1403 1.561 . S
C1406 C1403 1.526 . S
C1406 C1407 1.396 . S
C1406 C1411 1.390 . S
C1407 C1401 1.465 . S
C1407 C1406 1.396 . S
C1407 C1408 1.399 . S
C1408 H1394 0.929 . S
C1408 C1407 1.399 . S
C1408 C1409 1.385 . S
C1409 H1395 0.931 . S
C1409 C1408 1.385 . S
C1409 C1410 1.389 . S
C1410 C1409 1.389 . S
C1410 C1411 1.387 . S
C1411 H1396 0.930 . S
C1411 C1406 1.390 . S
C1411 C1410 1.387 . S
H1412 C1424 0.918 1_655 S
H1413 C1426 0.930 . S
H1414 C1427 0.930 . S
H1415 C1431 0.959 . S
H1416 C1431 0.959 . S
H1417 C1431 0.961 . S
H1418 C1432 0.960 . S
H1419 C1432 0.961 . S
H1420 C1432 0.959 . S
H1421 C1435 0.929 . S
H1422 C1436 0.931 . S
H1423 C1438 0.930 . S
C1424 H1412 0.918 1_455 S
C1424 C1425 1.399 . S
C1424 C1429 1.399 . S
C1425 C1424 1.399 . S
C1425 C1426 1.376 . S
C1426 H1413 0.930 . S
C1426 C1425 1.376 . S
C1426 C1427 1.388 . S
C1427 H1414 0.930 . S
C1427 C1426 1.388 . S
C1427 C1428 1.390 . S
C1428 C1427 1.390 . S
C1428 C1429 1.394 . S
C1428 C1434 1.465 . S
C1429 C1424 1.399 . S
C1429 C1428 1.394 . S
C1429 C1430 1.515 1_455 S
C1430 C1429 1.515 1_655 S
C1430 C1431 1.535 . S
C1430 C1432 1.533 1_655 S
C1430 C1433 1.519 1_655 S
C1431 H1415 0.959 . S
C1431 H1416 0.959 . S
C1431 H1417 0.961 . S
C1431 C1430 1.535 . S
C1432 H1418 0.960 . S
C1432 H1419 0.961 . S
C1432 H1420 0.959 . S
C1432 C1430 1.533 1_455 S
C1433 C1430 1.519 1_455 S
C1433 C1434 1.396 . S
C1433 C1438 1.390 1_455 S
C1434 C1428 1.465 . S
C1434 C1433 1.396 . S
C1434 C1435 1.399 . S
C1435 H1421 0.929 . S
C1435 C1434 1.399 . S
C1435 C1436 1.385 . S
C1436 H1422 0.931 . S
C1436 C1435 1.385 . S
C1436 C1437 1.389 . S
C1437 C1436 1.389 . S
C1437 C1438 1.387 1_455 S
C1438 H1423 0.930 . S
C1438 C1433 1.390 1_655 S
C1438 C1437 1.387 1_655 S
H1439 C1451 0.930 . S
H1440 C1453 0.930 . S
H1441 C1454 0.930 . S
H1442 C1458 0.959 . S
H1443 C1458 0.959 . S
H1444 C1458 0.961 . S
H1445 C1459 0.960 . S
H1446 C1459 0.961 . S
H1447 C1459 0.959 . S
H1448 C1462 0.929 . S
H1449 C1463 0.931 . S
H1450 C1465 0.930 . S
C1451 H1439 0.930 . S
C1451 C1452 1.399 . S
C1451 C1456 1.399 . S
C1452 C1451 1.399 . S
C1452 C1453 1.376 . S
C1453 H1440 0.930 . S
C1453 C1452 1.376 . S
C1453 C1454 1.388 . S
C1454 H1441 0.930 . S
C1454 C1453 1.388 . S
C1454 C1455 1.390 . S
C1455 C1454 1.390 . S
C1455 C1456 1.394 . S
C1455 C1461 1.465 . S
C1456 C1451 1.399 . S
C1456 C1455 1.394 . S
C1456 C1457 1.516 . S
C1457 C1456 1.516 . S
C1457 C1458 1.502 . S
C1457 C1459 1.561 . S
C1457 C1460 1.526 . S
C1458 H1442 0.959 . S
C1458 H1443 0.959 . S
C1458 H1444 0.961 . S
C1458 C1457 1.502 . S
C1459 H1445 0.960 . S
C1459 H1446 0.961 . S
C1459 H1447 0.959 . S
C1459 C1457 1.561 . S
C1460 C1457 1.526 . S
C1460 C1461 1.396 . S
C1460 C1465 1.390 . S
C1461 C1455 1.465 . S
C1461 C1460 1.396 . S
C1461 C1462 1.399 . S
C1462 H1448 0.929 . S
C1462 C1461 1.399 . S
C1462 C1463 1.385 . S
C1463 H1449 0.931 . S
C1463 C1462 1.385 . S
C1463 C1464 1.389 . S
C1464 C1463 1.389 . S
C1464 C1465 1.387 . S
C1465 H1450 0.930 . S
C1465 C1460 1.390 . S
C1465 C1464 1.387 . S
H1466 C1478 0.930 . S
H1467 C1480 0.930 . S
H1468 C1481 0.930 . S
H1469 C1485 0.959 . S
H1470 C1485 0.959 . S
H1471 C1485 0.961 . S
H1472 C1486 0.960 . S
H1473 C1486 0.961 . S
H1474 C1486 0.959 . S
H1475 C1489 0.929 1_554 S
H1476 C1490 0.895 1_554 S
H1477 C1492 0.930 . S
C1478 H1466 0.930 . S
C1478 C1479 1.399 . S
C1478 C1483 1.399 . S
C1479 C1478 1.399 . S
C1479 C1480 1.376 . S
C1480 H1467 0.930 . S
C1480 C1479 1.376 . S
C1480 C1481 1.388 . S
C1481 H1468 0.930 . S
C1481 C1480 1.388 . S
C1481 C1482 1.390 . S
C1482 C1481 1.390 . S
C1482 C1483 1.394 . S
C1482 C1488 1.465 . S
C1483 C1478 1.399 . S
C1483 C1482 1.394 . S
C1483 C1484 1.516 . S
C1484 C1483 1.516 . S
C1484 C1485 1.502 . S
C1484 C1486 1.561 . S
C1484 C1487 1.526 . S
C1485 H1469 0.959 . S
C1485 H1470 0.959 . S
C1485 H1471 0.961 . S
C1485 C1484 1.502 . S
C1486 H1472 0.960 . S
C1486 H1473 0.961 . S
C1486 H1474 0.959 . S
C1486 C1484 1.561 . S
C1487 C1484 1.526 . S
C1487 C1488 1.396 . S
C1487 C1492 1.390 . S
C1488 C1482 1.465 . S
C1488 C1487 1.396 . S
C1488 C1489 1.399 . S
C1489 H1475 0.929 1_556 S
C1489 C1488 1.399 . S
C1489 C1490 1.394 . S
C1490 H1476 0.895 1_556 S
C1490 C1489 1.394 . S
C1490 C1491 1.417 . S
C1491 C1490 1.417 . S
C1491 C1492 1.387 . S
C1492 H1477 0.930 . S
C1492 C1487 1.390 . S
C1492 C1491 1.387 . S
H1493 C1505 0.930 . S
H1494 C1507 0.930 . S
H1495 C1508 0.930 . S
H1496 C1512 0.959 . S
H1497 C1512 0.959 . S
H1498 C1512 0.961 . S
H1499 C1513 0.960 . S
H1500 C1513 0.961 . S
H1501 C1513 0.959 . S
H1502 C1516 0.929 . S
H1503 C1517 0.931 . S
H1504 C1519 0.930 . S
C1505 H1493 0.930 . S
C1505 C1506 1.399 . S
C1505 C1510 1.399 . S
C1506 C1505 1.399 . S
C1506 C1507 1.376 . S
C1507 H1494 0.930 . S
C1507 C1506 1.376 . S
C1507 C1508 1.388 . S
C1508 H1495 0.930 . S
C1508 C1507 1.388 . S
C1508 C1509 1.390 . S
C1509 C1508 1.390 . S
C1509 C1510 1.394 . S
C1509 C1515 1.465 . S
C1510 C1505 1.399 . S
C1510 C1509 1.394 . S
C1510 C1511 1.516 . S
C1511 C1510 1.516 . S
C1511 C1512 1.502 . S
C1511 C1513 1.561 . S
C1511 C1514 1.526 . S
C1512 H1496 0.959 . S
C1512 H1497 0.959 . S
C1512 H1498 0.961 . S
C1512 C1511 1.502 . S
C1513 H1499 0.960 . S
C1513 H1500 0.961 . S
C1513 H1501 0.959 . S
C1513 C1511 1.561 . S
C1514 C1511 1.526 . S
C1514 C1515 1.396 . S
C1514 C1519 1.390 . S
C1515 C1509 1.465 . S
C1515 C1514 1.396 . S
C1515 C1516 1.399 . S
C1516 H1502 0.929 . S
C1516 C1515 1.399 . S
C1516 C1517 1.385 . S
C1517 H1503 0.931 . S
C1517 C1516 1.385 . S
C1517 C1518 1.389 . S
C1518 C1517 1.389 . S
C1518 C1519 1.387 . S
C1519 H1504 0.930 . S
C1519 C1514 1.390 . S
C1519 C1518 1.387 . S
H1520 C1532 0.930 . S
H1521 C1534 0.930 . S
H1522 C1535 0.930 . S
H1523 C1539 0.959 . S
H1524 C1539 0.959 . S
H1525 C1539 0.961 . S
H1526 C1540 0.960 . S
H1527 C1540 0.961 . S
H1528 C1540 0.959 . S
H1529 C1543 0.929 . S
H1530 C1544 0.931 . S
H1531 C1546 0.930 . S
C1532 H1520 0.930 . S
C1532 C1533 1.399 . S
C1532 C1537 1.399 . S
C1533 C1532 1.399 . S
C1533 C1534 1.376 1_545 S
C1534 H1521 0.930 . S
C1534 C1533 1.376 1_565 S
C1534 C1535 1.388 . S
C1535 H1522 0.930 . S
C1535 C1534 1.388 . S
C1535 C1536 1.390 . S
C1536 C1535 1.390 . S
C1536 C1537 1.394 1_565 S
C1536 C1542 1.465 . S
C1537 C1532 1.399 . S
C1537 C1536 1.394 1_545 S
C1537 C1538 1.516 . S
C1538 C1537 1.516 . S
C1538 C1539 1.502 . S
C1538 C1540 1.561 . S
C1538 C1541 1.526 . S
C1539 H1523 0.959 . S
C1539 H1524 0.959 . S
C1539 H1525 0.961 . S
C1539 C1538 1.502 . S
C1540 H1526 0.960 . S
C1540 H1527 0.961 . S
C1540 H1528 0.959 . S
C1540 C1538 1.561 . S
C1541 C1538 1.526 . S
C1541 C1542 1.396 1_545 S
C1541 C1546 1.390 . S
C1542 C1536 1.465 . S
C1542 C1541 1.396 1_565 S
C1542 C1543 1.399 . S
C1543 H1529 0.929 . S
C1543 C1542 1.399 . S
C1543 C1544 1.385 . S
C1544 H1530 0.931 . S
C1544 C1543 1.385 . S
C1544 C1545 1.389 1_565 S
C1545 C1544 1.389 1_545 S
C1545 C1546 1.387 . S
C1546 H1531 0.930 . S
C1546 C1541 1.390 . S
C1546 C1545 1.387 . S
H1547 C1559 0.930 . S
H1548 C1561 0.930 . S
H1549 C1562 0.930 . S
H1550 C1566 0.959 . S
H1551 C1566 0.959 . S
H1552 C1566 0.961 . S
H1553 C1567 0.960 . S
H1554 C1567 0.961 . S
H1555 C1567 0.959 . S
H1556 C1570 0.929 . S
H1557 C1571 0.931 . S
H1558 C1573 0.930 . S
C1559 H1547 0.930 . S
C1559 C1560 1.399 . S
C1559 C1564 1.399 . S
C1560 C1559 1.399 . S
C1560 C1561 1.376 . S
C1561 H1548 0.930 . S
C1561 C1560 1.376 . S
C1561 C1562 1.388 . S
C1562 H1549 0.930 . S
C1562 C1561 1.388 . S
C1562 C1563 1.390 . S
C1563 C1562 1.390 . S
C1563 C1564 1.394 . S
C1563 C1569 1.465 . S
C1564 C1559 1.399 . S
C1564 C1563 1.394 . S
C1564 C1565 1.516 . S
C1565 C1564 1.516 . S
C1565 C1566 1.502 . S
C1565 C1567 1.561 . S
C1565 C1568 1.526 . S
C1566 H1550 0.959 . S
C1566 H1551 0.959 . S
C1566 H1552 0.961 . S
C1566 C1565 1.502 . S
C1567 H1553 0.960 . S
C1567 H1554 0.961 . S
C1567 H1555 0.959 . S
C1567 C1565 1.561 . S
C1568 C1565 1.526 . S
C1568 C1569 1.396 . S
C1568 C1573 1.390 . S
C1569 C1563 1.465 . S
C1569 C1568 1.396 . S
C1569 C1570 1.399 . S
C1570 H1556 0.929 . S
C1570 C1569 1.399 . S
C1570 C1571 1.385 . S
C1571 H1557 0.931 . S
C1571 C1570 1.385 . S
C1571 C1572 1.389 . S
C1572 C1571 1.389 . S
C1572 C1573 1.387 . S
C1573 H1558 0.930 . S
C1573 C1568 1.390 . S
C1573 C1572 1.387 . S
H1574 C1586 0.930 . S
H1575 C1588 0.930 . S
H1576 C1589 0.930 . S
H1577 C1593 0.959 . S
H1578 C1593 0.959 . S
H1579 C1593 0.961 . S
H1580 C1594 0.960 . S
H1581 C1594 0.961 . S
H1582 C1594 0.959 . S
H1583 C1597 0.929 . S
H1584 C1598 0.930 . S
H1585 C1600 0.930 . S
C1586 H1574 0.930 . S
C1586 C1587 1.399 . S
C1586 C1591 1.399 . S
C1587 C1586 1.399 . S
C1587 C1588 1.376 1_545 S
C1588 H1575 0.930 . S
C1588 C1587 1.376 1_565 S
C1588 C1589 1.388 . S
C1589 H1576 0.930 . S
C1589 C1588 1.388 . S
C1589 C1590 1.390 1_565 S
C1590 C1589 1.390 1_545 S
C1590 C1591 1.394 . S
C1590 C1596 1.465 . S
C1591 C1586 1.399 . S
C1591 C1590 1.394 . S
C1591 C1592 1.516 . S
C1592 C1591 1.516 . S
C1592 C1593 1.502 . S
C1592 C1594 1.561 . S
C1592 C1595 1.526 . S
C1593 H1577 0.959 . S
C1593 H1578 0.959 . S
C1593 H1579 0.961 . S
C1593 C1592 1.502 . S
C1594 H1580 0.960 . S
C1594 H1581 0.961 . S
C1594 H1582 0.959 . S
C1594 C1592 1.561 . S
C1595 C1592 1.526 . S
C1595 C1596 1.396 . S
C1595 C1600 1.390 . S
C1596 C1590 1.465 . S
C1596 C1595 1.396 . S
C1596 C1597 1.399 1_545 S
C1597 H1583 0.929 . S
C1597 C1596 1.399 1_565 S
C1597 C1598 1.385 . S
C1598 H1584 0.930 . S
C1598 C1597 1.385 . S
C1598 C1599 1.390 1_565 S
C1599 C1598 1.390 1_545 S
C1599 C1600 1.387 . S
C1600 H1585 0.930 . S
C1600 C1595 1.390 . S
C1600 C1599 1.387 . S
H1601 C1613 0.930 . S
H1602 C1615 0.930 . S
H1603 C1616 0.930 . S
H1604 C1620 0.959 . S
H1605 C1620 0.959 . S
H1606 C1620 0.961 . S
H1607 C1621 0.960 . S
H1608 C1621 0.961 . S
H1609 C1621 0.959 . S
H1610 C1624 0.929 . S
H1611 C1625 0.931 . S
H1612 C1627 0.930 . S
C1613 H1601 0.930 . S
C1613 C1614 1.399 . S
C1613 C1618 1.399 . S
C1614 C1613 1.399 . S
C1614 C1615 1.376 . S
C1615 H1602 0.930 . S
C1615 C1614 1.376 . S
C1615 C1616 1.388 . S
C1616 H1603 0.930 . S
C1616 C1615 1.388 . S
C1616 C1617 1.390 . S
C1617 C1616 1.390 . S
C1617 C1618 1.394 . S
C1617 C1623 1.465 . S
C1618 C1613 1.399 . S
C1618 C1617 1.394 . S
C1618 C1619 1.516 . S
C1619 C1618 1.516 . S
C1619 C1620 1.502 . S
C1619 C1621 1.561 . S
C1619 C1622 1.526 . S
C1620 H1604 0.959 . S
C1620 H1605 0.959 . S
C1620 H1606 0.961 . S
C1620 C1619 1.502 . S
C1621 H1607 0.960 . S
C1621 H1608 0.961 . S
C1621 H1609 0.959 . S
C1621 C1619 1.561 . S
C1622 C1619 1.526 . S
C1622 C1623 1.396 . S
C1622 C1627 1.390 . S
C1623 C1617 1.465 . S
C1623 C1622 1.396 . S
C1623 C1624 1.399 . S
C1624 H1610 0.929 . S
C1624 C1623 1.399 . S
C1624 C1625 1.385 . S
C1625 H1611 0.931 . S
C1625 C1624 1.385 . S
C1625 C1626 1.389 . S
C1626 C1625 1.389 . S
C1626 C1627 1.387 . S
C1627 H1612 0.930 . S
C1627 C1622 1.390 . S
C1627 C1626 1.387 . S
H1628 C1640 0.930 . S
H1629 C1642 0.930 . S
H1630 C1643 0.930 . S
H1631 C1647 0.959 1_545 S
H1632 C1647 0.959 . S
H1633 C1647 0.961 . S
H1634 C1648 0.960 . S
H1635 C1648 0.961 . S
H1636 C1648 0.959 . S
H1637 C1651 0.929 . S
H1638 C1652 0.931 . S
H1639 C1654 0.930 1_565 S
C1640 H1628 0.930 . S
C1640 C1641 1.399 . S
C1640 C1645 1.399 . S
C1641 C1640 1.399 . S
C1641 C1642 1.376 1_565 S
C1642 H1629 0.930 . S
C1642 C1641 1.376 1_545 S
C1642 C1643 1.388 . S
C1643 H1630 0.930 . S
C1643 C1642 1.388 . S
C1643 C1644 1.390 . S
C1644 C1643 1.390 . S
C1644 C1645 1.394 1_545 S
C1644 C1650 1.465 . S
C1645 C1640 1.399 . S
C1645 C1644 1.394 1_565 S
C1645 C1646 1.516 . S
C1646 C1645 1.516 . S
C1646 C1647 1.502 . S
C1646 C1648 1.561 . S
C1646 C1649 1.526 1_565 S
C1647 H1631 0.959 1_565 S
C1647 H1632 0.959 . S
C1647 H1633 0.961 . S
C1647 C1646 1.502 . S
C1648 H1634 0.960 . S
C1648 H1635 0.961 . S
C1648 H1636 0.959 . S
C1648 C1646 1.561 . S
C1649 C1646 1.526 1_545 S
C1649 C1650 1.396 . S
C1649 C1654 1.390 . S
C1650 C1644 1.465 . S
C1650 C1649 1.396 . S
C1650 C1651 1.399 . S
C1651 H1637 0.929 . S
C1651 C1650 1.399 . S
C1651 C1652 1.385 . S
C1652 H1638 0.931 . S
C1652 C1651 1.385 . S
C1652 C1653 1.389 . S
C1653 C1652 1.389 . S
C1653 C1654 1.387 . S
C1654 H1639 0.930 1_545 S
C1654 C1649 1.390 . S
C1654 C1653 1.387 . S
H1655 C1667 0.930 . S
H1656 C1669 0.930 . S
H1657 C1670 0.930 . S
H1658 C1674 0.959 . S
H1659 C1674 0.959 . S
H1660 C1674 0.961 . S
H1661 C1675 0.960 . S
H1662 C1675 0.961 . S
H1663 C1675 0.959 . S
H1664 C1678 0.929 . S
H1665 C1679 0.931 . S
H1666 C1681 0.930 . S
C1667 H1655 0.930 . S
C1667 C1668 1.399 . S
C1667 C1672 1.399 . S
C1668 C1667 1.399 . S
C1668 C1669 1.376 . S
C1669 H1656 0.930 . S
C1669 C1668 1.376 . S
C1669 C1670 1.388 . S
C1670 H1657 0.930 . S
C1670 C1669 1.388 . S
C1670 C1671 1.390 . S
C1671 C1670 1.390 . S
C1671 C1672 1.394 . S
C1671 C1677 1.465 . S
C1672 C1667 1.399 . S
C1672 C1671 1.394 . S
C1672 C1673 1.516 . S
C1673 C1672 1.516 . S
C1673 C1674 1.502 . S
C1673 C1675 1.561 . S
C1673 C1676 1.526 . S
C1674 H1658 0.959 . S
C1674 H1659 0.959 . S
C1674 H1660 0.961 . S
C1674 C1673 1.502 . S
C1675 H1661 0.960 . S
C1675 H1662 0.961 . S
C1675 H1663 0.959 . S
C1675 C1673 1.561 . S
C1676 C1673 1.526 . S
C1676 C1677 1.396 . S
C1676 C1681 1.390 . S
C1677 C1671 1.465 . S
C1677 C1676 1.396 . S
C1677 C1678 1.399 . S
C1678 H1664 0.929 . S
C1678 C1677 1.399 . S
C1678 C1679 1.385 . S
C1679 H1665 0.931 . S
C1679 C1678 1.385 . S
C1679 C1680 1.389 . S
C1680 C1679 1.389 . S
C1680 C1681 1.387 . S
C1681 H1666 0.930 . S
C1681 C1676 1.390 . S
C1681 C1680 1.387 . S
H1682 C1694 0.930 1_565 S
H1683 C1696 0.930 . S
H1684 C1697 0.930 . S
H1685 C1701 0.959 . S
H1686 C1701 0.959 . S
H1687 C1701 0.961 . S
H1688 C1702 0.960 . S
H1689 C1702 0.961 . S
H1690 C1702 0.959 . S
H1691 C1705 0.929 . S
H1692 C1706 0.931 . S
H1693 C1708 0.930 . S
C1694 H1682 0.930 1_545 S
C1694 C1695 1.399 . S
C1694 C1699 1.399 . S
C1695 C1694 1.399 . S
C1695 C1696 1.376 . S
C1696 H1683 0.930 . S
C1696 C1695 1.376 . S
C1696 C1697 1.388 . S
C1697 H1684 0.930 . S
C1697 C1696 1.388 . S
C1697 C1698 1.390 . S
C1698 C1697 1.390 . S
C1698 C1699 1.394 . S
C1698 C1704 1.465 . S
C1699 C1694 1.399 . S
C1699 C1698 1.394 . S
C1699 C1700 1.516 1_545 S
C1700 C1699 1.516 1_565 S
C1700 C1701 1.502 . S
C1700 C1702 1.561 . S
C1700 C1703 1.508 1_565 S
C1701 H1685 0.959 . S
C1701 H1686 0.959 . S
C1701 H1687 0.961 . S
C1701 C1700 1.502 . S
C1702 H1688 0.960 . S
C1702 H1689 0.961 . S
C1702 H1690 0.959 . S
C1702 C1700 1.561 . S
C1703 C1700 1.508 1_545 S
C1703 C1704 1.428 . S
C1703 C1708 1.380 1_545 S
C1704 C1698 1.465 . S
C1704 C1703 1.428 . S
C1704 C1705 1.399 . S
C1705 H1691 0.929 . S
C1705 C1704 1.399 . S
C1705 C1706 1.385 . S
C1706 H1692 0.931 . S
C1706 C1705 1.385 . S
C1706 C1707 1.389 . S
C1707 C1706 1.389 . S
C1707 C1708 1.387 1_545 S
C1708 H1693 0.930 . S
C1708 C1703 1.380 1_565 S
C1708 C1707 1.387 1_565 S
H1709 C1721 0.930 . S
H1710 C1723 0.930 . S
H1711 C1724 0.930 . S
H1712 C1728 0.959 . S
H1713 C1728 0.959 . S
H1714 C1728 0.961 . S
H1715 C1729 0.960 . S
H1716 C1729 0.961 . S
H1717 C1729 0.959 . S
H1718 C1732 0.929 . S
H1719 C1733 0.931 . S
H1720 C1735 0.930 . S
C1721 H1709 0.930 . S
C1721 C1722 1.399 . S
C1721 C1726 1.399 . S
C1722 C1721 1.399 . S
C1722 C1723 1.376 . S
C1723 H1710 0.930 . S
C1723 C1722 1.376 . S
C1723 C1724 1.388 . S
C1724 H1711 0.930 . S
C1724 C1723 1.388 . S
C1724 C1725 1.390 . S
C1725 C1724 1.390 . S
C1725 C1726 1.394 . S
C1725 C1731 1.465 . S
C1726 C1721 1.399 . S
C1726 C1725 1.394 . S
C1726 C1727 1.516 . S
C1727 C1726 1.516 . S
C1727 C1728 1.502 . S
C1727 C1729 1.561 . S
C1727 C1730 1.526 . S
C1728 H1712 0.959 . S
C1728 H1713 0.959 . S
C1728 H1714 0.961 . S
C1728 C1727 1.502 . S
C1729 H1715 0.960 . S
C1729 H1716 0.961 . S
C1729 H1717 0.959 . S
C1729 C1727 1.561 . S
C1730 C1727 1.526 . S
C1730 C1731 1.396 . S
C1730 C1735 1.390 . S
C1731 C1725 1.465 . S
C1731 C1730 1.396 . S
C1731 C1732 1.399 . S
C1732 H1718 0.929 . S
C1732 C1731 1.399 . S
C1732 C1733 1.385 . S
C1733 H1719 0.931 . S
C1733 C1732 1.385 . S
C1733 C1734 1.389 . S
C1734 C1733 1.389 . S
C1734 C1735 1.387 . S
C1735 H1720 0.930 . S
C1735 C1730 1.390 . S
C1735 C1734 1.387 . S
H1736 C1748 0.930 . S
H1737 C1750 0.930 . S
H1738 C1751 0.930 . S
H1739 C1755 0.959 . S
H1740 C1755 0.959 . S
H1741 C1755 0.961 . S
H1742 C1756 0.960 . S
H1743 C1756 0.961 . S
H1744 C1756 0.959 1_556 S
H1745 C1759 0.929 . S
H1746 C1760 0.931 . S
H1747 C1762 0.930 . S
C1748 H1736 0.930 . S
C1748 C1749 1.399 1_554 S
C1748 C1753 1.399 . S
C1749 C1748 1.399 1_556 S
C1749 C1750 1.376 . S
C1750 H1737 0.930 . S
C1750 C1749 1.376 . S
C1750 C1751 1.388 . S
C1751 H1738 0.930 . S
C1751 C1750 1.388 . S
C1751 C1752 1.390 . S
C1752 C1751 1.390 . S
C1752 C1753 1.394 1_556 S
C1752 C1758 1.465 . S
C1753 C1748 1.399 . S
C1753 C1752 1.394 1_554 S
C1753 C1754 1.516 . S
C1754 C1753 1.516 . S
C1754 C1755 1.502 . S
C1754 C1756 1.561 . S
C1754 C1757 1.505 1_554 S
C1755 H1739 0.959 . S
C1755 H1740 0.959 . S
C1755 H1741 0.961 . S
C1755 C1754 1.502 . S
C1756 H1742 0.960 . S
C1756 H1743 0.961 . S
C1756 H1744 0.959 1_554 S
C1756 C1754 1.561 . S
C1757 C1754 1.505 1_556 S
C1757 C1758 1.423 . S
C1757 C1762 1.387 1_556 S
C1758 C1752 1.465 . S
C1758 C1757 1.423 . S
C1758 C1759 1.399 . S
C1759 H1745 0.929 . S
C1759 C1758 1.399 . S
C1759 C1760 1.385 . S
C1760 H1746 0.931 . S
C1760 C1759 1.385 . S
C1760 C1761 1.389 . S
C1761 C1760 1.389 . S
C1761 C1762 1.387 1_556 S
C1762 H1747 0.930 . S
C1762 C1757 1.387 1_554 S
C1762 C1761 1.387 1_554 S
H1763 C1775 0.930 . S
H1764 C1777 0.930 . S
H1765 C1778 0.930 . S
H1766 C1782 0.959 . S
H1767 C1782 0.959 . S
H1768 C1782 0.961 . S
H1769 C1783 0.960 . S
H1770 C1783 0.961 . S
H1771 C1783 0.959 . S
H1772 C1786 0.929 . S
H1773 C1787 0.931 . S
H1774 C1789 0.930 . S
C1775 H1763 0.930 . S
C1775 C1776 1.399 . S
C1775 C1780 1.399 . S
C1776 C1775 1.399 . S
C1776 C1777 1.376 . S
C1777 H1764 0.930 . S
C1777 C1776 1.376 . S
C1777 C1778 1.388 . S
C1778 H1765 0.930 . S
C1778 C1777 1.388 . S
C1778 C1779 1.390 . S
C1779 C1778 1.390 . S
C1779 C1780 1.394 . S
C1779 C1785 1.465 . S
C1780 C1775 1.399 . S
C1780 C1779 1.394 . S
C1780 C1781 1.516 . S
C1781 C1780 1.516 . S
C1781 C1782 1.502 1_554 S
C1781 C1783 1.561 . S
C1781 C1784 1.526 . S
C1782 H1766 0.959 . S
C1782 H1767 0.959 . S
C1782 H1768 0.961 . S
C1782 C1781 1.502 1_556 S
C1783 H1769 0.960 . S
C1783 H1770 0.961 . S
C1783 H1771 0.959 . S
C1783 C1781 1.561 . S
C1784 C1781 1.526 . S
C1784 C1785 1.396 . S
C1784 C1789 1.390 . S
C1785 C1779 1.465 . S
C1785 C1784 1.396 . S
C1785 C1786 1.399 . S
C1786 H1772 0.929 . S
C1786 C1785 1.399 . S
C1786 C1787 1.385 . S
C1787 H1773 0.931 . S
C1787 C1786 1.385 . S
C1787 C1788 1.389 . S
C1788 C1787 1.389 . S
C1788 C1789 1.387 . S
C1789 H1774 0.930 . S
C1789 C1784 1.390 . S
C1789 C1788 1.387 . S
H1790 C1802 0.930 . S
H1791 C1804 0.930 . S
H1792 C1805 0.930 . S
H1793 C1809 0.959 . S
H1794 C1809 0.959 . S
H1795 C1809 0.961 . S
H1796 C1810 0.960 . S
H1797 C1810 0.961 . S
H1798 C1810 0.959 . S
H1799 C1813 0.929 . S
H1800 C1814 0.931 . S
H1801 C1816 0.930 . S
C1802 H1790 0.930 . S
C1802 C1803 1.399 . S
C1802 C1807 1.399 . S
C1803 C1802 1.399 . S
C1803 C1804 1.376 . S
C1804 H1791 0.930 . S
C1804 C1803 1.376 . S
C1804 C1805 1.388 . S
C1805 H1792 0.930 . S
C1805 C1804 1.388 . S
C1805 C1806 1.390 . S
C1806 C1805 1.390 . S
C1806 C1807 1.394 . S
C1806 C1812 1.465 . S
C1807 C1802 1.399 . S
C1807 C1806 1.394 . S
C1807 C1808 1.516 . S
C1808 C1807 1.516 . S
C1808 C1809 1.502 . S
C1808 C1810 1.561 . S
C1808 C1811 1.526 . S
C1809 H1793 0.959 . S
C1809 H1794 0.959 . S
C1809 H1795 0.961 . S
C1809 C1808 1.502 . S
C1810 H1796 0.960 . S
C1810 H1797 0.961 . S
C1810 H1798 0.959 . S
C1810 C1808 1.561 . S
C1811 C1808 1.526 . S
C1811 C1812 1.396 . S
C1811 C1816 1.390 . S
C1812 C1806 1.465 . S
C1812 C1811 1.396 . S
C1812 C1813 1.399 . S
C1813 H1799 0.929 . S
C1813 C1812 1.399 . S
C1813 C1814 1.385 . S
C1814 H1800 0.931 . S
C1814 C1813 1.385 . S
C1814 C1815 1.389 . S
C1815 C1814 1.389 . S
C1815 C1816 1.387 . S
C1816 H1801 0.930 . S
C1816 C1811 1.390 . S
C1816 C1815 1.387 . S
H1817 C1829 0.930 . S
H1818 C1831 0.930 . S
H1819 C1832 0.930 . S
H1820 C1836 0.959 . S
H1821 C1836 0.959 . S
H1822 C1836 0.961 . S
H1823 C1837 0.960 . S
H1824 C1837 0.961 . S
H1825 C1837 0.959 . S
H1826 C1840 0.929 . S
H1827 C1841 0.931 . S
H1828 C1843 0.930 . S
C1829 H1817 0.930 . S
C1829 C1830 1.399 . S
C1829 C1834 1.399 . S
C1830 C1829 1.399 . S
C1830 C1831 1.376 . S
C1831 H1818 0.930 . S
C1831 C1830 1.376 . S
C1831 C1832 1.388 . S
C1832 H1819 0.930 . S
C1832 C1831 1.388 . S
C1832 C1833 1.390 . S
C1833 C1832 1.390 . S
C1833 C1834 1.394 . S
C1833 C1839 1.465 . S
C1834 C1829 1.399 . S
C1834 C1833 1.394 . S
C1834 C1835 1.516 . S
C1835 C1834 1.516 . S
C1835 C1836 1.502 . S
C1835 C1837 1.561 . S
C1835 C1838 1.526 . S
C1836 H1820 0.959 . S
C1836 H1821 0.959 . S
C1836 H1822 0.961 . S
C1836 C1835 1.502 . S
C1837 H1823 0.960 . S
C1837 H1824 0.961 . S
C1837 H1825 0.959 . S
C1837 C1835 1.561 . S
C1838 C1835 1.526 . S
C1838 C1839 1.396 . S
C1838 C1843 1.390 . S
C1839 C1833 1.465 . S
C1839 C1838 1.396 . S
C1839 C1840 1.399 . S
C1840 H1826 0.929 . S
C1840 C1839 1.399 . S
C1840 C1841 1.385 . S
C1841 H1827 0.931 . S
C1841 C1840 1.385 . S
C1841 C1842 1.389 . S
C1842 C1841 1.389 . S
C1842 C1843 1.387 . S
C1843 H1828 0.930 . S
C1843 C1838 1.390 . S
C1843 C1842 1.387 . S
H1844 C1856 0.930 . S
H1845 C1858 0.930 . S
H1846 C1859 0.930 . S
H1847 C1863 0.959 . S
H1848 C1863 0.959 . S
H1849 C1863 0.961 . S
H1850 C1864 0.960 . S
H1851 C1864 0.961 . S
H1852 C1864 0.959 . S
H1853 C1867 0.929 . S
H1854 C1868 0.931 . S
H1855 C1870 0.930 . S
C1856 H1844 0.930 . S
C1856 C1857 1.399 . S
C1856 C1861 1.399 . S
C1857 C1856 1.399 . S
C1857 C1858 1.376 . S
C1858 H1845 0.930 . S
C1858 C1857 1.376 . S
C1858 C1859 1.388 . S
C1859 H1846 0.930 . S
C1859 C1858 1.388 . S
C1859 C1860 1.390 . S
C1860 C1859 1.390 . S
C1860 C1861 1.394 . S
C1860 C1866 1.465 . S
C1861 C1856 1.399 . S
C1861 C1860 1.394 . S
C1861 C1862 1.516 . S
C1862 C1861 1.516 . S
C1862 C1863 1.502 . S
C1862 C1864 1.561 . S
C1862 C1865 1.526 . S
C1863 H1847 0.959 . S
C1863 H1848 0.959 . S
C1863 H1849 0.961 . S
C1863 C1862 1.502 . S
C1864 H1850 0.960 . S
C1864 H1851 0.961 . S
C1864 H1852 0.959 . S
C1864 C1862 1.561 . S
C1865 C1862 1.526 . S
C1865 C1866 1.396 . S
C1865 C1870 1.390 . S
C1866 C1860 1.465 . S
C1866 C1865 1.396 . S
C1866 C1867 1.399 . S
C1867 H1853 0.929 . S
C1867 C1866 1.399 . S
C1867 C1868 1.385 . S
C1868 H1854 0.931 . S
C1868 C1867 1.385 . S
C1868 C1869 1.389 . S
C1869 C1868 1.389 . S
C1869 C1870 1.387 . S
C1870 H1855 0.930 . S
C1870 C1865 1.390 . S
C1870 C1869 1.387 . S
H1871 C1883 0.930 . S
H1872 C1885 0.930 . S
H1873 C1886 0.930 . S
H1874 C1890 0.959 . S
H1875 C1890 0.959 . S
H1876 C1890 0.961 . S
H1877 C1891 0.960 . S
H1878 C1891 0.961 . S
H1879 C1891 0.959 . S
H1880 C1894 0.929 . S
H1881 C1895 0.931 . S
H1882 C1897 0.930 . S
C1883 H1871 0.930 . S
C1883 C1884 1.399 . S
C1883 C1888 1.399 . S
C1884 C1883 1.399 . S
C1884 C1885 1.376 . S
C1885 H1872 0.930 . S
C1885 C1884 1.376 . S
C1885 C1886 1.388 . S
C1886 H1873 0.930 . S
C1886 C1885 1.388 . S
C1886 C1887 1.390 . S
C1887 C1886 1.390 . S
C1887 C1888 1.394 . S
C1887 C1893 1.465 . S
C1888 C1883 1.399 . S
C1888 C1887 1.394 . S
C1888 C1889 1.516 . S
C1889 C1888 1.516 . S
C1889 C1890 1.502 . S
C1889 C1891 1.561 . S
C1889 C1892 1.526 . S
C1890 H1874 0.959 . S
C1890 H1875 0.959 . S
C1890 H1876 0.961 . S
C1890 C1889 1.502 . S
C1891 H1877 0.960 . S
C1891 H1878 0.961 . S
C1891 H1879 0.959 . S
C1891 C1889 1.561 . S
C1892 C1889 1.526 . S
C1892 C1893 1.396 . S
C1892 C1897 1.390 . S
C1893 C1887 1.465 . S
C1893 C1892 1.396 . S
C1893 C1894 1.399 . S
C1894 H1880 0.929 . S
C1894 C1893 1.399 . S
C1894 C1895 1.385 . S
C1895 H1881 0.931 . S
C1895 C1894 1.385 . S
C1895 C1896 1.389 . S
C1896 C1895 1.389 . S
C1896 C1897 1.387 . S
C1897 H1882 0.930 . S
C1897 C1892 1.390 . S
C1897 C1896 1.387 . S
H1898 C1910 0.930 . S
H1899 C1912 0.930 . S
H1900 C1913 0.930 . S
H1901 C1917 0.959 . S
H1902 C1917 0.959 . S
H1903 C1917 0.961 . S
H1904 C1918 0.960 . S
H1905 C1918 0.961 . S
H1906 C1918 0.959 . S
H1907 C1921 0.929 . S
H1908 C1922 0.931 . S
H1909 C1924 0.930 . S
C1910 H1898 0.930 . S
C1910 C1911 1.399 . S
C1910 C1915 1.399 . S
C1911 C1910 1.399 . S
C1911 C1912 1.376 . S
C1912 H1899 0.930 . S
C1912 C1911 1.376 . S
C1912 C1913 1.388 . S
C1913 H1900 0.930 . S
C1913 C1912 1.388 . S
C1913 C1914 1.390 . S
C1914 C1913 1.390 . S
C1914 C1915 1.394 . S
C1914 C1920 1.465 . S
C1915 C1910 1.399 . S
C1915 C1914 1.394 . S
C1915 C1916 1.516 . S
C1916 C1915 1.516 . S
C1916 C1917 1.502 . S
C1916 C1918 1.561 . S
C1916 C1919 1.526 . S
C1917 H1901 0.959 . S
C1917 H1902 0.959 . S
C1917 H1903 0.961 . S
C1917 C1916 1.502 . S
C1918 H1904 0.960 . S
C1918 H1905 0.961 . S
C1918 H1906 0.959 . S
C1918 C1916 1.561 . S
C1919 C1916 1.526 . S
C1919 C1920 1.396 . S
C1919 C1924 1.390 . S
C1920 C1914 1.465 . S
C1920 C1919 1.396 . S
C1920 C1921 1.399 . S
C1921 H1907 0.929 . S
C1921 C1920 1.399 . S
C1921 C1922 1.385 . S
C1922 H1908 0.931 . S
C1922 C1921 1.385 . S
C1922 C1923 1.389 . S
C1923 C1922 1.389 . S
C1923 C1924 1.387 . S
C1924 H1909 0.930 . S
C1924 C1919 1.390 . S
C1924 C1923 1.387 . S
H1925 C1937 0.930 . S
H1926 C1939 0.930 . S
H1927 C1940 0.930 . S
H1928 C1944 0.959 . S
H1929 C1944 0.959 . S
H1930 C1944 0.961 . S
H1931 C1945 0.960 . S
H1932 C1945 0.961 . S
H1933 C1945 0.959 . S
H1934 C1948 0.929 . S
H1935 C1949 0.931 . S
H1936 C1951 0.930 . S
C1937 H1925 0.930 . S
C1937 C1938 1.399 . S
C1937 C1942 1.399 . S
C1938 C1937 1.399 . S
C1938 C1939 1.376 . S
C1939 H1926 0.930 . S
C1939 C1938 1.376 . S
C1939 C1940 1.388 . S
C1940 H1927 0.930 . S
C1940 C1939 1.388 . S
C1940 C1941 1.390 . S
C1941 C1940 1.390 . S
C1941 C1942 1.394 . S
C1941 C1947 1.465 . S
C1942 C1937 1.399 . S
C1942 C1941 1.394 . S
C1942 C1943 1.516 . S
C1943 C1942 1.516 . S
C1943 C1944 1.502 . S
C1943 C1945 1.561 . S
C1943 C1946 1.526 . S
C1944 H1928 0.959 . S
C1944 H1929 0.959 . S
C1944 H1930 0.961 . S
C1944 C1943 1.502 . S
C1945 H1931 0.960 . S
C1945 H1932 0.961 . S
C1945 H1933 0.959 . S
C1945 C1943 1.561 . S
C1946 C1943 1.526 . S
C1946 C1947 1.396 . S
C1946 C1951 1.390 . S
C1947 C1941 1.465 . S
C1947 C1946 1.396 . S
C1947 C1948 1.399 . S
C1948 H1934 0.929 . S
C1948 C1947 1.399 . S
C1948 C1949 1.385 . S
C1949 H1935 0.931 . S
C1949 C1948 1.385 . S
C1949 C1950 1.389 . S
C1950 C1949 1.389 . S
C1950 C1951 1.387 . S
C1951 H1936 0.930 . S
C1951 C1946 1.390 . S
C1951 C1950 1.387 . S
H1952 C1964 0.930 . S
H1953 C1966 0.930 . S
H1954 C1967 0.930 . S
H1955 C1971 0.959 . S
H1956 C1971 0.959 . S
H1957 C1971 0.961 . S
H1958 C1972 0.960 . S
H1959 C1972 0.961 . S
H1960 C1972 0.959 . S
H1961 C1975 0.929 . S
H1962 C1976 0.931 . S
H1963 C1978 0.930 . S
C1964 H1952 0.930 . S
C1964 C1965 1.399 . S
C1964 C1969 1.399 . S
C1965 C1964 1.399 . S
C1965 C1966 1.376 . S
C1966 H1953 0.930 . S
C1966 C1965 1.376 . S
C1966 C1967 1.388 . S
C1967 H1954 0.930 . S
C1967 C1966 1.388 . S
C1967 C1968 1.390 . S
C1968 C1967 1.390 . S
C1968 C1969 1.394 . S
C1968 C1974 1.465 . S
C1969 C1964 1.399 . S
C1969 C1968 1.394 . S
C1969 C1970 1.516 . S
C1970 C1969 1.516 . S
C1970 C1971 1.502 . S
C1970 C1972 1.561 . S
C1970 C1973 1.526 . S
C1971 H1955 0.959 . S
C1971 H1956 0.959 . S
C1971 H1957 0.961 . S
C1971 C1970 1.502 . S
C1972 H1958 0.960 . S
C1972 H1959 0.961 . S
C1972 H1960 0.959 . S
C1972 C1970 1.561 . S
C1973 C1970 1.526 . S
C1973 C1974 1.396 . S
C1973 C1978 1.390 . S
C1974 C1968 1.465 . S
C1974 C1973 1.396 . S
C1974 C1975 1.399 . S
C1975 H1961 0.929 . S
C1975 C1974 1.399 . S
C1975 C1976 1.385 . S
C1976 H1962 0.931 . S
C1976 C1975 1.385 . S
C1976 C1977 1.389 . S
C1977 C1976 1.389 . S
C1977 C1978 1.387 . S
C1978 H1963 0.930 . S
C1978 C1973 1.390 . S
C1978 C1977 1.387 . S
H1979 C1991 0.930 . S
H1980 C1993 0.930 . S
H1981 C1994 0.930 . S
H1982 C1998 0.959 . S
H1983 C1998 0.959 . S
H1984 C1998 0.961 . S
H1985 C1999 0.960 . S
H1986 C1999 0.961 . S
H1987 C1999 0.959 . S
H1988 C2002 0.929 . S
H1989 C2003 0.931 . S
H1990 C2005 0.930 . S
C1991 H1979 0.930 . S
C1991 C1992 1.399 . S
C1991 C1996 1.399 . S
C1992 C1991 1.399 . S
C1992 C1993 1.376 . S
C1993 H1980 0.930 . S
C1993 C1992 1.376 . S
C1993 C1994 1.388 . S
C1994 H1981 0.930 . S
C1994 C1993 1.388 . S
C1994 C1995 1.390 . S
C1995 C1994 1.390 . S
C1995 C1996 1.394 . S
C1995 C2001 1.465 . S
C1996 C1991 1.399 . S
C1996 C1995 1.394 . S
C1996 C1997 1.516 . S
C1997 C1996 1.516 . S
C1997 C1998 1.502 . S
C1997 C1999 1.561 . S
C1997 C2000 1.526 . S
C1998 H1982 0.959 . S
C1998 H1983 0.959 . S
C1998 H1984 0.961 . S
C1998 C1997 1.502 . S
C1999 H1985 0.960 . S
C1999 H1986 0.961 . S
C1999 H1987 0.959 . S
C1999 C1997 1.561 . S
C2000 C1997 1.526 . S
C2000 C2001 1.396 . S
C2000 C2005 1.390 . S
C2001 C1995 1.465 . S
C2001 C2000 1.396 . S
C2001 C2002 1.399 . S
C2002 H1988 0.929 . S
C2002 C2001 1.399 . S
C2002 C2003 1.385 . S
C2003 H1989 0.931 . S
C2003 C2002 1.385 . S
C2003 C2004 1.389 . S
C2004 C2003 1.389 . S
C2004 C2005 1.387 . S
C2005 H1990 0.930 . S
C2005 C2000 1.390 . S
C2005 C2004 1.387 . S
H2006 C2018 0.930 . S
H2007 C2020 0.930 . S
H2008 C2021 0.930 . S
H2009 C2025 0.959 . S
H2010 C2025 0.959 . S
H2011 C2025 0.961 . S
H2012 C2026 0.960 . S
H2013 C2026 0.960 1_455 S
H2014 C2026 0.959 . S
H2015 C2029 0.929 . S
H2016 C2030 0.931 . S
H2017 C2032 0.930 . S
C2018 H2006 0.930 . S
C2018 C2019 1.407 . S
C2018 C2023 1.399 . S
C2019 C2018 1.407 . S
C2019 C2020 1.353 1_455 S
C2020 H2007 0.930 . S
C2020 C2019 1.353 1_655 S
C2020 C2021 1.388 . S
C2021 H2008 0.930 . S
C2021 C2020 1.388 . S
C2021 C2022 1.390 . S
C2022 C2021 1.390 . S
C2022 C2023 1.394 1_655 S
C2022 C2028 1.465 . S
C2023 C2018 1.399 . S
C2023 C2022 1.394 1_455 S
C2023 C2024 1.516 . S
C2024 C2023 1.516 . S
C2024 C2025 1.502 . S
C2024 C2026 1.561 1_455 S
C2024 C2027 1.526 . S
C2025 H2009 0.959 . S
C2025 H2010 0.959 . S
C2025 H2011 0.961 . S
C2025 C2024 1.502 . S
C2026 H2012 0.960 . S
C2026 H2013 0.960 1_655 S
C2026 H2014 0.959 . S
C2026 C2024 1.561 1_655 S
C2027 C2024 1.526 . S
C2027 C2028 1.396 1_455 S
C2027 C2032 1.390 . S
C2028 C2022 1.465 . S
C2028 C2027 1.396 1_655 S
C2028 C2029 1.399 1_556 S
C2029 H2015 0.929 . S
C2029 C2028 1.399 1_554 S
C2029 C2030 1.385 . S
C2030 H2016 0.931 . S
C2030 C2029 1.385 . S
C2030 C2031 1.389 1_654 S
C2031 C2030 1.389 1_456 S
C2031 C2032 1.387 . S
C2032 H2017 0.930 . S
C2032 C2027 1.390 . S
C2032 C2031 1.387 . S
H2033 C2045 0.930 . S
H2034 C2047 0.930 . S
H2035 C2048 0.930 . S
H2036 C2052 0.959 . S
H2037 C2052 0.959 . S
H2038 C2052 0.961 . S
H2039 C2053 0.960 . S
H2040 C2053 0.961 . S
H2041 C2053 0.959 . S
H2042 C2056 0.929 . S
H2043 C2057 0.931 . S
H2044 C2059 0.930 . S
C2045 H2033 0.930 . S
C2045 C2046 1.399 . S
C2045 C2050 1.399 . S
C2046 C2045 1.399 . S
C2046 C2047 1.376 . S
C2047 H2034 0.930 . S
C2047 C2046 1.376 . S
C2047 C2048 1.388 . S
C2048 H2035 0.930 . S
C2048 C2047 1.388 . S
C2048 C2049 1.390 . S
C2049 C2048 1.390 . S
C2049 C2050 1.394 . S
C2049 C2055 1.465 . S
C2050 C2045 1.399 . S
C2050 C2049 1.394 . S
C2050 C2051 1.516 . S
C2051 C2050 1.516 . S
C2051 C2052 1.502 . S
C2051 C2053 1.561 . S
C2051 C2054 1.526 . S
C2052 H2036 0.959 . S
C2052 H2037 0.959 . S
C2052 H2038 0.961 . S
C2052 C2051 1.502 . S
C2053 H2039 0.960 . S
C2053 H2040 0.961 . S
C2053 H2041 0.959 . S
C2053 C2051 1.561 . S
C2054 C2051 1.526 . S
C2054 C2055 1.396 . S
C2054 C2059 1.390 . S
C2055 C2049 1.465 . S
C2055 C2054 1.396 . S
C2055 C2056 1.399 . S
C2056 H2042 0.929 . S
C2056 C2055 1.399 . S
C2056 C2057 1.385 . S
C2057 H2043 0.931 . S
C2057 C2056 1.385 . S
C2057 C2058 1.389 . S
C2058 C2057 1.389 . S
C2058 C2059 1.387 . S
C2059 H2044 0.930 . S
C2059 C2054 1.390 . S
C2059 C2058 1.387 . S
H2060 C2072 0.930 . S
H2061 C2074 0.930 . S
H2062 C2075 0.930 . S
H2063 C2079 0.959 . S
H2064 C2079 0.959 . S
H2065 C2079 0.961 . S
H2066 C2080 0.960 . S
H2067 C2080 0.961 . S
H2068 C2080 0.959 . S
H2069 C2083 0.929 . S
H2070 C2084 0.931 . S
H2071 C2086 0.930 . S
C2072 H2060 0.930 . S
C2072 C2073 1.399 . S
C2072 C2077 1.399 . S
C2073 C2072 1.399 . S
C2073 C2074 1.376 . S
C2074 H2061 0.930 . S
C2074 C2073 1.376 . S
C2074 C2075 1.388 . S
C2075 H2062 0.930 . S
C2075 C2074 1.388 . S
C2075 C2076 1.390 . S
C2076 C2075 1.390 . S
C2076 C2077 1.394 . S
C2076 C2082 1.465 . S
C2077 C2072 1.399 . S
C2077 C2076 1.394 . S
C2077 C2078 1.516 . S
C2078 C2077 1.516 . S
C2078 C2079 1.502 . S
C2078 C2080 1.561 . S
C2078 C2081 1.526 . S
C2079 H2063 0.959 . S
C2079 H2064 0.959 . S
C2079 H2065 0.961 . S
C2079 C2078 1.502 . S
C2080 H2066 0.960 . S
C2080 H2067 0.961 . S
C2080 H2068 0.959 . S
C2080 C2078 1.561 . S
C2081 C2078 1.526 . S
C2081 C2082 1.396 . S
C2081 C2086 1.390 . S
C2082 C2076 1.465 . S
C2082 C2081 1.396 . S
C2082 C2083 1.399 . S
C2083 H2069 0.929 . S
C2083 C2082 1.399 . S
C2083 C2084 1.385 . S
C2084 H2070 0.931 . S
C2084 C2083 1.385 . S
C2084 C2085 1.389 . S
C2085 C2084 1.389 . S
C2085 C2086 1.387 . S
C2086 H2071 0.930 . S
C2086 C2081 1.390 . S
C2086 C2085 1.387 . S
H2087 C2099 0.930 . S
H2088 C2101 0.930 . S
H2089 C2102 0.930 . S
H2090 C2106 0.959 . S
H2091 C2106 0.959 . S
H2092 C2106 0.961 . S
H2093 C2107 0.960 . S
H2094 C2107 0.961 . S
H2095 C2107 0.959 . S
H2096 C2110 0.929 . S
H2097 C2111 0.931 . S
H2098 C2113 0.930 . S
C2099 H2087 0.930 . S
C2099 C2100 1.399 . S
C2099 C2104 1.399 . S
C2100 C2099 1.399 . S
C2100 C2101 1.376 . S
C2101 H2088 0.930 . S
C2101 C2100 1.376 . S
C2101 C2102 1.388 . S
C2102 H2089 0.930 . S
C2102 C2101 1.388 . S
C2102 C2103 1.390 . S
C2103 C2102 1.390 . S
C2103 C2104 1.394 . S
C2103 C2109 1.465 . S
C2104 C2099 1.399 . S
C2104 C2103 1.394 . S
C2104 C2105 1.516 . S
C2105 C2104 1.516 . S
C2105 C2106 1.502 . S
C2105 C2107 1.561 . S
C2105 C2108 1.526 . S
C2106 H2090 0.959 . S
C2106 H2091 0.959 . S
C2106 H2092 0.961 . S
C2106 C2105 1.502 . S
C2107 H2093 0.960 . S
C2107 H2094 0.961 . S
C2107 H2095 0.959 . S
C2107 C2105 1.561 . S
C2108 C2105 1.526 . S
C2108 C2109 1.396 . S
C2108 C2113 1.390 . S
C2109 C2103 1.465 . S
C2109 C2108 1.396 . S
C2109 C2110 1.399 . S
C2110 H2096 0.929 . S
C2110 C2109 1.399 . S
C2110 C2111 1.385 . S
C2111 H2097 0.931 . S
C2111 C2110 1.385 . S
C2111 C2112 1.389 . S
C2112 C2111 1.389 . S
C2112 C2113 1.387 . S
C2113 H2098 0.930 . S
C2113 C2108 1.390 . S
C2113 C2112 1.387 . S
H2114 C2126 0.930 . S
H2115 C2128 0.930 . S
H2116 C2129 0.930 . S
H2117 C2133 0.959 . S
H2118 C2133 0.959 . S
H2119 C2133 0.961 . S
H2120 C2134 0.960 . S
H2121 C2134 0.961 . S
H2122 C2134 0.959 . S
H2123 C2137 0.929 . S
H2124 C2138 0.931 . S
H2125 C2140 0.930 . S
C2126 H2114 0.930 . S
C2126 C2127 1.399 1_455 S
C2126 C2131 1.399 . S
C2127 C2126 1.399 1_655 S
C2127 C2128 1.376 . S
C2128 H2115 0.930 . S
C2128 C2127 1.376 . S
C2128 C2129 1.388 . S
C2129 H2116 0.930 . S
C2129 C2128 1.388 . S
C2129 C2130 1.390 . S
C2130 C2129 1.390 . S
C2130 C2131 1.394 1_655 S
C2130 C2136 1.465 . S
C2131 C2126 1.399 . S
C2131 C2130 1.394 1_455 S
C2131 C2132 1.516 . S
C2132 C2131 1.516 . S
C2132 C2133 1.502 . S
C2132 C2134 1.561 . S
C2132 C2135 1.526 . S
C2133 H2117 0.959 . S
C2133 H2118 0.959 . S
C2133 H2119 0.961 . S
C2133 C2132 1.502 . S
C2134 H2120 0.960 . S
C2134 H2121 0.961 . S
C2134 H2122 0.959 . S
C2134 C2132 1.561 . S
C2135 C2132 1.526 . S
C2135 C2136 1.396 1_455 S
C2135 C2140 1.390 . S
C2136 C2130 1.465 . S
C2136 C2135 1.396 1_655 S
C2136 C2137 1.399 . S
C2137 H2123 0.929 . S
C2137 C2136 1.399 . S
C2137 C2138 1.385 . S
C2138 H2124 0.931 . S
C2138 C2137 1.385 . S
C2138 C2139 1.372 1_655 S
C2139 C2138 1.372 1_455 S
C2139 C2140 1.396 . S
C2140 H2125 0.930 . S
C2140 C2135 1.390 . S
C2140 C2139 1.396 . S
H2141 C2153 0.930 . S
H2142 C2155 0.930 . S
H2143 C2156 0.930 . S
H2144 C2160 0.959 . S
H2145 C2160 0.959 . S
H2146 C2160 0.961 . S
H2147 C2161 0.960 . S
H2148 C2161 0.961 . S
H2149 C2161 0.959 . S
H2150 C2164 0.929 . S
H2151 C2165 0.931 . S
H2152 C2167 0.930 . S
C2153 H2141 0.930 . S
C2153 C2154 1.399 . S
C2153 C2158 1.399 . S
C2154 C2153 1.399 . S
C2154 C2155 1.376 . S
C2155 H2142 0.930 . S
C2155 C2154 1.376 . S
C2155 C2156 1.388 . S
C2156 H2143 0.930 . S
C2156 C2155 1.388 . S
C2156 C2157 1.390 . S
C2157 C2156 1.390 . S
C2157 C2158 1.394 . S
C2157 C2163 1.465 . S
C2158 C2153 1.399 . S
C2158 C2157 1.394 . S
C2158 C2159 1.516 . S
C2159 C2158 1.516 . S
C2159 C2160 1.502 . S
C2159 C2161 1.561 . S
C2159 C2162 1.526 . S
C2160 H2144 0.959 . S
C2160 H2145 0.959 . S
C2160 H2146 0.961 . S
C2160 C2159 1.502 . S
C2161 H2147 0.960 . S
C2161 H2148 0.961 . S
C2161 H2149 0.959 . S
C2161 C2159 1.561 . S
C2162 C2159 1.526 . S
C2162 C2163 1.396 . S
C2162 C2167 1.390 . S
C2163 C2157 1.465 . S
C2163 C2162 1.396 . S
C2163 C2164 1.399 . S
C2164 H2150 0.929 . S
C2164 C2163 1.399 . S
C2164 C2165 1.385 . S
C2165 H2151 0.931 . S
C2165 C2164 1.385 . S
C2165 C2166 1.389 . S
C2166 C2165 1.389 . S
C2166 C2167 1.387 . S
C2167 H2152 0.930 . S
C2167 C2162 1.390 . S
C2167 C2166 1.387 . S
H2168 C2180 0.930 . S
H2169 C2182 0.930 . S
H2170 C2183 0.930 . S
H2171 C2187 0.959 . S
H2172 C2187 0.959 . S
H2173 C2187 0.961 . S
H2174 C2188 0.960 . S
H2175 C2188 0.961 . S
H2176 C2188 0.959 . S
H2177 C2191 0.929 . S
H2178 C2192 0.931 . S
H2179 C2194 0.930 . S
C2180 H2168 0.930 . S
C2180 C2181 1.399 . S
C2180 C2185 1.399 . S
C2181 C2180 1.399 . S
C2181 C2182 1.376 . S
C2182 H2169 0.930 . S
C2182 C2181 1.376 . S
C2182 C2183 1.388 . S
C2183 H2170 0.930 . S
C2183 C2182 1.388 . S
C2183 C2184 1.390 . S
C2184 C2183 1.390 . S
C2184 C2185 1.394 . S
C2184 C2190 1.465 . S
C2185 C2180 1.399 . S
C2185 C2184 1.394 . S
C2185 C2186 1.516 . S
C2186 C2185 1.516 . S
C2186 C2187 1.502 . S
C2186 C2188 1.561 . S
C2186 C2189 1.526 . S
C2187 H2171 0.959 . S
C2187 H2172 0.959 . S
C2187 H2173 0.961 . S
C2187 C2186 1.502 . S
C2188 H2174 0.960 . S
C2188 H2175 0.961 . S
C2188 H2176 0.959 . S
C2188 C2186 1.561 . S
C2189 C2186 1.526 . S
C2189 C2190 1.396 . S
C2189 C2194 1.390 . S
C2190 C2184 1.465 . S
C2190 C2189 1.396 . S
C2190 C2191 1.399 . S
C2191 H2177 0.929 . S
C2191 C2190 1.399 . S
C2191 C2192 1.385 . S
C2192 H2178 0.931 . S
C2192 C2191 1.385 . S
C2192 C2193 1.389 . S
C2193 C2192 1.389 . S
C2193 C2194 1.387 . S
C2194 H2179 0.930 . S
C2194 C2189 1.390 . S
C2194 C2193 1.387 . S
H2195 C2207 0.930 . S
H2196 C2209 0.930 . S
H2197 C2210 0.930 . S
H2198 C2214 0.959 . S
H2199 C2214 0.959 . S
H2200 C2214 0.961 . S
H2201 C2215 0.960 . S
H2202 C2215 0.961 . S
H2203 C2215 0.959 . S
H2204 C2218 0.929 . S
H2205 C2219 0.931 . S
H2206 C2221 0.930 . S
C2207 H2195 0.930 . S
C2207 C2208 1.399 . S
C2207 C2212 1.399 . S
C2208 C2207 1.399 . S
C2208 C2209 1.376 . S
C2209 H2196 0.930 . S
C2209 C2208 1.376 . S
C2209 C2210 1.388 . S
C2210 H2197 0.930 . S
C2210 C2209 1.388 . S
C2210 C2211 1.390 . S
C2211 C2210 1.390 . S
C2211 C2212 1.394 . S
C2211 C2217 1.465 . S
C2212 C2207 1.399 . S
C2212 C2211 1.394 . S
C2212 C2213 1.516 . S
C2213 C2212 1.516 . S
C2213 C2214 1.502 . S
C2213 C2215 1.561 . S
C2213 C2216 1.526 . S
C2214 H2198 0.959 . S
C2214 H2199 0.959 . S
C2214 H2200 0.961 . S
C2214 C2213 1.502 . S
C2215 H2201 0.960 . S
C2215 H2202 0.961 . S
C2215 H2203 0.959 . S
C2215 C2213 1.561 . S
C2216 C2213 1.526 . S
C2216 C2217 1.396 . S
C2216 C2221 1.390 . S
C2217 C2211 1.465 . S
C2217 C2216 1.396 . S
C2217 C2218 1.399 . S
C2218 H2204 0.929 . S
C2218 C2217 1.399 . S
C2218 C2219 1.385 . S
C2219 H2205 0.931 . S
C2219 C2218 1.385 . S
C2219 C2220 1.389 . S
C2220 C2219 1.389 . S
C2220 C2221 1.387 . S
C2221 H2206 0.930 . S
C2221 C2216 1.390 . S
C2221 C2220 1.387 . S
H2222 C2234 0.930 . S
H2223 C2236 0.930 . S
H2224 C2237 0.930 . S
H2225 C2241 0.959 . S
H2226 C2241 0.959 . S
H2227 C2241 0.961 . S
H2228 C2242 0.960 . S
H2229 C2242 0.961 . S
H2230 C2242 0.959 . S
H2231 C2245 0.929 . S
H2232 C2246 0.931 . S
H2233 C2248 0.930 . S
C2234 H2222 0.930 . S
C2234 C2235 1.399 . S
C2234 C2239 1.399 . S
C2235 C2234 1.399 . S
C2235 C2236 1.376 . S
C2236 H2223 0.930 . S
C2236 C2235 1.376 . S
C2236 C2237 1.388 . S
C2237 H2224 0.930 . S
C2237 C2236 1.388 . S
C2237 C2238 1.390 . S
C2238 C2237 1.390 . S
C2238 C2239 1.394 . S
C2238 C2244 1.465 . S
C2239 C2234 1.399 . S
C2239 C2238 1.394 . S
C2239 C2240 1.516 . S
C2240 C2239 1.516 . S
C2240 C2241 1.502 . S
C2240 C2242 1.561 . S
C2240 C2243 1.526 . S
C2241 H2225 0.959 . S
C2241 H2226 0.959 . S
C2241 H2227 0.961 . S
C2241 C2240 1.502 . S
C2242 H2228 0.960 . S
C2242 H2229 0.961 . S
C2242 H2230 0.959 . S
C2242 C2240 1.561 . S
C2243 C2240 1.526 . S
C2243 C2244 1.396 . S
C2243 C2248 1.390 . S
C2244 C2238 1.465 . S
C2244 C2243 1.396 . S
C2244 C2245 1.399 . S
C2245 H2231 0.929 . S
C2245 C2244 1.399 . S
C2245 C2246 1.385 . S
C2246 H2232 0.931 . S
C2246 C2245 1.385 . S
C2246 C2247 1.389 . S
C2247 C2246 1.389 . S
C2247 C2248 1.387 . S
C2248 H2233 0.930 . S
C2248 C2243 1.390 . S
C2248 C2247 1.387 . S
H2249 C2261 0.930 . S
H2250 C2263 0.930 . S
H2251 C2264 0.930 . S
H2252 C2268 0.959 . S
H2253 C2268 0.959 . S
H2254 C2268 0.961 . S
H2255 C2269 0.960 . S
H2256 C2269 0.961 . S
H2257 C2269 0.959 . S
H2258 C2272 0.929 . S
H2259 C2273 0.931 . S
H2260 C2275 0.930 . S
C2261 H2249 0.930 . S
C2261 C2262 1.399 . S
C2261 C2266 1.399 . S
C2262 C2261 1.399 . S
C2262 C2263 1.376 . S
C2263 H2250 0.930 . S
C2263 C2262 1.376 . S
C2263 C2264 1.388 . S
C2264 H2251 0.930 . S
C2264 C2263 1.388 . S
C2264 C2265 1.390 . S
C2265 C2264 1.390 . S
C2265 C2266 1.394 . S
C2265 C2271 1.465 . S
C2266 C2261 1.399 . S
C2266 C2265 1.394 . S
C2266 C2267 1.516 . S
C2267 C2266 1.516 . S
C2267 C2268 1.502 . S
C2267 C2269 1.561 . S
C2267 C2270 1.526 . S
C2268 H2252 0.959 . S
C2268 H2253 0.959 . S
C2268 H2254 0.961 . S
C2268 C2267 1.502 . S
C2269 H2255 0.960 . S
C2269 H2256 0.961 . S
C2269 H2257 0.959 . S
C2269 C2267 1.561 . S
C2270 C2267 1.526 . S
C2270 C2271 1.396 . S
C2270 C2275 1.390 . S
C2271 C2265 1.465 . S
C2271 C2270 1.396 . S
C2271 C2272 1.399 . S
C2272 H2258 0.929 . S
C2272 C2271 1.399 . S
C2272 C2273 1.385 . S
C2273 H2259 0.931 . S
C2273 C2272 1.385 . S
C2273 C2274 1.389 . S
C2274 C2273 1.389 . S
C2274 C2275 1.387 . S
C2275 H2260 0.930 . S
C2275 C2270 1.390 . S
C2275 C2274 1.387 . S
H2276 C2288 0.930 . S
H2277 C2290 0.930 . S
H2278 C2291 0.930 . S
H2279 C2295 0.959 . S
H2280 C2295 0.959 . S
H2281 C2295 0.961 . S
H2282 C2296 0.960 . S
H2283 C2296 0.961 . S
H2284 C2296 0.959 . S
H2285 C2299 0.929 . S
H2286 C2300 0.931 . S
H2287 C2302 0.930 . S
C2288 H2276 0.930 . S
C2288 C2289 1.399 . S
C2288 C2293 1.399 . S
C2289 C2288 1.399 . S
C2289 C2290 1.376 . S
C2290 H2277 0.930 . S
C2290 C2289 1.376 . S
C2290 C2291 1.388 . S
C2291 H2278 0.930 . S
C2291 C2290 1.388 . S
C2291 C2292 1.390 . S
C2292 C2291 1.390 . S
C2292 C2293 1.394 . S
C2292 C2298 1.465 . S
C2293 C2288 1.399 . S
C2293 C2292 1.394 . S
C2293 C2294 1.516 . S
C2294 C2293 1.516 . S
C2294 C2295 1.502 . S
C2294 C2296 1.561 . S
C2294 C2297 1.526 . S
C2295 H2279 0.959 . S
C2295 H2280 0.959 . S
C2295 H2281 0.961 . S
C2295 C2294 1.502 . S
C2296 H2282 0.960 . S
C2296 H2283 0.961 . S
C2296 H2284 0.959 . S
C2296 C2294 1.561 . S
C2297 C2294 1.526 . S
C2297 C2298 1.396 . S
C2297 C2302 1.390 . S
C2298 C2292 1.465 . S
C2298 C2297 1.396 . S
C2298 C2299 1.399 . S
C2299 H2285 0.929 . S
C2299 C2298 1.399 . S
C2299 C2300 1.385 . S
C2300 H2286 0.931 . S
C2300 C2299 1.385 . S
C2300 C2301 1.389 . S
C2301 C2300 1.389 . S
C2301 C2302 1.387 . S
C2302 H2287 0.930 . S
C2302 C2297 1.390 . S
C2302 C2301 1.387 . S
H2303 C2315 0.930 . S
H2304 C2317 0.930 . S
H2305 C2318 0.930 . S
H2306 C2322 0.959 . S
H2307 C2322 0.959 . S
H2308 C2322 0.961 . S
H2309 C2323 0.960 . S
H2310 C2323 0.961 . S
H2311 C2323 0.959 . S
H2312 C2326 0.929 . S
H2313 C2327 0.931 . S
H2314 C2329 0.930 . S
C2315 H2303 0.930 . S
C2315 C2316 1.399 . S
C2315 C2320 1.399 . S
C2316 C2315 1.399 . S
C2316 C2317 1.376 . S
C2317 H2304 0.930 . S
C2317 C2316 1.376 . S
C2317 C2318 1.388 . S
C2318 H2305 0.930 . S
C2318 C2317 1.388 . S
C2318 C2319 1.390 . S
C2319 C2318 1.390 . S
C2319 C2320 1.394 . S
C2319 C2325 1.465 . S
C2320 C2315 1.399 . S
C2320 C2319 1.394 . S
C2320 C2321 1.516 . S
C2321 C2320 1.516 . S
C2321 C2322 1.502 . S
C2321 C2323 1.561 . S
C2321 C2324 1.526 . S
C2322 H2306 0.959 . S
C2322 H2307 0.959 . S
C2322 H2308 0.961 . S
C2322 C2321 1.502 . S
C2323 H2309 0.960 . S
C2323 H2310 0.961 . S
C2323 H2311 0.959 . S
C2323 C2321 1.561 . S
C2324 C2321 1.526 . S
C2324 C2325 1.396 . S
C2324 C2329 1.390 . S
C2325 C2319 1.465 . S
C2325 C2324 1.396 . S
C2325 C2326 1.399 . S
C2326 H2312 0.929 . S
C2326 C2325 1.399 . S
C2326 C2327 1.385 . S
C2327 H2313 0.931 . S
C2327 C2326 1.385 . S
C2327 C2328 1.389 . S
C2328 C2327 1.389 . S
C2328 C2329 1.387 . S
C2329 H2314 0.930 . S
C2329 C2324 1.390 . S
C2329 C2328 1.387 . S
H2330 C2342 0.930 . S
H2331 C2344 0.930 . S
H2332 C2345 0.930 . S
H2333 C2349 0.959 . S
H2334 C2349 0.959 . S
H2335 C2349 0.961 . S
H2336 C2350 0.960 . S
H2337 C2350 0.961 . S
H2338 C2350 0.959 . S
H2339 C2353 0.929 . S
H2340 C2354 0.931 . S
H2341 C2356 0.930 . S
C2342 H2330 0.930 . S
C2342 C2343 1.399 . S
C2342 C2347 1.399 . S
C2343 C2342 1.399 . S
C2343 C2344 1.376 . S
C2344 H2331 0.930 . S
C2344 C2343 1.376 . S
C2344 C2345 1.388 . S
C2345 H2332 0.930 . S
C2345 C2344 1.388 . S
C2345 C2346 1.390 . S
C2346 C2345 1.390 . S
C2346 C2347 1.394 . S
C2346 C2352 1.465 . S
C2347 C2342 1.399 . S
C2347 C2346 1.394 . S
C2347 C2348 1.516 . S
C2348 C2347 1.516 . S
C2348 C2349 1.502 . S
C2348 C2350 1.561 . S
C2348 C2351 1.526 . S
C2349 H2333 0.959 . S
C2349 H2334 0.959 . S
C2349 H2335 0.961 . S
C2349 C2348 1.502 . S
C2350 H2336 0.960 . S
C2350 H2337 0.961 . S
C2350 H2338 0.959 . S
C2350 C2348 1.561 . S
C2351 C2348 1.526 . S
C2351 C2352 1.396 . S
C2351 C2356 1.390 . S
C2352 C2346 1.465 . S
C2352 C2351 1.396 . S
C2352 C2353 1.399 . S
C2353 H2339 0.929 . S
C2353 C2352 1.399 . S
C2353 C2354 1.385 . S
C2354 H2340 0.931 . S
C2354 C2353 1.385 . S
C2354 C2355 1.389 . S
C2355 C2354 1.389 . S
C2355 C2356 1.387 . S
C2356 H2341 0.930 . S
C2356 C2351 1.390 . S
C2356 C2355 1.387 . S
H2357 C2369 0.930 . S
H2358 C2371 0.930 . S
H2359 C2372 0.930 . S
H2360 C2376 0.959 . S
H2361 C2376 0.959 . S
H2362 C2376 0.961 . S
H2363 C2377 0.960 . S
H2364 C2377 0.961 . S
H2365 C2377 0.959 . S
H2366 C2380 0.929 . S
H2367 C2381 0.931 . S
H2368 C2383 0.930 . S
C2369 H2357 0.930 . S
C2369 C2370 1.399 . S
C2369 C2374 1.399 . S
C2370 C2369 1.399 . S
C2370 C2371 1.376 . S
C2371 H2358 0.930 . S
C2371 C2370 1.376 . S
C2371 C2372 1.388 . S
C2372 H2359 0.930 . S
C2372 C2371 1.388 . S
C2372 C2373 1.390 . S
C2373 C2372 1.390 . S
C2373 C2374 1.394 . S
C2373 C2379 1.465 . S
C2374 C2369 1.399 . S
C2374 C2373 1.394 . S
C2374 C2375 1.516 . S
C2375 C2374 1.516 . S
C2375 C2376 1.502 . S
C2375 C2377 1.561 . S
C2375 C2378 1.526 . S
C2376 H2360 0.959 . S
C2376 H2361 0.959 . S
C2376 H2362 0.961 . S
C2376 C2375 1.502 . S
C2377 H2363 0.960 . S
C2377 H2364 0.961 . S
C2377 H2365 0.959 . S
C2377 C2375 1.561 . S
C2378 C2375 1.526 . S
C2378 C2379 1.396 . S
C2378 C2383 1.390 . S
C2379 C2373 1.465 . S
C2379 C2378 1.396 . S
C2379 C2380 1.399 . S
C2380 H2366 0.929 . S
C2380 C2379 1.399 . S
C2380 C2381 1.385 . S
C2381 H2367 0.931 . S
C2381 C2380 1.385 . S
C2381 C2382 1.389 . S
C2382 C2381 1.389 . S
C2382 C2383 1.387 . S
C2383 H2368 0.930 . S
C2383 C2378 1.390 . S
C2383 C2382 1.387 . S
H2384 C2396 0.930 . S
H2385 C2398 0.930 . S
H2386 C2399 0.930 . S
H2387 C2403 0.959 . S
H2388 C2403 0.959 . S
H2389 C2403 0.961 . S
H2390 C2404 0.960 . S
H2391 C2404 0.961 . S
H2392 C2404 0.959 . S
H2393 C2407 0.929 . S
H2394 C2408 0.931 . S
H2395 C2410 0.930 . S
C2396 H2384 0.930 . S
C2396 C2397 1.399 . S
C2396 C2401 1.399 . S
C2397 C2396 1.399 . S
C2397 C2398 1.376 . S
C2398 H2385 0.930 . S
C2398 C2397 1.376 . S
C2398 C2399 1.388 . S
C2399 H2386 0.930 . S
C2399 C2398 1.388 . S
C2399 C2400 1.390 . S
C2400 C2399 1.390 . S
C2400 C2401 1.394 . S
C2400 C2406 1.465 . S
C2401 C2396 1.399 . S
C2401 C2400 1.394 . S
C2401 C2402 1.516 . S
C2402 C2401 1.516 . S
C2402 C2403 1.502 . S
C2402 C2404 1.561 . S
C2402 C2405 1.526 . S
C2403 H2387 0.959 . S
C2403 H2388 0.959 . S
C2403 H2389 0.961 . S
C2403 C2402 1.502 . S
C2404 H2390 0.960 . S
C2404 H2391 0.961 . S
C2404 H2392 0.959 . S
C2404 C2402 1.561 . S
C2405 C2402 1.526 . S
C2405 C2406 1.396 . S
C2405 C2410 1.390 . S
C2406 C2400 1.465 . S
C2406 C2405 1.396 . S
C2406 C2407 1.399 . S
C2407 H2393 0.929 . S
C2407 C2406 1.399 . S
C2407 C2408 1.385 . S
C2408 H2394 0.931 . S
C2408 C2407 1.385 . S
C2408 C2409 1.389 . S
C2409 C2408 1.389 . S
C2409 C2410 1.387 . S
C2410 H2395 0.930 . S
C2410 C2405 1.390 . S
C2410 C2409 1.387 . S
H2411 C2423 0.930 . S
H2412 C2425 0.930 . S
H2413 C2426 0.930 . S
H2414 C2430 0.959 . S
H2415 C2430 0.959 . S
H2416 C2430 0.961 . S
H2417 C2431 0.960 . S
H2418 C2431 0.961 . S
H2419 C2431 0.959 . S
H2420 C2434 0.929 . S
H2421 C2435 0.931 . S
H2422 C2437 0.930 . S
C2423 H2411 0.930 . S
C2423 C2424 1.399 . S
C2423 C2428 1.399 . S
C2424 C2423 1.399 . S
C2424 C2425 1.376 . S
C2425 H2412 0.930 . S
C2425 C2424 1.376 . S
C2425 C2426 1.388 . S
C2426 H2413 0.930 . S
C2426 C2425 1.388 . S
C2426 C2427 1.390 . S
C2427 C2426 1.390 . S
C2427 C2428 1.394 . S
C2427 C2433 1.465 . S
C2428 C2423 1.399 . S
C2428 C2427 1.394 . S
C2428 C2429 1.516 . S
C2429 C2428 1.516 . S
C2429 C2430 1.502 . S
C2429 C2431 1.561 . S
C2429 C2432 1.526 . S
C2430 H2414 0.959 . S
C2430 H2415 0.959 . S
C2430 H2416 0.961 . S
C2430 C2429 1.502 . S
C2431 H2417 0.960 . S
C2431 H2418 0.961 . S
C2431 H2419 0.959 . S
C2431 C2429 1.561 . S
C2432 C2429 1.526 . S
C2432 C2433 1.396 . S
C2432 C2437 1.390 . S
C2433 C2427 1.465 . S
C2433 C2432 1.396 . S
C2433 C2434 1.399 . S
C2434 H2420 0.929 . S
C2434 C2433 1.399 . S
C2434 C2435 1.385 . S
C2435 H2421 0.931 . S
C2435 C2434 1.385 . S
C2435 C2436 1.389 . S
C2436 C2435 1.389 . S
C2436 C2437 1.387 . S
C2437 H2422 0.930 . S
C2437 C2432 1.390 . S
C2437 C2436 1.387 . S
H2438 C2450 0.930 . S
H2439 C2452 0.930 . S
H2440 C2453 0.930 . S
H2441 C2457 0.959 . S
H2442 C2457 0.959 . S
H2443 C2457 0.961 . S
H2444 C2458 0.960 . S
H2445 C2458 0.961 . S
H2446 C2458 0.959 . S
H2447 C2461 0.929 . S
H2448 C2462 0.931 . S
H2449 C2464 0.930 . S
C2450 H2438 0.930 . S
C2450 C2451 1.399 . S
C2450 C2455 1.399 . S
C2451 C2450 1.399 . S
C2451 C2452 1.376 . S
C2452 H2439 0.930 . S
C2452 C2451 1.376 . S
C2452 C2453 1.388 . S
C2453 H2440 0.930 . S
C2453 C2452 1.388 . S
C2453 C2454 1.390 . S
C2454 C2453 1.390 . S
C2454 C2455 1.394 . S
C2454 C2460 1.465 . S
C2455 C2450 1.399 . S
C2455 C2454 1.394 . S
C2455 C2456 1.516 . S
C2456 C2455 1.516 . S
C2456 C2457 1.502 . S
C2456 C2458 1.561 . S
C2456 C2459 1.526 . S
C2457 H2441 0.959 . S
C2457 H2442 0.959 . S
C2457 H2443 0.961 . S
C2457 C2456 1.502 . S
C2458 H2444 0.960 . S
C2458 H2445 0.961 . S
C2458 H2446 0.959 . S
C2458 C2456 1.561 . S
C2459 C2456 1.526 . S
C2459 C2460 1.396 . S
C2459 C2464 1.390 . S
C2460 C2454 1.465 . S
C2460 C2459 1.396 . S
C2460 C2461 1.399 . S
C2461 H2447 0.929 . S
C2461 C2460 1.399 . S
C2461 C2462 1.385 . S
C2462 H2448 0.931 . S
C2462 C2461 1.385 . S
C2462 C2463 1.389 . S
C2463 C2462 1.389 . S
C2463 C2464 1.387 . S
C2464 H2449 0.930 . S
C2464 C2459 1.390 . S
C2464 C2463 1.387 . S
H2465 C2477 0.930 . S
H2466 C2479 0.932 1_556 S
H2467 C2480 0.930 . S
H2468 C2484 0.959 . S
H2469 C2484 0.959 . S
H2470 C2484 0.961 . S
H2471 C2485 0.960 . S
H2472 C2485 0.961 . S
H2473 C2485 0.959 . S
H2474 C2488 0.929 . S
H2475 C2489 0.931 . S
H2476 C2491 0.930 . S
C2477 H2465 0.930 . S
C2477 C2478 1.399 . S
C2477 C2482 1.399 . S
C2478 C2477 1.399 . S
C2478 C2479 1.373 . S
C2479 H2466 0.932 1_554 S
C2479 C2478 1.373 . S
C2479 C2480 1.390 1_554 S
C2480 H2467 0.930 . S
C2480 C2479 1.390 1_556 S
C2480 C2481 1.390 1_556 S
C2481 C2480 1.390 1_554 S
C2481 C2482 1.394 . S
C2481 C2487 1.465 . S
C2482 C2477 1.399 . S
C2482 C2481 1.394 . S
C2482 C2483 1.516 . S
C2483 C2482 1.516 . S
C2483 C2484 1.502 1_565 S
C2483 C2485 1.561 . S
C2483 C2486 1.526 . S
C2484 H2468 0.959 . S
C2484 H2469 0.959 . S
C2484 H2470 0.961 . S
C2484 C2483 1.502 1_545 S
C2485 H2471 0.960 . S
C2485 H2472 0.961 . S
C2485 H2473 0.959 . S
C2485 C2483 1.561 . S
C2486 C2483 1.526 . S
C2486 C2487 1.396 . S
C2486 C2491 1.390 1_565 S
C2487 C2481 1.465 . S
C2487 C2486 1.396 . S
C2487 C2488 1.399 1_554 S
C2488 H2474 0.929 . S
C2488 C2487 1.399 1_556 S
C2488 C2489 1.385 . S
C2489 H2475 0.931 . S
C2489 C2488 1.385 . S
C2489 C2490 1.389 1_566 S
C2490 C2489 1.389 1_544 S
C2490 C2491 1.387 . S
C2491 H2476 0.930 . S
C2491 C2486 1.390 1_545 S
C2491 C2490 1.387 . S
H2492 C2504 0.930 . S
H2493 C2506 0.930 . S
H2494 C2507 0.930 . S
H2495 C2511 0.959 . S
H2496 C2511 0.959 . S
H2497 C2511 0.961 . S
H2498 C2512 0.960 . S
H2499 C2512 0.961 . S
H2500 C2512 0.959 . S
H2501 C2515 0.929 . S
H2502 C2516 0.931 . S
H2503 C2518 0.930 . S
C2504 H2492 0.930 . S
C2504 C2505 1.399 . S
C2504 C2509 1.399 . S
C2505 C2504 1.399 . S
C2505 C2506 1.376 . S
C2506 H2493 0.930 . S
C2506 C2505 1.376 . S
C2506 C2507 1.388 . S
C2507 H2494 0.930 . S
C2507 C2506 1.388 . S
C2507 C2508 1.390 . S
C2508 C2507 1.390 . S
C2508 C2509 1.394 . S
C2508 C2514 1.465 . S
C2509 C2504 1.399 . S
C2509 C2508 1.394 . S
C2509 C2510 1.516 . S
C2510 C2509 1.516 . S
C2510 C2511 1.502 . S
C2510 C2512 1.561 . S
C2510 C2513 1.526 . S
C2511 H2495 0.959 . S
C2511 H2496 0.959 . S
C2511 H2497 0.961 . S
C2511 C2510 1.502 . S
C2512 H2498 0.960 . S
C2512 H2499 0.961 . S
C2512 H2500 0.959 . S
C2512 C2510 1.561 . S
C2513 C2510 1.526 . S
C2513 C2514 1.396 . S
C2513 C2518 1.390 . S
C2514 C2508 1.465 . S
C2514 C2513 1.396 . S
C2514 C2515 1.399 . S
C2515 H2501 0.929 . S
C2515 C2514 1.399 . S
C2515 C2516 1.385 . S
C2516 H2502 0.931 . S
C2516 C2515 1.385 . S
C2516 C2517 1.389 . S
C2517 C2516 1.389 . S
C2517 C2518 1.387 . S
C2518 H2503 0.930 . S
C2518 C2513 1.390 . S
C2518 C2517 1.387 . S
H2519 C2531 0.930 . S
H2520 C2533 0.930 . S
H2521 C2534 0.930 . S
H2522 C2538 0.937 1_554 S
H2523 C2538 0.959 . S
H2524 C2538 0.961 . S
H2525 C2539 0.960 . S
H2526 C2539 0.961 . S
H2527 C2539 0.959 . S
H2528 C2542 0.929 . S
H2529 C2543 0.931 . S
H2530 C2545 0.930 1_556 S
C2531 H2519 0.930 . S
C2531 C2532 1.399 1_556 S
C2531 C2536 1.399 1_556 S
C2532 C2531 1.399 1_554 S
C2532 C2533 1.376 . S
C2533 H2520 0.930 . S
C2533 C2532 1.376 . S
C2533 C2534 1.388 . S
C2534 H2521 0.930 . S
C2534 C2533 1.388 . S
C2534 C2535 1.390 . S
C2535 C2534 1.390 . S
C2535 C2536 1.394 . S
C2535 C2541 1.465 . S
C2536 C2531 1.399 1_554 S
C2536 C2535 1.394 . S
C2536 C2537 1.516 1_554 S
C2537 C2536 1.516 1_556 S
C2537 C2538 1.502 . S
C2537 C2539 1.561 . S
C2537 C2540 1.526 1_556 S
C2538 H2522 0.937 1_556 S
C2538 H2523 0.959 . S
C2538 H2524 0.961 . S
C2538 C2537 1.502 . S
C2539 H2525 0.960 . S
C2539 H2526 0.961 . S
C2539 H2527 0.959 . S
C2539 C2537 1.561 . S
C2540 C2537 1.526 1_554 S
C2540 C2541 1.396 . S
C2540 C2545 1.390 . S
C2541 C2535 1.465 . S
C2541 C2540 1.396 . S
C2541 C2542 1.399 . S
C2542 H2528 0.929 . S
C2542 C2541 1.399 . S
C2542 C2543 1.385 . S
C2543 H2529 0.931 . S
C2543 C2542 1.385 . S
C2543 C2544 1.389 . S
C2544 C2543 1.389 . S
C2544 C2545 1.387 . S
C2545 H2530 0.930 1_554 S
C2545 C2540 1.390 . S
C2545 C2544 1.387 . S
H2546 C2558 0.930 . S
H2547 C2560 0.930 . S
H2548 C2561 0.930 . S
H2549 C2565 0.959 . S
H2550 C2565 0.959 . S
H2551 C2565 0.961 . S
H2552 C2566 0.960 . S
H2553 C2566 0.961 . S
H2554 C2566 0.959 . S
H2555 C2569 0.929 . S
H2556 C2570 0.931 . S
H2557 C2572 0.930 . S
C2558 H2546 0.930 . S
C2558 C2559 1.399 . S
C2558 C2563 1.399 . S
C2559 C2558 1.399 . S
C2559 C2560 1.376 . S
C2560 H2547 0.930 . S
C2560 C2559 1.376 . S
C2560 C2561 1.388 . S
C2561 H2548 0.930 . S
C2561 C2560 1.388 . S
C2561 C2562 1.390 . S
C2562 C2561 1.390 . S
C2562 C2563 1.394 . S
C2562 C2568 1.465 . S
C2563 C2558 1.399 . S
C2563 C2562 1.394 . S
C2563 C2564 1.516 . S
C2564 C2563 1.516 . S
C2564 C2565 1.502 . S
C2564 C2566 1.561 . S
C2564 C2567 1.526 . S
C2565 H2549 0.959 . S
C2565 H2550 0.959 . S
C2565 H2551 0.961 . S
C2565 C2564 1.502 . S
C2566 H2552 0.960 . S
C2566 H2553 0.961 . S
C2566 H2554 0.959 . S
C2566 C2564 1.561 . S
C2567 C2564 1.526 . S
C2567 C2568 1.396 . S
C2567 C2572 1.390 . S
C2568 C2562 1.465 . S
C2568 C2567 1.396 . S
C2568 C2569 1.399 . S
C2569 H2555 0.929 . S
C2569 C2568 1.399 . S
C2569 C2570 1.385 . S
C2570 H2556 0.931 . S
C2570 C2569 1.385 . S
C2570 C2571 1.389 . S
C2571 C2570 1.389 . S
C2571 C2572 1.387 . S
C2572 H2557 0.930 . S
C2572 C2567 1.390 . S
C2572 C2571 1.387 . S
H2573 C2585 0.930 . S
H2574 C2587 0.930 . S
H2575 C2588 0.930 . S
H2576 C2592 0.959 . S
H2577 C2592 0.959 . S
H2578 C2592 0.961 . S
H2579 C2593 0.960 . S
H2580 C2593 0.961 . S
H2581 C2593 0.959 . S
H2582 C2596 0.929 . S
H2583 C2597 0.931 . S
H2584 C2599 0.930 . S
C2585 H2573 0.930 . S
C2585 C2586 1.399 . S
C2585 C2590 1.399 . S
C2586 C2585 1.399 . S
C2586 C2587 1.376 . S
C2587 H2574 0.930 . S
C2587 C2586 1.376 . S
C2587 C2588 1.388 . S
C2588 H2575 0.930 . S
C2588 C2587 1.388 . S
C2588 C2589 1.390 . S
C2589 C2588 1.390 . S
C2589 C2590 1.394 . S
C2589 C2595 1.465 . S
C2590 C2585 1.399 . S
C2590 C2589 1.394 . S
C2590 C2591 1.516 . S
C2591 C2590 1.516 . S
C2591 C2592 1.502 . S
C2591 C2593 1.561 . S
C2591 C2594 1.526 . S
C2592 H2576 0.959 . S
C2592 H2577 0.959 . S
C2592 H2578 0.961 . S
C2592 C2591 1.502 . S
C2593 H2579 0.960 . S
C2593 H2580 0.961 . S
C2593 H2581 0.959 . S
C2593 C2591 1.561 . S
C2594 C2591 1.526 . S
C2594 C2595 1.396 . S
C2594 C2599 1.390 . S
C2595 C2589 1.465 . S
C2595 C2594 1.396 . S
C2595 C2596 1.399 . S
C2596 H2582 0.929 . S
C2596 C2595 1.399 . S
C2596 C2597 1.385 . S
C2597 H2583 0.931 . S
C2597 C2596 1.385 . S
C2597 C2598 1.389 . S
C2598 C2597 1.389 . S
C2598 C2599 1.387 . S
C2599 H2584 0.930 . S
C2599 C2594 1.390 . S
C2599 C2598 1.387 . S
H2600 C2612 0.930 . S
H2601 C2614 0.930 . S
H2602 C2615 0.930 . S
H2603 C2619 0.959 . S
H2604 C2619 0.959 . S
H2605 C2619 0.961 . S
H2606 C2620 0.960 . S
H2607 C2620 0.961 . S
H2608 C2620 0.959 . S
H2609 C2623 0.929 . S
H2610 C2624 0.931 . S
H2611 C2626 0.930 . S
C2612 H2600 0.930 . S
C2612 C2613 1.399 . S
C2612 C2617 1.399 . S
C2613 C2612 1.399 . S
C2613 C2614 1.376 . S
C2614 H2601 0.930 . S
C2614 C2613 1.376 . S
C2614 C2615 1.388 . S
C2615 H2602 0.930 . S
C2615 C2614 1.388 . S
C2615 C2616 1.390 . S
C2616 C2615 1.390 . S
C2616 C2617 1.394 . S
C2616 C2622 1.465 . S
C2617 C2612 1.399 . S
C2617 C2616 1.394 . S
C2617 C2618 1.516 . S
C2618 C2617 1.516 . S
C2618 C2619 1.502 . S
C2618 C2620 1.561 . S
C2618 C2621 1.526 . S
C2619 H2603 0.959 . S
C2619 H2604 0.959 . S
C2619 H2605 0.961 . S
C2619 C2618 1.502 . S
C2620 H2606 0.960 . S
C2620 H2607 0.961 . S
C2620 H2608 0.959 . S
C2620 C2618 1.561 . S
C2621 C2618 1.526 . S
C2621 C2622 1.396 . S
C2621 C2626 1.390 . S
C2622 C2616 1.465 . S
C2622 C2621 1.396 . S
C2622 C2623 1.399 . S
C2623 H2609 0.929 . S
C2623 C2622 1.399 . S
C2623 C2624 1.385 . S
C2624 H2610 0.931 . S
C2624 C2623 1.385 . S
C2624 C2625 1.389 . S
C2625 C2624 1.389 . S
C2625 C2626 1.387 . S
C2626 H2611 0.930 . S
C2626 C2621 1.390 . S
C2626 C2625 1.387 . S
H2627 C2639 0.930 . S
H2628 C2641 0.930 . S
H2629 C2642 0.930 . S
H2630 C2646 0.959 . S
H2631 C2646 0.959 . S
H2632 C2646 0.961 . S
H2633 C2647 0.960 . S
H2634 C2647 0.961 . S
H2635 C2647 0.959 . S
H2636 C2650 0.929 . S
H2637 C2651 0.931 . S
H2638 C2653 0.930 . S
C2639 H2627 0.930 . S
C2639 C2640 1.399 . S
C2639 C2644 1.399 . S
C2640 C2639 1.399 . S
C2640 C2641 1.376 . S
C2641 H2628 0.930 . S
C2641 C2640 1.376 . S
C2641 C2642 1.388 . S
C2642 H2629 0.930 . S
C2642 C2641 1.388 . S
C2642 C2643 1.390 . S
C2643 C2642 1.390 . S
C2643 C2644 1.394 . S
C2643 C2649 1.465 . S
C2644 C2639 1.399 . S
C2644 C2643 1.394 . S
C2644 C2645 1.516 . S
C2645 C2644 1.516 . S
C2645 C2646 1.502 . S
C2645 C2647 1.561 . S
C2645 C2648 1.526 . S
C2646 H2630 0.959 . S
C2646 H2631 0.959 . S
C2646 H2632 0.961 . S
C2646 C2645 1.502 . S
C2647 H2633 0.960 . S
C2647 H2634 0.961 . S
C2647 H2635 0.959 . S
C2647 C2645 1.561 . S
C2648 C2645 1.526 . S
C2648 C2649 1.396 . S
C2648 C2653 1.390 . S
C2649 C2643 1.465 . S
C2649 C2648 1.396 . S
C2649 C2650 1.399 . S
C2650 H2636 0.929 . S
C2650 C2649 1.399 . S
C2650 C2651 1.385 . S
C2651 H2637 0.931 . S
C2651 C2650 1.385 . S
C2651 C2652 1.389 . S
C2652 C2651 1.389 . S
C2652 C2653 1.387 . S
C2653 H2638 0.930 . S
C2653 C2648 1.390 . S
C2653 C2652 1.387 . S
H2654 C2666 0.930 . S
H2655 C2668 0.934 . S
H2656 C2669 0.930 . S
H2657 C2673 0.959 . S
H2658 C2673 0.959 . S
H2659 C2673 0.961 . S
H2660 C2674 0.960 . S
H2661 C2674 0.961 . S
H2662 C2674 0.959 . S
H2663 C2677 0.929 . S
H2664 C2678 0.924 1_556 S
H2665 C2680 0.930 . S
C2666 H2654 0.930 . S
C2666 C2667 1.399 . S
C2666 C2671 1.399 . S
C2667 C2666 1.399 . S
C2667 C2668 1.373 1_455 S
C2668 H2655 0.934 . S
C2668 C2667 1.373 1_655 S
C2668 C2669 1.388 . S
C2669 H2656 0.930 . S
C2669 C2668 1.388 . S
C2669 C2670 1.390 1_655 S
C2670 C2669 1.390 1_455 S
C2670 C2671 1.394 . S
C2670 C2676 1.465 . S
C2671 C2666 1.399 . S
C2671 C2670 1.394 . S
C2671 C2672 1.516 . S
C2672 C2671 1.516 . S
C2672 C2673 1.502 . S
C2672 C2674 1.561 . S
C2672 C2675 1.526 . S
C2673 H2657 0.959 . S
C2673 H2658 0.959 . S
C2673 H2659 0.961 . S
C2673 C2672 1.502 . S
C2674 H2660 0.960 . S
C2674 H2661 0.961 . S
C2674 H2662 0.959 . S
C2674 C2672 1.561 . S
C2675 C2672 1.526 . S
C2675 C2676 1.396 . S
C2675 C2680 1.390 . S
C2676 C2670 1.465 . S
C2676 C2675 1.396 . S
C2676 C2677 1.399 1_455 S
C2677 H2663 0.929 . S
C2677 C2676 1.399 1_655 S
C2677 C2678 1.385 . S
C2678 H2664 0.924 1_554 S
C2678 C2677 1.385 . S
C2678 C2679 1.389 1_655 S
C2679 C2678 1.389 1_455 S
C2679 C2680 1.387 . S
C2680 H2665 0.930 . S
C2680 C2675 1.390 . S
C2680 C2679 1.387 . S
H2681 C2693 0.930 . S
H2682 C2695 0.930 . S
H2683 C2696 0.930 . S
H2684 C2700 0.959 . S
H2685 C2700 0.959 . S
H2686 C2700 0.961 . S
H2687 C2701 0.960 . S
H2688 C2701 0.961 . S
H2689 C2701 0.959 . S
H2690 C2704 0.929 . S
H2691 C2705 0.931 . S
H2692 C2707 0.930 . S
C2693 H2681 0.930 . S
C2693 C2694 1.399 . S
C2693 C2698 1.399 . S
C2694 C2693 1.399 . S
C2694 C2695 1.376 . S
C2695 H2682 0.930 . S
C2695 C2694 1.376 . S
C2695 C2696 1.388 . S
C2696 H2683 0.930 . S
C2696 C2695 1.388 . S
C2696 C2697 1.390 . S
C2697 C2696 1.390 . S
C2697 C2698 1.394 . S
C2697 C2703 1.465 . S
C2698 C2693 1.399 . S
C2698 C2697 1.394 . S
C2698 C2699 1.516 . S
C2699 C2698 1.516 . S
C2699 C2700 1.502 . S
C2699 C2701 1.561 . S
C2699 C2702 1.526 . S
C2700 H2684 0.959 . S
C2700 H2685 0.959 . S
C2700 H2686 0.961 . S
C2700 C2699 1.502 . S
C2701 H2687 0.960 . S
C2701 H2688 0.961 . S
C2701 H2689 0.959 . S
C2701 C2699 1.561 . S
C2702 C2699 1.526 . S
C2702 C2703 1.396 . S
C2702 C2707 1.390 . S
C2703 C2697 1.465 . S
C2703 C2702 1.396 . S
C2703 C2704 1.399 . S
C2704 H2690 0.929 . S
C2704 C2703 1.399 . S
C2704 C2705 1.385 . S
C2705 H2691 0.931 . S
C2705 C2704 1.385 . S
C2705 C2706 1.389 . S
C2706 C2705 1.389 . S
C2706 C2707 1.387 . S
C2707 H2692 0.930 . S
C2707 C2702 1.390 . S
C2707 C2706 1.387 . S
H2708 C2720 0.930 . S
H2709 C2722 0.930 . S
H2710 C2723 0.930 . S
H2711 C2727 0.959 . S
H2712 C2727 0.959 . S
H2713 C2727 0.961 . S
H2714 C2728 0.960 . S
H2715 C2728 0.961 . S
H2716 C2728 0.959 . S
H2717 C2731 0.929 . S
H2718 C2732 0.931 . S
H2719 C2734 0.930 . S
C2720 H2708 0.930 . S
C2720 C2721 1.399 . S
C2720 C2725 1.399 . S
C2721 C2720 1.399 . S
C2721 C2722 1.376 . S
C2722 H2709 0.930 . S
C2722 C2721 1.376 . S
C2722 C2723 1.388 . S
C2723 H2710 0.930 . S
C2723 C2722 1.388 . S
C2723 C2724 1.390 . S
C2724 C2723 1.390 . S
C2724 C2725 1.394 . S
C2724 C2730 1.465 . S
C2725 C2720 1.399 . S
C2725 C2724 1.394 . S
C2725 C2726 1.516 . S
C2726 C2725 1.516 . S
C2726 C2727 1.502 . S
C2726 C2728 1.561 . S
C2726 C2729 1.526 . S
C2727 H2711 0.959 . S
C2727 H2712 0.959 . S
C2727 H2713 0.961 . S
C2727 C2726 1.502 . S
C2728 H2714 0.960 . S
C2728 H2715 0.961 . S
C2728 H2716 0.959 . S
C2728 C2726 1.561 . S
C2729 C2726 1.526 . S
C2729 C2730 1.396 . S
C2729 C2734 1.390 . S
C2730 C2724 1.465 . S
C2730 C2729 1.396 . S
C2730 C2731 1.399 . S
C2731 H2717 0.929 . S
C2731 C2730 1.399 . S
C2731 C2732 1.385 . S
C2732 H2718 0.931 . S
C2732 C2731 1.385 . S
C2732 C2733 1.389 . S
C2733 C2732 1.389 . S
C2733 C2734 1.387 . S
C2734 H2719 0.930 . S
C2734 C2729 1.390 . S
C2734 C2733 1.387 . S
H2735 C2747 0.930 . S
H2736 C2749 0.930 . S
H2737 C2750 0.930 . S
H2738 C2754 0.959 . S
H2739 C2754 0.959 . S
H2740 C2754 0.961 . S
H2741 C2755 0.960 . S
H2742 C2755 0.961 . S
H2743 C2755 0.959 . S
H2744 C2758 0.929 . S
H2745 C2759 0.931 . S
H2746 C2761 0.930 . S
C2747 H2735 0.930 . S
C2747 C2748 1.399 . S
C2747 C2752 1.399 . S
C2748 C2747 1.399 . S
C2748 C2749 1.376 . S
C2749 H2736 0.930 . S
C2749 C2748 1.376 . S
C2749 C2750 1.388 . S
C2750 H2737 0.930 . S
C2750 C2749 1.388 . S
C2750 C2751 1.390 . S
C2751 C2750 1.390 . S
C2751 C2752 1.394 . S
C2751 C2757 1.465 . S
C2752 C2747 1.399 . S
C2752 C2751 1.394 . S
C2752 C2753 1.516 . S
C2753 C2752 1.516 . S
C2753 C2754 1.502 . S
C2753 C2755 1.561 . S
C2753 C2756 1.526 . S
C2754 H2738 0.959 . S
C2754 H2739 0.959 . S
C2754 H2740 0.961 . S
C2754 C2753 1.502 . S
C2755 H2741 0.960 . S
C2755 H2742 0.961 . S
C2755 H2743 0.959 . S
C2755 C2753 1.561 . S
C2756 C2753 1.526 . S
C2756 C2757 1.396 . S
C2756 C2761 1.390 . S
C2757 C2751 1.465 . S
C2757 C2756 1.396 . S
C2757 C2758 1.399 . S
C2758 H2744 0.929 . S
C2758 C2757 1.399 . S
C2758 C2759 1.385 . S
C2759 H2745 0.931 . S
C2759 C2758 1.385 . S
C2759 C2760 1.389 . S
C2760 C2759 1.389 . S
C2760 C2761 1.387 . S
C2761 H2746 0.930 . S
C2761 C2756 1.390 . S
C2761 C2760 1.387 . S
H2762 C2774 0.930 1_655 S
H2763 C2776 0.930 . S
H2764 C2777 0.930 . S
H2765 C2781 0.959 . S
H2766 C2781 0.959 . S
H2767 C2781 0.961 . S
H2768 C2782 0.960 1_655 S
H2769 C2782 0.961 1_655 S
H2770 C2782 0.959 . S
H2771 C2785 0.929 . S
H2772 C2786 0.931 . S
H2773 C2788 0.930 1_655 S
C2774 H2762 0.930 1_455 S
C2774 C2775 1.399 . S
C2774 C2779 1.399 . S
C2775 C2774 1.399 . S
C2775 C2776 1.376 . S
C2776 H2763 0.930 . S
C2776 C2775 1.376 . S
C2776 C2777 1.388 . S
C2777 H2764 0.930 . S
C2777 C2776 1.388 . S
C2777 C2778 1.390 . S
C2778 C2777 1.390 . S
C2778 C2779 1.394 . S
C2778 C2784 1.465 . S
C2779 C2774 1.399 . S
C2779 C2778 1.394 . S
C2779 C2780 1.516 1_455 S
C2780 C2779 1.516 1_655 S
C2780 C2781 1.502 . S
C2780 C2782 1.561 1_655 S
C2780 C2783 1.526 1_655 S
C2781 H2765 0.959 . S
C2781 H2766 0.959 . S
C2781 H2767 0.961 . S
C2781 C2780 1.502 . S
C2782 H2768 0.960 1_455 S
C2782 H2769 0.961 1_455 S
C2782 H2770 0.959 . S
C2782 C2780 1.561 1_455 S
C2783 C2780 1.526 1_455 S
C2783 C2784 1.396 . S
C2783 C2788 1.390 . S
C2784 C2778 1.465 . S
C2784 C2783 1.396 . S
C2784 C2785 1.399 . S
C2785 H2771 0.929 . S
C2785 C2784 1.399 . S
C2785 C2786 1.385 . S
C2786 H2772 0.931 . S
C2786 C2785 1.385 . S
C2786 C2787 1.389 . S
C2787 C2786 1.389 . S
C2787 C2788 1.387 . S
C2788 H2773 0.930 1_455 S
C2788 C2783 1.390 . S
C2788 C2787 1.387 . S
H2789 C2801 0.930 . S
H2790 C2803 0.930 . S
H2791 C2804 0.930 . S
H2792 C2808 0.959 . S
H2793 C2808 0.959 . S
H2794 C2808 0.961 . S
H2795 C2809 0.960 . S
H2796 C2809 0.961 . S
H2797 C2809 0.959 . S
H2798 C2812 0.929 . S
H2799 C2813 0.931 . S
H2800 C2815 0.930 . S
C2801 H2789 0.930 . S
C2801 C2802 1.399 . S
C2801 C2806 1.399 . S
C2802 C2801 1.399 . S
C2802 C2803 1.376 . S
C2803 H2790 0.930 . S
C2803 C2802 1.376 . S
C2803 C2804 1.388 . S
C2804 H2791 0.930 . S
C2804 C2803 1.388 . S
C2804 C2805 1.390 . S
C2805 C2804 1.390 . S
C2805 C2806 1.394 . S
C2805 C2811 1.465 . S
C2806 C2801 1.399 . S
C2806 C2805 1.394 . S
C2806 C2807 1.516 . S
C2807 C2806 1.516 . S
C2807 C2808 1.502 . S
C2807 C2809 1.561 . S
C2807 C2810 1.526 . S
C2808 H2792 0.959 . S
C2808 H2793 0.959 . S
C2808 H2794 0.961 . S
C2808 C2807 1.502 . S
C2809 H2795 0.960 . S
C2809 H2796 0.961 . S
C2809 H2797 0.959 . S
C2809 C2807 1.561 . S
C2810 C2807 1.526 . S
C2810 C2811 1.396 . S
C2810 C2815 1.390 . S
C2811 C2805 1.465 . S
C2811 C2810 1.396 . S
C2811 C2812 1.399 . S
C2812 H2798 0.929 . S
C2812 C2811 1.399 . S
C2812 C2813 1.385 . S
C2813 H2799 0.931 . S
C2813 C2812 1.385 . S
C2813 C2814 1.389 . S
C2814 C2813 1.389 . S
C2814 C2815 1.387 . S
C2815 H2800 0.930 . S
C2815 C2810 1.390 . S
C2815 C2814 1.387 . S
H2816 C2828 0.930 . S
H2817 C2830 0.930 . S
H2818 C2831 0.930 . S
H2819 C2835 0.959 . S
H2820 C2835 0.959 . S
H2821 C2835 0.961 . S
H2822 C2836 0.960 . S
H2823 C2836 0.961 . S
H2824 C2836 0.959 . S
H2825 C2839 0.929 . S
H2826 C2840 0.931 . S
H2827 C2842 0.930 . S
C2828 H2816 0.930 . S
C2828 C2829 1.399 . S
C2828 C2833 1.399 . S
C2829 C2828 1.399 . S
C2829 C2830 1.376 . S
C2830 H2817 0.930 . S
C2830 C2829 1.376 . S
C2830 C2831 1.388 . S
C2831 H2818 0.930 . S
C2831 C2830 1.388 . S
C2831 C2832 1.390 . S
C2832 C2831 1.390 . S
C2832 C2833 1.394 . S
C2832 C2838 1.465 . S
C2833 C2828 1.399 . S
C2833 C2832 1.394 . S
C2833 C2834 1.516 . S
C2834 C2833 1.516 . S
C2834 C2835 1.502 . S
C2834 C2836 1.561 . S
C2834 C2837 1.526 . S
C2835 H2819 0.959 . S
C2835 H2820 0.959 . S
C2835 H2821 0.961 . S
C2835 C2834 1.502 . S
C2836 H2822 0.960 . S
C2836 H2823 0.961 . S
C2836 H2824 0.959 . S
C2836 C2834 1.561 . S
C2837 C2834 1.526 . S
C2837 C2838 1.396 . S
C2837 C2842 1.390 . S
C2838 C2832 1.465 . S
C2838 C2837 1.396 . S
C2838 C2839 1.399 . S
C2839 H2825 0.929 . S
C2839 C2838 1.399 . S
C2839 C2840 1.385 . S
C2840 H2826 0.931 . S
C2840 C2839 1.385 . S
C2840 C2841 1.389 . S
C2841 C2840 1.389 . S
C2841 C2842 1.387 . S
C2842 H2827 0.930 . S
C2842 C2837 1.390 . S
C2842 C2841 1.387 . S
H2843 C2855 0.930 . S
H2844 C2857 0.930 . S
H2845 C2858 0.930 . S
H2846 C2862 0.959 . S
H2847 C2862 0.959 . S
H2848 C2862 0.961 . S
H2849 C2863 0.960 . S
H2850 C2863 0.961 . S
H2851 C2863 0.959 . S
H2852 C2866 0.929 . S
H2853 C2867 0.931 . S
H2854 C2869 0.930 . S
C2855 H2843 0.930 . S
C2855 C2856 1.399 . S
C2855 C2860 1.399 . S
C2856 C2855 1.399 . S
C2856 C2857 1.376 . S
C2857 H2844 0.930 . S
C2857 C2856 1.376 . S
C2857 C2858 1.388 . S
C2858 H2845 0.930 . S
C2858 C2857 1.388 . S
C2858 C2859 1.390 . S
C2859 C2858 1.390 . S
C2859 C2860 1.394 . S
C2859 C2865 1.465 . S
C2860 C2855 1.399 . S
C2860 C2859 1.394 . S
C2860 C2861 1.516 . S
C2861 C2860 1.516 . S
C2861 C2862 1.502 . S
C2861 C2863 1.561 . S
C2861 C2864 1.526 . S
C2862 H2846 0.959 . S
C2862 H2847 0.959 . S
C2862 H2848 0.961 . S
C2862 C2861 1.502 . S
C2863 H2849 0.960 . S
C2863 H2850 0.961 . S
C2863 H2851 0.959 . S
C2863 C2861 1.561 . S
C2864 C2861 1.526 . S
C2864 C2865 1.396 . S
C2864 C2869 1.390 . S
C2865 C2859 1.465 . S
C2865 C2864 1.396 . S
C2865 C2866 1.399 . S
C2866 H2852 0.929 . S
C2866 C2865 1.399 . S
C2866 C2867 1.385 . S
C2867 H2853 0.931 . S
C2867 C2866 1.385 . S
C2867 C2868 1.389 . S
C2868 C2867 1.389 . S
C2868 C2869 1.387 . S
C2869 H2854 0.930 . S
C2869 C2864 1.390 . S
C2869 C2868 1.387 . S
H2870 C2882 0.930 . S
H2871 C2884 0.930 . S
H2872 C2885 0.930 . S
H2873 C2889 0.959 1_455 S
H2874 C2889 0.959 . S
H2875 C2889 0.961 . S
H2876 C2890 0.960 . S
H2877 C2890 0.961 . S
H2878 C2890 0.959 . S
H2879 C2893 0.929 . S
H2880 C2894 0.931 . S
H2881 C2896 0.930 . S
C2882 H2870 0.930 . S
C2882 C2883 1.399 . S
C2882 C2887 1.399 . S
C2883 C2882 1.399 . S
C2883 C2884 1.376 . S
C2884 H2871 0.930 . S
C2884 C2883 1.376 . S
C2884 C2885 1.388 . S
C2885 H2872 0.930 . S
C2885 C2884 1.388 . S
C2885 C2886 1.390 . S
C2886 C2885 1.390 . S
C2886 C2887 1.394 . S
C2886 C2892 1.465 . S
C2887 C2882 1.399 . S
C2887 C2886 1.394 . S
C2887 C2888 1.516 . S
C2888 C2887 1.516 . S
C2888 C2889 1.502 . S
C2888 C2890 1.561 . S
C2888 C2891 1.526 . S
C2889 H2873 0.959 1_655 S
C2889 H2874 0.959 . S
C2889 H2875 0.961 . S
C2889 C2888 1.502 . S
C2890 H2876 0.960 . S
C2890 H2877 0.961 . S
C2890 H2878 0.959 . S
C2890 C2888 1.561 . S
C2891 C2888 1.526 . S
C2891 C2892 1.396 . S
C2891 C2896 1.390 . S
C2892 C2886 1.465 . S
C2892 C2891 1.396 . S
C2892 C2893 1.399 . S
C2893 H2879 0.929 . S
C2893 C2892 1.399 . S
C2893 C2894 1.385 . S
C2894 H2880 0.931 . S
C2894 C2893 1.385 . S
C2894 C2895 1.389 . S
C2895 C2894 1.389 . S
C2895 C2896 1.387 . S
C2896 H2881 0.930 . S
C2896 C2891 1.390 . S
C2896 C2895 1.387 . S
H2897 C2909 0.930 . S
H2898 C2911 0.930 . S
H2899 C2912 0.930 . S
H2900 C2916 0.959 . S
H2901 C2916 0.959 . S
H2902 C2916 0.961 . S
H2903 C2917 0.960 . S
H2904 C2917 0.961 . S
H2905 C2917 0.959 . S
H2906 C2920 0.929 . S
H2907 C2921 0.931 . S
H2908 C2923 0.930 . S
C2909 H2897 0.930 . S
C2909 C2910 1.399 . S
C2909 C2914 1.399 . S
C2910 C2909 1.399 . S
C2910 C2911 1.376 . S
C2911 H2898 0.930 . S
C2911 C2910 1.376 . S
C2911 C2912 1.388 . S
C2912 H2899 0.930 . S
C2912 C2911 1.388 . S
C2912 C2913 1.390 . S
C2913 C2912 1.390 . S
C2913 C2914 1.394 . S
C2913 C2919 1.465 . S
C2914 C2909 1.399 . S
C2914 C2913 1.394 . S
C2914 C2915 1.516 . S
C2915 C2914 1.516 . S
C2915 C2916 1.502 . S
C2915 C2917 1.561 . S
C2915 C2918 1.526 . S
C2916 H2900 0.959 . S
C2916 H2901 0.959 . S
C2916 H2902 0.961 . S
C2916 C2915 1.502 . S
C2917 H2903 0.960 . S
C2917 H2904 0.961 . S
C2917 H2905 0.959 . S
C2917 C2915 1.561 . S
C2918 C2915 1.526 . S
C2918 C2919 1.396 . S
C2918 C2923 1.390 . S
C2919 C2913 1.465 . S
C2919 C2918 1.396 . S
C2919 C2920 1.399 . S
C2920 H2906 0.929 . S
C2920 C2919 1.399 . S
C2920 C2921 1.385 . S
C2921 H2907 0.931 . S
C2921 C2920 1.385 . S
C2921 C2922 1.389 . S
C2922 C2921 1.389 . S
C2922 C2923 1.387 . S
C2923 H2908 0.930 . S
C2923 C2918 1.390 . S
C2923 C2922 1.387 . S
H2924 C2936 0.930 . S
H2925 C2938 0.930 . S
H2926 C2939 0.930 . S
H2927 C2943 0.959 . S
H2928 C2943 0.959 . S
H2929 C2943 0.961 . S
H2930 C2944 0.960 . S
H2931 C2944 0.961 . S
H2932 C2944 0.959 . S
H2933 C2947 0.929 . S
H2934 C2948 0.931 . S
H2935 C2950 0.930 . S
C2936 H2924 0.930 . S
C2936 C2937 1.399 . S
C2936 C2941 1.399 . S
C2937 C2936 1.399 . S
C2937 C2938 1.376 . S
C2938 H2925 0.930 . S
C2938 C2937 1.376 . S
C2938 C2939 1.388 . S
C2939 H2926 0.930 . S
C2939 C2938 1.388 . S
C2939 C2940 1.390 . S
C2940 C2939 1.390 . S
C2940 C2941 1.394 . S
C2940 C2946 1.465 . S
C2941 C2936 1.399 . S
C2941 C2940 1.394 . S
C2941 C2942 1.516 . S
C2942 C2941 1.516 . S
C2942 C2943 1.502 . S
C2942 C2944 1.561 . S
C2942 C2945 1.526 . S
C2943 H2927 0.959 . S
C2943 H2928 0.959 . S
C2943 H2929 0.961 . S
C2943 C2942 1.502 . S
C2944 H2930 0.960 . S
C2944 H2931 0.961 . S
C2944 H2932 0.959 . S
C2944 C2942 1.561 . S
C2945 C2942 1.526 . S
C2945 C2946 1.396 . S
C2945 C2950 1.390 . S
C2946 C2940 1.465 . S
C2946 C2945 1.396 . S
C2946 C2947 1.399 . S
C2947 H2933 0.929 . S
C2947 C2946 1.399 . S
C2947 C2948 1.385 . S
C2948 H2934 0.931 . S
C2948 C2947 1.385 . S
C2948 C2949 1.389 . S
C2949 C2948 1.389 . S
C2949 C2950 1.387 . S
C2950 H2935 0.930 . S
C2950 C2945 1.390 . S
C2950 C2949 1.387 . S
H2951 C2963 0.930 . S
H2952 C2965 0.930 . S
H2953 C2966 0.930 . S
H2954 C2970 0.959 . S
H2955 C2970 0.959 . S
H2956 C2970 0.961 . S
H2957 C2971 0.960 . S
H2958 C2971 0.961 . S
H2959 C2971 0.959 . S
H2960 C2974 0.929 . S
H2961 C2975 0.931 . S
H2962 C2977 0.930 . S
C2963 H2951 0.930 . S
C2963 C2964 1.399 . S
C2963 C2968 1.399 . S
C2964 C2963 1.399 . S
C2964 C2965 1.376 . S
C2965 H2952 0.930 . S
C2965 C2964 1.376 . S
C2965 C2966 1.388 . S
C2966 H2953 0.930 . S
C2966 C2965 1.388 . S
C2966 C2967 1.390 . S
C2967 C2966 1.390 . S
C2967 C2968 1.394 . S
C2967 C2973 1.465 . S
C2968 C2963 1.399 . S
C2968 C2967 1.394 . S
C2968 C2969 1.516 . S
C2969 C2968 1.516 . S
C2969 C2970 1.502 . S
C2969 C2971 1.561 . S
C2969 C2972 1.526 . S
C2970 H2954 0.959 . S
C2970 H2955 0.959 . S
C2970 H2956 0.961 . S
C2970 C2969 1.502 . S
C2971 H2957 0.960 . S
C2971 H2958 0.961 . S
C2971 H2959 0.959 . S
C2971 C2969 1.561 . S
C2972 C2969 1.526 . S
C2972 C2973 1.396 . S
C2972 C2977 1.390 . S
C2973 C2967 1.465 . S
C2973 C2972 1.396 . S
C2973 C2974 1.399 . S
C2974 H2960 0.929 . S
C2974 C2973 1.399 . S
C2974 C2975 1.385 . S
C2975 H2961 0.931 . S
C2975 C2974 1.385 . S
C2975 C2976 1.389 . S
C2976 C2975 1.389 . S
C2976 C2977 1.387 . S
C2977 H2962 0.930 . S
C2977 C2972 1.390 . S
C2977 C2976 1.387 . S
H2978 C2990 0.930 . S
H2979 C2992 0.930 . S
H2980 C2993 0.930 . S
H2981 C2997 0.959 . S
H2982 C2997 0.959 . S
H2983 C2997 0.961 . S
H2984 C2998 0.960 . S
H2985 C2998 0.961 . S
H2986 C2998 0.959 . S
H2987 C3001 0.929 . S
H2988 C3002 0.931 . S
H2989 C3004 0.930 . S
C2990 H2978 0.930 . S
C2990 C2991 1.399 . S
C2990 C2995 1.399 . S
C2991 C2990 1.399 . S
C2991 C2992 1.376 . S
C2992 H2979 0.930 . S
C2992 C2991 1.376 . S
C2992 C2993 1.388 . S
C2993 H2980 0.930 . S
C2993 C2992 1.388 . S
C2993 C2994 1.390 . S
C2994 C2993 1.390 . S
C2994 C2995 1.394 . S
C2994 C3000 1.465 . S
C2995 C2990 1.399 . S
C2995 C2994 1.394 . S
C2995 C2996 1.516 . S
C2996 C2995 1.516 . S
C2996 C2997 1.502 . S
C2996 C2998 1.561 . S
C2996 C2999 1.526 . S
C2997 H2981 0.959 . S
C2997 H2982 0.959 . S
C2997 H2983 0.961 . S
C2997 C2996 1.502 . S
C2998 H2984 0.960 . S
C2998 H2985 0.961 . S
C2998 H2986 0.959 . S
C2998 C2996 1.561 . S
C2999 C2996 1.526 . S
C2999 C3000 1.396 . S
C2999 C3004 1.390 . S
C3000 C2994 1.465 . S
C3000 C2999 1.396 . S
C3000 C3001 1.399 . S
C3001 H2987 0.929 . S
C3001 C3000 1.399 . S
C3001 C3002 1.385 . S
C3002 H2988 0.931 . S
C3002 C3001 1.385 . S
C3002 C3003 1.389 . S
C3003 C3002 1.389 . S
C3003 C3004 1.387 . S
C3004 H2989 0.930 . S
C3004 C2999 1.390 . S
C3004 C3003 1.387 . S
H3005 C3017 0.930 . S
H3006 C3019 0.930 . S
H3007 C3020 0.930 . S
H3008 C3024 0.959 . S
H3009 C3024 0.959 . S
H3010 C3024 0.961 . S
H3011 C3025 0.960 . S
H3012 C3025 0.961 . S
H3013 C3025 0.959 . S
H3014 C3028 0.929 . S
H3015 C3029 0.931 . S
H3016 C3031 0.930 . S
C3017 H3005 0.930 . S
C3017 C3018 1.399 . S
C3017 C3022 1.399 . S
C3018 C3017 1.399 . S
C3018 C3019 1.376 . S
C3019 H3006 0.930 . S
C3019 C3018 1.376 . S
C3019 C3020 1.388 . S
C3020 H3007 0.930 . S
C3020 C3019 1.388 . S
C3020 C3021 1.390 . S
C3021 C3020 1.390 . S
C3021 C3022 1.394 . S
C3021 C3027 1.465 . S
C3022 C3017 1.399 . S
C3022 C3021 1.394 . S
C3022 C3023 1.516 . S
C3023 C3022 1.516 . S
C3023 C3024 1.502 . S
C3023 C3025 1.561 . S
C3023 C3026 1.526 . S
C3024 H3008 0.959 . S
C3024 H3009 0.959 . S
C3024 H3010 0.961 . S
C3024 C3023 1.502 . S
C3025 H3011 0.960 . S
C3025 H3012 0.961 . S
C3025 H3013 0.959 . S
C3025 C3023 1.561 . S
C3026 C3023 1.526 . S
C3026 C3027 1.396 . S
C3026 C3031 1.390 . S
C3027 C3021 1.465 . S
C3027 C3026 1.396 . S
C3027 C3028 1.399 . S
C3028 H3014 0.929 . S
C3028 C3027 1.399 . S
C3028 C3029 1.385 . S
C3029 H3015 0.931 . S
C3029 C3028 1.385 . S
C3029 C3030 1.389 . S
C3030 C3029 1.389 . S
C3030 C3031 1.387 . S
C3031 H3016 0.930 . S
C3031 C3026 1.390 . S
C3031 C3030 1.387 . S
H3032 C3044 0.930 . S
H3033 C3046 0.930 . S
H3034 C3047 0.930 . S
H3035 C3051 0.959 . S
H3036 C3051 0.959 . S
H3037 C3051 0.961 . S
H3038 C3052 0.960 . S
H3039 C3052 0.961 . S
H3040 C3052 0.959 . S
H3041 C3055 0.929 . S
H3042 C3056 0.931 . S
H3043 C3058 0.930 . S
C3044 H3032 0.930 . S
C3044 C3045 1.399 . S
C3044 C3049 1.399 . S
C3045 C3044 1.399 . S
C3045 C3046 1.376 . S
C3046 H3033 0.930 . S
C3046 C3045 1.376 . S
C3046 C3047 1.388 . S
C3047 H3034 0.930 . S
C3047 C3046 1.388 . S
C3047 C3048 1.390 . S
C3048 C3047 1.390 . S
C3048 C3049 1.394 . S
C3048 C3054 1.465 . S
C3049 C3044 1.399 . S
C3049 C3048 1.394 . S
C3049 C3050 1.516 . S
C3050 C3049 1.516 . S
C3050 C3051 1.502 . S
C3050 C3052 1.561 . S
C3050 C3053 1.526 . S
C3051 H3035 0.959 . S
C3051 H3036 0.959 . S
C3051 H3037 0.961 . S
C3051 C3050 1.502 . S
C3052 H3038 0.960 . S
C3052 H3039 0.961 . S
C3052 H3040 0.959 . S
C3052 C3050 1.561 . S
C3053 C3050 1.526 . S
C3053 C3054 1.396 . S
C3053 C3058 1.390 . S
C3054 C3048 1.465 . S
C3054 C3053 1.396 . S
C3054 C3055 1.399 . S
C3055 H3041 0.929 . S
C3055 C3054 1.399 . S
C3055 C3056 1.385 . S
C3056 H3042 0.931 . S
C3056 C3055 1.385 . S
C3056 C3057 1.389 . S
C3057 C3056 1.389 . S
C3057 C3058 1.387 . S
C3058 H3043 0.930 . S
C3058 C3053 1.390 . S
C3058 C3057 1.387 . S
H3059 C3071 0.930 . S
H3060 C3073 0.930 . S
H3061 C3074 0.930 . S
H3062 C3078 0.959 . S
H3063 C3078 0.959 . S
H3064 C3078 0.961 . S
H3065 C3079 0.960 . S
H3066 C3079 0.961 . S
H3067 C3079 0.959 . S
H3068 C3082 0.929 1_545 S
H3069 C3083 0.931 . S
H3070 C3085 0.930 . S
C3071 H3059 0.930 . S
C3071 C3072 1.399 . S
C3071 C3076 1.399 . S
C3072 C3071 1.399 . S
C3072 C3073 1.376 . S
C3073 H3060 0.930 . S
C3073 C3072 1.376 . S
C3073 C3074 1.388 . S
C3074 H3061 0.930 . S
C3074 C3073 1.388 . S
C3074 C3075 1.390 . S
C3075 C3074 1.390 . S
C3075 C3076 1.394 . S
C3075 C3081 1.465 . S
C3076 C3071 1.399 . S
C3076 C3075 1.394 . S
C3076 C3077 1.516 . S
C3077 C3076 1.516 . S
C3077 C3078 1.502 . S
C3077 C3079 1.561 . S
C3077 C3080 1.526 . S
C3078 H3062 0.959 . S
C3078 H3063 0.959 . S
C3078 H3064 0.961 . S
C3078 C3077 1.502 . S
C3079 H3065 0.960 . S
C3079 H3066 0.961 . S
C3079 H3067 0.959 . S
C3079 C3077 1.561 . S
C3080 C3077 1.526 . S
C3080 C3081 1.396 . S
C3080 C3085 1.390 . S
C3081 C3075 1.465 . S
C3081 C3080 1.396 . S
C3081 C3082 1.399 . S
C3082 H3068 0.929 1_565 S
C3082 C3081 1.399 . S
C3082 C3083 1.385 1_565 S
C3083 H3069 0.931 . S
C3083 C3082 1.385 1_545 S
C3083 C3084 1.389 1_545 S
C3084 C3083 1.389 1_565 S
C3084 C3085 1.387 . S
C3085 H3070 0.930 . S
C3085 C3080 1.390 . S
C3085 C3084 1.387 . S
H3086 C3098 0.930 . S
H3087 C3100 0.930 . S
H3088 C3101 0.930 . S
H3089 C3105 0.959 . S
H3090 C3105 0.959 . S
H3091 C3105 0.961 . S
H3092 C3106 0.960 . S
H3093 C3106 0.961 . S
H3094 C3106 0.959 . S
H3095 C3109 0.929 . S
H3096 C3110 0.931 . S
H3097 C3112 0.930 . S
C3098 H3086 0.930 . S
C3098 C3099 1.399 . S
C3098 C3103 1.399 . S
C3099 C3098 1.399 . S
C3099 C3100 1.376 . S
C3100 H3087 0.930 . S
C3100 C3099 1.376 . S
C3100 C3101 1.388 . S
C3101 H3088 0.930 . S
C3101 C3100 1.388 . S
C3101 C3102 1.390 . S
C3102 C3101 1.390 . S
C3102 C3103 1.394 . S
C3102 C3108 1.465 . S
C3103 C3098 1.399 . S
C3103 C3102 1.394 . S
C3103 C3104 1.516 . S
C3104 C3103 1.516 . S
C3104 C3105 1.502 . S
C3104 C3106 1.561 . S
C3104 C3107 1.526 . S
C3105 H3089 0.959 . S
C3105 H3090 0.959 . S
C3105 H3091 0.961 . S
C3105 C3104 1.502 . S
C3106 H3092 0.960 . S
C3106 H3093 0.961 . S
C3106 H3094 0.959 . S
C3106 C3104 1.561 . S
C3107 C3104 1.526 . S
C3107 C3108 1.396 . S
C3107 C3112 1.390 . S
C3108 C3102 1.465 . S
C3108 C3107 1.396 . S
C3108 C3109 1.399 . S
C3109 H3095 0.929 . S
C3109 C3108 1.399 . S
C3109 C3110 1.385 . S
C3110 H3096 0.931 . S
C3110 C3109 1.385 . S
C3110 C3111 1.389 . S
C3111 C3110 1.389 . S
C3111 C3112 1.387 . S
C3112 H3097 0.930 . S
C3112 C3107 1.390 . S
C3112 C3111 1.387 . S
H3113 C3125 0.930 . S
H3114 C3127 0.930 . S
H3115 C3128 0.930 . S
H3116 C3132 0.959 . S
H3117 C3132 0.959 . S
H3118 C3132 0.961 . S
H3119 C3133 0.960 . S
H3120 C3133 0.961 . S
H3121 C3133 0.959 . S
H3122 C3136 0.929 . S
H3123 C3137 0.931 . S
H3124 C3139 0.930 . S
C3125 H3113 0.930 . S
C3125 C3126 1.399 . S
C3125 C3130 1.399 . S
C3126 C3125 1.399 . S
C3126 C3127 1.376 1_556 S
C3127 H3114 0.930 . S
C3127 C3126 1.376 1_554 S
C3127 C3128 1.388 . S
C3128 H3115 0.930 . S
C3128 C3127 1.388 . S
C3128 C3129 1.390 . S
C3129 C3128 1.390 . S
C3129 C3130 1.394 1_554 S
C3129 C3135 1.465 . S
C3130 C3125 1.399 . S
C3130 C3129 1.394 1_556 S
C3130 C3131 1.516 . S
C3131 C3130 1.516 . S
C3131 C3132 1.502 . S
C3131 C3133 1.561 . S
C3131 C3134 1.526 . S
C3132 H3116 0.959 . S
C3132 H3117 0.959 . S
C3132 H3118 0.961 . S
C3132 C3131 1.502 . S
C3133 H3119 0.960 . S
C3133 H3120 0.961 . S
C3133 H3121 0.959 . S
C3133 C3131 1.561 . S
C3134 C3131 1.526 . S
C3134 C3135 1.396 1_556 S
C3134 C3139 1.390 . S
C3135 C3129 1.465 . S
C3135 C3134 1.396 1_554 S
C3135 C3136 1.399 . S
C3136 H3122 0.929 . S
C3136 C3135 1.399 . S
C3136 C3137 1.385 . S
C3137 H3123 0.931 . S
C3137 C3136 1.385 . S
C3137 C3138 1.389 . S
C3138 C3137 1.389 . S
C3138 C3139 1.387 1_554 S
C3139 H3124 0.930 . S
C3139 C3134 1.390 . S
C3139 C3138 1.387 1_556 S
H3140 C3152 0.930 . S
H3141 C3154 0.930 . S
H3142 C3155 0.930 . S
H3143 C3159 0.959 . S
H3144 C3159 0.959 . S
H3145 C3159 0.961 . S
H3146 C3160 0.960 . S
H3147 C3160 0.961 . S
H3148 C3160 0.959 . S
H3149 C3163 0.929 . S
H3150 C3164 0.931 . S
H3151 C3166 0.930 . S
C3152 H3140 0.930 . S
C3152 C3153 1.399 . S
C3152 C3157 1.399 . S
C3153 C3152 1.399 . S
C3153 C3154 1.376 . S
C3154 H3141 0.930 . S
C3154 C3153 1.376 . S
C3154 C3155 1.388 . S
C3155 H3142 0.930 . S
C3155 C3154 1.388 . S
C3155 C3156 1.390 . S
C3156 C3155 1.390 . S
C3156 C3157 1.394 . S
C3156 C3162 1.465 . S
C3157 C3152 1.399 . S
C3157 C3156 1.394 . S
C3157 C3158 1.516 . S
C3158 C3157 1.516 . S
C3158 C3159 1.502 . S
C3158 C3160 1.561 . S
C3158 C3161 1.526 . S
C3159 H3143 0.959 . S
C3159 H3144 0.959 . S
C3159 H3145 0.961 . S
C3159 C3158 1.502 . S
C3160 H3146 0.960 . S
C3160 H3147 0.961 . S
C3160 H3148 0.959 . S
C3160 C3158 1.561 . S
C3161 C3158 1.526 . S
C3161 C3162 1.396 . S
C3161 C3166 1.390 . S
C3162 C3156 1.465 . S
C3162 C3161 1.396 . S
C3162 C3163 1.399 . S
C3163 H3149 0.929 . S
C3163 C3162 1.399 . S
C3163 C3164 1.385 . S
C3164 H3150 0.931 . S
C3164 C3163 1.385 . S
C3164 C3165 1.389 . S
C3165 C3164 1.389 . S
C3165 C3166 1.387 . S
C3166 H3151 0.930 . S
C3166 C3161 1.390 . S
C3166 C3165 1.387 . S
H3167 C3179 0.930 . S
H3168 C3181 0.930 . S
H3169 C3182 0.930 . S
H3170 C3186 0.959 . S
H3171 C3186 0.959 . S
H3172 C3186 0.961 . S
H3173 C3187 0.960 . S
H3174 C3187 0.961 . S
H3175 C3187 0.959 . S
H3176 C3190 0.929 . S
H3177 C3191 0.931 . S
H3178 C3193 0.930 . S
C3179 H3167 0.930 . S
C3179 C3180 1.399 1_556 S
C3179 C3184 1.399 . S
C3180 C3179 1.399 1_554 S
C3180 C3181 1.376 . S
C3181 H3168 0.930 . S
C3181 C3180 1.376 . S
C3181 C3182 1.388 . S
C3182 H3169 0.930 . S
C3182 C3181 1.388 . S
C3182 C3183 1.390 . S
C3183 C3182 1.390 . S
C3183 C3184 1.394 1_554 S
C3183 C3189 1.465 . S
C3184 C3179 1.399 . S
C3184 C3183 1.394 1_556 S
C3184 C3185 1.516 . S
C3185 C3184 1.516 . S
C3185 C3186 1.502 . S
C3185 C3187 1.561 . S
C3185 C3188 1.526 . S
C3186 H3170 0.959 . S
C3186 H3171 0.959 . S
C3186 H3172 0.961 . S
C3186 C3185 1.502 . S
C3187 H3173 0.960 . S
C3187 H3174 0.961 . S
C3187 H3175 0.959 . S
C3187 C3185 1.561 . S
C3188 C3185 1.526 . S
C3188 C3189 1.396 1_556 S
C3188 C3193 1.390 . S
C3189 C3183 1.465 . S
C3189 C3188 1.396 1_554 S
C3189 C3190 1.399 . S
C3190 H3176 0.929 . S
C3190 C3189 1.399 . S
C3190 C3191 1.385 . S
C3191 H3177 0.931 . S
C3191 C3190 1.385 . S
C3191 C3192 1.389 1_554 S
C3192 C3191 1.389 1_556 S
C3192 C3193 1.387 . S
C3193 H3178 0.930 . S
C3193 C3188 1.390 . S
C3193 C3192 1.387 . S
H3194 C3206 0.930 . S
H3195 C3208 0.930 . S
H3196 C3209 0.930 . S
H3197 C3213 0.959 . S
H3198 C3213 0.959 . S
H3199 C3213 0.961 . S
H3200 C3214 0.960 . S
H3201 C3214 0.961 . S
H3202 C3214 0.959 . S
H3203 C3217 0.929 . S
H3204 C3218 0.931 . S
H3205 C3220 0.930 . S
C3206 H3194 0.930 . S
C3206 C3207 1.399 . S
C3206 C3211 1.399 . S
C3207 C3206 1.399 . S
C3207 C3208 1.376 . S
C3208 H3195 0.930 . S
C3208 C3207 1.376 . S
C3208 C3209 1.388 . S
C3209 H3196 0.930 . S
C3209 C3208 1.388 . S
C3209 C3210 1.390 . S
C3210 C3209 1.390 . S
C3210 C3211 1.394 . S
C3210 C3216 1.465 . S
C3211 C3206 1.399 . S
C3211 C3210 1.394 . S
C3211 C3212 1.516 . S
C3212 C3211 1.516 . S
C3212 C3213 1.502 . S
C3212 C3214 1.561 . S
C3212 C3215 1.526 . S
C3213 H3197 0.959 . S
C3213 H3198 0.959 . S
C3213 H3199 0.961 . S
C3213 C3212 1.502 . S
C3214 H3200 0.960 . S
C3214 H3201 0.961 . S
C3214 H3202 0.959 . S
C3214 C3212 1.561 . S
C3215 C3212 1.526 . S
C3215 C3216 1.396 . S
C3215 C3220 1.390 . S
C3216 C3210 1.465 . S
C3216 C3215 1.396 . S
C3216 C3217 1.399 . S
C3217 H3203 0.929 . S
C3217 C3216 1.399 . S
C3217 C3218 1.385 . S
C3218 H3204 0.931 . S
C3218 C3217 1.385 . S
C3218 C3219 1.389 . S
C3219 C3218 1.389 . S
C3219 C3220 1.387 . S
C3220 H3205 0.930 . S
C3220 C3215 1.390 . S
C3220 C3219 1.387 . S
H3221 C3233 0.930 . S
H3222 C3235 0.930 . S
H3223 C3236 0.930 . S
H3224 C3240 0.959 . S
H3225 C3240 0.959 . S
H3226 C3240 0.961 . S
H3227 C3241 0.960 . S
H3228 C3241 0.961 . S
H3229 C3241 0.959 . S
H3230 C3244 0.929 . S
H3231 C3245 0.931 . S
H3232 C3247 0.930 . S
C3233 H3221 0.930 . S
C3233 C3234 1.399 . S
C3233 C3238 1.399 . S
C3234 C3233 1.399 . S
C3234 C3235 1.376 . S
C3235 H3222 0.930 . S
C3235 C3234 1.376 . S
C3235 C3236 1.388 . S
C3236 H3223 0.930 . S
C3236 C3235 1.388 . S
C3236 C3237 1.390 . S
C3237 C3236 1.390 . S
C3237 C3238 1.394 . S
C3237 C3243 1.465 . S
C3238 C3233 1.399 . S
C3238 C3237 1.394 . S
C3238 C3239 1.516 . S
C3239 C3238 1.516 . S
C3239 C3240 1.502 . S
C3239 C3241 1.561 . S
C3239 C3242 1.526 . S
C3240 H3224 0.959 . S
C3240 H3225 0.959 . S
C3240 H3226 0.961 . S
C3240 C3239 1.502 . S
C3241 H3227 0.960 . S
C3241 H3228 0.961 . S
C3241 H3229 0.959 . S
C3241 C3239 1.561 . S
C3242 C3239 1.526 . S
C3242 C3243 1.396 . S
C3242 C3247 1.390 . S
C3243 C3237 1.465 . S
C3243 C3242 1.396 . S
C3243 C3244 1.399 . S
C3244 H3230 0.929 . S
C3244 C3243 1.399 . S
C3244 C3245 1.385 . S
C3245 H3231 0.931 . S
C3245 C3244 1.385 . S
C3245 C3246 1.389 . S
C3246 C3245 1.389 . S
C3246 C3247 1.387 . S
C3247 H3232 0.930 . S
C3247 C3242 1.390 . S
C3247 C3246 1.387 . S
C669 C111 1.444 . S
C681 C354 1.499 1_556 S
C696 C64 1.609 . S
C708 C365 1.648 . S
C723 C77 0.917 . S
C735 C394 0.961 . S
C762 C397 1.235 . S
C750 C95 1.262 . S
C777 C25 1.398 . S
C789 C435 1.343 . S
C816 C438 0.975 . S
C804 C36 0.969 . S
C843 C465 1.469 . S
C831 C50 1.425 . S
C858 C11 1.542 . S
C870 C494 1.505 . S
C897 C345 1.486 1_655 S
C885 C237 1.429 . S
C912 C245 0.811 . S
C924 C357 0.776 . S
C951 C385 1.479 . S
C939 C279 1.439 . S
C978 C414 1.012 . S
C966 C175 1.062 . S
C993 C231 0.850 . S
C1005 C418 0.872 . S
C1032 C444 1.507 . S
C1020 C251 1.440 . S
C1059 C457 0.811 . S
C1047 C273 0.747 . S
C1086 C485 1.512 . S
C1074 C181 1.425 . S
C1113 C337 1.356 1_565 S
C1101 C165 1.421 . S
C1128 C288 1.678 . S
C1140 C504 1.735 1_554 S
C1167 C535 1.415 . S
C1155 C333 1.514 . S
C1194 C554 0.926 . S
C1182 C316 0.917 . S
C1209 C123 1.249 . S
C1221 C477 1.198 . S
C1236 C137 1.372 . S
C1248 C377 1.329 . S
C1263 C330 1.520 . S
C1275 C565 1.589 . S
C1302 C594 0.910 . S
C1290 C302 0.895 . S
C1329 C355 1.615 . S
C1317 C63 1.633 . S
C1356 C584 1.640 . S
C1344 C106 1.652 . S
C1371 C97 0.998 . S
C1383 C395 1.040 . S
C1398 C81 1.316 . S
C1410 C558 1.311 . S
C1437 C434 1.480 . S
C1425 C13 1.465 . S
C1452 C55 0.945 . S
C1464 C517 0.988 . S
C1491 C464 1.419 . S
C1479 C35 1.441 . S
C1518 C615 1.674 . S
C1506 C21 1.709 . S
C1545 C344 1.578 . S
C1533 C147 1.582 . S
C1572 C578 0.803 . S
C1560 C321 0.806 . S
C1587 C119 1.517 . S
C1599 C384 1.509 . S
C1614 C293 1.142 . S
C1626 C575 1.206 . S
C1641 C153 0.887 1_565 S
C1653 C417 1.035 . S
C1680 C525 1.580 . S
C1668 C315 1.576 . S
C1695 C125 0.842 . S
C1707 C458 0.730 . S
C1722 C287 1.648 . S
C1734 C604 1.644 . S
C1749 C193 1.443 . S
C1761 C338 1.485 . S
C1776 C176 1.688 . S
C1788 C505 1.721 . S
C1803 C263 1.462 . S
C1815 C454 1.476 . S
C1830 C246 1.060 . S
C1842 C555 1.073 . S
C1869 C598 1.327 . S
C1857 C277 1.308 . S
C1884 C221 1.370 . S
C1896 C378 1.394 . S
C1923 C404 1.608 . S
C1911 C260 1.607 . S
C1950 C375 0.993 . S
C1938 C204 1.000 . S
C1965 C83 1.467 . S
C1977 C634 1.487 . S
C2004 C585 1.643 . S
C1992 C92 1.578 . S
C2019 C105 0.906 . S
C2031 C654 0.955 . S
C2046 C67 1.262 . S
C2058 C557 1.277 . S
C2073 C53 1.399 . S
C2085 C515 1.330 . S
C2112 C518 0.963 . S
C2100 C8 0.954 . S
C2139 C545 1.478 . S
C2127 C22 1.449 1_655 S
C2166 C614 1.513 . S
C2154 C39 1.544 . S
C2193 C625 1.484 . S
C2181 C265 1.432 . S
C2208 C189 0.860 . S
C2220 C577 0.830 . S
C2247 C645 1.480 . S
C2235 C209 1.439 . S
C2274 C574 1.065 . S
C2262 C217 1.026 . S
C2301 C498 0.896 . S
C2289 C259 0.896 . S
C2316 C195 1.456 . S
C2328 C524 1.500 . S
C2355 C537 0.810 . S
C2343 C203 0.750 . S
C2370 C223 1.510 . S
C2382 C605 1.540 . S
C2409 C617 1.372 . S
C2397 C319 1.423 . S
C2424 C134 1.678 . S
C2436 C424 1.735 . S
C2463 C455 1.490 . S
C2451 C151 1.524 . S
C2490 C474 0.860 . S
C2478 C162 0.867 . S
C2517 C597 1.195 . S
C2505 C305 1.250 . S
C2532 C291 1.372 . S
C2544 C637 1.378 . S
C2571 C405 1.580 . S
C2559 C148 1.534 . S
C2598 C374 0.900 . S
C2586 C120 0.916 . S
C2613 C91 1.621 . S
C2625 C635 1.567 . S
C2652 C364 1.655 . S
C2640 C78 1.635 . S
C2667 C69 1.019 . S
C2679 C655 1.031 . S
C2694 C109 1.311 . S
C2706 C398 1.322 . S
C2721 C41 1.506 . S
C2733 C514 1.459 . S
C2760 C437 0.985 . S
C2748 C27 0.970 . S
C2775 C7 1.460 . S
C2787 C544 1.445 . S
C2802 C49 1.712 . S
C2814 C495 1.663 . S
C2841 C624 1.570 . S
C2829 C329 1.575 . S
C2856 C167 0.854 . S
C2868 C358 0.785 . S
C2895 C644 1.512 1_655 S
C2883 C301 1.518 . S
C2910 C139 1.082 . S
C2922 C415 1.159 . S
C2937 C335 0.864 . S
C2949 C497 1.031 . S
C2976 C445 1.553 . S
C2964 C161 1.593 . S
C2991 C307 0.657 . S
C3003 C538 0.762 . S
C3030 C484 1.632 . S
C3018 C133 1.648 . S
C3057 C618 1.449 . S
C3045 C249 1.461 . S
C3084 C425 1.714 1_565 S
C3072 C218 1.729 . S
C3099 C235 1.472 . S
C3111 C534 1.474 . S
C3138 C475 1.055 . S
C3126 C190 1.013 1_556 S
C3153 C207 1.330 . S
C3165 C478 1.299 . S
C3180 C179 1.398 . S
C3192 C638 1.368 . S
C3219 C564 1.619 . S
C3207 C232 1.590 1_565 S
C3246 C595 0.974 . S
C3234 C274 0.975 . S
