# Generated by pormake.
# Topology iac, (4,6)-cn, num edge types: 1
# Building blocks:
#     Node 0, Type 0, BuildingBlock: QUQFOY_clean_sbu_1, # of connection points: 4
#     Node 1, Type 0, BuildingBlock: QUQFOY_clean_sbu_1, # of connection points: 4
#     Node 2, Type 0, BuildingBlock: QUQFOY_clean_sbu_1, # of connection points: 4
#     Node 3, Type 0, BuildingBlock: QUQFOY_clean_sbu_1, # of connection points: 4
#     Node 4, Type 0, BuildingBlock: QUQFOY_clean_sbu_1, # of connection points: 4
#     Node 5, Type 0, BuildingBlock: QUQFOY_clean_sbu_1, # of connection points: 4
#     Node 6, Type 0, BuildingBlock: QUQFOY_clean_sbu_1, # of connection points: 4
#     Node 7, Type 0, BuildingBlock: QUQFOY_clean_sbu_1, # of connection points: 4
#     Node 8, Type 0, BuildingBlock: QUQFOY_clean_sbu_1, # of connection points: 4
#     Node 9, Type 0, BuildingBlock: QUQFOY_clean_sbu_1, # of connection points: 4
#     Node 10, Type 0, BuildingBlock: QUQFOY_clean_sbu_1, # of connection points: 4
#     Node 11, Type 0, BuildingBlock: QUQFOY_clean_sbu_1, # of connection points: 4
#     Node 12, Type 0, BuildingBlock: QUQFOY_clean_sbu_1, # of connection points: 4
#     Node 13, Type 0, BuildingBlock: QUQFOY_clean_sbu_1, # of connection points: 4
#     Node 14, Type 0, BuildingBlock: QUQFOY_clean_sbu_1, # of connection points: 4
#     Node 15, Type 0, BuildingBlock: QUQFOY_clean_sbu_1, # of connection points: 4
#     Node 16, Type 0, BuildingBlock: QUQFOY_clean_sbu_1, # of connection points: 4
#     Node 17, Type 0, BuildingBlock: QUQFOY_clean_sbu_1, # of connection points: 4
#     Node 18, Type 0, BuildingBlock: QUQFOY_clean_sbu_1, # of connection points: 4
#     Node 19, Type 0, BuildingBlock: QUQFOY_clean_sbu_1, # of connection points: 4
#     Node 20, Type 0, BuildingBlock: QUQFOY_clean_sbu_1, # of connection points: 4
#     Node 21, Type 0, BuildingBlock: QUQFOY_clean_sbu_1, # of connection points: 4
#     Node 22, Type 0, BuildingBlock: QUQFOY_clean_sbu_1, # of connection points: 4
#     Node 23, Type 0, BuildingBlock: QUQFOY_clean_sbu_1, # of connection points: 4
#     Node 24, Type 1, BuildingBlock: VOLQOD_clean_sbu_1, # of connection points: 6
#     Node 25, Type 1, BuildingBlock: VOLQOD_clean_sbu_1, # of connection points: 6
#     Node 26, Type 1, BuildingBlock: VOLQOD_clean_sbu_1, # of connection points: 6
#     Node 27, Type 1, BuildingBlock: VOLQOD_clean_sbu_1, # of connection points: 6
#     Node 28, Type 1, BuildingBlock: VOLQOD_clean_sbu_1, # of connection points: 6
#     Node 29, Type 1, BuildingBlock: VOLQOD_clean_sbu_1, # of connection points: 6
#     Node 30, Type 1, BuildingBlock: VOLQOD_clean_sbu_1, # of connection points: 6
#     Node 31, Type 1, BuildingBlock: VOLQOD_clean_sbu_1, # of connection points: 6
#     Node 32, Type 1, BuildingBlock: VOLQOD_clean_sbu_1, # of connection points: 6
#     Node 33, Type 1, BuildingBlock: VOLQOD_clean_sbu_1, # of connection points: 6
#     Node 34, Type 1, BuildingBlock: VOLQOD_clean_sbu_1, # of connection points: 6
#     Node 35, Type 1, BuildingBlock: VOLQOD_clean_sbu_1, # of connection points: 6
#     Node 36, Type 1, BuildingBlock: VOLQOD_clean_sbu_1, # of connection points: 6
#     Node 37, Type 1, BuildingBlock: VOLQOD_clean_sbu_1, # of connection points: 6
#     Node 38, Type 1, BuildingBlock: VOLQOD_clean_sbu_1, # of connection points: 6
#     Node 39, Type 1, BuildingBlock: VOLQOD_clean_sbu_1, # of connection points: 6
#     Edge 40, Type (0, 1), None
#     Edge 41, Type (0, 1), None
#     Edge 42, Type (0, 1), None
#     Edge 43, Type (0, 1), None
#     Edge 44, Type (0, 1), None
#     Edge 45, Type (0, 1), None
#     Edge 46, Type (0, 1), None
#     Edge 47, Type (0, 1), None
#     Edge 48, Type (0, 1), None
#     Edge 49, Type (0, 1), None
#     Edge 50, Type (0, 1), None
#     Edge 51, Type (0, 1), None
#     Edge 52, Type (0, 1), None
#     Edge 53, Type (0, 1), None
#     Edge 54, Type (0, 1), None
#     Edge 55, Type (0, 1), None
#     Edge 56, Type (0, 1), None
#     Edge 57, Type (0, 1), None
#     Edge 58, Type (0, 1), None
#     Edge 59, Type (0, 1), None
#     Edge 60, Type (0, 1), None
#     Edge 61, Type (0, 1), None
#     Edge 62, Type (0, 1), None
#     Edge 63, Type (0, 1), None
#     Edge 64, Type (0, 1), None
#     Edge 65, Type (0, 1), None
#     Edge 66, Type (0, 1), None
#     Edge 67, Type (0, 1), None
#     Edge 68, Type (0, 1), None
#     Edge 69, Type (0, 1), None
#     Edge 70, Type (0, 1), None
#     Edge 71, Type (0, 1), None
#     Edge 72, Type (0, 1), None
#     Edge 73, Type (0, 1), None
#     Edge 74, Type (0, 1), None
#     Edge 75, Type (0, 1), None
#     Edge 76, Type (0, 1), None
#     Edge 77, Type (0, 1), None
#     Edge 78, Type (0, 1), None
#     Edge 79, Type (0, 1), None
#     Edge 80, Type (0, 1), None
#     Edge 81, Type (0, 1), None
#     Edge 82, Type (0, 1), None
#     Edge 83, Type (0, 1), None
#     Edge 84, Type (0, 1), None
#     Edge 85, Type (0, 1), None
#     Edge 86, Type (0, 1), None
#     Edge 87, Type (0, 1), None
#     Edge 88, Type (0, 1), None
#     Edge 89, Type (0, 1), None
#     Edge 90, Type (0, 1), None
#     Edge 91, Type (0, 1), None
#     Edge 92, Type (0, 1), None
#     Edge 93, Type (0, 1), None
#     Edge 94, Type (0, 1), None
#     Edge 95, Type (0, 1), None
#     Edge 96, Type (0, 1), None
#     Edge 97, Type (0, 1), None
#     Edge 98, Type (0, 1), None
#     Edge 99, Type (0, 1), None
#     Edge 100, Type (0, 1), None
#     Edge 101, Type (0, 1), None
#     Edge 102, Type (0, 1), None
#     Edge 103, Type (0, 1), None
#     Edge 104, Type (0, 1), None
#     Edge 105, Type (0, 1), None
#     Edge 106, Type (0, 1), None
#     Edge 107, Type (0, 1), None
#     Edge 108, Type (0, 1), None
#     Edge 109, Type (0, 1), None
#     Edge 110, Type (0, 1), None
#     Edge 111, Type (0, 1), None
#     Edge 112, Type (0, 1), None
#     Edge 113, Type (0, 1), None
#     Edge 114, Type (0, 1), None
#     Edge 115, Type (0, 1), None
#     Edge 116, Type (0, 1), None
#     Edge 117, Type (0, 1), None
#     Edge 118, Type (0, 1), None
#     Edge 119, Type (0, 1), None
#     Edge 120, Type (0, 1), None
#     Edge 121, Type (0, 1), None
#     Edge 122, Type (0, 1), None
#     Edge 123, Type (0, 1), None
#     Edge 124, Type (0, 1), None
#     Edge 125, Type (0, 1), None
#     Edge 126, Type (0, 1), None
#     Edge 127, Type (0, 1), None
#     Edge 128, Type (0, 1), None
#     Edge 129, Type (0, 1), None
#     Edge 130, Type (0, 1), None
#     Edge 131, Type (0, 1), None
#     Edge 132, Type (0, 1), None
#     Edge 133, Type (0, 1), None
#     Edge 134, Type (0, 1), None
#     Edge 135, Type (0, 1), None
# Relax obj value: 0.348
# Max RMSD: 0.303
# Mean RMSD: 0.199
data_MOF--net-iac--node1-QUQFOY_clean_sbu_1--node2-VOLQOD_clean_sbu_1--edge1-none
_symmetry_space_group_name_H-M    P1
_symmetry_Int_Tables_number       1
_symmetry_cell_setting            triclinic
loop_
_symmetry_equiv_pos_as_xyz
'x, y, z'
_cell_length_a     27.772441
_cell_length_b     27.819088
_cell_length_c     28.123441
_cell_angle_alpha  91.155293
_cell_angle_beta   90.384009
_cell_angle_gamma 92.71203
loop_
_atom_site_label
_atom_site_type_symbol
_atom_site_fract_x
_atom_site_fract_y
_atom_site_fract_z
_atom_type_partial_charge
O0 O 0.95526 0.1724 0.10256 0.0
Cd1 Cd 0.95766 0.21712 0.16256 0.0
Cd2 Cd 0.0119 0.27313 0.08466 0.0
O3 O -0.0068 0.2115 0.04505 0.0
O4 O 0.91154 0.18423 0.20731 0.0
O5 O 0.89982 0.25466 0.17417 0.0
C6 C 0.88474 0.22015 0.20117 0.0
C7 C 0.00961 0.34465 0.04511 0.0
C8 C 0.96865 0.17507 0.05942 0.0
C9 C 0.05585 0.26178 0.1864 0.0
O10 O 0.05725 0.27576 0.14357 0.0
O11 O 0.02001 0.23645 0.20137 0.0
O12 O 0.04571 0.31778 0.03962 0.0
O13 O 0.97476 0.33069 0.07252 0.0
O14 O 0.09784 0.75614 0.37809 0.0
Cd15 Cd 0.04926 0.74674 0.4318 0.0
Cd16 Cd -0.01307 0.77557 0.3438 0.0
O17 O 0.05173 0.7547 0.31312 0.0
O18 O 0.07287 0.69782 0.47628 0.0
O19 O 0.01034 0.68685 0.42627 0.0
C20 C 0.03879 0.67004 0.45789 0.0
C21 C 0.91797 0.78065 0.29733 0.0
C22 C 0.09276 0.75206 0.33316 0.0
C23 C -0.01057 0.82858 0.44565 0.0
O24 O 0.97894 0.82127 0.40197 0.0
O25 O 0.01888 0.80269 0.4667 0.0
O26 O 0.95218 0.81335 0.29496 0.0
O27 O 0.92454 0.74345 0.32292 0.0
O28 O 0.47641 0.64417 0.60233 0.0
Cd29 Cd 0.48014 0.69346 0.65901 0.0
Cd30 Cd 0.53275 0.74728 0.57863 0.0
O31 O 0.51147 0.68357 0.5432 0.0
O32 O 0.43501 0.66689 0.70818 0.0
O33 O 0.42266 0.73204 0.66596 0.0
C34 C 0.40819 0.70174 0.69766 0.0
C35 C 0.52697 0.81795 0.53802 0.0
C36 C 0.48822 0.64675 0.55873 0.0
C37 C 0.57768 0.74273 0.67982 0.0
O38 O 0.57983 0.75413 0.63625 0.0
O39 O 0.54214 0.71747 0.69542 0.0
O40 O 0.56247 0.79088 0.52982 0.0
O41 O 0.49439 0.80418 0.56805 0.0
O42 O 0.60343 0.25655 0.88516 0.0
Cd43 Cd 0.54857 0.25325 0.93372 0.0
Cd44 Cd 0.49512 0.277 0.84479 0.0
O45 O 0.56024 0.25206 0.81863 0.0
O46 O 0.56341 0.20441 -0.01847 0.0
O47 O 0.50548 0.19586 0.92617 0.0
C48 C 0.52926 0.17837 0.96102 0.0
C49 C 0.42845 0.27277 0.79522 0.0
C50 C 0.60017 0.24886 0.84047 0.0
C51 C 0.49066 0.33738 0.94151 0.0
O52 O 0.48243 0.32866 0.89755 0.0
O53 O 0.51879 0.31192 0.96479 0.0
O54 O 0.46168 0.30598 0.78967 0.0
O55 O 0.43479 0.24023 0.82649 0.0
O56 O 0.09444 0.97788 0.14473 0.0
Cd57 Cd 0.14998 -0.016 0.19403 0.0
Cd58 Cd 0.06034 0.02018 0.24861 0.0
O59 O 0.02957 0.00105 0.18317 0.0
O60 O 0.20311 0.94297 0.1715 0.0
O61 O 0.15783 0.9293 0.23537 0.0
C62 C 0.19261 0.91712 0.20791 0.0
C63 C 0.01665 0.0132 0.31827 0.0
C64 C 0.04938 -0.0156 0.14604 0.0
C65 C 0.15928 0.07828 0.24681 0.0
O66 O 0.11502 0.07225 0.25736 0.0
O67 O 0.18007 0.04832 0.22031 0.0
O68 O 0.0085 0.04722 0.28934 0.0
O69 O 0.04711 0.98156 0.30612 0.0
O70 O 0.214 0.84831 0.58386 0.0
Cd71 Cd 0.22066 0.90504 0.53465 0.0
Cd72 Cd 0.27956 0.82356 0.49979 0.0
O73 O 0.24447 0.78405 0.54998 0.0
O74 O 0.17927 0.95654 0.56169 0.0
O75 O 0.16276 0.91689 0.49406 0.0
C76 C 0.15137 0.94904 0.52525 0.0
C77 C 0.28649 0.8012 0.42192 0.0
C78 C 0.22169 0.80329 0.58367 0.0
C79 C 0.32645 0.91928 0.50961 0.0
O80 O 0.33015 0.87503 0.51822 0.0
O81 O 0.28574 0.93834 0.51097 0.0
O82 O 0.31176 0.7804 0.45345 0.0
O83 O 0.25499 0.83137 0.43551 0.0
O84 O 0.38321 0.01281 0.65417 0.0
Cd85 Cd 0.32923 0.00656 0.70546 0.0
Cd86 Cd 0.41132 0.96046 0.74798 0.0
O87 O 0.4464 0.98194 0.68826 0.0
O88 O 0.27915 0.05052 0.68322 0.0
O89 O 0.32506 0.06456 0.74747 0.0
C90 C 0.29235 0.07836 0.71857 0.0
C91 C 0.44706 0.9751 0.82 0.0
C92 C 0.42779 0.00383 0.6542 0.0
C93 C 0.31379 0.90622 0.74333 0.0
O94 O 0.35909 0.9067 0.74958 0.0
O95 O 0.29372 0.94229 0.72621 0.0
O96 O 0.46067 0.93991 0.79363 0.0
O97 O 0.41482 0.00295 0.80415 0.0
O98 O 0.25343 0.13958 0.08988 0.0
Cd99 Cd 0.24902 0.08586 0.03752 0.0
Cd100 Cd 0.2143 0.17283 -0.01204 0.0
O101 O 0.23163 0.2049 0.05303 0.0
O102 O 0.29171 0.03363 0.05763 0.0
O103 O 0.30586 0.08241 -0.00304 0.0
C104 C 0.31913 0.0477 0.02326 0.0
C105 C 0.22817 0.21441 0.91906 0.0
C106 C 0.2474 0.18471 0.08972 0.0
C107 C 0.15443 0.07633 -0.01429 0.0
O108 O 0.15955 0.1211 0.97793 0.0
O109 O 0.18551 0.05489 0.00967 0.0
O110 O 0.19305 0.22521 0.9463 0.0
O111 O 0.25693 0.18198 0.93233 0.0
O112 O 0.70772 0.36064 0.07938 0.0
Cd113 Cd 0.71061 0.41716 0.03051 0.0
Cd114 Cd 0.77554 0.32737 -0.00705 0.0
O115 O 0.74742 0.29746 0.05441 0.0
O116 O 0.66774 0.46629 0.05923 0.0
O117 O 0.65224 0.42811 -0.00945 0.0
C118 C 0.64022 0.45925 0.02247 0.0
C119 C 0.78665 0.28555 0.92354 0.0
C120 C 0.72073 0.31755 0.0847 0.0
C121 C 0.81025 0.43687 -0.0096 0.0
O122 O 0.81434 0.39163 -0.01284 0.0
O123 O 0.77298 0.45467 0.00824 0.0
O124 O 0.81668 0.2809 0.95813 0.0
O125 O 0.74808 0.3089 0.93088 0.0
O126 O 0.87238 0.52396 0.16659 0.0
Cd127 Cd 0.81908 0.5206 0.21874 0.0
Cd128 Cd 0.90602 0.45747 0.25178 0.0
O129 O 0.9338 0.4811 0.18846 0.0
O130 O 0.76882 0.563 0.19345 0.0
O131 O 0.8144 0.58127 0.25697 0.0
C132 C 0.78147 0.59292 0.22728 0.0
C133 C 0.95248 0.46681 0.31851 0.0
C134 C 0.91474 0.5095 0.15989 0.0
C135 C 0.79854 0.42178 0.26091 0.0
O136 O 0.84374 0.41625 0.26269 0.0
O137 O 0.78164 0.45932 0.24346 0.0
O138 O 0.95753 0.42944 0.2914 0.0
O139 O 0.92294 0.49896 0.30596 0.0
O140 O 0.75863 0.62655 0.58067 0.0
Cd141 Cd 0.76087 0.57526 0.52679 0.0
Cd142 Cd 0.71398 0.66563 0.48155 0.0
O143 O 0.72976 0.69221 0.5497 0.0
O144 O 0.80385 0.52421 0.54969 0.0
O145 O 0.82106 0.57443 0.49093 0.0
C146 C 0.83334 0.53957 0.51755 0.0
C147 C 0.7184 0.71973 0.41999 0.0
C148 C 0.74804 0.67051 0.5843 0.0
C149 C 0.66914 0.55997 0.47008 0.0
O150 O 0.66919 0.60532 0.46454 0.0
O151 O 0.7014 0.54135 0.49494 0.0
O152 O 0.68122 0.71753 0.44709 0.0
O153 O 0.75359 0.69246 0.42892 0.0
O154 O 0.60815 0.47222 0.65459 0.0
Cd155 Cd 0.65945 0.47382 0.70779 0.0
Cd156 Cd 0.56552 0.52053 0.75225 0.0
O157 O 0.54081 0.50033 0.68428 0.0
O158 O 0.71263 0.43313 0.68432 0.0
O159 O 0.66461 0.41565 0.74524 0.0
C160 C 0.70016 0.40472 0.71821 0.0
C161 C 0.51201 0.51868 0.81538 0.0
C162 C 0.56388 0.48135 0.65035 0.0
C163 C 0.67097 0.56756 0.76242 0.0
O164 O 0.62542 0.56633 0.76791 0.0
O165 O 0.69099 0.5354 0.73799 0.0
O166 O 0.51263 0.5539 0.78633 0.0
O167 O 0.53983 0.48361 0.80697 0.0
O168 O 0.06569 0.73569 0.8591 0.0
Cd169 Cd 0.00631 0.74618 0.90348 0.0
Cd170 Cd 0.97743 0.78198 0.81696 0.0
O171 O 0.04553 0.77662 0.79542 0.0
O172 O 0.00614 0.70023 0.95911 0.0
O173 O 0.94532 0.7036 0.90947 0.0
C174 C 0.96383 0.68384 0.94564 0.0
C175 C 0.91431 0.73097 0.78765 0.0
C176 C 0.07647 0.75549 0.81957 0.0
C177 C -0.00821 0.85017 0.90157 0.0
O178 O 0.9722 0.84247 0.86072 0.0
O179 O 0.00731 0.81609 0.92583 0.0
O180 O 0.92597 0.77046 0.7661 0.0
O181 O 0.93919 0.72079 0.82442 0.0
O182 O -0.0127 0.16852 0.59445 0.0
Cd183 Cd -0.00425 0.21668 0.65126 0.0
Cd184 Cd 0.04389 0.25712 0.58176 0.0
O185 O 0.04511 0.1941 0.54619 0.0
O186 O 0.94829 0.19871 0.70146 0.0
O187 O 0.95065 0.26963 0.66717 0.0
C188 C 0.93175 0.24104 0.69827 0.0
C189 C 0.01285 0.31961 0.53924 0.0
C190 C 0.01407 0.16239 0.5582 0.0
C191 C 0.09638 0.23449 0.67147 0.0
O192 O 0.0951 0.26086 0.63489 0.0
O193 O 0.05931 0.21118 0.68545 0.0
O194 O 0.05596 0.30563 0.53218 0.0
O195 O -0.01225 0.2997 0.5727 0.0
O196 O 0.50093 0.15764 0.37537 0.0
Cd197 Cd 0.49001 0.2144 0.32811 0.0
Cd198 Cd 0.45966 0.25015 0.41429 0.0
O199 O 0.46018 0.1822 0.43837 0.0
O200 O 0.54063 0.22266 0.27606 0.0
O201 O 0.52337 0.28013 0.32689 0.0
C202 C 0.54921 0.26613 0.29214 0.0
C203 C 0.51125 0.31302 0.44648 0.0
C204 C 0.48083 0.14935 0.41551 0.0
C205 C 0.38922 0.23584 0.32981 0.0
O206 O 0.4001 0.25823 0.36896 0.0
O207 O 0.42047 0.21355 0.30655 0.0
O208 O 0.46898 0.30406 0.46414 0.0
O209 O 0.52459 0.28517 0.41269 0.0
O210 O 0.47716 0.67872 0.08789 0.0
Cd211 Cd 0.48806 0.72668 0.14475 0.0
Cd212 Cd 0.53588 0.76555 0.07708 0.0
O213 O 0.53708 0.70249 0.04141 0.0
O214 O 0.44041 0.71156 0.19529 0.0
O215 O 0.44542 0.78195 0.15998 0.0
C216 C 0.42568 0.75459 0.19158 0.0
C217 C 0.50121 0.82777 0.03782 0.0
C218 C 0.50427 0.67197 0.05205 0.0
C219 C 0.58826 0.74551 0.1666 0.0
O220 O 0.58701 0.77176 0.13002 0.0
O221 O 0.5516 0.72065 0.17921 0.0
O222 O 0.54433 0.81512 0.02837 0.0
O223 O 0.47787 0.80601 0.0713 0.0
O224 O 0.85751 0.00742 0.65266 0.0
Cd225 Cd 0.81097 0.00111 0.7091 0.0
Cd226 Cd 0.89655 0.97774 0.75365 0.0
O227 O 0.92296 0.97956 0.68621 0.0
O228 O 0.7564 0.04642 0.707 0.0
O229 O 0.81229 0.04709 0.76349 0.0
C230 C 0.77493 0.06572 0.74558 0.0
C231 C 0.93338 0.0253 0.81644 0.0
C232 C 0.90004 -0.00766 0.64974 0.0
C233 C 0.81303 0.90244 0.74215 0.0
O234 O 0.85298 0.91499 0.76289 0.0
O235 O 0.78936 0.93208 0.71898 0.0
O236 O 0.95133 -0.0145 0.80232 0.0
O237 O 0.89517 0.0379 0.795 0.0
O238 O 0.76943 0.13912 0.5945 0.0
Cd239 Cd 0.76085 0.08192 0.54541 0.0
Cd240 Cd 0.72551 0.14916 0.49377 0.0
O241 O 0.72091 0.1863 0.55644 0.0
O242 O 0.81065 0.03223 0.53798 0.0
O243 O 0.79267 0.08265 0.4813 0.0
C244 C 0.81667 0.04663 0.49488 0.0
C245 C 0.73795 0.1981 0.42698 0.0
C246 C 0.74422 0.17636 0.59336 0.0
C247 C 0.66519 0.05824 0.51697 0.0
O248 O 0.67503 0.09171 0.48767 0.0
O249 O 0.69465 0.04871 0.54936 0.0
O250 O 0.69801 0.1952 0.44977 0.0
O251 O 0.77252 0.17281 0.44169 0.0
O252 O 0.57696 0.98202 0.17583 0.0
Cd253 Cd 0.6277 -0.00814 0.23171 0.0
Cd254 Cd 0.54407 0.03051 0.26562 0.0
O255 O 0.51311 0.01952 0.20226 0.0
O256 O 0.68391 0.94814 0.22186 0.0
O257 O 0.64122 0.94741 0.2871 0.0
C258 C 0.67646 0.93084 0.26355 0.0
C259 C 0.52024 0.98095 0.3263 0.0
C260 C 0.53486 -0.00203 0.16955 0.0
C261 C 0.6317 0.09716 0.2477 0.0
O262 O 0.59068 0.09134 0.26767 0.0
O263 O 0.65405 0.06159 0.23171 0.0
O264 O 0.49733 0.01952 0.31861 0.0
O265 O 0.5566 0.97189 0.30007 0.0
O266 O 0.72363 0.87417 0.0968 0.0
Cd267 Cd 0.72459 0.91826 0.04039 0.0
Cd268 Cd 0.75054 0.84629 -0.00647 0.0
O269 O 0.76114 0.81682 0.05886 0.0
O270 O 0.68025 0.97033 0.04625 0.0
O271 O 0.67961 0.91868 -0.01536 0.0
C272 C 0.66304 0.95642 0.00515 0.0
C273 C 0.72495 0.79498 0.92855 0.0
C274 C 0.74779 0.8365 0.09726 0.0
C275 C 0.81749 0.93526 0.00691 0.0
O276 O 0.80599 0.89802 -0.01881 0.0
O277 O 0.78896 0.95101 0.03724 0.0
O278 O 0.76591 0.79262 0.94979 0.0
O279 O 0.69618 0.8262 0.94484 0.0
O280 O 0.25409 0.64378 0.0859 0.0
Cd281 Cd 0.24551 0.59015 0.03191 0.0
Cd282 Cd 0.21639 0.67321 -0.01294 0.0
O283 O 0.22564 0.70737 0.05015 0.0
O284 O 0.29164 0.53454 0.02783 0.0
O285 O 0.28287 0.58696 0.97129 0.0
C286 C 0.30309 0.54929 -0.01415 0.0
C287 C 0.25549 0.70475 0.92017 0.0
C288 C 0.24051 0.68722 0.08697 0.0
C289 C 0.14323 0.59011 0.00804 0.0
O290 O 0.15354 0.62877 -0.01439 0.0
O291 O 0.17543 0.56734 0.02885 0.0
O292 O 0.21623 0.72257 0.93541 0.0
O293 O 0.27218 0.66954 0.94287 0.0
O294 O 0.09485 0.45711 0.65554 0.0
Cd295 Cd 0.15154 0.46723 0.70298 0.0
Cd296 Cd 0.0848 0.49971 0.75504 0.0
O297 O 0.04423 0.50075 0.69583 0.0
O298 O 0.20026 0.41728 0.70274 0.0
O299 O 0.155 0.43348 0.76534 0.0
C300 C 0.18894 0.40942 0.74653 0.0
C301 C 0.03836 0.48629 0.82311 0.0
C302 C 0.05555 0.47884 0.6583 0.0
C303 C 0.17134 0.56486 0.72596 0.0
O304 O 0.13789 0.55516 0.75575 0.0
O305 O 0.18425 0.53334 0.69646 0.0
O306 O 0.03835 0.5256 0.79998 0.0
O307 O 0.06604 0.45333 0.80847 0.0
O308 O 0.24318 0.35865 0.58063 0.0
Cd309 Cd 0.24308 0.39994 0.52011 0.0
Cd310 Cd 0.27372 0.3159 0.48285 0.0
O311 O 0.27677 0.29364 0.55126 0.0
O312 O 0.20298 0.45761 0.53069 0.0
O313 O 0.19197 0.40703 0.46981 0.0
C314 C 0.17974 0.44522 0.49212 0.0
C315 C 0.2187 0.28468 0.42479 0.0
C316 C 0.26349 0.31891 0.58646 0.0
C317 C 0.3424 0.40315 0.48731 0.0
O318 O 0.33348 0.36141 0.46865 0.0
O319 O 0.31043 0.4255 0.50912 0.0
O320 O 0.25835 0.26355 0.43296 0.0
O321 O 0.21022 0.32198 0.45055 0.0
O322 O 0.3472 0.52264 0.14496 0.0
Cd323 Cd 0.30324 0.51735 0.20243 0.0
Cd324 Cd 0.37981 0.48886 0.24667 0.0
O325 O 0.40767 0.48745 0.17936 0.0
O326 O 0.25375 0.56574 0.20592 0.0
O327 O 0.31278 0.5608 0.25931 0.0
C328 C 0.27508 0.58176 0.24448 0.0
C329 C 0.43574 0.50621 0.3101 0.0
C330 C 0.38756 0.50304 0.14253 0.0
C331 C 0.28992 0.42146 0.23276 0.0
O332 O 0.32895 0.43209 0.25573 0.0
O333 O 0.27126 0.4515 0.2062 0.0
O334 O 0.43534 0.46746 0.2844 0.0
O335 O 0.4043 0.53707 0.29995 0.0
O336 O 0.9821 0.12925 -0.0119 0.0
Zn337 Zn 0.00426 0.07052 0.94972 0.0
O338 O 0.98403 0.01323 -0.01685 0.0
Zn339 Zn 0.03585 0.97194 -0.00507 0.0
Zn340 Zn 0.947 0.02358 0.03911 0.0
Zn341 Zn 0.94182 -0.01668 0.93722 0.0
O342 O 0.02084 0.90826 0.95914 0.0
O343 O 0.97129 0.93082 0.90187 0.0
O344 O 0.0749 0.07824 0.95882 0.0
O345 O 0.09993 0.0076 -0.01761 0.0
O346 O 0.04336 0.96329 0.06493 0.0
O347 O 0.98375 0.00321 0.09692 0.0
O348 O 0.88041 -0.00995 0.03328 0.0
O349 O -0.01319 0.05953 0.87728 0.0
O350 O 0.8866 0.95107 0.96411 0.0
O351 O 0.91495 0.03125 0.89563 0.0
C352 C 0.96255 0.13128 0.02924 0.0
C353 C -0.00453 0.89904 0.92159 0.0
C354 C 0.02226 0.98054 0.101 0.0
C355 C 0.10814 0.05182 0.97264 0.0
C356 C 0.86383 0.96021 0.00141 0.0
C357 C 0.94433 0.04502 0.86433 0.0
O358 O 0.94587 0.09386 0.0499 0.0
O359 O 0.20678 0.69988 0.16253 0.0
Zn360 Zn 0.20479 0.71082 0.2336 0.0
O361 O 0.25703 0.75628 0.25073 0.0
Zn362 Zn 0.30678 0.72771 0.28622 0.0
Zn363 Zn 0.28125 0.79154 0.19664 0.0
Zn364 Zn 0.23103 0.80081 0.29235 0.0
O365 O 0.30441 0.74988 0.35613 0.0
O366 O 0.27473 0.82116 0.34353 0.0
O367 O 0.22293 0.64488 0.25127 0.0
O368 O 0.29798 0.65639 0.27875 0.0
O369 O 0.36868 0.74125 0.25136 0.0
O370 O 0.3539 0.79607 0.1969 0.0
O371 O 0.24766 0.85556 0.18979 0.0
O372 O 0.13979 0.72816 0.26532 0.0
O373 O 0.21003 0.85648 0.25924 0.0
O374 O 0.17331 0.77426 0.32307 0.0
C375 C 0.23822 0.71352 0.13211 0.0
C376 C 0.29156 0.79087 0.37133 0.0
C377 C 0.38223 0.76783 0.21705 0.0
C378 C 0.26316 0.6288 0.26368 0.0
C379 C 0.21887 0.87459 0.21921 0.0
C380 C 0.13707 0.75117 0.30509 0.0
O381 O 0.26812 0.74877 0.13995 0.0
O382 O 0.50343 0.87215 0.48003 0.0
Zn383 Zn 0.47051 0.93133 0.45893 0.0
O384 O 0.49515 -0.013 0.49334 0.0
Zn385 Zn 0.44212 0.02743 0.50718 0.0
Zn386 Zn 0.5331 0.97225 0.54731 0.0
Zn387 Zn 0.53674 0.01293 0.4466 0.0
O388 O 0.45399 0.09046 0.47103 0.0
O389 O 0.51113 0.07198 0.41895 0.0
O390 O 0.40449 0.91965 0.48087 0.0
O391 O 0.37615 -0.00868 0.49725 0.0
O392 O 0.43777 0.03584 0.57787 0.0
O393 O 0.49267 -0.0135 0.60435 0.0
O394 O 0.59969 0.00845 0.54652 0.0
O395 O 0.47313 0.94695 0.38818 0.0
O396 O 0.5979 0.03501 0.47265 0.0
O397 O 0.54997 0.96229 0.39912 0.0
C398 C 0.52602 0.86608 0.51894 0.0
C399 C 0.4817 0.1013 0.43608 0.0
C400 C 0.45596 0.01161 0.61092 0.0
C401 C 0.37061 0.94554 0.49436 0.0
C402 C 0.6191 0.03142 0.51207 0.0
C403 C 0.51468 0.95616 0.371 0.0
O404 O 0.53835 0.90085 0.54725 0.0
O405 O 0.25432 0.26987 0.86105 0.0
Zn406 Zn 0.27712 0.29697 0.7982 0.0
O407 O 0.2582 0.25027 0.75044 0.0
Zn408 Zn 0.30553 0.23242 0.7064 0.0
Zn409 Zn 0.2126 0.20036 0.76739 0.0
Zn410 Zn 0.22037 0.28862 0.7153 0.0
O411 O 0.29012 0.26178 0.64175 0.0
O412 O 0.25597 0.32702 0.66915 0.0
O413 O 0.34934 0.29631 0.79961 0.0
O414 O 0.37017 0.25226 0.73606 0.0
O415 O 0.30325 0.16029 0.70336 0.0
O416 O 0.23982 0.13671 0.74714 0.0
O417 O 0.14617 0.21137 0.73645 0.0
O418 O 0.24958 0.36312 0.78105 0.0
O419 O 0.17811 0.24996 0.67582 0.0
O420 O 0.18143 0.32812 0.75724 0.0
C421 C 0.23006 0.23112 0.87048 0.0
C422 C 0.27133 0.30216 0.6347 0.0
C423 C 0.2764 0.12744 0.72192 0.0
C424 C 0.38092 0.27656 0.77395 0.0
C425 C 0.14214 0.23056 0.69579 0.0
C426 C 0.20538 0.36613 0.76891 0.0
O427 O 0.21198 0.20252 0.83839 0.0
O428 O 0.96112 -0.0068 0.37911 0.0
Zn429 Zn 0.93771 0.97025 0.44375 0.0
O430 O 0.98212 -0.0022 0.4904 0.0
Zn431 Zn 9e-05 0.95399 0.53795 0.0
Zn432 Zn 0.03679 0.03452 0.46915 0.0
Zn433 Zn 0.93723 0.03977 0.51387 0.0
O434 O 0.96128 0.96709 0.59772 0.0
O435 O 0.90461 0.01376 0.5701 0.0
O436 O 0.94982 0.90052 0.44202 0.0
O437 O -0.00806 0.88725 0.508 0.0
O438 O 0.07192 0.95915 0.55061 0.0
O439 O 0.09649 -0.00191 0.4861 0.0
O440 O 0.03816 0.10218 0.50189 0.0
O441 O 0.8675 -0.01359 0.46398 0.0
O442 O 0.96769 0.09564 0.53855 0.0
O443 O 0.89258 0.0611 0.4645 0.0
C444 C 0.0004 0.01567 0.36743 0.0
C445 C 0.92311 -0.00949 0.60343 0.0
C446 C 0.10503 0.97206 0.52175 0.0
C447 C 0.97359 0.87304 0.46812 0.0
C448 C 0.00671 0.11834 0.53047 0.0
C449 C 0.85778 0.03077 0.4668 0.0
O450 O 0.03105 0.03308 0.39798 0.0
O451 O 0.35488 0.72538 0.75769 0.0
Zn452 Zn 0.2969 0.75875 0.78326 0.0
O453 O 0.24094 0.73723 0.74682 0.0
Zn454 Zn 0.20279 0.79167 0.73294 0.0
Zn455 Zn 0.25351 0.69878 0.6911 0.0
Zn456 Zn 0.21134 0.69654 0.79236 0.0
O457 O 0.13866 0.78167 0.76741 0.0
O458 O 0.1526 0.72324 0.81844 0.0
O459 O 0.31087 0.82661 0.76776 0.0
O460 O 0.24127 0.85565 0.74539 0.0
O461 O 0.19432 0.79718 0.66243 0.0
O462 O 0.23706 0.73776 0.63315 0.0
O463 O 0.21972 0.63053 0.69385 0.0
O464 O 0.28333 0.75253 0.85513 0.0
O465 O 0.1889 0.63609 0.76613 0.0
O466 O 0.25578 0.67845 0.84259 0.0
C467 C 0.36011 0.70479 0.71716 0.0
C468 C 0.12529 0.75378 0.80109 0.0
C469 C 0.21416 0.77608 0.62766 0.0
C470 C 0.28646 0.86113 0.75372 0.0
C471 C 0.19521 0.61266 0.7282 0.0
C472 C 0.27005 0.71159 0.87109 0.0
O473 O 0.32493 0.69443 0.68896 0.0
O474 O 0.54105 0.0305 0.09453 0.0
Zn475 Zn 0.54219 0.03951 0.0254 0.0
O476 O 0.49206 -0.00062 -0.00484 0.0
Zn477 Zn 0.52082 0.95225 0.95361 0.0
Zn478 Zn 0.44992 0.96787 0.04251 0.0
Zn479 Zn 0.45566 0.04052 0.95733 0.0
O480 O 0.49449 0.95348 0.88613 0.0
O481 O 0.44752 0.01582 0.89251 0.0
O482 O 0.60426 0.01173 0.01354 0.0
O483 O 0.59313 0.95533 0.95718 0.0
O484 O 0.50964 0.88903 -0.01672 0.0
O485 O 0.4526 0.89534 0.03788 0.0
O486 O 0.3821 -0.00518 0.04137 0.0
O487 O 0.54414 0.10937 0.00622 0.0
O488 O 0.39158 0.04748 -0.01675 0.0
O489 O 0.48491 0.10569 0.95279 0.0
C490 C 0.51703 0.00248 0.12148 0.0
C491 C 0.46498 0.9821 0.86835 0.0
C492 C 0.48374 0.8711 0.01606 0.0
C493 C 0.61979 0.97815 -0.01225 0.0
C494 C 0.36621 0.02784 0.01531 0.0
C495 C 0.51864 0.12892 0.97489 0.0
O496 O 0.47962 0.97814 0.10741 0.0
O497 O 0.10429 0.24938 0.25587 0.0
Zn498 Zn 0.16546 0.22673 0.2892 0.0
O499 O 0.22225 0.2497 0.25507 0.0
Zn500 Zn 0.26324 0.19742 0.24025 0.0
Zn501 Zn 0.20853 0.28643 0.19993 0.0
Zn502 Zn 0.25287 0.2923 0.30112 0.0
O503 O 0.32764 0.20895 0.27518 0.0
O504 O 0.31173 0.2661 0.32888 0.0
O505 O 0.15736 0.1571 0.27595 0.0
O506 O 0.22798 0.13288 0.25051 0.0
O507 O 0.27082 0.19112 0.16997 0.0
O508 O 0.22827 0.24969 0.14078 0.0
O509 O 0.23907 0.35511 0.20508 0.0
O510 O 0.17966 0.2378 0.3618 0.0
O511 O 0.27666 0.35185 0.27478 0.0
O512 O 0.20616 0.31151 0.34947 0.0
C513 C 0.1007 0.2682 0.21481 0.0
C514 C 0.34015 0.23655 0.31056 0.0
C515 C 0.25171 0.21173 0.1351 0.0
C516 C 0.18373 0.12436 0.26044 0.0
C517 C 0.26674 0.37395 0.23762 0.0
C518 C 0.19483 0.27886 0.37823 0.0
O519 O 0.13746 0.28465 0.19253 0.0
O520 O 0.4538 0.49962 0.87406 0.0
Zn521 Zn 0.42972 0.47612 0.93856 0.0
O522 O 0.47199 0.50655 -0.01463 0.0
Zn523 Zn 0.49062 0.46375 0.03362 0.0
Zn524 Zn 0.52651 0.54337 0.96473 0.0
Zn525 Zn 0.42649 0.54915 0.00659 0.0
O526 O 0.44913 0.4756 0.09193 0.0
O527 O 0.39487 0.52471 0.06355 0.0
O528 O 0.44661 0.40709 0.93636 0.0
O529 O 0.48791 0.39666 0.0034 0.0
O530 O 0.56171 0.47277 0.04895 0.0
O531 O 0.58539 0.50627 -0.01865 0.0
O532 O 0.52879 0.61043 -0.00213 0.0
O533 O 0.35816 0.48941 0.95924 0.0
O534 O 0.45569 0.60726 0.02933 0.0
O535 O 0.37985 0.56519 0.95708 0.0
C536 C 0.49223 0.52403 0.86297 0.0
C537 C 0.41161 0.50021 0.09687 0.0
C538 C 0.5943 0.48277 0.01858 0.0
C539 C 0.47199 0.38143 0.96287 0.0
C540 C 0.49609 0.6284 0.02367 0.0
C541 C 0.34655 0.53333 0.9611 0.0
O542 O 0.52143 0.54294 0.894 0.0
O543 O 0.83335 0.24962 0.25924 0.0
Zn544 Zn 0.7767 0.27334 0.29452 0.0
O545 O 0.71959 0.26011 0.25602 0.0
Zn546 Zn 0.6858 0.31486 0.23298 0.0
Zn547 Zn 0.73026 0.21653 0.20308 0.0
Zn548 Zn 0.67229 0.2368 0.29947 0.0
O549 O 0.61195 0.30077 0.24339 0.0
O550 O 0.62662 0.28584 0.31733 0.0
O551 O 0.78795 0.34439 0.2904 0.0
O552 O 0.7237 0.37596 0.25617 0.0
O553 O 0.69537 0.32114 0.16382 0.0
O554 O 0.72141 0.251 0.13859 0.0
O555 O 0.68907 0.15447 0.2162 0.0
O556 O 0.77479 0.24283 0.36218 0.0
O557 O 0.64022 0.17685 0.27482 0.0
O558 O 0.69816 0.21777 0.35901 0.0
C559 C 0.83755 0.22199 0.22316 0.0
C560 C 0.59631 0.29107 0.28469 0.0
C561 C 0.71014 0.29425 0.13064 0.0
C562 C 0.76678 0.37992 0.27305 0.0
C563 C 0.6545 0.14555 0.24532 0.0
C564 C 0.73802 0.22119 0.38059 0.0
O565 O 0.80114 0.20376 0.20032 0.0
O566 O 0.05528 0.52051 0.5885 0.0
Zn567 Zn 0.05798 0.52967 0.51959 0.0
O568 O 0.00677 0.48959 0.49021 0.0
Zn569 Zn 0.03373 0.44135 0.44877 0.0
Zn570 Zn 0.96343 0.45845 0.53683 0.0
Zn571 Zn 0.97046 0.53114 0.45386 0.0
O572 O 0.00288 0.44076 0.38181 0.0
O573 O 0.96191 0.50712 0.39 0.0
O574 O 0.12083 0.50066 0.50751 0.0
O575 O 0.10654 0.44655 0.4493 0.0
O576 O 0.02461 0.37922 0.48256 0.0
O577 O 0.96303 0.38593 0.53193 0.0
O578 O 0.89611 0.48684 0.53758 0.0
O579 O 0.05932 0.60055 0.50104 0.0
O580 O 0.90651 0.53869 0.47913 0.0
O581 O -0.00157 0.59585 0.44963 0.0
C582 C 0.03211 0.49089 0.61458 0.0
C583 C 0.9752 0.47194 0.36518 0.0
C584 C -0.00324 0.36192 0.51426 0.0
C585 C 0.1349 0.46787 0.47963 0.0
C586 C 0.88075 0.51986 0.51124 0.0
C587 C 0.03215 0.61975 0.4708 0.0
O588 O -0.00446 0.46563 0.6001 0.0
O589 O 0.74508 0.77848 0.36545 0.0
Zn590 Zn 0.76668 0.8105 0.30406 0.0
O591 O 0.74563 0.76504 0.25577 0.0
Zn592 Zn 0.7926 0.74599 0.21103 0.0
Zn593 Zn 0.6991 0.71542 0.27038 0.0
Zn594 Zn 0.71046 0.8055 0.22071 0.0
O595 O 0.77683 0.77535 0.14675 0.0
O596 O 0.75226 0.8425 0.17968 0.0
O597 O 0.83984 0.80834 0.30388 0.0
O598 O 0.85777 0.7643 0.23941 0.0
O599 O 0.79054 0.67405 0.20816 0.0
O600 O 0.72801 0.65156 0.25343 0.0
O601 O 0.63543 0.72419 0.23387 0.0
O602 O 0.73854 0.87911 0.29101 0.0
O603 O 0.66738 0.77071 0.17837 0.0
O604 O 0.67166 0.84788 0.25888 0.0
C605 C 0.71625 0.74246 0.37393 0.0
C606 C 0.76159 0.8177 0.143 0.0
C607 C 0.76438 0.64167 0.22819 0.0
C608 C 0.87026 0.78783 0.27723 0.0
C609 C 0.63251 0.74554 0.19417 0.0
C610 C 0.69543 0.88402 0.27573 0.0
O611 O 0.69403 0.71779 0.34114 0.0
O612 O 0.70458 0.19818 0.66392 0.0
Zn613 Zn 0.70706 0.20069 0.73606 0.0
O614 O 0.76176 0.2418 0.7552 0.0
Zn615 Zn 0.80979 0.21042 0.79028 0.0
Zn616 Zn 0.78749 0.27834 0.70333 0.0
Zn617 Zn 0.73947 0.28604 0.79878 0.0
O618 O 0.80615 0.23038 0.86123 0.0
O619 O 0.78968 0.30486 0.84447 0.0
O620 O 0.7241 0.13163 0.74618 0.0
O621 O 0.79664 0.14004 0.78061 0.0
O622 O 0.87289 0.22362 0.75604 0.0
O623 O 0.86 0.28243 0.70518 0.0
O624 O 0.75422 0.34284 0.69771 0.0
O625 O 0.64546 0.22135 0.77276 0.0
O626 O 0.71737 0.34237 0.76757 0.0
O627 O 0.68327 0.26019 0.83314 0.0
C628 C 0.73995 0.20655 0.63591 0.0
C629 C 0.79907 0.27353 0.87463 0.0
C630 C 0.88746 0.25226 0.72361 0.0
C631 C 0.76259 0.11394 0.7616 0.0
C632 C 0.7258 0.36134 0.72787 0.0
C633 C 0.64496 0.24214 0.81397 0.0
O634 O 0.77504 0.23556 0.64689 0.0
O635 O 0.62368 0.73323 0.75055 0.0
Zn636 Zn 0.68152 0.71922 0.79232 0.0
O637 O 0.73961 0.73291 0.75562 0.0
Zn638 Zn 0.77486 0.67862 0.73413 0.0
Zn639 Zn 0.7283 0.77183 0.70108 0.0
Zn640 Zn 0.78626 0.76255 0.79761 0.0
O641 O 0.84827 0.69446 0.74262 0.0
O642 O 0.8374 0.71988 0.81536 0.0
O643 O 0.67466 0.64711 0.79133 0.0
O644 O 0.74158 0.6183 0.75946 0.0
O645 O 0.76397 0.66781 0.66568 0.0
O646 O 0.74586 0.73872 0.6379 0.0
O647 O 0.76082 0.83805 0.71422 0.0
O648 O 0.68343 0.75276 0.86129 0.0
O649 O 0.81179 0.82513 0.77397 0.0
O650 O 0.75987 0.77842 0.8575 0.0
C651 C 0.62081 0.7527 0.70995 0.0
C652 C 0.86566 0.70905 0.78256 0.0
C653 C 0.75385 0.69428 0.6313 0.0
C654 C 0.69876 0.61225 0.77562 0.0
C655 C 0.79422 0.85259 0.7435 0.0
C656 C 0.72105 0.7743 0.88002 0.0
O657 O 0.65738 0.77285 0.69026 0.0
O658 O 0.50261 0.60134 0.48816 0.0
Zn659 Zn 0.51735 0.54538 0.44381 0.0
O660 O 0.50627 0.48656 0.4783 0.0
Zn661 Zn 0.56087 0.45349 0.50027 0.0
Zn662 Zn 0.46526 0.4958 0.53238 0.0
Zn663 Zn 0.48181 0.43908 0.43329 0.0
O664 O 0.54605 0.37984 0.49183 0.0
O665 O 0.52724 0.38888 0.41746 0.0
O666 O 0.58964 0.55372 0.44157 0.0
O667 O 0.62015 0.48854 0.47429 0.0
O668 O 0.56988 0.46559 0.56889 0.0
O669 O 0.4969 0.47914 0.59577 0.0
O670 O 0.40216 0.45918 0.51667 0.0
O671 O 0.47904 0.54456 0.37807 0.0
O672 O 0.42014 0.41009 0.45589 0.0
O673 O 0.46464 0.46563 0.37345 0.0
C674 C 0.48081 0.60345 0.52788 0.0
C675 C 0.53465 0.36129 0.4514 0.0
C676 C 0.54171 0.47386 0.60299 0.0
C677 C 0.62518 0.53084 0.4572 0.0
C678 C 0.39079 0.42537 0.48645 0.0
C679 C 0.46232 0.50665 0.35567 0.0
O680 O 0.45977 0.5664 0.54562 0.0
O681 O 0.98057 0.39641 -0.01178 0.0
Zn682 Zn 0.95885 0.45391 0.954 0.0
O683 O 0.97507 0.51123 -0.0082 0.0
Zn684 Zn 0.92085 0.54796 0.01341 0.0
Zn685 Zn 0.01725 0.49772 0.04409 0.0
Zn686 Zn 0.00556 0.55527 0.95041 0.0
O687 O 0.93307 0.62095 -0.00305 0.0
O688 O 0.96262 0.60324 0.92702 0.0
O689 O 0.88777 0.44482 0.95968 0.0
O690 O 0.85832 0.51055 -0.00611 0.0
O691 O 0.91453 0.54095 0.0832 0.0
O692 O 0.98091 0.50607 0.10644 0.0
O693 O 0.08127 0.53602 0.03572 0.0
O694 O -0.0117 0.45406 0.88603 0.0
O695 O 0.06504 0.58572 0.97707 0.0
O696 O 0.027 0.52518 0.89371 0.0
C697 C 0.0088 0.39145 0.02327 0.0
C698 C 0.9482 0.63414 0.95622 0.0
C699 C 0.93915 0.52138 0.11502 0.0
C700 C 0.85305 0.46721 0.97779 0.0
C701 C 0.09367 0.57015 0.00779 0.0
C702 C 0.01762 0.48678 0.87048 0.0
O703 O 0.02872 0.42727 0.04569 0.0
loop_
_geom_bond_atom_site_label_1
_geom_bond_atom_site_label_2
_geom_bond_distance
_geom_bond_site_symmetry_2
_ccdc_geom_bond_type
O0 Cd1 2.223 . S
O0 C8 1.315 . S
Cd1 O0 2.223 . S
Cd1 O4 2.297 1_455 S
Cd1 O5 2.439 1_455 S
Cd1 O11 2.240 . S
Cd2 O3 2.240 . S
Cd2 O10 2.223 . S
Cd2 O12 2.297 . S
Cd2 O13 2.439 . S
O3 Cd2 2.240 . S
O3 C8 1.279 . S
O4 Cd1 2.297 1_655 S
O4 C6 1.247 . S
O5 Cd1 2.439 1_655 S
O5 C6 1.208 . S
C6 O4 1.247 . S
C6 O5 1.208 . S
C7 O12 1.247 . S
C7 O13 1.208 . S
C8 O0 1.315 . S
C8 O3 1.279 . S
C9 O10 1.315 . S
C9 O11 1.279 . S
O10 Cd2 2.223 . S
O10 C9 1.315 . S
O11 Cd1 2.240 . S
O11 C9 1.279 . S
O12 Cd2 2.297 . S
O12 C7 1.247 . S
O13 Cd2 2.439 . S
O13 C7 1.208 . S
O14 Cd15 2.223 . S
O14 C22 1.315 . S
Cd15 O14 2.223 . S
Cd15 O18 2.297 . S
Cd15 O19 2.439 1_455 S
Cd15 O25 2.236 1_455 S
Cd16 O17 2.240 1_655 S
Cd16 O24 2.223 1_655 S
Cd16 O26 2.297 . S
Cd16 O27 2.439 . S
O17 Cd16 2.240 1_455 S
O17 C22 1.279 . S
O18 Cd15 2.297 . S
O18 C20 1.247 . S
O19 Cd15 2.439 1_655 S
O19 C20 1.208 1_655 S
C20 O18 1.247 . S
C20 O19 1.208 1_455 S
C21 O26 1.247 . S
C21 O27 1.208 . S
C22 O14 1.315 . S
C22 O17 1.279 . S
C23 O24 1.315 . S
C23 O25 1.277 1_455 S
O24 Cd16 2.223 1_455 S
O24 C23 1.315 . S
O25 Cd15 2.236 1_655 S
O25 C23 1.277 1_655 S
O26 Cd16 2.297 . S
O26 C21 1.247 . S
O27 Cd16 2.439 . S
O27 C21 1.208 . S
O28 Cd29 2.223 . S
O28 C36 1.315 . S
Cd29 O28 2.223 . S
Cd29 O32 2.297 . S
Cd29 O33 2.439 . S
Cd29 O39 2.240 . S
Cd30 O31 2.240 . S
Cd30 O38 2.223 . S
Cd30 O40 2.297 . S
Cd30 O41 2.439 . S
O31 Cd30 2.240 . S
O31 C36 1.279 . S
O32 Cd29 2.297 . S
O32 C34 1.247 . S
O33 Cd29 2.439 . S
O33 C34 1.208 . S
C34 O32 1.247 . S
C34 O33 1.208 . S
C35 O40 1.247 . S
C35 O41 1.208 . S
C36 O28 1.315 . S
C36 O31 1.279 . S
C37 O38 1.315 . S
C37 O39 1.279 . S
O38 Cd30 2.223 . S
O38 C37 1.315 . S
O39 Cd29 2.240 . S
O39 C37 1.279 . S
O40 Cd30 2.297 . S
O40 C35 1.247 . S
O41 Cd30 2.439 . S
O41 C35 1.208 . S
O42 Cd43 2.223 . S
O42 C50 1.315 . S
Cd43 O42 2.223 . S
Cd43 O46 2.297 . S
Cd43 O47 2.439 . S
Cd43 O53 2.240 . S
Cd44 O45 2.240 . S
Cd44 O52 2.223 . S
Cd44 O54 2.297 . S
Cd44 O55 2.439 . S
O45 Cd44 2.240 . S
O45 C50 1.279 . S
O46 Cd43 2.297 . S
O46 C48 1.247 . S
O47 Cd43 2.439 . S
O47 C48 1.208 . S
C48 O46 1.247 . S
C48 O47 1.208 . S
C49 O54 1.247 . S
C49 O55 1.208 . S
C50 O42 1.315 . S
C50 O45 1.279 . S
C51 O52 1.315 . S
C51 O53 1.279 . S
O52 Cd44 2.223 . S
O52 C51 1.315 . S
O53 Cd43 2.240 . S
O53 C51 1.279 . S
O54 Cd44 2.297 . S
O54 C49 1.247 . S
O55 Cd44 2.439 . S
O55 C49 1.208 . S
O56 Cd57 2.223 . S
O56 C64 1.315 . S
Cd57 O56 2.223 . S
Cd57 O60 2.297 1_545 S
Cd57 O61 2.439 1_545 S
Cd57 O67 2.240 . S
Cd58 O59 2.240 . S
Cd58 O66 2.223 . S
Cd58 O68 2.297 . S
Cd58 O69 2.439 . S
O59 Cd58 2.240 . S
O59 C64 1.279 . S
O60 Cd57 2.297 1_565 S
O60 C62 1.247 . S
O61 Cd57 2.439 1_565 S
O61 C62 1.208 . S
C62 O60 1.247 . S
C62 O61 1.208 . S
C63 O68 1.247 . S
C63 O69 1.208 . S
C64 O56 1.315 . S
C64 O59 1.279 . S
C65 O66 1.315 . S
C65 O67 1.279 . S
O66 Cd58 2.223 . S
O66 C65 1.315 . S
O67 Cd57 2.240 . S
O67 C65 1.279 . S
O68 Cd58 2.297 . S
O68 C63 1.247 . S
O69 Cd58 2.439 . S
O69 C63 1.208 . S
O70 Cd71 2.223 . S
O70 C78 1.315 . S
Cd71 O70 2.223 . S
Cd71 O74 2.297 . S
Cd71 O75 2.439 . S
Cd71 O81 2.240 . S
Cd72 O73 2.240 . S
Cd72 O80 2.223 . S
Cd72 O82 2.297 . S
Cd72 O83 2.439 . S
O73 Cd72 2.240 . S
O73 C78 1.279 . S
O74 Cd71 2.297 . S
O74 C76 1.247 . S
O75 Cd71 2.439 . S
O75 C76 1.208 . S
C76 O74 1.247 . S
C76 O75 1.208 . S
C77 O82 1.247 . S
C77 O83 1.208 . S
C78 O70 1.315 . S
C78 O73 1.279 . S
C79 O80 1.315 . S
C79 O81 1.279 . S
O80 Cd72 2.223 . S
O80 C79 1.315 . S
O81 Cd71 2.240 . S
O81 C79 1.279 . S
O82 Cd72 2.297 . S
O82 C77 1.247 . S
O83 Cd72 2.439 . S
O83 C77 1.208 . S
O84 Cd85 2.223 1_565 S
O84 C92 1.315 1_565 S
Cd85 O84 2.223 1_545 S
Cd85 O88 2.297 . S
Cd85 O89 2.439 . S
Cd85 O95 2.240 1_545 S
Cd86 O87 2.240 1_565 S
Cd86 O94 2.223 . S
Cd86 O96 2.297 . S
Cd86 O97 2.439 1_565 S
O87 Cd86 2.240 1_545 S
O87 C92 1.279 . S
O88 Cd85 2.297 . S
O88 C90 1.247 . S
O89 Cd85 2.439 . S
O89 C90 1.208 . S
C90 O88 1.247 . S
C90 O89 1.208 . S
C91 O96 1.247 . S
C91 O97 1.208 1_565 S
C92 O84 1.315 1_545 S
C92 O87 1.279 . S
C93 O94 1.315 . S
C93 O95 1.279 . S
O94 Cd86 2.223 . S
O94 C93 1.315 . S
O95 Cd85 2.240 1_565 S
O95 C93 1.279 . S
O96 Cd86 2.297 . S
O96 C91 1.247 . S
O97 Cd86 2.439 1_545 S
O97 C91 1.208 1_545 S
O98 Cd99 2.223 . S
O98 C106 1.315 . S
Cd99 O98 2.223 . S
Cd99 O102 2.297 . S
Cd99 O103 2.444 . S
Cd99 O109 2.229 1_554 S
Cd100 O101 2.240 1_556 S
Cd100 O108 2.223 1_556 S
Cd100 O110 2.297 . S
Cd100 O111 2.439 . S
O101 Cd100 2.240 1_554 S
O101 C106 1.279 . S
O102 Cd99 2.297 . S
O102 C104 1.247 . S
O103 Cd99 2.444 . S
O103 C104 1.216 . S
C104 O102 1.247 . S
C104 O103 1.216 . S
C105 O110 1.247 . S
C105 O111 1.208 . S
C106 O98 1.315 . S
C106 O101 1.279 . S
C107 O108 1.315 . S
C107 O109 1.272 1_554 S
O108 Cd100 2.223 1_554 S
O108 C107 1.315 . S
O109 Cd99 2.229 1_556 S
O109 C107 1.272 1_556 S
O110 Cd100 2.297 . S
O110 C105 1.247 . S
O111 Cd100 2.439 . S
O111 C105 1.208 . S
O112 Cd113 2.223 . S
O112 C120 1.315 . S
Cd113 O112 2.223 . S
Cd113 O116 2.297 . S
Cd113 O117 2.439 . S
Cd113 O123 2.240 . S
Cd114 O115 2.240 . S
Cd114 O122 2.223 . S
Cd114 O124 2.297 1_554 S
Cd114 O125 2.439 1_554 S
O115 Cd114 2.240 . S
O115 C120 1.279 . S
O116 Cd113 2.297 . S
O116 C118 1.247 . S
O117 Cd113 2.439 . S
O117 C118 1.208 . S
C118 O116 1.247 . S
C118 O117 1.208 . S
C119 O124 1.247 . S
C119 O125 1.208 . S
C120 O112 1.315 . S
C120 O115 1.279 . S
C121 O122 1.315 . S
C121 O123 1.279 . S
O122 Cd114 2.223 . S
O122 C121 1.315 . S
O123 Cd113 2.240 . S
O123 C121 1.279 . S
O124 Cd114 2.297 1_556 S
O124 C119 1.247 . S
O125 Cd114 2.439 1_556 S
O125 C119 1.208 . S
O126 Cd127 2.223 . S
O126 C134 1.315 . S
Cd127 O126 2.223 . S
Cd127 O130 2.297 . S
Cd127 O131 2.439 . S
Cd127 O137 2.240 . S
Cd128 O129 2.240 . S
Cd128 O136 2.223 . S
Cd128 O138 2.297 . S
Cd128 O139 2.439 . S
O129 Cd128 2.240 . S
O129 C134 1.279 . S
O130 Cd127 2.297 . S
O130 C132 1.247 . S
O131 Cd127 2.439 . S
O131 C132 1.208 . S
C132 O130 1.247 . S
C132 O131 1.208 . S
C133 O138 1.247 . S
C133 O139 1.208 . S
C134 O126 1.315 . S
C134 O129 1.279 . S
C135 O136 1.315 . S
C135 O137 1.279 . S
O136 Cd128 2.223 . S
O136 C135 1.315 . S
O137 Cd127 2.240 . S
O137 C135 1.279 . S
O138 Cd128 2.297 . S
O138 C133 1.247 . S
O139 Cd128 2.439 . S
O139 C133 1.208 . S
O140 Cd141 2.223 . S
O140 C148 1.315 . S
Cd141 O140 2.223 . S
Cd141 O144 2.297 . S
Cd141 O145 2.439 . S
Cd141 O151 2.240 . S
Cd142 O143 2.240 . S
Cd142 O150 2.223 . S
Cd142 O152 2.297 . S
Cd142 O153 2.439 . S
O143 Cd142 2.240 . S
O143 C148 1.279 . S
O144 Cd141 2.297 . S
O144 C146 1.247 . S
O145 Cd141 2.439 . S
O145 C146 1.208 . S
C146 O144 1.247 . S
C146 O145 1.208 . S
C147 O152 1.247 . S
C147 O153 1.208 . S
C148 O140 1.315 . S
C148 O143 1.279 . S
C149 O150 1.315 . S
C149 O151 1.279 . S
O150 Cd142 2.223 . S
O150 C149 1.315 . S
O151 Cd141 2.240 . S
O151 C149 1.279 . S
O152 Cd142 2.297 . S
O152 C147 1.247 . S
O153 Cd142 2.439 . S
O153 C147 1.208 . S
O154 Cd155 2.223 . S
O154 C162 1.315 . S
Cd155 O154 2.223 . S
Cd155 O158 2.297 . S
Cd155 O159 2.439 . S
Cd155 O165 2.240 . S
Cd156 O157 2.240 . S
Cd156 O164 2.223 . S
Cd156 O166 2.297 . S
Cd156 O167 2.439 . S
O157 Cd156 2.240 . S
O157 C162 1.279 . S
O158 Cd155 2.297 . S
O158 C160 1.247 . S
O159 Cd155 2.439 . S
O159 C160 1.208 . S
C160 O158 1.247 . S
C160 O159 1.208 . S
C161 O166 1.247 . S
C161 O167 1.208 . S
C162 O154 1.315 . S
C162 O157 1.279 . S
C163 O164 1.315 . S
C163 O165 1.279 . S
O164 Cd156 2.223 . S
O164 C163 1.315 . S
O165 Cd155 2.240 . S
O165 C163 1.279 . S
O166 Cd156 2.297 . S
O166 C161 1.247 . S
O167 Cd156 2.439 . S
O167 C161 1.208 . S
O168 Cd169 2.223 . S
O168 C176 1.315 . S
Cd169 O168 2.223 . S
Cd169 O172 2.297 . S
Cd169 O173 2.439 1_455 S
Cd169 O179 2.240 1_455 S
Cd170 O171 2.240 1_655 S
Cd170 O178 2.223 1_655 S
Cd170 O180 2.297 . S
Cd170 O181 2.439 . S
O171 Cd170 2.240 1_455 S
O171 C176 1.279 . S
O172 Cd169 2.297 . S
O172 C174 1.247 . S
O173 Cd169 2.439 1_655 S
O173 C174 1.208 1_655 S
C174 O172 1.247 . S
C174 O173 1.208 1_455 S
C175 O180 1.247 . S
C175 O181 1.208 . S
C176 O168 1.315 . S
C176 O171 1.279 . S
C177 O178 1.315 . S
C177 O179 1.279 1_455 S
O178 Cd170 2.223 1_455 S
O178 C177 1.315 . S
O179 Cd169 2.240 1_655 S
O179 C177 1.279 1_655 S
O180 Cd170 2.297 . S
O180 C175 1.247 . S
O181 Cd170 2.439 . S
O181 C175 1.208 . S
O182 Cd183 2.223 1_455 S
O182 C190 1.315 . S
Cd183 O182 2.223 1_655 S
Cd183 O186 2.297 . S
Cd183 O187 2.439 . S
Cd183 O193 2.240 1_655 S
Cd184 O185 2.240 1_455 S
Cd184 O192 2.223 . S
Cd184 O194 2.297 . S
Cd184 O195 2.443 . S
O185 Cd184 2.240 1_655 S
O185 C190 1.279 1_655 S
O186 Cd183 2.297 . S
O186 C188 1.247 . S
O187 Cd183 2.439 . S
O187 C188 1.208 . S
C188 O186 1.247 . S
C188 O187 1.208 . S
C189 O194 1.247 . S
C189 O195 1.215 . S
C190 O182 1.315 . S
C190 O185 1.279 1_455 S
C191 O192 1.315 . S
C191 O193 1.279 . S
O192 Cd184 2.223 . S
O192 C191 1.315 . S
O193 Cd183 2.240 1_455 S
O193 C191 1.279 . S
O194 Cd184 2.297 . S
O194 C189 1.247 . S
O195 Cd184 2.443 . S
O195 C189 1.215 . S
O196 Cd197 2.223 . S
O196 C204 1.315 . S
Cd197 O196 2.223 . S
Cd197 O200 2.297 . S
Cd197 O201 2.439 . S
Cd197 O207 2.240 . S
Cd198 O199 2.240 . S
Cd198 O206 2.223 . S
Cd198 O208 2.297 . S
Cd198 O209 2.439 . S
O199 Cd198 2.240 . S
O199 C204 1.279 . S
O200 Cd197 2.297 . S
O200 C202 1.247 . S
O201 Cd197 2.439 . S
O201 C202 1.208 . S
C202 O200 1.247 . S
C202 O201 1.208 . S
C203 O208 1.247 . S
C203 O209 1.208 . S
C204 O196 1.315 . S
C204 O199 1.279 . S
C205 O206 1.315 . S
C205 O207 1.279 . S
O206 Cd198 2.223 . S
O206 C205 1.315 . S
O207 Cd197 2.240 . S
O207 C205 1.279 . S
O208 Cd198 2.297 . S
O208 C203 1.247 . S
O209 Cd198 2.439 . S
O209 C203 1.208 . S
O210 Cd211 2.223 . S
O210 C218 1.315 . S
Cd211 O210 2.223 . S
Cd211 O214 2.297 . S
Cd211 O215 2.439 . S
Cd211 O221 2.240 . S
Cd212 O213 2.240 . S
Cd212 O220 2.223 . S
Cd212 O222 2.297 . S
Cd212 O223 2.439 . S
O213 Cd212 2.240 . S
O213 C218 1.279 . S
O214 Cd211 2.297 . S
O214 C216 1.247 . S
O215 Cd211 2.439 . S
O215 C216 1.208 . S
C216 O214 1.247 . S
C216 O215 1.208 . S
C217 O222 1.247 . S
C217 O223 1.208 . S
C218 O210 1.315 . S
C218 O213 1.279 . S
C219 O220 1.315 . S
C219 O221 1.279 . S
O220 Cd212 2.223 . S
O220 C219 1.315 . S
O221 Cd211 2.240 . S
O221 C219 1.279 . S
O222 Cd212 2.297 . S
O222 C217 1.247 . S
O223 Cd212 2.439 . S
O223 C217 1.208 . S
O224 Cd225 2.223 . S
O224 C232 1.315 . S
Cd225 O224 2.223 . S
Cd225 O228 2.297 . S
Cd225 O229 2.439 . S
Cd225 O235 2.240 1_545 S
Cd226 O227 2.240 1_565 S
Cd226 O234 2.223 . S
Cd226 O236 2.297 . S
Cd226 O237 2.439 1_565 S
O227 Cd226 2.240 1_545 S
O227 C232 1.279 . S
O228 Cd225 2.297 . S
O228 C230 1.247 . S
O229 Cd225 2.439 . S
O229 C230 1.208 . S
C230 O228 1.247 . S
C230 O229 1.208 . S
C231 O236 1.250 . S
C231 O237 1.206 1_565 S
C232 O224 1.315 . S
C232 O227 1.279 . S
C233 O234 1.315 . S
C233 O235 1.279 . S
O234 Cd226 2.223 . S
O234 C233 1.315 . S
O235 Cd225 2.240 1_565 S
O235 C233 1.279 . S
O236 Cd226 2.297 . S
O236 C231 1.250 . S
O237 Cd226 2.439 1_545 S
O237 C231 1.206 1_545 S
O238 Cd239 2.223 . S
O238 C246 1.315 . S
Cd239 O238 2.223 . S
Cd239 O242 2.297 . S
Cd239 O243 2.439 . S
Cd239 O249 2.240 . S
Cd240 O241 2.240 . S
Cd240 O248 2.223 . S
Cd240 O250 2.297 . S
Cd240 O251 2.439 . S
O241 Cd240 2.240 . S
O241 C246 1.279 . S
O242 Cd239 2.297 . S
O242 C244 1.247 . S
O243 Cd239 2.439 . S
O243 C244 1.208 . S
C244 O242 1.247 . S
C244 O243 1.208 . S
C245 O250 1.247 . S
C245 O251 1.208 . S
C246 O238 1.315 . S
C246 O241 1.279 . S
C247 O248 1.315 . S
C247 O249 1.279 . S
O248 Cd240 2.223 . S
O248 C247 1.315 . S
O249 Cd239 2.240 . S
O249 C247 1.279 . S
O250 Cd240 2.297 . S
O250 C245 1.247 . S
O251 Cd240 2.439 . S
O251 C245 1.208 . S
O252 Cd253 2.223 1_545 S
O252 C260 1.315 . S
Cd253 O252 2.223 1_565 S
Cd253 O256 2.297 . S
Cd253 O257 2.439 . S
Cd253 O263 2.240 1_565 S
Cd254 O255 2.240 1_545 S
Cd254 O262 2.223 . S
Cd254 O264 2.297 . S
Cd254 O265 2.439 . S
O255 Cd254 2.240 1_565 S
O255 C260 1.279 1_565 S
O256 Cd253 2.297 . S
O256 C258 1.247 . S
O257 Cd253 2.439 . S
O257 C258 1.208 . S
C258 O256 1.247 . S
C258 O257 1.208 . S
C259 O264 1.247 . S
C259 O265 1.208 . S
C260 O252 1.315 . S
C260 O255 1.279 1_545 S
C261 O262 1.315 . S
C261 O263 1.279 . S
O262 Cd254 2.223 . S
O262 C261 1.315 . S
O263 Cd253 2.240 1_545 S
O263 C261 1.279 . S
O264 Cd254 2.297 . S
O264 C259 1.247 . S
O265 Cd254 2.439 . S
O265 C259 1.208 . S
O266 Cd267 2.223 . S
O266 C274 1.315 . S
Cd267 O266 2.223 . S
Cd267 O270 2.297 . S
Cd267 O271 2.439 1_554 S
Cd267 O277 2.240 1_554 S
Cd268 O269 2.240 1_556 S
Cd268 O276 2.223 1_556 S
Cd268 O278 2.297 . S
Cd268 O279 2.439 . S
O269 Cd268 2.240 1_554 S
O269 C274 1.279 . S
O270 Cd267 2.297 . S
O270 C272 1.247 . S
O271 Cd267 2.439 1_556 S
O271 C272 1.208 1_556 S
C272 O270 1.247 . S
C272 O271 1.208 1_554 S
C273 O278 1.247 . S
C273 O279 1.208 . S
C274 O266 1.315 . S
C274 O269 1.279 . S
C275 O276 1.315 . S
C275 O277 1.279 1_554 S
O276 Cd268 2.223 1_554 S
O276 C275 1.315 . S
O277 Cd267 2.240 1_556 S
O277 C275 1.279 1_556 S
O278 Cd268 2.297 . S
O278 C273 1.247 . S
O279 Cd268 2.439 . S
O279 C273 1.208 . S
O280 Cd281 2.223 . S
O280 C288 1.315 . S
Cd281 O280 2.223 . S
Cd281 O284 2.297 . S
Cd281 O285 2.439 . S
Cd281 O291 2.240 1_554 S
Cd282 O283 2.240 1_556 S
Cd282 O290 2.223 1_556 S
Cd282 O292 2.297 . S
Cd282 O293 2.439 . S
O283 Cd282 2.240 1_554 S
O283 C288 1.279 . S
O284 Cd281 2.297 . S
O284 C286 1.247 . S
O285 Cd281 2.439 . S
O285 C286 1.208 . S
C286 O284 1.247 . S
C286 O285 1.208 . S
C287 O292 1.247 . S
C287 O293 1.208 . S
C288 O280 1.315 . S
C288 O283 1.279 . S
C289 O290 1.315 . S
C289 O291 1.279 1_554 S
O290 Cd282 2.223 1_554 S
O290 C289 1.315 . S
O291 Cd281 2.240 1_556 S
O291 C289 1.279 1_556 S
O292 Cd282 2.297 . S
O292 C287 1.247 . S
O293 Cd282 2.439 . S
O293 C287 1.208 . S
O294 Cd295 2.223 . S
O294 C302 1.315 . S
Cd295 O294 2.223 . S
Cd295 O298 2.297 . S
Cd295 O299 2.439 . S
Cd295 O305 2.240 . S
Cd296 O297 2.240 . S
Cd296 O304 2.223 . S
Cd296 O306 2.297 . S
Cd296 O307 2.439 . S
O297 Cd296 2.240 . S
O297 C302 1.279 . S
O298 Cd295 2.297 . S
O298 C300 1.247 . S
O299 Cd295 2.439 . S
O299 C300 1.208 . S
C300 O298 1.247 . S
C300 O299 1.208 . S
C301 O306 1.247 . S
C301 O307 1.208 . S
C302 O294 1.315 . S
C302 O297 1.279 . S
C303 O304 1.315 . S
C303 O305 1.279 . S
O304 Cd296 2.223 . S
O304 C303 1.315 . S
O305 Cd295 2.240 . S
O305 C303 1.279 . S
O306 Cd296 2.297 . S
O306 C301 1.247 . S
O307 Cd296 2.439 . S
O307 C301 1.208 . S
O308 Cd309 2.223 . S
O308 C316 1.315 . S
Cd309 O308 2.223 . S
Cd309 O312 2.297 . S
Cd309 O313 2.439 . S
Cd309 O319 2.240 . S
Cd310 O311 2.240 . S
Cd310 O318 2.223 . S
Cd310 O320 2.297 . S
Cd310 O321 2.439 . S
O311 Cd310 2.240 . S
O311 C316 1.279 . S
O312 Cd309 2.297 . S
O312 C314 1.247 . S
O313 Cd309 2.439 . S
O313 C314 1.208 . S
C314 O312 1.247 . S
C314 O313 1.208 . S
C315 O320 1.247 . S
C315 O321 1.208 . S
C316 O308 1.315 . S
C316 O311 1.279 . S
C317 O318 1.315 . S
C317 O319 1.279 . S
O318 Cd310 2.223 . S
O318 C317 1.315 . S
O319 Cd309 2.240 . S
O319 C317 1.279 . S
O320 Cd310 2.297 . S
O320 C315 1.247 . S
O321 Cd310 2.439 . S
O321 C315 1.208 . S
O322 Cd323 2.223 . S
O322 C330 1.315 . S
Cd323 O322 2.223 . S
Cd323 O326 2.297 . S
Cd323 O327 2.439 . S
Cd323 O333 2.240 . S
Cd324 O325 2.240 . S
Cd324 O332 2.223 . S
Cd324 O334 2.297 . S
Cd324 O335 2.439 . S
O325 Cd324 2.240 . S
O325 C330 1.279 . S
O326 Cd323 2.297 . S
O326 C328 1.247 . S
O327 Cd323 2.439 . S
O327 C328 1.208 . S
C328 O326 1.247 . S
C328 O327 1.208 . S
C329 O334 1.247 . S
C329 O335 1.208 . S
C330 O322 1.315 . S
C330 O325 1.279 . S
C331 O332 1.315 . S
C331 O333 1.279 . S
O332 Cd324 2.223 . S
O332 C331 1.315 . S
O333 Cd323 2.240 . S
O333 C331 1.279 . S
O334 Cd324 2.297 . S
O334 C329 1.247 . S
O335 Cd324 2.439 . S
O335 C329 1.208 . S
O336 Zn337 1.953 . S
O336 C352 1.225 1_455 S
Zn337 O336 1.953 . S
Zn337 O338 1.949 . S
Zn337 O344 1.919 1_554 S
Zn337 O349 1.924 1_554 S
O338 Zn337 1.949 . S
O338 Zn339 1.923 1_545 S
O338 Zn340 1.950 1_455 S
O338 Zn341 1.945 1_444 S
Zn339 O338 1.923 1_565 S
Zn339 O342 1.933 . S
Zn339 O345 1.941 1_565 S
Zn339 O346 1.965 . S
Zn340 O338 1.950 1_655 S
Zn340 O347 1.938 1_655 S
Zn340 O348 1.906 1_545 S
Zn340 O358 1.953 . S
Zn341 O338 1.945 1_666 S
Zn341 O343 1.932 1_655 S
Zn341 O350 1.977 1_556 S
Zn341 O351 1.910 1_565 S
O342 Zn339 1.933 . S
O342 C353 1.226 1_554 S
O343 Zn341 1.932 1_455 S
O343 C353 1.307 . S
O344 Zn337 1.919 1_556 S
O344 C355 1.253 1_556 S
O345 Zn339 1.941 1_545 S
O345 C355 1.283 . S
O346 Zn339 1.965 . S
O346 C354 1.303 . S
O347 Zn340 1.938 1_455 S
O347 C354 1.247 1_545 S
O348 Zn340 1.906 1_565 S
O348 C356 1.304 . S
O349 Zn337 1.924 1_556 S
O349 C357 1.311 1_455 S
O350 Zn341 1.977 1_554 S
O350 C356 1.272 . S
O351 Zn341 1.910 1_545 S
O351 C357 1.231 . S
C352 O336 1.225 1_655 S
C352 O358 1.298 . S
C353 O342 1.226 1_556 S
C353 O343 1.307 . S
C354 O346 1.303 . S
C354 O347 1.247 1_565 S
C355 O344 1.253 1_554 S
C355 O345 1.283 . S
C356 O348 1.304 . S
C356 O350 1.272 . S
C357 O349 1.311 1_655 S
C357 O351 1.231 . S
O358 Zn340 1.953 . S
O358 C352 1.298 . S
O359 Zn360 1.953 . S
O359 C375 1.225 . S
Zn360 O359 1.953 . S
Zn360 O361 1.949 . S
Zn360 O367 1.919 . S
Zn360 O372 1.924 . S
O361 Zn360 1.949 . S
O361 Zn362 1.923 . S
O361 Zn363 1.950 . S
O361 Zn364 1.945 . S
Zn362 O361 1.923 . S
Zn362 O365 1.933 . S
Zn362 O368 1.941 . S
Zn362 O369 1.965 . S
Zn363 O361 1.950 . S
Zn363 O370 1.938 . S
Zn363 O371 1.906 . S
Zn363 O381 1.953 . S
Zn364 O361 1.945 . S
Zn364 O366 1.932 . S
Zn364 O373 1.977 . S
Zn364 O374 1.910 . S
O365 Zn362 1.933 . S
O365 C376 1.226 . S
O366 Zn364 1.932 . S
O366 C376 1.307 . S
O367 Zn360 1.919 . S
O367 C378 1.253 . S
O368 Zn362 1.941 . S
O368 C378 1.283 . S
O369 Zn362 1.965 . S
O369 C377 1.303 . S
O370 Zn363 1.938 . S
O370 C377 1.247 . S
O371 Zn363 1.906 . S
O371 C379 1.304 . S
O372 Zn360 1.924 . S
O372 C380 1.311 . S
O373 Zn364 1.977 . S
O373 C379 1.272 . S
O374 Zn364 1.910 . S
O374 C380 1.231 . S
C375 O359 1.225 . S
C375 O381 1.298 . S
C376 O365 1.226 . S
C376 O366 1.307 . S
C377 O369 1.303 . S
C377 O370 1.247 . S
C378 O367 1.253 . S
C378 O368 1.283 . S
C379 O371 1.304 . S
C379 O373 1.272 . S
C380 O372 1.311 . S
C380 O374 1.231 . S
O381 Zn363 1.953 . S
O381 C375 1.298 . S
O382 Zn383 1.953 . S
O382 C398 1.225 . S
Zn383 O382 1.953 . S
Zn383 O384 1.949 1_565 S
Zn383 O390 1.919 . S
Zn383 O395 1.924 . S
O384 Zn383 1.949 1_545 S
O384 Zn385 1.923 . S
O384 Zn386 1.950 . S
O384 Zn387 1.945 . S
Zn385 O384 1.923 . S
Zn385 O388 1.933 . S
Zn385 O391 1.941 . S
Zn385 O392 1.965 . S
Zn386 O384 1.950 . S
Zn386 O393 1.938 . S
Zn386 O394 1.906 . S
Zn386 O404 1.953 1_545 S
Zn387 O384 1.945 . S
Zn387 O389 1.932 . S
Zn387 O396 1.977 . S
Zn387 O397 1.910 . S
O388 Zn385 1.933 . S
O388 C399 1.226 . S
O389 Zn387 1.932 . S
O389 C399 1.307 . S
O390 Zn383 1.919 . S
O390 C401 1.253 . S
O391 Zn385 1.941 . S
O391 C401 1.283 1_545 S
O392 Zn385 1.965 . S
O392 C400 1.303 . S
O393 Zn386 1.938 . S
O393 C400 1.247 . S
O394 Zn386 1.906 . S
O394 C402 1.304 . S
O395 Zn383 1.924 . S
O395 C403 1.311 . S
O396 Zn387 1.977 . S
O396 C402 1.272 . S
O397 Zn387 1.910 . S
O397 C403 1.231 1_545 S
C398 O382 1.225 . S
C398 O404 1.298 . S
C399 O388 1.226 . S
C399 O389 1.307 . S
C400 O392 1.303 . S
C400 O393 1.247 . S
C401 O390 1.253 . S
C401 O391 1.283 1_565 S
C402 O394 1.304 . S
C402 O396 1.272 . S
C403 O395 1.311 . S
C403 O397 1.231 1_565 S
O404 Zn386 1.953 1_565 S
O404 C398 1.298 . S
O405 Zn406 1.953 . S
O405 C421 1.225 . S
Zn406 O405 1.953 . S
Zn406 O407 1.949 . S
Zn406 O413 1.919 . S
Zn406 O418 1.924 . S
O407 Zn406 1.949 . S
O407 Zn408 1.923 . S
O407 Zn409 1.950 . S
O407 Zn410 1.945 . S
Zn408 O407 1.923 . S
Zn408 O411 1.933 . S
Zn408 O414 1.941 . S
Zn408 O415 1.965 . S
Zn409 O407 1.950 . S
Zn409 O416 1.938 . S
Zn409 O417 1.906 . S
Zn409 O427 1.953 . S
Zn410 O407 1.945 . S
Zn410 O412 1.932 . S
Zn410 O419 1.977 . S
Zn410 O420 1.910 . S
O411 Zn408 1.933 . S
O411 C422 1.226 . S
O412 Zn410 1.932 . S
O412 C422 1.307 . S
O413 Zn406 1.919 . S
O413 C424 1.253 . S
O414 Zn408 1.941 . S
O414 C424 1.283 . S
O415 Zn408 1.965 . S
O415 C423 1.303 . S
O416 Zn409 1.938 . S
O416 C423 1.247 . S
O417 Zn409 1.906 . S
O417 C425 1.304 . S
O418 Zn406 1.924 . S
O418 C426 1.311 . S
O419 Zn410 1.977 . S
O419 C425 1.272 . S
O420 Zn410 1.910 . S
O420 C426 1.231 . S
C421 O405 1.225 . S
C421 O427 1.298 . S
C422 O411 1.226 . S
C422 O412 1.307 . S
C423 O415 1.303 . S
C423 O416 1.247 . S
C424 O413 1.253 . S
C424 O414 1.283 . S
C425 O417 1.304 . S
C425 O419 1.272 . S
C426 O418 1.311 . S
C426 O420 1.231 . S
O427 Zn409 1.953 . S
O427 C421 1.298 . S
O428 Zn429 1.953 1_445 S
O428 C444 1.225 . S
Zn429 O428 1.953 1_665 S
Zn429 O430 1.949 1_665 S
Zn429 O436 1.919 . S
Zn429 O441 1.924 1_565 S
O430 Zn429 1.949 1_445 S
O430 Zn431 1.923 1_545 S
O430 Zn432 1.950 . S
O430 Zn433 1.945 1_455 S
Zn431 O430 1.923 1_565 S
Zn431 O434 1.933 1_455 S
Zn431 O437 1.941 . S
Zn431 O438 1.965 . S
Zn432 O430 1.950 . S
Zn432 O439 1.938 . S
Zn432 O440 1.906 . S
Zn432 O450 1.953 . S
Zn433 O430 1.945 1_655 S
Zn433 O435 1.932 . S
Zn433 O442 1.977 . S
Zn433 O443 1.910 . S
O434 Zn431 1.933 1_655 S
O434 C445 1.226 . S
O435 Zn433 1.932 . S
O435 C445 1.307 1_545 S
O436 Zn429 1.919 . S
O436 C447 1.253 . S
O437 Zn431 1.941 . S
O437 C447 1.283 1_455 S
O438 Zn431 1.965 . S
O438 C446 1.303 . S
O439 Zn432 1.938 . S
O439 C446 1.247 1_545 S
O440 Zn432 1.906 . S
O440 C448 1.304 . S
O441 Zn429 1.924 1_545 S
O441 C449 1.311 . S
O442 Zn433 1.977 . S
O442 C448 1.272 1_655 S
O443 Zn433 1.910 . S
O443 C449 1.231 . S
C444 O428 1.225 . S
C444 O450 1.298 . S
C445 O434 1.226 . S
C445 O435 1.307 1_565 S
C446 O438 1.303 . S
C446 O439 1.247 1_565 S
C447 O436 1.253 . S
C447 O437 1.283 1_655 S
C448 O440 1.304 . S
C448 O442 1.272 1_455 S
C449 O441 1.311 . S
C449 O443 1.231 . S
O450 Zn432 1.953 . S
O450 C444 1.298 . S
O451 Zn452 1.953 . S
O451 C467 1.225 . S
Zn452 O451 1.953 . S
Zn452 O453 1.949 . S
Zn452 O459 1.919 . S
Zn452 O464 1.924 . S
O453 Zn452 1.949 . S
O453 Zn454 1.923 . S
O453 Zn455 1.950 . S
O453 Zn456 1.945 . S
Zn454 O453 1.923 . S
Zn454 O457 1.933 . S
Zn454 O460 1.941 . S
Zn454 O461 1.965 . S
Zn455 O453 1.950 . S
Zn455 O462 1.938 . S
Zn455 O463 1.906 . S
Zn455 O473 1.953 . S
Zn456 O453 1.945 . S
Zn456 O458 1.932 . S
Zn456 O465 1.977 . S
Zn456 O466 1.910 . S
O457 Zn454 1.933 . S
O457 C468 1.226 . S
O458 Zn456 1.932 . S
O458 C468 1.307 . S
O459 Zn452 1.919 . S
O459 C470 1.253 . S
O460 Zn454 1.941 . S
O460 C470 1.283 . S
O461 Zn454 1.965 . S
O461 C469 1.303 . S
O462 Zn455 1.938 . S
O462 C469 1.247 . S
O463 Zn455 1.906 . S
O463 C471 1.304 . S
O464 Zn452 1.924 . S
O464 C472 1.311 . S
O465 Zn456 1.977 . S
O465 C471 1.272 . S
O466 Zn456 1.910 . S
O466 C472 1.231 . S
C467 O451 1.225 . S
C467 O473 1.298 . S
C468 O457 1.226 . S
C468 O458 1.307 . S
C469 O461 1.303 . S
C469 O462 1.247 . S
C470 O459 1.253 . S
C470 O460 1.283 . S
C471 O463 1.304 . S
C471 O465 1.272 . S
C472 O464 1.311 . S
C472 O466 1.231 . S
O473 Zn455 1.953 . S
O473 C467 1.298 . S
O474 Zn475 1.953 . S
O474 C490 1.225 . S
Zn475 O474 1.953 . S
Zn475 O476 1.949 . S
Zn475 O482 1.919 . S
Zn475 O487 1.924 . S
O476 Zn475 1.949 . S
O476 Zn477 1.923 1_544 S
O476 Zn478 1.950 . S
O476 Zn479 1.945 1_554 S
Zn477 O476 1.923 1_566 S
Zn477 O480 1.933 . S
Zn477 O483 1.941 . S
Zn477 O484 1.965 1_556 S
Zn478 O476 1.950 . S
Zn478 O485 1.938 1_545 S
Zn478 O486 1.906 . S
Zn478 O496 1.953 . S
Zn479 O476 1.945 1_556 S
Zn479 O481 1.932 . S
Zn479 O488 1.977 1_556 S
Zn479 O489 1.910 . S
O480 Zn477 1.933 . S
O480 C491 1.226 . S
O481 Zn479 1.932 . S
O481 C491 1.307 1_545 S
O482 Zn475 1.919 . S
O482 C493 1.253 1_544 S
O483 Zn477 1.941 . S
O483 C493 1.283 . S
O484 Zn477 1.965 1_554 S
O484 C492 1.303 . S
O485 Zn478 1.938 1_565 S
O485 C492 1.247 . S
O486 Zn478 1.906 . S
O486 C494 1.304 . S
O487 Zn475 1.924 . S
O487 C495 1.311 . S
O488 Zn479 1.977 1_554 S
O488 C494 1.272 . S
O489 Zn479 1.910 . S
O489 C495 1.231 1_556 S
C490 O474 1.225 . S
C490 O496 1.298 . S
C491 O480 1.226 . S
C491 O481 1.307 1_565 S
C492 O484 1.303 . S
C492 O485 1.247 . S
C493 O482 1.253 1_566 S
C493 O483 1.283 . S
C494 O486 1.304 . S
C494 O488 1.272 . S
C495 O487 1.311 . S
C495 O489 1.231 1_554 S
O496 Zn478 1.953 . S
O496 C490 1.298 . S
O497 Zn498 1.953 . S
O497 C513 1.225 . S
Zn498 O497 1.953 . S
Zn498 O499 1.949 . S
Zn498 O505 1.919 . S
Zn498 O510 1.924 . S
O499 Zn498 1.949 . S
O499 Zn500 1.923 . S
O499 Zn501 1.950 . S
O499 Zn502 1.945 . S
Zn500 O499 1.923 . S
Zn500 O503 1.933 . S
Zn500 O506 1.941 . S
Zn500 O507 1.965 . S
Zn501 O499 1.950 . S
Zn501 O508 1.938 . S
Zn501 O509 1.906 . S
Zn501 O519 1.953 . S
Zn502 O499 1.945 . S
Zn502 O504 1.932 . S
Zn502 O511 1.977 . S
Zn502 O512 1.910 . S
O503 Zn500 1.933 . S
O503 C514 1.226 . S
O504 Zn502 1.932 . S
O504 C514 1.307 . S
O505 Zn498 1.919 . S
O505 C516 1.253 . S
O506 Zn500 1.941 . S
O506 C516 1.283 . S
O507 Zn500 1.965 . S
O507 C515 1.303 . S
O508 Zn501 1.938 . S
O508 C515 1.247 . S
O509 Zn501 1.906 . S
O509 C517 1.304 . S
O510 Zn498 1.924 . S
O510 C518 1.311 . S
O511 Zn502 1.977 . S
O511 C517 1.272 . S
O512 Zn502 1.910 . S
O512 C518 1.231 . S
C513 O497 1.225 . S
C513 O519 1.298 . S
C514 O503 1.226 . S
C514 O504 1.307 . S
C515 O507 1.303 . S
C515 O508 1.247 . S
C516 O505 1.253 . S
C516 O506 1.283 . S
C517 O509 1.304 . S
C517 O511 1.272 . S
C518 O510 1.311 . S
C518 O512 1.231 . S
O519 Zn501 1.953 . S
O519 C513 1.298 . S
O520 Zn521 1.953 . S
O520 C536 1.225 . S
Zn521 O520 1.953 . S
Zn521 O522 1.949 1_556 S
Zn521 O528 1.919 . S
Zn521 O533 1.924 . S
O522 Zn521 1.949 1_554 S
O522 Zn523 1.923 . S
O522 Zn524 1.950 . S
O522 Zn525 1.945 . S
Zn523 O522 1.923 . S
Zn523 O526 1.933 . S
Zn523 O529 1.941 . S
Zn523 O530 1.965 . S
Zn524 O522 1.950 . S
Zn524 O531 1.938 . S
Zn524 O532 1.906 . S
Zn524 O542 1.953 1_554 S
Zn525 O522 1.945 . S
Zn525 O527 1.932 . S
Zn525 O534 1.977 . S
Zn525 O535 1.910 . S
O526 Zn523 1.933 . S
O526 C537 1.226 . S
O527 Zn525 1.932 . S
O527 C537 1.307 . S
O528 Zn521 1.919 . S
O528 C539 1.253 1_556 S
O529 Zn523 1.941 . S
O529 C539 1.283 . S
O530 Zn523 1.965 . S
O530 C538 1.303 . S
O531 Zn524 1.938 . S
O531 C538 1.247 . S
O532 Zn524 1.906 . S
O532 C540 1.304 . S
O533 Zn521 1.924 . S
O533 C541 1.311 . S
O534 Zn525 1.977 . S
O534 C540 1.272 . S
O535 Zn525 1.910 . S
O535 C541 1.231 1_554 S
C536 O520 1.225 . S
C536 O542 1.298 . S
C537 O526 1.226 . S
C537 O527 1.307 . S
C538 O530 1.303 . S
C538 O531 1.247 . S
C539 O528 1.253 1_554 S
C539 O529 1.283 . S
C540 O532 1.304 . S
C540 O534 1.272 . S
C541 O533 1.311 . S
C541 O535 1.231 1_556 S
O542 Zn524 1.953 1_556 S
O542 C536 1.298 . S
O543 Zn544 1.953 . S
O543 C559 1.225 . S
Zn544 O543 1.953 . S
Zn544 O545 1.949 . S
Zn544 O551 1.919 . S
Zn544 O556 1.924 . S
O545 Zn544 1.949 . S
O545 Zn546 1.923 . S
O545 Zn547 1.950 . S
O545 Zn548 1.945 . S
Zn546 O545 1.923 . S
Zn546 O549 1.933 . S
Zn546 O552 1.941 . S
Zn546 O553 1.965 . S
Zn547 O545 1.950 . S
Zn547 O554 1.938 . S
Zn547 O555 1.906 . S
Zn547 O565 1.953 . S
Zn548 O545 1.945 . S
Zn548 O550 1.932 . S
Zn548 O557 1.977 . S
Zn548 O558 1.910 . S
O549 Zn546 1.933 . S
O549 C560 1.226 . S
O550 Zn548 1.932 . S
O550 C560 1.307 . S
O551 Zn544 1.919 . S
O551 C562 1.253 . S
O552 Zn546 1.941 . S
O552 C562 1.283 . S
O553 Zn546 1.965 . S
O553 C561 1.303 . S
O554 Zn547 1.938 . S
O554 C561 1.247 . S
O555 Zn547 1.906 . S
O555 C563 1.304 . S
O556 Zn544 1.924 . S
O556 C564 1.311 . S
O557 Zn548 1.977 . S
O557 C563 1.272 . S
O558 Zn548 1.910 . S
O558 C564 1.231 . S
C559 O543 1.225 . S
C559 O565 1.298 . S
C560 O549 1.226 . S
C560 O550 1.307 . S
C561 O553 1.303 . S
C561 O554 1.247 . S
C562 O551 1.253 . S
C562 O552 1.283 . S
C563 O555 1.304 . S
C563 O557 1.272 . S
C564 O556 1.311 . S
C564 O558 1.231 . S
O565 Zn547 1.953 . S
O565 C559 1.298 . S
O566 Zn567 1.953 . S
O566 C582 1.225 . S
Zn567 O566 1.953 . S
Zn567 O568 1.949 . S
Zn567 O574 1.919 . S
Zn567 O579 1.924 . S
O568 Zn567 1.949 . S
O568 Zn569 1.923 . S
O568 Zn570 1.950 1_455 S
O568 Zn571 1.945 1_455 S
Zn569 O568 1.923 . S
Zn569 O572 1.933 1_455 S
Zn569 O575 1.941 . S
Zn569 O576 1.965 1_455 S
Zn570 O568 1.950 1_655 S
Zn570 O577 1.938 . S
Zn570 O578 1.906 . S
Zn570 O588 1.953 1_655 S
Zn571 O568 1.945 1_655 S
Zn571 O573 1.932 . S
Zn571 O580 1.977 . S
Zn571 O581 1.910 1_655 S
O572 Zn569 1.933 1_655 S
O572 C583 1.226 . S
O573 Zn571 1.932 . S
O573 C583 1.307 . S
O574 Zn567 1.919 . S
O574 C585 1.253 . S
O575 Zn569 1.941 . S
O575 C585 1.283 . S
O576 Zn569 1.965 1_655 S
O576 C584 1.303 . S
O577 Zn570 1.938 . S
O577 C584 1.247 . S
O578 Zn570 1.906 . S
O578 C586 1.304 . S
O579 Zn567 1.924 . S
O579 C587 1.311 . S
O580 Zn571 1.977 . S
O580 C586 1.272 . S
O581 Zn571 1.910 1_455 S
O581 C587 1.231 . S
C582 O566 1.225 . S
C582 O588 1.298 . S
C583 O572 1.226 . S
C583 O573 1.307 . S
C584 O576 1.303 . S
C584 O577 1.247 . S
C585 O574 1.253 . S
C585 O575 1.283 . S
C586 O578 1.304 . S
C586 O580 1.272 . S
C587 O579 1.311 . S
C587 O581 1.231 . S
O588 Zn570 1.953 1_455 S
O588 C582 1.298 . S
O589 Zn590 1.953 . S
O589 C605 1.225 . S
Zn590 O589 1.953 . S
Zn590 O591 1.949 . S
Zn590 O597 1.919 . S
Zn590 O602 1.924 . S
O591 Zn590 1.949 . S
O591 Zn592 1.923 . S
O591 Zn593 1.950 . S
O591 Zn594 1.945 . S
Zn592 O591 1.923 . S
Zn592 O595 1.933 . S
Zn592 O598 1.941 . S
Zn592 O599 1.965 . S
Zn593 O591 1.950 . S
Zn593 O600 1.938 . S
Zn593 O601 1.906 . S
Zn593 O611 1.953 . S
Zn594 O591 1.945 . S
Zn594 O596 1.932 . S
Zn594 O603 1.977 . S
Zn594 O604 1.910 . S
O595 Zn592 1.933 . S
O595 C606 1.226 . S
O596 Zn594 1.932 . S
O596 C606 1.307 . S
O597 Zn590 1.919 . S
O597 C608 1.253 . S
O598 Zn592 1.941 . S
O598 C608 1.283 . S
O599 Zn592 1.965 . S
O599 C607 1.303 . S
O600 Zn593 1.938 . S
O600 C607 1.247 . S
O601 Zn593 1.906 . S
O601 C609 1.304 . S
O602 Zn590 1.924 . S
O602 C610 1.311 . S
O603 Zn594 1.977 . S
O603 C609 1.272 . S
O604 Zn594 1.910 . S
O604 C610 1.231 . S
C605 O589 1.225 . S
C605 O611 1.298 . S
C606 O595 1.226 . S
C606 O596 1.307 . S
C607 O599 1.303 . S
C607 O600 1.247 . S
C608 O597 1.253 . S
C608 O598 1.283 . S
C609 O601 1.304 . S
C609 O603 1.272 . S
C610 O602 1.311 . S
C610 O604 1.231 . S
O611 Zn593 1.953 . S
O611 C605 1.298 . S
O612 Zn613 1.953 . S
O612 C628 1.225 . S
Zn613 O612 1.953 . S
Zn613 O614 1.949 . S
Zn613 O620 1.919 . S
Zn613 O625 1.924 . S
O614 Zn613 1.949 . S
O614 Zn615 1.923 . S
O614 Zn616 1.950 . S
O614 Zn617 1.945 . S
Zn615 O614 1.923 . S
Zn615 O618 1.933 . S
Zn615 O621 1.941 . S
Zn615 O622 1.965 . S
Zn616 O614 1.950 . S
Zn616 O623 1.938 . S
Zn616 O624 1.906 . S
Zn616 O634 1.953 . S
Zn617 O614 1.945 . S
Zn617 O619 1.932 . S
Zn617 O626 1.977 . S
Zn617 O627 1.910 . S
O618 Zn615 1.933 . S
O618 C629 1.226 . S
O619 Zn617 1.932 . S
O619 C629 1.307 . S
O620 Zn613 1.919 . S
O620 C631 1.253 . S
O621 Zn615 1.941 . S
O621 C631 1.283 . S
O622 Zn615 1.965 . S
O622 C630 1.303 . S
O623 Zn616 1.938 . S
O623 C630 1.247 . S
O624 Zn616 1.906 . S
O624 C632 1.304 . S
O625 Zn613 1.924 . S
O625 C633 1.311 . S
O626 Zn617 1.977 . S
O626 C632 1.272 . S
O627 Zn617 1.910 . S
O627 C633 1.231 . S
C628 O612 1.225 . S
C628 O634 1.298 . S
C629 O618 1.226 . S
C629 O619 1.307 . S
C630 O622 1.303 . S
C630 O623 1.247 . S
C631 O620 1.253 . S
C631 O621 1.283 . S
C632 O624 1.304 . S
C632 O626 1.272 . S
C633 O625 1.311 . S
C633 O627 1.231 . S
O634 Zn616 1.953 . S
O634 C628 1.298 . S
O635 Zn636 1.953 . S
O635 C651 1.225 . S
Zn636 O635 1.953 . S
Zn636 O637 1.949 . S
Zn636 O643 1.919 . S
Zn636 O648 1.924 . S
O637 Zn636 1.949 . S
O637 Zn638 1.923 . S
O637 Zn639 1.950 . S
O637 Zn640 1.945 . S
Zn638 O637 1.923 . S
Zn638 O641 1.933 . S
Zn638 O644 1.941 . S
Zn638 O645 1.965 . S
Zn639 O637 1.950 . S
Zn639 O646 1.938 . S
Zn639 O647 1.906 . S
Zn639 O657 1.953 . S
Zn640 O637 1.945 . S
Zn640 O642 1.932 . S
Zn640 O649 1.977 . S
Zn640 O650 1.910 . S
O641 Zn638 1.933 . S
O641 C652 1.226 . S
O642 Zn640 1.932 . S
O642 C652 1.307 . S
O643 Zn636 1.919 . S
O643 C654 1.253 . S
O644 Zn638 1.941 . S
O644 C654 1.283 . S
O645 Zn638 1.965 . S
O645 C653 1.303 . S
O646 Zn639 1.938 . S
O646 C653 1.247 . S
O647 Zn639 1.906 . S
O647 C655 1.304 . S
O648 Zn636 1.924 . S
O648 C656 1.311 . S
O649 Zn640 1.977 . S
O649 C655 1.272 . S
O650 Zn640 1.910 . S
O650 C656 1.231 . S
C651 O635 1.225 . S
C651 O657 1.298 . S
C652 O641 1.226 . S
C652 O642 1.307 . S
C653 O645 1.303 . S
C653 O646 1.247 . S
C654 O643 1.253 . S
C654 O644 1.283 . S
C655 O647 1.304 . S
C655 O649 1.272 . S
C656 O648 1.311 . S
C656 O650 1.231 . S
O657 Zn639 1.953 . S
O657 C651 1.298 . S
O658 Zn659 1.953 . S
O658 C674 1.225 . S
Zn659 O658 1.953 . S
Zn659 O660 1.949 . S
Zn659 O666 1.919 . S
Zn659 O671 1.924 . S
O660 Zn659 1.949 . S
O660 Zn661 1.923 . S
O660 Zn662 1.950 . S
O660 Zn663 1.945 . S
Zn661 O660 1.923 . S
Zn661 O664 1.933 . S
Zn661 O667 1.941 . S
Zn661 O668 1.965 . S
Zn662 O660 1.950 . S
Zn662 O669 1.938 . S
Zn662 O670 1.906 . S
Zn662 O680 1.953 . S
Zn663 O660 1.945 . S
Zn663 O665 1.932 . S
Zn663 O672 1.977 . S
Zn663 O673 1.910 . S
O664 Zn661 1.933 . S
O664 C675 1.226 . S
O665 Zn663 1.932 . S
O665 C675 1.307 . S
O666 Zn659 1.919 . S
O666 C677 1.253 . S
O667 Zn661 1.941 . S
O667 C677 1.283 . S
O668 Zn661 1.965 . S
O668 C676 1.303 . S
O669 Zn662 1.938 . S
O669 C676 1.247 . S
O670 Zn662 1.906 . S
O670 C678 1.304 . S
O671 Zn659 1.924 . S
O671 C679 1.311 . S
O672 Zn663 1.977 . S
O672 C678 1.272 . S
O673 Zn663 1.910 . S
O673 C679 1.231 . S
C674 O658 1.225 . S
C674 O680 1.298 . S
C675 O664 1.226 . S
C675 O665 1.307 . S
C676 O668 1.303 . S
C676 O669 1.247 . S
C677 O666 1.253 . S
C677 O667 1.283 . S
C678 O670 1.304 . S
C678 O672 1.272 . S
C679 O671 1.311 . S
C679 O673 1.231 . S
O680 Zn662 1.953 . S
O680 C674 1.298 . S
O681 Zn682 1.953 1_455 S
O681 C697 1.225 . S
Zn682 O681 1.953 1_655 S
Zn682 O683 1.949 1_655 S
Zn682 O689 1.919 1_554 S
Zn682 O694 1.924 1_654 S
O683 Zn682 1.949 1_455 S
O683 Zn684 1.923 1_455 S
O683 Zn685 1.950 . S
O683 Zn686 1.945 1_554 S
Zn684 O683 1.923 1_655 S
Zn684 O687 1.933 . S
Zn684 O690 1.941 . S
Zn684 O691 1.965 . S
Zn685 O683 1.950 . S
Zn685 O692 1.938 . S
Zn685 O693 1.906 . S
Zn685 O703 1.953 . S
Zn686 O683 1.945 1_556 S
Zn686 O688 1.932 . S
Zn686 O695 1.977 1_556 S
Zn686 O696 1.910 . S
O687 Zn684 1.933 . S
O687 C698 1.226 1_554 S
O688 Zn686 1.932 . S
O688 C698 1.307 1_455 S
O689 Zn682 1.919 1_556 S
O689 C700 1.253 1_556 S
O690 Zn684 1.941 . S
O690 C700 1.283 . S
O691 Zn684 1.965 . S
O691 C699 1.303 . S
O692 Zn685 1.938 . S
O692 C699 1.247 1_455 S
O693 Zn685 1.906 . S
O693 C701 1.304 . S
O694 Zn682 1.924 1_456 S
O694 C702 1.311 . S
O695 Zn686 1.977 1_554 S
O695 C701 1.272 . S
O696 Zn686 1.910 . S
O696 C702 1.231 . S
C697 O681 1.225 . S
C697 O703 1.298 . S
C698 O687 1.226 1_556 S
C698 O688 1.307 1_655 S
C699 O691 1.303 . S
C699 O692 1.247 1_655 S
C700 O689 1.253 1_554 S
C700 O690 1.283 . S
C701 O693 1.304 . S
C701 O695 1.272 . S
C702 O694 1.311 . S
C702 O696 1.231 . S
O703 Zn685 1.953 . S
O703 C697 1.298 . S
C352 C8 1.644 1_655 S
C22 C380 2.982 . S
C35 C398 0.975 . S
C424 C49 1.745 . S
C23 C447 2.839 1_455 S
C467 C34 0.954 . S
C495 C48 1.779 1_554 S
C9 C513 1.651 . S
C64 C354 2.138 1_545 S
C77 C376 1.135 . S
C400 C92 2.492 . S
C421 C105 1.378 . S
C63 C444 1.197 . S
C469 C78 2.487 . S
C491 C91 1.320 . S
C515 C106 2.148 . S
C355 C107 1.858 . S
C538 C118 1.282 . S
C135 C562 1.864 . S
C586 C146 1.215 . S
C65 C516 1.874 . S
C401 C79 2.146 . S
C132 C607 1.430 . S
C632 C160 1.066 . S
C177 C353 1.983 . S
C630 C188 1.882 . S
C204 C399 2.046 . S
C219 C609 1.318 . S
C448 C190 1.347 . S
C560 C202 1.683 . S
C492 C217 1.689 . S
C652 C175 1.694 . S
C357 C231 1.632 1_545 S
C246 C628 1.962 . S
C403 C259 1.610 1_565 S
C274 C606 1.910 . S
C232 C445 1.966 1_545 S
C245 C564 1.677 . S
C490 C260 1.828 . S
C273 C656 1.803 . S
C275 C356 1.855 . S
C286 C541 1.762 1_554 S
C303 C471 1.779 . S
C314 C585 1.460 . S
C655 C233 1.912 . S
C402 C247 1.798 . S
C426 C300 1.698 . S
C378 C328 1.639 . S
C36 C674 1.570 . S
C633 C50 2.946 . S
C697 C7 0.987 . S
C21 C608 1.754 . S
C51 C539 2.823 1_556 S
C559 C6 0.963 . S
C587 C20 1.759 . S
C651 C37 1.577 . S
C676 C162 2.283 . S
C119 C629 1.136 . S
C134 C699 2.627 . S
C605 C147 1.382 . S
C536 C161 1.209 . S
C120 C561 2.634 . S
C583 C133 1.313 . S
C148 C653 2.280 . S
C677 C149 1.597 . S
C446 C76 1.216 . S
C470 C93 2.142 . S
C104 C494 1.155 . S
C654 C163 1.615 . S
C121 C700 1.873 . S
C423 C90 1.368 . S
C379 C62 1.004 . S
C203 C675 1.690 . S
C377 C216 1.761 . S
C698 C174 1.685 1_655 S
C191 C425 1.302 . S
C218 C540 1.366 . S
C176 C468 1.988 . S
C189 C584 1.809 1_455 S
C205 C514 2.043 . S
C679 C329 1.736 . S
C288 C375 1.965 . S
C702 C301 1.744 . S
C316 C422 1.867 . S
C330 C537 2.002 . S
C472 C287 1.556 . S
C302 C582 1.834 . S
C518 C315 1.686 . S
C678 C317 1.911 . S
C449 C244 1.812 . S
C261 C563 1.821 . S
C493 C272 1.529 1_556 S
C517 C331 1.872 . S
C289 C701 1.828 . S
C610 C258 1.640 . S
C631 C230 1.582 . S
