# Generated by pormake.
# Topology wbl, (4,4)-cn, num edge types: 1
# Building blocks:
#     Node 0, Type 0, BuildingBlock: MUDLON_clean_sbu_0, # of connection points: 4
#     Node 1, Type 0, BuildingBlock: MUDLON_clean_sbu_0, # of connection points: 4
#     Node 2, Type 0, BuildingBlock: MUDLON_clean_sbu_0, # of connection points: 4
#     Node 3, Type 0, BuildingBlock: MUDLON_clean_sbu_0, # of connection points: 4
#     Node 4, Type 0, BuildingBlock: MUDLON_clean_sbu_0, # of connection points: 4
#     Node 5, Type 0, BuildingBlock: MUDLON_clean_sbu_0, # of connection points: 4
#     Node 6, Type 0, BuildingBlock: MUDLON_clean_sbu_0, # of connection points: 4
#     Node 7, Type 0, BuildingBlock: MUDLON_clean_sbu_0, # of connection points: 4
#     Node 8, Type 1, BuildingBlock: KUFVIS_clean_sbu_0, # of connection points: 4
#     Node 9, Type 1, BuildingBlock: KUFVIS_clean_sbu_0, # of connection points: 4
#     Node 10, Type 1, BuildingBlock: KUFVIS_clean_sbu_0, # of connection points: 4
#     Node 11, Type 1, BuildingBlock: KUFVIS_clean_sbu_0, # of connection points: 4
#     Node 12, Type 1, BuildingBlock: KUFVIS_clean_sbu_0, # of connection points: 4
#     Node 13, Type 1, BuildingBlock: KUFVIS_clean_sbu_0, # of connection points: 4
#     Node 14, Type 1, BuildingBlock: KUFVIS_clean_sbu_0, # of connection points: 4
#     Node 15, Type 1, BuildingBlock: KUFVIS_clean_sbu_0, # of connection points: 4
#     Edge 16, Type (0, 1), BuildingBlock: EZIPEK_clean_linker_0, # of connection points: 2
#     Edge 17, Type (0, 1), BuildingBlock: EZIPEK_clean_linker_0, # of connection points: 2
#     Edge 18, Type (0, 1), BuildingBlock: EZIPEK_clean_linker_0, # of connection points: 2
#     Edge 19, Type (0, 1), BuildingBlock: EZIPEK_clean_linker_0, # of connection points: 2
#     Edge 20, Type (0, 1), BuildingBlock: EZIPEK_clean_linker_0, # of connection points: 2
#     Edge 21, Type (0, 1), BuildingBlock: EZIPEK_clean_linker_0, # of connection points: 2
#     Edge 22, Type (0, 1), BuildingBlock: EZIPEK_clean_linker_0, # of connection points: 2
#     Edge 23, Type (0, 1), BuildingBlock: EZIPEK_clean_linker_0, # of connection points: 2
#     Edge 24, Type (0, 1), BuildingBlock: EZIPEK_clean_linker_0, # of connection points: 2
#     Edge 25, Type (0, 1), BuildingBlock: EZIPEK_clean_linker_0, # of connection points: 2
#     Edge 26, Type (0, 1), BuildingBlock: EZIPEK_clean_linker_0, # of connection points: 2
#     Edge 27, Type (0, 1), BuildingBlock: EZIPEK_clean_linker_0, # of connection points: 2
#     Edge 28, Type (0, 1), BuildingBlock: EZIPEK_clean_linker_0, # of connection points: 2
#     Edge 29, Type (0, 1), BuildingBlock: EZIPEK_clean_linker_0, # of connection points: 2
#     Edge 30, Type (0, 1), BuildingBlock: EZIPEK_clean_linker_0, # of connection points: 2
#     Edge 31, Type (0, 1), BuildingBlock: EZIPEK_clean_linker_0, # of connection points: 2
#     Edge 32, Type (0, 1), BuildingBlock: EZIPEK_clean_linker_0, # of connection points: 2
#     Edge 33, Type (0, 1), BuildingBlock: EZIPEK_clean_linker_0, # of connection points: 2
#     Edge 34, Type (0, 1), BuildingBlock: EZIPEK_clean_linker_0, # of connection points: 2
#     Edge 35, Type (0, 1), BuildingBlock: EZIPEK_clean_linker_0, # of connection points: 2
#     Edge 36, Type (0, 1), BuildingBlock: EZIPEK_clean_linker_0, # of connection points: 2
#     Edge 37, Type (0, 1), BuildingBlock: EZIPEK_clean_linker_0, # of connection points: 2
#     Edge 38, Type (0, 1), BuildingBlock: EZIPEK_clean_linker_0, # of connection points: 2
#     Edge 39, Type (0, 1), BuildingBlock: EZIPEK_clean_linker_0, # of connection points: 2
#     Edge 40, Type (0, 1), BuildingBlock: EZIPEK_clean_linker_0, # of connection points: 2
#     Edge 41, Type (0, 1), BuildingBlock: EZIPEK_clean_linker_0, # of connection points: 2
#     Edge 42, Type (0, 1), BuildingBlock: EZIPEK_clean_linker_0, # of connection points: 2
#     Edge 43, Type (0, 1), BuildingBlock: EZIPEK_clean_linker_0, # of connection points: 2
#     Edge 44, Type (0, 1), BuildingBlock: EZIPEK_clean_linker_0, # of connection points: 2
#     Edge 45, Type (0, 1), BuildingBlock: EZIPEK_clean_linker_0, # of connection points: 2
#     Edge 46, Type (0, 1), BuildingBlock: EZIPEK_clean_linker_0, # of connection points: 2
#     Edge 47, Type (0, 1), BuildingBlock: EZIPEK_clean_linker_0, # of connection points: 2
# Relax obj value: 0.225
# Max RMSD: 0.217
# Mean RMSD: 0.173
data_MOF--net-wbl--node1-MUDLON_clean_sbu_0--node2-KUFVIS_clean_sbu_0--edge1-EZIPEK_clean_linker_0
_symmetry_space_group_name_H-M    P1
_symmetry_Int_Tables_number       1
_symmetry_cell_setting            triclinic
loop_
_symmetry_equiv_pos_as_xyz
'x, y, z'
_cell_length_a     25.802789
_cell_length_b     25.809992
_cell_length_c     55.144211
_cell_angle_alpha  89.921533
_cell_angle_beta   90.338974
_cell_angle_gamma 90.077376
loop_
_atom_site_label
_atom_site_type_symbol
_atom_site_fract_x
_atom_site_fract_y
_atom_site_fract_z
_atom_type_partial_charge
Mg0 Mg 0.03893 0.05593 0.35167 0.0
C1 C 0.04443 0.9554 0.38595 0.0
O2 O 0.99408 0.95513 0.38908 0.0
C3 C 0.9269 0.06473 0.33347 0.0
O4 O 0.91593 0.04703 0.35511 0.0
C5 C 0.11502 0.02922 0.31438 0.0
O6 O 0.07683 0.9964 0.31067 0.0
O7 O 0.10934 0.06491 0.33013 0.0
O8 O 0.06425 0.9838 0.36958 0.0
O9 O 0.02393 0.11519 0.38012 0.0
C10 C 0.99188 0.10124 0.39643 0.0
O11 O 0.97283 0.05426 0.39534 0.0
O12 O 0.97372 0.06511 0.32641 0.0
Mg13 Mg 0.11485 0.53317 0.60039 0.0
C14 C 0.19699 0.52442 0.63861 0.0
O15 O 0.16022 0.49688 0.6487 0.0
C16 C 0.10673 0.44559 0.56025 0.0
O17 O 0.14268 0.46868 0.54737 0.0
C18 C 0.15522 0.62016 0.57025 0.0
O19 O 0.19775 0.59352 0.57419 0.0
O20 O 0.11216 0.60303 0.57817 0.0
O21 O 0.19234 0.53556 0.61632 0.0
O22 O 0.0591 0.53477 0.63048 0.0
C23 C 0.04399 0.49099 0.63842 0.0
O24 O 0.06361 0.4495 0.6282 0.0
O25 O 0.09326 0.46395 0.58059 0.0
Mg26 Mg 0.62538 0.56854 0.85982 0.0
C27 C 0.62753 0.63344 0.90405 0.0
O28 O 0.65347 0.59324 0.91214 0.0
C29 C 0.70346 0.54643 0.81935 0.0
O30 O 0.66793 0.56597 0.80487 0.0
C31 C 0.55915 0.61927 0.8225 0.0
O32 O 0.59699 0.65331 0.82353 0.0
O33 O 0.56238 0.5776 0.83473 0.0
O34 O 0.62144 0.63891 0.88132 0.0
O35 O 0.6096 0.50765 0.88584 0.0
C36 C 0.63862 0.46836 0.88869 0.0
O37 O 0.6752 0.46025 0.87267 0.0
O38 O 0.69683 0.54742 0.84217 0.0
Mg39 Mg 0.605 0.08488 0.10556 0.0
C40 C 0.63402 0.13264 0.15186 0.0
O41 O 0.5842 0.14167 0.14971 0.0
C42 C 0.63239 0.98542 0.07529 0.0
O43 O 0.67277 0.01012 0.06661 0.0
C44 C 0.68459 0.141 0.07784 0.0
O45 O 0.71182 0.10813 0.09088 0.0
O46 O 0.6352 0.13961 0.07889 0.0
O47 O 0.65526 0.10346 0.13627 0.0
O48 O 0.52451 0.09239 0.11849 0.0
C49 C 0.51034 0.05291 0.13071 0.0
O50 O 0.54358 0.01466 0.13303 0.0
O51 O 0.60461 0.00632 0.09147 0.0
Mg52 Mg 0.10356 0.61752 0.92402 0.0
C53 C 0.14905 0.65589 0.87968 0.0
O54 O 0.17785 0.61738 0.88754 0.0
C55 C 0.02625 0.59889 0.96516 0.0
O56 O 0.06891 0.60142 0.97821 0.0
C57 C 0.16691 0.69504 0.95242 0.0
O58 O 0.131 0.72579 0.94353 0.0
O59 O 0.16428 0.64644 0.94837 0.0
O60 O 0.10968 0.66879 0.89221 0.0
O61 O 0.11901 0.54237 0.90677 0.0
C62 C 0.08251 0.50954 0.90434 0.0
O63 O 0.04068 0.51522 0.91744 0.0
O64 O 0.02845 0.60811 0.94246 0.0
Mg65 Mg 0.62944 0.63676 0.17742 0.0
C66 C 0.55649 0.66601 0.13911 0.0
O67 O 0.59301 0.70133 0.13766 0.0
C68 C 0.68395 0.57974 0.21712 0.0
O69 O 0.71424 0.62034 0.21466 0.0
C70 C 0.57826 0.72439 0.1999 0.0
O71 O 0.54185 0.68926 0.19712 0.0
O72 O 0.6244 0.71365 0.1935 0.0
O73 O 0.5595 0.63116 0.15545 0.0
O74 O 0.68624 0.61739 0.15006 0.0
C75 C 0.67503 0.57205 0.1425 0.0
O76 O 0.63735 0.54655 0.15315 0.0
O77 O 0.64175 0.57748 0.20506 0.0
Mg78 Mg 0.55058 0.12708 0.42374 0.0
C79 C 0.56786 0.2389 0.39983 0.0
O80 O 0.56402 0.26055 0.42126 0.0
C81 C 0.47038 0.10108 0.46333 0.0
O82 O 0.50453 0.12061 0.47849 0.0
C83 C 0.61399 0.17098 0.46475 0.0
O84 O 0.57555 0.20424 0.46479 0.0
O85 O 0.61318 0.13306 0.45002 0.0
O86 O 0.55921 0.19066 0.3973 0.0
O87 O 0.55492 0.05936 0.40051 0.0
C88 C 0.57153 0.06557 0.37909 0.0
O89 O 0.59886 0.10713 0.37426 0.0
O90 O 0.4772 0.1065 0.44062 0.0
Mg91 Mg 0.06515 0.03365 0.67839 0.0
C92 C 0.1439 0.05905 0.63574 0.0
O93 O 0.15637 0.10299 0.64625 0.0
C94 C 0.06841 0.10998 0.72015 0.0
O95 O 0.0737 0.06738 0.73298 0.0
C96 C 0.14539 0.97866 0.70548 0.0
O97 O 0.16874 0.02144 0.69864 0.0
O98 O 0.09747 0.97264 0.70066 0.0
O99 O 0.1115 0.02858 0.64557 0.0
O100 O 0.98734 0.02296 0.66377 0.0
C101 C 0.96423 0.06492 0.65835 0.0
O102 O 0.97901 0.10767 0.66923 0.0
O103 O 0.06728 0.10727 0.69713 0.0
Mn104 Mn 0.45861 0.74892 0.02584 0.0
Mn105 Mn 0.42078 0.62856 0.0113 0.0
C106 C 0.42959 0.69535 0.05749 0.0
C107 C 0.51996 0.80997 0.03836 0.0
C108 C 0.35514 0.72294 0.00169 0.0
O109 O 0.49509 0.73907 0.9938 0.0
O110 O 0.46491 0.65955 0.98546 0.0
C111 C 0.52648 0.57821 0.00359 0.0
N112 N 0.47223 0.5761 0.01703 0.0
C113 C 0.45729 0.46834 0.0331 0.0
C114 C 0.51367 0.44579 0.02165 0.0
C115 C 0.56344 0.52358 1.0004 0.0
C116 C 0.44076 0.53112 0.02981 0.0
H117 H 0.5415 0.61377 0.9963 0.0
C118 C 0.49271 0.69917 0.9804 0.0
O119 O 0.47872 0.8234 0.02637 0.0
O120 O 0.52651 0.76097 0.04253 0.0
N121 N 0.37683 0.59321 0.03371 0.0
C122 C 0.33122 0.61116 0.04271 0.0
C123 C 0.29835 0.57775 0.05539 0.0
C124 C 0.31237 0.52583 0.05857 0.0
C125 C 0.3599 0.50783 0.04965 0.0
C126 C 0.39185 0.54364 0.03736 0.0
H127 H 0.32014 0.6509 0.04025 0.0
O128 O 0.42357 0.74517 0.05698 0.0
O129 O 0.44924 0.6757 0.03738 0.0
O130 O 0.3877 0.75664 0.00879 0.0
O131 O 0.36375 0.6748 0.00271 0.0
C132 C 0.37516 0.45583 0.05324 0.0
C133 C 0.42243 0.4362 0.04492 0.0
H134 H 0.52389 0.40512 0.02462 0.0
H135 H 0.60118 0.52624 0.99197 0.0
H136 H 0.26202 0.5919 0.0625 0.0
H137 H 0.28647 0.50012 0.06825 0.0
H138 H 0.34944 0.42943 0.06264 0.0
H139 H 0.4317 0.39573 0.04766 0.0
Mn140 Mn 0.40347 0.96937 0.26383 0.0
Mn141 Mn 0.51854 0.02587 0.25306 0.0
C142 C 0.46177 0.98273 0.2958 0.0
C143 C 0.31588 0.98243 0.2731 0.0
C144 C 0.49643 0.91338 0.24108 0.0
O145 O 0.39428 0.99795 0.22955 0.0
O146 O 0.46986 0.04056 0.22575 0.0
C147 C 0.4734 0.12868 0.26235 0.0
N148 N 0.51211 0.09384 0.26625 0.0
C149 C 0.54677 0.14463 0.29914 0.0
C150 C 0.50777 0.18149 0.29521 0.0
C151 C 0.4708 0.17339 0.27678 0.0
C152 C 0.54674 0.10045 0.28448 0.0
H153 H 0.44411 0.12169 0.24869 0.0
C154 C 0.42599 0.02543 0.2174 0.0
O155 O 0.33137 0.93934 0.2633 0.0
O156 O 0.35047 0.01776 0.27665 0.0
N157 N 0.57133 0.01547 0.27699 0.0
C158 C 0.60397 0.97431 0.27949 0.0
C159 C 0.64523 0.97706 0.29617 0.0
C160 C 0.65271 0.02219 0.30995 0.0
C161 C 0.61901 0.06423 0.3068 0.0
C162 C 0.57963 0.0598 0.28938 0.0
H163 H 0.5989 0.93982 0.26868 0.0
O164 O 0.4236 0.95056 0.29819 0.0
O165 O 0.46364 0.00591 0.27495 0.0
O166 O 0.45011 0.91202 0.24959 0.0
O167 O 0.52522 0.95402 0.24095 0.0
C168 C 0.6223 0.10998 0.32054 0.0
C169 C 0.58469 0.14908 0.3175 0.0
H170 H 0.50564 0.21595 0.30628 0.0
H171 H 0.44021 0.20136 0.27381 0.0
H172 H 0.67116 0.94446 0.29841 0.0
H173 H 0.68408 0.02394 0.32307 0.0
H174 H 0.65246 0.11466 0.3341 0.0
H175 H 0.58541 0.18238 0.32936 0.0
Mn176 Mn 0.23045 0.91175 0.50178 0.0
Mn177 Mn 0.10255 0.91258 0.51211 0.0
C178 C 0.17194 0.90051 0.4694 0.0
C179 C 0.3038 0.96285 0.49335 0.0
C180 C 0.17358 0.82435 0.52698 0.0
O181 O 0.22413 0.94275 0.53574 0.0
O182 O 0.13807 0.95861 0.53625 0.0
C183 C 0.08335 0.02055 0.49632 0.0
N184 N 0.07125 0.96927 0.49522 0.0
C185 C 0.0072 0.9847 0.4642 0.0
C186 C 0.0174 0.03769 0.46583 0.0
C187 C 0.05638 0.05579 0.48155 0.0
C188 C 0.03584 0.95139 0.47908 0.0
H189 H 0.11334 0.0342 0.50837 0.0
C190 C 0.18388 0.96268 0.54537 0.0
O191 O 0.30861 0.91666 0.50257 0.0
O192 O 0.25717 0.979 0.48989 0.0
N193 N 0.06426 0.86935 0.49012 0.0
C194 C 0.06287 0.8166 0.48886 0.0
C195 C 0.02869 0.79229 0.47255 0.0
C196 C 0.99576 0.82236 0.45789 0.0
C197 C 0.99714 0.87647 0.4598 0.0
C198 C 0.03178 0.89852 0.47654 0.0
H199 H 0.08737 0.79302 0.50025 0.0
O200 O 0.22021 0.88769 0.46697 0.0
O201 O 0.16067 0.9185 0.49054 0.0
O202 O 0.21413 0.83936 0.51558 0.0
O203 O 0.13217 0.85135 0.5287 0.0
C204 C 0.96616 0.90943 0.44544 0.0
C205 C 0.97133 0.96358 0.44758 0.0
H206 H 0.99649 0.06419 0.45439 0.0
H207 H 0.06547 0.09666 0.48238 0.0
H208 H 0.02773 0.75046 0.47129 0.0
H209 H 0.96975 0.80351 0.44518 0.0
H210 H 0.93911 0.89354 0.43232 0.0
H211 H 0.94836 0.98864 0.43599 0.0
Mn212 Mn 0.29384 0.71677 0.74282 0.0
Mn213 Mn 0.26513 0.59463 0.75573 0.0
C214 C 0.28887 0.6565 0.71123 0.0
C215 C 0.26125 0.79924 0.73507 0.0
C216 C 0.36508 0.64742 0.77069 0.0
O217 O 0.26431 0.71762 0.7773 0.0
O218 O 0.22378 0.63992 0.77763 0.0
C219 C 0.15793 0.5917 0.73712 0.0
N220 N 0.20579 0.57013 0.73864 0.0
C221 C 0.18172 0.50148 0.7114 0.0
C222 C 0.13174 0.52199 0.7101 0.0
C223 C 0.12011 0.56809 0.72247 0.0
C224 C 0.21834 0.52794 0.72542 0.0
H225 H 0.1494 0.62736 0.74652 0.0
C226 C 0.23312 0.6848 0.78678 0.0
O227 O 0.30782 0.79343 0.74377 0.0
O228 O 0.23429 0.75796 0.73128 0.0
N229 N 0.30331 0.54789 0.7355 0.0
C230 C 0.3554 0.54344 0.73221 0.0
C231 C 0.37501 0.5023 0.71842 0.0
C232 C 0.34076 0.46718 0.70734 0.0
C233 C 0.28723 0.47454 0.70961 0.0
C234 C 0.27005 0.51555 0.72411 0.0
H235 H 0.38187 0.57157 0.7396 0.0
O236 O 0.31229 0.70046 0.70785 0.0
O237 O 0.27026 0.65055 0.73272 0.0
O238 O 0.36163 0.6852 0.75574 0.0
O239 O 0.32801 0.61559 0.77401 0.0
C240 C 0.25028 0.44428 0.69716 0.0
C241 C 0.19744 0.4578 0.69804 0.0
H242 H 0.10322 0.50371 0.69862 0.0
H243 H 0.08247 0.58581 0.72067 0.0
H244 H 0.41638 0.49825 0.71596 0.0
H245 H 0.35594 0.43607 0.69631 0.0
H246 H 0.26228 0.41198 0.68601 0.0
H247 H 0.16951 0.43559 0.68762 0.0
Mn248 Mn 0.90594 0.21191 0.53705 0.0
Mn249 Mn 0.87381 0.087 0.52877 0.0
C250 C 0.89579 0.15793 0.57059 0.0
C251 C 0.971 0.2744 0.53949 0.0
C252 C 0.80142 0.17776 0.5192 0.0
O253 O 0.92036 0.19817 0.5013 0.0
O254 O 0.91667 0.11047 0.5006 0.0
C255 C 0.97639 0.03715 0.53383 0.0
N256 N 0.92618 0.04125 0.54081 0.0
C257 C 0.9378 0.97515 0.57125 0.0
C258 C 0.98913 0.96894 0.56376 0.0
C259 C 0.00882 0.00108 0.54549 0.0
C260 C 0.9075 0.01232 0.55929 0.0
H261 H 0.99164 0.06263 0.52012 0.0
C262 C 0.92694 0.1546 0.49076 0.0
O263 O 0.9238 0.28673 0.5336 0.0
O264 O 0.98069 0.22582 0.54324 0.0
N265 N 0.83239 0.06096 0.55488 0.0
C266 C 0.78244 0.07271 0.5605 0.0
C267 C 0.75805 0.04707 0.57979 0.0
C268 C 0.78497 0.00888 0.59289 0.0
C269 C 0.83575 0.99616 0.5863 0.0
C270 C 0.8579 0.02292 0.56681 0.0
H271 H 0.76117 0.10111 0.55023 0.0
O272 O 0.89388 0.2079 0.57312 0.0
O273 O 0.9027 0.14209 0.54859 0.0
O274 O 0.82824 0.21296 0.52953 0.0
O275 O 0.81665 0.13105 0.51657 0.0
C276 C 0.86528 0.95807 0.59836 0.0
C277 C 0.91631 0.94757 0.59084 0.0
H278 H 0.0145 0.94141 0.57272 0.0
H279 H 0.04925 0.99889 0.54103 0.0
H280 H 0.71856 0.05666 0.58451 0.0
H281 H 0.76615 0.98933 0.60784 0.0
H282 H 0.84926 0.93691 0.61355 0.0
H283 H 0.93901 0.91883 0.6005 0.0
Mn284 Mn 0.96755 0.39756 0.78221 0.0
Mn285 Mn 0.09504 0.41388 0.77342 0.0
C286 C 0.02297 0.40656 0.81555 0.0
C287 C 0.88746 0.43765 0.78792 0.0
C288 C 0.03815 0.31329 0.76299 0.0
O289 O 0.97173 0.41978 0.747 0.0
O290 O 0.05609 0.44416 0.7449 0.0
C291 C 0.09975 0.5276 0.77862 0.0
N292 N 0.11631 0.47982 0.78552 0.0
C293 C 0.16791 0.51578 0.81788 0.0
C294 C 0.1525 0.56526 0.8107 0.0
C295 C 0.11776 0.57137 0.79122 0.0
C296 C 0.14856 0.47364 0.80477 0.0
H297 H 0.07164 0.53192 0.7642 0.0
C298 C 0.01006 0.43972 0.7358 0.0
O299 O 0.88997 0.38962 0.78087 0.0
O300 O 0.93073 0.46213 0.79024 0.0
N301 N 0.13507 0.38548 0.79964 0.0
C302 C 0.14302 0.33474 0.8055 0.0
C303 C 0.17521 0.32212 0.82525 0.0
C304 C 0.19888 0.3617 0.83879 0.0
C305 C 0.19058 0.41354 0.83227 0.0
C306 C 0.15887 0.42372 0.8121 0.0
H307 H 0.12484 0.30399 0.79529 0.0
O308 O 0.97813 0.38453 0.818 0.0
O309 O 0.03422 0.41901 0.79346 0.0
O310 O 0.99451 0.32564 0.77234 0.0
O311 O 0.07665 0.34426 0.76188 0.0
C312 C 0.21167 0.45553 0.84529 0.0
C313 C 0.20012 0.50668 0.83816 0.0
H314 H 0.16646 0.59836 0.82056 0.0
H315 H 0.10429 0.60953 0.78615 0.0
H316 H 0.18141 0.28197 0.83014 0.0
H317 H 0.22305 0.35188 0.85425 0.0
H318 H 0.23603 0.44891 0.86105 0.0
H319 H 0.21554 0.53876 0.84862 0.0
Mn320 Mn 0.78104 0.42761 0.01209 0.0
Mn321 Mn 0.65455 0.39542 0.02198 0.0
C322 C 0.7258 0.4118 0.97971 0.0
C323 C 0.84933 0.48526 0.00356 0.0
C324 C 0.74445 0.32278 0.03136 0.0
O325 O 0.76839 0.45527 0.04601 0.0
O326 O 0.68327 0.43438 0.05041 0.0
C327 C 0.58856 0.48596 0.03735 0.0
N328 N 0.6042 0.44874 0.01564 0.0
C329 C 0.52054 0.45651 0.97918 0.0
C330 C 0.48433 0.49949 0.99482 0.0
C331 C 0.53214 0.5208 0.03646 0.0
C332 C 0.57673 0.43354 0.99088 0.0
H333 H 0.61167 0.4887 0.05362 0.0
C334 C 0.72567 0.45583 0.05768 0.0
O335 O 0.85713 0.44087 0.01396 0.0
O336 O 0.80137 0.49805 0.99966 0.0
N337 N 0.62673 0.35891 0.99435 0.0
C338 C 0.63907 0.30946 0.98786 0.0
C339 C 0.61752 0.28732 0.96703 0.0
C340 C 0.58211 0.31549 0.95314 0.0
C341 C 0.56702 0.36509 0.96058 0.0
C342 C 0.59161 0.38658 0.98132 0.0
H343 H 0.66534 0.28658 0.99849 0.0
O344 O 0.77542 0.40433 0.9779 0.0
O345 O 0.70887 0.42607 1.00097 0.0
O346 O 0.78128 0.35216 0.02466 0.0
O347 O 0.69742 0.33635 0.03093 0.0
C348 C 0.52624 0.39069 0.9484 0.0
C349 C 0.50234 0.43471 0.95784 0.0
H350 H 0.44808 0.51349 0.98676 0.0
H351 H 0.52264 0.54698 0.05123 0.0
H352 H 0.62808 0.24837 0.96177 0.0
H353 H 0.56494 0.2976 0.93724 0.0
H354 H 0.50946 0.37361 0.93221 0.0
H355 H 0.46767 0.44979 0.94925 0.0
Mn356 Mn 0.72987 0.29486 0.26792 0.0
Mn357 Mn 0.65325 0.19019 0.27275 0.0
C358 C 0.71803 0.24101 0.2343 0.0
C359 C 0.73044 0.3841 0.26061 0.0
C360 C 0.76528 0.19193 0.29065 0.0
O361 O 0.69393 0.30685 0.30049 0.0
O362 O 0.63906 0.24006 0.2994 0.0
C363 C 0.56516 0.25515 0.25723 0.0
N364 N 0.59225 0.21016 0.25535 0.0
C365 C 0.54293 0.18495 0.22023 0.0
C366 C 0.51259 0.22964 0.22259 0.0
C367 C 0.52424 0.26532 0.24103 0.0
C368 C 0.58371 0.17759 0.23665 0.0
H369 H 0.57568 0.28343 0.27062 0.0
C370 C 0.65705 0.28069 0.30958 0.0
O371 O 0.76854 0.3621 0.27227 0.0
O372 O 0.6928 0.35462 0.25369 0.0
N373 N 0.65888 0.13585 0.24933 0.0
C374 C 0.68724 0.09162 0.25165 0.0
C375 C 0.67906 0.05028 0.23555 0.0
C376 C 0.63954 0.05349 0.21805 0.0
C377 C 0.60773 0.09738 0.21737 0.0
C378 C 0.61779 0.13712 0.23403 0.0
H379 H 0.71343 0.08651 0.26672 0.0
O380 O 0.75496 0.27501 0.23453 0.0
O381 O 0.68886 0.24134 0.25332 0.0
O382 O 0.77562 0.23847 0.28375 0.0
O383 O 0.72028 0.17037 0.28868 0.0
C384 C 0.5656 0.10275 0.20126 0.0
C385 C 0.53462 0.14763 0.20211 0.0
H386 H 0.48084 0.23728 0.21016 0.0
H387 H 0.50209 0.30071 0.24261 0.0
H388 H 0.70199 0.01537 0.23718 0.0
H389 H 0.63292 0.02143 0.20575 0.0
H390 H 0.55727 0.07313 0.18788 0.0
H391 H 0.50452 0.15329 0.18881 0.0
C392 C 0.19427 0.97305 0.31193 0.0
C393 C 0.16671 0.01764 0.30384 0.0
C394 C 0.23279 0.03293 0.27269 0.0
C395 C 0.2622 0.99073 0.28197 0.0
N396 N 0.27526 0.92552 0.31278 0.0
N397 N 0.16159 0.09331 0.27839 0.0
C398 C 0.24389 0.96174 0.30208 0.0
C399 C 0.18662 0.04863 0.28477 0.0
N400 N 0.1731 0.94142 0.32917 0.0
N401 N 0.24833 0.05685 0.25181 0.0
H402 H 0.12692 0.10496 0.28633 0.0
H403 H 0.17672 0.12065 0.26648 0.0
H404 H 0.28142 0.0457 0.24237 0.0
H405 H 0.22645 0.08458 0.24266 0.0
H406 H 0.18752 0.90482 0.33339 0.0
H407 H 0.13927 0.95038 0.33849 0.0
H408 H 0.26713 0.90786 0.32931 0.0
H409 H 0.31168 0.91565 0.30616 0.0
C410 C 0.14999 0.717 0.57325 0.0
C411 C 0.15913 0.67223 0.55897 0.0
C412 C 0.17826 0.72701 0.52362 0.0
C413 C 0.17224 0.77191 0.53825 0.0
N414 N 0.15807 0.81011 0.57757 0.0
N415 N 0.18803 0.63365 0.52161 0.0
C416 C 0.15941 0.76696 0.56322 0.0
C417 C 0.17539 0.67702 0.53451 0.0
N418 N 0.13237 0.71181 0.5965 0.0
N419 N 0.18327 0.73192 0.49904 0.0
H420 H 0.18266 0.59614 0.5282 0.0
H421 H 0.20665 0.63478 0.50492 0.0
H422 H 0.18482 0.76754 0.49017 0.0
H423 H 0.18139 0.70083 0.48707 0.0
H424 H 0.11824 0.74241 0.60678 0.0
H425 H 0.12911 0.67626 0.60534 0.0
H426 H 0.15556 0.80915 0.59639 0.0
H427 H 0.16316 0.84743 0.57086 0.0
C428 C 0.49115 0.58909 0.79383 0.0
C429 C 0.51175 0.62953 0.80809 0.0
C430 C 0.43699 0.68369 0.79723 0.0
C431 C 0.41363 0.64048 0.78529 0.0
N432 N 0.41275 0.54572 0.78285 0.0
N433 N 0.49782 0.71151 0.8282 0.0
C434 C 0.43867 0.5912 0.78664 0.0
C435 C 0.48325 0.67615 0.81101 0.0
N436 N 0.52161 0.54845 0.78697 0.0
N437 N 0.41421 0.73144 0.79648 0.0
H438 H 0.52975 0.70661 0.83961 0.0
H439 H 0.47516 0.74327 0.83293 0.0
H440 H 0.37695 0.73803 0.78983 0.0
H441 H 0.43333 0.76513 0.80189 0.0
H442 H 0.50891 0.52026 0.77475 0.0
H443 H 0.56103 0.54636 0.79119 0.0
H444 H 0.43014 0.50967 0.78547 0.0
H445 H 0.37293 0.54261 0.78075 0.0
C446 C 0.6012 0.93211 0.03966 0.0
C447 C 0.61422 0.93563 0.06471 0.0
C448 C 0.5686 0.85381 0.07247 0.0
C449 C 0.55715 0.84957 0.04731 0.0
N450 N 0.57566 0.87624 0.00638 0.0
N451 N 0.62249 0.89336 0.10352 0.0
C452 C 0.57781 0.88601 0.03072 0.0
C453 C 0.60196 0.89416 0.08062 0.0
N454 N 0.60744 0.97383 0.02465 0.0
N455 N 0.54513 0.82163 0.08881 0.0
H456 H 0.64773 0.92202 0.10985 0.0
H457 H 0.61886 0.86189 0.11524 0.0
H458 H 0.5195 0.79225 0.08382 0.0
H459 H 0.54755 0.82688 0.10751 0.0
H460 H 0.59283 0.975 0.00701 0.0
H461 H 0.62299 0.00909 0.03026 0.0
H462 H 0.59457 0.899 0.99356 0.0
H463 H 0.55966 0.84231 0.99926 0.0
C464 C 0.25168 0.74333 0.95431 0.0
C465 C 0.21102 0.71697 0.9665 0.0
C466 C 0.25948 0.72491 0.0046 0.0
C467 C 0.30427 0.73812 0.99133 0.0
N468 N 0.34327 0.76542 0.954 0.0
N469 N 0.17366 0.68654 0.00387 0.0
C470 C 0.30019 0.7501 0.96635 0.0
C471 C 0.21388 0.70946 0.99195 0.0
N472 N 0.2439 0.76185 0.93138 0.0
N473 N 0.26093 0.72788 0.02928 0.0
H474 H 0.13867 0.67733 0.99532 0.0
H475 H 0.17584 0.6747 0.02191 0.0
H476 H 0.29402 0.74079 0.03849 0.0
H477 H 0.22864 0.72243 0.04024 0.0
H478 H 0.27064 0.78488 0.92226 0.0
H479 H 0.20859 0.75821 0.92227 0.0
H480 H 0.34484 0.76828 0.93518 0.0
H481 H 0.37827 0.77355 0.96279 0.0
C482 C 0.56407 0.82058 0.1975 0.0
C483 C 0.56447 0.77435 0.21145 0.0
C484 C 0.5237 0.81999 0.24545 0.0
C485 C 0.51896 0.8651 0.23077 0.0
N486 N 0.52936 0.90711 0.19191 0.0
N487 N 0.5441 0.72845 0.24827 0.0
C488 C 0.53826 0.86525 0.20661 0.0
C489 C 0.54423 0.77374 0.23533 0.0
N490 N 0.58804 0.82168 0.17545 0.0
N491 N 0.51052 0.82185 0.26941 0.0
H492 H 0.56342 0.69516 0.24258 0.0
H493 H 0.52327 0.72295 0.26417 0.0
H494 H 0.49324 0.85388 0.27735 0.0
H495 H 0.51948 0.79296 0.28192 0.0
H496 H 0.59433 0.8554 0.16552 0.0
H497 H 0.60529 0.78927 0.16769 0.0
H498 H 0.53662 0.90756 0.17337 0.0
H499 H 0.51055 0.9405 0.19771 0.0
C500 C 0.43643 0.02976 0.491 0.0
C501 C 0.4277 0.06677 0.47215 0.0
C502 C 0.34337 0.02655 0.46434 0.0
C503 C 0.34831 0.99597 0.48573 0.0
N504 N 0.3965 0.97892 0.52266 0.0
N505 N 0.36559 0.10778 0.44534 0.0
C506 C 0.39391 0.00055 0.50007 0.0
C507 C 0.37892 0.06747 0.46018 0.0
N508 N 0.48537 0.01962 0.4993 0.0
N509 N 0.30643 0.0152 0.44729 0.0
H510 H 0.38912 0.14025 0.44295 0.0
H511 H 0.32861 0.11165 0.43782 0.0
H512 H 0.28266 0.98257 0.44832 0.0
H513 H 0.30423 0.03425 0.43063 0.0
H514 H 0.49336 0.98981 0.51154 0.0
H515 H 0.51858 0.03586 0.49181 0.0
H516 H 0.42746 0.98557 0.53449 0.0
H517 H 0.3656 0.95935 0.53059 0.0
C518 C 0.19077 0.89591 0.69608 0.0
C519 C 0.17722 0.93415 0.71337 0.0
C520 C 0.22493 0.887 0.74507 0.0
C521 C 0.23968 0.84976 0.72755 0.0
N522 N 0.24775 0.82489 0.68567 0.0
N523 N 0.18817 0.97186 0.75304 0.0
C524 C 0.22591 0.85616 0.70281 0.0
C525 C 0.19669 0.93163 0.73748 0.0
N526 N 0.1694 0.89701 0.67331 0.0
N527 N 0.23559 0.87839 0.76905 0.0
H528 H 0.16593 0.00412 0.74833 0.0
H529 H 0.20586 0.97496 0.76999 0.0
H530 H 0.25707 0.84668 0.77513 0.0
H531 H 0.22064 0.90083 0.78303 0.0
H532 H 0.17293 0.86689 0.6609 0.0
H533 H 0.14507 0.92654 0.66721 0.0
H534 H 0.24346 0.83069 0.66708 0.0
H535 H 0.27462 0.7961 0.69 0.0
C536 C 0.79858 0.52906 0.82123 0.0
C537 C 0.75028 0.52053 0.80957 0.0
C538 C 0.7927 0.46026 0.78153 0.0
C539 C 0.83878 0.46327 0.79562 0.0
N540 N 0.87891 0.48949 0.83355 0.0
N541 N 0.69939 0.46763 0.78194 0.0
C542 C 0.83987 0.4945 0.81684 0.0
C543 C 0.7466 0.48335 0.79055 0.0
N544 N 0.8057 0.57091 0.83603 0.0
N545 N 0.79299 0.43713 0.75928 0.0
H546 H 0.66434 0.48083 0.78885 0.0
H547 H 0.69505 0.43709 0.76975 0.0
H548 H 0.8262 0.42118 0.75167 0.0
H549 H 0.76143 0.43858 0.74741 0.0
H550 H 0.8418 0.58086 0.84326 0.0
H551 H 0.77722 0.59895 0.83869 0.0
H552 H 0.87877 0.50874 0.85016 0.0
H553 H 0.90772 0.46136 0.83233 0.0
C554 C 0.73444 0.22448 0.07914 0.0
C555 C 0.7118 0.18382 0.06521 0.0
C556 C 0.7386 0.2273 0.02769 0.0
C557 C 0.7541 0.27062 0.04158 0.0
N558 N 0.7861 0.30352 0.07922 0.0
N559 N 0.6967 0.14267 0.02661 0.0
C560 C 0.7586 0.26661 0.06698 0.0
C561 C 0.71596 0.18365 0.03953 0.0
N562 N 0.72963 0.22459 0.10384 0.0
N563 N 0.7461 0.2287 0.00321 0.0
H564 H 0.68114 0.10983 0.03491 0.0
H565 H 0.69493 0.1412 0.00779 0.0
H566 H 0.76373 0.26051 0.99489 0.0
H567 H 0.7378 0.19834 0.99144 0.0
H568 H 0.74018 0.25573 0.11478 0.0
H569 H 0.71182 0.19476 0.11348 0.0
H570 H 0.79482 0.30155 0.09765 0.0
H571 H 0.80425 0.33406 0.07016 0.0
C572 C 0.87841 0.14844 0.33065 0.0
C573 C 0.88861 0.0985 0.32105 0.0
C574 C 0.82574 0.11503 0.28868 0.0
C575 C 0.80863 0.16036 0.3009 0.0
N576 N 0.8158 0.21717 0.33542 0.0
N577 N 0.8695 0.03218 0.29169 0.0
C578 C 0.83432 0.17633 0.32241 0.0
C579 C 0.86153 0.08111 0.30026 0.0
N580 N 0.91215 0.17029 0.34684 0.0
N581 N 0.81056 0.1062 0.26535 0.0
H582 H 0.89662 0.00696 0.29936 0.0
H583 H 0.84666 0.0156 0.2781 0.0
H584 H 0.78651 0.13182 0.2561 0.0
H585 H 0.82562 0.07668 0.25464 0.0
H586 H 0.90921 0.20853 0.35271 0.0
H587 H 0.94601 0.1518 0.35251 0.0
H588 H 0.82972 0.22699 0.35259 0.0
H589 H 0.78344 0.23822 0.32992 0.0
C590 C 0.05138 0.39628 0.53009 0.0
C591 C 0.08091 0.39732 0.55191 0.0
C592 C 0.03973 0.31673 0.56525 0.0
C593 C 0.01157 0.3145 0.54305 0.0
N594 N 0.00147 0.3441 0.5018 0.0
N595 N 0.11463 0.35096 0.5865 0.0
C596 C 0.02085 0.35177 0.52463 0.0
C597 C 0.07887 0.35486 0.5682 0.0
N598 N 0.04985 0.43872 0.51527 0.0
N599 N 0.02695 0.285 0.58419 0.0
H600 H 0.1445 0.37786 0.58882 0.0
H601 H 0.11801 0.31842 0.59759 0.0
H602 H 0.997 0.25794 0.58345 0.0
H603 H 0.04262 0.28915 0.60153 0.0
H604 H 0.02417 0.44217 0.5007 0.0
H605 H 0.07134 0.47221 0.51851 0.0
H606 H 0.01117 0.36742 0.48707 0.0
H607 H 0.97999 0.31133 0.49705 0.0
C608 C 0.65853 0.17823 0.5053 0.0
C609 C 0.66084 0.18144 0.47956 0.0
C610 C 0.75345 0.20207 0.48182 0.0
C611 C 0.75236 0.19169 0.50697 0.0
N612 N 0.70442 0.18619 0.54392 0.0
N613 N 0.70959 0.19697 0.44295 0.0
C614 C 0.70485 0.1849 0.51915 0.0
C615 C 0.70798 0.19416 0.46771 0.0
N616 N 0.61279 0.16576 0.51628 0.0
N617 N 0.79783 0.22114 0.47173 0.0
H618 H 0.67673 0.19414 0.43195 0.0
H619 H 0.74373 0.19955 0.43306 0.0
H620 H 0.831 0.22867 0.48203 0.0
H621 H 0.80067 0.23389 0.45388 0.0
H622 H 0.60909 0.15778 0.53467 0.0
H623 H 0.57819 0.16089 0.50672 0.0
H624 H 0.67106 0.1849 0.55438 0.0
H625 H 0.73809 0.19271 0.55408 0.0
C626 C 0.08942 0.20453 0.72306 0.0
C627 C 0.06232 0.16104 0.7322 0.0
C628 C 0.0259 0.21586 0.76412 0.0
C629 C 0.04561 0.2607 0.75236 0.0
N630 N 0.08692 0.29654 0.71644 0.0
N631 N 0.99451 0.12858 0.7584 0.0
C632 C 0.07478 0.2548 0.73062 0.0
C633 C 0.02765 0.16745 0.75192 0.0
N634 N 0.13043 0.19805 0.70779 0.0
N635 N 0.00786 0.2185 0.78733 0.0
H636 H 0.99191 0.09351 0.74914 0.0
H637 H 0.96547 0.13362 0.77125 0.0
H638 H 0.00944 0.25216 0.79772 0.0
H639 H 0.99733 0.1857 0.7972 0.0
H640 H 0.1543 0.2286 0.70247 0.0
H641 H 0.14441 0.1617 0.70283 0.0
H642 H 0.10353 0.29276 0.69934 0.0
H643 H 0.07535 0.33426 0.72016 0.0
C644 C 0.93836 0.59866 0.98547 0.0
C645 C 0.98049 0.57114 0.97524 0.0
C646 C 0.9331 0.4897 0.98056 0.0
C647 C 0.89363 0.51595 0.99356 0.0
N648 N 0.86291 0.59526 0.01162 0.0
N649 N 0.02302 0.48903 0.96877 0.0
C650 C 0.89718 0.57056 0.99681 0.0
C651 C 0.97946 0.51625 0.97461 0.0
N652 N 0.93763 0.65151 0.98431 0.0
N653 N 0.92527 0.44028 0.97241 0.0
H654 H 0.05811 0.50669 0.96438 0.0
H655 H 0.02554 0.44889 0.97052 0.0
H656 H 0.89037 0.42042 0.97447 0.0
H657 H 0.95103 0.42149 0.96089 0.0
H658 H 0.90562 0.67366 0.98914 0.0
H659 H 0.96786 0.67298 0.97679 0.0
H660 H 0.86652 0.63403 0.01656 0.0
H661 H 0.83347 0.57589 0.02081 0.0
C662 C 0.74735 0.50726 0.22483 0.0
C663 C 0.70167 0.53442 0.23162 0.0
C664 C 0.68319 0.46843 0.26244 0.0
C665 C 0.72771 0.44036 0.25501 0.0
N666 N 0.80924 0.43909 0.23398 0.0
N667 N 0.63342 0.54827 0.26043 0.0
C668 C 0.76239 0.4621 0.23797 0.0
C669 C 0.67182 0.51724 0.25158 0.0
N670 N 0.77439 0.52237 0.20475 0.0
N671 N 0.65118 0.44753 0.27956 0.0
H672 H 0.6246 0.58438 0.25296 0.0
H673 H 0.61313 0.54051 0.27628 0.0
H674 H 0.6608 0.41422 0.28934 0.0
H675 H 0.61463 0.46204 0.2836 0.0
H676 H 0.804 0.50063 0.19708 0.0
H677 H 0.76466 0.55459 0.19429 0.0
H678 H 0.83854 0.45589 0.22371 0.0
H679 H 0.82097 0.40533 0.24277 0.0
C680 C 0.10319 0.97911 0.42057 0.0
C681 C 0.0789 0.93972 0.40648 0.0
C682 C 0.11771 0.8732 0.43308 0.0
C683 C 0.13969 0.91295 0.44768 0.0
N684 N 0.16258 0.00323 0.4523 0.0
N685 N 0.05884 0.84972 0.40013 0.0
C686 C 0.13483 0.96561 0.44058 0.0
C687 C 0.0852 0.88676 0.4129 0.0
N688 N 0.0934 0.03021 0.41593 0.0
N689 N 0.12905 0.82265 0.4382 0.0
H690 H 0.03643 0.85838 0.38485 0.0
H691 H 0.05675 0.81098 0.40525 0.0
H692 H 0.15176 0.81179 0.45306 0.0
H693 H 0.11854 0.79161 0.42721 0.0
H694 H 0.10125 0.05997 0.42813 0.0
H695 H 0.07474 0.04337 0.40049 0.0
H696 H 0.16947 0.03996 0.44516 0.0
H697 H 0.1809 0.99752 0.4688 0.0
C698 C 0.27739 0.55687 0.66029 0.0
C699 C 0.22428 0.5624 0.65419 0.0
C700 C 0.21537 0.63282 0.68336 0.0
C701 C 0.26819 0.62643 0.6903 0.0
N702 N 0.35296 0.59444 0.6802 0.0
N703 N 0.14862 0.61711 0.65333 0.0
C704 C 0.3005 0.5924 0.677 0.0
C705 C 0.19515 0.60403 0.66367 0.0
N706 N 0.30513 0.51698 0.65063 0.0
N707 N 0.18388 0.66581 0.69578 0.0
H708 H 0.13314 0.5979 0.63837 0.0
H709 H 0.1281 0.65053 0.65763 0.0
H710 H 0.19676 0.68876 0.70995 0.0
H711 H 0.14381 0.66716 0.69354 0.0
H712 H 0.34266 0.50762 0.65608 0.0
H713 H 0.28925 0.49137 0.63796 0.0
H714 H 0.37901 0.5738 0.66961 0.0
H715 H 0.37061 0.61985 0.69243 0.0
C716 C 0.6145 0.68583 0.9417 0.0
C717 C 0.59279 0.66099 0.92112 0.0
C718 C 0.50565 0.67898 0.93658 0.0
C719 C 0.52737 0.69492 0.95901 0.0
N720 N 0.60399 0.70754 0.984 0.0
N721 N 0.5165 0.62595 0.90102 0.0
C722 C 0.58226 0.69768 0.9618 0.0
C723 C 0.53799 0.65606 0.91885 0.0
N724 N 0.66608 0.69787 0.94204 0.0
N725 N 0.45385 0.68537 0.93232 0.0
H726 H 0.53797 0.60578 0.88822 0.0
H727 H 0.47722 0.6166 0.90041 0.0
H728 H 0.42919 0.70197 0.94504 0.0
H729 H 0.43665 0.67921 0.91542 0.0
H730 H 0.68325 0.7205 0.95551 0.0
H731 H 0.69058 0.68954 0.92757 0.0
H732 H 0.64349 0.70371 0.98755 0.0
H733 H 0.58258 0.71509 0.99953 0.0
C734 C 0.44239 0.00065 0.15134 0.0
C735 C 0.46163 0.05043 0.14542 0.0
C736 C 0.42092 0.0855 0.18187 0.0
C737 C 0.41704 0.03433 0.19098 0.0
N738 N 0.40899 0.94301 0.1824 0.0
N739 N 0.44635 0.14209 0.14842 0.0
C740 C 0.42132 0.99184 0.17478 0.0
C741 C 0.44294 0.09385 0.15842 0.0
N742 N 0.4451 0.96225 0.13438 0.0
N743 N 0.40498 0.12541 0.19621 0.0
H744 H 0.45744 0.14776 0.13048 0.0
H745 H 0.43436 0.17588 0.15694 0.0
H746 H 0.38708 0.11853 0.21285 0.0
H747 H 0.4082 0.1644 0.19172 0.0
H748 H 0.42968 0.9253 0.13659 0.0
H749 H 0.45923 0.96945 0.11697 0.0
H750 H 0.41733 0.90951 0.17272 0.0
H751 H 0.39036 0.93573 0.19874 0.0
C752 C 0.13371 0.69047 0.83682 0.0
C753 C 0.16651 0.68387 0.85743 0.0
C754 C 0.24338 0.69339 0.83187 0.0
C755 C 0.21098 0.69596 0.81105 0.0
N756 N 0.12698 0.71411 0.79411 0.0
N757 N 0.25017 0.69943 0.87554 0.0
C758 C 0.15658 0.70086 0.81375 0.0
C759 C 0.22056 0.69271 0.85518 0.0
N760 N 0.08163 0.6822 0.83869 0.0
N761 N 0.29573 0.68755 0.82945 0.0
H762 H 0.23435 0.69828 0.89287 0.0
H763 H 0.28885 0.71103 0.87516 0.0
H764 H 0.31434 0.68831 0.81279 0.0
H765 H 0.32041 0.67851 0.84386 0.0
H766 H 0.05695 0.6792 0.82375 0.0
H767 H 0.06322 0.67585 0.85517 0.0
H768 H 0.08756 0.72234 0.79513 0.0
H769 H 0.14321 0.72124 0.77712 0.0
C770 C 0.47672 0.70744 0.12139 0.0
C771 C 0.51354 0.66654 0.12127 0.0
C772 C 0.46829 0.62805 0.08679 0.0
C773 C 0.44166 0.67483 0.08278 0.0
N774 N 0.3965 0.74157 0.10436 0.0
N775 N 0.54318 0.58584 0.10396 0.0
C776 C 0.43819 0.70929 0.10278 0.0
C777 C 0.50917 0.62629 0.10395 0.0
N778 N 0.47963 0.74518 0.13871 0.0
N779 N 0.44412 0.58343 0.0808 0.0
H780 H 0.57393 0.58274 0.1162 0.0
H781 H 0.54208 0.55682 0.09087 0.0
H782 H 0.40433 0.58493 0.07788 0.0
H783 H 0.45888 0.54687 0.08501 0.0
H784 H 0.45797 0.77916 0.13807 0.0
H785 H 0.50572 0.74362 0.15321 0.0
H786 H 0.38925 0.76535 0.11918 0.0
H787 H 0.36604 0.73969 0.09182 0.0
C788 C 0.55645 0.9931 0.34934 0.0
C789 C 0.54159 0.04153 0.35905 0.0
C790 C 0.47404 0.05065 0.32782 0.0
C791 C 0.48931 0.00236 0.31775 0.0
N792 N 0.53619 0.9222 0.32202 0.0
N793 N 0.47918 0.11081 0.36149 0.0
C794 C 0.52764 0.97175 0.32959 0.0
C795 C 0.49822 0.06863 0.34944 0.0
N796 N 0.5992 0.96847 0.35846 0.0
N797 N 0.43655 0.07962 0.3166 0.0
H798 H 0.49545 0.12499 0.37748 0.0
H799 H 0.44461 0.12932 0.35707 0.0
H800 H 0.41585 0.06706 0.30149 0.0
H801 H 0.42779 0.11766 0.3212 0.0
H802 H 0.61588 0.93602 0.35051 0.0
H803 H 0.62018 0.98263 0.37328 0.0
H804 H 0.55966 0.89589 0.33125 0.0
H805 H 0.51701 0.90635 0.30716 0.0
C806 C 0.19678 0.99528 0.61258 0.0
C807 C 0.16853 0.04235 0.61274 0.0
C808 C 0.17275 0.04553 0.56836 0.0
C809 C 0.18951 0.99325 0.56819 0.0
N810 N 0.22484 0.92002 0.58995 0.0
N811 N 0.13338 0.11563 0.59106 0.0
C812 C 0.20471 0.96891 0.59024 0.0
C813 C 0.15845 0.06905 0.5907 0.0
N814 N 0.21688 0.97665 0.63386 0.0
N815 N 0.17201 0.07273 0.5471 0.0
H816 H 0.12261 0.13406 0.60705 0.0
H817 H 0.12093 0.13505 0.57554 0.0
H818 H 0.18574 0.05681 0.53099 0.0
H819 H 0.16358 0.11206 0.54584 0.0
H820 H 0.24166 0.94496 0.63501 0.0
H821 H 0.21255 0.99613 0.6503 0.0
H822 H 0.22978 0.89731 0.6054 0.0
H823 H 0.23522 0.90112 0.57404 0.0
C824 C 0.66968 0.39537 0.91572 0.0
C825 C 0.6432 0.44333 0.91313 0.0
C826 C 0.66985 0.46873 0.95362 0.0
C827 C 0.69525 0.42059 0.95715 0.0
N828 N 0.71564 0.33519 0.9423 0.0
N829 N 0.59611 0.50938 0.9348 0.0
C830 C 0.6939 0.38275 0.93839 0.0
C831 C 0.63575 0.47454 0.93381 0.0
N832 N 0.67135 0.36231 0.89644 0.0
N833 N 0.68121 0.51059 0.96778 0.0
H834 H 0.56572 0.50925 0.92225 0.0
H835 H 0.58975 0.53299 0.94979 0.0
H836 H 0.70815 0.50981 0.98189 0.0
H837 H 0.66752 0.54762 0.96363 0.0
H838 H 0.69438 0.32931 0.89574 0.0
H839 H 0.64909 0.36855 0.88084 0.0
H840 H 0.71308 0.30447 0.93017 0.0
H841 H 0.73346 0.32504 0.95865 0.0
C842 C 0.7064 0.14191 0.18358 0.0
C843 C 0.66438 0.16308 0.17001 0.0
C844 C 0.66142 0.2376 0.19735 0.0
C845 C 0.70234 0.21593 0.21124 0.0
N846 N 0.77761 0.16099 0.21106 0.0
N847 N 0.62128 0.24203 0.15777 0.0
C848 C 0.7295 0.17243 0.20224 0.0
C849 C 0.64772 0.21438 0.17499 0.0
N850 N 0.72259 0.09225 0.17986 0.0
N851 N 0.63554 0.28038 0.20533 0.0
H852 H 0.61509 0.22805 0.14024 0.0
H853 H 0.61188 0.28104 0.15976 0.0
H854 H 0.64574 0.30027 0.22106 0.0
H855 H 0.60161 0.29384 0.19715 0.0
H856 H 0.74966 0.074 0.19106 0.0
H857 H 0.70578 0.06746 0.1672 0.0
H858 H 0.80085 0.13192 0.20383 0.0
H859 H 0.79637 0.18461 0.22369 0.0
C860 C 0.00961 0.1576 0.43356 0.0
C861 C 0.97421 0.13487 0.41679 0.0
C862 C 0.90562 0.13613 0.44728 0.0
C863 C 0.94166 0.15482 0.46472 0.0
N864 N 0.02312 0.19749 0.47309 0.0
N865 N 0.88519 0.12326 0.40489 0.0
C866 C 0.99185 0.17109 0.45729 0.0
C867 C 0.92102 0.13145 0.4228 0.0
N868 N 0.06074 0.16216 0.42773 0.0
N869 N 0.85715 0.12084 0.45417 0.0
H870 H 0.89571 0.11962 0.38679 0.0
H871 H 0.84532 0.12552 0.40755 0.0
H872 H 0.84302 0.12587 0.47163 0.0
H873 H 0.83179 0.10051 0.4429 0.0
H874 H 0.08969 0.17107 0.44028 0.0
H875 H 0.07482 0.15496 0.41042 0.0
H876 H 0.05787 0.21485 0.46804 0.0
H877 H 0.01267 0.20521 0.49095 0.0
C878 C 0.00896 0.52401 0.67928 0.0
C879 C 0.01308 0.48457 0.66134 0.0
C880 C 0.99476 0.41814 0.69182 0.0
C881 C 0.00146 0.45595 0.71021 0.0
N882 N 0.99024 0.54493 0.72151 0.0
N883 N 0.97836 0.40212 0.64912 0.0
C884 C 0.00045 0.50917 0.70395 0.0
C885 C 0.99563 0.43403 0.66718 0.0
N886 N 0.01404 0.57488 0.67301 0.0
N887 N 0.98915 0.36705 0.69773 0.0
H888 H 0.97517 0.41489 0.63119 0.0
H889 H 0.9615 0.36606 0.65225 0.0
H890 H 0.98527 0.35405 0.71552 0.0
H891 H 0.99084 0.33727 0.68503 0.0
H892 H 0.01955 0.60453 0.68554 0.0
H893 H 0.01081 0.58767 0.65516 0.0
H894 H 0.98435 0.58412 0.718 0.0
H895 H 0.98368 0.53438 0.73952 0.0
C896 C 0.55713 0.27603 0.35788 0.0
C897 C 0.58868 0.26821 0.37868 0.0
C898 C 0.66587 0.29264 0.3552 0.0
C899 C 0.63477 0.29413 0.33387 0.0
N900 N 0.55102 0.31382 0.31762 0.0
N901 N 0.66988 0.28527 0.39914 0.0
C902 C 0.58022 0.29429 0.33613 0.0
C903 C 0.64204 0.28221 0.37803 0.0
N904 N 0.50541 0.26492 0.35876 0.0
N905 N 0.71817 0.29938 0.35355 0.0
H906 H 0.65382 0.27812 0.41608 0.0
H907 H 0.70765 0.29923 0.40029 0.0
H908 H 0.73586 0.31354 0.33798 0.0
H909 H 0.74421 0.29093 0.36748 0.0
H910 H 0.48144 0.26458 0.3435 0.0
H911 H 0.48692 0.25399 0.37476 0.0
H912 H 0.51092 0.31798 0.31836 0.0
H913 H 0.5685 0.33234 0.30296 0.0
C914 C 0.96976 0.06885 0.61349 0.0
C915 C 0.93823 0.071 0.6344 0.0
C916 C 0.87263 0.1198 0.61126 0.0
C917 C 0.90824 0.12479 0.59187 0.0
N918 N 0.99557 0.11312 0.57703 0.0
N919 N 0.85907 0.09666 0.65358 0.0
C920 C 0.95805 0.10155 0.59358 0.0
C921 C 0.88904 0.0954 0.63326 0.0
N922 N 0.01153 0.03638 0.61276 0.0
N923 N 0.82344 0.1386 0.60864 0.0
H924 H 0.86917 0.07641 0.66932 0.0
H925 H 0.82549 0.11865 0.65515 0.0
H926 H 0.81094 0.15768 0.59297 0.0
H927 H 0.79401 0.13215 0.62111 0.0
H928 H 0.03561 0.03252 0.59781 0.0
H929 H 0.01848 0.00797 0.62573 0.0
H930 H 0.03386 0.10128 0.57876 0.0
H931 H 0.99015 0.13807 0.56245 0.0
C932 C 0.05137 0.51299 0.8616 0.0
C933 C 0.07577 0.48434 0.8804 0.0
C934 C 0.06812 0.40478 0.8563 0.0
C935 C 0.04617 0.43378 0.83687 0.0
N936 N 0.02156 0.51746 0.82021 0.0
N937 N 0.11597 0.40595 0.89446 0.0
C938 C 0.03967 0.48849 0.83921 0.0
C939 C 0.08696 0.4311 0.87733 0.0
N940 N 0.03673 0.56326 0.86564 0.0
N941 N 0.06938 0.35193 0.85499 0.0
H942 H 0.12972 0.42444 0.91005 0.0
H943 H 0.13008 0.36848 0.89226 0.0
H944 H 0.05717 0.33148 0.83967 0.0
H945 H 0.07971 0.32818 0.8695 0.0
H946 H 0.01149 0.58383 0.85444 0.0
H947 H 0.04658 0.58393 0.88122 0.0
H948 H 0.02224 0.55776 0.81982 0.0
H949 H 0.00996 0.50223 0.8037 0.0
C950 C 0.71781 0.49554 0.12394 0.0
C951 C 0.70057 0.54751 0.12139 0.0
C952 C 0.71413 0.54203 0.07747 0.0
C953 C 0.72283 0.48794 0.07982 0.0
N954 N 0.72869 0.41176 0.10489 0.0
N955 N 0.6768 0.61902 0.0952 0.0
C956 C 0.72394 0.46431 0.10298 0.0
C957 C 0.69817 0.57093 0.09807 0.0
N958 N 0.72847 0.47622 0.1465 0.0
N959 N 0.72009 0.56563 0.05544 0.0
H960 H 0.66438 0.64178 0.10959 0.0
H961 H 0.6676 0.63491 0.07835 0.0
H962 H 0.72959 0.5455 0.03969 0.0
H963 H 0.7198 0.6057 0.05315 0.0
H964 H 0.74572 0.4403 0.14949 0.0
H965 H 0.7246 0.49837 0.16218 0.0
H966 H 0.72397 0.39149 0.12107 0.0
H967 H 0.73352 0.38796 0.08983 0.0
loop_
_geom_bond_atom_site_label_1
_geom_bond_atom_site_label_2
_geom_bond_distance
_geom_bond_site_symmetry_2
_ccdc_geom_bond_type
Mg0 O7 2.141 . S
Mg0 O8 2.048 1_545 S
Mg0 O9 2.048 1_455 S
Mg0 O12 2.141 1_455 S
C1 O2 1.313 . S
C1 O8 1.195 . S
O2 C1 1.313 . S
C3 O4 1.245 . S
C3 O12 1.289 . S
O4 C3 1.245 . S
C5 O6 1.245 . S
C5 O7 1.289 1_565 S
O6 C5 1.245 . S
O7 Mg0 2.141 . S
O7 C5 1.289 1_545 S
O8 Mg0 2.048 1_565 S
O8 C1 1.195 . S
O9 Mg0 2.048 1_655 S
O9 C10 1.195 . S
C10 O9 1.195 . S
C10 O11 1.313 1_545 S
O11 C10 1.313 1_565 S
O12 Mg0 2.141 1_655 S
O12 C3 1.289 . S
Mg13 O20 2.141 . S
Mg13 O21 2.048 . S
Mg13 O22 2.048 . S
Mg13 O25 2.141 . S
C14 O15 1.313 . S
C14 O21 1.195 . S
O15 C14 1.313 . S
C16 O17 1.245 . S
C16 O25 1.289 . S
O17 C16 1.245 . S
C18 O19 1.245 . S
C18 O20 1.289 . S
O19 C18 1.245 . S
O20 Mg13 2.141 . S
O20 C18 1.289 . S
O21 Mg13 2.048 . S
O21 C14 1.195 . S
O22 Mg13 2.048 . S
O22 C23 1.195 . S
C23 O22 1.195 . S
C23 O24 1.313 . S
O24 C23 1.313 . S
O25 Mg13 2.141 . S
O25 C16 1.289 . S
Mg26 O33 2.141 . S
Mg26 O34 2.048 . S
Mg26 O35 2.048 . S
Mg26 O38 2.141 . S
C27 O28 1.313 . S
C27 O34 1.195 . S
O28 C27 1.313 . S
C29 O30 1.245 . S
C29 O38 1.289 . S
O30 C29 1.245 . S
C31 O32 1.245 . S
C31 O33 1.289 . S
O32 C31 1.245 . S
O33 Mg26 2.141 . S
O33 C31 1.289 . S
O34 Mg26 2.048 . S
O34 C27 1.195 . S
O35 Mg26 2.048 . S
O35 C36 1.195 . S
C36 O35 1.195 . S
C36 O37 1.313 . S
O37 C36 1.313 . S
O38 Mg26 2.141 . S
O38 C29 1.289 . S
Mg39 O46 2.141 . S
Mg39 O47 2.048 . S
Mg39 O48 2.048 . S
Mg39 O51 2.141 . S
C40 O41 1.313 . S
C40 O47 1.195 . S
O41 C40 1.313 . S
C42 O43 1.245 . S
C42 O51 1.289 . S
O43 C42 1.245 . S
C44 O45 1.245 . S
C44 O46 1.289 . S
O45 C44 1.245 . S
O46 Mg39 2.141 . S
O46 C44 1.289 . S
O47 Mg39 2.048 . S
O47 C40 1.195 . S
O48 Mg39 2.048 . S
O48 C49 1.195 . S
C49 O48 1.195 . S
C49 O50 1.313 . S
O50 C49 1.313 . S
O51 Mg39 2.141 . S
O51 C42 1.289 . S
Mg52 O59 2.141 . S
Mg52 O60 2.048 . S
Mg52 O61 2.048 . S
Mg52 O64 2.141 . S
C53 O54 1.313 . S
C53 O60 1.195 . S
O54 C53 1.313 . S
C55 O56 1.245 . S
C55 O64 1.289 . S
O56 C55 1.245 . S
C57 O58 1.245 . S
C57 O59 1.289 . S
O58 C57 1.245 . S
O59 Mg52 2.141 . S
O59 C57 1.289 . S
O60 Mg52 2.048 . S
O60 C53 1.195 . S
O61 Mg52 2.048 . S
O61 C62 1.195 . S
C62 O61 1.195 . S
C62 O63 1.313 . S
O63 C62 1.313 . S
O64 Mg52 2.141 . S
O64 C55 1.289 . S
Mg65 O72 2.141 . S
Mg65 O73 2.048 . S
Mg65 O74 2.048 . S
Mg65 O77 2.141 . S
C66 O67 1.313 . S
C66 O73 1.195 . S
O67 C66 1.313 . S
C68 O69 1.245 . S
C68 O77 1.289 . S
O69 C68 1.245 . S
C70 O71 1.245 . S
C70 O72 1.289 . S
O71 C70 1.245 . S
O72 Mg65 2.141 . S
O72 C70 1.289 . S
O73 Mg65 2.048 . S
O73 C66 1.195 . S
O74 Mg65 2.048 . S
O74 C75 1.195 . S
C75 O74 1.195 . S
C75 O76 1.313 . S
O76 C75 1.313 . S
O77 Mg65 2.141 . S
O77 C68 1.289 . S
Mg78 O85 2.141 . S
Mg78 O86 2.048 . S
Mg78 O87 2.048 . S
Mg78 O90 2.141 . S
C79 O80 1.313 . S
C79 O86 1.195 . S
O80 C79 1.313 . S
C81 O82 1.245 . S
C81 O90 1.289 . S
O82 C81 1.245 . S
C83 O84 1.245 . S
C83 O85 1.289 . S
O84 C83 1.245 . S
O85 Mg78 2.141 . S
O85 C83 1.289 . S
O86 Mg78 2.048 . S
O86 C79 1.195 . S
O87 Mg78 2.048 . S
O87 C88 1.195 . S
C88 O87 1.195 . S
C88 O89 1.313 . S
O89 C88 1.313 . S
O90 Mg78 2.141 . S
O90 C81 1.289 . S
Mg91 O98 2.141 1_655 S
Mg91 O99 2.048 1_655 S
Mg91 O100 2.048 1_565 S
Mg91 O103 2.141 1_565 S
C92 O93 1.313 . S
C92 O99 1.195 . S
O93 C92 1.313 . S
C94 O95 1.245 1_655 S
C94 O103 1.289 . S
O95 C94 1.245 1_455 S
C96 O97 1.245 . S
C96 O98 1.289 . S
O97 C96 1.245 . S
O98 Mg91 2.141 1_455 S
O98 C96 1.289 . S
O99 Mg91 2.048 1_455 S
O99 C92 1.195 . S
O100 Mg91 2.048 1_545 S
O100 C101 1.195 . S
C101 O100 1.195 . S
C101 O102 1.313 1_655 S
O102 C101 1.313 1_455 S
O103 Mg91 2.141 1_545 S
O103 C94 1.289 . S
Mn104 O109 2.095 1_554 S
Mn104 O119 2.162 . S
Mn104 O120 2.297 . S
Mn104 O128 2.385 . S
Mn104 O129 2.209 . S
Mn104 O130 2.093 1_554 S
Mn105 O110 2.105 1_554 S
Mn105 N112 2.264 . S
Mn105 N121 2.300 . S
Mn105 O129 2.229 . S
Mn105 O131 2.115 1_554 S
C106 O128 1.234 . S
C106 O129 1.283 . S
C107 O119 1.281 . S
C107 O120 1.236 . S
C108 O130 1.241 . S
C108 O131 1.264 . S
O109 Mn104 2.095 1_556 S
O109 C118 1.250 . S
O110 Mn105 2.105 1_556 S
O110 C118 1.258 . S
C111 N112 1.326 . S
C111 C115 1.460 . S
C111 H117 0.929 1_554 S
N112 Mn105 2.264 . S
N112 C111 1.326 . S
N112 C116 1.362 . S
C113 C114 1.258 . S
C113 C116 1.431 . S
C113 C133 1.449 . S
C114 C113 1.258 . S
C114 C115 1.477 . S
C114 H134 0.931 . S
C115 C111 1.460 . S
C115 C114 1.477 . S
C115 H135 0.930 . S
C116 N112 1.362 . S
C116 C113 1.431 . S
C116 C126 1.476 . S
H117 C111 0.929 1_556 S
C118 O109 1.250 . S
C118 O110 1.258 . S
O119 Mn104 2.162 . S
O119 C107 1.281 . S
O120 Mn104 2.297 . S
O120 C107 1.236 . S
N121 Mn105 2.300 . S
N121 C122 1.328 . S
N121 C126 1.318 . S
C122 N121 1.328 . S
C122 C123 1.457 . S
C122 H127 0.929 . S
C123 C122 1.457 . S
C123 C124 1.291 . S
C123 H136 0.931 . S
C124 C123 1.291 . S
C124 C125 1.373 . S
C124 H137 0.929 . S
C125 C124 1.373 . S
C125 C126 1.396 . S
C125 C132 1.403 . S
C126 C116 1.476 . S
C126 N121 1.318 . S
C126 C125 1.396 . S
H127 C122 0.929 . S
O128 Mn104 2.385 . S
O128 C106 1.234 . S
O129 Mn104 2.209 . S
O129 Mn105 2.229 . S
O129 C106 1.283 . S
O130 Mn104 2.093 1_556 S
O130 C108 1.241 . S
O131 Mn105 2.115 1_556 S
O131 C108 1.264 . S
C132 C125 1.403 . S
C132 C133 1.399 . S
C132 H138 0.929 . S
C133 C113 1.449 . S
C133 C132 1.399 . S
C133 H139 0.930 . S
H134 C114 0.931 . S
H135 C115 0.930 . S
H136 C123 0.931 . S
H137 C124 0.929 . S
H138 C132 0.929 . S
H139 C133 0.930 . S
Mn140 O145 2.095 . S
Mn140 O155 2.162 . S
Mn140 O156 2.297 . S
Mn140 O164 2.385 . S
Mn140 O165 2.209 . S
Mn140 O166 2.094 . S
Mn141 O146 2.121 1_565 S
Mn141 N148 2.257 1_565 S
Mn141 N157 2.282 . S
Mn141 O165 2.215 . S
Mn141 O167 2.117 . S
C142 O164 1.234 . S
C142 O165 1.283 . S
C143 O155 1.281 . S
C143 O156 1.236 . S
C144 O166 1.240 . S
C144 O167 1.264 . S
O145 Mn140 2.095 . S
O145 C154 1.250 1_565 S
O146 Mn141 2.121 1_545 S
O146 C154 1.258 . S
C147 N148 1.326 . S
C147 C151 1.460 . S
C147 H153 0.929 . S
N148 Mn141 2.257 1_545 S
N148 C147 1.326 . S
N148 C152 1.362 . S
C149 C150 1.258 . S
C149 C152 1.431 . S
C149 C169 1.449 . S
C150 C149 1.258 . S
C150 C151 1.477 . S
C150 H170 0.931 . S
C151 C147 1.460 . S
C151 C150 1.477 . S
C151 H171 0.930 . S
C152 N148 1.362 . S
C152 C149 1.431 . S
C152 C162 1.476 . S
H153 C147 0.929 . S
C154 O145 1.250 1_545 S
C154 O146 1.258 . S
O155 Mn140 2.162 . S
O155 C143 1.281 . S
O156 Mn140 2.297 . S
O156 C143 1.236 . S
N157 Mn141 2.282 . S
N157 C158 1.328 . S
N157 C162 1.318 1_565 S
C158 N157 1.328 . S
C158 C159 1.457 . S
C158 H163 0.929 . S
C159 C158 1.457 . S
C159 C160 1.291 . S
C159 H172 0.931 . S
C160 C159 1.291 . S
C160 C161 1.373 . S
C160 H173 0.929 . S
C161 C160 1.373 . S
C161 C162 1.396 1_565 S
C161 C168 1.403 1_565 S
C162 C152 1.476 . S
C162 N157 1.318 1_545 S
C162 C161 1.396 1_545 S
H163 C158 0.929 . S
O164 Mn140 2.385 . S
O164 C142 1.234 . S
O165 Mn140 2.209 . S
O165 Mn141 2.215 . S
O165 C142 1.283 . S
O166 Mn140 2.094 . S
O166 C144 1.240 . S
O167 Mn141 2.117 . S
O167 C144 1.264 . S
C168 C161 1.403 1_545 S
C168 C169 1.399 . S
C168 H174 0.929 . S
C169 C149 1.449 . S
C169 C168 1.399 . S
C169 H175 0.930 . S
H170 C150 0.931 . S
H171 C151 0.930 . S
H172 C159 0.931 . S
H173 C160 0.929 . S
H174 C168 0.929 . S
H175 C169 0.930 . S
Mn176 O181 2.095 . S
Mn176 O191 2.162 . S
Mn176 O192 2.297 . S
Mn176 O200 2.385 . S
Mn176 O201 2.209 . S
Mn176 O202 2.094 . S
Mn177 O182 2.121 . S
Mn177 N184 2.257 . S
Mn177 N193 2.282 . S
Mn177 O201 2.215 . S
Mn177 O203 2.117 . S
C178 O200 1.234 . S
C178 O201 1.283 . S
C179 O191 1.281 . S
C179 O192 1.236 . S
C180 O202 1.240 . S
C180 O203 1.264 . S
O181 Mn176 2.095 . S
O181 C190 1.250 . S
O182 Mn177 2.121 . S
O182 C190 1.258 . S
C183 N184 1.326 . S
C183 C187 1.460 1_455 S
C183 H189 0.929 . S
N184 Mn177 2.257 . S
N184 C183 1.326 . S
N184 C188 1.362 . S
C185 C186 1.258 . S
C185 C188 1.431 1_655 S
C185 C205 1.449 . S
C186 C185 1.258 . S
C186 C187 1.477 . S
C186 H206 0.931 . S
C187 C183 1.460 1_655 S
C187 C186 1.477 . S
C187 H207 0.930 . S
C188 N184 1.362 . S
C188 C185 1.431 1_455 S
C188 C198 1.476 . S
H189 C183 0.929 . S
C190 O181 1.250 . S
C190 O182 1.258 . S
O191 Mn176 2.162 . S
O191 C179 1.281 . S
O192 Mn176 2.297 . S
O192 C179 1.236 . S
N193 Mn177 2.282 . S
N193 C194 1.328 . S
N193 C198 1.318 . S
C194 N193 1.328 . S
C194 C195 1.457 . S
C194 H199 0.929 . S
C195 C194 1.457 . S
C195 C196 1.291 . S
C195 H208 0.931 . S
C196 C195 1.291 . S
C196 C197 1.373 . S
C196 H209 0.929 . S
C197 C196 1.373 . S
C197 C198 1.396 . S
C197 C204 1.403 1_455 S
C198 C188 1.476 . S
C198 N193 1.318 . S
C198 C197 1.396 . S
H199 C194 0.929 . S
O200 Mn176 2.385 . S
O200 C178 1.234 . S
O201 Mn176 2.209 . S
O201 Mn177 2.215 . S
O201 C178 1.283 . S
O202 Mn176 2.094 . S
O202 C180 1.240 . S
O203 Mn177 2.117 . S
O203 C180 1.264 . S
C204 C197 1.403 1_655 S
C204 C205 1.399 . S
C204 H210 0.929 . S
C205 C185 1.449 . S
C205 C204 1.399 . S
C205 H211 0.930 . S
H206 C186 0.931 . S
H207 C187 0.930 . S
H208 C195 0.931 . S
H209 C196 0.929 . S
H210 C204 0.929 . S
H211 C205 0.930 . S
Mn212 O217 2.095 . S
Mn212 O227 2.162 . S
Mn212 O228 2.297 . S
Mn212 O236 2.385 . S
Mn212 O237 2.209 . S
Mn212 O238 2.094 . S
Mn213 O218 2.121 . S
Mn213 N220 2.257 . S
Mn213 N229 2.282 . S
Mn213 O237 2.215 . S
Mn213 O239 2.117 . S
C214 O236 1.234 . S
C214 O237 1.283 . S
C215 O227 1.281 . S
C215 O228 1.236 . S
C216 O238 1.240 . S
C216 O239 1.264 . S
O217 Mn212 2.095 . S
O217 C226 1.250 . S
O218 Mn213 2.121 . S
O218 C226 1.258 . S
C219 N220 1.326 . S
C219 C223 1.460 . S
C219 H225 0.929 . S
N220 Mn213 2.257 . S
N220 C219 1.326 . S
N220 C224 1.362 . S
C221 C222 1.258 . S
C221 C224 1.431 . S
C221 C241 1.449 . S
C222 C221 1.258 . S
C222 C223 1.477 . S
C222 H242 0.931 . S
C223 C219 1.460 . S
C223 C222 1.477 . S
C223 H243 0.930 . S
C224 N220 1.362 . S
C224 C221 1.431 . S
C224 C234 1.476 . S
H225 C219 0.929 . S
C226 O217 1.250 . S
C226 O218 1.258 . S
O227 Mn212 2.162 . S
O227 C215 1.281 . S
O228 Mn212 2.297 . S
O228 C215 1.236 . S
N229 Mn213 2.282 . S
N229 C230 1.328 . S
N229 C234 1.318 . S
C230 N229 1.328 . S
C230 C231 1.457 . S
C230 H235 0.929 . S
C231 C230 1.457 . S
C231 C232 1.291 . S
C231 H244 0.931 . S
C232 C231 1.291 . S
C232 C233 1.373 . S
C232 H245 0.929 . S
C233 C232 1.373 . S
C233 C234 1.396 . S
C233 C240 1.403 . S
C234 C224 1.476 . S
C234 N229 1.318 . S
C234 C233 1.396 . S
H235 C230 0.929 . S
O236 Mn212 2.385 . S
O236 C214 1.234 . S
O237 Mn212 2.209 . S
O237 Mn213 2.215 . S
O237 C214 1.283 . S
O238 Mn212 2.094 . S
O238 C216 1.240 . S
O239 Mn213 2.117 . S
O239 C216 1.264 . S
C240 C233 1.403 . S
C240 C241 1.399 . S
C240 H246 0.929 . S
C241 C221 1.449 . S
C241 C240 1.399 . S
C241 H247 0.930 . S
H242 C222 0.931 . S
H243 C223 0.930 . S
H244 C231 0.931 . S
H245 C232 0.929 . S
H246 C240 0.929 . S
H247 C241 0.930 . S
Mn248 O253 2.095 . S
Mn248 O263 2.162 . S
Mn248 O264 2.297 . S
Mn248 O272 2.385 . S
Mn248 O273 2.209 . S
Mn248 O274 2.094 . S
Mn249 O254 2.121 . S
Mn249 N256 2.257 . S
Mn249 N265 2.282 . S
Mn249 O273 2.215 . S
Mn249 O275 2.117 . S
C250 O272 1.234 . S
C250 O273 1.283 . S
C251 O263 1.281 . S
C251 O264 1.236 . S
C252 O274 1.240 . S
C252 O275 1.264 . S
O253 Mn248 2.095 . S
O253 C262 1.250 . S
O254 Mn249 2.121 . S
O254 C262 1.258 . S
C255 N256 1.326 . S
C255 C259 1.460 1_545 S
C255 H261 0.929 . S
N256 Mn249 2.257 . S
N256 C255 1.326 . S
N256 C260 1.362 . S
C257 C258 1.258 . S
C257 C260 1.431 1_565 S
C257 C277 1.449 . S
C258 C257 1.258 . S
C258 C259 1.477 . S
C258 H278 0.931 . S
C259 C255 1.460 1_565 S
C259 C258 1.477 . S
C259 H279 0.930 . S
C260 N256 1.362 . S
C260 C257 1.431 1_545 S
C260 C270 1.476 . S
H261 C255 0.929 . S
C262 O253 1.250 . S
C262 O254 1.258 . S
O263 Mn248 2.162 . S
O263 C251 1.281 . S
O264 Mn248 2.297 . S
O264 C251 1.236 . S
N265 Mn249 2.282 . S
N265 C266 1.328 . S
N265 C270 1.318 . S
C266 N265 1.328 . S
C266 C267 1.457 . S
C266 H271 0.929 . S
C267 C266 1.457 . S
C267 C268 1.291 . S
C267 H280 0.931 . S
C268 C267 1.291 . S
C268 C269 1.373 . S
C268 H281 0.929 . S
C269 C268 1.373 . S
C269 C270 1.396 . S
C269 C276 1.403 1_545 S
C270 C260 1.476 . S
C270 N265 1.318 . S
C270 C269 1.396 . S
H271 C266 0.929 . S
O272 Mn248 2.385 . S
O272 C250 1.234 . S
O273 Mn248 2.209 . S
O273 Mn249 2.215 . S
O273 C250 1.283 . S
O274 Mn248 2.094 . S
O274 C252 1.240 . S
O275 Mn249 2.117 . S
O275 C252 1.264 . S
C276 C269 1.403 1_565 S
C276 C277 1.399 . S
C276 H282 0.929 . S
C277 C257 1.449 . S
C277 C276 1.399 . S
C277 H283 0.930 . S
H278 C258 0.931 . S
H279 C259 0.930 . S
H280 C267 0.931 . S
H281 C268 0.929 . S
H282 C276 0.929 . S
H283 C277 0.930 . S
Mn284 O289 2.095 . S
Mn284 O299 2.162 . S
Mn284 O300 2.297 . S
Mn284 O308 2.385 . S
Mn284 O309 2.209 1_655 S
Mn284 O310 2.094 . S
Mn285 O290 2.121 . S
Mn285 N292 2.257 . S
Mn285 N301 2.282 . S
Mn285 O309 2.215 . S
Mn285 O311 2.117 . S
C286 O308 1.234 . S
C286 O309 1.283 1_655 S
C287 O299 1.281 . S
C287 O300 1.236 . S
C288 O310 1.240 . S
C288 O311 1.264 1_655 S
O289 Mn284 2.095 . S
O289 C298 1.250 . S
O290 Mn285 2.121 . S
O290 C298 1.258 1_455 S
C291 N292 1.326 . S
C291 C295 1.460 . S
C291 H297 0.929 . S
N292 Mn285 2.257 . S
N292 C291 1.326 . S
N292 C296 1.362 . S
C293 C294 1.258 . S
C293 C296 1.431 . S
C293 C313 1.449 . S
C294 C293 1.258 . S
C294 C295 1.477 . S
C294 H314 0.931 . S
C295 C291 1.460 . S
C295 C294 1.477 . S
C295 H315 0.930 . S
C296 N292 1.362 . S
C296 C293 1.431 . S
C296 C306 1.476 . S
H297 C291 0.929 . S
C298 O289 1.250 . S
C298 O290 1.258 1_655 S
O299 Mn284 2.162 . S
O299 C287 1.281 . S
O300 Mn284 2.297 . S
O300 C287 1.236 . S
N301 Mn285 2.282 . S
N301 C302 1.328 . S
N301 C306 1.318 . S
C302 N301 1.328 . S
C302 C303 1.457 . S
C302 H307 0.929 . S
C303 C302 1.457 . S
C303 C304 1.291 . S
C303 H316 0.931 . S
C304 C303 1.291 . S
C304 C305 1.373 . S
C304 H317 0.929 . S
C305 C304 1.373 . S
C305 C306 1.396 . S
C305 C312 1.403 . S
C306 C296 1.476 . S
C306 N301 1.318 . S
C306 C305 1.396 . S
H307 C302 0.929 . S
O308 Mn284 2.385 . S
O308 C286 1.234 . S
O309 Mn284 2.209 1_455 S
O309 Mn285 2.215 . S
O309 C286 1.283 1_455 S
O310 Mn284 2.094 . S
O310 C288 1.240 . S
O311 Mn285 2.117 . S
O311 C288 1.264 1_455 S
C312 C305 1.403 . S
C312 C313 1.399 . S
C312 H318 0.929 . S
C313 C293 1.449 . S
C313 C312 1.399 . S
C313 H319 0.930 . S
H314 C294 0.931 . S
H315 C295 0.930 . S
H316 C303 0.931 . S
H317 C304 0.929 . S
H318 C312 0.929 . S
H319 C313 0.930 . S
Mn320 O325 2.095 . S
Mn320 O335 2.162 . S
Mn320 O336 2.297 . S
Mn320 O344 2.385 1_554 S
Mn320 O345 2.209 . S
Mn320 O346 2.094 . S
Mn321 O326 2.121 . S
Mn321 N328 2.257 . S
Mn321 N337 2.282 1_554 S
Mn321 O345 2.215 . S
Mn321 O347 2.117 . S
C322 O344 1.234 . S
C322 O345 1.283 1_556 S
C323 O335 1.281 . S
C323 O336 1.236 . S
C324 O346 1.240 . S
C324 O347 1.264 . S
O325 Mn320 2.095 . S
O325 C334 1.250 . S
O326 Mn321 2.121 . S
O326 C334 1.258 . S
C327 N328 1.326 . S
C327 C331 1.460 . S
C327 H333 0.929 . S
N328 Mn321 2.257 . S
N328 C327 1.326 . S
N328 C332 1.360 . S
C329 C330 1.258 1_556 S
C329 C332 1.432 1_556 S
C329 C349 1.449 . S
C330 C329 1.258 1_554 S
C330 C331 1.477 . S
C330 H350 0.931 1_554 S
C331 C327 1.460 . S
C331 C330 1.477 . S
C331 H351 0.930 . S
C332 N328 1.360 . S
C332 C329 1.432 1_554 S
C332 C342 1.478 1_554 S
H333 C327 0.929 . S
C334 O325 1.250 . S
C334 O326 1.258 . S
O335 Mn320 2.162 . S
O335 C323 1.281 . S
O336 Mn320 2.297 . S
O336 C323 1.236 . S
N337 Mn321 2.282 1_556 S
N337 C338 1.328 . S
N337 C342 1.318 . S
C338 N337 1.328 . S
C338 C339 1.457 . S
C338 H343 0.929 . S
C339 C338 1.457 . S
C339 C340 1.291 . S
C339 H352 0.931 . S
C340 C339 1.291 . S
C340 C341 1.373 . S
C340 H353 0.929 . S
C341 C340 1.373 . S
C341 C342 1.396 . S
C341 C348 1.403 . S
C342 C332 1.478 1_556 S
C342 N337 1.318 . S
C342 C341 1.396 . S
H343 C338 0.929 . S
O344 Mn320 2.385 1_556 S
O344 C322 1.234 . S
O345 Mn320 2.209 . S
O345 Mn321 2.215 . S
O345 C322 1.283 1_554 S
O346 Mn320 2.094 . S
O346 C324 1.240 . S
O347 Mn321 2.117 . S
O347 C324 1.264 . S
C348 C341 1.403 . S
C348 C349 1.399 . S
C348 H354 0.929 . S
C349 C329 1.449 . S
C349 C348 1.399 . S
C349 H355 0.930 . S
H350 C330 0.931 1_556 S
H351 C331 0.930 . S
H352 C339 0.931 . S
H353 C340 0.929 . S
H354 C348 0.929 . S
H355 C349 0.930 . S
Mn356 O361 2.095 . S
Mn356 O371 2.162 . S
Mn356 O372 2.297 . S
Mn356 O380 2.385 . S
Mn356 O381 2.209 . S
Mn356 O382 2.094 . S
Mn357 O362 2.121 . S
Mn357 N364 2.257 . S
Mn357 N373 2.282 . S
Mn357 O381 2.215 . S
Mn357 O383 2.117 . S
C358 O380 1.234 . S
C358 O381 1.283 . S
C359 O371 1.281 . S
C359 O372 1.236 . S
C360 O382 1.240 . S
C360 O383 1.264 . S
O361 Mn356 2.095 . S
O361 C370 1.250 . S
O362 Mn357 2.121 . S
O362 C370 1.258 . S
C363 N364 1.326 . S
C363 C367 1.460 . S
C363 H369 0.929 . S
N364 Mn357 2.257 . S
N364 C363 1.326 . S
N364 C368 1.362 . S
C365 C366 1.258 . S
C365 C368 1.431 . S
C365 C385 1.449 . S
C366 C365 1.258 . S
C366 C367 1.477 . S
C366 H386 0.931 . S
C367 C363 1.460 . S
C367 C366 1.477 . S
C367 H387 0.930 . S
C368 N364 1.362 . S
C368 C365 1.431 . S
C368 C378 1.476 . S
H369 C363 0.929 . S
C370 O361 1.250 . S
C370 O362 1.258 . S
O371 Mn356 2.162 . S
O371 C359 1.281 . S
O372 Mn356 2.297 . S
O372 C359 1.236 . S
N373 Mn357 2.282 . S
N373 C374 1.328 . S
N373 C378 1.318 . S
C374 N373 1.328 . S
C374 C375 1.457 . S
C374 H379 0.929 . S
C375 C374 1.457 . S
C375 C376 1.291 . S
C375 H388 0.931 . S
C376 C375 1.291 . S
C376 C377 1.373 . S
C376 H389 0.929 . S
C377 C376 1.373 . S
C377 C378 1.396 . S
C377 C384 1.403 . S
C378 C368 1.476 . S
C378 N373 1.318 . S
C378 C377 1.396 . S
H379 C374 0.929 . S
O380 Mn356 2.385 . S
O380 C358 1.234 . S
O381 Mn356 2.209 . S
O381 Mn357 2.215 . S
O381 C358 1.283 . S
O382 Mn356 2.094 . S
O382 C360 1.240 . S
O383 Mn357 2.117 . S
O383 C360 1.264 . S
C384 C377 1.403 . S
C384 C385 1.399 . S
C384 H390 0.929 . S
C385 C365 1.449 . S
C385 C384 1.399 . S
C385 H391 0.930 . S
H386 C366 0.931 . S
H387 C367 0.930 . S
H388 C375 0.931 . S
H389 C376 0.929 . S
H390 C384 0.929 . S
H391 C385 0.930 . S
C392 C393 1.363 . S
C392 C398 1.379 . S
C392 N400 1.356 . S
C393 C392 1.363 . S
C393 C399 1.363 . S
C394 C395 1.363 . S
C394 C399 1.379 . S
C394 N401 1.356 1_565 S
C395 C394 1.363 . S
C395 C398 1.363 . S
N396 C398 1.356 . S
N396 H408 0.984 . S
N396 H409 0.985 . S
N397 C399 1.356 1_545 S
N397 H402 0.984 . S
N397 H403 0.985 . S
C398 C392 1.379 . S
C398 C395 1.363 . S
C398 N396 1.356 . S
C399 C393 1.363 . S
C399 C394 1.379 . S
C399 N397 1.356 1_565 S
N400 C392 1.356 . S
N400 H406 0.984 . S
N400 H407 0.984 . S
N401 C394 1.356 1_545 S
N401 H404 0.984 . S
N401 H405 0.985 . S
H402 N397 0.984 . S
H403 N397 0.985 . S
H404 N401 0.984 . S
H405 N401 0.985 . S
H406 N400 0.984 . S
H407 N400 0.984 . S
H408 N396 0.984 . S
H409 N396 0.985 . S
C410 C411 1.363 . S
C410 C416 1.379 . S
C410 N418 1.356 . S
C411 C410 1.363 . S
C411 C417 1.363 . S
C412 C413 1.363 . S
C412 C417 1.379 . S
C412 N419 1.356 . S
C413 C412 1.363 . S
C413 C416 1.363 . S
N414 C416 1.356 . S
N414 H426 0.984 . S
N414 H427 0.985 . S
N415 C417 1.356 . S
N415 H420 0.984 . S
N415 H421 0.985 . S
C416 C410 1.379 . S
C416 C413 1.363 . S
C416 N414 1.356 . S
C417 C411 1.363 . S
C417 C412 1.379 . S
C417 N415 1.356 . S
N418 C410 1.356 . S
N418 H424 0.984 . S
N418 H425 0.984 . S
N419 C412 1.356 . S
N419 H422 0.984 . S
N419 H423 0.985 . S
H420 N415 0.984 . S
H421 N415 0.985 . S
H422 N419 0.984 . S
H423 N419 0.985 . S
H424 N418 0.984 . S
H425 N418 0.984 . S
H426 N414 0.984 . S
H427 N414 0.985 . S
C428 C429 1.363 . S
C428 C434 1.379 . S
C428 N436 1.356 . S
C429 C428 1.363 . S
C429 C435 1.363 . S
C430 C431 1.363 . S
C430 C435 1.379 . S
C430 N437 1.356 . S
C431 C430 1.363 . S
C431 C434 1.363 . S
N432 C434 1.356 . S
N432 H444 0.984 . S
N432 H445 0.985 . S
N433 C435 1.356 . S
N433 H438 0.984 . S
N433 H439 0.985 . S
C434 C428 1.379 . S
C434 C431 1.363 . S
C434 N432 1.356 . S
C435 C429 1.363 . S
C435 C430 1.379 . S
C435 N433 1.356 . S
N436 C428 1.356 . S
N436 H442 0.984 . S
N436 H443 0.984 . S
N437 C430 1.356 . S
N437 H440 0.984 . S
N437 H441 0.985 . S
H438 N433 0.984 . S
H439 N433 0.985 . S
H440 N437 0.984 . S
H441 N437 0.985 . S
H442 N436 0.984 . S
H443 N436 0.984 . S
H444 N432 0.984 . S
H445 N432 0.985 . S
C446 C447 1.363 . S
C446 C452 1.379 . S
C446 N454 1.356 . S
C447 C446 1.363 . S
C447 C453 1.363 . S
C448 C449 1.363 . S
C448 C453 1.379 1_565 S
C448 N455 1.356 . S
C449 C448 1.363 . S
C449 C452 1.363 1_565 S
N450 C452 1.356 1_566 S
N450 H462 0.984 1_565 S
N450 H463 0.985 . S
N451 C453 1.356 . S
N451 H456 0.984 . S
N451 H457 0.985 . S
C452 C446 1.379 . S
C452 C449 1.363 1_545 S
C452 N450 1.356 1_544 S
C453 C447 1.363 . S
C453 C448 1.379 1_545 S
C453 N451 1.356 . S
N454 C446 1.356 . S
N454 H460 0.984 . S
N454 H461 0.984 . S
N455 C448 1.356 . S
N455 H458 0.984 . S
N455 H459 0.985 . S
H456 N451 0.984 . S
H457 N451 0.985 . S
H458 N455 0.984 . S
H459 N455 0.985 . S
H460 N454 0.984 . S
H461 N454 0.984 . S
H462 N450 0.984 1_545 S
H463 N450 0.985 . S
C464 C465 1.363 . S
C464 C470 1.379 . S
C464 N472 1.356 . S
C465 C464 1.363 . S
C465 C471 1.363 . S
C466 C467 1.375 . S
C466 C471 1.386 . S
C466 N473 1.339 1_556 S
C467 C466 1.375 . S
C467 C470 1.363 . S
N468 C470 1.356 . S
N468 H480 0.984 . S
N468 H481 0.985 . S
N469 C471 1.367 . S
N469 H474 1.002 . S
N469 H475 0.957 1_556 S
C470 C464 1.379 . S
C470 C467 1.363 . S
C470 N468 1.356 . S
C471 C465 1.363 . S
C471 C466 1.386 . S
C471 N469 1.367 . S
N472 C464 1.356 . S
N472 H478 0.984 . S
N472 H479 0.984 . S
N473 C466 1.339 1_554 S
N473 H476 0.984 . S
N473 H477 0.985 . S
H474 N469 1.002 . S
H475 N469 0.957 1_554 S
H476 N473 0.984 . S
H477 N473 0.985 . S
H478 N472 0.984 . S
H479 N472 0.984 . S
H480 N468 0.984 . S
H481 N468 0.985 . S
C482 C483 1.363 . S
C482 C488 1.379 . S
C482 N490 1.356 . S
C483 C482 1.363 . S
C483 C489 1.363 . S
C484 C485 1.363 . S
C484 C489 1.379 . S
C484 N491 1.356 . S
C485 C484 1.363 . S
C485 C488 1.363 . S
N486 C488 1.356 . S
N486 H498 0.984 . S
N486 H499 0.985 . S
N487 C489 1.356 . S
N487 H492 0.984 . S
N487 H493 0.985 . S
C488 C482 1.379 . S
C488 C485 1.363 . S
C488 N486 1.356 . S
C489 C483 1.363 . S
C489 C484 1.379 . S
C489 N487 1.356 . S
N490 C482 1.356 . S
N490 H496 0.984 . S
N490 H497 0.984 . S
N491 C484 1.356 . S
N491 H494 0.984 . S
N491 H495 0.985 . S
H492 N487 0.984 . S
H493 N487 0.985 . S
H494 N491 0.984 . S
H495 N491 0.985 . S
H496 N490 0.984 . S
H497 N490 0.984 . S
H498 N486 0.984 . S
H499 N486 0.985 . S
C500 C501 1.363 . S
C500 C506 1.379 1_545 S
C500 N508 1.356 . S
C501 C500 1.363 . S
C501 C507 1.363 . S
C502 C503 1.363 . S
C502 C507 1.379 1_565 S
C502 N509 1.356 . S
C503 C502 1.363 . S
C503 C506 1.363 . S
N504 C506 1.356 . S
N504 H516 0.984 . S
N504 H517 0.985 . S
N505 C507 1.356 . S
N505 H510 0.984 . S
N505 H511 0.985 . S
C506 C500 1.379 1_565 S
C506 C503 1.363 . S
C506 N504 1.356 . S
C507 C501 1.363 . S
C507 C502 1.379 1_545 S
C507 N505 1.356 . S
N508 C500 1.356 . S
N508 H514 0.984 . S
N508 H515 0.984 . S
N509 C502 1.356 . S
N509 H512 0.984 . S
N509 H513 0.985 . S
H510 N505 0.984 . S
H511 N505 0.985 . S
H512 N509 0.984 . S
H513 N509 0.985 . S
H514 N508 0.984 . S
H515 N508 0.984 . S
H516 N504 0.984 . S
H517 N504 0.985 . S
C518 C519 1.363 . S
C518 C524 1.379 . S
C518 N526 1.356 . S
C519 C518 1.363 . S
C519 C525 1.363 . S
C520 C521 1.363 . S
C520 C525 1.379 . S
C520 N527 1.356 . S
C521 C520 1.363 . S
C521 C524 1.363 . S
N522 C524 1.356 . S
N522 H534 0.984 . S
N522 H535 0.985 . S
N523 C525 1.356 . S
N523 H528 0.984 . S
N523 H529 0.985 . S
C524 C518 1.379 . S
C524 C521 1.363 . S
C524 N522 1.356 . S
C525 C519 1.363 . S
C525 C520 1.379 . S
C525 N523 1.356 . S
N526 C518 1.356 . S
N526 H532 0.984 . S
N526 H533 0.984 . S
N527 C520 1.356 . S
N527 H530 0.984 . S
N527 H531 0.985 . S
H528 N523 0.984 . S
H529 N523 0.985 . S
H530 N527 0.984 . S
H531 N527 0.985 . S
H532 N526 0.984 . S
H533 N526 0.984 . S
H534 N522 0.984 . S
H535 N522 0.985 . S
C536 C537 1.363 . S
C536 C542 1.379 . S
C536 N544 1.356 . S
C537 C536 1.363 . S
C537 C543 1.363 . S
C538 C539 1.363 . S
C538 C543 1.379 . S
C538 N545 1.356 . S
C539 C538 1.363 . S
C539 C542 1.363 . S
N540 C542 1.356 . S
N540 H552 0.984 . S
N540 H553 0.985 . S
N541 C543 1.356 . S
N541 H546 0.984 . S
N541 H547 0.985 . S
C542 C536 1.379 . S
C542 C539 1.363 . S
C542 N540 1.356 . S
C543 C537 1.363 . S
C543 C538 1.379 . S
C543 N541 1.356 . S
N544 C536 1.356 . S
N544 H550 0.984 . S
N544 H551 0.984 . S
N545 C538 1.356 . S
N545 H548 0.984 . S
N545 H549 0.985 . S
H546 N541 0.984 . S
H547 N541 0.985 . S
H548 N545 0.984 . S
H549 N545 0.985 . S
H550 N544 0.984 . S
H551 N544 0.984 . S
H552 N540 0.984 . S
H553 N540 0.985 . S
C554 C555 1.363 . S
C554 C560 1.379 . S
C554 N562 1.356 . S
C555 C554 1.363 . S
C555 C561 1.363 . S
C556 C557 1.363 . S
C556 C561 1.379 . S
C556 N563 1.356 . S
C557 C556 1.363 . S
C557 C560 1.363 . S
N558 C560 1.356 . S
N558 H570 0.984 . S
N558 H571 0.985 . S
N559 C561 1.356 . S
N559 H564 0.984 . S
N559 H565 0.985 . S
C560 C554 1.379 . S
C560 C557 1.363 . S
C560 N558 1.356 . S
C561 C555 1.363 . S
C561 C556 1.379 . S
C561 N559 1.356 . S
N562 C554 1.356 . S
N562 H568 0.984 . S
N562 H569 0.984 . S
N563 C556 1.356 . S
N563 H566 0.984 . S
N563 H567 0.985 . S
H564 N559 0.984 . S
H565 N559 0.985 . S
H566 N563 0.984 . S
H567 N563 0.985 . S
H568 N562 0.984 . S
H569 N562 0.984 . S
H570 N558 0.984 . S
H571 N558 0.985 . S
C572 C573 1.363 . S
C572 C578 1.379 . S
C572 N580 1.356 . S
C573 C572 1.363 . S
C573 C579 1.363 . S
C574 C575 1.363 . S
C574 C579 1.379 . S
C574 N581 1.356 . S
C575 C574 1.363 . S
C575 C578 1.363 . S
N576 C578 1.356 . S
N576 H588 0.984 . S
N576 H589 0.985 . S
N577 C579 1.356 . S
N577 H582 0.984 . S
N577 H583 0.985 . S
C578 C572 1.379 . S
C578 C575 1.363 . S
C578 N576 1.356 . S
C579 C573 1.363 . S
C579 C574 1.379 . S
C579 N577 1.356 . S
N580 C572 1.356 . S
N580 H586 0.984 . S
N580 H587 0.984 . S
N581 C574 1.356 . S
N581 H584 0.984 . S
N581 H585 0.985 . S
H582 N577 0.984 . S
H583 N577 0.985 . S
H584 N581 0.984 . S
H585 N581 0.985 . S
H586 N580 0.984 . S
H587 N580 0.984 . S
H588 N576 0.984 . S
H589 N576 0.985 . S
C590 C591 1.363 . S
C590 C596 1.379 1_455 S
C590 N598 1.356 . S
C591 C590 1.363 . S
C591 C597 1.363 . S
C592 C593 1.363 1_455 S
C592 C597 1.379 . S
C592 N599 1.356 . S
C593 C592 1.363 1_655 S
C593 C596 1.363 . S
N594 C596 1.356 . S
N594 H606 0.984 . S
N594 H607 0.985 . S
N595 C597 1.356 . S
N595 H600 0.984 . S
N595 H601 0.985 . S
C596 C590 1.379 1_655 S
C596 C593 1.363 . S
C596 N594 1.356 . S
C597 C591 1.363 . S
C597 C592 1.379 . S
C597 N595 1.356 . S
N598 C590 1.356 . S
N598 H604 0.984 . S
N598 H605 0.984 . S
N599 C592 1.356 . S
N599 H602 0.985 1_455 S
N599 H603 0.984 . S
H600 N595 0.984 . S
H601 N595 0.985 . S
H602 N599 0.985 1_655 S
H603 N599 0.984 . S
H604 N598 0.984 . S
H605 N598 0.984 . S
H606 N594 0.984 . S
H607 N594 0.985 . S
C608 C609 1.363 . S
C608 C614 1.379 . S
C608 N616 1.356 . S
C609 C608 1.363 . S
C609 C615 1.363 . S
C610 C611 1.363 . S
C610 C615 1.379 . S
C610 N617 1.356 . S
C611 C610 1.363 . S
C611 C614 1.363 . S
N612 C614 1.356 . S
N612 H624 0.984 . S
N612 H625 0.985 . S
N613 C615 1.356 . S
N613 H618 0.984 . S
N613 H619 0.985 . S
C614 C608 1.379 . S
C614 C611 1.363 . S
C614 N612 1.356 . S
C615 C609 1.363 . S
C615 C610 1.379 . S
C615 N613 1.356 . S
N616 C608 1.356 . S
N616 H622 0.984 . S
N616 H623 0.984 . S
N617 C610 1.356 . S
N617 H620 0.984 . S
N617 H621 0.985 . S
H618 N613 0.984 . S
H619 N613 0.985 . S
H620 N617 0.984 . S
H621 N617 0.985 . S
H622 N616 0.984 . S
H623 N616 0.984 . S
H624 N612 0.984 . S
H625 N612 0.985 . S
C626 C627 1.363 . S
C626 C632 1.379 . S
C626 N634 1.356 1_655 S
C627 C626 1.363 . S
C627 C633 1.363 . S
C628 C629 1.363 . S
C628 C633 1.379 . S
C628 N635 1.356 . S
C629 C628 1.363 . S
C629 C632 1.363 . S
N630 C632 1.356 . S
N630 H642 0.984 1_655 S
N630 H643 0.985 . S
N631 C633 1.356 . S
N631 H636 0.984 . S
N631 H637 0.985 . S
C632 C626 1.379 . S
C632 C629 1.363 . S
C632 N630 1.356 . S
C633 C627 1.363 . S
C633 C628 1.379 . S
C633 N631 1.356 . S
N634 C626 1.356 1_455 S
N634 H640 0.984 . S
N634 H641 0.986 . S
N635 C628 1.356 . S
N635 H638 0.984 . S
N635 H639 0.985 . S
H636 N631 0.984 . S
H637 N631 0.985 . S
H638 N635 0.984 . S
H639 N635 0.985 . S
H640 N634 0.984 . S
H641 N634 0.986 . S
H642 N630 0.984 1_455 S
H643 N630 0.985 . S
C644 C645 1.363 1_554 S
C644 C650 1.379 . S
C644 N652 1.356 . S
C645 C644 1.363 1_556 S
C645 C651 1.363 . S
C646 C647 1.363 1_556 S
C646 C651 1.379 1_655 S
C646 N653 1.356 . S
C647 C646 1.363 1_554 S
C647 C650 1.363 1_655 S
N648 C650 1.356 . S
N648 H660 0.984 . S
N648 H661 0.985 1_455 S
N649 C651 1.356 . S
N649 H654 0.984 . S
N649 H655 0.985 . S
C650 C644 1.379 . S
C650 C647 1.363 1_455 S
C650 N648 1.356 . S
C651 C645 1.363 . S
C651 C646 1.379 1_455 S
C651 N649 1.356 . S
N652 C644 1.356 . S
N652 H658 0.984 . S
N652 H659 0.984 1_554 S
N653 C646 1.356 . S
N653 H656 0.984 . S
N653 H657 0.985 . S
H654 N649 0.984 . S
H655 N649 0.985 . S
H656 N653 0.984 . S
H657 N653 0.985 . S
H658 N652 0.984 . S
H659 N652 0.984 1_556 S
H660 N648 0.984 . S
H661 N648 0.985 1_655 S
C662 C663 1.363 . S
C662 C668 1.379 . S
C662 N670 1.356 . S
C663 C662 1.363 . S
C663 C669 1.363 . S
C664 C665 1.363 . S
C664 C669 1.379 . S
C664 N671 1.356 . S
C665 C664 1.363 . S
C665 C668 1.363 . S
N666 C668 1.356 . S
N666 H678 0.984 . S
N666 H679 0.985 . S
N667 C669 1.356 . S
N667 H672 0.984 . S
N667 H673 0.985 . S
C668 C662 1.379 . S
C668 C665 1.363 . S
C668 N666 1.356 . S
C669 C663 1.363 . S
C669 C664 1.379 . S
C669 N667 1.356 . S
N670 C662 1.356 . S
N670 H676 0.984 . S
N670 H677 0.984 . S
N671 C664 1.356 . S
N671 H674 0.984 . S
N671 H675 0.985 . S
H672 N667 0.984 . S
H673 N667 0.985 . S
H674 N671 0.984 . S
H675 N671 0.985 . S
H676 N670 0.984 . S
H677 N670 0.984 . S
H678 N666 0.984 . S
H679 N666 0.985 . S
C680 C681 1.363 . S
C680 C686 1.379 . S
C680 N688 1.356 1_565 S
C681 C680 1.363 . S
C681 C687 1.363 . S
C682 C683 1.363 . S
C682 C687 1.379 . S
C682 N689 1.356 . S
C683 C682 1.363 . S
C683 C686 1.363 . S
N684 C686 1.356 . S
N684 H696 0.984 . S
N684 H697 0.985 . S
N685 C687 1.356 . S
N685 H690 0.984 . S
N685 H691 0.985 . S
C686 C680 1.379 . S
C686 C683 1.363 . S
C686 N684 1.356 . S
C687 C681 1.363 . S
C687 C682 1.379 . S
C687 N685 1.356 . S
N688 C680 1.356 1_545 S
N688 H694 0.984 . S
N688 H695 0.984 . S
N689 C682 1.356 . S
N689 H692 0.984 . S
N689 H693 0.985 . S
H690 N685 0.984 . S
H691 N685 0.985 . S
H692 N689 0.984 . S
H693 N689 0.985 . S
H694 N688 0.984 . S
H695 N688 0.984 . S
H696 N684 0.984 . S
H697 N684 0.985 . S
C698 C699 1.363 . S
C698 C704 1.379 . S
C698 N706 1.356 . S
C699 C698 1.363 . S
C699 C705 1.363 . S
C700 C701 1.363 . S
C700 C705 1.379 . S
C700 N707 1.356 . S
C701 C700 1.363 . S
C701 C704 1.363 . S
N702 C704 1.356 . S
N702 H714 0.984 . S
N702 H715 0.985 . S
N703 C705 1.356 . S
N703 H708 0.984 . S
N703 H709 0.985 . S
C704 C698 1.379 . S
C704 C701 1.363 . S
C704 N702 1.356 . S
C705 C699 1.363 . S
C705 C700 1.379 . S
C705 N703 1.356 . S
N706 C698 1.356 . S
N706 H712 0.984 . S
N706 H713 0.984 . S
N707 C700 1.356 . S
N707 H710 0.984 . S
N707 H711 0.985 . S
H708 N703 0.984 . S
H709 N703 0.985 . S
H710 N707 0.984 . S
H711 N707 0.985 . S
H712 N706 0.984 . S
H713 N706 0.984 . S
H714 N702 0.984 . S
H715 N702 0.985 . S
C716 C717 1.363 . S
C716 C722 1.379 . S
C716 N724 1.356 . S
C717 C716 1.363 . S
C717 C723 1.363 . S
C718 C719 1.363 . S
C718 C723 1.379 . S
C718 N725 1.356 . S
C719 C718 1.363 . S
C719 C722 1.363 . S
N720 C722 1.356 . S
N720 H732 0.984 . S
N720 H733 0.985 . S
N721 C723 1.356 . S
N721 H726 0.984 . S
N721 H727 0.985 . S
C722 C716 1.379 . S
C722 C719 1.363 . S
C722 N720 1.356 . S
C723 C717 1.363 . S
C723 C718 1.379 . S
C723 N721 1.356 . S
N724 C716 1.356 . S
N724 H730 0.984 . S
N724 H731 0.984 . S
N725 C718 1.356 . S
N725 H728 0.984 . S
N725 H729 0.985 . S
H726 N721 0.984 . S
H727 N721 0.985 . S
H728 N725 0.984 . S
H729 N725 0.985 . S
H730 N724 0.984 . S
H731 N724 0.984 . S
H732 N720 0.984 . S
H733 N720 0.985 . S
C734 C735 1.363 . S
C734 C740 1.379 . S
C734 N742 1.356 . S
C735 C734 1.363 . S
C735 C741 1.363 . S
C736 C737 1.363 . S
C736 C741 1.379 . S
C736 N743 1.356 . S
C737 C736 1.363 . S
C737 C740 1.363 . S
N738 C740 1.356 1_565 S
N738 H750 0.984 . S
N738 H751 0.985 . S
N739 C741 1.356 . S
N739 H744 0.984 . S
N739 H745 0.985 . S
C740 C734 1.379 . S
C740 C737 1.363 . S
C740 N738 1.356 1_545 S
C741 C735 1.363 . S
C741 C736 1.379 . S
C741 N739 1.356 . S
N742 C734 1.356 . S
N742 H748 0.984 . S
N742 H749 0.984 . S
N743 C736 1.356 . S
N743 H746 0.984 . S
N743 H747 0.985 . S
H744 N739 0.984 . S
H745 N739 0.985 . S
H746 N743 0.984 . S
H747 N743 0.985 . S
H748 N742 0.984 . S
H749 N742 0.984 . S
H750 N738 0.984 . S
H751 N738 0.985 . S
C752 C753 1.363 . S
C752 C758 1.379 . S
C752 N760 1.356 . S
C753 C752 1.363 . S
C753 C759 1.363 . S
C754 C755 1.363 . S
C754 C759 1.379 . S
C754 N761 1.356 . S
C755 C754 1.363 . S
C755 C758 1.363 . S
N756 C758 1.356 . S
N756 H768 0.984 . S
N756 H769 0.985 . S
N757 C759 1.356 . S
N757 H762 0.984 . S
N757 H763 0.985 . S
C758 C752 1.379 . S
C758 C755 1.363 . S
C758 N756 1.356 . S
C759 C753 1.363 . S
C759 C754 1.379 . S
C759 N757 1.356 . S
N760 C752 1.356 . S
N760 H766 0.984 . S
N760 H767 0.984 . S
N761 C754 1.356 . S
N761 H764 0.984 . S
N761 H765 0.985 . S
H762 N757 0.984 . S
H763 N757 0.985 . S
H764 N761 0.984 . S
H765 N761 0.985 . S
H766 N760 0.984 . S
H767 N760 0.984 . S
H768 N756 0.984 . S
H769 N756 0.985 . S
C770 C771 1.363 . S
C770 C776 1.379 . S
C770 N778 1.356 . S
C771 C770 1.363 . S
C771 C777 1.363 . S
C772 C773 1.363 . S
C772 C777 1.379 . S
C772 N779 1.356 . S
C773 C772 1.363 . S
C773 C776 1.363 . S
N774 C776 1.356 . S
N774 H786 0.984 . S
N774 H787 0.985 . S
N775 C777 1.356 . S
N775 H780 0.984 . S
N775 H781 0.985 . S
C776 C770 1.379 . S
C776 C773 1.363 . S
C776 N774 1.356 . S
C777 C771 1.363 . S
C777 C772 1.379 . S
C777 N775 1.356 . S
N778 C770 1.356 . S
N778 H784 0.984 . S
N778 H785 0.984 . S
N779 C772 1.356 . S
N779 H782 0.984 . S
N779 H783 0.985 . S
H780 N775 0.984 . S
H781 N775 0.985 . S
H782 N779 0.984 . S
H783 N779 0.985 . S
H784 N778 0.984 . S
H785 N778 0.984 . S
H786 N774 0.984 . S
H787 N774 0.985 . S
C788 C789 1.363 . S
C788 C794 1.379 . S
C788 N796 1.356 . S
C789 C788 1.363 . S
C789 C795 1.363 . S
C790 C791 1.363 . S
C790 C795 1.379 . S
C790 N797 1.356 . S
C791 C790 1.363 . S
C791 C794 1.363 . S
N792 C794 1.356 1_565 S
N792 H804 0.984 . S
N792 H805 0.985 . S
N793 C795 1.356 . S
N793 H798 0.984 . S
N793 H799 0.985 . S
C794 C788 1.379 . S
C794 C791 1.363 . S
C794 N792 1.356 1_545 S
C795 C789 1.363 . S
C795 C790 1.379 . S
C795 N793 1.356 . S
N796 C788 1.356 . S
N796 H802 0.984 . S
N796 H803 0.984 . S
N797 C790 1.356 . S
N797 H800 0.984 . S
N797 H801 0.985 . S
H798 N793 0.984 . S
H799 N793 0.985 . S
H800 N797 0.984 . S
H801 N797 0.985 . S
H802 N796 0.984 . S
H803 N796 0.984 . S
H804 N792 0.984 . S
H805 N792 0.985 . S
C806 C807 1.363 . S
C806 C812 1.379 . S
C806 N814 1.356 . S
C807 C806 1.363 . S
C807 C813 1.363 . S
C808 C809 1.363 . S
C808 C813 1.379 . S
C808 N815 1.356 . S
C809 C808 1.363 . S
C809 C812 1.363 . S
N810 C812 1.356 . S
N810 H822 0.984 . S
N810 H823 0.985 . S
N811 C813 1.356 . S
N811 H816 0.984 . S
N811 H817 0.985 1_565 S
C812 C806 1.379 . S
C812 C809 1.363 . S
C812 N810 1.356 . S
C813 C807 1.363 . S
C813 C808 1.379 . S
C813 N811 1.356 . S
N814 C806 1.356 . S
N814 H820 0.984 . S
N814 H821 0.984 . S
N815 C808 1.356 . S
N815 H818 0.984 . S
N815 H819 0.985 1_565 S
H816 N811 0.984 . S
H817 N811 0.985 1_545 S
H818 N815 0.984 . S
H819 N815 0.985 1_545 S
H820 N814 0.984 . S
H821 N814 0.984 . S
H822 N810 0.984 . S
H823 N810 0.985 . S
C824 C825 1.363 . S
C824 C830 1.379 . S
C824 N832 1.356 . S
C825 C824 1.363 . S
C825 C831 1.363 . S
C826 C827 1.363 . S
C826 C831 1.379 . S
C826 N833 1.356 . S
C827 C826 1.363 . S
C827 C830 1.363 . S
N828 C830 1.356 . S
N828 H840 0.984 . S
N828 H841 0.985 . S
N829 C831 1.356 . S
N829 H834 0.984 . S
N829 H835 0.985 . S
C830 C824 1.379 . S
C830 C827 1.363 . S
C830 N828 1.356 . S
C831 C825 1.363 . S
C831 C826 1.379 . S
C831 N829 1.356 . S
N832 C824 1.356 . S
N832 H838 0.984 . S
N832 H839 0.984 . S
N833 C826 1.356 . S
N833 H836 0.984 . S
N833 H837 0.985 . S
H834 N829 0.984 . S
H835 N829 0.985 . S
H836 N833 0.984 . S
H837 N833 0.985 . S
H838 N832 0.984 . S
H839 N832 0.984 . S
H840 N828 0.984 . S
H841 N828 0.985 . S
C842 C843 1.363 . S
C842 C848 1.379 . S
C842 N850 1.356 . S
C843 C842 1.363 . S
C843 C849 1.363 . S
C844 C845 1.363 . S
C844 C849 1.379 . S
C844 N851 1.356 . S
C845 C844 1.363 . S
C845 C848 1.363 . S
N846 C848 1.356 . S
N846 H858 0.984 . S
N846 H859 0.985 . S
N847 C849 1.356 . S
N847 H852 0.984 . S
N847 H853 0.985 . S
C848 C842 1.379 . S
C848 C845 1.363 . S
C848 N846 1.356 . S
C849 C843 1.363 . S
C849 C844 1.379 . S
C849 N847 1.356 . S
N850 C842 1.356 . S
N850 H856 0.984 . S
N850 H857 0.984 . S
N851 C844 1.356 . S
N851 H854 0.984 . S
N851 H855 0.985 . S
H852 N847 0.984 . S
H853 N847 0.985 . S
H854 N851 0.984 . S
H855 N851 0.985 . S
H856 N850 0.984 . S
H857 N850 0.984 . S
H858 N846 0.984 . S
H859 N846 0.985 . S
C860 C861 1.363 . S
C860 C866 1.379 . S
C860 N868 1.356 . S
C861 C860 1.363 . S
C861 C867 1.363 . S
C862 C863 1.363 . S
C862 C867 1.379 . S
C862 N869 1.356 . S
C863 C862 1.363 . S
C863 C866 1.363 . S
N864 C866 1.356 . S
N864 H876 0.984 . S
N864 H877 0.985 . S
N865 C867 1.356 . S
N865 H870 0.993 . S
N865 H871 0.985 1_545 S
C866 C860 1.379 . S
C866 C863 1.363 . S
C866 N864 1.356 . S
C867 C861 1.363 . S
C867 C862 1.379 . S
C867 N865 1.356 . S
N868 C860 1.356 . S
N868 H874 0.984 . S
N868 H875 0.984 . S
N869 C862 1.356 . S
N869 H872 0.984 . S
N869 H873 0.985 . S
H870 N865 0.993 . S
H871 N865 0.985 1_565 S
H872 N869 0.984 . S
H873 N869 0.985 . S
H874 N868 0.984 . S
H875 N868 0.984 . S
H876 N864 0.984 . S
H877 N864 0.985 . S
C878 C879 1.363 . S
C878 C884 1.379 . S
C878 N886 1.356 . S
C879 C878 1.363 . S
C879 C885 1.363 . S
C880 C881 1.363 . S
C880 C885 1.379 . S
C880 N887 1.356 1_455 S
C881 C880 1.363 . S
C881 C884 1.363 . S
N882 C884 1.356 . S
N882 H894 0.984 . S
N882 H895 0.985 . S
N883 C885 1.356 . S
N883 H888 0.984 . S
N883 H889 0.985 . S
C884 C878 1.379 . S
C884 C881 1.363 . S
C884 N882 1.356 . S
C885 C879 1.363 . S
C885 C880 1.379 . S
C885 N883 1.356 . S
N886 C878 1.356 . S
N886 H892 0.984 . S
N886 H893 0.984 . S
N887 C880 1.356 1_655 S
N887 H890 0.984 . S
N887 H891 0.985 . S
H888 N883 0.984 . S
H889 N883 0.985 . S
H890 N887 0.984 . S
H891 N887 0.985 . S
H892 N886 0.984 . S
H893 N886 0.984 . S
H894 N882 0.984 . S
H895 N882 0.985 . S
C896 C897 1.363 . S
C896 C902 1.379 . S
C896 N904 1.356 . S
C897 C896 1.363 . S
C897 C903 1.363 . S
C898 C899 1.363 . S
C898 C903 1.379 . S
C898 N905 1.356 . S
C899 C898 1.363 . S
C899 C902 1.363 . S
N900 C902 1.356 . S
N900 H912 0.984 . S
N900 H913 0.985 . S
N901 C903 1.356 . S
N901 H906 0.984 . S
N901 H907 0.985 . S
C902 C896 1.379 . S
C902 C899 1.363 . S
C902 N900 1.356 . S
C903 C897 1.363 . S
C903 C898 1.379 . S
C903 N901 1.356 . S
N904 C896 1.356 . S
N904 H910 0.984 . S
N904 H911 0.984 . S
N905 C898 1.356 . S
N905 H908 0.984 . S
N905 H909 0.985 . S
H906 N901 0.984 . S
H907 N901 0.985 . S
H908 N905 0.984 . S
H909 N905 0.985 . S
H910 N904 0.984 . S
H911 N904 0.984 . S
H912 N900 0.984 . S
H913 N900 0.985 . S
C914 C915 1.363 . S
C914 C920 1.379 . S
C914 N922 1.356 . S
C915 C914 1.363 . S
C915 C921 1.363 . S
C916 C917 1.363 . S
C916 C921 1.379 . S
C916 N923 1.356 . S
C917 C916 1.363 . S
C917 C920 1.363 . S
N918 C920 1.356 . S
N918 H930 0.984 . S
N918 H931 0.985 . S
N919 C921 1.356 . S
N919 H924 0.984 . S
N919 H925 0.985 . S
C920 C914 1.379 . S
C920 C917 1.363 . S
C920 N918 1.356 . S
C921 C915 1.363 . S
C921 C916 1.379 . S
C921 N919 1.356 . S
N922 C914 1.356 . S
N922 H928 0.984 . S
N922 H929 0.984 . S
N923 C916 1.356 . S
N923 H926 0.984 . S
N923 H927 0.985 . S
H924 N919 0.984 . S
H925 N919 0.985 . S
H926 N923 0.984 . S
H927 N923 0.985 . S
H928 N922 0.984 . S
H929 N922 0.984 . S
H930 N918 0.984 . S
H931 N918 0.985 . S
C932 C933 1.363 . S
C932 C938 1.379 . S
C932 N940 1.356 . S
C933 C932 1.363 . S
C933 C939 1.363 . S
C934 C935 1.363 . S
C934 C939 1.379 . S
C934 N941 1.356 . S
C935 C934 1.363 . S
C935 C938 1.363 . S
N936 C938 1.356 . S
N936 H948 0.984 1_455 S
N936 H949 0.985 1_455 S
N937 C939 1.356 . S
N937 H942 0.984 . S
N937 H943 0.985 . S
C938 C932 1.379 . S
C938 C935 1.363 . S
C938 N936 1.356 . S
C939 C933 1.363 . S
C939 C934 1.379 . S
C939 N937 1.356 . S
N940 C932 1.356 . S
N940 H946 0.984 . S
N940 H947 0.984 . S
N941 C934 1.356 . S
N941 H944 0.984 . S
N941 H945 0.985 . S
H942 N937 0.984 . S
H943 N937 0.985 . S
H944 N941 0.984 . S
H945 N941 0.985 . S
H946 N940 0.984 . S
H947 N940 0.984 . S
H948 N936 0.984 1_655 S
H949 N936 0.985 1_655 S
C950 C951 1.363 . S
C950 C956 1.379 . S
C950 N958 1.356 . S
C951 C950 1.363 . S
C951 C957 1.363 . S
C952 C953 1.363 . S
C952 C957 1.379 . S
C952 N959 1.356 . S
C953 C952 1.363 . S
C953 C956 1.363 . S
N954 C956 1.356 . S
N954 H966 0.984 . S
N954 H967 0.985 . S
N955 C957 1.356 . S
N955 H960 0.984 . S
N955 H961 0.985 . S
C956 C950 1.379 . S
C956 C953 1.363 . S
C956 N954 1.356 . S
C957 C951 1.363 . S
C957 C952 1.379 . S
C957 N955 1.356 . S
N958 C950 1.356 . S
N958 H964 0.984 . S
N958 H965 0.984 . S
N959 C952 1.356 . S
N959 H962 0.984 . S
N959 H963 0.985 . S
H960 N955 0.984 . S
H961 N955 0.985 . S
H962 N959 0.984 . S
H963 N959 0.985 . S
H964 N958 0.984 . S
H965 N958 0.984 . S
H966 N954 0.984 . S
H967 N954 0.985 . S
C395 C143 1.396 . S
C393 C5 1.397 . S
C413 C180 1.389 . S
C411 C18 1.405 . S
C431 C216 1.396 . S
C429 C31 1.406 . S
C447 C42 1.331 . S
C449 C107 1.403 . S
C465 C57 1.501 . S
C467 C108 1.509 . S
C483 C70 1.498 . S
C485 C144 1.502 . S
C503 C179 1.533 . S
C501 C81 1.544 . S
C521 C215 1.538 . S
C519 C96 1.490 . S
C537 C29 1.544 . S
C539 C287 1.533 . S
C557 C324 1.502 . S
C555 C44 1.498 . S
C573 C3 1.557 . S
C575 C360 1.508 . S
C593 C251 1.538 . S
C591 C16 1.546 . S
C609 C83 1.406 . S
C611 C252 1.396 . S
C627 C94 1.340 . S
C629 C288 1.389 . S
C647 C323 1.396 . S
C645 C55 1.331 . S
C663 C68 1.330 . S
C665 C359 1.403 . S
C683 C178 1.406 . S
C681 C1 1.413 . S
C701 C214 1.393 . S
C699 C14 1.399 . S
C717 C27 1.381 . S
C719 C118 1.246 . S
C735 C49 1.393 . S
C737 C154 1.256 . S
C753 C53 1.604 . S
C755 C226 1.525 . S
C773 C106 1.741 . S
C771 C66 1.631 . S
C791 C142 1.751 1_545 S
C789 C88 1.741 . S
C809 C190 1.533 . S
C807 C92 1.614 . S
C827 C322 1.751 . S
C825 C36 1.740 . S
C845 C358 1.742 . S
C843 C40 1.631 . S
C861 C10 1.701 . S
C863 C262 1.525 . S
C881 C298 1.533 1_455 S
C879 C23 1.712 . S
C899 C370 1.246 . S
C897 C79 1.380 . S
C915 C101 1.396 . S
C917 C250 1.393 . S
C935 C286 1.406 1_455 S
C933 C62 1.410 . S
C953 C334 1.256 . S
C951 C75 1.393 . S
