# Generated by pormake.
# Topology iac, (4,6)-cn, num edge types: 1
# Building blocks:
#     Node 0, Type 0, BuildingBlock: QUQFOY_clean_sbu_1, # of connection points: 4
#     Node 1, Type 0, BuildingBlock: QUQFOY_clean_sbu_1, # of connection points: 4
#     Node 2, Type 0, BuildingBlock: QUQFOY_clean_sbu_1, # of connection points: 4
#     Node 3, Type 0, BuildingBlock: QUQFOY_clean_sbu_1, # of connection points: 4
#     Node 4, Type 0, BuildingBlock: QUQFOY_clean_sbu_1, # of connection points: 4
#     Node 5, Type 0, BuildingBlock: QUQFOY_clean_sbu_1, # of connection points: 4
#     Node 6, Type 0, BuildingBlock: QUQFOY_clean_sbu_1, # of connection points: 4
#     Node 7, Type 0, BuildingBlock: QUQFOY_clean_sbu_1, # of connection points: 4
#     Node 8, Type 0, BuildingBlock: QUQFOY_clean_sbu_1, # of connection points: 4
#     Node 9, Type 0, BuildingBlock: QUQFOY_clean_sbu_1, # of connection points: 4
#     Node 10, Type 0, BuildingBlock: QUQFOY_clean_sbu_1, # of connection points: 4
#     Node 11, Type 0, BuildingBlock: QUQFOY_clean_sbu_1, # of connection points: 4
#     Node 12, Type 0, BuildingBlock: QUQFOY_clean_sbu_1, # of connection points: 4
#     Node 13, Type 0, BuildingBlock: QUQFOY_clean_sbu_1, # of connection points: 4
#     Node 14, Type 0, BuildingBlock: QUQFOY_clean_sbu_1, # of connection points: 4
#     Node 15, Type 0, BuildingBlock: QUQFOY_clean_sbu_1, # of connection points: 4
#     Node 16, Type 0, BuildingBlock: QUQFOY_clean_sbu_1, # of connection points: 4
#     Node 17, Type 0, BuildingBlock: QUQFOY_clean_sbu_1, # of connection points: 4
#     Node 18, Type 0, BuildingBlock: QUQFOY_clean_sbu_1, # of connection points: 4
#     Node 19, Type 0, BuildingBlock: QUQFOY_clean_sbu_1, # of connection points: 4
#     Node 20, Type 0, BuildingBlock: QUQFOY_clean_sbu_1, # of connection points: 4
#     Node 21, Type 0, BuildingBlock: QUQFOY_clean_sbu_1, # of connection points: 4
#     Node 22, Type 0, BuildingBlock: QUQFOY_clean_sbu_1, # of connection points: 4
#     Node 23, Type 0, BuildingBlock: QUQFOY_clean_sbu_1, # of connection points: 4
#     Node 24, Type 1, BuildingBlock: JUFBIX_clean_sbu_0, # of connection points: 6
#     Node 25, Type 1, BuildingBlock: JUFBIX_clean_sbu_0, # of connection points: 6
#     Node 26, Type 1, BuildingBlock: JUFBIX_clean_sbu_0, # of connection points: 6
#     Node 27, Type 1, BuildingBlock: JUFBIX_clean_sbu_0, # of connection points: 6
#     Node 28, Type 1, BuildingBlock: JUFBIX_clean_sbu_0, # of connection points: 6
#     Node 29, Type 1, BuildingBlock: JUFBIX_clean_sbu_0, # of connection points: 6
#     Node 30, Type 1, BuildingBlock: JUFBIX_clean_sbu_0, # of connection points: 6
#     Node 31, Type 1, BuildingBlock: JUFBIX_clean_sbu_0, # of connection points: 6
#     Node 32, Type 1, BuildingBlock: JUFBIX_clean_sbu_0, # of connection points: 6
#     Node 33, Type 1, BuildingBlock: JUFBIX_clean_sbu_0, # of connection points: 6
#     Node 34, Type 1, BuildingBlock: JUFBIX_clean_sbu_0, # of connection points: 6
#     Node 35, Type 1, BuildingBlock: JUFBIX_clean_sbu_0, # of connection points: 6
#     Node 36, Type 1, BuildingBlock: JUFBIX_clean_sbu_0, # of connection points: 6
#     Node 37, Type 1, BuildingBlock: JUFBIX_clean_sbu_0, # of connection points: 6
#     Node 38, Type 1, BuildingBlock: JUFBIX_clean_sbu_0, # of connection points: 6
#     Node 39, Type 1, BuildingBlock: JUFBIX_clean_sbu_0, # of connection points: 6
#     Edge 40, Type (0, 1), BuildingBlock: KIFKEQ_clean_linker_1, # of connection points: 2
#     Edge 41, Type (0, 1), BuildingBlock: KIFKEQ_clean_linker_1, # of connection points: 2
#     Edge 42, Type (0, 1), BuildingBlock: KIFKEQ_clean_linker_1, # of connection points: 2
#     Edge 43, Type (0, 1), BuildingBlock: KIFKEQ_clean_linker_1, # of connection points: 2
#     Edge 44, Type (0, 1), BuildingBlock: KIFKEQ_clean_linker_1, # of connection points: 2
#     Edge 45, Type (0, 1), BuildingBlock: KIFKEQ_clean_linker_1, # of connection points: 2
#     Edge 46, Type (0, 1), BuildingBlock: KIFKEQ_clean_linker_1, # of connection points: 2
#     Edge 47, Type (0, 1), BuildingBlock: KIFKEQ_clean_linker_1, # of connection points: 2
#     Edge 48, Type (0, 1), BuildingBlock: KIFKEQ_clean_linker_1, # of connection points: 2
#     Edge 49, Type (0, 1), BuildingBlock: KIFKEQ_clean_linker_1, # of connection points: 2
#     Edge 50, Type (0, 1), BuildingBlock: KIFKEQ_clean_linker_1, # of connection points: 2
#     Edge 51, Type (0, 1), BuildingBlock: KIFKEQ_clean_linker_1, # of connection points: 2
#     Edge 52, Type (0, 1), BuildingBlock: KIFKEQ_clean_linker_1, # of connection points: 2
#     Edge 53, Type (0, 1), BuildingBlock: KIFKEQ_clean_linker_1, # of connection points: 2
#     Edge 54, Type (0, 1), BuildingBlock: KIFKEQ_clean_linker_1, # of connection points: 2
#     Edge 55, Type (0, 1), BuildingBlock: KIFKEQ_clean_linker_1, # of connection points: 2
#     Edge 56, Type (0, 1), BuildingBlock: KIFKEQ_clean_linker_1, # of connection points: 2
#     Edge 57, Type (0, 1), BuildingBlock: KIFKEQ_clean_linker_1, # of connection points: 2
#     Edge 58, Type (0, 1), BuildingBlock: KIFKEQ_clean_linker_1, # of connection points: 2
#     Edge 59, Type (0, 1), BuildingBlock: KIFKEQ_clean_linker_1, # of connection points: 2
#     Edge 60, Type (0, 1), BuildingBlock: KIFKEQ_clean_linker_1, # of connection points: 2
#     Edge 61, Type (0, 1), BuildingBlock: KIFKEQ_clean_linker_1, # of connection points: 2
#     Edge 62, Type (0, 1), BuildingBlock: KIFKEQ_clean_linker_1, # of connection points: 2
#     Edge 63, Type (0, 1), BuildingBlock: KIFKEQ_clean_linker_1, # of connection points: 2
#     Edge 64, Type (0, 1), BuildingBlock: KIFKEQ_clean_linker_1, # of connection points: 2
#     Edge 65, Type (0, 1), BuildingBlock: KIFKEQ_clean_linker_1, # of connection points: 2
#     Edge 66, Type (0, 1), BuildingBlock: KIFKEQ_clean_linker_1, # of connection points: 2
#     Edge 67, Type (0, 1), BuildingBlock: KIFKEQ_clean_linker_1, # of connection points: 2
#     Edge 68, Type (0, 1), BuildingBlock: KIFKEQ_clean_linker_1, # of connection points: 2
#     Edge 69, Type (0, 1), BuildingBlock: KIFKEQ_clean_linker_1, # of connection points: 2
#     Edge 70, Type (0, 1), BuildingBlock: KIFKEQ_clean_linker_1, # of connection points: 2
#     Edge 71, Type (0, 1), BuildingBlock: KIFKEQ_clean_linker_1, # of connection points: 2
#     Edge 72, Type (0, 1), BuildingBlock: KIFKEQ_clean_linker_1, # of connection points: 2
#     Edge 73, Type (0, 1), BuildingBlock: KIFKEQ_clean_linker_1, # of connection points: 2
#     Edge 74, Type (0, 1), BuildingBlock: KIFKEQ_clean_linker_1, # of connection points: 2
#     Edge 75, Type (0, 1), BuildingBlock: KIFKEQ_clean_linker_1, # of connection points: 2
#     Edge 76, Type (0, 1), BuildingBlock: KIFKEQ_clean_linker_1, # of connection points: 2
#     Edge 77, Type (0, 1), BuildingBlock: KIFKEQ_clean_linker_1, # of connection points: 2
#     Edge 78, Type (0, 1), BuildingBlock: KIFKEQ_clean_linker_1, # of connection points: 2
#     Edge 79, Type (0, 1), BuildingBlock: KIFKEQ_clean_linker_1, # of connection points: 2
#     Edge 80, Type (0, 1), BuildingBlock: KIFKEQ_clean_linker_1, # of connection points: 2
#     Edge 81, Type (0, 1), BuildingBlock: KIFKEQ_clean_linker_1, # of connection points: 2
#     Edge 82, Type (0, 1), BuildingBlock: KIFKEQ_clean_linker_1, # of connection points: 2
#     Edge 83, Type (0, 1), BuildingBlock: KIFKEQ_clean_linker_1, # of connection points: 2
#     Edge 84, Type (0, 1), BuildingBlock: KIFKEQ_clean_linker_1, # of connection points: 2
#     Edge 85, Type (0, 1), BuildingBlock: KIFKEQ_clean_linker_1, # of connection points: 2
#     Edge 86, Type (0, 1), BuildingBlock: KIFKEQ_clean_linker_1, # of connection points: 2
#     Edge 87, Type (0, 1), BuildingBlock: KIFKEQ_clean_linker_1, # of connection points: 2
#     Edge 88, Type (0, 1), BuildingBlock: KIFKEQ_clean_linker_1, # of connection points: 2
#     Edge 89, Type (0, 1), BuildingBlock: KIFKEQ_clean_linker_1, # of connection points: 2
#     Edge 90, Type (0, 1), BuildingBlock: KIFKEQ_clean_linker_1, # of connection points: 2
#     Edge 91, Type (0, 1), BuildingBlock: KIFKEQ_clean_linker_1, # of connection points: 2
#     Edge 92, Type (0, 1), BuildingBlock: KIFKEQ_clean_linker_1, # of connection points: 2
#     Edge 93, Type (0, 1), BuildingBlock: KIFKEQ_clean_linker_1, # of connection points: 2
#     Edge 94, Type (0, 1), BuildingBlock: KIFKEQ_clean_linker_1, # of connection points: 2
#     Edge 95, Type (0, 1), BuildingBlock: KIFKEQ_clean_linker_1, # of connection points: 2
#     Edge 96, Type (0, 1), BuildingBlock: KIFKEQ_clean_linker_1, # of connection points: 2
#     Edge 97, Type (0, 1), BuildingBlock: KIFKEQ_clean_linker_1, # of connection points: 2
#     Edge 98, Type (0, 1), BuildingBlock: KIFKEQ_clean_linker_1, # of connection points: 2
#     Edge 99, Type (0, 1), BuildingBlock: KIFKEQ_clean_linker_1, # of connection points: 2
#     Edge 100, Type (0, 1), BuildingBlock: KIFKEQ_clean_linker_1, # of connection points: 2
#     Edge 101, Type (0, 1), BuildingBlock: KIFKEQ_clean_linker_1, # of connection points: 2
#     Edge 102, Type (0, 1), BuildingBlock: KIFKEQ_clean_linker_1, # of connection points: 2
#     Edge 103, Type (0, 1), BuildingBlock: KIFKEQ_clean_linker_1, # of connection points: 2
#     Edge 104, Type (0, 1), BuildingBlock: KIFKEQ_clean_linker_1, # of connection points: 2
#     Edge 105, Type (0, 1), BuildingBlock: KIFKEQ_clean_linker_1, # of connection points: 2
#     Edge 106, Type (0, 1), BuildingBlock: KIFKEQ_clean_linker_1, # of connection points: 2
#     Edge 107, Type (0, 1), BuildingBlock: KIFKEQ_clean_linker_1, # of connection points: 2
#     Edge 108, Type (0, 1), BuildingBlock: KIFKEQ_clean_linker_1, # of connection points: 2
#     Edge 109, Type (0, 1), BuildingBlock: KIFKEQ_clean_linker_1, # of connection points: 2
#     Edge 110, Type (0, 1), BuildingBlock: KIFKEQ_clean_linker_1, # of connection points: 2
#     Edge 111, Type (0, 1), BuildingBlock: KIFKEQ_clean_linker_1, # of connection points: 2
#     Edge 112, Type (0, 1), BuildingBlock: KIFKEQ_clean_linker_1, # of connection points: 2
#     Edge 113, Type (0, 1), BuildingBlock: KIFKEQ_clean_linker_1, # of connection points: 2
#     Edge 114, Type (0, 1), BuildingBlock: KIFKEQ_clean_linker_1, # of connection points: 2
#     Edge 115, Type (0, 1), BuildingBlock: KIFKEQ_clean_linker_1, # of connection points: 2
#     Edge 116, Type (0, 1), BuildingBlock: KIFKEQ_clean_linker_1, # of connection points: 2
#     Edge 117, Type (0, 1), BuildingBlock: KIFKEQ_clean_linker_1, # of connection points: 2
#     Edge 118, Type (0, 1), BuildingBlock: KIFKEQ_clean_linker_1, # of connection points: 2
#     Edge 119, Type (0, 1), BuildingBlock: KIFKEQ_clean_linker_1, # of connection points: 2
#     Edge 120, Type (0, 1), BuildingBlock: KIFKEQ_clean_linker_1, # of connection points: 2
#     Edge 121, Type (0, 1), BuildingBlock: KIFKEQ_clean_linker_1, # of connection points: 2
#     Edge 122, Type (0, 1), BuildingBlock: KIFKEQ_clean_linker_1, # of connection points: 2
#     Edge 123, Type (0, 1), BuildingBlock: KIFKEQ_clean_linker_1, # of connection points: 2
#     Edge 124, Type (0, 1), BuildingBlock: KIFKEQ_clean_linker_1, # of connection points: 2
#     Edge 125, Type (0, 1), BuildingBlock: KIFKEQ_clean_linker_1, # of connection points: 2
#     Edge 126, Type (0, 1), BuildingBlock: KIFKEQ_clean_linker_1, # of connection points: 2
#     Edge 127, Type (0, 1), BuildingBlock: KIFKEQ_clean_linker_1, # of connection points: 2
#     Edge 128, Type (0, 1), BuildingBlock: KIFKEQ_clean_linker_1, # of connection points: 2
#     Edge 129, Type (0, 1), BuildingBlock: KIFKEQ_clean_linker_1, # of connection points: 2
#     Edge 130, Type (0, 1), BuildingBlock: KIFKEQ_clean_linker_1, # of connection points: 2
#     Edge 131, Type (0, 1), BuildingBlock: KIFKEQ_clean_linker_1, # of connection points: 2
#     Edge 132, Type (0, 1), BuildingBlock: KIFKEQ_clean_linker_1, # of connection points: 2
#     Edge 133, Type (0, 1), BuildingBlock: KIFKEQ_clean_linker_1, # of connection points: 2
#     Edge 134, Type (0, 1), BuildingBlock: KIFKEQ_clean_linker_1, # of connection points: 2
#     Edge 135, Type (0, 1), BuildingBlock: KIFKEQ_clean_linker_1, # of connection points: 2
# Relax obj value: 0.249
# Max RMSD: 0.248
# Mean RMSD: 0.172
data_MOF--net-iac--node1-QUQFOY_clean_sbu_1--node2-JUFBIX_clean_sbu_0--edge1-KIFKEQ_clean_linker_1
_symmetry_space_group_name_H-M    P1
_symmetry_Int_Tables_number       1
_symmetry_cell_setting            triclinic
loop_
_symmetry_equiv_pos_as_xyz
'x, y, z'
_cell_length_a     56.115343
_cell_length_b     57.440539
_cell_length_c     57.034955
_cell_angle_alpha  90.625922
_cell_angle_beta   88.706172
_cell_angle_gamma 92.079787
loop_
_atom_site_label
_atom_site_type_symbol
_atom_site_fract_x
_atom_site_fract_y
_atom_site_fract_z
_atom_type_partial_charge
O0 O 0.03031 0.23521 0.14596 0.0
Cd1 Cd 0.0301 0.26324 0.16962 0.0
Cd2 Cd 0.05449 0.28588 0.12894 0.0
O3 O 0.04467 0.25255 0.11379 0.0
O4 O 0.00743 0.25396 0.19639 0.0
O5 O 1.00033 0.28263 0.17252 0.0
C6 C 0.99346 0.27003 0.19021 0.0
C7 C 0.04802 0.32235 0.10946 0.0
C8 C 0.03622 0.23425 0.12424 0.0
C9 C 0.08192 0.28059 0.17543 0.0
O10 O 0.08213 0.28652 0.15385 0.0
O11 O 0.06276 0.27221 0.18504 0.0
O12 O 0.06523 0.30907 0.10339 0.0
O13 O 0.03386 0.31473 0.12609 0.0
O14 O 0.10056 0.7706 0.42348 0.0
Cd15 Cd 0.06849 0.76229 0.43952 0.0
Cd16 Cd 0.04945 0.77828 0.39823 0.0
O17 O 0.08519 0.77843 0.38932 0.0
O18 O 0.07469 0.73979 0.46432 0.0
O19 O 0.05435 0.73088 0.4322 0.0
C20 C 0.06322 0.72452 0.45176 0.0
C21 C 0.02298 0.77051 0.36804 0.0
C22 C 0.10319 0.77568 0.40197 0.0
C23 C 0.03639 0.80189 0.4444 0.0
O24 O 0.03587 0.80165 0.42217 0.0
O25 O 0.04831 0.78722 0.45516 0.0
O26 O 0.03597 0.7894 0.36878 0.0
O27 O 0.02559 0.75528 0.38418 0.0
O28 O 0.51833 0.73894 0.64346 0.0
Cd29 Cd 0.51949 0.76711 0.6671 0.0
Cd30 Cd 0.54484 0.78839 0.62595 0.0
O31 O 0.53519 0.75467 0.61161 0.0
O32 O 0.49683 0.75716 0.69367 0.0
O33 O 0.49062 0.7877 0.67206 0.0
C34 C 0.48343 0.77418 0.68894 0.0
C35 C 0.5376 0.82487 0.60677 0.0
C36 C 0.52538 0.73701 0.62211 0.0
C37 C 0.57217 0.78309 0.67224 0.0
O38 O 0.57251 0.78901 0.65065 0.0
O39 O 0.55286 0.77504 0.68193 0.0
O40 O 0.554 0.81121 0.59941 0.0
O41 O 0.52469 0.81765 0.62449 0.0
O42 O 0.60713 0.27816 0.93846 0.0
Cd43 Cd 0.57855 0.26871 0.95944 0.0
Cd44 Cd 0.55141 0.28418 0.92122 0.0
O45 O 0.58573 0.28406 0.90723 0.0
O46 O 0.58836 0.2441 0.98073 0.0
O47 O 0.56149 0.23851 0.95299 0.0
C48 C 0.57354 0.23028 0.96991 0.0
C49 C 0.52217 0.28156 0.89268 0.0
C50 C 0.60582 0.28251 0.91679 0.0
C51 C 0.54647 0.30657 0.97058 0.0
O52 O 0.54131 0.30547 0.94899 0.0
O53 O 0.56153 0.29318 0.97888 0.0
O54 O 0.53579 0.29984 0.89517 0.0
O55 O 0.52521 0.26423 0.90638 0.0
O56 O 0.16448 0.98616 0.24258 0.0
Cd57 Cd 0.18672 0.99461 0.2695 0.0
Cd58 Cd 0.14717 0.00413 0.29437 0.0
O59 O 0.13222 0.99446 0.26317 0.0
O60 O 0.21733 0.98032 0.26178 0.0
O61 O 0.1949 0.97096 0.29307 0.0
C62 C 0.21406 0.96812 0.2805 0.0
C63 C 0.12573 0.99121 0.32724 0.0
C64 C 0.14204 0.98775 0.24416 0.0
C65 C 0.18323 0.04314 0.28744 0.0
O66 O 0.16352 0.03671 0.29712 0.0
O67 O 0.19515 0.02889 0.27528 0.0
O68 O 0.11789 0.00694 0.31385 0.0
O69 O 0.14622 0.98271 0.32218 0.0
O70 O 0.24457 0.92078 0.60826 0.0
Cd71 Cd 0.24107 0.93723 0.57684 0.0
Cd72 Cd 0.25398 0.89548 0.55923 0.0
O73 O 0.23985 0.88625 0.59149 0.0
O74 O 0.21802 0.96219 0.58098 0.0
O75 O 0.21087 0.9297 0.56027 0.0
C76 C 0.20364 0.94934 0.56857 0.0
C77 C 0.25415 0.86744 0.52949 0.0
C78 C 0.24038 0.89898 0.60981 0.0
C79 C 0.28775 0.93733 0.55386 0.0
O80 O 0.2851 0.91542 0.55587 0.0
O81 O 0.27073 0.95038 0.55935 0.0
O82 O 0.26646 0.86539 0.54804 0.0
O83 O 0.24008 0.8847 0.52856 0.0
O84 O 0.39362 0.04137 0.71069 0.0
Cd85 Cd 0.37541 0.04926 0.74073 0.0
Cd86 Cd 0.41784 0.04715 0.76158 0.0
O87 O 0.42691 0.05374 0.72708 0.0
O88 O 0.35015 0.07038 0.73292 0.0
O89 O 0.38196 0.08065 0.75393 0.0
C90 C 0.36254 0.08627 0.74393 0.0
C91 C 0.44669 0.0584 0.78848 0.0
C92 C 0.4153 0.0481 0.70893 0.0
C93 C 0.37773 0.01164 0.77328 0.0
O94 O 0.39989 0.01702 0.77285 0.0
O95 O 0.36329 0.02375 0.76237 0.0
O96 O 0.44966 0.04146 0.77392 0.0
O97 O 0.42747 0.06996 0.78712 0.0
O98 O 0.28828 0.16243 0.07133 0.0
Cd99 Cd 0.28681 0.13846 0.04351 0.0
Cd100 Cd 0.26437 0.17845 0.02201 0.0
O101 O 0.27368 0.1936 0.05518 0.0
O102 O 0.30783 0.11253 0.05338 0.0
O103 O 0.31639 0.13401 0.02245 0.0
C104 C 0.32227 0.11747 0.03611 0.0
C105 C 0.27392 0.1971 0.98507 0.0
C106 C 0.28245 0.18367 0.07291 0.0
C107 C 0.23458 0.13231 0.02849 0.0
O108 O 0.23551 0.15367 0.02227 0.0
O109 O 0.2531 0.12304 0.03641 0.0
O110 O 0.25729 0.20436 0.99903 0.0
O111 O 0.28572 0.1797 0.99221 0.0
O112 O 0.75577 0.43079 0.1267 0.0
Cd113 Cd 0.75223 0.45218 0.09889 0.0
Cd114 Cd 0.75994 0.41026 0.07183 0.0
O115 O 0.75083 0.39884 0.10518 0.0
O116 O 0.72914 0.47636 0.10656 0.0
O117 O 0.72277 0.4475 0.08081 0.0
C118 C 0.71527 0.46577 0.09178 0.0
C119 C 0.75951 0.38115 0.04281 0.0
C120 C 0.75213 0.40893 0.12507 0.0
C121 C 0.79431 0.45402 0.06857 0.0
O122 O 0.78837 0.43292 0.06413 0.0
O123 O 0.78171 0.46615 0.08236 0.0
O124 O 0.77446 0.38144 0.05953 0.0
O125 O 0.74359 0.39684 0.04314 0.0
O126 O 0.89577 0.53991 0.20479 0.0
Cd127 Cd 0.87421 0.54262 0.23394 0.0
Cd128 Cd 0.91493 0.54256 0.25729 0.0
O129 O 0.92699 0.55243 0.22456 0.0
O130 O 0.84715 0.5621 0.22685 0.0
O131 O 0.8766 0.57286 0.25064 0.0
C132 C 0.85722 0.57776 0.24015 0.0
C133 C 0.93739 0.55563 0.28875 0.0
C134 C 0.91717 0.54776 0.20519 0.0
C135 C 0.87927 0.50218 0.26307 0.0
O136 O 0.90081 0.50959 0.26415 0.0
O137 O 0.86408 0.5139 0.25267 0.0
O138 O 0.94559 0.54122 0.27344 0.0
O139 O 0.9166 0.56383 0.28554 0.0
O140 O 0.7839 0.66301 0.56799 0.0
Cd141 Cd 0.78344 0.63835 0.54072 0.0
Cd142 Cd 0.76113 0.67806 0.5181 0.0
O143 O 0.76914 0.69382 0.55126 0.0
O144 O 0.80457 0.613 0.55182 0.0
O145 O 0.81348 0.63367 0.5204 0.0
C146 C 0.81928 0.61761 0.53466 0.0
C147 C 0.7697 0.69692 0.48109 0.0
C148 C 0.77768 0.68415 0.56925 0.0
C149 C 0.73181 0.63155 0.52461 0.0
O150 O 0.7329 0.65279 0.51809 0.0
O151 O 0.7501 0.62241 0.53315 0.0
O152 O 0.75214 0.70274 0.49466 0.0
O153 O 0.78312 0.68097 0.48878 0.0
O154 O 0.65032 0.48711 0.75238 0.0
Cd155 Cd 0.67179 0.49872 0.77895 0.0
Cd156 Cd 0.63262 0.50803 0.8019 0.0
O157 O 0.61801 0.49957 0.77033 0.0
O158 O 0.70399 0.48696 0.77262 0.0
O159 O 0.68208 0.47783 0.80427 0.0
C160 C 0.70181 0.47626 0.79235 0.0
C161 C 0.61678 0.48876 0.83431 0.0
C162 C 0.62814 0.49068 0.75244 0.0
C163 C 0.66582 0.54809 0.79455 0.0
O164 O 0.6471 0.54125 0.80576 0.0
O165 O 0.67751 0.53383 0.78215 0.0
O166 O 0.60535 0.5048 0.82422 0.0
O167 O 0.63761 0.48375 0.82608 0.0
O168 O 0.06646 0.77541 0.90048 0.0
Cd169 Cd 0.03963 0.7755 0.92633 0.0
Cd170 Cd 0.01624 0.79844 0.88531 0.0
O171 O 0.04967 0.79111 0.86985 0.0
O172 O 0.05182 0.75324 0.95075 0.0
O173 O 0.0193 0.74521 0.93114 0.0
C174 C 0.03472 0.73847 0.9459 0.0
C175 C 0.97993 0.79225 0.86407 0.0
C176 C 0.06766 0.78227 0.87929 0.0
C177 C 0.02488 0.82712 0.93112 0.0
O178 O 0.01737 0.82554 0.91015 0.0
O179 O 0.03323 0.80927 0.94108 0.0
O180 O 0.9951 0.80897 0.8591 0.0
O181 O 0.9854 0.77863 0.88086 0.0
O182 O 0.01757 0.24996 0.63568 0.0
Cd183 Cd 0.01701 0.27685 0.66005 0.0
Cd184 Cd 0.03606 0.30199 0.62517 0.0
O185 O 0.03305 0.27137 0.60694 0.0
O186 O 0.9983 0.26564 0.68792 0.0
O187 O 0.98771 0.29507 0.66608 0.0
C188 C 0.98397 0.28218 0.68429 0.0
C189 C 0.01629 0.33331 0.61168 0.0
C190 C 0.02522 0.25185 0.6146 0.0
C191 C 0.06603 0.29955 0.66622 0.0
O192 O 0.06559 0.30704 0.6454 0.0
O193 O 0.04845 0.28781 0.67487 0.0
O194 O 0.03554 0.32658 0.60131 0.0
O195 O 0.00831 0.32244 0.6301 0.0
O196 O 0.532 0.23709 0.41218 0.0
Cd197 Cd 0.53428 0.26342 0.38725 0.0
Cd198 Cd 0.50768 0.28721 0.42489 0.0
O199 O 0.51296 0.25433 0.44172 0.0
O200 O 0.55926 0.25322 0.36341 0.0
O201 O 0.56482 0.28399 0.38621 0.0
C202 C 0.57322 0.27015 0.37029 0.0
C203 C 0.51547 0.32549 0.44187 0.0
C204 C 0.52296 0.23634 0.43289 0.0
C205 C 0.48374 0.27889 0.37684 0.0
O206 O 0.48262 0.28657 0.39793 0.0
O207 O 0.50278 0.2697 0.36899 0.0
O208 O 0.4967 0.31293 0.44746 0.0
O209 O 0.53065 0.31598 0.42767 0.0
O210 O 0.50843 0.74275 0.10629 0.0
Cd211 Cd 0.50971 0.76101 0.13766 0.0
Cd212 Cd 0.53391 0.79281 0.11341 0.0
O213 O 0.53574 0.76594 0.08962 0.0
O214 O 0.48573 0.74711 0.15996 0.0
O215 O 0.48551 0.78381 0.14835 0.0
C216 C 0.47673 0.76743 0.16169 0.0
C217 C 0.52169 0.82723 0.0976 0.0
C218 C 0.5226 0.74752 0.08916 0.0
C219 C 0.55705 0.77711 0.15588 0.0
O220 O 0.55694 0.79329 0.14092 0.0
O221 O 0.54072 0.76124 0.15606 0.0
O222 O 0.54302 0.82017 0.0941 0.0
O223 O 0.50734 0.8151 0.1111 0.0
O224 O 0.8981 0.07513 0.7064 0.0
Cd225 Cd 0.88363 0.06921 0.73943 0.0
Cd226 Cd 0.92622 0.05393 0.74736 0.0
O227 O 0.93521 0.06984 0.71636 0.0
O228 O 0.85473 0.08793 0.74308 0.0
O229 O 0.88716 0.09377 0.76416 0.0
C230 C 0.86579 0.09945 0.75933 0.0
C231 C 0.94604 0.06256 0.78152 0.0
C232 C 0.92027 0.07563 0.70129 0.0
C233 C 0.88671 0.01865 0.7482 0.0
O234 O 0.90914 0.02177 0.746 0.0
O235 O 0.87315 0.03584 0.748 0.0
O236 O 0.95575 0.05011 0.76519 0.0
O237 O 0.92538 0.07084 0.77791 0.0
O238 O 0.81897 0.18301 0.573 0.0
Cd239 Cd 0.81344 0.15745 0.54781 0.0
Cd240 Cd 0.79114 0.19086 0.52557 0.0
O241 O 0.80264 0.211 0.55337 0.0
O242 O 0.83658 0.1322 0.55096 0.0
O243 O 0.83538 0.15501 0.52001 0.0
C244 C 0.84448 0.13764 0.53022 0.0
C245 C 0.80018 0.20056 0.48701 0.0
C246 C 0.81298 0.20408 0.5715 0.0
C247 C 0.7612 0.14952 0.5395 0.0
O248 O 0.76134 0.16985 0.53099 0.0
O249 O 0.7803 0.14111 0.54669 0.0
O250 O 0.78459 0.21186 0.4991 0.0
O251 O 0.81112 0.18424 0.49713 0.0
O252 O 0.65628 0.98456 0.24011 0.0
Cd253 Cd 0.67971 0.99411 0.2658 0.0
Cd254 Cd 0.6431 0.01035 0.28897 0.0
O255 O 0.62536 0.99307 0.26262 0.0
O256 O 0.70769 0.97419 0.2654 0.0
O257 O 0.67975 0.97403 0.29376 0.0
C258 C 0.69932 0.96615 0.2851 0.0
C259 C 0.62857 0.00423 0.32667 0.0
C260 C 0.63387 0.9849 0.24358 0.0
C261 C 0.68003 0.04525 0.27303 0.0
O262 O 0.65908 0.04234 0.28164 0.0
O263 O 0.69201 0.02787 0.26675 0.0
O264 O 0.61693 0.01601 0.31196 0.0
O265 O 0.64881 0.99615 0.32019 0.0
O266 O 0.77311 0.89809 0.0707 0.0
Cd267 Cd 0.77094 0.92226 0.04366 0.0
Cd268 Cd 0.79418 0.88547 0.01793 0.0
O269 O 0.78733 0.86812 0.05077 0.0
O270 O 0.74685 0.94594 0.05442 0.0
O271 O 0.741 0.92305 0.02379 0.0
C272 C 0.73318 0.93921 0.03758 0.0
C273 C 0.78497 0.86867 0.98005 0.0
C274 C 0.77989 0.87711 0.07018 0.0
C275 C 0.82189 0.93248 0.02519 0.0
O276 O 0.82183 0.91145 0.01759 0.0
O277 O 0.80317 0.94039 0.03514 0.0
O278 O 0.80245 0.86178 0.99223 0.0
O279 O 0.77194 0.88441 0.98967 0.0
O280 O 0.32501 0.6613 0.06046 0.0
Cd281 Cd 0.32071 0.64541 0.02809 0.0
Cd282 Cd 0.30503 0.6854 0.01647 0.0
O283 O 0.32058 0.69659 0.04685 0.0
O284 O 0.33758 0.61557 0.02655 0.0
O285 O 0.34771 0.64621 0.00467 0.0
C286 C 0.35079 0.62484 0.01012 0.0
C287 C 0.31687 0.6986 0.98 0.0
C288 C 0.32525 0.68326 0.06363 0.0
C289 C 0.26879 0.6482 0.01824 0.0
O290 O 0.27147 0.67021 0.01942 0.0
O291 O 0.28673 0.63544 0.019 0.0
O292 O 0.30507 0.71171 0.99428 0.0
O293 O 0.32249 0.67822 0.98674 0.0
O294 O 0.16344 0.49481 0.7397 0.0
Cd295 Cd 0.18107 0.50006 0.7705 0.0
Cd296 Cd 0.13999 0.51125 0.78743 0.0
O297 O 0.12864 0.49326 0.7583 0.0
O298 O 0.21072 0.48242 0.77149 0.0
O299 O 0.17816 0.47449 0.79335 0.0
C300 C 0.19982 0.47002 0.78746 0.0
C301 C 0.12602 0.50109 0.82435 0.0
C302 C 0.14104 0.49079 0.73961 0.0
C303 C 0.17502 0.54968 0.78232 0.0
O304 O 0.15275 0.54495 0.78306 0.0
O305 O 0.18972 0.53351 0.78014 0.0
O306 O 0.11238 0.511 0.80985 0.0
O307 O 0.14754 0.49683 0.81782 0.0
O308 O 0.27125 0.39884 0.57447 0.0
Cd309 Cd 0.26788 0.42185 0.54628 0.0
Cd310 Cd 0.29189 0.38429 0.52299 0.0
O311 O 0.285 0.3678 0.55602 0.0
O312 O 0.2428 0.4447 0.55682 0.0
O313 O 0.23802 0.42177 0.52606 0.0
C314 C 0.22952 0.43763 0.5398 0.0
C315 C 0.28455 0.36701 0.48494 0.0
C316 C 0.27809 0.37788 0.57504 0.0
C317 C 0.31888 0.43178 0.52877 0.0
O318 O 0.31928 0.41014 0.52341 0.0
O319 O 0.2996 0.44052 0.53659 0.0
O320 O 0.30151 0.36041 0.49797 0.0
O321 O 0.27087 0.38261 0.49385 0.0
O322 O 0.41627 0.57891 0.2037 0.0
Cd323 Cd 0.39903 0.56365 0.23205 0.0
Cd324 Cd 0.44279 0.54713 0.2399 0.0
O325 O 0.45227 0.56708 0.2113 0.0
O326 O 0.36823 0.57933 0.23717 0.0
O327 O 0.39769 0.58124 0.26237 0.0
C328 C 0.37659 0.58696 0.2568 0.0
C329 C 0.45862 0.55494 0.27614 0.0
C330 C 0.43844 0.57847 0.19872 0.0
C331 C 0.40387 0.51173 0.23185 0.0
O332 O 0.426 0.51508 0.23531 0.0
O333 O 0.39025 0.52879 0.23031 0.0
O334 O 0.47048 0.54332 0.26058 0.0
O335 O 0.43816 0.56254 0.27065 0.0
Co336 Co 0.02588 0.0405 0.00549 0.0
C337 C 0.02182 0.07262 0.0441 0.0
Co338 Co 0.02935 0.02523 0.04013 0.0
C339 C 0.01254 0.05006 0.95784 0.0
C340 C 0.03636 0.07608 0.97236 0.0
N341 N 0.02451 0.05581 0.9774 0.0
N342 N 0.01664 0.0659 0.94078 0.0
C343 C 0.03163 0.08227 0.94985 0.0
H344 H 1.00133 0.03442 0.95606 0.0
H345 H 0.04775 0.08577 0.98433 0.0
C346 C 0.0336 0.99295 1.00187 0.0
N347 N 0.03083 0.00966 0.06802 0.0
C348 C 0.04598 0.01299 0.0858 0.0
C349 C 0.01797 0.99008 0.07346 0.0
N350 N 0.04317 0.99612 0.10205 0.0
C351 C 0.02545 0.98177 0.09437 0.0
C352 C 0.98228 0.02256 0.02278 0.0
O353 O 0.0308 0.01086 0.98932 0.0
O354 O 0.03437 0.99585 0.024 0.0
O355 O 0.99538 0.0184 0.04003 0.0
O356 O 0.99176 0.0333 0.00529 0.0
O357 O 0.02433 0.05451 0.0564 0.0
H358 H 0.00472 0.98172 0.06241 0.0
H359 H 0.05916 0.02719 0.08649 0.0
O360 O 0.0211 0.07011 0.02187 0.0
O361 O 0.0597 0.04742 0.00552 0.0
O362 O 0.06363 0.03254 0.04018 0.0
C363 C 0.07295 0.04342 0.02268 0.0
H364 H 0.03838 0.09779 0.94096 0.0
H365 H 0.01914 0.96575 0.10262 0.0
Co366 Co 0.31286 0.78062 0.31603 0.0
C367 C 0.3102 0.73491 0.30262 0.0
Co368 Co 0.29431 0.77551 0.28265 0.0
C369 C 0.31286 0.79865 0.36197 0.0
C370 C 0.34204 0.77603 0.35732 0.0
N371 N 0.32458 0.78611 0.34564 0.0
N372 N 0.32154 0.79628 0.38357 0.0
C373 C 0.34023 0.78231 0.38075 0.0
H374 H 0.29724 0.80834 0.3582 0.0
H375 H 0.35415 0.76367 0.34967 0.0
C376 C 0.29653 0.82105 0.29585 0.0
N377 N 0.28219 0.76981 0.25337 0.0
C378 C 0.29278 0.7565 0.23693 0.0
C379 C 0.2628 0.77789 0.24306 0.0
N380 N 0.28102 0.75593 0.21663 0.0
C381 C 0.26208 0.76942 0.22033 0.0
C382 C 0.26278 0.77228 0.31865 0.0
O383 O 0.30743 0.81305 0.31312 0.0
O384 O 0.28911 0.80727 0.27987 0.0
O385 O 0.26386 0.77101 0.29646 0.0
O386 O 0.28183 0.77598 0.32988 0.0
O387 O 0.29953 0.74354 0.28558 0.0
H388 H 0.25031 0.78947 0.25138 0.0
H389 H 0.3094 0.74804 0.23961 0.0
O390 O 0.31805 0.74831 0.31876 0.0
O391 O 0.34382 0.7851 0.30175 0.0
O392 O 0.32475 0.78035 0.26878 0.0
C393 C 0.34407 0.78434 0.27944 0.0
H394 H 0.35073 0.77579 0.39478 0.0
H395 H 0.24877 0.77303 0.20755 0.0
Co396 Co 0.50922 0.02586 0.51072 0.0
C397 C 0.52543 0.0725 0.50364 0.0
Co398 Co 0.54296 0.0341 0.52803 0.0
C399 C 0.46265 0.00617 0.50616 0.0
C400 C 0.4729 0.02542 0.47544 0.0
N401 N 0.48088 0.0187 0.49636 0.0
N402 N 0.4435 0.0048 0.49237 0.0
C403 C 0.44975 0.01696 0.47298 0.0
H404 H 0.46313 0.99895 0.52359 0.0
H405 H 0.48307 0.03615 0.46305 0.0
C406 C 0.52682 0.98766 0.53556 0.0
N407 N 0.57092 0.04106 0.54303 0.0
C408 C 0.59028 0.053 0.53464 0.0
C409 C 0.57602 0.03595 0.56533 0.0
N410 N 0.60731 0.05573 0.55088 0.0
C411 C 0.59837 0.04497 0.57023 0.0
C412 C 0.5033 0.04248 0.55559 0.0
O413 O 0.51034 0.99362 0.52202 0.0
O414 O 0.54294 0.00291 0.54066 0.0
O415 O 0.52587 0.04417 0.55482 0.0
O416 O 0.49227 0.03449 0.53797 0.0
O417 O 0.54289 0.06565 0.51542 0.0
H418 H 0.56404 0.02664 0.57738 0.0
H419 H 0.59171 0.05957 0.51694 0.0
O420 O 0.50831 0.05787 0.49967 0.0
O421 O 0.52603 0.01742 0.4835 0.0
O422 O 0.56012 0.02386 0.50098 0.0
C423 C 0.54863 0.01752 0.48292 0.0
H424 H 0.4384 0.01965 0.45823 0.0
H425 H 0.607 0.04421 0.58696 0.0
Co426 Co 0.31008 0.29249 0.78141 0.0
C427 C 0.29108 0.30347 0.73756 0.0
Co428 Co 0.27336 0.27878 0.77761 0.0
C429 C 0.35863 0.29272 0.79598 0.0
C430 C 0.35088 0.32392 0.77789 0.0
N431 N 0.34108 0.30335 0.78497 0.0
N432 N 0.37901 0.30591 0.79626 0.0
C433 C 0.37421 0.32557 0.78483 0.0
H434 H 0.35624 0.27591 0.80427 0.0
H435 H 0.34155 0.33702 0.76861 0.0
C436 C 0.29152 0.26762 0.82119 0.0
N437 N 0.24253 0.26801 0.77391 0.0
C438 C 0.22492 0.28032 0.76513 0.0
C439 C 0.23325 0.24615 0.77632 0.0
N440 N 0.20514 0.267 0.76153 0.0
C441 C 0.2102 0.24543 0.76845 0.0
C442 C 0.30674 0.24823 0.76234 0.0
O443 O 0.30963 0.27945 0.81328 0.0
O444 O 0.27354 0.26489 0.80812 0.0
O445 O 0.28451 0.25119 0.76424 0.0
O446 O 0.32125 0.26428 0.76898 0.0
O447 O 0.27305 0.29252 0.74657 0.0
H448 H 0.24298 0.2315 0.78229 0.0
H449 H 0.2271 0.29837 0.75995 0.0
O450 O 0.30988 0.30557 0.74972 0.0
O451 O 0.29913 0.3205 0.79375 0.0
O452 O 0.26232 0.30665 0.79137 0.0
C453 C 0.27698 0.32295 0.79711 0.0
H454 H 0.38659 0.34017 0.7818 0.0
H455 H 0.19842 0.23016 0.76709 0.0
Co456 Co 1.00044 0.01015 0.50978 0.0
C457 C 0.99057 0.04065 0.54585 0.0
Co458 Co 0.02212 0.04275 0.50777 0.0
C459 C 0.99135 0.9612 0.51006 0.0
C460 C 0.95889 0.97928 0.51458 0.0
N461 N 0.98268 0.98268 0.5115 0.0
N462 N 0.97404 0.94447 0.51213 0.0
C463 C 0.95347 0.95567 0.51474 0.0
H464 H 0.01002 0.95789 0.50684 0.0
H465 H 0.94632 0.99306 0.51641 0.0
C466 C 0.03241 0.0123 0.472 0.0
N467 N 0.0393 0.07066 0.50679 0.0
C468 C 0.02962 0.09119 0.51206 0.0
C469 C 0.06305 0.07508 0.50653 0.0
N470 N 0.04619 0.10813 0.51636 0.0
C471 C 0.06736 0.09818 0.51247 0.0
C472 C 0.04358 0.00877 0.53239 0.0
O473 O 0.01565 0.99995 0.4815 0.0
O474 O 0.03792 0.03223 0.48058 0.0
O475 O 0.04575 0.02984 0.52607 0.0
O476 O 0.02498 0.99679 0.52713 0.0
O477 O 0.00638 0.05307 0.53526 0.0
H478 H 0.07631 0.06198 0.50426 0.0
H479 H 0.01062 0.09309 0.51453 0.0
O480 O 0.98535 0.02041 0.53796 0.0
O481 O 0.97622 0.0236 0.49255 0.0
O482 O 0.9982 0.0557 0.48956 0.0
C483 C 0.97878 0.04448 0.48563 0.0
H484 H 0.93589 0.9474 0.5165 0.0
H485 H 0.08467 0.10633 0.5158 0.0
Co486 Co 0.28168 0.80235 0.7979 0.0
C487 C 0.23505 0.78496 0.80655 0.0
Co488 Co 0.27399 0.76925 0.7798 0.0
C489 C 0.30344 0.84681 0.80875 0.0
C490 C 0.28117 0.83386 0.83699 0.0
N491 N 0.2887 0.82887 0.81491 0.0
N492 N 0.30548 0.8628 0.8261 0.0
C493 C 0.29136 0.85488 0.84388 0.0
H494 H 0.31232 0.84822 0.79175 0.0
H495 H 0.2693 0.82277 0.84752 0.0
C496 C 0.32042 0.78609 0.77055 0.0
N497 N 0.2666 0.74237 0.76372 0.0
C498 C 0.25568 0.72345 0.77323 0.0
C499 C 0.26928 0.73724 0.74069 0.0
N500 N 0.25131 0.70664 0.75718 0.0
C501 C 0.25973 0.71516 0.73658 0.0
C502 C 0.2637 0.80919 0.75497 0.0
O503 O 0.31412 0.80254 0.78434 0.0
O504 O 0.30529 0.76972 0.76617 0.0
O505 O 0.2632 0.78704 0.75438 0.0
O506 O 0.27167 0.81991 0.77285 0.0
O507 O 0.24228 0.76851 0.79348 0.0
H508 H 0.27733 0.74889 0.72776 0.0
H509 H 0.25038 0.72231 0.79156 0.0
O510 O 0.24949 0.80197 0.81086 0.0
O511 O 0.29155 0.78517 0.8231 0.0
O512 O 0.28502 0.75165 0.80546 0.0
C513 C 0.29185 0.76319 0.82333 0.0
H514 H 0.28889 0.86349 0.86069 0.0
H515 H 0.2591 0.70607 0.71986 0.0
Co516 Co 0.52427 0.01919 0.00591 0.0
C517 C 0.56755 0.00682 0.02491 0.0
Co518 Co 0.52628 0.02784 0.04332 0.0
C519 C 0.51428 0.02902 0.95847 0.0
C520 C 0.5329 0.99729 0.96107 0.0
N521 N 0.52299 0.0143 0.97408 0.0
N522 N 0.51866 0.0221 0.93624 0.0
C523 C 0.53036 0.00213 0.93768 0.0
H524 H 0.50581 0.04508 0.96328 0.0
H525 H 0.54199 0.98271 0.9681 0.0
C526 C 0.48325 0.04041 0.02501 0.0
N527 N 0.52808 0.03248 0.07507 0.0
C528 C 0.53548 0.01623 0.08974 0.0
C529 C 0.52435 0.0514 0.08864 0.0
N530 N 0.53703 0.02412 0.11195 0.0
C531 C 0.52989 0.0463 0.11142 0.0
C532 C 0.54307 0.06378 0.01645 0.0
O533 O 0.4923 0.0317 0.00629 0.0
O534 O 0.49533 0.04036 0.0436 0.0
O535 O 0.53991 0.05791 0.03771 0.0
O536 O 0.53753 0.04933 1.00032 0.0
O537 O 0.55769 0.01523 0.04324 0.0
H538 H 0.51872 0.06795 0.08226 0.0
H539 H 0.54012 0.99896 0.08394 0.0
O540 O 0.55611 0.00692 0.0059 0.0
O541 O 0.51105 0.98888 0.01145 0.0
O542 O 0.5124 0.99787 0.04878 0.0
C543 C 0.50723 0.98326 0.0327 0.0
H544 H 0.53663 0.99188 0.9229 0.0
H545 H 0.5297 0.05835 0.12614 0.0
Co546 Co 0.27926 0.26592 0.28357 0.0
C547 C 0.32767 0.2804 0.28759 0.0
Co548 Co 0.28754 0.30004 0.26828 0.0
C549 C 0.25866 0.2203 0.29061 0.0
C550 C 0.2802 0.23161 0.31936 0.0
N551 N 0.27264 0.23817 0.29823 0.0
N552 N 0.25711 0.20278 0.30616 0.0
C553 C 0.27064 0.20981 0.32431 0.0
H554 H 0.24952 0.22033 0.2741 0.0
H555 H 0.29187 0.24204 0.33045 0.0
C556 C 0.23914 0.28547 0.26416 0.0
N557 N 0.29402 0.32783 0.25317 0.0
C558 C 0.31143 0.34417 0.25688 0.0
C559 C 0.28319 0.33465 0.23365 0.0
N560 N 0.31195 0.3608 0.2403 0.0
C561 C 0.29404 0.35492 0.2258 0.0
C562 C 0.29031 0.26186 0.2359 0.0
O563 O 0.24587 0.26785 0.27529 0.0
O564 O 0.25437 0.30199 0.26035 0.0
O565 O 0.29317 0.28385 0.23846 0.0
O566 O 0.28496 0.24989 0.25405 0.0
O567 O 0.32081 0.29801 0.27651 0.0
H568 H 0.2688 0.3251 0.22513 0.0
H569 H 0.32404 0.34334 0.27089 0.0
O570 O 0.31251 0.26383 0.29167 0.0
O571 O 0.27353 0.28186 0.31303 0.0
O572 O 0.28188 0.31619 0.29818 0.0
C573 C 0.27637 0.30376 0.31607 0.0
H574 H 0.27373 0.19978 0.33983 0.0
H575 H 0.28919 0.36443 0.21046 0.0
Co576 Co 0.51491 0.51368 0.02123 0.0
C577 C 0.50441 0.55294 0.04727 0.0
Co578 Co 0.53414 0.54554 0.00902 0.0
C579 C 0.50872 0.46618 0.03431 0.0
C580 C 0.47615 0.48405 0.03896 0.0
N581 N 0.49926 0.48721 0.03233 0.0
N582 N 0.49247 0.44983 0.04159 0.0
C583 C 0.47186 0.46095 0.04449 0.0
H584 H 0.52693 0.46266 0.02913 0.0
H585 H 0.46311 0.49747 0.03898 0.0
C586 C 0.54487 0.50631 0.98321 0.0
N587 N 0.54937 0.57241 0.99819 0.0
C588 C 0.5394 0.59334 0.99802 0.0
C589 C 0.57243 0.57662 0.99196 0.0
N590 N 0.55528 0.61071 0.99266 0.0
C591 C 0.57617 0.60026 0.98871 0.0
C592 C 0.55897 0.52206 0.04147 0.0
O593 O 0.52982 0.49616 0.99694 0.0
O594 O 0.54899 0.52811 0.9852 0.0
O595 O 0.5598 0.54007 0.02873 0.0
O596 O 0.54072 0.50834 0.04099 0.0
O597 O 0.51936 0.56291 0.0334 0.0
H598 H 0.58589 0.5636 0.99127 0.0
H599 H 0.52118 0.59601 0.00378 0.0
O600 O 0.50004 0.53121 0.04516 0.0
O601 O 0.48938 0.51913 1.00164 0.0
O602 O 0.50814 0.55091 0.98925 0.0
C603 C 0.48989 0.53717 0.989 0.0
H604 H 0.4548 0.45283 0.04942 0.0
H605 H 0.59317 0.60915 0.98512 0.0
Co606 Co 0.79349 0.29283 0.30185 0.0
C607 C 0.74634 0.27647 0.30984 0.0
Co608 Co 0.78422 0.26174 0.28094 0.0
C609 C 0.81615 0.33627 0.31283 0.0
C610 C 0.79486 0.32392 0.34201 0.0
N611 N 0.8018 0.31836 0.31989 0.0
N612 N 0.81848 0.35284 0.32952 0.0
C613 C 0.80496 0.34538 0.34791 0.0
H614 H 0.82399 0.3376 0.29535 0.0
H615 H 0.78293 0.31328 0.35293 0.0
C616 C 0.83099 0.27791 0.27221 0.0
N617 N 0.7759 0.23644 0.26277 0.0
C618 C 0.76297 0.21752 0.26972 0.0
C619 C 0.78001 0.23324 0.2396 0.0
N620 N 0.75859 0.20262 0.25181 0.0
C621 C 0.7694 0.21236 0.23279 0.0
C622 C 0.77486 0.30354 0.25969 0.0
O623 O 0.82541 0.29312 0.28761 0.0
O624 O 0.81544 0.26231 0.26674 0.0
O625 O 0.77383 0.28156 0.25711 0.0
O626 O 0.78318 0.3124 0.27835 0.0
O627 O 0.7527 0.26115 0.29494 0.0
H628 H 0.78971 0.24549 0.22834 0.0
H629 H 0.75693 0.2148 0.28767 0.0
O630 O 0.76158 0.29231 0.31576 0.0
O631 O 0.80378 0.27366 0.32528 0.0
O632 O 0.79471 0.2419 0.30524 0.0
C633 C 0.80309 0.25165 0.32357 0.0
H634 H 0.80237 0.35486 0.36423 0.0
H635 H 0.76922 0.2052 0.21516 0.0
Co636 Co 0.01943 0.51587 0.50651 0.0
C637 C 0.06394 0.50525 0.5234 0.0
Co638 Co 0.02443 0.52932 0.54222 0.0
C639 C 0.00602 0.52106 0.45961 0.0
C640 C 0.01836 0.48672 0.46468 0.0
N641 N 0.0145 0.50701 0.47594 0.0
N642 N 0.00441 0.51056 0.43847 0.0
C643 C 0.01217 0.48885 0.44154 0.0
H644 H 1.00156 0.53891 0.46323 0.0
H645 H 0.02527 0.47146 0.47273 0.0
C646 C 0.98024 0.54026 0.52586 0.0
N647 N 0.02935 0.53837 0.57264 0.0
C648 C 0.03826 0.52454 0.58887 0.0
C649 C 0.02776 0.55943 0.58312 0.0
N650 N 0.04269 0.53604 0.609 0.0
C651 C 0.03623 0.55809 0.60558 0.0
C652 C 0.03933 0.561 0.50954 0.0
O653 O 0.98788 0.52919 0.50788 0.0
O654 O 0.99362 0.54232 0.54351 0.0
O655 O 0.03779 0.55804 0.53152 0.0
O656 O 0.03265 0.54463 0.49586 0.0
O657 O 0.05568 0.51638 0.54099 0.0
H658 H 0.02187 0.57491 0.57467 0.0
H659 H 0.04293 0.50668 0.58544 0.0
O660 O 0.05092 0.50262 0.50545 0.0
O661 O 0.00622 0.48719 0.51707 0.0
O662 O 0.01077 0.50049 0.5529 0.0
C663 C 1.004 0.48428 0.53902 0.0
H664 H 0.01315 0.47539 0.42818 0.0
H665 H 0.03824 0.57231 0.61807 0.0
Co666 Co 0.80417 0.78477 0.27374 0.0
C667 C 0.78491 0.79535 0.22958 0.0
Co668 Co 0.76689 0.77251 0.27021 0.0
C669 C 0.85354 0.78375 0.28536 0.0
C670 C 0.84527 0.81551 0.26855 0.0
N671 N 0.83544 0.79514 0.27614 0.0
N672 N 0.87437 0.7962 0.28387 0.0
C673 C 0.8692 0.81623 0.27328 0.0
H674 H 0.85133 0.76676 0.29329 0.0
H675 H 0.83565 0.82893 0.26005 0.0
C676 C 0.78566 0.76237 0.31438 0.0
N677 N 0.73579 0.7617 0.26783 0.0
C678 C 0.71792 0.77142 0.25649 0.0
C679 C 0.72637 0.74145 0.27624 0.0
N680 N 0.69774 0.75793 0.25729 0.0
C681 C 0.70297 0.73907 0.26977 0.0
C682 C 0.79936 0.74007 0.25623 0.0
O683 O 0.8045 0.77229 0.30565 0.0
O684 O 0.7673 0.76073 0.30171 0.0
O685 O 0.77728 0.74374 0.25844 0.0
O686 O 0.81443 0.75612 0.26162 0.0
O687 O 0.76656 0.78461 0.23831 0.0
H688 H 0.73606 0.72895 0.28598 0.0
H689 H 0.71999 0.78763 0.24705 0.0
O690 O 0.80347 0.79731 0.24206 0.0
O691 O 0.79394 0.8133 0.28588 0.0
O692 O 0.75657 0.80124 0.28234 0.0
C693 C 0.77187 0.81685 0.28842 0.0
H694 H 0.8818 0.83034 0.26901 0.0
H695 H 0.69088 0.72446 0.27369 0.0
Co696 Co 0.81034 0.29806 0.8263 0.0
C697 C 0.80784 0.25427 0.80687 0.0
Co698 Co 0.79484 0.29754 0.7911 0.0
C699 C 0.80757 0.30911 0.87457 0.0
C700 C 0.83843 0.2892 0.86744 0.0
N701 N 0.82011 0.29916 0.85697 0.0
N702 N 0.81689 0.30549 0.89568 0.0
C703 C 0.83654 0.29317 0.89135 0.0
H704 H 0.79155 0.3186 0.87192 0.0
H705 H 0.85176 0.2791 0.85839 0.0
C706 C 0.79733 0.34127 0.81014 0.0
N707 N 0.7846 0.2965 0.76061 0.0
C708 C 0.79504 0.28494 0.7427 0.0
C709 C 0.76665 0.30773 0.75093 0.0
N710 N 0.78455 0.28858 0.72208 0.0
C711 C 0.76655 0.30287 0.72722 0.0
C712 C 0.76051 0.29102 0.82464 0.0
O713 O 0.8058 0.33092 0.8275 0.0
O714 O 0.79147 0.32965 0.79203 0.0
O715 O 0.76302 0.29305 0.80259 0.0
O716 O 0.77874 0.29243 0.83735 0.0
O717 O 0.79843 0.26503 0.79031 0.0
H718 H 0.75475 0.31906 0.76042 0.0
H719 H 0.81015 0.27405 0.74487 0.0
O720 O 0.8147 0.26555 0.82492 0.0
O721 O 0.84204 0.30325 0.81486 0.0
O722 O 0.8265 0.30231 0.77981 0.0
C723 C 0.84459 0.30443 0.79271 0.0
H724 H 0.84817 0.28676 0.90453 0.0
H725 H 0.7545 0.3098 0.71473 0.0
Co726 Co 0.77 0.76731 0.77971 0.0
C727 C 0.81829 0.78158 0.7835 0.0
Co728 Co 0.77816 0.80125 0.76414 0.0
C729 C 0.74696 0.72282 0.78792 0.0
C730 C 0.77148 0.73244 0.81486 0.0
N731 N 0.76295 0.73957 0.79433 0.0
N732 N 0.74503 0.70552 0.80371 0.0
C733 C 0.7605 0.71147 0.82067 0.0
H734 H 0.73652 0.72366 0.77225 0.0
H735 H 0.78455 0.74207 0.82513 0.0
C736 C 0.72997 0.78735 0.75999 0.0
N737 N 0.78515 0.82903 0.74971 0.0
C738 C 0.79887 0.84693 0.75775 0.0
C739 C 0.77879 0.83531 0.72807 0.0
N740 N 0.80154 0.86404 0.74188 0.0
C741 C 0.78898 0.85687 0.72314 0.0
C742 C 0.78102 0.76314 0.73193 0.0
O743 O 0.7366 0.76982 0.77136 0.0
O744 O 0.74529 0.80373 0.75587 0.0
O745 O 0.78388 0.78514 0.73437 0.0
O746 O 0.77555 0.75126 0.75013 0.0
O747 O 0.8112 0.799 0.77235 0.0
H748 H 0.76778 0.82472 0.71649 0.0
H749 H 0.80734 0.84708 0.77463 0.0
O750 O 0.80328 0.76493 0.78782 0.0
O751 O 0.76452 0.78307 0.80928 0.0
O752 O 0.77252 0.81727 0.79416 0.0
C753 C 0.76742 0.80496 0.81219 0.0
H754 H 0.7638 0.70134 0.83608 0.0
H755 H 0.78729 0.86653 0.70711 0.0
Co756 Co 0.52054 0.54181 0.50704 0.0
C757 C 0.5179 0.57295 0.54643 0.0
Co758 Co 0.52717 0.52573 0.54067 0.0
C759 C 0.50713 0.55075 0.4594 0.0
C760 C 0.52638 0.57939 0.47534 0.0
N761 N 0.5174 0.55769 0.47954 0.0
N762 N 0.50934 0.56735 0.44283 0.0
C763 C 0.52139 0.5854 0.45283 0.0
H764 H 0.49831 0.53386 0.45694 0.0
H765 H 0.5364 0.59002 0.48771 0.0
C766 C 0.52989 0.49453 0.5015 0.0
N767 N 0.53037 0.50943 0.56786 0.0
C768 C 0.54428 0.51384 0.58643 0.0
C769 C 0.51992 0.48827 0.57196 0.0
N770 N 0.54305 0.49607 0.60173 0.0
C771 C 0.52772 0.47999 0.59274 0.0
C772 C 0.47889 0.52227 0.52594 0.0
O773 O 0.52486 0.51248 0.48986 0.0
O774 O 0.53276 0.49702 0.52344 0.0
O775 O 0.49351 0.51758 0.54179 0.0
O776 O 0.48658 0.53431 0.50856 0.0
O777 O 0.52186 0.5547 0.55811 0.0
H778 H 0.50787 0.4791 0.56022 0.0
H779 H 0.55573 0.5293 0.58825 0.0
O780 O 0.51597 0.57076 0.52431 0.0
O781 O 0.55457 0.54933 0.50543 0.0
O782 O 0.56083 0.53396 0.53951 0.0
C783 C 0.5689 0.54522 0.52176 0.0
H784 H 0.5269 0.6015 0.44426 0.0
H785 H 0.52266 0.46341 0.6006 0.0
Co786 Co 0.01884 0.52364 0.0137 0.0
C787 C 0.03552 0.56961 0.00524 0.0
Co788 Co 0.05329 0.53136 0.02977 0.0
C789 C 0.96984 0.50998 0.01298 0.0
C790 C 0.98226 0.52092 0.97898 0.0
N791 N 0.98957 0.51717 1.00096 0.0
N792 N 0.95037 0.50955 0.99964 0.0
C793 C 0.95805 0.51612 0.97809 0.0
H794 H 0.96969 0.50569 0.03142 0.0
H795 H 0.9936 0.52761 0.96483 0.0
C796 C 0.03672 0.48557 0.03871 0.0
N797 N 0.08234 0.53838 0.0425 0.0
C798 C 0.10025 0.55062 0.03183 0.0
C799 C 0.08982 0.53471 0.06442 0.0
N800 N 0.11856 0.55505 0.04621 0.0
C801 C 0.11216 0.54511 0.0668 0.0
C802 C 0.01543 0.54177 0.05857 0.0
O803 O 0.01891 0.49221 0.02723 0.0
O804 O 0.05414 0.50008 0.04159 0.0
O805 O 0.03799 0.54117 0.05799 0.0
O806 O 1.00385 0.535 0.04084 0.0
O807 O 0.05234 0.56305 0.01798 0.0
H808 H 0.07941 0.5257 0.07794 0.0
H809 H 0.09938 0.55711 0.01413 0.0
O810 O 0.01887 0.55477 1.00046 0.0
O811 O 0.03366 0.5126 0.98659 0.0
O812 O 0.06862 0.52134 1.00133 0.0
C813 C 0.05616 0.51345 0.98449 0.0
H814 H 0.94684 0.51832 0.96314 0.0
H815 H 0.12271 0.5456 0.08247 0.0
H816 H 0.03642 0.19075 0.1432 0.0
H817 H 0.03067 0.22471 0.0767 0.0
H818 H 0.03294 0.15303 0.12409 0.0
H819 H 0.02535 0.18678 0.05736 0.0
H820 H 0.03414 0.1147 0.02385 0.0
H821 H 0.03795 0.15301 0.04223 0.0
H822 H 0.01233 0.12351 0.10799 0.0
H823 H 0.01037 0.08506 0.08973 0.0
C824 C 0.03405 0.19019 0.1244 0.0
C825 C 0.03382 0.21104 0.11163 0.0
C826 C 0.03175 0.16826 0.11327 0.0
C827 C 0.02848 0.16606 0.08883 0.0
C828 C 0.02818 0.1871 0.07605 0.0
C829 C 0.03109 0.20913 0.0872 0.0
C830 C 0.02923 0.11643 0.04224 0.0
C831 C 0.02193 0.09657 0.05521 0.0
C832 C 0.0313 0.13867 0.05294 0.0
C833 C 0.02566 0.14212 0.077 0.0
C834 C 0.01764 0.12214 0.08971 0.0
C835 C 0.01616 0.09983 0.07912 0.0
H836 H 0.11646 0.79446 0.3598 0.0
H837 H 0.14404 0.75879 0.41918 0.0
H838 H 0.15533 0.79326 0.34015 0.0
H839 H 0.18268 0.75676 0.39916 0.0
H840 H 0.25475 0.77729 0.3656 0.0
H841 H 0.21659 0.77943 0.3863 0.0
H842 H 0.18022 0.7656 0.32129 0.0
H843 H 0.21851 0.76469 0.30039 0.0
C844 C 0.13085 0.78638 0.36865 0.0
C845 C 0.12722 0.7767 0.391 0.0
C846 C 0.15306 0.78549 0.3573 0.0
C847 C 0.17203 0.77465 0.36795 0.0
C848 C 0.16852 0.76543 0.39055 0.0
C849 C 0.14636 0.76656 0.40202 0.0
C850 C 0.23861 0.77475 0.35573 0.0
C851 C 0.23962 0.77111 0.33134 0.0
C852 C 0.21671 0.77579 0.36763 0.0
C853 C 0.19533 0.77287 0.35543 0.0
C854 C 0.19636 0.76845 0.33113 0.0
C855 C 0.2183 0.76768 0.31918 0.0
H856 H 0.54981 0.83917 0.56192 0.0
H857 H 0.51846 0.86415 0.62671 0.0
H858 H 0.54587 0.87776 0.54452 0.0
H859 H 0.51542 0.90296 0.60958 0.0
H860 H 0.54712 0.97425 0.5764 0.0
H861 H 0.54823 0.93523 0.59326 0.0
H862 H 0.50962 0.90678 0.53447 0.0
H863 H 0.50763 0.94609 0.51797 0.0
C864 C 0.54205 0.85285 0.57249 0.0
C865 C 0.53439 0.84833 0.59578 0.0
C866 C 0.53973 0.87501 0.56245 0.0
C867 C 0.53035 0.89363 0.57559 0.0
C868 C 0.52278 0.88915 0.59891 0.0
C869 C 0.52444 0.8668 0.60872 0.0
C870 C 0.53874 0.95974 0.56705 0.0
C871 C 0.52727 0.96352 0.54573 0.0
C872 C 0.53932 0.93731 0.57681 0.0
C873 C 0.52906 0.91771 0.56529 0.0
C874 C 0.51779 0.92139 0.54383 0.0
C875 C 0.51658 0.94398 0.53439 0.0
H876 H 0.51933 0.30986 0.85524 0.0
H877 H 0.48182 0.25322 0.89112 0.0
H878 H 0.48579 0.31372 0.82954 0.0
H879 H 0.4477 0.25755 0.86571 0.0
H880 H 0.39604 0.26326 0.80481 0.0
H881 H 0.43208 0.25481 0.82596 0.0
H882 H 0.44669 0.32863 0.83563 0.0
H883 H 0.41099 0.33698 0.81453 0.0
C884 C 0.50392 0.29812 0.85753 0.0
C885 C 0.50304 0.28142 0.87536 0.0
C886 C 0.48465 0.30042 0.84288 0.0
C887 C 0.46389 0.28626 0.84587 0.0
C888 C 0.46348 0.26868 0.8629 0.0
C889 C 0.48296 0.26623 0.87749 0.0
C890 C 0.40697 0.27765 0.8115 0.0
C891 C 0.40068 0.30081 0.80793 0.0
C892 C 0.4276 0.2728 0.8236 0.0
C893 C 0.44233 0.29103 0.83236 0.0
C894 C 0.43604 0.31416 0.82866 0.0
C895 C 0.41553 0.31898 0.81655 0.0
H896 H 0.03471 0.80904 0.49195 0.0
H897 H 0.00696 0.8339 0.42703 0.0
H898 H 0.01388 0.83943 0.5135 0.0
H899 H 0.98659 0.86429 0.44848 0.0
H900 H 0.94487 0.91321 0.49019 0.0
H901 H 0.95526 0.87389 0.47771 0.0
H902 H 0.02161 0.88179 0.51452 0.0
H903 H 0.01088 0.92064 0.52733 0.0
C904 C 0.02405 0.82085 0.4823 0.0
C905 C 0.02279 0.81932 0.45774 0.0
C906 C 0.01209 0.83817 0.49466 0.0
C907 C 0.99861 0.85418 0.48268 0.0
C908 C 0.99652 0.85198 0.45826 0.0
C909 C 0.00849 0.83474 0.44592 0.0
C910 C 0.96124 0.90614 0.49622 0.0
C911 C 0.97734 0.91998 0.50928 0.0
C912 C 0.96728 0.88377 0.48897 0.0
C913 C 0.98941 0.87497 0.49483 0.0
C914 C 0.0044 0.88804 0.50978 0.0
C915 C 0.99841 0.91036 0.51691 0.0
H916 H 0.45309 0.81096 0.6873 0.0
H917 H 0.46111 0.74459 0.7204 0.0
H918 H 0.41451 0.81496 0.70786 0.0
H919 H 0.42274 0.74852 0.74071 0.0
H920 H 0.34105 0.74942 0.74825 0.0
H921 H 0.38036 0.74775 0.72954 0.0
H922 H 0.39508 0.81967 0.74849 0.0
H923 H 0.35541 0.82135 0.76756 0.0
C924 C 0.44672 0.79727 0.69901 0.0
C925 C 0.4603 0.7774 0.70206 0.0
C926 C 0.42462 0.79962 0.71091 0.0
C927 C 0.41533 0.78201 0.72591 0.0
C928 C 0.4291 0.76233 0.72912 0.0
C929 C 0.45124 0.76012 0.71751 0.0
C930 C 0.3526 0.76494 0.74856 0.0
C931 C 0.34492 0.78552 0.75955 0.0
C932 C 0.37529 0.76392 0.73788 0.0
C933 C 0.39107 0.78352 0.73751 0.0
C934 C 0.3834 0.80425 0.74831 0.0
C935 C 0.36069 0.80518 0.75937 0.0
H936 H 0.59574 0.20841 0.00511 0.0
H937 H 0.54451 0.19662 0.95035 0.0
H938 H 0.5908 0.16771 0.01654 0.0
H939 H 0.53934 0.15605 0.96204 0.0
H940 H 0.55094 0.10114 0.04584 0.0
H941 H 0.55971 0.1415 0.03456 0.0
H942 H 0.56235 0.12046 0.96162 0.0
H943 H 0.55326 0.08033 0.97274 0.0
C944 C 0.58341 0.19714 0.99554 0.0
C945 C 0.57052 0.20568 0.97681 0.0
C946 C 0.58052 0.17389 0.00216 0.0
C947 C 0.56476 0.15873 0.99014 0.0
C948 C 0.55189 0.16727 0.9714 0.0
C949 C 0.55474 0.19053 0.9648 0.0
C950 C 0.5537 0.10511 0.02743 0.0
C951 C 0.55123 0.08762 0.01017 0.0
C952 C 0.55877 0.12819 0.02099 0.0
C953 C 0.56142 0.13412 0.9972 0.0
C954 C 0.55992 0.11645 0.98005 0.0
C955 C 0.55488 0.09345 0.98646 0.0
H956 H 0.12629 0.29902 0.16202 0.0
H957 H 0.08908 0.26624 0.22065 0.0
H958 H 0.16307 0.30059 0.18417 0.0
H959 H 0.12577 0.26805 0.24288 0.0
H960 H 0.20231 0.25215 0.26627 0.0
H961 H 0.16455 0.25152 0.24559 0.0
H962 H 0.1832 0.319 0.21657 0.0
H963 H 0.22091 0.3195 0.23698 0.0
C964 C 0.12583 0.29228 0.17969 0.0
C965 C 0.10445 0.28253 0.18939 0.0
C966 C 0.14703 0.29328 0.19253 0.0
C967 C 0.14769 0.28444 0.21551 0.0
C968 C 0.12626 0.27479 0.22522 0.0
C969 C 0.10504 0.27391 0.21244 0.0
C970 C 0.19826 0.26699 0.25571 0.0
C971 C 0.21485 0.2859 0.25349 0.0
C972 C 0.17648 0.26666 0.24379 0.0
C973 C 0.17059 0.28515 0.22911 0.0
C974 C 0.18704 0.30422 0.22729 0.0
C975 C 0.20872 0.30461 0.23927 0.0
H976 H 0.09382 0.99018 0.24186 0.0
H977 H 0.15685 0.97692 0.19943 0.0
H978 H 0.07003 0.98977 0.20691 0.0
H979 H 0.13273 0.97589 0.16434 0.0
H980 H 0.08882 0.01151 0.10841 0.0
H981 H 0.11277 0.00581 0.14274 0.0
H982 H 0.05433 0.96605 0.17523 0.0
H983 H 0.02994 0.97277 0.14141 0.0
C984 C 0.10254 0.98674 0.22511 0.0
C985 C 0.12728 0.98388 0.22336 0.0
C986 C 0.08885 0.98637 0.20508 0.0
C987 C 0.09958 0.98301 0.18289 0.0
C988 C 0.1241 0.97892 0.18122 0.0
C989 C 0.13785 0.97934 0.2013 0.0
C990 C 0.08098 1.00179 0.12296 0.0
C991 C 0.05741 0.99275 0.12226 0.0
C992 C 0.09485 0.99817 0.14246 0.0
C993 C 0.08544 0.98538 0.16159 0.0
C994 C 0.06199 0.9761 0.16078 0.0
C995 C 0.04809 0.97981 0.14134 0.0
H996 H 0.28058 0.8286 0.52767 0.0
H997 H 0.23949 0.87301 0.4846 0.0
H998 H 0.29561 0.80887 0.49264 0.0
H999 H 0.25488 0.85357 0.44954 0.0
H1000 H 0.27462 0.80385 0.39141 0.0
H1001 H 0.25569 0.81761 0.42721 0.0
H1002 H 0.32385 0.81997 0.46108 0.0
H1003 H 0.34292 0.80577 0.42495 0.0
C1004 C 0.27443 0.83389 0.51073 0.0
C1005 C 0.25897 0.85248 0.50886 0.0
C1006 C 0.28325 0.82273 0.49067 0.0
C1007 C 0.27679 0.82993 0.46833 0.0
C1008 C 0.26014 0.84754 0.46653 0.0
C1009 C 0.25127 0.85868 0.48662 0.0
C1010 C 0.2857 0.80739 0.40636 0.0
C1011 C 0.31042 0.80397 0.40518 0.0
C1012 C 0.27476 0.81526 0.42696 0.0
C1013 C 0.28824 0.82001 0.44695 0.0
C1014 C 0.3129 0.81617 0.44602 0.0
C1015 C 0.32387 0.80815 0.42534 0.0
H1016 H 0.45499 0.07433 0.69766 0.0
H1017 H 0.40185 0.02693 0.66809 0.0
H1018 H 0.47518 0.07739 0.65961 0.0
H1019 H 0.42265 0.02914 0.63019 0.0
H1020 H 0.45557 0.04843 0.56088 0.0
H1021 H 0.43317 0.05348 0.59756 0.0
H1022 H 0.49888 0.05281 0.63574 0.0
H1023 H 0.52126 0.04877 0.59911 0.0
C1024 C 0.44773 0.06446 0.68302 0.0
C1025 C 0.42704 0.05019 0.68579 0.0
C1026 C 0.4593 0.06619 0.66126 0.0
C1027 C 0.4506 0.0534 0.64196 0.0
C1028 C 0.42959 0.0395 0.64465 0.0
C1029 C 0.4178 0.03805 0.66637 0.0
C1030 C 0.4652 0.04973 0.57712 0.0
C1031 C 0.49009 0.04806 0.57725 0.0
C1032 C 0.45238 0.05247 0.5981 0.0
C1033 C 0.46423 0.05331 0.61953 0.0
C1034 C 0.48924 0.05254 0.6195 0.0
C1035 C 0.50207 0.0501 0.59853 0.0
H1036 H 0.29314 0.17702 0.9452 0.0
H1037 H 0.26501 0.24158 0.97091 0.0
H1038 H 0.29837 0.19385 0.9059 0.0
H1039 H 0.27122 0.25866 0.93183 0.0
H1040 H 0.3147 0.28301 0.86108 0.0
H1041 H 0.31149 0.26658 0.90081 0.0
H1042 H 0.26435 0.21153 0.87543 0.0
H1043 H 0.26669 0.22839 0.83609 0.0
C1044 C 0.28837 0.1949 0.9426 0.0
C1045 C 0.27863 0.20787 0.96138 0.0
C1046 C 0.29131 0.20452 0.92002 0.0
C1047 C 0.2853 0.22766 0.91566 0.0
C1048 C 0.27617 0.24085 0.93455 0.0
C1049 C 0.27255 0.23101 0.95697 0.0
C1050 C 0.30371 0.26737 0.86395 0.0
C1051 C 0.29095 0.2571 0.84526 0.0
C1052 C 0.30179 0.25801 0.88676 0.0
C1053 C 0.28768 0.23768 0.89136 0.0
C1054 C 0.27543 0.22712 0.87255 0.0
C1055 C 0.27675 0.23685 0.84997 0.0
H1056 H 0.07779 0.99042 0.33291 0.0
H1057 H 0.14262 0.97769 0.3693 0.0
H1058 H 0.0552 0.98835 0.36984 0.0
H1059 H 0.11992 0.97595 0.40655 0.0
H1060 H 0.01951 0.97756 0.44105 0.0
H1061 H 0.0427 0.96414 0.40682 0.0
H1062 H 0.10026 0.01259 0.42466 0.0
H1063 H 0.07718 0.02619 0.45839 0.0
C1064 C 0.08707 0.98656 0.34878 0.0
C1065 C 0.11192 0.98454 0.34844 0.0
C1066 C 0.07412 0.98519 0.36986 0.0
C1067 C 0.0859 0.98219 0.39097 0.0
C1068 C 0.11052 0.97836 0.39043 0.0
C1069 C 0.12345 0.97929 0.36919 0.0
C1070 C 0.03719 0.98515 0.43769 0.0
C1071 C 0.04641 0.00319 0.45205 0.0
C1072 C 0.05045 0.9774 0.41826 0.0
C1073 C 0.07328 0.98722 0.41331 0.0
C1074 C 0.08285 0.00448 0.42831 0.0
C1075 C 0.06949 0.01251 0.44739 0.0
H1076 H 0.21776 0.85761 0.62002 0.0
H1077 H 0.25782 0.91508 0.65134 0.0
H1078 H 0.21847 0.83648 0.65674 0.0
H1079 H 0.25964 0.89357 0.68773 0.0
H1080 H 0.25126 0.85453 0.75475 0.0
H1081 H 0.24019 0.87723 0.72113 0.0
H1082 H 0.24804 0.8166 0.67632 0.0
H1083 H 0.25796 0.79374 0.71011 0.0
C1084 C 0.22659 0.86576 0.63486 0.0
C1085 C 0.23797 0.88783 0.63284 0.0
C1086 C 0.22713 0.85361 0.65583 0.0
C1087 C 0.23947 0.86313 0.67506 0.0
C1088 C 0.24977 0.88578 0.67337 0.0
C1089 C 0.24885 0.8981 0.65249 0.0
C1090 C 0.25036 0.84605 0.73771 0.0
C1091 C 0.25562 0.82245 0.73494 0.0
C1092 C 0.24412 0.85906 0.71846 0.0
C1093 C 0.24336 0.84881 0.69599 0.0
C1094 C 0.24803 0.82499 0.69341 0.0
C1095 C 0.25391 0.8119 0.71273 0.0
H1096 H 0.48779 0.03616 0.79485 0.0
H1097 H 0.44312 0.08828 0.82621 0.0
H1098 H 0.50901 0.03341 0.83088 0.0
H1099 H 0.46548 0.08656 0.86235 0.0
H1100 H 0.47732 0.04261 0.92875 0.0
H1101 H 0.46451 0.05887 0.89212 0.0
H1102 H 0.53373 0.04586 0.86057 0.0
H1103 H 0.54572 0.02826 0.89706 0.0
C1104 C 0.48301 0.04765 0.80926 0.0
C1105 C 0.46335 0.06198 0.80792 0.0
C1106 C 0.49541 0.04624 0.83 0.0
C1107 C 0.48868 0.0594 0.84984 0.0
C1108 C 0.47067 0.07565 0.84763 0.0
C1109 C 0.458 0.07683 0.82686 0.0
C1110 C 0.48978 0.04353 0.91399 0.0
C1111 C 0.51224 0.03382 0.9154 0.0
C1112 C 0.48261 0.05309 0.89303 0.0
C1113 C 0.49799 0.05354 0.87317 0.0
C1114 C 0.52116 0.04527 0.87526 0.0
C1115 C 0.52809 0.0352 0.89608 0.0
H1116 H 0.30149 0.1675 0.11333 0.0
H1117 H 0.26947 0.22839 0.08588 0.0
H1118 H 0.30457 0.18636 0.15153 0.0
H1119 H 0.27215 0.24727 0.12452 0.0
H1120 H 0.28361 0.21548 0.22395 0.0
H1121 H 0.28215 0.19766 0.18499 0.0
H1122 H 0.29721 0.26488 0.15379 0.0
H1123 H 0.29822 0.28276 0.19288 0.0
C1124 C 0.29506 0.18497 0.11535 0.0
C1125 C 0.28517 0.19626 0.09618 0.0
C1126 C 0.29667 0.19582 0.13753 0.0
C1127 C 0.28846 0.21845 0.14159 0.0
C1128 C 0.27892 0.22996 0.12231 0.0
C1129 C 0.27728 0.21905 0.10002 0.0
C1130 C 0.28684 0.2265 0.20884 0.0
C1131 C 0.2912 0.25065 0.21185 0.0
C1132 C 0.28607 0.21621 0.1863 0.0
C1133 C 0.28958 0.22965 0.16582 0.0
C1134 C 0.2941 0.25382 0.16888 0.0
C1135 C 0.29493 0.26411 0.19145 0.0
H1136 H 0.22414 0.0878 0.04455 0.0
H1137 H 0.1921 0.1447 0.00958 0.0
H1138 H 0.18636 0.06527 0.04301 0.0
H1139 H 0.15437 0.12231 0.00823 0.0
H1140 H 0.09626 0.06898 0.98837 0.0
H1141 H 0.13504 0.08924 0.98955 0.0
H1142 H 0.14552 0.06269 0.05891 0.0
H1143 H 0.10648 0.0421 0.05764 0.0
C1144 C 0.2091 0.09556 0.03647 0.0
C1145 C 0.21145 0.1182 0.02712 0.0
C1146 C 0.18727 0.08263 0.03574 0.0
C1147 C 0.16706 0.09178 0.02544 0.0
C1148 C 0.16947 0.11438 0.01602 0.0
C1149 C 0.19121 0.12737 0.0169 0.0
C1150 C 0.10684 0.06718 0.00385 0.0
C1151 C 0.09801 0.05372 0.0229 0.0
C1152 C 0.12915 0.07908 0.00461 0.0
C1153 C 0.1436 0.07797 0.02442 0.0
C1154 C 0.13511 0.06395 0.04325 0.0
C1155 C 0.11263 0.05209 0.04255 0.0
H1156 H 0.67979 0.4443 0.06687 0.0
H1157 H 0.69676 0.50656 0.10736 0.0
H1158 H 0.64053 0.45888 0.05917 0.0
H1159 H 0.65734 0.52108 0.09965 0.0
H1160 H 0.5653 0.48176 0.06498 0.0
H1161 H 0.60238 0.46853 0.08082 0.0
H1162 H 0.63743 0.53436 0.06297 0.0
H1163 H 0.60035 0.54774 0.0472 0.0
C1164 C 0.67509 0.46104 0.07421 0.0
C1165 C 0.69135 0.47435 0.0876 0.0
C1166 C 0.65255 0.46927 0.06999 0.0
C1167 C 0.64594 0.49103 0.07894 0.0
C1168 C 0.66209 0.50427 0.09252 0.0
C1169 C 0.68458 0.49594 0.09692 0.0
C1170 C 0.58078 0.4936 0.06484 0.0
C1171 C 0.58003 0.51569 0.05459 0.0
C1172 C 0.602 0.48596 0.0738 0.0
C1173 C 0.62275 0.50033 0.07282 0.0
C1174 C 0.62162 0.52298 0.064 0.0
C1175 C 0.60044 0.53059 0.05489 0.0
H1176 H 0.83399 0.48395 0.26899 0.0
H1177 H 0.90744 0.47193 0.28524 0.0
H1178 H 0.82142 0.44891 0.29024 0.0
H1179 H 0.89472 0.43696 0.30666 0.0
H1180 H 0.86057 0.3607 0.30733 0.0
H1181 H 0.87702 0.39837 0.29431 0.0
H1182 H 0.81981 0.43267 0.33119 0.0
H1183 H 0.80323 0.39472 0.34398 0.0
C1184 C 0.84744 0.47386 0.2771 0.0
C1185 C 0.87172 0.48059 0.27528 0.0
C1186 C 0.84021 0.45398 0.28952 0.0
C1187 C 0.85711 0.44043 0.30025 0.0
C1188 C 0.88136 0.44715 0.29851 0.0
C1189 C 0.88861 0.46711 0.2862 0.0
C1190 C 0.85187 0.37638 0.31302 0.0
C1191 C 0.83058 0.37497 0.32638 0.0
C1192 C 0.86131 0.39789 0.30571 0.0
C1193 C 0.84948 0.41834 0.31154 0.0
C1194 C 0.82906 0.41707 0.32627 0.0
C1195 C 0.81973 0.39548 0.33376 0.0
H1196 H 0.85333 0.62094 0.49901 0.0
H1197 H 0.83767 0.58638 0.56468 0.0
H1198 H 0.89168 0.60185 0.49615 0.0
H1199 H 0.87574 0.56734 0.56179 0.0
H1200 H 0.95676 0.55964 0.56344 0.0
H1201 H 0.91812 0.57767 0.56461 0.0
H1202 H 0.9104 0.5635 0.49065 0.0
H1203 H 0.94934 0.54542 0.48944 0.0
C1204 C 0.85796 0.6092 0.51278 0.0
C1205 C 0.84231 0.60532 0.53211 0.0
C1206 C 0.87995 0.59814 0.51109 0.0
C1207 C 0.88701 0.58309 0.5288 0.0
C1208 C 0.87118 0.57904 0.54796 0.0
C1209 C 0.84919 0.5899 0.54954 0.0
C1210 C 0.94686 0.56027 0.54738 0.0
C1211 C 0.95627 0.55093 0.52636 0.0
C1212 C 0.92455 0.57055 0.54809 0.0
C1213 C 0.91093 0.57204 0.52776 0.0
C1214 C 0.92039 0.56285 0.50664 0.0
C1215 C 0.94268 0.55232 0.50598 0.0
H1216 H 0.22243 0.06302 0.26583 0.0
H1217 H 0.16517 0.0778 0.31525 0.0
H1218 H 0.23847 0.10254 0.27051 0.0
H1219 H 0.1813 0.1177 0.31969 0.0
H1220 H 0.23811 0.17559 0.34075 0.0
H1221 H 0.2184 0.13724 0.33614 0.0
H1222 H 0.22685 0.14252 0.26089 0.0
H1223 H 0.24716 0.18037 0.26549 0.0
C1224 C 0.21319 0.07472 0.27763 0.0
C1225 C 0.19253 0.06729 0.29019 0.0
C1226 C 0.22231 0.09741 0.28017 0.0
C1227 C 0.21102 0.11314 0.29534 0.0
C1228 C 0.19037 0.1058 0.30796 0.0
C1229 C 0.18112 0.08305 0.30534 0.0
C1230 C 0.2358 0.16849 0.32326 0.0
C1231 C 0.24432 0.18087 0.30349 0.0
C1232 C 0.22428 0.14673 0.32062 0.0
C1233 C 0.22123 0.13697 0.29817 0.0
C1234 C 0.2292 0.1496 0.2784 0.0
C1235 C 0.24063 0.17134 0.28103 0.0
H1236 H 0.32573 0.91359 0.53711 0.0
H1237 H 0.30083 0.98338 0.54781 0.0
H1238 H 0.36263 0.9294 0.51971 0.0
H1239 H 0.33825 0.99925 0.53077 0.0
H1240 H 0.39987 0.01825 0.47963 0.0
H1241 H 0.36128 1.00159 0.49324 0.0
H1242 H 0.39759 0.95084 0.53339 0.0
H1243 H 0.4358 0.96688 0.51918 0.0
C1244 C 0.32819 0.93234 0.53592 0.0
C1245 C 0.3104 0.94725 0.54401 0.0
C1246 C 0.34937 0.94138 0.52595 0.0
C1247 C 0.35335 0.96555 0.52393 0.0
C1248 C 0.33554 0.98052 0.53185 0.0
C1249 C 0.31423 0.97145 0.5418 0.0
C1250 C 0.39949 0.00327 0.49101 0.0
C1251 C 0.42079 0.99392 0.49847 0.0
C1252 C 0.37747 0.99394 0.49902 0.0
C1253 C 0.37645 0.97501 0.51448 0.0
C1254 C 0.39777 0.9653 0.52134 0.0
C1255 C 0.41967 0.97462 0.51339 0.0
H1256 H 0.8732 0.61375 0.26778 0.0
H1257 H 0.81973 0.59471 0.21692 0.0
H1258 H 0.85888 0.65324 0.26934 0.0
H1259 H 0.80578 0.6344 0.21809 0.0
H1260 H 0.77185 0.70059 0.2494 0.0
H1261 H 0.78546 0.66101 0.24474 0.0
H1262 H 0.85866 0.68719 0.24402 0.0
H1263 H 0.84512 0.72674 0.24926 0.0
C1264 C 0.85838 0.61799 0.25696 0.0
C1265 C 0.84758 0.60117 0.24224 0.0
C1266 C 0.85033 0.64065 0.25768 0.0
C1267 C 0.8314 0.64693 0.24363 0.0
C1268 C 0.82032 0.63 0.2292 0.0
C1269 C 0.82833 0.6073 0.22853 0.0
C1270 C 0.79084 0.69793 0.24791 0.0
C1271 C 0.80743 0.71671 0.24989 0.0
C1272 C 0.79862 0.67527 0.24519 0.0
C1273 C 0.82311 0.67103 0.24433 0.0
C1274 C 0.83967 0.68994 0.24514 0.0
C1275 C 0.83191 0.71258 0.24794 0.0
H1276 H 0.69967 0.44388 0.8271 0.0
H1277 H 0.74772 0.47664 0.77609 0.0
H1278 H 0.72987 0.41597 0.83579 0.0
H1279 H 0.77815 0.4492 0.78526 0.0
H1280 H 0.79476 0.3705 0.77367 0.0
H1281 H 0.77709 0.40834 0.77399 0.0
H1282 H 0.76978 0.40604 0.84957 0.0
H1283 H 0.78748 0.36763 0.84915 0.0
C1284 C 0.71689 0.44547 0.81819 0.0
C1285 C 0.72116 0.46196 0.80048 0.0
C1286 C 0.7343 0.42966 0.82335 0.0
C1287 C 0.75627 0.43025 0.81097 0.0
C1288 C 0.76122 0.44811 0.79477 0.0
C1289 C 0.74377 0.46374 0.78947 0.0
C1290 C 0.78998 0.37835 0.79041 0.0
C1291 C 0.79212 0.3661 0.81134 0.0
C1292 C 0.78003 0.40014 0.79064 0.0
C1293 C 0.77187 0.41009 0.81182 0.0
C1294 C 0.77574 0.39865 0.833 0.0
C1295 C 0.78597 0.3768 0.83277 0.0
H1296 H 1.0037 0.86688 0.91704 0.0
H1297 H 0.04744 0.84176 0.97191 0.0
H1298 H 0.00642 0.9059 0.93385 0.0
H1299 H 0.05083 0.88118 0.98849 0.0
H1300 H 0.03553 0.95127 0.02492 0.0
H1301 H 0.03304 0.91181 0.00895 0.0
H1302 H 0.03032 0.93951 0.939 0.0
H1303 H 0.03202 0.97908 0.95521 0.0
C1304 C 0.01394 0.8696 0.93277 0.0
C1305 C 0.02528 0.8508 0.94302 0.0
C1306 C 0.01574 0.89228 0.94236 0.0
C1307 C 0.0291 0.89727 0.96257 0.0
C1308 C 0.04014 0.87835 0.9731 0.0
C1309 C 0.03823 0.85555 0.96353 0.0
C1310 C 0.03456 0.94904 0.00608 0.0
C1311 C 0.03403 0.96867 0.99146 0.0
C1312 C 0.03322 0.92618 0.99682 0.0
C1313 C 0.03134 0.92195 0.9725 0.0
C1314 C 0.03126 0.94167 0.95783 0.0
C1315 C 0.0325 0.96457 0.96713 0.0
H1316 H 0.98415 0.27551 0.7312 0.0
H1317 H 0.9408 0.30011 0.67576 0.0
H1318 H 0.95327 0.28487 0.76 0.0
H1319 H 0.90894 0.30777 0.70412 0.0
H1320 H 0.85935 0.33384 0.75834 0.0
H1321 H 0.89519 0.33113 0.73374 0.0
H1322 H 0.91683 0.27298 0.77502 0.0
H1323 H 0.88193 0.27729 0.8006 0.0
C1324 C 0.96776 0.28259 0.72519 0.0
C1325 C 0.96471 0.287 0.70132 0.0
C1326 C 0.94997 0.28789 0.74168 0.0
C1327 C 0.92843 0.29711 0.73456 0.0
C1328 C 0.92543 0.3013 0.7105 0.0
C1329 C 0.94355 0.29664 0.69411 0.0
C1330 C 0.8723 0.32104 0.76247 0.0
C1331 C 0.8682 0.3059 0.78133 0.0
C1332 C 0.89262 0.31915 0.74817 0.0
C1333 C 0.90879 0.30145 0.75191 0.0
C1334 C 0.90508 0.28702 0.77161 0.0
C1335 C 0.88509 0.28943 0.78636 0.0
H1336 H 0.5558 0.20251 0.42757 0.0
H1337 H 0.49205 0.21802 0.46747 0.0
H1338 H 0.55633 0.16422 0.44562 0.0
H1339 H 0.49232 0.17918 0.48534 0.0
H1340 H 0.48724 0.09634 0.48754 0.0
H1341 H 0.48669 0.13628 0.4728 0.0
H1342 H 0.56221 0.14472 0.4842 0.0
H1343 H 0.56269 0.105 0.49935 0.0
C1344 C 0.54192 0.19786 0.44036 0.0
C1345 C 0.52393 0.21367 0.44602 0.0
C1346 C 0.54228 0.17577 0.45081 0.0
C1347 C 0.52436 0.1683 0.46701 0.0
C1348 C 0.50638 0.18412 0.47286 0.0
C1349 C 0.50632 0.20655 0.46274 0.0
C1350 C 0.50375 0.1067 0.48701 0.0
C1351 C 0.52503 0.09716 0.49468 0.0
C1352 C 0.50339 0.12976 0.47866 0.0
C1353 C 0.52439 0.144 0.47721 0.0
C1354 C 0.54567 0.13442 0.48486 0.0
C1355 C 0.54593 0.11154 0.49365 0.0
H1356 H 0.55916 0.74883 0.19374 0.0
H1357 H 0.59856 0.8036 0.15662 0.0
H1358 H 0.59185 0.74577 0.22065 0.0
H1359 H 0.6316 0.80008 0.18327 0.0
H1360 H 0.67966 0.79944 0.24647 0.0
H1361 H 0.64414 0.80574 0.22372 0.0
H1362 H 0.63166 0.73125 0.21766 0.0
H1363 H 0.66688 0.72503 0.24039 0.0
C1364 C 0.57481 0.76023 0.19132 0.0
C1365 C 0.57639 0.7763 0.17291 0.0
C1366 C 0.59356 0.75841 0.20671 0.0
C1367 C 0.61437 0.77252 0.20394 0.0
C1368 C 0.61568 0.78911 0.18598 0.0
C1369 C 0.59683 0.79103 0.17063 0.0
C1370 C 0.66927 0.78446 0.24027 0.0
C1371 C 0.67606 0.76175 0.24519 0.0
C1372 C 0.64897 0.78806 0.22726 0.0
C1373 C 0.63512 0.76899 0.21891 0.0
C1374 C 0.6417 0.74631 0.22421 0.0
C1375 C 0.66191 0.74274 0.23724 0.0
H1376 H 0.03945 0.25049 0.56856 0.0
H1377 H 0.01413 0.20644 0.62559 0.0
H1378 H 0.04389 0.21629 0.54352 0.0
H1379 H 0.01901 0.17221 0.60058 0.0
H1380 H 0.00775 0.11852 0.54388 0.0
H1381 H 1.00165 0.15385 0.56606 0.0
H1382 H 0.06944 0.18235 0.54026 0.0
H1383 H 0.07523 0.14695 0.5169 0.0
C1384 C 0.03476 0.23352 0.57576 0.0
C1385 C 0.02642 0.23117 0.5991 0.0
C1386 C 0.03749 0.21394 0.56143 0.0
C1387 C 0.03189 0.19161 0.57011 0.0
C1388 C 0.02321 0.18926 0.59333 0.0
C1389 C 0.02047 0.20885 0.60767 0.0
C1390 C 0.02122 0.13238 0.54234 0.0
C1391 C 0.04201 0.12985 0.52837 0.0
C1392 C 0.01782 0.15257 0.55545 0.0
C1393 C 0.03514 0.17076 0.55508 0.0
C1394 C 0.0557 0.16861 0.54077 0.0
C1395 C 0.05912 0.14831 0.52755 0.0
H1396 H 0.59279 0.24941 0.3313 0.0
H1397 H 0.61074 0.29647 0.38815 0.0
H1398 H 0.63389 0.25182 0.31685 0.0
H1399 H 0.65231 0.29807 0.37448 0.0
H1400 H 0.72288 0.31117 0.33366 0.0
H1401 H 0.68136 0.31083 0.34747 0.0
H1402 H 0.67185 0.23978 0.32267 0.0
H1403 H 0.71284 0.24068 0.30794 0.0
C1404 C 0.60557 0.26025 0.34081 0.0
C1405 C 0.59831 0.27275 0.36092 0.0
C1406 C 0.62937 0.26147 0.33264 0.0
C1407 C 0.64695 0.27493 0.34452 0.0
C1408 C 0.63954 0.2877 0.36452 0.0
C1409 C 0.61559 0.28673 0.3725 0.0
C1410 C 0.71189 0.29548 0.33119 0.0
C1411 C 0.7213 0.276 0.31955 0.0
C1412 C 0.68798 0.2952 0.33925 0.0
C1413 C 0.67275 0.27532 0.33619 0.0
C1414 C 0.68249 0.2557 0.32495 0.0
C1415 C 0.70624 0.25611 0.31662 0.0
H1416 H 0.48123 0.85168 0.10623 0.0
H1417 H 0.54484 0.85026 0.06214 0.0
H1418 H 0.47014 0.8878 0.08741 0.0
H1419 H 0.53388 0.886 0.0436 0.0
H1420 H 0.49136 0.96815 0.07546 0.0
H1421 H 0.48879 0.92809 0.08883 0.0
H1422 H 0.50406 0.9039 0.0183 0.0
H1423 H 0.50693 0.94418 0.00486 0.0
C1424 C 0.49269 0.85894 0.09242 0.0
C1425 C 0.51404 0.84835 0.08585 0.0
C1426 C 0.48633 0.87953 0.08164 0.0
C1427 C 0.50106 0.88958 0.06393 0.0
C1428 C 0.52193 0.87845 0.05687 0.0
C1429 C 0.52838 0.85813 0.06775 0.0
C1430 C 0.49354 0.95427 0.06266 0.0
C1431 C 0.49983 0.95928 0.0392 0.0
C1432 C 0.49189 0.9313 0.07031 0.0
C1433 C 0.49659 0.91294 0.05467 0.0
C1434 C 0.50069 0.91782 0.03077 0.0
C1435 C 0.50222 0.94084 0.02307 0.0
H1436 H 0.96696 0.81379 0.82381 0.0
H1437 H 0.94045 0.76409 0.87507 0.0
H1438 H 0.92949 0.80996 0.80323 0.0
H1439 H 0.90239 0.76094 0.85515 0.0
H1440 H 0.84086 0.74622 0.80556 0.0
H1441 H 0.87992 0.74766 0.82367 0.0
H1442 H 0.89006 0.81963 0.80324 0.0
H1443 H 0.85164 0.81774 0.78435 0.0
C1444 C 0.95306 0.80209 0.83081 0.0
C1445 C 0.95691 0.78928 0.85121 0.0
C1446 C 0.93131 0.8 0.81904 0.0
C1447 C 0.91237 0.78524 0.82738 0.0
C1448 C 0.91638 0.77226 0.84775 0.0
C1449 C 0.93829 0.77416 0.85937 0.0
C1450 C 0.85158 0.76226 0.80468 0.0
C1451 C 0.84298 0.78179 0.79325 0.0
C1452 C 0.87402 0.76321 0.81535 0.0
C1453 C 0.88859 0.78381 0.81521 0.0
C1454 C 0.87993 0.80324 0.80354 0.0
C1455 C 0.85764 0.80221 0.79268 0.0
H1456 H 0.92651 0.08012 0.82186 0.0
H1457 H 0.99128 0.05184 0.79277 0.0
H1458 H 0.94407 0.08154 0.86064 0.0
H1459 H 0.00876 0.05331 0.83157 0.0
H1460 H 0.03844 0.08217 0.90133 0.0
H1461 H 0.02165 0.08324 0.86225 0.0
H1462 H 0.95634 0.05018 0.88892 0.0
H1463 H 0.97309 0.04937 0.92813 0.0
C1464 C 0.94457 0.07448 0.82369 0.0
C1465 C 0.95751 0.06579 0.80433 0.0
C1466 C 0.95452 0.07513 0.84589 0.0
C1467 C 0.97764 0.06736 0.84904 0.0
C1468 C 0.99091 0.05948 0.82955 0.0
C1469 C 0.98089 0.0586 0.80739 0.0
C1470 C 0.02046 0.07525 0.89883 0.0
C1471 C 0.007 0.06573 0.9177 0.0
C1472 C 0.01095 0.07572 0.87649 0.0
C1473 C 0.98771 0.0669 0.87268 0.0
C1474 C 0.97424 0.05732 0.89151 0.0
C1475 C 0.98387 0.05662 0.91382 0.0
H1476 H 0.83111 0.19472 0.61445 0.0
H1477 H 0.79868 0.24895 0.57546 0.0
H1478 H 0.82684 0.21782 0.65031 0.0
H1479 H 0.7946 0.272 0.61131 0.0
H1480 H 0.75682 0.28298 0.68392 0.0
H1481 H 0.76784 0.26549 0.64637 0.0
H1482 H 0.83872 0.25489 0.67116 0.0
H1483 H 0.82795 0.27282 0.70861 0.0
C1484 C 0.82358 0.21177 0.6134 0.0
C1485 C 0.81493 0.21983 0.59213 0.0
C1486 C 0.82118 0.22502 0.63396 0.0
C1487 C 0.81005 0.24654 0.63363 0.0
C1488 C 0.80286 0.25527 0.61212 0.0
C1489 C 0.80535 0.2421 0.59157 0.0
C1490 C 0.77486 0.27732 0.68131 0.0
C1491 C 0.79137 0.27917 0.69946 0.0
C1492 C 0.7812 0.2673 0.65975 0.0
C1493 C 0.80415 0.25883 0.65586 0.0
C1494 C 0.82083 0.26105 0.67378 0.0
C1495 C 0.81456 0.27122 0.69529 0.0
H1496 H 0.58454 0.98741 0.33803 0.0
H1497 H 0.65073 0.01232 0.36788 0.0
H1498 H 0.5662 0.98494 0.37704 0.0
H1499 H 0.632 0.01194 0.40696 0.0
H1500 H 0.59406 0.00229 0.47692 0.0
H1501 H 0.61449 0.99343 0.43971 0.0
H1502 H 0.55176 0.01249 0.40252 0.0
H1503 H 0.53126 0.01972 0.43935 0.0
C1504 C 0.59509 0.99232 0.35311 0.0
C1505 C 0.6188 1.00029 0.35025 0.0
C1506 C 0.58461 0.99113 0.37541 0.0
C1507 C 0.59738 0.99887 0.39515 0.0
C1508 C 0.62162 0.0057 0.39225 0.0
C1509 C 0.63234 0.00611 0.36991 0.0
C1510 C 0.58471 0.00426 0.46069 0.0
C1511 C 0.56112 0.01157 0.46092 0.0
C1512 C 0.59638 0.9993 0.4394 0.0
C1513 C 0.58477 0.00207 0.41803 0.0
C1514 C 0.56112 0.0094 0.41852 0.0
C1515 C 0.54937 0.01381 0.43969 0.0
H1516 H 0.77965 0.8292 0.07772 0.0
H1517 H 0.78133 0.89503 0.11485 0.0
H1518 H 0.78061 0.80872 0.11544 0.0
H1519 H 0.783 0.87472 0.15211 0.0
H1520 H 0.81431 0.83036 0.21136 0.0
H1521 H 0.81293 0.84902 0.17302 0.0
H1522 H 0.75361 0.80334 0.15428 0.0
H1523 H 0.7545 0.78506 0.19302 0.0
C1524 C 0.78027 0.83935 0.09382 0.0
C1525 C 0.78031 0.8639 0.09298 0.0
C1526 C 0.78075 0.82758 0.11551 0.0
C1527 C 0.78198 0.83999 0.137 0.0
C1528 C 0.78223 0.86449 0.13606 0.0
C1529 C 0.78114 0.87617 0.11455 0.0
C1530 C 0.80097 0.82419 0.19911 0.0
C1531 C 0.78451 0.80611 0.20553 0.0
C1532 C 0.80013 0.83499 0.17706 0.0
C1533 C 0.78317 0.82777 0.16034 0.0
C1534 C 0.76703 0.80933 0.16653 0.0
C1535 C 0.76749 0.79889 0.18885 0.0
H1536 H 0.89372 0.0734 0.66174 0.0
H1537 H 0.9657 0.08543 0.68573 0.0
H1538 H 0.90899 0.06959 0.6215 0.0
H1539 H 0.98085 0.08155 0.64563 0.0
H1540 H 1.00107 0.08132 0.56904 0.0
H1541 H 0.98165 0.09636 0.60446 0.0
H1542 H 0.93292 0.03638 0.60526 0.0
H1543 H 0.95216 0.02137 0.56972 0.0
C1544 C 0.9127 0.07592 0.65835 0.0
C1545 C 0.92858 0.0793 0.67689 0.0
C1546 C 0.92142 0.07357 0.63537 0.0
C1547 C 0.94609 0.0749 0.63059 0.0
C1548 C 0.96174 0.08048 0.64883 0.0
C1549 C 0.95307 0.0826 0.6718 0.0
C1550 C 0.98608 0.07143 0.57666 0.0
C1551 C 0.97829 0.05001 0.5668 0.0
C1552 C 0.97498 0.08009 0.59688 0.0
C1553 C 0.95579 0.06757 0.6075 0.0
C1554 C 0.94748 0.04655 0.5972 0.0
C1555 C 0.95867 0.03781 0.57705 0.0
H1556 H 0.79144 0.24057 0.46445 0.0
H1557 H 0.81896 0.1719 0.45341 0.0
H1558 H 0.79757 0.24872 0.42282 0.0
H1559 H 0.82456 0.18003 0.41138 0.0
H1560 H 0.83511 0.26551 0.35581 0.0
H1561 H 0.83855 0.24988 0.39502 0.0
H1562 H 0.79029 0.19254 0.37726 0.0
H1563 H 0.78656 0.20835 0.33767 0.0
C1564 C 0.79883 0.22727 0.45312 0.0
C1565 C 0.8048 0.20568 0.46209 0.0
C1566 C 0.8024 0.23194 0.42939 0.0
C1567 C 0.8116 0.21497 0.41414 0.0
C1568 C 0.81749 0.1933 0.42295 0.0
C1569 C 0.81438 0.18877 0.44689 0.0
C1570 C 0.82576 0.24918 0.36 0.0
C1571 C 0.81019 0.23833 0.34395 0.0
C1572 C 0.82779 0.24029 0.38239 0.0
C1573 C 0.81441 0.22031 0.38905 0.0
C1574 C 0.80078 0.208 0.37233 0.0
C1575 C 0.79868 0.21699 0.34976 0.0
H1576 H 0.64517 0.9796 0.19712 0.0
H1577 H 0.58546 0.97907 0.24639 0.0
H1578 H 0.61798 0.98301 0.16496 0.0
H1579 H 0.55813 0.98194 0.21406 0.0
H1580 H 0.53121 0.03358 0.1584 0.0
H1581 H 0.55201 0.01612 0.19037 0.0
H1582 H 0.58548 0.96891 0.14134 0.0
H1583 H 0.56599 0.9871 0.10937 0.0
C1584 C 0.62618 0.97933 0.20102 0.0
C1585 C 0.61748 0.97969 0.22427 0.0
C1586 C 0.61053 0.98123 0.18256 0.0
C1587 C 0.58595 0.9833 0.18708 0.0
C1588 C 0.57706 0.98099 0.21016 0.0
C1589 C 0.5927 0.97921 0.22862 0.0
C1590 C 0.54293 0.01946 0.15444 0.0
C1591 C 0.54705 0.01206 0.13121 0.0
C1592 C 0.55456 0.00915 0.17281 0.0
C1593 C 0.57044 0.99115 0.16832 0.0
C1594 C 0.57352 0.98288 0.1453 0.0
C1595 C 0.56208 0.99328 0.12695 0.0
H1596 H 0.75663 0.88604 0.94574 0.0
H1597 H 0.80404 0.83035 0.95848 0.0
H1598 H 0.75128 0.87161 0.90544 0.0
H1599 H 0.79853 0.81585 0.91847 0.0
H1600 H 0.7645 0.78161 0.85386 0.0
H1601 H 0.76772 0.79702 0.89366 0.0
H1602 H 0.77377 0.86691 0.86676 0.0
H1603 H 0.77076 0.85138 0.82656 0.0
C1604 C 0.7658 0.87063 0.94006 0.0
C1605 C 0.78071 0.85937 0.95561 0.0
C1606 C 0.76286 0.86243 0.91681 0.0
C1607 C 0.7744 0.84245 0.90846 0.0
C1608 C 0.7891 0.8311 0.92415 0.0
C1609 C 0.79234 0.8395 0.9472 0.0
C1610 C 0.7663 0.80032 0.85627 0.0
C1611 C 0.76727 0.81516 0.8367 0.0
C1612 C 0.76836 0.80918 0.87926 0.0
C1613 C 0.77119 0.83329 0.88369 0.0
C1614 C 0.77149 0.84827 0.8642 0.0
C1615 C 0.76977 0.83934 0.84105 0.0
H1616 H 0.83366 0.97233 0.05025 0.0
H1617 H 0.86145 0.92682 0.99635 0.0
H1618 H 0.87109 0.9956 0.04909 0.0
H1619 H 0.89873 0.95042 0.99491 0.0
H1620 H 0.95435 0.01216 0.98462 0.0
H1621 H 0.91524 0.99153 0.98423 0.0
H1622 H 0.91431 0.98938 0.0598 0.0
H1623 H 0.95348 0.00948 0.06018 0.0
C1624 C 0.84762 0.96738 0.03795 0.0
C1625 C 0.84435 0.94757 0.02341 0.0
C1626 C 0.86919 0.98071 0.03738 0.0
C1627 C 0.88806 0.97498 0.0219 0.0
C1628 C 0.88459 0.95552 0.00693 0.0
C1629 C 0.86319 0.9419 0.00784 0.0
C1630 C 0.94566 0.00759 1.00117 0.0
C1631 C 0.95714 0.01269 0.02244 0.0
C1632 C 0.9233 0.99555 1.00094 0.0
C1633 C 0.9115 0.98868 0.02199 0.0
C1634 C 0.92267 0.99449 0.04325 0.0
C1635 C 0.9452 0.00604 0.04346 0.0
H1636 H 0.39524 0.63952 0.99617 0.0
H1637 H 0.34634 0.57987 0.99577 0.0
H1638 H 0.42677 0.61569 0.98041 0.0
H1639 H 0.3771 0.55619 0.97788 0.0
H1640 H 0.44529 0.51831 0.99603 0.0
H1641 H 0.40894 0.53862 0.99239 0.0
H1642 H 0.44709 0.59332 0.95376 0.0
H1643 H 0.48417 0.57349 0.95913 0.0
C1644 C 0.39118 0.62136 0.99204 0.0
C1645 C 0.36878 0.61124 0.99774 0.0
C1646 C 0.40913 0.60768 0.98264 0.0
C1647 C 0.40474 0.58373 0.97811 0.0
C1648 C 0.38147 0.57429 0.98185 0.0
C1649 C 0.36381 0.58781 0.99205 0.0
C1650 C 0.44588 0.53433 0.98613 0.0
C1651 C 0.46769 0.54476 0.97866 0.0
C1652 C 0.42482 0.54605 0.98386 0.0
C1653 C 0.42507 0.56823 0.97356 0.0
C1654 C 0.44638 0.57681 0.96276 0.0
C1655 C 0.46762 0.56531 0.96556 0.0
H1656 H 0.21947 0.56525 0.79349 0.0
H1657 H 0.15152 0.58853 0.77039 0.0
H1658 H 0.23678 0.60431 0.78833 0.0
H1659 H 0.16903 0.62791 0.76525 0.0
H1660 H 0.22221 0.68203 0.72815 0.0
H1661 H 0.20145 0.64469 0.73662 0.0
H1662 H 0.23279 0.64465 0.80511 0.0
H1663 H 0.25378 0.68151 0.79649 0.0
C1664 C 0.20817 0.57883 0.7876 0.0
C1665 C 0.18422 0.57392 0.78221 0.0
C1666 C 0.21806 0.60117 0.78474 0.0
C1667 C 0.20422 0.61896 0.77627 0.0
C1668 C 0.18005 0.61432 0.7716 0.0
C1669 C 0.17003 0.59193 0.77473 0.0
C1670 C 0.22471 0.67389 0.7449 0.0
C1671 C 0.23957 0.68453 0.76166 0.0
C1672 C 0.21263 0.65279 0.74987 0.0
C1673 C 0.21549 0.642 0.77156 0.0
C1674 C 0.23035 0.65266 0.78826 0.0
C1675 C 0.24225 0.67375 0.78337 0.0
H1676 H 0.202 0.46052 0.57213 0.0
H1677 H 0.20182 0.43639 0.50033 0.0
H1678 H 0.1626 0.47572 0.56782 0.0
H1679 H 0.16282 0.453 0.49527 0.0
H1680 H 0.08313 0.4693 0.4973 0.0
H1681 H 0.12228 0.45252 0.50097 0.0
H1682 H 0.13985 0.50388 0.55446 0.0
H1683 H 0.10041 0.51932 0.55173 0.0
C1684 C 0.19365 0.45874 0.55524 0.0
C1685 C 0.20528 0.44723 0.53659 0.0
C1686 C 0.17091 0.46773 0.55261 0.0
C1687 C 0.15904 0.46609 0.53103 0.0
C1688 C 0.17081 0.45451 0.51232 0.0
C1689 C 0.19343 0.44506 0.51514 0.0
C1690 C 0.09542 0.47694 0.50984 0.0
C1691 C 0.08842 0.49561 0.5243 0.0
C1692 C 0.1181 0.46739 0.51191 0.0
C1693 C 0.13474 0.47647 0.52824 0.0
C1694 C 0.12773 0.49563 0.54217 0.0
C1695 C 0.10497 0.50479 0.54044 0.0
H1696 H 0.84265 0.00613 0.76553 0.0
H1697 H 0.90683 0.97787 0.7351 0.0
H1698 H 0.82374 0.96721 0.76589 0.0
H1699 H 0.88767 0.93891 0.73526 0.0
H1700 H 0.82759 0.88593 0.70797 0.0
H1701 H 0.85059 0.92272 0.71182 0.0
H1702 H 0.82994 0.92668 0.78512 0.0
H1703 H 0.80698 0.88981 0.78124 0.0
C1704 C 0.85275 0.99157 0.75909 0.0
C1705 C 0.87613 0.99497 0.75015 0.0
C1706 C 0.842 0.96935 0.75945 0.0
C1707 C 0.85432 0.95026 0.75055 0.0
C1708 C 0.87787 0.9535 0.74211 0.0
C1709 C 0.88879 0.9757 0.74211 0.0
C1710 C 0.82803 0.8947 0.72486 0.0
C1711 C 0.81549 0.88525 0.74429 0.0
C1712 C 0.84133 0.91552 0.72712 0.0
C1713 C 0.84198 0.92733 0.74877 0.0
C1714 C 0.82963 0.91779 0.76827 0.0
C1715 C 0.81663 0.89678 0.76608 0.0
H1716 H 0.71605 0.1643 0.53398 0.0
H1717 H 0.75568 0.10299 0.54797 0.0
H1718 H 0.67894 0.14112 0.53651 0.0
H1719 H 0.71863 0.07964 0.54966 0.0
H1720 H 0.64665 0.05095 0.57691 0.0
H1721 H 0.68383 0.07382 0.57418 0.0
H1722 H 0.65682 0.11142 0.51576 0.0
H1723 H 0.61912 0.08961 0.51942 0.0
C1724 C 0.71684 0.14584 0.53742 0.0
C1725 C 0.73875 0.13547 0.54085 0.0
C1726 C 0.69559 0.13252 0.53872 0.0
C1727 C 0.69585 0.10853 0.54324 0.0
C1728 C 0.71781 0.09815 0.54652 0.0
C1729 C 0.73904 0.11151 0.54544 0.0
C1730 C 0.6485 0.06424 0.56364 0.0
C1731 C 0.62978 0.06847 0.54848 0.0
C1732 C 0.66997 0.07715 0.56187 0.0
C1733 C 0.67327 0.09445 0.54477 0.0
C1734 C 0.65472 0.09843 0.52935 0.0
C1735 C 0.63318 0.08566 0.53124 0.0
H1736 H 0.2458 0.46828 0.80077 0.0
H1737 H 0.17955 0.42801 0.79764 0.0
H1738 H 0.26602 0.43407 0.81392 0.0
H1739 H 0.19977 0.39333 0.8084 0.0
H1740 H 0.2369 0.331 0.82327 0.0
H1741 H 0.21963 0.36872 0.83118 0.0
H1742 H 0.27985 0.40248 0.79473 0.0
H1743 H 0.29768 0.36523 0.78896 0.0
C1744 C 0.23566 0.452 0.80295 0.0
C1745 C 0.21138 0.45041 0.79785 0.0
C1746 C 0.24717 0.43238 0.81035 0.0
C1747 C 0.23478 0.41064 0.81167 0.0
C1748 C 0.21003 0.40964 0.80794 0.0
C1749 C 0.19839 0.42946 0.80143 0.0
C1750 C 0.24657 0.34669 0.8176 0.0
C1751 C 0.26832 0.34539 0.80521 0.0
C1752 C 0.23668 0.36827 0.82195 0.0
C1753 C 0.24794 0.38876 0.81308 0.0
C1754 C 0.27061 0.38734 0.80216 0.0
C1755 C 0.28082 0.36588 0.79856 0.0
H1756 H 0.32864 0.59265 0.258 0.0
H1757 H 0.39438 0.6182 0.28858 0.0
H1758 H 0.30758 0.6245 0.2767 0.0
H1759 H 0.37381 0.65078 0.3061 0.0
H1760 H 0.33411 0.7099 0.33483 0.0
H1761 H 0.34569 0.66938 0.33093 0.0
H1762 H 0.30844 0.66354 0.2654 0.0
H1763 H 0.29625 0.70314 0.26978 0.0
C1764 C 0.33849 0.60496 0.26896 0.0
C1765 C 0.36318 0.60336 0.27144 0.0
C1766 C 0.32649 0.62322 0.27962 0.0
C1767 C 0.3391 0.64057 0.29239 0.0
C1768 C 0.36344 0.63774 0.29651 0.0
C1769 C 0.37533 0.61916 0.28627 0.0
C1770 C 0.32802 0.6997 0.3199 0.0
C1771 C 0.31461 0.70979 0.30243 0.0
C1772 C 0.3347 0.67654 0.31762 0.0
C1773 C 0.32818 0.66321 0.29777 0.0
C1774 C 0.31352 0.67302 0.28113 0.0
C1775 C 0.30674 0.69596 0.2835 0.0
H1776 H 0.53989 0.72347 0.57712 0.0
H1777 H 0.50571 0.69618 0.64003 0.0
H1778 H 0.53767 0.68448 0.55927 0.0
H1779 H 0.50314 0.65754 0.6222 0.0
H1780 H 0.52337 0.5855 0.59317 0.0
H1781 H 0.52495 0.62459 0.61067 0.0
H1782 H 0.51293 0.65417 0.54289 0.0
H1783 H 0.51174 0.6152 0.52544 0.0
C1784 C 0.5317 0.70929 0.58713 0.0
C1785 C 0.523 0.71335 0.61015 0.0
C1786 C 0.53033 0.68676 0.57682 0.0
C1787 C 0.52029 0.66739 0.58916 0.0
C1788 C 0.5114 0.67161 0.61208 0.0
C1789 C 0.5127 0.69405 0.62232 0.0
C1790 C 0.52087 0.6003 0.58199 0.0
C1791 C 0.5173 0.59687 0.5578 0.0
C1792 C 0.52172 0.62291 0.59208 0.0
C1793 C 0.51912 0.64301 0.57836 0.0
C1794 C 0.51538 0.63946 0.55418 0.0
C1795 C 0.51446 0.61689 0.54413 0.0
H1796 H 0.61046 0.27773 0.86926 0.0
H1797 H 0.65084 0.29251 0.93164 0.0
H1798 H 0.64726 0.27875 0.8457 0.0
H1799 H 0.68745 0.29466 0.90806 0.0
H1800 H 0.71735 0.30383 0.8085 0.0
H1801 H 0.67924 0.30272 0.83024 0.0
H1802 H 0.71269 0.26921 0.88789 0.0
H1803 H 0.75063 0.2714 0.86672 0.0
C1804 C 0.62719 0.28153 0.87787 0.0
C1805 C 0.62785 0.28484 0.90231 0.0
C1806 C 0.64826 0.28221 0.86436 0.0
C1807 C 0.67036 0.28651 0.87499 0.0
C1808 C 0.67083 0.29065 0.89935 0.0
C1809 C 0.64983 0.2896 0.91288 0.0
C1810 C 0.71636 0.29606 0.82573 0.0
C1811 C 0.73688 0.28788 0.83604 0.0
C1812 C 0.69458 0.29538 0.83819 0.0
C1813 C 0.69298 0.28622 0.861 0.0
C1814 C 0.71339 0.27705 0.8707 0.0
C1815 C 0.73511 0.27808 0.85846 0.0
H1816 H 0.01083 0.35262 0.11427 0.0
H1817 H 0.07913 0.34568 0.07919 0.0
H1818 H 0.00741 0.39124 0.09695 0.0
H1819 H 0.07579 0.38415 0.06203 0.0
H1820 H 0.07499 0.46423 0.05718 0.0
H1821 H 0.07693 0.42529 0.0735 0.0
H1822 H 1.00234 0.41247 0.05959 0.0
H1823 H 1.00042 0.45164 0.04305 0.0
C1824 C 0.02511 0.35922 0.1028 0.0
C1825 C 0.04528 0.34578 0.09825 0.0
C1826 C 0.02309 0.38143 0.09274 0.0
C1827 C 0.04135 0.39116 0.07804 0.0
C1828 C 0.06144 0.3776 0.07343 0.0
C1829 C 0.0633 0.35533 0.08322 0.0
C1830 C 0.05893 0.45318 0.0575 0.0
C1831 C 0.03754 0.46133 0.04863 0.0
C1832 C 0.06009 0.43064 0.06682 0.0
C1833 C 0.03984 0.41538 0.06793 0.0
C1834 C 0.01833 0.4236 0.05926 0.0
C1835 C 0.01724 0.44611 0.04961 0.0
H1836 H 0.98238 0.74268 0.37028 0.0
H1837 H 0.02055 0.79334 0.32684 0.0
H1838 H 0.94713 0.74618 0.34631 0.0
H1839 H 0.98568 0.79641 0.30264 0.0
H1840 H 0.88964 0.75251 0.29122 0.0
H1841 H 0.92754 0.74212 0.3078 0.0
H1842 H 0.94847 0.81509 0.31283 0.0
H1843 H 0.91082 0.82543 0.29658 0.0
C1844 C 0.98347 0.75397 0.35517 0.0
C1845 C 1.00401 0.76805 0.35064 0.0
C1846 C 0.96331 0.75597 0.34144 0.0
C1847 C 0.9635 0.77197 0.32292 0.0
C1848 C 0.98481 0.78438 0.31716 0.0
C1849 C 0.00482 0.78252 0.33094 0.0
C1850 C 0.90232 0.76632 0.29591 0.0
C1851 C 0.89712 0.78984 0.29259 0.0
C1852 C 0.92405 0.76034 0.30532 0.0
C1853 C 0.94106 0.77775 0.31144 0.0
C1854 C 0.93598 0.8012 0.30779 0.0
C1855 C 0.91432 0.80717 0.29848 0.0
H1856 H 0.51157 0.33589 0.95914 0.0
H1857 H 0.5547 0.31589 0.01699 0.0
H1858 H 0.49449 0.36626 0.98332 0.0
H1859 H 0.53714 0.34626 0.04144 0.0
H1860 H 0.53249 0.42805 0.05212 0.0
H1861 H 0.54216 0.38872 0.03999 0.0
H1862 H 0.46972 0.37621 0.01756 0.0
H1863 H 0.46035 0.41595 0.029 0.0
C1864 C 0.51718 0.33776 0.97714 0.0
C1865 C 0.53479 0.32373 0.98602 0.0
C1866 C 0.50711 0.35499 0.99113 0.0
C1867 C 0.51442 0.3586 0.01433 0.0
C1868 C 0.53128 0.34393 0.02357 0.0
C1869 C 0.54134 0.3266 0.00955 0.0
C1870 C 0.51852 0.41667 0.04511 0.0
C1871 C 0.49589 0.42519 0.0409 0.0
C1872 C 0.52397 0.39406 0.03838 0.0
C1873 C 0.50681 0.37957 0.02736 0.0
C1874 C 0.48341 0.38721 0.02561 0.0
C1875 C 0.47797 0.40988 0.03235 0.0
H1876 H 0.95324 0.28952 0.1736 0.0
H1877 H 0.98063 0.25768 0.23514 0.0
H1878 H 0.91418 0.29251 0.19346 0.0
H1879 H 0.94182 0.26139 0.2552 0.0
H1880 H 0.87342 0.29703 0.28823 0.0
H1881 H 0.913 0.29637 0.26885 0.0
H1882 H 0.88235 0.25982 0.20971 0.0
H1883 H 0.84308 0.25977 0.22928 0.0
C1884 C 0.95104 0.28343 0.19145 0.0
C1885 C 0.97011 0.27332 0.20273 0.0
C1886 C 0.92863 0.28507 0.20279 0.0
C1887 C 0.9249 0.27722 0.22593 0.0
C1888 C 0.94415 0.26773 0.23745 0.0
C1889 C 0.96636 0.26552 0.2259 0.0
C1890 C 0.87514 0.28887 0.2711 0.0
C1891 C 0.85505 0.27837 0.26039 0.0
C1892 C 0.89781 0.28844 0.26003 0.0
C1893 C 0.90081 0.27809 0.23771 0.0
C1894 C 0.88063 0.26805 0.22682 0.0
C1895 C 0.85814 0.26793 0.23811 0.0
H1896 H 0.06061 0.68547 0.42449 0.0
H1897 H 0.06083 0.70925 0.49653 0.0
H1898 H 0.05857 0.6452 0.43753 0.0
H1899 H 0.05696 0.66921 0.50978 0.0
H1900 H 0.06729 0.59539 0.5294 0.0
H1901 H 0.07565 0.63448 0.51432 0.0
H1902 H 0.03294 0.61751 0.45375 0.0
H1903 H 0.02624 0.57827 0.46803 0.0
C1904 C 0.05983 0.68199 0.44313 0.0
C1905 C 0.06079 0.7003 0.45954 0.0
C1906 C 0.05858 0.65894 0.45066 0.0
C1907 C 0.05756 0.65381 0.47477 0.0
C1908 C 0.0583 0.67234 0.49111 0.0
C1909 C 0.06022 0.69533 0.48356 0.0
C1910 C 0.06009 0.60005 0.51269 0.0
C1911 C 0.04619 0.5839 0.49985 0.0
C1912 C 0.06464 0.62248 0.50412 0.0
C1913 C 0.05478 0.62935 0.48287 0.0
C1914 C 0.04126 0.61287 0.46991 0.0
C1915 C 0.03727 0.59033 0.47817 0.0
H1916 H 0.57939 0.76882 0.71753 0.0
H1917 H 0.61664 0.80092 0.65855 0.0
H1918 H 0.61623 0.77045 0.7396 0.0
H1919 H 0.65351 0.80228 0.68048 0.0
H1920 H 0.69289 0.75432 0.76274 0.0
H1921 H 0.65494 0.75376 0.74236 0.0
H1922 H 0.67391 0.82081 0.7125 0.0
H1923 H 0.7118 0.82121 0.73257 0.0
C1924 C 0.59539 0.77629 0.70921 0.0
C1925 C 0.59477 0.78478 0.68611 0.0
C1926 C 0.61669 0.77707 0.72189 0.0
C1927 C 0.63815 0.7865 0.71201 0.0
C1928 C 0.63745 0.79516 0.68898 0.0
C1929 C 0.61619 0.79427 0.67626 0.0
C1930 C 0.68887 0.76908 0.75205 0.0
C1931 C 0.7056 0.78783 0.74948 0.0
C1932 C 0.66699 0.76879 0.74031 0.0
C1933 C 0.66113 0.78718 0.72549 0.0
C1934 C 0.67772 0.80611 0.72334 0.0
C1935 C 0.6995 0.80644 0.73512 0.0
H1936 H 0.58275 0.50338 0.745 0.0
H1937 H 0.64277 0.47056 0.71105 0.0
H1938 H 0.56231 0.50344 0.70787 0.0
H1939 H 0.62192 0.47049 0.67381 0.0
H1940 H 0.56137 0.45709 0.61859 0.0
H1941 H 0.5818 0.45323 0.65575 0.0
H1942 H 0.57416 0.52667 0.66965 0.0
H1943 H 0.55376 0.53051 0.63247 0.0
C1944 C 0.59144 0.49583 0.72973 0.0
C1945 C 0.6145 0.48718 0.73088 0.0
C1946 C 0.57977 0.49602 0.70849 0.0
C1947 C 0.59079 0.4873 0.68812 0.0
C1948 C 0.61319 0.47736 0.68941 0.0
C1949 C 0.62506 0.47742 0.71066 0.0
C1950 C 0.56408 0.47235 0.62966 0.0
C1951 C 0.55595 0.49408 0.62291 0.0
C1952 C 0.57584 0.47016 0.65072 0.0
C1953 C 0.57929 0.48961 0.66544 0.0
C1954 C 0.57144 0.5114 0.65857 0.0
C1955 C 0.56 0.51365 0.63734 0.0
H1956 H 0.78682 0.34302 0.0408 0.0
H1957 H 0.74022 0.3834 0.99928 0.0
H1958 H 0.79878 0.3212 0.00593 0.0
H1959 H 0.75259 0.36187 0.96422 0.0
H1960 H 0.8407 0.31654 0.93522 0.0
H1961 H 0.82373 0.33135 0.972 0.0
H1962 H 0.75313 0.32475 0.94338 0.0
H1963 H 0.77013 0.31011 0.90669 0.0
C1964 C 0.77884 0.34699 0.02426 0.0
C1965 C 0.76275 0.36508 0.02271 0.0
C1966 C 0.78585 0.33461 0.00425 0.0
C1967 C 0.777 0.34009 0.98224 0.0
C1968 C 0.75968 0.35715 0.98094 0.0
C1969 C 0.75258 0.3695 1.00102 0.0
C1970 C 0.82156 0.31797 0.93695 0.0
C1971 C 0.80683 0.3125 0.91798 0.0
C1972 C 0.81179 0.32638 0.95801 0.0
C1973 C 0.78705 0.32934 0.96057 0.0
C1974 C 0.77226 0.32308 0.94183 0.0
C1975 C 0.78204 0.31475 0.92079 0.0
H1976 H 0.96018 0.57076 0.19952 0.0
H1977 H 0.90549 0.53243 0.16139 0.0
H1978 H 0.98428 0.57453 0.16365 0.0
H1979 H 0.92988 0.53555 0.12573 0.0
H1980 H 0.96996 0.55596 0.06144 0.0
H1981 H 0.94601 0.56216 0.09684 0.0
H1982 H 0.00698 0.54859 0.13901 0.0
H1983 H 0.03122 0.54323 0.10346 0.0
C1984 C 0.9533 0.56317 0.18346 0.0
C1985 C 0.93104 0.55113 0.18324 0.0
C1986 C 0.96713 0.56529 0.16297 0.0
C1987 C 0.95901 0.5553 0.14193 0.0
C1988 C 0.93647 0.54378 0.14161 0.0
C1989 C 0.92255 0.54182 0.16206 0.0
C1990 C 0.97834 0.5547 0.07829 0.0
C1991 C 1.00231 0.54882 0.07983 0.0
C1992 C 0.9646 0.55813 0.09853 0.0
C1993 C 0.9745 0.55545 0.12066 0.0
C1994 C 0.99889 0.55092 0.12218 0.0
C1995 C 0.01275 0.54776 0.10187 0.0
H1996 H 0.74126 0.72714 0.45865 0.0
H1997 H 0.8067 0.69077 0.44889 0.0
H1998 H 0.74603 0.7431 0.41931 0.0
H1999 H 0.81149 0.70677 0.40929 0.0
H2000 H 0.8222 0.75777 0.34588 0.0
H2001 H 0.81943 0.7426 0.386 0.0
H2002 H 0.74361 0.73049 0.37875 0.0
H2003 H 0.74635 0.74555 0.33902 0.0
C2004 C 0.75677 0.72258 0.44818 0.0
C2005 C 0.77354 0.70754 0.45718 0.0
C2006 C 0.75944 0.73166 0.42541 0.0
C2007 C 0.7791 0.72622 0.41076 0.0
C2008 C 0.79619 0.71157 0.41994 0.0
C2009 C 0.79339 0.70228 0.44271 0.0
C2010 C 0.80494 0.75188 0.35285 0.0
C2011 C 0.78452 0.75303 0.339 0.0
C2012 C 0.80335 0.74303 0.3759 0.0
C2013 C 0.78124 0.73534 0.38595 0.0
C2014 C 0.76091 0.73651 0.37199 0.0
C2015 C 0.76253 0.74508 0.34899 0.0
H2016 H 0.64099 0.47051 0.87033 0.0
H2017 H 0.57009 0.48325 0.84673 0.0
H2018 H 0.62483 0.46327 0.90992 0.0
H2019 H 0.55401 0.47581 0.88597 0.0
H2020 H 0.58969 0.51532 0.96697 0.0
H2021 H 0.60879 0.49859 0.9324 0.0
H2022 H 0.54794 0.45131 0.92341 0.0
H2023 H 0.52888 0.46795 0.95865 0.0
C2024 C 0.62188 0.47084 0.8734 0.0
C2025 C 0.6068 0.47803 0.85579 0.0
C2026 C 0.61266 0.46663 0.89598 0.0
C2027 C 0.58826 0.46926 0.90099 0.0
C2028 C 0.57287 0.47354 0.88259 0.0
C2029 C 0.58211 0.47809 0.86019 0.0
C2030 C 0.58067 0.50094 0.95796 0.0
C2031 C 0.55767 0.49321 0.965 0.0
C2032 C 0.59174 0.49111 0.93838 0.0
C2033 C 0.57979 0.47368 0.92524 0.0
C2034 C 0.5575 0.46469 0.93333 0.0
C2035 C 0.54659 0.47426 0.95333 0.0
H2036 H 0.77012 0.41982 0.16789 0.0
H2037 H 0.73091 0.36591 0.13004 0.0
H2038 H 0.77215 0.39426 0.20142 0.0
H2039 H 0.73181 0.34067 0.16399 0.0
H2040 H 0.76991 0.29257 0.21352 0.0
H2041 H 0.76077 0.31876 0.18202 0.0
H2042 H 0.75211 0.37474 0.23255 0.0
H2043 H 0.76248 0.34873 0.26386 0.0
C2044 C 0.76146 0.40268 0.16698 0.0
C2045 C 0.75064 0.39469 0.14633 0.0
C2046 C 0.76248 0.38804 0.18624 0.0
C2047 C 0.75232 0.3653 0.18533 0.0
C2048 C 0.74032 0.35786 0.16507 0.0
C2049 C 0.73968 0.37235 0.14568 0.0
C2050 C 0.76584 0.31042 0.21786 0.0
C2051 C 0.76713 0.31873 0.24101 0.0
C2052 C 0.76042 0.32542 0.19985 0.0
C2053 C 0.75579 0.34892 0.20474 0.0
C2054 C 0.75607 0.35689 0.22811 0.0
C2055 C 0.7619 0.34199 0.24606 0.0
H2056 H 0.91794 0.56492 0.33178 0.0
H2057 H 0.98488 0.55297 0.29563 0.0
H2058 H 0.93633 0.55765 0.36911 0.0
H2059 H 1.00365 0.54667 0.33301 0.0
H2060 H 0.0139 0.49663 0.39372 0.0
H2061 H 0.99988 0.51372 0.35808 0.0
H2062 H 0.96406 0.56618 0.39917 0.0
H2063 H 0.97672 0.54821 0.43483 0.0
C2064 C 0.93685 0.56176 0.33194 0.0
C2065 C 0.94993 0.55913 0.3109 0.0
C2066 C 0.94743 0.55753 0.35334 0.0
C2067 C 0.97132 0.55093 0.35397 0.0
C2068 C 0.98502 0.55096 0.33304 0.0
C2069 C 0.97436 0.55484 0.31167 0.0
C2070 C 1.00289 0.51167 0.39521 0.0
C2071 C 0.99647 0.52092 0.41724 0.0
C2072 C 0.99519 0.52178 0.37472 0.0
C2073 C 0.98103 0.54151 0.37575 0.0
C2074 C 0.97486 0.55096 0.39775 0.0
C2075 C 0.98237 0.54072 0.41824 0.0
H2076 H 0.79601 0.66848 0.61019 0.0
H2077 H 0.76372 0.72871 0.58163 0.0
H2078 H 0.79787 0.68755 0.64837 0.0
H2079 H 0.76518 0.7478 0.62024 0.0
H2080 H 0.78953 0.7839 0.68897 0.0
H2081 H 0.78952 0.76584 0.64995 0.0
H2082 H 0.77429 0.69866 0.6812 0.0
H2083 H 0.77474 0.71668 0.72012 0.0
C2084 C 0.78926 0.68586 0.61196 0.0
C2085 C 0.77966 0.6969 0.59249 0.0
C2086 C 0.79017 0.69681 0.63412 0.0
C2087 C 0.78151 0.71931 0.63785 0.0
C2088 C 0.77226 0.73059 0.61828 0.0
C2089 C 0.77133 0.71957 0.59601 0.0
C2090 C 0.78638 0.76523 0.68757 0.0
C2091 C 0.78232 0.75183 0.70796 0.0
C2092 C 0.78614 0.75483 0.66504 0.0
C2093 C 0.7819 0.73062 0.66203 0.0
C2094 C 0.77801 0.71725 0.6825 0.0
C2095 C 0.77819 0.72765 0.705 0.0
H2096 H 0.6894 0.6448 0.50637 0.0
H2097 H 0.7212 0.58662 0.5394 0.0
H2098 H 0.65135 0.62306 0.5052 0.0
H2099 H 0.68312 0.56465 0.53789 0.0
H2100 H 0.59065 0.57189 0.48717 0.0
H2101 H 0.62999 0.59133 0.48702 0.0
H2102 H 0.64335 0.5622 0.55472 0.0
H2103 H 0.60403 0.54238 0.55466 0.0
C2104 C 0.6884 0.62729 0.51324 0.0
C2105 C 0.70863 0.61761 0.52297 0.0
C2106 C 0.66646 0.61467 0.51245 0.0
C2107 C 0.66386 0.5919 0.52141 0.0
C2108 C 0.68415 0.58217 0.53104 0.0
C2109 C 0.70615 0.59477 0.53175 0.0
C2110 C 0.60203 0.56937 0.50195 0.0
C2111 C 0.59397 0.55541 0.52091 0.0
C2112 C 0.62464 0.58077 0.50197 0.0
C2113 C 0.64008 0.57865 0.52094 0.0
C2114 C 0.63225 0.5642 0.53965 0.0
C2115 C 0.60956 0.55281 0.53966 0.0
H2116 H 0.16339 0.92195 0.5639 0.0
H2117 H 0.18928 0.99359 0.56477 0.0
H2118 H 0.12271 0.93465 0.55975 0.0
H2119 H 0.14918 0.00642 0.55878 0.0
H2120 H 0.07496 0.02796 0.56322 0.0
H2121 H 0.11233 0.01195 0.57519 0.0
H2122 H 0.09646 0.9496 0.5342 0.0
H2123 H 0.05831 0.96501 0.52407 0.0
C2124 C 0.16033 0.94042 0.5628 0.0
C2125 C 0.17933 0.95683 0.5646 0.0
C2126 C 0.13705 0.94775 0.56036 0.0
C2127 C 0.13242 0.97164 0.55903 0.0
C2128 C 0.15173 0.98794 0.56045 0.0
C2129 C 0.17483 0.98061 0.56356 0.0
C2130 C 0.07932 0.01059 0.55735 0.0
C2131 C 0.06393 0.99769 0.54276 0.0
C2132 C 0.10088 1.00149 0.56388 0.0
C2133 C 0.10788 0.97966 0.5552 0.0
C2134 C 0.09176 0.96634 0.54148 0.0
C2135 C 0.06986 0.97516 0.53558 0.0
H2136 H 0.40381 0.97865 0.79405 0.0
H2137 H 0.3314 0.99847 0.78238 0.0
H2138 H 0.38864 0.94325 0.81343 0.0
H2139 H 0.31642 0.96313 0.80152 0.0
H2140 H 0.29407 0.90367 0.84642 0.0
H2141 H 0.3142 0.94153 0.83955 0.0
H2142 H 0.36736 0.90819 0.79614 0.0
H2143 H 0.34755 0.87046 0.80342 0.0
C2144 C 0.38469 0.97558 0.79582 0.0
C2145 C 0.36877 0.99112 0.7864 0.0
C2146 C 0.37607 0.95538 0.80693 0.0
C2147 C 0.35142 0.95056 0.80895 0.0
C2148 C 0.33552 0.96661 0.80048 0.0
C2149 C 0.34411 0.9867 0.78926 0.0
C2150 C 0.31041 0.90445 0.83596 0.0
C2151 C 0.31909 0.88433 0.82508 0.0
C2152 C 0.32182 0.92604 0.83194 0.0
C2153 C 0.34215 0.92771 0.81716 0.0
C2154 C 0.35179 0.90736 0.80772 0.0
C2155 C 0.3403 0.88584 0.81161 0.0
H2156 H 0.3397 0.08359 0.06366 0.0
H2157 H 0.3569 0.12308 1.00121 0.0
H2158 H 0.37759 0.06441 0.05986 0.0
H2159 H 0.39517 0.10394 0.9975 0.0
H2160 H 0.45807 0.05617 0.06318 0.0
H2161 H 0.41944 0.07403 0.06461 0.0
H2162 H 0.4147 0.06661 0.98945 0.0
H2163 H 0.4538 0.04876 0.98797 0.0
C2164 C 0.35153 0.08818 0.04904 0.0
C2165 C 0.34513 0.10502 0.0328 0.0
C2166 C 0.37343 0.07723 0.04693 0.0
C2167 C 0.38972 0.08268 0.02847 0.0
C2168 C 0.3831 0.09913 0.01187 0.0
C2169 C 0.36116 0.11021 0.01405 0.0
C2170 C 0.44885 0.05823 0.04689 0.0
C2171 C 0.45917 0.05087 0.02546 0.0
C2172 C 0.42651 0.06841 0.04774 0.0
C2173 C 0.41369 0.07173 0.02718 0.0
C2174 C 0.42404 0.06451 0.00565 0.0
C2175 C 0.44642 0.05412 0.00481 0.0
H2176 H 0.70091 0.56856 0.76767 0.0
H2177 H 0.65011 0.583 0.82368 0.0
H2178 H 0.71662 0.6083 0.7699 0.0
H2179 H 0.66592 0.62331 0.82567 0.0
H2180 H 0.72756 0.67963 0.84007 0.0
H2181 H 0.70491 0.64266 0.83757 0.0
H2182 H 0.7046 0.64826 0.76212 0.0
H2183 H 0.72799 0.68461 0.76449 0.0
C2184 C 0.69297 0.58028 0.78038 0.0
C2185 C 0.67434 0.57262 0.7956 0.0
C2186 C 0.70185 0.60313 0.78148 0.0
C2187 C 0.69236 0.61888 0.79784 0.0
C2188 C 0.67356 0.61141 0.81295 0.0
C2189 C 0.6645 0.58844 0.81176 0.0
C2190 C 0.72267 0.67295 0.82297 0.0
C2191 C 0.72988 0.68486 0.80246 0.0
C2192 C 0.70941 0.65199 0.82157 0.0
C2193 C 0.70318 0.64259 0.79965 0.0
C2194 C 0.70942 0.65504 0.77923 0.0
C2195 C 0.72267 0.67594 0.78062 0.0
H2196 H 0.81351 0.49827 0.0738 0.0
H2197 H 0.82371 0.43309 0.03682 0.0
H2198 H 0.84958 0.51473 0.05466 0.0
H2199 H 0.85973 0.44941 0.01816 0.0
H2200 H 0.9144 0.48974 0.97481 0.0
H2201 H 0.87429 0.47897 0.98972 0.0
H2202 H 0.89237 0.50773 0.05765 0.0
H2203 H 0.93189 0.51906 0.04258 0.0
C2204 C 0.8234 0.48749 0.06161 0.0
C2205 C 0.81587 0.46434 0.05697 0.0
C2206 C 0.84401 0.4969 0.05067 0.0
C2207 C 0.85737 0.48335 0.03489 0.0
C2208 C 0.84957 0.46038 0.02995 0.0
C2209 C 0.82906 0.45097 0.04087 0.0
C2210 C 0.90956 0.49405 0.99278 0.0
C2211 C 0.92629 0.50482 0.00766 0.0
C2212 C 0.88675 0.48779 1.00135 0.0
C2213 C 0.88033 0.49238 0.02488 0.0
C2214 C 0.89675 0.50411 0.03941 0.0
C2215 C 0.9195 0.51028 0.03087 0.0
H2216 H 0.38082 0.12241 0.76999 0.0
H2217 H 0.32756 0.1047 0.7185 0.0
H2218 H 0.36809 0.16248 0.77072 0.0
H2219 H 0.31536 0.14491 0.71867 0.0
H2220 H 0.35296 0.23639 0.75499 0.0
H2221 H 0.36744 0.19747 0.74731 0.0
H2222 H 0.2947 0.17005 0.7457 0.0
H2223 H 0.28025 0.20889 0.75261 0.0
C2224 C 0.36652 0.12714 0.75872 0.0
C2225 C 0.355 0.11045 0.74437 0.0
C2226 C 0.3594 0.15011 0.75895 0.0
C2227 C 0.34079 0.1568 0.74469 0.0
C2228 C 0.32957 0.14016 0.73005 0.0
C2229 C 0.33655 0.11716 0.72996 0.0
C2230 C 0.3401 0.22209 0.75258 0.0
C2231 C 0.3155 0.22558 0.75461 0.0
C2232 C 0.34838 0.19983 0.74835 0.0
C2233 C 0.33219 0.18074 0.74619 0.0
C2234 C 0.3076 0.18446 0.74707 0.0
C2235 C 0.29932 0.20671 0.75115 0.0
H2236 H 0.25601 0.95947 0.25782 0.0
H2237 H 0.21117 0.93712 0.31662 0.0
H2238 H 0.2817 0.92694 0.2639 0.0
H2239 H 0.23692 0.90441 0.32253 0.0
H2240 H 0.29427 0.85201 0.33243 0.0
H2241 H 0.27899 0.89142 0.3315 0.0
H2242 H 0.2705 0.88468 0.25661 0.0
H2243 H 0.28558 0.84556 0.2575 0.0
C2244 C 0.25183 0.94782 0.27226 0.0
C2245 C 0.23132 0.95054 0.28648 0.0
C2246 C 0.26657 0.92925 0.27574 0.0
C2247 C 0.26112 0.91312 0.29351 0.0
C2248 C 0.24159 0.91674 0.30879 0.0
C2249 C 0.22676 0.93533 0.30528 0.0
C2250 C 0.2896 0.85922 0.31574 0.0
C2251 C 0.29089 0.84578 0.29504 0.0
C2252 C 0.28079 0.88164 0.31525 0.0
C2253 C 0.2736 0.89099 0.29401 0.0
C2254 C 0.27619 0.87798 0.27318 0.0
C2255 C 0.28465 0.85554 0.27371 0.0
H2256 H 0.48102 0.35543 0.45672 0.0
H2257 H 0.55717 0.35233 0.44618 0.0
H2258 H 0.48568 0.39632 0.46915 0.0
H2259 H 0.56186 0.39309 0.45956 0.0
H2260 H 0.55472 0.45685 0.51536 0.0
H2261 H 0.55235 0.41667 0.50028 0.0
H2262 H 0.50191 0.43674 0.44904 0.0
H2263 H 0.505 0.47721 0.46351 0.0
C2264 C 0.49881 0.36336 0.45724 0.0
C2265 C 0.51871 0.35034 0.45046 0.0
C2266 C 0.50146 0.38694 0.46425 0.0
C2267 C 0.52415 0.39818 0.46535 0.0
C2268 C 0.54411 0.38508 0.45897 0.0
C2269 C 0.54141 0.36166 0.45129 0.0
C2270 C 0.54344 0.45284 0.50059 0.0
C2271 C 0.53025 0.47051 0.49057 0.0
C2272 C 0.54207 0.42972 0.49194 0.0
C2273 C 0.52687 0.42329 0.47346 0.0
C2274 C 0.51376 0.44096 0.46333 0.0
C2275 C 0.51567 0.46426 0.47152 0.0
H2276 H 0.45275 0.80762 0.16915 0.0
H2277 H 0.45919 0.73789 0.19547 0.0
H2278 H 0.4234 0.81555 0.20029 0.0
H2279 H 0.42988 0.74582 0.2264 0.0
H2280 H 0.34814 0.80248 0.23613 0.0
H2281 H 0.38201 0.80086 0.20896 0.0
H2282 H 0.42369 0.77048 0.26275 0.0
H2283 H 0.38937 0.77209 0.2902 0.0
C2284 C 0.44786 0.79398 0.18151 0.0
C2285 C 0.45812 0.77207 0.17971 0.0
C2286 C 0.43115 0.79855 0.19937 0.0
C2287 C 0.42454 0.78136 0.21589 0.0
C2288 C 0.43495 0.75954 0.21419 0.0
C2289 C 0.45149 0.75492 0.19626 0.0
C2290 C 0.36469 0.79589 0.24233 0.0
C2291 C 0.36616 0.78726 0.26519 0.0
C2292 C 0.38413 0.79508 0.22679 0.0
C2293 C 0.40542 0.78539 0.23367 0.0
C2294 C 0.40736 0.77785 0.25695 0.0
C2295 C 0.38787 0.77894 0.2727 0.0
H2296 H 0.07013 0.71612 0.9681 0.0
H2297 H 0.99778 0.70518 0.94557 0.0
H2298 H 0.07046 0.67617 0.98152 0.0
H2299 H 0.99737 0.66541 0.96027 0.0
H2300 H 0.00831 0.58764 0.97047 0.0
H2301 H 0.00794 0.62759 0.95649 0.0
H2302 H 0.06048 0.64815 0.00776 0.0
H2303 H 0.06172 0.608 0.02056 0.0
C2304 C 0.05405 0.70529 0.96638 0.0
C2305 C 0.03391 0.71416 0.95574 0.0
C2306 C 0.05414 0.68214 0.97428 0.0
C2307 C 0.03391 0.66688 0.97228 0.0
C2308 C 0.01359 0.676 0.96191 0.0
C2309 C 0.01367 0.6991 0.95363 0.0
C2310 C 0.01987 0.6007 0.97868 0.0
C2311 C 0.03513 0.59433 0.99663 0.0
C2312 C 0.01954 0.62389 0.97077 0.0
C2313 C 0.03417 0.64179 0.98077 0.0
C2314 C 0.04924 0.63527 0.99896 0.0
C2315 C 0.04986 0.61203 0.00655 0.0
H2316 H 0.06869 0.30457 0.71336 0.0
H2317 H 0.11199 0.29921 0.65007 0.0
H2318 H 0.10403 0.30001 0.73698 0.0
H2319 H 0.14726 0.29401 0.67381 0.0
H2320 H 0.18322 0.24273 0.72716 0.0
H2321 H 0.15085 0.25596 0.70307 0.0
H2322 H 0.14937 0.32018 0.743 0.0
H2323 H 0.18221 0.30708 0.76682 0.0
C2324 C 0.08588 0.30298 0.70457 0.0
C2325 C 0.08774 0.3021 0.67998 0.0
C2326 C 0.106 0.30042 0.71804 0.0
C2327 C 0.12809 0.29646 0.70707 0.0
C2328 C 0.13026 0.29698 0.68251 0.0
C2329 C 0.1102 0.30009 0.66901 0.0
C2330 C 0.17579 0.25954 0.73086 0.0
C2331 C 0.1849 0.27387 0.74884 0.0
C2332 C 0.15762 0.26722 0.71695 0.0
C2333 C 0.14804 0.28915 0.72113 0.0
C2334 C 0.15673 0.30329 0.73944 0.0
C2335 C 0.17529 0.2958 0.75303 0.0
H2336 H 0.49604 0.70756 0.08047 0.0
H2337 H 0.55515 0.75012 0.05293 0.0
H2338 H 0.50359 0.67825 0.05022 0.0
H2339 H 0.5626 0.72076 0.02274 0.0
H2340 H 0.51426 0.6332 0.98781 0.0
H2341 H 0.50464 0.67029 0.0064 0.0
H2342 H 0.57794 0.68025 0.02688 0.0
H2343 H 0.58744 0.64309 0.00876 0.0
C2344 C 0.51037 0.71084 0.06776 0.0
C2345 C 0.52515 0.73102 0.06929 0.0
C2346 C 0.51458 0.69415 0.05032 0.0
C2347 C 0.53372 0.69727 0.03418 0.0
C2348 C 0.54783 0.7179 0.03505 0.0
C2349 C 0.54351 0.73468 0.05235 0.0
C2350 C 0.52841 0.64358 0.99586 0.0
C2351 C 0.55147 0.63498 0.99731 0.0
C2352 C 0.52288 0.66475 0.00648 0.0
C2353 C 0.54044 0.67786 0.01843 0.0
C2354 C 0.56406 0.67049 0.01773 0.0
C2355 C 0.56953 0.64921 0.00726 0.0
H2356 H 0.0849 0.80991 0.8431 0.0
H2357 H 0.10386 0.75269 0.88653 0.0
H2358 H 0.12501 0.81062 0.82495 0.0
H2359 H 0.14361 0.75309 0.86806 0.0
H2360 H 0.20418 0.74712 0.81114 0.0
H2361 H 0.16335 0.74586 0.82727 0.0
H2362 H 0.16819 0.82004 0.83983 0.0
H2363 H 0.20927 0.82128 0.82416 0.0
C2364 C 0.09745 0.79724 0.84851 0.0
C2365 C 0.09105 0.78121 0.86628 0.0
C2366 C 0.12051 0.79778 0.83825 0.0
C2367 C 0.13759 0.78195 0.84509 0.0
C2368 C 0.13091 0.76545 0.86228 0.0
C2369 C 0.10809 0.76525 0.8729 0.0
C2370 C 0.19658 0.76318 0.81735 0.0
C2371 C 0.21011 0.7843 0.81639 0.0
C2372 C 0.17317 0.76244 0.82665 0.0
C2373 C 0.16242 0.78286 0.83478 0.0
C2374 C 0.17583 0.80403 0.83354 0.0
C2375 C 0.19944 0.8047 0.8247 0.0
H2376 H 0.99562 0.33728 0.56972 0.0
H2377 H 0.01131 0.37466 0.63375 0.0
H2378 H 0.98273 0.37307 0.55203 0.0
H2379 H 1.00057 0.4109 0.61578 0.0
H2380 H 0.98285 0.47529 0.58157 0.0
H2381 H 0.97618 0.43729 0.59964 0.0
H2382 H 1.00315 0.40438 0.5362 0.0
H2383 H 0.00797 0.44208 0.51789 0.0
C2384 C 0.99594 0.35325 0.58003 0.0
C2385 C 0.00443 0.35354 0.60291 0.0
C2386 C 0.98885 0.37379 0.56989 0.0
C2387 C 0.99113 0.39514 0.58217 0.0
C2388 C 0.99823 0.39492 0.60574 0.0
C2389 C 0.00458 0.37421 0.61608 0.0
C2390 C 0.98671 0.45978 0.5714 0.0
C2391 C 0.99616 0.46152 0.54848 0.0
C2392 C 0.98309 0.438 0.58178 0.0
C2393 C 0.98956 0.41762 0.56966 0.0
C2394 C 0.99758 0.41947 0.54614 0.0
C2395 C 1.00057 0.44117 0.53559 0.0
H2396 H 0.47195 0.25188 0.33817 0.0
H2397 H 0.44607 0.30806 0.3814 0.0
H2398 H 0.43543 0.25212 0.31528 0.0
H2399 H 0.40993 0.30865 0.35819 0.0
H2400 H 0.35889 0.31746 0.29594 0.0
H2401 H 0.39696 0.31754 0.31618 0.0
H2402 H 0.39026 0.24288 0.32282 0.0
H2403 H 0.35187 0.24283 0.3031 0.0
C2404 C 0.45864 0.26447 0.34266 0.0
C2405 C 0.46213 0.27995 0.36173 0.0
C2406 C 0.43759 0.26451 0.32959 0.0
C2407 C 0.41961 0.28042 0.3348 0.0
C2408 C 0.42338 0.29626 0.3535 0.0
C2409 C 0.44414 0.29585 0.3669 0.0
C2410 C 0.36561 0.301 0.30146 0.0
C2411 C 0.35218 0.28012 0.29772 0.0
C2412 C 0.38742 0.30107 0.31326 0.0
C2413 C 0.3968 0.28022 0.32124 0.0
C2414 C 0.38375 0.25926 0.31683 0.0
C2415 C 0.36167 0.25924 0.30551 0.0
H2416 H 0.49786 0.53645 0.29516 0.0
H2417 H 0.43907 0.58104 0.3112 0.0
H2418 H 0.51049 0.5399 0.33578 0.0
H2419 H 0.45157 0.58422 0.35174 0.0
H2420 H 0.49612 0.60284 0.41601 0.0
H2421 H 0.48513 0.6008 0.37491 0.0
H2422 H 0.49399 0.52639 0.37469 0.0
H2423 H 0.50561 0.52855 0.41568 0.0
C2424 C 0.48776 0.54711 0.3073 0.0
C2425 C 0.46747 0.55843 0.30005 0.0
C2426 C 0.49487 0.54892 0.33055 0.0
C2427 C 0.48189 0.5622 0.34686 0.0
C2428 C 0.46198 0.57401 0.33946 0.0
C2429 C 0.4548 0.57211 0.31628 0.0
C2430 C 0.49584 0.58609 0.40713 0.0
C2431 C 0.50175 0.56586 0.41899 0.0
C2432 C 0.48939 0.5849 0.3837 0.0
C2433 C 0.48882 0.56346 0.37166 0.0
C2434 C 0.49457 0.54318 0.38353 0.0
C2435 C 0.50091 0.54437 0.40703 0.0
H2436 H 0.31936 0.66037 0.10519 0.0
H2437 H 0.33248 0.72889 0.076 0.0
H2438 H 0.31024 0.67792 0.14322 0.0
H2439 H 0.32396 0.74641 0.11419 0.0
H2440 H 0.27183 0.76851 0.17219 0.0
H2441 H 0.28677 0.75059 0.13612 0.0
H2442 H 0.3236 0.70052 0.17665 0.0
H2443 H 0.30771 0.71771 0.21261 0.0
C2444 C 0.32108 0.67913 0.10707 0.0
C2445 C 0.32628 0.69326 0.08753 0.0
C2446 C 0.31579 0.68921 0.12887 0.0
C2447 C 0.31581 0.71358 0.13155 0.0
C2448 C 0.3231 0.7276 0.11249 0.0
C2449 C 0.32824 0.71755 0.09068 0.0
C2450 C 0.28283 0.7535 0.17338 0.0
C2451 C 0.28866 0.74464 0.19526 0.0
C2452 C 0.29175 0.74346 0.15274 0.0
C2453 C 0.30669 0.72434 0.15355 0.0
C2454 C 0.31216 0.71522 0.17542 0.0
C2455 C 0.30319 0.72521 0.19604 0.0
H2456 H 0.08296 0.48254 0.83791 0.0
H2457 H 0.15037 0.50861 0.86422 0.0
H2458 H 0.06724 0.47878 0.87789 0.0
H2459 H 0.13423 0.50705 0.90415 0.0
H2460 H 0.10151 0.49878 0.97596 0.0
H2461 H 0.11942 0.48896 0.93778 0.0
H2462 H 0.05352 0.5053 0.9045 0.0
H2463 H 0.03556 0.51333 0.94232 0.0
C2464 C 0.09435 0.48742 0.85239 0.0
C2465 C 0.11763 0.49613 0.84825 0.0
C2466 C 0.08537 0.48548 0.87527 0.0
C2467 C 0.09919 0.49326 0.89433 0.0
C2468 C 0.12305 0.50072 0.89006 0.0
C2469 C 0.13228 0.50183 0.86718 0.0
C2470 C 0.09093 0.4999 0.96038 0.0
C2471 C 0.06722 0.50676 0.96199 0.0
C2472 C 0.10115 0.49438 0.93852 0.0
C2473 C 0.08795 0.49622 0.91793 0.0
C2474 C 0.06413 0.50292 0.91985 0.0
C2475 C 0.05383 0.50783 0.9416 0.0
H2476 H 0.28067 0.39829 0.61869 0.0
H2477 H 0.27932 0.33061 0.58516 0.0
H2478 H 0.28464 0.38009 0.65686 0.0
H2479 H 0.2826 0.31229 0.62372 0.0
H2480 H 0.2603 0.29114 0.70221 0.0
H2481 H 0.25759 0.30793 0.66305 0.0
H2482 H 0.31569 0.35635 0.67862 0.0
H2483 H 0.3189 0.33908 0.71759 0.0
C2484 C 0.28101 0.37947 0.61939 0.0
C2485 C 0.27956 0.36604 0.59854 0.0
C2486 C 0.28347 0.36901 0.64141 0.0
C2487 C 0.28402 0.34464 0.64362 0.0
C2488 C 0.28217 0.33109 0.62286 0.0
C2489 C 0.28032 0.34163 0.60066 0.0
C2490 C 0.27265 0.30527 0.69729 0.0
C2491 C 0.28987 0.31364 0.71329 0.0
C2492 C 0.27113 0.31486 0.6747 0.0
C2493 C 0.28638 0.3336 0.66745 0.0
C2494 C 0.30354 0.34204 0.68349 0.0
C2495 C 0.30546 0.33205 0.70588 0.0
H2496 H 0.41274 0.5933 0.16196 0.0
H2497 H 0.48495 0.58551 0.18479 0.0
H2498 H 0.42747 0.59758 0.12165 0.0
H2499 H 0.49953 0.58981 0.14455 0.0
H2500 H 0.52071 0.59271 0.06924 0.0
H2501 H 0.50331 0.61067 0.10461 0.0
H2502 H 0.44381 0.56089 0.10209 0.0
H2503 H 0.46124 0.54286 0.06733 0.0
C2504 C 0.43181 0.59337 0.15855 0.0
C2505 C 0.44765 0.58826 0.17637 0.0
C2506 C 0.44021 0.59588 0.13547 0.0
C2507 C 0.46453 0.59355 0.13002 0.0
C2508 C 0.48067 0.59167 0.14829 0.0
C2509 C 0.47228 0.58895 0.17132 0.0
C2510 C 0.50365 0.58603 0.07604 0.0
C2511 C 0.49248 0.56616 0.06599 0.0
C2512 C 0.49371 0.59633 0.09613 0.0
C2513 C 0.47224 0.58719 0.10598 0.0
C2514 C 0.46021 0.56851 0.0947 0.0
C2515 C 0.47034 0.55797 0.075 0.0
H2516 H 0.33259 0.74118 0.96527 0.0
H2517 H 0.31129 0.67245 0.94063 0.0
H2518 H 0.33286 0.75542 0.92519 0.0
H2519 H 0.30947 0.68694 0.90069 0.0
H2520 H 0.31113 0.72016 0.82845 0.0
H2521 H 0.32442 0.70337 0.86515 0.0
H2522 H 0.30045 0.76422 0.90304 0.0
H2523 H 0.28862 0.78106 0.86687 0.0
C2524 C 0.32822 0.72913 0.95113 0.0
C2525 C 0.3216 0.70592 0.95583 0.0
C2526 C 0.32814 0.73724 0.92823 0.0
C2527 C 0.32033 0.72252 0.90981 0.0
C2528 C 0.31557 0.69877 0.91437 0.0
C2529 C 0.31648 0.69048 0.93725 0.0
C2530 C 0.30892 0.72981 0.84473 0.0
C2531 C 0.29907 0.75192 0.84489 0.0
C2532 C 0.31651 0.72028 0.86569 0.0
C2533 C 0.31399 0.73264 0.88705 0.0
C2534 C 0.30363 0.75453 0.88695 0.0
C2535 C 0.29652 0.76411 0.86617 0.0
H2536 H 0.09542 0.47466 0.73309 0.0
H2537 H 0.1581 0.50225 0.69599 0.0
H2538 H 0.07123 0.4827 0.69936 0.0
H2539 H 0.1338 0.51028 0.6623 0.0
H2540 H 0.07677 0.55884 0.6337 0.0
H2541 H 0.10226 0.54199 0.66276 0.0
H2542 H 0.06408 0.47574 0.65543 0.0
H2543 H 0.03847 0.49273 0.62642 0.0
C2544 C 0.10415 0.48171 0.71745 0.0
C2545 C 0.12852 0.48829 0.7173 0.0
C2546 C 0.0903 0.4863 0.69817 0.0
C2547 C 0.10065 0.49763 0.67861 0.0
C2548 C 0.12543 0.50193 0.67747 0.0
C2549 C 0.13934 0.49711 0.69664 0.0
C2550 C 0.07364 0.54081 0.6386 0.0
C2551 C 0.0557 0.52706 0.62799 0.0
C2552 C 0.08844 0.53106 0.65484 0.0
C2553 C 0.08534 0.50748 0.66089 0.0
C2554 C 0.0669 0.4939 0.65085 0.0
C2555 C 0.05229 0.5036 0.6344 0.0
H2556 H 0.25763 0.38389 0.44925 0.0
H2557 H 0.30543 0.32914 0.4643 0.0
H2558 H 0.25473 0.36956 0.40866 0.0
H2559 H 0.30238 0.31475 0.42398 0.0
H2560 H 0.27249 0.28019 0.35756 0.0
H2561 H 0.27351 0.29544 0.39753 0.0
H2562 H 0.27916 0.36553 0.37112 0.0
H2563 H 0.27833 0.35016 0.33073 0.0
C2564 C 0.2674 0.3687 0.44401 0.0
C2565 C 0.28169 0.35767 0.46031 0.0
C2566 C 0.26588 0.36057 0.4206 0.0
C2567 C 0.27827 0.34089 0.41279 0.0
C2568 C 0.29234 0.32977 0.42921 0.0
C2569 C 0.29415 0.3381 0.45245 0.0
C2570 C 0.27379 0.2989 0.3601 0.0
C2571 C 0.27528 0.31385 0.34061 0.0
C2572 C 0.27456 0.30768 0.3832 0.0
C2573 C 0.27657 0.3318 0.38784 0.0
C2574 C 0.27746 0.34687 0.36839 0.0
C2575 C 0.27703 0.33803 0.34515 0.0
H2576 H 0.32496 0.47988 0.52859 0.0
H2577 H 0.36464 0.41689 0.52532 0.0
H2578 H 0.36264 0.50316 0.5274 0.0
H2579 H 0.40194 0.44004 0.52465 0.0
H2580 H 0.46157 0.48783 0.55499 0.0
H2581 H 0.42285 0.46728 0.55475 0.0
H2582 H 0.40068 0.51106 0.49895 0.0
H2583 H 0.44 0.53156 0.49874 0.0
C2584 C 0.34164 0.47097 0.52756 0.0
C2585 C 0.3416 0.44641 0.52706 0.0
C2586 C 0.36324 0.48434 0.52679 0.0
C2587 C 0.38538 0.4735 0.52606 0.0
C2588 C 0.38528 0.449 0.5254 0.0
C2589 C 0.36379 0.4357 0.52568 0.0
C2590 C 0.44849 0.49334 0.54273 0.0
C2591 C 0.4541 0.51148 0.52687 0.0
C2592 C 0.42625 0.48138 0.54252 0.0
C2593 C 0.40862 0.48737 0.52675 0.0
C2594 C 0.4138 0.50603 0.51138 0.0
C2595 C 0.43636 0.51777 0.51125 0.0
H2596 H 0.86898 0.14792 0.4894 0.0
H2597 H 0.86072 0.09585 0.54342 0.0
H2598 H 0.89906 0.12453 0.46938 0.0
H2599 H 0.89052 0.07265 0.52347 0.0
H2600 H 0.97642 0.09082 0.47595 0.0
H2601 H 0.9408 0.11346 0.48072 0.0
H2602 H 0.89753 0.04994 0.48576 0.0
H2603 H 0.93312 0.02717 0.48117 0.0
C2604 C 0.8735 0.13146 0.49692 0.0
C2605 C 0.86268 0.12377 0.51808 0.0
C2606 C 0.8906 0.11809 0.48542 0.0
C2607 C 0.89682 0.09667 0.49469 0.0
C2608 C 0.88568 0.08886 0.51563 0.0
C2609 C 0.86886 0.10231 0.52724 0.0
C2610 C 0.95923 0.08163 0.47709 0.0
C2611 C 0.95764 0.05722 0.47894 0.0
C2612 C 0.93881 0.09464 0.4798 0.0
C2613 C 0.91658 0.08339 0.48431 0.0
C2614 C 0.91461 0.05898 0.48285 0.0
C2615 C 0.93499 0.04597 0.48007 0.0
H2616 H 0.65772 0.08669 0.27728 0.0
H2617 H 0.72596 0.05707 0.26085 0.0
H2618 H 0.67511 0.12559 0.27007 0.0
H2619 H 0.74336 0.0958 0.25431 0.0
H2620 H 0.76316 0.16515 0.2231 0.0
H2621 H 0.74217 0.12747 0.22681 0.0
H2622 H 0.70353 0.15286 0.28775 0.0
H2623 H 0.72351 0.19081 0.28328 0.0
C2624 C 0.67643 0.0885 0.2723 0.0
C2625 C 0.69047 0.06886 0.2696 0.0
C2626 C 0.68638 0.11074 0.2682 0.0
C2627 C 0.71054 0.11368 0.26147 0.0
C2628 C 0.72456 0.09404 0.25898 0.0
C2629 C 0.71463 0.07186 0.26293 0.0
C2630 C 0.74988 0.16281 0.23701 0.0
C2631 C 0.74523 0.18086 0.25307 0.0
C2632 C 0.73806 0.14117 0.2393 0.0
C2633 C 0.72143 0.13717 0.25774 0.0
C2634 C 0.71617 0.15546 0.27329 0.0
C2635 C 0.7279 0.1771 0.27093 0.0
H2636 H 0.71363 0.97525 0.06238 0.0
H2637 H 0.69814 0.92654 0.0062 0.0
H2638 H 0.67453 0.99163 0.05855 0.0
H2639 H 0.65855 0.94247 0.00274 0.0
H2640 H 0.59594 0.99003 0.98875 0.0
H2641 H 0.63574 0.97426 0.99102 0.0
H2642 H 0.63372 0.9845 0.06617 0.0
H2643 H 0.59446 1.0008 0.06376 0.0
C2644 C 0.70185 0.96794 0.04921 0.0
C2645 C 0.70921 0.94948 0.03464 0.0
C2646 C 0.67919 0.97726 0.04711 0.0
C2647 C 0.66295 0.9684 0.03043 0.0
C2648 C 0.67045 0.95006 0.01565 0.0
C2649 C 0.69321 0.94077 0.01771 0.0
C2650 C 0.60403 0.98897 0.00575 0.0
C2651 C 0.59188 0.99689 0.02603 0.0
C2652 C 0.62689 0.97975 0.0071 0.0
C2653 C 0.63834 0.97808 0.02879 0.0
C2654 C 0.62598 0.98585 0.04905 0.0
C2655 C 0.60323 0.99512 0.04769 0.0
H2656 H 0.36208 0.49794 0.2121 0.0
H2657 H 0.42194 0.4719 0.24896 0.0
H2658 H 0.34279 0.45931 0.21288 0.0
H2659 H 0.40237 0.43306 0.24985 0.0
H2660 H 0.33737 0.38243 0.27468 0.0
H2661 H 0.36321 0.41736 0.2707 0.0
H2662 H 0.34991 0.41842 0.19648 0.0
H2663 H 0.32464 0.38332 0.20021 0.0
C2664 C 0.3712 0.4839 0.22018 0.0
C2665 C 0.39345 0.48789 0.23055 0.0
C2666 C 0.36023 0.46179 0.2205 0.0
C2667 C 0.37115 0.44332 0.23143 0.0
C2668 C 0.39361 0.44712 0.24141 0.0
C2669 C 0.40481 0.46924 0.24077 0.0
C2670 C 0.34031 0.38983 0.25745 0.0
C2671 C 0.32858 0.38031 0.23785 0.0
C2672 C 0.35513 0.40978 0.25519 0.0
C2673 C 0.35831 0.42057 0.23332 0.0
C2674 C 0.34743 0.41055 0.21358 0.0
C2675 C 0.33281 0.39056 0.21579 0.0
H2676 H 0.22684 0.66581 0.03431 0.0
H2677 H 0.25716 0.60491 0.00197 0.0
H2678 H 0.18866 0.64421 0.03956 0.0
H2679 H 0.2192 0.58352 0.00715 0.0
H2680 H 0.14249 0.58408 0.07571 0.0
H2681 H 0.17745 0.6091 0.06594 0.0
H2682 H 0.17624 0.58337 0.99452 0.0
H2683 H 0.14156 0.55818 0.00438 0.0
C2684 C 0.22518 0.64802 0.02789 0.0
C2685 C 0.2449 0.63692 0.01792 0.0
C2686 C 0.20347 0.63566 0.03106 0.0
C2687 C 0.20118 0.61222 0.02392 0.0
C2688 C 0.22052 0.60161 0.01271 0.0
C2689 C 0.24223 0.61382 0.00984 0.0
C2690 C 0.14984 0.5837 0.05801 0.0
C2691 C 0.13948 0.56918 0.04081 0.0
C2692 C 0.16954 0.59823 0.05234 0.0
C2693 C 0.1793 0.59823 0.02945 0.0
C2694 C 0.16898 0.58367 0.01228 0.0
C2695 C 0.14917 0.56934 0.01789 0.0
H2696 H 0.74605 0.96315 0.29519 0.0
H2697 H 0.67803 0.92594 0.29939 0.0
H2698 H 0.76599 0.92817 0.30664 0.0
H2699 H 0.69766 0.89037 0.30824 0.0
H2700 H 0.73397 0.82586 0.31719 0.0
H2701 H 0.71872 0.86401 0.32718 0.0
H2702 H 0.77647 0.89645 0.28598 0.0
H2703 H 0.79254 0.85864 0.27823 0.0
C2704 C 0.73544 0.9474 0.29881 0.0
C2705 C 0.71072 0.94685 0.29617 0.0
C2706 C 0.74679 0.92729 0.30511 0.0
C2707 C 0.73366 0.90604 0.30757 0.0
C2708 C 0.70857 0.90621 0.30671 0.0
C2709 C 0.6972 0.92658 0.3014 0.0
C2710 C 0.74353 0.84135 0.31084 0.0
C2711 C 0.76412 0.83955 0.29672 0.0
C2712 C 0.73478 0.8632 0.31639 0.0
C2713 C 0.74594 0.88352 0.30701 0.0
C2714 C 0.76741 0.88149 0.29395 0.0
C2715 C 0.77657 0.85974 0.28918 0.0
H2716 H 0.81928 0.11124 0.75808 0.0
H2717 H 0.88704 0.13217 0.78775 0.0
H2718 H 0.80172 0.14622 0.77434 0.0
H2719 H 0.8697 0.16753 0.80334 0.0
H2720 H 0.83044 0.22607 0.83705 0.0
H2721 H 0.84143 0.18576 0.82998 0.0
H2722 H 0.80666 0.18627 0.76312 0.0
H2723 H 0.79523 0.22598 0.77038 0.0
C2724 C 0.83037 0.12325 0.76821 0.0
C2725 C 0.85461 0.11921 0.77134 0.0
C2726 C 0.82033 0.14328 0.77748 0.0
C2727 C 0.8344 0.15978 0.78985 0.0
C2728 C 0.85832 0.15507 0.79408 0.0
C2729 C 0.86832 0.1349 0.78498 0.0
C2730 C 0.82481 0.21737 0.82105 0.0
C2731 C 0.81216 0.22923 0.80418 0.0
C2732 C 0.83119 0.19437 0.81697 0.0
C2733 C 0.825 0.18287 0.79596 0.0
C2734 C 0.81142 0.19446 0.77964 0.0
C2735 C 0.80503 0.21735 0.78372 0.0
loop_
_geom_bond_atom_site_label_1
_geom_bond_atom_site_label_2
_geom_bond_distance
_geom_bond_site_symmetry_2
_ccdc_geom_bond_type
O0 Cd1 2.223 . S
O0 C8 1.315 . S
Cd1 O0 2.223 . S
Cd1 O4 2.297 1_455 S
Cd1 O5 2.439 1_455 S
Cd1 O11 2.240 . S
Cd2 O3 2.240 . S
Cd2 O10 2.223 . S
Cd2 O12 2.297 . S
Cd2 O13 2.439 . S
O3 Cd2 2.240 . S
O3 C8 1.279 . S
O4 Cd1 2.297 1_655 S
O4 C6 1.247 . S
O5 Cd1 2.439 1_655 S
O5 C6 1.208 . S
C6 O4 1.247 . S
C6 O5 1.208 . S
C7 O12 1.247 . S
C7 O13 1.208 . S
C8 O0 1.315 . S
C8 O3 1.279 . S
C9 O10 1.315 . S
C9 O11 1.279 . S
O10 Cd2 2.223 . S
O10 C9 1.315 . S
O11 Cd1 2.240 . S
O11 C9 1.279 . S
O12 Cd2 2.297 . S
O12 C7 1.247 . S
O13 Cd2 2.439 . S
O13 C7 1.208 . S
O14 Cd15 2.223 . S
O14 C22 1.315 . S
Cd15 O14 2.223 . S
Cd15 O18 2.297 . S
Cd15 O19 2.439 . S
Cd15 O25 2.240 . S
Cd16 O17 2.240 . S
Cd16 O24 2.223 . S
Cd16 O26 2.297 . S
Cd16 O27 2.439 . S
O17 Cd16 2.240 . S
O17 C22 1.279 . S
O18 Cd15 2.297 . S
O18 C20 1.247 . S
O19 Cd15 2.439 . S
O19 C20 1.208 . S
C20 O18 1.247 . S
C20 O19 1.208 . S
C21 O26 1.247 1_655 S
C21 O27 1.208 1_655 S
C22 O14 1.315 . S
C22 O17 1.279 . S
C23 O24 1.315 . S
C23 O25 1.279 . S
O24 Cd16 2.223 . S
O24 C23 1.315 . S
O25 Cd15 2.240 . S
O25 C23 1.279 . S
O26 Cd16 2.297 . S
O26 C21 1.247 1_455 S
O27 Cd16 2.439 . S
O27 C21 1.208 1_455 S
O28 Cd29 2.223 . S
O28 C36 1.315 . S
Cd29 O28 2.223 . S
Cd29 O32 2.297 . S
Cd29 O33 2.439 . S
Cd29 O39 2.240 . S
Cd30 O31 2.240 . S
Cd30 O38 2.223 . S
Cd30 O40 2.297 . S
Cd30 O41 2.439 . S
O31 Cd30 2.240 . S
O31 C36 1.279 . S
O32 Cd29 2.297 . S
O32 C34 1.247 . S
O33 Cd29 2.439 . S
O33 C34 1.208 . S
C34 O32 1.247 . S
C34 O33 1.208 . S
C35 O40 1.247 . S
C35 O41 1.208 . S
C36 O28 1.315 . S
C36 O31 1.279 . S
C37 O38 1.315 . S
C37 O39 1.279 . S
O38 Cd30 2.223 . S
O38 C37 1.315 . S
O39 Cd29 2.240 . S
O39 C37 1.279 . S
O40 Cd30 2.297 . S
O40 C35 1.247 . S
O41 Cd30 2.439 . S
O41 C35 1.208 . S
O42 Cd43 2.223 . S
O42 C50 1.315 . S
Cd43 O42 2.223 . S
Cd43 O46 2.297 . S
Cd43 O47 2.439 . S
Cd43 O53 2.240 . S
Cd44 O45 2.240 . S
Cd44 O52 2.223 . S
Cd44 O54 2.297 . S
Cd44 O55 2.439 . S
O45 Cd44 2.240 . S
O45 C50 1.279 . S
O46 Cd43 2.297 . S
O46 C48 1.247 . S
O47 Cd43 2.439 . S
O47 C48 1.208 . S
C48 O46 1.247 . S
C48 O47 1.208 . S
C49 O54 1.247 . S
C49 O55 1.208 . S
C50 O42 1.315 . S
C50 O45 1.279 . S
C51 O52 1.315 . S
C51 O53 1.279 . S
O52 Cd44 2.223 . S
O52 C51 1.315 . S
O53 Cd43 2.240 . S
O53 C51 1.279 . S
O54 Cd44 2.297 . S
O54 C49 1.247 . S
O55 Cd44 2.439 . S
O55 C49 1.208 . S
O56 Cd57 2.223 1_545 S
O56 C64 1.315 . S
Cd57 O56 2.223 1_565 S
Cd57 O60 2.297 . S
Cd57 O61 2.439 . S
Cd57 O67 2.240 1_565 S
Cd58 O59 2.240 1_545 S
Cd58 O66 2.223 . S
Cd58 O68 2.297 . S
Cd58 O69 2.439 1_545 S
O59 Cd58 2.240 1_565 S
O59 C64 1.279 1_565 S
O60 Cd57 2.297 . S
O60 C62 1.247 . S
O61 Cd57 2.439 . S
O61 C62 1.208 . S
C62 O60 1.247 . S
C62 O61 1.208 . S
C63 O68 1.247 . S
C63 O69 1.208 1_545 S
C64 O56 1.315 . S
C64 O59 1.279 1_545 S
C65 O66 1.315 . S
C65 O67 1.279 . S
O66 Cd58 2.223 . S
O66 C65 1.315 . S
O67 Cd57 2.240 1_545 S
O67 C65 1.279 . S
O68 Cd58 2.297 . S
O68 C63 1.247 . S
O69 Cd58 2.439 1_565 S
O69 C63 1.208 1_565 S
O70 Cd71 2.223 . S
O70 C78 1.315 . S
Cd71 O70 2.223 . S
Cd71 O74 2.297 . S
Cd71 O75 2.439 . S
Cd71 O81 2.240 . S
Cd72 O73 2.240 . S
Cd72 O80 2.223 . S
Cd72 O82 2.297 . S
Cd72 O83 2.439 . S
O73 Cd72 2.240 . S
O73 C78 1.279 . S
O74 Cd71 2.297 . S
O74 C76 1.247 . S
O75 Cd71 2.439 . S
O75 C76 1.208 . S
C76 O74 1.247 . S
C76 O75 1.208 . S
C77 O82 1.247 . S
C77 O83 1.208 . S
C78 O70 1.315 . S
C78 O73 1.279 . S
C79 O80 1.315 . S
C79 O81 1.279 . S
O80 Cd72 2.223 . S
O80 C79 1.315 . S
O81 Cd71 2.240 . S
O81 C79 1.279 . S
O82 Cd72 2.297 . S
O82 C77 1.247 . S
O83 Cd72 2.439 . S
O83 C77 1.208 . S
O84 Cd85 2.223 . S
O84 C92 1.315 . S
Cd85 O84 2.223 . S
Cd85 O88 2.297 . S
Cd85 O89 2.439 . S
Cd85 O95 2.240 . S
Cd86 O87 2.240 . S
Cd86 O94 2.223 . S
Cd86 O96 2.297 . S
Cd86 O97 2.439 . S
O87 Cd86 2.240 . S
O87 C92 1.279 . S
O88 Cd85 2.297 . S
O88 C90 1.247 . S
O89 Cd85 2.439 . S
O89 C90 1.208 . S
C90 O88 1.247 . S
C90 O89 1.208 . S
C91 O96 1.247 . S
C91 O97 1.208 . S
C92 O84 1.315 . S
C92 O87 1.279 . S
C93 O94 1.315 . S
C93 O95 1.279 . S
O94 Cd86 2.223 . S
O94 C93 1.315 . S
O95 Cd85 2.240 . S
O95 C93 1.279 . S
O96 Cd86 2.297 . S
O96 C91 1.247 . S
O97 Cd86 2.439 . S
O97 C91 1.208 . S
O98 Cd99 2.223 . S
O98 C106 1.315 . S
Cd99 O98 2.223 . S
Cd99 O102 2.297 . S
Cd99 O103 2.439 . S
Cd99 O109 2.240 . S
Cd100 O101 2.240 . S
Cd100 O108 2.223 . S
Cd100 O110 2.297 1_554 S
Cd100 O111 2.439 1_554 S
O101 Cd100 2.240 . S
O101 C106 1.279 . S
O102 Cd99 2.297 . S
O102 C104 1.247 . S
O103 Cd99 2.439 . S
O103 C104 1.208 . S
C104 O102 1.247 . S
C104 O103 1.208 . S
C105 O110 1.247 . S
C105 O111 1.208 . S
C106 O98 1.315 . S
C106 O101 1.279 . S
C107 O108 1.315 . S
C107 O109 1.279 . S
O108 Cd100 2.223 . S
O108 C107 1.315 . S
O109 Cd99 2.240 . S
O109 C107 1.279 . S
O110 Cd100 2.297 1_556 S
O110 C105 1.247 . S
O111 Cd100 2.439 1_556 S
O111 C105 1.208 . S
O112 Cd113 2.223 . S
O112 C120 1.315 . S
Cd113 O112 2.223 . S
Cd113 O116 2.297 . S
Cd113 O117 2.439 . S
Cd113 O123 2.240 . S
Cd114 O115 2.240 . S
Cd114 O122 2.223 . S
Cd114 O124 2.297 . S
Cd114 O125 2.439 . S
O115 Cd114 2.240 . S
O115 C120 1.279 . S
O116 Cd113 2.297 . S
O116 C118 1.247 . S
O117 Cd113 2.439 . S
O117 C118 1.208 . S
C118 O116 1.247 . S
C118 O117 1.208 . S
C119 O124 1.247 1_556 S
C119 O125 1.208 1_556 S
C120 O112 1.315 . S
C120 O115 1.279 . S
C121 O122 1.315 . S
C121 O123 1.279 . S
O122 Cd114 2.223 . S
O122 C121 1.315 . S
O123 Cd113 2.240 . S
O123 C121 1.279 . S
O124 Cd114 2.297 . S
O124 C119 1.247 1_554 S
O125 Cd114 2.439 . S
O125 C119 1.208 1_554 S
O126 Cd127 2.223 . S
O126 C134 1.315 . S
Cd127 O126 2.223 . S
Cd127 O130 2.297 . S
Cd127 O131 2.439 . S
Cd127 O137 2.240 . S
Cd128 O129 2.240 . S
Cd128 O136 2.223 . S
Cd128 O138 2.297 . S
Cd128 O139 2.439 . S
O129 Cd128 2.240 . S
O129 C134 1.279 . S
O130 Cd127 2.297 . S
O130 C132 1.247 . S
O131 Cd127 2.439 . S
O131 C132 1.208 . S
C132 O130 1.247 . S
C132 O131 1.208 . S
C133 O138 1.247 . S
C133 O139 1.208 . S
C134 O126 1.315 . S
C134 O129 1.279 . S
C135 O136 1.315 . S
C135 O137 1.279 . S
O136 Cd128 2.223 . S
O136 C135 1.315 . S
O137 Cd127 2.240 . S
O137 C135 1.279 . S
O138 Cd128 2.297 . S
O138 C133 1.247 . S
O139 Cd128 2.439 . S
O139 C133 1.208 . S
O140 Cd141 2.223 . S
O140 C148 1.315 . S
Cd141 O140 2.223 . S
Cd141 O144 2.297 . S
Cd141 O145 2.439 . S
Cd141 O151 2.240 . S
Cd142 O143 2.240 . S
Cd142 O150 2.223 . S
Cd142 O152 2.297 . S
Cd142 O153 2.439 . S
O143 Cd142 2.240 . S
O143 C148 1.279 . S
O144 Cd141 2.297 . S
O144 C146 1.247 . S
O145 Cd141 2.439 . S
O145 C146 1.208 . S
C146 O144 1.247 . S
C146 O145 1.208 . S
C147 O152 1.247 . S
C147 O153 1.208 . S
C148 O140 1.315 . S
C148 O143 1.279 . S
C149 O150 1.315 . S
C149 O151 1.279 . S
O150 Cd142 2.223 . S
O150 C149 1.315 . S
O151 Cd141 2.240 . S
O151 C149 1.279 . S
O152 Cd142 2.297 . S
O152 C147 1.247 . S
O153 Cd142 2.439 . S
O153 C147 1.208 . S
O154 Cd155 2.223 . S
O154 C162 1.315 . S
Cd155 O154 2.223 . S
Cd155 O158 2.297 . S
Cd155 O159 2.439 . S
Cd155 O165 2.240 . S
Cd156 O157 2.240 . S
Cd156 O164 2.223 . S
Cd156 O166 2.297 . S
Cd156 O167 2.439 . S
O157 Cd156 2.240 . S
O157 C162 1.279 . S
O158 Cd155 2.297 . S
O158 C160 1.247 . S
O159 Cd155 2.439 . S
O159 C160 1.208 . S
C160 O158 1.247 . S
C160 O159 1.208 . S
C161 O166 1.247 . S
C161 O167 1.208 . S
C162 O154 1.315 . S
C162 O157 1.279 . S
C163 O164 1.315 . S
C163 O165 1.279 . S
O164 Cd156 2.223 . S
O164 C163 1.315 . S
O165 Cd155 2.240 . S
O165 C163 1.279 . S
O166 Cd156 2.297 . S
O166 C161 1.247 . S
O167 Cd156 2.439 . S
O167 C161 1.208 . S
O168 Cd169 2.223 . S
O168 C176 1.315 . S
Cd169 O168 2.223 . S
Cd169 O172 2.297 . S
Cd169 O173 2.439 . S
Cd169 O179 2.240 . S
Cd170 O171 2.240 . S
Cd170 O178 2.223 . S
Cd170 O180 2.297 1_455 S
Cd170 O181 2.439 1_455 S
O171 Cd170 2.240 . S
O171 C176 1.279 . S
O172 Cd169 2.297 . S
O172 C174 1.247 . S
O173 Cd169 2.439 . S
O173 C174 1.208 . S
C174 O172 1.247 . S
C174 O173 1.208 . S
C175 O180 1.247 . S
C175 O181 1.208 . S
C176 O168 1.315 . S
C176 O171 1.279 . S
C177 O178 1.315 . S
C177 O179 1.279 . S
O178 Cd170 2.223 . S
O178 C177 1.315 . S
O179 Cd169 2.240 . S
O179 C177 1.279 . S
O180 Cd170 2.297 1_655 S
O180 C175 1.247 . S
O181 Cd170 2.439 1_655 S
O181 C175 1.208 . S
O182 Cd183 2.223 1_455 S
O182 C190 1.315 . S
Cd183 O182 2.223 1_655 S
Cd183 O186 2.297 . S
Cd183 O187 2.439 . S
Cd183 O193 2.240 1_655 S
Cd184 O185 2.240 1_455 S
Cd184 O192 2.223 . S
Cd184 O194 2.297 . S
Cd184 O195 2.439 1_455 S
O185 Cd184 2.240 1_655 S
O185 C190 1.279 1_655 S
O186 Cd183 2.297 . S
O186 C188 1.247 . S
O187 Cd183 2.439 . S
O187 C188 1.208 . S
C188 O186 1.247 . S
C188 O187 1.208 . S
C189 O194 1.247 . S
C189 O195 1.208 1_455 S
C190 O182 1.315 . S
C190 O185 1.279 1_455 S
C191 O192 1.315 . S
C191 O193 1.279 . S
O192 Cd184 2.223 . S
O192 C191 1.315 . S
O193 Cd183 2.240 1_455 S
O193 C191 1.279 . S
O194 Cd184 2.297 . S
O194 C189 1.247 . S
O195 Cd184 2.439 1_655 S
O195 C189 1.208 1_655 S
O196 Cd197 2.223 . S
O196 C204 1.315 . S
Cd197 O196 2.223 . S
Cd197 O200 2.297 . S
Cd197 O201 2.439 . S
Cd197 O207 2.240 . S
Cd198 O199 2.240 . S
Cd198 O206 2.223 . S
Cd198 O208 2.297 . S
Cd198 O209 2.439 . S
O199 Cd198 2.240 . S
O199 C204 1.279 . S
O200 Cd197 2.297 . S
O200 C202 1.247 . S
O201 Cd197 2.439 . S
O201 C202 1.208 . S
C202 O200 1.247 . S
C202 O201 1.208 . S
C203 O208 1.247 . S
C203 O209 1.208 . S
C204 O196 1.315 . S
C204 O199 1.279 . S
C205 O206 1.315 . S
C205 O207 1.279 . S
O206 Cd198 2.223 . S
O206 C205 1.315 . S
O207 Cd197 2.240 . S
O207 C205 1.279 . S
O208 Cd198 2.297 . S
O208 C203 1.247 . S
O209 Cd198 2.439 . S
O209 C203 1.208 . S
O210 Cd211 2.223 . S
O210 C218 1.315 . S
Cd211 O210 2.223 . S
Cd211 O214 2.297 . S
Cd211 O215 2.439 . S
Cd211 O221 2.240 . S
Cd212 O213 2.240 . S
Cd212 O220 2.223 . S
Cd212 O222 2.297 . S
Cd212 O223 2.439 . S
O213 Cd212 2.240 . S
O213 C218 1.279 . S
O214 Cd211 2.297 . S
O214 C216 1.247 . S
O215 Cd211 2.439 . S
O215 C216 1.208 . S
C216 O214 1.247 . S
C216 O215 1.208 . S
C217 O222 1.247 . S
C217 O223 1.208 . S
C218 O210 1.315 . S
C218 O213 1.279 . S
C219 O220 1.315 . S
C219 O221 1.279 . S
O220 Cd212 2.223 . S
O220 C219 1.315 . S
O221 Cd211 2.240 . S
O221 C219 1.279 . S
O222 Cd212 2.297 . S
O222 C217 1.247 . S
O223 Cd212 2.439 . S
O223 C217 1.208 . S
O224 Cd225 2.223 . S
O224 C232 1.315 . S
Cd225 O224 2.223 . S
Cd225 O228 2.297 . S
Cd225 O229 2.439 . S
Cd225 O235 2.240 . S
Cd226 O227 2.240 . S
Cd226 O234 2.223 . S
Cd226 O236 2.297 . S
Cd226 O237 2.439 . S
O227 Cd226 2.240 . S
O227 C232 1.279 . S
O228 Cd225 2.297 . S
O228 C230 1.247 . S
O229 Cd225 2.439 . S
O229 C230 1.208 . S
C230 O228 1.247 . S
C230 O229 1.208 . S
C231 O236 1.247 . S
C231 O237 1.208 . S
C232 O224 1.315 . S
C232 O227 1.279 . S
C233 O234 1.315 . S
C233 O235 1.279 . S
O234 Cd226 2.223 . S
O234 C233 1.315 . S
O235 Cd225 2.240 . S
O235 C233 1.279 . S
O236 Cd226 2.297 . S
O236 C231 1.247 . S
O237 Cd226 2.439 . S
O237 C231 1.208 . S
O238 Cd239 2.223 . S
O238 C246 1.315 . S
Cd239 O238 2.223 . S
Cd239 O242 2.297 . S
Cd239 O243 2.439 . S
Cd239 O249 2.240 . S
Cd240 O241 2.240 . S
Cd240 O248 2.223 . S
Cd240 O250 2.297 . S
Cd240 O251 2.439 . S
O241 Cd240 2.240 . S
O241 C246 1.279 . S
O242 Cd239 2.297 . S
O242 C244 1.247 . S
O243 Cd239 2.439 . S
O243 C244 1.208 . S
C244 O242 1.247 . S
C244 O243 1.208 . S
C245 O250 1.247 . S
C245 O251 1.208 . S
C246 O238 1.315 . S
C246 O241 1.279 . S
C247 O248 1.315 . S
C247 O249 1.279 . S
O248 Cd240 2.223 . S
O248 C247 1.315 . S
O249 Cd239 2.240 . S
O249 C247 1.279 . S
O250 Cd240 2.297 . S
O250 C245 1.247 . S
O251 Cd240 2.439 . S
O251 C245 1.208 . S
O252 Cd253 2.223 1_545 S
O252 C260 1.315 . S
Cd253 O252 2.223 1_565 S
Cd253 O256 2.297 . S
Cd253 O257 2.439 . S
Cd253 O263 2.240 1_565 S
Cd254 O255 2.240 1_545 S
Cd254 O262 2.223 . S
Cd254 O264 2.297 . S
Cd254 O265 2.451 . S
O255 Cd254 2.240 1_565 S
O255 C260 1.279 1_565 S
O256 Cd253 2.297 . S
O256 C258 1.247 . S
O257 Cd253 2.439 . S
O257 C258 1.208 . S
C258 O256 1.247 . S
C258 O257 1.208 . S
C259 O264 1.247 . S
C259 O265 1.228 . S
C260 O252 1.315 . S
C260 O255 1.279 1_545 S
C261 O262 1.315 . S
C261 O263 1.279 . S
O262 Cd254 2.223 . S
O262 C261 1.315 . S
O263 Cd253 2.240 1_545 S
O263 C261 1.279 . S
O264 Cd254 2.297 . S
O264 C259 1.247 . S
O265 Cd254 2.451 . S
O265 C259 1.228 . S
O266 Cd267 2.223 . S
O266 C274 1.315 . S
Cd267 O266 2.223 . S
Cd267 O270 2.297 . S
Cd267 O271 2.439 . S
Cd267 O277 2.240 . S
Cd268 O269 2.240 . S
Cd268 O276 2.223 . S
Cd268 O278 2.297 1_554 S
Cd268 O279 2.439 1_554 S
O269 Cd268 2.240 . S
O269 C274 1.279 . S
O270 Cd267 2.297 . S
O270 C272 1.247 . S
O271 Cd267 2.439 . S
O271 C272 1.208 . S
C272 O270 1.247 . S
C272 O271 1.208 . S
C273 O278 1.247 . S
C273 O279 1.208 . S
C274 O266 1.315 . S
C274 O269 1.279 . S
C275 O276 1.315 . S
C275 O277 1.279 . S
O276 Cd268 2.223 . S
O276 C275 1.315 . S
O277 Cd267 2.240 . S
O277 C275 1.279 . S
O278 Cd268 2.297 1_556 S
O278 C273 1.247 . S
O279 Cd268 2.439 1_556 S
O279 C273 1.208 . S
O280 Cd281 2.223 . S
O280 C288 1.315 . S
Cd281 O280 2.223 . S
Cd281 O284 2.297 . S
Cd281 O285 2.439 1_554 S
Cd281 O291 2.240 1_554 S
Cd282 O283 2.240 1_556 S
Cd282 O290 2.223 1_556 S
Cd282 O292 2.297 . S
Cd282 O293 2.439 . S
O283 Cd282 2.240 1_554 S
O283 C288 1.279 . S
O284 Cd281 2.297 . S
O284 C286 1.247 . S
O285 Cd281 2.439 1_556 S
O285 C286 1.208 1_556 S
C286 O284 1.247 . S
C286 O285 1.208 1_554 S
C287 O292 1.247 . S
C287 O293 1.208 . S
C288 O280 1.315 . S
C288 O283 1.279 . S
C289 O290 1.315 . S
C289 O291 1.279 1_554 S
O290 Cd282 2.223 1_554 S
O290 C289 1.315 . S
O291 Cd281 2.240 1_556 S
O291 C289 1.279 1_556 S
O292 Cd282 2.297 . S
O292 C287 1.247 . S
O293 Cd282 2.439 . S
O293 C287 1.208 . S
O294 Cd295 2.223 . S
O294 C302 1.315 . S
Cd295 O294 2.223 . S
Cd295 O298 2.297 . S
Cd295 O299 2.439 . S
Cd295 O305 2.240 . S
Cd296 O297 2.240 . S
Cd296 O304 2.223 . S
Cd296 O306 2.297 . S
Cd296 O307 2.439 . S
O297 Cd296 2.240 . S
O297 C302 1.279 . S
O298 Cd295 2.297 . S
O298 C300 1.247 . S
O299 Cd295 2.439 . S
O299 C300 1.208 . S
C300 O298 1.247 . S
C300 O299 1.208 . S
C301 O306 1.247 . S
C301 O307 1.208 . S
C302 O294 1.315 . S
C302 O297 1.279 . S
C303 O304 1.315 . S
C303 O305 1.279 . S
O304 Cd296 2.223 . S
O304 C303 1.315 . S
O305 Cd295 2.240 . S
O305 C303 1.279 . S
O306 Cd296 2.297 . S
O306 C301 1.247 . S
O307 Cd296 2.439 . S
O307 C301 1.208 . S
O308 Cd309 2.223 . S
O308 C316 1.315 . S
Cd309 O308 2.223 . S
Cd309 O312 2.297 . S
Cd309 O313 2.439 . S
Cd309 O319 2.240 . S
Cd310 O311 2.240 . S
Cd310 O318 2.223 . S
Cd310 O320 2.297 . S
Cd310 O321 2.439 . S
O311 Cd310 2.240 . S
O311 C316 1.279 . S
O312 Cd309 2.297 . S
O312 C314 1.247 . S
O313 Cd309 2.439 . S
O313 C314 1.208 . S
C314 O312 1.247 . S
C314 O313 1.208 . S
C315 O320 1.247 . S
C315 O321 1.208 . S
C316 O308 1.315 . S
C316 O311 1.279 . S
C317 O318 1.315 . S
C317 O319 1.279 . S
O318 Cd310 2.223 . S
O318 C317 1.315 . S
O319 Cd309 2.240 . S
O319 C317 1.279 . S
O320 Cd310 2.297 . S
O320 C315 1.247 . S
O321 Cd310 2.439 . S
O321 C315 1.208 . S
O322 Cd323 2.223 . S
O322 C330 1.315 . S
Cd323 O322 2.223 . S
Cd323 O326 2.297 . S
Cd323 O327 2.439 . S
Cd323 O333 2.240 . S
Cd324 O325 2.240 . S
Cd324 O332 2.223 . S
Cd324 O334 2.297 . S
Cd324 O335 2.439 . S
O325 Cd324 2.240 . S
O325 C330 1.279 . S
O326 Cd323 2.297 . S
O326 C328 1.247 . S
O327 Cd323 2.439 . S
O327 C328 1.208 . S
C328 O326 1.247 . S
C328 O327 1.208 . S
C329 O334 1.247 . S
C329 O335 1.208 . S
C330 O322 1.315 . S
C330 O325 1.279 . S
C331 O332 1.315 . S
C331 O333 1.279 . S
O332 Cd324 2.223 . S
O332 C331 1.315 . S
O333 Cd323 2.240 . S
O333 C331 1.279 . S
O334 Cd324 2.297 . S
O334 C329 1.247 . S
O335 Cd324 2.439 . S
O335 C329 1.208 . S
Co336 N341 2.057 1_554 S
Co336 O353 2.021 1_544 S
Co336 O356 2.062 . S
Co336 O360 2.117 . S
Co336 O361 2.020 . S
C337 O357 1.259 . S
C337 O360 1.258 . S
Co338 N347 2.077 . S
Co338 O354 2.117 1_545 S
Co338 O355 2.020 . S
Co338 O357 2.021 . S
Co338 O362 2.062 . S
C339 N341 1.316 . S
C339 N342 1.347 . S
C339 H344 0.931 . S
C340 N341 1.375 . S
C340 C343 1.350 . S
C340 H345 0.930 . S
N341 Co336 2.057 1_556 S
N341 C339 1.316 . S
N341 C340 1.375 . S
N342 C339 1.347 . S
N342 C343 1.373 . S
C343 C340 1.350 . S
C343 N342 1.373 . S
C343 H364 0.931 1_455 S
H344 C339 0.931 . S
H345 C340 0.930 . S
C346 O353 1.259 1_554 S
C346 O354 1.258 . S
N347 Co338 2.077 . S
N347 C348 1.333 . S
N347 C349 1.336 1_545 S
C348 N347 1.333 . S
C348 N350 1.347 1_545 S
C348 H359 0.931 . S
C349 N347 1.336 1_565 S
C349 C351 1.350 . S
C349 H358 0.930 . S
N350 C348 1.347 1_565 S
N350 C351 1.373 . S
C351 C349 1.350 . S
C351 N350 1.373 . S
C351 H365 0.931 . S
C352 O355 1.256 1_655 S
C352 O356 1.255 1_655 S
O353 Co336 2.021 1_566 S
O353 C346 1.259 1_556 S
O354 Co338 2.117 1_565 S
O354 C346 1.258 . S
O355 Co338 2.020 . S
O355 C352 1.256 1_455 S
O356 Co336 2.062 . S
O356 C352 1.255 1_455 S
O357 C337 1.259 . S
O357 Co338 2.021 . S
H358 C349 0.930 . S
H359 C348 0.931 . S
O360 Co336 2.117 . S
O360 C337 1.258 . S
O361 Co336 2.020 . S
O361 C363 1.256 . S
O362 Co338 2.062 . S
O362 C363 1.255 . S
C363 O361 1.256 . S
C363 O362 1.255 . S
H364 C343 0.931 1_655 S
H365 C351 0.931 . S
Co366 N371 2.057 . S
Co366 O383 2.021 . S
Co366 O386 2.062 . S
Co366 O390 2.117 . S
Co366 O391 2.020 . S
C367 O387 1.259 . S
C367 O390 1.258 . S
Co368 N377 2.057 . S
Co368 O384 2.117 . S
Co368 O385 2.020 . S
Co368 O387 2.021 . S
Co368 O392 2.062 . S
C369 N371 1.316 . S
C369 N372 1.347 . S
C369 H374 0.931 . S
C370 N371 1.375 . S
C370 C373 1.350 . S
C370 H375 0.930 . S
N371 Co366 2.057 . S
N371 C369 1.316 . S
N371 C370 1.375 . S
N372 C369 1.347 . S
N372 C373 1.373 . S
C373 C370 1.350 . S
C373 N372 1.373 . S
C373 H394 0.931 . S
H374 C369 0.931 . S
H375 C370 0.930 . S
C376 O383 1.259 . S
C376 O384 1.258 . S
N377 Co368 2.057 . S
N377 C378 1.316 . S
N377 C379 1.375 . S
C378 N377 1.316 . S
C378 N380 1.347 . S
C378 H389 0.931 . S
C379 N377 1.375 . S
C379 C381 1.350 . S
C379 H388 0.930 . S
N380 C378 1.347 . S
N380 C381 1.373 . S
C381 C379 1.350 . S
C381 N380 1.373 . S
C381 H395 0.931 . S
C382 O385 1.256 . S
C382 O386 1.255 . S
O383 Co366 2.021 . S
O383 C376 1.259 . S
O384 Co368 2.117 . S
O384 C376 1.258 . S
O385 Co368 2.020 . S
O385 C382 1.256 . S
O386 Co366 2.062 . S
O386 C382 1.255 . S
O387 C367 1.259 . S
O387 Co368 2.021 . S
H388 C379 0.930 . S
H389 C378 0.931 . S
O390 Co366 2.117 . S
O390 C367 1.258 . S
O391 Co366 2.020 . S
O391 C393 1.256 . S
O392 Co368 2.062 . S
O392 C393 1.255 . S
C393 O391 1.256 . S
C393 O392 1.255 . S
H394 C373 0.931 . S
H395 C381 0.931 . S
Co396 N401 2.057 . S
Co396 O413 2.021 1_545 S
Co396 O416 2.062 . S
Co396 O420 2.117 . S
Co396 O421 2.020 . S
C397 O417 1.259 . S
C397 O420 1.258 . S
Co398 N407 2.057 . S
Co398 O414 2.117 . S
Co398 O415 2.020 . S
Co398 O417 2.021 . S
Co398 O422 2.062 . S
C399 N401 1.316 . S
C399 N402 1.347 . S
C399 H404 0.931 1_545 S
C400 N401 1.375 . S
C400 C403 1.350 . S
C400 H405 0.930 . S
N401 Co396 2.057 . S
N401 C399 1.316 . S
N401 C400 1.375 . S
N402 C399 1.347 . S
N402 C403 1.373 . S
C403 C400 1.350 . S
C403 N402 1.373 . S
C403 H424 0.931 . S
H404 C399 0.931 1_565 S
H405 C400 0.930 . S
C406 O413 1.259 . S
C406 O414 1.258 1_565 S
N407 Co398 2.057 . S
N407 C408 1.316 . S
N407 C409 1.375 . S
C408 N407 1.316 . S
C408 N410 1.347 . S
C408 H419 0.931 . S
C409 N407 1.375 . S
C409 C411 1.350 . S
C409 H418 0.930 . S
N410 C408 1.347 . S
N410 C411 1.373 . S
C411 C409 1.350 . S
C411 N410 1.373 . S
C411 H425 0.931 . S
C412 O415 1.256 . S
C412 O416 1.255 . S
O413 Co396 2.021 1_565 S
O413 C406 1.259 . S
O414 Co398 2.117 . S
O414 C406 1.258 1_545 S
O415 Co398 2.020 . S
O415 C412 1.256 . S
O416 Co396 2.062 . S
O416 C412 1.255 . S
O417 C397 1.259 . S
O417 Co398 2.021 . S
H418 C409 0.930 . S
H419 C408 0.931 . S
O420 Co396 2.117 . S
O420 C397 1.258 . S
O421 Co396 2.020 . S
O421 C423 1.256 . S
O422 Co398 2.062 . S
O422 C423 1.255 . S
C423 O421 1.256 . S
C423 O422 1.255 . S
H424 C403 0.931 . S
H425 C411 0.931 . S
Co426 N431 2.057 . S
Co426 O443 2.021 . S
Co426 O446 2.062 . S
Co426 O450 2.117 . S
Co426 O451 2.020 . S
C427 O447 1.259 . S
C427 O450 1.258 . S
Co428 N437 2.057 . S
Co428 O444 2.117 . S
Co428 O445 2.020 . S
Co428 O447 2.021 . S
Co428 O452 2.062 . S
C429 N431 1.316 . S
C429 N432 1.347 . S
C429 H434 0.931 . S
C430 N431 1.375 . S
C430 C433 1.350 . S
C430 H435 0.930 . S
N431 Co426 2.057 . S
N431 C429 1.316 . S
N431 C430 1.375 . S
N432 C429 1.347 . S
N432 C433 1.373 . S
C433 C430 1.350 . S
C433 N432 1.373 . S
C433 H454 0.931 . S
H434 C429 0.931 . S
H435 C430 0.930 . S
C436 O443 1.259 . S
C436 O444 1.258 . S
N437 Co428 2.057 . S
N437 C438 1.316 . S
N437 C439 1.375 . S
C438 N437 1.316 . S
C438 N440 1.347 . S
C438 H449 0.931 . S
C439 N437 1.375 . S
C439 C441 1.350 . S
C439 H448 0.930 . S
N440 C438 1.347 . S
N440 C441 1.373 . S
C441 C439 1.350 . S
C441 N440 1.373 . S
C441 H455 0.931 . S
C442 O445 1.256 . S
C442 O446 1.255 . S
O443 Co426 2.021 . S
O443 C436 1.259 . S
O444 Co428 2.117 . S
O444 C436 1.258 . S
O445 Co428 2.020 . S
O445 C442 1.256 . S
O446 Co426 2.062 . S
O446 C442 1.255 . S
O447 C427 1.259 . S
O447 Co428 2.021 . S
H448 C439 0.930 . S
H449 C438 0.931 . S
O450 Co426 2.117 . S
O450 C427 1.258 . S
O451 Co426 2.020 . S
O451 C453 1.256 . S
O452 Co428 2.062 . S
O452 C453 1.255 . S
C453 O451 1.256 . S
C453 O452 1.255 . S
H454 C433 0.931 . S
H455 C441 0.931 . S
Co456 N461 2.057 1_545 S
Co456 O473 2.021 . S
Co456 O476 2.062 1_545 S
Co456 O480 2.117 . S
Co456 O481 2.020 1_455 S
C457 O477 1.259 . S
C457 O480 1.258 . S
Co458 N467 2.057 . S
Co458 O474 2.117 . S
Co458 O475 2.020 . S
Co458 O477 2.021 . S
Co458 O482 2.030 1_455 S
C459 N461 1.316 . S
C459 N462 1.347 . S
C459 H464 0.931 . S
C460 N461 1.375 1_655 S
C460 C463 1.350 . S
C460 H465 0.930 . S
N461 Co456 2.057 1_565 S
N461 C459 1.316 . S
N461 C460 1.375 1_455 S
N462 C459 1.347 . S
N462 C463 1.373 1_455 S
C463 C460 1.350 . S
C463 N462 1.373 1_655 S
C463 H484 0.931 . S
H464 C459 0.931 . S
H465 C460 0.930 . S
C466 O473 1.259 . S
C466 O474 1.258 . S
N467 Co458 2.057 . S
N467 C468 1.316 . S
N467 C469 1.375 . S
C468 N467 1.316 . S
C468 N470 1.347 . S
C468 H479 0.931 . S
C469 N467 1.375 . S
C469 C471 1.350 . S
C469 H478 0.930 . S
N470 C468 1.347 . S
N470 C471 1.373 . S
C471 C469 1.350 . S
C471 N470 1.373 . S
C471 H485 0.931 . S
C472 O475 1.256 . S
C472 O476 1.255 1_545 S
O473 Co456 2.021 . S
O473 C466 1.259 . S
O474 Co458 2.117 . S
O474 C466 1.258 . S
O475 Co458 2.020 . S
O475 C472 1.256 . S
O476 Co456 2.062 1_565 S
O476 C472 1.255 1_565 S
O477 C457 1.259 . S
O477 Co458 2.021 . S
H478 C469 0.930 . S
H479 C468 0.931 . S
O480 Co456 2.117 . S
O480 C457 1.258 . S
O481 Co456 2.020 1_655 S
O481 C483 1.256 . S
O482 Co458 2.030 1_655 S
O482 C483 1.277 . S
C483 O481 1.256 . S
C483 O482 1.277 . S
H484 C463 0.931 . S
H485 C471 0.931 . S
Co486 N491 2.057 . S
Co486 O503 2.021 . S
Co486 O506 2.062 . S
Co486 O510 2.117 . S
Co486 O511 2.020 . S
C487 O507 1.259 . S
C487 O510 1.258 . S
Co488 N497 2.057 . S
Co488 O504 2.117 . S
Co488 O505 2.020 . S
Co488 O507 2.021 . S
Co488 O512 2.062 . S
C489 N491 1.316 . S
C489 N492 1.347 . S
C489 H494 0.931 . S
C490 N491 1.375 . S
C490 C493 1.350 . S
C490 H495 0.930 . S
N491 Co486 2.057 . S
N491 C489 1.316 . S
N491 C490 1.375 . S
N492 C489 1.347 . S
N492 C493 1.373 . S
C493 C490 1.350 . S
C493 N492 1.373 . S
C493 H514 0.931 . S
H494 C489 0.931 . S
H495 C490 0.930 . S
C496 O503 1.259 . S
C496 O504 1.258 . S
N497 Co488 2.057 . S
N497 C498 1.316 . S
N497 C499 1.375 . S
C498 N497 1.316 . S
C498 N500 1.347 . S
C498 H509 0.931 . S
C499 N497 1.375 . S
C499 C501 1.350 . S
C499 H508 0.930 . S
N500 C498 1.347 . S
N500 C501 1.373 . S
C501 C499 1.350 . S
C501 N500 1.373 . S
C501 H515 0.931 . S
C502 O505 1.256 . S
C502 O506 1.255 . S
O503 Co486 2.021 . S
O503 C496 1.259 . S
O504 Co488 2.117 . S
O504 C496 1.258 . S
O505 Co488 2.020 . S
O505 C502 1.256 . S
O506 Co486 2.062 . S
O506 C502 1.255 . S
O507 C487 1.259 . S
O507 Co488 2.021 . S
H508 C499 0.930 . S
H509 C498 0.931 . S
O510 Co486 2.117 . S
O510 C487 1.258 . S
O511 Co486 2.020 . S
O511 C513 1.256 . S
O512 Co488 2.062 . S
O512 C513 1.255 . S
C513 O511 1.256 . S
C513 O512 1.255 . S
H514 C493 0.931 . S
H515 C501 0.931 . S
Co516 N521 2.057 1_554 S
Co516 O533 2.021 . S
Co516 O536 2.062 . S
Co516 O540 2.117 . S
Co516 O541 2.020 1_545 S
C517 O537 1.259 . S
C517 O540 1.258 . S
Co518 N527 2.057 . S
Co518 O534 2.117 . S
Co518 O535 2.020 . S
Co518 O537 2.021 . S
Co518 O542 2.062 . S
C519 N521 1.316 . S
C519 N522 1.347 . S
C519 H524 0.931 . S
C520 N521 1.375 . S
C520 C523 1.350 . S
C520 H525 0.930 . S
N521 Co516 2.057 1_556 S
N521 C519 1.316 . S
N521 C520 1.375 . S
N522 C519 1.347 . S
N522 C523 1.373 . S
C523 C520 1.350 . S
C523 N522 1.373 . S
C523 H544 0.949 . S
H524 C519 0.931 . S
H525 C520 0.930 . S
C526 O533 1.259 . S
C526 O534 1.258 . S
N527 Co518 2.057 . S
N527 C528 1.316 . S
N527 C529 1.375 . S
C528 N527 1.316 . S
C528 N530 1.347 . S
C528 H539 0.931 . S
C529 N527 1.375 . S
C529 C531 1.350 . S
C529 H538 0.930 . S
N530 C528 1.347 . S
N530 C531 1.373 . S
C531 C529 1.350 . S
C531 N530 1.373 . S
C531 H545 0.931 . S
C532 O535 1.256 . S
C532 O536 1.255 . S
O533 Co516 2.021 . S
O533 C526 1.259 . S
O534 Co518 2.117 . S
O534 C526 1.258 . S
O535 Co518 2.020 . S
O535 C532 1.256 . S
O536 Co516 2.062 . S
O536 C532 1.255 . S
O537 C517 1.259 . S
O537 Co518 2.021 . S
H538 C529 0.930 . S
H539 C528 0.931 . S
O540 Co516 2.117 . S
O540 C517 1.258 . S
O541 Co516 2.020 1_565 S
O541 C543 1.256 . S
O542 Co518 2.062 . S
O542 C543 1.255 1_545 S
C543 O541 1.256 . S
C543 O542 1.255 1_565 S
H544 C523 0.949 . S
H545 C531 0.931 . S
Co546 N551 2.057 . S
Co546 O563 2.021 . S
Co546 O566 2.062 . S
Co546 O570 2.117 . S
Co546 O571 2.020 . S
C547 O567 1.259 . S
C547 O570 1.258 . S
Co548 N557 2.057 . S
Co548 O564 2.117 . S
Co548 O565 2.020 . S
Co548 O567 2.021 . S
Co548 O572 2.062 . S
C549 N551 1.316 . S
C549 N552 1.347 . S
C549 H554 0.931 . S
C550 N551 1.375 . S
C550 C553 1.350 . S
C550 H555 0.930 . S
N551 Co546 2.057 . S
N551 C549 1.316 . S
N551 C550 1.375 . S
N552 C549 1.347 . S
N552 C553 1.373 . S
C553 C550 1.350 . S
C553 N552 1.373 . S
C553 H574 0.931 . S
H554 C549 0.931 . S
H555 C550 0.930 . S
C556 O563 1.259 . S
C556 O564 1.258 . S
N557 Co548 2.057 . S
N557 C558 1.316 . S
N557 C559 1.375 . S
C558 N557 1.316 . S
C558 N560 1.347 . S
C558 H569 0.931 . S
C559 N557 1.375 . S
C559 C561 1.350 . S
C559 H568 0.930 . S
N560 C558 1.347 . S
N560 C561 1.373 . S
C561 C559 1.350 . S
C561 N560 1.373 . S
C561 H575 0.931 . S
C562 O565 1.256 . S
C562 O566 1.255 . S
O563 Co546 2.021 . S
O563 C556 1.259 . S
O564 Co548 2.117 . S
O564 C556 1.258 . S
O565 Co548 2.020 . S
O565 C562 1.256 . S
O566 Co546 2.062 . S
O566 C562 1.255 . S
O567 C547 1.259 . S
O567 Co548 2.021 . S
H568 C559 0.930 . S
H569 C558 0.931 . S
O570 Co546 2.117 . S
O570 C547 1.258 . S
O571 Co546 2.020 . S
O571 C573 1.256 . S
O572 Co548 2.062 . S
O572 C573 1.255 . S
C573 O571 1.256 . S
C573 O572 1.255 . S
H574 C553 0.931 . S
H575 C561 0.931 . S
Co576 N581 2.057 . S
Co576 O593 2.026 . S
Co576 O596 2.062 . S
Co576 O600 2.117 . S
Co576 O601 2.020 . S
C577 O597 1.259 . S
C577 O600 1.258 . S
Co578 N587 2.057 . S
Co578 O594 2.117 . S
Co578 O595 2.020 . S
Co578 O597 2.021 . S
Co578 O602 2.062 . S
C579 N581 1.316 . S
C579 N582 1.347 . S
C579 H584 0.931 1_554 S
C580 N581 1.375 . S
C580 C583 1.350 . S
C580 H585 0.930 . S
N581 Co576 2.057 . S
N581 C579 1.316 . S
N581 C580 1.375 . S
N582 C579 1.347 . S
N582 C583 1.373 . S
C583 C580 1.350 . S
C583 N582 1.373 . S
C583 H604 0.931 . S
H584 C579 0.931 1_556 S
H585 C580 0.930 . S
C586 O593 1.259 1_556 S
C586 O594 1.260 1_556 S
N587 Co578 2.057 . S
N587 C588 1.316 . S
N587 C589 1.375 . S
C588 N587 1.316 . S
C588 N590 1.347 . S
C588 H599 0.931 . S
C589 N587 1.375 . S
C589 C591 1.350 . S
C589 H598 0.930 . S
N590 C588 1.347 . S
N590 C591 1.373 . S
C591 C589 1.350 . S
C591 N590 1.373 . S
C591 H605 0.931 . S
C592 O595 1.256 . S
C592 O596 1.255 . S
O593 Co576 2.026 . S
O593 C586 1.259 1_554 S
O594 Co578 2.117 . S
O594 C586 1.260 1_554 S
O595 Co578 2.020 . S
O595 C592 1.256 . S
O596 Co576 2.062 . S
O596 C592 1.255 . S
O597 C577 1.259 . S
O597 Co578 2.021 . S
H598 C589 0.930 . S
H599 C588 0.931 . S
O600 Co576 2.117 . S
O600 C577 1.258 . S
O601 Co576 2.020 . S
O601 C603 1.256 . S
O602 Co578 2.062 . S
O602 C603 1.255 . S
C603 O601 1.256 . S
C603 O602 1.255 . S
H604 C583 0.931 . S
H605 C591 0.931 . S
Co606 N611 2.057 . S
Co606 O623 2.021 . S
Co606 O626 2.062 . S
Co606 O630 2.117 . S
Co606 O631 2.020 . S
C607 O627 1.259 . S
C607 O630 1.258 . S
Co608 N617 2.057 . S
Co608 O624 2.117 . S
Co608 O625 2.020 . S
Co608 O627 2.021 . S
Co608 O632 2.062 . S
C609 N611 1.316 . S
C609 N612 1.347 . S
C609 H614 0.931 . S
C610 N611 1.375 . S
C610 C613 1.350 . S
C610 H615 0.930 . S
N611 Co606 2.057 . S
N611 C609 1.316 . S
N611 C610 1.375 . S
N612 C609 1.347 . S
N612 C613 1.373 . S
C613 C610 1.350 . S
C613 N612 1.373 . S
C613 H634 0.931 . S
H614 C609 0.931 . S
H615 C610 0.930 . S
C616 O623 1.259 . S
C616 O624 1.258 . S
N617 Co608 2.057 . S
N617 C618 1.316 . S
N617 C619 1.375 . S
C618 N617 1.316 . S
C618 N620 1.347 . S
C618 H629 0.931 . S
C619 N617 1.375 . S
C619 C621 1.350 . S
C619 H628 0.930 . S
N620 C618 1.347 . S
N620 C621 1.373 . S
C621 C619 1.350 . S
C621 N620 1.373 . S
C621 H635 0.931 . S
C622 O625 1.256 . S
C622 O626 1.255 . S
O623 Co606 2.021 . S
O623 C616 1.259 . S
O624 Co608 2.117 . S
O624 C616 1.258 . S
O625 Co608 2.020 . S
O625 C622 1.256 . S
O626 Co606 2.062 . S
O626 C622 1.255 . S
O627 C607 1.259 . S
O627 Co608 2.021 . S
H628 C619 0.930 . S
H629 C618 0.931 . S
O630 Co606 2.117 . S
O630 C607 1.258 . S
O631 Co606 2.020 . S
O631 C633 1.256 . S
O632 Co608 2.062 . S
O632 C633 1.255 . S
C633 O631 1.256 . S
C633 O632 1.255 . S
H634 C613 0.931 . S
H635 C621 0.931 . S
Co636 N641 2.057 . S
Co636 O653 2.021 1_455 S
Co636 O656 2.062 . S
Co636 O660 2.117 . S
Co636 O661 2.020 . S
C637 O657 1.259 . S
C637 O660 1.258 . S
Co638 N647 2.057 . S
Co638 O654 2.117 . S
Co638 O655 2.020 . S
Co638 O657 2.021 . S
Co638 O662 2.062 . S
C639 N641 1.316 . S
C639 N642 1.347 . S
C639 H644 0.931 1_455 S
C640 N641 1.375 . S
C640 C643 1.350 . S
C640 H645 0.930 . S
N641 Co636 2.057 . S
N641 C639 1.316 . S
N641 C640 1.375 . S
N642 C639 1.347 . S
N642 C643 1.373 . S
C643 C640 1.350 . S
C643 N642 1.373 . S
C643 H664 0.931 . S
H644 C639 0.931 1_655 S
H645 C640 0.930 . S
C646 O653 1.259 . S
C646 O654 1.258 1_655 S
N647 Co638 2.057 . S
N647 C648 1.316 . S
N647 C649 1.375 . S
C648 N647 1.316 . S
C648 N650 1.347 . S
C648 H659 0.931 . S
C649 N647 1.375 . S
C649 C651 1.350 . S
C649 H658 0.930 . S
N650 C648 1.347 . S
N650 C651 1.373 . S
C651 C649 1.350 . S
C651 N650 1.373 . S
C651 H665 0.931 . S
C652 O655 1.256 . S
C652 O656 1.255 . S
O653 Co636 2.021 1_655 S
O653 C646 1.259 . S
O654 Co638 2.117 . S
O654 C646 1.258 1_455 S
O655 Co638 2.020 . S
O655 C652 1.256 . S
O656 Co636 2.062 . S
O656 C652 1.255 . S
O657 C637 1.259 . S
O657 Co638 2.021 . S
H658 C649 0.930 . S
H659 C648 0.931 . S
O660 Co636 2.117 . S
O660 C637 1.258 . S
O661 Co636 2.020 . S
O661 C663 1.256 . S
O662 Co638 2.062 . S
O662 C663 1.255 . S
C663 O661 1.256 . S
C663 O662 1.255 . S
H664 C643 0.931 . S
H665 C651 0.931 . S
Co666 N671 2.057 . S
Co666 O683 2.021 . S
Co666 O686 2.062 . S
Co666 O690 2.117 . S
Co666 O691 2.020 . S
C667 O687 1.259 . S
C667 O690 1.258 . S
Co668 N677 2.057 . S
Co668 O684 2.117 . S
Co668 O685 2.020 . S
Co668 O687 2.021 . S
Co668 O692 2.062 . S
C669 N671 1.316 . S
C669 N672 1.347 . S
C669 H674 0.931 . S
C670 N671 1.375 . S
C670 C673 1.350 . S
C670 H675 0.930 . S
N671 Co666 2.057 . S
N671 C669 1.316 . S
N671 C670 1.375 . S
N672 C669 1.347 . S
N672 C673 1.373 . S
C673 C670 1.350 . S
C673 N672 1.373 . S
C673 H694 0.931 . S
H674 C669 0.931 . S
H675 C670 0.930 . S
C676 O683 1.259 . S
C676 O684 1.258 . S
N677 Co668 2.057 . S
N677 C678 1.316 . S
N677 C679 1.375 . S
C678 N677 1.316 . S
C678 N680 1.347 . S
C678 H689 0.931 . S
C679 N677 1.375 . S
C679 C681 1.350 . S
C679 H688 0.930 . S
N680 C678 1.347 . S
N680 C681 1.373 . S
C681 C679 1.350 . S
C681 N680 1.373 . S
C681 H695 0.931 . S
C682 O685 1.256 . S
C682 O686 1.255 . S
O683 Co666 2.021 . S
O683 C676 1.259 . S
O684 Co668 2.117 . S
O684 C676 1.258 . S
O685 Co668 2.020 . S
O685 C682 1.256 . S
O686 Co666 2.062 . S
O686 C682 1.255 . S
O687 C667 1.259 . S
O687 Co668 2.021 . S
H688 C679 0.930 . S
H689 C678 0.931 . S
O690 Co666 2.117 . S
O690 C667 1.258 . S
O691 Co666 2.020 . S
O691 C693 1.256 . S
O692 Co668 2.062 . S
O692 C693 1.255 . S
C693 O691 1.256 . S
C693 O692 1.255 . S
H694 C673 0.931 . S
H695 C681 0.931 . S
Co696 N701 2.057 . S
Co696 O713 2.021 . S
Co696 O716 2.062 . S
Co696 O720 2.117 . S
Co696 O721 2.020 . S
C697 O717 1.259 . S
C697 O720 1.258 . S
Co698 N707 2.057 . S
Co698 O714 2.117 . S
Co698 O715 2.020 . S
Co698 O717 2.021 . S
Co698 O722 2.062 . S
C699 N701 1.316 . S
C699 N702 1.347 . S
C699 H704 0.931 . S
C700 N701 1.375 . S
C700 C703 1.350 . S
C700 H705 0.930 . S
N701 Co696 2.057 . S
N701 C699 1.316 . S
N701 C700 1.375 . S
N702 C699 1.347 . S
N702 C703 1.373 . S
C703 C700 1.350 . S
C703 N702 1.373 . S
C703 H724 0.931 . S
H704 C699 0.931 . S
H705 C700 0.930 . S
C706 O713 1.259 . S
C706 O714 1.258 . S
N707 Co698 2.057 . S
N707 C708 1.316 . S
N707 C709 1.375 . S
C708 N707 1.316 . S
C708 N710 1.347 . S
C708 H719 0.931 . S
C709 N707 1.375 . S
C709 C711 1.350 . S
C709 H718 0.930 . S
N710 C708 1.347 . S
N710 C711 1.373 . S
C711 C709 1.350 . S
C711 N710 1.373 . S
C711 H725 0.931 . S
C712 O715 1.256 . S
C712 O716 1.255 . S
O713 Co696 2.021 . S
O713 C706 1.259 . S
O714 Co698 2.117 . S
O714 C706 1.258 . S
O715 Co698 2.020 . S
O715 C712 1.256 . S
O716 Co696 2.062 . S
O716 C712 1.255 . S
O717 C697 1.259 . S
O717 Co698 2.021 . S
H718 C709 0.930 . S
H719 C708 0.931 . S
O720 Co696 2.117 . S
O720 C697 1.258 . S
O721 Co696 2.020 . S
O721 C723 1.256 . S
O722 Co698 2.062 . S
O722 C723 1.255 . S
C723 O721 1.256 . S
C723 O722 1.255 . S
H724 C703 0.931 . S
H725 C711 0.931 . S
Co726 N731 2.057 . S
Co726 O743 2.021 . S
Co726 O746 2.062 . S
Co726 O750 2.117 . S
Co726 O751 2.020 . S
C727 O747 1.259 . S
C727 O750 1.258 . S
Co728 N737 2.057 . S
Co728 O744 2.117 . S
Co728 O745 2.020 . S
Co728 O747 2.021 . S
Co728 O752 2.062 . S
C729 N731 1.316 . S
C729 N732 1.347 . S
C729 H734 0.931 . S
C730 N731 1.375 . S
C730 C733 1.350 . S
C730 H735 0.930 . S
N731 Co726 2.057 . S
N731 C729 1.316 . S
N731 C730 1.375 . S
N732 C729 1.347 . S
N732 C733 1.373 . S
C733 C730 1.350 . S
C733 N732 1.373 . S
C733 H754 0.931 . S
H734 C729 0.931 . S
H735 C730 0.930 . S
C736 O743 1.259 . S
C736 O744 1.258 . S
N737 Co728 2.057 . S
N737 C738 1.316 . S
N737 C739 1.375 . S
C738 N737 1.316 . S
C738 N740 1.347 . S
C738 H749 0.931 . S
C739 N737 1.375 . S
C739 C741 1.350 . S
C739 H748 0.930 . S
N740 C738 1.347 . S
N740 C741 1.373 . S
C741 C739 1.350 . S
C741 N740 1.373 . S
C741 H755 0.931 . S
C742 O745 1.256 . S
C742 O746 1.255 . S
O743 Co726 2.021 . S
O743 C736 1.259 . S
O744 Co728 2.117 . S
O744 C736 1.258 . S
O745 Co728 2.020 . S
O745 C742 1.256 . S
O746 Co726 2.062 . S
O746 C742 1.255 . S
O747 C727 1.259 . S
O747 Co728 2.021 . S
H748 C739 0.930 . S
H749 C738 0.931 . S
O750 Co726 2.117 . S
O750 C727 1.258 . S
O751 Co726 2.020 . S
O751 C753 1.256 . S
O752 Co728 2.062 . S
O752 C753 1.255 . S
C753 O751 1.256 . S
C753 O752 1.255 . S
H754 C733 0.931 . S
H755 C741 0.931 . S
Co756 N761 2.057 . S
Co756 O773 2.021 . S
Co756 O776 2.062 . S
Co756 O780 2.117 . S
Co756 O781 2.020 . S
C757 O777 1.259 . S
C757 O780 1.258 . S
Co758 N767 2.057 . S
Co758 O774 2.117 . S
Co758 O775 2.020 . S
Co758 O777 2.021 . S
Co758 O782 2.062 . S
C759 N761 1.316 . S
C759 N762 1.347 . S
C759 H764 0.931 . S
C760 N761 1.375 . S
C760 C763 1.350 . S
C760 H765 0.930 . S
N761 Co756 2.057 . S
N761 C759 1.316 . S
N761 C760 1.375 . S
N762 C759 1.347 . S
N762 C763 1.373 . S
C763 C760 1.350 . S
C763 N762 1.373 . S
C763 H784 0.931 . S
H764 C759 0.931 . S
H765 C760 0.930 . S
C766 O773 1.259 . S
C766 O774 1.258 . S
N767 Co758 2.057 . S
N767 C768 1.316 . S
N767 C769 1.375 . S
C768 N767 1.316 . S
C768 N770 1.347 . S
C768 H779 0.931 . S
C769 N767 1.375 . S
C769 C771 1.350 . S
C769 H778 0.930 . S
N770 C768 1.347 . S
N770 C771 1.373 . S
C771 C769 1.350 . S
C771 N770 1.373 . S
C771 H785 0.931 . S
C772 O775 1.256 . S
C772 O776 1.255 . S
O773 Co756 2.021 . S
O773 C766 1.259 . S
O774 Co758 2.117 . S
O774 C766 1.258 . S
O775 Co758 2.020 . S
O775 C772 1.256 . S
O776 Co756 2.062 . S
O776 C772 1.255 . S
O777 C757 1.259 . S
O777 Co758 2.021 . S
H778 C769 0.930 . S
H779 C768 0.931 . S
O780 Co756 2.117 . S
O780 C757 1.258 . S
O781 Co756 2.020 . S
O781 C783 1.256 . S
O782 Co758 2.062 . S
O782 C783 1.255 . S
C783 O781 1.256 . S
C783 O782 1.255 . S
H784 C763 0.931 . S
H785 C771 0.931 . S
Co786 N791 2.057 1_455 S
Co786 O803 2.021 . S
Co786 O806 2.062 . S
Co786 O810 2.117 . S
Co786 O811 1.995 1_554 S
C787 O807 1.259 . S
C787 O810 1.258 . S
Co788 N797 2.057 . S
Co788 O804 2.117 . S
Co788 O805 2.020 . S
Co788 O807 2.021 . S
Co788 O812 2.062 . S
C789 N791 1.316 . S
C789 N792 1.347 . S
C789 H794 0.931 . S
C790 N791 1.375 . S
C790 C793 1.350 . S
C790 H795 0.930 . S
N791 Co786 2.057 1_655 S
N791 C789 1.316 . S
N791 C790 1.375 . S
N792 C789 1.347 . S
N792 C793 1.373 . S
C793 C790 1.350 . S
C793 N792 1.373 . S
C793 H814 0.931 . S
H794 C789 0.931 . S
H795 C790 0.930 . S
C796 O803 1.259 . S
C796 O804 1.258 . S
N797 Co788 2.057 . S
N797 C798 1.316 . S
N797 C799 1.375 . S
C798 N797 1.316 . S
C798 N800 1.347 . S
C798 H809 0.931 . S
C799 N797 1.375 . S
C799 C801 1.350 . S
C799 H808 0.930 . S
N800 C798 1.347 . S
N800 C801 1.373 . S
C801 C799 1.350 . S
C801 N800 1.373 . S
C801 H815 0.931 . S
C802 O805 1.256 . S
C802 O806 1.255 . S
O803 Co786 2.021 . S
O803 C796 1.259 . S
O804 Co788 2.117 . S
O804 C796 1.258 . S
O805 Co788 2.020 . S
O805 C802 1.256 . S
O806 Co786 2.062 . S
O806 C802 1.255 . S
O807 C787 1.259 . S
O807 Co788 2.021 . S
H808 C799 0.930 . S
H809 C798 0.931 . S
O810 Co786 2.117 . S
O810 C787 1.258 . S
O811 Co786 1.995 1_556 S
O811 C813 1.261 . S
O812 Co788 2.062 . S
O812 C813 1.255 1_554 S
C813 O811 1.261 . S
C813 O812 1.255 1_556 S
H814 C793 0.931 . S
H815 C801 0.931 . S
H816 C824 0.950 . S
H817 C829 0.950 . S
H818 C826 0.950 . S
H819 C828 0.950 . S
H820 C830 0.950 . S
H821 C832 0.950 . S
H822 C834 0.950 . S
H823 C835 0.950 1_655 S
C824 H816 0.950 . S
C824 C825 1.386 . S
C824 C826 1.391 . S
C825 C824 1.386 . S
C825 C829 1.393 . S
C826 H818 0.950 . S
C826 C824 1.391 . S
C826 C827 1.400 . S
C827 C826 1.400 . S
C827 C828 1.398 . S
C827 C833 1.491 . S
C828 H819 0.950 . S
C828 C827 1.398 . S
C828 C829 1.391 . S
C829 H817 0.950 . S
C829 C825 1.393 . S
C829 C828 1.391 . S
C830 H820 0.950 . S
C830 C831 1.386 . S
C830 C832 1.391 . S
C831 C830 1.386 . S
C831 C835 1.393 . S
C832 H821 0.950 . S
C832 C830 1.391 . S
C832 C833 1.400 . S
C833 C827 1.491 . S
C833 C832 1.400 . S
C833 C834 1.398 . S
C834 H822 0.950 . S
C834 C833 1.398 . S
C834 C835 1.391 . S
C835 H823 0.950 1_455 S
C835 C831 1.393 . S
C835 C834 1.391 . S
H836 C844 0.950 . S
H837 C849 0.950 . S
H838 C846 0.950 . S
H839 C848 0.950 . S
H840 C850 0.950 . S
H841 C852 0.950 . S
H842 C854 0.950 . S
H843 C855 0.950 . S
C844 H836 0.950 . S
C844 C845 1.386 . S
C844 C846 1.391 . S
C845 C844 1.386 . S
C845 C849 1.393 . S
C846 H838 0.950 . S
C846 C844 1.391 . S
C846 C847 1.400 . S
C847 C846 1.400 . S
C847 C848 1.398 . S
C847 C853 1.491 . S
C848 H839 0.950 . S
C848 C847 1.398 . S
C848 C849 1.391 . S
C849 H837 0.950 . S
C849 C845 1.393 . S
C849 C848 1.391 . S
C850 H840 0.950 . S
C850 C851 1.386 . S
C850 C852 1.391 . S
C851 C850 1.386 . S
C851 C855 1.393 . S
C852 H841 0.950 . S
C852 C850 1.391 . S
C852 C853 1.400 . S
C853 C847 1.491 . S
C853 C852 1.400 . S
C853 C854 1.398 . S
C854 H842 0.950 . S
C854 C853 1.398 . S
C854 C855 1.391 . S
C855 H843 0.950 . S
C855 C851 1.393 . S
C855 C854 1.391 . S
H856 C864 0.950 . S
H857 C869 0.950 . S
H858 C866 0.950 . S
H859 C868 0.950 . S
H860 C870 0.950 . S
H861 C872 0.950 . S
H862 C874 0.950 . S
H863 C875 0.950 . S
C864 H856 0.950 . S
C864 C865 1.386 . S
C864 C866 1.391 . S
C865 C864 1.386 . S
C865 C869 1.393 . S
C866 H858 0.950 . S
C866 C864 1.391 . S
C866 C867 1.400 . S
C867 C866 1.400 . S
C867 C868 1.398 . S
C867 C873 1.491 . S
C868 H859 0.950 . S
C868 C867 1.398 . S
C868 C869 1.391 . S
C869 H857 0.950 . S
C869 C865 1.393 . S
C869 C868 1.391 . S
C870 H860 0.950 . S
C870 C871 1.386 . S
C870 C872 1.391 . S
C871 C870 1.386 . S
C871 C875 1.393 . S
C872 H861 0.950 . S
C872 C870 1.391 . S
C872 C873 1.400 . S
C873 C867 1.491 . S
C873 C872 1.400 . S
C873 C874 1.398 . S
C874 H862 0.950 . S
C874 C873 1.398 . S
C874 C875 1.391 . S
C875 H863 0.950 . S
C875 C871 1.393 . S
C875 C874 1.391 . S
H876 C884 0.950 . S
H877 C889 0.950 . S
H878 C886 0.950 . S
H879 C888 0.950 . S
H880 C890 0.950 . S
H881 C892 0.950 . S
H882 C894 0.950 . S
H883 C895 0.950 . S
C884 H876 0.950 . S
C884 C885 1.386 . S
C884 C886 1.391 . S
C885 C884 1.386 . S
C885 C889 1.393 . S
C886 H878 0.950 . S
C886 C884 1.391 . S
C886 C887 1.400 . S
C887 C886 1.400 . S
C887 C888 1.398 . S
C887 C893 1.491 . S
C888 H879 0.950 . S
C888 C887 1.398 . S
C888 C889 1.391 . S
C889 H877 0.950 . S
C889 C885 1.393 . S
C889 C888 1.391 . S
C890 H880 0.950 . S
C890 C891 1.386 . S
C890 C892 1.391 . S
C891 C890 1.386 . S
C891 C895 1.393 . S
C892 H881 0.950 . S
C892 C890 1.391 . S
C892 C893 1.400 . S
C893 C887 1.491 . S
C893 C892 1.400 . S
C893 C894 1.398 . S
C894 H882 0.950 . S
C894 C893 1.398 . S
C894 C895 1.391 . S
C895 H883 0.950 . S
C895 C891 1.393 . S
C895 C894 1.391 . S
H896 C904 0.950 . S
H897 C909 0.950 . S
H898 C906 0.950 . S
H899 C908 0.950 . S
H900 C910 0.950 . S
H901 C912 0.950 1_655 S
H902 C914 0.950 . S
H903 C915 0.950 . S
C904 H896 0.950 . S
C904 C905 1.386 . S
C904 C906 1.391 . S
C905 C904 1.386 . S
C905 C909 1.393 . S
C906 H898 0.950 . S
C906 C904 1.391 . S
C906 C907 1.400 . S
C907 C906 1.400 . S
C907 C908 1.398 . S
C907 C913 1.491 . S
C908 H899 0.950 . S
C908 C907 1.398 . S
C908 C909 1.391 . S
C909 H897 0.950 . S
C909 C905 1.393 . S
C909 C908 1.391 . S
C910 H900 0.950 . S
C910 C911 1.386 1_655 S
C910 C912 1.391 1_655 S
C911 C910 1.386 1_455 S
C911 C915 1.393 . S
C912 H901 0.950 1_455 S
C912 C910 1.391 1_455 S
C912 C913 1.400 . S
C913 C907 1.491 . S
C913 C912 1.400 . S
C913 C914 1.398 . S
C914 H902 0.950 . S
C914 C913 1.398 . S
C914 C915 1.391 . S
C915 H903 0.950 . S
C915 C911 1.393 . S
C915 C914 1.391 . S
H916 C924 0.950 . S
H917 C929 0.950 . S
H918 C926 0.950 . S
H919 C928 0.950 . S
H920 C930 0.950 . S
H921 C932 0.950 . S
H922 C934 0.950 . S
H923 C935 0.950 . S
C924 H916 0.950 . S
C924 C925 1.386 . S
C924 C926 1.391 . S
C925 C924 1.386 . S
C925 C929 1.393 . S
C926 H918 0.950 . S
C926 C924 1.391 . S
C926 C927 1.400 . S
C927 C926 1.400 . S
C927 C928 1.398 . S
C927 C933 1.491 . S
C928 H919 0.950 . S
C928 C927 1.398 . S
C928 C929 1.391 . S
C929 H917 0.950 . S
C929 C925 1.393 . S
C929 C928 1.391 . S
C930 H920 0.950 . S
C930 C931 1.386 . S
C930 C932 1.391 . S
C931 C930 1.386 . S
C931 C935 1.393 . S
C932 H921 0.950 . S
C932 C930 1.391 . S
C932 C933 1.400 . S
C933 C927 1.491 . S
C933 C932 1.400 . S
C933 C934 1.398 . S
C934 H922 0.950 . S
C934 C933 1.398 . S
C934 C935 1.391 . S
C935 H923 0.950 . S
C935 C931 1.393 . S
C935 C934 1.391 . S
H936 C944 0.950 . S
H937 C949 0.950 . S
H938 C946 0.950 . S
H939 C948 0.950 . S
H940 C950 0.942 1_554 S
H941 C952 0.950 . S
H942 C954 0.950 . S
H943 C955 0.949 1_554 S
C944 H936 0.950 . S
C944 C945 1.386 . S
C944 C946 1.391 . S
C945 C944 1.386 . S
C945 C949 1.393 . S
C946 H938 0.950 . S
C946 C944 1.391 . S
C946 C947 1.400 . S
C947 C946 1.400 . S
C947 C948 1.398 . S
C947 C953 1.491 . S
C948 H939 0.950 . S
C948 C947 1.398 . S
C948 C949 1.391 . S
C949 H937 0.950 . S
C949 C945 1.393 . S
C949 C948 1.391 . S
C950 H940 0.942 1_556 S
C950 C951 1.374 1_556 S
C950 C952 1.412 . S
C951 C950 1.374 1_554 S
C951 C955 1.393 1_554 S
C952 H941 0.950 . S
C952 C950 1.412 . S
C952 C953 1.400 . S
C953 C947 1.491 . S
C953 C952 1.400 . S
C953 C954 1.398 . S
C954 H942 0.950 . S
C954 C953 1.398 . S
C954 C955 1.391 . S
C955 H943 0.949 1_556 S
C955 C951 1.393 1_556 S
C955 C954 1.391 . S
H956 C964 0.950 . S
H957 C969 0.950 . S
H958 C966 0.950 . S
H959 C968 0.950 . S
H960 C970 0.950 . S
H961 C972 0.950 . S
H962 C974 0.950 . S
H963 C975 0.950 . S
C964 H956 0.950 . S
C964 C965 1.386 . S
C964 C966 1.391 . S
C965 C964 1.386 . S
C965 C969 1.393 . S
C966 H958 0.950 . S
C966 C964 1.391 . S
C966 C967 1.400 . S
C967 C966 1.400 . S
C967 C968 1.398 . S
C967 C973 1.491 . S
C968 H959 0.950 . S
C968 C967 1.398 . S
C968 C969 1.391 . S
C969 H957 0.950 . S
C969 C965 1.393 . S
C969 C968 1.391 . S
C970 H960 0.950 . S
C970 C971 1.386 . S
C970 C972 1.391 . S
C971 C970 1.386 . S
C971 C975 1.393 . S
C972 H961 0.950 . S
C972 C970 1.391 . S
C972 C973 1.400 . S
C973 C967 1.491 . S
C973 C972 1.400 . S
C973 C974 1.398 . S
C974 H962 0.950 . S
C974 C973 1.398 . S
C974 C975 1.391 . S
C975 H963 0.950 . S
C975 C971 1.393 . S
C975 C974 1.391 . S
H976 C984 0.947 1_565 S
H977 C989 0.950 . S
H978 C986 0.958 . S
H979 C988 0.950 . S
H980 C990 0.950 . S
H981 C992 0.950 . S
H982 C994 0.950 . S
H983 C995 0.950 . S
C984 H976 0.947 1_545 S
C984 C985 1.389 . S
C984 C986 1.391 1_545 S
C985 C984 1.389 . S
C985 C989 1.393 . S
C986 H978 0.958 . S
C986 C984 1.391 1_565 S
C986 C987 1.395 1_565 S
C987 C986 1.395 1_545 S
C987 C988 1.398 . S
C987 C993 1.491 . S
C988 H979 0.950 . S
C988 C987 1.398 . S
C988 C989 1.391 . S
C989 H977 0.950 . S
C989 C985 1.393 . S
C989 C988 1.391 . S
C990 H980 0.950 . S
C990 C991 1.386 1_545 S
C990 C992 1.391 . S
C991 C990 1.386 1_565 S
C991 C995 1.393 . S
C992 H981 0.950 . S
C992 C990 1.391 . S
C992 C993 1.401 . S
C993 C987 1.491 . S
C993 C992 1.401 . S
C993 C994 1.398 1_545 S
C994 H982 0.950 . S
C994 C993 1.398 1_565 S
C994 C995 1.391 . S
C995 H983 0.950 . S
C995 C991 1.393 . S
C995 C994 1.391 . S
H996 C1004 0.950 . S
H997 C1009 0.950 . S
H998 C1006 0.950 . S
H999 C1008 0.950 . S
H1000 C1010 0.950 . S
H1001 C1012 0.950 . S
H1002 C1014 0.950 . S
H1003 C1015 0.950 . S
C1004 H996 0.950 . S
C1004 C1005 1.386 . S
C1004 C1006 1.391 . S
C1005 C1004 1.386 . S
C1005 C1009 1.393 . S
C1006 H998 0.950 . S
C1006 C1004 1.391 . S
C1006 C1007 1.400 . S
C1007 C1006 1.400 . S
C1007 C1008 1.398 . S
C1007 C1013 1.491 . S
C1008 H999 0.950 . S
C1008 C1007 1.398 . S
C1008 C1009 1.391 . S
C1009 H997 0.950 . S
C1009 C1005 1.393 . S
C1009 C1008 1.391 . S
C1010 H1000 0.950 . S
C1010 C1011 1.386 . S
C1010 C1012 1.391 . S
C1011 C1010 1.386 . S
C1011 C1015 1.393 . S
C1012 H1001 0.950 . S
C1012 C1010 1.391 . S
C1012 C1013 1.400 . S
C1013 C1007 1.491 . S
C1013 C1012 1.400 . S
C1013 C1014 1.398 . S
C1014 H1002 0.950 . S
C1014 C1013 1.398 . S
C1014 C1015 1.391 . S
C1015 H1003 0.950 . S
C1015 C1011 1.393 . S
C1015 C1014 1.391 . S
H1016 C1024 0.950 . S
H1017 C1029 0.950 . S
H1018 C1026 0.950 . S
H1019 C1028 0.950 . S
H1020 C1030 0.950 . S
H1021 C1032 0.950 . S
H1022 C1034 0.950 . S
H1023 C1035 0.950 . S
C1024 H1016 0.950 . S
C1024 C1025 1.386 . S
C1024 C1026 1.391 . S
C1025 C1024 1.386 . S
C1025 C1029 1.393 . S
C1026 H1018 0.950 . S
C1026 C1024 1.391 . S
C1026 C1027 1.400 . S
C1027 C1026 1.400 . S
C1027 C1028 1.398 . S
C1027 C1033 1.491 . S
C1028 H1019 0.950 . S
C1028 C1027 1.398 . S
C1028 C1029 1.391 . S
C1029 H1017 0.950 . S
C1029 C1025 1.393 . S
C1029 C1028 1.391 . S
C1030 H1020 0.950 . S
C1030 C1031 1.386 . S
C1030 C1032 1.391 . S
C1031 C1030 1.386 . S
C1031 C1035 1.393 . S
C1032 H1021 0.950 . S
C1032 C1030 1.391 . S
C1032 C1033 1.400 . S
C1033 C1027 1.491 . S
C1033 C1032 1.400 . S
C1033 C1034 1.398 . S
C1034 H1022 0.950 . S
C1034 C1033 1.398 . S
C1034 C1035 1.391 . S
C1035 H1023 0.950 . S
C1035 C1031 1.393 . S
C1035 C1034 1.391 . S
H1036 C1044 0.950 . S
H1037 C1049 0.950 . S
H1038 C1046 0.950 . S
H1039 C1048 0.950 . S
H1040 C1050 0.950 . S
H1041 C1052 0.950 . S
H1042 C1054 0.950 . S
H1043 C1055 0.950 . S
C1044 H1036 0.950 . S
C1044 C1045 1.386 . S
C1044 C1046 1.391 . S
C1045 C1044 1.386 . S
C1045 C1049 1.393 . S
C1046 H1038 0.950 . S
C1046 C1044 1.391 . S
C1046 C1047 1.400 . S
C1047 C1046 1.400 . S
C1047 C1048 1.398 . S
C1047 C1053 1.491 . S
C1048 H1039 0.950 . S
C1048 C1047 1.398 . S
C1048 C1049 1.391 . S
C1049 H1037 0.950 . S
C1049 C1045 1.393 . S
C1049 C1048 1.391 . S
C1050 H1040 0.950 . S
C1050 C1051 1.386 . S
C1050 C1052 1.391 . S
C1051 C1050 1.386 . S
C1051 C1055 1.393 . S
C1052 H1041 0.950 . S
C1052 C1050 1.391 . S
C1052 C1053 1.400 . S
C1053 C1047 1.491 . S
C1053 C1052 1.400 . S
C1053 C1054 1.398 . S
C1054 H1042 0.950 . S
C1054 C1053 1.398 . S
C1054 C1055 1.391 . S
C1055 H1043 0.950 . S
C1055 C1051 1.393 . S
C1055 C1054 1.391 . S
H1056 C1064 0.950 . S
H1057 C1069 0.950 . S
H1058 C1066 0.950 . S
H1059 C1068 0.950 . S
H1060 C1070 0.950 . S
H1061 C1072 0.950 . S
H1062 C1074 0.950 . S
H1063 C1075 0.950 . S
C1064 H1056 0.950 . S
C1064 C1065 1.386 . S
C1064 C1066 1.391 . S
C1065 C1064 1.386 . S
C1065 C1069 1.393 . S
C1066 H1058 0.950 . S
C1066 C1064 1.391 . S
C1066 C1067 1.400 . S
C1067 C1066 1.400 . S
C1067 C1068 1.398 . S
C1067 C1073 1.491 . S
C1068 H1059 0.950 . S
C1068 C1067 1.398 . S
C1068 C1069 1.391 . S
C1069 H1057 0.950 . S
C1069 C1065 1.393 . S
C1069 C1068 1.391 . S
C1070 H1060 0.950 . S
C1070 C1071 1.386 . S
C1070 C1072 1.391 . S
C1071 C1070 1.386 . S
C1071 C1075 1.393 . S
C1072 H1061 0.950 . S
C1072 C1070 1.391 . S
C1072 C1073 1.400 . S
C1073 C1067 1.491 . S
C1073 C1072 1.400 . S
C1073 C1074 1.398 . S
C1074 H1062 0.950 . S
C1074 C1073 1.398 . S
C1074 C1075 1.391 . S
C1075 H1063 0.950 . S
C1075 C1071 1.393 . S
C1075 C1074 1.391 . S
H1076 C1084 0.950 . S
H1077 C1089 0.950 . S
H1078 C1086 0.950 . S
H1079 C1088 0.950 . S
H1080 C1090 0.950 . S
H1081 C1092 0.950 . S
H1082 C1094 0.950 . S
H1083 C1095 0.950 . S
C1084 H1076 0.950 . S
C1084 C1085 1.386 . S
C1084 C1086 1.391 . S
C1085 C1084 1.386 . S
C1085 C1089 1.393 . S
C1086 H1078 0.950 . S
C1086 C1084 1.391 . S
C1086 C1087 1.400 . S
C1087 C1086 1.400 . S
C1087 C1088 1.398 . S
C1087 C1093 1.491 . S
C1088 H1079 0.950 . S
C1088 C1087 1.398 . S
C1088 C1089 1.391 . S
C1089 H1077 0.950 . S
C1089 C1085 1.393 . S
C1089 C1088 1.391 . S
C1090 H1080 0.950 . S
C1090 C1091 1.386 . S
C1090 C1092 1.391 . S
C1091 C1090 1.386 . S
C1091 C1095 1.393 . S
C1092 H1081 0.950 . S
C1092 C1090 1.391 . S
C1092 C1093 1.400 . S
C1093 C1087 1.491 . S
C1093 C1092 1.400 . S
C1093 C1094 1.398 . S
C1094 H1082 0.950 . S
C1094 C1093 1.398 . S
C1094 C1095 1.391 . S
C1095 H1083 0.950 . S
C1095 C1091 1.393 . S
C1095 C1094 1.391 . S
H1096 C1104 0.950 . S
H1097 C1109 0.950 . S
H1098 C1106 0.950 . S
H1099 C1108 0.950 . S
H1100 C1110 0.950 . S
H1101 C1112 0.950 . S
H1102 C1114 0.950 . S
H1103 C1115 0.950 1_565 S
C1104 H1096 0.950 . S
C1104 C1105 1.386 . S
C1104 C1106 1.391 . S
C1105 C1104 1.386 . S
C1105 C1109 1.393 . S
C1106 H1098 0.950 . S
C1106 C1104 1.391 . S
C1106 C1107 1.400 . S
C1107 C1106 1.400 . S
C1107 C1108 1.398 . S
C1107 C1113 1.491 . S
C1108 H1099 0.950 . S
C1108 C1107 1.398 . S
C1108 C1109 1.391 . S
C1109 H1097 0.950 . S
C1109 C1105 1.393 . S
C1109 C1108 1.391 . S
C1110 H1100 0.950 . S
C1110 C1111 1.386 . S
C1110 C1112 1.391 . S
C1111 C1110 1.386 . S
C1111 C1115 1.393 . S
C1112 H1101 0.950 . S
C1112 C1110 1.391 . S
C1112 C1113 1.400 . S
C1113 C1107 1.491 . S
C1113 C1112 1.400 . S
C1113 C1114 1.398 . S
C1114 H1102 0.950 . S
C1114 C1113 1.398 . S
C1114 C1115 1.391 . S
C1115 H1103 0.950 1_545 S
C1115 C1111 1.393 . S
C1115 C1114 1.391 . S
H1116 C1124 0.950 . S
H1117 C1129 0.950 . S
H1118 C1126 0.950 . S
H1119 C1128 0.950 . S
H1120 C1130 0.950 . S
H1121 C1132 0.950 . S
H1122 C1134 0.950 . S
H1123 C1135 0.950 . S
C1124 H1116 0.950 . S
C1124 C1125 1.386 . S
C1124 C1126 1.391 . S
C1125 C1124 1.386 . S
C1125 C1129 1.393 . S
C1126 H1118 0.950 . S
C1126 C1124 1.391 . S
C1126 C1127 1.400 . S
C1127 C1126 1.400 . S
C1127 C1128 1.398 . S
C1127 C1133 1.491 . S
C1128 H1119 0.950 . S
C1128 C1127 1.398 . S
C1128 C1129 1.391 . S
C1129 H1117 0.950 . S
C1129 C1125 1.393 . S
C1129 C1128 1.391 . S
C1130 H1120 0.950 . S
C1130 C1131 1.386 . S
C1130 C1132 1.391 . S
C1131 C1130 1.386 . S
C1131 C1135 1.393 . S
C1132 H1121 0.950 . S
C1132 C1130 1.391 . S
C1132 C1133 1.400 . S
C1133 C1127 1.491 . S
C1133 C1132 1.400 . S
C1133 C1134 1.398 . S
C1134 H1122 0.950 . S
C1134 C1133 1.398 . S
C1134 C1135 1.391 . S
C1135 H1123 0.950 . S
C1135 C1131 1.393 . S
C1135 C1134 1.391 . S
H1136 C1144 0.950 . S
H1137 C1149 0.950 . S
H1138 C1146 0.950 . S
H1139 C1148 0.950 . S
H1140 C1150 0.950 . S
H1141 C1152 0.950 . S
H1142 C1154 0.950 . S
H1143 C1155 0.950 . S
C1144 H1136 0.950 . S
C1144 C1145 1.386 . S
C1144 C1146 1.391 . S
C1145 C1144 1.386 . S
C1145 C1149 1.393 . S
C1146 H1138 0.950 . S
C1146 C1144 1.391 . S
C1146 C1147 1.400 . S
C1147 C1146 1.400 . S
C1147 C1148 1.398 . S
C1147 C1153 1.491 . S
C1148 H1139 0.950 . S
C1148 C1147 1.398 . S
C1148 C1149 1.391 . S
C1149 H1137 0.950 . S
C1149 C1145 1.393 . S
C1149 C1148 1.391 . S
C1150 H1140 0.950 . S
C1150 C1151 1.386 . S
C1150 C1152 1.391 . S
C1151 C1150 1.386 . S
C1151 C1155 1.393 . S
C1152 H1141 0.950 . S
C1152 C1150 1.391 . S
C1152 C1153 1.400 . S
C1153 C1147 1.491 . S
C1153 C1152 1.400 . S
C1153 C1154 1.398 . S
C1154 H1142 0.950 . S
C1154 C1153 1.398 . S
C1154 C1155 1.391 . S
C1155 H1143 0.950 . S
C1155 C1151 1.393 . S
C1155 C1154 1.391 . S
H1156 C1164 0.950 . S
H1157 C1169 0.950 . S
H1158 C1166 0.950 . S
H1159 C1168 0.950 . S
H1160 C1170 0.950 . S
H1161 C1172 0.950 . S
H1162 C1174 0.950 . S
H1163 C1175 0.950 . S
C1164 H1156 0.950 . S
C1164 C1165 1.386 . S
C1164 C1166 1.391 . S
C1165 C1164 1.386 . S
C1165 C1169 1.393 . S
C1166 H1158 0.950 . S
C1166 C1164 1.391 . S
C1166 C1167 1.400 . S
C1167 C1166 1.400 . S
C1167 C1168 1.398 . S
C1167 C1173 1.491 . S
C1168 H1159 0.950 . S
C1168 C1167 1.398 . S
C1168 C1169 1.391 . S
C1169 H1157 0.950 . S
C1169 C1165 1.393 . S
C1169 C1168 1.391 . S
C1170 H1160 0.950 . S
C1170 C1171 1.386 . S
C1170 C1172 1.391 . S
C1171 C1170 1.386 . S
C1171 C1175 1.393 . S
C1172 H1161 0.950 . S
C1172 C1170 1.391 . S
C1172 C1173 1.400 . S
C1173 C1167 1.491 . S
C1173 C1172 1.400 . S
C1173 C1174 1.398 . S
C1174 H1162 0.950 . S
C1174 C1173 1.398 . S
C1174 C1175 1.391 . S
C1175 H1163 0.950 . S
C1175 C1171 1.393 . S
C1175 C1174 1.391 . S
H1176 C1184 0.950 . S
H1177 C1189 0.950 . S
H1178 C1186 0.950 . S
H1179 C1188 0.950 . S
H1180 C1190 0.950 . S
H1181 C1192 0.950 . S
H1182 C1194 0.950 . S
H1183 C1195 0.950 . S
C1184 H1176 0.950 . S
C1184 C1185 1.386 . S
C1184 C1186 1.391 . S
C1185 C1184 1.386 . S
C1185 C1189 1.393 . S
C1186 H1178 0.950 . S
C1186 C1184 1.391 . S
C1186 C1187 1.400 . S
C1187 C1186 1.400 . S
C1187 C1188 1.398 . S
C1187 C1193 1.491 . S
C1188 H1179 0.950 . S
C1188 C1187 1.398 . S
C1188 C1189 1.391 . S
C1189 H1177 0.950 . S
C1189 C1185 1.393 . S
C1189 C1188 1.391 . S
C1190 H1180 0.950 . S
C1190 C1191 1.386 . S
C1190 C1192 1.391 . S
C1191 C1190 1.386 . S
C1191 C1195 1.393 . S
C1192 H1181 0.950 . S
C1192 C1190 1.391 . S
C1192 C1193 1.400 . S
C1193 C1187 1.491 . S
C1193 C1192 1.400 . S
C1193 C1194 1.398 . S
C1194 H1182 0.950 . S
C1194 C1193 1.398 . S
C1194 C1195 1.391 . S
C1195 H1183 0.950 . S
C1195 C1191 1.393 . S
C1195 C1194 1.391 . S
H1196 C1204 0.950 . S
H1197 C1209 0.950 . S
H1198 C1206 0.950 . S
H1199 C1208 0.950 . S
H1200 C1210 0.950 . S
H1201 C1212 0.950 . S
H1202 C1214 0.950 . S
H1203 C1215 0.950 . S
C1204 H1196 0.950 . S
C1204 C1205 1.386 . S
C1204 C1206 1.391 . S
C1205 C1204 1.386 . S
C1205 C1209 1.393 . S
C1206 H1198 0.950 . S
C1206 C1204 1.391 . S
C1206 C1207 1.400 . S
C1207 C1206 1.400 . S
C1207 C1208 1.398 . S
C1207 C1213 1.491 . S
C1208 H1199 0.950 . S
C1208 C1207 1.398 . S
C1208 C1209 1.391 . S
C1209 H1197 0.950 . S
C1209 C1205 1.393 . S
C1209 C1208 1.391 . S
C1210 H1200 0.950 . S
C1210 C1211 1.386 . S
C1210 C1212 1.391 . S
C1211 C1210 1.386 . S
C1211 C1215 1.393 . S
C1212 H1201 0.950 . S
C1212 C1210 1.391 . S
C1212 C1213 1.400 . S
C1213 C1207 1.491 . S
C1213 C1212 1.400 . S
C1213 C1214 1.398 . S
C1214 H1202 0.950 . S
C1214 C1213 1.398 . S
C1214 C1215 1.391 . S
C1215 H1203 0.950 . S
C1215 C1211 1.393 . S
C1215 C1214 1.391 . S
H1216 C1224 0.950 . S
H1217 C1229 0.950 . S
H1218 C1226 0.950 . S
H1219 C1228 0.950 . S
H1220 C1230 0.950 . S
H1221 C1232 0.950 . S
H1222 C1234 0.950 . S
H1223 C1235 0.950 . S
C1224 H1216 0.950 . S
C1224 C1225 1.386 . S
C1224 C1226 1.391 . S
C1225 C1224 1.386 . S
C1225 C1229 1.393 . S
C1226 H1218 0.950 . S
C1226 C1224 1.391 . S
C1226 C1227 1.400 . S
C1227 C1226 1.400 . S
C1227 C1228 1.398 . S
C1227 C1233 1.491 . S
C1228 H1219 0.950 . S
C1228 C1227 1.398 . S
C1228 C1229 1.391 . S
C1229 H1217 0.950 . S
C1229 C1225 1.393 . S
C1229 C1228 1.391 . S
C1230 H1220 0.950 . S
C1230 C1231 1.386 . S
C1230 C1232 1.391 . S
C1231 C1230 1.386 . S
C1231 C1235 1.393 . S
C1232 H1221 0.950 . S
C1232 C1230 1.391 . S
C1232 C1233 1.400 . S
C1233 C1227 1.491 . S
C1233 C1232 1.400 . S
C1233 C1234 1.398 . S
C1234 H1222 0.950 . S
C1234 C1233 1.398 . S
C1234 C1235 1.391 . S
C1235 H1223 0.950 . S
C1235 C1231 1.393 . S
C1235 C1234 1.391 . S
H1236 C1244 0.950 . S
H1237 C1249 0.950 . S
H1238 C1246 0.950 . S
H1239 C1248 0.950 . S
H1240 C1250 0.950 . S
H1241 C1252 0.950 . S
H1242 C1254 0.950 . S
H1243 C1255 0.950 . S
C1244 H1236 0.950 . S
C1244 C1245 1.386 . S
C1244 C1246 1.391 . S
C1245 C1244 1.386 . S
C1245 C1249 1.393 . S
C1246 H1238 0.950 . S
C1246 C1244 1.391 . S
C1246 C1247 1.400 . S
C1247 C1246 1.400 . S
C1247 C1248 1.398 . S
C1247 C1253 1.491 . S
C1248 H1239 0.950 . S
C1248 C1247 1.398 . S
C1248 C1249 1.391 . S
C1249 H1237 0.950 . S
C1249 C1245 1.393 . S
C1249 C1248 1.391 . S
C1250 H1240 0.950 . S
C1250 C1251 1.386 1_545 S
C1250 C1252 1.391 1_545 S
C1251 C1250 1.386 1_565 S
C1251 C1255 1.393 . S
C1252 H1241 0.950 . S
C1252 C1250 1.391 1_565 S
C1252 C1253 1.400 . S
C1253 C1247 1.491 . S
C1253 C1252 1.400 . S
C1253 C1254 1.398 . S
C1254 H1242 0.950 . S
C1254 C1253 1.398 . S
C1254 C1255 1.391 . S
C1255 H1243 0.950 . S
C1255 C1251 1.393 . S
C1255 C1254 1.391 . S
H1256 C1264 0.950 . S
H1257 C1269 0.950 . S
H1258 C1266 0.950 . S
H1259 C1268 0.950 . S
H1260 C1270 0.950 . S
H1261 C1272 0.950 . S
H1262 C1274 0.950 . S
H1263 C1275 0.950 . S
C1264 H1256 0.950 . S
C1264 C1265 1.386 . S
C1264 C1266 1.391 . S
C1265 C1264 1.386 . S
C1265 C1269 1.393 . S
C1266 H1258 0.950 . S
C1266 C1264 1.391 . S
C1266 C1267 1.400 . S
C1267 C1266 1.400 . S
C1267 C1268 1.398 . S
C1267 C1273 1.491 . S
C1268 H1259 0.950 . S
C1268 C1267 1.398 . S
C1268 C1269 1.391 . S
C1269 H1257 0.950 . S
C1269 C1265 1.393 . S
C1269 C1268 1.391 . S
C1270 H1260 0.950 . S
C1270 C1271 1.386 . S
C1270 C1272 1.391 . S
C1271 C1270 1.386 . S
C1271 C1275 1.393 . S
C1272 H1261 0.950 . S
C1272 C1270 1.391 . S
C1272 C1273 1.400 . S
C1273 C1267 1.491 . S
C1273 C1272 1.400 . S
C1273 C1274 1.398 . S
C1274 H1262 0.950 . S
C1274 C1273 1.398 . S
C1274 C1275 1.391 . S
C1275 H1263 0.950 . S
C1275 C1271 1.393 . S
C1275 C1274 1.391 . S
H1276 C1284 0.950 . S
H1277 C1289 0.950 . S
H1278 C1286 0.950 . S
H1279 C1288 0.950 . S
H1280 C1290 0.950 . S
H1281 C1292 0.950 . S
H1282 C1294 0.950 . S
H1283 C1295 0.950 . S
C1284 H1276 0.950 . S
C1284 C1285 1.386 . S
C1284 C1286 1.391 . S
C1285 C1284 1.386 . S
C1285 C1289 1.393 . S
C1286 H1278 0.950 . S
C1286 C1284 1.391 . S
C1286 C1287 1.400 . S
C1287 C1286 1.400 . S
C1287 C1288 1.398 . S
C1287 C1293 1.491 . S
C1288 H1279 0.950 . S
C1288 C1287 1.398 . S
C1288 C1289 1.391 . S
C1289 H1277 0.950 . S
C1289 C1285 1.393 . S
C1289 C1288 1.391 . S
C1290 H1280 0.950 . S
C1290 C1291 1.386 . S
C1290 C1292 1.391 . S
C1291 C1290 1.386 . S
C1291 C1295 1.393 . S
C1292 H1281 0.950 . S
C1292 C1290 1.391 . S
C1292 C1293 1.400 . S
C1293 C1287 1.491 . S
C1293 C1292 1.400 . S
C1293 C1294 1.398 . S
C1294 H1282 0.950 . S
C1294 C1293 1.398 . S
C1294 C1295 1.391 . S
C1295 H1283 0.950 . S
C1295 C1291 1.393 . S
C1295 C1294 1.391 . S
H1296 C1304 0.950 . S
H1297 C1309 0.950 . S
H1298 C1306 0.950 . S
H1299 C1308 0.950 . S
H1300 C1310 0.950 1_554 S
H1301 C1312 0.950 . S
H1302 C1314 0.950 . S
H1303 C1315 0.950 . S
C1304 H1296 0.950 . S
C1304 C1305 1.386 . S
C1304 C1306 1.391 . S
C1305 C1304 1.386 . S
C1305 C1309 1.393 . S
C1306 H1298 0.950 . S
C1306 C1304 1.391 . S
C1306 C1307 1.400 . S
C1307 C1306 1.400 . S
C1307 C1308 1.398 . S
C1307 C1313 1.491 . S
C1308 H1299 0.950 . S
C1308 C1307 1.398 . S
C1308 C1309 1.391 . S
C1309 H1297 0.950 . S
C1309 C1305 1.393 . S
C1309 C1308 1.391 . S
C1310 H1300 0.950 1_556 S
C1310 C1311 1.386 . S
C1310 C1312 1.391 . S
C1311 C1310 1.386 . S
C1311 C1315 1.393 . S
C1312 H1301 0.950 . S
C1312 C1310 1.391 . S
C1312 C1313 1.400 . S
C1313 C1307 1.491 . S
C1313 C1312 1.400 . S
C1313 C1314 1.398 . S
C1314 H1302 0.950 . S
C1314 C1313 1.398 . S
C1314 C1315 1.391 . S
C1315 H1303 0.950 . S
C1315 C1311 1.393 . S
C1315 C1314 1.391 . S
H1316 C1324 0.950 . S
H1317 C1329 0.950 . S
H1318 C1326 0.950 . S
H1319 C1328 0.950 . S
H1320 C1330 0.950 . S
H1321 C1332 0.950 . S
H1322 C1334 0.950 . S
H1323 C1335 0.950 . S
C1324 H1316 0.950 . S
C1324 C1325 1.386 . S
C1324 C1326 1.391 . S
C1325 C1324 1.386 . S
C1325 C1329 1.393 . S
C1326 H1318 0.950 . S
C1326 C1324 1.391 . S
C1326 C1327 1.400 . S
C1327 C1326 1.400 . S
C1327 C1328 1.398 . S
C1327 C1333 1.491 . S
C1328 H1319 0.950 . S
C1328 C1327 1.398 . S
C1328 C1329 1.391 . S
C1329 H1317 0.950 . S
C1329 C1325 1.393 . S
C1329 C1328 1.391 . S
C1330 H1320 0.950 . S
C1330 C1331 1.386 . S
C1330 C1332 1.391 . S
C1331 C1330 1.386 . S
C1331 C1335 1.393 . S
C1332 H1321 0.950 . S
C1332 C1330 1.391 . S
C1332 C1333 1.400 . S
C1333 C1327 1.491 . S
C1333 C1332 1.400 . S
C1333 C1334 1.398 . S
C1334 H1322 0.950 . S
C1334 C1333 1.398 . S
C1334 C1335 1.391 . S
C1335 H1323 0.950 . S
C1335 C1331 1.393 . S
C1335 C1334 1.391 . S
H1336 C1344 0.950 . S
H1337 C1349 0.950 . S
H1338 C1346 0.950 . S
H1339 C1348 0.950 . S
H1340 C1350 0.950 . S
H1341 C1352 0.950 . S
H1342 C1354 0.950 . S
H1343 C1355 0.950 . S
C1344 H1336 0.950 . S
C1344 C1345 1.386 . S
C1344 C1346 1.391 . S
C1345 C1344 1.386 . S
C1345 C1349 1.393 . S
C1346 H1338 0.950 . S
C1346 C1344 1.391 . S
C1346 C1347 1.400 . S
C1347 C1346 1.400 . S
C1347 C1348 1.398 . S
C1347 C1353 1.491 . S
C1348 H1339 0.950 . S
C1348 C1347 1.398 . S
C1348 C1349 1.391 . S
C1349 H1337 0.950 . S
C1349 C1345 1.393 . S
C1349 C1348 1.391 . S
C1350 H1340 0.950 . S
C1350 C1351 1.386 . S
C1350 C1352 1.391 . S
C1351 C1350 1.386 . S
C1351 C1355 1.393 . S
C1352 H1341 0.950 . S
C1352 C1350 1.391 . S
C1352 C1353 1.400 . S
C1353 C1347 1.491 . S
C1353 C1352 1.400 . S
C1353 C1354 1.398 . S
C1354 H1342 0.950 . S
C1354 C1353 1.398 . S
C1354 C1355 1.391 . S
C1355 H1343 0.950 . S
C1355 C1351 1.393 . S
C1355 C1354 1.391 . S
H1356 C1364 0.950 . S
H1357 C1369 0.950 . S
H1358 C1366 0.950 . S
H1359 C1368 0.950 . S
H1360 C1370 0.950 . S
H1361 C1372 0.950 . S
H1362 C1374 0.950 . S
H1363 C1375 0.950 . S
C1364 H1356 0.950 . S
C1364 C1365 1.386 . S
C1364 C1366 1.391 . S
C1365 C1364 1.386 . S
C1365 C1369 1.393 . S
C1366 H1358 0.950 . S
C1366 C1364 1.391 . S
C1366 C1367 1.400 . S
C1367 C1366 1.400 . S
C1367 C1368 1.398 . S
C1367 C1373 1.491 . S
C1368 H1359 0.950 . S
C1368 C1367 1.398 . S
C1368 C1369 1.391 . S
C1369 H1357 0.950 . S
C1369 C1365 1.393 . S
C1369 C1368 1.391 . S
C1370 H1360 0.950 . S
C1370 C1371 1.386 . S
C1370 C1372 1.391 . S
C1371 C1370 1.386 . S
C1371 C1375 1.393 . S
C1372 H1361 0.950 . S
C1372 C1370 1.391 . S
C1372 C1373 1.400 . S
C1373 C1367 1.491 . S
C1373 C1372 1.400 . S
C1373 C1374 1.398 . S
C1374 H1362 0.950 . S
C1374 C1373 1.398 . S
C1374 C1375 1.391 . S
C1375 H1363 0.950 . S
C1375 C1371 1.393 . S
C1375 C1374 1.391 . S
H1376 C1384 0.950 . S
H1377 C1389 0.950 . S
H1378 C1386 0.950 . S
H1379 C1388 0.950 . S
H1380 C1390 0.950 . S
H1381 C1392 0.950 . S
H1382 C1394 0.950 . S
H1383 C1395 0.950 . S
C1384 H1376 0.950 . S
C1384 C1385 1.386 . S
C1384 C1386 1.391 . S
C1385 C1384 1.386 . S
C1385 C1389 1.393 . S
C1386 H1378 0.950 . S
C1386 C1384 1.391 . S
C1386 C1387 1.400 . S
C1387 C1386 1.400 . S
C1387 C1388 1.398 . S
C1387 C1393 1.491 . S
C1388 H1379 0.950 . S
C1388 C1387 1.398 . S
C1388 C1389 1.391 . S
C1389 H1377 0.950 . S
C1389 C1385 1.393 . S
C1389 C1388 1.391 . S
C1390 H1380 0.950 . S
C1390 C1391 1.386 . S
C1390 C1392 1.391 . S
C1391 C1390 1.386 . S
C1391 C1395 1.393 . S
C1392 H1381 0.950 . S
C1392 C1390 1.391 . S
C1392 C1393 1.400 . S
C1393 C1387 1.491 . S
C1393 C1392 1.400 . S
C1393 C1394 1.398 . S
C1394 H1382 0.950 . S
C1394 C1393 1.398 . S
C1394 C1395 1.391 . S
C1395 H1383 0.950 . S
C1395 C1391 1.393 . S
C1395 C1394 1.391 . S
H1396 C1404 0.950 . S
H1397 C1409 0.950 . S
H1398 C1406 0.950 . S
H1399 C1408 0.950 . S
H1400 C1410 0.950 . S
H1401 C1412 0.950 . S
H1402 C1414 0.950 . S
H1403 C1415 0.950 . S
C1404 H1396 0.950 . S
C1404 C1405 1.386 . S
C1404 C1406 1.391 . S
C1405 C1404 1.386 . S
C1405 C1409 1.393 . S
C1406 H1398 0.950 . S
C1406 C1404 1.391 . S
C1406 C1407 1.400 . S
C1407 C1406 1.400 . S
C1407 C1408 1.398 . S
C1407 C1413 1.491 . S
C1408 H1399 0.950 . S
C1408 C1407 1.398 . S
C1408 C1409 1.391 . S
C1409 H1397 0.950 . S
C1409 C1405 1.393 . S
C1409 C1408 1.391 . S
C1410 H1400 0.950 . S
C1410 C1411 1.386 . S
C1410 C1412 1.391 . S
C1411 C1410 1.386 . S
C1411 C1415 1.393 . S
C1412 H1401 0.950 . S
C1412 C1410 1.391 . S
C1412 C1413 1.400 . S
C1413 C1407 1.491 . S
C1413 C1412 1.400 . S
C1413 C1414 1.398 . S
C1414 H1402 0.950 . S
C1414 C1413 1.398 . S
C1414 C1415 1.391 . S
C1415 H1403 0.950 . S
C1415 C1411 1.393 . S
C1415 C1414 1.391 . S
H1416 C1424 0.950 . S
H1417 C1429 0.950 . S
H1418 C1426 0.950 . S
H1419 C1428 0.950 . S
H1420 C1430 0.950 . S
H1421 C1432 0.950 . S
H1422 C1434 0.950 . S
H1423 C1435 0.950 . S
C1424 H1416 0.950 . S
C1424 C1425 1.386 . S
C1424 C1426 1.391 . S
C1425 C1424 1.386 . S
C1425 C1429 1.393 . S
C1426 H1418 0.950 . S
C1426 C1424 1.391 . S
C1426 C1427 1.400 . S
C1427 C1426 1.400 . S
C1427 C1428 1.398 . S
C1427 C1433 1.491 . S
C1428 H1419 0.950 . S
C1428 C1427 1.398 . S
C1428 C1429 1.391 . S
C1429 H1417 0.950 . S
C1429 C1425 1.393 . S
C1429 C1428 1.391 . S
C1430 H1420 0.950 . S
C1430 C1431 1.386 . S
C1430 C1432 1.391 . S
C1431 C1430 1.386 . S
C1431 C1435 1.393 . S
C1432 H1421 0.950 . S
C1432 C1430 1.391 . S
C1432 C1433 1.400 . S
C1433 C1427 1.491 . S
C1433 C1432 1.400 . S
C1433 C1434 1.398 . S
C1434 H1422 0.950 . S
C1434 C1433 1.398 . S
C1434 C1435 1.391 . S
C1435 H1423 0.950 . S
C1435 C1431 1.393 . S
C1435 C1434 1.391 . S
H1436 C1444 0.950 . S
H1437 C1449 0.950 . S
H1438 C1446 0.950 . S
H1439 C1448 0.950 . S
H1440 C1450 0.950 . S
H1441 C1452 0.950 . S
H1442 C1454 0.950 . S
H1443 C1455 0.950 . S
C1444 H1436 0.950 . S
C1444 C1445 1.386 . S
C1444 C1446 1.391 . S
C1445 C1444 1.386 . S
C1445 C1449 1.393 . S
C1446 H1438 0.950 . S
C1446 C1444 1.391 . S
C1446 C1447 1.400 . S
C1447 C1446 1.400 . S
C1447 C1448 1.398 . S
C1447 C1453 1.491 . S
C1448 H1439 0.950 . S
C1448 C1447 1.398 . S
C1448 C1449 1.391 . S
C1449 H1437 0.950 . S
C1449 C1445 1.393 . S
C1449 C1448 1.391 . S
C1450 H1440 0.950 . S
C1450 C1451 1.386 . S
C1450 C1452 1.391 . S
C1451 C1450 1.386 . S
C1451 C1455 1.393 . S
C1452 H1441 0.950 . S
C1452 C1450 1.391 . S
C1452 C1453 1.400 . S
C1453 C1447 1.491 . S
C1453 C1452 1.400 . S
C1453 C1454 1.398 . S
C1454 H1442 0.950 . S
C1454 C1453 1.398 . S
C1454 C1455 1.391 . S
C1455 H1443 0.950 . S
C1455 C1451 1.393 . S
C1455 C1454 1.391 . S
H1456 C1464 0.950 . S
H1457 C1469 0.950 . S
H1458 C1466 0.950 . S
H1459 C1468 0.950 . S
H1460 C1470 0.950 . S
H1461 C1472 0.950 . S
H1462 C1474 0.950 . S
H1463 C1475 0.950 . S
C1464 H1456 0.950 . S
C1464 C1465 1.386 . S
C1464 C1466 1.391 . S
C1465 C1464 1.386 . S
C1465 C1469 1.393 . S
C1466 H1458 0.950 . S
C1466 C1464 1.391 . S
C1466 C1467 1.400 . S
C1467 C1466 1.400 . S
C1467 C1468 1.398 . S
C1467 C1473 1.491 . S
C1468 H1459 0.950 . S
C1468 C1467 1.398 . S
C1468 C1469 1.391 . S
C1469 H1457 0.950 . S
C1469 C1465 1.393 . S
C1469 C1468 1.391 . S
C1470 H1460 0.950 . S
C1470 C1471 1.386 1_455 S
C1470 C1472 1.391 1_455 S
C1471 C1470 1.386 1_655 S
C1471 C1475 1.393 . S
C1472 H1461 0.950 . S
C1472 C1470 1.391 1_655 S
C1472 C1473 1.400 . S
C1473 C1467 1.491 . S
C1473 C1472 1.400 . S
C1473 C1474 1.398 . S
C1474 H1462 0.950 . S
C1474 C1473 1.398 . S
C1474 C1475 1.391 . S
C1475 H1463 0.950 . S
C1475 C1471 1.393 . S
C1475 C1474 1.391 . S
H1476 C1484 0.950 . S
H1477 C1489 0.950 . S
H1478 C1486 0.950 . S
H1479 C1488 0.950 . S
H1480 C1490 0.950 . S
H1481 C1492 0.950 . S
H1482 C1494 0.950 . S
H1483 C1495 0.950 . S
C1484 H1476 0.950 . S
C1484 C1485 1.386 . S
C1484 C1486 1.391 . S
C1485 C1484 1.386 . S
C1485 C1489 1.393 . S
C1486 H1478 0.950 . S
C1486 C1484 1.391 . S
C1486 C1487 1.400 . S
C1487 C1486 1.400 . S
C1487 C1488 1.398 . S
C1487 C1493 1.491 . S
C1488 H1479 0.950 . S
C1488 C1487 1.398 . S
C1488 C1489 1.391 . S
C1489 H1477 0.950 . S
C1489 C1485 1.393 . S
C1489 C1488 1.391 . S
C1490 H1480 0.950 . S
C1490 C1491 1.386 . S
C1490 C1492 1.391 . S
C1491 C1490 1.386 . S
C1491 C1495 1.393 . S
C1492 H1481 0.950 . S
C1492 C1490 1.391 . S
C1492 C1493 1.400 . S
C1493 C1487 1.491 . S
C1493 C1492 1.400 . S
C1493 C1494 1.398 . S
C1494 H1482 0.950 . S
C1494 C1493 1.398 . S
C1494 C1495 1.391 . S
C1495 H1483 0.950 . S
C1495 C1491 1.393 . S
C1495 C1494 1.391 . S
H1496 C1504 0.950 . S
H1497 C1509 0.950 1_565 S
H1498 C1506 0.950 . S
H1499 C1508 0.950 1_565 S
H1500 C1510 0.950 . S
H1501 C1512 0.974 . S
H1502 C1514 0.950 . S
H1503 C1515 0.950 . S
C1504 H1496 0.950 . S
C1504 C1505 1.386 . S
C1504 C1506 1.391 . S
C1505 C1504 1.386 . S
C1505 C1509 1.393 . S
C1506 H1498 0.950 . S
C1506 C1504 1.391 . S
C1506 C1507 1.400 . S
C1507 C1506 1.400 . S
C1507 C1508 1.398 . S
C1507 C1513 1.491 . S
C1508 H1499 0.950 1_545 S
C1508 C1507 1.398 . S
C1508 C1509 1.391 . S
C1509 H1497 0.950 1_545 S
C1509 C1505 1.393 . S
C1509 C1508 1.391 . S
C1510 H1500 0.950 . S
C1510 C1511 1.386 . S
C1510 C1512 1.391 . S
C1511 C1510 1.386 . S
C1511 C1515 1.393 . S
C1512 H1501 0.974 . S
C1512 C1510 1.391 . S
C1512 C1513 1.400 . S
C1513 C1507 1.491 . S
C1513 C1512 1.400 . S
C1513 C1514 1.398 . S
C1514 H1502 0.950 . S
C1514 C1513 1.398 . S
C1514 C1515 1.391 . S
C1515 H1503 0.950 . S
C1515 C1511 1.393 . S
C1515 C1514 1.391 . S
H1516 C1524 0.950 . S
H1517 C1529 0.950 . S
H1518 C1526 0.950 . S
H1519 C1528 0.950 . S
H1520 C1530 0.950 . S
H1521 C1532 0.950 . S
H1522 C1534 0.950 . S
H1523 C1535 0.950 . S
C1524 H1516 0.950 . S
C1524 C1525 1.386 . S
C1524 C1526 1.391 . S
C1525 C1524 1.386 . S
C1525 C1529 1.393 . S
C1526 H1518 0.950 . S
C1526 C1524 1.391 . S
C1526 C1527 1.400 . S
C1527 C1526 1.400 . S
C1527 C1528 1.398 . S
C1527 C1533 1.491 . S
C1528 H1519 0.950 . S
C1528 C1527 1.398 . S
C1528 C1529 1.391 . S
C1529 H1517 0.950 . S
C1529 C1525 1.393 . S
C1529 C1528 1.391 . S
C1530 H1520 0.950 . S
C1530 C1531 1.386 . S
C1530 C1532 1.391 . S
C1531 C1530 1.386 . S
C1531 C1535 1.393 . S
C1532 H1521 0.950 . S
C1532 C1530 1.391 . S
C1532 C1533 1.400 . S
C1533 C1527 1.491 . S
C1533 C1532 1.400 . S
C1533 C1534 1.398 . S
C1534 H1522 0.950 . S
C1534 C1533 1.398 . S
C1534 C1535 1.391 . S
C1535 H1523 0.950 . S
C1535 C1531 1.393 . S
C1535 C1534 1.391 . S
H1536 C1544 0.950 . S
H1537 C1549 0.950 . S
H1538 C1546 0.950 . S
H1539 C1548 0.950 . S
H1540 C1550 0.950 1_465 S
H1541 C1552 0.950 . S
H1542 C1554 0.950 . S
H1543 C1555 0.950 . S
C1544 H1536 0.950 . S
C1544 C1545 1.386 . S
C1544 C1546 1.391 . S
C1545 C1544 1.386 . S
C1545 C1549 1.393 . S
C1546 H1538 0.950 . S
C1546 C1544 1.391 . S
C1546 C1547 1.400 . S
C1547 C1546 1.400 . S
C1547 C1548 1.398 . S
C1547 C1553 1.491 . S
C1548 H1539 0.950 . S
C1548 C1547 1.398 . S
C1548 C1549 1.391 . S
C1549 H1537 0.950 . S
C1549 C1545 1.393 . S
C1549 C1548 1.391 . S
C1550 H1540 0.950 1_645 S
C1550 C1551 1.386 . S
C1550 C1552 1.391 . S
C1551 C1550 1.386 . S
C1551 C1555 1.393 . S
C1552 H1541 0.950 . S
C1552 C1550 1.391 . S
C1552 C1553 1.400 . S
C1553 C1547 1.491 . S
C1553 C1552 1.400 . S
C1553 C1554 1.398 . S
C1554 H1542 0.950 . S
C1554 C1553 1.398 . S
C1554 C1555 1.391 . S
C1555 H1543 0.950 . S
C1555 C1551 1.393 . S
C1555 C1554 1.391 . S
H1556 C1564 0.950 . S
H1557 C1569 0.950 . S
H1558 C1566 0.950 . S
H1559 C1568 0.950 . S
H1560 C1570 0.950 . S
H1561 C1572 0.950 . S
H1562 C1574 0.950 . S
H1563 C1575 0.950 . S
C1564 H1556 0.950 . S
C1564 C1565 1.386 . S
C1564 C1566 1.391 . S
C1565 C1564 1.386 . S
C1565 C1569 1.393 . S
C1566 H1558 0.950 . S
C1566 C1564 1.391 . S
C1566 C1567 1.400 . S
C1567 C1566 1.400 . S
C1567 C1568 1.398 . S
C1567 C1573 1.491 . S
C1568 H1559 0.950 . S
C1568 C1567 1.398 . S
C1568 C1569 1.391 . S
C1569 H1557 0.950 . S
C1569 C1565 1.393 . S
C1569 C1568 1.391 . S
C1570 H1560 0.950 . S
C1570 C1571 1.386 . S
C1570 C1572 1.391 . S
C1571 C1570 1.386 . S
C1571 C1575 1.393 . S
C1572 H1561 0.950 . S
C1572 C1570 1.391 . S
C1572 C1573 1.400 . S
C1573 C1567 1.491 . S
C1573 C1572 1.400 . S
C1573 C1574 1.398 . S
C1574 H1562 0.950 . S
C1574 C1573 1.398 . S
C1574 C1575 1.391 . S
C1575 H1563 0.950 . S
C1575 C1571 1.393 . S
C1575 C1574 1.391 . S
H1576 C1584 0.950 . S
H1577 C1589 0.950 . S
H1578 C1586 0.950 . S
H1579 C1588 0.950 . S
H1580 C1590 0.950 . S
H1581 C1592 0.950 . S
H1582 C1594 0.950 . S
H1583 C1595 0.950 . S
C1584 H1576 0.950 . S
C1584 C1585 1.386 . S
C1584 C1586 1.391 . S
C1585 C1584 1.386 . S
C1585 C1589 1.393 . S
C1586 H1578 0.950 . S
C1586 C1584 1.391 . S
C1586 C1587 1.400 . S
C1587 C1586 1.400 . S
C1587 C1588 1.398 . S
C1587 C1593 1.491 . S
C1588 H1579 0.950 . S
C1588 C1587 1.398 . S
C1588 C1589 1.391 . S
C1589 H1577 0.950 . S
C1589 C1585 1.393 . S
C1589 C1588 1.391 . S
C1590 H1580 0.950 . S
C1590 C1591 1.386 . S
C1590 C1592 1.391 . S
C1591 C1590 1.386 . S
C1591 C1595 1.393 . S
C1592 H1581 0.950 . S
C1592 C1590 1.391 . S
C1592 C1593 1.400 . S
C1593 C1587 1.491 . S
C1593 C1592 1.400 . S
C1593 C1594 1.398 . S
C1594 H1582 0.950 . S
C1594 C1593 1.398 . S
C1594 C1595 1.391 . S
C1595 H1583 0.950 . S
C1595 C1591 1.393 . S
C1595 C1594 1.391 . S
H1596 C1604 0.950 . S
H1597 C1609 0.950 . S
H1598 C1606 0.950 . S
H1599 C1608 0.950 . S
H1600 C1610 0.950 . S
H1601 C1612 0.950 . S
H1602 C1614 0.950 . S
H1603 C1615 0.950 . S
C1604 H1596 0.950 . S
C1604 C1605 1.386 . S
C1604 C1606 1.391 . S
C1605 C1604 1.386 . S
C1605 C1609 1.393 . S
C1606 H1598 0.950 . S
C1606 C1604 1.391 . S
C1606 C1607 1.400 . S
C1607 C1606 1.400 . S
C1607 C1608 1.398 . S
C1607 C1613 1.491 . S
C1608 H1599 0.950 . S
C1608 C1607 1.398 . S
C1608 C1609 1.391 . S
C1609 H1597 0.950 . S
C1609 C1605 1.393 . S
C1609 C1608 1.391 . S
C1610 H1600 0.950 . S
C1610 C1611 1.386 . S
C1610 C1612 1.391 . S
C1611 C1610 1.386 . S
C1611 C1615 1.393 . S
C1612 H1601 0.950 . S
C1612 C1610 1.391 . S
C1612 C1613 1.400 . S
C1613 C1607 1.491 . S
C1613 C1612 1.400 . S
C1613 C1614 1.398 . S
C1614 H1602 0.950 . S
C1614 C1613 1.398 . S
C1614 C1615 1.391 . S
C1615 H1603 0.950 . S
C1615 C1611 1.393 . S
C1615 C1614 1.391 . S
H1616 C1624 0.950 . S
H1617 C1629 0.950 1_556 S
H1618 C1626 0.950 . S
H1619 C1628 0.950 1_556 S
H1620 C1630 0.950 . S
H1621 C1632 0.950 1_556 S
H1622 C1634 0.950 . S
H1623 C1635 0.956 . S
C1624 H1616 0.950 . S
C1624 C1625 1.386 . S
C1624 C1626 1.391 . S
C1625 C1624 1.386 . S
C1625 C1629 1.393 . S
C1626 H1618 0.950 . S
C1626 C1624 1.391 . S
C1626 C1627 1.400 . S
C1627 C1626 1.400 . S
C1627 C1628 1.398 . S
C1627 C1633 1.491 . S
C1628 H1619 0.950 1_554 S
C1628 C1627 1.398 . S
C1628 C1629 1.391 . S
C1629 H1617 0.950 1_554 S
C1629 C1625 1.393 . S
C1629 C1628 1.391 . S
C1630 H1620 0.950 . S
C1630 C1631 1.386 . S
C1630 C1632 1.391 . S
C1631 C1630 1.386 . S
C1631 C1635 1.393 . S
C1632 H1621 0.950 1_554 S
C1632 C1630 1.391 . S
C1632 C1633 1.400 . S
C1633 C1627 1.491 . S
C1633 C1632 1.400 . S
C1633 C1634 1.398 . S
C1634 H1622 0.950 . S
C1634 C1633 1.398 . S
C1634 C1635 1.391 . S
C1635 H1623 0.956 . S
C1635 C1631 1.393 . S
C1635 C1634 1.391 . S
H1636 C1644 0.950 . S
H1637 C1649 0.950 . S
H1638 C1646 0.950 . S
H1639 C1648 0.950 . S
H1640 C1650 0.950 . S
H1641 C1652 0.950 . S
H1642 C1654 0.950 . S
H1643 C1655 0.950 . S
C1644 H1636 0.950 . S
C1644 C1645 1.386 . S
C1644 C1646 1.391 . S
C1645 C1644 1.386 . S
C1645 C1649 1.393 . S
C1646 H1638 0.950 . S
C1646 C1644 1.391 . S
C1646 C1647 1.400 . S
C1647 C1646 1.400 . S
C1647 C1648 1.398 . S
C1647 C1653 1.491 . S
C1648 H1639 0.950 . S
C1648 C1647 1.398 . S
C1648 C1649 1.391 . S
C1649 H1637 0.950 . S
C1649 C1645 1.393 . S
C1649 C1648 1.391 . S
C1650 H1640 0.950 . S
C1650 C1651 1.386 . S
C1650 C1652 1.391 . S
C1651 C1650 1.386 . S
C1651 C1655 1.393 . S
C1652 H1641 0.950 . S
C1652 C1650 1.391 . S
C1652 C1653 1.400 . S
C1653 C1647 1.491 . S
C1653 C1652 1.400 . S
C1653 C1654 1.398 . S
C1654 H1642 0.950 . S
C1654 C1653 1.398 . S
C1654 C1655 1.391 . S
C1655 H1643 0.950 . S
C1655 C1651 1.393 . S
C1655 C1654 1.391 . S
H1656 C1664 0.950 . S
H1657 C1669 0.950 . S
H1658 C1666 0.950 . S
H1659 C1668 0.950 . S
H1660 C1670 0.950 . S
H1661 C1672 0.950 . S
H1662 C1674 0.950 . S
H1663 C1675 0.950 . S
C1664 H1656 0.950 . S
C1664 C1665 1.386 . S
C1664 C1666 1.391 . S
C1665 C1664 1.386 . S
C1665 C1669 1.393 . S
C1666 H1658 0.950 . S
C1666 C1664 1.391 . S
C1666 C1667 1.400 . S
C1667 C1666 1.400 . S
C1667 C1668 1.398 . S
C1667 C1673 1.491 . S
C1668 H1659 0.950 . S
C1668 C1667 1.398 . S
C1668 C1669 1.391 . S
C1669 H1657 0.950 . S
C1669 C1665 1.393 . S
C1669 C1668 1.391 . S
C1670 H1660 0.950 . S
C1670 C1671 1.386 . S
C1670 C1672 1.391 . S
C1671 C1670 1.386 . S
C1671 C1675 1.393 . S
C1672 H1661 0.950 . S
C1672 C1670 1.391 . S
C1672 C1673 1.400 . S
C1673 C1667 1.491 . S
C1673 C1672 1.400 . S
C1673 C1674 1.398 . S
C1674 H1662 0.950 . S
C1674 C1673 1.398 . S
C1674 C1675 1.391 . S
C1675 H1663 0.950 . S
C1675 C1671 1.393 . S
C1675 C1674 1.391 . S
H1676 C1684 0.950 . S
H1677 C1689 0.950 . S
H1678 C1686 0.950 . S
H1679 C1688 0.950 . S
H1680 C1690 0.950 . S
H1681 C1692 0.950 . S
H1682 C1694 0.950 . S
H1683 C1695 0.950 . S
C1684 H1676 0.950 . S
C1684 C1685 1.386 . S
C1684 C1686 1.391 . S
C1685 C1684 1.386 . S
C1685 C1689 1.393 . S
C1686 H1678 0.950 . S
C1686 C1684 1.391 . S
C1686 C1687 1.400 . S
C1687 C1686 1.400 . S
C1687 C1688 1.398 . S
C1687 C1693 1.491 . S
C1688 H1679 0.950 . S
C1688 C1687 1.398 . S
C1688 C1689 1.391 . S
C1689 H1677 0.950 . S
C1689 C1685 1.393 . S
C1689 C1688 1.391 . S
C1690 H1680 0.950 . S
C1690 C1691 1.386 . S
C1690 C1692 1.391 . S
C1691 C1690 1.386 . S
C1691 C1695 1.393 . S
C1692 H1681 0.950 . S
C1692 C1690 1.391 . S
C1692 C1693 1.400 . S
C1693 C1687 1.491 . S
C1693 C1692 1.400 . S
C1693 C1694 1.398 . S
C1694 H1682 0.950 . S
C1694 C1693 1.398 . S
C1694 C1695 1.391 . S
C1695 H1683 0.950 . S
C1695 C1691 1.393 . S
C1695 C1694 1.391 . S
H1696 C1704 0.950 . S
H1697 C1709 0.950 . S
H1698 C1706 0.950 . S
H1699 C1708 0.950 . S
H1700 C1710 0.950 . S
H1701 C1712 0.950 . S
H1702 C1714 0.950 . S
H1703 C1715 0.950 . S
C1704 H1696 0.950 . S
C1704 C1705 1.386 . S
C1704 C1706 1.391 . S
C1705 C1704 1.386 . S
C1705 C1709 1.393 . S
C1706 H1698 0.950 . S
C1706 C1704 1.391 . S
C1706 C1707 1.400 . S
C1707 C1706 1.400 . S
C1707 C1708 1.398 . S
C1707 C1713 1.491 . S
C1708 H1699 0.950 . S
C1708 C1707 1.398 . S
C1708 C1709 1.391 . S
C1709 H1697 0.950 . S
C1709 C1705 1.393 . S
C1709 C1708 1.391 . S
C1710 H1700 0.950 . S
C1710 C1711 1.386 . S
C1710 C1712 1.391 . S
C1711 C1710 1.386 . S
C1711 C1715 1.393 . S
C1712 H1701 0.950 . S
C1712 C1710 1.391 . S
C1712 C1713 1.400 . S
C1713 C1707 1.491 . S
C1713 C1712 1.400 . S
C1713 C1714 1.398 . S
C1714 H1702 0.950 . S
C1714 C1713 1.398 . S
C1714 C1715 1.391 . S
C1715 H1703 0.950 . S
C1715 C1711 1.393 . S
C1715 C1714 1.391 . S
H1716 C1724 0.950 . S
H1717 C1729 0.950 . S
H1718 C1726 0.950 . S
H1719 C1728 0.950 . S
H1720 C1730 0.950 . S
H1721 C1732 0.950 . S
H1722 C1734 0.950 . S
H1723 C1735 0.950 . S
C1724 H1716 0.950 . S
C1724 C1725 1.386 . S
C1724 C1726 1.391 . S
C1725 C1724 1.386 . S
C1725 C1729 1.393 . S
C1726 H1718 0.950 . S
C1726 C1724 1.391 . S
C1726 C1727 1.400 . S
C1727 C1726 1.400 . S
C1727 C1728 1.398 . S
C1727 C1733 1.491 . S
C1728 H1719 0.950 . S
C1728 C1727 1.398 . S
C1728 C1729 1.391 . S
C1729 H1717 0.950 . S
C1729 C1725 1.393 . S
C1729 C1728 1.391 . S
C1730 H1720 0.950 . S
C1730 C1731 1.386 . S
C1730 C1732 1.391 . S
C1731 C1730 1.386 . S
C1731 C1735 1.393 . S
C1732 H1721 0.950 . S
C1732 C1730 1.391 . S
C1732 C1733 1.400 . S
C1733 C1727 1.491 . S
C1733 C1732 1.400 . S
C1733 C1734 1.398 . S
C1734 H1722 0.950 . S
C1734 C1733 1.398 . S
C1734 C1735 1.391 . S
C1735 H1723 0.950 . S
C1735 C1731 1.393 . S
C1735 C1734 1.391 . S
H1736 C1744 0.950 . S
H1737 C1749 0.950 . S
H1738 C1746 0.950 . S
H1739 C1748 0.950 . S
H1740 C1750 0.950 . S
H1741 C1752 0.950 . S
H1742 C1754 0.950 . S
H1743 C1755 0.950 . S
C1744 H1736 0.950 . S
C1744 C1745 1.386 . S
C1744 C1746 1.391 . S
C1745 C1744 1.386 . S
C1745 C1749 1.393 . S
C1746 H1738 0.950 . S
C1746 C1744 1.391 . S
C1746 C1747 1.400 . S
C1747 C1746 1.400 . S
C1747 C1748 1.398 . S
C1747 C1753 1.491 . S
C1748 H1739 0.950 . S
C1748 C1747 1.398 . S
C1748 C1749 1.391 . S
C1749 H1737 0.950 . S
C1749 C1745 1.393 . S
C1749 C1748 1.391 . S
C1750 H1740 0.950 . S
C1750 C1751 1.386 . S
C1750 C1752 1.391 . S
C1751 C1750 1.386 . S
C1751 C1755 1.393 . S
C1752 H1741 0.950 . S
C1752 C1750 1.391 . S
C1752 C1753 1.400 . S
C1753 C1747 1.491 . S
C1753 C1752 1.400 . S
C1753 C1754 1.398 . S
C1754 H1742 0.950 . S
C1754 C1753 1.398 . S
C1754 C1755 1.391 . S
C1755 H1743 0.950 . S
C1755 C1751 1.393 . S
C1755 C1754 1.391 . S
H1756 C1764 0.950 . S
H1757 C1769 0.950 . S
H1758 C1766 0.950 . S
H1759 C1768 0.950 . S
H1760 C1770 0.950 . S
H1761 C1772 0.950 . S
H1762 C1774 0.950 . S
H1763 C1775 0.950 . S
C1764 H1756 0.950 . S
C1764 C1765 1.386 . S
C1764 C1766 1.391 . S
C1765 C1764 1.386 . S
C1765 C1769 1.393 . S
C1766 H1758 0.950 . S
C1766 C1764 1.391 . S
C1766 C1767 1.400 . S
C1767 C1766 1.400 . S
C1767 C1768 1.398 . S
C1767 C1773 1.491 . S
C1768 H1759 0.950 . S
C1768 C1767 1.398 . S
C1768 C1769 1.391 . S
C1769 H1757 0.950 . S
C1769 C1765 1.393 . S
C1769 C1768 1.391 . S
C1770 H1760 0.950 . S
C1770 C1771 1.386 . S
C1770 C1772 1.391 . S
C1771 C1770 1.386 . S
C1771 C1775 1.393 . S
C1772 H1761 0.950 . S
C1772 C1770 1.391 . S
C1772 C1773 1.400 . S
C1773 C1767 1.491 . S
C1773 C1772 1.400 . S
C1773 C1774 1.398 . S
C1774 H1762 0.950 . S
C1774 C1773 1.398 . S
C1774 C1775 1.391 . S
C1775 H1763 0.950 . S
C1775 C1771 1.393 . S
C1775 C1774 1.391 . S
H1776 C1784 0.950 . S
H1777 C1789 0.950 . S
H1778 C1786 0.950 . S
H1779 C1788 0.950 . S
H1780 C1790 0.950 . S
H1781 C1792 0.950 . S
H1782 C1794 0.950 . S
H1783 C1795 0.950 . S
C1784 H1776 0.950 . S
C1784 C1785 1.386 . S
C1784 C1786 1.391 . S
C1785 C1784 1.386 . S
C1785 C1789 1.393 . S
C1786 H1778 0.950 . S
C1786 C1784 1.391 . S
C1786 C1787 1.400 . S
C1787 C1786 1.400 . S
C1787 C1788 1.398 . S
C1787 C1793 1.491 . S
C1788 H1779 0.950 . S
C1788 C1787 1.398 . S
C1788 C1789 1.391 . S
C1789 H1777 0.950 . S
C1789 C1785 1.393 . S
C1789 C1788 1.391 . S
C1790 H1780 0.950 . S
C1790 C1791 1.386 . S
C1790 C1792 1.391 . S
C1791 C1790 1.386 . S
C1791 C1795 1.393 . S
C1792 H1781 0.950 . S
C1792 C1790 1.391 . S
C1792 C1793 1.400 . S
C1793 C1787 1.491 . S
C1793 C1792 1.400 . S
C1793 C1794 1.398 . S
C1794 H1782 0.950 . S
C1794 C1793 1.398 . S
C1794 C1795 1.391 . S
C1795 H1783 0.950 . S
C1795 C1791 1.393 . S
C1795 C1794 1.391 . S
H1796 C1804 0.950 . S
H1797 C1809 0.950 . S
H1798 C1806 0.950 . S
H1799 C1808 0.950 . S
H1800 C1810 0.950 . S
H1801 C1812 0.950 . S
H1802 C1814 0.950 . S
H1803 C1815 0.950 . S
C1804 H1796 0.950 . S
C1804 C1805 1.386 . S
C1804 C1806 1.391 . S
C1805 C1804 1.386 . S
C1805 C1809 1.393 . S
C1806 H1798 0.950 . S
C1806 C1804 1.391 . S
C1806 C1807 1.400 . S
C1807 C1806 1.400 . S
C1807 C1808 1.398 . S
C1807 C1813 1.491 . S
C1808 H1799 0.950 . S
C1808 C1807 1.398 . S
C1808 C1809 1.391 . S
C1809 H1797 0.950 . S
C1809 C1805 1.393 . S
C1809 C1808 1.391 . S
C1810 H1800 0.950 . S
C1810 C1811 1.386 . S
C1810 C1812 1.391 . S
C1811 C1810 1.386 . S
C1811 C1815 1.393 . S
C1812 H1801 0.950 . S
C1812 C1810 1.391 . S
C1812 C1813 1.400 . S
C1813 C1807 1.491 . S
C1813 C1812 1.400 . S
C1813 C1814 1.398 . S
C1814 H1802 0.950 . S
C1814 C1813 1.398 . S
C1814 C1815 1.391 . S
C1815 H1803 0.950 . S
C1815 C1811 1.393 . S
C1815 C1814 1.391 . S
H1816 C1824 0.950 . S
H1817 C1829 0.950 . S
H1818 C1826 0.950 . S
H1819 C1828 0.950 . S
H1820 C1830 0.950 . S
H1821 C1832 0.950 . S
H1822 C1834 0.950 . S
H1823 C1835 0.950 . S
C1824 H1816 0.950 . S
C1824 C1825 1.386 . S
C1824 C1826 1.391 . S
C1825 C1824 1.386 . S
C1825 C1829 1.393 . S
C1826 H1818 0.950 . S
C1826 C1824 1.391 . S
C1826 C1827 1.400 . S
C1827 C1826 1.400 . S
C1827 C1828 1.398 . S
C1827 C1833 1.491 . S
C1828 H1819 0.950 . S
C1828 C1827 1.398 . S
C1828 C1829 1.391 . S
C1829 H1817 0.950 . S
C1829 C1825 1.393 . S
C1829 C1828 1.391 . S
C1830 H1820 0.950 . S
C1830 C1831 1.386 . S
C1830 C1832 1.391 . S
C1831 C1830 1.386 . S
C1831 C1835 1.393 . S
C1832 H1821 0.950 . S
C1832 C1830 1.391 . S
C1832 C1833 1.400 . S
C1833 C1827 1.491 . S
C1833 C1832 1.400 . S
C1833 C1834 1.398 . S
C1834 H1822 0.950 . S
C1834 C1833 1.398 . S
C1834 C1835 1.391 . S
C1835 H1823 0.950 . S
C1835 C1831 1.393 . S
C1835 C1834 1.391 . S
H1836 C1844 0.950 . S
H1837 C1849 0.950 . S
H1838 C1846 0.950 . S
H1839 C1848 0.950 . S
H1840 C1850 0.950 . S
H1841 C1852 0.950 . S
H1842 C1854 0.950 . S
H1843 C1855 0.950 . S
C1844 H1836 0.950 . S
C1844 C1845 1.386 . S
C1844 C1846 1.391 . S
C1845 C1844 1.386 . S
C1845 C1849 1.393 . S
C1846 H1838 0.950 . S
C1846 C1844 1.391 . S
C1846 C1847 1.400 . S
C1847 C1846 1.400 . S
C1847 C1848 1.398 . S
C1847 C1853 1.491 . S
C1848 H1839 0.950 . S
C1848 C1847 1.398 . S
C1848 C1849 1.391 . S
C1849 H1837 0.950 . S
C1849 C1845 1.393 . S
C1849 C1848 1.391 . S
C1850 H1840 0.950 . S
C1850 C1851 1.386 . S
C1850 C1852 1.391 . S
C1851 C1850 1.386 . S
C1851 C1855 1.393 . S
C1852 H1841 0.950 . S
C1852 C1850 1.391 . S
C1852 C1853 1.400 . S
C1853 C1847 1.491 . S
C1853 C1852 1.400 . S
C1853 C1854 1.398 . S
C1854 H1842 0.950 . S
C1854 C1853 1.398 . S
C1854 C1855 1.391 . S
C1855 H1843 0.950 . S
C1855 C1851 1.393 . S
C1855 C1854 1.391 . S
H1856 C1864 0.950 . S
H1857 C1869 0.950 . S
H1858 C1866 0.950 . S
H1859 C1868 0.950 . S
H1860 C1870 0.950 . S
H1861 C1872 0.950 . S
H1862 C1874 0.950 . S
H1863 C1875 0.950 . S
C1864 H1856 0.950 . S
C1864 C1865 1.386 . S
C1864 C1866 1.391 . S
C1865 C1864 1.386 . S
C1865 C1869 1.393 . S
C1866 H1858 0.950 . S
C1866 C1864 1.391 . S
C1866 C1867 1.400 . S
C1867 C1866 1.400 . S
C1867 C1868 1.398 . S
C1867 C1873 1.491 . S
C1868 H1859 0.950 . S
C1868 C1867 1.398 . S
C1868 C1869 1.391 . S
C1869 H1857 0.950 . S
C1869 C1865 1.393 . S
C1869 C1868 1.391 . S
C1870 H1860 0.950 . S
C1870 C1871 1.392 . S
C1870 C1872 1.391 1_554 S
C1871 C1870 1.392 . S
C1871 C1875 1.370 1_554 S
C1872 H1861 0.950 . S
C1872 C1870 1.391 1_556 S
C1872 C1873 1.400 . S
C1873 C1867 1.491 . S
C1873 C1872 1.400 . S
C1873 C1874 1.398 . S
C1874 H1862 0.950 . S
C1874 C1873 1.398 . S
C1874 C1875 1.391 . S
C1875 H1863 0.950 . S
C1875 C1871 1.370 1_556 S
C1875 C1874 1.391 . S
H1876 C1884 0.950 . S
H1877 C1889 0.950 . S
H1878 C1886 0.950 . S
H1879 C1888 0.950 . S
H1880 C1890 0.950 . S
H1881 C1892 0.950 . S
H1882 C1894 0.950 . S
H1883 C1895 0.950 . S
C1884 H1876 0.950 . S
C1884 C1885 1.386 . S
C1884 C1886 1.391 . S
C1885 C1884 1.386 . S
C1885 C1889 1.393 . S
C1886 H1878 0.950 . S
C1886 C1884 1.391 . S
C1886 C1887 1.400 . S
C1887 C1886 1.400 . S
C1887 C1888 1.398 . S
C1887 C1893 1.491 . S
C1888 H1879 0.950 . S
C1888 C1887 1.398 . S
C1888 C1889 1.391 . S
C1889 H1877 0.950 . S
C1889 C1885 1.393 . S
C1889 C1888 1.391 . S
C1890 H1880 0.950 . S
C1890 C1891 1.386 . S
C1890 C1892 1.391 . S
C1891 C1890 1.386 . S
C1891 C1895 1.393 . S
C1892 H1881 0.950 . S
C1892 C1890 1.391 . S
C1892 C1893 1.400 . S
C1893 C1887 1.491 . S
C1893 C1892 1.400 . S
C1893 C1894 1.398 . S
C1894 H1882 0.950 . S
C1894 C1893 1.398 . S
C1894 C1895 1.391 . S
C1895 H1883 0.950 . S
C1895 C1891 1.393 . S
C1895 C1894 1.391 . S
H1896 C1904 0.950 . S
H1897 C1909 0.950 . S
H1898 C1906 0.950 . S
H1899 C1908 0.950 . S
H1900 C1910 0.950 . S
H1901 C1912 0.950 . S
H1902 C1914 0.950 . S
H1903 C1915 0.950 . S
C1904 H1896 0.950 . S
C1904 C1905 1.386 . S
C1904 C1906 1.391 . S
C1905 C1904 1.386 . S
C1905 C1909 1.393 . S
C1906 H1898 0.950 . S
C1906 C1904 1.391 . S
C1906 C1907 1.400 . S
C1907 C1906 1.400 . S
C1907 C1908 1.398 . S
C1907 C1913 1.491 . S
C1908 H1899 0.950 . S
C1908 C1907 1.398 . S
C1908 C1909 1.391 . S
C1909 H1897 0.950 . S
C1909 C1905 1.393 . S
C1909 C1908 1.391 . S
C1910 H1900 0.950 . S
C1910 C1911 1.386 . S
C1910 C1912 1.391 . S
C1911 C1910 1.386 . S
C1911 C1915 1.393 . S
C1912 H1901 0.950 . S
C1912 C1910 1.391 . S
C1912 C1913 1.400 . S
C1913 C1907 1.491 . S
C1913 C1912 1.400 . S
C1913 C1914 1.398 . S
C1914 H1902 0.950 . S
C1914 C1913 1.398 . S
C1914 C1915 1.391 . S
C1915 H1903 0.950 . S
C1915 C1911 1.393 . S
C1915 C1914 1.391 . S
H1916 C1924 0.950 . S
H1917 C1929 0.950 . S
H1918 C1926 0.950 . S
H1919 C1928 0.950 . S
H1920 C1930 0.950 . S
H1921 C1932 0.950 . S
H1922 C1934 0.950 . S
H1923 C1935 0.950 . S
C1924 H1916 0.950 . S
C1924 C1925 1.386 . S
C1924 C1926 1.391 . S
C1925 C1924 1.386 . S
C1925 C1929 1.393 . S
C1926 H1918 0.950 . S
C1926 C1924 1.391 . S
C1926 C1927 1.400 . S
C1927 C1926 1.400 . S
C1927 C1928 1.398 . S
C1927 C1933 1.491 . S
C1928 H1919 0.950 . S
C1928 C1927 1.398 . S
C1928 C1929 1.391 . S
C1929 H1917 0.950 . S
C1929 C1925 1.393 . S
C1929 C1928 1.391 . S
C1930 H1920 0.950 . S
C1930 C1931 1.386 . S
C1930 C1932 1.391 . S
C1931 C1930 1.386 . S
C1931 C1935 1.393 . S
C1932 H1921 0.950 . S
C1932 C1930 1.391 . S
C1932 C1933 1.400 . S
C1933 C1927 1.491 . S
C1933 C1932 1.400 . S
C1933 C1934 1.398 . S
C1934 H1922 0.950 . S
C1934 C1933 1.398 . S
C1934 C1935 1.391 . S
C1935 H1923 0.950 . S
C1935 C1931 1.393 . S
C1935 C1934 1.391 . S
H1936 C1944 0.950 . S
H1937 C1949 0.950 . S
H1938 C1946 0.950 . S
H1939 C1948 0.950 . S
H1940 C1950 0.950 . S
H1941 C1952 0.950 . S
H1942 C1954 0.950 . S
H1943 C1955 0.950 . S
C1944 H1936 0.950 . S
C1944 C1945 1.386 . S
C1944 C1946 1.391 . S
C1945 C1944 1.386 . S
C1945 C1949 1.393 . S
C1946 H1938 0.950 . S
C1946 C1944 1.391 . S
C1946 C1947 1.400 . S
C1947 C1946 1.400 . S
C1947 C1948 1.398 . S
C1947 C1953 1.491 . S
C1948 H1939 0.950 . S
C1948 C1947 1.398 . S
C1948 C1949 1.391 . S
C1949 H1937 0.950 . S
C1949 C1945 1.393 . S
C1949 C1948 1.391 . S
C1950 H1940 0.950 . S
C1950 C1951 1.386 . S
C1950 C1952 1.391 . S
C1951 C1950 1.386 . S
C1951 C1955 1.393 . S
C1952 H1941 0.950 . S
C1952 C1950 1.391 . S
C1952 C1953 1.400 . S
C1953 C1947 1.491 . S
C1953 C1952 1.400 . S
C1953 C1954 1.398 . S
C1954 H1942 0.950 . S
C1954 C1953 1.398 . S
C1954 C1955 1.391 . S
C1955 H1943 0.950 . S
C1955 C1951 1.393 . S
C1955 C1954 1.391 . S
H1956 C1964 0.950 . S
H1957 C1969 0.950 . S
H1958 C1966 0.950 . S
H1959 C1968 0.950 . S
H1960 C1970 0.950 . S
H1961 C1972 0.950 . S
H1962 C1974 0.950 . S
H1963 C1975 0.950 . S
C1964 H1956 0.950 . S
C1964 C1965 1.386 . S
C1964 C1966 1.391 . S
C1965 C1964 1.386 . S
C1965 C1969 1.393 . S
C1966 H1958 0.950 . S
C1966 C1964 1.391 . S
C1966 C1967 1.400 . S
C1967 C1966 1.400 . S
C1967 C1968 1.398 . S
C1967 C1973 1.491 . S
C1968 H1959 0.950 . S
C1968 C1967 1.398 . S
C1968 C1969 1.391 . S
C1969 H1957 0.950 . S
C1969 C1965 1.393 . S
C1969 C1968 1.391 . S
C1970 H1960 0.950 . S
C1970 C1971 1.386 . S
C1970 C1972 1.391 . S
C1971 C1970 1.386 . S
C1971 C1975 1.393 . S
C1972 H1961 0.950 . S
C1972 C1970 1.391 . S
C1972 C1973 1.400 . S
C1973 C1967 1.491 . S
C1973 C1972 1.400 . S
C1973 C1974 1.398 . S
C1974 H1962 0.950 . S
C1974 C1973 1.398 . S
C1974 C1975 1.391 . S
C1975 H1963 0.950 . S
C1975 C1971 1.393 . S
C1975 C1974 1.391 . S
H1976 C1984 0.950 . S
H1977 C1989 0.950 . S
H1978 C1986 0.950 . S
H1979 C1988 0.950 . S
H1980 C1990 0.950 . S
H1981 C1992 0.950 . S
H1982 C1994 0.945 1_455 S
H1983 C1995 0.950 . S
C1984 H1976 0.950 . S
C1984 C1985 1.386 . S
C1984 C1986 1.391 . S
C1985 C1984 1.386 . S
C1985 C1989 1.393 . S
C1986 H1978 0.950 . S
C1986 C1984 1.391 . S
C1986 C1987 1.400 . S
C1987 C1986 1.400 . S
C1987 C1988 1.398 . S
C1987 C1993 1.491 . S
C1988 H1979 0.950 . S
C1988 C1987 1.398 . S
C1988 C1989 1.391 . S
C1989 H1977 0.950 . S
C1989 C1985 1.393 . S
C1989 C1988 1.391 . S
C1990 H1980 0.950 . S
C1990 C1991 1.386 1_655 S
C1990 C1992 1.391 . S
C1991 C1990 1.386 1_455 S
C1991 C1995 1.393 . S
C1992 H1981 0.950 . S
C1992 C1990 1.391 . S
C1992 C1993 1.400 . S
C1993 C1987 1.491 . S
C1993 C1992 1.400 . S
C1993 C1994 1.412 . S
C1994 H1982 0.945 1_655 S
C1994 C1993 1.412 . S
C1994 C1995 1.382 1_655 S
C1995 H1983 0.950 . S
C1995 C1991 1.393 . S
C1995 C1994 1.382 1_455 S
H1996 C2004 0.950 . S
H1997 C2009 0.950 . S
H1998 C2006 0.950 . S
H1999 C2008 0.950 . S
H2000 C2010 0.950 . S
H2001 C2012 0.950 . S
H2002 C2014 0.950 . S
H2003 C2015 0.950 . S
C2004 H1996 0.950 . S
C2004 C2005 1.386 . S
C2004 C2006 1.391 . S
C2005 C2004 1.386 . S
C2005 C2009 1.393 . S
C2006 H1998 0.950 . S
C2006 C2004 1.391 . S
C2006 C2007 1.400 . S
C2007 C2006 1.400 . S
C2007 C2008 1.398 . S
C2007 C2013 1.491 . S
C2008 H1999 0.950 . S
C2008 C2007 1.398 . S
C2008 C2009 1.391 . S
C2009 H1997 0.950 . S
C2009 C2005 1.393 . S
C2009 C2008 1.391 . S
C2010 H2000 0.950 . S
C2010 C2011 1.386 . S
C2010 C2012 1.391 . S
C2011 C2010 1.386 . S
C2011 C2015 1.393 . S
C2012 H2001 0.950 . S
C2012 C2010 1.391 . S
C2012 C2013 1.400 . S
C2013 C2007 1.491 . S
C2013 C2012 1.400 . S
C2013 C2014 1.398 . S
C2014 H2002 0.950 . S
C2014 C2013 1.398 . S
C2014 C2015 1.391 . S
C2015 H2003 0.950 . S
C2015 C2011 1.393 . S
C2015 C2014 1.391 . S
H2016 C2024 0.950 . S
H2017 C2029 0.950 . S
H2018 C2026 0.950 . S
H2019 C2028 0.950 . S
H2020 C2030 0.950 . S
H2021 C2032 0.950 . S
H2022 C2034 0.950 . S
H2023 C2035 0.950 . S
C2024 H2016 0.950 . S
C2024 C2025 1.386 . S
C2024 C2026 1.391 . S
C2025 C2024 1.386 . S
C2025 C2029 1.393 . S
C2026 H2018 0.950 . S
C2026 C2024 1.391 . S
C2026 C2027 1.400 . S
C2027 C2026 1.400 . S
C2027 C2028 1.398 . S
C2027 C2033 1.491 . S
C2028 H2019 0.950 . S
C2028 C2027 1.398 . S
C2028 C2029 1.391 . S
C2029 H2017 0.950 . S
C2029 C2025 1.393 . S
C2029 C2028 1.391 . S
C2030 H2020 0.950 . S
C2030 C2031 1.386 . S
C2030 C2032 1.391 . S
C2031 C2030 1.386 . S
C2031 C2035 1.393 . S
C2032 H2021 0.950 . S
C2032 C2030 1.391 . S
C2032 C2033 1.400 . S
C2033 C2027 1.491 . S
C2033 C2032 1.400 . S
C2033 C2034 1.398 . S
C2034 H2022 0.950 . S
C2034 C2033 1.398 . S
C2034 C2035 1.391 . S
C2035 H2023 0.950 . S
C2035 C2031 1.393 . S
C2035 C2034 1.391 . S
H2036 C2044 0.950 . S
H2037 C2049 0.950 . S
H2038 C2046 0.950 . S
H2039 C2048 0.950 . S
H2040 C2050 0.950 . S
H2041 C2052 0.950 . S
H2042 C2054 0.950 . S
H2043 C2055 0.950 . S
C2044 H2036 0.950 . S
C2044 C2045 1.386 . S
C2044 C2046 1.391 . S
C2045 C2044 1.386 . S
C2045 C2049 1.393 . S
C2046 H2038 0.950 . S
C2046 C2044 1.391 . S
C2046 C2047 1.400 . S
C2047 C2046 1.400 . S
C2047 C2048 1.398 . S
C2047 C2053 1.491 . S
C2048 H2039 0.950 . S
C2048 C2047 1.398 . S
C2048 C2049 1.391 . S
C2049 H2037 0.950 . S
C2049 C2045 1.393 . S
C2049 C2048 1.391 . S
C2050 H2040 0.950 . S
C2050 C2051 1.386 . S
C2050 C2052 1.391 . S
C2051 C2050 1.386 . S
C2051 C2055 1.393 . S
C2052 H2041 0.950 . S
C2052 C2050 1.391 . S
C2052 C2053 1.400 . S
C2053 C2047 1.491 . S
C2053 C2052 1.400 . S
C2053 C2054 1.398 . S
C2054 H2042 0.950 . S
C2054 C2053 1.398 . S
C2054 C2055 1.391 . S
C2055 H2043 0.950 . S
C2055 C2051 1.393 . S
C2055 C2054 1.391 . S
H2056 C2064 0.950 . S
H2057 C2069 0.950 . S
H2058 C2066 0.950 . S
H2059 C2068 0.950 . S
H2060 C2070 0.950 . S
H2061 C2072 0.950 1_455 S
H2062 C2074 0.950 . S
H2063 C2075 0.950 . S
C2064 H2056 0.950 . S
C2064 C2065 1.386 . S
C2064 C2066 1.391 . S
C2065 C2064 1.386 . S
C2065 C2069 1.393 . S
C2066 H2058 0.950 . S
C2066 C2064 1.391 . S
C2066 C2067 1.400 . S
C2067 C2066 1.400 . S
C2067 C2068 1.398 . S
C2067 C2073 1.491 . S
C2068 H2059 0.950 . S
C2068 C2067 1.398 . S
C2068 C2069 1.391 . S
C2069 H2057 0.950 . S
C2069 C2065 1.393 . S
C2069 C2068 1.391 . S
C2070 H2060 0.950 . S
C2070 C2071 1.386 1_455 S
C2070 C2072 1.391 1_455 S
C2071 C2070 1.386 1_655 S
C2071 C2075 1.393 . S
C2072 H2061 0.950 1_655 S
C2072 C2070 1.391 1_655 S
C2072 C2073 1.400 . S
C2073 C2067 1.491 . S
C2073 C2072 1.400 . S
C2073 C2074 1.398 . S
C2074 H2062 0.950 . S
C2074 C2073 1.398 . S
C2074 C2075 1.391 . S
C2075 H2063 0.950 . S
C2075 C2071 1.393 . S
C2075 C2074 1.391 . S
H2076 C2084 0.950 . S
H2077 C2089 0.950 . S
H2078 C2086 0.950 . S
H2079 C2088 0.950 . S
H2080 C2090 0.950 . S
H2081 C2092 0.950 . S
H2082 C2094 0.950 . S
H2083 C2095 0.950 . S
C2084 H2076 0.950 . S
C2084 C2085 1.386 . S
C2084 C2086 1.391 . S
C2085 C2084 1.386 . S
C2085 C2089 1.393 . S
C2086 H2078 0.950 . S
C2086 C2084 1.391 . S
C2086 C2087 1.400 . S
C2087 C2086 1.400 . S
C2087 C2088 1.398 . S
C2087 C2093 1.491 . S
C2088 H2079 0.950 . S
C2088 C2087 1.398 . S
C2088 C2089 1.391 . S
C2089 H2077 0.950 . S
C2089 C2085 1.393 . S
C2089 C2088 1.391 . S
C2090 H2080 0.950 . S
C2090 C2091 1.386 . S
C2090 C2092 1.391 . S
C2091 C2090 1.386 . S
C2091 C2095 1.393 . S
C2092 H2081 0.950 . S
C2092 C2090 1.391 . S
C2092 C2093 1.400 . S
C2093 C2087 1.491 . S
C2093 C2092 1.400 . S
C2093 C2094 1.398 . S
C2094 H2082 0.950 . S
C2094 C2093 1.398 . S
C2094 C2095 1.391 . S
C2095 H2083 0.950 . S
C2095 C2091 1.393 . S
C2095 C2094 1.391 . S
H2096 C2104 0.950 . S
H2097 C2109 0.950 . S
H2098 C2106 0.950 . S
H2099 C2108 0.950 . S
H2100 C2110 0.950 . S
H2101 C2112 0.950 . S
H2102 C2114 0.950 . S
H2103 C2115 0.950 . S
C2104 H2096 0.950 . S
C2104 C2105 1.386 . S
C2104 C2106 1.391 . S
C2105 C2104 1.386 . S
C2105 C2109 1.393 . S
C2106 H2098 0.950 . S
C2106 C2104 1.391 . S
C2106 C2107 1.400 . S
C2107 C2106 1.400 . S
C2107 C2108 1.398 . S
C2107 C2113 1.491 . S
C2108 H2099 0.950 . S
C2108 C2107 1.398 . S
C2108 C2109 1.391 . S
C2109 H2097 0.950 . S
C2109 C2105 1.393 . S
C2109 C2108 1.391 . S
C2110 H2100 0.950 . S
C2110 C2111 1.386 . S
C2110 C2112 1.391 . S
C2111 C2110 1.386 . S
C2111 C2115 1.393 . S
C2112 H2101 0.950 . S
C2112 C2110 1.391 . S
C2112 C2113 1.400 . S
C2113 C2107 1.491 . S
C2113 C2112 1.400 . S
C2113 C2114 1.398 . S
C2114 H2102 0.950 . S
C2114 C2113 1.398 . S
C2114 C2115 1.391 . S
C2115 H2103 0.950 . S
C2115 C2111 1.393 . S
C2115 C2114 1.391 . S
H2116 C2124 0.950 . S
H2117 C2129 0.950 . S
H2118 C2126 0.950 . S
H2119 C2128 0.950 . S
H2120 C2130 0.950 . S
H2121 C2132 0.950 1_545 S
H2122 C2134 0.950 . S
H2123 C2135 0.950 . S
C2124 H2116 0.950 . S
C2124 C2125 1.386 . S
C2124 C2126 1.391 . S
C2125 C2124 1.386 . S
C2125 C2129 1.393 . S
C2126 H2118 0.950 . S
C2126 C2124 1.391 . S
C2126 C2127 1.400 . S
C2127 C2126 1.400 . S
C2127 C2128 1.398 . S
C2127 C2133 1.491 . S
C2128 H2119 0.950 . S
C2128 C2127 1.398 . S
C2128 C2129 1.391 . S
C2129 H2117 0.950 . S
C2129 C2125 1.393 . S
C2129 C2128 1.391 . S
C2130 H2120 0.950 . S
C2130 C2131 1.386 . S
C2130 C2132 1.391 1_545 S
C2131 C2130 1.386 . S
C2131 C2135 1.393 1_545 S
C2132 H2121 0.950 1_565 S
C2132 C2130 1.391 1_565 S
C2132 C2133 1.400 . S
C2133 C2127 1.491 . S
C2133 C2132 1.400 . S
C2133 C2134 1.398 . S
C2134 H2122 0.950 . S
C2134 C2133 1.398 . S
C2134 C2135 1.391 . S
C2135 H2123 0.950 . S
C2135 C2131 1.393 1_565 S
C2135 C2134 1.391 . S
H2136 C2144 0.950 . S
H2137 C2149 0.950 1_545 S
H2138 C2146 0.950 . S
H2139 C2148 0.950 . S
H2140 C2150 0.950 . S
H2141 C2152 0.950 . S
H2142 C2154 0.950 . S
H2143 C2155 0.950 . S
C2144 H2136 0.950 . S
C2144 C2145 1.386 . S
C2144 C2146 1.391 . S
C2145 C2144 1.386 . S
C2145 C2149 1.393 . S
C2146 H2138 0.950 . S
C2146 C2144 1.391 . S
C2146 C2147 1.400 . S
C2147 C2146 1.400 . S
C2147 C2148 1.398 . S
C2147 C2153 1.491 . S
C2148 H2139 0.950 . S
C2148 C2147 1.398 . S
C2148 C2149 1.391 . S
C2149 H2137 0.950 1_565 S
C2149 C2145 1.393 . S
C2149 C2148 1.391 . S
C2150 H2140 0.950 . S
C2150 C2151 1.386 . S
C2150 C2152 1.391 . S
C2151 C2150 1.386 . S
C2151 C2155 1.393 . S
C2152 H2141 0.950 . S
C2152 C2150 1.391 . S
C2152 C2153 1.400 . S
C2153 C2147 1.491 . S
C2153 C2152 1.400 . S
C2153 C2154 1.398 . S
C2154 H2142 0.950 . S
C2154 C2153 1.398 . S
C2154 C2155 1.391 . S
C2155 H2143 0.950 . S
C2155 C2151 1.393 . S
C2155 C2154 1.391 . S
H2156 C2164 0.950 . S
H2157 C2169 0.950 . S
H2158 C2166 0.950 . S
H2159 C2168 0.950 . S
H2160 C2170 0.950 . S
H2161 C2172 0.950 . S
H2162 C2174 0.950 . S
H2163 C2175 0.950 . S
C2164 H2156 0.950 . S
C2164 C2165 1.386 . S
C2164 C2166 1.391 . S
C2165 C2164 1.386 . S
C2165 C2169 1.393 . S
C2166 H2158 0.950 . S
C2166 C2164 1.391 . S
C2166 C2167 1.400 . S
C2167 C2166 1.400 . S
C2167 C2168 1.398 . S
C2167 C2173 1.491 . S
C2168 H2159 0.950 . S
C2168 C2167 1.398 . S
C2168 C2169 1.391 . S
C2169 H2157 0.950 . S
C2169 C2165 1.393 . S
C2169 C2168 1.391 . S
C2170 H2160 0.950 . S
C2170 C2171 1.386 . S
C2170 C2172 1.391 . S
C2171 C2170 1.386 . S
C2171 C2175 1.393 . S
C2172 H2161 0.950 . S
C2172 C2170 1.391 . S
C2172 C2173 1.400 . S
C2173 C2167 1.491 . S
C2173 C2172 1.400 . S
C2173 C2174 1.398 . S
C2174 H2162 0.950 . S
C2174 C2173 1.398 . S
C2174 C2175 1.391 . S
C2175 H2163 0.950 . S
C2175 C2171 1.393 . S
C2175 C2174 1.391 . S
H2176 C2184 0.950 . S
H2177 C2189 0.950 . S
H2178 C2186 0.950 . S
H2179 C2188 0.950 . S
H2180 C2190 0.950 . S
H2181 C2192 0.950 . S
H2182 C2194 0.950 . S
H2183 C2195 0.950 . S
C2184 H2176 0.950 . S
C2184 C2185 1.386 . S
C2184 C2186 1.391 . S
C2185 C2184 1.386 . S
C2185 C2189 1.393 . S
C2186 H2178 0.950 . S
C2186 C2184 1.391 . S
C2186 C2187 1.400 . S
C2187 C2186 1.400 . S
C2187 C2188 1.398 . S
C2187 C2193 1.491 . S
C2188 H2179 0.950 . S
C2188 C2187 1.398 . S
C2188 C2189 1.391 . S
C2189 H2177 0.950 . S
C2189 C2185 1.393 . S
C2189 C2188 1.391 . S
C2190 H2180 0.950 . S
C2190 C2191 1.386 . S
C2190 C2192 1.391 . S
C2191 C2190 1.386 . S
C2191 C2195 1.393 . S
C2192 H2181 0.950 . S
C2192 C2190 1.391 . S
C2192 C2193 1.400 . S
C2193 C2187 1.491 . S
C2193 C2192 1.400 . S
C2193 C2194 1.398 . S
C2194 H2182 0.950 . S
C2194 C2193 1.398 . S
C2194 C2195 1.391 . S
C2195 H2183 0.950 . S
C2195 C2191 1.393 . S
C2195 C2194 1.391 . S
H2196 C2204 0.950 . S
H2197 C2209 0.950 . S
H2198 C2206 0.950 . S
H2199 C2208 0.950 . S
H2200 C2210 0.950 . S
H2201 C2212 0.950 . S
H2202 C2214 0.950 . S
H2203 C2215 0.950 . S
C2204 H2196 0.950 . S
C2204 C2205 1.386 . S
C2204 C2206 1.391 . S
C2205 C2204 1.386 . S
C2205 C2209 1.393 . S
C2206 H2198 0.950 . S
C2206 C2204 1.391 . S
C2206 C2207 1.400 . S
C2207 C2206 1.400 . S
C2207 C2208 1.398 . S
C2207 C2213 1.491 . S
C2208 H2199 0.950 . S
C2208 C2207 1.398 . S
C2208 C2209 1.391 . S
C2209 H2197 0.950 . S
C2209 C2205 1.393 . S
C2209 C2208 1.391 . S
C2210 H2200 0.950 . S
C2210 C2211 1.386 . S
C2210 C2212 1.391 . S
C2211 C2210 1.386 . S
C2211 C2215 1.393 . S
C2212 H2201 0.950 . S
C2212 C2210 1.391 . S
C2212 C2213 1.400 . S
C2213 C2207 1.491 . S
C2213 C2212 1.400 . S
C2213 C2214 1.398 . S
C2214 H2202 0.950 . S
C2214 C2213 1.398 . S
C2214 C2215 1.391 . S
C2215 H2203 0.950 . S
C2215 C2211 1.393 . S
C2215 C2214 1.391 . S
H2216 C2224 0.950 . S
H2217 C2229 0.950 . S
H2218 C2226 0.950 . S
H2219 C2228 0.950 . S
H2220 C2230 0.950 . S
H2221 C2232 0.950 . S
H2222 C2234 0.950 . S
H2223 C2235 0.950 . S
C2224 H2216 0.950 . S
C2224 C2225 1.386 . S
C2224 C2226 1.391 . S
C2225 C2224 1.386 . S
C2225 C2229 1.393 . S
C2226 H2218 0.950 . S
C2226 C2224 1.391 . S
C2226 C2227 1.400 . S
C2227 C2226 1.400 . S
C2227 C2228 1.398 . S
C2227 C2233 1.491 . S
C2228 H2219 0.950 . S
C2228 C2227 1.398 . S
C2228 C2229 1.391 . S
C2229 H2217 0.950 . S
C2229 C2225 1.393 . S
C2229 C2228 1.391 . S
C2230 H2220 0.950 . S
C2230 C2231 1.386 . S
C2230 C2232 1.391 . S
C2231 C2230 1.386 . S
C2231 C2235 1.393 . S
C2232 H2221 0.950 . S
C2232 C2230 1.391 . S
C2232 C2233 1.400 . S
C2233 C2227 1.491 . S
C2233 C2232 1.400 . S
C2233 C2234 1.398 . S
C2234 H2222 0.950 . S
C2234 C2233 1.398 . S
C2234 C2235 1.391 . S
C2235 H2223 0.950 . S
C2235 C2231 1.393 . S
C2235 C2234 1.391 . S
H2236 C2244 0.950 . S
H2237 C2249 0.950 . S
H2238 C2246 0.950 . S
H2239 C2248 0.950 . S
H2240 C2250 0.950 . S
H2241 C2252 0.950 . S
H2242 C2254 0.950 . S
H2243 C2255 0.950 . S
C2244 H2236 0.950 . S
C2244 C2245 1.386 . S
C2244 C2246 1.391 . S
C2245 C2244 1.386 . S
C2245 C2249 1.393 . S
C2246 H2238 0.950 . S
C2246 C2244 1.391 . S
C2246 C2247 1.400 . S
C2247 C2246 1.400 . S
C2247 C2248 1.398 . S
C2247 C2253 1.491 . S
C2248 H2239 0.950 . S
C2248 C2247 1.398 . S
C2248 C2249 1.391 . S
C2249 H2237 0.950 . S
C2249 C2245 1.393 . S
C2249 C2248 1.391 . S
C2250 H2240 0.950 . S
C2250 C2251 1.386 . S
C2250 C2252 1.391 . S
C2251 C2250 1.386 . S
C2251 C2255 1.393 . S
C2252 H2241 0.950 . S
C2252 C2250 1.391 . S
C2252 C2253 1.400 . S
C2253 C2247 1.491 . S
C2253 C2252 1.400 . S
C2253 C2254 1.398 . S
C2254 H2242 0.950 . S
C2254 C2253 1.398 . S
C2254 C2255 1.391 . S
C2255 H2243 0.950 . S
C2255 C2251 1.393 . S
C2255 C2254 1.391 . S
H2256 C2264 0.950 . S
H2257 C2269 0.950 . S
H2258 C2266 0.950 . S
H2259 C2268 0.950 . S
H2260 C2270 0.950 . S
H2261 C2272 0.950 . S
H2262 C2274 0.950 . S
H2263 C2275 0.950 . S
C2264 H2256 0.950 . S
C2264 C2265 1.386 . S
C2264 C2266 1.391 . S
C2265 C2264 1.386 . S
C2265 C2269 1.393 . S
C2266 H2258 0.950 . S
C2266 C2264 1.391 . S
C2266 C2267 1.400 . S
C2267 C2266 1.400 . S
C2267 C2268 1.398 . S
C2267 C2273 1.491 . S
C2268 H2259 0.950 . S
C2268 C2267 1.398 . S
C2268 C2269 1.391 . S
C2269 H2257 0.950 . S
C2269 C2265 1.393 . S
C2269 C2268 1.391 . S
C2270 H2260 0.950 . S
C2270 C2271 1.386 . S
C2270 C2272 1.391 . S
C2271 C2270 1.386 . S
C2271 C2275 1.393 . S
C2272 H2261 0.950 . S
C2272 C2270 1.391 . S
C2272 C2273 1.400 . S
C2273 C2267 1.491 . S
C2273 C2272 1.400 . S
C2273 C2274 1.398 . S
C2274 H2262 0.950 . S
C2274 C2273 1.398 . S
C2274 C2275 1.391 . S
C2275 H2263 0.950 . S
C2275 C2271 1.393 . S
C2275 C2274 1.391 . S
H2276 C2284 0.950 . S
H2277 C2289 0.950 . S
H2278 C2286 0.950 . S
H2279 C2288 0.950 . S
H2280 C2290 0.950 . S
H2281 C2292 0.950 . S
H2282 C2294 0.950 . S
H2283 C2295 0.950 . S
C2284 H2276 0.950 . S
C2284 C2285 1.386 . S
C2284 C2286 1.391 . S
C2285 C2284 1.386 . S
C2285 C2289 1.393 . S
C2286 H2278 0.950 . S
C2286 C2284 1.391 . S
C2286 C2287 1.400 . S
C2287 C2286 1.400 . S
C2287 C2288 1.398 . S
C2287 C2293 1.491 . S
C2288 H2279 0.950 . S
C2288 C2287 1.398 . S
C2288 C2289 1.391 . S
C2289 H2277 0.950 . S
C2289 C2285 1.393 . S
C2289 C2288 1.391 . S
C2290 H2280 0.950 . S
C2290 C2291 1.386 . S
C2290 C2292 1.391 . S
C2291 C2290 1.386 . S
C2291 C2295 1.393 . S
C2292 H2281 0.950 . S
C2292 C2290 1.391 . S
C2292 C2293 1.400 . S
C2293 C2287 1.491 . S
C2293 C2292 1.400 . S
C2293 C2294 1.398 . S
C2294 H2282 0.950 . S
C2294 C2293 1.398 . S
C2294 C2295 1.391 . S
C2295 H2283 0.950 . S
C2295 C2291 1.393 . S
C2295 C2294 1.391 . S
H2296 C2304 0.950 . S
H2297 C2309 0.950 . S
H2298 C2306 0.950 . S
H2299 C2308 0.950 . S
H2300 C2310 0.934 1_655 S
H2301 C2312 0.950 . S
H2302 C2314 0.944 1_554 S
H2303 C2315 0.950 . S
C2304 H2296 0.950 . S
C2304 C2305 1.386 . S
C2304 C2306 1.391 . S
C2305 C2304 1.386 . S
C2305 C2309 1.393 . S
C2306 H2298 0.950 . S
C2306 C2304 1.391 . S
C2306 C2307 1.400 . S
C2307 C2306 1.400 . S
C2307 C2308 1.398 . S
C2307 C2313 1.491 . S
C2308 H2299 0.950 . S
C2308 C2307 1.398 . S
C2308 C2309 1.391 . S
C2309 H2297 0.950 . S
C2309 C2305 1.393 . S
C2309 C2308 1.391 . S
C2310 H2300 0.934 1_455 S
C2310 C2311 1.386 1_556 S
C2310 C2312 1.391 . S
C2311 C2310 1.386 1_554 S
C2311 C2315 1.393 . S
C2312 H2301 0.950 . S
C2312 C2310 1.391 . S
C2312 C2313 1.400 . S
C2313 C2307 1.491 . S
C2313 C2312 1.400 . S
C2313 C2314 1.417 . S
C2314 H2302 0.944 1_556 S
C2314 C2313 1.417 . S
C2314 C2315 1.378 1_556 S
C2315 H2303 0.950 . S
C2315 C2311 1.393 . S
C2315 C2314 1.378 1_554 S
H2316 C2324 0.950 . S
H2317 C2329 0.950 . S
H2318 C2326 0.950 . S
H2319 C2328 0.950 . S
H2320 C2330 0.950 . S
H2321 C2332 0.950 . S
H2322 C2334 0.950 . S
H2323 C2335 0.950 . S
C2324 H2316 0.950 . S
C2324 C2325 1.386 . S
C2324 C2326 1.391 . S
C2325 C2324 1.386 . S
C2325 C2329 1.393 . S
C2326 H2318 0.950 . S
C2326 C2324 1.391 . S
C2326 C2327 1.400 . S
C2327 C2326 1.400 . S
C2327 C2328 1.398 . S
C2327 C2333 1.491 . S
C2328 H2319 0.950 . S
C2328 C2327 1.398 . S
C2328 C2329 1.391 . S
C2329 H2317 0.950 . S
C2329 C2325 1.393 . S
C2329 C2328 1.391 . S
C2330 H2320 0.950 . S
C2330 C2331 1.386 . S
C2330 C2332 1.391 . S
C2331 C2330 1.386 . S
C2331 C2335 1.393 . S
C2332 H2321 0.950 . S
C2332 C2330 1.391 . S
C2332 C2333 1.400 . S
C2333 C2327 1.491 . S
C2333 C2332 1.400 . S
C2333 C2334 1.398 . S
C2334 H2322 0.950 . S
C2334 C2333 1.398 . S
C2334 C2335 1.391 . S
C2335 H2323 0.950 . S
C2335 C2331 1.393 . S
C2335 C2334 1.391 . S
H2336 C2344 0.950 . S
H2337 C2349 0.950 . S
H2338 C2346 0.950 . S
H2339 C2348 0.950 . S
H2340 C2350 0.950 . S
H2341 C2352 0.950 . S
H2342 C2354 0.950 . S
H2343 C2355 0.950 . S
C2344 H2336 0.950 . S
C2344 C2345 1.386 . S
C2344 C2346 1.391 . S
C2345 C2344 1.386 . S
C2345 C2349 1.393 . S
C2346 H2338 0.950 . S
C2346 C2344 1.391 . S
C2346 C2347 1.400 . S
C2347 C2346 1.400 . S
C2347 C2348 1.398 . S
C2347 C2353 1.491 . S
C2348 H2339 0.950 . S
C2348 C2347 1.398 . S
C2348 C2349 1.391 . S
C2349 H2337 0.950 . S
C2349 C2345 1.393 . S
C2349 C2348 1.391 . S
C2350 H2340 0.950 . S
C2350 C2351 1.386 . S
C2350 C2352 1.391 . S
C2351 C2350 1.386 . S
C2351 C2355 1.393 . S
C2352 H2341 0.950 . S
C2352 C2350 1.391 . S
C2352 C2353 1.400 . S
C2353 C2347 1.491 . S
C2353 C2352 1.400 . S
C2353 C2354 1.398 . S
C2354 H2342 0.950 . S
C2354 C2353 1.398 . S
C2354 C2355 1.391 . S
C2355 H2343 0.950 . S
C2355 C2351 1.393 . S
C2355 C2354 1.391 . S
H2356 C2364 0.950 . S
H2357 C2369 0.950 . S
H2358 C2366 0.950 . S
H2359 C2368 0.950 . S
H2360 C2370 0.950 . S
H2361 C2372 0.950 . S
H2362 C2374 0.950 . S
H2363 C2375 0.950 . S
C2364 H2356 0.950 . S
C2364 C2365 1.386 . S
C2364 C2366 1.391 . S
C2365 C2364 1.386 . S
C2365 C2369 1.393 . S
C2366 H2358 0.950 . S
C2366 C2364 1.391 . S
C2366 C2367 1.400 . S
C2367 C2366 1.400 . S
C2367 C2368 1.398 . S
C2367 C2373 1.491 . S
C2368 H2359 0.950 . S
C2368 C2367 1.398 . S
C2368 C2369 1.391 . S
C2369 H2357 0.950 . S
C2369 C2365 1.393 . S
C2369 C2368 1.391 . S
C2370 H2360 0.950 . S
C2370 C2371 1.386 . S
C2370 C2372 1.391 . S
C2371 C2370 1.386 . S
C2371 C2375 1.393 . S
C2372 H2361 0.950 . S
C2372 C2370 1.391 . S
C2372 C2373 1.400 . S
C2373 C2367 1.491 . S
C2373 C2372 1.400 . S
C2373 C2374 1.398 . S
C2374 H2362 0.950 . S
C2374 C2373 1.398 . S
C2374 C2375 1.391 . S
C2375 H2363 0.950 . S
C2375 C2371 1.393 . S
C2375 C2374 1.391 . S
H2376 C2384 0.950 . S
H2377 C2389 0.950 . S
H2378 C2386 0.950 . S
H2379 C2388 0.950 . S
H2380 C2390 0.950 . S
H2381 C2392 0.950 . S
H2382 C2394 0.950 . S
H2383 C2395 0.950 . S
C2384 H2376 0.950 . S
C2384 C2385 1.386 . S
C2384 C2386 1.391 . S
C2385 C2384 1.386 . S
C2385 C2389 1.393 . S
C2386 H2378 0.950 . S
C2386 C2384 1.391 . S
C2386 C2387 1.400 . S
C2387 C2386 1.400 . S
C2387 C2388 1.398 . S
C2387 C2393 1.491 . S
C2388 H2379 0.950 . S
C2388 C2387 1.398 . S
C2388 C2389 1.391 . S
C2389 H2377 0.950 . S
C2389 C2385 1.393 . S
C2389 C2388 1.391 . S
C2390 H2380 0.950 . S
C2390 C2391 1.386 . S
C2390 C2392 1.391 . S
C2391 C2390 1.386 . S
C2391 C2395 1.393 . S
C2392 H2381 0.950 . S
C2392 C2390 1.391 . S
C2392 C2393 1.400 . S
C2393 C2387 1.491 . S
C2393 C2392 1.400 . S
C2393 C2394 1.398 . S
C2394 H2382 0.950 . S
C2394 C2393 1.398 . S
C2394 C2395 1.391 . S
C2395 H2383 0.950 . S
C2395 C2391 1.393 . S
C2395 C2394 1.391 . S
H2396 C2404 0.950 . S
H2397 C2409 0.950 . S
H2398 C2406 0.950 . S
H2399 C2408 0.950 . S
H2400 C2410 0.950 . S
H2401 C2412 0.950 . S
H2402 C2414 0.950 . S
H2403 C2415 0.950 . S
C2404 H2396 0.950 . S
C2404 C2405 1.386 . S
C2404 C2406 1.391 . S
C2405 C2404 1.386 . S
C2405 C2409 1.393 . S
C2406 H2398 0.950 . S
C2406 C2404 1.391 . S
C2406 C2407 1.400 . S
C2407 C2406 1.400 . S
C2407 C2408 1.398 . S
C2407 C2413 1.491 . S
C2408 H2399 0.950 . S
C2408 C2407 1.398 . S
C2408 C2409 1.391 . S
C2409 H2397 0.950 . S
C2409 C2405 1.393 . S
C2409 C2408 1.391 . S
C2410 H2400 0.950 . S
C2410 C2411 1.386 . S
C2410 C2412 1.391 . S
C2411 C2410 1.386 . S
C2411 C2415 1.393 . S
C2412 H2401 0.950 . S
C2412 C2410 1.391 . S
C2412 C2413 1.400 . S
C2413 C2407 1.491 . S
C2413 C2412 1.400 . S
C2413 C2414 1.398 . S
C2414 H2402 0.950 . S
C2414 C2413 1.398 . S
C2414 C2415 1.391 . S
C2415 H2403 0.950 . S
C2415 C2411 1.393 . S
C2415 C2414 1.391 . S
H2416 C2424 0.950 . S
H2417 C2429 0.950 . S
H2418 C2426 0.950 . S
H2419 C2428 0.950 . S
H2420 C2430 0.950 . S
H2421 C2432 0.950 . S
H2422 C2434 0.950 . S
H2423 C2435 0.950 . S
C2424 H2416 0.950 . S
C2424 C2425 1.386 . S
C2424 C2426 1.391 . S
C2425 C2424 1.386 . S
C2425 C2429 1.393 . S
C2426 H2418 0.950 . S
C2426 C2424 1.391 . S
C2426 C2427 1.400 . S
C2427 C2426 1.400 . S
C2427 C2428 1.398 . S
C2427 C2433 1.491 . S
C2428 H2419 0.950 . S
C2428 C2427 1.398 . S
C2428 C2429 1.391 . S
C2429 H2417 0.950 . S
C2429 C2425 1.393 . S
C2429 C2428 1.391 . S
C2430 H2420 0.950 . S
C2430 C2431 1.386 . S
C2430 C2432 1.391 . S
C2431 C2430 1.386 . S
C2431 C2435 1.393 . S
C2432 H2421 0.950 . S
C2432 C2430 1.391 . S
C2432 C2433 1.400 . S
C2433 C2427 1.491 . S
C2433 C2432 1.400 . S
C2433 C2434 1.398 . S
C2434 H2422 0.950 . S
C2434 C2433 1.398 . S
C2434 C2435 1.391 . S
C2435 H2423 0.950 . S
C2435 C2431 1.393 . S
C2435 C2434 1.391 . S
H2436 C2444 0.950 . S
H2437 C2449 0.950 . S
H2438 C2446 0.950 . S
H2439 C2448 0.950 . S
H2440 C2450 0.950 . S
H2441 C2452 0.950 . S
H2442 C2454 0.950 . S
H2443 C2455 0.950 . S
C2444 H2436 0.950 . S
C2444 C2445 1.386 . S
C2444 C2446 1.391 . S
C2445 C2444 1.386 . S
C2445 C2449 1.393 . S
C2446 H2438 0.950 . S
C2446 C2444 1.391 . S
C2446 C2447 1.400 . S
C2447 C2446 1.400 . S
C2447 C2448 1.398 . S
C2447 C2453 1.491 . S
C2448 H2439 0.950 . S
C2448 C2447 1.398 . S
C2448 C2449 1.391 . S
C2449 H2437 0.950 . S
C2449 C2445 1.393 . S
C2449 C2448 1.391 . S
C2450 H2440 0.950 . S
C2450 C2451 1.386 . S
C2450 C2452 1.391 . S
C2451 C2450 1.386 . S
C2451 C2455 1.393 . S
C2452 H2441 0.950 . S
C2452 C2450 1.391 . S
C2452 C2453 1.400 . S
C2453 C2447 1.491 . S
C2453 C2452 1.400 . S
C2453 C2454 1.398 . S
C2454 H2442 0.950 . S
C2454 C2453 1.398 . S
C2454 C2455 1.391 . S
C2455 H2443 0.950 . S
C2455 C2451 1.393 . S
C2455 C2454 1.391 . S
H2456 C2464 0.950 . S
H2457 C2469 0.950 . S
H2458 C2466 0.950 . S
H2459 C2468 0.950 . S
H2460 C2470 0.950 . S
H2461 C2472 0.950 . S
H2462 C2474 0.950 . S
H2463 C2475 0.950 . S
C2464 H2456 0.950 . S
C2464 C2465 1.386 . S
C2464 C2466 1.391 . S
C2465 C2464 1.386 . S
C2465 C2469 1.393 . S
C2466 H2458 0.950 . S
C2466 C2464 1.391 . S
C2466 C2467 1.400 . S
C2467 C2466 1.400 . S
C2467 C2468 1.398 . S
C2467 C2473 1.491 . S
C2468 H2459 0.950 . S
C2468 C2467 1.398 . S
C2468 C2469 1.391 . S
C2469 H2457 0.950 . S
C2469 C2465 1.393 . S
C2469 C2468 1.391 . S
C2470 H2460 0.950 . S
C2470 C2471 1.386 . S
C2470 C2472 1.391 . S
C2471 C2470 1.386 . S
C2471 C2475 1.393 . S
C2472 H2461 0.950 . S
C2472 C2470 1.391 . S
C2472 C2473 1.400 . S
C2473 C2467 1.491 . S
C2473 C2472 1.400 . S
C2473 C2474 1.398 . S
C2474 H2462 0.950 . S
C2474 C2473 1.398 . S
C2474 C2475 1.391 . S
C2475 H2463 0.950 . S
C2475 C2471 1.393 . S
C2475 C2474 1.391 . S
H2476 C2484 0.950 . S
H2477 C2489 0.950 . S
H2478 C2486 0.950 . S
H2479 C2488 0.950 . S
H2480 C2490 0.950 . S
H2481 C2492 0.950 . S
H2482 C2494 0.950 . S
H2483 C2495 0.950 . S
C2484 H2476 0.950 . S
C2484 C2485 1.386 . S
C2484 C2486 1.391 . S
C2485 C2484 1.386 . S
C2485 C2489 1.393 . S
C2486 H2478 0.950 . S
C2486 C2484 1.391 . S
C2486 C2487 1.400 . S
C2487 C2486 1.400 . S
C2487 C2488 1.398 . S
C2487 C2493 1.491 . S
C2488 H2479 0.950 . S
C2488 C2487 1.398 . S
C2488 C2489 1.391 . S
C2489 H2477 0.950 . S
C2489 C2485 1.393 . S
C2489 C2488 1.391 . S
C2490 H2480 0.950 . S
C2490 C2491 1.386 . S
C2490 C2492 1.391 . S
C2491 C2490 1.386 . S
C2491 C2495 1.393 . S
C2492 H2481 0.950 . S
C2492 C2490 1.391 . S
C2492 C2493 1.400 . S
C2493 C2487 1.491 . S
C2493 C2492 1.400 . S
C2493 C2494 1.398 . S
C2494 H2482 0.950 . S
C2494 C2493 1.398 . S
C2494 C2495 1.391 . S
C2495 H2483 0.950 . S
C2495 C2491 1.393 . S
C2495 C2494 1.391 . S
H2496 C2504 0.950 . S
H2497 C2509 0.950 . S
H2498 C2506 0.950 . S
H2499 C2508 0.950 . S
H2500 C2510 0.950 . S
H2501 C2512 0.950 . S
H2502 C2514 0.950 . S
H2503 C2515 0.950 . S
C2504 H2496 0.950 . S
C2504 C2505 1.386 . S
C2504 C2506 1.391 . S
C2505 C2504 1.386 . S
C2505 C2509 1.393 . S
C2506 H2498 0.950 . S
C2506 C2504 1.391 . S
C2506 C2507 1.400 . S
C2507 C2506 1.400 . S
C2507 C2508 1.398 . S
C2507 C2513 1.491 . S
C2508 H2499 0.950 . S
C2508 C2507 1.398 . S
C2508 C2509 1.391 . S
C2509 H2497 0.950 . S
C2509 C2505 1.393 . S
C2509 C2508 1.391 . S
C2510 H2500 0.950 . S
C2510 C2511 1.386 . S
C2510 C2512 1.391 . S
C2511 C2510 1.386 . S
C2511 C2515 1.393 . S
C2512 H2501 0.950 . S
C2512 C2510 1.391 . S
C2512 C2513 1.400 . S
C2513 C2507 1.491 . S
C2513 C2512 1.400 . S
C2513 C2514 1.398 . S
C2514 H2502 0.950 . S
C2514 C2513 1.398 . S
C2514 C2515 1.391 . S
C2515 H2503 0.950 . S
C2515 C2511 1.393 . S
C2515 C2514 1.391 . S
H2516 C2524 0.950 . S
H2517 C2529 0.950 . S
H2518 C2526 0.950 . S
H2519 C2528 0.950 . S
H2520 C2530 0.950 . S
H2521 C2532 0.950 . S
H2522 C2534 0.950 . S
H2523 C2535 0.950 . S
C2524 H2516 0.950 . S
C2524 C2525 1.386 . S
C2524 C2526 1.391 . S
C2525 C2524 1.386 . S
C2525 C2529 1.393 . S
C2526 H2518 0.950 . S
C2526 C2524 1.391 . S
C2526 C2527 1.400 . S
C2527 C2526 1.400 . S
C2527 C2528 1.398 . S
C2527 C2533 1.491 . S
C2528 H2519 0.950 . S
C2528 C2527 1.398 . S
C2528 C2529 1.391 . S
C2529 H2517 0.950 . S
C2529 C2525 1.393 . S
C2529 C2528 1.391 . S
C2530 H2520 0.950 . S
C2530 C2531 1.386 . S
C2530 C2532 1.391 . S
C2531 C2530 1.386 . S
C2531 C2535 1.393 . S
C2532 H2521 0.950 . S
C2532 C2530 1.391 . S
C2532 C2533 1.400 . S
C2533 C2527 1.491 . S
C2533 C2532 1.400 . S
C2533 C2534 1.398 . S
C2534 H2522 0.950 . S
C2534 C2533 1.398 . S
C2534 C2535 1.391 . S
C2535 H2523 0.950 . S
C2535 C2531 1.393 . S
C2535 C2534 1.391 . S
H2536 C2544 0.950 . S
H2537 C2549 0.950 . S
H2538 C2546 0.950 . S
H2539 C2548 0.950 . S
H2540 C2550 0.950 . S
H2541 C2552 0.950 . S
H2542 C2554 0.950 . S
H2543 C2555 0.950 . S
C2544 H2536 0.950 . S
C2544 C2545 1.386 . S
C2544 C2546 1.391 . S
C2545 C2544 1.386 . S
C2545 C2549 1.393 . S
C2546 H2538 0.950 . S
C2546 C2544 1.391 . S
C2546 C2547 1.400 . S
C2547 C2546 1.400 . S
C2547 C2548 1.398 . S
C2547 C2553 1.491 . S
C2548 H2539 0.950 . S
C2548 C2547 1.398 . S
C2548 C2549 1.391 . S
C2549 H2537 0.950 . S
C2549 C2545 1.393 . S
C2549 C2548 1.391 . S
C2550 H2540 0.950 . S
C2550 C2551 1.386 . S
C2550 C2552 1.391 . S
C2551 C2550 1.386 . S
C2551 C2555 1.393 . S
C2552 H2541 0.950 . S
C2552 C2550 1.391 . S
C2552 C2553 1.400 . S
C2553 C2547 1.491 . S
C2553 C2552 1.400 . S
C2553 C2554 1.398 . S
C2554 H2542 0.950 . S
C2554 C2553 1.398 . S
C2554 C2555 1.391 . S
C2555 H2543 0.950 . S
C2555 C2551 1.393 . S
C2555 C2554 1.391 . S
H2556 C2564 0.950 . S
H2557 C2569 0.950 . S
H2558 C2566 0.950 . S
H2559 C2568 0.950 . S
H2560 C2570 0.950 . S
H2561 C2572 0.950 . S
H2562 C2574 0.950 . S
H2563 C2575 0.950 . S
C2564 H2556 0.950 . S
C2564 C2565 1.386 . S
C2564 C2566 1.391 . S
C2565 C2564 1.386 . S
C2565 C2569 1.393 . S
C2566 H2558 0.950 . S
C2566 C2564 1.391 . S
C2566 C2567 1.400 . S
C2567 C2566 1.400 . S
C2567 C2568 1.398 . S
C2567 C2573 1.491 . S
C2568 H2559 0.950 . S
C2568 C2567 1.398 . S
C2568 C2569 1.391 . S
C2569 H2557 0.950 . S
C2569 C2565 1.393 . S
C2569 C2568 1.391 . S
C2570 H2560 0.950 . S
C2570 C2571 1.386 . S
C2570 C2572 1.391 . S
C2571 C2570 1.386 . S
C2571 C2575 1.393 . S
C2572 H2561 0.950 . S
C2572 C2570 1.391 . S
C2572 C2573 1.400 . S
C2573 C2567 1.491 . S
C2573 C2572 1.400 . S
C2573 C2574 1.398 . S
C2574 H2562 0.950 . S
C2574 C2573 1.398 . S
C2574 C2575 1.391 . S
C2575 H2563 0.950 . S
C2575 C2571 1.393 . S
C2575 C2574 1.391 . S
H2576 C2584 0.950 . S
H2577 C2589 0.950 . S
H2578 C2586 0.950 . S
H2579 C2588 0.950 . S
H2580 C2590 0.950 . S
H2581 C2592 0.950 . S
H2582 C2594 0.950 . S
H2583 C2595 0.950 . S
C2584 H2576 0.950 . S
C2584 C2585 1.386 . S
C2584 C2586 1.391 . S
C2585 C2584 1.386 . S
C2585 C2589 1.393 . S
C2586 H2578 0.950 . S
C2586 C2584 1.391 . S
C2586 C2587 1.400 . S
C2587 C2586 1.400 . S
C2587 C2588 1.398 . S
C2587 C2593 1.491 . S
C2588 H2579 0.950 . S
C2588 C2587 1.398 . S
C2588 C2589 1.391 . S
C2589 H2577 0.950 . S
C2589 C2585 1.393 . S
C2589 C2588 1.391 . S
C2590 H2580 0.950 . S
C2590 C2591 1.386 . S
C2590 C2592 1.391 . S
C2591 C2590 1.386 . S
C2591 C2595 1.393 . S
C2592 H2581 0.950 . S
C2592 C2590 1.391 . S
C2592 C2593 1.400 . S
C2593 C2587 1.491 . S
C2593 C2592 1.400 . S
C2593 C2594 1.398 . S
C2594 H2582 0.950 . S
C2594 C2593 1.398 . S
C2594 C2595 1.391 . S
C2595 H2583 0.950 . S
C2595 C2591 1.393 . S
C2595 C2594 1.391 . S
H2596 C2604 0.950 . S
H2597 C2609 0.950 . S
H2598 C2606 0.950 . S
H2599 C2608 0.950 . S
H2600 C2610 0.950 . S
H2601 C2612 0.950 . S
H2602 C2614 0.950 . S
H2603 C2615 0.950 . S
C2604 H2596 0.950 . S
C2604 C2605 1.386 . S
C2604 C2606 1.391 . S
C2605 C2604 1.386 . S
C2605 C2609 1.393 . S
C2606 H2598 0.950 . S
C2606 C2604 1.391 . S
C2606 C2607 1.400 . S
C2607 C2606 1.400 . S
C2607 C2608 1.398 . S
C2607 C2613 1.491 . S
C2608 H2599 0.950 . S
C2608 C2607 1.398 . S
C2608 C2609 1.391 . S
C2609 H2597 0.950 . S
C2609 C2605 1.393 . S
C2609 C2608 1.391 . S
C2610 H2600 0.950 . S
C2610 C2611 1.386 . S
C2610 C2612 1.391 . S
C2611 C2610 1.386 . S
C2611 C2615 1.393 . S
C2612 H2601 0.950 . S
C2612 C2610 1.391 . S
C2612 C2613 1.400 . S
C2613 C2607 1.491 . S
C2613 C2612 1.400 . S
C2613 C2614 1.398 . S
C2614 H2602 0.950 . S
C2614 C2613 1.398 . S
C2614 C2615 1.391 . S
C2615 H2603 0.950 . S
C2615 C2611 1.393 . S
C2615 C2614 1.391 . S
H2616 C2624 0.950 . S
H2617 C2629 0.950 . S
H2618 C2626 0.950 . S
H2619 C2628 0.950 . S
H2620 C2630 0.950 . S
H2621 C2632 0.950 . S
H2622 C2634 0.950 . S
H2623 C2635 0.950 . S
C2624 H2616 0.950 . S
C2624 C2625 1.386 . S
C2624 C2626 1.391 . S
C2625 C2624 1.386 . S
C2625 C2629 1.393 . S
C2626 H2618 0.950 . S
C2626 C2624 1.391 . S
C2626 C2627 1.400 . S
C2627 C2626 1.400 . S
C2627 C2628 1.398 . S
C2627 C2633 1.491 . S
C2628 H2619 0.950 . S
C2628 C2627 1.398 . S
C2628 C2629 1.391 . S
C2629 H2617 0.950 . S
C2629 C2625 1.393 . S
C2629 C2628 1.391 . S
C2630 H2620 0.950 . S
C2630 C2631 1.386 . S
C2630 C2632 1.391 . S
C2631 C2630 1.386 . S
C2631 C2635 1.393 . S
C2632 H2621 0.950 . S
C2632 C2630 1.391 . S
C2632 C2633 1.400 . S
C2633 C2627 1.491 . S
C2633 C2632 1.400 . S
C2633 C2634 1.398 . S
C2634 H2622 0.950 . S
C2634 C2633 1.398 . S
C2634 C2635 1.391 . S
C2635 H2623 0.950 . S
C2635 C2631 1.393 . S
C2635 C2634 1.391 . S
H2636 C2644 0.950 . S
H2637 C2649 0.950 1_556 S
H2638 C2646 0.950 . S
H2639 C2648 0.950 1_556 S
H2640 C2650 0.966 . S
H2641 C2652 0.912 1_556 S
H2642 C2654 0.950 . S
H2643 C2655 0.950 . S
C2644 H2636 0.950 . S
C2644 C2645 1.386 . S
C2644 C2646 1.391 . S
C2645 C2644 1.386 . S
C2645 C2649 1.393 . S
C2646 H2638 0.950 . S
C2646 C2644 1.391 . S
C2646 C2647 1.400 . S
C2647 C2646 1.400 . S
C2647 C2648 1.398 . S
C2647 C2653 1.491 . S
C2648 H2639 0.950 1_554 S
C2648 C2647 1.398 . S
C2648 C2649 1.391 . S
C2649 H2637 0.950 1_554 S
C2649 C2645 1.393 . S
C2649 C2648 1.391 . S
C2650 H2640 0.966 . S
C2650 C2651 1.371 1_556 S
C2650 C2652 1.387 1_546 S
C2651 C2650 1.371 1_554 S
C2651 C2655 1.393 1_545 S
C2652 H2641 0.912 1_554 S
C2652 C2650 1.387 1_564 S
C2652 C2653 1.441 . S
C2653 C2647 1.491 . S
C2653 C2652 1.441 . S
C2653 C2654 1.398 . S
C2654 H2642 0.950 . S
C2654 C2653 1.398 . S
C2654 C2655 1.391 . S
C2655 H2643 0.950 . S
C2655 C2651 1.393 1_565 S
C2655 C2654 1.391 . S
H2656 C2664 0.950 . S
H2657 C2669 0.950 . S
H2658 C2666 0.950 . S
H2659 C2668 0.950 . S
H2660 C2670 0.950 . S
H2661 C2672 0.950 . S
H2662 C2674 0.950 . S
H2663 C2675 0.950 . S
C2664 H2656 0.950 . S
C2664 C2665 1.386 . S
C2664 C2666 1.391 . S
C2665 C2664 1.386 . S
C2665 C2669 1.393 . S
C2666 H2658 0.950 . S
C2666 C2664 1.391 . S
C2666 C2667 1.400 . S
C2667 C2666 1.400 . S
C2667 C2668 1.398 . S
C2667 C2673 1.491 . S
C2668 H2659 0.950 . S
C2668 C2667 1.398 . S
C2668 C2669 1.391 . S
C2669 H2657 0.950 . S
C2669 C2665 1.393 . S
C2669 C2668 1.391 . S
C2670 H2660 0.950 . S
C2670 C2671 1.386 . S
C2670 C2672 1.391 . S
C2671 C2670 1.386 . S
C2671 C2675 1.393 . S
C2672 H2661 0.950 . S
C2672 C2670 1.391 . S
C2672 C2673 1.400 . S
C2673 C2667 1.491 . S
C2673 C2672 1.400 . S
C2673 C2674 1.398 . S
C2674 H2662 0.950 . S
C2674 C2673 1.398 . S
C2674 C2675 1.391 . S
C2675 H2663 0.950 . S
C2675 C2671 1.393 . S
C2675 C2674 1.391 . S
H2676 C2684 0.950 . S
H2677 C2689 0.950 . S
H2678 C2686 0.931 1_556 S
H2679 C2688 0.950 . S
H2680 C2690 0.950 . S
H2681 C2692 0.950 . S
H2682 C2694 0.950 . S
H2683 C2695 0.950 . S
C2684 H2676 0.950 . S
C2684 C2685 1.386 1_556 S
C2684 C2686 1.382 1_556 S
C2685 C2684 1.386 1_554 S
C2685 C2689 1.393 . S
C2686 H2678 0.931 1_554 S
C2686 C2684 1.382 1_554 S
C2686 C2687 1.429 . S
C2687 C2686 1.429 . S
C2687 C2688 1.398 . S
C2687 C2693 1.491 . S
C2688 H2679 0.950 . S
C2688 C2687 1.398 . S
C2688 C2689 1.391 . S
C2689 H2677 0.950 . S
C2689 C2685 1.393 . S
C2689 C2688 1.391 . S
C2690 H2680 0.950 . S
C2690 C2691 1.386 . S
C2690 C2692 1.391 . S
C2691 C2690 1.386 . S
C2691 C2695 1.393 . S
C2692 H2681 0.950 . S
C2692 C2690 1.391 . S
C2692 C2693 1.400 . S
C2693 C2687 1.491 . S
C2693 C2692 1.400 . S
C2693 C2694 1.398 . S
C2694 H2682 0.950 . S
C2694 C2693 1.398 . S
C2694 C2695 1.391 . S
C2695 H2683 0.950 . S
C2695 C2691 1.393 . S
C2695 C2694 1.391 . S
H2696 C2704 0.950 . S
H2697 C2709 0.950 . S
H2698 C2706 0.950 . S
H2699 C2708 0.950 . S
H2700 C2710 0.950 . S
H2701 C2712 0.950 . S
H2702 C2714 0.950 . S
H2703 C2715 0.950 . S
C2704 H2696 0.950 . S
C2704 C2705 1.386 . S
C2704 C2706 1.391 . S
C2705 C2704 1.386 . S
C2705 C2709 1.393 . S
C2706 H2698 0.950 . S
C2706 C2704 1.391 . S
C2706 C2707 1.400 . S
C2707 C2706 1.400 . S
C2707 C2708 1.398 . S
C2707 C2713 1.491 . S
C2708 H2699 0.950 . S
C2708 C2707 1.398 . S
C2708 C2709 1.391 . S
C2709 H2697 0.950 . S
C2709 C2705 1.393 . S
C2709 C2708 1.391 . S
C2710 H2700 0.950 . S
C2710 C2711 1.386 . S
C2710 C2712 1.391 . S
C2711 C2710 1.386 . S
C2711 C2715 1.393 . S
C2712 H2701 0.950 . S
C2712 C2710 1.391 . S
C2712 C2713 1.400 . S
C2713 C2707 1.491 . S
C2713 C2712 1.400 . S
C2713 C2714 1.398 . S
C2714 H2702 0.950 . S
C2714 C2713 1.398 . S
C2714 C2715 1.391 . S
C2715 H2703 0.950 . S
C2715 C2711 1.393 . S
C2715 C2714 1.391 . S
H2716 C2724 0.950 . S
H2717 C2729 0.950 . S
H2718 C2726 0.950 . S
H2719 C2728 0.950 . S
H2720 C2730 0.950 . S
H2721 C2732 0.950 . S
H2722 C2734 0.950 . S
H2723 C2735 0.950 . S
C2724 H2716 0.950 . S
C2724 C2725 1.386 . S
C2724 C2726 1.391 . S
C2725 C2724 1.386 . S
C2725 C2729 1.393 . S
C2726 H2718 0.950 . S
C2726 C2724 1.391 . S
C2726 C2727 1.400 . S
C2727 C2726 1.400 . S
C2727 C2728 1.398 . S
C2727 C2733 1.491 . S
C2728 H2719 0.950 . S
C2728 C2727 1.398 . S
C2728 C2729 1.391 . S
C2729 H2717 0.950 . S
C2729 C2725 1.393 . S
C2729 C2728 1.391 . S
C2730 H2720 0.950 . S
C2730 C2731 1.386 . S
C2730 C2732 1.391 . S
C2731 C2730 1.386 . S
C2731 C2735 1.393 . S
C2732 H2721 0.950 . S
C2732 C2730 1.391 . S
C2732 C2733 1.400 . S
C2733 C2727 1.491 . S
C2733 C2732 1.400 . S
C2733 C2734 1.398 . S
C2734 H2722 0.950 . S
C2734 C2733 1.398 . S
C2734 C2735 1.391 . S
C2735 H2723 0.950 . S
C2735 C2731 1.393 . S
C2735 C2734 1.391 . S
C831 C337 1.901 . S
C825 C8 1.909 . S
C845 C22 1.240 . S
C851 C382 1.230 . S
C865 C35 1.563 . S
C871 C406 1.576 . S
C891 N432 1.037 . S
C885 C49 0.995 . S
C905 C23 1.470 . S
C911 N462 1.514 . S
C931 C496 1.441 . S
C925 C34 1.434 . S
C951 C532 1.015 . S
C945 C48 0.983 . S
C965 C9 1.901 . S
C971 C556 1.890 . S
C985 C64 1.083 . S
C991 N350 1.077 . S
C1005 C77 0.948 . S
C1011 N372 0.999 . S
C1031 C412 1.227 . S
C1025 C92 1.232 . S
C1051 C436 1.871 . S
C1045 C105 1.857 . S
C1065 C63 1.187 . S
C1071 C466 1.205 . S
C1091 C502 1.326 . S
C1085 C78 1.331 . S
C1111 N522 1.109 . S
C1105 C91 1.060 . S
C1131 C562 1.786 . S
C1125 C106 1.787 . S
C1151 C363 1.737 . S
C1145 C107 1.743 . S
C1171 C592 0.933 . S
C1165 C118 0.930 . S
C1185 C135 1.300 . S
C1191 N612 1.324 . S
C1211 C646 1.633 . S
C1205 C146 1.630 . S
C1225 C65 1.053 . S
C1231 N552 1.054 . S
C1251 N402 1.293 1_565 S
C1245 C79 1.247 . S
C1265 C132 1.083 . S
C1271 C682 1.090 . S
C1291 C706 0.987 . S
C1285 C160 0.986 . S
C1305 C177 1.908 . S
C1311 C346 1.866 1_556 S
C1331 C723 0.829 . S
C1325 C188 0.850 . S
C1345 C204 1.877 . S
C1351 C397 1.860 . S
C1365 C219 1.090 . S
C1371 N680 1.094 . S
C1391 N470 1.184 . S
C1385 C190 1.179 . S
C1411 C607 1.503 . S
C1405 C202 1.500 . S
C1431 C543 1.040 . S
C1425 C217 1.034 . S
C1451 C727 1.653 . S
C1445 C175 1.617 . S
C1471 N342 0.887 1_655 S
C1465 C231 0.885 . S
C1485 C246 1.225 . S
C1491 N710 1.230 . S
C1511 C423 0.930 . S
C1505 C259 0.920 . S
C1525 C274 1.913 . S
C1531 C667 1.889 . S
C1545 C232 1.304 . S
C1551 C457 1.274 1_655 S
C1565 C245 0.957 . S
C1571 C633 0.990 . S
C1591 N530 1.105 . S
C1585 C260 1.103 . S
C1605 C273 1.578 . S
C1611 C753 1.601 . S
C1625 C275 1.786 . S
C1631 C352 1.771 1_565 S
C1645 C286 0.989 . S
C1651 C603 1.032 . S
C1665 C303 1.195 . S
C1671 N500 1.196 . S
C1685 C314 1.433 . S
C1691 C637 1.449 . S
C1711 N740 1.006 . S
C1705 C233 1.005 1_565 S
C1731 N410 1.155 . S
C1725 C247 1.155 . S
C1751 C453 0.992 . S
C1745 C300 0.990 . S
C1771 C367 0.980 . S
C1765 C328 0.997 . S
C1785 C36 1.893 . S
C1791 C757 1.900 . S
C1811 C712 1.217 . S
C1805 C50 1.240 . S
C1831 C796 1.547 . S
C1825 C7 1.550 . S
C1845 C21 0.970 . S
C1851 N672 1.030 . S
C1865 C51 1.456 . S
C1871 N582 1.516 . S
C1891 C616 1.412 . S
C1885 C6 1.412 . S
C1911 C652 1.016 . S
C1905 C20 1.001 . S
C1931 C736 1.891 . S
C1925 C37 1.899 . S
C1951 N770 1.011 . S
C1945 C162 1.023 . S
C1965 C119 0.968 . S
C1971 N702 0.977 . S
C1985 C134 1.181 . S
C1991 C802 1.174 . S
C2011 C676 1.873 . S
C2005 C147 1.849 . S
C2031 C586 1.185 . S
C2025 C161 1.182 . S
C2045 C120 1.280 . S
C2051 C622 1.258 . S
C2071 N642 1.086 1_655 S
C2065 C133 1.028 . S
C2085 C148 1.721 . S
C2091 C742 1.724 . S
C2111 C783 1.786 . S
C2105 C149 1.781 . S
C2131 C472 0.846 . S
C2125 C76 0.837 . S
C2151 N492 1.330 . S
C2145 C93 1.286 1_565 S
C2165 C104 1.577 . S
C2171 C526 1.590 . S
C2191 N732 1.069 . S
C2185 C163 1.072 . S
C2205 C121 1.264 . S
C2211 N792 1.287 . S
C2231 C442 1.035 . S
C2225 C90 1.027 . S
C2251 C376 0.952 . S
C2245 C62 0.932 . S
C2265 C203 1.625 . S
C2271 C766 1.633 . S
C2291 C393 0.889 . S
C2285 C216 0.896 . S
C2311 C787 1.611 . S
C2305 C174 1.600 . S
C2325 C191 1.129 . S
C2331 N440 1.125 . S
C2345 C218 1.151 . S
C2351 N590 1.158 . S
C2365 C176 1.760 . S
C2371 C487 1.734 . S
C2385 C189 0.973 . S
C2391 C663 0.972 . S
C2405 C205 1.931 . S
C2411 C547 1.899 . S
C2431 N762 0.861 . S
C2425 C329 0.853 . S
C2445 C288 1.190 . S
C2451 N380 1.189 . S
C2471 C813 0.872 . S
C2465 C301 0.877 . S
C2485 C316 1.843 . S
C2491 C427 1.832 . S
C2505 C330 1.371 . S
C2511 C577 1.346 . S
C2531 C513 1.049 . S
C2525 C287 1.035 . S
C2545 C302 1.146 . S
C2551 N650 1.147 . S
C2571 C573 1.631 . S
C2565 C315 1.602 . S
C2591 C772 1.693 . S
C2585 C317 1.724 . S
C2611 C483 0.996 . S
C2605 C244 0.987 . S
C2625 C261 1.165 . S
C2631 N620 1.167 . S
C2651 C517 1.431 . S
C2645 C272 1.416 . S
C2671 N560 1.038 . S
C2665 C331 1.036 . S
C2685 C289 1.128 . S
C2691 N800 1.127 . S
C2711 C693 1.004 . S
C2705 C258 0.996 . S
C2731 C697 1.009 . S
C2725 C230 1.022 . S
