# Generated by pormake.
# Topology eea, (3,6)-cn, num edge types: 1
# Building blocks:
#     Node 0, Type 0, BuildingBlock: OLANEW_clean_sbu_2, # of connection points: 3
#     Node 1, Type 0, BuildingBlock: OLANEW_clean_sbu_2, # of connection points: 3
#     Node 2, Type 0, BuildingBlock: OLANEW_clean_sbu_2, # of connection points: 3
#     Node 3, Type 0, BuildingBlock: OLANEW_clean_sbu_2, # of connection points: 3
#     Node 4, Type 0, BuildingBlock: OLANEW_clean_sbu_2, # of connection points: 3
#     Node 5, Type 0, BuildingBlock: OLANEW_clean_sbu_2, # of connection points: 3
#     Node 6, Type 0, BuildingBlock: OLANEW_clean_sbu_2, # of connection points: 3
#     Node 7, Type 0, BuildingBlock: OLANEW_clean_sbu_2, # of connection points: 3
#     Node 8, Type 0, BuildingBlock: OLANEW_clean_sbu_2, # of connection points: 3
#     Node 9, Type 0, BuildingBlock: OLANEW_clean_sbu_2, # of connection points: 3
#     Node 10, Type 0, BuildingBlock: OLANEW_clean_sbu_2, # of connection points: 3
#     Node 11, Type 0, BuildingBlock: OLANEW_clean_sbu_2, # of connection points: 3
#     Node 12, Type 0, BuildingBlock: OLANEW_clean_sbu_2, # of connection points: 3
#     Node 13, Type 0, BuildingBlock: OLANEW_clean_sbu_2, # of connection points: 3
#     Node 14, Type 0, BuildingBlock: OLANEW_clean_sbu_2, # of connection points: 3
#     Node 15, Type 0, BuildingBlock: OLANEW_clean_sbu_2, # of connection points: 3
#     Node 16, Type 0, BuildingBlock: OLANEW_clean_sbu_2, # of connection points: 3
#     Node 17, Type 0, BuildingBlock: OLANEW_clean_sbu_2, # of connection points: 3
#     Node 18, Type 1, BuildingBlock: KUMBOL_clean_sbu_0, # of connection points: 6
#     Node 19, Type 1, BuildingBlock: KUMBOL_clean_sbu_0, # of connection points: 6
#     Node 20, Type 1, BuildingBlock: KUMBOL_clean_sbu_0, # of connection points: 6
#     Node 21, Type 1, BuildingBlock: KUMBOL_clean_sbu_0, # of connection points: 6
#     Node 22, Type 1, BuildingBlock: KUMBOL_clean_sbu_0, # of connection points: 6
#     Node 23, Type 1, BuildingBlock: KUMBOL_clean_sbu_0, # of connection points: 6
#     Node 24, Type 1, BuildingBlock: KUMBOL_clean_sbu_0, # of connection points: 6
#     Node 25, Type 1, BuildingBlock: KUMBOL_clean_sbu_0, # of connection points: 6
#     Node 26, Type 1, BuildingBlock: KUMBOL_clean_sbu_0, # of connection points: 6
#     Edge 27, Type (0, 1), BuildingBlock: KIFKEQ_clean_linker_1, # of connection points: 2
#     Edge 28, Type (0, 1), BuildingBlock: KIFKEQ_clean_linker_1, # of connection points: 2
#     Edge 29, Type (0, 1), BuildingBlock: KIFKEQ_clean_linker_1, # of connection points: 2
#     Edge 30, Type (0, 1), BuildingBlock: KIFKEQ_clean_linker_1, # of connection points: 2
#     Edge 31, Type (0, 1), BuildingBlock: KIFKEQ_clean_linker_1, # of connection points: 2
#     Edge 32, Type (0, 1), BuildingBlock: KIFKEQ_clean_linker_1, # of connection points: 2
#     Edge 33, Type (0, 1), BuildingBlock: KIFKEQ_clean_linker_1, # of connection points: 2
#     Edge 34, Type (0, 1), BuildingBlock: KIFKEQ_clean_linker_1, # of connection points: 2
#     Edge 35, Type (0, 1), BuildingBlock: KIFKEQ_clean_linker_1, # of connection points: 2
#     Edge 36, Type (0, 1), BuildingBlock: KIFKEQ_clean_linker_1, # of connection points: 2
#     Edge 37, Type (0, 1), BuildingBlock: KIFKEQ_clean_linker_1, # of connection points: 2
#     Edge 38, Type (0, 1), BuildingBlock: KIFKEQ_clean_linker_1, # of connection points: 2
#     Edge 39, Type (0, 1), BuildingBlock: KIFKEQ_clean_linker_1, # of connection points: 2
#     Edge 40, Type (0, 1), BuildingBlock: KIFKEQ_clean_linker_1, # of connection points: 2
#     Edge 41, Type (0, 1), BuildingBlock: KIFKEQ_clean_linker_1, # of connection points: 2
#     Edge 42, Type (0, 1), BuildingBlock: KIFKEQ_clean_linker_1, # of connection points: 2
#     Edge 43, Type (0, 1), BuildingBlock: KIFKEQ_clean_linker_1, # of connection points: 2
#     Edge 44, Type (0, 1), BuildingBlock: KIFKEQ_clean_linker_1, # of connection points: 2
#     Edge 45, Type (0, 1), BuildingBlock: KIFKEQ_clean_linker_1, # of connection points: 2
#     Edge 46, Type (0, 1), BuildingBlock: KIFKEQ_clean_linker_1, # of connection points: 2
#     Edge 47, Type (0, 1), BuildingBlock: KIFKEQ_clean_linker_1, # of connection points: 2
#     Edge 48, Type (0, 1), BuildingBlock: KIFKEQ_clean_linker_1, # of connection points: 2
#     Edge 49, Type (0, 1), BuildingBlock: KIFKEQ_clean_linker_1, # of connection points: 2
#     Edge 50, Type (0, 1), BuildingBlock: KIFKEQ_clean_linker_1, # of connection points: 2
#     Edge 51, Type (0, 1), BuildingBlock: KIFKEQ_clean_linker_1, # of connection points: 2
#     Edge 52, Type (0, 1), BuildingBlock: KIFKEQ_clean_linker_1, # of connection points: 2
#     Edge 53, Type (0, 1), BuildingBlock: KIFKEQ_clean_linker_1, # of connection points: 2
#     Edge 54, Type (0, 1), BuildingBlock: KIFKEQ_clean_linker_1, # of connection points: 2
#     Edge 55, Type (0, 1), BuildingBlock: KIFKEQ_clean_linker_1, # of connection points: 2
#     Edge 56, Type (0, 1), BuildingBlock: KIFKEQ_clean_linker_1, # of connection points: 2
#     Edge 57, Type (0, 1), BuildingBlock: KIFKEQ_clean_linker_1, # of connection points: 2
#     Edge 58, Type (0, 1), BuildingBlock: KIFKEQ_clean_linker_1, # of connection points: 2
#     Edge 59, Type (0, 1), BuildingBlock: KIFKEQ_clean_linker_1, # of connection points: 2
#     Edge 60, Type (0, 1), BuildingBlock: KIFKEQ_clean_linker_1, # of connection points: 2
#     Edge 61, Type (0, 1), BuildingBlock: KIFKEQ_clean_linker_1, # of connection points: 2
#     Edge 62, Type (0, 1), BuildingBlock: KIFKEQ_clean_linker_1, # of connection points: 2
#     Edge 63, Type (0, 1), BuildingBlock: KIFKEQ_clean_linker_1, # of connection points: 2
#     Edge 64, Type (0, 1), BuildingBlock: KIFKEQ_clean_linker_1, # of connection points: 2
#     Edge 65, Type (0, 1), BuildingBlock: KIFKEQ_clean_linker_1, # of connection points: 2
#     Edge 66, Type (0, 1), BuildingBlock: KIFKEQ_clean_linker_1, # of connection points: 2
#     Edge 67, Type (0, 1), BuildingBlock: KIFKEQ_clean_linker_1, # of connection points: 2
#     Edge 68, Type (0, 1), BuildingBlock: KIFKEQ_clean_linker_1, # of connection points: 2
#     Edge 69, Type (0, 1), BuildingBlock: KIFKEQ_clean_linker_1, # of connection points: 2
#     Edge 70, Type (0, 1), BuildingBlock: KIFKEQ_clean_linker_1, # of connection points: 2
#     Edge 71, Type (0, 1), BuildingBlock: KIFKEQ_clean_linker_1, # of connection points: 2
#     Edge 72, Type (0, 1), BuildingBlock: KIFKEQ_clean_linker_1, # of connection points: 2
#     Edge 73, Type (0, 1), BuildingBlock: KIFKEQ_clean_linker_1, # of connection points: 2
#     Edge 74, Type (0, 1), BuildingBlock: KIFKEQ_clean_linker_1, # of connection points: 2
#     Edge 75, Type (0, 1), BuildingBlock: KIFKEQ_clean_linker_1, # of connection points: 2
#     Edge 76, Type (0, 1), BuildingBlock: KIFKEQ_clean_linker_1, # of connection points: 2
#     Edge 77, Type (0, 1), BuildingBlock: KIFKEQ_clean_linker_1, # of connection points: 2
#     Edge 78, Type (0, 1), BuildingBlock: KIFKEQ_clean_linker_1, # of connection points: 2
#     Edge 79, Type (0, 1), BuildingBlock: KIFKEQ_clean_linker_1, # of connection points: 2
#     Edge 80, Type (0, 1), BuildingBlock: KIFKEQ_clean_linker_1, # of connection points: 2
# Relax obj value: 0.012
# Max RMSD: 0.158
# Mean RMSD: 0.109
data_MOF--net-eea--node1-OLANEW_clean_sbu_2--node2-KUMBOL_clean_sbu_0--edge1-KIFKEQ_clean_linker_1
_symmetry_space_group_name_H-M    P1
_symmetry_Int_Tables_number       1
_symmetry_cell_setting            triclinic
loop_
_symmetry_equiv_pos_as_xyz
'x, y, z'
_cell_length_a     61.418906
_cell_length_b     62.307945
_cell_length_c     69.005083
_cell_angle_alpha  94.613641
_cell_angle_beta   89.960908
_cell_angle_gamma 120.63177
loop_
_atom_site_label
_atom_site_type_symbol
_atom_site_fract_x
_atom_site_fract_y
_atom_site_fract_z
_atom_type_partial_charge
O0 O 0.21705 0.11388 0.44387 0.0
Cd1 Cd 0.18453 0.09866 0.4176 0.0
O2 O 0.24544 0.11212 0.42549 0.0
Cd3 Cd 0.21835 0.09009 0.40126 0.0
O4 O 0.20212 0.05293 0.38565 0.0
C5 C 0.21813 0.04737 0.37906 0.0
O6 O 0.2423 0.06464 0.38073 0.0
C7 C 0.23938 0.11794 0.44184 0.0
C8 C 0.18388 0.13848 0.40235 0.0
O9 O 0.17229 0.1295 0.41778 0.0
O10 O 0.1957 0.12854 0.39399 0.0
O11 O 0.90167 0.13822 0.43258 0.0
Cd12 Cd 0.91303 0.12859 0.40027 0.0
O13 O 0.90018 0.1054 0.44368 0.0
Cd14 Cd 0.90528 0.08967 0.41594 0.0
O15 O 0.88292 0.05429 0.39814 0.0
C16 C 0.86629 0.05187 0.3858 0.0
O17 O 0.8649 0.07163 0.38253 0.0
C18 C 0.89819 0.12473 0.44648 0.0
C19 C 0.95984 0.16605 0.38876 0.0
O20 O 0.93943 0.16598 0.38473 0.0
O21 O 0.95813 0.14854 0.3984 0.0
O22 O 0.89408 0.74377 0.43437 0.0
Cd23 Cd 0.90755 0.76244 0.40322 0.0
O24 O 0.86106 0.7488 0.43766 0.0
Cd25 Cd 0.85922 0.76484 0.41098 0.0
O26 O 0.83458 0.77323 0.39396 0.0
C27 C 0.83486 0.79367 0.39796 0.0
O28 O 0.85138 0.81028 0.41131 0.0
C29 C 0.87547 0.74153 0.44405 0.0
C30 C 0.95529 0.77079 0.39233 0.0
O31 O 0.95314 0.78768 0.40253 0.0
O32 O 0.93497 0.74986 0.38743 0.0
O33 O 0.1509 0.24145 0.59162 0.0
Cd34 Cd 0.14708 0.22966 0.62506 0.0
O35 O 0.11569 0.24255 0.58835 0.0
Cd36 Cd 0.09708 0.22843 0.61545 0.0
O37 O 0.06226 0.21822 0.63096 0.0
C38 C 0.04821 0.2249 0.62306 0.0
O39 O 0.05592 0.23695 0.60737 0.0
C40 C 0.13636 0.24577 0.58164 0.0
C41 C 0.18634 0.22163 0.63546 0.0
O42 O 0.16391 0.20311 0.6312 0.0
O43 O 0.19021 0.24381 0.63498 0.0
O44 O 0.75731 0.85794 0.59573 0.0
Cd45 Cd 0.78006 0.86805 0.62742 0.0
O46 O 0.791 0.88399 0.58069 0.0
Cd47 Cd 0.81187 0.90454 0.60792 0.0
O48 O 0.82194 0.93956 0.62525 0.0
C49 C 0.80371 0.94264 0.63025 0.0
O50 O 0.78039 0.92414 0.62611 0.0
C51 C 0.7678 0.86683 0.58009 0.0
C52 C 0.7895 0.8306 0.63698 0.0
O53 O 0.7686 0.82952 0.64099 0.0
O54 O 0.80593 0.84934 0.62839 0.0
O55 O 0.09702 0.85066 0.59123 0.0
Cd56 Cd 0.08425 0.85916 0.62329 0.0
O57 O 0.11157 0.88945 0.5844 0.0
Cd58 Cd 0.1073 0.90509 0.61253 0.0
O59 O 0.13173 0.94081 0.62949 0.0
C60 C 0.15375 0.9453 0.63423 0.0
O61 O 0.15918 0.9276 0.63032 0.0
C62 C 0.10716 0.86746 0.57943 0.0
C63 C 0.03845 0.81949 0.63434 0.0
O64 O 0.03898 0.83647 0.62469 0.0
O65 O 0.05958 0.82113 0.63864 0.0
O66 O 0.8948 0.45932 0.77552 0.0
Cd67 Cd 0.86896 0.44543 0.74506 0.0
O68 O 0.92534 0.45625 0.76143 0.0
Cd69 Cd 0.90207 0.43423 0.73542 0.0
O70 O 0.88475 0.3965 0.72065 0.0
C71 C 0.89995 0.38955 0.71464 0.0
O72 O 0.9244 0.40588 0.71621 0.0
C73 C 0.91697 0.46253 0.77634 0.0
C74 C 0.8629 0.48327 0.73163 0.0
O75 O 0.84637 0.46716 0.74215 0.0
O76 O 0.8823 0.4815 0.72748 0.0
O77 O 0.56328 0.47335 0.76237 0.0
Cd78 Cd 0.57549 0.46189 0.73108 0.0
O79 O 0.57209 0.44926 0.77826 0.0
Cd80 Cd 0.57194 0.42739 0.75191 0.0
O81 O 0.54741 0.39035 0.73665 0.0
C82 C 0.52964 0.38697 0.72506 0.0
O83 O 0.52788 0.40638 0.72125 0.0
C84 C 0.56566 0.4657 0.77834 0.0
C85 C 0.6225 0.5 0.72007 0.0
O86 O 0.60189 0.499 0.71504 0.0
O87 O 0.62088 0.483 0.73031 0.0
O88 O 0.56918 0.08722 0.7693 0.0
Cd89 Cd 0.583 0.10603 0.73838 0.0
O90 O 0.53547 0.09119 0.77128 0.0
Cd91 Cd 0.53567 0.10807 0.74455 0.0
O92 O 0.5113 0.11773 0.72861 0.0
C93 C 0.49021 0.11072 0.73641 0.0
O94 O 0.48567 0.09898 0.75225 0.0
C95 C 0.54987 0.08431 0.77829 0.0
C96 C 0.63043 0.11315 0.72831 0.0
O97 O 0.62857 0.13024 0.73848 0.0
O98 O 0.6099 0.09263 0.72295 0.0
O99 O 0.80833 0.5657 0.9221 0.0
Cd100 Cd 0.79749 0.54404 0.95199 0.0
O101 O 0.77478 0.56985 0.91984 0.0
Cd102 Cd 0.75361 0.55194 0.94518 0.0
O103 O 0.71904 0.54186 0.96108 0.0
C104 C 0.70567 0.55004 0.95428 0.0
O105 O 0.71369 0.56324 0.93919 0.0
C106 C 0.79562 0.57328 0.91331 0.0
C107 C 0.83515 0.53496 0.9651 0.0
O108 O 0.81721 0.51913 0.95302 0.0
O109 O 0.83538 0.55513 0.97095 0.0
O110 O 0.43487 0.19811 0.92673 0.0
Cd111 Cd 0.46188 0.21201 0.9566 0.0
O112 O 0.46739 0.22016 0.90904 0.0
Cd113 Cd 0.49058 0.24429 0.93437 0.0
O114 O 0.49867 0.27971 0.94989 0.0
C115 C 0.48083 0.28005 0.959 0.0
O116 O 0.45933 0.2589 0.96 0.0
C117 C 0.44402 0.20407 0.91015 0.0
C118 C 0.47226 0.17567 0.96733 0.0
O119 O 0.45372 0.17722 0.97434 0.0
O120 O 0.48587 0.19128 0.95523 0.0
O121 O 0.77676 0.19142 0.92348 0.0
Cd122 Cd 0.76582 0.2027 0.95535 0.0
O123 O 0.80115 0.18009 0.93731 0.0
Cd124 Cd 0.80137 0.19885 0.96535 0.0
O125 O 0.82048 0.23825 0.97633 0.0
C126 C 0.83227 0.25278 0.96328 0.0
O127 O 0.83116 0.24285 0.9455 0.0
C128 C 0.79085 0.18191 0.92203 0.0
C129 C 0.72118 0.16349 0.96799 0.0
O130 O 0.7215 0.18236 0.96153 0.0
O131 O 0.74183 0.16312 0.96851 0.0
O132 O 0.5533 0.78969 0.11024 0.0
Cd133 Cd 0.52128 0.77679 0.08392 0.0
O134 O 0.57868 0.78151 0.09286 0.0
Cd135 Cd 0.55075 0.7598 0.06905 0.0
O136 O 0.53384 0.72087 0.0569 0.0
C137 C 0.53436 0.70671 0.06895 0.0
O138 O 0.54342 0.71638 0.08679 0.0
C139 C 0.57415 0.79016 0.10867 0.0
C140 C 0.52218 0.81826 0.07035 0.0
O141 O 0.51042 0.80876 0.0856 0.0
O142 O 0.53345 0.80811 0.06141 0.0
O143 O 0.24103 0.8321 0.09864 0.0
Cd144 Cd 0.2518 0.82834 0.06482 0.0
O145 O 0.22185 0.79158 0.09305 0.0
Cd146 Cd 0.19662 0.75158 0.09515 0.0
O147 O 0.17243 0.71206 0.08541 0.0
C148 C 0.15641 0.69615 0.09605 0.0
O149 O 0.15445 0.70348 0.11402 0.0
C150 C 0.227 0.81067 0.10465 0.0
C151 C 0.30055 0.86373 0.05551 0.0
O152 O 0.28197 0.86729 0.05307 0.0
O153 O 0.29612 0.84363 0.06272 0.0
O154 O 0.22337 0.40516 0.09935 0.0
Cd155 Cd 0.23544 0.41772 0.06627 0.0
O156 O 0.18992 0.40968 0.10138 0.0
Cd157 Cd 0.18743 0.4243 0.07409 0.0
O158 O 0.16159 0.43299 0.05905 0.0
C159 C 0.13925 0.4221 0.06522 0.0
O160 O 0.13406 0.40694 0.07894 0.0
C161 C 0.20476 0.40352 0.10871 0.0
C162 C 0.28438 0.42792 0.05747 0.0
O163 O 0.27996 0.44575 0.06145 0.0
O164 O 0.2659 0.40538 0.05779 0.0
O165 O 0.48342 0.91291 0.25758 0.0
Cd166 Cd 0.47505 0.89245 0.28795 0.0
O167 O 0.44981 0.91697 0.25459 0.0
Cd168 Cd 0.42752 0.89983 0.27978 0.0
O169 O 0.39339 0.89042 0.2962 0.0
C170 C 0.37296 0.86953 0.29233 0.0
O171 O 0.37303 0.853 0.27928 0.0
C172 C 0.47073 0.9202 0.24838 0.0
C173 C 0.51404 0.88387 0.29861 0.0
O174 O 0.49467 0.8673 0.28802 0.0
O175 O 0.51502 0.90448 0.3042 0.0
O176 O 0.08489 0.51081 0.26006 0.0
Cd177 Cd 0.10951 0.52333 0.29103 0.0
O178 O 0.11039 0.54706 0.24877 0.0
Cd179 Cd 0.13373 0.56496 0.27546 0.0
O180 O 0.14556 0.59898 0.2945 0.0
C181 C 0.12769 0.60179 0.30092 0.0
O182 O 0.1042 0.58344 0.29717 0.0
C183 C 0.091 0.52517 0.24644 0.0
C184 C 0.12134 0.48794 0.30133 0.0
O185 O 0.10038 0.48638 0.30589 0.0
O186 O 0.13671 0.50621 0.29182 0.0
O187 O 0.44111 0.50806 0.26708 0.0
Cd188 Cd 0.42956 0.5155 0.29985 0.0
O189 O 0.4581 0.54781 0.26216 0.0
Cd190 Cd 0.45561 0.56205 0.29142 0.0
O191 O 0.48004 0.59664 0.30963 0.0
C192 C 0.47964 0.61616 0.30617 0.0
O193 O 0.46273 0.61408 0.29331 0.0
C194 C 0.45199 0.52559 0.25597 0.0
C195 C 0.3816 0.47716 0.30846 0.0
O196 O 0.3844 0.49603 0.30015 0.0
O197 O 0.40151 0.47644 0.31273 0.0
Gd198 Gd 0.5292 0.02222 0.03915 0.0
Gd199 Gd 0.50262 0.98894 0.98986 0.0
C200 C 0.42141 0.92357 0.97898 0.0
C201 C 0.42781 0.88866 0.97026 0.0
C202 C 0.46396 0.93063 0.97791 0.0
C203 C 0.44787 0.93977 0.98138 0.0
C204 C 0.45416 0.9051 0.97178 0.0
C205 C 0.41146 0.89787 0.97389 0.0
C206 C 0.4058 0.93381 0.9812 0.0
C207 C 0.41672 0.95969 0.98498 0.0
N208 N 0.45816 0.96474 0.98603 0.0
C209 C 0.44308 0.975 0.98707 0.0
H210 H 0.45122 -0.00505 0.99005 0.0
C211 C 0.50588 0.93967 0.97338 0.0
N212 N 0.48927 0.94708 0.97929 0.0
C213 C 0.49709 0.91452 0.96726 0.0
C214 C 0.47113 0.89708 0.96672 0.0
H215 H 0.52597 0.95308 0.97388 0.0
H216 H 0.39118 0.88509 0.97217 0.0
H217 H 0.57904 0.0134 0.03764 0.0
H218 H 0.38537 0.922 0.97956 0.0
H219 H 0.40484 0.96786 0.98636 0.0
H220 H 0.4199 0.86892 0.96577 0.0
H221 H 0.51044 0.05974 0.05986 0.0
H222 H 0.6472 0.08493 0.04416 0.0
H223 H 0.62553 0.03871 0.03916 0.0
H224 H 0.61734 0.14152 0.06005 0.0
H225 H 0.51033 0.9086 0.96301 0.0
H226 H 0.46436 0.87763 0.96192 0.0
H227 H 0.64392 0.12339 0.05139 0.0
H228 H 0.52844 0.10471 0.07057 0.0
N229 N 0.57398 0.04486 0.04135 0.0
C230 C 0.62669 0.07388 0.04356 0.0
C231 C 0.61453 0.04781 0.04081 0.0
C232 C 0.61223 0.08531 0.04634 0.0
C233 C 0.58559 0.07004 0.04538 0.0
C234 C 0.58804 0.03349 0.03996 0.0
N235 N 0.54547 0.06444 0.0506 0.0
C236 C 0.57078 0.08021 0.05013 0.0
C237 C 0.54057 0.09812 0.06471 0.0
C238 C 0.56639 0.11493 0.06304 0.0
C239 C 0.53045 0.0727 0.0587 0.0
C240 C 0.58197 0.10596 0.0561 0.0
H241 H 0.57423 0.13459 0.0678 0.0
O242 O 0.51191 0.01771 0.06719 0.0
O243 O 0.4959 -0.00699 0.02116 0.0
O244 O 0.4968 0.02209 0.99575 0.0
O245 O 0.52411 0.04892 0.02194 0.0
O246 O 0.4889 0.01302 0.04304 0.0
O247 O 0.5389 0.0057 0.06168 0.0
O248 O 0.52114 -0.00607 0.96237 0.0
O249 O 0.53548 0.01909 0.00772 0.0
O250 O 0.534 0.98841 0.03231 0.0
O251 O 0.50267 0.96122 0.00879 0.0
O252 O 0.5434 -0.00101 0.98674 0.0
O253 O 0.49138 0.00266 0.96614 0.0
C254 C 0.4786 -0.00491 0.02927 0.0
C255 C 0.60838 0.12161 0.0558 0.0
C256 C 0.62351 0.11129 0.05088 0.0
C257 C 0.52484 0.00873 0.07445 0.0
C258 C 0.53664 0.01944 0.09403 0.0
C259 C 0.55712 0.04406 0.09711 0.0
C260 C 0.52729 0.0048 0.10983 0.0
C261 C 0.53823 0.01469 0.12877 0.0
C262 C 0.56807 0.05403 0.11579 0.0
C263 C 0.55872 0.03954 0.13153 0.0
C264 C 0.50866 0.04391 0.00659 0.0
C265 C 0.55324 0.01762 0.99996 0.0
C266 C 0.50683 0.00076 0.95411 0.0
C267 C 0.4962 0.98871 0.93448 0.0
C268 C 0.4771 0.96342 0.93174 0.0
C269 C 0.50524 0.00264 0.91827 0.0
C270 C 0.49518 -0.0086 0.89936 0.0
C271 C 0.4672 0.95209 0.91308 0.0
C272 C 0.47613 0.96592 0.89698 0.0
C273 C 0.51902 0.96576 0.02326 0.0
H274 H 0.56463 0.05554 0.08511 0.0
H275 H 0.51169 0.98564 0.10727 0.0
H276 H 0.58381 0.07311 0.11811 0.0
H277 H 0.56733 0.04795 0.1459 0.0
H278 H 0.46984 0.95243 0.94398 0.0
H279 H 0.51977 0.0223 0.92045 0.0
H280 H 0.45253 0.93251 0.91107 0.0
H281 H 0.46825 0.95659 0.88264 0.0
Gd282 Gd 0.9714 0.47663 0.03853 0.0
Gd283 Gd 0.00778 0.48729 0.99375 0.0
C284 C 0.07721 0.47882 0.98815 0.0
C285 C 0.1112 0.52195 0.98687 0.0
C286 C 0.06762 0.51206 0.98939 0.0
C287 C 0.05962 0.48699 0.98974 0.0
C288 C 0.09343 0.52979 0.98754 0.0
C289 C 0.10311 0.49649 0.98718 0.0
C290 C 0.06817 0.4531 0.98706 0.0
C291 C 0.04213 0.43624 0.98689 0.0
N292 N 0.03446 0.47045 0.99058 0.0
C293 C 0.02544 0.44528 0.98842 0.0
H294 H 0.0054 0.43202 0.98841 0.0
C295 C 0.05649 0.54299 0.98732 0.0
N296 N 0.04992 0.51893 0.98992 0.0
C297 C 0.08187 0.56131 0.98557 0.0
C298 C 0.10048 0.55475 0.98592 0.0
H299 H 0.0422 0.5482 0.98717 0.0
H300 H 0.11693 0.4906 0.98619 0.0
H301 H 0.97471 0.53245 0.04223 0.0
H302 H 0.08106 0.44605 0.98591 0.0
H303 H 0.03489 0.41628 0.98571 0.0
H304 H 0.13116 0.53532 0.98564 0.0
H305 H 0.9367 0.41663 0.04726 0.0
H306 H 0.8996 0.51975 0.04527 0.0
H307 H 0.9458 0.54885 0.0444 0.0
H308 H 0.8487 0.43104 0.04875 0.0
H309 H 0.08707 0.58047 0.98398 0.0
H310 H 0.12012 0.56895 0.9845 0.0
H311 H 0.8634 0.47563 0.04665 0.0
H312 H 0.89192 0.38518 0.05182 0.0
N313 N 0.94529 0.49419 0.0413 0.0
C314 C 0.91224 0.51239 0.04432 0.0
C315 C 0.9383 0.52887 0.04388 0.0
C316 C 0.90287 0.48667 0.04412 0.0
C317 C 0.92014 0.47808 0.04274 0.0
C318 C 0.95466 0.51944 0.04265 0.0
N319 N 0.9293 0.44591 0.04352 0.0
C320 C 0.91187 0.4531 0.04389 0.0
C321 C 0.89725 0.4042 0.04953 0.0
C322 C 0.87886 0.41104 0.04901 0.0
C323 C 0.92259 0.42206 0.047 0.0
C324 C 0.88611 0.43584 0.04646 0.0
H325 H 0.85925 0.3972 0.05102 0.0
O326 O 0.97613 0.46407 0.06583 0.0
O327 O 0.00301 0.47593 0.0237 0.0
O328 O 0.97573 0.44666 0.99435 0.0
O329 O 0.94582 0.44717 0.01508 0.0
O330 O 0.98274 0.44752 0.04119 0.0
O331 O 0.9853 0.5025 0.06459 0.0
O332 O 0.00287 0.5004 0.96682 0.0
O333 O 0.97561 0.48725 0.00831 0.0
O334 O 0.00339 0.51698 0.03757 0.0
O335 O 0.03355 0.5155 0.0179 0.0
O336 O 0.99617 0.51623 0.99139 0.0
O337 O 0.99592 0.46258 0.96701 0.0
C338 C 0.00169 0.45698 0.03013 0.0
C339 C 0.86862 0.44405 0.04697 0.0
C340 C 0.87699 0.46943 0.04578 0.0
C341 C 0.98322 0.48554 0.07561 0.0
C342 C 0.97158 0.48462 0.09429 0.0
C343 C 0.94789 0.48278 0.09542 0.0
C344 C 0.9848 0.48614 0.11136 0.0
C345 C 0.97481 0.48638 0.12962 0.0
C346 C 0.93775 0.48283 0.11355 0.0
C347 C 0.95119 0.48481 0.13061 0.0
C348 C 0.9525 0.43626 1.001 0.0
C349 C 0.97678 0.50619 1.00199 0.0
C350 C 0.99743 0.47971 0.95646 0.0
C351 C 0.01041 0.48265 0.93815 0.0
C352 C 0.03461 0.48565 0.9376 0.0
C353 C 0.99839 0.48287 0.92097 0.0
C354 C 0.01025 0.48581 0.90312 0.0
C355 C 0.04661 0.48874 0.91998 0.0
C356 C 0.03456 0.4888 0.90283 0.0
C357 C 0.02701 0.52644 0.03207 0.0
H358 H 0.93741 0.48154 0.08238 0.0
H359 H 0.00325 0.48783 0.11043 0.0
H360 H 0.91952 0.48153 0.11439 0.0
H361 H 0.94314 0.48503 0.14454 0.0
H362 H 0.04419 0.48559 0.95071 0.0
H363 H 0.97986 0.48099 0.92161 0.0
H364 H 0.06527 0.49096 0.9196 0.0
H365 H 0.04409 0.49076 0.88931 0.0
Gd366 Gd 0.48473 0.49011 0.99107 0.0
Gd367 Gd 0.51246 0.48902 0.03854 0.0
C368 C 0.59551 0.51008 0.04294 0.0
C369 C 0.59185 0.47072 0.04972 0.0
C370 C 0.55415 0.47375 0.04616 0.0
C371 C 0.56888 0.49847 0.04249 0.0
C372 C 0.56546 0.45979 0.05048 0.0
C373 C 0.60686 0.49585 0.04593 0.0
C374 C 0.60992 0.53582 0.04115 0.0
C375 C 0.59776 0.54946 0.03988 0.0
N376 N 0.55723 0.51166 0.03999 0.0
C377 C 0.57129 0.53709 0.0396 0.0
H378 H 0.56228 0.54794 0.03845 0.0
C379 C 0.51401 0.44132 0.05421 0.0
N380 N 0.52885 0.46402 0.04713 0.0
C381 C 0.52424 0.42658 0.05848 0.0
C382 C 0.55003 0.43567 0.05626 0.0
H383 H 0.49406 0.43428 0.05592 0.0
H384 H 0.62726 0.50434 0.04603 0.0
H385 H 0.43462 0.43143 0.98967 0.0
H386 H 0.63042 0.54544 0.04136 0.0
H387 H 0.60874 0.56949 0.03897 0.0
H388 H 0.60089 0.4602 0.05273 0.0
H389 H 0.50551 0.54745 0.9775 0.0
H390 H 0.36708 0.43479 0.98435 0.0
H391 H 0.38806 0.41019 0.98732 0.0
H392 H 0.39837 0.5211 0.97563 0.0
H393 H 0.51226 0.40826 0.06349 0.0
H394 H 0.55797 0.42431 0.05971 0.0
H395 H 0.37112 0.47642 0.98042 0.0
H396 H 0.4881 0.57415 0.97012 0.0
N397 N 0.44016 0.46791 0.98838 0.0
C398 C 0.38757 0.44425 0.98531 0.0
C399 C 0.39935 0.43029 0.98692 0.0
C400 C 0.4024 0.47013 0.98428 0.0
C401 C 0.429 0.48152 0.98567 0.0
C402 C 0.42581 0.44245 0.98825 0.0
N403 N 0.46969 0.51647 0.98331 0.0
C404 C 0.44426 0.50662 0.98304 0.0
C405 C 0.47557 0.55524 0.97384 0.0
C406 C 0.44954 0.54584 0.9746 0.0
C407 C 0.48536 0.54008 0.97797 0.0
C408 C 0.43347 0.52111 0.9789 0.0
H409 H 0.442 0.55759 0.97133 0.0
O410 O 0.50411 0.50174 0.96425 0.0
O411 O 0.51853 0.49518 0.00726 0.0
O412 O 0.51696 0.52704 0.03436 0.0
O413 O 0.48532 0.52021 0.01173 0.0
O414 O 0.52477 0.5219 0.98861 0.0
O415 O 0.47221 0.46396 0.96505 0.0
O416 O 0.49566 0.47852 0.06648 0.0
O417 O 0.47873 0.48301 0.02202 0.0
O418 O 0.48039 0.45192 0.99406 0.0
O419 O 0.50813 0.45603 0.01946 0.0
O420 O 0.47197 0.45809 0.04224 0.0
O421 O 0.52383 0.51716 0.06308 0.0
C422 C 0.53556 0.51448 1.00018 0.0
C423 C 0.40703 0.51021 0.97855 0.0
C424 C 0.39151 0.48476 0.98126 0.0
C425 C 0.48874 0.48053 0.95428 0.0
C426 C 0.47954 0.4825 0.93526 0.0
C427 C 0.45885 0.48603 0.93353 0.0
C428 C 0.49261 0.48213 0.91869 0.0
C429 C 0.48533 0.48553 0.9004 0.0
C430 C 0.45152 0.48944 0.91542 0.0
C431 C 0.46472 0.48932 0.89893 0.0
C432 C 0.50228 0.53396 0.02603 0.0
C433 C 0.4614 0.46439 0.02953 0.0
C434 C 0.51 0.5009 0.07515 0.0
C435 C 0.52263 0.50231 0.09367 0.0
C436 C 0.54601 0.5034 0.09409 0.0
C437 C 0.51111 0.50256 0.11116 0.0
C438 C 0.523 0.50425 0.1291 0.0
C439 C 0.55779 0.50482 0.11182 0.0
C440 C 0.54644 0.50534 0.12926 0.0
C441 C 0.49264 0.4436 1.00406 0.0
H442 H 0.44852 0.48631 0.94613 0.0
H443 H 0.50878 0.47968 0.92012 0.0
H444 H 0.43558 0.49222 0.91416 0.0
H445 H 0.45861 0.49183 0.88501 0.0
H446 H 0.55521 0.5033 0.08077 0.0
H447 H 0.49317 0.502 0.11082 0.0
H448 H 0.57582 0.50565 0.11206 0.0
H449 H 0.55593 0.5065 0.14286 0.0
Gd450 Gd 0.1826 0.33653 0.36814 0.0
Gd451 Gd 0.15613 0.30313 0.31897 0.0
C452 C 0.07666 0.2345 0.30822 0.0
C453 C 0.0857 0.20164 0.29818 0.0
C454 C 0.12012 0.2445 0.30604 0.0
C455 C 0.10289 0.25197 0.31032 0.0
C456 C 0.11176 0.21938 0.29946 0.0
C457 C 0.06817 0.20919 0.30258 0.0
C458 C 0.05978 0.24312 0.31129 0.0
C459 C 0.06923 0.26871 0.31561 0.0
N460 N 0.1118 0.27661 0.31549 0.0
C461 C 0.09543 0.28532 0.31738 0.0
H462 H 0.10239 0.30499 0.32082 0.0
C463 C 0.16271 0.25635 0.30089 0.0
N464 N 0.14509 0.26217 0.30727 0.0
C465 C 0.15537 0.23167 0.29429 0.0
C466 C 0.12981 0.21302 0.29382 0.0
H467 H 0.18251 0.27065 0.30135 0.0
H468 H 0.04809 0.19545 0.30108 0.0
H469 H 0.23521 0.33265 0.3672 0.0
H470 H 0.03949 0.2303 0.30992 0.0
H471 H 0.05636 0.27565 0.31766 0.0
H472 H 0.07889 0.18219 0.29335 0.0
H473 H 0.15779 0.37103 0.38441 0.0
H474 H 0.29963 0.40661 0.37723 0.0
H475 H 0.28145 0.36091 0.37049 0.0
H476 H 0.26266 0.45752 0.39118 0.0
H477 H 0.16944 0.22704 0.28964 0.0
H478 H 0.12416 0.19393 0.28866 0.0
H479 H 0.29242 0.44264 0.38465 0.0
H480 H 0.17214 0.41539 0.39463 0.0
N481 N 0.22703 0.362 0.37155 0.0
C482 C 0.27925 0.39427 0.37584 0.0
C483 C 0.26906 0.36849 0.37207 0.0
C484 C 0.263 0.40374 0.37828 0.0
C485 C 0.23663 0.38687 0.37619 0.0
C486 C 0.24277 0.3525 0.3702 0.0
N487 N 0.19483 0.37815 0.37877 0.0
C488 C 0.21997 0.39524 0.37983 0.0
C489 C 0.18579 0.41 0.39043 0.0
C490 C 0.21155 0.42804 0.39068 0.0
C491 C 0.17774 0.38492 0.3847 0.0
C492 C 0.22907 0.42071 0.38568 0.0
H493 H 0.21777 0.44744 0.39522 0.0
O494 O 0.16558 0.33143 0.39627 0.0
O495 O 0.14974 0.30605 0.35048 0.0
O496 O 0.14744 0.33414 0.32676 0.0
O497 O 0.17914 0.36283 0.3495 0.0
O498 O 0.1416 0.32484 0.37253 0.0
O499 O 0.19461 0.32203 0.39078 0.0
O500 O 0.17423 0.31054 0.29126 0.0
O501 O 0.18888 0.3335 0.33676 0.0
O502 O 0.18994 0.30442 0.36088 0.0
O503 O 0.15912 0.27633 0.33727 0.0
O504 O 0.19726 0.31492 0.31479 0.0
O505 O 0.14331 0.31723 0.29652 0.0
C506 C 0.13187 0.30671 0.35891 0.0
C507 C 0.25529 0.43782 0.3869 0.0
C508 C 0.27223 0.42935 0.3832 0.0
C509 C 0.17999 0.32407 0.40358 0.0
C510 C 0.19171 0.33565 0.42304 0.0
C511 C 0.2108 0.36093 0.42585 0.0
C512 C 0.18363 0.32124 0.43903 0.0
C513 C 0.19444 0.33202 0.45787 0.0
C514 C 0.22164 0.37176 0.44442 0.0
C515 C 0.21353 0.35749 0.46034 0.0
C516 C 0.16122 0.35691 0.33595 0.0
C517 C 0.20686 0.33293 0.3285 0.0
C518 C 0.15903 0.31692 0.28393 0.0
C519 C 0.14845 0.30579 0.26412 0.0
C520 C 0.12894 0.28072 0.26082 0.0
C521 C 0.15804 0.32041 0.24833 0.0
C522 C 0.14807 0.3101 0.22923 0.0
C523 C 0.11909 0.27032 0.24196 0.0
C524 C 0.12852 0.28485 0.22626 0.0
C525 C 0.17593 0.28168 0.35164 0.0
H526 H 0.21728 0.37229 0.41374 0.0
H527 H 0.16908 0.30161 0.43671 0.0
H528 H 0.23629 0.39134 0.44651 0.0
H529 H 0.22196 0.36656 0.47464 0.0
H530 H 0.12134 0.26921 0.27278 0.0
H531 H 0.17294 0.33987 0.25096 0.0
H532 H 0.10408 0.25092 0.23949 0.0
H533 H 0.12066 0.27624 0.21175 0.0
Gd534 Gd 0.66173 0.838 0.36791 0.0
Gd535 Gd 0.68435 0.83059 0.31931 0.0
C536 C 0.74703 0.81155 0.31393 0.0
C537 C 0.78101 0.84874 0.30114 0.0
C538 C 0.7405 0.84547 0.30737 0.0
C539 C 0.73161 0.8223 0.31407 0.0
C540 C 0.765 0.85863 0.30021 0.0
C541 C 0.77203 0.82523 0.30802 0.0
C542 C 0.73654 0.78702 0.31901 0.0
C543 C 0.71099 0.77353 0.32321 0.0
N544 N 0.70723 0.80951 0.31936 0.0
C545 C 0.69645 0.78498 0.32304 0.0
H546 H 0.67682 0.77427 0.32645 0.0
C547 C 0.73064 0.87473 0.29671 0.0
N548 N 0.7244 0.85421 0.3064 0.0
C549 C 0.7548 0.88858 0.28951 0.0
C550 C 0.77225 0.88075 0.29159 0.0
H551 H 0.71718 0.88084 0.29514 0.0
H552 H 0.78427 0.81743 0.30806 0.0
H553 H 0.66966 0.89476 0.3626 0.0
H554 H 0.74775 0.77811 0.31916 0.0
H555 H 0.70251 0.75433 0.32671 0.0
H556 H 0.80002 0.85872 0.29595 0.0
H557 H 0.62706 0.78401 0.38772 0.0
H558 H 0.59872 0.89071 0.37098 0.0
H559 H 0.644 0.9149 0.3636 0.0
H560 H 0.54542 0.80795 0.39025 0.0
H561 H 0.75993 0.90527 0.28237 0.0
H562 H 0.7909 0.89142 0.28589 0.0
H563 H 0.5619 0.85056 0.38062 0.0
H564 H 0.58362 0.75842 0.39901 0.0
N565 N 0.63913 0.85922 0.36893 0.0
C566 C 0.6099 0.88174 0.3706 0.0
C567 C 0.63547 0.89547 0.36648 0.0
C568 C 0.59927 0.85681 0.37473 0.0
C569 C 0.61463 0.84599 0.37392 0.0
C570 C 0.64997 0.88395 0.36593 0.0
N571 N 0.62109 0.81277 0.37931 0.0
C572 C 0.60531 0.822 0.37927 0.0
C573 C 0.58943 0.77621 0.39339 0.0
C574 C 0.57246 0.7848 0.39243 0.0
C575 C 0.61398 0.79071 0.38705 0.0
C576 C 0.58045 0.80817 0.38564 0.0
H577 H 0.55349 0.77358 0.39744 0.0
O578 O 0.67288 0.83211 0.39589 0.0
O579 O 0.68882 0.83113 0.35126 0.0
O580 O 0.65174 0.79381 0.32862 0.0
O581 O 0.62962 0.80447 0.35109 0.0
O582 O 0.67207 0.80895 0.37368 0.0
O583 O 0.67793 0.86835 0.39109 0.0
O584 O 0.67291 0.83461 0.29068 0.0
O585 O 0.65823 0.83862 0.33608 0.0
O586 O 0.69507 0.87495 0.35998 0.0
O587 O 0.71568 0.86692 0.33412 0.0
O588 O 0.6736 0.85918 0.31273 0.0
O589 O 0.66539 0.79833 0.29795 0.0
C590 C 0.6886 0.81444 0.36056 0.0
C591 C 0.56468 0.81839 0.3856 0.0
C592 C 0.57407 0.84266 0.38013 0.0
C593 C 0.67897 0.8543 0.4037 0.0
C594 C 0.66853 0.8548 0.4228 0.0
C595 C 0.64552 0.85428 0.42441 0.0
C596 C 0.68107 0.85421 0.43957 0.0
C597 C 0.67053 0.85257 0.45794 0.0
C598 C 0.6349 0.85266 0.44249 0.0
C599 C 0.64716 0.85162 0.45913 0.0
C600 C 0.6311 0.78838 0.33829 0.0
C601 C 0.65822 0.85504 0.32657 0.0
C602 C 0.66539 0.81157 0.28424 0.0
C603 C 0.67532 0.80832 0.26553 0.0
C604 C 0.69614 0.80479 0.26478 0.0
C605 C 0.66428 0.80956 0.24819 0.0
C606 C 0.67386 0.80725 0.2301 0.0
C607 C 0.70583 0.80262 0.24692 0.0
C608 C 0.69481 0.80383 0.22966 0.0
C609 C 0.71451 0.88166 0.34853 0.0
H610 H 0.63565 0.85489 0.41172 0.0
H611 H 0.69908 0.85509 0.43819 0.0
H612 H 0.61698 0.85197 0.4436 0.0
H613 H 0.6381 0.84977 0.47285 0.0
H614 H 0.70492 0.80373 0.27795 0.0
H615 H 0.64803 0.81199 0.24883 0.0
H616 H 0.72196 0.80002 0.24645 0.0
H617 H 0.70282 0.80231 0.216 0.0
Gd618 Gd 0.15078 0.81829 0.32056 0.0
Gd619 Gd 0.18018 0.82397 0.36902 0.0
C620 C 0.26077 0.83915 0.37742 0.0
C621 C 0.25338 0.8 0.38844 0.0
C622 C 0.2179 0.8056 0.38138 0.0
C623 C 0.23438 0.82936 0.37615 0.0
C624 C 0.2272 0.79081 0.38799 0.0
C625 C 0.27014 0.82413 0.38315 0.0
C626 C 0.27694 0.86397 0.37341 0.0
C627 C 0.26671 0.87859 0.36898 0.0
N628 N 0.22467 0.84342 0.37083 0.0
C629 C 0.24042 0.86807 0.36801 0.0
H630 H 0.23284 0.87959 0.36445 0.0
C631 C 0.17601 0.77532 0.38815 0.0
N632 N 0.19278 0.7974 0.38089 0.0
C633 C 0.18429 0.75992 0.39475 0.0
C634 C 0.20997 0.76754 0.39445 0.0
H635 H 0.15612 0.76928 0.38831 0.0
H636 H 0.29033 0.83122 0.38401 0.0
H637 H 0.09855 0.76239 0.32531 0.0
H638 H 0.29732 0.87216 0.37415 0.0
H639 H 0.27906 0.89795 0.36621 0.0
H640 H 0.26089 0.78883 0.39331 0.0
H641 H 0.17423 0.87283 0.30123 0.0
H642 H 0.03349 0.76875 0.31529 0.0
H643 H 0.05226 0.7435 0.32348 0.0
H644 H 0.06897 0.85185 0.29582 0.0
H645 H 0.17087 0.74217 0.40005 0.0
H646 H 0.21636 0.75562 0.39963 0.0
H647 H 0.03993 0.8094 0.30519 0.0
H648 H 0.159 0.89949 0.28931 0.0
N649 N 0.10625 0.79837 0.31878 0.0
C650 C 0.0539 0.77719 0.31607 0.0
C651 C 0.06442 0.76287 0.32065 0.0
C652 C 0.06983 0.80201 0.31197 0.0
C653 C 0.09626 0.81211 0.31329 0.0
C654 C 0.09076 0.7737 0.32168 0.0
N655 N 0.13769 0.84441 0.30858 0.0
C656 C 0.11251 0.83591 0.30802 0.0
C657 C 0.14573 0.88169 0.29461 0.0
C658 C 0.11996 0.87374 0.29483 0.0
C659 C 0.15428 0.86654 0.30131 0.0
C660 C 0.10293 0.85041 0.3013 0.0
H661 H 0.11336 0.88546 0.28957 0.0
O662 O 0.16603 0.82327 0.29176 0.0
O663 O 0.18484 0.82517 0.33726 0.0
O664 O 0.18741 0.86146 0.36013 0.0
O665 O 0.15473 0.85247 0.33771 0.0
O666 O 0.19139 0.84668 0.31445 0.0
O667 O 0.1375 0.78628 0.29915 0.0
O668 O 0.16371 0.81906 0.39733 0.0
O669 O 0.14612 0.81733 0.35236 0.0
O670 O 0.14392 0.78087 0.32944 0.0
O671 O 0.17677 0.79019 0.35179 0.0
O672 O 0.13961 0.79532 0.37486 0.0
O673 O 0.1946 0.85551 0.39106 0.0
C674 C 0.20209 0.84171 0.328 0.0
C675 C 0.07669 0.84091 0.30077 0.0
C676 C 0.06016 0.81674 0.3061 0.0
C677 C 0.15085 0.79987 0.28544 0.0
C678 C 0.13766 0.79525 0.26642 0.0
C679 C 0.112 0.78815 0.26499 0.0
C680 C 0.15101 0.79788 0.24939 0.0
C681 C 0.13879 0.79308 0.23097 0.0
C682 C 0.09981 0.78345 0.24675 0.0
C683 C 0.11303 0.78577 0.22982 0.0
C684 C 0.17319 0.86795 0.35056 0.0
C685 C 0.12889 0.80055 0.36149 0.0
C686 C 0.17991 0.84193 0.40426 0.0
C687 C 0.19187 0.84468 0.42345 0.0
C688 C 0.2158 0.84711 0.42527 0.0
C689 C 0.1789 0.84455 0.44022 0.0
C690 C 0.18986 0.84725 0.4588 0.0
C691 C 0.2267 0.84959 0.44367 0.0
C692 C 0.2139 0.84978 0.46037 0.0
C693 C 0.15851 0.77466 0.33883 0.0
H694 H 0.10136 0.7861 0.2779 0.0
H695 H 0.1708 0.80326 0.25049 0.0
H696 H 0.08002 0.77795 0.24573 0.0
H697 H 0.10321 0.78216 0.21584 0.0
H698 H 0.22609 0.84721 0.41254 0.0
H699 H 0.16049 0.84287 0.43879 0.0
H700 H 0.24517 0.85148 0.445 0.0
H701 H 0.22273 0.85177 0.47451 0.0
Gd702 Gd 0.84534 0.67496 0.704 0.0
Gd703 Gd 0.8195 0.64223 0.65464 0.0
C704 C 0.74027 0.57342 0.6435 0.0
C705 C 0.74957 0.54055 0.63426 0.0
C706 C 0.78383 0.58354 0.64192 0.0
C707 C 0.76647 0.59099 0.64574 0.0
C708 C 0.77562 0.55834 0.63574 0.0
C709 C 0.73192 0.54809 0.63814 0.0
C710 C 0.72328 0.58195 0.64627 0.0
C711 C 0.73259 0.60752 0.65054 0.0
N712 N 0.77522 0.61562 0.6508 0.0
C713 C 0.75875 0.62422 0.65252 0.0
H714 H 0.7656 0.64387 0.65594 0.0
C715 C 0.82657 0.59534 0.63756 0.0
N716 N 0.8088 0.60122 0.64337 0.0
C717 C 0.81939 0.57057 0.63147 0.0
C718 C 0.79381 0.55191 0.63078 0.0
H719 H 0.84638 0.60967 0.63818 0.0
H720 H 0.71187 0.53428 0.63654 0.0
H721 H 0.89907 0.67312 0.70204 0.0
H722 H 0.70301 0.56906 0.64478 0.0
H723 H 0.71962 0.61438 0.65241 0.0
H724 H 0.74287 0.52105 0.62971 0.0
H725 H 0.81904 0.7076 0.72146 0.0
H726 H 0.96197 0.74796 0.71212 0.0
H727 H 0.94512 0.70254 0.70483 0.0
H728 H 0.9226 0.79625 0.72811 0.0
H729 H 0.83357 0.56587 0.62734 0.0
H730 H 0.78828 0.53274 0.62599 0.0
H731 H 0.95337 0.7829 0.72057 0.0
H732 H 0.83211 0.75148 0.73235 0.0
N733 N 0.88967 0.70153 0.7072 0.0
C734 C 0.94168 0.7351 0.71094 0.0
C735 C 0.93224 0.70948 0.70687 0.0
C736 C 0.9248 0.74373 0.714 0.0
C737 C 0.89857 0.72621 0.71217 0.0
C738 C 0.90604 0.69283 0.70531 0.0
N739 N 0.8564 0.71602 0.71545 0.0
C740 C 0.88136 0.73372 0.7164 0.0
C741 C 0.84616 0.74676 0.72783 0.0
C742 C 0.8717 0.76542 0.72803 0.0
C743 C 0.83883 0.72195 0.72173 0.0
C744 C 0.88973 0.75895 0.72257 0.0
H745 H 0.87735 0.78461 0.73283 0.0
O746 O 0.82863 0.66881 0.73227 0.0
O747 O 0.8128 0.64458 0.68605 0.0
O748 O 0.8105 0.67314 0.66234 0.0
O749 O 0.84119 0.70137 0.68596 0.0
O750 O 0.80403 0.66224 0.70849 0.0
O751 O 0.85804 0.66016 0.72595 0.0
O752 O 0.83866 0.65026 0.62743 0.0
O753 O 0.8519 0.673 0.67255 0.0
O754 O 0.85396 0.64383 0.69605 0.0
O755 O 0.82251 0.61552 0.67299 0.0
O756 O 0.86078 0.65453 0.65082 0.0
O757 O 0.80627 0.65494 0.63138 0.0
C758 C 0.79463 0.64455 0.69452 0.0
C759 C 0.91579 0.77672 0.72358 0.0
C760 C 0.9333 0.76912 0.71929 0.0
C761 C 0.84338 0.66152 0.73906 0.0
C762 C 0.85518 0.67254 0.75862 0.0
C763 C 0.87464 0.69765 0.76171 0.0
C764 C 0.84687 0.65773 0.77438 0.0
C765 C 0.85787 0.66791 0.79328 0.0
C766 C 0.88565 0.7079 0.78034 0.0
C767 C 0.87736 0.69322 0.79603 0.0
C768 C 0.82373 0.69567 0.67205 0.0
C769 C 0.87011 0.67277 0.66437 0.0
C770 C 0.82298 0.65554 0.6194 0.0
C771 C 0.81378 0.64423 0.59939 0.0
C772 C 0.79461 0.61906 0.59574 0.0
C773 C 0.82497 0.65863 0.58371 0.0
C774 C 0.81717 0.64799 0.56435 0.0
C775 C 0.78674 0.60837 0.57662 0.0
C776 C 0.79792 0.62266 0.56102 0.0
C777 C 0.83999 0.62109 0.68683 0.0
H778 H 0.88128 0.70931 0.74977 0.0
H779 H 0.83202 0.63824 0.77185 0.0
H780 H 0.9006 0.72734 0.78265 0.0
H781 H 0.88596 0.70183 0.81037 0.0
H782 H 0.78581 0.6077 0.60762 0.0
H783 H 0.84002 0.678 0.5866 0.0
H784 H 0.77189 0.58894 0.57388 0.0
H785 H 0.79122 0.61398 0.54635 0.0
Gd786 Gd 0.3284 0.16769 0.70013 0.0
Gd787 Gd 0.35535 0.16551 0.65227 0.0
C788 C 0.41795 0.14626 0.64791 0.0
C789 C 0.45362 0.18507 0.63863 0.0
C790 C 0.4126 0.18135 0.64309 0.0
C791 C 0.40275 0.15726 0.6481 0.0
C792 C 0.43789 0.19526 0.63761 0.0
C793 C 0.44365 0.16059 0.64381 0.0
C794 C 0.4066 0.12094 0.65104 0.0
C795 C 0.38053 0.10701 0.65334 0.0
N796 N 0.37775 0.14391 0.65162 0.0
C797 C 0.36626 0.11876 0.65328 0.0
H798 H 0.34619 0.10772 0.65522 0.0
C799 C 0.40412 0.21197 0.63347 0.0
N800 N 0.39673 0.19033 0.6419 0.0
C801 C 0.4291 0.22663 0.62799 0.0
C802 C 0.44622 0.21847 0.63042 0.0
H803 H 0.39089 0.21831 0.6316 0.0
H804 H 0.45572 0.1526 0.64388 0.0
H805 H 0.33763 0.22568 0.69932 0.0
H806 H 0.41761 0.11181 0.65108 0.0
H807 H 0.37142 0.08725 0.65527 0.0
H808 H 0.47321 0.19559 0.63475 0.0
H809 H 0.29159 0.1115 0.71625 0.0
H810 H 0.26626 0.22135 0.70556 0.0
H811 H 0.3124 0.24626 0.70127 0.0
H812 H 0.21028 0.13589 0.71784 0.0
H813 H 0.4351 0.24417 0.62189 0.0
H814 H 0.46551 0.22974 0.62604 0.0
H815 H 0.22808 0.17989 0.71128 0.0
H816 H 0.24714 0.08486 0.72505 0.0
N817 N 0.3061 0.18925 0.70218 0.0
C818 C 0.27727 0.21219 0.7048 0.0
C819 C 0.30331 0.22632 0.70243 0.0
C820 C 0.2659 0.18655 0.70681 0.0
C821 C 0.28109 0.17555 0.70564 0.0
C822 C 0.31757 0.21454 0.70133 0.0
N823 N 0.2867 0.14145 0.70926 0.0
C824 C 0.27105 0.15084 0.70929 0.0
C825 C 0.25358 0.10332 0.72054 0.0
C826 C 0.23682 0.11217 0.71955 0.0
C827 C 0.27872 0.11845 0.7156 0.0
C828 C 0.24558 0.13637 0.71423 0.0
H829 H 0.21737 0.10045 0.72345 0.0
O830 O 0.3374 0.15853 0.72752 0.0
O831 O 0.35666 0.16198 0.68398 0.0
O832 O 0.32145 0.12777 0.65856 0.0
O833 O 0.29744 0.1361 0.6808 0.0
O834 O 0.33654 0.13684 0.70407 0.0
O835 O 0.34363 0.19572 0.72498 0.0
O836 O 0.34634 0.17293 0.62406 0.0
O837 O 0.32826 0.1722 0.66877 0.0
O838 O 0.36266 0.20563 0.69507 0.0
O839 O 0.3855 0.20036 0.66962 0.0
O840 O 0.34569 0.19533 0.64713 0.0
O841 O 0.33785 0.13558 0.6289 0.0
C842 C 0.35444 0.14352 0.69202 0.0
C843 C 0.22999 0.1468 0.71433 0.0
C844 C 0.24013 0.17185 0.7106 0.0
C845 C 0.34383 0.18024 0.73655 0.0
C846 C 0.3332 0.17947 0.7557 0.0
C847 C 0.30903 0.17629 0.75764 0.0
C848 C 0.34708 0.18059 0.77223 0.0
C849 C 0.33693 0.17835 0.79073 0.0
C850 C 0.29877 0.17399 0.77597 0.0
C851 C 0.31256 0.17488 0.79245 0.0
C852 C 0.29994 0.1213 0.66729 0.0
C853 C 0.32932 0.18986 0.66036 0.0
C854 C 0.33873 0.1504 0.61622 0.0
C855 C 0.34934 0.14882 0.59745 0.0
C856 C 0.37199 0.14849 0.59652 0.0
C857 C 0.33691 0.14825 0.58022 0.0
C858 C 0.34692 0.14734 0.56202 0.0
C859 C 0.3821 0.14768 0.57855 0.0
C860 C 0.3697 0.14711 0.56138 0.0
C861 C 0.3831 0.21363 0.68458 0.0
H862 H 0.29806 0.17544 0.74506 0.0
H863 H 0.36564 0.18273 0.77063 0.0
H864 H 0.28008 0.17147 0.77741 0.0
H865 H 0.30435 0.17324 0.80654 0.0
H866 H 0.38182 0.14886 0.60963 0.0
H867 H 0.31924 0.14819 0.58103 0.0
H868 H 0.39964 0.14753 0.57792 0.0
H869 H 0.37805 0.1467 0.54763 0.0
Gd870 Gd 0.82296 0.1589 0.65686 0.0
Gd871 Gd 0.85423 0.16217 0.7039 0.0
C872 C 0.93472 0.17636 0.70915 0.0
C873 C 0.92739 0.1362 0.71774 0.0
C874 C 0.89192 0.14253 0.71291 0.0
C875 C 0.90835 0.16673 0.70848 0.0
C876 C 0.90127 0.12715 0.71803 0.0
C877 C 0.94409 0.16077 0.7133 0.0
C878 C 0.95089 0.20161 0.7063 0.0
C879 C 0.9407 0.21677 0.70366 0.0
N880 N 0.89866 0.18137 0.70482 0.0
C881 C 0.91442 0.20637 0.70324 0.0
H882 H 0.90681 0.21828 0.70109 0.0
C883 C 0.85023 0.11193 0.71988 0.0
N884 N 0.86684 0.13448 0.71322 0.0
C885 C 0.85856 0.09594 0.72501 0.0
C886 C 0.88415 0.10344 0.72384 0.0
H887 H 0.83041 0.10599 0.72071 0.0
H888 H 0.96427 0.16775 0.71365 0.0
H889 H 0.77195 0.10188 0.66115 0.0
H890 H 0.97125 0.20972 0.70663 0.0
H891 H 0.95306 0.23645 0.70185 0.0
H892 H 0.93493 0.12459 0.72144 0.0
H893 H 0.84394 0.21403 0.6391 0.0
H894 H 0.70535 0.10659 0.65486 0.0
H895 H 0.72558 0.08191 0.66064 0.0
H896 H 0.73772 0.1905 0.63821 0.0
H897 H 0.84526 0.07784 0.72984 0.0
H898 H 0.89057 0.09106 0.72789 0.0
H899 H 0.71009 0.14733 0.64675 0.0
H900 H 0.82709 0.24034 0.6294 0.0
N901 N 0.77833 0.13791 0.65617 0.0
C902 C 0.7258 0.11551 0.65503 0.0
C903 C 0.73715 0.10151 0.65825 0.0
C904 C 0.74095 0.14066 0.6515 0.0
C905 C 0.76749 0.15139 0.65201 0.0
C906 C 0.76355 0.11297 0.65852 0.0
N907 N 0.8082 0.18469 0.64696 0.0
C908 C 0.78294 0.17559 0.64727 0.0
C909 C 0.81447 0.22221 0.63449 0.0
C910 C 0.78865 0.21363 0.63569 0.0
C911 C 0.82393 0.20726 0.63994 0.0
C912 C 0.77245 0.18988 0.64183 0.0
H913 H 0.78133 0.2252 0.6314 0.0
O914 O 0.83853 0.16602 0.62825 0.0
O915 O 0.85786 0.16558 0.67219 0.0
O916 O 0.86084 0.20027 0.69713 0.0
O917 O 0.82784 0.1926 0.67545 0.0
O918 O 0.86282 0.1887 0.65072 0.0
O919 O 0.80937 0.12847 0.63394 0.0
O920 O 0.8384 0.15578 0.73243 0.0
O921 O 0.81975 0.15637 0.68858 0.0
O922 O 0.81726 0.12111 0.6637 0.0
O923 O 0.85109 0.12976 0.6847 0.0
O924 O 0.8138 0.13321 0.71008 0.0
O925 O 0.87005 0.1923 0.72723 0.0
C926 C 0.87434 0.18325 0.66326 0.0
C927 C 0.74613 0.17973 0.64215 0.0
C928 C 0.73041 0.15516 0.647 0.0
C929 C 0.82321 0.14311 0.62091 0.0
C930 C 0.8106 0.14031 0.60203 0.0
C931 C 0.78593 0.1362 0.60071 0.0
C932 C 0.82359 0.14177 0.58502 0.0
C933 C 0.8119 0.13858 0.56667 0.0
C934 C 0.77428 0.13318 0.58251 0.0
C935 C 0.78708 0.13417 0.56554 0.0
C936 C 0.8466 0.20739 0.68834 0.0
C937 C 0.80277 0.13922 0.69754 0.0
C938 C 0.85545 0.17796 0.74013 0.0
C939 C 0.86775 0.17843 0.75855 0.0
C940 C 0.89087 0.17901 0.75885 0.0
C941 C 0.85551 0.17704 0.77598 0.0
C942 C 0.86608 0.17593 0.79372 0.0
C943 C 0.90146 0.17785 0.77632 0.0
C944 C 0.88915 0.1762 0.79363 0.0
C945 C 0.83254 0.11473 0.67178 0.0
H946 H 0.77564 0.13515 0.61368 0.0
H947 H 0.84259 0.14481 0.58605 0.0
H948 H 0.75522 0.12991 0.58154 0.0
H949 H 0.77768 0.13163 0.55155 0.0
H950 H 0.90068 0.18021 0.74564 0.0
H951 H 0.83783 0.17698 0.77566 0.0
H952 H 0.91919 0.17807 0.77642 0.0
H953 H 0.8976 0.17485 0.8069 0.0
H954 H 0.31459 0.90417 0.03498 0.0
H955 H 0.34471 0.86488 0.06344 0.0
H956 H 0.35709 0.93474 0.02605 0.0
H957 H 0.3873 0.89591 0.05513 0.0
H958 H 0.45902 0.94443 0.02491 0.0
H959 H 0.41533 0.91174 0.02904 0.0
H960 H 0.39532 0.96849 0.04171 0.0
H961 H 0.43879 0.00095 0.03666 0.0
C962 C 0.33031 0.90214 0.03942 0.0
C963 C 0.32632 0.8822 0.05002 0.0
C964 C 0.35468 0.9197 0.03435 0.0
C965 C 0.37565 0.91786 0.03994 0.0
C966 C 0.37157 0.89771 0.05034 0.0
C967 C 0.34717 0.88003 0.05526 0.0
C968 C 0.4451 0.9498 0.02806 0.0
C969 C 0.45199 0.9751 0.02992 0.0
C970 C 0.42015 0.93112 0.03073 0.0
C971 C 0.40176 0.93746 0.0357 0.0
C972 C 0.40882 0.96287 0.03751 0.0
C973 C 0.43371 0.98148 0.03475 0.0
H974 H 0.09041 0.40089 0.07582 0.0
H975 H 0.14319 0.45408 0.03817 0.0
H976 H 0.05806 0.40933 0.06538 0.0
H977 H 0.11026 0.46221 0.02729 0.0
H978 H 0.05273 0.49072 0.03384 0.0
H979 H 0.08648 0.48194 0.04024 0.0
H980 H 0.03093 0.40287 0.03775 0.0
H981 H 0.99733 0.41185 0.03164 0.0
C982 C 0.09509 0.41426 0.06515 0.0
C983 C 0.11947 0.42682 0.05787 0.0
C984 C 0.07639 0.41897 0.05904 0.0
C985 C 0.08146 0.43636 0.0454 0.0
C986 C 0.1058 0.44885 0.03794 0.0
C987 C 0.12461 0.44409 0.04408 0.0
C988 C 0.04788 0.47146 0.03429 0.0
C989 C 0.02253 0.45187 0.03188 0.0
C990 C 0.06719 0.46641 0.03797 0.0
C991 C 0.06144 0.44169 0.03959 0.0
C992 C 0.03603 0.42214 0.03686 0.0
C993 C 0.01679 0.42722 0.03325 0.0
H994 H 0.53525 0.67307 0.09134 0.0
H995 H 0.51684 0.68088 0.03285 0.0
H996 H 0.52605 0.63087 0.0812 0.0
H997 H 0.50786 0.63851 0.02266 0.0
H998 H 0.47177 0.55242 0.01722 0.0
H999 H 0.478 0.59364 0.02745 0.0
H1000 H 0.54607 0.61246 0.06055 0.0
H1001 H 0.54002 0.57143 0.05025 0.0
C1002 C 0.52913 0.66576 0.07632 0.0
C1003 C 0.52693 0.68043 0.06287 0.0
C1004 C 0.524 0.6416 0.0705 0.0
C1005 C 0.51647 0.63145 0.0511 0.0
C1006 C 0.5135 0.64578 0.03774 0.0
C1007 C 0.51873 0.67007 0.04356 0.0
C1008 C 0.48822 0.56543 0.0265 0.0
C1009 C 0.50559 0.5587 0.03268 0.0
C1010 C 0.49175 0.58904 0.03239 0.0
C1011 C 0.51253 0.60631 0.04479 0.0
C1012 C 0.5297 0.59946 0.05116 0.0
C1013 C 0.52627 0.57594 0.04518 0.0
H1014 H 0.83727 0.28012 0.99791 0.0
H1015 H 0.86313 0.28747 0.93921 0.0
H1016 H 0.86524 0.32522 0.00578 0.0
H1017 H 0.89086 0.33239 0.94708 0.0
H1018 H 0.96032 0.40321 0.97789 0.0
H1019 H 0.92993 0.35929 0.96813 0.0
H1020 H 0.87134 0.36639 0.99724 0.0
H1021 H 0.90161 0.41048 0.00677 0.0
C1022 C 0.84877 0.29135 0.98667 0.0
C1023 C 0.84808 0.2802 0.96798 0.0
C1024 C 0.86466 0.31718 0.99114 0.0
C1025 C 0.8803 0.33228 0.97705 0.0
C1026 C 0.87925 0.32117 0.95829 0.0
C1027 C 0.86326 0.29544 0.95378 0.0
C1028 C 0.94094 0.39554 0.98207 0.0
C1029 C 0.93356 0.41028 0.99347 0.0
C1030 C 0.9235 0.37036 0.97643 0.0
C1031 C 0.89832 0.35936 0.9821 0.0
C1032 C 0.89073 0.37426 0.99297 0.0
C1033 C 0.90811 0.39951 0.99845 0.0
H1034 H 0.6823 0.52306 0.98541 0.0
H1035 H 0.67395 0.56527 0.94228 0.0
H1036 H 0.64204 0.5149 0.99883 0.0
H1037 H 0.63396 0.55678 0.95531 0.0
H1038 H 0.57552 0.55888 0.99258 0.0
H1039 H 0.61764 0.568 0.98362 0.0
H1040 H 0.59597 0.49127 0.99 0.0
H1041 H 0.55383 0.48236 0.99925 0.0
C1042 C 0.67192 0.53057 0.97879 0.0
C1043 C 0.68142 0.54487 0.96279 0.0
C1044 C 0.64882 0.52581 0.98642 0.0
C1045 C 0.63485 0.53534 0.97824 0.0
C1046 C 0.64442 0.54957 0.96225 0.0
C1047 C 0.66735 0.55429 0.95466 0.0
C1048 C 0.57992 0.54409 0.99228 0.0
C1049 C 0.56162 0.52006 0.99685 0.0
C1050 C 0.60397 0.54923 0.98706 0.0
C1051 C 0.61015 0.53032 0.98591 0.0
C1052 C 0.59194 0.50633 0.99091 0.0
C1053 C 0.56782 0.5012 0.99619 0.0
H1054 H 0.45205 0.14516 0.9967 0.0
H1055 H 0.50506 0.16278 0.95095 0.0
H1056 H 0.46131 0.11361 0.00621 0.0
H1057 H 0.51424 0.13117 0.96048 0.0
H1058 H 0.49979 0.05207 0.97003 0.0
H1059 H 0.49121 0.08407 0.96048 0.0
H1060 H 0.49815 0.11225 0.02078 0.0
H1061 H 0.50627 0.08003 0.03027 0.0
C1062 C 0.46567 0.1423 0.98867 0.0
C1063 C 0.47782 0.15649 0.97307 0.0
C1064 C 0.47107 0.12433 0.99419 0.0
C1065 C 0.48852 0.11995 0.9841 0.0
C1066 C 0.50056 0.13401 0.96843 0.0
C1067 C 0.49538 0.15219 0.96304 0.0
C1068 C 0.49949 0.06511 0.98125 0.0
C1069 C 0.50402 0.0637 1.00094 0.0
C1070 C 0.49475 0.08353 0.97576 0.0
C1071 C 0.49407 0.10071 0.98988 0.0
C1072 C 0.49847 0.09921 0.00957 0.0
C1073 C 0.50349 0.08097 0.01502 0.0
H1074 H 0.70288 0.11402 0.95877 0.0
H1075 H 0.68654 0.1658 0.99124 0.0
H1076 H 0.66276 0.07909 0.96731 0.0
H1077 H 0.64749 0.13092 1.0017 0.0
H1078 H 0.56644 0.06643 1.00005 0.0
H1079 H 0.60719 0.10157 0.99308 0.0
H1080 H 0.63834 0.05275 0.98876 0.0
H1081 H 0.59666 0.01732 0.99396 0.0
C1082 C 0.69078 0.11778 0.96812 0.0
C1083 C 0.69755 0.14246 0.97425 0.0
C1084 C 0.66781 0.09773 0.97326 0.0
C1085 C 0.65147 0.10184 0.9853 0.0
C1086 C 0.65893 0.12676 0.99196 0.0
C1087 C 0.68147 0.14684 0.98616 0.0
C1088 C 0.58212 0.06337 0.99772 0.0
C1089 C 0.57863 0.03932 0.99781 0.0
C1090 C 0.60568 0.0836 0.99384 0.0
C1091 C 0.6265 0.08036 0.9903 0.0
C1092 C 0.62287 0.05616 0.99084 0.0
C1093 C 0.59905 0.0358 0.99407 0.0
H1094 H 0.87468 0.56415 0.99155 0.0
H1095 H 0.84072 0.49484 0.95427 0.0
H1096 H 0.90783 0.55662 1.00235 0.0
H1097 H 0.87417 0.4876 0.96471 0.0
H1098 H 0.97916 0.54993 0.9971 0.0
H1099 H 0.94435 0.55655 0.98933 0.0
H1100 H 0.89106 0.4776 0.99197 0.0
H1101 H 0.92608 0.47103 0.99912 0.0
C1102 C 0.87429 0.54732 0.98563 0.0
C1103 C 0.85507 0.53016 0.97197 0.0
C1104 C 0.89338 0.54305 0.99176 0.0
C1105 C 0.89376 0.52154 0.98437 0.0
C1106 C 0.87432 0.5042 0.97092 0.0
C1107 C 0.85521 0.50845 0.96481 0.0
C1108 C 0.95995 0.53408 0.99619 0.0
C1109 C 0.95525 0.51009 0.99913 0.0
C1110 C 0.93998 0.53786 0.99186 0.0
C1111 C 0.91483 0.51763 0.99008 0.0
C1112 C 0.91018 0.49358 0.99305 0.0
C1113 C 0.9302 0.48983 0.9974 0.0
H1114 H 0.44951 0.28697 0.98341 0.0
H1115 H 0.51716 0.3274 0.95147 0.0
H1116 H 0.45158 0.32631 0.99412 0.0
H1117 H 0.51909 0.36673 0.96217 0.0
H1118 H 0.49476 0.42631 0.96708 0.0
H1119 H 0.49223 0.38652 0.95638 0.0
H1120 H 0.48041 0.36606 0.01545 0.0
H1121 H 0.48254 0.40547 0.02592 0.0
C1122 C 0.4649 0.30426 0.97877 0.0
C1123 C 0.48318 0.30407 0.96661 0.0
C1124 C 0.46609 0.32677 0.98493 0.0
C1125 C 0.4854 0.34952 0.97887 0.0
C1126 C 0.50383 0.3494 0.96687 0.0
C1127 C 0.50284 0.32692 0.9609 0.0
C1128 C 0.49145 0.41315 0.97767 0.0
C1129 C 0.48928 0.41903 0.99737 0.0
C1130 C 0.49023 0.39056 0.97162 0.0
C1131 C 0.48636 0.37333 0.98513 0.0
C1132 C 0.48344 0.37899 1.00473 0.0
C1133 C 0.48498 0.40166 0.01078 0.0
H1134 H 0.15588 0.6755 0.0595 0.0
H1135 H 0.11773 0.65786 0.11366 0.0
H1136 H 0.12542 0.63375 0.0448 0.0
H1137 H 0.08749 0.6158 0.09899 0.0
H1138 H 0.02045 0.55788 0.05809 0.0
H1139 H 0.05281 0.59774 0.07435 0.0
H1140 H 0.11086 0.58937 0.04549 0.0
H1141 H 0.07843 0.54945 0.02903 0.0
C1142 C 0.14115 0.66263 0.06835 0.0
C1143 C 0.1391 0.67009 0.08772 0.0
C1144 C 0.12379 0.63862 0.05994 0.0
C1145 C 0.10396 0.62151 0.07069 0.0
C1146 C 0.10234 0.62871 0.09024 0.0
C1147 C 0.11975 0.65275 0.09867 0.0
C1148 C 0.0401 0.56445 0.0552 0.0
C1149 C 0.0468 0.55058 0.04206 0.0
C1150 C 0.05868 0.58726 0.06466 0.0
C1151 C 0.08441 0.59671 0.06124 0.0
C1152 C 0.09117 0.58273 0.04825 0.0
C1153 C 0.07256 0.55987 0.0388 0.0
H1154 H 0.30684 0.40172 0.06637 0.0
H1155 H 0.31955 0.4657 0.03749 0.0
H1156 H 0.34925 0.41064 0.05929 0.0
H1157 H 0.36122 0.47355 0.02866 0.0
H1158 H 0.44442 0.49735 0.03193 0.0
H1159 H 0.40196 0.48862 0.03844 0.0
H1160 H 0.37645 0.40968 0.0379 0.0
H1161 H 0.41958 0.41914 0.0329 0.0
C1162 C 0.31867 0.41752 0.05821 0.0
C1163 C 0.31 0.43311 0.0526 0.0
C1164 C 0.34302 0.42256 0.0539 0.0
C1165 C 0.3591 0.44288 0.04326 0.0
C1166 C 0.34997 0.45813 0.0373 0.0
C1167 C 0.32592 0.45355 0.04221 0.0
C1168 C 0.42962 0.47813 0.03302 0.0
C1169 C 0.43512 0.45882 0.03151 0.0
C1170 C 0.40508 0.47301 0.0367 0.0
C1171 C 0.38528 0.44833 0.03875 0.0
C1172 C 0.391 0.42902 0.03696 0.0
C1173 C 0.4157 0.43431 0.03382 0.0
H1174 H 0.53076 0.83339 0.03364 0.0
H1175 H 0.51472 0.85286 0.09122 0.0
H1176 H 0.53065 0.86946 0.02194 0.0
H1177 H 0.5153 0.88924 0.07957 0.0
H1178 H 0.5497 0.96663 0.05258 0.0
H1179 H 0.55102 0.93116 0.06397 0.0
H1180 H 0.49362 0.88122 0.02009 0.0
H1181 H 0.49123 0.91625 0.00926 0.0
C1182 C 0.52739 0.84546 0.04381 0.0
C1183 C 0.52268 0.8403 0.06333 0.0
C1184 C 0.52726 0.86599 0.0371 0.0
C1185 C 0.52303 0.88205 0.0499 0.0
C1186 C 0.51876 0.87717 0.06947 0.0
C1187 C 0.5183 0.85632 0.07608 0.0
C1188 C 0.53735 0.94814 0.04531 0.0
C1189 C 0.52062 0.94444 0.02975 0.0
C1190 C 0.53812 0.92786 0.05187 0.0
C1191 C 0.52256 0.90359 0.04279 0.0
C1192 C 0.50605 0.89985 0.02715 0.0
C1193 C 0.50484 0.91999 0.02088 0.0
H1194 H 0.00644 0.17199 0.39604 0.0
H1195 H 0.9694 0.20472 0.36724 0.0
H1196 H 0.04739 0.20519 0.38667 0.0
H1197 H 0.01037 0.23765 0.35749 0.0
H1198 H 0.09009 0.30876 0.3676 0.0
H1199 H 0.04794 0.27396 0.37323 0.0
H1200 H 0.07349 0.22178 0.359 0.0
H1201 H 0.11577 0.25672 0.35402 0.0
C1202 C 0.00701 0.18616 0.38758 0.0
C1203 C 0.98465 0.1858 0.38251 0.0
C1204 C 0.03049 0.2051 0.38207 0.0
C1205 C 0.03218 0.2241 0.37133 0.0
C1206 C 0.00976 0.22348 0.36597 0.0
C1207 C 0.98627 0.20456 0.37151 0.0
C1208 C 0.0865 0.28979 0.36546 0.0
C1209 C 0.10595 0.28535 0.35998 0.0
C1210 C 0.06237 0.26986 0.36857 0.0
C1211 C 0.05731 0.24506 0.36653 0.0
C1212 C 0.07681 0.24065 0.36086 0.0
C1213 C 0.10094 0.26063 0.35775 0.0
H1214 H 0.83154 0.8359 0.4022 0.0
H1215 H 0.79315 0.76018 0.37459 0.0
H1216 H 0.79685 0.84097 0.39123 0.0
H1217 H 0.7585 0.76541 0.36347 0.0
H1218 H 0.68829 0.77426 0.37323 0.0
H1219 H 0.72463 0.76951 0.38001 0.0
H1220 H 0.77495 0.84333 0.36209 0.0
H1221 H 0.73857 0.84809 0.35558 0.0
C1222 C 0.81586 0.82043 0.39358 0.0
C1223 C 0.81508 0.79757 0.38941 0.0
C1224 C 0.79602 0.8234 0.3872 0.0
C1225 C 0.77482 0.80353 0.3766 0.0
C1226 C 0.77441 0.78095 0.37185 0.0
C1227 C 0.79435 0.77802 0.37812 0.0
C1228 C 0.70713 0.78934 0.37062 0.0
C1229 C 0.71061 0.81129 0.3635 0.0
C1230 C 0.72792 0.78658 0.37436 0.0
C1231 C 0.75269 0.80597 0.37146 0.0
C1232 C 0.75614 0.82808 0.36453 0.0
C1233 C 0.73531 0.83074 0.36065 0.0
H1234 H 0.1706 0.00561 0.37811 0.0
H1235 H 0.24798 0.02994 0.36426 0.0
H1236 H 0.15908 0.96206 0.37021 0.0
H1237 H 0.23637 0.98657 0.3561 0.0
H1238 H 0.21472 0.90785 0.36981 0.0
H1239 H 0.22457 0.95098 0.37493 0.0
H1240 H 0.15471 0.93079 0.34387 0.0
H1241 H 0.14442 0.88732 0.33919 0.0
C1242 C 0.18506 0.00171 0.37309 0.0
C1243 C 0.21026 0.02124 0.37199 0.0
C1244 C 0.17844 0.97675 0.36852 0.0
C1245 C 0.19689 0.97085 0.36277 0.0
C1246 C 0.22183 0.99047 0.36088 0.0
C1247 C 0.22843 0.01535 0.36543 0.0
C1248 C 0.2014 0.91252 0.36407 0.0
C1249 C 0.1789 0.89412 0.3539 0.0
C1250 C 0.20717 0.93733 0.36687 0.0
C1251 C 0.19055 0.94438 0.35962 0.0
C1252 C 0.16787 0.92595 0.34967 0.0
C1253 C 0.1621 0.90108 0.34685 0.0
H1254 H 0.48291 0.66122 0.30365 0.0
H1255 H 0.52337 0.62785 0.32608 0.0
H1256 H 0.51933 0.70285 0.31276 0.0
H1257 H 0.55975 0.66953 0.33519 0.0
H1258 H 0.62862 0.74587 0.32139 0.0
H1259 H 0.59115 0.70405 0.3158 0.0
H1260 H 0.54514 0.73171 0.34188 0.0
H1261 H 0.58243 0.77354 0.34727 0.0
C1262 C 0.49942 0.66276 0.31076 0.0
C1263 C 0.50029 0.64123 0.31404 0.0
C1264 C 0.52025 0.6866 0.31603 0.0
C1265 C 0.54244 0.68939 0.32451 0.0
C1266 C 0.543 0.6679 0.32842 0.0
C1267 C 0.52208 0.64405 0.32334 0.0
C1268 C 0.61053 0.74303 0.32594 0.0
C1269 C 0.60854 0.763 0.33484 0.0
C1270 C 0.58912 0.71905 0.32289 0.0
C1271 C 0.56527 0.71462 0.3285 0.0
C1272 C 0.56327 0.7346 0.33734 0.0
C1273 C 0.58468 0.75851 0.34053 0.0
H1274 H 0.32664 0.82649 0.28779 0.0
H1275 H 0.36446 0.90188 0.316 0.0
H1276 H 0.2862 0.81989 0.29886 0.0
H1277 H 0.32389 0.89511 0.32731 0.0
H1278 H 0.24334 0.88366 0.31763 0.0
H1279 H 0.28546 0.89026 0.31155 0.0
H1280 H 0.26101 0.81586 0.32741 0.0
H1281 H 0.21882 0.80921 0.33306 0.0
C1282 C 0.3264 0.84157 0.29657 0.0
C1283 C 0.34883 0.86479 0.30086 0.0
C1284 C 0.30318 0.83772 0.30303 0.0
C1285 C 0.30175 0.85702 0.31389 0.0
C1286 C 0.32429 0.87997 0.31875 0.0
C1287 C 0.34757 0.88379 0.31235 0.0
C1288 C 0.24714 0.86888 0.32002 0.0
C1289 C 0.22802 0.84616 0.32621 0.0
C1290 C 0.27128 0.87268 0.31667 0.0
C1291 C 0.27668 0.85363 0.31907 0.0
C1292 C 0.25747 0.83087 0.32532 0.0
C1293 C 0.23336 0.82714 0.32877 0.0
H1294 H 0.09032 0.44411 0.31718 0.0
H1295 H 0.16639 0.48924 0.29805 0.0
H1296 H 0.10034 0.41286 0.32601 0.0
H1297 H 0.17634 0.45788 0.30688 0.0
H1298 H 0.19058 0.40768 0.3447 0.0
H1299 H 0.18113 0.43972 0.33687 0.0
H1300 H 0.11021 0.3824 0.30828 0.0
H1301 H 0.11942 0.35038 0.31621 0.0
C1302 C 0.10919 0.44738 0.31488 0.0
C1303 C 0.12754 0.46913 0.30686 0.0
C1304 C 0.11488 0.42943 0.31986 0.0
C1305 C 0.13911 0.43292 0.3171 0.0
C1306 C 0.15757 0.4548 0.30932 0.0
C1307 C 0.15182 0.47266 0.30416 0.0
C1308 C 0.1729 0.4019 0.33685 0.0
C1309 C 0.15568 0.37644 0.33119 0.0
C1310 C 0.16759 0.42027 0.33224 0.0
C1311 C 0.1449 0.41355 0.32201 0.0
C1312 C 0.12771 0.38812 0.31638 0.0
C1313 C 0.13309 0.36979 0.32083 0.0
H1314 H 0.36971 0.43644 0.32816 0.0
H1315 H 0.3358 0.47154 0.29851 0.0
H1316 H 0.32765 0.40223 0.33458 0.0
H1317 H 0.29381 0.43704 0.30445 0.0
H1318 H 0.22219 0.38267 0.33291 0.0
H1319 H 0.26469 0.41809 0.3297 0.0
H1320 H 0.29175 0.36689 0.31661 0.0
H1321 H 0.24924 0.33153 0.32057 0.0
C1322 C 0.35329 0.43684 0.32298 0.0
C1323 C 0.35611 0.45667 0.31276 0.0
C1324 C 0.32918 0.41716 0.32657 0.0
C1325 C 0.30735 0.41682 0.31995 0.0
C1326 C 0.31021 0.43685 0.30997 0.0
C1327 C 0.3343 0.45656 0.30645 0.0
C1328 C 0.23734 0.37905 0.32975 0.0
C1329 C 0.2327 0.35447 0.3276 0.0
C1330 C 0.26163 0.39932 0.32762 0.0
C1331 C 0.28169 0.39536 0.32296 0.0
C1332 C 0.27687 0.37065 0.32059 0.0
C1333 C 0.25256 0.3504 0.32273 0.0
H1334 H 0.51634 0.84137 0.29034 0.0
H1335 H 0.55865 0.9163 0.31921 0.0
H1336 H 0.55086 0.8345 0.29837 0.0
H1337 H 0.59307 0.90927 0.32744 0.0
H1338 H 0.66057 0.89698 0.31586 0.0
H1339 H 0.62542 0.90396 0.31013 0.0
H1340 H 0.57269 0.82968 0.32609 0.0
H1341 H 0.60781 0.82268 0.33141 0.0
C1342 C 0.53294 0.85634 0.29849 0.0
C1343 C 0.53474 0.87943 0.30404 0.0
C1344 C 0.55268 0.85233 0.30321 0.0
C1345 C 0.57477 0.87135 0.31352 0.0
C1346 C 0.57645 0.89434 0.31927 0.0
C1347 C 0.55666 0.89832 0.31463 0.0
C1348 C 0.64145 0.88229 0.31831 0.0
C1349 C 0.63697 0.85958 0.32461 0.0
C1350 C 0.62134 0.88629 0.31512 0.0
C1351 C 0.59623 0.86743 0.31775 0.0
C1352 C 0.59177 0.84456 0.32384 0.0
C1353 C 0.61192 0.84064 0.32714 0.0
H1354 H 0.17335 0.6457 0.30586 0.0
H1355 H 0.09367 0.61374 0.31588 0.0
H1356 H 0.18077 0.68726 0.31642 0.0
H1357 H 0.10119 0.65521 0.32682 0.0
H1358 H 0.11862 0.73459 0.31809 0.0
H1359 H 0.1116 0.69258 0.31109 0.0
H1360 H 0.18089 0.7144 0.34379 0.0
H1361 H 0.18842 0.75669 0.35021 0.0
C1362 C 0.15749 0.64747 0.31064 0.0
C1363 C 0.13288 0.62644 0.30986 0.0
C1364 C 0.16176 0.6713 0.31676 0.0
C1365 C 0.14151 0.67458 0.32225 0.0
C1366 C 0.11711 0.65338 0.3223 0.0
C1367 C 0.11283 0.62958 0.31616 0.0
C1368 C 0.13236 0.73046 0.32381 0.0
C1369 C 0.15398 0.74899 0.33484 0.0
C1370 C 0.12822 0.70629 0.31995 0.0
C1371 C 0.1456 0.70008 0.327 0.0
C1372 C 0.16721 0.71861 0.33805 0.0
C1373 C 0.17139 0.7428 0.34188 0.0
H1374 H 0.8301 0.03973 0.35712 0.0
H1375 H 0.8567 0.0068 0.39677 0.0
H1376 H 0.7937 -0.00174 0.34712 0.0
H1377 H 0.82027 0.96552 0.38683 0.0
H1378 H 0.73457 0.9057 0.3842 0.0
H1379 H 0.77277 0.94669 0.3918 0.0
H1380 H 0.78294 0.95537 0.33041 0.0
H1381 H 0.74459 0.91453 0.3229 0.0
C1382 C 0.82837 0.02364 0.3635 0.0
C1383 C 0.84621 0.02658 0.37781 0.0
C1384 C 0.80757 -7e-05 0.35775 0.0
C1385 C 0.80408 0.97879 0.36638 0.0
C1386 C 0.82236 0.98159 0.38015 0.0
C1387 C 0.84331 0.00521 0.38572 0.0
C1388 C 0.74494 0.91644 0.37236 0.0
C1389 C 0.73688 0.90684 0.35294 0.0
C1390 C 0.76688 0.93974 0.37669 0.0
C1391 C 0.78091 0.95404 0.36167 0.0
C1392 C 0.77251 0.94468 0.34225 0.0
C1393 C 0.75075 0.9212 0.33794 0.0
H1394 H 0.00152 0.81371 0.39937 0.0
H1395 H 0.9661 0.73818 0.37167 0.0
H1396 H 0.04292 0.82084 0.39021 0.0
H1397 H 0.0075 0.74545 0.36228 0.0
H1398 H 0.08818 0.75856 0.37228 0.0
H1399 H 0.04591 0.75139 0.3785 0.0
H1400 H 0.06903 0.82527 0.36208 0.0
H1401 H 0.11146 0.8325 0.35628 0.0
C1402 C 0.00253 0.79865 0.39124 0.0
C1403 C 0.98046 0.77531 0.38637 0.0
C1404 C 0.02628 0.80282 0.38585 0.0
C1405 C 0.02858 0.78372 0.37552 0.0
C1406 C 0.00646 0.76047 0.37044 0.0
C1407 C 0.9827 0.75634 0.37577 0.0
C1408 C 0.08407 0.77312 0.36982 0.0
C1409 C 0.10288 0.79585 0.36341 0.0
C1410 C 0.05985 0.769 0.37328 0.0
C1411 C 0.054 0.78772 0.37074 0.0
C1412 C 0.07292 0.81052 0.36432 0.0
C1413 C 0.09715 0.81458 0.36077 0.0
H1414 H 0.17434 0.17248 0.42173 0.0
H1415 H 0.19299 0.15256 0.36532 0.0
H1416 H 0.174 0.20777 0.40886 0.0
H1417 H 0.19203 0.1876 0.35239 0.0
H1418 H 0.15143 0.23242 0.33674 0.0
H1419 H 0.15498 0.19834 0.34832 0.0
H1420 H 0.20889 0.24949 0.39375 0.0
H1421 H 0.20631 0.28396 0.38178 0.0
C1422 C 0.17829 0.1756 0.40658 0.0
C1423 C 0.18368 0.15978 0.39452 0.0
C1424 C 0.17822 0.19585 0.39927 0.0
C1425 C 0.18303 0.20034 0.37967 0.0
C1426 C 0.18822 0.18444 0.36755 0.0
C1427 C 0.18883 0.16449 0.37496 0.0
C1428 C 0.16451 0.23664 0.34889 0.0
C1429 C 0.17882 0.2611 0.35812 0.0
C1430 C 0.16642 0.21704 0.35557 0.0
C1431 C 0.1822 0.22136 0.3719 0.0
C1432 C 0.19653 0.24572 0.38115 0.0
C1433 C 0.19504 0.26543 0.37424 0.0
H1434 H 0.66933 0.50714 0.72866 0.0
H1435 H 0.63212 0.53885 0.6987 0.0
H1436 H 0.7104 0.54139 0.72052 0.0
H1437 H 0.67326 0.57291 0.69025 0.0
H1438 H 0.75192 0.64526 0.70258 0.0
H1439 H 0.70984 0.6096 0.7072 0.0
H1440 H 0.73759 0.55912 0.69347 0.0
H1441 H 0.77969 0.59485 0.68943 0.0
C1442 C 0.66989 0.52131 0.72021 0.0
C1443 C 0.64742 0.52031 0.71443 0.0
C1444 C 0.69346 0.54087 0.71541 0.0
C1445 C 0.69514 0.55993 0.70474 0.0
C1446 C 0.67264 0.55871 0.69869 0.0
C1447 C 0.64906 0.53912 0.70347 0.0
C1448 C 0.74884 0.62648 0.70033 0.0
C1449 C 0.76884 0.62275 0.69518 0.0
C1450 C 0.72476 0.60606 0.70287 0.0
C1451 C 0.7203 0.58147 0.70066 0.0
C1452 C 0.7404 0.5778 0.69544 0.0
C1453 C 0.76446 0.59825 0.69285 0.0
H1454 H 0.49263 0.13505 0.70405 0.0
H1455 H 0.44404 0.09743 0.75036 0.0
H1456 H 0.46013 0.14259 0.69113 0.0
H1457 H 0.41218 0.10528 0.73778 0.0
H1458 H 0.34919 0.10008 0.70148 0.0
H1459 H 0.38243 0.09166 0.71019 0.0
H1460 H 0.43928 0.1673 0.6999 0.0
H1461 H 0.40576 0.17553 0.69092 0.0
C1462 C 0.47509 0.12842 0.71147 0.0
C1463 C 0.47093 0.11557 0.72821 0.0
C1464 C 0.45655 0.13283 0.70412 0.0
C1465 C 0.43348 0.12437 0.71334 0.0
C1466 C 0.42949 0.11163 0.73008 0.0
C1467 C 0.44791 0.10727 0.73739 0.0
C1468 C 0.36881 0.11478 0.70088 0.0
C1469 C 0.37496 0.13829 0.69529 0.0
C1470 C 0.38785 0.11004 0.70595 0.0
C1471 C 0.41353 0.12887 0.7059 0.0
C1472 C 0.41971 0.15232 0.69992 0.0
C1473 C 0.40057 0.15706 0.6948 0.0
H1474 H 0.85156 0.34942 0.71502 0.0
H1475 H 0.92758 0.36932 0.70024 0.0
H1476 H 0.83776 0.30512 0.70832 0.0
H1477 H 0.9137 0.3252 0.69319 0.0
H1478 H 0.88915 0.24634 0.70732 0.0
H1479 H 0.90088 0.29003 0.71236 0.0
H1480 H 0.83078 0.27222 0.68295 0.0
H1481 H 0.81856 0.22819 0.67849 0.0
C1482 C 0.86523 0.34437 0.71006 0.0
C1483 C 0.89072 0.3629 0.70834 0.0
C1484 C 0.85731 0.31898 0.70617 0.0
C1485 C 0.87471 0.31162 0.70047 0.0
C1486 C 0.89994 0.33022 0.69797 0.0
C1487 C 0.90786 0.35554 0.70188 0.0
C1488 C 0.87614 0.25164 0.70198 0.0
C1489 C 0.85307 0.23376 0.69223 0.0
C1490 C 0.88299 0.27678 0.70472 0.0
C1491 C 0.86695 0.2847 0.6978 0.0
C1492 C 0.84357 0.26674 0.68846 0.0
C1493 C 0.83669 0.24154 0.68574 0.0
H1494 H 0.15184 0.98841 0.63705 0.0
H1495 H 0.20163 0.96014 0.64749 0.0
H1496 H 0.18683 0.03109 0.64519 0.0
H1497 H 0.2364 0.00269 0.65614 0.0
H1498 H 0.29907 0.08157 0.64646 0.0
H1499 H 0.26316 0.03922 0.63966 0.0
H1500 H 0.21512 0.06069 0.67087 0.0
H1501 H 0.25075 0.10333 0.67686 0.0
C1502 C 0.17014 -0.00873 0.6414 0.0
C1503 C 0.17399 0.97089 0.64149 0.0
C1504 C 0.19021 0.01575 0.64611 0.0
C1505 C 0.21453 0.02036 0.65111 0.0
C1506 C 0.21807 -0.00014 0.65193 0.0
C1507 C 0.19806 0.97543 0.64713 0.0
C1508 C 0.28084 0.07732 0.6518 0.0
C1509 C 0.27792 0.09578 0.66248 0.0
C1510 C 0.26027 0.05294 0.64807 0.0
C1511 C 0.23629 0.04643 0.65494 0.0
C1512 C 0.23327 0.06504 0.6653 0.0
C1513 C 0.25382 0.08945 0.66893 0.0
H1514 H 0.0153 0.23747 0.60897 0.0
H1515 H 0.02486 0.19904 0.65467 0.0
H1516 H 0.97431 0.22761 0.62071 0.0
H1517 H 0.98355 0.18948 0.66677 0.0
H1518 H 0.8946 0.15301 0.66463 0.0
H1519 H 0.93769 0.16356 0.65681 0.0
H1520 H 0.95625 0.23882 0.64793 0.0
H1521 H 0.91322 0.22805 0.65546 0.0
C1522 C 0.00875 0.22705 0.62164 0.0
C1523 C 0.02344 0.21908 0.63088 0.0
C1524 C 0.98524 0.22153 0.62847 0.0
C1525 C 0.9757 0.20792 0.64478 0.0
C1526 C 0.99032 0.19987 0.65409 0.0
C1527 C 0.01401 0.20545 0.64722 0.0
C1528 C 0.90811 0.1719 0.66137 0.0
C1529 C 0.90083 0.18988 0.66093 0.0
C1530 C 0.93276 0.17796 0.65688 0.0
C1531 C 0.95038 0.202 0.65161 0.0
C1532 C 0.94307 0.22004 0.65163 0.0
C1533 C 0.91851 0.21396 0.65604 0.0
H1534 H 0.75629 0.78577 0.65072 0.0
H1535 H 0.83407 0.83071 0.6351 0.0
H1536 H 0.76457 0.75328 0.65942 0.0
H1537 H 0.84228 0.79816 0.6438 0.0
H1538 H 0.85284 0.74621 0.6819 0.0
H1539 H 0.84447 0.77878 0.67367 0.0
H1540 H 0.77495 0.72268 0.64261 0.0
H1541 H 0.78312 0.69003 0.65094 0.0
C1542 C 0.77515 0.78872 0.64913 0.0
C1543 C 0.79451 0.81084 0.6422 0.0
C1544 C 0.77985 0.77005 0.65403 0.0
C1545 C 0.80408 0.77316 0.6523 0.0
C1546 C 0.82348 0.79533 0.64547 0.0
C1547 C 0.81872 0.8139 0.64038 0.0
C1548 C 0.83567 0.74076 0.67343 0.0
C1549 C 0.81857 0.71546 0.66718 0.0
C1550 C 0.831 0.75947 0.66858 0.0
C1551 C 0.80905 0.7533 0.6575 0.0
C1552 C 0.7919 0.728 0.65133 0.0
C1553 C 0.79667 0.70931 0.65603 0.0
H1554 H 0.99072 0.81061 0.62686 0.0
H1555 H 0.03116 0.78112 0.65542 0.0
H1556 H 0.95068 0.77578 0.63597 0.0
H1557 H 0.99105 0.74649 0.66489 0.0
H1558 H 0.91298 0.67296 0.6551 0.0
H1559 H 0.95423 0.70902 0.6492 0.0
H1560 H 0.92529 0.75833 0.66377 0.0
H1561 H 0.88398 0.7222 0.66902 0.0
C1562 C 0.99109 0.79679 0.63519 0.0
C1563 C 0.01415 0.79859 0.64032 0.0
C1564 C 0.96812 0.7769 0.64055 0.0
C1565 C 0.96764 0.75834 0.65118 0.0
C1566 C 0.99073 0.76031 0.6565 0.0
C1567 C 0.01373 0.78021 0.65114 0.0
C1568 C 0.91563 0.69158 0.65724 0.0
C1569 C 0.89552 0.69487 0.66292 0.0
C1570 C 0.93924 0.71223 0.65397 0.0
C1571 C 0.94309 0.73659 0.65603 0.0
C1572 C 0.92291 0.73982 0.66187 0.0
C1573 C 0.89932 0.71915 0.66514 0.0
H1574 H 0.18478 0.18582 0.65668 0.0
H1575 H 0.23509 0.24834 0.62507 0.0
H1576 H 0.21951 0.17934 0.66473 0.0
H1577 H 0.26933 0.24066 0.63131 0.0
H1578 H 0.33331 0.23443 0.65568 0.0
H1579 H 0.29923 0.24308 0.65157 0.0
H1580 H 0.24431 0.16427 0.65404 0.0
H1581 H 0.27854 0.15646 0.65968 0.0
C1582 C 0.20329 0.19796 0.65125 0.0
C1583 C 0.20732 0.21758 0.64029 0.0
C1584 C 0.22325 0.19415 0.65567 0.0
C1585 C 0.24754 0.2093 0.64861 0.0
C1586 C 0.2513 0.22887 0.63751 0.0
C1587 C 0.23157 0.2332 0.63371 0.0
C1588 C 0.31386 0.21914 0.65559 0.0
C1589 C 0.3085 0.19498 0.65858 0.0
C1590 C 0.2942 0.22394 0.65298 0.0
C1591 C 0.26863 0.20443 0.65239 0.0
C1592 C 0.2635 0.18006 0.65493 0.0
C1593 C 0.28318 0.17545 0.65811 0.0
H1594 H 0.84903 0.98698 0.63501 0.0
H1595 H 0.76906 0.95446 0.64399 0.0
H1596 H 0.856 0.02838 0.64553 0.0
H1597 H 0.77612 -0.00427 0.65502 0.0
H1598 H 0.7928 0.07539 0.65017 0.0
H1599 H 0.78628 0.03383 0.64133 0.0
H1600 H 0.85615 0.05484 0.6728 0.0
H1601 H 0.86325 0.09669 0.68088 0.0
C1602 C 0.83299 0.9886 0.63951 0.0
C1603 C 0.80847 0.96742 0.63855 0.0
C1604 C 0.837 0.01236 0.64561 0.0
C1605 C 0.81659 0.01546 0.65098 0.0
C1606 C 0.7922 -0.00588 0.65061 0.0
C1607 C 0.78818 0.97041 0.64443 0.0
C1608 C 0.8068 0.07118 0.65519 0.0
C1609 C 0.82842 0.08936 0.66643 0.0
C1610 C 0.80294 0.04724 0.65026 0.0
C1611 C 0.82059 0.04087 0.65647 0.0
C1612 C 0.84225 0.05911 0.66764 0.0
C1613 C 0.84617 0.08307 0.67248 0.0
H1614 H 0.52107 0.34257 0.73697 0.0
H1615 H 0.49242 0.37333 0.69698 0.0
H1616 H 0.48574 0.30054 0.72695 0.0
H1617 H 0.45717 0.33126 0.68696 0.0
H1618 H 0.41281 0.24911 0.66062 0.0
H1619 H 0.44941 0.2906 0.66969 0.0
H1620 H 0.43799 0.27757 0.73038 0.0
H1621 H 0.40153 0.2357 0.72114 0.0
C1622 C 0.5074 0.34036 0.72591 0.0
C1623 C 0.50954 0.36131 0.71778 0.0
C1624 C 0.48706 0.31631 0.7203 0.0
C1625 C 0.46864 0.31266 0.70627 0.0
C1626 C 0.47117 0.33351 0.69774 0.0
C1627 C 0.49132 0.35759 0.70351 0.0
C1628 C 0.41841 0.2549 0.67583 0.0
C1629 C 0.40469 0.23903 0.69013 0.0
C1630 C 0.43913 0.2788 0.68106 0.0
C1631 C 0.44666 0.28725 0.70073 0.0
C1632 C 0.43281 0.27141 0.71508 0.0
C1633 C 0.41187 0.24758 0.70982 0.0
H1634 H 0.67709 0.15483 0.73703 0.0
H1635 H 0.64063 0.08024 0.7074 0.0
H1636 H 0.71836 0.16097 0.72874 0.0
H1637 H 0.68197 0.08657 0.69884 0.0
H1638 H 0.76167 0.09725 0.70827 0.0
H1639 H 0.71974 0.09084 0.71507 0.0
H1640 H 0.74466 0.16603 0.70092 0.0
H1641 H 0.78659 0.17248 0.69463 0.0
C1642 C 0.67786 0.13977 0.72867 0.0
C1643 C 0.65553 0.117 0.72295 0.0
C1644 C 0.70154 0.14336 0.7238 0.0
C1645 C 0.7035 0.12425 0.71313 0.0
C1646 C 0.68115 0.10154 0.70729 0.0
C1647 C 0.65745 0.09797 0.71212 0.0
C1648 C 0.75803 0.11229 0.70651 0.0
C1649 C 0.77713 0.13512 0.70046 0.0
C1650 C 0.73402 0.10861 0.71029 0.0
C1651 C 0.72878 0.12788 0.70846 0.0
C1652 C 0.74809 0.15085 0.70262 0.0
C1653 C 0.77204 0.15446 0.69877 0.0
H1654 H 0.89797 0.52467 0.71471 0.0
H1655 H 0.8206 0.48726 0.73243 0.0
H1656 H 0.89274 0.55792 0.70318 0.0
H1657 H 0.81541 0.52047 0.72081 0.0
H1658 H 0.80887 0.57058 0.67834 0.0
H1659 H 0.81466 0.53716 0.6886 0.0
H1660 H 0.88564 0.59223 0.71838 0.0
H1661 H 0.87998 0.62574 0.70814 0.0
C1662 C 0.87984 0.52351 0.71611 0.0
C1663 C 0.8597 0.50334 0.7245 0.0
C1664 C 0.8769 0.5426 0.70958 0.0
C1665 C 0.85366 0.54175 0.71108 0.0
C1666 C 0.83346 0.52148 0.71931 0.0
C1667 C 0.83649 0.50255 0.72606 0.0
C1668 C 0.82582 0.57561 0.68695 0.0
C1669 C 0.844 0.60086 0.6924 0.0
C1670 C 0.82902 0.55644 0.69293 0.0
C1671 C 0.85057 0.5621 0.70432 0.0
C1672 C 0.86894 0.58733 0.70949 0.0
C1673 C 0.86562 0.60651 0.7037 0.0
H1674 H 0.45076 0.94169 0.22691 0.0
H1675 H 0.51271 0.92765 0.22889 0.0
H1676 H 0.46698 0.96346 0.19787 0.0
H1677 H 0.52858 0.94887 0.19941 0.0
H1678 H 0.56509 0.01303 0.15983 0.0
H1679 H 0.5487 0.98981 0.18825 0.0
H1680 H 0.47236 0.95728 0.16403 0.0
H1681 H 0.48868 0.98154 0.13608 0.0
C1682 C 0.46775 0.94305 0.22107 0.0
C1683 C 0.48043 0.93292 0.23033 0.0
C1684 C 0.47698 0.95542 0.20429 0.0
C1685 C 0.4991 0.95793 0.1962 0.0
C1686 C 0.51169 0.94762 0.20536 0.0
C1687 C 0.5025 0.93531 0.22222 0.0
C1688 C 0.54478 0.00111 0.16062 0.0
C1689 C 0.52823 -0.00065 0.14566 0.0
C1690 C 0.53539 0.98749 0.17684 0.0
C1691 C 0.50917 0.97166 0.17852 0.0
C1692 C 0.49264 0.96954 0.16339 0.0
C1693 C 0.50203 0.98323 0.1472 0.0
H1694 H 0.05181 0.47824 0.23345 0.0
H1695 H 0.09244 0.5551 0.21922 0.0
H1696 H 0.02241 0.46708 0.20532 0.0
H1697 H 0.06297 0.54393 0.19152 0.0
H1698 H 0.98652 0.52034 0.16101 0.0
H1699 H 0.0145 0.52823 0.18928 0.0
H1700 H 0.02499 0.4676 0.1668 0.0
H1701 H 0.99714 0.45983 0.13836 0.0
C1702 C 0.05459 0.49268 0.22428 0.0
C1703 C 0.07444 0.51756 0.2286 0.0
C1704 C 0.03779 0.48627 0.20822 0.0
C1705 C 0.04032 0.50473 0.19646 0.0
C1706 C 0.06043 0.52943 0.20054 0.0
C1707 C 0.07741 0.53575 0.21633 0.0
C1708 C 0.99453 0.5085 0.16226 0.0
C1709 C 0.98976 0.48952 0.14754 0.0
C1710 C 0.01064 0.51312 0.17832 0.0
C1711 C 0.02195 0.49859 0.1801 0.0
C1712 C 0.01643 0.47899 0.16576 0.0
C1713 C 0.00064 0.47464 0.14951 0.0
H1714 H 0.4792 0.56009 0.23061 0.0
H1715 H 0.44184 0.48069 0.23692 0.0
H1716 H 0.49505 0.55362 0.19976 0.0
H1717 H 0.45786 0.47432 0.20575 0.0
H1718 H 0.4737 0.47509 0.13879 0.0
H1719 H 0.45457 0.47899 0.16908 0.0
H1720 H 0.52721 0.54085 0.19128 0.0
H1721 H 0.54622 0.53709 0.1611 0.0
C1722 C 0.47416 0.54119 0.22537 0.0
C1723 C 0.45938 0.52091 0.23635 0.0
C1724 C 0.48339 0.53755 0.20772 0.0
C1725 C 0.47793 0.51354 0.20051 0.0
C1726 C 0.46232 0.49304 0.21101 0.0
C1727 C 0.45322 0.49671 0.22884 0.0
C1728 C 0.48551 0.4895 0.15017 0.0
C1729 C 0.51143 0.50582 0.14761 0.0
C1730 C 0.47462 0.49161 0.16751 0.0
C1731 C 0.4894 0.5103 0.18244 0.0
C1732 C 0.51533 0.52643 0.17991 0.0
C1733 C 0.52626 0.52414 0.16273 0.0
H1734 H 0.90221 0.46968 0.8126 0.0
H1735 H 0.96603 0.47458 0.78235 0.0
H1736 H 0.92547 0.47841 0.84368 0.0
H1737 H 0.98906 0.48302 0.81338 0.0
H1738 H 0.03051 0.51503 0.8728 0.0
H1739 H 0.00888 0.51319 0.84248 0.0
H1740 H 0.93853 0.45386 0.86192 0.0
H1741 H 0.96009 0.4554 0.89202 0.0
C1742 C 0.92131 0.47296 0.81255 0.0
C1743 C 0.93217 0.47122 0.79499 0.0
C1744 C 0.93456 0.47779 0.83036 0.0
C1745 C 0.959 0.48115 0.83098 0.0
C1746 C 0.97033 0.48067 0.81339 0.0
C1747 C 0.95706 0.47571 0.7956 0.0
C1748 C 0.01046 0.50151 0.87057 0.0
C1749 C 0.99706 0.48534 0.88486 0.0
C1750 C 0.99806 0.50053 0.85323 0.0
C1751 C 0.97199 0.48345 0.84985 0.0
C1752 C 0.95854 0.46755 0.86424 0.0
C1753 C 0.97092 0.46843 0.88151 0.0
H1754 H 0.57716 0.46103 0.81539 0.0
H1755 H 0.5371 0.48786 0.78296 0.0
H1756 H 0.56036 0.4687 0.8454 0.0
H1757 H 0.51938 0.49453 0.81283 0.0
H1758 H 0.50266 0.51829 0.87227 0.0
H1759 H 0.52545 0.51717 0.84353 0.0
H1760 H 0.52112 0.44971 0.86022 0.0
H1761 H 0.49915 0.45141 0.88912 0.0
C1762 C 0.56488 0.46873 0.81469 0.0
C1763 C 0.55833 0.47367 0.79677 0.0
C1764 C 0.55505 0.47292 0.83189 0.0
C1765 C 0.53811 0.48182 0.83157 0.0
C1766 C 0.5325 0.48786 0.81373 0.0
C1767 C 0.54262 0.48396 0.79655 0.0
C1768 C 0.50663 0.50326 0.86972 0.0
C1769 C 0.49917 0.48495 0.88292 0.0
C1770 C 0.51965 0.50257 0.85325 0.0
C1771 C 0.52526 0.4834 0.84952 0.0
C1772 C 0.51771 0.4651 0.86279 0.0
C1773 C 0.50496 0.46596 0.87933 0.0
H1774 H 0.57424 0.06476 0.79742 0.0
H1775 H 0.5108 0.07659 0.8013 0.0
H1776 H 0.56187 0.04318 0.82712 0.0
H1777 H 0.49883 0.05553 0.83095 0.0
H1778 H 0.46658 0.99022 0.86856 0.0
H1779 H 0.4809 0.01314 0.83984 0.0
H1780 H 0.55833 0.04954 0.86252 0.0
H1781 H 0.54399 0.02585 0.89112 0.0
C1782 C 0.5578 0.06295 0.80465 0.0
C1783 C 0.54344 0.07228 0.79685 0.0
C1784 C 0.55079 0.05069 0.82173 0.0
C1785 C 0.52923 0.04745 0.83134 0.0
C1786 C 0.51526 0.05728 0.82374 0.0
C1787 C 0.52224 0.0695 0.80675 0.0
C1788 C 0.48669 0.00295 0.86738 0.0
C1789 C 0.50413 0.00612 0.88213 0.0
C1790 C 0.49489 0.01633 0.85099 0.0
C1791 C 0.52077 0.03327 0.84889 0.0
C1792 C 0.53828 0.0365 0.86362 0.0
C1793 C 0.53004 0.02313 0.8801 0.0
H1794 H 0.11231 0.26145 0.55819 0.0
H1795 H 0.17774 0.25293 0.56145 0.0
H1796 H 0.12609 0.28046 0.52777 0.0
H1797 H 0.19116 0.27132 0.53061 0.0
H1798 H 0.1459 0.29642 0.46559 0.0
H1799 H 0.13147 0.27306 0.49415 0.0
H1800 H 0.20852 0.31119 0.51801 0.0
H1801 H 0.22308 0.33351 0.48901 0.0
C1802 C 0.12949 0.26333 0.5523 0.0
C1803 C 0.14397 0.25574 0.56237 0.0
C1804 C 0.13732 0.27412 0.53474 0.0
C1805 C 0.15979 0.27751 0.52668 0.0
C1806 C 0.17397 0.26938 0.53652 0.0
C1807 C 0.16619 0.25868 0.55416 0.0
C1808 C 0.15983 0.2995 0.47676 0.0
C1809 C 0.18567 0.31698 0.47498 0.0
C1810 C 0.15151 0.28632 0.49328 0.0
C1811 C 0.16878 0.29031 0.5085 0.0
C1812 C 0.19467 0.30741 0.50653 0.0
C1813 C 0.203 0.3205 0.48999 0.0
H1814 H 0.78464 0.87354 0.54312 0.0
H1815 H 0.7164 0.84418 0.57532 0.0
H1816 H 0.75987 0.86705 0.51319 0.0
H1817 H 0.69183 0.83814 0.54543 0.0
H1818 H 0.67228 0.87329 0.495 0.0
H1819 H 0.69408 0.87234 0.52406 0.0
H1820 H 0.72207 0.83072 0.49056 0.0
H1821 H 0.69916 0.83034 0.4615 0.0
C1822 C 0.76433 0.86536 0.54376 0.0
C1823 C 0.75249 0.85947 0.5616 0.0
C1824 C 0.75018 0.8616 0.52663 0.0
C1825 C 0.72402 0.8523 0.52709 0.0
C1826 C 0.71202 0.84551 0.54476 0.0
C1827 C 0.72608 0.84883 0.56181 0.0
C1828 C 0.68257 0.86342 0.49379 0.0
C1829 C 0.68384 0.85187 0.47577 0.0
C1830 C 0.69514 0.86299 0.51047 0.0
C1831 C 0.70966 0.8514 0.50952 0.0
C1832 C 0.71108 0.83989 0.49162 0.0
C1833 C 0.69811 0.8399 0.47496 0.0
H1834 H 0.10096 0.82286 0.56281 0.0
H1835 H 0.13387 0.901 0.55332 0.0
H1836 H 0.11985 0.81649 0.53317 0.0
H1837 H 0.15263 0.89457 0.52408 0.0
H1838 H 0.20962 0.88117 0.49062 0.0
H1839 H 0.18771 0.88437 0.51924 0.0
H1840 H 0.11824 0.81924 0.49558 0.0
H1841 H 0.14027 0.81597 0.46682 0.0
C1842 C 0.11195 0.83857 0.55434 0.0
C1843 C 0.11603 0.86247 0.56054 0.0
C1844 C 0.1227 0.8349 0.5374 0.0
C1845 C 0.13795 0.85513 0.52653 0.0
C1846 C 0.14129 0.87875 0.53237 0.0
C1847 C 0.13038 0.88236 0.54909 0.0
C1848 C 0.18975 0.86739 0.49161 0.0
C1849 C 0.17663 0.84836 0.4765 0.0
C1850 C 0.17716 0.86933 0.5079 0.0
C1851 C 0.15125 0.85213 0.50953 0.0
C1852 C 0.13823 0.83269 0.49468 0.0
C1853 C 0.15077 0.83094 0.47822 0.0
H1854 H 0.62039 0.79373 0.11027 0.0
H1855 H 0.56817 0.80443 0.14592 0.0
H1856 H 0.6469 0.8012 0.13917 0.0
H1857 H 0.59445 0.81138 0.17486 0.0
H1858 H 0.65653 0.83863 0.22249 0.0
H1859 H 0.63506 0.83846 0.19264 0.0
H1860 H 0.64222 0.77711 0.16647 0.0
H1861 H 0.6636 0.77729 0.1962 0.0
C1862 C 0.61469 0.79795 0.12424 0.0
C1863 C 0.59201 0.79824 0.12579 0.0
C1864 C 0.62981 0.80206 0.14082 0.0
C1865 C 0.62261 0.80654 0.15935 0.0
C1866 C 0.60063 0.80813 0.1608 0.0
C1867 C 0.5855 0.80405 0.1442 0.0
C1868 C 0.65346 0.82509 0.21036 0.0
C1869 C 0.66173 0.80794 0.21173 0.0
C1870 C 0.6412 0.82502 0.19326 0.0
C1871 C 0.63698 0.80782 0.17715 0.0
C1872 C 0.64559 0.79093 0.17846 0.0
C1873 C 0.65782 0.791 0.19552 0.0
H1874 H 0.22234 0.84612 0.12699 0.0
H1875 H 0.20746 0.77046 0.12671 0.0
H1876 H 0.20217 0.84198 0.15806 0.0
H1877 H 0.18657 0.76609 0.15739 0.0
H1878 H 0.12385 0.7602 0.19835 0.0
H1879 H 0.14652 0.76466 0.16842 0.0
H1880 H 0.20818 0.83605 0.19306 0.0
H1881 H 0.18541 0.83164 0.22299 0.0
C1882 C 0.21477 0.82859 0.13351 0.0
C1883 C 0.21587 0.80835 0.12401 0.0
C1884 C 0.20326 0.82626 0.15134 0.0
C1885 C 0.19252 0.80361 0.16003 0.0
C1886 C 0.19419 0.78359 0.15081 0.0
C1887 C 0.20594 0.78602 0.13309 0.0
C1888 C 0.14222 0.77686 0.19734 0.0
C1889 C 0.15284 0.7956 0.21297 0.0
C1890 C 0.15529 0.77931 0.18029 0.0
C1891 C 0.17912 0.8007 0.17842 0.0
C1892 C 0.18977 0.81944 0.19406 0.0
C1893 C 0.17684 0.81684 0.21121 0.0
H1894 H 0.16781 0.39928 0.13289 0.0
H1895 H 0.22855 0.38349 0.12797 0.0
H1896 H 0.15567 0.37866 0.16276 0.0
H1897 H 0.21603 0.36243 0.1579 0.0
H1898 H 0.1974 0.34366 0.22151 0.0
H1899 H 0.21283 0.36841 0.19352 0.0
H1900 H 0.13579 0.33558 0.17082 0.0
H1901 H 0.12043 0.31152 0.19891 0.0
C1902 C 0.1787 0.39152 0.13821 0.0
C1903 C 0.19907 0.3929 0.12787 0.0
C1904 C 0.17161 0.37955 0.15532 0.0
C1905 C 0.18466 0.3686 0.16261 0.0
C1906 C 0.20565 0.37077 0.15273 0.0
C1907 C 0.21277 0.38277 0.13553 0.0
C1908 C 0.18378 0.34195 0.21063 0.0
C1909 C 0.15768 0.32557 0.21244 0.0
C1910 C 0.19263 0.35595 0.1945 0.0
C1911 C 0.17556 0.35403 0.17993 0.0
C1912 C 0.14947 0.33777 0.18187 0.0
C1913 C 0.14066 0.32374 0.19788 0.0
H1914 H 0.7744 0.59391 0.89226 0.0
H1915 H 0.83791 0.58218 0.89353 0.0
H1916 H 0.78952 0.61564 0.8631 0.0
H1917 H 0.85275 0.60347 0.86393 0.0
H1918 H 0.88624 0.66773 0.82393 0.0
H1919 H 0.87133 0.64447 0.85251 0.0
H1920 H 0.79427 0.60888 0.82911 0.0
H1921 H 0.80907 0.63305 0.80099 0.0
C1922 C 0.79153 0.59581 0.88626 0.0
C1923 C 0.80493 0.58628 0.89532 0.0
C1924 C 0.80012 0.60815 0.8694 0.0
C1925 C 0.82232 0.61126 0.86104 0.0
C1926 C 0.83573 0.60168 0.87006 0.0
C1927 C 0.82715 0.58935 0.887 0.0
C1928 C 0.86609 0.65508 0.82493 0.0
C1929 C 0.84886 0.65245 0.81017 0.0
C1930 C 0.85755 0.64147 0.84123 0.0
C1931 C 0.83156 0.62483 0.84321 0.0
C1932 C 0.81439 0.6218 0.82824 0.0
C1933 C 0.82292 0.63544 0.81196 0.0
H1934 H 0.45767 0.20522 0.87245 0.0
H1935 H 0.39251 0.18246 0.90758 0.0
H1936 H 0.43109 0.19594 0.84322 0.0
H1937 H 0.36606 0.17414 0.87843 0.0
H1938 H 0.32136 0.14742 0.82014 0.0
H1939 H 0.34658 0.14965 0.84845 0.0
H1940 H 0.41139 0.21535 0.82889 0.0
H1941 H 0.38638 0.2126 0.80049 0.0
C1942 C 0.43761 0.19804 0.87391 0.0
C1943 C 0.42723 0.19478 0.89233 0.0
C1944 C 0.42239 0.19292 0.85716 0.0
C1945 C 0.39649 0.18477 0.85846 0.0
C1946 C 0.38587 0.18025 0.87682 0.0
C1947 C 0.40106 0.18508 0.89357 0.0
C1948 C 0.341 0.16232 0.82198 0.0
C1949 C 0.35195 0.17979 0.80811 0.0
C1950 C 0.35545 0.16363 0.83819 0.0
C1951 C 0.38111 0.18258 0.84093 0.0
C1952 C 0.39191 0.20012 0.82705 0.0
C1953 C 0.37754 0.19866 0.81081 0.0
H1954 H 0.77303 0.1836 0.88604 0.0
H1955 H 0.82477 0.16677 0.91418 0.0
H1956 H 0.78954 0.17973 0.8545 0.0
H1957 H 0.84114 0.163 0.88276 0.0
H1958 H 0.88799 0.19876 0.82972 0.0
H1959 H 0.86724 0.19635 0.86017 0.0
H1960 H 0.79421 0.14868 0.83037 0.0
H1961 H 0.81496 0.15028 0.79983 0.0
C1962 C 0.78758 0.17866 0.88549 0.0
C1963 C 0.79774 0.17575 0.90267 0.0
C1964 C 0.79698 0.1764 0.86743 0.0
C1965 C 0.81684 0.1714 0.86626 0.0
C1966 C 0.82609 0.16725 0.88329 0.0
C1967 C 0.81658 0.16928 0.90128 0.0
C1968 C 0.86754 0.18738 0.82963 0.0
C1969 C 0.85321 0.17461 0.81227 0.0
C1970 C 0.85566 0.18608 0.8471 0.0
C1971 C 0.82914 0.1722 0.84763 0.0
C1972 C 0.81469 0.15962 0.83032 0.0
C1973 C 0.82661 0.16067 0.81283 0.0
H1974 H 0.23177 0.12913 0.4795 0.0
H1975 H 0.28804 0.12742 0.4428 0.0
H1976 H 0.25961 0.13893 0.50808 0.0
H1977 H 0.31603 0.13766 0.47138 0.0
H1978 H 0.33948 0.11828 0.52802 0.0
H1979 H 0.31566 0.11483 0.49859 0.0
H1980 H 0.29958 0.17008 0.52529 0.0
H1981 H 0.32353 0.1736 0.5548 0.0
C1982 C 0.25025 0.13127 0.47748 0.0
C1983 C 0.25756 0.12724 0.45886 0.0
C1984 C 0.26626 0.13699 0.49388 0.0
C1985 C 0.28993 0.13882 0.49202 0.0
C1986 C 0.29771 0.13593 0.47332 0.0
C1987 C 0.28172 0.13022 0.45693 0.0
C1988 C 0.33122 0.12999 0.52752 0.0
C1989 C 0.33335 0.14615 0.54378 0.0
C1990 C 0.31757 0.12804 0.51063 0.0
C1991 C 0.30573 0.1422 0.50959 0.0
C1992 C 0.30821 0.15868 0.52573 0.0
C1993 C 0.32189 0.16066 0.54263 0.0
H1994 H 0.8789 0.09365 0.47537 0.0
H1995 H 0.89616 0.16644 0.45995 0.0
H1996 H 0.85879 0.09876 0.50434 0.0
H1997 H 0.87623 0.17161 0.48941 0.0
H1998 H 0.85959 0.17394 0.55756 0.0
H1999 H 0.88247 0.17273 0.52867 0.0
H2000 H 0.81735 0.10205 0.50701 0.0
H2001 H 0.79441 0.10342 0.53565 0.0
C2002 C 0.87879 0.11094 0.47829 0.0
C2003 C 0.88904 0.1296 0.46526 0.0
C2004 C 0.8671 0.11374 0.49484 0.0
C2005 C 0.86576 0.13543 0.49893 0.0
C2006 C 0.87704 0.15469 0.4865 0.0
C2007 C 0.8884 0.15171 0.46968 0.0
C2008 C 0.85018 0.15828 0.54652 0.0
C2009 C 0.82528 0.13876 0.54877 0.0
C2010 C 0.86319 0.15766 0.53002 0.0
C2011 C 0.85166 0.13724 0.51575 0.0
C2012 C 0.82667 0.11791 0.51791 0.0
C2013 C 0.81352 0.11876 0.53418 0.0
H2014 H 0.84129 0.7395 0.47024 0.0
H2015 H 0.89636 0.71669 0.46018 0.0
H2016 H 0.82968 0.71827 0.49984 0.0
H2017 H 0.88479 0.69553 0.49012 0.0
H2018 H 0.83156 0.63434 0.53015 0.0
H2019 H 0.84786 0.65833 0.50196 0.0
H2020 H 0.84585 0.72039 0.53277 0.0
H2021 H 0.82891 0.69616 0.56075 0.0
C2022 C 0.8511 0.73012 0.4744 0.0
C2023 C 0.86973 0.72976 0.46273 0.0
C2024 C 0.84453 0.71807 0.4915 0.0
C2025 C 0.8563 0.7052 0.49739 0.0
C2026 C 0.8752 0.7051 0.4859 0.0
C2027 C 0.88193 0.71734 0.4688 0.0
C2028 C 0.83456 0.65309 0.53089 0.0
C2029 C 0.82873 0.66324 0.54767 0.0
C2030 C 0.84419 0.66695 0.51481 0.0
C2031 C 0.84809 0.69126 0.51507 0.0
C2032 C 0.84282 0.70162 0.53201 0.0
C2033 C 0.83332 0.68781 0.54813 0.0
loop_
_geom_bond_atom_site_label_1
_geom_bond_atom_site_label_2
_geom_bond_distance
_geom_bond_site_symmetry_2
_ccdc_geom_bond_type
O0 Cd1 2.300 . S
O0 C7 1.275 . S
Cd1 O0 2.300 . S
Cd1 O9 2.381 . S
Cd1 O10 2.378 . S
O2 Cd3 2.385 . S
O2 C7 1.255 . S
Cd3 O2 2.385 . S
Cd3 O4 2.317 . S
O4 Cd3 2.317 . S
O4 C5 1.232 . S
C5 O4 1.232 . S
C5 O6 1.218 . S
O6 C5 1.218 . S
C7 O0 1.275 . S
C7 O2 1.255 . S
C8 O9 1.258 . S
C8 O10 1.256 . S
O9 Cd1 2.381 . S
O9 C8 1.258 . S
O10 Cd1 2.378 . S
O10 C8 1.256 . S
O11 Cd12 2.300 . S
O11 C18 1.275 . S
Cd12 O11 2.300 . S
Cd12 O20 2.381 . S
Cd12 O21 2.378 . S
O13 Cd14 2.385 . S
O13 C18 1.255 . S
Cd14 O13 2.385 . S
Cd14 O15 2.317 . S
O15 Cd14 2.317 . S
O15 C16 1.232 . S
C16 O15 1.232 . S
C16 O17 1.218 . S
O17 C16 1.218 . S
C18 O11 1.275 . S
C18 O13 1.255 . S
C19 O20 1.258 . S
C19 O21 1.256 . S
O20 Cd12 2.381 . S
O20 C19 1.258 . S
O21 Cd12 2.378 . S
O21 C19 1.256 . S
O22 Cd23 2.300 . S
O22 C29 1.275 . S
Cd23 O22 2.300 . S
Cd23 O31 2.381 . S
Cd23 O32 2.378 . S
O24 Cd25 2.385 . S
O24 C29 1.255 . S
Cd25 O24 2.385 . S
Cd25 O26 2.317 . S
O26 Cd25 2.317 . S
O26 C27 1.232 . S
C27 O26 1.232 . S
C27 O28 1.218 . S
O28 C27 1.218 . S
C29 O22 1.275 . S
C29 O24 1.255 . S
C30 O31 1.258 . S
C30 O32 1.256 . S
O31 Cd23 2.381 . S
O31 C30 1.258 . S
O32 Cd23 2.378 . S
O32 C30 1.256 . S
O33 Cd34 2.300 . S
O33 C40 1.275 . S
Cd34 O33 2.300 . S
Cd34 O42 2.381 . S
Cd34 O43 2.378 . S
O35 Cd36 2.385 . S
O35 C40 1.255 . S
Cd36 O35 2.385 . S
Cd36 O37 2.317 . S
O37 Cd36 2.317 . S
O37 C38 1.232 . S
C38 O37 1.232 . S
C38 O39 1.218 . S
O39 C38 1.218 . S
C40 O33 1.275 . S
C40 O35 1.255 . S
C41 O42 1.258 . S
C41 O43 1.256 . S
O42 Cd34 2.381 . S
O42 C41 1.258 . S
O43 Cd34 2.378 . S
O43 C41 1.256 . S
O44 Cd45 2.300 . S
O44 C51 1.275 . S
Cd45 O44 2.300 . S
Cd45 O53 2.381 . S
Cd45 O54 2.378 . S
O46 Cd47 2.385 . S
O46 C51 1.255 . S
Cd47 O46 2.385 . S
Cd47 O48 2.317 . S
O48 Cd47 2.317 . S
O48 C49 1.232 . S
C49 O48 1.232 . S
C49 O50 1.218 . S
O50 C49 1.218 . S
C51 O44 1.275 . S
C51 O46 1.255 . S
C52 O53 1.258 . S
C52 O54 1.256 . S
O53 Cd45 2.381 . S
O53 C52 1.258 . S
O54 Cd45 2.378 . S
O54 C52 1.256 . S
O55 Cd56 2.300 . S
O55 C62 1.275 . S
Cd56 O55 2.300 . S
Cd56 O64 2.381 . S
Cd56 O65 2.378 . S
O57 Cd58 2.385 . S
O57 C62 1.255 . S
Cd58 O57 2.385 . S
Cd58 O59 2.317 . S
O59 Cd58 2.317 . S
O59 C60 1.232 . S
C60 O59 1.232 . S
C60 O61 1.218 . S
O61 C60 1.218 . S
C62 O55 1.275 . S
C62 O57 1.255 . S
C63 O64 1.258 . S
C63 O65 1.256 . S
O64 Cd56 2.381 . S
O64 C63 1.258 . S
O65 Cd56 2.378 . S
O65 C63 1.256 . S
O66 Cd67 2.300 . S
O66 C73 1.275 . S
Cd67 O66 2.300 . S
Cd67 O75 2.381 . S
Cd67 O76 2.378 . S
O68 Cd69 2.385 . S
O68 C73 1.255 . S
Cd69 O68 2.385 . S
Cd69 O70 2.317 . S
O70 Cd69 2.317 . S
O70 C71 1.232 . S
C71 O70 1.232 . S
C71 O72 1.218 . S
O72 C71 1.218 . S
C73 O66 1.275 . S
C73 O68 1.255 . S
C74 O75 1.258 . S
C74 O76 1.256 . S
O75 Cd67 2.381 . S
O75 C74 1.258 . S
O76 Cd67 2.378 . S
O76 C74 1.256 . S
O77 Cd78 2.300 . S
O77 C84 1.275 . S
Cd78 O77 2.300 . S
Cd78 O86 2.381 . S
Cd78 O87 2.378 . S
O79 Cd80 2.385 . S
O79 C84 1.255 . S
Cd80 O79 2.385 . S
Cd80 O81 2.317 . S
O81 Cd80 2.317 . S
O81 C82 1.232 . S
C82 O81 1.232 . S
C82 O83 1.218 . S
O83 C82 1.218 . S
C84 O77 1.275 . S
C84 O79 1.255 . S
C85 O86 1.258 . S
C85 O87 1.256 . S
O86 Cd78 2.381 . S
O86 C85 1.258 . S
O87 Cd78 2.378 . S
O87 C85 1.256 . S
O88 Cd89 2.300 . S
O88 C95 1.275 . S
Cd89 O88 2.300 . S
Cd89 O97 2.381 . S
Cd89 O98 2.378 . S
O90 Cd91 2.385 . S
O90 C95 1.255 . S
Cd91 O90 2.385 . S
Cd91 O92 2.317 . S
O92 Cd91 2.317 . S
O92 C93 1.232 . S
C93 O92 1.232 . S
C93 O94 1.218 . S
O94 C93 1.218 . S
C95 O88 1.275 . S
C95 O90 1.255 . S
C96 O97 1.258 . S
C96 O98 1.256 . S
O97 Cd89 2.381 . S
O97 C96 1.258 . S
O98 Cd89 2.378 . S
O98 C96 1.256 . S
O99 Cd100 2.300 . S
O99 C106 1.275 . S
Cd100 O99 2.300 . S
Cd100 O108 2.381 . S
Cd100 O109 2.378 . S
O101 Cd102 2.385 . S
O101 C106 1.255 . S
Cd102 O101 2.385 . S
Cd102 O103 2.317 . S
O103 Cd102 2.317 . S
O103 C104 1.232 . S
C104 O103 1.232 . S
C104 O105 1.218 . S
O105 C104 1.218 . S
C106 O99 1.275 . S
C106 O101 1.255 . S
C107 O108 1.258 . S
C107 O109 1.256 . S
O108 Cd100 2.381 . S
O108 C107 1.258 . S
O109 Cd100 2.378 . S
O109 C107 1.256 . S
O110 Cd111 2.300 . S
O110 C117 1.275 . S
Cd111 O110 2.300 . S
Cd111 O119 2.381 . S
Cd111 O120 2.378 . S
O112 Cd113 2.385 . S
O112 C117 1.255 . S
Cd113 O112 2.385 . S
Cd113 O114 2.317 . S
O114 Cd113 2.317 . S
O114 C115 1.232 . S
C115 O114 1.232 . S
C115 O116 1.218 . S
O116 C115 1.218 . S
C117 O110 1.275 . S
C117 O112 1.255 . S
C118 O119 1.258 . S
C118 O120 1.256 . S
O119 Cd111 2.381 . S
O119 C118 1.258 . S
O120 Cd111 2.378 . S
O120 C118 1.256 . S
O121 Cd122 2.300 . S
O121 C128 1.275 . S
Cd122 O121 2.300 . S
Cd122 O130 2.381 . S
Cd122 O131 2.378 . S
O123 Cd124 2.385 . S
O123 C128 1.255 . S
Cd124 O123 2.385 . S
Cd124 O125 2.317 . S
O125 Cd124 2.317 . S
O125 C126 1.232 . S
C126 O125 1.232 . S
C126 O127 1.218 . S
O127 C126 1.218 . S
C128 O121 1.275 . S
C128 O123 1.255 . S
C129 O130 1.258 . S
C129 O131 1.256 . S
O130 Cd122 2.381 . S
O130 C129 1.258 . S
O131 Cd122 2.378 . S
O131 C129 1.256 . S
O132 Cd133 2.300 . S
O132 C139 1.275 . S
Cd133 O132 2.300 . S
Cd133 O141 2.381 . S
Cd133 O142 2.378 . S
O134 Cd135 2.385 . S
O134 C139 1.255 . S
Cd135 O134 2.385 . S
Cd135 O136 2.317 . S
O136 Cd135 2.317 . S
O136 C137 1.232 . S
C137 O136 1.232 . S
C137 O138 1.218 . S
O138 C137 1.218 . S
C139 O132 1.275 . S
C139 O134 1.255 . S
C140 O141 1.258 . S
C140 O142 1.256 . S
O141 Cd133 2.381 . S
O141 C140 1.258 . S
O142 Cd133 2.378 . S
O142 C140 1.256 . S
O143 Cd144 2.300 . S
O143 C150 1.275 . S
Cd144 O143 2.300 . S
Cd144 O152 2.381 . S
Cd144 O153 2.378 . S
O145 Cd146 2.385 . S
O145 C150 1.255 . S
Cd146 O145 2.385 . S
Cd146 O147 2.317 . S
O147 Cd146 2.317 . S
O147 C148 1.232 . S
C148 O147 1.232 . S
C148 O149 1.218 . S
O149 C148 1.218 . S
C150 O143 1.275 . S
C150 O145 1.255 . S
C151 O152 1.258 . S
C151 O153 1.256 . S
O152 Cd144 2.381 . S
O152 C151 1.258 . S
O153 Cd144 2.378 . S
O153 C151 1.256 . S
O154 Cd155 2.300 . S
O154 C161 1.275 . S
Cd155 O154 2.300 . S
Cd155 O163 2.381 . S
Cd155 O164 2.378 . S
O156 Cd157 2.385 . S
O156 C161 1.255 . S
Cd157 O156 2.385 . S
Cd157 O158 2.317 . S
O158 Cd157 2.317 . S
O158 C159 1.232 . S
C159 O158 1.232 . S
C159 O160 1.218 . S
O160 C159 1.218 . S
C161 O154 1.275 . S
C161 O156 1.255 . S
C162 O163 1.258 . S
C162 O164 1.256 . S
O163 Cd155 2.381 . S
O163 C162 1.258 . S
O164 Cd155 2.378 . S
O164 C162 1.256 . S
O165 Cd166 2.300 . S
O165 C172 1.275 . S
Cd166 O165 2.300 . S
Cd166 O174 2.381 . S
Cd166 O175 2.378 . S
O167 Cd168 2.385 . S
O167 C172 1.255 . S
Cd168 O167 2.385 . S
Cd168 O169 2.317 . S
O169 Cd168 2.317 . S
O169 C170 1.232 . S
C170 O169 1.232 . S
C170 O171 1.218 . S
O171 C170 1.218 . S
C172 O165 1.275 . S
C172 O167 1.255 . S
C173 O174 1.258 . S
C173 O175 1.256 . S
O174 Cd166 2.381 . S
O174 C173 1.258 . S
O175 Cd166 2.378 . S
O175 C173 1.256 . S
O176 Cd177 2.300 . S
O176 C183 1.275 . S
Cd177 O176 2.300 . S
Cd177 O185 2.381 . S
Cd177 O186 2.378 . S
O178 Cd179 2.385 . S
O178 C183 1.255 . S
Cd179 O178 2.385 . S
Cd179 O180 2.317 . S
O180 Cd179 2.317 . S
O180 C181 1.232 . S
C181 O180 1.232 . S
C181 O182 1.218 . S
O182 C181 1.218 . S
C183 O176 1.275 . S
C183 O178 1.255 . S
C184 O185 1.258 . S
C184 O186 1.256 . S
O185 Cd177 2.381 . S
O185 C184 1.258 . S
O186 Cd177 2.378 . S
O186 C184 1.256 . S
O187 Cd188 2.300 . S
O187 C194 1.275 . S
Cd188 O187 2.300 . S
Cd188 O196 2.381 . S
Cd188 O197 2.378 . S
O189 Cd190 2.385 . S
O189 C194 1.255 . S
Cd190 O189 2.385 . S
Cd190 O191 2.317 . S
O191 Cd190 2.317 . S
O191 C192 1.232 . S
C192 O191 1.232 . S
C192 O193 1.218 . S
O193 C192 1.218 . S
C194 O187 1.275 . S
C194 O189 1.255 . S
C195 O196 1.258 . S
C195 O197 1.256 . S
O196 Cd188 2.381 . S
O196 C195 1.258 . S
O197 Cd188 2.378 . S
O197 C195 1.256 . S
Gd198 N229 2.661 . S
Gd198 N235 2.601 . S
Gd198 O242 2.545 . S
Gd198 O243 2.606 1_545 S
Gd198 O245 2.429 . S
Gd198 O246 2.545 1_545 S
Gd198 O247 2.412 . S
Gd198 O249 2.362 . S
Gd198 O250 2.324 1_545 S
Gd198 C257 2.828 . S
Gd199 N208 2.661 . S
Gd199 N212 2.601 . S
Gd199 O243 2.362 1_556 S
Gd199 O244 2.324 1_565 S
Gd199 O248 2.545 . S
Gd199 O249 2.606 1_566 S
Gd199 O251 2.429 . S
Gd199 O252 2.545 1_565 S
Gd199 O253 2.412 1_565 S
Gd199 C266 2.828 . S
C200 C203 1.417 . S
C200 C205 1.431 . S
C200 C206 1.412 . S
C201 C204 1.437 . S
C201 C205 1.317 . S
C201 H220 0.929 . S
C202 C203 1.426 . S
C202 C204 1.413 . S
C202 N212 1.359 . S
C203 C200 1.417 . S
C203 C202 1.426 . S
C203 N208 1.350 . S
C204 C201 1.437 . S
C204 C202 1.413 . S
C204 C214 1.391 . S
C205 C200 1.431 . S
C205 C201 1.317 . S
C205 H216 0.930 . S
C206 C200 1.412 . S
C206 C207 1.355 . S
C206 H218 0.930 . S
C207 C206 1.355 . S
C207 C209 1.402 . S
C207 H219 0.930 . S
N208 Gd199 2.661 . S
N208 C203 1.350 . S
N208 C209 1.307 . S
C209 C207 1.402 . S
C209 N208 1.307 . S
C209 H210 0.930 . S
H210 C209 0.930 . S
C211 N212 1.334 . S
C211 C213 1.394 . S
C211 H215 0.930 . S
N212 Gd199 2.601 . S
N212 C202 1.359 . S
N212 C211 1.334 . S
C213 C211 1.394 . S
C213 C214 1.359 . S
C213 H225 0.930 . S
C214 C204 1.391 . S
C214 C213 1.359 . S
C214 H226 0.929 . S
H215 C211 0.930 . S
H216 C205 0.930 . S
H217 C234 0.930 . S
H218 C206 0.930 . S
H219 C207 0.930 . S
H220 C201 0.929 . S
H221 C239 0.930 . S
H222 C230 0.930 . S
H223 C231 0.930 . S
H224 C255 0.929 . S
H225 C213 0.930 . S
H226 C214 0.929 . S
H227 C256 0.930 . S
H228 C237 0.930 . S
N229 Gd198 2.661 . S
N229 C233 1.350 . S
N229 C234 1.307 . S
C230 H222 0.930 . S
C230 C231 1.355 . S
C230 C232 1.412 . S
C231 H223 0.930 . S
C231 C230 1.355 . S
C231 C234 1.402 . S
C232 C230 1.412 . S
C232 C233 1.417 . S
C232 C256 1.431 . S
C233 N229 1.350 . S
C233 C232 1.417 . S
C233 C236 1.426 . S
C234 H217 0.930 . S
C234 N229 1.307 . S
C234 C231 1.402 . S
N235 Gd198 2.601 . S
N235 C236 1.359 . S
N235 C239 1.334 . S
C236 C233 1.426 . S
C236 N235 1.359 . S
C236 C240 1.413 . S
C237 H228 0.930 . S
C237 C238 1.359 . S
C237 C239 1.394 . S
C238 C237 1.359 . S
C238 C240 1.391 . S
C238 H241 0.929 . S
C239 H221 0.930 . S
C239 N235 1.334 . S
C239 C237 1.394 . S
C240 C236 1.413 . S
C240 C238 1.391 . S
C240 C255 1.437 . S
H241 C238 0.929 . S
O242 Gd198 2.545 . S
O242 C257 1.258 . S
O243 Gd198 2.606 1_565 S
O243 Gd199 2.362 1_554 S
O243 C254 1.284 . S
O244 Gd199 2.324 1_545 S
O244 C264 1.246 1_556 S
O245 Gd198 2.429 . S
O245 C264 1.280 . S
O246 Gd198 2.545 1_565 S
O246 C254 1.250 . S
O247 Gd198 2.412 . S
O247 C257 1.252 . S
O248 Gd199 2.545 . S
O248 C266 1.258 . S
O249 Gd198 2.362 . S
O249 Gd199 2.606 1_544 S
O249 C265 1.284 1_554 S
O250 Gd198 2.324 1_565 S
O250 C273 1.254 . S
O251 Gd199 2.429 . S
O251 C273 1.268 1_556 S
O252 Gd199 2.545 1_545 S
O252 C265 1.250 . S
O253 Gd199 2.412 1_545 S
O253 C266 1.252 1_545 S
C254 O243 1.284 . S
C254 O246 1.250 . S
C255 H224 0.929 . S
C255 C240 1.437 . S
C255 C256 1.317 . S
C256 H227 0.930 . S
C256 C232 1.431 . S
C256 C255 1.317 . S
C257 Gd198 2.828 . S
C257 O242 1.258 . S
C257 O247 1.252 . S
C257 C258 1.497 . S
C258 C257 1.497 . S
C258 C259 1.395 . S
C258 C260 1.380 1_545 S
C259 C258 1.395 . S
C259 C262 1.398 . S
C259 H274 0.930 . S
C260 C258 1.380 1_565 S
C260 C261 1.391 . S
C260 H275 0.930 . S
C261 C260 1.391 . S
C261 C263 1.387 . S
C262 C259 1.398 . S
C262 C263 1.380 1_545 S
C262 H276 0.930 . S
C263 C261 1.387 . S
C263 C262 1.380 1_565 S
C263 H277 0.930 . S
C264 O244 1.246 1_554 S
C264 O245 1.280 . S
C265 O249 1.284 1_556 S
C265 O252 1.250 . S
C266 Gd199 2.828 . S
C266 O248 1.258 . S
C266 O253 1.252 1_565 S
C266 C267 1.497 . S
C267 C266 1.497 . S
C267 C268 1.395 . S
C267 C269 1.380 1_565 S
C268 C267 1.395 . S
C268 C271 1.398 . S
C268 H278 0.930 . S
C269 C267 1.380 1_545 S
C269 C270 1.391 . S
C269 H279 0.930 . S
C270 C269 1.391 . S
C270 C272 1.387 . S
C271 C268 1.398 . S
C271 C272 1.380 1_565 S
C271 H280 0.930 . S
C272 C270 1.387 . S
C272 C271 1.380 1_545 S
C272 H281 0.930 . S
C273 O250 1.254 . S
C273 O251 1.268 1_554 S
H274 C259 0.930 . S
H275 C260 0.930 . S
H276 C262 0.930 . S
H277 C263 0.930 . S
H278 C268 0.930 . S
H279 C269 0.930 . S
H280 C271 0.930 . S
H281 C272 0.930 . S
Gd282 N313 2.661 . S
Gd282 N319 2.601 . S
Gd282 O326 2.545 . S
Gd282 O327 2.606 1_655 S
Gd282 O329 2.429 . S
Gd282 O330 2.545 1_655 S
Gd282 O331 2.412 1_655 S
Gd282 O333 2.362 . S
Gd282 O334 2.324 1_655 S
Gd282 C341 2.828 1_655 S
Gd283 N292 2.661 . S
Gd283 N296 2.601 . S
Gd283 O327 2.362 1_556 S
Gd283 O328 2.324 1_455 S
Gd283 O332 2.545 . S
Gd283 O333 2.606 1_456 S
Gd283 O335 2.429 1_556 S
Gd283 O336 2.545 1_455 S
Gd283 O337 2.412 1_455 S
Gd283 C350 2.828 . S
C284 C287 1.417 . S
C284 C289 1.431 . S
C284 C290 1.412 . S
C285 C288 1.437 . S
C285 C289 1.317 . S
C285 H304 0.929 . S
C286 C287 1.426 . S
C286 C288 1.413 . S
C286 N296 1.359 . S
C287 C284 1.417 . S
C287 C286 1.426 . S
C287 N292 1.350 . S
C288 C285 1.437 . S
C288 C286 1.413 . S
C288 C298 1.391 . S
C289 C284 1.431 . S
C289 C285 1.317 . S
C289 H300 0.930 . S
C290 C284 1.412 . S
C290 C291 1.355 . S
C290 H302 0.930 . S
C291 C290 1.355 . S
C291 C293 1.402 . S
C291 H303 0.930 . S
N292 Gd283 2.661 . S
N292 C287 1.350 . S
N292 C293 1.307 . S
C293 C291 1.402 . S
C293 N292 1.307 . S
C293 H294 0.971 . S
H294 C293 0.971 . S
C295 N296 1.334 . S
C295 C297 1.394 . S
C295 H299 0.930 . S
N296 Gd283 2.601 . S
N296 C286 1.359 . S
N296 C295 1.334 . S
C297 C295 1.394 . S
C297 C298 1.359 . S
C297 H309 0.930 . S
C298 C288 1.391 . S
C298 C297 1.359 . S
C298 H310 0.929 . S
H299 C295 0.930 . S
H300 C289 0.930 . S
H301 C318 0.930 1_455 S
H302 C290 0.930 . S
H303 C291 0.930 . S
H304 C285 0.929 . S
H305 C323 0.930 . S
H306 C314 0.930 . S
H307 C315 0.930 . S
H308 C339 0.929 . S
H309 C297 0.930 . S
H310 C298 0.929 . S
H311 C340 0.930 . S
H312 C321 0.930 . S
N313 Gd282 2.661 . S
N313 C317 1.350 . S
N313 C318 1.307 . S
C314 H306 0.930 . S
C314 C315 1.355 . S
C314 C316 1.412 . S
C315 H307 0.930 . S
C315 C314 1.355 . S
C315 C318 1.402 . S
C316 C314 1.412 . S
C316 C317 1.417 . S
C316 C340 1.431 . S
C317 N313 1.350 . S
C317 C316 1.417 . S
C317 C320 1.426 . S
C318 H301 0.930 1_655 S
C318 N313 1.307 . S
C318 C315 1.402 . S
N319 Gd282 2.601 . S
N319 C320 1.359 . S
N319 C323 1.334 . S
C320 C317 1.426 . S
C320 N319 1.359 . S
C320 C324 1.413 . S
C321 H312 0.930 . S
C321 C322 1.359 . S
C321 C323 1.394 . S
C322 C321 1.359 . S
C322 C324 1.391 . S
C322 H325 0.929 . S
C323 H305 0.930 . S
C323 N319 1.334 . S
C323 C321 1.394 . S
C324 C320 1.413 . S
C324 C322 1.391 . S
C324 C339 1.437 . S
H325 C322 0.929 . S
O326 Gd282 2.545 . S
O326 C341 1.258 1_655 S
O327 Gd282 2.606 1_455 S
O327 Gd283 2.362 1_554 S
O327 C338 1.284 . S
O328 Gd283 2.324 1_655 S
O328 C348 1.254 1_556 S
O329 Gd282 2.429 . S
O329 C348 1.268 . S
O330 Gd282 2.545 1_455 S
O330 C338 1.250 . S
O331 Gd282 2.412 1_455 S
O331 C341 1.252 . S
O332 Gd283 2.545 . S
O332 C350 1.258 . S
O333 Gd282 2.362 . S
O333 Gd283 2.606 1_654 S
O333 C349 1.284 1_554 S
O334 Gd282 2.324 1_455 S
O334 C357 1.254 . S
O335 Gd283 2.429 1_554 S
O335 C357 1.268 . S
O336 Gd283 2.545 1_655 S
O336 C349 1.250 . S
O337 Gd283 2.412 1_655 S
O337 C350 1.252 1_655 S
C338 O327 1.284 . S
C338 O330 1.250 . S
C339 H308 0.929 . S
C339 C324 1.437 . S
C339 C340 1.317 . S
C340 H311 0.930 . S
C340 C316 1.431 . S
C340 C339 1.317 . S
C341 Gd282 2.828 1_455 S
C341 O326 1.258 1_455 S
C341 O331 1.252 . S
C341 C342 1.497 . S
C342 C341 1.497 . S
C342 C343 1.395 1_455 S
C342 C344 1.380 . S
C343 C342 1.395 1_655 S
C343 C346 1.389 1_655 S
C343 H358 0.930 . S
C344 C342 1.380 . S
C344 C345 1.391 . S
C344 H359 0.930 . S
C345 C344 1.391 . S
C345 C347 1.387 . S
C346 C343 1.389 1_455 S
C346 C347 1.400 . S
C346 H360 0.920 1_455 S
C347 C345 1.387 . S
C347 C346 1.400 . S
C347 H361 0.930 . S
C348 O328 1.254 1_554 S
C348 O329 1.268 . S
C349 O333 1.284 1_556 S
C349 O336 1.250 . S
C350 Gd283 2.828 . S
C350 O332 1.258 . S
C350 O337 1.252 1_455 S
C350 C351 1.497 1_455 S
C351 C350 1.497 1_655 S
C351 C352 1.395 1_655 S
C351 C353 1.380 . S
C352 C351 1.395 1_455 S
C352 C355 1.398 . S
C352 H362 0.930 . S
C353 C351 1.380 . S
C353 C354 1.391 . S
C353 H363 0.930 . S
C354 C353 1.391 . S
C354 C356 1.387 . S
C355 C352 1.398 . S
C355 C356 1.380 1_455 S
C355 H364 0.930 . S
C356 C354 1.387 . S
C356 C355 1.380 1_655 S
C356 H365 0.930 . S
C357 O334 1.254 . S
C357 O335 1.268 . S
H358 C343 0.930 . S
H359 C344 0.930 . S
H360 C346 0.920 1_655 S
H361 C347 0.930 . S
H362 C352 0.930 . S
H363 C353 0.930 . S
H364 C355 0.930 . S
H365 C356 0.930 . S
Gd366 N397 2.661 . S
Gd366 N403 2.601 . S
Gd366 O410 2.545 . S
Gd366 O411 2.606 1_556 S
Gd366 O413 2.429 . S
Gd366 O414 2.545 . S
Gd366 O415 2.412 . S
Gd366 O417 2.362 1_556 S
Gd366 O418 2.324 . S
Gd366 C425 2.828 . S
Gd367 N376 2.661 . S
Gd367 N380 2.601 . S
Gd367 O411 2.362 . S
Gd367 O412 2.324 . S
Gd367 O416 2.545 . S
Gd367 O417 2.606 . S
Gd367 O419 2.429 . S
Gd367 O420 2.545 . S
Gd367 O421 2.412 . S
Gd367 C434 2.828 . S
C368 C371 1.417 . S
C368 C373 1.431 . S
C368 C374 1.412 . S
C369 C372 1.437 . S
C369 C373 1.317 . S
C369 H388 0.929 . S
C370 C371 1.426 . S
C370 C372 1.413 . S
C370 N380 1.359 . S
C371 C368 1.417 . S
C371 C370 1.426 . S
C371 N376 1.350 . S
C372 C369 1.437 . S
C372 C370 1.413 . S
C372 C382 1.391 . S
C373 C368 1.431 . S
C373 C369 1.317 . S
C373 H384 0.930 . S
C374 C368 1.412 . S
C374 C375 1.355 . S
C374 H386 0.930 . S
C375 C374 1.355 . S
C375 C377 1.402 . S
C375 H387 0.930 . S
N376 Gd367 2.661 . S
N376 C371 1.350 . S
N376 C377 1.307 . S
C377 C375 1.402 . S
C377 N376 1.307 . S
C377 H378 0.930 . S
H378 C377 0.930 . S
C379 N380 1.334 . S
C379 C381 1.394 . S
C379 H383 0.930 . S
N380 Gd367 2.601 . S
N380 C370 1.359 . S
N380 C379 1.334 . S
C381 C379 1.394 . S
C381 C382 1.359 . S
C381 H393 0.930 . S
C382 C372 1.391 . S
C382 C381 1.359 . S
C382 H394 0.929 . S
H383 C379 0.930 . S
H384 C373 0.930 . S
H385 C402 0.930 . S
H386 C374 0.930 . S
H387 C375 0.930 . S
H388 C369 0.929 . S
H389 C407 0.930 . S
H390 C398 0.930 . S
H391 C399 0.930 . S
H392 C423 0.929 . S
H393 C381 0.930 . S
H394 C382 0.929 . S
H395 C424 0.930 . S
H396 C405 0.930 . S
N397 Gd366 2.661 . S
N397 C401 1.350 . S
N397 C402 1.307 . S
C398 H390 0.930 . S
C398 C399 1.355 . S
C398 C400 1.412 . S
C399 H391 0.930 . S
C399 C398 1.355 . S
C399 C402 1.402 . S
C400 C398 1.412 . S
C400 C401 1.417 . S
C400 C424 1.431 . S
C401 N397 1.350 . S
C401 C400 1.417 . S
C401 C404 1.426 . S
C402 H385 0.930 . S
C402 N397 1.307 . S
C402 C399 1.402 . S
N403 Gd366 2.601 . S
N403 C404 1.359 . S
N403 C407 1.334 . S
C404 C401 1.426 . S
C404 N403 1.359 . S
C404 C408 1.413 . S
C405 H396 0.930 . S
C405 C406 1.359 . S
C405 C407 1.394 . S
C406 C405 1.359 . S
C406 C408 1.391 . S
C406 H409 0.929 . S
C407 H389 0.930 . S
C407 N403 1.334 . S
C407 C405 1.394 . S
C408 C404 1.413 . S
C408 C406 1.391 . S
C408 C423 1.437 . S
H409 C406 0.929 . S
O410 Gd366 2.545 . S
O410 C425 1.258 . S
O411 Gd366 2.606 1_554 S
O411 Gd367 2.362 . S
O411 C422 1.284 1_554 S
O412 Gd367 2.324 . S
O412 C432 1.254 . S
O413 Gd366 2.429 . S
O413 C432 1.268 1_556 S
O414 Gd366 2.545 . S
O414 C422 1.250 . S
O415 Gd366 2.412 . S
O415 C425 1.252 . S
O416 Gd367 2.545 . S
O416 C434 1.258 . S
O417 Gd366 2.362 1_554 S
O417 Gd367 2.606 . S
O417 C433 1.284 . S
O418 Gd366 2.324 . S
O418 C441 1.254 . S
O419 Gd367 2.429 . S
O419 C441 1.268 1_554 S
O420 Gd367 2.545 . S
O420 C433 1.250 . S
O421 Gd367 2.412 . S
O421 C434 1.252 . S
C422 O411 1.284 1_556 S
C422 O414 1.250 . S
C423 H392 0.929 . S
C423 C408 1.437 . S
C423 C424 1.317 . S
C424 H395 0.930 . S
C424 C400 1.431 . S
C424 C423 1.317 . S
C425 Gd366 2.828 . S
C425 O410 1.258 . S
C425 O415 1.252 . S
C425 C426 1.497 . S
C426 C425 1.497 . S
C426 C427 1.395 . S
C426 C428 1.380 . S
C427 C426 1.395 . S
C427 C430 1.398 . S
C427 H442 0.930 . S
C428 C426 1.380 . S
C428 C429 1.391 . S
C428 H443 0.930 . S
C429 C428 1.391 . S
C429 C431 1.387 . S
C430 C427 1.398 . S
C430 C431 1.380 . S
C430 H444 0.930 . S
C431 C429 1.387 . S
C431 C430 1.380 . S
C431 H445 0.930 . S
C432 O412 1.254 . S
C432 O413 1.268 1_554 S
C433 O417 1.284 . S
C433 O420 1.250 . S
C434 Gd367 2.828 . S
C434 O416 1.258 . S
C434 O421 1.252 . S
C434 C435 1.497 . S
C435 C434 1.497 . S
C435 C436 1.395 . S
C435 C437 1.380 . S
C436 C435 1.395 . S
C436 C439 1.398 . S
C436 H446 0.930 . S
C437 C435 1.380 . S
C437 C438 1.391 . S
C437 H447 0.930 . S
C438 C437 1.391 . S
C438 C440 1.387 . S
C439 C436 1.398 . S
C439 C440 1.380 . S
C439 H448 0.930 . S
C440 C438 1.387 . S
C440 C439 1.380 . S
C440 H449 0.930 . S
C441 O418 1.254 . S
C441 O419 1.268 1_556 S
H442 C427 0.930 . S
H443 C428 0.930 . S
H444 C430 0.930 . S
H445 C431 0.930 . S
H446 C436 0.930 . S
H447 C437 0.930 . S
H448 C439 0.930 . S
H449 C440 0.930 . S
Gd450 N481 2.661 . S
Gd450 N487 2.601 . S
Gd450 O494 2.545 . S
Gd450 O495 2.606 . S
Gd450 O497 2.429 . S
Gd450 O498 2.545 . S
Gd450 O499 2.412 . S
Gd450 O501 2.362 . S
Gd450 O502 2.324 . S
Gd450 C509 2.828 . S
Gd451 N460 2.661 . S
Gd451 N464 2.601 . S
Gd451 O495 2.362 . S
Gd451 O496 2.324 . S
Gd451 O500 2.545 . S
Gd451 O501 2.606 . S
Gd451 O503 2.429 . S
Gd451 O504 2.545 . S
Gd451 O505 2.412 . S
Gd451 C518 2.828 . S
C452 C455 1.417 . S
C452 C457 1.431 . S
C452 C458 1.412 . S
C453 C456 1.437 . S
C453 C457 1.317 . S
C453 H472 0.929 . S
C454 C455 1.426 . S
C454 C456 1.413 . S
C454 N464 1.359 . S
C455 C452 1.417 . S
C455 C454 1.426 . S
C455 N460 1.350 . S
C456 C453 1.437 . S
C456 C454 1.413 . S
C456 C466 1.391 . S
C457 C452 1.431 . S
C457 C453 1.317 . S
C457 H468 0.930 . S
C458 C452 1.412 . S
C458 C459 1.355 . S
C458 H470 0.930 . S
C459 C458 1.355 . S
C459 C461 1.402 . S
C459 H471 0.930 . S
N460 Gd451 2.661 . S
N460 C455 1.350 . S
N460 C461 1.307 . S
C461 C459 1.402 . S
C461 N460 1.307 . S
C461 H462 0.930 . S
H462 C461 0.930 . S
C463 N464 1.334 . S
C463 C465 1.394 . S
C463 H467 0.930 . S
N464 Gd451 2.601 . S
N464 C454 1.359 . S
N464 C463 1.334 . S
C465 C463 1.394 . S
C465 C466 1.359 . S
C465 H477 0.930 . S
C466 C456 1.391 . S
C466 C465 1.359 . S
C466 H478 0.929 . S
H467 C463 0.930 . S
H468 C457 0.930 . S
H469 C486 0.930 . S
H470 C458 0.930 . S
H471 C459 0.930 . S
H472 C453 0.929 . S
H473 C491 0.930 . S
H474 C482 0.930 . S
H475 C483 0.930 . S
H476 C507 0.929 . S
H477 C465 0.930 . S
H478 C466 0.929 . S
H479 C508 0.930 . S
H480 C489 0.930 . S
N481 Gd450 2.661 . S
N481 C485 1.350 . S
N481 C486 1.307 . S
C482 H474 0.930 . S
C482 C483 1.355 . S
C482 C484 1.412 . S
C483 H475 0.930 . S
C483 C482 1.355 . S
C483 C486 1.402 . S
C484 C482 1.412 . S
C484 C485 1.417 . S
C484 C508 1.431 . S
C485 N481 1.350 . S
C485 C484 1.417 . S
C485 C488 1.426 . S
C486 H469 0.930 . S
C486 N481 1.307 . S
C486 C483 1.402 . S
N487 Gd450 2.601 . S
N487 C488 1.359 . S
N487 C491 1.334 . S
C488 C485 1.426 . S
C488 N487 1.359 . S
C488 C492 1.413 . S
C489 H480 0.930 . S
C489 C490 1.359 . S
C489 C491 1.394 . S
C490 C489 1.359 . S
C490 C492 1.391 . S
C490 H493 0.929 . S
C491 H473 0.930 . S
C491 N487 1.334 . S
C491 C489 1.394 . S
C492 C488 1.413 . S
C492 C490 1.391 . S
C492 C507 1.437 . S
H493 C490 0.929 . S
O494 Gd450 2.545 . S
O494 C509 1.258 . S
O495 Gd450 2.606 . S
O495 Gd451 2.362 . S
O495 C506 1.284 . S
O496 Gd451 2.324 . S
O496 C516 1.254 . S
O497 Gd450 2.429 . S
O497 C516 1.268 . S
O498 Gd450 2.545 . S
O498 C506 1.250 . S
O499 Gd450 2.412 . S
O499 C509 1.252 . S
O500 Gd451 2.545 . S
O500 C518 1.258 . S
O501 Gd450 2.362 . S
O501 Gd451 2.606 . S
O501 C517 1.284 . S
O502 Gd450 2.324 . S
O502 C525 1.254 . S
O503 Gd451 2.429 . S
O503 C525 1.268 . S
O504 Gd451 2.545 . S
O504 C517 1.250 . S
O505 Gd451 2.412 . S
O505 C518 1.252 . S
C506 O495 1.284 . S
C506 O498 1.250 . S
C507 H476 0.929 . S
C507 C492 1.437 . S
C507 C508 1.317 . S
C508 H479 0.930 . S
C508 C484 1.431 . S
C508 C507 1.317 . S
C509 Gd450 2.828 . S
C509 O494 1.258 . S
C509 O499 1.252 . S
C509 C510 1.497 . S
C510 C509 1.497 . S
C510 C511 1.395 . S
C510 C512 1.380 . S
C511 C510 1.395 . S
C511 C514 1.398 . S
C511 H526 0.930 . S
C512 C510 1.380 . S
C512 C513 1.391 . S
C512 H527 0.930 . S
C513 C512 1.391 . S
C513 C515 1.387 . S
C514 C511 1.398 . S
C514 C515 1.380 . S
C514 H528 0.930 . S
C515 C513 1.387 . S
C515 C514 1.380 . S
C515 H529 0.930 . S
C516 O496 1.254 . S
C516 O497 1.268 . S
C517 O501 1.284 . S
C517 O504 1.250 . S
C518 Gd451 2.828 . S
C518 O500 1.258 . S
C518 O505 1.252 . S
C518 C519 1.497 . S
C519 C518 1.497 . S
C519 C520 1.395 . S
C519 C521 1.380 . S
C520 C519 1.395 . S
C520 C523 1.398 . S
C520 H530 0.930 . S
C521 C519 1.380 . S
C521 C522 1.391 . S
C521 H531 0.930 . S
C522 C521 1.391 . S
C522 C524 1.387 . S
C523 C520 1.398 . S
C523 C524 1.380 . S
C523 H532 0.930 . S
C524 C522 1.387 . S
C524 C523 1.380 . S
C524 H533 0.930 . S
C525 O502 1.254 . S
C525 O503 1.268 . S
H526 C511 0.930 . S
H527 C512 0.930 . S
H528 C514 0.930 . S
H529 C515 0.930 . S
H530 C520 0.930 . S
H531 C521 0.930 . S
H532 C523 0.930 . S
H533 C524 0.930 . S
Gd534 N565 2.661 . S
Gd534 N571 2.601 . S
Gd534 O578 2.545 . S
Gd534 O579 2.606 . S
Gd534 O581 2.429 . S
Gd534 O582 2.545 . S
Gd534 O583 2.412 . S
Gd534 O585 2.362 . S
Gd534 O586 2.324 . S
Gd534 C593 2.828 . S
Gd535 N544 2.661 . S
Gd535 N548 2.601 . S
Gd535 O579 2.362 . S
Gd535 O580 2.324 . S
Gd535 O584 2.545 . S
Gd535 O585 2.606 . S
Gd535 O587 2.429 . S
Gd535 O588 2.545 . S
Gd535 O589 2.412 . S
Gd535 C602 2.828 . S
C536 C539 1.417 . S
C536 C541 1.431 . S
C536 C542 1.412 . S
C537 C540 1.437 . S
C537 C541 1.317 . S
C537 H556 0.929 . S
C538 C539 1.426 . S
C538 C540 1.413 . S
C538 N548 1.359 . S
C539 C536 1.417 . S
C539 C538 1.426 . S
C539 N544 1.350 . S
C540 C537 1.437 . S
C540 C538 1.413 . S
C540 C550 1.391 . S
C541 C536 1.431 . S
C541 C537 1.317 . S
C541 H552 0.930 . S
C542 C536 1.412 . S
C542 C543 1.355 . S
C542 H554 0.930 . S
C543 C542 1.355 . S
C543 C545 1.402 . S
C543 H555 0.930 . S
N544 Gd535 2.661 . S
N544 C539 1.350 . S
N544 C545 1.307 . S
C545 C543 1.402 . S
C545 N544 1.307 . S
C545 H546 0.930 . S
H546 C545 0.930 . S
C547 N548 1.334 . S
C547 C549 1.394 . S
C547 H551 0.930 . S
N548 Gd535 2.601 . S
N548 C538 1.359 . S
N548 C547 1.334 . S
C549 C547 1.394 . S
C549 C550 1.359 . S
C549 H561 0.930 . S
C550 C540 1.391 . S
C550 C549 1.359 . S
C550 H562 0.929 . S
H551 C547 0.930 . S
H552 C541 0.930 . S
H553 C570 0.930 . S
H554 C542 0.930 . S
H555 C543 0.930 . S
H556 C537 0.929 . S
H557 C575 0.930 . S
H558 C566 0.930 . S
H559 C567 0.930 . S
H560 C591 0.929 . S
H561 C549 0.930 . S
H562 C550 0.929 . S
H563 C592 0.930 . S
H564 C573 0.930 . S
N565 Gd534 2.661 . S
N565 C569 1.350 . S
N565 C570 1.307 . S
C566 H558 0.930 . S
C566 C567 1.355 . S
C566 C568 1.412 . S
C567 H559 0.930 . S
C567 C566 1.355 . S
C567 C570 1.402 . S
C568 C566 1.412 . S
C568 C569 1.417 . S
C568 C592 1.431 . S
C569 N565 1.350 . S
C569 C568 1.417 . S
C569 C572 1.426 . S
C570 H553 0.930 . S
C570 N565 1.307 . S
C570 C567 1.402 . S
N571 Gd534 2.601 . S
N571 C572 1.359 . S
N571 C575 1.334 . S
C572 C569 1.426 . S
C572 N571 1.359 . S
C572 C576 1.413 . S
C573 H564 0.930 . S
C573 C574 1.359 . S
C573 C575 1.394 . S
C574 C573 1.359 . S
C574 C576 1.391 . S
C574 H577 0.929 . S
C575 H557 0.930 . S
C575 N571 1.334 . S
C575 C573 1.394 . S
C576 C572 1.413 . S
C576 C574 1.391 . S
C576 C591 1.437 . S
H577 C574 0.929 . S
O578 Gd534 2.545 . S
O578 C593 1.258 . S
O579 Gd534 2.606 . S
O579 Gd535 2.362 . S
O579 C590 1.284 . S
O580 Gd535 2.324 . S
O580 C600 1.254 . S
O581 Gd534 2.429 . S
O581 C600 1.268 . S
O582 Gd534 2.545 . S
O582 C590 1.250 . S
O583 Gd534 2.412 . S
O583 C593 1.252 . S
O584 Gd535 2.545 . S
O584 C602 1.258 . S
O585 Gd534 2.362 . S
O585 Gd535 2.606 . S
O585 C601 1.284 . S
O586 Gd534 2.324 . S
O586 C609 1.254 . S
O587 Gd535 2.429 . S
O587 C609 1.268 . S
O588 Gd535 2.545 . S
O588 C601 1.250 . S
O589 Gd535 2.412 . S
O589 C602 1.252 . S
C590 O579 1.284 . S
C590 O582 1.250 . S
C591 H560 0.929 . S
C591 C576 1.437 . S
C591 C592 1.317 . S
C592 H563 0.930 . S
C592 C568 1.431 . S
C592 C591 1.317 . S
C593 Gd534 2.828 . S
C593 O578 1.258 . S
C593 O583 1.252 . S
C593 C594 1.497 . S
C594 C593 1.497 . S
C594 C595 1.395 . S
C594 C596 1.380 . S
C595 C594 1.395 . S
C595 C598 1.398 . S
C595 H610 0.930 . S
C596 C594 1.380 . S
C596 C597 1.391 . S
C596 H611 0.930 . S
C597 C596 1.391 . S
C597 C599 1.387 . S
C598 C595 1.398 . S
C598 C599 1.380 . S
C598 H612 0.930 . S
C599 C597 1.387 . S
C599 C598 1.380 . S
C599 H613 0.930 . S
C600 O580 1.254 . S
C600 O581 1.268 . S
C601 O585 1.284 . S
C601 O588 1.250 . S
C602 Gd535 2.828 . S
C602 O584 1.258 . S
C602 O589 1.252 . S
C602 C603 1.497 . S
C603 C602 1.497 . S
C603 C604 1.395 . S
C603 C605 1.380 . S
C604 C603 1.395 . S
C604 C607 1.398 . S
C604 H614 0.930 . S
C605 C603 1.380 . S
C605 C606 1.391 . S
C605 H615 0.930 . S
C606 C605 1.391 . S
C606 C608 1.387 . S
C607 C604 1.398 . S
C607 C608 1.380 . S
C607 H616 0.930 . S
C608 C606 1.387 . S
C608 C607 1.380 . S
C608 H617 0.930 . S
C609 O586 1.254 . S
C609 O587 1.268 . S
H610 C595 0.930 . S
H611 C596 0.930 . S
H612 C598 0.930 . S
H613 C599 0.930 . S
H614 C604 0.930 . S
H615 C605 0.930 . S
H616 C607 0.930 . S
H617 C608 0.930 . S
Gd618 N649 2.661 . S
Gd618 N655 2.601 . S
Gd618 O662 2.545 . S
Gd618 O663 2.606 . S
Gd618 O665 2.429 . S
Gd618 O666 2.545 . S
Gd618 O667 2.412 . S
Gd618 O669 2.362 . S
Gd618 O670 2.324 . S
Gd618 C677 2.828 . S
Gd619 N628 2.661 . S
Gd619 N632 2.601 . S
Gd619 O663 2.362 . S
Gd619 O664 2.324 . S
Gd619 O668 2.545 . S
Gd619 O669 2.606 . S
Gd619 O671 2.429 . S
Gd619 O672 2.545 . S
Gd619 O673 2.412 . S
Gd619 C686 2.828 . S
C620 C623 1.417 . S
C620 C625 1.431 . S
C620 C626 1.412 . S
C621 C624 1.437 . S
C621 C625 1.317 . S
C621 H640 0.929 . S
C622 C623 1.426 . S
C622 C624 1.413 . S
C622 N632 1.359 . S
C623 C620 1.417 . S
C623 C622 1.426 . S
C623 N628 1.350 . S
C624 C621 1.437 . S
C624 C622 1.413 . S
C624 C634 1.391 . S
C625 C620 1.431 . S
C625 C621 1.317 . S
C625 H636 0.930 . S
C626 C620 1.412 . S
C626 C627 1.355 . S
C626 H638 0.930 . S
C627 C626 1.355 . S
C627 C629 1.402 . S
C627 H639 0.930 . S
N628 Gd619 2.661 . S
N628 C623 1.350 . S
N628 C629 1.307 . S
C629 C627 1.402 . S
C629 N628 1.307 . S
C629 H630 0.930 . S
H630 C629 0.930 . S
C631 N632 1.334 . S
C631 C633 1.394 . S
C631 H635 0.930 . S
N632 Gd619 2.601 . S
N632 C622 1.359 . S
N632 C631 1.334 . S
C633 C631 1.394 . S
C633 C634 1.359 . S
C633 H645 0.930 . S
C634 C624 1.391 . S
C634 C633 1.359 . S
C634 H646 0.929 . S
H635 C631 0.930 . S
H636 C625 0.930 . S
H637 C654 0.930 . S
H638 C626 0.930 . S
H639 C627 0.930 . S
H640 C621 0.929 . S
H641 C659 0.930 . S
H642 C650 0.930 . S
H643 C651 0.930 . S
H644 C675 0.929 . S
H645 C633 0.930 . S
H646 C634 0.929 . S
H647 C676 0.930 . S
H648 C657 0.930 . S
N649 Gd618 2.661 . S
N649 C653 1.350 . S
N649 C654 1.307 . S
C650 H642 0.930 . S
C650 C651 1.355 . S
C650 C652 1.412 . S
C651 H643 0.930 . S
C651 C650 1.355 . S
C651 C654 1.402 . S
C652 C650 1.412 . S
C652 C653 1.417 . S
C652 C676 1.431 . S
C653 N649 1.350 . S
C653 C652 1.417 . S
C653 C656 1.426 . S
C654 H637 0.930 . S
C654 N649 1.307 . S
C654 C651 1.402 . S
N655 Gd618 2.601 . S
N655 C656 1.359 . S
N655 C659 1.334 . S
C656 C653 1.426 . S
C656 N655 1.359 . S
C656 C660 1.413 . S
C657 H648 0.930 . S
C657 C658 1.359 . S
C657 C659 1.394 . S
C658 C657 1.359 . S
C658 C660 1.391 . S
C658 H661 0.929 . S
C659 H641 0.930 . S
C659 N655 1.334 . S
C659 C657 1.394 . S
C660 C656 1.413 . S
C660 C658 1.391 . S
C660 C675 1.437 . S
H661 C658 0.929 . S
O662 Gd618 2.545 . S
O662 C677 1.258 . S
O663 Gd618 2.606 . S
O663 Gd619 2.362 . S
O663 C674 1.284 . S
O664 Gd619 2.324 . S
O664 C684 1.254 . S
O665 Gd618 2.429 . S
O665 C684 1.268 . S
O666 Gd618 2.545 . S
O666 C674 1.250 . S
O667 Gd618 2.412 . S
O667 C677 1.252 . S
O668 Gd619 2.545 . S
O668 C686 1.258 . S
O669 Gd618 2.362 . S
O669 Gd619 2.606 . S
O669 C685 1.284 . S
O670 Gd618 2.324 . S
O670 C693 1.254 . S
O671 Gd619 2.429 . S
O671 C693 1.268 . S
O672 Gd619 2.545 . S
O672 C685 1.250 . S
O673 Gd619 2.412 . S
O673 C686 1.252 . S
C674 O663 1.284 . S
C674 O666 1.250 . S
C675 H644 0.929 . S
C675 C660 1.437 . S
C675 C676 1.317 . S
C676 H647 0.930 . S
C676 C652 1.431 . S
C676 C675 1.317 . S
C677 Gd618 2.828 . S
C677 O662 1.258 . S
C677 O667 1.252 . S
C677 C678 1.497 . S
C678 C677 1.497 . S
C678 C679 1.395 . S
C678 C680 1.380 . S
C679 C678 1.395 . S
C679 C682 1.398 . S
C679 H694 0.930 . S
C680 C678 1.380 . S
C680 C681 1.391 . S
C680 H695 0.930 . S
C681 C680 1.391 . S
C681 C683 1.387 . S
C682 C679 1.398 . S
C682 C683 1.380 . S
C682 H696 0.930 . S
C683 C681 1.387 . S
C683 C682 1.380 . S
C683 H697 0.930 . S
C684 O664 1.254 . S
C684 O665 1.268 . S
C685 O669 1.284 . S
C685 O672 1.250 . S
C686 Gd619 2.828 . S
C686 O668 1.258 . S
C686 O673 1.252 . S
C686 C687 1.497 . S
C687 C686 1.497 . S
C687 C688 1.395 . S
C687 C689 1.380 . S
C688 C687 1.395 . S
C688 C691 1.398 . S
C688 H698 0.930 . S
C689 C687 1.380 . S
C689 C690 1.391 . S
C689 H699 0.930 . S
C690 C689 1.391 . S
C690 C692 1.387 . S
C691 C688 1.398 . S
C691 C692 1.380 . S
C691 H700 0.930 . S
C692 C690 1.387 . S
C692 C691 1.380 . S
C692 H701 0.930 . S
C693 O670 1.254 . S
C693 O671 1.268 . S
H694 C679 0.930 . S
H695 C680 0.930 . S
H696 C682 0.930 . S
H697 C683 0.930 . S
H698 C688 0.930 . S
H699 C689 0.930 . S
H700 C691 0.930 . S
H701 C692 0.930 . S
Gd702 N733 2.661 . S
Gd702 N739 2.601 . S
Gd702 O746 2.545 . S
Gd702 O747 2.606 . S
Gd702 O749 2.429 . S
Gd702 O750 2.545 . S
Gd702 O751 2.412 . S
Gd702 O753 2.362 . S
Gd702 O754 2.324 . S
Gd702 C761 2.828 . S
Gd703 N712 2.661 . S
Gd703 N716 2.601 . S
Gd703 O747 2.362 . S
Gd703 O748 2.324 . S
Gd703 O752 2.545 . S
Gd703 O753 2.606 . S
Gd703 O755 2.429 . S
Gd703 O756 2.545 . S
Gd703 O757 2.412 . S
Gd703 C770 2.828 . S
C704 C707 1.417 . S
C704 C709 1.431 . S
C704 C710 1.412 . S
C705 C708 1.437 . S
C705 C709 1.317 . S
C705 H724 0.929 . S
C706 C707 1.426 . S
C706 C708 1.413 . S
C706 N716 1.359 . S
C707 C704 1.417 . S
C707 C706 1.426 . S
C707 N712 1.350 . S
C708 C705 1.437 . S
C708 C706 1.413 . S
C708 C718 1.391 . S
C709 C704 1.431 . S
C709 C705 1.317 . S
C709 H720 0.930 . S
C710 C704 1.412 . S
C710 C711 1.355 . S
C710 H722 0.930 . S
C711 C710 1.355 . S
C711 C713 1.402 . S
C711 H723 0.930 . S
N712 Gd703 2.661 . S
N712 C707 1.350 . S
N712 C713 1.307 . S
C713 C711 1.402 . S
C713 N712 1.307 . S
C713 H714 0.930 . S
H714 C713 0.930 . S
C715 N716 1.334 . S
C715 C717 1.394 . S
C715 H719 0.930 . S
N716 Gd703 2.601 . S
N716 C706 1.359 . S
N716 C715 1.334 . S
C717 C715 1.394 . S
C717 C718 1.359 . S
C717 H729 0.930 . S
C718 C708 1.391 . S
C718 C717 1.359 . S
C718 H730 0.929 . S
H719 C715 0.930 . S
H720 C709 0.930 . S
H721 C738 0.930 . S
H722 C710 0.930 . S
H723 C711 0.930 . S
H724 C705 0.929 . S
H725 C743 0.930 . S
H726 C734 0.930 . S
H727 C735 0.930 . S
H728 C759 0.929 . S
H729 C717 0.930 . S
H730 C718 0.929 . S
H731 C760 0.930 . S
H732 C741 0.930 . S
N733 Gd702 2.661 . S
N733 C737 1.350 . S
N733 C738 1.307 . S
C734 H726 0.930 . S
C734 C735 1.355 . S
C734 C736 1.412 . S
C735 H727 0.930 . S
C735 C734 1.355 . S
C735 C738 1.402 . S
C736 C734 1.412 . S
C736 C737 1.417 . S
C736 C760 1.431 . S
C737 N733 1.350 . S
C737 C736 1.417 . S
C737 C740 1.426 . S
C738 H721 0.930 . S
C738 N733 1.307 . S
C738 C735 1.402 . S
N739 Gd702 2.601 . S
N739 C740 1.359 . S
N739 C743 1.334 . S
C740 C737 1.426 . S
C740 N739 1.359 . S
C740 C744 1.413 . S
C741 H732 0.930 . S
C741 C742 1.359 . S
C741 C743 1.394 . S
C742 C741 1.359 . S
C742 C744 1.391 . S
C742 H745 0.929 . S
C743 H725 0.930 . S
C743 N739 1.334 . S
C743 C741 1.394 . S
C744 C740 1.413 . S
C744 C742 1.391 . S
C744 C759 1.437 . S
H745 C742 0.929 . S
O746 Gd702 2.545 . S
O746 C761 1.258 . S
O747 Gd702 2.606 . S
O747 Gd703 2.362 . S
O747 C758 1.284 . S
O748 Gd703 2.324 . S
O748 C768 1.254 . S
O749 Gd702 2.429 . S
O749 C768 1.268 . S
O750 Gd702 2.545 . S
O750 C758 1.250 . S
O751 Gd702 2.412 . S
O751 C761 1.252 . S
O752 Gd703 2.545 . S
O752 C770 1.258 . S
O753 Gd702 2.362 . S
O753 Gd703 2.606 . S
O753 C769 1.284 . S
O754 Gd702 2.324 . S
O754 C777 1.254 . S
O755 Gd703 2.429 . S
O755 C777 1.268 . S
O756 Gd703 2.545 . S
O756 C769 1.250 . S
O757 Gd703 2.412 . S
O757 C770 1.252 . S
C758 O747 1.284 . S
C758 O750 1.250 . S
C759 H728 0.929 . S
C759 C744 1.437 . S
C759 C760 1.317 . S
C760 H731 0.930 . S
C760 C736 1.431 . S
C760 C759 1.317 . S
C761 Gd702 2.828 . S
C761 O746 1.258 . S
C761 O751 1.252 . S
C761 C762 1.497 . S
C762 C761 1.497 . S
C762 C763 1.395 . S
C762 C764 1.380 . S
C763 C762 1.395 . S
C763 C766 1.398 . S
C763 H778 0.930 . S
C764 C762 1.380 . S
C764 C765 1.391 . S
C764 H779 0.930 . S
C765 C764 1.391 . S
C765 C767 1.387 . S
C766 C763 1.398 . S
C766 C767 1.380 . S
C766 H780 0.930 . S
C767 C765 1.387 . S
C767 C766 1.380 . S
C767 H781 0.930 . S
C768 O748 1.254 . S
C768 O749 1.268 . S
C769 O753 1.284 . S
C769 O756 1.250 . S
C770 Gd703 2.828 . S
C770 O752 1.258 . S
C770 O757 1.252 . S
C770 C771 1.497 . S
C771 C770 1.497 . S
C771 C772 1.395 . S
C771 C773 1.380 . S
C772 C771 1.395 . S
C772 C775 1.398 . S
C772 H782 0.930 . S
C773 C771 1.380 . S
C773 C774 1.391 . S
C773 H783 0.930 . S
C774 C773 1.391 . S
C774 C776 1.387 . S
C775 C772 1.398 . S
C775 C776 1.380 . S
C775 H784 0.930 . S
C776 C774 1.387 . S
C776 C775 1.380 . S
C776 H785 0.930 . S
C777 O754 1.254 . S
C777 O755 1.268 . S
H778 C763 0.930 . S
H779 C764 0.930 . S
H780 C766 0.930 . S
H781 C767 0.930 . S
H782 C772 0.930 . S
H783 C773 0.930 . S
H784 C775 0.930 . S
H785 C776 0.930 . S
Gd786 N817 2.661 . S
Gd786 N823 2.601 . S
Gd786 O830 2.545 . S
Gd786 O831 2.606 . S
Gd786 O833 2.429 . S
Gd786 O834 2.545 . S
Gd786 O835 2.412 . S
Gd786 O837 2.362 . S
Gd786 O838 2.324 . S
Gd786 C845 2.828 . S
Gd787 N796 2.661 . S
Gd787 N800 2.601 . S
Gd787 O831 2.362 . S
Gd787 O832 2.324 . S
Gd787 O836 2.545 . S
Gd787 O837 2.606 . S
Gd787 O839 2.429 . S
Gd787 O840 2.545 . S
Gd787 O841 2.412 . S
Gd787 C854 2.828 . S
C788 C791 1.417 . S
C788 C793 1.431 . S
C788 C794 1.412 . S
C789 C792 1.437 . S
C789 C793 1.317 . S
C789 H808 0.929 . S
C790 C791 1.426 . S
C790 C792 1.413 . S
C790 N800 1.359 . S
C791 C788 1.417 . S
C791 C790 1.426 . S
C791 N796 1.350 . S
C792 C789 1.437 . S
C792 C790 1.413 . S
C792 C802 1.391 . S
C793 C788 1.431 . S
C793 C789 1.317 . S
C793 H804 0.930 . S
C794 C788 1.412 . S
C794 C795 1.355 . S
C794 H806 0.930 . S
C795 C794 1.355 . S
C795 C797 1.402 . S
C795 H807 0.930 . S
N796 Gd787 2.661 . S
N796 C791 1.350 . S
N796 C797 1.307 . S
C797 C795 1.402 . S
C797 N796 1.307 . S
C797 H798 0.930 . S
H798 C797 0.930 . S
C799 N800 1.334 . S
C799 C801 1.394 . S
C799 H803 0.930 . S
N800 Gd787 2.601 . S
N800 C790 1.359 . S
N800 C799 1.334 . S
C801 C799 1.394 . S
C801 C802 1.359 . S
C801 H813 0.930 . S
C802 C792 1.391 . S
C802 C801 1.359 . S
C802 H814 0.929 . S
H803 C799 0.930 . S
H804 C793 0.930 . S
H805 C822 0.930 . S
H806 C794 0.930 . S
H807 C795 0.930 . S
H808 C789 0.929 . S
H809 C827 0.930 . S
H810 C818 0.930 . S
H811 C819 0.930 . S
H812 C843 0.929 . S
H813 C801 0.930 . S
H814 C802 0.929 . S
H815 C844 0.930 . S
H816 C825 0.930 . S
N817 Gd786 2.661 . S
N817 C821 1.350 . S
N817 C822 1.307 . S
C818 H810 0.930 . S
C818 C819 1.355 . S
C818 C820 1.412 . S
C819 H811 0.930 . S
C819 C818 1.355 . S
C819 C822 1.402 . S
C820 C818 1.412 . S
C820 C821 1.417 . S
C820 C844 1.431 . S
C821 N817 1.350 . S
C821 C820 1.417 . S
C821 C824 1.426 . S
C822 H805 0.930 . S
C822 N817 1.307 . S
C822 C819 1.402 . S
N823 Gd786 2.601 . S
N823 C824 1.359 . S
N823 C827 1.334 . S
C824 C821 1.426 . S
C824 N823 1.359 . S
C824 C828 1.413 . S
C825 H816 0.930 . S
C825 C826 1.359 . S
C825 C827 1.394 . S
C826 C825 1.359 . S
C826 C828 1.391 . S
C826 H829 0.929 . S
C827 H809 0.930 . S
C827 N823 1.334 . S
C827 C825 1.394 . S
C828 C824 1.413 . S
C828 C826 1.391 . S
C828 C843 1.437 . S
H829 C826 0.929 . S
O830 Gd786 2.545 . S
O830 C845 1.258 . S
O831 Gd786 2.606 . S
O831 Gd787 2.362 . S
O831 C842 1.284 . S
O832 Gd787 2.324 . S
O832 C852 1.254 . S
O833 Gd786 2.429 . S
O833 C852 1.268 . S
O834 Gd786 2.545 . S
O834 C842 1.250 . S
O835 Gd786 2.412 . S
O835 C845 1.252 . S
O836 Gd787 2.545 . S
O836 C854 1.258 . S
O837 Gd786 2.362 . S
O837 Gd787 2.606 . S
O837 C853 1.284 . S
O838 Gd786 2.324 . S
O838 C861 1.254 . S
O839 Gd787 2.429 . S
O839 C861 1.268 . S
O840 Gd787 2.545 . S
O840 C853 1.250 . S
O841 Gd787 2.412 . S
O841 C854 1.252 . S
C842 O831 1.284 . S
C842 O834 1.250 . S
C843 H812 0.929 . S
C843 C828 1.437 . S
C843 C844 1.317 . S
C844 H815 0.930 . S
C844 C820 1.431 . S
C844 C843 1.317 . S
C845 Gd786 2.828 . S
C845 O830 1.258 . S
C845 O835 1.252 . S
C845 C846 1.497 . S
C846 C845 1.497 . S
C846 C847 1.395 . S
C846 C848 1.380 . S
C847 C846 1.395 . S
C847 C850 1.398 . S
C847 H862 0.930 . S
C848 C846 1.380 . S
C848 C849 1.391 . S
C848 H863 0.930 . S
C849 C848 1.391 . S
C849 C851 1.387 . S
C850 C847 1.398 . S
C850 C851 1.380 . S
C850 H864 0.930 . S
C851 C849 1.387 . S
C851 C850 1.380 . S
C851 H865 0.930 . S
C852 O832 1.254 . S
C852 O833 1.268 . S
C853 O837 1.284 . S
C853 O840 1.250 . S
C854 Gd787 2.828 . S
C854 O836 1.258 . S
C854 O841 1.252 . S
C854 C855 1.497 . S
C855 C854 1.497 . S
C855 C856 1.395 . S
C855 C857 1.380 . S
C856 C855 1.395 . S
C856 C859 1.398 . S
C856 H866 0.930 . S
C857 C855 1.380 . S
C857 C858 1.391 . S
C857 H867 0.930 . S
C858 C857 1.391 . S
C858 C860 1.387 . S
C859 C856 1.398 . S
C859 C860 1.380 . S
C859 H868 0.930 . S
C860 C858 1.387 . S
C860 C859 1.380 . S
C860 H869 0.930 . S
C861 O838 1.254 . S
C861 O839 1.268 . S
H862 C847 0.930 . S
H863 C848 0.930 . S
H864 C850 0.930 . S
H865 C851 0.930 . S
H866 C856 0.930 . S
H867 C857 0.930 . S
H868 C859 0.930 . S
H869 C860 0.930 . S
Gd870 N901 2.661 . S
Gd870 N907 2.601 . S
Gd870 O914 2.545 . S
Gd870 O915 2.606 . S
Gd870 O917 2.429 . S
Gd870 O918 2.545 . S
Gd870 O919 2.412 . S
Gd870 O921 2.362 . S
Gd870 O922 2.324 . S
Gd870 C929 2.828 . S
Gd871 N880 2.661 . S
Gd871 N884 2.601 . S
Gd871 O915 2.362 . S
Gd871 O916 2.324 . S
Gd871 O920 2.545 . S
Gd871 O921 2.606 . S
Gd871 O923 2.429 . S
Gd871 O924 2.545 . S
Gd871 O925 2.412 . S
Gd871 C938 2.828 . S
C872 C875 1.417 . S
C872 C877 1.431 . S
C872 C878 1.412 . S
C873 C876 1.437 . S
C873 C877 1.317 . S
C873 H892 0.929 . S
C874 C875 1.426 . S
C874 C876 1.413 . S
C874 N884 1.359 . S
C875 C872 1.417 . S
C875 C874 1.426 . S
C875 N880 1.350 . S
C876 C873 1.437 . S
C876 C874 1.413 . S
C876 C886 1.391 . S
C877 C872 1.431 . S
C877 C873 1.317 . S
C877 H888 0.930 . S
C878 C872 1.412 . S
C878 C879 1.355 . S
C878 H890 0.930 . S
C879 C878 1.355 . S
C879 C881 1.402 . S
C879 H891 0.930 . S
N880 Gd871 2.661 . S
N880 C875 1.350 . S
N880 C881 1.307 . S
C881 C879 1.402 . S
C881 N880 1.307 . S
C881 H882 0.930 . S
H882 C881 0.930 . S
C883 N884 1.334 . S
C883 C885 1.394 . S
C883 H887 0.930 . S
N884 Gd871 2.601 . S
N884 C874 1.359 . S
N884 C883 1.334 . S
C885 C883 1.394 . S
C885 C886 1.359 . S
C885 H897 0.930 . S
C886 C876 1.391 . S
C886 C885 1.359 . S
C886 H898 0.929 . S
H887 C883 0.930 . S
H888 C877 0.930 . S
H889 C906 0.930 . S
H890 C878 0.930 . S
H891 C879 0.930 . S
H892 C873 0.929 . S
H893 C911 0.930 . S
H894 C902 0.930 . S
H895 C903 0.930 . S
H896 C927 0.929 . S
H897 C885 0.930 . S
H898 C886 0.929 . S
H899 C928 0.930 . S
H900 C909 0.930 . S
N901 Gd870 2.661 . S
N901 C905 1.350 . S
N901 C906 1.307 . S
C902 H894 0.930 . S
C902 C903 1.355 . S
C902 C904 1.412 . S
C903 H895 0.930 . S
C903 C902 1.355 . S
C903 C906 1.402 . S
C904 C902 1.412 . S
C904 C905 1.417 . S
C904 C928 1.431 . S
C905 N901 1.350 . S
C905 C904 1.417 . S
C905 C908 1.426 . S
C906 H889 0.930 . S
C906 N901 1.307 . S
C906 C903 1.402 . S
N907 Gd870 2.601 . S
N907 C908 1.359 . S
N907 C911 1.334 . S
C908 C905 1.426 . S
C908 N907 1.359 . S
C908 C912 1.413 . S
C909 H900 0.930 . S
C909 C910 1.359 . S
C909 C911 1.394 . S
C910 C909 1.359 . S
C910 C912 1.391 . S
C910 H913 0.929 . S
C911 H893 0.930 . S
C911 N907 1.334 . S
C911 C909 1.394 . S
C912 C908 1.413 . S
C912 C910 1.391 . S
C912 C927 1.437 . S
H913 C910 0.929 . S
O914 Gd870 2.545 . S
O914 C929 1.258 . S
O915 Gd870 2.606 . S
O915 Gd871 2.362 . S
O915 C926 1.284 . S
O916 Gd871 2.324 . S
O916 C936 1.254 . S
O917 Gd870 2.429 . S
O917 C936 1.268 . S
O918 Gd870 2.545 . S
O918 C926 1.250 . S
O919 Gd870 2.412 . S
O919 C929 1.252 . S
O920 Gd871 2.545 . S
O920 C938 1.258 . S
O921 Gd870 2.362 . S
O921 Gd871 2.606 . S
O921 C937 1.284 . S
O922 Gd870 2.324 . S
O922 C945 1.254 . S
O923 Gd871 2.429 . S
O923 C945 1.268 . S
O924 Gd871 2.545 . S
O924 C937 1.250 . S
O925 Gd871 2.412 . S
O925 C938 1.252 . S
C926 O915 1.284 . S
C926 O918 1.250 . S
C927 H896 0.929 . S
C927 C912 1.437 . S
C927 C928 1.317 . S
C928 H899 0.930 . S
C928 C904 1.431 . S
C928 C927 1.317 . S
C929 Gd870 2.828 . S
C929 O914 1.258 . S
C929 O919 1.252 . S
C929 C930 1.497 . S
C930 C929 1.497 . S
C930 C931 1.395 . S
C930 C932 1.380 . S
C931 C930 1.395 . S
C931 C934 1.398 . S
C931 H946 0.930 . S
C932 C930 1.380 . S
C932 C933 1.391 . S
C932 H947 0.930 . S
C933 C932 1.391 . S
C933 C935 1.387 . S
C934 C931 1.398 . S
C934 C935 1.380 . S
C934 H948 0.930 . S
C935 C933 1.387 . S
C935 C934 1.380 . S
C935 H949 0.930 . S
C936 O916 1.254 . S
C936 O917 1.268 . S
C937 O921 1.284 . S
C937 O924 1.250 . S
C938 Gd871 2.828 . S
C938 O920 1.258 . S
C938 O925 1.252 . S
C938 C939 1.497 . S
C939 C938 1.497 . S
C939 C940 1.395 . S
C939 C941 1.380 . S
C940 C939 1.395 . S
C940 C943 1.398 . S
C940 H950 0.930 . S
C941 C939 1.380 . S
C941 C942 1.391 . S
C941 H951 0.930 . S
C942 C941 1.391 . S
C942 C944 1.387 . S
C943 C940 1.398 . S
C943 C944 1.380 . S
C943 H952 0.930 . S
C944 C942 1.387 . S
C944 C943 1.380 . S
C944 H953 0.930 . S
C945 O922 1.254 . S
C945 O923 1.268 . S
H946 C931 0.930 . S
H947 C932 0.930 . S
H948 C934 0.930 . S
H949 C935 0.930 . S
H950 C940 0.930 . S
H951 C941 0.930 . S
H952 C943 0.930 . S
H953 C944 0.930 . S
H954 C962 0.950 . S
H955 C967 0.950 . S
H956 C964 0.950 . S
H957 C966 0.950 . S
H958 C968 0.950 . S
H959 C970 0.950 . S
H960 C972 0.950 . S
H961 C973 0.950 . S
C962 H954 0.950 . S
C962 C963 1.386 . S
C962 C964 1.391 . S
C963 C962 1.386 . S
C963 C967 1.393 . S
C964 H956 0.950 . S
C964 C962 1.391 . S
C964 C965 1.400 . S
C965 C964 1.400 . S
C965 C966 1.398 . S
C965 C971 1.491 . S
C966 H957 0.950 . S
C966 C965 1.398 . S
C966 C967 1.391 . S
C967 H955 0.950 . S
C967 C963 1.393 . S
C967 C966 1.391 . S
C968 H958 0.950 . S
C968 C969 1.386 . S
C968 C970 1.391 . S
C969 C968 1.386 . S
C969 C973 1.393 . S
C970 H959 0.950 . S
C970 C968 1.391 . S
C970 C971 1.400 . S
C971 C965 1.491 . S
C971 C970 1.400 . S
C971 C972 1.398 . S
C972 H960 0.950 . S
C972 C971 1.398 . S
C972 C973 1.391 . S
C973 H961 0.950 . S
C973 C969 1.393 . S
C973 C972 1.391 . S
H974 C982 0.950 . S
H975 C987 0.950 . S
H976 C984 0.950 . S
H977 C986 0.950 . S
H978 C988 0.950 . S
H979 C990 0.950 . S
H980 C992 0.950 . S
H981 C993 0.950 . S
C982 H974 0.950 . S
C982 C983 1.386 . S
C982 C984 1.391 . S
C983 C982 1.386 . S
C983 C987 1.393 . S
C984 H976 0.950 . S
C984 C982 1.391 . S
C984 C985 1.400 . S
C985 C984 1.400 . S
C985 C986 1.398 . S
C985 C991 1.491 . S
C986 H977 0.950 . S
C986 C985 1.398 . S
C986 C987 1.391 . S
C987 H975 0.950 . S
C987 C983 1.393 . S
C987 C986 1.391 . S
C988 H978 0.950 . S
C988 C989 1.386 . S
C988 C990 1.391 . S
C989 C988 1.386 . S
C989 C993 1.393 . S
C990 H979 0.950 . S
C990 C988 1.391 . S
C990 C991 1.400 . S
C991 C985 1.491 . S
C991 C990 1.400 . S
C991 C992 1.398 . S
C992 H980 0.950 . S
C992 C991 1.398 . S
C992 C993 1.391 . S
C993 H981 0.950 . S
C993 C989 1.393 . S
C993 C992 1.391 . S
H994 C1002 0.950 . S
H995 C1007 0.950 . S
H996 C1004 0.950 . S
H997 C1006 0.950 . S
H998 C1008 0.986 . S
H999 C1010 0.950 . S
H1000 C1012 0.950 . S
H1001 C1013 0.950 . S
C1002 H994 0.950 . S
C1002 C1003 1.386 . S
C1002 C1004 1.391 . S
C1003 C1002 1.386 . S
C1003 C1007 1.393 . S
C1004 H996 0.950 . S
C1004 C1002 1.391 . S
C1004 C1005 1.400 . S
C1005 C1004 1.400 . S
C1005 C1006 1.398 . S
C1005 C1011 1.491 . S
C1006 H997 0.950 . S
C1006 C1005 1.398 . S
C1006 C1007 1.391 . S
C1007 H995 0.950 . S
C1007 C1003 1.393 . S
C1007 C1006 1.391 . S
C1008 H998 0.986 . S
C1008 C1009 1.386 . S
C1008 C1010 1.391 . S
C1009 C1008 1.386 . S
C1009 C1013 1.393 . S
C1010 H999 0.950 . S
C1010 C1008 1.391 . S
C1010 C1011 1.400 . S
C1011 C1005 1.491 . S
C1011 C1010 1.400 . S
C1011 C1012 1.398 . S
C1012 H1000 0.950 . S
C1012 C1011 1.398 . S
C1012 C1013 1.391 . S
C1013 H1001 0.950 . S
C1013 C1009 1.393 . S
C1013 C1012 1.391 . S
H1014 C1022 0.950 . S
H1015 C1027 0.950 . S
H1016 C1024 0.950 1_554 S
H1017 C1026 0.950 . S
H1018 C1028 0.950 . S
H1019 C1030 0.950 . S
H1020 C1032 0.950 . S
H1021 C1033 0.950 . S
C1022 H1014 0.950 . S
C1022 C1023 1.386 . S
C1022 C1024 1.391 . S
C1023 C1022 1.386 . S
C1023 C1027 1.393 . S
C1024 H1016 0.950 1_556 S
C1024 C1022 1.391 . S
C1024 C1025 1.400 . S
C1025 C1024 1.400 . S
C1025 C1026 1.398 . S
C1025 C1031 1.491 . S
C1026 H1017 0.950 . S
C1026 C1025 1.398 . S
C1026 C1027 1.391 . S
C1027 H1015 0.950 . S
C1027 C1023 1.393 . S
C1027 C1026 1.391 . S
C1028 H1018 0.950 . S
C1028 C1029 1.386 . S
C1028 C1030 1.391 . S
C1029 C1028 1.386 . S
C1029 C1033 1.393 1_556 S
C1030 H1019 0.950 . S
C1030 C1028 1.391 . S
C1030 C1031 1.400 . S
C1031 C1025 1.491 . S
C1031 C1030 1.400 . S
C1031 C1032 1.398 1_556 S
C1032 H1020 0.950 . S
C1032 C1031 1.398 1_554 S
C1032 C1033 1.391 . S
C1033 H1021 0.950 . S
C1033 C1029 1.393 1_554 S
C1033 C1032 1.391 . S
H1034 C1042 0.950 . S
H1035 C1047 0.950 . S
H1036 C1044 0.899 1_554 S
H1037 C1046 0.950 . S
H1038 C1048 0.950 . S
H1039 C1050 0.950 . S
H1040 C1052 0.950 1_554 S
H1041 C1053 0.950 . S
C1042 H1034 0.950 . S
C1042 C1043 1.386 . S
C1042 C1044 1.391 . S
C1043 C1042 1.386 . S
C1043 C1047 1.393 . S
C1044 H1036 0.899 1_556 S
C1044 C1042 1.391 . S
C1044 C1045 1.400 . S
C1045 C1044 1.400 . S
C1045 C1046 1.398 . S
C1045 C1051 1.491 . S
C1046 H1037 0.950 . S
C1046 C1045 1.398 . S
C1046 C1047 1.391 . S
C1047 H1035 0.950 . S
C1047 C1043 1.393 . S
C1047 C1046 1.391 . S
C1048 H1038 0.950 . S
C1048 C1049 1.386 . S
C1048 C1050 1.391 . S
C1049 C1048 1.386 . S
C1049 C1053 1.393 1_556 S
C1050 H1039 0.950 . S
C1050 C1048 1.391 . S
C1050 C1051 1.400 . S
C1051 C1045 1.491 . S
C1051 C1050 1.400 . S
C1051 C1052 1.398 . S
C1052 H1040 0.950 1_556 S
C1052 C1051 1.398 . S
C1052 C1053 1.391 1_556 S
C1053 H1041 0.950 . S
C1053 C1049 1.393 1_554 S
C1053 C1052 1.391 1_554 S
H1054 C1062 0.950 . S
H1055 C1067 0.950 . S
H1056 C1064 0.950 . S
H1057 C1066 0.950 . S
H1058 C1068 0.950 . S
H1059 C1070 0.950 . S
H1060 C1072 0.950 . S
H1061 C1073 0.950 1_554 S
C1062 H1054 0.950 . S
C1062 C1063 1.386 . S
C1062 C1064 1.391 . S
C1063 C1062 1.386 . S
C1063 C1067 1.393 . S
C1064 H1056 0.950 . S
C1064 C1062 1.391 . S
C1064 C1065 1.400 . S
C1065 C1064 1.400 . S
C1065 C1066 1.398 . S
C1065 C1071 1.491 . S
C1066 H1057 0.950 . S
C1066 C1065 1.398 . S
C1066 C1067 1.391 . S
C1067 H1055 0.950 . S
C1067 C1063 1.393 . S
C1067 C1066 1.391 . S
C1068 H1058 0.950 . S
C1068 C1069 1.386 . S
C1068 C1070 1.391 . S
C1069 C1068 1.386 . S
C1069 C1073 1.393 . S
C1070 H1059 0.950 . S
C1070 C1068 1.391 . S
C1070 C1071 1.400 . S
C1071 C1065 1.491 . S
C1071 C1070 1.400 . S
C1071 C1072 1.398 . S
C1072 H1060 0.950 . S
C1072 C1071 1.398 . S
C1072 C1073 1.391 . S
C1073 H1061 0.950 1_556 S
C1073 C1069 1.393 . S
C1073 C1072 1.391 . S
H1074 C1082 0.950 . S
H1075 C1087 0.950 . S
H1076 C1084 0.950 . S
H1077 C1086 0.950 . S
H1078 C1088 0.950 . S
H1079 C1090 0.950 1_554 S
H1080 C1092 0.950 . S
H1081 C1093 0.950 . S
C1082 H1074 0.950 . S
C1082 C1083 1.386 . S
C1082 C1084 1.391 . S
C1083 C1082 1.386 . S
C1083 C1087 1.393 . S
C1084 H1076 0.950 . S
C1084 C1082 1.391 . S
C1084 C1085 1.400 . S
C1085 C1084 1.400 . S
C1085 C1086 1.398 . S
C1085 C1091 1.491 . S
C1086 H1077 0.950 . S
C1086 C1085 1.398 . S
C1086 C1087 1.391 . S
C1087 H1075 0.950 . S
C1087 C1083 1.393 . S
C1087 C1086 1.391 . S
C1088 H1078 0.950 . S
C1088 C1089 1.386 1_554 S
C1088 C1090 1.391 1_554 S
C1089 C1088 1.386 1_556 S
C1089 C1093 1.393 . S
C1090 H1079 0.950 1_556 S
C1090 C1088 1.391 1_556 S
C1090 C1091 1.400 . S
C1091 C1085 1.491 . S
C1091 C1090 1.400 . S
C1091 C1092 1.398 . S
C1092 H1080 0.950 . S
C1092 C1091 1.398 . S
C1092 C1093 1.391 . S
C1093 H1081 0.950 . S
C1093 C1089 1.393 . S
C1093 C1092 1.391 . S
H1094 C1102 0.950 . S
H1095 C1107 0.950 . S
H1096 C1104 0.950 1_554 S
H1097 C1106 0.950 . S
H1098 C1108 0.950 . S
H1099 C1110 0.950 . S
H1100 C1112 0.950 . S
H1101 C1113 0.950 . S
C1102 H1094 0.950 . S
C1102 C1103 1.386 . S
C1102 C1104 1.391 . S
C1103 C1102 1.386 . S
C1103 C1107 1.393 . S
C1104 H1096 0.950 1_556 S
C1104 C1102 1.391 . S
C1104 C1105 1.400 . S
C1105 C1104 1.400 . S
C1105 C1106 1.398 . S
C1105 C1111 1.491 . S
C1106 H1097 0.950 . S
C1106 C1105 1.398 . S
C1106 C1107 1.391 . S
C1107 H1095 0.950 . S
C1107 C1103 1.393 . S
C1107 C1106 1.391 . S
C1108 H1098 0.950 . S
C1108 C1109 1.386 . S
C1108 C1110 1.391 . S
C1109 C1108 1.386 . S
C1109 C1113 1.393 1_556 S
C1110 H1099 0.950 . S
C1110 C1108 1.391 . S
C1110 C1111 1.400 . S
C1111 C1105 1.491 . S
C1111 C1110 1.400 . S
C1111 C1112 1.398 1_556 S
C1112 H1100 0.950 . S
C1112 C1111 1.398 1_554 S
C1112 C1113 1.391 . S
C1113 H1101 0.950 . S
C1113 C1109 1.393 1_554 S
C1113 C1112 1.391 . S
H1114 C1122 0.950 . S
H1115 C1127 0.950 . S
H1116 C1124 0.950 . S
H1117 C1126 0.950 . S
H1118 C1128 0.950 . S
H1119 C1130 0.950 . S
H1120 C1132 0.950 . S
H1121 C1133 0.950 . S
C1122 H1114 0.950 . S
C1122 C1123 1.386 . S
C1122 C1124 1.391 . S
C1123 C1122 1.386 . S
C1123 C1127 1.393 . S
C1124 H1116 0.950 . S
C1124 C1122 1.391 . S
C1124 C1125 1.400 . S
C1125 C1124 1.400 . S
C1125 C1126 1.398 . S
C1125 C1131 1.491 . S
C1126 H1117 0.950 . S
C1126 C1125 1.398 . S
C1126 C1127 1.391 . S
C1127 H1115 0.950 . S
C1127 C1123 1.393 . S
C1127 C1126 1.391 . S
C1128 H1118 0.950 . S
C1128 C1129 1.386 . S
C1128 C1130 1.391 . S
C1129 C1128 1.386 . S
C1129 C1133 1.393 . S
C1130 H1119 0.950 . S
C1130 C1128 1.391 . S
C1130 C1131 1.400 . S
C1131 C1125 1.491 . S
C1131 C1130 1.400 . S
C1131 C1132 1.398 . S
C1132 H1120 0.950 . S
C1132 C1131 1.398 . S
C1132 C1133 1.391 . S
C1133 H1121 0.950 . S
C1133 C1129 1.393 . S
C1133 C1132 1.391 . S
H1134 C1142 0.950 . S
H1135 C1147 0.950 . S
H1136 C1144 0.950 . S
H1137 C1146 0.950 . S
H1138 C1148 0.950 . S
H1139 C1150 0.950 . S
H1140 C1152 0.950 . S
H1141 C1153 0.950 . S
C1142 H1134 0.950 . S
C1142 C1143 1.386 . S
C1142 C1144 1.391 . S
C1143 C1142 1.386 . S
C1143 C1147 1.393 . S
C1144 H1136 0.950 . S
C1144 C1142 1.391 . S
C1144 C1145 1.400 . S
C1145 C1144 1.400 . S
C1145 C1146 1.398 . S
C1145 C1151 1.491 . S
C1146 H1137 0.950 . S
C1146 C1145 1.398 . S
C1146 C1147 1.391 . S
C1147 H1135 0.950 . S
C1147 C1143 1.393 . S
C1147 C1146 1.391 . S
C1148 H1138 0.950 . S
C1148 C1149 1.386 . S
C1148 C1150 1.391 . S
C1149 C1148 1.386 . S
C1149 C1153 1.393 . S
C1150 H1139 0.950 . S
C1150 C1148 1.391 . S
C1150 C1151 1.400 . S
C1151 C1145 1.491 . S
C1151 C1150 1.400 . S
C1151 C1152 1.398 . S
C1152 H1140 0.950 . S
C1152 C1151 1.398 . S
C1152 C1153 1.391 . S
C1153 H1141 0.950 . S
C1153 C1149 1.393 . S
C1153 C1152 1.391 . S
H1154 C1162 0.950 . S
H1155 C1167 0.950 . S
H1156 C1164 0.950 . S
H1157 C1166 0.950 . S
H1158 C1168 0.924 1_556 S
H1159 C1170 0.950 . S
H1160 C1172 0.950 . S
H1161 C1173 0.950 . S
C1162 H1154 0.950 . S
C1162 C1163 1.386 . S
C1162 C1164 1.391 . S
C1163 C1162 1.386 . S
C1163 C1167 1.393 . S
C1164 H1156 0.950 . S
C1164 C1162 1.391 . S
C1164 C1165 1.400 . S
C1165 C1164 1.400 . S
C1165 C1166 1.398 . S
C1165 C1171 1.491 . S
C1166 H1157 0.950 . S
C1166 C1165 1.398 . S
C1166 C1167 1.391 . S
C1167 H1155 0.950 . S
C1167 C1163 1.393 . S
C1167 C1166 1.391 . S
C1168 H1158 0.924 1_554 S
C1168 C1169 1.386 . S
C1168 C1170 1.391 . S
C1169 C1168 1.386 . S
C1169 C1173 1.393 . S
C1170 H1159 0.950 . S
C1170 C1168 1.391 . S
C1170 C1171 1.400 . S
C1171 C1165 1.491 . S
C1171 C1170 1.400 . S
C1171 C1172 1.398 . S
C1172 H1160 0.950 . S
C1172 C1171 1.398 . S
C1172 C1173 1.391 . S
C1173 H1161 0.950 . S
C1173 C1169 1.393 . S
C1173 C1172 1.391 . S
H1174 C1182 0.950 . S
H1175 C1187 0.950 . S
H1176 C1184 0.950 . S
H1177 C1186 0.950 . S
H1178 C1188 0.950 . S
H1179 C1190 0.950 . S
H1180 C1192 0.950 . S
H1181 C1193 0.950 1_556 S
C1182 H1174 0.950 . S
C1182 C1183 1.386 . S
C1182 C1184 1.391 . S
C1183 C1182 1.386 . S
C1183 C1187 1.393 . S
C1184 H1176 0.950 . S
C1184 C1182 1.391 . S
C1184 C1185 1.400 . S
C1185 C1184 1.400 . S
C1185 C1186 1.398 . S
C1185 C1191 1.491 . S
C1186 H1177 0.950 . S
C1186 C1185 1.398 . S
C1186 C1187 1.391 . S
C1187 H1175 0.950 . S
C1187 C1183 1.393 . S
C1187 C1186 1.391 . S
C1188 H1178 0.950 . S
C1188 C1189 1.386 . S
C1188 C1190 1.391 . S
C1189 C1188 1.386 . S
C1189 C1193 1.393 . S
C1190 H1179 0.950 . S
C1190 C1188 1.391 . S
C1190 C1191 1.400 . S
C1191 C1185 1.491 . S
C1191 C1190 1.400 . S
C1191 C1192 1.398 . S
C1192 H1180 0.950 . S
C1192 C1191 1.398 . S
C1192 C1193 1.391 . S
C1193 H1181 0.950 1_554 S
C1193 C1189 1.393 . S
C1193 C1192 1.391 . S
H1194 C1202 0.950 . S
H1195 C1207 0.950 . S
H1196 C1204 0.950 . S
H1197 C1206 0.950 . S
H1198 C1208 0.950 . S
H1199 C1210 0.950 . S
H1200 C1212 0.950 . S
H1201 C1213 0.950 . S
C1202 H1194 0.950 . S
C1202 C1203 1.386 1_455 S
C1202 C1204 1.391 . S
C1203 C1202 1.386 1_655 S
C1203 C1207 1.393 . S
C1204 H1196 0.950 . S
C1204 C1202 1.391 . S
C1204 C1205 1.400 . S
C1205 C1204 1.400 . S
C1205 C1206 1.398 . S
C1205 C1211 1.491 . S
C1206 H1197 0.950 . S
C1206 C1205 1.398 . S
C1206 C1207 1.391 1_455 S
C1207 H1195 0.950 . S
C1207 C1203 1.393 . S
C1207 C1206 1.391 1_655 S
C1208 H1198 0.950 . S
C1208 C1209 1.386 . S
C1208 C1210 1.391 . S
C1209 C1208 1.386 . S
C1209 C1213 1.393 . S
C1210 H1199 0.950 . S
C1210 C1208 1.391 . S
C1210 C1211 1.400 . S
C1211 C1205 1.491 . S
C1211 C1210 1.400 . S
C1211 C1212 1.398 . S
C1212 H1200 0.950 . S
C1212 C1211 1.398 . S
C1212 C1213 1.391 . S
C1213 H1201 0.950 . S
C1213 C1209 1.393 . S
C1213 C1212 1.391 . S
H1214 C1222 0.950 . S
H1215 C1227 0.950 . S
H1216 C1224 0.950 . S
H1217 C1226 0.950 . S
H1218 C1228 0.950 . S
H1219 C1230 0.950 . S
H1220 C1232 0.950 . S
H1221 C1233 0.950 . S
C1222 H1214 0.950 . S
C1222 C1223 1.386 . S
C1222 C1224 1.391 . S
C1223 C1222 1.386 . S
C1223 C1227 1.393 . S
C1224 H1216 0.950 . S
C1224 C1222 1.391 . S
C1224 C1225 1.400 . S
C1225 C1224 1.400 . S
C1225 C1226 1.398 . S
C1225 C1231 1.491 . S
C1226 H1217 0.950 . S
C1226 C1225 1.398 . S
C1226 C1227 1.391 . S
C1227 H1215 0.950 . S
C1227 C1223 1.393 . S
C1227 C1226 1.391 . S
C1228 H1218 0.950 . S
C1228 C1229 1.386 . S
C1228 C1230 1.391 . S
C1229 C1228 1.386 . S
C1229 C1233 1.393 . S
C1230 H1219 0.950 . S
C1230 C1228 1.391 . S
C1230 C1231 1.400 . S
C1231 C1225 1.491 . S
C1231 C1230 1.400 . S
C1231 C1232 1.398 . S
C1232 H1220 0.950 . S
C1232 C1231 1.398 . S
C1232 C1233 1.391 . S
C1233 H1221 0.950 . S
C1233 C1229 1.393 . S
C1233 C1232 1.391 . S
H1234 C1242 0.950 . S
H1235 C1247 0.950 . S
H1236 C1244 0.950 . S
H1237 C1246 0.934 1_565 S
H1238 C1248 0.950 . S
H1239 C1250 0.950 . S
H1240 C1252 0.950 . S
H1241 C1253 0.950 . S
C1242 H1234 0.950 . S
C1242 C1243 1.386 . S
C1242 C1244 1.391 1_545 S
C1243 C1242 1.386 . S
C1243 C1247 1.393 . S
C1244 H1236 0.950 . S
C1244 C1242 1.391 1_565 S
C1244 C1245 1.400 . S
C1245 C1244 1.400 . S
C1245 C1246 1.398 1_565 S
C1245 C1251 1.491 . S
C1246 H1237 0.934 1_545 S
C1246 C1245 1.398 1_545 S
C1246 C1247 1.391 . S
C1247 H1235 0.950 . S
C1247 C1243 1.393 . S
C1247 C1246 1.391 . S
C1248 H1238 0.950 . S
C1248 C1249 1.386 . S
C1248 C1250 1.391 . S
C1249 C1248 1.386 . S
C1249 C1253 1.393 . S
C1250 H1239 0.950 . S
C1250 C1248 1.391 . S
C1250 C1251 1.400 . S
C1251 C1245 1.491 . S
C1251 C1250 1.400 . S
C1251 C1252 1.398 . S
C1252 H1240 0.950 . S
C1252 C1251 1.398 . S
C1252 C1253 1.391 . S
C1253 H1241 0.950 . S
C1253 C1249 1.393 . S
C1253 C1252 1.391 . S
H1254 C1262 0.950 . S
H1255 C1267 0.950 . S
H1256 C1264 0.950 . S
H1257 C1266 0.950 . S
H1258 C1268 0.950 . S
H1259 C1270 0.950 . S
H1260 C1272 0.950 . S
H1261 C1273 0.950 . S
C1262 H1254 0.950 . S
C1262 C1263 1.386 . S
C1262 C1264 1.391 . S
C1263 C1262 1.386 . S
C1263 C1267 1.393 . S
C1264 H1256 0.950 . S
C1264 C1262 1.391 . S
C1264 C1265 1.400 . S
C1265 C1264 1.400 . S
C1265 C1266 1.398 . S
C1265 C1271 1.491 . S
C1266 H1257 0.950 . S
C1266 C1265 1.398 . S
C1266 C1267 1.391 . S
C1267 H1255 0.950 . S
C1267 C1263 1.393 . S
C1267 C1266 1.391 . S
C1268 H1258 0.950 . S
C1268 C1269 1.386 . S
C1268 C1270 1.391 . S
C1269 C1268 1.386 . S
C1269 C1273 1.393 . S
C1270 H1259 0.950 . S
C1270 C1268 1.391 . S
C1270 C1271 1.400 . S
C1271 C1265 1.491 . S
C1271 C1270 1.400 . S
C1271 C1272 1.398 . S
C1272 H1260 0.950 . S
C1272 C1271 1.398 . S
C1272 C1273 1.391 . S
C1273 H1261 0.950 . S
C1273 C1269 1.393 . S
C1273 C1272 1.391 . S
H1274 C1282 0.950 . S
H1275 C1287 0.950 . S
H1276 C1284 0.950 . S
H1277 C1286 0.950 . S
H1278 C1288 0.950 . S
H1279 C1290 0.950 . S
H1280 C1292 0.950 . S
H1281 C1293 0.950 . S
C1282 H1274 0.950 . S
C1282 C1283 1.386 . S
C1282 C1284 1.391 . S
C1283 C1282 1.386 . S
C1283 C1287 1.393 . S
C1284 H1276 0.950 . S
C1284 C1282 1.391 . S
C1284 C1285 1.400 . S
C1285 C1284 1.400 . S
C1285 C1286 1.398 . S
C1285 C1291 1.491 . S
C1286 H1277 0.950 . S
C1286 C1285 1.398 . S
C1286 C1287 1.391 . S
C1287 H1275 0.950 . S
C1287 C1283 1.393 . S
C1287 C1286 1.391 . S
C1288 H1278 0.950 . S
C1288 C1289 1.386 . S
C1288 C1290 1.391 . S
C1289 C1288 1.386 . S
C1289 C1293 1.393 . S
C1290 H1279 0.950 . S
C1290 C1288 1.391 . S
C1290 C1291 1.400 . S
C1291 C1285 1.491 . S
C1291 C1290 1.400 . S
C1291 C1292 1.398 . S
C1292 H1280 0.950 . S
C1292 C1291 1.398 . S
C1292 C1293 1.391 . S
C1293 H1281 0.950 . S
C1293 C1289 1.393 . S
C1293 C1292 1.391 . S
H1294 C1302 0.950 . S
H1295 C1307 0.950 . S
H1296 C1304 0.950 . S
H1297 C1306 0.950 . S
H1298 C1308 0.950 . S
H1299 C1310 0.950 . S
H1300 C1312 0.950 . S
H1301 C1313 0.950 . S
C1302 H1294 0.950 . S
C1302 C1303 1.386 . S
C1302 C1304 1.391 . S
C1303 C1302 1.386 . S
C1303 C1307 1.393 . S
C1304 H1296 0.950 . S
C1304 C1302 1.391 . S
C1304 C1305 1.400 . S
C1305 C1304 1.400 . S
C1305 C1306 1.398 . S
C1305 C1311 1.491 . S
C1306 H1297 0.950 . S
C1306 C1305 1.398 . S
C1306 C1307 1.391 . S
C1307 H1295 0.950 . S
C1307 C1303 1.393 . S
C1307 C1306 1.391 . S
C1308 H1298 0.950 . S
C1308 C1309 1.386 . S
C1308 C1310 1.391 . S
C1309 C1308 1.386 . S
C1309 C1313 1.393 . S
C1310 H1299 0.950 . S
C1310 C1308 1.391 . S
C1310 C1311 1.400 . S
C1311 C1305 1.491 . S
C1311 C1310 1.400 . S
C1311 C1312 1.398 . S
C1312 H1300 0.950 . S
C1312 C1311 1.398 . S
C1312 C1313 1.391 . S
C1313 H1301 0.950 . S
C1313 C1309 1.393 . S
C1313 C1312 1.391 . S
H1314 C1322 0.950 . S
H1315 C1327 0.950 . S
H1316 C1324 0.950 . S
H1317 C1326 0.950 . S
H1318 C1328 0.950 . S
H1319 C1330 0.950 . S
H1320 C1332 0.950 . S
H1321 C1333 0.950 . S
C1322 H1314 0.950 . S
C1322 C1323 1.386 . S
C1322 C1324 1.391 . S
C1323 C1322 1.386 . S
C1323 C1327 1.393 . S
C1324 H1316 0.950 . S
C1324 C1322 1.391 . S
C1324 C1325 1.400 . S
C1325 C1324 1.400 . S
C1325 C1326 1.398 . S
C1325 C1331 1.491 . S
C1326 H1317 0.950 . S
C1326 C1325 1.398 . S
C1326 C1327 1.391 . S
C1327 H1315 0.950 . S
C1327 C1323 1.393 . S
C1327 C1326 1.391 . S
C1328 H1318 0.950 . S
C1328 C1329 1.386 . S
C1328 C1330 1.391 . S
C1329 C1328 1.386 . S
C1329 C1333 1.393 . S
C1330 H1319 0.950 . S
C1330 C1328 1.391 . S
C1330 C1331 1.400 . S
C1331 C1325 1.491 . S
C1331 C1330 1.400 . S
C1331 C1332 1.398 . S
C1332 H1320 0.950 . S
C1332 C1331 1.398 . S
C1332 C1333 1.391 . S
C1333 H1321 0.950 . S
C1333 C1329 1.393 . S
C1333 C1332 1.391 . S
H1334 C1342 0.950 . S
H1335 C1347 0.950 . S
H1336 C1344 0.950 . S
H1337 C1346 0.950 . S
H1338 C1348 0.950 . S
H1339 C1350 0.950 . S
H1340 C1352 0.950 . S
H1341 C1353 0.950 . S
C1342 H1334 0.950 . S
C1342 C1343 1.386 . S
C1342 C1344 1.391 . S
C1343 C1342 1.386 . S
C1343 C1347 1.393 . S
C1344 H1336 0.950 . S
C1344 C1342 1.391 . S
C1344 C1345 1.400 . S
C1345 C1344 1.400 . S
C1345 C1346 1.398 . S
C1345 C1351 1.491 . S
C1346 H1337 0.950 . S
C1346 C1345 1.398 . S
C1346 C1347 1.391 . S
C1347 H1335 0.950 . S
C1347 C1343 1.393 . S
C1347 C1346 1.391 . S
C1348 H1338 0.950 . S
C1348 C1349 1.386 . S
C1348 C1350 1.391 . S
C1349 C1348 1.386 . S
C1349 C1353 1.393 . S
C1350 H1339 0.950 . S
C1350 C1348 1.391 . S
C1350 C1351 1.400 . S
C1351 C1345 1.491 . S
C1351 C1350 1.400 . S
C1351 C1352 1.398 . S
C1352 H1340 0.950 . S
C1352 C1351 1.398 . S
C1352 C1353 1.391 . S
C1353 H1341 0.950 . S
C1353 C1349 1.393 . S
C1353 C1352 1.391 . S
H1354 C1362 0.950 . S
H1355 C1367 0.950 . S
H1356 C1364 0.950 . S
H1357 C1366 0.950 . S
H1358 C1368 0.950 . S
H1359 C1370 0.950 . S
H1360 C1372 0.950 . S
H1361 C1373 0.950 . S
C1362 H1354 0.950 . S
C1362 C1363 1.386 . S
C1362 C1364 1.391 . S
C1363 C1362 1.386 . S
C1363 C1367 1.393 . S
C1364 H1356 0.950 . S
C1364 C1362 1.391 . S
C1364 C1365 1.400 . S
C1365 C1364 1.400 . S
C1365 C1366 1.398 . S
C1365 C1371 1.491 . S
C1366 H1357 0.950 . S
C1366 C1365 1.398 . S
C1366 C1367 1.391 . S
C1367 H1355 0.950 . S
C1367 C1363 1.393 . S
C1367 C1366 1.391 . S
C1368 H1358 0.950 . S
C1368 C1369 1.386 . S
C1368 C1370 1.391 . S
C1369 C1368 1.386 . S
C1369 C1373 1.393 . S
C1370 H1359 0.950 . S
C1370 C1368 1.391 . S
C1370 C1371 1.400 . S
C1371 C1365 1.491 . S
C1371 C1370 1.400 . S
C1371 C1372 1.398 . S
C1372 H1360 0.950 . S
C1372 C1371 1.398 . S
C1372 C1373 1.391 . S
C1373 H1361 0.950 . S
C1373 C1369 1.393 . S
C1373 C1372 1.391 . S
H1374 C1382 0.950 . S
H1375 C1387 0.950 . S
H1376 C1384 0.950 . S
H1377 C1386 0.950 . S
H1378 C1388 0.950 . S
H1379 C1390 0.950 . S
H1380 C1392 0.950 . S
H1381 C1393 0.950 . S
C1382 H1374 0.950 . S
C1382 C1383 1.386 . S
C1382 C1384 1.391 1_545 S
C1383 C1382 1.386 . S
C1383 C1387 1.393 . S
C1384 H1376 0.950 . S
C1384 C1382 1.391 1_565 S
C1384 C1385 1.400 . S
C1385 C1384 1.400 . S
C1385 C1386 1.398 . S
C1385 C1391 1.491 . S
C1386 H1377 0.950 . S
C1386 C1385 1.398 . S
C1386 C1387 1.391 1_565 S
C1387 H1375 0.950 . S
C1387 C1383 1.393 . S
C1387 C1386 1.391 1_545 S
C1388 H1378 0.950 . S
C1388 C1389 1.386 . S
C1388 C1390 1.391 . S
C1389 C1388 1.386 . S
C1389 C1393 1.393 . S
C1390 H1379 0.950 . S
C1390 C1388 1.391 . S
C1390 C1391 1.400 . S
C1391 C1385 1.491 . S
C1391 C1390 1.400 . S
C1391 C1392 1.398 . S
C1392 H1380 0.950 . S
C1392 C1391 1.398 . S
C1392 C1393 1.391 . S
C1393 H1381 0.950 . S
C1393 C1389 1.393 . S
C1393 C1392 1.391 . S
H1394 C1402 0.924 1_655 S
H1395 C1407 0.950 . S
H1396 C1404 0.950 . S
H1397 C1406 0.950 . S
H1398 C1408 0.950 . S
H1399 C1410 0.950 . S
H1400 C1412 0.950 . S
H1401 C1413 0.950 . S
C1402 H1394 0.924 1_455 S
C1402 C1403 1.373 1_455 S
C1402 C1404 1.431 . S
C1403 C1402 1.373 1_655 S
C1403 C1407 1.393 . S
C1404 H1396 0.950 . S
C1404 C1402 1.431 . S
C1404 C1405 1.400 . S
C1405 C1404 1.400 . S
C1405 C1406 1.398 . S
C1405 C1411 1.491 . S
C1406 H1397 0.950 . S
C1406 C1405 1.398 . S
C1406 C1407 1.391 1_455 S
C1407 H1395 0.950 . S
C1407 C1403 1.393 . S
C1407 C1406 1.391 1_655 S
C1408 H1398 0.950 . S
C1408 C1409 1.386 . S
C1408 C1410 1.391 . S
C1409 C1408 1.386 . S
C1409 C1413 1.393 . S
C1410 H1399 0.950 . S
C1410 C1408 1.391 . S
C1410 C1411 1.400 . S
C1411 C1405 1.491 . S
C1411 C1410 1.400 . S
C1411 C1412 1.398 . S
C1412 H1400 0.950 . S
C1412 C1411 1.398 . S
C1412 C1413 1.391 . S
C1413 H1401 0.950 . S
C1413 C1409 1.393 . S
C1413 C1412 1.391 . S
H1414 C1422 0.950 . S
H1415 C1427 0.950 . S
H1416 C1424 0.950 . S
H1417 C1426 0.950 . S
H1418 C1428 0.950 . S
H1419 C1430 0.950 . S
H1420 C1432 0.950 . S
H1421 C1433 0.950 . S
C1422 H1414 0.950 . S
C1422 C1423 1.386 . S
C1422 C1424 1.391 . S
C1423 C1422 1.386 . S
C1423 C1427 1.393 . S
C1424 H1416 0.950 . S
C1424 C1422 1.391 . S
C1424 C1425 1.400 . S
C1425 C1424 1.400 . S
C1425 C1426 1.398 . S
C1425 C1431 1.491 . S
C1426 H1417 0.950 . S
C1426 C1425 1.398 . S
C1426 C1427 1.391 . S
C1427 H1415 0.950 . S
C1427 C1423 1.393 . S
C1427 C1426 1.391 . S
C1428 H1418 0.950 . S
C1428 C1429 1.386 . S
C1428 C1430 1.391 . S
C1429 C1428 1.386 . S
C1429 C1433 1.393 . S
C1430 H1419 0.950 . S
C1430 C1428 1.391 . S
C1430 C1431 1.400 . S
C1431 C1425 1.491 . S
C1431 C1430 1.400 . S
C1431 C1432 1.398 . S
C1432 H1420 0.950 . S
C1432 C1431 1.398 . S
C1432 C1433 1.391 . S
C1433 H1421 0.950 . S
C1433 C1429 1.393 . S
C1433 C1432 1.391 . S
H1434 C1442 0.950 . S
H1435 C1447 0.950 . S
H1436 C1444 0.950 . S
H1437 C1446 0.950 . S
H1438 C1448 0.950 . S
H1439 C1450 0.950 . S
H1440 C1452 0.950 . S
H1441 C1453 0.950 . S
C1442 H1434 0.950 . S
C1442 C1443 1.386 . S
C1442 C1444 1.391 . S
C1443 C1442 1.386 . S
C1443 C1447 1.393 . S
C1444 H1436 0.950 . S
C1444 C1442 1.391 . S
C1444 C1445 1.400 . S
C1445 C1444 1.400 . S
C1445 C1446 1.398 . S
C1445 C1451 1.491 . S
C1446 H1437 0.950 . S
C1446 C1445 1.398 . S
C1446 C1447 1.391 . S
C1447 H1435 0.950 . S
C1447 C1443 1.393 . S
C1447 C1446 1.391 . S
C1448 H1438 0.950 . S
C1448 C1449 1.386 . S
C1448 C1450 1.391 . S
C1449 C1448 1.386 . S
C1449 C1453 1.393 . S
C1450 H1439 0.950 . S
C1450 C1448 1.391 . S
C1450 C1451 1.400 . S
C1451 C1445 1.491 . S
C1451 C1450 1.400 . S
C1451 C1452 1.398 . S
C1452 H1440 0.950 . S
C1452 C1451 1.398 . S
C1452 C1453 1.391 . S
C1453 H1441 0.950 . S
C1453 C1449 1.393 . S
C1453 C1452 1.391 . S
H1454 C1462 0.950 . S
H1455 C1467 0.950 . S
H1456 C1464 0.950 . S
H1457 C1466 0.950 . S
H1458 C1468 0.950 . S
H1459 C1470 0.950 . S
H1460 C1472 0.950 . S
H1461 C1473 0.950 . S
C1462 H1454 0.950 . S
C1462 C1463 1.386 . S
C1462 C1464 1.391 . S
C1463 C1462 1.386 . S
C1463 C1467 1.393 . S
C1464 H1456 0.950 . S
C1464 C1462 1.391 . S
C1464 C1465 1.400 . S
C1465 C1464 1.400 . S
C1465 C1466 1.398 . S
C1465 C1471 1.491 . S
C1466 H1457 0.950 . S
C1466 C1465 1.398 . S
C1466 C1467 1.391 . S
C1467 H1455 0.950 . S
C1467 C1463 1.393 . S
C1467 C1466 1.391 . S
C1468 H1458 0.950 . S
C1468 C1469 1.386 . S
C1468 C1470 1.391 . S
C1469 C1468 1.386 . S
C1469 C1473 1.393 . S
C1470 H1459 0.950 . S
C1470 C1468 1.391 . S
C1470 C1471 1.400 . S
C1471 C1465 1.491 . S
C1471 C1470 1.400 . S
C1471 C1472 1.398 . S
C1472 H1460 0.950 . S
C1472 C1471 1.398 . S
C1472 C1473 1.391 . S
C1473 H1461 0.950 . S
C1473 C1469 1.393 . S
C1473 C1472 1.391 . S
H1474 C1482 0.950 . S
H1475 C1487 0.950 . S
H1476 C1484 0.950 . S
H1477 C1486 0.950 . S
H1478 C1488 0.950 . S
H1479 C1490 0.950 . S
H1480 C1492 0.950 . S
H1481 C1493 0.950 . S
C1482 H1474 0.950 . S
C1482 C1483 1.386 . S
C1482 C1484 1.391 . S
C1483 C1482 1.386 . S
C1483 C1487 1.393 . S
C1484 H1476 0.950 . S
C1484 C1482 1.391 . S
C1484 C1485 1.400 . S
C1485 C1484 1.400 . S
C1485 C1486 1.398 . S
C1485 C1491 1.491 . S
C1486 H1477 0.950 . S
C1486 C1485 1.398 . S
C1486 C1487 1.391 . S
C1487 H1475 0.950 . S
C1487 C1483 1.393 . S
C1487 C1486 1.391 . S
C1488 H1478 0.950 . S
C1488 C1489 1.386 . S
C1488 C1490 1.391 . S
C1489 C1488 1.386 . S
C1489 C1493 1.393 . S
C1490 H1479 0.950 . S
C1490 C1488 1.391 . S
C1490 C1491 1.400 . S
C1491 C1485 1.491 . S
C1491 C1490 1.400 . S
C1491 C1492 1.398 . S
C1492 H1480 0.950 . S
C1492 C1491 1.398 . S
C1492 C1493 1.391 . S
C1493 H1481 0.950 . S
C1493 C1489 1.393 . S
C1493 C1492 1.391 . S
H1494 C1502 0.950 . S
H1495 C1507 0.950 . S
H1496 C1504 0.948 . S
H1497 C1506 0.950 . S
H1498 C1508 0.950 . S
H1499 C1510 0.950 . S
H1500 C1512 0.950 . S
H1501 C1513 0.950 . S
C1502 H1494 0.950 . S
C1502 C1503 1.386 . S
C1502 C1504 1.365 1_565 S
C1503 C1502 1.386 . S
C1503 C1507 1.393 . S
C1504 H1496 0.948 . S
C1504 C1502 1.365 1_545 S
C1504 C1505 1.431 . S
C1505 C1504 1.431 . S
C1505 C1506 1.398 . S
C1505 C1511 1.491 . S
C1506 H1497 0.950 . S
C1506 C1505 1.398 . S
C1506 C1507 1.391 1_545 S
C1507 H1495 0.950 . S
C1507 C1503 1.393 . S
C1507 C1506 1.391 1_565 S
C1508 H1498 0.950 . S
C1508 C1509 1.386 . S
C1508 C1510 1.391 . S
C1509 C1508 1.386 . S
C1509 C1513 1.393 . S
C1510 H1499 0.950 . S
C1510 C1508 1.391 . S
C1510 C1511 1.400 . S
C1511 C1505 1.491 . S
C1511 C1510 1.400 . S
C1511 C1512 1.398 . S
C1512 H1500 0.950 . S
C1512 C1511 1.398 . S
C1512 C1513 1.391 . S
C1513 H1501 0.950 . S
C1513 C1509 1.393 . S
C1513 C1512 1.391 . S
H1514 C1522 0.950 . S
H1515 C1527 0.950 . S
H1516 C1524 0.950 . S
H1517 C1526 0.950 . S
H1518 C1528 0.950 . S
H1519 C1530 0.950 . S
H1520 C1532 0.950 . S
H1521 C1533 0.950 . S
C1522 H1514 0.950 . S
C1522 C1523 1.386 . S
C1522 C1524 1.391 1_455 S
C1523 C1522 1.386 . S
C1523 C1527 1.393 . S
C1524 H1516 0.950 . S
C1524 C1522 1.391 1_655 S
C1524 C1525 1.400 . S
C1525 C1524 1.400 . S
C1525 C1526 1.398 1_655 S
C1525 C1531 1.491 . S
C1526 H1517 0.950 . S
C1526 C1525 1.398 1_455 S
C1526 C1527 1.391 . S
C1527 H1515 0.950 . S
C1527 C1523 1.393 . S
C1527 C1526 1.391 . S
C1528 H1518 0.950 . S
C1528 C1529 1.386 . S
C1528 C1530 1.391 . S
C1529 C1528 1.386 . S
C1529 C1533 1.393 . S
C1530 H1519 0.950 . S
C1530 C1528 1.391 . S
C1530 C1531 1.400 . S
C1531 C1525 1.491 . S
C1531 C1530 1.400 . S
C1531 C1532 1.398 . S
C1532 H1520 0.950 . S
C1532 C1531 1.398 . S
C1532 C1533 1.391 . S
C1533 H1521 0.950 . S
C1533 C1529 1.393 . S
C1533 C1532 1.391 . S
H1534 C1542 0.950 . S
H1535 C1547 0.950 . S
H1536 C1544 0.950 . S
H1537 C1546 0.950 . S
H1538 C1548 0.950 . S
H1539 C1550 0.950 . S
H1540 C1552 0.950 . S
H1541 C1553 0.950 . S
C1542 H1534 0.950 . S
C1542 C1543 1.386 . S
C1542 C1544 1.391 . S
C1543 C1542 1.386 . S
C1543 C1547 1.393 . S
C1544 H1536 0.950 . S
C1544 C1542 1.391 . S
C1544 C1545 1.400 . S
C1545 C1544 1.400 . S
C1545 C1546 1.398 . S
C1545 C1551 1.491 . S
C1546 H1537 0.950 . S
C1546 C1545 1.398 . S
C1546 C1547 1.391 . S
C1547 H1535 0.950 . S
C1547 C1543 1.393 . S
C1547 C1546 1.391 . S
C1548 H1538 0.950 . S
C1548 C1549 1.386 . S
C1548 C1550 1.391 . S
C1549 C1548 1.386 . S
C1549 C1553 1.393 . S
C1550 H1539 0.950 . S
C1550 C1548 1.391 . S
C1550 C1551 1.400 . S
C1551 C1545 1.491 . S
C1551 C1550 1.400 . S
C1551 C1552 1.398 . S
C1552 H1540 0.950 . S
C1552 C1551 1.398 . S
C1552 C1553 1.391 . S
C1553 H1541 0.950 . S
C1553 C1549 1.393 . S
C1553 C1552 1.391 . S
H1554 C1562 0.950 . S
H1555 C1567 0.950 . S
H1556 C1564 0.950 . S
H1557 C1566 0.950 . S
H1558 C1568 0.950 . S
H1559 C1570 0.950 . S
H1560 C1572 0.950 . S
H1561 C1573 0.950 . S
C1562 H1554 0.950 . S
C1562 C1563 1.386 1_655 S
C1562 C1564 1.391 . S
C1563 C1562 1.386 1_455 S
C1563 C1567 1.393 . S
C1564 H1556 0.950 . S
C1564 C1562 1.391 . S
C1564 C1565 1.400 . S
C1565 C1564 1.400 . S
C1565 C1566 1.398 . S
C1565 C1571 1.491 . S
C1566 H1557 0.950 . S
C1566 C1565 1.398 . S
C1566 C1567 1.391 1_655 S
C1567 H1555 0.950 . S
C1567 C1563 1.393 . S
C1567 C1566 1.391 1_455 S
C1568 H1558 0.950 . S
C1568 C1569 1.386 . S
C1568 C1570 1.391 . S
C1569 C1568 1.386 . S
C1569 C1573 1.393 . S
C1570 H1559 0.950 . S
C1570 C1568 1.391 . S
C1570 C1571 1.400 . S
C1571 C1565 1.491 . S
C1571 C1570 1.400 . S
C1571 C1572 1.398 . S
C1572 H1560 0.950 . S
C1572 C1571 1.398 . S
C1572 C1573 1.391 . S
C1573 H1561 0.950 . S
C1573 C1569 1.393 . S
C1573 C1572 1.391 . S
H1574 C1582 0.950 . S
H1575 C1587 0.950 . S
H1576 C1584 0.950 . S
H1577 C1586 0.950 . S
H1578 C1588 0.950 . S
H1579 C1590 0.950 . S
H1580 C1592 0.950 . S
H1581 C1593 0.950 . S
C1582 H1574 0.950 . S
C1582 C1583 1.386 . S
C1582 C1584 1.391 . S
C1583 C1582 1.386 . S
C1583 C1587 1.393 . S
C1584 H1576 0.950 . S
C1584 C1582 1.391 . S
C1584 C1585 1.400 . S
C1585 C1584 1.400 . S
C1585 C1586 1.398 . S
C1585 C1591 1.491 . S
C1586 H1577 0.950 . S
C1586 C1585 1.398 . S
C1586 C1587 1.391 . S
C1587 H1575 0.950 . S
C1587 C1583 1.393 . S
C1587 C1586 1.391 . S
C1588 H1578 0.950 . S
C1588 C1589 1.386 . S
C1588 C1590 1.391 . S
C1589 C1588 1.386 . S
C1589 C1593 1.393 . S
C1590 H1579 0.950 . S
C1590 C1588 1.391 . S
C1590 C1591 1.400 . S
C1591 C1585 1.491 . S
C1591 C1590 1.400 . S
C1591 C1592 1.398 . S
C1592 H1580 0.950 . S
C1592 C1591 1.398 . S
C1592 C1593 1.391 . S
C1593 H1581 0.950 . S
C1593 C1589 1.393 . S
C1593 C1592 1.391 . S
H1594 C1602 0.950 . S
H1595 C1607 0.950 . S
H1596 C1604 0.950 . S
H1597 C1606 0.950 . S
H1598 C1608 0.950 . S
H1599 C1610 0.950 . S
H1600 C1612 0.950 . S
H1601 C1613 0.950 . S
C1602 H1594 0.950 . S
C1602 C1603 1.386 . S
C1602 C1604 1.391 1_565 S
C1603 C1602 1.386 . S
C1603 C1607 1.393 . S
C1604 H1596 0.950 . S
C1604 C1602 1.391 1_545 S
C1604 C1605 1.400 . S
C1605 C1604 1.400 . S
C1605 C1606 1.398 . S
C1605 C1611 1.491 . S
C1606 H1597 0.950 . S
C1606 C1605 1.398 . S
C1606 C1607 1.391 1_545 S
C1607 H1595 0.950 . S
C1607 C1603 1.393 . S
C1607 C1606 1.391 1_565 S
C1608 H1598 0.950 . S
C1608 C1609 1.386 . S
C1608 C1610 1.391 . S
C1609 C1608 1.386 . S
C1609 C1613 1.393 . S
C1610 H1599 0.950 . S
C1610 C1608 1.391 . S
C1610 C1611 1.400 . S
C1611 C1605 1.491 . S
C1611 C1610 1.400 . S
C1611 C1612 1.398 . S
C1612 H1600 0.950 . S
C1612 C1611 1.398 . S
C1612 C1613 1.391 . S
C1613 H1601 0.950 . S
C1613 C1609 1.393 . S
C1613 C1612 1.391 . S
H1614 C1622 0.950 . S
H1615 C1627 0.950 . S
H1616 C1624 0.950 . S
H1617 C1626 0.950 . S
H1618 C1628 0.950 . S
H1619 C1630 0.950 . S
H1620 C1632 0.950 . S
H1621 C1633 0.950 . S
C1622 H1614 0.950 . S
C1622 C1623 1.386 . S
C1622 C1624 1.391 . S
C1623 C1622 1.386 . S
C1623 C1627 1.393 . S
C1624 H1616 0.950 . S
C1624 C1622 1.391 . S
C1624 C1625 1.400 . S
C1625 C1624 1.400 . S
C1625 C1626 1.398 . S
C1625 C1631 1.491 . S
C1626 H1617 0.950 . S
C1626 C1625 1.398 . S
C1626 C1627 1.391 . S
C1627 H1615 0.950 . S
C1627 C1623 1.393 . S
C1627 C1626 1.391 . S
C1628 H1618 0.950 . S
C1628 C1629 1.386 . S
C1628 C1630 1.391 . S
C1629 C1628 1.386 . S
C1629 C1633 1.393 . S
C1630 H1619 0.950 . S
C1630 C1628 1.391 . S
C1630 C1631 1.400 . S
C1631 C1625 1.491 . S
C1631 C1630 1.400 . S
C1631 C1632 1.398 . S
C1632 H1620 0.950 . S
C1632 C1631 1.398 . S
C1632 C1633 1.391 . S
C1633 H1621 0.950 . S
C1633 C1629 1.393 . S
C1633 C1632 1.391 . S
H1634 C1642 0.950 . S
H1635 C1647 0.950 . S
H1636 C1644 0.950 . S
H1637 C1646 0.950 . S
H1638 C1648 0.950 . S
H1639 C1650 0.950 . S
H1640 C1652 0.950 . S
H1641 C1653 0.950 . S
C1642 H1634 0.950 . S
C1642 C1643 1.386 . S
C1642 C1644 1.391 . S
C1643 C1642 1.386 . S
C1643 C1647 1.393 . S
C1644 H1636 0.950 . S
C1644 C1642 1.391 . S
C1644 C1645 1.400 . S
C1645 C1644 1.400 . S
C1645 C1646 1.398 . S
C1645 C1651 1.491 . S
C1646 H1637 0.950 . S
C1646 C1645 1.398 . S
C1646 C1647 1.391 . S
C1647 H1635 0.950 . S
C1647 C1643 1.393 . S
C1647 C1646 1.391 . S
C1648 H1638 0.950 . S
C1648 C1649 1.386 . S
C1648 C1650 1.391 . S
C1649 C1648 1.386 . S
C1649 C1653 1.393 . S
C1650 H1639 0.950 . S
C1650 C1648 1.391 . S
C1650 C1651 1.400 . S
C1651 C1645 1.491 . S
C1651 C1650 1.400 . S
C1651 C1652 1.398 . S
C1652 H1640 0.950 . S
C1652 C1651 1.398 . S
C1652 C1653 1.391 . S
C1653 H1641 0.950 . S
C1653 C1649 1.393 . S
C1653 C1652 1.391 . S
H1654 C1662 0.950 . S
H1655 C1667 0.950 . S
H1656 C1664 0.950 . S
H1657 C1666 0.950 . S
H1658 C1668 0.950 . S
H1659 C1670 0.950 . S
H1660 C1672 0.950 . S
H1661 C1673 0.950 . S
C1662 H1654 0.950 . S
C1662 C1663 1.386 . S
C1662 C1664 1.391 . S
C1663 C1662 1.386 . S
C1663 C1667 1.393 . S
C1664 H1656 0.950 . S
C1664 C1662 1.391 . S
C1664 C1665 1.400 . S
C1665 C1664 1.400 . S
C1665 C1666 1.398 . S
C1665 C1671 1.491 . S
C1666 H1657 0.950 . S
C1666 C1665 1.398 . S
C1666 C1667 1.391 . S
C1667 H1655 0.950 . S
C1667 C1663 1.393 . S
C1667 C1666 1.391 . S
C1668 H1658 0.950 . S
C1668 C1669 1.386 . S
C1668 C1670 1.391 . S
C1669 C1668 1.386 . S
C1669 C1673 1.393 . S
C1670 H1659 0.950 . S
C1670 C1668 1.391 . S
C1670 C1671 1.400 . S
C1671 C1665 1.491 . S
C1671 C1670 1.400 . S
C1671 C1672 1.398 . S
C1672 H1660 0.950 . S
C1672 C1671 1.398 . S
C1672 C1673 1.391 . S
C1673 H1661 0.950 . S
C1673 C1669 1.393 . S
C1673 C1672 1.391 . S
H1674 C1682 0.950 . S
H1675 C1687 0.950 . S
H1676 C1684 0.950 . S
H1677 C1686 0.950 . S
H1678 C1688 0.950 . S
H1679 C1690 0.950 . S
H1680 C1692 0.950 . S
H1681 C1693 0.950 . S
C1682 H1674 0.950 . S
C1682 C1683 1.386 . S
C1682 C1684 1.391 . S
C1683 C1682 1.386 . S
C1683 C1687 1.393 . S
C1684 H1676 0.950 . S
C1684 C1682 1.391 . S
C1684 C1685 1.400 . S
C1685 C1684 1.400 . S
C1685 C1686 1.398 . S
C1685 C1691 1.491 . S
C1686 H1677 0.950 . S
C1686 C1685 1.398 . S
C1686 C1687 1.391 . S
C1687 H1675 0.950 . S
C1687 C1683 1.393 . S
C1687 C1686 1.391 . S
C1688 H1678 0.950 . S
C1688 C1689 1.386 . S
C1688 C1690 1.391 . S
C1689 C1688 1.386 . S
C1689 C1693 1.393 . S
C1690 H1679 0.950 . S
C1690 C1688 1.391 . S
C1690 C1691 1.400 . S
C1691 C1685 1.491 . S
C1691 C1690 1.400 . S
C1691 C1692 1.398 . S
C1692 H1680 0.950 . S
C1692 C1691 1.398 . S
C1692 C1693 1.391 . S
C1693 H1681 0.950 . S
C1693 C1689 1.393 . S
C1693 C1692 1.391 . S
H1694 C1702 0.950 . S
H1695 C1707 0.950 . S
H1696 C1704 0.950 . S
H1697 C1706 0.950 . S
H1698 C1708 0.950 . S
H1699 C1710 0.950 . S
H1700 C1712 0.950 . S
H1701 C1713 0.950 . S
C1702 H1694 0.950 . S
C1702 C1703 1.386 . S
C1702 C1704 1.391 . S
C1703 C1702 1.386 . S
C1703 C1707 1.393 . S
C1704 H1696 0.950 . S
C1704 C1702 1.391 . S
C1704 C1705 1.400 . S
C1705 C1704 1.400 . S
C1705 C1706 1.398 . S
C1705 C1711 1.491 . S
C1706 H1697 0.950 . S
C1706 C1705 1.398 . S
C1706 C1707 1.391 . S
C1707 H1695 0.950 . S
C1707 C1703 1.393 . S
C1707 C1706 1.391 . S
C1708 H1698 0.950 . S
C1708 C1709 1.386 . S
C1708 C1710 1.391 . S
C1709 C1708 1.386 . S
C1709 C1713 1.393 . S
C1710 H1699 0.950 . S
C1710 C1708 1.391 . S
C1710 C1711 1.400 . S
C1711 C1705 1.491 . S
C1711 C1710 1.400 . S
C1711 C1712 1.398 . S
C1712 H1700 0.950 . S
C1712 C1711 1.398 . S
C1712 C1713 1.391 . S
C1713 H1701 0.950 . S
C1713 C1709 1.393 . S
C1713 C1712 1.391 . S
H1714 C1722 0.950 . S
H1715 C1727 0.950 . S
H1716 C1724 0.950 . S
H1717 C1726 0.950 . S
H1718 C1728 0.950 . S
H1719 C1730 0.950 . S
H1720 C1732 0.950 . S
H1721 C1733 0.950 . S
C1722 H1714 0.950 . S
C1722 C1723 1.386 . S
C1722 C1724 1.391 . S
C1723 C1722 1.386 . S
C1723 C1727 1.393 . S
C1724 H1716 0.950 . S
C1724 C1722 1.391 . S
C1724 C1725 1.400 . S
C1725 C1724 1.400 . S
C1725 C1726 1.398 . S
C1725 C1731 1.491 . S
C1726 H1717 0.950 . S
C1726 C1725 1.398 . S
C1726 C1727 1.391 . S
C1727 H1715 0.950 . S
C1727 C1723 1.393 . S
C1727 C1726 1.391 . S
C1728 H1718 0.950 . S
C1728 C1729 1.386 . S
C1728 C1730 1.391 . S
C1729 C1728 1.386 . S
C1729 C1733 1.393 . S
C1730 H1719 0.950 . S
C1730 C1728 1.391 . S
C1730 C1731 1.400 . S
C1731 C1725 1.491 . S
C1731 C1730 1.400 . S
C1731 C1732 1.398 . S
C1732 H1720 0.950 . S
C1732 C1731 1.398 . S
C1732 C1733 1.391 . S
C1733 H1721 0.950 . S
C1733 C1729 1.393 . S
C1733 C1732 1.391 . S
H1734 C1742 0.950 . S
H1735 C1747 0.950 . S
H1736 C1744 0.950 . S
H1737 C1746 0.950 . S
H1738 C1748 0.950 . S
H1739 C1750 0.950 . S
H1740 C1752 0.950 . S
H1741 C1753 0.950 . S
C1742 H1734 0.950 . S
C1742 C1743 1.386 . S
C1742 C1744 1.391 . S
C1743 C1742 1.386 . S
C1743 C1747 1.393 . S
C1744 H1736 0.950 . S
C1744 C1742 1.391 . S
C1744 C1745 1.400 . S
C1745 C1744 1.400 . S
C1745 C1746 1.398 . S
C1745 C1751 1.491 . S
C1746 H1737 0.950 . S
C1746 C1745 1.398 . S
C1746 C1747 1.391 . S
C1747 H1735 0.950 . S
C1747 C1743 1.393 . S
C1747 C1746 1.391 . S
C1748 H1738 0.950 . S
C1748 C1749 1.386 . S
C1748 C1750 1.391 . S
C1749 C1748 1.386 . S
C1749 C1753 1.393 . S
C1750 H1739 0.950 . S
C1750 C1748 1.391 . S
C1750 C1751 1.400 . S
C1751 C1745 1.491 . S
C1751 C1750 1.400 . S
C1751 C1752 1.398 . S
C1752 H1740 0.950 . S
C1752 C1751 1.398 . S
C1752 C1753 1.391 . S
C1753 H1741 0.950 . S
C1753 C1749 1.393 . S
C1753 C1752 1.391 . S
H1754 C1762 0.950 . S
H1755 C1767 0.950 . S
H1756 C1764 0.950 . S
H1757 C1766 0.950 . S
H1758 C1768 0.950 . S
H1759 C1770 0.950 . S
H1760 C1772 0.950 . S
H1761 C1773 0.950 . S
C1762 H1754 0.950 . S
C1762 C1763 1.386 . S
C1762 C1764 1.391 . S
C1763 C1762 1.386 . S
C1763 C1767 1.393 . S
C1764 H1756 0.950 . S
C1764 C1762 1.391 . S
C1764 C1765 1.400 . S
C1765 C1764 1.400 . S
C1765 C1766 1.398 . S
C1765 C1771 1.491 . S
C1766 H1757 0.950 . S
C1766 C1765 1.398 . S
C1766 C1767 1.391 . S
C1767 H1755 0.950 . S
C1767 C1763 1.393 . S
C1767 C1766 1.391 . S
C1768 H1758 0.950 . S
C1768 C1769 1.386 . S
C1768 C1770 1.391 . S
C1769 C1768 1.386 . S
C1769 C1773 1.393 . S
C1770 H1759 0.950 . S
C1770 C1768 1.391 . S
C1770 C1771 1.400 . S
C1771 C1765 1.491 . S
C1771 C1770 1.400 . S
C1771 C1772 1.398 . S
C1772 H1760 0.950 . S
C1772 C1771 1.398 . S
C1772 C1773 1.391 . S
C1773 H1761 0.950 . S
C1773 C1769 1.393 . S
C1773 C1772 1.391 . S
H1774 C1782 0.950 . S
H1775 C1787 0.950 . S
H1776 C1784 0.950 . S
H1777 C1786 0.950 . S
H1778 C1788 0.950 . S
H1779 C1790 0.950 . S
H1780 C1792 0.950 . S
H1781 C1793 0.950 . S
C1782 H1774 0.950 . S
C1782 C1783 1.386 . S
C1782 C1784 1.391 . S
C1783 C1782 1.386 . S
C1783 C1787 1.393 . S
C1784 H1776 0.950 . S
C1784 C1782 1.391 . S
C1784 C1785 1.400 . S
C1785 C1784 1.400 . S
C1785 C1786 1.398 . S
C1785 C1791 1.491 . S
C1786 H1777 0.950 . S
C1786 C1785 1.398 . S
C1786 C1787 1.391 . S
C1787 H1775 0.950 . S
C1787 C1783 1.393 . S
C1787 C1786 1.391 . S
C1788 H1778 0.950 . S
C1788 C1789 1.386 . S
C1788 C1790 1.391 . S
C1789 C1788 1.386 . S
C1789 C1793 1.393 . S
C1790 H1779 0.950 . S
C1790 C1788 1.391 . S
C1790 C1791 1.400 . S
C1791 C1785 1.491 . S
C1791 C1790 1.400 . S
C1791 C1792 1.398 . S
C1792 H1780 0.950 . S
C1792 C1791 1.398 . S
C1792 C1793 1.391 . S
C1793 H1781 0.950 . S
C1793 C1789 1.393 . S
C1793 C1792 1.391 . S
H1794 C1802 0.950 . S
H1795 C1807 0.950 . S
H1796 C1804 0.950 . S
H1797 C1806 0.950 . S
H1798 C1808 0.950 . S
H1799 C1810 0.950 . S
H1800 C1812 0.950 . S
H1801 C1813 0.950 . S
C1802 H1794 0.950 . S
C1802 C1803 1.386 . S
C1802 C1804 1.391 . S
C1803 C1802 1.386 . S
C1803 C1807 1.393 . S
C1804 H1796 0.950 . S
C1804 C1802 1.391 . S
C1804 C1805 1.400 . S
C1805 C1804 1.400 . S
C1805 C1806 1.398 . S
C1805 C1811 1.491 . S
C1806 H1797 0.950 . S
C1806 C1805 1.398 . S
C1806 C1807 1.391 . S
C1807 H1795 0.950 . S
C1807 C1803 1.393 . S
C1807 C1806 1.391 . S
C1808 H1798 0.950 . S
C1808 C1809 1.386 . S
C1808 C1810 1.391 . S
C1809 C1808 1.386 . S
C1809 C1813 1.393 . S
C1810 H1799 0.950 . S
C1810 C1808 1.391 . S
C1810 C1811 1.400 . S
C1811 C1805 1.491 . S
C1811 C1810 1.400 . S
C1811 C1812 1.398 . S
C1812 H1800 0.950 . S
C1812 C1811 1.398 . S
C1812 C1813 1.391 . S
C1813 H1801 0.950 . S
C1813 C1809 1.393 . S
C1813 C1812 1.391 . S
H1814 C1822 0.950 . S
H1815 C1827 0.950 . S
H1816 C1824 0.950 . S
H1817 C1826 0.950 . S
H1818 C1828 0.950 . S
H1819 C1830 0.950 . S
H1820 C1832 0.950 . S
H1821 C1833 0.950 . S
C1822 H1814 0.950 . S
C1822 C1823 1.386 . S
C1822 C1824 1.391 . S
C1823 C1822 1.386 . S
C1823 C1827 1.393 . S
C1824 H1816 0.950 . S
C1824 C1822 1.391 . S
C1824 C1825 1.400 . S
C1825 C1824 1.400 . S
C1825 C1826 1.398 . S
C1825 C1831 1.491 . S
C1826 H1817 0.950 . S
C1826 C1825 1.398 . S
C1826 C1827 1.391 . S
C1827 H1815 0.950 . S
C1827 C1823 1.393 . S
C1827 C1826 1.391 . S
C1828 H1818 0.950 . S
C1828 C1829 1.386 . S
C1828 C1830 1.391 . S
C1829 C1828 1.386 . S
C1829 C1833 1.393 . S
C1830 H1819 0.950 . S
C1830 C1828 1.391 . S
C1830 C1831 1.400 . S
C1831 C1825 1.491 . S
C1831 C1830 1.400 . S
C1831 C1832 1.398 . S
C1832 H1820 0.950 . S
C1832 C1831 1.398 . S
C1832 C1833 1.391 . S
C1833 H1821 0.950 . S
C1833 C1829 1.393 . S
C1833 C1832 1.391 . S
H1834 C1842 0.950 . S
H1835 C1847 0.950 . S
H1836 C1844 0.950 . S
H1837 C1846 0.950 . S
H1838 C1848 0.950 . S
H1839 C1850 0.950 . S
H1840 C1852 0.950 . S
H1841 C1853 0.950 . S
C1842 H1834 0.950 . S
C1842 C1843 1.386 . S
C1842 C1844 1.391 . S
C1843 C1842 1.386 . S
C1843 C1847 1.393 . S
C1844 H1836 0.950 . S
C1844 C1842 1.391 . S
C1844 C1845 1.400 . S
C1845 C1844 1.400 . S
C1845 C1846 1.398 . S
C1845 C1851 1.491 . S
C1846 H1837 0.950 . S
C1846 C1845 1.398 . S
C1846 C1847 1.391 . S
C1847 H1835 0.950 . S
C1847 C1843 1.393 . S
C1847 C1846 1.391 . S
C1848 H1838 0.950 . S
C1848 C1849 1.386 . S
C1848 C1850 1.391 . S
C1849 C1848 1.386 . S
C1849 C1853 1.393 . S
C1850 H1839 0.950 . S
C1850 C1848 1.391 . S
C1850 C1851 1.400 . S
C1851 C1845 1.491 . S
C1851 C1850 1.400 . S
C1851 C1852 1.398 . S
C1852 H1840 0.950 . S
C1852 C1851 1.398 . S
C1852 C1853 1.391 . S
C1853 H1841 0.950 . S
C1853 C1849 1.393 . S
C1853 C1852 1.391 . S
H1854 C1862 0.950 . S
H1855 C1867 0.950 . S
H1856 C1864 0.950 . S
H1857 C1866 0.950 . S
H1858 C1868 0.950 . S
H1859 C1870 0.950 . S
H1860 C1872 0.950 . S
H1861 C1873 0.950 . S
C1862 H1854 0.950 . S
C1862 C1863 1.386 . S
C1862 C1864 1.391 . S
C1863 C1862 1.386 . S
C1863 C1867 1.393 . S
C1864 H1856 0.950 . S
C1864 C1862 1.391 . S
C1864 C1865 1.400 . S
C1865 C1864 1.400 . S
C1865 C1866 1.398 . S
C1865 C1871 1.491 . S
C1866 H1857 0.950 . S
C1866 C1865 1.398 . S
C1866 C1867 1.391 . S
C1867 H1855 0.950 . S
C1867 C1863 1.393 . S
C1867 C1866 1.391 . S
C1868 H1858 0.950 . S
C1868 C1869 1.386 . S
C1868 C1870 1.391 . S
C1869 C1868 1.386 . S
C1869 C1873 1.393 . S
C1870 H1859 0.950 . S
C1870 C1868 1.391 . S
C1870 C1871 1.400 . S
C1871 C1865 1.491 . S
C1871 C1870 1.400 . S
C1871 C1872 1.398 . S
C1872 H1860 0.950 . S
C1872 C1871 1.398 . S
C1872 C1873 1.391 . S
C1873 H1861 0.950 . S
C1873 C1869 1.393 . S
C1873 C1872 1.391 . S
H1874 C1882 0.950 . S
H1875 C1887 0.950 . S
H1876 C1884 0.950 . S
H1877 C1886 0.950 . S
H1878 C1888 0.950 . S
H1879 C1890 0.950 . S
H1880 C1892 0.950 . S
H1881 C1893 0.950 . S
C1882 H1874 0.950 . S
C1882 C1883 1.386 . S
C1882 C1884 1.391 . S
C1883 C1882 1.386 . S
C1883 C1887 1.393 . S
C1884 H1876 0.950 . S
C1884 C1882 1.391 . S
C1884 C1885 1.400 . S
C1885 C1884 1.400 . S
C1885 C1886 1.398 . S
C1885 C1891 1.491 . S
C1886 H1877 0.950 . S
C1886 C1885 1.398 . S
C1886 C1887 1.391 . S
C1887 H1875 0.950 . S
C1887 C1883 1.393 . S
C1887 C1886 1.391 . S
C1888 H1878 0.950 . S
C1888 C1889 1.386 . S
C1888 C1890 1.391 . S
C1889 C1888 1.386 . S
C1889 C1893 1.393 . S
C1890 H1879 0.950 . S
C1890 C1888 1.391 . S
C1890 C1891 1.400 . S
C1891 C1885 1.491 . S
C1891 C1890 1.400 . S
C1891 C1892 1.398 . S
C1892 H1880 0.950 . S
C1892 C1891 1.398 . S
C1892 C1893 1.391 . S
C1893 H1881 0.950 . S
C1893 C1889 1.393 . S
C1893 C1892 1.391 . S
H1894 C1902 0.950 . S
H1895 C1907 0.950 . S
H1896 C1904 0.950 . S
H1897 C1906 0.950 . S
H1898 C1908 0.950 . S
H1899 C1910 0.950 . S
H1900 C1912 0.950 . S
H1901 C1913 0.950 . S
C1902 H1894 0.950 . S
C1902 C1903 1.386 . S
C1902 C1904 1.391 . S
C1903 C1902 1.386 . S
C1903 C1907 1.393 . S
C1904 H1896 0.950 . S
C1904 C1902 1.391 . S
C1904 C1905 1.400 . S
C1905 C1904 1.400 . S
C1905 C1906 1.398 . S
C1905 C1911 1.491 . S
C1906 H1897 0.950 . S
C1906 C1905 1.398 . S
C1906 C1907 1.391 . S
C1907 H1895 0.950 . S
C1907 C1903 1.393 . S
C1907 C1906 1.391 . S
C1908 H1898 0.950 . S
C1908 C1909 1.386 . S
C1908 C1910 1.391 . S
C1909 C1908 1.386 . S
C1909 C1913 1.393 . S
C1910 H1899 0.950 . S
C1910 C1908 1.391 . S
C1910 C1911 1.400 . S
C1911 C1905 1.491 . S
C1911 C1910 1.400 . S
C1911 C1912 1.398 . S
C1912 H1900 0.950 . S
C1912 C1911 1.398 . S
C1912 C1913 1.391 . S
C1913 H1901 0.950 . S
C1913 C1909 1.393 . S
C1913 C1912 1.391 . S
H1914 C1922 0.950 . S
H1915 C1927 0.950 . S
H1916 C1924 0.950 . S
H1917 C1926 0.950 . S
H1918 C1928 0.950 . S
H1919 C1930 0.950 . S
H1920 C1932 0.950 . S
H1921 C1933 0.950 . S
C1922 H1914 0.950 . S
C1922 C1923 1.386 . S
C1922 C1924 1.391 . S
C1923 C1922 1.386 . S
C1923 C1927 1.393 . S
C1924 H1916 0.950 . S
C1924 C1922 1.391 . S
C1924 C1925 1.400 . S
C1925 C1924 1.400 . S
C1925 C1926 1.398 . S
C1925 C1931 1.491 . S
C1926 H1917 0.950 . S
C1926 C1925 1.398 . S
C1926 C1927 1.391 . S
C1927 H1915 0.950 . S
C1927 C1923 1.393 . S
C1927 C1926 1.391 . S
C1928 H1918 0.950 . S
C1928 C1929 1.386 . S
C1928 C1930 1.391 . S
C1929 C1928 1.386 . S
C1929 C1933 1.393 . S
C1930 H1919 0.950 . S
C1930 C1928 1.391 . S
C1930 C1931 1.400 . S
C1931 C1925 1.491 . S
C1931 C1930 1.400 . S
C1931 C1932 1.398 . S
C1932 H1920 0.950 . S
C1932 C1931 1.398 . S
C1932 C1933 1.391 . S
C1933 H1921 0.950 . S
C1933 C1929 1.393 . S
C1933 C1932 1.391 . S
H1934 C1942 0.950 . S
H1935 C1947 0.950 . S
H1936 C1944 0.950 . S
H1937 C1946 0.950 . S
H1938 C1948 0.950 . S
H1939 C1950 0.950 . S
H1940 C1952 0.950 . S
H1941 C1953 0.950 . S
C1942 H1934 0.950 . S
C1942 C1943 1.386 . S
C1942 C1944 1.391 . S
C1943 C1942 1.386 . S
C1943 C1947 1.393 . S
C1944 H1936 0.950 . S
C1944 C1942 1.391 . S
C1944 C1945 1.400 . S
C1945 C1944 1.400 . S
C1945 C1946 1.398 . S
C1945 C1951 1.491 . S
C1946 H1937 0.950 . S
C1946 C1945 1.398 . S
C1946 C1947 1.391 . S
C1947 H1935 0.950 . S
C1947 C1943 1.393 . S
C1947 C1946 1.391 . S
C1948 H1938 0.950 . S
C1948 C1949 1.386 . S
C1948 C1950 1.391 . S
C1949 C1948 1.386 . S
C1949 C1953 1.393 . S
C1950 H1939 0.950 . S
C1950 C1948 1.391 . S
C1950 C1951 1.400 . S
C1951 C1945 1.491 . S
C1951 C1950 1.400 . S
C1951 C1952 1.398 . S
C1952 H1940 0.950 . S
C1952 C1951 1.398 . S
C1952 C1953 1.391 . S
C1953 H1941 0.950 . S
C1953 C1949 1.393 . S
C1953 C1952 1.391 . S
H1954 C1962 0.950 . S
H1955 C1967 0.950 . S
H1956 C1964 0.950 . S
H1957 C1966 0.950 . S
H1958 C1968 0.950 . S
H1959 C1970 0.950 . S
H1960 C1972 0.950 . S
H1961 C1973 0.950 . S
C1962 H1954 0.950 . S
C1962 C1963 1.386 . S
C1962 C1964 1.391 . S
C1963 C1962 1.386 . S
C1963 C1967 1.393 . S
C1964 H1956 0.950 . S
C1964 C1962 1.391 . S
C1964 C1965 1.400 . S
C1965 C1964 1.400 . S
C1965 C1966 1.398 . S
C1965 C1971 1.491 . S
C1966 H1957 0.950 . S
C1966 C1965 1.398 . S
C1966 C1967 1.391 . S
C1967 H1955 0.950 . S
C1967 C1963 1.393 . S
C1967 C1966 1.391 . S
C1968 H1958 0.950 . S
C1968 C1969 1.386 . S
C1968 C1970 1.391 . S
C1969 C1968 1.386 . S
C1969 C1973 1.393 . S
C1970 H1959 0.950 . S
C1970 C1968 1.391 . S
C1970 C1971 1.400 . S
C1971 C1965 1.491 . S
C1971 C1970 1.400 . S
C1971 C1972 1.398 . S
C1972 H1960 0.950 . S
C1972 C1971 1.398 . S
C1972 C1973 1.391 . S
C1973 H1961 0.950 . S
C1973 C1969 1.393 . S
C1973 C1972 1.391 . S
H1974 C1982 0.950 . S
H1975 C1987 0.950 . S
H1976 C1984 0.950 . S
H1977 C1986 0.950 . S
H1978 C1988 0.950 . S
H1979 C1990 0.950 . S
H1980 C1992 0.950 . S
H1981 C1993 0.950 . S
C1982 H1974 0.950 . S
C1982 C1983 1.386 . S
C1982 C1984 1.391 . S
C1983 C1982 1.386 . S
C1983 C1987 1.393 . S
C1984 H1976 0.950 . S
C1984 C1982 1.391 . S
C1984 C1985 1.400 . S
C1985 C1984 1.400 . S
C1985 C1986 1.398 . S
C1985 C1991 1.491 . S
C1986 H1977 0.950 . S
C1986 C1985 1.398 . S
C1986 C1987 1.391 . S
C1987 H1975 0.950 . S
C1987 C1983 1.393 . S
C1987 C1986 1.391 . S
C1988 H1978 0.950 . S
C1988 C1989 1.386 . S
C1988 C1990 1.391 . S
C1989 C1988 1.386 . S
C1989 C1993 1.393 . S
C1990 H1979 0.950 . S
C1990 C1988 1.391 . S
C1990 C1991 1.400 . S
C1991 C1985 1.491 . S
C1991 C1990 1.400 . S
C1991 C1992 1.398 . S
C1992 H1980 0.950 . S
C1992 C1991 1.398 . S
C1992 C1993 1.391 . S
C1993 H1981 0.950 . S
C1993 C1989 1.393 . S
C1993 C1992 1.391 . S
H1994 C2002 0.950 . S
H1995 C2007 0.950 . S
H1996 C2004 0.950 . S
H1997 C2006 0.950 . S
H1998 C2008 0.950 . S
H1999 C2010 0.950 . S
H2000 C2012 0.950 . S
H2001 C2013 0.950 . S
C2002 H1994 0.950 . S
C2002 C2003 1.386 . S
C2002 C2004 1.391 . S
C2003 C2002 1.386 . S
C2003 C2007 1.393 . S
C2004 H1996 0.950 . S
C2004 C2002 1.391 . S
C2004 C2005 1.400 . S
C2005 C2004 1.400 . S
C2005 C2006 1.398 . S
C2005 C2011 1.491 . S
C2006 H1997 0.950 . S
C2006 C2005 1.398 . S
C2006 C2007 1.391 . S
C2007 H1995 0.950 . S
C2007 C2003 1.393 . S
C2007 C2006 1.391 . S
C2008 H1998 0.950 . S
C2008 C2009 1.386 . S
C2008 C2010 1.391 . S
C2009 C2008 1.386 . S
C2009 C2013 1.393 . S
C2010 H1999 0.950 . S
C2010 C2008 1.391 . S
C2010 C2011 1.400 . S
C2011 C2005 1.491 . S
C2011 C2010 1.400 . S
C2011 C2012 1.398 . S
C2012 H2000 0.950 . S
C2012 C2011 1.398 . S
C2012 C2013 1.391 . S
C2013 H2001 0.950 . S
C2013 C2009 1.393 . S
C2013 C2012 1.391 . S
H2014 C2022 0.950 . S
H2015 C2027 0.950 . S
H2016 C2024 0.950 . S
H2017 C2026 0.950 . S
H2018 C2028 0.950 . S
H2019 C2030 0.950 . S
H2020 C2032 0.950 . S
H2021 C2033 0.950 . S
C2022 H2014 0.950 . S
C2022 C2023 1.386 . S
C2022 C2024 1.391 . S
C2023 C2022 1.386 . S
C2023 C2027 1.393 . S
C2024 H2016 0.950 . S
C2024 C2022 1.391 . S
C2024 C2025 1.400 . S
C2025 C2024 1.400 . S
C2025 C2026 1.398 . S
C2025 C2031 1.491 . S
C2026 H2017 0.950 . S
C2026 C2025 1.398 . S
C2026 C2027 1.391 . S
C2027 H2015 0.950 . S
C2027 C2023 1.393 . S
C2027 C2026 1.391 . S
C2028 H2018 0.950 . S
C2028 C2029 1.386 . S
C2028 C2030 1.391 . S
C2029 C2028 1.386 . S
C2029 C2033 1.393 . S
C2030 H2019 0.950 . S
C2030 C2028 1.391 . S
C2030 C2031 1.400 . S
C2031 C2025 1.491 . S
C2031 C2030 1.400 . S
C2031 C2032 1.398 . S
C2032 H2020 0.950 . S
C2032 C2031 1.398 . S
C2032 C2033 1.391 . S
C2033 H2021 0.950 . S
C2033 C2029 1.393 . S
C2033 C2032 1.391 . S
C963 C151 1.113 . S
C969 C254 1.111 . S
C983 C159 1.702 . S
C989 C338 1.785 . S
C1003 C137 1.322 . S
C1009 C432 1.433 . S
C1023 C126 1.243 . S
C1029 C348 1.429 1_556 S
C1049 C422 1.745 . S
C1043 C104 1.633 . S
C1063 C118 1.073 . S
C1069 C264 1.075 1_556 S
C1089 C265 1.344 . S
C1083 C129 1.407 . S
C1109 C349 1.547 . S
C1103 C107 1.621 . S
C1123 C115 1.259 . S
C1129 C441 1.438 . S
C1143 C148 1.234 . S
C1149 C357 1.411 . S
C1163 C162 1.573 . S
C1169 C433 1.490 . S
C1189 C273 1.342 . S
C1183 C140 1.380 . S
C1209 C506 1.075 . S
C1203 C19 1.130 . S
C1223 C27 1.695 . S
C1229 C590 1.772 . S
C1243 C5 1.289 . S
C1249 C684 1.452 . S
C1263 C192 1.270 . S
C1269 C600 1.421 . S
C1283 C170 1.665 . S
C1289 C674 1.728 . S
C1303 C184 1.072 . S
C1309 C516 1.078 . S
C1323 C195 1.414 . S
C1329 C517 1.337 . S
C1343 C173 1.618 . S
C1349 C601 1.560 . S
C1369 C693 1.430 . S
C1363 C181 1.228 . S
C1383 C16 1.241 . S
C1389 C609 1.408 . S
C1409 C685 1.511 . S
C1403 C30 1.571 . S
C1423 C8 1.370 . S
C1429 C525 1.356 . S
C1449 C758 1.075 . S
C1443 C85 1.129 . S
C1463 C93 1.670 . S
C1469 C842 1.788 . S
C1489 C936 1.448 . S
C1483 C71 1.288 . S
C1509 C852 1.427 . S
C1503 C60 1.245 . S
C1529 C926 1.732 . S
C1523 C38 1.667 . S
C1543 C52 1.072 . S
C1549 C768 1.075 . S
C1563 C63 1.404 . S
C1569 C769 1.366 . S
C1583 C41 1.620 . S
C1589 C853 1.553 . S
C1609 C945 1.429 . S
C1603 C49 1.228 . S
C1623 C82 1.257 . S
C1629 C861 1.421 . S
C1643 C96 1.570 . S
C1649 C937 1.511 . S
C1663 C74 1.379 . S
C1669 C777 1.339 . S
C1683 C172 1.591 . S
C1689 C261 1.505 . S
C1709 C345 1.236 . S
C1703 C183 1.311 . S
C1723 C194 1.462 . S
C1729 C438 1.361 . S
C1743 C73 1.502 . S
C1749 C354 1.376 . S
C1763 C84 1.260 . S
C1769 C429 1.188 . S
C1789 C270 1.455 . S
C1783 C95 1.599 . S
C1803 C40 1.596 . S
C1809 C513 1.479 . S
C1823 C51 1.300 . S
C1829 C597 1.235 . S
C1843 C62 1.475 . S
C1849 C690 1.321 . S
C1863 C139 1.494 . S
C1869 C606 1.370 . S
C1889 C681 1.196 . S
C1883 C150 1.289 . S
C1903 C161 1.586 . S
C1909 C522 1.492 . S
C1923 C106 1.590 . S
C1929 C765 1.498 . S
C1943 C117 1.286 . S
C1949 C849 1.201 . S
C1969 C942 1.342 . S
C1963 C128 1.475 . S
C1983 C7 1.515 . S
C1989 C858 1.341 . S
C2003 C18 1.271 . S
C2009 C933 1.166 . S
C2023 C29 1.579 . S
C2029 C774 1.494 . S
