# Generated by pormake.
# Topology ssa, (4,4)-cn, num edge types: 1
# Building blocks:
#     Node 0, Type 0, BuildingBlock: KOZSID_clean_sbu_0, # of connection points: 4
#     Node 1, Type 0, BuildingBlock: KOZSID_clean_sbu_0, # of connection points: 4
#     Node 2, Type 0, BuildingBlock: KOZSID_clean_sbu_0, # of connection points: 4
#     Node 3, Type 0, BuildingBlock: KOZSID_clean_sbu_0, # of connection points: 4
#     Node 4, Type 0, BuildingBlock: KOZSID_clean_sbu_0, # of connection points: 4
#     Node 5, Type 0, BuildingBlock: KOZSID_clean_sbu_0, # of connection points: 4
#     Node 6, Type 1, BuildingBlock: NAWXER_clean_sbu_0, # of connection points: 4
#     Node 7, Type 1, BuildingBlock: NAWXER_clean_sbu_0, # of connection points: 4
#     Node 8, Type 1, BuildingBlock: NAWXER_clean_sbu_0, # of connection points: 4
#     Node 9, Type 1, BuildingBlock: NAWXER_clean_sbu_0, # of connection points: 4
#     Node 10, Type 1, BuildingBlock: NAWXER_clean_sbu_0, # of connection points: 4
#     Node 11, Type 1, BuildingBlock: NAWXER_clean_sbu_0, # of connection points: 4
#     Edge 12, Type (0, 1), BuildingBlock: KIFKEQ_clean_linker_1, # of connection points: 2
#     Edge 13, Type (0, 1), BuildingBlock: KIFKEQ_clean_linker_1, # of connection points: 2
#     Edge 14, Type (0, 1), BuildingBlock: KIFKEQ_clean_linker_1, # of connection points: 2
#     Edge 15, Type (0, 1), BuildingBlock: KIFKEQ_clean_linker_1, # of connection points: 2
#     Edge 16, Type (0, 1), BuildingBlock: KIFKEQ_clean_linker_1, # of connection points: 2
#     Edge 17, Type (0, 1), BuildingBlock: KIFKEQ_clean_linker_1, # of connection points: 2
#     Edge 18, Type (0, 1), BuildingBlock: KIFKEQ_clean_linker_1, # of connection points: 2
#     Edge 19, Type (0, 1), BuildingBlock: KIFKEQ_clean_linker_1, # of connection points: 2
#     Edge 20, Type (0, 1), BuildingBlock: KIFKEQ_clean_linker_1, # of connection points: 2
#     Edge 21, Type (0, 1), BuildingBlock: KIFKEQ_clean_linker_1, # of connection points: 2
#     Edge 22, Type (0, 1), BuildingBlock: KIFKEQ_clean_linker_1, # of connection points: 2
#     Edge 23, Type (0, 1), BuildingBlock: KIFKEQ_clean_linker_1, # of connection points: 2
#     Edge 24, Type (0, 1), BuildingBlock: KIFKEQ_clean_linker_1, # of connection points: 2
#     Edge 25, Type (0, 1), BuildingBlock: KIFKEQ_clean_linker_1, # of connection points: 2
#     Edge 26, Type (0, 1), BuildingBlock: KIFKEQ_clean_linker_1, # of connection points: 2
#     Edge 27, Type (0, 1), BuildingBlock: KIFKEQ_clean_linker_1, # of connection points: 2
#     Edge 28, Type (0, 1), BuildingBlock: KIFKEQ_clean_linker_1, # of connection points: 2
#     Edge 29, Type (0, 1), BuildingBlock: KIFKEQ_clean_linker_1, # of connection points: 2
#     Edge 30, Type (0, 1), BuildingBlock: KIFKEQ_clean_linker_1, # of connection points: 2
#     Edge 31, Type (0, 1), BuildingBlock: KIFKEQ_clean_linker_1, # of connection points: 2
#     Edge 32, Type (0, 1), BuildingBlock: KIFKEQ_clean_linker_1, # of connection points: 2
#     Edge 33, Type (0, 1), BuildingBlock: KIFKEQ_clean_linker_1, # of connection points: 2
#     Edge 34, Type (0, 1), BuildingBlock: KIFKEQ_clean_linker_1, # of connection points: 2
#     Edge 35, Type (0, 1), BuildingBlock: KIFKEQ_clean_linker_1, # of connection points: 2
# Relax obj value: 0.011
# Max RMSD: 0.029
# Mean RMSD: 0.017
data_MOF--net-ssa--node1-KOZSID_clean_sbu_0--node2-NAWXER_clean_sbu_0--edge1-KIFKEQ_clean_linker_1
_symmetry_space_group_name_H-M    P1
_symmetry_Int_Tables_number       1
_symmetry_cell_setting            triclinic
loop_
_symmetry_equiv_pos_as_xyz
'x, y, z'
_cell_length_a     50.119911
_cell_length_b     51.50832
_cell_length_c     42.620979
_cell_angle_alpha  87.259716
_cell_angle_beta   89.955166
_cell_angle_gamma 122.69616
loop_
_atom_site_label
_atom_site_type_symbol
_atom_site_fract_x
_atom_site_fract_y
_atom_site_fract_z
_atom_type_partial_charge
C0 C 0.93459 0.50811 0.00393 0.0
C1 C 0.90656 0.49853 0.02033 0.0
C2 C 0.90661 0.48318 0.04733 0.0
C3 C 0.9346 0.48437 0.0458 0.0
N4 N 0.95285 0.50042 0.01996 0.0
Co5 Co 0.99377 0.50553 0.00644 0.0
N6 N 0.99142 0.47826 0.04303 0.0
C7 C 0.96785 0.4633 0.06527 0.0
C8 C 0.97426 0.44883 0.08909 0.0
C9 C 0.00405 0.45567 0.08219 0.0
C10 C 0.01411 0.47386 0.05429 0.0
N11 N 0.03472 0.5106 0.99295 0.0
C12 C 0.05299 0.50271 0.00882 0.0
C13 C 0.08073 0.51192 0.99202 0.0
C14 C 0.08056 0.52725 0.96507 0.0
C15 C 0.05277 0.52639 0.9669 0.0
N16 N 0.99629 0.5329 0.96992 0.0
C17 C 0.01984 0.54794 0.9477 0.0
C18 C 0.01347 0.56265 0.92409 0.0
C19 C 0.98368 0.5558 0.93111 0.0
C20 C 0.97364 0.53733 0.95881 0.0
N21 N 0.01788 0.54207 0.03243 0.0
C22 C 0.0547 0.59243 0.07057 0.0
C23 C 0.0635 0.59357 0.03914 0.0
C24 C 0.04497 0.56843 0.02072 0.0
C25 C 0.02654 0.56591 0.08223 0.0
C26 C 0.00864 0.54131 0.06293 0.0
N27 N 0.96924 0.46916 0.98016 0.0
C28 C 0.95636 0.44944 0.92814 0.0
C29 C 0.92679 0.42437 0.93903 0.0
C30 C 0.91995 0.42087 0.97136 0.0
C31 C 0.94138 0.44326 0.99135 0.0
C32 C 0.97721 0.47107 0.94897 0.0
H33 H 0.93434 0.43973 0.01556 0.0
H34 H 0.99919 0.48972 0.93905 0.0
H35 H 0.05338 0.57071 0.99719 0.0
H36 H 0.98775 0.52166 0.07346 0.0
C37 C 0.94233 0.4672 0.06571 0.0
C38 C 0.94132 0.52141 0.97184 0.0
C39 C 0.04632 0.48896 0.04085 0.0
C40 C 0.04516 0.54372 0.94704 0.0
H41 H 0.8874 0.50098 0.0127 0.0
H42 H 0.88762 0.47091 0.06493 0.0
H43 H 0.95991 0.43657 0.11009 0.0
H44 H 0.01729 0.44925 0.09704 0.0
H45 H 0.09976 0.5091 0.99926 0.0
H46 H 0.09935 0.53922 0.94723 0.0
H47 H 0.0278 0.57501 0.9031 0.0
H48 H 0.97036 0.56229 0.9165 0.0
H49 H 0.08476 0.61375 0.02869 0.0
H50 H 0.01873 0.56363 0.10648 0.0
H51 H 0.96334 0.45259 0.90349 0.0
H52 H 0.89757 0.40161 0.98112 0.0
C53 C 0.53133 0.01926 0.55854 0.0
C54 C 0.52809 0.00699 0.58899 0.0
C55 C 0.49815 0.98111 0.59205 0.0
C56 C 0.48492 0.97903 0.56335 0.0
N57 N 0.50499 0.0015 0.54191 0.0
Co58 Co 0.495 0.00932 0.49831 0.0
N59 N 0.44861 0.97701 0.50548 0.0
C60 C 0.43445 0.95935 0.53223 0.0
C61 C 0.40261 0.93824 0.52972 0.0
C62 C 0.39611 0.94223 0.49942 0.0
C63 C 0.4245 0.96569 0.4851 0.0
N64 N 0.48521 0.01697 0.45455 0.0
C65 C 0.45775 0.00147 0.43891 0.0
C66 C 0.46155 0.01321 0.4081 0.0
C67 C 0.49272 0.03638 0.40384 0.0
C68 C 0.5061 0.03752 0.4322 0.0
N69 N 0.54128 0.04231 0.49166 0.0
C70 C 0.55576 0.05976 0.4649 0.0
C71 C 0.58678 0.08293 0.46848 0.0
C72 C 0.59216 0.0809 0.49961 0.0
C73 C 0.56403 0.05636 0.51325 0.0
N74 N 0.50171 0.97738 0.48238 0.0
C75 C 0.50356 0.93021 0.4536 0.0
C76 C 0.52321 0.96099 0.44259 0.0
C77 C 0.5218 0.98401 0.45711 0.0
C78 C 0.48427 0.92352 0.48018 0.0
C79 C 0.48422 0.94735 0.49447 0.0
N80 N 0.48834 0.04095 0.51411 0.0
C81 C 0.50356 0.0942 0.51339 0.0
C82 C 0.48961 0.08935 0.54324 0.0
C83 C 0.47318 0.05944 0.55726 0.0
C84 C 0.4727 0.03575 0.54233 0.0
C85 C 0.50225 0.06968 0.49912 0.0
H86 H 0.46069 0.01371 0.5547 0.0
H87 H 0.51357 0.07471 0.47647 0.0
H88 H 0.53662 0.00681 0.44689 0.0
H89 H 0.46927 0.94065 0.51487 0.0
C90 C 0.45242 0.96062 0.55796 0.0
C91 C 0.55881 0.04904 0.54713 0.0
C92 C 0.4281 0.97435 0.45149 0.0
C93 C 0.53837 0.05658 0.43813 0.0
H94 H 0.54504 0.01668 0.60748 0.0
H95 H 0.4866 0.96696 0.61336 0.0
H96 H 0.38638 0.92092 0.54733 0.0
H97 H 0.37332 0.92846 0.4888 0.0
H98 H 0.44377 0.00518 0.39033 0.0
H99 H 0.50443 0.05012 0.38237 0.0
H100 H 0.60288 0.10055 0.45102 0.0
H101 H 0.61383 0.09679 0.51113 0.0
H102 H 0.53876 0.96715 0.42213 0.0
H103 H 0.46922 0.89997 0.48987 0.0
H104 H 0.51582 0.11688 0.5013 0.0
H105 H 0.46191 0.05452 0.58037 0.0
C106 C 0.56031 0.55349 0.94939 0.0
C107 C 0.56428 0.57062 0.92172 0.0
C108 C 0.53604 0.56811 0.91685 0.0
C109 C 0.51657 0.54972 0.9418 0.0
N110 N 0.53103 0.54114 0.96276 0.0
Co111 Co 0.51114 0.51242 1.00102 0.0
N112 N 0.46782 0.50222 0.98978 0.0
C113 C 0.45996 0.5121 0.96352 0.0
C114 C 0.42844 0.50201 0.96291 0.0
C115 C 0.41562 0.48541 0.99081 0.0
C116 C 0.44022 0.48655 0.00696 0.0
N117 N 0.49133 0.48445 0.03992 0.0
C118 C 0.46182 0.47184 0.05303 0.0
C119 C 0.45886 0.45724 0.08224 0.0
C120 C 0.48759 0.46121 0.08803 0.0
C121 C 0.5065 0.47815 0.06229 0.0
N122 N 0.55447 0.52179 0.01144 0.0
C123 C 0.5622 0.51073 0.03687 0.0
C124 C 0.59288 0.51807 0.03574 0.0
C125 C 0.60518 0.5338 0.00737 0.0
C126 C 0.58123 0.53529 0.99287 0.0
N127 N 0.51719 0.54703 0.02552 0.0
C128 C 0.51465 0.58709 0.06645 0.0
C129 C 0.53045 0.57233 0.07459 0.0
C130 C 0.53162 0.55278 0.05389 0.0
C131 C 0.50189 0.58299 0.03663 0.0
C132 C 0.5038 0.56334 0.01652 0.0
N133 N 0.50504 0.47782 0.97675 0.0
C134 C 0.51313 0.43602 0.97146 0.0
C135 C 0.50812 0.436 0.93925 0.0
C136 C 0.49946 0.45582 0.92654 0.0
C137 C 0.49777 0.47617 0.94564 0.0
C138 C 0.51128 0.45684 0.98968 0.0
H139 H 0.49147 0.491 0.93449 0.0
H140 H 0.51603 0.4562 0.01395 0.0
H141 H 0.54345 0.54183 0.06188 0.0
H142 H 0.4935 0.56108 0.99416 0.0
C143 C 0.48352 0.53488 0.94269 0.0
C144 C 0.58372 0.54689 0.96035 0.0
C145 C 0.43707 0.4756 0.0398 0.0
C146 C 0.53916 0.49078 0.05968 0.0
H147 H 0.58485 0.58216 0.90585 0.0
H148 H 0.52971 0.57654 0.89627 0.0
H149 H 0.41664 0.50778 0.94529 0.0
H150 H 0.39135 0.47513 0.99918 0.0
H151 H 0.4386 0.44598 0.09841 0.0
H152 H 0.49434 0.454 0.10921 0.0
H153 H 0.60433 0.51118 0.05267 0.0
H154 H 0.62859 0.54191 0.99787 0.0
H155 H 0.54095 0.57492 0.09735 0.0
H156 H 0.4903 0.59473 0.02887 0.0
H157 H 0.51955 0.42083 0.98245 0.0
H158 H 0.49431 0.45588 0.90187 0.0
C159 C 0.95509 0.42886 0.52221 0.0
C160 C 0.92565 0.40798 0.51037 0.0
C161 C 0.92183 0.42274 0.48501 0.0
C162 C 0.94904 0.45164 0.48282 0.0
N163 N 0.97025 0.45611 0.505 0.0
Co164 Co 0.01233 0.49508 0.5113 0.0
N165 N 0.0068 0.51684 0.47408 0.0
C166 C 0.98155 0.50541 0.4553 0.0
C167 C 0.98589 0.52498 0.43004 0.0
C168 C 0.01603 0.55006 0.43234 0.0
C169 C 0.02831 0.54425 0.45896 0.0
N170 N 0.05412 0.53425 0.51794 0.0
C171 C 0.07059 0.5604 0.49911 0.0
C172 C 0.09952 0.5817 0.51159 0.0
C173 C 0.10168 0.56823 0.53899 0.0
C174 C 0.07411 0.53962 0.54163 0.0
N175 N 0.01845 0.47311 0.54793 0.0
C176 C 0.04375 0.48479 0.56662 0.0
C177 C 0.04115 0.46422 0.58995 0.0
C178 C 0.01231 0.43786 0.58612 0.0
C179 C 0.99897 0.44395 0.56058 0.0
N180 N 0.03368 0.48164 0.48288 0.0
C181 C 0.06561 0.46679 0.43934 0.0
C182 C 0.08001 0.48147 0.4669 0.0
C183 C 0.06363 0.48824 0.48833 0.0
C184 C 0.03446 0.45882 0.43478 0.0
C185 C 0.0193 0.46666 0.45635 0.0
N186 N 0.99065 0.50845 0.53978 0.0
C187 C 0.98521 0.52569 0.59014 0.0
C188 C 0.9561 0.52128 0.58202 0.0
C189 C 0.94519 0.51151 0.55211 0.0
C190 C 0.96288 0.50579 0.53142 0.0
C191 C 1.00185 0.51894 0.56893 0.0
H192 H 0.95319 0.49872 0.50898 0.0
H193 H 0.02336 0.52181 0.57693 0.0
H194 H 0.07587 0.49934 0.50888 0.0
H195 H 0.99604 0.46068 0.45073 0.0
C196 C 0.95546 0.4751 0.46026 0.0
C197 C 0.96695 0.42206 0.55058 0.0
C198 C 0.06107 0.56459 0.46798 0.0
C199 C 0.06856 0.51575 0.56308 0.0
H200 H 0.90855 0.38463 0.51944 0.0
H201 H 0.90151 0.41361 0.47015 0.0
H202 H 0.96964 0.52087 0.41138 0.0
H203 H 0.02805 0.56991 0.41577 0.0
H204 H 0.11786 0.60402 0.50126 0.0
H205 H 0.12183 0.57742 0.5541 0.0
H206 H 0.05782 0.4682 0.60813 0.0
H207 H 1.00192 0.41679 0.60094 0.0
H208 H 0.10413 0.48849 0.47178 0.0
H209 H 0.02159 0.44663 0.41452 0.0
H210 H 0.99455 0.53325 0.61316 0.0
H211 H 0.9229 0.50815 0.5447 0.0
C212 C 0.46677 0.98197 0.05916 0.0
C213 C 0.46752 0.99513 0.08709 0.0
C214 C 0.49422 0.0242 0.08541 0.0
C215 C 0.50835 0.027 0.05684 0.0
N216 N 0.4918 0.00186 0.03969 0.0
Co217 Co 0.50598 0.99392 0.99919 0.0
N218 N 0.54844 0.03357 0.99999 0.0
C219 C 0.55782 0.05573 0.02082 0.0
C220 C 0.58775 0.08109 0.01458 0.0
C221 C 0.59799 0.07494 0.98795 0.0
C222 C 0.57365 0.04597 0.97953 0.0
N223 N 0.52046 0.98493 0.95965 0.0
C224 C 0.54876 0.0013 0.94378 0.0
C225 C 0.54929 0.98627 0.91782 0.0
C226 C 0.52005 0.95967 0.91696 0.0
C227 C 0.5035 0.95987 0.94247 0.0
N228 N 0.46328 0.95474 0.99802 0.0
C229 C 0.45159 0.93514 0.97449 0.0
C230 C 0.42181 0.9096 0.98118 0.0
C231 C 0.41443 0.91274 0.01103 0.0
C232 C 0.44034 0.94004 0.02087 0.0
N233 N 0.49001 0.01646 0.97405 0.0
C234 C 0.47473 0.05295 0.9356 0.0
C235 C 0.47108 0.02594 0.92504 0.0
C236 C 0.47857 0.00816 0.94448 0.0
C237 C 0.48454 0.06035 0.96638 0.0
C238 C 0.49189 0.04202 0.98496 0.0
N239 N 0.52195 0.97183 0.02401 0.0
C240 C 0.52091 0.92513 0.03715 0.0
C241 C 0.53899 0.938 0.06365 0.0
C242 C 0.5497 0.96868 0.06895 0.0
C243 C 0.54109 0.98508 0.04893 0.0
C244 C 0.51276 0.94231 0.01778 0.0
H245 H 0.5494 0.00817 0.05457 0.0
H246 H 0.49834 0.93107 0.99831 0.0
H247 H 0.47552 0.98818 0.93463 0.0
H248 H 0.49954 0.0495 0.00787 0.0
C249 C 0.53856 0.05147 0.04678 0.0
C250 C 0.44331 0.94986 0.05285 0.0
C251 C 0.57498 0.03195 0.95109 0.0
C252 C 0.47145 0.93805 0.94971 0.0
H253 H 0.45129 0.98453 0.1072 0.0
H254 H 0.50318 0.04064 0.10359 0.0
H255 H 0.6006 0.1016 0.02781 0.0
H256 H 0.6207 0.09025 0.97593 0.0
H257 H 0.5686 0.99416 0.90084 0.0
H258 H 0.51162 0.9426 0.89944 0.0
H259 H 0.4081 0.88992 0.967 0.0
H260 H 0.39315 0.89612 0.02463 0.0
H261 H 0.46353 0.019 0.90143 0.0
H262 H 0.48691 0.08049 0.97618 0.0
H263 H 0.51258 0.90167 0.0316 0.0
H264 H 0.56359 0.97972 0.0892 0.0
C265 C 0.52527 0.5642 0.49865 0.0
C266 C 0.52954 0.58954 0.51342 0.0
C267 C 0.51112 0.57827 0.5404 0.0
C268 C 0.49687 0.54683 0.54062 0.0
N269 N 0.50571 0.53748 0.51577 0.0
Co270 Co 0.49016 0.49392 0.50616 0.0
N271 N 0.45946 0.477 0.54296 0.0
C272 C 0.45262 0.49304 0.56198 0.0
C273 C 0.4318 0.47508 0.58633 0.0
C274 C 0.42575 0.4461 0.5831 0.0
C275 C 0.44336 0.44815 0.55695 0.0
N276 N 0.47562 0.45023 0.49766 0.0
C277 C 0.45888 0.4242 0.51677 0.0
C278 C 0.45729 0.39915 0.50397 0.0
C279 C 0.47431 0.40989 0.47616 0.0
C280 C 0.48545 0.44078 0.47369 0.0
N281 N 0.52002 0.51082 0.46851 0.0
C282 C 0.52395 0.4943 0.44737 0.0
C283 C 0.54342 0.51191 0.42217 0.0
C284 C 0.55165 0.54133 0.42697 0.0
C285 C 0.53682 0.53999 0.45507 0.0
N286 N 0.5231 0.49535 0.53309 0.0
C287 C 0.56477 0.49028 0.5733 0.0
C288 C 0.56379 0.48434 0.54157 0.0
C289 C 0.54299 0.48706 0.52202 0.0
C290 C 0.54543 0.49995 0.58431 0.0
C291 C 0.5251 0.50254 0.56391 0.0
N292 N 0.45727 0.49265 0.47889 0.0
C293 C 0.4318 0.48145 0.42881 0.0
C294 C 0.42148 0.50138 0.43341 0.0
C295 C 0.42712 0.51482 0.46238 0.0
C296 C 0.44459 0.50987 0.48475 0.0
C297 C 0.44937 0.47738 0.45163 0.0
H298 H 0.44841 0.52112 0.50616 0.0
H299 H 0.45702 0.46244 0.44615 0.0
H300 H 0.54295 0.48169 0.4982 0.0
H301 H 0.51077 0.50981 0.57373 0.0
C302 C 0.47135 0.52536 0.56055 0.0
C303 C 0.53684 0.56625 0.46666 0.0
C304 C 0.44709 0.4232 0.54843 0.0
C305 C 0.50755 0.46207 0.45093 0.0
H306 H 0.5431 0.61346 0.50459 0.0
H307 H 0.50695 0.59126 0.55674 0.0
H308 H 0.42409 0.48265 0.60564 0.0
H309 H 0.41164 0.42616 0.59918 0.0
H310 H 0.44624 0.37586 0.51422 0.0
H311 H 0.47946 0.39708 0.46052 0.0
H312 H 0.54976 0.50409 0.40202 0.0
H313 H 0.56596 0.5612 0.41094 0.0
H314 H 0.57843 0.47688 0.53196 0.0
H315 H 0.54596 0.50551 0.60858 0.0
H316 H 0.42682 0.4693 0.4074 0.0
H317 H 0.41922 0.53008 0.46742 0.0
C318 C 0.29053 0.51166 0.26118 0.0
C319 C 0.21676 0.50567 0.18166 0.0
O320 O 0.27026 0.48421 0.25307 0.0
Zn321 Zn 0.23081 0.46083 0.22258 0.0
O322 O 0.28991 0.53446 0.24916 0.0
Zn323 Zn 0.25453 0.51028 0.22198 0.0
O324 O 0.21775 0.48585 0.25701 0.0
O325 O 0.19495 0.43572 0.2527 0.0
O326 O 0.23838 0.52983 0.19422 0.0
O327 O 0.21234 0.47943 0.19022 0.0
O328 O 0.24624 0.4423 0.19479 0.0
O329 O 0.27504 0.49333 0.19096 0.0
C330 C 0.19692 0.45803 0.26654 0.0
C331 C 0.27009 0.4674 0.18291 0.0
C332 C 0.80562 0.25228 0.70048 0.0
C333 C 0.73403 0.18208 0.78596 0.0
O334 O 0.78367 0.25664 0.70809 0.0
Zn335 Zn 0.74487 0.23897 0.74056 0.0
O336 O 0.80742 0.2312 0.71515 0.0
Zn337 Zn 0.77069 0.21626 0.74342 0.0
O338 O 0.73166 0.19654 0.71238 0.0
O339 O 0.70872 0.22293 0.71252 0.0
O340 O 0.7572 0.18181 0.77408 0.0
O341 O 0.72789 0.20192 0.77528 0.0
O342 O 0.75851 0.27446 0.76661 0.0
O343 O 0.78697 0.25383 0.77336 0.0
C344 C 0.70994 0.20062 0.70259 0.0
C345 C 0.78091 0.2741 0.78032 0.0
C346 C 0.50567 0.77624 0.31729 0.0
C347 C 0.50401 0.71422 0.23249 0.0
O348 O 0.53312 0.78364 0.30718 0.0
Zn349 Zn 0.55409 0.76904 0.27488 0.0
O350 O 0.48096 0.75285 0.30691 0.0
Zn351 Zn 0.50256 0.74239 0.27654 0.0
O352 O 0.523 0.72327 0.30503 0.0
O353 O 0.57514 0.75368 0.30187 0.0
O354 O 0.47956 0.71001 0.24689 0.0
O355 O 0.53172 0.73483 0.24124 0.0
O356 O 0.57738 0.80608 0.24636 0.0
O357 O 0.52524 0.78282 0.24542 0.0
C358 C 0.55023 0.72904 0.31292 0.0
C359 C 0.55298 0.80491 0.23575 0.0
C360 C 0.77748 0.49158 0.81805 0.0
C361 C 0.71373 0.49022 0.7309 0.0
O362 O 0.75581 0.46772 0.80515 0.0
Zn363 Zn 0.74526 0.48951 0.77403 0.0
O364 O 0.78524 0.51851 0.8074 0.0
Zn365 Zn 0.77294 0.53922 0.77077 0.0
O366 O 0.75892 0.56154 0.79495 0.0
O367 O 0.72759 0.51091 0.80224 0.0
O368 O 0.73588 0.51748 0.73777 0.0
O369 O 0.71024 0.46679 0.74641 0.0
O370 O 0.78511 0.50973 0.7418 0.0
O371 O 0.8118 0.56044 0.74375 0.0
C372 C 0.73441 0.53798 0.80824 0.0
C373 C 0.80869 0.5365 0.73252 0.0
C374 C 0.2943 0.79656 0.22359 0.0
C375 C 0.22134 0.72611 0.30881 0.0
O376 O 0.2725 0.80115 0.23121 0.0
Zn377 Zn 0.23405 0.78423 0.26425 0.0
O378 O 0.29638 0.77585 0.23877 0.0
Zn379 Zn 0.25963 0.76118 0.26715 0.0
O380 O 0.22142 0.74278 0.23545 0.0
O381 O 0.19819 0.76894 0.23601 0.0
O382 O 0.24487 0.72612 0.29747 0.0
O383 O 0.21579 0.74643 0.29835 0.0
O384 O 0.24843 0.81994 0.2901 0.0
O385 O 0.27631 0.79868 0.29671 0.0
C386 C 0.19991 0.7471 0.2255 0.0
C387 C 0.27076 0.8193 0.30357 0.0
C388 C 0.50912 0.29519 0.78536 0.0
C389 C 0.50599 0.23774 0.69623 0.0
O390 O 0.53288 0.29946 0.76961 0.0
Zn391 Zn 0.50911 0.26665 0.7412 0.0
O392 O 0.48103 0.27378 0.77834 0.0
Zn393 Zn 0.45799 0.23902 0.74525 0.0
O394 O 0.43766 0.20069 0.77236 0.0
O395 O 0.48984 0.22599 0.77159 0.0
O396 O 0.47856 0.2289 0.70779 0.0
O397 O 0.53085 0.25887 0.70886 0.0
O398 O 0.48551 0.28397 0.71405 0.0
O399 O 0.43374 0.25289 0.72172 0.0
C400 C 0.46288 0.20281 0.78165 0.0
C401 C 0.4574 0.2772 0.70835 0.0
H402 H 0.09753 0.54241 0.05984 0.0
H403 H 0.05507 0.44388 0.06437 0.0
H404 H 0.1415 0.54897 0.09104 0.0
H405 H 0.09746 0.44977 0.09737 0.0
H406 H 0.18841 0.46729 0.13435 0.0
H407 H 0.14982 0.46513 0.09837 0.0
H408 H 0.15689 0.54304 0.14114 0.0
H409 H 0.19717 0.54617 0.17593 0.0
C410 C 0.09758 0.52215 0.06786 0.0
C411 C 0.0728 0.49261 0.06018 0.0
C412 C 0.12259 0.52581 0.08598 0.0
C413 C 0.12327 0.49995 0.09702 0.0
C414 C 0.09833 0.47039 0.08899 0.0
C415 C 0.07368 0.46685 0.07045 0.0
C416 C 0.18198 0.4842 0.13578 0.0
C417 C 0.19571 0.50683 0.15803 0.0
C418 C 0.15952 0.48277 0.11534 0.0
C419 C 0.1495 0.50349 0.11704 0.0
C420 C 0.16406 0.52681 0.13876 0.0
C421 C 0.18713 0.52862 0.15884 0.0
H422 H 0.54653 0.08166 0.58671 0.0
H423 H 0.61987 0.06709 0.55876 0.0
H424 H 0.58198 0.11855 0.62455 0.0
H425 H 0.65587 0.10471 0.59537 0.0
H426 H 0.70158 0.14644 0.68586 0.0
H427 H 0.6647 0.11043 0.64933 0.0
H428 H 0.62854 0.16897 0.63094 0.0
H429 H 0.6652 0.2049 0.66874 0.0
C430 C 0.57038 0.08658 0.58864 0.0
C431 C 0.58063 0.07175 0.56982 0.0
C432 C 0.59081 0.10789 0.61008 0.0
C433 C 0.62194 0.11475 0.61323 0.0
C434 C 0.632 0.09978 0.59414 0.0
C435 C 0.61153 0.0784 0.5729 0.0
C436 C 0.68584 0.1518 0.67409 0.0
C437 C 0.6866 0.17881 0.6802 0.0
C438 C 0.66471 0.13111 0.65284 0.0
C439 C 0.64374 0.13678 0.63668 0.0
C440 C 0.64413 0.16362 0.64305 0.0
C441 C 0.66527 0.18436 0.66463 0.0
H442 H 0.46223 0.5892 0.07952 0.0
H443 H 0.55959 0.62811 0.10504 0.0
H444 H 0.45696 0.62022 0.1179 0.0
H445 H 0.55401 0.65794 0.14393 0.0
H446 H 0.54837 0.73181 0.18632 0.0
H447 H 0.54881 0.70166 0.14467 0.0
H448 H 0.45558 0.62539 0.17559 0.0
H449 H 0.45482 0.6563 0.21738 0.0
C450 C 0.48253 0.60449 0.09318 0.0
C451 C 0.5114 0.60633 0.08913 0.0
C452 C 0.47937 0.62194 0.1154 0.0
C453 C 0.50509 0.64169 0.13385 0.0
C454 C 0.53385 0.64336 0.12977 0.0
C455 C 0.53699 0.626 0.10768 0.0
C456 C 0.5278 0.70866 0.18422 0.0
C457 C 0.50173 0.69623 0.20545 0.0
C458 C 0.52814 0.69132 0.16037 0.0
C459 C 0.50256 0.66088 0.1572 0.0
C460 C 0.47568 0.64881 0.17744 0.0
C461 C 0.47523 0.66643 0.20137 0.0
H462 H 0.97025 0.57364 0.61088 0.0
H463 H 0.89709 0.47752 0.60451 0.0
H464 H 0.93553 0.58012 0.64564 0.0
H465 H 0.86316 0.48296 0.64068 0.0
H466 H 0.79473 0.50212 0.68198 0.0
H467 H 0.83081 0.50071 0.64522 0.0
H468 H 0.91064 0.57204 0.69419 0.0
H469 H 0.87386 0.57477 0.72967 0.0
C470 C 0.94684 0.55382 0.61734 0.0
C471 C 0.9362 0.52516 0.60484 0.0
C472 C 0.9269 0.55741 0.63742 0.0
C473 C 0.89603 0.53221 0.64595 0.0
C474 C 0.88612 0.50331 0.63406 0.0
C475 C 0.90572 0.49998 0.61352 0.0
C476 C 0.82003 0.51778 0.68461 0.0
C477 C 0.83146 0.5385 0.70872 0.0
C478 C 0.8409 0.51672 0.66373 0.0
C479 C 0.87402 0.53568 0.66687 0.0
C480 C 0.88546 0.55714 0.69062 0.0
C481 C 0.86439 0.55874 0.7111 0.0
H482 H 0.39602 0.94815 0.08623 0.0
H483 H 0.44373 0.89999 0.07609 0.0
H484 H 0.36126 0.91014 0.12751 0.0
H485 H 0.4079 0.8607 0.11644 0.0
H486 H 0.35608 0.81347 0.21286 0.0
H487 H 0.39324 0.85041 0.17163 0.0
H488 H 0.31823 0.85855 0.13283 0.0
H489 H 0.282 0.82305 0.17433 0.0
C490 C 0.39901 0.92936 0.09303 0.0
C491 C 0.42265 0.92708 0.07848 0.0
C492 C 0.37889 0.90732 0.11637 0.0
C493 C 0.38152 0.88208 0.12521 0.0
C494 C 0.40537 0.87993 0.11053 0.0
C495 C 0.42573 0.90224 0.08734 0.0
C496 C 0.34764 0.82305 0.19529 0.0
C497 C 0.31631 0.81573 0.19704 0.0
C498 C 0.36886 0.84416 0.17165 0.0
C499 C 0.35893 0.858 0.14919 0.0
C500 C 0.32708 0.84925 0.15023 0.0
C501 C 0.30618 0.82865 0.17394 0.0
H502 H 0.40436 0.36053 0.55659 0.0
H503 H 0.48647 0.43696 0.59702 0.0
H504 H 0.40493 0.32471 0.59629 0.0
H505 H 0.48668 0.40175 0.63725 0.0
H506 H 0.50419 0.32922 0.67641 0.0
H507 H 0.49953 0.36345 0.63928 0.0
H508 H 0.39754 0.30752 0.65195 0.0
H509 H 0.40219 0.27236 0.68913 0.0
C510 C 0.42241 0.36958 0.57412 0.0
C511 C 0.44575 0.40132 0.5735 0.0
C512 C 0.42259 0.34919 0.59704 0.0
C513 C 0.44606 0.36022 0.61985 0.0
C514 C 0.46864 0.39226 0.61973 0.0
C515 C 0.46847 0.41252 0.59683 0.0
C516 C 0.48065 0.32407 0.67149 0.0
C517 C 0.45354 0.29795 0.68595 0.0
C518 C 0.47802 0.34396 0.65023 0.0
C519 C 0.44819 0.33854 0.64275 0.0
C520 C 0.42091 0.31232 0.65703 0.0
C521 C 0.42356 0.29225 0.67845 0.0
H522 H 0.55296 0.92426 0.44008 0.0
H523 H 0.45218 0.88017 0.4295 0.0
H524 H 0.55221 0.88466 0.41034 0.0
H525 H 0.45139 0.84137 0.39796 0.0
H526 H 0.45666 0.76308 0.35828 0.0
H527 H 0.45544 0.7982 0.39426 0.0
H528 H 0.54865 0.87142 0.35904 0.0
H529 H 0.55039 0.83626 0.32495 0.0
C530 C 0.53067 0.90606 0.43118 0.0
C531 C 0.50269 0.90524 0.4369 0.0
C532 C 0.53017 0.88344 0.4139 0.0
C533 C 0.50179 0.8599 0.40115 0.0
C534 C 0.47362 0.8588 0.40759 0.0
C535 C 0.47405 0.88112 0.4255 0.0
C536 C 0.47687 0.78666 0.35854 0.0
C537 C 0.50373 0.79677 0.33907 0.0
C538 C 0.47617 0.80688 0.37901 0.0
C539 C 0.50213 0.83774 0.37999 0.0
C540 C 0.52861 0.84772 0.35992 0.0
C541 C 0.52951 0.8275 0.34005 0.0
H542 H 0.64828 0.58723 0.95482 0.0
H543 H 0.56995 0.50774 0.91386 0.0
H544 H 0.68531 0.58638 0.9178 0.0
H545 H 0.60645 0.50708 0.87633 0.0
H546 H 0.68149 0.49143 0.84 0.0
H547 H 0.64617 0.4949 0.87593 0.0
H548 H 0.70303 0.59444 0.86288 0.0
H549 H 0.73912 0.59096 0.827 0.0
C550 C 0.63909 0.56966 0.93776 0.0
C551 C 0.60642 0.5473 0.93736 0.0
C552 C 0.66018 0.56928 0.91638 0.0
C553 C 0.64901 0.54653 0.8941 0.0
C554 C 0.61609 0.52461 0.89344 0.0
C555 C 0.5951 0.52503 0.91478 0.0
C556 C 0.68663 0.51416 0.84467 0.0
C557 C 0.71326 0.54094 0.83042 0.0
C558 C 0.66611 0.51612 0.86522 0.0
C559 C 0.67145 0.54493 0.87223 0.0
C560 C 0.69825 0.57184 0.85824 0.0
C561 C 0.71889 0.56986 0.83754 0.0
H562 H 0.08823 0.55534 0.41822 0.0
H563 H 0.08767 0.62671 0.4664 0.0
H564 H 0.12843 0.59439 0.38031 0.0
H565 H 0.12836 0.66597 0.42928 0.0
H566 H 0.17036 0.72195 0.33688 0.0
H567 H 0.13251 0.6829 0.37508 0.0
H568 H 0.18414 0.63759 0.37509 0.0
H569 H 0.2221 0.67673 0.33585 0.0
C570 C 0.0969 0.57949 0.42059 0.0
C571 C 0.08508 0.58828 0.44495 0.0
C572 C 0.12005 0.60183 0.39918 0.0
C573 C 0.13167 0.63334 0.40175 0.0
C574 C 0.11968 0.64192 0.42635 0.0
C575 C 0.09653 0.61958 0.44765 0.0
C576 C 0.17388 0.70379 0.345 0.0
C577 C 0.19939 0.70255 0.33324 0.0
C578 C 0.15217 0.68143 0.36714 0.0
C579 C 0.15532 0.65716 0.37833 0.0
C580 C 0.18088 0.65586 0.36674 0.0
C581 C 0.20275 0.67838 0.34443 0.0
H582 H 0.50957 0.11619 0.93189 0.0
H583 H 0.4295 0.0378 0.89074 0.0
H584 H 0.50394 0.15096 0.89617 0.0
H585 H 0.42469 0.0729 0.85388 0.0
H586 H 0.41103 0.15021 0.81058 0.0
H587 H 0.41166 0.11321 0.84867 0.0
H588 H 0.51395 0.16545 0.84086 0.0
H589 H 0.51343 0.20217 0.80371 0.0
C590 C 0.49052 0.10628 0.91544 0.0
C591 C 0.47002 0.07404 0.91433 0.0
C592 C 0.48755 0.12631 0.8946 0.0
C593 C 0.46407 0.1148 0.87184 0.0
C594 C 0.44297 0.08259 0.87116 0.0
C595 C 0.44597 0.06246 0.89209 0.0
C596 C 0.4336 0.15372 0.81705 0.0
C597 C 0.46215 0.17935 0.80416 0.0
C598 C 0.43396 0.13246 0.83878 0.0
C599 C 0.46289 0.13651 0.84816 0.0
C600 C 0.49126 0.16188 0.8348 0.0
C601 C 0.49091 0.18293 0.81323 0.0
H602 H 0.37185 0.5099 0.43836 0.0
H603 H 0.43553 0.50931 0.37034 0.0
H604 H 0.3442 0.51814 0.39558 0.0
H605 H 0.40728 0.51655 0.32789 0.0
H606 H 0.31563 0.47693 0.26957 0.0
H607 H 0.3503 0.47924 0.31076 0.0
H608 H 0.35268 0.55702 0.34774 0.0
H609 H 0.31796 0.55499 0.30575 0.0
C610 C 0.38024 0.5119 0.41441 0.0
C611 C 0.40559 0.50833 0.40784 0.0
C612 C 0.36441 0.51667 0.38994 0.0
C613 C 0.37349 0.51775 0.35846 0.0
C614 C 0.39955 0.51541 0.35195 0.0
C615 C 0.41551 0.51096 0.37631 0.0
C616 C 0.32382 0.49479 0.28624 0.0
C617 C 0.31411 0.51578 0.2845 0.0
C618 C 0.34379 0.49618 0.30974 0.0
C619 C 0.35416 0.5183 0.33243 0.0
C620 C 0.3449 0.53969 0.33054 0.0
C621 C 0.32529 0.53868 0.30647 0.0
H622 H 0.91102 0.43787 0.88167 0.0
H623 H 0.88901 0.36111 0.94611 0.0
H624 H 0.87397 0.40189 0.84435 0.0
H625 H 0.85154 0.32521 0.90913 0.0
H626 H 0.82254 0.27174 0.81937 0.0
H627 H 0.85558 0.30781 0.85802 0.0
H628 H 0.8167 0.36326 0.83543 0.0
H629 H 0.78333 0.32685 0.79613 0.0
C630 C 0.89828 0.4133 0.88787 0.0
C631 C 0.9033 0.40238 0.91677 0.0
C632 C 0.87674 0.3927 0.86662 0.0
C633 C 0.85984 0.3606 0.87361 0.0
C634 C 0.86441 0.34975 0.90279 0.0
C635 C 0.88575 0.37035 0.92412 0.0
C636 C 0.82083 0.29154 0.82255 0.0
C637 C 0.80019 0.29633 0.80448 0.0
C638 C 0.83971 0.31217 0.845 0.0
C639 C 0.83877 0.33842 0.85004 0.0
C640 C 0.81815 0.34335 0.83203 0.0
C641 C 0.79891 0.32242 0.80962 0.0
H642 H 0.92686 0.5618 0.94697 0.0
H643 H 0.89582 0.46565 0.9515 0.0
H644 H 0.88402 0.55092 0.91197 0.0
H645 H 0.85152 0.45398 0.91782 0.0
H646 H 0.80118 0.45481 0.82613 0.0
H647 H 0.83909 0.45992 0.86546 0.0
H648 H 0.8295 0.52833 0.91002 0.0
H649 H 0.79338 0.52439 0.86973 0.0
C650 C 0.9106 0.53828 0.94049 0.0
C651 C 0.91467 0.51463 0.95137 0.0
C652 C 0.88576 0.53185 0.92081 0.0
C653 C 0.864 0.50144 0.91216 0.0
C654 C 0.86794 0.47767 0.92364 0.0
C655 C 0.89309 0.48425 0.94305 0.0
C656 C 0.80685 0.47044 0.84476 0.0
C657 C 0.79473 0.48941 0.84489 0.0
C658 C 0.82854 0.47342 0.86732 0.0
C659 C 0.83797 0.49507 0.89061 0.0
C660 C 0.82373 0.51222 0.89188 0.0
C661 C 0.80273 0.50973 0.86904 0.0
H662 H 0.36824 0.96191 0.44177 0.0
H663 H 0.43457 0.9388 0.41138 0.0
H664 H 0.32859 0.92476 0.40653 0.0
H665 H 0.39578 0.90257 0.3755 0.0
H666 H 0.31081 0.81551 0.34349 0.0
H667 H 0.34733 0.85325 0.37897 0.0
H668 H 0.31485 0.91326 0.35158 0.0
H669 H 0.27726 0.87464 0.31615 0.0
C670 C 0.37426 0.94891 0.42737 0.0
C671 C 0.40416 0.95278 0.42942 0.0
C672 C 0.35174 0.92786 0.40704 0.0
C673 C 0.35879 0.91037 0.38834 0.0
C674 C 0.38918 0.91506 0.38999 0.0
C675 C 0.41153 0.93595 0.41033 0.0
C676 C 0.31126 0.83668 0.34497 0.0
C677 C 0.29122 0.84211 0.32667 0.0
C678 C 0.33247 0.8585 0.36526 0.0
C679 C 0.33457 0.88664 0.36781 0.0
C680 C 0.31385 0.89181 0.35027 0.0
C681 C 0.29234 0.86973 0.32992 0.0
H682 H 0.48824 0.37547 0.95161 0.0
H683 H 0.53743 0.45076 0.88122 0.0
H684 H 0.4931 0.34156 0.91733 0.0
H685 H 0.54134 0.41654 0.84647 0.0
H686 H 0.56176 0.35123 0.79909 0.0
H687 H 0.5652 0.38566 0.83892 0.0
H688 H 0.468 0.31847 0.86858 0.0
H689 H 0.4647 0.28424 0.82953 0.0
C690 C 0.5003 0.38483 0.92892 0.0
C691 C 0.51211 0.41566 0.91895 0.0
C692 C 0.50291 0.36537 0.9092 0.0
C693 C 0.51743 0.37633 0.87912 0.0
C694 C 0.53023 0.40747 0.86959 0.0
C695 C 0.52756 0.42692 0.88929 0.0
C696 C 0.54135 0.34372 0.81446 0.0
C697 C 0.51292 0.31513 0.81104 0.0
C698 C 0.54324 0.36347 0.83709 0.0
C699 C 0.51685 0.35477 0.85685 0.0
C700 C 0.48888 0.32572 0.85404 0.0
C701 C 0.48693 0.30618 0.83143 0.0
H702 H 0.05907 0.46581 0.37503 0.0
H703 H 0.11218 0.45398 0.44809 0.0
H704 H 0.0882 0.45727 0.33561 0.0
H705 H 0.14259 0.44743 0.40803 0.0
H706 H 0.21506 0.49012 0.31892 0.0
H707 H 0.18162 0.48739 0.36229 0.0
H708 H 0.09903 0.41345 0.31945 0.0
H709 H 0.13293 0.41556 0.27617 0.0
C710 C 0.0765 0.46091 0.38295 0.0
C711 C 0.083 0.46062 0.41514 0.0
C712 C 0.09329 0.45612 0.36016 0.0
C713 C 0.11753 0.45156 0.36877 0.0
C714 C 0.12401 0.45096 0.40077 0.0
C715 C 0.10675 0.45508 0.42369 0.0
C716 C 0.18983 0.47286 0.31905 0.0
C717 C 0.17653 0.45302 0.29424 0.0
C718 C 0.17074 0.47125 0.34393 0.0
C719 C 0.13777 0.45026 0.3442 0.0
C720 C 0.12443 0.42985 0.31975 0.0
C721 C 0.14375 0.43092 0.29515 0.0
H722 H 0.63761 0.05104 0.94879 0.0
H723 H 0.5664 0.0565 0.89778 0.0
H724 H 0.67808 0.0865 0.90873 0.0
H725 H 0.60625 0.09125 0.8576 0.0
H726 H 0.68853 0.18289 0.81936 0.0
H727 H 0.65149 0.14518 0.85889 0.0
H728 H 0.69449 0.09222 0.8507 0.0
H729 H 0.73242 0.13065 0.81071 0.0
C730 C 0.63074 0.05966 0.92877 0.0
C731 C 0.59925 0.05153 0.92621 0.0
C732 C 0.6537 0.0797 0.90586 0.0
C733 C 0.64534 0.09186 0.88026 0.0
C734 C 0.61348 0.08266 0.87735 0.0
C735 C 0.59068 0.06274 0.90015 0.0
C736 C 0.69031 0.1633 0.82586 0.0
C737 C 0.71326 0.15961 0.81156 0.0
C738 C 0.66889 0.14157 0.84848 0.0
C739 C 0.66972 0.11548 0.85746 0.0
C740 C 0.69333 0.11215 0.84412 0.0
C741 C 0.71495 0.13406 0.82125 0.0
H742 H 0.49181 0.5769 0.44846 0.0
H743 H 0.59135 0.61255 0.4355 0.0
H744 H 0.49721 0.61743 0.41202 0.0
H745 H 0.59682 0.6526 0.39745 0.0
H746 H 0.5981 0.73758 0.35195 0.0
H747 H 0.59653 0.6992 0.38973 0.0
H748 H 0.50393 0.63007 0.35784 0.0
H749 H 0.50504 0.66824 0.32156 0.0
C750 C 0.51484 0.59341 0.43751 0.0
C751 C 0.54105 0.59141 0.44432 0.0
C752 C 0.51797 0.61652 0.4164 0.0
C753 C 0.54739 0.63812 0.40123 0.0
C754 C 0.57385 0.63648 0.40867 0.0
C755 C 0.57071 0.61341 0.43015 0.0
C756 C 0.57755 0.71412 0.35306 0.0
C757 C 0.55152 0.70608 0.33412 0.0
C758 C 0.57664 0.69208 0.37462 0.0
C759 C 0.54981 0.66156 0.37734 0.0
C760 C 0.52454 0.65348 0.35728 0.0
C761 C 0.52528 0.67541 0.33623 0.0
H762 H 0.44412 0.09026 0.57724 0.0
H763 H 0.54326 0.14661 0.54884 0.0
H764 H 0.45099 0.13018 0.61066 0.0
H765 H 0.54998 0.18744 0.58151 0.0
H766 H 0.55309 0.2288 0.6788 0.0
H767 H 0.5507 0.19619 0.63746 0.0
H768 H 0.46057 0.18088 0.60961 0.0
H769 H 0.46248 0.21227 0.65136 0.0
C770 C 0.46731 0.11141 0.57785 0.0
C771 C 0.49314 0.11527 0.56051 0.0
C772 C 0.47123 0.13448 0.59676 0.0
C773 C 0.50105 0.1621 0.59869 0.0
C774 C 0.52677 0.16635 0.58069 0.0
C775 C 0.52283 0.14316 0.56171 0.0
C776 C 0.53309 0.2188 0.66346 0.0
C777 C 0.50772 0.22254 0.66857 0.0
C778 C 0.53173 0.20023 0.63973 0.0
C779 C 0.50513 0.18547 0.62061 0.0
C780 C 0.48095 0.19118 0.62446 0.0
C781 C 0.48211 0.20928 0.6483 0.0
H782 H 0.42873 0.52175 0.05312 0.0
H783 H 0.38767 0.42419 0.07176 0.0
H784 H 0.38721 0.51897 0.08562 0.0
H785 H 0.34718 0.42144 0.1064 0.0
H786 H 0.26215 0.42074 0.14693 0.0
H787 H 0.30124 0.42209 0.11131 0.0
H788 H 0.3706 0.51508 0.13674 0.0
H789 H 0.33123 0.51416 0.17053 0.0
C790 C 0.4109 0.49973 0.06459 0.0
C791 C 0.41168 0.4733 0.06041 0.0
C792 C 0.38719 0.4981 0.08354 0.0
C793 C 0.36378 0.47002 0.09927 0.0
C794 C 0.36445 0.44345 0.09463 0.0
C795 C 0.38793 0.44503 0.07515 0.0
C796 C 0.28573 0.44147 0.14466 0.0
C797 C 0.29342 0.46742 0.16133 0.0
C798 C 0.30831 0.44223 0.1244 0.0
C799 C 0.33931 0.46881 0.12074 0.0
C800 C 0.34692 0.49448 0.13798 0.0
C801 C 0.32428 0.49389 0.15767 0.0
H802 H 0.96019 0.36588 0.55967 0.0
H803 H 0.9235 0.41969 0.58992 0.0
H804 H 0.92111 0.32192 0.59457 0.0
H805 H 0.88496 0.37643 0.62503 0.0
H806 H 0.86583 0.26511 0.68881 0.0
H807 H 0.90602 0.30525 0.65158 0.0
H808 H 0.83752 0.3257 0.61846 0.0
H809 H 0.79801 0.28647 0.65559 0.0
C810 C 0.9438 0.36818 0.574 0.0
C811 C 0.94443 0.39577 0.57227 0.0
C812 C 0.92163 0.34323 0.59399 0.0
C813 C 0.89975 0.34561 0.6123 0.0
C814 C 0.90105 0.37363 0.61078 0.0
C815 C 0.92312 0.39842 0.5909 0.0
C816 C 0.85937 0.27794 0.67323 0.0
C817 C 0.82895 0.27299 0.67545 0.0
C818 C 0.88232 0.30088 0.65194 0.0
C819 C 0.87508 0.31905 0.63256 0.0
C820 C 0.8441 0.3127 0.63366 0.0
C821 C 0.8214 0.29007 0.65486 0.0
H822 H 0.4976 0.87767 0.08334 0.0
H823 H 0.5928 0.95515 0.09689 0.0
H824 H 0.50451 0.84734 0.12396 0.0
H825 H 0.5992 0.92489 0.13882 0.0
H826 H 0.60294 0.845 0.19462 0.0
H827 H 0.60229 0.87813 0.15144 0.0
H828 H 0.50734 0.84982 0.18077 0.0
H829 H 0.50778 0.81692 0.22294 0.0
C830 C 0.5202 0.88817 0.09466 0.0
C831 C 0.5446 0.91894 0.08681 0.0
C832 C 0.52402 0.87087 0.11831 0.0
C833 C 0.55224 0.88386 0.13499 0.0
C834 C 0.57718 0.91422 0.12642 0.0
C835 C 0.57337 0.93163 0.10262 0.0
C836 C 0.58215 0.84621 0.19192 0.0
C837 C 0.55526 0.82799 0.2119 0.0
C838 C 0.58175 0.86512 0.16724 0.0
C839 C 0.55446 0.86604 0.16227 0.0
C840 C 0.52836 0.84896 0.18331 0.0
C841 C 0.52872 0.83019 0.20767 0.0
H842 H 0.62652 0.50917 0.56212 0.0
H843 H 0.55084 0.46304 0.63276 0.0
H844 H 0.66218 0.50527 0.59813 0.0
H845 H 0.58679 0.45981 0.66911 0.0
H846 H 0.65555 0.43915 0.71821 0.0
H847 H 0.61885 0.43595 0.67823 0.0
H848 H 0.68676 0.53084 0.64686 0.0
H849 H 0.72319 0.534 0.68625 0.0
C850 C 0.61745 0.49796 0.58525 0.0
C851 C 0.58599 0.48668 0.59473 0.0
C852 C 0.6379 0.4959 0.60593 0.0
C853 C 0.62732 0.48239 0.63649 0.0
C854 C 0.59556 0.47016 0.64564 0.0
C855 C 0.57512 0.47237 0.62499 0.0
C856 C 0.6627 0.45915 0.7025 0.0
C857 C 0.69219 0.48685 0.70547 0.0
C858 C 0.64166 0.45739 0.67978 0.0
C859 C 0.64996 0.48315 0.65942 0.0
C860 C 0.67981 0.51048 0.66191 0.0
C861 C 0.70061 0.51233 0.68468 0.0
H862 H 0.03726 0.61621 0.11726 0.0
H863 H 0.11954 0.62642 0.07125 0.0
H864 H 0.07174 0.65524 0.15368 0.0
H865 H 0.15377 0.66612 0.10653 0.0
H866 H 0.20033 0.70031 0.19932 0.0
H867 H 0.16502 0.66535 0.16135 0.0
H868 H 0.11358 0.71083 0.1593 0.0
H869 H 0.14916 0.74614 0.19834 0.0
C870 C 0.06266 0.62688 0.11474 0.0
C871 C 0.07553 0.61793 0.09136 0.0
C872 C 0.08243 0.64954 0.13539 0.0
C873 C 0.11552 0.66367 0.13322 0.0
C874 C 0.12837 0.65541 0.1092 0.0
C875 C 0.10869 0.63284 0.08866 0.0
C876 C 0.18161 0.70312 0.19088 0.0
C877 C 0.17774 0.72624 0.20193 0.0
C878 C 0.16141 0.68307 0.16881 0.0
C879 C 0.13665 0.68544 0.15692 0.0
C880 C 0.1324 0.70834 0.16807 0.0
C881 C 0.15284 0.72864 0.19031 0.0
loop_
_geom_bond_atom_site_label_1
_geom_bond_atom_site_label_2
_geom_bond_distance
_geom_bond_site_symmetry_2
_ccdc_geom_bond_type
C0 C1 1.443 . S
C0 N4 1.376 1_556 S
C0 C38 1.389 . S
C1 C0 1.443 . S
C1 C2 1.340 1_556 S
C1 H41 0.951 . S
C2 C1 1.340 1_554 S
C2 C3 1.439 . S
C2 H42 0.950 . S
C3 C2 1.439 . S
C3 N4 1.374 . S
C3 C37 1.395 . S
N4 C0 1.376 1_554 S
N4 C3 1.374 . S
N4 Co5 1.995 1_655 S
Co5 N4 1.995 1_455 S
Co5 N6 2.011 1_455 S
Co5 N11 2.021 1_554 S
Co5 N16 1.979 1_554 S
Co5 N21 2.295 . S
Co5 N27 2.270 1_454 S
N6 Co5 2.011 1_655 S
N6 C7 1.376 . S
N6 C10 1.383 1_655 S
C7 N6 1.376 . S
C7 C8 1.446 . S
C7 C37 1.391 . S
C8 C7 1.446 . S
C8 C9 1.339 . S
C8 H43 0.949 . S
C9 C8 1.339 . S
C9 C10 1.439 1_655 S
C9 H44 0.950 1_655 S
C10 N6 1.383 1_455 S
C10 C9 1.439 1_455 S
C10 C39 1.392 . S
N11 Co5 2.021 1_556 S
N11 C12 1.376 1_556 S
N11 C15 1.374 . S
C12 N11 1.376 1_554 S
C12 C13 1.443 . S
C12 C39 1.389 . S
C13 C12 1.443 . S
C13 C14 1.340 1_554 S
C13 H45 0.951 . S
C14 C13 1.340 1_556 S
C14 C15 1.439 . S
C14 H46 0.950 . S
C15 N11 1.374 . S
C15 C14 1.439 . S
C15 C40 1.395 . S
N16 Co5 1.979 1_556 S
N16 C17 1.376 . S
N16 C20 1.383 1_455 S
C17 N16 1.376 . S
C17 C18 1.446 . S
C17 C40 1.391 . S
C18 C17 1.446 . S
C18 C19 1.339 . S
C18 H47 0.949 . S
C19 C18 1.339 . S
C19 C20 1.439 1_455 S
C19 H48 0.950 1_455 S
C20 N16 1.383 1_655 S
C20 C19 1.439 1_655 S
C20 C38 1.392 . S
N21 Co5 2.295 . S
N21 C24 1.332 . S
N21 C26 1.332 . S
C22 C23 1.386 . S
C22 C25 1.388 . S
C23 C22 1.386 . S
C23 C24 1.382 . S
C23 H49 0.950 . S
C24 N21 1.332 . S
C24 C23 1.382 . S
C24 H35 0.952 . S
C25 C22 1.388 . S
C25 C26 1.382 . S
C25 H50 0.950 . S
C26 N21 1.332 . S
C26 C25 1.382 . S
C26 H36 0.948 1_455 S
N27 Co5 2.270 1_656 S
N27 C31 1.332 . S
N27 C32 1.332 . S
C28 C29 1.388 . S
C28 C32 1.382 . S
C28 H51 0.950 . S
C29 C28 1.388 . S
C29 C30 1.386 . S
C30 C29 1.386 . S
C30 C31 1.382 . S
C30 H52 0.950 . S
C31 N27 1.332 . S
C31 C30 1.382 . S
C31 H33 0.958 . S
C32 N27 1.332 . S
C32 C28 1.382 . S
C32 H34 0.948 1_655 S
H33 C31 0.958 . S
H34 C32 0.948 1_455 S
H35 C24 0.952 . S
H36 C26 0.948 1_655 S
C37 C3 1.395 . S
C37 C7 1.391 . S
C38 C0 1.389 . S
C38 C20 1.392 . S
C39 C10 1.392 . S
C39 C12 1.389 . S
C40 C15 1.395 . S
C40 C17 1.391 . S
H41 C1 0.951 . S
H42 C2 0.950 . S
H43 C8 0.949 . S
H44 C9 0.950 1_455 S
H45 C13 0.951 . S
H46 C14 0.950 . S
H47 C18 0.949 . S
H48 C19 0.950 1_655 S
H49 C23 0.950 . S
H50 C25 0.950 . S
H51 C28 0.950 . S
H52 C30 0.950 . S
C53 C54 1.440 1_545 S
C53 N57 1.376 1_545 S
C53 C91 1.389 . S
C54 C53 1.440 1_565 S
C54 C55 1.345 . S
C54 H94 0.950 1_565 S
C55 C54 1.345 . S
C55 C56 1.439 . S
C55 H95 0.950 . S
C56 C55 1.439 . S
C56 N57 1.374 . S
C56 C90 1.395 . S
N57 C53 1.376 1_565 S
N57 C56 1.374 . S
N57 Co58 1.996 1_565 S
Co58 N57 1.996 1_545 S
Co58 N59 1.976 1_545 S
Co58 N64 2.021 . S
Co58 N69 2.013 . S
Co58 N74 2.251 1_545 S
Co58 N80 2.314 . S
N59 Co58 1.976 1_565 S
N59 C60 1.376 . S
N59 C63 1.383 . S
C60 N59 1.376 . S
C60 C61 1.446 . S
C60 C90 1.391 . S
C61 C60 1.446 . S
C61 C62 1.339 . S
C61 H96 0.949 . S
C62 C61 1.339 . S
C62 C63 1.439 . S
C62 H97 0.950 . S
C63 N59 1.383 . S
C63 C62 1.439 . S
C63 C92 1.392 . S
N64 Co58 2.021 . S
N64 C65 1.376 1_545 S
N64 C68 1.374 . S
C65 N64 1.376 1_565 S
C65 C66 1.443 1_565 S
C65 C92 1.389 . S
C66 C65 1.443 1_545 S
C66 C67 1.340 . S
C66 H98 0.951 1_545 S
C67 C66 1.340 . S
C67 C68 1.439 . S
C67 H99 0.950 . S
C68 N64 1.374 . S
C68 C67 1.439 . S
C68 C93 1.395 . S
N69 Co58 2.013 . S
N69 C70 1.376 . S
N69 C73 1.383 . S
C70 N69 1.376 . S
C70 C71 1.446 . S
C70 C93 1.391 . S
C71 C70 1.446 . S
C71 C72 1.339 . S
C71 H100 0.949 . S
C72 C71 1.339 . S
C72 C73 1.439 . S
C72 H101 0.950 . S
C73 N69 1.383 . S
C73 C72 1.439 . S
C73 C91 1.392 . S
N74 Co58 2.251 1_565 S
N74 C77 1.332 . S
N74 C79 1.332 . S
C75 C76 1.386 . S
C75 C78 1.388 . S
C76 C75 1.386 . S
C76 C77 1.382 . S
C76 H102 0.950 . S
C77 N74 1.332 . S
C77 C76 1.382 . S
C77 H88 0.952 1_565 S
C78 C75 1.388 . S
C78 C79 1.382 . S
C78 H103 0.950 . S
C79 N74 1.332 . S
C79 C78 1.382 . S
C79 H89 0.948 . S
N80 Co58 2.314 . S
N80 C84 1.332 . S
N80 C85 1.332 . S
C81 C82 1.388 . S
C81 C85 1.382 . S
C81 H104 0.950 . S
C82 C81 1.388 . S
C82 C83 1.386 . S
C83 C82 1.386 . S
C83 C84 1.382 . S
C83 H105 0.950 . S
C84 N80 1.332 . S
C84 C83 1.382 . S
C84 H86 0.952 1_545 S
C85 N80 1.332 . S
C85 C81 1.382 . S
C85 H87 0.948 . S
H86 C84 0.952 1_565 S
H87 C85 0.948 . S
H88 C77 0.952 1_545 S
H89 C79 0.948 . S
C90 C56 1.395 . S
C90 C60 1.391 . S
C91 C53 1.389 . S
C91 C73 1.392 . S
C92 C63 1.392 . S
C92 C65 1.389 . S
C93 C68 1.395 . S
C93 C70 1.391 . S
H94 C54 0.950 1_545 S
H95 C55 0.950 . S
H96 C61 0.949 . S
H97 C62 0.950 . S
H98 C66 0.951 1_565 S
H99 C67 0.950 . S
H100 C71 0.949 . S
H101 C72 0.950 . S
H102 C76 0.950 . S
H103 C78 0.950 . S
H104 C81 0.950 . S
H105 C83 0.950 . S
C106 C107 1.443 . S
C106 N110 1.376 . S
C106 C144 1.389 . S
C107 C106 1.443 . S
C107 C108 1.340 . S
C107 H147 0.951 . S
C108 C107 1.340 . S
C108 C109 1.439 . S
C108 H148 0.950 . S
C109 C108 1.439 . S
C109 N110 1.374 . S
C109 C143 1.395 . S
N110 C106 1.376 . S
N110 C109 1.374 . S
N110 Co111 1.992 1_556 S
Co111 N110 1.992 1_554 S
Co111 N112 1.993 1_554 S
Co111 N117 2.024 . S
Co111 N122 1.997 . S
Co111 N127 2.293 . S
Co111 N133 2.272 1_554 S
N112 Co111 1.993 1_556 S
N112 C113 1.376 . S
N112 C116 1.383 1_556 S
C113 N112 1.376 . S
C113 C114 1.446 . S
C113 C143 1.391 . S
C114 C113 1.446 . S
C114 C115 1.339 1_556 S
C114 H149 0.949 . S
C115 C114 1.339 1_554 S
C115 C116 1.439 . S
C115 H150 0.950 . S
C116 N112 1.383 1_554 S
C116 C115 1.439 . S
C116 C145 1.392 . S
N117 Co111 2.024 . S
N117 C118 1.376 . S
N117 C121 1.374 . S
C118 N117 1.376 . S
C118 C119 1.443 . S
C118 C145 1.389 . S
C119 C118 1.443 . S
C119 C120 1.340 . S
C119 H151 0.951 . S
C120 C119 1.340 . S
C120 C121 1.439 . S
C120 H152 0.950 . S
C121 N117 1.374 . S
C121 C120 1.439 . S
C121 C146 1.395 . S
N122 Co111 1.997 . S
N122 C123 1.376 . S
N122 C126 1.383 1_554 S
C123 N122 1.376 . S
C123 C124 1.446 . S
C123 C146 1.391 . S
C124 C123 1.446 . S
C124 C125 1.339 1_554 S
C124 H153 0.949 . S
C125 C124 1.339 1_556 S
C125 C126 1.439 . S
C125 H154 0.950 . S
C126 N122 1.383 1_556 S
C126 C125 1.439 . S
C126 C144 1.392 . S
N127 Co111 2.293 . S
N127 C130 1.332 . S
N127 C132 1.332 . S
C128 C129 1.386 . S
C128 C131 1.388 . S
C129 C128 1.386 . S
C129 C130 1.382 . S
C129 H155 0.950 . S
C130 N127 1.332 . S
C130 C129 1.382 . S
C130 H141 0.952 . S
C131 C128 1.388 . S
C131 C132 1.382 . S
C131 H156 0.950 . S
C132 N127 1.332 . S
C132 C131 1.382 . S
C132 H142 0.948 . S
N133 Co111 2.272 1_556 S
N133 C137 1.332 . S
N133 C138 1.332 . S
C134 C135 1.388 . S
C134 C138 1.382 . S
C134 H157 0.950 . S
C135 C134 1.388 . S
C135 C136 1.386 . S
C136 C135 1.386 . S
C136 C137 1.382 . S
C136 H158 0.950 . S
C137 N133 1.332 . S
C137 C136 1.382 . S
C137 H139 0.952 . S
C138 N133 1.332 . S
C138 C134 1.382 . S
C138 H140 0.948 . S
H139 C137 0.952 . S
H140 C138 0.948 . S
H141 C130 0.952 . S
H142 C132 0.948 . S
C143 C109 1.395 . S
C143 C113 1.391 . S
C144 C106 1.389 . S
C144 C126 1.392 . S
C145 C116 1.392 . S
C145 C118 1.389 . S
C146 C121 1.395 . S
C146 C123 1.391 . S
H147 C107 0.951 . S
H148 C108 0.950 . S
H149 C114 0.949 . S
H150 C115 0.950 . S
H151 C119 0.951 . S
H152 C120 0.950 . S
H153 C124 0.949 . S
H154 C125 0.950 . S
H155 C129 0.950 . S
H156 C131 0.950 . S
H157 C134 0.950 . S
H158 C136 0.950 . S
C159 C160 1.443 . S
C159 N163 1.376 . S
C159 C197 1.389 . S
C160 C159 1.443 . S
C160 C161 1.340 . S
C160 H200 0.951 . S
C161 C160 1.340 . S
C161 C162 1.439 . S
C161 H201 0.950 . S
C162 C161 1.439 . S
C162 N163 1.374 . S
C162 C196 1.395 . S
N163 C159 1.376 . S
N163 C162 1.374 . S
N163 Co164 2.000 1_655 S
Co164 N163 2.000 1_455 S
Co164 N165 1.988 1_455 S
Co164 N170 2.017 . S
Co164 N175 2.001 . S
Co164 N180 2.292 . S
Co164 N186 2.273 1_455 S
N165 Co164 1.988 1_655 S
N165 C166 1.376 . S
N165 C169 1.383 1_655 S
C166 N165 1.376 . S
C166 C167 1.446 . S
C166 C196 1.391 . S
C167 C166 1.446 . S
C167 C168 1.339 . S
C167 H202 0.949 . S
C168 C167 1.339 . S
C168 C169 1.439 1_655 S
C168 H203 0.950 1_655 S
C169 N165 1.383 1_455 S
C169 C168 1.439 1_455 S
C169 C198 1.392 . S
N170 Co164 2.017 . S
N170 C171 1.376 . S
N170 C174 1.374 . S
C171 N170 1.376 . S
C171 C172 1.443 . S
C171 C198 1.389 . S
C172 C171 1.443 . S
C172 C173 1.340 . S
C172 H204 0.951 . S
C173 C172 1.340 . S
C173 C174 1.439 . S
C173 H205 0.950 . S
C174 N170 1.374 . S
C174 C173 1.439 . S
C174 C199 1.395 . S
N175 Co164 2.001 . S
N175 C176 1.376 . S
N175 C179 1.383 1_455 S
C176 N175 1.376 . S
C176 C177 1.446 . S
C176 C199 1.391 . S
C177 C176 1.446 . S
C177 C178 1.339 . S
C177 H206 0.949 . S
C178 C177 1.339 . S
C178 C179 1.439 1_455 S
C178 H207 0.950 1_455 S
C179 N175 1.383 1_655 S
C179 C178 1.439 1_655 S
C179 C197 1.392 . S
N180 Co164 2.292 . S
N180 C183 1.332 . S
N180 C185 1.332 . S
C181 C182 1.386 . S
C181 C184 1.388 . S
C182 C181 1.386 . S
C182 C183 1.382 . S
C182 H208 0.950 . S
C183 N180 1.332 . S
C183 C182 1.382 . S
C183 H194 0.952 . S
C184 C181 1.388 . S
C184 C185 1.382 . S
C184 H209 0.950 . S
C185 N180 1.332 . S
C185 C184 1.382 . S
C185 H195 0.948 1_455 S
N186 Co164 2.273 1_655 S
N186 C190 1.332 . S
N186 C191 1.332 . S
C187 C188 1.388 . S
C187 C191 1.382 . S
C187 H210 0.950 . S
C188 C187 1.388 . S
C188 C189 1.386 . S
C189 C188 1.386 . S
C189 C190 1.382 . S
C189 H211 0.950 . S
C190 N186 1.332 . S
C190 C189 1.382 . S
C190 H192 0.952 . S
C191 N186 1.332 . S
C191 C187 1.382 . S
C191 H193 0.948 1_655 S
H192 C190 0.952 . S
H193 C191 0.948 1_455 S
H194 C183 0.952 . S
H195 C185 0.948 1_655 S
C196 C162 1.395 . S
C196 C166 1.391 . S
C197 C159 1.389 . S
C197 C179 1.392 . S
C198 C169 1.392 . S
C198 C171 1.389 . S
C199 C174 1.395 . S
C199 C176 1.391 . S
H200 C160 0.951 . S
H201 C161 0.950 . S
H202 C167 0.949 . S
H203 C168 0.950 1_455 S
H204 C172 0.951 . S
H205 C173 0.950 . S
H206 C177 0.949 . S
H207 C178 0.950 1_655 S
H208 C182 0.950 . S
H209 C184 0.950 . S
H210 C187 0.950 . S
H211 C189 0.950 . S
C212 C213 1.443 1_565 S
C212 N216 1.376 1_565 S
C212 C250 1.389 . S
C213 C212 1.443 1_545 S
C213 C214 1.340 . S
C213 H253 0.951 1_545 S
C214 C213 1.340 . S
C214 C215 1.439 . S
C214 H254 0.950 . S
C215 C214 1.439 . S
C215 N216 1.374 . S
C215 C249 1.395 . S
N216 C212 1.376 1_545 S
N216 C215 1.374 . S
N216 Co217 2.041 . S
Co217 N216 2.041 . S
Co217 N218 2.013 . S
Co217 N223 1.976 1_544 S
Co217 N228 1.977 1_545 S
Co217 N233 2.303 1_554 S
Co217 N239 2.262 1_545 S
N218 Co217 2.013 . S
N218 C219 1.389 . S
N218 C222 1.370 1_554 S
C219 N218 1.389 . S
C219 C220 1.446 . S
C219 C249 1.391 . S
C220 C219 1.446 . S
C220 C221 1.339 1_554 S
C220 H255 0.949 . S
C221 C220 1.339 1_556 S
C221 C222 1.439 . S
C221 H256 0.950 . S
C222 N218 1.370 1_556 S
C222 C221 1.439 . S
C222 C251 1.392 . S
N223 Co217 1.976 1_566 S
N223 C224 1.376 1_565 S
N223 C227 1.374 . S
C224 N223 1.376 1_545 S
C224 C225 1.456 . S
C224 C251 1.389 . S
C225 C224 1.456 . S
C225 C226 1.325 1_545 S
C225 H257 0.954 . S
C226 C225 1.325 1_565 S
C226 C227 1.439 . S
C226 H258 0.950 . S
C227 N223 1.374 . S
C227 C226 1.439 . S
C227 C252 1.395 . S
N228 Co217 1.977 1_565 S
N228 C229 1.362 1_554 S
N228 C232 1.398 . S
C229 N228 1.362 1_556 S
C229 C230 1.446 . S
C229 C252 1.391 . S
C230 C229 1.446 . S
C230 C231 1.339 1_556 S
C230 H259 0.949 . S
C231 C230 1.339 1_554 S
C231 C232 1.439 . S
C231 H260 0.950 . S
C232 N228 1.398 . S
C232 C231 1.439 . S
C232 C250 1.392 . S
N233 Co217 2.303 1_556 S
N233 C236 1.332 . S
N233 C238 1.332 . S
C234 C235 1.386 . S
C234 C237 1.388 . S
C235 C234 1.386 . S
C235 C236 1.382 . S
C235 H261 0.950 . S
C236 N233 1.332 . S
C236 C235 1.382 . S
C236 H247 0.952 1_545 S
C237 C234 1.388 . S
C237 C238 1.382 . S
C237 H262 0.950 . S
C238 N233 1.332 . S
C238 C237 1.382 . S
C238 H248 0.948 . S
N239 Co217 2.262 1_565 S
N239 C243 1.332 . S
N239 C244 1.332 . S
C240 C241 1.388 . S
C240 C244 1.382 . S
C240 H263 0.950 . S
C241 C240 1.388 . S
C241 C242 1.386 . S
C242 C241 1.386 . S
C242 C243 1.382 . S
C242 H264 0.950 . S
C243 N239 1.332 . S
C243 C242 1.382 . S
C243 H245 0.952 1_565 S
C244 N239 1.332 . S
C244 C240 1.382 . S
C244 H246 0.948 . S
H245 C243 0.952 1_545 S
H246 C244 0.948 . S
H247 C236 0.952 1_565 S
H248 C238 0.948 . S
C249 C215 1.395 . S
C249 C219 1.391 . S
C250 C212 1.389 . S
C250 C232 1.392 . S
C251 C222 1.392 . S
C251 C224 1.389 . S
C252 C227 1.395 . S
C252 C229 1.391 . S
H253 C213 0.951 1_565 S
H254 C214 0.950 . S
H255 C220 0.949 . S
H256 C221 0.950 . S
H257 C225 0.954 . S
H258 C226 0.950 . S
H259 C230 0.949 . S
H260 C231 0.950 . S
H261 C235 0.950 . S
H262 C237 0.950 . S
H263 C240 0.950 . S
H264 C242 0.950 . S
C265 C266 1.443 . S
C265 N269 1.376 . S
C265 C303 1.389 . S
C266 C265 1.443 . S
C266 C267 1.340 . S
C266 H306 0.951 . S
C267 C266 1.340 . S
C267 C268 1.439 . S
C267 H307 0.950 . S
C268 C267 1.439 . S
C268 N269 1.374 . S
C268 C302 1.395 . S
N269 C265 1.376 . S
N269 C268 1.374 . S
N269 Co270 2.008 . S
Co270 N269 2.008 . S
Co270 N271 1.995 . S
Co270 N276 2.008 . S
Co270 N281 1.995 . S
Co270 N286 2.282 . S
Co270 N292 2.282 . S
N271 Co270 1.995 . S
N271 C272 1.376 . S
N271 C275 1.383 . S
C272 N271 1.376 . S
C272 C273 1.446 . S
C272 C302 1.391 . S
C273 C272 1.446 . S
C273 C274 1.339 . S
C273 H308 0.949 . S
C274 C273 1.339 . S
C274 C275 1.439 . S
C274 H309 0.950 . S
C275 N271 1.383 . S
C275 C274 1.439 . S
C275 C304 1.392 . S
N276 Co270 2.008 . S
N276 C277 1.376 . S
N276 C280 1.374 . S
C277 N276 1.376 . S
C277 C278 1.443 . S
C277 C304 1.389 . S
C278 C277 1.443 . S
C278 C279 1.340 . S
C278 H310 0.951 . S
C279 C278 1.340 . S
C279 C280 1.439 . S
C279 H311 0.950 . S
C280 N276 1.374 . S
C280 C279 1.439 . S
C280 C305 1.395 . S
N281 Co270 1.995 . S
N281 C282 1.376 . S
N281 C285 1.383 . S
C282 N281 1.376 . S
C282 C283 1.446 . S
C282 C305 1.391 . S
C283 C282 1.446 . S
C283 C284 1.339 . S
C283 H312 0.949 . S
C284 C283 1.339 . S
C284 C285 1.439 . S
C284 H313 0.950 . S
C285 N281 1.383 . S
C285 C284 1.439 . S
C285 C303 1.392 . S
N286 Co270 2.282 . S
N286 C289 1.332 . S
N286 C291 1.332 . S
C287 C288 1.386 . S
C287 C290 1.388 . S
C288 C287 1.386 . S
C288 C289 1.382 . S
C288 H314 0.950 . S
C289 N286 1.332 . S
C289 C288 1.382 . S
C289 H300 0.952 . S
C290 C287 1.388 . S
C290 C291 1.382 . S
C290 H315 0.950 . S
C291 N286 1.332 . S
C291 C290 1.382 . S
C291 H301 0.948 . S
N292 Co270 2.282 . S
N292 C296 1.332 . S
N292 C297 1.332 . S
C293 C294 1.388 . S
C293 C297 1.382 . S
C293 H316 0.950 . S
C294 C293 1.388 . S
C294 C295 1.386 . S
C295 C294 1.386 . S
C295 C296 1.382 . S
C295 H317 0.950 . S
C296 N292 1.332 . S
C296 C295 1.382 . S
C296 H298 0.952 . S
C297 N292 1.332 . S
C297 C293 1.382 . S
C297 H299 0.948 . S
H298 C296 0.952 . S
H299 C297 0.948 . S
H300 C289 0.952 . S
H301 C291 0.948 . S
C302 C268 1.395 . S
C302 C272 1.391 . S
C303 C265 1.389 . S
C303 C285 1.392 . S
C304 C275 1.392 . S
C304 C277 1.389 . S
C305 C280 1.395 . S
C305 C282 1.391 . S
H306 C266 0.951 . S
H307 C267 0.950 . S
H308 C273 0.949 . S
H309 C274 0.950 . S
H310 C278 0.951 . S
H311 C279 0.950 . S
H312 C283 0.949 . S
H313 C284 0.950 . S
H314 C288 0.950 . S
H315 C290 0.950 . S
H316 C293 0.950 . S
H317 C295 0.950 . S
C318 O320 1.247 . S
C318 O322 1.258 . S
C319 O326 1.247 . S
C319 O327 1.258 . S
O320 C318 1.247 . S
O320 Zn321 2.028 . S
Zn321 O320 2.028 . S
Zn321 O325 2.035 . S
Zn321 O327 2.035 . S
Zn321 O328 2.028 . S
O322 C318 1.258 . S
O322 Zn323 2.035 . S
Zn323 O322 2.035 . S
Zn323 O324 2.028 . S
Zn323 O326 2.028 . S
Zn323 O329 2.035 . S
O324 Zn323 2.028 . S
O324 C330 1.247 . S
O325 Zn321 2.035 . S
O325 C330 1.258 . S
O326 C319 1.247 . S
O326 Zn323 2.028 . S
O327 C319 1.258 . S
O327 Zn321 2.035 . S
O328 Zn321 2.028 . S
O328 C331 1.247 . S
O329 Zn323 2.035 . S
O329 C331 1.258 . S
C330 O324 1.247 . S
C330 O325 1.258 . S
C331 O328 1.247 . S
C331 O329 1.258 . S
C332 O334 1.247 . S
C332 O336 1.258 . S
C333 O340 1.247 . S
C333 O341 1.258 . S
O334 C332 1.247 . S
O334 Zn335 2.028 . S
Zn335 O334 2.028 . S
Zn335 O339 2.035 . S
Zn335 O341 2.035 . S
Zn335 O342 2.028 . S
O336 C332 1.258 . S
O336 Zn337 2.035 . S
Zn337 O336 2.035 . S
Zn337 O338 2.028 . S
Zn337 O340 2.028 . S
Zn337 O343 2.035 . S
O338 Zn337 2.028 . S
O338 C344 1.247 . S
O339 Zn335 2.035 . S
O339 C344 1.258 . S
O340 C333 1.247 . S
O340 Zn337 2.028 . S
O341 C333 1.258 . S
O341 Zn335 2.035 . S
O342 Zn335 2.028 . S
O342 C345 1.247 . S
O343 Zn337 2.035 . S
O343 C345 1.258 . S
C344 O338 1.247 . S
C344 O339 1.258 . S
C345 O342 1.247 . S
C345 O343 1.258 . S
C346 O348 1.247 . S
C346 O350 1.258 . S
C347 O354 1.247 . S
C347 O355 1.258 . S
O348 C346 1.247 . S
O348 Zn349 2.028 . S
Zn349 O348 2.028 . S
Zn349 O353 2.035 . S
Zn349 O355 2.035 . S
Zn349 O356 2.028 . S
O350 C346 1.258 . S
O350 Zn351 2.035 . S
Zn351 O350 2.035 . S
Zn351 O352 2.028 . S
Zn351 O354 2.028 . S
Zn351 O357 2.035 . S
O352 Zn351 2.028 . S
O352 C358 1.247 . S
O353 Zn349 2.035 . S
O353 C358 1.258 . S
O354 C347 1.247 . S
O354 Zn351 2.028 . S
O355 C347 1.258 . S
O355 Zn349 2.035 . S
O356 Zn349 2.028 . S
O356 C359 1.247 . S
O357 Zn351 2.035 . S
O357 C359 1.258 . S
C358 O352 1.247 . S
C358 O353 1.258 . S
C359 O356 1.247 . S
C359 O357 1.258 . S
C360 O362 1.247 . S
C360 O364 1.258 . S
C361 O368 1.247 . S
C361 O369 1.258 . S
O362 C360 1.247 . S
O362 Zn363 2.028 . S
Zn363 O362 2.028 . S
Zn363 O367 2.035 . S
Zn363 O369 2.035 . S
Zn363 O370 2.028 . S
O364 C360 1.258 . S
O364 Zn365 2.035 . S
Zn365 O364 2.035 . S
Zn365 O366 2.028 . S
Zn365 O368 2.028 . S
Zn365 O371 2.035 . S
O366 Zn365 2.028 . S
O366 C372 1.247 . S
O367 Zn363 2.035 . S
O367 C372 1.258 . S
O368 C361 1.247 . S
O368 Zn365 2.028 . S
O369 C361 1.258 . S
O369 Zn363 2.035 . S
O370 Zn363 2.028 . S
O370 C373 1.247 . S
O371 Zn365 2.035 . S
O371 C373 1.258 . S
C372 O366 1.247 . S
C372 O367 1.258 . S
C373 O370 1.247 . S
C373 O371 1.258 . S
C374 O376 1.247 . S
C374 O378 1.258 . S
C375 O382 1.247 . S
C375 O383 1.258 . S
O376 C374 1.247 . S
O376 Zn377 2.028 . S
Zn377 O376 2.028 . S
Zn377 O381 2.035 . S
Zn377 O383 2.035 . S
Zn377 O384 2.028 . S
O378 C374 1.258 . S
O378 Zn379 2.035 . S
Zn379 O378 2.035 . S
Zn379 O380 2.028 . S
Zn379 O382 2.028 . S
Zn379 O385 2.035 . S
O380 Zn379 2.028 . S
O380 C386 1.247 . S
O381 Zn377 2.035 . S
O381 C386 1.258 . S
O382 C375 1.247 . S
O382 Zn379 2.028 . S
O383 C375 1.258 . S
O383 Zn377 2.035 . S
O384 Zn377 2.028 . S
O384 C387 1.247 . S
O385 Zn379 2.035 . S
O385 C387 1.258 . S
C386 O380 1.247 . S
C386 O381 1.258 . S
C387 O384 1.247 . S
C387 O385 1.258 . S
C388 O390 1.247 . S
C388 O392 1.258 . S
C389 O396 1.247 . S
C389 O397 1.258 . S
O390 C388 1.247 . S
O390 Zn391 2.028 . S
Zn391 O390 2.028 . S
Zn391 O395 2.035 . S
Zn391 O397 2.035 . S
Zn391 O398 2.028 . S
O392 C388 1.258 . S
O392 Zn393 2.035 . S
Zn393 O392 2.035 . S
Zn393 O394 2.028 . S
Zn393 O396 2.028 . S
Zn393 O399 2.035 . S
O394 Zn393 2.028 . S
O394 C400 1.247 . S
O395 Zn391 2.035 . S
O395 C400 1.258 . S
O396 C389 1.247 . S
O396 Zn393 2.028 . S
O397 C389 1.258 . S
O397 Zn391 2.035 . S
O398 Zn391 2.028 . S
O398 C401 1.247 . S
O399 Zn393 2.035 . S
O399 C401 1.258 . S
C400 O394 1.247 . S
C400 O395 1.258 . S
C401 O398 1.247 . S
C401 O399 1.258 . S
H402 C410 0.950 . S
H403 C415 0.950 . S
H404 C412 0.950 . S
H405 C414 0.950 . S
H406 C416 0.950 . S
H407 C418 0.950 . S
H408 C420 0.950 . S
H409 C421 0.950 . S
C410 H402 0.950 . S
C410 C411 1.386 . S
C410 C412 1.391 . S
C411 C410 1.386 . S
C411 C415 1.393 . S
C412 H404 0.950 . S
C412 C410 1.391 . S
C412 C413 1.400 . S
C413 C412 1.400 . S
C413 C414 1.398 . S
C413 C419 1.491 . S
C414 H405 0.950 . S
C414 C413 1.398 . S
C414 C415 1.391 . S
C415 H403 0.950 . S
C415 C411 1.393 . S
C415 C414 1.391 . S
C416 H406 0.950 . S
C416 C417 1.386 . S
C416 C418 1.391 . S
C417 C416 1.386 . S
C417 C421 1.393 . S
C418 H407 0.950 . S
C418 C416 1.391 . S
C418 C419 1.400 . S
C419 C413 1.491 . S
C419 C418 1.400 . S
C419 C420 1.398 . S
C420 H408 0.950 . S
C420 C419 1.398 . S
C420 C421 1.391 . S
C421 H409 0.950 . S
C421 C417 1.393 . S
C421 C420 1.391 . S
H422 C430 0.950 . S
H423 C435 0.950 . S
H424 C432 0.950 . S
H425 C434 0.950 . S
H426 C436 0.950 . S
H427 C438 0.950 . S
H428 C440 0.950 . S
H429 C441 0.950 . S
C430 H422 0.950 . S
C430 C431 1.386 . S
C430 C432 1.391 . S
C431 C430 1.386 . S
C431 C435 1.393 . S
C432 H424 0.950 . S
C432 C430 1.391 . S
C432 C433 1.400 . S
C433 C432 1.400 . S
C433 C434 1.398 . S
C433 C439 1.491 . S
C434 H425 0.950 . S
C434 C433 1.398 . S
C434 C435 1.391 . S
C435 H423 0.950 . S
C435 C431 1.393 . S
C435 C434 1.391 . S
C436 H426 0.950 . S
C436 C437 1.386 . S
C436 C438 1.391 . S
C437 C436 1.386 . S
C437 C441 1.393 . S
C438 H427 0.950 . S
C438 C436 1.391 . S
C438 C439 1.400 . S
C439 C433 1.491 . S
C439 C438 1.400 . S
C439 C440 1.398 . S
C440 H428 0.950 . S
C440 C439 1.398 . S
C440 C441 1.391 . S
C441 H429 0.950 . S
C441 C437 1.393 . S
C441 C440 1.391 . S
H442 C450 0.950 . S
H443 C455 0.950 . S
H444 C452 0.950 . S
H445 C454 0.950 . S
H446 C456 0.950 . S
H447 C458 0.950 . S
H448 C460 0.950 . S
H449 C461 0.950 . S
C450 H442 0.950 . S
C450 C451 1.386 . S
C450 C452 1.391 . S
C451 C450 1.386 . S
C451 C455 1.393 . S
C452 H444 0.950 . S
C452 C450 1.391 . S
C452 C453 1.400 . S
C453 C452 1.400 . S
C453 C454 1.398 . S
C453 C459 1.491 . S
C454 H445 0.950 . S
C454 C453 1.398 . S
C454 C455 1.391 . S
C455 H443 0.950 . S
C455 C451 1.393 . S
C455 C454 1.391 . S
C456 H446 0.950 . S
C456 C457 1.386 . S
C456 C458 1.391 . S
C457 C456 1.386 . S
C457 C461 1.393 . S
C458 H447 0.950 . S
C458 C456 1.391 . S
C458 C459 1.400 . S
C459 C453 1.491 . S
C459 C458 1.400 . S
C459 C460 1.398 . S
C460 H448 0.950 . S
C460 C459 1.398 . S
C460 C461 1.391 . S
C461 H449 0.950 . S
C461 C457 1.393 . S
C461 C460 1.391 . S
H462 C470 0.950 . S
H463 C475 0.950 . S
H464 C472 0.950 . S
H465 C474 0.950 . S
H466 C476 0.950 . S
H467 C478 0.950 . S
H468 C480 0.950 . S
H469 C481 0.950 . S
C470 H462 0.950 . S
C470 C471 1.386 . S
C470 C472 1.391 . S
C471 C470 1.386 . S
C471 C475 1.393 . S
C472 H464 0.950 . S
C472 C470 1.391 . S
C472 C473 1.400 . S
C473 C472 1.400 . S
C473 C474 1.398 . S
C473 C479 1.491 . S
C474 H465 0.950 . S
C474 C473 1.398 . S
C474 C475 1.391 . S
C475 H463 0.950 . S
C475 C471 1.393 . S
C475 C474 1.391 . S
C476 H466 0.950 . S
C476 C477 1.386 . S
C476 C478 1.391 . S
C477 C476 1.386 . S
C477 C481 1.393 . S
C478 H467 0.950 . S
C478 C476 1.391 . S
C478 C479 1.400 . S
C479 C473 1.491 . S
C479 C478 1.400 . S
C479 C480 1.398 . S
C480 H468 0.950 . S
C480 C479 1.398 . S
C480 C481 1.391 . S
C481 H469 0.950 . S
C481 C477 1.393 . S
C481 C480 1.391 . S
H482 C490 0.950 . S
H483 C495 0.950 . S
H484 C492 0.950 . S
H485 C494 0.950 . S
H486 C496 0.950 . S
H487 C498 0.950 . S
H488 C500 0.950 . S
H489 C501 0.950 . S
C490 H482 0.950 . S
C490 C491 1.386 . S
C490 C492 1.391 . S
C491 C490 1.386 . S
C491 C495 1.393 . S
C492 H484 0.950 . S
C492 C490 1.391 . S
C492 C493 1.400 . S
C493 C492 1.400 . S
C493 C494 1.398 . S
C493 C499 1.491 . S
C494 H485 0.950 . S
C494 C493 1.398 . S
C494 C495 1.391 . S
C495 H483 0.950 . S
C495 C491 1.393 . S
C495 C494 1.391 . S
C496 H486 0.950 . S
C496 C497 1.386 . S
C496 C498 1.391 . S
C497 C496 1.386 . S
C497 C501 1.393 . S
C498 H487 0.950 . S
C498 C496 1.391 . S
C498 C499 1.400 . S
C499 C493 1.491 . S
C499 C498 1.400 . S
C499 C500 1.398 . S
C500 H488 0.950 . S
C500 C499 1.398 . S
C500 C501 1.391 . S
C501 H489 0.950 . S
C501 C497 1.393 . S
C501 C500 1.391 . S
H502 C510 0.950 . S
H503 C515 0.950 . S
H504 C512 0.950 . S
H505 C514 0.950 . S
H506 C516 0.950 . S
H507 C518 0.950 . S
H508 C520 0.950 . S
H509 C521 0.950 . S
C510 H502 0.950 . S
C510 C511 1.386 . S
C510 C512 1.391 . S
C511 C510 1.386 . S
C511 C515 1.393 . S
C512 H504 0.950 . S
C512 C510 1.391 . S
C512 C513 1.400 . S
C513 C512 1.400 . S
C513 C514 1.398 . S
C513 C519 1.491 . S
C514 H505 0.950 . S
C514 C513 1.398 . S
C514 C515 1.391 . S
C515 H503 0.950 . S
C515 C511 1.393 . S
C515 C514 1.391 . S
C516 H506 0.950 . S
C516 C517 1.386 . S
C516 C518 1.391 . S
C517 C516 1.386 . S
C517 C521 1.393 . S
C518 H507 0.950 . S
C518 C516 1.391 . S
C518 C519 1.400 . S
C519 C513 1.491 . S
C519 C518 1.400 . S
C519 C520 1.398 . S
C520 H508 0.950 . S
C520 C519 1.398 . S
C520 C521 1.391 . S
C521 H509 0.950 . S
C521 C517 1.393 . S
C521 C520 1.391 . S
H522 C530 0.950 . S
H523 C535 0.950 . S
H524 C532 0.950 . S
H525 C534 0.950 . S
H526 C536 0.950 . S
H527 C538 0.950 . S
H528 C540 0.950 . S
H529 C541 0.950 . S
C530 H522 0.950 . S
C530 C531 1.386 . S
C530 C532 1.391 . S
C531 C530 1.386 . S
C531 C535 1.393 . S
C532 H524 0.950 . S
C532 C530 1.391 . S
C532 C533 1.400 . S
C533 C532 1.400 . S
C533 C534 1.398 . S
C533 C539 1.491 . S
C534 H525 0.950 . S
C534 C533 1.398 . S
C534 C535 1.391 . S
C535 H523 0.950 . S
C535 C531 1.393 . S
C535 C534 1.391 . S
C536 H526 0.950 . S
C536 C537 1.386 . S
C536 C538 1.391 . S
C537 C536 1.386 . S
C537 C541 1.393 . S
C538 H527 0.950 . S
C538 C536 1.391 . S
C538 C539 1.400 . S
C539 C533 1.491 . S
C539 C538 1.400 . S
C539 C540 1.398 . S
C540 H528 0.950 . S
C540 C539 1.398 . S
C540 C541 1.391 . S
C541 H529 0.950 . S
C541 C537 1.393 . S
C541 C540 1.391 . S
H542 C550 0.950 . S
H543 C555 0.950 . S
H544 C552 0.950 . S
H545 C554 0.950 . S
H546 C556 0.950 . S
H547 C558 0.950 . S
H548 C560 0.950 . S
H549 C561 0.950 . S
C550 H542 0.950 . S
C550 C551 1.386 . S
C550 C552 1.391 . S
C551 C550 1.386 . S
C551 C555 1.393 . S
C552 H544 0.950 . S
C552 C550 1.391 . S
C552 C553 1.400 . S
C553 C552 1.400 . S
C553 C554 1.398 . S
C553 C559 1.491 . S
C554 H545 0.950 . S
C554 C553 1.398 . S
C554 C555 1.391 . S
C555 H543 0.950 . S
C555 C551 1.393 . S
C555 C554 1.391 . S
C556 H546 0.950 . S
C556 C557 1.386 . S
C556 C558 1.391 . S
C557 C556 1.386 . S
C557 C561 1.393 . S
C558 H547 0.950 . S
C558 C556 1.391 . S
C558 C559 1.400 . S
C559 C553 1.491 . S
C559 C558 1.400 . S
C559 C560 1.398 . S
C560 H548 0.950 . S
C560 C559 1.398 . S
C560 C561 1.391 . S
C561 H549 0.950 . S
C561 C557 1.393 . S
C561 C560 1.391 . S
H562 C570 0.950 . S
H563 C575 0.950 . S
H564 C572 0.950 . S
H565 C574 0.950 . S
H566 C576 0.950 . S
H567 C578 0.950 . S
H568 C580 0.950 . S
H569 C581 0.950 . S
C570 H562 0.950 . S
C570 C571 1.386 . S
C570 C572 1.391 . S
C571 C570 1.386 . S
C571 C575 1.393 . S
C572 H564 0.950 . S
C572 C570 1.391 . S
C572 C573 1.400 . S
C573 C572 1.400 . S
C573 C574 1.398 . S
C573 C579 1.491 . S
C574 H565 0.950 . S
C574 C573 1.398 . S
C574 C575 1.391 . S
C575 H563 0.950 . S
C575 C571 1.393 . S
C575 C574 1.391 . S
C576 H566 0.950 . S
C576 C577 1.386 . S
C576 C578 1.391 . S
C577 C576 1.386 . S
C577 C581 1.393 . S
C578 H567 0.950 . S
C578 C576 1.391 . S
C578 C579 1.400 . S
C579 C573 1.491 . S
C579 C578 1.400 . S
C579 C580 1.398 . S
C580 H568 0.950 . S
C580 C579 1.398 . S
C580 C581 1.391 . S
C581 H569 0.950 . S
C581 C577 1.393 . S
C581 C580 1.391 . S
H582 C590 0.950 . S
H583 C595 0.950 . S
H584 C592 0.950 . S
H585 C594 0.950 . S
H586 C596 0.950 . S
H587 C598 0.950 . S
H588 C600 0.950 . S
H589 C601 0.950 . S
C590 H582 0.950 . S
C590 C591 1.386 . S
C590 C592 1.391 . S
C591 C590 1.386 . S
C591 C595 1.393 . S
C592 H584 0.950 . S
C592 C590 1.391 . S
C592 C593 1.400 . S
C593 C592 1.400 . S
C593 C594 1.398 . S
C593 C599 1.491 . S
C594 H585 0.950 . S
C594 C593 1.398 . S
C594 C595 1.391 . S
C595 H583 0.950 . S
C595 C591 1.393 . S
C595 C594 1.391 . S
C596 H586 0.950 . S
C596 C597 1.386 . S
C596 C598 1.391 . S
C597 C596 1.386 . S
C597 C601 1.393 . S
C598 H587 0.950 . S
C598 C596 1.391 . S
C598 C599 1.400 . S
C599 C593 1.491 . S
C599 C598 1.400 . S
C599 C600 1.398 . S
C600 H588 0.950 . S
C600 C599 1.398 . S
C600 C601 1.391 . S
C601 H589 0.950 . S
C601 C597 1.393 . S
C601 C600 1.391 . S
H602 C610 0.950 . S
H603 C615 0.950 . S
H604 C612 0.950 . S
H605 C614 0.950 . S
H606 C616 0.950 . S
H607 C618 0.950 . S
H608 C620 0.950 . S
H609 C621 0.950 . S
C610 H602 0.950 . S
C610 C611 1.386 . S
C610 C612 1.391 . S
C611 C610 1.386 . S
C611 C615 1.393 . S
C612 H604 0.950 . S
C612 C610 1.391 . S
C612 C613 1.400 . S
C613 C612 1.400 . S
C613 C614 1.398 . S
C613 C619 1.491 . S
C614 H605 0.950 . S
C614 C613 1.398 . S
C614 C615 1.391 . S
C615 H603 0.950 . S
C615 C611 1.393 . S
C615 C614 1.391 . S
C616 H606 0.950 . S
C616 C617 1.386 . S
C616 C618 1.391 . S
C617 C616 1.386 . S
C617 C621 1.393 . S
C618 H607 0.950 . S
C618 C616 1.391 . S
C618 C619 1.400 . S
C619 C613 1.491 . S
C619 C618 1.400 . S
C619 C620 1.398 . S
C620 H608 0.950 . S
C620 C619 1.398 . S
C620 C621 1.391 . S
C621 H609 0.950 . S
C621 C617 1.393 . S
C621 C620 1.391 . S
H622 C630 0.950 . S
H623 C635 0.950 . S
H624 C632 0.950 . S
H625 C634 0.950 . S
H626 C636 0.950 . S
H627 C638 0.950 . S
H628 C640 0.950 . S
H629 C641 0.950 . S
C630 H622 0.950 . S
C630 C631 1.386 . S
C630 C632 1.391 . S
C631 C630 1.386 . S
C631 C635 1.393 . S
C632 H624 0.950 . S
C632 C630 1.391 . S
C632 C633 1.400 . S
C633 C632 1.400 . S
C633 C634 1.398 . S
C633 C639 1.491 . S
C634 H625 0.950 . S
C634 C633 1.398 . S
C634 C635 1.391 . S
C635 H623 0.950 . S
C635 C631 1.393 . S
C635 C634 1.391 . S
C636 H626 0.950 . S
C636 C637 1.386 . S
C636 C638 1.391 . S
C637 C636 1.386 . S
C637 C641 1.393 . S
C638 H627 0.950 . S
C638 C636 1.391 . S
C638 C639 1.400 . S
C639 C633 1.491 . S
C639 C638 1.400 . S
C639 C640 1.398 . S
C640 H628 0.950 . S
C640 C639 1.398 . S
C640 C641 1.391 . S
C641 H629 0.950 . S
C641 C637 1.393 . S
C641 C640 1.391 . S
H642 C650 0.950 . S
H643 C655 0.950 . S
H644 C652 0.950 . S
H645 C654 0.950 . S
H646 C656 0.950 . S
H647 C658 0.950 . S
H648 C660 0.950 . S
H649 C661 0.950 . S
C650 H642 0.950 . S
C650 C651 1.386 . S
C650 C652 1.391 . S
C651 C650 1.386 . S
C651 C655 1.393 . S
C652 H644 0.950 . S
C652 C650 1.391 . S
C652 C653 1.400 . S
C653 C652 1.400 . S
C653 C654 1.398 . S
C653 C659 1.491 . S
C654 H645 0.950 . S
C654 C653 1.398 . S
C654 C655 1.391 . S
C655 H643 0.950 . S
C655 C651 1.393 . S
C655 C654 1.391 . S
C656 H646 0.950 . S
C656 C657 1.386 . S
C656 C658 1.391 . S
C657 C656 1.386 . S
C657 C661 1.393 . S
C658 H647 0.950 . S
C658 C656 1.391 . S
C658 C659 1.400 . S
C659 C653 1.491 . S
C659 C658 1.400 . S
C659 C660 1.398 . S
C660 H648 0.950 . S
C660 C659 1.398 . S
C660 C661 1.391 . S
C661 H649 0.950 . S
C661 C657 1.393 . S
C661 C660 1.391 . S
H662 C670 0.950 . S
H663 C675 0.950 . S
H664 C672 0.950 . S
H665 C674 0.950 . S
H666 C676 0.950 . S
H667 C678 0.950 . S
H668 C680 0.950 . S
H669 C681 0.950 . S
C670 H662 0.950 . S
C670 C671 1.386 . S
C670 C672 1.391 . S
C671 C670 1.386 . S
C671 C675 1.393 . S
C672 H664 0.950 . S
C672 C670 1.391 . S
C672 C673 1.400 . S
C673 C672 1.400 . S
C673 C674 1.398 . S
C673 C679 1.491 . S
C674 H665 0.950 . S
C674 C673 1.398 . S
C674 C675 1.391 . S
C675 H663 0.950 . S
C675 C671 1.393 . S
C675 C674 1.391 . S
C676 H666 0.950 . S
C676 C677 1.386 . S
C676 C678 1.391 . S
C677 C676 1.386 . S
C677 C681 1.393 . S
C678 H667 0.950 . S
C678 C676 1.391 . S
C678 C679 1.400 . S
C679 C673 1.491 . S
C679 C678 1.400 . S
C679 C680 1.398 . S
C680 H668 0.950 . S
C680 C679 1.398 . S
C680 C681 1.391 . S
C681 H669 0.950 . S
C681 C677 1.393 . S
C681 C680 1.391 . S
H682 C690 0.950 . S
H683 C695 0.950 . S
H684 C692 0.950 . S
H685 C694 0.950 . S
H686 C696 0.950 . S
H687 C698 0.950 . S
H688 C700 0.950 . S
H689 C701 0.950 . S
C690 H682 0.950 . S
C690 C691 1.386 . S
C690 C692 1.391 . S
C691 C690 1.386 . S
C691 C695 1.393 . S
C692 H684 0.950 . S
C692 C690 1.391 . S
C692 C693 1.400 . S
C693 C692 1.400 . S
C693 C694 1.398 . S
C693 C699 1.491 . S
C694 H685 0.950 . S
C694 C693 1.398 . S
C694 C695 1.391 . S
C695 H683 0.950 . S
C695 C691 1.393 . S
C695 C694 1.391 . S
C696 H686 0.950 . S
C696 C697 1.386 . S
C696 C698 1.391 . S
C697 C696 1.386 . S
C697 C701 1.393 . S
C698 H687 0.950 . S
C698 C696 1.391 . S
C698 C699 1.400 . S
C699 C693 1.491 . S
C699 C698 1.400 . S
C699 C700 1.398 . S
C700 H688 0.950 . S
C700 C699 1.398 . S
C700 C701 1.391 . S
C701 H689 0.950 . S
C701 C697 1.393 . S
C701 C700 1.391 . S
H702 C710 0.950 . S
H703 C715 0.950 . S
H704 C712 0.950 . S
H705 C714 0.950 . S
H706 C716 0.950 . S
H707 C718 0.950 . S
H708 C720 0.950 . S
H709 C721 0.950 . S
C710 H702 0.950 . S
C710 C711 1.386 . S
C710 C712 1.391 . S
C711 C710 1.386 . S
C711 C715 1.393 . S
C712 H704 0.950 . S
C712 C710 1.391 . S
C712 C713 1.400 . S
C713 C712 1.400 . S
C713 C714 1.398 . S
C713 C719 1.491 . S
C714 H705 0.950 . S
C714 C713 1.398 . S
C714 C715 1.391 . S
C715 H703 0.950 . S
C715 C711 1.393 . S
C715 C714 1.391 . S
C716 H706 0.950 . S
C716 C717 1.386 . S
C716 C718 1.391 . S
C717 C716 1.386 . S
C717 C721 1.393 . S
C718 H707 0.950 . S
C718 C716 1.391 . S
C718 C719 1.400 . S
C719 C713 1.491 . S
C719 C718 1.400 . S
C719 C720 1.398 . S
C720 H708 0.950 . S
C720 C719 1.398 . S
C720 C721 1.391 . S
C721 H709 0.950 . S
C721 C717 1.393 . S
C721 C720 1.391 . S
H722 C730 0.950 . S
H723 C735 0.950 . S
H724 C732 0.950 . S
H725 C734 0.950 . S
H726 C736 0.950 . S
H727 C738 0.950 . S
H728 C740 0.950 . S
H729 C741 0.950 . S
C730 H722 0.950 . S
C730 C731 1.386 . S
C730 C732 1.391 . S
C731 C730 1.386 . S
C731 C735 1.393 . S
C732 H724 0.950 . S
C732 C730 1.391 . S
C732 C733 1.400 . S
C733 C732 1.400 . S
C733 C734 1.398 . S
C733 C739 1.491 . S
C734 H725 0.950 . S
C734 C733 1.398 . S
C734 C735 1.391 . S
C735 H723 0.950 . S
C735 C731 1.393 . S
C735 C734 1.391 . S
C736 H726 0.950 . S
C736 C737 1.386 . S
C736 C738 1.391 . S
C737 C736 1.386 . S
C737 C741 1.393 . S
C738 H727 0.950 . S
C738 C736 1.391 . S
C738 C739 1.400 . S
C739 C733 1.491 . S
C739 C738 1.400 . S
C739 C740 1.398 . S
C740 H728 0.950 . S
C740 C739 1.398 . S
C740 C741 1.391 . S
C741 H729 0.950 . S
C741 C737 1.393 . S
C741 C740 1.391 . S
H742 C750 0.950 . S
H743 C755 0.950 . S
H744 C752 0.950 . S
H745 C754 0.950 . S
H746 C756 0.950 . S
H747 C758 0.950 . S
H748 C760 0.950 . S
H749 C761 0.950 . S
C750 H742 0.950 . S
C750 C751 1.386 . S
C750 C752 1.391 . S
C751 C750 1.386 . S
C751 C755 1.393 . S
C752 H744 0.950 . S
C752 C750 1.391 . S
C752 C753 1.400 . S
C753 C752 1.400 . S
C753 C754 1.398 . S
C753 C759 1.491 . S
C754 H745 0.950 . S
C754 C753 1.398 . S
C754 C755 1.391 . S
C755 H743 0.950 . S
C755 C751 1.393 . S
C755 C754 1.391 . S
C756 H746 0.950 . S
C756 C757 1.386 . S
C756 C758 1.391 . S
C757 C756 1.386 . S
C757 C761 1.393 . S
C758 H747 0.950 . S
C758 C756 1.391 . S
C758 C759 1.400 . S
C759 C753 1.491 . S
C759 C758 1.400 . S
C759 C760 1.398 . S
C760 H748 0.950 . S
C760 C759 1.398 . S
C760 C761 1.391 . S
C761 H749 0.950 . S
C761 C757 1.393 . S
C761 C760 1.391 . S
H762 C770 0.950 . S
H763 C775 0.950 . S
H764 C772 0.950 . S
H765 C774 0.950 . S
H766 C776 0.950 . S
H767 C778 0.950 . S
H768 C780 0.950 . S
H769 C781 0.950 . S
C770 H762 0.950 . S
C770 C771 1.386 . S
C770 C772 1.391 . S
C771 C770 1.386 . S
C771 C775 1.393 . S
C772 H764 0.950 . S
C772 C770 1.391 . S
C772 C773 1.400 . S
C773 C772 1.400 . S
C773 C774 1.398 . S
C773 C779 1.491 . S
C774 H765 0.950 . S
C774 C773 1.398 . S
C774 C775 1.391 . S
C775 H763 0.950 . S
C775 C771 1.393 . S
C775 C774 1.391 . S
C776 H766 0.950 . S
C776 C777 1.386 . S
C776 C778 1.391 . S
C777 C776 1.386 . S
C777 C781 1.393 . S
C778 H767 0.950 . S
C778 C776 1.391 . S
C778 C779 1.400 . S
C779 C773 1.491 . S
C779 C778 1.400 . S
C779 C780 1.398 . S
C780 H768 0.950 . S
C780 C779 1.398 . S
C780 C781 1.391 . S
C781 H769 0.950 . S
C781 C777 1.393 . S
C781 C780 1.391 . S
H782 C790 0.950 . S
H783 C795 0.950 . S
H784 C792 0.950 . S
H785 C794 0.950 . S
H786 C796 0.950 . S
H787 C798 0.950 . S
H788 C800 0.950 . S
H789 C801 0.950 . S
C790 H782 0.950 . S
C790 C791 1.386 . S
C790 C792 1.391 . S
C791 C790 1.386 . S
C791 C795 1.393 . S
C792 H784 0.950 . S
C792 C790 1.391 . S
C792 C793 1.400 . S
C793 C792 1.400 . S
C793 C794 1.398 . S
C793 C799 1.491 . S
C794 H785 0.950 . S
C794 C793 1.398 . S
C794 C795 1.391 . S
C795 H783 0.950 . S
C795 C791 1.393 . S
C795 C794 1.391 . S
C796 H786 0.950 . S
C796 C797 1.386 . S
C796 C798 1.391 . S
C797 C796 1.386 . S
C797 C801 1.393 . S
C798 H787 0.950 . S
C798 C796 1.391 . S
C798 C799 1.400 . S
C799 C793 1.491 . S
C799 C798 1.400 . S
C799 C800 1.398 . S
C800 H788 0.950 . S
C800 C799 1.398 . S
C800 C801 1.391 . S
C801 H789 0.950 . S
C801 C797 1.393 . S
C801 C800 1.391 . S
H802 C810 0.950 . S
H803 C815 0.950 . S
H804 C812 0.950 . S
H805 C814 0.950 . S
H806 C816 0.950 . S
H807 C818 0.950 . S
H808 C820 0.950 . S
H809 C821 0.950 . S
C810 H802 0.950 . S
C810 C811 1.386 . S
C810 C812 1.391 . S
C811 C810 1.386 . S
C811 C815 1.393 . S
C812 H804 0.950 . S
C812 C810 1.391 . S
C812 C813 1.400 . S
C813 C812 1.400 . S
C813 C814 1.398 . S
C813 C819 1.491 . S
C814 H805 0.950 . S
C814 C813 1.398 . S
C814 C815 1.391 . S
C815 H803 0.950 . S
C815 C811 1.393 . S
C815 C814 1.391 . S
C816 H806 0.950 . S
C816 C817 1.386 . S
C816 C818 1.391 . S
C817 C816 1.386 . S
C817 C821 1.393 . S
C818 H807 0.950 . S
C818 C816 1.391 . S
C818 C819 1.400 . S
C819 C813 1.491 . S
C819 C818 1.400 . S
C819 C820 1.398 . S
C820 H808 0.950 . S
C820 C819 1.398 . S
C820 C821 1.391 . S
C821 H809 0.950 . S
C821 C817 1.393 . S
C821 C820 1.391 . S
H822 C830 0.950 . S
H823 C835 0.950 . S
H824 C832 0.950 . S
H825 C834 0.950 . S
H826 C836 0.950 . S
H827 C838 0.950 . S
H828 C840 0.950 . S
H829 C841 0.950 . S
C830 H822 0.950 . S
C830 C831 1.386 . S
C830 C832 1.391 . S
C831 C830 1.386 . S
C831 C835 1.393 . S
C832 H824 0.950 . S
C832 C830 1.391 . S
C832 C833 1.400 . S
C833 C832 1.400 . S
C833 C834 1.398 . S
C833 C839 1.491 . S
C834 H825 0.950 . S
C834 C833 1.398 . S
C834 C835 1.391 . S
C835 H823 0.950 . S
C835 C831 1.393 . S
C835 C834 1.391 . S
C836 H826 0.950 . S
C836 C837 1.386 . S
C836 C838 1.391 . S
C837 C836 1.386 . S
C837 C841 1.393 . S
C838 H827 0.950 . S
C838 C836 1.391 . S
C838 C839 1.400 . S
C839 C833 1.491 . S
C839 C838 1.400 . S
C839 C840 1.398 . S
C840 H828 0.950 . S
C840 C839 1.398 . S
C840 C841 1.391 . S
C841 H829 0.950 . S
C841 C837 1.393 . S
C841 C840 1.391 . S
H842 C850 0.950 . S
H843 C855 0.950 . S
H844 C852 0.950 . S
H845 C854 0.950 . S
H846 C856 0.950 . S
H847 C858 0.950 . S
H848 C860 0.950 . S
H849 C861 0.950 . S
C850 H842 0.950 . S
C850 C851 1.386 . S
C850 C852 1.391 . S
C851 C850 1.386 . S
C851 C855 1.393 . S
C852 H844 0.950 . S
C852 C850 1.391 . S
C852 C853 1.400 . S
C853 C852 1.400 . S
C853 C854 1.398 . S
C853 C859 1.491 . S
C854 H845 0.950 . S
C854 C853 1.398 . S
C854 C855 1.391 . S
C855 H843 0.950 . S
C855 C851 1.393 . S
C855 C854 1.391 . S
C856 H846 0.950 . S
C856 C857 1.386 . S
C856 C858 1.391 . S
C857 C856 1.386 . S
C857 C861 1.393 . S
C858 H847 0.950 . S
C858 C856 1.391 . S
C858 C859 1.400 . S
C859 C853 1.491 . S
C859 C858 1.400 . S
C859 C860 1.398 . S
C860 H848 0.950 . S
C860 C859 1.398 . S
C860 C861 1.391 . S
C861 H849 0.950 . S
C861 C857 1.393 . S
C861 C860 1.391 . S
H862 C870 0.950 . S
H863 C875 0.950 . S
H864 C872 0.950 . S
H865 C874 0.950 . S
H866 C876 0.950 . S
H867 C878 0.950 . S
H868 C880 0.950 . S
H869 C881 0.950 . S
C870 H862 0.950 . S
C870 C871 1.386 . S
C870 C872 1.391 . S
C871 C870 1.386 . S
C871 C875 1.393 . S
C872 H864 0.950 . S
C872 C870 1.391 . S
C872 C873 1.400 . S
C873 C872 1.400 . S
C873 C874 1.398 . S
C873 C879 1.491 . S
C874 H865 0.950 . S
C874 C873 1.398 . S
C874 C875 1.391 . S
C875 H863 0.950 . S
C875 C871 1.393 . S
C875 C874 1.391 . S
C876 H866 0.950 . S
C876 C877 1.386 . S
C876 C878 1.391 . S
C877 C876 1.386 . S
C877 C881 1.393 . S
C878 H867 0.950 . S
C878 C876 1.391 . S
C878 C879 1.400 . S
C879 C873 1.491 . S
C879 C878 1.400 . S
C879 C880 1.398 . S
C880 H868 0.950 . S
C880 C879 1.398 . S
C880 C881 1.391 . S
C881 H869 0.950 . S
C881 C877 1.393 . S
C881 C880 1.391 . S
C411 C39 1.704 . S
C417 C319 1.679 . S
C431 C91 1.711 . S
C437 C344 1.692 . S
C457 C347 1.526 . S
C451 C128 1.555 . S
C477 C373 1.499 . S
C471 C188 1.520 . S
C497 C374 1.626 . S
C491 C250 1.643 . S
C517 C401 1.643 . S
C511 C304 1.668 . S
C531 C75 1.575 . S
C537 C346 1.553 . S
C551 C144 1.696 . S
C557 C372 1.678 . S
C577 C375 1.636 . S
C571 C198 1.658 . S
C597 C400 1.480 . S
C591 C234 1.504 . S
C611 C294 1.513 . S
C617 C318 1.499 . S
C637 C345 1.522 . S
C631 C29 1.542 . S
C657 C360 1.680 . S
C651 C38 1.705 . S
C671 C92 1.711 . S
C677 C387 1.690 . S
C697 C388 1.526 . S
C691 C135 1.555 . S
C711 C181 1.525 . S
C717 C330 1.510 . S
C731 C251 1.640 . S
C737 C333 1.618 . S
C751 C303 1.671 . S
C757 C358 1.651 . S
C771 C82 1.577 . S
C777 C389 1.555 . S
C797 C331 1.684 . S
C791 C145 1.699 . S
C811 C197 1.655 . S
C817 C332 1.633 . S
C831 C241 1.505 . S
C837 C359 1.490 . S
C851 C287 1.509 . S
C857 C361 1.486 . S
C871 C22 1.546 . S
C877 C386 1.531 . S
