# Generated by pormake.
# Topology fgl, (4,4)-cn, num edge types: 1
# Building blocks:
#     Node 0, Type 0, BuildingBlock: ESEHIV_clean_sbu_0, # of connection points: 4
#     Node 1, Type 0, BuildingBlock: ESEHIV_clean_sbu_0, # of connection points: 4
#     Node 2, Type 0, BuildingBlock: ESEHIV_clean_sbu_0, # of connection points: 4
#     Node 3, Type 0, BuildingBlock: ESEHIV_clean_sbu_0, # of connection points: 4
#     Node 4, Type 0, BuildingBlock: ESEHIV_clean_sbu_0, # of connection points: 4
#     Node 5, Type 0, BuildingBlock: ESEHIV_clean_sbu_0, # of connection points: 4
#     Node 6, Type 0, BuildingBlock: ESEHIV_clean_sbu_0, # of connection points: 4
#     Node 7, Type 0, BuildingBlock: ESEHIV_clean_sbu_0, # of connection points: 4
#     Node 8, Type 0, BuildingBlock: ESEHIV_clean_sbu_0, # of connection points: 4
#     Node 9, Type 0, BuildingBlock: ESEHIV_clean_sbu_0, # of connection points: 4
#     Node 10, Type 0, BuildingBlock: ESEHIV_clean_sbu_0, # of connection points: 4
#     Node 11, Type 0, BuildingBlock: ESEHIV_clean_sbu_0, # of connection points: 4
#     Node 12, Type 0, BuildingBlock: ESEHIV_clean_sbu_0, # of connection points: 4
#     Node 13, Type 0, BuildingBlock: ESEHIV_clean_sbu_0, # of connection points: 4
#     Node 14, Type 0, BuildingBlock: ESEHIV_clean_sbu_0, # of connection points: 4
#     Node 15, Type 0, BuildingBlock: ESEHIV_clean_sbu_0, # of connection points: 4
#     Node 16, Type 0, BuildingBlock: ESEHIV_clean_sbu_0, # of connection points: 4
#     Node 17, Type 0, BuildingBlock: ESEHIV_clean_sbu_0, # of connection points: 4
#     Node 18, Type 1, BuildingBlock: QUQFOY_clean_sbu_3, # of connection points: 4
#     Node 19, Type 1, BuildingBlock: QUQFOY_clean_sbu_3, # of connection points: 4
#     Node 20, Type 1, BuildingBlock: QUQFOY_clean_sbu_3, # of connection points: 4
#     Node 21, Type 1, BuildingBlock: QUQFOY_clean_sbu_3, # of connection points: 4
#     Node 22, Type 1, BuildingBlock: QUQFOY_clean_sbu_3, # of connection points: 4
#     Node 23, Type 1, BuildingBlock: QUQFOY_clean_sbu_3, # of connection points: 4
#     Node 24, Type 1, BuildingBlock: QUQFOY_clean_sbu_3, # of connection points: 4
#     Node 25, Type 1, BuildingBlock: QUQFOY_clean_sbu_3, # of connection points: 4
#     Node 26, Type 1, BuildingBlock: QUQFOY_clean_sbu_3, # of connection points: 4
#     Node 27, Type 1, BuildingBlock: QUQFOY_clean_sbu_3, # of connection points: 4
#     Node 28, Type 1, BuildingBlock: QUQFOY_clean_sbu_3, # of connection points: 4
#     Node 29, Type 1, BuildingBlock: QUQFOY_clean_sbu_3, # of connection points: 4
#     Node 30, Type 1, BuildingBlock: QUQFOY_clean_sbu_3, # of connection points: 4
#     Node 31, Type 1, BuildingBlock: QUQFOY_clean_sbu_3, # of connection points: 4
#     Node 32, Type 1, BuildingBlock: QUQFOY_clean_sbu_3, # of connection points: 4
#     Node 33, Type 1, BuildingBlock: QUQFOY_clean_sbu_3, # of connection points: 4
#     Node 34, Type 1, BuildingBlock: QUQFOY_clean_sbu_3, # of connection points: 4
#     Node 35, Type 1, BuildingBlock: QUQFOY_clean_sbu_3, # of connection points: 4
#     Edge 36, Type (0, 1), BuildingBlock: MIFKUJ_clean_linker_0, # of connection points: 2
#     Edge 37, Type (0, 1), BuildingBlock: MIFKUJ_clean_linker_0, # of connection points: 2
#     Edge 38, Type (0, 1), BuildingBlock: MIFKUJ_clean_linker_0, # of connection points: 2
#     Edge 39, Type (0, 1), BuildingBlock: MIFKUJ_clean_linker_0, # of connection points: 2
#     Edge 40, Type (0, 1), BuildingBlock: MIFKUJ_clean_linker_0, # of connection points: 2
#     Edge 41, Type (0, 1), BuildingBlock: MIFKUJ_clean_linker_0, # of connection points: 2
#     Edge 42, Type (0, 1), BuildingBlock: MIFKUJ_clean_linker_0, # of connection points: 2
#     Edge 43, Type (0, 1), BuildingBlock: MIFKUJ_clean_linker_0, # of connection points: 2
#     Edge 44, Type (0, 1), BuildingBlock: MIFKUJ_clean_linker_0, # of connection points: 2
#     Edge 45, Type (0, 1), BuildingBlock: MIFKUJ_clean_linker_0, # of connection points: 2
#     Edge 46, Type (0, 1), BuildingBlock: MIFKUJ_clean_linker_0, # of connection points: 2
#     Edge 47, Type (0, 1), BuildingBlock: MIFKUJ_clean_linker_0, # of connection points: 2
#     Edge 48, Type (0, 1), BuildingBlock: MIFKUJ_clean_linker_0, # of connection points: 2
#     Edge 49, Type (0, 1), BuildingBlock: MIFKUJ_clean_linker_0, # of connection points: 2
#     Edge 50, Type (0, 1), BuildingBlock: MIFKUJ_clean_linker_0, # of connection points: 2
#     Edge 51, Type (0, 1), BuildingBlock: MIFKUJ_clean_linker_0, # of connection points: 2
#     Edge 52, Type (0, 1), BuildingBlock: MIFKUJ_clean_linker_0, # of connection points: 2
#     Edge 53, Type (0, 1), BuildingBlock: MIFKUJ_clean_linker_0, # of connection points: 2
#     Edge 54, Type (0, 1), BuildingBlock: MIFKUJ_clean_linker_0, # of connection points: 2
#     Edge 55, Type (0, 1), BuildingBlock: MIFKUJ_clean_linker_0, # of connection points: 2
#     Edge 56, Type (0, 1), BuildingBlock: MIFKUJ_clean_linker_0, # of connection points: 2
#     Edge 57, Type (0, 1), BuildingBlock: MIFKUJ_clean_linker_0, # of connection points: 2
#     Edge 58, Type (0, 1), BuildingBlock: MIFKUJ_clean_linker_0, # of connection points: 2
#     Edge 59, Type (0, 1), BuildingBlock: MIFKUJ_clean_linker_0, # of connection points: 2
#     Edge 60, Type (0, 1), BuildingBlock: MIFKUJ_clean_linker_0, # of connection points: 2
#     Edge 61, Type (0, 1), BuildingBlock: MIFKUJ_clean_linker_0, # of connection points: 2
#     Edge 62, Type (0, 1), BuildingBlock: MIFKUJ_clean_linker_0, # of connection points: 2
#     Edge 63, Type (0, 1), BuildingBlock: MIFKUJ_clean_linker_0, # of connection points: 2
#     Edge 64, Type (0, 1), BuildingBlock: MIFKUJ_clean_linker_0, # of connection points: 2
#     Edge 65, Type (0, 1), BuildingBlock: MIFKUJ_clean_linker_0, # of connection points: 2
#     Edge 66, Type (0, 1), BuildingBlock: MIFKUJ_clean_linker_0, # of connection points: 2
#     Edge 67, Type (0, 1), BuildingBlock: MIFKUJ_clean_linker_0, # of connection points: 2
#     Edge 68, Type (0, 1), BuildingBlock: MIFKUJ_clean_linker_0, # of connection points: 2
#     Edge 69, Type (0, 1), BuildingBlock: MIFKUJ_clean_linker_0, # of connection points: 2
#     Edge 70, Type (0, 1), BuildingBlock: MIFKUJ_clean_linker_0, # of connection points: 2
#     Edge 71, Type (0, 1), BuildingBlock: MIFKUJ_clean_linker_0, # of connection points: 2
#     Edge 72, Type (0, 1), BuildingBlock: MIFKUJ_clean_linker_0, # of connection points: 2
#     Edge 73, Type (0, 1), BuildingBlock: MIFKUJ_clean_linker_0, # of connection points: 2
#     Edge 74, Type (0, 1), BuildingBlock: MIFKUJ_clean_linker_0, # of connection points: 2
#     Edge 75, Type (0, 1), BuildingBlock: MIFKUJ_clean_linker_0, # of connection points: 2
#     Edge 76, Type (0, 1), BuildingBlock: MIFKUJ_clean_linker_0, # of connection points: 2
#     Edge 77, Type (0, 1), BuildingBlock: MIFKUJ_clean_linker_0, # of connection points: 2
#     Edge 78, Type (0, 1), BuildingBlock: MIFKUJ_clean_linker_0, # of connection points: 2
#     Edge 79, Type (0, 1), BuildingBlock: MIFKUJ_clean_linker_0, # of connection points: 2
#     Edge 80, Type (0, 1), BuildingBlock: MIFKUJ_clean_linker_0, # of connection points: 2
#     Edge 81, Type (0, 1), BuildingBlock: MIFKUJ_clean_linker_0, # of connection points: 2
#     Edge 82, Type (0, 1), BuildingBlock: MIFKUJ_clean_linker_0, # of connection points: 2
#     Edge 83, Type (0, 1), BuildingBlock: MIFKUJ_clean_linker_0, # of connection points: 2
#     Edge 84, Type (0, 1), BuildingBlock: MIFKUJ_clean_linker_0, # of connection points: 2
#     Edge 85, Type (0, 1), BuildingBlock: MIFKUJ_clean_linker_0, # of connection points: 2
#     Edge 86, Type (0, 1), BuildingBlock: MIFKUJ_clean_linker_0, # of connection points: 2
#     Edge 87, Type (0, 1), BuildingBlock: MIFKUJ_clean_linker_0, # of connection points: 2
#     Edge 88, Type (0, 1), BuildingBlock: MIFKUJ_clean_linker_0, # of connection points: 2
#     Edge 89, Type (0, 1), BuildingBlock: MIFKUJ_clean_linker_0, # of connection points: 2
#     Edge 90, Type (0, 1), BuildingBlock: MIFKUJ_clean_linker_0, # of connection points: 2
#     Edge 91, Type (0, 1), BuildingBlock: MIFKUJ_clean_linker_0, # of connection points: 2
#     Edge 92, Type (0, 1), BuildingBlock: MIFKUJ_clean_linker_0, # of connection points: 2
#     Edge 93, Type (0, 1), BuildingBlock: MIFKUJ_clean_linker_0, # of connection points: 2
#     Edge 94, Type (0, 1), BuildingBlock: MIFKUJ_clean_linker_0, # of connection points: 2
#     Edge 95, Type (0, 1), BuildingBlock: MIFKUJ_clean_linker_0, # of connection points: 2
#     Edge 96, Type (0, 1), BuildingBlock: MIFKUJ_clean_linker_0, # of connection points: 2
#     Edge 97, Type (0, 1), BuildingBlock: MIFKUJ_clean_linker_0, # of connection points: 2
#     Edge 98, Type (0, 1), BuildingBlock: MIFKUJ_clean_linker_0, # of connection points: 2
#     Edge 99, Type (0, 1), BuildingBlock: MIFKUJ_clean_linker_0, # of connection points: 2
#     Edge 100, Type (0, 1), BuildingBlock: MIFKUJ_clean_linker_0, # of connection points: 2
#     Edge 101, Type (0, 1), BuildingBlock: MIFKUJ_clean_linker_0, # of connection points: 2
#     Edge 102, Type (0, 1), BuildingBlock: MIFKUJ_clean_linker_0, # of connection points: 2
#     Edge 103, Type (0, 1), BuildingBlock: MIFKUJ_clean_linker_0, # of connection points: 2
#     Edge 104, Type (0, 1), BuildingBlock: MIFKUJ_clean_linker_0, # of connection points: 2
#     Edge 105, Type (0, 1), BuildingBlock: MIFKUJ_clean_linker_0, # of connection points: 2
#     Edge 106, Type (0, 1), BuildingBlock: MIFKUJ_clean_linker_0, # of connection points: 2
#     Edge 107, Type (0, 1), BuildingBlock: MIFKUJ_clean_linker_0, # of connection points: 2
# Relax obj value: 0.013
# Max RMSD: 0.130
# Mean RMSD: 0.073
data_MOF--net-fgl--node1-ESEHIV_clean_sbu_0--node2-QUQFOY_clean_sbu_3--edge1-MIFKUJ_clean_linker_0
_symmetry_space_group_name_H-M    P1
_symmetry_Int_Tables_number       1
_symmetry_cell_setting            triclinic
loop_
_symmetry_equiv_pos_as_xyz
'x, y, z'
_cell_length_a     98.375011
_cell_length_b     98.494547
_cell_length_c     67.074459
_cell_angle_alpha  88.943298
_cell_angle_beta   90.752544
_cell_angle_gamma 119.9557
loop_
_atom_site_label
_atom_site_type_symbol
_atom_site_fract_x
_atom_site_fract_y
_atom_site_fract_z
_atom_type_partial_charge
Cu0 Cu 0.02643 0.54696 0.00845 0.0
N1 N 0.01697 0.54544 0.03324 0.0
N2 N 0.01227 0.55313 0.06244 0.0
C3 C 0.02146 0.55737 0.04605 0.0
C4 C 0.00163 0.53782 0.05978 0.0
C5 C 0.00454 0.53314 0.04182 0.0
O6 O 0.03398 0.56813 0.99862 0.0
C7 C 0.03669 0.52669 0.01619 0.0
O8 O 0.02142 0.51804 0.01835 0.0
H9 H 0.03106 0.56906 0.04301 0.0
H10 H 0.99797 0.52161 0.03542 0.0
N11 N 0.01267 0.53306 0.98928 0.0
N12 N 0.00507 0.51675 0.96338 0.0
C13 C 0.01732 0.52795 0.97368 0.0
C14 C 0.99689 0.52493 0.98878 0.0
C15 C 0.99217 0.51484 0.97283 0.0
C16 C 0.02343 0.57199 0.99877 0.0
O17 O 0.00913 0.5615 0.00418 0.0
H18 H 0.0295 0.53185 0.97059 0.0
H19 H 0.98937 0.52594 0.99955 0.0
O20 O 0.04253 0.54125 0.01234 0.0
H21 H 0.99238 0.53042 0.07006 0.0
H22 H 0.98017 0.5066 0.96871 0.0
Cu23 Cu 0.5064 0.55466 0.01139 0.0
N24 N 0.51073 0.55702 0.98265 0.0
N25 N 0.5219 0.56657 0.95304 0.0
C26 C 0.5243 0.56635 0.97293 0.0
C27 C 0.50638 0.55698 0.95022 0.0
C28 C 0.49954 0.55117 0.96845 0.0
O29 O 0.52438 0.57727 0.01576 0.0
C30 C 0.49031 0.52026 0.00773 0.0
O31 O 0.50394 0.52219 0.01365 0.0
H32 H 0.53548 0.57345 0.98028 0.0
H33 H 0.48713 0.54372 0.97123 0.0
N34 N 0.50131 0.55273 0.04002 0.0
N35 N 0.49256 0.54341 0.0707 0.0
C36 C 0.49501 0.53994 0.05214 0.0
C37 C 0.50265 0.56451 0.05128 0.0
C38 C 0.49741 0.55886 0.07019 0.0
C39 C 0.53603 0.58044 0.02721 0.0
O40 O 0.53679 0.56886 0.03619 0.0
H41 H 0.4921 0.52834 0.04753 0.0
H42 H 0.50681 0.57638 0.04599 0.0
O43 O 0.48841 0.53215 0.00653 0.0
H44 H 0.50034 0.55462 0.936 0.0
H45 H 0.49663 0.56546 0.08241 0.0
Cu46 Cu 0.50385 0.03634 0.02946 0.0
N47 N 0.49797 0.04651 0.01027 0.0
N48 N 0.48306 0.05026 0.98789 0.0
C49 C 0.4833 0.0415 0.00344 0.0
C50 C 0.49814 0.06154 0.98523 0.0
C51 C 0.50726 0.05924 0.99906 0.0
O52 O 0.48489 0.0182 0.03944 0.0
C53 C 0.53306 0.04355 0.01501 0.0
O54 O 0.53569 0.05765 0.01902 0.0
H55 H 0.47302 0.03141 0.00943 0.0
H56 H 0.51986 0.06611 1.00019 0.0
N57 N 0.51282 0.04932 0.05116 0.0
N58 N 0.52787 0.05955 0.078 0.0
C59 C 0.5245 0.04996 0.0624 0.0
C60 C 0.50851 0.05875 0.05999 0.0
C61 C 0.51779 0.06506 0.07671 0.0
C62 C 0.47422 0.00769 0.02866 0.0
O63 O 0.47699 0.0071 0.00967 0.0
H64 H 0.53003 0.04304 0.0596 0.0
H65 H 0.49906 0.06057 0.05489 0.0
O66 O 0.51955 0.03179 0.0186 0.0
H67 H 0.50245 0.07027 0.97338 0.0
H68 H 0.5171 0.07293 0.08717 0.0
Cu69 Cu 0.51774 0.04659 0.51631 0.0
N70 N 0.53449 0.0624 0.50222 0.0
N71 N 0.55355 0.07257 0.47942 0.0
C72 C 0.54086 0.05952 0.48642 0.0
C73 C 0.55515 0.08418 0.49141 0.0
C74 C 0.54337 0.07784 0.50553 0.0
O75 O 0.52106 0.02871 0.5142 0.0
C76 C 0.49643 0.04892 0.4888 0.0
O77 O 0.50776 0.05317 0.47581 0.0
H78 H 0.53611 0.04796 0.48027 0.0
H79 H 0.54161 0.08396 0.51755 0.0
N80 N 0.51897 0.05181 0.54302 0.0
N81 N 0.51081 0.0517 0.57395 0.0
C82 C 0.50652 0.04757 0.55484 0.0
C83 C 0.53165 0.05896 0.55493 0.0
C84 C 0.52664 0.05896 0.57407 0.0
C85 C 0.52031 0.01997 0.52888 0.0
O86 O 0.51324 0.02009 0.54529 0.0
H87 H 0.49454 0.04135 0.54947 0.0
H88 H 0.54361 0.06342 0.55014 0.0
O89 O 0.49795 0.04429 0.50612 0.0
H90 H 0.56435 0.09632 0.49044 0.0
H91 H 0.53406 0.06347 0.58713 0.0
Cu92 Cu 0.02937 0.5516 0.51491 0.0
N93 N 0.01926 0.54221 0.5389 0.0
N94 N 0.01391 0.52838 0.56756 0.0
C95 C 0.02383 0.53467 0.55193 0.0
C96 C 0.00264 0.5322 0.56403 0.0
C97 C 0.00596 0.54069 0.54638 0.0
O98 O 0.03833 0.53902 0.5061 0.0
C99 C 0.05009 0.5802 0.53527 0.0
O100 O 0.04829 0.57136 0.55103 0.0
H101 H 0.03429 0.53389 0.54985 0.0
H102 H 0.99905 0.54521 0.53933 0.0
N103 N 0.01512 0.55084 0.49558 0.0
N104 N 0.00637 0.55772 0.4684 0.0
C105 C 0.01799 0.56228 0.48209 0.0
C106 C 0.00115 0.53863 0.49038 0.0
C107 C 0.99573 0.54283 0.47361 0.0
C108 C 0.038 0.53503 0.48807 0.0
O109 O 0.03434 0.54205 0.47391 0.0
H110 H 0.0288 0.57343 0.48173 0.0
H111 H 0.9956 0.5273 0.49783 0.0
O112 O 0.04415 0.57379 0.51867 0.0
H113 H 0.99246 0.52884 0.57323 0.0
H114 H 0.9849 0.5354 0.46571 0.0
Cu115 Cu 0.52162 0.55381 0.5178 0.0
N116 N 0.54136 0.55625 0.51296 0.0
N117 N 0.56669 0.56904 0.50491 0.0
C118 C 0.55359 0.56997 0.50698 0.0
C119 C 0.5626 0.55415 0.50976 0.0
C120 C 0.54688 0.54621 0.5146 0.0
O121 O 0.52561 0.57069 0.53605 0.0
C122 C 0.51145 0.54306 0.48047 0.0
O123 O 0.51802 0.53492 0.48653 0.0
H124 H 0.55293 0.58052 0.50451 0.0
H125 H 0.54002 0.53397 0.51868 0.0
N126 N 0.50771 0.53463 0.5298 0.0
N127 N 0.48446 0.5143 0.53801 0.0
C128 C 0.49208 0.52859 0.52932 0.0
C129 C 0.51008 0.52382 0.53933 0.0
C130 C 0.49569 0.51118 0.54431 0.0
C131 C 0.52953 0.56865 0.55358 0.0
O132 O 0.52954 0.55557 0.55767 0.0
H133 H 0.48639 0.53441 0.5222 0.0
H134 H 0.52139 0.52501 0.54262 0.0
O135 O 0.51189 0.55342 0.49206 0.0
H136 H 0.57035 0.5493 0.5095 0.0
H137 H 0.49364 0.50059 0.55208 0.0
Cu138 Cu 0.71275 0.89675 0.33884 0.0
N139 N 0.72071 0.91595 0.32545 0.0
N140 N 0.72176 0.93795 0.31461 0.0
C141 C 0.71316 0.92412 0.32412 0.0
C142 C 0.73523 0.93849 0.30945 0.0
C143 C 0.7346 0.92488 0.31635 0.0
O144 O 0.70129 0.89799 0.36226 0.0
C145 C 0.71058 0.88036 0.30501 0.0
O146 O 0.72551 0.89103 0.30592 0.0
H147 H 0.70161 0.92003 0.33025 0.0
H148 H 0.74373 0.92187 0.31515 0.0
N149 N 0.72909 0.89408 0.34853 0.0
N150 N 0.74201 0.88165 0.35713 0.0
C151 C 0.7287 0.88026 0.34938 0.0
C152 C 0.74318 0.90463 0.35602 0.0
C153 C 0.75116 0.89692 0.36153 0.0
C154 C 0.70897 0.91054 0.37237 0.0
O155 O 0.72328 0.92077 0.36673 0.0
H156 H 0.71871 0.86933 0.34467 0.0
H157 H 0.74736 0.91702 0.35738 0.0
O158 O 0.70155 0.88028 0.31868 0.0
H159 H 0.74494 0.94819 0.30181 0.0
H160 H 0.76278 0.90212 0.36807 0.0
Cu161 Cu 0.19067 0.88868 0.35642 0.0
N162 N 0.18773 0.86973 0.34658 0.0
N163 N 0.17476 0.84525 0.33488 0.0
C164 C 0.17371 0.85655 0.34472 0.0
C165 C 0.19015 0.85162 0.33053 0.0
C166 C 0.1981 0.86672 0.33771 0.0
O167 O 0.17354 0.88293 0.37539 0.0
C168 C 0.18565 0.89664 0.31668 0.0
O169 O 0.17545 0.88166 0.31478 0.0
H170 H 0.16283 0.85566 0.34954 0.0
H171 H 0.21046 0.87508 0.33597 0.0
N172 N 0.21021 0.90028 0.36901 0.0
N173 N 0.23138 0.92122 0.38141 0.0
C174 C 0.21707 0.91569 0.373 0.0
C175 C 0.22056 0.89589 0.37501 0.0
C176 C 0.23368 0.90881 0.38262 0.0
C177 C 0.17583 0.88656 0.39379 0.0
O178 O 0.19006 0.89654 0.39995 0.0
H179 H 0.21172 0.92275 0.36952 0.0
H180 H 0.21876 0.88416 0.37382 0.0
O181 O 0.19171 0.90182 0.33372 0.0
H182 H 0.19532 0.84593 0.32243 0.0
H183 H 0.24403 0.90903 0.38872 0.0
Cu184 Cu 0.18784 0.39077 0.35088 0.0
N185 N 0.18531 0.40018 0.32786 0.0
N186 N 0.17469 0.40164 0.2989 0.0
C187 C 0.17558 0.3921 0.31288 0.0
C188 C 0.18433 0.41634 0.30535 0.0
C189 C 0.19083 0.4154 0.32328 0.0
O190 O 0.16676 0.37689 0.36098 0.0
C191 C 0.2109 0.38752 0.33209 0.0
O192 O 0.2127 0.40026 0.32309 0.0
H193 H 0.16866 0.37945 0.31289 0.0
H194 H 0.19852 0.42511 0.33261 0.0
N195 N 0.19941 0.40531 0.37027 0.0
N196 N 0.21178 0.4122 0.39961 0.0
C197 C 0.19909 0.40141 0.38962 0.0
C198 C 0.21272 0.41914 0.36789 0.0
C199 C 0.22035 0.42346 0.38601 0.0
C200 C 0.1582 0.3832 0.3616 0.0
O201 O 0.16437 0.39811 0.35684 0.0
H202 H 0.19084 0.38992 0.39557 0.0
H203 H 0.21749 0.42475 0.35368 0.0
O204 O 0.19986 0.38053 0.3447 0.0
H205 H 0.1863 0.42702 0.29793 0.0
H206 H 0.232 0.43328 0.38854 0.0
Cu207 Cu 0.17968 0.35523 0.85377 0.0
N208 N 0.19897 0.36795 0.84181 0.0
N209 N 0.21752 0.37701 0.81851 0.0
C210 C 0.20249 0.36652 0.82299 0.0
C211 C 0.22362 0.38556 0.83512 0.0
C212 C 0.21211 0.37992 0.84951 0.0
O213 O 0.17239 0.33352 0.84723 0.0
C214 C 0.15005 0.35344 0.84653 0.0
O215 O 0.14435 0.34018 0.85664 0.0
H216 H 0.19418 0.35781 0.81287 0.0
H217 H 0.2133 0.38415 0.86456 0.0
N218 N 0.18131 0.35731 0.88136 0.0
N219 N 0.17442 0.35792 0.9127 0.0
C220 C 0.17008 0.35642 0.89339 0.0
C221 C 0.19323 0.35948 0.89349 0.0
C222 C 0.18904 0.35998 0.91292 0.0
C223 C 0.17912 0.32542 0.85005 0.0
O224 O 0.1716 0.31062 0.84497 0.0
H225 H 0.159 0.35493 0.88812 0.0
H226 H 0.20413 0.36051 0.88857 0.0
O227 O 0.16479 0.36145 0.84345 0.0
H228 H 0.23562 0.39492 0.83688 0.0
H229 H 0.19603 0.36147 0.92616 0.0
Cu230 Cu 0.70568 0.88764 0.83607 0.0
N231 N 0.716 0.87812 0.82493 0.0
N232 N 0.71888 0.85864 0.81312 0.0
C233 C 0.71082 0.86263 0.82558 0.0
C234 C 0.7296 0.87219 0.80433 0.0
C235 C 0.72781 0.88421 0.81168 0.0
O236 O 0.69294 0.87318 0.85746 0.0
C237 C 0.68652 0.8976 0.8127 0.0
O238 O 0.68176 0.90052 0.82946 0.0
H239 H 0.70061 0.85429 0.83395 0.0
H240 H 0.73405 0.89636 0.8069 0.0
N241 N 0.72028 0.90681 0.8472 0.0
N242 N 0.73053 0.93072 0.86027 0.0
C243 C 0.71815 0.91904 0.85071 0.0
C244 C 0.73454 0.91089 0.8547 0.0
C245 C 0.7409 0.92563 0.86279 0.0
C246 C 0.69006 0.87718 0.87416 0.0
O247 O 0.69304 0.89162 0.87648 0.0
H248 H 0.70745 0.91909 0.84707 0.0
H249 H 0.73981 0.90352 0.85463 0.0
O250 O 0.69526 0.89146 0.81327 0.0
H251 H 0.73777 0.87325 0.79292 0.0
H252 H 0.75223 0.93203 0.87003 0.0
Cu253 Cu 0.16872 0.89095 0.84544 0.0
N254 N 0.15809 0.87126 0.8335 0.0
N255 N 0.14705 0.85293 0.81007 0.0
C256 C 0.1536 0.86832 0.81423 0.0
C257 C 0.14761 0.84595 0.82731 0.0
C258 C 0.15443 0.85728 0.84171 0.0
O259 O 0.15854 0.90327 0.84013 0.0
C260 C 0.1972 0.91709 0.83436 0.0
O261 O 0.19122 0.9246 0.84346 0.0
H262 H 0.1553 0.87733 0.80344 0.0
H263 H 0.1568 0.85546 0.85701 0.0
N264 N 0.1709 0.88949 0.87308 0.0
N265 N 0.18064 0.89595 0.90405 0.0
C266 C 0.18309 0.89962 0.8844 0.0
C267 C 0.16037 0.87902 0.88598 0.0
C268 C 0.16632 0.88295 0.90506 0.0
C269 C 0.14477 0.89993 0.84513 0.0
O270 O 0.14024 0.91026 0.84186 0.0
H271 H 0.19336 0.90976 0.87837 0.0
H272 H 0.14904 0.86933 0.88183 0.0
O273 O 0.18938 0.90222 0.83373 0.0
H274 H 0.14334 0.83355 0.82938 0.0
H275 H 0.16053 0.87669 0.91859 0.0
Cu276 Cu 0.38623 0.23432 0.69463 0.0
N277 N 0.39278 0.25204 0.67848 0.0
N278 N 0.39072 0.27055 0.66147 0.0
C279 C 0.38372 0.25835 0.67432 0.0
C280 C 0.40478 0.27204 0.65735 0.0
C281 C 0.40596 0.26044 0.66774 0.0
O282 O 0.37547 0.2369 0.71775 0.0
C283 C 0.38339 0.21431 0.66447 0.0
O284 O 0.3986 0.22393 0.66527 0.0
H285 H 0.37215 0.25399 0.68054 0.0
H286 H 0.41552 0.25805 0.66699 0.0
N287 N 0.40317 0.23289 0.7049 0.0
N288 N 0.41572 0.22081 0.71648 0.0
C289 C 0.40169 0.21954 0.71254 0.0
C290 C 0.41873 0.24311 0.7043 0.0
C291 C 0.42654 0.23557 0.71125 0.0
C292 C 0.3841 0.24945 0.72748 0.0
O293 O 0.39846 0.25874 0.72107 0.0
H294 H 0.39055 0.20879 0.71403 0.0
H295 H 0.42405 0.25501 0.69868 0.0
O296 O 0.37464 0.2163 0.67668 0.0
H297 H 0.41331 0.28055 0.64709 0.0
H298 H 0.43912 0.24039 0.71203 0.0
Cu299 Cu 0.84302 0.19952 0.67928 0.0
N300 N 0.85876 0.20224 0.66151 0.0
N301 N 0.87482 0.21297 0.6355 0.0
C302 C 0.86181 0.21091 0.6447 0.0
C303 C 0.88018 0.20521 0.64694 0.0
C304 C 0.87017 0.1985 0.66297 0.0
O305 O 0.84789 0.22104 0.68468 0.0
C306 C 0.82209 0.17235 0.66094 0.0
O307 O 0.83435 0.17059 0.66392 0.0
H308 H 0.85506 0.21633 0.6399 0.0
H309 H 0.87144 0.19181 0.67506 0.0
N310 N 0.84326 0.1902 0.70378 0.0
N311 N 0.83425 0.17866 0.73354 0.0
C312 C 0.83075 0.18312 0.71595 0.0
C313 C 0.85514 0.19022 0.71398 0.0
C314 C 0.84962 0.1831 0.73233 0.0
C315 C 0.86204 0.22967 0.69062 0.0
O316 O 0.8709 0.2233 0.69328 0.0
H317 H 0.81947 0.18191 0.71223 0.0
H318 H 0.86709 0.19549 0.7088 0.0
O319 O 0.82289 0.18506 0.6666 0.0
H320 H 0.89069 0.20464 0.6441 0.0
H321 H 0.85646 0.18151 0.74395 0.0
Cu322 Cu 0.85136 0.70465 0.67809 0.0
N323 N 0.84819 0.71712 0.65971 0.0
N324 N 0.84041 0.72344 0.63144 0.0
C325 C 0.8411 0.71203 0.64201 0.0
C326 C 0.8474 0.73627 0.643 0.0
C327 C 0.85215 0.7323 0.66054 0.0
O328 O 0.83054 0.68683 0.68285 0.0
C329 C 0.87881 0.71142 0.65969 0.0
O330 O 0.88 0.72531 0.66011 0.0
H331 H 0.83682 0.70022 0.63687 0.0
H332 H 0.85815 0.73993 0.67291 0.0
N333 N 0.85991 0.71554 0.70151 0.0
N334 N 0.87487 0.72357 0.72881 0.0
C335 C 0.8719 0.71576 0.71156 0.0
C336 C 0.85508 0.72353 0.71268 0.0
C337 C 0.8643 0.72848 0.72964 0.0
C338 C 0.82497 0.68161 0.70012 0.0
O339 O 0.83444 0.68632 0.71563 0.0
H340 H 0.87784 0.70966 0.70672 0.0
H341 H 0.84529 0.72523 0.70901 0.0
O342 O 0.86657 0.6997 0.66694 0.0
H343 H 0.84885 0.74764 0.63915 0.0
H344 H 0.86315 0.73495 0.74175 0.0
Cu345 Cu 0.83696 0.69562 0.15113 0.0
N346 N 0.83858 0.68662 0.12772 0.0
N347 N 0.85011 0.68369 0.10088 0.0
C348 C 0.85182 0.69247 0.11696 0.0
C349 C 0.83508 0.67183 0.10158 0.0
C350 C 0.828 0.67367 0.11815 0.0
O351 O 0.85738 0.7038 0.16454 0.0
C352 C 0.81554 0.70386 0.13836 0.0
O353 O 0.80819 0.68865 0.13569 0.0
H354 H 0.86244 0.70312 0.12089 0.0
H355 H 0.81602 0.66609 0.12286 0.0
N356 N 0.8217 0.68107 0.16844 0.0
N357 N 0.80481 0.6731 0.19378 0.0
C358 C 0.8163 0.68546 0.18386 0.0
C359 C 0.81343 0.6653 0.16854 0.0
C360 C 0.803 0.66033 0.18427 0.0
C361 C 0.85993 0.69323 0.17198 0.0
O362 O 0.84891 0.67849 0.17051 0.0
H363 H 0.82086 0.69761 0.1877 0.0
H364 H 0.81481 0.65794 0.15795 0.0
O365 O 0.82975 0.71054 0.14452 0.0
H366 H 0.82959 0.66236 0.09107 0.0
H367 H 0.7946 0.6483 0.18815 0.0
Cu368 Cu 0.37288 0.22332 0.18614 0.0
N369 N 0.38061 0.21044 0.17795 0.0
N370 N 0.37982 0.18864 0.16724 0.0
C371 C 0.37224 0.19689 0.16812 0.0
C372 C 0.39365 0.19756 0.17667 0.0
C373 C 0.39407 0.21095 0.18332 0.0
O374 O 0.36255 0.21485 0.21188 0.0
C375 C 0.35647 0.23541 0.16246 0.0
O376 O 0.35724 0.24329 0.17842 0.0
H377 H 0.36049 0.19289 0.16256 0.0
H378 H 0.40314 0.21996 0.19241 0.0
N379 N 0.38908 0.24358 0.19151 0.0
N380 N 0.40008 0.26825 0.20222 0.0
C381 C 0.3874 0.25372 0.20295 0.0
C382 C 0.40344 0.25188 0.1834 0.0
C383 C 0.4103 0.26712 0.19007 0.0
C384 C 0.35427 0.20031 0.21632 0.0
O385 O 0.34936 0.18996 0.20203 0.0
H386 H 0.37677 0.25056 0.21107 0.0
H387 H 0.40827 0.24738 0.17268 0.0
O388 O 0.36094 0.22529 0.16361 0.0
H389 H 0.40243 0.19423 0.17969 0.0
H390 H 0.42152 0.27679 0.1854 0.0
Cu391 Cu 0.84375 0.23759 0.18112 0.0
N392 N 0.82873 0.23422 0.16153 0.0
N393 N 0.81221 0.22204 0.13619 0.0
C394 C 0.82207 0.22146 0.14994 0.0
C395 C 0.81271 0.2358 0.13935 0.0
C396 C 0.82293 0.24329 0.15496 0.0
O397 O 0.83601 0.21737 0.19433 0.0
C398 C 0.86914 0.25801 0.15912 0.0
O399 O 0.86123 0.2655 0.15989 0.0
H400 H 0.8249 0.21218 0.15123 0.0
H401 H 0.82614 0.25468 0.16075 0.0
N402 N 0.84682 0.25294 0.19961 0.0
N403 N 0.85776 0.26917 0.22538 0.0
C404 C 0.85899 0.25945 0.21245 0.0
C405 C 0.83752 0.25877 0.20434 0.0
C406 C 0.84424 0.2688 0.22016 0.0
C407 C 0.83184 0.2148 0.21253 0.0
O408 O 0.8353 0.22668 0.22416 0.0
H409 H 0.86812 0.25639 0.21281 0.0
H410 H 0.8264 0.25557 0.19728 0.0
O411 O 0.86351 0.24468 0.16771 0.0
H412 H 0.80628 0.24025 0.13093 0.0
H413 H 0.83929 0.27504 0.22743 0.0
C414 C 0.00327 0.652 0.30374 0.0
O415 O 0.99713 0.66024 0.30809 0.0
Cd416 Cd 0.99689 0.67977 0.28665 0.0
O417 O 0.00913 0.65321 0.28644 0.0
Cd418 Cd 0.0118 0.66828 0.25415 0.0
C419 C 0.0365 0.70281 0.27721 0.0
O420 O 0.98652 0.66781 0.25517 0.0
O421 O 0.0029 0.68353 0.23333 0.0
O422 O 0.00335 0.64401 0.23563 0.0
C423 C 0.98922 0.67722 0.24064 0.0
O424 O 0.02413 0.70101 0.28553 0.0
C425 C 0.01489 0.64949 0.22376 0.0
O426 O 0.03579 0.69241 0.26547 0.0
O427 O 0.02535 0.66374 0.22616 0.0
C428 C 0.40053 0.4475 0.23515 0.0
O429 O 0.3865 0.43712 0.23117 0.0
Cd430 Cd 0.36831 0.41794 0.25405 0.0
O431 O 0.40598 0.44868 0.25283 0.0
Cd432 Cd 0.39612 0.43481 0.28595 0.0
C433 C 0.39 0.40037 0.26651 0.0
O434 O 0.36949 0.43059 0.28436 0.0
O435 O 0.37343 0.41742 0.3074 0.0
O436 O 0.40763 0.45947 0.30427 0.0
C437 C 0.36416 0.42134 0.29925 0.0
O438 O 0.37781 0.39958 0.25855 0.0
C439 C 0.41646 0.45667 0.31549 0.0
O440 O 0.39961 0.41239 0.27642 0.0
O441 O 0.41626 0.44384 0.31267 0.0
C442 C 0.62995 0.05227 0.22547 0.0
O443 O 0.63741 0.04559 0.21981 0.0
Cd444 Cd 0.65595 0.0418 0.23886 0.0
O445 O 0.63181 0.05776 0.243 0.0
Cd446 Cd 0.64771 0.06016 0.2733 0.0
C447 C 0.68232 0.0806 0.24826 0.0
O448 O 0.64592 0.03483 0.2717 0.0
O449 O 0.66252 0.05075 0.29303 0.0
O450 O 0.62612 0.05318 0.2961 0.0
C451 C 0.65608 0.03736 0.2851 0.0
O452 O 0.67888 0.06779 0.23982 0.0
C453 C 0.63258 0.06605 0.30536 0.0
O454 O 0.67283 0.08141 0.26034 0.0
O455 O 0.64604 0.07654 0.29933 0.0
C456 C 0.04374 0.40098 0.76272 0.0
O457 O 0.04373 0.40151 0.74379 0.0
Cd458 Cd 0.02597 0.40624 0.72392 0.0
O459 O 0.0344 0.40385 0.7725 0.0
Cd460 Cd 0.01446 0.4125 0.76442 0.0
C461 C 0.98927 0.3784 0.74051 0.0
O462 O 0.02748 0.4299 0.73516 0.0
O463 O 0.00393 0.42475 0.74139 0.0
O464 O 0.0258 0.43265 0.79026 0.0
C465 C 0.01621 0.43228 0.73098 0.0
O466 O 0.99965 0.38348 0.72692 0.0
C467 C 0.01339 0.42766 0.80047 0.0
O468 O 0.99161 0.38617 0.75647 0.0
O469 O 0.00142 0.41528 0.79431 0.0
C470 C 0.67714 0.65875 0.75786 0.0
O471 O 0.67658 0.65949 0.7767 0.0
Cd472 Cd 0.65722 0.66148 0.79553 0.0
O473 O 0.6666 0.65905 0.74681 0.0
Cd474 Cd 0.64222 0.66089 0.75226 0.0
C475 C 0.66182 0.69605 0.77626 0.0
O476 O 0.6328 0.64312 0.78114 0.0
O477 O 0.61996 0.65506 0.77476 0.0
O478 O 0.62758 0.64225 0.72575 0.0
C479 C 0.62142 0.64508 0.78539 0.0
O480 O 0.66263 0.68831 0.7912 0.0
C481 C 0.62495 0.65153 0.7152 0.0
O482 O 0.65594 0.68928 0.75976 0.0
O483 O 0.6307 0.66542 0.72153 0.0
C484 C 0.39198 0.0722 0.77117 0.0
O485 O 0.38829 0.07017 0.78949 0.0
Cd486 Cd 0.38487 0.04875 0.80965 0.0
O487 O 0.39408 0.06221 0.76184 0.0
Cd488 Cd 0.39322 0.03673 0.76915 0.0
C489 C 0.35507 0.01864 0.78314 0.0
O490 O 0.40627 0.04545 0.80048 0.0
O491 O 0.39716 0.02088 0.79568 0.0
O492 O 0.41639 0.04658 0.74861 0.0
C493 C 0.40501 0.03269 0.80663 0.0
O494 O 0.35998 0.02728 0.79844 0.0
C495 C 0.41109 0.03502 0.73698 0.0
O496 O 0.36447 0.0198 0.76944 0.0
O497 O 0.39718 0.02396 0.74015 0.0
C498 C 0.66737 0.97177 0.63475 0.0
O499 O 0.65941 0.97841 0.63813 0.0
Cd500 Cd 0.65368 0.99391 0.61565 0.0
O501 O 0.67316 0.97282 0.61739 0.0
Cd502 Cd 0.6728 0.98621 0.58409 0.0
C503 C 0.69135 0.02302 0.60498 0.0
O504 O 0.64511 0.97987 0.58528 0.0
O505 O 0.65923 0.99701 0.56315 0.0
O506 O 0.67005 0.96341 0.56516 0.0
C507 C 0.64575 0.98844 0.57059 0.0
O508 O 0.67804 0.01887 0.61263 0.0
C509 C 0.68044 0.97137 0.5522 0.0
O510 O 0.69336 0.0133 0.59481 0.0
O511 O 0.68785 0.98613 0.55454 0.0
C512 C 0.07139 0.77764 0.54125 0.0
O513 O 0.05794 0.76729 0.53515 0.0
Cd514 Cd 0.0389 0.74582 0.55466 0.0
O515 O 0.07563 0.77719 0.55925 0.0
Cd516 Cd 0.06346 0.75949 0.58957 0.0
C517 C 0.05942 0.727 0.56646 0.0
O518 O 0.03688 0.75572 0.58619 0.0
O519 O 0.0394 0.74048 0.60747 0.0
O520 O 0.07432 0.78207 0.61195 0.0
C521 C 0.03079 0.74545 0.59994 0.0
O522 O 0.04817 0.72707 0.55694 0.0
C523 C 0.08149 0.77736 0.62349 0.0
O524 O 0.06766 0.73785 0.57876 0.0
O525 O 0.0808 0.76457 0.61891 0.0
C526 C 0.27702 0.36017 0.55045 0.0
O527 O 0.28512 0.35419 0.54478 0.0
Cd528 Cd 0.30625 0.35456 0.56335 0.0
O529 O 0.27944 0.36662 0.5674 0.0
Cd530 Cd 0.29734 0.37196 0.59612 0.0
C531 C 0.32864 0.3947 0.56728 0.0
O532 O 0.29966 0.34839 0.59765 0.0
O533 O 0.31753 0.3688 0.61283 0.0
O534 O 0.27662 0.36357 0.62059 0.0
C535 C 0.3117 0.35441 0.60887 0.0
O536 O 0.32688 0.38184 0.56078 0.0
C537 C 0.2827 0.3765 0.62971 0.0
O538 O 0.31881 0.39481 0.57941 0.0
O539 O 0.29541 0.38764 0.6227 0.0
C540 C 0.71356 0.76401 0.08172 0.0
O541 O 0.71155 0.76391 0.06295 0.0
Cd542 Cd 0.69292 0.76857 0.0452 0.0
O543 O 0.70524 0.76701 0.09342 0.0
Cd544 Cd 0.68373 0.77424 0.08999 0.0
C545 C 0.65854 0.73948 0.06621 0.0
O546 O 0.69502 0.79107 0.06032 0.0
O547 O 0.67249 0.78752 0.06847 0.0
O548 O 0.69679 0.79222 0.11812 0.0
C549 C 0.68405 0.79393 0.05666 0.0
O550 O 0.66714 0.74561 0.05091 0.0
C551 C 0.68456 0.78825 0.12834 0.0
O552 O 0.66224 0.74655 0.08293 0.0
O553 O 0.67175 0.77752 0.12103 0.0
C554 C 0.33296 0.98766 0.11227 0.0
O555 O 0.33284 0.98791 0.13119 0.0
Cd556 Cd 0.31365 0.99038 0.15005 0.0
O557 O 0.32207 0.98808 0.10219 0.0
Cd558 Cd 0.29719 0.98871 0.10859 0.0
C559 C 0.31788 0.02474 0.12976 0.0
O560 O 0.28805 0.97145 0.13846 0.0
O561 O 0.2758 0.98397 0.13144 0.0
O562 O 0.28586 0.96915 0.08233 0.0
C563 C 0.2769 0.97394 0.14241 0.0
O564 O 0.31946 0.01727 0.14447 0.0
C565 C 0.27975 0.97577 0.07224 0.0
O566 O 0.3109 0.01756 0.11386 0.0
O567 O 0.28186 0.98871 0.07883 0.0
C568 C 0.06351 0.41341 0.09199 0.0
O569 O 0.05907 0.41172 0.11 0.0
Cd570 Cd 0.05503 0.39049 0.13132 0.0
O571 O 0.06577 0.40315 0.08371 0.0
Cd572 Cd 0.0641 0.37771 0.09323 0.0
C573 C 0.02569 0.35913 0.10679 0.0
O574 O 0.07702 0.3872 0.12487 0.0
O575 O 0.06904 0.36283 0.11964 0.0
O576 O 0.08704 0.3854 0.07271 0.0
C577 C 0.07639 0.37463 0.13075 0.0
O578 O 0.03003 0.36839 0.12148 0.0
C579 C 0.08082 0.37336 0.06183 0.0
O580 O 0.03551 0.36013 0.09384 0.0
O581 O 0.06657 0.36331 0.06528 0.0
C582 C 0.33923 0.31174 0.98599 0.0
O583 O 0.33184 0.31889 0.98985 0.0
Cd584 Cd 0.32794 0.3361 0.96812 0.0
O585 O 0.34511 0.31308 0.96862 0.0
Cd586 Cd 0.34568 0.32749 0.93574 0.0
C587 C 0.36622 0.36398 0.9576 0.0
O588 O 0.31851 0.32294 0.93716 0.0
O589 O 0.33314 0.33931 0.91458 0.0
O590 O 0.3405 0.3045 0.91539 0.0
C591 C 0.31963 0.33158 0.92231 0.0
O592 O 0.35329 0.36013 0.96618 0.0
C593 C 0.35227 0.31167 0.90398 0.0
O594 O 0.36729 0.35432 0.94613 0.0
O595 O 0.3614 0.32608 0.90768 0.0
C596 C 0.72591 0.10584 0.89535 0.0
O597 O 0.71167 0.09721 0.89023 0.0
Cd598 Cd 0.6926 0.07722 0.91157 0.0
O599 O 0.73022 0.10528 0.91325 0.0
Cd600 Cd 0.71792 0.09159 0.94577 0.0
C601 C 0.71388 0.05897 0.92429 0.0
O602 O 0.69145 0.08818 0.94257 0.0
O603 O 0.69416 0.07353 0.96468 0.0
O604 O 0.73072 0.11719 0.9617 0.0
C605 C 0.68549 0.07831 0.95681 0.0
O606 O 0.70254 0.05902 0.91496 0.0
C607 C 0.73689 0.11352 0.97602 0.0
O608 O 0.72229 0.06987 0.93645 0.0
O609 O 0.73467 0.09965 0.97609 0.0
C610 C 0.97649 0.7123 0.87467 0.0
O611 O 0.98594 0.70793 0.86895 0.0
Cd612 Cd 0.00577 0.70823 0.89016 0.0
O613 O 0.97666 0.71629 0.89268 0.0
Cd614 Cd 0.99024 0.71819 0.9249 0.0
C615 C 0.02352 0.74707 0.90417 0.0
O616 O 0.99337 0.69545 0.92069 0.0
O617 O 0.00653 0.71061 0.9449 0.0
O618 O 0.96401 0.70567 0.93895 0.0
C619 C 0.00239 0.69806 0.93553 0.0
O620 O 0.02363 0.73614 0.89445 0.0
C621 C 0.9673 0.71495 0.9534 0.0
O622 O 0.01239 0.74414 0.91615 0.0
O623 O 0.98142 0.72609 0.95462 0.0
C624 C 0.39382 0.10898 0.43628 0.0
O625 O 0.39411 0.11149 0.41762 0.0
Cd626 Cd 0.37462 0.11455 0.40014 0.0
O627 O 0.38385 0.11008 0.44723 0.0
Cd628 Cd 0.36282 0.11803 0.44316 0.0
C629 C 0.34181 0.08256 0.42117 0.0
O630 O 0.37354 0.1361 0.41406 0.0
O631 O 0.349 0.12693 0.41951 0.0
O632 O 0.37505 0.13551 0.47198 0.0
C633 C 0.36098 0.13601 0.40925 0.0
O634 O 0.35118 0.08911 0.40661 0.0
C635 C 0.36244 0.1316 0.48132 0.0
O636 O 0.34321 0.09013 0.43704 0.0
O637 O 0.34983 0.12134 0.47307 0.0
C638 C 0.00822 0.33977 0.43996 0.0
O639 O 0.0083 0.33934 0.45889 0.0
Cd640 Cd 0.98851 0.33911 0.47909 0.0
O641 O 0.99685 0.33971 0.43041 0.0
Cd642 Cd 0.971 0.33792 0.43855 0.0
C643 C 0.99016 0.37311 0.46212 0.0
O644 O 0.96494 0.31839 0.46493 0.0
O645 O 0.94936 0.32774 0.46359 0.0
O646 O 0.96159 0.32288 0.40754 0.0
C647 C 0.95259 0.3178 0.47117 0.0
O648 O 0.99251 0.36578 0.47637 0.0
C649 C 0.95331 0.32881 0.40178 0.0
O650 O 0.98324 0.36598 0.44623 0.0
O651 O 0.95332 0.33907 0.41299 0.0
C652 C 0.7485 0.7465 0.42182 0.0
O653 O 0.75125 0.74634 0.44036 0.0
Cd654 Cd 0.754 0.72641 0.45749 0.0
O655 O 0.74672 0.73533 0.41074 0.0
Cd656 Cd 0.74728 0.7104 0.41474 0.0
C657 C 0.71772 0.69486 0.44809 0.0
O658 O 0.77024 0.72185 0.43581 0.0
O659 O 0.75856 0.69679 0.43458 0.0
O660 O 0.7578 0.71561 0.38103 0.0
C661 C 0.77015 0.70938 0.44078 0.0
O662 O 0.72776 0.70348 0.46108 0.0
C663 C 0.75006 0.70148 0.37541 0.0
O664 O 0.72132 0.69606 0.42973 0.0
O665 O 0.74069 0.69148 0.38797 0.0
H666 H 0.02646 0.49598 0.01158 0.0
H667 H 0.04053 0.48206 0.01815 0.0
H668 H 0.08286 0.52581 0.02989 0.0
H669 H 0.06848 0.54 0.02359 0.0
H670 H 0.06465 0.48042 0.00517 0.0
H671 H 0.1011 0.51806 0.06909 0.0
H672 H 0.10299 0.53852 0.09158 0.0
H673 H 0.053 0.51883 0.08865 0.0
H674 H 0.05085 0.4982 0.06631 0.0
H675 H 0.08195 0.42686 0.05899 0.0
H676 H 0.08698 0.45106 0.04157 0.0
H677 H 0.056 0.45579 0.08228 0.0
H678 H 0.05152 0.43221 0.10006 0.0
H679 H 0.08003 0.48306 0.0763 0.0
H680 H 0.04489 0.4393 0.03306 0.0
H681 H 0.03838 0.41652 0.01202 0.0
H682 H 0.07881 0.44487 0.97575 0.0
H683 H 0.08561 0.46778 0.99671 0.0
C684 C 0.03881 0.50273 0.01537 0.0
C685 C 0.04629 0.51905 0.01754 0.0
C686 C 0.04692 0.49474 0.01888 0.0
C687 C 0.06273 0.50284 0.0247 0.0
C688 C 0.07062 0.51931 0.02557 0.0
C689 C 0.06242 0.52739 0.02199 0.0
C690 C 0.06979 0.49351 0.03231 0.0
C691 C 0.06842 0.48121 0.0206 0.0
C692 C 0.07473 0.49452 0.0524 0.0
C693 C 0.07587 0.50678 0.06586 0.0
C694 C 0.09054 0.51813 0.07327 0.0
C695 C 0.09165 0.52974 0.08599 0.0
C696 C 0.07813 0.53002 0.09147 0.0
C697 C 0.06347 0.51864 0.08433 0.0
C698 C 0.0623 0.507 0.07165 0.0
C699 C 0.07624 0.43311 0.06416 0.0
C700 C 0.06629 0.42763 0.08083 0.0
C701 C 0.07915 0.44694 0.05423 0.0
C702 C 0.07185 0.45527 0.06056 0.0
C703 C 0.06194 0.44973 0.07722 0.0
C704 C 0.05928 0.43615 0.08731 0.0
C705 C 0.07364 0.46929 0.04959 0.0
C706 C 0.07697 0.4826 0.06063 0.0
C707 C 0.06992 0.4689 0.02908 0.0
C708 C 0.06587 0.45515 0.01658 0.0
C709 C 0.05244 0.44062 0.02067 0.0
C710 C 0.04869 0.42771 0.00876 0.0
C711 C 0.05821 0.42923 0.99261 0.0
C712 C 0.07147 0.44369 0.9883 0.0
C713 C 0.07528 0.45664 1.00019 0.0
H714 H 0.05529 0.41922 0.9834 0.0
H715 H 0.07902 0.53902 0.1013 0.0
H716 H 0.54205 0.60722 0.00646 0.0
H717 H 0.56204 0.63436 0.01385 0.0
H718 H 0.57711 0.61826 0.06518 0.0
H719 H 0.55735 0.59117 0.05779 0.0
H720 H 0.57354 0.6447 0.07278 0.0
H721 H 0.59849 0.62797 0.02508 0.0
H722 H 0.60029 0.61711 0.99303 0.0
H723 H 0.59834 0.65443 0.96146 0.0
H724 H 0.5963 0.66539 0.99334 0.0
H725 H 0.64559 0.71513 0.09356 0.0
H726 H 0.62423 0.6883 0.08785 0.0
H727 H 0.61783 0.70171 0.02834 0.0
H728 H 0.6397 0.72811 0.03366 0.0
H729 H 0.61645 0.6761 0.02507 0.0
H730 H 0.59113 0.6932 0.07052 0.0
H731 H 0.5877 0.70428 0.10146 0.0
H732 H 0.58825 0.66732 0.13578 0.0
H733 H 0.59187 0.65612 0.10505 0.0
C734 C 0.54962 0.60946 0.01932 0.0
C735 C 0.54811 0.59698 0.03147 0.0
C736 C 0.56106 0.62498 0.02352 0.0
C737 C 0.57113 0.62837 0.04007 0.0
C738 C 0.56948 0.61596 0.05236 0.0
C739 C 0.55822 0.60045 0.04803 0.0
C740 C 0.58355 0.64481 0.04442 0.0
C741 C 0.58303 0.65156 0.06246 0.0
C742 C 0.59569 0.6539 0.03074 0.0
C743 C 0.59708 0.64741 0.01159 0.0
C744 C 0.59832 0.63379 0.0113 0.0
C745 C 0.59941 0.62763 0.99316 0.0
C746 C 0.59938 0.63505 0.97521 0.0
C747 C 0.59833 0.64868 0.97537 0.0
C748 C 0.59722 0.65488 0.99347 0.0
C749 C 0.63946 0.71236 0.07939 0.0
C750 C 0.64433 0.72375 0.06408 0.0
C751 C 0.62717 0.69699 0.0761 0.0
C752 C 0.61915 0.69281 0.05765 0.0
C753 C 0.62377 0.70442 0.04265 0.0
C754 C 0.63626 0.7196 0.04575 0.0
C755 C 0.60648 0.67629 0.05347 0.0
C756 C 0.60696 0.66942 0.03545 0.0
C757 C 0.59411 0.66721 0.06701 0.0
C758 C 0.59194 0.67391 0.08551 0.0
C759 C 0.59063 0.6875 0.08468 0.0
C760 C 0.58863 0.69379 0.10218 0.0
C761 C 0.5878 0.68654 0.12058 0.0
C762 C 0.58892 0.67294 0.12152 0.0
C763 C 0.59093 0.66661 0.10407 0.0
H764 H 0.58625 0.69143 0.1341 0.0
H765 H 0.60021 0.63026 0.96118 0.0
H766 H 0.44691 0.994 0.00688 0.0
H767 H 0.42058 0.98623 0.01888 0.0
H768 H 0.43823 0.99613 0.07918 0.0
H769 H 0.46452 0.00383 0.06735 0.0
H770 H 0.40845 0.97008 0.07711 0.0
H771 H 0.43636 0.02344 0.05068 0.0
H772 H 0.45001 0.04314 0.02407 0.0
H773 H 0.40853 0.02124 0.98754 0.0
H774 H 0.39481 1.00122 0.01368 0.0
H775 H 0.35916 0.98931 0.12922 0.0
H776 H 0.38082 0.98884 0.11275 0.0
H777 H 0.35817 0.98402 0.05573 0.0
H778 H 0.33648 0.98485 0.07215 0.0
H779 H 0.38824 0.00454 0.05259 0.0
H780 H 0.35934 0.95271 0.07875 0.0
H781 H 0.34512 0.93191 0.10393 0.0
H782 H 0.38708 0.94933 0.13932 0.0
H783 H 0.40151 0.97038 0.11449 0.0
C784 C 0.44511 0.99409 0.02276 0.0
C785 C 0.45786 0.99965 0.03615 0.0
C786 C 0.43006 0.98975 0.02957 0.0
C787 C 0.42749 0.99087 0.04989 0.0
C788 C 0.43994 0.99524 0.06343 0.0
C789 C 0.45498 0.99966 0.05664 0.0
C790 C 0.41232 0.98889 0.05694 0.0
C791 C 0.40405 0.97764 0.07184 0.0
C792 C 0.40634 0.99847 0.04962 0.0
C793 C 0.4146 0.01072 0.03406 0.0
C794 C 0.4302 0.02276 0.0369 0.0
C795 C 0.43796 0.034 0.02189 0.0
C796 C 0.43016 0.03346 0.0041 0.0
C797 C 0.4146 0.02167 1.00128 0.0
C798 C 0.40683 0.01036 0.01618 0.0
C799 C 0.35868 0.98808 0.11317 0.0
C800 C 0.34599 0.98706 0.10204 0.0
C801 C 0.37109 0.98772 0.10376 0.0
C802 C 0.37105 0.98611 0.08299 0.0
C803 C 0.35845 0.98519 0.07178 0.0
C804 C 0.34603 0.98564 0.0812 0.0
C805 C 0.38445 0.98589 0.07311 0.0
C806 C 0.39245 0.99678 0.05771 0.0
C807 C 0.39009 0.97586 0.07982 0.0
C808 C 0.38148 0.9632 0.09481 0.0
C809 C 0.36551 0.95218 0.09197 0.0
C810 C 0.35741 0.94033 0.10617 0.0
C811 C 0.36518 0.93932 0.12323 0.0
C812 C 0.38107 0.95013 0.1261 0.0
C813 C 0.38922 0.96202 0.11195 0.0
H814 H 0.35889 0.93013 0.1342 0.0
H815 H 0.43618 0.04219 0.99253 0.0
H816 H 0.49004 0.05904 0.45357 0.0
H817 H 0.47152 0.06835 0.44766 0.0
H818 H 0.45511 0.05616 0.50818 0.0
H819 H 0.4736 0.04666 0.51424 0.0
H820 H 0.43078 0.04974 0.48145 0.0
H821 H 0.48124 0.09317 0.49735 0.0
H822 H 0.50993 0.10994 0.49436 0.0
H823 H 0.50463 0.12063 0.43339 0.0
H824 H 0.47591 0.10373 0.43592 0.0
H825 H 0.39381 0.09705 0.47393 0.0
H826 H 0.41032 0.08637 0.48604 0.0
H827 H 0.43423 0.09795 0.42953 0.0
H828 H 0.41813 0.10876 0.41754 0.0
H829 H 0.45474 0.10517 0.45873 0.0
H830 H 0.40468 0.06021 0.4419 0.0
H831 H 0.37601 0.04297 0.4443 0.0
H832 H 0.38047 0.03504 0.5066 0.0
H833 H 0.40917 0.05241 0.50461 0.0
C834 C 0.48235 0.0581 0.46559 0.0
C835 C 0.48345 0.05222 0.48445 0.0
C836 C 0.47179 0.0635 0.46219 0.0
C837 C 0.46212 0.06326 0.47758 0.0
C838 C 0.4625 0.05655 0.4961 0.0
C839 C 0.4731 0.05112 0.49953 0.0
C840 C 0.45238 0.07086 0.47453 0.0
C841 C 0.43602 0.06193 0.47679 0.0
C842 C 0.45917 0.08674 0.46829 0.0
C843 C 0.47643 0.09709 0.46679 0.0
C844 C 0.4862 0.09902 0.48327 0.0
C845 C 0.50246 0.10855 0.48166 0.0
C846 C 0.5091 0.11632 0.46369 0.0
C847 C 0.49948 0.1146 0.4473 0.0
C848 C 0.4832 0.10506 0.44882 0.0
C849 C 0.40272 0.09748 0.46419 0.0
C850 C 0.40457 0.10374 0.44473 0.0
C851 C 0.41207 0.09125 0.47108 0.0
C852 C 0.42343 0.09115 0.45862 0.0
C853 C 0.42557 0.09784 0.43945 0.0
C854 C 0.41628 0.10401 0.43259 0.0
C855 C 0.43305 0.08397 0.46512 0.0
C856 C 0.44945 0.09302 0.46357 0.0
C857 C 0.42627 0.06821 0.47197 0.0
C858 C 0.40904 0.05776 0.47316 0.0
C859 C 0.39953 0.05489 0.45614 0.0
C860 C 0.38328 0.04508 0.45742 0.0
C861 C 0.37642 0.03796 0.4756 0.0
C862 C 0.3858 0.04059 0.49253 0.0
C863 C 0.40206 0.05042 0.49134 0.0
H864 H 0.36383 0.03036 0.47656 0.0
H865 H 0.5217 0.12369 0.46247 0.0
H866 H 0.03393 0.52098 0.45194 0.0
H867 H 0.02855 0.49436 0.44591 0.0
H868 H 0.03602 0.4887 0.50827 0.0
H869 H 0.04153 0.51537 0.51446 0.0
H870 H 0.04732 0.47406 0.48355 0.0
H871 H 0.99987 0.4764 0.49206 0.0
H872 H 0.98186 0.48644 0.48441 0.0
H873 H 0.97729 0.47079 0.42408 0.0
H874 H 0.99549 0.46089 0.4313 0.0
H875 H 0.00361 0.39158 0.4947 0.0
H876 H 0.01394 0.41973 0.49738 0.0
H877 H 1.0008 0.4217 0.43625 0.0
H878 H 0.99012 0.39342 0.43355 0.0
H879 H 0.99333 0.43869 0.45864 0.0
H880 H 0.03947 0.43496 0.45009 0.0
H881 H 0.05796 0.42541 0.45706 0.0
H882 H 0.06549 0.44377 0.51626 0.0
H883 H 0.04687 0.45324 0.50975 0.0
C884 C 0.03478 0.51424 0.46433 0.0
C885 C 0.03798 0.52029 0.48374 0.0
C886 C 0.03163 0.49897 0.46085 0.0
C887 C 0.03158 0.48944 0.47671 0.0
C888 C 0.03592 0.49582 0.49583 0.0
C889 C 0.03906 0.51109 0.49934 0.0
C890 C 0.02567 0.47246 0.47372 0.0
C891 C 0.03548 0.46628 0.47826 0.0
C892 C 0.01032 0.46238 0.46642 0.0
C893 C 0.99915 0.46805 0.46216 0.0
C894 C 0.9951 0.47519 0.47713 0.0
C895 C 0.98485 0.48085 0.47288 0.0
C896 C 0.97846 0.47928 0.45376 0.0
C897 C 0.98226 0.47201 0.43888 0.0
C898 C 0.99254 0.46637 0.44304 0.0
C899 C 0.00288 0.39796 0.4818 0.0
C900 C 0.99605 0.39019 0.46388 0.0
C901 C 0.0089 0.41412 0.48333 0.0
C902 C 0.00841 0.42294 0.46692 0.0
C903 C 0.00138 0.41518 0.4491 0.0
C904 C 0.99528 0.39899 0.44758 0.0
C905 C 0.01497 0.44018 0.4685 0.0
C906 C 0.00523 0.44643 0.46376 0.0
C907 C 0.03041 0.45032 0.47553 0.0
C908 C 0.04167 0.44469 0.47948 0.0
C909 C 0.04498 0.43686 0.46465 0.0
C910 C 0.0555 0.43148 0.46851 0.0
C911 C 0.06286 0.43395 0.48711 0.0
C912 C 0.05976 0.44185 0.50187 0.0
C913 C 0.04924 0.44724 0.4981 0.0
H914 H 0.071 0.42977 0.49007 0.0
H915 H 0.97054 0.48368 0.45049 0.0
H916 H 0.5726 0.59153 0.47732 0.0
H917 H 0.59834 0.61341 0.46778 0.0
H918 H 0.62068 0.59689 0.50963 0.0
H919 H 0.59489 0.57482 0.51905 0.0
H920 H 0.62988 0.63105 0.51062 0.0
H921 H 0.6236 0.59001 0.46567 0.0
H922 H 0.60914 0.56988 0.44035 0.0
H923 H 0.60937 0.60481 0.40086 0.0
H924 H 0.62364 0.62511 0.42608 0.0
H925 H 0.70926 0.67897 0.48351 0.0
H926 H 0.68327 0.65802 0.49334 0.0
H927 H 0.66421 0.66351 0.43735 0.0
H928 H 0.69045 0.68376 0.42698 0.0
H929 H 0.65242 0.63494 0.44362 0.0
H930 H 0.65809 0.67607 0.48511 0.0
H931 H 0.67021 0.69734 0.50953 0.0
H932 H 0.66857 0.66481 0.55426 0.0
H933 H 0.65666 0.64336 0.53001 0.0
C934 C 0.58301 0.59259 0.48446 0.0
C935 C 0.58183 0.58153 0.4989 0.0
C936 C 0.59766 0.60503 0.47898 0.0
C937 C 0.61132 0.6067 0.48804 0.0
C938 C 0.6102 0.59574 0.50253 0.0
C939 C 0.59555 0.58312 0.50777 0.0
C940 C 0.62678 0.61993 0.48233 0.0
C941 C 0.635 0.63188 0.4961 0.0
C942 C 0.63296 0.62122 0.46308 0.0
C943 C 0.62455 0.60904 0.44784 0.0
C944 C 0.62045 0.59337 0.45165 0.0
C945 C 0.61231 0.58194 0.4373 0.0
C946 C 0.6083 0.58606 0.41902 0.0
C947 C 0.61247 0.60163 0.41503 0.0
C948 C 0.6206 0.61311 0.42934 0.0
C949 C 0.69948 0.67576 0.47338 0.0
C950 C 0.70183 0.68296 0.4545 0.0
C951 C 0.68459 0.66385 0.47906 0.0
C952 C 0.67164 0.65931 0.46626 0.0
C953 C 0.67397 0.66674 0.4475 0.0
C954 C 0.68895 0.67834 0.4416 0.0
C955 C 0.65584 0.64628 0.47198 0.0
C956 C 0.64746 0.6343 0.45819 0.0
C957 C 0.6493 0.64522 0.49106 0.0
C958 C 0.65663 0.65813 0.50566 0.0
C959 C 0.66045 0.67347 0.50009 0.0
C960 C 0.66726 0.68556 0.51392 0.0
C961 C 0.6702 0.68244 0.53342 0.0
C962 C 0.66631 0.66721 0.53914 0.0
C963 C 0.65953 0.65508 0.52536 0.0
H964 H 0.67546 0.69181 0.5441 0.0
H965 H 0.602 0.57719 0.40793 0.0
H966 H 0.0414 0.59196 0.96871 0.0
H967 H 0.0423 0.61656 0.9586 0.0
H968 H 0.01427 0.61262 0.00973 0.0
H969 H 0.01288 0.58797 0.01927 0.0
H970 H 0.00096 0.61516 0.97761 0.0
H971 H 0.05317 0.64203 0.00471 0.0
H972 H 0.08069 0.64843 0.00867 0.0
H973 H 0.08938 0.66237 0.947 0.0
H974 H 0.06184 0.65585 0.9426 0.0
H975 H 0.02195 0.70077 0.96645 0.0
H976 H 0.02988 0.68179 0.97711 0.0
H977 H 0.00394 0.65218 0.92792 0.0
H978 H 0.99586 0.67096 0.91726 0.0
H979 H 0.04539 0.66753 0.95936 0.0
H980 H 0.98327 0.61512 0.94623 0.0
H981 H 0.95581 0.60935 0.94508 0.0
H982 H 0.96733 0.64747 0.98459 0.0
H983 H 0.99478 0.65331 0.98618 0.0
C984 C 0.03578 0.59662 0.97795 0.0
C985 C 0.0269 0.58809 0.99456 0.0
C986 C 0.03631 0.61065 0.97223 0.0
C987 C 0.02823 0.61636 0.98334 0.0
C988 C 0.02042 0.60835 1.0008 0.0
C989 C 0.01964 0.5943 0.00625 0.0
C990 C 0.02615 0.62945 0.97579 0.0
C991 C 0.01073 0.6266 0.97366 0.0
C992 C 0.03885 0.6444 0.97066 0.0
C993 C 0.0554 0.64829 0.97328 0.0
C994 C 0.06091 0.64632 0.99194 0.0
C995 C 0.07652 0.65 0.99428 0.0
C996 C 0.08677 0.65576 0.97809 0.0
C997 C 0.08143 0.65789 0.95953 0.0
C998 C 0.06582 0.65421 0.95711 0.0
C999 C 0.01807 0.69029 0.95782 0.0
C1000 C 0.00813 0.68725 0.94121 0.0
C1001 C 0.02269 0.67953 0.9638 0.0
C1002 C 0.01739 0.66556 0.95335 0.0
C1003 C 0.00805 0.66284 0.93624 0.0
C1004 C 0.00343 0.67357 0.93026 0.0
C1005 C 0.02027 0.65312 0.96132 0.0
C1006 C 0.03573 0.65606 0.96336 0.0
C1007 C 0.00764 0.63827 0.96681 0.0
C1008 C 0.99111 0.63475 0.96612 0.0
C1009 C 0.97992 0.62223 0.95471 0.0
C1010 C 0.96436 0.61896 0.95398 0.0
C1011 C 0.95984 0.62808 0.9647 0.0
C1012 C 0.97085 0.64046 0.97623 0.0
C1013 C 0.98642 0.64376 0.97703 0.0
H1014 H 0.94779 0.62553 0.9641 0.0
H1015 H 0.09885 0.65861 0.97993 0.0
H1016 H 0.48493 0.49186 0.02204 0.0
H1017 H 0.46444 0.46579 0.01201 0.0
H1018 H 0.44692 0.48673 0.96927 0.0
H1019 H 0.46679 0.51283 0.98035 0.0
H1020 H 0.42357 0.46384 0.98293 0.0
H1021 H 0.47041 0.46821 0.95719 0.0
H1022 H 0.49758 0.47313 0.95774 0.0
H1023 H 0.48445 0.43527 0.99982 0.0
H1024 H 0.45724 0.43024 0.99971 0.0
H1025 H 0.39421 0.38026 0.93693 0.0
H1026 H 0.41572 0.40707 0.94298 0.0
H1027 H 0.39087 0.41013 0.99361 0.0
H1028 H 0.36935 0.38385 0.98733 0.0
H1029 H 0.43597 0.42164 0.97115 0.0
H1030 H 0.39661 0.44591 1.00012 0.0
H1031 H 0.37018 0.44216 0.99394 0.0
H1032 H 0.36974 0.42492 0.93547 0.0
H1033 H 0.39624 0.42877 0.94117 0.0
C1034 C 0.47666 0.49089 0.01057 0.0
C1035 C 0.47751 0.50442 0.00198 0.0
C1036 C 0.46499 0.47592 0.00464 0.0
C1037 C 0.45422 0.47407 0.98941 0.0
C1038 C 0.455 0.48766 0.981 0.0
C1039 C 0.4664 0.50263 0.98734 0.0
C1040 C 0.44199 0.45804 0.98257 0.0
C1041 C 0.42638 0.45469 0.98034 0.0
C1042 C 0.44548 0.446 0.97851 0.0
C1043 C 0.46182 0.44893 0.97856 0.0
C1044 C 0.47334 0.46099 0.96665 0.0
C1045 C 0.48875 0.4638 0.96687 0.0
C1046 C 0.49275 0.45454 0.97884 0.0
C1047 C 0.48134 0.44244 0.99057 0.0
C1048 C 0.46592 0.43959 0.99041 0.0
C1049 C 0.39335 0.38667 0.94933 0.0
C1050 C 0.37991 0.3799 0.96146 0.0
C1051 C 0.40568 0.40201 0.95282 0.0
C1052 C 0.40486 0.41088 0.96853 0.0
C1053 C 0.39169 0.40385 0.98104 0.0
C1054 C 0.37937 0.38869 0.97745 0.0
C1055 C 0.41761 0.42745 0.97204 0.0
C1056 C 0.43325 0.43087 0.97366 0.0
C1057 C 0.41428 0.43975 0.97475 0.0
C1058 C 0.39836 0.4375 0.97116 0.0
C1059 C 0.3909 0.44138 0.98591 0.0
C1060 C 0.3759 0.43922 0.9825 0.0
C1061 C 0.36826 0.43326 0.96435 0.0
C1062 C 0.37564 0.42948 0.94955 0.0
C1063 C 0.39064 0.43163 0.95287 0.0
H1064 H 0.35665 0.43159 0.96174 0.0
H1065 H 0.50468 0.45674 0.979 0.0
H1066 H 0.54144 0.02129 0.02389 0.0
H1067 H 0.56584 0.02202 0.01378 0.0
H1068 H 0.57826 0.06328 0.97776 0.0
H1069 H 0.55433 0.06279 0.98809 0.0
H1070 H 0.58405 0.04071 0.95919 0.0
H1071 H 0.5921 0.06762 0.02277 0.0
H1072 H 0.58629 0.06817 0.05832 0.0
H1073 H 0.59781 0.03227 0.07154 0.0
H1074 H 0.60342 0.03131 0.03598 0.0
H1075 H 0.66455 0.08685 0.94295 0.0
H1076 H 0.63723 0.07617 0.95275 0.0
H1077 H 0.64135 0.04428 0.99403 0.0
H1078 H 0.66889 0.05521 0.98457 0.0
H1079 H 0.6255 0.05598 0.01093 0.0
H1080 H 0.62122 0.03107 0.94984 0.0
H1081 H 0.62632 0.02861 0.91459 0.0
H1082 H 0.60681 0.05745 0.89679 0.0
H1083 H 0.60181 0.06029 0.93198 0.0
C1084 C 0.54925 0.03027 0.01349 0.0
C1085 C 0.54605 0.04199 0.00675 0.0
C1086 C 0.56319 0.03074 0.00783 0.0
C1087 C 0.57388 0.04276 0.99509 0.0
C1088 C 0.57019 0.0539 0.98756 0.0
C1089 C 0.55652 0.05362 0.9935 0.0
C1090 C 0.58947 0.04468 0.99045 0.0
C1091 C 0.59313 0.04403 0.97047 0.0
C1092 C 0.60115 0.04848 0.00529 0.0
C1093 C 0.59797 0.04924 0.02668 0.0
C1094 C 0.59326 0.05975 0.03323 0.0
C1095 C 0.59002 0.06015 0.05338 0.0
C1096 C 0.59163 0.05022 0.06717 0.0
C1097 C 0.59653 0.03992 0.06084 0.0
C1098 C 0.59973 0.03944 0.04069 0.0
C1099 C 0.65966 0.07756 0.9541 0.0
C1100 C 0.6689 0.07184 0.9629 0.0
C1101 C 0.64398 0.07137 0.95963 0.0
C1102 C 0.63708 0.05919 0.9739 0.0
C1103 C 0.64635 0.05361 0.98293 0.0
C1104 C 0.66209 0.05985 0.97747 0.0
C1105 C 0.62029 0.05256 0.97947 0.0
C1106 C 0.61639 0.05233 0.99962 0.0
C1107 C 0.60829 0.04766 0.96482 0.0
C1108 C 0.61123 0.04598 0.94359 0.0
C1109 C 0.61812 0.03699 0.93843 0.0
C1110 C 0.62098 0.03551 0.91845 0.0
C1111 C 0.61691 0.04289 0.90346 0.0
C1112 C 0.60996 0.05174 0.90842 0.0
C1113 C 0.60709 0.05328 0.92838 0.0
H1114 H 0.61914 0.04173 0.888 0.0
H1115 H 0.58913 0.05055 0.08277 0.0
H1116 H 0.51891 0.99718 0.5542 0.0
H1117 H 0.53869 0.98927 0.55888 0.0
H1118 H 0.5657 0.02009 0.51048 0.0
H1119 H 0.5456 0.02743 0.50513 0.0
H1120 H 0.56935 0.9961 0.50992 0.0
H1121 H 0.57308 0.03069 0.56156 0.0
H1122 H 0.56356 0.03993 0.58913 0.0
H1123 H 0.55258 0.9984 0.62325 0.0
H1124 H 0.56183 0.98881 0.59575 0.0
H1125 H 0.64425 0.00736 0.54115 0.0
H1126 H 0.62184 0.01059 0.53197 0.0
H1127 H 0.59364 0.97606 0.57649 0.0
H1128 H 0.61605 0.97294 0.58592 0.0
H1129 H 0.59042 0.00137 0.57869 0.0
H1130 H 0.5891 0.96824 0.52562 0.0
H1131 H 0.59998 0.96099 0.49748 0.0
H1132 H 0.60852 0.00269 0.46552 0.0
H1133 H 0.59791 0.0103 0.49359 0.0
C1134 C 0.52889 0.002 0.54427 0.0
C1135 C 0.53069 0.013 0.52938 0.0
C1136 C 0.54031 0.9976 0.54709 0.0
C1137 C 0.55401 0.00443 0.53546 0.0
C1138 C 0.55534 0.0147 0.51978 0.0
C1139 C 0.54378 0.01887 0.5167 0.0
C1140 C 0.56729 0.00159 0.54028 0.0
C1141 C 0.57403 0.9974 0.52494 0.0
C1142 C 0.57344 0.00316 0.55988 0.0
C1143 C 0.56799 0.00896 0.57651 0.0
C1144 C 0.56854 0.02348 0.57489 0.0
C1145 C 0.5632 0.02879 0.59051 0.0
C1146 C 0.55743 0.01974 0.60791 0.0
C1147 C 0.55703 0.00539 0.60975 0.0
C1148 C 0.56232 1.00001 0.59416 0.0
C1149 C 0.63325 1.00038 0.54891 0.0
C1150 C 0.63196 0.98989 0.56429 0.0
C1151 C 0.6204 0.00218 0.54357 0.0
C1152 C 0.60595 0.99346 0.55339 0.0
C1153 C 0.60463 0.98291 0.56866 0.0
C1154 C 0.61746 0.98111 0.57401 0.0
C1155 C 0.59239 0.99576 0.54838 0.0
C1156 C 0.58565 0.99995 0.5637 0.0
C1157 C 0.58649 0.9945 0.52869 0.0
C1158 C 0.59285 0.98991 0.5118 0.0
C1159 C 0.59342 0.97592 0.51266 0.0
C1160 C 0.59952 0.97174 0.49671 0.0
C1161 C 0.60498 0.98139 0.47975 0.0
C1162 C 0.60432 0.99523 0.47868 0.0
C1163 C 0.59825 0.99948 0.4946 0.0
H1164 H 0.60969 0.97813 0.46741 0.0
H1165 H 0.5533 0.02386 0.61998 0.0
H1166 H 0.04673 0.60011 0.50948 0.0
H1167 H 0.05331 0.62701 0.5153 0.0
H1168 H 0.07443 0.62621 0.5718 0.0
H1169 H 0.06712 0.59885 0.56645 0.0
H1170 H 0.05705 0.63798 0.57739 0.0
H1171 H 0.09645 0.64933 0.52909 0.0
H1172 H 0.10747 0.6467 0.49755 0.0
H1173 H 0.07792 0.65965 0.46445 0.0
H1174 H 0.06658 0.66219 0.49578 0.0
H1175 H 0.07758 0.71843 0.5891 0.0
H1176 H 0.08114 0.69573 0.58427 0.0
H1177 H 0.05199 0.68347 0.5316 0.0
H1178 H 0.04837 0.70594 0.53628 0.0
H1179 H 0.07824 0.68051 0.52625 0.0
H1180 H 0.03674 0.66532 0.57506 0.0
H1181 H 0.02593 0.6679 0.60682 0.0
H1182 H 0.06093 0.66256 0.63929 0.0
H1183 H 0.07207 0.66015 0.60767 0.0
C1184 C 0.05305 0.60572 0.523 0.0
C1185 C 0.0564 0.5973 0.5375 0.0
C1186 C 0.0569 0.62121 0.52628 0.0
C1187 C 0.06461 0.62886 0.54389 0.0
C1188 C 0.0685 0.62064 0.55808 0.0
C1189 C 0.06438 0.60501 0.55497 0.0
C1190 C 0.06735 0.64488 0.54813 0.0
C1191 C 0.06207 0.64737 0.56635 0.0
C1192 C 0.07368 0.6572 0.53371 0.0
C1193 C 0.0806 0.65587 0.51481 0.0
C1194 C 0.09224 0.65155 0.51509 0.0
C1195 C 0.09856 0.65008 0.49724 0.0
C1196 C 0.09338 0.65298 0.47901 0.0
C1197 C 0.08192 0.65741 0.47859 0.0
C1198 C 0.07557 0.6589 0.49639 0.0
C1199 C 0.07205 0.71097 0.5764 0.0
C1200 C 0.06259 0.71395 0.56317 0.0
C1201 C 0.07406 0.69799 0.57368 0.0
C1202 C 0.06675 0.68785 0.55762 0.0
C1203 C 0.05777 0.69113 0.54407 0.0
C1204 C 0.05564 0.70396 0.54686 0.0
C1205 C 0.06769 0.67335 0.55525 0.0
C1206 C 0.0736 0.67117 0.53739 0.0
C1207 C 0.06209 0.66137 0.57004 0.0
C1208 C 0.05535 0.66275 0.58902 0.0
C1209 C 0.04221 0.66482 0.58897 0.0
C1210 C 0.03601 0.66623 0.60694 0.0
C1211 C 0.04277 0.66544 0.62506 0.0
C1212 C 0.05572 0.6632 0.62524 0.0
C1213 C 0.06198 0.66181 0.60731 0.0
H1214 H 0.03795 0.66653 0.63896 0.0
H1215 H 0.09827 0.65182 0.46521 0.0
H1216 H 0.46317 0.52326 0.54516 0.0
H1217 H 0.4346 0.50619 0.54763 0.0
H1218 H 0.43958 0.46596 0.53615 0.0
H1219 H 0.46813 0.48294 0.53399 0.0
H1220 H 0.415 0.46896 0.51299 0.0
H1221 H 0.43535 0.47124 0.58087 0.0
H1222 H 0.44971 0.48551 0.61093 0.0
H1223 H 0.41924 0.50478 0.61611 0.0
H1224 H 0.40484 0.49078 0.58589 0.0
H1225 H 0.3529 0.39811 0.54458 0.0
H1226 H 0.37709 0.42202 0.53676 0.0
H1227 H 0.36071 0.44903 0.56795 0.0
H1228 H 0.3364 0.42486 0.57644 0.0
H1229 H 0.38915 0.45776 0.57904 0.0
H1230 H 0.36526 0.45189 0.51633 0.0
H1231 H 0.35047 0.4389 0.48592 0.0
H1232 H 0.38638 0.42863 0.46949 0.0
H1233 H 0.40129 0.44132 0.49996 0.0
C1234 C 0.45811 0.51078 0.54311 0.0
C1235 C 0.46777 0.50434 0.53951 0.0
C1236 C 0.44186 0.50109 0.54453 0.0
C1237 C 0.43508 0.48489 0.54203 0.0
C1238 C 0.44467 0.47848 0.53806 0.0
C1239 C 0.46092 0.48812 0.53702 0.0
C1240 C 0.41802 0.4744 0.54419 0.0
C1241 C 0.40927 0.46642 0.52738 0.0
C1242 C 0.41053 0.47179 0.56282 0.0
C1243 C 0.41917 0.48015 0.58099 0.0
C1244 C 0.43182 0.47865 0.5883 0.0
C1245 C 0.43994 0.48666 0.60539 0.0
C1246 C 0.43543 0.4961 0.61538 0.0
C1247 C 0.42275 0.4975 0.60833 0.0
C1248 C 0.4146 0.48953 0.59123 0.0
C1249 C 0.35428 0.40912 0.54962 0.0
C1250 C 0.3427 0.40954 0.5612 0.0
C1251 C 0.36812 0.42285 0.54496 0.0
C1252 C 0.37064 0.43739 0.55146 0.0
C1253 C 0.35898 0.43794 0.56268 0.0
C1254 C 0.3451 0.42413 0.56751 0.0
C1255 C 0.38608 0.45164 0.54793 0.0
C1256 C 0.39462 0.46045 0.56447 0.0
C1257 C 0.39329 0.45523 0.52893 0.0
C1258 C 0.38437 0.44751 0.51053 0.0
C1259 C 0.36996 0.44676 0.50632 0.0
C1260 C 0.36156 0.43946 0.48905 0.0
C1261 C 0.36747 0.43293 0.47579 0.0
C1262 C 0.38182 0.4337 0.47977 0.0
C1263 C 0.39026 0.44097 0.49703 0.0
H1264 H 0.36095 0.42729 0.46242 0.0
H1265 H 0.44172 0.50228 0.62862 0.0
H1266 H 0.73428 0.85718 0.3332 0.0
H1267 H 0.73719 0.83434 0.34063 0.0
H1268 H 0.75928 0.85466 0.3968 0.0
H1269 H 0.75685 0.87777 0.38898 0.0
H1270 H 0.77298 0.84034 0.38111 0.0
H1271 H 0.71914 0.82676 0.39264 0.0
H1272 H 0.69367 0.82413 0.38294 0.0
H1273 H 0.68881 0.79278 0.33619 0.0
H1274 H 0.71435 0.79537 0.34549 0.0
H1275 H 0.75621 0.77401 0.43992 0.0
H1276 H 0.75646 0.79696 0.42529 0.0
H1277 H 0.74018 0.77315 0.36928 0.0
H1278 H 0.7399 0.74998 0.38381 0.0
H1279 H 0.72417 0.7885 0.38125 0.0
H1280 H 0.77702 0.80009 0.37251 0.0
H1281 H 0.80242 0.80283 0.38273 0.0
H1282 H 0.80901 0.83789 0.42494 0.0
H1283 H 0.78352 0.8352 0.41518 0.0
C1284 C 0.73987 0.85677 0.34703 0.0
C1285 C 0.74519 0.86908 0.36065 0.0
C1286 C 0.7415 0.84374 0.3513 0.0
C1287 C 0.7481 0.84262 0.3695 0.0
C1288 C 0.75408 0.85525 0.3827 0.0
C1289 C 0.75271 0.86843 0.37826 0.0
C1290 C 0.74811 0.82802 0.37523 0.0
C1291 C 0.76229 0.82903 0.3813 0.0
C1292 C 0.73421 0.81318 0.37497 0.0
C1293 C 0.71871 0.81137 0.36964 0.0
C1294 C 0.71267 0.81936 0.38024 0.0
C1295 C 0.69822 0.81788 0.37482 0.0
C1296 C 0.68965 0.80833 0.35892 0.0
C1297 C 0.69547 0.80019 0.34848 0.0
C1298 C 0.70992 0.80164 0.35383 0.0
C1299 C 0.75263 0.77358 0.4245 0.0
C1300 C 0.74806 0.76015 0.41301 0.0
C1301 C 0.75287 0.78676 0.41614 0.0
C1302 C 0.74853 0.78679 0.39616 0.0
C1303 C 0.74364 0.77334 0.38472 0.0
C1304 C 0.74351 0.76014 0.39303 0.0
C1305 C 0.74897 0.8009 0.38745 0.0
C1306 C 0.73488 0.79979 0.38085 0.0
C1307 C 0.76292 0.81565 0.38733 0.0
C1308 C 0.77829 0.81735 0.39321 0.0
C1309 C 0.78382 0.8083 0.38409 0.0
C1310 C 0.79825 0.80986 0.38978 0.0
C1311 C 0.80731 0.82051 0.40451 0.0
C1312 C 0.80197 0.82964 0.41354 0.0
C1313 C 0.78754 0.82811 0.40792 0.0
H1314 H 0.81848 0.8217 0.40889 0.0
H1315 H 0.67848 0.80722 0.35472 0.0
H1316 H 0.2631 0.93688 0.37968 0.0
H1317 H 0.28094 0.96402 0.38918 0.0
H1318 H 0.24143 0.96852 0.40723 0.0
H1319 H 0.22357 0.94155 0.39698 0.0
H1320 H 0.26012 0.99354 0.38893 0.0
H1321 H 0.26784 0.96517 0.44157 0.0
H1322 H 0.27316 0.94555 0.45755 0.0
H1323 H 0.31882 0.96758 0.43081 0.0
H1324 H 0.3137 0.98722 0.41443 0.0
H1325 H 0.31305 0.06646 0.43964 0.0
H1326 H 0.29311 0.03865 0.4356 0.0
H1327 H 0.3238 0.0329 0.39569 0.0
H1328 H 0.34344 0.06057 0.39912 0.0
H1329 H 0.30839 0.00875 0.42868 0.0
H1330 H 0.29804 0.03588 0.37409 0.0
H1331 H 0.29195 0.0557 0.36051 0.0
H1332 H 0.24979 0.03568 0.39527 0.0
H1333 H 0.25577 0.01588 0.40927 0.0
C1334 C 0.25826 0.94364 0.38582 0.0
C1335 C 0.24194 0.93708 0.38761 0.0
C1336 C 0.26846 0.95916 0.39135 0.0
C1337 C 0.26263 0.96837 0.39931 0.0
C1338 C 0.2463 0.96176 0.40115 0.0
C1339 C 0.23608 0.94633 0.39528 0.0
C1340 C 0.27351 0.98498 0.40511 0.0
C1341 C 0.2705 0.99675 0.39794 0.0
C1342 C 0.28717 0.98939 0.41682 0.0
C1343 C 0.29032 0.97759 0.42663 0.0
C1344 C 0.27897 0.96577 0.43897 0.0
C1345 C 0.28196 0.95465 0.44812 0.0
C1346 C 0.29631 0.9553 0.44516 0.0
C1347 C 0.30771 0.96709 0.43307 0.0
C1348 C 0.30477 0.97823 0.42387 0.0
C1349 C 0.31552 0.05924 0.43005 0.0
C1350 C 0.32977 0.06573 0.41961 0.0
C1351 C 0.30414 0.04339 0.42775 0.0
C1352 C 0.30701 0.03375 0.41534 0.0
C1353 C 0.32137 0.04013 0.40534 0.0
C1354 C 0.33254 0.05598 0.40725 0.0
C1355 C 0.29501 0.01707 0.41226 0.0
C1356 C 0.29786 0.00537 0.41991 0.0
C1357 C 0.28106 0.01269 0.40139 0.0
C1358 C 0.27746 0.02455 0.39292 0.0
C1359 C 0.28756 0.03581 0.37899 0.0
C1360 C 0.28411 0.04702 0.37118 0.0
C1361 C 0.27052 0.04699 0.37708 0.0
C1362 C 0.26033 0.03572 0.39075 0.0
C1363 C 0.26374 0.0245 0.39862 0.0
H1364 H 0.26787 0.05566 0.37101 0.0
H1365 H 0.2986 0.94668 0.45227 0.0
H1366 H 0.14334 0.36113 0.3912 0.0
H1367 H 0.1159 0.35002 0.40162 0.0
H1368 H 0.10775 0.37371 0.35205 0.0
H1369 H 0.13517 0.38536 0.3424 0.0
H1370 H 0.09788 0.37986 0.38306 0.0
H1371 H 0.09085 0.33207 0.35635 0.0
H1372 H 0.09615 0.31036 0.35181 0.0
H1373 H 0.08657 0.29762 0.41372 0.0
H1374 H 0.08142 0.31939 0.41871 0.0
H1375 H 0.0165 0.34796 0.40075 0.0
H1376 H 0.04023 0.35163 0.38423 0.0
H1377 H 0.0541 0.33728 0.43824 0.0
H1378 H 0.03056 0.33364 0.45483 0.0
H1379 H 0.05988 0.32521 0.40346 0.0
H1380 H 0.06901 0.3747 0.42961 0.0
H1381 H 0.06317 0.39614 0.4333 0.0
H1382 H 0.06831 0.40511 0.37017 0.0
H1383 H 0.07397 0.38356 0.36609 0.0
C1384 C 0.13554 0.36366 0.38239 0.0
C1385 C 0.14131 0.37416 0.36613 0.0
C1386 C 0.11986 0.35728 0.38827 0.0
C1387 C 0.10967 0.36101 0.37763 0.0
C1388 C 0.11534 0.37076 0.36065 0.0
C1389 C 0.131 0.37738 0.35511 0.0
C1390 C 0.09365 0.35615 0.38508 0.0
C1391 C 0.0895 0.36781 0.3871 0.0
C1392 C 0.08275 0.34054 0.39087 0.0
C1393 C 0.0859 0.32746 0.38794 0.0
C1394 C 0.09 0.32472 0.36904 0.0
C1395 C 0.09296 0.31238 0.36637 0.0
C1396 C 0.09174 0.30264 0.38247 0.0
C1397 C 0.08753 0.30519 0.40127 0.0
C1398 C 0.08458 0.31751 0.40401 0.0
C1399 C 0.0245 0.3454 0.40902 0.0
C1400 C 0.02172 0.34068 0.42917 0.0
C1401 C 0.03805 0.34751 0.39957 0.0
C1402 C 0.04896 0.34482 0.41008 0.0
C1403 C 0.04583 0.33939 0.42986 0.0
C1404 C 0.03241 0.33744 0.43936 0.0
C1405 C 0.06425 0.34888 0.40111 0.0
C1406 C 0.06826 0.33715 0.39904 0.0
C1407 C 0.07502 0.3644 0.39505 0.0
C1408 C 0.07174 0.37742 0.39752 0.0
C1409 C 0.06877 0.38117 0.4165 0.0
C1410 C 0.06551 0.39335 0.41867 0.0
C1411 C 0.06532 0.40195 0.40197 0.0
C1412 C 0.06843 0.39842 0.38308 0.0
C1413 C 0.07167 0.38623 0.38084 0.0
H1414 H 0.0628 0.41138 0.40368 0.0
H1415 H 0.09403 0.29309 0.38038 0.0
H1416 H 0.12146 0.34614 0.86143 0.0
H1417 H 0.10366 0.35508 0.84945 0.0
H1418 H 0.1363 0.38195 0.80267 0.0
H1419 H 0.15452 0.37366 0.81535 0.0
H1420 H 0.12481 0.39819 0.81517 0.0
H1421 H 0.10089 0.34457 0.79552 0.0
H1422 H 0.0901 0.31611 0.80005 0.0
H1423 H 0.05556 0.314 0.84043 0.0
H1424 H 0.06628 0.3425 0.83633 0.0
H1425 H 0.07042 0.40301 0.74792 0.0
H1426 H 0.08835 0.3959 0.76437 0.0
H1427 H 0.06008 0.38245 0.81745 0.0
H1428 H 0.04213 0.38987 0.80115 0.0
H1429 H 0.06863 0.35971 0.80334 0.0
H1430 H 0.09267 0.41425 0.81982 0.0
H1431 H 0.10355 0.44241 0.8125 0.0
H1432 H 0.13811 0.44215 0.77431 0.0
H1433 H 0.12729 0.41392 0.78118 0.0
C1434 C 0.12484 0.35395 0.84857 0.0
C1435 C 0.13936 0.35907 0.83922 0.0
C1436 C 0.11459 0.35901 0.84163 0.0
C1437 C 0.11835 0.36893 0.82477 0.0
C1438 C 0.133 0.37426 0.81564 0.0
C1439 C 0.14342 0.36948 0.82286 0.0
C1440 C 0.10708 0.37376 0.81667 0.0
C1441 C 0.11258 0.3897 0.8124 0.0
C1442 C 0.09097 0.36282 0.8133 0.0
C1443 C 0.08449 0.34569 0.81578 0.0
C1444 C 0.09106 0.33806 0.80548 0.0
C1445 C 0.08495 0.32192 0.80795 0.0
C1446 C 0.07218 0.31326 0.82056 0.0
C1447 C 0.06547 0.32072 0.83069 0.0
C1448 C 0.07155 0.33687 0.82829 0.0
C1449 C 0.068 0.39861 0.76313 0.0
C1450 C 0.0548 0.39702 0.7732 0.0
C1451 C 0.07831 0.39458 0.77254 0.0
C1452 C 0.0756 0.38868 0.79216 0.0
C1453 C 0.06241 0.387 0.8023 0.0
C1454 C 0.0522 0.3913 0.79299 0.0
C1455 C 0.08645 0.38403 0.8018 0.0
C1456 C 0.08086 0.36814 0.80628 0.0
C1457 C 0.10252 0.39495 0.80498 0.0
C1458 C 0.10907 0.41193 0.80087 0.0
C1459 C 0.1025 0.42016 0.80972 0.0
C1460 C 0.10868 0.43615 0.80569 0.0
C1461 C 0.12149 0.44406 0.79291 0.0
C1462 C 0.12817 0.43601 0.78419 0.0
C1463 C 0.12204 0.42002 0.78816 0.0
H1464 H 0.12625 0.45643 0.78981 0.0
H1465 H 0.06747 0.30077 0.82245 0.0
H1466 H 0.72063 0.8478 0.77695 0.0
H1467 H 0.71231 0.82059 0.76856 0.0
H1468 H 0.70025 0.80675 0.83007 0.0
H1469 H 0.70846 0.8339 0.83848 0.0
H1470 H 0.71733 0.7938 0.81146 0.0
H1471 H 0.67209 0.80022 0.79975 0.0
H1472 H 0.65829 0.81291 0.78437 0.0
H1473 H 0.6678 0.8024 0.72609 0.0
H1474 H 0.68187 0.78984 0.74114 0.0
H1475 H 0.66881 0.71252 0.81068 0.0
H1476 H 0.67976 0.74059 0.81456 0.0
H1477 H 0.68033 0.74664 0.75064 0.0
H1478 H 0.66882 0.71826 0.74664 0.0
H1479 H 0.67109 0.76451 0.76733 0.0
H1480 H 0.71446 0.75652 0.77771 0.0
H1481 H 0.72913 0.74433 0.79185 0.0
H1482 H 0.7248 0.75845 0.85052 0.0
H1483 H 0.7099 0.77054 0.83677 0.0
C1484 C 0.71641 0.83899 0.78871 0.0
C1485 C 0.71517 0.84295 0.80838 0.0
C1486 C 0.71157 0.82345 0.78388 0.0
C1487 C 0.70558 0.81166 0.79868 0.0
C1488 C 0.70482 0.81568 0.81843 0.0
C1489 C 0.70944 0.83115 0.82321 0.0
C1490 C 0.69966 0.79504 0.79357 0.0
C1491 C 0.70715 0.78733 0.80195 0.0
C1492 C 0.68672 0.7868 0.78059 0.0
C1493 C 0.67819 0.79426 0.77156 0.0
C1494 C 0.67137 0.80074 0.78365 0.0
C1495 C 0.66347 0.80789 0.775 0.0
C1496 C 0.66221 0.80851 0.75427 0.0
C1497 C 0.66881 0.80194 0.74215 0.0
C1498 C 0.67674 0.7948 0.75073 0.0
C1499 C 0.67125 0.71978 0.7974 0.0
C1500 C 0.66805 0.71313 0.77833 0.0
C1501 C 0.67761 0.73589 0.79965 0.0
C1502 C 0.68125 0.74584 0.78289 0.0
C1503 C 0.67774 0.73923 0.76381 0.0
C1504 C 0.67116 0.72301 0.76153 0.0
C1505 C 0.68857 0.76308 0.78552 0.0
C1506 C 0.68137 0.77094 0.77668 0.0
C1507 C 0.70194 0.77154 0.79786 0.0
C1508 C 0.71095 0.76434 0.80621 0.0
C1509 C 0.71654 0.75693 0.79365 0.0
C1510 C 0.72491 0.75005 0.80159 0.0
C1511 C 0.72787 0.75058 0.82208 0.0
C1512 C 0.72249 0.75803 0.83465 0.0
C1513 C 0.7141 0.76492 0.82679 0.0
H1514 H 0.73435 0.74525 0.8282 0.0
H1515 H 0.65609 0.81404 0.7476 0.0
H1516 H 0.21254 0.90547 0.81279 0.0
H1517 H 0.23842 0.92031 0.79726 0.0
H1518 H 0.24298 0.9633 0.81921 0.0
H1519 H 0.21713 0.94867 0.83444 0.0
H1520 H 0.25254 0.96686 0.78137 0.0
H1521 H 0.26078 0.94496 0.84261 0.0
H1522 H 0.25644 0.9235 0.86589 0.0
H1523 H 0.2713 0.90315 0.82111 0.0
H1524 H 0.27554 0.92441 0.79747 0.0
H1525 H 0.33126 0.02093 0.79933 0.0
H1526 H 0.30352 1.00118 0.80016 0.0
H1527 H 0.31273 0.9703 0.76531 0.0
H1528 H 0.34076 0.99032 0.76413 0.0
H1529 H 0.29551 0.95698 0.80187 0.0
H1530 H 0.29245 0.98311 0.74323 0.0
H1531 H 0.29761 0.00573 0.72171 0.0
H1532 H 0.27368 0.01922 0.76307 0.0
H1533 H 0.26858 0.99682 0.78501 0.0
C1534 C 0.21906 0.91809 0.81428 0.0
C1535 C 0.21281 0.9259 0.82491 0.0
C1536 C 0.23384 0.92654 0.80541 0.0
C1537 C 0.24266 0.9429 0.80717 0.0
C1538 C 0.23635 0.95069 0.81759 0.0
C1539 C 0.22159 0.94229 0.82638 0.0
C1540 C 0.25864 0.95204 0.79869 0.0
C1541 C 0.26194 0.96471 0.78584 0.0
C1542 C 0.27079 0.9489 0.80401 0.0
C1543 C 0.26827 0.93614 0.8182 0.0
C1544 C 0.26299 0.93583 0.83768 0.0
C1545 C 0.26057 0.92372 0.85095 0.0
C1546 C 0.26354 0.91193 0.84496 0.0
C1547 C 0.26897 0.91226 0.82571 0.0
C1548 C 0.27138 0.92434 0.81237 0.0
C1549 C 0.32739 0.01002 0.79162 0.0
C1550 C 0.33816 0.00713 0.78172 0.0
C1551 C 0.31152 0.99878 0.79202 0.0
C1552 C 0.3061 0.98434 0.78271 0.0
C1553 C 0.31673 0.98144 0.77249 0.0
C1554 C 0.33267 0.99287 0.77177 0.0
C1555 C 0.28947 0.9721 0.78514 0.0
C1556 C 0.28603 0.95886 0.79691 0.0
C1557 C 0.27721 0.97481 0.779 0.0
C1558 C 0.28019 0.98829 0.76582 0.0
C1559 C 0.28838 0.99095 0.74782 0.0
C1560 C 0.29128 0.00373 0.73553 0.0
C1561 C 0.28599 0.01391 0.74103 0.0
C1562 C 0.27777 0.01132 0.75882 0.0
C1563 C 0.27484 0.99856 0.77118 0.0
H1564 H 0.28825 0.0238 0.73149 0.0
H1565 H 0.26167 0.90257 0.85525 0.0
H1566 H 0.7062 0.94589 0.34022 0.0
H1567 H 0.69616 0.96377 0.33378 0.0
H1568 H 0.7171 0.97429 0.2753 0.0
H1569 H 0.72747 0.95653 0.28198 0.0
H1570 H 0.71962 1.00012 0.29188 0.0
H1571 H 0.67855 0.94765 0.28059 0.0
H1572 H 0.66148 0.91961 0.28877 0.0
H1573 H 0.64336 0.93157 0.33927 0.0
H1574 H 0.66049 0.95969 0.33155 0.0
H1575 H 0.64724 0.00976 0.26641 0.0
H1576 H 0.65936 0.99335 0.26964 0.0
H1577 H 0.69133 0.02449 0.31402 0.0
H1578 H 0.67943 0.04106 0.31071 0.0
H1579 H 0.66216 0.97726 0.3001 0.0
H1580 H 0.72694 0.02724 0.3083 0.0
H1581 H 0.74371 0.05466 0.29706 0.0
H1582 H 0.71354 0.04658 0.24647 0.0
H1583 H 0.69673 0.01908 0.25724 0.0
C1584 C 0.70871 0.95208 0.32604 0.0
C1585 C 0.71736 0.94969 0.31144 0.0
C1586 C 0.703 0.96229 0.32238 0.0
C1587 C 0.70558 0.97006 0.30388 0.0
C1588 C 0.71491 0.96832 0.28963 0.0
C1589 C 0.72082 0.95822 0.29342 0.0
C1590 C 0.69783 0.97933 0.29924 0.0
C1591 C 0.70707 0.99514 0.29364 0.0
C1592 C 0.68138 0.97269 0.30104 0.0
C1593 C 0.67088 0.95578 0.30556 0.0
C1594 C 0.67098 0.9443 0.2935 0.0
C1595 C 0.6613 0.92839 0.29805 0.0
C1596 C 0.65136 0.92382 0.31454 0.0
C1597 C 0.65107 0.93514 0.3265 0.0
C1598 C 0.66075 0.95106 0.32203 0.0
C1599 C 0.65679 0.01306 0.27695 0.0
C1600 C 0.66244 0.02673 0.28824 0.0
C1601 C 0.6637 0.00368 0.27876 0.0
C1602 C 0.67639 0.00786 0.29183 0.0
C1603 C 0.68174 0.02124 0.30356 0.0
C1604 C 0.67486 0.03063 0.30175 0.0
C1605 C 0.68399 0.99817 0.2933 0.0
C1606 C 0.67471 0.98225 0.29827 0.0
C1607 C 0.70032 0.00464 0.29043 0.0
C1608 C 0.7105 0.02113 0.28369 0.0
C1609 C 0.72393 0.0313 0.29473 0.0
C1610 C 0.73343 0.04686 0.28845 0.0
C1611 C 0.72968 0.05236 0.27108 0.0
C1612 C 0.71642 0.04231 0.25995 0.0
C1613 C 0.70688 0.02674 0.26615 0.0
H1614 H 0.73707 0.06439 0.26622 0.0
H1615 H 0.64388 0.9115 0.31805 0.0
H1616 H 0.17418 0.82721 0.30416 0.0
H1617 H 0.15215 0.80219 0.29357 0.0
H1618 H 0.12386 0.8041 0.34081 0.0
H1619 H 0.14599 0.82878 0.35197 0.0
H1620 H 0.11922 0.77542 0.33826 0.0
H1621 H 0.12029 0.81358 0.29151 0.0
H1622 H 0.13214 0.83487 0.26637 0.0
H1623 H 0.14029 0.80523 0.22806 0.0
H1624 H 0.12866 0.78381 0.25311 0.0
H1625 H 0.04224 0.7247 0.30538 0.0
H1626 H 0.06707 0.74776 0.3139 0.0
H1627 H 0.09043 0.73657 0.26856 0.0
H1628 H 0.06542 0.71322 0.25984 0.0
H1629 H 0.09909 0.76861 0.26879 0.0
H1630 H 0.09568 0.72963 0.31523 0.0
H1631 H 0.08305 0.70854 0.34049 0.0
H1632 H 0.0786 0.74011 0.3796 0.0
H1633 H 0.091 0.76134 0.35445 0.0
C1634 C 0.16336 0.82226 0.31249 0.0
C1635 C 0.16192 0.83016 0.32891 0.0
C1636 C 0.15068 0.80798 0.30625 0.0
C1637 C 0.13622 0.80132 0.31618 0.0
C1638 C 0.13485 0.809 0.33282 0.0
C1639 C 0.14751 0.82323 0.33909 0.0
C1640 C 0.12245 0.7864 0.30929 0.0
C1641 C 0.11476 0.77402 0.3231 0.0
C1642 C 0.11681 0.78432 0.28937 0.0
C1643 C 0.12378 0.79716 0.27428 0.0
C1644 C 0.12472 0.81165 0.2778 0.0
C1645 C 0.13138 0.82373 0.26355 0.0
C1646 C 0.13701 0.82142 0.24565 0.0
C1647 C 0.13595 0.80701 0.24194 0.0
C1648 C 0.12932 0.79489 0.25616 0.0
C1649 C 0.05261 0.72707 0.29713 0.0
C1650 C 0.05178 0.71701 0.28192 0.0
C1651 C 0.06684 0.74028 0.30211 0.0
C1652 C 0.08066 0.74383 0.29204 0.0
C1653 C 0.07992 0.73403 0.27658 0.0
C1654 C 0.06562 0.72066 0.27166 0.0
C1655 C 0.09577 0.75781 0.29785 0.0
C1656 C 0.10368 0.76999 0.28387 0.0
C1657 C 0.10157 0.75977 0.31765 0.0
C1658 C 0.09417 0.74705 0.33287 0.0
C1659 C 0.0919 0.73204 0.32915 0.0
C1660 C 0.0848 0.72007 0.34346 0.0
C1661 C 0.07999 0.72297 0.36162 0.0
C1662 C 0.08232 0.73787 0.36553 0.0
C1663 C 0.0894 0.74989 0.35125 0.0
H1664 H 0.0745 0.71369 0.37269 0.0
H1665 H 0.14215 0.83079 0.23464 0.0
H1666 H 0.22009 0.37159 0.35808 0.0
H1667 H 0.24405 0.36973 0.35563 0.0
H1668 H 0.25344 0.3926 0.29785 0.0
H1669 H 0.22964 0.39415 0.30008 0.0
H1670 H 0.26219 0.37129 0.29817 0.0
H1671 H 0.26737 0.41241 0.34308 0.0
H1672 H 0.26098 0.42174 0.37353 0.0
H1673 H 0.27512 0.39447 0.40969 0.0
H1674 H 0.2812 0.38466 0.37943 0.0
H1675 H 0.34095 0.42382 0.27994 0.0
H1676 H 0.31325 0.41127 0.28869 0.0
H1677 H 0.3216 0.38969 0.34034 0.0
H1678 H 0.34953 0.40224 0.3316 0.0
H1679 H 0.3028 0.40298 0.34837 0.0
H1680 H 0.30331 0.36695 0.30284 0.0
H1681 H 0.31028 0.35852 0.27211 0.0
H1682 H 0.286 0.37669 0.23695 0.0
H1683 H 0.27908 0.38546 0.26744 0.0
C1684 C 0.22705 0.37575 0.34464 0.0
C1685 C 0.2231 0.38315 0.32935 0.0
C1686 C 0.24079 0.3748 0.34331 0.0
C1687 C 0.25071 0.38128 0.32669 0.0
C1688 C 0.24605 0.38755 0.31084 0.0
C1689 C 0.23244 0.3885 0.31217 0.0
C1690 C 0.26669 0.38318 0.32617 0.0
C1691 C 0.27105 0.37814 0.30921 0.0
C1692 C 0.27819 0.39171 0.34087 0.0
C1693 C 0.27454 0.39764 0.359 0.0
C1694 C 0.26898 0.40829 0.35752 0.0
C1695 C 0.2654 0.41365 0.37474 0.0
C1696 C 0.26759 0.40865 0.39352 0.0
C1697 C 0.27337 0.39829 0.39513 0.0
C1698 C 0.27685 0.39279 0.37795 0.0
C1699 C 0.33694 0.41642 0.29318 0.0
C1700 C 0.34744 0.41399 0.30504 0.0
C1701 C 0.32107 0.40919 0.29811 0.0
C1702 C 0.31532 0.39937 0.31502 0.0
C1703 C 0.32579 0.39714 0.32716 0.0
C1704 C 0.34172 0.40431 0.32213 0.0
C1705 C 0.29837 0.39176 0.31988 0.0
C1706 C 0.29386 0.39572 0.33764 0.0
C1707 C 0.28672 0.38229 0.30588 0.0
C1708 C 0.29073 0.37692 0.28746 0.0
C1709 C 0.29953 0.36924 0.28855 0.0
C1710 C 0.30347 0.36439 0.27117 0.0
C1711 C 0.2986 0.36708 0.25259 0.0
C1712 C 0.28976 0.37461 0.25135 0.0
C1713 C 0.2858 0.37949 0.26869 0.0
H1714 H 0.30166 0.36332 0.23915 0.0
H1715 H 0.26491 0.41288 0.40682 0.0
H1716 H 0.18623 0.32134 0.88798 0.0
H1717 H 0.21165 0.32605 0.90061 0.0
H1718 H 0.2329 0.34738 0.84418 0.0
H1719 H 0.20722 0.34174 0.83131 0.0
H1720 H 0.24153 0.32777 0.8536 0.0
H1721 H 0.24123 0.36853 0.88978 0.0
H1722 H 0.23078 0.38103 0.91155 0.0
H1723 H 0.22738 0.35035 0.95994 0.0
H1724 H 0.23763 0.33751 0.93839 0.0
H1725 H 0.31805 0.34754 0.8892 0.0
H1726 H 0.29567 0.34993 0.8773 0.0
H1727 H 0.26824 0.32186 0.92723 0.0
H1728 H 0.29057 0.31943 0.93923 0.0
H1729 H 0.26445 0.3476 0.92033 0.0
H1730 H 0.26326 0.30595 0.88166 0.0
H1731 H 0.27422 0.29443 0.85904 0.0
H1732 H 0.2814 0.32901 0.81415 0.0
H1733 H 0.27067 0.34087 0.83663 0.0
C1734 C 0.19646 0.3275 0.87856 0.0
C1735 C 0.19491 0.33182 0.85897 0.0
C1736 C 0.21103 0.33022 0.88577 0.0
C1737 C 0.22441 0.33732 0.87352 0.0
C1738 C 0.22288 0.34202 0.85406 0.0
C1739 C 0.20825 0.33911 0.8468 0.0
C1740 C 0.2395 0.33844 0.88035 0.0
C1741 C 0.24667 0.33244 0.86804 0.0
C1742 C 0.24621 0.34424 0.89933 0.0
C1743 C 0.24011 0.35198 0.91241 0.0
C1744 C 0.23817 0.36438 0.90503 0.0
C1745 C 0.23231 0.37155 0.91734 0.0
C1746 C 0.22842 0.36649 0.93711 0.0
C1747 C 0.23041 0.35426 0.94462 0.0
C1748 C 0.23627 0.34705 0.93237 0.0
C1749 C 0.30727 0.34189 0.89768 0.0
C1750 C 0.30611 0.33322 0.91514 0.0
C1751 C 0.29445 0.34324 0.89083 0.0
C1752 C 0.28018 0.33599 0.90127 0.0
C1753 C 0.2791 0.32758 0.9189 0.0
C1754 C 0.29187 0.32613 0.92569 0.0
C1755 C 0.26627 0.33682 0.89364 0.0
C1756 C 0.25933 0.34314 0.90581 0.0
C1757 C 0.25989 0.33153 0.87441 0.0
C1758 C 0.26633 0.3244 0.86091 0.0
C1759 C 0.2673 0.31118 0.86703 0.0
C1760 C 0.27345 0.30457 0.85422 0.0
C1761 C 0.27855 0.31101 0.83519 0.0
C1762 C 0.27747 0.32405 0.82891 0.0
C1763 C 0.27135 0.33072 0.84167 0.0
H1764 H 0.28329 0.30588 0.8253 0.0
H1765 H 0.22386 0.37204 0.94661 0.0
H1766 H 0.71587 0.94573 0.84504 0.0
H1767 H 0.71681 0.96918 0.85776 0.0
H1768 H 0.74939 0.97239 0.90364 0.0
H1769 H 0.74805 0.94848 0.89138 0.0
H1770 H 0.72721 0.97714 0.91897 0.0
H1771 H 0.76197 0.9981 0.86415 0.0
H1772 H 0.77109 0.99987 0.82964 0.0
H1773 H 0.73341 0.00633 0.80798 0.0
H1774 H 0.72392 0.00437 0.84235 0.0
H1775 H 0.73563 0.05284 0.94254 0.0
H1776 H 0.74213 0.03267 0.9335 0.0
H1777 H 0.70735 0.01704 0.88665 0.0
H1778 H 0.70075 0.03687 0.8955 0.0
H1779 H 0.73591 0.02125 0.87392 0.0
H1780 H 0.69967 0.99663 0.92913 0.0
H1781 H 0.69099 0.99488 0.96388 0.0
H1782 H 0.73299 0.99612 0.98502 0.0
H1783 H 0.74201 0.99808 0.95037 0.0
C1784 C 0.72319 0.95134 0.85789 0.0
C1785 C 0.73184 0.94514 0.86719 0.0
C1786 C 0.72386 0.96489 0.86503 0.0
C1787 C 0.73333 0.9727 0.88152 0.0
C1788 C 0.74206 0.96661 0.89084 0.0
C1789 C 0.74137 0.953 0.88369 0.0
C1790 C 0.73361 0.9869 0.88926 0.0
C1791 C 0.72946 0.98695 0.90922 0.0
C1792 C 0.73646 0.99969 0.87657 0.0
C1793 C 0.74218 1.00099 0.85585 0.0
C1794 C 0.75556 0.99979 0.85202 0.0
C1795 C 0.76081 1.00085 0.83249 0.0
C1796 C 0.75282 0.00318 0.81663 0.0
C1797 C 0.73959 0.00451 0.82028 0.0
C1798 C 0.73428 0.00346 0.8398 0.0
C1799 C 0.72933 0.04505 0.93038 0.0
C1800 C 0.71765 0.0465 0.91979 0.0
C1801 C 0.73305 0.03354 0.92524 0.0
C1802 C 0.72524 0.02338 0.90937 0.0
C1803 C 0.71359 0.0248 0.89887 0.0
C1804 C 0.70978 0.03613 0.90406 0.0
C1805 C 0.72901 0.0112 0.90337 0.0
C1806 C 0.73397 0.01157 0.88374 0.0
C1807 C 0.72704 0.99889 0.9164 0.0
C1808 C 0.72161 0.9977 0.93719 0.0
C1809 C 0.70712 0.99667 0.9412 0.0
C1810 C 0.70213 0.99561 0.96087 0.0
C1811 C 0.71146 0.99545 0.97665 0.0
C1812 C 0.72579 0.99629 0.97278 0.0
C1813 C 0.73084 0.99737 0.95313 0.0
H1814 H 0.70757 0.99462 0.99187 0.0
H1815 H 0.7569 0.00398 0.80151 0.0
H1816 H 0.1298 0.8725 0.82587 0.0
H1817 H 0.10988 0.84706 0.83913 0.0
H1818 H 0.11278 0.86808 0.89611 0.0
H1819 H 0.13364 0.8934 0.88302 0.0
H1820 H 0.10892 0.83943 0.90153 0.0
H1821 H 0.08323 0.86131 0.86391 0.0
H1822 H 0.07842 0.87424 0.83505 0.0
H1823 H 0.06856 0.83511 0.79836 0.0
H1824 H 0.0735 0.82196 0.82695 0.0
H1825 H 0.03228 0.77297 0.92729 0.0
H1826 H 0.05321 0.79999 0.92026 0.0
H1827 H 0.06386 0.78493 0.86562 0.0
H1828 H 0.04334 0.75807 0.87258 0.0
H1829 H 0.0596 0.81196 0.86219 0.0
H1830 H 0.08717 0.79125 0.90178 0.0
H1831 H 0.09145 0.77923 0.93202 0.0
H1832 H 0.09639 0.81752 0.96701 0.0
H1833 H 0.0919 0.82967 0.93699 0.0
C1834 C 0.12666 0.87147 0.84144 0.0
C1835 C 0.13362 0.88459 0.8537 0.0
C1836 C 0.11504 0.85706 0.84891 0.0
C1837 C 0.10969 0.8557 0.86857 0.0
C1838 C 0.11675 0.86885 0.88093 0.0
C1839 C 0.12858 0.88326 0.87347 0.0
C1840 C 0.09627 0.8407 0.87575 0.0
C1841 C 0.09804 0.83355 0.89312 0.0
C1842 C 0.08204 0.83303 0.86481 0.0
C1843 C 0.07883 0.8407 0.84756 0.0
C1844 C 0.08011 0.85548 0.84966 0.0
C1845 C 0.07736 0.86284 0.83335 0.0
C1846 C 0.07322 0.85549 0.81488 0.0
C1847 C 0.07177 0.84075 0.81269 0.0
C1848 C 0.07452 0.83333 0.82895 0.0
C1849 C 0.03913 0.77544 0.91383 0.0
C1850 C 0.03618 0.76339 0.90052 0.0
C1851 C 0.05107 0.79084 0.90987 0.0
C1852 C 0.06003 0.79438 0.89244 0.0
C1853 C 0.05705 0.78239 0.87914 0.0
C1854 C 0.04535 0.76704 0.88321 0.0
C1855 C 0.07243 0.81057 0.88764 0.0
C1856 C 0.07042 0.81795 0.87071 0.0
C1857 C 0.08627 0.81854 0.8992 0.0
C1858 C 0.089 0.81126 0.9172 0.0
C1859 C 0.08901 0.79703 0.91596 0.0
C1860 C 0.09151 0.79021 0.93305 0.0
C1861 C 0.09413 0.79758 0.95144 0.0
C1862 C 0.09432 0.81181 0.95276 0.0
C1863 C 0.0918 0.81867 0.93572 0.0
H1864 H 0.09607 0.79228 0.96465 0.0
H1865 H 0.0711 0.8612 0.80226 0.0
H1866 H 0.43563 0.21281 0.70014 0.0
H1867 H 0.43623 0.18845 0.70694 0.0
H1868 H 0.40146 0.17593 0.75283 0.0
H1869 H 0.40069 0.20002 0.7458 0.0
H1870 H 0.42644 0.17006 0.76301 0.0
H1871 H 0.38946 0.16241 0.70911 0.0
H1872 H 0.38286 0.16864 0.67585 0.0
H1873 H 0.41546 0.15761 0.64891 0.0
H1874 H 0.42248 0.1516 0.68208 0.0
H1875 H 0.38139 0.09151 0.78266 0.0
H1876 H 0.38943 0.11775 0.77001 0.0
H1877 H 0.41774 0.11297 0.72517 0.0
H1878 H 0.40949 0.08635 0.73765 0.0
H1879 H 0.40239 0.1291 0.71131 0.0
H1880 H 0.43594 0.1323 0.76502 0.0
H1881 H 0.44244 0.12617 0.79837 0.0
H1882 H 0.41703 0.14585 0.82559 0.0
H1883 H 0.41016 0.15189 0.7924 0.0
C1884 C 0.42845 0.20498 0.71198 0.0
C1885 C 0.41812 0.20814 0.72251 0.0
C1886 C 0.42872 0.1911 0.71575 0.0
C1887 C 0.41882 0.18042 0.7303 0.0
C1888 C 0.40919 0.18406 0.74157 0.0
C1889 C 0.40873 0.19774 0.73756 0.0
C1890 C 0.41744 0.16489 0.73304 0.0
C1891 C 0.42126 0.16111 0.75171 0.0
C1892 C 0.41107 0.1534 0.71803 0.0
C1893 C 0.40665 0.15677 0.69809 0.0
C1894 C 0.39533 0.16145 0.69611 0.0
C1895 C 0.39149 0.16492 0.67728 0.0
C1896 C 0.39877 0.16357 0.66028 0.0
C1897 C 0.40986 0.15869 0.66209 0.0
C1898 C 0.41378 0.15526 0.6809 0.0
C1899 C 0.38916 0.09592 0.76993 0.0
C1900 C 0.39499 0.08696 0.76132 0.0
C1901 C 0.39377 0.11093 0.76275 0.0
C1902 C 0.40448 0.11741 0.747 0.0
C1903 C 0.40957 0.10819 0.73746 0.0
C1904 C 0.40483 0.09301 0.74458 0.0
C1905 C 0.41088 0.13413 0.74158 0.0
C1906 C 0.408 0.13814 0.72244 0.0
C1907 C 0.4182 0.1459 0.75614 0.0
C1908 C 0.42248 0.14249 0.77619 0.0
C1909 C 0.43166 0.13525 0.77811 0.0
C1910 C 0.43542 0.13179 0.79699 0.0
C1911 C 0.43014 0.1356 0.81409 0.0
C1912 C 0.42112 0.14291 0.81234 0.0
C1913 C 0.41731 0.14638 0.79349 0.0
H1914 H 0.43306 0.13291 0.8287 0.0
H1915 H 0.39578 0.16625 0.64571 0.0
H1916 H 0.88652 0.25107 0.6694 0.0
H1917 H 0.90493 0.27795 0.67917 0.0
H1918 H 0.87434 0.27375 0.72724 0.0
H1919 H 0.85574 0.24659 0.71737 0.0
H1920 H 0.89371 0.30645 0.70573 0.0
H1921 H 0.89828 0.26613 0.74202 0.0
H1922 H 0.89894 0.24145 0.74451 0.0
H1923 H 0.93933 0.26089 0.70652 0.0
H1924 H 0.93872 0.2856 0.7035 0.0
H1925 H 0.96081 0.36715 0.75948 0.0
H1926 H 0.9361 0.34292 0.75223 0.0
H1927 H 0.95939 0.33174 0.70678 0.0
H1928 H 0.98387 0.35577 0.71373 0.0
H1929 H 0.94135 0.3065 0.73125 0.0
H1930 H 0.9364 0.34603 0.69367 0.0
H1931 H 0.93556 0.3705 0.68921 0.0
H1932 H 0.89616 0.35287 0.72872 0.0
H1933 H 0.89692 0.32836 0.73364 0.0
C1934 C 0.88338 0.25611 0.68151 0.0
C1935 C 0.86966 0.24684 0.69252 0.0
C1936 C 0.89394 0.27145 0.68714 0.0
C1937 C 0.89109 0.27781 0.70404 0.0
C1938 C 0.87672 0.26909 0.71407 0.0
C1939 C 0.86606 0.25362 0.70838 0.0
C1940 C 0.90422 0.29231 0.71274 0.0
C1941 C 0.904 0.30645 0.71173 0.0
C1942 C 0.91775 0.29235 0.72028 0.0
C1943 C 0.91838 0.27765 0.72241 0.0
C1944 C 0.90723 0.26509 0.73408 0.0
C1945 C 0.9076 0.25111 0.7356 0.0
C1946 C 0.91915 0.24959 0.72565 0.0
C1947 C 0.93038 0.26208 0.71421 0.0
C1948 C 0.93004 0.27608 0.7126 0.0
C1949 C 0.96066 0.35947 0.74803 0.0
C1950 C 0.97435 0.36344 0.73719 0.0
C1951 C 0.94651 0.34568 0.74382 0.0
C1952 C 0.94585 0.33553 0.72887 0.0
C1953 C 0.95958 0.33936 0.71836 0.0
C1954 C 0.97359 0.35316 0.72235 0.0
C1955 C 0.93103 0.32081 0.72406 0.0
C1956 C 0.93096 0.30655 0.7257 0.0
C1957 C 0.91731 0.32074 0.71714 0.0
C1958 C 0.91686 0.33546 0.71424 0.0
C1959 C 0.92766 0.34743 0.70158 0.0
C1960 C 0.92718 0.3613 0.69892 0.0
C1961 C 0.91585 0.36326 0.70873 0.0
C1962 C 0.90495 0.35135 0.72117 0.0
C1963 C 0.9054 0.33747 0.72389 0.0
H1964 H 0.91548 0.374 0.70665 0.0
H1965 H 0.91941 0.23875 0.72684 0.0
H1966 H 0.80897 0.67165 0.73532 0.0
H1967 H 0.78136 0.66292 0.74084 0.0
H1968 H 0.77414 0.66433 0.67743 0.0
H1969 H 0.80189 0.67335 0.67178 0.0
H1970 H 0.76315 0.68007 0.69619 0.0
H1971 H 0.75684 0.62923 0.70398 0.0
H1972 H 0.76268 0.60899 0.7165 0.0
H1973 H 0.75394 0.61705 0.77645 0.0
H1974 H 0.74826 0.6375 0.76434 0.0
H1975 H 0.68328 0.65739 0.71814 0.0
H1976 H 0.70581 0.65663 0.70416 0.0
H1977 H 0.72354 0.6574 0.76354 0.0
H1978 H 0.70113 0.65788 0.77755 0.0
H1979 H 0.72674 0.63709 0.74133 0.0
H1980 H 0.73764 0.69081 0.7336 0.0
H1981 H 0.73223 0.7114 0.72125 0.0
H1982 H 0.73253 0.6977 0.66092 0.0
H1983 H 0.73775 0.6769 0.67295 0.0
C1984 C 0.80147 0.66977 0.72248 0.0
C1985 C 0.80772 0.67332 0.70311 0.0
C1986 C 0.78562 0.66471 0.72567 0.0
C1987 C 0.7756 0.66291 0.70955 0.0
C1988 C 0.78162 0.66565 0.69011 0.0
C1989 C 0.7975 0.67074 0.6869 0.0
C1990 C 0.75936 0.65972 0.71324 0.0
C1991 C 0.75504 0.67043 0.70568 0.0
C1992 C 0.74883 0.6473 0.72586 0.0
C1993 C 0.75221 0.63498 0.73324 0.0
C1994 C 0.75627 0.62677 0.71985 0.0
C1995 C 0.75954 0.61524 0.72687 0.0
C1996 C 0.7587 0.61176 0.74726 0.0
C1997 C 0.75458 0.61977 0.76066 0.0
C1998 C 0.75131 0.63131 0.75372 0.0
C1999 C 0.69194 0.65732 0.72821 0.0
C2000 C 0.69039 0.65779 0.74898 0.0
C2001 C 0.70484 0.65692 0.72019 0.0
C2002 C 0.71646 0.65708 0.73279 0.0
C2003 C 0.71473 0.65721 0.7535 0.0
C2004 C 0.70189 0.65757 0.76149 0.0
C2005 C 0.73079 0.6577 0.72473 0.0
C2006 C 0.73473 0.64651 0.7315 0.0
C2007 C 0.741 0.66968 0.71139 0.0
C2008 C 0.73788 0.68219 0.70418 0.0
C2009 C 0.73643 0.69212 0.71771 0.0
C2010 C 0.73342 0.70384 0.71077 0.0
C2011 C 0.73198 0.70583 0.69032 0.0
C2012 C 0.7336 0.69613 0.67676 0.0
C2013 C 0.73659 0.68437 0.68363 0.0
H2014 H 0.72966 0.71491 0.68497 0.0
H2015 H 0.76124 0.60283 0.75266 0.0
H2016 H 0.82652 0.73561 0.13176 0.0
H2017 H 0.81058 0.74807 0.12444 0.0
H2018 H 0.76839 0.70329 0.13181 0.0
H2019 H 0.78401 0.69093 0.13847 0.0
H2020 H 0.7658 0.71583 0.09958 0.0
H2021 H 0.78132 0.73367 0.16653 0.0
H2022 H 0.79996 0.74693 0.19403 0.0
H2023 H 0.81983 0.79056 0.16144 0.0
H2024 H 0.80142 0.77749 0.13362 0.0
H2025 H 0.71883 0.7581 0.12072 0.0
H2026 H 0.73758 0.75011 0.13263 0.0
H2027 H 0.75457 0.75409 0.07267 0.0
H2028 H 0.73587 0.76174 0.06068 0.0
H2029 H 0.7697 0.76242 0.13226 0.0
H2030 H 0.76024 0.72399 0.06336 0.0
H2031 H 0.73958 0.70878 0.03862 0.0
H2032 H 0.70419 0.70277 0.08034 0.0
H2033 H 0.72461 0.71774 0.1054 0.0
C2034 C 0.81385 0.72851 0.13193 0.0
C2035 C 0.80657 0.71224 0.13543 0.0
C2036 C 0.80473 0.73563 0.12782 0.0
C2037 C 0.7882 0.72663 0.12748 0.0
C2038 C 0.78106 0.71052 0.1317 0.0
C2039 C 0.79007 0.70344 0.13553 0.0
C2040 C 0.7781 0.73348 0.12175 0.0
C2041 C 0.76676 0.72606 0.10675 0.0
C2042 C 0.77905 0.74669 0.13121 0.0
C2043 C 0.79011 0.75457 0.14791 0.0
C2044 C 0.78975 0.74606 0.16516 0.0
C2045 C 0.80025 0.75355 0.18082 0.0
C2046 C 0.8111 0.76957 0.17946 0.0
C2047 C 0.81144 0.77814 0.16246 0.0
C2048 C 0.80096 0.77071 0.14675 0.0
C2049 C 0.72664 0.75738 0.11011 0.0
C2050 C 0.72564 0.76036 0.08968 0.0
C2051 C 0.73741 0.75288 0.11696 0.0
C2052 C 0.74737 0.75127 0.10351 0.0
C2053 C 0.74686 0.75497 0.08331 0.0
C2054 C 0.7361 0.75935 0.07647 0.0
C2055 C 0.75755 0.74475 0.11011 0.0
C2056 C 0.76887 0.75224 0.12513 0.0
C2057 C 0.75636 0.73131 0.10107 0.0
C2058 C 0.74397 0.72213 0.08616 0.0
C2059 C 0.74804 0.71938 0.06726 0.0
C2060 C 0.73638 0.7108 0.05319 0.0
C2061 C 0.72059 0.70486 0.05788 0.0
C2062 C 0.71642 0.70743 0.07669 0.0
C2063 C 0.72804 0.71597 0.09083 0.0
H2064 H 0.71157 0.69823 0.04696 0.0
H2065 H 0.81923 0.77534 0.1916 0.0
H2066 H 0.34907 0.16622 0.16349 0.0
H2067 H 0.33861 0.139 0.15418 0.0
H2068 H 0.3856 0.14715 0.14695 0.0
H2069 H 0.39623 0.17468 0.15561 0.0
H2070 H 0.36622 0.12794 0.11813 0.0
H2071 H 0.36594 0.13061 0.18953 0.0
H2072 H 0.35984 0.13802 0.22171 0.0
H2073 H 0.31058 0.11118 0.20853 0.0
H2074 H 0.3164 0.10371 0.17616 0.0
H2075 H 0.33508 0.04335 0.16054 0.0
H2076 H 0.34554 0.07133 0.16428 0.0
H2077 H 0.3258 0.07342 0.10728 0.0
H2078 H 0.31541 0.0452 0.10321 0.0
H2079 H 0.33163 0.08776 0.1676 0.0
H2080 H 0.34917 0.11046 0.08668 0.0
H2081 H 0.35772 0.10346 0.05602 0.0
H2082 H 0.37659 0.07972 0.09102 0.0
H2083 H 0.36833 0.08675 0.12188 0.0
C2084 C 0.35725 0.1624 0.15955 0.0
C2085 C 0.37357 0.17274 0.16043 0.0
C2086 C 0.35121 0.14673 0.15438 0.0
C2087 C 0.3613 0.14095 0.15012 0.0
C2088 C 0.37757 0.15132 0.15024 0.0
C2089 C 0.38364 0.16704 0.15538 0.0
C2090 C 0.3549 0.12393 0.14662 0.0
C2091 C 0.3586 0.11914 0.12889 0.0
C2092 C 0.34516 0.11243 0.16079 0.0
C2093 C 0.34161 0.11673 0.18035 0.0
C2094 C 0.35381 0.12637 0.19345 0.0
C2095 C 0.35041 0.13057 0.21172 0.0
C2096 C 0.33484 0.12514 0.21713 0.0
C2097 C 0.32264 0.11541 0.2043 0.0
C2098 C 0.32598 0.11116 0.18601 0.0
C2099 C 0.33294 0.04969 0.1487 0.0
C2100 C 0.32436 0.04194 0.13154 0.0
C2101 C 0.33893 0.06575 0.15092 0.0
C2102 C 0.33653 0.07457 0.13608 0.0
C2103 C 0.32798 0.06693 0.11886 0.0
C2104 C 0.322 0.05077 0.11658 0.0
C2105 C 0.34285 0.09166 0.13901 0.0
C2106 C 0.33912 0.0965 0.15669 0.0
C2107 C 0.35283 0.10318 0.12499 0.0
C2108 C 0.35796 0.09898 0.10656 0.0
C2109 C 0.35517 0.10378 0.08782 0.0
C2110 C 0.35997 0.0998 0.07042 0.0
C2111 C 0.36764 0.0911 0.07157 0.0
C2112 C 0.37059 0.0864 0.09014 0.0
C2113 C 0.36583 0.09036 0.10759 0.0
H2114 H 0.37134 0.08802 0.05808 0.0
H2115 H 0.33224 0.12843 0.23127 0.0
H2116 H 0.88602 0.28815 0.14606 0.0
H2117 H 0.91166 0.30108 0.13051 0.0
H2118 H 0.91284 0.25786 0.13323 0.0
H2119 H 0.88713 0.24485 0.14962 0.0
H2120 H 0.93975 0.2806 0.14455 0.0
H2121 H 0.90848 0.27348 0.08771 0.0
H2122 H 0.88746 0.2732 0.06702 0.0
H2123 H 0.90913 0.32318 0.07165 0.0
H2124 H 0.93017 0.32376 0.09262 0.0
H2125 H 0.01361 0.32921 0.09331 0.0
H2126 H 0.98613 0.30794 0.09544 0.0
H2127 H 0.97305 0.3402 0.1191 0.0
H2128 H 1.00041 0.36126 0.11766 0.0
H2129 H 0.95199 0.31756 0.08738 0.0
H2130 H 0.97907 0.32153 0.1514 0.0
H2131 H 1.00005 0.32097 0.17131 0.0
H2132 H 0.98572 0.27482 0.1502 0.0
H2133 H 0.96479 0.27522 0.12992 0.0
C2134 C 0.89162 0.2813 0.14323 0.0
C2135 C 0.88451 0.26545 0.14903 0.0
C2136 C 0.90628 0.2887 0.13414 0.0
C2137 C 0.91406 0.28038 0.13021 0.0
C2138 C 0.907 0.2645 0.13595 0.0
C2139 C 0.89233 0.25708 0.14531 0.0
C2140 C 0.93002 0.28876 0.12139 0.0
C2141 C 0.94233 0.28832 0.13168 0.0
C2142 C 0.93349 0.29885 0.10455 0.0
C2143 C 0.9209 0.29864 0.09182 0.0
C2144 C 0.90873 0.28441 0.08442 0.0
C2145 C 0.89681 0.2842 0.07262 0.0
C2146 C 0.89695 0.29816 0.06803 0.0
C2147 C 0.90904 0.31237 0.0752 0.0
C2148 C 0.92099 0.31265 0.08701 0.0
C2149 C 0.00479 0.33177 0.09864 0.0
C2150 C 0.00907 0.34682 0.10541 0.0
C2151 C 0.98916 0.31965 0.09987 0.0
C2152 C 0.97765 0.32258 0.10741 0.0
C2153 C 0.9818 0.33778 0.11316 0.0
C2154 C 0.99741 0.34975 0.11241 0.0
C2155 C 0.96147 0.30973 0.11103 0.0
C2156 C 0.94922 0.30939 0.09979 0.0
C2157 C 0.95802 0.29874 0.12672 0.0
C2158 C 0.97054 0.2985 0.13895 0.0
C2159 C 0.9805 0.31134 0.15085 0.0
C2160 C 0.99236 0.31103 0.16223 0.0
C2161 C 0.99426 0.29789 0.16196 0.0
C2162 C 0.98427 0.285 0.15035 0.0
C2163 C 0.97241 0.28527 0.13892 0.0
H2164 H 0.00344 0.29767 0.17079 0.0
H2165 H 0.88771 0.29798 0.0589 0.0
H2166 H 0.36053 0.25968 0.65125 0.0
H2167 H 0.34862 0.27516 0.64007 0.0
H2168 H 0.39384 0.31728 0.64266 0.0
H2169 H 0.40586 0.30172 0.65385 0.0
H2170 H 0.36896 0.31833 0.66326 0.0
H2171 H 0.3797 0.30519 0.59908 0.0
H2172 H 0.37941 0.28739 0.5735 0.0
H2173 H 0.32904 0.26214 0.57382 0.0
H2174 H 0.32902 0.27965 0.59964 0.0
H2175 H 0.3418 0.36701 0.6221 0.0
H2176 H 0.35632 0.35343 0.62944 0.0
H2177 H 0.31521 0.30924 0.61555 0.0
H2178 H 0.30078 0.32292 0.60731 0.0
H2179 H 0.33964 0.31031 0.59974 0.0
H2180 H 0.32804 0.32116 0.66473 0.0
H2181 H 0.32715 0.33743 0.69164 0.0
H2182 H 0.37744 0.36512 0.69151 0.0
H2183 H 0.37862 0.34914 0.66441 0.0
C2184 C 0.36792 0.27223 0.64935 0.0
C2185 C 0.38407 0.27957 0.65349 0.0
C2186 C 0.36114 0.28102 0.64284 0.0
C2187 C 0.37039 0.29731 0.6405 0.0
C2188 C 0.38657 0.30469 0.64435 0.0
C2189 C 0.39341 0.29583 0.65061 0.0
C2190 C 0.36286 0.3066 0.63507 0.0
C2191 C 0.3628 0.31685 0.64922 0.0
C2192 C 0.3544 0.30416 0.61704 0.0
C2193 C 0.35437 0.29366 0.60142 0.0
C2194 C 0.36856 0.29576 0.59382 0.0
C2195 C 0.36845 0.28574 0.57925 0.0
C2196 C 0.35421 0.27362 0.57207 0.0
C2197 C 0.34006 0.27152 0.57941 0.0
C2198 C 0.3401 0.28151 0.59399 0.0
C2199 C 0.33581 0.35439 0.62071 0.0
C2200 C 0.32013 0.34599 0.61422 0.0
C2201 C 0.34412 0.34663 0.62499 0.0
C2202 C 0.33679 0.33029 0.62336 0.0
C2203 C 0.3211 0.32186 0.61692 0.0
C2204 C 0.31285 0.32966 0.61231 0.0
C2205 C 0.3456 0.32203 0.62802 0.0
C2206 C 0.34589 0.31193 0.61374 0.0
C2207 C 0.35408 0.32442 0.64609 0.0
C2208 C 0.3534 0.33405 0.6624 0.0
C2209 C 0.3389 0.3308 0.67033 0.0
C2210 C 0.33835 0.33995 0.68564 0.0
C2211 C 0.35223 0.35232 0.69324 0.0
C2212 C 0.3667 0.35554 0.68558 0.0
C2213 C 0.36732 0.34643 0.67026 0.0
H2214 H 0.35178 0.3594 0.70509 0.0
H2215 H 0.35416 0.26587 0.56079 0.0
H2216 H 0.79113 0.16506 0.66421 0.0
H2217 H 0.76778 0.14109 0.65247 0.0
H2218 H 0.79763 0.12598 0.62594 0.0
H2219 H 0.82073 0.14965 0.63745 0.0
H2220 H 0.77285 0.11941 0.60189 0.0
H2221 H 0.78181 0.11259 0.67151 0.0
H2222 H 0.78522 0.11978 0.707 0.0
H2223 H 0.73924 0.11465 0.70778 0.0
H2224 H 0.73566 0.10766 0.67218 0.0
H2225 H 0.72259 0.03651 0.59439 0.0
H2226 H 0.74392 0.06302 0.60189 0.0
H2227 H 0.71109 0.0729 0.63114 0.0
H2228 H 0.68993 0.04655 0.62406 0.0
H2229 H 0.73628 0.08314 0.65322 0.0
H2230 H 0.72643 0.08832 0.58426 0.0
H2231 H 0.7231 0.08179 0.54856 0.0
H2232 H 0.77037 0.09041 0.54617 0.0
H2233 H 0.77391 0.09679 0.58194 0.0
C2234 C 0.79266 0.15674 0.65557 0.0
C2235 C 0.80778 0.15922 0.65189 0.0
C2236 C 0.77933 0.143 0.64897 0.0
C2237 C 0.78093 0.1316 0.63848 0.0
C2238 C 0.79604 0.13452 0.63399 0.0
C2239 C 0.80926 0.14808 0.64069 0.0
C2240 C 0.76708 0.11618 0.63311 0.0
C2241 C 0.7649 0.11144 0.61313 0.0
C2242 C 0.75651 0.10584 0.64767 0.0
C2243 C 0.75854 0.10977 0.66914 0.0
C2244 C 0.77247 0.1131 0.67922 0.0
C2245 C 0.77443 0.11713 0.69935 0.0
C2246 C 0.76248 0.11772 0.70962 0.0
C2247 C 0.74851 0.11422 0.69979 0.0
C2248 C 0.7465 0.11021 0.67964 0.0
C2249 C 0.71991 0.04435 0.60233 0.0
C2250 C 0.70448 0.03929 0.6086 0.0
C2251 C 0.73212 0.05956 0.60656 0.0
C2252 C 0.72916 0.0701 0.617 0.0
C2253 C 0.71376 0.06506 0.62314 0.0
C2254 C 0.70162 0.04992 0.61899 0.0
C2255 C 0.74205 0.08625 0.62195 0.0
C2256 C 0.7441 0.09112 0.64189 0.0
C2257 C 0.75247 0.09673 0.60733 0.0
C2258 C 0.75038 0.09288 0.58583 0.0
C2259 C 0.73607 0.0887 0.57616 0.0
C2260 C 0.73415 0.08505 0.5559 0.0
C2261 C 0.7465 0.08564 0.54512 0.0
C2262 C 0.7608 0.08993 0.55455 0.0
C2263 C 0.76278 0.09358 0.57481 0.0
H2264 H 0.74499 0.08282 0.52943 0.0
H2265 H 0.76403 0.12086 0.7252 0.0
H2266 H 0.88774 0.68963 0.66913 0.0
H2267 H 0.91192 0.69023 0.65849 0.0
H2268 H 0.92381 0.7311 0.62189 0.0
H2269 H 0.89997 0.7306 0.63243 0.0
H2270 H 0.92972 0.70989 0.60305 0.0
H2271 H 0.93828 0.73453 0.66808 0.0
H2272 H 0.93286 0.73433 0.70393 0.0
H2273 H 0.94383 0.69772 0.71443 0.0
H2274 H 0.94897 0.69746 0.67856 0.0
H2275 H 0.01044 0.75517 0.58764 0.0
H2276 H 0.98319 0.74467 0.59755 0.0
H2277 H 0.98614 0.71042 0.63559 0.0
H2278 H 0.01365 0.72118 0.62607 0.0
H2279 H 0.971 0.72222 0.65423 0.0
H2280 H 0.96611 0.6998 0.59072 0.0
H2281 H 0.9712 0.69908 0.55497 0.0
H2282 H 0.95289 0.72969 0.54146 0.0
H2283 H 0.94789 0.73078 0.57717 0.0
C2284 C 0.89541 0.69854 0.65854 0.0
C2285 C 0.89204 0.71012 0.65168 0.0
C2286 C 0.90923 0.69892 0.65256 0.0
C2287 C 0.91972 0.71079 0.63951 0.0
C2288 C 0.9159 0.72184 0.63195 0.0
C2289 C 0.90229 0.72157 0.63807 0.0
C2290 C 0.93518 0.71257 0.6344 0.0
C2291 C 0.93876 0.71258 0.61421 0.0
C2292 C 0.94681 0.71557 0.64904 0.0
C2293 C 0.94381 0.71584 0.6706 0.0
C2294 C 0.93939 0.72633 0.678 0.0
C2295 C 0.93637 0.72631 0.69833 0.0
C2296 C 0.93794 0.71598 0.71143 0.0
C2297 C 0.94255 0.70567 0.70425 0.0
C2298 C 0.94551 0.70559 0.68393 0.0
C2299 C 0.0053 0.74538 0.59808 0.0
C2300 C 0.01421 0.73897 0.60598 0.0
C2301 C 0.98966 0.73931 0.60366 0.0
C2302 C 0.98247 0.72653 0.61705 0.0
C2303 C 0.99139 0.72022 0.62516 0.0
C2304 C 0.0071 0.72637 0.61967 0.0
C2305 C 0.96574 0.72009 0.62274 0.0
C2306 C 0.96191 0.7192 0.64303 0.0
C2307 C 0.95381 0.71611 0.6082 0.0
C2308 C 0.95671 0.71544 0.58666 0.0
C2309 C 0.96326 0.70646 0.58015 0.0
C2310 C 0.96612 0.70598 0.55988 0.0
C2311 C 0.96239 0.71436 0.54596 0.0
C2312 C 0.95577 0.72321 0.55227 0.0
C2313 C 0.9529 0.72375 0.57252 0.0
H2314 H 0.96462 0.71397 0.53028 0.0
H2315 H 0.93567 0.71602 0.72716 0.0
H2316 H 0.86407 0.67761 0.20272 0.0
H2317 H 0.88852 0.67972 0.21478 0.0
H2318 H 0.9146 0.71804 0.17358 0.0
H2319 H 0.88988 0.71604 0.16149 0.0
H2320 H 0.92215 0.69394 0.17166 0.0
H2321 H 0.91868 0.72577 0.22164 0.0
H2322 H 0.90592 0.73298 0.2475 0.0
H2323 H 0.89747 0.6926 0.28253 0.0
H2324 H 0.90997 0.68501 0.25675 0.0
H2325 H 0.99234 0.69845 0.21138 0.0
H2326 H 0.97271 0.70529 0.20005 0.0
H2327 H 0.93955 0.67206 0.24226 0.0
H2328 H 0.95918 0.66541 0.25389 0.0
H2329 H 0.93833 0.69821 0.24268 0.0
H2330 H 0.93804 0.66435 0.19157 0.0
H2331 H 0.94959 0.6558 0.16566 0.0
H2332 H 0.96399 0.69865 0.1328 0.0
H2333 H 0.95269 0.70754 0.15868 0.0
C2334 C 0.87503 0.68673 0.19651 0.0
C2335 C 0.87507 0.69672 0.18124 0.0
C2336 C 0.88902 0.68794 0.20344 0.0
C2337 C 0.90344 0.69907 0.19516 0.0
C2338 C 0.90361 0.7094 0.18024 0.0
C2339 C 0.88953 0.70835 0.17347 0.0
C2340 C 0.91799 0.69895 0.20134 0.0
C2341 C 0.92596 0.69527 0.18711 0.0
C2342 C 0.92269 0.70024 0.22159 0.0
C2343 C 0.91519 0.70477 0.23718 0.0
C2344 C 0.91399 0.71836 0.23479 0.0
C2345 C 0.90683 0.72252 0.24944 0.0
C2346 C 0.90087 0.71324 0.26663 0.0
C2347 C 0.90209 0.69978 0.26921 0.0
C2348 C 0.90924 0.69555 0.25459 0.0
C2349 C 0.98086 0.69259 0.21825 0.0
C2350 C 0.97733 0.68134 0.23353 0.0
C2351 C 0.96961 0.69648 0.2117 0.0
C2352 C 0.95454 0.6891 0.22015 0.0
C2353 C 0.95107 0.67796 0.2355 0.0
C2354 C 0.9623 0.67411 0.2421 0.0
C2355 C 0.94231 0.69287 0.21308 0.0
C2356 C 0.93475 0.69718 0.22716 0.0
C2357 C 0.93789 0.69201 0.19273 0.0
C2358 C 0.9447 0.68669 0.17718 0.0
C2359 C 0.94379 0.672 0.17891 0.0
C2360 C 0.95027 0.66709 0.16421 0.0
C2361 C 0.95757 0.6767 0.14763 0.0
C2362 C 0.95836 0.69123 0.14568 0.0
C2363 C 0.95192 0.69621 0.16035 0.0
H2364 H 0.96257 0.67287 0.13626 0.0
H2365 H 0.89533 0.71649 0.27796 0.0
H2366 H 0.37627 0.27381 0.20938 0.0
H2367 H 0.37822 0.2978 0.22173 0.0
H2368 H 0.42855 0.3191 0.22528 0.0
H2369 H 0.42666 0.29479 0.21312 0.0
H2370 H 0.41463 0.32522 0.25896 0.0
H2371 H 0.41495 0.32946 0.18785 0.0
H2372 H 0.40575 0.32024 0.15374 0.0
H2373 H 0.36088 0.3152 0.16707 0.0
H2374 H 0.36972 0.32417 0.20137 0.0
H2375 H 0.41783 0.40012 0.27071 0.0
H2376 H 0.42293 0.37912 0.26107 0.0
H2377 H 0.3742 0.35022 0.24488 0.0
H2378 H 0.36913 0.37104 0.25405 0.0
H2379 H 0.39219 0.35072 0.21592 0.0
H2380 H 0.39062 0.34353 0.28766 0.0
H2381 H 0.39909 0.35181 0.32225 0.0
H2382 H 0.44574 0.36203 0.30809 0.0
H2383 H 0.43758 0.35398 0.27333 0.0
C2384 C 0.38776 0.28344 0.21308 0.0
C2385 C 0.40132 0.28233 0.21029 0.0
C2386 C 0.38887 0.29723 0.22 0.0
C2387 C 0.40354 0.31028 0.22427 0.0
C2388 C 0.41712 0.30916 0.22204 0.0
C2389 C 0.41603 0.29533 0.21496 0.0
C2390 C 0.40445 0.32515 0.23032 0.0
C2391 C 0.41002 0.33102 0.24944 0.0
C2392 C 0.39828 0.33258 0.21796 0.0
C2393 C 0.39298 0.3274 0.19724 0.0
C2394 C 0.40309 0.32629 0.18355 0.0
C2395 C 0.39794 0.32112 0.16418 0.0
C2396 C 0.38273 0.31711 0.15825 0.0
C2397 C 0.37265 0.31831 0.17168 0.0
C2398 C 0.37774 0.32346 0.19109 0.0
C2399 C 0.40819 0.3892 0.26534 0.0
C2400 C 0.3931 0.38731 0.26302 0.0
C2401 C 0.41112 0.37721 0.25983 0.0
C2402 C 0.39896 0.36308 0.25216 0.0
C2403 C 0.38382 0.36104 0.25055 0.0
C2404 C 0.38093 0.37298 0.25587 0.0
C2405 C 0.40182 0.35053 0.2449 0.0
C2406 C 0.39702 0.34511 0.22541 0.0
C2407 C 0.40864 0.34353 0.25698 0.0
C2408 C 0.41354 0.34835 0.27785 0.0
C2409 C 0.40272 0.34767 0.29188 0.0
C2410 C 0.40746 0.3523 0.31153 0.0
C2411 C 0.42296 0.35749 0.31735 0.0
C2412 C 0.43374 0.35803 0.30355 0.0
C2413 C 0.42907 0.35344 0.28388 0.0
H2414 H 0.42661 0.36106 0.33256 0.0
H2415 H 0.37876 0.31309 0.14325 0.0
H2416 H 0.81989 0.18763 0.19141 0.0
H2417 H 0.79582 0.16308 0.19876 0.0
H2418 H 0.79195 0.18153 0.2549 0.0
H2419 H 0.81619 0.20592 0.24796 0.0
H2420 H 0.78083 0.15065 0.25816 0.0
H2421 H 0.77409 0.18556 0.21341 0.0
H2422 H 0.77954 0.20226 0.18335 0.0
H2423 H 0.76568 0.16236 0.14619 0.0
H2424 H 0.76034 0.14544 0.17608 0.0
H2425 H 0.69779 0.10745 0.2701 0.0
H2426 H 0.72446 0.12935 0.26471 0.0
H2427 H 0.72858 0.10692 0.21235 0.0
H2428 H 0.70207 0.08502 0.21762 0.0
H2429 H 0.7397 0.13911 0.20695 0.0
H2430 H 0.74496 0.10399 0.25326 0.0
H2431 H 0.73899 0.08808 0.28413 0.0
H2432 H 0.75509 0.1294 0.31921 0.0
H2433 H 0.76091 0.14555 0.28853 0.0
C2434 C 0.81417 0.18631 0.20557 0.0
C2435 C 0.81979 0.19885 0.21893 0.0
C2436 C 0.80037 0.1723 0.2097 0.0
C2437 C 0.79187 0.17068 0.22711 0.0
C2438 C 0.79824 0.1826 0.2413 0.0
C2439 C 0.81211 0.19656 0.23727 0.0
C2440 C 0.77567 0.15742 0.22959 0.0
C2441 C 0.77181 0.14818 0.24704 0.0
C2442 C 0.76393 0.15417 0.21499 0.0
C2443 C 0.76694 0.16426 0.19698 0.0
C2444 C 0.77229 0.18036 0.19883 0.0
C2445 C 0.77535 0.18986 0.18183 0.0
C2446 C 0.77295 0.18337 0.16288 0.0
C2447 C 0.76751 0.16736 0.16089 0.0
C2448 C 0.76446 0.15781 0.17785 0.0
C2449 C 0.70432 0.10726 0.25734 0.0
C2450 C 0.69786 0.09448 0.24435 0.0
C2451 C 0.71956 0.11973 0.25434 0.0
C2452 C 0.72849 0.11963 0.23824 0.0
C2453 C 0.72187 0.10717 0.22488 0.0
C2454 C 0.70674 0.09465 0.22797 0.0
C2455 C 0.74489 0.13235 0.23549 0.0
C2456 C 0.74875 0.14151 0.218 0.0
C2457 C 0.75657 0.13563 0.25014 0.0
C2458 C 0.75323 0.12596 0.26859 0.0
C2459 C 0.74712 0.10967 0.26755 0.0
C2460 C 0.74378 0.10061 0.28501 0.0
C2461 C 0.74664 0.10772 0.30361 0.0
C2462 C 0.75287 0.12391 0.30479 0.0
C2463 C 0.7562 0.13302 0.28737 0.0
H2464 H 0.74405 0.10068 0.31711 0.0
H2465 H 0.77525 0.19073 0.14975 0.0
H2466 H 0.98362 0.48695 0.95311 0.0
H2467 H 0.98535 0.47184 0.92571 0.0
H2468 H 0.03002 0.5112 0.90871 0.0
H2469 H 0.02822 0.52647 0.93588 0.0
H2470 H 0.01194 0.49789 0.87631 0.0
H2471 H 0.02866 0.48063 0.93328 0.0
H2472 H 0.02732 0.47045 0.96748 0.0
H2473 H 0.98531 0.42784 0.95242 0.0
H2474 H 0.98626 0.43787 0.91818 0.0
H2475 H 0.03603 0.45639 0.81348 0.0
H2476 H 0.03469 0.47129 0.84142 0.0
H2477 H 0.98828 0.43356 0.85547 0.0
H2478 H 0.98949 0.41857 0.82741 0.0
H2479 H 0.00765 0.44613 0.8894 0.0
H2480 H 0.99194 0.46471 0.83137 0.0
H2481 H 0.9951 0.47557 0.79722 0.0
H2482 H 0.03768 0.51671 0.81472 0.0
H2483 H 0.03489 0.50599 0.84892 0.0
C2484 C 0.99374 0.49246 0.94344 0.0
C2485 C 0.0058 0.50794 0.94678 0.0
C2486 C 0.99479 0.48375 0.92786 0.0
C2487 C 0.00791 0.4903 0.91523 0.0
C2488 C 0.01981 0.50585 0.91827 0.0
C2489 C 0.01881 0.51454 0.93391 0.0
C2490 C 0.00922 0.48091 0.89892 0.0
C2491 C 0.01119 0.48667 0.87923 0.0
C2492 C 0.00808 0.46617 0.90263 0.0
C2493 C 0.00743 0.46008 0.92321 0.0
C2494 C 0.01905 0.46914 0.9373 0.0
C2495 C 0.01838 0.46339 0.95669 0.0
C2496 C 0.00621 0.44852 0.96213 0.0
C2497 C 0.99471 0.43937 0.94818 0.0
C2498 C 0.99531 0.44508 0.92878 0.0
C2499 C 0.02555 0.4512 0.82256 0.0
C2500 C 0.01283 0.43628 0.81814 0.0
C2501 C 0.02479 0.45977 0.8385 0.0
C2502 C 0.01133 0.45362 0.85045 0.0
C2503 C 0.99878 0.43856 0.84644 0.0
C2504 C 0.99947 0.43002 0.83036 0.0
C2505 C 0.01024 0.46307 0.86682 0.0
C2506 C 0.00835 0.45734 0.88652 0.0
C2507 C 0.01167 0.47794 0.86316 0.0
C2508 C 0.01328 0.48447 0.84265 0.0
C2509 C 0.00204 0.47602 0.8279 0.0
C2510 C 0.00375 0.48216 0.80854 0.0
C2511 C 0.01661 0.4968 0.80379 0.0
C2512 C 0.02774 0.50536 0.81841 0.0
C2513 C 0.02609 0.49926 0.83779 0.0
H2514 H 0.01792 0.50153 0.78879 0.0
H2515 H 0.00572 0.44408 0.97715 0.0
H2516 H 0.51676 0.58087 0.92161 0.0
H2517 H 0.5347 0.5951 0.89435 0.0
H2518 H 0.57023 0.58767 0.92241 0.0
H2519 H 0.55226 0.57372 0.95022 0.0
H2520 H 0.58344 0.61598 0.90619 0.0
H2521 H 0.54735 0.56476 0.88291 0.0
H2522 H 0.52147 0.54164 0.87634 0.0
H2523 H 0.5092 0.56951 0.83839 0.0
H2524 H 0.53494 0.59285 0.84495 0.0
H2525 H 0.62689 0.62955 0.81574 0.0
H2526 H 0.61086 0.61724 0.84537 0.0
H2527 H 0.57763 0.63093 0.82493 0.0
H2528 H 0.59374 0.64347 0.79531 0.0
H2529 H 0.56396 0.59906 0.83735 0.0
H2530 H 0.60113 0.65042 0.86119 0.0
H2531 H 0.62757 0.67273 0.86762 0.0
H2532 H 0.63855 0.64323 0.90422 0.0
H2533 H 0.61224 0.62066 0.89775 0.0
C2534 C 0.5284 0.58227 0.92198 0.0
C2535 C 0.53304 0.57597 0.93785 0.0
C2536 C 0.53865 0.59039 0.90636 0.0
C2537 C 0.55369 0.5921 0.90598 0.0
C2538 C 0.55864 0.5864 0.92226 0.0
C2539 C 0.5484 0.57845 0.93813 0.0
C2540 C 0.56398 0.5995 0.88833 0.0
C2541 C 0.57925 0.61212 0.89117 0.0
C2542 C 0.5585 0.59462 0.86864 0.0
C2543 C 0.54303 0.58059 0.86456 0.0
C2544 C 0.5391 0.56598 0.87327 0.0
C2545 C 0.52445 0.55283 0.86954 0.0
C2546 C 0.51368 0.55411 0.857 0.0
C2547 C 0.51755 0.56854 0.84812 0.0
C2548 C 0.53217 0.58173 0.85182 0.0
C2549 C 0.61617 0.62995 0.81754 0.0
C2550 C 0.61157 0.63747 0.80318 0.0
C2551 C 0.60707 0.62297 0.83453 0.0
C2552 C 0.59312 0.62327 0.83741 0.0
C2553 C 0.58839 0.63061 0.823 0.0
C2554 C 0.5976 0.63778 0.80612 0.0
C2555 C 0.58328 0.61559 0.85524 0.0
C2556 C 0.56812 0.60288 0.8524 0.0
C2557 C 0.58896 0.62024 0.87488 0.0
C2558 C 0.60477 0.63381 0.8788 0.0
C2559 C 0.60923 0.64865 0.87045 0.0
C2560 C 0.62419 0.66135 0.87413 0.0
C2561 C 0.63475 0.65939 0.88627 0.0
C2562 C 0.63036 0.64473 0.89479 0.0
C2563 C 0.61543 0.63198 0.89113 0.0
H2564 H 0.64632 0.66924 0.88911 0.0
H2565 H 0.50235 0.54392 0.85412 0.0
H2566 H 0.47973 0.07036 0.963 0.0
H2567 H 0.46053 0.06345 0.9363 0.0
H2568 H 0.4373 0.01511 0.95599 0.0
H2569 H 0.45696 0.02179 0.98217 0.0
H2570 H 0.44327 0.01698 0.91787 0.0
H2571 H 0.41857 0.03707 0.95826 0.0
H2572 H 0.41679 0.05556 0.98093 0.0
H2573 H 0.43519 0.09126 0.93519 0.0
H2574 H 0.4373 0.07303 0.91241 0.0
H2575 H 0.39567 0.0063 0.83 0.0
H2576 H 0.40334 0.00534 0.86478 0.0
H2577 H 0.43416 0.0555 0.86325 0.0
H2578 H 0.42625 0.05656 0.82902 0.0
H2579 H 0.41746 0.04704 0.89619 0.0
H2580 H 0.44729 0.02826 0.85911 0.0
H2581 H 0.44975 0.00988 0.83696 0.0
H2582 H 0.42154 0.97168 0.87694 0.0
H2583 H 0.41878 0.98983 0.89921 0.0
C2584 C 0.47048 0.05828 0.96179 0.0
C2585 C 0.4701 0.04664 0.97457 0.0
C2586 C 0.45934 0.05436 0.94666 0.0
C2587 C 0.44741 0.03875 0.94418 0.0
C2588 C 0.44642 0.02722 0.95762 0.0
C2589 C 0.45765 0.03112 0.9727 0.0
C2590 C 0.43726 0.03438 0.92618 0.0
C2591 C 0.43727 0.02326 0.91336 0.0
C2592 C 0.42954 0.04265 0.9202 0.0
C2593 C 0.42815 0.05367 0.9337 0.0
C2594 C 0.42232 0.04889 0.95312 0.0
C2595 C 0.42125 0.05932 0.96597 0.0
C2596 C 0.4259 0.07459 0.95951 0.0
C2597 C 0.43159 0.07943 0.94017 0.0
C2598 C 0.4327 0.06903 0.92728 0.0
C2599 C 0.40417 0.01707 0.83711 0.0
C2600 C 0.41036 0.03151 0.82687 0.0
C2601 C 0.40851 0.01651 0.85695 0.0
C2602 C 0.41931 0.03036 0.86662 0.0
C2603 C 0.42568 0.04469 0.85618 0.0
C2604 C 0.42122 0.04527 0.83657 0.0
C2605 C 0.42422 0.03028 0.88757 0.0
C2606 C 0.42313 0.04049 0.90096 0.0
C2607 C 0.43097 0.02121 0.89405 0.0
C2608 C 0.43267 0.01035 0.88067 0.0
C2609 C 0.44152 0.01592 0.86309 0.0
C2610 C 0.44298 0.00555 0.85053 0.0
C2611 C 0.43576 0.98961 0.8555 0.0
C2612 C 0.42709 0.98402 0.87308 0.0
C2613 C 0.42558 0.99434 0.88567 0.0
H2614 H 0.4369 0.9816 0.84577 0.0
H2615 H 0.42507 0.08266 0.96948 0.0
H2616 H 0.51748 0.06769 0.60855 0.0
H2617 H 0.49981 0.06222 0.63665 0.0
H2618 H 0.4631 0.0227 0.60556 0.0
H2619 H 0.48069 0.028 0.57754 0.0
H2620 H 0.45221 0.04024 0.62102 0.0
H2621 H 0.48183 0.01693 0.64449 0.0
H2622 H 0.50561 0.01548 0.65246 0.0
H2623 H 0.52001 0.05262 0.69448 0.0
H2624 H 0.49642 0.05447 0.68654 0.0
H2625 H 0.40224 0.01381 0.70671 0.0
H2626 H 0.41852 0.01415 0.67906 0.0
H2627 H 0.45805 0.05583 0.70262 0.0
H2628 H 0.44197 0.05557 0.73016 0.0
H2629 H 0.46619 0.03431 0.69071 0.0
H2630 H 0.43726 0.05868 0.66467 0.0
H2631 H 0.41329 0.05974 0.65648 0.0
H2632 H 0.39725 0.01958 0.61914 0.0
H2633 H 0.42105 0.01816 0.62733 0.0
C2634 C 0.50572 0.05774 0.60778 0.0
C2635 C 0.50052 0.04834 0.59073 0.0
C2636 C 0.49562 0.05462 0.62385 0.0
C2637 C 0.48016 0.04197 0.62325 0.0
C2638 C 0.47495 0.03255 0.6063 0.0
C2639 C 0.48503 0.03566 0.59024 0.0
C2640 C 0.4693 0.03887 0.64008 0.0
C2641 C 0.45514 0.03867 0.63621 0.0
C2642 C 0.47321 0.037 0.65993 0.0
C2643 C 0.48742 0.03593 0.66478 0.0
C2644 C 0.49013 0.02488 0.65531 0.0
C2645 C 0.50357 0.02397 0.65984 0.0
C2646 C 0.51433 0.03398 0.67393 0.0
C2647 C 0.51167 0.04489 0.68355 0.0
C2648 C 0.49826 0.04586 0.67905 0.0
C2649 C 0.41442 0.02299 0.70602 0.0
C2650 C 0.4208 0.03471 0.72055 0.0
C2651 C 0.42368 0.02319 0.69022 0.0
C2652 C 0.43946 0.03508 0.68875 0.0
C2653 C 0.44591 0.04655 0.70349 0.0
C2654 C 0.43667 0.04641 0.71917 0.0
C2655 C 0.44926 0.03594 0.67165 0.0
C2656 C 0.46321 0.03572 0.67548 0.0
C2657 C 0.44512 0.03734 0.65175 0.0
C2658 C 0.43084 0.0382 0.6468 0.0
C2659 C 0.42856 0.05 0.65485 0.0
C2660 C 0.41502 0.05068 0.65018 0.0
C2661 C 0.40373 0.0397 0.63735 0.0
C2662 C 0.40599 0.02805 0.62911 0.0
C2663 C 0.4195 0.02731 0.63375 0.0
H2664 H 0.39326 0.04025 0.63375 0.0
H2665 H 0.52473 0.03325 0.67742 0.0
H2666 H 0.03246 0.51502 0.57067 0.0
H2667 H 0.03414 0.49976 0.59848 0.0
H2668 H 0.999 0.50476 0.62999 0.0
H2669 H 0.99781 0.52078 0.60268 0.0
H2670 H 0.0208 0.508 0.65512 0.0
H2671 H 0.99083 0.47022 0.60512 0.0
H2672 H 0.98539 0.4586 0.57168 0.0
H2673 H 0.02609 0.45332 0.57621 0.0
H2674 H 0.0319 0.46511 0.6096 0.0
H2675 H 0.99656 0.44391 0.72361 0.0
H2676 H 0.99761 0.46101 0.69602 0.0
H2677 H 0.03848 0.46143 0.67283 0.0
H2678 H 0.03765 0.44445 0.70063 0.0
H2679 H 0.01495 0.45572 0.6436 0.0
H2680 H 0.04394 0.49269 0.6947 0.0
H2681 H 0.04844 0.50369 0.72845 0.0
H2682 H 0.00826 0.50968 0.72202 0.0
H2683 H 0.00337 0.49849 0.68832 0.0
C2684 C 0.02517 0.5131 0.58351 0.0
C2685 C 0.01493 0.51923 0.58414 0.0
C2686 C 0.02603 0.50415 0.59942 0.0
C2687 C 0.0165 0.50081 0.61628 0.0
C2688 C 0.00644 0.50707 0.61714 0.0
C2689 C 0.00567 0.51615 0.60132 0.0
C2690 C 0.01698 0.49082 0.63301 0.0
C2691 C 0.01932 0.49649 0.65257 0.0
C2692 C 0.01541 0.4759 0.62978 0.0
C2693 C 0.01188 0.4687 0.60978 0.0
C2694 C 0.99868 0.46668 0.59893 0.0
C2695 C 0.99552 0.46005 0.57999 0.0
C2696 C 0.00542 0.45526 0.5718 0.0
C2697 C 0.01846 0.45705 0.58256 0.0
C2698 C 0.02168 0.4637 0.6015 0.0
C2699 C 0.00581 0.44767 0.71268 0.0
C2700 C 0.01704 0.44284 0.71435 0.0
C2701 C 0.00641 0.45748 0.69694 0.0
C2702 C 0.01816 0.46256 0.6824 0.0
C2703 C 0.02932 0.45766 0.68389 0.0
C2704 C 0.02886 0.44801 0.69982 0.0
C2705 C 0.01864 0.47288 0.66558 0.0
C2706 C 0.01648 0.46725 0.64606 0.0
C2707 C 0.02023 0.48776 0.66885 0.0
C2708 C 0.0232 0.4946 0.68905 0.0
C2709 C 0.03598 0.49623 0.70054 0.0
C2710 C 0.03862 0.50252 0.71965 0.0
C2711 C 0.02862 0.50734 0.7274 0.0
C2712 C 0.01598 0.50592 0.71601 0.0
C2713 C 0.01328 0.49962 0.69689 0.0
H2714 H 0.03067 0.51219 0.7422 0.0
H2715 H 0.00296 0.45014 0.55713 0.0
H2716 H 0.52837 0.56424 0.59343 0.0
H2717 H 0.54305 0.58349 0.61876 0.0
H2718 H 0.56013 0.62037 0.57411 0.0
H2719 H 0.54543 0.6008 0.54831 0.0
H2720 H 0.58382 0.6226 0.59578 0.0
H2721 H 0.536 0.61924 0.61207 0.0
H2722 H 0.50771 0.60724 0.61879 0.0
H2723 H 0.51246 0.58311 0.67001 0.0
H2724 H 0.54075 0.59478 0.66345 0.0
H2725 H 0.6228 0.66938 0.68467 0.0
H2726 H 0.60571 0.66006 0.65504 0.0
H2727 H 0.58735 0.61233 0.6754 0.0
H2728 H 0.60459 0.62146 0.7046 0.0
H2729 H 0.5641 0.62225 0.66359 0.0
H2730 H 0.61176 0.62312 0.64134 0.0
H2731 H 0.64001 0.63622 0.63375 0.0
H2732 H 0.63501 0.66745 0.59273 0.0
H2733 H 0.60674 0.65468 0.60035 0.0
C2734 C 0.53494 0.57649 0.589 0.0
C2735 C 0.53575 0.581 0.56887 0.0
C2736 C 0.54329 0.58755 0.60358 0.0
C2737 C 0.55264 0.60347 0.59847 0.0
C2738 C 0.55295 0.60817 0.57845 0.0
C2739 C 0.54445 0.59702 0.56375 0.0
C2740 C 0.56318 0.61458 0.61391 0.0
C2741 C 0.57944 0.62288 0.61044 0.0
C2742 C 0.55758 0.61499 0.63312 0.0
C2743 C 0.54053 0.60787 0.6372 0.0
C2744 C 0.53101 0.6113 0.62469 0.0
C2745 C 0.51497 0.60456 0.62849 0.0
C2746 C 0.50829 0.59441 0.6448 0.0
C2747 C 0.51765 0.59099 0.65738 0.0
C2748 C 0.5337 0.59769 0.65365 0.0
C2749 C 0.61517 0.6569 0.68274 0.0
C2750 C 0.61507 0.64615 0.69695 0.0
C2751 C 0.60543 0.65161 0.66583 0.0
C2752 C 0.59524 0.63551 0.66309 0.0
C2753 C 0.59509 0.6248 0.67728 0.0
C2754 C 0.60502 0.63004 0.69391 0.0
C2755 C 0.58458 0.62959 0.64556 0.0
C2756 C 0.56836 0.6223 0.64874 0.0
C2757 C 0.5902 0.63037 0.62603 0.0
C2758 C 0.6072 0.63811 0.62165 0.0
C2759 C 0.61672 0.63291 0.63091 0.0
C2760 C 0.63273 0.64025 0.62655 0.0
C2761 C 0.63931 0.65271 0.61283 0.0
C2762 C 0.6299 0.65784 0.6034 0.0
C2763 C 0.61389 0.65056 0.60774 0.0
H2764 H 0.6517 0.65835 0.60945 0.0
H2765 H 0.49587 0.58921 0.64772 0.0
H2766 H 0.03728 0.5813 0.07304 0.0
H2767 H 0.03859 0.59815 0.10003 0.0
H2768 H 0.99124 0.5643 0.11693 0.0
H2769 H 0.98954 0.54769 0.08945 0.0
H2770 H 0.9948 0.59247 0.11762 0.0
H2771 H 0.02441 0.56925 0.1436 0.0
H2772 H 0.04521 0.56222 0.14355 0.0
H2773 H 0.08038 0.61095 0.14104 0.0
H2774 H 0.05977 0.61827 0.14082 0.0
H2775 H 0.9929 0.6196 0.21376 0.0
H2776 H 0.99359 0.60399 0.18633 0.0
H2777 H 0.0393 0.64166 0.1694 0.0
H2778 H 0.03871 0.65741 0.19696 0.0
H2779 H 0.03754 0.61279 0.1681 0.0
H2780 H 0.00792 0.63595 0.14305 0.0
H2781 H 0.98711 0.64295 0.14342 0.0
H2782 H 0.95194 0.59419 0.14434 0.0
H2783 H 0.97256 0.58689 0.14426 0.0
C2784 C 0.02706 0.57741 0.08233 0.0
C2785 C 0.01328 0.563 0.07887 0.0
C2786 C 0.02791 0.58705 0.09799 0.0
C2787 C 0.01509 0.58246 0.11078 0.0
C2788 C 0.00133 0.56813 0.10736 0.0
C2789 C 1.00043 0.55852 0.09165 0.0
C2790 C 0.01584 0.59268 0.12747 0.0
C2791 C 0.00405 0.59672 0.12879 0.0
C2792 C 0.02813 0.59867 0.1418 0.0
C2793 C 0.04054 0.59429 0.14198 0.0
C2794 C 0.03658 0.57846 0.14288 0.0
C2795 C 0.04833 0.57442 0.14293 0.0
C2796 C 0.06411 0.58613 0.14223 0.0
C2797 C 0.06816 0.6019 0.14155 0.0
C2798 C 0.05644 0.60599 0.14148 0.0
C2799 C 0.00315 0.62458 0.20428 0.0
C2800 C 0.01573 0.63981 0.20755 0.0
C2801 C 0.0035 0.61564 0.18852 0.0
C2802 C 0.01641 0.62169 0.17561 0.0
C2803 C 0.02919 0.63674 0.17912 0.0
C2804 C 0.02882 0.64575 0.19485 0.0
C2805 C 0.0164 0.61235 0.15833 0.0
C2806 C 0.02832 0.60853 0.15689 0.0
C2807 C 0.00423 0.60653 0.14388 0.0
C2808 C 0.99179 0.61087 0.14384 0.0
C2809 C 0.99575 0.62672 0.14349 0.0
C2810 C 0.98399 0.63074 0.14362 0.0
C2811 C 0.96821 0.61903 0.14395 0.0
C2812 C 0.96417 0.60326 0.1441 0.0
C2813 C 0.97588 0.59917 0.144 0.0
H2814 H 0.95912 0.62217 0.14405 0.0
H2815 H 0.07319 0.58298 0.14227 0.0
H2816 H 0.46867 0.51338 0.06924 0.0
H2817 H 0.454 0.49664 0.09771 0.0
H2818 H 0.48459 0.53294 0.13814 0.0
H2819 H 0.49923 0.54969 0.10976 0.0
H2820 H 0.47722 0.50218 0.15071 0.0
H2821 H 0.45132 0.53033 0.12788 0.0
H2822 H 0.4388 0.53914 0.1027 0.0
H2823 H 0.4039 0.49134 0.09148 0.0
H2824 H 0.41636 0.48224 0.11641 0.0
H2825 H 0.42956 0.47412 0.23776 0.0
H2826 H 0.44615 0.49043 0.21023 0.0
H2827 H 0.41129 0.45985 0.16793 0.0
H2828 H 0.39452 0.44394 0.19521 0.0
H2829 H 0.42144 0.48813 0.15631 0.0
H2830 H 0.44654 0.45939 0.17833 0.0
H2831 H 0.45898 0.44975 0.20251 0.0
H2832 H 0.49502 0.49703 0.21415 0.0
H2833 H 0.48268 0.50697 0.19021 0.0
C2834 C 0.47242 0.51765 0.08421 0.0
C2835 C 0.48503 0.53287 0.0873 0.0
C2836 C 0.46399 0.50813 0.10044 0.0
C2837 C 0.46814 0.51362 0.12002 0.0
C2838 C 0.48118 0.5285 0.12316 0.0
C2839 C 0.48947 0.53808 0.10695 0.0
C2840 C 0.45836 0.50424 0.13718 0.0
C2841 C 0.46506 0.49921 0.15208 0.0
C2842 C 0.44244 0.50015 0.13874 0.0
C2843 C 0.43487 0.5056 0.12386 0.0
C2844 C 0.44105 0.5217 0.11992 0.0
C2845 C 0.43396 0.52674 0.10572 0.0
C2846 C 0.42059 0.5158 0.09546 0.0
C2847 C 0.41427 0.4998 0.09942 0.0
C2848 C 0.42134 0.49469 0.1136 0.0
C2849 C 0.42543 0.47091 0.22259 0.0
C2850 C 0.41069 0.45771 0.21873 0.0
C2851 C 0.43497 0.48018 0.20683 0.0
C2852 C 0.43011 0.47627 0.18691 0.0
C2853 C 0.41535 0.46317 0.18311 0.0
C2854 C 0.40575 0.45404 0.19879 0.0
C2855 C 0.44018 0.48583 0.16992 0.0
C2856 C 0.43357 0.49099 0.15502 0.0
C2857 C 0.45613 0.48987 0.16827 0.0
C2858 C 0.4636 0.48393 0.18264 0.0
C2859 C 0.45706 0.46774 0.18616 0.0
C2860 C 0.4641 0.46222 0.1998 0.0
C2861 C 0.47776 0.47277 0.2099 0.0
C2862 C 0.48443 0.48887 0.20634 0.0
C2863 C 0.47742 0.49445 0.19273 0.0
H2864 H 0.4832 0.46847 0.22046 0.0
H2865 H 0.41511 0.51973 0.08446 0.0
H2866 H 0.52503 0.0629 0.11742 0.0
H2867 H 0.54266 0.06348 0.14401 0.0
H2868 H 0.57365 0.06245 0.09985 0.0
H2869 H 0.55595 0.06159 0.0734 0.0
H2870 H 0.56641 0.04029 0.1273 0.0
H2871 H 0.58341 0.09553 0.12748 0.0
H2872 H 0.57959 0.11837 0.12976 0.0
H2873 H 0.56062 0.10367 0.18859 0.0
H2874 H 0.56414 0.08062 0.18656 0.0
H2875 H 0.63096 0.05216 0.18503 0.0
H2876 H 0.61358 0.05496 0.16124 0.0
H2877 H 0.58722 0.05861 0.20976 0.0
H2878 H 0.60515 0.05654 0.23375 0.0
H2879 H 0.59049 0.07866 0.18179 0.0
H2880 H 0.57405 0.02395 0.1823 0.0
H2881 H 0.57705 1.00062 0.18005 0.0
H2882 H 0.5938 0.01354 0.12001 0.0
H2883 H 0.59111 0.03706 0.12199 0.0
C2884 C 0.53578 0.06313 0.11346 0.0
C2885 C 0.53911 0.06208 0.09343 0.0
C2886 C 0.54583 0.06346 0.12861 0.0
C2887 C 0.55946 0.063 0.12389 0.0
C2888 C 0.56313 0.06269 0.10383 0.0
C2889 C 0.55304 0.0622 0.08875 0.0
C2890 C 0.56933 0.06159 0.13973 0.0
C2891 C 0.57185 0.0488 0.13907 0.0
C2892 C 0.5759 0.07236 0.1555 0.0
C2893 C 0.5739 0.08627 0.15679 0.0
C2894 C 0.57832 0.09711 0.14084 0.0
C2895 C 0.57623 0.1101 0.1421 0.0
C2896 C 0.56983 0.11244 0.15929 0.0
C2897 C 0.56555 0.10183 0.17528 0.0
C2898 C 0.56761 0.08881 0.17409 0.0
C2899 C 0.62145 0.05353 0.19066 0.0
C2900 C 0.61931 0.05398 0.21125 0.0
C2901 C 0.61147 0.05506 0.17703 0.0
C2902 C 0.59885 0.05661 0.1837 0.0
C2903 C 0.59683 0.05734 0.20427 0.0
C2904 C 0.60704 0.05612 0.21795 0.0
C2905 C 0.58786 0.05752 0.1691 0.0
C2906 C 0.58503 0.07013 0.17005 0.0
C2907 C 0.58089 0.04652 0.15359 0.0
C2908 C 0.5825 0.03235 0.15237 0.0
C2909 C 0.57848 0.02188 0.16867 0.0
C2910 C 0.58011 0.00861 0.16743 0.0
C2911 C 0.58565 0.00562 0.14992 0.0
C2912 C 0.58953 0.01587 0.13358 0.0
C2913 C 0.58794 0.02917 0.13474 0.0
H2914 H 0.5869 0.99533 0.14899 0.0
H2915 H 0.56821 0.12251 0.16023 0.0
H2916 H 0.55486 0.04848 0.46196 0.0
H2917 H 0.56993 0.04978 0.43313 0.0
H2918 H 0.59061 0.10005 0.4306 0.0
H2919 H 0.5746 0.09879 0.4589 0.0
H2920 H 0.58305 0.08905 0.39476 0.0
H2921 H 0.61128 0.08127 0.44786 0.0
H2922 H 0.61488 0.06884 0.47818 0.0
H2923 H 0.59743 0.02542 0.44729 0.0
H2924 H 0.5935 0.03751 0.41685 0.0
H2925 H 0.64032 0.09351 0.32409 0.0
H2926 H 0.62841 0.09673 0.35428 0.0
H2927 H 0.59641 0.04688 0.35685 0.0
H2928 H 0.608 0.04359 0.3266 0.0
H2929 H 0.61267 0.06049 0.39355 0.0
H2930 H 0.58224 0.06792 0.34185 0.0
H2931 H 0.57857 0.08036 0.3116 0.0
H2932 H 0.60102 0.12498 0.34042 0.0
H2933 H 0.60503 0.11283 0.37077 0.0
C2934 C 0.56241 0.05987 0.4553 0.0
C2935 C 0.5633 0.07354 0.46287 0.0
C2936 C 0.57129 0.06059 0.43888 0.0
C2937 C 0.58168 0.07504 0.42987 0.0
C2938 C 0.58275 0.08876 0.43738 0.0
C2939 C 0.57365 0.08803 0.45371 0.0
C2940 C 0.59087 0.07558 0.41214 0.0
C2941 C 0.58981 0.0831 0.39467 0.0
C2942 C 0.5995 0.06758 0.41184 0.0
C2943 C 0.602 0.06029 0.43009 0.0
C2944 C 0.60812 0.06904 0.44756 0.0
C2945 C 0.61023 0.06206 0.46477 0.0
C2946 C 0.60636 0.04634 0.46467 0.0
C2947 C 0.60042 0.03759 0.44734 0.0
C2948 C 0.59827 0.04451 0.4301 0.0
C2949 C 0.63068 0.08326 0.33103 0.0
C2950 C 0.62507 0.0683 0.32297 0.0
C2951 C 0.6239 0.08512 0.34824 0.0
C2952 C 0.61157 0.07203 0.35776 0.0
C2953 C 0.60595 0.05711 0.34972 0.0
C2954 C 0.61253 0.05528 0.33239 0.0
C2955 C 0.60459 0.07373 0.3763 0.0
C2956 C 0.6061 0.06664 0.39386 0.0
C2957 C 0.59648 0.08219 0.37672 0.0
C2958 C 0.59412 0.08951 0.35848 0.0
C2959 C 0.58655 0.08042 0.34166 0.0
C2960 C 0.58437 0.08741 0.32452 0.0
C2961 C 0.58961 0.10346 0.32406 0.0
C2962 C 0.597 0.11255 0.34078 0.0
C2963 C 0.59922 0.10562 0.35796 0.0
H2964 H 0.5879 0.10885 0.31078 0.0
H2965 H 0.60798 0.04095 0.47801 0.0
H2966 H 0.99209 0.54617 0.43282 0.0
H2967 H 0.99223 0.56112 0.40325 0.0
H2968 H 0.01997 0.60423 0.43497 0.0
H2969 H 0.02004 0.58932 0.46448 0.0
H2970 H 0.98117 0.57966 0.3957 0.0
H2971 H 0.04335 0.63358 0.40367 0.0
H2972 H 0.06926 0.63999 0.41734 0.0
H2973 H 0.0586 0.5926 0.4085 0.0
H2974 H 0.0327 0.58595 0.39459 0.0
H2975 H 0.9889 0.64445 0.34005 0.0
H2976 H 0.9899 0.62733 0.36598 0.0
H2977 H 0.01959 0.61779 0.32899 0.0
H2978 H 0.01871 0.63508 0.30275 0.0
H2979 H 0.03024 0.6237 0.3679 0.0
H2980 H 0.98205 0.59034 0.33434 0.0
H2981 H 0.95621 0.58278 0.31949 0.0
H2982 H 0.93924 0.58663 0.37656 0.0
H2983 H 0.96506 0.59444 0.39171 0.0
C2984 C 0.99814 0.55882 0.43356 0.0
C2985 C 0.00609 0.56653 0.45105 0.0
C2986 C 0.99827 0.56738 0.41658 0.0
C2987 C 0.0063 0.58385 0.41668 0.0
C2988 C 0.014 0.59156 0.43427 0.0
C2989 C 0.01401 0.58301 0.45119 0.0
C2990 C 0.00634 0.59291 0.39854 0.0
C2991 C 0.99192 0.58926 0.38964 0.0
C2992 C 0.02036 0.6053 0.39028 0.0
C2993 C 0.03604 0.60925 0.39824 0.0
C2994 C 0.04657 0.62455 0.40455 0.0
C2995 C 0.06125 0.62822 0.41236 0.0
C2996 C 0.06556 0.6167 0.41383 0.0
C2997 C 0.05523 0.6015 0.40741 0.0
C2998 C 0.04054 0.59777 0.39959 0.0
C2999 C 0.99564 0.63871 0.3373 0.0
C3000 C 0.00369 0.64115 0.3192 0.0
C3001 C 0.99615 0.62887 0.35219 0.0
C3002 C 0.00471 0.62115 0.34942 0.0
C3003 C 0.01289 0.62361 0.33146 0.0
C3004 C 0.01231 0.63343 0.31643 0.0
C3005 C 0.00506 0.61062 0.36542 0.0
C3006 C 0.01952 0.61403 0.37393 0.0
C3007 C 0.9911 0.59785 0.37315 0.0
C3008 C 0.97553 0.59309 0.36412 0.0
C3009 C 0.97284 0.58969 0.3437 0.0
C3010 C 0.95819 0.58534 0.33523 0.0
C3011 C 0.9461 0.58426 0.34707 0.0
C3012 C 0.94862 0.58749 0.36741 0.0
C3013 C 0.96326 0.59186 0.37595 0.0
H3014 H 0.93476 0.58089 0.34048 0.0
H3015 H 0.07691 0.61956 0.41991 0.0
H3016 H 0.48692 0.54746 0.46837 0.0
H3017 H 0.47016 0.5362 0.43872 0.0
H3018 H 0.49907 0.5171 0.42061 0.0
H3019 H 0.51575 0.52838 0.44966 0.0
H3020 H 0.49108 0.52764 0.38913 0.0
H3021 H 0.46462 0.49537 0.44668 0.0
H3022 H 0.45245 0.48977 0.47996 0.0
H3023 H 0.41908 0.50275 0.45873 0.0
H3024 H 0.43124 0.50867 0.42539 0.0
H3025 H 0.44168 0.45818 0.33529 0.0
H3026 H 0.45733 0.47622 0.36186 0.0
H3027 H 0.42834 0.4976 0.35885 0.0
H3028 H 0.41287 0.47987 0.33191 0.0
H3029 H 0.4348 0.48886 0.39958 0.0
H3030 H 0.46059 0.51812 0.34022 0.0
H3031 H 0.47289 0.52196 0.30725 0.0
H3032 H 0.50776 0.51268 0.33271 0.0
H3033 H 0.49552 0.50855 0.36579 0.0
C3034 C 0.48984 0.54115 0.45779 0.0
C3035 C 0.5026 0.53874 0.4614 0.0
C3036 C 0.4802 0.5346 0.44096 0.0
C3037 C 0.48321 0.52559 0.42753 0.0
C3038 C 0.49644 0.52395 0.43069 0.0
C3039 C 0.50597 0.53039 0.44739 0.0
C3040 C 0.47241 0.51713 0.41067 0.0
C3041 C 0.47877 0.51917 0.39147 0.0
C3042 C 0.45627 0.5062 0.41357 0.0
C3043 C 0.44898 0.50268 0.43361 0.0
C3044 C 0.45478 0.49717 0.44916 0.0
C3045 C 0.44787 0.49392 0.46803 0.0
C3046 C 0.43503 0.49596 0.47148 0.0
C3047 C 0.42906 0.50122 0.45605 0.0
C3048 C 0.43596 0.50454 0.43717 0.0
C3049 C 0.43866 0.46674 0.34024 0.0
C3050 C 0.42609 0.46764 0.33144 0.0
C3051 C 0.44761 0.47704 0.35542 0.0
C3052 C 0.44398 0.48823 0.36231 0.0
C3053 C 0.43131 0.48903 0.35376 0.0
C3054 C 0.42255 0.47895 0.3383 0.0
C3055 C 0.45361 0.49919 0.3783 0.0
C3056 C 0.44703 0.49757 0.39725 0.0
C3057 C 0.46961 0.51034 0.3753 0.0
C3058 C 0.47705 0.51289 0.35545 0.0
C3059 C 0.4708 0.51676 0.33876 0.0
C3060 C 0.47777 0.51902 0.32005 0.0
C3061 C 0.49107 0.51753 0.31788 0.0
C3062 C 0.49744 0.51381 0.33441 0.0
C3063 C 0.4905 0.51153 0.35315 0.0
H3064 H 0.49646 0.51928 0.30338 0.0
H3065 H 0.42969 0.49342 0.48609 0.0
H3066 H 0.68021 0.85785 0.29366 0.0
H3067 H 0.67262 0.84061 0.26442 0.0
H3068 H 0.72142 0.86015 0.24943 0.0
H3069 H 0.72895 0.87715 0.27795 0.0
H3070 H 0.70543 0.85961 0.21734 0.0
H3071 H 0.69936 0.8232 0.27051 0.0
H3072 H 0.68823 0.80866 0.30196 0.0
H3073 H 0.64193 0.78738 0.27651 0.0
H3074 H 0.65279 0.80199 0.24498 0.0
H3075 H 0.71068 0.81004 0.14816 0.0
H3076 H 0.71211 0.82384 0.17866 0.0
H3077 H 0.66164 0.79848 0.18261 0.0
H3078 H 0.66014 0.78431 0.15213 0.0
H3079 H 0.67459 0.80154 0.21945 0.0
H3080 H 0.6814 0.8366 0.16511 0.0
H3081 H 0.69296 0.85129 0.13388 0.0
H3082 H 0.7383 0.87544 0.16192 0.0
H3083 H 0.72705 0.86075 0.19325 0.0
C3084 C 0.68927 0.85837 0.28415 0.0
C3085 C 0.70519 0.86903 0.28819 0.0
C3086 C 0.68494 0.84849 0.26745 0.0
C3087 C 0.69645 0.84907 0.25456 0.0
C3088 C 0.71227 0.85951 0.2589 0.0
C3089 C 0.71656 0.86927 0.27538 0.0
C3090 C 0.69245 0.83928 0.2362 0.0
C3091 C 0.69875 0.84691 0.21789 0.0
C3092 C 0.68337 0.82269 0.23661 0.0
C3093 C 0.67686 0.81383 0.25548 0.0
C3094 C 0.68679 0.81552 0.27168 0.0
C3095 C 0.68054 0.80725 0.2895 0.0
C3096 C 0.66438 0.79714 0.29125 0.0
C3097 C 0.65445 0.79524 0.27515 0.0
C3098 C 0.66064 0.80351 0.25729 0.0
C3099 C 0.69985 0.80731 0.15551 0.0
C3100 C 0.68528 0.79611 0.14752 0.0
C3101 C 0.70068 0.81529 0.17298 0.0
C3102 C 0.68697 0.81248 0.18288 0.0
C3103 C 0.6724 0.80096 0.17529 0.0
C3104 C 0.67156 0.79288 0.15779 0.0
C3105 C 0.688 0.82191 0.20076 0.0
C3106 C 0.68112 0.81425 0.21889 0.0
C3107 C 0.69661 0.83853 0.20027 0.0
C3108 C 0.70339 0.84749 0.18149 0.0
C3109 C 0.69385 0.84498 0.16458 0.0
C3110 C 0.70035 0.85331 0.14687 0.0
C3111 C 0.71636 0.86427 0.14591 0.0
C3112 C 0.7259 0.86694 0.16268 0.0
C3113 C 0.71946 0.85863 0.18043 0.0
H3114 H 0.72137 0.8707 0.13217 0.0
H3115 H 0.65956 0.79074 0.30506 0.0
H3116 H 0.21317 0.92458 0.31373 0.0
H3117 H 0.2267 0.93846 0.28336 0.0
H3118 H 0.18747 0.90525 0.2481 0.0
H3119 H 0.17414 0.8909 0.27848 0.0
H3120 H 0.21232 0.90867 0.23241 0.0
H3121 H 0.19756 0.94533 0.25414 0.0
H3122 H 0.19494 0.96287 0.2776 0.0
H3123 H 0.24507 0.9904 0.28292 0.0
H3124 H 0.24799 0.9729 0.25968 0.0
H3125 H 0.25246 0.9776 0.1545 0.0
H3126 H 0.23514 0.96514 0.18306 0.0
H3127 H 0.26028 0.94089 0.19828 0.0
H3128 H 0.27749 0.95312 0.16958 0.0
H3129 H 0.24009 0.96631 0.22198 0.0
H3130 H 0.23545 0.90526 0.2183 0.0
H3131 H 0.23575 0.88754 0.19302 0.0
H3132 H 0.21996 0.9084 0.14838 0.0
H3133 H 0.21936 0.9261 0.17344 0.0
C3134 C 0.20725 0.92038 0.29955 0.0
C3135 C 0.19254 0.9066 0.29857 0.0
C3136 C 0.21502 0.92839 0.28212 0.0
C3137 C 0.20812 0.92303 0.2633 0.0
C3138 C 0.19312 0.90963 0.26237 0.0
C3139 C 0.18545 0.90148 0.27979 0.0
C3140 C 0.21699 0.93069 0.24463 0.0
C3141 C 0.21832 0.92128 0.23016 0.0
C3142 C 0.22469 0.94714 0.24136 0.0
C3143 C 0.22298 0.95773 0.25528 0.0
C3144 C 0.20802 0.95506 0.26041 0.0
C3145 C 0.20648 0.96501 0.27365 0.0
C3146 C 0.21983 0.97772 0.28177 0.0
C3147 C 0.23474 0.98054 0.27663 0.0
C3148 C 0.23635 0.97062 0.2634 0.0
C3149 C 0.25428 0.96957 0.16389 0.0
C3150 C 0.26633 0.9663 0.15968 0.0
C3151 C 0.2444 0.9625 0.18027 0.0
C3152 C 0.24628 0.95195 0.19277 0.0
C3153 C 0.2584 0.94879 0.18871 0.0
C3154 C 0.26828 0.95583 0.17231 0.0
C3155 C 0.23561 0.94429 0.21007 0.0
C3156 C 0.234 0.9537 0.22426 0.0
C3157 C 0.22732 0.92781 0.21286 0.0
C3158 C 0.22751 0.91711 0.19772 0.0
C3159 C 0.23198 0.90603 0.20311 0.0
C3160 C 0.23222 0.89599 0.18881 0.0
C3161 C 0.22793 0.89688 0.16909 0.0
C3162 C 0.22334 0.90777 0.16364 0.0
C3163 C 0.22307 0.91782 0.17788 0.0
H3164 H 0.22812 0.8891 0.15805 0.0
H3165 H 0.21861 0.9854 0.29202 0.0
H3166 H 0.1623 0.37403 0.27943 0.0
H3167 H 0.14309 0.36527 0.25233 0.0
H3168 H 0.14452 0.40976 0.25232 0.0
H3169 H 0.16316 0.41835 0.27996 0.0
H3170 H 0.1149 0.38581 0.25115 0.0
H3171 H 0.16374 0.40052 0.21695 0.0
H3172 H 0.18755 0.399 0.21033 0.0
H3173 H 0.15919 0.35004 0.19743 0.0
H3174 H 0.13521 0.35123 0.20421 0.0
H3175 H 0.09016 0.39755 0.15819 0.0
H3176 H 0.10401 0.39744 0.18844 0.0
H3177 H 0.0937 0.35033 0.17642 0.0
H3178 H 0.07981 0.3504 0.14574 0.0
H3179 H 0.12453 0.36972 0.18558 0.0
H3180 H 0.07558 0.35609 0.21448 0.0
H3181 H 0.05174 0.35765 0.22053 0.0
H3182 H 0.07983 0.40409 0.24339 0.0
H3183 H 0.10388 0.40292 0.23719 0.0
C3184 C 0.15847 0.38193 0.27376 0.0
C3185 C 0.16426 0.3969 0.28195 0.0
C3186 C 0.14758 0.37694 0.25815 0.0
C3187 C 0.14244 0.38689 0.25028 0.0
C3188 C 0.14833 0.40189 0.25823 0.0
C3189 C 0.15914 0.40685 0.27389 0.0
C3190 C 0.1308 0.38176 0.23387 0.0
C3191 C 0.11703 0.38238 0.23676 0.0
C3192 C 0.13329 0.37661 0.21543 0.0
C3193 C 0.14771 0.37592 0.21132 0.0
C3194 C 0.16259 0.3894 0.21286 0.0
C3195 C 0.17611 0.3886 0.20905 0.0
C3196 C 0.17488 0.37442 0.20353 0.0
C3197 C 0.16013 0.36101 0.20175 0.0
C3198 C 0.14657 0.36174 0.20556 0.0
C3199 C 0.0907 0.38709 0.16202 0.0
C3200 C 0.08393 0.37398 0.14959 0.0
C3201 C 0.09854 0.38702 0.17939 0.0
C3202 C 0.09969 0.3738 0.18478 0.0
C3203 C 0.09283 0.3606 0.17253 0.0
C3204 C 0.08491 0.36065 0.15508 0.0
C3205 C 0.10895 0.37441 0.20262 0.0
C3206 C 0.12224 0.37286 0.20007 0.0
C3207 C 0.106 0.37868 0.2214 0.0
C3208 C 0.09155 0.37944 0.22527 0.0
C3209 C 0.07669 0.36668 0.22067 0.0
C3210 C 0.06313 0.36749 0.22415 0.0
C3211 C 0.06427 0.38097 0.23232 0.0
C3212 C 0.07897 0.39366 0.23706 0.0
C3213 C 0.09257 0.39292 0.2336 0.0
H3214 H 0.05376 0.38157 0.235 0.0
H3215 H 0.18537 0.37383 0.20058 0.0
H3216 H 0.14313 0.33982 0.91663 0.0
H3217 H 0.12689 0.34096 0.94304 0.0
H3218 H 0.16842 0.37655 0.97253 0.0
H3219 H 0.18476 0.37513 0.94621 0.0
H3220 H 0.14776 0.35654 0.99912 0.0
H3221 H 0.14581 0.38617 0.9425 0.0
H3222 H 0.14178 0.39018 0.90699 0.0
H3223 H 0.09376 0.35331 0.91082 0.0
H3224 H 0.09756 0.34894 0.94631 0.0
H3225 H 0.11236 0.39041 0.05591 0.0
H3226 H 0.12776 0.38618 0.03106 0.0
H3227 H 0.08555 0.34702 0.00786 0.0
H3228 H 0.06999 0.35109 0.03285 0.0
H3229 H 0.10588 0.36801 0.97824 0.0
H3230 H 0.10788 0.33909 0.03536 0.0
H3231 H 0.11225 0.33513 0.07075 0.0
H3232 H 0.16052 0.37126 0.0659 0.0
H3233 H 0.15638 0.37559 0.03053 0.0
C3234 C 0.14878 0.34782 0.92881 0.0
C3235 C 0.16516 0.35756 0.92929 0.0
C3236 C 0.13951 0.34848 0.94386 0.0
C3237 C 0.14642 0.35912 0.95948 0.0
C3238 C 0.16285 0.36833 0.96053 0.0
C3239 C 0.17216 0.36751 0.94555 0.0
C3240 C 0.13644 0.36104 0.97423 0.0
C3241 C 0.13874 0.35924 0.99457 0.0
C3242 C 0.12444 0.36425 0.96823 0.0
C3243 C 0.12201 0.36713 0.94702 0.0
C3244 C 0.13441 0.37887 0.93575 0.0
C3245 C 0.13216 0.38121 0.91562 0.0
C3246 C 0.11753 0.37197 0.90663 0.0
C3247 C 0.10509 0.36044 0.91779 0.0
C3248 C 0.10728 0.35804 0.93792 0.0
C3249 C 0.10633 0.38091 0.04549 0.0
C3250 C 0.08997 0.37105 0.04634 0.0
C3251 C 0.11516 0.37849 0.03137 0.0
C3252 C 0.10779 0.36622 0.01778 0.0
C3253 C 0.09143 0.35653 0.01829 0.0
C3254 C 0.08258 0.35885 0.03258 0.0
C3255 C 0.11726 0.36357 0.00307 0.0
C3256 C 0.11488 0.36527 0.98275 0.0
C3257 C 0.12923 0.36037 0.00908 0.0
C3258 C 0.13177 0.35777 0.03034 0.0
C3259 C 0.11939 0.34629 0.04188 0.0
C3260 C 0.12184 0.34396 0.06193 0.0
C3261 C 0.13664 0.35297 0.07058 0.0
C3262 C 0.14905 0.3643 0.05919 0.0
C3263 C 0.14666 0.36669 0.03913 0.0
H3264 H 0.13851 0.35114 0.08611 0.0
H3265 H 0.11583 0.37377 0.89104 0.0
H3266 H 0.69695 0.85375 0.88017 0.0
H3267 H 0.69449 0.83913 0.9109 0.0
H3268 H 0.67206 0.8618 0.93919 0.0
H3269 H 0.67554 0.87728 0.90873 0.0
H3270 H 0.69064 0.86142 0.96421 0.0
H3271 H 0.65238 0.82032 0.92394 0.0
H3272 H 0.64178 0.80367 0.89432 0.0
H3273 H 0.6755 0.78839 0.902 0.0
H3274 H 0.68642 0.8051 0.93153 0.0
H3275 H 0.66552 0.80685 0.04791 0.0
H3276 H 0.665 0.82035 0.01696 0.0
H3277 H 0.70106 0.81307 0.99229 0.0
H3278 H 0.70191 0.79994 0.02327 0.0
H3279 H 0.67392 0.80485 0.96627 0.0
H3280 H 0.71199 0.84737 0.00686 0.0
H3281 H 0.72088 0.86343 0.03713 0.0
H3282 H 0.68433 0.87486 0.02936 0.0
H3283 H 0.67507 0.85867 0.99918 0.0
C3284 C 0.69124 0.85544 0.89282 0.0
C3285 C 0.68632 0.86661 0.89191 0.0
C3286 C 0.68976 0.84697 0.91048 0.0
C3287 C 0.6828 0.84902 0.92753 0.0
C3288 C 0.67749 0.85991 0.9264 0.0
C3289 C 0.67937 0.8687 0.90889 0.0
C3290 C 0.68182 0.84046 0.94673 0.0
C3291 C 0.68667 0.84897 0.96457 0.0
C3292 C 0.67691 0.82423 0.94753 0.0
C3293 C 0.6703 0.81407 0.92986 0.0
C3294 C 0.65759 0.81348 0.91924 0.0
C3295 C 0.65152 0.80402 0.90248 0.0
C3296 C 0.65799 0.79501 0.89626 0.0
C3297 C 0.67051 0.79539 0.90683 0.0
C3298 C 0.67663 0.80484 0.92359 0.0
C3299 C 0.67337 0.80818 0.03592 0.0
C3300 C 0.68379 0.80236 0.03811 0.0
C3301 C 0.67307 0.8159 0.01824 0.0
C3302 C 0.68299 0.81772 0.00227 0.0
C3303 C 0.69328 0.81179 0.00437 0.0
C3304 C 0.69381 0.80435 0.02215 0.0
C3305 C 0.68272 0.82585 0.9834 0.0
C3306 C 0.67769 0.81725 0.96573 0.0
C3307 C 0.68714 0.84189 0.98281 0.0
C3308 C 0.69273 0.85167 1.0009 0.0
C3309 C 0.70575 0.85319 0.01171 0.0
C3310 C 0.71088 0.86234 0.02883 0.0
C3311 C 0.70314 0.87012 0.0352 0.0
C3312 C 0.69029 0.8688 0.02443 0.0
C3313 C 0.68511 0.85965 0.00731 0.0
H3314 H 0.70713 0.87721 0.04846 0.0
H3315 H 0.65328 0.7877 0.88327 0.0
H3316 H 0.21236 0.91461 0.90326 0.0
H3317 H 0.22967 0.92865 0.93118 0.0
H3318 H 0.18965 0.91074 0.97012 0.0
H3319 H 0.17231 0.89666 0.94233 0.0
H3320 H 0.23257 0.95122 0.95472 0.0
H3321 H 0.19965 0.90453 0.01653 0.0
H3322 H 0.18307 0.87583 0.02002 0.0
H3323 H 0.20413 0.86962 0.96787 0.0
H3324 H 0.22097 0.89826 0.96422 0.0
H3325 H 0.26151 0.98458 0.05044 0.0
H3326 H 0.24516 0.97156 0.02129 0.0
H3327 H 0.26069 0.9376 0.02344 0.0
H3328 H 0.27663 0.95026 0.05282 0.0
H3329 H 0.23086 0.923 0.0175 0.0
H3330 H 0.27422 0.96824 0.98775 0.0
H3331 H 0.29297 0.99642 0.98288 0.0
H3332 H 0.25499 0.00464 0.96854 0.0
H3333 H 0.23599 0.97653 0.97358 0.0
C3334 C 0.20721 0.91372 0.91772 0.0
C3335 C 0.1909 0.90438 0.92051 0.0
C3336 C 0.21715 0.92177 0.93371 0.0
C3337 C 0.21103 0.92065 0.95286 0.0
C3338 C 0.19473 0.91157 0.95561 0.0
C3339 C 0.1848 0.90347 0.93966 0.0
C3340 C 0.22168 0.92884 0.96998 0.0
C3341 C 0.23218 0.94504 0.96846 0.0
C3342 C 0.22143 0.9208 0.98783 0.0
C3343 C 0.21145 0.90355 0.98999 0.0
C3344 C 0.20077 0.89704 0.00585 0.0
C3345 C 0.19133 0.88078 0.00785 0.0
C3346 C 0.19251 0.87091 0.99414 0.0
C3347 C 0.20318 0.87728 0.97843 0.0
C3348 C 0.21267 0.89352 0.97638 0.0
C3349 C 0.26149 0.97439 0.04463 0.0
C3350 C 0.27038 0.96847 0.05397 0.0
C3351 C 0.25218 0.96697 0.02789 0.0
C3352 C 0.25175 0.95363 0.01997 0.0
C3353 C 0.26074 0.94782 0.02923 0.0
C3354 C 0.26991 0.95512 0.04603 0.0
C3355 C 0.24168 0.94544 0.00237 0.0
C3356 C 0.23125 0.92922 0.00381 0.0
C3357 C 0.24228 0.95341 0.9843 0.0
C3358 C 0.25368 0.97031 0.98123 0.0
C3359 C 0.26986 0.97608 0.9837 0.0
C3360 C 0.28053 0.99203 0.98089 0.0
C3361 C 0.27517 0.00232 0.97546 0.0
C3362 C 0.25912 0.99666 0.97278 0.0
C3363 C 0.2484 0.98072 0.97559 0.0
H3364 H 0.28345 0.01467 0.97328 0.0
H3365 H 0.18518 0.85833 0.9957 0.0
H3366 H 0.68827 0.89092 0.40153 0.0
H3367 H 0.68186 0.89911 0.43294 0.0
H3368 H 0.70899 0.94748 0.41393 0.0
H3369 H 0.7156 0.93944 0.38319 0.0
H3370 H 0.71739 0.9449 0.44989 0.0
H3371 H 0.66731 0.9262 0.41664 0.0
H3372 H 0.64312 0.90648 0.39993 0.0
H3373 H 0.6307 0.87665 0.45193 0.0
H3374 H 0.65492 0.89612 0.46886 0.0
H3375 H 0.69819 0.98579 0.51907 0.0
H3376 H 0.70141 0.97365 0.48944 0.0
H3377 H 0.67223 0.92785 0.51571 0.0
H3378 H 0.66852 0.93999 0.54518 0.0
H3379 H 0.66467 0.92669 0.47819 0.0
H3380 H 0.71385 0.94584 0.51214 0.0
H3381 H 0.73807 0.96534 0.529 0.0
H3382 H 0.75243 0.99392 0.47581 0.0
H3383 H 0.7282 0.97468 0.4587 0.0
C3384 C 0.69257 0.90325 0.40396 0.0
C3385 C 0.70251 0.91452 0.3899 0.0
C3386 C 0.68894 0.90796 0.42195 0.0
C3387 C 0.695 0.92399 0.42602 0.0
C3388 C 0.70429 0.93508 0.41145 0.0
C3389 C 0.70802 0.93043 0.39375 0.0
C3390 C 0.69256 0.92959 0.44563 0.0
C3391 C 0.70581 0.941 0.45591 0.0
C3392 C 0.67756 0.9242 0.45408 0.0
C3393 C 0.663 0.91253 0.44392 0.0
C3394 C 0.65948 0.91538 0.42445 0.0
C3395 C 0.64575 0.90426 0.41495 0.0
C3396 C 0.63541 0.8903 0.42483 0.0
C3397 C 0.63874 0.88745 0.44427 0.0
C3398 C 0.65246 0.89853 0.45383 0.0
C3399 C 0.69255 0.97314 0.51865 0.0
C3400 C 0.68319 0.96391 0.53466 0.0
C3401 C 0.69444 0.96616 0.50165 0.0
C3402 C 0.6873 0.94975 0.50029 0.0
C3403 C 0.67792 0.94051 0.51627 0.0
C3404 C 0.67588 0.94749 0.53322 0.0
C3405 C 0.68949 0.94233 0.48212 0.0
C3406 C 0.67624 0.93053 0.4722 0.0
C3407 C 0.70452 0.94733 0.47398 0.0
C3408 C 0.71915 0.95887 0.48419 0.0
C3409 C 0.72213 0.95633 0.50408 0.0
C3410 C 0.73587 0.96733 0.51367 0.0
C3411 C 0.74677 0.98088 0.5035 0.0
C3412 C 0.74397 0.98343 0.48368 0.0
C3413 C 0.73025 0.97247 0.47402 0.0
H3414 H 0.75739 0.98938 0.51095 0.0
H3415 H 0.62479 0.8817 0.41746 0.0
H3416 H 0.14687 0.86039 0.38823 0.0
H3417 H 0.12844 0.84369 0.41407 0.0
H3418 H 0.1583 0.87567 0.45923 0.0
H3419 H 0.1768 0.8923 0.43359 0.0
H3420 H 0.15077 0.84638 0.46883 0.0
H3421 H 0.12251 0.87205 0.4471 0.0
H3422 H 0.10972 0.88113 0.42269 0.0
H3423 H 0.07772 0.83354 0.40639 0.0
H3424 H 0.09046 0.82418 0.43053 0.0
H3425 H 0.09848 0.80541 0.54923 0.0
H3426 H 0.11556 0.82571 0.52521 0.0
H3427 H 0.08578 0.79789 0.47697 0.0
H3428 H 0.06847 0.77798 0.5008 0.0
H3429 H 0.0935 0.82658 0.47005 0.0
H3430 H 0.12254 0.80087 0.48933 0.0
H3431 H 0.13542 0.79126 0.51287 0.0
H3432 H 0.166 0.83822 0.53269 0.0
H3433 H 0.15316 0.84809 0.50942 0.0
C3434 C 0.14936 0.86404 0.40362 0.0
C3435 C 0.16336 0.87769 0.4088 0.0
C3436 C 0.1388 0.85446 0.41841 0.0
C3437 C 0.14195 0.8584 0.43866 0.0
C3438 C 0.15562 0.87233 0.44375 0.0
C3439 C 0.16617 0.88187 0.42902 0.0
C3440 C 0.1316 0.84755 0.45463 0.0
C3441 C 0.13828 0.84225 0.46927 0.0
C3442 C 0.11524 0.84183 0.45499 0.0
C3443 C 0.10753 0.84743 0.44051 0.0
C3444 C 0.11283 0.86353 0.4382 0.0
C3445 C 0.10557 0.86872 0.42443 0.0
C3446 C 0.09294 0.85792 0.41296 0.0
C3447 C 0.08752 0.84189 0.41528 0.0
C3448 C 0.09474 0.83664 0.42902 0.0
C3449 C 0.09559 0.80364 0.5335 0.0
C3450 C 0.0821 0.79004 0.52698 0.0
C3451 C 0.10541 0.81523 0.51974 0.0
C3452 C 0.10211 0.81331 0.49915 0.0
C3453 C 0.08861 0.79975 0.49271 0.0
C3454 C 0.07872 0.78831 0.50642 0.0
C3455 C 0.11264 0.82527 0.48418 0.0
C3456 C 0.10601 0.83077 0.46969 0.0
C3457 C 0.12904 0.83109 0.48385 0.0
C3458 C 0.13678 0.82518 0.4978 0.0
C3459 C 0.13194 0.80913 0.49881 0.0
C3460 C 0.13924 0.80364 0.51209 0.0
C3461 C 0.15149 0.81412 0.52431 0.0
C3462 C 0.15649 0.83012 0.52324 0.0
C3463 C 0.14921 0.83566 0.51001 0.0
H3464 H 0.15713 0.80985 0.53458 0.0
H3465 H 0.08734 0.86197 0.40231 0.0
H3466 H 0.24121 0.4185 0.40847 0.0
H3467 H 0.24905 0.40847 0.43737 0.0
H3468 H 0.20247 0.3885 0.46151 0.0
H3469 H 0.19446 0.39845 0.43242 0.0
H3470 H 0.23267 0.40537 0.4896 0.0
H3471 H 0.20482 0.36432 0.4405 0.0
H3472 H 0.20015 0.35467 0.40601 0.0
H3473 H 0.24773 0.36443 0.40229 0.0
H3474 H 0.25282 0.37453 0.43661 0.0
H3475 H 0.25034 0.3612 0.55837 0.0
H3476 H 0.23506 0.36756 0.53472 0.0
H3477 H 0.2657 0.37066 0.48712 0.0
H3478 H 0.28007 0.36315 0.51031 0.0
H3479 H 0.2394 0.36034 0.47206 0.0
H3480 H 0.26975 0.40381 0.51578 0.0
H3481 H 0.27835 0.41703 0.54817 0.0
H3482 H 0.23134 0.40675 0.56014 0.0
H3483 H 0.22244 0.3933 0.5279 0.0
C3484 C 0.23278 0.41243 0.42022 0.0
C3485 C 0.21722 0.40923 0.41827 0.0
C3486 C 0.23724 0.40662 0.43661 0.0
C3487 C 0.22628 0.39767 0.45133 0.0
C3488 C 0.21105 0.39541 0.45021 0.0
C3489 C 0.20651 0.40105 0.43366 0.0
C3490 C 0.2304 0.38942 0.46666 0.0
C3491 C 0.23388 0.39533 0.486 0.0
C3492 C 0.23237 0.37666 0.46157 0.0
C3493 C 0.22923 0.3703 0.44108 0.0
C3494 C 0.21434 0.36456 0.43227 0.0
C3495 C 0.21161 0.359 0.41275 0.0
C3496 C 0.22366 0.35899 0.40196 0.0
C3497 C 0.23844 0.3645 0.41066 0.0
C3498 C 0.24124 0.37013 0.43015 0.0
C3499 C 0.25353 0.36291 0.54275 0.0
C3500 C 0.26639 0.36175 0.53615 0.0
C3501 C 0.24491 0.36669 0.52928 0.0
C3502 C 0.24949 0.37007 0.50919 0.0
C3503 C 0.26189 0.36816 0.5025 0.0
C3504 C 0.27014 0.36386 0.51579 0.0
C3505 C 0.2421 0.37645 0.49524 0.0
C3506 C 0.23798 0.3702 0.476 0.0
C3507 C 0.24007 0.38926 0.50025 0.0
C3508 C 0.2454 0.3974 0.51957 0.0
C3509 C 0.26124 0.4043 0.52538 0.0
C3510 C 0.26616 0.41183 0.5437 0.0
C3511 C 0.25539 0.41268 0.55624 0.0
C3512 C 0.23967 0.40605 0.55044 0.0
C3513 C 0.23468 0.39847 0.53215 0.0
H3514 H 0.25922 0.41852 0.57041 0.0
H3515 H 0.22152 0.35463 0.38688 0.0
H3516 H 0.21138 0.3535 0.79334 0.0
H3517 H 0.22417 0.35552 0.76168 0.0
H3518 H 0.25465 0.4051 0.77031 0.0
H3519 H 0.24156 0.4032 0.802 0.0
H3520 H 0.24217 0.39822 0.7323 0.0
H3521 H 0.26899 0.38121 0.77701 0.0
H3522 H 0.27117 0.36465 0.80344 0.0
H3523 H 0.24706 0.3243 0.76627 0.0
H3524 H 0.24449 0.34056 0.73973 0.0
H3525 H 0.29205 0.40298 0.65155 0.0
H3526 H 0.28204 0.40482 0.68407 0.0
H3527 H 0.24825 0.35539 0.68281 0.0
H3528 H 0.2581 0.35345 0.65039 0.0
H3529 H 0.265 0.36446 0.71819 0.0
H3530 H 0.23618 0.38076 0.67502 0.0
H3531 H 0.23301 0.39683 0.64878 0.0
H3532 H 0.26054 0.43824 0.68317 0.0
H3533 H 0.26406 0.42241 0.70951 0.0
C3534 C 0.22071 0.36486 0.78847 0.0
C3535 C 0.22542 0.37822 0.80011 0.0
C3536 C 0.22812 0.36597 0.77046 0.0
C3537 C 0.24045 0.38043 0.76376 0.0
C3538 C 0.24519 0.39383 0.77529 0.0
C3539 C 0.23779 0.39271 0.79341 0.0
C3540 C 0.2481 0.38145 0.74452 0.0
C3541 C 0.24746 0.39109 0.7293 0.0
C3542 C 0.25471 0.37189 0.74058 0.0
C3543 C 0.25644 0.3621 0.75642 0.0
C3544 C 0.26405 0.36878 0.77451 0.0
C3545 C 0.26537 0.35945 0.78951 0.0
C3546 C 0.25923 0.34343 0.78655 0.0
C3547 C 0.2518 0.33671 0.76855 0.0
C3548 C 0.25043 0.34599 0.75351 0.0
C3549 C 0.28238 0.39255 0.65811 0.0
C3550 C 0.27587 0.37807 0.64842 0.0
C3551 C 0.27668 0.39362 0.67667 0.0
C3552 C 0.26444 0.38023 0.68582 0.0
C3553 C 0.25775 0.36584 0.67601 0.0
C3554 C 0.26334 0.36478 0.65744 0.0
C3555 C 0.25883 0.38103 0.70589 0.0
C3556 C 0.25989 0.37174 0.72126 0.0
C3557 C 0.25261 0.39089 0.70996 0.0
C3558 C 0.25055 0.40043 0.69412 0.0
C3559 C 0.24169 0.39331 0.6769 0.0
C3560 C 0.2398 0.40237 0.66203 0.0
C3561 C 0.24661 0.41855 0.66428 0.0
C3562 C 0.2553 0.4257 0.68143 0.0
C3563 C 0.25724 0.41669 0.69634 0.0
H3564 H 0.24512 0.42555 0.65276 0.0
H3565 H 0.26022 0.33621 0.79818 0.0
H3566 H 0.69598 0.89483 0.77538 0.0
H3567 H 0.69261 0.90563 0.74382 0.0
H3568 H 0.6669 0.92395 0.77404 0.0
H3569 H 0.67007 0.91302 0.80567 0.0
H3570 H 0.65317 0.91156 0.73917 0.0
H3571 H 0.70585 0.94749 0.76087 0.0
H3572 H 0.73274 0.95515 0.77183 0.0
H3573 H 0.74085 0.9388 0.71679 0.0
H3574 H 0.71392 0.93086 0.7056 0.0
H3575 H 0.65781 0.96944 0.67324 0.0
H3576 H 0.66107 0.95524 0.70105 0.0
H3577 H 0.68549 0.93967 0.6631 0.0
H3578 H 0.68246 0.95427 0.6348 0.0
H3579 H 0.6998 0.94853 0.6996 0.0
H3580 H 0.64753 0.91446 0.6769 0.0
H3581 H 0.62072 0.90723 0.6661 0.0
H3582 H 0.61181 0.9202 0.72316 0.0
H3583 H 0.63864 0.92772 0.73422 0.0
C3584 C 0.68949 0.90104 0.77535 0.0
C3585 C 0.68333 0.90305 0.79319 0.0
C3586 C 0.68766 0.90732 0.75724 0.0
C3587 C 0.67971 0.91586 0.75649 0.0
C3588 C 0.67314 0.91747 0.77416 0.0
C3589 C 0.67496 0.9112 0.79229 0.0
C3590 C 0.67835 0.92324 0.7374 0.0
C3591 C 0.66339 0.91975 0.73064 0.0
C3592 C 0.69162 0.9336 0.72583 0.0
C3593 C 0.70782 0.93842 0.7325 0.0
C3594 C 0.71333 0.94542 0.75117 0.0
C3595 C 0.72858 0.94983 0.75741 0.0
C3596 C 0.73848 0.94742 0.74504 0.0
C3597 C 0.73316 0.94063 0.72637 0.0
C3598 C 0.71791 0.93619 0.72007 0.0
C3599 C 0.66387 0.96301 0.6706 0.0
C3600 C 0.66976 0.96296 0.65156 0.0
C3601 C 0.66567 0.95479 0.68664 0.0
C3602 C 0.67326 0.94608 0.68422 0.0
C3603 C 0.67948 0.94621 0.66536 0.0
C3604 C 0.67771 0.95453 0.64917 0.0
C3605 C 0.67463 0.93703 0.70156 0.0
C3606 C 0.68957 0.94021 0.70801 0.0
C3607 C 0.66134 0.92637 0.71288 0.0
C3608 C 0.64514 0.92175 0.70634 0.0
C3609 C 0.63989 0.91586 0.68711 0.0
C3610 C 0.62468 0.9117 0.68094 0.0
C3611 C 0.61458 0.91328 0.69392 0.0
C3612 C 0.61965 0.91899 0.71312 0.0
C3613 C 0.63485 0.92318 0.71935 0.0
H3614 H 0.60281 0.91006 0.68912 0.0
H3615 H 0.75028 0.95084 0.7499 0.0
H3616 H 0.13176 0.86068 0.78236 0.0
H3617 H 0.12099 0.84778 0.75042 0.0
H3618 H 0.1377 0.81552 0.76301 0.0
H3619 H 0.14838 0.82833 0.79501 0.0
H3620 H 0.14435 0.82806 0.72391 0.0
H3621 H 0.10095 0.80229 0.76794 0.0
H3622 H 0.08169 0.79974 0.79302 0.0
H3623 H 0.06478 0.82263 0.75308 0.0
H3624 H 0.08413 0.82555 0.72784 0.0
H3625 H 0.09958 0.77132 0.6496 0.0
H3626 H 0.11145 0.78462 0.68092 0.0
H3627 H 0.09319 0.81587 0.67058 0.0
H3628 H 0.08132 0.80267 0.63926 0.0
H3629 H 0.08748 0.80364 0.70875 0.0
H3630 H 0.13149 0.82893 0.66436 0.0
H3631 H 0.15034 0.83008 0.63959 0.0
H3632 H 0.16585 0.80672 0.68085 0.0
H3633 H 0.14692 0.80524 0.7058 0.0
C3634 C 0.1332 0.8509 0.77824 0.0
C3635 C 0.1409 0.8455 0.79117 0.0
C3636 C 0.12698 0.84349 0.76006 0.0
C3637 C 0.1285 0.83065 0.75436 0.0
C3638 C 0.13639 0.8254 0.76711 0.0
C3639 C 0.14239 0.83265 0.78543 0.0
C3640 C 0.12178 0.82268 0.73514 0.0
C3641 C 0.13189 0.82256 0.72067 0.0
C3642 C 0.10556 0.8157 0.73082 0.0
C3643 C 0.09411 0.81429 0.74607 0.0
C3644 C 0.09326 0.80696 0.76459 0.0
C3645 C 0.0823 0.8054 0.77881 0.0
C3646 C 0.07202 0.81101 0.77464 0.0
C3647 C 0.07275 0.81828 0.75628 0.0
C3648 C 0.08371 0.81989 0.742 0.0
C3649 C 0.09819 0.7811 0.6539 0.0
C3650 C 0.08952 0.78595 0.64188 0.0
C3651 C 0.10501 0.78872 0.67181 0.0
C3652 C 0.10327 0.80129 0.67809 0.0
C3653 C 0.09468 0.80619 0.66607 0.0
C3654 C 0.08797 0.79867 0.6481 0.0
C3655 C 0.11007 0.80912 0.6974 0.0
C3656 C 0.09995 0.8092 0.71193 0.0
C3657 C 0.12627 0.81595 0.70183 0.0
C3658 C 0.13767 0.81683 0.68687 0.0
C3659 C 0.13882 0.82392 0.66809 0.0
C3660 C 0.14954 0.82466 0.65403 0.0
C3661 C 0.15926 0.81844 0.65862 0.0
C3662 C 0.1583 0.81151 0.67731 0.0
C3663 C 0.14758 0.81073 0.69142 0.0
H3664 H 0.16755 0.81903 0.64772 0.0
H3665 H 0.06344 0.80965 0.78561 0.0
H3666 H 0.39838 0.20037 0.64871 0.0
H3667 H 0.39166 0.18465 0.61875 0.0
H3668 H 0.34824 0.18524 0.61362 0.0
H3669 H 0.35497 0.20113 0.64405 0.0
H3670 H 0.34605 0.15561 0.60253 0.0
H3671 H 0.37722 0.21061 0.58669 0.0
H3672 H 0.39975 0.23725 0.5909 0.0
H3673 H 0.43149 0.22062 0.57777 0.0
H3674 H 0.40915 0.19382 0.57378 0.0
H3675 H 0.338 0.1321 0.50014 0.0
H3676 H 0.33869 0.14469 0.5316 0.0
H3677 H 0.38774 0.15919 0.53858 0.0
H3678 H 0.38724 0.14737 0.50671 0.0
H3679 H 0.38482 0.18195 0.54836 0.0
H3680 H 0.35499 0.12715 0.56646 0.0
H3681 H 0.33325 0.09989 0.56388 0.0
H3682 H 0.29992 0.1151 0.57387 0.0
H3683 H 0.32148 0.14248 0.57628 0.0
C3684 C 0.38725 0.19697 0.64145 0.0
C3685 C 0.37729 0.20218 0.64869 0.0
C3686 C 0.38343 0.18797 0.62426 0.0
C3687 C 0.36959 0.18399 0.61363 0.0
C3688 C 0.35903 0.18822 0.6215 0.0
C3689 C 0.36285 0.19726 0.63893 0.0
C3690 C 0.36706 0.17658 0.59361 0.0
C3691 C 0.35436 0.16144 0.59054 0.0
C3692 C 0.37807 0.18402 0.57805 0.0
C3693 C 0.39151 0.20019 0.58006 0.0
C3694 C 0.38901 0.21262 0.58481 0.0
C3695 C 0.40174 0.22775 0.58715 0.0
C3696 C 0.41704 0.23063 0.58463 0.0
C3697 C 0.41963 0.21838 0.57972 0.0
C3698 C 0.40694 0.20322 0.57739 0.0
C3699 C 0.34891 0.13794 0.50843 0.0
C3700 C 0.36256 0.13871 0.50085 0.0
C3701 C 0.34929 0.14507 0.52657 0.0
C3702 C 0.36323 0.15279 0.53788 0.0
C3703 C 0.37681 0.15342 0.5303 0.0
C3704 C 0.37652 0.14659 0.51202 0.0
C3705 C 0.36397 0.16067 0.55723 0.0
C3706 C 0.37638 0.17602 0.5602 0.0
C3707 C 0.35278 0.15331 0.57272 0.0
C3708 C 0.33983 0.13687 0.57133 0.0
C3709 C 0.34302 0.12469 0.56797 0.0
C3710 C 0.33073 0.10922 0.56656 0.0
C3711 C 0.31521 0.10578 0.56865 0.0
C3712 C 0.31195 0.11779 0.57222 0.0
C3713 C 0.32419 0.13328 0.57362 0.0
H3714 H 0.30571 0.09379 0.56756 0.0
H3715 H 0.42688 0.24235 0.58646 0.0
H3716 H 0.9059 0.23134 0.62832 0.0
H3717 H 0.91798 0.24932 0.59985 0.0
H3718 H 0.8721 0.23471 0.57514 0.0
H3719 H 0.86001 0.21681 0.6036 0.0
H3720 H 0.89393 0.23655 0.54683 0.0
H3721 H 0.88927 0.26747 0.59775 0.0
H3722 H 0.89285 0.27804 0.63166 0.0
H3723 H 0.94286 0.3008 0.6251 0.0
H3724 H 0.93959 0.29009 0.59129 0.0
H3725 H 0.92966 0.31809 0.49383 0.0
H3726 H 0.91509 0.30029 0.52163 0.0
H3727 H 0.9403 0.27543 0.51353 0.0
H3728 H 0.95494 0.29315 0.48602 0.0
H3729 H 0.92652 0.29378 0.5579 0.0
H3730 H 0.91359 0.23627 0.51999 0.0
H3731 H 0.90916 0.2253 0.4862 0.0
H3732 H 0.8922 0.25593 0.46656 0.0
H3733 H 0.89632 0.26691 0.50029 0.0
C3734 C 0.89843 0.23184 0.61669 0.0
C3735 C 0.88202 0.22271 0.61816 0.0
C3736 C 0.90532 0.24218 0.60053 0.0
C3737 C 0.89592 0.24342 0.58547 0.0
C3738 C 0.87956 0.23396 0.58661 0.0
C3739 C 0.87267 0.2238 0.60289 0.0
C3740 C 0.90312 0.25478 0.5687 0.0
C3741 C 0.90106 0.24906 0.54925 0.0
C3742 C 0.91217 0.27112 0.57185 0.0
C3743 C 0.91418 0.27785 0.59204 0.0
C3744 C 0.90104 0.27463 0.60359 0.0
C3745 C 0.903 0.28065 0.62279 0.0
C3746 C 0.91807 0.29006 0.63054 0.0
C3747 C 0.9312 0.2935 0.61908 0.0
C3748 C 0.92929 0.28745 0.59989 0.0
C3749 C 0.93206 0.30881 0.49798 0.0
C3750 C 0.94343 0.30701 0.48771 0.0
C3751 C 0.9238 0.29872 0.5139 0.0
C3752 C 0.92658 0.28651 0.51958 0.0
C3753 C 0.9379 0.28471 0.50932 0.0
C3754 C 0.94627 0.29487 0.49361 0.0
C3755 C 0.91763 0.2755 0.53609 0.0
C3756 C 0.91936 0.28128 0.55549 0.0
C3757 C 0.90816 0.2592 0.53289 0.0
C3758 C 0.90541 0.25251 0.51263 0.0
C3759 C 0.90885 0.24061 0.50848 0.0
C3760 C 0.9064 0.2344 0.48933 0.0
C3761 C 0.90045 0.23995 0.47423 0.0
C3762 C 0.89687 0.25168 0.47825 0.0
C3763 C 0.89928 0.25792 0.49737 0.0
H3764 H 0.89857 0.23513 0.45941 0.0
H3765 H 0.91957 0.29471 0.64541 0.0
H3766 H 0.81685 0.69728 0.61488 0.0
H3767 H 0.80654 0.69454 0.58102 0.0
H3768 H 0.83851 0.74363 0.56949 0.0
H3769 H 0.84898 0.74645 0.60343 0.0
H3770 H 0.80896 0.73439 0.55608 0.0
H3771 H 0.84594 0.71606 0.55144 0.0
H3772 H 0.85757 0.69977 0.56116 0.0
H3773 H 0.81405 0.6581 0.54804 0.0
H3774 H 0.80209 0.67413 0.53851 0.0
H3775 H 0.7973 0.73418 0.45373 0.0
H3776 H 0.81123 0.73587 0.48479 0.0
H3777 H 0.77942 0.68679 0.49666 0.0
H3778 H 0.7656 0.68492 0.46528 0.0
H3779 H 0.8093 0.6959 0.50961 0.0
H3780 H 0.77187 0.7132 0.51555 0.0
H3781 H 0.75931 0.72866 0.50603 0.0
H3782 H 0.80236 0.77128 0.51765 0.0
H3783 H 0.81527 0.75605 0.52688 0.0
C3784 C 0.82179 0.70748 0.60511 0.0
C3785 C 0.83385 0.72206 0.61178 0.0
C3786 C 0.81588 0.70589 0.58577 0.0
C3787 C 0.82196 0.71882 0.57266 0.0
C3788 C 0.83372 0.73349 0.57938 0.0
C3789 C 0.83963 0.7351 0.59878 0.0
C3790 C 0.81588 0.71706 0.55202 0.0
C3791 C 0.80927 0.72617 0.54581 0.0
C3792 C 0.81586 0.70595 0.53887 0.0
C3793 C 0.82308 0.6963 0.54442 0.0
C3794 C 0.83882 0.70342 0.55076 0.0
C3795 C 0.84547 0.69423 0.55622 0.0
C3796 C 0.83654 0.67791 0.55526 0.0
C3797 C 0.82095 0.67074 0.54879 0.0
C3798 C 0.81423 0.67987 0.54334 0.0
C3799 C 0.79348 0.72367 0.46274 0.0
C3800 C 0.78023 0.70948 0.45728 0.0
C3801 C 0.80142 0.72466 0.48048 0.0
C3802 C 0.7961 0.71155 0.49322 0.0
C3803 C 0.78364 0.69706 0.48707 0.0
C3804 C 0.77575 0.69602 0.46916 0.0
C3805 C 0.80255 0.71336 0.51365 0.0
C3806 C 0.80911 0.7042 0.51985 0.0
C3807 C 0.80239 0.7243 0.52691 0.0
C3808 C 0.79458 0.73349 0.52172 0.0
C3809 C 0.77869 0.72587 0.51595 0.0
C3810 C 0.77151 0.73459 0.51061 0.0
C3811 C 0.78004 0.75094 0.51119 0.0
C3812 C 0.79577 0.75861 0.51717 0.0
C3813 C 0.80303 0.74994 0.52247 0.0
H3814 H 0.77446 0.75768 0.50705 0.0
H3815 H 0.84171 0.67082 0.55949 0.0
H3816 H 0.79014 0.65066 0.22252 0.0
H3817 H 0.77793 0.65302 0.25295 0.0
H3818 H 0.78863 0.69946 0.23446 0.0
H3819 H 0.80032 0.69706 0.20395 0.0
H3820 H 0.79952 0.6975 0.27311 0.0
H3821 H 0.75243 0.67155 0.23254 0.0
H3822 H 0.73294 0.65009 0.21174 0.0
H3823 H 0.7228 0.61744 0.2603 0.0
H3824 H 0.7424 0.63869 0.28131 0.0
H3825 H 0.76369 0.72037 0.34304 0.0
H3826 H 0.77031 0.71323 0.31145 0.0
H3827 H 0.74951 0.66515 0.33178 0.0
H3828 H 0.74227 0.67215 0.36318 0.0
H3829 H 0.74377 0.66582 0.29344 0.0
H3830 H 0.78953 0.69033 0.33441 0.0
H3831 H 0.80943 0.71069 0.35608 0.0
H3832 H 0.82305 0.74444 0.30817 0.0
H3833 H 0.80308 0.72432 0.28628 0.0
C3834 C 0.78964 0.66125 0.22477 0.0
C3835 C 0.79646 0.67377 0.21092 0.0
C3836 C 0.7827 0.66259 0.24217 0.0
C3837 C 0.78249 0.67646 0.24594 0.0
C3838 C 0.78881 0.68872 0.23187 0.0
C3839 C 0.79561 0.68736 0.21449 0.0
C3840 C 0.77661 0.67875 0.26504 0.0
C3841 C 0.7873 0.69069 0.27749 0.0
C3842 C 0.76081 0.66943 0.27102 0.0
C3843 C 0.74901 0.65668 0.25841 0.0
C3844 C 0.74616 0.65977 0.23872 0.0
C3845 C 0.73506 0.64765 0.22691 0.0
C3846 C 0.72668 0.6324 0.23467 0.0
C3847 C 0.72933 0.62925 0.25429 0.0
C3848 C 0.74042 0.64133 0.26616 0.0
C3849 C 0.76037 0.70825 0.34069 0.0
C3850 C 0.75262 0.69685 0.35563 0.0
C3851 C 0.76422 0.70418 0.32267 0.0
C3852 C 0.76077 0.68873 0.31944 0.0
C3853 C 0.75237 0.67717 0.33398 0.0
C3854 C 0.74827 0.68118 0.35192 0.0
C3855 C 0.76662 0.68489 0.30132 0.0
C3856 C 0.756 0.67261 0.28914 0.0
C3857 C 0.78259 0.69372 0.29569 0.0
C3858 C 0.79471 0.70584 0.30876 0.0
C3859 C 0.7967 0.70212 0.32853 0.0
C3860 C 0.808 0.71361 0.34085 0.0
C3861 C 0.81747 0.72886 0.33352 0.0
C3862 C 0.8157 0.73263 0.31384 0.0
C3863 C 0.8044 0.72118 0.30146 0.0
H3864 H 0.82621 0.73774 0.34308 0.0
H3865 H 0.71809 0.62304 0.22551 0.0
H3866 H 0.3728 0.21643 0.24807 0.0
H3867 H 0.37304 0.20617 0.28158 0.0
H3868 H 0.33302 0.16177 0.26622 0.0
H3869 H 0.33299 0.17175 0.23241 0.0
H3870 H 0.33499 0.17807 0.30841 0.0
H3871 H 0.3604 0.15878 0.26364 0.0
H3872 H 0.37987 0.16311 0.23785 0.0
H3873 H 0.41707 0.19492 0.27621 0.0
H3874 H 0.39778 0.19106 0.30207 0.0
H3875 H 0.33454 0.12925 0.38773 0.0
H3876 H 0.33269 0.14076 0.35597 0.0
H3877 H 0.38277 0.17225 0.35685 0.0
H3878 H 0.38471 0.16008 0.38811 0.0
H3879 H 0.37585 0.16352 0.32169 0.0
H3880 H 0.35328 0.18349 0.36662 0.0
H3881 H 0.33569 0.18285 0.39293 0.0
H3882 H 0.29559 0.15426 0.35628 0.0
H3883 H 0.31295 0.15457 0.32984 0.0
C3884 C 0.36385 0.20457 0.25189 0.0
C3885 C 0.35284 0.19493 0.23751 0.0
C3886 C 0.36406 0.19871 0.27105 0.0
C3887 C 0.35307 0.1832 0.27639 0.0
C3888 C 0.34158 0.17378 0.26243 0.0
C3889 C 0.34159 0.17951 0.24311 0.0
C3890 C 0.35422 0.17655 0.29608 0.0
C3891 C 0.34376 0.17468 0.31131 0.0
C3892 C 0.36606 0.17271 0.30008 0.0
C3893 C 0.37764 0.17478 0.28468 0.0
C3894 C 0.37272 0.16682 0.26649 0.0
C3895 C 0.38371 0.16916 0.25188 0.0
C3896 C 0.39968 0.1793 0.25537 0.0
C3897 C 0.40469 0.18709 0.27351 0.0
C3898 C 0.39374 0.18483 0.28815 0.0
C3899 C 0.34515 0.13871 0.38124 0.0
C3900 C 0.35977 0.14379 0.39056 0.0
C3901 C 0.34408 0.14539 0.36305 0.0
C3902 C 0.35754 0.15768 0.35395 0.0
C3903 C 0.37215 0.16282 0.36339 0.0
C3904 C 0.37327 0.1559 0.38137 0.0
C3905 C 0.35646 0.16479 0.33437 0.0
C3906 C 0.36699 0.16684 0.31904 0.0
C3907 C 0.3449 0.16916 0.33047 0.0
C3908 C 0.33441 0.16893 0.34633 0.0
C3909 C 0.34071 0.17697 0.36423 0.0
C3910 C 0.33078 0.17668 0.37916 0.0
C3911 C 0.31453 0.16849 0.3763 0.0
C3912 C 0.30818 0.16059 0.35849 0.0
C3913 C 0.31806 0.16083 0.34351 0.0
H3914 H 0.30687 0.16828 0.38788 0.0
H3915 H 0.40818 0.18109 0.24404 0.0
H3916 H 0.88709 0.27359 0.23265 0.0
H3917 H 0.90316 0.28463 0.26228 0.0
H3918 H 0.86849 0.29429 0.2862 0.0
H3919 H 0.85195 0.28278 0.25691 0.0
H3920 H 0.90055 0.31938 0.29046 0.0
H3921 H 0.86865 0.26394 0.30367 0.0
H3922 H 0.85756 0.23597 0.29604 0.0
H3923 H 0.90391 0.24204 0.29465 0.0
H3924 H 0.91529 0.27012 0.30198 0.0
H3925 H 0.92943 0.33391 0.39019 0.0
H3926 H 0.91338 0.32483 0.35997 0.0
H3927 H 0.94029 0.30384 0.34055 0.0
H3928 H 0.95588 0.31229 0.37119 0.0
H3929 H 0.91152 0.28455 0.33377 0.0
H3930 H 0.94397 0.33948 0.31991 0.0
H3931 H 0.956 0.36781 0.3259 0.0
H3932 H 0.91037 0.3635 0.32686 0.0
H3933 H 0.89805 0.33509 0.32111 0.0
C3934 C 0.88269 0.2779 0.24415 0.0
C3935 C 0.86794 0.27695 0.24226 0.0
C3936 C 0.89202 0.28434 0.2611 0.0
C3937 C 0.88696 0.29015 0.27653 0.0
C3938 C 0.87261 0.28986 0.27445 0.0
C3939 C 0.86316 0.28326 0.25758 0.0
C3940 C 0.8964 0.29595 0.29511 0.0
C3941 C 0.90281 0.31176 0.30011 0.0
C3942 C 0.89966 0.28608 0.30738 0.0
C3943 C 0.89283 0.26916 0.30319 0.0
C3944 C 0.87648 0.25934 0.30158 0.0
C3945 C 0.87014 0.24346 0.29734 0.0
C3946 C 0.88003 0.23724 0.29481 0.0
C3947 C 0.89627 0.24688 0.29658 0.0
C3948 C 0.90267 0.26277 0.3008 0.0
C3949 C 0.93196 0.32742 0.37943 0.0
C3950 C 0.94395 0.32384 0.38308 0.0
C3951 C 0.92282 0.3223 0.36206 0.0
C3952 C 0.92572 0.31382 0.3477 0.0
C3953 C 0.93776 0.31033 0.35133 0.0
C3954 C 0.94672 0.31521 0.36885 0.0
C3955 C 0.91592 0.30815 0.32922 0.0
C3956 C 0.90936 0.29229 0.32421 0.0
C3957 C 0.91271 0.31805 0.31681 0.0
C3958 C 0.92008 0.33513 0.32028 0.0
C3959 C 0.93649 0.34455 0.32155 0.0
C3960 C 0.94337 0.36063 0.32487 0.0
C3961 C 0.93395 0.36744 0.32682 0.0
C3962 C 0.91764 0.3582 0.32538 0.0
C3963 C 0.91071 0.34211 0.32207 0.0
H3964 H 0.9393 0.37989 0.32939 0.0
H3965 H 0.8751 0.22494 0.29152 0.0
H3966 H 0.35603 0.23309 0.74847 0.0
H3967 H 0.3488 0.24131 0.77921 0.0
H3968 H 0.39314 0.2845 0.77819 0.0
H3969 H 0.40041 0.27642 0.74814 0.0
H3970 H 0.38798 0.27303 0.81438 0.0
H3971 H 0.35754 0.28215 0.76445 0.0
H3972 H 0.33792 0.27475 0.73747 0.0
H3973 H 0.30216 0.24128 0.7765 0.0
H3974 H 0.32162 0.24835 0.80366 0.0
H3975 H 0.37741 0.32351 0.87852 0.0
H3976 H 0.38111 0.31085 0.84965 0.0
H3977 H 0.33658 0.26937 0.8612 0.0
H3978 H 0.33279 0.28198 0.89011 0.0
H3979 H 0.33995 0.27694 0.82148 0.0
H3980 H 0.37038 0.26964 0.87222 0.0
H3981 H 0.39015 0.27758 0.89906 0.0
H3982 H 0.42621 0.30807 0.85818 0.0
H3983 H 0.40661 0.30048 0.83114 0.0
C3984 C 0.36418 0.24434 0.7548 0.0
C3985 C 0.37883 0.25402 0.74574 0.0
C3986 C 0.36003 0.24907 0.77237 0.0
C3987 C 0.37041 0.2636 0.78116 0.0
C3988 C 0.38493 0.27322 0.77196 0.0
C3989 C 0.38905 0.26854 0.75459 0.0
C3990 C 0.36659 0.269 0.8 0.0
C3991 C 0.37751 0.27398 0.8158 0.0
C3992 C 0.35276 0.26991 0.8023 0.0
C3993 C 0.34107 0.26564 0.786 0.0
C3994 C 0.34552 0.27311 0.76722 0.0
C3995 C 0.33442 0.269 0.75191 0.0
C3996 C 0.31881 0.25751 0.75525 0.0
C3997 C 0.31426 0.25015 0.77393 0.0
C3998 C 0.32531 0.25421 0.78929 0.0
C3999 C 0.36843 0.31166 0.87502 0.0
C4000 C 0.35484 0.30377 0.88678 0.0
C4001 C 0.37057 0.3044 0.85847 0.0
C4002 C 0.35918 0.28905 0.85322 0.0
C4003 C 0.34555 0.28119 0.86487 0.0
C4004 C 0.34345 0.28841 0.8815 0.0
C4005 C 0.36153 0.28131 0.83557 0.0
C4006 C 0.35034 0.27586 0.82008 0.0
C4007 C 0.37516 0.28002 0.83348 0.0
C4008 C 0.38699 0.28459 0.84969 0.0
C4009 C 0.3825 0.27813 0.86899 0.0
C4010 C 0.39369 0.28255 0.88423 0.0
C4011 C 0.40942 0.29335 0.88034 0.0
C4012 C 0.41402 0.29972 0.86117 0.0
C4013 C 0.40287 0.29535 0.84588 0.0
H4014 H 0.41807 0.29676 0.89216 0.0
H4015 H 0.31024 0.25435 0.74338 0.0
H4016 H 0.84247 0.18078 0.77271 0.0
H4017 H 0.82488 0.16967 0.80125 0.0
H4018 H 0.78499 0.14966 0.76147 0.0
H4019 H 0.8025 0.16067 0.73287 0.0
H4020 H 0.78003 0.16376 0.79226 0.0
H4021 H 0.79824 0.127 0.78419 0.0
H4022 H 0.81817 0.11896 0.7812 0.0
H4023 H 0.8363 0.13735 0.83919 0.0
H4024 H 0.81659 0.14569 0.84241 0.0
H4025 H 0.72067 0.1086 0.85574 0.0
H4026 H 0.73997 0.12256 0.82976 0.0
H4027 H 0.77712 0.13928 0.8736 0.0
H4028 H 0.75781 0.12498 0.89981 0.0
H4029 H 0.78468 0.1285 0.8422 0.0
H4030 H 0.76554 0.16397 0.85117 0.0
H4031 H 0.74567 0.17209 0.85415 0.0
H4032 H 0.72945 0.15644 0.79468 0.0
H4033 H 0.74909 0.14802 0.79143 0.0
C4034 C 0.82998 0.17386 0.76999 0.0
C4035 C 0.82394 0.17164 0.75043 0.0
C4036 C 0.81991 0.16754 0.78635 0.0
C4037 C 0.80359 0.15875 0.78353 0.0
C4038 C 0.79753 0.15647 0.76404 0.0
C4039 C 0.80757 0.1628 0.74769 0.0
C4040 C 0.79279 0.15206 0.80086 0.0
C4041 C 0.78094 0.15591 0.80306 0.0
C4042 C 0.79425 0.14219 0.81532 0.0
C4043 C 0.80605 0.13712 0.81345 0.0
C4044 C 0.80655 0.12944 0.79624 0.0
C4045 C 0.8178 0.12481 0.79451 0.0
C4046 C 0.82852 0.12768 0.80997 0.0
C4047 C 0.828 0.13515 0.82721 0.0
C4048 C 0.81679 0.13982 0.829 0.0
C4049 C 0.73292 0.11538 0.85998 0.0
C4050 C 0.73765 0.11566 0.87995 0.0
C4051 C 0.74397 0.12343 0.84505 0.0
C4052 C 0.76003 0.13214 0.84968 0.0
C4053 C 0.7648 0.13266 0.86964 0.0
C4054 C 0.75373 0.12454 0.88463 0.0
C4055 C 0.77179 0.14006 0.83352 0.0
C4056 C 0.78383 0.13644 0.83151 0.0
C4057 C 0.77052 0.15016 0.81925 0.0
C4058 C 0.75871 0.15525 0.82112 0.0
C4059 C 0.75766 0.16215 0.83878 0.0
C4060 C 0.74645 0.16683 0.8405 0.0
C4061 C 0.73628 0.16475 0.82463 0.0
C4062 C 0.73733 0.15803 0.80697 0.0
C4063 C 0.74851 0.15332 0.80517 0.0
H4064 H 0.72761 0.16838 0.82599 0.0
H4065 H 0.83722 0.12409 0.80861 0.0
H4066 H 0.90271 0.72508 0.72289 0.0
H4067 H 0.92018 0.72419 0.74845 0.0
H4068 H 0.88972 0.72383 0.79437 0.0
H4069 H 0.87219 0.72479 0.76882 0.0
H4070 H 0.92091 0.74248 0.80382 0.0
H4071 H 0.88708 0.69013 0.78025 0.0
H4072 H 0.87475 0.66991 0.7545 0.0
H4073 H 0.92006 0.67823 0.73665 0.0
H4074 H 0.9327 0.6987 0.76208 0.0
H4075 H 0.95117 0.71584 0.88228 0.0
H4076 H 0.93369 0.71823 0.85801 0.0
H4077 H 0.95998 0.71392 0.80995 0.0
H4078 H 0.97714 0.71099 0.83409 0.0
H4079 H 0.93021 0.69742 0.80206 0.0
H4080 H 0.96437 0.75 0.82412 0.0
H4081 H 0.97743 0.77101 0.84878 0.0
H4082 H 0.93264 0.76306 0.86846 0.0
H4083 H 0.9193 0.74186 0.84408 0.0
C4084 C 0.89976 0.72486 0.73843 0.0
C4085 C 0.88598 0.72481 0.74387 0.0
C4086 C 0.90975 0.72436 0.753 0.0
C4087 C 0.90606 0.72362 0.77327 0.0
C4088 C 0.89273 0.72434 0.77879 0.0
C4089 C 0.88275 0.72493 0.7642 0.0
C4090 C 0.91575 0.72137 0.78861 0.0
C4091 C 0.9228 0.73254 0.80363 0.0
C4092 C 0.91845 0.70855 0.78804 0.0
C4093 C 0.91085 0.69605 0.77296 0.0
C4094 C 0.89443 0.68772 0.77075 0.0
C4095 C 0.88738 0.67622 0.75621 0.0
C4096 C 0.89663 0.67283 0.7439 0.0
C4097 C 0.91293 0.68089 0.74617 0.0
C4098 C 0.92004 0.69244 0.76066 0.0
C4099 C 0.95319 0.71536 0.86654 0.0
C4100 C 0.96558 0.71328 0.86011 0.0
C4101 C 0.94325 0.71681 0.85268 0.0
C4102 C 0.94569 0.71653 0.83214 0.0
C4103 C 0.95788 0.7142 0.82572 0.0
C4104 C 0.9677 0.71254 0.83955 0.0
C4105 C 0.93555 0.71862 0.81727 0.0
C4106 C 0.92835 0.70738 0.80233 0.0
C4107 C 0.93284 0.73145 0.81782 0.0
C4108 C 0.94084 0.74424 0.83242 0.0
C4109 C 0.9573 0.75266 0.83381 0.0
C4110 C 0.96476 0.76461 0.84772 0.0
C4111 C 0.95587 0.76834 0.86022 0.0
C4112 C 0.93951 0.76015 0.85879 0.0
C4113 C 0.932 0.74817 0.84492 0.0
H4114 H 0.96166 0.77759 0.87098 0.0
H4115 H 0.89115 0.66393 0.73264 0.0
H4116 H 0.84545 0.67208 0.06329 0.0
H4117 H 0.86548 0.67736 0.03843 0.0
H4118 H 0.9016 0.70734 0.0797 0.0
H4119 H 0.88181 0.70184 0.10484 0.0
H4120 H 0.9052 0.72085 0.04193 0.0
H4121 H 0.89653 0.67229 0.07144 0.0
H4122 H 0.8806 0.64472 0.08243 0.0
H4123 H 0.86507 0.63109 0.02222 0.0
H4124 H 0.88074 0.65863 0.01091 0.0
H4125 H 0.97152 0.72975 0.98906 0.0
H4126 H 0.95161 0.72462 0.01415 0.0
H4127 H 0.91596 0.68974 0.97623 0.0
H4128 H 0.93584 0.6945 0.95142 0.0
H4129 H 0.91202 0.67878 0.01257 0.0
H4130 H 0.92011 0.72681 0.98265 0.0
H4131 H 0.93534 0.75431 0.97111 0.0
H4132 H 0.95109 0.76892 0.03102 0.0
H4133 H 0.93611 0.74146 0.04288 0.0
C4134 C 0.85764 0.67965 0.06724 0.0
C4135 C 0.86191 0.68655 0.08617 0.0
C4136 C 0.86908 0.6827 0.05294 0.0
C4137 C 0.88503 0.69273 0.05724 0.0
C4138 C 0.88935 0.69964 0.07604 0.0
C4139 C 0.87795 0.69651 0.09039 0.0
C4140 C 0.89722 0.69613 0.0421 0.0
C4141 C 0.90684 0.71169 0.03567 0.0
C4142 C 0.89907 0.68412 0.03361 0.0
C4143 C 0.88968 0.66755 0.04036 0.0
C4144 C 0.88961 0.66344 0.06057 0.0
C4145 C 0.88065 0.64781 0.06685 0.0
C4146 C 0.8718 0.63617 0.05304 0.0
C4147 C 0.87192 0.64013 0.03291 0.0
C4148 C 0.88085 0.65574 0.02655 0.0
C4149 C 0.95943 0.72106 0.98603 0.0
C4150 C 0.95526 0.71255 0.96825 0.0
C4151 C 0.94803 0.71817 1.00036 0.0
C4152 C 0.93222 0.70689 0.99702 0.0
C4153 C 0.92806 0.69847 0.97919 0.0
C4154 C 0.93944 0.70125 0.96497 0.0
C4155 C 0.92004 0.70354 0.01226 0.0
C4156 C 0.9104 0.68797 0.01876 0.0
C4157 C 0.91809 0.71554 0.0207 0.0
C4158 C 0.92711 0.73206 0.01361 0.0
C4159 C 0.92692 0.73587 0.99334 0.0
C4160 C 0.93549 0.75145 0.98675 0.0
C4161 C 0.94421 0.76335 1.00032 0.0
C4162 C 0.94435 0.75969 0.02052 0.0
C4163 C 0.93581 0.74412 0.02719 0.0
H4164 H 0.95084 0.77541 0.99519 0.0
H4165 H 0.86487 0.62408 0.05794 0.0
H4166 H 0.34162 0.25225 0.15509 0.0
H4167 H 0.33818 0.26248 0.12303 0.0
H4168 H 0.36038 0.24038 0.09304 0.0
H4169 H 0.36363 0.22986 0.12508 0.0
H4170 H 0.37251 0.27263 0.08198 0.0
H4171 H 0.32307 0.22522 0.08655 0.0
H4172 H 0.29843 0.20567 0.10262 0.0
H4173 H 0.28417 0.24019 0.1074 0.0
H4174 H 0.30886 0.26002 0.09161 0.0
H4175 H 0.35535 0.29525 0.98587 0.0
H4176 H 0.35795 0.27989 0.0135 0.0
H4177 H 0.32969 0.29128 0.05065 0.0
H4178 H 0.32686 0.30624 0.02339 0.0
H4179 H 0.32069 0.26172 0.05578 0.0
H4180 H 0.37051 0.30962 0.05494 0.0
H4181 H 0.39541 0.33005 0.04029 0.0
H4182 H 0.40915 0.29572 0.02977 0.0
H4183 H 0.38422 0.27504 0.04413 0.0
C4184 C 0.34557 0.24936 0.14166 0.0
C4185 C 0.35281 0.24013 0.14272 0.0
C4186 C 0.34362 0.25524 0.12331 0.0
C4187 C 0.34902 0.25222 0.10556 0.0
C4188 C 0.35612 0.24289 0.1065 0.0
C4189 C 0.35785 0.23677 0.12484 0.0
C4190 C 0.34751 0.25915 0.08619 0.0
C4191 C 0.36117 0.27002 0.07603 0.0
C4192 C 0.33276 0.25603 0.07858 0.0
C4193 C 0.31788 0.24414 0.08805 0.0
C4194 C 0.31475 0.22868 0.09118 0.0
C4195 C 0.30076 0.21754 0.10021 0.0
C4196 C 0.28976 0.22169 0.10607 0.0
C4197 C 0.29271 0.23699 0.10287 0.0
C4198 C 0.3067 0.24818 0.09386 0.0
C4199 C 0.34966 0.29443 0.9999 0.0
C4200 C 0.34092 0.30206 0.00227 0.0
C4201 C 0.35121 0.28569 0.01577 0.0
C4202 C 0.34409 0.28445 0.03434 0.0
C4203 C 0.33526 0.29194 0.03656 0.0
C4204 C 0.33372 0.3006 0.02084 0.0
C4205 C 0.34571 0.27549 0.05167 0.0
C4206 C 0.33206 0.26421 0.06152 0.0
C4207 C 0.36048 0.27837 0.05908 0.0
C4208 C 0.37542 0.29076 0.05036 0.0
C4209 C 0.37878 0.30641 0.04933 0.0
C4210 C 0.39291 0.31804 0.04112 0.0
C4211 C 0.40383 0.31418 0.03404 0.0
C4212 C 0.40066 0.29868 0.03521 0.0
C4213 C 0.38654 0.28701 0.04339 0.0
H4214 H 0.41477 0.3232 0.02769 0.0
H4215 H 0.27893 0.21305 0.11305 0.0
H4216 H 0.80416 0.19128 0.13592 0.0
H4217 H 0.79135 0.1727 0.10904 0.0
H4218 H 0.78794 0.20818 0.07438 0.0
H4219 H 0.80094 0.22695 0.10109 0.0
H4220 H 0.76082 0.1798 0.07271 0.0
H4221 H 0.81597 0.19937 0.06403 0.0
H4222 H 0.84253 0.20555 0.0746 0.0
H4223 H 0.82568 0.15685 0.08741 0.0
H4224 H 0.79895 0.15041 0.07717 0.0
H4225 H 0.74401 0.14403 0.97849 0.0
H4226 H 0.75675 0.16205 0.00598 0.0
H4227 H 0.76181 0.12646 0.03806 0.0
H4228 H 0.74927 0.10839 0.01035 0.0
H4229 H 0.78786 0.15443 0.04165 0.0
H4230 H 0.73284 0.13465 0.04995 0.0
H4231 H 0.70616 0.12833 0.03974 0.0
H4232 H 0.72249 0.17709 0.02815 0.0
H4233 H 0.74932 0.18368 0.03803 0.0
C4234 C 0.80085 0.19524 0.12255 0.0
C4235 C 0.80381 0.21076 0.1207 0.0
C4236 C 0.79344 0.18454 0.10719 0.0
C4237 C 0.78888 0.18909 0.08954 0.0
C4238 C 0.79137 0.2044 0.08784 0.0
C4239 C 0.79879 0.21513 0.1032 0.0
C4240 C 0.78172 0.17796 0.07276 0.0
C4241 C 0.76681 0.1744 0.06576 0.0
C4242 C 0.78936 0.1706 0.06398 0.0
C4243 C 0.80543 0.17443 0.07002 0.0
C4244 C 0.81791 0.18999 0.06925 0.0
C4245 C 0.83299 0.19354 0.07515 0.0
C4246 C 0.83578 0.1816 0.08173 0.0
C4247 C 0.8235 0.16609 0.08235 0.0
C4248 C 0.80838 0.16248 0.07648 0.0
C4249 C 0.7479 0.14003 0.99133 0.0
C4250 C 0.74554 0.12472 0.99225 0.0
C4251 C 0.75512 0.15034 0.00712 0.0
C4252 C 0.76 0.14555 0.0243 0.0
C4253 C 0.75808 0.13042 0.02502 0.0
C4254 C 0.7509 0.12009 0.00917 0.0
C4255 C 0.76695 0.15629 0.04152 0.0
C4256 C 0.78183 0.15979 0.04862 0.0
C4257 C 0.75926 0.16356 0.05043 0.0
C4258 C 0.74312 0.15964 0.04456 0.0
C4259 C 0.73077 0.14402 0.04508 0.0
C4260 C 0.71561 0.14038 0.03938 0.0
C4261 C 0.71264 0.1523 0.03325 0.0
C4262 C 0.72481 0.16787 0.03287 0.0
C4263 C 0.73999 0.17156 0.03854 0.0
H4264 H 0.7009 0.14946 0.02884 0.0
H4265 H 0.84747 0.18437 0.08629 0.0
loop_
_geom_bond_atom_site_label_1
_geom_bond_atom_site_label_2
_geom_bond_distance
_geom_bond_site_symmetry_2
_ccdc_geom_bond_type
Cu0 N1 1.999 . S
Cu0 O6 1.974 1_554 S
Cu0 N11 1.985 1_554 S
Cu0 O20 1.959 . S
N1 Cu0 1.999 . S
N1 C3 1.263 . S
N1 C5 1.389 . S
N2 C3 1.358 . S
N2 C4 1.400 . S
C3 N1 1.263 . S
C3 N2 1.358 . S
C3 H9 0.930 . S
C4 N2 1.400 . S
C4 C5 1.351 . S
C4 H21 0.930 . S
C5 N1 1.389 . S
C5 C4 1.351 . S
C5 H10 0.930 . S
O6 Cu0 1.974 1_556 S
O6 C16 1.282 . S
C7 O8 1.261 . S
C7 O20 1.251 . S
O8 C7 1.261 . S
H9 C3 0.930 . S
H10 C5 0.930 . S
N11 Cu0 1.985 1_556 S
N11 C13 1.335 . S
N11 C14 1.390 . S
N12 C13 1.345 . S
N12 C15 1.336 . S
C13 N11 1.335 . S
C13 N12 1.345 . S
C13 H18 0.930 . S
C14 N11 1.390 . S
C14 C15 1.346 . S
C14 H19 0.930 . S
C15 N12 1.336 . S
C15 C14 1.346 . S
C15 H22 0.929 . S
C16 O6 1.282 . S
C16 O17 1.216 . S
O17 C16 1.216 . S
H18 C13 0.930 . S
H19 C14 0.930 . S
O20 Cu0 1.959 . S
O20 C7 1.251 . S
H21 C4 0.930 . S
H22 C15 0.929 . S
Cu23 N24 1.999 1_554 S
Cu23 O29 1.974 . S
Cu23 N34 1.985 . S
Cu23 O43 1.959 1_554 S
N24 Cu23 1.999 1_556 S
N24 C26 1.263 . S
N24 C28 1.389 . S
N25 C26 1.358 . S
N25 C27 1.400 . S
C26 N24 1.263 . S
C26 N25 1.358 . S
C26 H32 0.930 . S
C27 N25 1.400 . S
C27 C28 1.351 . S
C27 H44 0.930 . S
C28 N24 1.389 . S
C28 C27 1.351 . S
C28 H33 0.930 . S
O29 Cu23 1.974 . S
O29 C39 1.282 . S
C30 O31 1.261 1_556 S
C30 O43 1.251 . S
O31 C30 1.261 1_554 S
H32 C26 0.930 . S
H33 C28 0.930 . S
N34 Cu23 1.985 . S
N34 C36 1.335 . S
N34 C37 1.390 . S
N35 C36 1.345 . S
N35 C38 1.336 . S
C36 N34 1.335 . S
C36 N35 1.345 . S
C36 H41 0.930 . S
C37 N34 1.390 . S
C37 C38 1.346 . S
C37 H42 0.930 . S
C38 N35 1.336 . S
C38 C37 1.346 . S
C38 H45 0.929 . S
C39 O29 1.282 . S
C39 O40 1.216 . S
O40 C39 1.216 . S
H41 C36 0.930 . S
H42 C37 0.930 . S
O43 Cu23 1.959 1_556 S
O43 C30 1.251 . S
H44 C27 0.930 . S
H45 C38 0.929 . S
Cu46 N47 1.999 1_554 S
Cu46 O52 1.974 . S
Cu46 N57 1.985 . S
Cu46 O66 1.959 . S
N47 Cu46 1.999 1_556 S
N47 C49 1.263 . S
N47 C51 1.441 . S
N48 C49 1.358 . S
N48 C50 1.400 . S
C49 N47 1.263 . S
C49 N48 1.358 . S
C49 H55 0.930 . S
C50 N48 1.400 . S
C50 C51 1.380 . S
C50 H67 0.930 1_545 S
C51 N47 1.441 . S
C51 C50 1.380 . S
C51 H56 0.866 1_545 S
O52 Cu46 1.974 . S
O52 C62 1.282 . S
C53 O54 1.261 . S
C53 O66 1.251 . S
O54 C53 1.261 . S
H55 C49 0.930 . S
H56 C51 0.866 1_565 S
N57 Cu46 1.985 . S
N57 C59 1.335 . S
N57 C60 1.390 . S
N58 C59 1.345 . S
N58 C61 1.336 . S
C59 N57 1.335 . S
C59 N58 1.345 . S
C59 H64 0.930 . S
C60 N57 1.390 . S
C60 C61 1.346 . S
C60 H65 0.930 . S
C61 N58 1.336 . S
C61 C60 1.346 . S
C61 H68 0.929 . S
C62 O52 1.282 . S
C62 O63 1.216 . S
O63 C62 1.216 . S
H64 C59 0.930 . S
H65 C60 0.930 . S
O66 Cu46 1.959 . S
O66 C53 1.251 . S
H67 C50 0.930 1_565 S
H68 C61 0.929 . S
Cu69 N70 1.999 . S
Cu69 O75 1.974 . S
Cu69 N80 1.985 . S
Cu69 O89 1.959 . S
N70 Cu69 1.999 . S
N70 C72 1.263 . S
N70 C74 1.389 . S
N71 C72 1.358 . S
N71 C73 1.400 . S
C72 N70 1.263 . S
C72 N71 1.358 . S
C72 H78 0.930 . S
C73 N71 1.400 . S
C73 C74 1.351 . S
C73 H90 0.930 . S
C74 N70 1.389 . S
C74 C73 1.351 . S
C74 H79 0.930 . S
O75 Cu69 1.974 . S
O75 C85 1.282 . S
C76 O77 1.261 . S
C76 O89 1.251 . S
O77 C76 1.261 . S
H78 C72 0.930 . S
H79 C74 0.930 . S
N80 Cu69 1.985 . S
N80 C82 1.335 . S
N80 C83 1.390 . S
N81 C82 1.345 . S
N81 C84 1.336 . S
C82 N80 1.335 . S
C82 N81 1.345 . S
C82 H87 0.930 . S
C83 N80 1.390 . S
C83 C84 1.346 . S
C83 H88 0.930 . S
C84 N81 1.336 . S
C84 C83 1.346 . S
C84 H91 0.929 . S
C85 O75 1.282 . S
C85 O86 1.216 1_545 S
O86 C85 1.216 1_565 S
H87 C82 0.930 . S
H88 C83 0.930 . S
O89 Cu69 1.959 . S
O89 C76 1.251 . S
H90 C73 0.930 . S
H91 C84 0.929 . S
Cu92 N93 1.999 . S
Cu92 O98 1.974 . S
Cu92 N103 1.985 . S
Cu92 O112 1.959 . S
N93 Cu92 1.999 . S
N93 C95 1.263 . S
N93 C97 1.389 . S
N94 C95 1.358 . S
N94 C96 1.400 . S
C95 N93 1.263 . S
C95 N94 1.358 . S
C95 H101 0.930 . S
C96 N94 1.400 . S
C96 C97 1.351 . S
C96 H113 0.930 . S
C97 N93 1.389 . S
C97 C96 1.351 . S
C97 H102 0.930 . S
O98 Cu92 1.974 . S
O98 C108 1.282 . S
C99 O100 1.261 . S
C99 O112 1.251 . S
O100 C99 1.261 . S
H101 C95 0.930 . S
H102 C97 0.930 . S
N103 Cu92 1.985 . S
N103 C105 1.335 . S
N103 C106 1.390 . S
N104 C105 1.345 . S
N104 C107 1.336 . S
C105 N103 1.335 . S
C105 N104 1.345 . S
C105 H110 0.930 . S
C106 N103 1.390 . S
C106 C107 1.346 . S
C106 H111 0.930 . S
C107 N104 1.336 . S
C107 C106 1.346 . S
C107 H114 0.929 . S
C108 O98 1.282 . S
C108 O109 1.216 . S
O109 C108 1.216 . S
H110 C105 0.930 . S
H111 C106 0.930 . S
O112 Cu92 1.959 . S
O112 C99 1.251 . S
H113 C96 0.930 . S
H114 C107 0.929 . S
Cu115 N116 1.999 . S
Cu115 O121 1.974 . S
Cu115 N126 1.985 . S
Cu115 O135 1.959 . S
N116 Cu115 1.999 . S
N116 C118 1.263 . S
N116 C120 1.389 . S
N117 C118 1.358 . S
N117 C119 1.400 . S
C118 N116 1.263 . S
C118 N117 1.358 . S
C118 H124 0.930 . S
C119 N117 1.400 . S
C119 C120 1.351 . S
C119 H136 0.930 . S
C120 N116 1.389 . S
C120 C119 1.351 . S
C120 H125 0.930 . S
O121 Cu115 1.974 . S
O121 C131 1.282 . S
C122 O123 1.261 . S
C122 O135 1.251 . S
O123 C122 1.261 . S
H124 C118 0.930 . S
H125 C120 0.930 . S
N126 Cu115 1.985 . S
N126 C128 1.335 . S
N126 C129 1.390 . S
N127 C128 1.345 . S
N127 C130 1.336 . S
C128 N126 1.335 . S
C128 N127 1.345 . S
C128 H133 0.930 . S
C129 N126 1.390 . S
C129 C130 1.346 . S
C129 H134 0.930 . S
C130 N127 1.336 . S
C130 C129 1.346 . S
C130 H137 0.929 . S
C131 O121 1.282 . S
C131 O132 1.216 . S
O132 C131 1.216 . S
H133 C128 0.930 . S
H134 C129 0.930 . S
O135 Cu115 1.959 . S
O135 C122 1.251 . S
H136 C119 0.930 . S
H137 C130 0.929 . S
Cu138 N139 1.999 . S
Cu138 O144 1.974 . S
Cu138 N149 1.985 . S
Cu138 O158 1.959 . S
N139 Cu138 1.999 . S
N139 C141 1.263 . S
N139 C143 1.389 . S
N140 C141 1.358 . S
N140 C142 1.400 . S
C141 N139 1.263 . S
C141 N140 1.358 . S
C141 H147 0.930 . S
C142 N140 1.400 . S
C142 C143 1.351 . S
C142 H159 0.930 . S
C143 N139 1.389 . S
C143 C142 1.351 . S
C143 H148 0.930 . S
O144 Cu138 1.974 . S
O144 C154 1.282 . S
C145 O146 1.261 . S
C145 O158 1.251 . S
O146 C145 1.261 . S
H147 C141 0.930 . S
H148 C143 0.930 . S
N149 Cu138 1.985 . S
N149 C151 1.335 . S
N149 C152 1.390 . S
N150 C151 1.345 . S
N150 C153 1.336 . S
C151 N149 1.335 . S
C151 N150 1.345 . S
C151 H156 0.930 . S
C152 N149 1.390 . S
C152 C153 1.346 . S
C152 H157 0.930 . S
C153 N150 1.336 . S
C153 C152 1.346 . S
C153 H160 0.929 . S
C154 O144 1.282 . S
C154 O155 1.216 . S
O155 C154 1.216 . S
H156 C151 0.930 . S
H157 C152 0.930 . S
O158 Cu138 1.959 . S
O158 C145 1.251 . S
H159 C142 0.930 . S
H160 C153 0.929 . S
Cu161 N162 1.999 . S
Cu161 O167 1.974 . S
Cu161 N172 1.985 . S
Cu161 O181 1.959 . S
N162 Cu161 1.999 . S
N162 C164 1.263 . S
N162 C166 1.389 . S
N163 C164 1.358 . S
N163 C165 1.400 . S
C164 N162 1.263 . S
C164 N163 1.358 . S
C164 H170 0.930 . S
C165 N163 1.400 . S
C165 C166 1.351 . S
C165 H182 0.930 . S
C166 N162 1.389 . S
C166 C165 1.351 . S
C166 H171 0.930 . S
O167 Cu161 1.974 . S
O167 C177 1.282 . S
C168 O169 1.261 . S
C168 O181 1.251 . S
O169 C168 1.261 . S
H170 C164 0.930 . S
H171 C166 0.930 . S
N172 Cu161 1.985 . S
N172 C174 1.335 . S
N172 C175 1.390 . S
N173 C174 1.345 . S
N173 C176 1.336 . S
C174 N172 1.335 . S
C174 N173 1.345 . S
C174 H179 0.930 . S
C175 N172 1.390 . S
C175 C176 1.346 . S
C175 H180 0.930 . S
C176 N173 1.336 . S
C176 C175 1.346 . S
C176 H183 0.929 . S
C177 O167 1.282 . S
C177 O178 1.216 . S
O178 C177 1.216 . S
H179 C174 0.930 . S
H180 C175 0.930 . S
O181 Cu161 1.959 . S
O181 C168 1.251 . S
H182 C165 0.930 . S
H183 C176 0.929 . S
Cu184 N185 1.999 . S
Cu184 O190 1.974 . S
Cu184 N195 1.985 . S
Cu184 O204 1.959 . S
N185 Cu184 1.999 . S
N185 C187 1.263 . S
N185 C189 1.389 . S
N186 C187 1.358 . S
N186 C188 1.400 . S
C187 N185 1.263 . S
C187 N186 1.358 . S
C187 H193 0.930 . S
C188 N186 1.400 . S
C188 C189 1.351 . S
C188 H205 0.930 . S
C189 N185 1.389 . S
C189 C188 1.351 . S
C189 H194 0.930 . S
O190 Cu184 1.974 . S
O190 C200 1.282 . S
C191 O192 1.261 . S
C191 O204 1.251 . S
O192 C191 1.261 . S
H193 C187 0.930 . S
H194 C189 0.930 . S
N195 Cu184 1.985 . S
N195 C197 1.335 . S
N195 C198 1.390 . S
N196 C197 1.345 . S
N196 C199 1.336 . S
C197 N195 1.335 . S
C197 N196 1.345 . S
C197 H202 0.930 . S
C198 N195 1.390 . S
C198 C199 1.346 . S
C198 H203 0.930 . S
C199 N196 1.336 . S
C199 C198 1.346 . S
C199 H206 0.929 . S
C200 O190 1.282 . S
C200 O201 1.216 . S
O201 C200 1.216 . S
H202 C197 0.930 . S
H203 C198 0.930 . S
O204 Cu184 1.959 . S
O204 C191 1.251 . S
H205 C188 0.930 . S
H206 C199 0.929 . S
Cu207 N208 1.999 . S
Cu207 O213 1.974 . S
Cu207 N218 1.985 . S
Cu207 O227 1.959 . S
N208 Cu207 1.999 . S
N208 C210 1.263 . S
N208 C212 1.389 . S
N209 C210 1.358 . S
N209 C211 1.400 . S
C210 N208 1.263 . S
C210 N209 1.358 . S
C210 H216 0.930 . S
C211 N209 1.400 . S
C211 C212 1.351 . S
C211 H228 0.930 . S
C212 N208 1.389 . S
C212 C211 1.351 . S
C212 H217 0.930 . S
O213 Cu207 1.974 . S
O213 C223 1.282 . S
C214 O215 1.261 . S
C214 O227 1.251 . S
O215 C214 1.261 . S
H216 C210 0.930 . S
H217 C212 0.930 . S
N218 Cu207 1.985 . S
N218 C220 1.335 . S
N218 C221 1.390 . S
N219 C220 1.345 . S
N219 C222 1.336 . S
C220 N218 1.335 . S
C220 N219 1.345 . S
C220 H225 0.930 . S
C221 N218 1.390 . S
C221 C222 1.346 . S
C221 H226 0.930 . S
C222 N219 1.336 . S
C222 C221 1.346 . S
C222 H229 0.929 . S
C223 O213 1.282 . S
C223 O224 1.216 . S
O224 C223 1.216 . S
H225 C220 0.930 . S
H226 C221 0.930 . S
O227 Cu207 1.959 . S
O227 C214 1.251 . S
H228 C211 0.930 . S
H229 C222 0.929 . S
Cu230 N231 1.999 . S
Cu230 O236 1.974 . S
Cu230 N241 1.985 . S
Cu230 O250 1.959 . S
N231 Cu230 1.999 . S
N231 C233 1.263 . S
N231 C235 1.389 . S
N232 C233 1.358 . S
N232 C234 1.400 . S
C233 N231 1.263 . S
C233 N232 1.358 . S
C233 H239 0.930 . S
C234 N232 1.400 . S
C234 C235 1.351 . S
C234 H251 0.930 . S
C235 N231 1.389 . S
C235 C234 1.351 . S
C235 H240 0.930 . S
O236 Cu230 1.974 . S
O236 C246 1.282 . S
C237 O238 1.261 . S
C237 O250 1.251 . S
O238 C237 1.261 . S
H239 C233 0.930 . S
H240 C235 0.930 . S
N241 Cu230 1.985 . S
N241 C243 1.335 . S
N241 C244 1.390 . S
N242 C243 1.345 . S
N242 C245 1.336 . S
C243 N241 1.335 . S
C243 N242 1.345 . S
C243 H248 0.930 . S
C244 N241 1.390 . S
C244 C245 1.346 . S
C244 H249 0.930 . S
C245 N242 1.336 . S
C245 C244 1.346 . S
C245 H252 0.929 . S
C246 O236 1.282 . S
C246 O247 1.216 . S
O247 C246 1.216 . S
H248 C243 0.930 . S
H249 C244 0.930 . S
O250 Cu230 1.959 . S
O250 C237 1.251 . S
H251 C234 0.930 . S
H252 C245 0.929 . S
Cu253 N254 1.999 . S
Cu253 O259 1.974 . S
Cu253 N264 1.985 . S
Cu253 O273 1.959 . S
N254 Cu253 1.999 . S
N254 C256 1.263 . S
N254 C258 1.389 . S
N255 C256 1.358 . S
N255 C257 1.400 . S
C256 N254 1.263 . S
C256 N255 1.358 . S
C256 H262 0.930 . S
C257 N255 1.400 . S
C257 C258 1.351 . S
C257 H274 0.930 . S
C258 N254 1.389 . S
C258 C257 1.351 . S
C258 H263 0.930 . S
O259 Cu253 1.974 . S
O259 C269 1.282 . S
C260 O261 1.261 . S
C260 O273 1.251 . S
O261 C260 1.261 . S
H262 C256 0.930 . S
H263 C258 0.930 . S
N264 Cu253 1.985 . S
N264 C266 1.335 . S
N264 C267 1.390 . S
N265 C266 1.345 . S
N265 C268 1.336 . S
C266 N264 1.335 . S
C266 N265 1.345 . S
C266 H271 0.930 . S
C267 N264 1.390 . S
C267 C268 1.346 . S
C267 H272 0.930 . S
C268 N265 1.336 . S
C268 C267 1.346 . S
C268 H275 0.929 . S
C269 O259 1.282 . S
C269 O270 1.216 . S
O270 C269 1.216 . S
H271 C266 0.930 . S
H272 C267 0.930 . S
O273 Cu253 1.959 . S
O273 C260 1.251 . S
H274 C257 0.930 . S
H275 C268 0.929 . S
Cu276 N277 1.999 . S
Cu276 O282 1.974 . S
Cu276 N287 1.985 . S
Cu276 O296 1.959 . S
N277 Cu276 1.999 . S
N277 C279 1.263 . S
N277 C281 1.389 . S
N278 C279 1.358 . S
N278 C280 1.400 . S
C279 N277 1.263 . S
C279 N278 1.358 . S
C279 H285 0.930 . S
C280 N278 1.400 . S
C280 C281 1.351 . S
C280 H297 0.930 . S
C281 N277 1.389 . S
C281 C280 1.351 . S
C281 H286 0.930 . S
O282 Cu276 1.974 . S
O282 C292 1.282 . S
C283 O284 1.261 . S
C283 O296 1.251 . S
O284 C283 1.261 . S
H285 C279 0.930 . S
H286 C281 0.930 . S
N287 Cu276 1.985 . S
N287 C289 1.335 . S
N287 C290 1.390 . S
N288 C289 1.345 . S
N288 C291 1.336 . S
C289 N287 1.335 . S
C289 N288 1.345 . S
C289 H294 0.930 . S
C290 N287 1.390 . S
C290 C291 1.346 . S
C290 H295 0.930 . S
C291 N288 1.336 . S
C291 C290 1.346 . S
C291 H298 0.929 . S
C292 O282 1.282 . S
C292 O293 1.216 . S
O293 C292 1.216 . S
H294 C289 0.930 . S
H295 C290 0.930 . S
O296 Cu276 1.959 . S
O296 C283 1.251 . S
H297 C280 0.930 . S
H298 C291 0.929 . S
Cu299 N300 1.999 . S
Cu299 O305 1.974 . S
Cu299 N310 1.985 . S
Cu299 O319 1.959 . S
N300 Cu299 1.999 . S
N300 C302 1.263 . S
N300 C304 1.389 . S
N301 C302 1.358 . S
N301 C303 1.400 . S
C302 N300 1.263 . S
C302 N301 1.358 . S
C302 H308 0.930 . S
C303 N301 1.400 . S
C303 C304 1.351 . S
C303 H320 0.930 . S
C304 N300 1.389 . S
C304 C303 1.351 . S
C304 H309 0.930 . S
O305 Cu299 1.974 . S
O305 C315 1.282 . S
C306 O307 1.261 . S
C306 O319 1.251 . S
O307 C306 1.261 . S
H308 C302 0.930 . S
H309 C304 0.930 . S
N310 Cu299 1.985 . S
N310 C312 1.335 . S
N310 C313 1.390 . S
N311 C312 1.345 . S
N311 C314 1.336 . S
C312 N310 1.335 . S
C312 N311 1.345 . S
C312 H317 0.930 . S
C313 N310 1.390 . S
C313 C314 1.346 . S
C313 H318 0.930 . S
C314 N311 1.336 . S
C314 C313 1.346 . S
C314 H321 0.929 . S
C315 O305 1.282 . S
C315 O316 1.216 . S
O316 C315 1.216 . S
H317 C312 0.930 . S
H318 C313 0.930 . S
O319 Cu299 1.959 . S
O319 C306 1.251 . S
H320 C303 0.930 . S
H321 C314 0.929 . S
Cu322 N323 1.999 . S
Cu322 O328 1.974 . S
Cu322 N333 1.985 . S
Cu322 O342 1.959 . S
N323 Cu322 1.999 . S
N323 C325 1.263 . S
N323 C327 1.389 . S
N324 C325 1.358 . S
N324 C326 1.400 . S
C325 N323 1.263 . S
C325 N324 1.358 . S
C325 H331 0.930 . S
C326 N324 1.400 . S
C326 C327 1.351 . S
C326 H343 0.930 . S
C327 N323 1.389 . S
C327 C326 1.351 . S
C327 H332 0.930 . S
O328 Cu322 1.974 . S
O328 C338 1.282 . S
C329 O330 1.261 . S
C329 O342 1.251 . S
O330 C329 1.261 . S
H331 C325 0.930 . S
H332 C327 0.930 . S
N333 Cu322 1.985 . S
N333 C335 1.335 . S
N333 C336 1.390 . S
N334 C335 1.345 . S
N334 C337 1.336 . S
C335 N333 1.335 . S
C335 N334 1.345 . S
C335 H340 0.930 . S
C336 N333 1.390 . S
C336 C337 1.346 . S
C336 H341 0.930 . S
C337 N334 1.336 . S
C337 C336 1.346 . S
C337 H344 0.929 . S
C338 O328 1.282 . S
C338 O339 1.216 . S
O339 C338 1.216 . S
H340 C335 0.930 . S
H341 C336 0.930 . S
O342 Cu322 1.959 . S
O342 C329 1.251 . S
H343 C326 0.930 . S
H344 C337 0.929 . S
Cu345 N346 1.999 . S
Cu345 O351 1.974 . S
Cu345 N356 1.985 . S
Cu345 O365 1.959 . S
N346 Cu345 1.999 . S
N346 C348 1.263 . S
N346 C350 1.389 . S
N347 C348 1.358 . S
N347 C349 1.400 . S
C348 N346 1.263 . S
C348 N347 1.358 . S
C348 H354 0.930 . S
C349 N347 1.400 . S
C349 C350 1.351 . S
C349 H366 0.930 . S
C350 N346 1.389 . S
C350 C349 1.351 . S
C350 H355 0.930 . S
O351 Cu345 1.974 . S
O351 C361 1.282 . S
C352 O353 1.261 . S
C352 O365 1.251 . S
O353 C352 1.261 . S
H354 C348 0.930 . S
H355 C350 0.930 . S
N356 Cu345 1.985 . S
N356 C358 1.335 . S
N356 C359 1.390 . S
N357 C358 1.345 . S
N357 C360 1.336 . S
C358 N356 1.335 . S
C358 N357 1.345 . S
C358 H363 0.930 . S
C359 N356 1.390 . S
C359 C360 1.346 . S
C359 H364 0.930 . S
C360 N357 1.336 . S
C360 C359 1.346 . S
C360 H367 0.929 . S
C361 O351 1.282 . S
C361 O362 1.216 . S
O362 C361 1.216 . S
H363 C358 0.930 . S
H364 C359 0.930 . S
O365 Cu345 1.959 . S
O365 C352 1.251 . S
H366 C349 0.930 . S
H367 C360 0.929 . S
Cu368 N369 1.999 . S
Cu368 O374 1.974 . S
Cu368 N379 1.985 . S
Cu368 O388 1.959 . S
N369 Cu368 1.999 . S
N369 C371 1.263 . S
N369 C373 1.389 . S
N370 C371 1.358 . S
N370 C372 1.400 . S
C371 N369 1.263 . S
C371 N370 1.358 . S
C371 H377 0.930 . S
C372 N370 1.400 . S
C372 C373 1.351 . S
C372 H389 0.930 . S
C373 N369 1.389 . S
C373 C372 1.351 . S
C373 H378 0.930 . S
O374 Cu368 1.974 . S
O374 C384 1.282 . S
C375 O376 1.261 . S
C375 O388 1.251 . S
O376 C375 1.261 . S
H377 C371 0.930 . S
H378 C373 0.930 . S
N379 Cu368 1.985 . S
N379 C381 1.335 . S
N379 C382 1.390 . S
N380 C381 1.345 . S
N380 C383 1.336 . S
C381 N379 1.335 . S
C381 N380 1.345 . S
C381 H386 0.930 . S
C382 N379 1.390 . S
C382 C383 1.346 . S
C382 H387 0.930 . S
C383 N380 1.336 . S
C383 C382 1.346 . S
C383 H390 0.929 . S
C384 O374 1.282 . S
C384 O385 1.216 . S
O385 C384 1.216 . S
H386 C381 0.930 . S
H387 C382 0.930 . S
O388 Cu368 1.959 . S
O388 C375 1.251 . S
H389 C372 0.930 . S
H390 C383 0.929 . S
Cu391 N392 1.999 . S
Cu391 O397 1.974 . S
Cu391 N402 1.985 . S
Cu391 O411 1.959 . S
N392 Cu391 1.999 . S
N392 C394 1.263 . S
N392 C396 1.389 . S
N393 C394 1.358 . S
N393 C395 1.400 . S
C394 N392 1.263 . S
C394 N393 1.358 . S
C394 H400 0.930 . S
C395 N393 1.400 . S
C395 C396 1.351 . S
C395 H412 0.930 . S
C396 N392 1.389 . S
C396 C395 1.351 . S
C396 H401 0.930 . S
O397 Cu391 1.974 . S
O397 C407 1.282 . S
C398 O399 1.261 . S
C398 O411 1.251 . S
O399 C398 1.261 . S
H400 C394 0.930 . S
H401 C396 0.930 . S
N402 Cu391 1.985 . S
N402 C404 1.335 . S
N402 C405 1.390 . S
N403 C404 1.345 . S
N403 C406 1.336 . S
C404 N402 1.335 . S
C404 N403 1.345 . S
C404 H409 0.930 . S
C405 N402 1.390 . S
C405 C406 1.346 . S
C405 H410 0.930 . S
C406 N403 1.336 . S
C406 C405 1.346 . S
C406 H413 0.929 . S
C407 O397 1.282 . S
C407 O408 1.216 . S
O408 C407 1.216 . S
H409 C404 0.930 . S
H410 C405 0.930 . S
O411 Cu391 1.959 . S
O411 C398 1.251 . S
H412 C395 0.930 . S
H413 C406 0.929 . S
C414 O415 1.306 . S
C414 O417 1.160 . S
O415 C414 1.306 . S
O415 Cd416 2.228 . S
Cd416 O415 2.228 . S
Cd416 O420 2.273 1_455 S
Cd416 O424 2.277 . S
O417 C414 1.160 . S
O417 Cd418 2.203 . S
Cd418 O417 2.203 . S
Cd418 O420 2.411 1_455 S
Cd418 O421 2.333 . S
Cd418 O422 2.352 . S
Cd418 O426 2.277 . S
Cd418 O427 2.356 . S
C419 O424 1.209 . S
C419 O426 1.226 . S
O420 Cd416 2.273 1_655 S
O420 Cd418 2.411 1_655 S
O420 C423 1.320 . S
O421 Cd418 2.333 . S
O421 C423 1.214 1_455 S
O422 Cd418 2.352 . S
O422 C425 1.258 . S
C423 O420 1.320 . S
C423 O421 1.214 1_655 S
O424 Cd416 2.277 . S
O424 C419 1.209 . S
C425 O422 1.258 . S
C425 O427 1.282 . S
O426 Cd418 2.277 . S
O426 C419 1.226 . S
O427 Cd418 2.356 . S
O427 C425 1.282 . S
C428 O429 1.306 . S
C428 O431 1.160 . S
O429 C428 1.306 . S
O429 Cd430 2.228 . S
Cd430 O429 2.228 . S
Cd430 O434 2.273 . S
Cd430 O438 2.277 . S
O431 C428 1.160 . S
O431 Cd432 2.203 . S
Cd432 O431 2.203 . S
Cd432 O434 2.411 . S
Cd432 O435 2.333 . S
Cd432 O436 2.352 . S
Cd432 O440 2.277 . S
Cd432 O441 2.356 . S
C433 O438 1.209 . S
C433 O440 1.226 . S
O434 Cd430 2.273 . S
O434 Cd432 2.411 . S
O434 C437 1.320 . S
O435 Cd432 2.333 . S
O435 C437 1.214 . S
O436 Cd432 2.352 . S
O436 C439 1.258 . S
C437 O434 1.320 . S
C437 O435 1.214 . S
O438 Cd430 2.277 . S
O438 C433 1.209 . S
C439 O436 1.258 . S
C439 O441 1.282 . S
O440 Cd432 2.277 . S
O440 C433 1.226 . S
O441 Cd432 2.356 . S
O441 C439 1.282 . S
C442 O443 1.306 . S
C442 O445 1.160 . S
O443 C442 1.306 . S
O443 Cd444 2.228 . S
Cd444 O443 2.228 . S
Cd444 O448 2.273 . S
Cd444 O452 2.277 . S
O445 C442 1.160 . S
O445 Cd446 2.203 . S
Cd446 O445 2.203 . S
Cd446 O448 2.411 . S
Cd446 O449 2.333 . S
Cd446 O450 2.352 . S
Cd446 O454 2.277 . S
Cd446 O455 2.356 . S
C447 O452 1.209 . S
C447 O454 1.226 . S
O448 Cd444 2.273 . S
O448 Cd446 2.411 . S
O448 C451 1.320 . S
O449 Cd446 2.333 . S
O449 C451 1.214 . S
O450 Cd446 2.352 . S
O450 C453 1.258 . S
C451 O448 1.320 . S
C451 O449 1.214 . S
O452 Cd444 2.277 . S
O452 C447 1.209 . S
C453 O450 1.258 . S
C453 O455 1.282 . S
O454 Cd446 2.277 . S
O454 C447 1.226 . S
O455 Cd446 2.356 . S
O455 C453 1.282 . S
C456 O457 1.306 . S
C456 O459 1.160 . S
O457 C456 1.306 . S
O457 Cd458 2.228 . S
Cd458 O457 2.228 . S
Cd458 O462 2.273 . S
Cd458 O466 2.277 . S
O459 C456 1.160 . S
O459 Cd460 2.203 . S
Cd460 O459 2.203 . S
Cd460 O462 2.411 . S
Cd460 O463 2.333 . S
Cd460 O464 2.352 . S
Cd460 O468 2.277 1_455 S
Cd460 O469 2.356 . S
C461 O466 1.175 1_655 S
C461 O468 1.244 . S
O462 Cd458 2.273 . S
O462 Cd460 2.411 . S
O462 C465 1.320 . S
O463 Cd460 2.333 . S
O463 C465 1.214 . S
O464 Cd460 2.352 . S
O464 C467 1.258 . S
C465 O462 1.320 . S
C465 O463 1.214 . S
O466 Cd458 2.277 . S
O466 C461 1.175 1_455 S
C467 O464 1.258 . S
C467 O469 1.282 . S
O468 Cd460 2.277 1_655 S
O468 C461 1.244 . S
O469 Cd460 2.356 . S
O469 C467 1.282 . S
C470 O471 1.306 . S
C470 O473 1.160 . S
O471 C470 1.306 . S
O471 Cd472 2.228 . S
Cd472 O471 2.228 . S
Cd472 O476 2.273 . S
Cd472 O480 2.277 . S
O473 C470 1.160 . S
O473 Cd474 2.203 . S
Cd474 O473 2.203 . S
Cd474 O476 2.411 . S
Cd474 O477 2.333 . S
Cd474 O478 2.352 . S
Cd474 O482 2.277 . S
Cd474 O483 2.356 . S
C475 O480 1.209 . S
C475 O482 1.226 . S
O476 Cd472 2.273 . S
O476 Cd474 2.411 . S
O476 C479 1.320 . S
O477 Cd474 2.333 . S
O477 C479 1.214 . S
O478 Cd474 2.352 . S
O478 C481 1.258 . S
C479 O476 1.320 . S
C479 O477 1.214 . S
O480 Cd472 2.277 . S
O480 C475 1.209 . S
C481 O478 1.258 . S
C481 O483 1.282 . S
O482 Cd474 2.277 . S
O482 C475 1.226 . S
O483 Cd474 2.356 . S
O483 C481 1.282 . S
C484 O485 1.306 . S
C484 O487 1.160 . S
O485 C484 1.306 . S
O485 Cd486 2.228 . S
Cd486 O485 2.228 . S
Cd486 O490 2.273 . S
Cd486 O494 2.277 . S
O487 C484 1.160 . S
O487 Cd488 2.203 . S
Cd488 O487 2.203 . S
Cd488 O490 2.411 . S
Cd488 O491 2.333 . S
Cd488 O492 2.352 . S
Cd488 O496 2.277 . S
Cd488 O497 2.356 . S
C489 O494 1.209 . S
C489 O496 1.226 . S
O490 Cd486 2.273 . S
O490 Cd488 2.411 . S
O490 C493 1.320 . S
O491 Cd488 2.333 . S
O491 C493 1.214 . S
O492 Cd488 2.352 . S
O492 C495 1.258 . S
C493 O490 1.320 . S
C493 O491 1.214 . S
O494 Cd486 2.277 . S
O494 C489 1.209 . S
C495 O492 1.258 . S
C495 O497 1.282 . S
O496 Cd488 2.277 . S
O496 C489 1.226 . S
O497 Cd488 2.356 . S
O497 C495 1.282 . S
C498 O499 1.306 . S
C498 O501 1.160 . S
O499 C498 1.306 . S
O499 Cd500 2.228 1_565 S
Cd500 O499 2.228 1_545 S
Cd500 O504 2.273 1_545 S
Cd500 O508 2.277 . S
O501 C498 1.160 . S
O501 Cd502 2.165 1_565 S
Cd502 O501 2.165 1_545 S
Cd502 O504 2.429 1_545 S
Cd502 O505 2.372 . S
Cd502 O506 2.302 1_545 S
Cd502 O510 2.317 . S
Cd502 O511 2.337 1_545 S
C503 O508 1.209 . S
C503 O510 1.226 . S
O504 Cd500 2.273 1_565 S
O504 Cd502 2.429 1_565 S
O504 C507 1.320 1_565 S
O505 Cd502 2.372 . S
O505 C507 1.214 . S
O506 Cd502 2.302 1_565 S
O506 C509 1.258 . S
C507 O504 1.320 1_545 S
C507 O505 1.214 . S
O508 Cd500 2.277 . S
O508 C503 1.209 . S
C509 O506 1.258 . S
C509 O511 1.282 . S
O510 Cd502 2.317 . S
O510 C503 1.226 . S
O511 Cd502 2.337 1_565 S
O511 C509 1.282 . S
C512 O513 1.306 . S
C512 O515 1.160 . S
O513 C512 1.306 . S
O513 Cd514 2.228 . S
Cd514 O513 2.228 . S
Cd514 O518 2.273 . S
Cd514 O522 2.277 . S
O515 C512 1.160 . S
O515 Cd516 2.203 . S
Cd516 O515 2.203 . S
Cd516 O518 2.411 . S
Cd516 O519 2.333 . S
Cd516 O520 2.352 . S
Cd516 O524 2.277 . S
Cd516 O525 2.356 . S
C517 O522 1.209 . S
C517 O524 1.226 . S
O518 Cd514 2.273 . S
O518 Cd516 2.411 . S
O518 C521 1.320 . S
O519 Cd516 2.333 . S
O519 C521 1.214 . S
O520 Cd516 2.352 . S
O520 C523 1.258 . S
C521 O518 1.320 . S
C521 O519 1.214 . S
O522 Cd514 2.277 . S
O522 C517 1.209 . S
C523 O520 1.258 . S
C523 O525 1.282 . S
O524 Cd516 2.277 . S
O524 C517 1.226 . S
O525 Cd516 2.356 . S
O525 C523 1.282 . S
C526 O527 1.306 . S
C526 O529 1.160 . S
O527 C526 1.306 . S
O527 Cd528 2.228 . S
Cd528 O527 2.228 . S
Cd528 O532 2.273 . S
Cd528 O536 2.277 . S
O529 C526 1.160 . S
O529 Cd530 2.203 . S
Cd530 O529 2.203 . S
Cd530 O532 2.411 . S
Cd530 O533 2.333 . S
Cd530 O534 2.352 . S
Cd530 O538 2.277 . S
Cd530 O539 2.356 . S
C531 O536 1.209 . S
C531 O538 1.226 . S
O532 Cd528 2.273 . S
O532 Cd530 2.411 . S
O532 C535 1.320 . S
O533 Cd530 2.333 . S
O533 C535 1.214 . S
O534 Cd530 2.352 . S
O534 C537 1.258 . S
C535 O532 1.320 . S
C535 O533 1.214 . S
O536 Cd528 2.277 . S
O536 C531 1.209 . S
C537 O534 1.258 . S
C537 O539 1.282 . S
O538 Cd530 2.277 . S
O538 C531 1.226 . S
O539 Cd530 2.356 . S
O539 C537 1.282 . S
C540 O541 1.306 . S
C540 O543 1.160 . S
O541 C540 1.306 . S
O541 Cd542 2.228 . S
Cd542 O541 2.228 . S
Cd542 O546 2.273 . S
Cd542 O550 2.277 . S
O543 C540 1.160 . S
O543 Cd544 2.203 . S
Cd544 O543 2.203 . S
Cd544 O546 2.411 . S
Cd544 O547 2.333 . S
Cd544 O548 2.352 . S
Cd544 O552 2.277 . S
Cd544 O553 2.356 . S
C545 O550 1.209 . S
C545 O552 1.226 . S
O546 Cd542 2.273 . S
O546 Cd544 2.411 . S
O546 C549 1.320 . S
O547 Cd544 2.333 . S
O547 C549 1.214 . S
O548 Cd544 2.352 . S
O548 C551 1.258 . S
C549 O546 1.320 . S
C549 O547 1.214 . S
O550 Cd542 2.277 . S
O550 C545 1.209 . S
C551 O548 1.258 . S
C551 O553 1.282 . S
O552 Cd544 2.277 . S
O552 C545 1.226 . S
O553 Cd544 2.356 . S
O553 C551 1.282 . S
C554 O555 1.301 1_545 S
C554 O557 1.176 . S
O555 C554 1.301 1_565 S
O555 Cd556 2.211 1_565 S
Cd556 O555 2.211 1_545 S
Cd556 O560 2.262 1_545 S
Cd556 O564 2.317 . S
O557 C554 1.176 . S
O557 Cd558 2.203 1_545 S
Cd558 O557 2.203 1_565 S
Cd558 O560 2.411 . S
Cd558 O561 2.333 . S
Cd558 O562 2.352 . S
Cd558 O566 2.277 1_565 S
Cd558 O567 2.356 . S
C559 O564 1.209 . S
C559 O566 1.226 . S
O560 Cd556 2.262 1_565 S
O560 Cd558 2.411 . S
O560 C563 1.320 . S
O561 Cd558 2.333 . S
O561 C563 1.214 . S
O562 Cd558 2.352 . S
O562 C565 1.258 . S
C563 O560 1.320 . S
C563 O561 1.214 . S
O564 Cd556 2.317 . S
O564 C559 1.209 . S
C565 O562 1.258 . S
C565 O567 1.282 . S
O566 Cd558 2.277 1_545 S
O566 C559 1.226 . S
O567 Cd558 2.356 . S
O567 C565 1.282 . S
C568 O569 1.306 . S
C568 O571 1.160 . S
O569 C568 1.306 . S
O569 Cd570 2.228 . S
Cd570 O569 2.228 . S
Cd570 O574 2.273 . S
Cd570 O578 2.277 . S
O571 C568 1.160 . S
O571 Cd572 2.203 . S
Cd572 O571 2.203 . S
Cd572 O574 2.411 . S
Cd572 O575 2.333 . S
Cd572 O576 2.352 . S
Cd572 O580 2.277 . S
Cd572 O581 2.356 . S
C573 O578 1.209 . S
C573 O580 1.226 . S
O574 Cd570 2.273 . S
O574 Cd572 2.411 . S
O574 C577 1.320 . S
O575 Cd572 2.333 . S
O575 C577 1.214 . S
O576 Cd572 2.352 . S
O576 C579 1.258 . S
C577 O574 1.320 . S
C577 O575 1.214 . S
O578 Cd570 2.277 . S
O578 C573 1.209 . S
C579 O576 1.258 . S
C579 O581 1.282 . S
O580 Cd572 2.277 . S
O580 C573 1.226 . S
O581 Cd572 2.356 . S
O581 C579 1.282 . S
C582 O583 1.306 . S
C582 O585 1.160 . S
O583 C582 1.306 . S
O583 Cd584 2.228 . S
Cd584 O583 2.228 . S
Cd584 O588 2.273 . S
Cd584 O592 2.277 . S
O585 C582 1.160 . S
O585 Cd586 2.203 . S
Cd586 O585 2.203 . S
Cd586 O588 2.411 . S
Cd586 O589 2.333 . S
Cd586 O590 2.352 . S
Cd586 O594 2.277 . S
Cd586 O595 2.356 . S
C587 O592 1.209 . S
C587 O594 1.226 . S
O588 Cd584 2.273 . S
O588 Cd586 2.411 . S
O588 C591 1.320 . S
O589 Cd586 2.333 . S
O589 C591 1.214 . S
O590 Cd586 2.352 . S
O590 C593 1.258 . S
C591 O588 1.320 . S
C591 O589 1.214 . S
O592 Cd584 2.277 . S
O592 C587 1.209 . S
C593 O590 1.258 . S
C593 O595 1.282 . S
O594 Cd586 2.277 . S
O594 C587 1.226 . S
O595 Cd586 2.356 . S
O595 C593 1.282 . S
C596 O597 1.306 . S
C596 O599 1.160 . S
O597 C596 1.306 . S
O597 Cd598 2.228 . S
Cd598 O597 2.228 . S
Cd598 O602 2.273 . S
Cd598 O606 2.277 . S
O599 C596 1.160 . S
O599 Cd600 2.203 . S
Cd600 O599 2.203 . S
Cd600 O602 2.411 . S
Cd600 O603 2.333 . S
Cd600 O604 2.352 . S
Cd600 O608 2.277 . S
Cd600 O609 2.356 . S
C601 O606 1.209 . S
C601 O608 1.226 . S
O602 Cd598 2.273 . S
O602 Cd600 2.411 . S
O602 C605 1.320 . S
O603 Cd600 2.333 . S
O603 C605 1.214 . S
O604 Cd600 2.352 . S
O604 C607 1.258 . S
C605 O602 1.320 . S
C605 O603 1.214 . S
O606 Cd598 2.277 . S
O606 C601 1.209 . S
C607 O604 1.258 . S
C607 O609 1.282 . S
O608 Cd600 2.277 . S
O608 C601 1.226 . S
O609 Cd600 2.356 . S
O609 C607 1.282 . S
C610 O611 1.306 . S
C610 O613 1.160 . S
O611 C610 1.306 . S
O611 Cd612 2.228 . S
Cd612 O611 2.228 . S
Cd612 O616 2.273 . S
Cd612 O620 2.277 . S
O613 C610 1.160 . S
O613 Cd614 2.203 . S
Cd614 O613 2.203 . S
Cd614 O616 2.411 . S
Cd614 O617 2.333 . S
Cd614 O618 2.352 . S
Cd614 O622 2.277 . S
Cd614 O623 2.356 . S
C615 O620 1.209 1_455 S
C615 O622 1.226 1_455 S
O616 Cd612 2.273 . S
O616 Cd614 2.411 . S
O616 C619 1.320 . S
O617 Cd614 2.333 . S
O617 C619 1.214 . S
O618 Cd614 2.352 . S
O618 C621 1.258 . S
C619 O616 1.320 . S
C619 O617 1.214 . S
O620 Cd612 2.277 . S
O620 C615 1.209 1_655 S
C621 O618 1.258 . S
C621 O623 1.282 . S
O622 Cd614 2.277 . S
O622 C615 1.226 1_655 S
O623 Cd614 2.356 . S
O623 C621 1.282 . S
C624 O625 1.306 . S
C624 O627 1.160 . S
O625 C624 1.306 . S
O625 Cd626 2.228 . S
Cd626 O625 2.228 . S
Cd626 O630 2.273 . S
Cd626 O634 2.277 . S
O627 C624 1.160 . S
O627 Cd628 2.203 . S
Cd628 O627 2.203 . S
Cd628 O630 2.411 . S
Cd628 O631 2.333 . S
Cd628 O632 2.352 . S
Cd628 O636 2.277 . S
Cd628 O637 2.356 . S
C629 O634 1.209 . S
C629 O636 1.226 . S
O630 Cd626 2.273 . S
O630 Cd628 2.411 . S
O630 C633 1.320 . S
O631 Cd628 2.333 . S
O631 C633 1.214 . S
O632 Cd628 2.352 . S
O632 C635 1.258 . S
C633 O630 1.320 . S
C633 O631 1.214 . S
O634 Cd626 2.277 . S
O634 C629 1.209 . S
C635 O632 1.258 . S
C635 O637 1.282 . S
O636 Cd628 2.277 . S
O636 C629 1.226 . S
O637 Cd628 2.356 . S
O637 C635 1.282 . S
C638 O639 1.306 . S
C638 O641 1.160 1_455 S
O639 C638 1.306 . S
O639 Cd640 2.228 1_455 S
Cd640 O639 2.228 1_655 S
Cd640 O644 2.273 . S
Cd640 O648 2.277 . S
O641 C638 1.160 1_655 S
O641 Cd642 2.203 . S
Cd642 O641 2.203 . S
Cd642 O644 2.411 . S
Cd642 O645 2.333 . S
Cd642 O646 2.352 . S
Cd642 O650 2.277 . S
Cd642 O651 2.356 . S
C643 O648 1.209 . S
C643 O650 1.226 . S
O644 Cd640 2.273 . S
O644 Cd642 2.411 . S
O644 C647 1.320 . S
O645 Cd642 2.333 . S
O645 C647 1.214 . S
O646 Cd642 2.352 . S
O646 C649 1.258 . S
C647 O644 1.320 . S
C647 O645 1.214 . S
O648 Cd640 2.277 . S
O648 C643 1.209 . S
C649 O646 1.258 . S
C649 O651 1.282 . S
O650 Cd642 2.277 . S
O650 C643 1.226 . S
O651 Cd642 2.356 . S
O651 C649 1.282 . S
C652 O653 1.306 . S
C652 O655 1.160 . S
O653 C652 1.306 . S
O653 Cd654 2.228 . S
Cd654 O653 2.228 . S
Cd654 O658 2.273 . S
Cd654 O662 2.277 . S
O655 C652 1.160 . S
O655 Cd656 2.203 . S
Cd656 O655 2.203 . S
Cd656 O658 2.411 . S
Cd656 O659 2.333 . S
Cd656 O660 2.352 . S
Cd656 O664 2.277 . S
Cd656 O665 2.356 . S
C657 O662 1.209 . S
C657 O664 1.226 . S
O658 Cd654 2.273 . S
O658 Cd656 2.411 . S
O658 C661 1.320 . S
O659 Cd656 2.333 . S
O659 C661 1.214 . S
O660 Cd656 2.352 . S
O660 C663 1.258 . S
C661 O658 1.320 . S
C661 O659 1.214 . S
O662 Cd654 2.277 . S
O662 C657 1.209 . S
C663 O660 1.258 . S
C663 O665 1.282 . S
O664 Cd656 2.277 . S
O664 C657 1.226 . S
O665 Cd656 2.356 . S
O665 C663 1.282 . S
H666 C684 0.951 . S
H667 C686 0.951 . S
H668 C688 0.950 . S
H669 C689 0.950 . S
H670 C691 0.950 . S
H671 C694 0.950 . S
H672 C695 0.950 . S
H673 C697 0.950 . S
H674 C698 0.950 . S
H675 C699 0.951 . S
H676 C701 0.951 . S
H677 C703 0.950 . S
H678 C704 0.950 . S
H679 C706 0.950 . S
H680 C709 0.950 . S
H681 C710 0.950 . S
H682 C712 0.948 . S
H683 C713 0.950 . S
C684 H666 0.951 . S
C684 C685 1.366 . S
C684 C686 1.388 . S
C685 C684 1.366 . S
C685 C689 1.385 . S
C686 H667 0.951 . S
C686 C684 1.388 . S
C686 C687 1.366 . S
C687 C686 1.366 . S
C687 C688 1.414 . S
C687 C690 1.499 . S
C688 H668 0.950 . S
C688 C687 1.414 . S
C688 C689 1.374 . S
C689 H669 0.950 . S
C689 C685 1.385 . S
C689 C688 1.374 . S
C690 C687 1.499 . S
C690 C691 1.373 . S
C690 C692 1.389 . S
C691 H670 0.950 . S
C691 C690 1.373 . S
C691 C707 1.377 . S
C692 C690 1.389 . S
C692 C693 1.524 . S
C692 C706 1.377 . S
C693 C692 1.524 . S
C693 C694 1.397 . S
C693 C698 1.363 . S
C694 H671 0.950 . S
C694 C693 1.397 . S
C694 C695 1.334 . S
C695 H672 0.950 . S
C695 C694 1.334 . S
C695 C696 1.287 . S
C696 C695 1.287 . S
C696 C697 1.524 . S
C696 H715 0.913 . S
C697 H673 0.950 . S
C697 C696 1.524 . S
C697 C698 1.415 . S
C698 H674 0.950 . S
C698 C693 1.363 . S
C698 C697 1.415 . S
C699 H675 0.951 . S
C699 C700 1.366 . S
C699 C701 1.388 . S
C700 C699 1.366 . S
C700 C704 1.385 . S
C701 H676 0.951 . S
C701 C699 1.388 . S
C701 C702 1.366 . S
C702 C701 1.366 . S
C702 C703 1.414 . S
C702 C705 1.499 . S
C703 H677 0.950 . S
C703 C702 1.414 . S
C703 C704 1.374 . S
C704 H678 0.950 . S
C704 C700 1.385 . S
C704 C703 1.374 . S
C705 C702 1.499 . S
C705 C706 1.373 . S
C705 C707 1.389 . S
C706 H679 0.950 . S
C706 C692 1.377 . S
C706 C705 1.373 . S
C707 C691 1.377 . S
C707 C705 1.389 . S
C707 C708 1.524 . S
C708 C707 1.524 . S
C708 C709 1.397 . S
C708 C713 1.363 . S
C709 H680 0.950 . S
C709 C708 1.397 . S
C709 C710 1.334 . S
C710 H681 0.950 . S
C710 C709 1.334 . S
C710 C711 1.287 1_554 S
C711 C710 1.287 1_556 S
C711 C712 1.524 1_556 S
C711 H714 0.999 . S
C712 H682 0.948 . S
C712 C711 1.524 1_554 S
C712 C713 1.415 . S
C713 H683 0.950 . S
C713 C708 1.363 . S
C713 C712 1.415 . S
H714 C711 0.999 . S
H715 C696 0.913 . S
H716 C734 0.951 . S
H717 C736 0.951 . S
H718 C738 0.950 . S
H719 C739 0.950 . S
H720 C741 0.950 . S
H721 C744 0.950 . S
H722 C745 0.950 . S
H723 C747 0.950 . S
H724 C748 0.950 . S
H725 C749 0.951 . S
H726 C751 0.951 . S
H727 C753 0.950 . S
H728 C754 0.950 . S
H729 C756 0.950 . S
H730 C759 0.950 . S
H731 C760 0.950 . S
H732 C762 0.950 . S
H733 C763 0.950 . S
C734 H716 0.951 . S
C734 C735 1.366 . S
C734 C736 1.388 . S
C735 C734 1.366 . S
C735 C739 1.385 . S
C736 H717 0.951 . S
C736 C734 1.388 . S
C736 C737 1.366 . S
C737 C736 1.366 . S
C737 C738 1.414 . S
C737 C740 1.499 . S
C738 H718 0.950 . S
C738 C737 1.414 . S
C738 C739 1.374 . S
C739 H719 0.950 . S
C739 C735 1.385 . S
C739 C738 1.374 . S
C740 C737 1.499 . S
C740 C741 1.373 . S
C740 C742 1.389 . S
C741 H720 0.950 . S
C741 C740 1.373 . S
C741 C757 1.377 . S
C742 C740 1.389 . S
C742 C743 1.524 . S
C742 C756 1.377 . S
C743 C742 1.524 . S
C743 C744 1.397 . S
C743 C748 1.363 1_554 S
C744 H721 0.950 . S
C744 C743 1.397 . S
C744 C745 1.334 1_554 S
C745 H722 0.950 . S
C745 C744 1.334 1_556 S
C745 C746 1.287 . S
C746 C745 1.287 . S
C746 C747 1.524 . S
C746 H765 0.913 . S
C747 H723 0.950 . S
C747 C746 1.524 . S
C747 C748 1.415 . S
C748 H724 0.950 . S
C748 C743 1.363 1_556 S
C748 C747 1.415 . S
C749 H725 0.951 . S
C749 C750 1.366 . S
C749 C751 1.388 . S
C750 C749 1.366 . S
C750 C754 1.385 . S
C751 H726 0.951 . S
C751 C749 1.388 . S
C751 C752 1.366 . S
C752 C751 1.366 . S
C752 C753 1.414 . S
C752 C755 1.499 . S
C753 H727 0.950 . S
C753 C752 1.414 . S
C753 C754 1.374 . S
C754 H728 0.950 . S
C754 C750 1.385 . S
C754 C753 1.374 . S
C755 C752 1.499 . S
C755 C756 1.373 . S
C755 C757 1.389 . S
C756 H729 0.950 . S
C756 C742 1.377 . S
C756 C755 1.373 . S
C757 C741 1.377 . S
C757 C755 1.389 . S
C757 C758 1.524 . S
C758 C757 1.524 . S
C758 C759 1.397 . S
C758 C763 1.363 . S
C759 H730 0.950 . S
C759 C758 1.397 . S
C759 C760 1.334 . S
C760 H731 0.950 . S
C760 C759 1.334 . S
C760 C761 1.287 . S
C761 C760 1.287 . S
C761 C762 1.524 . S
C761 H764 0.999 . S
C762 H732 0.950 . S
C762 C761 1.524 . S
C762 C763 1.415 . S
C763 H733 0.950 . S
C763 C758 1.363 . S
C763 C762 1.415 . S
H764 C761 0.999 . S
H765 C746 0.913 . S
H766 C784 0.951 . S
H767 C786 0.951 . S
H768 C788 0.950 . S
H769 C789 0.950 . S
H770 C791 0.950 . S
H771 C794 0.950 . S
H772 C795 0.950 . S
H773 C797 0.950 . S
H774 C798 0.950 . S
H775 C799 0.951 . S
H776 C801 0.951 . S
H777 C803 0.950 . S
H778 C804 0.950 . S
H779 C806 0.950 . S
H780 C809 0.950 . S
H781 C810 0.950 . S
H782 C812 0.950 . S
H783 C813 0.950 . S
C784 H766 0.951 . S
C784 C785 1.366 . S
C784 C786 1.388 . S
C785 C784 1.366 . S
C785 C789 1.385 . S
C786 H767 0.951 . S
C786 C784 1.388 . S
C786 C787 1.366 . S
C787 C786 1.366 . S
C787 C788 1.414 . S
C787 C790 1.499 . S
C788 H768 0.950 . S
C788 C787 1.414 . S
C788 C789 1.374 . S
C789 H769 0.950 . S
C789 C785 1.385 . S
C789 C788 1.374 . S
C790 C787 1.499 . S
C790 C791 1.373 1_545 S
C790 C792 1.389 . S
C791 H770 0.950 . S
C791 C790 1.373 1_565 S
C791 C807 1.377 . S
C792 C790 1.389 . S
C792 C793 1.524 . S
C792 C806 1.377 . S
C793 C792 1.524 . S
C793 C794 1.397 . S
C793 C798 1.363 . S
C794 H771 0.950 . S
C794 C793 1.397 . S
C794 C795 1.334 . S
C795 H772 0.950 . S
C795 C794 1.334 . S
C795 C796 1.287 . S
C796 C795 1.287 . S
C796 C797 1.524 . S
C796 H815 0.913 . S
C797 H773 0.950 . S
C797 C796 1.524 . S
C797 C798 1.415 . S
C798 H774 0.950 . S
C798 C793 1.363 . S
C798 C797 1.415 . S
C799 H775 0.951 . S
C799 C800 1.366 1_565 S
C799 C801 1.388 . S
C800 C799 1.366 1_545 S
C800 C804 1.385 . S
C801 H776 0.951 . S
C801 C799 1.388 . S
C801 C802 1.366 1_565 S
C802 C801 1.366 1_545 S
C802 C803 1.414 . S
C802 C805 1.499 . S
C803 H777 0.950 . S
C803 C802 1.414 . S
C803 C804 1.374 . S
C804 H778 0.950 . S
C804 C800 1.385 . S
C804 C803 1.374 . S
C805 C802 1.499 . S
C805 C806 1.373 . S
C805 C807 1.389 1_545 S
C806 H779 0.950 . S
C806 C792 1.377 . S
C806 C805 1.373 . S
C807 C791 1.377 . S
C807 C805 1.389 1_565 S
C807 C808 1.524 . S
C808 C807 1.524 . S
C808 C809 1.397 . S
C808 C813 1.363 . S
C809 H780 0.950 . S
C809 C808 1.397 . S
C809 C810 1.334 . S
C810 H781 0.950 . S
C810 C809 1.334 . S
C810 C811 1.287 . S
C811 C810 1.287 . S
C811 C812 1.524 . S
C811 H814 0.999 . S
C812 H782 0.950 . S
C812 C811 1.524 . S
C812 C813 1.415 . S
C813 H783 0.950 . S
C813 C808 1.363 . S
C813 C812 1.415 . S
H814 C811 0.999 . S
H815 C796 0.913 . S
H816 C834 0.951 . S
H817 C836 0.951 . S
H818 C838 0.950 . S
H819 C839 0.950 . S
H820 C841 0.950 . S
H821 C844 0.950 . S
H822 C845 0.950 . S
H823 C847 0.950 . S
H824 C848 0.950 . S
H825 C849 0.951 . S
H826 C851 0.951 . S
H827 C853 0.950 . S
H828 C854 0.950 . S
H829 C856 0.950 . S
H830 C859 0.950 . S
H831 C860 0.950 . S
H832 C862 0.950 . S
H833 C863 0.950 . S
C834 H816 0.951 . S
C834 C835 1.366 . S
C834 C836 1.388 . S
C835 C834 1.366 . S
C835 C839 1.385 . S
C836 H817 0.951 . S
C836 C834 1.388 . S
C836 C837 1.366 . S
C837 C836 1.366 . S
C837 C838 1.414 . S
C837 C840 1.499 . S
C838 H818 0.950 . S
C838 C837 1.414 . S
C838 C839 1.374 . S
C839 H819 0.950 . S
C839 C835 1.385 . S
C839 C838 1.374 . S
C840 C837 1.499 . S
C840 C841 1.373 . S
C840 C842 1.389 . S
C841 H820 0.950 . S
C841 C840 1.373 . S
C841 C857 1.377 . S
C842 C840 1.389 . S
C842 C843 1.524 . S
C842 C856 1.377 . S
C843 C842 1.524 . S
C843 C844 1.397 . S
C843 C848 1.363 . S
C844 H821 0.950 . S
C844 C843 1.397 . S
C844 C845 1.334 . S
C845 H822 0.950 . S
C845 C844 1.334 . S
C845 C846 1.287 . S
C846 C845 1.287 . S
C846 C847 1.524 . S
C846 H865 0.913 . S
C847 H823 0.950 . S
C847 C846 1.524 . S
C847 C848 1.415 . S
C848 H824 0.950 . S
C848 C843 1.363 . S
C848 C847 1.415 . S
C849 H825 0.951 . S
C849 C850 1.366 . S
C849 C851 1.388 . S
C850 C849 1.366 . S
C850 C854 1.385 . S
C851 H826 0.951 . S
C851 C849 1.388 . S
C851 C852 1.366 . S
C852 C851 1.366 . S
C852 C853 1.414 . S
C852 C855 1.499 . S
C853 H827 0.950 . S
C853 C852 1.414 . S
C853 C854 1.374 . S
C854 H828 0.950 . S
C854 C850 1.385 . S
C854 C853 1.374 . S
C855 C852 1.499 . S
C855 C856 1.373 . S
C855 C857 1.389 . S
C856 H829 0.950 . S
C856 C842 1.377 . S
C856 C855 1.373 . S
C857 C841 1.377 . S
C857 C855 1.389 . S
C857 C858 1.524 . S
C858 C857 1.524 . S
C858 C859 1.397 . S
C858 C863 1.363 . S
C859 H830 0.950 . S
C859 C858 1.397 . S
C859 C860 1.334 . S
C860 H831 0.950 . S
C860 C859 1.334 . S
C860 C861 1.287 . S
C861 C860 1.287 . S
C861 C862 1.524 . S
C861 H864 0.999 . S
C862 H832 0.950 . S
C862 C861 1.524 . S
C862 C863 1.415 . S
C863 H833 0.950 . S
C863 C858 1.363 . S
C863 C862 1.415 . S
H864 C861 0.999 . S
H865 C846 0.913 . S
H866 C884 0.951 . S
H867 C886 0.951 . S
H868 C888 0.950 . S
H869 C889 0.950 . S
H870 C891 0.950 . S
H871 C894 0.951 . S
H872 C895 0.950 . S
H873 C897 0.950 . S
H874 C898 0.950 . S
H875 C899 0.951 . S
H876 C901 0.951 . S
H877 C903 0.950 . S
H878 C904 0.967 . S
H879 C906 0.950 . S
H880 C909 0.950 . S
H881 C910 0.950 . S
H882 C912 0.950 . S
H883 C913 0.950 . S
C884 H866 0.951 . S
C884 C885 1.366 . S
C884 C886 1.388 . S
C885 C884 1.366 . S
C885 C889 1.385 . S
C886 H867 0.951 . S
C886 C884 1.388 . S
C886 C887 1.366 . S
C887 C886 1.366 . S
C887 C888 1.414 . S
C887 C890 1.499 . S
C888 H868 0.950 . S
C888 C887 1.414 . S
C888 C889 1.374 . S
C889 H869 0.950 . S
C889 C885 1.385 . S
C889 C888 1.374 . S
C890 C887 1.499 . S
C890 C891 1.373 . S
C890 C892 1.389 . S
C891 H870 0.950 . S
C891 C890 1.373 . S
C891 C907 1.377 . S
C892 C890 1.389 . S
C892 C893 1.524 . S
C892 C906 1.377 . S
C893 C892 1.524 . S
C893 C894 1.397 . S
C893 C898 1.363 . S
C894 H871 0.951 . S
C894 C893 1.397 . S
C894 C895 1.334 1_455 S
C895 H872 0.950 . S
C895 C894 1.334 1_655 S
C895 C896 1.287 . S
C896 C895 1.287 . S
C896 C897 1.524 1_655 S
C896 H915 0.913 . S
C897 H873 0.950 . S
C897 C896 1.524 1_455 S
C897 C898 1.415 . S
C898 H874 0.950 . S
C898 C893 1.363 . S
C898 C897 1.415 . S
C899 H875 0.951 . S
C899 C900 1.366 . S
C899 C901 1.388 . S
C900 C899 1.366 . S
C900 C904 1.376 1_655 S
C901 H876 0.951 . S
C901 C899 1.388 . S
C901 C902 1.366 1_655 S
C902 C901 1.366 1_455 S
C902 C903 1.414 . S
C902 C905 1.499 . S
C903 H877 0.950 . S
C903 C902 1.414 . S
C903 C904 1.370 . S
C904 H878 0.967 . S
C904 C900 1.376 1_455 S
C904 C903 1.370 . S
C905 C902 1.499 . S
C905 C906 1.373 . S
C905 C907 1.389 . S
C906 H879 0.950 . S
C906 C892 1.377 . S
C906 C905 1.373 . S
C907 C891 1.377 . S
C907 C905 1.389 . S
C907 C908 1.524 . S
C908 C907 1.524 . S
C908 C909 1.397 . S
C908 C913 1.363 . S
C909 H880 0.950 . S
C909 C908 1.397 . S
C909 C910 1.334 . S
C910 H881 0.950 . S
C910 C909 1.334 . S
C910 C911 1.287 . S
C911 C910 1.287 . S
C911 C912 1.524 . S
C911 H914 0.999 . S
C912 H882 0.950 . S
C912 C911 1.524 . S
C912 C913 1.415 . S
C913 H883 0.950 . S
C913 C908 1.363 . S
C913 C912 1.415 . S
H914 C911 0.999 . S
H915 C896 0.913 . S
H916 C934 0.951 . S
H917 C936 0.951 . S
H918 C938 0.950 . S
H919 C939 0.950 . S
H920 C941 0.950 . S
H921 C944 0.950 . S
H922 C945 0.950 . S
H923 C947 0.950 . S
H924 C948 0.950 . S
H925 C949 0.951 . S
H926 C951 0.951 . S
H927 C953 0.950 . S
H928 C954 0.950 . S
H929 C956 0.950 . S
H930 C959 0.950 . S
H931 C960 0.950 . S
H932 C962 0.950 . S
H933 C963 0.950 . S
C934 H916 0.951 . S
C934 C935 1.366 . S
C934 C936 1.388 . S
C935 C934 1.366 . S
C935 C939 1.385 . S
C936 H917 0.951 . S
C936 C934 1.388 . S
C936 C937 1.366 . S
C937 C936 1.366 . S
C937 C938 1.414 . S
C937 C940 1.499 . S
C938 H918 0.950 . S
C938 C937 1.414 . S
C938 C939 1.374 . S
C939 H919 0.950 . S
C939 C935 1.385 . S
C939 C938 1.374 . S
C940 C937 1.499 . S
C940 C941 1.373 . S
C940 C942 1.389 . S
C941 H920 0.950 . S
C941 C940 1.373 . S
C941 C957 1.377 . S
C942 C940 1.389 . S
C942 C943 1.524 . S
C942 C956 1.377 . S
C943 C942 1.524 . S
C943 C944 1.397 . S
C943 C948 1.363 . S
C944 H921 0.950 . S
C944 C943 1.397 . S
C944 C945 1.334 . S
C945 H922 0.950 . S
C945 C944 1.334 . S
C945 C946 1.287 . S
C946 C945 1.287 . S
C946 C947 1.524 . S
C946 H965 0.913 . S
C947 H923 0.950 . S
C947 C946 1.524 . S
C947 C948 1.415 . S
C948 H924 0.950 . S
C948 C943 1.363 . S
C948 C947 1.415 . S
C949 H925 0.951 . S
C949 C950 1.366 . S
C949 C951 1.388 . S
C950 C949 1.366 . S
C950 C954 1.385 . S
C951 H926 0.951 . S
C951 C949 1.388 . S
C951 C952 1.366 . S
C952 C951 1.366 . S
C952 C953 1.414 . S
C952 C955 1.499 . S
C953 H927 0.950 . S
C953 C952 1.414 . S
C953 C954 1.374 . S
C954 H928 0.950 . S
C954 C950 1.385 . S
C954 C953 1.374 . S
C955 C952 1.499 . S
C955 C956 1.373 . S
C955 C957 1.389 . S
C956 H929 0.950 . S
C956 C942 1.377 . S
C956 C955 1.373 . S
C957 C941 1.377 . S
C957 C955 1.389 . S
C957 C958 1.524 . S
C958 C957 1.524 . S
C958 C959 1.397 . S
C958 C963 1.363 . S
C959 H930 0.950 . S
C959 C958 1.397 . S
C959 C960 1.334 . S
C960 H931 0.950 . S
C960 C959 1.334 . S
C960 C961 1.287 . S
C961 C960 1.287 . S
C961 C962 1.524 . S
C961 H964 0.999 . S
C962 H932 0.950 . S
C962 C961 1.524 . S
C962 C963 1.415 . S
C963 H933 0.950 . S
C963 C958 1.363 . S
C963 C962 1.415 . S
H964 C961 0.999 . S
H965 C946 0.913 . S
H966 C984 0.951 . S
H967 C986 0.951 . S
H968 C988 0.927 1_554 S
H969 C989 0.950 1_554 S
H970 C991 0.950 1_655 S
H971 C994 0.950 . S
H972 C995 0.950 1_554 S
H973 C997 0.950 . S
H974 C998 0.950 . S
H975 C999 0.951 . S
H976 C1001 0.951 . S
H977 C1003 0.950 . S
H978 C1004 0.950 . S
H979 C1006 0.950 . S
H980 C1009 0.950 . S
H981 C1010 0.950 . S
H982 C1012 0.950 . S
H983 C1013 0.950 . S
C984 H966 0.951 . S
C984 C985 1.366 . S
C984 C986 1.388 . S
C985 C984 1.366 . S
C985 C989 1.385 . S
C986 H967 0.951 . S
C986 C984 1.388 . S
C986 C987 1.366 . S
C987 C986 1.366 . S
C987 C988 1.414 . S
C987 C990 1.499 . S
C988 H968 0.927 1_556 S
C988 C987 1.414 . S
C988 C989 1.374 . S
C989 H969 0.950 1_556 S
C989 C985 1.385 . S
C989 C988 1.374 . S
C990 C987 1.499 . S
C990 C991 1.373 . S
C990 C992 1.389 . S
C991 H970 0.950 1_455 S
C991 C990 1.373 . S
C991 C1007 1.377 1_455 S
C992 C990 1.389 . S
C992 C993 1.524 . S
C992 C1006 1.377 . S
C993 C992 1.524 . S
C993 C994 1.397 . S
C993 C998 1.363 . S
C994 H971 0.950 . S
C994 C993 1.397 . S
C994 C995 1.334 . S
C995 H972 0.950 1_556 S
C995 C994 1.334 . S
C995 C996 1.287 . S
C996 C995 1.287 . S
C996 C997 1.524 . S
C996 H1015 0.913 . S
C997 H973 0.950 . S
C997 C996 1.524 . S
C997 C998 1.415 . S
C998 H974 0.950 . S
C998 C993 1.363 . S
C998 C997 1.415 . S
C999 H975 0.951 . S
C999 C1000 1.366 . S
C999 C1001 1.388 . S
C1000 C999 1.366 . S
C1000 C1004 1.385 1_655 S
C1001 H976 0.951 . S
C1001 C999 1.388 . S
C1001 C1002 1.367 1_655 S
C1002 C1001 1.367 1_455 S
C1002 C1003 1.414 . S
C1002 C1005 1.497 . S
C1003 H977 0.950 . S
C1003 C1002 1.414 . S
C1003 C1004 1.374 . S
C1004 H978 0.950 . S
C1004 C1000 1.385 1_455 S
C1004 C1003 1.374 . S
C1005 C1002 1.497 . S
C1005 C1006 1.373 . S
C1005 C1007 1.389 1_455 S
C1006 H979 0.950 . S
C1006 C992 1.377 . S
C1006 C1005 1.373 . S
C1007 C991 1.377 1_655 S
C1007 C1005 1.389 1_655 S
C1007 C1008 1.524 . S
C1008 C1007 1.524 . S
C1008 C1009 1.397 . S
C1008 C1013 1.363 . S
C1009 H980 0.950 . S
C1009 C1008 1.397 . S
C1009 C1010 1.334 . S
C1010 H981 0.950 . S
C1010 C1009 1.334 . S
C1010 C1011 1.287 . S
C1011 C1010 1.287 . S
C1011 C1012 1.524 . S
C1011 H1014 0.999 . S
C1012 H982 0.950 . S
C1012 C1011 1.524 . S
C1012 C1013 1.415 . S
C1013 H983 0.950 . S
C1013 C1008 1.363 . S
C1013 C1012 1.415 . S
H1014 C1011 0.999 . S
H1015 C996 0.913 . S
H1016 C1034 0.951 . S
H1017 C1036 0.951 . S
H1018 C1038 0.950 . S
H1019 C1039 0.950 . S
H1020 C1041 0.950 . S
H1021 C1044 0.950 . S
H1022 C1045 0.950 1_556 S
H1023 C1047 0.950 . S
H1024 C1048 0.950 . S
H1025 C1049 0.951 . S
H1026 C1051 0.951 . S
H1027 C1053 0.950 . S
H1028 C1054 0.950 . S
H1029 C1056 0.950 . S
H1030 C1059 0.950 . S
H1031 C1060 0.950 . S
H1032 C1062 0.950 . S
H1033 C1063 0.950 . S
C1034 H1016 0.951 . S
C1034 C1035 1.366 1_554 S
C1034 C1036 1.388 . S
C1035 C1034 1.366 1_556 S
C1035 C1039 1.385 . S
C1036 H1017 0.951 . S
C1036 C1034 1.388 . S
C1036 C1037 1.366 1_554 S
C1037 C1036 1.366 1_556 S
C1037 C1038 1.414 . S
C1037 C1040 1.499 . S
C1038 H1018 0.950 . S
C1038 C1037 1.414 . S
C1038 C1039 1.374 . S
C1039 H1019 0.950 . S
C1039 C1035 1.385 . S
C1039 C1038 1.374 . S
C1040 C1037 1.499 . S
C1040 C1041 1.373 . S
C1040 C1042 1.389 . S
C1041 H1020 0.950 . S
C1041 C1040 1.373 . S
C1041 C1057 1.377 . S
C1042 C1040 1.389 . S
C1042 C1043 1.503 1_556 S
C1042 C1056 1.377 . S
C1043 C1042 1.503 1_554 S
C1043 C1044 1.383 1_554 S
C1043 C1048 1.395 . S
C1044 H1021 0.950 . S
C1044 C1043 1.383 1_556 S
C1044 C1045 1.334 1_556 S
C1045 H1022 0.950 1_554 S
C1045 C1044 1.334 1_554 S
C1045 C1046 1.287 . S
C1046 C1045 1.287 . S
C1046 C1047 1.524 . S
C1046 H1065 0.913 . S
C1047 H1023 0.950 . S
C1047 C1046 1.524 . S
C1047 C1048 1.415 . S
C1048 H1024 0.950 . S
C1048 C1043 1.395 . S
C1048 C1047 1.415 . S
C1049 H1025 0.951 . S
C1049 C1050 1.366 . S
C1049 C1051 1.388 . S
C1050 C1049 1.366 . S
C1050 C1054 1.385 . S
C1051 H1026 0.951 . S
C1051 C1049 1.388 . S
C1051 C1052 1.366 . S
C1052 C1051 1.366 . S
C1052 C1053 1.414 . S
C1052 C1055 1.499 . S
C1053 H1027 0.950 . S
C1053 C1052 1.414 . S
C1053 C1054 1.374 . S
C1054 H1028 0.950 . S
C1054 C1050 1.385 . S
C1054 C1053 1.374 . S
C1055 C1052 1.499 . S
C1055 C1056 1.373 . S
C1055 C1057 1.389 . S
C1056 H1029 0.950 . S
C1056 C1042 1.377 . S
C1056 C1055 1.373 . S
C1057 C1041 1.377 . S
C1057 C1055 1.389 . S
C1057 C1058 1.524 . S
C1058 C1057 1.524 . S
C1058 C1059 1.397 . S
C1058 C1063 1.363 . S
C1059 H1030 0.950 . S
C1059 C1058 1.397 . S
C1059 C1060 1.334 . S
C1060 H1031 0.950 . S
C1060 C1059 1.334 . S
C1060 C1061 1.287 . S
C1061 C1060 1.287 . S
C1061 C1062 1.524 . S
C1061 H1064 0.999 . S
C1062 H1032 0.950 . S
C1062 C1061 1.524 . S
C1062 C1063 1.415 . S
C1063 H1033 0.950 . S
C1063 C1058 1.363 . S
C1063 C1062 1.415 . S
H1064 C1061 0.999 . S
H1065 C1046 0.913 . S
H1066 C1084 0.951 . S
H1067 C1086 0.951 . S
H1068 C1088 0.950 . S
H1069 C1089 0.950 . S
H1070 C1091 0.950 . S
H1071 C1094 0.950 . S
H1072 C1095 0.950 . S
H1073 C1097 0.950 . S
H1074 C1098 0.950 . S
H1075 C1099 0.951 . S
H1076 C1101 0.951 . S
H1077 C1103 0.950 . S
H1078 C1104 0.950 . S
H1079 C1106 0.950 . S
H1080 C1109 0.950 . S
H1081 C1110 0.950 . S
H1082 C1112 0.950 . S
H1083 C1113 0.950 . S
C1084 H1066 0.951 . S
C1084 C1085 1.366 1_554 S
C1084 C1086 1.388 . S
C1085 C1084 1.366 1_556 S
C1085 C1089 1.385 . S
C1086 H1067 0.951 . S
C1086 C1084 1.388 . S
C1086 C1087 1.366 1_554 S
C1087 C1086 1.366 1_556 S
C1087 C1088 1.414 . S
C1087 C1090 1.499 . S
C1088 H1068 0.950 . S
C1088 C1087 1.414 . S
C1088 C1089 1.374 . S
C1089 H1069 0.950 . S
C1089 C1085 1.385 . S
C1089 C1088 1.374 . S
C1090 C1087 1.499 . S
C1090 C1091 1.373 . S
C1090 C1092 1.389 . S
C1091 H1070 0.950 . S
C1091 C1090 1.373 . S
C1091 C1107 1.377 . S
C1092 C1090 1.389 . S
C1092 C1093 1.524 1_556 S
C1092 C1106 1.377 . S
C1093 C1092 1.524 1_554 S
C1093 C1094 1.397 1_554 S
C1093 C1098 1.363 . S
C1094 H1071 0.950 . S
C1094 C1093 1.397 1_556 S
C1094 C1095 1.334 1_556 S
C1095 H1072 0.950 . S
C1095 C1094 1.334 1_554 S
C1095 C1096 1.287 . S
C1096 C1095 1.287 . S
C1096 C1097 1.524 . S
C1096 H1115 0.913 . S
C1097 H1073 0.950 . S
C1097 C1096 1.524 . S
C1097 C1098 1.415 . S
C1098 H1074 0.950 . S
C1098 C1093 1.363 . S
C1098 C1097 1.415 . S
C1099 H1075 0.951 . S
C1099 C1100 1.366 . S
C1099 C1101 1.388 . S
C1100 C1099 1.366 . S
C1100 C1104 1.385 . S
C1101 H1076 0.951 . S
C1101 C1099 1.388 . S
C1101 C1102 1.366 . S
C1102 C1101 1.366 . S
C1102 C1103 1.414 . S
C1102 C1105 1.499 . S
C1103 H1077 0.950 . S
C1103 C1102 1.414 . S
C1103 C1104 1.374 . S
C1104 H1078 0.950 . S
C1104 C1100 1.385 . S
C1104 C1103 1.374 . S
C1105 C1102 1.499 . S
C1105 C1106 1.373 . S
C1105 C1107 1.389 . S
C1106 H1079 0.950 . S
C1106 C1092 1.377 . S
C1106 C1105 1.373 . S
C1107 C1091 1.377 . S
C1107 C1105 1.389 . S
C1107 C1108 1.524 . S
C1108 C1107 1.524 . S
C1108 C1109 1.397 . S
C1108 C1113 1.363 . S
C1109 H1080 0.950 . S
C1109 C1108 1.397 . S
C1109 C1110 1.334 . S
C1110 H1081 0.950 . S
C1110 C1109 1.334 . S
C1110 C1111 1.287 . S
C1111 C1110 1.287 . S
C1111 C1112 1.524 . S
C1111 H1114 0.999 . S
C1112 H1082 0.950 . S
C1112 C1111 1.524 . S
C1112 C1113 1.415 . S
C1113 H1083 0.950 . S
C1113 C1108 1.363 . S
C1113 C1112 1.415 . S
H1114 C1111 0.999 . S
H1115 C1096 0.913 . S
H1116 C1134 0.951 . S
H1117 C1136 0.951 . S
H1118 C1138 0.950 . S
H1119 C1139 0.950 . S
H1120 C1141 0.950 . S
H1121 C1144 0.950 . S
H1122 C1145 0.950 . S
H1123 C1147 0.950 . S
H1124 C1148 0.950 . S
H1125 C1149 0.951 . S
H1126 C1151 0.951 . S
H1127 C1153 0.950 . S
H1128 C1154 0.950 . S
H1129 C1156 0.950 . S
H1130 C1159 0.909 1_565 S
H1131 C1160 0.950 1_565 S
H1132 C1162 0.950 . S
H1133 C1163 0.950 . S
C1134 H1116 0.951 . S
C1134 C1135 1.366 1_565 S
C1134 C1136 1.388 . S
C1135 C1134 1.366 1_545 S
C1135 C1139 1.385 . S
C1136 H1117 0.951 . S
C1136 C1134 1.388 . S
C1136 C1137 1.366 1_565 S
C1137 C1136 1.366 1_545 S
C1137 C1138 1.414 . S
C1137 C1140 1.499 . S
C1138 H1118 0.950 . S
C1138 C1137 1.414 . S
C1138 C1139 1.374 . S
C1139 H1119 0.950 . S
C1139 C1135 1.385 . S
C1139 C1138 1.374 . S
C1140 C1137 1.499 . S
C1140 C1141 1.373 . S
C1140 C1142 1.389 1_545 S
C1141 H1120 0.950 . S
C1141 C1140 1.373 . S
C1141 C1157 1.377 . S
C1142 C1140 1.389 1_565 S
C1142 C1143 1.524 . S
C1142 C1156 1.377 . S
C1143 C1142 1.524 . S
C1143 C1144 1.397 1_565 S
C1143 C1148 1.363 . S
C1144 H1121 0.950 . S
C1144 C1143 1.397 1_545 S
C1144 C1145 1.334 . S
C1145 H1122 0.950 . S
C1145 C1144 1.334 . S
C1145 C1146 1.287 1_545 S
C1146 C1145 1.287 1_565 S
C1146 C1147 1.524 . S
C1146 H1165 0.913 . S
C1147 H1123 0.950 . S
C1147 C1146 1.524 . S
C1147 C1148 1.415 . S
C1148 H1124 0.950 . S
C1148 C1143 1.363 . S
C1148 C1147 1.415 . S
C1149 H1125 0.951 . S
C1149 C1150 1.366 . S
C1149 C1151 1.388 . S
C1150 C1149 1.366 . S
C1150 C1154 1.385 1_545 S
C1151 H1126 0.951 . S
C1151 C1149 1.388 . S
C1151 C1152 1.366 . S
C1152 C1151 1.366 . S
C1152 C1153 1.414 1_545 S
C1152 C1155 1.499 . S
C1153 H1127 0.950 . S
C1153 C1152 1.414 1_565 S
C1153 C1154 1.374 . S
C1154 H1128 0.950 . S
C1154 C1150 1.385 1_565 S
C1154 C1153 1.374 . S
C1155 C1152 1.499 . S
C1155 C1156 1.373 1_545 S
C1155 C1157 1.389 . S
C1156 H1129 0.950 . S
C1156 C1142 1.377 . S
C1156 C1155 1.373 1_565 S
C1157 C1141 1.377 . S
C1157 C1155 1.389 . S
C1157 C1158 1.524 . S
C1158 C1157 1.524 . S
C1158 C1159 1.448 . S
C1158 C1163 1.363 . S
C1159 H1130 0.909 1_545 S
C1159 C1158 1.448 . S
C1159 C1160 1.325 . S
C1160 H1131 0.950 1_545 S
C1160 C1159 1.325 . S
C1160 C1161 1.287 . S
C1161 C1160 1.287 . S
C1161 C1162 1.524 . S
C1161 H1164 0.999 . S
C1162 H1132 0.950 . S
C1162 C1161 1.524 . S
C1162 C1163 1.415 . S
C1163 H1133 0.950 . S
C1163 C1158 1.363 . S
C1163 C1162 1.415 . S
H1164 C1161 0.999 . S
H1165 C1146 0.913 . S
H1166 C1184 0.951 . S
H1167 C1186 0.951 . S
H1168 C1188 0.950 . S
H1169 C1189 0.950 . S
H1170 C1191 0.950 . S
H1171 C1194 0.950 . S
H1172 C1195 0.950 . S
H1173 C1197 0.950 . S
H1174 C1198 0.950 . S
H1175 C1199 0.951 . S
H1176 C1201 0.951 . S
H1177 C1203 0.950 . S
H1178 C1204 0.950 . S
H1179 C1206 0.950 . S
H1180 C1209 0.950 . S
H1181 C1210 0.950 . S
H1182 C1212 0.950 . S
H1183 C1213 0.950 . S
C1184 H1166 0.951 . S
C1184 C1185 1.366 . S
C1184 C1186 1.388 . S
C1185 C1184 1.366 . S
C1185 C1189 1.385 . S
C1186 H1167 0.951 . S
C1186 C1184 1.388 . S
C1186 C1187 1.366 . S
C1187 C1186 1.366 . S
C1187 C1188 1.414 . S
C1187 C1190 1.499 . S
C1188 H1168 0.950 . S
C1188 C1187 1.414 . S
C1188 C1189 1.374 . S
C1189 H1169 0.950 . S
C1189 C1185 1.385 . S
C1189 C1188 1.374 . S
C1190 C1187 1.499 . S
C1190 C1191 1.373 . S
C1190 C1192 1.389 . S
C1191 H1170 0.950 . S
C1191 C1190 1.373 . S
C1191 C1207 1.377 . S
C1192 C1190 1.389 . S
C1192 C1193 1.524 . S
C1192 C1206 1.377 . S
C1193 C1192 1.524 . S
C1193 C1194 1.397 . S
C1193 C1198 1.363 . S
C1194 H1171 0.950 . S
C1194 C1193 1.397 . S
C1194 C1195 1.334 . S
C1195 H1172 0.950 . S
C1195 C1194 1.334 . S
C1195 C1196 1.287 . S
C1196 C1195 1.287 . S
C1196 C1197 1.524 . S
C1196 H1215 0.913 . S
C1197 H1173 0.950 . S
C1197 C1196 1.524 . S
C1197 C1198 1.415 . S
C1198 H1174 0.950 . S
C1198 C1193 1.363 . S
C1198 C1197 1.415 . S
C1199 H1175 0.951 . S
C1199 C1200 1.366 . S
C1199 C1201 1.388 . S
C1200 C1199 1.366 . S
C1200 C1204 1.385 . S
C1201 H1176 0.951 . S
C1201 C1199 1.388 . S
C1201 C1202 1.366 . S
C1202 C1201 1.366 . S
C1202 C1203 1.414 . S
C1202 C1205 1.499 . S
C1203 H1177 0.950 . S
C1203 C1202 1.414 . S
C1203 C1204 1.374 . S
C1204 H1178 0.950 . S
C1204 C1200 1.385 . S
C1204 C1203 1.374 . S
C1205 C1202 1.499 . S
C1205 C1206 1.373 . S
C1205 C1207 1.389 . S
C1206 H1179 0.950 . S
C1206 C1192 1.377 . S
C1206 C1205 1.373 . S
C1207 C1191 1.377 . S
C1207 C1205 1.389 . S
C1207 C1208 1.524 . S
C1208 C1207 1.524 . S
C1208 C1209 1.397 . S
C1208 C1213 1.363 . S
C1209 H1180 0.950 . S
C1209 C1208 1.397 . S
C1209 C1210 1.334 . S
C1210 H1181 0.950 . S
C1210 C1209 1.334 . S
C1210 C1211 1.287 . S
C1211 C1210 1.287 . S
C1211 C1212 1.524 . S
C1211 H1214 0.999 . S
C1212 H1182 0.950 . S
C1212 C1211 1.524 . S
C1212 C1213 1.415 . S
C1213 H1183 0.950 . S
C1213 C1208 1.363 . S
C1213 C1212 1.415 . S
H1214 C1211 0.999 . S
H1215 C1196 0.913 . S
H1216 C1234 0.951 . S
H1217 C1236 0.951 . S
H1218 C1238 0.950 . S
H1219 C1239 0.950 . S
H1220 C1241 0.950 . S
H1221 C1244 0.950 . S
H1222 C1245 0.950 . S
H1223 C1247 0.950 . S
H1224 C1248 0.950 . S
H1225 C1249 0.951 . S
H1226 C1251 0.951 . S
H1227 C1253 0.950 . S
H1228 C1254 0.950 . S
H1229 C1256 0.950 . S
H1230 C1259 0.950 . S
H1231 C1260 0.950 . S
H1232 C1262 0.950 . S
H1233 C1263 0.950 . S
C1234 H1216 0.951 . S
C1234 C1235 1.366 . S
C1234 C1236 1.388 . S
C1235 C1234 1.366 . S
C1235 C1239 1.385 . S
C1236 H1217 0.951 . S
C1236 C1234 1.388 . S
C1236 C1237 1.366 . S
C1237 C1236 1.366 . S
C1237 C1238 1.414 . S
C1237 C1240 1.499 . S
C1238 H1218 0.950 . S
C1238 C1237 1.414 . S
C1238 C1239 1.374 . S
C1239 H1219 0.950 . S
C1239 C1235 1.385 . S
C1239 C1238 1.374 . S
C1240 C1237 1.499 . S
C1240 C1241 1.373 . S
C1240 C1242 1.389 . S
C1241 H1220 0.950 . S
C1241 C1240 1.373 . S
C1241 C1257 1.377 . S
C1242 C1240 1.389 . S
C1242 C1243 1.524 . S
C1242 C1256 1.377 . S
C1243 C1242 1.524 . S
C1243 C1244 1.397 . S
C1243 C1248 1.363 . S
C1244 H1221 0.950 . S
C1244 C1243 1.397 . S
C1244 C1245 1.334 . S
C1245 H1222 0.950 . S
C1245 C1244 1.334 . S
C1245 C1246 1.287 . S
C1246 C1245 1.287 . S
C1246 C1247 1.524 . S
C1246 H1265 0.913 . S
C1247 H1223 0.950 . S
C1247 C1246 1.524 . S
C1247 C1248 1.415 . S
C1248 H1224 0.950 . S
C1248 C1243 1.363 . S
C1248 C1247 1.415 . S
C1249 H1225 0.951 . S
C1249 C1250 1.366 . S
C1249 C1251 1.388 . S
C1250 C1249 1.366 . S
C1250 C1254 1.385 . S
C1251 H1226 0.951 . S
C1251 C1249 1.388 . S
C1251 C1252 1.366 . S
C1252 C1251 1.366 . S
C1252 C1253 1.414 . S
C1252 C1255 1.499 . S
C1253 H1227 0.950 . S
C1253 C1252 1.414 . S
C1253 C1254 1.374 . S
C1254 H1228 0.950 . S
C1254 C1250 1.385 . S
C1254 C1253 1.374 . S
C1255 C1252 1.499 . S
C1255 C1256 1.373 . S
C1255 C1257 1.389 . S
C1256 H1229 0.950 . S
C1256 C1242 1.377 . S
C1256 C1255 1.373 . S
C1257 C1241 1.377 . S
C1257 C1255 1.389 . S
C1257 C1258 1.524 . S
C1258 C1257 1.524 . S
C1258 C1259 1.397 . S
C1258 C1263 1.363 . S
C1259 H1230 0.950 . S
C1259 C1258 1.397 . S
C1259 C1260 1.334 . S
C1260 H1231 0.950 . S
C1260 C1259 1.334 . S
C1260 C1261 1.287 . S
C1261 C1260 1.287 . S
C1261 C1262 1.524 . S
C1261 H1264 0.999 . S
C1262 H1232 0.950 . S
C1262 C1261 1.524 . S
C1262 C1263 1.415 . S
C1263 H1233 0.950 . S
C1263 C1258 1.363 . S
C1263 C1262 1.415 . S
H1264 C1261 0.999 . S
H1265 C1246 0.913 . S
H1266 C1284 0.951 . S
H1267 C1286 0.951 . S
H1268 C1288 0.950 . S
H1269 C1289 0.950 . S
H1270 C1291 0.950 . S
H1271 C1294 0.950 . S
H1272 C1295 0.950 . S
H1273 C1297 0.950 . S
H1274 C1298 0.950 . S
H1275 C1299 0.951 . S
H1276 C1301 0.951 . S
H1277 C1303 0.950 . S
H1278 C1304 0.950 . S
H1279 C1306 0.950 . S
H1280 C1309 0.950 . S
H1281 C1310 0.950 . S
H1282 C1312 0.950 . S
H1283 C1313 0.950 . S
C1284 H1266 0.951 . S
C1284 C1285 1.366 . S
C1284 C1286 1.388 . S
C1285 C1284 1.366 . S
C1285 C1289 1.385 . S
C1286 H1267 0.951 . S
C1286 C1284 1.388 . S
C1286 C1287 1.366 . S
C1287 C1286 1.366 . S
C1287 C1288 1.414 . S
C1287 C1290 1.499 . S
C1288 H1268 0.950 . S
C1288 C1287 1.414 . S
C1288 C1289 1.374 . S
C1289 H1269 0.950 . S
C1289 C1285 1.385 . S
C1289 C1288 1.374 . S
C1290 C1287 1.499 . S
C1290 C1291 1.373 . S
C1290 C1292 1.389 . S
C1291 H1270 0.950 . S
C1291 C1290 1.373 . S
C1291 C1307 1.377 . S
C1292 C1290 1.389 . S
C1292 C1293 1.524 . S
C1292 C1306 1.377 . S
C1293 C1292 1.524 . S
C1293 C1294 1.397 . S
C1293 C1298 1.363 . S
C1294 H1271 0.950 . S
C1294 C1293 1.397 . S
C1294 C1295 1.334 . S
C1295 H1272 0.950 . S
C1295 C1294 1.334 . S
C1295 C1296 1.287 . S
C1296 C1295 1.287 . S
C1296 C1297 1.524 . S
C1296 H1315 0.913 . S
C1297 H1273 0.950 . S
C1297 C1296 1.524 . S
C1297 C1298 1.415 . S
C1298 H1274 0.950 . S
C1298 C1293 1.363 . S
C1298 C1297 1.415 . S
C1299 H1275 0.951 . S
C1299 C1300 1.366 . S
C1299 C1301 1.388 . S
C1300 C1299 1.366 . S
C1300 C1304 1.385 . S
C1301 H1276 0.951 . S
C1301 C1299 1.388 . S
C1301 C1302 1.366 . S
C1302 C1301 1.366 . S
C1302 C1303 1.414 . S
C1302 C1305 1.499 . S
C1303 H1277 0.950 . S
C1303 C1302 1.414 . S
C1303 C1304 1.374 . S
C1304 H1278 0.950 . S
C1304 C1300 1.385 . S
C1304 C1303 1.374 . S
C1305 C1302 1.499 . S
C1305 C1306 1.373 . S
C1305 C1307 1.389 . S
C1306 H1279 0.950 . S
C1306 C1292 1.377 . S
C1306 C1305 1.373 . S
C1307 C1291 1.377 . S
C1307 C1305 1.389 . S
C1307 C1308 1.524 . S
C1308 C1307 1.524 . S
C1308 C1309 1.397 . S
C1308 C1313 1.363 . S
C1309 H1280 0.950 . S
C1309 C1308 1.397 . S
C1309 C1310 1.334 . S
C1310 H1281 0.950 . S
C1310 C1309 1.334 . S
C1310 C1311 1.287 . S
C1311 C1310 1.287 . S
C1311 C1312 1.524 . S
C1311 H1314 0.999 . S
C1312 H1282 0.950 . S
C1312 C1311 1.524 . S
C1312 C1313 1.415 . S
C1313 H1283 0.950 . S
C1313 C1308 1.363 . S
C1313 C1312 1.415 . S
H1314 C1311 0.999 . S
H1315 C1296 0.913 . S
H1316 C1334 0.951 . S
H1317 C1336 0.951 . S
H1318 C1338 0.950 . S
H1319 C1339 0.950 . S
H1320 C1341 0.950 . S
H1321 C1344 0.950 . S
H1322 C1345 0.950 . S
H1323 C1347 0.950 . S
H1324 C1348 0.950 . S
H1325 C1349 0.951 . S
H1326 C1351 0.951 . S
H1327 C1353 0.950 . S
H1328 C1354 0.950 . S
H1329 C1356 0.950 . S
H1330 C1359 0.950 . S
H1331 C1360 0.950 . S
H1332 C1362 0.950 . S
H1333 C1363 0.950 . S
C1334 H1316 0.951 . S
C1334 C1335 1.366 . S
C1334 C1336 1.388 . S
C1335 C1334 1.366 . S
C1335 C1339 1.385 . S
C1336 H1317 0.951 . S
C1336 C1334 1.388 . S
C1336 C1337 1.366 . S
C1337 C1336 1.366 . S
C1337 C1338 1.414 . S
C1337 C1340 1.499 . S
C1338 H1318 0.950 . S
C1338 C1337 1.414 . S
C1338 C1339 1.374 . S
C1339 H1319 0.950 . S
C1339 C1335 1.385 . S
C1339 C1338 1.374 . S
C1340 C1337 1.499 . S
C1340 C1341 1.373 1_565 S
C1340 C1342 1.389 . S
C1341 H1320 0.950 . S
C1341 C1340 1.373 1_545 S
C1341 C1357 1.377 . S
C1342 C1340 1.389 . S
C1342 C1343 1.524 . S
C1342 C1356 1.377 1_565 S
C1343 C1342 1.524 . S
C1343 C1344 1.397 . S
C1343 C1348 1.363 . S
C1344 H1321 0.950 . S
C1344 C1343 1.397 . S
C1344 C1345 1.334 . S
C1345 H1322 0.950 . S
C1345 C1344 1.334 . S
C1345 C1346 1.287 . S
C1346 C1345 1.287 . S
C1346 C1347 1.524 . S
C1346 H1365 0.913 . S
C1347 H1323 0.950 . S
C1347 C1346 1.524 . S
C1347 C1348 1.415 . S
C1348 H1324 0.950 . S
C1348 C1343 1.363 . S
C1348 C1347 1.415 . S
C1349 H1325 0.951 . S
C1349 C1350 1.366 . S
C1349 C1351 1.388 . S
C1350 C1349 1.366 . S
C1350 C1354 1.385 . S
C1351 H1326 0.951 . S
C1351 C1349 1.388 . S
C1351 C1352 1.366 . S
C1352 C1351 1.366 . S
C1352 C1353 1.414 . S
C1352 C1355 1.499 . S
C1353 H1327 0.950 . S
C1353 C1352 1.414 . S
C1353 C1354 1.374 . S
C1354 H1328 0.950 . S
C1354 C1350 1.385 . S
C1354 C1353 1.374 . S
C1355 C1352 1.499 . S
C1355 C1356 1.373 . S
C1355 C1357 1.389 . S
C1356 H1329 0.950 . S
C1356 C1342 1.377 1_545 S
C1356 C1355 1.373 . S
C1357 C1341 1.377 . S
C1357 C1355 1.389 . S
C1357 C1358 1.524 . S
C1358 C1357 1.524 . S
C1358 C1359 1.397 . S
C1358 C1363 1.363 . S
C1359 H1330 0.950 . S
C1359 C1358 1.397 . S
C1359 C1360 1.334 . S
C1360 H1331 0.950 . S
C1360 C1359 1.334 . S
C1360 C1361 1.287 . S
C1361 C1360 1.287 . S
C1361 C1362 1.524 . S
C1361 H1364 0.999 . S
C1362 H1332 0.950 . S
C1362 C1361 1.524 . S
C1362 C1363 1.415 . S
C1363 H1333 0.950 . S
C1363 C1358 1.363 . S
C1363 C1362 1.415 . S
H1364 C1361 0.999 . S
H1365 C1346 0.913 . S
H1366 C1384 0.951 . S
H1367 C1386 0.951 . S
H1368 C1388 0.950 . S
H1369 C1389 0.950 . S
H1370 C1391 0.950 . S
H1371 C1394 0.950 . S
H1372 C1395 0.950 . S
H1373 C1397 0.950 . S
H1374 C1398 0.950 . S
H1375 C1399 0.951 . S
H1376 C1401 0.951 . S
H1377 C1403 0.950 . S
H1378 C1404 0.950 . S
H1379 C1406 0.950 . S
H1380 C1409 0.950 . S
H1381 C1410 0.950 . S
H1382 C1412 0.950 . S
H1383 C1413 0.950 . S
C1384 H1366 0.951 . S
C1384 C1385 1.366 . S
C1384 C1386 1.388 . S
C1385 C1384 1.366 . S
C1385 C1389 1.385 . S
C1386 H1367 0.951 . S
C1386 C1384 1.388 . S
C1386 C1387 1.366 . S
C1387 C1386 1.366 . S
C1387 C1388 1.414 . S
C1387 C1390 1.499 . S
C1388 H1368 0.950 . S
C1388 C1387 1.414 . S
C1388 C1389 1.374 . S
C1389 H1369 0.950 . S
C1389 C1385 1.385 . S
C1389 C1388 1.374 . S
C1390 C1387 1.499 . S
C1390 C1391 1.373 . S
C1390 C1392 1.389 . S
C1391 H1370 0.950 . S
C1391 C1390 1.373 . S
C1391 C1407 1.377 . S
C1392 C1390 1.389 . S
C1392 C1393 1.524 . S
C1392 C1406 1.377 . S
C1393 C1392 1.524 . S
C1393 C1394 1.397 . S
C1393 C1398 1.363 . S
C1394 H1371 0.950 . S
C1394 C1393 1.397 . S
C1394 C1395 1.334 . S
C1395 H1372 0.950 . S
C1395 C1394 1.334 . S
C1395 C1396 1.287 . S
C1396 C1395 1.287 . S
C1396 C1397 1.524 . S
C1396 H1415 0.913 . S
C1397 H1373 0.950 . S
C1397 C1396 1.524 . S
C1397 C1398 1.415 . S
C1398 H1374 0.950 . S
C1398 C1393 1.363 . S
C1398 C1397 1.415 . S
C1399 H1375 0.951 . S
C1399 C1400 1.366 . S
C1399 C1401 1.388 . S
C1400 C1399 1.366 . S
C1400 C1404 1.385 . S
C1401 H1376 0.951 . S
C1401 C1399 1.388 . S
C1401 C1402 1.366 . S
C1402 C1401 1.366 . S
C1402 C1403 1.414 . S
C1402 C1405 1.499 . S
C1403 H1377 0.950 . S
C1403 C1402 1.414 . S
C1403 C1404 1.374 . S
C1404 H1378 0.950 . S
C1404 C1400 1.385 . S
C1404 C1403 1.374 . S
C1405 C1402 1.499 . S
C1405 C1406 1.373 . S
C1405 C1407 1.389 . S
C1406 H1379 0.950 . S
C1406 C1392 1.377 . S
C1406 C1405 1.373 . S
C1407 C1391 1.377 . S
C1407 C1405 1.389 . S
C1407 C1408 1.524 . S
C1408 C1407 1.524 . S
C1408 C1409 1.397 . S
C1408 C1413 1.363 . S
C1409 H1380 0.950 . S
C1409 C1408 1.397 . S
C1409 C1410 1.334 . S
C1410 H1381 0.950 . S
C1410 C1409 1.334 . S
C1410 C1411 1.287 . S
C1411 C1410 1.287 . S
C1411 C1412 1.524 . S
C1411 H1414 0.999 . S
C1412 H1382 0.950 . S
C1412 C1411 1.524 . S
C1412 C1413 1.415 . S
C1413 H1383 0.950 . S
C1413 C1408 1.363 . S
C1413 C1412 1.415 . S
H1414 C1411 0.999 . S
H1415 C1396 0.913 . S
H1416 C1434 0.951 . S
H1417 C1436 0.951 . S
H1418 C1438 0.950 . S
H1419 C1439 0.950 . S
H1420 C1441 0.950 . S
H1421 C1444 0.950 . S
H1422 C1445 0.950 . S
H1423 C1447 0.950 . S
H1424 C1448 0.950 . S
H1425 C1449 0.951 . S
H1426 C1451 0.951 . S
H1427 C1453 0.950 . S
H1428 C1454 0.950 . S
H1429 C1456 0.950 . S
H1430 C1459 0.950 . S
H1431 C1460 0.950 . S
H1432 C1462 0.950 . S
H1433 C1463 0.950 . S
C1434 H1416 0.951 . S
C1434 C1435 1.366 . S
C1434 C1436 1.388 . S
C1435 C1434 1.366 . S
C1435 C1439 1.385 . S
C1436 H1417 0.951 . S
C1436 C1434 1.388 . S
C1436 C1437 1.366 . S
C1437 C1436 1.366 . S
C1437 C1438 1.414 . S
C1437 C1440 1.499 . S
C1438 H1418 0.950 . S
C1438 C1437 1.414 . S
C1438 C1439 1.374 . S
C1439 H1419 0.950 . S
C1439 C1435 1.385 . S
C1439 C1438 1.374 . S
C1440 C1437 1.499 . S
C1440 C1441 1.373 . S
C1440 C1442 1.389 . S
C1441 H1420 0.950 . S
C1441 C1440 1.373 . S
C1441 C1457 1.377 . S
C1442 C1440 1.389 . S
C1442 C1443 1.524 . S
C1442 C1456 1.377 . S
C1443 C1442 1.524 . S
C1443 C1444 1.397 . S
C1443 C1448 1.363 . S
C1444 H1421 0.950 . S
C1444 C1443 1.397 . S
C1444 C1445 1.334 . S
C1445 H1422 0.950 . S
C1445 C1444 1.334 . S
C1445 C1446 1.287 . S
C1446 C1445 1.287 . S
C1446 C1447 1.524 . S
C1446 H1465 0.913 . S
C1447 H1423 0.950 . S
C1447 C1446 1.524 . S
C1447 C1448 1.415 . S
C1448 H1424 0.950 . S
C1448 C1443 1.363 . S
C1448 C1447 1.415 . S
C1449 H1425 0.951 . S
C1449 C1450 1.366 . S
C1449 C1451 1.388 . S
C1450 C1449 1.366 . S
C1450 C1454 1.385 . S
C1451 H1426 0.951 . S
C1451 C1449 1.388 . S
C1451 C1452 1.366 . S
C1452 C1451 1.366 . S
C1452 C1453 1.414 . S
C1452 C1455 1.499 . S
C1453 H1427 0.950 . S
C1453 C1452 1.414 . S
C1453 C1454 1.374 . S
C1454 H1428 0.950 . S
C1454 C1450 1.385 . S
C1454 C1453 1.374 . S
C1455 C1452 1.499 . S
C1455 C1456 1.373 . S
C1455 C1457 1.389 . S
C1456 H1429 0.950 . S
C1456 C1442 1.377 . S
C1456 C1455 1.373 . S
C1457 C1441 1.377 . S
C1457 C1455 1.389 . S
C1457 C1458 1.524 . S
C1458 C1457 1.524 . S
C1458 C1459 1.397 . S
C1458 C1463 1.363 . S
C1459 H1430 0.950 . S
C1459 C1458 1.397 . S
C1459 C1460 1.334 . S
C1460 H1431 0.950 . S
C1460 C1459 1.334 . S
C1460 C1461 1.287 . S
C1461 C1460 1.287 . S
C1461 C1462 1.524 . S
C1461 H1464 0.999 . S
C1462 H1432 0.950 . S
C1462 C1461 1.524 . S
C1462 C1463 1.415 . S
C1463 H1433 0.950 . S
C1463 C1458 1.363 . S
C1463 C1462 1.415 . S
H1464 C1461 0.999 . S
H1465 C1446 0.913 . S
H1466 C1484 0.951 . S
H1467 C1486 0.951 . S
H1468 C1488 0.950 . S
H1469 C1489 0.950 . S
H1470 C1491 0.950 . S
H1471 C1494 0.950 . S
H1472 C1495 0.950 . S
H1473 C1497 0.950 . S
H1474 C1498 0.950 . S
H1475 C1499 0.951 . S
H1476 C1501 0.951 . S
H1477 C1503 0.950 . S
H1478 C1504 0.950 . S
H1479 C1506 0.950 . S
H1480 C1509 0.950 . S
H1481 C1510 0.950 . S
H1482 C1512 0.950 . S
H1483 C1513 0.950 . S
C1484 H1466 0.951 . S
C1484 C1485 1.366 . S
C1484 C1486 1.388 . S
C1485 C1484 1.366 . S
C1485 C1489 1.385 . S
C1486 H1467 0.951 . S
C1486 C1484 1.388 . S
C1486 C1487 1.366 . S
C1487 C1486 1.366 . S
C1487 C1488 1.414 . S
C1487 C1490 1.499 . S
C1488 H1468 0.950 . S
C1488 C1487 1.414 . S
C1488 C1489 1.374 . S
C1489 H1469 0.950 . S
C1489 C1485 1.385 . S
C1489 C1488 1.374 . S
C1490 C1487 1.499 . S
C1490 C1491 1.373 . S
C1490 C1492 1.389 . S
C1491 H1470 0.950 . S
C1491 C1490 1.373 . S
C1491 C1507 1.377 . S
C1492 C1490 1.389 . S
C1492 C1493 1.524 . S
C1492 C1506 1.377 . S
C1493 C1492 1.524 . S
C1493 C1494 1.397 . S
C1493 C1498 1.363 . S
C1494 H1471 0.950 . S
C1494 C1493 1.397 . S
C1494 C1495 1.334 . S
C1495 H1472 0.950 . S
C1495 C1494 1.334 . S
C1495 C1496 1.287 . S
C1496 C1495 1.287 . S
C1496 C1497 1.524 . S
C1496 H1515 0.913 . S
C1497 H1473 0.950 . S
C1497 C1496 1.524 . S
C1497 C1498 1.415 . S
C1498 H1474 0.950 . S
C1498 C1493 1.363 . S
C1498 C1497 1.415 . S
C1499 H1475 0.951 . S
C1499 C1500 1.366 . S
C1499 C1501 1.388 . S
C1500 C1499 1.366 . S
C1500 C1504 1.385 . S
C1501 H1476 0.951 . S
C1501 C1499 1.388 . S
C1501 C1502 1.366 . S
C1502 C1501 1.366 . S
C1502 C1503 1.414 . S
C1502 C1505 1.499 . S
C1503 H1477 0.950 . S
C1503 C1502 1.414 . S
C1503 C1504 1.374 . S
C1504 H1478 0.950 . S
C1504 C1500 1.385 . S
C1504 C1503 1.374 . S
C1505 C1502 1.499 . S
C1505 C1506 1.373 . S
C1505 C1507 1.389 . S
C1506 H1479 0.950 . S
C1506 C1492 1.377 . S
C1506 C1505 1.373 . S
C1507 C1491 1.377 . S
C1507 C1505 1.389 . S
C1507 C1508 1.524 . S
C1508 C1507 1.524 . S
C1508 C1509 1.397 . S
C1508 C1513 1.363 . S
C1509 H1480 0.950 . S
C1509 C1508 1.397 . S
C1509 C1510 1.334 . S
C1510 H1481 0.950 . S
C1510 C1509 1.334 . S
C1510 C1511 1.287 . S
C1511 C1510 1.287 . S
C1511 C1512 1.524 . S
C1511 H1514 0.999 . S
C1512 H1482 0.950 . S
C1512 C1511 1.524 . S
C1512 C1513 1.415 . S
C1513 H1483 0.950 . S
C1513 C1508 1.363 . S
C1513 C1512 1.415 . S
H1514 C1511 0.999 . S
H1515 C1496 0.913 . S
H1516 C1534 0.951 . S
H1517 C1536 0.951 . S
H1518 C1538 0.950 . S
H1519 C1539 0.950 . S
H1520 C1541 0.950 . S
H1521 C1544 0.950 . S
H1522 C1545 0.950 . S
H1523 C1547 0.950 . S
H1524 C1548 0.950 . S
H1525 C1549 0.951 . S
H1526 C1551 0.951 1_545 S
H1527 C1553 0.950 . S
H1528 C1554 0.950 . S
H1529 C1556 0.950 . S
H1530 C1559 0.950 . S
H1531 C1560 0.950 . S
H1532 C1562 0.950 . S
H1533 C1563 0.950 . S
C1534 H1516 0.951 . S
C1534 C1535 1.366 . S
C1534 C1536 1.388 . S
C1535 C1534 1.366 . S
C1535 C1539 1.385 . S
C1536 H1517 0.951 . S
C1536 C1534 1.388 . S
C1536 C1537 1.366 . S
C1537 C1536 1.366 . S
C1537 C1538 1.414 . S
C1537 C1540 1.499 . S
C1538 H1518 0.950 . S
C1538 C1537 1.414 . S
C1538 C1539 1.374 . S
C1539 H1519 0.950 . S
C1539 C1535 1.385 . S
C1539 C1538 1.374 . S
C1540 C1537 1.499 . S
C1540 C1541 1.373 . S
C1540 C1542 1.389 . S
C1541 H1520 0.950 . S
C1541 C1540 1.373 . S
C1541 C1557 1.377 . S
C1542 C1540 1.389 . S
C1542 C1543 1.524 . S
C1542 C1556 1.377 . S
C1543 C1542 1.524 . S
C1543 C1544 1.397 . S
C1543 C1548 1.363 . S
C1544 H1521 0.950 . S
C1544 C1543 1.397 . S
C1544 C1545 1.334 . S
C1545 H1522 0.950 . S
C1545 C1544 1.334 . S
C1545 C1546 1.287 . S
C1546 C1545 1.287 . S
C1546 C1547 1.524 . S
C1546 H1565 0.913 . S
C1547 H1523 0.950 . S
C1547 C1546 1.524 . S
C1547 C1548 1.415 . S
C1548 H1524 0.950 . S
C1548 C1543 1.363 . S
C1548 C1547 1.415 . S
C1549 H1525 0.951 . S
C1549 C1550 1.430 . S
C1549 C1551 1.388 1_545 S
C1550 C1549 1.430 . S
C1550 C1554 1.315 1_545 S
C1551 H1526 0.951 1_565 S
C1551 C1549 1.388 1_565 S
C1551 C1552 1.366 . S
C1552 C1551 1.366 . S
C1552 C1553 1.414 . S
C1552 C1555 1.499 . S
C1553 H1527 0.950 . S
C1553 C1552 1.414 . S
C1553 C1554 1.374 . S
C1554 H1528 0.950 . S
C1554 C1550 1.315 1_565 S
C1554 C1553 1.374 . S
C1555 C1552 1.499 . S
C1555 C1556 1.373 . S
C1555 C1557 1.389 . S
C1556 H1529 0.950 . S
C1556 C1542 1.377 . S
C1556 C1555 1.373 . S
C1557 C1541 1.377 . S
C1557 C1555 1.389 . S
C1557 C1558 1.524 . S
C1558 C1557 1.524 . S
C1558 C1559 1.397 . S
C1558 C1563 1.363 . S
C1559 H1530 0.950 . S
C1559 C1558 1.397 . S
C1559 C1560 1.334 . S
C1560 H1531 0.950 . S
C1560 C1559 1.334 . S
C1560 C1561 1.287 . S
C1561 C1560 1.287 . S
C1561 C1562 1.524 1_565 S
C1561 H1564 0.999 1_565 S
C1562 H1532 0.950 . S
C1562 C1561 1.524 1_545 S
C1562 C1563 1.415 1_545 S
C1563 H1533 0.950 . S
C1563 C1558 1.363 . S
C1563 C1562 1.415 1_565 S
H1564 C1561 0.999 1_545 S
H1565 C1546 0.913 . S
H1566 C1584 0.951 . S
H1567 C1586 0.951 . S
H1568 C1588 0.950 . S
H1569 C1589 0.950 . S
H1570 C1591 0.950 . S
H1571 C1594 0.950 . S
H1572 C1595 0.950 . S
H1573 C1597 0.950 . S
H1574 C1598 0.950 . S
H1575 C1599 0.951 . S
H1576 C1601 0.951 . S
H1577 C1603 0.950 . S
H1578 C1604 0.950 . S
H1579 C1606 0.950 . S
H1580 C1609 0.950 . S
H1581 C1610 0.950 . S
H1582 C1612 0.950 . S
H1583 C1613 0.950 . S
C1584 H1566 0.951 . S
C1584 C1585 1.366 . S
C1584 C1586 1.388 . S
C1585 C1584 1.366 . S
C1585 C1589 1.385 . S
C1586 H1567 0.951 . S
C1586 C1584 1.388 . S
C1586 C1587 1.366 . S
C1587 C1586 1.366 . S
C1587 C1588 1.414 . S
C1587 C1590 1.499 . S
C1588 H1568 0.950 . S
C1588 C1587 1.414 . S
C1588 C1589 1.374 . S
C1589 H1569 0.950 . S
C1589 C1585 1.385 . S
C1589 C1588 1.374 . S
C1590 C1587 1.499 . S
C1590 C1591 1.373 . S
C1590 C1592 1.389 . S
C1591 H1570 0.950 . S
C1591 C1590 1.373 . S
C1591 C1607 1.383 1_565 S
C1592 C1590 1.389 . S
C1592 C1593 1.524 . S
C1592 C1606 1.377 . S
C1593 C1592 1.524 . S
C1593 C1594 1.397 . S
C1593 C1598 1.363 . S
C1594 H1571 0.950 . S
C1594 C1593 1.397 . S
C1594 C1595 1.334 . S
C1595 H1572 0.950 . S
C1595 C1594 1.334 . S
C1595 C1596 1.287 . S
C1596 C1595 1.287 . S
C1596 C1597 1.524 . S
C1596 H1615 0.913 . S
C1597 H1573 0.950 . S
C1597 C1596 1.524 . S
C1597 C1598 1.415 . S
C1598 H1574 0.950 . S
C1598 C1593 1.363 . S
C1598 C1597 1.415 . S
C1599 H1575 0.951 . S
C1599 C1600 1.366 . S
C1599 C1601 1.388 . S
C1600 C1599 1.366 . S
C1600 C1604 1.385 . S
C1601 H1576 0.951 . S
C1601 C1599 1.388 . S
C1601 C1602 1.366 . S
C1602 C1601 1.366 . S
C1602 C1603 1.414 . S
C1602 C1605 1.499 1_545 S
C1603 H1577 0.950 . S
C1603 C1602 1.414 . S
C1603 C1604 1.374 . S
C1604 H1578 0.950 . S
C1604 C1600 1.385 . S
C1604 C1603 1.374 . S
C1605 C1602 1.499 1_565 S
C1605 C1606 1.373 . S
C1605 C1607 1.387 1_565 S
C1606 H1579 0.950 . S
C1606 C1592 1.377 . S
C1606 C1605 1.373 . S
C1607 C1591 1.383 1_545 S
C1607 C1605 1.387 1_545 S
C1607 C1608 1.520 . S
C1608 C1607 1.520 . S
C1608 C1609 1.397 . S
C1608 C1613 1.363 . S
C1609 H1580 0.950 . S
C1609 C1608 1.397 . S
C1609 C1610 1.334 . S
C1610 H1581 0.950 . S
C1610 C1609 1.334 . S
C1610 C1611 1.287 . S
C1611 C1610 1.287 . S
C1611 C1612 1.524 . S
C1611 H1614 0.999 . S
C1612 H1582 0.950 . S
C1612 C1611 1.524 . S
C1612 C1613 1.415 . S
C1613 H1583 0.950 . S
C1613 C1608 1.363 . S
C1613 C1612 1.415 . S
H1614 C1611 0.999 . S
H1615 C1596 0.913 . S
H1616 C1634 0.951 . S
H1617 C1636 0.951 . S
H1618 C1638 0.950 . S
H1619 C1639 0.950 . S
H1620 C1641 0.950 . S
H1621 C1644 0.950 . S
H1622 C1645 0.950 . S
H1623 C1647 0.950 . S
H1624 C1648 0.950 . S
H1625 C1649 0.951 . S
H1626 C1651 0.951 . S
H1627 C1653 0.950 . S
H1628 C1654 0.950 . S
H1629 C1656 0.950 . S
H1630 C1659 0.950 . S
H1631 C1660 0.950 . S
H1632 C1662 0.950 . S
H1633 C1663 0.950 . S
C1634 H1616 0.951 . S
C1634 C1635 1.366 . S
C1634 C1636 1.388 . S
C1635 C1634 1.366 . S
C1635 C1639 1.385 . S
C1636 H1617 0.951 . S
C1636 C1634 1.388 . S
C1636 C1637 1.366 . S
C1637 C1636 1.366 . S
C1637 C1638 1.414 . S
C1637 C1640 1.499 . S
C1638 H1618 0.950 . S
C1638 C1637 1.414 . S
C1638 C1639 1.374 . S
C1639 H1619 0.950 . S
C1639 C1635 1.385 . S
C1639 C1638 1.374 . S
C1640 C1637 1.499 . S
C1640 C1641 1.373 . S
C1640 C1642 1.389 . S
C1641 H1620 0.950 . S
C1641 C1640 1.373 . S
C1641 C1657 1.377 . S
C1642 C1640 1.389 . S
C1642 C1643 1.524 . S
C1642 C1656 1.377 . S
C1643 C1642 1.524 . S
C1643 C1644 1.397 . S
C1643 C1648 1.363 . S
C1644 H1621 0.950 . S
C1644 C1643 1.397 . S
C1644 C1645 1.334 . S
C1645 H1622 0.950 . S
C1645 C1644 1.334 . S
C1645 C1646 1.287 . S
C1646 C1645 1.287 . S
C1646 C1647 1.524 . S
C1646 H1665 0.913 . S
C1647 H1623 0.950 . S
C1647 C1646 1.524 . S
C1647 C1648 1.415 . S
C1648 H1624 0.950 . S
C1648 C1643 1.363 . S
C1648 C1647 1.415 . S
C1649 H1625 0.951 . S
C1649 C1650 1.366 . S
C1649 C1651 1.388 . S
C1650 C1649 1.366 . S
C1650 C1654 1.385 . S
C1651 H1626 0.951 . S
C1651 C1649 1.388 . S
C1651 C1652 1.366 . S
C1652 C1651 1.366 . S
C1652 C1653 1.414 . S
C1652 C1655 1.499 . S
C1653 H1627 0.950 . S
C1653 C1652 1.414 . S
C1653 C1654 1.374 . S
C1654 H1628 0.950 . S
C1654 C1650 1.385 . S
C1654 C1653 1.374 . S
C1655 C1652 1.499 . S
C1655 C1656 1.373 . S
C1655 C1657 1.389 . S
C1656 H1629 0.950 . S
C1656 C1642 1.377 . S
C1656 C1655 1.373 . S
C1657 C1641 1.377 . S
C1657 C1655 1.389 . S
C1657 C1658 1.524 . S
C1658 C1657 1.524 . S
C1658 C1659 1.397 . S
C1658 C1663 1.363 . S
C1659 H1630 0.950 . S
C1659 C1658 1.397 . S
C1659 C1660 1.334 . S
C1660 H1631 0.950 . S
C1660 C1659 1.334 . S
C1660 C1661 1.287 . S
C1661 C1660 1.287 . S
C1661 C1662 1.524 . S
C1661 H1664 0.999 . S
C1662 H1632 0.950 . S
C1662 C1661 1.524 . S
C1662 C1663 1.415 . S
C1663 H1633 0.950 . S
C1663 C1658 1.363 . S
C1663 C1662 1.415 . S
H1664 C1661 0.999 . S
H1665 C1646 0.913 . S
H1666 C1684 0.951 . S
H1667 C1686 0.951 . S
H1668 C1688 0.950 . S
H1669 C1689 0.950 . S
H1670 C1691 0.950 . S
H1671 C1694 0.950 . S
H1672 C1695 0.950 . S
H1673 C1697 0.950 . S
H1674 C1698 0.950 . S
H1675 C1699 0.951 . S
H1676 C1701 0.951 . S
H1677 C1703 0.950 . S
H1678 C1704 0.950 . S
H1679 C1706 0.950 . S
H1680 C1709 0.950 . S
H1681 C1710 0.950 . S
H1682 C1712 0.950 . S
H1683 C1713 0.950 . S
C1684 H1666 0.951 . S
C1684 C1685 1.366 . S
C1684 C1686 1.388 . S
C1685 C1684 1.366 . S
C1685 C1689 1.385 . S
C1686 H1667 0.951 . S
C1686 C1684 1.388 . S
C1686 C1687 1.366 . S
C1687 C1686 1.366 . S
C1687 C1688 1.414 . S
C1687 C1690 1.499 . S
C1688 H1668 0.950 . S
C1688 C1687 1.414 . S
C1688 C1689 1.374 . S
C1689 H1669 0.950 . S
C1689 C1685 1.385 . S
C1689 C1688 1.374 . S
C1690 C1687 1.499 . S
C1690 C1691 1.373 . S
C1690 C1692 1.389 . S
C1691 H1670 0.950 . S
C1691 C1690 1.373 . S
C1691 C1707 1.377 . S
C1692 C1690 1.389 . S
C1692 C1693 1.524 . S
C1692 C1706 1.377 . S
C1693 C1692 1.524 . S
C1693 C1694 1.397 . S
C1693 C1698 1.363 . S
C1694 H1671 0.950 . S
C1694 C1693 1.397 . S
C1694 C1695 1.334 . S
C1695 H1672 0.950 . S
C1695 C1694 1.334 . S
C1695 C1696 1.287 . S
C1696 C1695 1.287 . S
C1696 C1697 1.524 . S
C1696 H1715 0.913 . S
C1697 H1673 0.950 . S
C1697 C1696 1.524 . S
C1697 C1698 1.415 . S
C1698 H1674 0.950 . S
C1698 C1693 1.363 . S
C1698 C1697 1.415 . S
C1699 H1675 0.951 . S
C1699 C1700 1.366 . S
C1699 C1701 1.388 . S
C1700 C1699 1.366 . S
C1700 C1704 1.385 . S
C1701 H1676 0.951 . S
C1701 C1699 1.388 . S
C1701 C1702 1.366 . S
C1702 C1701 1.366 . S
C1702 C1703 1.414 . S
C1702 C1705 1.499 . S
C1703 H1677 0.950 . S
C1703 C1702 1.414 . S
C1703 C1704 1.374 . S
C1704 H1678 0.950 . S
C1704 C1700 1.385 . S
C1704 C1703 1.374 . S
C1705 C1702 1.499 . S
C1705 C1706 1.373 . S
C1705 C1707 1.389 . S
C1706 H1679 0.950 . S
C1706 C1692 1.377 . S
C1706 C1705 1.373 . S
C1707 C1691 1.377 . S
C1707 C1705 1.389 . S
C1707 C1708 1.524 . S
C1708 C1707 1.524 . S
C1708 C1709 1.397 . S
C1708 C1713 1.363 . S
C1709 H1680 0.950 . S
C1709 C1708 1.397 . S
C1709 C1710 1.334 . S
C1710 H1681 0.950 . S
C1710 C1709 1.334 . S
C1710 C1711 1.287 . S
C1711 C1710 1.287 . S
C1711 C1712 1.524 . S
C1711 H1714 0.999 . S
C1712 H1682 0.950 . S
C1712 C1711 1.524 . S
C1712 C1713 1.415 . S
C1713 H1683 0.950 . S
C1713 C1708 1.363 . S
C1713 C1712 1.415 . S
H1714 C1711 0.999 . S
H1715 C1696 0.913 . S
H1716 C1734 0.951 . S
H1717 C1736 0.951 . S
H1718 C1738 0.950 . S
H1719 C1739 0.950 . S
H1720 C1741 0.950 . S
H1721 C1744 0.950 . S
H1722 C1745 0.950 . S
H1723 C1747 0.950 . S
H1724 C1748 0.950 . S
H1725 C1749 0.951 . S
H1726 C1751 0.951 . S
H1727 C1753 0.950 . S
H1728 C1754 0.950 . S
H1729 C1756 0.950 . S
H1730 C1759 0.950 . S
H1731 C1760 0.950 . S
H1732 C1762 0.950 . S
H1733 C1763 0.950 . S
C1734 H1716 0.951 . S
C1734 C1735 1.366 . S
C1734 C1736 1.388 . S
C1735 C1734 1.366 . S
C1735 C1739 1.385 . S
C1736 H1717 0.951 . S
C1736 C1734 1.388 . S
C1736 C1737 1.366 . S
C1737 C1736 1.366 . S
C1737 C1738 1.414 . S
C1737 C1740 1.499 . S
C1738 H1718 0.950 . S
C1738 C1737 1.414 . S
C1738 C1739 1.374 . S
C1739 H1719 0.950 . S
C1739 C1735 1.385 . S
C1739 C1738 1.374 . S
C1740 C1737 1.499 . S
C1740 C1741 1.373 . S
C1740 C1742 1.389 . S
C1741 H1720 0.950 . S
C1741 C1740 1.373 . S
C1741 C1757 1.377 . S
C1742 C1740 1.389 . S
C1742 C1743 1.524 . S
C1742 C1756 1.377 . S
C1743 C1742 1.524 . S
C1743 C1744 1.397 . S
C1743 C1748 1.363 . S
C1744 H1721 0.950 . S
C1744 C1743 1.397 . S
C1744 C1745 1.334 . S
C1745 H1722 0.950 . S
C1745 C1744 1.334 . S
C1745 C1746 1.287 . S
C1746 C1745 1.287 . S
C1746 C1747 1.524 . S
C1746 H1765 0.913 . S
C1747 H1723 0.950 . S
C1747 C1746 1.524 . S
C1747 C1748 1.415 . S
C1748 H1724 0.950 . S
C1748 C1743 1.363 . S
C1748 C1747 1.415 . S
C1749 H1725 0.951 . S
C1749 C1750 1.366 . S
C1749 C1751 1.388 . S
C1750 C1749 1.366 . S
C1750 C1754 1.385 . S
C1751 H1726 0.951 . S
C1751 C1749 1.388 . S
C1751 C1752 1.366 . S
C1752 C1751 1.366 . S
C1752 C1753 1.414 . S
C1752 C1755 1.499 . S
C1753 H1727 0.950 . S
C1753 C1752 1.414 . S
C1753 C1754 1.374 . S
C1754 H1728 0.950 . S
C1754 C1750 1.385 . S
C1754 C1753 1.374 . S
C1755 C1752 1.499 . S
C1755 C1756 1.373 . S
C1755 C1757 1.389 . S
C1756 H1729 0.950 . S
C1756 C1742 1.377 . S
C1756 C1755 1.373 . S
C1757 C1741 1.377 . S
C1757 C1755 1.389 . S
C1757 C1758 1.524 . S
C1758 C1757 1.524 . S
C1758 C1759 1.397 . S
C1758 C1763 1.363 . S
C1759 H1730 0.950 . S
C1759 C1758 1.397 . S
C1759 C1760 1.334 . S
C1760 H1731 0.950 . S
C1760 C1759 1.334 . S
C1760 C1761 1.287 . S
C1761 C1760 1.287 . S
C1761 C1762 1.524 . S
C1761 H1764 0.999 . S
C1762 H1732 0.950 . S
C1762 C1761 1.524 . S
C1762 C1763 1.415 . S
C1763 H1733 0.950 . S
C1763 C1758 1.363 . S
C1763 C1762 1.415 . S
H1764 C1761 0.999 . S
H1765 C1746 0.913 . S
H1766 C1784 0.951 . S
H1767 C1786 0.951 . S
H1768 C1788 0.950 . S
H1769 C1789 0.950 . S
H1770 C1791 0.950 . S
H1771 C1794 0.950 . S
H1772 C1795 0.950 . S
H1773 C1797 0.950 . S
H1774 C1798 0.950 . S
H1775 C1799 0.951 . S
H1776 C1801 0.951 . S
H1777 C1803 0.950 . S
H1778 C1804 0.950 . S
H1779 C1806 0.950 . S
H1780 C1809 0.950 . S
H1781 C1810 0.955 . S
H1782 C1812 0.950 . S
H1783 C1813 0.950 . S
C1784 H1766 0.951 . S
C1784 C1785 1.366 . S
C1784 C1786 1.388 . S
C1785 C1784 1.366 . S
C1785 C1789 1.385 . S
C1786 H1767 0.951 . S
C1786 C1784 1.388 . S
C1786 C1787 1.366 . S
C1787 C1786 1.366 . S
C1787 C1788 1.414 . S
C1787 C1790 1.499 . S
C1788 H1768 0.950 . S
C1788 C1787 1.414 . S
C1788 C1789 1.374 . S
C1789 H1769 0.950 . S
C1789 C1785 1.385 . S
C1789 C1788 1.374 . S
C1790 C1787 1.499 . S
C1790 C1791 1.373 . S
C1790 C1792 1.389 1_565 S
C1791 H1770 0.950 . S
C1791 C1790 1.373 . S
C1791 C1807 1.377 1_565 S
C1792 C1790 1.389 1_545 S
C1792 C1793 1.524 . S
C1792 C1806 1.377 . S
C1793 C1792 1.524 . S
C1793 C1794 1.397 . S
C1793 C1798 1.363 . S
C1794 H1771 0.950 . S
C1794 C1793 1.397 . S
C1794 C1795 1.334 . S
C1795 H1772 0.950 . S
C1795 C1794 1.334 . S
C1795 C1796 1.287 . S
C1796 C1795 1.287 . S
C1796 C1797 1.524 . S
C1796 H1815 0.913 . S
C1797 H1773 0.950 . S
C1797 C1796 1.524 . S
C1797 C1798 1.415 . S
C1798 H1774 0.950 . S
C1798 C1793 1.363 . S
C1798 C1797 1.415 . S
C1799 H1775 0.951 . S
C1799 C1800 1.366 . S
C1799 C1801 1.388 . S
C1800 C1799 1.366 . S
C1800 C1804 1.385 . S
C1801 H1776 0.951 . S
C1801 C1799 1.388 . S
C1801 C1802 1.366 . S
C1802 C1801 1.366 . S
C1802 C1803 1.414 . S
C1802 C1805 1.499 . S
C1803 H1777 0.950 . S
C1803 C1802 1.414 . S
C1803 C1804 1.374 . S
C1804 H1778 0.950 . S
C1804 C1800 1.385 . S
C1804 C1803 1.374 . S
C1805 C1802 1.499 . S
C1805 C1806 1.373 . S
C1805 C1807 1.389 . S
C1806 H1779 0.950 . S
C1806 C1792 1.377 . S
C1806 C1805 1.373 . S
C1807 C1791 1.377 1_545 S
C1807 C1805 1.389 . S
C1807 C1808 1.523 . S
C1808 C1807 1.523 . S
C1808 C1809 1.402 . S
C1808 C1813 1.358 1_545 S
C1809 H1780 0.950 . S
C1809 C1808 1.402 . S
C1809 C1810 1.334 1_545 S
C1810 H1781 0.955 . S
C1810 C1809 1.334 1_565 S
C1810 C1811 1.287 . S
C1811 C1810 1.287 . S
C1811 C1812 1.524 . S
C1811 H1814 0.999 . S
C1812 H1782 0.950 . S
C1812 C1811 1.524 . S
C1812 C1813 1.415 . S
C1813 H1783 0.950 . S
C1813 C1808 1.358 1_565 S
C1813 C1812 1.415 . S
H1814 C1811 0.999 . S
H1815 C1796 0.913 . S
H1816 C1834 0.951 . S
H1817 C1836 0.951 . S
H1818 C1838 0.950 . S
H1819 C1839 0.950 . S
H1820 C1841 0.950 . S
H1821 C1844 0.950 . S
H1822 C1845 0.950 . S
H1823 C1847 0.950 . S
H1824 C1848 0.950 . S
H1825 C1849 0.951 . S
H1826 C1851 0.951 . S
H1827 C1853 0.950 . S
H1828 C1854 0.950 . S
H1829 C1856 0.950 . S
H1830 C1859 0.950 . S
H1831 C1860 0.950 . S
H1832 C1862 0.950 . S
H1833 C1863 0.950 . S
C1834 H1816 0.951 . S
C1834 C1835 1.366 . S
C1834 C1836 1.388 . S
C1835 C1834 1.366 . S
C1835 C1839 1.385 . S
C1836 H1817 0.951 . S
C1836 C1834 1.388 . S
C1836 C1837 1.366 . S
C1837 C1836 1.366 . S
C1837 C1838 1.414 . S
C1837 C1840 1.499 . S
C1838 H1818 0.950 . S
C1838 C1837 1.414 . S
C1838 C1839 1.374 . S
C1839 H1819 0.950 . S
C1839 C1835 1.385 . S
C1839 C1838 1.374 . S
C1840 C1837 1.499 . S
C1840 C1841 1.373 . S
C1840 C1842 1.389 . S
C1841 H1820 0.950 . S
C1841 C1840 1.373 . S
C1841 C1857 1.377 . S
C1842 C1840 1.389 . S
C1842 C1843 1.524 . S
C1842 C1856 1.377 . S
C1843 C1842 1.524 . S
C1843 C1844 1.397 . S
C1843 C1848 1.363 . S
C1844 H1821 0.950 . S
C1844 C1843 1.397 . S
C1844 C1845 1.334 . S
C1845 H1822 0.950 . S
C1845 C1844 1.334 . S
C1845 C1846 1.287 . S
C1846 C1845 1.287 . S
C1846 C1847 1.524 . S
C1846 H1865 0.913 . S
C1847 H1823 0.950 . S
C1847 C1846 1.524 . S
C1847 C1848 1.415 . S
C1848 H1824 0.950 . S
C1848 C1843 1.363 . S
C1848 C1847 1.415 . S
C1849 H1825 0.951 . S
C1849 C1850 1.366 . S
C1849 C1851 1.388 . S
C1850 C1849 1.366 . S
C1850 C1854 1.385 . S
C1851 H1826 0.951 . S
C1851 C1849 1.388 . S
C1851 C1852 1.366 . S
C1852 C1851 1.366 . S
C1852 C1853 1.414 . S
C1852 C1855 1.499 . S
C1853 H1827 0.950 . S
C1853 C1852 1.414 . S
C1853 C1854 1.374 . S
C1854 H1828 0.950 . S
C1854 C1850 1.385 . S
C1854 C1853 1.374 . S
C1855 C1852 1.499 . S
C1855 C1856 1.373 . S
C1855 C1857 1.389 . S
C1856 H1829 0.950 . S
C1856 C1842 1.377 . S
C1856 C1855 1.373 . S
C1857 C1841 1.377 . S
C1857 C1855 1.389 . S
C1857 C1858 1.524 . S
C1858 C1857 1.524 . S
C1858 C1859 1.397 . S
C1858 C1863 1.363 . S
C1859 H1830 0.950 . S
C1859 C1858 1.397 . S
C1859 C1860 1.334 . S
C1860 H1831 0.950 . S
C1860 C1859 1.334 . S
C1860 C1861 1.287 . S
C1861 C1860 1.287 . S
C1861 C1862 1.524 . S
C1861 H1864 0.999 . S
C1862 H1832 0.950 . S
C1862 C1861 1.524 . S
C1862 C1863 1.415 . S
C1863 H1833 0.950 . S
C1863 C1858 1.363 . S
C1863 C1862 1.415 . S
H1864 C1861 0.999 . S
H1865 C1846 0.913 . S
H1866 C1884 0.951 . S
H1867 C1886 0.951 . S
H1868 C1888 0.950 . S
H1869 C1889 0.950 . S
H1870 C1891 0.950 . S
H1871 C1894 0.950 . S
H1872 C1895 0.950 . S
H1873 C1897 0.950 . S
H1874 C1898 0.950 . S
H1875 C1899 0.951 . S
H1876 C1901 0.951 . S
H1877 C1903 0.950 . S
H1878 C1904 0.950 . S
H1879 C1906 0.950 . S
H1880 C1909 0.950 . S
H1881 C1910 0.950 . S
H1882 C1912 0.950 . S
H1883 C1913 0.950 . S
C1884 H1866 0.951 . S
C1884 C1885 1.366 . S
C1884 C1886 1.388 . S
C1885 C1884 1.366 . S
C1885 C1889 1.385 . S
C1886 H1867 0.951 . S
C1886 C1884 1.388 . S
C1886 C1887 1.366 . S
C1887 C1886 1.366 . S
C1887 C1888 1.414 . S
C1887 C1890 1.499 . S
C1888 H1868 0.950 . S
C1888 C1887 1.414 . S
C1888 C1889 1.374 . S
C1889 H1869 0.950 . S
C1889 C1885 1.385 . S
C1889 C1888 1.374 . S
C1890 C1887 1.499 . S
C1890 C1891 1.373 . S
C1890 C1892 1.389 . S
C1891 H1870 0.950 . S
C1891 C1890 1.373 . S
C1891 C1907 1.377 . S
C1892 C1890 1.389 . S
C1892 C1893 1.524 . S
C1892 C1906 1.377 . S
C1893 C1892 1.524 . S
C1893 C1894 1.397 . S
C1893 C1898 1.363 . S
C1894 H1871 0.950 . S
C1894 C1893 1.397 . S
C1894 C1895 1.334 . S
C1895 H1872 0.950 . S
C1895 C1894 1.334 . S
C1895 C1896 1.287 . S
C1896 C1895 1.287 . S
C1896 C1897 1.524 . S
C1896 H1915 0.913 . S
C1897 H1873 0.950 . S
C1897 C1896 1.524 . S
C1897 C1898 1.415 . S
C1898 H1874 0.950 . S
C1898 C1893 1.363 . S
C1898 C1897 1.415 . S
C1899 H1875 0.951 . S
C1899 C1900 1.366 . S
C1899 C1901 1.388 . S
C1900 C1899 1.366 . S
C1900 C1904 1.385 . S
C1901 H1876 0.951 . S
C1901 C1899 1.388 . S
C1901 C1902 1.366 . S
C1902 C1901 1.366 . S
C1902 C1903 1.414 . S
C1902 C1905 1.499 . S
C1903 H1877 0.950 . S
C1903 C1902 1.414 . S
C1903 C1904 1.374 . S
C1904 H1878 0.950 . S
C1904 C1900 1.385 . S
C1904 C1903 1.374 . S
C1905 C1902 1.499 . S
C1905 C1906 1.373 . S
C1905 C1907 1.389 . S
C1906 H1879 0.950 . S
C1906 C1892 1.377 . S
C1906 C1905 1.373 . S
C1907 C1891 1.377 . S
C1907 C1905 1.389 . S
C1907 C1908 1.524 . S
C1908 C1907 1.524 . S
C1908 C1909 1.397 . S
C1908 C1913 1.363 . S
C1909 H1880 0.950 . S
C1909 C1908 1.397 . S
C1909 C1910 1.334 . S
C1910 H1881 0.950 . S
C1910 C1909 1.334 . S
C1910 C1911 1.287 . S
C1911 C1910 1.287 . S
C1911 C1912 1.524 . S
C1911 H1914 0.999 . S
C1912 H1882 0.950 . S
C1912 C1911 1.524 . S
C1912 C1913 1.415 . S
C1913 H1883 0.950 . S
C1913 C1908 1.363 . S
C1913 C1912 1.415 . S
H1914 C1911 0.999 . S
H1915 C1896 0.913 . S
H1916 C1934 0.951 . S
H1917 C1936 0.951 . S
H1918 C1938 0.950 . S
H1919 C1939 0.950 . S
H1920 C1941 0.950 . S
H1921 C1944 0.950 . S
H1922 C1945 0.950 . S
H1923 C1947 0.950 . S
H1924 C1948 0.950 . S
H1925 C1949 0.951 . S
H1926 C1951 0.951 . S
H1927 C1953 0.950 . S
H1928 C1954 0.950 . S
H1929 C1956 0.950 . S
H1930 C1959 0.950 . S
H1931 C1960 0.950 . S
H1932 C1962 0.950 . S
H1933 C1963 0.950 . S
C1934 H1916 0.951 . S
C1934 C1935 1.366 . S
C1934 C1936 1.388 . S
C1935 C1934 1.366 . S
C1935 C1939 1.385 . S
C1936 H1917 0.951 . S
C1936 C1934 1.388 . S
C1936 C1937 1.366 . S
C1937 C1936 1.366 . S
C1937 C1938 1.414 . S
C1937 C1940 1.499 . S
C1938 H1918 0.950 . S
C1938 C1937 1.414 . S
C1938 C1939 1.374 . S
C1939 H1919 0.950 . S
C1939 C1935 1.385 . S
C1939 C1938 1.374 . S
C1940 C1937 1.499 . S
C1940 C1941 1.373 . S
C1940 C1942 1.389 . S
C1941 H1920 0.950 . S
C1941 C1940 1.373 . S
C1941 C1957 1.377 . S
C1942 C1940 1.389 . S
C1942 C1943 1.524 . S
C1942 C1956 1.377 . S
C1943 C1942 1.524 . S
C1943 C1944 1.397 . S
C1943 C1948 1.363 . S
C1944 H1921 0.950 . S
C1944 C1943 1.397 . S
C1944 C1945 1.334 . S
C1945 H1922 0.950 . S
C1945 C1944 1.334 . S
C1945 C1946 1.287 . S
C1946 C1945 1.287 . S
C1946 C1947 1.524 . S
C1946 H1965 0.913 . S
C1947 H1923 0.950 . S
C1947 C1946 1.524 . S
C1947 C1948 1.415 . S
C1948 H1924 0.950 . S
C1948 C1943 1.363 . S
C1948 C1947 1.415 . S
C1949 H1925 0.951 . S
C1949 C1950 1.366 . S
C1949 C1951 1.388 . S
C1950 C1949 1.366 . S
C1950 C1954 1.385 . S
C1951 H1926 0.951 . S
C1951 C1949 1.388 . S
C1951 C1952 1.366 . S
C1952 C1951 1.366 . S
C1952 C1953 1.414 . S
C1952 C1955 1.499 . S
C1953 H1927 0.950 . S
C1953 C1952 1.414 . S
C1953 C1954 1.374 . S
C1954 H1928 0.950 . S
C1954 C1950 1.385 . S
C1954 C1953 1.374 . S
C1955 C1952 1.499 . S
C1955 C1956 1.373 . S
C1955 C1957 1.389 . S
C1956 H1929 0.950 . S
C1956 C1942 1.377 . S
C1956 C1955 1.373 . S
C1957 C1941 1.377 . S
C1957 C1955 1.389 . S
C1957 C1958 1.524 . S
C1958 C1957 1.524 . S
C1958 C1959 1.397 . S
C1958 C1963 1.363 . S
C1959 H1930 0.950 . S
C1959 C1958 1.397 . S
C1959 C1960 1.334 . S
C1960 H1931 0.950 . S
C1960 C1959 1.334 . S
C1960 C1961 1.287 . S
C1961 C1960 1.287 . S
C1961 C1962 1.524 . S
C1961 H1964 0.999 . S
C1962 H1932 0.950 . S
C1962 C1961 1.524 . S
C1962 C1963 1.415 . S
C1963 H1933 0.950 . S
C1963 C1958 1.363 . S
C1963 C1962 1.415 . S
H1964 C1961 0.999 . S
H1965 C1946 0.913 . S
H1966 C1984 0.951 . S
H1967 C1986 0.951 . S
H1968 C1988 0.950 . S
H1969 C1989 0.950 . S
H1970 C1991 0.950 . S
H1971 C1994 0.950 . S
H1972 C1995 0.950 . S
H1973 C1997 0.950 . S
H1974 C1998 0.950 . S
H1975 C1999 0.951 . S
H1976 C2001 0.951 . S
H1977 C2003 0.950 . S
H1978 C2004 0.950 . S
H1979 C2006 0.950 . S
H1980 C2009 0.950 . S
H1981 C2010 0.950 . S
H1982 C2012 0.950 . S
H1983 C2013 0.950 . S
C1984 H1966 0.951 . S
C1984 C1985 1.366 . S
C1984 C1986 1.388 . S
C1985 C1984 1.366 . S
C1985 C1989 1.385 . S
C1986 H1967 0.951 . S
C1986 C1984 1.388 . S
C1986 C1987 1.366 . S
C1987 C1986 1.366 . S
C1987 C1988 1.414 . S
C1987 C1990 1.499 . S
C1988 H1968 0.950 . S
C1988 C1987 1.414 . S
C1988 C1989 1.374 . S
C1989 H1969 0.950 . S
C1989 C1985 1.385 . S
C1989 C1988 1.374 . S
C1990 C1987 1.499 . S
C1990 C1991 1.373 . S
C1990 C1992 1.389 . S
C1991 H1970 0.950 . S
C1991 C1990 1.373 . S
C1991 C2007 1.377 . S
C1992 C1990 1.389 . S
C1992 C1993 1.524 . S
C1992 C2006 1.377 . S
C1993 C1992 1.524 . S
C1993 C1994 1.397 . S
C1993 C1998 1.363 . S
C1994 H1971 0.950 . S
C1994 C1993 1.397 . S
C1994 C1995 1.334 . S
C1995 H1972 0.950 . S
C1995 C1994 1.334 . S
C1995 C1996 1.287 . S
C1996 C1995 1.287 . S
C1996 C1997 1.524 . S
C1996 H2015 0.913 . S
C1997 H1973 0.950 . S
C1997 C1996 1.524 . S
C1997 C1998 1.415 . S
C1998 H1974 0.950 . S
C1998 C1993 1.363 . S
C1998 C1997 1.415 . S
C1999 H1975 0.951 . S
C1999 C2000 1.366 . S
C1999 C2001 1.388 . S
C2000 C1999 1.366 . S
C2000 C2004 1.385 . S
C2001 H1976 0.951 . S
C2001 C1999 1.388 . S
C2001 C2002 1.366 . S
C2002 C2001 1.366 . S
C2002 C2003 1.414 . S
C2002 C2005 1.499 . S
C2003 H1977 0.950 . S
C2003 C2002 1.414 . S
C2003 C2004 1.374 . S
C2004 H1978 0.950 . S
C2004 C2000 1.385 . S
C2004 C2003 1.374 . S
C2005 C2002 1.499 . S
C2005 C2006 1.373 . S
C2005 C2007 1.389 . S
C2006 H1979 0.950 . S
C2006 C1992 1.377 . S
C2006 C2005 1.373 . S
C2007 C1991 1.377 . S
C2007 C2005 1.389 . S
C2007 C2008 1.524 . S
C2008 C2007 1.524 . S
C2008 C2009 1.397 . S
C2008 C2013 1.363 . S
C2009 H1980 0.950 . S
C2009 C2008 1.397 . S
C2009 C2010 1.334 . S
C2010 H1981 0.950 . S
C2010 C2009 1.334 . S
C2010 C2011 1.287 . S
C2011 C2010 1.287 . S
C2011 C2012 1.524 . S
C2011 H2014 0.999 . S
C2012 H1982 0.950 . S
C2012 C2011 1.524 . S
C2012 C2013 1.415 . S
C2013 H1983 0.950 . S
C2013 C2008 1.363 . S
C2013 C2012 1.415 . S
H2014 C2011 0.999 . S
H2015 C1996 0.913 . S
H2016 C2034 0.951 . S
H2017 C2036 0.951 . S
H2018 C2038 0.950 . S
H2019 C2039 0.950 . S
H2020 C2041 0.950 . S
H2021 C2044 0.950 . S
H2022 C2045 0.950 . S
H2023 C2047 0.950 . S
H2024 C2048 0.950 . S
H2025 C2049 0.951 . S
H2026 C2051 0.951 . S
H2027 C2053 0.950 . S
H2028 C2054 0.950 . S
H2029 C2056 0.950 . S
H2030 C2059 0.950 . S
H2031 C2060 0.950 . S
H2032 C2062 0.950 . S
H2033 C2063 0.950 . S
C2034 H2016 0.951 . S
C2034 C2035 1.366 . S
C2034 C2036 1.388 . S
C2035 C2034 1.366 . S
C2035 C2039 1.385 . S
C2036 H2017 0.951 . S
C2036 C2034 1.388 . S
C2036 C2037 1.366 . S
C2037 C2036 1.366 . S
C2037 C2038 1.414 . S
C2037 C2040 1.499 . S
C2038 H2018 0.950 . S
C2038 C2037 1.414 . S
C2038 C2039 1.374 . S
C2039 H2019 0.950 . S
C2039 C2035 1.385 . S
C2039 C2038 1.374 . S
C2040 C2037 1.499 . S
C2040 C2041 1.373 . S
C2040 C2042 1.389 . S
C2041 H2020 0.950 . S
C2041 C2040 1.373 . S
C2041 C2057 1.377 . S
C2042 C2040 1.389 . S
C2042 C2043 1.524 . S
C2042 C2056 1.377 . S
C2043 C2042 1.524 . S
C2043 C2044 1.397 . S
C2043 C2048 1.363 . S
C2044 H2021 0.950 . S
C2044 C2043 1.397 . S
C2044 C2045 1.334 . S
C2045 H2022 0.950 . S
C2045 C2044 1.334 . S
C2045 C2046 1.287 . S
C2046 C2045 1.287 . S
C2046 C2047 1.524 . S
C2046 H2065 0.913 . S
C2047 H2023 0.950 . S
C2047 C2046 1.524 . S
C2047 C2048 1.415 . S
C2048 H2024 0.950 . S
C2048 C2043 1.363 . S
C2048 C2047 1.415 . S
C2049 H2025 0.951 . S
C2049 C2050 1.366 . S
C2049 C2051 1.388 . S
C2050 C2049 1.366 . S
C2050 C2054 1.385 . S
C2051 H2026 0.951 . S
C2051 C2049 1.388 . S
C2051 C2052 1.366 . S
C2052 C2051 1.366 . S
C2052 C2053 1.414 . S
C2052 C2055 1.499 . S
C2053 H2027 0.950 . S
C2053 C2052 1.414 . S
C2053 C2054 1.374 . S
C2054 H2028 0.950 . S
C2054 C2050 1.385 . S
C2054 C2053 1.374 . S
C2055 C2052 1.499 . S
C2055 C2056 1.373 . S
C2055 C2057 1.389 . S
C2056 H2029 0.950 . S
C2056 C2042 1.377 . S
C2056 C2055 1.373 . S
C2057 C2041 1.377 . S
C2057 C2055 1.389 . S
C2057 C2058 1.524 . S
C2058 C2057 1.524 . S
C2058 C2059 1.397 . S
C2058 C2063 1.363 . S
C2059 H2030 0.950 . S
C2059 C2058 1.397 . S
C2059 C2060 1.334 . S
C2060 H2031 0.950 . S
C2060 C2059 1.334 . S
C2060 C2061 1.287 . S
C2061 C2060 1.287 . S
C2061 C2062 1.524 . S
C2061 H2064 0.999 . S
C2062 H2032 0.950 . S
C2062 C2061 1.524 . S
C2062 C2063 1.415 . S
C2063 H2033 0.950 . S
C2063 C2058 1.363 . S
C2063 C2062 1.415 . S
H2064 C2061 0.999 . S
H2065 C2046 0.913 . S
H2066 C2084 0.951 . S
H2067 C2086 0.951 . S
H2068 C2088 0.950 . S
H2069 C2089 0.950 . S
H2070 C2091 0.950 . S
H2071 C2094 0.950 . S
H2072 C2095 0.950 . S
H2073 C2097 0.950 . S
H2074 C2098 0.950 . S
H2075 C2099 0.951 . S
H2076 C2101 0.951 . S
H2077 C2103 0.950 . S
H2078 C2104 0.950 . S
H2079 C2106 0.950 . S
H2080 C2109 0.950 . S
H2081 C2110 0.950 . S
H2082 C2112 0.950 . S
H2083 C2113 0.950 . S
C2084 H2066 0.951 . S
C2084 C2085 1.366 . S
C2084 C2086 1.388 . S
C2085 C2084 1.366 . S
C2085 C2089 1.385 . S
C2086 H2067 0.951 . S
C2086 C2084 1.388 . S
C2086 C2087 1.366 . S
C2087 C2086 1.366 . S
C2087 C2088 1.414 . S
C2087 C2090 1.499 . S
C2088 H2068 0.950 . S
C2088 C2087 1.414 . S
C2088 C2089 1.374 . S
C2089 H2069 0.950 . S
C2089 C2085 1.385 . S
C2089 C2088 1.374 . S
C2090 C2087 1.499 . S
C2090 C2091 1.373 . S
C2090 C2092 1.389 . S
C2091 H2070 0.950 . S
C2091 C2090 1.373 . S
C2091 C2107 1.377 . S
C2092 C2090 1.389 . S
C2092 C2093 1.524 . S
C2092 C2106 1.377 . S
C2093 C2092 1.524 . S
C2093 C2094 1.397 . S
C2093 C2098 1.363 . S
C2094 H2071 0.950 . S
C2094 C2093 1.397 . S
C2094 C2095 1.334 . S
C2095 H2072 0.950 . S
C2095 C2094 1.334 . S
C2095 C2096 1.287 . S
C2096 C2095 1.287 . S
C2096 C2097 1.524 . S
C2096 H2115 0.913 . S
C2097 H2073 0.950 . S
C2097 C2096 1.524 . S
C2097 C2098 1.415 . S
C2098 H2074 0.950 . S
C2098 C2093 1.363 . S
C2098 C2097 1.415 . S
C2099 H2075 0.951 . S
C2099 C2100 1.366 . S
C2099 C2101 1.388 . S
C2100 C2099 1.366 . S
C2100 C2104 1.385 . S
C2101 H2076 0.951 . S
C2101 C2099 1.388 . S
C2101 C2102 1.366 . S
C2102 C2101 1.366 . S
C2102 C2103 1.414 . S
C2102 C2105 1.499 . S
C2103 H2077 0.950 . S
C2103 C2102 1.414 . S
C2103 C2104 1.374 . S
C2104 H2078 0.950 . S
C2104 C2100 1.385 . S
C2104 C2103 1.374 . S
C2105 C2102 1.499 . S
C2105 C2106 1.373 . S
C2105 C2107 1.389 . S
C2106 H2079 0.950 . S
C2106 C2092 1.377 . S
C2106 C2105 1.373 . S
C2107 C2091 1.377 . S
C2107 C2105 1.389 . S
C2107 C2108 1.524 . S
C2108 C2107 1.524 . S
C2108 C2109 1.397 . S
C2108 C2113 1.363 . S
C2109 H2080 0.950 . S
C2109 C2108 1.397 . S
C2109 C2110 1.334 . S
C2110 H2081 0.950 . S
C2110 C2109 1.334 . S
C2110 C2111 1.287 . S
C2111 C2110 1.287 . S
C2111 C2112 1.524 . S
C2111 H2114 0.999 . S
C2112 H2082 0.950 . S
C2112 C2111 1.524 . S
C2112 C2113 1.415 . S
C2113 H2083 0.950 . S
C2113 C2108 1.363 . S
C2113 C2112 1.415 . S
H2114 C2111 0.999 . S
H2115 C2096 0.913 . S
H2116 C2134 0.951 . S
H2117 C2136 0.951 . S
H2118 C2138 0.950 . S
H2119 C2139 0.950 . S
H2120 C2141 0.950 . S
H2121 C2144 0.950 . S
H2122 C2145 0.950 . S
H2123 C2147 0.950 . S
H2124 C2148 0.950 . S
H2125 C2149 0.983 . S
H2126 C2151 0.951 . S
H2127 C2153 0.950 . S
H2128 C2154 0.950 1_455 S
H2129 C2156 0.950 . S
H2130 C2159 0.950 . S
H2131 C2160 0.950 . S
H2132 C2162 0.950 . S
H2133 C2163 0.950 . S
C2134 H2116 0.951 . S
C2134 C2135 1.366 . S
C2134 C2136 1.388 . S
C2135 C2134 1.366 . S
C2135 C2139 1.385 . S
C2136 H2117 0.951 . S
C2136 C2134 1.388 . S
C2136 C2137 1.366 . S
C2137 C2136 1.366 . S
C2137 C2138 1.414 . S
C2137 C2140 1.499 . S
C2138 H2118 0.950 . S
C2138 C2137 1.414 . S
C2138 C2139 1.374 . S
C2139 H2119 0.950 . S
C2139 C2135 1.385 . S
C2139 C2138 1.374 . S
C2140 C2137 1.499 . S
C2140 C2141 1.373 . S
C2140 C2142 1.389 . S
C2141 H2120 0.950 . S
C2141 C2140 1.373 . S
C2141 C2157 1.377 . S
C2142 C2140 1.389 . S
C2142 C2143 1.524 . S
C2142 C2156 1.377 . S
C2143 C2142 1.524 . S
C2143 C2144 1.397 . S
C2143 C2148 1.363 . S
C2144 H2121 0.950 . S
C2144 C2143 1.397 . S
C2144 C2145 1.334 . S
C2145 H2122 0.950 . S
C2145 C2144 1.334 . S
C2145 C2146 1.287 . S
C2146 C2145 1.287 . S
C2146 C2147 1.524 . S
C2146 H2165 0.913 . S
C2147 H2123 0.950 . S
C2147 C2146 1.524 . S
C2147 C2148 1.415 . S
C2148 H2124 0.950 . S
C2148 C2143 1.363 . S
C2148 C2147 1.415 . S
C2149 H2125 0.983 . S
C2149 C2150 1.363 . S
C2149 C2151 1.359 1_455 S
C2150 C2149 1.363 . S
C2150 C2154 1.385 1_455 S
C2151 H2126 0.951 . S
C2151 C2149 1.359 1_655 S
C2151 C2152 1.366 . S
C2152 C2151 1.366 . S
C2152 C2153 1.414 . S
C2152 C2155 1.499 . S
C2153 H2127 0.950 . S
C2153 C2152 1.414 . S
C2153 C2154 1.374 . S
C2154 H2128 0.950 1_655 S
C2154 C2150 1.385 1_655 S
C2154 C2153 1.374 . S
C2155 C2152 1.499 . S
C2155 C2156 1.373 . S
C2155 C2157 1.389 . S
C2156 H2129 0.950 . S
C2156 C2142 1.377 . S
C2156 C2155 1.373 . S
C2157 C2141 1.377 . S
C2157 C2155 1.389 . S
C2157 C2158 1.524 . S
C2158 C2157 1.524 . S
C2158 C2159 1.397 . S
C2158 C2163 1.363 . S
C2159 H2130 0.950 . S
C2159 C2158 1.397 . S
C2159 C2160 1.334 . S
C2160 H2131 0.950 . S
C2160 C2159 1.334 . S
C2160 C2161 1.287 . S
C2161 C2160 1.287 . S
C2161 C2162 1.524 . S
C2161 H2164 0.999 . S
C2162 H2132 0.950 . S
C2162 C2161 1.524 . S
C2162 C2163 1.415 . S
C2163 H2133 0.950 . S
C2163 C2158 1.363 . S
C2163 C2162 1.415 . S
H2164 C2161 0.999 . S
H2165 C2146 0.913 . S
H2166 C2184 0.951 . S
H2167 C2186 0.951 . S
H2168 C2188 0.950 . S
H2169 C2189 0.950 . S
H2170 C2191 0.950 . S
H2171 C2194 0.950 . S
H2172 C2195 0.950 . S
H2173 C2197 0.950 . S
H2174 C2198 0.950 . S
H2175 C2199 0.951 . S
H2176 C2201 0.951 . S
H2177 C2203 0.950 . S
H2178 C2204 0.950 . S
H2179 C2206 0.950 . S
H2180 C2209 0.950 . S
H2181 C2210 0.950 . S
H2182 C2212 0.950 . S
H2183 C2213 0.950 . S
C2184 H2166 0.951 . S
C2184 C2185 1.366 . S
C2184 C2186 1.388 . S
C2185 C2184 1.366 . S
C2185 C2189 1.385 . S
C2186 H2167 0.951 . S
C2186 C2184 1.388 . S
C2186 C2187 1.366 . S
C2187 C2186 1.366 . S
C2187 C2188 1.414 . S
C2187 C2190 1.499 . S
C2188 H2168 0.950 . S
C2188 C2187 1.414 . S
C2188 C2189 1.374 . S
C2189 H2169 0.950 . S
C2189 C2185 1.385 . S
C2189 C2188 1.374 . S
C2190 C2187 1.499 . S
C2190 C2191 1.373 . S
C2190 C2192 1.389 . S
C2191 H2170 0.950 . S
C2191 C2190 1.373 . S
C2191 C2207 1.377 . S
C2192 C2190 1.389 . S
C2192 C2193 1.524 . S
C2192 C2206 1.377 . S
C2193 C2192 1.524 . S
C2193 C2194 1.397 . S
C2193 C2198 1.363 . S
C2194 H2171 0.950 . S
C2194 C2193 1.397 . S
C2194 C2195 1.334 . S
C2195 H2172 0.950 . S
C2195 C2194 1.334 . S
C2195 C2196 1.287 . S
C2196 C2195 1.287 . S
C2196 C2197 1.524 . S
C2196 H2215 0.913 . S
C2197 H2173 0.950 . S
C2197 C2196 1.524 . S
C2197 C2198 1.415 . S
C2198 H2174 0.950 . S
C2198 C2193 1.363 . S
C2198 C2197 1.415 . S
C2199 H2175 0.951 . S
C2199 C2200 1.366 . S
C2199 C2201 1.388 . S
C2200 C2199 1.366 . S
C2200 C2204 1.385 . S
C2201 H2176 0.951 . S
C2201 C2199 1.388 . S
C2201 C2202 1.366 . S
C2202 C2201 1.366 . S
C2202 C2203 1.414 . S
C2202 C2205 1.499 . S
C2203 H2177 0.950 . S
C2203 C2202 1.414 . S
C2203 C2204 1.374 . S
C2204 H2178 0.950 . S
C2204 C2200 1.385 . S
C2204 C2203 1.374 . S
C2205 C2202 1.499 . S
C2205 C2206 1.373 . S
C2205 C2207 1.389 . S
C2206 H2179 0.950 . S
C2206 C2192 1.377 . S
C2206 C2205 1.373 . S
C2207 C2191 1.377 . S
C2207 C2205 1.389 . S
C2207 C2208 1.524 . S
C2208 C2207 1.524 . S
C2208 C2209 1.397 . S
C2208 C2213 1.363 . S
C2209 H2180 0.950 . S
C2209 C2208 1.397 . S
C2209 C2210 1.334 . S
C2210 H2181 0.950 . S
C2210 C2209 1.334 . S
C2210 C2211 1.287 . S
C2211 C2210 1.287 . S
C2211 C2212 1.524 . S
C2211 H2214 0.999 . S
C2212 H2182 0.950 . S
C2212 C2211 1.524 . S
C2212 C2213 1.415 . S
C2213 H2183 0.950 . S
C2213 C2208 1.363 . S
C2213 C2212 1.415 . S
H2214 C2211 0.999 . S
H2215 C2196 0.913 . S
H2216 C2234 0.951 . S
H2217 C2236 0.951 . S
H2218 C2238 0.950 . S
H2219 C2239 0.950 . S
H2220 C2241 0.950 . S
H2221 C2244 0.950 . S
H2222 C2245 0.950 . S
H2223 C2247 0.950 . S
H2224 C2248 0.950 . S
H2225 C2249 0.951 . S
H2226 C2251 0.951 . S
H2227 C2253 0.950 . S
H2228 C2254 0.950 . S
H2229 C2256 0.950 . S
H2230 C2259 0.950 . S
H2231 C2260 0.950 . S
H2232 C2262 0.950 . S
H2233 C2263 0.950 . S
C2234 H2216 0.951 . S
C2234 C2235 1.366 . S
C2234 C2236 1.388 . S
C2235 C2234 1.366 . S
C2235 C2239 1.385 . S
C2236 H2217 0.951 . S
C2236 C2234 1.388 . S
C2236 C2237 1.366 . S
C2237 C2236 1.366 . S
C2237 C2238 1.414 . S
C2237 C2240 1.499 . S
C2238 H2218 0.950 . S
C2238 C2237 1.414 . S
C2238 C2239 1.374 . S
C2239 H2219 0.950 . S
C2239 C2235 1.385 . S
C2239 C2238 1.374 . S
C2240 C2237 1.499 . S
C2240 C2241 1.373 . S
C2240 C2242 1.389 . S
C2241 H2220 0.950 . S
C2241 C2240 1.373 . S
C2241 C2257 1.377 . S
C2242 C2240 1.389 . S
C2242 C2243 1.524 . S
C2242 C2256 1.377 . S
C2243 C2242 1.524 . S
C2243 C2244 1.397 . S
C2243 C2248 1.363 . S
C2244 H2221 0.950 . S
C2244 C2243 1.397 . S
C2244 C2245 1.334 . S
C2245 H2222 0.950 . S
C2245 C2244 1.334 . S
C2245 C2246 1.287 . S
C2246 C2245 1.287 . S
C2246 C2247 1.524 . S
C2246 H2265 0.913 . S
C2247 H2223 0.950 . S
C2247 C2246 1.524 . S
C2247 C2248 1.415 . S
C2248 H2224 0.950 . S
C2248 C2243 1.363 . S
C2248 C2247 1.415 . S
C2249 H2225 0.951 . S
C2249 C2250 1.366 . S
C2249 C2251 1.388 . S
C2250 C2249 1.366 . S
C2250 C2254 1.385 . S
C2251 H2226 0.951 . S
C2251 C2249 1.388 . S
C2251 C2252 1.366 . S
C2252 C2251 1.366 . S
C2252 C2253 1.414 . S
C2252 C2255 1.499 . S
C2253 H2227 0.950 . S
C2253 C2252 1.414 . S
C2253 C2254 1.374 . S
C2254 H2228 0.950 . S
C2254 C2250 1.385 . S
C2254 C2253 1.374 . S
C2255 C2252 1.499 . S
C2255 C2256 1.373 . S
C2255 C2257 1.389 . S
C2256 H2229 0.950 . S
C2256 C2242 1.377 . S
C2256 C2255 1.373 . S
C2257 C2241 1.377 . S
C2257 C2255 1.389 . S
C2257 C2258 1.524 . S
C2258 C2257 1.524 . S
C2258 C2259 1.397 . S
C2258 C2263 1.363 . S
C2259 H2230 0.950 . S
C2259 C2258 1.397 . S
C2259 C2260 1.334 . S
C2260 H2231 0.950 . S
C2260 C2259 1.334 . S
C2260 C2261 1.287 . S
C2261 C2260 1.287 . S
C2261 C2262 1.524 . S
C2261 H2264 0.999 . S
C2262 H2232 0.950 . S
C2262 C2261 1.524 . S
C2262 C2263 1.415 . S
C2263 H2233 0.950 . S
C2263 C2258 1.363 . S
C2263 C2262 1.415 . S
H2264 C2261 0.999 . S
H2265 C2246 0.913 . S
H2266 C2284 0.951 . S
H2267 C2286 0.951 . S
H2268 C2288 0.950 . S
H2269 C2289 0.950 . S
H2270 C2291 0.950 . S
H2271 C2294 0.950 . S
H2272 C2295 0.950 . S
H2273 C2297 0.950 . S
H2274 C2298 0.950 . S
H2275 C2299 0.951 . S
H2276 C2301 0.951 . S
H2277 C2303 0.950 . S
H2278 C2304 0.950 . S
H2279 C2306 0.950 . S
H2280 C2309 0.950 . S
H2281 C2310 0.950 . S
H2282 C2312 0.950 . S
H2283 C2313 0.950 . S
C2284 H2266 0.951 . S
C2284 C2285 1.366 . S
C2284 C2286 1.388 . S
C2285 C2284 1.366 . S
C2285 C2289 1.385 . S
C2286 H2267 0.951 . S
C2286 C2284 1.388 . S
C2286 C2287 1.366 . S
C2287 C2286 1.366 . S
C2287 C2288 1.414 . S
C2287 C2290 1.499 . S
C2288 H2268 0.950 . S
C2288 C2287 1.414 . S
C2288 C2289 1.374 . S
C2289 H2269 0.950 . S
C2289 C2285 1.385 . S
C2289 C2288 1.374 . S
C2290 C2287 1.499 . S
C2290 C2291 1.373 . S
C2290 C2292 1.389 . S
C2291 H2270 0.950 . S
C2291 C2290 1.373 . S
C2291 C2307 1.377 . S
C2292 C2290 1.389 . S
C2292 C2293 1.524 . S
C2292 C2306 1.377 . S
C2293 C2292 1.524 . S
C2293 C2294 1.397 . S
C2293 C2298 1.363 . S
C2294 H2271 0.950 . S
C2294 C2293 1.397 . S
C2294 C2295 1.334 . S
C2295 H2272 0.950 . S
C2295 C2294 1.334 . S
C2295 C2296 1.287 . S
C2296 C2295 1.287 . S
C2296 C2297 1.524 . S
C2296 H2315 0.913 . S
C2297 H2273 0.950 . S
C2297 C2296 1.524 . S
C2297 C2298 1.415 . S
C2298 H2274 0.950 . S
C2298 C2293 1.363 . S
C2298 C2297 1.415 . S
C2299 H2275 0.951 . S
C2299 C2300 1.366 . S
C2299 C2301 1.388 1_455 S
C2300 C2299 1.366 . S
C2300 C2304 1.385 . S
C2301 H2276 0.951 . S
C2301 C2299 1.388 1_655 S
C2301 C2302 1.366 . S
C2302 C2301 1.366 . S
C2302 C2303 1.414 . S
C2302 C2305 1.499 . S
C2303 H2277 0.950 . S
C2303 C2302 1.414 . S
C2303 C2304 1.374 1_655 S
C2304 H2278 0.950 . S
C2304 C2300 1.385 . S
C2304 C2303 1.374 1_455 S
C2305 C2302 1.499 . S
C2305 C2306 1.373 . S
C2305 C2307 1.389 . S
C2306 H2279 0.950 . S
C2306 C2292 1.377 . S
C2306 C2305 1.373 . S
C2307 C2291 1.377 . S
C2307 C2305 1.389 . S
C2307 C2308 1.524 . S
C2308 C2307 1.524 . S
C2308 C2309 1.397 . S
C2308 C2313 1.363 . S
C2309 H2280 0.950 . S
C2309 C2308 1.397 . S
C2309 C2310 1.334 . S
C2310 H2281 0.950 . S
C2310 C2309 1.334 . S
C2310 C2311 1.287 . S
C2311 C2310 1.287 . S
C2311 C2312 1.524 . S
C2311 H2314 0.999 . S
C2312 H2282 0.950 . S
C2312 C2311 1.524 . S
C2312 C2313 1.415 . S
C2313 H2283 0.950 . S
C2313 C2308 1.363 . S
C2313 C2312 1.415 . S
H2314 C2311 0.999 . S
H2315 C2296 0.913 . S
H2316 C2334 0.951 . S
H2317 C2336 0.951 . S
H2318 C2338 0.950 . S
H2319 C2339 0.950 . S
H2320 C2341 0.950 . S
H2321 C2344 0.950 . S
H2322 C2345 0.950 . S
H2323 C2347 0.950 . S
H2324 C2348 0.950 . S
H2325 C2349 0.951 . S
H2326 C2351 0.951 . S
H2327 C2353 0.950 . S
H2328 C2354 0.950 . S
H2329 C2356 0.950 . S
H2330 C2359 0.950 . S
H2331 C2360 0.950 . S
H2332 C2362 0.950 . S
H2333 C2363 0.950 . S
C2334 H2316 0.951 . S
C2334 C2335 1.366 . S
C2334 C2336 1.388 . S
C2335 C2334 1.366 . S
C2335 C2339 1.385 . S
C2336 H2317 0.951 . S
C2336 C2334 1.388 . S
C2336 C2337 1.366 . S
C2337 C2336 1.366 . S
C2337 C2338 1.414 . S
C2337 C2340 1.499 . S
C2338 H2318 0.950 . S
C2338 C2337 1.414 . S
C2338 C2339 1.374 . S
C2339 H2319 0.950 . S
C2339 C2335 1.385 . S
C2339 C2338 1.374 . S
C2340 C2337 1.499 . S
C2340 C2341 1.373 . S
C2340 C2342 1.389 . S
C2341 H2320 0.950 . S
C2341 C2340 1.373 . S
C2341 C2357 1.377 . S
C2342 C2340 1.389 . S
C2342 C2343 1.524 . S
C2342 C2356 1.377 . S
C2343 C2342 1.524 . S
C2343 C2344 1.397 . S
C2343 C2348 1.363 . S
C2344 H2321 0.950 . S
C2344 C2343 1.397 . S
C2344 C2345 1.334 . S
C2345 H2322 0.950 . S
C2345 C2344 1.334 . S
C2345 C2346 1.287 . S
C2346 C2345 1.287 . S
C2346 C2347 1.524 . S
C2346 H2365 0.913 . S
C2347 H2323 0.950 . S
C2347 C2346 1.524 . S
C2347 C2348 1.415 . S
C2348 H2324 0.950 . S
C2348 C2343 1.363 . S
C2348 C2347 1.415 . S
C2349 H2325 0.951 . S
C2349 C2350 1.366 . S
C2349 C2351 1.388 . S
C2350 C2349 1.366 . S
C2350 C2354 1.385 . S
C2351 H2326 0.951 . S
C2351 C2349 1.388 . S
C2351 C2352 1.366 . S
C2352 C2351 1.366 . S
C2352 C2353 1.414 . S
C2352 C2355 1.499 . S
C2353 H2327 0.950 . S
C2353 C2352 1.414 . S
C2353 C2354 1.374 . S
C2354 H2328 0.950 . S
C2354 C2350 1.385 . S
C2354 C2353 1.374 . S
C2355 C2352 1.499 . S
C2355 C2356 1.373 . S
C2355 C2357 1.389 . S
C2356 H2329 0.950 . S
C2356 C2342 1.377 . S
C2356 C2355 1.373 . S
C2357 C2341 1.377 . S
C2357 C2355 1.389 . S
C2357 C2358 1.524 . S
C2358 C2357 1.524 . S
C2358 C2359 1.397 . S
C2358 C2363 1.363 . S
C2359 H2330 0.950 . S
C2359 C2358 1.397 . S
C2359 C2360 1.334 . S
C2360 H2331 0.950 . S
C2360 C2359 1.334 . S
C2360 C2361 1.287 . S
C2361 C2360 1.287 . S
C2361 C2362 1.524 . S
C2361 H2364 0.999 . S
C2362 H2332 0.950 . S
C2362 C2361 1.524 . S
C2362 C2363 1.415 . S
C2363 H2333 0.950 . S
C2363 C2358 1.363 . S
C2363 C2362 1.415 . S
H2364 C2361 0.999 . S
H2365 C2346 0.913 . S
H2366 C2384 0.951 . S
H2367 C2386 0.951 . S
H2368 C2388 0.950 . S
H2369 C2389 0.950 . S
H2370 C2391 0.950 . S
H2371 C2394 0.950 . S
H2372 C2395 0.950 . S
H2373 C2397 0.950 . S
H2374 C2398 0.950 . S
H2375 C2399 0.951 . S
H2376 C2401 0.951 . S
H2377 C2403 0.950 . S
H2378 C2404 0.950 . S
H2379 C2406 0.950 . S
H2380 C2409 0.950 . S
H2381 C2410 0.950 . S
H2382 C2412 0.950 . S
H2383 C2413 0.950 . S
C2384 H2366 0.951 . S
C2384 C2385 1.366 . S
C2384 C2386 1.388 . S
C2385 C2384 1.366 . S
C2385 C2389 1.385 . S
C2386 H2367 0.951 . S
C2386 C2384 1.388 . S
C2386 C2387 1.366 . S
C2387 C2386 1.366 . S
C2387 C2388 1.414 . S
C2387 C2390 1.499 . S
C2388 H2368 0.950 . S
C2388 C2387 1.414 . S
C2388 C2389 1.374 . S
C2389 H2369 0.950 . S
C2389 C2385 1.385 . S
C2389 C2388 1.374 . S
C2390 C2387 1.499 . S
C2390 C2391 1.373 . S
C2390 C2392 1.389 . S
C2391 H2370 0.950 . S
C2391 C2390 1.373 . S
C2391 C2407 1.377 . S
C2392 C2390 1.389 . S
C2392 C2393 1.524 . S
C2392 C2406 1.377 . S
C2393 C2392 1.524 . S
C2393 C2394 1.397 . S
C2393 C2398 1.363 . S
C2394 H2371 0.950 . S
C2394 C2393 1.397 . S
C2394 C2395 1.334 . S
C2395 H2372 0.950 . S
C2395 C2394 1.334 . S
C2395 C2396 1.287 . S
C2396 C2395 1.287 . S
C2396 C2397 1.524 . S
C2396 H2415 0.913 . S
C2397 H2373 0.950 . S
C2397 C2396 1.524 . S
C2397 C2398 1.415 . S
C2398 H2374 0.950 . S
C2398 C2393 1.363 . S
C2398 C2397 1.415 . S
C2399 H2375 0.951 . S
C2399 C2400 1.366 . S
C2399 C2401 1.388 . S
C2400 C2399 1.366 . S
C2400 C2404 1.385 . S
C2401 H2376 0.951 . S
C2401 C2399 1.388 . S
C2401 C2402 1.366 . S
C2402 C2401 1.366 . S
C2402 C2403 1.414 . S
C2402 C2405 1.499 . S
C2403 H2377 0.950 . S
C2403 C2402 1.414 . S
C2403 C2404 1.374 . S
C2404 H2378 0.950 . S
C2404 C2400 1.385 . S
C2404 C2403 1.374 . S
C2405 C2402 1.499 . S
C2405 C2406 1.373 . S
C2405 C2407 1.389 . S
C2406 H2379 0.950 . S
C2406 C2392 1.377 . S
C2406 C2405 1.373 . S
C2407 C2391 1.377 . S
C2407 C2405 1.389 . S
C2407 C2408 1.524 . S
C2408 C2407 1.524 . S
C2408 C2409 1.397 . S
C2408 C2413 1.363 . S
C2409 H2380 0.950 . S
C2409 C2408 1.397 . S
C2409 C2410 1.334 . S
C2410 H2381 0.950 . S
C2410 C2409 1.334 . S
C2410 C2411 1.287 . S
C2411 C2410 1.287 . S
C2411 C2412 1.524 . S
C2411 H2414 0.999 . S
C2412 H2382 0.950 . S
C2412 C2411 1.524 . S
C2412 C2413 1.415 . S
C2413 H2383 0.950 . S
C2413 C2408 1.363 . S
C2413 C2412 1.415 . S
H2414 C2411 0.999 . S
H2415 C2396 0.913 . S
H2416 C2434 0.951 . S
H2417 C2436 0.951 . S
H2418 C2438 0.950 . S
H2419 C2439 0.950 . S
H2420 C2441 0.950 . S
H2421 C2444 0.950 . S
H2422 C2445 0.950 . S
H2423 C2447 0.950 . S
H2424 C2448 0.950 . S
H2425 C2449 0.951 . S
H2426 C2451 0.951 . S
H2427 C2453 0.950 . S
H2428 C2454 0.950 . S
H2429 C2456 0.950 . S
H2430 C2459 0.950 . S
H2431 C2460 0.950 . S
H2432 C2462 0.950 . S
H2433 C2463 0.950 . S
C2434 H2416 0.951 . S
C2434 C2435 1.366 . S
C2434 C2436 1.388 . S
C2435 C2434 1.366 . S
C2435 C2439 1.385 . S
C2436 H2417 0.951 . S
C2436 C2434 1.388 . S
C2436 C2437 1.366 . S
C2437 C2436 1.366 . S
C2437 C2438 1.414 . S
C2437 C2440 1.499 . S
C2438 H2418 0.950 . S
C2438 C2437 1.414 . S
C2438 C2439 1.374 . S
C2439 H2419 0.950 . S
C2439 C2435 1.385 . S
C2439 C2438 1.374 . S
C2440 C2437 1.499 . S
C2440 C2441 1.373 . S
C2440 C2442 1.389 . S
C2441 H2420 0.950 . S
C2441 C2440 1.373 . S
C2441 C2457 1.377 . S
C2442 C2440 1.389 . S
C2442 C2443 1.524 . S
C2442 C2456 1.377 . S
C2443 C2442 1.524 . S
C2443 C2444 1.397 . S
C2443 C2448 1.363 . S
C2444 H2421 0.950 . S
C2444 C2443 1.397 . S
C2444 C2445 1.334 . S
C2445 H2422 0.950 . S
C2445 C2444 1.334 . S
C2445 C2446 1.287 . S
C2446 C2445 1.287 . S
C2446 C2447 1.524 . S
C2446 H2465 0.913 . S
C2447 H2423 0.950 . S
C2447 C2446 1.524 . S
C2447 C2448 1.415 . S
C2448 H2424 0.950 . S
C2448 C2443 1.363 . S
C2448 C2447 1.415 . S
C2449 H2425 0.951 . S
C2449 C2450 1.366 . S
C2449 C2451 1.388 . S
C2450 C2449 1.366 . S
C2450 C2454 1.385 . S
C2451 H2426 0.951 . S
C2451 C2449 1.388 . S
C2451 C2452 1.366 . S
C2452 C2451 1.366 . S
C2452 C2453 1.414 . S
C2452 C2455 1.499 . S
C2453 H2427 0.950 . S
C2453 C2452 1.414 . S
C2453 C2454 1.374 . S
C2454 H2428 0.950 . S
C2454 C2450 1.385 . S
C2454 C2453 1.374 . S
C2455 C2452 1.499 . S
C2455 C2456 1.373 . S
C2455 C2457 1.389 . S
C2456 H2429 0.950 . S
C2456 C2442 1.377 . S
C2456 C2455 1.373 . S
C2457 C2441 1.377 . S
C2457 C2455 1.389 . S
C2457 C2458 1.524 . S
C2458 C2457 1.524 . S
C2458 C2459 1.397 . S
C2458 C2463 1.363 . S
C2459 H2430 0.950 . S
C2459 C2458 1.397 . S
C2459 C2460 1.334 . S
C2460 H2431 0.950 . S
C2460 C2459 1.334 . S
C2460 C2461 1.287 . S
C2461 C2460 1.287 . S
C2461 C2462 1.524 . S
C2461 H2464 0.999 . S
C2462 H2432 0.950 . S
C2462 C2461 1.524 . S
C2462 C2463 1.415 . S
C2463 H2433 0.950 . S
C2463 C2458 1.363 . S
C2463 C2462 1.415 . S
H2464 C2461 0.999 . S
H2465 C2446 0.913 . S
H2466 C2484 0.951 . S
H2467 C2486 0.951 . S
H2468 C2488 0.950 . S
H2469 C2489 0.950 . S
H2470 C2491 0.950 . S
H2471 C2494 0.950 . S
H2472 C2495 0.950 . S
H2473 C2497 0.950 . S
H2474 C2498 0.950 . S
H2475 C2499 0.951 . S
H2476 C2501 0.951 . S
H2477 C2503 0.950 . S
H2478 C2504 0.950 . S
H2479 C2506 0.950 . S
H2480 C2509 0.950 . S
H2481 C2510 0.972 . S
H2482 C2512 0.950 . S
H2483 C2513 0.950 . S
C2484 H2466 0.951 . S
C2484 C2485 1.366 . S
C2484 C2486 1.388 . S
C2485 C2484 1.366 . S
C2485 C2489 1.385 . S
C2486 H2467 0.951 . S
C2486 C2484 1.388 . S
C2486 C2487 1.366 . S
C2487 C2486 1.366 . S
C2487 C2488 1.414 . S
C2487 C2490 1.499 . S
C2488 H2468 0.950 . S
C2488 C2487 1.414 . S
C2488 C2489 1.374 . S
C2489 H2469 0.950 . S
C2489 C2485 1.385 . S
C2489 C2488 1.374 . S
C2490 C2487 1.499 . S
C2490 C2491 1.373 . S
C2490 C2492 1.389 . S
C2491 H2470 0.950 . S
C2491 C2490 1.373 . S
C2491 C2507 1.377 . S
C2492 C2490 1.389 . S
C2492 C2493 1.524 . S
C2492 C2506 1.377 . S
C2493 C2492 1.524 . S
C2493 C2494 1.397 . S
C2493 C2498 1.363 . S
C2494 H2471 0.950 . S
C2494 C2493 1.397 . S
C2494 C2495 1.334 . S
C2495 H2472 0.950 . S
C2495 C2494 1.334 . S
C2495 C2496 1.287 . S
C2496 C2495 1.287 . S
C2496 C2497 1.524 . S
C2496 H2515 0.913 . S
C2497 H2473 0.950 . S
C2497 C2496 1.524 . S
C2497 C2498 1.415 . S
C2498 H2474 0.950 . S
C2498 C2493 1.363 . S
C2498 C2497 1.415 . S
C2499 H2475 0.951 . S
C2499 C2500 1.366 . S
C2499 C2501 1.388 . S
C2500 C2499 1.366 . S
C2500 C2504 1.385 . S
C2501 H2476 0.951 . S
C2501 C2499 1.388 . S
C2501 C2502 1.366 . S
C2502 C2501 1.366 . S
C2502 C2503 1.414 . S
C2502 C2505 1.499 . S
C2503 H2477 0.950 . S
C2503 C2502 1.414 . S
C2503 C2504 1.374 . S
C2504 H2478 0.950 . S
C2504 C2500 1.385 . S
C2504 C2503 1.374 . S
C2505 C2502 1.499 . S
C2505 C2506 1.373 . S
C2505 C2507 1.389 . S
C2506 H2479 0.950 . S
C2506 C2492 1.377 . S
C2506 C2505 1.373 . S
C2507 C2491 1.377 . S
C2507 C2505 1.389 . S
C2507 C2508 1.524 . S
C2508 C2507 1.524 . S
C2508 C2509 1.397 . S
C2508 C2513 1.363 . S
C2509 H2480 0.950 . S
C2509 C2508 1.397 . S
C2509 C2510 1.304 1_455 S
C2510 H2481 0.972 . S
C2510 C2509 1.304 1_655 S
C2510 C2511 1.296 1_655 S
C2511 C2510 1.296 1_455 S
C2511 C2512 1.524 . S
C2511 H2514 0.999 1_455 S
C2512 H2482 0.950 . S
C2512 C2511 1.524 . S
C2512 C2513 1.415 . S
C2513 H2483 0.950 . S
C2513 C2508 1.363 . S
C2513 C2512 1.415 . S
H2514 C2511 0.999 1_655 S
H2515 C2496 0.913 . S
H2516 C2534 0.951 . S
H2517 C2536 0.951 . S
H2518 C2538 0.950 . S
H2519 C2539 0.950 . S
H2520 C2541 0.950 . S
H2521 C2544 0.950 . S
H2522 C2545 0.950 . S
H2523 C2547 0.950 . S
H2524 C2548 0.950 . S
H2525 C2549 0.951 . S
H2526 C2551 0.951 . S
H2527 C2553 0.950 . S
H2528 C2554 0.950 . S
H2529 C2556 0.950 . S
H2530 C2559 0.950 . S
H2531 C2560 0.950 . S
H2532 C2562 0.950 . S
H2533 C2563 0.950 . S
C2534 H2516 0.951 . S
C2534 C2535 1.366 . S
C2534 C2536 1.388 . S
C2535 C2534 1.366 . S
C2535 C2539 1.385 . S
C2536 H2517 0.951 . S
C2536 C2534 1.388 . S
C2536 C2537 1.366 . S
C2537 C2536 1.366 . S
C2537 C2538 1.414 . S
C2537 C2540 1.499 . S
C2538 H2518 0.950 . S
C2538 C2537 1.414 . S
C2538 C2539 1.374 . S
C2539 H2519 0.950 . S
C2539 C2535 1.385 . S
C2539 C2538 1.374 . S
C2540 C2537 1.499 . S
C2540 C2541 1.373 . S
C2540 C2542 1.389 . S
C2541 H2520 0.950 . S
C2541 C2540 1.373 . S
C2541 C2557 1.377 . S
C2542 C2540 1.389 . S
C2542 C2543 1.524 . S
C2542 C2556 1.377 . S
C2543 C2542 1.524 . S
C2543 C2544 1.397 . S
C2543 C2548 1.363 . S
C2544 H2521 0.950 . S
C2544 C2543 1.397 . S
C2544 C2545 1.334 . S
C2545 H2522 0.950 . S
C2545 C2544 1.334 . S
C2545 C2546 1.287 . S
C2546 C2545 1.287 . S
C2546 C2547 1.524 . S
C2546 H2565 0.913 . S
C2547 H2523 0.950 . S
C2547 C2546 1.524 . S
C2547 C2548 1.415 . S
C2548 H2524 0.950 . S
C2548 C2543 1.363 . S
C2548 C2547 1.415 . S
C2549 H2525 0.951 . S
C2549 C2550 1.366 . S
C2549 C2551 1.388 . S
C2550 C2549 1.366 . S
C2550 C2554 1.385 . S
C2551 H2526 0.951 . S
C2551 C2549 1.388 . S
C2551 C2552 1.366 . S
C2552 C2551 1.366 . S
C2552 C2553 1.414 . S
C2552 C2555 1.499 . S
C2553 H2527 0.950 . S
C2553 C2552 1.414 . S
C2553 C2554 1.374 . S
C2554 H2528 0.950 . S
C2554 C2550 1.385 . S
C2554 C2553 1.374 . S
C2555 C2552 1.499 . S
C2555 C2556 1.373 . S
C2555 C2557 1.389 . S
C2556 H2529 0.950 . S
C2556 C2542 1.377 . S
C2556 C2555 1.373 . S
C2557 C2541 1.377 . S
C2557 C2555 1.389 . S
C2557 C2558 1.524 . S
C2558 C2557 1.524 . S
C2558 C2559 1.397 . S
C2558 C2563 1.363 . S
C2559 H2530 0.950 . S
C2559 C2558 1.397 . S
C2559 C2560 1.334 . S
C2560 H2531 0.950 . S
C2560 C2559 1.334 . S
C2560 C2561 1.287 . S
C2561 C2560 1.287 . S
C2561 C2562 1.524 . S
C2561 H2564 0.999 . S
C2562 H2532 0.950 . S
C2562 C2561 1.524 . S
C2562 C2563 1.415 . S
C2563 H2533 0.950 . S
C2563 C2558 1.363 . S
C2563 C2562 1.415 . S
H2564 C2561 0.999 . S
H2565 C2546 0.913 . S
H2566 C2584 0.951 . S
H2567 C2586 0.951 . S
H2568 C2588 0.950 1_565 S
H2569 C2589 0.950 1_565 S
H2570 C2591 0.950 1_565 S
H2571 C2594 0.950 . S
H2572 C2595 0.950 . S
H2573 C2597 0.950 . S
H2574 C2598 0.950 . S
H2575 C2599 0.951 . S
H2576 C2601 0.951 . S
H2577 C2603 0.950 . S
H2578 C2604 0.950 . S
H2579 C2606 0.950 . S
H2580 C2609 0.950 . S
H2581 C2610 0.950 . S
H2582 C2612 0.950 . S
H2583 C2613 0.950 . S
C2584 H2566 0.951 . S
C2584 C2585 1.366 . S
C2584 C2586 1.388 . S
C2585 C2584 1.366 . S
C2585 C2589 1.385 . S
C2586 H2567 0.951 . S
C2586 C2584 1.388 . S
C2586 C2587 1.366 . S
C2587 C2586 1.366 . S
C2587 C2588 1.414 . S
C2587 C2590 1.499 . S
C2588 H2568 0.950 1_545 S
C2588 C2587 1.414 . S
C2588 C2589 1.374 . S
C2589 H2569 0.950 1_545 S
C2589 C2585 1.385 . S
C2589 C2588 1.374 . S
C2590 C2587 1.499 . S
C2590 C2591 1.373 . S
C2590 C2592 1.389 . S
C2591 H2570 0.950 1_545 S
C2591 C2590 1.373 . S
C2591 C2607 1.377 . S
C2592 C2590 1.389 . S
C2592 C2593 1.524 . S
C2592 C2606 1.377 . S
C2593 C2592 1.524 . S
C2593 C2594 1.397 . S
C2593 C2598 1.363 . S
C2594 H2571 0.950 . S
C2594 C2593 1.397 . S
C2594 C2595 1.334 . S
C2595 H2572 0.950 . S
C2595 C2594 1.334 . S
C2595 C2596 1.287 . S
C2596 C2595 1.287 . S
C2596 C2597 1.524 . S
C2596 H2615 0.913 . S
C2597 H2573 0.950 . S
C2597 C2596 1.524 . S
C2597 C2598 1.415 . S
C2598 H2574 0.950 . S
C2598 C2593 1.363 . S
C2598 C2597 1.415 . S
C2599 H2575 0.951 . S
C2599 C2600 1.366 . S
C2599 C2601 1.388 . S
C2600 C2599 1.366 . S
C2600 C2604 1.385 . S
C2601 H2576 0.951 . S
C2601 C2599 1.388 . S
C2601 C2602 1.366 . S
C2602 C2601 1.366 . S
C2602 C2603 1.414 . S
C2602 C2605 1.499 . S
C2603 H2577 0.950 . S
C2603 C2602 1.414 . S
C2603 C2604 1.374 . S
C2604 H2578 0.950 . S
C2604 C2600 1.385 . S
C2604 C2603 1.374 . S
C2605 C2602 1.499 . S
C2605 C2606 1.373 . S
C2605 C2607 1.389 . S
C2606 H2579 0.950 . S
C2606 C2592 1.377 . S
C2606 C2605 1.373 . S
C2607 C2591 1.377 . S
C2607 C2605 1.389 . S
C2607 C2608 1.524 1_545 S
C2608 C2607 1.524 1_565 S
C2608 C2609 1.397 . S
C2608 C2613 1.363 . S
C2609 H2580 0.950 . S
C2609 C2608 1.397 . S
C2609 C2610 1.334 . S
C2610 H2581 0.950 . S
C2610 C2609 1.334 . S
C2610 C2611 1.287 . S
C2611 C2610 1.287 . S
C2611 C2612 1.524 . S
C2611 H2614 0.999 . S
C2612 H2582 0.950 . S
C2612 C2611 1.524 . S
C2612 C2613 1.415 . S
C2613 H2583 0.950 . S
C2613 C2608 1.363 . S
C2613 C2612 1.415 . S
H2614 C2611 0.999 . S
H2615 C2596 0.913 . S
H2616 C2634 0.951 . S
H2617 C2636 0.951 . S
H2618 C2638 0.950 . S
H2619 C2639 0.950 . S
H2620 C2641 0.950 . S
H2621 C2644 0.950 . S
H2622 C2645 0.950 . S
H2623 C2647 0.950 . S
H2624 C2648 0.950 . S
H2625 C2649 0.951 . S
H2626 C2651 0.951 . S
H2627 C2653 0.950 . S
H2628 C2654 0.950 . S
H2629 C2656 0.950 . S
H2630 C2659 0.950 . S
H2631 C2660 0.950 . S
H2632 C2662 0.950 . S
H2633 C2663 0.950 . S
C2634 H2616 0.951 . S
C2634 C2635 1.366 . S
C2634 C2636 1.388 . S
C2635 C2634 1.366 . S
C2635 C2639 1.385 . S
C2636 H2617 0.951 . S
C2636 C2634 1.388 . S
C2636 C2637 1.366 . S
C2637 C2636 1.366 . S
C2637 C2638 1.414 . S
C2637 C2640 1.499 . S
C2638 H2618 0.950 . S
C2638 C2637 1.414 . S
C2638 C2639 1.374 . S
C2639 H2619 0.950 . S
C2639 C2635 1.385 . S
C2639 C2638 1.374 . S
C2640 C2637 1.499 . S
C2640 C2641 1.373 . S
C2640 C2642 1.389 . S
C2641 H2620 0.950 . S
C2641 C2640 1.373 . S
C2641 C2657 1.377 . S
C2642 C2640 1.389 . S
C2642 C2643 1.524 . S
C2642 C2656 1.377 . S
C2643 C2642 1.524 . S
C2643 C2644 1.397 1_545 S
C2643 C2648 1.363 . S
C2644 H2621 0.950 . S
C2644 C2643 1.397 1_565 S
C2644 C2645 1.334 . S
C2645 H2622 0.950 . S
C2645 C2644 1.334 . S
C2645 C2646 1.287 . S
C2646 C2645 1.287 . S
C2646 C2647 1.524 1_565 S
C2646 H2665 0.913 . S
C2647 H2623 0.950 . S
C2647 C2646 1.524 1_545 S
C2647 C2648 1.415 . S
C2648 H2624 0.950 . S
C2648 C2643 1.363 . S
C2648 C2647 1.415 . S
C2649 H2625 0.951 . S
C2649 C2650 1.366 . S
C2649 C2651 1.388 . S
C2650 C2649 1.366 . S
C2650 C2654 1.385 . S
C2651 H2626 0.951 . S
C2651 C2649 1.388 . S
C2651 C2652 1.366 . S
C2652 C2651 1.366 . S
C2652 C2653 1.414 . S
C2652 C2655 1.499 . S
C2653 H2627 0.950 . S
C2653 C2652 1.414 . S
C2653 C2654 1.374 . S
C2654 H2628 0.950 . S
C2654 C2650 1.385 . S
C2654 C2653 1.374 . S
C2655 C2652 1.499 . S
C2655 C2656 1.373 . S
C2655 C2657 1.389 . S
C2656 H2629 0.950 . S
C2656 C2642 1.377 . S
C2656 C2655 1.373 . S
C2657 C2641 1.377 . S
C2657 C2655 1.389 . S
C2657 C2658 1.524 . S
C2658 C2657 1.524 . S
C2658 C2659 1.397 . S
C2658 C2663 1.363 . S
C2659 H2630 0.950 . S
C2659 C2658 1.397 . S
C2659 C2660 1.334 . S
C2660 H2631 0.950 . S
C2660 C2659 1.334 . S
C2660 C2661 1.287 . S
C2661 C2660 1.287 . S
C2661 C2662 1.524 . S
C2661 H2664 0.999 . S
C2662 H2632 0.950 . S
C2662 C2661 1.524 . S
C2662 C2663 1.415 . S
C2663 H2633 0.950 . S
C2663 C2658 1.363 . S
C2663 C2662 1.415 . S
H2664 C2661 0.999 . S
H2665 C2646 0.913 . S
H2666 C2684 0.951 . S
H2667 C2686 0.951 . S
H2668 C2688 0.950 . S
H2669 C2689 0.950 . S
H2670 C2691 0.950 . S
H2671 C2694 0.950 . S
H2672 C2695 0.950 . S
H2673 C2697 0.945 . S
H2674 C2698 0.950 . S
H2675 C2699 0.951 . S
H2676 C2701 0.951 . S
H2677 C2703 0.950 . S
H2678 C2704 0.950 . S
H2679 C2706 0.950 . S
H2680 C2709 0.950 . S
H2681 C2710 0.950 . S
H2682 C2712 0.950 . S
H2683 C2713 0.950 . S
C2684 H2666 0.951 . S
C2684 C2685 1.366 . S
C2684 C2686 1.388 . S
C2685 C2684 1.366 . S
C2685 C2689 1.385 . S
C2686 H2667 0.951 . S
C2686 C2684 1.388 . S
C2686 C2687 1.366 . S
C2687 C2686 1.366 . S
C2687 C2688 1.414 . S
C2687 C2690 1.499 . S
C2688 H2668 0.950 . S
C2688 C2687 1.414 . S
C2688 C2689 1.374 . S
C2689 H2669 0.950 . S
C2689 C2685 1.385 . S
C2689 C2688 1.374 . S
C2690 C2687 1.499 . S
C2690 C2691 1.373 . S
C2690 C2692 1.389 . S
C2691 H2670 0.950 . S
C2691 C2690 1.373 . S
C2691 C2707 1.377 . S
C2692 C2690 1.389 . S
C2692 C2693 1.524 . S
C2692 C2706 1.377 . S
C2693 C2692 1.524 . S
C2693 C2694 1.397 . S
C2693 C2698 1.363 . S
C2694 H2671 0.950 . S
C2694 C2693 1.397 . S
C2694 C2695 1.334 1_455 S
C2695 H2672 0.950 . S
C2695 C2694 1.334 1_655 S
C2695 C2696 1.287 . S
C2696 C2695 1.287 . S
C2696 C2697 1.544 . S
C2696 H2715 0.913 . S
C2697 H2673 0.945 . S
C2697 C2696 1.544 . S
C2697 C2698 1.401 1_655 S
C2698 H2674 0.950 . S
C2698 C2693 1.363 . S
C2698 C2697 1.401 1_455 S
C2699 H2675 0.951 . S
C2699 C2700 1.366 . S
C2699 C2701 1.388 . S
C2700 C2699 1.366 . S
C2700 C2704 1.385 . S
C2701 H2676 0.951 . S
C2701 C2699 1.388 . S
C2701 C2702 1.366 . S
C2702 C2701 1.366 . S
C2702 C2703 1.414 . S
C2702 C2705 1.499 . S
C2703 H2677 0.950 . S
C2703 C2702 1.414 . S
C2703 C2704 1.374 . S
C2704 H2678 0.950 . S
C2704 C2700 1.385 . S
C2704 C2703 1.374 . S
C2705 C2702 1.499 . S
C2705 C2706 1.373 . S
C2705 C2707 1.389 . S
C2706 H2679 0.950 . S
C2706 C2692 1.377 . S
C2706 C2705 1.373 . S
C2707 C2691 1.377 . S
C2707 C2705 1.389 . S
C2707 C2708 1.524 . S
C2708 C2707 1.524 . S
C2708 C2709 1.397 . S
C2708 C2713 1.363 . S
C2709 H2680 0.950 . S
C2709 C2708 1.397 . S
C2709 C2710 1.334 . S
C2710 H2681 0.950 . S
C2710 C2709 1.334 . S
C2710 C2711 1.287 . S
C2711 C2710 1.287 . S
C2711 C2712 1.524 . S
C2711 H2714 0.999 . S
C2712 H2682 0.950 . S
C2712 C2711 1.524 . S
C2712 C2713 1.415 . S
C2713 H2683 0.950 . S
C2713 C2708 1.363 . S
C2713 C2712 1.415 . S
H2714 C2711 0.999 . S
H2715 C2696 0.913 . S
H2716 C2734 0.951 . S
H2717 C2736 0.951 . S
H2718 C2738 0.950 . S
H2719 C2739 0.950 . S
H2720 C2741 0.950 . S
H2721 C2744 0.950 . S
H2722 C2745 0.950 . S
H2723 C2747 0.950 . S
H2724 C2748 0.950 . S
H2725 C2749 0.951 . S
H2726 C2751 0.951 . S
H2727 C2753 0.950 . S
H2728 C2754 0.950 . S
H2729 C2756 0.950 . S
H2730 C2759 0.950 . S
H2731 C2760 0.950 . S
H2732 C2762 0.950 . S
H2733 C2763 0.950 . S
C2734 H2716 0.951 . S
C2734 C2735 1.366 . S
C2734 C2736 1.388 . S
C2735 C2734 1.366 . S
C2735 C2739 1.385 . S
C2736 H2717 0.951 . S
C2736 C2734 1.388 . S
C2736 C2737 1.366 . S
C2737 C2736 1.366 . S
C2737 C2738 1.414 . S
C2737 C2740 1.499 . S
C2738 H2718 0.950 . S
C2738 C2737 1.414 . S
C2738 C2739 1.374 . S
C2739 H2719 0.950 . S
C2739 C2735 1.385 . S
C2739 C2738 1.374 . S
C2740 C2737 1.499 . S
C2740 C2741 1.373 . S
C2740 C2742 1.389 . S
C2741 H2720 0.950 . S
C2741 C2740 1.373 . S
C2741 C2757 1.377 . S
C2742 C2740 1.389 . S
C2742 C2743 1.524 . S
C2742 C2756 1.377 . S
C2743 C2742 1.524 . S
C2743 C2744 1.397 . S
C2743 C2748 1.363 . S
C2744 H2721 0.950 . S
C2744 C2743 1.397 . S
C2744 C2745 1.334 . S
C2745 H2722 0.950 . S
C2745 C2744 1.334 . S
C2745 C2746 1.287 . S
C2746 C2745 1.287 . S
C2746 C2747 1.524 . S
C2746 H2765 0.913 . S
C2747 H2723 0.950 . S
C2747 C2746 1.524 . S
C2747 C2748 1.415 . S
C2748 H2724 0.950 . S
C2748 C2743 1.363 . S
C2748 C2747 1.415 . S
C2749 H2725 0.951 . S
C2749 C2750 1.366 . S
C2749 C2751 1.388 . S
C2750 C2749 1.366 . S
C2750 C2754 1.385 . S
C2751 H2726 0.951 . S
C2751 C2749 1.388 . S
C2751 C2752 1.366 . S
C2752 C2751 1.366 . S
C2752 C2753 1.414 . S
C2752 C2755 1.499 . S
C2753 H2727 0.950 . S
C2753 C2752 1.414 . S
C2753 C2754 1.374 . S
C2754 H2728 0.950 . S
C2754 C2750 1.385 . S
C2754 C2753 1.374 . S
C2755 C2752 1.499 . S
C2755 C2756 1.373 . S
C2755 C2757 1.389 . S
C2756 H2729 0.950 . S
C2756 C2742 1.377 . S
C2756 C2755 1.373 . S
C2757 C2741 1.377 . S
C2757 C2755 1.389 . S
C2757 C2758 1.524 . S
C2758 C2757 1.524 . S
C2758 C2759 1.397 . S
C2758 C2763 1.363 . S
C2759 H2730 0.950 . S
C2759 C2758 1.397 . S
C2759 C2760 1.334 . S
C2760 H2731 0.950 . S
C2760 C2759 1.334 . S
C2760 C2761 1.287 . S
C2761 C2760 1.287 . S
C2761 C2762 1.524 . S
C2761 H2764 0.999 . S
C2762 H2732 0.950 . S
C2762 C2761 1.524 . S
C2762 C2763 1.415 . S
C2763 H2733 0.950 . S
C2763 C2758 1.363 . S
C2763 C2762 1.415 . S
H2764 C2761 0.999 . S
H2765 C2746 0.913 . S
H2766 C2784 0.951 . S
H2767 C2786 0.951 . S
H2768 C2788 0.950 . S
H2769 C2789 0.950 . S
H2770 C2791 0.950 . S
H2771 C2794 0.950 . S
H2772 C2795 0.950 . S
H2773 C2797 0.950 . S
H2774 C2798 0.950 . S
H2775 C2799 0.951 . S
H2776 C2801 0.951 . S
H2777 C2803 0.950 . S
H2778 C2804 0.950 . S
H2779 C2806 0.950 . S
H2780 C2809 0.950 . S
H2781 C2810 0.950 . S
H2782 C2812 0.950 . S
H2783 C2813 0.957 1_655 S
C2784 H2766 0.951 . S
C2784 C2785 1.366 . S
C2784 C2786 1.388 . S
C2785 C2784 1.366 . S
C2785 C2789 1.385 . S
C2786 H2767 0.951 . S
C2786 C2784 1.388 . S
C2786 C2787 1.366 . S
C2787 C2786 1.366 . S
C2787 C2788 1.414 . S
C2787 C2790 1.499 . S
C2788 H2768 0.950 . S
C2788 C2787 1.414 . S
C2788 C2789 1.374 . S
C2789 H2769 0.950 . S
C2789 C2785 1.385 . S
C2789 C2788 1.374 . S
C2790 C2787 1.499 . S
C2790 C2791 1.373 . S
C2790 C2792 1.389 . S
C2791 H2770 0.950 . S
C2791 C2790 1.373 . S
C2791 C2807 1.377 . S
C2792 C2790 1.389 . S
C2792 C2793 1.524 . S
C2792 C2806 1.377 . S
C2793 C2792 1.524 . S
C2793 C2794 1.397 . S
C2793 C2798 1.363 . S
C2794 H2771 0.950 . S
C2794 C2793 1.397 . S
C2794 C2795 1.334 . S
C2795 H2772 0.950 . S
C2795 C2794 1.334 . S
C2795 C2796 1.287 . S
C2796 C2795 1.287 . S
C2796 C2797 1.524 . S
C2796 H2815 0.913 . S
C2797 H2773 0.950 . S
C2797 C2796 1.524 . S
C2797 C2798 1.415 . S
C2798 H2774 0.950 . S
C2798 C2793 1.363 . S
C2798 C2797 1.415 . S
C2799 H2775 0.951 . S
C2799 C2800 1.366 . S
C2799 C2801 1.388 . S
C2800 C2799 1.366 . S
C2800 C2804 1.385 . S
C2801 H2776 0.951 . S
C2801 C2799 1.388 . S
C2801 C2802 1.366 . S
C2802 C2801 1.366 . S
C2802 C2803 1.414 . S
C2802 C2805 1.499 . S
C2803 H2777 0.950 . S
C2803 C2802 1.414 . S
C2803 C2804 1.374 . S
C2804 H2778 0.950 . S
C2804 C2800 1.385 . S
C2804 C2803 1.374 . S
C2805 C2802 1.499 . S
C2805 C2806 1.373 . S
C2805 C2807 1.389 . S
C2806 H2779 0.950 . S
C2806 C2792 1.377 . S
C2806 C2805 1.373 . S
C2807 C2791 1.377 . S
C2807 C2805 1.389 . S
C2807 C2808 1.524 . S
C2808 C2807 1.524 . S
C2808 C2809 1.397 . S
C2808 C2813 1.382 . S
C2809 H2780 0.950 . S
C2809 C2808 1.397 . S
C2809 C2810 1.334 . S
C2810 H2781 0.950 . S
C2810 C2809 1.334 . S
C2810 C2811 1.287 1_455 S
C2811 C2810 1.287 1_655 S
C2811 C2812 1.524 . S
C2811 H2814 0.999 . S
C2812 H2782 0.950 . S
C2812 C2811 1.524 . S
C2812 C2813 1.389 1_655 S
C2813 H2783 0.957 1_455 S
C2813 C2808 1.382 . S
C2813 C2812 1.389 1_455 S
H2814 C2811 0.999 . S
H2815 C2796 0.913 . S
H2816 C2834 0.951 . S
H2817 C2836 0.951 . S
H2818 C2838 0.950 . S
H2819 C2839 0.950 . S
H2820 C2841 0.950 . S
H2821 C2844 0.950 . S
H2822 C2845 0.950 . S
H2823 C2847 0.950 . S
H2824 C2848 0.950 . S
H2825 C2849 0.951 . S
H2826 C2851 0.951 . S
H2827 C2853 0.950 . S
H2828 C2854 0.950 . S
H2829 C2856 0.950 . S
H2830 C2859 0.950 . S
H2831 C2860 0.950 . S
H2832 C2862 0.950 . S
H2833 C2863 0.950 . S
C2834 H2816 0.951 . S
C2834 C2835 1.366 . S
C2834 C2836 1.388 . S
C2835 C2834 1.366 . S
C2835 C2839 1.385 . S
C2836 H2817 0.951 . S
C2836 C2834 1.388 . S
C2836 C2837 1.366 . S
C2837 C2836 1.366 . S
C2837 C2838 1.414 . S
C2837 C2840 1.499 . S
C2838 H2818 0.950 . S
C2838 C2837 1.414 . S
C2838 C2839 1.374 . S
C2839 H2819 0.950 . S
C2839 C2835 1.385 . S
C2839 C2838 1.374 . S
C2840 C2837 1.499 . S
C2840 C2841 1.373 . S
C2840 C2842 1.389 . S
C2841 H2820 0.950 . S
C2841 C2840 1.373 . S
C2841 C2857 1.377 . S
C2842 C2840 1.389 . S
C2842 C2843 1.524 . S
C2842 C2856 1.377 . S
C2843 C2842 1.524 . S
C2843 C2844 1.397 . S
C2843 C2848 1.363 . S
C2844 H2821 0.950 . S
C2844 C2843 1.397 . S
C2844 C2845 1.334 . S
C2845 H2822 0.950 . S
C2845 C2844 1.334 . S
C2845 C2846 1.287 . S
C2846 C2845 1.287 . S
C2846 C2847 1.524 . S
C2846 H2865 0.913 . S
C2847 H2823 0.950 . S
C2847 C2846 1.524 . S
C2847 C2848 1.415 . S
C2848 H2824 0.950 . S
C2848 C2843 1.363 . S
C2848 C2847 1.415 . S
C2849 H2825 0.951 . S
C2849 C2850 1.366 . S
C2849 C2851 1.388 . S
C2850 C2849 1.366 . S
C2850 C2854 1.385 . S
C2851 H2826 0.951 . S
C2851 C2849 1.388 . S
C2851 C2852 1.366 . S
C2852 C2851 1.366 . S
C2852 C2853 1.414 . S
C2852 C2855 1.499 . S
C2853 H2827 0.950 . S
C2853 C2852 1.414 . S
C2853 C2854 1.374 . S
C2854 H2828 0.950 . S
C2854 C2850 1.385 . S
C2854 C2853 1.374 . S
C2855 C2852 1.499 . S
C2855 C2856 1.373 . S
C2855 C2857 1.389 . S
C2856 H2829 0.950 . S
C2856 C2842 1.377 . S
C2856 C2855 1.373 . S
C2857 C2841 1.377 . S
C2857 C2855 1.389 . S
C2857 C2858 1.524 . S
C2858 C2857 1.524 . S
C2858 C2859 1.397 . S
C2858 C2863 1.363 . S
C2859 H2830 0.950 . S
C2859 C2858 1.397 . S
C2859 C2860 1.334 . S
C2860 H2831 0.950 . S
C2860 C2859 1.334 . S
C2860 C2861 1.287 . S
C2861 C2860 1.287 . S
C2861 C2862 1.524 . S
C2861 H2864 0.999 . S
C2862 H2832 0.950 . S
C2862 C2861 1.524 . S
C2862 C2863 1.415 . S
C2863 H2833 0.950 . S
C2863 C2858 1.363 . S
C2863 C2862 1.415 . S
H2864 C2861 0.999 . S
H2865 C2846 0.913 . S
H2866 C2884 0.946 1_565 S
H2867 C2886 0.951 . S
H2868 C2888 0.950 . S
H2869 C2889 0.950 . S
H2870 C2891 0.950 . S
H2871 C2894 0.950 . S
H2872 C2895 0.950 . S
H2873 C2897 0.950 . S
H2874 C2898 0.950 . S
H2875 C2899 0.951 . S
H2876 C2901 0.951 . S
H2877 C2903 0.950 . S
H2878 C2904 0.950 . S
H2879 C2906 0.950 . S
H2880 C2909 0.950 . S
H2881 C2910 0.950 . S
H2882 C2912 0.950 . S
H2883 C2913 0.950 . S
C2884 H2866 0.946 1_545 S
C2884 C2885 1.366 . S
C2884 C2886 1.388 . S
C2885 C2884 1.366 . S
C2885 C2889 1.385 . S
C2886 H2867 0.951 . S
C2886 C2884 1.388 . S
C2886 C2887 1.366 . S
C2887 C2886 1.366 . S
C2887 C2888 1.414 . S
C2887 C2890 1.499 . S
C2888 H2868 0.950 . S
C2888 C2887 1.414 . S
C2888 C2889 1.374 . S
C2889 H2869 0.950 . S
C2889 C2885 1.385 . S
C2889 C2888 1.374 . S
C2890 C2887 1.499 . S
C2890 C2891 1.373 . S
C2890 C2892 1.389 . S
C2891 H2870 0.950 . S
C2891 C2890 1.373 . S
C2891 C2907 1.377 . S
C2892 C2890 1.389 . S
C2892 C2893 1.524 . S
C2892 C2906 1.377 . S
C2893 C2892 1.524 . S
C2893 C2894 1.397 . S
C2893 C2898 1.363 . S
C2894 H2871 0.950 . S
C2894 C2893 1.397 . S
C2894 C2895 1.334 . S
C2895 H2872 0.950 . S
C2895 C2894 1.334 . S
C2895 C2896 1.287 . S
C2896 C2895 1.287 . S
C2896 C2897 1.524 . S
C2896 H2915 0.913 . S
C2897 H2873 0.950 . S
C2897 C2896 1.524 . S
C2897 C2898 1.415 . S
C2898 H2874 0.950 . S
C2898 C2893 1.363 . S
C2898 C2897 1.415 . S
C2899 H2875 0.951 . S
C2899 C2900 1.366 . S
C2899 C2901 1.388 . S
C2900 C2899 1.366 . S
C2900 C2904 1.385 . S
C2901 H2876 0.951 . S
C2901 C2899 1.388 . S
C2901 C2902 1.366 . S
C2902 C2901 1.366 . S
C2902 C2903 1.414 . S
C2902 C2905 1.499 . S
C2903 H2877 0.950 . S
C2903 C2902 1.414 . S
C2903 C2904 1.374 . S
C2904 H2878 0.950 . S
C2904 C2900 1.385 . S
C2904 C2903 1.374 . S
C2905 C2902 1.499 . S
C2905 C2906 1.373 . S
C2905 C2907 1.389 . S
C2906 H2879 0.950 . S
C2906 C2892 1.377 . S
C2906 C2905 1.373 . S
C2907 C2891 1.377 . S
C2907 C2905 1.389 . S
C2907 C2908 1.524 . S
C2908 C2907 1.524 . S
C2908 C2909 1.397 . S
C2908 C2913 1.363 . S
C2909 H2880 0.950 . S
C2909 C2908 1.397 . S
C2909 C2910 1.334 . S
C2910 H2881 0.950 . S
C2910 C2909 1.334 . S
C2910 C2911 1.287 . S
C2911 C2910 1.287 . S
C2911 C2912 1.524 . S
C2911 H2914 0.999 . S
C2912 H2882 0.950 . S
C2912 C2911 1.524 . S
C2912 C2913 1.415 . S
C2913 H2883 0.950 . S
C2913 C2908 1.363 . S
C2913 C2912 1.415 . S
H2914 C2911 0.999 . S
H2915 C2896 0.913 . S
H2916 C2934 0.951 . S
H2917 C2936 0.951 . S
H2918 C2938 0.950 . S
H2919 C2939 0.950 . S
H2920 C2941 0.950 . S
H2921 C2944 0.950 . S
H2922 C2945 0.950 . S
H2923 C2947 0.950 . S
H2924 C2948 0.950 . S
H2925 C2949 0.951 . S
H2926 C2951 0.951 . S
H2927 C2953 0.950 . S
H2928 C2954 0.950 . S
H2929 C2956 0.950 . S
H2930 C2959 0.950 . S
H2931 C2960 0.950 . S
H2932 C2962 0.950 . S
H2933 C2963 0.950 . S
C2934 H2916 0.951 . S
C2934 C2935 1.366 . S
C2934 C2936 1.388 . S
C2935 C2934 1.366 . S
C2935 C2939 1.385 . S
C2936 H2917 0.951 . S
C2936 C2934 1.388 . S
C2936 C2937 1.366 . S
C2937 C2936 1.366 . S
C2937 C2938 1.414 . S
C2937 C2940 1.499 . S
C2938 H2918 0.950 . S
C2938 C2937 1.414 . S
C2938 C2939 1.374 . S
C2939 H2919 0.950 . S
C2939 C2935 1.385 . S
C2939 C2938 1.374 . S
C2940 C2937 1.499 . S
C2940 C2941 1.373 . S
C2940 C2942 1.389 . S
C2941 H2920 0.950 . S
C2941 C2940 1.373 . S
C2941 C2957 1.377 . S
C2942 C2940 1.389 . S
C2942 C2943 1.524 . S
C2942 C2956 1.377 . S
C2943 C2942 1.524 . S
C2943 C2944 1.397 . S
C2943 C2948 1.363 . S
C2944 H2921 0.950 . S
C2944 C2943 1.397 . S
C2944 C2945 1.334 . S
C2945 H2922 0.950 . S
C2945 C2944 1.334 . S
C2945 C2946 1.287 . S
C2946 C2945 1.287 . S
C2946 C2947 1.524 . S
C2946 H2965 0.913 . S
C2947 H2923 0.950 . S
C2947 C2946 1.524 . S
C2947 C2948 1.415 . S
C2948 H2924 0.950 . S
C2948 C2943 1.363 . S
C2948 C2947 1.415 . S
C2949 H2925 0.951 . S
C2949 C2950 1.366 . S
C2949 C2951 1.388 . S
C2950 C2949 1.366 . S
C2950 C2954 1.385 . S
C2951 H2926 0.951 . S
C2951 C2949 1.388 . S
C2951 C2952 1.366 . S
C2952 C2951 1.366 . S
C2952 C2953 1.414 . S
C2952 C2955 1.499 . S
C2953 H2927 0.950 . S
C2953 C2952 1.414 . S
C2953 C2954 1.374 . S
C2954 H2928 0.950 . S
C2954 C2950 1.385 . S
C2954 C2953 1.374 . S
C2955 C2952 1.499 . S
C2955 C2956 1.373 . S
C2955 C2957 1.389 . S
C2956 H2929 0.950 . S
C2956 C2942 1.377 . S
C2956 C2955 1.373 . S
C2957 C2941 1.377 . S
C2957 C2955 1.389 . S
C2957 C2958 1.524 . S
C2958 C2957 1.524 . S
C2958 C2959 1.397 . S
C2958 C2963 1.363 . S
C2959 H2930 0.950 . S
C2959 C2958 1.397 . S
C2959 C2960 1.334 . S
C2960 H2931 0.950 . S
C2960 C2959 1.334 . S
C2960 C2961 1.287 . S
C2961 C2960 1.287 . S
C2961 C2962 1.524 . S
C2961 H2964 0.999 . S
C2962 H2932 0.950 . S
C2962 C2961 1.524 . S
C2962 C2963 1.415 . S
C2963 H2933 0.950 . S
C2963 C2958 1.363 . S
C2963 C2962 1.415 . S
H2964 C2961 0.999 . S
H2965 C2946 0.913 . S
H2966 C2984 0.951 . S
H2967 C2986 0.951 . S
H2968 C2988 0.950 . S
H2969 C2989 0.950 . S
H2970 C2991 0.950 . S
H2971 C2994 0.950 . S
H2972 C2995 0.950 . S
H2973 C2997 0.950 . S
H2974 C2998 0.950 . S
H2975 C2999 0.951 . S
H2976 C3001 0.951 . S
H2977 C3003 0.950 . S
H2978 C3004 0.950 . S
H2979 C3006 0.950 . S
H2980 C3009 0.950 1_455 S
H2981 C3010 0.950 . S
H2982 C3012 0.950 . S
H2983 C3013 0.972 . S
C2984 H2966 0.951 . S
C2984 C2985 1.366 . S
C2984 C2986 1.388 . S
C2985 C2984 1.366 . S
C2985 C2989 1.385 . S
C2986 H2967 0.951 . S
C2986 C2984 1.388 . S
C2986 C2987 1.366 . S
C2987 C2986 1.366 . S
C2987 C2988 1.414 . S
C2987 C2990 1.499 . S
C2988 H2968 0.950 . S
C2988 C2987 1.414 . S
C2988 C2989 1.374 . S
C2989 H2969 0.950 . S
C2989 C2985 1.385 . S
C2989 C2988 1.374 . S
C2990 C2987 1.499 . S
C2990 C2991 1.373 . S
C2990 C2992 1.389 . S
C2991 H2970 0.950 . S
C2991 C2990 1.373 . S
C2991 C3007 1.377 . S
C2992 C2990 1.389 . S
C2992 C2993 1.524 . S
C2992 C3006 1.377 . S
C2993 C2992 1.524 . S
C2993 C2994 1.397 . S
C2993 C2998 1.363 . S
C2994 H2971 0.950 . S
C2994 C2993 1.397 . S
C2994 C2995 1.334 . S
C2995 H2972 0.950 . S
C2995 C2994 1.334 . S
C2995 C2996 1.287 . S
C2996 C2995 1.287 . S
C2996 C2997 1.524 . S
C2996 H3015 0.913 . S
C2997 H2973 0.950 . S
C2997 C2996 1.524 . S
C2997 C2998 1.415 . S
C2998 H2974 0.950 . S
C2998 C2993 1.363 . S
C2998 C2997 1.415 . S
C2999 H2975 0.951 . S
C2999 C3000 1.366 . S
C2999 C3001 1.388 . S
C3000 C2999 1.366 . S
C3000 C3004 1.385 . S
C3001 H2976 0.951 . S
C3001 C2999 1.388 . S
C3001 C3002 1.366 . S
C3002 C3001 1.366 . S
C3002 C3003 1.414 . S
C3002 C3005 1.499 . S
C3003 H2977 0.950 . S
C3003 C3002 1.414 . S
C3003 C3004 1.374 . S
C3004 H2978 0.950 . S
C3004 C3000 1.385 . S
C3004 C3003 1.374 . S
C3005 C3002 1.499 . S
C3005 C3006 1.373 . S
C3005 C3007 1.389 . S
C3006 H2979 0.950 . S
C3006 C2992 1.377 . S
C3006 C3005 1.373 . S
C3007 C2991 1.377 . S
C3007 C3005 1.389 . S
C3007 C3008 1.524 . S
C3008 C3007 1.524 . S
C3008 C3009 1.397 1_455 S
C3008 C3013 1.363 1_455 S
C3009 H2980 0.950 1_655 S
C3009 C3008 1.397 1_655 S
C3009 C3010 1.334 . S
C3010 H2981 0.950 . S
C3010 C3009 1.334 . S
C3010 C3011 1.287 . S
C3011 C3010 1.287 . S
C3011 C3012 1.524 . S
C3011 H3014 0.999 . S
C3012 H2982 0.950 . S
C3012 C3011 1.524 . S
C3012 C3013 1.415 . S
C3013 H2983 0.972 . S
C3013 C3008 1.363 1_655 S
C3013 C3012 1.415 . S
H3014 C3011 0.999 . S
H3015 C2996 0.913 . S
H3016 C3034 0.951 . S
H3017 C3036 0.951 . S
H3018 C3038 0.950 . S
H3019 C3039 0.950 . S
H3020 C3041 0.950 . S
H3021 C3044 0.950 . S
H3022 C3045 0.950 . S
H3023 C3047 0.950 . S
H3024 C3048 0.950 . S
H3025 C3049 0.951 . S
H3026 C3051 0.951 . S
H3027 C3053 0.950 . S
H3028 C3054 0.950 . S
H3029 C3056 0.950 . S
H3030 C3059 0.950 . S
H3031 C3060 0.950 . S
H3032 C3062 0.950 . S
H3033 C3063 0.950 . S
C3034 H3016 0.951 . S
C3034 C3035 1.366 . S
C3034 C3036 1.388 . S
C3035 C3034 1.366 . S
C3035 C3039 1.385 . S
C3036 H3017 0.951 . S
C3036 C3034 1.388 . S
C3036 C3037 1.366 . S
C3037 C3036 1.366 . S
C3037 C3038 1.414 . S
C3037 C3040 1.499 . S
C3038 H3018 0.950 . S
C3038 C3037 1.414 . S
C3038 C3039 1.374 . S
C3039 H3019 0.950 . S
C3039 C3035 1.385 . S
C3039 C3038 1.374 . S
C3040 C3037 1.499 . S
C3040 C3041 1.373 . S
C3040 C3042 1.389 . S
C3041 H3020 0.950 . S
C3041 C3040 1.373 . S
C3041 C3057 1.377 . S
C3042 C3040 1.389 . S
C3042 C3043 1.524 . S
C3042 C3056 1.377 . S
C3043 C3042 1.524 . S
C3043 C3044 1.397 . S
C3043 C3048 1.363 . S
C3044 H3021 0.950 . S
C3044 C3043 1.397 . S
C3044 C3045 1.334 . S
C3045 H3022 0.950 . S
C3045 C3044 1.334 . S
C3045 C3046 1.287 . S
C3046 C3045 1.287 . S
C3046 C3047 1.524 . S
C3046 H3065 0.913 . S
C3047 H3023 0.950 . S
C3047 C3046 1.524 . S
C3047 C3048 1.415 . S
C3048 H3024 0.950 . S
C3048 C3043 1.363 . S
C3048 C3047 1.415 . S
C3049 H3025 0.951 . S
C3049 C3050 1.366 . S
C3049 C3051 1.388 . S
C3050 C3049 1.366 . S
C3050 C3054 1.385 . S
C3051 H3026 0.951 . S
C3051 C3049 1.388 . S
C3051 C3052 1.366 . S
C3052 C3051 1.366 . S
C3052 C3053 1.414 . S
C3052 C3055 1.499 . S
C3053 H3027 0.950 . S
C3053 C3052 1.414 . S
C3053 C3054 1.374 . S
C3054 H3028 0.950 . S
C3054 C3050 1.385 . S
C3054 C3053 1.374 . S
C3055 C3052 1.499 . S
C3055 C3056 1.373 . S
C3055 C3057 1.389 . S
C3056 H3029 0.950 . S
C3056 C3042 1.377 . S
C3056 C3055 1.373 . S
C3057 C3041 1.377 . S
C3057 C3055 1.389 . S
C3057 C3058 1.524 . S
C3058 C3057 1.524 . S
C3058 C3059 1.397 . S
C3058 C3063 1.363 . S
C3059 H3030 0.950 . S
C3059 C3058 1.397 . S
C3059 C3060 1.334 . S
C3060 H3031 0.950 . S
C3060 C3059 1.334 . S
C3060 C3061 1.287 . S
C3061 C3060 1.287 . S
C3061 C3062 1.524 . S
C3061 H3064 0.999 . S
C3062 H3032 0.950 . S
C3062 C3061 1.524 . S
C3062 C3063 1.415 . S
C3063 H3033 0.950 . S
C3063 C3058 1.363 . S
C3063 C3062 1.415 . S
H3064 C3061 0.999 . S
H3065 C3046 0.913 . S
H3066 C3084 0.951 . S
H3067 C3086 0.951 . S
H3068 C3088 0.950 . S
H3069 C3089 0.950 . S
H3070 C3091 0.950 . S
H3071 C3094 0.950 . S
H3072 C3095 0.950 . S
H3073 C3097 0.950 . S
H3074 C3098 0.950 . S
H3075 C3099 0.951 . S
H3076 C3101 0.951 . S
H3077 C3103 0.950 . S
H3078 C3104 0.950 . S
H3079 C3106 0.950 . S
H3080 C3109 0.950 . S
H3081 C3110 0.950 . S
H3082 C3112 0.950 . S
H3083 C3113 0.950 . S
C3084 H3066 0.951 . S
C3084 C3085 1.366 . S
C3084 C3086 1.388 . S
C3085 C3084 1.366 . S
C3085 C3089 1.385 . S
C3086 H3067 0.951 . S
C3086 C3084 1.388 . S
C3086 C3087 1.366 . S
C3087 C3086 1.366 . S
C3087 C3088 1.414 . S
C3087 C3090 1.499 . S
C3088 H3068 0.950 . S
C3088 C3087 1.414 . S
C3088 C3089 1.374 . S
C3089 H3069 0.950 . S
C3089 C3085 1.385 . S
C3089 C3088 1.374 . S
C3090 C3087 1.499 . S
C3090 C3091 1.373 . S
C3090 C3092 1.389 . S
C3091 H3070 0.950 . S
C3091 C3090 1.373 . S
C3091 C3107 1.377 . S
C3092 C3090 1.389 . S
C3092 C3093 1.524 . S
C3092 C3106 1.377 . S
C3093 C3092 1.524 . S
C3093 C3094 1.397 . S
C3093 C3098 1.363 . S
C3094 H3071 0.950 . S
C3094 C3093 1.397 . S
C3094 C3095 1.334 . S
C3095 H3072 0.950 . S
C3095 C3094 1.334 . S
C3095 C3096 1.287 . S
C3096 C3095 1.287 . S
C3096 C3097 1.524 . S
C3096 H3115 0.913 . S
C3097 H3073 0.950 . S
C3097 C3096 1.524 . S
C3097 C3098 1.415 . S
C3098 H3074 0.950 . S
C3098 C3093 1.363 . S
C3098 C3097 1.415 . S
C3099 H3075 0.951 . S
C3099 C3100 1.366 . S
C3099 C3101 1.388 . S
C3100 C3099 1.366 . S
C3100 C3104 1.385 . S
C3101 H3076 0.951 . S
C3101 C3099 1.388 . S
C3101 C3102 1.366 . S
C3102 C3101 1.366 . S
C3102 C3103 1.414 . S
C3102 C3105 1.499 . S
C3103 H3077 0.950 . S
C3103 C3102 1.414 . S
C3103 C3104 1.374 . S
C3104 H3078 0.950 . S
C3104 C3100 1.385 . S
C3104 C3103 1.374 . S
C3105 C3102 1.499 . S
C3105 C3106 1.373 . S
C3105 C3107 1.389 . S
C3106 H3079 0.950 . S
C3106 C3092 1.377 . S
C3106 C3105 1.373 . S
C3107 C3091 1.377 . S
C3107 C3105 1.389 . S
C3107 C3108 1.524 . S
C3108 C3107 1.524 . S
C3108 C3109 1.397 . S
C3108 C3113 1.363 . S
C3109 H3080 0.950 . S
C3109 C3108 1.397 . S
C3109 C3110 1.334 . S
C3110 H3081 0.950 . S
C3110 C3109 1.334 . S
C3110 C3111 1.287 . S
C3111 C3110 1.287 . S
C3111 C3112 1.524 . S
C3111 H3114 0.999 . S
C3112 H3082 0.950 . S
C3112 C3111 1.524 . S
C3112 C3113 1.415 . S
C3113 H3083 0.950 . S
C3113 C3108 1.363 . S
C3113 C3112 1.415 . S
H3114 C3111 0.999 . S
H3115 C3096 0.913 . S
H3116 C3134 0.951 . S
H3117 C3136 0.951 . S
H3118 C3138 0.950 . S
H3119 C3139 0.950 . S
H3120 C3141 0.950 . S
H3121 C3144 0.950 . S
H3122 C3145 0.950 . S
H3123 C3147 0.950 . S
H3124 C3148 0.950 . S
H3125 C3149 0.951 . S
H3126 C3151 0.951 . S
H3127 C3153 0.950 . S
H3128 C3154 0.950 . S
H3129 C3156 0.950 . S
H3130 C3159 0.950 . S
H3131 C3160 0.950 . S
H3132 C3162 0.950 . S
H3133 C3163 0.950 . S
C3134 H3116 0.951 . S
C3134 C3135 1.366 . S
C3134 C3136 1.388 . S
C3135 C3134 1.366 . S
C3135 C3139 1.385 . S
C3136 H3117 0.951 . S
C3136 C3134 1.388 . S
C3136 C3137 1.366 . S
C3137 C3136 1.366 . S
C3137 C3138 1.414 . S
C3137 C3140 1.499 . S
C3138 H3118 0.950 . S
C3138 C3137 1.414 . S
C3138 C3139 1.374 . S
C3139 H3119 0.950 . S
C3139 C3135 1.385 . S
C3139 C3138 1.374 . S
C3140 C3137 1.499 . S
C3140 C3141 1.373 . S
C3140 C3142 1.389 . S
C3141 H3120 0.950 . S
C3141 C3140 1.373 . S
C3141 C3157 1.377 . S
C3142 C3140 1.389 . S
C3142 C3143 1.524 . S
C3142 C3156 1.377 . S
C3143 C3142 1.524 . S
C3143 C3144 1.397 . S
C3143 C3148 1.363 . S
C3144 H3121 0.950 . S
C3144 C3143 1.397 . S
C3144 C3145 1.334 . S
C3145 H3122 0.950 . S
C3145 C3144 1.334 . S
C3145 C3146 1.287 . S
C3146 C3145 1.287 . S
C3146 C3147 1.524 . S
C3146 H3165 0.913 . S
C3147 H3123 0.950 . S
C3147 C3146 1.524 . S
C3147 C3148 1.415 . S
C3148 H3124 0.950 . S
C3148 C3143 1.363 . S
C3148 C3147 1.415 . S
C3149 H3125 0.951 . S
C3149 C3150 1.366 . S
C3149 C3151 1.388 . S
C3150 C3149 1.366 . S
C3150 C3154 1.385 . S
C3151 H3126 0.951 . S
C3151 C3149 1.388 . S
C3151 C3152 1.366 . S
C3152 C3151 1.366 . S
C3152 C3153 1.414 . S
C3152 C3155 1.499 . S
C3153 H3127 0.950 . S
C3153 C3152 1.414 . S
C3153 C3154 1.374 . S
C3154 H3128 0.950 . S
C3154 C3150 1.385 . S
C3154 C3153 1.374 . S
C3155 C3152 1.499 . S
C3155 C3156 1.373 . S
C3155 C3157 1.389 . S
C3156 H3129 0.950 . S
C3156 C3142 1.377 . S
C3156 C3155 1.373 . S
C3157 C3141 1.377 . S
C3157 C3155 1.389 . S
C3157 C3158 1.524 . S
C3158 C3157 1.524 . S
C3158 C3159 1.397 . S
C3158 C3163 1.363 . S
C3159 H3130 0.950 . S
C3159 C3158 1.397 . S
C3159 C3160 1.334 . S
C3160 H3131 0.950 . S
C3160 C3159 1.334 . S
C3160 C3161 1.287 . S
C3161 C3160 1.287 . S
C3161 C3162 1.524 . S
C3161 H3164 0.999 . S
C3162 H3132 0.950 . S
C3162 C3161 1.524 . S
C3162 C3163 1.415 . S
C3163 H3133 0.950 . S
C3163 C3158 1.363 . S
C3163 C3162 1.415 . S
H3164 C3161 0.999 . S
H3165 C3146 0.913 . S
H3166 C3184 0.951 . S
H3167 C3186 0.951 . S
H3168 C3188 0.950 . S
H3169 C3189 0.950 . S
H3170 C3191 0.950 . S
H3171 C3194 0.950 . S
H3172 C3195 0.950 . S
H3173 C3197 0.950 . S
H3174 C3198 0.950 . S
H3175 C3199 0.951 . S
H3176 C3201 0.951 . S
H3177 C3203 0.950 . S
H3178 C3204 0.950 . S
H3179 C3206 0.950 . S
H3180 C3209 0.950 . S
H3181 C3210 0.950 . S
H3182 C3212 0.950 . S
H3183 C3213 0.950 . S
C3184 H3166 0.951 . S
C3184 C3185 1.366 . S
C3184 C3186 1.388 . S
C3185 C3184 1.366 . S
C3185 C3189 1.385 . S
C3186 H3167 0.951 . S
C3186 C3184 1.388 . S
C3186 C3187 1.366 . S
C3187 C3186 1.366 . S
C3187 C3188 1.414 . S
C3187 C3190 1.499 . S
C3188 H3168 0.950 . S
C3188 C3187 1.414 . S
C3188 C3189 1.374 . S
C3189 H3169 0.950 . S
C3189 C3185 1.385 . S
C3189 C3188 1.374 . S
C3190 C3187 1.499 . S
C3190 C3191 1.373 . S
C3190 C3192 1.389 . S
C3191 H3170 0.950 . S
C3191 C3190 1.373 . S
C3191 C3207 1.377 . S
C3192 C3190 1.389 . S
C3192 C3193 1.524 . S
C3192 C3206 1.377 . S
C3193 C3192 1.524 . S
C3193 C3194 1.397 . S
C3193 C3198 1.363 . S
C3194 H3171 0.950 . S
C3194 C3193 1.397 . S
C3194 C3195 1.334 . S
C3195 H3172 0.950 . S
C3195 C3194 1.334 . S
C3195 C3196 1.287 . S
C3196 C3195 1.287 . S
C3196 C3197 1.524 . S
C3196 H3215 0.913 . S
C3197 H3173 0.950 . S
C3197 C3196 1.524 . S
C3197 C3198 1.415 . S
C3198 H3174 0.950 . S
C3198 C3193 1.363 . S
C3198 C3197 1.415 . S
C3199 H3175 0.951 . S
C3199 C3200 1.366 . S
C3199 C3201 1.388 . S
C3200 C3199 1.366 . S
C3200 C3204 1.385 . S
C3201 H3176 0.951 . S
C3201 C3199 1.388 . S
C3201 C3202 1.366 . S
C3202 C3201 1.366 . S
C3202 C3203 1.414 . S
C3202 C3205 1.499 . S
C3203 H3177 0.950 . S
C3203 C3202 1.414 . S
C3203 C3204 1.374 . S
C3204 H3178 0.950 . S
C3204 C3200 1.385 . S
C3204 C3203 1.374 . S
C3205 C3202 1.499 . S
C3205 C3206 1.373 . S
C3205 C3207 1.389 . S
C3206 H3179 0.950 . S
C3206 C3192 1.377 . S
C3206 C3205 1.373 . S
C3207 C3191 1.377 . S
C3207 C3205 1.389 . S
C3207 C3208 1.524 . S
C3208 C3207 1.524 . S
C3208 C3209 1.397 . S
C3208 C3213 1.363 . S
C3209 H3180 0.950 . S
C3209 C3208 1.397 . S
C3209 C3210 1.334 . S
C3210 H3181 0.950 . S
C3210 C3209 1.334 . S
C3210 C3211 1.287 . S
C3211 C3210 1.287 . S
C3211 C3212 1.524 . S
C3211 H3214 0.999 . S
C3212 H3182 0.950 . S
C3212 C3211 1.524 . S
C3212 C3213 1.415 . S
C3213 H3183 0.950 . S
C3213 C3208 1.363 . S
C3213 C3212 1.415 . S
H3214 C3211 0.999 . S
H3215 C3196 0.913 . S
H3216 C3234 0.951 . S
H3217 C3236 0.951 . S
H3218 C3238 0.950 . S
H3219 C3239 0.950 . S
H3220 C3241 0.950 . S
H3221 C3244 0.950 . S
H3222 C3245 0.950 . S
H3223 C3247 0.950 . S
H3224 C3248 0.950 . S
H3225 C3249 0.951 . S
H3226 C3251 0.951 . S
H3227 C3253 0.950 . S
H3228 C3254 0.950 . S
H3229 C3256 0.950 . S
H3230 C3259 0.950 . S
H3231 C3260 0.950 . S
H3232 C3262 0.950 . S
H3233 C3263 0.950 . S
C3234 H3216 0.951 . S
C3234 C3235 1.366 . S
C3234 C3236 1.388 . S
C3235 C3234 1.366 . S
C3235 C3239 1.385 . S
C3236 H3217 0.951 . S
C3236 C3234 1.388 . S
C3236 C3237 1.366 . S
C3237 C3236 1.366 . S
C3237 C3238 1.414 . S
C3237 C3240 1.499 . S
C3238 H3218 0.950 . S
C3238 C3237 1.414 . S
C3238 C3239 1.374 . S
C3239 H3219 0.950 . S
C3239 C3235 1.385 . S
C3239 C3238 1.374 . S
C3240 C3237 1.499 . S
C3240 C3241 1.373 . S
C3240 C3242 1.389 . S
C3241 H3220 0.950 . S
C3241 C3240 1.373 . S
C3241 C3257 1.376 . S
C3242 C3240 1.389 . S
C3242 C3243 1.524 . S
C3242 C3256 1.377 . S
C3243 C3242 1.524 . S
C3243 C3244 1.397 . S
C3243 C3248 1.363 . S
C3244 H3221 0.950 . S
C3244 C3243 1.397 . S
C3244 C3245 1.334 . S
C3245 H3222 0.950 . S
C3245 C3244 1.334 . S
C3245 C3246 1.287 . S
C3246 C3245 1.287 . S
C3246 C3247 1.524 . S
C3246 H3265 0.913 . S
C3247 H3223 0.950 . S
C3247 C3246 1.524 . S
C3247 C3248 1.415 . S
C3248 H3224 0.950 . S
C3248 C3243 1.363 . S
C3248 C3247 1.415 . S
C3249 H3225 0.951 . S
C3249 C3250 1.366 . S
C3249 C3251 1.388 . S
C3250 C3249 1.366 . S
C3250 C3254 1.385 . S
C3251 H3226 0.951 . S
C3251 C3249 1.388 . S
C3251 C3252 1.366 . S
C3252 C3251 1.366 . S
C3252 C3253 1.414 . S
C3252 C3255 1.481 1_554 S
C3253 H3227 0.950 . S
C3253 C3252 1.414 . S
C3253 C3254 1.374 . S
C3254 H3228 0.950 . S
C3254 C3250 1.385 . S
C3254 C3253 1.374 . S
C3255 C3252 1.481 1_556 S
C3255 C3256 1.391 . S
C3255 C3257 1.390 . S
C3256 H3229 0.950 . S
C3256 C3242 1.377 . S
C3256 C3255 1.391 . S
C3257 C3241 1.376 . S
C3257 C3255 1.390 . S
C3257 C3258 1.525 1_556 S
C3258 C3257 1.525 1_554 S
C3258 C3259 1.397 . S
C3258 C3263 1.363 . S
C3259 H3230 0.950 . S
C3259 C3258 1.397 . S
C3259 C3260 1.334 . S
C3260 H3231 0.950 . S
C3260 C3259 1.334 . S
C3260 C3261 1.287 . S
C3261 C3260 1.287 . S
C3261 C3262 1.524 . S
C3261 H3264 0.999 . S
C3262 H3232 0.950 . S
C3262 C3261 1.524 . S
C3262 C3263 1.415 . S
C3263 H3233 0.950 . S
C3263 C3258 1.363 . S
C3263 C3262 1.415 . S
H3264 C3261 0.999 . S
H3265 C3246 0.913 . S
H3266 C3284 0.951 . S
H3267 C3286 0.951 . S
H3268 C3288 0.950 . S
H3269 C3289 0.950 . S
H3270 C3291 0.950 . S
H3271 C3294 0.950 . S
H3272 C3295 0.950 . S
H3273 C3297 0.950 . S
H3274 C3298 0.950 . S
H3275 C3299 0.951 . S
H3276 C3301 0.951 . S
H3277 C3303 0.950 . S
H3278 C3304 0.950 . S
H3279 C3306 0.950 . S
H3280 C3309 0.950 . S
H3281 C3310 0.950 . S
H3282 C3312 0.950 . S
H3283 C3313 0.950 1_556 S
C3284 H3266 0.951 . S
C3284 C3285 1.366 . S
C3284 C3286 1.388 . S
C3285 C3284 1.366 . S
C3285 C3289 1.385 . S
C3286 H3267 0.951 . S
C3286 C3284 1.388 . S
C3286 C3287 1.366 . S
C3287 C3286 1.366 . S
C3287 C3288 1.414 . S
C3287 C3290 1.499 . S
C3288 H3268 0.950 . S
C3288 C3287 1.414 . S
C3288 C3289 1.374 . S
C3289 H3269 0.950 . S
C3289 C3285 1.385 . S
C3289 C3288 1.374 . S
C3290 C3287 1.499 . S
C3290 C3291 1.373 . S
C3290 C3292 1.389 . S
C3291 H3270 0.950 . S
C3291 C3290 1.373 . S
C3291 C3307 1.377 . S
C3292 C3290 1.389 . S
C3292 C3293 1.524 . S
C3292 C3306 1.377 . S
C3293 C3292 1.524 . S
C3293 C3294 1.397 . S
C3293 C3298 1.363 . S
C3294 H3271 0.950 . S
C3294 C3293 1.397 . S
C3294 C3295 1.334 . S
C3295 H3272 0.950 . S
C3295 C3294 1.334 . S
C3295 C3296 1.287 . S
C3296 C3295 1.287 . S
C3296 C3297 1.524 . S
C3296 H3315 0.913 . S
C3297 H3273 0.950 . S
C3297 C3296 1.524 . S
C3297 C3298 1.415 . S
C3298 H3274 0.950 . S
C3298 C3293 1.363 . S
C3298 C3297 1.415 . S
C3299 H3275 0.951 . S
C3299 C3300 1.366 . S
C3299 C3301 1.388 . S
C3300 C3299 1.366 . S
C3300 C3304 1.385 . S
C3301 H3276 0.951 . S
C3301 C3299 1.388 . S
C3301 C3302 1.366 . S
C3302 C3301 1.366 . S
C3302 C3303 1.414 . S
C3302 C3305 1.499 1_554 S
C3303 H3277 0.950 . S
C3303 C3302 1.414 . S
C3303 C3304 1.374 . S
C3304 H3278 0.950 . S
C3304 C3300 1.385 . S
C3304 C3303 1.374 . S
C3305 C3302 1.499 1_556 S
C3305 C3306 1.373 . S
C3305 C3307 1.389 . S
C3306 H3279 0.950 . S
C3306 C3292 1.377 . S
C3306 C3305 1.373 . S
C3307 C3291 1.377 . S
C3307 C3305 1.389 . S
C3307 C3308 1.524 1_556 S
C3308 C3307 1.524 1_554 S
C3308 C3309 1.397 . S
C3308 C3313 1.363 . S
C3309 H3280 0.950 . S
C3309 C3308 1.397 . S
C3309 C3310 1.334 . S
C3310 H3281 0.950 . S
C3310 C3309 1.334 . S
C3310 C3311 1.287 . S
C3311 C3310 1.287 . S
C3311 C3312 1.524 . S
C3311 H3314 0.999 . S
C3312 H3282 0.950 . S
C3312 C3311 1.524 . S
C3312 C3313 1.415 . S
C3313 H3283 0.950 1_554 S
C3313 C3308 1.363 . S
C3313 C3312 1.415 . S
H3314 C3311 0.999 . S
H3315 C3296 0.913 . S
H3316 C3334 0.951 . S
H3317 C3336 0.951 . S
H3318 C3338 0.950 . S
H3319 C3339 0.950 . S
H3320 C3341 0.950 . S
H3321 C3344 0.950 . S
H3322 C3345 0.950 . S
H3323 C3347 0.950 . S
H3324 C3348 0.950 . S
H3325 C3349 0.951 . S
H3326 C3351 0.951 . S
H3327 C3353 0.950 . S
H3328 C3354 0.950 . S
H3329 C3356 0.931 1_554 S
H3330 C3359 0.950 . S
H3331 C3360 0.950 . S
H3332 C3362 0.950 . S
H3333 C3363 0.950 . S
C3334 H3316 0.951 . S
C3334 C3335 1.366 . S
C3334 C3336 1.388 . S
C3335 C3334 1.366 . S
C3335 C3339 1.385 . S
C3336 H3317 0.951 . S
C3336 C3334 1.388 . S
C3336 C3337 1.366 . S
C3337 C3336 1.366 . S
C3337 C3338 1.414 . S
C3337 C3340 1.499 . S
C3338 H3318 0.950 . S
C3338 C3337 1.414 . S
C3338 C3339 1.374 . S
C3339 H3319 0.950 . S
C3339 C3335 1.385 . S
C3339 C3338 1.374 . S
C3340 C3337 1.499 . S
C3340 C3341 1.373 . S
C3340 C3342 1.389 . S
C3341 H3320 0.950 . S
C3341 C3340 1.373 . S
C3341 C3357 1.377 . S
C3342 C3340 1.389 . S
C3342 C3343 1.524 . S
C3342 C3356 1.401 . S
C3343 C3342 1.524 . S
C3343 C3344 1.397 . S
C3343 C3348 1.363 . S
C3344 H3321 0.950 . S
C3344 C3343 1.397 . S
C3344 C3345 1.334 . S
C3345 H3322 0.950 . S
C3345 C3344 1.334 . S
C3345 C3346 1.287 . S
C3346 C3345 1.287 . S
C3346 C3347 1.524 . S
C3346 H3365 0.913 . S
C3347 H3323 0.950 . S
C3347 C3346 1.524 . S
C3347 C3348 1.415 . S
C3348 H3324 0.950 . S
C3348 C3343 1.363 . S
C3348 C3347 1.415 . S
C3349 H3325 0.951 . S
C3349 C3350 1.366 . S
C3349 C3351 1.388 . S
C3350 C3349 1.366 . S
C3350 C3354 1.385 . S
C3351 H3326 0.951 . S
C3351 C3349 1.388 . S
C3351 C3352 1.366 . S
C3352 C3351 1.366 . S
C3352 C3353 1.414 . S
C3352 C3355 1.499 . S
C3353 H3327 0.950 . S
C3353 C3352 1.414 . S
C3353 C3354 1.374 . S
C3354 H3328 0.950 . S
C3354 C3350 1.385 . S
C3354 C3353 1.374 . S
C3355 C3352 1.499 . S
C3355 C3356 1.369 1_554 S
C3355 C3357 1.389 1_554 S
C3356 H3329 0.931 1_556 S
C3356 C3342 1.401 . S
C3356 C3355 1.369 1_556 S
C3357 C3341 1.377 . S
C3357 C3355 1.389 1_556 S
C3357 C3358 1.524 . S
C3358 C3357 1.524 . S
C3358 C3359 1.397 . S
C3358 C3363 1.363 . S
C3359 H3330 0.950 . S
C3359 C3358 1.397 . S
C3359 C3360 1.334 1_565 S
C3360 H3331 0.950 . S
C3360 C3359 1.334 1_545 S
C3360 C3361 1.287 . S
C3361 C3360 1.287 . S
C3361 C3362 1.524 . S
C3361 H3364 0.999 . S
C3362 H3332 0.950 . S
C3362 C3361 1.524 . S
C3362 C3363 1.415 1_545 S
C3363 H3333 0.950 . S
C3363 C3358 1.363 . S
C3363 C3362 1.415 1_565 S
H3364 C3361 0.999 . S
H3365 C3346 0.913 . S
H3366 C3384 0.951 . S
H3367 C3386 0.951 . S
H3368 C3388 0.950 . S
H3369 C3389 0.950 . S
H3370 C3391 0.950 . S
H3371 C3394 0.950 . S
H3372 C3395 0.950 . S
H3373 C3397 0.950 . S
H3374 C3398 0.950 . S
H3375 C3399 0.951 . S
H3376 C3401 0.951 . S
H3377 C3403 0.950 . S
H3378 C3404 0.950 . S
H3379 C3406 0.950 . S
H3380 C3409 0.950 . S
H3381 C3410 0.950 . S
H3382 C3412 0.950 . S
H3383 C3413 0.950 . S
C3384 H3366 0.951 . S
C3384 C3385 1.366 . S
C3384 C3386 1.388 . S
C3385 C3384 1.366 . S
C3385 C3389 1.385 . S
C3386 H3367 0.951 . S
C3386 C3384 1.388 . S
C3386 C3387 1.366 . S
C3387 C3386 1.366 . S
C3387 C3388 1.414 . S
C3387 C3390 1.499 . S
C3388 H3368 0.950 . S
C3388 C3387 1.414 . S
C3388 C3389 1.374 . S
C3389 H3369 0.950 . S
C3389 C3385 1.385 . S
C3389 C3388 1.374 . S
C3390 C3387 1.499 . S
C3390 C3391 1.373 . S
C3390 C3392 1.389 . S
C3391 H3370 0.950 . S
C3391 C3390 1.373 . S
C3391 C3407 1.377 . S
C3392 C3390 1.389 . S
C3392 C3393 1.524 . S
C3392 C3406 1.377 . S
C3393 C3392 1.524 . S
C3393 C3394 1.397 . S
C3393 C3398 1.363 . S
C3394 H3371 0.950 . S
C3394 C3393 1.397 . S
C3394 C3395 1.334 . S
C3395 H3372 0.950 . S
C3395 C3394 1.334 . S
C3395 C3396 1.287 . S
C3396 C3395 1.287 . S
C3396 C3397 1.524 . S
C3396 H3415 0.913 . S
C3397 H3373 0.950 . S
C3397 C3396 1.524 . S
C3397 C3398 1.415 . S
C3398 H3374 0.950 . S
C3398 C3393 1.363 . S
C3398 C3397 1.415 . S
C3399 H3375 0.951 . S
C3399 C3400 1.366 . S
C3399 C3401 1.388 . S
C3400 C3399 1.366 . S
C3400 C3404 1.385 . S
C3401 H3376 0.951 . S
C3401 C3399 1.388 . S
C3401 C3402 1.366 . S
C3402 C3401 1.366 . S
C3402 C3403 1.414 . S
C3402 C3405 1.499 . S
C3403 H3377 0.950 . S
C3403 C3402 1.414 . S
C3403 C3404 1.374 . S
C3404 H3378 0.950 . S
C3404 C3400 1.385 . S
C3404 C3403 1.374 . S
C3405 C3402 1.499 . S
C3405 C3406 1.373 . S
C3405 C3407 1.389 . S
C3406 H3379 0.950 . S
C3406 C3392 1.377 . S
C3406 C3405 1.373 . S
C3407 C3391 1.377 . S
C3407 C3405 1.389 . S
C3407 C3408 1.524 . S
C3408 C3407 1.524 . S
C3408 C3409 1.397 . S
C3408 C3413 1.363 . S
C3409 H3380 0.950 . S
C3409 C3408 1.397 . S
C3409 C3410 1.334 1_565 S
C3410 H3381 0.950 . S
C3410 C3409 1.334 1_545 S
C3410 C3411 1.287 . S
C3411 C3410 1.287 . S
C3411 C3412 1.524 . S
C3411 H3414 0.999 . S
C3412 H3382 0.950 . S
C3412 C3411 1.524 . S
C3412 C3413 1.415 1_545 S
C3413 H3383 0.950 . S
C3413 C3408 1.363 . S
C3413 C3412 1.415 1_565 S
H3414 C3411 0.999 . S
H3415 C3396 0.913 . S
H3416 C3434 0.951 . S
H3417 C3436 0.951 . S
H3418 C3438 0.950 . S
H3419 C3439 0.950 . S
H3420 C3441 0.950 . S
H3421 C3444 0.950 . S
H3422 C3445 0.950 . S
H3423 C3447 0.950 . S
H3424 C3448 0.950 . S
H3425 C3449 0.951 . S
H3426 C3451 0.951 . S
H3427 C3453 0.950 . S
H3428 C3454 0.950 . S
H3429 C3456 0.950 . S
H3430 C3459 0.950 . S
H3431 C3460 0.950 . S
H3432 C3462 0.950 . S
H3433 C3463 0.950 . S
C3434 H3416 0.951 . S
C3434 C3435 1.366 . S
C3434 C3436 1.388 . S
C3435 C3434 1.366 . S
C3435 C3439 1.385 . S
C3436 H3417 0.951 . S
C3436 C3434 1.388 . S
C3436 C3437 1.366 . S
C3437 C3436 1.366 . S
C3437 C3438 1.414 . S
C3437 C3440 1.499 . S
C3438 H3418 0.950 . S
C3438 C3437 1.414 . S
C3438 C3439 1.374 . S
C3439 H3419 0.950 . S
C3439 C3435 1.385 . S
C3439 C3438 1.374 . S
C3440 C3437 1.499 . S
C3440 C3441 1.373 . S
C3440 C3442 1.389 . S
C3441 H3420 0.950 . S
C3441 C3440 1.373 . S
C3441 C3457 1.377 . S
C3442 C3440 1.389 . S
C3442 C3443 1.524 . S
C3442 C3456 1.377 . S
C3443 C3442 1.524 . S
C3443 C3444 1.397 . S
C3443 C3448 1.363 . S
C3444 H3421 0.950 . S
C3444 C3443 1.397 . S
C3444 C3445 1.334 . S
C3445 H3422 0.950 . S
C3445 C3444 1.334 . S
C3445 C3446 1.287 . S
C3446 C3445 1.287 . S
C3446 C3447 1.524 . S
C3446 H3465 0.913 . S
C3447 H3423 0.950 . S
C3447 C3446 1.524 . S
C3447 C3448 1.415 . S
C3448 H3424 0.950 . S
C3448 C3443 1.363 . S
C3448 C3447 1.415 . S
C3449 H3425 0.951 . S
C3449 C3450 1.366 . S
C3449 C3451 1.388 . S
C3450 C3449 1.366 . S
C3450 C3454 1.385 . S
C3451 H3426 0.951 . S
C3451 C3449 1.388 . S
C3451 C3452 1.366 . S
C3452 C3451 1.366 . S
C3452 C3453 1.414 . S
C3452 C3455 1.499 . S
C3453 H3427 0.950 . S
C3453 C3452 1.414 . S
C3453 C3454 1.374 . S
C3454 H3428 0.950 . S
C3454 C3450 1.385 . S
C3454 C3453 1.374 . S
C3455 C3452 1.499 . S
C3455 C3456 1.373 . S
C3455 C3457 1.389 . S
C3456 H3429 0.950 . S
C3456 C3442 1.377 . S
C3456 C3455 1.373 . S
C3457 C3441 1.377 . S
C3457 C3455 1.389 . S
C3457 C3458 1.524 . S
C3458 C3457 1.524 . S
C3458 C3459 1.397 . S
C3458 C3463 1.363 . S
C3459 H3430 0.950 . S
C3459 C3458 1.397 . S
C3459 C3460 1.334 . S
C3460 H3431 0.950 . S
C3460 C3459 1.334 . S
C3460 C3461 1.287 . S
C3461 C3460 1.287 . S
C3461 C3462 1.524 . S
C3461 H3464 0.999 . S
C3462 H3432 0.950 . S
C3462 C3461 1.524 . S
C3462 C3463 1.415 . S
C3463 H3433 0.950 . S
C3463 C3458 1.363 . S
C3463 C3462 1.415 . S
H3464 C3461 0.999 . S
H3465 C3446 0.913 . S
H3466 C3484 0.951 . S
H3467 C3486 0.951 . S
H3468 C3488 0.950 . S
H3469 C3489 0.950 . S
H3470 C3491 0.950 . S
H3471 C3494 0.950 . S
H3472 C3495 0.950 . S
H3473 C3497 0.950 . S
H3474 C3498 0.950 . S
H3475 C3499 0.951 . S
H3476 C3501 0.951 . S
H3477 C3503 0.950 . S
H3478 C3504 0.950 . S
H3479 C3506 0.950 . S
H3480 C3509 0.950 . S
H3481 C3510 0.950 . S
H3482 C3512 0.950 . S
H3483 C3513 0.950 . S
C3484 H3466 0.951 . S
C3484 C3485 1.366 . S
C3484 C3486 1.388 . S
C3485 C3484 1.366 . S
C3485 C3489 1.385 . S
C3486 H3467 0.951 . S
C3486 C3484 1.388 . S
C3486 C3487 1.366 . S
C3487 C3486 1.366 . S
C3487 C3488 1.414 . S
C3487 C3490 1.499 . S
C3488 H3468 0.950 . S
C3488 C3487 1.414 . S
C3488 C3489 1.374 . S
C3489 H3469 0.950 . S
C3489 C3485 1.385 . S
C3489 C3488 1.374 . S
C3490 C3487 1.499 . S
C3490 C3491 1.373 . S
C3490 C3492 1.389 . S
C3491 H3470 0.950 . S
C3491 C3490 1.373 . S
C3491 C3507 1.377 . S
C3492 C3490 1.389 . S
C3492 C3493 1.524 . S
C3492 C3506 1.377 . S
C3493 C3492 1.524 . S
C3493 C3494 1.397 . S
C3493 C3498 1.363 . S
C3494 H3471 0.950 . S
C3494 C3493 1.397 . S
C3494 C3495 1.334 . S
C3495 H3472 0.950 . S
C3495 C3494 1.334 . S
C3495 C3496 1.287 . S
C3496 C3495 1.287 . S
C3496 C3497 1.524 . S
C3496 H3515 0.913 . S
C3497 H3473 0.950 . S
C3497 C3496 1.524 . S
C3497 C3498 1.415 . S
C3498 H3474 0.950 . S
C3498 C3493 1.363 . S
C3498 C3497 1.415 . S
C3499 H3475 0.951 . S
C3499 C3500 1.366 . S
C3499 C3501 1.388 . S
C3500 C3499 1.366 . S
C3500 C3504 1.385 . S
C3501 H3476 0.951 . S
C3501 C3499 1.388 . S
C3501 C3502 1.366 . S
C3502 C3501 1.366 . S
C3502 C3503 1.414 . S
C3502 C3505 1.499 . S
C3503 H3477 0.950 . S
C3503 C3502 1.414 . S
C3503 C3504 1.374 . S
C3504 H3478 0.950 . S
C3504 C3500 1.385 . S
C3504 C3503 1.374 . S
C3505 C3502 1.499 . S
C3505 C3506 1.373 . S
C3505 C3507 1.389 . S
C3506 H3479 0.950 . S
C3506 C3492 1.377 . S
C3506 C3505 1.373 . S
C3507 C3491 1.377 . S
C3507 C3505 1.389 . S
C3507 C3508 1.524 . S
C3508 C3507 1.524 . S
C3508 C3509 1.397 . S
C3508 C3513 1.363 . S
C3509 H3480 0.950 . S
C3509 C3508 1.397 . S
C3509 C3510 1.334 . S
C3510 H3481 0.950 . S
C3510 C3509 1.334 . S
C3510 C3511 1.287 . S
C3511 C3510 1.287 . S
C3511 C3512 1.524 . S
C3511 H3514 0.999 . S
C3512 H3482 0.950 . S
C3512 C3511 1.524 . S
C3512 C3513 1.415 . S
C3513 H3483 0.950 . S
C3513 C3508 1.363 . S
C3513 C3512 1.415 . S
H3514 C3511 0.999 . S
H3515 C3496 0.913 . S
H3516 C3534 0.951 . S
H3517 C3536 0.951 . S
H3518 C3538 0.950 . S
H3519 C3539 0.950 . S
H3520 C3541 0.950 . S
H3521 C3544 0.950 . S
H3522 C3545 0.950 . S
H3523 C3547 0.950 . S
H3524 C3548 0.950 . S
H3525 C3549 0.951 . S
H3526 C3551 0.951 . S
H3527 C3553 0.950 . S
H3528 C3554 0.950 . S
H3529 C3556 0.950 . S
H3530 C3559 0.950 . S
H3531 C3560 0.950 . S
H3532 C3562 0.950 . S
H3533 C3563 0.950 . S
C3534 H3516 0.951 . S
C3534 C3535 1.366 . S
C3534 C3536 1.388 . S
C3535 C3534 1.366 . S
C3535 C3539 1.385 . S
C3536 H3517 0.951 . S
C3536 C3534 1.388 . S
C3536 C3537 1.366 . S
C3537 C3536 1.366 . S
C3537 C3538 1.414 . S
C3537 C3540 1.499 . S
C3538 H3518 0.950 . S
C3538 C3537 1.414 . S
C3538 C3539 1.374 . S
C3539 H3519 0.950 . S
C3539 C3535 1.385 . S
C3539 C3538 1.374 . S
C3540 C3537 1.499 . S
C3540 C3541 1.373 . S
C3540 C3542 1.389 . S
C3541 H3520 0.950 . S
C3541 C3540 1.373 . S
C3541 C3557 1.377 . S
C3542 C3540 1.389 . S
C3542 C3543 1.524 . S
C3542 C3556 1.377 . S
C3543 C3542 1.524 . S
C3543 C3544 1.397 . S
C3543 C3548 1.363 . S
C3544 H3521 0.950 . S
C3544 C3543 1.397 . S
C3544 C3545 1.334 . S
C3545 H3522 0.950 . S
C3545 C3544 1.334 . S
C3545 C3546 1.287 . S
C3546 C3545 1.287 . S
C3546 C3547 1.524 . S
C3546 H3565 0.913 . S
C3547 H3523 0.950 . S
C3547 C3546 1.524 . S
C3547 C3548 1.415 . S
C3548 H3524 0.950 . S
C3548 C3543 1.363 . S
C3548 C3547 1.415 . S
C3549 H3525 0.951 . S
C3549 C3550 1.366 . S
C3549 C3551 1.388 . S
C3550 C3549 1.366 . S
C3550 C3554 1.385 . S
C3551 H3526 0.951 . S
C3551 C3549 1.388 . S
C3551 C3552 1.366 . S
C3552 C3551 1.366 . S
C3552 C3553 1.414 . S
C3552 C3555 1.499 . S
C3553 H3527 0.950 . S
C3553 C3552 1.414 . S
C3553 C3554 1.374 . S
C3554 H3528 0.950 . S
C3554 C3550 1.385 . S
C3554 C3553 1.374 . S
C3555 C3552 1.499 . S
C3555 C3556 1.373 . S
C3555 C3557 1.389 . S
C3556 H3529 0.950 . S
C3556 C3542 1.377 . S
C3556 C3555 1.373 . S
C3557 C3541 1.377 . S
C3557 C3555 1.389 . S
C3557 C3558 1.524 . S
C3558 C3557 1.524 . S
C3558 C3559 1.397 . S
C3558 C3563 1.363 . S
C3559 H3530 0.950 . S
C3559 C3558 1.397 . S
C3559 C3560 1.334 . S
C3560 H3531 0.950 . S
C3560 C3559 1.334 . S
C3560 C3561 1.287 . S
C3561 C3560 1.287 . S
C3561 C3562 1.524 . S
C3561 H3564 0.999 . S
C3562 H3532 0.950 . S
C3562 C3561 1.524 . S
C3562 C3563 1.415 . S
C3563 H3533 0.950 . S
C3563 C3558 1.363 . S
C3563 C3562 1.415 . S
H3564 C3561 0.999 . S
H3565 C3546 0.913 . S
H3566 C3584 0.951 . S
H3567 C3586 0.951 . S
H3568 C3588 0.950 . S
H3569 C3589 0.950 . S
H3570 C3591 0.950 . S
H3571 C3594 0.950 . S
H3572 C3595 0.950 . S
H3573 C3597 0.950 . S
H3574 C3598 0.950 . S
H3575 C3599 0.951 . S
H3576 C3601 0.951 . S
H3577 C3603 0.950 . S
H3578 C3604 0.950 . S
H3579 C3606 0.950 . S
H3580 C3609 0.950 . S
H3581 C3610 0.950 . S
H3582 C3612 0.950 . S
H3583 C3613 0.950 . S
C3584 H3566 0.951 . S
C3584 C3585 1.366 . S
C3584 C3586 1.388 . S
C3585 C3584 1.366 . S
C3585 C3589 1.385 . S
C3586 H3567 0.951 . S
C3586 C3584 1.388 . S
C3586 C3587 1.366 . S
C3587 C3586 1.366 . S
C3587 C3588 1.414 . S
C3587 C3590 1.499 . S
C3588 H3568 0.950 . S
C3588 C3587 1.414 . S
C3588 C3589 1.374 . S
C3589 H3569 0.950 . S
C3589 C3585 1.385 . S
C3589 C3588 1.374 . S
C3590 C3587 1.499 . S
C3590 C3591 1.373 . S
C3590 C3592 1.389 . S
C3591 H3570 0.950 . S
C3591 C3590 1.373 . S
C3591 C3607 1.377 . S
C3592 C3590 1.389 . S
C3592 C3593 1.524 . S
C3592 C3606 1.377 . S
C3593 C3592 1.524 . S
C3593 C3594 1.397 . S
C3593 C3598 1.363 . S
C3594 H3571 0.950 . S
C3594 C3593 1.397 . S
C3594 C3595 1.334 . S
C3595 H3572 0.950 . S
C3595 C3594 1.334 . S
C3595 C3596 1.287 . S
C3596 C3595 1.287 . S
C3596 C3597 1.524 . S
C3596 H3615 0.913 . S
C3597 H3573 0.950 . S
C3597 C3596 1.524 . S
C3597 C3598 1.415 . S
C3598 H3574 0.950 . S
C3598 C3593 1.363 . S
C3598 C3597 1.415 . S
C3599 H3575 0.951 . S
C3599 C3600 1.366 . S
C3599 C3601 1.388 . S
C3600 C3599 1.366 . S
C3600 C3604 1.385 . S
C3601 H3576 0.951 . S
C3601 C3599 1.388 . S
C3601 C3602 1.366 . S
C3602 C3601 1.366 . S
C3602 C3603 1.414 . S
C3602 C3605 1.499 . S
C3603 H3577 0.950 . S
C3603 C3602 1.414 . S
C3603 C3604 1.374 . S
C3604 H3578 0.950 . S
C3604 C3600 1.385 . S
C3604 C3603 1.374 . S
C3605 C3602 1.499 . S
C3605 C3606 1.373 . S
C3605 C3607 1.389 . S
C3606 H3579 0.950 . S
C3606 C3592 1.377 . S
C3606 C3605 1.373 . S
C3607 C3591 1.377 . S
C3607 C3605 1.389 . S
C3607 C3608 1.524 . S
C3608 C3607 1.524 . S
C3608 C3609 1.397 . S
C3608 C3613 1.363 . S
C3609 H3580 0.950 . S
C3609 C3608 1.397 . S
C3609 C3610 1.334 . S
C3610 H3581 0.950 . S
C3610 C3609 1.334 . S
C3610 C3611 1.287 . S
C3611 C3610 1.287 . S
C3611 C3612 1.524 . S
C3611 H3614 0.999 . S
C3612 H3582 0.950 . S
C3612 C3611 1.524 . S
C3612 C3613 1.415 . S
C3613 H3583 0.950 . S
C3613 C3608 1.363 . S
C3613 C3612 1.415 . S
H3614 C3611 0.999 . S
H3615 C3596 0.913 . S
H3616 C3634 0.951 . S
H3617 C3636 0.951 . S
H3618 C3638 0.950 . S
H3619 C3639 0.950 . S
H3620 C3641 0.950 . S
H3621 C3644 0.950 . S
H3622 C3645 0.950 . S
H3623 C3647 0.950 . S
H3624 C3648 0.950 . S
H3625 C3649 0.951 . S
H3626 C3651 0.951 . S
H3627 C3653 0.950 . S
H3628 C3654 0.950 . S
H3629 C3656 0.950 . S
H3630 C3659 0.950 . S
H3631 C3660 0.950 . S
H3632 C3662 0.950 . S
H3633 C3663 0.950 . S
C3634 H3616 0.951 . S
C3634 C3635 1.366 . S
C3634 C3636 1.388 . S
C3635 C3634 1.366 . S
C3635 C3639 1.385 . S
C3636 H3617 0.951 . S
C3636 C3634 1.388 . S
C3636 C3637 1.366 . S
C3637 C3636 1.366 . S
C3637 C3638 1.414 . S
C3637 C3640 1.499 . S
C3638 H3618 0.950 . S
C3638 C3637 1.414 . S
C3638 C3639 1.374 . S
C3639 H3619 0.950 . S
C3639 C3635 1.385 . S
C3639 C3638 1.374 . S
C3640 C3637 1.499 . S
C3640 C3641 1.373 . S
C3640 C3642 1.389 . S
C3641 H3620 0.950 . S
C3641 C3640 1.373 . S
C3641 C3657 1.377 . S
C3642 C3640 1.389 . S
C3642 C3643 1.524 . S
C3642 C3656 1.377 . S
C3643 C3642 1.524 . S
C3643 C3644 1.397 . S
C3643 C3648 1.363 . S
C3644 H3621 0.950 . S
C3644 C3643 1.397 . S
C3644 C3645 1.334 . S
C3645 H3622 0.950 . S
C3645 C3644 1.334 . S
C3645 C3646 1.287 . S
C3646 C3645 1.287 . S
C3646 C3647 1.524 . S
C3646 H3665 0.913 . S
C3647 H3623 0.950 . S
C3647 C3646 1.524 . S
C3647 C3648 1.415 . S
C3648 H3624 0.950 . S
C3648 C3643 1.363 . S
C3648 C3647 1.415 . S
C3649 H3625 0.951 . S
C3649 C3650 1.366 . S
C3649 C3651 1.388 . S
C3650 C3649 1.366 . S
C3650 C3654 1.385 . S
C3651 H3626 0.951 . S
C3651 C3649 1.388 . S
C3651 C3652 1.366 . S
C3652 C3651 1.366 . S
C3652 C3653 1.414 . S
C3652 C3655 1.499 . S
C3653 H3627 0.950 . S
C3653 C3652 1.414 . S
C3653 C3654 1.374 . S
C3654 H3628 0.950 . S
C3654 C3650 1.385 . S
C3654 C3653 1.374 . S
C3655 C3652 1.499 . S
C3655 C3656 1.373 . S
C3655 C3657 1.389 . S
C3656 H3629 0.950 . S
C3656 C3642 1.377 . S
C3656 C3655 1.373 . S
C3657 C3641 1.377 . S
C3657 C3655 1.389 . S
C3657 C3658 1.524 . S
C3658 C3657 1.524 . S
C3658 C3659 1.397 . S
C3658 C3663 1.363 . S
C3659 H3630 0.950 . S
C3659 C3658 1.397 . S
C3659 C3660 1.334 . S
C3660 H3631 0.950 . S
C3660 C3659 1.334 . S
C3660 C3661 1.287 . S
C3661 C3660 1.287 . S
C3661 C3662 1.524 . S
C3661 H3664 0.999 . S
C3662 H3632 0.950 . S
C3662 C3661 1.524 . S
C3662 C3663 1.415 . S
C3663 H3633 0.950 . S
C3663 C3658 1.363 . S
C3663 C3662 1.415 . S
H3664 C3661 0.999 . S
H3665 C3646 0.913 . S
H3666 C3684 0.951 . S
H3667 C3686 0.951 . S
H3668 C3688 0.950 . S
H3669 C3689 0.950 . S
H3670 C3691 0.950 . S
H3671 C3694 0.950 . S
H3672 C3695 0.950 . S
H3673 C3697 0.950 . S
H3674 C3698 0.950 . S
H3675 C3699 0.951 . S
H3676 C3701 0.951 . S
H3677 C3703 0.950 . S
H3678 C3704 0.950 . S
H3679 C3706 0.950 . S
H3680 C3709 0.950 . S
H3681 C3710 0.950 . S
H3682 C3712 0.950 . S
H3683 C3713 0.950 . S
C3684 H3666 0.951 . S
C3684 C3685 1.366 . S
C3684 C3686 1.388 . S
C3685 C3684 1.366 . S
C3685 C3689 1.385 . S
C3686 H3667 0.951 . S
C3686 C3684 1.388 . S
C3686 C3687 1.366 . S
C3687 C3686 1.366 . S
C3687 C3688 1.414 . S
C3687 C3690 1.499 . S
C3688 H3668 0.950 . S
C3688 C3687 1.414 . S
C3688 C3689 1.374 . S
C3689 H3669 0.950 . S
C3689 C3685 1.385 . S
C3689 C3688 1.374 . S
C3690 C3687 1.499 . S
C3690 C3691 1.373 . S
C3690 C3692 1.389 . S
C3691 H3670 0.950 . S
C3691 C3690 1.373 . S
C3691 C3707 1.377 . S
C3692 C3690 1.389 . S
C3692 C3693 1.524 . S
C3692 C3706 1.377 . S
C3693 C3692 1.524 . S
C3693 C3694 1.397 . S
C3693 C3698 1.363 . S
C3694 H3671 0.950 . S
C3694 C3693 1.397 . S
C3694 C3695 1.334 . S
C3695 H3672 0.950 . S
C3695 C3694 1.334 . S
C3695 C3696 1.287 . S
C3696 C3695 1.287 . S
C3696 C3697 1.524 . S
C3696 H3715 0.913 . S
C3697 H3673 0.950 . S
C3697 C3696 1.524 . S
C3697 C3698 1.415 . S
C3698 H3674 0.950 . S
C3698 C3693 1.363 . S
C3698 C3697 1.415 . S
C3699 H3675 0.951 . S
C3699 C3700 1.366 . S
C3699 C3701 1.388 . S
C3700 C3699 1.366 . S
C3700 C3704 1.385 . S
C3701 H3676 0.951 . S
C3701 C3699 1.388 . S
C3701 C3702 1.366 . S
C3702 C3701 1.366 . S
C3702 C3703 1.414 . S
C3702 C3705 1.499 . S
C3703 H3677 0.950 . S
C3703 C3702 1.414 . S
C3703 C3704 1.374 . S
C3704 H3678 0.950 . S
C3704 C3700 1.385 . S
C3704 C3703 1.374 . S
C3705 C3702 1.499 . S
C3705 C3706 1.373 . S
C3705 C3707 1.389 . S
C3706 H3679 0.950 . S
C3706 C3692 1.377 . S
C3706 C3705 1.373 . S
C3707 C3691 1.377 . S
C3707 C3705 1.389 . S
C3707 C3708 1.524 . S
C3708 C3707 1.524 . S
C3708 C3709 1.397 . S
C3708 C3713 1.363 . S
C3709 H3680 0.950 . S
C3709 C3708 1.397 . S
C3709 C3710 1.334 . S
C3710 H3681 0.950 . S
C3710 C3709 1.334 . S
C3710 C3711 1.287 . S
C3711 C3710 1.287 . S
C3711 C3712 1.524 . S
C3711 H3714 0.999 . S
C3712 H3682 0.950 . S
C3712 C3711 1.524 . S
C3712 C3713 1.415 . S
C3713 H3683 0.950 . S
C3713 C3708 1.363 . S
C3713 C3712 1.415 . S
H3714 C3711 0.999 . S
H3715 C3696 0.913 . S
H3716 C3734 0.951 . S
H3717 C3736 0.951 . S
H3718 C3738 0.950 . S
H3719 C3739 0.950 . S
H3720 C3741 0.950 . S
H3721 C3744 0.950 . S
H3722 C3745 0.950 . S
H3723 C3747 0.950 . S
H3724 C3748 0.950 . S
H3725 C3749 0.951 . S
H3726 C3751 0.951 . S
H3727 C3753 0.950 . S
H3728 C3754 0.950 . S
H3729 C3756 0.950 . S
H3730 C3759 0.950 . S
H3731 C3760 0.950 . S
H3732 C3762 0.950 . S
H3733 C3763 0.950 . S
C3734 H3716 0.951 . S
C3734 C3735 1.366 . S
C3734 C3736 1.388 . S
C3735 C3734 1.366 . S
C3735 C3739 1.385 . S
C3736 H3717 0.951 . S
C3736 C3734 1.388 . S
C3736 C3737 1.366 . S
C3737 C3736 1.366 . S
C3737 C3738 1.414 . S
C3737 C3740 1.499 . S
C3738 H3718 0.950 . S
C3738 C3737 1.414 . S
C3738 C3739 1.374 . S
C3739 H3719 0.950 . S
C3739 C3735 1.385 . S
C3739 C3738 1.374 . S
C3740 C3737 1.499 . S
C3740 C3741 1.373 . S
C3740 C3742 1.389 . S
C3741 H3720 0.950 . S
C3741 C3740 1.373 . S
C3741 C3757 1.377 . S
C3742 C3740 1.389 . S
C3742 C3743 1.524 . S
C3742 C3756 1.377 . S
C3743 C3742 1.524 . S
C3743 C3744 1.397 . S
C3743 C3748 1.363 . S
C3744 H3721 0.950 . S
C3744 C3743 1.397 . S
C3744 C3745 1.334 . S
C3745 H3722 0.950 . S
C3745 C3744 1.334 . S
C3745 C3746 1.287 . S
C3746 C3745 1.287 . S
C3746 C3747 1.524 . S
C3746 H3765 0.913 . S
C3747 H3723 0.950 . S
C3747 C3746 1.524 . S
C3747 C3748 1.415 . S
C3748 H3724 0.950 . S
C3748 C3743 1.363 . S
C3748 C3747 1.415 . S
C3749 H3725 0.951 . S
C3749 C3750 1.366 . S
C3749 C3751 1.388 . S
C3750 C3749 1.366 . S
C3750 C3754 1.385 . S
C3751 H3726 0.951 . S
C3751 C3749 1.388 . S
C3751 C3752 1.366 . S
C3752 C3751 1.366 . S
C3752 C3753 1.414 . S
C3752 C3755 1.499 . S
C3753 H3727 0.950 . S
C3753 C3752 1.414 . S
C3753 C3754 1.374 . S
C3754 H3728 0.950 . S
C3754 C3750 1.385 . S
C3754 C3753 1.374 . S
C3755 C3752 1.499 . S
C3755 C3756 1.373 . S
C3755 C3757 1.389 . S
C3756 H3729 0.950 . S
C3756 C3742 1.377 . S
C3756 C3755 1.373 . S
C3757 C3741 1.377 . S
C3757 C3755 1.389 . S
C3757 C3758 1.524 . S
C3758 C3757 1.524 . S
C3758 C3759 1.397 . S
C3758 C3763 1.363 . S
C3759 H3730 0.950 . S
C3759 C3758 1.397 . S
C3759 C3760 1.334 . S
C3760 H3731 0.950 . S
C3760 C3759 1.334 . S
C3760 C3761 1.287 . S
C3761 C3760 1.287 . S
C3761 C3762 1.524 . S
C3761 H3764 0.999 . S
C3762 H3732 0.950 . S
C3762 C3761 1.524 . S
C3762 C3763 1.415 . S
C3763 H3733 0.950 . S
C3763 C3758 1.363 . S
C3763 C3762 1.415 . S
H3764 C3761 0.999 . S
H3765 C3746 0.913 . S
H3766 C3784 0.951 . S
H3767 C3786 0.951 . S
H3768 C3788 0.950 . S
H3769 C3789 0.950 . S
H3770 C3791 0.950 . S
H3771 C3794 0.950 . S
H3772 C3795 0.950 . S
H3773 C3797 0.950 . S
H3774 C3798 0.950 . S
H3775 C3799 0.951 . S
H3776 C3801 0.951 . S
H3777 C3803 0.950 . S
H3778 C3804 0.950 . S
H3779 C3806 0.950 . S
H3780 C3809 0.950 . S
H3781 C3810 0.950 . S
H3782 C3812 0.950 . S
H3783 C3813 0.950 . S
C3784 H3766 0.951 . S
C3784 C3785 1.366 . S
C3784 C3786 1.388 . S
C3785 C3784 1.366 . S
C3785 C3789 1.385 . S
C3786 H3767 0.951 . S
C3786 C3784 1.388 . S
C3786 C3787 1.366 . S
C3787 C3786 1.366 . S
C3787 C3788 1.414 . S
C3787 C3790 1.499 . S
C3788 H3768 0.950 . S
C3788 C3787 1.414 . S
C3788 C3789 1.374 . S
C3789 H3769 0.950 . S
C3789 C3785 1.385 . S
C3789 C3788 1.374 . S
C3790 C3787 1.499 . S
C3790 C3791 1.373 . S
C3790 C3792 1.389 . S
C3791 H3770 0.950 . S
C3791 C3790 1.373 . S
C3791 C3807 1.377 . S
C3792 C3790 1.389 . S
C3792 C3793 1.524 . S
C3792 C3806 1.377 . S
C3793 C3792 1.524 . S
C3793 C3794 1.397 . S
C3793 C3798 1.363 . S
C3794 H3771 0.950 . S
C3794 C3793 1.397 . S
C3794 C3795 1.334 . S
C3795 H3772 0.950 . S
C3795 C3794 1.334 . S
C3795 C3796 1.287 . S
C3796 C3795 1.287 . S
C3796 C3797 1.524 . S
C3796 H3815 0.913 . S
C3797 H3773 0.950 . S
C3797 C3796 1.524 . S
C3797 C3798 1.415 . S
C3798 H3774 0.950 . S
C3798 C3793 1.363 . S
C3798 C3797 1.415 . S
C3799 H3775 0.951 . S
C3799 C3800 1.366 . S
C3799 C3801 1.388 . S
C3800 C3799 1.366 . S
C3800 C3804 1.385 . S
C3801 H3776 0.951 . S
C3801 C3799 1.388 . S
C3801 C3802 1.366 . S
C3802 C3801 1.366 . S
C3802 C3803 1.414 . S
C3802 C3805 1.499 . S
C3803 H3777 0.950 . S
C3803 C3802 1.414 . S
C3803 C3804 1.374 . S
C3804 H3778 0.950 . S
C3804 C3800 1.385 . S
C3804 C3803 1.374 . S
C3805 C3802 1.499 . S
C3805 C3806 1.373 . S
C3805 C3807 1.389 . S
C3806 H3779 0.950 . S
C3806 C3792 1.377 . S
C3806 C3805 1.373 . S
C3807 C3791 1.377 . S
C3807 C3805 1.389 . S
C3807 C3808 1.524 . S
C3808 C3807 1.524 . S
C3808 C3809 1.397 . S
C3808 C3813 1.363 . S
C3809 H3780 0.950 . S
C3809 C3808 1.397 . S
C3809 C3810 1.334 . S
C3810 H3781 0.950 . S
C3810 C3809 1.334 . S
C3810 C3811 1.287 . S
C3811 C3810 1.287 . S
C3811 C3812 1.524 . S
C3811 H3814 0.999 . S
C3812 H3782 0.950 . S
C3812 C3811 1.524 . S
C3812 C3813 1.415 . S
C3813 H3783 0.950 . S
C3813 C3808 1.363 . S
C3813 C3812 1.415 . S
H3814 C3811 0.999 . S
H3815 C3796 0.913 . S
H3816 C3834 0.951 . S
H3817 C3836 0.951 . S
H3818 C3838 0.950 . S
H3819 C3839 0.950 . S
H3820 C3841 0.950 . S
H3821 C3844 0.950 . S
H3822 C3845 0.950 . S
H3823 C3847 0.950 . S
H3824 C3848 0.950 . S
H3825 C3849 0.951 . S
H3826 C3851 0.951 . S
H3827 C3853 0.950 . S
H3828 C3854 0.950 . S
H3829 C3856 0.950 . S
H3830 C3859 0.950 . S
H3831 C3860 0.950 . S
H3832 C3862 0.950 . S
H3833 C3863 0.950 . S
C3834 H3816 0.951 . S
C3834 C3835 1.366 . S
C3834 C3836 1.388 . S
C3835 C3834 1.366 . S
C3835 C3839 1.385 . S
C3836 H3817 0.951 . S
C3836 C3834 1.388 . S
C3836 C3837 1.366 . S
C3837 C3836 1.366 . S
C3837 C3838 1.414 . S
C3837 C3840 1.499 . S
C3838 H3818 0.950 . S
C3838 C3837 1.414 . S
C3838 C3839 1.374 . S
C3839 H3819 0.950 . S
C3839 C3835 1.385 . S
C3839 C3838 1.374 . S
C3840 C3837 1.499 . S
C3840 C3841 1.373 . S
C3840 C3842 1.389 . S
C3841 H3820 0.950 . S
C3841 C3840 1.373 . S
C3841 C3857 1.377 . S
C3842 C3840 1.389 . S
C3842 C3843 1.524 . S
C3842 C3856 1.377 . S
C3843 C3842 1.524 . S
C3843 C3844 1.397 . S
C3843 C3848 1.363 . S
C3844 H3821 0.950 . S
C3844 C3843 1.397 . S
C3844 C3845 1.334 . S
C3845 H3822 0.950 . S
C3845 C3844 1.334 . S
C3845 C3846 1.287 . S
C3846 C3845 1.287 . S
C3846 C3847 1.524 . S
C3846 H3865 0.913 . S
C3847 H3823 0.950 . S
C3847 C3846 1.524 . S
C3847 C3848 1.415 . S
C3848 H3824 0.950 . S
C3848 C3843 1.363 . S
C3848 C3847 1.415 . S
C3849 H3825 0.951 . S
C3849 C3850 1.366 . S
C3849 C3851 1.388 . S
C3850 C3849 1.366 . S
C3850 C3854 1.385 . S
C3851 H3826 0.951 . S
C3851 C3849 1.388 . S
C3851 C3852 1.366 . S
C3852 C3851 1.366 . S
C3852 C3853 1.414 . S
C3852 C3855 1.499 . S
C3853 H3827 0.950 . S
C3853 C3852 1.414 . S
C3853 C3854 1.374 . S
C3854 H3828 0.950 . S
C3854 C3850 1.385 . S
C3854 C3853 1.374 . S
C3855 C3852 1.499 . S
C3855 C3856 1.373 . S
C3855 C3857 1.389 . S
C3856 H3829 0.950 . S
C3856 C3842 1.377 . S
C3856 C3855 1.373 . S
C3857 C3841 1.377 . S
C3857 C3855 1.389 . S
C3857 C3858 1.524 . S
C3858 C3857 1.524 . S
C3858 C3859 1.397 . S
C3858 C3863 1.363 . S
C3859 H3830 0.950 . S
C3859 C3858 1.397 . S
C3859 C3860 1.334 . S
C3860 H3831 0.950 . S
C3860 C3859 1.334 . S
C3860 C3861 1.287 . S
C3861 C3860 1.287 . S
C3861 C3862 1.524 . S
C3861 H3864 0.999 . S
C3862 H3832 0.950 . S
C3862 C3861 1.524 . S
C3862 C3863 1.415 . S
C3863 H3833 0.950 . S
C3863 C3858 1.363 . S
C3863 C3862 1.415 . S
H3864 C3861 0.999 . S
H3865 C3846 0.913 . S
H3866 C3884 0.951 . S
H3867 C3886 0.951 . S
H3868 C3888 0.950 . S
H3869 C3889 0.950 . S
H3870 C3891 0.950 . S
H3871 C3894 0.950 . S
H3872 C3895 0.950 . S
H3873 C3897 0.950 . S
H3874 C3898 0.950 . S
H3875 C3899 0.951 . S
H3876 C3901 0.951 . S
H3877 C3903 0.950 . S
H3878 C3904 0.950 . S
H3879 C3906 0.950 . S
H3880 C3909 0.950 . S
H3881 C3910 0.950 . S
H3882 C3912 0.950 . S
H3883 C3913 0.950 . S
C3884 H3866 0.951 . S
C3884 C3885 1.366 . S
C3884 C3886 1.388 . S
C3885 C3884 1.366 . S
C3885 C3889 1.385 . S
C3886 H3867 0.951 . S
C3886 C3884 1.388 . S
C3886 C3887 1.366 . S
C3887 C3886 1.366 . S
C3887 C3888 1.414 . S
C3887 C3890 1.499 . S
C3888 H3868 0.950 . S
C3888 C3887 1.414 . S
C3888 C3889 1.374 . S
C3889 H3869 0.950 . S
C3889 C3885 1.385 . S
C3889 C3888 1.374 . S
C3890 C3887 1.499 . S
C3890 C3891 1.373 . S
C3890 C3892 1.389 . S
C3891 H3870 0.950 . S
C3891 C3890 1.373 . S
C3891 C3907 1.377 . S
C3892 C3890 1.389 . S
C3892 C3893 1.524 . S
C3892 C3906 1.377 . S
C3893 C3892 1.524 . S
C3893 C3894 1.397 . S
C3893 C3898 1.363 . S
C3894 H3871 0.950 . S
C3894 C3893 1.397 . S
C3894 C3895 1.334 . S
C3895 H3872 0.950 . S
C3895 C3894 1.334 . S
C3895 C3896 1.287 . S
C3896 C3895 1.287 . S
C3896 C3897 1.524 . S
C3896 H3915 0.913 . S
C3897 H3873 0.950 . S
C3897 C3896 1.524 . S
C3897 C3898 1.415 . S
C3898 H3874 0.950 . S
C3898 C3893 1.363 . S
C3898 C3897 1.415 . S
C3899 H3875 0.951 . S
C3899 C3900 1.366 . S
C3899 C3901 1.388 . S
C3900 C3899 1.366 . S
C3900 C3904 1.385 . S
C3901 H3876 0.951 . S
C3901 C3899 1.388 . S
C3901 C3902 1.366 . S
C3902 C3901 1.366 . S
C3902 C3903 1.414 . S
C3902 C3905 1.499 . S
C3903 H3877 0.950 . S
C3903 C3902 1.414 . S
C3903 C3904 1.374 . S
C3904 H3878 0.950 . S
C3904 C3900 1.385 . S
C3904 C3903 1.374 . S
C3905 C3902 1.499 . S
C3905 C3906 1.373 . S
C3905 C3907 1.389 . S
C3906 H3879 0.950 . S
C3906 C3892 1.377 . S
C3906 C3905 1.373 . S
C3907 C3891 1.377 . S
C3907 C3905 1.389 . S
C3907 C3908 1.524 . S
C3908 C3907 1.524 . S
C3908 C3909 1.397 . S
C3908 C3913 1.363 . S
C3909 H3880 0.950 . S
C3909 C3908 1.397 . S
C3909 C3910 1.334 . S
C3910 H3881 0.950 . S
C3910 C3909 1.334 . S
C3910 C3911 1.287 . S
C3911 C3910 1.287 . S
C3911 C3912 1.524 . S
C3911 H3914 0.999 . S
C3912 H3882 0.950 . S
C3912 C3911 1.524 . S
C3912 C3913 1.415 . S
C3913 H3883 0.950 . S
C3913 C3908 1.363 . S
C3913 C3912 1.415 . S
H3914 C3911 0.999 . S
H3915 C3896 0.913 . S
H3916 C3934 0.951 . S
H3917 C3936 0.951 . S
H3918 C3938 0.950 . S
H3919 C3939 0.950 . S
H3920 C3941 0.950 . S
H3921 C3944 0.950 . S
H3922 C3945 0.950 . S
H3923 C3947 0.950 . S
H3924 C3948 0.950 . S
H3925 C3949 0.951 . S
H3926 C3951 0.951 . S
H3927 C3953 0.950 . S
H3928 C3954 0.950 . S
H3929 C3956 0.950 . S
H3930 C3959 0.950 . S
H3931 C3960 0.950 . S
H3932 C3962 0.950 . S
H3933 C3963 0.950 . S
C3934 H3916 0.951 . S
C3934 C3935 1.366 . S
C3934 C3936 1.388 . S
C3935 C3934 1.366 . S
C3935 C3939 1.385 . S
C3936 H3917 0.951 . S
C3936 C3934 1.388 . S
C3936 C3937 1.366 . S
C3937 C3936 1.366 . S
C3937 C3938 1.414 . S
C3937 C3940 1.499 . S
C3938 H3918 0.950 . S
C3938 C3937 1.414 . S
C3938 C3939 1.374 . S
C3939 H3919 0.950 . S
C3939 C3935 1.385 . S
C3939 C3938 1.374 . S
C3940 C3937 1.499 . S
C3940 C3941 1.373 . S
C3940 C3942 1.389 . S
C3941 H3920 0.950 . S
C3941 C3940 1.373 . S
C3941 C3957 1.377 . S
C3942 C3940 1.389 . S
C3942 C3943 1.524 . S
C3942 C3956 1.377 . S
C3943 C3942 1.524 . S
C3943 C3944 1.397 . S
C3943 C3948 1.363 . S
C3944 H3921 0.950 . S
C3944 C3943 1.397 . S
C3944 C3945 1.334 . S
C3945 H3922 0.950 . S
C3945 C3944 1.334 . S
C3945 C3946 1.287 . S
C3946 C3945 1.287 . S
C3946 C3947 1.524 . S
C3946 H3965 0.913 . S
C3947 H3923 0.950 . S
C3947 C3946 1.524 . S
C3947 C3948 1.415 . S
C3948 H3924 0.950 . S
C3948 C3943 1.363 . S
C3948 C3947 1.415 . S
C3949 H3925 0.951 . S
C3949 C3950 1.366 . S
C3949 C3951 1.388 . S
C3950 C3949 1.366 . S
C3950 C3954 1.385 . S
C3951 H3926 0.951 . S
C3951 C3949 1.388 . S
C3951 C3952 1.366 . S
C3952 C3951 1.366 . S
C3952 C3953 1.414 . S
C3952 C3955 1.499 . S
C3953 H3927 0.950 . S
C3953 C3952 1.414 . S
C3953 C3954 1.374 . S
C3954 H3928 0.950 . S
C3954 C3950 1.385 . S
C3954 C3953 1.374 . S
C3955 C3952 1.499 . S
C3955 C3956 1.373 . S
C3955 C3957 1.389 . S
C3956 H3929 0.950 . S
C3956 C3942 1.377 . S
C3956 C3955 1.373 . S
C3957 C3941 1.377 . S
C3957 C3955 1.389 . S
C3957 C3958 1.524 . S
C3958 C3957 1.524 . S
C3958 C3959 1.397 . S
C3958 C3963 1.363 . S
C3959 H3930 0.950 . S
C3959 C3958 1.397 . S
C3959 C3960 1.334 . S
C3960 H3931 0.950 . S
C3960 C3959 1.334 . S
C3960 C3961 1.287 . S
C3961 C3960 1.287 . S
C3961 C3962 1.524 . S
C3961 H3964 0.999 . S
C3962 H3932 0.950 . S
C3962 C3961 1.524 . S
C3962 C3963 1.415 . S
C3963 H3933 0.950 . S
C3963 C3958 1.363 . S
C3963 C3962 1.415 . S
H3964 C3961 0.999 . S
H3965 C3946 0.913 . S
H3966 C3984 0.951 . S
H3967 C3986 0.951 . S
H3968 C3988 0.950 . S
H3969 C3989 0.950 . S
H3970 C3991 0.950 . S
H3971 C3994 0.950 . S
H3972 C3995 0.950 . S
H3973 C3997 0.950 . S
H3974 C3998 0.950 . S
H3975 C3999 0.951 . S
H3976 C4001 0.951 . S
H3977 C4003 0.950 . S
H3978 C4004 0.950 . S
H3979 C4006 0.950 . S
H3980 C4009 0.950 . S
H3981 C4010 0.950 . S
H3982 C4012 0.950 . S
H3983 C4013 0.950 . S
C3984 H3966 0.951 . S
C3984 C3985 1.366 . S
C3984 C3986 1.388 . S
C3985 C3984 1.366 . S
C3985 C3989 1.385 . S
C3986 H3967 0.951 . S
C3986 C3984 1.388 . S
C3986 C3987 1.366 . S
C3987 C3986 1.366 . S
C3987 C3988 1.414 . S
C3987 C3990 1.499 . S
C3988 H3968 0.950 . S
C3988 C3987 1.414 . S
C3988 C3989 1.374 . S
C3989 H3969 0.950 . S
C3989 C3985 1.385 . S
C3989 C3988 1.374 . S
C3990 C3987 1.499 . S
C3990 C3991 1.373 . S
C3990 C3992 1.389 . S
C3991 H3970 0.950 . S
C3991 C3990 1.373 . S
C3991 C4007 1.377 . S
C3992 C3990 1.389 . S
C3992 C3993 1.524 . S
C3992 C4006 1.377 . S
C3993 C3992 1.524 . S
C3993 C3994 1.397 . S
C3993 C3998 1.363 . S
C3994 H3971 0.950 . S
C3994 C3993 1.397 . S
C3994 C3995 1.334 . S
C3995 H3972 0.950 . S
C3995 C3994 1.334 . S
C3995 C3996 1.287 . S
C3996 C3995 1.287 . S
C3996 C3997 1.524 . S
C3996 H4015 0.913 . S
C3997 H3973 0.950 . S
C3997 C3996 1.524 . S
C3997 C3998 1.415 . S
C3998 H3974 0.950 . S
C3998 C3993 1.363 . S
C3998 C3997 1.415 . S
C3999 H3975 0.951 . S
C3999 C4000 1.366 . S
C3999 C4001 1.388 . S
C4000 C3999 1.366 . S
C4000 C4004 1.385 . S
C4001 H3976 0.951 . S
C4001 C3999 1.388 . S
C4001 C4002 1.366 . S
C4002 C4001 1.366 . S
C4002 C4003 1.414 . S
C4002 C4005 1.499 . S
C4003 H3977 0.950 . S
C4003 C4002 1.414 . S
C4003 C4004 1.374 . S
C4004 H3978 0.950 . S
C4004 C4000 1.385 . S
C4004 C4003 1.374 . S
C4005 C4002 1.499 . S
C4005 C4006 1.373 . S
C4005 C4007 1.389 . S
C4006 H3979 0.950 . S
C4006 C3992 1.377 . S
C4006 C4005 1.373 . S
C4007 C3991 1.377 . S
C4007 C4005 1.389 . S
C4007 C4008 1.524 . S
C4008 C4007 1.524 . S
C4008 C4009 1.397 . S
C4008 C4013 1.363 . S
C4009 H3980 0.950 . S
C4009 C4008 1.397 . S
C4009 C4010 1.334 . S
C4010 H3981 0.950 . S
C4010 C4009 1.334 . S
C4010 C4011 1.287 . S
C4011 C4010 1.287 . S
C4011 C4012 1.524 . S
C4011 H4014 0.999 . S
C4012 H3982 0.950 . S
C4012 C4011 1.524 . S
C4012 C4013 1.415 . S
C4013 H3983 0.950 . S
C4013 C4008 1.363 . S
C4013 C4012 1.415 . S
H4014 C4011 0.999 . S
H4015 C3996 0.913 . S
H4016 C4034 0.951 . S
H4017 C4036 0.951 . S
H4018 C4038 0.950 . S
H4019 C4039 0.950 . S
H4020 C4041 0.950 . S
H4021 C4044 0.950 . S
H4022 C4045 0.950 . S
H4023 C4047 0.950 . S
H4024 C4048 0.950 . S
H4025 C4049 0.951 . S
H4026 C4051 0.951 . S
H4027 C4053 0.950 . S
H4028 C4054 0.950 . S
H4029 C4056 0.950 . S
H4030 C4059 0.950 . S
H4031 C4060 0.950 . S
H4032 C4062 0.950 . S
H4033 C4063 0.950 . S
C4034 H4016 0.951 . S
C4034 C4035 1.366 . S
C4034 C4036 1.388 . S
C4035 C4034 1.366 . S
C4035 C4039 1.385 . S
C4036 H4017 0.951 . S
C4036 C4034 1.388 . S
C4036 C4037 1.366 . S
C4037 C4036 1.366 . S
C4037 C4038 1.414 . S
C4037 C4040 1.499 . S
C4038 H4018 0.950 . S
C4038 C4037 1.414 . S
C4038 C4039 1.374 . S
C4039 H4019 0.950 . S
C4039 C4035 1.385 . S
C4039 C4038 1.374 . S
C4040 C4037 1.499 . S
C4040 C4041 1.373 . S
C4040 C4042 1.389 . S
C4041 H4020 0.950 . S
C4041 C4040 1.373 . S
C4041 C4057 1.377 . S
C4042 C4040 1.389 . S
C4042 C4043 1.524 . S
C4042 C4056 1.377 . S
C4043 C4042 1.524 . S
C4043 C4044 1.397 . S
C4043 C4048 1.363 . S
C4044 H4021 0.950 . S
C4044 C4043 1.397 . S
C4044 C4045 1.334 . S
C4045 H4022 0.950 . S
C4045 C4044 1.334 . S
C4045 C4046 1.287 . S
C4046 C4045 1.287 . S
C4046 C4047 1.524 . S
C4046 H4065 0.913 . S
C4047 H4023 0.950 . S
C4047 C4046 1.524 . S
C4047 C4048 1.415 . S
C4048 H4024 0.950 . S
C4048 C4043 1.363 . S
C4048 C4047 1.415 . S
C4049 H4025 0.951 . S
C4049 C4050 1.366 . S
C4049 C4051 1.388 . S
C4050 C4049 1.366 . S
C4050 C4054 1.385 . S
C4051 H4026 0.951 . S
C4051 C4049 1.388 . S
C4051 C4052 1.366 . S
C4052 C4051 1.366 . S
C4052 C4053 1.414 . S
C4052 C4055 1.499 . S
C4053 H4027 0.950 . S
C4053 C4052 1.414 . S
C4053 C4054 1.374 . S
C4054 H4028 0.950 . S
C4054 C4050 1.385 . S
C4054 C4053 1.374 . S
C4055 C4052 1.499 . S
C4055 C4056 1.373 . S
C4055 C4057 1.389 . S
C4056 H4029 0.950 . S
C4056 C4042 1.377 . S
C4056 C4055 1.373 . S
C4057 C4041 1.377 . S
C4057 C4055 1.389 . S
C4057 C4058 1.524 . S
C4058 C4057 1.524 . S
C4058 C4059 1.397 . S
C4058 C4063 1.363 . S
C4059 H4030 0.950 . S
C4059 C4058 1.397 . S
C4059 C4060 1.334 . S
C4060 H4031 0.950 . S
C4060 C4059 1.334 . S
C4060 C4061 1.287 . S
C4061 C4060 1.287 . S
C4061 C4062 1.524 . S
C4061 H4064 0.999 . S
C4062 H4032 0.950 . S
C4062 C4061 1.524 . S
C4062 C4063 1.415 . S
C4063 H4033 0.950 . S
C4063 C4058 1.363 . S
C4063 C4062 1.415 . S
H4064 C4061 0.999 . S
H4065 C4046 0.913 . S
H4066 C4084 0.951 . S
H4067 C4086 0.951 . S
H4068 C4088 0.950 . S
H4069 C4089 0.950 . S
H4070 C4091 0.950 . S
H4071 C4094 0.950 . S
H4072 C4095 0.950 . S
H4073 C4097 0.950 . S
H4074 C4098 0.950 . S
H4075 C4099 0.951 . S
H4076 C4101 0.951 . S
H4077 C4103 0.950 . S
H4078 C4104 0.950 . S
H4079 C4106 0.950 . S
H4080 C4109 0.950 . S
H4081 C4110 0.950 . S
H4082 C4112 0.950 . S
H4083 C4113 0.950 . S
C4084 H4066 0.951 . S
C4084 C4085 1.366 . S
C4084 C4086 1.388 . S
C4085 C4084 1.366 . S
C4085 C4089 1.385 . S
C4086 H4067 0.951 . S
C4086 C4084 1.388 . S
C4086 C4087 1.366 . S
C4087 C4086 1.366 . S
C4087 C4088 1.414 . S
C4087 C4090 1.499 . S
C4088 H4068 0.950 . S
C4088 C4087 1.414 . S
C4088 C4089 1.374 . S
C4089 H4069 0.950 . S
C4089 C4085 1.385 . S
C4089 C4088 1.374 . S
C4090 C4087 1.499 . S
C4090 C4091 1.373 . S
C4090 C4092 1.389 . S
C4091 H4070 0.950 . S
C4091 C4090 1.373 . S
C4091 C4107 1.377 . S
C4092 C4090 1.389 . S
C4092 C4093 1.524 . S
C4092 C4106 1.377 . S
C4093 C4092 1.524 . S
C4093 C4094 1.397 . S
C4093 C4098 1.363 . S
C4094 H4071 0.950 . S
C4094 C4093 1.397 . S
C4094 C4095 1.334 . S
C4095 H4072 0.950 . S
C4095 C4094 1.334 . S
C4095 C4096 1.287 . S
C4096 C4095 1.287 . S
C4096 C4097 1.524 . S
C4096 H4115 0.913 . S
C4097 H4073 0.950 . S
C4097 C4096 1.524 . S
C4097 C4098 1.415 . S
C4098 H4074 0.950 . S
C4098 C4093 1.363 . S
C4098 C4097 1.415 . S
C4099 H4075 0.951 . S
C4099 C4100 1.366 . S
C4099 C4101 1.388 . S
C4100 C4099 1.366 . S
C4100 C4104 1.385 . S
C4101 H4076 0.951 . S
C4101 C4099 1.388 . S
C4101 C4102 1.366 . S
C4102 C4101 1.366 . S
C4102 C4103 1.414 . S
C4102 C4105 1.499 . S
C4103 H4077 0.950 . S
C4103 C4102 1.414 . S
C4103 C4104 1.374 . S
C4104 H4078 0.950 . S
C4104 C4100 1.385 . S
C4104 C4103 1.374 . S
C4105 C4102 1.499 . S
C4105 C4106 1.373 . S
C4105 C4107 1.389 . S
C4106 H4079 0.950 . S
C4106 C4092 1.377 . S
C4106 C4105 1.373 . S
C4107 C4091 1.377 . S
C4107 C4105 1.389 . S
C4107 C4108 1.524 . S
C4108 C4107 1.524 . S
C4108 C4109 1.397 . S
C4108 C4113 1.363 . S
C4109 H4080 0.950 . S
C4109 C4108 1.397 . S
C4109 C4110 1.334 . S
C4110 H4081 0.950 . S
C4110 C4109 1.334 . S
C4110 C4111 1.287 . S
C4111 C4110 1.287 . S
C4111 C4112 1.524 . S
C4111 H4114 0.999 . S
C4112 H4082 0.950 . S
C4112 C4111 1.524 . S
C4112 C4113 1.415 . S
C4113 H4083 0.950 . S
C4113 C4108 1.363 . S
C4113 C4112 1.415 . S
H4114 C4111 0.999 . S
H4115 C4096 0.913 . S
H4116 C4134 0.951 . S
H4117 C4136 0.951 . S
H4118 C4138 0.950 . S
H4119 C4139 0.950 . S
H4120 C4141 0.950 . S
H4121 C4144 0.950 . S
H4122 C4145 0.950 . S
H4123 C4147 0.950 . S
H4124 C4148 0.950 . S
H4125 C4149 0.951 . S
H4126 C4151 0.951 . S
H4127 C4153 0.950 . S
H4128 C4154 0.950 . S
H4129 C4156 0.950 . S
H4130 C4159 0.950 1_556 S
H4131 C4160 0.941 1_556 S
H4132 C4162 0.950 . S
H4133 C4163 0.950 . S
C4134 H4116 0.951 . S
C4134 C4135 1.366 . S
C4134 C4136 1.388 . S
C4135 C4134 1.366 . S
C4135 C4139 1.385 . S
C4136 H4117 0.951 . S
C4136 C4134 1.388 . S
C4136 C4137 1.366 . S
C4137 C4136 1.366 . S
C4137 C4138 1.414 . S
C4137 C4140 1.499 . S
C4138 H4118 0.950 . S
C4138 C4137 1.414 . S
C4138 C4139 1.374 . S
C4139 H4119 0.950 . S
C4139 C4135 1.385 . S
C4139 C4138 1.374 . S
C4140 C4137 1.499 . S
C4140 C4141 1.373 . S
C4140 C4142 1.389 . S
C4141 H4120 0.950 . S
C4141 C4140 1.373 . S
C4141 C4157 1.377 . S
C4142 C4140 1.389 . S
C4142 C4143 1.524 . S
C4142 C4156 1.377 . S
C4143 C4142 1.524 . S
C4143 C4144 1.397 . S
C4143 C4148 1.363 . S
C4144 H4121 0.950 . S
C4144 C4143 1.397 . S
C4144 C4145 1.334 . S
C4145 H4122 0.950 . S
C4145 C4144 1.334 . S
C4145 C4146 1.287 . S
C4146 C4145 1.287 . S
C4146 C4147 1.524 . S
C4146 H4165 0.913 . S
C4147 H4123 0.950 . S
C4147 C4146 1.524 . S
C4147 C4148 1.415 . S
C4148 H4124 0.950 . S
C4148 C4143 1.363 . S
C4148 C4147 1.415 . S
C4149 H4125 0.951 . S
C4149 C4150 1.366 . S
C4149 C4151 1.388 1_556 S
C4150 C4149 1.366 . S
C4150 C4154 1.385 . S
C4151 H4126 0.951 . S
C4151 C4149 1.388 1_554 S
C4151 C4152 1.366 . S
C4152 C4151 1.366 . S
C4152 C4153 1.414 1_554 S
C4152 C4155 1.499 . S
C4153 H4127 0.950 . S
C4153 C4152 1.414 1_556 S
C4153 C4154 1.374 . S
C4154 H4128 0.950 . S
C4154 C4150 1.385 . S
C4154 C4153 1.374 . S
C4155 C4152 1.499 . S
C4155 C4156 1.373 . S
C4155 C4157 1.389 . S
C4156 H4129 0.950 . S
C4156 C4142 1.377 . S
C4156 C4155 1.373 . S
C4157 C4141 1.377 . S
C4157 C4155 1.389 . S
C4157 C4158 1.524 . S
C4158 C4157 1.524 . S
C4158 C4159 1.397 . S
C4158 C4163 1.363 . S
C4159 H4130 0.950 1_554 S
C4159 C4158 1.397 . S
C4159 C4160 1.337 . S
C4160 H4131 0.941 1_554 S
C4160 C4159 1.337 . S
C4160 C4161 1.293 . S
C4161 C4160 1.293 . S
C4161 C4162 1.524 . S
C4161 H4164 0.999 . S
C4162 H4132 0.950 . S
C4162 C4161 1.524 . S
C4162 C4163 1.415 . S
C4163 H4133 0.950 . S
C4163 C4158 1.363 . S
C4163 C4162 1.415 . S
H4164 C4161 0.999 . S
H4165 C4146 0.913 . S
H4166 C4184 0.951 . S
H4167 C4186 0.951 . S
H4168 C4188 0.950 . S
H4169 C4189 0.950 . S
H4170 C4191 0.950 . S
H4171 C4194 0.950 . S
H4172 C4195 0.950 . S
H4173 C4197 0.950 . S
H4174 C4198 0.950 . S
H4175 C4199 0.963 . S
H4176 C4201 0.951 . S
H4177 C4203 0.950 . S
H4178 C4204 0.950 1_556 S
H4179 C4206 0.950 . S
H4180 C4209 0.950 . S
H4181 C4210 0.950 . S
H4182 C4212 0.950 . S
H4183 C4213 0.950 . S
C4184 H4166 0.951 . S
C4184 C4185 1.366 . S
C4184 C4186 1.388 . S
C4185 C4184 1.366 . S
C4185 C4189 1.385 . S
C4186 H4167 0.951 . S
C4186 C4184 1.388 . S
C4186 C4187 1.366 . S
C4187 C4186 1.366 . S
C4187 C4188 1.414 . S
C4187 C4190 1.499 . S
C4188 H4168 0.950 . S
C4188 C4187 1.414 . S
C4188 C4189 1.374 . S
C4189 H4169 0.950 . S
C4189 C4185 1.385 . S
C4189 C4188 1.374 . S
C4190 C4187 1.499 . S
C4190 C4191 1.373 . S
C4190 C4192 1.389 . S
C4191 H4170 0.950 . S
C4191 C4190 1.373 . S
C4191 C4207 1.377 . S
C4192 C4190 1.389 . S
C4192 C4193 1.524 . S
C4192 C4206 1.377 . S
C4193 C4192 1.524 . S
C4193 C4194 1.397 . S
C4193 C4198 1.363 . S
C4194 H4171 0.950 . S
C4194 C4193 1.397 . S
C4194 C4195 1.334 . S
C4195 H4172 0.950 . S
C4195 C4194 1.334 . S
C4195 C4196 1.287 . S
C4196 C4195 1.287 . S
C4196 C4197 1.524 . S
C4196 H4215 0.913 . S
C4197 H4173 0.950 . S
C4197 C4196 1.524 . S
C4197 C4198 1.415 . S
C4198 H4174 0.950 . S
C4198 C4193 1.363 . S
C4198 C4197 1.415 . S
C4199 H4175 0.963 . S
C4199 C4200 1.374 . S
C4199 C4201 1.368 1_556 S
C4200 C4199 1.374 . S
C4200 C4204 1.385 1_556 S
C4201 H4176 0.951 . S
C4201 C4199 1.368 1_554 S
C4201 C4202 1.366 . S
C4202 C4201 1.366 . S
C4202 C4203 1.414 . S
C4202 C4205 1.499 . S
C4203 H4177 0.950 . S
C4203 C4202 1.414 . S
C4203 C4204 1.374 . S
C4204 H4178 0.950 1_554 S
C4204 C4200 1.385 1_554 S
C4204 C4203 1.374 . S
C4205 C4202 1.499 . S
C4205 C4206 1.373 . S
C4205 C4207 1.389 . S
C4206 H4179 0.950 . S
C4206 C4192 1.377 . S
C4206 C4205 1.373 . S
C4207 C4191 1.377 . S
C4207 C4205 1.389 . S
C4207 C4208 1.524 . S
C4208 C4207 1.524 . S
C4208 C4209 1.397 . S
C4208 C4213 1.363 . S
C4209 H4180 0.950 . S
C4209 C4208 1.397 . S
C4209 C4210 1.334 . S
C4210 H4181 0.950 . S
C4210 C4209 1.334 . S
C4210 C4211 1.287 . S
C4211 C4210 1.287 . S
C4211 C4212 1.524 . S
C4211 H4214 0.999 . S
C4212 H4182 0.950 . S
C4212 C4211 1.524 . S
C4212 C4213 1.415 . S
C4213 H4183 0.950 . S
C4213 C4208 1.363 . S
C4213 C4212 1.415 . S
H4214 C4211 0.999 . S
H4215 C4196 0.913 . S
H4216 C4234 0.951 . S
H4217 C4236 0.951 . S
H4218 C4238 0.950 . S
H4219 C4239 0.950 . S
H4220 C4241 0.950 . S
H4221 C4244 0.950 . S
H4222 C4245 0.950 . S
H4223 C4247 0.950 . S
H4224 C4248 0.950 . S
H4225 C4249 0.951 . S
H4226 C4251 0.957 . S
H4227 C4253 0.950 . S
H4228 C4254 0.950 . S
H4229 C4256 0.950 . S
H4230 C4259 0.950 . S
H4231 C4260 0.950 . S
H4232 C4262 0.950 . S
H4233 C4263 0.950 . S
C4234 H4216 0.951 . S
C4234 C4235 1.366 . S
C4234 C4236 1.388 . S
C4235 C4234 1.366 . S
C4235 C4239 1.385 . S
C4236 H4217 0.951 . S
C4236 C4234 1.388 . S
C4236 C4237 1.366 . S
C4237 C4236 1.366 . S
C4237 C4238 1.414 . S
C4237 C4240 1.499 . S
C4238 H4218 0.950 . S
C4238 C4237 1.414 . S
C4238 C4239 1.374 . S
C4239 H4219 0.950 . S
C4239 C4235 1.385 . S
C4239 C4238 1.374 . S
C4240 C4237 1.499 . S
C4240 C4241 1.373 . S
C4240 C4242 1.389 . S
C4241 H4220 0.950 . S
C4241 C4240 1.373 . S
C4241 C4257 1.377 . S
C4242 C4240 1.389 . S
C4242 C4243 1.524 . S
C4242 C4256 1.377 . S
C4243 C4242 1.524 . S
C4243 C4244 1.397 . S
C4243 C4248 1.363 . S
C4244 H4221 0.950 . S
C4244 C4243 1.397 . S
C4244 C4245 1.334 . S
C4245 H4222 0.950 . S
C4245 C4244 1.334 . S
C4245 C4246 1.287 . S
C4246 C4245 1.287 . S
C4246 C4247 1.524 . S
C4246 H4265 0.913 . S
C4247 H4223 0.950 . S
C4247 C4246 1.524 . S
C4247 C4248 1.415 . S
C4248 H4224 0.950 . S
C4248 C4243 1.363 . S
C4248 C4247 1.415 . S
C4249 H4225 0.951 . S
C4249 C4250 1.366 . S
C4249 C4251 1.388 . S
C4250 C4249 1.366 . S
C4250 C4254 1.385 . S
C4251 H4226 0.957 . S
C4251 C4249 1.388 . S
C4251 C4252 1.366 1_556 S
C4252 C4251 1.366 1_554 S
C4252 C4253 1.414 . S
C4252 C4255 1.499 . S
C4253 H4227 0.950 . S
C4253 C4252 1.414 . S
C4253 C4254 1.374 1_554 S
C4254 H4228 0.950 . S
C4254 C4250 1.385 . S
C4254 C4253 1.374 1_556 S
C4255 C4252 1.499 . S
C4255 C4256 1.373 . S
C4255 C4257 1.389 . S
C4256 H4229 0.950 . S
C4256 C4242 1.377 . S
C4256 C4255 1.373 . S
C4257 C4241 1.377 . S
C4257 C4255 1.389 . S
C4257 C4258 1.524 . S
C4258 C4257 1.524 . S
C4258 C4259 1.397 . S
C4258 C4263 1.363 . S
C4259 H4230 0.950 . S
C4259 C4258 1.397 . S
C4259 C4260 1.334 . S
C4260 H4231 0.950 . S
C4260 C4259 1.334 . S
C4260 C4261 1.287 . S
C4261 C4260 1.287 . S
C4261 C4262 1.524 . S
C4261 H4264 0.999 . S
C4262 H4232 0.950 . S
C4262 C4261 1.524 . S
C4262 C4263 1.415 . S
C4263 H4233 0.950 . S
C4263 C4258 1.363 . S
C4263 C4262 1.415 . S
H4264 C4261 0.999 . S
H4265 C4246 0.913 . S
C685 C7 1.438 . S
C700 C568 1.437 . S
C750 C545 1.817 . S
C735 C39 1.793 . S
C800 C554 1.575 . S
C785 C62 1.568 . S
C835 C76 1.831 . S
C850 C624 1.830 . S
C885 C108 1.513 . S
C900 C643 1.513 . S
C935 N117 1.375 . S
C950 C657 1.386 . S
C1000 C619 1.421 . S
C985 C16 1.404 . S
C1035 C30 1.840 . S
C1050 C587 1.844 . S
C1100 C605 1.536 . S
C1085 C53 1.538 1_556 S
C1135 C85 1.810 . S
C1150 C507 1.811 . S
C1200 C517 1.717 . S
C1185 C99 1.708 . S
C1235 N127 1.281 . S
C1250 C531 1.325 . S
C1285 N150 1.158 . S
C1300 C652 1.172 . S
C1350 C629 1.592 . S
C1335 N173 1.568 . S
C1400 C638 1.421 . S
C1385 C200 1.402 . S
C1435 C214 1.659 . S
C1450 C456 1.664 . S
C1485 N232 1.552 . S
C1500 C475 1.571 . S
C1535 C260 1.530 . S
C1550 C489 1.551 . S
C1600 C451 1.271 . S
C1585 N140 1.228 . S
C1635 N163 1.298 . S
C1650 C419 1.344 . S
C1700 C437 1.617 . S
C1685 C191 1.615 . S
C1750 C591 1.904 . S
C1735 C223 1.911 . S
C1800 C601 1.516 . S
C1785 N242 1.463 . S
C1850 C615 1.490 . S
C1835 C269 1.491 . S
C1885 N288 1.295 . S
C1900 C484 1.309 . S
C1935 C315 1.546 . S
C1950 C461 1.593 . S
C1985 C338 1.637 . S
C2000 C470 1.653 . S
C2035 C352 1.848 . S
C2050 C540 1.847 . S
C2100 C559 1.618 . S
C2085 N370 1.600 . S
C2150 C573 1.606 . S
C2135 C398 1.595 . S
C2200 C535 1.226 . S
C2185 N278 1.178 . S
C2235 C306 1.743 . S
C2250 C503 1.756 . S
C2285 C329 1.639 . S
C2300 C521 1.638 . S
C2350 C423 1.556 . S
C2335 C361 1.562 . S
C2385 N380 1.504 . S
C2400 C433 1.555 . S
C2450 C447 1.466 . S
C2435 C407 1.465 . S
C2500 C467 1.379 . S
C2485 N12 1.340 . S
C2535 N25 1.566 . S
C2550 C479 1.584 . S
C2600 C493 1.320 . S
C2585 N48 1.302 . S
C2650 C495 1.322 . S
C2635 N81 1.306 . S
C2700 C465 1.541 . S
C2685 N94 1.495 . S
C2750 C481 1.548 . S
C2735 C131 1.534 . S
C2800 C425 1.380 . S
C2785 N2 1.373 . S
C2835 N35 1.488 . S
C2850 C428 1.518 . S
C2885 N58 1.263 . S
C2900 C442 1.288 . S
C2950 C453 1.267 . S
C2935 N71 1.229 . S
C3000 C414 1.380 . S
C2985 N104 1.358 . S
C3050 C439 1.567 . S
C3035 C122 1.572 . S
C3085 C145 1.978 . S
C3100 C551 1.984 . S
C3135 C168 1.729 . S
C3150 C563 1.730 . S
C3185 N186 1.420 . S
C3200 C577 1.433 . S
C3250 C579 1.344 . S
C3235 N219 1.332 . S
C3300 C549 1.795 . S
C3285 C246 1.775 . S
C3350 C565 1.467 . S
C3335 N265 1.447 . S
C3400 C509 1.872 . S
C3385 C154 1.880 . S
C3435 C177 1.825 . S
C3450 C512 1.814 . S
C3485 N196 1.263 . S
C3500 C526 1.288 . S
C3535 N209 1.138 . S
C3550 C537 1.181 . S
C3585 C237 1.814 . S
C3600 C498 1.797 . S
C3650 C523 1.427 . S
C3635 N255 1.382 . S
C3685 C283 1.753 . S
C3700 C635 1.752 . S
C3735 N301 1.445 . S
C3750 C647 1.460 . S
C3785 N324 1.293 . S
C3800 C661 1.304 . S
C3850 C663 1.167 . S
C3835 N357 1.150 . S
C3900 C633 1.767 . S
C3885 C384 1.753 . S
C3935 N403 1.300 . S
C3950 C649 1.317 . S
C3985 C292 1.851 . S
C4000 C593 1.839 . S
C4050 C596 1.390 . S
C4035 N311 1.361 . S
C4085 N334 1.366 . S
C4100 C610 1.398 . S
C4135 N347 1.268 . S
C4150 C621 1.304 . S
C4200 C582 1.849 . S
C4185 C375 1.861 . S
C4235 N393 1.325 . S
C4250 C607 1.370 . S
