# Generated by pormake.
# Topology ocu, (6,8)-cn, num edge types: 1
# Building blocks:
#     Node 0, Type 0, BuildingBlock: KUMBUR_clean_sbu_1, # of connection points: 6
#     Node 1, Type 0, BuildingBlock: KUMBUR_clean_sbu_1, # of connection points: 6
#     Node 2, Type 0, BuildingBlock: KUMBUR_clean_sbu_1, # of connection points: 6
#     Node 3, Type 0, BuildingBlock: KUMBUR_clean_sbu_1, # of connection points: 6
#     Node 4, Type 0, BuildingBlock: KUMBUR_clean_sbu_1, # of connection points: 6
#     Node 5, Type 0, BuildingBlock: KUMBUR_clean_sbu_1, # of connection points: 6
#     Node 6, Type 0, BuildingBlock: KUMBUR_clean_sbu_1, # of connection points: 6
#     Node 7, Type 0, BuildingBlock: KUMBUR_clean_sbu_1, # of connection points: 6
#     Node 8, Type 1, BuildingBlock: VETTIZ_charged_sbu_0, # of connection points: 8
#     Node 9, Type 1, BuildingBlock: VETTIZ_charged_sbu_0, # of connection points: 8
#     Node 10, Type 1, BuildingBlock: VETTIZ_charged_sbu_0, # of connection points: 8
#     Node 11, Type 1, BuildingBlock: VETTIZ_charged_sbu_0, # of connection points: 8
#     Node 12, Type 1, BuildingBlock: VETTIZ_charged_sbu_0, # of connection points: 8
#     Node 13, Type 1, BuildingBlock: VETTIZ_charged_sbu_0, # of connection points: 8
#     Edge 14, Type (0, 1), BuildingBlock: KIFKEQ_clean_linker_1, # of connection points: 2
#     Edge 15, Type (0, 1), BuildingBlock: KIFKEQ_clean_linker_1, # of connection points: 2
#     Edge 16, Type (0, 1), BuildingBlock: KIFKEQ_clean_linker_1, # of connection points: 2
#     Edge 17, Type (0, 1), BuildingBlock: KIFKEQ_clean_linker_1, # of connection points: 2
#     Edge 18, Type (0, 1), BuildingBlock: KIFKEQ_clean_linker_1, # of connection points: 2
#     Edge 19, Type (0, 1), BuildingBlock: KIFKEQ_clean_linker_1, # of connection points: 2
#     Edge 20, Type (0, 1), BuildingBlock: KIFKEQ_clean_linker_1, # of connection points: 2
#     Edge 21, Type (0, 1), BuildingBlock: KIFKEQ_clean_linker_1, # of connection points: 2
#     Edge 22, Type (0, 1), BuildingBlock: KIFKEQ_clean_linker_1, # of connection points: 2
#     Edge 23, Type (0, 1), BuildingBlock: KIFKEQ_clean_linker_1, # of connection points: 2
#     Edge 24, Type (0, 1), BuildingBlock: KIFKEQ_clean_linker_1, # of connection points: 2
#     Edge 25, Type (0, 1), BuildingBlock: KIFKEQ_clean_linker_1, # of connection points: 2
#     Edge 26, Type (0, 1), BuildingBlock: KIFKEQ_clean_linker_1, # of connection points: 2
#     Edge 27, Type (0, 1), BuildingBlock: KIFKEQ_clean_linker_1, # of connection points: 2
#     Edge 28, Type (0, 1), BuildingBlock: KIFKEQ_clean_linker_1, # of connection points: 2
#     Edge 29, Type (0, 1), BuildingBlock: KIFKEQ_clean_linker_1, # of connection points: 2
#     Edge 30, Type (0, 1), BuildingBlock: KIFKEQ_clean_linker_1, # of connection points: 2
#     Edge 31, Type (0, 1), BuildingBlock: KIFKEQ_clean_linker_1, # of connection points: 2
#     Edge 32, Type (0, 1), BuildingBlock: KIFKEQ_clean_linker_1, # of connection points: 2
#     Edge 33, Type (0, 1), BuildingBlock: KIFKEQ_clean_linker_1, # of connection points: 2
#     Edge 34, Type (0, 1), BuildingBlock: KIFKEQ_clean_linker_1, # of connection points: 2
#     Edge 35, Type (0, 1), BuildingBlock: KIFKEQ_clean_linker_1, # of connection points: 2
#     Edge 36, Type (0, 1), BuildingBlock: KIFKEQ_clean_linker_1, # of connection points: 2
#     Edge 37, Type (0, 1), BuildingBlock: KIFKEQ_clean_linker_1, # of connection points: 2
#     Edge 38, Type (0, 1), BuildingBlock: KIFKEQ_clean_linker_1, # of connection points: 2
#     Edge 39, Type (0, 1), BuildingBlock: KIFKEQ_clean_linker_1, # of connection points: 2
#     Edge 40, Type (0, 1), BuildingBlock: KIFKEQ_clean_linker_1, # of connection points: 2
#     Edge 41, Type (0, 1), BuildingBlock: KIFKEQ_clean_linker_1, # of connection points: 2
#     Edge 42, Type (0, 1), BuildingBlock: KIFKEQ_clean_linker_1, # of connection points: 2
#     Edge 43, Type (0, 1), BuildingBlock: KIFKEQ_clean_linker_1, # of connection points: 2
#     Edge 44, Type (0, 1), BuildingBlock: KIFKEQ_clean_linker_1, # of connection points: 2
#     Edge 45, Type (0, 1), BuildingBlock: KIFKEQ_clean_linker_1, # of connection points: 2
#     Edge 46, Type (0, 1), BuildingBlock: KIFKEQ_clean_linker_1, # of connection points: 2
#     Edge 47, Type (0, 1), BuildingBlock: KIFKEQ_clean_linker_1, # of connection points: 2
#     Edge 48, Type (0, 1), BuildingBlock: KIFKEQ_clean_linker_1, # of connection points: 2
#     Edge 49, Type (0, 1), BuildingBlock: KIFKEQ_clean_linker_1, # of connection points: 2
#     Edge 50, Type (0, 1), BuildingBlock: KIFKEQ_clean_linker_1, # of connection points: 2
#     Edge 51, Type (0, 1), BuildingBlock: KIFKEQ_clean_linker_1, # of connection points: 2
#     Edge 52, Type (0, 1), BuildingBlock: KIFKEQ_clean_linker_1, # of connection points: 2
#     Edge 53, Type (0, 1), BuildingBlock: KIFKEQ_clean_linker_1, # of connection points: 2
#     Edge 54, Type (0, 1), BuildingBlock: KIFKEQ_clean_linker_1, # of connection points: 2
#     Edge 55, Type (0, 1), BuildingBlock: KIFKEQ_clean_linker_1, # of connection points: 2
#     Edge 56, Type (0, 1), BuildingBlock: KIFKEQ_clean_linker_1, # of connection points: 2
#     Edge 57, Type (0, 1), BuildingBlock: KIFKEQ_clean_linker_1, # of connection points: 2
#     Edge 58, Type (0, 1), BuildingBlock: KIFKEQ_clean_linker_1, # of connection points: 2
#     Edge 59, Type (0, 1), BuildingBlock: KIFKEQ_clean_linker_1, # of connection points: 2
#     Edge 60, Type (0, 1), BuildingBlock: KIFKEQ_clean_linker_1, # of connection points: 2
#     Edge 61, Type (0, 1), BuildingBlock: KIFKEQ_clean_linker_1, # of connection points: 2
# Relax obj value: 0.070
# Max RMSD: 0.135
# Mean RMSD: 0.100
data_MOF--net-ocu--node1-KUMBUR_clean_sbu_1--node2-VETTIZ_charged_sbu_0--edge1-KIFKEQ_clean_linker_1
_symmetry_space_group_name_H-M    P1
_symmetry_Int_Tables_number       1
_symmetry_cell_setting            triclinic
loop_
_symmetry_equiv_pos_as_xyz
'x, y, z'
_cell_length_a     38.761456
_cell_length_b     40.649059
_cell_length_c     41.633813
_cell_angle_alpha  100.46672
_cell_angle_beta   79.648637
_cell_angle_gamma 104.0775
loop_
_atom_site_label
_atom_site_type_symbol
_atom_site_fract_x
_atom_site_fract_y
_atom_site_fract_z
_atom_type_partial_charge
Tb0 Tb 0.25447 0.2604 0.24491 0.0
C1 C 0.33326 0.34192 0.35906 0.0
N2 N 0.34795 0.32757 0.32928 0.0
C3 C 0.39311 0.37947 0.32485 0.0
C4 C 0.34689 0.37619 0.3722 0.0
C5 C 0.37907 0.34513 0.31328 0.0
C6 C 0.37649 0.39532 0.35411 0.0
C7 C 0.29308 0.33371 0.41016 0.0
C8 C 0.30676 0.32114 0.3778 0.0
C9 C 0.30491 0.36839 0.42264 0.0
C10 C 0.33173 0.38964 0.40364 0.0
Tb11 Tb 0.32064 0.27183 0.31202 0.0
N12 N 0.29583 0.28786 0.3648 0.0
C13 C 0.26905 0.31068 0.42936 0.0
C14 C 0.27468 0.26473 0.38416 0.0
C15 C 0.26043 0.27588 0.41653 0.0
H16 H 0.39352 0.33271 0.29173 0.0
H17 H 0.24284 0.25768 0.43152 0.0
H18 H 0.20041 0.18523 0.25737 0.0
H19 H 0.34321 0.30323 0.1371 0.0
H20 H 0.26837 0.23787 0.37429 0.0
H21 H 0.25801 0.31927 0.45443 0.0
H22 H 0.30903 0.31087 0.19251 0.0
H23 H 0.41717 0.39347 0.31152 0.0
H24 H 0.29441 0.37873 0.44731 0.0
H25 H 0.34156 0.41603 0.414 0.0
H26 H 0.18703 0.12706 0.22652 0.0
H27 H 0.38779 0.42174 0.36331 0.0
H28 H 0.33622 0.2457 0.10373 0.0
N29 N 0.24009 0.20538 0.21921 0.0
C30 C 0.25606 0.19941 0.18748 0.0
C31 C 0.2068 0.1471 0.21538 0.0
C32 C 0.24901 0.16651 0.16885 0.0
C33 C 0.21486 0.18011 0.233 0.0
C34 C 0.22415 0.14018 0.18328 0.0
N35 N 0.28631 0.25773 0.19287 0.0
C36 C 0.30746 0.28537 0.1794 0.0
C37 C 0.29831 0.2209 0.14161 0.0
C38 C 0.2804 0.2263 0.17409 0.0
C39 C 0.32191 0.24878 0.12858 0.0
C40 C 0.32612 0.28124 0.14742 0.0
H41 H 0.21793 0.11454 0.16976 0.0
H42 H 0.26222 0.13579 0.12197 0.0
H43 H 0.3054 0.18338 0.09812 0.0
O44 O 0.23226 0.2813 0.21233 0.0
O45 O 0.29188 0.22513 0.23991 0.0
O46 O 0.34284 0.25731 0.26039 0.0
O47 O 0.19807 0.25425 0.25119 0.0
O48 O 0.29319 0.30993 0.25151 0.0
O49 O 0.34227 0.29845 0.26851 0.0
O50 O 0.32919 0.22672 0.32423 0.0
O51 O 0.26826 0.28645 0.32829 0.0
O52 O 0.25791 0.30565 0.28329 0.0
O53 O 0.36664 0.27463 0.33336 0.0
O54 O 0.28078 0.22384 0.30225 0.0
O55 O 0.23049 0.23642 0.28973 0.0
C56 C 0.32719 0.23281 0.23891 0.0
C57 C 0.16759 0.27697 0.21627 0.0
C58 C 0.13826 0.31043 0.19038 0.0
C59 C 0.10489 0.28935 0.20034 0.0
C60 C 0.13382 0.25643 0.22582 0.0
C61 C 0.10279 0.26248 0.21769 0.0
C62 C 0.1698 0.30377 0.19798 0.0
C63 C 0.32771 0.31726 0.25438 0.0
C64 C 0.19981 0.27094 0.22681 0.0
C65 C 0.26712 0.16094 0.13663 0.0
C66 C 0.29177 0.18804 0.12307 0.0
C67 C 0.25311 0.30549 0.3153 0.0
C68 C 0.38938 0.22447 0.32288 0.0
C69 C 0.42483 0.18641 0.33338 0.0
C70 C 0.44776 0.19265 0.3037 0.0
C71 C 0.41222 0.23008 0.29332 0.0
C72 C 0.39533 0.20229 0.34241 0.0
C73 C 0.44121 0.21404 0.28375 0.0
C74 C 0.24565 0.21977 0.30575 0.0
C75 C 0.3596 0.24195 0.33445 0.0
H76 H 0.08031 0.2936 0.19454 0.0
H77 H 0.13136 0.23566 0.23969 0.0
H78 H 0.0769 0.24644 0.22514 0.0
H79 H 0.19565 0.32006 0.19073 0.0
H80 H 0.4712 0.1816 0.29609 0.0
H81 H 0.40785 0.24708 0.27795 0.0
H82 H 0.37677 0.19755 0.36472 0.0
H83 H 0.459 0.21861 0.26103 0.0
Tb84 Tb 0.75321 0.3058 0.28824 0.0
C85 C 0.84958 0.20048 0.20327 0.0
N86 N 0.81851 0.19523 0.22458 0.0
C87 C 0.79601 0.14314 0.19009 0.0
C88 C 0.85502 0.17737 0.17419 0.0
C89 C 0.79206 0.16668 0.2188 0.0
C90 C 0.82756 0.14859 0.16758 0.0
C91 C 0.90932 0.23507 0.19011 0.0
C92 C 0.87628 0.22888 0.21105 0.0
C93 C 0.91483 0.21234 0.16089 0.0
C94 C 0.88772 0.18358 0.15291 0.0
Tb95 Tb 0.81479 0.23563 0.27013 0.0
N96 N 0.8695 0.25077 0.23902 0.0
C97 C 0.93571 0.26393 0.19921 0.0
C98 C 0.89569 0.27818 0.24874 0.0
C99 C 0.92894 0.28542 0.22878 0.0
H100 H 0.76821 0.1617 0.23667 0.0
H101 H 0.94934 0.30755 0.23625 0.0
H102 H 0.7719 0.35196 0.35942 0.0
H103 H 0.62878 0.22286 0.25363 0.0
H104 H 0.89088 0.29483 0.27156 0.0
H105 H 0.96145 0.26967 0.18377 0.0
H106 H 0.68788 0.26133 0.24352 0.0
H107 H 0.77489 0.12065 0.1855 0.0
H108 H 0.93998 0.21672 0.14436 0.0
H109 H 0.89241 0.16616 0.13039 0.0
H110 H 0.74344 0.35678 0.41773 0.0
H111 H 0.83064 0.13021 0.14547 0.0
H112 H 0.59999 0.21648 0.31088 0.0
N113 N 0.72886 0.31298 0.34257 0.0
C114 C 0.69552 0.29365 0.35054 0.0
C115 C 0.72975 0.33882 0.39909 0.0
C116 C 0.67844 0.29521 0.38347 0.0
C117 C 0.74578 0.33609 0.3661 0.0
C118 C 0.69607 0.31807 0.40788 0.0
N119 N 0.69619 0.27169 0.29397 0.0
C120 C 0.67726 0.25662 0.26841 0.0
C121 C 0.64419 0.2515 0.33267 0.0
C122 C 0.67898 0.27176 0.32549 0.0
C123 C 0.62673 0.23236 0.30646 0.0
C124 C 0.64298 0.2357 0.27414 0.0
H125 H 0.68386 0.32004 0.43349 0.0
H126 H 0.63115 0.27434 0.41615 0.0
H127 H 0.60094 0.2363 0.37159 0.0
O128 O 0.72221 0.32758 0.26423 0.0
O129 O 0.7603 0.27748 0.32616 0.0
O130 O 0.76091 0.22469 0.29724 0.0
O131 O 0.75385 0.35849 0.30147 0.0
O132 O 0.75169 0.26886 0.24211 0.0
O133 O 0.75971 0.22099 0.25903 0.0
O134 O 0.83884 0.23581 0.31136 0.0
O135 O 0.82651 0.26998 0.23308 0.0
O136 O 0.80175 0.3182 0.25274 0.0
O137 O 0.82647 0.18963 0.27669 0.0
O138 O 0.83092 0.28203 0.30533 0.0
O139 O 0.80664 0.32846 0.30192 0.0
C140 C 0.7518 0.24412 0.3245 0.0
C141 C 0.71971 0.38812 0.27735 0.0
C142 C 0.6895 0.41698 0.24784 0.0
C143 C 0.69566 0.44628 0.27168 0.0
C144 C 0.72572 0.41775 0.30075 0.0
C145 C 0.71372 0.44661 0.29787 0.0
C146 C 0.70173 0.38792 0.25076 0.0
C147 C 0.74823 0.23535 0.23842 0.0
C148 C 0.73193 0.35758 0.28108 0.0
C149 C 0.64456 0.27385 0.39093 0.0
C150 C 0.62746 0.25204 0.36558 0.0
C151 C 0.82376 0.30137 0.23204 0.0
C152 C 0.82538 0.18383 0.3322 0.0
C153 C 0.83979 0.16156 0.37738 0.0
C154 C 0.80297 0.14793 0.38632 0.0
C155 C 0.78883 0.16964 0.34084 0.0
C156 C 0.85054 0.18007 0.35062 0.0
C157 C 0.77767 0.15205 0.36809 0.0
C158 C 0.82965 0.31483 0.3121 0.0
C159 C 0.83837 0.20317 0.30448 0.0
H160 H 0.68699 0.46917 0.26977 0.0
H161 H 0.73951 0.41856 0.32142 0.0
H162 H 0.71848 0.46935 0.316 0.0
H163 H 0.69698 0.36518 0.23256 0.0
H164 H 0.79385 0.13325 0.40667 0.0
H165 H 0.76915 0.17199 0.32648 0.0
H166 H 0.87872 0.19147 0.34386 0.0
H167 H 0.74944 0.14108 0.37472 0.0
Tb168 Tb 0.78668 0.73694 0.30897 0.0
C169 C 0.8796 0.83046 0.20106 0.0
N170 N 0.86398 0.84049 0.23206 0.0
C171 C 0.91429 0.88769 0.23921 0.0
C172 C 0.91354 0.84855 0.18798 0.0
C173 C 0.88046 0.86903 0.25103 0.0
C174 C 0.93099 0.87733 0.20761 0.0
C175 C 0.87636 0.79091 0.14989 0.0
C176 C 0.86133 0.80198 0.18228 0.0
C177 C 0.91025 0.80877 0.13677 0.0
C178 C 0.92882 0.83748 0.15578 0.0
Tb179 Tb 0.8088 0.80806 0.24815 0.0
N180 N 0.82918 0.78456 0.19625 0.0
C181 C 0.85689 0.76218 0.13176 0.0
C182 C 0.8093 0.75758 0.17812 0.0
C183 C 0.82307 0.74564 0.14585 0.0
H184 H 0.86709 0.87802 0.27489 0.0
H185 H 0.80747 0.72386 0.13177 0.0
H186 H 0.71951 0.6742 0.28478 0.0
H187 H 0.80101 0.82256 0.42376 0.0
H188 H 0.78286 0.74528 0.18832 0.0
H189 H 0.86749 0.75283 0.10678 0.0
H190 H 0.82164 0.79635 0.36782 0.0
H191 H 0.92728 0.91026 0.25434 0.0
H192 H 0.92232 0.8006 0.11195 0.0
H193 H 0.9549 0.85103 0.14531 0.0
H194 H 0.65677 0.65038 0.30677 0.0
H195 H 0.95711 0.89194 0.19847 0.0
H196 H 0.73856 0.80246 0.44986 0.0
N197 N 0.72834 0.71254 0.32635 0.0
C198 C 0.71495 0.72501 0.35743 0.0
C199 C 0.6727 0.67165 0.32113 0.0
C200 C 0.67946 0.71169 0.37134 0.0
C201 C 0.7081 0.68566 0.30843 0.0
C202 C 0.65822 0.68486 0.35264 0.0
N203 N 0.77105 0.76364 0.36092 0.0
C204 C 0.79418 0.78823 0.37824 0.0
C205 C 0.72427 0.7648 0.40773 0.0
C206 C 0.73714 0.7511 0.37547 0.0
C207 C 0.74743 0.79118 0.42503 0.0
C208 C 0.78263 0.80273 0.4103 0.0
H209 H 0.63083 0.67384 0.36247 0.0
H210 H 0.63923 0.7155 0.41453 0.0
H211 H 0.67839 0.76212 0.44632 0.0
O212 O 0.82156 0.72448 0.33615 0.0
O213 O 0.75207 0.7747 0.31596 0.0
O214 O 0.78801 0.82476 0.29957 0.0
O215 O 0.78059 0.68546 0.31422 0.0
O216 O 0.8395 0.7716 0.30375 0.0
O217 O 0.8327 0.82367 0.29421 0.0
O218 O 0.76695 0.81349 0.22479 0.0
O219 O 0.84375 0.77022 0.23682 0.0
O220 O 0.8123 0.72114 0.25889 0.0
O221 O 0.80975 0.85649 0.23623 0.0
O222 O 0.75732 0.77033 0.25148 0.0
O223 O 0.76717 0.71991 0.26184 0.0
C224 C 0.75992 0.8084 0.31779 0.0
C225 C 0.79697 0.67549 0.36299 0.0
C226 C 0.81714 0.64675 0.40065 0.0
C227 C 0.78133 0.63798 0.41602 0.0
C228 C 0.76155 0.66643 0.37874 0.0
C229 C 0.75392 0.64811 0.40532 0.0
C230 C 0.82466 0.66613 0.37438 0.0
C231 C 0.84899 0.80513 0.30695 0.0
C232 C 0.80545 0.6922 0.33311 0.0
C233 C 0.66647 0.72534 0.40345 0.0
C234 C 0.68879 0.75186 0.42158 0.0
C235 C 0.8393 0.73748 0.23947 0.0
C236 C 0.75338 0.86836 0.2342 0.0
C237 C 0.71162 0.89818 0.21956 0.0
C238 C 0.70484 0.9119 0.25311 0.0
C239 C 0.74595 0.88234 0.2673 0.0
C240 C 0.73606 0.87615 0.2104 0.0
C241 C 0.72173 0.90386 0.2767 0.0
C242 C 0.75053 0.7367 0.24779 0.0
C243 C 0.7796 0.84615 0.22414 0.0
H244 H 0.77413 0.62248 0.43577 0.0
H245 H 0.73962 0.67263 0.37009 0.0
H246 H 0.72647 0.64093 0.41714 0.0
H247 H 0.85198 0.67361 0.3623 0.0
H248 H 0.68704 0.92951 0.2612 0.0
H249 H 0.75929 0.87689 0.28571 0.0
H250 H 0.74163 0.86495 0.18486 0.0
H251 H 0.71636 0.91473 0.30234 0.0
Tb252 Tb 0.26188 0.78908 0.27835 0.0
C253 C 0.33344 0.70009 0.33452 0.0
N254 N 0.34849 0.73001 0.32234 0.0
C255 C 0.37755 0.75172 0.3706 0.0
C256 C 0.33846 0.69543 0.36596 0.0
C257 C 0.37194 0.75497 0.33917 0.0
C258 C 0.36024 0.72207 0.38433 0.0
C259 C 0.29844 0.64178 0.32596 0.0
C260 C 0.31401 0.6735 0.31478 0.0
C261 C 0.30232 0.63736 0.35771 0.0
C262 C 0.32232 0.66413 0.37766 0.0
Tb263 Tb 0.33519 0.73264 0.27145 0.0
N264 N 0.31001 0.67908 0.2846 0.0
C265 C 0.27958 0.6155 0.30481 0.0
C266 C 0.29302 0.65315 0.26329 0.0
C267 C 0.27721 0.62111 0.2732 0.0
H268 H 0.38733 0.77702 0.3282 0.0
H269 H 0.26323 0.60077 0.25646 0.0
H270 H 0.23658 0.76696 0.20447 0.0
H271 H 0.2918 0.91487 0.35036 0.0
H272 H 0.29141 0.65716 0.23873 0.0
H273 H 0.2672 0.5907 0.31245 0.0
H274 H 0.26951 0.85209 0.34208 0.0
H275 H 0.3957 0.77188 0.38399 0.0
H276 H 0.29036 0.61324 0.3669 0.0
H277 H 0.32563 0.66017 0.40188 0.0
H278 H 0.24173 0.79421 0.15461 0.0
H279 H 0.36485 0.71952 0.40858 0.0
H280 H 0.30894 0.94648 0.30233 0.0
N281 N 0.26346 0.81238 0.23189 0.0
C282 C 0.27679 0.84655 0.23331 0.0
C283 C 0.252 0.80918 0.17651 0.0
C284 C 0.28038 0.86324 0.20569 0.0
C285 C 0.24898 0.79387 0.20471 0.0
C286 C 0.26851 0.84388 0.17675 0.0
N287 N 0.27688 0.84775 0.28964 0.0
C288 C 0.27792 0.86545 0.32082 0.0
C289 C 0.29602 0.90085 0.26688 0.0
C290 C 0.28422 0.86492 0.26334 0.0
C291 C 0.29987 0.91885 0.2985 0.0
C292 C 0.29016 0.9011 0.32567 0.0
H293 H 0.27077 0.85571 0.15493 0.0
H294 H 0.29771 0.91215 0.18737 0.0
H295 H 0.31159 0.94517 0.24108 0.0
O296 O 0.21588 0.80694 0.30299 0.0
O297 O 0.30133 0.78561 0.23333 0.0
O298 O 0.35131 0.78178 0.25284 0.0
O299 O 0.21107 0.7592 0.27066 0.0
O300 O 0.29831 0.80479 0.31684 0.0
O301 O 0.35062 0.78709 0.2923 0.0
O302 O 0.35933 0.70978 0.22649 0.0
O303 O 0.28096 0.71801 0.29859 0.0
O304 O 0.26778 0.76952 0.32205 0.0
O305 O 0.38685 0.72361 0.26911 0.0
O306 O 0.30174 0.71884 0.23118 0.0
O307 O 0.24991 0.73462 0.25854 0.0
C308 C 0.33629 0.7903 0.23081 0.0
C309 C 0.16977 0.75956 0.31894 0.0
C310 C 0.14189 0.75815 0.37607 0.0
C311 C 0.12409 0.72403 0.36807 0.0
C312 C 0.15184 0.72519 0.31116 0.0
C313 C 0.12947 0.70749 0.3357 0.0
C314 C 0.16469 0.77565 0.35147 0.0
C315 C 0.33348 0.80783 0.31391 0.0
C316 C 0.19432 0.7782 0.29341 0.0
C317 C 0.29421 0.89881 0.20841 0.0
C318 C 0.3021 0.9176 0.23899 0.0
C319 C 0.26521 0.737 0.32296 0.0
C320 C 0.41924 0.73999 0.21863 0.0
C321 C 0.44671 0.75842 0.16554 0.0
C322 C 0.46799 0.78751 0.18169 0.0
C323 C 0.44031 0.76959 0.23461 0.0
C324 C 0.42276 0.73471 0.18422 0.0
C325 C 0.46463 0.79307 0.21614 0.0
C326 C 0.26702 0.71748 0.23358 0.0
C327 C 0.3903 0.71674 0.23712 0.0
H328 H 0.10568 0.71059 0.38665 0.0
H329 H 0.15491 0.71205 0.28614 0.0
H330 H 0.11577 0.6811 0.32946 0.0
H331 H 0.17753 0.8024 0.35753 0.0
H332 H 0.48725 0.80565 0.16768 0.0
H333 H 0.43762 0.77497 0.26128 0.0
H334 H 0.40695 0.71163 0.1719 0.0
H335 H 0.48077 0.81574 0.22859 0.0
Tb336 Tb 0.2617 0.79539 0.78414 0.0
C337 C 0.36748 0.7046 0.69517 0.0
N338 N 0.33611 0.69485 0.71505 0.0
C339 C 0.31875 0.64577 0.67498 0.0
C340 C 0.37566 0.68541 0.66415 0.0
C341 C 0.312 0.66555 0.70567 0.0
C342 C 0.35065 0.65582 0.65404 0.0
C343 C 0.42488 0.74457 0.68681 0.0
C344 C 0.39171 0.73376 0.70629 0.0
C345 C 0.43311 0.72573 0.65573 0.0
C346 C 0.40853 0.69624 0.6444 0.0
Tb347 Tb 0.32763 0.72953 0.76417 0.0
N348 N 0.38235 0.75176 0.73617 0.0
C349 C 0.44873 0.77395 0.6992 0.0
C350 C 0.40614 0.77962 0.74892 0.0
C351 C 0.43942 0.79137 0.73051 0.0
H352 H 0.28796 0.65692 0.72221 0.0
H353 H 0.45796 0.81374 0.74058 0.0
H354 H 0.28617 0.84513 0.85202 0.0
H355 H 0.13657 0.70633 0.76008 0.0
H356 H 0.39987 0.79288 0.77326 0.0
H357 H 0.47451 0.78314 0.685 0.0
H358 H 0.19484 0.74385 0.74489 0.0
H359 H 0.2995 0.62262 0.66764 0.0
H360 H 0.45842 0.73369 0.64031 0.0
H361 H 0.4153 0.68188 0.62044 0.0
H362 H 0.26075 0.85519 0.91089 0.0
H363 H 0.35589 0.64035 0.63035 0.0
H364 H 0.1102 0.70702 0.8188 0.0
N365 N 0.24128 0.80617 0.83905 0.0
C366 C 0.20788 0.78822 0.84935 0.0
C367 C 0.24568 0.83617 0.89386 0.0
C368 C 0.19237 0.79299 0.88271 0.0
C369 C 0.2601 0.83032 0.86058 0.0
C370 C 0.21173 0.81734 0.90502 0.0
N371 N 0.20567 0.76059 0.79436 0.0
C372 C 0.18572 0.742 0.77057 0.0
C373 C 0.15534 0.74468 0.83632 0.0
C374 C 0.18987 0.76413 0.82642 0.0
C375 C 0.13677 0.72242 0.81225 0.0
C376 C 0.1517 0.7217 0.77913 0.0
H377 H 0.20074 0.82176 0.93086 0.0
H378 H 0.1462 0.77604 0.91834 0.0
H379 H 0.11367 0.73387 0.8777 0.0
O380 O 0.22872 0.81327 0.75897 0.0
O381 O 0.26912 0.76676 0.82157 0.0
O382 O 0.27409 0.71537 0.7913 0.0
O383 O 0.25765 0.8471 0.79686 0.0
O384 O 0.25917 0.75827 0.73813 0.0
O385 O 0.27264 0.71155 0.75284 0.0
O386 O 0.35319 0.72541 0.80339 0.0
O387 O 0.3341 0.76304 0.72684 0.0
O388 O 0.31026 0.81095 0.74975 0.0
O389 O 0.33768 0.68177 0.76699 0.0
O390 O 0.33914 0.774 0.80299 0.0
O391 O 0.31626 0.81929 0.79459 0.0
C392 C 0.26291 0.73336 0.81882 0.0
C393 C 0.22022 0.87198 0.77145 0.0
C394 C 0.18781 0.8962 0.73986 0.0
C395 C 0.18898 0.92513 0.7643 0.0
C396 C 0.22142 0.90121 0.79546 0.0
C397 C 0.2058 0.9276 0.79186 0.0
C398 C 0.20353 0.86967 0.74359 0.0
C399 C 0.25865 0.72517 0.73332 0.0
C400 C 0.23547 0.84364 0.77599 0.0
C401 C 0.15845 0.77298 0.89277 0.0
C402 C 0.14002 0.74882 0.86965 0.0
C403 C 0.33023 0.79425 0.72661 0.0
C404 C 0.38969 0.68474 0.79016 0.0
C405 C 0.4313 0.66606 0.81687 0.0
C406 C 0.45413 0.66369 0.78651 0.0
C407 C 0.41277 0.68205 0.76018 0.0
C408 C 0.39933 0.67733 0.81847 0.0
C409 C 0.44499 0.67194 0.7585 0.0
C410 C 0.33847 0.80693 0.8073 0.0
C411 C 0.35473 0.69364 0.79225 0.0
H412 H 0.17748 0.94614 0.76178 0.0
H413 H 0.23408 0.90352 0.81718 0.0
H414 H 0.20678 0.95006 0.81046 0.0
H415 H 0.20253 0.8472 0.72491 0.0
H416 H 0.47853 0.6544 0.78398 0.0
H417 H 0.40569 0.68704 0.73794 0.0
H418 H 0.3815 0.67986 0.84159 0.0
H419 H 0.46252 0.66966 0.73521 0.0
Tb420 Tb 0.28054 0.23335 0.801 0.0
C421 C 0.37627 0.31579 0.69254 0.0
N422 N 0.36202 0.32867 0.72318 0.0
C423 C 0.41726 0.36996 0.72918 0.0
C424 C 0.41201 0.32914 0.6793 0.0
C425 C 0.38169 0.35585 0.74131 0.0
C426 C 0.43257 0.35644 0.69813 0.0
C427 C 0.36896 0.27439 0.6429 0.0
C428 C 0.35496 0.28878 0.6745 0.0
C429 C 0.40462 0.28753 0.62968 0.0
C430 C 0.42607 0.31484 0.64781 0.0
Tb431 Tb 0.30359 0.30365 0.73951 0.0
N432 N 0.3209 0.2759 0.68852 0.0
C433 C 0.34673 0.2471 0.62563 0.0
C434 C 0.29861 0.25044 0.67112 0.0
C435 C 0.31131 0.2353 0.63969 0.0
H436 H 0.36972 0.36746 0.76465 0.0
H437 H 0.29366 0.21473 0.62621 0.0
H438 H 0.22478 0.16177 0.77396 0.0
H439 H 0.27701 0.31803 0.91712 0.0
H440 H 0.27101 0.24199 0.68105 0.0
H441 H 0.35648 0.23526 0.6013 0.0
H442 H 0.30426 0.29576 0.86179 0.0
H443 H 0.43272 0.39149 0.74366 0.0
H444 H 0.41588 0.27675 0.60545 0.0
H445 H 0.4535 0.32473 0.63725 0.0
H446 H 0.16403 0.12922 0.79269 0.0
H447 H 0.46012 0.36748 0.6888 0.0
H448 H 0.21572 0.2897 0.93991 0.0
N449 N 0.22536 0.20024 0.81602 0.0
C450 C 0.2082 0.2107 0.84621 0.0
C451 C 0.17601 0.15228 0.80786 0.0
C452 C 0.17385 0.19255 0.85827 0.0
C453 C 0.21015 0.17107 0.79704 0.0
C454 C 0.15767 0.16317 0.83852 0.0
N455 N 0.25823 0.25666 0.85238 0.0
C456 C 0.27734 0.2837 0.87108 0.0
C457 C 0.20886 0.25105 0.89691 0.0
C458 C 0.22541 0.23952 0.86528 0.0
C459 C 0.2275 0.27998 0.91548 0.0
C460 C 0.26205 0.29613 0.90264 0.0
H461 H 0.13129 0.14847 0.84689 0.0
H462 H 0.13053 0.19058 0.89933 0.0
H463 H 0.16119 0.24183 0.93314 0.0
O464 O 0.32254 0.22897 0.82471 0.0
O465 O 0.24582 0.27114 0.81103 0.0
O466 O 0.27673 0.32063 0.78905 0.0
O467 O 0.28009 0.18543 0.81378 0.0
O468 O 0.33143 0.27185 0.79801 0.0
O469 O 0.32204 0.3222 0.78706 0.0
O470 O 0.26817 0.31378 0.71158 0.0
O471 O 0.33823 0.26619 0.73414 0.0
O472 O 0.3017 0.21624 0.74989 0.0
O473 O 0.31199 0.35338 0.72787 0.0
O474 O 0.25073 0.26878 0.74401 0.0
O475 O 0.25764 0.21715 0.75461 0.0
C476 C 0.25046 0.30404 0.80909 0.0
C477 C 0.3369 0.17451 0.81532 0.0
C478 C 0.37775 0.14379 0.82999 0.0
C479 C 0.38631 0.1319 0.79618 0.0
C480 C 0.34608 0.16242 0.78192 0.0
C481 C 0.37074 0.14133 0.77244 0.0
C482 C 0.35292 0.16538 0.83925 0.0
C483 C 0.3375 0.30548 0.80241 0.0
C484 C 0.31035 0.1963 0.82561 0.0
C485 C 0.15697 0.20413 0.88965 0.0
C486 C 0.17444 0.23331 0.90893 0.0
C487 C 0.33012 0.23252 0.73206 0.0
C488 C 0.25865 0.36979 0.72503 0.0
C489 C 0.21586 0.39936 0.71299 0.0
C490 C 0.21033 0.4131 0.7466 0.0
C491 C 0.25309 0.38408 0.75833 0.0
C492 C 0.24013 0.37758 0.70237 0.0
C493 C 0.22889 0.40548 0.76907 0.0
C494 C 0.24124 0.23525 0.74148 0.0
C495 C 0.28319 0.3463 0.71383 0.0
H496 H 0.40452 0.11468 0.78796 0.0
H497 H 0.3339 0.16901 0.76326 0.0
H498 H 0.37751 0.13191 0.74658 0.0
H499 H 0.34607 0.17526 0.86499 0.0
H500 H 0.1921 0.43025 0.75543 0.0
H501 H 0.26765 0.37882 0.77592 0.0
H502 H 0.24431 0.36642 0.67665 0.0
H503 H 0.22469 0.41637 0.79482 0.0
Tb504 Tb 0.74729 0.2989 0.77856 0.0
C505 C 0.80893 0.1947 0.82303 0.0
N506 N 0.82282 0.22865 0.82282 0.0
C507 C 0.83345 0.23486 0.87888 0.0
C508 C 0.80454 0.17975 0.85188 0.0
C509 C 0.8371 0.24848 0.84958 0.0
C510 C 0.81639 0.2005 0.88025 0.0
C511 C 0.78831 0.13909 0.79211 0.0
C512 C 0.80111 0.17482 0.79363 0.0
C513 C 0.78155 0.12418 0.8212 0.0
C514 C 0.78973 0.14449 0.85106 0.0
Tb515 Tb 0.82562 0.249 0.77444 0.0
N516 N 0.80892 0.19019 0.76609 0.0
C517 C 0.78416 0.11935 0.76126 0.0
C518 C 0.80792 0.17062 0.73568 0.0
C519 C 0.79469 0.13513 0.73286 0.0
H520 H 0.84983 0.27515 0.8486 0.0
H521 H 0.793 0.11992 0.70876 0.0
H522 H 0.69125 0.24743 0.72843 0.0
H523 H 0.80649 0.4339 0.78602 0.0
H524 H 0.81715 0.18224 0.71341 0.0
H525 H 0.77432 0.09181 0.75899 0.0
H526 H 0.78808 0.37756 0.80574 0.0
H527 H 0.8436 0.25087 0.90039 0.0
H528 H 0.77126 0.09683 0.82063 0.0
H529 H 0.7856 0.13252 0.87307 0.0
H530 H 0.67359 0.2483 0.67487 0.0
H531 H 0.81355 0.19001 0.90296 0.0
H532 H 0.79271 0.43999 0.73186 0.0
N533 N 0.72623 0.297 0.73004 0.0
C534 C 0.73647 0.32643 0.7164 0.0
C535 C 0.69175 0.27031 0.68603 0.0
C536 C 0.72582 0.32859 0.68635 0.0
C537 C 0.70259 0.26965 0.71615 0.0
C538 C 0.70385 0.29974 0.67079 0.0
N539 N 0.76533 0.35189 0.76266 0.0
C540 C 0.78228 0.37987 0.78195 0.0
C541 C 0.76595 0.38665 0.72138 0.0
C542 C 0.75613 0.35505 0.7336 0.0
C543 C 0.78467 0.41521 0.74036 0.0
C544 C 0.79256 0.41186 0.77093 0.0
H545 H 0.69507 0.30031 0.64765 0.0
H546 H 0.72883 0.36181 0.65019 0.0
H547 H 0.76409 0.41268 0.68087 0.0
O548 O 0.72523 0.32012 0.82517 0.0
O549 O 0.79964 0.31689 0.74901 0.0
O550 O 0.82213 0.26826 0.72957 0.0
O551 O 0.69372 0.30432 0.78518 0.0
O552 O 0.78274 0.31772 0.81738 0.0
O553 O 0.83512 0.30418 0.78944 0.0
O554 O 0.87166 0.23 0.75238 0.0
O555 O 0.78502 0.25328 0.81872 0.0
O556 O 0.73523 0.24941 0.7958 0.0
O557 O 0.87626 0.27834 0.7837 0.0
O558 O 0.79257 0.23192 0.73343 0.0
O559 O 0.73768 0.24419 0.75749 0.0
C560 C 0.81993 0.29944 0.72695 0.0
C561 C 0.66625 0.28931 0.83765 0.0
C562 C 0.64167 0.27502 0.89279 0.0
C563 C 0.61958 0.24495 0.87904 0.0
C564 C 0.64449 0.25874 0.82407 0.0
C565 C 0.62122 0.2368 0.84476 0.0
C566 C 0.66465 0.29705 0.87188 0.0
C567 C 0.81785 0.32101 0.81433 0.0
C568 C 0.69303 0.31206 0.81695 0.0
C569 C 0.73653 0.35971 0.67337 0.0
C570 C 0.75652 0.3887 0.69088 0.0
C571 C 0.75014 0.24411 0.81951 0.0
C572 C 0.91933 0.27613 0.73669 0.0
C573 C 0.94883 0.27552 0.67986 0.0
C574 C 0.96654 0.30981 0.68708 0.0
C575 C 0.93737 0.31057 0.74378 0.0
C576 C 0.9254 0.25894 0.70471 0.0
C577 C 0.96057 0.32732 0.71901 0.0
C578 C 0.75745 0.22726 0.73442 0.0
C579 C 0.89334 0.25859 0.76213 0.0
H580 H 0.60091 0.22811 0.89476 0.0
H581 H 0.64567 0.25159 0.7976 0.0
H582 H 0.60444 0.2134 0.83419 0.0
H583 H 0.68092 0.32097 0.88229 0.0
H584 H 0.98517 0.32273 0.66825 0.0
H585 H 0.93356 0.32453 0.76842 0.0
H586 H 0.91251 0.23212 0.69921 0.0
H587 H 0.97427 0.35381 0.7247 0.0
Tb588 Tb 0.76212 0.76852 0.74297 0.0
C589 C 0.82985 0.83502 0.86632 0.0
N590 N 0.84154 0.83002 0.83322 0.0
C591 C 0.87029 0.8898 0.836 0.0
C592 C 0.83627 0.86798 0.88501 0.0
C593 C 0.86343 0.85665 0.81852 0.0
C594 C 0.85619 0.89561 0.86924 0.0
C595 C 0.79804 0.81106 0.91562 0.0
C596 C 0.81142 0.80688 0.88169 0.0
C597 C 0.80401 0.84391 0.93413 0.0
C598 C 0.82312 0.87228 0.91888 0.0
Tb599 Tb 0.82887 0.77381 0.80858 0.0
N600 N 0.80498 0.77559 0.86284 0.0
C601 C 0.77842 0.78215 0.92976 0.0
C602 C 0.78626 0.74724 0.87654 0.0
C603 C 0.77256 0.75011 0.91013 0.0
H604 H 0.87717 0.85288 0.7938 0.0
H605 H 0.75761 0.72759 0.92087 0.0
H606 H 0.69897 0.69837 0.76309 0.0
H607 H 0.83532 0.79596 0.6245 0.0
H608 H 0.78246 0.72232 0.86169 0.0
H609 H 0.76762 0.78432 0.95575 0.0
H610 H 0.81117 0.80993 0.68325 0.0
H611 H 0.88716 0.91077 0.82395 0.0
H612 H 0.79389 0.84767 0.96023 0.0
H613 H 0.8277 0.89744 0.93353 0.0
H614 H 0.68193 0.63816 0.73961 0.0
H615 H 0.86178 0.92131 0.88273 0.0
H616 H 0.82177 0.73602 0.59662 0.0
N617 N 0.74151 0.71142 0.7239 0.0
C618 C 0.75446 0.70123 0.69189 0.0
C619 C 0.70309 0.65539 0.72622 0.0
C620 C 0.74391 0.66709 0.67665 0.0
C621 C 0.71391 0.68961 0.74003 0.0
C622 C 0.71876 0.64385 0.69467 0.0
N623 N 0.78566 0.75841 0.68876 0.0
C624 C 0.80567 0.78373 0.67138 0.0
C625 C 0.78959 0.71642 0.64006 0.0
C626 C 0.77658 0.7256 0.67354 0.0
C627 C 0.81127 0.74204 0.62241 0.0
C628 C 0.81906 0.77589 0.63807 0.0
H629 H 0.7099 0.61743 0.68385 0.0
H630 H 0.75003 0.63139 0.63159 0.0
H631 H 0.79034 0.67453 0.59967 0.0
O632 O 0.74615 0.80227 0.71891 0.0
O633 O 0.81323 0.75205 0.72385 0.0
O634 O 0.82413 0.73098 0.76767 0.0
O635 O 0.70684 0.76339 0.74194 0.0
O636 O 0.80226 0.81591 0.75288 0.0
O637 O 0.85123 0.80027 0.76476 0.0
O638 O 0.85155 0.74462 0.83333 0.0
O639 O 0.77809 0.79146 0.8283 0.0
O640 O 0.76597 0.81093 0.78415 0.0
O641 O 0.88523 0.78359 0.80502 0.0
O642 O 0.78937 0.72581 0.79847 0.0
O643 O 0.74078 0.74318 0.78738 0.0
C644 C 0.82928 0.73301 0.73593 0.0
C645 C 0.69444 0.77969 0.69387 0.0
C646 C 0.6702 0.80177 0.65387 0.0
C647 C 0.66008 0.768 0.63779 0.0
C648 C 0.68436 0.74626 0.67744 0.0
C649 C 0.66737 0.74056 0.64943 0.0
C650 C 0.68786 0.8072 0.68172 0.0
C651 C 0.83712 0.81845 0.7494 0.0
C652 C 0.71256 0.78715 0.72331 0.0
C653 C 0.75762 0.65756 0.64355 0.0
C654 C 0.78042 0.68216 0.62531 0.0
C655 C 0.76069 0.80917 0.8159 0.0
C656 C 0.91664 0.75329 0.8318 0.0
C657 C 0.94656 0.71906 0.856 0.0
C658 C 0.97993 0.73937 0.84477 0.0
C659 C 0.95041 0.77317 0.82103 0.0
C660 C 0.91479 0.72638 0.84975 0.0
C661 C 0.98175 0.76628 0.82759 0.0
C662 C 0.75449 0.72293 0.80062 0.0
C663 C 0.88392 0.76053 0.82343 0.0
H664 H 0.6459 0.76258 0.61663 0.0
H665 H 0.6895 0.72466 0.6862 0.0
H666 H 0.65945 0.71472 0.63688 0.0
H667 H 0.69681 0.83298 0.6941 0.0
H668 H 1.00471 0.73459 0.84957 0.0
H669 H 0.95269 0.79405 0.80735 0.0
H670 H 0.88895 0.71074 0.85814 0.0
H671 H 1.00762 0.78178 0.81918 0.0
Fe672 Fe 0.04261 0.05382 0.52956 0.0
O673 O 1.01741 1.00847 0.50781 0.0
Fe674 Fe 0.12471 0.03834 0.53819 0.0
Fe675 Fe 0.96409 0.99386 0.51423 0.0
O676 O 0.07213 0.02653 0.54375 0.0
O677 O 0.07123 0.02312 0.54515 0.0
O678 O 1.01661 1.00514 0.50903 0.0
Fe679 Fe 0.04586 0.97778 0.52333 0.0
C680 C 0.97576 0.05078 0.57252 0.0
O681 O 1.00834 0.07638 0.51069 0.0
O682 O 0.97116 0.03016 0.48376 0.0
O683 O 0.08161 0.98572 0.48159 0.0
O684 O 0.13307 0.99942 0.50067 0.0
O685 O 0.13029 0.07192 0.50466 0.0
O686 O 0.07765 0.06264 0.48669 0.0
O687 O 0.97331 0.95381 0.47881 0.0
O688 O 1.01709 0.93383 0.49592 0.0
C689 C 0.11133 0.07505 0.48383 0.0
O690 O 0.07989 0.95524 0.54239 0.0
O691 O 0.11899 1.00123 0.5677 0.0
O692 O 1.00699 0.04599 0.57141 0.0
O693 O 0.95608 0.03332 0.55136 0.0
C694 C 0.98623 0.06256 0.48924 0.0
C695 C 0.99288 0.9317 0.47706 0.0
C696 C 0.97658 0.95757 0.56929 0.0
O697 O 0.95773 0.96097 0.54848 0.0
O698 O 1.01048 0.96894 0.56607 0.0
C699 C 0.11289 0.98102 0.48036 0.0
O700 O 0.1151 0.07795 0.57416 0.0
O701 O 0.07146 0.09785 0.55672 0.0
C702 C 0.10365 0.96884 0.56236 0.0
C703 C 0.09553 0.10005 0.57573 0.0
Fe704 Fe 0.54014 0.9789 1.02056 0.0
O705 O 0.57085 0.02123 1.00375 0.0
Fe706 Fe 0.45872 1.00503 0.04923 0.0
Fe707 Fe 0.62338 0.03271 1.00132 0.0
O708 O 0.51119 1.01233 0.04673 0.0
O709 O 0.51132 1.01638 0.04775 0.0
O710 O 0.57092 0.02524 1.00463 0.0
Fe711 Fe 0.54228 0.05873 0.03111 0.0
C712 C 0.60281 0.98739 0.05668 0.0
O713 O 0.57614 0.94977 0.98952 0.0
O714 O 0.61932 0.99095 0.96466 0.0
O715 O 0.51343 0.05248 0.99252 0.0
O716 O 0.45785 0.03983 1.01901 0.0
O717 O 0.45554 0.96725 1.00884 0.0
O718 O 0.51094 0.96946 0.9815 0.0
O719 O 0.62131 0.06972 0.97447 0.0
O720 O 0.57956 0.09802 1.0078 0.0
C721 C 0.47688 0.96079 0.98263 0.0
O722 O 0.50609 0.08772 0.06272 0.0
O723 O 0.46253 0.04608 0.08664 0.0
O724 O 0.56914 0.98534 0.05917 0.0
O725 O 0.62469 0.99897 0.03254 0.0
C726 C 0.60353 0.95925 0.96707 0.0
C727 C 0.60648 0.09599 0.98401 0.0
C728 C 0.60641 0.07908 0.06684 0.0
O729 O 0.62681 0.07164 0.04033 0.0
O730 O 0.57234 0.06823 0.06979 0.0
C731 C 0.47995 0.05101 0.99486 0.0
O732 O 0.46 0.96724 0.07549 0.0
O733 O 0.50287 0.9395 0.04357 0.0
C734 C 0.47829 0.07793 0.08481 0.0
C735 C 0.47535 0.94128 0.0667 0.0
Fe736 Fe 0.04829 0.55733 0.03225 0.0
O737 O 1.01313 0.51648 0.04766 0.0
Fe738 Fe 0.12404 0.52276 0.99967 0.0
Fe739 Fe 0.96085 0.51137 0.04988 0.0
O740 O 0.07254 0.52133 1.00417 0.0
O741 O 0.07169 0.51741 1.00238 0.0
O742 O 1.0123 0.51247 0.04592 0.0
Fe743 Fe 1.03634 0.47649 1.01751 0.0
C744 C 0.98734 0.58148 0.08607 0.0
O745 O 1.02005 0.55567 0.99435 0.0
O746 O 0.96462 0.54942 1.02147 0.0
O747 O 0.06813 0.44453 0.98453 0.0
O748 O 0.11526 0.48364 0.96104 0.0
O749 O 0.12694 0.56355 0.97534 0.0
O750 O 0.08848 0.59466 1.01004 0.0
O751 O 0.95314 0.47551 1.00892 0.0
O752 O 1.00662 0.4725 0.97936 0.0
C753 C 0.11397 0.59089 0.98543 0.0
O754 O 0.06469 0.47736 0.0551 0.0
O755 O 0.12039 0.48458 0.02821 0.0
O756 O 1.01609 0.58956 0.06453 0.0
O757 O 0.96966 0.55032 0.08837 0.0
C758 C 0.98797 0.55954 0.99759 0.0
C759 C 0.97243 0.4675 0.9819 0.0
C760 C 0.96923 0.44277 0.06343 0.0
O761 O 0.95751 0.47073 0.07388 0.0
O762 O 0.99554 0.43899 0.0395 0.0
C763 C 0.09604 0.45278 0.96215 0.0
O764 O 0.13165 0.55867 0.04072 0.0
O765 O 0.07817 0.56209 0.07035 0.0
C766 C 0.09687 0.47367 0.05174 0.0
C767 C 0.11239 0.56716 0.06766 0.0
Fe768 Fe 0.55006 0.51169 0.98976 0.0
O769 O 0.57475 0.5426 1.0257 0.0
Fe770 Fe 0.46177 0.48918 0.0267 0.0
Fe771 Fe 0.62625 0.54814 0.02782 0.0
O772 O 0.51329 0.49448 0.02655 0.0
O773 O 0.51314 0.49391 0.02981 0.0
O774 O 0.57461 0.54204 0.02882 0.0
Fe775 Fe 0.53781 0.52524 0.06569 0.0
C776 C 0.60871 0.47643 0.99354 0.0
O777 O 0.59221 0.53481 0.95527 0.0
O778 O 0.6305 0.57335 0.98799 0.0
O779 O 0.51271 0.56233 0.06129 0.0
O780 O 0.45644 0.53344 0.05884 0.0
O781 O 0.46834 0.51656 0.98805 0.0
O782 O 0.52383 0.54863 0.98594 0.0
O783 O 0.6179 0.58776 0.06484 0.0
O784 O 0.56831 0.56139 0.0983 0.0
C785 C 0.49177 0.54265 0.97981 0.0
O786 O 0.49531 0.50288 0.10016 0.0
O787 O 0.45565 0.46556 0.06787 0.0
O788 O 0.57565 0.47471 0.9935 0.0
O789 O 0.63169 0.50477 0.99435 0.0
C790 C 0.61744 0.56235 0.9604 0.0
C791 C 0.59622 0.58609 0.09253 0.0
C792 C 0.59689 0.49386 0.07478 0.0
O793 O 0.62069 0.51917 0.06513 0.0
O794 O 0.56417 0.48868 0.07054 0.0
C795 C 0.47998 0.56137 0.06046 0.0
O796 O 0.47006 0.44884 0.99061 0.0
O797 O 0.51922 0.47575 0.95705 0.0
C798 C 0.46813 0.47702 0.0957 0.0
C799 C 0.49131 0.45094 0.9627 0.0
Fe800 Fe 1.04044 0.48026 0.51982 0.0
O801 O 1.01536 0.51394 0.55067 0.0
Fe802 Fe 0.07365 0.52266 0.45187 0.0
Fe803 Fe 1.00784 0.51676 0.59894 0.0
O804 O 0.06718 0.52186 0.49957 0.0
O805 O 0.06739 0.5257 0.50032 0.0
O806 O 1.01593 0.51763 0.55159 0.0
Fe807 Fe 0.04181 0.55911 0.53115 0.0
C808 C 0.97992 0.44289 0.56936 0.0
O809 O 0.07937 0.48766 0.5499 0.0
O810 O 0.04478 0.48833 0.59902 0.0
O811 O 0.07271 0.59803 0.50402 0.0
O812 O 0.10749 0.56957 0.46235 0.0
O813 O 0.10809 0.49127 0.45208 0.0
O814 O 0.07246 0.45112 0.48374 0.0
O815 O 0.04686 0.56065 0.60899 0.0
O816 O 0.08131 0.57026 0.56119 0.0
C817 C 0.10017 0.46133 0.46183 0.0
O818 O 1.00251 0.54998 0.50206 0.0
O819 O 1.03476 0.54988 0.45196 0.0
O820 O 1.00752 0.44125 0.54629 0.0
O821 O 0.97304 0.47075 0.58751 0.0
C822 C 0.07407 0.48516 0.58054 0.0
C823 C 0.07648 0.57401 0.59262 0.0
C824 C 0.98216 0.57856 0.58849 0.0
O825 O 0.97431 0.54888 0.59856 0.0
O826 O 1.00984 0.58852 0.56661 0.0
C827 C 0.09931 0.59713 0.47995 0.0
O828 O 1.03649 0.47771 0.44208 0.0
O829 O 1.00091 0.47045 0.48957 0.0
C830 C 1.00662 0.55399 0.472 0.0
C831 C 1.00655 0.46514 0.45818 0.0
Fe832 Fe 0.54066 0.97877 0.51966 0.0
O833 O 0.51709 1.0137 0.55016 0.0
Fe834 Fe 0.57939 0.02082 0.45245 0.0
Fe835 Fe 0.50889 1.01563 0.59836 0.0
O836 O 0.57006 0.01976 0.50001 0.0
O837 O 0.57041 0.02355 0.50077 0.0
O838 O 0.51743 1.01742 0.55089 0.0
Fe839 Fe 0.54636 0.05846 0.53101 0.0
C840 C 0.4777 0.94314 0.56807 0.0
O841 O 0.57841 0.98381 0.55021 0.0
O842 O 0.54279 0.98382 0.59842 0.0
O843 O 0.5808 0.09643 0.50482 0.0
O844 O 0.61542 0.06623 0.4645 0.0
O845 O 0.61073 0.98672 0.4539 0.0
O846 O 0.57102 0.94784 0.48453 0.0
O847 O 0.54963 0.05776 0.60937 0.0
O848 O 0.5849 0.0668 0.56192 0.0
C849 C 0.60022 0.95696 0.46397 0.0
O850 O 0.50874 0.05286 0.50017 0.0
O851 O 0.544 0.05081 0.4513 0.0
O852 O 0.50541 0.94061 0.54541 0.0
O853 O 0.4719 0.97139 0.58617 0.0
C854 C 0.57099 0.9776 0.57981 0.0
C855 C 0.5796 0.07078 0.59333 0.0
C856 C 0.48757 0.08009 0.58846 0.0
O857 O 0.47831 0.05018 0.5981 0.0
O858 O 0.51542 0.08932 0.56638 0.0
C859 C 0.60848 0.09442 0.48203 0.0
O860 O 0.53917 0.97814 0.44147 0.0
O861 O 0.50251 0.97117 0.48859 0.0
C862 C 0.51515 0.05577 0.46961 0.0
C863 C 0.5083 0.967 0.45718 0.0
H864 H 0.26526 0.16908 0.3284 0.0
H865 H 0.17539 0.21642 0.33527 0.0
H866 H 0.2316 0.13326 0.36926 0.0
H867 H 0.14159 0.18081 0.37709 0.0
H868 H 0.08126 0.09046 0.43439 0.0
H869 H 0.11161 0.12367 0.38981 0.0
H870 H 0.21238 0.13902 0.42684 0.0
H871 H 0.18254 0.10547 0.47047 0.0
C872 C 0.23819 0.17182 0.33859 0.0
C873 C 0.22319 0.19586 0.32856 0.0
C874 C 0.21888 0.15136 0.36234 0.0
C875 C 0.18389 0.1543 0.37709 0.0
C876 C 0.16834 0.17757 0.36625 0.0
C877 C 0.18773 0.19806 0.34225 0.0
C878 C 0.10995 0.10075 0.43288 0.0
C879 C 0.12936 0.0949 0.45609 0.0
C880 C 0.12735 0.12006 0.40739 0.0
C881 C 0.16465 0.13397 0.40434 0.0
C882 C 0.18384 0.12823 0.42774 0.0
C883 C 0.16655 0.10902 0.45307 0.0
H884 H 0.83857 0.16257 0.44373 0.0
H885 H 0.90343 0.14497 0.34892 0.0
H886 H 0.88217 0.14614 0.47014 0.0
H887 H 0.9473 0.13004 0.3754 0.0
H888 H 0.97768 0.12858 0.50958 0.0
H889 H 0.94727 0.16 0.48241 0.0
H890 H 0.93957 0.07762 0.40045 0.0
H891 H 0.96918 0.04648 0.42748 0.0
C892 C 0.8623 0.15566 0.42864 0.0
C893 C 0.86739 0.15479 0.39424 0.0
C894 C 0.88749 0.14681 0.44379 0.0
C895 C 0.91803 0.13681 0.42475 0.0
C896 C 0.9239 0.13752 0.39062 0.0
C897 C 0.89881 0.14625 0.37552 0.0
C898 C 0.96999 0.11764 0.48552 0.0
C899 C 0.97504 0.08489 0.47087 0.0
C900 C 0.95254 0.13549 0.47009 0.0
C901 C 0.94088 0.12109 0.43948 0.0
C902 C 0.94844 0.08949 0.42391 0.0
C903 C 0.9652 0.07154 0.43949 0.0
H904 H 0.87231 0.8738 0.32934 0.0
H905 H 0.89158 0.77373 0.33104 0.0
H906 H 0.91687 0.89926 0.36667 0.0
H907 H 0.93457 0.79917 0.36944 0.0
H908 H 0.95263 0.8669 0.47827 0.0
H909 H 0.92305 0.83291 0.43179 0.0
H910 H 0.98775 0.90369 0.36747 0.0
H911 H 1.01782 0.93694 0.41364 0.0
C912 C 0.88649 0.85733 0.33695 0.0
C913 C 0.87847 0.82177 0.32682 0.0
C914 C 0.91186 0.87187 0.35848 0.0
C915 C 0.92912 0.85106 0.37078 0.0
C916 C 0.92163 0.81569 0.36028 0.0
C917 C 0.89695 0.80126 0.33826 0.0
C918 C 0.96203 0.87383 0.45376 0.0
C919 C 0.9879 0.90403 0.44926 0.0
C920 C 0.9448 0.85476 0.42729 0.0
C921 C 0.95283 0.86615 0.39629 0.0
C922 C 0.98096 0.8946 0.39121 0.0
C923 C 0.99855 0.91323 0.41744 0.0
H924 H 0.0761 0.76621 0.40704 0.0
H925 H 0.18892 0.79676 0.41626 0.0
H926 H 0.06609 0.81908 0.4418 0.0
H927 H 0.17976 0.85015 0.44911 0.0
H928 H 0.15777 0.94941 0.50105 0.0
H929 H 0.15803 0.88904 0.49052 0.0
H930 H 0.08135 0.87265 0.42227 0.0
H931 H 0.07913 0.93298 0.43476 0.0
C932 C 0.0984 0.78345 0.41792 0.0
C933 C 0.13343 0.77819 0.40837 0.0
C934 C 0.09287 0.81407 0.43719 0.0
C935 C 0.12241 0.83958 0.44671 0.0
C936 C 0.15637 0.8314 0.44191 0.0
C937 C 0.16172 0.80063 0.42315 0.0
C938 C 0.14118 0.93306 0.4835 0.0
C939 C 0.11852 0.94605 0.46851 0.0
C940 C 0.14115 0.89829 0.4777 0.0
C941 C 0.11941 0.8758 0.45591 0.0
C942 C 0.09761 0.88899 0.44006 0.0
C943 C 0.09696 0.92371 0.44652 0.0
H944 H 0.21613 0.88018 0.67563 0.0
H945 H 0.12267 0.90889 0.73686 0.0
H946 H 0.19318 0.88623 0.62645 0.0
H947 H 0.09985 0.91513 0.68781 0.0
H948 H 0.06123 0.9159 0.59286 0.0
H949 H 0.07881 0.88693 0.63228 0.0
H950 H 0.1886 0.94251 0.61165 0.0
H951 H 0.17096 0.97155 0.57304 0.0
C952 C 0.19027 0.88694 0.67847 0.0
C953 C 0.17137 0.89457 0.71 0.0
C954 C 0.17721 0.89045 0.65039 0.0
C955 C 0.14484 0.90127 0.65338 0.0
C956 C 0.1247 0.90644 0.68474 0.0
C957 C 0.13795 0.9033 0.71282 0.0
C958 C 0.0892 0.92115 0.59628 0.0
C959 C 0.11471 0.94624 0.5805 0.0
C960 C 0.09923 0.90471 0.61879 0.0
C961 C 0.13502 0.91263 0.62509 0.0
C962 C 0.1609 0.93567 0.60712 0.0
C963 C 0.15078 0.95251 0.58525 0.0
H964 H 0.21898 0.16632 0.72054 0.0
H965 H 0.19817 0.26505 0.71595 0.0
H966 H 0.17381 0.1389 0.6845 0.0
H967 H 0.15431 0.23755 0.67865 0.0
H968 H 0.07359 0.09594 0.63981 0.0
H969 H 0.10372 0.13206 0.68472 0.0
H970 H 0.16308 0.20225 0.61765 0.0
H971 H 0.1332 0.16554 0.57248 0.0
C972 C 0.20429 0.18211 0.7126 0.0
C973 C 0.21194 0.21783 0.72168 0.0
C974 C 0.17855 0.16643 0.69177 0.0
C975 C 0.16048 0.18619 0.67904 0.0
C976 C 0.16783 0.2218 0.68822 0.0
C977 C 0.19299 0.23743 0.7096 0.0
C978 C 0.0917 0.12002 0.63512 0.0
C979 C 0.10084 0.12833 0.60295 0.0
C980 C 0.10928 0.14037 0.66066 0.0
C981 C 0.13603 0.16955 0.65444 0.0
C982 C 0.14241 0.17988 0.62303 0.0
C983 C 0.12507 0.15919 0.5973 0.0
H984 H 1.01432 0.26485 0.65055 0.0
H985 H 0.90199 0.23725 0.63942 0.0
H986 H 1.02315 0.21119 0.61657 0.0
H987 H 0.90975 0.18308 0.60771 0.0
H988 H 0.93004 0.08335 0.55449 0.0
H989 H 0.92986 0.14364 0.56706 0.0
H990 H 1.00727 0.15722 0.63411 0.0
H991 H 1.00938 0.09699 0.6195 0.0
C992 C 0.99191 0.24801 0.63949 0.0
C993 C 0.95731 0.2545 0.64813 0.0
C994 C 0.9967 0.21691 0.62074 0.0
C995 C 0.96682 0.19204 0.6109 0.0
C996 C 0.93342 0.20125 0.61509 0.0
C997 C 0.92887 0.23252 0.63322 0.0
C998 C 0.94672 0.09903 0.57229 0.0
C999 C 0.96972 0.08532 0.58611 0.0
C1000 C 0.94676 0.1338 0.57934 0.0
C1001 C 0.96893 0.15558 0.60121 0.0
C1002 C 0.99076 0.14154 0.61621 0.0
C1003 C 0.99135 0.10683 0.60852 0.0
H1004 H 0.82195 0.8732 0.72966 0.0
H1005 H 0.90557 0.81684 0.71762 0.0
H1006 H 0.85709 0.90801 0.68833 0.0
H1007 H 0.94085 0.85158 0.67566 0.0
H1008 H 1.00609 0.94044 0.61814 0.0
H1009 H 0.97476 0.90874 0.66354 0.0
H1010 H 0.8736 0.90002 0.62954 0.0
H1011 H 0.90451 0.93174 0.58481 0.0
C1012 C 0.84802 0.86838 0.71833 0.0
C1013 C 0.86077 0.84201 0.72686 0.0
C1014 C 0.86813 0.88822 0.69437 0.0
C1015 C 0.90172 0.88242 0.67814 0.0
C1016 C 0.91523 0.85698 0.68768 0.0
C1017 C 0.895 0.83703 0.71176 0.0
C1018 C 0.97715 0.93184 0.62041 0.0
C1019 C 0.95798 0.93886 0.59764 0.0
C1020 C 0.95917 0.91347 0.6464 0.0
C1021 C 0.9215 0.9019 0.65051 0.0
C1022 C 0.90249 0.90898 0.62771 0.0
C1023 C 0.92037 0.92711 0.60177 0.0
H1024 H 0.30725 0.16776 0.20547 0.0
H1025 H 0.39981 0.25038 0.21784 0.0
H1026 H 0.34509 0.13349 0.16751 0.0
H1027 H 0.4381 0.21556 0.1807 0.0
H1028 H 0.4894 0.14904 0.08689 0.0
H1029 H 0.45386 0.18788 0.12266 0.0
H1030 H 0.39048 0.10352 0.17169 0.0
H1031 H 0.4253 0.06541 0.1369 0.0
C1032 C 0.3356 0.17883 0.19985 0.0
C1033 C 0.35021 0.21201 0.21477 0.0
C1034 C 0.35755 0.15894 0.17831 0.0
C1035 C 0.395 0.17146 0.171 0.0
C1036 C 0.40951 0.20498 0.18539 0.0
C1037 C 0.38749 0.22487 0.20701 0.0
C1038 C 0.46817 0.1389 0.10556 0.0
C1039 C 0.46041 0.10373 0.10847 0.0
C1040 C 0.44765 0.16119 0.12609 0.0
C1041 C 0.41859 0.14885 0.14983 0.0
C1042 C 0.41182 0.11403 0.15329 0.0
C1043 C 0.43228 0.09205 0.13322 0.0
H1044 H 0.86003 0.27276 0.17514 0.0
H1045 H 0.83964 0.36975 0.22756 0.0
H1046 H 0.89872 0.30208 0.13109 0.0
H1047 H 0.87691 0.39853 0.18271 0.0
H1048 H 0.89775 0.42523 0.0793 0.0
H1049 H 0.86432 0.38759 0.11878 0.0
H1050 H 0.96131 0.35675 0.12591 0.0
H1051 H 0.99543 0.39523 0.08606 0.0
C1052 C 0.86422 0.30032 0.17761 0.0
C1053 C 0.847 0.31893 0.20514 0.0
C1054 C 0.88625 0.31698 0.15228 0.0
C1055 C 0.89066 0.3524 0.15369 0.0
C1056 C 0.87372 0.37108 0.18116 0.0
C1057 C 0.85224 0.35456 0.2067 0.0
C1058 C 0.91189 0.4099 0.08872 0.0
C1059 C 0.94921 0.41344 0.08011 0.0
C1060 C 0.89277 0.38851 0.11136 0.0
C1061 C 0.91048 0.37001 0.12573 0.0
C1062 C 0.94726 0.37106 0.11512 0.0
C1063 C 0.96666 0.39281 0.09231 0.0
H1064 H 0.73963 0.90897 0.15564 0.0
H1065 H 0.64328 0.90954 0.22629 0.0
H1066 H 0.71214 0.92804 0.11629 0.0
H1067 H 0.61686 0.93102 0.18792 0.0
H1068 H 0.56624 0.94434 0.10148 0.0
H1069 H 0.5913 0.91995 0.13911 0.0
H1070 H 0.69737 0.97721 0.10605 0.0
H1071 H 0.67252 1.00026 0.06769 0.0
C1072 C 0.71253 0.91297 0.16284 0.0
C1073 C 0.69397 0.90789 0.19447 0.0
C1074 C 0.69689 0.92453 0.14036 0.0
C1075 C 0.66231 0.93171 0.14888 0.0
C1076 C 0.64339 0.92569 0.18018 0.0
C1077 C 0.65887 0.9138 0.20251 0.0
C1078 C 0.59489 0.95177 0.10236 0.0
C1079 C 0.61732 0.97418 0.08141 0.0
C1080 C 0.60934 0.93784 0.12406 0.0
C1081 C 0.64657 0.94628 0.12567 0.0
C1082 C 0.66877 0.96928 0.1051 0.0
C1083 C 0.65441 0.98284 0.08321 0.0
H1084 H 0.28767 0.69029 0.16938 0.0
H1085 H 0.19589 0.68825 0.24546 0.0
H1086 H 0.24901 0.65283 0.13086 0.0
H1087 H 0.15748 0.65082 0.20756 0.0
H1088 H 0.09247 0.61462 0.11986 0.0
H1089 H 0.1301 0.65001 0.16027 0.0
H1090 H 0.21475 0.59602 0.11852 0.0
H1091 H 0.17771 0.56154 0.07808 0.0
C1092 C 0.25936 0.68158 0.17798 0.0
C1093 C 0.24484 0.69263 0.21039 0.0
C1094 C 0.2371 0.66006 0.15595 0.0
C1095 C 0.19985 0.64887 0.16593 0.0
C1096 C 0.18571 0.65942 0.19863 0.0
C1097 C 0.20786 0.68091 0.22046 0.0
C1098 C 0.11888 0.61002 0.11973 0.0
C1099 C 0.13209 0.58539 0.0956 0.0
C1100 C 0.14058 0.63035 0.14283 0.0
C1101 C 0.17586 0.62631 0.14245 0.0
C1102 C 0.18825 0.60062 0.11913 0.0
C1103 C 0.16677 0.58057 0.09607 0.0
H1104 H 0.38569 0.79217 0.84182 0.0
H1105 H 0.34648 0.87682 0.82322 0.0
H1106 H 0.42223 0.83114 0.8808 0.0
H1107 H 0.38294 0.9156 0.86234 0.0
H1108 H 0.41112 0.95961 0.96771 0.0
H1109 H 0.38093 0.92398 0.92294 0.0
H1110 H 0.4747 0.88147 0.88606 0.0
H1111 H 0.5052 0.91746 0.93126 0.0
C1112 C 0.38498 0.81908 0.84578 0.0
C1113 C 0.36265 0.83113 0.82949 0.0
C1114 C 0.40618 0.84149 0.86805 0.0
C1115 C 0.40543 0.8765 0.87486 0.0
C1116 C 0.38384 0.88871 0.85798 0.0
C1117 C 0.36293 0.8664 0.83548 0.0
C1118 C 0.4255 0.94288 0.94994 0.0
C1119 C 0.46054 0.94128 0.95319 0.0
C1120 C 0.40822 0.92258 0.92409 0.0
C1121 C 0.4253 0.89977 0.90088 0.0
C1122 C 0.46068 0.89859 0.90367 0.0
C1123 C 0.47826 0.91938 0.92939 0.0
H1124 H 0.26266 0.37307 0.83141 0.0
H1125 H 0.18251 0.27947 0.84031 0.0
H1126 H 0.22158 0.40557 0.86689 0.0
H1127 H 0.14158 0.31198 0.87682 0.0
H1128 H 0.09554 0.38587 0.96853 0.0
H1129 H 0.13145 0.34795 0.93195 0.0
H1130 H 0.16597 0.42205 0.86404 0.0
H1131 H 0.13067 0.45948 0.90021 0.0
C1132 C 0.23608 0.35942 0.84051 0.0
C1133 C 0.22571 0.3237 0.83209 0.0
C1134 C 0.21248 0.37806 0.86113 0.0
C1135 C 0.17784 0.36157 0.87444 0.0
C1136 C 0.16792 0.32564 0.86708 0.0
C1137 C 0.19146 0.30698 0.84607 0.0
C1138 C 0.11001 0.39355 0.94535 0.0
C1139 C 0.11023 0.42585 0.93746 0.0
C1140 C 0.13084 0.37193 0.92445 0.0
C1141 C 0.1524 0.38223 0.8953 0.0
C1142 C 0.15064 0.41356 0.88663 0.0
C1143 C 0.12999 0.43495 0.90731 0.0
H1144 H 0.68605 0.19862 0.81756 0.0
H1145 H 0.76225 0.25239 0.8834 0.0
H1146 H 0.64869 0.16944 0.86221 0.0
H1147 H 0.72478 0.22343 0.92831 0.0
H1148 H 0.67717 0.12366 0.97634 0.0
H1149 H 0.71021 0.16445 0.93967 0.0
H1150 H 0.61007 0.17644 0.91648 0.0
H1151 H 0.57684 0.13504 0.95359 0.0
C1152 C 0.69461 0.20442 0.84173 0.0
C1153 C 0.72725 0.22741 0.84697 0.0
C1154 C 0.67308 0.18791 0.86737 0.0
C1155 C 0.68365 0.19416 0.89888 0.0
C1156 C 0.71599 0.21783 0.90426 0.0
C1157 C 0.73757 0.23425 0.87854 0.0
C1158 C 0.66219 0.13568 0.96402 0.0
C1159 C 0.62451 0.12618 0.96763 0.0
C1160 C 0.68112 0.15918 0.9431 0.0
C1161 C 0.66283 0.17358 0.92495 0.0
C1162 C 0.62492 0.16552 0.92993 0.0
C1163 C 0.60586 0.14213 0.95134 0.0
H1164 H 0.98376 0.66847 0.8366 0.0
H1165 H 0.90843 0.70537 0.91615 0.0
H1166 H 0.99001 0.62632 0.86867 0.0
H1167 H 0.91545 0.66379 0.94905 0.0
H1168 H 0.92157 0.57066 0.99375 0.0
H1169 H 0.90719 0.6052 0.95772 0.0
H1170 H 1.01881 0.62791 0.91443 0.0
H1171 H 1.03268 0.5928 0.94955 0.0
C1172 C 0.96835 0.66736 0.86097 0.0
C1173 C 0.94588 0.69041 0.874 0.0
C1174 C 0.97211 0.64336 0.87951 0.0
C1175 C 0.95385 0.64199 0.91183 0.0
C1176 C 0.92986 0.66392 0.92424 0.0
C1177 C 0.92581 0.6878 0.90544 0.0
C1178 C 0.94296 0.58278 0.97629 0.0
C1179 C 0.97839 0.57883 0.97452 0.0
C1180 C 0.93473 0.60279 0.95575 0.0
C1181 C 0.96174 0.61938 0.93296 0.0
C1182 C 0.99704 0.61504 0.93107 0.0
C1183 C 1.00515 0.59499 0.95142 0.0
H1184 H 0.10067 0.36066 0.21032 0.0
H1185 H 0.17667 0.32536 0.13054 0.0
H1186 H 0.09424 0.40336 0.179 0.0
H1187 H 0.16939 0.36742 0.09827 0.0
H1188 H 0.16298 0.46115 0.0546 0.0
H1189 H 0.17718 0.42561 0.08974 0.0
H1190 H 0.06586 0.40392 0.13401 0.0
H1191 H 0.05209 0.44018 0.1 0.0
C1192 C 0.1162 0.36224 0.18605 0.0
C1193 C 0.13896 0.33949 0.17279 0.0
C1194 C 0.11229 0.38654 0.16789 0.0
C1195 C 0.13064 0.38856 0.13565 0.0
C1196 C 0.15487 0.36686 0.123 0.0
C1197 C 0.15909 0.34269 0.14145 0.0
C1198 C 0.14161 0.44905 0.07209 0.0
C1199 C 0.10634 0.45367 0.07437 0.0
C1200 C 0.14973 0.42841 0.09212 0.0
C1201 C 0.12279 0.41175 0.11494 0.0
C1202 C 0.08763 0.41675 0.11735 0.0
C1203 C 0.0796 0.43748 0.09755 0.0
H1204 H 0.25249 0.75705 0.88473 0.0
H1205 H 0.22002 0.66963 0.81217 0.0
H1206 H 0.21106 0.7283 0.92784 0.0
H1207 H 0.18028 0.64014 0.85513 0.0
H1208 H 0.09326 0.59989 0.92991 0.0
H1209 H 0.12579 0.63939 0.89157 0.0
H1210 H 0.20534 0.68133 0.95742 0.0
H1211 H 0.17109 0.64299 0.99659 0.0
C1212 C 0.23646 0.73168 0.87807 0.0
C1213 C 0.23918 0.71564 0.84517 0.0
C1214 C 0.21295 0.71512 0.90274 0.0
C1215 C 0.19207 0.68199 0.89497 0.0
C1216 C 0.19524 0.66594 0.86197 0.0
C1217 C 0.21848 0.68259 0.83737 0.0
C1218 C 0.11673 0.61872 0.93676 0.0
C1219 C 0.12931 0.61921 0.96636 0.0
C1220 C 0.13584 0.64086 0.91456 0.0
C1221 C 0.16854 0.66318 0.92113 0.0
C1222 C 0.18011 0.66476 0.95168 0.0
C1223 C 0.16061 0.64287 0.97411 0.0
H1224 H 0.44594 0.13265 0.82512 0.0
H1225 H 0.34679 0.12992 0.89246 0.0
H1226 H 0.47055 0.10991 0.86384 0.0
H1227 H 0.37246 0.10974 0.93232 0.0
H1228 H 0.41091 0.03749 0.98182 0.0
H1229 H 0.38733 0.06086 0.94273 0.0
H1230 H 0.49375 0.11994 0.91348 0.0
H1231 H 0.51748 0.09509 0.95161 0.0
C1232 C 0.42933 0.12737 0.84824 0.0
C1233 C 0.39404 0.13281 0.85524 0.0
C1234 C 0.44376 0.11477 0.87081 0.0
C1235 C 0.42356 0.1076 0.90136 0.0
C1236 C 0.3887 0.11415 0.90884 0.0
C1237 C 0.37411 0.12637 0.88608 0.0
C1238 C 0.42931 0.05539 0.96696 0.0
C1239 C 0.46612 0.06445 0.96993 0.0
C1240 C 0.41571 0.06912 0.94466 0.0
C1241 C 0.43841 0.09271 0.92494 0.0
C1242 C 0.47535 0.10156 0.9278 0.0
C1243 C 0.48904 0.08741 0.94981 0.0
H1244 H 0.79732 0.34653 0.87909 0.0
H1245 H 0.88844 0.35192 0.8021 0.0
H1246 H 0.83608 0.38322 0.91794 0.0
H1247 H 0.92697 0.38852 0.84043 0.0
H1248 H 0.99254 0.42151 0.92823 0.0
H1249 H 0.95489 0.3874 0.88723 0.0
H1250 H 0.86996 0.44026 0.93137 0.0
H1251 H 0.90702 0.47354 0.97226 0.0
C1252 C 0.82547 0.35591 0.87036 0.0
C1253 C 0.83979 0.34603 0.83758 0.0
C1254 C 0.8478 0.37694 0.89258 0.0
C1255 C 0.88492 0.38874 0.88247 0.0
C1256 C 0.89885 0.37943 0.84941 0.0
C1257 C 0.87662 0.35847 0.82735 0.0
C1258 C 0.96606 0.42614 0.92877 0.0
C1259 C 0.95277 0.45007 0.9537 0.0
C1260 C 0.94436 0.40655 0.90533 0.0
C1261 C 0.90899 0.41062 0.90621 0.0
C1262 C 0.89653 0.43565 0.93034 0.0
C1263 C 0.91802 0.455 0.95368 0.0
H1264 H 0.72376 0.85153 0.7991 0.0
H1265 H 0.73795 0.81025 0.88307 0.0
H1266 H 0.68213 0.88324 0.83415 0.0
H1267 H 0.69747 0.84364 0.91884 0.0
H1268 H 0.60158 0.89134 0.97228 0.0
H1269 H 0.63717 0.85296 0.93604 0.0
H1270 H 0.68199 0.93146 0.87359 0.0
H1271 H 0.64606 0.96853 0.90845 0.0
C1272 C 0.71839 0.84943 0.82517 0.0
C1273 C 0.73511 0.82868 0.83816 0.0
C1274 C 0.69446 0.86793 0.84551 0.0
C1275 C 0.68646 0.8667 0.87974 0.0
C1276 C 0.7026 0.84534 0.8927 0.0
C1277 C 0.72642 0.82651 0.87219 0.0
C1278 C 0.61844 0.89999 0.95038 0.0
C1279 C 0.62065 0.93317 0.94345 0.0
C1280 C 0.63931 0.87815 0.92977 0.0
C1281 C 0.66277 0.88884 0.90159 0.0
C1282 C 0.66404 0.92169 0.89448 0.0
C1283 C 0.64338 0.94327 0.91484 0.0
H1284 H 0.90176 0.76 0.19779 0.0
H1285 H 0.83409 0.66825 0.23194 0.0
H1286 H 0.93945 0.72533 0.15968 0.0
H1287 H 0.87263 0.63417 0.19575 0.0
H1288 H 0.91601 0.57573 0.10327 0.0
H1289 H 0.8834 0.61484 0.13905 0.0
H1290 H 0.98298 0.68813 0.15228 0.0
H1291 H 1.01639 0.64827 0.11481 0.0
C1292 C 0.89471 0.7325 0.19713 0.0
C1293 C 0.864 0.71702 0.21738 0.0
C1294 C 0.91677 0.71261 0.17559 0.0
C1295 C 0.90896 0.6767 0.17401 0.0
C1296 C 0.87912 0.66156 0.19535 0.0
C1297 C 0.85698 0.68128 0.21646 0.0
C1298 C 0.93135 0.60007 0.11379 0.0
C1299 C 0.96912 0.60834 0.10663 0.0
C1300 C 0.91242 0.62262 0.13462 0.0
C1301 C 0.93036 0.65444 0.14961 0.0
C1302 C 0.96816 0.66373 0.14141 0.0
C1303 C 0.98738 0.64092 0.11999 0.0
H1304 H 0.40388 0.83034 0.23029 0.0
H1305 H 0.32082 0.78647 0.16884 0.0
H1306 H 0.44043 0.86024 0.18563 0.0
H1307 H 0.35727 0.81598 0.12406 0.0
H1308 H 0.40433 0.9168 0.08037 0.0
H1309 H 0.37318 0.8754 0.11672 0.0
H1310 H 0.47476 0.85665 0.12907 0.0
H1311 H 0.50636 0.89919 0.09241 0.0
C1312 C 0.3937 0.82671 0.20702 0.0
C1313 C 0.3593 0.80657 0.20315 0.0
C1314 C 0.41471 0.84366 0.18137 0.0
C1315 C 0.40174 0.84068 0.15128 0.0
C1316 C 0.36787 0.81928 0.14707 0.0
C1317 C 0.34686 0.80253 0.17275 0.0
C1318 C 0.42007 0.90342 0.09035 0.0
C1319 C 0.45777 0.91134 0.08374 0.0
C1320 C 0.40215 0.87945 0.11105 0.0
C1321 C 0.42141 0.86269 0.12592 0.0
C1322 C 0.4592 0.86938 0.11817 0.0
C1323 C 0.47727 0.8934 0.09699 0.0
H1324 H 0.70656 0.1711 0.24279 0.0
H1325 H 0.73776 0.25006 0.17998 0.0
H1326 H 0.66933 0.13452 0.20285 0.0
H1327 H 0.69996 0.21381 0.14033 0.0
H1328 H 0.67155 0.12258 0.06015 0.0
H1329 H 0.70319 0.16056 0.10236 0.0
H1330 H 0.61377 0.12934 0.17673 0.0
H1331 H 0.58155 0.09043 0.13382 0.0
C1332 C 0.70566 0.18054 0.22031 0.0
C1333 C 0.72568 0.21318 0.21415 0.0
C1334 C 0.68385 0.15979 0.19771 0.0
C1335 C 0.68171 0.17118 0.16837 0.0
C1336 C 0.70131 0.20411 0.16254 0.0
C1337 C 0.72293 0.2249 0.18522 0.0
C1338 C 0.65836 0.12363 0.08545 0.0
C1339 C 0.62396 0.10317 0.09357 0.0
C1340 C 0.67652 0.14577 0.10968 0.0
C1341 C 0.66103 0.14816 0.14291 0.0
C1342 C 0.62649 0.12793 0.15128 0.0
C1343 C 0.60796 0.10582 0.12676 0.0
H1344 H 0.76471 0.6605 0.80723 0.0
H1345 H 0.68936 0.72665 0.83753 0.0
H1346 H 0.72696 0.61956 0.84255 0.0
H1347 H 0.65189 0.68597 0.8733 0.0
H1348 H 0.63614 0.6316 0.96759 0.0
H1349 H 0.66504 0.66833 0.92582 0.0
H1350 H 0.66219 0.5793 0.85114 0.0
H1351 H 0.63228 0.54218 0.89326 0.0
C1352 C 0.73988 0.6661 0.82121 0.0
C1353 C 0.73003 0.69682 0.81972 0.0
C1354 C 0.71817 0.64256 0.84124 0.0
C1355 C 0.68646 0.64953 0.8607 0.0
C1356 C 0.6762 0.67992 0.85861 0.0
C1357 C 0.69756 0.70313 0.83807 0.0
C1358 C 0.64132 0.61979 0.94221 0.0
C1359 C 0.63214 0.58394 0.93376 0.0
C1360 C 0.65768 0.6409 0.91824 0.0
C1361 C 0.66595 0.62674 0.8852 0.0
C1362 C 0.65623 0.59089 0.87647 0.0
C1363 C 0.63899 0.56969 0.90048 0.0
H1364 H 0.49748 0.672 0.83534 0.0
H1365 H 0.38394 0.63361 0.86474 0.0
H1366 H 0.51116 0.64539 0.87778 0.0
H1367 H 0.39752 0.61022 0.9092 0.0
H1368 H 0.43324 0.52855 0.94816 0.0
H1369 H 0.41839 0.56264 0.91293 0.0
H1370 H 0.5118 0.64242 0.93318 0.0
H1371 H 0.52794 0.60695 0.96702 0.0
C1372 C 0.47538 0.65832 0.85109 0.0
C1373 C 0.43961 0.65449 0.84601 0.0
C1374 C 0.48323 0.64355 0.87593 0.0
C1375 C 0.45548 0.62515 0.89675 0.0
C1376 C 0.41967 0.62338 0.89311 0.0
C1377 C 0.41184 0.63745 0.86785 0.0
C1378 C 0.45054 0.55347 0.94533 0.0
C1379 C 0.48183 0.56499 0.96034 0.0
C1380 C 0.44181 0.57328 0.9253 0.0
C1381 C 0.46375 0.6055 0.9202 0.0
C1382 C 0.49455 0.61752 0.93608 0.0
C1383 C 0.50369 0.59731 0.95567 0.0
H1384 H 0.38624 0.28147 0.82677 0.0
H1385 H 0.35164 0.37424 0.82393 0.0
H1386 H 0.43122 0.31437 0.86135 0.0
H1387 H 0.3972 0.40696 0.85758 0.0
H1388 H 0.45609 0.38452 0.96367 0.0
H1389 H 0.42432 0.34716 0.92047 0.0
H1390 H 0.46631 0.42371 0.85556 0.0
H1391 H 0.49838 0.46112 0.89877 0.0
C1392 C 0.38843 0.30886 0.8332 0.0
C1393 C 0.36559 0.32531 0.82234 0.0
C1394 C 0.41426 0.32763 0.85284 0.0
C1395 C 0.41792 0.36317 0.86164 0.0
C1396 C 0.39546 0.37968 0.85045 0.0
C1397 C 0.36933 0.3609 0.83125 0.0
C1398 C 0.45932 0.39294 0.93985 0.0
C1399 C 0.47945 0.42572 0.93456 0.0
C1400 C 0.44127 0.37153 0.91513 0.0
C1401 C 0.44268 0.38279 0.88491 0.0
C1402 C 0.4647 0.41464 0.87881 0.0
C1403 C 0.48324 0.43586 0.90339 0.0
H1404 H 0.5794 0.28022 0.93267 0.0
H1405 H 0.6938 0.29953 0.93285 0.0
H1406 H 0.57529 0.32748 0.97641 0.0
H1407 H 0.68994 0.34739 0.9772 0.0
H1408 H 0.671 0.45618 0.96515 0.0
H1409 H 0.68195 0.39878 0.9603 0.0
H1410 H 0.58215 0.36888 1.02425 0.0
H1411 H 0.57052 0.42561 0.02744 0.0
C1412 C 0.60336 0.29318 0.9436 0.0
C1413 C 0.63711 0.28747 0.9285 0.0
C1414 C 0.60113 0.3206 0.96879 0.0
C1415 C 0.6327 0.34237 0.97905 0.0
C1416 C 0.66538 0.33184 0.96884 0.0
C1417 C 0.66755 0.30429 0.94366 0.0
C1418 C 0.6519 0.43746 0.97863 0.0
C1419 C 0.61936 0.44465 0.99549 0.0
C1420 C 0.65832 0.40467 0.97636 0.0
C1421 C 0.63247 0.37893 0.99142 0.0
C1422 C 0.60213 0.38781 1.01175 0.0
C1423 C 0.59537 0.4202 1.01333 0.0
H1424 H 0.70989 0.39703 0.18216 0.0
H1425 H 0.62775 0.43852 0.25015 0.0
H1426 H 0.68396 0.4057 0.13568 0.0
H1427 H 0.60222 0.44768 0.20399 0.0
H1428 H 0.55332 0.45058 0.11617 0.0
H1429 H 0.57217 0.42214 0.15488 0.0
H1430 H 0.68327 0.45918 0.11595 0.0
H1431 H 0.66455 0.48718 0.07725 0.0
C1432 C 0.68588 0.40734 0.18712 0.0
C1433 C 0.67106 0.41751 0.21972 0.0
C1434 C 0.67117 0.41248 0.16057 0.0
C1435 C 0.64117 0.42756 0.16616 0.0
C1436 C 0.62511 0.43572 0.19878 0.0
C1437 C 0.63996 0.43084 0.22525 0.0
C1438 C 0.58171 0.45204 0.11545 0.0
C1439 C 0.60748 0.47176 0.09417 0.0
C1440 C 0.5925 0.43586 0.13768 0.0
C1441 C 0.62922 0.43876 0.13874 0.0
C1442 C 0.65479 0.45628 0.11569 0.0
C1443 C 0.64404 0.47264 0.09371 0.0
H1444 H 0.70001 0.76024 0.22531 0.0
H1445 H 0.73672 0.66811 0.22621 0.0
H1446 H 0.65355 0.72659 0.19237 0.0
H1447 H 0.68975 0.63478 0.19467 0.0
H1448 H 0.5886 0.57833 0.15718 0.0
H1449 H 0.61967 0.61792 0.19987 0.0
H1450 H 0.65999 0.69234 0.1326 0.0
H1451 H 0.62928 0.65278 0.08988 0.0
C1452 C 0.6979 0.73285 0.2189 0.0
C1453 C 0.72171 0.71675 0.22878 0.0
C1454 C 0.67124 0.71367 0.20027 0.0
C1455 C 0.66774 0.67811 0.19167 0.0
C1456 C 0.69128 0.66204 0.2018 0.0
C1457 C 0.71823 0.6812 0.21982 0.0
C1458 C 0.6031 0.60358 0.15192 0.0
C1459 C 0.60699 0.61245 0.12022 0.0
C1460 C 0.62097 0.62608 0.17623 0.0
C1461 C 0.64237 0.65791 0.16927 0.0
C1462 C 0.64349 0.66799 0.13856 0.0
C1463 C 0.62613 0.64531 0.11412 0.0
H1464 H 0.39679 0.73817 0.12299 0.0
H1465 H 0.51026 0.75539 0.1271 0.0
H1466 H 0.402 0.69267 0.07648 0.0
H1467 H 0.51571 0.71043 0.08131 0.0
H1468 H 0.52125 0.61332 0.02967 0.0
H1469 H 0.51076 0.67044 0.0329 0.0
H1470 H 0.40745 0.63984 0.09163 0.0
H1471 H 0.41719 0.58197 0.08627 0.0
C1472 C 0.42322 0.73357 0.11264 0.0
C1473 C 0.45283 0.7488 0.12945 0.0
C1474 C 0.42616 0.70735 0.0862 0.0
C1475 C 0.45876 0.69656 0.07653 0.0
C1476 C 0.48987 0.71739 0.08852 0.0
C1477 C 0.48688 0.74351 0.11492 0.0
C1478 C 0.49588 0.61866 0.04253 0.0
C1479 C 0.47044 0.59377 0.05874 0.0
C1480 C 0.4898 0.65131 0.04418 0.0
C1481 C 0.45877 0.66012 0.06323 0.0
C1482 C 0.43169 0.63408 0.07659 0.0
C1483 C 0.43739 0.60099 0.07408 0.0
H1484 H 0.30904 0.37334 0.24126 0.0
H1485 H 0.39951 0.32567 0.2296 0.0
H1486 H 0.34481 0.41615 0.20747 0.0
H1487 H 0.43549 0.3688 0.19577 0.0
H1488 H 0.49498 0.4679 0.14993 0.0
H1489 H 0.46328 0.43275 0.19309 0.0
H1490 H 0.36688 0.40972 0.14753 0.0
H1491 H 0.39807 0.44426 0.10498 0.0
C1492 C 0.33676 0.37231 0.23188 0.0
C1493 C 0.35132 0.34595 0.23795 0.0
C1494 C 0.35725 0.39681 0.21245 0.0
C1495 C 0.39291 0.39571 0.19863 0.0
C1496 C 0.4082 0.37053 0.20624 0.0
C1497 C 0.38758 0.34582 0.22564 0.0
C1498 C 0.4669 0.45566 0.1495 0.0
C1499 C 0.44909 0.45887 0.12397 0.0
C1500 C 0.44884 0.43536 0.17404 0.0
C1501 C 0.41248 0.41856 0.17385 0.0
C1502 C 0.39467 0.42264 0.14876 0.0
C1503 C 0.4127 0.44232 0.12418 0.0
H1504 H 0.85265 0.67872 0.74806 0.0
H1505 H 0.85957 0.74015 0.67184 0.0
H1506 H 0.88969 0.64358 0.71042 0.0
H1507 H 0.89604 0.70429 0.63371 0.0
H1508 H 0.99282 0.64893 0.58895 0.0
H1509 H 0.95648 0.68774 0.62331 0.0
H1510 H 0.88203 0.60116 0.661 0.0
H1511 H 0.91754 0.5629 0.6273 0.0
C1512 C 0.86194 0.68471 0.72322 0.0
C1513 C 0.85249 0.71197 0.71289 0.0
C1514 C 0.88308 0.66439 0.7015 0.0
C1515 C 0.89562 0.67079 0.6688 0.0
C1516 C 0.88695 0.69861 0.65867 0.0
C1517 C 0.86561 0.7189 0.68043 0.0
C1518 C 0.96846 0.63819 0.60425 0.0
C1519 C 0.95861 0.60267 0.60549 0.0
C1520 C 0.94762 0.66045 0.62399 0.0
C1521 C 0.91666 0.64766 0.64551 0.0
C1522 C 0.90613 0.61209 0.64548 0.0
C1523 C 0.92661 0.59005 0.62583 0.0
H1524 H 0.36309 0.76645 0.66732 0.0
H1525 H 0.34182 0.86229 0.72194 0.0
H1526 H 0.39725 0.7964 0.62191 0.0
H1527 H 0.37476 0.89175 0.67615 0.0
H1528 H 0.40556 0.93276 0.58256 0.0
H1529 H 0.36722 0.89168 0.6169 0.0
H1530 H 0.45589 0.84346 0.61301 0.0
H1531 H 0.49438 0.88469 0.57823 0.0
C1532 C 0.36596 0.79388 0.66985 0.0
C1533 C 0.35017 0.81203 0.69858 0.0
C1534 C 0.38524 0.81092 0.64367 0.0
C1535 C 0.38832 0.84626 0.6454 0.0
C1536 C 0.37226 0.86432 0.67392 0.0
C1537 C 0.35348 0.84744 0.70022 0.0
C1538 C 0.41645 0.91255 0.58799 0.0
C1539 C 0.45287 0.9119 0.57797 0.0
C1540 C 0.39465 0.88929 0.60788 0.0
C1541 C 0.40889 0.86502 0.61822 0.0
C1542 C 0.44431 0.862 0.60538 0.0
C1543 C 0.46624 0.88538 0.5853 0.0
H1544 H 0.243 0.41817 0.65184 0.0
H1545 H 0.145 0.40053 0.72063 0.0
H1546 H 0.21205 0.43939 0.61602 0.0
H1547 H 0.11433 0.4216 0.68509 0.0
H1548 H 0.08593 0.50362 0.64378 0.0
H1549 H 0.12228 0.48107 0.67251 0.0
H1550 H 0.15977 0.42264 0.58107 0.0
H1551 H 0.12312 0.44569 0.55185 0.0
C1552 C 0.21475 0.41831 0.65901 0.0
C1553 C 0.19652 0.40832 0.6893 0.0
C1554 C 0.19711 0.43045 0.63855 0.0
C1555 C 0.16107 0.4328 0.64817 0.0
C1556 C 0.14242 0.42091 0.6775 0.0
C1557 C 0.15994 0.40885 0.69785 0.0
C1558 C 0.10219 0.48623 0.62966 0.0
C1559 C 0.10126 0.47591 0.59572 0.0
C1560 C 0.12286 0.4732 0.64616 0.0
C1561 C 0.14304 0.44941 0.62916 0.0
C1562 C 0.14421 0.44079 0.59475 0.0
C1563 C 0.12341 0.45402 0.57806 0.0
H1564 H 0.70536 0.17322 0.75089 0.0
H1565 H 0.76462 0.22043 0.66708 0.0
H1566 H 0.66541 0.13326 0.71559 0.0
H1567 H 0.72328 0.18173 0.63147 0.0
H1568 H 0.65206 0.09237 0.57176 0.0
H1569 H 0.69856 0.12689 0.60421 0.0
H1570 H 0.61778 0.13415 0.68996 0.0
H1571 H 0.57224 0.09873 0.6582 0.0
C1572 C 0.71 0.17465 0.72467 0.0
C1573 C 0.73815 0.1996 0.7116 0.0
C1574 C 0.68676 0.15211 0.7044 0.0
C1575 C 0.6903 0.15452 0.67055 0.0
C1576 C 0.71964 0.17872 0.65725 0.0
C1577 C 0.74346 0.2009 0.67757 0.0
C1578 C 0.64437 0.10125 0.59761 0.0
C1579 C 0.60836 0.09236 0.61237 0.0
C1580 C 0.67105 0.12124 0.61625 0.0
C1581 C 0.66234 0.13315 0.65006 0.0
C1582 C 0.6261 0.12473 0.66441 0.0
C1583 C 0.5997 0.1045 0.646 0.0
H1584 H 0.88386 0.29808 0.33556 0.0
H1585 H 0.83272 0.38249 0.33955 0.0
H1586 H 0.92426 0.33372 0.37275 0.0
H1587 H 0.8731 0.41794 0.37759 0.0
H1588 H 0.93275 0.4545 0.47262 0.0
H1589 H 0.88835 0.41848 0.43806 0.0
H1590 H 0.9743 0.38798 0.36645 0.0
H1591 H 1.01824 0.42397 0.40028 0.0
C1592 C 0.88104 0.32417 0.34433 0.0
C1593 C 0.85483 0.33726 0.33433 0.0
C1594 C 0.90428 0.34459 0.36576 0.0
C1595 C 0.90173 0.37854 0.3782 0.0
C1596 C 0.87538 0.3917 0.36867 0.0
C1597 C 0.8524 0.37139 0.34671 0.0
C1598 C 0.94199 0.43987 0.4496 0.0
C1599 C 0.97894 0.44205 0.43915 0.0
C1600 C 0.91667 0.41953 0.42975 0.0
C1601 C 0.92792 0.40045 0.39958 0.0
C1602 C 0.96481 0.40222 0.38962 0.0
C1603 C 0.98997 0.42295 0.40899 0.0
H1604 H 0.77418 0.87749 0.33967 0.0
H1605 H 0.69214 0.78548 0.35019 0.0
H1606 H 0.73527 0.91102 0.37607 0.0
H1607 H 0.65469 0.81821 0.38996 0.0
H1608 H 0.57855 0.8911 0.43383 0.0
H1609 H 0.61663 0.85445 0.39977 0.0
H1610 H 0.71094 0.9293 0.42718 0.0
H1611 H 0.67261 0.96657 0.45874 0.0
C1612 C 0.74791 0.86427 0.35008 0.0
C1613 C 0.73643 0.82867 0.34165 0.0
C1614 C 0.7256 0.88352 0.37171 0.0
C1615 C 0.6914 0.86772 0.38675 0.0
C1616 C 0.68031 0.83185 0.3788 0.0
C1617 C 0.70223 0.81277 0.35626 0.0
C1618 C 0.60744 0.89929 0.43285 0.0
C1619 C 0.62261 0.93167 0.44893 0.0
C1620 C 0.62952 0.87825 0.41327 0.0
C1621 C 0.66741 0.88874 0.40983 0.0
C1622 C 0.68219 0.92042 0.42782 0.0
C1623 C 0.66017 0.94174 0.44653 0.0
H1624 H 0.22791 0.67083 0.31926 0.0
H1625 H 0.24443 0.76646 0.38552 0.0
H1626 H 0.18434 0.64389 0.36209 0.0
H1627 H 0.2011 0.73901 0.4288 0.0
H1628 H 0.16025 0.64287 0.49613 0.0
H1629 H 0.19977 0.68251 0.45993 0.0
H1630 H 0.12041 0.65697 0.39362 0.0
H1631 H 0.08067 0.61889 0.43029 0.0
C1632 C 0.22245 0.68599 0.34307 0.0
C1633 C 0.23961 0.72065 0.34917 0.0
C1634 C 0.19736 0.67067 0.36745 0.0
C1635 C 0.1894 0.68954 0.39856 0.0
C1636 C 0.2069 0.72406 0.40495 0.0
C1637 C 0.23152 0.73965 0.38025 0.0
C1638 C 0.15066 0.64734 0.47475 0.0
C1639 C 0.11733 0.62858 0.46615 0.0
C1640 C 0.17326 0.66967 0.45396 0.0
C1641 C 0.16302 0.67257 0.42405 0.0
C1642 C 0.12873 0.65537 0.41667 0.0
C1643 C 0.10595 0.63382 0.43772 0.0
H1644 H 0.45443 0.12955 0.31535 0.0
H1645 H 0.41167 0.19255 0.40129 0.0
H1646 H 0.47021 0.09623 0.35078 0.0
H1647 H 0.42372 0.15676 0.4366 0.0
H1648 H 0.4963 0.11688 0.48982 0.0
H1649 H 0.46983 0.14664 0.45813 0.0
H1650 H 0.45289 0.05563 0.38533 0.0
H1651 H 0.48215 0.0273 0.41607 0.0
C1652 C 0.44805 0.13621 0.34178 0.0
C1653 C 0.43203 0.16416 0.3552 0.0
C1654 C 0.45641 0.11646 0.36226 0.0
C1655 C 0.44822 0.12351 0.39683 0.0
C1656 C 0.43107 0.15073 0.41022 0.0
C1657 C 0.4235 0.17101 0.38976 0.0
C1658 C 0.48603 0.10315 0.46743 0.0
C1659 C 0.49107 0.06995 0.45526 0.0
C1660 C 0.47079 0.12013 0.44915 0.0
C1661 C 0.45961 0.10388 0.41864 0.0
C1662 C 0.46219 0.0695 0.40803 0.0
C1663 C 0.47838 0.05297 0.42585 0.0
H1664 H 0.66831 0.81129 0.59031 0.0
H1665 H 0.6518 0.85926 0.69182 0.0
H1666 H 0.64911 0.8572 0.57291 0.0
H1667 H 0.63615 0.90645 0.67414 0.0
H1668 H 0.55854 0.95487 0.63924 0.0
H1669 H 0.58642 0.91522 0.65622 0.0
H1670 H 0.66053 0.9156 0.56518 0.0
H1671 H 0.63104 0.95448 0.54723 0.0
C1672 C 0.66094 0.83168 0.60892 0.0
C1673 C 0.66134 0.83115 0.64257 0.0
C1674 C 0.65056 0.85843 0.59884 0.0
C1675 C 0.64077 0.88554 0.62211 0.0
C1676 C 0.64275 0.88572 0.65553 0.0
C1677 C 0.65239 0.85875 0.66565 0.0
C1678 C 0.58107 0.94696 0.62286 0.0
C1679 C 0.59234 0.95779 0.59172 0.0
C1680 C 0.59735 0.92425 0.63279 0.0
C1681 C 0.62584 0.91204 0.61213 0.0
C1682 C 0.63828 0.92403 0.58152 0.0
C1683 C 0.62163 0.9466 0.57137 0.0
H1684 H 0.70016 0.18576 0.32211 0.0
H1685 H 0.7543 0.2668 0.39006 0.0
H1686 H 0.66541 0.1575 0.36856 0.0
H1687 H 0.71953 0.23805 0.4367 0.0
H1688 H 0.68092 0.10899 0.46557 0.0
H1689 H 0.71601 0.15308 0.43256 0.0
H1690 H 0.6218 0.1935 0.43781 0.0
H1691 H 0.58668 0.14994 0.47179 0.0
C1692 C 0.70447 0.19752 0.34701 0.0
C1693 C 0.72997 0.22822 0.35267 0.0
C1694 C 0.68447 0.18156 0.37345 0.0
C1695 C 0.68988 0.1959 0.4059 0.0
C1696 C 0.71492 0.22685 0.41176 0.0
C1697 C 0.73471 0.2431 0.38522 0.0
C1698 C 0.66811 0.12821 0.46088 0.0
C1699 C 0.63121 0.12623 0.47124 0.0
C1700 C 0.68813 0.15331 0.44202 0.0
C1701 C 0.67139 0.1764 0.43286 0.0
C1702 C 0.63516 0.17608 0.44507 0.0
C1703 C 0.61523 0.15133 0.46456 0.0
H1704 H 0.82334 0.63719 0.46291 0.0
H1705 H 0.87697 0.62808 0.3622 0.0
H1706 H 0.86759 0.61309 0.47912 0.0
H1707 H 0.92362 0.60772 0.37922 0.0
H1708 H 0.98358 0.53923 0.41166 0.0
H1709 H 0.93775 0.56144 0.39441 0.0
H1710 H 0.92493 0.62337 0.49027 0.0
H1711 H 0.9685 0.59913 0.50786 0.0
C1712 C 0.84465 0.63029 0.44416 0.0
C1713 C 0.84614 0.63449 0.41111 0.0
C1714 C 0.87063 0.617 0.45365 0.0
C1715 C 0.89954 0.6084 0.43059 0.0
C1716 C 0.90153 0.61337 0.39768 0.0
C1717 C 0.875 0.62584 0.388 0.0
C1718 C 0.97064 0.55744 0.42894 0.0
C1719 C 0.97921 0.56725 0.4611 0.0
C1720 C 0.9446 0.57048 0.41905 0.0
C1721 C 0.92732 0.59431 0.4409 0.0
C1722 C 0.93668 0.60444 0.47293 0.0
C1723 C 0.9619 0.59071 0.48303 0.0
H1724 H 0.31345 0.84083 0.37632 0.0
H1725 H 0.4043 0.83623 0.29993 0.0
H1726 H 0.35285 0.88223 0.41211 0.0
H1727 H 0.44343 0.87587 0.33553 0.0
H1728 H 0.50457 0.96742 0.39253 0.0
H1729 H 0.45951 0.93323 0.35928 0.0
H1730 H 0.40089 0.88651 0.44401 0.0
H1731 H 0.44568 0.92207 0.47783 0.0
C1732 C 0.34166 0.84892 0.36704 0.0
C1733 C 0.35566 0.83523 0.33524 0.0
C1734 C 0.36437 0.87232 0.38767 0.0
C1735 C 0.40151 0.88264 0.37684 0.0
C1736 C 0.41504 0.86927 0.34474 0.0
C1737 C 0.39251 0.84617 0.32429 0.0
C1738 C 0.48202 0.95 0.40422 0.0
C1739 C 0.4791 0.94726 0.43783 0.0
C1740 C 0.45612 0.93018 0.38504 0.0
C1741 C 0.42666 0.90649 0.39865 0.0
C1742 C 0.423 0.90456 0.43261 0.0
C1743 C 0.44883 0.92483 0.452 0.0
H1744 H 0.21837 0.29711 0.37776 0.0
H1745 H 0.23312 0.36156 0.30261 0.0
H1746 H 0.18222 0.33357 0.4151 0.0
H1747 H 0.19579 0.39728 0.33932 0.0
H1748 H 0.16475 0.47691 0.42276 0.0
H1749 H 0.2 0.4386 0.38865 0.0
H1750 H 0.12459 0.35191 0.42528 0.0
H1751 H 0.08875 0.39076 0.46011 0.0
C1752 C 0.21417 0.31923 0.36928 0.0
C1753 C 0.22952 0.32684 0.33743 0.0
C1754 C 0.19289 0.33988 0.39056 0.0
C1755 C 0.18622 0.36871 0.38052 0.0
C1756 C 0.20084 0.37574 0.34828 0.0
C1757 C 0.22209 0.35508 0.32704 0.0
C1758 C 0.15545 0.44972 0.42388 0.0
C1759 C 0.12342 0.43712 0.44422 0.0
C1760 C 0.17574 0.42761 0.40394 0.0
C1761 C 0.16497 0.39198 0.40354 0.0
C1762 C 0.13377 0.37922 0.42487 0.0
C1763 C 0.1132 0.40152 0.44492 0.0
H1764 H 0.40077 0.25325 0.70523 0.0
H1765 H 0.31121 0.16611 0.7033 0.0
H1766 H 0.43875 0.21881 0.66714 0.0
H1767 H 0.3486 0.13203 0.66496 0.0
H1768 H 0.4318 0.06866 0.63807 0.0
H1769 H 0.39564 0.10671 0.66935 0.0
H1770 H 0.45323 0.18662 0.61186 0.0
H1771 H 0.49142 0.1479 0.5802 0.0
C1772 C 0.38908 0.22683 0.69643 0.0
C1773 C 0.35306 0.21227 0.70778 0.0
C1774 C 0.41084 0.20713 0.6744 0.0
C1775 C 0.39708 0.17237 0.6632 0.0
C1776 C 0.36057 0.15841 0.6736 0.0
C1777 C 0.33899 0.17798 0.69564 0.0
C1778 C 0.43711 0.09417 0.63149 0.0
C1779 C 0.46483 0.10482 0.60605 0.0
C1780 C 0.41581 0.11613 0.64958 0.0
C1781 C 0.4208 0.14972 0.64297 0.0
C1782 C 0.44856 0.16087 0.61769 0.0
C1783 C 0.47035 0.13863 0.59939 0.0
H1784 H 0.83324 0.36667 0.71863 0.0
H1785 H 0.86054 0.27028 0.67352 0.0
H1786 H 0.86994 0.39398 0.67303 0.0
H1787 H 0.89893 0.29826 0.62817 0.0
H1788 H 0.99744 0.38771 0.58625 0.0
H1789 H 0.95711 0.34745 0.62121 0.0
H1790 H 0.86759 0.38879 0.6113 0.0
H1791 H 0.9077 0.42882 0.57682 0.0
C1792 C 0.84652 0.35113 0.69873 0.0
C1793 C 0.84303 0.31608 0.69935 0.0
C1794 C 0.86781 0.36684 0.67264 0.0
C1795 C 0.88677 0.34805 0.64674 0.0
C1796 C 0.88434 0.31322 0.6477 0.0
C1797 C 0.86241 0.29731 0.67365 0.0
C1798 C 0.96886 0.38692 0.59029 0.0
C1799 C 0.95555 0.41124 0.57891 0.0
C1800 C 0.94586 0.36415 0.6105 0.0
C1801 C 0.90943 0.36562 0.61949 0.0
C1802 C 0.89568 0.38757 0.60523 0.0
C1803 C 0.91852 0.41018 0.58521 0.0
H1804 H 0.23949 0.7399 0.67809 0.0
H1805 H 0.2248 0.65829 0.73599 0.0
H1806 H 0.1974 0.70286 0.64236 0.0
H1807 H 0.18415 0.62106 0.69981 0.0
H1808 H 0.07833 0.58128 0.65878 0.0
H1809 H 0.12405 0.61715 0.69033 0.0
H1810 H 0.1869 0.65117 0.601 0.0
H1811 H 0.14038 0.61548 0.56914 0.0
C1812 C 0.22773 0.7139 0.68285 0.0
C1813 C 0.23571 0.702 0.70975 0.0
C1814 C 0.20378 0.6926 0.66227 0.0
C1815 C 0.18716 0.65896 0.66825 0.0
C1816 C 0.19599 0.64692 0.69468 0.0
C1817 C 0.21978 0.66816 0.7152 0.0
C1818 C 0.10183 0.59634 0.64569 0.0
C1819 C 0.10548 0.59545 0.61132 0.0
C1820 C 0.1283 0.61678 0.66385 0.0
C1821 C 0.15937 0.63699 0.64827 0.0
C1822 C 0.1632 0.63613 0.61385 0.0
C1823 C 0.13663 0.6155 0.59556 0.0
loop_
_geom_bond_atom_site_label_1
_geom_bond_atom_site_label_2
_geom_bond_distance
_geom_bond_site_symmetry_2
_ccdc_geom_bond_type
Tb0 N29 2.617 . S
Tb0 N35 2.572 . S
Tb0 O44 2.465 . S
Tb0 O45 2.387 . S
Tb0 O47 2.428 . S
Tb0 O48 2.308 . S
Tb0 O52 2.349 . S
Tb0 O55 2.393 . S
Tb0 C64 2.802 . S
C1 N2 1.379 . S
C1 C4 1.416 . S
C1 C8 1.424 . S
N2 C1 1.379 . S
N2 C5 1.334 . S
N2 Tb11 2.617 . S
C3 C5 1.390 . S
C3 C6 1.339 . S
C3 H23 0.930 . S
C4 C1 1.416 . S
C4 C6 1.416 . S
C4 C10 1.448 . S
C5 N2 1.334 . S
C5 C3 1.390 . S
C5 H16 0.930 . S
C6 C3 1.339 . S
C6 C4 1.416 . S
C6 H27 0.930 . S
C7 C8 1.413 . S
C7 C9 1.427 . S
C7 C13 1.416 . S
C8 C1 1.424 . S
C8 C7 1.413 . S
C8 N12 1.361 . S
C9 C7 1.427 . S
C9 C10 1.328 . S
C9 H24 0.929 . S
C10 C4 1.448 . S
C10 C9 1.328 . S
C10 H25 0.930 . S
Tb11 N2 2.617 . S
Tb11 N12 2.572 . S
Tb11 O46 2.349 . S
Tb11 O49 2.393 . S
Tb11 O50 2.465 . S
Tb11 O51 2.387 . S
Tb11 O53 2.428 . S
Tb11 O54 2.308 . S
Tb11 C75 2.802 . S
N12 C8 1.361 . S
N12 Tb11 2.572 . S
N12 C14 1.340 . S
C13 C7 1.416 . S
C13 C15 1.332 . S
C13 H21 0.931 . S
C14 N12 1.340 . S
C14 C15 1.407 . S
C14 H20 0.930 . S
C15 C13 1.332 . S
C15 C14 1.407 . S
C15 H17 0.929 . S
H16 C5 0.930 . S
H17 C15 0.929 . S
H18 C33 0.930 . S
H19 C40 0.929 . S
H20 C14 0.930 . S
H21 C13 0.931 . S
H22 C36 0.930 . S
H23 C3 0.930 . S
H24 C9 0.929 . S
H25 C10 0.930 . S
H26 C31 0.930 . S
H27 C6 0.930 . S
H28 C39 0.931 . S
N29 Tb0 2.617 . S
N29 C30 1.379 . S
N29 C33 1.334 . S
C30 N29 1.379 . S
C30 C32 1.416 . S
C30 C38 1.424 . S
C31 H26 0.930 . S
C31 C33 1.390 . S
C31 C34 1.339 . S
C32 C30 1.416 . S
C32 C34 1.416 . S
C32 C65 1.448 . S
C33 H18 0.930 . S
C33 N29 1.334 . S
C33 C31 1.390 . S
C34 C31 1.339 . S
C34 C32 1.416 . S
C34 H41 0.930 . S
N35 Tb0 2.572 . S
N35 C36 1.340 . S
N35 C38 1.361 . S
C36 H22 0.930 . S
C36 N35 1.340 . S
C36 C40 1.407 . S
C37 C38 1.413 . S
C37 C39 1.416 . S
C37 C66 1.427 . S
C38 C30 1.424 . S
C38 N35 1.361 . S
C38 C37 1.413 . S
C39 H28 0.931 . S
C39 C37 1.416 . S
C39 C40 1.332 . S
C40 H19 0.929 . S
C40 C36 1.407 . S
C40 C39 1.332 . S
H41 C34 0.930 . S
H42 C65 0.930 . S
H43 C66 0.929 . S
O44 Tb0 2.465 . S
O44 C64 1.264 . S
O45 Tb0 2.387 . S
O45 C56 1.264 . S
O46 Tb11 2.349 . S
O46 C56 1.243 . S
O47 Tb0 2.428 . S
O47 C64 1.256 . S
O48 Tb0 2.308 . S
O48 C63 1.266 . S
O49 Tb11 2.393 . S
O49 C63 1.248 . S
O50 Tb11 2.465 . S
O50 C75 1.264 . S
O51 Tb11 2.387 . S
O51 C67 1.264 . S
O52 Tb0 2.349 . S
O52 C67 1.243 . S
O53 Tb11 2.428 . S
O53 C75 1.256 . S
O54 Tb11 2.308 . S
O54 C74 1.266 . S
O55 Tb0 2.393 . S
O55 C74 1.248 . S
C56 O45 1.264 . S
C56 O46 1.243 . S
C57 C60 1.399 . S
C57 C62 1.383 . S
C57 C64 1.496 . S
C58 C59 1.399 . S
C58 C62 1.389 . S
C59 C58 1.399 . S
C59 C61 1.380 . S
C59 H76 0.929 . S
C60 C57 1.399 . S
C60 C61 1.392 . S
C60 H77 0.929 . S
C61 C59 1.380 . S
C61 C60 1.392 . S
C61 H78 0.929 . S
C62 C57 1.383 . S
C62 C58 1.389 . S
C62 H79 0.931 . S
C63 O48 1.266 . S
C63 O49 1.248 . S
C64 Tb0 2.802 . S
C64 O44 1.264 . S
C64 O47 1.256 . S
C64 C57 1.496 . S
C65 C32 1.448 . S
C65 H42 0.930 . S
C65 C66 1.328 . S
C66 C37 1.427 . S
C66 H43 0.929 . S
C66 C65 1.328 . S
C67 O51 1.264 . S
C67 O52 1.243 . S
C68 C71 1.399 . S
C68 C72 1.383 . S
C68 C75 1.496 . S
C69 C70 1.399 . S
C69 C72 1.389 . S
C70 C69 1.399 . S
C70 C73 1.380 . S
C70 H80 0.929 . S
C71 C68 1.399 . S
C71 C73 1.392 . S
C71 H81 0.929 . S
C72 C68 1.383 . S
C72 C69 1.389 . S
C72 H82 0.931 . S
C73 C70 1.380 . S
C73 C71 1.392 . S
C73 H83 0.929 . S
C74 O54 1.266 . S
C74 O55 1.248 . S
C75 Tb11 2.802 . S
C75 O50 1.264 . S
C75 O53 1.256 . S
C75 C68 1.496 . S
H76 C59 0.929 . S
H77 C60 0.929 . S
H78 C61 0.929 . S
H79 C62 0.931 . S
H80 C70 0.929 . S
H81 C71 0.929 . S
H82 C72 0.931 . S
H83 C73 0.929 . S
Tb84 N113 2.617 . S
Tb84 N119 2.572 . S
Tb84 O128 2.465 . S
Tb84 O129 2.387 . S
Tb84 O131 2.428 . S
Tb84 O132 2.308 . S
Tb84 O136 2.349 . S
Tb84 O139 2.393 . S
Tb84 C148 2.802 . S
C85 N86 1.379 . S
C85 C88 1.416 . S
C85 C92 1.424 . S
N86 C85 1.379 . S
N86 C89 1.334 . S
N86 Tb95 2.617 . S
C87 C89 1.390 . S
C87 C90 1.339 . S
C87 H107 0.930 . S
C88 C85 1.416 . S
C88 C90 1.416 . S
C88 C94 1.448 . S
C89 N86 1.334 . S
C89 C87 1.390 . S
C89 H100 0.930 . S
C90 C87 1.339 . S
C90 C88 1.416 . S
C90 H111 0.930 . S
C91 C92 1.413 . S
C91 C93 1.427 . S
C91 C97 1.416 . S
C92 C85 1.424 . S
C92 C91 1.413 . S
C92 N96 1.361 . S
C93 C91 1.427 . S
C93 C94 1.328 . S
C93 H108 0.929 . S
C94 C88 1.448 . S
C94 C93 1.328 . S
C94 H109 0.930 . S
Tb95 N86 2.617 . S
Tb95 N96 2.572 . S
Tb95 O130 2.349 . S
Tb95 O133 2.393 . S
Tb95 O134 2.465 . S
Tb95 O135 2.387 . S
Tb95 O137 2.428 . S
Tb95 O138 2.308 . S
Tb95 C159 2.802 . S
N96 C92 1.361 . S
N96 Tb95 2.572 . S
N96 C98 1.340 . S
C97 C91 1.416 . S
C97 C99 1.332 . S
C97 H105 0.931 . S
C98 N96 1.340 . S
C98 C99 1.407 . S
C98 H104 0.930 . S
C99 C97 1.332 . S
C99 C98 1.407 . S
C99 H101 0.929 . S
H100 C89 0.930 . S
H101 C99 0.929 . S
H102 C117 0.930 . S
H103 C124 0.929 . S
H104 C98 0.930 . S
H105 C97 0.931 . S
H106 C120 0.930 . S
H107 C87 0.930 . S
H108 C93 0.929 . S
H109 C94 0.930 . S
H110 C115 0.930 . S
H111 C90 0.930 . S
H112 C123 0.931 . S
N113 Tb84 2.617 . S
N113 C114 1.379 . S
N113 C117 1.334 . S
C114 N113 1.379 . S
C114 C116 1.416 . S
C114 C122 1.424 . S
C115 H110 0.930 . S
C115 C117 1.390 . S
C115 C118 1.339 . S
C116 C114 1.416 . S
C116 C118 1.416 . S
C116 C149 1.448 . S
C117 H102 0.930 . S
C117 N113 1.334 . S
C117 C115 1.390 . S
C118 C115 1.339 . S
C118 C116 1.416 . S
C118 H125 0.930 . S
N119 Tb84 2.572 . S
N119 C120 1.340 . S
N119 C122 1.361 . S
C120 H106 0.930 . S
C120 N119 1.340 . S
C120 C124 1.407 . S
C121 C122 1.413 . S
C121 C123 1.416 . S
C121 C150 1.427 . S
C122 C114 1.424 . S
C122 N119 1.361 . S
C122 C121 1.413 . S
C123 H112 0.931 . S
C123 C121 1.416 . S
C123 C124 1.332 . S
C124 H103 0.929 . S
C124 C120 1.407 . S
C124 C123 1.332 . S
H125 C118 0.930 . S
H126 C149 0.930 . S
H127 C150 0.929 . S
O128 Tb84 2.465 . S
O128 C148 1.264 . S
O129 Tb84 2.387 . S
O129 C140 1.264 . S
O130 Tb95 2.349 . S
O130 C140 1.243 . S
O131 Tb84 2.428 . S
O131 C148 1.256 . S
O132 Tb84 2.308 . S
O132 C147 1.266 . S
O133 Tb95 2.393 . S
O133 C147 1.248 . S
O134 Tb95 2.465 . S
O134 C159 1.264 . S
O135 Tb95 2.387 . S
O135 C151 1.264 . S
O136 Tb84 2.349 . S
O136 C151 1.243 . S
O137 Tb95 2.428 . S
O137 C159 1.256 . S
O138 Tb95 2.308 . S
O138 C158 1.266 . S
O139 Tb84 2.393 . S
O139 C158 1.248 . S
C140 O129 1.264 . S
C140 O130 1.243 . S
C141 C144 1.399 . S
C141 C146 1.383 . S
C141 C148 1.496 . S
C142 C143 1.399 . S
C142 C146 1.389 . S
C143 C142 1.399 . S
C143 C145 1.380 . S
C143 H160 0.929 . S
C144 C141 1.399 . S
C144 C145 1.392 . S
C144 H161 0.929 . S
C145 C143 1.380 . S
C145 C144 1.392 . S
C145 H162 0.929 . S
C146 C141 1.383 . S
C146 C142 1.389 . S
C146 H163 0.931 . S
C147 O132 1.266 . S
C147 O133 1.248 . S
C148 Tb84 2.802 . S
C148 O128 1.264 . S
C148 O131 1.256 . S
C148 C141 1.496 . S
C149 C116 1.448 . S
C149 H126 0.930 . S
C149 C150 1.328 . S
C150 C121 1.427 . S
C150 H127 0.929 . S
C150 C149 1.328 . S
C151 O135 1.264 . S
C151 O136 1.243 . S
C152 C155 1.399 . S
C152 C156 1.383 . S
C152 C159 1.496 . S
C153 C154 1.399 . S
C153 C156 1.389 . S
C154 C153 1.399 . S
C154 C157 1.380 . S
C154 H164 0.929 . S
C155 C152 1.399 . S
C155 C157 1.392 . S
C155 H165 0.929 . S
C156 C152 1.383 . S
C156 C153 1.389 . S
C156 H166 0.931 . S
C157 C154 1.380 . S
C157 C155 1.392 . S
C157 H167 0.929 . S
C158 O138 1.266 . S
C158 O139 1.248 . S
C159 Tb95 2.802 . S
C159 O134 1.264 . S
C159 O137 1.256 . S
C159 C152 1.496 . S
H160 C143 0.929 . S
H161 C144 0.929 . S
H162 C145 0.929 . S
H163 C146 0.931 . S
H164 C154 0.929 . S
H165 C155 0.929 . S
H166 C156 0.931 . S
H167 C157 0.929 . S
Tb168 N197 2.617 . S
Tb168 N203 2.572 . S
Tb168 O212 2.465 . S
Tb168 O213 2.387 . S
Tb168 O215 2.428 . S
Tb168 O216 2.308 . S
Tb168 O220 2.349 . S
Tb168 O223 2.393 . S
Tb168 C232 2.802 . S
C169 N170 1.379 . S
C169 C172 1.416 . S
C169 C176 1.424 . S
N170 C169 1.379 . S
N170 C173 1.334 . S
N170 Tb179 2.617 . S
C171 C173 1.390 . S
C171 C174 1.339 . S
C171 H191 0.930 . S
C172 C169 1.416 . S
C172 C174 1.416 . S
C172 C178 1.448 . S
C173 N170 1.334 . S
C173 C171 1.390 . S
C173 H184 0.930 . S
C174 C171 1.339 . S
C174 C172 1.416 . S
C174 H195 0.930 . S
C175 C176 1.413 . S
C175 C177 1.427 . S
C175 C181 1.416 . S
C176 C169 1.424 . S
C176 C175 1.413 . S
C176 N180 1.361 . S
C177 C175 1.427 . S
C177 C178 1.328 . S
C177 H192 0.929 . S
C178 C172 1.448 . S
C178 C177 1.328 . S
C178 H193 0.930 . S
Tb179 N170 2.617 . S
Tb179 N180 2.572 . S
Tb179 O214 2.349 . S
Tb179 O217 2.393 . S
Tb179 O218 2.465 . S
Tb179 O219 2.387 . S
Tb179 O221 2.428 . S
Tb179 O222 2.308 . S
Tb179 C243 2.802 . S
N180 C176 1.361 . S
N180 Tb179 2.572 . S
N180 C182 1.340 . S
C181 C175 1.416 . S
C181 C183 1.332 . S
C181 H189 0.931 . S
C182 N180 1.340 . S
C182 C183 1.407 . S
C182 H188 0.930 . S
C183 C181 1.332 . S
C183 C182 1.407 . S
C183 H185 0.929 . S
H184 C173 0.930 . S
H185 C183 0.929 . S
H186 C201 0.930 . S
H187 C208 0.929 . S
H188 C182 0.930 . S
H189 C181 0.931 . S
H190 C204 0.930 . S
H191 C171 0.930 . S
H192 C177 0.929 . S
H193 C178 0.930 . S
H194 C199 0.930 . S
H195 C174 0.930 . S
H196 C207 0.931 . S
N197 Tb168 2.617 . S
N197 C198 1.379 . S
N197 C201 1.334 . S
C198 N197 1.379 . S
C198 C200 1.416 . S
C198 C206 1.424 . S
C199 H194 0.930 . S
C199 C201 1.390 . S
C199 C202 1.339 . S
C200 C198 1.416 . S
C200 C202 1.416 . S
C200 C233 1.448 . S
C201 H186 0.930 . S
C201 N197 1.334 . S
C201 C199 1.390 . S
C202 C199 1.339 . S
C202 C200 1.416 . S
C202 H209 0.930 . S
N203 Tb168 2.572 . S
N203 C204 1.340 . S
N203 C206 1.361 . S
C204 H190 0.930 . S
C204 N203 1.340 . S
C204 C208 1.407 . S
C205 C206 1.413 . S
C205 C207 1.416 . S
C205 C234 1.427 . S
C206 C198 1.424 . S
C206 N203 1.361 . S
C206 C205 1.413 . S
C207 H196 0.931 . S
C207 C205 1.416 . S
C207 C208 1.332 . S
C208 H187 0.929 . S
C208 C204 1.407 . S
C208 C207 1.332 . S
H209 C202 0.930 . S
H210 C233 0.930 . S
H211 C234 0.929 . S
O212 Tb168 2.465 . S
O212 C232 1.264 . S
O213 Tb168 2.387 . S
O213 C224 1.264 . S
O214 Tb179 2.349 . S
O214 C224 1.243 . S
O215 Tb168 2.428 . S
O215 C232 1.256 . S
O216 Tb168 2.308 . S
O216 C231 1.266 . S
O217 Tb179 2.393 . S
O217 C231 1.248 . S
O218 Tb179 2.465 . S
O218 C243 1.264 . S
O219 Tb179 2.387 . S
O219 C235 1.264 . S
O220 Tb168 2.349 . S
O220 C235 1.243 . S
O221 Tb179 2.428 . S
O221 C243 1.256 . S
O222 Tb179 2.308 . S
O222 C242 1.266 . S
O223 Tb168 2.393 . S
O223 C242 1.248 . S
C224 O213 1.264 . S
C224 O214 1.243 . S
C225 C228 1.399 . S
C225 C230 1.383 . S
C225 C232 1.496 . S
C226 C227 1.399 . S
C226 C230 1.389 . S
C227 C226 1.399 . S
C227 C229 1.380 . S
C227 H244 0.929 . S
C228 C225 1.399 . S
C228 C229 1.392 . S
C228 H245 0.929 . S
C229 C227 1.380 . S
C229 C228 1.392 . S
C229 H246 0.929 . S
C230 C225 1.383 . S
C230 C226 1.389 . S
C230 H247 0.931 . S
C231 O216 1.266 . S
C231 O217 1.248 . S
C232 Tb168 2.802 . S
C232 O212 1.264 . S
C232 O215 1.256 . S
C232 C225 1.496 . S
C233 C200 1.448 . S
C233 H210 0.930 . S
C233 C234 1.328 . S
C234 C205 1.427 . S
C234 H211 0.929 . S
C234 C233 1.328 . S
C235 O219 1.264 . S
C235 O220 1.243 . S
C236 C239 1.399 . S
C236 C240 1.383 . S
C236 C243 1.496 . S
C237 C238 1.399 . S
C237 C240 1.389 . S
C238 C237 1.399 . S
C238 C241 1.380 . S
C238 H248 0.929 . S
C239 C236 1.399 . S
C239 C241 1.392 . S
C239 H249 0.929 . S
C240 C236 1.383 . S
C240 C237 1.389 . S
C240 H250 0.931 . S
C241 C238 1.380 . S
C241 C239 1.392 . S
C241 H251 0.929 . S
C242 O222 1.266 . S
C242 O223 1.248 . S
C243 Tb179 2.802 . S
C243 O218 1.264 . S
C243 O221 1.256 . S
C243 C236 1.496 . S
H244 C227 0.929 . S
H245 C228 0.929 . S
H246 C229 0.929 . S
H247 C230 0.931 . S
H248 C238 0.929 . S
H249 C239 0.929 . S
H250 C240 0.931 . S
H251 C241 0.929 . S
Tb252 N281 2.617 . S
Tb252 N287 2.572 . S
Tb252 O296 2.465 . S
Tb252 O297 2.387 . S
Tb252 O299 2.428 . S
Tb252 O300 2.308 . S
Tb252 O304 2.349 . S
Tb252 O307 2.393 . S
Tb252 C316 2.802 . S
C253 N254 1.379 . S
C253 C256 1.416 . S
C253 C260 1.424 . S
N254 C253 1.379 . S
N254 C257 1.334 . S
N254 Tb263 2.617 . S
C255 C257 1.390 . S
C255 C258 1.339 . S
C255 H275 0.930 . S
C256 C253 1.416 . S
C256 C258 1.416 . S
C256 C262 1.448 . S
C257 N254 1.334 . S
C257 C255 1.390 . S
C257 H268 0.930 . S
C258 C255 1.339 . S
C258 C256 1.416 . S
C258 H279 0.930 . S
C259 C260 1.413 . S
C259 C261 1.427 . S
C259 C265 1.416 . S
C260 C253 1.424 . S
C260 C259 1.413 . S
C260 N264 1.361 . S
C261 C259 1.427 . S
C261 C262 1.328 . S
C261 H276 0.929 . S
C262 C256 1.448 . S
C262 C261 1.328 . S
C262 H277 0.930 . S
Tb263 N254 2.617 . S
Tb263 N264 2.572 . S
Tb263 O298 2.349 . S
Tb263 O301 2.393 . S
Tb263 O302 2.465 . S
Tb263 O303 2.387 . S
Tb263 O305 2.428 . S
Tb263 O306 2.308 . S
Tb263 C327 2.802 . S
N264 C260 1.361 . S
N264 Tb263 2.572 . S
N264 C266 1.340 . S
C265 C259 1.416 . S
C265 C267 1.332 . S
C265 H273 0.931 . S
C266 N264 1.340 . S
C266 C267 1.407 . S
C266 H272 0.930 . S
C267 C265 1.332 . S
C267 C266 1.407 . S
C267 H269 0.929 . S
H268 C257 0.930 . S
H269 C267 0.929 . S
H270 C285 0.930 . S
H271 C292 0.929 . S
H272 C266 0.930 . S
H273 C265 0.931 . S
H274 C288 0.930 . S
H275 C255 0.930 . S
H276 C261 0.929 . S
H277 C262 0.930 . S
H278 C283 0.930 . S
H279 C258 0.930 . S
H280 C291 0.931 . S
N281 Tb252 2.617 . S
N281 C282 1.379 . S
N281 C285 1.334 . S
C282 N281 1.379 . S
C282 C284 1.416 . S
C282 C290 1.424 . S
C283 H278 0.930 . S
C283 C285 1.390 . S
C283 C286 1.339 . S
C284 C282 1.416 . S
C284 C286 1.416 . S
C284 C317 1.448 . S
C285 H270 0.930 . S
C285 N281 1.334 . S
C285 C283 1.390 . S
C286 C283 1.339 . S
C286 C284 1.416 . S
C286 H293 0.930 . S
N287 Tb252 2.572 . S
N287 C288 1.340 . S
N287 C290 1.361 . S
C288 H274 0.930 . S
C288 N287 1.340 . S
C288 C292 1.407 . S
C289 C290 1.413 . S
C289 C291 1.416 . S
C289 C318 1.427 . S
C290 C282 1.424 . S
C290 N287 1.361 . S
C290 C289 1.413 . S
C291 H280 0.931 . S
C291 C289 1.416 . S
C291 C292 1.332 . S
C292 H271 0.929 . S
C292 C288 1.407 . S
C292 C291 1.332 . S
H293 C286 0.930 . S
H294 C317 0.930 . S
H295 C318 0.929 . S
O296 Tb252 2.465 . S
O296 C316 1.264 . S
O297 Tb252 2.387 . S
O297 C308 1.264 . S
O298 Tb263 2.349 . S
O298 C308 1.243 . S
O299 Tb252 2.428 . S
O299 C316 1.256 . S
O300 Tb252 2.308 . S
O300 C315 1.266 . S
O301 Tb263 2.393 . S
O301 C315 1.248 . S
O302 Tb263 2.465 . S
O302 C327 1.264 . S
O303 Tb263 2.387 . S
O303 C319 1.264 . S
O304 Tb252 2.349 . S
O304 C319 1.243 . S
O305 Tb263 2.428 . S
O305 C327 1.256 . S
O306 Tb263 2.308 . S
O306 C326 1.266 . S
O307 Tb252 2.393 . S
O307 C326 1.248 . S
C308 O297 1.264 . S
C308 O298 1.243 . S
C309 C312 1.399 . S
C309 C314 1.383 . S
C309 C316 1.496 . S
C310 C311 1.399 . S
C310 C314 1.389 . S
C311 C310 1.399 . S
C311 C313 1.380 . S
C311 H328 0.929 . S
C312 C309 1.399 . S
C312 C313 1.392 . S
C312 H329 0.929 . S
C313 C311 1.380 . S
C313 C312 1.392 . S
C313 H330 0.929 . S
C314 C309 1.383 . S
C314 C310 1.389 . S
C314 H331 0.931 . S
C315 O300 1.266 . S
C315 O301 1.248 . S
C316 Tb252 2.802 . S
C316 O296 1.264 . S
C316 O299 1.256 . S
C316 C309 1.496 . S
C317 C284 1.448 . S
C317 H294 0.930 . S
C317 C318 1.328 . S
C318 C289 1.427 . S
C318 H295 0.929 . S
C318 C317 1.328 . S
C319 O303 1.264 . S
C319 O304 1.243 . S
C320 C323 1.399 . S
C320 C324 1.383 . S
C320 C327 1.496 . S
C321 C322 1.399 . S
C321 C324 1.389 . S
C322 C321 1.399 . S
C322 C325 1.380 . S
C322 H332 0.929 . S
C323 C320 1.399 . S
C323 C325 1.392 . S
C323 H333 0.929 . S
C324 C320 1.383 . S
C324 C321 1.389 . S
C324 H334 0.931 . S
C325 C322 1.380 . S
C325 C323 1.392 . S
C325 H335 0.929 . S
C326 O306 1.266 . S
C326 O307 1.248 . S
C327 Tb263 2.802 . S
C327 O302 1.264 . S
C327 O305 1.256 . S
C327 C320 1.496 . S
H328 C311 0.929 . S
H329 C312 0.929 . S
H330 C313 0.929 . S
H331 C314 0.931 . S
H332 C322 0.929 . S
H333 C323 0.929 . S
H334 C324 0.931 . S
H335 C325 0.929 . S
Tb336 N365 2.617 . S
Tb336 N371 2.572 . S
Tb336 O380 2.465 . S
Tb336 O381 2.387 . S
Tb336 O383 2.428 . S
Tb336 O384 2.308 . S
Tb336 O388 2.349 . S
Tb336 O391 2.393 . S
Tb336 C400 2.802 . S
C337 N338 1.379 . S
C337 C340 1.416 . S
C337 C344 1.424 . S
N338 C337 1.379 . S
N338 C341 1.334 . S
N338 Tb347 2.617 . S
C339 C341 1.390 . S
C339 C342 1.339 . S
C339 H359 0.930 . S
C340 C337 1.416 . S
C340 C342 1.416 . S
C340 C346 1.448 . S
C341 N338 1.334 . S
C341 C339 1.390 . S
C341 H352 0.930 . S
C342 C339 1.339 . S
C342 C340 1.416 . S
C342 H363 0.930 . S
C343 C344 1.413 . S
C343 C345 1.427 . S
C343 C349 1.416 . S
C344 C337 1.424 . S
C344 C343 1.413 . S
C344 N348 1.361 . S
C345 C343 1.427 . S
C345 C346 1.328 . S
C345 H360 0.929 . S
C346 C340 1.448 . S
C346 C345 1.328 . S
C346 H361 0.930 . S
Tb347 N338 2.617 . S
Tb347 N348 2.572 . S
Tb347 O382 2.349 . S
Tb347 O385 2.393 . S
Tb347 O386 2.465 . S
Tb347 O387 2.387 . S
Tb347 O389 2.428 . S
Tb347 O390 2.308 . S
Tb347 C411 2.802 . S
N348 C344 1.361 . S
N348 Tb347 2.572 . S
N348 C350 1.340 . S
C349 C343 1.416 . S
C349 C351 1.332 . S
C349 H357 0.931 . S
C350 N348 1.340 . S
C350 C351 1.407 . S
C350 H356 0.930 . S
C351 C349 1.332 . S
C351 C350 1.407 . S
C351 H353 0.929 . S
H352 C341 0.930 . S
H353 C351 0.929 . S
H354 C369 0.930 . S
H355 C376 0.929 . S
H356 C350 0.930 . S
H357 C349 0.931 . S
H358 C372 0.930 . S
H359 C339 0.930 . S
H360 C345 0.929 . S
H361 C346 0.930 . S
H362 C367 0.930 . S
H363 C342 0.930 . S
H364 C375 0.931 . S
N365 Tb336 2.617 . S
N365 C366 1.379 . S
N365 C369 1.334 . S
C366 N365 1.379 . S
C366 C368 1.416 . S
C366 C374 1.424 . S
C367 H362 0.930 . S
C367 C369 1.390 . S
C367 C370 1.339 . S
C368 C366 1.416 . S
C368 C370 1.416 . S
C368 C401 1.448 . S
C369 H354 0.930 . S
C369 N365 1.334 . S
C369 C367 1.390 . S
C370 C367 1.339 . S
C370 C368 1.416 . S
C370 H377 0.930 . S
N371 Tb336 2.572 . S
N371 C372 1.340 . S
N371 C374 1.361 . S
C372 H358 0.930 . S
C372 N371 1.340 . S
C372 C376 1.407 . S
C373 C374 1.413 . S
C373 C375 1.416 . S
C373 C402 1.427 . S
C374 C366 1.424 . S
C374 N371 1.361 . S
C374 C373 1.413 . S
C375 H364 0.931 . S
C375 C373 1.416 . S
C375 C376 1.332 . S
C376 H355 0.929 . S
C376 C372 1.407 . S
C376 C375 1.332 . S
H377 C370 0.930 . S
H378 C401 0.930 . S
H379 C402 0.929 . S
O380 Tb336 2.465 . S
O380 C400 1.264 . S
O381 Tb336 2.387 . S
O381 C392 1.264 . S
O382 Tb347 2.349 . S
O382 C392 1.243 . S
O383 Tb336 2.428 . S
O383 C400 1.256 . S
O384 Tb336 2.308 . S
O384 C399 1.266 . S
O385 Tb347 2.393 . S
O385 C399 1.248 . S
O386 Tb347 2.465 . S
O386 C411 1.264 . S
O387 Tb347 2.387 . S
O387 C403 1.264 . S
O388 Tb336 2.349 . S
O388 C403 1.243 . S
O389 Tb347 2.428 . S
O389 C411 1.256 . S
O390 Tb347 2.308 . S
O390 C410 1.266 . S
O391 Tb336 2.393 . S
O391 C410 1.248 . S
C392 O381 1.264 . S
C392 O382 1.243 . S
C393 C396 1.399 . S
C393 C398 1.383 . S
C393 C400 1.496 . S
C394 C395 1.399 . S
C394 C398 1.389 . S
C395 C394 1.399 . S
C395 C397 1.380 . S
C395 H412 0.929 . S
C396 C393 1.399 . S
C396 C397 1.392 . S
C396 H413 0.929 . S
C397 C395 1.380 . S
C397 C396 1.392 . S
C397 H414 0.929 . S
C398 C393 1.383 . S
C398 C394 1.389 . S
C398 H415 0.931 . S
C399 O384 1.266 . S
C399 O385 1.248 . S
C400 Tb336 2.802 . S
C400 O380 1.264 . S
C400 O383 1.256 . S
C400 C393 1.496 . S
C401 C368 1.448 . S
C401 H378 0.930 . S
C401 C402 1.328 . S
C402 C373 1.427 . S
C402 H379 0.929 . S
C402 C401 1.328 . S
C403 O387 1.264 . S
C403 O388 1.243 . S
C404 C407 1.399 . S
C404 C408 1.383 . S
C404 C411 1.496 . S
C405 C406 1.399 . S
C405 C408 1.389 . S
C406 C405 1.399 . S
C406 C409 1.380 . S
C406 H416 0.929 . S
C407 C404 1.399 . S
C407 C409 1.392 . S
C407 H417 0.929 . S
C408 C404 1.383 . S
C408 C405 1.389 . S
C408 H418 0.931 . S
C409 C406 1.380 . S
C409 C407 1.392 . S
C409 H419 0.929 . S
C410 O390 1.266 . S
C410 O391 1.248 . S
C411 Tb347 2.802 . S
C411 O386 1.264 . S
C411 O389 1.256 . S
C411 C404 1.496 . S
H412 C395 0.929 . S
H413 C396 0.929 . S
H414 C397 0.929 . S
H415 C398 0.931 . S
H416 C406 0.929 . S
H417 C407 0.929 . S
H418 C408 0.931 . S
H419 C409 0.929 . S
Tb420 N449 2.617 . S
Tb420 N455 2.572 . S
Tb420 O464 2.465 . S
Tb420 O465 2.387 . S
Tb420 O467 2.428 . S
Tb420 O468 2.308 . S
Tb420 O472 2.349 . S
Tb420 O475 2.393 . S
Tb420 C484 2.802 . S
C421 N422 1.379 . S
C421 C424 1.416 . S
C421 C428 1.424 . S
N422 C421 1.379 . S
N422 C425 1.334 . S
N422 Tb431 2.617 . S
C423 C425 1.390 . S
C423 C426 1.339 . S
C423 H443 0.930 . S
C424 C421 1.416 . S
C424 C426 1.416 . S
C424 C430 1.448 . S
C425 N422 1.334 . S
C425 C423 1.390 . S
C425 H436 0.930 . S
C426 C423 1.339 . S
C426 C424 1.416 . S
C426 H447 0.930 . S
C427 C428 1.413 . S
C427 C429 1.427 . S
C427 C433 1.416 . S
C428 C421 1.424 . S
C428 C427 1.413 . S
C428 N432 1.361 . S
C429 C427 1.427 . S
C429 C430 1.328 . S
C429 H444 0.929 . S
C430 C424 1.448 . S
C430 C429 1.328 . S
C430 H445 0.930 . S
Tb431 N422 2.617 . S
Tb431 N432 2.572 . S
Tb431 O466 2.349 . S
Tb431 O469 2.393 . S
Tb431 O470 2.465 . S
Tb431 O471 2.387 . S
Tb431 O473 2.428 . S
Tb431 O474 2.308 . S
Tb431 C495 2.802 . S
N432 C428 1.361 . S
N432 Tb431 2.572 . S
N432 C434 1.340 . S
C433 C427 1.416 . S
C433 C435 1.332 . S
C433 H441 0.931 . S
C434 N432 1.340 . S
C434 C435 1.407 . S
C434 H440 0.930 . S
C435 C433 1.332 . S
C435 C434 1.407 . S
C435 H437 0.929 . S
H436 C425 0.930 . S
H437 C435 0.929 . S
H438 C453 0.930 . S
H439 C460 0.929 . S
H440 C434 0.930 . S
H441 C433 0.931 . S
H442 C456 0.930 . S
H443 C423 0.930 . S
H444 C429 0.929 . S
H445 C430 0.930 . S
H446 C451 0.930 . S
H447 C426 0.930 . S
H448 C459 0.931 . S
N449 Tb420 2.617 . S
N449 C450 1.379 . S
N449 C453 1.334 . S
C450 N449 1.379 . S
C450 C452 1.416 . S
C450 C458 1.424 . S
C451 H446 0.930 . S
C451 C453 1.390 . S
C451 C454 1.339 . S
C452 C450 1.416 . S
C452 C454 1.416 . S
C452 C485 1.448 . S
C453 H438 0.930 . S
C453 N449 1.334 . S
C453 C451 1.390 . S
C454 C451 1.339 . S
C454 C452 1.416 . S
C454 H461 0.930 . S
N455 Tb420 2.572 . S
N455 C456 1.340 . S
N455 C458 1.361 . S
C456 H442 0.930 . S
C456 N455 1.340 . S
C456 C460 1.407 . S
C457 C458 1.413 . S
C457 C459 1.416 . S
C457 C486 1.427 . S
C458 C450 1.424 . S
C458 N455 1.361 . S
C458 C457 1.413 . S
C459 H448 0.931 . S
C459 C457 1.416 . S
C459 C460 1.332 . S
C460 H439 0.929 . S
C460 C456 1.407 . S
C460 C459 1.332 . S
H461 C454 0.930 . S
H462 C485 0.930 . S
H463 C486 0.929 . S
O464 Tb420 2.465 . S
O464 C484 1.264 . S
O465 Tb420 2.387 . S
O465 C476 1.264 . S
O466 Tb431 2.349 . S
O466 C476 1.243 . S
O467 Tb420 2.428 . S
O467 C484 1.256 . S
O468 Tb420 2.308 . S
O468 C483 1.266 . S
O469 Tb431 2.393 . S
O469 C483 1.248 . S
O470 Tb431 2.465 . S
O470 C495 1.264 . S
O471 Tb431 2.387 . S
O471 C487 1.264 . S
O472 Tb420 2.349 . S
O472 C487 1.243 . S
O473 Tb431 2.428 . S
O473 C495 1.256 . S
O474 Tb431 2.308 . S
O474 C494 1.266 . S
O475 Tb420 2.393 . S
O475 C494 1.248 . S
C476 O465 1.264 . S
C476 O466 1.243 . S
C477 C480 1.399 . S
C477 C482 1.383 . S
C477 C484 1.496 . S
C478 C479 1.399 . S
C478 C482 1.389 . S
C479 C478 1.399 . S
C479 C481 1.380 . S
C479 H496 0.929 . S
C480 C477 1.399 . S
C480 C481 1.392 . S
C480 H497 0.929 . S
C481 C479 1.380 . S
C481 C480 1.392 . S
C481 H498 0.929 . S
C482 C477 1.383 . S
C482 C478 1.389 . S
C482 H499 0.931 . S
C483 O468 1.266 . S
C483 O469 1.248 . S
C484 Tb420 2.802 . S
C484 O464 1.264 . S
C484 O467 1.256 . S
C484 C477 1.496 . S
C485 C452 1.448 . S
C485 H462 0.930 . S
C485 C486 1.328 . S
C486 C457 1.427 . S
C486 H463 0.929 . S
C486 C485 1.328 . S
C487 O471 1.264 . S
C487 O472 1.243 . S
C488 C491 1.399 . S
C488 C492 1.383 . S
C488 C495 1.496 . S
C489 C490 1.399 . S
C489 C492 1.389 . S
C490 C489 1.399 . S
C490 C493 1.380 . S
C490 H500 0.929 . S
C491 C488 1.399 . S
C491 C493 1.392 . S
C491 H501 0.929 . S
C492 C488 1.383 . S
C492 C489 1.389 . S
C492 H502 0.931 . S
C493 C490 1.380 . S
C493 C491 1.392 . S
C493 H503 0.929 . S
C494 O474 1.266 . S
C494 O475 1.248 . S
C495 Tb431 2.802 . S
C495 O470 1.264 . S
C495 O473 1.256 . S
C495 C488 1.496 . S
H496 C479 0.929 . S
H497 C480 0.929 . S
H498 C481 0.929 . S
H499 C482 0.931 . S
H500 C490 0.929 . S
H501 C491 0.929 . S
H502 C492 0.931 . S
H503 C493 0.929 . S
Tb504 N533 2.617 . S
Tb504 N539 2.572 . S
Tb504 O548 2.465 . S
Tb504 O549 2.387 . S
Tb504 O551 2.428 . S
Tb504 O552 2.308 . S
Tb504 O556 2.349 . S
Tb504 O559 2.393 . S
Tb504 C568 2.802 . S
C505 N506 1.379 . S
C505 C508 1.416 . S
C505 C512 1.424 . S
N506 C505 1.379 . S
N506 C509 1.334 . S
N506 Tb515 2.617 . S
C507 C509 1.390 . S
C507 C510 1.339 . S
C507 H527 0.930 . S
C508 C505 1.416 . S
C508 C510 1.416 . S
C508 C514 1.448 . S
C509 N506 1.334 . S
C509 C507 1.390 . S
C509 H520 0.930 . S
C510 C507 1.339 . S
C510 C508 1.416 . S
C510 H531 0.930 . S
C511 C512 1.413 . S
C511 C513 1.427 . S
C511 C517 1.416 . S
C512 C505 1.424 . S
C512 C511 1.413 . S
C512 N516 1.361 . S
C513 C511 1.427 . S
C513 C514 1.328 . S
C513 H528 0.929 . S
C514 C508 1.448 . S
C514 C513 1.328 . S
C514 H529 0.930 . S
Tb515 N506 2.617 . S
Tb515 N516 2.572 . S
Tb515 O550 2.349 . S
Tb515 O553 2.393 . S
Tb515 O554 2.465 . S
Tb515 O555 2.387 . S
Tb515 O557 2.428 . S
Tb515 O558 2.308 . S
Tb515 C579 2.802 . S
N516 C512 1.361 . S
N516 Tb515 2.572 . S
N516 C518 1.340 . S
C517 C511 1.416 . S
C517 C519 1.332 . S
C517 H525 0.931 . S
C518 N516 1.340 . S
C518 C519 1.407 . S
C518 H524 0.930 . S
C519 C517 1.332 . S
C519 C518 1.407 . S
C519 H521 0.929 . S
H520 C509 0.930 . S
H521 C519 0.929 . S
H522 C537 0.930 . S
H523 C544 0.929 . S
H524 C518 0.930 . S
H525 C517 0.931 . S
H526 C540 0.930 . S
H527 C507 0.930 . S
H528 C513 0.929 . S
H529 C514 0.930 . S
H530 C535 0.930 . S
H531 C510 0.930 . S
H532 C543 0.931 . S
N533 Tb504 2.617 . S
N533 C534 1.379 . S
N533 C537 1.334 . S
C534 N533 1.379 . S
C534 C536 1.416 . S
C534 C542 1.424 . S
C535 H530 0.930 . S
C535 C537 1.390 . S
C535 C538 1.339 . S
C536 C534 1.416 . S
C536 C538 1.416 . S
C536 C569 1.448 . S
C537 H522 0.930 . S
C537 N533 1.334 . S
C537 C535 1.390 . S
C538 C535 1.339 . S
C538 C536 1.416 . S
C538 H545 0.930 . S
N539 Tb504 2.572 . S
N539 C540 1.340 . S
N539 C542 1.361 . S
C540 H526 0.930 . S
C540 N539 1.340 . S
C540 C544 1.407 . S
C541 C542 1.413 . S
C541 C543 1.416 . S
C541 C570 1.427 . S
C542 C534 1.424 . S
C542 N539 1.361 . S
C542 C541 1.413 . S
C543 H532 0.931 . S
C543 C541 1.416 . S
C543 C544 1.332 . S
C544 H523 0.929 . S
C544 C540 1.407 . S
C544 C543 1.332 . S
H545 C538 0.930 . S
H546 C569 0.930 . S
H547 C570 0.929 . S
O548 Tb504 2.465 . S
O548 C568 1.264 . S
O549 Tb504 2.387 . S
O549 C560 1.264 . S
O550 Tb515 2.349 . S
O550 C560 1.243 . S
O551 Tb504 2.428 . S
O551 C568 1.256 . S
O552 Tb504 2.308 . S
O552 C567 1.266 . S
O553 Tb515 2.393 . S
O553 C567 1.248 . S
O554 Tb515 2.465 . S
O554 C579 1.264 . S
O555 Tb515 2.387 . S
O555 C571 1.264 . S
O556 Tb504 2.349 . S
O556 C571 1.243 . S
O557 Tb515 2.428 . S
O557 C579 1.256 . S
O558 Tb515 2.308 . S
O558 C578 1.266 . S
O559 Tb504 2.393 . S
O559 C578 1.248 . S
C560 O549 1.264 . S
C560 O550 1.243 . S
C561 C564 1.399 . S
C561 C566 1.383 . S
C561 C568 1.496 . S
C562 C563 1.399 . S
C562 C566 1.389 . S
C563 C562 1.399 . S
C563 C565 1.380 . S
C563 H580 0.929 . S
C564 C561 1.399 . S
C564 C565 1.392 . S
C564 H581 0.929 . S
C565 C563 1.380 . S
C565 C564 1.392 . S
C565 H582 0.929 . S
C566 C561 1.383 . S
C566 C562 1.389 . S
C566 H583 0.931 . S
C567 O552 1.266 . S
C567 O553 1.248 . S
C568 Tb504 2.802 . S
C568 O548 1.264 . S
C568 O551 1.256 . S
C568 C561 1.496 . S
C569 C536 1.448 . S
C569 H546 0.930 . S
C569 C570 1.328 . S
C570 C541 1.427 . S
C570 H547 0.929 . S
C570 C569 1.328 . S
C571 O555 1.264 . S
C571 O556 1.243 . S
C572 C575 1.399 . S
C572 C576 1.383 . S
C572 C579 1.496 . S
C573 C574 1.399 . S
C573 C576 1.389 . S
C574 C573 1.399 . S
C574 C577 1.380 . S
C574 H584 0.929 . S
C575 C572 1.399 . S
C575 C577 1.392 . S
C575 H585 0.929 . S
C576 C572 1.383 . S
C576 C573 1.389 . S
C576 H586 0.931 . S
C577 C574 1.380 . S
C577 C575 1.392 . S
C577 H587 0.929 . S
C578 O558 1.266 . S
C578 O559 1.248 . S
C579 Tb515 2.802 . S
C579 O554 1.264 . S
C579 O557 1.256 . S
C579 C572 1.496 . S
H580 C563 0.929 . S
H581 C564 0.929 . S
H582 C565 0.929 . S
H583 C566 0.931 . S
H584 C574 0.929 . S
H585 C575 0.929 . S
H586 C576 0.931 . S
H587 C577 0.929 . S
Tb588 N617 2.617 . S
Tb588 N623 2.572 . S
Tb588 O632 2.465 . S
Tb588 O633 2.387 . S
Tb588 O635 2.428 . S
Tb588 O636 2.308 . S
Tb588 O640 2.349 . S
Tb588 O643 2.393 . S
Tb588 C652 2.802 . S
C589 N590 1.379 . S
C589 C592 1.416 . S
C589 C596 1.424 . S
N590 C589 1.379 . S
N590 C593 1.334 . S
N590 Tb599 2.617 . S
C591 C593 1.390 . S
C591 C594 1.339 . S
C591 H611 0.930 . S
C592 C589 1.416 . S
C592 C594 1.416 . S
C592 C598 1.448 . S
C593 N590 1.334 . S
C593 C591 1.390 . S
C593 H604 0.930 . S
C594 C591 1.339 . S
C594 C592 1.416 . S
C594 H615 0.930 . S
C595 C596 1.413 . S
C595 C597 1.427 . S
C595 C601 1.416 . S
C596 C589 1.424 . S
C596 C595 1.413 . S
C596 N600 1.361 . S
C597 C595 1.427 . S
C597 C598 1.328 . S
C597 H612 0.929 . S
C598 C592 1.448 . S
C598 C597 1.328 . S
C598 H613 0.930 . S
Tb599 N590 2.617 . S
Tb599 N600 2.572 . S
Tb599 O634 2.349 . S
Tb599 O637 2.393 . S
Tb599 O638 2.465 . S
Tb599 O639 2.387 . S
Tb599 O641 2.428 . S
Tb599 O642 2.308 . S
Tb599 C663 2.802 . S
N600 C596 1.361 . S
N600 Tb599 2.572 . S
N600 C602 1.340 . S
C601 C595 1.416 . S
C601 C603 1.332 . S
C601 H609 0.931 . S
C602 N600 1.340 . S
C602 C603 1.407 . S
C602 H608 0.930 . S
C603 C601 1.332 . S
C603 C602 1.407 . S
C603 H605 0.929 . S
H604 C593 0.930 . S
H605 C603 0.929 . S
H606 C621 0.930 . S
H607 C628 0.929 . S
H608 C602 0.930 . S
H609 C601 0.931 . S
H610 C624 0.930 . S
H611 C591 0.930 . S
H612 C597 0.929 . S
H613 C598 0.930 . S
H614 C619 0.930 . S
H615 C594 0.930 . S
H616 C627 0.931 . S
N617 Tb588 2.617 . S
N617 C618 1.379 . S
N617 C621 1.334 . S
C618 N617 1.379 . S
C618 C620 1.416 . S
C618 C626 1.424 . S
C619 H614 0.930 . S
C619 C621 1.390 . S
C619 C622 1.339 . S
C620 C618 1.416 . S
C620 C622 1.416 . S
C620 C653 1.448 . S
C621 H606 0.930 . S
C621 N617 1.334 . S
C621 C619 1.390 . S
C622 C619 1.339 . S
C622 C620 1.416 . S
C622 H629 0.930 . S
N623 Tb588 2.572 . S
N623 C624 1.340 . S
N623 C626 1.361 . S
C624 H610 0.930 . S
C624 N623 1.340 . S
C624 C628 1.407 . S
C625 C626 1.413 . S
C625 C627 1.416 . S
C625 C654 1.427 . S
C626 C618 1.424 . S
C626 N623 1.361 . S
C626 C625 1.413 . S
C627 H616 0.931 . S
C627 C625 1.416 . S
C627 C628 1.332 . S
C628 H607 0.929 . S
C628 C624 1.407 . S
C628 C627 1.332 . S
H629 C622 0.930 . S
H630 C653 0.930 . S
H631 C654 0.929 . S
O632 Tb588 2.465 . S
O632 C652 1.264 . S
O633 Tb588 2.387 . S
O633 C644 1.264 . S
O634 Tb599 2.349 . S
O634 C644 1.243 . S
O635 Tb588 2.428 . S
O635 C652 1.256 . S
O636 Tb588 2.308 . S
O636 C651 1.266 . S
O637 Tb599 2.393 . S
O637 C651 1.248 . S
O638 Tb599 2.465 . S
O638 C663 1.264 . S
O639 Tb599 2.387 . S
O639 C655 1.264 . S
O640 Tb588 2.349 . S
O640 C655 1.243 . S
O641 Tb599 2.428 . S
O641 C663 1.256 . S
O642 Tb599 2.308 . S
O642 C662 1.266 . S
O643 Tb588 2.393 . S
O643 C662 1.248 . S
C644 O633 1.264 . S
C644 O634 1.243 . S
C645 C648 1.399 . S
C645 C650 1.383 . S
C645 C652 1.496 . S
C646 C647 1.399 . S
C646 C650 1.389 . S
C647 C646 1.399 . S
C647 C649 1.380 . S
C647 H664 0.929 . S
C648 C645 1.399 . S
C648 C649 1.392 . S
C648 H665 0.929 . S
C649 C647 1.380 . S
C649 C648 1.392 . S
C649 H666 0.929 . S
C650 C645 1.383 . S
C650 C646 1.389 . S
C650 H667 0.931 . S
C651 O636 1.266 . S
C651 O637 1.248 . S
C652 Tb588 2.802 . S
C652 O632 1.264 . S
C652 O635 1.256 . S
C652 C645 1.496 . S
C653 C620 1.448 . S
C653 H630 0.930 . S
C653 C654 1.328 . S
C654 C625 1.427 . S
C654 H631 0.929 . S
C654 C653 1.328 . S
C655 O639 1.264 . S
C655 O640 1.243 . S
C656 C659 1.399 . S
C656 C660 1.383 . S
C656 C663 1.496 . S
C657 C658 1.399 . S
C657 C660 1.389 . S
C658 C657 1.399 . S
C658 C661 1.380 . S
C658 H668 0.929 . S
C659 C656 1.399 . S
C659 C661 1.392 . S
C659 H669 0.929 . S
C660 C656 1.383 . S
C660 C657 1.389 . S
C660 H670 0.931 . S
C661 C658 1.380 . S
C661 C659 1.392 . S
C661 H671 0.929 . S
C662 O642 1.266 . S
C662 O643 1.248 . S
C663 Tb599 2.802 . S
C663 O638 1.264 . S
C663 O641 1.256 . S
C663 C656 1.496 . S
H664 C647 0.929 . S
H665 C648 0.929 . S
H666 C649 0.929 . S
H667 C650 0.931 . S
H668 C658 0.929 . S
H669 C659 0.929 . S
H670 C660 0.931 . S
H671 C661 0.929 . S
Fe672 O673 1.886 1_455 S
Fe672 O676 1.715 . S
Fe672 O681 2.077 1_455 S
Fe672 O686 1.935 . S
Fe672 O692 2.077 1_455 S
Fe672 O701 1.935 . S
O673 Fe672 1.886 1_655 S
O673 Fe675 1.715 1_545 S
Fe674 O676 1.886 . S
Fe674 O677 1.715 1_545 S
Fe674 O684 1.935 1_545 S
Fe674 O685 2.077 . S
Fe674 O691 1.935 1_545 S
Fe674 O700 2.077 . S
Fe675 O673 1.715 1_565 S
Fe675 O678 1.886 . S
Fe675 O682 1.935 1_565 S
Fe675 O687 2.077 . S
Fe675 O693 1.935 1_565 S
Fe675 O697 2.077 . S
O676 Fe672 1.715 . S
O676 Fe674 1.886 . S
O677 Fe674 1.715 1_565 S
O677 Fe679 1.886 1_455 S
O678 Fe675 1.886 . S
O678 Fe679 1.715 . S
Fe679 O677 1.886 1_655 S
Fe679 O678 1.715 . S
Fe679 O683 2.077 1_655 S
Fe679 O688 1.935 . S
Fe679 O690 2.077 1_655 S
Fe679 O698 1.935 . S
C680 O692 1.381 . S
C680 O693 1.421 . S
O681 Fe672 2.077 1_655 S
O681 C694 1.381 . S
O682 Fe675 1.935 1_545 S
O682 C694 1.421 . S
O683 Fe679 2.077 1_455 S
O683 C699 1.381 . S
O684 Fe674 1.935 1_565 S
O684 C699 1.421 . S
O685 Fe674 2.077 . S
O685 C689 1.381 . S
O686 Fe672 1.935 . S
O686 C689 1.421 . S
O687 Fe675 2.077 . S
O687 C695 1.381 . S
O688 Fe679 1.935 . S
O688 C695 1.421 . S
C689 O685 1.381 . S
C689 O686 1.421 . S
O690 Fe679 2.077 1_455 S
O690 C702 1.381 . S
O691 Fe674 1.935 1_565 S
O691 C702 1.421 . S
O692 Fe672 2.077 1_655 S
O692 C680 1.381 . S
O693 Fe675 1.935 1_545 S
O693 C680 1.421 . S
C694 O681 1.381 . S
C694 O682 1.421 . S
C695 O687 1.381 . S
C695 O688 1.421 . S
C696 O697 1.381 . S
C696 O698 1.421 . S
O697 Fe675 2.077 . S
O697 C696 1.381 . S
O698 Fe679 1.935 . S
O698 C696 1.421 . S
C699 O683 1.381 . S
C699 O684 1.421 . S
O700 Fe674 2.077 . S
O700 C703 1.381 . S
O701 Fe672 1.935 . S
O701 C703 1.421 . S
C702 O690 1.381 . S
C702 O691 1.421 . S
C703 O700 1.381 . S
C703 O701 1.421 . S
Fe704 O705 1.886 . S
Fe704 O708 1.715 . S
Fe704 O713 2.077 . S
Fe704 O718 1.935 . S
Fe704 O724 2.077 1_556 S
Fe704 O733 1.935 1_556 S
O705 Fe704 1.886 . S
O705 Fe707 1.715 1_565 S
Fe706 O708 1.886 1_554 S
Fe706 O709 1.715 1_565 S
Fe706 O716 1.935 1_564 S
Fe706 O717 2.077 1_554 S
Fe706 O723 1.935 1_565 S
Fe706 O732 2.077 . S
Fe707 O705 1.715 1_545 S
Fe707 O710 1.887 1_556 S
Fe707 O714 1.935 1_545 S
Fe707 O719 2.077 . S
Fe707 O725 1.935 1_546 S
Fe707 O729 2.077 1_556 S
O708 Fe704 1.715 . S
O708 Fe706 1.886 1_556 S
O709 Fe706 1.715 1_545 S
O709 Fe711 1.886 . S
O710 Fe707 1.887 1_554 S
O710 Fe711 1.714 . S
Fe711 O709 1.886 . S
Fe711 O710 1.714 . S
Fe711 O715 2.077 1_554 S
Fe711 O720 1.935 1_554 S
Fe711 O722 2.077 . S
Fe711 O730 1.935 . S
C712 O724 1.381 . S
C712 O725 1.421 . S
O713 Fe704 2.077 . S
O713 C726 1.381 . S
O714 Fe707 1.935 1_565 S
O714 C726 1.421 . S
O715 Fe711 2.077 1_556 S
O715 C731 1.381 . S
O716 Fe706 1.935 1_546 S
O716 C731 1.421 . S
O717 Fe706 2.077 1_556 S
O717 C721 1.381 . S
O718 Fe704 1.935 . S
O718 C721 1.421 . S
O719 Fe707 2.077 . S
O719 C727 1.381 . S
O720 Fe711 1.935 1_556 S
O720 C727 1.421 . S
C721 O717 1.381 . S
C721 O718 1.421 . S
O722 Fe711 2.077 . S
O722 C734 1.381 . S
O723 Fe706 1.935 1_545 S
O723 C734 1.421 . S
O724 Fe704 2.077 1_554 S
O724 C712 1.381 . S
O725 Fe707 1.935 1_564 S
O725 C712 1.421 . S
C726 O713 1.381 . S
C726 O714 1.421 . S
C727 O719 1.381 . S
C727 O720 1.421 . S
C728 O729 1.381 . S
C728 O730 1.421 . S
O729 Fe707 2.077 1_554 S
O729 C728 1.381 . S
O730 Fe711 1.935 . S
O730 C728 1.421 . S
C731 O715 1.381 . S
C731 O716 1.421 . S
O732 Fe706 2.077 . S
O732 C735 1.381 . S
O733 Fe704 1.935 1_554 S
O733 C735 1.421 . S
C734 O722 1.381 . S
C734 O723 1.421 . S
C735 O732 1.381 . S
C735 O733 1.421 . S
Fe736 O737 1.886 1_455 S
Fe736 O740 1.714 . S
Fe736 O745 2.077 1_454 S
Fe736 O750 1.935 1_554 S
Fe736 O756 2.077 1_455 S
Fe736 O765 1.935 . S
O737 Fe736 1.886 1_655 S
O737 Fe739 1.715 . S
Fe738 O740 1.887 1_556 S
Fe738 O741 1.715 . S
Fe738 O748 1.935 . S
Fe738 O749 2.077 . S
Fe738 O755 1.935 1_556 S
Fe738 O764 2.077 1_556 S
Fe739 O737 1.715 . S
Fe739 O742 1.886 1_554 S
Fe739 O746 1.935 1_554 S
Fe739 O751 2.077 1_554 S
Fe739 O757 1.935 . S
Fe739 O761 2.077 . S
O740 Fe736 1.714 . S
O740 Fe738 1.887 1_554 S
O741 Fe738 1.715 . S
O741 Fe743 1.886 1_455 S
O742 Fe739 1.886 1_556 S
O742 Fe743 1.715 . S
Fe743 O741 1.886 1_655 S
Fe743 O742 1.715 . S
Fe743 O747 2.077 1_655 S
Fe743 O752 1.935 . S
Fe743 O754 2.077 1_656 S
Fe743 O762 1.935 1_556 S
C744 O756 1.381 . S
C744 O757 1.421 . S
O745 Fe736 2.077 1_656 S
O745 C758 1.381 . S
O746 Fe739 1.935 1_556 S
O746 C758 1.421 . S
O747 Fe743 2.077 1_455 S
O747 C763 1.381 . S
O748 Fe738 1.935 . S
O748 C763 1.421 . S
O749 Fe738 2.077 . S
O749 C753 1.381 . S
O750 Fe736 1.935 1_556 S
O750 C753 1.421 . S
O751 Fe739 2.077 1_556 S
O751 C759 1.381 . S
O752 Fe743 1.935 . S
O752 C759 1.421 . S
C753 O749 1.381 . S
C753 O750 1.421 . S
O754 Fe743 2.077 1_454 S
O754 C766 1.381 . S
O755 Fe738 1.935 1_554 S
O755 C766 1.421 . S
O756 Fe736 2.077 1_655 S
O756 C744 1.381 . S
O757 Fe739 1.935 . S
O757 C744 1.421 . S
C758 O745 1.381 . S
C758 O746 1.421 . S
C759 O751 1.381 . S
C759 O752 1.421 . S
C760 O761 1.381 . S
C760 O762 1.421 . S
O761 Fe739 2.077 . S
O761 C760 1.381 . S
O762 Fe743 1.935 1_554 S
O762 C760 1.421 . S
C763 O747 1.381 . S
C763 O748 1.421 . S
O764 Fe738 2.077 1_554 S
O764 C767 1.381 . S
O765 Fe736 1.935 . S
O765 C767 1.421 . S
C766 O754 1.381 . S
C766 O755 1.421 . S
C767 O764 1.381 . S
C767 O765 1.421 . S
Fe768 O769 1.886 . S
Fe768 O772 1.715 . S
Fe768 O777 2.077 . S
Fe768 O782 1.935 . S
Fe768 O788 2.077 . S
Fe768 O797 1.935 . S
O769 Fe768 1.886 . S
O769 Fe771 1.715 . S
Fe770 O772 1.886 1_554 S
Fe770 O773 1.715 . S
Fe770 O780 1.935 . S
Fe770 O781 2.077 1_554 S
Fe770 O787 1.935 . S
Fe770 O796 2.077 1_554 S
Fe771 O769 1.715 . S
Fe771 O774 1.886 1_556 S
Fe771 O778 1.935 . S
Fe771 O783 2.077 1_556 S
Fe771 O789 1.935 . S
Fe771 O793 2.077 1_556 S
O772 Fe768 1.715 . S
O772 Fe770 1.886 1_556 S
O773 Fe770 1.715 . S
O773 Fe775 1.886 . S
O774 Fe771 1.886 1_554 S
O774 Fe775 1.715 . S
Fe775 O773 1.886 . S
Fe775 O774 1.715 . S
Fe775 O779 2.077 . S
Fe775 O784 1.935 . S
Fe775 O786 2.077 . S
Fe775 O794 1.935 . S
C776 O788 1.381 . S
C776 O789 1.421 . S
O777 Fe768 2.077 . S
O777 C790 1.381 . S
O778 Fe771 1.935 . S
O778 C790 1.421 . S
O779 Fe775 2.077 . S
O779 C795 1.381 . S
O780 Fe770 1.935 . S
O780 C795 1.421 . S
O781 Fe770 2.077 1_556 S
O781 C785 1.381 . S
O782 Fe768 1.935 . S
O782 C785 1.421 . S
O783 Fe771 2.077 1_554 S
O783 C791 1.381 . S
O784 Fe775 1.935 . S
O784 C791 1.421 . S
C785 O781 1.381 . S
C785 O782 1.421 . S
O786 Fe775 2.077 . S
O786 C798 1.381 . S
O787 Fe770 1.935 . S
O787 C798 1.421 . S
O788 Fe768 2.077 . S
O788 C776 1.381 . S
O789 Fe771 1.935 . S
O789 C776 1.421 . S
C790 O777 1.381 . S
C790 O778 1.421 . S
C791 O783 1.381 . S
C791 O784 1.421 . S
C792 O793 1.381 . S
C792 O794 1.421 . S
O793 Fe771 2.077 1_554 S
O793 C792 1.381 . S
O794 Fe775 1.935 . S
O794 C792 1.421 . S
C795 O779 1.381 . S
C795 O780 1.421 . S
O796 Fe770 2.077 1_556 S
O796 C799 1.381 . S
O797 Fe768 1.935 . S
O797 C799 1.421 . S
C798 O786 1.381 . S
C798 O787 1.421 . S
C799 O796 1.381 . S
C799 O797 1.421 . S
Fe800 O801 1.886 . S
Fe800 O804 1.715 . S
Fe800 O809 2.077 1_655 S
Fe800 O814 1.935 1_655 S
Fe800 O820 2.077 . S
Fe800 O829 1.935 . S
O801 Fe800 1.886 . S
O801 Fe803 1.715 . S
Fe802 O804 1.886 1_455 S
Fe802 O805 1.715 . S
Fe802 O812 1.935 . S
Fe802 O813 2.077 . S
Fe802 O819 1.935 1_455 S
Fe802 O828 2.077 1_455 S
Fe803 O801 1.715 . S
Fe803 O806 1.886 1_655 S
Fe803 O810 1.935 1_655 S
Fe803 O815 2.077 1_655 S
Fe803 O821 1.935 . S
Fe803 O825 2.077 . S
O804 Fe800 1.715 . S
O804 Fe802 1.886 1_655 S
O805 Fe802 1.715 . S
O805 Fe807 1.886 . S
O806 Fe803 1.886 1_455 S
O806 Fe807 1.715 . S
Fe807 O805 1.886 . S
Fe807 O806 1.715 . S
Fe807 O811 2.077 . S
Fe807 O816 1.935 . S
Fe807 O818 2.077 1_455 S
Fe807 O826 1.935 1_455 S
C808 O820 1.381 . S
C808 O821 1.421 . S
O809 Fe800 2.077 1_455 S
O809 C822 1.381 . S
O810 Fe803 1.935 1_455 S
O810 C822 1.421 . S
O811 Fe807 2.077 . S
O811 C827 1.381 . S
O812 Fe802 1.935 . S
O812 C827 1.421 . S
O813 Fe802 2.077 . S
O813 C817 1.381 . S
O814 Fe800 1.935 1_455 S
O814 C817 1.421 . S
O815 Fe803 2.077 1_455 S
O815 C823 1.381 . S
O816 Fe807 1.935 . S
O816 C823 1.421 . S
C817 O813 1.381 . S
C817 O814 1.421 . S
O818 Fe807 2.077 1_655 S
O818 C830 1.381 . S
O819 Fe802 1.935 1_655 S
O819 C830 1.421 . S
O820 Fe800 2.077 . S
O820 C808 1.381 . S
O821 Fe803 1.935 . S
O821 C808 1.421 . S
C822 O809 1.381 . S
C822 O810 1.421 . S
C823 O815 1.381 . S
C823 O816 1.421 . S
C824 O825 1.381 . S
C824 O826 1.421 . S
O825 Fe803 2.077 . S
O825 C824 1.381 . S
O826 Fe807 1.935 1_655 S
O826 C824 1.421 . S
C827 O811 1.381 . S
C827 O812 1.421 . S
O828 Fe802 2.077 1_655 S
O828 C831 1.381 . S
O829 Fe800 1.935 . S
O829 C831 1.421 . S
C830 O818 1.381 . S
C830 O819 1.421 . S
C831 O828 1.381 . S
C831 O829 1.421 . S
Fe832 O833 1.886 . S
Fe832 O836 1.715 . S
Fe832 O841 2.077 . S
Fe832 O846 1.935 . S
Fe832 O852 2.077 . S
Fe832 O861 1.935 . S
O833 Fe832 1.886 . S
O833 Fe835 1.715 1_565 S
Fe834 O836 1.886 . S
Fe834 O837 1.715 1_565 S
Fe834 O844 1.935 1_565 S
Fe834 O845 2.077 . S
Fe834 O851 1.935 1_565 S
Fe834 O860 2.077 . S
Fe835 O833 1.715 1_545 S
Fe835 O838 1.886 . S
Fe835 O842 1.935 1_545 S
Fe835 O847 2.077 . S
Fe835 O853 1.935 1_545 S
Fe835 O857 2.077 . S
O836 Fe832 1.715 . S
O836 Fe834 1.886 . S
O837 Fe834 1.715 1_545 S
O837 Fe839 1.886 . S
O838 Fe835 1.886 . S
O838 Fe839 1.715 . S
Fe839 O837 1.886 . S
Fe839 O838 1.715 . S
Fe839 O843 2.077 . S
Fe839 O848 1.935 . S
Fe839 O850 2.077 . S
Fe839 O858 1.935 . S
C840 O852 1.381 . S
C840 O853 1.421 . S
O841 Fe832 2.077 . S
O841 C854 1.381 . S
O842 Fe835 1.935 1_565 S
O842 C854 1.421 . S
O843 Fe839 2.077 . S
O843 C859 1.381 . S
O844 Fe834 1.935 1_545 S
O844 C859 1.421 . S
O845 Fe834 2.077 . S
O845 C849 1.381 . S
O846 Fe832 1.935 . S
O846 C849 1.421 . S
O847 Fe835 2.077 . S
O847 C855 1.381 . S
O848 Fe839 1.935 . S
O848 C855 1.421 . S
C849 O845 1.381 . S
C849 O846 1.421 . S
O850 Fe839 2.077 . S
O850 C862 1.381 . S
O851 Fe834 1.935 1_545 S
O851 C862 1.421 . S
O852 Fe832 2.077 . S
O852 C840 1.381 . S
O853 Fe835 1.935 1_565 S
O853 C840 1.421 . S
C854 O841 1.381 . S
C854 O842 1.421 . S
C855 O847 1.381 . S
C855 O848 1.421 . S
C856 O857 1.381 . S
C856 O858 1.421 . S
O857 Fe835 2.077 . S
O857 C856 1.381 . S
O858 Fe839 1.935 . S
O858 C856 1.421 . S
C859 O843 1.381 . S
C859 O844 1.421 . S
O860 Fe834 2.077 . S
O860 C863 1.381 . S
O861 Fe832 1.935 . S
O861 C863 1.421 . S
C862 O850 1.381 . S
C862 O851 1.421 . S
C863 O860 1.381 . S
C863 O861 1.421 . S
H864 C872 0.950 . S
H865 C877 0.950 . S
H866 C874 0.950 . S
H867 C876 0.950 . S
H868 C878 0.950 . S
H869 C880 0.950 . S
H870 C882 0.950 . S
H871 C883 0.950 . S
C872 H864 0.950 . S
C872 C873 1.386 . S
C872 C874 1.391 . S
C873 C872 1.386 . S
C873 C877 1.393 . S
C874 H866 0.950 . S
C874 C872 1.391 . S
C874 C875 1.400 . S
C875 C874 1.400 . S
C875 C876 1.398 . S
C875 C881 1.491 . S
C876 H867 0.950 . S
C876 C875 1.398 . S
C876 C877 1.391 . S
C877 H865 0.950 . S
C877 C873 1.393 . S
C877 C876 1.391 . S
C878 H868 0.950 . S
C878 C879 1.386 . S
C878 C880 1.391 . S
C879 C878 1.386 . S
C879 C883 1.393 . S
C880 H869 0.950 . S
C880 C878 1.391 . S
C880 C881 1.400 . S
C881 C875 1.491 . S
C881 C880 1.400 . S
C881 C882 1.398 . S
C882 H870 0.950 . S
C882 C881 1.398 . S
C882 C883 1.391 . S
C883 H871 0.950 . S
C883 C879 1.393 . S
C883 C882 1.391 . S
H884 C892 0.950 . S
H885 C897 0.950 . S
H886 C894 0.950 . S
H887 C896 0.950 . S
H888 C898 0.950 . S
H889 C900 0.950 . S
H890 C902 0.950 . S
H891 C903 0.950 . S
C892 H884 0.950 . S
C892 C893 1.386 . S
C892 C894 1.391 . S
C893 C892 1.386 . S
C893 C897 1.393 . S
C894 H886 0.950 . S
C894 C892 1.391 . S
C894 C895 1.400 . S
C895 C894 1.400 . S
C895 C896 1.398 . S
C895 C901 1.491 . S
C896 H887 0.950 . S
C896 C895 1.398 . S
C896 C897 1.391 . S
C897 H885 0.950 . S
C897 C893 1.393 . S
C897 C896 1.391 . S
C898 H888 0.950 . S
C898 C899 1.386 . S
C898 C900 1.391 . S
C899 C898 1.386 . S
C899 C903 1.393 . S
C900 H889 0.950 . S
C900 C898 1.391 . S
C900 C901 1.400 . S
C901 C895 1.491 . S
C901 C900 1.400 . S
C901 C902 1.398 . S
C902 H890 0.950 . S
C902 C901 1.398 . S
C902 C903 1.391 . S
C903 H891 0.950 . S
C903 C899 1.393 . S
C903 C902 1.391 . S
H904 C912 0.950 . S
H905 C917 0.950 . S
H906 C914 0.950 . S
H907 C916 0.950 . S
H908 C918 0.950 . S
H909 C920 0.950 . S
H910 C922 0.950 . S
H911 C923 0.950 . S
C912 H904 0.950 . S
C912 C913 1.386 . S
C912 C914 1.391 . S
C913 C912 1.386 . S
C913 C917 1.393 . S
C914 H906 0.950 . S
C914 C912 1.391 . S
C914 C915 1.400 . S
C915 C914 1.400 . S
C915 C916 1.398 . S
C915 C921 1.491 . S
C916 H907 0.950 . S
C916 C915 1.398 . S
C916 C917 1.391 . S
C917 H905 0.950 . S
C917 C913 1.393 . S
C917 C916 1.391 . S
C918 H908 0.950 . S
C918 C919 1.386 . S
C918 C920 1.391 . S
C919 C918 1.386 . S
C919 C923 1.393 . S
C920 H909 0.950 . S
C920 C918 1.391 . S
C920 C921 1.400 . S
C921 C915 1.491 . S
C921 C920 1.400 . S
C921 C922 1.398 . S
C922 H910 0.950 . S
C922 C921 1.398 . S
C922 C923 1.391 . S
C923 H911 0.950 . S
C923 C919 1.393 . S
C923 C922 1.391 . S
H924 C932 0.950 . S
H925 C937 0.950 . S
H926 C934 0.950 . S
H927 C936 0.950 . S
H928 C938 0.950 . S
H929 C940 0.950 . S
H930 C942 0.950 . S
H931 C943 0.950 . S
C932 H924 0.950 . S
C932 C933 1.386 . S
C932 C934 1.391 . S
C933 C932 1.386 . S
C933 C937 1.393 . S
C934 H926 0.950 . S
C934 C932 1.391 . S
C934 C935 1.400 . S
C935 C934 1.400 . S
C935 C936 1.398 . S
C935 C941 1.491 . S
C936 H927 0.950 . S
C936 C935 1.398 . S
C936 C937 1.391 . S
C937 H925 0.950 . S
C937 C933 1.393 . S
C937 C936 1.391 . S
C938 H928 0.950 . S
C938 C939 1.386 . S
C938 C940 1.391 . S
C939 C938 1.386 . S
C939 C943 1.393 . S
C940 H929 0.950 . S
C940 C938 1.391 . S
C940 C941 1.400 . S
C941 C935 1.491 . S
C941 C940 1.400 . S
C941 C942 1.398 . S
C942 H930 0.950 . S
C942 C941 1.398 . S
C942 C943 1.391 . S
C943 H931 0.950 . S
C943 C939 1.393 . S
C943 C942 1.391 . S
H944 C952 0.950 . S
H945 C957 0.950 . S
H946 C954 0.950 . S
H947 C956 0.950 . S
H948 C958 0.950 . S
H949 C960 0.950 . S
H950 C962 0.950 . S
H951 C963 0.950 . S
C952 H944 0.950 . S
C952 C953 1.386 . S
C952 C954 1.391 . S
C953 C952 1.386 . S
C953 C957 1.393 . S
C954 H946 0.950 . S
C954 C952 1.391 . S
C954 C955 1.400 . S
C955 C954 1.400 . S
C955 C956 1.398 . S
C955 C961 1.491 . S
C956 H947 0.950 . S
C956 C955 1.398 . S
C956 C957 1.391 . S
C957 H945 0.950 . S
C957 C953 1.393 . S
C957 C956 1.391 . S
C958 H948 0.950 . S
C958 C959 1.386 . S
C958 C960 1.391 . S
C959 C958 1.386 . S
C959 C963 1.393 . S
C960 H949 0.950 . S
C960 C958 1.391 . S
C960 C961 1.400 . S
C961 C955 1.491 . S
C961 C960 1.400 . S
C961 C962 1.398 . S
C962 H950 0.950 . S
C962 C961 1.398 . S
C962 C963 1.391 . S
C963 H951 0.950 . S
C963 C959 1.393 . S
C963 C962 1.391 . S
H964 C972 0.950 . S
H965 C977 0.950 . S
H966 C974 0.950 . S
H967 C976 0.950 . S
H968 C978 0.950 . S
H969 C980 0.950 . S
H970 C982 0.950 . S
H971 C983 0.950 . S
C972 H964 0.950 . S
C972 C973 1.386 . S
C972 C974 1.391 . S
C973 C972 1.386 . S
C973 C977 1.393 . S
C974 H966 0.950 . S
C974 C972 1.391 . S
C974 C975 1.400 . S
C975 C974 1.400 . S
C975 C976 1.398 . S
C975 C981 1.491 . S
C976 H967 0.950 . S
C976 C975 1.398 . S
C976 C977 1.391 . S
C977 H965 0.950 . S
C977 C973 1.393 . S
C977 C976 1.391 . S
C978 H968 0.950 . S
C978 C979 1.386 . S
C978 C980 1.391 . S
C979 C978 1.386 . S
C979 C983 1.393 . S
C980 H969 0.950 . S
C980 C978 1.391 . S
C980 C981 1.400 . S
C981 C975 1.491 . S
C981 C980 1.400 . S
C981 C982 1.398 . S
C982 H970 0.950 . S
C982 C981 1.398 . S
C982 C983 1.391 . S
C983 H971 0.950 . S
C983 C979 1.393 . S
C983 C982 1.391 . S
H984 C992 0.950 . S
H985 C997 0.950 . S
H986 C994 0.950 . S
H987 C996 0.950 . S
H988 C998 0.950 . S
H989 C1000 0.950 . S
H990 C1002 0.950 . S
H991 C1003 0.950 . S
C992 H984 0.950 . S
C992 C993 1.386 . S
C992 C994 1.391 . S
C993 C992 1.386 . S
C993 C997 1.393 . S
C994 H986 0.950 . S
C994 C992 1.391 . S
C994 C995 1.400 . S
C995 C994 1.400 . S
C995 C996 1.398 . S
C995 C1001 1.491 . S
C996 H987 0.950 . S
C996 C995 1.398 . S
C996 C997 1.391 . S
C997 H985 0.950 . S
C997 C993 1.393 . S
C997 C996 1.391 . S
C998 H988 0.950 . S
C998 C999 1.386 . S
C998 C1000 1.391 . S
C999 C998 1.386 . S
C999 C1003 1.393 . S
C1000 H989 0.950 . S
C1000 C998 1.391 . S
C1000 C1001 1.400 . S
C1001 C995 1.491 . S
C1001 C1000 1.400 . S
C1001 C1002 1.398 . S
C1002 H990 0.950 . S
C1002 C1001 1.398 . S
C1002 C1003 1.391 . S
C1003 H991 0.950 . S
C1003 C999 1.393 . S
C1003 C1002 1.391 . S
H1004 C1012 0.950 . S
H1005 C1017 0.950 . S
H1006 C1014 0.950 . S
H1007 C1016 0.950 . S
H1008 C1018 0.950 . S
H1009 C1020 0.950 . S
H1010 C1022 0.950 . S
H1011 C1023 0.950 . S
C1012 H1004 0.950 . S
C1012 C1013 1.386 . S
C1012 C1014 1.391 . S
C1013 C1012 1.386 . S
C1013 C1017 1.393 . S
C1014 H1006 0.950 . S
C1014 C1012 1.391 . S
C1014 C1015 1.400 . S
C1015 C1014 1.400 . S
C1015 C1016 1.398 . S
C1015 C1021 1.491 . S
C1016 H1007 0.950 . S
C1016 C1015 1.398 . S
C1016 C1017 1.391 . S
C1017 H1005 0.950 . S
C1017 C1013 1.393 . S
C1017 C1016 1.391 . S
C1018 H1008 0.950 . S
C1018 C1019 1.386 . S
C1018 C1020 1.391 . S
C1019 C1018 1.386 . S
C1019 C1023 1.393 . S
C1020 H1009 0.950 . S
C1020 C1018 1.391 . S
C1020 C1021 1.400 . S
C1021 C1015 1.491 . S
C1021 C1020 1.400 . S
C1021 C1022 1.398 . S
C1022 H1010 0.950 . S
C1022 C1021 1.398 . S
C1022 C1023 1.391 . S
C1023 H1011 0.950 . S
C1023 C1019 1.393 . S
C1023 C1022 1.391 . S
H1024 C1032 0.950 . S
H1025 C1037 0.950 . S
H1026 C1034 0.950 . S
H1027 C1036 0.950 . S
H1028 C1038 0.950 . S
H1029 C1040 0.950 . S
H1030 C1042 0.950 . S
H1031 C1043 0.950 . S
C1032 H1024 0.950 . S
C1032 C1033 1.386 . S
C1032 C1034 1.391 . S
C1033 C1032 1.386 . S
C1033 C1037 1.393 . S
C1034 H1026 0.950 . S
C1034 C1032 1.391 . S
C1034 C1035 1.400 . S
C1035 C1034 1.400 . S
C1035 C1036 1.398 . S
C1035 C1041 1.491 . S
C1036 H1027 0.950 . S
C1036 C1035 1.398 . S
C1036 C1037 1.391 . S
C1037 H1025 0.950 . S
C1037 C1033 1.393 . S
C1037 C1036 1.391 . S
C1038 H1028 0.950 . S
C1038 C1039 1.386 . S
C1038 C1040 1.391 . S
C1039 C1038 1.386 . S
C1039 C1043 1.393 . S
C1040 H1029 0.950 . S
C1040 C1038 1.391 . S
C1040 C1041 1.400 . S
C1041 C1035 1.491 . S
C1041 C1040 1.400 . S
C1041 C1042 1.398 . S
C1042 H1030 0.950 . S
C1042 C1041 1.398 . S
C1042 C1043 1.391 . S
C1043 H1031 0.950 . S
C1043 C1039 1.393 . S
C1043 C1042 1.391 . S
H1044 C1052 0.950 . S
H1045 C1057 0.950 . S
H1046 C1054 0.950 . S
H1047 C1056 0.950 . S
H1048 C1058 0.950 . S
H1049 C1060 0.950 . S
H1050 C1062 0.950 . S
H1051 C1063 0.950 . S
C1052 H1044 0.950 . S
C1052 C1053 1.386 . S
C1052 C1054 1.391 . S
C1053 C1052 1.386 . S
C1053 C1057 1.393 . S
C1054 H1046 0.950 . S
C1054 C1052 1.391 . S
C1054 C1055 1.400 . S
C1055 C1054 1.400 . S
C1055 C1056 1.398 . S
C1055 C1061 1.491 . S
C1056 H1047 0.950 . S
C1056 C1055 1.398 . S
C1056 C1057 1.391 . S
C1057 H1045 0.950 . S
C1057 C1053 1.393 . S
C1057 C1056 1.391 . S
C1058 H1048 0.950 . S
C1058 C1059 1.386 . S
C1058 C1060 1.391 . S
C1059 C1058 1.386 . S
C1059 C1063 1.393 . S
C1060 H1049 0.950 . S
C1060 C1058 1.391 . S
C1060 C1061 1.400 . S
C1061 C1055 1.491 . S
C1061 C1060 1.400 . S
C1061 C1062 1.398 . S
C1062 H1050 0.950 . S
C1062 C1061 1.398 . S
C1062 C1063 1.391 . S
C1063 H1051 0.950 . S
C1063 C1059 1.393 . S
C1063 C1062 1.391 . S
H1064 C1072 0.950 . S
H1065 C1077 0.950 . S
H1066 C1074 0.950 . S
H1067 C1076 0.950 . S
H1068 C1078 0.950 . S
H1069 C1080 0.950 . S
H1070 C1082 0.950 . S
H1071 C1083 0.950 . S
C1072 H1064 0.950 . S
C1072 C1073 1.386 . S
C1072 C1074 1.391 . S
C1073 C1072 1.386 . S
C1073 C1077 1.393 . S
C1074 H1066 0.950 . S
C1074 C1072 1.391 . S
C1074 C1075 1.400 . S
C1075 C1074 1.400 . S
C1075 C1076 1.398 . S
C1075 C1081 1.491 . S
C1076 H1067 0.950 . S
C1076 C1075 1.398 . S
C1076 C1077 1.391 . S
C1077 H1065 0.950 . S
C1077 C1073 1.393 . S
C1077 C1076 1.391 . S
C1078 H1068 0.950 . S
C1078 C1079 1.386 . S
C1078 C1080 1.391 . S
C1079 C1078 1.386 . S
C1079 C1083 1.393 . S
C1080 H1069 0.950 . S
C1080 C1078 1.391 . S
C1080 C1081 1.400 . S
C1081 C1075 1.491 . S
C1081 C1080 1.400 . S
C1081 C1082 1.398 . S
C1082 H1070 0.950 . S
C1082 C1081 1.398 . S
C1082 C1083 1.391 . S
C1083 H1071 0.950 . S
C1083 C1079 1.393 . S
C1083 C1082 1.391 . S
H1084 C1092 0.950 . S
H1085 C1097 0.950 . S
H1086 C1094 0.950 . S
H1087 C1096 0.950 . S
H1088 C1098 0.950 . S
H1089 C1100 0.950 . S
H1090 C1102 0.950 . S
H1091 C1103 0.950 . S
C1092 H1084 0.950 . S
C1092 C1093 1.386 . S
C1092 C1094 1.391 . S
C1093 C1092 1.386 . S
C1093 C1097 1.393 . S
C1094 H1086 0.950 . S
C1094 C1092 1.391 . S
C1094 C1095 1.400 . S
C1095 C1094 1.400 . S
C1095 C1096 1.398 . S
C1095 C1101 1.491 . S
C1096 H1087 0.950 . S
C1096 C1095 1.398 . S
C1096 C1097 1.391 . S
C1097 H1085 0.950 . S
C1097 C1093 1.393 . S
C1097 C1096 1.391 . S
C1098 H1088 0.950 . S
C1098 C1099 1.386 . S
C1098 C1100 1.391 . S
C1099 C1098 1.386 . S
C1099 C1103 1.393 . S
C1100 H1089 0.950 . S
C1100 C1098 1.391 . S
C1100 C1101 1.400 . S
C1101 C1095 1.491 . S
C1101 C1100 1.400 . S
C1101 C1102 1.398 . S
C1102 H1090 0.950 . S
C1102 C1101 1.398 . S
C1102 C1103 1.391 . S
C1103 H1091 0.950 . S
C1103 C1099 1.393 . S
C1103 C1102 1.391 . S
H1104 C1112 0.950 . S
H1105 C1117 0.950 . S
H1106 C1114 0.950 . S
H1107 C1116 0.950 . S
H1108 C1118 0.950 . S
H1109 C1120 0.950 . S
H1110 C1122 0.950 . S
H1111 C1123 0.950 . S
C1112 H1104 0.950 . S
C1112 C1113 1.386 . S
C1112 C1114 1.391 . S
C1113 C1112 1.386 . S
C1113 C1117 1.393 . S
C1114 H1106 0.950 . S
C1114 C1112 1.391 . S
C1114 C1115 1.400 . S
C1115 C1114 1.400 . S
C1115 C1116 1.398 . S
C1115 C1121 1.491 . S
C1116 H1107 0.950 . S
C1116 C1115 1.398 . S
C1116 C1117 1.391 . S
C1117 H1105 0.950 . S
C1117 C1113 1.393 . S
C1117 C1116 1.391 . S
C1118 H1108 0.950 . S
C1118 C1119 1.386 . S
C1118 C1120 1.391 . S
C1119 C1118 1.386 . S
C1119 C1123 1.393 . S
C1120 H1109 0.950 . S
C1120 C1118 1.391 . S
C1120 C1121 1.400 . S
C1121 C1115 1.491 . S
C1121 C1120 1.400 . S
C1121 C1122 1.398 . S
C1122 H1110 0.950 . S
C1122 C1121 1.398 . S
C1122 C1123 1.391 . S
C1123 H1111 0.950 . S
C1123 C1119 1.393 . S
C1123 C1122 1.391 . S
H1124 C1132 0.950 . S
H1125 C1137 0.950 . S
H1126 C1134 0.950 . S
H1127 C1136 0.950 . S
H1128 C1138 0.950 . S
H1129 C1140 0.950 . S
H1130 C1142 0.950 . S
H1131 C1143 0.950 . S
C1132 H1124 0.950 . S
C1132 C1133 1.386 . S
C1132 C1134 1.391 . S
C1133 C1132 1.386 . S
C1133 C1137 1.393 . S
C1134 H1126 0.950 . S
C1134 C1132 1.391 . S
C1134 C1135 1.400 . S
C1135 C1134 1.400 . S
C1135 C1136 1.398 . S
C1135 C1141 1.491 . S
C1136 H1127 0.950 . S
C1136 C1135 1.398 . S
C1136 C1137 1.391 . S
C1137 H1125 0.950 . S
C1137 C1133 1.393 . S
C1137 C1136 1.391 . S
C1138 H1128 0.950 . S
C1138 C1139 1.386 . S
C1138 C1140 1.391 . S
C1139 C1138 1.386 . S
C1139 C1143 1.393 . S
C1140 H1129 0.950 . S
C1140 C1138 1.391 . S
C1140 C1141 1.400 . S
C1141 C1135 1.491 . S
C1141 C1140 1.400 . S
C1141 C1142 1.398 . S
C1142 H1130 0.950 . S
C1142 C1141 1.398 . S
C1142 C1143 1.391 . S
C1143 H1131 0.950 . S
C1143 C1139 1.393 . S
C1143 C1142 1.391 . S
H1144 C1152 0.950 . S
H1145 C1157 0.950 . S
H1146 C1154 0.950 . S
H1147 C1156 0.950 . S
H1148 C1158 0.950 . S
H1149 C1160 0.950 . S
H1150 C1162 0.950 . S
H1151 C1163 0.950 . S
C1152 H1144 0.950 . S
C1152 C1153 1.386 . S
C1152 C1154 1.391 . S
C1153 C1152 1.386 . S
C1153 C1157 1.393 . S
C1154 H1146 0.950 . S
C1154 C1152 1.391 . S
C1154 C1155 1.400 . S
C1155 C1154 1.400 . S
C1155 C1156 1.398 . S
C1155 C1161 1.491 . S
C1156 H1147 0.950 . S
C1156 C1155 1.398 . S
C1156 C1157 1.391 . S
C1157 H1145 0.950 . S
C1157 C1153 1.393 . S
C1157 C1156 1.391 . S
C1158 H1148 0.950 . S
C1158 C1159 1.386 . S
C1158 C1160 1.391 . S
C1159 C1158 1.386 . S
C1159 C1163 1.393 . S
C1160 H1149 0.950 . S
C1160 C1158 1.391 . S
C1160 C1161 1.400 . S
C1161 C1155 1.491 . S
C1161 C1160 1.400 . S
C1161 C1162 1.398 . S
C1162 H1150 0.950 . S
C1162 C1161 1.398 . S
C1162 C1163 1.391 . S
C1163 H1151 0.950 . S
C1163 C1159 1.393 . S
C1163 C1162 1.391 . S
H1164 C1172 0.950 . S
H1165 C1177 0.950 . S
H1166 C1174 0.950 . S
H1167 C1176 0.950 . S
H1168 C1178 0.950 . S
H1169 C1180 0.950 . S
H1170 C1182 0.950 . S
H1171 C1183 0.950 . S
C1172 H1164 0.950 . S
C1172 C1173 1.386 . S
C1172 C1174 1.391 . S
C1173 C1172 1.386 . S
C1173 C1177 1.393 . S
C1174 H1166 0.950 . S
C1174 C1172 1.391 . S
C1174 C1175 1.400 . S
C1175 C1174 1.400 . S
C1175 C1176 1.398 . S
C1175 C1181 1.491 . S
C1176 H1167 0.950 . S
C1176 C1175 1.398 . S
C1176 C1177 1.391 . S
C1177 H1165 0.950 . S
C1177 C1173 1.393 . S
C1177 C1176 1.391 . S
C1178 H1168 0.950 . S
C1178 C1179 1.386 . S
C1178 C1180 1.391 . S
C1179 C1178 1.386 . S
C1179 C1183 1.393 . S
C1180 H1169 0.950 . S
C1180 C1178 1.391 . S
C1180 C1181 1.400 . S
C1181 C1175 1.491 . S
C1181 C1180 1.400 . S
C1181 C1182 1.398 . S
C1182 H1170 0.950 . S
C1182 C1181 1.398 . S
C1182 C1183 1.391 . S
C1183 H1171 0.950 . S
C1183 C1179 1.393 . S
C1183 C1182 1.391 . S
H1184 C1192 0.950 . S
H1185 C1197 0.950 . S
H1186 C1194 0.950 . S
H1187 C1196 0.950 . S
H1188 C1198 0.950 . S
H1189 C1200 0.950 . S
H1190 C1202 0.950 . S
H1191 C1203 0.950 . S
C1192 H1184 0.950 . S
C1192 C1193 1.386 . S
C1192 C1194 1.391 . S
C1193 C1192 1.386 . S
C1193 C1197 1.393 . S
C1194 H1186 0.950 . S
C1194 C1192 1.391 . S
C1194 C1195 1.400 . S
C1195 C1194 1.400 . S
C1195 C1196 1.398 . S
C1195 C1201 1.491 . S
C1196 H1187 0.950 . S
C1196 C1195 1.398 . S
C1196 C1197 1.391 . S
C1197 H1185 0.950 . S
C1197 C1193 1.393 . S
C1197 C1196 1.391 . S
C1198 H1188 0.950 . S
C1198 C1199 1.386 . S
C1198 C1200 1.391 . S
C1199 C1198 1.386 . S
C1199 C1203 1.393 . S
C1200 H1189 0.950 . S
C1200 C1198 1.391 . S
C1200 C1201 1.400 . S
C1201 C1195 1.491 . S
C1201 C1200 1.400 . S
C1201 C1202 1.398 . S
C1202 H1190 0.950 . S
C1202 C1201 1.398 . S
C1202 C1203 1.391 . S
C1203 H1191 0.950 . S
C1203 C1199 1.393 . S
C1203 C1202 1.391 . S
H1204 C1212 0.950 . S
H1205 C1217 0.950 . S
H1206 C1214 0.950 . S
H1207 C1216 0.950 . S
H1208 C1218 0.950 . S
H1209 C1220 0.950 . S
H1210 C1222 0.950 . S
H1211 C1223 0.950 . S
C1212 H1204 0.950 . S
C1212 C1213 1.386 . S
C1212 C1214 1.391 . S
C1213 C1212 1.386 . S
C1213 C1217 1.393 . S
C1214 H1206 0.950 . S
C1214 C1212 1.391 . S
C1214 C1215 1.400 . S
C1215 C1214 1.400 . S
C1215 C1216 1.398 . S
C1215 C1221 1.491 . S
C1216 H1207 0.950 . S
C1216 C1215 1.398 . S
C1216 C1217 1.391 . S
C1217 H1205 0.950 . S
C1217 C1213 1.393 . S
C1217 C1216 1.391 . S
C1218 H1208 0.950 . S
C1218 C1219 1.386 . S
C1218 C1220 1.391 . S
C1219 C1218 1.386 . S
C1219 C1223 1.393 . S
C1220 H1209 0.950 . S
C1220 C1218 1.391 . S
C1220 C1221 1.400 . S
C1221 C1215 1.491 . S
C1221 C1220 1.400 . S
C1221 C1222 1.398 . S
C1222 H1210 0.950 . S
C1222 C1221 1.398 . S
C1222 C1223 1.391 . S
C1223 H1211 0.950 . S
C1223 C1219 1.393 . S
C1223 C1222 1.391 . S
H1224 C1232 0.950 . S
H1225 C1237 0.950 . S
H1226 C1234 0.950 . S
H1227 C1236 0.950 . S
H1228 C1238 0.950 . S
H1229 C1240 0.950 . S
H1230 C1242 0.950 . S
H1231 C1243 0.950 . S
C1232 H1224 0.950 . S
C1232 C1233 1.386 . S
C1232 C1234 1.391 . S
C1233 C1232 1.386 . S
C1233 C1237 1.393 . S
C1234 H1226 0.950 . S
C1234 C1232 1.391 . S
C1234 C1235 1.400 . S
C1235 C1234 1.400 . S
C1235 C1236 1.398 . S
C1235 C1241 1.491 . S
C1236 H1227 0.950 . S
C1236 C1235 1.398 . S
C1236 C1237 1.391 . S
C1237 H1225 0.950 . S
C1237 C1233 1.393 . S
C1237 C1236 1.391 . S
C1238 H1228 0.950 . S
C1238 C1239 1.386 . S
C1238 C1240 1.391 . S
C1239 C1238 1.386 . S
C1239 C1243 1.393 . S
C1240 H1229 0.950 . S
C1240 C1238 1.391 . S
C1240 C1241 1.400 . S
C1241 C1235 1.491 . S
C1241 C1240 1.400 . S
C1241 C1242 1.398 . S
C1242 H1230 0.950 . S
C1242 C1241 1.398 . S
C1242 C1243 1.391 . S
C1243 H1231 0.950 . S
C1243 C1239 1.393 . S
C1243 C1242 1.391 . S
H1244 C1252 0.950 . S
H1245 C1257 0.950 . S
H1246 C1254 0.950 . S
H1247 C1256 0.950 . S
H1248 C1258 0.950 . S
H1249 C1260 0.950 . S
H1250 C1262 0.950 . S
H1251 C1263 0.950 . S
C1252 H1244 0.950 . S
C1252 C1253 1.386 . S
C1252 C1254 1.391 . S
C1253 C1252 1.386 . S
C1253 C1257 1.393 . S
C1254 H1246 0.950 . S
C1254 C1252 1.391 . S
C1254 C1255 1.400 . S
C1255 C1254 1.400 . S
C1255 C1256 1.398 . S
C1255 C1261 1.491 . S
C1256 H1247 0.950 . S
C1256 C1255 1.398 . S
C1256 C1257 1.391 . S
C1257 H1245 0.950 . S
C1257 C1253 1.393 . S
C1257 C1256 1.391 . S
C1258 H1248 0.950 . S
C1258 C1259 1.386 . S
C1258 C1260 1.391 . S
C1259 C1258 1.386 . S
C1259 C1263 1.393 . S
C1260 H1249 0.950 . S
C1260 C1258 1.391 . S
C1260 C1261 1.400 . S
C1261 C1255 1.491 . S
C1261 C1260 1.400 . S
C1261 C1262 1.398 . S
C1262 H1250 0.950 . S
C1262 C1261 1.398 . S
C1262 C1263 1.391 . S
C1263 H1251 0.950 . S
C1263 C1259 1.393 . S
C1263 C1262 1.391 . S
H1264 C1272 0.950 . S
H1265 C1277 0.950 . S
H1266 C1274 0.950 . S
H1267 C1276 0.950 . S
H1268 C1278 0.950 . S
H1269 C1280 0.950 . S
H1270 C1282 0.950 . S
H1271 C1283 0.950 . S
C1272 H1264 0.950 . S
C1272 C1273 1.386 . S
C1272 C1274 1.391 . S
C1273 C1272 1.386 . S
C1273 C1277 1.393 . S
C1274 H1266 0.950 . S
C1274 C1272 1.391 . S
C1274 C1275 1.400 . S
C1275 C1274 1.400 . S
C1275 C1276 1.398 . S
C1275 C1281 1.491 . S
C1276 H1267 0.950 . S
C1276 C1275 1.398 . S
C1276 C1277 1.391 . S
C1277 H1265 0.950 . S
C1277 C1273 1.393 . S
C1277 C1276 1.391 . S
C1278 H1268 0.950 . S
C1278 C1279 1.386 . S
C1278 C1280 1.391 . S
C1279 C1278 1.386 . S
C1279 C1283 1.393 . S
C1280 H1269 0.950 . S
C1280 C1278 1.391 . S
C1280 C1281 1.400 . S
C1281 C1275 1.491 . S
C1281 C1280 1.400 . S
C1281 C1282 1.398 . S
C1282 H1270 0.950 . S
C1282 C1281 1.398 . S
C1282 C1283 1.391 . S
C1283 H1271 0.950 . S
C1283 C1279 1.393 . S
C1283 C1282 1.391 . S
H1284 C1292 0.950 . S
H1285 C1297 0.950 . S
H1286 C1294 0.950 . S
H1287 C1296 0.950 . S
H1288 C1298 0.950 . S
H1289 C1300 0.950 . S
H1290 C1302 0.950 . S
H1291 C1303 0.950 . S
C1292 H1284 0.950 . S
C1292 C1293 1.386 . S
C1292 C1294 1.391 . S
C1293 C1292 1.386 . S
C1293 C1297 1.393 . S
C1294 H1286 0.950 . S
C1294 C1292 1.391 . S
C1294 C1295 1.400 . S
C1295 C1294 1.400 . S
C1295 C1296 1.398 . S
C1295 C1301 1.491 . S
C1296 H1287 0.950 . S
C1296 C1295 1.398 . S
C1296 C1297 1.391 . S
C1297 H1285 0.950 . S
C1297 C1293 1.393 . S
C1297 C1296 1.391 . S
C1298 H1288 0.950 . S
C1298 C1299 1.386 . S
C1298 C1300 1.391 . S
C1299 C1298 1.386 . S
C1299 C1303 1.393 . S
C1300 H1289 0.950 . S
C1300 C1298 1.391 . S
C1300 C1301 1.400 . S
C1301 C1295 1.491 . S
C1301 C1300 1.400 . S
C1301 C1302 1.398 . S
C1302 H1290 0.950 . S
C1302 C1301 1.398 . S
C1302 C1303 1.391 . S
C1303 H1291 0.950 . S
C1303 C1299 1.393 . S
C1303 C1302 1.391 . S
H1304 C1312 0.950 . S
H1305 C1317 0.950 . S
H1306 C1314 0.950 . S
H1307 C1316 0.950 . S
H1308 C1318 0.950 . S
H1309 C1320 0.950 . S
H1310 C1322 0.950 . S
H1311 C1323 0.950 . S
C1312 H1304 0.950 . S
C1312 C1313 1.386 . S
C1312 C1314 1.391 . S
C1313 C1312 1.386 . S
C1313 C1317 1.393 . S
C1314 H1306 0.950 . S
C1314 C1312 1.391 . S
C1314 C1315 1.400 . S
C1315 C1314 1.400 . S
C1315 C1316 1.398 . S
C1315 C1321 1.491 . S
C1316 H1307 0.950 . S
C1316 C1315 1.398 . S
C1316 C1317 1.391 . S
C1317 H1305 0.950 . S
C1317 C1313 1.393 . S
C1317 C1316 1.391 . S
C1318 H1308 0.950 . S
C1318 C1319 1.386 . S
C1318 C1320 1.391 . S
C1319 C1318 1.386 . S
C1319 C1323 1.393 . S
C1320 H1309 0.950 . S
C1320 C1318 1.391 . S
C1320 C1321 1.400 . S
C1321 C1315 1.491 . S
C1321 C1320 1.400 . S
C1321 C1322 1.398 . S
C1322 H1310 0.950 . S
C1322 C1321 1.398 . S
C1322 C1323 1.391 . S
C1323 H1311 0.950 . S
C1323 C1319 1.393 . S
C1323 C1322 1.391 . S
H1324 C1332 0.950 . S
H1325 C1337 0.950 . S
H1326 C1334 0.950 . S
H1327 C1336 0.950 . S
H1328 C1338 0.950 . S
H1329 C1340 0.950 . S
H1330 C1342 0.950 . S
H1331 C1343 0.950 . S
C1332 H1324 0.950 . S
C1332 C1333 1.386 . S
C1332 C1334 1.391 . S
C1333 C1332 1.386 . S
C1333 C1337 1.393 . S
C1334 H1326 0.950 . S
C1334 C1332 1.391 . S
C1334 C1335 1.400 . S
C1335 C1334 1.400 . S
C1335 C1336 1.398 . S
C1335 C1341 1.491 . S
C1336 H1327 0.950 . S
C1336 C1335 1.398 . S
C1336 C1337 1.391 . S
C1337 H1325 0.950 . S
C1337 C1333 1.393 . S
C1337 C1336 1.391 . S
C1338 H1328 0.950 . S
C1338 C1339 1.386 . S
C1338 C1340 1.391 . S
C1339 C1338 1.386 . S
C1339 C1343 1.393 . S
C1340 H1329 0.950 . S
C1340 C1338 1.391 . S
C1340 C1341 1.400 . S
C1341 C1335 1.491 . S
C1341 C1340 1.400 . S
C1341 C1342 1.398 . S
C1342 H1330 0.950 . S
C1342 C1341 1.398 . S
C1342 C1343 1.391 . S
C1343 H1331 0.950 . S
C1343 C1339 1.393 . S
C1343 C1342 1.391 . S
H1344 C1352 0.950 . S
H1345 C1357 0.950 . S
H1346 C1354 0.950 . S
H1347 C1356 0.950 . S
H1348 C1358 0.950 . S
H1349 C1360 0.950 . S
H1350 C1362 0.950 . S
H1351 C1363 0.950 . S
C1352 H1344 0.950 . S
C1352 C1353 1.386 . S
C1352 C1354 1.391 . S
C1353 C1352 1.386 . S
C1353 C1357 1.393 . S
C1354 H1346 0.950 . S
C1354 C1352 1.391 . S
C1354 C1355 1.400 . S
C1355 C1354 1.400 . S
C1355 C1356 1.398 . S
C1355 C1361 1.491 . S
C1356 H1347 0.950 . S
C1356 C1355 1.398 . S
C1356 C1357 1.391 . S
C1357 H1345 0.950 . S
C1357 C1353 1.393 . S
C1357 C1356 1.391 . S
C1358 H1348 0.950 . S
C1358 C1359 1.386 . S
C1358 C1360 1.391 . S
C1359 C1358 1.386 . S
C1359 C1363 1.393 . S
C1360 H1349 0.950 . S
C1360 C1358 1.391 . S
C1360 C1361 1.400 . S
C1361 C1355 1.491 . S
C1361 C1360 1.400 . S
C1361 C1362 1.398 . S
C1362 H1350 0.950 . S
C1362 C1361 1.398 . S
C1362 C1363 1.391 . S
C1363 H1351 0.950 . S
C1363 C1359 1.393 . S
C1363 C1362 1.391 . S
H1364 C1372 0.950 . S
H1365 C1377 0.950 . S
H1366 C1374 0.950 . S
H1367 C1376 0.950 . S
H1368 C1378 0.950 . S
H1369 C1380 0.950 . S
H1370 C1382 0.950 . S
H1371 C1383 0.950 . S
C1372 H1364 0.950 . S
C1372 C1373 1.386 . S
C1372 C1374 1.391 . S
C1373 C1372 1.386 . S
C1373 C1377 1.393 . S
C1374 H1366 0.950 . S
C1374 C1372 1.391 . S
C1374 C1375 1.400 . S
C1375 C1374 1.400 . S
C1375 C1376 1.398 . S
C1375 C1381 1.491 . S
C1376 H1367 0.950 . S
C1376 C1375 1.398 . S
C1376 C1377 1.391 . S
C1377 H1365 0.950 . S
C1377 C1373 1.393 . S
C1377 C1376 1.391 . S
C1378 H1368 0.950 . S
C1378 C1379 1.386 . S
C1378 C1380 1.391 . S
C1379 C1378 1.386 . S
C1379 C1383 1.393 . S
C1380 H1369 0.950 . S
C1380 C1378 1.391 . S
C1380 C1381 1.400 . S
C1381 C1375 1.491 . S
C1381 C1380 1.400 . S
C1381 C1382 1.398 . S
C1382 H1370 0.950 . S
C1382 C1381 1.398 . S
C1382 C1383 1.391 . S
C1383 H1371 0.950 . S
C1383 C1379 1.393 . S
C1383 C1382 1.391 . S
H1384 C1392 0.950 . S
H1385 C1397 0.950 . S
H1386 C1394 0.950 . S
H1387 C1396 0.950 . S
H1388 C1398 0.950 . S
H1389 C1400 0.950 . S
H1390 C1402 0.950 . S
H1391 C1403 0.950 . S
C1392 H1384 0.950 . S
C1392 C1393 1.386 . S
C1392 C1394 1.391 . S
C1393 C1392 1.386 . S
C1393 C1397 1.393 . S
C1394 H1386 0.950 . S
C1394 C1392 1.391 . S
C1394 C1395 1.400 . S
C1395 C1394 1.400 . S
C1395 C1396 1.398 . S
C1395 C1401 1.491 . S
C1396 H1387 0.950 . S
C1396 C1395 1.398 . S
C1396 C1397 1.391 . S
C1397 H1385 0.950 . S
C1397 C1393 1.393 . S
C1397 C1396 1.391 . S
C1398 H1388 0.950 . S
C1398 C1399 1.386 . S
C1398 C1400 1.391 . S
C1399 C1398 1.386 . S
C1399 C1403 1.393 . S
C1400 H1389 0.950 . S
C1400 C1398 1.391 . S
C1400 C1401 1.400 . S
C1401 C1395 1.491 . S
C1401 C1400 1.400 . S
C1401 C1402 1.398 . S
C1402 H1390 0.950 . S
C1402 C1401 1.398 . S
C1402 C1403 1.391 . S
C1403 H1391 0.950 . S
C1403 C1399 1.393 . S
C1403 C1402 1.391 . S
H1404 C1412 0.950 . S
H1405 C1417 0.950 . S
H1406 C1414 0.950 . S
H1407 C1416 0.950 . S
H1408 C1418 0.950 . S
H1409 C1420 0.950 . S
H1410 C1422 0.950 . S
H1411 C1423 0.950 . S
C1412 H1404 0.950 . S
C1412 C1413 1.386 . S
C1412 C1414 1.391 . S
C1413 C1412 1.386 . S
C1413 C1417 1.393 . S
C1414 H1406 0.950 . S
C1414 C1412 1.391 . S
C1414 C1415 1.400 . S
C1415 C1414 1.400 . S
C1415 C1416 1.398 . S
C1415 C1421 1.491 . S
C1416 H1407 0.950 . S
C1416 C1415 1.398 . S
C1416 C1417 1.391 . S
C1417 H1405 0.950 . S
C1417 C1413 1.393 . S
C1417 C1416 1.391 . S
C1418 H1408 0.950 . S
C1418 C1419 1.386 . S
C1418 C1420 1.391 . S
C1419 C1418 1.386 . S
C1419 C1423 1.393 . S
C1420 H1409 0.950 . S
C1420 C1418 1.391 . S
C1420 C1421 1.400 . S
C1421 C1415 1.491 . S
C1421 C1420 1.400 . S
C1421 C1422 1.398 . S
C1422 H1410 0.950 . S
C1422 C1421 1.398 . S
C1422 C1423 1.391 . S
C1423 H1411 0.950 . S
C1423 C1419 1.393 . S
C1423 C1422 1.391 . S
H1424 C1432 0.950 . S
H1425 C1437 0.950 . S
H1426 C1434 0.950 . S
H1427 C1436 0.950 . S
H1428 C1438 0.950 . S
H1429 C1440 0.950 . S
H1430 C1442 0.950 . S
H1431 C1443 0.950 . S
C1432 H1424 0.950 . S
C1432 C1433 1.386 . S
C1432 C1434 1.391 . S
C1433 C1432 1.386 . S
C1433 C1437 1.393 . S
C1434 H1426 0.950 . S
C1434 C1432 1.391 . S
C1434 C1435 1.400 . S
C1435 C1434 1.400 . S
C1435 C1436 1.398 . S
C1435 C1441 1.491 . S
C1436 H1427 0.950 . S
C1436 C1435 1.398 . S
C1436 C1437 1.391 . S
C1437 H1425 0.950 . S
C1437 C1433 1.393 . S
C1437 C1436 1.391 . S
C1438 H1428 0.950 . S
C1438 C1439 1.386 . S
C1438 C1440 1.391 . S
C1439 C1438 1.386 . S
C1439 C1443 1.393 . S
C1440 H1429 0.950 . S
C1440 C1438 1.391 . S
C1440 C1441 1.400 . S
C1441 C1435 1.491 . S
C1441 C1440 1.400 . S
C1441 C1442 1.398 . S
C1442 H1430 0.950 . S
C1442 C1441 1.398 . S
C1442 C1443 1.391 . S
C1443 H1431 0.950 . S
C1443 C1439 1.393 . S
C1443 C1442 1.391 . S
H1444 C1452 0.950 . S
H1445 C1457 0.950 . S
H1446 C1454 0.950 . S
H1447 C1456 0.950 . S
H1448 C1458 0.950 . S
H1449 C1460 0.950 . S
H1450 C1462 0.950 . S
H1451 C1463 0.950 . S
C1452 H1444 0.950 . S
C1452 C1453 1.386 . S
C1452 C1454 1.391 . S
C1453 C1452 1.386 . S
C1453 C1457 1.393 . S
C1454 H1446 0.950 . S
C1454 C1452 1.391 . S
C1454 C1455 1.400 . S
C1455 C1454 1.400 . S
C1455 C1456 1.398 . S
C1455 C1461 1.491 . S
C1456 H1447 0.950 . S
C1456 C1455 1.398 . S
C1456 C1457 1.391 . S
C1457 H1445 0.950 . S
C1457 C1453 1.393 . S
C1457 C1456 1.391 . S
C1458 H1448 0.950 . S
C1458 C1459 1.386 . S
C1458 C1460 1.391 . S
C1459 C1458 1.386 . S
C1459 C1463 1.393 . S
C1460 H1449 0.950 . S
C1460 C1458 1.391 . S
C1460 C1461 1.400 . S
C1461 C1455 1.491 . S
C1461 C1460 1.400 . S
C1461 C1462 1.398 . S
C1462 H1450 0.950 . S
C1462 C1461 1.398 . S
C1462 C1463 1.391 . S
C1463 H1451 0.950 . S
C1463 C1459 1.393 . S
C1463 C1462 1.391 . S
H1464 C1472 0.950 . S
H1465 C1477 0.950 . S
H1466 C1474 0.950 . S
H1467 C1476 0.950 . S
H1468 C1478 0.950 . S
H1469 C1480 0.950 . S
H1470 C1482 0.950 . S
H1471 C1483 0.950 . S
C1472 H1464 0.950 . S
C1472 C1473 1.386 . S
C1472 C1474 1.391 . S
C1473 C1472 1.386 . S
C1473 C1477 1.393 . S
C1474 H1466 0.950 . S
C1474 C1472 1.391 . S
C1474 C1475 1.400 . S
C1475 C1474 1.400 . S
C1475 C1476 1.398 . S
C1475 C1481 1.491 . S
C1476 H1467 0.950 . S
C1476 C1475 1.398 . S
C1476 C1477 1.391 . S
C1477 H1465 0.950 . S
C1477 C1473 1.393 . S
C1477 C1476 1.391 . S
C1478 H1468 0.950 . S
C1478 C1479 1.386 . S
C1478 C1480 1.391 . S
C1479 C1478 1.386 . S
C1479 C1483 1.393 . S
C1480 H1469 0.950 . S
C1480 C1478 1.391 . S
C1480 C1481 1.400 . S
C1481 C1475 1.491 . S
C1481 C1480 1.400 . S
C1481 C1482 1.398 . S
C1482 H1470 0.950 . S
C1482 C1481 1.398 . S
C1482 C1483 1.391 . S
C1483 H1471 0.950 . S
C1483 C1479 1.393 . S
C1483 C1482 1.391 . S
H1484 C1492 0.950 . S
H1485 C1497 0.950 . S
H1486 C1494 0.950 . S
H1487 C1496 0.950 . S
H1488 C1498 0.950 . S
H1489 C1500 0.950 . S
H1490 C1502 0.950 . S
H1491 C1503 0.950 . S
C1492 H1484 0.950 . S
C1492 C1493 1.386 . S
C1492 C1494 1.391 . S
C1493 C1492 1.386 . S
C1493 C1497 1.393 . S
C1494 H1486 0.950 . S
C1494 C1492 1.391 . S
C1494 C1495 1.400 . S
C1495 C1494 1.400 . S
C1495 C1496 1.398 . S
C1495 C1501 1.491 . S
C1496 H1487 0.950 . S
C1496 C1495 1.398 . S
C1496 C1497 1.391 . S
C1497 H1485 0.950 . S
C1497 C1493 1.393 . S
C1497 C1496 1.391 . S
C1498 H1488 0.950 . S
C1498 C1499 1.386 . S
C1498 C1500 1.391 . S
C1499 C1498 1.386 . S
C1499 C1503 1.393 . S
C1500 H1489 0.950 . S
C1500 C1498 1.391 . S
C1500 C1501 1.400 . S
C1501 C1495 1.491 . S
C1501 C1500 1.400 . S
C1501 C1502 1.398 . S
C1502 H1490 0.950 . S
C1502 C1501 1.398 . S
C1502 C1503 1.391 . S
C1503 H1491 0.950 . S
C1503 C1499 1.393 . S
C1503 C1502 1.391 . S
H1504 C1512 0.950 . S
H1505 C1517 0.950 . S
H1506 C1514 0.950 . S
H1507 C1516 0.950 . S
H1508 C1518 0.950 . S
H1509 C1520 0.950 . S
H1510 C1522 0.950 . S
H1511 C1523 0.950 . S
C1512 H1504 0.950 . S
C1512 C1513 1.386 . S
C1512 C1514 1.391 . S
C1513 C1512 1.386 . S
C1513 C1517 1.393 . S
C1514 H1506 0.950 . S
C1514 C1512 1.391 . S
C1514 C1515 1.400 . S
C1515 C1514 1.400 . S
C1515 C1516 1.398 . S
C1515 C1521 1.491 . S
C1516 H1507 0.950 . S
C1516 C1515 1.398 . S
C1516 C1517 1.391 . S
C1517 H1505 0.950 . S
C1517 C1513 1.393 . S
C1517 C1516 1.391 . S
C1518 H1508 0.950 . S
C1518 C1519 1.386 . S
C1518 C1520 1.391 . S
C1519 C1518 1.386 . S
C1519 C1523 1.393 . S
C1520 H1509 0.950 . S
C1520 C1518 1.391 . S
C1520 C1521 1.400 . S
C1521 C1515 1.491 . S
C1521 C1520 1.400 . S
C1521 C1522 1.398 . S
C1522 H1510 0.950 . S
C1522 C1521 1.398 . S
C1522 C1523 1.391 . S
C1523 H1511 0.950 . S
C1523 C1519 1.393 . S
C1523 C1522 1.391 . S
H1524 C1532 0.950 . S
H1525 C1537 0.950 . S
H1526 C1534 0.950 . S
H1527 C1536 0.950 . S
H1528 C1538 0.950 . S
H1529 C1540 0.950 . S
H1530 C1542 0.950 . S
H1531 C1543 0.950 . S
C1532 H1524 0.950 . S
C1532 C1533 1.386 . S
C1532 C1534 1.391 . S
C1533 C1532 1.386 . S
C1533 C1537 1.393 . S
C1534 H1526 0.950 . S
C1534 C1532 1.391 . S
C1534 C1535 1.400 . S
C1535 C1534 1.400 . S
C1535 C1536 1.398 . S
C1535 C1541 1.491 . S
C1536 H1527 0.950 . S
C1536 C1535 1.398 . S
C1536 C1537 1.391 . S
C1537 H1525 0.950 . S
C1537 C1533 1.393 . S
C1537 C1536 1.391 . S
C1538 H1528 0.950 . S
C1538 C1539 1.386 . S
C1538 C1540 1.391 . S
C1539 C1538 1.386 . S
C1539 C1543 1.393 . S
C1540 H1529 0.950 . S
C1540 C1538 1.391 . S
C1540 C1541 1.400 . S
C1541 C1535 1.491 . S
C1541 C1540 1.400 . S
C1541 C1542 1.398 . S
C1542 H1530 0.950 . S
C1542 C1541 1.398 . S
C1542 C1543 1.391 . S
C1543 H1531 0.950 . S
C1543 C1539 1.393 . S
C1543 C1542 1.391 . S
H1544 C1552 0.950 . S
H1545 C1557 0.950 . S
H1546 C1554 0.950 . S
H1547 C1556 0.950 . S
H1548 C1558 0.950 . S
H1549 C1560 0.950 . S
H1550 C1562 0.950 . S
H1551 C1563 0.950 . S
C1552 H1544 0.950 . S
C1552 C1553 1.386 . S
C1552 C1554 1.391 . S
C1553 C1552 1.386 . S
C1553 C1557 1.393 . S
C1554 H1546 0.950 . S
C1554 C1552 1.391 . S
C1554 C1555 1.400 . S
C1555 C1554 1.400 . S
C1555 C1556 1.398 . S
C1555 C1561 1.491 . S
C1556 H1547 0.950 . S
C1556 C1555 1.398 . S
C1556 C1557 1.391 . S
C1557 H1545 0.950 . S
C1557 C1553 1.393 . S
C1557 C1556 1.391 . S
C1558 H1548 0.950 . S
C1558 C1559 1.386 . S
C1558 C1560 1.391 . S
C1559 C1558 1.386 . S
C1559 C1563 1.393 . S
C1560 H1549 0.950 . S
C1560 C1558 1.391 . S
C1560 C1561 1.400 . S
C1561 C1555 1.491 . S
C1561 C1560 1.400 . S
C1561 C1562 1.398 . S
C1562 H1550 0.950 . S
C1562 C1561 1.398 . S
C1562 C1563 1.391 . S
C1563 H1551 0.950 . S
C1563 C1559 1.393 . S
C1563 C1562 1.391 . S
H1564 C1572 0.950 . S
H1565 C1577 0.950 . S
H1566 C1574 0.950 . S
H1567 C1576 0.950 . S
H1568 C1578 0.950 . S
H1569 C1580 0.950 . S
H1570 C1582 0.950 . S
H1571 C1583 0.950 . S
C1572 H1564 0.950 . S
C1572 C1573 1.386 . S
C1572 C1574 1.391 . S
C1573 C1572 1.386 . S
C1573 C1577 1.393 . S
C1574 H1566 0.950 . S
C1574 C1572 1.391 . S
C1574 C1575 1.400 . S
C1575 C1574 1.400 . S
C1575 C1576 1.398 . S
C1575 C1581 1.491 . S
C1576 H1567 0.950 . S
C1576 C1575 1.398 . S
C1576 C1577 1.391 . S
C1577 H1565 0.950 . S
C1577 C1573 1.393 . S
C1577 C1576 1.391 . S
C1578 H1568 0.950 . S
C1578 C1579 1.386 . S
C1578 C1580 1.391 . S
C1579 C1578 1.386 . S
C1579 C1583 1.393 . S
C1580 H1569 0.950 . S
C1580 C1578 1.391 . S
C1580 C1581 1.400 . S
C1581 C1575 1.491 . S
C1581 C1580 1.400 . S
C1581 C1582 1.398 . S
C1582 H1570 0.950 . S
C1582 C1581 1.398 . S
C1582 C1583 1.391 . S
C1583 H1571 0.950 . S
C1583 C1579 1.393 . S
C1583 C1582 1.391 . S
H1584 C1592 0.950 . S
H1585 C1597 0.950 . S
H1586 C1594 0.950 . S
H1587 C1596 0.950 . S
H1588 C1598 0.950 . S
H1589 C1600 0.950 . S
H1590 C1602 0.950 . S
H1591 C1603 0.950 . S
C1592 H1584 0.950 . S
C1592 C1593 1.386 . S
C1592 C1594 1.391 . S
C1593 C1592 1.386 . S
C1593 C1597 1.393 . S
C1594 H1586 0.950 . S
C1594 C1592 1.391 . S
C1594 C1595 1.400 . S
C1595 C1594 1.400 . S
C1595 C1596 1.398 . S
C1595 C1601 1.491 . S
C1596 H1587 0.950 . S
C1596 C1595 1.398 . S
C1596 C1597 1.391 . S
C1597 H1585 0.950 . S
C1597 C1593 1.393 . S
C1597 C1596 1.391 . S
C1598 H1588 0.950 . S
C1598 C1599 1.386 . S
C1598 C1600 1.391 . S
C1599 C1598 1.386 . S
C1599 C1603 1.393 . S
C1600 H1589 0.950 . S
C1600 C1598 1.391 . S
C1600 C1601 1.400 . S
C1601 C1595 1.491 . S
C1601 C1600 1.400 . S
C1601 C1602 1.398 . S
C1602 H1590 0.950 . S
C1602 C1601 1.398 . S
C1602 C1603 1.391 . S
C1603 H1591 0.950 . S
C1603 C1599 1.393 . S
C1603 C1602 1.391 . S
H1604 C1612 0.950 . S
H1605 C1617 0.950 . S
H1606 C1614 0.950 . S
H1607 C1616 0.950 . S
H1608 C1618 0.950 . S
H1609 C1620 0.950 . S
H1610 C1622 0.950 . S
H1611 C1623 0.950 . S
C1612 H1604 0.950 . S
C1612 C1613 1.386 . S
C1612 C1614 1.391 . S
C1613 C1612 1.386 . S
C1613 C1617 1.393 . S
C1614 H1606 0.950 . S
C1614 C1612 1.391 . S
C1614 C1615 1.400 . S
C1615 C1614 1.400 . S
C1615 C1616 1.398 . S
C1615 C1621 1.491 . S
C1616 H1607 0.950 . S
C1616 C1615 1.398 . S
C1616 C1617 1.391 . S
C1617 H1605 0.950 . S
C1617 C1613 1.393 . S
C1617 C1616 1.391 . S
C1618 H1608 0.950 . S
C1618 C1619 1.386 . S
C1618 C1620 1.391 . S
C1619 C1618 1.386 . S
C1619 C1623 1.393 . S
C1620 H1609 0.950 . S
C1620 C1618 1.391 . S
C1620 C1621 1.400 . S
C1621 C1615 1.491 . S
C1621 C1620 1.400 . S
C1621 C1622 1.398 . S
C1622 H1610 0.950 . S
C1622 C1621 1.398 . S
C1622 C1623 1.391 . S
C1623 H1611 0.950 . S
C1623 C1619 1.393 . S
C1623 C1622 1.391 . S
H1624 C1632 0.950 . S
H1625 C1637 0.950 . S
H1626 C1634 0.950 . S
H1627 C1636 0.950 . S
H1628 C1638 0.950 . S
H1629 C1640 0.950 . S
H1630 C1642 0.950 . S
H1631 C1643 0.950 . S
C1632 H1624 0.950 . S
C1632 C1633 1.386 . S
C1632 C1634 1.391 . S
C1633 C1632 1.386 . S
C1633 C1637 1.393 . S
C1634 H1626 0.950 . S
C1634 C1632 1.391 . S
C1634 C1635 1.400 . S
C1635 C1634 1.400 . S
C1635 C1636 1.398 . S
C1635 C1641 1.491 . S
C1636 H1627 0.950 . S
C1636 C1635 1.398 . S
C1636 C1637 1.391 . S
C1637 H1625 0.950 . S
C1637 C1633 1.393 . S
C1637 C1636 1.391 . S
C1638 H1628 0.950 . S
C1638 C1639 1.386 . S
C1638 C1640 1.391 . S
C1639 C1638 1.386 . S
C1639 C1643 1.393 . S
C1640 H1629 0.950 . S
C1640 C1638 1.391 . S
C1640 C1641 1.400 . S
C1641 C1635 1.491 . S
C1641 C1640 1.400 . S
C1641 C1642 1.398 . S
C1642 H1630 0.950 . S
C1642 C1641 1.398 . S
C1642 C1643 1.391 . S
C1643 H1631 0.950 . S
C1643 C1639 1.393 . S
C1643 C1642 1.391 . S
H1644 C1652 0.950 . S
H1645 C1657 0.950 . S
H1646 C1654 0.950 . S
H1647 C1656 0.950 . S
H1648 C1658 0.950 . S
H1649 C1660 0.950 . S
H1650 C1662 0.950 . S
H1651 C1663 0.950 . S
C1652 H1644 0.950 . S
C1652 C1653 1.386 . S
C1652 C1654 1.391 . S
C1653 C1652 1.386 . S
C1653 C1657 1.393 . S
C1654 H1646 0.950 . S
C1654 C1652 1.391 . S
C1654 C1655 1.400 . S
C1655 C1654 1.400 . S
C1655 C1656 1.398 . S
C1655 C1661 1.491 . S
C1656 H1647 0.950 . S
C1656 C1655 1.398 . S
C1656 C1657 1.391 . S
C1657 H1645 0.950 . S
C1657 C1653 1.393 . S
C1657 C1656 1.391 . S
C1658 H1648 0.950 . S
C1658 C1659 1.386 . S
C1658 C1660 1.391 . S
C1659 C1658 1.386 . S
C1659 C1663 1.393 . S
C1660 H1649 0.950 . S
C1660 C1658 1.391 . S
C1660 C1661 1.400 . S
C1661 C1655 1.491 . S
C1661 C1660 1.400 . S
C1661 C1662 1.398 . S
C1662 H1650 0.950 . S
C1662 C1661 1.398 . S
C1662 C1663 1.391 . S
C1663 H1651 0.950 . S
C1663 C1659 1.393 . S
C1663 C1662 1.391 . S
H1664 C1672 0.950 . S
H1665 C1677 0.950 . S
H1666 C1674 0.950 . S
H1667 C1676 0.950 . S
H1668 C1678 0.950 . S
H1669 C1680 0.950 . S
H1670 C1682 0.950 . S
H1671 C1683 0.950 . S
C1672 H1664 0.950 . S
C1672 C1673 1.386 . S
C1672 C1674 1.391 . S
C1673 C1672 1.386 . S
C1673 C1677 1.393 . S
C1674 H1666 0.950 . S
C1674 C1672 1.391 . S
C1674 C1675 1.400 . S
C1675 C1674 1.400 . S
C1675 C1676 1.398 . S
C1675 C1681 1.491 . S
C1676 H1667 0.950 . S
C1676 C1675 1.398 . S
C1676 C1677 1.391 . S
C1677 H1665 0.950 . S
C1677 C1673 1.393 . S
C1677 C1676 1.391 . S
C1678 H1668 0.950 . S
C1678 C1679 1.386 . S
C1678 C1680 1.391 . S
C1679 C1678 1.386 . S
C1679 C1683 1.393 . S
C1680 H1669 0.950 . S
C1680 C1678 1.391 . S
C1680 C1681 1.400 . S
C1681 C1675 1.491 . S
C1681 C1680 1.400 . S
C1681 C1682 1.398 . S
C1682 H1670 0.950 . S
C1682 C1681 1.398 . S
C1682 C1683 1.391 . S
C1683 H1671 0.950 . S
C1683 C1679 1.393 . S
C1683 C1682 1.391 . S
H1684 C1692 0.950 . S
H1685 C1697 0.950 . S
H1686 C1694 0.950 . S
H1687 C1696 0.950 . S
H1688 C1698 0.950 . S
H1689 C1700 0.950 . S
H1690 C1702 0.950 . S
H1691 C1703 0.950 . S
C1692 H1684 0.950 . S
C1692 C1693 1.386 . S
C1692 C1694 1.391 . S
C1693 C1692 1.386 . S
C1693 C1697 1.393 . S
C1694 H1686 0.950 . S
C1694 C1692 1.391 . S
C1694 C1695 1.400 . S
C1695 C1694 1.400 . S
C1695 C1696 1.398 . S
C1695 C1701 1.491 . S
C1696 H1687 0.950 . S
C1696 C1695 1.398 . S
C1696 C1697 1.391 . S
C1697 H1685 0.950 . S
C1697 C1693 1.393 . S
C1697 C1696 1.391 . S
C1698 H1688 0.950 . S
C1698 C1699 1.386 . S
C1698 C1700 1.391 . S
C1699 C1698 1.386 . S
C1699 C1703 1.393 . S
C1700 H1689 0.950 . S
C1700 C1698 1.391 . S
C1700 C1701 1.400 . S
C1701 C1695 1.491 . S
C1701 C1700 1.400 . S
C1701 C1702 1.398 . S
C1702 H1690 0.950 . S
C1702 C1701 1.398 . S
C1702 C1703 1.391 . S
C1703 H1691 0.950 . S
C1703 C1699 1.393 . S
C1703 C1702 1.391 . S
H1704 C1712 0.950 . S
H1705 C1717 0.950 . S
H1706 C1714 0.950 . S
H1707 C1716 0.950 . S
H1708 C1718 0.950 . S
H1709 C1720 0.950 . S
H1710 C1722 0.950 . S
H1711 C1723 0.950 . S
C1712 H1704 0.950 . S
C1712 C1713 1.386 . S
C1712 C1714 1.391 . S
C1713 C1712 1.386 . S
C1713 C1717 1.393 . S
C1714 H1706 0.950 . S
C1714 C1712 1.391 . S
C1714 C1715 1.400 . S
C1715 C1714 1.400 . S
C1715 C1716 1.398 . S
C1715 C1721 1.491 . S
C1716 H1707 0.950 . S
C1716 C1715 1.398 . S
C1716 C1717 1.391 . S
C1717 H1705 0.950 . S
C1717 C1713 1.393 . S
C1717 C1716 1.391 . S
C1718 H1708 0.950 . S
C1718 C1719 1.386 . S
C1718 C1720 1.391 . S
C1719 C1718 1.386 . S
C1719 C1723 1.393 . S
C1720 H1709 0.950 . S
C1720 C1718 1.391 . S
C1720 C1721 1.400 . S
C1721 C1715 1.491 . S
C1721 C1720 1.400 . S
C1721 C1722 1.398 . S
C1722 H1710 0.950 . S
C1722 C1721 1.398 . S
C1722 C1723 1.391 . S
C1723 H1711 0.950 . S
C1723 C1719 1.393 . S
C1723 C1722 1.391 . S
H1724 C1732 0.950 . S
H1725 C1737 0.950 . S
H1726 C1734 0.950 . S
H1727 C1736 0.950 . S
H1728 C1738 0.950 . S
H1729 C1740 0.950 . S
H1730 C1742 0.950 . S
H1731 C1743 0.950 . S
C1732 H1724 0.950 . S
C1732 C1733 1.386 . S
C1732 C1734 1.391 . S
C1733 C1732 1.386 . S
C1733 C1737 1.393 . S
C1734 H1726 0.950 . S
C1734 C1732 1.391 . S
C1734 C1735 1.400 . S
C1735 C1734 1.400 . S
C1735 C1736 1.398 . S
C1735 C1741 1.491 . S
C1736 H1727 0.950 . S
C1736 C1735 1.398 . S
C1736 C1737 1.391 . S
C1737 H1725 0.950 . S
C1737 C1733 1.393 . S
C1737 C1736 1.391 . S
C1738 H1728 0.950 . S
C1738 C1739 1.386 . S
C1738 C1740 1.391 . S
C1739 C1738 1.386 . S
C1739 C1743 1.393 . S
C1740 H1729 0.950 . S
C1740 C1738 1.391 . S
C1740 C1741 1.400 . S
C1741 C1735 1.491 . S
C1741 C1740 1.400 . S
C1741 C1742 1.398 . S
C1742 H1730 0.950 . S
C1742 C1741 1.398 . S
C1742 C1743 1.391 . S
C1743 H1731 0.950 . S
C1743 C1739 1.393 . S
C1743 C1742 1.391 . S
H1744 C1752 0.950 . S
H1745 C1757 0.950 . S
H1746 C1754 0.950 . S
H1747 C1756 0.950 . S
H1748 C1758 0.950 . S
H1749 C1760 0.950 . S
H1750 C1762 0.950 . S
H1751 C1763 0.950 . S
C1752 H1744 0.950 . S
C1752 C1753 1.386 . S
C1752 C1754 1.391 . S
C1753 C1752 1.386 . S
C1753 C1757 1.393 . S
C1754 H1746 0.950 . S
C1754 C1752 1.391 . S
C1754 C1755 1.400 . S
C1755 C1754 1.400 . S
C1755 C1756 1.398 . S
C1755 C1761 1.491 . S
C1756 H1747 0.950 . S
C1756 C1755 1.398 . S
C1756 C1757 1.391 . S
C1757 H1745 0.950 . S
C1757 C1753 1.393 . S
C1757 C1756 1.391 . S
C1758 H1748 0.950 . S
C1758 C1759 1.386 . S
C1758 C1760 1.391 . S
C1759 C1758 1.386 . S
C1759 C1763 1.393 . S
C1760 H1749 0.950 . S
C1760 C1758 1.391 . S
C1760 C1761 1.400 . S
C1761 C1755 1.491 . S
C1761 C1760 1.400 . S
C1761 C1762 1.398 . S
C1762 H1750 0.950 . S
C1762 C1761 1.398 . S
C1762 C1763 1.391 . S
C1763 H1751 0.950 . S
C1763 C1759 1.393 . S
C1763 C1762 1.391 . S
H1764 C1772 0.950 . S
H1765 C1777 0.950 . S
H1766 C1774 0.950 . S
H1767 C1776 0.950 . S
H1768 C1778 0.950 . S
H1769 C1780 0.950 . S
H1770 C1782 0.950 . S
H1771 C1783 0.950 . S
C1772 H1764 0.950 . S
C1772 C1773 1.386 . S
C1772 C1774 1.391 . S
C1773 C1772 1.386 . S
C1773 C1777 1.393 . S
C1774 H1766 0.950 . S
C1774 C1772 1.391 . S
C1774 C1775 1.400 . S
C1775 C1774 1.400 . S
C1775 C1776 1.398 . S
C1775 C1781 1.491 . S
C1776 H1767 0.950 . S
C1776 C1775 1.398 . S
C1776 C1777 1.391 . S
C1777 H1765 0.950 . S
C1777 C1773 1.393 . S
C1777 C1776 1.391 . S
C1778 H1768 0.950 . S
C1778 C1779 1.386 . S
C1778 C1780 1.391 . S
C1779 C1778 1.386 . S
C1779 C1783 1.393 . S
C1780 H1769 0.950 . S
C1780 C1778 1.391 . S
C1780 C1781 1.400 . S
C1781 C1775 1.491 . S
C1781 C1780 1.400 . S
C1781 C1782 1.398 . S
C1782 H1770 0.950 . S
C1782 C1781 1.398 . S
C1782 C1783 1.391 . S
C1783 H1771 0.950 . S
C1783 C1779 1.393 . S
C1783 C1782 1.391 . S
H1784 C1792 0.950 . S
H1785 C1797 0.950 . S
H1786 C1794 0.950 . S
H1787 C1796 0.950 . S
H1788 C1798 0.950 . S
H1789 C1800 0.950 . S
H1790 C1802 0.950 . S
H1791 C1803 0.950 . S
C1792 H1784 0.950 . S
C1792 C1793 1.386 . S
C1792 C1794 1.391 . S
C1793 C1792 1.386 . S
C1793 C1797 1.393 . S
C1794 H1786 0.950 . S
C1794 C1792 1.391 . S
C1794 C1795 1.400 . S
C1795 C1794 1.400 . S
C1795 C1796 1.398 . S
C1795 C1801 1.491 . S
C1796 H1787 0.950 . S
C1796 C1795 1.398 . S
C1796 C1797 1.391 . S
C1797 H1785 0.950 . S
C1797 C1793 1.393 . S
C1797 C1796 1.391 . S
C1798 H1788 0.950 . S
C1798 C1799 1.386 . S
C1798 C1800 1.391 . S
C1799 C1798 1.386 . S
C1799 C1803 1.393 . S
C1800 H1789 0.950 . S
C1800 C1798 1.391 . S
C1800 C1801 1.400 . S
C1801 C1795 1.491 . S
C1801 C1800 1.400 . S
C1801 C1802 1.398 . S
C1802 H1790 0.950 . S
C1802 C1801 1.398 . S
C1802 C1803 1.391 . S
C1803 H1791 0.950 . S
C1803 C1799 1.393 . S
C1803 C1802 1.391 . S
H1804 C1812 0.950 . S
H1805 C1817 0.950 . S
H1806 C1814 0.950 . S
H1807 C1816 0.950 . S
H1808 C1818 0.950 . S
H1809 C1820 0.950 . S
H1810 C1822 0.950 . S
H1811 C1823 0.950 . S
C1812 H1804 0.950 . S
C1812 C1813 1.386 . S
C1812 C1814 1.391 . S
C1813 C1812 1.386 . S
C1813 C1817 1.393 . S
C1814 H1806 0.950 . S
C1814 C1812 1.391 . S
C1814 C1815 1.400 . S
C1815 C1814 1.400 . S
C1815 C1816 1.398 . S
C1815 C1821 1.491 . S
C1816 H1807 0.950 . S
C1816 C1815 1.398 . S
C1816 C1817 1.391 . S
C1817 H1805 0.950 . S
C1817 C1813 1.393 . S
C1817 C1816 1.391 . S
C1818 H1808 0.950 . S
C1818 C1819 1.386 . S
C1818 C1820 1.391 . S
C1819 C1818 1.386 . S
C1819 C1823 1.393 . S
C1820 H1809 0.950 . S
C1820 C1818 1.391 . S
C1820 C1821 1.400 . S
C1821 C1815 1.491 . S
C1821 C1820 1.400 . S
C1821 C1822 1.398 . S
C1822 H1810 0.950 . S
C1822 C1821 1.398 . S
C1822 C1823 1.391 . S
C1823 H1811 0.950 . S
C1823 C1819 1.393 . S
C1823 C1822 1.391 . S
C879 C689 1.657 . S
C873 C74 1.632 . S
C899 C694 1.241 . S
C893 C153 1.173 . S
C919 C695 1.602 . S
C913 C231 1.572 . S
C933 C310 0.860 . S
C939 C699 0.629 . S
C953 C394 1.207 . S
C959 C702 1.262 . S
C979 C703 1.593 . S
C973 C494 1.580 . S
C993 C573 0.787 . S
C999 C680 0.569 . S
C1013 C651 1.634 . S
C1019 C696 1.646 . S
C1039 C734 2.364 . S
C1033 C56 2.445 . S
C1053 C151 1.577 . S
C1059 C760 1.552 . S
C1079 C712 1.244 . S
C1073 C237 1.213 . S
C1099 C767 1.543 . S
C1093 C326 1.531 . S
C1113 C410 1.561 . S
C1119 C721 1.555 . S
C1139 C763 2.339 . S
C1133 C476 2.432 . S
C1153 C571 1.596 . S
C1159 C727 1.569 . S
C1173 C657 1.174 . S
C1179 C758 1.248 . S
C1193 C58 1.201 . S
C1199 C766 1.228 . S
C1213 C392 1.581 . S
C1219 C753 1.539 . S
C1239 C731 1.253 . S
C1233 C478 1.209 . S
C1259 C759 1.557 . S
C1253 C567 1.541 . S
C1273 C655 2.446 . S
C1279 C726 2.352 . S
C1293 C235 2.432 . S
C1299 C744 2.340 . S
C1319 C735 1.573 . S
C1313 C308 1.599 . S
C1333 C147 1.571 . S
C1339 C728 1.558 . S
C1353 C662 1.613 . S
C1359 C790 1.593 . S
C1373 C405 1.165 . S
C1379 C785 1.227 . S
C1399 C799 1.530 . S
C1393 C483 1.558 . S
C1419 C776 0.421 . S
C1413 C562 0.849 . S
C1433 C142 1.174 . S
C1439 C792 1.216 . S
C1459 C791 1.518 . S
C1453 C242 1.548 . S
C1473 C321 0.872 . S
C1479 C795 0.430 . S
C1493 C63 1.610 . S
C1499 C798 1.593 . S
C1513 C644 2.455 . S
C1519 C824 2.404 . S
C1539 C840 1.496 . S
C1533 C403 1.586 . S
C1553 C489 1.219 . S
C1559 C822 1.273 . S
C1573 C578 1.546 . S
C1579 C855 1.566 . S
C1599 C831 1.537 . S
C1593 C158 1.545 . S
C1613 C224 2.467 . S
C1619 C849 2.403 . S
C1639 C827 1.488 . S
C1633 C319 1.577 . S
C1659 C862 1.276 . S
C1653 C69 1.187 . S
C1679 C854 1.274 . S
C1673 C646 1.189 . S
C1693 C140 1.585 . S
C1699 C859 1.496 . S
C1713 C226 1.178 . S
C1719 C830 1.257 . S
C1739 C863 1.568 . S
C1733 C315 1.546 . S
C1753 C67 2.455 . S
C1759 C817 2.401 . S
C1773 C487 2.465 . S
C1779 C856 2.398 . S
C1799 C808 1.516 . S
C1793 C560 1.584 . S
C1819 C823 1.535 . S
C1813 C399 1.542 . S
