# Generated by pormake.
# Topology gar, (4,6)-cn, num edge types: 1
# Building blocks:
#     Node 0, Type 0, BuildingBlock: GALJAG_clean_sbu_0, # of connection points: 4
#     Node 1, Type 0, BuildingBlock: GALJAG_clean_sbu_0, # of connection points: 4
#     Node 2, Type 0, BuildingBlock: GALJAG_clean_sbu_0, # of connection points: 4
#     Node 3, Type 0, BuildingBlock: GALJAG_clean_sbu_0, # of connection points: 4
#     Node 4, Type 0, BuildingBlock: GALJAG_clean_sbu_0, # of connection points: 4
#     Node 5, Type 0, BuildingBlock: GALJAG_clean_sbu_0, # of connection points: 4
#     Node 6, Type 0, BuildingBlock: GALJAG_clean_sbu_0, # of connection points: 4
#     Node 7, Type 0, BuildingBlock: GALJAG_clean_sbu_0, # of connection points: 4
#     Node 8, Type 0, BuildingBlock: GALJAG_clean_sbu_0, # of connection points: 4
#     Node 9, Type 0, BuildingBlock: GALJAG_clean_sbu_0, # of connection points: 4
#     Node 10, Type 0, BuildingBlock: GALJAG_clean_sbu_0, # of connection points: 4
#     Node 11, Type 0, BuildingBlock: GALJAG_clean_sbu_0, # of connection points: 4
#     Node 12, Type 0, BuildingBlock: GALJAG_clean_sbu_0, # of connection points: 4
#     Node 13, Type 0, BuildingBlock: GALJAG_clean_sbu_0, # of connection points: 4
#     Node 14, Type 0, BuildingBlock: GALJAG_clean_sbu_0, # of connection points: 4
#     Node 15, Type 0, BuildingBlock: GALJAG_clean_sbu_0, # of connection points: 4
#     Node 16, Type 0, BuildingBlock: GALJAG_clean_sbu_0, # of connection points: 4
#     Node 17, Type 0, BuildingBlock: GALJAG_clean_sbu_0, # of connection points: 4
#     Node 18, Type 0, BuildingBlock: GALJAG_clean_sbu_0, # of connection points: 4
#     Node 19, Type 0, BuildingBlock: GALJAG_clean_sbu_0, # of connection points: 4
#     Node 20, Type 0, BuildingBlock: GALJAG_clean_sbu_0, # of connection points: 4
#     Node 21, Type 0, BuildingBlock: GALJAG_clean_sbu_0, # of connection points: 4
#     Node 22, Type 0, BuildingBlock: GALJAG_clean_sbu_0, # of connection points: 4
#     Node 23, Type 0, BuildingBlock: GALJAG_clean_sbu_0, # of connection points: 4
#     Node 24, Type 1, BuildingBlock: BETDAH_clean_sbu_0, # of connection points: 6
#     Node 25, Type 1, BuildingBlock: BETDAH_clean_sbu_0, # of connection points: 6
#     Node 26, Type 1, BuildingBlock: BETDAH_clean_sbu_0, # of connection points: 6
#     Node 27, Type 1, BuildingBlock: BETDAH_clean_sbu_0, # of connection points: 6
#     Node 28, Type 1, BuildingBlock: BETDAH_clean_sbu_0, # of connection points: 6
#     Node 29, Type 1, BuildingBlock: BETDAH_clean_sbu_0, # of connection points: 6
#     Node 30, Type 1, BuildingBlock: BETDAH_clean_sbu_0, # of connection points: 6
#     Node 31, Type 1, BuildingBlock: BETDAH_clean_sbu_0, # of connection points: 6
#     Node 32, Type 1, BuildingBlock: BETDAH_clean_sbu_0, # of connection points: 6
#     Node 33, Type 1, BuildingBlock: BETDAH_clean_sbu_0, # of connection points: 6
#     Node 34, Type 1, BuildingBlock: BETDAH_clean_sbu_0, # of connection points: 6
#     Node 35, Type 1, BuildingBlock: BETDAH_clean_sbu_0, # of connection points: 6
#     Node 36, Type 1, BuildingBlock: BETDAH_clean_sbu_0, # of connection points: 6
#     Node 37, Type 1, BuildingBlock: BETDAH_clean_sbu_0, # of connection points: 6
#     Node 38, Type 1, BuildingBlock: BETDAH_clean_sbu_0, # of connection points: 6
#     Node 39, Type 1, BuildingBlock: BETDAH_clean_sbu_0, # of connection points: 6
#     Edge 40, Type (0, 1), None
#     Edge 41, Type (0, 1), None
#     Edge 42, Type (0, 1), None
#     Edge 43, Type (0, 1), None
#     Edge 44, Type (0, 1), None
#     Edge 45, Type (0, 1), None
#     Edge 46, Type (0, 1), None
#     Edge 47, Type (0, 1), None
#     Edge 48, Type (0, 1), None
#     Edge 49, Type (0, 1), None
#     Edge 50, Type (0, 1), None
#     Edge 51, Type (0, 1), None
#     Edge 52, Type (0, 1), None
#     Edge 53, Type (0, 1), None
#     Edge 54, Type (0, 1), None
#     Edge 55, Type (0, 1), None
#     Edge 56, Type (0, 1), None
#     Edge 57, Type (0, 1), None
#     Edge 58, Type (0, 1), None
#     Edge 59, Type (0, 1), None
#     Edge 60, Type (0, 1), None
#     Edge 61, Type (0, 1), None
#     Edge 62, Type (0, 1), None
#     Edge 63, Type (0, 1), None
#     Edge 64, Type (0, 1), None
#     Edge 65, Type (0, 1), None
#     Edge 66, Type (0, 1), None
#     Edge 67, Type (0, 1), None
#     Edge 68, Type (0, 1), None
#     Edge 69, Type (0, 1), None
#     Edge 70, Type (0, 1), None
#     Edge 71, Type (0, 1), None
#     Edge 72, Type (0, 1), None
#     Edge 73, Type (0, 1), None
#     Edge 74, Type (0, 1), None
#     Edge 75, Type (0, 1), None
#     Edge 76, Type (0, 1), None
#     Edge 77, Type (0, 1), None
#     Edge 78, Type (0, 1), None
#     Edge 79, Type (0, 1), None
#     Edge 80, Type (0, 1), None
#     Edge 81, Type (0, 1), None
#     Edge 82, Type (0, 1), None
#     Edge 83, Type (0, 1), None
#     Edge 84, Type (0, 1), None
#     Edge 85, Type (0, 1), None
#     Edge 86, Type (0, 1), None
#     Edge 87, Type (0, 1), None
#     Edge 88, Type (0, 1), None
#     Edge 89, Type (0, 1), None
#     Edge 90, Type (0, 1), None
#     Edge 91, Type (0, 1), None
#     Edge 92, Type (0, 1), None
#     Edge 93, Type (0, 1), None
#     Edge 94, Type (0, 1), None
#     Edge 95, Type (0, 1), None
#     Edge 96, Type (0, 1), None
#     Edge 97, Type (0, 1), None
#     Edge 98, Type (0, 1), None
#     Edge 99, Type (0, 1), None
#     Edge 100, Type (0, 1), None
#     Edge 101, Type (0, 1), None
#     Edge 102, Type (0, 1), None
#     Edge 103, Type (0, 1), None
#     Edge 104, Type (0, 1), None
#     Edge 105, Type (0, 1), None
#     Edge 106, Type (0, 1), None
#     Edge 107, Type (0, 1), None
#     Edge 108, Type (0, 1), None
#     Edge 109, Type (0, 1), None
#     Edge 110, Type (0, 1), None
#     Edge 111, Type (0, 1), None
#     Edge 112, Type (0, 1), None
#     Edge 113, Type (0, 1), None
#     Edge 114, Type (0, 1), None
#     Edge 115, Type (0, 1), None
#     Edge 116, Type (0, 1), None
#     Edge 117, Type (0, 1), None
#     Edge 118, Type (0, 1), None
#     Edge 119, Type (0, 1), None
#     Edge 120, Type (0, 1), None
#     Edge 121, Type (0, 1), None
#     Edge 122, Type (0, 1), None
#     Edge 123, Type (0, 1), None
#     Edge 124, Type (0, 1), None
#     Edge 125, Type (0, 1), None
#     Edge 126, Type (0, 1), None
#     Edge 127, Type (0, 1), None
#     Edge 128, Type (0, 1), None
#     Edge 129, Type (0, 1), None
#     Edge 130, Type (0, 1), None
#     Edge 131, Type (0, 1), None
#     Edge 132, Type (0, 1), None
#     Edge 133, Type (0, 1), None
#     Edge 134, Type (0, 1), None
#     Edge 135, Type (0, 1), None
# Relax obj value: 0.416
# Max RMSD: 0.425
# Mean RMSD: 0.221
data_MOF--net-gar--node1-GALJAG_clean_sbu_0--node2-BETDAH_clean_sbu_0--edge1-none
_symmetry_space_group_name_H-M    P1
_symmetry_Int_Tables_number       1
_symmetry_cell_setting            triclinic
loop_
_symmetry_equiv_pos_as_xyz
'x, y, z'
_cell_length_a     31.961369
_cell_length_b     25.758261
_cell_length_c     25.93436
_cell_angle_alpha  101.11596
_cell_angle_beta   96.65331
_cell_angle_gamma 101.89031
loop_
_atom_site_label
_atom_site_type_symbol
_atom_site_fract_x
_atom_site_fract_y
_atom_site_fract_z
_atom_type_partial_charge
In0 In 0.23739 0.46651 0.40628 0.0
O1 O 0.26628 0.41065 0.35334 0.0
O2 O 0.30572 0.49065 0.38694 0.0
C3 C 0.18112 0.4649 0.32354 0.0
C4 C 0.22744 0.40623 0.47871 0.0
C5 C 0.21718 0.55122 0.46546 0.0
O6 O 0.21475 0.50309 0.34002 0.0
O7 O 0.1782 0.42572 0.34692 0.0
O8 O 0.25628 0.54863 0.46408 0.0
O9 O 0.18891 0.51197 0.43612 0.0
C10 C 0.30122 0.44477 0.35583 0.0
O11 O 0.25491 0.45106 0.48867 0.0
O12 O 0.2072 0.39042 0.43161 0.0
In13 In 0.07085 0.80106 0.71958 0.0
O14 O 0.0555 0.81519 0.63558 0.0
O15 O 0.10201 0.87557 0.69406 0.0
C16 C 0.09146 0.71576 0.66141 0.0
C17 C 0.1336 0.82312 0.8002 0.0
C18 C 1.0079 0.81925 0.77275 0.0
O19 O 0.05347 0.72356 0.65561 0.0
O20 O 0.11775 0.74807 0.69959 0.0
O21 O 1.03835 0.8558 0.76686 0.0
O22 O 1.00601 0.77162 0.74696 0.0
C23 C 0.08355 0.85961 0.64637 0.0
O24 O 0.12798 0.85687 0.77211 0.0
O25 O 0.10459 0.77913 0.7896 0.0
In26 In 0.73753 0.96655 0.90632 0.0
O27 O 0.76635 0.91061 0.8534 0.0
O28 O 0.80581 0.99064 0.88685 0.0
C29 C 0.68117 0.96481 0.82363 0.0
C30 C 0.7278 0.90626 0.97871 0.0
C31 C 0.71723 1.05117 0.96554 0.0
O32 O 0.7148 1.00301 0.84003 0.0
O33 O 0.6783 0.92566 0.84706 0.0
O34 O 0.75635 1.04867 0.96412 0.0
O35 O 0.68899 1.01187 0.93622 0.0
C36 C 0.80128 0.94472 0.8558 0.0
O37 O 0.75522 0.95114 0.9887 0.0
O38 O 0.70748 0.8905 0.93164 0.0
In39 In 0.57086 0.30091 0.21975 0.0
O40 O 0.55342 0.22349 0.15566 0.0
O41 O 0.61772 0.24792 0.1996 0.0
C42 C 0.58374 0.35951 0.14672 0.0
C43 C 0.5079 0.31925 0.27283 0.0
C44 C 0.63353 0.32276 0.30038 0.0
O45 O 0.55556 0.31521 0.1359 0.0
O46 O 0.60225 0.37541 0.19439 0.0
O47 O 0.62792 0.35664 0.27244 0.0
O48 O 0.60453 0.27875 0.28965 0.0
C49 C 0.5914 0.21565 0.16141 0.0
O50 O 0.53841 0.35576 0.26698 0.0
O51 O 0.50598 0.2716 0.24704 0.0
In52 In 0.22694 0.92654 0.17776 0.0
O53 O 0.23149 0.84585 0.12098 0.0
O54 O 0.18598 0.8408 0.17391 0.0
C55 C 0.21061 1.00535 0.12281 0.0
C56 C 0.16067 0.92653 0.23233 0.0
C57 C 0.3085 0.94497 0.23986 0.0
O58 O 0.20338 0.95554 0.10027 0.0
O59 O 0.23065 1.01581 0.16986 0.0
O60 O 0.27693 0.96242 0.25555 0.0
O61 O 0.30029 0.92026 0.19129 0.0
C62 C 0.20243 0.81558 0.13852 0.0
O63 O 0.19849 0.92835 0.2545 0.0
O64 O 0.15708 0.92661 0.18348 0.0
In65 In 0.58914 0.85493 0.4721 0.0
O66 O 0.61401 0.84895 0.39203 0.0
O67 O 0.6584 0.8554 0.46213 0.0
C68 C 0.50396 0.85288 0.42487 0.0
C69 C 0.60509 0.77032 0.51958 0.0
C70 C 0.62016 0.96477 0.51557 0.0
O71 O 0.53264 0.83793 0.39957 0.0
O72 O 0.51759 0.86623 0.47455 0.0
O73 O 0.5926 0.93472 0.53522 0.0
O74 O 0.6323 0.93986 0.47585 0.0
C75 C 0.65268 0.8522 0.41265 0.0
O76 O 0.6132 0.81942 0.54477 0.0
O77 O 0.58426 0.76289 0.4732 0.0
In78 In 0.72704 0.42668 0.67804 0.0
O79 O 0.73157 0.34592 0.62131 0.0
O80 O 0.68624 0.3409 0.67446 0.0
C81 C 0.71066 0.50545 0.623 0.0
C82 C 0.66069 0.42667 0.73248 0.0
C83 C 0.80861 0.44516 0.74017 0.0
O84 O 0.70343 0.45562 0.6005 0.0
O85 O 0.7307 0.51594 0.67005 0.0
O86 O 0.77703 0.46256 0.75588 0.0
O87 O 0.8004 0.4205 0.69158 0.0
C88 C 0.70264 0.31565 0.63902 0.0
O89 O 0.69852 0.4287 0.75475 0.0
O90 O 0.65711 0.42655 0.68358 0.0
In91 In 0.08921 0.35483 0.97213 0.0
O92 O 0.11324 0.31936 0.0448 0.0
O93 O 0.08428 0.26282 0.97324 0.0
C94 C 0.12032 0.46463 1.01562 0.0
C95 C 0.15269 0.35204 0.9126 0.0
C96 C 1.00401 0.35274 0.92496 0.0
O97 O 0.09267 0.43464 0.0352 0.0
O98 O 0.13249 0.43969 0.97595 0.0
O99 O 1.03268 0.3378 0.89964 0.0
O100 O 1.01767 0.36613 0.97464 0.0
C101 C 0.1051 0.27026 1.01962 0.0
O102 O 0.11404 0.34895 0.89204 0.0
O103 O 0.15842 0.35511 0.96206 0.0
In104 In 0.52641 0.12133 0.39984 0.0
O105 O 0.56866 0.13964 0.34001 0.0
O106 O 0.54216 1.05623 0.34142 0.0
C107 C 0.59558 0.15531 0.4699 0.0
C108 C 0.46852 0.16197 0.35138 0.0
C109 C 0.46921 1.04521 0.42422 0.0
O110 O 0.57387 0.10717 0.45956 0.0
O111 O 0.57931 0.18952 0.45052 0.0
O112 O 0.46503 0.09358 0.43218 0.0
O113 O 0.50514 1.03878 0.4124 0.0
C114 C 0.56623 0.08975 0.32178 0.0
O115 O 0.48568 0.12668 0.32701 0.0
O116 O 0.48292 0.18005 0.40084 0.0
In117 In 0.35014 0.2844 0.53524 0.0
O118 O 0.34122 0.34196 0.61413 0.0
O119 O 0.39423 0.30501 0.61804 0.0
C120 C 0.37428 0.33679 0.45341 0.0
C121 C 0.40834 0.2245 0.53666 0.0
C122 C 0.2682 0.21565 0.52671 0.0
O123 O 0.37537 0.36081 0.50113 0.0
O124 O 0.35522 0.28728 0.44438 0.0
O125 O 0.29638 0.205 0.49862 0.0
O126 O 0.27937 0.26306 0.55626 0.0
C127 C 0.3735 0.33499 0.64325 0.0
O128 O 0.3685 0.20422 0.53376 0.0
O129 O 0.41846 0.27476 0.53866 0.0
In130 In 0.28087 0.11335 0.82935 0.0
O131 O 0.22524 0.13859 0.77125 0.0
O132 O 0.25549 0.0838 0.73131 0.0
C133 C 0.22661 0.11355 0.92227 0.0
C134 C 0.33127 1.02035 0.82002 0.0
C135 C 0.33823 0.22261 0.83432 0.0
O136 O 0.22038 0.07821 0.8785 0.0
O137 O 0.26067 0.14889 0.92081 0.0
O138 O 0.3443 0.19114 0.86554 0.0
O139 O 0.30419 0.1997 0.80111 0.0
C140 C 0.22828 0.11282 0.72548 0.0
O141 O 0.34715 0.07167 0.82912 0.0
O142 O 0.29028 1.0151 0.81575 0.0
In143 In 0.44604 1.05722 1.01914 0.0
O144 O 0.43071 1.02633 0.0891 0.0
O145 O 0.48522 0.09436 0.09881 0.0
C146 C 0.42405 0.9641 0.95125 0.0
C147 C 0.388 0.1183 1.02672 0.0
C148 C 0.52688 0.06666 1.00213 0.0
O149 O 0.42346 0.96511 0.99999 0.0
O150 O 0.4304 1.00952 0.93763 0.0
O151 O 0.50458 0.09803 0.98644 0.0
O152 O 0.5076 1.03142 1.024 0.0
C153 C 0.46335 1.05917 0.11872 0.0
O154 O 0.42811 0.13968 1.03362 0.0
O155 O 0.37775 0.06732 1.00966 0.0
In156 In 0.46523 0.47954 0.10076 0.0
O157 O 0.43765 0.40261 0.13372 0.0
O158 O 0.46009 0.47463 0.19163 0.0
C159 C 0.44189 0.43144 0.99216 0.0
C160 C 0.40737 0.53925 0.1018 0.0
C161 C 0.5464 0.5503 0.10526 0.0
O162 O 0.47526 0.42583 1.02027 0.0
O163 O 0.4202 0.45897 1.01854 0.0
O164 O 0.51542 0.56418 0.12609 0.0
O165 O 0.5383 0.49953 0.08553 0.0
C166 C 0.43926 0.42574 0.18179 0.0
O167 O 0.44741 0.56043 0.11399 0.0
O168 O 0.39679 0.48809 0.08925 0.0
In169 In 0.86754 0.20106 0.12041 0.0
O170 O 0.88185 0.11798 0.08906 0.0
O171 O 0.93155 0.18013 0.14052 0.0
C172 C 0.78569 0.19911 0.13377 0.0
C173 C 0.90117 0.2921 0.18936 0.0
C174 C 0.85648 0.21786 1.02487 0.0
O175 O 0.8043 0.16337 0.14733 0.0
O176 O 0.8091 0.23528 0.11684 0.0
O177 O 0.88827 0.24504 0.05952 0.0
O178 O 0.83244 0.17832 0.03693 0.0
C179 C 0.92157 0.13432 0.10863 0.0
O180 O 0.90942 0.2844 0.14254 0.0
O181 O 0.87892 0.25191 0.20333 0.0
In182 In 0.29974 0.65577 0.24698 0.0
O183 O 0.34217 0.59613 0.23279 0.0
O184 O 0.32486 0.61945 0.30998 0.0
C185 C 0.35663 0.74123 0.23387 0.0
C186 C 0.22416 0.61143 0.18867 0.0
C187 C 0.27228 0.70668 0.32903 0.0
O188 O 0.36831 0.70366 0.25167 0.0
O189 O 0.31699 0.73062 0.21471 0.0
O190 O 0.27517 0.72686 0.28859 0.0
O191 O 0.28607 0.66419 0.3283 0.0
C192 C 0.3485 0.59666 0.28221 0.0
O193 O 0.22936 0.61945 0.23824 0.0
O194 O 0.25809 0.61682 0.16767 0.0
In195 In 0.96461 0.97896 0.60061 0.0
O196 O 0.93719 0.90226 0.63368 0.0
O197 O 0.95997 0.97431 0.69155 0.0
C198 C 0.94181 0.93119 0.49202 0.0
C199 C 0.90682 1.03872 0.60167 0.0
C200 C 1.04389 1.05251 0.60568 0.0
O201 O 0.97539 0.92605 0.52012 0.0
O202 O 0.91971 0.95799 0.51844 0.0
O203 O 1.01154 0.06454 0.62432 0.0
O204 O 1.03851 1.00164 0.58792 0.0
C205 C 0.93906 0.92546 0.68177 0.0
O206 O 0.94684 0.0598 0.61418 0.0
O207 O 0.89618 0.98753 0.589 0.0
In208 In 1.03646 0.15245 0.30501 0.0
O209 O 0.09656 0.1888 0.25619 0.0
O210 O 0.05627 0.11848 0.2131 0.0
C211 C 0.08895 0.15018 0.40753 0.0
C212 C 0.98899 0.24753 0.31569 0.0
C213 C 0.97674 1.04421 0.30122 0.0
O214 O 0.08962 0.1223 0.36177 0.0
O215 O 0.06424 0.1824 0.40225 0.0
O216 O 0.97091 0.07635 0.27059 0.0
O217 O 1.01168 0.06594 0.33321 0.0
C218 C 0.09004 0.15436 0.21187 0.0
O219 O 0.97207 0.19645 0.30041 0.0
O220 O 1.02973 0.25166 0.32611 0.0
In221 In 0.36801 0.70125 0.62062 0.0
O222 O 0.38218 0.61823 0.589 0.0
O223 O 0.43184 0.67997 0.64103 0.0
C224 C 0.28592 0.69886 0.63327 0.0
C225 C 0.40153 0.79212 0.68973 0.0
C226 C 0.35803 0.7192 0.52546 0.0
O227 O 0.30464 0.66349 0.64743 0.0
O228 O 0.30924 0.7347 0.61591 0.0
O229 O 0.3887 0.74725 0.5612 0.0
O230 O 0.33466 0.67835 0.5363 0.0
C231 C 0.42183 0.63431 0.60888 0.0
O232 O 0.41036 0.78422 0.6432 0.0
O233 O 0.37881 0.7521 0.70347 0.0
In234 In 0.53647 0.65251 0.80491 0.0
O235 O 0.47207 0.69646 0.80034 0.0
O236 O 0.52971 0.75167 0.82613 0.0
C237 C 0.47678 0.54423 0.80127 0.0
C238 C 0.59002 0.6544 0.7118 0.0
C239 C 0.58936 0.65093 0.90724 0.0
O240 O 0.47095 0.57631 0.77058 0.0
O241 O 0.51172 0.56603 0.83327 0.0
O242 O 0.59002 0.62295 0.86153 0.0
O243 O 0.56429 0.68272 0.90201 0.0
C244 C 0.48898 0.74753 0.81572 0.0
O245 O 0.59651 0.68888 0.75609 0.0
O246 O 0.55627 0.6185 0.71302 0.0
In247 In 0.79985 0.15575 0.74684 0.0
O248 O 0.84215 0.09579 0.73326 0.0
O249 O 0.82629 0.12174 0.8108 0.0
C250 C 0.85635 0.24141 0.73352 0.0
C251 C 0.72443 0.11088 0.6884 0.0
C252 C 0.77178 0.20605 0.82868 0.0
O253 O 0.86831 0.20357 0.7505 0.0
O254 O 0.81658 0.23093 0.71505 0.0
O255 O 0.77534 0.22683 0.78867 0.0
O256 O 0.78509 0.16319 0.8276 0.0
C257 C 0.84926 0.09777 0.78294 0.0
O258 O 0.72965 0.11837 0.73794 0.0
O259 O 0.75835 0.11693 0.66742 0.0
In260 In 0.84996 0.78418 0.0352 0.0
O261 O 0.86836 0.70407 1.03363 0.0
O262 O 0.91828 0.77469 0.03862 0.0
C263 C 0.76826 0.71514 1.0273 0.0
C264 C 0.87341 0.83491 0.14318 0.0
C265 C 0.87408 0.8366 0.95338 0.0
O266 O 0.79622 0.70452 0.99883 0.0
O267 O 0.77942 0.76266 0.05663 0.0
O268 O 0.87517 0.86061 1.0011 0.0
O269 O 0.85497 0.7871 0.94434 0.0
C270 C 0.90819 0.72442 0.03654 0.0
O271 O 0.84111 0.84188 0.11406 0.0
O272 O 0.8941 0.80487 0.11797 0.0
In273 In 1.02606 0.6207 0.89969 0.0
O274 O 0.98488 0.62523 0.82689 0.0
O275 O 0.98316 0.68007 0.9003 0.0
C276 C 0.96903 0.54518 0.92527 0.0
C277 C 0.06532 0.58947 0.82103 0.0
C278 C 0.09578 0.65389 0.96884 0.0
O279 O 0.96475 0.59346 0.93237 0.0
O280 O 1.00513 0.53878 0.91416 0.0
O281 O 0.07509 0.60525 0.95634 0.0
O282 O 0.07831 0.68864 0.95208 0.0
C283 C 0.96828 0.66128 0.85102 0.0
O284 O 0.06831 0.63939 0.83992 0.0
O285 O 1.04084 0.55587 0.84017 0.0
In286 In 0.9459 0.55753 0.51885 0.0
O287 O 0.92978 0.52662 0.58855 0.0
O288 O 0.98472 0.5942 0.59881 0.0
C289 C 0.92414 0.4643 0.45105 0.0
C290 C 0.888 0.61881 0.52622 0.0
C291 C 1.02684 0.56706 0.50228 0.0
O292 O 0.92341 0.46539 0.49978 0.0
O293 O 0.93051 0.50969 0.43736 0.0
O294 O 1.00455 0.5983 0.4863 0.0
O295 O 1.00754 0.53197 0.5243 0.0
C296 C 0.96241 0.55918 0.61848 0.0
O297 O 0.92816 0.64009 0.53367 0.0
O298 O 0.87769 0.56791 0.50863 0.0
In299 In 0.78078 0.61335 0.32944 0.0
O300 O 0.84709 0.57169 0.329 0.0
O301 O 0.79026 0.51511 0.3158 0.0
C302 C 0.83819 0.72259 0.33426 0.0
C303 C 0.72753 0.61266 0.22601 0.0
C304 C 0.72664 0.61357 0.42238 0.0
O305 O 0.84422 0.69118 0.36557 0.0
O306 O 0.8042 0.6996 0.301 0.0
O307 O 0.72041 0.5782 0.37864 0.0
O308 O 0.76069 0.64892 0.42091 0.0
C309 C 0.83124 0.52037 0.31996 0.0
O310 O 0.72509 0.63889 0.27181 0.0
O311 O 0.75462 0.58341 0.23156 0.0
Ho312 Ho 0.1327 0.10298 0.03728 0.0
Ho313 Ho 0.18342 0.16858 0.09699 0.0
C314 C 0.12281 0.22629 0.03956 0.0
C315 C 0.05264 1.0535 1.00428 0.0
C316 C 1.01821 0.07157 1.03134 0.0
C317 C 1.0278 0.12408 0.06403 0.0
C318 C 0.99695 0.14299 0.09109 0.0
C319 C 0.95522 0.10995 0.08589 0.0
C320 C 0.94558 1.05681 0.05418 0.0
C321 C 0.97749 1.03714 1.02866 0.0
C322 C 0.1977 0.1106 0.9705 0.0
C323 C 0.19299 1.04754 0.09995 0.0
C324 C 0.26385 0.2164 0.12852 0.0
C325 C 0.29673 0.19478 0.10108 0.0
C326 C 0.28423 0.14188 0.0691 0.0
C327 C 0.31333 0.11859 0.04254 0.0
C328 C 0.3562 0.14766 0.04718 0.0
C329 C 0.36871 0.20174 0.07716 0.0
C330 C 0.3387 0.2256 0.1029 0.0
C331 C 0.11826 0.15884 0.16334 0.0
O332 O 0.1119 0.17581 1.01196 0.0
O333 O 0.15233 0.23687 0.08191 0.0
O334 O 0.07367 0.08827 0.98047 0.0
O335 O 0.07901 1.03415 1.03311 0.0
O336 O 0.16966 0.06692 0.97305 0.0
O337 O 0.18992 0.14972 1.00605 0.0
O338 O 0.20349 0.09819 0.12648 0.0
O339 O 0.16424 1.03591 0.05661 0.0
O340 O 0.24238 0.18388 0.15414 0.0
O341 O 0.23791 0.23579 0.09909 0.0
O342 O 0.14561 0.20326 0.16093 0.0
O343 O 0.12675 0.12035 0.12789 0.0
H344 H 0.05942 0.15075 0.06932 0.0
H345 H 1.00558 0.18432 0.1148 0.0
H346 H 0.91356 1.03056 0.04929 0.0
H347 H 0.97033 0.99534 1.0068 0.0
H348 H 0.25165 0.11812 0.06417 0.0
H349 H 0.30236 0.07703 1.01958 0.0
H350 H 0.40172 0.22512 0.08156 0.0
H351 H 0.34839 0.26759 0.12443 0.0
Ho352 Ho 0.43647 0.90682 0.31007 0.0
Ho353 Ho 0.37658 0.89493 0.35472 0.0
C354 C 0.43314 1.00236 0.39678 0.0
C355 C 0.4941 0.92643 0.25106 0.0
C356 C 0.49629 0.96994 0.22406 0.0
C357 C 0.46864 1.00466 0.23606 0.0
C358 C 0.46176 1.04012 0.20484 0.0
C359 C 0.48327 1.04183 0.16185 0.0
C360 C 0.51277 1.00914 0.15068 0.0
C361 C 0.51884 0.97222 0.18163 0.0
C362 C 0.47066 0.87837 0.39925 0.0
C363 C 0.37527 0.79551 0.26426 0.0
C364 C 0.31922 0.86707 0.41041 0.0
C365 C 0.32172 0.82281 0.435 0.0
C366 C 0.34866 0.78879 0.41657 0.0
C367 C 0.35762 0.75044 0.44359 0.0
C368 C 0.33992 0.74662 0.48927 0.0
C369 C 0.31255 0.78008 0.50754 0.0
C370 C 0.30348 0.81855 0.48032 0.0
C371 C 0.34787 0.94555 0.27851 0.0
O372 O 0.42993 0.99088 0.34525 0.0
O373 O 0.42084 0.96094 0.41671 0.0
O374 O 0.50177 0.94319 0.30242 0.0
O375 O 0.45854 0.88874 0.2345 0.0
O376 O 0.4856 0.92141 0.38314 0.0
O377 O 0.43369 0.85466 0.37018 0.0
O378 O 0.35205 0.81664 0.29662 0.0
O379 O 0.41535 0.82016 0.26648 0.0
O380 O 0.3119 0.85281 0.3588 0.0
O381 O 0.35207 0.90829 0.42894 0.0
O382 O 0.34779 0.96066 0.32882 0.0
O383 O 0.36997 0.90973 0.27167 0.0
H384 H 0.44855 1.00036 0.26574 0.0
H385 H 0.4358 0.06069 0.21026 0.0
H386 H 0.52782 1.00843 0.11534 0.0
H387 H 0.53886 0.94391 0.1709 0.0
H388 H 0.36418 0.79305 0.38245 0.0
H389 H 0.38015 0.72632 0.43077 0.0
H390 H 0.29974 0.77857 0.54398 0.0
H391 H 0.2838 0.84582 0.4954 0.0
Ho392 Ho 0.70387 0.14157 0.55196 0.0
Ho393 Ho 0.6199 0.13867 0.60348 0.0
C394 C 0.63532 1.02454 0.53477 0.0
C395 C 0.78425 0.15562 0.54577 0.0
C396 C 0.81532 0.12503 0.55844 0.0
C397 C 0.80138 0.07553 0.57314 0.0
C398 C 0.83162 1.04824 0.5899 0.0
C399 C 0.87574 0.07055 0.59192 0.0
C400 C 0.88955 0.12046 0.57787 0.0
C401 C 0.85925 0.14771 0.5611 0.0
C402 C 0.63931 0.16693 0.49503 0.0
C403 C 0.68856 0.25568 0.62081 0.0
C404 C 0.53855 0.12267 0.60482 0.0
C405 C 0.50565 0.14912 0.58769 0.0
C406 C 0.51674 0.19398 0.56471 0.0
C407 C 0.48448 0.21723 0.54531 0.0
C408 C 0.44115 0.19528 0.5485 0.0
C409 C 0.4302 0.14926 0.56992 0.0
C410 C 0.4625 0.12629 0.58959 0.0
C411 C 0.68356 0.11217 0.66033 0.0
O412 O 0.67563 1.04963 0.53177 0.0
O413 O 0.60851 1.05128 0.55717 0.0
O414 O 0.75386 0.13134 0.50463 0.0
O415 O 0.76974 0.17778 0.58776 0.0
O416 O 0.66738 0.14352 0.4734 0.0
O417 O 0.64881 0.17685 0.54426 0.0
O418 O 0.64838 0.23037 0.62406 0.0
O419 O 0.71545 0.22918 0.59816 0.0
O420 O 0.56745 0.15042 0.64643 0.0
O421 O 0.55519 0.09966 0.56525 0.0
O422 O 0.65432 0.13295 0.68236 0.0
O423 O 0.67505 0.10364 0.61109 0.0
H424 H 0.76724 1.05835 0.57195 0.0
H425 H 0.8206 1.00959 0.60052 0.0
H426 H 0.92356 0.13751 0.5782 0.0
H427 H 0.87 0.18634 0.55035 0.0
H428 H 0.55019 0.21086 0.56194 0.0
H429 H 0.49343 0.25281 0.52885 0.0
H430 H 0.39694 0.13226 0.57328 0.0
H431 H 0.45386 0.09088 0.60637 0.0
Ho432 Ho 0.37709 0.40497 0.81796 0.0
Ho433 Ho 0.43666 0.36172 0.81784 0.0
C434 C 0.43053 0.41215 0.93277 0.0
C435 C 0.30651 0.43603 0.834 0.0
C436 C 0.26658 0.4105 0.85097 0.0
C437 C 0.26734 0.37517 0.8859 0.0
C438 C 0.2294 0.35322 0.9036 0.0
C439 C 0.19006 0.36516 0.8855 0.0
C440 C 0.18898 0.3981 0.84834 0.0
C441 C 0.22711 0.42084 0.83138 0.0
C442 C 0.44527 0.4872 0.80028 0.0
C443 C 0.38448 0.35521 0.70263 0.0
C444 C 0.50659 0.32982 0.80198 0.0
C445 C 0.5461 0.35738 0.78604 0.0
C446 C 0.54399 0.38922 0.74795 0.0
C447 C 0.58183 0.41492 0.73277 0.0
C448 C 0.62222 0.4101 0.75634 0.0
C449 C 0.62438 0.38076 0.79652 0.0
C450 C 0.58645 0.35433 0.81112 0.0
C451 C 0.3688 0.28007 0.83585 0.0
O452 O 0.39122 0.40679 0.90729 0.0
O453 O 0.4599 0.40353 0.90361 0.0
O454 O 0.34161 0.44988 0.86925 0.0
O455 O 0.31297 0.41219 0.78781 0.0
O456 O 0.40574 0.47222 0.77588 0.0
O457 O 0.44785 0.45486 0.83228 0.0
O458 O 0.42342 0.3596 0.72854 0.0
O459 O 0.35498 0.36471 0.73138 0.0
O460 O 0.47163 0.31618 0.76651 0.0
O461 O 0.49981 0.35216 0.84856 0.0
O462 O 0.40804 0.29565 0.86096 0.0
O463 O 0.36626 0.31188 0.80335 0.0
H464 H 0.2974 0.36571 0.90058 0.0
H465 H 0.231 0.32828 0.93266 0.0
H466 H 0.1592 0.40882 0.83478 0.0
H467 H 0.22595 0.44753 0.80392 0.0
H468 H 0.51315 0.39341 0.72917 0.0
H469 H 0.57944 0.43712 0.70146 0.0
H470 H 0.65518 0.37578 0.81464 0.0
H471 H 0.58856 0.33081 0.84136 0.0
Ho472 Ho 0.14891 0.179 0.59465 0.0
Ho473 Ho 0.16994 0.08366 0.53696 0.0
C474 C 0.11325 0.14321 0.4618 0.0
C475 C 0.16249 0.28252 0.62439 0.0
C476 C 0.18234 0.31689 0.5908 0.0
C477 C 0.18874 0.29061 0.54076 0.0
C478 C 0.20505 0.31982 0.50519 0.0
C479 C 0.21646 0.3764 0.51957 0.0
C480 C 0.21229 0.40353 0.5707 0.0
C481 C 0.19488 0.37368 0.60632 0.0
C482 C 0.08263 0.09646 0.6029 0.0
C483 C 0.20391 0.1191 0.67079 0.0
C484 C 0.16412 0.98155 0.50892 0.0
C485 C 0.14351 0.94698 0.54174 0.0
C486 C 0.13421 0.97361 0.58999 0.0
C487 C 0.11231 0.94498 0.62224 0.0
C488 C 0.0983 0.88865 0.60652 0.0
C489 C 0.10565 0.86115 0.55715 0.0
C490 C 0.12831 0.89048 0.52454 0.0
C491 C 0.22714 0.17413 0.52649 0.0
O492 O 0.11642 0.17858 0.50794 0.0
O493 O 0.13085 0.10083 0.4632 0.0
O494 O 0.1242 0.25182 0.60255 0.0
O495 O 0.18797 0.25502 0.64408 0.0
O496 O 0.08733 0.14738 0.62525 0.0
O497 O 0.1146 0.09169 0.57872 0.0
O498 O 0.20623 0.08811 0.62356 0.0
O499 O 0.18114 0.15716 0.67024 0.0
O500 O 0.20074 1.01569 0.5325 0.0
O501 O 0.13722 1.00546 0.48634 0.0
O502 O 0.21498 0.12883 0.49072 0.0
O503 O 0.21075 0.1667 0.56776 0.0
H504 H 0.18067 0.24713 0.5287 0.0
H505 H 0.20819 0.29813 0.46615 0.0
H506 H 0.22052 0.44758 0.58202 0.0
H507 H 0.19052 0.39467 0.64502 0.0
H508 H 0.14345 1.017 0.60298 0.0
H509 H 0.10695 0.96695 0.66007 0.0
H510 H 0.09562 0.81719 0.54504 0.0
H511 H 0.1341 0.86938 0.48664 0.0
Ho512 Ho 0.45134 0.92498 0.8083 0.0
Ho513 Ho 0.37133 0.84226 0.82437 0.0
C514 C 0.46292 0.7965 0.81964 0.0
C515 C 0.51816 1.0006 0.81574 0.0
C516 C 0.55934 0.99388 0.80068 0.0
C517 C 0.56431 0.94095 0.78216 0.0
C518 C 0.60538 0.93158 0.78077 0.0
C519 C 0.64167 0.9752 0.7982 0.0
C520 C 0.63625 1.02887 0.80946 0.0
C521 C 0.59502 1.03812 0.81164 0.0
C522 C 0.41742 0.84451 0.72496 0.0
C523 C 0.35822 0.97193 0.8158 0.0
C524 C 0.2967 0.77897 0.8148 0.0
C525 C 0.25562 0.79355 0.81755 0.0
C526 C 0.24912 0.83995 0.80037 0.0
C527 C 0.21111 0.85635 0.80513 0.0
C528 C 0.17743 0.8235 0.82261 0.0
C529 C 0.18492 0.77916 0.84338 0.0
C530 C 0.2243 0.76447 0.84123 0.0
C531 C 0.41651 0.91502 0.91065 0.0
O532 O 0.48237 0.85043 0.82628 0.0
O533 O 0.41945 0.78395 0.81499 0.0
O534 O 0.48605 0.9883 0.77557 0.0
O535 O 0.50869 0.97909 0.85643 0.0
O536 O 0.45712 0.87146 0.73178 0.0
O537 O 0.3967 0.86718 0.75692 0.0
O538 O 0.34047 0.92052 0.82101 0.0
O539 O 0.40054 0.98197 0.80938 0.0
O540 O 0.32349 0.79556 0.85984 0.0
O541 O 0.31468 0.78876 0.77364 0.0
O542 O 0.39767 0.86622 0.91379 0.0
O543 O 0.40871 0.91985 0.86454 0.0
H544 H 0.53691 0.90635 0.77365 0.0
H545 H 0.60888 0.88992 0.77242 0.0
H546 H 0.6639 0.06319 0.82352 0.0
H547 H 0.59143 0.07909 0.82601 0.0
H548 H 0.27229 0.86206 0.7806 0.0
H549 H 0.20631 0.89062 0.78851 0.0
H550 H 0.15918 0.7532 0.85679 0.0
H551 H 0.22958 0.72925 0.85577 0.0
Ho552 Ho 0.66182 0.09737 0.09301 0.0
Ho553 Ho 0.6521 0.17525 0.03598 0.0
C554 C 0.57367 0.08101 1.01315 0.0
C555 C 0.65033 1.02643 0.14945 0.0
C556 C 0.62585 1.03668 0.19198 0.0
C557 C 0.60811 0.08239 0.19487 0.0
C558 C 0.58955 0.10048 0.238 0.0
C559 C 0.58747 0.07177 0.2782 0.0
C560 C 0.60432 1.0252 0.27545 0.0
C561 C 0.62432 1.008 0.23238 0.0
C562 C 0.70512 0.08622 1.00914 0.0
C563 C 0.73882 0.19012 0.12074 0.0
C564 C 0.66352 0.24714 0.98001 0.0
C565 C 0.69546 0.24609 0.94533 0.0
C566 C 0.71909 0.20639 0.94765 0.0
C567 C 0.745 0.1953 0.91058 0.0
C568 C 0.7478 0.2238 0.87 0.0
C569 C 0.72448 0.26422 0.86732 0.0
C570 C 0.69804 0.27544 0.90534 0.0
C571 C 0.60712 0.18524 0.11765 0.0
O572 O 0.59124 0.07472 0.05922 0.0
O573 O 0.59568 0.11332 0.98782 0.0
O574 O 0.62795 1.01852 0.10209 0.0
O575 O 0.68637 0.06326 0.1567 0.0
O576 O 0.71919 0.08248 0.05628 0.0
O577 O 0.66776 0.09538 1.00798 0.0
O578 O 0.72309 0.19564 0.07322 0.0
O579 O 0.71409 0.1607 0.14588 0.0
O580 O 0.67959 0.25779 1.03053 0.0
O581 O 0.63238 0.20328 0.96589 0.0
O582 O 0.59389 0.18967 0.07048 0.0
O583 O 0.64492 0.17694 0.1204 0.0
H584 H 0.60908 0.10439 0.16373 0.0
H585 H 0.57598 0.13591 0.23928 0.0
H586 H 0.60253 1.00288 0.30682 0.0
H587 H 0.63865 0.97325 0.2308 0.0
H588 H 0.71607 0.18193 0.97689 0.0
H589 H 0.76211 0.16345 0.91338 0.0
H590 H 0.7257 0.28567 0.8353 0.0
H591 H 0.67865 0.30494 0.9024 0.0
Ho592 Ho 0.4377 0.43201 0.35672 0.0
Ho593 Ho 0.37378 0.3304 0.27831 0.0
C594 C 0.33586 0.42727 0.33122 0.0
C595 C 0.48007 0.53021 0.38675 0.0
C596 C 0.46336 0.56972 0.36165 0.0
C597 C 0.45459 0.55759 0.3056 0.0
C598 C 0.41667 0.56532 0.27928 0.0
C599 C 0.38806 0.58721 0.30877 0.0
C600 C 0.40007 0.60688 0.36422 0.0
C601 C 0.43818 0.59964 0.39031 0.0
C602 C 0.40062 0.36364 0.4165 0.0
C603 C 0.47483 0.33509 0.30154 0.0
C604 C 0.33385 0.2314 0.24991 0.0
C605 C 0.35501 0.19347 0.27265 0.0
C606 C 0.36223 0.20077 0.3285 0.0
C607 C 0.39976 0.1917 0.35449 0.0
C608 C 0.42994 0.17373 0.32489 0.0
C609 C 0.42094 0.16155 0.26913 0.0
C610 C 0.38301 0.16944 0.2431 0.0
C611 C 0.41238 0.39862 0.21849 0.0
O612 O 0.37541 0.4586 0.34453 0.0
O613 O 0.32657 0.37656 0.3041 0.0
O614 O 0.45303 0.50754 0.41446 0.0
O615 O 0.4951 0.49417 0.35588 0.0
O616 O 0.43224 0.40611 0.43483 0.0
O617 O 0.39501 0.35639 0.36577 0.0
O618 O 0.43558 0.30334 0.29053 0.0
O619 O 0.48417 0.38601 0.32806 0.0
O620 O 0.35641 0.25565 0.21881 0.0
O621 O 0.31958 0.26588 0.28358 0.0
O622 O 0.38082 0.35597 0.2 0.0
O623 O 0.41736 0.40581 0.26925 0.0
H624 H 0.47429 0.53614 0.28244 0.0
H625 H 0.40903 0.55232 0.23628 0.0
H626 H 0.37942 0.62633 0.38787 0.0
H627 H 0.4443 0.60987 0.43351 0.0
H628 H 0.34109 0.21859 0.3525 0.0
H629 H 0.40556 0.19988 0.39762 0.0
H630 H 0.44437 0.14879 0.2457 0.0
H631 H 0.37869 0.16384 0.20012 0.0
Ho632 Ho 0.64936 0.67853 0.09449 0.0
Ho633 Ho 0.66815 0.58497 0.03802 0.0
C634 C 0.61388 0.64427 0.96143 0.0
C635 C 0.66044 0.78211 0.12265 0.0
C636 C 0.68051 0.81669 0.08935 0.0
C637 C 0.68797 0.79048 0.03986 0.0
C638 C 0.70523 0.8198 1.00489 0.0
C639 C 0.71677 0.87637 1.01949 0.0
C640 C 0.71232 0.90339 0.07053 0.0
C641 C 0.69396 0.87343 0.10555 0.0
C642 C 0.58815 0.59102 0.10468 0.0
C643 C 0.70285 0.61894 0.17156 0.0
C644 C 0.66307 0.48264 1.00969 0.0
C645 C 0.64239 0.44769 0.04201 0.0
C646 C 0.63206 0.47412 0.08964 0.0
C647 C 0.61116 0.4451 0.12232 0.0
C648 C 0.59831 0.38866 0.10695 0.0
C649 C 0.60624 0.36134 0.05782 0.0
C650 C 0.62859 0.39101 1.02524 0.0
C651 C 0.72742 0.67363 1.02785 0.0
O652 O 0.61559 0.67833 1.00813 0.0
O653 O 0.63293 0.60305 0.96242 0.0
O654 O 0.62266 0.75003 0.10064 0.0
O655 O 0.68659 0.75592 0.14293 0.0
O656 O 0.60071 0.63729 0.13928 0.0
O657 O 0.60545 0.59607 0.06328 0.0
O658 O 0.70298 0.5865 0.12451 0.0
O659 O 0.68195 0.65852 0.17069 0.0
O660 O 0.69915 0.5171 1.03406 0.0
O661 O 0.63633 0.50647 0.98699 0.0
O662 O 0.71368 0.62898 0.99144 0.0
O663 O 0.71152 0.66657 0.06949 0.0
H664 H 0.68011 0.74696 1.02777 0.0
H665 H 0.70887 0.79821 0.96604 0.0
H666 H 0.72096 0.94742 0.08215 0.0
H667 H 0.68958 0.89432 0.14428 0.0
H668 H 0.63939 0.51767 0.10146 0.0
H669 H 0.60521 0.4669 0.15988 0.0
H670 H 0.59694 0.31734 0.04595 0.0
H671 H 0.63509 0.37008 0.98768 0.0
Ho672 Ho 0.9513 0.42492 0.30802 0.0
Ho673 Ho 0.87135 0.34231 0.32433 0.0
C674 C 0.96293 0.29651 0.31953 0.0
C675 C 1.01809 0.50057 0.31531 0.0
C676 C 0.05929 0.49392 0.30026 0.0
C677 C 0.0643 0.44101 0.2817 0.0
C678 C 0.10539 0.43168 0.28043 0.0
C679 C 0.14166 0.47531 0.29801 0.0
C680 C 0.13621 0.52897 0.3093 0.0
C681 C 0.09496 0.53818 0.31137 0.0
C682 C 0.91722 0.34443 0.2247 0.0
C683 C 0.8582 0.47194 0.31571 0.0
C684 C 0.79676 0.27894 0.31493 0.0
C685 C 0.75564 0.29341 0.31771 0.0
C686 C 0.74909 0.33986 0.30069 0.0
C687 C 0.71104 0.35614 0.30545 0.0
C688 C 0.67736 0.32312 0.32276 0.0
C689 C 0.68487 0.27868 0.34334 0.0
C690 C 0.72431 0.26412 0.34121 0.0
C691 C 0.91663 0.41516 0.41051 0.0
O692 O 0.98238 0.35043 0.32606 0.0
O693 O 0.91947 0.28398 0.31494 0.0
O694 O 0.98596 0.48817 0.27514 0.0
O695 O 1.00867 0.47911 0.35604 0.0
O696 O 0.95695 0.37128 0.23149 0.0
O697 O 0.89658 0.36714 0.25674 0.0
O698 O 0.84047 0.42055 0.32099 0.0
O699 O 0.9005 0.48194 0.30918 0.0
O700 O 0.82359 0.29564 0.35994 0.0
O701 O 0.81467 0.28874 0.27372 0.0
O702 O 0.89777 0.36639 0.41373 0.0
O703 O 0.90878 0.41991 0.36438 0.0
H704 H 1.0369 0.4064 0.27309 0.0
H705 H 0.10891 0.39003 0.27206 0.0
H706 H 0.16385 0.56329 0.32349 0.0
H707 H 0.09134 0.57913 0.32578 0.0
H708 H 0.77226 0.36211 0.28102 0.0
H709 H 0.70622 0.39048 0.28896 0.0
H710 H 0.65913 0.25257 0.3566 0.0
H711 H 0.7296 0.22883 0.3556 0.0
Ho712 Ho 0.16183 0.59746 0.59298 0.0
Ho713 Ho 0.15218 0.6754 0.53596 0.0
C714 C 0.07363 0.58132 0.51321 0.0
C715 C 0.15017 0.52652 0.64938 0.0
C716 C 0.12543 0.53664 0.69168 0.0
C717 C 0.10759 0.58226 0.6944 0.0
C718 C 0.08885 0.60028 0.73738 0.0
C719 C 0.08665 0.57157 0.77755 0.0
C720 C 0.10363 0.5251 0.77499 0.0
C721 C 0.12383 0.50799 0.73209 0.0
C722 C 0.2051 0.58626 0.5091 0.0
C723 C 0.23903 0.68993 0.62047 0.0
C724 C 0.1637 0.74732 0.48005 0.0
C725 C 0.1958 0.74651 0.44557 0.0
C726 C 0.21964 0.70702 0.44805 0.0
C727 C 0.24565 0.69607 0.41106 0.0
C728 C 0.24829 0.72441 0.37035 0.0
C729 C 0.22477 0.76461 0.36752 0.0
C730 C 0.19828 0.77575 0.40549 0.0
C731 C 0.10721 0.68543 0.61764 0.0
O732 O 0.09124 0.57493 0.55922 0.0
O733 O 0.09564 0.61365 0.48788 0.0
O734 O 0.128 0.51852 0.60188 0.0
O735 O 0.18616 0.56347 0.65689 0.0
O736 O 0.21912 0.58239 0.55621 0.0
O737 O 0.16776 0.5955 0.50795 0.0
O738 O 0.22318 0.69567 0.5731 0.0
O739 O 0.21438 0.6605 0.64568 0.0
O740 O 0.1796 0.758 0.53063 0.0
O741 O 0.13268 0.70336 0.46576 0.0
O742 O 0.09401 0.68993 0.57048 0.0
O743 O 0.145 0.67707 0.62039 0.0
H744 H 0.10866 0.60426 0.66326 0.0
H745 H 0.0752 0.63566 0.73857 0.0
H746 H 0.10179 0.50282 0.80638 0.0
H747 H 0.13827 0.47333 0.73067 0.0
H748 H 0.21661 0.68251 0.47723 0.0
H749 H 0.26288 0.66434 0.41396 0.0
H750 H 0.22587 0.78594 0.3354 0.0
H751 H 0.17873 0.80506 0.40242 0.0
Ho752 Ho 0.87706 0.90495 0.31788 0.0
Ho753 Ho 0.93663 0.8617 0.31774 0.0
C754 C 0.93052 0.91205 0.43264 0.0
C755 C 0.80649 0.93604 0.33397 0.0
C756 C 0.76657 0.91053 0.35095 0.0
C757 C 0.76734 0.87528 0.38597 0.0
C758 C 0.72939 0.85338 0.40369 0.0
C759 C 0.69005 0.86527 0.38554 0.0
C760 C 0.68896 0.89811 0.34829 0.0
C761 C 0.72708 0.92082 0.33131 0.0
C762 C 0.94523 0.98718 0.3002 0.0
C763 C 0.88442 0.85517 0.20255 0.0
C764 C 1.00657 0.8298 0.30192 0.0
C765 C 1.04609 0.85734 0.28596 0.0
C766 C 1.04397 0.88913 0.24783 0.0
C767 C 0.08181 0.9148 0.23263 0.0
C768 C 0.12221 0.90999 0.25622 0.0
C769 C 0.12437 0.88071 0.29645 0.0
C770 C 0.08643 0.85433 0.31108 0.0
C771 C 0.86877 0.78005 0.33578 0.0
O772 O 0.89121 0.90665 0.40717 0.0
O773 O 0.95992 0.90353 0.40349 0.0
O774 O 0.8416 0.94989 0.3692 0.0
O775 O 0.81293 0.91218 0.28777 0.0
O776 O 0.9057 0.97221 0.27581 0.0
O777 O 0.94781 0.95483 0.33219 0.0
O778 O 0.92336 0.85956 0.22844 0.0
O779 O 0.85493 0.86469 0.23131 0.0
O780 O 0.97162 0.81615 0.26644 0.0
O781 O 0.99979 0.85216 0.34849 0.0
O782 O 0.90802 0.79564 0.36089 0.0
O783 O 0.86623 0.81186 0.30328 0.0
H784 H 0.7974 0.86587 0.4007 0.0
H785 H 0.731 0.8285 0.43281 0.0
H786 H 0.65917 0.9088 0.33468 0.0
H787 H 0.72592 0.94745 0.30378 0.0
H788 H 1.01313 0.8933 0.22903 0.0
H789 H 0.07942 0.93696 0.20128 0.0
H790 H 0.15516 0.87576 0.31459 0.0
H791 H 0.08855 0.83086 0.34136 0.0
Ho792 Ho 0.93643 0.40673 0.8103 0.0
Ho793 Ho 0.87659 0.39482 0.85488 0.0
C794 C 0.93324 0.50221 0.89728 0.0
C795 C 0.99365 0.42614 0.75085 0.0
C796 C 0.99488 0.46917 0.7234 0.0
C797 C 0.96611 0.50255 0.73463 0.0
C798 C 0.95935 0.53838 0.70377 0.0
C799 C 0.98182 0.54149 0.66171 0.0
C800 C 1.01201 0.5097 0.65103 0.0
C801 C 1.01816 0.47261 0.68174 0.0
C802 C 0.97072 0.37823 0.89936 0.0
C803 C 0.87514 0.29552 0.76428 0.0
C804 C 0.81908 0.36693 0.91042 0.0
C805 C 0.8214 0.32258 0.93497 0.0
C806 C 0.84839 0.28859 0.91668 0.0
C807 C 0.85697 0.24995 0.94352 0.0
C808 C 0.83876 0.24568 0.98879 0.0
C809 C 0.8114 0.2792 1.00698 0.0
C810 C 0.80278 0.31806 0.98 0.0
C811 C 0.848 0.44569 0.77879 0.0
O812 O 0.93038 0.49098 0.84575 0.0
O813 O 0.92076 0.46069 0.917 0.0
O814 O 1.0015 0.44348 0.80215 0.0
O815 O 0.95845 0.38781 0.7348 0.0
O816 O 0.98568 0.42124 0.8832 0.0
O817 O 0.93371 0.35455 0.87039 0.0
O818 O 0.85198 0.31659 0.79674 0.0
O819 O 0.91523 0.32012 0.76651 0.0
O820 O 0.81186 0.35272 0.8588 0.0
O821 O 0.85198 0.40807 0.92904 0.0
O822 O 0.84801 0.4608 0.82912 0.0
O823 O 0.86999 0.40977 0.77189 0.0
H824 H 0.94525 0.4969 0.76337 0.0
H825 H 0.9329 0.55821 0.70866 0.0
H826 H 1.02771 0.50991 0.61625 0.0
H827 H 1.03893 0.44516 0.67148 0.0
H828 H 0.86421 0.29307 0.88283 0.0
H829 H 0.87956 0.22587 0.93086 0.0
H830 H 0.79822 0.2773 0.04316 0.0
H831 H 0.78306 0.34532 0.99497 0.0
Ho832 Ho 0.93766 0.93182 0.85678 0.0
Ho833 Ho 0.8738 0.8303 0.7783 0.0
C834 C 0.83588 0.92717 0.83118 0.0
C835 C 0.98018 1.02995 0.88699 0.0
C836 C 0.96379 0.06961 0.86182 0.0
C837 C 0.95475 1.05721 0.80578 0.0
C838 C 0.91694 0.06536 0.77962 0.0
C839 C 0.88872 0.08793 0.80927 0.0
C840 C 0.90102 0.10774 0.86467 0.0
C841 C 0.93903 0.10008 0.89059 0.0
C842 C 0.9005 0.86342 0.91651 0.0
C843 C 0.97485 0.83503 0.80153 0.0
C844 C 0.83396 0.73131 0.74957 0.0
C845 C 0.85496 0.69339 0.77252 0.0
C846 C 0.86248 0.70125 0.82842 0.0
C847 C 0.89997 0.69201 0.85431 0.0
C848 C 0.92978 0.67325 0.82459 0.0
C849 C 0.92045 0.66048 0.76884 0.0
C850 C 0.8826 0.6687 0.7429 0.0
C851 C 0.91228 0.89849 0.71853 0.0
O852 O 0.87544 0.95851 0.84439 0.0
O853 O 0.82659 0.87642 0.80418 0.0
O854 O 0.95286 1.00738 0.91444 0.0
O855 O 0.99524 0.99384 0.85626 0.0
O856 O 0.93211 0.90588 0.93486 0.0
O857 O 0.89492 0.85618 0.86578 0.0
O858 O 0.93562 0.80325 0.79058 0.0
O859 O 0.98416 0.88594 0.82803 0.0
O860 O 0.85683 0.75559 0.71877 0.0
O861 O 0.81944 0.76574 0.78301 0.0
O862 O 0.88067 0.85591 0.70007 0.0
O863 O 0.91736 0.90574 0.76929 0.0
H864 H 0.97412 1.03524 0.78254 0.0
H865 H 0.90906 1.05217 0.73665 0.0
H866 H 0.88064 0.12757 0.88844 0.0
H867 H 0.94532 0.11045 0.93378 0.0
H868 H 0.84162 0.71961 0.85246 0.0
H869 H 0.90601 0.70063 0.89746 0.0
H870 H 0.94357 0.64696 0.7453 0.0
H871 H 0.87807 0.66271 0.69989 0.0
Ho872 Ho 0.63274 0.60302 0.5373 0.0
Ho873 Ho 0.68343 0.66864 0.59701 0.0
C874 C 0.62282 0.72635 0.53954 0.0
C875 C 0.5527 0.55351 0.50424 0.0
C876 C 0.51831 0.5716 0.53132 0.0
C877 C 0.52795 0.62409 0.56405 0.0
C878 C 0.49716 0.643 0.59122 0.0
C879 C 0.45545 0.60995 0.58609 0.0
C880 C 0.44574 0.55684 0.55432 0.0
C881 C 0.4776 0.53717 0.52869 0.0
C882 C 0.69775 0.61063 0.47059 0.0
C883 C 0.69304 0.54763 0.60008 0.0
C884 C 0.76386 0.7165 0.62854 0.0
C885 C 0.79673 0.69495 0.60103 0.0
C886 C 0.78426 0.64207 0.569 0.0
C887 C 0.81334 0.61891 0.54228 0.0
C888 C 0.85618 0.64807 0.54683 0.0
C889 C 0.86867 0.70211 0.57693 0.0
C890 C 0.83867 0.72585 0.6028 0.0
C891 C 0.61826 0.65889 0.66332 0.0
O892 O 0.61193 0.67585 0.51194 0.0
O893 O 0.65233 0.73693 0.58189 0.0
O894 O 0.57373 0.58829 0.48043 0.0
O895 O 0.57907 0.53416 0.53307 0.0
O896 O 0.66972 0.56695 0.47313 0.0
O897 O 0.68994 0.64977 0.50609 0.0
O898 O 0.70355 0.5983 0.62655 0.0
O899 O 0.66428 0.53598 0.55674 0.0
O900 O 0.74241 0.68391 0.65411 0.0
O901 O 0.73789 0.73592 0.59918 0.0
O902 O 0.64561 0.70331 0.66093 0.0
O903 O 0.62676 0.6204 0.62789 0.0
H904 H 0.55956 0.65075 0.5693 0.0
H905 H 0.50581 0.68431 0.61496 0.0
H906 H 0.41372 0.53061 0.54947 0.0
H907 H 0.4704 0.49539 0.5068 0.0
H908 H 0.75172 0.61822 0.56418 0.0
H909 H 0.80239 0.57736 0.51927 0.0
H910 H 0.90165 0.72555 0.58129 0.0
H911 H 0.84833 0.76782 0.62439 0.0
Ho912 Ho 0.20392 0.64144 0.05199 0.0
Ho913 Ho 0.11984 0.63863 0.10284 0.0
C914 C 0.13547 0.5244 0.03476 0.0
C915 C 0.28432 0.65558 0.04599 0.0
C916 C 0.31544 0.62506 0.05865 0.0
C917 C 0.30163 0.57561 0.0735 0.0
C918 C 0.33199 0.54846 0.09023 0.0
C919 C 0.37609 0.57088 0.09207 0.0
C920 C 0.38972 0.62069 0.07781 0.0
C921 C 0.35931 0.64778 0.06106 0.0
C922 C 0.13947 0.66612 0.99424 0.0
C923 C 0.18835 0.75563 0.12025 0.0
C924 C 1.03846 0.62241 0.10394 0.0
C925 C 1.00555 0.64891 0.08703 0.0
C926 C 1.01659 0.69387 0.06417 0.0
C927 C 0.98432 0.71718 0.04497 0.0
C928 C 0.94101 0.69521 0.04828 0.0
C929 C 0.93011 0.64915 0.06964 0.0
C930 C 0.96242 0.62611 0.0891 0.0
C931 C 0.18334 0.61252 0.16034 0.0
O932 O 0.17584 0.54948 1.032 0.0
O933 O 0.10855 0.55118 0.05684 0.0
O934 O 0.254 0.6313 1.00479 0.0
O935 O 0.26974 0.67766 0.08795 0.0
O936 O 0.16766 0.64256 0.9731 0.0
O937 O 0.14882 0.67666 0.04352 0.0
O938 O 0.14813 0.73032 0.12332 0.0
O939 O 0.21534 0.72911 0.09789 0.0
O940 O 0.06727 0.64998 0.14569 0.0
O941 O 0.0552 0.59975 0.06426 0.0
O942 O 0.15408 0.63351 0.18204 0.0
O943 O 0.17496 0.60362 0.11107 0.0
H944 H 0.26752 0.55839 0.07244 0.0
H945 H 0.32109 0.50983 0.10096 0.0
H946 H 0.42369 0.63778 0.07796 0.0
H947 H 0.36996 0.68634 0.05014 0.0
H948 H 1.05002 0.71075 0.06132 0.0
H949 H 0.99322 0.7528 1.02856 0.0
H950 H 0.89687 0.63216 0.07311 0.0
H951 H 0.95383 0.59066 0.10583 0.0
loop_
_geom_bond_atom_site_label_1
_geom_bond_atom_site_label_2
_geom_bond_distance
_geom_bond_site_symmetry_2
_ccdc_geom_bond_type
In0 O1 2.294 . S
In0 O2 2.326 . S
In0 O6 2.266 . S
In0 O7 2.326 . S
In0 O8 2.266 . S
In0 O9 2.326 . S
In0 O11 2.294 . S
In0 O12 2.326 . S
O1 In0 2.294 . S
O1 C10 1.240 . S
O2 In0 2.326 . S
O2 C10 1.252 . S
C3 O6 1.252 . S
C3 O7 1.260 . S
C4 O11 1.240 . S
C4 O12 1.252 . S
C5 O8 1.252 . S
C5 O9 1.260 . S
O6 In0 2.266 . S
O6 C3 1.252 . S
O7 In0 2.326 . S
O7 C3 1.260 . S
O8 In0 2.266 . S
O8 C5 1.252 . S
O9 In0 2.326 . S
O9 C5 1.260 . S
C10 O1 1.240 . S
C10 O2 1.252 . S
O11 In0 2.294 . S
O11 C4 1.240 . S
O12 In0 2.326 . S
O12 C4 1.252 . S
In13 O14 2.294 . S
In13 O15 2.326 . S
In13 O19 2.266 1_455 S
In13 O20 2.326 1_455 S
In13 O21 2.266 1_455 S
In13 O22 2.326 1_455 S
In13 O24 2.294 . S
In13 O25 2.326 . S
O14 In13 2.294 . S
O14 C23 1.240 . S
O15 In13 2.326 . S
O15 C23 1.252 . S
C16 O19 1.252 . S
C16 O20 1.260 . S
C17 O24 1.240 . S
C17 O25 1.252 . S
C18 O21 1.252 . S
C18 O22 1.260 . S
O19 In13 2.266 1_655 S
O19 C16 1.252 . S
O20 In13 2.326 1_655 S
O20 C16 1.260 . S
O21 In13 2.266 1_655 S
O21 C18 1.252 . S
O22 In13 2.326 1_655 S
O22 C18 1.260 . S
C23 O14 1.240 . S
C23 O15 1.252 . S
O24 In13 2.294 . S
O24 C17 1.240 . S
O25 In13 2.326 . S
O25 C17 1.252 . S
In26 O27 2.294 . S
In26 O28 2.326 . S
In26 O32 2.266 . S
In26 O33 2.326 . S
In26 O34 2.266 1_565 S
In26 O35 2.326 1_565 S
In26 O37 2.294 . S
In26 O38 2.326 . S
O27 In26 2.294 . S
O27 C36 1.240 . S
O28 In26 2.326 . S
O28 C36 1.252 . S
C29 O32 1.252 . S
C29 O33 1.260 . S
C30 O37 1.240 . S
C30 O38 1.252 . S
C31 O34 1.252 . S
C31 O35 1.260 . S
O32 In26 2.266 . S
O32 C29 1.252 . S
O33 In26 2.326 . S
O33 C29 1.260 . S
O34 In26 2.266 1_545 S
O34 C31 1.252 . S
O35 In26 2.326 1_545 S
O35 C31 1.260 . S
C36 O27 1.240 . S
C36 O28 1.252 . S
O37 In26 2.294 . S
O37 C30 1.240 . S
O38 In26 2.326 . S
O38 C30 1.252 . S
In39 O40 2.294 . S
In39 O41 2.326 . S
In39 O45 2.266 . S
In39 O46 2.326 . S
In39 O47 2.266 . S
In39 O48 2.326 . S
In39 O50 2.294 . S
In39 O51 2.326 . S
O40 In39 2.294 . S
O40 C49 1.240 . S
O41 In39 2.326 . S
O41 C49 1.252 . S
C42 O45 1.252 . S
C42 O46 1.260 . S
C43 O50 1.240 . S
C43 O51 1.252 . S
C44 O47 1.252 . S
C44 O48 1.260 . S
O45 In39 2.266 . S
O45 C42 1.252 . S
O46 In39 2.326 . S
O46 C42 1.260 . S
O47 In39 2.266 . S
O47 C44 1.252 . S
O48 In39 2.326 . S
O48 C44 1.260 . S
C49 O40 1.240 . S
C49 O41 1.252 . S
O50 In39 2.294 . S
O50 C43 1.240 . S
O51 In39 2.326 . S
O51 C43 1.252 . S
In52 O53 2.294 . S
In52 O54 2.326 . S
In52 O58 2.266 . S
In52 O59 2.326 . S
In52 O60 2.266 . S
In52 O61 2.326 . S
In52 O63 2.294 . S
In52 O64 2.326 . S
O53 In52 2.294 . S
O53 C62 1.240 . S
O54 In52 2.326 . S
O54 C62 1.252 . S
C55 O58 1.252 . S
C55 O59 1.260 . S
C56 O63 1.240 . S
C56 O64 1.252 . S
C57 O60 1.252 . S
C57 O61 1.260 . S
O58 In52 2.266 . S
O58 C55 1.252 . S
O59 In52 2.326 . S
O59 C55 1.260 . S
O60 In52 2.266 . S
O60 C57 1.252 . S
O61 In52 2.326 . S
O61 C57 1.260 . S
C62 O53 1.240 . S
C62 O54 1.252 . S
O63 In52 2.294 . S
O63 C56 1.240 . S
O64 In52 2.326 . S
O64 C56 1.252 . S
In65 O66 2.294 . S
In65 O67 2.326 . S
In65 O71 2.266 . S
In65 O72 2.326 . S
In65 O73 2.266 . S
In65 O74 2.326 . S
In65 O76 2.294 . S
In65 O77 2.326 . S
O66 In65 2.294 . S
O66 C75 1.240 . S
O67 In65 2.326 . S
O67 C75 1.252 . S
C68 O71 1.252 . S
C68 O72 1.260 . S
C69 O76 1.240 . S
C69 O77 1.252 . S
C70 O73 1.252 . S
C70 O74 1.260 . S
O71 In65 2.266 . S
O71 C68 1.252 . S
O72 In65 2.326 . S
O72 C68 1.260 . S
O73 In65 2.266 . S
O73 C70 1.252 . S
O74 In65 2.326 . S
O74 C70 1.260 . S
C75 O66 1.240 . S
C75 O67 1.252 . S
O76 In65 2.294 . S
O76 C69 1.240 . S
O77 In65 2.326 . S
O77 C69 1.252 . S
In78 O79 2.294 . S
In78 O80 2.326 . S
In78 O84 2.266 . S
In78 O85 2.326 . S
In78 O86 2.266 . S
In78 O87 2.326 . S
In78 O89 2.294 . S
In78 O90 2.326 . S
O79 In78 2.294 . S
O79 C88 1.240 . S
O80 In78 2.326 . S
O80 C88 1.252 . S
C81 O84 1.252 . S
C81 O85 1.260 . S
C82 O89 1.240 . S
C82 O90 1.252 . S
C83 O86 1.252 . S
C83 O87 1.260 . S
O84 In78 2.266 . S
O84 C81 1.252 . S
O85 In78 2.326 . S
O85 C81 1.260 . S
O86 In78 2.266 . S
O86 C83 1.252 . S
O87 In78 2.326 . S
O87 C83 1.260 . S
C88 O79 1.240 . S
C88 O80 1.252 . S
O89 In78 2.294 . S
O89 C82 1.240 . S
O90 In78 2.326 . S
O90 C82 1.252 . S
In91 O92 2.294 1_556 S
In91 O93 2.326 . S
In91 O97 2.266 1_556 S
In91 O98 2.326 . S
In91 O99 2.266 . S
In91 O100 2.326 1_455 S
In91 O102 2.294 . S
In91 O103 2.326 . S
O92 In91 2.294 1_554 S
O92 C101 1.240 1_554 S
O93 In91 2.326 . S
O93 C101 1.252 . S
C94 O97 1.252 . S
C94 O98 1.260 1_554 S
C95 O102 1.240 . S
C95 O103 1.252 . S
C96 O99 1.252 1_655 S
C96 O100 1.260 . S
O97 In91 2.266 1_554 S
O97 C94 1.252 . S
O98 In91 2.326 . S
O98 C94 1.260 1_556 S
O99 In91 2.266 . S
O99 C96 1.252 1_455 S
O100 In91 2.326 1_655 S
O100 C96 1.260 . S
C101 O92 1.240 1_556 S
C101 O93 1.252 . S
O102 In91 2.294 . S
O102 C95 1.240 . S
O103 In91 2.326 . S
O103 C95 1.252 . S
In104 O105 2.294 . S
In104 O106 2.327 1_545 S
In104 O110 2.265 . S
In104 O111 2.325 . S
In104 O112 2.265 1_545 S
In104 O113 2.323 1_545 S
In104 O115 2.296 . S
In104 O116 2.329 . S
O105 In104 2.294 . S
O105 C114 1.238 . S
O106 In104 2.327 1_565 S
O106 C114 1.253 1_565 S
C107 O110 1.252 . S
C107 O111 1.260 . S
C108 O115 1.240 . S
C108 O116 1.252 . S
C109 O112 1.252 . S
C109 O113 1.260 . S
O110 In104 2.265 . S
O110 C107 1.252 . S
O111 In104 2.325 . S
O111 C107 1.260 . S
O112 In104 2.265 1_565 S
O112 C109 1.252 . S
O113 In104 2.323 1_565 S
O113 C109 1.260 . S
C114 O105 1.238 . S
C114 O106 1.253 1_545 S
O115 In104 2.296 . S
O115 C108 1.240 . S
O116 In104 2.329 . S
O116 C108 1.252 . S
In117 O118 2.294 . S
In117 O119 2.326 . S
In117 O123 2.266 . S
In117 O124 2.326 . S
In117 O125 2.266 . S
In117 O126 2.326 . S
In117 O128 2.294 . S
In117 O129 2.326 . S
O118 In117 2.294 . S
O118 C127 1.240 . S
O119 In117 2.326 . S
O119 C127 1.252 . S
C120 O123 1.252 . S
C120 O124 1.260 . S
C121 O128 1.240 . S
C121 O129 1.252 . S
C122 O125 1.252 . S
C122 O126 1.260 . S
O123 In117 2.266 . S
O123 C120 1.252 . S
O124 In117 2.326 . S
O124 C120 1.260 . S
O125 In117 2.266 . S
O125 C122 1.252 . S
O126 In117 2.326 . S
O126 C122 1.260 . S
C127 O118 1.240 . S
C127 O119 1.252 . S
O128 In117 2.294 . S
O128 C121 1.240 . S
O129 In117 2.326 . S
O129 C121 1.252 . S
In130 O131 2.294 . S
In130 O132 2.326 . S
In130 O136 2.266 . S
In130 O137 2.326 . S
In130 O138 2.266 . S
In130 O139 2.326 . S
In130 O141 2.294 . S
In130 O142 2.326 1_545 S
O131 In130 2.294 . S
O131 C140 1.240 . S
O132 In130 2.326 . S
O132 C140 1.252 . S
C133 O136 1.252 . S
C133 O137 1.260 . S
C134 O141 1.240 1_565 S
C134 O142 1.252 . S
C135 O138 1.252 . S
C135 O139 1.260 . S
O136 In130 2.266 . S
O136 C133 1.252 . S
O137 In130 2.326 . S
O137 C133 1.260 . S
O138 In130 2.266 . S
O138 C135 1.252 . S
O139 In130 2.326 . S
O139 C135 1.260 . S
C140 O131 1.240 . S
C140 O132 1.252 . S
O141 In130 2.294 . S
O141 C134 1.240 1_545 S
O142 In130 2.326 1_565 S
O142 C134 1.252 . S
In143 O144 2.296 . S
In143 O145 2.329 1_565 S
In143 O149 2.264 1_554 S
In143 O150 2.322 1_554 S
In143 O151 2.265 1_565 S
In143 O152 2.325 . S
In143 O154 2.294 1_565 S
In143 O155 2.327 1_554 S
O144 In143 2.296 . S
O144 C153 1.240 . S
O145 In143 2.329 1_545 S
O145 C153 1.252 1_545 S
C146 O149 1.252 . S
C146 O150 1.260 . S
C147 O154 1.240 . S
C147 O155 1.252 1_544 S
C148 O151 1.252 . S
C148 O152 1.260 1_545 S
O149 In143 2.264 1_556 S
O149 C146 1.252 . S
O150 In143 2.322 1_556 S
O150 C146 1.260 . S
O151 In143 2.265 1_545 S
O151 C148 1.252 . S
O152 In143 2.325 . S
O152 C148 1.260 1_565 S
C153 O144 1.240 . S
C153 O145 1.252 1_565 S
O154 In143 2.294 1_545 S
O154 C147 1.240 . S
O155 In143 2.327 1_556 S
O155 C147 1.252 1_566 S
In156 O157 2.294 . S
In156 O158 2.326 . S
In156 O162 2.266 1_554 S
In156 O163 2.326 1_554 S
In156 O164 2.266 . S
In156 O165 2.326 . S
In156 O167 2.294 . S
In156 O168 2.326 . S
O157 In156 2.294 . S
O157 C166 1.240 . S
O158 In156 2.326 . S
O158 C166 1.252 . S
C159 O162 1.252 . S
C159 O163 1.260 . S
C160 O167 1.240 . S
C160 O168 1.252 . S
C161 O164 1.252 . S
C161 O165 1.260 . S
O162 In156 2.266 1_556 S
O162 C159 1.252 . S
O163 In156 2.326 1_556 S
O163 C159 1.260 . S
O164 In156 2.266 . S
O164 C161 1.252 . S
O165 In156 2.326 . S
O165 C161 1.260 . S
C166 O157 1.240 . S
C166 O158 1.252 . S
O167 In156 2.294 . S
O167 C160 1.240 . S
O168 In156 2.326 . S
O168 C160 1.252 . S
In169 O170 2.294 . S
In169 O171 2.326 . S
In169 O175 2.266 . S
In169 O176 2.326 . S
In169 O177 2.266 . S
In169 O178 2.326 1_554 S
In169 O180 2.294 . S
In169 O181 2.326 . S
O170 In169 2.294 . S
O170 C179 1.240 . S
O171 In169 2.326 . S
O171 C179 1.252 . S
C172 O175 1.252 . S
C172 O176 1.260 . S
C173 O180 1.240 . S
C173 O181 1.252 . S
C174 O177 1.252 1_556 S
C174 O178 1.260 . S
O175 In169 2.266 . S
O175 C172 1.252 . S
O176 In169 2.326 . S
O176 C172 1.260 . S
O177 In169 2.266 . S
O177 C174 1.252 1_554 S
O178 In169 2.326 1_556 S
O178 C174 1.260 . S
C179 O170 1.240 . S
C179 O171 1.252 . S
O180 In169 2.294 . S
O180 C173 1.240 . S
O181 In169 2.326 . S
O181 C173 1.252 . S
In182 O183 2.294 . S
In182 O184 2.326 . S
In182 O188 2.266 . S
In182 O189 2.326 . S
In182 O190 2.266 . S
In182 O191 2.326 . S
In182 O193 2.294 . S
In182 O194 2.326 . S
O183 In182 2.294 . S
O183 C192 1.240 . S
O184 In182 2.326 . S
O184 C192 1.252 . S
C185 O188 1.252 . S
C185 O189 1.260 . S
C186 O193 1.240 . S
C186 O194 1.252 . S
C187 O190 1.252 . S
C187 O191 1.260 . S
O188 In182 2.266 . S
O188 C185 1.252 . S
O189 In182 2.326 . S
O189 C185 1.260 . S
O190 In182 2.266 . S
O190 C187 1.252 . S
O191 In182 2.326 . S
O191 C187 1.260 . S
C192 O183 1.240 . S
C192 O184 1.252 . S
O193 In182 2.294 . S
O193 C186 1.240 . S
O194 In182 2.326 . S
O194 C186 1.252 . S
In195 O196 2.294 . S
In195 O197 2.326 . S
In195 O201 2.266 . S
In195 O202 2.326 . S
In195 O203 2.266 . S
In195 O204 2.326 . S
In195 O206 2.294 . S
In195 O207 2.326 . S
O196 In195 2.294 . S
O196 C205 1.240 . S
O197 In195 2.326 . S
O197 C205 1.252 . S
C198 O201 1.252 . S
C198 O202 1.260 . S
C199 O206 1.240 . S
C199 O207 1.252 . S
C200 O203 1.252 . S
C200 O204 1.260 . S
O201 In195 2.266 . S
O201 C198 1.252 . S
O202 In195 2.326 . S
O202 C198 1.260 . S
O203 In195 2.266 . S
O203 C200 1.252 . S
O204 In195 2.326 . S
O204 C200 1.260 . S
C205 O196 1.240 . S
C205 O197 1.252 . S
O206 In195 2.294 . S
O206 C199 1.240 . S
O207 In195 2.326 . S
O207 C199 1.252 . S
In208 O209 2.294 1_655 S
In208 O210 2.326 . S
In208 O214 2.266 1_655 S
In208 O215 2.326 . S
In208 O216 2.266 . S
In208 O217 2.326 . S
In208 O219 2.294 . S
In208 O220 2.326 1_655 S
O209 In208 2.294 1_455 S
O209 C218 1.240 . S
O210 In208 2.326 . S
O210 C218 1.252 1_655 S
C211 O214 1.252 . S
C211 O215 1.260 1_455 S
C212 O219 1.240 . S
C212 O220 1.252 1_655 S
C213 O216 1.252 . S
C213 O217 1.260 . S
O214 In208 2.266 1_455 S
O214 C211 1.252 . S
O215 In208 2.326 . S
O215 C211 1.260 1_655 S
O216 In208 2.266 . S
O216 C213 1.252 . S
O217 In208 2.326 . S
O217 C213 1.260 . S
C218 O209 1.240 . S
C218 O210 1.252 1_455 S
O219 In208 2.294 . S
O219 C212 1.240 . S
O220 In208 2.326 1_455 S
O220 C212 1.252 1_455 S
In221 O222 2.294 . S
In221 O223 2.326 . S
In221 O227 2.266 . S
In221 O228 2.326 . S
In221 O229 2.266 . S
In221 O230 2.326 . S
In221 O232 2.294 . S
In221 O233 2.326 . S
O222 In221 2.294 . S
O222 C231 1.240 . S
O223 In221 2.326 . S
O223 C231 1.252 . S
C224 O227 1.252 . S
C224 O228 1.260 . S
C225 O232 1.240 . S
C225 O233 1.252 . S
C226 O229 1.252 . S
C226 O230 1.260 . S
O227 In221 2.266 . S
O227 C224 1.252 . S
O228 In221 2.326 . S
O228 C224 1.260 . S
O229 In221 2.266 . S
O229 C226 1.252 . S
O230 In221 2.326 . S
O230 C226 1.260 . S
C231 O222 1.240 . S
C231 O223 1.252 . S
O232 In221 2.294 . S
O232 C225 1.240 . S
O233 In221 2.326 . S
O233 C225 1.252 . S
In234 O235 2.294 . S
In234 O236 2.326 . S
In234 O240 2.266 . S
In234 O241 2.326 . S
In234 O242 2.266 . S
In234 O243 2.326 . S
In234 O245 2.294 . S
In234 O246 2.326 . S
O235 In234 2.294 . S
O235 C244 1.240 . S
O236 In234 2.326 . S
O236 C244 1.252 . S
C237 O240 1.252 . S
C237 O241 1.260 . S
C238 O245 1.240 . S
C238 O246 1.252 . S
C239 O242 1.252 . S
C239 O243 1.260 . S
O240 In234 2.266 . S
O240 C237 1.252 . S
O241 In234 2.326 . S
O241 C237 1.260 . S
O242 In234 2.266 . S
O242 C239 1.252 . S
O243 In234 2.326 . S
O243 C239 1.260 . S
C244 O235 1.240 . S
C244 O236 1.252 . S
O245 In234 2.294 . S
O245 C238 1.240 . S
O246 In234 2.326 . S
O246 C238 1.252 . S
In247 O248 2.294 . S
In247 O249 2.326 . S
In247 O253 2.266 . S
In247 O254 2.326 . S
In247 O255 2.266 . S
In247 O256 2.326 . S
In247 O258 2.294 . S
In247 O259 2.326 . S
O248 In247 2.294 . S
O248 C257 1.240 . S
O249 In247 2.326 . S
O249 C257 1.252 . S
C250 O253 1.252 . S
C250 O254 1.260 . S
C251 O258 1.240 . S
C251 O259 1.252 . S
C252 O255 1.252 . S
C252 O256 1.260 . S
O253 In247 2.266 . S
O253 C250 1.252 . S
O254 In247 2.326 . S
O254 C250 1.260 . S
O255 In247 2.266 . S
O255 C252 1.252 . S
O256 In247 2.326 . S
O256 C252 1.260 . S
C257 O248 1.240 . S
C257 O249 1.252 . S
O258 In247 2.294 . S
O258 C251 1.240 . S
O259 In247 2.326 . S
O259 C251 1.252 . S
In260 O261 2.294 . S
In260 O262 2.326 . S
In260 O266 2.266 1_554 S
In260 O267 2.326 1_554 S
In260 O268 2.266 1_554 S
In260 O269 2.326 1_554 S
In260 O271 2.294 . S
In260 O272 2.326 . S
O261 In260 2.294 . S
O261 C270 1.240 . S
O262 In260 2.326 . S
O262 C270 1.252 . S
C263 O266 1.252 . S
C263 O267 1.260 . S
C264 O271 1.240 . S
C264 O272 1.252 . S
C265 O268 1.252 . S
C265 O269 1.260 . S
O266 In260 2.266 1_556 S
O266 C263 1.252 . S
O267 In260 2.326 1_556 S
O267 C263 1.260 . S
O268 In260 2.266 1_556 S
O268 C265 1.252 . S
O269 In260 2.326 1_556 S
O269 C265 1.260 . S
C270 O261 1.240 . S
C270 O262 1.252 . S
O271 In260 2.294 . S
O271 C264 1.240 . S
O272 In260 2.326 . S
O272 C264 1.252 . S
In273 O274 2.294 . S
In273 O275 2.326 1_655 S
In273 O279 2.266 . S
In273 O280 2.326 . S
In273 O281 2.266 1_655 S
In273 O282 2.326 . S
In273 O284 2.294 1_655 S
In273 O285 2.326 . S
O274 In273 2.294 . S
O274 C283 1.240 . S
O275 In273 2.326 1_455 S
O275 C283 1.252 1_455 S
C276 O279 1.252 . S
C276 O280 1.260 . S
C277 O284 1.240 . S
C277 O285 1.252 1_455 S
C278 O281 1.252 . S
C278 O282 1.260 1_455 S
O279 In273 2.266 . S
O279 C276 1.252 . S
O280 In273 2.326 . S
O280 C276 1.260 . S
O281 In273 2.266 1_455 S
O281 C278 1.252 . S
O282 In273 2.326 . S
O282 C278 1.260 1_655 S
C283 O274 1.240 . S
C283 O275 1.252 1_655 S
O284 In273 2.294 1_455 S
O284 C277 1.240 . S
O285 In273 2.326 . S
O285 C277 1.252 1_655 S
In286 O287 2.294 . S
In286 O288 2.326 . S
In286 O292 2.266 . S
In286 O293 2.326 . S
In286 O294 2.266 . S
In286 O295 2.326 1_655 S
In286 O297 2.294 . S
In286 O298 2.326 . S
O287 In286 2.294 . S
O287 C296 1.240 . S
O288 In286 2.326 . S
O288 C296 1.252 . S
C289 O292 1.252 . S
C289 O293 1.260 . S
C290 O297 1.240 . S
C290 O298 1.252 . S
C291 O294 1.252 1_455 S
C291 O295 1.260 . S
O292 In286 2.266 . S
O292 C289 1.252 . S
O293 In286 2.326 . S
O293 C289 1.260 . S
O294 In286 2.266 . S
O294 C291 1.252 1_655 S
O295 In286 2.326 1_455 S
O295 C291 1.260 . S
C296 O287 1.240 . S
C296 O288 1.252 . S
O297 In286 2.294 . S
O297 C290 1.240 . S
O298 In286 2.326 . S
O298 C290 1.252 . S
In299 O300 2.294 . S
In299 O301 2.326 . S
In299 O305 2.266 . S
In299 O306 2.326 . S
In299 O307 2.266 . S
In299 O308 2.326 . S
In299 O310 2.294 . S
In299 O311 2.326 . S
O300 In299 2.294 . S
O300 C309 1.240 . S
O301 In299 2.326 . S
O301 C309 1.252 . S
C302 O305 1.252 . S
C302 O306 1.260 . S
C303 O310 1.240 . S
C303 O311 1.252 . S
C304 O307 1.252 . S
C304 O308 1.260 . S
O305 In299 2.266 . S
O305 C302 1.252 . S
O306 In299 2.326 . S
O306 C302 1.260 . S
O307 In299 2.266 . S
O307 C304 1.252 . S
O308 In299 2.326 . S
O308 C304 1.260 . S
C309 O300 1.240 . S
C309 O301 1.252 . S
O310 In299 2.294 . S
O310 C303 1.240 . S
O311 In299 2.326 . S
O311 C303 1.252 . S
Ho312 C315 2.811 1_454 S
Ho312 O332 2.322 . S
Ho312 O334 2.378 1_454 S
Ho312 O335 2.524 . S
Ho312 O336 2.381 1_554 S
Ho312 O337 2.669 1_554 S
Ho312 O339 2.346 1_545 S
Ho312 O343 2.305 . S
Ho313 C324 2.811 . S
Ho313 O333 2.346 . S
Ho313 O337 2.305 1_554 S
Ho313 O338 2.322 . S
Ho313 O340 2.378 . S
Ho313 O341 2.524 . S
Ho313 O342 2.381 . S
Ho313 O343 2.669 . S
C314 O332 1.259 . S
C314 O333 1.268 . S
C315 Ho312 2.811 1_656 S
C315 C316 1.488 . S
C315 O334 1.215 . S
C315 O335 1.289 1_656 S
C316 C315 1.488 . S
C316 C317 1.348 1_556 S
C316 C321 1.413 . S
C317 C316 1.348 1_554 S
C317 C318 1.442 . S
C317 H344 0.930 . S
C318 C317 1.442 . S
C318 C319 1.381 1_554 S
C318 H345 0.931 . S
C319 C318 1.381 1_556 S
C319 C320 1.321 . S
C320 C319 1.321 . S
C320 C321 1.403 . S
C320 H346 0.934 . S
C321 C316 1.413 . S
C321 C320 1.403 . S
C321 H347 0.930 . S
C322 O336 1.275 . S
C322 O337 1.256 . S
C323 O338 1.259 1_565 S
C323 O339 1.268 . S
C324 Ho313 2.811 . S
C324 C325 1.488 . S
C324 O340 1.215 . S
C324 O341 1.289 . S
C325 C324 1.488 . S
C325 C326 1.348 . S
C325 C330 1.413 . S
C326 C325 1.348 . S
C326 C327 1.442 . S
C326 H348 0.930 . S
C327 C326 1.442 . S
C327 C328 1.381 . S
C327 H349 0.931 . S
C328 C327 1.381 . S
C328 C329 1.321 . S
C329 C328 1.321 . S
C329 C330 1.403 . S
C329 H350 0.934 . S
C330 C325 1.413 . S
C330 C329 1.403 . S
C330 H351 0.930 . S
C331 O342 1.275 . S
C331 O343 1.256 . S
O332 Ho312 2.322 . S
O332 C314 1.259 . S
O333 Ho313 2.346 . S
O333 C314 1.268 . S
O334 Ho312 2.378 1_656 S
O334 C315 1.215 . S
O335 Ho312 2.524 . S
O335 C315 1.289 1_454 S
O336 Ho312 2.381 1_556 S
O336 C322 1.275 . S
O337 Ho312 2.669 1_556 S
O337 Ho313 2.305 1_556 S
O337 C322 1.256 . S
O338 Ho313 2.322 . S
O338 C323 1.259 1_545 S
O339 Ho312 2.346 1_565 S
O339 C323 1.268 . S
O340 Ho313 2.378 . S
O340 C324 1.215 . S
O341 Ho313 2.524 . S
O341 C324 1.289 . S
O342 Ho313 2.381 . S
O342 C331 1.275 . S
O343 Ho312 2.305 . S
O343 Ho313 2.669 . S
O343 C331 1.256 . S
H344 C317 0.930 . S
H345 C318 0.931 . S
H346 C320 0.934 . S
H347 C321 0.930 . S
H348 C326 0.930 . S
H349 C327 0.931 . S
H350 C329 0.934 . S
H351 C330 0.930 . S
Ho352 C355 2.811 . S
Ho352 O372 2.322 . S
Ho352 O374 2.378 . S
Ho352 O375 2.524 . S
Ho352 O376 2.381 . S
Ho352 O377 2.669 . S
Ho352 O379 2.346 . S
Ho352 O383 2.305 . S
Ho353 C364 2.811 . S
Ho353 O373 2.346 . S
Ho353 O377 2.305 . S
Ho353 O378 2.322 . S
Ho353 O380 2.378 . S
Ho353 O381 2.524 . S
Ho353 O382 2.381 . S
Ho353 O383 2.669 . S
C354 O372 1.259 . S
C354 O373 1.268 . S
C355 Ho352 2.811 . S
C355 C356 1.488 . S
C355 O374 1.215 . S
C355 O375 1.289 . S
C356 C355 1.488 . S
C356 C357 1.348 . S
C356 C361 1.413 . S
C357 C356 1.348 . S
C357 C358 1.442 . S
C357 H384 0.930 . S
C358 C357 1.442 . S
C358 C359 1.381 . S
C358 H385 0.931 1_565 S
C359 C358 1.381 . S
C359 C360 1.321 . S
C360 C359 1.321 . S
C360 C361 1.403 . S
C360 H386 0.934 . S
C361 C356 1.413 . S
C361 C360 1.403 . S
C361 H387 0.930 . S
C362 O376 1.275 . S
C362 O377 1.256 . S
C363 O378 1.259 . S
C363 O379 1.268 . S
C364 Ho353 2.811 . S
C364 C365 1.488 . S
C364 O380 1.215 . S
C364 O381 1.289 . S
C365 C364 1.488 . S
C365 C366 1.348 . S
C365 C370 1.413 . S
C366 C365 1.348 . S
C366 C367 1.442 . S
C366 H388 0.930 . S
C367 C366 1.442 . S
C367 C368 1.381 . S
C367 H389 0.931 . S
C368 C367 1.381 . S
C368 C369 1.321 . S
C369 C368 1.321 . S
C369 C370 1.403 . S
C369 H390 0.934 . S
C370 C365 1.413 . S
C370 C369 1.403 . S
C370 H391 0.930 . S
C371 O382 1.275 . S
C371 O383 1.256 . S
O372 Ho352 2.322 . S
O372 C354 1.259 . S
O373 Ho353 2.346 . S
O373 C354 1.268 . S
O374 Ho352 2.378 . S
O374 C355 1.215 . S
O375 Ho352 2.524 . S
O375 C355 1.289 . S
O376 Ho352 2.381 . S
O376 C362 1.275 . S
O377 Ho352 2.669 . S
O377 Ho353 2.305 . S
O377 C362 1.256 . S
O378 Ho353 2.322 . S
O378 C363 1.259 . S
O379 Ho352 2.346 . S
O379 C363 1.268 . S
O380 Ho353 2.378 . S
O380 C364 1.215 . S
O381 Ho353 2.524 . S
O381 C364 1.289 . S
O382 Ho353 2.381 . S
O382 C371 1.275 . S
O383 Ho352 2.305 . S
O383 Ho353 2.669 . S
O383 C371 1.256 . S
H384 C357 0.930 . S
H385 C358 0.931 1_545 S
H386 C360 0.934 . S
H387 C361 0.930 . S
H388 C366 0.930 . S
H389 C367 0.931 . S
H390 C369 0.934 . S
H391 C370 0.930 . S
Ho392 C395 2.811 . S
Ho392 O412 2.322 1_545 S
Ho392 O414 2.378 . S
Ho392 O415 2.524 . S
Ho392 O416 2.381 . S
Ho392 O417 2.669 . S
Ho392 O419 2.346 . S
Ho392 O423 2.305 . S
Ho393 C404 2.811 . S
Ho393 O413 2.346 1_545 S
Ho393 O417 2.305 . S
Ho393 O418 2.322 . S
Ho393 O420 2.378 . S
Ho393 O421 2.524 . S
Ho393 O422 2.381 . S
Ho393 O423 2.669 . S
C394 O412 1.259 . S
C394 O413 1.268 . S
C395 Ho392 2.811 . S
C395 C396 1.488 1_545 S
C395 O414 1.215 . S
C395 O415 1.289 . S
C396 C395 1.488 1_565 S
C396 C397 1.348 . S
C396 C401 1.413 . S
C397 C396 1.348 . S
C397 C398 1.442 . S
C397 H424 0.930 . S
C398 C397 1.442 . S
C398 C399 1.381 . S
C398 H425 0.931 . S
C399 C398 1.381 . S
C399 C400 1.321 . S
C400 C399 1.321 . S
C400 C401 1.403 . S
C400 H426 0.934 . S
C401 C396 1.413 . S
C401 C400 1.403 . S
C401 H427 0.930 . S
C402 O416 1.275 . S
C402 O417 1.256 . S
C403 O418 1.259 . S
C403 O419 1.268 . S
C404 Ho393 2.811 . S
C404 C405 1.488 . S
C404 O420 1.215 . S
C404 O421 1.289 . S
C405 C404 1.488 . S
C405 C406 1.348 . S
C405 C410 1.413 . S
C406 C405 1.348 . S
C406 C407 1.442 . S
C406 H428 0.930 . S
C407 C406 1.442 . S
C407 C408 1.381 . S
C407 H429 0.931 . S
C408 C407 1.381 . S
C408 C409 1.321 . S
C409 C408 1.321 . S
C409 C410 1.403 . S
C409 H430 0.934 . S
C410 C405 1.413 . S
C410 C409 1.403 . S
C410 H431 0.930 . S
C411 O422 1.275 . S
C411 O423 1.256 . S
O412 Ho392 2.322 1_565 S
O412 C394 1.259 . S
O413 Ho393 2.346 1_565 S
O413 C394 1.268 . S
O414 Ho392 2.378 . S
O414 C395 1.215 . S
O415 Ho392 2.524 . S
O415 C395 1.289 . S
O416 Ho392 2.381 . S
O416 C402 1.275 . S
O417 Ho392 2.669 . S
O417 Ho393 2.305 . S
O417 C402 1.256 . S
O418 Ho393 2.322 . S
O418 C403 1.259 . S
O419 Ho392 2.346 . S
O419 C403 1.268 . S
O420 Ho393 2.378 . S
O420 C404 1.215 . S
O421 Ho393 2.524 . S
O421 C404 1.289 . S
O422 Ho393 2.381 . S
O422 C411 1.275 . S
O423 Ho392 2.305 . S
O423 Ho393 2.669 . S
O423 C411 1.256 . S
H424 C397 0.930 . S
H425 C398 0.931 . S
H426 C400 0.934 . S
H427 C401 0.930 . S
H428 C406 0.930 . S
H429 C407 0.931 . S
H430 C409 0.934 . S
H431 C410 0.930 . S
Ho432 C435 2.811 . S
Ho432 O452 2.322 . S
Ho432 O454 2.378 . S
Ho432 O455 2.524 . S
Ho432 O456 2.381 . S
Ho432 O457 2.669 . S
Ho432 O459 2.346 . S
Ho432 O463 2.305 . S
Ho433 C444 2.811 . S
Ho433 O453 2.346 . S
Ho433 O457 2.305 . S
Ho433 O458 2.322 . S
Ho433 O460 2.378 . S
Ho433 O461 2.524 . S
Ho433 O462 2.381 . S
Ho433 O463 2.669 . S
C434 O452 1.259 . S
C434 O453 1.268 . S
C435 Ho432 2.811 . S
C435 C436 1.488 . S
C435 O454 1.215 . S
C435 O455 1.289 . S
C436 C435 1.488 . S
C436 C437 1.348 . S
C436 C441 1.413 . S
C437 C436 1.348 . S
C437 C438 1.442 . S
C437 H464 0.930 . S
C438 C437 1.442 . S
C438 C439 1.381 . S
C438 H465 0.931 . S
C439 C438 1.381 . S
C439 C440 1.321 . S
C440 C439 1.321 . S
C440 C441 1.403 . S
C440 H466 0.934 . S
C441 C436 1.413 . S
C441 C440 1.403 . S
C441 H467 0.930 . S
C442 O456 1.275 . S
C442 O457 1.256 . S
C443 O458 1.259 . S
C443 O459 1.268 . S
C444 Ho433 2.811 . S
C444 C445 1.488 . S
C444 O460 1.215 . S
C444 O461 1.289 . S
C445 C444 1.488 . S
C445 C446 1.348 . S
C445 C450 1.413 . S
C446 C445 1.348 . S
C446 C447 1.442 . S
C446 H468 0.930 . S
C447 C446 1.442 . S
C447 C448 1.381 . S
C447 H469 0.931 . S
C448 C447 1.381 . S
C448 C449 1.321 . S
C449 C448 1.321 . S
C449 C450 1.403 . S
C449 H470 0.934 . S
C450 C445 1.413 . S
C450 C449 1.403 . S
C450 H471 0.930 . S
C451 O462 1.275 . S
C451 O463 1.256 . S
O452 Ho432 2.322 . S
O452 C434 1.259 . S
O453 Ho433 2.346 . S
O453 C434 1.268 . S
O454 Ho432 2.378 . S
O454 C435 1.215 . S
O455 Ho432 2.524 . S
O455 C435 1.289 . S
O456 Ho432 2.381 . S
O456 C442 1.275 . S
O457 Ho432 2.669 . S
O457 Ho433 2.305 . S
O457 C442 1.256 . S
O458 Ho433 2.322 . S
O458 C443 1.259 . S
O459 Ho432 2.346 . S
O459 C443 1.268 . S
O460 Ho433 2.378 . S
O460 C444 1.215 . S
O461 Ho433 2.524 . S
O461 C444 1.289 . S
O462 Ho433 2.381 . S
O462 C451 1.275 . S
O463 Ho432 2.305 . S
O463 Ho433 2.669 . S
O463 C451 1.256 . S
H464 C437 0.930 . S
H465 C438 0.931 . S
H466 C440 0.934 . S
H467 C441 0.930 . S
H468 C446 0.930 . S
H469 C447 0.931 . S
H470 C449 0.934 . S
H471 C450 0.930 . S
Ho472 C475 2.811 . S
Ho472 O492 2.322 . S
Ho472 O494 2.378 . S
Ho472 O495 2.524 . S
Ho472 O496 2.381 . S
Ho472 O497 2.669 . S
Ho472 O499 2.346 . S
Ho472 O503 2.305 . S
Ho473 C484 2.811 . S
Ho473 O493 2.346 1_565 S
Ho473 O497 2.305 1_565 S
Ho473 O498 2.322 1_565 S
Ho473 O500 2.378 . S
Ho473 O501 2.524 . S
Ho473 O502 2.381 1_565 S
Ho473 O503 2.669 1_565 S
C474 O492 1.259 . S
C474 O493 1.268 . S
C475 Ho472 2.811 . S
C475 C476 1.488 . S
C475 O494 1.215 . S
C475 O495 1.289 . S
C476 C475 1.488 . S
C476 C477 1.348 . S
C476 C481 1.413 . S
C477 C476 1.348 . S
C477 C478 1.442 . S
C477 H504 0.930 . S
C478 C477 1.442 . S
C478 C479 1.381 . S
C478 H505 0.931 . S
C479 C478 1.381 . S
C479 C480 1.321 . S
C480 C479 1.321 . S
C480 C481 1.403 . S
C480 H506 0.934 . S
C481 C476 1.413 . S
C481 C480 1.403 . S
C481 H507 0.930 . S
C482 O496 1.275 . S
C482 O497 1.256 . S
C483 O498 1.259 . S
C483 O499 1.268 . S
C484 Ho473 2.811 . S
C484 C485 1.488 . S
C484 O500 1.215 . S
C484 O501 1.289 . S
C485 C484 1.488 . S
C485 C486 1.348 . S
C485 C490 1.413 . S
C486 C485 1.348 . S
C486 C487 1.442 . S
C486 H508 0.930 . S
C487 C486 1.442 . S
C487 C488 1.381 . S
C487 H509 0.931 . S
C488 C487 1.381 . S
C488 C489 1.321 . S
C489 C488 1.321 . S
C489 C490 1.403 . S
C489 H510 0.934 . S
C490 C485 1.413 . S
C490 C489 1.403 . S
C490 H511 0.930 . S
C491 O502 1.275 . S
C491 O503 1.256 . S
O492 Ho472 2.322 . S
O492 C474 1.259 . S
O493 Ho473 2.346 1_545 S
O493 C474 1.268 . S
O494 Ho472 2.378 . S
O494 C475 1.215 . S
O495 Ho472 2.524 . S
O495 C475 1.289 . S
O496 Ho472 2.381 . S
O496 C482 1.275 . S
O497 Ho472 2.669 . S
O497 Ho473 2.305 1_545 S
O497 C482 1.256 . S
O498 Ho473 2.322 1_545 S
O498 C483 1.259 . S
O499 Ho472 2.346 . S
O499 C483 1.268 . S
O500 Ho473 2.378 . S
O500 C484 1.215 . S
O501 Ho473 2.524 . S
O501 C484 1.289 . S
O502 Ho473 2.381 1_545 S
O502 C491 1.275 . S
O503 Ho472 2.305 . S
O503 Ho473 2.669 1_545 S
O503 C491 1.256 . S
H504 C477 0.930 . S
H505 C478 0.931 . S
H506 C480 0.934 . S
H507 C481 0.930 . S
H508 C486 0.930 . S
H509 C487 0.931 . S
H510 C489 0.934 . S
H511 C490 0.930 . S
Ho512 C515 2.811 . S
Ho512 O532 2.322 . S
Ho512 O534 2.378 . S
Ho512 O535 2.524 . S
Ho512 O536 2.381 . S
Ho512 O537 2.669 . S
Ho512 O539 2.346 . S
Ho512 O543 2.305 . S
Ho513 C524 2.811 . S
Ho513 O533 2.346 . S
Ho513 O537 2.305 . S
Ho513 O538 2.322 . S
Ho513 O540 2.378 . S
Ho513 O541 2.524 . S
Ho513 O542 2.381 . S
Ho513 O543 2.669 . S
C514 O532 1.259 . S
C514 O533 1.268 . S
C515 Ho512 2.811 . S
C515 C516 1.488 . S
C515 O534 1.215 . S
C515 O535 1.289 . S
C516 C515 1.488 . S
C516 C517 1.348 . S
C516 C521 1.413 . S
C517 C516 1.348 . S
C517 C518 1.442 . S
C517 H544 0.930 . S
C518 C517 1.442 . S
C518 C519 1.381 . S
C518 H545 0.931 . S
C519 C518 1.381 . S
C519 C520 1.321 . S
C520 C519 1.321 . S
C520 C521 1.403 . S
C520 H546 0.934 . S
C521 C516 1.413 . S
C521 C520 1.403 . S
C521 H547 0.930 . S
C522 O536 1.275 . S
C522 O537 1.256 . S
C523 O538 1.259 . S
C523 O539 1.268 . S
C524 Ho513 2.811 . S
C524 C525 1.488 . S
C524 O540 1.215 . S
C524 O541 1.289 . S
C525 C524 1.488 . S
C525 C526 1.348 . S
C525 C530 1.413 . S
C526 C525 1.348 . S
C526 C527 1.442 . S
C526 H548 0.930 . S
C527 C526 1.442 . S
C527 C528 1.381 . S
C527 H549 0.931 . S
C528 C527 1.381 . S
C528 C529 1.321 . S
C529 C528 1.321 . S
C529 C530 1.403 . S
C529 H550 0.934 . S
C530 C525 1.413 . S
C530 C529 1.403 . S
C530 H551 0.930 . S
C531 O542 1.275 . S
C531 O543 1.256 . S
O532 Ho512 2.322 . S
O532 C514 1.259 . S
O533 Ho513 2.346 . S
O533 C514 1.268 . S
O534 Ho512 2.378 . S
O534 C515 1.215 . S
O535 Ho512 2.524 . S
O535 C515 1.289 . S
O536 Ho512 2.381 . S
O536 C522 1.275 . S
O537 Ho512 2.669 . S
O537 Ho513 2.305 . S
O537 C522 1.256 . S
O538 Ho513 2.322 . S
O538 C523 1.259 . S
O539 Ho512 2.346 . S
O539 C523 1.268 . S
O540 Ho513 2.378 . S
O540 C524 1.215 . S
O541 Ho513 2.524 . S
O541 C524 1.289 . S
O542 Ho513 2.381 . S
O542 C531 1.275 . S
O543 Ho512 2.305 . S
O543 Ho513 2.669 . S
O543 C531 1.256 . S
H544 C517 0.930 . S
H545 C518 0.931 . S
H546 C520 0.934 . S
H547 C521 0.930 . S
H548 C526 0.930 . S
H549 C527 0.931 . S
H550 C529 0.934 . S
H551 C530 0.930 . S
Ho552 C555 2.811 . S
Ho552 O572 2.322 . S
Ho552 O574 2.378 . S
Ho552 O575 2.524 . S
Ho552 O576 2.381 . S
Ho552 O577 2.669 1_554 S
Ho552 O579 2.346 . S
Ho552 O583 2.305 . S
Ho553 C564 2.811 . S
Ho553 O573 2.346 . S
Ho553 O577 2.305 . S
Ho553 O578 2.322 1_556 S
Ho553 O580 2.378 . S
Ho553 O581 2.524 . S
Ho553 O582 2.381 1_556 S
Ho553 O583 2.669 1_556 S
C554 O572 1.259 . S
C554 O573 1.268 1_554 S
C555 Ho552 2.811 . S
C555 C556 1.488 . S
C555 O574 1.215 . S
C555 O575 1.289 . S
C556 C555 1.488 . S
C556 C557 1.348 . S
C556 C561 1.413 1_545 S
C557 C556 1.348 . S
C557 C558 1.442 . S
C557 H584 0.930 . S
C558 C557 1.442 . S
C558 C559 1.381 1_545 S
C558 H585 0.931 . S
C559 C558 1.381 1_565 S
C559 C560 1.321 . S
C560 C559 1.321 . S
C560 C561 1.403 . S
C560 H586 0.934 . S
C561 C556 1.413 1_565 S
C561 C560 1.403 . S
C561 H587 0.930 . S
C562 O576 1.275 1_556 S
C562 O577 1.256 . S
C563 O578 1.259 . S
C563 O579 1.268 . S
C564 Ho553 2.811 . S
C564 C565 1.488 . S
C564 O580 1.215 . S
C564 O581 1.289 . S
C565 C564 1.488 . S
C565 C566 1.348 . S
C565 C570 1.413 . S
C566 C565 1.348 . S
C566 C567 1.442 . S
C566 H588 0.930 . S
C567 C566 1.442 . S
C567 C568 1.381 . S
C567 H589 0.931 . S
C568 C567 1.381 . S
C568 C569 1.321 . S
C569 C568 1.321 . S
C569 C570 1.403 . S
C569 H590 0.934 . S
C570 C565 1.413 . S
C570 C569 1.403 . S
C570 H591 0.930 . S
C571 O582 1.275 . S
C571 O583 1.256 . S
O572 Ho552 2.322 . S
O572 C554 1.259 . S
O573 Ho553 2.346 . S
O573 C554 1.268 1_556 S
O574 Ho552 2.378 . S
O574 C555 1.215 . S
O575 Ho552 2.524 . S
O575 C555 1.289 . S
O576 Ho552 2.381 . S
O576 C562 1.275 1_554 S
O577 Ho552 2.669 1_556 S
O577 Ho553 2.305 . S
O577 C562 1.256 . S
O578 Ho553 2.322 1_554 S
O578 C563 1.259 . S
O579 Ho552 2.346 . S
O579 C563 1.268 . S
O580 Ho553 2.378 . S
O580 C564 1.215 . S
O581 Ho553 2.524 . S
O581 C564 1.289 . S
O582 Ho553 2.381 1_554 S
O582 C571 1.275 . S
O583 Ho552 2.305 . S
O583 Ho553 2.669 1_554 S
O583 C571 1.256 . S
H584 C557 0.930 . S
H585 C558 0.931 . S
H586 C560 0.934 . S
H587 C561 0.930 . S
H588 C566 0.930 . S
H589 C567 0.931 . S
H590 C569 0.934 . S
H591 C570 0.930 . S
Ho592 C595 2.811 . S
Ho592 O612 2.322 . S
Ho592 O614 2.378 . S
Ho592 O615 2.524 . S
Ho592 O616 2.381 . S
Ho592 O617 2.669 . S
Ho592 O619 2.346 . S
Ho592 O623 2.305 . S
Ho593 C604 2.811 . S
Ho593 O613 2.346 . S
Ho593 O617 2.305 . S
Ho593 O618 2.322 . S
Ho593 O620 2.378 . S
Ho593 O621 2.524 . S
Ho593 O622 2.381 . S
Ho593 O623 2.669 . S
C594 O612 1.259 . S
C594 O613 1.268 . S
C595 Ho592 2.811 . S
C595 C596 1.488 . S
C595 O614 1.215 . S
C595 O615 1.289 . S
C596 C595 1.488 . S
C596 C597 1.348 . S
C596 C601 1.413 . S
C597 C596 1.348 . S
C597 C598 1.442 . S
C597 H624 0.930 . S
C598 C597 1.442 . S
C598 C599 1.381 . S
C598 H625 0.931 . S
C599 C598 1.381 . S
C599 C600 1.321 . S
C600 C599 1.321 . S
C600 C601 1.403 . S
C600 H626 0.934 . S
C601 C596 1.413 . S
C601 C600 1.403 . S
C601 H627 0.930 . S
C602 O616 1.275 . S
C602 O617 1.256 . S
C603 O618 1.259 . S
C603 O619 1.268 . S
C604 Ho593 2.811 . S
C604 C605 1.488 . S
C604 O620 1.215 . S
C604 O621 1.289 . S
C605 C604 1.488 . S
C605 C606 1.348 . S
C605 C610 1.413 . S
C606 C605 1.348 . S
C606 C607 1.442 . S
C606 H628 0.930 . S
C607 C606 1.442 . S
C607 C608 1.381 . S
C607 H629 0.931 . S
C608 C607 1.381 . S
C608 C609 1.321 . S
C609 C608 1.321 . S
C609 C610 1.403 . S
C609 H630 0.934 1_545 S
C610 C605 1.413 . S
C610 C609 1.403 . S
C610 H631 0.930 . S
C611 O622 1.275 . S
C611 O623 1.256 . S
O612 Ho592 2.322 . S
O612 C594 1.259 . S
O613 Ho593 2.346 . S
O613 C594 1.268 . S
O614 Ho592 2.378 . S
O614 C595 1.215 . S
O615 Ho592 2.524 . S
O615 C595 1.289 . S
O616 Ho592 2.381 . S
O616 C602 1.275 . S
O617 Ho592 2.669 . S
O617 Ho593 2.305 . S
O617 C602 1.256 . S
O618 Ho593 2.322 . S
O618 C603 1.259 . S
O619 Ho592 2.346 . S
O619 C603 1.268 . S
O620 Ho593 2.378 . S
O620 C604 1.215 . S
O621 Ho593 2.524 . S
O621 C604 1.289 . S
O622 Ho593 2.381 . S
O622 C611 1.275 . S
O623 Ho592 2.305 . S
O623 Ho593 2.669 . S
O623 C611 1.256 . S
H624 C597 0.930 . S
H625 C598 0.931 . S
H626 C600 0.934 . S
H627 C601 0.930 . S
H628 C606 0.930 . S
H629 C607 0.931 . S
H630 C609 0.934 1_565 S
H631 C610 0.930 . S
Ho632 C635 2.811 . S
Ho632 O652 2.322 1_554 S
Ho632 O654 2.378 . S
Ho632 O655 2.524 . S
Ho632 O656 2.381 . S
Ho632 O657 2.669 . S
Ho632 O659 2.346 . S
Ho632 O663 2.305 . S
Ho633 C644 2.811 1_556 S
Ho633 O653 2.346 . S
Ho633 O657 2.305 1_556 S
Ho633 O658 2.322 1_556 S
Ho633 O660 2.371 1_556 S
Ho633 O661 2.524 1_556 S
Ho633 O662 2.381 . S
Ho633 O663 2.669 1_556 S
C634 O652 1.259 . S
C634 O653 1.268 . S
C635 Ho632 2.811 . S
C635 C636 1.488 . S
C635 O654 1.215 . S
C635 O655 1.289 . S
C636 C635 1.488 . S
C636 C637 1.348 1_554 S
C636 C641 1.413 . S
C637 C636 1.348 1_556 S
C637 C638 1.442 . S
C637 H664 0.930 . S
C638 C637 1.442 . S
C638 C639 1.381 . S
C638 H665 0.931 . S
C639 C638 1.381 . S
C639 C640 1.321 1_556 S
C640 C639 1.321 1_554 S
C640 C641 1.403 . S
C640 H666 0.934 . S
C641 C636 1.413 . S
C641 C640 1.403 . S
C641 H667 0.930 . S
C642 O656 1.275 . S
C642 O657 1.256 . S
C643 O658 1.259 . S
C643 O659 1.268 . S
C644 Ho633 2.811 1_554 S
C644 C645 1.488 . S
C644 O660 1.234 . S
C644 O661 1.289 . S
C645 C644 1.488 . S
C645 C646 1.348 . S
C645 C650 1.413 . S
C646 C645 1.348 . S
C646 C647 1.442 . S
C646 H668 0.930 . S
C647 C646 1.442 . S
C647 C648 1.381 . S
C647 H669 0.931 . S
C648 C647 1.381 . S
C648 C649 1.321 . S
C649 C648 1.321 . S
C649 C650 1.403 . S
C649 H670 0.934 . S
C650 C645 1.413 . S
C650 C649 1.403 . S
C650 H671 0.930 . S
C651 O662 1.275 1_554 S
C651 O663 1.256 . S
O652 Ho632 2.322 1_556 S
O652 C634 1.259 . S
O653 Ho633 2.346 . S
O653 C634 1.268 . S
O654 Ho632 2.378 . S
O654 C635 1.215 . S
O655 Ho632 2.524 . S
O655 C635 1.289 . S
O656 Ho632 2.381 . S
O656 C642 1.275 . S
O657 Ho632 2.669 . S
O657 Ho633 2.305 1_554 S
O657 C642 1.256 . S
O658 Ho633 2.322 1_554 S
O658 C643 1.259 . S
O659 Ho632 2.346 . S
O659 C643 1.268 . S
O660 Ho633 2.371 1_554 S
O660 C644 1.234 . S
O661 Ho633 2.524 1_554 S
O661 C644 1.289 . S
O662 Ho633 2.381 . S
O662 C651 1.275 1_556 S
O663 Ho632 2.305 . S
O663 Ho633 2.669 1_554 S
O663 C651 1.256 . S
H664 C637 0.930 . S
H665 C638 0.931 . S
H666 C640 0.934 . S
H667 C641 0.930 . S
H668 C646 0.930 . S
H669 C647 0.931 . S
H670 C649 0.934 . S
H671 C650 0.930 . S
Ho672 C675 2.811 1_655 S
Ho672 O692 2.322 . S
Ho672 O694 2.378 . S
Ho672 O695 2.524 . S
Ho672 O696 2.381 . S
Ho672 O697 2.669 . S
Ho672 O699 2.346 . S
Ho672 O703 2.305 . S
Ho673 C684 2.811 . S
Ho673 O693 2.346 . S
Ho673 O697 2.305 . S
Ho673 O698 2.322 . S
Ho673 O700 2.378 . S
Ho673 O701 2.524 . S
Ho673 O702 2.381 . S
Ho673 O703 2.669 . S
C674 O692 1.259 . S
C674 O693 1.268 . S
C675 Ho672 2.811 1_455 S
C675 C676 1.488 . S
C675 O694 1.215 1_455 S
C675 O695 1.289 1_455 S
C676 C675 1.488 . S
C676 C677 1.348 . S
C676 C681 1.413 . S
C677 C676 1.348 . S
C677 C678 1.442 . S
C677 H704 0.930 . S
C678 C677 1.442 . S
C678 C679 1.381 . S
C678 H705 0.931 . S
C679 C678 1.381 . S
C679 C680 1.321 . S
C680 C679 1.321 . S
C680 C681 1.403 . S
C680 H706 0.934 . S
C681 C676 1.413 . S
C681 C680 1.403 . S
C681 H707 0.930 . S
C682 O696 1.275 . S
C682 O697 1.256 . S
C683 O698 1.259 . S
C683 O699 1.268 . S
C684 Ho673 2.811 . S
C684 C685 1.488 . S
C684 O700 1.215 . S
C684 O701 1.289 . S
C685 C684 1.488 . S
C685 C686 1.348 . S
C685 C690 1.413 . S
C686 C685 1.348 . S
C686 C687 1.442 . S
C686 H708 0.930 . S
C687 C686 1.442 . S
C687 C688 1.381 . S
C687 H709 0.931 . S
C688 C687 1.381 . S
C688 C689 1.321 . S
C689 C688 1.321 . S
C689 C690 1.403 . S
C689 H710 0.934 . S
C690 C685 1.413 . S
C690 C689 1.403 . S
C690 H711 0.930 . S
C691 O702 1.275 . S
C691 O703 1.256 . S
O692 Ho672 2.322 . S
O692 C674 1.259 . S
O693 Ho673 2.346 . S
O693 C674 1.268 . S
O694 Ho672 2.378 . S
O694 C675 1.215 1_655 S
O695 Ho672 2.524 . S
O695 C675 1.289 1_655 S
O696 Ho672 2.381 . S
O696 C682 1.275 . S
O697 Ho672 2.669 . S
O697 Ho673 2.305 . S
O697 C682 1.256 . S
O698 Ho673 2.322 . S
O698 C683 1.259 . S
O699 Ho672 2.346 . S
O699 C683 1.268 . S
O700 Ho673 2.378 . S
O700 C684 1.215 . S
O701 Ho673 2.524 . S
O701 C684 1.289 . S
O702 Ho673 2.381 . S
O702 C691 1.275 . S
O703 Ho672 2.305 . S
O703 Ho673 2.669 . S
O703 C691 1.256 . S
H704 C677 0.930 . S
H705 C678 0.931 . S
H706 C680 0.934 . S
H707 C681 0.930 . S
H708 C686 0.930 . S
H709 C687 0.931 . S
H710 C689 0.934 . S
H711 C690 0.930 . S
Ho712 C715 2.811 . S
Ho712 O732 2.322 . S
Ho712 O734 2.378 . S
Ho712 O735 2.524 . S
Ho712 O736 2.381 . S
Ho712 O737 2.669 . S
Ho712 O739 2.346 . S
Ho712 O743 2.305 . S
Ho713 C724 2.811 . S
Ho713 O733 2.346 . S
Ho713 O737 2.305 . S
Ho713 O738 2.322 . S
Ho713 O740 2.378 . S
Ho713 O741 2.524 . S
Ho713 O742 2.381 . S
Ho713 O743 2.669 . S
C714 O732 1.259 . S
C714 O733 1.268 . S
C715 Ho712 2.811 . S
C715 C716 1.488 . S
C715 O734 1.215 . S
C715 O735 1.289 . S
C716 C715 1.488 . S
C716 C717 1.348 . S
C716 C721 1.413 . S
C717 C716 1.348 . S
C717 C718 1.442 1_455 S
C717 H744 0.930 1_455 S
C718 C717 1.442 1_655 S
C718 C719 1.381 . S
C718 H745 0.931 . S
C719 C718 1.381 . S
C719 C720 1.321 1_655 S
C720 C719 1.321 1_455 S
C720 C721 1.403 . S
C720 H746 0.934 . S
C721 C716 1.413 . S
C721 C720 1.403 . S
C721 H747 0.930 . S
C722 O736 1.275 . S
C722 O737 1.256 . S
C723 O738 1.259 . S
C723 O739 1.268 . S
C724 Ho713 2.811 . S
C724 C725 1.488 . S
C724 O740 1.215 . S
C724 O741 1.289 . S
C725 C724 1.488 . S
C725 C726 1.348 . S
C725 C730 1.413 . S
C726 C725 1.348 . S
C726 C727 1.442 . S
C726 H748 0.930 . S
C727 C726 1.442 . S
C727 C728 1.381 . S
C727 H749 0.931 . S
C728 C727 1.381 . S
C728 C729 1.321 . S
C729 C728 1.321 . S
C729 C730 1.403 . S
C729 H750 0.934 . S
C730 C725 1.413 . S
C730 C729 1.403 . S
C730 H751 0.930 . S
C731 O742 1.275 . S
C731 O743 1.256 . S
O732 Ho712 2.322 . S
O732 C714 1.259 . S
O733 Ho713 2.346 . S
O733 C714 1.268 . S
O734 Ho712 2.378 . S
O734 C715 1.215 . S
O735 Ho712 2.524 . S
O735 C715 1.289 . S
O736 Ho712 2.381 . S
O736 C722 1.275 . S
O737 Ho712 2.669 . S
O737 Ho713 2.305 . S
O737 C722 1.256 . S
O738 Ho713 2.322 . S
O738 C723 1.259 . S
O739 Ho712 2.346 . S
O739 C723 1.268 . S
O740 Ho713 2.378 . S
O740 C724 1.215 . S
O741 Ho713 2.524 . S
O741 C724 1.289 . S
O742 Ho713 2.381 . S
O742 C731 1.275 . S
O743 Ho712 2.305 . S
O743 Ho713 2.669 . S
O743 C731 1.256 . S
H744 C717 0.930 1_655 S
H745 C718 0.931 . S
H746 C720 0.934 . S
H747 C721 0.930 . S
H748 C726 0.930 . S
H749 C727 0.931 . S
H750 C729 0.934 . S
H751 C730 0.930 . S
Ho752 C755 2.811 . S
Ho752 O772 2.322 . S
Ho752 O774 2.378 . S
Ho752 O775 2.524 . S
Ho752 O776 2.381 . S
Ho752 O777 2.669 . S
Ho752 O779 2.346 . S
Ho752 O783 2.305 . S
Ho753 C764 2.811 . S
Ho753 O773 2.346 . S
Ho753 O777 2.305 . S
Ho753 O778 2.322 . S
Ho753 O780 2.378 . S
Ho753 O781 2.524 . S
Ho753 O782 2.381 . S
Ho753 O783 2.669 . S
C754 O772 1.259 . S
C754 O773 1.268 . S
C755 Ho752 2.811 . S
C755 C756 1.488 . S
C755 O774 1.215 . S
C755 O775 1.289 . S
C756 C755 1.488 . S
C756 C757 1.348 . S
C756 C761 1.413 . S
C757 C756 1.348 . S
C757 C758 1.442 . S
C757 H784 0.930 . S
C758 C757 1.442 . S
C758 C759 1.381 . S
C758 H785 0.931 . S
C759 C758 1.381 . S
C759 C760 1.321 . S
C760 C759 1.321 . S
C760 C761 1.403 . S
C760 H786 0.934 . S
C761 C756 1.413 . S
C761 C760 1.403 . S
C761 H787 0.930 . S
C762 O776 1.275 . S
C762 O777 1.256 . S
C763 O778 1.259 . S
C763 O779 1.268 . S
C764 Ho753 2.811 . S
C764 C765 1.488 . S
C764 O780 1.215 . S
C764 O781 1.289 . S
C765 C764 1.488 . S
C765 C766 1.348 1_655 S
C765 C770 1.413 1_655 S
C766 C765 1.348 1_455 S
C766 C767 1.442 . S
C766 H788 0.930 . S
C767 C766 1.442 . S
C767 C768 1.381 . S
C767 H789 0.931 . S
C768 C767 1.381 . S
C768 C769 1.321 . S
C769 C768 1.321 . S
C769 C770 1.403 . S
C769 H790 0.934 . S
C770 C765 1.413 1_455 S
C770 C769 1.403 . S
C770 H791 0.930 1_455 S
C771 O782 1.275 . S
C771 O783 1.256 . S
O772 Ho752 2.322 . S
O772 C754 1.259 . S
O773 Ho753 2.346 . S
O773 C754 1.268 . S
O774 Ho752 2.378 . S
O774 C755 1.215 . S
O775 Ho752 2.524 . S
O775 C755 1.289 . S
O776 Ho752 2.381 . S
O776 C762 1.275 . S
O777 Ho752 2.669 . S
O777 Ho753 2.305 . S
O777 C762 1.256 . S
O778 Ho753 2.322 . S
O778 C763 1.259 . S
O779 Ho752 2.346 . S
O779 C763 1.268 . S
O780 Ho753 2.378 . S
O780 C764 1.215 . S
O781 Ho753 2.524 . S
O781 C764 1.289 . S
O782 Ho753 2.381 . S
O782 C771 1.275 . S
O783 Ho752 2.305 . S
O783 Ho753 2.669 . S
O783 C771 1.256 . S
H784 C757 0.930 . S
H785 C758 0.931 . S
H786 C760 0.934 . S
H787 C761 0.930 . S
H788 C766 0.930 . S
H789 C767 0.931 . S
H790 C769 0.934 . S
H791 C770 0.930 1_655 S
Ho792 C795 2.811 . S
Ho792 O812 2.322 . S
Ho792 O814 2.378 . S
Ho792 O815 2.524 . S
Ho792 O816 2.381 . S
Ho792 O817 2.669 . S
Ho792 O819 2.346 . S
Ho792 O823 2.305 . S
Ho793 C804 2.811 . S
Ho793 O813 2.346 . S
Ho793 O817 2.305 . S
Ho793 O818 2.322 . S
Ho793 O820 2.378 . S
Ho793 O821 2.524 . S
Ho793 O822 2.381 . S
Ho793 O823 2.669 . S
C794 O812 1.259 . S
C794 O813 1.268 . S
C795 Ho792 2.811 . S
C795 C796 1.488 . S
C795 O814 1.215 . S
C795 O815 1.289 . S
C796 C795 1.488 . S
C796 C797 1.348 . S
C796 C801 1.413 . S
C797 C796 1.348 . S
C797 C798 1.442 . S
C797 H824 0.930 . S
C798 C797 1.442 . S
C798 C799 1.381 . S
C798 H825 0.931 . S
C799 C798 1.381 . S
C799 C800 1.321 . S
C800 C799 1.321 . S
C800 C801 1.403 . S
C800 H826 0.934 1_655 S
C801 C796 1.413 . S
C801 C800 1.403 . S
C801 H827 0.930 . S
C802 O816 1.275 . S
C802 O817 1.256 . S
C803 O818 1.259 . S
C803 O819 1.268 . S
C804 Ho793 2.811 . S
C804 C805 1.488 . S
C804 O820 1.215 . S
C804 O821 1.289 . S
C805 C804 1.488 . S
C805 C806 1.348 . S
C805 C810 1.413 . S
C806 C805 1.348 . S
C806 C807 1.459 . S
C806 H828 0.930 . S
C807 C806 1.459 . S
C807 C808 1.373 1_556 S
C807 H829 0.921 1_556 S
C808 C807 1.373 1_554 S
C808 C809 1.321 . S
C809 C808 1.321 . S
C809 C810 1.403 1_554 S
C809 H830 0.934 . S
C810 C805 1.413 . S
C810 C809 1.403 1_556 S
C810 H831 0.930 . S
C811 O822 1.275 . S
C811 O823 1.256 . S
O812 Ho792 2.322 . S
O812 C794 1.259 . S
O813 Ho793 2.346 . S
O813 C794 1.268 . S
O814 Ho792 2.378 . S
O814 C795 1.215 . S
O815 Ho792 2.524 . S
O815 C795 1.289 . S
O816 Ho792 2.381 . S
O816 C802 1.275 . S
O817 Ho792 2.669 . S
O817 Ho793 2.305 . S
O817 C802 1.256 . S
O818 Ho793 2.322 . S
O818 C803 1.259 . S
O819 Ho792 2.346 . S
O819 C803 1.268 . S
O820 Ho793 2.378 . S
O820 C804 1.215 . S
O821 Ho793 2.524 . S
O821 C804 1.289 . S
O822 Ho793 2.381 . S
O822 C811 1.275 . S
O823 Ho792 2.305 . S
O823 Ho793 2.669 . S
O823 C811 1.256 . S
H824 C797 0.930 . S
H825 C798 0.931 . S
H826 C800 0.934 1_455 S
H827 C801 0.930 . S
H828 C806 0.930 . S
H829 C807 0.921 1_554 S
H830 C809 0.934 . S
H831 C810 0.930 . S
Ho832 C835 2.811 . S
Ho832 O852 2.322 . S
Ho832 O854 2.378 . S
Ho832 O855 2.524 . S
Ho832 O856 2.381 . S
Ho832 O857 2.669 . S
Ho832 O859 2.346 . S
Ho832 O863 2.305 . S
Ho833 C844 2.811 . S
Ho833 O853 2.346 . S
Ho833 O857 2.305 . S
Ho833 O858 2.322 . S
Ho833 O860 2.378 . S
Ho833 O861 2.524 . S
Ho833 O862 2.381 . S
Ho833 O863 2.669 . S
C834 O852 1.259 . S
C834 O853 1.268 . S
C835 Ho832 2.811 . S
C835 C836 1.488 1_565 S
C835 O854 1.215 . S
C835 O855 1.289 . S
C836 C835 1.488 1_545 S
C836 C837 1.348 . S
C836 C841 1.413 . S
C837 C836 1.348 . S
C837 C838 1.442 . S
C837 H864 0.930 . S
C838 C837 1.442 . S
C838 C839 1.381 . S
C838 H865 0.931 . S
C839 C838 1.381 . S
C839 C840 1.321 . S
C840 C839 1.321 . S
C840 C841 1.403 . S
C840 H866 0.934 . S
C841 C836 1.413 . S
C841 C840 1.403 . S
C841 H867 0.930 . S
C842 O856 1.275 . S
C842 O857 1.256 . S
C843 O858 1.259 . S
C843 O859 1.268 . S
C844 Ho833 2.811 . S
C844 C845 1.488 . S
C844 O860 1.215 . S
C844 O861 1.289 . S
C845 C844 1.488 . S
C845 C846 1.348 . S
C845 C850 1.413 . S
C846 C845 1.348 . S
C846 C847 1.442 . S
C846 H868 0.930 . S
C847 C846 1.442 . S
C847 C848 1.381 . S
C847 H869 0.931 . S
C848 C847 1.381 . S
C848 C849 1.321 . S
C849 C848 1.321 . S
C849 C850 1.403 . S
C849 H870 0.934 . S
C850 C845 1.413 . S
C850 C849 1.403 . S
C850 H871 0.930 . S
C851 O862 1.275 . S
C851 O863 1.256 . S
O852 Ho832 2.322 . S
O852 C834 1.259 . S
O853 Ho833 2.346 . S
O853 C834 1.268 . S
O854 Ho832 2.378 . S
O854 C835 1.215 . S
O855 Ho832 2.524 . S
O855 C835 1.289 . S
O856 Ho832 2.381 . S
O856 C842 1.275 . S
O857 Ho832 2.669 . S
O857 Ho833 2.305 . S
O857 C842 1.256 . S
O858 Ho833 2.322 . S
O858 C843 1.259 . S
O859 Ho832 2.346 . S
O859 C843 1.268 . S
O860 Ho833 2.378 . S
O860 C844 1.215 . S
O861 Ho833 2.524 . S
O861 C844 1.289 . S
O862 Ho833 2.381 . S
O862 C851 1.275 . S
O863 Ho832 2.305 . S
O863 Ho833 2.669 . S
O863 C851 1.256 . S
H864 C837 0.930 . S
H865 C838 0.931 . S
H866 C840 0.934 . S
H867 C841 0.930 . S
H868 C846 0.930 . S
H869 C847 0.931 . S
H870 C849 0.934 . S
H871 C850 0.930 . S
Ho872 C875 2.811 . S
Ho872 O892 2.322 . S
Ho872 O894 2.378 . S
Ho872 O895 2.524 . S
Ho872 O896 2.381 . S
Ho872 O897 2.669 . S
Ho872 O899 2.346 . S
Ho872 O903 2.305 . S
Ho873 C884 2.811 . S
Ho873 O893 2.346 . S
Ho873 O897 2.305 . S
Ho873 O898 2.322 . S
Ho873 O900 2.378 . S
Ho873 O901 2.524 . S
Ho873 O902 2.381 . S
Ho873 O903 2.669 . S
C874 O892 1.259 . S
C874 O893 1.268 . S
C875 Ho872 2.811 . S
C875 C876 1.488 . S
C875 O894 1.215 . S
C875 O895 1.289 . S
C876 C875 1.488 . S
C876 C877 1.348 . S
C876 C881 1.413 . S
C877 C876 1.348 . S
C877 C878 1.442 . S
C877 H904 0.930 . S
C878 C877 1.442 . S
C878 C879 1.381 . S
C878 H905 0.931 . S
C879 C878 1.381 . S
C879 C880 1.321 . S
C880 C879 1.321 . S
C880 C881 1.403 . S
C880 H906 0.934 . S
C881 C876 1.413 . S
C881 C880 1.403 . S
C881 H907 0.930 . S
C882 O896 1.275 . S
C882 O897 1.256 . S
C883 O898 1.259 . S
C883 O899 1.268 . S
C884 Ho873 2.811 . S
C884 C885 1.488 . S
C884 O900 1.215 . S
C884 O901 1.289 . S
C885 C884 1.488 . S
C885 C886 1.348 . S
C885 C890 1.413 . S
C886 C885 1.348 . S
C886 C887 1.442 . S
C886 H908 0.930 . S
C887 C886 1.442 . S
C887 C888 1.381 . S
C887 H909 0.931 . S
C888 C887 1.381 . S
C888 C889 1.321 . S
C889 C888 1.321 . S
C889 C890 1.403 . S
C889 H910 0.934 . S
C890 C885 1.413 . S
C890 C889 1.403 . S
C890 H911 0.930 . S
C891 O902 1.275 . S
C891 O903 1.256 . S
O892 Ho872 2.322 . S
O892 C874 1.259 . S
O893 Ho873 2.346 . S
O893 C874 1.268 . S
O894 Ho872 2.378 . S
O894 C875 1.215 . S
O895 Ho872 2.524 . S
O895 C875 1.289 . S
O896 Ho872 2.381 . S
O896 C882 1.275 . S
O897 Ho872 2.669 . S
O897 Ho873 2.305 . S
O897 C882 1.256 . S
O898 Ho873 2.322 . S
O898 C883 1.259 . S
O899 Ho872 2.346 . S
O899 C883 1.268 . S
O900 Ho873 2.378 . S
O900 C884 1.215 . S
O901 Ho873 2.524 . S
O901 C884 1.289 . S
O902 Ho873 2.381 . S
O902 C891 1.275 . S
O903 Ho872 2.305 . S
O903 Ho873 2.669 . S
O903 C891 1.256 . S
H904 C877 0.930 . S
H905 C878 0.931 . S
H906 C880 0.934 . S
H907 C881 0.930 . S
H908 C886 0.930 . S
H909 C887 0.931 . S
H910 C889 0.934 . S
H911 C890 0.930 . S
Ho912 C915 2.811 . S
Ho912 O932 2.322 . S
Ho912 O934 2.378 1_554 S
Ho912 O935 2.524 . S
Ho912 O936 2.381 1_554 S
Ho912 O937 2.669 . S
Ho912 O939 2.346 . S
Ho912 O943 2.305 . S
Ho913 C924 2.811 . S
Ho913 O933 2.346 . S
Ho913 O937 2.305 . S
Ho913 O938 2.322 . S
Ho913 O940 2.378 . S
Ho913 O941 2.524 . S
Ho913 O942 2.381 . S
Ho913 O943 2.669 . S
C914 O932 1.259 . S
C914 O933 1.268 . S
C915 Ho912 2.811 . S
C915 C916 1.488 . S
C915 O934 1.215 1_554 S
C915 O935 1.289 . S
C916 C915 1.488 . S
C916 C917 1.348 . S
C916 C921 1.413 1_554 S
C917 C916 1.348 . S
C917 C918 1.442 . S
C917 H944 0.930 . S
C918 C917 1.442 . S
C918 C919 1.381 1_554 S
C918 H945 0.931 . S
C919 C918 1.381 1_556 S
C919 C920 1.321 . S
C920 C919 1.321 . S
C920 C921 1.403 . S
C920 H946 0.934 . S
C921 C916 1.413 1_556 S
C921 C920 1.403 . S
C921 H947 0.930 . S
C922 O936 1.275 . S
C922 O937 1.256 1_556 S
C923 O938 1.259 . S
C923 O939 1.268 . S
C924 Ho913 2.811 . S
C924 C925 1.488 1_455 S
C924 O940 1.215 . S
C924 O941 1.289 . S
C925 C924 1.488 1_655 S
C925 C926 1.348 . S
C925 C930 1.413 . S
C926 C925 1.348 . S
C926 C927 1.442 . S
C926 H948 0.930 . S
C927 C926 1.442 . S
C927 C928 1.381 . S
C927 H949 0.931 . S
C928 C927 1.381 . S
C928 C929 1.321 . S
C929 C928 1.321 . S
C929 C930 1.403 . S
C929 H950 0.934 . S
C930 C925 1.413 . S
C930 C929 1.403 . S
C930 H951 0.930 . S
C931 O942 1.275 . S
C931 O943 1.256 . S
O932 Ho912 2.322 . S
O932 C914 1.259 . S
O933 Ho913 2.346 . S
O933 C914 1.268 . S
O934 Ho912 2.378 1_556 S
O934 C915 1.215 1_556 S
O935 Ho912 2.524 . S
O935 C915 1.289 . S
O936 Ho912 2.381 1_556 S
O936 C922 1.275 . S
O937 Ho912 2.669 . S
O937 Ho913 2.305 . S
O937 C922 1.256 1_554 S
O938 Ho913 2.322 . S
O938 C923 1.259 . S
O939 Ho912 2.346 . S
O939 C923 1.268 . S
O940 Ho913 2.378 . S
O940 C924 1.215 . S
O941 Ho913 2.524 . S
O941 C924 1.289 . S
O942 Ho913 2.381 . S
O942 C931 1.275 . S
O943 Ho912 2.305 . S
O943 Ho913 2.669 . S
O943 C931 1.256 . S
H944 C917 0.930 . S
H945 C918 0.931 . S
H946 C920 0.934 . S
H947 C921 0.930 . S
H948 C926 0.930 . S
H949 C927 0.931 . S
H950 C929 0.934 . S
H951 C930 0.930 . S
C101 C314 3.406 1_556 S
C57 C371 3.602 . S
C70 C394 1.474 . S
C448 C82 1.853 . S
C23 C488 3.996 . S
C519 C29 2.076 . S
C571 C49 3.859 . S
C10 C594 3.806 . S
C331 C218 3.858 . S
C226 C368 2.607 . S
C411 C251 2.155 . S
C434 C159 1.913 . S
C211 C474 3.002 . S
C522 C225 2.561 . S
C568 C252 1.293 . S
C611 C166 3.498 . S
C328 C147 3.519 . S
C263 C651 3.061 1_556 S
C683 C309 3.999 . S
C714 C291 0.458 . S
C108 C608 4.975 . S
C121 C408 3.021 . S
C302 C771 3.181 . S
C794 C276 2.463 . S
C323 C55 3.531 . S
C802 C96 3.490 . S
C88 C403 1.884 . S
C75 C759 1.986 . S
C479 C4 3.612 . S
C44 C688 1.558 . S
C562 C31 3.649 . S
C843 C18 3.510 . S
C322 C133 3.977 . S
C799 C296 1.533 . S
C107 C402 1.648 . S
C264 C763 2.173 . S
C140 C483 3.111 . S
C691 C289 2.178 . S
C114 C559 1.019 1_545 S
C265 C842 3.582 . S
C179 C319 3.487 1_554 S
C161 C642 2.927 . S
C244 C514 4.173 . S
C224 C723 1.794 . S
C839 C257 4.413 . S
C199 C399 2.642 . S
C442 C237 3.229 . S
C363 C185 1.143 . S
C69 C874 3.406 . S
C811 C83 3.597 . S
C94 C914 1.472 . S
C56 C768 1.849 . S
C42 C648 4.026 . S
C679 C3 2.091 . S
C731 C16 3.858 1_455 S
C834 C36 3.805 . S
C891 C238 3.856 . S
C174 C808 2.593 1_556 S
C931 C186 2.153 . S
C754 C198 1.914 . S
C634 C239 3.008 . S
C173 C682 2.569 . S
C728 C187 1.305 . S
C205 C851 3.503 . S
C888 C290 3.505 . S
C122 C491 3.057 . S
C523 C134 4.010 . S
C554 C148 0.434 . S
C848 C283 4.955 . S
C270 C928 3.009 . S
C451 C135 3.178 . S
C354 C109 2.455 . S
C81 C883 3.532 . S
C362 C68 3.485 . S
C62 C923 1.888 . S
C95 C439 1.983 . S
C30 C639 3.604 . S
C528 C17 1.535 . S
C5 C722 3.651 . S
C43 C603 3.509 . S
C882 C304 3.977 . S
C153 C359 1.540 . S
C922 C278 1.680 . S
C127 C443 2.175 . S
C303 C643 3.095 . S
C531 C146 2.148 . S
C277 C719 0.985 1_455 S
C602 C120 3.583 . S
C879 C231 3.486 . S
C482 C200 2.928 1_445 S
C212 C674 4.182 . S
C563 C172 1.782 . S
C192 C599 4.406 . S
C160 C919 2.642 1_554 S
C762 C213 3.232 1_565 S
C803 C250 1.138 . S
