# Generated by pormake.
# Topology zzz, (3,6)-cn, num edge types: 1
# Building blocks:
#     Node 0, Type 0, BuildingBlock: OLANEW_clean_sbu_2, # of connection points: 3
#     Node 1, Type 0, BuildingBlock: OLANEW_clean_sbu_2, # of connection points: 3
#     Node 2, Type 0, BuildingBlock: OLANEW_clean_sbu_2, # of connection points: 3
#     Node 3, Type 0, BuildingBlock: OLANEW_clean_sbu_2, # of connection points: 3
#     Node 4, Type 0, BuildingBlock: OLANEW_clean_sbu_2, # of connection points: 3
#     Node 5, Type 0, BuildingBlock: OLANEW_clean_sbu_2, # of connection points: 3
#     Node 6, Type 0, BuildingBlock: OLANEW_clean_sbu_2, # of connection points: 3
#     Node 7, Type 0, BuildingBlock: OLANEW_clean_sbu_2, # of connection points: 3
#     Node 8, Type 1, BuildingBlock: CUWYAW_clean_sbu_0, # of connection points: 6
#     Node 9, Type 1, BuildingBlock: CUWYAW_clean_sbu_0, # of connection points: 6
#     Node 10, Type 1, BuildingBlock: CUWYAW_clean_sbu_0, # of connection points: 6
#     Node 11, Type 1, BuildingBlock: CUWYAW_clean_sbu_0, # of connection points: 6
#     Edge 12, Type (0, 1), BuildingBlock: XUDNAN_clean_linker_2, # of connection points: 2
#     Edge 13, Type (0, 1), BuildingBlock: XUDNAN_clean_linker_2, # of connection points: 2
#     Edge 14, Type (0, 1), BuildingBlock: XUDNAN_clean_linker_2, # of connection points: 2
#     Edge 15, Type (0, 1), BuildingBlock: XUDNAN_clean_linker_2, # of connection points: 2
#     Edge 16, Type (0, 1), BuildingBlock: XUDNAN_clean_linker_2, # of connection points: 2
#     Edge 17, Type (0, 1), BuildingBlock: XUDNAN_clean_linker_2, # of connection points: 2
#     Edge 18, Type (0, 1), BuildingBlock: XUDNAN_clean_linker_2, # of connection points: 2
#     Edge 19, Type (0, 1), BuildingBlock: XUDNAN_clean_linker_2, # of connection points: 2
#     Edge 20, Type (0, 1), BuildingBlock: XUDNAN_clean_linker_2, # of connection points: 2
#     Edge 21, Type (0, 1), BuildingBlock: XUDNAN_clean_linker_2, # of connection points: 2
#     Edge 22, Type (0, 1), BuildingBlock: XUDNAN_clean_linker_2, # of connection points: 2
#     Edge 23, Type (0, 1), BuildingBlock: XUDNAN_clean_linker_2, # of connection points: 2
#     Edge 24, Type (0, 1), BuildingBlock: XUDNAN_clean_linker_2, # of connection points: 2
#     Edge 25, Type (0, 1), BuildingBlock: XUDNAN_clean_linker_2, # of connection points: 2
#     Edge 26, Type (0, 1), BuildingBlock: XUDNAN_clean_linker_2, # of connection points: 2
#     Edge 27, Type (0, 1), BuildingBlock: XUDNAN_clean_linker_2, # of connection points: 2
#     Edge 28, Type (0, 1), BuildingBlock: XUDNAN_clean_linker_2, # of connection points: 2
#     Edge 29, Type (0, 1), BuildingBlock: XUDNAN_clean_linker_2, # of connection points: 2
#     Edge 30, Type (0, 1), BuildingBlock: XUDNAN_clean_linker_2, # of connection points: 2
#     Edge 31, Type (0, 1), BuildingBlock: XUDNAN_clean_linker_2, # of connection points: 2
#     Edge 32, Type (0, 1), BuildingBlock: XUDNAN_clean_linker_2, # of connection points: 2
#     Edge 33, Type (0, 1), BuildingBlock: XUDNAN_clean_linker_2, # of connection points: 2
#     Edge 34, Type (0, 1), BuildingBlock: XUDNAN_clean_linker_2, # of connection points: 2
#     Edge 35, Type (0, 1), BuildingBlock: XUDNAN_clean_linker_2, # of connection points: 2
# Relax obj value: 0.233
# Max RMSD: 0.164
# Mean RMSD: 0.146
data_MOF--net-zzz--node1-OLANEW_clean_sbu_2--node2-CUWYAW_clean_sbu_0--edge1-XUDNAN_clean_linker_2
_symmetry_space_group_name_H-M    P1
_symmetry_Int_Tables_number       1
_symmetry_cell_setting            triclinic
loop_
_symmetry_equiv_pos_as_xyz
'x, y, z'
_cell_length_a     55.621591
_cell_length_b     55.688434
_cell_length_c     16.0118
_cell_angle_alpha  89.882394
_cell_angle_beta   89.965079
_cell_angle_gamma 90.006186
loop_
_atom_site_label
_atom_site_type_symbol
_atom_site_fract_x
_atom_site_fract_y
_atom_site_fract_z
_atom_type_partial_charge
O0 O 0.74862 0.50279 0.16811 0.0
Cd1 Cd 0.70959 0.51862 0.21282 0.0
O2 O 0.74797 0.48738 0.29336 0.0
Cd3 Cd 0.76373 0.4725 0.4064 0.0
O4 O 0.79179 0.47024 0.49983 0.0
C5 C 0.81031 0.48224 0.4797 0.0
O6 O 0.81025 0.49416 0.40879 0.0
C7 C 0.75917 0.49092 0.22508 0.0
C8 C 0.67359 0.51908 0.0923 0.0
O9 O 0.68884 0.53627 0.09775 0.0
O10 O 0.67564 0.50135 0.14298 0.0
O11 O 0.95469 0.73781 0.18098 0.0
Cd12 Cd 0.93465 0.6992 0.20189 0.0
O13 O 0.95866 0.73837 0.31684 0.0
Cd14 Cd 0.96605 0.75564 0.43635 0.0
O15 O 0.97414 0.78301 0.5289 0.0
C16 C 0.96934 0.80433 0.50619 0.0
O17 O 0.95929 0.80785 0.43294 0.0
C18 C 0.96185 0.74851 0.24635 0.0
C19 C 0.95856 0.66078 0.12796 0.0
O20 O 0.94259 0.67276 0.08793 0.0
O21 O 0.96342 0.66716 0.20296 0.0
O22 O 0.76233 0.98871 0.30029 0.0
Cd23 Cd 0.80004 0.97577 0.36487 0.0
O24 O 0.76837 0.02558 0.34388 0.0
Cd25 Cd 0.7529 0.06076 0.36927 0.0
O26 O 0.71518 0.06699 0.39631 0.0
C27 C 0.70668 0.05254 0.45021 0.0
O28 O 0.72135 0.03752 0.48781 0.0
C29 C 0.75539 0.01039 0.30536 0.0
C30 C 0.83661 0.9722 0.24664 0.0
O31 O 0.82221 0.95466 0.26037 0.0
O32 O 0.83386 0.99143 0.28948 0.0
O33 O 0.54279 0.75724 0.12237 0.0
Cd34 Cd 0.56271 0.79313 0.17604 0.0
O35 O 0.52528 0.75195 0.24344 0.0
Cd36 Cd 0.50292 0.73393 0.33665 0.0
O37 O 0.49232 0.70491 0.42004 0.0
C38 C 0.49849 0.70468 0.49638 0.0
O39 O 0.51015 0.72319 0.52703 0.0
C40 C 0.52916 0.74479 0.16914 0.0
C41 C 0.56028 0.83056 0.06096 0.0
O42 O 0.57719 0.81496 0.05742 0.0
O43 O 0.54465 0.82856 0.11943 0.0
O44 O 0.27255 0.4997 0.12896 0.0
Cd45 Cd 0.31404 0.50774 0.08702 0.0
O46 O 0.26908 0.47044 0.03825 0.0
Cd47 Cd 0.24975 0.44165 0.97418 0.0
O48 O 0.23881 0.40411 0.9329 0.0
C49 C 0.22253 0.39954 0.87889 0.0
O50 O 0.23928 0.40326 0.93425 0.0
C51 C 0.26008 0.483 0.09667 0.0
C52 C 0.34318 0.51325 0.22759 0.0
O53 O 0.33194 0.53115 0.19581 0.0
O54 O 0.34086 0.49273 0.19235 0.0
O55 O 0.9934 0.27469 0.16439 0.0
Cd56 Cd 0.01056 0.30972 0.09441 0.0
O57 O 0.03039 0.26502 0.19702 0.0
Cd58 Cd 0.04159 0.27563 0.07211 0.0
O59 O 0.03592 0.24543 0.98646 0.0
C60 C 0.03667 0.22496 0.02199 0.0
O61 O 0.04228 0.22391 0.10158 0.0
C62 C 0.00793 0.26236 0.20822 0.0
C63 C 0.02452 0.34108 0.22116 0.0
O64 O 0.00402 0.34327 0.18542 0.0
O65 O 0.03876 0.32468 0.19475 0.0
O66 O 0.21795 0.04027 0.2013 0.0
Cd67 Cd 0.17635 0.04577 0.15643 0.0
O68 O 0.22826 0.06658 0.1053 0.0
Cd69 Cd 0.25873 0.08242 0.03983 0.0
O70 O 0.29364 0.06847 0.00206 0.0
C71 C 0.29319 0.04637 0.98245 0.0
O72 O 0.27257 0.03487 0.98453 0.0
C73 C 0.23402 0.05262 0.16489 0.0
C74 C 0.14614 0.04816 0.29486 0.0
O75 O 0.14898 0.02842 0.25503 0.0
O76 O 0.15733 0.06681 0.26854 0.0
O77 O 0.52241 0.23868 0.14645 0.0
Cd78 Cd 0.53559 0.19798 0.11292 0.0
O79 O 0.50632 0.24002 0.02216 0.0
Cd80 Cd 0.48605 0.2522 0.91241 0.0
O81 O 0.47037 0.24785 0.78753 0.0
C82 C 0.46548 0.26442 0.73547 0.0
O83 O 0.45805 0.25851 0.66042 0.0
C84 C 0.51079 0.25031 0.09135 0.0
C85 C 0.52048 0.16453 0.23142 0.0
O86 O 0.54084 0.17513 0.23832 0.0
O87 O 0.50725 0.16982 0.16849 0.0
C88 C 0.98508 0.03239 0.55346 0.0
Eu89 Eu 0.99074 0.01618 0.70446 0.0
C90 C 0.98604 0.05645 0.51605 0.0
C91 C 0.96978 0.0626 0.45278 0.0
C92 C 0.96881 0.08613 0.42258 0.0
C93 C 0.98406 0.1039 0.45548 0.0
C94 C 1.00072 0.09749 0.5177 0.0
C95 C 1.0017 0.07397 0.54771 0.0
C96 C 0.95573 0.00221 0.81033 0.0
C97 C 0.99995 0.06113 0.83383 0.0
C98 C 0.01109 0.989 0.03527 0.0
Eu99 Eu 0.00679 0.00657 0.88545 0.0
C100 C 0.00723 0.96505 0.07312 0.0
C101 C 0.02677 0.95279 0.10856 0.0
C102 C 0.02398 0.92947 0.13955 0.0
C103 C 1.00149 0.91791 0.13654 0.0
C104 C 0.98178 0.93048 0.10275 0.0
C105 C 0.98462 0.95374 0.0711 0.0
C106 C 0.04194 0.01927 0.77782 0.0
C107 C 0.99934 0.96215 0.75274 0.0
O108 O 0.00545 0.02365 0.58112 0.0
O109 O 0.96719 0.0288 0.60506 0.0
O110 O 0.95663 0.99568 0.73264 0.0
O111 O 0.97242 0.01671 0.82728 0.0
O112 O 0.99852 0.05332 0.75595 0.0
O113 O 1.00053 0.04628 0.89837 0.0
O114 O 0.992 1.00071 0.00984 0.0
O115 O 0.02908 0.99066 0.98279 0.0
O116 O 0.04167 0.02605 0.85544 0.0
O117 O 0.02472 0.0053 0.76295 0.0
O118 O 0.99899 0.96936 0.83162 0.0
O119 O 0.99994 0.97752 0.69004 0.0
H120 H 0.95751 0.0493 0.42789 0.0
H121 H 0.95606 0.09043 0.37368 0.0
H122 H 0.01254 0.1108 0.54494 0.0
H123 H 0.0143 0.06964 0.59708 0.0
H124 H 0.04438 0.96108 0.11069 0.0
H125 H 0.03966 0.9203 0.16387 0.0
H126 H 0.9641 0.92236 0.10065 0.0
H127 H 0.96915 0.9627 0.04421 0.0
C128 C 0.46296 0.99332 0.47471 0.0
Eu129 Eu 0.4871 0.99723 0.61323 0.0
C130 C 0.43946 1.00084 0.44232 0.0
C131 C 0.43135 0.99201 0.36541 0.0
C132 C 0.40958 1.00009 0.33181 0.0
C133 C 0.39583 0.01733 0.37441 0.0
C134 C 0.40383 0.02576 0.45232 0.0
C135 C 0.42541 0.01745 0.48628 0.0
C136 C 0.51174 0.9618 0.69113 0.0
C137 C 0.45151 0.00178 0.77448 0.0
C138 C 0.52729 0.00852 0.93623 0.0
Eu139 Eu 0.50907 0.00998 0.78646 0.0
C140 C 0.55012 0.0147 0.97713 0.0
C141 C 0.5689 0.02535 0.93185 0.0
C142 C 0.59106 0.02975 0.97025 0.0
C143 C 0.59484 0.0235 0.05455 0.0
C144 C 0.57581 0.01302 0.09968 0.0
C145 C 0.55366 0.00866 0.06122 0.0
C146 C 0.49985 0.04785 0.68543 0.0
C147 C 0.54219 0.0129 0.62238 0.0
O148 O 0.47826 0.01069 0.4896 0.0
O149 O 0.46273 0.97691 0.53348 0.0
O150 O 0.51222 0.96502 0.61099 0.0
O151 O 0.49772 0.97653 0.72497 0.0
O152 O 0.45371 0.99817 0.6932 0.0
O153 O 0.47 0.00655 0.82365 0.0
O154 O 0.52837 0.99062 0.88341 0.0
O155 O 0.51416 0.02644 0.90876 0.0
O156 O 0.51788 0.04719 0.73714 0.0
O157 O 0.48703 0.02935 0.69352 0.0
O158 O 0.54189 0.00701 0.7027 0.0
O159 O 0.52236 0.01381 0.5772 0.0
H160 H 0.44201 0.97914 0.33081 0.0
H161 H 0.40383 0.9934 0.27156 0.0
H162 H 0.39338 0.0388 0.48695 0.0
H163 H 0.43125 0.02419 0.5463 0.0
H164 H 0.56655 0.02986 0.86649 0.0
H165 H 0.60543 0.03749 0.93326 0.0
H166 H 0.57804 0.0082 0.16479 0.0
H167 H 0.53936 1.00029 0.09691 0.0
C168 C 0.49612 0.4722 0.47907 0.0
Eu169 Eu 0.49506 0.485 0.63519 0.0
C170 C 0.49053 0.45162 0.42561 0.0
C171 C 0.50057 0.45081 0.34558 0.0
C172 C 0.49782 0.43045 0.29601 0.0
C173 C 0.48479 0.41048 0.32538 0.0
C174 C 0.47404 0.4117 0.40499 0.0
C175 C 0.47705 0.43207 0.45507 0.0
C176 C 0.53444 0.49746 0.72386 0.0
C177 C 0.4866 0.43925 0.76055 0.0
C178 C 0.48752 0.50487 0.97862 0.0
Eu179 Eu 0.48621 0.49425 0.8217 0.0
C180 C 0.4831 0.52879 0.01486 0.0
C181 C 0.46562 0.54384 0.97896 0.0
C182 C 0.46567 0.56845 0.99506 0.0
C183 C 0.4832 0.57855 0.04732 0.0
C184 C 0.49952 0.56325 0.08842 0.0
C185 C 0.49954 0.53855 0.07193 0.0
C186 C 0.44751 0.50027 0.7201 0.0
C187 C 0.49188 0.53909 0.69859 0.0
O188 O 0.47802 0.48381 0.51257 0.0
O189 O 0.51407 0.46907 0.53072 0.0
O190 O 0.53024 0.50471 0.64842 0.0
O191 O 0.51814 0.4834 0.74865 0.0
O192 O 0.49006 0.44704 0.68324 0.0
O193 O 0.48505 0.45392 0.82514 0.0
O194 O 0.50688 0.50384 0.93204 0.0
O195 O 0.46901 0.49408 0.94428 0.0
O196 O 0.45198 0.51378 0.78401 0.0
O197 O 0.463 0.48393 0.71516 0.0
O198 O 0.49722 0.53054 0.77319 0.0
O199 O 0.4863 0.5247 0.63581 0.0
H200 H 0.51124 0.46569 0.32235 0.0
H201 H 0.50674 0.43005 0.2359 0.0
H202 H 0.46355 0.39683 0.42889 0.0
H203 H 0.46922 0.43241 0.51704 0.0
H204 H 0.45285 0.53692 0.93406 0.0
H205 H 0.45269 0.57975 0.9634 0.0
H206 H 0.51334 0.57057 0.12865 0.0
H207 H 0.51343 0.52738 0.09919 0.0
C208 C 0.03837 0.50232 0.504 0.0
Eu209 Eu 0.02553 0.49582 0.65855 0.0
C210 C 0.06002 0.49769 0.45373 0.0
C211 C 0.0829 0.50457 0.48201 0.0
C212 C 0.10326 0.49957 0.43419 0.0
C213 C 0.10114 0.4873 0.35798 0.0
C214 C 0.0783 0.48018 0.33015 0.0
C215 C 0.05787 0.48553 0.37743 0.0
C216 C 0.01742 0.52949 0.77569 0.0
C217 C 0.07216 0.48019 0.77268 0.0
C218 C 0.00275 0.47061 0.98923 0.0
Eu219 Eu 0.01857 0.47657 0.83747 0.0
C220 C 0.97845 0.47043 0.02804 0.0
C221 C 0.96653 0.44857 0.04286 0.0
C222 C 0.94318 0.44825 0.07539 0.0
C223 C 0.93117 0.46978 0.09474 0.0
C224 C 0.94331 0.49164 0.08167 0.0
C225 C 0.96666 0.49197 0.04882 0.0
C226 C 0.02552 0.44303 0.71835 0.0
C227 C 0.97181 0.4886 0.71754 0.0
O228 O 0.02677 0.48326 0.52984 0.0
O229 O 0.03991 0.51904 0.56122 0.0
O230 O 0.00928 0.53094 0.69987 0.0
O231 O 0.03054 0.5112 0.78492 0.0
O232 O 0.06253 0.48309 0.6977 0.0
O233 O 0.05893 0.48024 0.84147 0.0
O234 O 0.01063 0.49122 0.96062 0.0
O235 O 0.00786 0.45275 0.93919 0.0
O236 O 0.03393 0.44087 0.79377 0.0
O237 O 0.01296 0.46171 0.71177 0.0
O238 O 0.98038 0.48517 0.79385 0.0
O239 O 0.98596 0.4908 0.65199 0.0
H240 H 0.08512 0.51368 0.54123 0.0
H241 H 0.12074 0.50495 0.45739 0.0
H242 H 0.07625 0.47077 0.27143 0.0
H243 H 0.04037 0.48009 0.35464 0.0
H244 H 0.97511 0.43164 0.02805 0.0
H245 H 0.93435 0.43107 0.08357 0.0
H246 H 0.93483 0.50856 0.09716 0.0
H247 H 0.97535 0.50916 0.0391 0.0
H248 H 0.11128 0.01633 0.34339 0.0
H249 H 0.147 0.08222 0.41744 0.0
H250 H 0.12355 0.0826 0.54859 0.0
H251 H 0.0522 0.03254 0.42957 0.0
H252 H 0.04566 0.00213 0.46071 0.0
H253 H 0.06457 0.00775 0.37139 0.0
H254 H 0.09812 0.98162 0.43812 0.0
H255 H 0.07935 0.97617 0.52779 0.0
H256 H 0.10891 0.98887 0.5412 0.0
H257 H 0.09828 0.07412 0.67618 0.0
H258 H 0.0708 0.05887 0.78605 0.0
H259 H 0.05056 0.99965 0.62534 0.0
C260 C 0.11404 0.03093 0.38696 0.0
C261 C 0.13102 0.04919 0.37058 0.0
C262 C 0.13402 0.06808 0.42876 0.0
C263 C 0.12083 0.06843 0.50342 0.0
C264 C 0.10445 0.04997 0.51819 0.0
C265 C 0.10074 0.03176 0.46104 0.0
C266 C 0.08208 0.01406 0.49192 0.0
C267 C 0.05981 0.01414 0.435 0.0
C268 C 0.09277 0.98868 0.50026 0.0
C269 C 0.07641 0.02476 0.5764 0.0
C270 C 0.08945 0.04548 0.59047 0.0
C271 C 0.0878 0.05804 0.66554 0.0
C272 C 0.0723 0.04921 0.72764 0.0
C273 C 0.05864 0.02819 0.7137 0.0
C274 C 0.06072 0.01589 0.63715 0.0
H275 H 0.54556 0.14797 0.36721 0.0
H276 H 0.47752 0.1405 0.23697 0.0
H277 H 0.46441 0.11043 0.34106 0.0
H278 H 0.55229 0.0858 0.4201 0.0
H279 H 0.56543 0.09164 0.52094 0.0
H280 H 0.56934 0.11287 0.43707 0.0
H281 H 0.55139 0.14658 0.52942 0.0
H282 H 0.54746 0.12548 0.61371 0.0
H283 H 0.52213 0.1425 0.57586 0.0
H284 H 0.4589 0.0808 0.45858 0.0
H285 H 0.46172 0.05361 0.58067 0.0
H286 H 0.53328 0.08047 0.63306 0.0
C287 C 0.52786 0.14009 0.36063 0.0
C288 C 0.51254 0.14663 0.29402 0.0
C289 C 0.48957 0.13579 0.28751 0.0
C290 C 0.48195 0.1187 0.34634 0.0
C291 C 0.49751 0.11267 0.4112 0.0
C292 C 0.52 0.123 0.41863 0.0
C293 C 0.53341 0.11315 0.49347 0.0
C294 C 0.55648 0.10009 0.46625 0.0
C295 C 0.53891 0.13312 0.55686 0.0
C296 C 0.51492 0.09572 0.52716 0.0
C297 C 0.49434 0.09567 0.47881 0.0
C298 C 0.47491 0.08074 0.49698 0.0
C299 C 0.47665 0.06536 0.56619 0.0
C300 C 0.49764 0.06507 0.61599 0.0
C301 C 0.51692 0.08055 0.59644 0.0
H302 H 0.37288 0.4799 0.30082 0.0
H303 H 0.34697 0.55307 0.32654 0.0
H304 H 0.37068 0.55756 0.45583 0.0
H305 H 0.37218 0.46472 0.51763 0.0
H306 H 0.39943 0.44723 0.51359 0.0
H307 H 0.38071 0.44979 0.42228 0.0
H308 H 0.41697 0.46597 0.33671 0.0
H309 H 0.43561 0.46296 0.42791 0.0
H310 H 0.43354 0.49149 0.37519 0.0
H311 H 0.39629 0.5538 0.58421 0.0
H312 H 0.42354 0.54252 0.69976 0.0
H313 H 0.43328 0.4721 0.58939 0.0
C314 C 0.37223 0.49689 0.3335 0.0
C315 C 0.35801 0.51612 0.30365 0.0
C316 C 0.35774 0.53809 0.34813 0.0
C317 C 0.37111 0.54081 0.42171 0.0
C318 C 0.38479 0.52146 0.4497 0.0
C319 C 0.38559 0.49998 0.40673 0.0
C320 C 0.40184 0.48202 0.45006 0.0
C321 C 0.38768 0.45962 0.47752 0.0
C322 C 0.42326 0.47523 0.39408 0.0
C323 C 0.40985 0.49669 0.52452 0.0
C324 C 0.39978 0.51938 0.5232 0.0
C325 C 0.40432 0.53611 0.58585 0.0
C326 C 0.4197 0.52951 0.65134 0.0
C327 C 0.43042 0.50647 0.65322 0.0
C328 C 0.42534 0.48987 0.58916 0.0
H329 H 1.00127 0.38122 0.27884 0.0
H330 H 0.06177 0.33422 0.33009 0.0
H331 H 0.06984 0.35637 0.46055 0.0
H332 H 0.02952 0.43593 0.36265 0.0
H333 H 1.00172 0.44726 0.40498 0.0
H334 H 1.00141 0.42883 0.31258 0.0
H335 H 0.97203 0.39912 0.38363 0.0
H336 H 0.97191 0.41739 0.47616 0.0
H337 H 0.97987 0.38607 0.4831 0.0
H338 H 0.06884 0.38114 0.59216 0.0
H339 H 0.06055 0.40873 0.70992 0.0
H340 H 1.00162 0.44018 0.57026 0.0
C341 C 0.01643 0.3758 0.31686 0.0
C342 C 0.03088 0.35597 0.29434 0.0
C343 C 0.05053 0.34943 0.34586 0.0
C344 C 0.05523 0.36187 0.42019 0.0
C345 C 0.04032 0.38101 0.4415 0.0
C346 C 0.02154 0.38818 0.39074 0.0
C347 C 0.00791 0.40901 0.42873 0.0
C348 C 0.01028 0.4316 0.37398 0.0
C349 C 0.98136 0.40249 0.44381 0.0
C350 C 0.02141 0.41185 0.51014 0.0
C351 C 0.04012 0.39562 0.51626 0.0
C352 C 0.05443 0.39413 0.58761 0.0
C353 C 0.04953 0.40973 0.65427 0.0
C354 C 0.03056 0.42656 0.64869 0.0
C355 C 0.01643 0.42763 0.57562 0.0
H356 H 0.87448 0.00286 0.21924 0.0
H357 H 0.84056 0.93815 0.12488 0.0
H358 H 0.86949 0.93722 0.00811 0.0
H359 H 0.88497 0.0306 0.02837 0.0
H360 H 0.91402 0.04277 0.05467 0.0
H361 H 0.89229 0.03716 0.13562 0.0
H362 H 0.92301 0.01022 0.21368 0.0
H363 H 0.94491 0.01585 0.13292 0.0
H364 H 0.93685 0.98545 0.15956 0.0
H365 H 0.89893 0.9457 0.89404 0.0
H366 H 0.92856 0.96196 0.79374 0.0
H367 H 0.94452 0.02022 0.96429 0.0
C368 C 0.87336 0.9883 0.17467 0.0
C369 C 0.85523 0.97061 0.18097 0.0
C370 C 0.85434 0.95186 0.12143 0.0
C371 C 0.87071 0.95115 0.05492 0.0
C372 C 0.88809 0.9691 0.04966 0.0
C373 C 0.88978 0.98714 0.10852 0.0
C374 C 0.9096 0.00473 0.08655 0.0
C375 C 0.89961 0.03032 0.07563 0.0
C376 C 0.92978 0.00401 0.15209 0.0
C377 C 0.91801 0.99438 0.00425 0.0
C378 C 0.90552 0.97369 0.98454 0.0
C379 C 0.90908 0.96167 0.90934 0.0
C380 C 0.92581 0.9711 0.85263 0.0
C381 C 0.93875 0.99225 0.8717 0.0
C382 C 0.935 0.00386 0.94881 0.0
H383 H 0.5314 0.87034 0.0661 0.0
H384 H 0.58483 0.83437 0.91332 0.0
H385 H 0.57984 0.86538 0.80413 0.0
H386 H 0.49215 0.88657 0.90467 0.0
H387 H 0.48445 0.91549 0.94739 0.0
H388 H 0.49345 0.89147 0.01586 0.0
H389 H 0.52722 0.91831 0.07694 0.0
H390 H 0.51827 0.94247 0.00865 0.0
H391 H 0.54887 0.93187 0.00752 0.0
H392 H 0.56658 0.89854 0.70699 0.0
H393 H 0.54718 0.93237 0.63221 0.0
H394 H 0.50342 0.94695 0.85055 0.0
C395 C 0.54223 0.86911 0.01006 0.0
C396 C 0.55846 0.84993 0.99805 0.0
C397 C 0.57233 0.84896 0.9239 0.0
C398 C 0.56963 0.86649 0.86155 0.0
C399 C 0.55323 0.88499 0.87489 0.0
C400 C 0.53996 0.88657 0.94772 0.0
C401 C 0.52311 0.9079 0.94584 0.0
C402 C 0.49674 0.89986 0.95388 0.0
C403 C 0.52978 0.92622 0.01377 0.0
C404 C 0.52845 0.91764 0.8596 0.0
C405 C 0.54596 0.90429 0.81972 0.0
C406 C 0.55307 0.9093 0.73796 0.0
C407 C 0.54193 0.92844 0.69594 0.0
C408 C 0.524 0.94226 0.736 0.0
C409 C 0.51734 0.93684 0.81891 0.0
H410 H 0.63365 0.49014 0.08337 0.0
H411 H 0.66918 0.55009 0.96092 0.0
H412 H 0.63656 0.5518 0.85682 0.0
H413 H 0.61253 0.46109 0.89959 0.0
H414 H 0.5841 0.4522 0.94405 0.0
H415 H 0.60993 0.45597 0.01046 0.0
H416 H 0.58616 0.48632 0.10121 0.0
H417 H 0.56026 0.48267 0.03484 0.0
H418 H 0.57256 0.51216 0.05238 0.0
H419 H 0.60127 0.5462 0.76347 0.0
H420 H 0.56493 0.53384 0.68654 0.0
H421 H 0.55135 0.47822 0.87083 0.0
C422 C 0.63456 0.50362 0.03464 0.0
C423 C 0.65401 0.51994 0.03 0.0
C424 C 0.65447 0.53742 0.96568 0.0
C425 C 0.63601 0.53856 0.90633 0.0
C426 C 0.61712 0.52225 0.91269 0.0
C427 C 0.61614 0.50518 0.97533 0.0
C428 C 0.59381 0.48971 0.96745 0.0
C429 C 0.6005 0.46318 0.9546 0.0
C430 C 0.57722 0.49292 0.0435 0.0
C431 C 0.5827 0.50044 0.88951 0.0
C432 C 0.59642 0.51925 0.85929 0.0
C433 C 0.59029 0.5316 0.78673 0.0
C434 C 0.56968 0.52441 0.74342 0.0
C435 C 0.55543 0.50512 0.77294 0.0
C436 C 0.56189 0.49314 0.84736 0.0
H437 H 0.95122 0.64266 0.97129 0.0
H438 H 0.9933 0.63186 0.19654 0.0
H439 H 0.01307 0.5968 0.13149 0.0
H440 H 0.94165 0.58032 0.92583 0.0
H441 H 0.94401 0.58435 0.81441 0.0
H442 H 0.93333 0.60857 0.87887 0.0
H443 H 0.96656 0.63643 0.81924 0.0
H444 H 0.97732 0.61229 0.75457 0.0
H445 H 0.99758 0.62719 0.82541 0.0
H446 H 0.02815 0.56267 0.04098 0.0
H447 H 0.03753 0.53269 0.93152 0.0
H448 H 0.98534 0.5662 0.76734 0.0
C449 C 0.96462 0.63298 0.00703 0.0
C450 C 0.97073 0.64001 0.08899 0.0
C451 C 0.98834 0.62681 0.1336 0.0
C452 C 0.99965 0.60686 0.09723 0.0
C453 C 0.99313 0.60038 0.01633 0.0
C454 C 0.97604 0.61308 0.97182 0.0
C455 C 0.97221 0.60249 0.88596 0.0
C456 C 0.94626 0.59339 0.87571 0.0
C457 C 0.97882 0.62068 0.81726 0.0
C458 C 0.98989 0.5819 0.88886 0.0
C459 C 1.00177 0.58089 0.96457 0.0
C460 C 0.01894 0.56328 0.98151 0.0
C461 C 0.0241 0.54633 0.91922 0.0
C462 C 0.0121 0.54717 0.84139 0.0
C463 C 0.99482 0.56519 0.8263 0.0
H464 H 0.03494 0.22817 0.28677 0.0
H465 H 0.96115 0.2505 0.24443 0.0
H466 H 0.9468 0.21325 0.31222 0.0
H467 H 0.02645 0.16826 0.236 0.0
H468 H 0.04707 0.15667 0.31277 0.0
H469 H 0.05126 0.18641 0.27118 0.0
H470 H 0.05039 0.20376 0.42181 0.0
H471 H 0.04614 0.17395 0.46327 0.0
H472 H 0.02505 0.19741 0.48859 0.0
H473 H 0.9407 0.17174 0.37127 0.0
H474 H 0.94328 0.12994 0.42259 0.0
H475 H 0.02117 0.13472 0.42106 0.0
C476 C 0.01574 0.2256 0.29362 0.0
C477 C 0.99916 0.24232 0.26067 0.0
C478 C 0.97419 0.23801 0.2697 0.0
C479 C 0.96587 0.21689 0.30797 0.0
C480 C 0.98276 0.20038 0.33698 0.0
C481 C 0.00718 0.20461 0.33089 0.0
C482 C 0.02165 0.18332 0.36129 0.0
C483 C 0.03754 0.17308 0.29113 0.0
C484 C 0.03669 0.19002 0.43834 0.0
C485 C 1.00157 0.16623 0.38387 0.0
C486 C 0.97927 0.17642 0.37 0.0
C487 C 0.95806 0.16365 0.38307 0.0
C488 C 0.95972 0.13986 0.41143 0.0
C489 C 0.98243 0.12909 0.4259 0.0
C490 C 0.00355 0.14257 0.41199 0.0
H491 H 0.26218 0.01264 0.19034 0.0
H492 H 0.26234 0.0904 0.20238 0.0
H493 H 0.30465 0.08984 0.24903 0.0
H494 H 0.29774 0.00168 0.36921 0.0
H495 H 0.31441 0.97698 0.32526 0.0
H496 H 0.28451 0.98339 0.28857 0.0
H497 H 0.30046 0.98708 0.13619 0.0
H498 H 0.33026 0.98017 0.17337 0.0
H499 H 0.32505 0.00723 0.11442 0.0
H500 H 0.34551 0.08103 0.30272 0.0
H501 H 0.38342 0.06437 0.35828 0.0
H502 H 0.35794 0.99224 0.30735 0.0
C503 C 0.27125 0.02947 0.20272 0.0
C504 C 0.25922 0.0516 0.19271 0.0
C505 C 0.27147 0.07332 0.20914 0.0
C506 C 0.29545 0.07318 0.23545 0.0
C507 C 0.30696 0.05113 0.24423 0.0
C508 C 0.29542 0.02966 0.2278 0.0
C509 C 0.31199 0.00851 0.24362 0.0
C510 C 0.30153 0.99165 0.31067 0.0
C511 C 0.31724 0.99495 0.16204 0.0
C512 C 0.33422 0.02145 0.2748 0.0
C513 C 0.33094 0.04604 0.27383 0.0
C514 C 0.34842 0.06182 0.3031 0.0
C515 C 0.36979 0.05221 0.33496 0.0
C516 C 0.37352 0.02708 0.3371 0.0
C517 C 0.35561 0.01154 0.30553 0.0
H518 H 0.50261 0.27045 0.2439 0.0
H519 H 0.50355 0.28694 0.979 0.0
H520 H 0.49395 0.32926 0.01074 0.0
H521 H 0.45363 0.31117 0.30334 0.0
H522 H 0.46786 0.31959 0.40006 0.0
H523 H 0.47295 0.29018 0.35679 0.0
H524 H 0.51893 0.29762 0.35942 0.0
H525 H 0.51392 0.32693 0.40315 0.0
H526 H 0.53104 0.32382 0.30813 0.0
H527 H 0.48439 0.36966 0.07043 0.0
H528 H 0.48041 0.40637 0.15498 0.0
H529 H 0.48766 0.3638 0.38124 0.0
C530 C 0.5002 0.28284 0.19234 0.0
C531 C 0.50312 0.27523 0.10873 0.0
C532 C 0.50041 0.29209 0.04316 0.0
C533 C 0.49494 0.31616 0.06054 0.0
C534 C 0.49183 0.32298 0.14353 0.0
C535 C 0.49452 0.30685 0.20848 0.0
C536 C 0.49213 0.31916 0.29241 0.0
C537 C 0.47034 0.30944 0.34099 0.0
C538 C 0.5154 0.31674 0.34375 0.0
C539 C 0.48804 0.34482 0.26444 0.0
C540 C 0.48761 0.34657 0.17836 0.0
C541 C 0.48467 0.36851 0.13785 0.0
C542 C 0.48259 0.3893 0.18653 0.0
C543 C 0.48387 0.38808 0.27492 0.0
C544 C 0.48621 0.3654 0.31402 0.0
H545 H 0.22873 0.5161 0.15768 0.0
H546 H 0.23643 0.43981 0.11114 0.0
H547 H 0.19506 0.43301 0.16141 0.0
H548 H 0.19777 0.50953 0.35007 0.0
H549 H 0.17867 0.53528 0.33408 0.0
H550 H 0.20797 0.53429 0.28654 0.0
H551 H 0.1887 0.5413 0.141 0.0
H552 H 0.15929 0.54219 0.18809 0.0
H553 H 0.16546 0.52127 0.10502 0.0
H554 H 0.1529 0.4346 0.21981 0.0
H555 H 0.11488 0.44395 0.29383 0.0
H556 H 0.1362 0.51866 0.31081 0.0
C557 C 0.22163 0.49799 0.15744 0.0
C558 C 0.2354 0.47862 0.12703 0.0
C559 C 0.22572 0.45511 0.1294 0.0
C560 C 0.20237 0.45101 0.1593 0.0
C561 C 0.18914 0.47059 0.18787 0.0
C562 C 0.19851 0.49358 0.18785 0.0
C563 C 0.18115 0.51134 0.22595 0.0
C564 C 0.19204 0.5233 0.30378 0.0
C565 C 0.17318 0.53013 0.16113 0.0
C566 C 0.16071 0.49469 0.24875 0.0
C567 C 0.16542 0.47133 0.22483 0.0
C568 C 0.14905 0.45281 0.23915 0.0
C569 C 0.12753 0.45827 0.28077 0.0
C570 C 0.12284 0.48195 0.30827 0.0
C571 C 0.13953 0.50037 0.29105 0.0
H572 H 0.95066 0.78349 0.13292 0.0
H573 H 0.99723 0.76836 0.34362 0.0
H574 H 0.01213 0.81017 0.33995 0.0
H575 H 0.99336 0.82217 0.02334 0.0
H576 H 0.97025 0.84196 0.98466 0.0
H577 H 0.96354 0.81079 0.0039 0.0
H578 H 0.92854 0.82331 0.10156 0.0
H579 H 0.9353 0.8545 0.08328 0.0
H580 H 0.93453 0.84295 0.18849 0.0
H581 H 0.02001 0.85438 0.31821 0.0
H582 H 0.02322 0.89657 0.27222 0.0
H583 H 0.97359 0.88193 0.0692 0.0
C584 C 0.96411 0.78895 0.17794 0.0
C585 C 0.97221 0.77294 0.24042 0.0
C586 C 0.99004 0.78062 0.2975 0.0
C587 C 0.99881 0.80425 0.29523 0.0
C588 C 0.98979 0.81986 0.23475 0.0
C589 C 0.97313 0.81242 0.17624 0.0
C590 C 0.96656 0.83264 0.11707 0.0
C591 C 0.97387 0.82652 0.02692 0.0
C592 C 0.93964 0.8387 0.123 0.0
C593 C 0.98189 0.8527 0.15212 0.0
C594 C 0.99508 0.845 0.22015 0.0
C595 C 0.01005 0.86051 0.26418 0.0
C596 C 0.01183 0.88445 0.23726 0.0
C597 C 0.99882 0.89268 0.16656 0.0
C598 C 0.98361 0.87644 0.12393 0.0
H599 H 0.71323 0.98492 0.30424 0.0
H600 H 0.74534 0.05173 0.22085 0.0
H601 H 0.70663 0.06393 0.15821 0.0
H602 H 0.67873 0.97462 0.12295 0.0
H603 H 0.65318 0.96218 0.17718 0.0
H604 H 0.68274 0.95971 0.22203 0.0
H605 H 0.66752 0.98027 0.35719 0.0
H606 H 0.63788 0.98289 0.31261 0.0
H607 H 0.65317 0.00918 0.35057 0.0
H608 H 0.66537 0.06771 0.09677 0.0
H609 H 0.62459 0.06254 0.03865 0.0
H610 H 0.61934 0.99289 0.15949 0.0
C611 C 0.71198 0.00221 0.27345 0.0
C612 C 0.73207 0.01767 0.26898 0.0
C613 C 0.72993 0.03997 0.22714 0.0
C614 C 0.70806 0.047 0.1911 0.0
C615 C 0.6885 0.03146 0.1972 0.0
C616 C 0.69022 0.00952 0.23731 0.0
C617 C 0.66684 0.99564 0.23111 0.0
C618 C 0.67061 0.97163 0.18559 0.0
C619 C 0.6557 0.99177 0.31802 0.0
C620 C 0.65195 0.01292 0.17924 0.0
C621 C 0.66471 0.03357 0.1611 0.0
C622 C 0.65514 0.05168 0.111 0.0
C623 C 0.63203 0.04851 0.07775 0.0
C624 C 0.61873 0.02732 0.09436 0.0
C625 C 0.62884 0.00947 0.14671 0.0
H626 H 0.51837 0.7033 0.25591 0.0
H627 H 0.51812 0.73446 0.0075 0.0
H628 H 0.50365 0.69594 0.94997 0.0
H629 H 0.53851 0.64792 0.21053 0.0
H630 H 0.51896 0.6307 0.27735 0.0
H631 H 0.52611 0.66124 0.30375 0.0
H632 H 0.48105 0.67387 0.30496 0.0
H633 H 0.47352 0.64278 0.28683 0.0
H634 H 0.46217 0.66586 0.21862 0.0
H635 H 0.49106 0.65346 0.91906 0.0
H636 H 0.48276 0.60993 0.91668 0.0
H637 H 0.49072 0.6068 0.18588 0.0
C638 C 0.5142 0.70249 0.19015 0.0
C639 C 0.51868 0.7222 0.13668 0.0
C640 C 0.51457 0.71967 0.0498 0.0
C641 C 0.50625 0.69791 0.01658 0.0
C642 C 0.50195 0.67887 0.07116 0.0
C643 C 0.50557 0.68101 0.15615 0.0
C644 C 0.50039 0.65757 0.20081 0.0
C645 C 0.5223 0.64886 0.25107 0.0
C646 C 0.47798 0.66013 0.25623 0.0
C647 C 0.49512 0.64144 0.12723 0.0
C648 C 0.49532 0.65426 0.0532 0.0
C649 C 0.4907 0.64331 0.97678 0.0
C650 C 0.48594 0.6186 0.97607 0.0
C651 C 0.48617 0.605 0.05102 0.0
C652 C 0.49062 0.6167 0.12759 0.0
H653 H 0.79409 0.51274 0.13119 0.0
H654 H 0.7814 0.45129 0.29211 0.0
H655 H 0.82427 0.44009 0.28108 0.0
H656 H 0.83556 0.483 0.9922 0.0
H657 H 0.85416 0.50919 0.97803 0.0
H658 H 0.82262 0.51258 0.00056 0.0
H659 H 0.83308 0.53909 0.12841 0.0
H660 H 0.86467 0.53563 0.10661 0.0
H661 H 0.85295 0.52752 0.20779 0.0
H662 H 0.86886 0.43602 0.25393 0.0
H663 H 0.91101 0.43787 0.20606 0.0
H664 H 0.89407 0.50079 0.0566 0.0
C665 C 0.80032 0.49687 0.16385 0.0
C666 C 0.78452 0.48324 0.21442 0.0
C667 C 0.79333 0.4625 0.25556 0.0
C668 C 0.81762 0.45587 0.24902 0.0
C669 C 0.83284 0.47003 0.2003 0.0
C670 C 0.82448 0.48996 0.15772 0.0
C671 C 0.84446 0.50187 0.10826 0.0
C672 C 0.83886 0.50163 0.01419 0.0
C673 C 0.84906 0.52755 0.13967 0.0
C674 C 0.86533 0.48545 0.12916 0.0
C675 C 0.85831 0.4673 0.18284 0.0
C676 C 0.8745 0.45004 0.21132 0.0
C677 C 0.8984 0.45117 0.18333 0.0
C678 C 0.90596 0.46936 0.12696 0.0
C679 C 0.88908 0.48678 0.10028 0.0
H680 H 0.0317 0.18002 0.08825 0.0
H681 H 0.02648 0.21947 0.85489 0.0
H682 H 0.01487 0.182 0.7824 0.0
H683 H 0.05683 0.12652 0.00599 0.0
H684 H 0.04014 0.10682 0.07411 0.0
H685 H 0.04734 0.13681 0.10752 0.0
H686 H 1.00214 0.14531 0.13437 0.0
H687 H 0.99487 0.1153 0.10125 0.0
H688 H 0.98078 0.14071 0.05141 0.0
H689 H 0.00449 0.14005 0.73558 0.0
H690 H 0.99708 0.09684 0.71652 0.0
H691 H 0.00905 0.08489 0.98141 0.0
C692 C 0.02813 0.18084 0.02189 0.0
C693 C 0.03007 0.20268 0.97714 0.0
C694 C 0.02515 0.20295 0.8904 0.0
C695 C 0.01848 0.18178 0.84881 0.0
C696 C 0.01668 0.16058 0.89504 0.0
C697 C 0.02133 0.15998 0.97971 0.0
C698 C 0.01837 0.13488 0.015 0.0
C699 C 0.04209 0.12572 0.05285 0.0
C700 C 0.99782 0.13401 0.0793 0.0
C701 C 0.01182 0.12128 0.9365 0.0
C702 C 0.01072 0.13647 0.86818 0.0
C703 C 0.00526 0.12802 0.78868 0.0
C704 C 1.0011 0.10337 0.77854 0.0
C705 C 0.00253 0.08735 0.8474 0.0
C706 C 0.00771 0.09659 0.92753 0.0
H707 H 0.34019 0.05831 0.01477 0.0
H708 H 0.29553 0.00626 0.88626 0.0
H709 H 0.33183 0.98652 0.8307 0.0
H710 H 0.38358 0.06587 0.86097 0.0
H711 H 0.40896 0.06755 0.93067 0.0
H712 H 0.37961 0.07629 0.96664 0.0
H713 H 0.38272 0.04592 0.0891 0.0
H714 H 0.41218 0.03708 0.05356 0.0
H715 H 0.38898 0.01481 0.06731 0.0
H716 H 0.37196 0.97614 0.77347 0.0
H717 H 0.41412 0.97376 0.72599 0.0
H718 H 0.43361 0.03026 0.89926 0.0
C719 C 0.33813 0.04263 0.97551 0.0
C720 C 0.3151 0.03392 0.95401 0.0
C721 C 0.31303 0.01322 0.9034 0.0
C722 C 0.33353 0.00185 0.8717 0.0
C723 C 0.35597 0.01107 0.89288 0.0
C724 C 0.35846 0.03073 0.94473 0.0
C725 C 0.3847 0.03737 0.95572 0.0
C726 C 0.38948 0.0633 0.92674 0.0
C727 C 0.39261 0.03356 0.04682 0.0
C728 C 0.39642 0.01923 0.89811 0.0
C729 C 0.37948 0.00413 0.86307 0.0
C730 C 0.3855 0.98743 0.80191 0.0
C731 C 0.40943 0.98628 0.77508 0.0
C732 C 0.42707 1.00157 0.80993 0.0
C733 C 0.42055 0.01793 0.87333 0.0
H734 H 0.47892 0.30095 0.63183 0.0
H735 H 0.45735 0.28558 0.88676 0.0
H736 H 0.46038 0.32874 0.92078 0.0
H737 H 0.52273 0.34676 0.67915 0.0
H738 H 0.51505 0.36509 0.59012 0.0
H739 H 0.51105 0.33303 0.5857 0.0
H740 H 0.4663 0.33899 0.54684 0.0
H741 H 0.4702 0.37104 0.55132 0.0
H742 H 0.44726 0.3568 0.61362 0.0
H743 H 0.46732 0.37322 0.92851 0.0
H744 H 0.47439 0.41651 0.9067 0.0
H745 H 0.49129 0.40283 0.64603 0.0
C746 C 0.47519 0.30666 0.69516 0.0
C747 C 0.46843 0.28994 0.7573 0.0
C748 C 0.46333 0.29803 0.83909 0.0
C749 C 0.465 0.32249 0.85894 0.0
C750 C 0.47227 0.33847 0.79679 0.0
C751 C 0.47719 0.33092 0.71641 0.0
C752 C 0.48399 0.35184 0.66058 0.0
C753 C 0.50974 0.349 0.62696 0.0
C754 C 0.46584 0.35483 0.58887 0.0
C755 C 0.48225 0.37232 0.72231 0.0
C756 C 0.47549 0.36422 0.8005 0.0
C757 C 0.47268 0.3798 0.86769 0.0
C758 C 0.47676 0.40437 0.85458 0.0
C759 C 0.48342 0.41315 0.77465 0.0
C760 C 0.48625 0.39678 0.70793 0.0
H761 H 0.19149 0.42606 0.97501 0.0
H762 H 0.21449 0.41311 0.72067 0.0
H763 H 0.18167 0.43892 0.66841 0.0
H764 H 0.13215 0.41881 0.93803 0.0
H765 H 0.12076 0.44164 0.00724 0.0
H766 H 0.14942 0.42799 0.02782 0.0
H767 H 0.17045 0.46968 0.02605 0.0
H768 H 0.14136 0.48321 0.01066 0.0
H769 H 0.16564 0.48966 0.93936 0.0
H770 H 0.14436 0.46106 0.64223 0.0
H771 H 0.1028 0.47546 0.641 0.0
H772 H 0.10061 0.47154 0.91214 0.0
C773 C 0.19012 0.42965 0.90867 0.0
C774 C 0.20584 0.41839 0.85145 0.0
C775 C 0.20291 0.42218 0.76499 0.0
C776 C 0.18439 0.43683 0.73494 0.0
C777 C 0.16868 0.4472 0.79236 0.0
C778 C 0.17122 0.4438 0.87751 0.0
C779 C 0.14969 0.45389 0.92437 0.0
C780 C 0.13728 0.43441 0.97742 0.0
C781 C 0.15721 0.4754 0.97829 0.0
C782 C 0.13403 0.46196 0.85189 0.0
C783 C 0.14585 0.45877 0.77677 0.0
C784 C 0.135 0.4639 0.70064 0.0
C785 C 0.11124 0.47204 0.70079 0.0
C786 C 0.09824 0.47458 0.77655 0.0
C787 C 0.11003 0.4699 0.85325 0.0
H788 H 0.97371 0.85092 0.45739 0.0
H789 H 0.97944 0.80436 0.67412 0.0
H790 H 0.9892 0.83961 0.76206 0.0
H791 H 0.02282 0.89025 0.51214 0.0
H792 H 0.00805 0.91664 0.47174 0.0
H793 H 1.00185 0.88768 0.42688 0.0
H794 H 0.95638 0.89359 0.45414 0.0
H795 H 0.96232 0.92258 0.49907 0.0
H796 H 0.94613 0.90028 0.55839 0.0
H797 H 0.99624 0.88078 0.82693 0.0
H798 H 1.00144 0.9238 0.86156 0.0
H799 H 0.99244 0.94206 0.59957 0.0
C800 C 0.97698 0.8481 0.52339 0.0
C801 C 0.97564 0.825 0.55926 0.0
C802 C 0.98037 0.82198 0.64557 0.0
C803 C 0.98591 0.84186 0.69589 0.0
C804 C 0.98694 0.86448 0.65848 0.0
C805 C 0.98279 0.8676 0.57401 0.0
C806 C 0.98492 0.89363 0.54858 0.0
C807 C 0.00566 0.89726 0.48618 0.0
C808 C 0.96101 0.90307 0.51299 0.0
C809 C 0.99057 0.9048 0.63215 0.0
C810 C 0.99165 0.8878 0.695 0.0
C811 C 0.99569 0.89421 0.77802 0.0
C812 C 0.9986 0.91867 0.79709 0.0
C813 C 0.99754 0.93629 0.73323 0.0
C814 C 0.99365 0.92909 0.64985 0.0
H815 H 0.68399 0.03074 0.58108 0.0
H816 H 0.67048 0.06963 0.35059 0.0
H817 H 0.62678 0.06356 0.36967 0.0
H818 H 0.63862 0.98667 0.55572 0.0
H819 H 0.63045 0.98563 0.66465 0.0
H820 H 0.6606 0.99371 0.6347 0.0
H821 H 0.657 0.03361 0.71684 0.0
H822 H 0.62692 0.02558 0.74788 0.0
H823 H 0.63234 0.05367 0.69497 0.0
H824 H 0.58498 0.05134 0.41021 0.0
H825 H 0.54745 0.03689 0.47465 0.0
H826 H 0.58826 0.00673 0.68097 0.0
C827 C 0.67183 0.03818 0.53502 0.0
C828 C 0.68055 0.05075 0.46459 0.0
C829 C 0.66412 0.06021 0.40557 0.0
C830 C 0.63931 0.05674 0.41566 0.0
C831 C 0.63133 0.04398 0.48538 0.0
C832 C 0.64706 0.0351 0.54455 0.0
C833 C 0.63388 0.02201 0.61377 0.0
C834 C 0.64133 0.99543 0.61737 0.0
C835 C 0.63777 0.03447 0.69836 0.0
C836 C 0.60822 0.02477 0.58406 0.0
C837 C 0.60719 0.03734 0.50957 0.0
C838 C 0.58554 0.04164 0.46881 0.0
C839 C 0.56433 0.0332 0.50577 0.0
C840 C 0.56492 0.02062 0.58287 0.0
C841 C 0.58721 0.01636 0.62224 0.0
H842 H 0.48094 0.6613 0.44409 0.0
H843 H 0.50945 0.69784 0.66176 0.0
H844 H 0.50834 0.65963 0.74045 0.0
H845 H 0.4417 0.61894 0.55528 0.0
H846 H 0.44821 0.59483 0.4838 0.0
H847 H 0.44879 0.62551 0.44773 0.0
H848 H 0.49233 0.6195 0.39466 0.0
H849 H 0.49204 0.58894 0.43075 0.0
H850 H 0.51519 0.60922 0.46581 0.0
H851 H 0.50788 0.61697 0.79014 0.0
H852 H 0.50618 0.57316 0.81093 0.0
H853 H 0.47861 0.56452 0.5589 0.0
C854 C 0.48658 0.66145 0.5086 0.0
C855 C 0.49529 0.6826 0.54666 0.0
C856 C 0.50267 0.68188 0.63128 0.0
C857 C 0.5021 0.66027 0.67646 0.0
C858 C 0.49407 0.63962 0.63604 0.0
C859 C 0.48628 0.64007 0.55419 0.0
C860 C 0.47988 0.61517 0.52356 0.0
C861 C 0.45305 0.61352 0.50131 0.0
C862 C 0.49582 0.60778 0.44935 0.0
C863 C 0.48569 0.60055 0.60055 0.0
C864 C 0.49372 0.61501 0.66485 0.0
C865 C 0.50121 0.6055 0.74086 0.0
C866 C 0.50031 0.58055 0.75173 0.0
C867 C 0.49227 0.56537 0.68638 0.0
C868 C 0.48479 0.57561 0.61005 0.0
H869 H 0.85521 0.49667 0.43583 0.0
H870 H 0.81401 0.46818 0.64387 0.0
H871 H 0.8506 0.46892 0.73207 0.0
H872 H 0.90775 0.46252 0.47375 0.0
H873 H 0.92795 0.48611 0.44172 0.0
H874 H 0.89822 0.4845 0.39789 0.0
H875 H 0.88997 0.52822 0.44556 0.0
H876 H 0.91967 0.52993 0.48996 0.0
H877 H 0.89372 0.53609 0.55395 0.0
H878 H 0.89236 0.47241 0.79627 0.0
H879 H 0.93586 0.47572 0.82739 0.0
H880 H 0.94857 0.50111 0.5745 0.0
C881 C 0.85377 0.49081 0.50019 0.0
C882 C 0.8318 0.48256 0.53339 0.0
C883 C 0.83074 0.47461 0.6174 0.0
C884 C 0.85137 0.47506 0.66795 0.0
C885 C 0.8728 0.48336 0.63311 0.0
C886 C 0.8741 0.49092 0.55091 0.0
C887 C 0.89937 0.4979 0.52665 0.0
C888 C 0.90887 0.48179 0.45586 0.0
C889 C 0.90075 0.52462 0.50265 0.0
C890 C 0.9122 0.493 0.60796 0.0
C891 C 0.89664 0.48484 0.66905 0.0
C892 C 0.9047 0.47882 0.7489 0.0
C893 C 0.92939 0.48082 0.76607 0.0
C894 C 0.94561 0.48857 0.70328 0.0
C895 C 0.9367 0.49504 0.62387 0.0
loop_
_geom_bond_atom_site_label_1
_geom_bond_atom_site_label_2
_geom_bond_distance
_geom_bond_site_symmetry_2
_ccdc_geom_bond_type
O0 Cd1 2.300 . S
O0 C7 1.275 . S
Cd1 O0 2.300 . S
Cd1 O9 2.381 . S
Cd1 O10 2.378 . S
O2 Cd3 2.385 . S
O2 C7 1.255 . S
Cd3 O2 2.385 . S
Cd3 O4 2.317 . S
O4 Cd3 2.317 . S
O4 C5 1.232 . S
C5 O4 1.232 . S
C5 O6 1.218 . S
O6 C5 1.218 . S
C7 O0 1.275 . S
C7 O2 1.255 . S
C8 O9 1.258 . S
C8 O10 1.256 . S
O9 Cd1 2.381 . S
O9 C8 1.258 . S
O10 Cd1 2.378 . S
O10 C8 1.256 . S
O11 Cd12 2.300 1_655 S
O11 C18 1.275 1_655 S
Cd12 O11 2.300 1_455 S
Cd12 O20 2.381 1_455 S
Cd12 O21 2.378 . S
O13 Cd14 2.385 . S
O13 C18 1.255 . S
Cd14 O13 2.385 . S
Cd14 O15 2.317 . S
O15 Cd14 2.317 . S
O15 C16 1.232 . S
C16 O15 1.232 . S
C16 O17 1.218 . S
O17 C16 1.218 . S
C18 O11 1.275 1_455 S
C18 O13 1.255 . S
C19 O20 1.258 1_455 S
C19 O21 1.256 . S
O20 Cd12 2.381 1_655 S
O20 C19 1.258 1_655 S
O21 Cd12 2.378 . S
O21 C19 1.256 . S
O22 Cd23 2.300 1_565 S
O22 C29 1.275 1_565 S
Cd23 O22 2.300 1_545 S
Cd23 O31 2.381 1_545 S
Cd23 O32 2.378 . S
O24 Cd25 2.385 . S
O24 C29 1.255 . S
Cd25 O24 2.385 . S
Cd25 O26 2.317 . S
O26 Cd25 2.317 . S
O26 C27 1.232 . S
C27 O26 1.232 . S
C27 O28 1.218 . S
O28 C27 1.218 . S
C29 O22 1.275 1_545 S
C29 O24 1.255 . S
C30 O31 1.258 1_545 S
C30 O32 1.256 . S
O31 Cd23 2.381 1_565 S
O31 C30 1.258 1_565 S
O32 Cd23 2.378 . S
O32 C30 1.256 . S
O33 Cd34 2.300 . S
O33 C40 1.275 . S
Cd34 O33 2.300 . S
Cd34 O42 2.381 . S
Cd34 O43 2.378 . S
O35 Cd36 2.385 . S
O35 C40 1.255 . S
Cd36 O35 2.385 . S
Cd36 O37 2.317 . S
O37 Cd36 2.317 . S
O37 C38 1.232 . S
C38 O37 1.232 . S
C38 O39 1.218 . S
O39 C38 1.218 . S
C40 O33 1.275 . S
C40 O35 1.255 . S
C41 O42 1.258 . S
C41 O43 1.256 . S
O42 Cd34 2.381 . S
O42 C41 1.258 . S
O43 Cd34 2.378 . S
O43 C41 1.256 . S
O44 Cd45 2.300 . S
O44 C51 1.275 . S
Cd45 O44 2.300 . S
Cd45 O53 2.381 . S
Cd45 O54 2.378 . S
O46 Cd47 2.385 . S
O46 C51 1.255 . S
Cd47 O46 2.385 . S
Cd47 O48 2.317 1_554 S
O48 Cd47 2.317 1_556 S
O48 C49 1.232 . S
C49 O48 1.232 . S
C49 O50 1.218 . S
O50 C49 1.218 . S
C51 O44 1.275 . S
C51 O46 1.255 . S
C52 O53 1.258 . S
C52 O54 1.256 . S
O53 Cd45 2.381 . S
O53 C52 1.258 . S
O54 Cd45 2.378 . S
O54 C52 1.256 . S
O55 Cd56 2.300 1_655 S
O55 C62 1.275 1_655 S
Cd56 O55 2.300 1_455 S
Cd56 O64 2.381 1_455 S
Cd56 O65 2.378 . S
O57 Cd58 2.385 . S
O57 C62 1.255 . S
Cd58 O57 2.385 . S
Cd58 O59 2.317 1_554 S
O59 Cd58 2.317 1_556 S
O59 C60 1.232 . S
C60 O59 1.232 . S
C60 O61 1.218 . S
O61 C60 1.218 . S
C62 O55 1.275 1_455 S
C62 O57 1.255 . S
C63 O64 1.258 1_455 S
C63 O65 1.256 . S
O64 Cd56 2.381 1_655 S
O64 C63 1.258 1_655 S
O65 Cd56 2.378 . S
O65 C63 1.256 . S
O66 Cd67 2.300 1_565 S
O66 C73 1.275 1_565 S
Cd67 O66 2.300 1_545 S
Cd67 O75 2.381 1_545 S
Cd67 O76 2.378 . S
O68 Cd69 2.385 . S
O68 C73 1.255 . S
Cd69 O68 2.385 . S
Cd69 O70 2.317 1_554 S
O70 Cd69 2.317 1_556 S
O70 C71 1.232 . S
C71 O70 1.232 . S
C71 O72 1.218 . S
O72 C71 1.218 . S
C73 O66 1.275 1_545 S
C73 O68 1.255 . S
C74 O75 1.258 1_545 S
C74 O76 1.256 . S
O75 Cd67 2.381 1_565 S
O75 C74 1.258 1_565 S
O76 Cd67 2.378 . S
O76 C74 1.256 . S
O77 Cd78 2.300 . S
O77 C84 1.275 . S
Cd78 O77 2.300 . S
Cd78 O86 2.381 . S
Cd78 O87 2.378 . S
O79 Cd80 2.387 . S
O79 C84 1.255 . S
Cd80 O79 2.387 . S
Cd80 O81 2.315 1_554 S
O81 Cd80 2.315 1_556 S
O81 C82 1.232 . S
C82 O81 1.232 . S
C82 O83 1.218 . S
O83 C82 1.218 . S
C84 O77 1.275 . S
C84 O79 1.255 . S
C85 O86 1.258 . S
C85 O87 1.256 . S
O86 Cd78 2.381 . S
O86 C85 1.258 . S
O87 Cd78 2.378 . S
O87 C85 1.256 . S
C88 Eu89 2.835 . S
C88 C90 1.500 . S
C88 O108 1.257 . S
C88 O109 1.260 . S
Eu89 C88 2.835 . S
Eu89 O108 2.473 . S
Eu89 O109 2.480 . S
Eu89 O110 2.430 . S
Eu89 O111 2.670 1_545 S
Eu89 O112 2.394 . S
Eu89 O117 2.355 1_655 S
Eu89 O119 2.374 1_545 S
C90 C88 1.500 . S
C90 C91 1.377 . S
C90 C95 1.377 . S
C91 C90 1.377 . S
C91 C92 1.395 . S
C91 H120 0.931 . S
C92 C91 1.395 . S
C92 C93 1.383 . S
C92 H121 0.931 . S
C93 C92 1.383 . S
C93 C94 1.394 . S
C94 C93 1.394 . S
C94 C95 1.378 . S
C94 H122 0.931 1_655 S
C95 C90 1.377 . S
C95 C94 1.378 . S
C95 H123 0.931 1_655 S
C96 O110 1.259 . S
C96 O111 1.270 1_545 S
C97 O112 1.251 1_455 S
C97 O113 1.251 . S
C98 Eu99 2.835 . S
C98 C100 1.500 . S
C98 O114 1.257 . S
C98 O115 1.260 . S
Eu99 C98 2.835 . S
Eu99 O111 2.355 1_455 S
Eu99 O113 2.374 1_565 S
Eu99 O114 2.473 . S
Eu99 O115 2.480 . S
Eu99 O116 2.430 . S
Eu99 O117 2.670 1_565 S
Eu99 O118 2.394 . S
C100 C98 1.500 . S
C100 C101 1.377 . S
C100 C105 1.377 . S
C101 C100 1.377 . S
C101 C102 1.395 . S
C101 H124 0.931 . S
C102 C101 1.395 . S
C102 C103 1.383 1_556 S
C102 H125 0.931 . S
C103 C102 1.383 1_554 S
C103 C104 1.394 . S
C104 C103 1.394 . S
C104 C105 1.378 1_554 S
C104 H126 0.931 1_455 S
C105 C100 1.377 . S
C105 C104 1.378 1_556 S
C105 H127 0.931 1_455 S
C106 O116 1.279 . S
C106 O117 1.256 1_565 S
C107 O118 1.251 1_655 S
C107 O119 1.251 . S
O108 C88 1.257 . S
O108 Eu89 2.473 . S
O109 C88 1.260 . S
O109 Eu89 2.480 . S
O110 Eu89 2.430 . S
O110 C96 1.259 . S
O111 Eu89 2.670 1_565 S
O111 C96 1.270 1_565 S
O111 Eu99 2.355 1_655 S
O112 Eu89 2.394 . S
O112 C97 1.251 1_655 S
O113 C97 1.251 . S
O113 Eu99 2.374 1_545 S
O114 C98 1.257 . S
O114 Eu99 2.473 . S
O115 C98 1.260 . S
O115 Eu99 2.480 . S
O116 Eu99 2.430 . S
O116 C106 1.279 . S
O117 Eu89 2.355 1_455 S
O117 Eu99 2.670 1_545 S
O117 C106 1.256 1_545 S
O118 Eu99 2.394 . S
O118 C107 1.251 1_455 S
O119 Eu89 2.374 1_565 S
O119 C107 1.251 . S
H120 C91 0.931 . S
H121 C92 0.931 . S
H122 C94 0.931 1_455 S
H123 C95 0.931 1_455 S
H124 C101 0.931 . S
H125 C102 0.931 . S
H126 C104 0.931 1_655 S
H127 C105 0.931 1_655 S
C128 Eu129 2.835 . S
C128 C130 1.500 . S
C128 O148 1.257 . S
C128 O149 1.260 . S
Eu129 C128 2.835 . S
Eu129 O148 2.473 . S
Eu129 O149 2.480 . S
Eu129 O150 2.430 . S
Eu129 O151 2.670 . S
Eu129 O152 2.394 . S
Eu129 O157 2.355 1_565 S
Eu129 O159 2.374 . S
C130 C128 1.500 . S
C130 C131 1.377 . S
C130 C135 1.377 . S
C131 C130 1.377 . S
C131 C132 1.395 . S
C131 H160 0.931 . S
C132 C131 1.395 . S
C132 C133 1.383 . S
C132 H161 0.931 . S
C133 C132 1.383 . S
C133 C134 1.394 . S
C134 C133 1.394 . S
C134 C135 1.378 . S
C134 H162 0.931 1_565 S
C135 C130 1.377 . S
C135 C134 1.378 . S
C135 H163 0.931 1_565 S
C136 O150 1.259 . S
C136 O151 1.270 . S
C137 O152 1.251 1_545 S
C137 O153 1.251 . S
C138 Eu139 2.835 . S
C138 C140 1.500 . S
C138 O154 1.257 . S
C138 O155 1.260 . S
Eu139 C138 2.835 . S
Eu139 O151 2.355 1_545 S
Eu139 O153 2.374 . S
Eu139 O154 2.473 . S
Eu139 O155 2.480 . S
Eu139 O156 2.430 . S
Eu139 O157 2.670 . S
Eu139 O158 2.394 . S
C140 C138 1.500 . S
C140 C141 1.377 . S
C140 C145 1.377 . S
C141 C140 1.377 . S
C141 C142 1.395 . S
C141 H164 0.931 . S
C142 C141 1.395 . S
C142 C143 1.383 1_556 S
C142 H165 0.931 . S
C143 C142 1.383 1_554 S
C143 C144 1.394 . S
C144 C143 1.394 . S
C144 C145 1.378 1_554 S
C144 H166 0.931 1_545 S
C145 C140 1.377 . S
C145 C144 1.378 1_556 S
C145 H167 0.931 1_545 S
C146 O156 1.259 . S
C146 O157 1.270 . S
C147 O158 1.251 1_565 S
C147 O159 1.251 . S
O148 C128 1.257 . S
O148 Eu129 2.473 . S
O149 C128 1.260 . S
O149 Eu129 2.480 . S
O150 Eu129 2.430 . S
O150 C136 1.259 . S
O151 Eu129 2.670 . S
O151 C136 1.270 . S
O151 Eu139 2.355 1_565 S
O152 Eu129 2.394 . S
O152 C137 1.251 1_565 S
O153 C137 1.251 . S
O153 Eu139 2.374 . S
O154 C138 1.257 . S
O154 Eu139 2.473 . S
O155 C138 1.260 . S
O155 Eu139 2.480 . S
O156 Eu139 2.430 . S
O156 C146 1.259 . S
O157 Eu129 2.355 1_545 S
O157 Eu139 2.670 . S
O157 C146 1.270 . S
O158 Eu139 2.394 . S
O158 C147 1.251 1_545 S
O159 Eu129 2.374 . S
O159 C147 1.251 . S
H160 C131 0.931 . S
H161 C132 0.931 . S
H162 C134 0.931 1_545 S
H163 C135 0.931 1_545 S
H164 C141 0.931 . S
H165 C142 0.931 . S
H166 C144 0.931 1_565 S
H167 C145 0.931 1_565 S
C168 Eu169 2.835 . S
C168 C170 1.500 . S
C168 O188 1.257 . S
C168 O189 1.260 . S
Eu169 C168 2.835 . S
Eu169 O188 2.473 . S
Eu169 O189 2.480 . S
Eu169 O190 2.430 . S
Eu169 O191 2.670 . S
Eu169 O192 2.394 . S
Eu169 O197 2.355 . S
Eu169 O199 2.374 . S
C170 C168 1.500 . S
C170 C171 1.377 . S
C170 C175 1.377 . S
C171 C170 1.377 . S
C171 C172 1.395 . S
C171 H200 0.931 . S
C172 C171 1.395 . S
C172 C173 1.383 . S
C172 H201 0.931 . S
C173 C172 1.383 . S
C173 C174 1.394 . S
C174 C173 1.394 . S
C174 C175 1.378 . S
C174 H202 0.931 . S
C175 C170 1.377 . S
C175 C174 1.378 . S
C175 H203 0.931 . S
C176 O190 1.259 . S
C176 O191 1.270 . S
C177 O192 1.251 . S
C177 O193 1.251 . S
C178 Eu179 2.835 . S
C178 C180 1.500 . S
C178 O194 1.257 . S
C178 O195 1.260 . S
Eu179 C178 2.835 . S
Eu179 O191 2.355 . S
Eu179 O193 2.374 . S
Eu179 O194 2.473 . S
Eu179 O195 2.480 . S
Eu179 O196 2.430 . S
Eu179 O197 2.670 . S
Eu179 O198 2.394 . S
C180 C178 1.500 . S
C180 C181 1.377 . S
C180 C185 1.377 . S
C181 C180 1.377 . S
C181 C182 1.395 . S
C181 H204 0.931 . S
C182 C181 1.395 . S
C182 C183 1.383 1_556 S
C182 H205 0.931 . S
C183 C182 1.383 1_554 S
C183 C184 1.394 . S
C184 C183 1.394 . S
C184 C185 1.378 1_554 S
C184 H206 0.931 . S
C185 C180 1.377 . S
C185 C184 1.378 1_556 S
C185 H207 0.931 . S
C186 O196 1.259 . S
C186 O197 1.270 . S
C187 O198 1.251 . S
C187 O199 1.251 . S
O188 C168 1.257 . S
O188 Eu169 2.473 . S
O189 C168 1.260 . S
O189 Eu169 2.480 . S
O190 Eu169 2.430 . S
O190 C176 1.259 . S
O191 Eu169 2.670 . S
O191 C176 1.270 . S
O191 Eu179 2.355 . S
O192 Eu169 2.394 . S
O192 C177 1.251 . S
O193 C177 1.251 . S
O193 Eu179 2.374 . S
O194 C178 1.257 . S
O194 Eu179 2.473 . S
O195 C178 1.260 . S
O195 Eu179 2.480 . S
O196 Eu179 2.430 . S
O196 C186 1.259 . S
O197 Eu169 2.355 . S
O197 Eu179 2.670 . S
O197 C186 1.270 . S
O198 Eu179 2.394 . S
O198 C187 1.251 . S
O199 Eu169 2.374 . S
O199 C187 1.251 . S
H200 C171 0.931 . S
H201 C172 0.931 . S
H202 C174 0.931 . S
H203 C175 0.931 . S
H204 C181 0.931 . S
H205 C182 0.931 . S
H206 C184 0.931 . S
H207 C185 0.931 . S
C208 Eu209 2.835 . S
C208 C210 1.500 . S
C208 O228 1.257 . S
C208 O229 1.260 . S
Eu209 C208 2.835 . S
Eu209 O228 2.473 . S
Eu209 O229 2.480 . S
Eu209 O230 2.430 . S
Eu209 O231 2.670 1_455 S
Eu209 O232 2.394 . S
Eu209 O237 2.355 . S
Eu209 O239 2.374 1_455 S
C210 C208 1.500 . S
C210 C211 1.377 . S
C210 C215 1.377 . S
C211 C210 1.377 . S
C211 C212 1.395 . S
C211 H240 0.931 . S
C212 C211 1.395 . S
C212 C213 1.383 . S
C212 H241 0.931 . S
C213 C212 1.383 . S
C213 C214 1.394 . S
C214 C213 1.394 . S
C214 C215 1.378 . S
C214 H242 0.931 . S
C215 C210 1.377 . S
C215 C214 1.378 . S
C215 H243 0.931 . S
C216 O230 1.272 . S
C216 O231 1.261 1_455 S
C217 O232 1.251 . S
C217 O233 1.251 . S
C218 Eu219 2.835 . S
C218 C220 1.500 . S
C218 O234 1.257 . S
C218 O235 1.260 . S
Eu219 C218 2.835 . S
Eu219 O231 2.355 . S
Eu219 O233 2.374 1_655 S
Eu219 O234 2.473 . S
Eu219 O235 2.480 . S
Eu219 O236 2.430 . S
Eu219 O237 2.670 1_655 S
Eu219 O238 2.394 . S
C220 C218 1.500 . S
C220 C221 1.377 . S
C220 C225 1.377 . S
C221 C220 1.377 . S
C221 C222 1.395 . S
C221 H244 0.931 . S
C222 C221 1.395 . S
C222 C223 1.383 1_556 S
C222 H245 0.931 . S
C223 C222 1.383 1_554 S
C223 C224 1.394 . S
C224 C223 1.394 . S
C224 C225 1.378 1_554 S
C224 H246 0.931 . S
C225 C220 1.377 . S
C225 C224 1.378 1_556 S
C225 H247 0.931 . S
C226 O236 1.267 . S
C226 O237 1.264 1_655 S
C227 O238 1.251 . S
C227 O239 1.251 . S
O228 C208 1.257 . S
O228 Eu209 2.473 . S
O229 C208 1.260 . S
O229 Eu209 2.480 . S
O230 Eu209 2.430 . S
O230 C216 1.272 . S
O231 Eu209 2.670 1_655 S
O231 C216 1.261 1_655 S
O231 Eu219 2.355 . S
O232 Eu209 2.394 . S
O232 C217 1.251 . S
O233 C217 1.251 . S
O233 Eu219 2.374 1_455 S
O234 C218 1.257 . S
O234 Eu219 2.473 . S
O235 C218 1.260 . S
O235 Eu219 2.480 . S
O236 Eu219 2.430 . S
O236 C226 1.267 . S
O237 Eu209 2.355 . S
O237 Eu219 2.670 1_455 S
O237 C226 1.264 1_455 S
O238 Eu219 2.394 . S
O238 C227 1.251 . S
O239 Eu209 2.374 1_655 S
O239 C227 1.251 . S
H240 C211 0.931 . S
H241 C212 0.931 . S
H242 C214 0.931 . S
H243 C215 0.931 . S
H244 C221 0.931 . S
H245 C222 0.931 . S
H246 C224 0.931 . S
H247 C225 0.931 . S
H248 C260 0.930 . S
H249 C262 0.930 . S
H250 C263 0.930 . S
H251 C267 0.959 . S
H252 C267 0.959 . S
H253 C267 0.961 . S
H254 C268 0.960 . S
H255 C268 0.961 . S
H256 C268 0.959 . S
H257 C271 0.929 . S
H258 C272 0.931 . S
H259 C274 0.930 . S
C260 H248 0.930 . S
C260 C261 1.399 1_565 S
C260 C265 1.399 . S
C261 C260 1.399 1_545 S
C261 C262 1.376 . S
C262 H249 0.930 . S
C262 C261 1.376 . S
C262 C263 1.388 . S
C263 H250 0.930 . S
C263 C262 1.388 . S
C263 C264 1.390 . S
C264 C263 1.390 . S
C264 C265 1.394 1_545 S
C264 C270 1.465 . S
C265 C260 1.399 . S
C265 C264 1.394 1_565 S
C265 C266 1.516 . S
C266 C265 1.516 . S
C266 C267 1.502 . S
C266 C268 1.561 . S
C266 C269 1.526 . S
C267 H251 0.959 . S
C267 H252 0.959 . S
C267 H253 0.961 . S
C267 C266 1.502 . S
C268 H254 0.960 . S
C268 H255 0.961 . S
C268 H256 0.959 . S
C268 C266 1.561 . S
C269 C266 1.526 . S
C269 C270 1.396 1_565 S
C269 C274 1.390 . S
C270 C264 1.465 . S
C270 C269 1.396 1_545 S
C270 C271 1.399 . S
C271 H257 0.929 . S
C271 C270 1.399 . S
C271 C272 1.385 . S
C272 H258 0.931 . S
C272 C271 1.385 . S
C272 C273 1.389 . S
C273 C272 1.389 . S
C273 C274 1.387 1_545 S
C274 H259 0.930 . S
C274 C269 1.390 . S
C274 C273 1.387 1_565 S
H275 C287 0.930 . S
H276 C289 0.930 . S
H277 C290 0.930 . S
H278 C294 0.959 . S
H279 C294 0.959 . S
H280 C294 0.961 . S
H281 C295 0.960 . S
H282 C295 0.961 . S
H283 C295 0.959 . S
H284 C298 0.929 . S
H285 C299 0.931 . S
H286 C301 0.930 . S
C287 H275 0.930 . S
C287 C288 1.399 . S
C287 C292 1.399 . S
C288 C287 1.399 . S
C288 C289 1.376 . S
C289 H276 0.930 . S
C289 C288 1.376 . S
C289 C290 1.388 . S
C290 H277 0.930 . S
C290 C289 1.388 . S
C290 C291 1.390 . S
C291 C290 1.390 . S
C291 C292 1.394 . S
C291 C297 1.465 . S
C292 C287 1.399 . S
C292 C291 1.394 . S
C292 C293 1.516 . S
C293 C292 1.516 . S
C293 C294 1.502 . S
C293 C295 1.561 . S
C293 C296 1.526 . S
C294 H278 0.959 . S
C294 H279 0.959 . S
C294 H280 0.961 . S
C294 C293 1.502 . S
C295 H281 0.960 . S
C295 H282 0.961 . S
C295 H283 0.959 . S
C295 C293 1.561 . S
C296 C293 1.526 . S
C296 C297 1.396 . S
C296 C301 1.390 . S
C297 C291 1.465 . S
C297 C296 1.396 . S
C297 C298 1.399 . S
C298 H284 0.929 . S
C298 C297 1.399 . S
C298 C299 1.385 . S
C299 H285 0.931 . S
C299 C298 1.385 . S
C299 C300 1.389 . S
C300 C299 1.389 . S
C300 C301 1.387 . S
C301 H286 0.930 . S
C301 C296 1.390 . S
C301 C300 1.387 . S
H302 C314 0.930 . S
H303 C316 0.930 . S
H304 C317 0.930 . S
H305 C321 0.959 . S
H306 C321 0.959 . S
H307 C321 0.961 . S
H308 C322 0.960 . S
H309 C322 0.961 . S
H310 C322 0.959 . S
H311 C325 0.929 . S
H312 C326 0.931 . S
H313 C328 0.930 . S
C314 H302 0.930 . S
C314 C315 1.399 . S
C314 C319 1.399 . S
C315 C314 1.399 . S
C315 C316 1.376 . S
C316 H303 0.930 . S
C316 C315 1.376 . S
C316 C317 1.388 . S
C317 H304 0.930 . S
C317 C316 1.388 . S
C317 C318 1.390 . S
C318 C317 1.390 . S
C318 C319 1.394 . S
C318 C324 1.465 . S
C319 C314 1.399 . S
C319 C318 1.394 . S
C319 C320 1.516 . S
C320 C319 1.516 . S
C320 C321 1.502 . S
C320 C322 1.561 . S
C320 C323 1.526 . S
C321 H305 0.959 . S
C321 H306 0.959 . S
C321 H307 0.961 . S
C321 C320 1.502 . S
C322 H308 0.960 . S
C322 H309 0.961 . S
C322 H310 0.959 . S
C322 C320 1.561 . S
C323 C320 1.526 . S
C323 C324 1.396 . S
C323 C328 1.390 . S
C324 C318 1.465 . S
C324 C323 1.396 . S
C324 C325 1.399 . S
C325 H311 0.929 . S
C325 C324 1.399 . S
C325 C326 1.385 . S
C326 H312 0.931 . S
C326 C325 1.385 . S
C326 C327 1.389 . S
C327 C326 1.389 . S
C327 C328 1.387 . S
C328 H313 0.930 . S
C328 C323 1.390 . S
C328 C327 1.387 . S
H329 C341 0.930 . S
H330 C343 0.930 . S
H331 C344 0.930 . S
H332 C348 0.959 . S
H333 C348 0.959 . S
H334 C348 0.961 . S
H335 C349 0.960 . S
H336 C349 0.961 . S
H337 C349 0.959 . S
H338 C352 0.929 . S
H339 C353 0.931 . S
H340 C355 0.930 . S
C341 H329 0.930 . S
C341 C342 1.399 1_655 S
C341 C346 1.399 . S
C342 C341 1.399 1_455 S
C342 C343 1.376 . S
C343 H330 0.930 . S
C343 C342 1.376 . S
C343 C344 1.388 . S
C344 H331 0.930 . S
C344 C343 1.388 . S
C344 C345 1.390 . S
C345 C344 1.390 . S
C345 C346 1.394 1_455 S
C345 C351 1.465 . S
C346 C341 1.399 . S
C346 C345 1.394 1_655 S
C346 C347 1.516 . S
C347 C346 1.516 . S
C347 C348 1.502 . S
C347 C349 1.561 . S
C347 C350 1.526 . S
C348 H332 0.959 . S
C348 H333 0.959 . S
C348 H334 0.961 . S
C348 C347 1.502 . S
C349 H335 0.960 . S
C349 H336 0.961 . S
C349 H337 0.959 . S
C349 C347 1.561 . S
C350 C347 1.526 . S
C350 C351 1.396 1_655 S
C350 C355 1.390 . S
C351 C345 1.465 . S
C351 C350 1.396 1_455 S
C351 C352 1.399 . S
C352 H338 0.929 . S
C352 C351 1.399 . S
C352 C353 1.385 . S
C353 H339 0.931 . S
C353 C352 1.385 . S
C353 C354 1.389 . S
C354 C353 1.389 . S
C354 C355 1.387 1_455 S
C355 H340 0.930 . S
C355 C350 1.390 . S
C355 C354 1.387 1_655 S
H356 C368 0.930 . S
H357 C370 0.930 . S
H358 C371 0.930 . S
H359 C375 0.959 . S
H360 C375 0.959 . S
H361 C375 0.961 1_554 S
H362 C376 0.960 . S
H363 C376 0.961 . S
H364 C376 0.959 . S
H365 C379 0.929 1_554 S
H366 C380 0.931 . S
H367 C382 0.930 . S
C368 H356 0.930 . S
C368 C369 1.399 1_545 S
C368 C373 1.399 . S
C369 C368 1.399 1_565 S
C369 C370 1.376 . S
C370 H357 0.930 . S
C370 C369 1.376 . S
C370 C371 1.388 . S
C371 H358 0.930 . S
C371 C370 1.388 . S
C371 C372 1.390 . S
C372 C371 1.390 . S
C372 C373 1.394 1_565 S
C372 C378 1.465 . S
C373 C368 1.399 . S
C373 C372 1.394 1_545 S
C373 C374 1.516 . S
C374 C373 1.516 . S
C374 C375 1.502 1_554 S
C374 C376 1.561 . S
C374 C377 1.526 1_554 S
C375 H359 0.959 . S
C375 H360 0.959 . S
C375 H361 0.961 1_556 S
C375 C374 1.502 1_556 S
C376 H362 0.960 . S
C376 H363 0.961 . S
C376 H364 0.959 . S
C376 C374 1.561 . S
C377 C374 1.526 1_556 S
C377 C378 1.396 1_546 S
C377 C382 1.390 . S
C378 C372 1.465 . S
C378 C377 1.396 1_564 S
C378 C379 1.399 1_554 S
C379 H365 0.929 1_556 S
C379 C378 1.399 1_556 S
C379 C380 1.385 . S
C380 H366 0.931 . S
C380 C379 1.385 . S
C380 C381 1.389 . S
C381 C380 1.389 . S
C381 C382 1.387 1_565 S
C382 H367 0.930 . S
C382 C377 1.390 . S
C382 C381 1.387 1_545 S
H383 C395 0.930 . S
H384 C397 0.930 . S
H385 C398 0.930 . S
H386 C402 0.959 . S
H387 C402 0.959 . S
H388 C402 0.961 . S
H389 C403 0.960 . S
H390 C403 0.961 . S
H391 C403 0.959 . S
H392 C406 0.929 . S
H393 C407 0.931 . S
H394 C409 0.930 . S
C395 H383 0.930 . S
C395 C396 1.399 . S
C395 C400 1.399 . S
C396 C395 1.399 . S
C396 C397 1.376 . S
C397 H384 0.930 . S
C397 C396 1.376 . S
C397 C398 1.388 . S
C398 H385 0.930 . S
C398 C397 1.388 . S
C398 C399 1.390 . S
C399 C398 1.390 . S
C399 C400 1.394 . S
C399 C405 1.465 1_554 S
C400 C395 1.399 . S
C400 C399 1.394 . S
C400 C401 1.516 . S
C401 C400 1.516 . S
C401 C402 1.502 . S
C401 C403 1.561 . S
C401 C404 1.526 . S
C402 H386 0.959 . S
C402 H387 0.959 . S
C402 H388 0.961 . S
C402 C401 1.502 . S
C403 H389 0.960 . S
C403 H390 0.961 . S
C403 H391 0.959 . S
C403 C401 1.561 . S
C404 C401 1.526 . S
C404 C405 1.396 1_554 S
C404 C409 1.390 1_554 S
C405 C399 1.465 1_556 S
C405 C404 1.396 1_556 S
C405 C406 1.399 . S
C406 H392 0.929 . S
C406 C405 1.399 . S
C406 C407 1.385 . S
C407 H393 0.931 . S
C407 C406 1.385 . S
C407 C408 1.389 . S
C408 C407 1.389 . S
C408 C409 1.387 . S
C409 H394 0.930 . S
C409 C404 1.390 1_556 S
C409 C408 1.387 . S
H410 C422 0.930 . S
H411 C424 0.930 . S
H412 C425 0.930 . S
H413 C429 0.959 . S
H414 C429 0.959 . S
H415 C429 0.961 1_554 S
H416 C430 0.960 . S
H417 C430 0.961 . S
H418 C430 0.959 . S
H419 C433 0.929 1_554 S
H420 C434 0.931 . S
H421 C436 0.930 . S
C422 H410 0.930 . S
C422 C423 1.399 . S
C422 C427 1.399 . S
C423 C422 1.399 . S
C423 C424 1.376 . S
C424 H411 0.930 . S
C424 C423 1.376 . S
C424 C425 1.388 . S
C425 H412 0.930 . S
C425 C424 1.388 . S
C425 C426 1.390 . S
C426 C425 1.390 . S
C426 C427 1.394 . S
C426 C432 1.465 . S
C427 C422 1.399 . S
C427 C426 1.394 . S
C427 C428 1.516 . S
C428 C427 1.516 . S
C428 C429 1.502 1_554 S
C428 C430 1.561 . S
C428 C431 1.526 1_554 S
C429 H413 0.959 . S
C429 H414 0.959 . S
C429 H415 0.961 1_556 S
C429 C428 1.502 1_556 S
C430 H416 0.960 . S
C430 H417 0.961 . S
C430 H418 0.959 . S
C430 C428 1.561 . S
C431 C428 1.526 1_556 S
C431 C432 1.396 1_556 S
C431 C436 1.390 . S
C432 C426 1.465 . S
C432 C431 1.396 1_554 S
C432 C433 1.399 1_554 S
C433 H419 0.929 1_556 S
C433 C432 1.399 1_556 S
C433 C434 1.385 . S
C434 H420 0.931 . S
C434 C433 1.385 . S
C434 C435 1.389 . S
C435 C434 1.389 . S
C435 C436 1.387 . S
C436 H421 0.930 . S
C436 C431 1.390 . S
C436 C435 1.387 . S
H437 C449 0.930 . S
H438 C451 0.930 . S
H439 C452 0.930 . S
H440 C456 0.959 . S
H441 C456 0.959 . S
H442 C456 0.961 . S
H443 C457 0.960 . S
H444 C457 0.961 . S
H445 C457 0.959 . S
H446 C460 0.929 . S
H447 C461 0.931 . S
H448 C463 0.930 . S
C449 H437 0.930 . S
C449 C450 1.399 1_655 S
C449 C454 1.399 . S
C450 C449 1.399 1_455 S
C450 C451 1.376 . S
C451 H438 0.930 . S
C451 C450 1.376 . S
C451 C452 1.388 . S
C452 H439 0.930 . S
C452 C451 1.388 . S
C452 C453 1.390 . S
C453 C452 1.390 . S
C453 C454 1.394 1_455 S
C453 C459 1.465 . S
C454 C449 1.399 . S
C454 C453 1.394 1_655 S
C454 C455 1.516 1_554 S
C455 C454 1.516 1_556 S
C455 C456 1.502 . S
C455 C457 1.561 1_655 S
C455 C458 1.526 . S
C456 H440 0.959 . S
C456 H441 0.959 . S
C456 H442 0.961 . S
C456 C455 1.502 . S
C457 H443 0.960 . S
C457 H444 0.961 . S
C457 H445 0.959 . S
C457 C455 1.561 1_455 S
C458 C455 1.526 . S
C458 C459 1.396 1_656 S
C458 C463 1.390 . S
C459 C453 1.465 . S
C459 C458 1.396 1_454 S
C459 C460 1.399 . S
C460 H446 0.929 . S
C460 C459 1.399 . S
C460 C461 1.385 1_554 S
C461 H447 0.931 . S
C461 C460 1.385 1_556 S
C461 C462 1.399 . S
C462 C461 1.399 . S
C462 C463 1.380 1_455 S
C463 H448 0.930 . S
C463 C458 1.390 . S
C463 C462 1.380 1_655 S
H464 C476 0.930 . S
H465 C478 0.930 . S
H466 C479 0.930 . S
H467 C483 0.959 . S
H468 C483 0.959 . S
H469 C483 0.961 . S
H470 C484 0.960 . S
H471 C484 0.961 . S
H472 C484 0.959 . S
H473 C487 0.929 . S
H474 C488 0.931 . S
H475 C490 0.930 . S
C476 H464 0.930 . S
C476 C477 1.399 . S
C476 C481 1.399 1_455 S
C477 C476 1.399 . S
C477 C478 1.376 1_455 S
C478 H465 0.930 . S
C478 C477 1.376 1_655 S
C478 C479 1.388 . S
C479 H466 0.930 . S
C479 C478 1.388 . S
C479 C480 1.390 . S
C480 C479 1.390 . S
C480 C481 1.394 . S
C480 C486 1.465 . S
C481 C476 1.399 1_655 S
C481 C480 1.394 . S
C481 C482 1.516 . S
C482 C481 1.516 . S
C482 C483 1.502 . S
C482 C484 1.561 1_655 S
C482 C485 1.526 . S
C483 H467 0.959 . S
C483 H468 0.959 . S
C483 H469 0.961 . S
C483 C482 1.502 . S
C484 H470 0.960 . S
C484 H471 0.961 . S
C484 H472 0.959 . S
C484 C482 1.561 1_455 S
C485 C482 1.526 . S
C485 C486 1.396 . S
C485 C490 1.390 . S
C486 C480 1.465 . S
C486 C485 1.396 . S
C486 C487 1.399 . S
C487 H473 0.929 . S
C487 C486 1.399 . S
C487 C488 1.385 . S
C488 H474 0.931 . S
C488 C487 1.385 . S
C488 C489 1.389 . S
C489 C488 1.389 . S
C489 C490 1.387 . S
C490 H475 0.930 . S
C490 C485 1.390 . S
C490 C489 1.387 . S
H491 C503 0.930 . S
H492 C505 0.930 . S
H493 C506 0.930 . S
H494 C510 0.959 . S
H495 C510 0.959 . S
H496 C510 0.961 . S
H497 C511 0.960 . S
H498 C511 0.961 . S
H499 C511 0.959 . S
H500 C514 0.929 1_545 S
H501 C515 0.931 . S
H502 C517 0.930 . S
C503 H491 0.930 . S
C503 C504 1.399 1_565 S
C503 C508 1.399 . S
C504 C503 1.399 1_545 S
C504 C505 1.376 . S
C505 H492 0.930 . S
C505 C504 1.376 . S
C505 C506 1.388 . S
C506 H493 0.930 . S
C506 C505 1.388 . S
C506 C507 1.390 1_545 S
C507 C506 1.390 1_565 S
C507 C508 1.394 . S
C507 C513 1.465 . S
C508 C503 1.399 . S
C508 C507 1.394 . S
C508 C509 1.516 . S
C509 C508 1.516 . S
C509 C510 1.502 . S
C509 C511 1.561 . S
C509 C512 1.526 . S
C510 H494 0.959 . S
C510 H495 0.959 . S
C510 H496 0.961 . S
C510 C509 1.502 . S
C511 H497 0.960 . S
C511 H498 0.961 . S
C511 H499 0.959 . S
C511 C509 1.561 . S
C512 C509 1.526 . S
C512 C513 1.396 . S
C512 C517 1.390 . S
C513 C507 1.465 . S
C513 C512 1.396 . S
C513 C514 1.399 . S
C514 H500 0.929 1_565 S
C514 C513 1.399 . S
C514 C515 1.385 . S
C515 H501 0.931 . S
C515 C514 1.385 . S
C515 C516 1.389 . S
C516 C515 1.389 . S
C516 C517 1.387 . S
C517 H502 0.930 . S
C517 C512 1.390 . S
C517 C516 1.387 . S
H518 C530 0.930 . S
H519 C532 0.930 . S
H520 C533 0.930 . S
H521 C537 0.959 . S
H522 C537 0.959 . S
H523 C537 0.961 . S
H524 C538 0.960 . S
H525 C538 0.961 . S
H526 C538 0.959 . S
H527 C541 0.929 . S
H528 C542 0.931 . S
H529 C544 0.930 . S
C530 H518 0.930 . S
C530 C531 1.399 . S
C530 C535 1.399 . S
C531 C530 1.399 . S
C531 C532 1.376 . S
C532 H519 0.930 . S
C532 C531 1.376 . S
C532 C533 1.388 . S
C533 H520 0.930 . S
C533 C532 1.388 . S
C533 C534 1.390 . S
C534 C533 1.390 . S
C534 C535 1.394 . S
C534 C540 1.465 . S
C535 C530 1.399 . S
C535 C534 1.394 . S
C535 C536 1.516 . S
C536 C535 1.516 . S
C536 C537 1.502 . S
C536 C538 1.561 . S
C536 C539 1.526 . S
C537 H521 0.959 . S
C537 H522 0.959 . S
C537 H523 0.961 . S
C537 C536 1.502 . S
C538 H524 0.960 . S
C538 H525 0.961 . S
C538 H526 0.959 . S
C538 C536 1.561 . S
C539 C536 1.526 . S
C539 C540 1.396 . S
C539 C544 1.390 . S
C540 C534 1.465 . S
C540 C539 1.396 . S
C540 C541 1.399 . S
C541 H527 0.929 . S
C541 C540 1.399 . S
C541 C542 1.385 . S
C542 H528 0.931 . S
C542 C541 1.385 . S
C542 C543 1.389 . S
C543 C542 1.389 . S
C543 C544 1.387 . S
C544 H529 0.930 . S
C544 C539 1.390 . S
C544 C543 1.387 . S
H545 C557 0.930 . S
H546 C559 0.930 . S
H547 C560 0.930 . S
H548 C564 0.959 . S
H549 C564 0.959 . S
H550 C564 0.961 . S
H551 C565 0.960 . S
H552 C565 0.961 . S
H553 C565 0.959 . S
H554 C568 0.929 . S
H555 C569 0.931 . S
H556 C571 0.930 . S
C557 H545 0.930 . S
C557 C558 1.399 . S
C557 C562 1.399 . S
C558 C557 1.399 . S
C558 C559 1.376 . S
C559 H546 0.930 . S
C559 C558 1.376 . S
C559 C560 1.388 . S
C560 H547 0.930 . S
C560 C559 1.388 . S
C560 C561 1.390 . S
C561 C560 1.390 . S
C561 C562 1.394 . S
C561 C567 1.465 . S
C562 C557 1.399 . S
C562 C561 1.394 . S
C562 C563 1.516 . S
C563 C562 1.516 . S
C563 C564 1.502 . S
C563 C565 1.561 . S
C563 C566 1.526 . S
C564 H548 0.959 . S
C564 H549 0.959 . S
C564 H550 0.961 . S
C564 C563 1.502 . S
C565 H551 0.960 . S
C565 H552 0.961 . S
C565 H553 0.959 . S
C565 C563 1.561 . S
C566 C563 1.526 . S
C566 C567 1.396 . S
C566 C571 1.390 . S
C567 C561 1.465 . S
C567 C566 1.396 . S
C567 C568 1.399 . S
C568 H554 0.929 . S
C568 C567 1.399 . S
C568 C569 1.385 . S
C569 H555 0.931 . S
C569 C568 1.385 . S
C569 C570 1.389 . S
C570 C569 1.389 . S
C570 C571 1.387 . S
C571 H556 0.930 . S
C571 C566 1.390 . S
C571 C570 1.387 . S
H572 C584 0.930 . S
H573 C586 0.930 . S
H574 C587 0.930 . S
H575 C591 0.959 . S
H576 C591 0.959 . S
H577 C591 0.961 . S
H578 C592 0.960 . S
H579 C592 0.961 . S
H580 C592 0.959 1_655 S
H581 C595 0.929 1_655 S
H582 C596 0.931 . S
H583 C598 0.930 1_556 S
C584 H572 0.930 . S
C584 C585 1.399 1_455 S
C584 C589 1.399 . S
C585 C584 1.399 1_655 S
C585 C586 1.376 . S
C586 H573 0.930 . S
C586 C585 1.376 . S
C586 C587 1.388 . S
C587 H574 0.930 . S
C587 C586 1.388 . S
C587 C588 1.390 1_655 S
C588 C587 1.390 1_455 S
C588 C589 1.394 . S
C588 C594 1.465 . S
C589 C584 1.399 . S
C589 C588 1.394 . S
C589 C590 1.516 . S
C590 C589 1.516 . S
C590 C591 1.502 . S
C590 C592 1.561 1_554 S
C590 C593 1.526 . S
C591 H575 0.959 . S
C591 H576 0.959 . S
C591 H577 0.961 . S
C591 C590 1.502 . S
C592 H578 0.960 . S
C592 H579 0.961 . S
C592 H580 0.959 1_455 S
C592 C590 1.561 1_556 S
C593 C590 1.526 . S
C593 C594 1.396 . S
C593 C598 1.390 . S
C594 C588 1.465 . S
C594 C593 1.396 . S
C594 C595 1.399 . S
C595 H581 0.929 1_455 S
C595 C594 1.399 . S
C595 C596 1.385 . S
C596 H582 0.931 . S
C596 C595 1.385 . S
C596 C597 1.389 . S
C597 C596 1.389 . S
C597 C598 1.387 . S
C598 H583 0.930 1_554 S
C598 C593 1.390 . S
C598 C597 1.387 . S
H599 C611 0.930 . S
H600 C613 0.930 . S
H601 C614 0.930 . S
H602 C618 0.959 1_556 S
H603 C618 0.959 1_556 S
H604 C618 0.961 . S
H605 C619 0.960 . S
H606 C619 0.961 . S
H607 C619 0.959 . S
H608 C622 0.929 . S
H609 C623 0.931 . S
H610 C625 0.933 1_566 S
C611 H599 0.930 . S
C611 C612 1.387 1_565 S
C611 C616 1.399 . S
C612 C611 1.387 1_545 S
C612 C613 1.399 . S
C613 H600 0.930 . S
C613 C612 1.399 . S
C613 C614 1.388 . S
C614 H601 0.930 . S
C614 C613 1.388 . S
C614 C615 1.390 . S
C615 C614 1.390 . S
C615 C616 1.394 1_545 S
C615 C621 1.465 . S
C616 C611 1.399 . S
C616 C615 1.394 1_565 S
C616 C617 1.516 . S
C617 C616 1.516 . S
C617 C618 1.502 . S
C617 C619 1.561 . S
C617 C620 1.526 1_565 S
C618 H602 0.959 1_554 S
C618 H603 0.959 1_554 S
C618 H604 0.961 . S
C618 C617 1.502 . S
C619 H605 0.960 . S
C619 H606 0.961 . S
C619 H607 0.959 . S
C619 C617 1.561 . S
C620 C617 1.526 1_545 S
C620 C621 1.396 . S
C620 C625 1.390 . S
C621 C615 1.465 . S
C621 C620 1.396 . S
C621 C622 1.399 . S
C622 H608 0.929 . S
C622 C621 1.399 . S
C622 C623 1.385 . S
C623 H609 0.931 . S
C623 C622 1.385 . S
C623 C624 1.389 . S
C624 C623 1.389 . S
C624 C625 1.387 . S
C625 H610 0.933 1_544 S
C625 C620 1.390 . S
C625 C624 1.387 . S
H626 C638 0.930 . S
H627 C640 0.930 . S
H628 C641 0.930 . S
H629 C645 0.959 . S
H630 C645 0.959 . S
H631 C645 0.961 . S
H632 C646 0.960 . S
H633 C646 0.961 . S
H634 C646 0.959 . S
H635 C649 0.929 1_556 S
H636 C650 0.931 . S
H637 C652 0.930 . S
C638 H626 0.930 . S
C638 C639 1.399 . S
C638 C643 1.399 . S
C639 C638 1.399 . S
C639 C640 1.376 . S
C640 H627 0.930 . S
C640 C639 1.376 . S
C640 C641 1.388 . S
C641 H628 0.930 . S
C641 C640 1.388 . S
C641 C642 1.390 . S
C642 C641 1.390 . S
C642 C643 1.394 . S
C642 C648 1.465 . S
C643 C638 1.399 . S
C643 C642 1.394 . S
C643 C644 1.516 . S
C644 C643 1.516 . S
C644 C645 1.502 . S
C644 C646 1.561 . S
C644 C647 1.526 . S
C645 H629 0.959 . S
C645 H630 0.959 . S
C645 H631 0.961 . S
C645 C644 1.502 . S
C646 H632 0.960 . S
C646 H633 0.961 . S
C646 H634 0.959 . S
C646 C644 1.561 . S
C647 C644 1.526 . S
C647 C648 1.396 . S
C647 C652 1.390 . S
C648 C642 1.465 . S
C648 C647 1.396 . S
C648 C649 1.399 . S
C649 H635 0.929 1_554 S
C649 C648 1.399 . S
C649 C650 1.385 1_554 S
C650 H636 0.931 . S
C650 C649 1.385 1_556 S
C650 C651 1.389 1_556 S
C651 C650 1.389 1_554 S
C651 C652 1.387 . S
C652 H637 0.930 . S
C652 C647 1.390 . S
C652 C651 1.387 . S
H653 C665 0.930 . S
H654 C667 0.930 . S
H655 C668 0.930 . S
H656 C672 0.959 1_556 S
H657 C672 0.959 1_556 S
H658 C672 0.961 . S
H659 C673 0.960 . S
H660 C673 0.961 . S
H661 C673 0.959 . S
H662 C676 0.929 . S
H663 C677 0.931 . S
H664 C679 0.930 1_556 S
C665 H653 0.930 . S
C665 C666 1.399 . S
C665 C670 1.399 . S
C666 C665 1.399 . S
C666 C667 1.376 . S
C667 H654 0.930 . S
C667 C666 1.376 . S
C667 C668 1.388 . S
C668 H655 0.930 . S
C668 C667 1.388 . S
C668 C669 1.390 . S
C669 C668 1.390 . S
C669 C670 1.394 . S
C669 C675 1.465 . S
C670 C665 1.399 . S
C670 C669 1.394 . S
C670 C671 1.516 . S
C671 C670 1.516 . S
C671 C672 1.502 . S
C671 C673 1.561 . S
C671 C674 1.526 . S
C672 H656 0.959 1_554 S
C672 H657 0.959 1_554 S
C672 H658 0.961 . S
C672 C671 1.502 . S
C673 H659 0.960 . S
C673 H660 0.961 . S
C673 H661 0.959 . S
C673 C671 1.561 . S
C674 C671 1.526 . S
C674 C675 1.396 . S
C674 C679 1.390 . S
C675 C669 1.465 . S
C675 C674 1.396 . S
C675 C676 1.399 . S
C676 H662 0.929 . S
C676 C675 1.399 . S
C676 C677 1.385 . S
C677 H663 0.931 . S
C677 C676 1.385 . S
C677 C678 1.389 . S
C678 C677 1.389 . S
C678 C679 1.387 . S
C679 H664 0.930 1_554 S
C679 C674 1.390 . S
C679 C678 1.387 . S
H680 C692 0.930 . S
H681 C694 0.930 . S
H682 C695 0.930 . S
H683 C699 0.959 . S
H684 C699 0.959 1_554 S
H685 C699 0.961 1_554 S
H686 C700 0.960 1_554 S
H687 C700 0.961 1_554 S
H688 C700 0.959 . S
H689 C703 0.940 . S
H690 C704 0.931 . S
H691 C706 0.930 . S
C692 H680 0.930 . S
C692 C693 1.399 . S
C692 C697 1.399 . S
C693 C692 1.399 . S
C693 C694 1.376 1_455 S
C694 H681 0.930 . S
C694 C693 1.376 1_655 S
C694 C695 1.388 . S
C695 H682 0.930 . S
C695 C694 1.388 . S
C695 C696 1.394 . S
C696 C695 1.394 . S
C696 C697 1.390 1_655 S
C696 C702 1.464 1_655 S
C697 C692 1.399 . S
C697 C696 1.390 1_455 S
C697 C698 1.516 . S
C698 C697 1.516 . S
C698 C699 1.502 . S
C698 C700 1.561 1_455 S
C698 C701 1.526 . S
C699 H683 0.959 . S
C699 H684 0.959 1_556 S
C699 H685 0.961 1_556 S
C699 C698 1.502 . S
C700 H686 0.960 1_556 S
C700 H687 0.961 1_556 S
C700 H688 0.959 . S
C700 C698 1.561 1_655 S
C701 C698 1.526 . S
C701 C702 1.396 . S
C701 C706 1.390 . S
C702 C696 1.464 1_455 S
C702 C701 1.396 . S
C702 C703 1.395 1_455 S
C703 H689 0.940 . S
C703 C702 1.395 1_655 S
C703 C704 1.380 1_655 S
C704 H690 0.931 . S
C704 C703 1.380 1_455 S
C704 C705 1.389 . S
C705 C704 1.389 . S
C705 C706 1.387 . S
C706 H691 0.930 . S
C706 C701 1.390 . S
C706 C705 1.387 . S
H707 C719 0.930 . S
H708 C721 0.930 . S
H709 C722 0.930 . S
H710 C726 0.959 . S
H711 C726 0.959 . S
H712 C726 0.961 . S
H713 C727 0.960 . S
H714 C727 0.961 . S
H715 C727 0.959 . S
H716 C730 0.929 . S
H717 C731 0.931 . S
H718 C733 0.930 . S
C719 H707 0.930 . S
C719 C720 1.363 1_545 S
C719 C724 1.399 . S
C720 C719 1.363 1_565 S
C720 C721 1.420 . S
C721 H708 0.930 . S
C721 C720 1.420 . S
C721 C722 1.388 . S
C722 H709 0.930 . S
C722 C721 1.388 . S
C722 C723 1.390 . S
C723 C722 1.390 . S
C723 C724 1.394 1_565 S
C723 C729 1.465 . S
C724 C719 1.399 . S
C724 C723 1.394 1_545 S
C724 C725 1.516 . S
C725 C724 1.516 . S
C725 C726 1.502 . S
C725 C727 1.561 . S
C725 C728 1.526 . S
C726 H710 0.959 . S
C726 H711 0.959 . S
C726 H712 0.961 . S
C726 C725 1.502 . S
C727 H713 0.960 . S
C727 H714 0.961 . S
C727 H715 0.959 . S
C727 C725 1.561 . S
C728 C725 1.526 . S
C728 C729 1.396 1_545 S
C728 C733 1.390 . S
C729 C723 1.465 . S
C729 C728 1.396 1_565 S
C729 C730 1.399 . S
C730 H716 0.929 . S
C730 C729 1.399 . S
C730 C731 1.385 . S
C731 H717 0.931 . S
C731 C730 1.385 . S
C731 C732 1.389 1_565 S
C732 C731 1.389 1_545 S
C732 C733 1.387 . S
C733 H718 0.930 . S
C733 C728 1.390 . S
C733 C732 1.387 . S
H734 C746 0.930 . S
H735 C748 0.930 . S
H736 C749 0.930 . S
H737 C753 0.959 . S
H738 C753 0.959 . S
H739 C753 0.961 . S
H740 C754 0.960 . S
H741 C754 0.961 . S
H742 C754 0.959 . S
H743 C757 0.929 . S
H744 C758 0.931 . S
H745 C760 0.930 . S
C746 H734 0.930 . S
C746 C747 1.399 . S
C746 C751 1.399 . S
C747 C746 1.399 . S
C747 C748 1.376 . S
C748 H735 0.930 . S
C748 C747 1.376 . S
C748 C749 1.388 . S
C749 H736 0.930 . S
C749 C748 1.388 . S
C749 C750 1.390 . S
C750 C749 1.390 . S
C750 C751 1.394 . S
C750 C756 1.465 . S
C751 C746 1.399 . S
C751 C750 1.394 . S
C751 C752 1.516 . S
C752 C751 1.516 . S
C752 C753 1.502 . S
C752 C754 1.561 . S
C752 C755 1.526 . S
C753 H737 0.959 . S
C753 H738 0.959 . S
C753 H739 0.961 . S
C753 C752 1.502 . S
C754 H740 0.960 . S
C754 H741 0.961 . S
C754 H742 0.959 . S
C754 C752 1.561 . S
C755 C752 1.526 . S
C755 C756 1.396 . S
C755 C760 1.390 . S
C756 C750 1.465 . S
C756 C755 1.396 . S
C756 C757 1.399 . S
C757 H743 0.929 . S
C757 C756 1.399 . S
C757 C758 1.385 . S
C758 H744 0.931 . S
C758 C757 1.385 . S
C758 C759 1.389 . S
C759 C758 1.389 . S
C759 C760 1.387 . S
C760 H745 0.930 . S
C760 C755 1.390 . S
C760 C759 1.387 . S
H761 C773 0.930 . S
H762 C775 0.930 . S
H763 C776 0.930 . S
H764 C780 0.959 . S
H765 C780 0.959 . S
H766 C780 0.961 . S
H767 C781 0.960 1_554 S
H768 C781 0.961 1_554 S
H769 C781 0.959 . S
H770 C784 0.929 . S
H771 C785 0.931 . S
H772 C787 0.930 . S
C773 H761 0.930 . S
C773 C774 1.399 . S
C773 C778 1.399 . S
C774 C773 1.399 . S
C774 C775 1.376 . S
C775 H762 0.930 . S
C775 C774 1.376 . S
C775 C776 1.388 . S
C776 H763 0.930 . S
C776 C775 1.388 . S
C776 C777 1.390 . S
C777 C776 1.390 . S
C777 C778 1.394 . S
C777 C783 1.465 . S
C778 C773 1.399 . S
C778 C777 1.394 . S
C778 C779 1.516 . S
C779 C778 1.516 . S
C779 C780 1.502 . S
C779 C781 1.561 . S
C779 C782 1.526 . S
C780 H764 0.959 . S
C780 H765 0.959 . S
C780 H766 0.961 . S
C780 C779 1.502 . S
C781 H767 0.960 1_556 S
C781 H768 0.961 1_556 S
C781 H769 0.959 . S
C781 C779 1.561 . S
C782 C779 1.526 . S
C782 C783 1.396 . S
C782 C787 1.390 . S
C783 C777 1.465 . S
C783 C782 1.396 . S
C783 C784 1.399 . S
C784 H770 0.929 . S
C784 C783 1.399 . S
C784 C785 1.385 . S
C785 H771 0.931 . S
C785 C784 1.385 . S
C785 C786 1.389 . S
C786 C785 1.389 . S
C786 C787 1.387 . S
C787 H772 0.930 . S
C787 C782 1.390 . S
C787 C786 1.387 . S
H788 C800 0.930 . S
H789 C802 0.930 . S
H790 C803 0.930 . S
H791 C807 0.959 . S
H792 C807 0.959 . S
H793 C807 0.961 . S
H794 C808 0.960 . S
H795 C808 0.961 . S
H796 C808 0.959 . S
H797 C811 0.929 . S
H798 C812 0.931 . S
H799 C814 0.930 . S
C800 H788 0.930 . S
C800 C801 1.375 1_655 S
C800 C805 1.399 . S
C801 C800 1.375 1_455 S
C801 C802 1.405 . S
C802 H789 0.930 . S
C802 C801 1.405 . S
C802 C803 1.388 . S
C803 H790 0.930 . S
C803 C802 1.388 . S
C803 C804 1.390 . S
C804 C803 1.390 . S
C804 C805 1.394 1_455 S
C804 C810 1.465 . S
C805 C800 1.399 . S
C805 C804 1.394 1_655 S
C805 C806 1.516 . S
C806 C805 1.516 . S
C806 C807 1.502 . S
C806 C808 1.561 . S
C806 C809 1.526 . S
C807 H791 0.959 . S
C807 H792 0.959 . S
C807 H793 0.961 . S
C807 C806 1.502 . S
C808 H794 0.960 . S
C808 H795 0.961 . S
C808 H796 0.959 . S
C808 C806 1.561 . S
C809 C806 1.526 . S
C809 C810 1.396 1_655 S
C809 C814 1.390 . S
C810 C804 1.465 . S
C810 C809 1.396 1_455 S
C810 C811 1.399 . S
C811 H797 0.929 . S
C811 C810 1.399 . S
C811 C812 1.385 . S
C812 H798 0.931 . S
C812 C811 1.385 . S
C812 C813 1.389 1_455 S
C813 C812 1.389 1_655 S
C813 C814 1.387 . S
C814 H799 0.930 . S
C814 C809 1.390 . S
C814 C813 1.387 . S
H815 C827 0.930 . S
H816 C829 0.930 . S
H817 C830 0.930 . S
H818 C834 0.959 1_565 S
H819 C834 0.959 . S
H820 C834 0.961 . S
H821 C835 0.960 . S
H822 C835 0.961 . S
H823 C835 0.959 . S
H824 C838 0.929 . S
H825 C839 0.931 . S
H826 C841 0.930 . S
C827 H815 0.930 . S
C827 C828 1.399 1_545 S
C827 C832 1.399 . S
C828 C827 1.399 1_565 S
C828 C829 1.376 . S
C829 H816 0.930 . S
C829 C828 1.376 . S
C829 C830 1.388 . S
C830 H817 0.930 . S
C830 C829 1.388 . S
C830 C831 1.390 . S
C831 C830 1.390 . S
C831 C832 1.394 1_565 S
C831 C837 1.465 . S
C832 C827 1.399 . S
C832 C831 1.394 1_545 S
C832 C833 1.516 . S
C833 C832 1.516 . S
C833 C834 1.502 . S
C833 C835 1.561 . S
C833 C836 1.526 . S
C834 H818 0.959 1_545 S
C834 H819 0.959 . S
C834 H820 0.961 . S
C834 C833 1.502 . S
C835 H821 0.960 . S
C835 H822 0.961 . S
C835 H823 0.959 . S
C835 C833 1.561 . S
C836 C833 1.526 . S
C836 C837 1.396 1_545 S
C836 C841 1.390 . S
C837 C831 1.465 . S
C837 C836 1.396 1_565 S
C837 C838 1.399 . S
C838 H824 0.929 . S
C838 C837 1.399 . S
C838 C839 1.385 . S
C839 H825 0.931 . S
C839 C838 1.385 . S
C839 C840 1.389 . S
C840 C839 1.389 . S
C840 C841 1.387 1_565 S
C841 H826 0.930 . S
C841 C836 1.390 . S
C841 C840 1.387 1_545 S
H842 C854 0.930 . S
H843 C856 0.930 . S
H844 C857 0.930 . S
H845 C861 0.959 . S
H846 C861 0.959 . S
H847 C861 0.961 . S
H848 C862 0.960 . S
H849 C862 0.961 . S
H850 C862 0.959 . S
H851 C865 0.929 . S
H852 C866 0.931 . S
H853 C868 0.930 . S
C854 H842 0.930 . S
C854 C855 1.399 . S
C854 C859 1.399 . S
C855 C854 1.399 . S
C855 C856 1.376 . S
C856 H843 0.930 . S
C856 C855 1.376 . S
C856 C857 1.388 . S
C857 H844 0.930 . S
C857 C856 1.388 . S
C857 C858 1.390 . S
C858 C857 1.390 . S
C858 C859 1.394 . S
C858 C864 1.465 . S
C859 C854 1.399 . S
C859 C858 1.394 . S
C859 C860 1.516 . S
C860 C859 1.516 . S
C860 C861 1.502 . S
C860 C862 1.561 . S
C860 C863 1.526 . S
C861 H845 0.959 . S
C861 H846 0.959 . S
C861 H847 0.961 . S
C861 C860 1.502 . S
C862 H848 0.960 . S
C862 H849 0.961 . S
C862 H850 0.959 . S
C862 C860 1.561 . S
C863 C860 1.526 . S
C863 C864 1.396 . S
C863 C868 1.390 . S
C864 C858 1.465 . S
C864 C863 1.396 . S
C864 C865 1.399 . S
C865 H851 0.929 . S
C865 C864 1.399 . S
C865 C866 1.385 . S
C866 H852 0.931 . S
C866 C865 1.385 . S
C866 C867 1.389 . S
C867 C866 1.389 . S
C867 C868 1.387 . S
C868 H853 0.930 . S
C868 C863 1.390 . S
C868 C867 1.387 . S
H869 C881 0.930 . S
H870 C883 0.930 . S
H871 C884 0.930 . S
H872 C888 0.959 . S
H873 C888 0.959 . S
H874 C888 0.961 . S
H875 C889 0.960 . S
H876 C889 0.961 . S
H877 C889 0.959 . S
H878 C892 0.929 . S
H879 C893 0.931 . S
H880 C895 0.930 . S
C881 H869 0.930 . S
C881 C882 1.399 . S
C881 C886 1.399 . S
C882 C881 1.399 . S
C882 C883 1.376 . S
C883 H870 0.930 . S
C883 C882 1.376 . S
C883 C884 1.388 . S
C884 H871 0.930 . S
C884 C883 1.388 . S
C884 C885 1.390 . S
C885 C884 1.390 . S
C885 C886 1.394 . S
C885 C891 1.465 . S
C886 C881 1.399 . S
C886 C885 1.394 . S
C886 C887 1.516 . S
C887 C886 1.516 . S
C887 C888 1.502 . S
C887 C889 1.561 . S
C887 C890 1.526 . S
C888 H872 0.959 . S
C888 H873 0.959 . S
C888 H874 0.961 . S
C888 C887 1.502 . S
C889 H875 0.960 . S
C889 H876 0.961 . S
C889 H877 0.959 . S
C889 C887 1.561 . S
C890 C887 1.526 . S
C890 C891 1.396 . S
C890 C895 1.390 . S
C891 C885 1.465 . S
C891 C890 1.396 . S
C891 C892 1.399 . S
C892 H878 0.929 . S
C892 C891 1.399 . S
C892 C893 1.385 . S
C893 H879 0.931 . S
C893 C892 1.385 . S
C893 C894 1.389 . S
C894 C893 1.389 . S
C894 C895 1.387 . S
C895 H880 0.930 . S
C895 C890 1.390 . S
C895 C894 1.387 . S
C261 C74 1.763 . S
C273 C106 1.902 1_545 S
C300 C146 1.922 . S
C288 C85 1.802 . S
C327 C186 1.906 . S
C315 C52 1.799 . S
C354 C226 1.916 1_455 S
C342 C63 1.794 . S
C381 C96 1.914 1_565 S
C369 C30 1.836 1_565 S
C396 C41 1.796 . S
C408 C136 1.915 . S
C423 C8 1.846 . S
C435 C176 1.925 . S
C450 C19 1.816 . S
C462 C216 1.911 . S
C489 C93 0.579 . S
C477 C62 0.518 . S
C516 C133 0.551 . S
C504 C73 0.599 . S
C543 C173 0.632 . S
C531 C84 0.612 . S
C558 C51 0.561 . S
C570 C213 0.505 . S
C585 C18 0.701 1_655 S
C597 C103 0.538 . S
C624 C143 0.636 . S
C612 C29 0.593 . S
C651 C183 0.599 . S
C639 C40 0.524 . S
C666 C7 0.602 . S
C678 C223 0.629 . S
C693 C60 1.787 . S
C705 C97 2.229 . S
C720 C71 1.740 1_565 S
C732 C137 2.204 . S
C759 C177 2.222 . S
C747 C82 1.625 . S
C786 C217 2.217 . S
C774 C49 1.766 . S
C801 C16 1.771 . S
C813 C107 2.228 . S
C840 C147 2.233 . S
C828 C27 1.742 1_565 S
C867 C187 2.221 . S
C855 C38 1.833 . S
C882 C5 1.786 . S
C894 C227 2.220 . S
