# Generated by pormake.
# Topology gar, (4,6)-cn, num edge types: 1
# Building blocks:
#     Node 0, Type 0, BuildingBlock: CEKHIL_clean_sbu_0, # of connection points: 4
#     Node 1, Type 0, BuildingBlock: CEKHIL_clean_sbu_0, # of connection points: 4
#     Node 2, Type 0, BuildingBlock: CEKHIL_clean_sbu_0, # of connection points: 4
#     Node 3, Type 0, BuildingBlock: CEKHIL_clean_sbu_0, # of connection points: 4
#     Node 4, Type 0, BuildingBlock: CEKHIL_clean_sbu_0, # of connection points: 4
#     Node 5, Type 0, BuildingBlock: CEKHIL_clean_sbu_0, # of connection points: 4
#     Node 6, Type 0, BuildingBlock: CEKHIL_clean_sbu_0, # of connection points: 4
#     Node 7, Type 0, BuildingBlock: CEKHIL_clean_sbu_0, # of connection points: 4
#     Node 8, Type 0, BuildingBlock: CEKHIL_clean_sbu_0, # of connection points: 4
#     Node 9, Type 0, BuildingBlock: CEKHIL_clean_sbu_0, # of connection points: 4
#     Node 10, Type 0, BuildingBlock: CEKHIL_clean_sbu_0, # of connection points: 4
#     Node 11, Type 0, BuildingBlock: CEKHIL_clean_sbu_0, # of connection points: 4
#     Node 12, Type 0, BuildingBlock: CEKHIL_clean_sbu_0, # of connection points: 4
#     Node 13, Type 0, BuildingBlock: CEKHIL_clean_sbu_0, # of connection points: 4
#     Node 14, Type 0, BuildingBlock: CEKHIL_clean_sbu_0, # of connection points: 4
#     Node 15, Type 0, BuildingBlock: CEKHIL_clean_sbu_0, # of connection points: 4
#     Node 16, Type 0, BuildingBlock: CEKHIL_clean_sbu_0, # of connection points: 4
#     Node 17, Type 0, BuildingBlock: CEKHIL_clean_sbu_0, # of connection points: 4
#     Node 18, Type 0, BuildingBlock: CEKHIL_clean_sbu_0, # of connection points: 4
#     Node 19, Type 0, BuildingBlock: CEKHIL_clean_sbu_0, # of connection points: 4
#     Node 20, Type 0, BuildingBlock: CEKHIL_clean_sbu_0, # of connection points: 4
#     Node 21, Type 0, BuildingBlock: CEKHIL_clean_sbu_0, # of connection points: 4
#     Node 22, Type 0, BuildingBlock: CEKHIL_clean_sbu_0, # of connection points: 4
#     Node 23, Type 0, BuildingBlock: CEKHIL_clean_sbu_0, # of connection points: 4
#     Node 24, Type 1, BuildingBlock: GEDQOX_clean_sbu_0, # of connection points: 6
#     Node 25, Type 1, BuildingBlock: GEDQOX_clean_sbu_0, # of connection points: 6
#     Node 26, Type 1, BuildingBlock: GEDQOX_clean_sbu_0, # of connection points: 6
#     Node 27, Type 1, BuildingBlock: GEDQOX_clean_sbu_0, # of connection points: 6
#     Node 28, Type 1, BuildingBlock: GEDQOX_clean_sbu_0, # of connection points: 6
#     Node 29, Type 1, BuildingBlock: GEDQOX_clean_sbu_0, # of connection points: 6
#     Node 30, Type 1, BuildingBlock: GEDQOX_clean_sbu_0, # of connection points: 6
#     Node 31, Type 1, BuildingBlock: GEDQOX_clean_sbu_0, # of connection points: 6
#     Node 32, Type 1, BuildingBlock: GEDQOX_clean_sbu_0, # of connection points: 6
#     Node 33, Type 1, BuildingBlock: GEDQOX_clean_sbu_0, # of connection points: 6
#     Node 34, Type 1, BuildingBlock: GEDQOX_clean_sbu_0, # of connection points: 6
#     Node 35, Type 1, BuildingBlock: GEDQOX_clean_sbu_0, # of connection points: 6
#     Node 36, Type 1, BuildingBlock: GEDQOX_clean_sbu_0, # of connection points: 6
#     Node 37, Type 1, BuildingBlock: GEDQOX_clean_sbu_0, # of connection points: 6
#     Node 38, Type 1, BuildingBlock: GEDQOX_clean_sbu_0, # of connection points: 6
#     Node 39, Type 1, BuildingBlock: GEDQOX_clean_sbu_0, # of connection points: 6
#     Edge 40, Type (0, 1), BuildingBlock: KIFKEQ_clean_linker_1, # of connection points: 2
#     Edge 41, Type (0, 1), BuildingBlock: KIFKEQ_clean_linker_1, # of connection points: 2
#     Edge 42, Type (0, 1), BuildingBlock: KIFKEQ_clean_linker_1, # of connection points: 2
#     Edge 43, Type (0, 1), BuildingBlock: KIFKEQ_clean_linker_1, # of connection points: 2
#     Edge 44, Type (0, 1), BuildingBlock: KIFKEQ_clean_linker_1, # of connection points: 2
#     Edge 45, Type (0, 1), BuildingBlock: KIFKEQ_clean_linker_1, # of connection points: 2
#     Edge 46, Type (0, 1), BuildingBlock: KIFKEQ_clean_linker_1, # of connection points: 2
#     Edge 47, Type (0, 1), BuildingBlock: KIFKEQ_clean_linker_1, # of connection points: 2
#     Edge 48, Type (0, 1), BuildingBlock: KIFKEQ_clean_linker_1, # of connection points: 2
#     Edge 49, Type (0, 1), BuildingBlock: KIFKEQ_clean_linker_1, # of connection points: 2
#     Edge 50, Type (0, 1), BuildingBlock: KIFKEQ_clean_linker_1, # of connection points: 2
#     Edge 51, Type (0, 1), BuildingBlock: KIFKEQ_clean_linker_1, # of connection points: 2
#     Edge 52, Type (0, 1), BuildingBlock: KIFKEQ_clean_linker_1, # of connection points: 2
#     Edge 53, Type (0, 1), BuildingBlock: KIFKEQ_clean_linker_1, # of connection points: 2
#     Edge 54, Type (0, 1), BuildingBlock: KIFKEQ_clean_linker_1, # of connection points: 2
#     Edge 55, Type (0, 1), BuildingBlock: KIFKEQ_clean_linker_1, # of connection points: 2
#     Edge 56, Type (0, 1), BuildingBlock: KIFKEQ_clean_linker_1, # of connection points: 2
#     Edge 57, Type (0, 1), BuildingBlock: KIFKEQ_clean_linker_1, # of connection points: 2
#     Edge 58, Type (0, 1), BuildingBlock: KIFKEQ_clean_linker_1, # of connection points: 2
#     Edge 59, Type (0, 1), BuildingBlock: KIFKEQ_clean_linker_1, # of connection points: 2
#     Edge 60, Type (0, 1), BuildingBlock: KIFKEQ_clean_linker_1, # of connection points: 2
#     Edge 61, Type (0, 1), BuildingBlock: KIFKEQ_clean_linker_1, # of connection points: 2
#     Edge 62, Type (0, 1), BuildingBlock: KIFKEQ_clean_linker_1, # of connection points: 2
#     Edge 63, Type (0, 1), BuildingBlock: KIFKEQ_clean_linker_1, # of connection points: 2
#     Edge 64, Type (0, 1), BuildingBlock: KIFKEQ_clean_linker_1, # of connection points: 2
#     Edge 65, Type (0, 1), BuildingBlock: KIFKEQ_clean_linker_1, # of connection points: 2
#     Edge 66, Type (0, 1), BuildingBlock: KIFKEQ_clean_linker_1, # of connection points: 2
#     Edge 67, Type (0, 1), BuildingBlock: KIFKEQ_clean_linker_1, # of connection points: 2
#     Edge 68, Type (0, 1), BuildingBlock: KIFKEQ_clean_linker_1, # of connection points: 2
#     Edge 69, Type (0, 1), BuildingBlock: KIFKEQ_clean_linker_1, # of connection points: 2
#     Edge 70, Type (0, 1), BuildingBlock: KIFKEQ_clean_linker_1, # of connection points: 2
#     Edge 71, Type (0, 1), BuildingBlock: KIFKEQ_clean_linker_1, # of connection points: 2
#     Edge 72, Type (0, 1), BuildingBlock: KIFKEQ_clean_linker_1, # of connection points: 2
#     Edge 73, Type (0, 1), BuildingBlock: KIFKEQ_clean_linker_1, # of connection points: 2
#     Edge 74, Type (0, 1), BuildingBlock: KIFKEQ_clean_linker_1, # of connection points: 2
#     Edge 75, Type (0, 1), BuildingBlock: KIFKEQ_clean_linker_1, # of connection points: 2
#     Edge 76, Type (0, 1), BuildingBlock: KIFKEQ_clean_linker_1, # of connection points: 2
#     Edge 77, Type (0, 1), BuildingBlock: KIFKEQ_clean_linker_1, # of connection points: 2
#     Edge 78, Type (0, 1), BuildingBlock: KIFKEQ_clean_linker_1, # of connection points: 2
#     Edge 79, Type (0, 1), BuildingBlock: KIFKEQ_clean_linker_1, # of connection points: 2
#     Edge 80, Type (0, 1), BuildingBlock: KIFKEQ_clean_linker_1, # of connection points: 2
#     Edge 81, Type (0, 1), BuildingBlock: KIFKEQ_clean_linker_1, # of connection points: 2
#     Edge 82, Type (0, 1), BuildingBlock: KIFKEQ_clean_linker_1, # of connection points: 2
#     Edge 83, Type (0, 1), BuildingBlock: KIFKEQ_clean_linker_1, # of connection points: 2
#     Edge 84, Type (0, 1), BuildingBlock: KIFKEQ_clean_linker_1, # of connection points: 2
#     Edge 85, Type (0, 1), BuildingBlock: KIFKEQ_clean_linker_1, # of connection points: 2
#     Edge 86, Type (0, 1), BuildingBlock: KIFKEQ_clean_linker_1, # of connection points: 2
#     Edge 87, Type (0, 1), BuildingBlock: KIFKEQ_clean_linker_1, # of connection points: 2
#     Edge 88, Type (0, 1), BuildingBlock: KIFKEQ_clean_linker_1, # of connection points: 2
#     Edge 89, Type (0, 1), BuildingBlock: KIFKEQ_clean_linker_1, # of connection points: 2
#     Edge 90, Type (0, 1), BuildingBlock: KIFKEQ_clean_linker_1, # of connection points: 2
#     Edge 91, Type (0, 1), BuildingBlock: KIFKEQ_clean_linker_1, # of connection points: 2
#     Edge 92, Type (0, 1), BuildingBlock: KIFKEQ_clean_linker_1, # of connection points: 2
#     Edge 93, Type (0, 1), BuildingBlock: KIFKEQ_clean_linker_1, # of connection points: 2
#     Edge 94, Type (0, 1), BuildingBlock: KIFKEQ_clean_linker_1, # of connection points: 2
#     Edge 95, Type (0, 1), BuildingBlock: KIFKEQ_clean_linker_1, # of connection points: 2
#     Edge 96, Type (0, 1), BuildingBlock: KIFKEQ_clean_linker_1, # of connection points: 2
#     Edge 97, Type (0, 1), BuildingBlock: KIFKEQ_clean_linker_1, # of connection points: 2
#     Edge 98, Type (0, 1), BuildingBlock: KIFKEQ_clean_linker_1, # of connection points: 2
#     Edge 99, Type (0, 1), BuildingBlock: KIFKEQ_clean_linker_1, # of connection points: 2
#     Edge 100, Type (0, 1), BuildingBlock: KIFKEQ_clean_linker_1, # of connection points: 2
#     Edge 101, Type (0, 1), BuildingBlock: KIFKEQ_clean_linker_1, # of connection points: 2
#     Edge 102, Type (0, 1), BuildingBlock: KIFKEQ_clean_linker_1, # of connection points: 2
#     Edge 103, Type (0, 1), BuildingBlock: KIFKEQ_clean_linker_1, # of connection points: 2
#     Edge 104, Type (0, 1), BuildingBlock: KIFKEQ_clean_linker_1, # of connection points: 2
#     Edge 105, Type (0, 1), BuildingBlock: KIFKEQ_clean_linker_1, # of connection points: 2
#     Edge 106, Type (0, 1), BuildingBlock: KIFKEQ_clean_linker_1, # of connection points: 2
#     Edge 107, Type (0, 1), BuildingBlock: KIFKEQ_clean_linker_1, # of connection points: 2
#     Edge 108, Type (0, 1), BuildingBlock: KIFKEQ_clean_linker_1, # of connection points: 2
#     Edge 109, Type (0, 1), BuildingBlock: KIFKEQ_clean_linker_1, # of connection points: 2
#     Edge 110, Type (0, 1), BuildingBlock: KIFKEQ_clean_linker_1, # of connection points: 2
#     Edge 111, Type (0, 1), BuildingBlock: KIFKEQ_clean_linker_1, # of connection points: 2
#     Edge 112, Type (0, 1), BuildingBlock: KIFKEQ_clean_linker_1, # of connection points: 2
#     Edge 113, Type (0, 1), BuildingBlock: KIFKEQ_clean_linker_1, # of connection points: 2
#     Edge 114, Type (0, 1), BuildingBlock: KIFKEQ_clean_linker_1, # of connection points: 2
#     Edge 115, Type (0, 1), BuildingBlock: KIFKEQ_clean_linker_1, # of connection points: 2
#     Edge 116, Type (0, 1), BuildingBlock: KIFKEQ_clean_linker_1, # of connection points: 2
#     Edge 117, Type (0, 1), BuildingBlock: KIFKEQ_clean_linker_1, # of connection points: 2
#     Edge 118, Type (0, 1), BuildingBlock: KIFKEQ_clean_linker_1, # of connection points: 2
#     Edge 119, Type (0, 1), BuildingBlock: KIFKEQ_clean_linker_1, # of connection points: 2
#     Edge 120, Type (0, 1), BuildingBlock: KIFKEQ_clean_linker_1, # of connection points: 2
#     Edge 121, Type (0, 1), BuildingBlock: KIFKEQ_clean_linker_1, # of connection points: 2
#     Edge 122, Type (0, 1), BuildingBlock: KIFKEQ_clean_linker_1, # of connection points: 2
#     Edge 123, Type (0, 1), BuildingBlock: KIFKEQ_clean_linker_1, # of connection points: 2
#     Edge 124, Type (0, 1), BuildingBlock: KIFKEQ_clean_linker_1, # of connection points: 2
#     Edge 125, Type (0, 1), BuildingBlock: KIFKEQ_clean_linker_1, # of connection points: 2
#     Edge 126, Type (0, 1), BuildingBlock: KIFKEQ_clean_linker_1, # of connection points: 2
#     Edge 127, Type (0, 1), BuildingBlock: KIFKEQ_clean_linker_1, # of connection points: 2
#     Edge 128, Type (0, 1), BuildingBlock: KIFKEQ_clean_linker_1, # of connection points: 2
#     Edge 129, Type (0, 1), BuildingBlock: KIFKEQ_clean_linker_1, # of connection points: 2
#     Edge 130, Type (0, 1), BuildingBlock: KIFKEQ_clean_linker_1, # of connection points: 2
#     Edge 131, Type (0, 1), BuildingBlock: KIFKEQ_clean_linker_1, # of connection points: 2
#     Edge 132, Type (0, 1), BuildingBlock: KIFKEQ_clean_linker_1, # of connection points: 2
#     Edge 133, Type (0, 1), BuildingBlock: KIFKEQ_clean_linker_1, # of connection points: 2
#     Edge 134, Type (0, 1), BuildingBlock: KIFKEQ_clean_linker_1, # of connection points: 2
#     Edge 135, Type (0, 1), BuildingBlock: KIFKEQ_clean_linker_1, # of connection points: 2
# Relax obj value: 0.267
# Max RMSD: 0.433
# Mean RMSD: 0.172
data_MOF--net-gar--node1-CEKHIL_clean_sbu_0--node2-GEDQOX_clean_sbu_0--edge1-KIFKEQ_clean_linker_1
_symmetry_space_group_name_H-M    P1
_symmetry_Int_Tables_number       1
_symmetry_cell_setting            triclinic
loop_
_symmetry_equiv_pos_as_xyz
'x, y, z'
_cell_length_a     61.741061
_cell_length_b     59.40247
_cell_length_c     52.96797
_cell_angle_alpha  97.784205
_cell_angle_beta   97.08478
_cell_angle_gamma 98.809279
loop_
_atom_site_label
_atom_site_type_symbol
_atom_site_fract_x
_atom_site_fract_y
_atom_site_fract_z
_atom_type_partial_charge
Co0 Co 0.11818 0.38667 0.5042 0.0
O1 O 0.14701 0.38233 0.49623 0.0
O2 O 0.1153 0.37409 0.46905 0.0
C3 C 0.12714 0.42221 0.52631 0.0
O4 O 0.08613 0.38846 0.50333 0.0
Co5 Co 0.10442 0.39564 0.55864 0.0
O6 O 0.07463 0.39836 0.54107 0.0
C7 C 0.10746 0.34833 0.53455 0.0
C8 C 0.13653 0.37482 0.47297 0.0
C9 C 0.07103 0.39285 0.51669 0.0
O10 O 0.11194 0.35514 0.51352 0.0
O11 O 0.10583 0.36192 0.5549 0.0
O12 O 0.12471 0.41904 0.50127 0.0
O13 O 0.1267 0.40394 0.53704 0.0
Co14 Co 1.00486 0.78115 0.65175 0.0
O15 O 0.97643 0.78731 0.65856 0.0
O16 O 0.9977 0.76791 0.68126 0.0
C17 C 1.01802 0.81695 0.64638 0.0
O18 O 0.03511 0.77253 0.65188 0.0
Co19 Co 1.02526 0.78715 0.60209 0.0
O20 O 0.05344 0.79341 0.62695 0.0
C21 C 0.99278 0.74507 0.60425 0.0
C22 C 0.98011 0.7774 0.67874 0.0
C23 C 0.05303 0.78401 0.64714 0.0
O24 O 0.99159 0.75186 0.62806 0.0
O25 O 1.00419 0.75717 0.59062 0.0
O26 O 1.0181 0.8118 0.66943 0.0
O27 O 1.00886 0.80082 0.62749 0.0
Co28 Co 0.61659 0.88418 1.00242 0.0
O29 O 0.64441 0.87511 0.99598 0.0
O30 O 0.61656 0.87826 0.96646 0.0
C31 C 0.62897 0.91479 0.03307 0.0
O32 O 0.58661 0.8934 0.99992 0.0
Co33 Co 0.59713 0.8837 0.0536 0.0
O34 O 0.56839 0.88025 0.03021 0.0
C35 C 0.59454 0.84037 0.01864 0.0
C36 C 0.63617 0.87334 0.97174 0.0
C37 C 0.56865 0.8854 1.00771 0.0
O38 O 0.60283 0.8511 1.00169 0.0
O39 O 0.59244 0.84999 0.04104 0.0
O40 O 0.63021 0.9165 1.00907 0.0
O41 O 0.62313 0.89423 0.03806 0.0
Co42 Co 0.50639 0.2841 0.15648 0.0
O43 O 0.47631 0.28724 0.15902 0.0
O44 O 0.49754 0.27033 0.18498 0.0
C45 C 0.51852 0.32032 0.15167 0.0
O46 O 0.53811 0.27943 0.16151 0.0
Co47 Co 0.52761 0.29074 0.10661 0.0
O48 O 0.55509 0.28547 0.1271 0.0
C49 C 0.49441 0.25192 0.10764 0.0
C50 C 0.47924 0.27821 0.17998 0.0
C51 C 0.55518 0.28098 0.14995 0.0
O52 O 0.49758 0.25425 0.1323 0.0
O53 O 0.49859 0.26914 0.09597 0.0
O54 O 0.51605 0.31553 0.17445 0.0
O55 O 0.51136 0.30386 0.13253 0.0
Co56 Co 0.04695 0.81386 0.2514 0.0
O57 O 1.01446 0.81019 0.24191 0.0
O58 O 0.02984 0.80852 0.28054 0.0
C59 C 0.05246 0.84566 0.23144 0.0
O60 O 0.08092 0.81741 0.26824 0.0
Co61 Co 0.07888 0.8153 0.2097 0.0
O62 O 0.10333 0.82517 0.23866 0.0
C63 C 0.05361 0.77058 0.2182 0.0
C64 C 1.01151 0.80844 0.26532 0.0
C65 C 0.10071 0.82243 0.26157 0.0
O66 O 0.04633 0.7797 0.23849 0.0
O67 O 0.06462 0.78221 0.2039 0.0
O68 O 0.04847 0.84777 0.25509 0.0
O69 O 0.05309 0.82504 0.22115 0.0
Co70 Co 0.57435 0.85333 0.40817 0.0
O71 O 0.60696 0.85848 0.41739 0.0
O72 O 0.59031 0.84195 0.37945 0.0
C73 C 0.5712 0.88947 0.42695 0.0
O74 O 0.53985 0.8461 0.3918 0.0
Co75 Co 0.54378 0.8583 0.4513 0.0
O76 O 0.51909 0.85476 0.42305 0.0
C77 C 0.56969 0.82036 0.44597 0.0
C78 C 0.60917 0.84913 0.39457 0.0
C79 C 0.52065 0.84828 0.39954 0.0
O80 O 0.57251 0.82307 0.42267 0.0
O81 O 0.56097 0.83418 0.46067 0.0
O82 O 0.57612 0.88634 0.40366 0.0
O83 O 0.56942 0.87141 0.4377 0.0
Co84 Co 0.54633 0.31364 0.75117 0.0
O85 O 0.51386 0.31022 0.74138 0.0
O86 O 0.52891 0.30766 0.77988 0.0
C87 C 0.55263 0.34631 0.7329 0.0
O88 O 0.58029 0.31682 0.76825 0.0
Co89 Co 0.57842 0.31534 0.70982 0.0
O90 O 0.60283 0.32481 0.73886 0.0
C91 C 0.55281 0.27048 0.71728 0.0
C92 C 0.5107 0.30795 0.76461 0.0
C93 C 0.60015 0.32187 0.7617 0.0
O94 O 0.54546 0.27958 0.73749 0.0
O95 O 0.56426 0.28214 0.70337 0.0
O96 O 0.54791 0.34742 0.7562 0.0
O97 O 0.55301 0.32593 0.72148 0.0
Co98 Co 0.07521 0.35333 0.90869 0.0
O99 O 0.1079 0.35765 0.9171 0.0
O100 O 0.0904 0.34189 0.87925 0.0
C101 C 0.07339 0.38941 0.92887 0.0
O102 O 0.04058 0.34754 0.89295 0.0
Co103 Co 0.0454 0.35861 0.95257 0.0
O104 O 1.02152 0.35963 0.9246 0.0
C105 C 0.06609 0.31691 0.94285 0.0
C106 C 0.10951 0.34858 0.89399 0.0
C107 C 1.02215 0.35227 0.90102 0.0
O108 O 0.0724 0.32233 0.92168 0.0
O109 O 0.05709 0.33001 0.95806 0.0
O110 O 0.07772 0.38663 0.9053 0.0
O111 O 0.07129 0.37102 0.93901 0.0
Co112 Co 0.45808 0.14685 0.33353 0.0
O113 O 0.45798 0.1798 0.33314 0.0
O114 O 0.42995 0.15174 0.31717 0.0
C115 C 0.47348 0.14888 0.37581 0.0
O116 O 0.44913 0.11246 0.3308 0.0
Co117 Co 0.49869 0.12283 0.34633 0.0
O118 O 0.47633 0.095 0.34646 0.0
C119 C 0.48849 0.13541 0.29408 0.0
C120 C 0.43733 0.17369 0.32241 0.0
C121 C 0.45622 0.09456 0.33714 0.0
O122 O 0.47027 0.14233 0.29902 0.0
O123 O 0.50229 0.12997 0.31133 0.0
O124 O 0.4527 0.15032 0.36993 0.0
O125 O 0.48442 0.14853 0.35665 0.0
Co126 Co 0.27866 0.15751 0.49253 0.0
O127 O 0.31029 0.16276 0.49589 0.0
O128 O 0.28912 0.13136 0.50395 0.0
C129 C 0.27392 0.17074 0.45509 0.0
O130 O 0.24595 0.14592 0.49102 0.0
Co131 Co 0.25264 0.19829 0.49095 0.0
O132 O 0.226 0.17389 0.48494 0.0
C133 C 0.28333 0.19405 0.53641 0.0
C134 C 0.30876 0.14292 0.50379 0.0
C135 C 0.22742 0.15314 0.48757 0.0
O136 O 0.28077 0.1723 0.52897 0.0
O137 O 0.27564 0.20792 0.52259 0.0
O138 O 0.27682 0.14948 0.45512 0.0
O139 O 0.27515 0.18306 0.47724 0.0
Co140 Co 0.20059 0.06028 0.85236 0.0
O141 O 0.19601 0.02532 0.84951 0.0
O142 O 0.22713 0.04524 0.84561 0.0
C143 C 0.18187 0.06553 0.88986 0.0
O144 O 0.215 0.09647 0.85379 0.0
Co145 Co 0.16562 0.09197 0.85267 0.0
O146 O 0.18937 0.11926 0.857 0.0
C147 C 0.1697 0.06376 0.8031 0.0
C148 C 0.21639 0.0247 0.84589 0.0
C149 C 0.20935 0.11714 0.85523 0.0
O150 O 0.18813 0.05803 0.81323 0.0
O151 O 0.15796 0.07508 0.81661 0.0
O152 O 0.20252 0.0627 0.89157 0.0
O153 O 0.17361 0.06536 0.86635 0.0
Co154 Co 0.24133 0.92971 0.07514 0.0
O155 O 0.20943 0.9285 0.07536 0.0
O156 O 0.23494 0.95966 0.08804 0.0
C157 C 0.24076 0.91023 0.03438 0.0
O158 O 0.27421 0.93998 0.07728 0.0
Co159 Co 0.26576 0.88738 0.06879 0.0
O160 O 0.29221 0.91067 0.06751 0.0
C161 C 0.25372 0.90357 0.11969 0.0
C162 C 0.21414 0.9506 0.08385 0.0
C163 C 0.29189 0.93213 0.07334 0.0
O164 O 0.24622 0.92097 0.11151 0.0
O165 O 0.26037 0.88786 0.10516 0.0
O166 O 0.23795 0.93163 0.03784 0.0
O167 O 0.24116 0.90077 0.05492 0.0
Co168 Co 0.3435 0.49927 0.15643 0.0
O169 O 0.31199 0.49148 0.14974 0.0
O170 O 0.33072 0.52685 0.16347 0.0
C171 C 0.34593 0.47824 0.11892 0.0
O172 O 0.37617 0.51398 0.16335 0.0
Co173 Co 0.37292 0.46152 0.15882 0.0
O174 O 0.39708 0.48639 0.15697 0.0
C175 C 0.34556 0.47243 0.1994 0.0
C176 C 0.31181 0.51337 0.15478 0.0
C177 C 0.39485 0.50743 0.16102 0.0
O178 O 0.34277 0.49171 0.19215 0.0
O179 O 0.35523 0.45768 0.18736 0.0
O180 O 0.34385 0.49975 0.11995 0.0
O181 O 0.3474 0.47059 0.14059 0.0
Co182 Co 0.87997 0.22574 0.07162 0.0
O183 O 0.91208 0.22648 0.07606 0.0
O184 O 0.88729 0.19612 0.07787 0.0
C185 C 0.87665 0.24266 0.03519 0.0
O186 O 0.8467 0.21625 0.06655 0.0
Co187 Co 0.85666 0.26898 0.07224 0.0
O188 O 0.82927 0.24587 0.05984 0.0
C189 C 0.87328 0.25526 0.12182 0.0
C190 C 0.90792 0.20461 0.07781 0.0
C191 C 0.82903 0.22454 0.06098 0.0
O192 O 0.87939 0.23702 0.11021 0.0
O193 O 0.86583 0.27051 0.10998 0.0
O194 O 0.87895 0.22117 0.03381 0.0
O195 O 0.87895 0.25367 0.05833 0.0
Co196 Co 0.16105 0.51017 0.33724 0.0
O197 O 0.15912 0.47669 0.33322 0.0
O198 O 0.18847 0.50131 0.32887 0.0
C199 C 0.14667 0.51416 0.37497 0.0
O200 O 0.17164 0.54463 0.34135 0.0
Co201 Co 0.12174 0.53709 0.34022 0.0
O202 O 0.1446 0.56542 0.34616 0.0
C203 C 0.12989 0.51537 0.28917 0.0
C204 C 0.1799 0.48022 0.33003 0.0
C205 C 0.16481 0.56397 0.34491 0.0
O206 O 0.14829 0.50978 0.29918 0.0
O207 O 0.1165 0.52393 0.30278 0.0
O208 O 0.16722 0.51183 0.37489 0.0
O209 O 0.13518 0.51256 0.35258 0.0
Co210 Co 0.84305 1.00112 0.65295 0.0
O211 O 0.81189 0.99139 0.64585 0.0
O212 O 0.82871 0.02592 0.66643 0.0
C213 C 0.84755 0.98834 0.6126 0.0
O214 O 0.87513 0.01721 0.66169 0.0
Co215 Co 0.87385 0.96445 0.64629 0.0
O216 O 0.89699 0.99166 0.64987 0.0
C217 C 0.84812 0.96765 0.68953 0.0
C218 C 0.81044 1.01217 0.65565 0.0
C219 C 0.89406 1.01197 0.65794 0.0
O220 O 0.8435 0.98735 0.68552 0.0
O221 O 0.85821 0.95531 0.67488 0.0
O222 O 0.8427 1.00871 0.61839 0.0
O223 O 0.84873 0.97625 0.63103 0.0
Co224 Co 0.91945 0.09741 0.31906 0.0
O225 O 0.92444 0.13238 0.32387 0.0
O226 O 0.89258 0.11193 0.30879 0.0
C227 C 0.93774 0.0955 0.35984 0.0
O228 O 0.90494 0.06094 0.31436 0.0
Co229 Co 0.95524 0.06691 0.32173 0.0
O230 O 0.93183 0.04097 0.32514 0.0
C231 C 0.94965 0.08912 0.27527 0.0
C232 C 0.90366 0.13273 0.31646 0.0
C233 C 0.91128 0.04155 0.31949 0.0
O234 O 0.93142 0.09554 0.28251 0.0
O235 O 0.96193 0.07888 0.28945 0.0
O236 O 0.91739 0.09904 0.35663 0.0
O237 O 0.94658 0.0943 0.33907 0.0
Co238 Co 0.37904 0.72485 0.57109 0.0
O239 O 0.41122 0.72589 0.57512 0.0
O240 O 0.38677 0.69537 0.57725 0.0
C241 C 0.37508 0.74177 0.53471 0.0
O242 O 0.3458 0.71499 0.56638 0.0
Co243 Co 0.35544 0.76793 0.57258 0.0
O244 O 0.32787 0.74476 0.56222 0.0
C245 C 0.37301 0.75442 0.62169 0.0
C246 C 0.40732 0.70401 0.57694 0.0
C247 C 0.32795 0.72334 0.56236 0.0
O248 O 0.3787 0.73603 0.6098 0.0
O249 O 0.36569 0.76985 0.61009 0.0
O250 O 0.37777 0.72038 0.53323 0.0
O251 O 0.37746 0.75275 0.55787 0.0
Co252 Co 0.41963 0.59685 0.81846 0.0
O253 O 0.4245 0.63184 0.82332 0.0
O254 O 0.39286 0.6113 0.80751 0.0
C255 C 0.43765 0.59557 0.85979 0.0
O256 O 0.4049 0.56034 0.8135 0.0
Co257 Co 0.45467 0.56565 0.82335 0.0
O258 O 0.43095 0.53992 0.82594 0.0
C259 C 0.45156 0.58879 0.7769 0.0
C260 C 0.40378 0.63212 0.81547 0.0
C261 C 0.41064 0.54082 0.81916 0.0
O262 O 0.43275 0.59509 0.78241 0.0
O263 O 0.46274 0.57843 0.79216 0.0
O264 O 0.41716 0.59864 0.85613 0.0
O265 O 0.44647 0.59385 0.83907 0.0
Co266 Co 0.66057 1.0077 0.83599 0.0
O267 O 0.65779 0.9741 0.83196 0.0
O268 O 0.68748 0.99781 0.82691 0.0
C269 C 0.64646 1.01206 0.87416 0.0
O270 O 0.67214 0.04208 0.84032 0.0
Co271 Co 0.62282 0.03654 0.84084 0.0
O272 O 0.64687 0.06365 0.85083 0.0
C273 C 0.62968 1.01529 0.78878 0.0
C274 C 0.67848 0.97693 0.82839 0.0
C275 C 0.6665 0.0617 0.84702 0.0
O276 O 0.64746 1.00795 0.79795 0.0
O277 O 0.61743 0.02478 0.80328 0.0
O278 O 0.66676 1.00882 0.87381 0.0
O279 O 0.63514 1.01099 0.85181 0.0
Co280 Co 0.77778 0.65614 0.99584 0.0
O281 O 0.80941 0.66374 1.00297 0.0
O282 O 0.78938 0.62916 1.00282 0.0
C283 C 0.77575 0.67487 0.96207 0.0
O284 O 0.74527 0.64166 0.99013 0.0
Co285 Co 0.74704 0.69276 0.9954 0.0
O286 O 0.72269 0.66676 0.98188 0.0
C287 C 0.77207 0.68456 0.04407 0.0
C288 C 0.80864 0.64248 1.00659 0.0
C289 C 0.72588 0.64648 0.98433 0.0
O290 O 0.77673 0.66569 0.03311 0.0
O291 O 0.76207 0.69821 0.03204 0.0
O292 O 0.77897 0.65359 0.95887 0.0
O293 O 0.77379 0.68379 0.985 0.0
Co294 Co 0.95984 0.64831 0.83386 0.0
O295 O 0.95908 0.68129 0.8348 0.0
O296 O 0.93133 0.65313 0.81822 0.0
C297 C 0.97554 0.64914 0.87576 0.0
O298 O 0.95174 0.61368 0.82992 0.0
Co299 Co 1.00184 0.62586 0.84361 0.0
O300 O 0.98025 0.59781 0.84529 0.0
C301 C 0.99042 0.641 0.7933 0.0
C302 C 0.93847 0.67511 0.82403 0.0
C303 C 0.95984 0.59638 0.8365 0.0
O304 O 0.97166 0.64566 0.79922 0.0
O305 O 1.00505 0.63507 0.80918 0.0
O306 O 0.95465 0.65021 0.87007 0.0
O307 O 0.98658 0.65005 0.85667 0.0
Co308 Co 0.74309 0.43047 0.57617 0.0
O309 O 0.71129 0.43038 0.57557 0.0
O310 O 0.73742 0.46056 0.59019 0.0
C311 C 0.74256 0.41172 0.53504 0.0
O312 O 0.77628 0.43935 0.57906 0.0
Co313 Co 0.76504 0.38636 0.56906 0.0
O314 O 0.79162 0.40873 0.56596 0.0
C315 C 0.7533 0.40271 0.61997 0.0
C316 C 0.71641 0.45224 0.58517 0.0
C317 C 0.79292 0.4303 0.57325 0.0
O318 O 0.74689 0.42073 0.61208 0.0
O319 O 0.75926 0.38661 0.60528 0.0
O320 O 0.74064 0.43338 0.53908 0.0
O321 O 0.742 0.40175 0.55516 0.0
Co322 Co 0.70106 0.56092 0.35172 0.0
O323 O 0.69667 0.52598 0.34884 0.0
O324 O 0.7279 0.54614 0.34573 0.0
C325 C 0.68182 0.56623 0.38873 0.0
O326 O 0.71519 0.59717 0.35334 0.0
Co327 Co 0.66527 0.59153 0.34997 0.0
O328 O 0.68878 0.61916 0.3544 0.0
C329 C 0.67129 0.56403 0.30117 0.0
C330 C 0.71717 0.52552 0.3457 0.0
C331 C 0.70906 0.61756 0.35383 0.0
O332 O 0.68947 0.55862 0.31241 0.0
O333 O 0.65863 0.57495 0.31364 0.0
O334 O 0.7025 0.5635 0.39082 0.0
O335 O 0.6737 0.56567 0.36505 0.0
Nd336 Nd 0.07697 0.09882 0.08469 0.0
Nd337 Nd 0.0494 0.05885 0.07826 0.0
C338 C 0.1029 0.13973 0.09391 0.0
C339 C 0.10081 0.16012 0.08103 0.0
C340 C 0.08113 0.1694 0.07941 0.0
C341 C 0.07811 0.18631 0.06392 0.0
C342 C 0.09462 0.19422 0.04954 0.0
C343 C 0.11446 0.18526 0.05161 0.0
C344 C 0.11752 0.16844 0.06721 0.0
C345 C 0.07824 0.0776 0.03433 0.0
C346 C 1.02675 0.10248 0.06414 0.0
C347 C 1.02443 0.01729 0.06858 0.0
C348 C 1.02789 0.9967 0.08057 0.0
C349 C 0.04933 0.99178 0.08666 0.0
C350 C 0.05315 0.97522 0.1024 0.0
C351 C 0.03552 0.96288 0.11202 0.0
C352 C 1.01394 0.96705 0.10495 0.0
C353 C 1.0102 0.98391 0.08957 0.0
C354 C 0.0481 0.07967 0.12871 0.0
C355 C 0.0994 0.05574 0.10021 0.0
O356 O 0.08806 0.13364 0.10837 0.0
O357 O 0.10723 0.12206 0.07929 0.0
O358 O 0.07295 0.09774 0.04031 0.0
O359 O 0.07818 0.06761 0.05429 0.0
O360 O 0.04615 0.11436 0.07452 0.0
O361 O 1.02412 0.07971 0.05984 0.0
O362 O 0.03847 0.0244 0.05363 0.0
O363 O 1.02016 0.03433 0.08424 0.0
O364 O 0.05298 0.05941 0.12232 0.0
O365 O 0.04849 0.09003 0.10903 0.0
O366 O 0.08029 0.04386 0.08901 0.0
O367 O 0.10193 0.07846 0.10452 0.0
H368 H 0.06772 0.16309 0.08941 0.0
H369 H 0.06251 0.19261 0.06254 0.0
H370 H 0.1276 0.19113 0.04103 0.0
H371 H 0.13271 0.16138 0.06782 0.0
H372 H 0.06329 1.00116 0.07985 0.0
H373 H 0.06991 0.97216 0.10719 0.0
H374 H 1.00003 0.9579 0.11216 0.0
H375 H 0.99357 0.98756 0.08548 0.0
Nd376 Nd 0.31413 0.84903 0.34542 0.0
Nd377 Nd 0.30415 0.80641 0.31772 0.0
C378 C 0.3207 0.89079 0.37261 0.0
C379 C 0.3316 0.91287 0.36628 0.0
C380 C 0.31927 0.92671 0.35279 0.0
C381 C 0.32998 0.9461 0.34416 0.0
C382 C 0.35317 0.95181 0.34871 0.0
C383 C 0.36544 0.93836 0.36269 0.0
C384 C 0.35478 0.91919 0.37152 0.0
C385 C 0.35394 0.83671 0.33231 0.0
C386 C 0.3041 0.84786 0.28459 0.0
C387 C 0.29712 0.7644 0.29069 0.0
C388 C 0.28836 0.74173 0.29724 0.0
C389 C 0.29577 0.73521 0.32094 0.0
C390 C 0.28555 0.71472 0.32792 0.0
C391 C 0.26753 0.70051 0.31149 0.0
C392 C 0.26029 0.70716 0.28777 0.0
C393 C 0.27066 0.72745 0.2807 0.0
C394 C 0.26465 0.81999 0.33047 0.0
C395 C 0.31406 0.80768 0.37836 0.0
O396 O 0.30185 0.88127 0.35858 0.0
O397 O 0.33345 0.87571 0.37675 0.0
O398 O 0.34693 0.85558 0.32829 0.0
O399 O 0.33856 0.8236 0.33991 0.0
O400 O 0.30262 0.85971 0.30684 0.0
O401 O 0.30938 0.82713 0.284 0.0
O402 O 0.31658 0.77479 0.30253 0.0
O403 O 0.28297 0.77846 0.28917 0.0
O404 O 0.2712 0.80106 0.33524 0.0
O405 O 0.28028 0.83228 0.32251 0.0
O406 O 0.31626 0.79609 0.35627 0.0
O407 O 0.30813 0.82807 0.37872 0.0
H408 H 0.30139 0.92227 0.34837 0.0
H409 H 0.32021 0.95632 0.33347 0.0
H410 H 0.38334 0.94273 0.36687 0.0
H411 H 0.36482 0.90902 0.38193 0.0
H412 H 0.30916 0.74614 0.33431 0.0
H413 H 0.2917 0.71013 0.34624 0.0
H414 H 0.24611 0.69709 0.27489 0.0
H415 H 0.26438 0.73237 0.2626 0.0
Nd416 Nd 0.578 0.08737 0.57583 0.0
Nd417 Nd 0.53884 0.06739 0.57914 0.0
C418 C 0.61813 0.10082 0.56529 0.0
C419 C 0.6378 0.09087 0.57203 0.0
C420 C 0.65882 0.10228 0.56969 0.0
C421 C 0.67759 0.0935 0.57842 0.0
C422 C 0.67545 0.0733 0.58971 0.0
C423 C 0.65423 0.06179 0.59166 0.0
C424 C 0.63555 0.07052 0.58287 0.0
C425 C 0.58016 0.06732 0.6207 0.0
C426 C 0.56238 0.035 0.54622 0.0
C427 C 0.49898 0.05413 0.59052 0.0
C428 C 0.47887 0.06449 0.58642 0.0
C429 C 0.47409 0.08092 0.60578 0.0
C430 C 0.45652 0.09268 0.6008 0.0
C431 C 0.44367 0.08817 0.57643 0.0
C432 C 0.44804 0.07156 0.55726 0.0
C433 C 0.46544 0.0597 0.56222 0.0
C434 C 0.5372 0.08765 0.53439 0.0
C435 C 0.55358 0.12031 0.60718 0.0
O436 O 0.60258 0.08742 0.54865 0.0
O437 O 0.6105 0.11061 0.58503 0.0
O438 O 0.58796 0.08844 0.61935 0.0
O439 O 0.57 0.05731 0.5989 0.0
O440 O 0.57312 0.05533 0.54401 0.0
O441 O 0.54965 0.03385 0.56414 0.0
O442 O 0.51521 0.06612 0.60744 0.0
O443 O 0.50588 0.04511 0.5698 0.0
O444 O 0.52893 0.0666 0.53544 0.0
O445 O 0.54688 0.09747 0.5564 0.0
O446 O 0.54308 0.10005 0.60996 0.0
O447 O 0.56664 0.12106 0.58955 0.0
H448 H 0.66071 0.11811 0.56153 0.0
H449 H 0.69376 0.10253 0.57645 0.0
H450 H 0.65207 0.04642 0.60064 0.0
H451 H 0.61934 0.06169 0.58511 0.0
H452 H 0.48421 0.08504 0.62456 0.0
H453 H 0.45311 0.10544 0.61576 0.0
H454 H 0.43799 0.06785 0.53841 0.0
H455 H 0.46864 0.04718 0.54688 0.0
Nd456 Nd 0.31907 0.32969 0.85135 0.0
Nd457 Nd 0.30082 0.3246 0.8103 0.0
C458 C 0.33 0.33245 0.90144 0.0
C459 C 0.32197 0.34553 0.92268 0.0
C460 C 0.30573 0.33444 0.93534 0.0
C461 C 0.29669 0.34711 0.95413 0.0
C462 C 0.30381 0.37099 0.96043 0.0
C463 C 0.31989 0.3821 0.94763 0.0
C464 C 0.32895 0.36948 0.92895 0.0
C465 C 0.33159 0.37293 0.8342 0.0
C466 C 0.26701 0.33838 0.84621 0.0
C467 C 0.28998 0.3212 0.76012 0.0
C468 C 0.29861 0.30818 0.73921 0.0
C469 C 0.31575 0.31921 0.72773 0.0
C470 C 0.32543 0.3066 0.70952 0.0
C471 C 0.31795 0.28282 0.70232 0.0
C472 C 0.30094 0.27174 0.7139 0.0
C473 C 0.29132 0.28432 0.73218 0.0
C474 C 0.28827 0.28169 0.82808 0.0
C475 C 0.35306 0.31607 0.81548 0.0
O476 O 0.31544 0.31585 0.88756 0.0
O477 O 0.34168 0.34441 0.88746 0.0
O478 O 0.34478 0.35996 0.84303 0.0
O479 O 0.31175 0.36185 0.83236 0.0
O480 O 0.28266 0.33158 0.86117 0.0
O481 O 0.27155 0.34117 0.82326 0.0
O482 O 0.30404 0.3383 0.77395 0.0
O483 O 0.27842 0.30915 0.77416 0.0
O484 O 0.27506 0.29463 0.81917 0.0
O485 O 0.30813 0.29258 0.82948 0.0
O486 O 0.33685 0.32139 0.79995 0.0
O487 O 0.3491 0.3146 0.8389 0.0
H488 H 0.30001 0.31598 0.93067 0.0
H489 H 0.28456 0.33827 0.96418 0.0
H490 H 0.32617 0.40043 0.95285 0.0
H491 H 0.34142 0.37854 0.9195 0.0
H492 H 0.32179 0.33758 0.73297 0.0
H493 H 0.33846 0.31549 0.70071 0.0
H494 H 0.29448 0.2535 0.70815 0.0
H495 H 0.2782 0.2753 0.74076 0.0
Nd496 Nd 0.05927 0.09823 0.58806 0.0
Nd497 Nd 0.06336 0.05276 0.56406 0.0
C498 C 0.04554 0.13674 0.60291 0.0
C499 C 0.04441 0.15596 0.58865 0.0
C500 C 1.02804 0.16958 0.5914 0.0
C501 C 1.02725 0.18793 0.57762 0.0
C502 C 0.04302 0.19297 0.56121 0.0
C503 C 0.05871 0.17844 0.55766 0.0
C504 C 0.05925 0.15997 0.57106 0.0
C505 C 0.09645 0.09801 0.56462 0.0
C506 C 0.03518 0.07992 0.52696 0.0
C507 C 0.07628 1.0138 0.54904 0.0
C508 C 0.07767 0.99458 0.5633 0.0
C509 C 0.09632 0.98382 0.56389 0.0
C510 C 0.09825 0.96649 0.57892 0.0
C511 C 0.08155 0.95986 0.59354 0.0
C512 C 0.06309 0.97102 0.59325 0.0
C513 C 0.06123 0.98835 0.5784 0.0
C514 C 1.02649 0.05329 0.58789 0.0
C515 C 0.08695 0.07095 0.62535 0.0
O516 O 0.03184 0.11777 0.59265 0.0
O517 O 0.0656 0.1333 0.61043 0.0
O518 O 0.09581 0.11121 0.58594 0.0
O519 O 0.07754 0.08702 0.55516 0.0
O520 O 0.03559 0.09409 0.54871 0.0
O521 O 0.04747 0.06357 0.52675 0.0
O522 O 0.09031 0.03267 0.55879 0.0
O523 O 0.05625 0.01752 0.54204 0.0
O524 O 1.02646 0.0408 0.56592 0.0
O525 O 0.04555 0.06393 0.5971 0.0
O526 O 0.08759 0.05751 0.60336 0.0
O527 O 0.07382 0.08654 0.62542 0.0
H528 H 1.01612 0.1662 0.6044 0.0
H529 H 1.01474 0.19859 0.58042 0.0
H530 H 0.07135 0.18195 0.54556 0.0
H531 H 0.07166 0.14917 0.56816 0.0
H532 H 0.10938 0.98891 0.55284 0.0
H533 H 0.11265 0.95812 0.57897 0.0
H534 H 0.04974 0.96592 0.60392 0.0
H535 H 0.0469 0.99682 0.57874 0.0
Nd536 Nd 0.32841 0.84092 0.84293 0.0
Nd537 Nd 0.29138 0.816 0.8167 0.0
C538 C 0.36561 0.87017 0.85866 0.0
C539 C 0.38882 0.8681 0.8624 0.0
C540 C 0.3949 0.84619 0.85969 0.0
C541 C 0.41632 0.84373 0.86915 0.0
C542 C 0.43176 0.86324 0.88102 0.0
C543 C 0.42599 0.88529 0.88192 0.0
C544 C 0.40453 0.88768 0.87275 0.0
C545 C 0.29917 0.83381 0.87766 0.0
C546 C 0.3307 0.78512 0.83397 0.0
C547 C 0.25459 0.78659 0.79891 0.0
C548 C 0.2313 0.78764 0.79264 0.0
C549 C 0.22282 0.80735 0.80167 0.0
C550 C 0.2016 0.80995 0.79139 0.0
C551 C 0.18888 0.7928 0.77218 0.0
C552 C 0.19731 0.77291 0.76376 0.0
C553 C 0.21843 0.77037 0.77393 0.0
C554 C 0.32097 0.82335 0.78232 0.0
C555 C 0.28872 0.87166 0.82609 0.0
O556 O 0.35567 0.86661 0.83485 0.0
O557 O 0.35406 0.85988 0.87416 0.0
O558 O 0.31925 0.82952 0.88068 0.0
O559 O 0.29438 0.83881 0.85542 0.0
O560 O 0.34303 0.80599 0.84037 0.0
O561 O 0.30912 0.78455 0.82716 0.0
O562 O 0.26312 0.79069 0.82329 0.0
O563 O 0.26704 0.79688 0.78427 0.0
O564 O 0.301 0.82796 0.77936 0.0
O565 O 0.32546 0.81802 0.80444 0.0
O566 O 0.27648 0.85077 0.81923 0.0
O567 O 0.31027 0.8723 0.83322 0.0
H568 H 0.38278 0.83092 0.85175 0.0
H569 H 0.42053 0.82662 0.86828 0.0
H570 H 0.43762 0.90053 0.89135 0.0
H571 H 0.39987 0.90462 0.87517 0.0
H572 H 0.23293 0.82104 0.81578 0.0
H573 H 0.19531 0.82544 0.79794 0.0
H574 H 0.1879 0.75976 0.7485 0.0
H575 H 0.22511 0.75545 0.7663 0.0
Nd576 Nd 0.53806 0.06822 0.0639 0.0
Nd577 Nd 0.58467 0.09303 0.09118 0.0
C578 C 0.49587 0.05797 0.04419 0.0
C579 C 0.47517 0.04916 0.05347 0.0
C580 C 0.46043 0.0641 0.0599 0.0
C581 C 0.44061 0.05572 0.06827 0.0
C582 C 0.43535 0.03231 0.07045 0.0
C583 C 0.45018 0.01743 0.06432 0.0
C584 C 0.46987 0.02574 0.05584 0.0
C585 C 0.56218 0.04059 0.08842 0.0
C586 C 0.54428 0.09339 0.12504 0.0
C587 C 0.62691 0.10475 0.11035 0.0
C588 C 0.64711 0.11404 0.1003 0.0
C589 C 0.6618 0.09943 0.09273 0.0
C590 C 0.68086 0.10815 0.08306 0.0
C591 C 0.6855 0.13161 0.08078 0.0
C592 C 0.67077 0.14618 0.08824 0.0
C593 C 0.6518 0.13752 0.09796 0.0
C594 C 0.55965 0.12043 0.06764 0.0
C595 C 0.5786 0.06736 0.03024 0.0
O596 O 0.50563 0.079 0.05423 0.0
O597 O 0.50981 0.04362 0.0412 0.0
O598 O 0.54772 0.03308 0.06795 0.0
O599 O 0.56205 0.06148 0.09633 0.0
O600 O 0.53058 0.0843 0.10358 0.0
O601 O 0.56603 0.09541 0.12608 0.0
O602 O 0.61764 0.08343 0.10087 0.0
O603 O 0.61249 0.11856 0.11339 0.0
O604 O 0.57341 0.12765 0.08876 0.0
O605 O 0.5606 0.09991 0.05891 0.0
O606 O 0.59215 0.07821 0.0511 0.0
O607 O 0.55686 0.0633 0.02934 0.0
H608 H 0.46415 0.08222 0.05824 0.0
H609 H 0.42934 0.06745 0.07288 0.0
H610 H 0.44625 0.9992 0.06537 0.0
H611 H 0.48078 1.0137 0.05091 0.0
H612 H 0.65858 0.08126 0.09433 0.0
H613 H 0.69196 0.09657 0.07735 0.0
H614 H 0.67418 0.16443 0.08712 0.0
H615 H 0.64091 0.14931 0.10374 0.0
Nd616 Nd 0.28543 0.30604 0.31066 0.0
Nd617 Nd 0.32443 0.33818 0.33707 0.0
C618 C 0.24902 0.28 0.28558 0.0
C619 C 0.22697 0.28458 0.29058 0.0
C620 C 0.22191 0.30672 0.28922 0.0
C621 C 0.20794 0.31567 0.30518 0.0
C622 C 0.19855 0.30254 0.32248 0.0
C623 C 0.20072 0.27917 0.32069 0.0
C624 C 0.21483 0.27024 0.3048 0.0
C625 C 0.29343 0.30383 0.36242 0.0
C626 C 0.27726 0.35667 0.33503 0.0
C627 C 0.361 0.36324 0.36324 0.0
C628 C 0.38331 0.35858 0.35927 0.0
C629 C 0.38928 0.33725 0.36319 0.0
C630 C 0.40567 0.32884 0.35058 0.0
C631 C 0.41616 0.34137 0.3334 0.0
C632 C 0.41194 0.36383 0.33192 0.0
C633 C 0.39588 0.37243 0.34497 0.0
C634 C 0.31575 0.34196 0.28554 0.0
C635 C 0.33258 0.28841 0.31059 0.0
O636 O 0.26088 0.29531 0.27493 0.0
O637 O 0.26056 0.27405 0.30519 0.0
O638 O 0.27462 0.30668 0.35062 0.0
O639 O 0.30769 0.30528 0.34744 0.0
O640 O 0.27008 0.33854 0.31705 0.0
O641 O 0.29706 0.35897 0.34902 0.0
O642 O 0.34851 0.34797 0.37328 0.0
O643 O 0.35012 0.3696 0.34345 0.0
O644 O 0.33461 0.33874 0.29687 0.0
O645 O 0.30179 0.33923 0.30066 0.0
O646 O 0.34032 0.30607 0.32892 0.0
O647 O 0.31248 0.28603 0.29759 0.0
H648 H 0.23069 0.31817 0.27817 0.0
H649 H 0.20631 0.33358 0.30563 0.0
H650 H 0.19293 0.26829 0.33302 0.0
H651 H 0.21823 0.25303 0.30603 0.0
H652 H 0.38006 0.3261 0.37419 0.0
H653 H 0.40899 0.31183 0.353 0.0
H654 H 0.41948 0.3741 0.31891 0.0
H655 H 0.39166 0.38892 0.34158 0.0
Nd656 Nd 0.55903 0.60277 0.08887 0.0
Nd657 Nd 0.56275 0.55321 0.06339 0.0
C658 C 0.54456 0.63939 0.10816 0.0
C659 C 0.54561 0.66084 0.09725 0.0
C660 C 0.52606 0.6693 0.09045 0.0
C661 C 0.52601 0.68631 0.07466 0.0
C662 C 0.54547 0.69477 0.06531 0.0
C663 C 0.56517 0.68694 0.07295 0.0
C664 C 0.56528 0.67019 0.08883 0.0
C665 C 0.59324 0.6052 0.0597 0.0
C666 C 0.53546 0.58303 0.02768 0.0
C667 C 0.57662 0.51508 0.0477 0.0
C668 C 0.57693 0.4955 0.06149 0.0
C669 C 0.59519 0.48412 0.06267 0.0
C670 C 0.59642 0.46713 0.07833 0.0
C671 C 0.5795 0.46169 0.09307 0.0
C672 C 0.5613 0.47319 0.09186 0.0
C673 C 0.56007 0.49004 0.07631 0.0
C674 C 0.52559 0.55609 0.08609 0.0
C675 C 0.58676 0.57226 0.12503 0.0
O676 O 0.53134 0.62173 0.09369 0.0
O677 O 0.56366 0.63445 0.11752 0.0
O678 O 0.58874 0.62312 0.07351 0.0
O679 O 0.58013 0.5879 0.06259 0.0
O680 O 0.53559 0.59741 0.04931 0.0
O681 O 0.54751 0.56638 0.0273 0.0
O682 O 0.59027 0.53381 0.05899 0.0
O683 O 0.55685 0.51888 0.03935 0.0
O684 O 0.52625 0.54111 0.06609 0.0
O685 O 0.54468 0.56718 0.09495 0.0
O686 O 0.58212 0.55513 0.10507 0.0
O687 O 0.5794 0.59201 0.12378 0.0
H688 H 0.51067 0.66199 0.09636 0.0
H689 H 0.51068 0.6923 0.06908 0.0
H690 H 0.58051 0.69367 0.06649 0.0
H691 H 0.58062 0.66396 0.09358 0.0
H692 H 0.60855 0.48861 0.05183 0.0
H693 H 0.61053 0.4583 0.07902 0.0
H694 H 0.5478 0.46887 0.10261 0.0
H695 H 0.54603 0.499 0.07616 0.0
Nd696 Nd 0.8298 0.34239 0.3432 0.0
Nd697 Nd 0.79238 0.31697 0.31757 0.0
C698 C 0.86758 0.37061 0.35906 0.0
C699 C 0.8899 0.36685 0.36796 0.0
C700 C 0.90814 0.37824 0.35874 0.0
C701 C 0.92956 0.37671 0.36949 0.0
C702 C 0.93286 0.36409 0.38986 0.0
C703 C 0.91443 0.35143 0.39771 0.0
C704 C 0.89316 0.35259 0.38666 0.0
C705 C 0.8009 0.33513 0.37826 0.0
C706 C 0.83199 0.28654 0.33542 0.0
C707 C 0.75577 0.28706 0.30055 0.0
C708 C 0.73227 0.28718 0.2937 0.0
C709 C 0.72063 0.30065 0.30922 0.0
C710 C 0.69902 0.30293 0.29997 0.0
C711 C 0.68927 0.29183 0.27527 0.0
C712 C 0.70077 0.27808 0.26011 0.0
C713 C 0.72213 0.2757 0.26933 0.0
C714 C 0.82148 0.32421 0.2827 0.0
C715 C 0.78989 0.37265 0.326 0.0
O716 O 0.86004 0.36381 0.33462 0.0
O717 O 0.85294 0.36548 0.37406 0.0
O718 O 0.82101 0.33079 0.38108 0.0
O719 O 0.79595 0.34012 0.35605 0.0
O720 O 0.8443 0.30742 0.34208 0.0
O721 O 0.81045 0.28589 0.32826 0.0
O722 O 0.7643 0.29179 0.32494 0.0
O723 O 0.76814 0.29703 0.28559 0.0
O724 O 0.80144 0.32863 0.27989 0.0
O725 O 0.82623 0.31908 0.30488 0.0
O726 O 0.77753 0.35174 0.32011 0.0
O727 O 0.81159 0.37335 0.33221 0.0
H728 H 0.90583 0.3889 0.34391 0.0
H729 H 0.94348 0.3862 0.36262 0.0
H730 H 0.91623 0.34174 0.41352 0.0
H731 H 0.8793 0.34316 0.39372 0.0
H732 H 0.72843 0.30995 0.32795 0.0
H733 H 0.69019 0.3137 0.31166 0.0
H734 H 0.69339 0.26972 0.24083 0.0
H735 H 0.7311 0.26565 0.25698 0.0
Nd736 Nd 0.03752 0.57124 0.56561 0.0
Nd737 Nd 0.0855 0.59024 0.59304 0.0
C738 C 0.9976 0.56064 0.5389 0.0
C739 C 0.97576 0.55016 0.54429 0.0
C740 C 0.96379 0.56243 0.56068 0.0
C741 C 0.94335 0.55189 0.56591 0.0
C742 C 0.93458 0.52897 0.55482 0.0
C743 C 0.94678 0.51667 0.53884 0.0
C744 C 0.96704 0.5272 0.53349 0.0
C745 C 0.05567 0.54286 0.59601 0.0
C746 C 0.04493 0.59315 0.62593 0.0
C747 C 0.12793 0.59695 0.61197 0.0
C748 C 0.14888 0.6067 0.60384 0.0
C749 C 0.15787 0.59484 0.58393 0.0
C750 C 0.17787 0.60459 0.57682 0.0
C751 C 0.18911 0.62633 0.58948 0.0
C752 C 0.17973 0.63831 0.60891 0.0
C753 C 0.15998 0.62852 0.61616 0.0
C754 C 0.06213 0.62292 0.57823 0.0
C755 C 0.07871 0.57017 0.53133 0.0
O756 O 1.00593 0.58148 0.55106 0.0
O757 O 1.01232 0.54698 0.53754 0.0
O758 O 0.03469 0.54393 0.5928 0.0
O759 O 0.0653 0.55516 0.58192 0.0
O760 O 0.03205 0.59131 0.60364 0.0
O761 O 0.06538 0.58854 0.62704 0.0
O762 O 0.11721 0.57715 0.59925 0.0
O763 O 0.11485 0.61161 0.61769 0.0
O764 O 0.07768 0.62673 0.59788 0.0
O765 O 0.06155 0.60329 0.56549 0.0
O766 O 0.09237 0.58241 0.55139 0.0
O767 O 0.05735 0.56358 0.53213 0.0
H768 H 0.97015 0.58014 0.56945 0.0
H769 H 0.93426 0.56176 0.57825 0.0
H770 H 0.94068 0.4988 0.5305 0.0
H771 H 0.97599 0.51729 0.52099 0.0
H772 H 0.14958 0.57803 0.57393 0.0
H773 H 0.1847 0.59497 0.56177 0.0
H774 H 0.18763 0.65538 0.61854 0.0
H775 H 0.15334 0.63811 0.63142 0.0
Nd776 Nd 0.81961 0.83037 0.35326 0.0
Nd777 Nd 0.8021 0.82557 0.31118 0.0
C778 C 0.82842 0.83008 0.4031 0.0
C779 C 0.81949 0.84161 0.42436 0.0
C780 C 0.81607 0.83074 0.44568 0.0
C781 C 0.80804 0.84217 0.46634 0.0
C782 C 0.80385 0.86477 0.46598 0.0
C783 C 0.80569 0.87471 0.44352 0.0
C784 C 0.81324 0.86311 0.42279 0.0
C785 C 0.83266 0.87381 0.33694 0.0
C786 C 0.76726 0.83911 0.34625 0.0
C787 C 0.79381 0.82435 0.26109 0.0
C788 C 0.80349 0.81212 0.24074 0.0
C789 C 0.81333 0.8243 0.22307 0.0
C790 C 0.8231 0.81284 0.20398 0.0
C791 C 0.82273 0.78892 0.20206 0.0
C792 C 0.81407 0.77715 0.2209 0.0
C793 C 0.8047 0.78868 0.24017 0.0
C794 C 0.78891 0.78246 0.32809 0.0
C795 C 0.8544 0.81715 0.31774 0.0
O796 O 0.81411 0.81428 0.38772 0.0
O797 O 0.84061 0.84347 0.39085 0.0
O798 O 0.84569 0.86112 0.34679 0.0
O799 O 0.81278 0.86253 0.33411 0.0
O800 O 0.78359 0.83488 0.36254 0.0
O801 O 0.7712 0.83954 0.32261 0.0
O802 O 0.8076 0.84087 0.27619 0.0
O803 O 0.78122 0.81167 0.27363 0.0
O804 O 0.77593 0.79519 0.31826 0.0
O805 O 0.80882 0.79353 0.33045 0.0
O806 O 0.83803 0.82145 0.30164 0.0
O807 O 0.85057 0.81663 0.3414 0.0
H808 H 0.8201 0.81371 0.44659 0.0
H809 H 0.80625 0.83382 0.48309 0.0
H810 H 0.80289 0.89212 0.44246 0.0
H811 H 0.81503 0.87136 0.40594 0.0
H812 H 0.81321 0.84261 0.22386 0.0
H813 H 0.83 0.82245 0.19001 0.0
H814 H 0.81316 0.7587 0.21993 0.0
H815 H 0.79792 0.77905 0.25421 0.0
Nd816 Nd 0.81433 0.34919 0.84501 0.0
Nd817 Nd 0.80452 0.30609 0.81834 0.0
C818 C 0.81987 0.39119 0.87156 0.0
C819 C 0.8326 0.41324 0.86742 0.0
C820 C 0.82187 0.42915 0.85551 0.0
C821 C 0.83411 0.44933 0.85013 0.0
C822 C 0.85726 0.45402 0.85679 0.0
C823 C 0.86794 0.43805 0.86855 0.0
C824 C 0.85578 0.41795 0.87388 0.0
C825 C 0.85453 0.33686 0.83252 0.0
C826 C 0.80526 0.34671 0.78401 0.0
C827 C 0.79799 0.26374 0.79257 0.0
C828 C 0.78621 0.24219 0.7992 0.0
C829 C 0.79783 0.22433 0.8042 0.0
C830 C 0.78737 0.20485 0.81293 0.0
C831 C 0.7651 0.2029 0.81687 0.0
C832 C 0.75345 0.22069 0.81163 0.0
C833 C 0.76387 0.24012 0.80294 0.0
C834 C 0.76459 0.31951 0.83018 0.0
C835 C 0.81297 0.30818 0.87939 0.0
O836 O 0.80248 0.38235 0.85464 0.0
O837 O 0.83128 0.37559 0.87799 0.0
O838 O 0.84765 0.35594 0.82915 0.0
O839 O 0.83899 0.32386 0.84005 0.0
O840 O 0.80327 0.35893 0.80582 0.0
O841 O 0.81047 0.32602 0.78416 0.0
O842 O 0.8164 0.27307 0.80762 0.0
O843 O 0.78598 0.27906 0.78675 0.0
O844 O 0.77107 0.30052 0.83472 0.0
O845 O 0.78034 0.33185 0.82244 0.0
O846 O 0.81354 0.2953 0.85748 0.0
O847 O 0.80929 0.32944 0.87937 0.0
H848 H 0.80403 0.4259 0.85017 0.0
H849 H 0.82545 0.4614 0.84115 0.0
H850 H 0.88582 0.441 0.87346 0.0
H851 H 0.86466 0.40601 0.8828 0.0
H852 H 0.81514 0.22567 0.80186 0.0
H853 H 0.79683 0.19151 0.81703 0.0
H854 H 0.73617 0.21954 0.8141 0.0
H855 H 0.75444 0.25365 0.79957 0.0
Nd856 Nd 0.78687 0.80858 0.81109 0.0
Nd857 Nd 0.8251 0.83975 0.84121 0.0
C858 C 0.75169 0.78499 0.78132 0.0
C859 C 0.72943 0.78761 0.78771 0.0
C860 C 0.72202 0.80864 0.78575 0.0
C861 C 0.70819 0.8167 0.80247 0.0
C862 C 0.70123 0.80374 0.82125 0.0
C863 C 0.70554 0.78108 0.82012 0.0
C864 C 0.71949 0.77305 0.80344 0.0
C865 C 0.79054 0.80496 0.86246 0.0
C866 C 0.77817 0.85652 0.8427 0.0
C867 C 0.86446 0.85906 0.86634 0.0
C868 C 0.88603 0.85288 0.86149 0.0
C869 C 0.89069 0.83077 0.86376 0.0
C870 C 0.90725 0.82245 0.85135 0.0
C871 C 0.91893 0.8357 0.83556 0.0
C872 C 0.91556 0.85864 0.83548 0.0
C873 C 0.89963 0.86721 0.84868 0.0
C874 C 0.81012 0.85382 0.79669 0.0
C875 C 0.83334 0.7901 0.81154 0.0
O876 O 0.76321 0.80319 0.7748 0.0
O877 O 0.76355 0.7756 0.79786 0.0
O878 O 0.77246 0.80752 0.84875 0.0
O879 O 0.80628 0.80683 0.84947 0.0
O880 O 0.77184 0.84098 0.82178 0.0
O881 O 0.79744 0.85731 0.8573 0.0
O882 O 0.85085 0.84437 0.87584 0.0
O883 O 0.85444 0.86719 0.84734 0.0
O884 O 0.81552 0.86713 0.81867 0.0
O885 O 0.81291 0.83333 0.79806 0.0
O886 O 0.8425 0.81128 0.82244 0.0
O887 O 0.81173 0.7841 0.80548 0.0
H888 H 0.72897 0.82022 0.77355 0.0
H889 H 0.70498 0.83409 0.80228 0.0
H890 H 0.69951 0.77013 0.83343 0.0
H891 H 0.7245 0.75654 0.80508 0.0
H892 H 0.88059 0.81927 0.8736 0.0
H893 H 0.90986 0.8051 0.85309 0.0
H894 H 0.92377 0.86963 0.82361 0.0
H895 H 0.89641 0.88435 0.84661 0.0
Nd896 Nd 0.5763 0.59837 0.58308 0.0
Nd897 Nd 0.54867 0.55818 0.57722 0.0
C898 C 0.6021 0.6394 0.59336 0.0
C899 C 0.59968 0.66029 0.58172 0.0
C900 C 0.57863 0.66591 0.57496 0.0
C901 C 0.576 0.68312 0.55978 0.0
C902 C 0.5944 0.69514 0.55114 0.0
C903 C 0.61552 0.68993 0.55862 0.0
C904 C 0.6181 0.67265 0.57368 0.0
C905 C 0.57736 0.5766 0.53275 0.0
C906 C 0.52595 0.60148 0.56201 0.0
C907 C 0.52343 0.51685 0.56855 0.0
C908 C 0.52632 0.49631 0.58099 0.0
C909 C 0.54623 0.48744 0.58202 0.0
C910 C 0.54986 0.4703 0.59708 0.0
C911 C 0.53379 0.46177 0.61177 0.0
C912 C 0.51375 0.47049 0.61025 0.0
C913 C 0.51004 0.48737 0.59497 0.0
C914 C 0.5477 0.58032 0.62721 0.0
C915 C 0.59868 0.55483 0.59842 0.0
O916 O 0.58753 0.63265 0.60787 0.0
O917 O 0.60604 0.62229 0.57757 0.0
O918 O 0.57293 0.59713 0.53873 0.0
O919 O 0.57728 0.56695 0.55297 0.0
O920 O 0.54535 0.6135 0.57217 0.0
O921 O 0.52334 0.57871 0.55824 0.0
O922 O 0.53754 0.52337 0.55341 0.0
O923 O 0.51928 0.53427 0.58374 0.0
O924 O 0.55297 0.5601 0.62172 0.0
O925 O 0.54751 0.58978 0.60692 0.0
O926 O 0.57942 0.5429 0.58775 0.0
O927 O 0.60127 0.57759 0.60245 0.0
H928 H 0.56408 0.65661 0.58079 0.0
H929 H 0.55955 0.68691 0.55469 0.0
H930 H 0.63001 0.69864 0.55206 0.0
H931 H 0.63442 0.66834 0.57823 0.0
H932 H 0.55928 0.49414 0.57174 0.0
H933 H 0.56538 0.46392 0.59732 0.0
H934 H 0.50109 0.46494 0.6216 0.0
H935 H 0.49471 0.49415 0.59491 0.0
Nd936 Nd 0.08103 0.5867 0.07421 0.0
Nd937 Nd 0.0363 0.56703 0.0817 0.0
C938 C 0.11883 0.60078 0.05825 0.0
C939 C 0.13938 0.59123 0.063 0.0
C940 C 0.16012 0.60376 0.06115 0.0
C941 C 0.17951 0.59511 0.06831 0.0
C942 C 0.17848 0.57413 0.07824 0.0
C943 C 0.15749 0.56168 0.07973 0.0
C944 C 0.13827 0.56983 0.07158 0.0
C945 C 0.08663 0.56228 0.11578 0.0
C946 C 0.06015 0.53493 0.04595 0.0
C947 C 0.99892 0.5539 0.09905 0.0
C948 C 0.97921 0.5645 0.09619 0.0
C949 C 0.95894 0.5538 0.10168 0.0
C950 C 0.93997 0.56351 0.09641 0.0
C951 C 0.94108 0.58377 0.08512 0.0
C952 C 0.9617 0.59447 0.0801 0.0
C953 C 0.98056 0.58502 0.08577 0.0
C954 C 0.03472 0.5859 0.03636 0.0
C955 C 0.05637 0.62066 0.10863 0.0
O956 O 0.10231 0.58678 0.04338 0.0
O957 O 0.11271 0.61131 0.07885 0.0
O958 O 0.10229 0.57388 0.1067 0.0
O959 O 0.06839 0.56401 0.10341 0.0
O960 O 0.07153 0.55472 0.04295 0.0
O961 O 0.04797 0.53418 0.06464 0.0
O962 O 1.0161 0.56701 0.11349 0.0
O963 O 1.00376 0.54409 0.07741 0.0
O964 O 1.02254 0.56725 0.03998 0.0
O965 O 0.04749 0.59515 0.05724 0.0
O966 O 0.04101 0.60235 0.10737 0.0
O967 O 0.073 0.61999 0.09532 0.0
H968 H 0.16134 0.62028 0.05445 0.0
H969 H 0.19525 0.605 0.06622 0.0
H970 H 0.15567 0.54582 0.08778 0.0
H971 H 0.12246 0.55948 0.0725 0.0
H972 H 0.95772 0.53782 0.10957 0.0
H973 H 0.92445 0.55496 0.10088 0.0
H974 H 0.9633 0.60965 0.07079 0.0
H975 H 0.99615 0.59331 0.08112 0.0
H976 H 0.03734 0.29045 0.96534 0.0
H977 H 0.10195 0.29435 0.94134 0.0
H978 H 0.04471 0.26012 0.98983 0.0
H979 H 0.10952 0.2636 0.96628 0.0
H980 H 0.10531 0.19459 1.00078 0.0
H981 H 0.09854 0.22232 0.97182 0.0
H982 H 0.06896 0.26033 0.02984 0.0
H983 H 0.07572 0.23274 0.05871 0.0
C984 C 0.053 0.28441 0.96487 0.0
C985 C 0.0691 0.2948 0.95147 0.0
C986 C 0.05732 0.2672 0.97918 0.0
C987 C 0.07789 0.25982 0.98053 0.0
C988 C 0.09351 0.26899 0.96565 0.0
C989 C 0.08915 0.28642 0.9512 0.0
C990 C 0.09758 0.20902 1.00745 0.0
C991 C 0.09099 0.21139 0.03207 0.0
C992 C 0.0937 0.22489 0.99083 0.0
C993 C 0.08305 0.24341 0.9984 0.0
C994 C 0.07679 0.24597 0.02317 0.0
C995 C 0.08066 0.23015 0.03975 0.0
H996 H 0.11734 0.78775 0.28389 0.0
H997 H 0.13459 0.8591 0.27626 0.0
H998 H 0.1559 0.78722 0.30086 0.0
H999 H 0.17277 0.85934 0.29438 0.0
H1000 H 0.24563 0.85146 0.30468 0.0
H1001 H 0.20672 0.85225 0.29091 0.0
H1002 H 0.18829 0.79288 0.32758 0.0
H1003 H 0.22743 0.79166 0.34009 0.0
C1004 C 0.12914 0.8037 0.28699 0.0
C1005 C 0.12228 0.82371 0.27944 0.0
C1006 C 0.15167 0.80343 0.29661 0.0
C1007 C 0.1685 0.8232 0.29919 0.0
C1008 C 0.16119 0.84339 0.29248 0.0
C1009 C 0.13882 0.84351 0.28255 0.0
C1010 C 0.23331 0.83862 0.30998 0.0
C1011 C 0.24015 0.82159 0.32379 0.0
C1012 C 0.21056 0.83911 0.30214 0.0
C1013 C 0.19331 0.82273 0.30798 0.0
C1014 C 0.20035 0.80581 0.32208 0.0
C1015 C 0.22314 0.8052 0.32965 0.0
H1016 H 0.55459 0.89523 0.47176 0.0
H1017 H 0.5815 0.93397 0.41603 0.0
H1018 H 0.55229 0.93036 0.49888 0.0
H1019 H 0.57851 0.96998 0.44337 0.0
H1020 H 0.59317 0.02872 0.51408 0.0
H1021 H 0.59423 0.99446 0.48327 0.0
H1022 H 0.53312 0.96098 0.50391 0.0
H1023 H 0.53277 0.99468 0.53542 0.0
C1024 C 0.55967 0.91132 0.46496 0.0
C1025 C 0.56806 0.91167 0.44146 0.0
C1026 C 0.55819 0.93165 0.48063 0.0
C1027 C 0.56497 0.9532 0.47337 0.0
C1028 C 0.57321 0.9537 0.44968 0.0
C1029 C 0.57471 0.9331 0.43384 0.0
C1030 C 0.58004 1.01395 0.51205 0.0
C1031 C 0.56309 1.01427 0.52748 0.0
C1032 C 0.58051 0.99438 0.49418 0.0
C1033 C 0.56385 0.97476 0.49107 0.0
C1034 C 0.54657 0.97545 0.50611 0.0
C1035 C 0.54631 0.99483 0.52421 0.0
H1036 H 0.46958 0.29394 0.73489 0.0
H1037 H 0.49904 0.32209 0.8128 0.0
H1038 H 0.43281 0.29503 0.74651 0.0
H1039 H 0.46237 0.32474 0.82447 0.0
H1040 H 0.39251 0.31611 0.84669 0.0
H1041 H 0.42911 0.3136 0.83536 0.0
H1042 H 0.40309 0.31005 0.75507 0.0
H1043 H 0.36632 0.3119 0.76674 0.0
C1044 C 0.46827 0.30043 0.75466 0.0
C1045 C 0.48772 0.30755 0.77286 0.0
C1046 C 0.44683 0.30138 0.76144 0.0
C1047 C 0.44356 0.31008 0.78674 0.0
C1048 C 0.46324 0.31737 0.8049 0.0
C1049 C 0.48469 0.31591 0.79819 0.0
C1050 C 0.39446 0.31453 0.82652 0.0
C1051 C 0.3759 0.31397 0.80776 0.0
C1052 C 0.4159 0.31335 0.81986 0.0
C1053 C 0.4201 0.31151 0.79397 0.0
C1054 C 0.40135 0.31102 0.77522 0.0
C1055 C 0.37988 0.31226 0.78194 0.0
H1056 H 0.04916 0.84766 0.68059 0.0
H1057 H 1.01814 0.8327 0.601 0.0
H1058 H 0.07253 0.88193 0.67131 0.0
H1059 H 0.04125 0.86664 0.59189 0.0
H1060 H 0.07178 0.95564 0.64171 0.0
H1061 H 0.06182 0.91941 0.65776 0.0
H1062 H 0.08177 0.88237 0.591 0.0
H1063 H 0.09112 0.91842 0.57458 0.0
C1064 C 0.04732 0.85175 0.66121 0.0
C1065 C 0.03174 0.83781 0.64152 0.0
C1066 C 0.06077 0.87113 0.65591 0.0
C1067 C 0.05883 0.87658 0.63087 0.0
C1068 C 0.04344 0.86243 0.61122 0.0
C1069 C 0.03002 0.84321 0.6165 0.0
C1070 C 0.07464 0.9398 0.6309 0.0
C1071 C 0.08182 0.93966 0.60674 0.0
C1072 C 0.06916 0.91916 0.64018 0.0
C1073 C 0.07081 0.89824 0.62535 0.0
C1074 C 0.08024 0.89838 0.60259 0.0
C1075 C 0.08571 0.91899 0.59331 0.0
H1076 H 0.56665 0.87897 0.95603 0.0
H1077 H 0.52516 0.87808 0.01612 0.0
H1078 H 0.53422 0.86823 0.92359 0.0
H1079 H 0.49222 0.86811 0.98311 0.0
H1080 H 0.43792 0.83563 0.91718 0.0
H1081 H 0.47164 0.83783 0.94767 0.0
H1082 H 0.50585 0.88898 0.90887 0.0
H1083 H 0.4725 0.88621 0.87821 0.0
C1084 C 0.55053 0.87691 0.96235 0.0
C1085 C 0.54839 0.88005 0.98867 0.0
C1086 C 0.53196 0.87059 0.94369 0.0
C1087 C 0.51075 0.86761 0.95083 0.0
C1088 C 0.50847 0.87015 0.97713 0.0
C1089 C 0.52722 0.87617 0.99597 0.0
C1090 C 0.45294 0.84673 0.91478 0.0
C1091 C 0.45284 0.8608 0.8955 0.0
C1092 C 0.47204 0.84824 0.93239 0.0
C1093 C 0.49122 0.86374 0.93077 0.0
C1094 C 0.49136 0.87673 0.91048 0.0
C1095 C 0.47232 0.87524 0.89297 0.0
H1096 H 0.4671 0.20978 0.10116 0.0
H1097 H 0.5291 0.24477 0.08465 0.0
H1098 H 0.47507 0.17295 0.08032 0.0
H1099 H 0.53765 0.20865 0.06543 0.0
H1100 H 0.55445 0.14744 0.03093 0.0
H1101 H 0.53069 0.17685 0.0316 0.0
H1102 H 0.5008 0.14952 0.09328 0.0
H1103 H 0.52404 0.12065 0.09211 0.0
C1104 C 0.48217 0.20953 0.09267 0.0
C1105 C 0.49726 0.22989 0.0938 0.0
C1106 C 0.48677 0.18862 0.0808 0.0
C1107 C 0.50677 0.18792 0.07064 0.0
C1108 C 0.52166 0.20855 0.07187 0.0
C1109 C 0.51688 0.22927 0.08316 0.0
C1110 C 0.54191 0.14712 0.04356 0.0
C1111 C 0.54087 0.13179 0.06136 0.0
C1112 C 0.52845 0.16399 0.04416 0.0
C1113 C 0.51423 0.16585 0.06294 0.0
C1114 C 0.5114 0.14861 0.07847 0.0
C1115 C 0.52481 0.13188 0.07782 0.0
H1116 H 0.11924 0.36711 0.42274 0.0
H1117 H 0.17877 0.36569 0.47449 0.0
H1118 H 0.13551 0.3513 0.38666 0.0
H1119 H 0.1956 0.35035 0.43775 0.0
H1120 H 0.20287 0.29396 0.37212 0.0
H1121 H 0.18979 0.31394 0.40874 0.0
H1122 H 0.1634 0.35928 0.36029 0.0
H1123 H 0.17472 0.33806 0.32311 0.0
C1124 C 0.13597 0.36363 0.42634 0.0
C1125 C 0.14772 0.36731 0.45139 0.0
C1126 C 0.14539 0.35481 0.40558 0.0
C1127 C 0.16681 0.34958 0.40938 0.0
C1128 C 0.17893 0.35401 0.43437 0.0
C1129 C 0.16942 0.36288 0.4553 0.0
C1130 C 0.19375 0.30777 0.36904 0.0
C1131 C 0.18946 0.31405 0.34445 0.0
C1132 C 0.18678 0.31961 0.39023 0.0
C1133 C 0.17568 0.33821 0.38738 0.0
C1134 C 0.17172 0.34481 0.36298 0.0
C1135 C 0.17834 0.33272 0.34169 0.0
H1136 H 0.97704 0.12611 0.2616 0.0
H1137 H 0.94488 0.0566 0.23177 0.0
H1138 H 0.99995 0.12521 0.22674 0.0
H1139 H 0.96744 0.05553 0.19696 0.0
H1140 H 1.02788 0.04776 0.15569 0.0
H1141 H 1.00285 0.0517 0.18742 0.0
H1142 H 1.00768 0.12404 0.18236 0.0
H1143 H 0.03285 0.11987 0.14987 0.0
C1144 C 0.97397 0.11093 0.24695 0.0
C1145 C 0.95789 0.09183 0.24937 0.0
C1146 C 0.98754 0.11025 0.22685 0.0
C1147 C 0.98626 0.09018 0.20839 0.0
C1148 C 0.9697 0.07137 0.21048 0.0
C1149 C 0.9561 0.07215 0.23039 0.0
C1150 C 1.02382 0.06467 0.16119 0.0
C1151 C 0.03297 0.08344 0.14968 0.0
C1152 C 1.00899 0.06693 0.17957 0.0
C1153 C 1.00248 0.08822 0.18808 0.0
C1154 C 1.01192 0.10722 0.17689 0.0
C1155 C 1.02654 0.10484 0.15797 0.0
H1156 H 0.35343 0.7788 0.53443 0.0
H1157 H 0.37584 0.72716 0.4834 0.0
H1158 H 0.33811 0.79483 0.49771 0.0
H1159 H 0.36059 0.74332 0.4464 0.0
H1160 H 0.35213 0.79139 0.38762 0.0
H1161 H 0.36672 0.77614 0.42532 0.0
H1162 H 0.30961 0.78913 0.46096 0.0
H1163 H 0.29551 0.8055 0.42322 0.0
C1164 C 0.35513 0.77081 0.51537 0.0
C1165 C 0.36598 0.75165 0.51199 0.0
C1166 C 0.34614 0.77998 0.49418 0.0
C1167 C 0.34806 0.77053 0.46889 0.0
C1168 C 0.35895 0.75132 0.46553 0.0
C1169 C 0.36763 0.74192 0.48676 0.0
C1170 C 0.34266 0.79098 0.40352 0.0
C1171 C 0.32257 0.79944 0.40235 0.0
C1172 C 0.35097 0.78207 0.42514 0.0
C1173 C 0.33925 0.78092 0.4462 0.0
C1174 C 0.31923 0.78982 0.44524 0.0
C1175 C 0.31107 0.79916 0.42362 0.0
H1176 H 0.58939 0.02081 0.76599 0.0
H1177 H 0.65394 1.0115 0.74712 0.0
H1178 H 0.57926 0.03087 0.724 0.0
H1179 H 0.64291 0.02091 0.7037 0.0
H1180 H 0.57845 0.02064 0.62398 0.0
H1181 H 0.59229 1.00366 0.66165 0.0
H1182 H 0.61266 0.07171 0.70575 0.0
H1183 H 0.59913 0.08863 0.66859 0.0
C1184 C 0.60138 0.02026 0.75271 0.0
C1185 C 0.62275 1.01545 0.76048 0.0
C1186 C 0.59536 0.02602 0.72843 0.0
C1187 C 0.61016 0.02666 0.71049 0.0
C1188 C 0.63108 0.02046 0.71719 0.0
C1189 C 0.63736 1.01492 0.74201 0.0
C1190 C 0.58598 0.03195 0.64168 0.0
C1191 C 0.58766 0.05606 0.64316 0.0
C1192 C 0.59414 0.02224 0.66312 0.0
C1193 C 0.60411 0.03641 0.68646 0.0
C1194 C 0.6056 0.06038 0.68789 0.0
C1195 C 0.59764 0.07004 0.66659 0.0
H1196 H 0.32109 0.43652 0.11695 0.0
H1197 H 0.34748 0.48422 0.069 0.0
H1198 H 0.30117 0.41081 0.07922 0.0
H1199 H 0.32867 0.45744 0.03066 0.0
H1200 H 0.28947 0.41228 0.96485 0.0
H1201 H 0.29407 0.43924 1.00506 0.0
H1202 H 0.31199 0.3857 0.04734 0.0
H1203 H 0.30661 0.359 1.00765 0.0
C1204 C 0.32305 0.44123 0.0982 0.0
C1205 C 0.33629 0.46202 0.09567 0.0
C1206 C 0.31145 0.42658 0.07662 0.0
C1207 C 0.31337 0.43205 0.05202 0.0
C1208 C 0.32651 0.45297 0.04945 0.0
C1209 C 0.33767 0.46804 0.07123 0.0
C1210 C 0.29337 0.40618 0.98298 0.0
C1211 C 0.29803 0.38385 0.9834 0.0
C1212 C 0.29627 0.42159 1.00585 0.0
C1213 C 0.30403 0.41475 0.02918 0.0
C1214 C 0.30592 0.39154 0.02972 0.0
C1215 C 0.30277 0.37613 1.00695 0.0
H1216 H 0.97355 0.1256 0.38714 0.0
H1217 H 0.93201 0.06104 0.38974 0.0
H1218 H 0.99651 0.1221 0.42722 0.0
H1219 H 0.95534 0.05707 0.42956 0.0
H1220 H 1.01839 0.0471 0.48407 0.0
H1221 H 0.99435 0.05084 0.44492 0.0
H1222 H 0.99521 0.12223 0.47477 0.0
H1223 H 1.01881 0.11834 0.51419 0.0
C1224 C 0.9692 0.11072 0.39642 0.0
C1225 C 0.95065 0.09381 0.38537 0.0
C1226 C 0.9824 0.10868 0.41949 0.0
C1227 C 0.97795 0.08929 0.43197 0.0
C1228 C 0.95946 0.07224 0.42067 0.0
C1229 C 0.94591 0.07459 0.39791 0.0
C1230 C 1.01349 0.06363 0.48236 0.0
C1231 C 1.02072 0.0824 0.50256 0.0
C1232 C 0.99951 0.06574 0.45986 0.0
C1233 C 0.99263 0.08686 0.45638 0.0
C1234 C 1.00012 0.1057 0.47647 0.0
C1235 C 1.01366 0.10344 0.49924 0.0
H1236 H 0.33701 0.7373 0.64143 0.0
H1237 H 0.40105 0.78058 0.66309 0.0
H1238 H 0.32532 0.75382 0.68133 0.0
H1239 H 0.38964 0.79676 0.70358 0.0
H1240 H 0.36122 0.80877 0.78273 0.0
H1241 H 0.3759 0.78883 0.74656 0.0
H1242 H 0.31771 0.79427 0.69519 0.0
H1243 H 0.30329 0.81451 0.73105 0.0
C1244 C 0.34904 0.74943 0.65542 0.0
C1245 C 0.37026 0.757 0.6494 0.0
C1246 C 0.34217 0.7593 0.67808 0.0
C1247 C 0.35641 0.77689 0.69565 0.0
C1248 C 0.37823 0.78322 0.69061 0.0
C1249 C 0.38494 0.77368 0.66757 0.0
C1250 C 0.35173 0.80605 0.76363 0.0
C1251 C 0.33113 0.81354 0.75988 0.0
C1252 C 0.36012 0.79451 0.7429 0.0
C1253 C 0.34794 0.78967 0.71791 0.0
C1254 C 0.32746 0.79738 0.71417 0.0
C1255 C 0.31928 0.80926 0.73475 0.0
H1256 H 0.61651 0.04102 0.8795 0.0
H1257 H 0.65599 1.00135 0.92295 0.0
H1258 H 0.60106 0.05412 0.91768 0.0
H1259 H 0.63945 1.01394 0.96147 0.0
H1260 H 0.57467 0.0232 1.00621 0.0
H1261 H 0.59277 1.00921 0.96968 0.0
H1262 H 0.62229 0.07921 0.96628 0.0
H1263 H 0.60498 0.09304 1.00345 0.0
C1264 C 0.62192 0.03499 0.89713 0.0
C1265 C 0.63765 0.02017 0.89807 0.0
C1266 C 0.613 0.04257 0.91908 0.0
C1267 C 0.61904 0.03503 0.94245 0.0
C1268 C 0.63454 0.01998 0.94358 0.0
C1269 C 0.64405 1.01289 0.92164 0.0
C1270 C 0.58502 0.03552 0.99756 0.0
C1271 C 0.58837 0.05918 1.00737 0.0
C1272 C 0.59551 0.02752 0.97691 0.0
C1273 C 0.60905 0.04314 0.96538 0.0
C1274 C 0.61206 0.06683 0.97499 0.0
C1275 C 0.60212 0.07474 0.9961 0.0
H1276 H 0.36354 0.47194 0.24822 0.0
H1277 H 0.30349 0.45119 0.19381 0.0
H1278 H 0.35217 0.44025 0.27119 0.0
H1279 H 0.2922 0.41904 0.21639 0.0
H1280 H 0.31097 0.34675 0.23427 0.0
H1281 H 0.31268 0.38351 0.21719 0.0
H1282 H 0.32285 0.42074 0.29482 0.0
H1283 H 0.32096 0.38447 0.31156 0.0
C1284 C 0.34724 0.46149 0.24225 0.0
C1285 C 0.3342 0.46407 0.21963 0.0
C1286 C 0.34088 0.44311 0.25505 0.0
C1287 C 0.32155 0.427 0.2451 0.0
C1288 C 0.3073 0.43112 0.22415 0.0
C1289 C 0.31349 0.44979 0.21166 0.0
C1290 C 0.31349 0.36286 0.24745 0.0
C1291 C 0.31629 0.36304 0.27408 0.0
C1292 C 0.31421 0.38376 0.23782 0.0
C1293 C 0.31786 0.40485 0.25483 0.0
C1294 C 0.32011 0.40476 0.28139 0.0
C1295 C 0.31921 0.38405 0.2909 0.0
H1296 H 0.18044 0.94675 0.11316 0.0
H1297 H 0.20972 0.98854 0.06173 0.0
H1298 H 0.15484 0.97357 0.12082 0.0
H1299 H 0.18309 1.01447 0.06739 0.0
H1300 H 0.14324 0.06863 0.09442 0.0
H1301 H 0.17117 0.04365 0.09144 0.0
H1302 H 0.12423 0.98719 0.10726 0.0
H1303 H 0.09741 1.01258 0.11191 0.0
C1304 C 0.18102 0.96145 0.10304 0.0
C1305 C 0.19701 0.96549 0.08681 0.0
C1306 C 0.16623 0.97694 0.10728 0.0
C1307 C 0.16655 0.9966 0.09481 0.0
C1308 C 0.1824 1.00013 0.07803 0.0
C1309 C 0.19757 0.98503 0.07444 0.0
C1310 C 0.13931 0.05112 0.09824 0.0
C1311 C 0.11814 0.04275 0.10379 0.0
C1312 C 0.15517 0.03648 0.09592 0.0
C1313 C 0.15026 1.01297 0.09888 0.0
C1314 C 0.12921 1.00504 0.10523 0.0
C1315 C 0.11358 0.01967 0.10777 0.0
H1316 H 0.6834 0.64076 0.95987 0.0
H1317 H 0.72492 0.61632 0.01835 0.0
H1318 H 0.65046 0.62339 0.97634 0.0
H1319 H 0.69206 0.59981 0.03519 0.0
H1320 H 0.63235 0.63394 0.07364 0.0
H1321 H 0.6649 0.6355 0.05153 0.0
H1322 H 0.63085 0.57833 0.99422 0.0
H1323 H 0.59832 0.57604 0.01716 0.0
C1324 C 0.68542 0.63083 0.97546 0.0
C1325 C 0.70664 0.62986 0.98779 0.0
C1326 C 0.66664 0.62092 0.98484 0.0
C1327 C 0.66893 0.61035 1.00691 0.0
C1328 C 0.69001 0.60765 0.01792 0.0
C1329 C 0.70876 0.61703 1.00817 0.0
C1330 C 0.63193 0.62152 0.05652 0.0
C1331 C 0.61295 0.60497 0.04691 0.0
C1332 C 0.65052 0.62231 0.04404 0.0
C1333 C 0.65021 0.60693 0.02139 0.0
C1334 C 0.63136 0.59016 0.01183 0.0
C1335 C 0.61289 0.58892 0.02483 0.0
H1336 H 0.69716 0.47852 0.33646 0.0
H1337 H 0.76189 0.52023 0.34801 0.0
H1338 H 0.71368 0.44359 0.33189 0.0
H1339 H 0.77866 0.48552 0.34327 0.0
H1340 H 0.80946 0.41899 0.3445 0.0
H1341 H 0.79293 0.45383 0.34956 0.0
H1342 H 0.72901 0.41343 0.31708 0.0
H1343 H 0.74569 0.37865 0.31288 0.0
C1344 C 0.71502 0.48047 0.33804 0.0
C1345 C 0.72777 0.50306 0.34263 0.0
C1346 C 0.72481 0.45995 0.33521 0.0
C1347 C 0.74815 0.46041 0.33696 0.0
C1348 C 0.76082 0.48318 0.34177 0.0
C1349 C 0.751 0.50366 0.3444 0.0
C1350 C 0.79185 0.41736 0.33823 0.0
C1351 C 0.77937 0.39516 0.32795 0.0
C1352 C 0.78206 0.43786 0.34111 0.0
C1353 C 0.75899 0.43779 0.33383 0.0
C1354 C 0.74659 0.41542 0.32347 0.0
C1355 C 0.75639 0.39493 0.32075 0.0
H1356 H 0.83 0.41949 0.55503 0.0
H1357 H 0.80403 0.4762 0.59383 0.0
H1358 H 0.8639 0.44565 0.55305 0.0
H1359 H 0.83823 0.50239 0.59169 0.0
H1360 H 0.91722 0.53046 0.60029 0.0
H1361 H 0.88235 0.50792 0.60756 0.0
H1362 H 0.86805 0.47966 0.52664 0.0
H1363 H 0.90226 0.50231 0.51922 0.0
C1364 C 0.83158 0.43745 0.56338 0.0
C1365 C 0.81421 0.44579 0.57427 0.0
C1366 C 0.85095 0.45241 0.56216 0.0
C1367 C 0.85341 0.47597 0.57194 0.0
C1368 C 0.83661 0.48425 0.58402 0.0
C1369 C 0.81706 0.46927 0.58507 0.0
C1370 C 0.90639 0.51974 0.58404 0.0
C1371 C 0.91264 0.5177 0.55928 0.0
C1372 C 0.88655 0.50687 0.58822 0.0
C1373 C 0.87294 0.49179 0.56771 0.0
C1374 C 0.87861 0.4908 0.54282 0.0
C1375 C 0.89819 0.50369 0.53863 0.0
H1376 H 0.44709 0.2209 0.32317 0.0
H1377 H 0.39236 0.16418 0.31314 0.0
H1378 H 0.42069 0.24758 0.31804 0.0
H1379 H 0.36625 0.19058 0.30822 0.0
H1380 H 0.32742 0.24928 0.33173 0.0
H1381 H 0.35282 0.2215 0.33402 0.0
H1382 H 0.3924 0.25718 0.28525 0.0
H1383 H 0.36769 0.2859 0.28442 0.0
C1384 C 0.4295 0.21411 0.31975 0.0
C1385 C 0.42192 0.19036 0.3184 0.0
C1386 C 0.41434 0.22936 0.31671 0.0
C1387 C 0.39127 0.22124 0.3127 0.0
C1388 C 0.38382 0.19751 0.31145 0.0
C1389 C 0.39888 0.18232 0.31408 0.0
C1390 C 0.34145 0.25099 0.32128 0.0
C1391 C 0.34558 0.26957 0.30773 0.0
C1392 C 0.35603 0.23511 0.32259 0.0
C1393 C 0.37501 0.23739 0.3102 0.0
C1394 C 0.37843 0.25543 0.29568 0.0
C1395 C 0.36407 0.27158 0.29478 0.0
H1396 H 0.31508 0.12989 0.55034 0.0
H1397 H 0.3468 0.14097 0.48389 0.0
H1398 H 0.34915 0.12113 0.57212 0.0
H1399 H 0.38041 0.13016 0.5044 0.0
H1400 H 0.44336 0.12461 0.55101 0.0
H1401 H 0.41097 0.14078 0.53588 0.0
H1402 H 0.36995 0.09234 0.57194 0.0
H1403 H 0.40268 0.07765 0.58834 0.0
C1404 C 0.32931 0.12979 0.54023 0.0
C1405 C 0.3285 0.13554 0.51542 0.0
C1406 C 0.3488 0.1248 0.55262 0.0
C1407 C 0.36756 0.12476 0.54001 0.0
C1408 C 0.36651 0.13048 0.51498 0.0
C1409 C 0.34722 0.13626 0.50299 0.0
C1410 C 0.4274 0.11806 0.55617 0.0
C1411 C 0.42517 0.10015 0.5708 0.0
C1412 C 0.40883 0.12699 0.54726 0.0
C1413 C 0.38773 0.11764 0.55232 0.0
C1414 C 0.38589 0.10025 0.56793 0.0
C1415 C 0.40454 0.0917 0.57725 0.0
H1416 H 0.69957 0.66146 0.36195 0.0
H1417 H 0.7539 0.62835 0.34219 0.0
H1418 H 0.71947 0.69822 0.35676 0.0
H1419 H 0.77439 0.6663 0.3367 0.0
H1420 H 0.81117 0.74638 0.34433 0.0
H1421 H 0.79469 0.70724 0.35101 0.0
H1422 H 0.72961 0.7221 0.32831 0.0
H1423 H 0.74578 0.7604 0.3222 0.0
C1424 C 0.71591 0.66172 0.35646 0.0
C1425 C 0.72449 0.64082 0.35254 0.0
C1426 C 0.72755 0.68343 0.35315 0.0
C1427 C 0.74889 0.6863 0.34559 0.0
C1428 C 0.75811 0.6656 0.34243 0.0
C1429 C 0.74621 0.64345 0.34567 0.0
C1430 C 0.79332 0.74137 0.3408 0.0
C1431 C 0.78012 0.75745 0.33267 0.0
C1432 C 0.78369 0.71853 0.34457 0.0
C1433 C 0.76032 0.71056 0.3407 0.0
C1434 C 0.74746 0.72677 0.33236 0.0
C1435 C 0.75697 0.74924 0.32854 0.0
H1436 H 0.91527 0.58678 0.81852 0.0
H1437 H 0.96939 0.55624 0.85115 0.0
H1438 H 0.88921 0.5522 0.82127 0.0
H1439 H 0.94336 0.52171 0.85344 0.0
H1440 H 0.89043 0.48219 0.88991 0.0
H1441 H 0.91455 0.51593 0.88184 0.0
H1442 H 0.87807 0.50902 0.80538 0.0
H1443 H 0.85374 0.47481 0.81347 0.0
C1444 C 0.92168 0.57261 0.82595 0.0
C1445 C 0.94443 0.57442 0.83503 0.0
C1446 C 0.90673 0.55279 0.82737 0.0
C1447 C 0.91426 0.5345 0.83796 0.0
C1448 C 0.93708 0.53581 0.84568 0.0
C1449 C 0.95201 0.55554 0.84425 0.0
C1450 C 0.8876 0.48775 0.87131 0.0
C1451 C 0.87048 0.47563 0.85216 0.0
C1452 C 0.90142 0.50705 0.86668 0.0
C1453 C 0.89847 0.51474 0.84279 0.0
C1454 C 0.88074 0.50333 0.82393 0.0
C1455 C 0.86683 0.48385 0.82857 0.0
H1456 H 0.05334 0.89237 0.24617 0.0
H1457 H 0.05247 0.84089 0.1799 0.0
H1458 H 0.05076 0.92155 0.21754 0.0
H1459 H 0.04955 0.86961 0.15176 0.0
H1460 H 1.013 0.91919 0.10975 0.0
H1461 H 1.01879 0.892 0.13961 0.0
H1462 H 0.07296 0.94141 0.18466 0.0
H1463 H 0.06721 0.96873 0.15462 0.0
C1464 C 0.05283 0.88734 0.22565 0.0
C1465 C 0.05309 0.86432 0.21538 0.0
C1466 C 0.05137 0.904 0.20928 0.0
C1467 C 0.04973 0.89777 0.18239 0.0
C1468 C 0.05053 0.87488 0.17233 0.0
C1469 C 0.05234 0.85845 0.18858 0.0
C1470 C 1.02612 0.92428 0.12603 0.0
C1471 C 0.03961 0.9461 0.12983 0.0
C1472 C 1.02951 0.90868 0.14307 0.0
C1473 C 0.04629 0.91462 0.16453 0.0
C1474 C 0.05979 0.93646 0.16841 0.0
C1475 C 0.05662 0.95197 0.1511 0.0
H1476 H 0.99604 0.38477 0.89723 0.0
H1477 H 0.99593 0.31348 0.86868 0.0
H1478 H 0.95714 0.38044 0.88039 0.0
H1479 H 0.95615 0.30854 0.85219 0.0
H1480 H 0.88304 0.30793 0.81428 0.0
H1481 H 0.92321 0.31118 0.82711 0.0
H1482 H 0.92193 0.36952 0.8849 0.0
H1483 H 0.88252 0.36685 0.87097 0.0
C1484 C 0.9878 0.36813 0.8867 0.0
C1485 C 0.99983 0.34976 0.88389 0.0
C1486 C 0.96492 0.36539 0.87741 0.0
C1487 C 0.95235 0.34388 0.86508 0.0
C1488 C 0.9646 0.32553 0.86133 0.0
C1489 C 0.98778 0.32839 0.8706 0.0
C1490 C 0.8914 0.32146 0.82973 0.0
C1491 C 0.87917 0.33721 0.84134 0.0
C1492 C 0.91472 0.32336 0.83728 0.0
C1493 C 0.9269 0.34097 0.85702 0.0
C1494 C 0.9142 0.35615 0.86905 0.0
C1495 C 0.89113 0.35447 0.86122 0.0
H1496 H 0.58561 0.24591 0.7172 0.0
H1497 H 0.51485 0.23926 0.69734 0.0
H1498 H 0.58475 0.20858 0.69123 0.0
H1499 H 0.51383 0.20142 0.67121 0.0
H1500 H 0.52362 0.12564 0.64068 0.0
H1501 H 0.52178 0.16014 0.6709 0.0
H1502 H 0.57755 0.19726 0.64337 0.0
H1503 H 0.57939 0.16294 0.61323 0.0
C1504 C 0.56971 0.23593 0.7081 0.0
C1505 C 0.55025 0.24526 0.70968 0.0
C1506 C 0.56926 0.21474 0.69285 0.0
C1507 C 0.54929 0.20222 0.67876 0.0
C1508 C 0.52948 0.21066 0.68187 0.0
C1509 C 0.52998 0.23215 0.69708 0.0
C1510 C 0.53543 0.14121 0.64102 0.0
C1511 C 0.55169 0.14152 0.62457 0.0
C1512 C 0.5343 0.16097 0.65828 0.0
C1513 C 0.54963 0.18136 0.65974 0.0
C1514 C 0.5657 0.18172 0.64302 0.0
C1515 C 0.56665 0.16209 0.62559 0.0
H1516 H 0.62099 0.83053 0.34766 0.0
H1517 H 0.65029 0.86356 0.42425 0.0
H1518 H 0.65798 0.82788 0.33652 0.0
H1519 H 0.68713 0.86166 0.41316 0.0
H1520 H 0.75317 0.84153 0.39449 0.0
H1521 H 0.71609 0.84312 0.40561 0.0
H1522 H 0.69146 0.84308 0.3257 0.0
H1523 H 0.72839 0.84093 0.31476 0.0
C1524 C 0.63527 0.83734 0.3622 0.0
C1525 C 0.63212 0.84725 0.38698 0.0
C1526 C 0.65682 0.836 0.35574 0.0
C1527 C 0.67641 0.84453 0.37371 0.0
C1528 C 0.67307 0.85441 0.39851 0.0
C1529 C 0.65159 0.8557 0.40494 0.0
C1530 C 0.73989 0.84195 0.37924 0.0
C1531 C 0.74432 0.84127 0.35363 0.0
C1532 C 0.7183 0.84299 0.38566 0.0
C1533 C 0.69992 0.84332 0.36678 0.0
C1534 C 0.70451 0.84259 0.34114 0.0
C1535 C 0.72608 0.84161 0.33477 0.0
H1536 H 0.1108 0.32536 0.57517 0.0
H1537 H 0.08651 0.3163 0.4937 0.0
H1538 H 0.0909 0.2873 0.57736 0.0
H1539 H 0.06599 0.27818 0.49603 0.0
H1540 H 0.05471 0.20139 0.51449 0.0
H1541 H 0.07021 0.23899 0.50475 0.0
H1542 H 0.05154 0.27201 0.57466 0.0
H1543 H 0.03766 0.23474 0.5854 0.0
C1544 C 0.10149 0.31501 0.55766 0.0
C1545 C 0.10014 0.32368 0.53433 0.0
C1546 C 0.08981 0.29341 0.55895 0.0
C1547 C 0.07635 0.2802 0.53701 0.0
C1548 C 0.07613 0.28816 0.51324 0.0
C1549 C 0.08803 0.30981 0.51189 0.0
C1550 C 0.05366 0.21673 0.52759 0.0
C1551 C 0.04558 0.21505 0.55109 0.0
C1552 C 0.06235 0.23822 0.52188 0.0
C1553 C 0.06274 0.25822 0.53946 0.0
C1554 C 0.05208 0.2567 0.56123 0.0
C1555 C 0.04375 0.2353 0.56714 0.0
H1556 H 0.5776 0.32068 0.17637 0.0
H1557 H 0.57834 0.24759 0.16233 0.0
H1558 H 0.60859 0.32596 0.21098 0.0
H1559 H 0.61013 0.25279 0.19656 0.0
H1560 H 0.65045 0.26382 0.27388 0.0
H1561 H 0.617 0.26231 0.24329 0.0
H1562 H 0.64759 0.32425 0.21801 0.0
H1563 H 0.68058 0.32595 0.24923 0.0
C1564 C 0.58504 0.30589 0.1802 0.0
C1565 C 0.57626 0.28385 0.16649 0.0
C1566 C 0.6026 0.30886 0.2001 0.0
C1567 C 0.61162 0.28978 0.20654 0.0
C1568 C 0.60316 0.26774 0.19225 0.0
C1569 C 0.58537 0.26476 0.17243 0.0
C1570 C 0.64944 0.27757 0.2625 0.0
C1571 C 0.66759 0.29516 0.26387 0.0
C1572 C 0.63061 0.27651 0.24472 0.0
C1573 C 0.62997 0.29288 0.22795 0.0
C1574 C 0.64761 0.31146 0.23077 0.0
C1575 C 0.66637 0.31258 0.24869 0.0
H1576 H 0.59248 0.91838 0.05497 0.0
H1577 H 0.65634 0.95628 0.04829 0.0
H1578 H 0.58351 0.95168 0.07947 0.0
H1579 H 0.64774 0.9904 0.07421 0.0
H1580 H 0.60019 0.04458 0.06836 0.0
H1581 H 0.62324 1.01564 0.06418 0.0
H1582 H 0.58831 0.97939 0.11678 0.0
H1583 H 0.56438 1.00855 0.11983 0.0
C1584 C 0.60509 0.93359 0.05989 0.0
C1585 C 0.62534 0.93463 0.05043 0.0
C1586 C 0.59998 0.95284 0.07415 0.0
C1587 C 0.61511 0.97367 0.07944 0.0
C1588 C 0.63579 0.97454 0.07059 0.0
C1589 C 0.64075 0.95515 0.05583 0.0
C1590 C 0.59819 0.0312 0.08007 0.0
C1591 C 0.58067 0.02878 0.09443 0.0
C1592 C 0.61151 1.01446 0.07775 0.0
C1593 C 0.60732 0.99489 0.08972 0.0
C1594 C 0.5916 0.99408 0.10688 0.0
C1595 C 0.57805 1.01079 0.10887 0.0
H1596 H 0.97932 0.75464 0.72006 0.0
H1597 H 0.95532 0.81073 0.68757 0.0
H1598 H 0.96671 0.76766 0.76078 0.0
H1599 H 0.9432 0.82385 0.72826 0.0
H1600 H 0.95343 0.85659 0.81288 0.0
H1601 H 0.96689 0.84039 0.7744 0.0
H1602 H 0.92915 0.77372 0.77715 0.0
H1603 H 0.91459 0.78988 0.81468 0.0
C1604 C 0.97091 0.76939 0.72146 0.0
C1605 C 0.96815 0.7816 0.7007 0.0
C1606 C 0.9639 0.77691 0.74473 0.0
C1607 C 0.95448 0.79697 0.74762 0.0
C1608 C 0.95081 0.80855 0.72652 0.0
C1609 C 0.95741 0.8008 0.70315 0.0
C1610 C 0.94764 0.83854 0.80532 0.0
C1611 C 0.93181 0.82491 0.81647 0.0
C1612 C 0.95557 0.82927 0.78334 0.0
C1613 C 0.94844 0.80603 0.77256 0.0
C1614 C 0.93455 0.79181 0.785 0.0
C1615 C 0.92627 0.80117 0.80665 0.0
H1616 H 0.19209 0.06306 0.9432 0.0
H1617 H 0.13813 0.0713 0.88756 0.0
H1618 H 0.16795 0.06486 0.97692 0.0
H1619 H 0.11408 0.07264 0.92057 0.0
H1620 H 0.07681 0.09374 0.98762 0.0
H1621 H 0.10131 0.09112 0.95498 0.0
H1622 H 0.13892 0.05053 0.99917 0.0
H1623 H 0.1141 0.05335 0.03202 0.0
C1624 C 0.17515 0.06535 0.93796 0.0
C1625 C 0.1676 0.06726 0.91205 0.0
C1626 C 0.16098 0.06621 0.95753 0.0
C1627 C 0.13844 0.06911 0.95239 0.0
C1628 C 0.13108 0.07091 0.92638 0.0
C1629 C 0.14514 0.07 0.90697 0.0
C1630 C 0.09009 0.08394 0.99039 0.0
C1631 C 0.09278 0.07352 0.01282 0.0
C1632 C 0.10443 0.08233 0.9713 0.0
C1633 C 0.12273 0.07045 0.97346 0.0
C1634 C 0.12545 0.06001 0.99607 0.0
C1635 C 0.11084 0.06138 0.01509 0.0
H1636 H 0.72707 0.37716 0.6472 0.0
H1637 H 0.79031 0.4213 0.65345 0.0
H1638 H 0.73964 0.36333 0.68713 0.0
H1639 H 0.80315 0.40726 0.69314 0.0
H1640 H 0.82596 0.35189 0.7411 0.0
H1641 H 0.81224 0.3684 0.70317 0.0
H1642 H 0.75204 0.37578 0.73471 0.0
H1643 H 0.76595 0.35994 0.77245 0.0
C1644 C 0.7433 0.38466 0.65777 0.0
C1645 C 0.75739 0.40093 0.6477 0.0
C1646 C 0.75067 0.37649 0.68043 0.0
C1647 C 0.77255 0.38393 0.69319 0.0
C1648 C 0.78632 0.40094 0.68367 0.0
C1649 C 0.77879 0.40939 0.66127 0.0
C1650 C 0.80978 0.35693 0.73973 0.0
C1651 C 0.79704 0.35468 0.75974 0.0
C1652 C 0.80197 0.36657 0.71818 0.0
C1653 C 0.78105 0.3736 0.71596 0.0
C1654 C 0.76816 0.37059 0.7357 0.0
C1655 C 0.77616 0.36154 0.75737 0.0
H1656 H 0.45363 0.14182 0.41909 0.0
H1657 H 0.51537 0.1409 0.38893 0.0
H1658 H 0.46978 0.12872 0.45821 0.0
H1659 H 0.53117 0.12764 0.42738 0.0
H1660 H 0.54112 0.07583 0.48411 0.0
H1661 H 0.52595 0.09188 0.44693 0.0
H1662 H 0.50001 0.14094 0.49759 0.0
H1663 H 0.51587 0.12511 0.53495 0.0
C1664 C 0.47064 0.13903 0.42083 0.0
C1665 C 0.4831 0.14244 0.40069 0.0
C1666 C 0.47994 0.13154 0.44328 0.0
C1667 C 0.50181 0.12696 0.44601 0.0
C1668 C 0.51423 0.13067 0.42596 0.0
C1669 C 0.50511 0.13839 0.40383 0.0
C1670 C 0.53249 0.09029 0.48731 0.0
C1671 C 0.52997 0.0994 0.51246 0.0
C1672 C 0.52374 0.09951 0.466 0.0
C1673 C 0.51163 0.11772 0.46912 0.0
C1674 C 0.50911 0.12686 0.49438 0.0
C1675 C 0.51841 0.11799 0.51582 0.0
H1676 H 0.75291 0.70735 0.08021 0.0
H1677 H 0.81329 0.68225 0.06719 0.0
H1678 H 0.77261 0.73281 0.11877 0.0
H1679 H 0.83326 0.70825 0.10583 0.0
H1680 H 0.84145 0.74965 0.19618 0.0
H1681 H 0.83206 0.71996 0.15788 0.0
H1682 H 0.80381 0.7681 0.11528 0.0
H1683 H 0.81183 0.79712 0.15326 0.0
C1684 C 0.77024 0.7068 0.08613 0.0
C1685 C 0.78172 0.69318 0.07081 0.0
C1686 C 0.78155 0.72148 0.1079 0.0
C1687 C 0.8045 0.72289 0.11443 0.0
C1688 C 0.81559 0.70752 0.10077 0.0
C1689 C 0.80415 0.69258 0.07895 0.0
C1690 C 0.83383 0.75407 0.17839 0.0
C1691 C 0.82658 0.7754 0.17802 0.0
C1692 C 0.8286 0.73714 0.15656 0.0
C1693 C 0.81653 0.74173 0.13426 0.0
C1694 C 0.81267 0.76417 0.13267 0.0
C1695 C 0.81758 0.78091 0.15443 0.0
H1696 H 0.12662 0.04952 0.78303 0.0
H1697 H 0.19034 0.06718 0.75878 0.0
H1698 H 0.10816 0.05089 0.7402 0.0
H1699 H 0.17152 0.06794 0.71491 0.0
H1700 H 0.12263 0.04787 0.63289 0.0
H1701 H 0.14432 0.04383 0.6738 0.0
H1702 H 0.10372 0.08377 0.71556 0.0
H1703 H 0.08247 0.08816 0.67503 0.0
C1704 C 0.13683 0.05309 0.76833 0.0
C1705 C 0.16016 0.05811 0.77476 0.0
C1706 C 0.12611 0.05414 0.74363 0.0
C1707 C 0.13814 0.05995 0.72388 0.0
C1708 C 0.16157 0.06343 0.72954 0.0
C1709 C 0.17245 0.06272 0.7547 0.0
C1710 C 0.11833 0.05585 0.65079 0.0
C1711 C 0.10054 0.06827 0.65033 0.0
C1712 C 0.13093 0.05363 0.67434 0.0
C1713 C 0.12587 0.06332 0.69829 0.0
C1714 C 0.10813 0.0758 0.69771 0.0
C1715 C 0.09588 0.07839 0.67429 0.0
H1716 H 0.74878 0.42899 0.48986 0.0
H1717 H 0.75288 0.36854 0.52587 0.0
H1718 H 0.76226 0.41034 0.45202 0.0
H1719 H 0.76623 0.35007 0.48848 0.0
H1720 H 0.81204 0.33242 0.42954 0.0
H1721 H 0.79795 0.3513 0.46652 0.0
H1722 H 0.753 0.37932 0.41522 0.0
H1723 H 0.76725 0.36056 0.37829 0.0
C1724 C 0.75241 0.41171 0.4897 0.0
C1725 C 0.74968 0.40037 0.51108 0.0
C1726 C 0.76012 0.40093 0.46793 0.0
C1727 C 0.76554 0.37859 0.46702 0.0
C1728 C 0.76265 0.36734 0.48842 0.0
C1729 C 0.75479 0.37797 0.50995 0.0
C1730 C 0.79896 0.34236 0.42611 0.0
C1731 C 0.7907 0.34467 0.4008 0.0
C1732 C 0.79081 0.35325 0.44738 0.0
C1733 C 0.77421 0.36696 0.4441 0.0
C1734 C 0.76589 0.36917 0.41872 0.0
C1735 C 0.77392 0.35813 0.39743 0.0
H1736 H 0.47311 0.15171 0.24864 0.0
H1737 H 0.51614 0.10727 0.27823 0.0
H1738 H 0.48563 0.14362 0.20613 0.0
H1739 H 0.52806 0.09958 0.23718 0.0
H1740 H 0.56659 0.1091 0.17363 0.0
H1741 H 0.55161 0.12206 0.21231 0.0
H1742 H 0.48585 0.1097 0.16893 0.0
H1743 H 0.50096 0.09701 0.12974 0.0
C1744 C 0.48511 0.14037 0.24625 0.0
C1745 C 0.49402 0.1308 0.26731 0.0
C1746 C 0.49226 0.1357 0.22195 0.0
C1747 C 0.50837 0.12145 0.21849 0.0
C1748 C 0.5163 0.11126 0.23926 0.0
C1749 C 0.5093 0.11579 0.26303 0.0
C1750 C 0.54895 0.10919 0.17217 0.0
C1751 C 0.53497 0.10156 0.14858 0.0
C1752 C 0.54032 0.11668 0.1944 0.0
C1753 C 0.51745 0.11673 0.1938 0.0
C1754 C 0.50352 0.10997 0.17005 0.0
C1755 C 0.51218 0.10241 0.14768 0.0
H1756 H 0.75477 0.67463 0.9134 0.0
H1757 H 0.80818 0.71124 0.9717 0.0
H1758 H 0.75947 0.70697 0.88888 0.0
H1759 H 0.81267 0.7434 0.94789 0.0
H1760 H 0.82518 0.7896 0.88724 0.0
H1761 H 0.82334 0.75543 0.90822 0.0
H1762 H 0.75189 0.74735 0.89792 0.0
H1763 H 0.75366 0.78136 0.87665 0.0
C1764 C 0.76788 0.68928 0.92045 0.0
C1765 C 0.78123 0.69062 0.94411 0.0
C1766 C 0.77038 0.70784 0.90676 0.0
C1767 C 0.7863 0.72773 0.91669 0.0
C1768 C 0.80043 0.72826 0.93966 0.0
C1769 C 0.79787 0.70988 0.95325 0.0
C1770 C 0.80911 0.78081 0.88999 0.0
C1771 C 0.78958 0.78816 0.88042 0.0
C1772 C 0.80805 0.76115 0.90175 0.0
C1773 C 0.78744 0.74854 0.90421 0.0
C1774 C 0.76796 0.75647 0.89569 0.0
C1775 C 0.76901 0.77619 0.884 0.0
H1776 H 0.9015 0.15741 0.06825 0.0
H1777 H 0.95341 0.217 0.08402 0.0
H1778 H 0.9286 0.13236 0.06238 0.0
H1779 H 0.98097 0.19204 0.08019 0.0
H1780 H 1.02779 0.14626 0.05393 0.0
H1781 H 0.99946 0.17012 0.0567 0.0
H1782 H 0.95508 0.11297 0.07539 0.0
H1783 H 0.98329 0.08875 0.07065 0.0
C1784 C 0.91884 0.16519 0.07101 0.0
C1785 C 0.92517 0.18935 0.07673 0.0
C1786 C 0.93462 0.15068 0.06775 0.0
C1787 C 0.95748 0.15969 0.07059 0.0
C1788 C 0.96374 0.18398 0.077 0.0
C1789 C 0.94786 0.19851 0.07965 0.0
C1790 C 1.01174 0.13861 0.05795 0.0
C1791 C 1.00777 0.11538 0.06152 0.0
C1792 C 0.99542 0.15255 0.06012 0.0
C1793 C 0.97457 0.14405 0.06675 0.0
C1794 C 0.97051 0.1205 0.06985 0.0
C1795 C 0.98676 0.10637 0.06704 0.0
H1796 H 0.43621 0.50777 0.18419 0.0
H1797 H 0.39776 0.54389 0.13478 0.0
H1798 H 0.47004 0.52545 0.17016 0.0
H1799 H 0.43187 0.56166 0.12066 0.0
H1800 H 0.51033 0.59032 0.11525 0.0
H1801 H 0.47882 0.58558 0.13962 0.0
H1802 H 0.46951 0.51185 0.11635 0.0
H1803 H 0.50003 0.51659 0.09135 0.0
C1804 C 0.43518 0.52038 0.17129 0.0
C1805 C 0.41454 0.52444 0.1604 0.0
C1806 C 0.45447 0.53043 0.16327 0.0
C1807 C 0.45335 0.54467 0.14429 0.0
C1808 C 0.43302 0.55088 0.13555 0.0
C1809 C 0.41359 0.54081 0.14367 0.0
C1810 C 0.50141 0.5732 0.11534 0.0
C1811 C 0.50733 0.55383 0.10133 0.0
C1812 C 0.48352 0.57053 0.1292 0.0
C1813 C 0.47205 0.54839 0.12984 0.0
C1814 C 0.47827 0.52908 0.11615 0.0
C1815 C 0.4956 0.53179 0.1018 0.0
H1816 H 0.4231 0.67852 0.83386 0.0
H1817 H 0.35947 0.63802 0.80211 0.0
H1818 H 0.4066 0.71327 0.83855 0.0
H1819 H 0.34265 0.67264 0.80639 0.0
H1820 H 0.31081 0.73843 0.81816 0.0
H1821 H 0.32723 0.70359 0.81361 0.0
H1822 H 0.39198 0.74485 0.83995 0.0
H1823 H 0.37522 0.77942 0.84456 0.0
C1824 C 0.40548 0.67683 0.8276 0.0
C1825 C 0.39309 0.65458 0.81734 0.0
C1826 C 0.39565 0.69731 0.83034 0.0
C1827 C 0.37256 0.69725 0.82304 0.0
C1828 C 0.36025 0.6748 0.81266 0.0
C1829 C 0.37012 0.65432 0.80997 0.0
C1830 C 0.32859 0.74023 0.82322 0.0
C1831 C 0.34123 0.7626 0.83207 0.0
C1832 C 0.33838 0.71971 0.82044 0.0
C1833 C 0.36166 0.71992 0.82622 0.0
C1834 C 0.3742 0.74252 0.83512 0.0
C1835 C 0.36438 0.763 0.8379 0.0
H1836 H 0.28987 0.7345 0.57697 0.0
H1837 H 0.3185 0.67685 0.5453 0.0
H1838 H 0.25657 0.70801 0.58094 0.0
H1839 H 0.28471 0.65037 0.54886 0.0
H1840 H 0.20183 0.62645 0.5415 0.0
H1841 H 0.23599 0.64803 0.53118 0.0
H1842 H 0.25846 0.67178 0.61214 0.0
H1843 H 0.22514 0.64965 0.62267 0.0
C1844 C 0.2888 0.71627 0.57018 0.0
C1845 C 0.30671 0.70772 0.56078 0.0
C1846 C 0.26984 0.70116 0.57258 0.0
C1847 C 0.26831 0.67734 0.56517 0.0
C1848 C 0.28564 0.66875 0.55452 0.0
C1849 C 0.30487 0.68386 0.55257 0.0
C1850 C 0.21431 0.63582 0.55709 0.0
C1851 C 0.21061 0.63678 0.58288 0.0
C1852 C 0.23372 0.64816 0.55116 0.0
C1853 C 0.24943 0.66167 0.57093 0.0
C1854 C 0.24631 0.66164 0.59665 0.0
C1855 C 0.22719 0.64914 0.60259 0.0
H1856 H 0.72024 0.97697 0.81591 0.0
H1857 H 0.66864 0.93536 0.8455 0.0
H1858 H 0.74432 0.94872 0.82191 0.0
H1859 H 0.693 0.90759 0.85294 0.0
H1860 H 0.7338 0.85021 0.84095 0.0
H1861 H 0.70958 0.87849 0.83654 0.0
H1862 H 0.76707 0.93266 0.84935 0.0
H1863 H 0.79111 0.90364 0.85199 0.0
C1864 C 0.71396 0.96168 0.8236 0.0
C1865 C 0.69228 0.95835 0.82979 0.0
C1866 C 0.72798 0.94552 0.82748 0.0
C1867 C 0.72096 0.9256 0.83814 0.0
C1868 C 0.69915 0.9223 0.84424 0.0
C1869 C 0.68503 0.93832 0.83997 0.0
C1870 C 0.74115 0.86821 0.84305 0.0
C1871 C 0.76428 0.87465 0.84691 0.0
C1872 C 0.72725 0.88462 0.84073 0.0
C1873 C 0.73606 0.90822 0.84238 0.0
C1874 C 0.7594 0.91476 0.84743 0.0
C1875 C 0.77332 0.89817 0.84958 0.0
H1876 H 0.78136 0.99661 0.6128 0.0
H1877 H 0.79422 0.04784 0.68146 0.0
H1878 H 0.74943 1.01221 0.59718 0.0
H1879 H 0.76072 0.06273 0.66656 0.0
H1880 H 0.71379 0.09814 0.61766 0.0
H1881 H 0.74638 0.0835 0.63483 0.0
H1882 H 0.71326 1.0138 0.60416 0.0
H1883 H 0.68154 0.02858 0.58542 0.0
C1884 C 0.77689 1.01084 0.62498 0.0
C1885 C 0.78993 0.02079 0.64861 0.0
C1886 C 0.7585 0.01976 0.61601 0.0
C1887 C 0.75226 0.03846 0.6308 0.0
C1888 C 0.76522 0.04839 0.65463 0.0
C1889 C 0.78417 0.03978 0.66334 0.0
C1890 C 0.71369 0.07973 0.61426 0.0
C1891 C 0.69522 0.06449 0.60008 0.0
C1892 C 0.73219 0.07132 0.62448 0.0
C1893 C 0.73242 0.0475 0.62091 0.0
C1894 C 0.71379 0.03229 0.60696 0.0
C1895 C 0.69547 0.04071 0.59646 0.0
H1896 H 0.36612 0.52887 0.83072 0.0
H1897 H 0.41924 0.49763 0.80401 0.0
H1898 H 0.34592 0.49007 0.83354 0.0
H1899 H 0.39949 0.45978 0.80628 0.0
H1900 H 0.37459 0.39408 0.83589 0.0
H1901 H 0.39052 0.43292 0.83145 0.0
H1902 H 0.32522 0.45032 0.81905 0.0
H1903 H 0.30905 0.41061 0.82403 0.0
C1904 C 0.37345 0.51393 0.82486 0.0
C1905 C 0.39477 0.51725 0.81699 0.0
C1906 C 0.36178 0.49129 0.82666 0.0
C1907 C 0.3708 0.47072 0.82084 0.0
C1908 C 0.39163 0.47434 0.81199 0.0
C1909 C 0.40312 0.49661 0.81029 0.0
C1910 C 0.36331 0.40592 0.83213 0.0
C1911 C 0.34019 0.39822 0.83034 0.0
C1912 C 0.37266 0.42874 0.82928 0.0
C1913 C 0.35965 0.44587 0.82437 0.0
C1914 C 0.33635 0.43835 0.82279 0.0
C1915 C 0.32688 0.41516 0.82554 0.0
H1916 H 0.20858 0.57392 0.36576 0.0
H1917 H 0.15719 0.60086 0.32242 0.0
H1918 H 0.23595 0.60704 0.36042 0.0
H1919 H 0.18462 0.63334 0.31644 0.0
H1920 H 0.24917 0.65949 0.28066 0.0
H1921 H 0.22521 0.62693 0.29194 0.0
H1922 H 0.23573 0.65983 0.37116 0.0
H1923 H 0.25882 0.69328 0.3599 0.0
C1924 C 0.20313 0.58708 0.35543 0.0
C1925 C 0.18077 0.58506 0.34471 0.0
C1926 C 0.21873 0.6059 0.3524 0.0
C1927 C 0.21222 0.62253 0.33804 0.0
C1928 C 0.18987 0.62069 0.3277 0.0
C1929 C 0.17422 0.60225 0.33126 0.0
C1930 C 0.24636 0.65998 0.30049 0.0
C1931 C 0.25562 0.67932 0.31922 0.0
C1932 C 0.23282 0.64122 0.30692 0.0
C1933 C 0.22866 0.64113 0.3323 0.0
C1934 C 0.23885 0.65965 0.35145 0.0
C1935 C 0.25214 0.67869 0.34495 0.0
H1936 H 0.56739 0.77452 0.42481 0.0
H1937 H 0.58796 0.82328 0.49508 0.0
H1938 H 0.57421 0.74295 0.44896 0.0
H1939 H 0.59386 0.79239 0.51892 0.0
H1940 H 0.62095 0.73677 0.5536 0.0
H1941 H 0.61764 0.76535 0.52531 0.0
H1942 H 0.55786 0.72295 0.4824 0.0
H1943 H 0.5618 0.69362 0.51018 0.0
C1944 C 0.57377 0.77851 0.44518 0.0
C1945 C 0.5772 0.80132 0.45804 0.0
C1946 C 0.57735 0.76049 0.45909 0.0
C1947 C 0.58459 0.76514 0.48591 0.0
C1948 C 0.58868 0.78811 0.4983 0.0
C1949 C 0.58517 0.80587 0.48458 0.0
C1950 C 0.60726 0.73334 0.53793 0.0
C1951 C 0.5917 0.71286 0.53415 0.0
C1952 C 0.60524 0.74984 0.5218 0.0
C1953 C 0.58748 0.74647 0.50152 0.0
C1954 C 0.5719 0.72595 0.4976 0.0
C1955 C 0.57397 0.70932 0.51377 0.0
H1956 H 0.61714 0.28679 0.78284 0.0
H1957 H 0.63385 0.35867 0.77739 0.0
H1958 H 0.65573 0.28626 0.79949 0.0
H1959 H 0.67209 0.3589 0.79521 0.0
H1960 H 0.74533 0.35233 0.80678 0.0
H1961 H 0.70641 0.35299 0.79284 0.0
H1962 H 0.68826 0.29097 0.82518 0.0
H1963 H 0.72738 0.28986 0.83756 0.0
C1964 C 0.62883 0.30285 0.78637 0.0
C1965 C 0.62175 0.323 0.77955 0.0
C1966 C 0.65142 0.30259 0.79581 0.0
C1967 C 0.66816 0.32252 0.79895 0.0
C1968 C 0.66064 0.34283 0.79292 0.0
C1969 C 0.6382 0.34294 0.78316 0.0
C1970 C 0.73307 0.33879 0.81092 0.0
C1971 C 0.74003 0.32106 0.82345 0.0
C1972 C 0.71028 0.33922 0.80305 0.0
C1973 C 0.69306 0.3221 0.80767 0.0
C1974 C 0.70023 0.3045 0.82057 0.0
C1975 C 0.72304 0.30395 0.82809 0.0
H1976 H 0.07322 0.4325 0.91392 0.0
H1977 H 0.06737 0.39617 0.97877 0.0
H1978 H 0.06841 0.46802 0.94086 0.0
H1979 H 0.06318 0.43108 1.00534 0.0
H1980 H 0.03637 0.49129 0.04272 0.0
H1981 H 0.03797 0.45692 0.0125 0.0
H1982 H 0.08717 0.49655 0.97721 0.0
H1983 H 0.08516 0.53094 1.00693 0.0
C1984 C 0.0709 0.43207 0.93379 0.0
C1985 C 0.0705 0.41143 0.94403 0.0
C1986 C 0.06824 0.45239 0.9493 0.0
C1987 C 0.06515 0.45242 0.9753 0.0
C1988 C 0.06492 0.43173 0.98534 0.0
C1989 C 0.0675 0.41163 0.96999 0.0
C1990 C 0.0475 0.49268 0.02851 0.0
C1991 C 0.06079 0.51387 0.02751 0.0
C1992 C 0.04848 0.47295 0.01116 0.0
C1993 C 0.06282 0.47385 0.9924 0.0
C1994 C 0.07575 0.49518 0.99111 0.0
C1995 C 0.07473 0.5149 1.00839 0.0
H1996 H 0.97051 0.79942 0.23503 0.0
H1997 H 0.99979 0.81759 0.31461 0.0
H1998 H 0.93398 0.80053 0.24695 0.0
H1999 H 0.96334 0.82015 0.32689 0.0
H2000 H 0.89322 0.8135 0.3483 0.0
H2001 H 0.92965 0.81067 0.33661 0.0
H2002 H 0.90465 0.81422 0.25757 0.0
H2003 H 0.8681 0.81605 0.26948 0.0
C2004 C 0.96922 0.80372 0.25526 0.0
C2005 C 0.98857 0.80812 0.27372 0.0
C2006 C 0.94789 0.80468 0.26229 0.0
C2007 C 0.94459 0.81061 0.28824 0.0
C2008 C 0.96417 0.81508 0.30672 0.0
C2009 C 0.98552 0.81368 0.29966 0.0
C2010 C 0.89538 0.8134 0.32831 0.0
C2011 C 0.87716 0.81478 0.30996 0.0
C2012 C 0.91674 0.81203 0.32144 0.0
C2013 C 0.92121 0.81209 0.29578 0.0
C2014 C 0.90277 0.8136 0.27747 0.0
C2015 C 0.88138 0.81484 0.28437 0.0
H2016 H 0.50866 0.36304 0.1617 0.0
H2017 H 0.55806 0.32597 0.13431 0.0
H2018 H 0.52941 0.39877 0.15256 0.0
H2019 H 0.57972 0.36131 0.12721 0.0
H2020 H 0.5855 0.41854 0.07598 0.0
H2021 H 0.57482 0.38457 0.09525 0.0
H2022 H 0.56205 0.42767 0.1626 0.0
H2023 H 0.57214 0.46175 0.14264 0.0
C2024 C 0.52423 0.3627 0.15431 0.0
C2025 C 0.53173 0.34188 0.14835 0.0
C2026 C 0.53626 0.38308 0.1494 0.0
C2027 C 0.55624 0.38281 0.13914 0.0
C2028 C 0.56421 0.36202 0.13465 0.0
C2029 C 0.55182 0.34169 0.13876 0.0
C2030 C 0.58118 0.42076 0.09528 0.0
C2031 C 0.57932 0.44253 0.10778 0.0
C2032 C 0.57505 0.40132 0.10638 0.0
C2033 C 0.56722 0.40348 0.13028 0.0
C2034 C 0.56751 0.42552 0.14389 0.0
C2035 C 0.57343 0.44496 0.13263 0.0
H2036 H 0.05329 0.35284 0.48729 0.0
H2037 H 0.03948 0.42059 0.51293 0.0
H2038 H 1.0209 0.34523 0.45465 0.0
H2039 H 1.00585 0.41257 0.48081 0.0
H2040 H 0.96446 0.40287 0.40294 0.0
H2041 H 0.99729 0.40896 0.43498 0.0
H2042 H 0.98238 0.33784 0.44651 0.0
H2043 H 0.95082 0.33117 0.41272 0.0
C2044 C 0.04273 0.36581 0.4864 0.0
C2045 C 0.04858 0.38722 0.50258 0.0
C2046 C 1.02417 0.36145 0.46771 0.0
C2047 C 1.01087 0.37834 0.465 0.0
C2048 C 1.01606 0.39938 0.48219 0.0
C2049 C 0.03493 0.40385 0.50089 0.0
C2050 C 0.96861 0.3883 0.41162 0.0
C2051 C 0.95487 0.36657 0.40546 0.0
C2052 C 0.98713 0.39197 0.43048 0.0
C2053 C 0.99207 0.37409 0.44382 0.0
C2054 C 0.97903 0.35204 0.43666 0.0
C2055 C 0.96081 0.34824 0.41742 0.0
H2056 H 0.99158 0.7237 0.55495 0.0
H2057 H 0.97667 0.71031 0.62973 0.0
H2058 H 0.99816 0.68471 0.54481 0.0
H2059 H 0.98226 0.67077 0.61896 0.0
H2060 H 0.05193 0.64877 0.61932 0.0
H2061 H 1.0214 0.66933 0.62134 0.0
H2062 H 0.99731 0.6433 0.54083 0.0
H2063 H 1.02874 0.62253 0.53885 0.0
C2064 C 0.98851 0.71209 0.56871 0.0
C2065 C 0.98498 0.72045 0.59372 0.0
C2066 C 0.99208 0.68952 0.56275 0.0
C2067 C 0.99184 0.6751 0.58166 0.0
C2068 C 0.98335 0.68191 0.60441 0.0
C2069 C 0.9801 0.70461 0.61054 0.0
C2070 C 0.0401 0.64729 0.60202 0.0
C2071 C 0.0429 0.63457 0.57873 0.0
C2072 C 1.02219 0.65864 0.60332 0.0
C2073 C 1.00672 0.65781 0.58126 0.0
C2074 C 1.00895 0.64418 0.55814 0.0
C2075 C 1.02696 0.63254 0.55691 0.0
H2076 H 0.6785 0.8638 0.97424 0.0
H2077 H 0.61945 0.86439 0.92129 0.0
H2078 H 0.69623 0.84914 0.93797 0.0
H2079 H 0.63641 0.84895 0.88582 0.0
H2080 H 0.67492 0.83723 0.82237 0.0
H2081 H 0.66314 0.85748 0.85964 0.0
H2082 H 0.6941 0.81488 0.90817 0.0
H2083 H 0.70808 0.79637 0.87142 0.0
C2084 C 0.66938 0.86082 0.95492 0.0
C2085 C 0.64767 0.86524 0.95056 0.0
C2086 C 0.67942 0.85233 0.9342 0.0
C2087 C 0.66776 0.84797 0.90894 0.0
C2088 C 0.64612 0.85261 0.90483 0.0
C2089 C 0.63628 0.86128 0.92531 0.0
C2090 C 0.67954 0.83233 0.84097 0.0
C2091 C 0.69218 0.8148 0.84361 0.0
C2092 C 0.67255 0.84381 0.86238 0.0
C2093 C 0.6774 0.83758 0.88687 0.0
C2094 C 0.6902 0.82025 0.88965 0.0
C2095 C 0.69771 0.80917 0.86833 0.0
H2096 H 0.43516 0.58809 0.72296 0.0
H2097 H 0.49585 0.59842 0.77607 0.0
H2098 H 0.45722 0.5877 0.68672 0.0
H2099 H 0.51716 0.59731 0.7408 0.0
H2100 H 0.54952 0.56529 0.6744 0.0
H2101 H 0.52555 0.56927 0.70757 0.0
H2102 H 0.48721 0.60828 0.66214 0.0
H2103 H 0.51176 0.60454 0.62883 0.0
C2104 C 0.45305 0.59076 0.72724 0.0
C2105 C 0.46325 0.59328 0.75324 0.0
C2106 C 0.46589 0.59031 0.70621 0.0
C2107 C 0.48942 0.59191 0.71018 0.0
C2108 C 0.49933 0.59539 0.73616 0.0
C2109 C 0.48678 0.59623 0.75679 0.0
C2110 C 0.53622 0.57504 0.67142 0.0
C2111 C 0.53328 0.58489 0.64865 0.0
C2112 C 0.52221 0.57735 0.6907 0.0
C2113 C 0.50398 0.58927 0.68828 0.0
C2114 C 0.50076 0.5989 0.66525 0.0
C2115 C 0.51517 0.59696 0.64606 0.0
H2116 H 0.86377 0.28473 0.03499 0.0
H2117 H 0.86847 0.22318 0.98397 0.0
H2118 H 0.84667 0.3003 0.99902 0.0
H2119 H 0.85265 0.2393 0.94743 0.0
H2120 H 0.8074 0.26343 0.88743 0.0
H2121 H 0.82193 0.24791 0.92492 0.0
H2122 H 0.84995 0.31716 0.96316 0.0
H2123 H 0.83405 0.33255 0.92605 0.0
C2124 C 0.86138 0.27456 0.01598 0.0
C2125 C 0.8675 0.25261 0.01251 0.0
C2126 C 0.85167 0.28365 0.99511 0.0
C2127 C 0.84803 0.27126 0.96987 0.0
C2128 C 0.85456 0.24937 0.96642 0.0
C2129 C 0.86396 0.24013 0.98742 0.0
C2130 C 0.81629 0.27535 0.90409 0.0
C2131 C 0.8193 0.29926 0.90379 0.0
C2132 C 0.82501 0.26642 0.92559 0.0
C2133 C 0.83756 0.28106 0.94738 0.0
C2134 C 0.84017 0.30511 0.94719 0.0
C2135 C 0.83101 0.31406 0.92581 0.0
H2136 H 0.15713 0.52619 0.25327 0.0
H2137 H 0.08869 0.50517 0.26133 0.0
H2138 H 0.14555 0.53556 0.21067 0.0
H2139 H 0.077 0.51376 0.2187 0.0
H2140 H 0.06173 0.55807 0.15557 0.0
H2141 H 0.07223 0.54386 0.19594 0.0
H2142 H 0.13097 0.52545 0.1677 0.0
H2143 H 0.12101 0.54088 0.12844 0.0
C2144 C 0.13966 0.52269 0.24555 0.0
C2145 C 0.12392 0.51472 0.26078 0.0
C2146 C 0.13287 0.52824 0.22105 0.0
C2147 C 0.11014 0.52582 0.21093 0.0
C2148 C 0.09457 0.51653 0.22571 0.0
C2149 C 0.10134 0.51117 0.25014 0.0
C2150 C 0.07671 0.55068 0.15796 0.0
C2151 C 0.09055 0.55061 0.13879 0.0
C2152 C 0.08282 0.54245 0.18116 0.0
C2153 C 0.10274 0.53353 0.1856 0.0
C2154 C 0.1159 0.53266 0.1657 0.0
C2155 C 0.11004 0.54129 0.1429 0.0
H2156 H 0.87208 0.9625 0.58642 0.0
H2157 H 0.80858 0.98465 0.58255 0.0
H2158 H 0.85707 0.93115 0.55106 0.0
H2159 H 0.79285 0.95228 0.54871 0.0
H2160 H 0.77998 0.90002 0.4727 0.0
H2161 H 0.79049 0.93318 0.50662 0.0
H2162 H 0.83348 0.89579 0.54902 0.0
H2163 H 0.82507 0.86393 0.51407 0.0
C2164 C 0.8551 0.96098 0.5773 0.0
C2165 C 0.8415 0.97591 0.58661 0.0
C2166 C 0.84628 0.94275 0.55765 0.0
C2167 C 0.82353 0.93875 0.54782 0.0
C2168 C 0.81039 0.95486 0.55588 0.0
C2169 C 0.81943 0.97353 0.57501 0.0
C2170 C 0.79152 0.89883 0.48941 0.0
C2171 C 0.80244 0.87977 0.49009 0.0
C2172 C 0.79744 0.91779 0.50893 0.0
C2173 C 0.81371 0.91748 0.52981 0.0
C2174 C 0.82179 0.89696 0.53244 0.0
C2175 C 0.81644 0.87835 0.51261 0.0
H2176 H 0.42432 0.57563 0.90128 0.0
H2177 H 0.4814 0.61282 0.87651 0.0
H2178 H 0.44753 0.57218 0.94158 0.0
H2179 H 0.50416 0.61038 0.91708 0.0
H2180 H 0.52497 0.62243 1.01037 0.0
H2181 H 0.5012 0.6257 0.97063 0.0
H2182 H 0.48773 0.55171 0.95048 0.0
H2183 H 0.51236 0.54843 0.98955 0.0
C2184 C 0.44168 0.58338 0.90454 0.0
C2185 C 0.45086 0.59458 0.88551 0.0
C2186 C 0.45505 0.5813 0.92761 0.0
C2187 C 0.47781 0.59104 0.93274 0.0
C2188 C 0.48677 0.60271 0.91396 0.0
C2189 C 0.47365 0.6041 0.89063 0.0
C2190 C 0.51702 0.60683 0.99747 0.0
C2191 C 0.52079 0.58517 1.00333 0.0
C2192 C 0.50335 0.60872 0.97463 0.0
C2193 C 0.4923 0.58897 0.95731 0.0
C2194 C 0.49578 0.56729 0.96336 0.0
C2195 C 0.51005 0.56543 0.98575 0.0
H2196 H 0.90122 0.28166 0.1631 0.0
H2197 H 0.83731 0.2381 0.14167 0.0
H2198 H 0.88984 0.29781 0.20361 0.0
H2199 H 0.82567 0.25452 0.18164 0.0
H2200 H 0.80334 0.31476 0.2316 0.0
H2201 H 0.81767 0.29454 0.19567 0.0
H2202 H 0.87652 0.2902 0.24657 0.0
H2203 H 0.86194 0.31014 0.28282 0.0
C2204 C 0.88514 0.27471 0.16763 0.0
C2205 C 0.87048 0.25797 0.14951 0.0
C2206 C 0.87846 0.28421 0.19069 0.0
C2207 C 0.85668 0.27777 0.19583 0.0
C2208 C 0.84247 0.26011 0.17831 0.0
C2209 C 0.84932 0.2503 0.1556 0.0
C2210 C 0.81945 0.30975 0.23518 0.0
C2211 C 0.83152 0.31435 0.2602 0.0
C2212 C 0.82758 0.29788 0.21456 0.0
C2213 C 0.84823 0.29049 0.21814 0.0
C2214 C 0.86061 0.29563 0.24302 0.0
C2215 C 0.85227 0.30717 0.2638 0.0
H2216 H 0.12642 0.48821 0.40681 0.0
H2217 H 0.14663 0.55845 0.39578 0.0
H2218 H 0.10949 0.50185 0.44433 0.0
H2219 H 0.1294 0.57222 0.43273 0.0
H2220 H 0.11748 0.58909 0.51661 0.0
H2221 H 0.13417 0.57537 0.47936 0.0
H2222 H 0.07803 0.5203 0.45516 0.0
H2223 H 0.06133 0.53403 0.49259 0.0
C2224 C 0.12732 0.50657 0.41258 0.0
C2225 C 0.13796 0.52233 0.39866 0.0
C2226 C 0.11745 0.5144 0.43385 0.0
C2227 C 0.11802 0.53817 0.44159 0.0
C2228 C 0.12887 0.55385 0.42759 0.0
C2229 C 0.13869 0.54599 0.40636 0.0
C2230 C 0.1086 0.57414 0.50327 0.0
C2231 C 0.088 0.56275 0.50756 0.0
C2232 C 0.11815 0.5663 0.48181 0.0
C2233 C 0.10751 0.54668 0.4642 0.0
C2234 C 0.08682 0.53533 0.46842 0.0
C2235 C 0.07712 0.54336 0.48975 0.0
H2236 H 0.80515 0.95781 0.6963 0.0
H2237 H 0.87161 0.95109 0.72651 0.0
H2238 H 0.79023 0.92602 0.71782 0.0
H2239 H 0.85691 0.91972 0.74817 0.0
H2240 H 0.83153 0.84898 0.75507 0.0
H2241 H 0.83787 0.87918 0.72832 0.0
H2242 H 0.78877 0.91338 0.76168 0.0
H2243 H 0.78232 0.88307 0.788 0.0
C2244 C 0.81644 0.95025 0.70858 0.0
C2245 C 0.83944 0.95671 0.71001 0.0
C2246 C 0.80797 0.93186 0.72042 0.0
C2247 C 0.82252 0.91993 0.73364 0.0
C2248 C 0.84542 0.92812 0.73722 0.0
C2249 C 0.85381 0.94636 0.72542 0.0
C2250 C 0.82123 0.86221 0.75545 0.0
C2251 C 0.80653 0.86395 0.7734 0.0
C2252 C 0.82512 0.8797 0.74063 0.0
C2253 C 0.81425 0.89886 0.74369 0.0
C2254 C 0.79742 0.89886 0.75913 0.0
C2255 C 0.79362 0.88146 0.77398 0.0
H2256 H 0.72332 0.49786 0.60676 0.0
H2257 H 0.67106 0.44149 0.57172 0.0
H2258 H 0.69619 0.52321 0.61222 0.0
H2259 H 0.64388 0.46699 0.57613 0.0
H2260 H 0.5963 0.51032 0.60614 0.0
H2261 H 0.62451 0.48618 0.60391 0.0
H2262 H 0.67174 0.54469 0.59355 0.0
H2263 H 0.64328 0.56911 0.5967 0.0
C2264 C 0.70599 0.49082 0.60019 0.0
C2265 C 0.69944 0.46745 0.58902 0.0
C2266 C 0.69034 0.50552 0.6031 0.0
C2267 C 0.66755 0.49742 0.5948 0.0
C2268 C 0.66108 0.474 0.58341 0.0
C2269 C 0.67674 0.45926 0.5807 0.0
C2270 C 0.61283 0.51821 0.60391 0.0
C2271 C 0.61749 0.54181 0.60193 0.0
C2272 C 0.62906 0.50418 0.6022 0.0
C2273 C 0.65061 0.51311 0.59812 0.0
C2274 C 0.65552 0.537 0.59696 0.0
C2275 C 0.6392 0.55116 0.59892 0.0
H2276 H 0.2244 0.11978 0.51803 0.0
H2277 H 0.1851 0.15291 0.46592 0.0
H2278 H 0.19091 0.10235 0.53288 0.0
H2279 H 0.15147 0.13471 0.48001 0.0
H2280 H 0.1087 0.13677 0.54543 0.0
H2281 H 0.13923 0.14506 0.52112 0.0
H2282 H 0.15451 0.0768 0.5249 0.0
H2283 H 0.12368 0.06869 0.54943 0.0
C2284 C 0.20851 0.12258 0.509 0.0
C2285 C 0.20726 0.13794 0.49109 0.0
C2286 C 0.18932 0.11256 0.51751 0.0
C2287 C 0.16863 0.11756 0.50795 0.0
C2288 C 0.16728 0.13105 0.48815 0.0
C2289 C 0.18646 0.14134 0.47996 0.0
C2290 C 0.11856 0.12358 0.54084 0.0
C2291 C 0.11417 0.10223 0.54917 0.0
C2292 C 0.13583 0.12815 0.52672 0.0
C2293 C 0.14913 0.11147 0.52087 0.0
C2294 C 0.14451 0.08993 0.52909 0.0
C2295 C 0.12695 0.08527 0.543 0.0
H2296 H 0.26077 0.01918 0.84481 0.0
H2297 H 0.1965 0.97776 0.83986 0.0
H2298 H 0.27742 0.98436 0.84 0.0
H2299 H 0.21297 0.94274 0.83531 0.0
H2300 H 0.24439 0.8776 0.81373 0.0
H2301 H 0.22774 0.91248 0.818 0.0
H2302 H 0.29193 0.95298 0.84891 0.0
H2303 H 0.30842 0.91807 0.84393 0.0
C2304 C 0.24996 1.00266 0.84268 0.0
C2305 C 0.22688 1.00216 0.84274 0.0
C2306 C 0.25972 0.98215 0.84003 0.0
C2307 C 0.24713 0.95946 0.83706 0.0
C2308 C 0.22395 0.95908 0.83712 0.0
C2309 C 0.21423 0.97964 0.83995 0.0
C2310 C 0.25515 0.89391 0.82128 0.0
C2311 C 0.27819 0.89417 0.8281 0.0
C2312 C 0.24538 0.91443 0.82404 0.0
C2313 C 0.2579 0.93682 0.83395 0.0
C2314 C 0.28101 0.93693 0.84081 0.0
C2315 C 0.29076 0.91641 0.83799 0.0
H2316 H 0.29648 0.97898 0.07664 0.0
H2317 H 0.33415 0.9233 0.07722 0.0
H2318 H 0.33074 1.00669 0.08137 0.0
H2319 H 0.36827 0.95097 0.08148 0.0
H2320 H 0.42765 1.00444 0.10621 0.0
H2321 H 0.39201 0.98261 0.11128 0.0
H2322 H 0.35905 1.01608 0.05388 0.0
H2323 H 0.39465 0.03819 0.04926 0.0
C2324 C 0.31206 0.97264 0.07783 0.0
C2325 C 0.31263 0.94889 0.07631 0.0
C2326 C 0.33164 0.98853 0.0805 0.0
C2327 C 0.35214 0.98099 0.0819 0.0
C2328 C 0.35271 0.95732 0.08086 0.0
C2329 C 0.33316 0.94143 0.07807 0.0
C2330 C 0.41268 1.00741 0.09512 0.0
C2331 C 0.41378 0.02272 0.07717 0.0
C2332 C 0.39236 0.9949 0.09792 0.0
C2333 C 0.37286 0.99735 0.08263 0.0
C2334 C 0.37381 1.01393 0.06602 0.0
C2335 C 0.39415 0.02657 0.06336 0.0
H2336 H 0.8934 0.666 0.81709 0.0
H2337 H 0.94823 0.72195 0.82283 0.0
H2338 H 0.86737 0.69259 0.81221 0.0
H2339 H 0.922 0.74874 0.81773 0.0
H2340 H 0.8686 0.7871 0.78515 0.0
H2341 H 0.89267 0.75774 0.78535 0.0
H2342 H 0.85509 0.72457 0.83762 0.0
H2343 H 0.82985 0.75249 0.83536 0.0
C2344 C 0.89994 0.684 0.8171 0.0
C2345 C 0.92298 0.69178 0.82025 0.0
C2346 C 0.88495 0.6993 0.81448 0.0
C2347 C 0.89248 0.72287 0.8145 0.0
C2348 C 0.91556 0.73067 0.81733 0.0
C2349 C 0.93063 0.71535 0.8204 0.0
C2350 C 0.86536 0.7733 0.79633 0.0
C2351 C 0.84734 0.77195 0.81011 0.0
C2352 C 0.87934 0.75674 0.79681 0.0
C2353 C 0.87635 0.73923 0.81215 0.0
C2354 C 0.85799 0.73775 0.82557 0.0
C2355 C 0.84354 0.75377 0.82433 0.0
H2356 H 0.84145 0.66698 0.04263 0.0
H2357 H 0.81971 0.60025 0.99555 0.0
H2358 H 0.87217 0.65296 0.06483 0.0
H2359 H 0.85183 0.58663 0.01547 0.0
H2360 H 0.89923 0.55958 0.06733 0.0
H2361 H 0.86698 0.57432 0.05078 0.0
H2362 H 0.9057 0.64321 0.06376 0.0
H2363 H 0.93683 0.62897 0.08401 0.0
C2364 C 0.84369 0.64941 0.03665 0.0
C2365 C 0.82843 0.63459 0.01752 0.0
C2366 C 0.86139 0.64135 0.04922 0.0
C2367 C 0.86465 0.61854 0.04212 0.0
C2368 C 0.84961 0.60404 0.02217 0.0
C2369 C 0.83138 0.61187 1.01038 0.0
C2370 C 0.90069 0.57799 0.06757 0.0
C2371 C 0.92082 0.593 0.07688 0.0
C2372 C 0.88225 0.58643 0.05736 0.0
C2373 C 0.88369 0.60994 0.05522 0.0
C2374 C 0.90368 0.62503 0.06517 0.0
C2375 C 0.92183 0.61674 0.07636 0.0
H2376 H 0.25231 0.12706 0.83838 0.0
H2377 H 0.20207 0.16143 0.86808 0.0
H2378 H 0.27263 0.16496 0.83247 0.0
H2379 H 0.2218 0.19817 0.86241 0.0
H2380 H 0.24527 0.26088 0.82694 0.0
H2381 H 0.22935 0.22256 0.83334 0.0
H2382 H 0.29463 0.20536 0.84696 0.0
H2383 H 0.31081 0.24453 0.84009 0.0
C2384 C 0.24554 0.14243 0.84402 0.0
C2385 C 0.22497 0.1402 0.85377 0.0
C2386 C 0.25732 0.16453 0.84051 0.0
C2387 C 0.24908 0.18558 0.84628 0.0
C2388 C 0.22898 0.1831 0.85673 0.0
C2389 C 0.21748 0.16142 0.8603 0.0
C2390 C 0.25655 0.24919 0.83134 0.0
C2391 C 0.27966 0.25674 0.83292 0.0
C2392 C 0.24721 0.22672 0.83531 0.0
C2393 C 0.26023 0.20986 0.84119 0.0
C2394 C 0.28353 0.21718 0.84249 0.0
C2395 C 0.29299 0.24003 0.83864 0.0
H2396 H 0.41156 0.08828 0.32103 0.0
H2397 H 0.46408 0.05187 0.3453 0.0
H2398 H 0.38451 0.0532 0.3176 0.0
H2399 H 0.43695 0.01699 0.34234 0.0
H2400 H 0.38762 0.95318 0.32132 0.0
H2401 H 0.41107 0.98746 0.31279 0.0
H2402 H 0.36889 0.03032 0.34803 0.0
H2403 H 0.34515 0.99589 0.3559 0.0
C2404 C 0.41739 0.07278 0.32552 0.0
C2405 C 0.44002 0.07292 0.33369 0.0
C2406 C 0.40183 0.05272 0.32359 0.0
C2407 C 0.40858 0.03235 0.3297 0.0
C2408 C 0.43125 0.03233 0.33712 0.0
C2409 C 0.44681 0.05239 0.33909 0.0
C2410 C 0.38322 0.96995 0.32681 0.0
C2411 C 0.36487 0.97205 0.33963 0.0
C2412 C 0.39664 0.98953 0.32202 0.0
C2413 C 0.39209 1.01158 0.33024 0.0
C2414 C 0.37279 1.01355 0.34139 0.0
C2415 C 0.35923 0.99389 0.34597 0.0
H2416 H 0.52836 0.38099 0.73661 0.0
H2417 H 0.57714 0.35447 0.69479 0.0
H2418 H 0.5245 0.4089 0.70686 0.0
H2419 H 0.57382 0.38287 0.66559 0.0
H2420 H 0.57354 0.45663 0.63897 0.0
H2421 H 0.57977 0.42958 0.66887 0.0
H2422 H 0.50999 0.40152 0.65564 0.0
H2423 H 0.5037 0.42735 0.62454 0.0
C2424 C 0.53873 0.38162 0.72156 0.0
C2425 C 0.55326 0.3658 0.71819 0.0
C2426 C 0.53635 0.39738 0.70439 0.0
C2427 C 0.54885 0.398 0.68393 0.0
C2428 C 0.56408 0.38284 0.68126 0.0
C2429 C 0.56602 0.36667 0.698 0.0
C2430 C 0.55951 0.44443 0.6419 0.0
C2431 C 0.53801 0.44452 0.62927 0.0
C2432 C 0.56312 0.42906 0.65926 0.0
C2433 C 0.54531 0.41375 0.66485 0.0
C2434 C 0.52395 0.41349 0.65206 0.0
C2435 C 0.52038 0.42846 0.63431 0.0
H2436 H 0.5031 0.8671 0.35725 0.0
H2437 H 0.48587 0.81668 0.40568 0.0
H2438 H 0.46389 0.86302 0.33913 0.0
H2439 H 0.44701 0.81322 0.389 0.0
H2440 H 0.37508 0.80279 0.35132 0.0
H2441 H 0.4146 0.80303 0.36316 0.0
H2442 H 0.42923 0.87044 0.34095 0.0
H2443 H 0.38981 0.86947 0.32819 0.0
C2444 C 0.49109 0.85452 0.36345 0.0
C2445 C 0.49819 0.84165 0.38244 0.0
C2446 C 0.46819 0.85251 0.35349 0.0
C2447 C 0.45123 0.83779 0.36234 0.0
C2448 C 0.45872 0.82449 0.3808 0.0
C2449 C 0.48144 0.8264 0.3905 0.0
C2450 C 0.38672 0.81757 0.34866 0.0
C2451 C 0.37873 0.83601 0.33849 0.0
C2452 C 0.40978 0.81792 0.35581 0.0
C2453 C 0.42616 0.83686 0.3534 0.0
C2454 C 0.41795 0.85519 0.34299 0.0
C2455 C 0.39494 0.85473 0.33567 0.0
H2456 H 0.0873 0.74733 0.21795 0.0
H2457 H 1.01628 0.73836 0.19888 0.0
H2458 H 0.08742 0.7105 0.19156 0.0
H2459 H 1.01624 0.70103 0.17234 0.0
H2460 H 1.02616 0.62675 0.14145 0.0
H2461 H 1.02436 0.66118 0.17129 0.0
H2462 H 0.08101 0.69775 0.14473 0.0
H2463 H 0.08309 0.66314 0.11507 0.0
C2464 C 0.07156 0.7369 0.20898 0.0
C2465 C 0.05172 0.74544 0.21093 0.0
C2466 C 0.07168 0.71603 0.19339 0.0
C2467 C 0.05191 0.70302 0.17942 0.0
C2468 C 0.03177 0.71066 0.18289 0.0
C2469 C 0.0317 0.73184 0.19838 0.0
C2470 C 0.03821 0.64214 0.14183 0.0
C2471 C 0.05484 0.64211 0.12585 0.0
C2472 C 0.03709 0.66192 0.15893 0.0
C2473 C 0.0526 0.68216 0.16059 0.0
C2474 C 0.06903 0.68228 0.1443 0.0
C2475 C 0.07015 0.66249 0.12716 0.0
H2476 H 0.14722 0.38175 0.90295 0.0
H2477 H 0.12403 0.3114 0.86668 0.0
H2478 H 0.18424 0.37943 0.89126 0.0
H2479 H 0.16156 0.30867 0.85623 0.0
H2480 H 0.24306 0.31324 0.87737 0.0
H2481 H 0.20532 0.3148 0.8874 0.0
H2482 H 0.20084 0.36978 0.84284 0.0
H2483 H 0.23806 0.36739 0.83168 0.0
C2484 C 0.14993 0.36572 0.89243 0.0
C2485 C 0.13215 0.3469 0.88552 0.0
C2486 C 0.17134 0.36439 0.88572 0.0
C2487 C 0.1763 0.34385 0.87271 0.0
C2488 C 0.15865 0.32484 0.86619 0.0
C2489 C 0.13694 0.32645 0.87206 0.0
C2490 C 0.23413 0.32575 0.86971 0.0
C2491 C 0.24411 0.34033 0.85378 0.0
C2492 C 0.21227 0.32654 0.87537 0.0
C2493 C 0.19964 0.34245 0.86605 0.0
C2494 C 0.20978 0.35729 0.85051 0.0
C2495 C 0.23131 0.35594 0.84411 0.0
H2496 H 0.61473 0.80298 0.01298 0.0
H2497 H 0.551 0.82456 1.00982 0.0
H2498 H 0.5972 0.76359 0.0149 0.0
H2499 H 0.53322 0.78516 0.01111 0.0
H2500 H 0.52929 0.73466 0.07251 0.0
H2501 H 0.53712 0.76749 0.05023 0.0
H2502 H 0.57061 0.72764 0.9979 0.0
H2503 H 0.56289 0.69473 0.02055 0.0
C2504 C 0.59685 0.79892 0.01144 0.0
C2505 C 0.58407 0.81639 0.01137 0.0
C2506 C 0.58677 0.77646 0.01247 0.0
C2507 C 0.56386 0.77146 0.01346 0.0
C2508 C 0.5509 0.78865 0.01066 0.0
C2509 C 0.56099 0.81105 1.00979 0.0
C2510 C 0.53764 0.7327 0.05571 0.0
C2511 C 0.54581 0.71246 0.04842 0.0
C2512 C 0.54206 0.75144 0.04284 0.0
C2513 C 0.55462 0.75009 0.02242 0.0
C2514 C 0.56113 0.72914 0.01376 0.0
C2515 C 0.55676 0.71042 0.0267 0.0
H2516 H 0.05427 0.77544 0.69609 0.0
H2517 H 0.09625 0.80095 0.64285 0.0
H2518 H 0.0859 0.78202 0.72954 0.0
H2519 H 0.12844 0.80672 0.67654 0.0
H2520 H 0.1797 0.82866 0.74819 0.0
H2521 H 0.14583 0.82926 0.71892 0.0
H2522 H 0.1171 0.76319 0.73671 0.0
H2523 H 0.15041 0.76309 0.76624 0.0
C2524 C 0.07034 0.78217 0.69138 0.0
C2525 C 0.07286 0.78725 0.66663 0.0
C2526 C 0.08845 0.78602 0.71065 0.0
C2527 C 0.10961 0.79471 0.70559 0.0
C2528 C 0.11221 0.80022 0.68101 0.0
C2529 C 0.0939 0.79664 0.66166 0.0
C2530 C 0.16576 0.81473 0.74634 0.0
C2531 C 0.1674 0.79581 0.75927 0.0
C2532 C 0.14661 0.81489 0.72939 0.0
C2533 C 0.12897 0.79619 0.7254 0.0
C2534 C 0.13031 0.77797 0.73957 0.0
C2535 C 0.14934 0.77784 0.75642 0.0
H2536 H 0.13772 0.43788 0.57731 0.0
H2537 H 0.10032 0.45009 0.50744 0.0
H2538 H 0.11885 0.46417 0.60285 0.0
H2539 H 0.0814 0.47604 0.53296 0.0
H2540 H 0.03433 0.49889 0.5812 0.0
H2541 H 0.0538 0.46764 0.56745 0.0
H2542 H 0.11589 0.50907 0.60516 0.0
H2543 H 0.09643 0.54037 0.61877 0.0
C2544 C 0.12592 0.4467 0.56746 0.0
C2545 C 0.12061 0.44228 0.54051 0.0
C2546 C 0.11498 0.46137 0.58203 0.0
C2547 C 0.09838 0.47143 0.56977 0.0
C2548 C 0.09384 0.46793 0.54275 0.0
C2549 C 0.10501 0.45356 0.52817 0.0
C2550 C 0.0519 0.50074 0.58795 0.0
C2551 C 0.06404 0.52197 0.60074 0.0
C2552 C 0.06306 0.48306 0.57972 0.0
C2553 C 0.08627 0.48643 0.58479 0.0
C2554 C 0.09797 0.50626 0.60101 0.0
C2555 C 0.08684 0.52403 0.60898 0.0
H2556 H 0.47413 0.2551 0.22051 0.0
H2557 H 0.45703 0.31378 0.18737 0.0
H2558 H 0.46088 0.26955 0.26036 0.0
H2559 H 0.44436 0.32835 0.2272 0.0
H2560 H 0.4515 0.36084 0.31159 0.0
H2561 H 0.46577 0.34355 0.27397 0.0
H2562 H 0.42393 0.27866 0.27467 0.0
H2563 H 0.40887 0.2959 0.31149 0.0
C2564 C 0.46699 0.2707 0.22153 0.0
C2565 C 0.46625 0.28314 0.2008 0.0
C2566 C 0.45968 0.27907 0.24434 0.0
C2567 C 0.45206 0.30024 0.24686 0.0
C2568 C 0.4505 0.31216 0.22577 0.0
C2569 C 0.45733 0.30356 0.20284 0.0
C2570 C 0.44526 0.34289 0.30381 0.0
C2571 C 0.42853 0.32997 0.31434 0.0
C2572 C 0.4535 0.33302 0.28233 0.0
C2573 C 0.4455 0.30993 0.2713 0.0
C2574 C 0.43017 0.29651 0.28289 0.0
C2575 C 0.42169 0.30644 0.30409 0.0
H2576 H 0.69241 0.56548 0.44226 0.0
H2577 H 0.63752 0.57022 0.38602 0.0
H2578 H 0.66839 0.56649 0.47577 0.0
H2579 H 0.61367 0.57192 0.419 0.0
H2580 H 0.5669 0.56658 0.47929 0.0
H2581 H 0.59109 0.56336 0.44645 0.0
H2582 H 0.64795 0.57668 0.50609 0.0
H2583 H 0.6232 0.57855 0.53867 0.0
C2584 C 0.67524 0.56692 0.43687 0.0
C2585 C 0.66741 0.56782 0.41079 0.0
C2586 C 0.6611 0.56758 0.45646 0.0
C2587 C 0.63818 0.56921 0.45123 0.0
C2588 C 0.63063 0.57026 0.42499 0.0
C2589 C 0.6447 0.56951 0.40555 0.0
C2590 C 0.58455 0.56844 0.48548 0.0
C2591 C 0.59262 0.57239 0.51213 0.0
C2592 C 0.59888 0.56691 0.4663 0.0
C2593 C 0.62241 0.56991 0.47246 0.0
C2594 C 0.63036 0.57386 0.49939 0.0
C2595 C 0.61592 0.57495 0.51856 0.0
H2596 H 0.29353 0.91571 0.14899 0.0
H2597 H 0.22591 0.88567 0.15152 0.0
H2598 H 0.30553 0.90165 0.18885 0.0
H2599 H 0.23782 0.87205 0.19204 0.0
H2600 H 0.27119 0.87277 0.27802 0.0
H2601 H 0.25756 0.88818 0.23983 0.0
H2602 H 0.30544 0.859 0.19878 0.0
H2603 H 0.31866 0.8427 0.23704 0.0
C2604 C 0.28109 0.90696 0.15874 0.0
C2605 C 0.25868 0.9024 0.14753 0.0
C2606 C 0.28803 0.89851 0.18128 0.0
C2607 C 0.2727 0.88544 0.19341 0.0
C2608 C 0.25004 0.88208 0.18314 0.0
C2609 C 0.24314 0.8902 0.16019 0.0
C2610 C 0.27884 0.86957 0.26085 0.0
C2611 C 0.29621 0.85669 0.26068 0.0
C2612 C 0.2709 0.87832 0.23892 0.0
C2613 C 0.28049 0.87502 0.21634 0.0
C2614 C 0.29782 0.86203 0.21601 0.0
C2615 C 0.30537 0.85263 0.23784 0.0
H2616 H 0.95344 0.6315 0.9126 0.0
H2617 H 1.01936 0.65096 0.89485 0.0
H2618 H 0.96883 0.61824 0.95149 0.0
H2619 H 0.03493 0.6376 0.93391 0.0
H2620 H 0.05441 0.62682 0.02072 0.0
H2621 H 0.04123 0.64349 0.98251 0.0
H2622 H 0.98631 0.58682 0.96222 0.0
H2623 H 0.9991 0.57057 0.9995 0.0
C2624 C 0.97126 0.63321 0.91713 0.0
C2625 C 0.98509 0.64245 0.90054 0.0
C2626 C 0.98018 0.62539 0.93943 0.0
C2627 C 1.00327 0.62668 0.9461 0.0
C2628 C 1.01714 0.63645 0.92975 0.0
C2629 C 1.00818 0.64403 0.90721 0.0
C2630 C 0.0395 0.61803 1.00811 0.0
C2631 C 1.02784 0.59734 0.01358 0.0
C2632 C 0.03196 0.62752 0.98608 0.0
C2633 C 1.01237 0.61677 0.96925 0.0
C2634 C 1.00107 0.59604 0.97479 0.0
C2635 C 1.00862 0.58657 0.99635 0.0
H2636 H 0.317 0.22988 0.54498 0.0
H2637 H 0.28079 0.17933 0.58246 0.0
H2638 H 0.33733 0.24934 0.58651 0.0
H2639 H 0.29979 0.19964 0.62432 0.0
H2640 H 0.32939 0.2399 0.69761 0.0
H2641 H 0.3306 0.21541 0.65698 0.0
H2642 H 0.32259 0.27293 0.61654 0.0
H2643 H 0.32192 0.29703 0.65664 0.0
C2644 C 0.31354 0.22298 0.56226 0.0
C2645 C 0.297 0.20374 0.561 0.0
C2646 C 0.32519 0.23397 0.58594 0.0
C2647 C 0.31981 0.22639 0.60873 0.0
C2648 C 0.30449 0.20588 0.60715 0.0
C2649 C 0.29333 0.19444 0.5833 0.0
C2650 C 0.3287 0.24734 0.68001 0.0
C2651 C 0.32524 0.27015 0.68005 0.0
C2652 C 0.32933 0.23338 0.65683 0.0
C2653 C 0.32631 0.24208 0.63351 0.0
C2654 C 0.32527 0.26563 0.63409 0.0
C2655 C 0.32482 0.27955 0.65717 0.0
H2656 H 0.68822 0.58585 0.26339 0.0
H2657 H 0.63518 0.534 0.27488 0.0
H2658 H 0.66872 0.58714 0.22041 0.0
H2659 H 0.61568 0.53505 0.23206 0.0
H2660 H 0.59165 0.53207 0.14473 0.0
H2661 H 0.61373 0.52755 0.18498 0.0
H2662 H 0.63569 0.60118 0.20191 0.0
H2663 H 0.61332 0.60567 0.162 0.0
C2664 C 0.67289 0.57393 0.25632 0.0
C2665 C 0.66385 0.55912 0.27246 0.0
C2666 C 0.66136 0.57502 0.23177 0.0
C2667 C 0.64033 0.56129 0.22235 0.0
C2668 C 0.63184 0.54573 0.2381 0.0
C2669 C 0.64322 0.54489 0.26272 0.0
C2670 C 0.60122 0.54732 0.15697 0.0
C2671 C 0.60053 0.56926 0.14979 0.0
C2672 C 0.6139 0.54474 0.18027 0.0
C2673 C 0.62688 0.56394 0.19704 0.0
C2674 C 0.62632 0.58585 0.18964 0.0
C2675 C 0.61325 0.58847 0.16667 0.0
H2676 H 0.25291 0.86785 0.02612 0.0
H2677 H 0.24503 0.92663 0.98834 0.0
H2678 H 0.26611 0.84935 0.98866 0.0
H2679 H 0.25846 0.90803 0.95046 0.0
H2680 H 0.26457 0.85805 0.87747 0.0
H2681 H 0.25017 0.87671 0.91437 0.0
H2682 H 0.29697 0.85105 0.96587 0.0
H2683 H 0.31106 0.83216 0.92899 0.0
C2684 C 0.25396 0.8769 1.00978 0.0
C2685 C 0.24783 0.89883 1.01044 0.0
C2686 C 0.26174 0.86628 0.9882 0.0
C2687 C 0.26358 0.87708 0.9663 0.0
C2688 C 0.25714 0.89895 0.96676 0.0
C2689 C 0.24947 0.90971 0.98856 0.0
C2690 C 0.27158 0.8561 0.89667 0.0
C2691 C 0.28886 0.84328 0.90012 0.0
C2692 C 0.26348 0.86709 0.91793 0.0
C2693 C 0.27227 0.8655 0.94337 0.0
C2694 C 0.28942 0.85247 0.94672 0.0
C2695 C 0.29757 0.84158 0.92548 0.0
H2696 H 0.9637 0.62127 0.74771 0.0
H2697 H 0.02962 0.65718 0.77904 0.0
H2698 H 0.97642 0.61009 0.70649 0.0
H2699 H 0.04223 0.64675 0.73804 0.0
H2700 H 0.0653 0.59914 0.67619 0.0
H2701 H 0.05074 0.61307 0.71503 0.0
H2702 H 0.99027 0.62025 0.66862 0.0
H2703 H 1.00455 0.60576 0.62997 0.0
C2704 C 0.98066 0.62756 0.74547 0.0
C2705 C 0.99563 0.6402 0.7666 0.0
C2706 C 0.98807 0.62099 0.7219 0.0
C2707 C 1.01056 0.62704 0.71899 0.0
C2708 C 1.025 0.64113 0.73965 0.0
C2709 C 1.01767 0.64749 0.76309 0.0
C2710 C 0.04887 0.6036 0.67428 0.0
C2711 C 0.03614 0.60122 0.64989 0.0
C2712 C 0.04054 0.61182 0.69657 0.0
C2713 C 1.01929 0.61802 0.6951 0.0
C2714 C 1.00655 0.61547 0.67067 0.0
C2715 C 1.01485 0.60721 0.64841 0.0
H2716 H 0.31304 0.18928 0.44435 0.0
H2717 H 0.24268 0.18256 0.42138 0.0
H2718 H 0.31942 0.22337 0.42399 0.0
H2719 H 0.24885 0.21572 0.39888 0.0
H2720 H 0.26172 0.29045 0.39152 0.0
H2721 H 0.25762 0.25543 0.41096 0.0
H2722 H 0.32013 0.24173 0.38887 0.0
H2723 H 0.325 0.27756 0.37171 0.0
C2724 C 0.29906 0.19432 0.43337 0.0
C2725 C 0.27744 0.18307 0.43367 0.0
C2726 C 0.30264 0.21406 0.42191 0.0
C2727 C 0.28463 0.22266 0.4101 0.0
C2728 C 0.26309 0.21002 0.40845 0.0
C2729 C 0.25951 0.1906 0.42057 0.0
C2730 C 0.27486 0.28027 0.39166 0.0
C2731 C 0.29354 0.2866 0.37992 0.0
C2732 C 0.27232 0.2599 0.40222 0.0
C2733 C 0.2882 0.24526 0.40078 0.0
C2734 C 0.30754 0.25246 0.39045 0.0
C2735 C 0.31034 0.27309 0.38056 0.0
H2736 H 0.45251 0.71651 0.57847 0.0
H2737 H 0.40148 0.65688 0.5717 0.0
H2738 H 0.48002 0.69162 0.57426 0.0
H2739 H 0.42833 0.63174 0.56543 0.0
H2740 H 0.48318 0.58847 0.57111 0.0
H2741 H 0.45525 0.61284 0.57624 0.0
H2742 H 0.49808 0.66848 0.55249 0.0
H2743 H 0.52623 0.64446 0.54943 0.0
C2744 C 0.44713 0.69802 0.57604 0.0
C2745 C 0.4247 0.68888 0.57571 0.0
C2746 C 0.46297 0.68345 0.57314 0.0
C2747 C 0.45692 0.65908 0.56911 0.0
C2748 C 0.43431 0.65012 0.56889 0.0
C2749 C 0.41862 0.6647 0.57236 0.0
C2750 C 0.48634 0.60577 0.56646 0.0
C2751 C 0.50689 0.6143 0.55944 0.0
C2752 C 0.47023 0.62003 0.56948 0.0
C2753 C 0.47391 0.64326 0.56508 0.0
C2754 C 0.49429 0.65123 0.55696 0.0
C2755 C 0.51051 0.63718 0.55461 0.0
H2756 H 0.89546 0.04623 0.6296 0.0
H2757 H 0.93489 1.01645 0.68492 0.0
H2758 H 0.92919 0.06355 0.61473 0.0
H2759 H 0.96863 0.03428 0.67061 0.0
H2760 H 0.98427 0.03245 0.56963 0.0
H2761 H 0.95216 0.03177 0.59234 0.0
H2762 H 0.9929 0.07417 0.65911 0.0
H2763 H 1.02518 0.07524 0.6362 0.0
C2764 C 0.91142 0.04475 0.63974 0.0
C2765 C 0.91282 0.03024 0.65844 0.0
C2766 C 0.93062 0.05441 0.63107 0.0
C2767 C 0.95129 0.05003 0.64149 0.0
C2768 C 0.95283 0.03804 0.66252 0.0
C2769 C 0.93361 0.02797 0.6708 0.0
C2770 C 0.9863 0.04188 0.58901 0.0
C2771 C 1.00711 0.05377 0.60126 0.0
C2772 C 0.96795 0.0417 0.60186 0.0
C2773 C 0.97017 0.05326 0.62722 0.0
C2774 C 0.9909 0.06539 0.63944 0.0
C2775 C 1.00925 0.06586 0.62641 0.0
H2776 H 0.85919 0.1388 0.30513 0.0
H2777 H 0.92362 0.17919 0.33301 0.0
H2778 H 0.84271 0.17362 0.30962 0.0
H2779 H 0.90749 0.21417 0.33779 0.0
H2780 H 0.87658 0.28062 0.3447 0.0
H2781 H 0.89302 0.24584 0.33994 0.0
H2782 H 0.82779 0.20488 0.3164 0.0
H2783 H 0.81171 0.23991 0.32105 0.0
C2784 C 0.87009 0.15513 0.31216 0.0
C2785 C 0.89316 0.15529 0.31842 0.0
C2786 C 0.86043 0.17573 0.31496 0.0
C2787 C 0.87308 0.19822 0.32431 0.0
C2788 C 0.89628 0.19818 0.33047 0.0
C2789 C 0.90589 0.17757 0.32766 0.0
C2790 C 0.86558 0.26422 0.33866 0.0
C2791 C 0.84241 0.26396 0.33362 0.0
C2792 C 0.8752 0.24362 0.33577 0.0
C2793 C 0.86242 0.22103 0.3276 0.0
C2794 C 0.83912 0.22097 0.32265 0.0
C2795 C 0.82953 0.2416 0.32549 0.0
H2796 H 0.78789 0.23623 0.05932 0.0
H2797 H 0.82158 0.17743 0.05628 0.0
H2798 H 0.75313 0.21109 0.05982 0.0
H2799 H 0.78652 0.15211 0.05594 0.0
H2800 H 0.72722 0.1243 0.0962 0.0
H2801 H 0.76184 0.14472 0.08671 0.0
H2802 H 0.72498 0.18118 0.03585 0.0
H2803 H 0.69039 0.16108 0.0459 0.0
C2804 C 0.78781 0.21788 0.05818 0.0
C2805 C 0.80753 0.20889 0.05791 0.0
C2806 C 0.76782 0.2034 0.05831 0.0
C2807 C 0.76705 0.17957 0.05791 0.0
C2808 C 0.78662 0.17043 0.0566 0.0
C2809 C 0.80668 0.18495 0.05666 0.0
C2810 C 0.72656 0.13633 0.08259 0.0
C2811 C 0.7062 0.14135 0.072 0.0
C2812 C 0.74638 0.148 0.07708 0.0
C2813 C 0.74615 0.16479 0.06075 0.0
C2814 C 0.7257 0.16873 0.04895 0.0
C2815 C 0.70592 0.1572 0.05463 0.0
H2816 H 0.22509 0.48623 0.33875 0.0
H2817 H 0.16698 0.43311 0.3248 0.0
H2818 H 0.24876 0.45711 0.34245 0.0
H2819 H 0.1907 0.40387 0.32845 0.0
H2820 H 0.23997 0.35829 0.30297 0.0
H2821 H 0.21674 0.38741 0.30339 0.0
H2822 H 0.2602 0.42814 0.3692 0.0
H2823 H 0.28365 0.39808 0.36918 0.0
C2824 C 0.21733 0.46829 0.33624 0.0
C2825 C 0.19407 0.46201 0.33102 0.0
C2826 C 0.23095 0.4516 0.33872 0.0
C2827 C 0.22174 0.42808 0.33574 0.0
C2828 C 0.19844 0.4218 0.33063 0.0
C2829 C 0.18479 0.43855 0.32849 0.0
C2830 C 0.24441 0.37302 0.31812 0.0
C2831 C 0.2634 0.37526 0.33661 0.0
C2832 C 0.23101 0.38992 0.31822 0.0
C2833 C 0.23625 0.41004 0.33655 0.0
C2834 C 0.25557 0.41277 0.35483 0.0
C2835 C 0.26897 0.39551 0.35492 0.0
H2836 H 0.30017 0.55538 0.17011 0.0
H2837 H 0.27947 0.49178 0.11671 0.0
H2838 H 0.26816 0.57023 0.15115 0.0
H2839 H 0.24912 0.50701 0.09631 0.0
H2840 H 0.18418 0.52905 0.07843 0.0
H2841 H 0.21522 0.51512 0.09897 0.0
H2842 H 0.25211 0.58478 0.11702 0.0
H2843 H 0.21967 0.59916 0.09973 0.0
C2844 C 0.28872 0.54462 0.15439 0.0
C2845 C 0.29194 0.5223 0.14532 0.0
C2846 C 0.27057 0.5532 0.14318 0.0
C2847 C 0.25577 0.53985 0.12214 0.0
C2848 C 0.25947 0.51763 0.11295 0.0
C2849 C 0.27705 0.50886 0.12466 0.0
C2850 C 0.19862 0.54161 0.08731 0.0
C2851 C 0.19895 0.56541 0.08779 0.0
C2852 C 0.21683 0.53347 0.09866 0.0
C2853 C 0.23642 0.54875 0.10987 0.0
C2854 C 0.23721 0.57246 0.10924 0.0
C2855 C 0.21863 0.58071 0.09869 0.0
H2856 H 0.92098 0.99827 0.30742 0.0
H2857 H 0.86626 0.02933 0.32966 0.0
H2858 H 0.90138 0.96056 0.31029 0.0
H2859 H 0.84619 0.99061 0.33308 0.0
H2860 H 0.81008 0.91078 0.32422 0.0
H2861 H 0.82621 0.95041 0.31889 0.0
H2862 H 0.89164 0.93435 0.33594 0.0
H2863 H 0.87575 0.89558 0.34075 0.0
C2864 C 0.90458 0.99727 0.31294 0.0
C2865 C 0.89576 0.01785 0.31824 0.0
C2866 C 0.89315 0.97506 0.31494 0.0
C2867 C 0.87188 0.9714 0.32269 0.0
C2868 C 0.86242 0.99186 0.32712 0.0
C2869 C 0.87404 1.01446 0.32502 0.0
C2870 C 0.82793 0.91562 0.32671 0.0
C2871 C 0.84129 0.89906 0.33292 0.0
C2872 C 0.83737 0.93876 0.32374 0.0
C2873 C 0.86072 0.94662 0.32649 0.0
C2874 C 0.87377 0.92988 0.33283 0.0
C2875 C 0.86444 0.90711 0.3359 0.0
H2876 H 0.71126 0.06523 0.84673 0.0
H2877 H 0.65898 0.10595 0.84893 0.0
H2878 H 0.73755 0.09952 0.84372 0.0
H2879 H 0.68495 0.13987 0.84503 0.0
H2880 H 0.73757 0.20157 0.85347 0.0
H2881 H 0.71608 0.16769 0.86529 0.0
H2882 H 0.74523 0.1237 0.81215 0.0
H2883 H 0.76704 0.15763 0.80078 0.0
C2884 C 0.70539 0.08151 0.84675 0.0
C2885 C 0.68298 0.08283 0.848 0.0
C2886 C 0.72045 0.10114 0.84486 0.0
C2887 C 0.71339 0.12247 0.84402 0.0
C2888 C 0.69111 0.12386 0.84608 0.0
C2889 C 0.67613 0.10432 0.84819 0.0
C2890 C 0.73946 0.18464 0.84443 0.0
C2891 C 0.75376 0.18226 0.82593 0.0
C2892 C 0.72712 0.16522 0.85117 0.0
C2893 C 0.72866 0.14294 0.83942 0.0
C2894 C 0.74375 0.14055 0.82179 0.0
C2895 C 0.75622 0.16001 0.81518 0.0
loop_
_geom_bond_atom_site_label_1
_geom_bond_atom_site_label_2
_geom_bond_distance
_geom_bond_site_symmetry_2
_ccdc_geom_bond_type
Co0 O1 2.216 . S
Co0 O2 2.091 . S
Co0 O4 2.004 . S
Co0 O10 2.021 . S
Co0 O12 2.137 . S
Co0 O13 2.244 . S
O1 Co0 2.216 . S
O1 C8 1.247 . S
O2 Co0 2.091 . S
O2 C8 1.261 . S
C3 O12 1.247 . S
C3 O13 1.272 . S
O4 Co0 2.004 . S
O4 C9 1.259 . S
Co5 O6 2.061 . S
Co5 O11 2.052 . S
Co5 O13 2.135 . S
O6 Co5 2.061 . S
O6 C9 1.235 . S
C7 O10 1.238 . S
C7 O11 1.241 . S
C8 O1 1.247 . S
C8 O2 1.261 . S
C9 O4 1.259 . S
C9 O6 1.235 . S
O10 Co0 2.021 . S
O10 C7 1.238 . S
O11 Co5 2.052 . S
O11 C7 1.241 . S
O12 Co0 2.137 . S
O12 C3 1.247 . S
O13 Co0 2.244 . S
O13 C3 1.272 . S
O13 Co5 2.135 . S
Co14 O15 2.216 . S
Co14 O16 2.091 . S
Co14 O18 2.004 1_655 S
Co14 O24 2.021 . S
Co14 O26 2.137 . S
Co14 O27 2.244 1_655 S
O15 Co14 2.216 . S
O15 C22 1.247 . S
O16 Co14 2.091 . S
O16 C22 1.261 . S
C17 O26 1.247 1_455 S
C17 O27 1.272 . S
O18 Co14 2.004 1_455 S
O18 C23 1.259 . S
Co19 O20 2.061 . S
Co19 O25 2.052 . S
Co19 O27 2.135 . S
O20 Co19 2.061 . S
O20 C23 1.235 . S
C21 O24 1.238 . S
C21 O25 1.241 1_655 S
C22 O15 1.247 . S
C22 O16 1.261 . S
C23 O18 1.259 . S
C23 O20 1.235 . S
O24 Co14 2.021 . S
O24 C21 1.238 . S
O25 Co19 2.052 . S
O25 C21 1.241 1_455 S
O26 Co14 2.137 . S
O26 C17 1.247 1_655 S
O27 Co14 2.244 1_455 S
O27 C17 1.272 . S
O27 Co19 2.135 . S
Co28 O29 2.216 1_556 S
Co28 O30 2.091 . S
Co28 O32 2.004 . S
Co28 O38 2.021 1_556 S
Co28 O40 2.137 . S
Co28 O41 2.244 1_556 S
O29 Co28 2.216 1_554 S
O29 C36 1.247 1_554 S
O30 Co28 2.091 . S
O30 C36 1.261 . S
C31 O40 1.216 1_554 S
C31 O41 1.272 . S
O32 Co28 2.004 . S
O32 C37 1.259 . S
Co33 O34 2.061 . S
Co33 O39 2.052 . S
Co33 O41 2.135 . S
O34 Co33 2.061 . S
O34 C37 1.235 1_554 S
C35 O38 1.238 . S
C35 O39 1.241 . S
C36 O29 1.247 1_556 S
C36 O30 1.261 . S
C37 O32 1.259 . S
C37 O34 1.235 1_556 S
O38 Co28 2.021 1_554 S
O38 C35 1.238 . S
O39 Co33 2.052 . S
O39 C35 1.241 . S
O40 Co28 2.137 . S
O40 C31 1.216 1_556 S
O41 Co28 2.244 1_554 S
O41 C31 1.272 . S
O41 Co33 2.135 . S
Co42 O43 2.216 . S
Co42 O44 2.091 . S
Co42 O46 2.004 . S
Co42 O52 2.021 . S
Co42 O54 2.137 . S
Co42 O55 2.244 . S
O43 Co42 2.216 . S
O43 C50 1.247 . S
O44 Co42 2.091 . S
O44 C50 1.261 . S
C45 O54 1.247 . S
C45 O55 1.272 . S
O46 Co42 2.004 . S
O46 C51 1.259 . S
Co47 O48 2.061 . S
Co47 O53 2.052 . S
Co47 O55 2.135 . S
O48 Co47 2.061 . S
O48 C51 1.235 . S
C49 O52 1.238 . S
C49 O53 1.241 . S
C50 O43 1.247 . S
C50 O44 1.261 . S
C51 O46 1.259 . S
C51 O48 1.235 . S
O52 Co42 2.021 . S
O52 C49 1.238 . S
O53 Co47 2.052 . S
O53 C49 1.241 . S
O54 Co42 2.137 . S
O54 C45 1.247 . S
O55 Co42 2.244 . S
O55 C45 1.272 . S
O55 Co47 2.135 . S
Co56 O57 2.216 1_455 S
Co56 O58 2.091 . S
Co56 O60 2.004 . S
Co56 O66 2.021 . S
Co56 O68 2.137 . S
Co56 O69 2.244 . S
O57 Co56 2.216 1_655 S
O57 C64 1.247 . S
O58 Co56 2.091 . S
O58 C64 1.261 1_455 S
C59 O68 1.247 . S
C59 O69 1.272 . S
O60 Co56 2.004 . S
O60 C65 1.259 . S
Co61 O62 2.061 . S
Co61 O67 2.052 . S
Co61 O69 2.135 . S
O62 Co61 2.061 . S
O62 C65 1.235 . S
C63 O66 1.238 . S
C63 O67 1.241 . S
C64 O57 1.247 . S
C64 O58 1.261 1_655 S
C65 O60 1.259 . S
C65 O62 1.235 . S
O66 Co56 2.021 . S
O66 C63 1.238 . S
O67 Co61 2.052 . S
O67 C63 1.241 . S
O68 Co56 2.137 . S
O68 C59 1.247 . S
O69 Co56 2.244 . S
O69 C59 1.272 . S
O69 Co61 2.135 . S
Co70 O71 2.216 . S
Co70 O72 2.091 . S
Co70 O74 2.004 . S
Co70 O80 2.021 . S
Co70 O82 2.137 . S
Co70 O83 2.244 . S
O71 Co70 2.216 . S
O71 C78 1.247 . S
O72 Co70 2.091 . S
O72 C78 1.261 . S
C73 O82 1.247 . S
C73 O83 1.272 . S
O74 Co70 2.004 . S
O74 C79 1.259 . S
Co75 O76 2.061 . S
Co75 O81 2.052 . S
Co75 O83 2.135 . S
O76 Co75 2.061 . S
O76 C79 1.235 . S
C77 O80 1.238 . S
C77 O81 1.241 . S
C78 O71 1.247 . S
C78 O72 1.261 . S
C79 O74 1.259 . S
C79 O76 1.235 . S
O80 Co70 2.021 . S
O80 C77 1.238 . S
O81 Co75 2.052 . S
O81 C77 1.241 . S
O82 Co70 2.137 . S
O82 C73 1.247 . S
O83 Co70 2.244 . S
O83 C73 1.272 . S
O83 Co75 2.135 . S
Co84 O85 2.216 . S
Co84 O86 2.091 . S
Co84 O88 2.004 . S
Co84 O94 2.021 . S
Co84 O96 2.137 . S
Co84 O97 2.244 . S
O85 Co84 2.216 . S
O85 C92 1.247 . S
O86 Co84 2.091 . S
O86 C92 1.261 . S
C87 O96 1.247 . S
C87 O97 1.272 . S
O88 Co84 2.004 . S
O88 C93 1.259 . S
Co89 O90 2.061 . S
Co89 O95 2.052 . S
Co89 O97 2.135 . S
O90 Co89 2.061 . S
O90 C93 1.235 . S
C91 O94 1.238 . S
C91 O95 1.241 . S
C92 O85 1.247 . S
C92 O86 1.261 . S
C93 O88 1.259 . S
C93 O90 1.235 . S
O94 Co84 2.021 . S
O94 C91 1.238 . S
O95 Co89 2.052 . S
O95 C91 1.241 . S
O96 Co84 2.137 . S
O96 C87 1.247 . S
O97 Co84 2.244 . S
O97 C87 1.272 . S
O97 Co89 2.135 . S
Co98 O99 2.216 . S
Co98 O100 2.091 . S
Co98 O102 2.004 . S
Co98 O108 2.021 . S
Co98 O110 2.137 . S
Co98 O111 2.244 . S
O99 Co98 2.216 . S
O99 C106 1.247 . S
O100 Co98 2.091 . S
O100 C106 1.261 . S
C101 O110 1.247 . S
C101 O111 1.272 . S
O102 Co98 2.004 . S
O102 C107 1.259 1_455 S
Co103 O104 2.061 1_455 S
Co103 O109 2.052 . S
Co103 O111 2.135 . S
O104 Co103 2.061 1_655 S
O104 C107 1.235 . S
C105 O108 1.238 . S
C105 O109 1.241 . S
C106 O99 1.247 . S
C106 O100 1.261 . S
C107 O102 1.259 1_655 S
C107 O104 1.235 . S
O108 Co98 2.021 . S
O108 C105 1.238 . S
O109 Co103 2.052 . S
O109 C105 1.241 . S
O110 Co98 2.137 . S
O110 C101 1.247 . S
O111 Co98 2.244 . S
O111 C101 1.272 . S
O111 Co103 2.135 . S
Co112 O113 2.216 . S
Co112 O114 2.091 . S
Co112 O116 2.004 . S
Co112 O122 2.021 . S
Co112 O124 2.137 . S
Co112 O125 2.244 . S
O113 Co112 2.216 . S
O113 C120 1.247 . S
O114 Co112 2.091 . S
O114 C120 1.261 . S
C115 O124 1.247 . S
C115 O125 1.272 . S
O116 Co112 2.004 . S
O116 C121 1.259 . S
Co117 O118 2.061 . S
Co117 O123 2.052 . S
Co117 O125 2.135 . S
O118 Co117 2.061 . S
O118 C121 1.235 . S
C119 O122 1.238 . S
C119 O123 1.241 . S
C120 O113 1.247 . S
C120 O114 1.261 . S
C121 O116 1.259 . S
C121 O118 1.235 . S
O122 Co112 2.021 . S
O122 C119 1.238 . S
O123 Co117 2.052 . S
O123 C119 1.241 . S
O124 Co112 2.137 . S
O124 C115 1.247 . S
O125 Co112 2.244 . S
O125 C115 1.272 . S
O125 Co117 2.135 . S
Co126 O127 2.216 . S
Co126 O128 2.091 . S
Co126 O130 2.004 . S
Co126 O136 2.021 . S
Co126 O138 2.137 . S
Co126 O139 2.244 . S
O127 Co126 2.216 . S
O127 C134 1.247 . S
O128 Co126 2.091 . S
O128 C134 1.261 . S
C129 O138 1.247 . S
C129 O139 1.272 . S
O130 Co126 2.004 . S
O130 C135 1.259 . S
Co131 O132 2.061 . S
Co131 O137 2.052 . S
Co131 O139 2.135 . S
O132 Co131 2.061 . S
O132 C135 1.235 . S
C133 O136 1.238 . S
C133 O137 1.241 . S
C134 O127 1.247 . S
C134 O128 1.261 . S
C135 O130 1.259 . S
C135 O132 1.235 . S
O136 Co126 2.021 . S
O136 C133 1.238 . S
O137 Co131 2.052 . S
O137 C133 1.241 . S
O138 Co126 2.137 . S
O138 C129 1.247 . S
O139 Co126 2.244 . S
O139 C129 1.272 . S
O139 Co131 2.135 . S
Co140 O141 2.197 1_545 S
Co140 O142 2.091 . S
Co140 O144 2.004 . S
Co140 O150 2.021 . S
Co140 O152 2.137 . S
Co140 O153 2.244 . S
O141 Co140 2.197 1_565 S
O141 C148 1.250 . S
O142 Co140 2.091 . S
O142 C148 1.259 1_545 S
C143 O152 1.247 . S
C143 O153 1.272 . S
O144 Co140 2.004 . S
O144 C149 1.259 . S
Co145 O146 2.061 . S
Co145 O151 2.052 . S
Co145 O153 2.135 . S
O146 Co145 2.061 . S
O146 C149 1.235 . S
C147 O150 1.238 . S
C147 O151 1.241 . S
C148 O141 1.250 . S
C148 O142 1.259 1_565 S
C149 O144 1.259 . S
C149 O146 1.235 . S
O150 Co140 2.021 . S
O150 C147 1.238 . S
O151 Co145 2.052 . S
O151 C147 1.241 . S
O152 Co140 2.137 . S
O152 C143 1.247 . S
O153 Co140 2.244 . S
O153 C143 1.272 . S
O153 Co145 2.135 . S
Co154 O155 2.216 . S
Co154 O156 2.091 . S
Co154 O158 2.004 . S
Co154 O164 2.021 . S
Co154 O166 2.137 . S
Co154 O167 2.244 . S
O155 Co154 2.216 . S
O155 C162 1.247 . S
O156 Co154 2.091 . S
O156 C162 1.261 . S
C157 O166 1.247 . S
C157 O167 1.272 . S
O158 Co154 2.004 . S
O158 C163 1.259 . S
Co159 O160 2.061 . S
Co159 O165 2.052 . S
Co159 O167 2.135 . S
O160 Co159 2.061 . S
O160 C163 1.235 . S
C161 O164 1.238 . S
C161 O165 1.241 . S
C162 O155 1.247 . S
C162 O156 1.261 . S
C163 O158 1.259 . S
C163 O160 1.235 . S
O164 Co154 2.021 . S
O164 C161 1.238 . S
O165 Co159 2.052 . S
O165 C161 1.241 . S
O166 Co154 2.137 . S
O166 C157 1.247 . S
O167 Co154 2.244 . S
O167 C157 1.272 . S
O167 Co159 2.135 . S
Co168 O169 2.216 . S
Co168 O170 2.091 . S
Co168 O172 2.004 . S
Co168 O178 2.021 . S
Co168 O180 2.137 . S
Co168 O181 2.244 . S
O169 Co168 2.216 . S
O169 C176 1.247 . S
O170 Co168 2.091 . S
O170 C176 1.261 . S
C171 O180 1.247 . S
C171 O181 1.272 . S
O172 Co168 2.004 . S
O172 C177 1.259 . S
Co173 O174 2.061 . S
Co173 O179 2.052 . S
Co173 O181 2.135 . S
O174 Co173 2.061 . S
O174 C177 1.235 . S
C175 O178 1.238 . S
C175 O179 1.241 . S
C176 O169 1.247 . S
C176 O170 1.261 . S
C177 O172 1.259 . S
C177 O174 1.235 . S
O178 Co168 2.021 . S
O178 C175 1.238 . S
O179 Co173 2.052 . S
O179 C175 1.241 . S
O180 Co168 2.137 . S
O180 C171 1.247 . S
O181 Co168 2.244 . S
O181 C171 1.272 . S
O181 Co173 2.135 . S
Co182 O183 2.216 . S
Co182 O184 2.091 . S
Co182 O186 2.004 . S
Co182 O192 2.021 . S
Co182 O194 2.137 . S
Co182 O195 2.244 . S
O183 Co182 2.216 . S
O183 C190 1.247 . S
O184 Co182 2.091 . S
O184 C190 1.261 . S
C185 O194 1.247 . S
C185 O195 1.272 . S
O186 Co182 2.004 . S
O186 C191 1.259 . S
Co187 O188 2.061 . S
Co187 O193 2.052 . S
Co187 O195 2.135 . S
O188 Co187 2.061 . S
O188 C191 1.235 . S
C189 O192 1.238 . S
C189 O193 1.241 . S
C190 O183 1.247 . S
C190 O184 1.261 . S
C191 O186 1.259 . S
C191 O188 1.235 . S
O192 Co182 2.021 . S
O192 C189 1.238 . S
O193 Co187 2.052 . S
O193 C189 1.241 . S
O194 Co182 2.137 . S
O194 C185 1.247 . S
O195 Co182 2.244 . S
O195 C185 1.272 . S
O195 Co187 2.135 . S
Co196 O197 2.216 . S
Co196 O198 2.091 . S
Co196 O200 2.004 . S
Co196 O206 2.021 . S
Co196 O208 2.137 . S
Co196 O209 2.244 . S
O197 Co196 2.216 . S
O197 C204 1.247 . S
O198 Co196 2.091 . S
O198 C204 1.261 . S
C199 O208 1.247 . S
C199 O209 1.272 . S
O200 Co196 2.004 . S
O200 C205 1.259 . S
Co201 O202 2.061 . S
Co201 O207 2.052 . S
Co201 O209 2.135 . S
O202 Co201 2.061 . S
O202 C205 1.235 . S
C203 O206 1.238 . S
C203 O207 1.241 . S
C204 O197 1.247 . S
C204 O198 1.261 . S
C205 O200 1.259 . S
C205 O202 1.235 . S
O206 Co196 2.021 . S
O206 C203 1.238 . S
O207 Co201 2.052 . S
O207 C203 1.241 . S
O208 Co196 2.137 . S
O208 C199 1.247 . S
O209 Co196 2.244 . S
O209 C199 1.272 . S
O209 Co201 2.135 . S
Co210 O211 2.216 . S
Co210 O212 2.091 1_565 S
Co210 O214 2.004 1_565 S
Co210 O220 2.021 . S
Co210 O222 2.137 . S
Co210 O223 2.244 . S
O211 Co210 2.216 . S
O211 C218 1.247 . S
O212 Co210 2.091 1_545 S
O212 C218 1.261 1_545 S
C213 O222 1.247 . S
C213 O223 1.272 . S
O214 Co210 2.004 1_545 S
O214 C219 1.259 1_545 S
Co215 O216 2.061 . S
Co215 O221 2.052 . S
Co215 O223 2.135 . S
O216 Co215 2.061 . S
O216 C219 1.235 . S
C217 O220 1.238 . S
C217 O221 1.241 . S
C218 O211 1.247 . S
C218 O212 1.261 1_565 S
C219 O214 1.259 1_565 S
C219 O216 1.235 . S
O220 Co210 2.021 . S
O220 C217 1.238 . S
O221 Co215 2.052 . S
O221 C217 1.241 . S
O222 Co210 2.137 . S
O222 C213 1.247 . S
O223 Co210 2.244 . S
O223 C213 1.272 . S
O223 Co215 2.135 . S
Co224 O225 2.216 . S
Co224 O226 2.091 . S
Co224 O228 2.004 . S
Co224 O234 2.021 . S
Co224 O236 2.137 . S
Co224 O237 2.244 . S
O225 Co224 2.216 . S
O225 C232 1.247 . S
O226 Co224 2.091 . S
O226 C232 1.261 . S
C227 O236 1.247 . S
C227 O237 1.272 . S
O228 Co224 2.004 . S
O228 C233 1.259 . S
Co229 O230 2.061 . S
Co229 O235 2.052 . S
Co229 O237 2.135 . S
O230 Co229 2.061 . S
O230 C233 1.235 . S
C231 O234 1.238 . S
C231 O235 1.241 . S
C232 O225 1.247 . S
C232 O226 1.261 . S
C233 O228 1.259 . S
C233 O230 1.235 . S
O234 Co224 2.021 . S
O234 C231 1.238 . S
O235 Co229 2.052 . S
O235 C231 1.241 . S
O236 Co224 2.137 . S
O236 C227 1.247 . S
O237 Co224 2.244 . S
O237 C227 1.272 . S
O237 Co229 2.135 . S
Co238 O239 2.216 . S
Co238 O240 2.091 . S
Co238 O242 2.004 . S
Co238 O248 2.021 . S
Co238 O250 2.137 . S
Co238 O251 2.244 . S
O239 Co238 2.216 . S
O239 C246 1.247 . S
O240 Co238 2.091 . S
O240 C246 1.261 . S
C241 O250 1.247 . S
C241 O251 1.272 . S
O242 Co238 2.004 . S
O242 C247 1.259 . S
Co243 O244 2.061 . S
Co243 O249 2.052 . S
Co243 O251 2.135 . S
O244 Co243 2.061 . S
O244 C247 1.235 . S
C245 O248 1.238 . S
C245 O249 1.241 . S
C246 O239 1.247 . S
C246 O240 1.261 . S
C247 O242 1.259 . S
C247 O244 1.235 . S
O248 Co238 2.021 . S
O248 C245 1.238 . S
O249 Co243 2.052 . S
O249 C245 1.241 . S
O250 Co238 2.137 . S
O250 C241 1.247 . S
O251 Co238 2.244 . S
O251 C241 1.272 . S
O251 Co243 2.135 . S
Co252 O253 2.216 . S
Co252 O254 2.091 . S
Co252 O256 2.004 . S
Co252 O262 2.021 . S
Co252 O264 2.137 . S
Co252 O265 2.244 . S
O253 Co252 2.216 . S
O253 C260 1.247 . S
O254 Co252 2.091 . S
O254 C260 1.261 . S
C255 O264 1.247 . S
C255 O265 1.272 . S
O256 Co252 2.004 . S
O256 C261 1.259 . S
Co257 O258 2.061 . S
Co257 O263 2.052 . S
Co257 O265 2.135 . S
O258 Co257 2.061 . S
O258 C261 1.235 . S
C259 O262 1.238 . S
C259 O263 1.241 . S
C260 O253 1.247 . S
C260 O254 1.261 . S
C261 O256 1.259 . S
C261 O258 1.235 . S
O262 Co252 2.021 . S
O262 C259 1.238 . S
O263 Co257 2.052 . S
O263 C259 1.241 . S
O264 Co252 2.137 . S
O264 C255 1.247 . S
O265 Co252 2.244 . S
O265 C255 1.272 . S
O265 Co257 2.135 . S
Co266 O267 2.216 . S
Co266 O268 2.091 . S
Co266 O270 2.004 1_565 S
Co266 O276 2.021 . S
Co266 O278 2.137 . S
Co266 O279 2.244 1_565 S
O267 Co266 2.216 . S
O267 C274 1.247 . S
O268 Co266 2.091 . S
O268 C274 1.261 . S
C269 O278 1.247 1_545 S
C269 O279 1.272 . S
O270 Co266 2.004 1_545 S
O270 C275 1.259 . S
Co271 O272 2.061 . S
Co271 O277 2.052 . S
Co271 O279 2.135 . S
O272 Co271 2.061 . S
O272 C275 1.235 . S
C273 O276 1.249 . S
C273 O277 1.227 1_565 S
C274 O267 1.247 . S
C274 O268 1.261 . S
C275 O270 1.259 . S
C275 O272 1.235 . S
O276 Co266 2.021 . S
O276 C273 1.249 . S
O277 Co271 2.052 . S
O277 C273 1.227 1_545 S
O278 Co266 2.137 . S
O278 C269 1.247 1_565 S
O279 Co266 2.244 1_545 S
O279 C269 1.272 . S
O279 Co271 2.135 . S
Co280 O281 2.216 1_556 S
Co280 O282 2.091 . S
Co280 O284 2.004 . S
Co280 O290 2.021 1_556 S
Co280 O292 2.137 . S
Co280 O293 2.244 . S
O281 Co280 2.216 1_554 S
O281 C288 1.247 . S
O282 Co280 2.091 . S
O282 C288 1.261 1_556 S
C283 O292 1.247 . S
C283 O293 1.272 . S
O284 Co280 2.004 . S
O284 C289 1.259 . S
Co285 O286 2.061 1_554 S
Co285 O291 2.052 . S
Co285 O293 2.135 1_554 S
O286 Co285 2.061 1_556 S
O286 C289 1.235 . S
C287 O290 1.238 . S
C287 O291 1.241 . S
C288 O281 1.247 . S
C288 O282 1.261 1_554 S
C289 O284 1.259 . S
C289 O286 1.235 . S
O290 Co280 2.021 1_554 S
O290 C287 1.238 . S
O291 Co285 2.052 . S
O291 C287 1.241 . S
O292 Co280 2.137 . S
O292 C283 1.247 . S
O293 Co280 2.244 . S
O293 C283 1.272 . S
O293 Co285 2.135 1_556 S
Co294 O295 2.216 . S
Co294 O296 2.091 . S
Co294 O298 2.004 . S
Co294 O304 2.021 . S
Co294 O306 2.137 . S
Co294 O307 2.244 . S
O295 Co294 2.216 . S
O295 C302 1.247 . S
O296 Co294 2.091 . S
O296 C302 1.261 . S
C297 O306 1.247 . S
C297 O307 1.272 . S
O298 Co294 2.004 . S
O298 C303 1.259 . S
Co299 O300 2.061 . S
Co299 O305 2.052 . S
Co299 O307 2.135 . S
O300 Co299 2.061 . S
O300 C303 1.235 . S
C301 O304 1.238 . S
C301 O305 1.241 . S
C302 O295 1.247 . S
C302 O296 1.261 . S
C303 O298 1.259 . S
C303 O300 1.235 . S
O304 Co294 2.021 . S
O304 C301 1.238 . S
O305 Co299 2.052 . S
O305 C301 1.241 . S
O306 Co294 2.137 . S
O306 C297 1.247 . S
O307 Co294 2.244 . S
O307 C297 1.272 . S
O307 Co299 2.135 . S
Co308 O309 2.216 . S
Co308 O310 2.091 . S
Co308 O312 2.004 . S
Co308 O318 2.021 . S
Co308 O320 2.137 . S
Co308 O321 2.244 . S
O309 Co308 2.216 . S
O309 C316 1.247 . S
O310 Co308 2.091 . S
O310 C316 1.261 . S
C311 O320 1.247 . S
C311 O321 1.272 . S
O312 Co308 2.004 . S
O312 C317 1.259 . S
Co313 O314 2.061 . S
Co313 O319 2.052 . S
Co313 O321 2.135 . S
O314 Co313 2.061 . S
O314 C317 1.235 . S
C315 O318 1.238 . S
C315 O319 1.241 . S
C316 O309 1.247 . S
C316 O310 1.261 . S
C317 O312 1.259 . S
C317 O314 1.235 . S
O318 Co308 2.021 . S
O318 C315 1.238 . S
O319 Co313 2.052 . S
O319 C315 1.241 . S
O320 Co308 2.137 . S
O320 C311 1.247 . S
O321 Co308 2.244 . S
O321 C311 1.272 . S
O321 Co313 2.135 . S
Co322 O323 2.216 . S
Co322 O324 2.091 . S
Co322 O326 2.004 . S
Co322 O332 2.021 . S
Co322 O334 2.137 . S
Co322 O335 2.244 . S
O323 Co322 2.216 . S
O323 C330 1.247 . S
O324 Co322 2.091 . S
O324 C330 1.261 . S
C325 O334 1.247 . S
C325 O335 1.272 . S
O326 Co322 2.004 . S
O326 C331 1.259 . S
Co327 O328 2.061 . S
Co327 O333 2.052 . S
Co327 O335 2.135 . S
O328 Co327 2.061 . S
O328 C331 1.235 . S
C329 O332 1.238 . S
C329 O333 1.241 . S
C330 O323 1.247 . S
C330 O324 1.261 . S
C331 O326 1.259 . S
C331 O328 1.235 . S
O332 Co322 2.021 . S
O332 C329 1.238 . S
O333 Co327 2.052 . S
O333 C329 1.241 . S
O334 Co322 2.137 . S
O334 C325 1.247 . S
O335 Co322 2.244 . S
O335 C325 1.272 . S
O335 Co327 2.135 . S
Nd336 C338 2.836 . S
Nd336 O356 2.500 . S
Nd336 O357 2.492 . S
Nd336 O358 2.487 . S
Nd336 O359 2.682 . S
Nd336 O360 2.410 . S
Nd336 O365 2.414 . S
Nd336 O367 2.424 . S
Nd337 C347 2.836 1_545 S
Nd337 O359 2.414 . S
Nd337 O361 2.424 1_455 S
Nd337 O362 2.500 1_545 S
Nd337 O363 2.492 . S
Nd337 O364 2.487 . S
Nd337 O365 2.682 . S
Nd337 O366 2.410 . S
C338 Nd336 2.836 . S
C338 C339 1.498 . S
C338 O356 1.258 . S
C338 O357 1.239 . S
C339 C338 1.498 . S
C339 C340 1.366 . S
C339 C344 1.407 . S
C340 C339 1.366 . S
C340 C341 1.392 . S
C340 H368 0.930 . S
C341 C340 1.392 . S
C341 C342 1.398 . S
C341 H369 0.929 . S
C342 C341 1.398 . S
C342 C343 1.352 . S
C343 C342 1.352 . S
C343 C344 1.384 . S
C343 H370 0.930 . S
C344 C339 1.407 . S
C344 C343 1.384 . S
C344 H371 0.929 . S
C345 O358 1.241 . S
C345 O359 1.273 . S
C346 O360 1.209 1_655 S
C346 O361 1.276 . S
C347 Nd337 2.836 1_565 S
C347 C348 1.498 . S
C347 O362 1.258 . S
C347 O363 1.239 1_565 S
C348 C347 1.498 . S
C348 C349 1.366 . S
C348 C353 1.407 . S
C349 C348 1.366 . S
C349 C350 1.392 . S
C349 H372 0.930 . S
C350 C349 1.392 . S
C350 C351 1.398 . S
C350 H373 0.929 . S
C351 C350 1.398 . S
C351 C352 1.352 . S
C352 C351 1.352 . S
C352 C353 1.384 . S
C352 H374 0.930 . S
C353 C348 1.407 . S
C353 C352 1.384 . S
C353 H375 0.929 . S
C354 O364 1.241 . S
C354 O365 1.273 . S
C355 O366 1.251 . S
C355 O367 1.268 . S
O356 Nd336 2.500 . S
O356 C338 1.258 . S
O357 Nd336 2.492 . S
O357 C338 1.239 . S
O358 Nd336 2.487 . S
O358 C345 1.241 . S
O359 Nd336 2.682 . S
O359 Nd337 2.414 . S
O359 C345 1.273 . S
O360 Nd336 2.410 . S
O360 C346 1.209 1_455 S
O361 Nd337 2.424 1_655 S
O361 C346 1.276 . S
O362 Nd337 2.500 1_565 S
O362 C347 1.258 . S
O363 Nd337 2.492 . S
O363 C347 1.239 1_545 S
O364 Nd337 2.487 . S
O364 C354 1.241 . S
O365 Nd336 2.414 . S
O365 Nd337 2.682 . S
O365 C354 1.273 . S
O366 Nd337 2.410 . S
O366 C355 1.251 . S
O367 Nd336 2.424 . S
O367 C355 1.268 . S
H368 C340 0.930 . S
H369 C341 0.929 . S
H370 C343 0.930 . S
H371 C344 0.929 . S
H372 C349 0.930 . S
H373 C350 0.929 . S
H374 C352 0.930 . S
H375 C353 0.929 . S
Nd376 C378 2.836 . S
Nd376 O396 2.500 . S
Nd376 O397 2.492 . S
Nd376 O398 2.487 . S
Nd376 O399 2.682 . S
Nd376 O400 2.410 . S
Nd376 O405 2.414 . S
Nd376 O407 2.424 . S
Nd377 C387 2.836 . S
Nd377 O399 2.414 . S
Nd377 O401 2.424 . S
Nd377 O402 2.500 . S
Nd377 O403 2.492 . S
Nd377 O404 2.487 . S
Nd377 O405 2.682 . S
Nd377 O406 2.410 . S
C378 Nd376 2.836 . S
C378 C379 1.498 . S
C378 O396 1.258 . S
C378 O397 1.239 . S
C379 C378 1.498 . S
C379 C380 1.366 . S
C379 C384 1.407 . S
C380 C379 1.366 . S
C380 C381 1.392 . S
C380 H408 0.930 . S
C381 C380 1.392 . S
C381 C382 1.398 . S
C381 H409 0.929 . S
C382 C381 1.398 . S
C382 C383 1.352 . S
C383 C382 1.352 . S
C383 C384 1.384 . S
C383 H410 0.930 . S
C384 C379 1.407 . S
C384 C383 1.384 . S
C384 H411 0.929 . S
C385 O398 1.241 . S
C385 O399 1.273 . S
C386 O400 1.251 . S
C386 O401 1.268 . S
C387 Nd377 2.836 . S
C387 C388 1.498 . S
C387 O402 1.258 . S
C387 O403 1.239 . S
C388 C387 1.498 . S
C388 C389 1.366 . S
C388 C393 1.407 . S
C389 C388 1.366 . S
C389 C390 1.392 . S
C389 H412 0.930 . S
C390 C389 1.392 . S
C390 C391 1.398 . S
C390 H413 0.929 . S
C391 C390 1.398 . S
C391 C392 1.352 . S
C392 C391 1.352 . S
C392 C393 1.384 . S
C392 H414 0.930 . S
C393 C388 1.407 . S
C393 C392 1.384 . S
C393 H415 0.929 . S
C394 O404 1.241 . S
C394 O405 1.273 . S
C395 O406 1.251 . S
C395 O407 1.268 . S
O396 Nd376 2.500 . S
O396 C378 1.258 . S
O397 Nd376 2.492 . S
O397 C378 1.239 . S
O398 Nd376 2.487 . S
O398 C385 1.241 . S
O399 Nd376 2.682 . S
O399 Nd377 2.414 . S
O399 C385 1.273 . S
O400 Nd376 2.410 . S
O400 C386 1.251 . S
O401 Nd377 2.424 . S
O401 C386 1.268 . S
O402 Nd377 2.500 . S
O402 C387 1.258 . S
O403 Nd377 2.492 . S
O403 C387 1.239 . S
O404 Nd377 2.487 . S
O404 C394 1.241 . S
O405 Nd376 2.414 . S
O405 Nd377 2.682 . S
O405 C394 1.273 . S
O406 Nd377 2.410 . S
O406 C395 1.251 . S
O407 Nd376 2.424 . S
O407 C395 1.268 . S
H408 C380 0.930 . S
H409 C381 0.929 . S
H410 C383 0.930 . S
H411 C384 0.929 . S
H412 C389 0.930 . S
H413 C390 0.929 . S
H414 C392 0.930 . S
H415 C393 0.929 . S
Nd416 C418 2.836 . S
Nd416 O436 2.500 . S
Nd416 O437 2.492 . S
Nd416 O438 2.487 . S
Nd416 O439 2.682 . S
Nd416 O440 2.410 . S
Nd416 O445 2.414 . S
Nd416 O447 2.424 . S
Nd417 C427 2.836 . S
Nd417 O439 2.414 . S
Nd417 O441 2.424 . S
Nd417 O442 2.500 . S
Nd417 O443 2.492 . S
Nd417 O444 2.487 . S
Nd417 O445 2.682 . S
Nd417 O446 2.410 . S
C418 Nd416 2.836 . S
C418 C419 1.498 . S
C418 O436 1.258 . S
C418 O437 1.239 . S
C419 C418 1.498 . S
C419 C420 1.366 . S
C419 C424 1.407 . S
C420 C419 1.366 . S
C420 C421 1.392 . S
C420 H448 0.930 . S
C421 C420 1.392 . S
C421 C422 1.398 . S
C421 H449 0.929 . S
C422 C421 1.398 . S
C422 C423 1.352 . S
C423 C422 1.352 . S
C423 C424 1.384 . S
C423 H450 0.930 . S
C424 C419 1.407 . S
C424 C423 1.384 . S
C424 H451 0.929 . S
C425 O438 1.241 . S
C425 O439 1.273 . S
C426 O440 1.251 . S
C426 O441 1.268 . S
C427 Nd417 2.836 . S
C427 C428 1.498 . S
C427 O442 1.258 . S
C427 O443 1.239 . S
C428 C427 1.498 . S
C428 C429 1.366 . S
C428 C433 1.407 . S
C429 C428 1.366 . S
C429 C430 1.392 . S
C429 H452 0.930 . S
C430 C429 1.392 . S
C430 C431 1.398 . S
C430 H453 0.929 . S
C431 C430 1.398 . S
C431 C432 1.352 . S
C432 C431 1.352 . S
C432 C433 1.384 . S
C432 H454 0.930 . S
C433 C428 1.407 . S
C433 C432 1.384 . S
C433 H455 0.929 . S
C434 O444 1.241 . S
C434 O445 1.273 . S
C435 O446 1.251 . S
C435 O447 1.268 . S
O436 Nd416 2.500 . S
O436 C418 1.258 . S
O437 Nd416 2.492 . S
O437 C418 1.239 . S
O438 Nd416 2.487 . S
O438 C425 1.241 . S
O439 Nd416 2.682 . S
O439 Nd417 2.414 . S
O439 C425 1.273 . S
O440 Nd416 2.410 . S
O440 C426 1.251 . S
O441 Nd417 2.424 . S
O441 C426 1.268 . S
O442 Nd417 2.500 . S
O442 C427 1.258 . S
O443 Nd417 2.492 . S
O443 C427 1.239 . S
O444 Nd417 2.487 . S
O444 C434 1.241 . S
O445 Nd416 2.414 . S
O445 Nd417 2.682 . S
O445 C434 1.273 . S
O446 Nd417 2.410 . S
O446 C435 1.251 . S
O447 Nd416 2.424 . S
O447 C435 1.268 . S
H448 C420 0.930 . S
H449 C421 0.929 . S
H450 C423 0.930 . S
H451 C424 0.929 . S
H452 C429 0.930 . S
H453 C430 0.929 . S
H454 C432 0.930 . S
H455 C433 0.929 . S
Nd456 C458 2.836 . S
Nd456 O476 2.500 . S
Nd456 O477 2.492 . S
Nd456 O478 2.487 . S
Nd456 O479 2.682 . S
Nd456 O480 2.410 . S
Nd456 O485 2.414 . S
Nd456 O487 2.424 . S
Nd457 C467 2.836 . S
Nd457 O479 2.414 . S
Nd457 O481 2.424 . S
Nd457 O482 2.500 . S
Nd457 O483 2.492 . S
Nd457 O484 2.487 . S
Nd457 O485 2.682 . S
Nd457 O486 2.410 . S
C458 Nd456 2.836 . S
C458 C459 1.498 . S
C458 O476 1.258 . S
C458 O477 1.239 . S
C459 C458 1.498 . S
C459 C460 1.366 . S
C459 C464 1.407 . S
C460 C459 1.366 . S
C460 C461 1.392 . S
C460 H488 0.930 . S
C461 C460 1.392 . S
C461 C462 1.398 . S
C461 H489 0.929 . S
C462 C461 1.398 . S
C462 C463 1.352 . S
C463 C462 1.352 . S
C463 C464 1.384 . S
C463 H490 0.930 . S
C464 C459 1.407 . S
C464 C463 1.384 . S
C464 H491 0.929 . S
C465 O478 1.241 . S
C465 O479 1.273 . S
C466 O480 1.251 . S
C466 O481 1.268 . S
C467 Nd457 2.836 . S
C467 C468 1.498 . S
C467 O482 1.258 . S
C467 O483 1.239 . S
C468 C467 1.498 . S
C468 C469 1.366 . S
C468 C473 1.407 . S
C469 C468 1.366 . S
C469 C470 1.392 . S
C469 H492 0.930 . S
C470 C469 1.392 . S
C470 C471 1.398 . S
C470 H493 0.929 . S
C471 C470 1.398 . S
C471 C472 1.352 . S
C472 C471 1.352 . S
C472 C473 1.384 . S
C472 H494 0.930 . S
C473 C468 1.407 . S
C473 C472 1.384 . S
C473 H495 0.929 . S
C474 O484 1.241 . S
C474 O485 1.273 . S
C475 O486 1.251 . S
C475 O487 1.268 . S
O476 Nd456 2.500 . S
O476 C458 1.258 . S
O477 Nd456 2.492 . S
O477 C458 1.239 . S
O478 Nd456 2.487 . S
O478 C465 1.241 . S
O479 Nd456 2.682 . S
O479 Nd457 2.414 . S
O479 C465 1.273 . S
O480 Nd456 2.410 . S
O480 C466 1.251 . S
O481 Nd457 2.424 . S
O481 C466 1.268 . S
O482 Nd457 2.500 . S
O482 C467 1.258 . S
O483 Nd457 2.492 . S
O483 C467 1.239 . S
O484 Nd457 2.487 . S
O484 C474 1.241 . S
O485 Nd456 2.414 . S
O485 Nd457 2.682 . S
O485 C474 1.273 . S
O486 Nd457 2.410 . S
O486 C475 1.251 . S
O487 Nd456 2.424 . S
O487 C475 1.268 . S
H488 C460 0.930 . S
H489 C461 0.929 . S
H490 C463 0.930 . S
H491 C464 0.929 . S
H492 C469 0.930 . S
H493 C470 0.929 . S
H494 C472 0.930 . S
H495 C473 0.929 . S
Nd496 C498 2.836 . S
Nd496 O516 2.500 . S
Nd496 O517 2.492 . S
Nd496 O518 2.487 . S
Nd496 O519 2.682 . S
Nd496 O520 2.410 . S
Nd496 O525 2.414 . S
Nd496 O527 2.424 . S
Nd497 C507 2.836 1_545 S
Nd497 O519 2.414 . S
Nd497 O521 2.424 . S
Nd497 O522 2.500 . S
Nd497 O523 2.492 1_545 S
Nd497 O524 2.487 1_455 S
Nd497 O525 2.682 . S
Nd497 O526 2.410 . S
C498 Nd496 2.836 . S
C498 C499 1.498 . S
C498 O516 1.258 . S
C498 O517 1.239 . S
C499 C498 1.498 . S
C499 C500 1.366 . S
C499 C504 1.407 . S
C500 C499 1.366 . S
C500 C501 1.392 1_455 S
C500 H528 0.930 1_455 S
C501 C500 1.392 1_655 S
C501 C502 1.398 1_655 S
C501 H529 0.929 . S
C502 C501 1.398 1_455 S
C502 C503 1.352 . S
C503 C502 1.352 . S
C503 C504 1.384 . S
C503 H530 0.930 . S
C504 C499 1.407 . S
C504 C503 1.384 . S
C504 H531 0.929 . S
C505 O518 1.241 . S
C505 O519 1.273 . S
C506 O520 1.251 . S
C506 O521 1.268 . S
C507 Nd497 2.836 1_565 S
C507 C508 1.498 . S
C507 O522 1.258 1_565 S
C507 O523 1.239 . S
C508 C507 1.498 . S
C508 C509 1.366 . S
C508 C513 1.407 . S
C509 C508 1.366 . S
C509 C510 1.392 . S
C509 H532 0.930 . S
C510 C509 1.392 . S
C510 C511 1.398 . S
C510 H533 0.929 . S
C511 C510 1.398 . S
C511 C512 1.352 . S
C512 C511 1.352 . S
C512 C513 1.384 . S
C512 H534 0.930 . S
C513 C508 1.407 . S
C513 C512 1.384 . S
C513 H535 0.929 . S
C514 O524 1.241 . S
C514 O525 1.273 1_655 S
C515 O526 1.251 . S
C515 O527 1.268 . S
O516 Nd496 2.500 . S
O516 C498 1.258 . S
O517 Nd496 2.492 . S
O517 C498 1.239 . S
O518 Nd496 2.487 . S
O518 C505 1.241 . S
O519 Nd496 2.682 . S
O519 Nd497 2.414 . S
O519 C505 1.273 . S
O520 Nd496 2.410 . S
O520 C506 1.251 . S
O521 Nd497 2.424 . S
O521 C506 1.268 . S
O522 Nd497 2.500 . S
O522 C507 1.258 1_545 S
O523 Nd497 2.492 1_565 S
O523 C507 1.239 . S
O524 Nd497 2.487 1_655 S
O524 C514 1.241 . S
O525 Nd496 2.414 . S
O525 Nd497 2.682 . S
O525 C514 1.273 1_455 S
O526 Nd497 2.410 . S
O526 C515 1.251 . S
O527 Nd496 2.424 . S
O527 C515 1.268 . S
H528 C500 0.930 1_655 S
H529 C501 0.929 . S
H530 C503 0.930 . S
H531 C504 0.929 . S
H532 C509 0.930 . S
H533 C510 0.929 . S
H534 C512 0.930 . S
H535 C513 0.929 . S
Nd536 C538 2.836 . S
Nd536 O556 2.500 . S
Nd536 O557 2.492 . S
Nd536 O558 2.487 . S
Nd536 O559 2.682 . S
Nd536 O560 2.410 . S
Nd536 O565 2.414 . S
Nd536 O567 2.424 . S
Nd537 C547 2.836 . S
Nd537 O559 2.414 . S
Nd537 O561 2.424 . S
Nd537 O562 2.500 . S
Nd537 O563 2.492 . S
Nd537 O564 2.487 . S
Nd537 O565 2.682 . S
Nd537 O566 2.410 . S
C538 Nd536 2.836 . S
C538 C539 1.498 . S
C538 O556 1.258 . S
C538 O557 1.239 . S
C539 C538 1.498 . S
C539 C540 1.366 . S
C539 C544 1.407 . S
C540 C539 1.366 . S
C540 C541 1.392 . S
C540 H568 0.930 . S
C541 C540 1.392 . S
C541 C542 1.398 . S
C541 H569 0.929 . S
C542 C541 1.398 . S
C542 C543 1.352 . S
C543 C542 1.352 . S
C543 C544 1.384 . S
C543 H570 0.930 . S
C544 C539 1.407 . S
C544 C543 1.384 . S
C544 H571 0.929 . S
C545 O558 1.241 . S
C545 O559 1.273 . S
C546 O560 1.251 . S
C546 O561 1.268 . S
C547 Nd537 2.836 . S
C547 C548 1.498 . S
C547 O562 1.258 . S
C547 O563 1.239 . S
C548 C547 1.498 . S
C548 C549 1.366 . S
C548 C553 1.407 . S
C549 C548 1.366 . S
C549 C550 1.392 . S
C549 H572 0.930 . S
C550 C549 1.392 . S
C550 C551 1.398 . S
C550 H573 0.929 . S
C551 C550 1.398 . S
C551 C552 1.352 . S
C552 C551 1.352 . S
C552 C553 1.384 . S
C552 H574 0.930 . S
C553 C548 1.407 . S
C553 C552 1.384 . S
C553 H575 0.929 . S
C554 O564 1.241 . S
C554 O565 1.273 . S
C555 O566 1.251 . S
C555 O567 1.268 . S
O556 Nd536 2.500 . S
O556 C538 1.258 . S
O557 Nd536 2.492 . S
O557 C538 1.239 . S
O558 Nd536 2.487 . S
O558 C545 1.241 . S
O559 Nd536 2.682 . S
O559 Nd537 2.414 . S
O559 C545 1.273 . S
O560 Nd536 2.410 . S
O560 C546 1.251 . S
O561 Nd537 2.424 . S
O561 C546 1.268 . S
O562 Nd537 2.500 . S
O562 C547 1.258 . S
O563 Nd537 2.492 . S
O563 C547 1.239 . S
O564 Nd537 2.487 . S
O564 C554 1.241 . S
O565 Nd536 2.414 . S
O565 Nd537 2.682 . S
O565 C554 1.273 . S
O566 Nd537 2.410 . S
O566 C555 1.251 . S
O567 Nd536 2.424 . S
O567 C555 1.268 . S
H568 C540 0.930 . S
H569 C541 0.929 . S
H570 C543 0.930 . S
H571 C544 0.929 . S
H572 C549 0.930 . S
H573 C550 0.929 . S
H574 C552 0.930 . S
H575 C553 0.929 . S
Nd576 C578 2.836 . S
Nd576 O596 2.500 . S
Nd576 O597 2.492 . S
Nd576 O598 2.487 . S
Nd576 O599 2.682 . S
Nd576 O600 2.410 . S
Nd576 O605 2.414 . S
Nd576 O607 2.424 . S
Nd577 C587 2.836 . S
Nd577 O599 2.414 . S
Nd577 O601 2.424 . S
Nd577 O602 2.500 . S
Nd577 O603 2.492 . S
Nd577 O604 2.487 . S
Nd577 O605 2.682 . S
Nd577 O606 2.410 . S
C578 Nd576 2.836 . S
C578 C579 1.498 . S
C578 O596 1.258 . S
C578 O597 1.239 . S
C579 C578 1.498 . S
C579 C580 1.366 . S
C579 C584 1.407 . S
C580 C579 1.366 . S
C580 C581 1.392 . S
C580 H608 0.930 . S
C581 C580 1.392 . S
C581 C582 1.398 . S
C581 H609 0.929 . S
C582 C581 1.398 . S
C582 C583 1.352 . S
C583 C582 1.352 . S
C583 C584 1.384 . S
C583 H610 0.930 1_545 S
C584 C579 1.407 . S
C584 C583 1.384 . S
C584 H611 0.929 1_545 S
C585 O598 1.241 . S
C585 O599 1.273 . S
C586 O600 1.251 . S
C586 O601 1.268 . S
C587 Nd577 2.836 . S
C587 C588 1.498 . S
C587 O602 1.258 . S
C587 O603 1.239 . S
C588 C587 1.498 . S
C588 C589 1.366 . S
C588 C593 1.407 . S
C589 C588 1.366 . S
C589 C590 1.392 . S
C589 H612 0.930 . S
C590 C589 1.392 . S
C590 C591 1.398 . S
C590 H613 0.929 . S
C591 C590 1.398 . S
C591 C592 1.352 . S
C592 C591 1.352 . S
C592 C593 1.384 . S
C592 H614 0.930 . S
C593 C588 1.407 . S
C593 C592 1.384 . S
C593 H615 0.929 . S
C594 O604 1.241 . S
C594 O605 1.273 . S
C595 O606 1.251 . S
C595 O607 1.268 . S
O596 Nd576 2.500 . S
O596 C578 1.258 . S
O597 Nd576 2.492 . S
O597 C578 1.239 . S
O598 Nd576 2.487 . S
O598 C585 1.241 . S
O599 Nd576 2.682 . S
O599 Nd577 2.414 . S
O599 C585 1.273 . S
O600 Nd576 2.410 . S
O600 C586 1.251 . S
O601 Nd577 2.424 . S
O601 C586 1.268 . S
O602 Nd577 2.500 . S
O602 C587 1.258 . S
O603 Nd577 2.492 . S
O603 C587 1.239 . S
O604 Nd577 2.487 . S
O604 C594 1.241 . S
O605 Nd576 2.414 . S
O605 Nd577 2.682 . S
O605 C594 1.273 . S
O606 Nd577 2.410 . S
O606 C595 1.251 . S
O607 Nd576 2.424 . S
O607 C595 1.268 . S
H608 C580 0.930 . S
H609 C581 0.929 . S
H610 C583 0.930 1_565 S
H611 C584 0.929 1_565 S
H612 C589 0.930 . S
H613 C590 0.929 . S
H614 C592 0.930 . S
H615 C593 0.929 . S
Nd616 C618 2.836 . S
Nd616 O636 2.500 . S
Nd616 O637 2.492 . S
Nd616 O638 2.487 . S
Nd616 O639 2.682 . S
Nd616 O640 2.410 . S
Nd616 O645 2.414 . S
Nd616 O647 2.424 . S
Nd617 C627 2.836 . S
Nd617 O639 2.414 . S
Nd617 O641 2.424 . S
Nd617 O642 2.500 . S
Nd617 O643 2.492 . S
Nd617 O644 2.487 . S
Nd617 O645 2.682 . S
Nd617 O646 2.410 . S
C618 Nd616 2.836 . S
C618 C619 1.498 . S
C618 O636 1.258 . S
C618 O637 1.239 . S
C619 C618 1.498 . S
C619 C620 1.366 . S
C619 C624 1.407 . S
C620 C619 1.366 . S
C620 C621 1.392 . S
C620 H648 0.930 . S
C621 C620 1.392 . S
C621 C622 1.398 . S
C621 H649 0.929 . S
C622 C621 1.398 . S
C622 C623 1.352 . S
C623 C622 1.352 . S
C623 C624 1.384 . S
C623 H650 0.930 . S
C624 C619 1.407 . S
C624 C623 1.384 . S
C624 H651 0.929 . S
C625 O638 1.241 . S
C625 O639 1.273 . S
C626 O640 1.251 . S
C626 O641 1.268 . S
C627 Nd617 2.836 . S
C627 C628 1.498 . S
C627 O642 1.258 . S
C627 O643 1.239 . S
C628 C627 1.498 . S
C628 C629 1.366 . S
C628 C633 1.407 . S
C629 C628 1.366 . S
C629 C630 1.392 . S
C629 H652 0.930 . S
C630 C629 1.392 . S
C630 C631 1.398 . S
C630 H653 0.929 . S
C631 C630 1.398 . S
C631 C632 1.352 . S
C632 C631 1.352 . S
C632 C633 1.384 . S
C632 H654 0.930 . S
C633 C628 1.407 . S
C633 C632 1.384 . S
C633 H655 0.929 . S
C634 O644 1.241 . S
C634 O645 1.273 . S
C635 O646 1.251 . S
C635 O647 1.268 . S
O636 Nd616 2.500 . S
O636 C618 1.258 . S
O637 Nd616 2.492 . S
O637 C618 1.239 . S
O638 Nd616 2.487 . S
O638 C625 1.241 . S
O639 Nd616 2.682 . S
O639 Nd617 2.414 . S
O639 C625 1.273 . S
O640 Nd616 2.410 . S
O640 C626 1.251 . S
O641 Nd617 2.424 . S
O641 C626 1.268 . S
O642 Nd617 2.500 . S
O642 C627 1.258 . S
O643 Nd617 2.492 . S
O643 C627 1.239 . S
O644 Nd617 2.487 . S
O644 C634 1.241 . S
O645 Nd616 2.414 . S
O645 Nd617 2.682 . S
O645 C634 1.273 . S
O646 Nd617 2.410 . S
O646 C635 1.251 . S
O647 Nd616 2.424 . S
O647 C635 1.268 . S
H648 C620 0.930 . S
H649 C621 0.929 . S
H650 C623 0.930 . S
H651 C624 0.929 . S
H652 C629 0.930 . S
H653 C630 0.929 . S
H654 C632 0.930 . S
H655 C633 0.929 . S
Nd656 C658 2.836 . S
Nd656 O676 2.500 . S
Nd656 O677 2.492 . S
Nd656 O678 2.487 . S
Nd656 O679 2.682 . S
Nd656 O680 2.410 . S
Nd656 O685 2.414 . S
Nd656 O687 2.424 . S
Nd657 C667 2.836 . S
Nd657 O679 2.414 . S
Nd657 O681 2.424 . S
Nd657 O682 2.500 . S
Nd657 O683 2.492 . S
Nd657 O684 2.487 . S
Nd657 O685 2.682 . S
Nd657 O686 2.410 . S
C658 Nd656 2.836 . S
C658 C659 1.498 . S
C658 O676 1.258 . S
C658 O677 1.239 . S
C659 C658 1.498 . S
C659 C660 1.366 . S
C659 C664 1.407 . S
C660 C659 1.366 . S
C660 C661 1.392 . S
C660 H688 0.930 . S
C661 C660 1.392 . S
C661 C662 1.398 . S
C661 H689 0.929 . S
C662 C661 1.398 . S
C662 C663 1.352 . S
C663 C662 1.352 . S
C663 C664 1.384 . S
C663 H690 0.930 . S
C664 C659 1.407 . S
C664 C663 1.384 . S
C664 H691 0.929 . S
C665 O678 1.241 . S
C665 O679 1.273 . S
C666 O680 1.251 . S
C666 O681 1.268 . S
C667 Nd657 2.836 . S
C667 C668 1.498 . S
C667 O682 1.258 . S
C667 O683 1.239 . S
C668 C667 1.498 . S
C668 C669 1.366 . S
C668 C673 1.407 . S
C669 C668 1.366 . S
C669 C670 1.392 . S
C669 H692 0.930 . S
C670 C669 1.392 . S
C670 C671 1.398 . S
C670 H693 0.929 . S
C671 C670 1.398 . S
C671 C672 1.352 . S
C672 C671 1.352 . S
C672 C673 1.384 . S
C672 H694 0.930 . S
C673 C668 1.407 . S
C673 C672 1.384 . S
C673 H695 0.929 . S
C674 O684 1.241 . S
C674 O685 1.273 . S
C675 O686 1.251 . S
C675 O687 1.268 . S
O676 Nd656 2.500 . S
O676 C658 1.258 . S
O677 Nd656 2.492 . S
O677 C658 1.239 . S
O678 Nd656 2.487 . S
O678 C665 1.241 . S
O679 Nd656 2.682 . S
O679 Nd657 2.414 . S
O679 C665 1.273 . S
O680 Nd656 2.410 . S
O680 C666 1.251 . S
O681 Nd657 2.424 . S
O681 C666 1.268 . S
O682 Nd657 2.500 . S
O682 C667 1.258 . S
O683 Nd657 2.492 . S
O683 C667 1.239 . S
O684 Nd657 2.487 . S
O684 C674 1.241 . S
O685 Nd656 2.414 . S
O685 Nd657 2.682 . S
O685 C674 1.273 . S
O686 Nd657 2.410 . S
O686 C675 1.251 . S
O687 Nd656 2.424 . S
O687 C675 1.268 . S
H688 C660 0.930 . S
H689 C661 0.929 . S
H690 C663 0.930 . S
H691 C664 0.929 . S
H692 C669 0.930 . S
H693 C670 0.929 . S
H694 C672 0.930 . S
H695 C673 0.929 . S
Nd696 C698 2.836 . S
Nd696 O716 2.500 . S
Nd696 O717 2.492 . S
Nd696 O718 2.487 . S
Nd696 O719 2.682 . S
Nd696 O720 2.410 . S
Nd696 O725 2.414 . S
Nd696 O727 2.424 . S
Nd697 C707 2.836 . S
Nd697 O719 2.414 . S
Nd697 O721 2.424 . S
Nd697 O722 2.500 . S
Nd697 O723 2.492 . S
Nd697 O724 2.487 . S
Nd697 O725 2.682 . S
Nd697 O726 2.410 . S
C698 Nd696 2.836 . S
C698 C699 1.498 . S
C698 O716 1.258 . S
C698 O717 1.239 . S
C699 C698 1.498 . S
C699 C700 1.366 . S
C699 C704 1.407 . S
C700 C699 1.366 . S
C700 C701 1.392 . S
C700 H728 0.930 . S
C701 C700 1.392 . S
C701 C702 1.398 . S
C701 H729 0.929 . S
C702 C701 1.398 . S
C702 C703 1.352 . S
C703 C702 1.352 . S
C703 C704 1.384 . S
C703 H730 0.930 . S
C704 C699 1.407 . S
C704 C703 1.384 . S
C704 H731 0.929 . S
C705 O718 1.241 . S
C705 O719 1.273 . S
C706 O720 1.251 . S
C706 O721 1.268 . S
C707 Nd697 2.836 . S
C707 C708 1.498 . S
C707 O722 1.258 . S
C707 O723 1.239 . S
C708 C707 1.498 . S
C708 C709 1.366 . S
C708 C713 1.407 . S
C709 C708 1.366 . S
C709 C710 1.392 . S
C709 H732 0.930 . S
C710 C709 1.392 . S
C710 C711 1.398 . S
C710 H733 0.929 . S
C711 C710 1.398 . S
C711 C712 1.352 . S
C712 C711 1.352 . S
C712 C713 1.384 . S
C712 H734 0.930 . S
C713 C708 1.407 . S
C713 C712 1.384 . S
C713 H735 0.929 . S
C714 O724 1.241 . S
C714 O725 1.273 . S
C715 O726 1.251 . S
C715 O727 1.268 . S
O716 Nd696 2.500 . S
O716 C698 1.258 . S
O717 Nd696 2.492 . S
O717 C698 1.239 . S
O718 Nd696 2.487 . S
O718 C705 1.241 . S
O719 Nd696 2.682 . S
O719 Nd697 2.414 . S
O719 C705 1.273 . S
O720 Nd696 2.410 . S
O720 C706 1.251 . S
O721 Nd697 2.424 . S
O721 C706 1.268 . S
O722 Nd697 2.500 . S
O722 C707 1.258 . S
O723 Nd697 2.492 . S
O723 C707 1.239 . S
O724 Nd697 2.487 . S
O724 C714 1.241 . S
O725 Nd696 2.414 . S
O725 Nd697 2.682 . S
O725 C714 1.273 . S
O726 Nd697 2.410 . S
O726 C715 1.251 . S
O727 Nd696 2.424 . S
O727 C715 1.268 . S
H728 C700 0.930 . S
H729 C701 0.929 . S
H730 C703 0.930 . S
H731 C704 0.929 . S
H732 C709 0.930 . S
H733 C710 0.929 . S
H734 C712 0.930 . S
H735 C713 0.929 . S
Nd736 C738 2.826 1_455 S
Nd736 O756 2.490 1_455 S
Nd736 O757 2.484 1_455 S
Nd736 O758 2.492 . S
Nd736 O759 2.691 . S
Nd736 O760 2.409 . S
Nd736 O765 2.417 . S
Nd736 O767 2.432 . S
Nd737 C747 2.836 . S
Nd737 O759 2.414 . S
Nd737 O761 2.424 . S
Nd737 O762 2.500 . S
Nd737 O763 2.492 . S
Nd737 O764 2.487 . S
Nd737 O765 2.682 . S
Nd737 O766 2.410 . S
C738 Nd736 2.826 1_655 S
C738 C739 1.498 . S
C738 O756 1.258 . S
C738 O757 1.239 . S
C739 C738 1.498 . S
C739 C740 1.366 . S
C739 C744 1.407 . S
C740 C739 1.366 . S
C740 C741 1.392 . S
C740 H768 0.930 . S
C741 C740 1.392 . S
C741 C742 1.398 . S
C741 H769 0.929 . S
C742 C741 1.398 . S
C742 C743 1.352 . S
C743 C742 1.352 . S
C743 C744 1.384 . S
C743 H770 0.930 . S
C744 C739 1.407 . S
C744 C743 1.384 . S
C744 H771 0.929 . S
C745 O758 1.241 . S
C745 O759 1.273 . S
C746 O760 1.251 . S
C746 O761 1.268 . S
C747 Nd737 2.836 . S
C747 C748 1.498 . S
C747 O762 1.258 . S
C747 O763 1.239 . S
C748 C747 1.498 . S
C748 C749 1.366 . S
C748 C753 1.407 . S
C749 C748 1.366 . S
C749 C750 1.392 . S
C749 H772 0.930 . S
C750 C749 1.392 . S
C750 C751 1.398 . S
C750 H773 0.929 . S
C751 C750 1.398 . S
C751 C752 1.352 . S
C752 C751 1.352 . S
C752 C753 1.384 . S
C752 H774 0.930 . S
C753 C748 1.407 . S
C753 C752 1.384 . S
C753 H775 0.929 . S
C754 O764 1.241 . S
C754 O765 1.273 . S
C755 O766 1.251 . S
C755 O767 1.268 . S
O756 Nd736 2.490 1_655 S
O756 C738 1.258 . S
O757 Nd736 2.484 1_655 S
O757 C738 1.239 . S
O758 Nd736 2.492 . S
O758 C745 1.241 . S
O759 Nd736 2.691 . S
O759 Nd737 2.414 . S
O759 C745 1.273 . S
O760 Nd736 2.409 . S
O760 C746 1.251 . S
O761 Nd737 2.424 . S
O761 C746 1.268 . S
O762 Nd737 2.500 . S
O762 C747 1.258 . S
O763 Nd737 2.492 . S
O763 C747 1.239 . S
O764 Nd737 2.487 . S
O764 C754 1.241 . S
O765 Nd736 2.417 . S
O765 Nd737 2.682 . S
O765 C754 1.273 . S
O766 Nd737 2.410 . S
O766 C755 1.251 . S
O767 Nd736 2.432 . S
O767 C755 1.268 . S
H768 C740 0.930 . S
H769 C741 0.929 . S
H770 C743 0.930 . S
H771 C744 0.929 . S
H772 C749 0.930 . S
H773 C750 0.929 . S
H774 C752 0.930 . S
H775 C753 0.929 . S
Nd776 C778 2.836 . S
Nd776 O796 2.500 . S
Nd776 O797 2.492 . S
Nd776 O798 2.487 . S
Nd776 O799 2.682 . S
Nd776 O800 2.410 . S
Nd776 O805 2.414 . S
Nd776 O807 2.424 . S
Nd777 C787 2.836 . S
Nd777 O799 2.414 . S
Nd777 O801 2.424 . S
Nd777 O802 2.500 . S
Nd777 O803 2.492 . S
Nd777 O804 2.487 . S
Nd777 O805 2.682 . S
Nd777 O806 2.410 . S
C778 Nd776 2.836 . S
C778 C779 1.498 . S
C778 O796 1.258 . S
C778 O797 1.239 . S
C779 C778 1.498 . S
C779 C780 1.366 . S
C779 C784 1.407 . S
C780 C779 1.366 . S
C780 C781 1.392 . S
C780 H808 0.930 . S
C781 C780 1.392 . S
C781 C782 1.398 . S
C781 H809 0.929 . S
C782 C781 1.398 . S
C782 C783 1.352 . S
C783 C782 1.352 . S
C783 C784 1.384 . S
C783 H810 0.930 . S
C784 C779 1.407 . S
C784 C783 1.384 . S
C784 H811 0.929 . S
C785 O798 1.241 . S
C785 O799 1.273 . S
C786 O800 1.251 . S
C786 O801 1.268 . S
C787 Nd777 2.836 . S
C787 C788 1.498 . S
C787 O802 1.258 . S
C787 O803 1.239 . S
C788 C787 1.498 . S
C788 C789 1.366 . S
C788 C793 1.407 . S
C789 C788 1.366 . S
C789 C790 1.392 . S
C789 H812 0.930 . S
C790 C789 1.392 . S
C790 C791 1.398 . S
C790 H813 0.929 . S
C791 C790 1.398 . S
C791 C792 1.352 . S
C792 C791 1.352 . S
C792 C793 1.384 . S
C792 H814 0.930 . S
C793 C788 1.407 . S
C793 C792 1.384 . S
C793 H815 0.929 . S
C794 O804 1.241 . S
C794 O805 1.273 . S
C795 O806 1.251 . S
C795 O807 1.268 . S
O796 Nd776 2.500 . S
O796 C778 1.258 . S
O797 Nd776 2.492 . S
O797 C778 1.239 . S
O798 Nd776 2.487 . S
O798 C785 1.241 . S
O799 Nd776 2.682 . S
O799 Nd777 2.414 . S
O799 C785 1.273 . S
O800 Nd776 2.410 . S
O800 C786 1.251 . S
O801 Nd777 2.424 . S
O801 C786 1.268 . S
O802 Nd777 2.500 . S
O802 C787 1.258 . S
O803 Nd777 2.492 . S
O803 C787 1.239 . S
O804 Nd777 2.487 . S
O804 C794 1.241 . S
O805 Nd776 2.414 . S
O805 Nd777 2.682 . S
O805 C794 1.273 . S
O806 Nd777 2.410 . S
O806 C795 1.251 . S
O807 Nd776 2.424 . S
O807 C795 1.268 . S
H808 C780 0.930 . S
H809 C781 0.929 . S
H810 C783 0.930 . S
H811 C784 0.929 . S
H812 C789 0.930 . S
H813 C790 0.929 . S
H814 C792 0.930 . S
H815 C793 0.929 . S
Nd816 C818 2.836 . S
Nd816 O836 2.500 . S
Nd816 O837 2.492 . S
Nd816 O838 2.487 . S
Nd816 O839 2.682 . S
Nd816 O840 2.410 . S
Nd816 O845 2.414 . S
Nd816 O847 2.424 . S
Nd817 C827 2.836 . S
Nd817 O839 2.414 . S
Nd817 O841 2.424 . S
Nd817 O842 2.500 . S
Nd817 O843 2.492 . S
Nd817 O844 2.487 . S
Nd817 O845 2.682 . S
Nd817 O846 2.410 . S
C818 Nd816 2.836 . S
C818 C819 1.498 . S
C818 O836 1.258 . S
C818 O837 1.239 . S
C819 C818 1.498 . S
C819 C820 1.366 . S
C819 C824 1.407 . S
C820 C819 1.366 . S
C820 C821 1.392 . S
C820 H848 0.930 . S
C821 C820 1.392 . S
C821 C822 1.398 . S
C821 H849 0.929 . S
C822 C821 1.398 . S
C822 C823 1.352 . S
C823 C822 1.352 . S
C823 C824 1.384 . S
C823 H850 0.930 . S
C824 C819 1.407 . S
C824 C823 1.384 . S
C824 H851 0.929 . S
C825 O838 1.241 . S
C825 O839 1.273 . S
C826 O840 1.251 . S
C826 O841 1.268 . S
C827 Nd817 2.836 . S
C827 C828 1.498 . S
C827 O842 1.258 . S
C827 O843 1.239 . S
C828 C827 1.498 . S
C828 C829 1.366 . S
C828 C833 1.407 . S
C829 C828 1.366 . S
C829 C830 1.392 . S
C829 H852 0.930 . S
C830 C829 1.392 . S
C830 C831 1.398 . S
C830 H853 0.929 . S
C831 C830 1.398 . S
C831 C832 1.352 . S
C832 C831 1.352 . S
C832 C833 1.384 . S
C832 H854 0.930 . S
C833 C828 1.407 . S
C833 C832 1.384 . S
C833 H855 0.929 . S
C834 O844 1.241 . S
C834 O845 1.273 . S
C835 O846 1.251 . S
C835 O847 1.268 . S
O836 Nd816 2.500 . S
O836 C818 1.258 . S
O837 Nd816 2.492 . S
O837 C818 1.239 . S
O838 Nd816 2.487 . S
O838 C825 1.241 . S
O839 Nd816 2.682 . S
O839 Nd817 2.414 . S
O839 C825 1.273 . S
O840 Nd816 2.410 . S
O840 C826 1.251 . S
O841 Nd817 2.424 . S
O841 C826 1.268 . S
O842 Nd817 2.500 . S
O842 C827 1.258 . S
O843 Nd817 2.492 . S
O843 C827 1.239 . S
O844 Nd817 2.487 . S
O844 C834 1.241 . S
O845 Nd816 2.414 . S
O845 Nd817 2.682 . S
O845 C834 1.273 . S
O846 Nd817 2.410 . S
O846 C835 1.251 . S
O847 Nd816 2.424 . S
O847 C835 1.268 . S
H848 C820 0.930 . S
H849 C821 0.929 . S
H850 C823 0.930 . S
H851 C824 0.929 . S
H852 C829 0.930 . S
H853 C830 0.929 . S
H854 C832 0.930 . S
H855 C833 0.929 . S
Nd856 C858 2.836 . S
Nd856 O876 2.500 . S
Nd856 O877 2.492 . S
Nd856 O878 2.487 . S
Nd856 O879 2.682 . S
Nd856 O880 2.410 . S
Nd856 O885 2.414 . S
Nd856 O887 2.424 . S
Nd857 C867 2.836 . S
Nd857 O879 2.414 . S
Nd857 O881 2.424 . S
Nd857 O882 2.500 . S
Nd857 O883 2.492 . S
Nd857 O884 2.487 . S
Nd857 O885 2.682 . S
Nd857 O886 2.410 . S
C858 Nd856 2.836 . S
C858 C859 1.498 . S
C858 O876 1.258 . S
C858 O877 1.239 . S
C859 C858 1.498 . S
C859 C860 1.366 . S
C859 C864 1.407 . S
C860 C859 1.366 . S
C860 C861 1.392 . S
C860 H888 0.930 . S
C861 C860 1.392 . S
C861 C862 1.398 . S
C861 H889 0.929 . S
C862 C861 1.398 . S
C862 C863 1.352 . S
C863 C862 1.352 . S
C863 C864 1.384 . S
C863 H890 0.930 . S
C864 C859 1.407 . S
C864 C863 1.384 . S
C864 H891 0.929 . S
C865 O878 1.241 . S
C865 O879 1.273 . S
C866 O880 1.251 . S
C866 O881 1.268 . S
C867 Nd857 2.836 . S
C867 C868 1.498 . S
C867 O882 1.258 . S
C867 O883 1.239 . S
C868 C867 1.498 . S
C868 C869 1.366 . S
C868 C873 1.407 . S
C869 C868 1.366 . S
C869 C870 1.392 . S
C869 H892 0.930 . S
C870 C869 1.392 . S
C870 C871 1.398 . S
C870 H893 0.929 . S
C871 C870 1.398 . S
C871 C872 1.352 . S
C872 C871 1.352 . S
C872 C873 1.384 . S
C872 H894 0.930 . S
C873 C868 1.407 . S
C873 C872 1.384 . S
C873 H895 0.929 . S
C874 O884 1.241 . S
C874 O885 1.273 . S
C875 O886 1.251 . S
C875 O887 1.268 . S
O876 Nd856 2.500 . S
O876 C858 1.258 . S
O877 Nd856 2.492 . S
O877 C858 1.239 . S
O878 Nd856 2.487 . S
O878 C865 1.241 . S
O879 Nd856 2.682 . S
O879 Nd857 2.414 . S
O879 C865 1.273 . S
O880 Nd856 2.410 . S
O880 C866 1.251 . S
O881 Nd857 2.424 . S
O881 C866 1.268 . S
O882 Nd857 2.500 . S
O882 C867 1.258 . S
O883 Nd857 2.492 . S
O883 C867 1.239 . S
O884 Nd857 2.487 . S
O884 C874 1.241 . S
O885 Nd856 2.414 . S
O885 Nd857 2.682 . S
O885 C874 1.273 . S
O886 Nd857 2.410 . S
O886 C875 1.251 . S
O887 Nd856 2.424 . S
O887 C875 1.268 . S
H888 C860 0.930 . S
H889 C861 0.929 . S
H890 C863 0.930 . S
H891 C864 0.929 . S
H892 C869 0.930 . S
H893 C870 0.929 . S
H894 C872 0.930 . S
H895 C873 0.929 . S
Nd896 C898 2.836 . S
Nd896 O916 2.500 . S
Nd896 O917 2.492 . S
Nd896 O918 2.487 . S
Nd896 O919 2.682 . S
Nd896 O920 2.410 . S
Nd896 O925 2.414 . S
Nd896 O927 2.424 . S
Nd897 C907 2.836 . S
Nd897 O919 2.414 . S
Nd897 O921 2.424 . S
Nd897 O922 2.500 . S
Nd897 O923 2.492 . S
Nd897 O924 2.487 . S
Nd897 O925 2.682 . S
Nd897 O926 2.410 . S
C898 Nd896 2.836 . S
C898 C899 1.498 . S
C898 O916 1.258 . S
C898 O917 1.239 . S
C899 C898 1.498 . S
C899 C900 1.366 . S
C899 C904 1.407 . S
C900 C899 1.366 . S
C900 C901 1.392 . S
C900 H928 0.930 . S
C901 C900 1.392 . S
C901 C902 1.398 . S
C901 H929 0.929 . S
C902 C901 1.398 . S
C902 C903 1.352 . S
C903 C902 1.352 . S
C903 C904 1.384 . S
C903 H930 0.930 . S
C904 C899 1.407 . S
C904 C903 1.384 . S
C904 H931 0.929 . S
C905 O918 1.241 . S
C905 O919 1.273 . S
C906 O920 1.251 . S
C906 O921 1.268 . S
C907 Nd897 2.836 . S
C907 C908 1.498 . S
C907 O922 1.258 . S
C907 O923 1.239 . S
C908 C907 1.498 . S
C908 C909 1.366 . S
C908 C913 1.407 . S
C909 C908 1.366 . S
C909 C910 1.392 . S
C909 H932 0.930 . S
C910 C909 1.392 . S
C910 C911 1.398 . S
C910 H933 0.929 . S
C911 C910 1.398 . S
C911 C912 1.352 . S
C912 C911 1.352 . S
C912 C913 1.384 . S
C912 H934 0.930 . S
C913 C908 1.407 . S
C913 C912 1.384 . S
C913 H935 0.929 . S
C914 O924 1.241 . S
C914 O925 1.273 . S
C915 O926 1.251 . S
C915 O927 1.268 . S
O916 Nd896 2.500 . S
O916 C898 1.258 . S
O917 Nd896 2.492 . S
O917 C898 1.239 . S
O918 Nd896 2.487 . S
O918 C905 1.241 . S
O919 Nd896 2.682 . S
O919 Nd897 2.414 . S
O919 C905 1.273 . S
O920 Nd896 2.410 . S
O920 C906 1.251 . S
O921 Nd897 2.424 . S
O921 C906 1.268 . S
O922 Nd897 2.500 . S
O922 C907 1.258 . S
O923 Nd897 2.492 . S
O923 C907 1.239 . S
O924 Nd897 2.487 . S
O924 C914 1.241 . S
O925 Nd896 2.414 . S
O925 Nd897 2.682 . S
O925 C914 1.273 . S
O926 Nd897 2.410 . S
O926 C915 1.251 . S
O927 Nd896 2.424 . S
O927 C915 1.268 . S
H928 C900 0.930 . S
H929 C901 0.929 . S
H930 C903 0.930 . S
H931 C904 0.929 . S
H932 C909 0.930 . S
H933 C910 0.929 . S
H934 C912 0.930 . S
H935 C913 0.929 . S
Nd936 C938 2.836 . S
Nd936 O956 2.500 . S
Nd936 O957 2.492 . S
Nd936 O958 2.487 . S
Nd936 O959 2.682 . S
Nd936 O960 2.410 . S
Nd936 O965 2.414 . S
Nd936 O967 2.424 . S
Nd937 C947 2.836 . S
Nd937 O959 2.414 1_655 S
Nd937 O961 2.424 1_655 S
Nd937 O962 2.500 . S
Nd937 O963 2.492 . S
Nd937 O964 2.487 1_655 S
Nd937 O965 2.682 1_655 S
Nd937 O966 2.410 1_655 S
C938 Nd936 2.836 . S
C938 C939 1.498 . S
C938 O956 1.258 . S
C938 O957 1.239 . S
C939 C938 1.498 . S
C939 C940 1.366 . S
C939 C944 1.407 . S
C940 C939 1.366 . S
C940 C941 1.392 . S
C940 H968 0.930 . S
C941 C940 1.392 . S
C941 C942 1.398 . S
C941 H969 0.929 . S
C942 C941 1.398 . S
C942 C943 1.352 . S
C943 C942 1.352 . S
C943 C944 1.384 . S
C943 H970 0.930 . S
C944 C939 1.407 . S
C944 C943 1.384 . S
C944 H971 0.929 . S
C945 O958 1.241 . S
C945 O959 1.273 . S
C946 O960 1.251 . S
C946 O961 1.268 . S
C947 Nd937 2.836 . S
C947 C948 1.498 . S
C947 O962 1.258 . S
C947 O963 1.239 . S
C948 C947 1.498 . S
C948 C949 1.366 . S
C948 C953 1.407 . S
C949 C948 1.366 . S
C949 C950 1.392 . S
C949 H972 0.930 . S
C950 C949 1.392 . S
C950 C951 1.398 . S
C950 H973 0.929 . S
C951 C950 1.398 . S
C951 C952 1.352 . S
C952 C951 1.352 . S
C952 C953 1.384 . S
C952 H974 0.930 . S
C953 C948 1.407 . S
C953 C952 1.384 . S
C953 H975 0.929 . S
C954 O964 1.241 . S
C954 O965 1.273 . S
C955 O966 1.251 . S
C955 O967 1.268 . S
O956 Nd936 2.500 . S
O956 C938 1.258 . S
O957 Nd936 2.492 . S
O957 C938 1.239 . S
O958 Nd936 2.487 . S
O958 C945 1.241 . S
O959 Nd936 2.682 . S
O959 Nd937 2.414 1_455 S
O959 C945 1.273 . S
O960 Nd936 2.410 . S
O960 C946 1.251 . S
O961 Nd937 2.424 1_455 S
O961 C946 1.268 . S
O962 Nd937 2.500 . S
O962 C947 1.258 . S
O963 Nd937 2.492 . S
O963 C947 1.239 . S
O964 Nd937 2.487 1_455 S
O964 C954 1.241 . S
O965 Nd936 2.414 . S
O965 Nd937 2.682 1_455 S
O965 C954 1.273 . S
O966 Nd937 2.410 1_455 S
O966 C955 1.251 . S
O967 Nd936 2.424 . S
O967 C955 1.268 . S
H968 C940 0.930 . S
H969 C941 0.929 . S
H970 C943 0.930 . S
H971 C944 0.929 . S
H972 C949 0.930 . S
H973 C950 0.929 . S
H974 C952 0.930 . S
H975 C953 0.929 . S
H976 C984 0.950 . S
H977 C989 0.950 . S
H978 C986 0.950 1_554 S
H979 C988 0.950 . S
H980 C990 0.950 . S
H981 C992 0.950 1_556 S
H982 C994 0.950 . S
H983 C995 0.950 . S
C984 H976 0.950 . S
C984 C985 1.386 . S
C984 C986 1.391 . S
C985 C984 1.386 . S
C985 C989 1.393 . S
C986 H978 0.950 1_556 S
C986 C984 1.391 . S
C986 C987 1.400 . S
C987 C986 1.400 . S
C987 C988 1.398 . S
C987 C993 1.491 1_556 S
C988 H979 0.950 . S
C988 C987 1.398 . S
C988 C989 1.391 . S
C989 H977 0.950 . S
C989 C985 1.393 . S
C989 C988 1.391 . S
C990 H980 0.950 . S
C990 C991 1.386 . S
C990 C992 1.391 . S
C991 C990 1.386 . S
C991 C995 1.393 . S
C992 H981 0.950 1_554 S
C992 C990 1.391 . S
C992 C993 1.400 . S
C993 C987 1.491 1_554 S
C993 C992 1.400 . S
C993 C994 1.398 . S
C994 H982 0.950 . S
C994 C993 1.398 . S
C994 C995 1.391 . S
C995 H983 0.950 . S
C995 C991 1.393 . S
C995 C994 1.391 . S
H996 C1004 0.950 . S
H997 C1009 0.950 . S
H998 C1006 0.950 . S
H999 C1008 0.950 . S
H1000 C1010 0.950 . S
H1001 C1012 0.950 . S
H1002 C1014 0.950 . S
H1003 C1015 0.950 . S
C1004 H996 0.950 . S
C1004 C1005 1.386 . S
C1004 C1006 1.391 . S
C1005 C1004 1.386 . S
C1005 C1009 1.393 . S
C1006 H998 0.950 . S
C1006 C1004 1.391 . S
C1006 C1007 1.400 . S
C1007 C1006 1.400 . S
C1007 C1008 1.398 . S
C1007 C1013 1.491 . S
C1008 H999 0.950 . S
C1008 C1007 1.398 . S
C1008 C1009 1.391 . S
C1009 H997 0.950 . S
C1009 C1005 1.393 . S
C1009 C1008 1.391 . S
C1010 H1000 0.950 . S
C1010 C1011 1.386 . S
C1010 C1012 1.391 . S
C1011 C1010 1.386 . S
C1011 C1015 1.393 . S
C1012 H1001 0.950 . S
C1012 C1010 1.391 . S
C1012 C1013 1.400 . S
C1013 C1007 1.491 . S
C1013 C1012 1.400 . S
C1013 C1014 1.398 . S
C1014 H1002 0.950 . S
C1014 C1013 1.398 . S
C1014 C1015 1.391 . S
C1015 H1003 0.950 . S
C1015 C1011 1.393 . S
C1015 C1014 1.391 . S
H1016 C1024 0.950 . S
H1017 C1029 0.950 . S
H1018 C1026 0.950 . S
H1019 C1028 0.950 . S
H1020 C1030 0.930 1_545 S
H1021 C1032 0.950 . S
H1022 C1034 0.950 . S
H1023 C1035 0.950 . S
C1024 H1016 0.950 . S
C1024 C1025 1.386 . S
C1024 C1026 1.391 . S
C1025 C1024 1.386 . S
C1025 C1029 1.393 . S
C1026 H1018 0.950 . S
C1026 C1024 1.391 . S
C1026 C1027 1.400 . S
C1027 C1026 1.400 . S
C1027 C1028 1.398 . S
C1027 C1033 1.491 . S
C1028 H1019 0.950 . S
C1028 C1027 1.398 . S
C1028 C1029 1.391 . S
C1029 H1017 0.950 . S
C1029 C1025 1.393 . S
C1029 C1028 1.391 . S
C1030 H1020 0.930 1_565 S
C1030 C1031 1.384 . S
C1030 C1032 1.413 . S
C1031 C1030 1.384 . S
C1031 C1035 1.399 . S
C1032 H1021 0.950 . S
C1032 C1030 1.413 . S
C1032 C1033 1.400 . S
C1033 C1027 1.491 . S
C1033 C1032 1.400 . S
C1033 C1034 1.398 . S
C1034 H1022 0.950 . S
C1034 C1033 1.398 . S
C1034 C1035 1.391 . S
C1035 H1023 0.950 . S
C1035 C1031 1.399 . S
C1035 C1034 1.391 . S
H1036 C1044 0.950 . S
H1037 C1049 0.950 . S
H1038 C1046 0.950 . S
H1039 C1048 0.950 . S
H1040 C1050 0.950 . S
H1041 C1052 0.950 . S
H1042 C1054 0.950 . S
H1043 C1055 0.950 . S
C1044 H1036 0.950 . S
C1044 C1045 1.386 . S
C1044 C1046 1.391 . S
C1045 C1044 1.386 . S
C1045 C1049 1.393 . S
C1046 H1038 0.950 . S
C1046 C1044 1.391 . S
C1046 C1047 1.400 . S
C1047 C1046 1.400 . S
C1047 C1048 1.398 . S
C1047 C1053 1.491 . S
C1048 H1039 0.950 . S
C1048 C1047 1.398 . S
C1048 C1049 1.391 . S
C1049 H1037 0.950 . S
C1049 C1045 1.393 . S
C1049 C1048 1.391 . S
C1050 H1040 0.950 . S
C1050 C1051 1.386 . S
C1050 C1052 1.391 . S
C1051 C1050 1.386 . S
C1051 C1055 1.393 . S
C1052 H1041 0.950 . S
C1052 C1050 1.391 . S
C1052 C1053 1.400 . S
C1053 C1047 1.491 . S
C1053 C1052 1.400 . S
C1053 C1054 1.398 . S
C1054 H1042 0.950 . S
C1054 C1053 1.398 . S
C1054 C1055 1.391 . S
C1055 H1043 0.950 . S
C1055 C1051 1.393 . S
C1055 C1054 1.391 . S
H1056 C1064 0.950 . S
H1057 C1069 0.950 . S
H1058 C1066 0.950 . S
H1059 C1068 0.950 1_655 S
H1060 C1070 0.950 . S
H1061 C1072 0.950 . S
H1062 C1074 0.950 . S
H1063 C1075 0.950 . S
C1064 H1056 0.950 . S
C1064 C1065 1.386 . S
C1064 C1066 1.391 . S
C1065 C1064 1.386 . S
C1065 C1069 1.393 1_455 S
C1066 H1058 0.950 . S
C1066 C1064 1.391 . S
C1066 C1067 1.400 . S
C1067 C1066 1.400 . S
C1067 C1068 1.398 . S
C1067 C1073 1.491 . S
C1068 H1059 0.950 1_455 S
C1068 C1067 1.398 . S
C1068 C1069 1.391 1_455 S
C1069 H1057 0.950 . S
C1069 C1065 1.393 1_655 S
C1069 C1068 1.391 1_655 S
C1070 H1060 0.950 . S
C1070 C1071 1.386 . S
C1070 C1072 1.391 . S
C1071 C1070 1.386 . S
C1071 C1075 1.393 . S
C1072 H1061 0.950 . S
C1072 C1070 1.391 . S
C1072 C1073 1.400 . S
C1073 C1067 1.491 . S
C1073 C1072 1.400 . S
C1073 C1074 1.398 . S
C1074 H1062 0.950 . S
C1074 C1073 1.398 . S
C1074 C1075 1.391 . S
C1075 H1063 0.950 . S
C1075 C1071 1.393 . S
C1075 C1074 1.391 . S
H1076 C1084 0.950 . S
H1077 C1089 0.969 . S
H1078 C1086 0.950 . S
H1079 C1088 0.950 . S
H1080 C1090 0.950 . S
H1081 C1092 0.950 . S
H1082 C1094 0.950 . S
H1083 C1095 0.950 . S
C1084 H1076 0.950 . S
C1084 C1085 1.386 . S
C1084 C1086 1.391 . S
C1085 C1084 1.386 . S
C1085 C1089 1.393 . S
C1086 H1078 0.950 . S
C1086 C1084 1.391 . S
C1086 C1087 1.400 . S
C1087 C1086 1.400 . S
C1087 C1088 1.398 . S
C1087 C1093 1.491 . S
C1088 H1079 0.950 . S
C1088 C1087 1.398 . S
C1088 C1089 1.391 . S
C1089 H1077 0.969 . S
C1089 C1085 1.393 . S
C1089 C1088 1.391 . S
C1090 H1080 0.950 . S
C1090 C1091 1.386 . S
C1090 C1092 1.391 . S
C1091 C1090 1.386 . S
C1091 C1095 1.393 . S
C1092 H1081 0.950 . S
C1092 C1090 1.391 . S
C1092 C1093 1.400 . S
C1093 C1087 1.491 . S
C1093 C1092 1.400 . S
C1093 C1094 1.398 . S
C1094 H1082 0.950 . S
C1094 C1093 1.398 . S
C1094 C1095 1.391 . S
C1095 H1083 0.950 . S
C1095 C1091 1.393 . S
C1095 C1094 1.391 . S
H1096 C1104 0.950 . S
H1097 C1109 0.950 . S
H1098 C1106 0.950 . S
H1099 C1108 0.950 . S
H1100 C1110 0.950 . S
H1101 C1112 0.950 . S
H1102 C1114 0.950 . S
H1103 C1115 0.950 . S
C1104 H1096 0.950 . S
C1104 C1105 1.386 . S
C1104 C1106 1.391 . S
C1105 C1104 1.386 . S
C1105 C1109 1.393 . S
C1106 H1098 0.950 . S
C1106 C1104 1.391 . S
C1106 C1107 1.400 . S
C1107 C1106 1.400 . S
C1107 C1108 1.398 . S
C1107 C1113 1.491 . S
C1108 H1099 0.950 . S
C1108 C1107 1.398 . S
C1108 C1109 1.391 . S
C1109 H1097 0.950 . S
C1109 C1105 1.393 . S
C1109 C1108 1.391 . S
C1110 H1100 0.950 . S
C1110 C1111 1.386 . S
C1110 C1112 1.391 . S
C1111 C1110 1.386 . S
C1111 C1115 1.393 . S
C1112 H1101 0.950 . S
C1112 C1110 1.391 . S
C1112 C1113 1.400 . S
C1113 C1107 1.491 . S
C1113 C1112 1.400 . S
C1113 C1114 1.398 . S
C1114 H1102 0.950 . S
C1114 C1113 1.398 . S
C1114 C1115 1.391 . S
C1115 H1103 0.950 . S
C1115 C1111 1.393 . S
C1115 C1114 1.391 . S
H1116 C1124 0.950 . S
H1117 C1129 0.950 . S
H1118 C1126 0.950 . S
H1119 C1128 0.950 . S
H1120 C1130 0.950 . S
H1121 C1132 0.950 . S
H1122 C1134 0.950 . S
H1123 C1135 0.950 . S
C1124 H1116 0.950 . S
C1124 C1125 1.386 . S
C1124 C1126 1.391 . S
C1125 C1124 1.386 . S
C1125 C1129 1.393 . S
C1126 H1118 0.950 . S
C1126 C1124 1.391 . S
C1126 C1127 1.400 . S
C1127 C1126 1.400 . S
C1127 C1128 1.398 . S
C1127 C1133 1.491 . S
C1128 H1119 0.950 . S
C1128 C1127 1.398 . S
C1128 C1129 1.391 . S
C1129 H1117 0.950 . S
C1129 C1125 1.393 . S
C1129 C1128 1.391 . S
C1130 H1120 0.950 . S
C1130 C1131 1.386 . S
C1130 C1132 1.391 . S
C1131 C1130 1.386 . S
C1131 C1135 1.393 . S
C1132 H1121 0.950 . S
C1132 C1130 1.391 . S
C1132 C1133 1.400 . S
C1133 C1127 1.491 . S
C1133 C1132 1.400 . S
C1133 C1134 1.398 . S
C1134 H1122 0.950 . S
C1134 C1133 1.398 . S
C1134 C1135 1.391 . S
C1135 H1123 0.950 . S
C1135 C1131 1.393 . S
C1135 C1134 1.391 . S
H1136 C1144 0.950 . S
H1137 C1149 0.950 . S
H1138 C1146 0.950 . S
H1139 C1148 0.950 . S
H1140 C1150 0.950 . S
H1141 C1152 0.950 . S
H1142 C1154 0.950 . S
H1143 C1155 0.950 . S
C1144 H1136 0.950 . S
C1144 C1145 1.386 . S
C1144 C1146 1.391 . S
C1145 C1144 1.386 . S
C1145 C1149 1.393 . S
C1146 H1138 0.950 . S
C1146 C1144 1.391 . S
C1146 C1147 1.400 . S
C1147 C1146 1.400 . S
C1147 C1148 1.398 . S
C1147 C1153 1.491 . S
C1148 H1139 0.950 . S
C1148 C1147 1.398 . S
C1148 C1149 1.391 . S
C1149 H1137 0.950 . S
C1149 C1145 1.393 . S
C1149 C1148 1.391 . S
C1150 H1140 0.950 . S
C1150 C1151 1.386 1_655 S
C1150 C1152 1.391 . S
C1151 C1150 1.386 1_455 S
C1151 C1155 1.393 . S
C1152 H1141 0.950 . S
C1152 C1150 1.391 . S
C1152 C1153 1.400 . S
C1153 C1147 1.491 . S
C1153 C1152 1.400 . S
C1153 C1154 1.398 . S
C1154 H1142 0.950 . S
C1154 C1153 1.398 . S
C1154 C1155 1.391 1_655 S
C1155 H1143 0.950 . S
C1155 C1151 1.393 . S
C1155 C1154 1.391 1_455 S
H1156 C1164 0.950 . S
H1157 C1169 0.950 . S
H1158 C1166 0.950 . S
H1159 C1168 0.950 . S
H1160 C1170 0.950 . S
H1161 C1172 0.950 . S
H1162 C1174 0.950 . S
H1163 C1175 0.950 . S
C1164 H1156 0.950 . S
C1164 C1165 1.386 . S
C1164 C1166 1.391 . S
C1165 C1164 1.386 . S
C1165 C1169 1.393 . S
C1166 H1158 0.950 . S
C1166 C1164 1.391 . S
C1166 C1167 1.400 . S
C1167 C1166 1.400 . S
C1167 C1168 1.398 . S
C1167 C1173 1.491 . S
C1168 H1159 0.950 . S
C1168 C1167 1.398 . S
C1168 C1169 1.391 . S
C1169 H1157 0.950 . S
C1169 C1165 1.393 . S
C1169 C1168 1.391 . S
C1170 H1160 0.950 . S
C1170 C1171 1.386 . S
C1170 C1172 1.391 . S
C1171 C1170 1.386 . S
C1171 C1175 1.393 . S
C1172 H1161 0.950 . S
C1172 C1170 1.391 . S
C1172 C1173 1.400 . S
C1173 C1167 1.491 . S
C1173 C1172 1.400 . S
C1173 C1174 1.398 . S
C1174 H1162 0.950 . S
C1174 C1173 1.398 . S
C1174 C1175 1.391 . S
C1175 H1163 0.950 . S
C1175 C1171 1.393 . S
C1175 C1174 1.391 . S
H1176 C1184 0.950 . S
H1177 C1189 0.950 . S
H1178 C1186 0.950 . S
H1179 C1188 0.942 1_565 S
H1180 C1190 0.950 . S
H1181 C1192 0.950 . S
H1182 C1194 0.950 . S
H1183 C1195 0.950 . S
C1184 H1176 0.950 . S
C1184 C1185 1.386 . S
C1184 C1186 1.391 . S
C1185 C1184 1.386 . S
C1185 C1189 1.393 1_545 S
C1186 H1178 0.950 . S
C1186 C1184 1.391 . S
C1186 C1187 1.400 . S
C1187 C1186 1.400 . S
C1187 C1188 1.424 . S
C1187 C1193 1.491 . S
C1188 H1179 0.942 1_545 S
C1188 C1187 1.424 . S
C1188 C1189 1.374 1_545 S
C1189 H1177 0.950 . S
C1189 C1185 1.393 1_565 S
C1189 C1188 1.374 1_565 S
C1190 H1180 0.950 . S
C1190 C1191 1.386 . S
C1190 C1192 1.391 . S
C1191 C1190 1.386 . S
C1191 C1195 1.393 . S
C1192 H1181 0.950 . S
C1192 C1190 1.391 . S
C1192 C1193 1.400 . S
C1193 C1187 1.491 . S
C1193 C1192 1.400 . S
C1193 C1194 1.398 . S
C1194 H1182 0.950 . S
C1194 C1193 1.398 . S
C1194 C1195 1.391 . S
C1195 H1183 0.950 . S
C1195 C1191 1.393 . S
C1195 C1194 1.391 . S
H1196 C1204 0.950 . S
H1197 C1209 0.950 . S
H1198 C1206 0.950 . S
H1199 C1208 0.950 . S
H1200 C1210 0.950 . S
H1201 C1212 0.949 . S
H1202 C1214 0.950 . S
H1203 C1215 0.950 . S
C1204 H1196 0.950 . S
C1204 C1205 1.386 . S
C1204 C1206 1.391 . S
C1205 C1204 1.386 . S
C1205 C1209 1.393 . S
C1206 H1198 0.950 . S
C1206 C1204 1.391 . S
C1206 C1207 1.400 . S
C1207 C1206 1.400 . S
C1207 C1208 1.398 . S
C1207 C1213 1.491 . S
C1208 H1199 0.950 . S
C1208 C1207 1.398 . S
C1208 C1209 1.391 . S
C1209 H1197 0.950 . S
C1209 C1205 1.393 . S
C1209 C1208 1.391 . S
C1210 H1200 0.950 . S
C1210 C1211 1.386 . S
C1210 C1212 1.389 . S
C1211 C1210 1.386 . S
C1211 C1215 1.393 1_556 S
C1212 H1201 0.949 . S
C1212 C1210 1.389 . S
C1212 C1213 1.403 1_556 S
C1213 C1207 1.491 . S
C1213 C1212 1.403 1_554 S
C1213 C1214 1.398 . S
C1214 H1202 0.950 . S
C1214 C1213 1.398 . S
C1214 C1215 1.391 . S
C1215 H1203 0.950 . S
C1215 C1211 1.393 1_554 S
C1215 C1214 1.391 . S
H1216 C1224 0.950 . S
H1217 C1229 0.950 . S
H1218 C1226 0.950 . S
H1219 C1228 0.950 . S
H1220 C1230 0.950 . S
H1221 C1232 0.950 . S
H1222 C1234 0.950 . S
H1223 C1235 0.943 1_455 S
C1224 H1216 0.950 . S
C1224 C1225 1.386 . S
C1224 C1226 1.391 . S
C1225 C1224 1.386 . S
C1225 C1229 1.393 . S
C1226 H1218 0.950 . S
C1226 C1224 1.391 . S
C1226 C1227 1.400 . S
C1227 C1226 1.400 . S
C1227 C1228 1.398 . S
C1227 C1233 1.491 . S
C1228 H1219 0.950 . S
C1228 C1227 1.398 . S
C1228 C1229 1.391 . S
C1229 H1217 0.950 . S
C1229 C1225 1.393 . S
C1229 C1228 1.391 . S
C1230 H1220 0.950 . S
C1230 C1231 1.386 . S
C1230 C1232 1.391 . S
C1231 C1230 1.386 . S
C1231 C1235 1.392 . S
C1232 H1221 0.950 . S
C1232 C1230 1.391 . S
C1232 C1233 1.400 . S
C1233 C1227 1.491 . S
C1233 C1232 1.400 . S
C1233 C1234 1.398 . S
C1234 H1222 0.950 . S
C1234 C1233 1.398 . S
C1234 C1235 1.399 . S
C1235 H1223 0.943 1_655 S
C1235 C1231 1.392 . S
C1235 C1234 1.399 . S
H1236 C1244 0.950 . S
H1237 C1249 0.950 . S
H1238 C1246 0.950 . S
H1239 C1248 0.950 . S
H1240 C1250 0.950 . S
H1241 C1252 0.950 . S
H1242 C1254 0.950 . S
H1243 C1255 0.950 . S
C1244 H1236 0.950 . S
C1244 C1245 1.386 . S
C1244 C1246 1.391 . S
C1245 C1244 1.386 . S
C1245 C1249 1.393 . S
C1246 H1238 0.950 . S
C1246 C1244 1.391 . S
C1246 C1247 1.400 . S
C1247 C1246 1.400 . S
C1247 C1248 1.398 . S
C1247 C1253 1.491 . S
C1248 H1239 0.950 . S
C1248 C1247 1.398 . S
C1248 C1249 1.391 . S
C1249 H1237 0.950 . S
C1249 C1245 1.393 . S
C1249 C1248 1.391 . S
C1250 H1240 0.950 . S
C1250 C1251 1.386 . S
C1250 C1252 1.391 . S
C1251 C1250 1.386 . S
C1251 C1255 1.393 . S
C1252 H1241 0.950 . S
C1252 C1250 1.391 . S
C1252 C1253 1.400 . S
C1253 C1247 1.491 . S
C1253 C1252 1.400 . S
C1253 C1254 1.398 . S
C1254 H1242 0.950 . S
C1254 C1253 1.398 . S
C1254 C1255 1.391 . S
C1255 H1243 0.950 . S
C1255 C1251 1.393 . S
C1255 C1254 1.391 . S
H1256 C1264 0.950 . S
H1257 C1269 0.950 . S
H1258 C1266 0.950 . S
H1259 C1268 0.950 1_565 S
H1260 C1270 0.950 1_554 S
H1261 C1272 0.950 . S
H1262 C1274 0.950 . S
H1263 C1275 0.950 . S
C1264 H1256 0.950 . S
C1264 C1265 1.386 . S
C1264 C1266 1.391 . S
C1265 C1264 1.386 . S
C1265 C1269 1.393 1_545 S
C1266 H1258 0.950 . S
C1266 C1264 1.391 . S
C1266 C1267 1.400 . S
C1267 C1266 1.400 . S
C1267 C1268 1.398 . S
C1267 C1273 1.491 . S
C1268 H1259 0.950 1_545 S
C1268 C1267 1.398 . S
C1268 C1269 1.391 1_545 S
C1269 H1257 0.950 . S
C1269 C1265 1.393 1_565 S
C1269 C1268 1.391 1_565 S
C1270 H1260 0.950 1_556 S
C1270 C1271 1.386 . S
C1270 C1272 1.391 . S
C1271 C1270 1.386 . S
C1271 C1275 1.393 . S
C1272 H1261 0.950 . S
C1272 C1270 1.391 . S
C1272 C1273 1.400 . S
C1273 C1267 1.491 . S
C1273 C1272 1.400 . S
C1273 C1274 1.398 . S
C1274 H1262 0.950 . S
C1274 C1273 1.398 . S
C1274 C1275 1.391 . S
C1275 H1263 0.950 . S
C1275 C1271 1.393 . S
C1275 C1274 1.391 . S
H1276 C1284 0.950 . S
H1277 C1289 0.950 . S
H1278 C1286 0.950 . S
H1279 C1288 0.950 . S
H1280 C1290 0.950 . S
H1281 C1292 0.950 . S
H1282 C1294 0.950 . S
H1283 C1295 0.950 . S
C1284 H1276 0.950 . S
C1284 C1285 1.386 . S
C1284 C1286 1.391 . S
C1285 C1284 1.386 . S
C1285 C1289 1.393 . S
C1286 H1278 0.950 . S
C1286 C1284 1.391 . S
C1286 C1287 1.400 . S
C1287 C1286 1.400 . S
C1287 C1288 1.398 . S
C1287 C1293 1.491 . S
C1288 H1279 0.950 . S
C1288 C1287 1.398 . S
C1288 C1289 1.391 . S
C1289 H1277 0.950 . S
C1289 C1285 1.393 . S
C1289 C1288 1.391 . S
C1290 H1280 0.950 . S
C1290 C1291 1.386 . S
C1290 C1292 1.391 . S
C1291 C1290 1.386 . S
C1291 C1295 1.393 . S
C1292 H1281 0.950 . S
C1292 C1290 1.391 . S
C1292 C1293 1.400 . S
C1293 C1287 1.491 . S
C1293 C1292 1.400 . S
C1293 C1294 1.398 . S
C1294 H1282 0.950 . S
C1294 C1293 1.398 . S
C1294 C1295 1.391 . S
C1295 H1283 0.950 . S
C1295 C1291 1.393 . S
C1295 C1294 1.391 . S
H1296 C1304 0.950 . S
H1297 C1309 0.950 . S
H1298 C1306 0.950 . S
H1299 C1308 0.950 . S
H1300 C1310 0.950 . S
H1301 C1312 0.950 . S
H1302 C1314 0.950 . S
H1303 C1315 0.950 . S
C1304 H1296 0.950 . S
C1304 C1305 1.386 . S
C1304 C1306 1.391 . S
C1305 C1304 1.386 . S
C1305 C1309 1.393 . S
C1306 H1298 0.950 . S
C1306 C1304 1.391 . S
C1306 C1307 1.400 . S
C1307 C1306 1.400 . S
C1307 C1308 1.398 . S
C1307 C1313 1.491 . S
C1308 H1299 0.950 . S
C1308 C1307 1.398 . S
C1308 C1309 1.391 . S
C1309 H1297 0.950 . S
C1309 C1305 1.393 . S
C1309 C1308 1.391 . S
C1310 H1300 0.950 . S
C1310 C1311 1.386 . S
C1310 C1312 1.391 . S
C1311 C1310 1.386 . S
C1311 C1315 1.393 . S
C1312 H1301 0.950 . S
C1312 C1310 1.391 . S
C1312 C1313 1.400 1_545 S
C1313 C1307 1.491 . S
C1313 C1312 1.400 1_565 S
C1313 C1314 1.398 . S
C1314 H1302 0.950 . S
C1314 C1313 1.398 . S
C1314 C1315 1.391 1_565 S
C1315 H1303 0.950 . S
C1315 C1311 1.393 . S
C1315 C1314 1.391 1_545 S
H1316 C1324 0.950 . S
H1317 C1329 0.950 . S
H1318 C1326 0.950 . S
H1319 C1328 0.950 . S
H1320 C1330 0.950 . S
H1321 C1332 0.950 . S
H1322 C1334 0.950 1_556 S
H1323 C1335 0.950 . S
C1324 H1316 0.950 . S
C1324 C1325 1.407 . S
C1324 C1326 1.391 . S
C1325 C1324 1.407 . S
C1325 C1329 1.346 1_556 S
C1326 H1318 0.950 . S
C1326 C1324 1.391 . S
C1326 C1327 1.400 1_556 S
C1327 C1326 1.400 1_554 S
C1327 C1328 1.398 . S
C1327 C1333 1.491 . S
C1328 H1319 0.950 . S
C1328 C1327 1.398 . S
C1328 C1329 1.391 . S
C1329 H1317 0.950 . S
C1329 C1325 1.346 1_554 S
C1329 C1328 1.391 . S
C1330 H1320 0.950 . S
C1330 C1331 1.386 . S
C1330 C1332 1.391 . S
C1331 C1330 1.386 . S
C1331 C1335 1.393 . S
C1332 H1321 0.950 . S
C1332 C1330 1.391 . S
C1332 C1333 1.400 . S
C1333 C1327 1.491 . S
C1333 C1332 1.400 . S
C1333 C1334 1.398 . S
C1334 H1322 0.950 1_554 S
C1334 C1333 1.398 . S
C1334 C1335 1.391 . S
C1335 H1323 0.950 . S
C1335 C1331 1.393 . S
C1335 C1334 1.391 . S
H1336 C1344 0.950 . S
H1337 C1349 0.950 . S
H1338 C1346 0.950 . S
H1339 C1348 0.950 . S
H1340 C1350 0.950 . S
H1341 C1352 0.950 . S
H1342 C1354 0.950 . S
H1343 C1355 0.950 . S
C1344 H1336 0.950 . S
C1344 C1345 1.386 . S
C1344 C1346 1.391 . S
C1345 C1344 1.386 . S
C1345 C1349 1.393 . S
C1346 H1338 0.950 . S
C1346 C1344 1.391 . S
C1346 C1347 1.400 . S
C1347 C1346 1.400 . S
C1347 C1348 1.398 . S
C1347 C1353 1.491 . S
C1348 H1339 0.950 . S
C1348 C1347 1.398 . S
C1348 C1349 1.391 . S
C1349 H1337 0.950 . S
C1349 C1345 1.393 . S
C1349 C1348 1.391 . S
C1350 H1340 0.950 . S
C1350 C1351 1.386 . S
C1350 C1352 1.391 . S
C1351 C1350 1.386 . S
C1351 C1355 1.393 . S
C1352 H1341 0.950 . S
C1352 C1350 1.391 . S
C1352 C1353 1.400 . S
C1353 C1347 1.491 . S
C1353 C1352 1.400 . S
C1353 C1354 1.398 . S
C1354 H1342 0.950 . S
C1354 C1353 1.398 . S
C1354 C1355 1.391 . S
C1355 H1343 0.950 . S
C1355 C1351 1.393 . S
C1355 C1354 1.391 . S
H1356 C1364 0.950 . S
H1357 C1369 0.950 . S
H1358 C1366 0.950 . S
H1359 C1368 0.950 . S
H1360 C1370 0.950 . S
H1361 C1372 0.950 . S
H1362 C1374 0.950 . S
H1363 C1375 0.950 . S
C1364 H1356 0.950 . S
C1364 C1365 1.386 . S
C1364 C1366 1.391 . S
C1365 C1364 1.386 . S
C1365 C1369 1.393 . S
C1366 H1358 0.950 . S
C1366 C1364 1.391 . S
C1366 C1367 1.400 . S
C1367 C1366 1.400 . S
C1367 C1368 1.398 . S
C1367 C1373 1.491 . S
C1368 H1359 0.950 . S
C1368 C1367 1.398 . S
C1368 C1369 1.391 . S
C1369 H1357 0.950 . S
C1369 C1365 1.393 . S
C1369 C1368 1.391 . S
C1370 H1360 0.950 . S
C1370 C1371 1.386 . S
C1370 C1372 1.391 . S
C1371 C1370 1.386 . S
C1371 C1375 1.393 . S
C1372 H1361 0.950 . S
C1372 C1370 1.391 . S
C1372 C1373 1.400 . S
C1373 C1367 1.491 . S
C1373 C1372 1.400 . S
C1373 C1374 1.398 . S
C1374 H1362 0.950 . S
C1374 C1373 1.398 . S
C1374 C1375 1.391 . S
C1375 H1363 0.950 . S
C1375 C1371 1.393 . S
C1375 C1374 1.391 . S
H1376 C1384 0.950 . S
H1377 C1389 0.950 . S
H1378 C1386 0.950 . S
H1379 C1388 0.950 . S
H1380 C1390 0.950 . S
H1381 C1392 0.950 . S
H1382 C1394 0.950 . S
H1383 C1395 0.950 . S
C1384 H1376 0.950 . S
C1384 C1385 1.386 . S
C1384 C1386 1.391 . S
C1385 C1384 1.386 . S
C1385 C1389 1.393 . S
C1386 H1378 0.950 . S
C1386 C1384 1.391 . S
C1386 C1387 1.400 . S
C1387 C1386 1.400 . S
C1387 C1388 1.398 . S
C1387 C1393 1.491 . S
C1388 H1379 0.950 . S
C1388 C1387 1.398 . S
C1388 C1389 1.391 . S
C1389 H1377 0.950 . S
C1389 C1385 1.393 . S
C1389 C1388 1.391 . S
C1390 H1380 0.950 . S
C1390 C1391 1.386 . S
C1390 C1392 1.391 . S
C1391 C1390 1.386 . S
C1391 C1395 1.393 . S
C1392 H1381 0.950 . S
C1392 C1390 1.391 . S
C1392 C1393 1.400 . S
C1393 C1387 1.491 . S
C1393 C1392 1.400 . S
C1393 C1394 1.398 . S
C1394 H1382 0.950 . S
C1394 C1393 1.398 . S
C1394 C1395 1.391 . S
C1395 H1383 0.950 . S
C1395 C1391 1.393 . S
C1395 C1394 1.391 . S
H1396 C1404 0.950 . S
H1397 C1409 0.950 . S
H1398 C1406 0.950 . S
H1399 C1408 0.950 . S
H1400 C1410 0.950 . S
H1401 C1412 0.950 . S
H1402 C1414 0.950 . S
H1403 C1415 0.950 . S
C1404 H1396 0.950 . S
C1404 C1405 1.386 . S
C1404 C1406 1.391 . S
C1405 C1404 1.386 . S
C1405 C1409 1.393 . S
C1406 H1398 0.950 . S
C1406 C1404 1.391 . S
C1406 C1407 1.400 . S
C1407 C1406 1.400 . S
C1407 C1408 1.398 . S
C1407 C1413 1.491 . S
C1408 H1399 0.950 . S
C1408 C1407 1.398 . S
C1408 C1409 1.391 . S
C1409 H1397 0.950 . S
C1409 C1405 1.393 . S
C1409 C1408 1.391 . S
C1410 H1400 0.950 . S
C1410 C1411 1.386 . S
C1410 C1412 1.391 . S
C1411 C1410 1.386 . S
C1411 C1415 1.393 . S
C1412 H1401 0.950 . S
C1412 C1410 1.391 . S
C1412 C1413 1.400 . S
C1413 C1407 1.491 . S
C1413 C1412 1.400 . S
C1413 C1414 1.398 . S
C1414 H1402 0.950 . S
C1414 C1413 1.398 . S
C1414 C1415 1.391 . S
C1415 H1403 0.950 . S
C1415 C1411 1.393 . S
C1415 C1414 1.391 . S
H1416 C1424 0.950 . S
H1417 C1429 0.950 . S
H1418 C1426 0.950 . S
H1419 C1428 0.950 . S
H1420 C1430 0.950 . S
H1421 C1432 0.950 . S
H1422 C1434 0.950 . S
H1423 C1435 0.950 . S
C1424 H1416 0.950 . S
C1424 C1425 1.386 . S
C1424 C1426 1.391 . S
C1425 C1424 1.386 . S
C1425 C1429 1.393 . S
C1426 H1418 0.950 . S
C1426 C1424 1.391 . S
C1426 C1427 1.400 . S
C1427 C1426 1.400 . S
C1427 C1428 1.398 . S
C1427 C1433 1.491 . S
C1428 H1419 0.950 . S
C1428 C1427 1.398 . S
C1428 C1429 1.391 . S
C1429 H1417 0.950 . S
C1429 C1425 1.393 . S
C1429 C1428 1.391 . S
C1430 H1420 0.950 . S
C1430 C1431 1.386 . S
C1430 C1432 1.391 . S
C1431 C1430 1.386 . S
C1431 C1435 1.393 . S
C1432 H1421 0.950 . S
C1432 C1430 1.391 . S
C1432 C1433 1.400 . S
C1433 C1427 1.491 . S
C1433 C1432 1.400 . S
C1433 C1434 1.398 . S
C1434 H1422 0.950 . S
C1434 C1433 1.398 . S
C1434 C1435 1.391 . S
C1435 H1423 0.950 . S
C1435 C1431 1.393 . S
C1435 C1434 1.391 . S
H1436 C1444 0.950 . S
H1437 C1449 0.950 . S
H1438 C1446 0.950 . S
H1439 C1448 0.950 . S
H1440 C1450 0.950 . S
H1441 C1452 0.950 . S
H1442 C1454 0.950 . S
H1443 C1455 0.950 . S
C1444 H1436 0.950 . S
C1444 C1445 1.386 . S
C1444 C1446 1.391 . S
C1445 C1444 1.386 . S
C1445 C1449 1.393 . S
C1446 H1438 0.950 . S
C1446 C1444 1.391 . S
C1446 C1447 1.400 . S
C1447 C1446 1.400 . S
C1447 C1448 1.398 . S
C1447 C1453 1.491 . S
C1448 H1439 0.950 . S
C1448 C1447 1.398 . S
C1448 C1449 1.391 . S
C1449 H1437 0.950 . S
C1449 C1445 1.393 . S
C1449 C1448 1.391 . S
C1450 H1440 0.950 . S
C1450 C1451 1.386 . S
C1450 C1452 1.391 . S
C1451 C1450 1.386 . S
C1451 C1455 1.393 . S
C1452 H1441 0.950 . S
C1452 C1450 1.391 . S
C1452 C1453 1.400 . S
C1453 C1447 1.491 . S
C1453 C1452 1.400 . S
C1453 C1454 1.398 . S
C1454 H1442 0.950 . S
C1454 C1453 1.398 . S
C1454 C1455 1.391 . S
C1455 H1443 0.950 . S
C1455 C1451 1.393 . S
C1455 C1454 1.391 . S
H1456 C1464 0.950 . S
H1457 C1469 0.950 . S
H1458 C1466 0.950 . S
H1459 C1468 0.950 . S
H1460 C1470 0.950 . S
H1461 C1472 0.950 . S
H1462 C1474 0.950 . S
H1463 C1475 0.950 . S
C1464 H1456 0.950 . S
C1464 C1465 1.386 . S
C1464 C1466 1.391 . S
C1465 C1464 1.386 . S
C1465 C1469 1.393 . S
C1466 H1458 0.950 . S
C1466 C1464 1.391 . S
C1466 C1467 1.400 . S
C1467 C1466 1.400 . S
C1467 C1468 1.398 . S
C1467 C1473 1.491 . S
C1468 H1459 0.950 . S
C1468 C1467 1.398 . S
C1468 C1469 1.391 . S
C1469 H1457 0.950 . S
C1469 C1465 1.393 . S
C1469 C1468 1.391 . S
C1470 H1460 0.950 . S
C1470 C1471 1.386 . S
C1470 C1472 1.391 . S
C1471 C1470 1.386 . S
C1471 C1475 1.393 . S
C1472 H1461 0.950 . S
C1472 C1470 1.391 . S
C1472 C1473 1.400 . S
C1473 C1467 1.491 . S
C1473 C1472 1.400 . S
C1473 C1474 1.398 . S
C1474 H1462 0.950 . S
C1474 C1473 1.398 . S
C1474 C1475 1.391 . S
C1475 H1463 0.950 . S
C1475 C1471 1.393 . S
C1475 C1474 1.391 . S
H1476 C1484 0.950 . S
H1477 C1489 0.950 . S
H1478 C1486 0.950 . S
H1479 C1488 0.950 . S
H1480 C1490 0.950 . S
H1481 C1492 0.950 . S
H1482 C1494 0.950 . S
H1483 C1495 0.950 . S
C1484 H1476 0.950 . S
C1484 C1485 1.386 . S
C1484 C1486 1.391 . S
C1485 C1484 1.386 . S
C1485 C1489 1.393 . S
C1486 H1478 0.950 . S
C1486 C1484 1.391 . S
C1486 C1487 1.400 . S
C1487 C1486 1.400 . S
C1487 C1488 1.398 . S
C1487 C1493 1.491 . S
C1488 H1479 0.950 . S
C1488 C1487 1.398 . S
C1488 C1489 1.391 . S
C1489 H1477 0.950 . S
C1489 C1485 1.393 . S
C1489 C1488 1.391 . S
C1490 H1480 0.950 . S
C1490 C1491 1.386 . S
C1490 C1492 1.391 . S
C1491 C1490 1.386 . S
C1491 C1495 1.393 . S
C1492 H1481 0.950 . S
C1492 C1490 1.391 . S
C1492 C1493 1.400 . S
C1493 C1487 1.491 . S
C1493 C1492 1.400 . S
C1493 C1494 1.398 . S
C1494 H1482 0.950 . S
C1494 C1493 1.398 . S
C1494 C1495 1.391 . S
C1495 H1483 0.950 . S
C1495 C1491 1.393 . S
C1495 C1494 1.391 . S
H1496 C1504 0.950 . S
H1497 C1509 0.950 . S
H1498 C1506 0.950 . S
H1499 C1508 0.950 . S
H1500 C1510 0.950 . S
H1501 C1512 0.950 . S
H1502 C1514 0.950 . S
H1503 C1515 0.950 . S
C1504 H1496 0.950 . S
C1504 C1505 1.386 . S
C1504 C1506 1.391 . S
C1505 C1504 1.386 . S
C1505 C1509 1.393 . S
C1506 H1498 0.950 . S
C1506 C1504 1.391 . S
C1506 C1507 1.400 . S
C1507 C1506 1.400 . S
C1507 C1508 1.398 . S
C1507 C1513 1.491 . S
C1508 H1499 0.950 . S
C1508 C1507 1.398 . S
C1508 C1509 1.391 . S
C1509 H1497 0.950 . S
C1509 C1505 1.393 . S
C1509 C1508 1.391 . S
C1510 H1500 0.950 . S
C1510 C1511 1.386 . S
C1510 C1512 1.391 . S
C1511 C1510 1.386 . S
C1511 C1515 1.393 . S
C1512 H1501 0.950 . S
C1512 C1510 1.391 . S
C1512 C1513 1.400 . S
C1513 C1507 1.491 . S
C1513 C1512 1.400 . S
C1513 C1514 1.398 . S
C1514 H1502 0.950 . S
C1514 C1513 1.398 . S
C1514 C1515 1.391 . S
C1515 H1503 0.950 . S
C1515 C1511 1.393 . S
C1515 C1514 1.391 . S
H1516 C1524 0.950 . S
H1517 C1529 0.950 . S
H1518 C1526 0.950 . S
H1519 C1528 0.950 . S
H1520 C1530 0.950 . S
H1521 C1532 0.950 . S
H1522 C1534 0.950 . S
H1523 C1535 0.950 . S
C1524 H1516 0.950 . S
C1524 C1525 1.386 . S
C1524 C1526 1.391 . S
C1525 C1524 1.386 . S
C1525 C1529 1.393 . S
C1526 H1518 0.950 . S
C1526 C1524 1.391 . S
C1526 C1527 1.400 . S
C1527 C1526 1.400 . S
C1527 C1528 1.398 . S
C1527 C1533 1.491 . S
C1528 H1519 0.950 . S
C1528 C1527 1.398 . S
C1528 C1529 1.391 . S
C1529 H1517 0.950 . S
C1529 C1525 1.393 . S
C1529 C1528 1.391 . S
C1530 H1520 0.950 . S
C1530 C1531 1.386 . S
C1530 C1532 1.391 . S
C1531 C1530 1.386 . S
C1531 C1535 1.393 . S
C1532 H1521 0.950 . S
C1532 C1530 1.391 . S
C1532 C1533 1.400 . S
C1533 C1527 1.491 . S
C1533 C1532 1.400 . S
C1533 C1534 1.398 . S
C1534 H1522 0.950 . S
C1534 C1533 1.398 . S
C1534 C1535 1.391 . S
C1535 H1523 0.950 . S
C1535 C1531 1.393 . S
C1535 C1534 1.391 . S
H1536 C1544 0.950 . S
H1537 C1549 0.950 . S
H1538 C1546 0.950 . S
H1539 C1548 0.950 . S
H1540 C1550 0.938 1_655 S
H1541 C1552 0.950 . S
H1542 C1554 0.950 . S
H1543 C1555 0.950 . S
C1544 H1536 0.950 . S
C1544 C1545 1.386 . S
C1544 C1546 1.391 . S
C1545 C1544 1.386 . S
C1545 C1549 1.393 . S
C1546 H1538 0.950 . S
C1546 C1544 1.391 . S
C1546 C1547 1.400 . S
C1547 C1546 1.400 . S
C1547 C1548 1.398 . S
C1547 C1553 1.491 . S
C1548 H1539 0.950 . S
C1548 C1547 1.398 . S
C1548 C1549 1.391 . S
C1549 H1537 0.950 . S
C1549 C1545 1.393 . S
C1549 C1548 1.391 . S
C1550 H1540 0.938 1_455 S
C1550 C1551 1.386 . S
C1550 C1552 1.391 . S
C1551 C1550 1.386 . S
C1551 C1555 1.393 . S
C1552 H1541 0.950 . S
C1552 C1550 1.391 . S
C1552 C1553 1.400 . S
C1553 C1547 1.491 . S
C1553 C1552 1.400 . S
C1553 C1554 1.398 . S
C1554 H1542 0.950 . S
C1554 C1553 1.398 . S
C1554 C1555 1.391 . S
C1555 H1543 0.950 . S
C1555 C1551 1.393 . S
C1555 C1554 1.391 . S
H1556 C1564 0.950 . S
H1557 C1569 0.950 . S
H1558 C1566 0.950 . S
H1559 C1568 0.950 . S
H1560 C1570 0.950 . S
H1561 C1572 0.950 . S
H1562 C1574 0.950 . S
H1563 C1575 0.950 . S
C1564 H1556 0.950 . S
C1564 C1565 1.386 . S
C1564 C1566 1.391 . S
C1565 C1564 1.386 . S
C1565 C1569 1.393 . S
C1566 H1558 0.950 . S
C1566 C1564 1.391 . S
C1566 C1567 1.400 . S
C1567 C1566 1.400 . S
C1567 C1568 1.398 . S
C1567 C1573 1.491 . S
C1568 H1559 0.950 . S
C1568 C1567 1.398 . S
C1568 C1569 1.391 . S
C1569 H1557 0.950 . S
C1569 C1565 1.393 . S
C1569 C1568 1.391 . S
C1570 H1560 0.950 . S
C1570 C1571 1.386 . S
C1570 C1572 1.391 . S
C1571 C1570 1.386 . S
C1571 C1575 1.393 . S
C1572 H1561 0.950 . S
C1572 C1570 1.391 . S
C1572 C1573 1.400 . S
C1573 C1567 1.491 . S
C1573 C1572 1.400 . S
C1573 C1574 1.398 . S
C1574 H1562 0.950 . S
C1574 C1573 1.398 . S
C1574 C1575 1.391 . S
C1575 H1563 0.950 . S
C1575 C1571 1.393 . S
C1575 C1574 1.391 . S
H1576 C1584 0.950 . S
H1577 C1589 0.950 . S
H1578 C1586 0.950 . S
H1579 C1588 0.950 . S
H1580 C1590 0.950 . S
H1581 C1592 0.950 . S
H1582 C1594 0.950 . S
H1583 C1595 0.950 . S
C1584 H1576 0.950 . S
C1584 C1585 1.386 . S
C1584 C1586 1.391 . S
C1585 C1584 1.386 . S
C1585 C1589 1.393 . S
C1586 H1578 0.950 . S
C1586 C1584 1.391 . S
C1586 C1587 1.400 . S
C1587 C1586 1.400 . S
C1587 C1588 1.398 . S
C1587 C1593 1.491 . S
C1588 H1579 0.950 . S
C1588 C1587 1.398 . S
C1588 C1589 1.391 . S
C1589 H1577 0.950 . S
C1589 C1585 1.393 . S
C1589 C1588 1.391 . S
C1590 H1580 0.950 . S
C1590 C1591 1.386 . S
C1590 C1592 1.391 1_545 S
C1591 C1590 1.386 . S
C1591 C1595 1.393 1_545 S
C1592 H1581 0.950 . S
C1592 C1590 1.391 1_565 S
C1592 C1593 1.400 . S
C1593 C1587 1.491 . S
C1593 C1592 1.400 . S
C1593 C1594 1.398 . S
C1594 H1582 0.950 . S
C1594 C1593 1.398 . S
C1594 C1595 1.391 . S
C1595 H1583 0.950 . S
C1595 C1591 1.393 1_565 S
C1595 C1594 1.391 . S
H1596 C1604 0.950 . S
H1597 C1609 0.950 . S
H1598 C1606 0.950 . S
H1599 C1608 0.950 . S
H1600 C1610 0.950 . S
H1601 C1612 0.950 . S
H1602 C1614 0.950 . S
H1603 C1615 0.950 . S
C1604 H1596 0.950 . S
C1604 C1605 1.386 . S
C1604 C1606 1.391 . S
C1605 C1604 1.386 . S
C1605 C1609 1.393 . S
C1606 H1598 0.950 . S
C1606 C1604 1.391 . S
C1606 C1607 1.400 . S
C1607 C1606 1.400 . S
C1607 C1608 1.398 . S
C1607 C1613 1.491 . S
C1608 H1599 0.950 . S
C1608 C1607 1.398 . S
C1608 C1609 1.391 . S
C1609 H1597 0.950 . S
C1609 C1605 1.393 . S
C1609 C1608 1.391 . S
C1610 H1600 0.950 . S
C1610 C1611 1.386 . S
C1610 C1612 1.391 . S
C1611 C1610 1.386 . S
C1611 C1615 1.393 . S
C1612 H1601 0.950 . S
C1612 C1610 1.391 . S
C1612 C1613 1.400 . S
C1613 C1607 1.491 . S
C1613 C1612 1.400 . S
C1613 C1614 1.398 . S
C1614 H1602 0.950 . S
C1614 C1613 1.398 . S
C1614 C1615 1.391 . S
C1615 H1603 0.950 . S
C1615 C1611 1.393 . S
C1615 C1614 1.391 . S
H1616 C1624 0.950 . S
H1617 C1629 0.950 . S
H1618 C1626 0.950 . S
H1619 C1628 0.950 . S
H1620 C1630 0.950 . S
H1621 C1632 0.950 . S
H1622 C1634 0.950 . S
H1623 C1635 0.950 . S
C1624 H1616 0.950 . S
C1624 C1625 1.386 . S
C1624 C1626 1.391 . S
C1625 C1624 1.386 . S
C1625 C1629 1.393 . S
C1626 H1618 0.950 . S
C1626 C1624 1.391 . S
C1626 C1627 1.400 . S
C1627 C1626 1.400 . S
C1627 C1628 1.398 . S
C1627 C1633 1.491 . S
C1628 H1619 0.950 . S
C1628 C1627 1.398 . S
C1628 C1629 1.391 . S
C1629 H1617 0.950 . S
C1629 C1625 1.393 . S
C1629 C1628 1.391 . S
C1630 H1620 0.950 . S
C1630 C1631 1.393 . S
C1630 C1632 1.391 . S
C1631 C1630 1.393 . S
C1631 C1635 1.392 1_556 S
C1632 H1621 0.950 . S
C1632 C1630 1.391 . S
C1632 C1633 1.400 . S
C1633 C1627 1.491 . S
C1633 C1632 1.400 . S
C1633 C1634 1.398 . S
C1634 H1622 0.950 . S
C1634 C1633 1.398 . S
C1634 C1635 1.391 1_556 S
C1635 H1623 0.950 . S
C1635 C1631 1.392 1_554 S
C1635 C1634 1.391 1_554 S
H1636 C1644 0.950 . S
H1637 C1649 0.950 . S
H1638 C1646 0.950 . S
H1639 C1648 0.950 . S
H1640 C1650 0.950 . S
H1641 C1652 0.950 . S
H1642 C1654 0.950 . S
H1643 C1655 0.950 . S
C1644 H1636 0.950 . S
C1644 C1645 1.386 . S
C1644 C1646 1.391 . S
C1645 C1644 1.386 . S
C1645 C1649 1.393 . S
C1646 H1638 0.950 . S
C1646 C1644 1.391 . S
C1646 C1647 1.400 . S
C1647 C1646 1.400 . S
C1647 C1648 1.398 . S
C1647 C1653 1.491 . S
C1648 H1639 0.950 . S
C1648 C1647 1.398 . S
C1648 C1649 1.391 . S
C1649 H1637 0.950 . S
C1649 C1645 1.393 . S
C1649 C1648 1.391 . S
C1650 H1640 0.950 . S
C1650 C1651 1.386 . S
C1650 C1652 1.391 . S
C1651 C1650 1.386 . S
C1651 C1655 1.393 . S
C1652 H1641 0.950 . S
C1652 C1650 1.391 . S
C1652 C1653 1.400 . S
C1653 C1647 1.491 . S
C1653 C1652 1.400 . S
C1653 C1654 1.398 . S
C1654 H1642 0.950 . S
C1654 C1653 1.398 . S
C1654 C1655 1.391 . S
C1655 H1643 0.950 . S
C1655 C1651 1.393 . S
C1655 C1654 1.391 . S
H1656 C1664 0.950 . S
H1657 C1669 0.950 . S
H1658 C1666 0.950 . S
H1659 C1668 0.950 . S
H1660 C1670 0.950 . S
H1661 C1672 0.950 . S
H1662 C1674 0.950 . S
H1663 C1675 0.950 . S
C1664 H1656 0.950 . S
C1664 C1665 1.386 . S
C1664 C1666 1.391 . S
C1665 C1664 1.386 . S
C1665 C1669 1.393 . S
C1666 H1658 0.950 . S
C1666 C1664 1.391 . S
C1666 C1667 1.400 . S
C1667 C1666 1.400 . S
C1667 C1668 1.398 . S
C1667 C1673 1.491 . S
C1668 H1659 0.950 . S
C1668 C1667 1.398 . S
C1668 C1669 1.391 . S
C1669 H1657 0.950 . S
C1669 C1665 1.393 . S
C1669 C1668 1.391 . S
C1670 H1660 0.950 . S
C1670 C1671 1.386 . S
C1670 C1672 1.391 . S
C1671 C1670 1.386 . S
C1671 C1675 1.393 . S
C1672 H1661 0.950 . S
C1672 C1670 1.391 . S
C1672 C1673 1.400 . S
C1673 C1667 1.491 . S
C1673 C1672 1.400 . S
C1673 C1674 1.398 . S
C1674 H1662 0.950 . S
C1674 C1673 1.398 . S
C1674 C1675 1.391 . S
C1675 H1663 0.950 . S
C1675 C1671 1.393 . S
C1675 C1674 1.391 . S
H1676 C1684 0.950 . S
H1677 C1689 0.950 . S
H1678 C1686 0.950 . S
H1679 C1688 0.950 . S
H1680 C1690 0.950 . S
H1681 C1692 0.950 . S
H1682 C1694 0.950 . S
H1683 C1695 0.950 . S
C1684 H1676 0.950 . S
C1684 C1685 1.386 . S
C1684 C1686 1.391 . S
C1685 C1684 1.386 . S
C1685 C1689 1.393 . S
C1686 H1678 0.950 . S
C1686 C1684 1.391 . S
C1686 C1687 1.400 . S
C1687 C1686 1.400 . S
C1687 C1688 1.398 . S
C1687 C1693 1.491 . S
C1688 H1679 0.950 . S
C1688 C1687 1.398 . S
C1688 C1689 1.391 . S
C1689 H1677 0.950 . S
C1689 C1685 1.393 . S
C1689 C1688 1.391 . S
C1690 H1680 0.950 . S
C1690 C1691 1.386 . S
C1690 C1692 1.391 . S
C1691 C1690 1.386 . S
C1691 C1695 1.393 . S
C1692 H1681 0.950 . S
C1692 C1690 1.391 . S
C1692 C1693 1.400 . S
C1693 C1687 1.491 . S
C1693 C1692 1.400 . S
C1693 C1694 1.398 . S
C1694 H1682 0.950 . S
C1694 C1693 1.398 . S
C1694 C1695 1.391 . S
C1695 H1683 0.950 . S
C1695 C1691 1.393 . S
C1695 C1694 1.391 . S
H1696 C1704 0.950 . S
H1697 C1709 0.950 . S
H1698 C1706 0.950 . S
H1699 C1708 0.950 . S
H1700 C1710 0.950 . S
H1701 C1712 0.950 . S
H1702 C1714 0.950 . S
H1703 C1715 0.950 . S
C1704 H1696 0.950 . S
C1704 C1705 1.386 . S
C1704 C1706 1.391 . S
C1705 C1704 1.386 . S
C1705 C1709 1.393 . S
C1706 H1698 0.950 . S
C1706 C1704 1.391 . S
C1706 C1707 1.400 . S
C1707 C1706 1.400 . S
C1707 C1708 1.398 . S
C1707 C1713 1.491 . S
C1708 H1699 0.950 . S
C1708 C1707 1.398 . S
C1708 C1709 1.391 . S
C1709 H1697 0.950 . S
C1709 C1705 1.393 . S
C1709 C1708 1.391 . S
C1710 H1700 0.950 . S
C1710 C1711 1.386 . S
C1710 C1712 1.391 . S
C1711 C1710 1.386 . S
C1711 C1715 1.393 . S
C1712 H1701 0.950 . S
C1712 C1710 1.391 . S
C1712 C1713 1.400 . S
C1713 C1707 1.491 . S
C1713 C1712 1.400 . S
C1713 C1714 1.398 . S
C1714 H1702 0.950 . S
C1714 C1713 1.398 . S
C1714 C1715 1.391 . S
C1715 H1703 0.950 . S
C1715 C1711 1.393 . S
C1715 C1714 1.391 . S
H1716 C1724 0.950 . S
H1717 C1729 0.950 . S
H1718 C1726 0.950 . S
H1719 C1728 0.950 . S
H1720 C1730 0.950 . S
H1721 C1732 0.950 . S
H1722 C1734 0.950 . S
H1723 C1735 0.950 . S
C1724 H1716 0.950 . S
C1724 C1725 1.386 . S
C1724 C1726 1.391 . S
C1725 C1724 1.386 . S
C1725 C1729 1.393 . S
C1726 H1718 0.950 . S
C1726 C1724 1.391 . S
C1726 C1727 1.400 . S
C1727 C1726 1.400 . S
C1727 C1728 1.398 . S
C1727 C1733 1.491 . S
C1728 H1719 0.950 . S
C1728 C1727 1.398 . S
C1728 C1729 1.391 . S
C1729 H1717 0.950 . S
C1729 C1725 1.393 . S
C1729 C1728 1.391 . S
C1730 H1720 0.950 . S
C1730 C1731 1.386 . S
C1730 C1732 1.391 . S
C1731 C1730 1.386 . S
C1731 C1735 1.393 . S
C1732 H1721 0.950 . S
C1732 C1730 1.391 . S
C1732 C1733 1.400 . S
C1733 C1727 1.491 . S
C1733 C1732 1.400 . S
C1733 C1734 1.398 . S
C1734 H1722 0.950 . S
C1734 C1733 1.398 . S
C1734 C1735 1.391 . S
C1735 H1723 0.950 . S
C1735 C1731 1.393 . S
C1735 C1734 1.391 . S
H1736 C1744 0.950 . S
H1737 C1749 0.950 . S
H1738 C1746 0.950 . S
H1739 C1748 0.950 . S
H1740 C1750 0.950 . S
H1741 C1752 0.950 . S
H1742 C1754 0.950 . S
H1743 C1755 0.950 . S
C1744 H1736 0.950 . S
C1744 C1745 1.386 . S
C1744 C1746 1.391 . S
C1745 C1744 1.386 . S
C1745 C1749 1.393 . S
C1746 H1738 0.950 . S
C1746 C1744 1.391 . S
C1746 C1747 1.400 . S
C1747 C1746 1.400 . S
C1747 C1748 1.398 . S
C1747 C1753 1.491 . S
C1748 H1739 0.950 . S
C1748 C1747 1.398 . S
C1748 C1749 1.391 . S
C1749 H1737 0.950 . S
C1749 C1745 1.393 . S
C1749 C1748 1.391 . S
C1750 H1740 0.950 . S
C1750 C1751 1.386 . S
C1750 C1752 1.391 . S
C1751 C1750 1.386 . S
C1751 C1755 1.393 . S
C1752 H1741 0.950 . S
C1752 C1750 1.391 . S
C1752 C1753 1.400 . S
C1753 C1747 1.491 . S
C1753 C1752 1.400 . S
C1753 C1754 1.398 . S
C1754 H1742 0.950 . S
C1754 C1753 1.398 . S
C1754 C1755 1.391 . S
C1755 H1743 0.950 . S
C1755 C1751 1.393 . S
C1755 C1754 1.391 . S
H1756 C1764 0.950 . S
H1757 C1769 0.950 . S
H1758 C1766 0.950 . S
H1759 C1768 0.950 . S
H1760 C1770 0.950 . S
H1761 C1772 0.950 . S
H1762 C1774 0.950 . S
H1763 C1775 0.950 . S
C1764 H1756 0.950 . S
C1764 C1765 1.386 . S
C1764 C1766 1.391 . S
C1765 C1764 1.386 . S
C1765 C1769 1.393 . S
C1766 H1758 0.950 . S
C1766 C1764 1.391 . S
C1766 C1767 1.400 . S
C1767 C1766 1.400 . S
C1767 C1768 1.398 . S
C1767 C1773 1.491 . S
C1768 H1759 0.950 . S
C1768 C1767 1.398 . S
C1768 C1769 1.391 . S
C1769 H1757 0.950 . S
C1769 C1765 1.393 . S
C1769 C1768 1.391 . S
C1770 H1760 0.950 . S
C1770 C1771 1.386 . S
C1770 C1772 1.391 . S
C1771 C1770 1.386 . S
C1771 C1775 1.393 . S
C1772 H1761 0.950 . S
C1772 C1770 1.391 . S
C1772 C1773 1.400 . S
C1773 C1767 1.491 . S
C1773 C1772 1.400 . S
C1773 C1774 1.398 . S
C1774 H1762 0.950 . S
C1774 C1773 1.398 . S
C1774 C1775 1.391 . S
C1775 H1763 0.950 . S
C1775 C1771 1.393 . S
C1775 C1774 1.391 . S
H1776 C1784 0.950 . S
H1777 C1789 0.950 . S
H1778 C1786 0.950 . S
H1779 C1788 0.950 . S
H1780 C1790 0.950 . S
H1781 C1792 0.950 . S
H1782 C1794 0.950 . S
H1783 C1795 0.950 . S
C1784 H1776 0.950 . S
C1784 C1785 1.386 . S
C1784 C1786 1.391 . S
C1785 C1784 1.386 . S
C1785 C1789 1.393 . S
C1786 H1778 0.950 . S
C1786 C1784 1.391 . S
C1786 C1787 1.400 . S
C1787 C1786 1.400 . S
C1787 C1788 1.398 . S
C1787 C1793 1.491 . S
C1788 H1779 0.950 . S
C1788 C1787 1.398 . S
C1788 C1789 1.391 . S
C1789 H1777 0.950 . S
C1789 C1785 1.393 . S
C1789 C1788 1.391 . S
C1790 H1780 0.950 . S
C1790 C1791 1.386 . S
C1790 C1792 1.391 . S
C1791 C1790 1.386 . S
C1791 C1795 1.393 . S
C1792 H1781 0.950 . S
C1792 C1790 1.391 . S
C1792 C1793 1.400 . S
C1793 C1787 1.491 . S
C1793 C1792 1.400 . S
C1793 C1794 1.398 . S
C1794 H1782 0.950 . S
C1794 C1793 1.398 . S
C1794 C1795 1.391 . S
C1795 H1783 0.950 . S
C1795 C1791 1.393 . S
C1795 C1794 1.391 . S
H1796 C1804 0.950 . S
H1797 C1809 0.950 . S
H1798 C1806 0.950 . S
H1799 C1808 0.950 . S
H1800 C1810 0.950 . S
H1801 C1812 0.950 . S
H1802 C1814 0.950 . S
H1803 C1815 0.950 . S
C1804 H1796 0.950 . S
C1804 C1805 1.386 . S
C1804 C1806 1.391 . S
C1805 C1804 1.386 . S
C1805 C1809 1.393 . S
C1806 H1798 0.950 . S
C1806 C1804 1.391 . S
C1806 C1807 1.400 . S
C1807 C1806 1.400 . S
C1807 C1808 1.398 . S
C1807 C1813 1.491 . S
C1808 H1799 0.950 . S
C1808 C1807 1.398 . S
C1808 C1809 1.391 . S
C1809 H1797 0.950 . S
C1809 C1805 1.393 . S
C1809 C1808 1.391 . S
C1810 H1800 0.950 . S
C1810 C1811 1.386 . S
C1810 C1812 1.391 . S
C1811 C1810 1.386 . S
C1811 C1815 1.393 . S
C1812 H1801 0.950 . S
C1812 C1810 1.391 . S
C1812 C1813 1.400 . S
C1813 C1807 1.491 . S
C1813 C1812 1.400 . S
C1813 C1814 1.398 . S
C1814 H1802 0.950 . S
C1814 C1813 1.398 . S
C1814 C1815 1.391 . S
C1815 H1803 0.950 . S
C1815 C1811 1.393 . S
C1815 C1814 1.391 . S
H1816 C1824 0.950 . S
H1817 C1829 0.950 . S
H1818 C1826 0.950 . S
H1819 C1828 0.950 . S
H1820 C1830 0.950 . S
H1821 C1832 0.950 . S
H1822 C1834 0.950 . S
H1823 C1835 0.950 . S
C1824 H1816 0.950 . S
C1824 C1825 1.386 . S
C1824 C1826 1.391 . S
C1825 C1824 1.386 . S
C1825 C1829 1.393 . S
C1826 H1818 0.950 . S
C1826 C1824 1.391 . S
C1826 C1827 1.400 . S
C1827 C1826 1.400 . S
C1827 C1828 1.398 . S
C1827 C1833 1.491 . S
C1828 H1819 0.950 . S
C1828 C1827 1.398 . S
C1828 C1829 1.391 . S
C1829 H1817 0.950 . S
C1829 C1825 1.393 . S
C1829 C1828 1.391 . S
C1830 H1820 0.950 . S
C1830 C1831 1.386 . S
C1830 C1832 1.391 . S
C1831 C1830 1.386 . S
C1831 C1835 1.393 . S
C1832 H1821 0.950 . S
C1832 C1830 1.391 . S
C1832 C1833 1.400 . S
C1833 C1827 1.491 . S
C1833 C1832 1.400 . S
C1833 C1834 1.398 . S
C1834 H1822 0.950 . S
C1834 C1833 1.398 . S
C1834 C1835 1.391 . S
C1835 H1823 0.950 . S
C1835 C1831 1.393 . S
C1835 C1834 1.391 . S
H1836 C1844 0.950 . S
H1837 C1849 0.950 . S
H1838 C1846 0.950 . S
H1839 C1848 0.950 . S
H1840 C1850 0.950 . S
H1841 C1852 0.950 . S
H1842 C1854 0.950 . S
H1843 C1855 0.950 . S
C1844 H1836 0.950 . S
C1844 C1845 1.386 . S
C1844 C1846 1.391 . S
C1845 C1844 1.386 . S
C1845 C1849 1.393 . S
C1846 H1838 0.950 . S
C1846 C1844 1.391 . S
C1846 C1847 1.400 . S
C1847 C1846 1.400 . S
C1847 C1848 1.398 . S
C1847 C1853 1.491 . S
C1848 H1839 0.950 . S
C1848 C1847 1.398 . S
C1848 C1849 1.391 . S
C1849 H1837 0.950 . S
C1849 C1845 1.393 . S
C1849 C1848 1.391 . S
C1850 H1840 0.950 . S
C1850 C1851 1.386 . S
C1850 C1852 1.391 . S
C1851 C1850 1.386 . S
C1851 C1855 1.393 . S
C1852 H1841 0.950 . S
C1852 C1850 1.391 . S
C1852 C1853 1.400 . S
C1853 C1847 1.491 . S
C1853 C1852 1.400 . S
C1853 C1854 1.398 . S
C1854 H1842 0.950 . S
C1854 C1853 1.398 . S
C1854 C1855 1.391 . S
C1855 H1843 0.950 . S
C1855 C1851 1.393 . S
C1855 C1854 1.391 . S
H1856 C1864 0.950 . S
H1857 C1869 0.950 . S
H1858 C1866 0.950 . S
H1859 C1868 0.950 . S
H1860 C1870 0.950 . S
H1861 C1872 0.950 . S
H1862 C1874 0.950 . S
H1863 C1875 0.950 . S
C1864 H1856 0.950 . S
C1864 C1865 1.386 . S
C1864 C1866 1.391 . S
C1865 C1864 1.386 . S
C1865 C1869 1.393 . S
C1866 H1858 0.950 . S
C1866 C1864 1.391 . S
C1866 C1867 1.400 . S
C1867 C1866 1.400 . S
C1867 C1868 1.398 . S
C1867 C1873 1.491 . S
C1868 H1859 0.950 . S
C1868 C1867 1.398 . S
C1868 C1869 1.391 . S
C1869 H1857 0.950 . S
C1869 C1865 1.393 . S
C1869 C1868 1.391 . S
C1870 H1860 0.950 . S
C1870 C1871 1.386 . S
C1870 C1872 1.391 . S
C1871 C1870 1.386 . S
C1871 C1875 1.393 . S
C1872 H1861 0.950 . S
C1872 C1870 1.391 . S
C1872 C1873 1.400 . S
C1873 C1867 1.491 . S
C1873 C1872 1.400 . S
C1873 C1874 1.398 . S
C1874 H1862 0.950 . S
C1874 C1873 1.398 . S
C1874 C1875 1.391 . S
C1875 H1863 0.950 . S
C1875 C1871 1.393 . S
C1875 C1874 1.391 . S
H1876 C1884 0.950 . S
H1877 C1889 0.950 . S
H1878 C1886 0.949 1_565 S
H1879 C1888 0.950 . S
H1880 C1890 0.950 . S
H1881 C1892 0.950 . S
H1882 C1894 0.950 . S
H1883 C1895 0.950 . S
C1884 H1876 0.950 . S
C1884 C1885 1.386 1_565 S
C1884 C1886 1.387 1_565 S
C1885 C1884 1.386 1_545 S
C1885 C1889 1.393 . S
C1886 H1878 0.949 1_545 S
C1886 C1884 1.387 1_545 S
C1886 C1887 1.405 . S
C1887 C1886 1.405 . S
C1887 C1888 1.398 . S
C1887 C1893 1.491 . S
C1888 H1879 0.950 . S
C1888 C1887 1.398 . S
C1888 C1889 1.391 . S
C1889 H1877 0.950 . S
C1889 C1885 1.393 . S
C1889 C1888 1.391 . S
C1890 H1880 0.950 . S
C1890 C1891 1.386 . S
C1890 C1892 1.391 . S
C1891 C1890 1.386 . S
C1891 C1895 1.393 . S
C1892 H1881 0.950 . S
C1892 C1890 1.391 . S
C1892 C1893 1.400 . S
C1893 C1887 1.491 . S
C1893 C1892 1.400 . S
C1893 C1894 1.398 . S
C1894 H1882 0.950 . S
C1894 C1893 1.398 . S
C1894 C1895 1.391 . S
C1895 H1883 0.950 . S
C1895 C1891 1.393 . S
C1895 C1894 1.391 . S
H1896 C1904 0.950 . S
H1897 C1909 0.950 . S
H1898 C1906 0.950 . S
H1899 C1908 0.950 . S
H1900 C1910 0.950 . S
H1901 C1912 0.950 . S
H1902 C1914 0.950 . S
H1903 C1915 0.950 . S
C1904 H1896 0.950 . S
C1904 C1905 1.386 . S
C1904 C1906 1.391 . S
C1905 C1904 1.386 . S
C1905 C1909 1.393 . S
C1906 H1898 0.950 . S
C1906 C1904 1.391 . S
C1906 C1907 1.400 . S
C1907 C1906 1.400 . S
C1907 C1908 1.398 . S
C1907 C1913 1.491 . S
C1908 H1899 0.950 . S
C1908 C1907 1.398 . S
C1908 C1909 1.391 . S
C1909 H1897 0.950 . S
C1909 C1905 1.393 . S
C1909 C1908 1.391 . S
C1910 H1900 0.950 . S
C1910 C1911 1.386 . S
C1910 C1912 1.391 . S
C1911 C1910 1.386 . S
C1911 C1915 1.393 . S
C1912 H1901 0.950 . S
C1912 C1910 1.391 . S
C1912 C1913 1.400 . S
C1913 C1907 1.491 . S
C1913 C1912 1.400 . S
C1913 C1914 1.398 . S
C1914 H1902 0.950 . S
C1914 C1913 1.398 . S
C1914 C1915 1.391 . S
C1915 H1903 0.950 . S
C1915 C1911 1.393 . S
C1915 C1914 1.391 . S
H1916 C1924 0.950 . S
H1917 C1929 0.950 . S
H1918 C1926 0.950 . S
H1919 C1928 0.950 . S
H1920 C1930 0.950 . S
H1921 C1932 0.950 . S
H1922 C1934 0.950 . S
H1923 C1935 0.950 . S
C1924 H1916 0.950 . S
C1924 C1925 1.386 . S
C1924 C1926 1.391 . S
C1925 C1924 1.386 . S
C1925 C1929 1.393 . S
C1926 H1918 0.950 . S
C1926 C1924 1.391 . S
C1926 C1927 1.400 . S
C1927 C1926 1.400 . S
C1927 C1928 1.398 . S
C1927 C1933 1.491 . S
C1928 H1919 0.950 . S
C1928 C1927 1.398 . S
C1928 C1929 1.391 . S
C1929 H1917 0.950 . S
C1929 C1925 1.393 . S
C1929 C1928 1.391 . S
C1930 H1920 0.950 . S
C1930 C1931 1.386 . S
C1930 C1932 1.391 . S
C1931 C1930 1.386 . S
C1931 C1935 1.393 . S
C1932 H1921 0.950 . S
C1932 C1930 1.391 . S
C1932 C1933 1.400 . S
C1933 C1927 1.491 . S
C1933 C1932 1.400 . S
C1933 C1934 1.398 . S
C1934 H1922 0.950 . S
C1934 C1933 1.398 . S
C1934 C1935 1.391 . S
C1935 H1923 0.950 . S
C1935 C1931 1.393 . S
C1935 C1934 1.391 . S
H1936 C1944 0.950 . S
H1937 C1949 0.950 . S
H1938 C1946 0.950 . S
H1939 C1948 0.950 . S
H1940 C1950 0.950 . S
H1941 C1952 0.950 . S
H1942 C1954 0.950 . S
H1943 C1955 0.950 . S
C1944 H1936 0.950 . S
C1944 C1945 1.386 . S
C1944 C1946 1.391 . S
C1945 C1944 1.386 . S
C1945 C1949 1.393 . S
C1946 H1938 0.950 . S
C1946 C1944 1.391 . S
C1946 C1947 1.400 . S
C1947 C1946 1.400 . S
C1947 C1948 1.398 . S
C1947 C1953 1.491 . S
C1948 H1939 0.950 . S
C1948 C1947 1.398 . S
C1948 C1949 1.391 . S
C1949 H1937 0.950 . S
C1949 C1945 1.393 . S
C1949 C1948 1.391 . S
C1950 H1940 0.950 . S
C1950 C1951 1.386 . S
C1950 C1952 1.391 . S
C1951 C1950 1.386 . S
C1951 C1955 1.393 . S
C1952 H1941 0.950 . S
C1952 C1950 1.391 . S
C1952 C1953 1.400 . S
C1953 C1947 1.491 . S
C1953 C1952 1.400 . S
C1953 C1954 1.398 . S
C1954 H1942 0.950 . S
C1954 C1953 1.398 . S
C1954 C1955 1.391 . S
C1955 H1943 0.950 . S
C1955 C1951 1.393 . S
C1955 C1954 1.391 . S
H1956 C1964 0.950 . S
H1957 C1969 0.950 . S
H1958 C1966 0.950 . S
H1959 C1968 0.950 . S
H1960 C1970 0.950 . S
H1961 C1972 0.950 . S
H1962 C1974 0.950 . S
H1963 C1975 0.950 . S
C1964 H1956 0.950 . S
C1964 C1965 1.386 . S
C1964 C1966 1.391 . S
C1965 C1964 1.386 . S
C1965 C1969 1.393 . S
C1966 H1958 0.950 . S
C1966 C1964 1.391 . S
C1966 C1967 1.400 . S
C1967 C1966 1.400 . S
C1967 C1968 1.398 . S
C1967 C1973 1.491 . S
C1968 H1959 0.950 . S
C1968 C1967 1.398 . S
C1968 C1969 1.391 . S
C1969 H1957 0.950 . S
C1969 C1965 1.393 . S
C1969 C1968 1.391 . S
C1970 H1960 0.950 . S
C1970 C1971 1.386 . S
C1970 C1972 1.391 . S
C1971 C1970 1.386 . S
C1971 C1975 1.393 . S
C1972 H1961 0.950 . S
C1972 C1970 1.391 . S
C1972 C1973 1.400 . S
C1973 C1967 1.491 . S
C1973 C1972 1.400 . S
C1973 C1974 1.398 . S
C1974 H1962 0.950 . S
C1974 C1973 1.398 . S
C1974 C1975 1.391 . S
C1975 H1963 0.950 . S
C1975 C1971 1.393 . S
C1975 C1974 1.391 . S
H1976 C1984 0.950 . S
H1977 C1989 0.950 . S
H1978 C1986 0.950 . S
H1979 C1988 0.950 1_554 S
H1980 C1990 0.950 . S
H1981 C1992 0.950 . S
H1982 C1994 0.950 . S
H1983 C1995 0.950 . S
C1984 H1976 0.950 . S
C1984 C1985 1.386 . S
C1984 C1986 1.391 . S
C1985 C1984 1.386 . S
C1985 C1989 1.393 . S
C1986 H1978 0.950 . S
C1986 C1984 1.391 . S
C1986 C1987 1.400 . S
C1987 C1986 1.400 . S
C1987 C1988 1.398 . S
C1987 C1993 1.491 1_556 S
C1988 H1979 0.950 1_556 S
C1988 C1987 1.398 . S
C1988 C1989 1.391 . S
C1989 H1977 0.950 . S
C1989 C1985 1.393 . S
C1989 C1988 1.391 . S
C1990 H1980 0.950 . S
C1990 C1991 1.386 . S
C1990 C1992 1.391 . S
C1991 C1990 1.386 . S
C1991 C1995 1.393 . S
C1992 H1981 0.950 . S
C1992 C1990 1.391 . S
C1992 C1993 1.400 . S
C1993 C1987 1.491 1_554 S
C1993 C1992 1.400 . S
C1993 C1994 1.398 1_554 S
C1994 H1982 0.950 . S
C1994 C1993 1.398 1_556 S
C1994 C1995 1.391 1_556 S
C1995 H1983 0.950 . S
C1995 C1991 1.393 . S
C1995 C1994 1.391 1_554 S
H1996 C2004 0.950 . S
H1997 C2009 0.950 . S
H1998 C2006 0.950 . S
H1999 C2008 0.950 . S
H2000 C2010 0.950 . S
H2001 C2012 0.950 . S
H2002 C2014 0.950 . S
H2003 C2015 0.950 . S
C2004 H1996 0.950 . S
C2004 C2005 1.386 . S
C2004 C2006 1.391 . S
C2005 C2004 1.386 . S
C2005 C2009 1.393 . S
C2006 H1998 0.950 . S
C2006 C2004 1.391 . S
C2006 C2007 1.400 . S
C2007 C2006 1.400 . S
C2007 C2008 1.398 . S
C2007 C2013 1.491 . S
C2008 H1999 0.950 . S
C2008 C2007 1.398 . S
C2008 C2009 1.391 . S
C2009 H1997 0.950 . S
C2009 C2005 1.393 . S
C2009 C2008 1.391 . S
C2010 H2000 0.950 . S
C2010 C2011 1.386 . S
C2010 C2012 1.391 . S
C2011 C2010 1.386 . S
C2011 C2015 1.393 . S
C2012 H2001 0.950 . S
C2012 C2010 1.391 . S
C2012 C2013 1.400 . S
C2013 C2007 1.491 . S
C2013 C2012 1.400 . S
C2013 C2014 1.398 . S
C2014 H2002 0.950 . S
C2014 C2013 1.398 . S
C2014 C2015 1.391 . S
C2015 H2003 0.950 . S
C2015 C2011 1.393 . S
C2015 C2014 1.391 . S
H2016 C2024 0.950 . S
H2017 C2029 0.950 . S
H2018 C2026 0.950 . S
H2019 C2028 0.950 . S
H2020 C2030 0.950 . S
H2021 C2032 0.950 . S
H2022 C2034 0.950 . S
H2023 C2035 0.950 . S
C2024 H2016 0.950 . S
C2024 C2025 1.386 . S
C2024 C2026 1.391 . S
C2025 C2024 1.386 . S
C2025 C2029 1.393 . S
C2026 H2018 0.950 . S
C2026 C2024 1.391 . S
C2026 C2027 1.400 . S
C2027 C2026 1.400 . S
C2027 C2028 1.398 . S
C2027 C2033 1.491 . S
C2028 H2019 0.950 . S
C2028 C2027 1.398 . S
C2028 C2029 1.391 . S
C2029 H2017 0.950 . S
C2029 C2025 1.393 . S
C2029 C2028 1.391 . S
C2030 H2020 0.950 . S
C2030 C2031 1.386 . S
C2030 C2032 1.391 . S
C2031 C2030 1.386 . S
C2031 C2035 1.393 . S
C2032 H2021 0.950 . S
C2032 C2030 1.391 . S
C2032 C2033 1.400 . S
C2033 C2027 1.491 . S
C2033 C2032 1.400 . S
C2033 C2034 1.398 . S
C2034 H2022 0.950 . S
C2034 C2033 1.398 . S
C2034 C2035 1.391 . S
C2035 H2023 0.950 . S
C2035 C2031 1.393 . S
C2035 C2034 1.391 . S
H2036 C2044 0.950 . S
H2037 C2049 0.950 . S
H2038 C2046 0.950 . S
H2039 C2048 0.950 . S
H2040 C2050 0.950 . S
H2041 C2052 0.950 . S
H2042 C2054 0.950 . S
H2043 C2055 0.950 . S
C2044 H2036 0.950 . S
C2044 C2045 1.386 . S
C2044 C2046 1.391 1_455 S
C2045 C2044 1.386 . S
C2045 C2049 1.393 1_455 S
C2046 H2038 0.950 . S
C2046 C2044 1.391 1_655 S
C2046 C2047 1.400 . S
C2047 C2046 1.400 . S
C2047 C2048 1.398 . S
C2047 C2053 1.491 . S
C2048 H2039 0.950 . S
C2048 C2047 1.398 . S
C2048 C2049 1.391 . S
C2049 H2037 0.950 . S
C2049 C2045 1.393 1_655 S
C2049 C2048 1.391 . S
C2050 H2040 0.950 . S
C2050 C2051 1.386 . S
C2050 C2052 1.391 . S
C2051 C2050 1.386 . S
C2051 C2055 1.393 . S
C2052 H2041 0.950 . S
C2052 C2050 1.391 . S
C2052 C2053 1.400 . S
C2053 C2047 1.491 . S
C2053 C2052 1.400 . S
C2053 C2054 1.398 . S
C2054 H2042 0.950 . S
C2054 C2053 1.398 . S
C2054 C2055 1.391 . S
C2055 H2043 0.950 . S
C2055 C2051 1.393 . S
C2055 C2054 1.391 . S
H2056 C2064 0.950 . S
H2057 C2069 0.950 . S
H2058 C2066 0.950 . S
H2059 C2068 0.950 . S
H2060 C2070 0.950 . S
H2061 C2072 0.950 . S
H2062 C2074 0.975 . S
H2063 C2075 0.943 1_655 S
C2064 H2056 0.950 . S
C2064 C2065 1.386 . S
C2064 C2066 1.391 . S
C2065 C2064 1.386 . S
C2065 C2069 1.393 1_655 S
C2066 H2058 0.950 . S
C2066 C2064 1.391 . S
C2066 C2067 1.400 1_655 S
C2067 C2066 1.400 1_455 S
C2067 C2068 1.398 . S
C2067 C2073 1.491 . S
C2068 H2059 0.950 . S
C2068 C2067 1.398 . S
C2068 C2069 1.391 . S
C2069 H2057 0.950 . S
C2069 C2065 1.393 1_455 S
C2069 C2068 1.391 . S
C2070 H2060 0.950 . S
C2070 C2071 1.386 . S
C2070 C2072 1.391 . S
C2071 C2070 1.386 . S
C2071 C2075 1.393 . S
C2072 H2061 0.950 . S
C2072 C2070 1.391 . S
C2072 C2073 1.400 . S
C2073 C2067 1.491 . S
C2073 C2072 1.400 . S
C2073 C2074 1.392 1_455 S
C2074 H2062 0.975 . S
C2074 C2073 1.392 1_655 S
C2074 C2075 1.373 1_655 S
C2075 H2063 0.943 1_455 S
C2075 C2071 1.393 . S
C2075 C2074 1.373 1_455 S
H2076 C2084 0.950 . S
H2077 C2089 0.950 . S
H2078 C2086 0.950 . S
H2079 C2088 0.950 . S
H2080 C2090 0.950 . S
H2081 C2092 0.950 . S
H2082 C2094 0.950 . S
H2083 C2095 0.950 . S
C2084 H2076 0.950 . S
C2084 C2085 1.386 . S
C2084 C2086 1.391 . S
C2085 C2084 1.386 . S
C2085 C2089 1.393 . S
C2086 H2078 0.950 . S
C2086 C2084 1.391 . S
C2086 C2087 1.400 . S
C2087 C2086 1.400 . S
C2087 C2088 1.398 . S
C2087 C2093 1.491 . S
C2088 H2079 0.950 . S
C2088 C2087 1.398 . S
C2088 C2089 1.391 . S
C2089 H2077 0.950 . S
C2089 C2085 1.393 . S
C2089 C2088 1.391 . S
C2090 H2080 0.950 . S
C2090 C2091 1.386 . S
C2090 C2092 1.391 . S
C2091 C2090 1.386 . S
C2091 C2095 1.393 . S
C2092 H2081 0.950 . S
C2092 C2090 1.391 . S
C2092 C2093 1.400 . S
C2093 C2087 1.491 . S
C2093 C2092 1.400 . S
C2093 C2094 1.398 . S
C2094 H2082 0.950 . S
C2094 C2093 1.398 . S
C2094 C2095 1.391 . S
C2095 H2083 0.950 . S
C2095 C2091 1.393 . S
C2095 C2094 1.391 . S
H2096 C2104 0.950 . S
H2097 C2109 0.950 . S
H2098 C2106 0.950 . S
H2099 C2108 0.950 . S
H2100 C2110 0.950 . S
H2101 C2112 0.950 . S
H2102 C2114 0.950 . S
H2103 C2115 0.950 . S
C2104 H2096 0.950 . S
C2104 C2105 1.386 . S
C2104 C2106 1.391 . S
C2105 C2104 1.386 . S
C2105 C2109 1.393 . S
C2106 H2098 0.950 . S
C2106 C2104 1.391 . S
C2106 C2107 1.400 . S
C2107 C2106 1.400 . S
C2107 C2108 1.398 . S
C2107 C2113 1.491 . S
C2108 H2099 0.950 . S
C2108 C2107 1.398 . S
C2108 C2109 1.391 . S
C2109 H2097 0.950 . S
C2109 C2105 1.393 . S
C2109 C2108 1.391 . S
C2110 H2100 0.950 . S
C2110 C2111 1.386 . S
C2110 C2112 1.391 . S
C2111 C2110 1.386 . S
C2111 C2115 1.393 . S
C2112 H2101 0.950 . S
C2112 C2110 1.391 . S
C2112 C2113 1.400 . S
C2113 C2107 1.491 . S
C2113 C2112 1.400 . S
C2113 C2114 1.398 . S
C2114 H2102 0.950 . S
C2114 C2113 1.398 . S
C2114 C2115 1.391 . S
C2115 H2103 0.950 . S
C2115 C2111 1.393 . S
C2115 C2114 1.391 . S
H2116 C2124 0.950 1_554 S
H2117 C2129 0.950 . S
H2118 C2126 0.950 . S
H2119 C2128 0.950 . S
H2120 C2130 0.950 . S
H2121 C2132 0.950 . S
H2122 C2134 0.950 . S
H2123 C2135 0.950 . S
C2124 H2116 0.950 1_556 S
C2124 C2125 1.386 . S
C2124 C2126 1.391 . S
C2125 C2124 1.386 . S
C2125 C2129 1.393 . S
C2126 H2118 0.950 . S
C2126 C2124 1.391 . S
C2126 C2127 1.400 . S
C2127 C2126 1.400 . S
C2127 C2128 1.398 . S
C2127 C2133 1.491 . S
C2128 H2119 0.950 . S
C2128 C2127 1.398 . S
C2128 C2129 1.391 . S
C2129 H2117 0.950 . S
C2129 C2125 1.393 . S
C2129 C2128 1.391 . S
C2130 H2120 0.950 . S
C2130 C2131 1.386 . S
C2130 C2132 1.391 . S
C2131 C2130 1.386 . S
C2131 C2135 1.393 . S
C2132 H2121 0.950 . S
C2132 C2130 1.391 . S
C2132 C2133 1.400 . S
C2133 C2127 1.491 . S
C2133 C2132 1.400 . S
C2133 C2134 1.398 . S
C2134 H2122 0.950 . S
C2134 C2133 1.398 . S
C2134 C2135 1.391 . S
C2135 H2123 0.950 . S
C2135 C2131 1.393 . S
C2135 C2134 1.391 . S
H2136 C2144 0.950 . S
H2137 C2149 0.950 . S
H2138 C2146 0.950 . S
H2139 C2148 0.950 . S
H2140 C2150 0.950 . S
H2141 C2152 0.950 . S
H2142 C2154 0.950 . S
H2143 C2155 0.950 . S
C2144 H2136 0.950 . S
C2144 C2145 1.386 . S
C2144 C2146 1.391 . S
C2145 C2144 1.386 . S
C2145 C2149 1.393 . S
C2146 H2138 0.950 . S
C2146 C2144 1.391 . S
C2146 C2147 1.400 . S
C2147 C2146 1.400 . S
C2147 C2148 1.398 . S
C2147 C2153 1.491 . S
C2148 H2139 0.950 . S
C2148 C2147 1.398 . S
C2148 C2149 1.391 . S
C2149 H2137 0.950 . S
C2149 C2145 1.393 . S
C2149 C2148 1.391 . S
C2150 H2140 0.950 . S
C2150 C2151 1.386 . S
C2150 C2152 1.391 . S
C2151 C2150 1.386 . S
C2151 C2155 1.393 . S
C2152 H2141 0.950 . S
C2152 C2150 1.391 . S
C2152 C2153 1.400 . S
C2153 C2147 1.491 . S
C2153 C2152 1.400 . S
C2153 C2154 1.398 . S
C2154 H2142 0.950 . S
C2154 C2153 1.398 . S
C2154 C2155 1.391 . S
C2155 H2143 0.950 . S
C2155 C2151 1.393 . S
C2155 C2154 1.391 . S
H2156 C2164 0.950 . S
H2157 C2169 0.950 . S
H2158 C2166 0.950 . S
H2159 C2168 0.950 . S
H2160 C2170 0.950 . S
H2161 C2172 0.950 . S
H2162 C2174 0.950 . S
H2163 C2175 0.950 . S
C2164 H2156 0.950 . S
C2164 C2165 1.386 . S
C2164 C2166 1.391 . S
C2165 C2164 1.386 . S
C2165 C2169 1.393 . S
C2166 H2158 0.950 . S
C2166 C2164 1.391 . S
C2166 C2167 1.400 . S
C2167 C2166 1.400 . S
C2167 C2168 1.398 . S
C2167 C2173 1.491 . S
C2168 H2159 0.950 . S
C2168 C2167 1.398 . S
C2168 C2169 1.391 . S
C2169 H2157 0.950 . S
C2169 C2165 1.393 . S
C2169 C2168 1.391 . S
C2170 H2160 0.950 . S
C2170 C2171 1.386 . S
C2170 C2172 1.391 . S
C2171 C2170 1.386 . S
C2171 C2175 1.393 . S
C2172 H2161 0.950 . S
C2172 C2170 1.391 . S
C2172 C2173 1.400 . S
C2173 C2167 1.491 . S
C2173 C2172 1.400 . S
C2173 C2174 1.398 . S
C2174 H2162 0.950 . S
C2174 C2173 1.398 . S
C2174 C2175 1.391 . S
C2175 H2163 0.950 . S
C2175 C2171 1.393 . S
C2175 C2174 1.391 . S
H2176 C2184 0.950 . S
H2177 C2189 0.950 . S
H2178 C2186 0.950 . S
H2179 C2188 0.950 . S
H2180 C2190 0.950 . S
H2181 C2192 0.950 . S
H2182 C2194 0.950 . S
H2183 C2195 0.950 . S
C2184 H2176 0.950 . S
C2184 C2185 1.386 . S
C2184 C2186 1.391 . S
C2185 C2184 1.386 . S
C2185 C2189 1.393 . S
C2186 H2178 0.950 . S
C2186 C2184 1.391 . S
C2186 C2187 1.400 . S
C2187 C2186 1.400 . S
C2187 C2188 1.398 . S
C2187 C2193 1.491 . S
C2188 H2179 0.950 . S
C2188 C2187 1.398 . S
C2188 C2189 1.391 . S
C2189 H2177 0.950 . S
C2189 C2185 1.393 . S
C2189 C2188 1.391 . S
C2190 H2180 0.950 . S
C2190 C2191 1.386 . S
C2190 C2192 1.391 . S
C2191 C2190 1.386 . S
C2191 C2195 1.393 . S
C2192 H2181 0.950 . S
C2192 C2190 1.391 . S
C2192 C2193 1.400 . S
C2193 C2187 1.491 . S
C2193 C2192 1.400 . S
C2193 C2194 1.398 . S
C2194 H2182 0.950 . S
C2194 C2193 1.398 . S
C2194 C2195 1.391 . S
C2195 H2183 0.950 . S
C2195 C2191 1.393 . S
C2195 C2194 1.391 . S
H2196 C2204 0.950 . S
H2197 C2209 0.950 . S
H2198 C2206 0.950 . S
H2199 C2208 0.950 . S
H2200 C2210 0.950 . S
H2201 C2212 0.950 . S
H2202 C2214 0.950 . S
H2203 C2215 0.950 . S
C2204 H2196 0.950 . S
C2204 C2205 1.386 . S
C2204 C2206 1.391 . S
C2205 C2204 1.386 . S
C2205 C2209 1.393 . S
C2206 H2198 0.950 . S
C2206 C2204 1.391 . S
C2206 C2207 1.400 . S
C2207 C2206 1.400 . S
C2207 C2208 1.398 . S
C2207 C2213 1.491 . S
C2208 H2199 0.950 . S
C2208 C2207 1.398 . S
C2208 C2209 1.391 . S
C2209 H2197 0.950 . S
C2209 C2205 1.393 . S
C2209 C2208 1.391 . S
C2210 H2200 0.950 . S
C2210 C2211 1.386 . S
C2210 C2212 1.391 . S
C2211 C2210 1.386 . S
C2211 C2215 1.393 . S
C2212 H2201 0.950 . S
C2212 C2210 1.391 . S
C2212 C2213 1.400 . S
C2213 C2207 1.491 . S
C2213 C2212 1.400 . S
C2213 C2214 1.398 . S
C2214 H2202 0.950 . S
C2214 C2213 1.398 . S
C2214 C2215 1.391 . S
C2215 H2203 0.950 . S
C2215 C2211 1.393 . S
C2215 C2214 1.391 . S
H2216 C2224 0.950 . S
H2217 C2229 0.950 . S
H2218 C2226 0.950 . S
H2219 C2228 0.950 . S
H2220 C2230 0.950 . S
H2221 C2232 0.950 . S
H2222 C2234 0.950 . S
H2223 C2235 0.950 . S
C2224 H2216 0.950 . S
C2224 C2225 1.386 . S
C2224 C2226 1.391 . S
C2225 C2224 1.386 . S
C2225 C2229 1.393 . S
C2226 H2218 0.950 . S
C2226 C2224 1.391 . S
C2226 C2227 1.400 . S
C2227 C2226 1.400 . S
C2227 C2228 1.398 . S
C2227 C2233 1.491 . S
C2228 H2219 0.950 . S
C2228 C2227 1.398 . S
C2228 C2229 1.391 . S
C2229 H2217 0.950 . S
C2229 C2225 1.393 . S
C2229 C2228 1.391 . S
C2230 H2220 0.950 . S
C2230 C2231 1.386 . S
C2230 C2232 1.391 . S
C2231 C2230 1.386 . S
C2231 C2235 1.393 . S
C2232 H2221 0.950 . S
C2232 C2230 1.391 . S
C2232 C2233 1.400 . S
C2233 C2227 1.491 . S
C2233 C2232 1.400 . S
C2233 C2234 1.398 . S
C2234 H2222 0.950 . S
C2234 C2233 1.398 . S
C2234 C2235 1.391 . S
C2235 H2223 0.950 . S
C2235 C2231 1.393 . S
C2235 C2234 1.391 . S
H2236 C2244 0.950 . S
H2237 C2249 0.950 . S
H2238 C2246 0.950 . S
H2239 C2248 0.950 . S
H2240 C2250 0.950 . S
H2241 C2252 0.950 . S
H2242 C2254 0.950 . S
H2243 C2255 0.950 . S
C2244 H2236 0.950 . S
C2244 C2245 1.386 . S
C2244 C2246 1.391 . S
C2245 C2244 1.386 . S
C2245 C2249 1.393 . S
C2246 H2238 0.950 . S
C2246 C2244 1.391 . S
C2246 C2247 1.400 . S
C2247 C2246 1.400 . S
C2247 C2248 1.398 . S
C2247 C2253 1.491 . S
C2248 H2239 0.950 . S
C2248 C2247 1.398 . S
C2248 C2249 1.391 . S
C2249 H2237 0.950 . S
C2249 C2245 1.393 . S
C2249 C2248 1.391 . S
C2250 H2240 0.950 . S
C2250 C2251 1.386 . S
C2250 C2252 1.391 . S
C2251 C2250 1.386 . S
C2251 C2255 1.393 . S
C2252 H2241 0.950 . S
C2252 C2250 1.391 . S
C2252 C2253 1.400 . S
C2253 C2247 1.491 . S
C2253 C2252 1.400 . S
C2253 C2254 1.398 . S
C2254 H2242 0.950 . S
C2254 C2253 1.398 . S
C2254 C2255 1.391 . S
C2255 H2243 0.950 . S
C2255 C2251 1.393 . S
C2255 C2254 1.391 . S
H2256 C2264 0.950 . S
H2257 C2269 0.950 . S
H2258 C2266 0.950 . S
H2259 C2268 0.950 . S
H2260 C2270 0.950 . S
H2261 C2272 0.950 . S
H2262 C2274 0.950 . S
H2263 C2275 0.950 . S
C2264 H2256 0.950 . S
C2264 C2265 1.386 . S
C2264 C2266 1.391 . S
C2265 C2264 1.386 . S
C2265 C2269 1.393 . S
C2266 H2258 0.950 . S
C2266 C2264 1.391 . S
C2266 C2267 1.400 . S
C2267 C2266 1.400 . S
C2267 C2268 1.398 . S
C2267 C2273 1.491 . S
C2268 H2259 0.950 . S
C2268 C2267 1.398 . S
C2268 C2269 1.391 . S
C2269 H2257 0.950 . S
C2269 C2265 1.393 . S
C2269 C2268 1.391 . S
C2270 H2260 0.950 . S
C2270 C2271 1.386 . S
C2270 C2272 1.391 . S
C2271 C2270 1.386 . S
C2271 C2275 1.393 . S
C2272 H2261 0.950 . S
C2272 C2270 1.391 . S
C2272 C2273 1.400 . S
C2273 C2267 1.491 . S
C2273 C2272 1.400 . S
C2273 C2274 1.398 . S
C2274 H2262 0.950 . S
C2274 C2273 1.398 . S
C2274 C2275 1.391 . S
C2275 H2263 0.950 . S
C2275 C2271 1.393 . S
C2275 C2274 1.391 . S
H2276 C2284 0.950 . S
H2277 C2289 0.950 . S
H2278 C2286 0.950 . S
H2279 C2288 0.950 . S
H2280 C2290 0.950 . S
H2281 C2292 0.950 . S
H2282 C2294 0.950 . S
H2283 C2295 0.950 . S
C2284 H2276 0.950 . S
C2284 C2285 1.386 . S
C2284 C2286 1.391 . S
C2285 C2284 1.386 . S
C2285 C2289 1.393 . S
C2286 H2278 0.950 . S
C2286 C2284 1.391 . S
C2286 C2287 1.400 . S
C2287 C2286 1.400 . S
C2287 C2288 1.398 . S
C2287 C2293 1.491 . S
C2288 H2279 0.950 . S
C2288 C2287 1.398 . S
C2288 C2289 1.391 . S
C2289 H2277 0.950 . S
C2289 C2285 1.393 . S
C2289 C2288 1.391 . S
C2290 H2280 0.950 . S
C2290 C2291 1.386 . S
C2290 C2292 1.391 . S
C2291 C2290 1.386 . S
C2291 C2295 1.393 . S
C2292 H2281 0.950 . S
C2292 C2290 1.391 . S
C2292 C2293 1.400 . S
C2293 C2287 1.491 . S
C2293 C2292 1.400 . S
C2293 C2294 1.398 . S
C2294 H2282 0.950 . S
C2294 C2293 1.398 . S
C2294 C2295 1.391 . S
C2295 H2283 0.950 . S
C2295 C2291 1.393 . S
C2295 C2294 1.391 . S
H2296 C2304 0.950 . S
H2297 C2309 0.950 . S
H2298 C2306 0.950 . S
H2299 C2308 0.950 . S
H2300 C2310 0.950 . S
H2301 C2312 0.950 . S
H2302 C2314 0.950 . S
H2303 C2315 0.950 . S
C2304 H2296 0.950 . S
C2304 C2305 1.386 . S
C2304 C2306 1.391 . S
C2305 C2304 1.386 . S
C2305 C2309 1.393 . S
C2306 H2298 0.950 . S
C2306 C2304 1.391 . S
C2306 C2307 1.400 . S
C2307 C2306 1.400 . S
C2307 C2308 1.398 . S
C2307 C2313 1.491 . S
C2308 H2299 0.950 . S
C2308 C2307 1.398 . S
C2308 C2309 1.391 . S
C2309 H2297 0.950 . S
C2309 C2305 1.393 . S
C2309 C2308 1.391 . S
C2310 H2300 0.950 . S
C2310 C2311 1.386 . S
C2310 C2312 1.391 . S
C2311 C2310 1.386 . S
C2311 C2315 1.393 . S
C2312 H2301 0.950 . S
C2312 C2310 1.391 . S
C2312 C2313 1.400 . S
C2313 C2307 1.491 . S
C2313 C2312 1.400 . S
C2313 C2314 1.398 . S
C2314 H2302 0.950 . S
C2314 C2313 1.398 . S
C2314 C2315 1.391 . S
C2315 H2303 0.950 . S
C2315 C2311 1.393 . S
C2315 C2314 1.391 . S
H2316 C2324 0.950 . S
H2317 C2329 0.950 . S
H2318 C2326 0.950 . S
H2319 C2328 0.950 . S
H2320 C2330 0.950 . S
H2321 C2332 0.950 . S
H2322 C2334 0.950 . S
H2323 C2335 0.950 . S
C2324 H2316 0.950 . S
C2324 C2325 1.386 . S
C2324 C2326 1.391 . S
C2325 C2324 1.386 . S
C2325 C2329 1.393 . S
C2326 H2318 0.950 . S
C2326 C2324 1.391 . S
C2326 C2327 1.400 . S
C2327 C2326 1.400 . S
C2327 C2328 1.398 . S
C2327 C2333 1.491 . S
C2328 H2319 0.950 . S
C2328 C2327 1.398 . S
C2328 C2329 1.391 . S
C2329 H2317 0.950 . S
C2329 C2325 1.393 . S
C2329 C2328 1.391 . S
C2330 H2320 0.950 . S
C2330 C2331 1.386 . S
C2330 C2332 1.391 1_545 S
C2331 C2330 1.386 . S
C2331 C2335 1.393 . S
C2332 H2321 0.950 . S
C2332 C2330 1.391 1_565 S
C2332 C2333 1.400 . S
C2333 C2327 1.491 . S
C2333 C2332 1.400 . S
C2333 C2334 1.398 . S
C2334 H2322 0.950 . S
C2334 C2333 1.398 . S
C2334 C2335 1.391 1_565 S
C2335 H2323 0.950 . S
C2335 C2331 1.393 . S
C2335 C2334 1.391 1_545 S
H2336 C2344 0.950 . S
H2337 C2349 0.950 . S
H2338 C2346 0.950 . S
H2339 C2348 0.950 . S
H2340 C2350 0.950 . S
H2341 C2352 0.950 . S
H2342 C2354 0.950 . S
H2343 C2355 0.950 . S
C2344 H2336 0.950 . S
C2344 C2345 1.386 . S
C2344 C2346 1.391 . S
C2345 C2344 1.386 . S
C2345 C2349 1.393 . S
C2346 H2338 0.950 . S
C2346 C2344 1.391 . S
C2346 C2347 1.400 . S
C2347 C2346 1.400 . S
C2347 C2348 1.398 . S
C2347 C2353 1.491 . S
C2348 H2339 0.950 . S
C2348 C2347 1.398 . S
C2348 C2349 1.391 . S
C2349 H2337 0.950 . S
C2349 C2345 1.393 . S
C2349 C2348 1.391 . S
C2350 H2340 0.950 . S
C2350 C2351 1.386 . S
C2350 C2352 1.391 . S
C2351 C2350 1.386 . S
C2351 C2355 1.393 . S
C2352 H2341 0.950 . S
C2352 C2350 1.391 . S
C2352 C2353 1.400 . S
C2353 C2347 1.491 . S
C2353 C2352 1.400 . S
C2353 C2354 1.398 . S
C2354 H2342 0.950 . S
C2354 C2353 1.398 . S
C2354 C2355 1.391 . S
C2355 H2343 0.950 . S
C2355 C2351 1.393 . S
C2355 C2354 1.391 . S
H2356 C2364 0.950 . S
H2357 C2369 0.950 1_556 S
H2358 C2366 0.950 . S
H2359 C2368 0.950 . S
H2360 C2370 0.950 . S
H2361 C2372 0.950 . S
H2362 C2374 0.950 . S
H2363 C2375 0.950 . S
C2364 H2356 0.950 . S
C2364 C2365 1.386 . S
C2364 C2366 1.391 . S
C2365 C2364 1.386 . S
C2365 C2369 1.393 . S
C2366 H2358 0.950 . S
C2366 C2364 1.391 . S
C2366 C2367 1.400 . S
C2367 C2366 1.400 . S
C2367 C2368 1.398 . S
C2367 C2373 1.491 . S
C2368 H2359 0.950 . S
C2368 C2367 1.398 . S
C2368 C2369 1.391 . S
C2369 H2357 0.950 1_554 S
C2369 C2365 1.393 . S
C2369 C2368 1.391 . S
C2370 H2360 0.950 . S
C2370 C2371 1.386 . S
C2370 C2372 1.391 . S
C2371 C2370 1.386 . S
C2371 C2375 1.393 . S
C2372 H2361 0.950 . S
C2372 C2370 1.391 . S
C2372 C2373 1.400 . S
C2373 C2367 1.491 . S
C2373 C2372 1.400 . S
C2373 C2374 1.398 . S
C2374 H2362 0.950 . S
C2374 C2373 1.398 . S
C2374 C2375 1.391 . S
C2375 H2363 0.950 . S
C2375 C2371 1.393 . S
C2375 C2374 1.391 . S
H2376 C2384 0.950 . S
H2377 C2389 0.950 . S
H2378 C2386 0.950 . S
H2379 C2388 0.950 . S
H2380 C2390 0.950 . S
H2381 C2392 0.950 . S
H2382 C2394 0.950 . S
H2383 C2395 0.950 . S
C2384 H2376 0.950 . S
C2384 C2385 1.386 . S
C2384 C2386 1.391 . S
C2385 C2384 1.386 . S
C2385 C2389 1.393 . S
C2386 H2378 0.950 . S
C2386 C2384 1.391 . S
C2386 C2387 1.400 . S
C2387 C2386 1.400 . S
C2387 C2388 1.398 . S
C2387 C2393 1.491 . S
C2388 H2379 0.950 . S
C2388 C2387 1.398 . S
C2388 C2389 1.391 . S
C2389 H2377 0.950 . S
C2389 C2385 1.393 . S
C2389 C2388 1.391 . S
C2390 H2380 0.950 . S
C2390 C2391 1.386 . S
C2390 C2392 1.391 . S
C2391 C2390 1.386 . S
C2391 C2395 1.393 . S
C2392 H2381 0.950 . S
C2392 C2390 1.391 . S
C2392 C2393 1.400 . S
C2393 C2387 1.491 . S
C2393 C2392 1.400 . S
C2393 C2394 1.398 . S
C2394 H2382 0.950 . S
C2394 C2393 1.398 . S
C2394 C2395 1.391 . S
C2395 H2383 0.950 . S
C2395 C2391 1.393 . S
C2395 C2394 1.391 . S
H2396 C2404 0.950 . S
H2397 C2409 0.950 . S
H2398 C2406 0.950 . S
H2399 C2408 0.950 . S
H2400 C2410 0.950 . S
H2401 C2412 0.950 . S
H2402 C2414 0.950 . S
H2403 C2415 0.950 . S
C2404 H2396 0.950 . S
C2404 C2405 1.386 . S
C2404 C2406 1.391 . S
C2405 C2404 1.386 . S
C2405 C2409 1.393 . S
C2406 H2398 0.950 . S
C2406 C2404 1.391 . S
C2406 C2407 1.400 . S
C2407 C2406 1.400 . S
C2407 C2408 1.398 . S
C2407 C2413 1.491 . S
C2408 H2399 0.950 . S
C2408 C2407 1.398 . S
C2408 C2409 1.391 . S
C2409 H2397 0.950 . S
C2409 C2405 1.393 . S
C2409 C2408 1.391 . S
C2410 H2400 0.950 . S
C2410 C2411 1.386 . S
C2410 C2412 1.391 . S
C2411 C2410 1.386 . S
C2411 C2415 1.393 . S
C2412 H2401 0.950 . S
C2412 C2410 1.391 . S
C2412 C2413 1.400 1_565 S
C2413 C2407 1.491 . S
C2413 C2412 1.400 1_545 S
C2413 C2414 1.398 . S
C2414 H2402 0.950 . S
C2414 C2413 1.398 . S
C2414 C2415 1.391 1_545 S
C2415 H2403 0.950 . S
C2415 C2411 1.393 . S
C2415 C2414 1.391 1_565 S
H2416 C2424 0.950 . S
H2417 C2429 0.950 . S
H2418 C2426 0.950 . S
H2419 C2428 0.950 . S
H2420 C2430 0.950 . S
H2421 C2432 0.950 . S
H2422 C2434 0.950 . S
H2423 C2435 0.950 . S
C2424 H2416 0.950 . S
C2424 C2425 1.386 . S
C2424 C2426 1.391 . S
C2425 C2424 1.386 . S
C2425 C2429 1.393 . S
C2426 H2418 0.950 . S
C2426 C2424 1.391 . S
C2426 C2427 1.400 . S
C2427 C2426 1.400 . S
C2427 C2428 1.398 . S
C2427 C2433 1.491 . S
C2428 H2419 0.950 . S
C2428 C2427 1.398 . S
C2428 C2429 1.391 . S
C2429 H2417 0.950 . S
C2429 C2425 1.393 . S
C2429 C2428 1.391 . S
C2430 H2420 0.950 . S
C2430 C2431 1.386 . S
C2430 C2432 1.391 . S
C2431 C2430 1.386 . S
C2431 C2435 1.393 . S
C2432 H2421 0.950 . S
C2432 C2430 1.391 . S
C2432 C2433 1.400 . S
C2433 C2427 1.491 . S
C2433 C2432 1.400 . S
C2433 C2434 1.398 . S
C2434 H2422 0.950 . S
C2434 C2433 1.398 . S
C2434 C2435 1.391 . S
C2435 H2423 0.950 . S
C2435 C2431 1.393 . S
C2435 C2434 1.391 . S
H2436 C2444 0.950 . S
H2437 C2449 0.950 . S
H2438 C2446 0.950 . S
H2439 C2448 0.950 . S
H2440 C2450 0.950 . S
H2441 C2452 0.950 . S
H2442 C2454 0.950 . S
H2443 C2455 0.950 . S
C2444 H2436 0.950 . S
C2444 C2445 1.386 . S
C2444 C2446 1.391 . S
C2445 C2444 1.386 . S
C2445 C2449 1.393 . S
C2446 H2438 0.950 . S
C2446 C2444 1.391 . S
C2446 C2447 1.400 . S
C2447 C2446 1.400 . S
C2447 C2448 1.398 . S
C2447 C2453 1.491 . S
C2448 H2439 0.950 . S
C2448 C2447 1.398 . S
C2448 C2449 1.391 . S
C2449 H2437 0.950 . S
C2449 C2445 1.393 . S
C2449 C2448 1.391 . S
C2450 H2440 0.950 . S
C2450 C2451 1.386 . S
C2450 C2452 1.391 . S
C2451 C2450 1.386 . S
C2451 C2455 1.393 . S
C2452 H2441 0.950 . S
C2452 C2450 1.391 . S
C2452 C2453 1.400 . S
C2453 C2447 1.491 . S
C2453 C2452 1.400 . S
C2453 C2454 1.398 . S
C2454 H2442 0.950 . S
C2454 C2453 1.398 . S
C2454 C2455 1.391 . S
C2455 H2443 0.950 . S
C2455 C2451 1.393 . S
C2455 C2454 1.391 . S
H2456 C2464 0.950 . S
H2457 C2469 0.950 . S
H2458 C2466 0.950 . S
H2459 C2468 0.950 . S
H2460 C2470 0.950 . S
H2461 C2472 0.950 . S
H2462 C2474 0.950 . S
H2463 C2475 0.950 . S
C2464 H2456 0.950 . S
C2464 C2465 1.386 . S
C2464 C2466 1.391 . S
C2465 C2464 1.386 . S
C2465 C2469 1.393 . S
C2466 H2458 0.950 . S
C2466 C2464 1.391 . S
C2466 C2467 1.400 . S
C2467 C2466 1.400 . S
C2467 C2468 1.398 . S
C2467 C2473 1.491 . S
C2468 H2459 0.950 . S
C2468 C2467 1.398 . S
C2468 C2469 1.391 . S
C2469 H2457 0.950 . S
C2469 C2465 1.393 . S
C2469 C2468 1.391 . S
C2470 H2460 0.950 . S
C2470 C2471 1.386 . S
C2470 C2472 1.391 . S
C2471 C2470 1.386 . S
C2471 C2475 1.393 . S
C2472 H2461 0.950 . S
C2472 C2470 1.391 . S
C2472 C2473 1.400 . S
C2473 C2467 1.491 . S
C2473 C2472 1.400 . S
C2473 C2474 1.398 . S
C2474 H2462 0.950 . S
C2474 C2473 1.398 . S
C2474 C2475 1.391 . S
C2475 H2463 0.950 . S
C2475 C2471 1.393 . S
C2475 C2474 1.391 . S
H2476 C2484 0.950 . S
H2477 C2489 0.950 . S
H2478 C2486 0.950 . S
H2479 C2488 0.950 . S
H2480 C2490 0.950 . S
H2481 C2492 0.950 . S
H2482 C2494 0.950 . S
H2483 C2495 0.950 . S
C2484 H2476 0.950 . S
C2484 C2485 1.386 . S
C2484 C2486 1.391 . S
C2485 C2484 1.386 . S
C2485 C2489 1.393 . S
C2486 H2478 0.950 . S
C2486 C2484 1.391 . S
C2486 C2487 1.400 . S
C2487 C2486 1.400 . S
C2487 C2488 1.398 . S
C2487 C2493 1.491 . S
C2488 H2479 0.950 . S
C2488 C2487 1.398 . S
C2488 C2489 1.391 . S
C2489 H2477 0.950 . S
C2489 C2485 1.393 . S
C2489 C2488 1.391 . S
C2490 H2480 0.950 . S
C2490 C2491 1.386 . S
C2490 C2492 1.391 . S
C2491 C2490 1.386 . S
C2491 C2495 1.393 . S
C2492 H2481 0.950 . S
C2492 C2490 1.391 . S
C2492 C2493 1.400 . S
C2493 C2487 1.491 . S
C2493 C2492 1.400 . S
C2493 C2494 1.398 . S
C2494 H2482 0.950 . S
C2494 C2493 1.398 . S
C2494 C2495 1.391 . S
C2495 H2483 0.950 . S
C2495 C2491 1.393 . S
C2495 C2494 1.391 . S
H2496 C2504 0.950 . S
H2497 C2509 0.950 . S
H2498 C2506 0.950 . S
H2499 C2508 0.950 . S
H2500 C2510 0.950 . S
H2501 C2512 0.950 . S
H2502 C2514 0.950 . S
H2503 C2515 0.950 . S
C2504 H2496 0.950 . S
C2504 C2505 1.386 . S
C2504 C2506 1.391 . S
C2505 C2504 1.386 . S
C2505 C2509 1.393 . S
C2506 H2498 0.950 . S
C2506 C2504 1.391 . S
C2506 C2507 1.400 . S
C2507 C2506 1.400 . S
C2507 C2508 1.398 . S
C2507 C2513 1.491 . S
C2508 H2499 0.950 . S
C2508 C2507 1.398 . S
C2508 C2509 1.391 . S
C2509 H2497 0.950 . S
C2509 C2505 1.393 . S
C2509 C2508 1.391 . S
C2510 H2500 0.950 . S
C2510 C2511 1.386 . S
C2510 C2512 1.391 . S
C2511 C2510 1.386 . S
C2511 C2515 1.393 . S
C2512 H2501 0.950 . S
C2512 C2510 1.391 . S
C2512 C2513 1.400 . S
C2513 C2507 1.491 . S
C2513 C2512 1.400 . S
C2513 C2514 1.398 . S
C2514 H2502 0.950 . S
C2514 C2513 1.398 . S
C2514 C2515 1.391 . S
C2515 H2503 0.950 . S
C2515 C2511 1.393 . S
C2515 C2514 1.391 . S
H2516 C2524 0.950 . S
H2517 C2529 0.950 . S
H2518 C2526 0.950 . S
H2519 C2528 0.950 . S
H2520 C2530 0.950 . S
H2521 C2532 0.950 . S
H2522 C2534 0.950 . S
H2523 C2535 0.950 . S
C2524 H2516 0.950 . S
C2524 C2525 1.386 . S
C2524 C2526 1.391 . S
C2525 C2524 1.386 . S
C2525 C2529 1.393 . S
C2526 H2518 0.950 . S
C2526 C2524 1.391 . S
C2526 C2527 1.400 . S
C2527 C2526 1.400 . S
C2527 C2528 1.398 . S
C2527 C2533 1.491 . S
C2528 H2519 0.950 . S
C2528 C2527 1.398 . S
C2528 C2529 1.391 . S
C2529 H2517 0.950 . S
C2529 C2525 1.393 . S
C2529 C2528 1.391 . S
C2530 H2520 0.950 . S
C2530 C2531 1.386 . S
C2530 C2532 1.391 . S
C2531 C2530 1.386 . S
C2531 C2535 1.393 . S
C2532 H2521 0.950 . S
C2532 C2530 1.391 . S
C2532 C2533 1.400 . S
C2533 C2527 1.491 . S
C2533 C2532 1.400 . S
C2533 C2534 1.398 . S
C2534 H2522 0.950 . S
C2534 C2533 1.398 . S
C2534 C2535 1.391 . S
C2535 H2523 0.950 . S
C2535 C2531 1.393 . S
C2535 C2534 1.391 . S
H2536 C2544 0.950 . S
H2537 C2549 0.950 . S
H2538 C2546 0.950 . S
H2539 C2548 0.950 . S
H2540 C2550 0.950 . S
H2541 C2552 0.950 . S
H2542 C2554 0.950 . S
H2543 C2555 0.950 . S
C2544 H2536 0.950 . S
C2544 C2545 1.386 . S
C2544 C2546 1.391 . S
C2545 C2544 1.386 . S
C2545 C2549 1.393 . S
C2546 H2538 0.950 . S
C2546 C2544 1.391 . S
C2546 C2547 1.400 . S
C2547 C2546 1.400 . S
C2547 C2548 1.398 . S
C2547 C2553 1.491 . S
C2548 H2539 0.950 . S
C2548 C2547 1.398 . S
C2548 C2549 1.391 . S
C2549 H2537 0.950 . S
C2549 C2545 1.393 . S
C2549 C2548 1.391 . S
C2550 H2540 0.950 . S
C2550 C2551 1.386 . S
C2550 C2552 1.391 . S
C2551 C2550 1.386 . S
C2551 C2555 1.393 . S
C2552 H2541 0.950 . S
C2552 C2550 1.391 . S
C2552 C2553 1.400 . S
C2553 C2547 1.491 . S
C2553 C2552 1.400 . S
C2553 C2554 1.398 . S
C2554 H2542 0.950 . S
C2554 C2553 1.398 . S
C2554 C2555 1.391 . S
C2555 H2543 0.950 . S
C2555 C2551 1.393 . S
C2555 C2554 1.391 . S
H2556 C2564 0.950 . S
H2557 C2569 0.950 . S
H2558 C2566 0.950 . S
H2559 C2568 0.950 . S
H2560 C2570 0.950 . S
H2561 C2572 0.950 . S
H2562 C2574 0.950 . S
H2563 C2575 0.950 . S
C2564 H2556 0.950 . S
C2564 C2565 1.386 . S
C2564 C2566 1.391 . S
C2565 C2564 1.386 . S
C2565 C2569 1.393 . S
C2566 H2558 0.950 . S
C2566 C2564 1.391 . S
C2566 C2567 1.400 . S
C2567 C2566 1.400 . S
C2567 C2568 1.398 . S
C2567 C2573 1.491 . S
C2568 H2559 0.950 . S
C2568 C2567 1.398 . S
C2568 C2569 1.391 . S
C2569 H2557 0.950 . S
C2569 C2565 1.393 . S
C2569 C2568 1.391 . S
C2570 H2560 0.950 . S
C2570 C2571 1.386 . S
C2570 C2572 1.391 . S
C2571 C2570 1.386 . S
C2571 C2575 1.393 . S
C2572 H2561 0.950 . S
C2572 C2570 1.391 . S
C2572 C2573 1.400 . S
C2573 C2567 1.491 . S
C2573 C2572 1.400 . S
C2573 C2574 1.398 . S
C2574 H2562 0.950 . S
C2574 C2573 1.398 . S
C2574 C2575 1.391 . S
C2575 H2563 0.950 . S
C2575 C2571 1.393 . S
C2575 C2574 1.391 . S
H2576 C2584 0.950 . S
H2577 C2589 0.950 . S
H2578 C2586 0.950 . S
H2579 C2588 0.950 . S
H2580 C2590 0.950 . S
H2581 C2592 0.950 . S
H2582 C2594 0.950 . S
H2583 C2595 0.950 . S
C2584 H2576 0.950 . S
C2584 C2585 1.386 . S
C2584 C2586 1.391 . S
C2585 C2584 1.386 . S
C2585 C2589 1.393 . S
C2586 H2578 0.950 . S
C2586 C2584 1.391 . S
C2586 C2587 1.400 . S
C2587 C2586 1.400 . S
C2587 C2588 1.398 . S
C2587 C2593 1.491 . S
C2588 H2579 0.950 . S
C2588 C2587 1.398 . S
C2588 C2589 1.391 . S
C2589 H2577 0.950 . S
C2589 C2585 1.393 . S
C2589 C2588 1.391 . S
C2590 H2580 0.950 . S
C2590 C2591 1.386 . S
C2590 C2592 1.391 . S
C2591 C2590 1.386 . S
C2591 C2595 1.393 . S
C2592 H2581 0.950 . S
C2592 C2590 1.391 . S
C2592 C2593 1.400 . S
C2593 C2587 1.491 . S
C2593 C2592 1.400 . S
C2593 C2594 1.398 . S
C2594 H2582 0.950 . S
C2594 C2593 1.398 . S
C2594 C2595 1.391 . S
C2595 H2583 0.950 . S
C2595 C2591 1.393 . S
C2595 C2594 1.391 . S
H2596 C2604 0.950 . S
H2597 C2609 0.950 . S
H2598 C2606 0.950 . S
H2599 C2608 0.950 . S
H2600 C2610 0.950 . S
H2601 C2612 0.950 . S
H2602 C2614 0.950 . S
H2603 C2615 0.950 . S
C2604 H2596 0.950 . S
C2604 C2605 1.386 . S
C2604 C2606 1.391 . S
C2605 C2604 1.386 . S
C2605 C2609 1.393 . S
C2606 H2598 0.950 . S
C2606 C2604 1.391 . S
C2606 C2607 1.400 . S
C2607 C2606 1.400 . S
C2607 C2608 1.398 . S
C2607 C2613 1.491 . S
C2608 H2599 0.950 . S
C2608 C2607 1.398 . S
C2608 C2609 1.391 . S
C2609 H2597 0.950 . S
C2609 C2605 1.393 . S
C2609 C2608 1.391 . S
C2610 H2600 0.950 . S
C2610 C2611 1.386 . S
C2610 C2612 1.391 . S
C2611 C2610 1.386 . S
C2611 C2615 1.393 . S
C2612 H2601 0.950 . S
C2612 C2610 1.391 . S
C2612 C2613 1.400 . S
C2613 C2607 1.491 . S
C2613 C2612 1.400 . S
C2613 C2614 1.398 . S
C2614 H2602 0.950 . S
C2614 C2613 1.398 . S
C2614 C2615 1.391 . S
C2615 H2603 0.950 . S
C2615 C2611 1.393 . S
C2615 C2614 1.391 . S
H2616 C2624 0.950 . S
H2617 C2629 0.950 . S
H2618 C2626 0.950 . S
H2619 C2628 0.950 1_455 S
H2620 C2630 0.950 1_554 S
H2621 C2632 0.950 . S
H2622 C2634 0.950 . S
H2623 C2635 0.950 1_655 S
C2624 H2616 0.950 . S
C2624 C2625 1.386 . S
C2624 C2626 1.391 . S
C2625 C2624 1.386 . S
C2625 C2629 1.393 . S
C2626 H2618 0.950 . S
C2626 C2624 1.391 . S
C2626 C2627 1.400 . S
C2627 C2626 1.400 . S
C2627 C2628 1.398 . S
C2627 C2633 1.502 . S
C2628 H2619 0.950 1_655 S
C2628 C2627 1.398 . S
C2628 C2629 1.391 . S
C2629 H2617 0.950 . S
C2629 C2625 1.393 . S
C2629 C2628 1.391 . S
C2630 H2620 0.950 1_556 S
C2630 C2631 1.386 . S
C2630 C2632 1.391 . S
C2631 C2630 1.386 . S
C2631 C2635 1.393 . S
C2632 H2621 0.950 . S
C2632 C2630 1.391 . S
C2632 C2633 1.384 1_455 S
C2633 C2627 1.502 . S
C2633 C2632 1.384 1_655 S
C2633 C2634 1.404 . S
C2634 H2622 0.950 . S
C2634 C2633 1.404 . S
C2634 C2635 1.391 1_655 S
C2635 H2623 0.950 1_455 S
C2635 C2631 1.393 . S
C2635 C2634 1.391 1_455 S
H2636 C2644 0.950 . S
H2637 C2649 0.950 . S
H2638 C2646 0.950 . S
H2639 C2648 0.950 . S
H2640 C2650 0.950 . S
H2641 C2652 0.950 . S
H2642 C2654 0.950 . S
H2643 C2655 0.950 . S
C2644 H2636 0.950 . S
C2644 C2645 1.386 . S
C2644 C2646 1.391 . S
C2645 C2644 1.386 . S
C2645 C2649 1.393 . S
C2646 H2638 0.950 . S
C2646 C2644 1.391 . S
C2646 C2647 1.400 . S
C2647 C2646 1.400 . S
C2647 C2648 1.398 . S
C2647 C2653 1.491 . S
C2648 H2639 0.950 . S
C2648 C2647 1.398 . S
C2648 C2649 1.391 . S
C2649 H2637 0.950 . S
C2649 C2645 1.393 . S
C2649 C2648 1.391 . S
C2650 H2640 0.950 . S
C2650 C2651 1.386 . S
C2650 C2652 1.391 . S
C2651 C2650 1.386 . S
C2651 C2655 1.393 . S
C2652 H2641 0.950 . S
C2652 C2650 1.391 . S
C2652 C2653 1.400 . S
C2653 C2647 1.491 . S
C2653 C2652 1.400 . S
C2653 C2654 1.398 . S
C2654 H2642 0.950 . S
C2654 C2653 1.398 . S
C2654 C2655 1.391 . S
C2655 H2643 0.950 . S
C2655 C2651 1.393 . S
C2655 C2654 1.391 . S
H2656 C2664 0.950 . S
H2657 C2669 0.950 . S
H2658 C2666 0.950 . S
H2659 C2668 0.950 . S
H2660 C2670 0.950 . S
H2661 C2672 0.950 . S
H2662 C2674 0.950 . S
H2663 C2675 0.950 . S
C2664 H2656 0.950 . S
C2664 C2665 1.386 . S
C2664 C2666 1.391 . S
C2665 C2664 1.386 . S
C2665 C2669 1.393 . S
C2666 H2658 0.950 . S
C2666 C2664 1.391 . S
C2666 C2667 1.400 . S
C2667 C2666 1.400 . S
C2667 C2668 1.398 . S
C2667 C2673 1.491 . S
C2668 H2659 0.950 . S
C2668 C2667 1.398 . S
C2668 C2669 1.391 . S
C2669 H2657 0.950 . S
C2669 C2665 1.393 . S
C2669 C2668 1.391 . S
C2670 H2660 0.950 . S
C2670 C2671 1.386 . S
C2670 C2672 1.391 . S
C2671 C2670 1.386 . S
C2671 C2675 1.393 . S
C2672 H2661 0.950 . S
C2672 C2670 1.391 . S
C2672 C2673 1.400 . S
C2673 C2667 1.491 . S
C2673 C2672 1.400 . S
C2673 C2674 1.398 . S
C2674 H2662 0.950 . S
C2674 C2673 1.398 . S
C2674 C2675 1.391 . S
C2675 H2663 0.950 . S
C2675 C2671 1.393 . S
C2675 C2674 1.391 . S
H2676 C2684 0.950 . S
H2677 C2689 0.950 . S
H2678 C2686 0.950 . S
H2679 C2688 0.950 . S
H2680 C2690 0.950 . S
H2681 C2692 0.950 . S
H2682 C2694 0.950 . S
H2683 C2695 0.950 . S
C2684 H2676 0.950 . S
C2684 C2685 1.386 . S
C2684 C2686 1.391 1_554 S
C2685 C2684 1.386 . S
C2685 C2689 1.393 1_554 S
C2686 H2678 0.950 . S
C2686 C2684 1.391 1_556 S
C2686 C2687 1.400 . S
C2687 C2686 1.400 . S
C2687 C2688 1.398 . S
C2687 C2693 1.491 . S
C2688 H2679 0.950 . S
C2688 C2687 1.398 . S
C2688 C2689 1.391 . S
C2689 H2677 0.950 . S
C2689 C2685 1.393 1_556 S
C2689 C2688 1.391 . S
C2690 H2680 0.950 . S
C2690 C2691 1.386 . S
C2690 C2692 1.391 . S
C2691 C2690 1.386 . S
C2691 C2695 1.393 . S
C2692 H2681 0.950 . S
C2692 C2690 1.391 . S
C2692 C2693 1.400 . S
C2693 C2687 1.491 . S
C2693 C2692 1.400 . S
C2693 C2694 1.398 . S
C2694 H2682 0.950 . S
C2694 C2693 1.398 . S
C2694 C2695 1.391 . S
C2695 H2683 0.950 . S
C2695 C2691 1.393 . S
C2695 C2694 1.391 . S
H2696 C2704 0.950 . S
H2697 C2709 0.950 . S
H2698 C2706 0.950 . S
H2699 C2708 0.950 1_455 S
H2700 C2710 0.950 . S
H2701 C2712 0.950 . S
H2702 C2714 0.950 . S
H2703 C2715 0.950 . S
C2704 H2696 0.950 . S
C2704 C2705 1.386 . S
C2704 C2706 1.391 . S
C2705 C2704 1.386 . S
C2705 C2709 1.393 . S
C2706 H2698 0.950 . S
C2706 C2704 1.391 . S
C2706 C2707 1.400 . S
C2707 C2706 1.400 . S
C2707 C2708 1.398 . S
C2707 C2713 1.491 . S
C2708 H2699 0.950 1_655 S
C2708 C2707 1.398 . S
C2708 C2709 1.391 . S
C2709 H2697 0.950 . S
C2709 C2705 1.393 . S
C2709 C2708 1.391 . S
C2710 H2700 0.950 . S
C2710 C2711 1.386 . S
C2710 C2712 1.391 . S
C2711 C2710 1.386 . S
C2711 C2715 1.393 1_455 S
C2712 H2701 0.950 . S
C2712 C2710 1.391 . S
C2712 C2713 1.400 1_455 S
C2713 C2707 1.491 . S
C2713 C2712 1.400 1_655 S
C2713 C2714 1.398 . S
C2714 H2702 0.950 . S
C2714 C2713 1.398 . S
C2714 C2715 1.391 . S
C2715 H2703 0.950 . S
C2715 C2711 1.393 1_655 S
C2715 C2714 1.391 . S
H2716 C2724 0.950 . S
H2717 C2729 0.950 . S
H2718 C2726 0.950 . S
H2719 C2728 0.950 . S
H2720 C2730 0.950 . S
H2721 C2732 0.950 . S
H2722 C2734 0.950 . S
H2723 C2735 0.950 . S
C2724 H2716 0.950 . S
C2724 C2725 1.386 . S
C2724 C2726 1.391 . S
C2725 C2724 1.386 . S
C2725 C2729 1.393 . S
C2726 H2718 0.950 . S
C2726 C2724 1.391 . S
C2726 C2727 1.400 . S
C2727 C2726 1.400 . S
C2727 C2728 1.398 . S
C2727 C2733 1.491 . S
C2728 H2719 0.950 . S
C2728 C2727 1.398 . S
C2728 C2729 1.391 . S
C2729 H2717 0.950 . S
C2729 C2725 1.393 . S
C2729 C2728 1.391 . S
C2730 H2720 0.950 . S
C2730 C2731 1.386 . S
C2730 C2732 1.391 . S
C2731 C2730 1.386 . S
C2731 C2735 1.393 . S
C2732 H2721 0.950 . S
C2732 C2730 1.391 . S
C2732 C2733 1.400 . S
C2733 C2727 1.491 . S
C2733 C2732 1.400 . S
C2733 C2734 1.398 . S
C2734 H2722 0.950 . S
C2734 C2733 1.398 . S
C2734 C2735 1.391 . S
C2735 H2723 0.950 . S
C2735 C2731 1.393 . S
C2735 C2734 1.391 . S
H2736 C2744 0.950 . S
H2737 C2749 0.950 . S
H2738 C2746 0.950 . S
H2739 C2748 0.950 . S
H2740 C2750 0.950 . S
H2741 C2752 0.950 . S
H2742 C2754 0.950 . S
H2743 C2755 0.950 . S
C2744 H2736 0.950 . S
C2744 C2745 1.386 . S
C2744 C2746 1.391 . S
C2745 C2744 1.386 . S
C2745 C2749 1.393 . S
C2746 H2738 0.950 . S
C2746 C2744 1.391 . S
C2746 C2747 1.400 . S
C2747 C2746 1.400 . S
C2747 C2748 1.398 . S
C2747 C2753 1.491 . S
C2748 H2739 0.950 . S
C2748 C2747 1.398 . S
C2748 C2749 1.391 . S
C2749 H2737 0.950 . S
C2749 C2745 1.393 . S
C2749 C2748 1.391 . S
C2750 H2740 0.950 . S
C2750 C2751 1.386 . S
C2750 C2752 1.391 . S
C2751 C2750 1.386 . S
C2751 C2755 1.393 . S
C2752 H2741 0.950 . S
C2752 C2750 1.391 . S
C2752 C2753 1.400 . S
C2753 C2747 1.491 . S
C2753 C2752 1.400 . S
C2753 C2754 1.398 . S
C2754 H2742 0.950 . S
C2754 C2753 1.398 . S
C2754 C2755 1.391 . S
C2755 H2743 0.950 . S
C2755 C2751 1.393 . S
C2755 C2754 1.391 . S
H2756 C2764 0.950 . S
H2757 C2769 0.950 . S
H2758 C2766 0.950 . S
H2759 C2768 0.950 1_565 S
H2760 C2770 0.950 . S
H2761 C2772 0.950 . S
H2762 C2774 0.950 . S
H2763 C2775 0.950 . S
C2764 H2756 0.950 . S
C2764 C2765 1.386 . S
C2764 C2766 1.391 . S
C2765 C2764 1.386 . S
C2765 C2769 1.393 1_545 S
C2766 H2758 0.950 . S
C2766 C2764 1.391 . S
C2766 C2767 1.400 . S
C2767 C2766 1.400 . S
C2767 C2768 1.398 . S
C2767 C2773 1.491 . S
C2768 H2759 0.950 1_545 S
C2768 C2767 1.398 . S
C2768 C2769 1.391 1_545 S
C2769 H2757 0.950 . S
C2769 C2765 1.393 1_565 S
C2769 C2768 1.391 1_565 S
C2770 H2760 0.950 . S
C2770 C2771 1.386 . S
C2770 C2772 1.391 . S
C2771 C2770 1.386 . S
C2771 C2775 1.393 . S
C2772 H2761 0.950 . S
C2772 C2770 1.391 . S
C2772 C2773 1.400 . S
C2773 C2767 1.491 . S
C2773 C2772 1.400 . S
C2773 C2774 1.398 . S
C2774 H2762 0.950 . S
C2774 C2773 1.398 . S
C2774 C2775 1.391 . S
C2775 H2763 0.950 . S
C2775 C2771 1.393 . S
C2775 C2774 1.391 . S
H2776 C2784 0.950 . S
H2777 C2789 0.950 . S
H2778 C2786 0.950 . S
H2779 C2788 0.950 . S
H2780 C2790 0.950 . S
H2781 C2792 0.950 . S
H2782 C2794 0.950 . S
H2783 C2795 0.950 . S
C2784 H2776 0.950 . S
C2784 C2785 1.386 . S
C2784 C2786 1.391 . S
C2785 C2784 1.386 . S
C2785 C2789 1.393 . S
C2786 H2778 0.950 . S
C2786 C2784 1.391 . S
C2786 C2787 1.400 . S
C2787 C2786 1.400 . S
C2787 C2788 1.398 . S
C2787 C2793 1.491 . S
C2788 H2779 0.950 . S
C2788 C2787 1.398 . S
C2788 C2789 1.391 . S
C2789 H2777 0.950 . S
C2789 C2785 1.393 . S
C2789 C2788 1.391 . S
C2790 H2780 0.950 . S
C2790 C2791 1.386 . S
C2790 C2792 1.391 . S
C2791 C2790 1.386 . S
C2791 C2795 1.393 . S
C2792 H2781 0.950 . S
C2792 C2790 1.391 . S
C2792 C2793 1.400 . S
C2793 C2787 1.491 . S
C2793 C2792 1.400 . S
C2793 C2794 1.398 . S
C2794 H2782 0.950 . S
C2794 C2793 1.398 . S
C2794 C2795 1.391 . S
C2795 H2783 0.950 . S
C2795 C2791 1.393 . S
C2795 C2794 1.391 . S
H2796 C2804 0.950 . S
H2797 C2809 0.950 . S
H2798 C2806 0.950 . S
H2799 C2808 0.950 . S
H2800 C2810 0.950 . S
H2801 C2812 0.950 . S
H2802 C2814 0.950 . S
H2803 C2815 0.950 . S
C2804 H2796 0.950 . S
C2804 C2805 1.386 . S
C2804 C2806 1.391 . S
C2805 C2804 1.386 . S
C2805 C2809 1.393 . S
C2806 H2798 0.950 . S
C2806 C2804 1.391 . S
C2806 C2807 1.400 . S
C2807 C2806 1.400 . S
C2807 C2808 1.398 . S
C2807 C2813 1.491 . S
C2808 H2799 0.950 . S
C2808 C2807 1.398 . S
C2808 C2809 1.391 . S
C2809 H2797 0.950 . S
C2809 C2805 1.393 . S
C2809 C2808 1.391 . S
C2810 H2800 0.950 . S
C2810 C2811 1.386 . S
C2810 C2812 1.391 . S
C2811 C2810 1.386 . S
C2811 C2815 1.393 . S
C2812 H2801 0.950 . S
C2812 C2810 1.391 . S
C2812 C2813 1.400 . S
C2813 C2807 1.491 . S
C2813 C2812 1.400 . S
C2813 C2814 1.398 . S
C2814 H2802 0.950 . S
C2814 C2813 1.398 . S
C2814 C2815 1.391 . S
C2815 H2803 0.950 . S
C2815 C2811 1.393 . S
C2815 C2814 1.391 . S
H2816 C2824 0.950 . S
H2817 C2829 0.950 . S
H2818 C2826 0.950 . S
H2819 C2828 0.950 . S
H2820 C2830 0.950 . S
H2821 C2832 0.950 . S
H2822 C2834 0.950 . S
H2823 C2835 0.950 . S
C2824 H2816 0.950 . S
C2824 C2825 1.386 . S
C2824 C2826 1.391 . S
C2825 C2824 1.386 . S
C2825 C2829 1.393 . S
C2826 H2818 0.950 . S
C2826 C2824 1.391 . S
C2826 C2827 1.400 . S
C2827 C2826 1.400 . S
C2827 C2828 1.398 . S
C2827 C2833 1.491 . S
C2828 H2819 0.950 . S
C2828 C2827 1.398 . S
C2828 C2829 1.391 . S
C2829 H2817 0.950 . S
C2829 C2825 1.393 . S
C2829 C2828 1.391 . S
C2830 H2820 0.950 . S
C2830 C2831 1.386 . S
C2830 C2832 1.391 . S
C2831 C2830 1.386 . S
C2831 C2835 1.393 . S
C2832 H2821 0.950 . S
C2832 C2830 1.391 . S
C2832 C2833 1.400 . S
C2833 C2827 1.491 . S
C2833 C2832 1.400 . S
C2833 C2834 1.398 . S
C2834 H2822 0.950 . S
C2834 C2833 1.398 . S
C2834 C2835 1.391 . S
C2835 H2823 0.950 . S
C2835 C2831 1.393 . S
C2835 C2834 1.391 . S
H2836 C2844 0.950 . S
H2837 C2849 0.950 . S
H2838 C2846 0.950 . S
H2839 C2848 0.950 . S
H2840 C2850 0.950 . S
H2841 C2852 0.950 . S
H2842 C2854 0.950 . S
H2843 C2855 0.950 . S
C2844 H2836 0.950 . S
C2844 C2845 1.386 . S
C2844 C2846 1.391 . S
C2845 C2844 1.386 . S
C2845 C2849 1.393 . S
C2846 H2838 0.950 . S
C2846 C2844 1.391 . S
C2846 C2847 1.400 . S
C2847 C2846 1.400 . S
C2847 C2848 1.398 . S
C2847 C2853 1.491 . S
C2848 H2839 0.950 . S
C2848 C2847 1.398 . S
C2848 C2849 1.391 . S
C2849 H2837 0.950 . S
C2849 C2845 1.393 . S
C2849 C2848 1.391 . S
C2850 H2840 0.950 . S
C2850 C2851 1.386 . S
C2850 C2852 1.391 . S
C2851 C2850 1.386 . S
C2851 C2855 1.393 . S
C2852 H2841 0.950 . S
C2852 C2850 1.391 . S
C2852 C2853 1.400 . S
C2853 C2847 1.491 . S
C2853 C2852 1.400 . S
C2853 C2854 1.398 . S
C2854 H2842 0.950 . S
C2854 C2853 1.398 . S
C2854 C2855 1.391 . S
C2855 H2843 0.950 . S
C2855 C2851 1.393 . S
C2855 C2854 1.391 . S
H2856 C2864 0.950 . S
H2857 C2869 0.950 1_545 S
H2858 C2866 0.950 . S
H2859 C2868 0.950 . S
H2860 C2870 0.950 . S
H2861 C2872 0.950 . S
H2862 C2874 0.950 . S
H2863 C2875 0.950 . S
C2864 H2856 0.950 . S
C2864 C2865 1.361 1_565 S
C2864 C2866 1.391 . S
C2865 C2864 1.361 1_545 S
C2865 C2869 1.391 1_545 S
C2866 H2858 0.950 . S
C2866 C2864 1.391 . S
C2866 C2867 1.400 . S
C2867 C2866 1.400 . S
C2867 C2868 1.398 . S
C2867 C2873 1.491 . S
C2868 H2859 0.950 . S
C2868 C2867 1.398 . S
C2868 C2869 1.391 . S
C2869 H2857 0.950 1_565 S
C2869 C2865 1.391 1_565 S
C2869 C2868 1.391 . S
C2870 H2860 0.950 . S
C2870 C2871 1.386 . S
C2870 C2872 1.391 . S
C2871 C2870 1.386 . S
C2871 C2875 1.393 . S
C2872 H2861 0.950 . S
C2872 C2870 1.391 . S
C2872 C2873 1.400 . S
C2873 C2867 1.491 . S
C2873 C2872 1.400 . S
C2873 C2874 1.398 . S
C2874 H2862 0.950 . S
C2874 C2873 1.398 . S
C2874 C2875 1.391 . S
C2875 H2863 0.950 . S
C2875 C2871 1.393 . S
C2875 C2874 1.391 . S
H2876 C2884 0.950 . S
H2877 C2889 0.950 . S
H2878 C2886 0.950 . S
H2879 C2888 0.950 . S
H2880 C2890 0.950 . S
H2881 C2892 0.950 . S
H2882 C2894 0.950 . S
H2883 C2895 0.950 . S
C2884 H2876 0.950 . S
C2884 C2885 1.386 . S
C2884 C2886 1.391 . S
C2885 C2884 1.386 . S
C2885 C2889 1.393 . S
C2886 H2878 0.950 . S
C2886 C2884 1.391 . S
C2886 C2887 1.400 . S
C2887 C2886 1.400 . S
C2887 C2888 1.398 . S
C2887 C2893 1.491 . S
C2888 H2879 0.950 . S
C2888 C2887 1.398 . S
C2888 C2889 1.391 . S
C2889 H2877 0.950 . S
C2889 C2885 1.393 . S
C2889 C2888 1.391 . S
C2890 H2880 0.950 . S
C2890 C2891 1.386 . S
C2890 C2892 1.391 . S
C2891 C2890 1.386 . S
C2891 C2895 1.393 . S
C2892 H2881 0.950 . S
C2892 C2890 1.391 . S
C2892 C2893 1.400 . S
C2893 C2887 1.491 . S
C2893 C2892 1.400 . S
C2893 C2894 1.398 . S
C2894 H2882 0.950 . S
C2894 C2893 1.398 . S
C2894 C2895 1.391 . S
C2895 H2883 0.950 . S
C2895 C2891 1.393 . S
C2895 C2894 1.391 . S
C985 C105 1.323 . S
C991 C342 1.322 . S
C1005 C65 2.011 . S
C1011 C394 1.913 . S
C1025 C73 1.384 . S
C1031 C426 1.375 1_565 S
C1051 C475 2.536 . S
C1045 C92 2.532 . S
C1065 C17 1.076 . S
C1071 C511 1.055 . S
C1091 C542 0.447 . S
C1085 C37 0.358 . S
C1111 C594 0.364 . S
C1105 C49 0.498 . S
C1125 C8 1.650 . S
C1131 C622 1.575 . S
C1151 C354 1.956 . S
C1145 C231 2.027 . S
C1165 C241 1.673 . S
C1171 C395 1.683 . S
C1191 C425 1.840 . S
C1185 C273 1.847 1_545 S
C1211 C462 0.574 . S
C1205 C171 0.535 . S
C1225 C227 1.858 . S
C1231 C506 1.858 1_655 S
C1251 C554 1.949 . S
C1245 C245 1.879 . S
C1271 C595 1.655 1_556 S
C1265 C269 1.647 . S
C1291 C634 1.670 . S
C1285 C175 1.786 . S
C1311 C355 2.299 . S
C1305 C162 2.274 . S
C1325 C289 1.712 . S
C1331 C665 1.620 . S
C1351 C715 2.440 . S
C1345 C330 2.433 . S
C1371 C742 1.020 . S
C1365 C317 1.038 . S
C1385 C120 2.521 . S
C1391 C635 2.524 . S
C1405 C134 1.344 . S
C1411 C431 1.254 . S
C1425 C331 2.489 . S
C1431 C794 2.376 . S
C1451 C822 1.179 . S
C1445 C303 1.238 . S
C1471 C351 1.280 . S
C1465 C59 1.361 . S
C1491 C825 1.944 . S
C1485 C107 2.047 . S
C1505 C91 1.362 . S
C1511 C435 1.430 . S
C1525 C78 2.603 . S
C1531 C786 2.591 . S
C1551 C502 1.055 . S
C1545 C7 1.056 . S
C1565 C51 0.479 . S
C1571 C711 0.509 . S
C1591 C585 0.382 . S
C1585 C31 0.432 . S
C1611 C871 1.416 . S
C1605 C22 1.469 . S
C1631 C345 1.972 1_556 S
C1625 C143 2.132 . S
C1651 C826 1.745 . S
C1645 C315 1.631 . S
C1665 C115 2.008 . S
C1671 C434 1.879 . S
C1685 C287 0.613 . S
C1691 C791 0.616 . S
C1705 C147 1.818 . S
C1711 C515 1.910 . S
C1731 C705 1.969 . S
C1725 C311 1.986 . S
C1745 C119 1.628 . S
C1751 C586 1.725 . S
C1765 C283 1.819 . S
C1771 C865 1.669 . S
C1785 C190 2.296 . S
C1791 C346 2.356 . S
C1805 C177 1.743 . S
C1811 C674 1.728 . S
C1825 C260 2.478 . S
C1831 C546 2.488 . S
C1845 C247 1.074 . S
C1851 C751 1.075 . S
C1871 C866 2.496 . S
C1865 C274 2.480 . S
C1885 C218 1.343 1_545 S
C1891 C422 1.284 . S
C1911 C465 2.409 . S
C1905 C261 2.511 . S
C1931 C391 1.172 . S
C1925 C205 1.255 . S
C1945 C77 1.320 . S
C1951 C902 1.309 . S
C1971 C834 1.920 . S
C1965 C93 2.020 . S
C1985 C101 1.398 . S
C1991 C946 1.407 . S
C2005 C64 2.536 . S
C2011 C795 2.540 . S
C2025 C45 1.046 . S
C2031 C671 1.033 . S
C2051 C702 0.544 . S
C2045 C9 0.457 . S
C2071 C754 0.420 . S
C2065 C21 0.443 . S
C2091 C862 1.441 . S
C2085 C36 1.509 . S
C2111 C914 1.928 . S
C2105 C259 2.025 . S
C2125 C185 1.689 1_556 S
C2131 C835 1.698 . S
C2151 C945 1.813 . S
C2145 C203 1.862 . S
C2171 C782 0.549 . S
C2165 C213 0.509 . S
C2191 C666 1.880 1_556 S
C2185 C255 1.873 . S
C2205 C189 1.898 . S
C2211 C714 1.948 . S
C2231 C755 1.653 . S
C2225 C199 1.646 . S
C2245 C217 1.766 . S
C2251 C874 1.661 . S
C2271 C915 2.303 . S
C2265 C316 2.276 . S
C2285 C135 1.688 . S
C2291 C505 1.664 . S
C2311 C555 2.431 . S
C2305 C148 2.436 . S
C2331 C582 1.024 . S
C2325 C163 1.052 . S
C2351 C875 2.528 . S
C2345 C302 2.522 . S
C2365 C288 1.303 . S
C2371 C951 1.213 . S
C2391 C474 2.399 . S
C2385 C149 2.485 . S
C2411 C382 1.156 . S
C2405 C121 1.233 . S
C2425 C87 1.371 . S
C2431 C911 1.313 . S
C2451 C385 1.929 . S
C2445 C79 2.054 . S
C2465 C63 1.367 . S
C2471 C955 1.441 . S
C2485 C106 2.605 . S
C2491 C466 2.591 . S
C2505 C35 1.082 . S
C2511 C662 1.086 . S
C2531 C551 0.574 . S
C2525 C23 0.496 . S
C2545 C3 0.388 . S
C2551 C745 0.410 . S
C2565 C50 1.451 . S
C2571 C631 1.397 . S
C2591 C905 1.968 . S
C2585 C325 2.124 . S
C2605 C161 1.644 . S
C2611 C386 1.745 . S
C2631 C954 1.876 1_556 S
C2625 C297 2.026 . S
C2645 C133 0.607 . S
C2651 C471 0.644 . S
C2665 C329 1.850 . S
C2671 C675 1.920 . S
C2691 C545 1.967 . S
C2685 C157 2.021 . S
C2705 C301 1.628 . S
C2711 C746 1.720 . S
C2731 C625 1.646 . S
C2725 C129 1.805 . S
C2751 C906 2.326 . S
C2745 C246 2.303 . S
C2771 C514 1.732 . S
C2765 C219 1.759 1_545 S
C2785 C232 2.471 . S
C2791 C706 2.478 . S
C2811 C591 1.068 . S
C2805 C191 1.091 . S
C2825 C204 2.489 . S
C2831 C626 2.501 . S
C2845 C176 1.322 . S
C2851 C942 1.262 . S
C2871 C785 2.429 . S
C2865 C233 2.526 . S
C2891 C831 1.197 . S
C2885 C275 1.254 . S
