# Generated by pormake.
# Topology gar, (4,6)-cn, num edge types: 1
# Building blocks:
#     Node 0, Type 0, BuildingBlock: QUQFOY_clean_sbu_1, # of connection points: 4
#     Node 1, Type 0, BuildingBlock: QUQFOY_clean_sbu_1, # of connection points: 4
#     Node 2, Type 0, BuildingBlock: QUQFOY_clean_sbu_1, # of connection points: 4
#     Node 3, Type 0, BuildingBlock: QUQFOY_clean_sbu_1, # of connection points: 4
#     Node 4, Type 0, BuildingBlock: QUQFOY_clean_sbu_1, # of connection points: 4
#     Node 5, Type 0, BuildingBlock: QUQFOY_clean_sbu_1, # of connection points: 4
#     Node 6, Type 0, BuildingBlock: QUQFOY_clean_sbu_1, # of connection points: 4
#     Node 7, Type 0, BuildingBlock: QUQFOY_clean_sbu_1, # of connection points: 4
#     Node 8, Type 0, BuildingBlock: QUQFOY_clean_sbu_1, # of connection points: 4
#     Node 9, Type 0, BuildingBlock: QUQFOY_clean_sbu_1, # of connection points: 4
#     Node 10, Type 0, BuildingBlock: QUQFOY_clean_sbu_1, # of connection points: 4
#     Node 11, Type 0, BuildingBlock: QUQFOY_clean_sbu_1, # of connection points: 4
#     Node 12, Type 0, BuildingBlock: QUQFOY_clean_sbu_1, # of connection points: 4
#     Node 13, Type 0, BuildingBlock: QUQFOY_clean_sbu_1, # of connection points: 4
#     Node 14, Type 0, BuildingBlock: QUQFOY_clean_sbu_1, # of connection points: 4
#     Node 15, Type 0, BuildingBlock: QUQFOY_clean_sbu_1, # of connection points: 4
#     Node 16, Type 0, BuildingBlock: QUQFOY_clean_sbu_1, # of connection points: 4
#     Node 17, Type 0, BuildingBlock: QUQFOY_clean_sbu_1, # of connection points: 4
#     Node 18, Type 0, BuildingBlock: QUQFOY_clean_sbu_1, # of connection points: 4
#     Node 19, Type 0, BuildingBlock: QUQFOY_clean_sbu_1, # of connection points: 4
#     Node 20, Type 0, BuildingBlock: QUQFOY_clean_sbu_1, # of connection points: 4
#     Node 21, Type 0, BuildingBlock: QUQFOY_clean_sbu_1, # of connection points: 4
#     Node 22, Type 0, BuildingBlock: QUQFOY_clean_sbu_1, # of connection points: 4
#     Node 23, Type 0, BuildingBlock: QUQFOY_clean_sbu_1, # of connection points: 4
#     Node 24, Type 1, BuildingBlock: GEDQOX_clean_sbu_0, # of connection points: 6
#     Node 25, Type 1, BuildingBlock: GEDQOX_clean_sbu_0, # of connection points: 6
#     Node 26, Type 1, BuildingBlock: GEDQOX_clean_sbu_0, # of connection points: 6
#     Node 27, Type 1, BuildingBlock: GEDQOX_clean_sbu_0, # of connection points: 6
#     Node 28, Type 1, BuildingBlock: GEDQOX_clean_sbu_0, # of connection points: 6
#     Node 29, Type 1, BuildingBlock: GEDQOX_clean_sbu_0, # of connection points: 6
#     Node 30, Type 1, BuildingBlock: GEDQOX_clean_sbu_0, # of connection points: 6
#     Node 31, Type 1, BuildingBlock: GEDQOX_clean_sbu_0, # of connection points: 6
#     Node 32, Type 1, BuildingBlock: GEDQOX_clean_sbu_0, # of connection points: 6
#     Node 33, Type 1, BuildingBlock: GEDQOX_clean_sbu_0, # of connection points: 6
#     Node 34, Type 1, BuildingBlock: GEDQOX_clean_sbu_0, # of connection points: 6
#     Node 35, Type 1, BuildingBlock: GEDQOX_clean_sbu_0, # of connection points: 6
#     Node 36, Type 1, BuildingBlock: GEDQOX_clean_sbu_0, # of connection points: 6
#     Node 37, Type 1, BuildingBlock: GEDQOX_clean_sbu_0, # of connection points: 6
#     Node 38, Type 1, BuildingBlock: GEDQOX_clean_sbu_0, # of connection points: 6
#     Node 39, Type 1, BuildingBlock: GEDQOX_clean_sbu_0, # of connection points: 6
#     Edge 40, Type (0, 1), BuildingBlock: KIFKEQ_clean_linker_1, # of connection points: 2
#     Edge 41, Type (0, 1), BuildingBlock: KIFKEQ_clean_linker_1, # of connection points: 2
#     Edge 42, Type (0, 1), BuildingBlock: KIFKEQ_clean_linker_1, # of connection points: 2
#     Edge 43, Type (0, 1), BuildingBlock: KIFKEQ_clean_linker_1, # of connection points: 2
#     Edge 44, Type (0, 1), BuildingBlock: KIFKEQ_clean_linker_1, # of connection points: 2
#     Edge 45, Type (0, 1), BuildingBlock: KIFKEQ_clean_linker_1, # of connection points: 2
#     Edge 46, Type (0, 1), BuildingBlock: KIFKEQ_clean_linker_1, # of connection points: 2
#     Edge 47, Type (0, 1), BuildingBlock: KIFKEQ_clean_linker_1, # of connection points: 2
#     Edge 48, Type (0, 1), BuildingBlock: KIFKEQ_clean_linker_1, # of connection points: 2
#     Edge 49, Type (0, 1), BuildingBlock: KIFKEQ_clean_linker_1, # of connection points: 2
#     Edge 50, Type (0, 1), BuildingBlock: KIFKEQ_clean_linker_1, # of connection points: 2
#     Edge 51, Type (0, 1), BuildingBlock: KIFKEQ_clean_linker_1, # of connection points: 2
#     Edge 52, Type (0, 1), BuildingBlock: KIFKEQ_clean_linker_1, # of connection points: 2
#     Edge 53, Type (0, 1), BuildingBlock: KIFKEQ_clean_linker_1, # of connection points: 2
#     Edge 54, Type (0, 1), BuildingBlock: KIFKEQ_clean_linker_1, # of connection points: 2
#     Edge 55, Type (0, 1), BuildingBlock: KIFKEQ_clean_linker_1, # of connection points: 2
#     Edge 56, Type (0, 1), BuildingBlock: KIFKEQ_clean_linker_1, # of connection points: 2
#     Edge 57, Type (0, 1), BuildingBlock: KIFKEQ_clean_linker_1, # of connection points: 2
#     Edge 58, Type (0, 1), BuildingBlock: KIFKEQ_clean_linker_1, # of connection points: 2
#     Edge 59, Type (0, 1), BuildingBlock: KIFKEQ_clean_linker_1, # of connection points: 2
#     Edge 60, Type (0, 1), BuildingBlock: KIFKEQ_clean_linker_1, # of connection points: 2
#     Edge 61, Type (0, 1), BuildingBlock: KIFKEQ_clean_linker_1, # of connection points: 2
#     Edge 62, Type (0, 1), BuildingBlock: KIFKEQ_clean_linker_1, # of connection points: 2
#     Edge 63, Type (0, 1), BuildingBlock: KIFKEQ_clean_linker_1, # of connection points: 2
#     Edge 64, Type (0, 1), BuildingBlock: KIFKEQ_clean_linker_1, # of connection points: 2
#     Edge 65, Type (0, 1), BuildingBlock: KIFKEQ_clean_linker_1, # of connection points: 2
#     Edge 66, Type (0, 1), BuildingBlock: KIFKEQ_clean_linker_1, # of connection points: 2
#     Edge 67, Type (0, 1), BuildingBlock: KIFKEQ_clean_linker_1, # of connection points: 2
#     Edge 68, Type (0, 1), BuildingBlock: KIFKEQ_clean_linker_1, # of connection points: 2
#     Edge 69, Type (0, 1), BuildingBlock: KIFKEQ_clean_linker_1, # of connection points: 2
#     Edge 70, Type (0, 1), BuildingBlock: KIFKEQ_clean_linker_1, # of connection points: 2
#     Edge 71, Type (0, 1), BuildingBlock: KIFKEQ_clean_linker_1, # of connection points: 2
#     Edge 72, Type (0, 1), BuildingBlock: KIFKEQ_clean_linker_1, # of connection points: 2
#     Edge 73, Type (0, 1), BuildingBlock: KIFKEQ_clean_linker_1, # of connection points: 2
#     Edge 74, Type (0, 1), BuildingBlock: KIFKEQ_clean_linker_1, # of connection points: 2
#     Edge 75, Type (0, 1), BuildingBlock: KIFKEQ_clean_linker_1, # of connection points: 2
#     Edge 76, Type (0, 1), BuildingBlock: KIFKEQ_clean_linker_1, # of connection points: 2
#     Edge 77, Type (0, 1), BuildingBlock: KIFKEQ_clean_linker_1, # of connection points: 2
#     Edge 78, Type (0, 1), BuildingBlock: KIFKEQ_clean_linker_1, # of connection points: 2
#     Edge 79, Type (0, 1), BuildingBlock: KIFKEQ_clean_linker_1, # of connection points: 2
#     Edge 80, Type (0, 1), BuildingBlock: KIFKEQ_clean_linker_1, # of connection points: 2
#     Edge 81, Type (0, 1), BuildingBlock: KIFKEQ_clean_linker_1, # of connection points: 2
#     Edge 82, Type (0, 1), BuildingBlock: KIFKEQ_clean_linker_1, # of connection points: 2
#     Edge 83, Type (0, 1), BuildingBlock: KIFKEQ_clean_linker_1, # of connection points: 2
#     Edge 84, Type (0, 1), BuildingBlock: KIFKEQ_clean_linker_1, # of connection points: 2
#     Edge 85, Type (0, 1), BuildingBlock: KIFKEQ_clean_linker_1, # of connection points: 2
#     Edge 86, Type (0, 1), BuildingBlock: KIFKEQ_clean_linker_1, # of connection points: 2
#     Edge 87, Type (0, 1), BuildingBlock: KIFKEQ_clean_linker_1, # of connection points: 2
#     Edge 88, Type (0, 1), BuildingBlock: KIFKEQ_clean_linker_1, # of connection points: 2
#     Edge 89, Type (0, 1), BuildingBlock: KIFKEQ_clean_linker_1, # of connection points: 2
#     Edge 90, Type (0, 1), BuildingBlock: KIFKEQ_clean_linker_1, # of connection points: 2
#     Edge 91, Type (0, 1), BuildingBlock: KIFKEQ_clean_linker_1, # of connection points: 2
#     Edge 92, Type (0, 1), BuildingBlock: KIFKEQ_clean_linker_1, # of connection points: 2
#     Edge 93, Type (0, 1), BuildingBlock: KIFKEQ_clean_linker_1, # of connection points: 2
#     Edge 94, Type (0, 1), BuildingBlock: KIFKEQ_clean_linker_1, # of connection points: 2
#     Edge 95, Type (0, 1), BuildingBlock: KIFKEQ_clean_linker_1, # of connection points: 2
#     Edge 96, Type (0, 1), BuildingBlock: KIFKEQ_clean_linker_1, # of connection points: 2
#     Edge 97, Type (0, 1), BuildingBlock: KIFKEQ_clean_linker_1, # of connection points: 2
#     Edge 98, Type (0, 1), BuildingBlock: KIFKEQ_clean_linker_1, # of connection points: 2
#     Edge 99, Type (0, 1), BuildingBlock: KIFKEQ_clean_linker_1, # of connection points: 2
#     Edge 100, Type (0, 1), BuildingBlock: KIFKEQ_clean_linker_1, # of connection points: 2
#     Edge 101, Type (0, 1), BuildingBlock: KIFKEQ_clean_linker_1, # of connection points: 2
#     Edge 102, Type (0, 1), BuildingBlock: KIFKEQ_clean_linker_1, # of connection points: 2
#     Edge 103, Type (0, 1), BuildingBlock: KIFKEQ_clean_linker_1, # of connection points: 2
#     Edge 104, Type (0, 1), BuildingBlock: KIFKEQ_clean_linker_1, # of connection points: 2
#     Edge 105, Type (0, 1), BuildingBlock: KIFKEQ_clean_linker_1, # of connection points: 2
#     Edge 106, Type (0, 1), BuildingBlock: KIFKEQ_clean_linker_1, # of connection points: 2
#     Edge 107, Type (0, 1), BuildingBlock: KIFKEQ_clean_linker_1, # of connection points: 2
#     Edge 108, Type (0, 1), BuildingBlock: KIFKEQ_clean_linker_1, # of connection points: 2
#     Edge 109, Type (0, 1), BuildingBlock: KIFKEQ_clean_linker_1, # of connection points: 2
#     Edge 110, Type (0, 1), BuildingBlock: KIFKEQ_clean_linker_1, # of connection points: 2
#     Edge 111, Type (0, 1), BuildingBlock: KIFKEQ_clean_linker_1, # of connection points: 2
#     Edge 112, Type (0, 1), BuildingBlock: KIFKEQ_clean_linker_1, # of connection points: 2
#     Edge 113, Type (0, 1), BuildingBlock: KIFKEQ_clean_linker_1, # of connection points: 2
#     Edge 114, Type (0, 1), BuildingBlock: KIFKEQ_clean_linker_1, # of connection points: 2
#     Edge 115, Type (0, 1), BuildingBlock: KIFKEQ_clean_linker_1, # of connection points: 2
#     Edge 116, Type (0, 1), BuildingBlock: KIFKEQ_clean_linker_1, # of connection points: 2
#     Edge 117, Type (0, 1), BuildingBlock: KIFKEQ_clean_linker_1, # of connection points: 2
#     Edge 118, Type (0, 1), BuildingBlock: KIFKEQ_clean_linker_1, # of connection points: 2
#     Edge 119, Type (0, 1), BuildingBlock: KIFKEQ_clean_linker_1, # of connection points: 2
#     Edge 120, Type (0, 1), BuildingBlock: KIFKEQ_clean_linker_1, # of connection points: 2
#     Edge 121, Type (0, 1), BuildingBlock: KIFKEQ_clean_linker_1, # of connection points: 2
#     Edge 122, Type (0, 1), BuildingBlock: KIFKEQ_clean_linker_1, # of connection points: 2
#     Edge 123, Type (0, 1), BuildingBlock: KIFKEQ_clean_linker_1, # of connection points: 2
#     Edge 124, Type (0, 1), BuildingBlock: KIFKEQ_clean_linker_1, # of connection points: 2
#     Edge 125, Type (0, 1), BuildingBlock: KIFKEQ_clean_linker_1, # of connection points: 2
#     Edge 126, Type (0, 1), BuildingBlock: KIFKEQ_clean_linker_1, # of connection points: 2
#     Edge 127, Type (0, 1), BuildingBlock: KIFKEQ_clean_linker_1, # of connection points: 2
#     Edge 128, Type (0, 1), BuildingBlock: KIFKEQ_clean_linker_1, # of connection points: 2
#     Edge 129, Type (0, 1), BuildingBlock: KIFKEQ_clean_linker_1, # of connection points: 2
#     Edge 130, Type (0, 1), BuildingBlock: KIFKEQ_clean_linker_1, # of connection points: 2
#     Edge 131, Type (0, 1), BuildingBlock: KIFKEQ_clean_linker_1, # of connection points: 2
#     Edge 132, Type (0, 1), BuildingBlock: KIFKEQ_clean_linker_1, # of connection points: 2
#     Edge 133, Type (0, 1), BuildingBlock: KIFKEQ_clean_linker_1, # of connection points: 2
#     Edge 134, Type (0, 1), BuildingBlock: KIFKEQ_clean_linker_1, # of connection points: 2
#     Edge 135, Type (0, 1), BuildingBlock: KIFKEQ_clean_linker_1, # of connection points: 2
# Relax obj value: 0.269
# Max RMSD: 0.448
# Mean RMSD: 0.201
data_MOF--net-gar--node1-QUQFOY_clean_sbu_1--node2-GEDQOX_clean_sbu_0--edge1-KIFKEQ_clean_linker_1
_symmetry_space_group_name_H-M    P1
_symmetry_Int_Tables_number       1
_symmetry_cell_setting            triclinic
loop_
_symmetry_equiv_pos_as_xyz
'x, y, z'
_cell_length_a     61.778273
_cell_length_b     59.832136
_cell_length_c     54.829898
_cell_angle_alpha  98.108363
_cell_angle_beta   97.204798
_cell_angle_gamma 101.38675
loop_
_atom_site_label
_atom_site_type_symbol
_atom_site_fract_x
_atom_site_fract_y
_atom_site_fract_z
_atom_type_partial_charge
O0 O 0.14661 0.34637 0.48398 0.0
Cd1 Cd 0.15236 0.37387 0.46472 0.0
Cd2 Cd 0.15228 0.3952 0.5162 0.0
O3 O 0.15828 0.36404 0.5229 0.0
O4 O 0.14585 0.35651 0.42992 0.0
O5 O 0.17882 0.37877 0.44597 0.0
C6 C 0.16592 0.36519 0.42712 0.0
C7 C 0.16579 0.42802 0.54687 0.0
C8 C 0.15154 0.34557 0.50702 0.0
C9 C 0.11565 0.39715 0.47628 0.0
O10 O 0.12064 0.39528 0.49895 0.0
O11 O 0.12869 0.39333 0.46084 0.0
O12 O 0.15155 0.41052 0.55057 0.0
O13 O 0.17365 0.42641 0.52611 0.0
O14 O 0.97612 0.71655 0.65227 0.0
Cd15 Cd 0.98982 0.74318 0.68165 0.0
Cd16 Cd 1.00676 0.76683 0.64657 0.0
O17 O 0.99084 0.73571 0.62465 0.0
O18 O 0.97321 0.7414 0.71023 0.0
O19 O 0.97754 0.77133 0.69018 0.0
C20 C 0.9707 0.7621 0.7086 0.0
C21 C 1.01031 0.79895 0.62649 0.0
C22 C 0.97969 0.71734 0.63003 0.0
C23 C 0.03895 0.75802 0.68896 0.0
O24 O 0.03572 0.7681 0.67039 0.0
O25 O 1.0226 0.74574 0.6962 0.0
O26 O 1.01991 0.78227 0.62045 0.0
O27 O 0.99781 0.7972 0.64361 0.0
O28 O 0.68528 0.87424 0.98151 0.0
Cd29 Cd 0.66438 0.88178 0.00739 0.0
Cd30 Cd 0.65057 0.90459 0.97059 0.0
O31 O 0.67659 0.89667 0.95495 0.0
O32 O 0.66543 0.85965 0.0312 0.0
O33 O 0.63543 0.85864 1.00399 0.0
C34 C 0.6449 0.85017 0.02182 0.0
C35 C 0.61584 0.89194 0.94605 0.0
C36 C 0.6878 0.88237 0.96155 0.0
C37 C 0.66079 0.93188 0.0215 0.0
O38 O 0.65526 0.93201 0.99847 0.0
O39 O 0.66538 0.91387 0.02887 0.0
O40 O 0.6298 0.90984 0.94252 0.0
O41 O 0.62154 0.88134 0.96398 0.0
O42 O 0.48844 0.22026 0.15882 0.0
Cd43 Cd 0.497 0.24897 0.18683 0.0
Cd44 Cd 0.51402 0.27117 0.15173 0.0
O45 O 0.50114 0.23933 0.13015 0.0
O46 O 0.47926 0.24449 0.21411 0.0
O47 O 0.48002 0.27387 0.19343 0.0
C48 C 0.47392 0.26396 0.21174 0.0
C49 C 0.51468 0.30316 0.13162 0.0
C50 C 0.49265 0.22042 0.1367 0.0
C51 C 0.54601 0.26641 0.19595 0.0
O52 O 0.54332 0.27372 0.1754 0.0
O53 O 0.5294 0.25597 0.20438 0.0
O54 O 0.52584 0.28779 0.12572 0.0
O55 O 0.50239 0.30021 0.14877 0.0
O56 O 0.06278 0.77938 0.24425 0.0
Cd57 Cd 0.06783 0.80819 0.27225 0.0
Cd58 Cd 0.08694 0.83139 0.23708 0.0
O59 O 0.07903 0.79813 0.21713 0.0
O60 O 0.04372 0.80156 0.2946 0.0
O61 O 0.04381 0.82771 0.27025 0.0
C62 C 1.03369 0.81629 0.28546 0.0
C63 C 0.07818 0.86012 0.21455 0.0
C64 C 0.06946 0.77932 0.22318 0.0
C65 C 0.11924 0.82988 0.2825 0.0
O66 O 0.11606 0.83843 0.26272 0.0
O67 O 0.10249 0.81801 0.29022 0.0
O68 O 0.0948 0.85069 0.21109 0.0
O69 O 0.06665 0.85371 0.23142 0.0
O70 O 0.62926 0.85571 0.3968 0.0
Cd71 Cd 0.60601 0.8548 0.42063 0.0
Cd72 Cd 0.58231 0.86993 0.37591 0.0
O73 O 0.6121 0.86224 0.36134 0.0
O74 O 0.62221 0.84488 0.4499 0.0
O75 O 0.59001 0.82437 0.42906 0.0
C76 C 0.60639 0.82674 0.44701 0.0
C77 C 0.5427 0.85823 0.35881 0.0
C78 C 0.62954 0.85838 0.37423 0.0
C79 C 0.59459 0.90222 0.42701 0.0
O80 O 0.58777 0.89944 0.4036 0.0
O81 O 0.60116 0.88621 0.43681 0.0
O82 O 0.55626 0.87341 0.35017 0.0
O83 O 0.55183 0.84799 0.3753 0.0
O84 O 0.5638 0.27186 0.74419 0.0
Cd85 Cd 0.56862 0.30211 0.77041 0.0
Cd86 Cd 0.58325 0.32265 0.73122 0.0
O87 O 0.57186 0.28914 0.71241 0.0
O88 O 0.5453 0.29692 0.79399 0.0
O89 O 0.54383 0.32061 0.76699 0.0
C90 C 0.53452 0.31046 0.78358 0.0
C91 C 0.57542 0.35175 0.70867 0.0
C92 C 0.56572 0.27075 0.7212 0.0
C93 C 0.61917 0.32376 0.77549 0.0
O94 O 0.61405 0.32862 0.75392 0.0
O95 O 0.60353 0.31457 0.7868 0.0
O96 O 0.59029 0.34024 0.70362 0.0
O97 O 0.56502 0.34708 0.72696 0.0
O98 O 0.08835 0.3092 0.90041 0.0
Cd99 Cd 0.0878 0.33145 0.8741 0.0
Cd100 Cd 0.07658 0.36002 0.91752 0.0
O101 O 0.08773 0.33443 0.93376 0.0
O102 O 0.10743 0.32099 0.84893 0.0
O103 O 0.11866 0.35316 0.87616 0.0
C104 C 0.12347 0.33843 0.85916 0.0
C105 C 0.0827 0.39606 0.94438 0.0
C106 C 0.08992 0.31458 0.92402 0.0
C107 C 0.04026 0.34226 0.87105 0.0
O108 O 0.04607 0.35086 0.89409 0.0
O109 O 0.05474 0.33554 0.8584 0.0
O110 O 0.06881 0.37807 0.94756 0.0
O111 O 0.09339 0.39385 0.92573 0.0
O112 O 0.49473 0.15658 0.28234 0.0
Cd113 Cd 0.47141 0.16221 0.30504 0.0
Cd114 Cd 0.50443 0.14316 0.3393 0.0
O115 O 0.51858 0.14312 0.30698 0.0
O116 O 0.45056 0.17688 0.28502 0.0
O117 O 0.46987 0.19402 0.3218 0.0
C118 C 0.45527 0.19438 0.30287 0.0
C119 C 0.52759 0.14287 0.37687 0.0
C120 C 0.51225 0.14857 0.28603 0.0
C121 C 0.45436 0.11943 0.32637 0.0
O122 O 0.47402 0.12113 0.33762 0.0
O123 O 0.45007 0.13376 0.31245 0.0
O124 O 0.52368 0.1262 0.35827 0.0
O125 O 0.51936 0.16069 0.37386 0.0
O126 O 0.32257 0.16256 0.52288 0.0
Cd127 Cd 0.3077 0.13097 0.50122 0.0
Cd128 Cd 0.28197 0.15851 0.47707 0.0
O129 O 0.29758 0.18127 0.50892 0.0
O130 O 0.32356 0.11066 0.51862 0.0
O131 O 0.32509 0.11347 0.47919 0.0
C132 C 0.33076 0.10438 0.49834 0.0
C133 C 0.27891 0.17763 0.44307 0.0
C134 C 0.31453 0.18056 0.52421 0.0
C135 C 0.25694 0.11813 0.49487 0.0
O136 O 0.25581 0.13263 0.48022 0.0
O137 O 0.27574 0.11622 0.50564 0.0
O138 O 0.26622 0.17911 0.45983 0.0
O139 O 0.29273 0.16411 0.4448 0.0
O140 O 0.21207 0.0573 0.79951 0.0
Cd141 Cd 0.2409 0.06145 0.82614 0.0
Cd142 Cd 0.20586 0.08762 0.85584 0.0
O143 O 0.18853 0.07441 0.81923 0.0
O144 O 0.26118 0.04038 0.81103 0.0
O145 O 0.24561 0.03301 0.84332 0.0
C146 C 0.2576 0.02667 0.82702 0.0
C147 C 0.18407 0.0873 0.89065 0.0
C148 C 0.19348 0.06379 0.79938 0.0
C149 C 0.25167 0.11656 0.84528 0.0
O150 O 0.23387 0.11496 0.85544 0.0
O151 O 0.25718 0.09821 0.83464 0.0
O152 O 0.18389 0.10199 0.87558 0.0
O153 O 0.1968 0.07289 0.88655 0.0
O154 O 0.26212 0.93006 0.1195 0.0
Cd155 Cd 0.25493 0.95332 0.09661 0.0
Cd156 Cd 0.27384 0.91623 0.06063 0.0
O157 O 0.27573 0.9051 0.095 0.0
O158 O 0.24357 0.97712 0.11819 0.0
O159 O 0.22352 0.95602 0.08353 0.0
C160 C 0.22544 0.97241 0.10225 0.0
C161 C 0.27619 0.88979 0.02489 0.0
C162 C 0.27081 0.91244 0.11615 0.0
C163 C 0.29428 0.96896 0.07022 0.0
O164 O 0.29252 0.94838 0.05923 0.0
O165 O 0.28157 0.9738 0.08572 0.0
O166 O 0.29247 0.89722 0.04306 0.0
O167 O 0.25777 0.89632 0.02736 0.0
O168 O 0.36358 0.5125 0.20668 0.0
Cd169 Cd 0.36852 0.53746 0.1842 0.0
Cd170 Cd 0.35571 0.50061 0.14436 0.0
O171 O 0.35018 0.48469 0.17427 0.0
O172 O 0.35483 0.56482 0.19221 0.0
O173 O 0.34275 0.53735 0.15888 0.0
C174 C 0.34097 0.5565 0.17173 0.0
C175 C 0.33266 0.48102 0.10752 0.0
C176 C 0.35507 0.49136 0.19768 0.0
C177 C 0.40287 0.53128 0.15276 0.0
O178 O 0.38815 0.51405 0.14065 0.0
O179 O 0.39867 0.54402 0.17139 0.0
O180 O 0.34787 0.47244 0.11855 0.0
O181 O 0.33045 0.50125 0.11702 0.0
O182 O 0.89812 0.25127 0.11841 0.0
Cd183 Cd 0.89484 0.22223 0.09132 0.0
Cd184 Cd 0.8666 0.24427 0.06327 0.0
O185 O 0.87332 0.26624 0.09725 0.0
O186 O 0.91712 0.20449 0.10287 0.0
O187 O 0.91643 0.21765 0.06716 0.0
C188 C 0.92474 0.20556 0.08214 0.0
C189 C 0.86306 0.26078 0.02704 0.0
C190 C 0.88647 0.26655 0.11717 0.0
C191 C 0.84714 0.19674 0.07266 0.0
O192 O 0.84466 0.2131 0.06087 0.0
O193 O 0.86546 0.19775 0.08655 0.0
O194 O 0.84857 0.26053 0.04197 0.0
O195 O 0.88014 0.25208 0.03294 0.0
O196 O 0.16495 0.51504 0.28672 0.0
Cd197 Cd 0.18972 0.51507 0.31602 0.0
Cd198 Cd 0.16716 0.54319 0.34236 0.0
O199 O 0.1478 0.53846 0.3078 0.0
O200 O 0.2049 0.4905 0.30296 0.0
O201 O 0.18963 0.48985 0.33723 0.0
C202 C 0.20067 0.48049 0.32167 0.0
C203 C 0.14887 0.54247 0.37723 0.0
C204 C 0.14982 0.52668 0.28737 0.0
C205 C 0.2146 0.56383 0.33768 0.0
O206 O 0.19732 0.56655 0.34709 0.0
O207 O 0.21493 0.54459 0.32468 0.0
O208 O 0.14947 0.55897 0.36444 0.0
O209 O 0.15857 0.52598 0.37013 0.0
O210 O 0.86366 1.0194 0.716 0.0
Cd211 Cd 0.871 0.04277 0.6922 0.0
Cd212 Cd 0.85804 1.00291 0.65368 0.0
O213 O 0.85021 0.99021 0.6849 0.0
O214 O 0.85655 0.07024 0.6949 0.0
O215 O 0.84721 0.04039 0.66382 0.0
C216 C 0.84436 0.06018 0.6738 0.0
C217 C 0.83678 0.98076 0.61704 0.0
C218 C 0.85423 0.99827 0.70806 0.0
C219 C 0.90587 0.03368 0.66284 0.0
O220 O 0.89079 1.01656 0.65106 0.0
O221 O 0.90192 0.04715 0.68106 0.0
O222 O 0.85146 0.97318 0.63035 0.0
O223 O 0.83413 1.00138 0.62419 0.0
O224 O 0.94727 0.10009 0.26441 0.0
Cd225 Cd 0.922 0.09992 0.28886 0.0
Cd226 Cd 0.96169 0.08319 0.31986 0.0
O227 O 0.97528 0.09068 0.28755 0.0
O228 O 0.8996 0.12016 0.27736 0.0
O229 O 0.92273 0.13135 0.3123 0.0
C230 C 0.90729 0.13599 0.29682 0.0
C231 C 0.98488 0.08803 0.35972 0.0
C232 C 0.96718 0.09625 0.26714 0.0
C233 C 0.91394 0.05032 0.30628 0.0
O234 O 0.93467 0.05519 0.31539 0.0
O235 O 0.90536 0.06536 0.29581 0.0
O236 O 0.98573 0.0725 0.34126 0.0
O237 O 0.97177 0.10185 0.35539 0.0
O238 O 0.40051 0.74991 0.61969 0.0
Cd239 Cd 0.3977 0.72302 0.59027 0.0
Cd240 Cd 0.37261 0.75054 0.56441 0.0
O241 O 0.38089 0.77077 0.59953 0.0
O242 O 0.41772 0.70288 0.60155 0.0
O243 O 0.4208 0.71895 0.5679 0.0
C244 C 0.42707 0.7051 0.58204 0.0
C245 C 0.36834 0.76898 0.52958 0.0
C246 C 0.39171 0.76746 0.61956 0.0
C247 C 0.34958 0.70211 0.56942 0.0
O248 O 0.34873 0.72047 0.56059 0.0
O249 O 0.36744 0.7 0.58213 0.0
O250 O 0.35495 0.76903 0.54572 0.0
O251 O 0.385 0.75923 0.53368 0.0
O252 O 0.44509 0.59492 0.76453 0.0
Cd253 Cd 0.41957 0.59454 0.78865 0.0
Cd254 Cd 0.45948 0.57872 0.82043 0.0
O255 O 0.47296 0.58552 0.78793 0.0
O256 O 0.39676 0.6142 0.77678 0.0
O257 O 0.41975 0.62593 0.81178 0.0
C258 C 0.40417 0.63017 0.79617 0.0
C259 C 0.48326 0.58436 0.86005 0.0
C260 C 0.46498 0.59104 0.76745 0.0
C261 C 0.41188 0.54538 0.80684 0.0
O262 O 0.43249 0.55071 0.81651 0.0
O263 O 0.40326 0.55998 0.79566 0.0
O264 O 0.48328 0.56799 0.8421 0.0
O265 O 0.47055 0.59847 0.85534 0.0
O266 O 0.66271 1.00663 0.77892 0.0
Cd267 Cd 0.68796 1.00853 0.80842 0.0
Cd268 Cd 0.66621 0.03797 0.83408 0.0
O269 O 0.6468 0.03192 0.79916 0.0
O270 O 0.70487 0.9845 0.79862 0.0
O271 O 0.6887 0.98568 0.83237 0.0
C272 C 0.70129 0.97646 0.8187 0.0
C273 C 0.64842 0.03941 0.86951 0.0
C274 C 0.64808 1.01894 0.77913 0.0
C275 C 0.71318 0.05767 0.82752 0.0
O276 O 0.69658 0.06093 0.83799 0.0
O277 O 0.7127 0.03818 0.8146 0.0
O278 O 0.64929 0.05529 0.85585 0.0
O279 O 0.65732 0.02218 0.86279 0.0
O280 O 0.8265 0.64534 0.04579 0.0
Cd281 Cd 0.81129 0.6235 0.01295 0.0
Cd282 Cd 0.80656 0.66551 0.9978 0.0
O283 O 0.83049 0.67695 0.02896 0.0
O284 O 0.81908 0.59342 0.01636 0.0
O285 O 0.8308 0.61426 0.9883 0.0
C286 C 0.83071 0.59614 0.99866 0.0
C287 C 0.80755 0.69249 0.97062 0.0
C288 C 0.83454 0.66682 0.04729 0.0
C289 C 0.76545 0.6308 1.00505 0.0
O290 O 0.77446 0.65117 1.00255 0.0
O291 O 0.77712 0.61573 1.00689 0.0
O292 O 0.8011 0.69607 0.99189 0.0
O293 O 0.81356 0.67329 0.9644 0.0
O294 O 0.98756 0.65189 0.78743 0.0
Cd295 Cd 0.96559 0.65914 0.81101 0.0
Cd296 Cd 0.99817 0.63962 0.84449 0.0
O297 O 1.01206 0.63913 0.8119 0.0
O298 O 0.94556 0.67508 0.79171 0.0
O299 O 0.96678 0.69172 0.82766 0.0
C300 C 0.9521 0.69286 0.80916 0.0
C301 C 1.02167 0.63919 0.88169 0.0
C302 C 1.00518 0.64402 0.79084 0.0
C303 C 0.94756 0.61748 0.83317 0.0
O304 O 0.9673 0.61857 0.84384 0.0
O305 O 0.94343 0.63179 0.81916 0.0
O306 O 1.01703 0.62225 0.86332 0.0
O307 O 1.01396 0.65731 0.87863 0.0
O308 O 0.76443 0.42935 0.61941 0.0
Cd309 Cd 0.75697 0.45266 0.59684 0.0
Cd310 Cd 0.77487 0.41555 0.56019 0.0
O311 O 0.77709 0.40402 0.59434 0.0
O312 O 0.74542 0.47599 0.61873 0.0
O313 O 0.72539 0.45483 0.58406 0.0
C314 C 0.72718 0.471 0.60296 0.0
C315 C 0.77716 0.38928 0.52435 0.0
C316 C 0.77266 0.41146 0.61572 0.0
C317 C 0.79538 0.46844 0.56954 0.0
O318 O 0.79329 0.44779 0.55856 0.0
O319 O 0.78323 0.47342 0.58563 0.0
O320 O 0.79352 0.39677 0.54242 0.0
O321 O 0.75871 0.39567 0.52697 0.0
O322 O 0.71419 0.56238 0.301 0.0
Cd323 Cd 0.74282 0.56678 0.32827 0.0
Cd324 Cd 0.70637 0.59032 0.35793 0.0
O325 O 0.68968 0.57748 0.32113 0.0
O326 O 0.7639 0.54644 0.31352 0.0
O327 O 0.74768 0.53817 0.34512 0.0
C328 C 0.76018 0.53238 0.32915 0.0
C329 C 0.68434 0.58911 0.39264 0.0
C330 C 0.69523 0.56807 0.30103 0.0
C331 C 0.75146 0.62156 0.34816 0.0
O332 O 0.73313 0.61866 0.35735 0.0
O333 O 0.75841 0.60388 0.33808 0.0
O334 O 0.68286 0.60291 0.37675 0.0
O335 O 0.69848 0.5761 0.38943 0.0
Nd336 Nd 0.08868 0.11078 0.08219 0.0
Nd337 Nd 0.05966 0.06888 0.07259 0.0
C338 C 0.11629 0.15192 0.09128 0.0
C339 C 0.11823 0.1698 0.07492 0.0
C340 C 0.11595 0.19228 0.08378 0.0
C341 C 0.11473 0.20828 0.0675 0.0
C342 C 0.11565 0.20211 0.04192 0.0
C343 C 0.11861 0.1798 0.0333 0.0
C344 C 0.11987 0.16388 0.04953 0.0
C345 C 0.08763 0.09104 0.03255 0.0
C346 C 0.03936 0.1119 0.05854 0.0
C347 C 1.03303 0.02719 0.06091 0.0
C348 C 0.03456 1.0062 0.07201 0.0
C349 C 0.05415 0.99747 0.07297 0.0
C350 C 0.05691 0.98005 0.08687 0.0
C351 C 0.04024 0.97101 0.1003 0.0
C352 C 1.02035 0.9792 0.09868 0.0
C353 C 1.01753 0.99655 0.08463 0.0
C354 C 0.0605 0.08842 0.12229 0.0
C355 C 0.10832 0.0677 0.09768 0.0
O356 O 0.0977 0.14784 0.10046 0.0
O357 O 0.1224 0.13286 0.0834 0.0
O358 O 0.08375 0.11114 0.03979 0.0
O359 O 0.0886 0.08056 0.05114 0.0
O360 O 0.05744 0.12428 0.07296 0.0
O361 O 0.03717 0.08941 0.0522 0.0
O362 O 0.0485 0.0345 0.04792 0.0
O363 O 1.02856 0.04413 0.0757 0.0
O364 O 0.06394 0.0681 0.11488 0.0
O365 O 0.05987 0.09917 0.10383 0.0
O366 O 0.0908 0.05554 0.08222 0.0
O367 O 0.11019 0.09017 0.1044 0.0
H368 H 0.1144 0.19725 0.10315 0.0
H369 H 0.11226 0.22522 0.07479 0.0
H370 H 0.11976 0.17452 0.01386 0.0
H371 H 0.12152 0.14668 0.04196 0.0
H372 H 0.06777 1.00468 0.06376 0.0
H373 H 0.07254 0.97436 0.08792 0.0
H374 H 1.00708 0.97243 0.10857 0.0
H375 H 1.00233 1.00303 0.08436 0.0
Nd376 Nd 0.33064 0.86155 0.33408 0.0
Nd377 Nd 0.32771 0.81846 0.306 0.0
C378 C 0.32668 0.90366 0.35278 0.0
C379 C 0.33402 0.9271 0.34775 0.0
C380 C 0.32863 0.94577 0.36231 0.0
C381 C 0.33677 0.96835 0.35868 0.0
C382 C 0.35049 0.97254 0.34044 0.0
C383 C 0.35522 0.95361 0.32534 0.0
C384 C 0.34704 0.93105 0.32897 0.0
C385 C 0.37323 0.85227 0.33355 0.0
C386 C 0.32751 0.85744 0.27332 0.0
C387 C 0.3316 0.77586 0.28931 0.0
C388 C 0.32464 0.75362 0.29751 0.0
C389 C 0.33114 0.73393 0.28653 0.0
C390 C 0.32395 0.71261 0.29396 0.0
C391 C 0.31014 0.71073 0.31248 0.0
C392 C 0.30408 0.73073 0.32374 0.0
C393 C 0.31129 0.75198 0.31634 0.0
C394 C 0.28504 0.82723 0.30786 0.0
C395 C 0.32915 0.82223 0.3662 0.0
O396 O 0.31182 0.88954 0.33555 0.0
O397 O 0.34249 0.89401 0.36151 0.0
O398 O 0.36573 0.86063 0.35304 0.0
O399 O 0.35815 0.84865 0.31441 0.0
O400 O 0.32367 0.86895 0.29402 0.0
O401 O 0.33351 0.83761 0.27353 0.0
O402 O 0.34725 0.79104 0.30464 0.0
O403 O 0.31543 0.78492 0.28035 0.0
O404 O 0.29168 0.81786 0.28824 0.0
O405 O 0.30071 0.8314 0.32638 0.0
O406 O 0.33471 0.8114 0.34617 0.0
O407 O 0.32229 0.84151 0.36523 0.0
H408 H 0.31846 0.94291 0.37678 0.0
H409 H 0.33262 0.98255 0.37039 0.0
H410 H 0.36598 0.95624 0.31138 0.0
H411 H 0.35131 0.91673 0.31756 0.0
H412 H 0.34158 0.73499 0.27209 0.0
H413 H 0.32913 0.69761 0.28513 0.0
H414 H 0.2932 0.72987 0.33776 0.0
H415 H 0.30616 0.76709 0.32504 0.0
Nd416 Nd 0.60336 0.09605 0.57995 0.0
Nd417 Nd 0.5594 0.07105 0.58242 0.0
C418 C 0.6429 0.11622 0.57068 0.0
C419 C 0.66512 0.11157 0.57703 0.0
C420 C 0.68439 0.12811 0.57615 0.0
C421 C 0.70552 0.12436 0.58448 0.0
C422 C 0.70756 0.104 0.59379 0.0
C423 C 0.6881 0.08741 0.59436 0.0
C424 C 0.66709 0.09118 0.58609 0.0
C425 C 0.6022 0.07644 0.62273 0.0
C426 C 0.58691 0.04243 0.54962 0.0
C427 C 0.51929 0.05214 0.59125 0.0
C428 C 0.49788 0.04287 0.5747 0.0
C429 C 0.47791 0.04126 0.58454 0.0
C430 C 0.45757 0.03755 0.56861 0.0
C431 C 0.45703 0.03571 0.54266 0.0
C432 C 0.47694 0.03574 0.53281 0.0
C433 C 0.49723 0.03919 0.54874 0.0
C434 C 0.56128 0.08951 0.5391 0.0
C435 C 0.57489 0.12374 0.61038 0.0
O436 O 0.62863 0.1002 0.55456 0.0
O437 O 0.63416 0.12373 0.58981 0.0
O438 O 0.61344 0.09684 0.62189 0.0
O439 O 0.59245 0.06646 0.60129 0.0
O440 O 0.60084 0.06264 0.55155 0.0
O441 O 0.57037 0.04013 0.56263 0.0
O442 O 0.52666 0.07438 0.59302 0.0
O443 O 0.53497 0.0406 0.58873 0.0
O444 O 0.55011 0.06916 0.54024 0.0
O445 O 0.57049 0.10009 0.56052 0.0
O446 O 0.56596 0.1028 0.61397 0.0
O447 O 0.58712 0.1259 0.59254 0.0
H448 H 0.68307 0.14405 0.56943 0.0
H449 H 0.72023 0.13735 0.58368 0.0
H450 H 0.68907 0.07176 0.60185 0.0
H451 H 0.65231 0.07842 0.5873 0.0
H452 H 0.47817 0.04426 0.60454 0.0
H453 H 0.4425 0.03788 0.57672 0.0
H454 H 0.47695 0.03426 0.51289 0.0
H455 H 0.51251 0.0403 0.54082 0.0
Nd456 Nd 0.33713 0.33408 0.8451 0.0
Nd457 Nd 0.32242 0.32531 0.79711 0.0
C458 C 0.34188 0.33824 0.89425 0.0
C459 C 0.33318 0.35165 0.91386 0.0
C460 C 0.32353 0.34051 0.93194 0.0
C461 C 0.31525 0.35296 0.95077 0.0
C462 C 0.31668 0.37687 0.95197 0.0
C463 C 0.32578 0.38784 0.93334 0.0
C464 C 0.33384 0.37532 0.91438 0.0
C465 C 0.34886 0.37523 0.82587 0.0
C466 C 0.28472 0.33744 0.82789 0.0
C467 C 0.31768 0.32334 0.7481 0.0
C468 C 0.32493 0.31104 0.72646 0.0
C469 C 0.337 0.32379 0.71105 0.0
C470 C 0.34318 0.31253 0.68978 0.0
C471 C 0.33721 0.28828 0.68344 0.0
C472 C 0.32556 0.27554 0.69929 0.0
C473 C 0.31956 0.28679 0.72063 0.0
C474 C 0.31115 0.28375 0.81599 0.0
C475 C 0.37457 0.32111 0.81439 0.0
O476 O 0.32715 0.32183 0.87928 0.0
O477 O 0.35619 0.34985 0.88256 0.0
O478 O 0.36215 0.36659 0.84011 0.0
O479 O 0.32962 0.36148 0.82093 0.0
O480 O 0.29934 0.33432 0.84607 0.0
O481 O 0.29079 0.33792 0.80583 0.0
O482 O 0.33322 0.33841 0.76367 0.0
O483 O 0.30326 0.31129 0.75932 0.0
O484 O 0.29822 0.29135 0.80022 0.0
O485 O 0.33003 0.29807 0.82157 0.0
O486 O 0.36019 0.32483 0.7963 0.0
O487 O 0.36827 0.32035 0.83636 0.0
H488 H 0.32252 0.32217 0.93159 0.0
H489 H 0.308 0.34391 0.96458 0.0
H490 H 0.32739 0.40626 0.93384 0.0
H491 H 0.34089 0.38426 0.90036 0.0
H492 H 0.34141 0.34252 0.7153 0.0
H493 H 0.35238 0.32284 0.67817 0.0
H494 H 0.32033 0.25688 0.69478 0.0
H495 H 0.31034 0.27648 0.73224 0.0
Nd496 Nd 0.0837 0.09946 0.59316 0.0
Nd497 Nd 0.08665 0.04861 0.57049 0.0
C498 C 0.07415 0.13998 0.6063 0.0
C499 C 0.08057 0.16089 0.59551 0.0
C500 C 0.07172 0.18041 0.6015 0.0
C501 C 0.07865 0.20026 0.59119 0.0
C502 C 0.09458 0.20079 0.57485 0.0
C503 C 0.10323 0.18101 0.56894 0.0
C504 C 0.09617 0.16125 0.579 0.0
C505 C 0.12194 0.09479 0.57431 0.0
C506 C 0.06206 0.07812 0.53329 0.0
C507 C 0.10039 1.01177 0.55259 0.0
C508 C 0.09719 0.98933 0.56091 0.0
C509 C 0.09598 0.96905 0.54409 0.0
C510 C 0.08833 0.94745 0.55069 0.0
C511 C 0.08158 0.94595 0.57413 0.0
C512 C 0.08387 0.96641 0.59128 0.0
C513 C 0.0916 0.98786 0.58473 0.0
C514 C 0.05059 0.04676 0.5958 0.0
C515 C 0.10505 0.06923 0.63027 0.0
O516 O 0.05997 0.12284 0.59143 0.0
O517 O 0.09096 0.13339 0.61801 0.0
O518 O 0.12181 0.11016 0.59345 0.0
O519 O 0.10246 0.08411 0.56508 0.0
O520 O 0.06457 0.09504 0.55265 0.0
O521 O 0.07005 0.05934 0.53521 0.0
O522 O 0.11355 0.02917 0.56833 0.0
O523 O 0.08176 1.01668 0.54288 0.0
O524 O 0.05568 0.02852 0.58429 0.0
O525 O 0.0642 0.06437 0.59312 0.0
O526 O 0.10829 0.05628 0.60986 0.0
O527 O 0.09227 0.08454 0.62882 0.0
H528 H 0.05956 0.18031 0.61414 0.0
H529 H 0.07146 0.2151 0.59589 0.0
H530 H 0.11582 0.18088 0.55688 0.0
H531 H 0.10314 0.14626 0.57413 0.0
H532 H 0.09999 0.96992 0.52552 0.0
H533 H 0.08705 0.93199 0.5372 0.0
H534 H 0.0785 0.96598 0.6093 0.0
H535 H 0.09201 1.00338 0.59781 0.0
Nd536 Nd 0.35057 0.84017 0.83094 0.0
Nd537 Nd 0.30778 0.81519 0.80547 0.0
C538 C 0.38984 0.86885 0.84646 0.0
C539 C 0.4136 0.86859 0.84972 0.0
C540 C 0.42095 0.8483 0.84242 0.0
C541 C 0.44365 0.84808 0.84757 0.0
C542 C 0.45918 0.86814 0.86009 0.0
C543 C 0.4516 0.88848 0.86689 0.0
C544 C 0.429 0.88868 0.86171 0.0
C545 C 0.3217 0.82812 0.86373 0.0
C546 C 0.3469 0.78443 0.81813 0.0
C547 C 0.26825 0.78682 0.79064 0.0
C548 C 0.24432 0.787 0.7863 0.0
C549 C 0.22911 0.77069 0.79523 0.0
C550 C 0.20613 0.76886 0.78902 0.0
C551 C 0.19798 0.78322 0.77357 0.0
C552 C 0.21334 0.80015 0.76544 0.0
C553 C 0.23629 0.80209 0.77183 0.0
C554 C 0.33671 0.82761 0.77295 0.0
C555 C 0.31196 0.87098 0.81674 0.0
O556 O 0.37942 0.86539 0.82352 0.0
O557 O 0.37825 0.8579 0.86118 0.0
O558 O 0.34205 0.82517 0.86577 0.0
O559 O 0.31693 0.83622 0.84419 0.0
O560 O 0.36129 0.80471 0.8239 0.0
O561 O 0.32521 0.78426 0.81303 0.0
O562 O 0.27834 0.7911 0.81379 0.0
O563 O 0.28052 0.79626 0.77547 0.0
O564 O 0.3161 0.82986 0.77035 0.0
O565 O 0.34142 0.81944 0.79243 0.0
O566 O 0.29737 0.85083 0.81173 0.0
O567 O 0.33359 0.87097 0.82185 0.0
H568 H 0.40912 0.83261 0.83318 0.0
H569 H 0.44901 0.83221 0.84195 0.0
H570 H 0.46302 0.90409 0.877 0.0
H571 H 0.42348 0.9044 0.86762 0.0
H572 H 0.235 0.75894 0.80649 0.0
H573 H 0.19476 0.75592 0.79595 0.0
H574 H 0.20767 0.81132 0.75328 0.0
H575 H 0.24769 0.81492 0.76477 0.0
Nd576 Nd 0.55203 0.07212 0.06674 0.0
Nd577 Nd 0.6008 0.0776 0.09468 0.0
C578 C 0.51213 0.07809 0.04896 0.0
C579 C 0.48891 0.07211 0.05298 0.0
C580 C 0.47319 0.08285 0.04151 0.0
C581 C 0.45082 0.07697 0.04463 0.0
C582 C 0.4439 0.06027 0.05933 0.0
C583 C 0.45991 0.04995 0.07129 0.0
C584 C 0.48228 0.05586 0.06816 0.0
C585 C 0.5637 0.03171 0.07628 0.0
C586 C 0.56296 0.08442 0.12848 0.0
C587 C 0.64125 0.07236 0.11118 0.0
C588 C 0.6631 0.0781 0.10324 0.0
C589 C 0.68159 0.07189 0.11577 0.0
C590 C 0.70275 0.07874 0.10925 0.0
C591 C 0.70567 0.09196 0.09013 0.0
C592 C 0.68683 0.09738 0.07704 0.0
C593 C 0.66571 0.09047 0.08353 0.0
C594 C 0.58858 0.11797 0.08574 0.0
C595 C 0.59062 0.06749 0.03304 0.0
O596 O 0.52587 0.09253 0.06698 0.0
O597 O 0.52063 0.06102 0.03962 0.0
O598 O 0.54899 0.03283 0.05765 0.0
O599 O 0.56909 0.05096 0.09062 0.0
O600 O 0.5498 0.0851 0.10772 0.0
O601 O 0.58209 0.07768 0.12816 0.0
O602 O 0.62629 0.0563 0.09592 0.0
O603 O 0.63325 0.09007 0.11975 0.0
O604 O 0.60337 0.11683 0.1043 0.0
O605 O 0.58362 0.09885 0.07118 0.0
O606 O 0.60344 0.06559 0.05351 0.0
O607 O 0.57147 0.07408 0.03387 0.0
H608 H 0.47819 0.09563 0.02995 0.0
H609 H 0.43892 0.08539 0.03544 0.0
H610 H 0.45504 0.03681 0.08247 0.0
H611 H 0.49434 0.04755 0.07726 0.0
H612 H 0.67973 0.06216 0.1309 0.0
H613 H 0.71688 0.07403 0.11944 0.0
H614 H 0.6885 0.1078 0.06248 0.0
H615 H 0.65149 0.0953 0.07362 0.0
Nd616 Nd 0.30644 0.32006 0.29535 0.0
Nd617 Nd 0.33517 0.3464 0.3432 0.0
C618 C 0.2815 0.30189 0.25209 0.0
C619 C 0.25682 0.29902 0.2484 0.0
C620 C 0.24761 0.31839 0.24543 0.0
C621 C 0.22895 0.3215 0.25642 0.0
C622 C 0.21944 0.30523 0.27034 0.0
C623 C 0.22545 0.28367 0.2682 0.0
C624 C 0.2439 0.28045 0.25694 0.0
C625 C 0.29734 0.3012 0.33673 0.0
C626 C 0.28559 0.35634 0.33062 0.0
C627 C 0.3633 0.36403 0.38396 0.0
C628 C 0.38714 0.36313 0.38341 0.0
C629 C 0.39396 0.3424 0.3863 0.0
C630 C 0.40986 0.33533 0.37267 0.0
C631 C 0.4192 0.34898 0.35618 0.0
C632 C 0.4155 0.37146 0.35697 0.0
C633 C 0.39992 0.37867 0.37088 0.0
C634 C 0.34317 0.36485 0.301 0.0
C635 C 0.35502 0.30854 0.3102 0.0
O636 O 0.29309 0.32331 0.25674 0.0
O637 O 0.28945 0.28923 0.26713 0.0
O638 O 0.2821 0.30265 0.31887 0.0
O639 O 0.31653 0.30934 0.33221 0.0
O640 O 0.28513 0.34542 0.30779 0.0
O641 O 0.30192 0.35686 0.34894 0.0
O642 O 0.34944 0.34394 0.38183 0.0
O643 O 0.3554 0.37724 0.36956 0.0
O644 O 0.35888 0.36316 0.31817 0.0
O645 O 0.32444 0.35691 0.30652 0.0
O646 O 0.35426 0.31865 0.33286 0.0
O647 O 0.34031 0.30991 0.29105 0.0
H648 H 0.25667 0.33271 0.23808 0.0
H649 H 0.22423 0.33805 0.25714 0.0
H650 H 0.21778 0.27048 0.27802 0.0
H651 H 0.24996 0.26484 0.25856 0.0
H652 H 0.38489 0.33018 0.39626 0.0
H653 H 0.4128 0.3181 0.37287 0.0
H654 H 0.42307 0.38264 0.345 0.0
H655 H 0.39567 0.39511 0.36882 0.0
Nd656 Nd 0.58321 0.60352 0.09431 0.0
Nd657 Nd 0.59032 0.55821 0.07252 0.0
C658 C 0.56833 0.64106 0.10835 0.0
C659 C 0.56896 0.66249 0.09813 0.0
C660 C 0.5646 0.682 0.11233 0.0
C661 C 0.56786 0.70317 0.10375 0.0
C662 C 0.5756 0.70511 0.08089 0.0
C663 C 0.57916 0.68521 0.06638 0.0
C664 C 0.5759 0.66411 0.07495 0.0
C665 C 0.6234 0.6062 0.07684 0.0
C666 C 0.56639 0.58453 0.0339 0.0
C667 C 0.60192 0.51869 0.05886 0.0
C668 C 0.59185 0.495 0.06187 0.0
C669 C 0.60522 0.48142 0.07256 0.0
C670 C 0.59542 0.45999 0.07816 0.0
C671 C 0.57205 0.45178 0.07308 0.0
C672 C 0.5588 0.46517 0.0617 0.0
C673 C 0.56857 0.48659 0.05628 0.0
C674 C 0.5498 0.55605 0.08897 0.0
C675 C 0.60962 0.57808 0.13149 0.0
O676 O 0.55564 0.6223 0.09453 0.0
O677 O 0.58786 0.638 0.11758 0.0
O678 O 0.62085 0.61936 0.09663 0.0
O679 O 0.60506 0.59361 0.06619 0.0
O680 O 0.56217 0.59655 0.0543 0.0
O681 O 0.58089 0.57111 0.0359 0.0
O682 O 0.61132 0.53288 0.07947 0.0
O683 O 0.59 0.52821 0.04369 0.0
O684 O 0.55247 0.54364 0.0688 0.0
O685 O 0.56817 0.56796 0.10047 0.0
O686 O 0.6145 0.56782 0.11051 0.0
O687 O 0.59388 0.59014 0.1304 0.0
H688 H 0.55931 0.68101 0.13033 0.0
H689 H 0.56475 0.71812 0.11524 0.0
H690 H 0.58548 0.68613 0.04891 0.0
H691 H 0.57957 0.64922 0.06388 0.0
H692 H 0.62317 0.4877 0.07727 0.0
H693 H 0.60609 0.45023 0.08718 0.0
H694 H 0.54082 0.45919 0.05715 0.0
H695 H 0.55777 0.49677 0.04821 0.0
Nd696 Nd 0.85515 0.3473 0.33355 0.0
Nd697 Nd 0.81409 0.32291 0.30496 0.0
C698 C 0.89323 0.37669 0.35372 0.0
C699 C 0.91583 0.37829 0.36721 0.0
C700 C 0.93451 0.38411 0.35536 0.0
C701 C 0.9561 0.38793 0.36861 0.0
C702 C 0.95942 0.38618 0.39405 0.0
C703 C 0.9407 0.38 0.4058 0.0
C704 C 0.91913 0.3761 0.39254 0.0
C705 C 0.82472 0.33216 0.36351 0.0
C706 C 0.85245 0.2918 0.31992 0.0
C707 C 0.77617 0.29334 0.28533 0.0
C708 C 0.7518 0.28998 0.28092 0.0
C709 C 0.73974 0.29687 0.29963 0.0
C710 C 0.7164 0.29285 0.29454 0.0
C711 C 0.70493 0.28195 0.2707 0.0
C712 C 0.71724 0.27534 0.25208 0.0
C713 C 0.74041 0.27923 0.25721 0.0
C714 C 0.84517 0.33694 0.27514 0.0
C715 C 0.81693 0.37784 0.31807 0.0
O716 O 0.88873 0.36732 0.33012 0.0
O717 O 0.87645 0.37136 0.36563 0.0
O718 O 0.84515 0.32932 0.36603 0.0
O719 O 0.82059 0.3415 0.34469 0.0
O720 O 0.86651 0.31201 0.32859 0.0
O721 O 0.8312 0.29175 0.31196 0.0
O722 O 0.78612 0.29453 0.30815 0.0
O723 O 0.78723 0.30761 0.27295 0.0
O724 O 0.82483 0.33989 0.27193 0.0
O725 O 0.84864 0.32798 0.29431 0.0
O726 O 0.80252 0.35763 0.31362 0.0
O727 O 0.83861 0.37779 0.32215 0.0
H728 H 0.93242 0.38613 0.33593 0.0
H729 H 0.97019 0.39231 0.35893 0.0
H730 H 0.9427 0.37878 0.42545 0.0
H731 H 0.90509 0.3719 0.40234 0.0
H732 H 0.74829 0.30527 0.31808 0.0
H733 H 0.70736 0.29807 0.30926 0.0
H734 H 0.70901 0.26746 0.23336 0.0
H735 H 0.7495 0.27389 0.24254 0.0
Nd736 Nd 0.05616 0.55843 0.57948 0.0
Nd737 Nd 0.0967 0.59736 0.59511 0.0
C738 C 1.01727 0.53197 0.55778 0.0
C739 C 0.99395 0.53289 0.55914 0.0
C740 C 0.98836 0.54634 0.57952 0.0
C741 C 0.96616 0.54781 0.5802 0.0
C742 C 0.94923 0.5358 0.56051 0.0
C743 C 0.95504 0.52255 0.54002 0.0
C744 C 0.97724 0.52117 0.53933 0.0
C745 C 0.09352 0.54486 0.59985 0.0
C746 C 0.06263 0.58658 0.63528 0.0
C747 C 0.13553 0.62469 0.61552 0.0
C748 C 0.15822 0.62555 0.61012 0.0
C749 C 0.16192 0.61007 0.59017 0.0
C750 C 0.18337 0.61136 0.58427 0.0
C751 C 0.20144 0.62821 0.59823 0.0
C752 C 0.19769 0.64338 0.61857 0.0
C753 C 0.17618 0.64203 0.62447 0.0
C754 C 0.05891 0.61018 0.57439 0.0
C755 C 0.09063 0.56971 0.53944 0.0
O756 O 1.0283 0.5484 0.54783 0.0
O757 O 1.02881 0.52787 0.57775 0.0
O758 O 0.07333 0.53591 0.60292 0.0
O759 O 0.09309 0.55907 0.58508 0.0
O760 O 0.0475 0.57519 0.61612 0.0
O761 O 0.08359 0.59407 0.63239 0.0
O762 O 0.12664 0.60637 0.6243 0.0
O763 O 0.1218 0.62998 0.59818 0.0
O764 O 0.07894 0.61934 0.57101 0.0
O765 O 0.05984 0.59645 0.58956 0.0
O766 O 0.10565 0.58119 0.55857 0.0
O767 O 0.06969 0.56191 0.54225 0.0
H768 H 1.00115 0.55572 0.59488 0.0
H769 H 0.96224 0.55829 0.59614 0.0
H770 H 0.94235 0.51273 0.52478 0.0
H771 H 0.98136 0.51087 0.52339 0.0
H772 H 0.14816 0.59722 0.57893 0.0
H773 H 0.18579 0.59935 0.56865 0.0
H774 H 0.21123 0.65678 0.62942 0.0
H775 H 0.17352 0.6541 0.6399 0.0
Nd776 Nd 0.83658 0.83978 0.3456 0.0
Nd777 Nd 0.82115 0.83065 0.29897 0.0
C778 C 0.84224 0.84399 0.39484 0.0
C779 C 0.8337 0.85618 0.41543 0.0
C780 C 0.82709 0.84438 0.4345 0.0
C781 C 0.81977 0.85582 0.45479 0.0
C782 C 0.81913 0.87935 0.45648 0.0
C783 C 0.82489 0.89087 0.43678 0.0
C784 C 0.83204 0.87935 0.41636 0.0
C785 C 0.84879 0.88073 0.32599 0.0
C786 C 0.78462 0.84488 0.32945 0.0
C787 C 0.81531 0.82424 0.24963 0.0
C788 C 0.82263 0.80871 0.23064 0.0
C789 C 0.83312 0.81783 0.21189 0.0
C790 C 0.84096 0.8035 0.19428 0.0
C791 C 0.83827 0.7797 0.195 0.0
C792 C 0.82793 0.77067 0.21403 0.0
C793 C 0.82031 0.78506 0.23177 0.0
C794 C 0.80985 0.78978 0.31917 0.0
C795 C 0.87352 0.82669 0.31506 0.0
O796 O 0.82778 0.82722 0.38005 0.0
O797 O 0.85547 0.85659 0.38286 0.0
O798 O 0.86204 0.87168 0.33982 0.0
O799 O 0.82932 0.86744 0.32147 0.0
O800 O 0.79887 0.84017 0.34697 0.0
O801 O 0.79087 0.84604 0.30757 0.0
O802 O 0.83116 0.8402 0.26366 0.0
O803 O 0.8006 0.81467 0.26227 0.0
O804 O 0.79609 0.79863 0.30581 0.0
O805 O 0.82912 0.80326 0.32291 0.0
O806 O 0.8591 0.831 0.29742 0.0
O807 O 0.86728 0.82546 0.33692 0.0
H808 H 0.82793 0.82639 0.43388 0.0
H809 H 0.81505 0.84634 0.46944 0.0
H810 H 0.82477 0.90904 0.4376 0.0
H811 H 0.83673 0.8887 0.40161 0.0
H812 H 0.83538 0.83611 0.21096 0.0
H813 H 0.84915 0.81109 0.18012 0.0
H814 H 0.82528 0.75239 0.21495 0.0
H815 H 0.81256 0.77762 0.2463 0.0
Nd816 Nd 0.83533 0.35691 0.83035 0.0
Nd817 Nd 0.82561 0.31148 0.80376 0.0
C818 C 0.83845 0.39718 0.85937 0.0
C819 C 0.84169 0.42162 0.85671 0.0
C820 C 0.83388 0.42824 0.83425 0.0
C821 C 0.83901 0.45147 0.83142 0.0
C822 C 0.85225 0.46838 0.8509 0.0
C823 C 0.85948 0.46161 0.87357 0.0
C824 C 0.85419 0.43846 0.87643 0.0
C825 C 0.87451 0.34361 0.81972 0.0
C826 C 0.8276 0.35353 0.77148 0.0
C827 C 0.82266 0.27005 0.77754 0.0
C828 C 0.81804 0.2472 0.78498 0.0
C829 C 0.82232 0.22787 0.77041 0.0
C830 C 0.81696 0.20604 0.77734 0.0
C831 C 0.80716 0.20328 0.79891 0.0
C832 C 0.80348 0.22295 0.81372 0.0
C833 C 0.80897 0.24467 0.80689 0.0
C834 C 0.78656 0.32389 0.81576 0.0
C835 C 0.83201 0.31503 0.86257 0.0
O836 O 0.81945 0.38354 0.84865 0.0
O837 O 0.85548 0.3878 0.85647 0.0
O838 O 0.86933 0.36293 0.81572 0.0
O839 O 0.85846 0.3314 0.82754 0.0
O840 O 0.82676 0.36678 0.7924 0.0
O841 O 0.83065 0.33233 0.77161 0.0
O842 O 0.84168 0.28372 0.78812 0.0
O843 O 0.80611 0.28063 0.77724 0.0
O844 O 0.79221 0.30464 0.81908 0.0
O845 O 0.80208 0.33657 0.80751 0.0
O846 O 0.83394 0.30196 0.84202 0.0
O847 O 0.82876 0.33604 0.86198 0.0
H848 H 0.82428 0.41542 0.81873 0.0
H849 H 0.83296 0.45609 0.81383 0.0
H850 H 0.87007 0.47401 0.8888 0.0
H851 H 0.86049 0.4336 0.89381 0.0
H852 H 0.82953 0.2296 0.75357 0.0
H853 H 0.82029 0.19131 0.76569 0.0
H854 H 0.79561 0.22152 0.83017 0.0
H855 H 0.80563 0.25946 0.81844 0.0
Nd856 Nd 0.81361 0.82629 0.81363 0.0
Nd857 Nd 0.84716 0.85691 0.85462 0.0
C858 C 0.7841 0.80265 0.77555 0.0
C859 C 0.75974 0.79835 0.77635 0.0
C860 C 0.74888 0.81687 0.77553 0.0
C861 C 0.73246 0.81926 0.79041 0.0
C862 C 0.72651 0.80295 0.80588 0.0
C863 C 0.73359 0.78197 0.80206 0.0
C864 C 0.74999 0.77958 0.78711 0.0
C865 C 0.81252 0.81234 0.85919 0.0
C866 C 0.79648 0.86542 0.8489 0.0
C867 C 0.87962 0.87822 0.89029 0.0
C868 C 0.90265 0.8758 0.88702 0.0
C869 C 0.90906 0.85498 0.89046 0.0
C870 C 0.923 0.84602 0.87527 0.0
C871 C 0.93078 0.85781 0.85657 0.0
C872 C 0.92785 0.8805 0.8565 0.0
C873 C 0.9142 0.88959 0.87192 0.0
C874 C 0.84781 0.87071 0.80876 0.0
C875 C 0.86342 0.81659 0.82136 0.0
O876 O 0.79411 0.82424 0.77613 0.0
O877 O 0.79543 0.79265 0.79088 0.0
O878 O 0.79479 0.81222 0.84378 0.0
O879 O 0.82984 0.81963 0.8503 0.0
O880 O 0.79266 0.85159 0.82711 0.0
O881 O 0.81542 0.86858 0.8645 0.0
O882 O 0.86581 0.85927 0.89272 0.0
O883 O 0.87034 0.88942 0.87454 0.0
O884 O 0.86555 0.86983 0.82358 0.0
O885 O 0.83068 0.86357 0.81799 0.0
O886 O 0.86547 0.82864 0.84379 0.0
O887 O 0.84635 0.81627 0.80411 0.0
H888 H 0.75535 0.83127 0.76661 0.0
H889 H 0.72692 0.83541 0.79233 0.0
H890 H 0.72853 0.76863 0.81293 0.0
H891 H 0.75737 0.76459 0.78726 0.0
H892 H 0.90099 0.8441 0.90238 0.0
H893 H 0.9255 0.82874 0.87629 0.0
H894 H 0.9344 0.89039 0.84292 0.0
H895 H 0.91025 0.90604 0.86932 0.0
Nd896 Nd 0.58956 0.60847 0.58677 0.0
Nd897 Nd 0.56056 0.56624 0.57422 0.0
C898 C 0.61636 0.65013 0.59984 0.0
C899 C 0.61579 0.67016 0.58696 0.0
C900 C 0.5977 0.66893 0.56824 0.0
C901 C 0.5973 0.68659 0.55423 0.0
C902 C 0.61514 0.70599 0.55839 0.0
C903 C 0.63317 0.70753 0.57755 0.0
C904 C 0.63352 0.68967 0.59167 0.0
C905 C 0.58977 0.5913 0.53665 0.0
C906 C 0.54056 0.60965 0.56158 0.0
C907 C 0.53439 0.52448 0.56039 0.0
C908 C 0.53581 0.5032 0.57103 0.0
C909 C 0.55455 0.49324 0.56982 0.0
C910 C 0.55766 0.47574 0.58347 0.0
C911 C 0.54222 0.4678 0.59885 0.0
C912 C 0.52296 0.47703 0.59914 0.0
C913 C 0.51978 0.49447 0.58535 0.0
C914 C 0.55983 0.58417 0.62409 0.0
C915 C 0.60885 0.56449 0.60021 0.0
O916 O 0.59906 0.64338 0.61053 0.0
O917 O 0.62192 0.63273 0.58694 0.0
O918 O 0.58593 0.61119 0.54504 0.0
O919 O 0.59017 0.57957 0.55431 0.0
O920 O 0.55797 0.6215 0.57749 0.0
O921 O 0.53874 0.58739 0.55391 0.0
O922 O 0.55039 0.53247 0.54835 0.0
O923 O 0.52914 0.54097 0.57512 0.0
O924 O 0.56347 0.56402 0.61624 0.0
O925 O 0.55967 0.59546 0.6061 0.0
O926 O 0.59151 0.5527 0.5842 0.0
O927 O 0.61079 0.58685 0.60765 0.0
H928 H 0.58396 0.65402 0.56405 0.0
H929 H 0.58295 0.68495 0.54001 0.0
H930 H 0.64726 0.72219 0.58114 0.0
H931 H 0.64778 0.69089 0.60587 0.0
H932 H 0.5673 0.4995 0.55904 0.0
H933 H 0.57245 0.46874 0.58228 0.0
H934 H 0.51076 0.47154 0.61086 0.0
H935 H 0.50524 0.50186 0.58677 0.0
Nd936 Nd 0.10303 0.59956 0.08553 0.0
Nd937 Nd 0.05925 0.5757 0.09156 0.0
C938 C 0.14211 0.61839 0.07403 0.0
C939 C 0.16552 0.61907 0.08438 0.0
C940 C 0.17882 0.60836 0.06964 0.0
C941 C 0.20018 0.60666 0.07992 0.0
C942 C 0.20874 0.61581 0.10515 0.0
C943 C 0.19575 0.6274 0.11959 0.0
C944 C 0.17435 0.62895 0.10935 0.0
C945 C 0.1035 0.58266 0.13005 0.0
C946 C 0.08504 0.5453 0.05882 0.0
C947 C 1.01988 0.55805 0.10303 0.0
C948 C 0.99806 0.54806 0.08748 0.0
C949 C 0.97866 0.55166 0.09658 0.0
C950 C 0.9583 0.54665 0.0805 0.0
C951 C 0.95702 0.53794 0.05498 0.0
C952 C 0.97632 0.53303 0.04629 0.0
C953 C 0.99671 0.53814 0.06239 0.0
C954 C 0.05928 0.59108 0.04636 0.0
C955 C 0.07587 0.62901 0.11603 0.0
O956 O 0.1302 0.59822 0.06273 0.0
O957 O 0.13096 0.62977 0.0881 0.0
O958 O 0.11504 0.60247 0.12763 0.0
O959 O 0.0929 0.57192 0.10931 0.0
O960 O 0.09747 0.56551 0.05707 0.0
O961 O 0.07067 0.544 0.0746 0.0
O962 O 1.02714 0.58011 0.10328 0.0
O963 O 0.03548 0.54633 0.1009 0.0
O964 O 0.04791 0.57136 0.0493 0.0
O965 O 0.06949 0.60264 0.06697 0.0
O966 O 0.06756 0.60867 0.12157 0.0
O967 O 0.08707 0.62995 0.09719 0.0
H968 H 0.17239 0.60061 0.05036 0.0
H969 H 0.20958 0.59735 0.06833 0.0
H970 H 0.20198 0.63498 0.13894 0.0
H971 H 0.16456 0.6374 0.12124 0.0
H972 H 0.97947 0.5596 0.1158 0.0
H973 H 0.94391 0.55105 0.08782 0.0
H974 H 0.97586 0.52609 0.02684 0.0
H975 H 1.01159 0.53539 0.05496 0.0
H976 H 0.09714 0.27064 0.91141 0.0
H977 H 0.09245 0.32036 0.97473 0.0
H978 H 0.10433 0.24358 0.93938 0.0
H979 H 0.09908 0.2933 1.0024 0.0
H980 H 0.13279 0.249 0.04896 0.0
H981 H 0.12743 0.27572 0.02016 0.0
H982 H 0.08638 0.21911 0.96577 0.0
H983 H 0.09185 0.19242 0.9945 0.0
C984 C 0.09757 0.2758 0.93124 0.0
C985 C 0.09423 0.29776 0.94072 0.0
C986 C 0.10159 0.26023 0.94731 0.0
C987 C 0.10238 0.26621 0.97326 0.0
C988 C 0.09901 0.28817 0.98265 0.0
C989 C 0.09503 0.30368 0.96666 0.0
C990 C 0.12253 0.24226 0.03091 0.0
C991 C 0.11278 0.2185 0.02414 0.0
C992 C 0.11943 0.2576 0.01434 0.0
C993 C 0.1064 0.24966 0.99055 0.0
C994 C 0.09681 0.22586 0.98372 0.0
C995 C 0.09995 0.21052 1.00026 0.0
H996 H 0.13763 0.79574 0.30026 0.0
H997 H 0.1556 0.86613 0.28801 0.0
H998 H 0.17748 0.79499 0.30914 0.0
H999 H 0.19537 0.86568 0.29789 0.0
H1000 H 0.26649 0.85773 0.33746 0.0
H1001 H 0.22667 0.85938 0.33534 0.0
H1002 H 0.20872 0.79854 0.27839 0.0
H1003 H 0.24825 0.79751 0.27971 0.0
C1004 C 0.15001 0.81135 0.30035 0.0
C1005 C 0.14316 0.8311 0.29371 0.0
C1006 C 0.17294 0.81084 0.30519 0.0
C1007 C 0.18984 0.83028 0.30427 0.0
C1008 C 0.18299 0.85043 0.299 0.0
C1009 C 0.16009 0.85071 0.29341 0.0
C1010 C 0.25402 0.84461 0.32466 0.0
C1011 C 0.26075 0.82745 0.30882 0.0
C1012 C 0.23116 0.8456 0.32335 0.0
C1013 C 0.21428 0.829 0.30676 0.0
C1014 C 0.22106 0.8115 0.29154 0.0
C1015 C 0.24384 0.81096 0.29228 0.0
H1016 H 0.56725 0.93266 0.42061 0.0
H1017 H 0.62207 0.92132 0.47097 0.0
H1018 H 0.56589 0.96727 0.44985 0.0
H1019 H 0.62105 0.95614 0.49973 0.0
H1020 H 0.62407 0.03472 0.53003 0.0
H1021 H 0.62671 1.00169 0.49928 0.0
H1022 H 0.55664 0.97237 0.49657 0.0
H1023 H 0.55405 1.00492 0.52764 0.0
C1024 C 0.57919 0.93772 0.43771 0.0
C1025 C 0.59471 0.92421 0.44351 0.0
C1026 C 0.57834 0.95744 0.45448 0.0
C1027 C 0.59336 0.96435 0.47705 0.0
C1028 C 0.60935 0.95129 0.48243 0.0
C1029 C 0.60985 0.93131 0.466 0.0
C1030 C 0.60927 0.02118 0.52292 0.0
C1031 C 0.5889 0.02236 0.5314 0.0
C1032 C 0.61079 1.0023 0.50535 0.0
C1033 C 0.59184 0.98457 0.49545 0.0
C1034 C 0.57145 0.9859 0.50372 0.0
C1035 C 0.57005 1.00444 0.52168 0.0
H1036 H 0.50983 0.29007 0.81654 0.0
H1037 H 0.50659 0.33638 0.76336 0.0
H1038 H 0.47202 0.29216 0.82383 0.0
H1039 H 0.46895 0.33894 0.77098 0.0
H1040 H 0.40965 0.31512 0.84791 0.0
H1041 H 0.44774 0.31335 0.84135 0.0
H1042 H 0.43097 0.32023 0.76434 0.0
H1043 H 0.39311 0.32248 0.77115 0.0
C1044 C 0.5012 0.30095 0.80654 0.0
C1045 C 0.51164 0.31308 0.78935 0.0
C1046 C 0.47932 0.30224 0.81082 0.0
C1047 C 0.46685 0.31569 0.79804 0.0
C1048 C 0.47747 0.32803 0.78103 0.0
C1049 C 0.49936 0.32675 0.77678 0.0
C1050 C 0.414 0.31618 0.82952 0.0
C1051 C 0.39794 0.31893 0.81013 0.0
C1052 C 0.43603 0.31506 0.82566 0.0
C1053 C 0.443 0.31669 0.80223 0.0
C1054 C 0.4268 0.31929 0.78281 0.0
C1055 C 0.40479 0.32038 0.78668 0.0
H1056 H 1.02538 0.80305 0.58258 0.0
H1057 H 1.00792 0.84269 0.64645 0.0
H1058 H 0.04112 0.83877 0.56845 0.0
H1059 H 1.02387 0.87854 0.63231 0.0
H1060 H 0.08626 0.93075 0.61892 0.0
H1061 H 0.0652 0.8956 0.6298 0.0
H1062 H 1.03098 0.87489 0.5539 0.0
H1063 H 0.05145 0.91044 0.54305 0.0
C1064 C 1.02451 0.81942 0.59332 0.0
C1065 C 1.01558 0.82017 0.61569 0.0
C1066 C 1.03348 0.83982 0.58519 0.0
C1067 C 1.03393 0.86133 0.59948 0.0
C1068 C 1.02392 0.8621 0.62115 0.0
C1069 C 1.01463 0.84165 0.6291 0.0
C1070 C 0.07413 0.91882 0.60457 0.0
C1071 C 0.07051 0.92347 0.58013 0.0
C1072 C 0.06204 0.89875 0.61083 0.0
C1073 C 0.04628 0.88277 0.59275 0.0
C1074 C 0.04305 0.887 0.56816 0.0
C1075 C 0.05495 0.90723 0.56194 0.0
H1076 H 0.6042 0.901 0.89967 0.0
H1077 H 0.57798 0.86539 0.9565 0.0
H1078 H 0.56726 0.89103 0.87446 0.0
H1079 H 0.54067 0.85636 0.9319 0.0
H1080 H 0.47652 0.83412 0.8787 0.0
H1081 H 0.51539 0.836 0.89567 0.0
H1082 H 0.53409 0.90417 0.8766 0.0
H1083 H 0.49571 0.9016 0.85831 0.0
C1084 C 0.59048 0.89103 0.90675 0.0
C1085 C 0.59383 0.88422 0.93015 0.0
C1086 C 0.56929 0.88538 0.89236 0.0
C1087 C 0.55089 0.87319 0.90128 0.0
C1088 C 0.55448 0.86555 0.92429 0.0
C1089 C 0.57581 0.87087 0.93851 0.0
C1090 C 0.48907 0.8492 0.87751 0.0
C1091 C 0.48302 0.86783 0.86741 0.0
C1092 C 0.5113 0.85042 0.88755 0.0
C1093 C 0.52786 0.87033 0.88779 0.0
C1094 C 0.5219 0.88844 0.87656 0.0
C1095 C 0.49978 0.88713 0.86636 0.0
H1096 H 0.50132 0.2144 0.08877 0.0
H1097 H 0.48953 0.17747 0.14982 0.0
H1098 H 0.52187 0.18648 0.07249 0.0
H1099 H 0.50951 0.14912 0.13301 0.0
H1100 H 0.58072 0.13957 0.12953 0.0
H1101 H 0.5503 0.15857 0.1364 0.0
H1102 H 0.52829 0.14806 0.05683 0.0
H1103 H 0.55921 0.12879 0.04993 0.0
C1104 C 0.50218 0.19973 0.09811 0.0
C1105 C 0.49457 0.19871 0.12119 0.0
C1106 C 0.51403 0.18369 0.08872 0.0
C1107 C 0.51815 0.16623 0.1021 0.0
C1108 C 0.50728 0.16297 0.12282 0.0
C1109 C 0.49553 0.17907 0.13228 0.0
C1110 C 0.56962 0.14155 0.11343 0.0
C1111 C 0.57227 0.13266 0.08916 0.0
C1112 C 0.55186 0.15204 0.11739 0.0
C1113 C 0.53645 0.15423 0.09719 0.0
C1114 C 0.53975 0.14641 0.07278 0.0
C1115 C 0.5575 0.1356 0.06881 0.0
H1116 H 0.14009 0.34445 0.3828 0.0
H1117 H 0.20889 0.37246 0.41692 0.0
H1118 H 0.15231 0.33141 0.34371 0.0
H1119 H 0.2211 0.35926 0.37755 0.0
H1120 H 0.23076 0.30024 0.31816 0.0
H1121 H 0.21824 0.3176 0.35513 0.0
H1122 H 0.17321 0.34699 0.30906 0.0
H1123 H 0.18595 0.32956 0.2716 0.0
C1124 C 0.15784 0.348 0.3819 0.0
C1125 C 0.17358 0.35923 0.40304 0.0
C1126 C 0.16478 0.34068 0.35944 0.0
C1127 C 0.1876 0.34419 0.35772 0.0
C1128 C 0.20337 0.35615 0.37855 0.0
C1129 C 0.1964 0.36374 0.401 0.0
C1130 C 0.21776 0.3099 0.31577 0.0
C1131 C 0.2089 0.31306 0.29189 0.0
C1132 C 0.21095 0.32023 0.33701 0.0
C1133 C 0.19493 0.33377 0.33493 0.0
C1134 C 0.1856 0.33657 0.31109 0.0
C1135 C 0.19274 0.32652 0.28973 0.0
H1136 H 1.00962 0.08815 0.26668 0.0
H1137 H 0.95722 0.10658 0.21921 0.0
H1138 H 1.03213 0.08823 0.23338 0.0
H1139 H 0.97981 0.10633 0.18538 0.0
H1140 H 1.03376 0.12014 0.13321 0.0
H1141 H 1.01172 0.12326 0.16746 0.0
H1142 H 0.03664 0.06777 0.19547 0.0
H1143 H 0.05864 0.06501 0.16174 0.0
C1144 C 1.00275 0.09225 0.24913 0.0
C1145 C 0.98126 0.09731 0.24609 0.0
C1146 C 1.01578 0.09212 0.22967 0.0
C1147 C 1.00808 0.09706 0.20605 0.0
C1148 C 0.98672 0.10257 0.20309 0.0
C1149 C 0.97358 0.10262 0.22263 0.0
C1150 C 0.03481 0.10884 0.1469 0.0
C1151 C 0.04839 0.09245 0.14454 0.0
C1152 C 1.02187 0.11043 0.16656 0.0
C1153 C 1.02209 0.09583 0.18481 0.0
C1154 C 0.03598 0.07972 0.18244 0.0
C1155 C 0.04871 0.07805 0.16282 0.0
H1156 H 0.33465 0.79055 0.51708 0.0
H1157 H 0.39098 0.76858 0.48959 0.0
H1158 H 0.32442 0.80306 0.47776 0.0
H1159 H 0.38098 0.78164 0.45025 0.0
H1160 H 0.34172 0.78225 0.37408 0.0
H1161 H 0.35169 0.77029 0.4139 0.0
H1162 H 0.33622 0.83185 0.45256 0.0
H1163 H 0.32584 0.84362 0.4127 0.0
C1164 C 0.34504 0.78865 0.50274 0.0
C1165 C 0.36363 0.77851 0.50646 0.0
C1166 C 0.3392 0.79592 0.48019 0.0
C1167 C 0.35179 0.79326 0.46078 0.0
C1168 C 0.3707 0.7836 0.46469 0.0
C1169 C 0.37657 0.77631 0.4873 0.0
C1170 C 0.34026 0.79315 0.39106 0.0
C1171 C 0.33299 0.81391 0.39021 0.0
C1172 C 0.34619 0.78639 0.41391 0.0
C1173 C 0.345 0.80022 0.43645 0.0
C1174 C 0.33719 0.8207 0.43555 0.0
C1175 C 0.33123 0.82745 0.41269 0.0
H1176 H 0.61672 0.04497 0.77284 0.0
H1177 H 0.65018 0.99902 0.73127 0.0
H1178 H 0.60184 0.05611 0.73423 0.0
H1179 H 0.63512 1.01027 0.69253 0.0
H1180 H 0.59307 0.02996 0.62522 0.0
H1181 H 0.59987 1.0121 0.66243 0.0
H1182 H 0.62363 0.08002 0.70731 0.0
H1183 H 0.61716 0.09766 0.67042 0.0
C1184 C 0.62052 0.03681 0.75545 0.0
C1185 C 0.63496 0.02132 0.7553 0.0
C1186 C 0.61204 0.04331 0.73331 0.0
C1187 C 0.61762 0.03438 0.7104 0.0
C1188 C 0.63052 1.01745 0.7099 0.0
C1189 C 0.63916 1.01102 0.73214 0.0
C1190 C 0.59957 0.04098 0.64312 0.0
C1191 C 0.60466 0.06519 0.64497 0.0
C1192 C 0.60352 0.03078 0.66434 0.0
C1193 C 0.61216 0.04465 0.68782 0.0
C1194 C 0.61668 0.06884 0.6896 0.0
C1195 C 0.61311 0.07896 0.66843 0.0
H1196 H 0.32872 0.49401 0.06195 0.0
H1197 H 0.30723 0.43801 0.10108 0.0
H1198 H 0.31698 0.46744 0.02215 0.0
H1199 H 0.29435 0.41163 0.06147 0.0
H1200 H 0.32463 0.37194 1.00061 0.0
H1201 H 0.31958 0.39711 0.03689 0.0
H1202 H 0.29075 0.43916 0.98957 0.0
H1203 H 0.2957 0.41349 0.95274 0.0
C1204 C 0.32043 0.47626 0.06186 0.0
C1205 C 0.31901 0.46783 0.08431 0.0
C1206 C 0.31367 0.46102 0.03912 0.0
C1207 C 0.30525 0.43729 0.03873 0.0
C1208 C 0.30132 0.42967 0.06122 0.0
C1209 C 0.3085 0.44475 0.08385 0.0
C1210 C 0.31655 0.38607 0.99777 0.0
C1211 C 0.31064 0.3907 0.97373 0.0
C1212 C 0.31359 0.40057 0.01867 0.0
C1213 C 0.30465 0.42014 0.01616 0.0
C1214 C 0.29782 0.4243 0.9921 0.0
C1215 C 0.30073 0.40966 0.97105 0.0
H1216 H 0.98088 0.11275 0.40483 0.0
H1217 H 1.01735 0.06467 0.3726 0.0
H1218 H 0.99912 0.11094 0.44653 0.0
H1219 H 0.03617 0.06346 0.41394 0.0
H1220 H 0.04901 0.04515 0.491 0.0
H1221 H 1.03096 0.04858 0.45016 0.0
H1222 H 1.03156 0.12018 0.477 0.0
H1223 H 0.04902 0.11641 0.51834 0.0
C1224 C 0.99304 0.10205 0.40657 0.0
C1225 C 0.99751 0.0888 0.38519 0.0
C1226 C 1.00362 0.10104 0.43061 0.0
C1227 C 1.01913 0.08684 0.43403 0.0
C1228 C 1.024 0.07417 0.41246 0.0
C1229 C 1.01331 0.07503 0.38854 0.0
C1230 C 0.04531 0.06168 0.48831 0.0
C1231 C 0.05062 0.08049 0.50821 0.0
C1232 C 0.03504 0.06373 0.46463 0.0
C1233 C 1.02982 0.08476 0.45978 0.0
C1234 C 0.03499 0.10359 0.47979 0.0
C1235 C 0.04516 0.10147 0.50361 0.0
H1236 H 0.40176 0.75894 0.66699 0.0
H1237 H 0.3787 0.80881 0.62636 0.0
H1238 H 0.39196 0.77797 0.7049 0.0
H1239 H 0.36962 0.82843 0.66454 0.0
H1240 H 0.37857 0.81919 0.77349 0.0
H1241 H 0.39691 0.8097 0.73766 0.0
H1242 H 0.34072 0.8202 0.68851 0.0
H1243 H 0.32292 0.83044 0.72437 0.0
C1244 C 0.39525 0.77441 0.66628 0.0
C1245 C 0.39077 0.78213 0.6435 0.0
C1246 C 0.38964 0.78542 0.68813 0.0
C1247 C 0.37961 0.8046 0.68782 0.0
C1248 C 0.37676 0.81338 0.66541 0.0
C1249 C 0.38218 0.80223 0.64352 0.0
C1250 C 0.37038 0.81989 0.75503 0.0
C1251 C 0.34922 0.82537 0.75171 0.0
C1252 C 0.38081 0.81428 0.73445 0.0
C1253 C 0.37025 0.81387 0.71004 0.0
C1254 C 0.34957 0.82055 0.70695 0.0
C1255 C 0.33924 0.82632 0.72754 0.0
H1256 H 0.64681 1.0112 0.90499 0.0
H1257 H 0.62712 0.07288 0.88635 0.0
H1258 H 0.63166 1.01655 0.94403 0.0
H1259 H 0.61243 0.07841 0.92532 0.0
H1260 H 0.57025 0.07112 0.98684 0.0
H1261 H 0.58268 0.06232 0.94681 0.0
H1262 H 0.64047 0.04311 0.9839 0.0
H1263 H 0.62787 0.05145 0.02387 0.0
C1264 C 0.63917 0.02581 0.90915 0.0
C1265 C 0.63821 0.04161 0.89256 0.0
C1266 C 0.63062 0.02897 0.93158 0.0
C1267 C 0.62085 0.04794 0.93784 0.0
C1268 C 0.61955 0.06345 0.92098 0.0
C1269 C 0.62812 0.06034 0.89866 0.0
C1270 C 0.5856 0.06501 0.98649 0.0
C1271 C 0.59814 0.06221 0.00863 0.0
C1272 C 0.59277 0.06002 0.96352 0.0
C1273 C 0.61263 0.05208 0.96213 0.0
C1274 C 0.62498 0.04895 0.98424 0.0
C1275 C 0.61784 0.05397 1.00721 0.0
H1276 H 0.33183 0.44693 0.18417 0.0
H1277 H 0.3724 0.4951 0.24722 0.0
H1278 H 0.33034 0.41592 0.20829 0.0
H1279 H 0.37039 0.46374 0.2718 0.0
H1280 H 0.38135 0.39559 0.29721 0.0
H1281 H 0.38414 0.42702 0.27269 0.0
H1282 H 0.31366 0.40419 0.2434 0.0
H1283 H 0.31101 0.37284 0.26735 0.0
C1284 C 0.34024 0.45099 0.20333 0.0
C1285 C 0.35225 0.47353 0.2138 0.0
C1286 C 0.33932 0.43316 0.21717 0.0
C1287 C 0.35029 0.43738 0.24189 0.0
C1288 C 0.36201 0.45997 0.25264 0.0
C1289 C 0.36292 0.47795 0.23871 0.0
C1290 C 0.3666 0.39716 0.28519 0.0
C1291 C 0.34598 0.38182 0.28408 0.0
C1292 C 0.36812 0.41527 0.27145 0.0
C1293 C 0.34908 0.41814 0.2563 0.0
C1294 C 0.32866 0.40232 0.25473 0.0
C1295 C 0.32715 0.38435 0.26844 0.0
H1296 H 0.22776 1.0116 0.13593 0.0
H1297 H 0.184 0.96493 0.07409 0.0
H1298 H 0.20004 0.03553 0.13882 0.0
H1299 H 0.15639 0.98886 0.07693 0.0
H1300 H 0.10256 0.02245 0.10149 0.0
H1301 H 0.13089 0.99966 0.10518 0.0
H1302 H 0.18263 0.06173 0.11426 0.0
H1303 H 0.15391 0.0848 0.11062 0.0
C1304 C 0.21217 1.00634 0.12305 0.0
C1305 C 0.20807 0.98625 0.10482 0.0
C1306 C 0.19636 1.02018 0.12462 0.0
C1307 C 0.17596 1.01412 0.10818 0.0
C1308 C 0.1718 0.99389 0.09013 0.0
C1309 C 0.18767 0.98018 0.08842 0.0
C1310 C 0.11999 0.03137 0.10466 0.0
C1311 C 0.12599 0.05544 0.10551 0.0
C1312 C 0.13624 1.01823 0.1066 0.0
C1313 C 0.15903 0.02876 0.10946 0.0
C1314 C 0.16519 0.05308 0.11204 0.0
C1315 C 0.14878 0.06633 0.11008 0.0
H1316 H 0.7402 0.58925 0.01048 0.0
H1317 H 0.73808 0.66116 0.01101 0.0
H1318 H 0.70467 0.5829 0.0263 0.0
H1319 H 0.70264 0.65468 0.02682 0.0
H1320 H 0.66113 0.64048 0.09012 0.0
H1321 H 0.69396 0.6458 0.06904 0.0
H1322 H 0.6637 0.58377 0.01566 0.0
H1323 H 0.63091 0.57846 0.0367 0.0
C1324 C 0.73197 0.60358 0.01348 0.0
C1325 C 0.74209 0.62576 0.00974 0.0
C1326 C 0.71164 0.59992 0.02252 0.0
C1327 C 0.70118 0.61841 0.02815 0.0
C1328 C 0.71061 0.64025 0.02304 0.0
C1329 C 0.73081 0.64387 0.01379 0.0
C1330 C 0.66156 0.628 0.07392 0.0
C1331 C 0.64357 0.60912 0.06496 0.0
C1332 C 0.68021 0.63113 0.06176 0.0
C1333 C 0.68121 0.61527 0.04062 0.0
C1334 C 0.66333 0.5962 0.03192 0.0
C1335 C 0.64461 0.59321 0.04393 0.0
H1336 H 0.7484 0.49459 0.35298 0.0
H1337 H 0.7924 0.51863 0.30265 0.0
H1338 H 0.76167 0.45842 0.35018 0.0
H1339 H 0.80591 0.4826 0.30005 0.0
H1340 H 0.84088 0.4227 0.31843 0.0
H1341 H 0.82789 0.45905 0.32114 0.0
H1342 H 0.76126 0.42182 0.32394 0.0
H1343 H 0.77423 0.38552 0.32093 0.0
C1344 C 0.76101 0.49235 0.34136 0.0
C1345 C 0.76917 0.51008 0.32814 0.0
C1346 C 0.76862 0.47128 0.33959 0.0
C1347 C 0.78508 0.46693 0.32481 0.0
C1348 C 0.79346 0.48486 0.31186 0.0
C1349 C 0.78556 0.50576 0.3133 0.0
C1350 C 0.82341 0.42211 0.31951 0.0
C1351 C 0.80879 0.40063 0.31932 0.0
C1352 C 0.81583 0.4432 0.32099 0.0
C1353 C 0.7933 0.44402 0.32286 0.0
C1354 C 0.77874 0.42249 0.32282 0.0
C1355 C 0.78623 0.40137 0.3209 0.0
H1356 H 0.81551 0.50969 0.59976 0.0
H1357 H 0.81762 0.46729 0.5298 0.0
H1358 H 0.85129 0.53451 0.5968 0.0
H1359 H 0.8532 0.49182 0.52697 0.0
H1360 H 0.91625 0.53835 0.5233 0.0
H1361 H 0.87601 0.52981 0.52392 0.0
H1362 H 0.88827 0.52384 0.6018 0.0
H1363 H 0.92827 0.53216 0.60116 0.0
C1364 C 0.82328 0.50605 0.58344 0.0
C1365 C 0.81402 0.4863 0.56525 0.0
C1366 C 0.84378 0.5202 0.5818 0.0
C1367 C 0.85515 0.51496 0.56181 0.0
C1368 C 0.84481 0.49645 0.54252 0.0
C1369 C 0.82449 0.48223 0.54427 0.0
C1370 C 0.91032 0.53559 0.54064 0.0
C1371 C 0.92539 0.53546 0.56205 0.0
C1372 C 0.88732 0.53083 0.54101 0.0
C1373 C 0.879 0.52591 0.56282 0.0
C1374 C 0.89415 0.5278 0.58477 0.0
C1375 C 0.91712 0.5325 0.58438 0.0
H1376 H 0.4231 0.19881 0.26596 0.0
H1377 H 0.45976 0.23282 0.33831 0.0
H1378 H 0.40017 0.22753 0.2667 0.0
H1379 H 0.43735 0.26203 0.33877 0.0
H1380 H 0.37597 0.29109 0.34693 0.0
H1381 H 0.4014 0.26544 0.34409 0.0
H1382 H 0.39715 0.26612 0.26488 0.0
H1383 H 0.37062 0.29163 0.26772 0.0
C1384 C 0.42648 0.21262 0.28191 0.0
C1385 C 0.44313 0.21338 0.30221 0.0
C1386 C 0.41336 0.2292 0.28227 0.0
C1387 C 0.4166 0.24701 0.30293 0.0
C1388 C 0.43386 0.2482 0.32284 0.0
C1389 C 0.44695 0.23161 0.32247 0.0
C1390 C 0.38056 0.28605 0.32886 0.0
C1391 C 0.37129 0.29352 0.30753 0.0
C1392 C 0.39534 0.27132 0.32726 0.0
C1393 C 0.40152 0.26365 0.30429 0.0
C1394 C 0.39248 0.27134 0.28286 0.0
C1395 C 0.37738 0.28604 0.28445 0.0
H1396 H 0.33884 0.07812 0.53329 0.0
H1397 H 0.35617 0.09327 0.46254 0.0
H1398 H 0.36672 0.05511 0.53649 0.0
H1399 H 0.38412 0.06941 0.46542 0.0
H1400 H 0.45375 0.06477 0.50922 0.0
H1401 H 0.41997 0.07541 0.4915 0.0
H1402 H 0.38007 0.02173 0.5223 0.0
H1403 H 0.41415 1.01164 0.54081 0.0
C1404 C 0.34836 0.07616 0.51813 0.0
C1405 C 0.34559 0.08784 0.49787 0.0
C1406 C 0.36421 0.06264 0.5198 0.0
C1407 C 0.37773 0.06037 0.50122 0.0
C1408 C 0.3741 0.07099 0.48016 0.0
C1409 C 0.35809 0.08458 0.47846 0.0
C1410 C 0.43773 0.05471 0.51149 0.0
C1411 C 0.43653 0.03762 0.52671 0.0
C1412 C 0.4183 0.06078 0.50124 0.0
C1413 C 0.39731 0.04974 0.50589 0.0
C1414 C 0.39604 0.03096 0.5189 0.0
C1415 C 0.4155 0.0251 0.52943 0.0
H1416 H 0.79061 0.63839 0.32884 0.0
H1417 H 0.73852 0.6622 0.36353 0.0
H1418 H 0.80602 0.67825 0.32316 0.0
H1419 H 0.75363 0.70144 0.35773 0.0
H1420 H 0.76791 0.76347 0.31695 0.0
H1421 H 0.75599 0.72423 0.32488 0.0
H1422 H 0.82486 0.71989 0.34242 0.0
H1423 H 0.83688 0.75982 0.33459 0.0
C1424 C 0.78251 0.652 0.33558 0.0
C1425 C 0.76311 0.64645 0.34677 0.0
C1426 C 0.79142 0.67508 0.33229 0.0
C1427 C 0.78112 0.6936 0.33964 0.0
C1428 C 0.76208 0.68803 0.3513 0.0
C1429 C 0.7534 0.66519 0.35485 0.0
C1430 C 0.78068 0.75435 0.32262 0.0
C1431 C 0.80348 0.76533 0.32515 0.0
C1432 C 0.77375 0.73159 0.32734 0.0
C1433 C 0.78925 0.7183 0.33454 0.0
C1434 C 0.8122 0.72916 0.33685 0.0
C1435 C 0.81918 0.75228 0.3325 0.0
H1436 H 0.90784 0.59862 0.80222 0.0
H1437 H 0.9465 0.59365 0.87183 0.0
H1438 H 0.87991 0.5645 0.8061 0.0
H1439 H 0.9186 0.55993 0.87577 0.0
H1440 H 0.85783 0.50851 0.88449 0.0
H1441 H 0.87724 0.54721 0.88047 0.0
H1442 H 0.88371 0.52191 0.80464 0.0
H1443 H 0.86511 0.48311 0.80877 0.0
C1444 C 0.91016 0.59051 0.81853 0.0
C1445 C 0.92942 0.59863 0.83662 0.0
C1446 C 0.89424 0.57101 0.82069 0.0
C1447 C 0.89713 0.55967 0.84124 0.0
C1448 C 0.91584 0.5685 0.85988 0.0
C1449 C 0.9319 0.58768 0.85751 0.0
C1450 C 0.86326 0.5112 0.86689 0.0
C1451 C 0.86021 0.49258 0.84709 0.0
C1452 C 0.87422 0.53338 0.86458 0.0
C1453 C 0.88206 0.53745 0.84231 0.0
C1454 C 0.87763 0.51927 0.82193 0.0
C1455 C 0.86691 0.49702 0.82433 0.0
H1456 H 0.0409 0.87887 0.21202 0.0
H1457 H 0.10211 0.87964 0.18147 0.0
H1458 H 1.03054 0.90489 0.18418 0.0
H1459 H 0.09218 0.90604 0.15433 0.0
H1460 H 0.0587 0.93334 0.09032 0.0
H1461 H 0.06704 0.90669 0.11808 0.0
H1462 H 0.03943 0.94368 0.17575 0.0
H1463 H 1.03077 0.97009 0.14774 0.0
C1464 C 0.05225 0.88477 0.19956 0.0
C1465 C 0.07229 0.87709 0.19893 0.0
C1466 C 0.04635 0.89976 0.18363 0.0
C1467 C 0.06041 0.90748 0.16676 0.0
C1468 C 0.08066 0.9001 0.16659 0.0
C1469 C 0.08647 0.88507 0.18237 0.0
C1470 C 0.05441 0.93578 0.10892 0.0
C1471 C 0.04412 0.9539 0.11679 0.0
C1472 C 0.05926 0.92054 0.12492 0.0
C1473 C 0.05413 0.92309 0.14934 0.0
C1474 C 0.04341 0.94096 0.15703 0.0
C1475 C 0.03844 0.95614 0.14095 0.0
H1476 H 1.02006 0.34325 0.82235 0.0
H1477 H 1.00454 0.33575 0.89566 0.0
H1478 H 0.98028 0.34216 0.80782 0.0
H1479 H 0.96539 0.33436 0.8813 0.0
H1480 H 0.89224 0.31272 0.84474 0.0
H1481 H 0.93148 0.31052 0.85454 0.0
H1482 H 0.95088 0.36603 0.81398 0.0
H1483 H 0.91155 0.36836 0.80442 0.0
C1484 C 1.00825 0.34107 0.8353 0.0
C1485 C 1.01583 0.3396 0.86028 0.0
C1486 C 0.98537 0.34061 0.82703 0.0
C1487 C 0.96925 0.3381 0.84329 0.0
C1488 C 0.97692 0.33605 0.86799 0.0
C1489 C 0.99963 0.33698 0.8763 0.0
C1490 C 0.90479 0.32434 0.83767 0.0
C1491 C 0.89847 0.34077 0.82379 0.0
C1492 C 0.92746 0.32318 0.84343 0.0
C1493 C 0.94474 0.33817 0.83523 0.0
C1494 C 0.93829 0.35404 0.82056 0.0
C1495 C 0.91562 0.35545 0.81513 0.0
H1496 H 0.56186 0.26223 0.67043 0.0
H1497 H 0.56355 0.22779 0.73455 0.0
H1498 H 0.56197 0.22626 0.64365 0.0
H1499 H 0.56429 0.19176 0.70772 0.0
H1500 H 0.54974 0.12589 0.64825 0.0
H1501 H 0.54478 0.16047 0.67462 0.0
H1502 H 0.58849 0.20331 0.6357 0.0
H1503 H 0.59295 0.16897 0.60911 0.0
C1504 C 0.56212 0.24693 0.67883 0.0
C1505 C 0.56286 0.24801 0.70473 0.0
C1506 C 0.56237 0.22629 0.66345 0.0
C1507 C 0.56355 0.2061 0.6735 0.0
C1508 C 0.56328 0.20689 0.69926 0.0
C1509 C 0.56288 0.22759 0.71469 0.0
C1510 C 0.55821 0.14272 0.64529 0.0
C1511 C 0.57169 0.14463 0.62648 0.0
C1512 C 0.55546 0.16256 0.6605 0.0
C1513 C 0.56611 0.18478 0.65727 0.0
C1514 C 0.57963 0.18657 0.63847 0.0
C1515 C 0.58233 0.16681 0.62328 0.0
H1516 H 0.67091 0.86987 0.40187 0.0
H1517 H 0.63905 0.84667 0.32541 0.0
H1518 H 0.7068 0.86757 0.39011 0.0
H1519 H 0.6757 0.8435 0.31339 0.0
H1520 H 0.75043 0.85619 0.2985 0.0
H1521 H 0.71315 0.86009 0.30718 0.0
H1522 H 0.72878 0.84216 0.37992 0.0
H1523 H 0.76582 0.83916 0.37157 0.0
C1524 C 0.67145 0.86405 0.38237 0.0
C1525 C 0.65162 0.85821 0.36476 0.0
C1526 C 0.69235 0.86252 0.37558 0.0
C1527 C 0.69466 0.85472 0.35076 0.0
C1528 C 0.67494 0.84956 0.33275 0.0
C1529 C 0.65377 0.85136 0.33962 0.0
C1530 C 0.74594 0.85324 0.31643 0.0
C1531 C 0.76155 0.84759 0.33438 0.0
C1532 C 0.72434 0.85531 0.32138 0.0
C1533 C 0.7175 0.85178 0.34448 0.0
C1534 C 0.73314 0.84574 0.36214 0.0
C1535 C 0.75463 0.84383 0.35727 0.0
H1536 H 0.16434 0.33602 0.55334 0.0
H1537 H 0.12602 0.30474 0.4809 0.0
H1538 H 0.15119 0.30065 0.56938 0.0
H1539 H 0.11211 0.26988 0.49712 0.0
H1540 H 0.1044 0.20319 0.52786 0.0
H1541 H 0.12071 0.23719 0.51158 0.0
H1542 H 0.11797 0.28044 0.58081 0.0
H1543 H 0.10319 0.24615 0.5978 0.0
C1544 C 0.15325 0.32153 0.5408 0.0
C1545 C 0.14623 0.32319 0.51586 0.0
C1546 C 0.14549 0.30134 0.55006 0.0
C1547 C 0.13034 0.28248 0.53466 0.0
C1548 C 0.12395 0.28391 0.50948 0.0
C1549 C 0.13193 0.30397 0.50016 0.0
C1550 C 0.10753 0.21991 0.53976 0.0
C1551 C 0.10266 0.22187 0.56426 0.0
C1552 C 0.11664 0.23949 0.53028 0.0
C1553 C 0.12079 0.26161 0.54489 0.0
C1554 C 0.11542 0.26365 0.56919 0.0
C1555 C 0.10655 0.244 0.5788 0.0
H1556 H 0.55861 0.26753 0.24579 0.0
H1557 H 0.58456 0.27108 0.17644 0.0
H1558 H 0.59661 0.27069 0.26764 0.0
H1559 H 0.62217 0.27359 0.1982 0.0
H1560 H 0.67615 0.24396 0.24246 0.0
H1561 H 0.63669 0.24023 0.2265 0.0
H1562 H 0.6381 0.30667 0.26978 0.0
H1563 H 0.67798 0.31111 0.28505 0.0
C1564 C 0.5724 0.26899 0.23528 0.0
C1565 C 0.56873 0.2691 0.20947 0.0
C1566 C 0.594 0.27083 0.24776 0.0
C1567 C 0.612 0.27224 0.23442 0.0
C1568 C 0.60837 0.27241 0.20871 0.0
C1569 C 0.58694 0.27109 0.19636 0.0
C1570 C 0.66809 0.25778 0.24866 0.0
C1571 C 0.68029 0.27804 0.26462 0.0
C1572 C 0.64553 0.25552 0.23968 0.0
C1573 C 0.63469 0.27324 0.24691 0.0
C1574 C 0.6463 0.29279 0.26415 0.0
C1575 C 0.66903 0.29525 0.27289 0.0
H1576 H 0.66514 0.97688 0.01621 0.0
H1577 H 0.64577 0.92936 0.06604 0.0
H1578 H 0.64419 1.0032 0.03535 0.0
H1579 H 0.62449 0.95571 0.08501 0.0
H1580 H 0.59194 1.02 0.11272 0.0
H1581 H 0.62183 0.99886 0.1063 0.0
H1582 H 0.60072 0.98869 0.02668 0.0
H1583 H 0.57114 1.00914 0.03296 0.0
C1584 C 0.65721 0.97253 0.03198 0.0
C1585 C 0.65669 0.9509 0.03931 0.0
C1586 C 0.64512 0.98752 0.04283 0.0
C1587 C 0.63225 0.98107 0.0611 0.0
C1588 C 0.63421 0.96096 0.07085 0.0
C1589 C 0.64648 0.94595 0.06004 0.0
C1590 C 0.59357 1.0128 0.09394 0.0
C1591 C 0.57933 1.01621 0.07335 0.0
C1592 C 0.61067 1.00093 0.09029 0.0
C1593 C 0.61388 0.99276 0.06599 0.0
C1594 C 0.59897 0.99535 0.04559 0.0
C1595 C 0.58181 1.00678 0.04922 0.0
H1596 H 0.96268 0.80579 0.71103 0.0
H1597 H 0.96128 0.74942 0.75257 0.0
H1598 H 0.95399 0.82964 0.74682 0.0
H1599 H 0.95299 0.77326 0.78816 0.0
H1600 H 0.95944 0.82795 0.85639 0.0
H1601 H 0.96848 0.80497 0.82013 0.0
H1602 H 0.92581 0.83475 0.77142 0.0
H1603 H 0.91732 0.85798 0.80751 0.0
C1604 C 0.96015 0.79836 0.72763 0.0
C1605 C 0.96256 0.77566 0.72886 0.0
C1606 C 0.95516 0.81203 0.74819 0.0
C1607 C 0.95264 0.80336 0.7705 0.0
C1608 C 0.95473 0.78053 0.77143 0.0
C1609 C 0.9594 0.76679 0.75086 0.0
C1610 C 0.95226 0.82976 0.8379 0.0
C1611 C 0.93808 0.84516 0.83484 0.0
C1612 C 0.95726 0.81645 0.81709 0.0
C1613 C 0.94794 0.81802 0.79272 0.0
C1614 C 0.93376 0.83346 0.78977 0.0
C1615 C 0.92893 0.84687 0.81052 0.0
H1616 H 0.16175 0.12012 0.90883 0.0
H1617 H 0.17408 0.05373 0.9203 0.0
H1618 H 0.13909 0.12004 0.94198 0.0
H1619 H 0.15034 0.05284 0.95278 0.0
H1620 H 0.11907 0.06414 0.02491 0.0
H1621 H 0.14222 0.06304 0.99182 0.0
H1622 H 0.10714 0.1088 0.95673 0.0
H1623 H 0.08515 0.11069 0.99043 0.0
C1624 C 0.15948 0.1053 0.91828 0.0
C1625 C 0.16999 0.08696 0.91155 0.0
C1626 C 0.1461 0.10508 0.93742 0.0
C1627 C 0.14217 0.08629 0.95058 0.0
C1628 C 0.1528 0.06791 0.94378 0.0
C1629 C 0.16649 0.06831 0.92482 0.0
C1630 C 0.11615 0.07376 0.00996 0.0
C1631 C 0.09998 0.08742 0.01054 0.0
C1632 C 0.12954 0.07316 0.99071 0.0
C1633 C 0.1272 0.08604 0.97104 0.0
C1634 C 0.11039 0.09906 0.97144 0.0
C1635 C 0.09732 0.0999 0.9908 0.0
H1636 H 0.76302 0.42 0.66308 0.0
H1637 H 0.79773 0.37841 0.61771 0.0
H1638 H 0.7772 0.40537 0.69965 0.0
H1639 H 0.81243 0.36422 0.65454 0.0
H1640 H 0.81747 0.32818 0.72412 0.0
H1641 H 0.80349 0.34076 0.68582 0.0
H1642 H 0.81196 0.41003 0.7265 0.0
H1643 H 0.82531 0.39736 0.76472 0.0
C1644 C 0.7736 0.40765 0.66084 0.0
C1645 C 0.77928 0.4005 0.63739 0.0
C1646 C 0.78193 0.39941 0.68192 0.0
C1647 C 0.79631 0.38389 0.6802 0.0
C1648 C 0.80135 0.37607 0.65659 0.0
C1649 C 0.79291 0.38425 0.63544 0.0
C1650 C 0.81664 0.34616 0.72479 0.0
C1651 C 0.8224 0.36171 0.74754 0.0
C1652 C 0.8086 0.35339 0.70282 0.0
C1653 C 0.80622 0.37634 0.70309 0.0
C1654 C 0.81298 0.39208 0.72567 0.0
C1655 C 0.82088 0.38485 0.74759 0.0
H1656 H 0.55224 0.11116 0.38589 0.0
H1657 H 0.52807 0.16764 0.42327 0.0
H1658 H 0.56421 0.10078 0.42594 0.0
H1659 H 0.53987 0.15695 0.46361 0.0
H1660 H 0.54437 0.06698 0.49232 0.0
H1661 H 0.54057 0.08298 0.45408 0.0
H1662 H 0.57142 0.15127 0.49521 0.0
H1663 H 0.57523 0.13502 0.53394 0.0
C1664 C 0.54983 0.12163 0.40271 0.0
C1665 C 0.53892 0.14003 0.40137 0.0
C1666 C 0.5566 0.1156 0.42567 0.0
C1667 C 0.55257 0.12773 0.44791 0.0
C1668 C 0.54322 0.14727 0.4468 0.0
C1669 C 0.53646 0.15338 0.42369 0.0
C1670 C 0.55047 0.0854 0.49325 0.0
C1671 C 0.56005 0.09976 0.5161 0.0
C1672 C 0.54845 0.09456 0.47128 0.0
C1673 C 0.55585 0.11839 0.47155 0.0
C1674 C 0.56553 0.13285 0.49443 0.0
C1675 C 0.56777 0.12357 0.51653 0.0
H1676 H 0.83091 0.65703 0.09402 0.0
H1677 H 0.86202 0.70954 0.05507 0.0
H1678 H 0.83878 0.68532 0.13241 0.0
H1679 H 0.87031 0.73766 0.09354 0.0
H1680 H 0.83408 0.78144 0.14524 0.0
H1681 H 0.84145 0.75401 0.11214 0.0
H1682 H 0.86432 0.71441 0.16622 0.0
H1683 H 0.85735 0.74237 0.19978 0.0
C1684 C 0.84023 0.67435 0.09389 0.0
C1685 C 0.84536 0.68125 0.07146 0.0
C1686 C 0.84478 0.69057 0.11591 0.0
C1687 C 0.85465 0.71383 0.11578 0.0
C1688 C 0.86218 0.71997 0.09401 0.0
C1689 C 0.85751 0.70385 0.07202 0.0
C1690 C 0.8413 0.76732 0.15027 0.0
C1691 C 0.84503 0.7641 0.1752 0.0
C1692 C 0.84557 0.75155 0.13123 0.0
C1693 C 0.85357 0.73208 0.13659 0.0
C1694 C 0.85805 0.7292 0.16156 0.0
C1695 C 0.85392 0.74513 0.18071 0.0
H1696 H 0.20103 0.04807 0.75221 0.0
H1697 H 0.15202 0.07456 0.79047 0.0
H1698 H 0.17922 0.0486 0.71228 0.0
H1699 H 0.1297 0.07433 0.75041 0.0
H1700 H 0.10783 0.09661 0.67589 0.0
H1701 H 0.12778 0.0937 0.71618 0.0
H1702 H 0.1477 0.0329 0.68213 0.0
H1703 H 0.1284 0.03636 0.64173 0.0
C1704 C 0.18536 0.05361 0.75219 0.0
C1705 C 0.17845 0.06129 0.77486 0.0
C1706 C 0.1727 0.05384 0.72908 0.0
C1707 C 0.15253 0.06164 0.7277 0.0
C1708 C 0.14527 0.06863 0.75041 0.0
C1709 C 0.15803 0.06853 0.77356 0.0
C1710 C 0.11641 0.08256 0.67696 0.0
C1711 C 0.11649 0.06681 0.65531 0.0
C1712 C 0.12781 0.08077 0.70026 0.0
C1713 C 0.13959 0.06305 0.70282 0.0
C1714 C 0.13931 0.04708 0.68115 0.0
C1715 C 0.12804 0.04897 0.65783 0.0
H1716 H 0.8144 0.37387 0.51507 0.0
H1717 H 0.74777 0.37402 0.48018 0.0
H1718 H 0.82237 0.35615 0.4757 0.0
H1719 H 0.75552 0.35536 0.44048 0.0
H1720 H 0.79123 0.35525 0.37002 0.0
H1721 H 0.77683 0.36506 0.40862 0.0
H1722 H 0.81635 0.32333 0.44467 0.0
H1723 H 0.83143 0.31442 0.4063 0.0
C1724 C 0.80123 0.36969 0.49906 0.0
C1725 C 0.78046 0.37552 0.50084 0.0
C1726 C 0.80577 0.35929 0.47637 0.0
C1727 C 0.78964 0.35423 0.45469 0.0
C1728 C 0.76849 0.35925 0.45665 0.0
C1729 C 0.76396 0.36978 0.47947 0.0
C1730 C 0.79653 0.34785 0.38608 0.0
C1731 C 0.81271 0.33432 0.38523 0.0
C1732 C 0.78819 0.3534 0.40827 0.0
C1733 C 0.79566 0.34536 0.43006 0.0
C1734 C 0.81063 0.33041 0.42854 0.0
C1735 C 0.81916 0.3251 0.40647 0.0
H1736 H 0.54196 0.12031 0.28241 0.0
H1737 H 0.50821 0.1632 0.24094 0.0
H1738 H 0.5554 0.10526 0.24495 0.0
H1739 H 0.52236 0.14881 0.20368 0.0
H1740 H 0.52359 0.09612 0.13626 0.0
H1741 H 0.51399 0.1136 0.17492 0.0
H1742 H 0.57874 0.11175 0.21394 0.0
H1743 H 0.58815 0.09351 0.17515 0.0
C1744 C 0.53786 0.12697 0.26545 0.0
C1745 C 0.52378 0.14277 0.26462 0.0
C1746 C 0.54562 0.11834 0.24393 0.0
C1747 C 0.53965 0.12548 0.22112 0.0
C1748 C 0.52676 0.14242 0.22073 0.0
C1749 C 0.51882 0.15085 0.24217 0.0
C1750 C 0.53575 0.0992 0.1531 0.0
C1751 C 0.55661 0.09323 0.15259 0.0
C1752 C 0.53034 0.10955 0.17528 0.0
C1753 C 0.54567 0.11439 0.19758 0.0
C1754 C 0.56644 0.10812 0.19718 0.0
C1755 C 0.57183 0.09762 0.17493 0.0
H1756 H 0.78891 0.73002 0.97589 0.0
H1757 H 0.82748 0.69508 0.92886 0.0
H1758 H 0.79052 0.7602 0.95027 0.0
H1759 H 0.82907 0.7255 0.90312 0.0
H1760 H 0.84776 0.79776 0.8817 0.0
H1761 H 0.84654 0.76868 0.9089 0.0
H1762 H 0.7755 0.76337 0.9062 0.0
H1763 H 0.77669 0.79244 0.87891 0.0
C1764 C 0.79771 0.72876 0.96004 0.0
C1765 C 0.8081 0.71018 0.95436 0.0
C1766 C 0.79854 0.74601 0.94534 0.0
C1767 C 0.80996 0.74519 0.9248 0.0
C1768 C 0.82034 0.72662 0.91904 0.0
C1769 C 0.8193 0.70917 0.93363 0.0
C1770 C 0.83194 0.79057 0.88716 0.0
C1771 C 0.81226 0.7972 0.87813 0.0
C1772 C 0.83122 0.7738 0.90251 0.0
C1773 C 0.81089 0.76362 0.90937 0.0
C1774 C 0.79139 0.77098 0.90118 0.0
C1775 C 0.79206 0.78757 0.8856 0.0
H1776 H 0.94945 0.20826 0.04379 0.0
H1777 H 0.93676 0.17109 0.10443 0.0
H1778 H 0.97538 0.18389 0.03191 0.0
H1779 H 0.96223 0.14678 0.09239 0.0
H1780 H 0.04247 0.1563 0.05148 0.0
H1781 H 1.01323 0.17836 0.05303 0.0
H1782 H 0.96517 0.11612 0.05597 0.0
H1783 H 0.99449 0.09393 0.05416 0.0
C1784 C 0.95218 0.19494 0.05456 0.0
C1785 C 0.94118 0.19174 0.07517 0.0
C1786 C 0.96694 0.18096 0.04771 0.0
C1787 C 0.97057 0.16323 0.06102 0.0
C1788 C 0.95945 0.16 0.08149 0.0
C1789 C 0.94506 0.17416 0.08857 0.0
C1790 C 1.02549 0.1472 0.05165 0.0
C1791 C 1.02073 0.12342 0.05277 0.0
C1792 C 1.00876 0.15984 0.05251 0.0
C1793 C 0.987 0.14902 0.05494 0.0
C1794 C 0.98188 0.12492 0.05433 0.0
C1795 C 0.99858 0.11218 0.05304 0.0
H1796 H 0.42028 0.50167 0.12298 0.0
H1797 H 0.43555 0.5713 0.16464 0.0
H1798 H 0.456 0.5089 0.10842 0.0
H1799 H 0.47136 0.57889 0.1492 0.0
H1800 H 0.54303 0.57389 0.13529 0.0
H1801 H 0.50766 0.5689 0.15169 0.0
H1802 H 0.47334 0.5302 0.08001 0.0
H1803 H 0.50871 0.53442 0.06413 0.0
C1804 C 0.43123 0.51864 0.12889 0.0
C1805 C 0.42503 0.536 0.1448 0.0
C1806 C 0.45169 0.52283 0.12039 0.0
C1807 C 0.46639 0.54459 0.12731 0.0
C1808 C 0.46042 0.5619 0.14363 0.0
C1809 C 0.43992 0.5576 0.15239 0.0
C1810 C 0.52786 0.56435 0.12313 0.0
C1811 C 0.52852 0.55425 0.0986 0.0
C1812 C 0.50762 0.56163 0.13244 0.0
C1813 C 0.48773 0.54893 0.11724 0.0
C1814 C 0.48843 0.53958 0.09241 0.0
C1815 C 0.50864 0.54208 0.08324 0.0
H1816 H 0.36885 0.64255 0.7683 0.0
H1817 H 0.41958 0.66959 0.83274 0.0
H1818 H 0.35542 0.67852 0.77377 0.0
H1819 H 0.40615 0.70559 0.83837 0.0
H1820 H 0.32283 0.73914 0.80095 0.0
H1821 H 0.33603 0.70303 0.79617 0.0
H1822 H 0.40335 0.74121 0.82484 0.0
H1823 H 0.39005 0.77729 0.82969 0.0
C1824 C 0.37719 0.65608 0.78378 0.0
C1825 C 0.39547 0.65261 0.80002 0.0
C1826 C 0.36933 0.67696 0.78706 0.0
C1827 C 0.37944 0.69568 0.80663 0.0
C1828 C 0.39778 0.69216 0.82284 0.0
C1829 C 0.40551 0.67117 0.81969 0.0
C1830 C 0.34047 0.73998 0.80637 0.0
C1831 C 0.35515 0.76168 0.81586 0.0
C1832 C 0.3482 0.719 0.80342 0.0
C1833 C 0.37103 0.71849 0.80999 0.0
C1834 C 0.38565 0.74024 0.81971 0.0
C1835 C 0.37795 0.76124 0.82244 0.0
H1836 H 0.30862 0.70066 0.54321 0.0
H1837 H 0.34371 0.66309 0.59075 0.0
H1838 H 0.2733 0.67589 0.54648 0.0
H1839 H 0.30821 0.63797 0.59363 0.0
H1840 H 0.24191 0.6363 0.62821 0.0
H1841 H 0.27866 0.64777 0.61639 0.0
H1842 H 0.24834 0.63765 0.53908 0.0
H1843 H 0.21147 0.62699 0.55105 0.0
C1844 C 0.30886 0.68675 0.55386 0.0
C1845 C 0.32891 0.68418 0.56718 0.0
C1846 C 0.28859 0.67239 0.55555 0.0
C1847 C 0.28798 0.65516 0.57058 0.0
C1848 C 0.30819 0.65135 0.58224 0.0
C1849 C 0.3285 0.66571 0.58051 0.0
C1850 C 0.24314 0.63627 0.60867 0.0
C1851 C 0.22383 0.63114 0.59062 0.0
C1852 C 0.2642 0.64252 0.60183 0.0
C1853 C 0.26634 0.64376 0.5768 0.0
C1854 C 0.24714 0.63706 0.55853 0.0
C1855 C 0.22607 0.63081 0.56538 0.0
H1856 H 0.73845 0.96582 0.80303 0.0
H1857 H 0.69126 0.94752 0.85267 0.0
H1858 H 0.75984 0.93873 0.8173 0.0
H1859 H 0.71264 0.91955 0.8664 0.0
H1860 H 0.75133 0.85373 0.83564 0.0
H1861 H 0.72596 0.88038 0.83319 0.0
H1862 H 0.78022 0.9372 0.86878 0.0
H1863 H 0.80543 0.91046 0.8718 0.0
C1864 C 0.73249 0.95584 0.81681 0.0
C1865 C 0.71309 0.95876 0.82664 0.0
C1866 C 0.74487 0.94049 0.82511 0.0
C1867 C 0.73796 0.92734 0.84308 0.0
C1868 C 0.71832 0.92971 0.85264 0.0
C1869 C 0.70612 0.94559 0.84473 0.0
C1870 C 0.75756 0.87176 0.84376 0.0
C1871 C 0.7803 0.88006 0.85377 0.0
C1872 C 0.74306 0.88696 0.84244 0.0
C1873 C 0.75124 0.91076 0.85074 0.0
C1874 C 0.77357 0.91885 0.86242 0.0
C1875 C 0.78794 0.90356 0.86421 0.0
H1876 H 0.82346 0.09313 0.69402 0.0
H1877 H 0.82684 0.05041 0.62479 0.0
H1878 H 0.79191 0.10613 0.67319 0.0
H1879 H 0.79612 0.06391 0.60388 0.0
H1880 H 0.72222 0.06395 0.58612 0.0
H1881 H 0.75697 0.05609 0.60503 0.0
H1882 H 0.77838 0.12741 0.64172 0.0
H1883 H 0.74288 0.13503 0.62355 0.0
C1884 C 0.81773 0.08689 0.67429 0.0
C1885 C 0.82728 0.07049 0.66111 0.0
C1886 C 0.79976 0.0944 0.66232 0.0
C1887 C 0.79128 0.08576 0.63695 0.0
C1888 C 0.80184 0.07043 0.62357 0.0
C1889 C 0.81951 0.06276 0.63554 0.0
C1890 C 0.73431 0.07796 0.59824 0.0
C1891 C 0.72974 0.10005 0.60347 0.0
C1892 C 0.75438 0.07354 0.60886 0.0
C1893 C 0.77051 0.09115 0.62484 0.0
C1894 C 0.76621 0.11344 0.62965 0.0
C1895 C 0.74601 0.11786 0.61902 0.0
H1896 H 0.42161 0.51937 0.84208 0.0
H1897 H 0.37269 0.51593 0.77756 0.0
H1898 H 0.40505 0.48013 0.84562 0.0
H1899 H 0.35606 0.4755 0.78068 0.0
H1900 H 0.32289 0.40446 0.80575 0.0
H1901 H 0.33562 0.44517 0.80065 0.0
H1902 H 0.40327 0.44239 0.82885 0.0
H1903 H 0.39061 0.4028 0.83442 0.0
C1904 C 0.40723 0.51027 0.82844 0.0
C1905 C 0.39886 0.5214 0.80938 0.0
C1906 C 0.3977 0.48725 0.83035 0.0
C1907 C 0.37929 0.47365 0.81312 0.0
C1908 C 0.37019 0.48495 0.79445 0.0
C1909 C 0.37977 0.50836 0.79262 0.0
C1910 C 0.34048 0.41259 0.81084 0.0
C1911 C 0.35555 0.39997 0.82082 0.0
C1912 C 0.34789 0.43611 0.80785 0.0
C1913 C 0.37066 0.44794 0.81474 0.0
C1914 C 0.38556 0.43483 0.82397 0.0
C1915 C 0.37822 0.41165 0.82701 0.0
H1916 H 0.21927 0.60765 0.36322 0.0
H1917 H 0.25222 0.56582 0.31571 0.0
H1918 H 0.24637 0.64214 0.35988 0.0
H1919 H 0.27956 0.6004 0.31272 0.0
H1920 H 0.29455 0.66938 0.28098 0.0
H1921 H 0.27574 0.63288 0.29088 0.0
H1922 H 0.28551 0.66369 0.36868 0.0
H1923 H 0.30461 0.70034 0.35881 0.0
C1924 C 0.23258 0.60572 0.3525 0.0
C1925 C 0.23336 0.58399 0.33943 0.0
C1926 C 0.24821 0.62552 0.35071 0.0
C1927 C 0.26496 0.62403 0.33579 0.0
C1928 C 0.26661 0.60213 0.32402 0.0
C1929 C 0.25101 0.5823 0.32586 0.0
C1930 C 0.29322 0.66827 0.30029 0.0
C1931 C 0.30096 0.68785 0.31906 0.0
C1932 C 0.28242 0.6473 0.30598 0.0
C1933 C 0.27906 0.64541 0.33056 0.0
C1934 C 0.2876 0.66471 0.34952 0.0
C1935 C 0.29847 0.68569 0.34384 0.0
H1936 H 0.6391 0.82785 0.48585 0.0
H1937 H 0.57605 0.78618 0.44601 0.0
H1938 H 0.6416 0.7991 0.51275 0.0
H1939 H 0.57833 0.75752 0.47334 0.0
H1940 H 0.60207 0.69963 0.50791 0.0
H1941 H 0.59966 0.72881 0.48157 0.0
H1942 H 0.62509 0.78266 0.54579 0.0
H1943 H 0.62754 0.75331 0.57224 0.0
C1944 C 0.62568 0.8126 0.4829 0.0
C1945 C 0.60738 0.80931 0.46369 0.0
C1946 C 0.62706 0.79615 0.49848 0.0
C1947 C 0.6102 0.77594 0.49527 0.0
C1948 C 0.59179 0.77273 0.47615 0.0
C1949 C 0.5904 0.78922 0.46055 0.0
C1950 C 0.60701 0.71769 0.5165 0.0
C1951 C 0.61484 0.72409 0.54228 0.0
C1952 C 0.60558 0.73445 0.50136 0.0
C1953 C 0.61197 0.75813 0.51153 0.0
C1954 C 0.62019 0.76458 0.53726 0.0
C1955 C 0.62164 0.74777 0.55244 0.0
H1956 H 0.63989 0.30798 0.81607 0.0
H1957 H 0.65509 0.34619 0.75702 0.0
H1958 H 0.6799 0.30977 0.82811 0.0
H1959 H 0.69452 0.34735 0.76832 0.0
H1960 H 0.76799 0.35929 0.80069 0.0
H1961 H 0.72856 0.36141 0.79425 0.0
H1962 H 0.71064 0.2951 0.81756 0.0
H1963 H 0.75002 0.29351 0.82469 0.0
C1964 C 0.65168 0.317 0.8058 0.0
C1965 C 0.64385 0.32697 0.78554 0.0
C1966 C 0.6748 0.31782 0.81251 0.0
C1967 C 0.69102 0.32864 0.79924 0.0
C1968 C 0.68308 0.33912 0.77946 0.0
C1969 C 0.66012 0.33832 0.77281 0.0
C1970 C 0.75566 0.34527 0.80467 0.0
C1971 C 0.76246 0.32622 0.8132 0.0
C1972 C 0.73282 0.34633 0.80076 0.0
C1973 C 0.71581 0.32833 0.80511 0.0
C1974 C 0.72283 0.30954 0.81419 0.0
C1975 C 0.74563 0.30854 0.81816 0.0
H1976 H 0.10026 0.44012 0.93687 0.0
H1977 H 0.07204 0.40223 0.99102 0.0
H1978 H 0.10193 0.4766 0.96445 0.0
H1979 H 0.07463 0.43824 0.01891 0.0
H1980 H 0.05543 0.50377 0.05006 0.0
H1981 H 0.0563 0.46871 0.02248 0.0
H1982 H 0.11842 0.50265 1.00235 0.0
H1983 H 0.11699 0.53836 0.02947 0.0
C1984 C 0.09473 0.43959 0.9548 0.0
C1985 C 0.08576 0.41831 0.96162 0.0
C1986 C 0.09577 0.46049 0.9707 0.0
C1987 C 0.0881 0.46052 0.99387 0.0
C1988 C 0.08007 0.43908 1.00097 0.0
C1989 C 0.07873 0.41833 0.98501 0.0
C1990 C 0.06936 0.50381 0.03987 0.0
C1991 C 0.08622 0.52388 0.04214 0.0
C1992 C 0.06995 0.48356 0.02408 0.0
C1993 C 0.0876 0.48257 0.0103 0.0
C1994 C 0.10447 0.50273 0.01246 0.0
C1995 C 0.10373 0.52319 0.02814 0.0
H1996 H 1.00681 0.84393 0.26683 0.0
H1997 H 1.0078 0.794 0.31621 0.0
H1998 H 0.96899 0.84638 0.27394 0.0
H1999 H 0.96988 0.79604 0.32301 0.0
H2000 H 0.90795 0.81897 0.34797 0.0
H2001 H 0.94605 0.81724 0.34161 0.0
H2002 H 0.93063 0.82781 0.26568 0.0
H2003 H 0.89264 0.82996 0.27229 0.0
C2004 C 0.99905 0.83349 0.27931 0.0
C2005 C 1.01074 0.81884 0.29098 0.0
C2006 C 0.97708 0.83472 0.28325 0.0
C2007 C 0.96582 0.82137 0.29907 0.0
C2008 C 0.9777 0.80691 0.31095 0.0
C2009 C 0.99964 0.80565 0.30696 0.0
C2010 C 0.91259 0.82085 0.32985 0.0
C2011 C 0.89687 0.82459 0.3107 0.0
C2012 C 0.93462 0.81975 0.3261 0.0
C2013 C 0.94196 0.8224 0.30305 0.0
C2014 C 0.92612 0.82603 0.28386 0.0
C2015 C 0.90407 0.82708 0.2876 0.0
H2016 H 0.5275 0.30783 0.08682 0.0
H2017 H 0.50924 0.34598 0.15108 0.0
H2018 H 0.53878 0.34355 0.07087 0.0
H2019 H 0.5214 0.38205 0.13564 0.0
H2020 H 0.53346 0.44217 0.09305 0.0
H2021 H 0.51597 0.4058 0.10457 0.0
H2022 H 0.56994 0.37548 0.08226 0.0
H2023 H 0.58668 0.41134 0.06941 0.0
C2024 C 0.5257 0.32389 0.09741 0.0
C2025 C 0.51768 0.32422 0.12027 0.0
C2026 C 0.53236 0.34439 0.08839 0.0
C2027 C 0.53147 0.36573 0.10223 0.0
C2028 C 0.52223 0.36591 0.12445 0.0
C2029 C 0.51526 0.34527 0.13332 0.0
C2030 C 0.54138 0.4276 0.09019 0.0
C2031 C 0.56144 0.42963 0.08018 0.0
C2032 C 0.53148 0.40684 0.09709 0.0
C2033 C 0.54146 0.38767 0.09425 0.0
C2034 C 0.56154 0.38975 0.08428 0.0
C2035 C 0.57136 0.41044 0.07725 0.0
H2036 H 0.07982 0.3973 0.50103 0.0
H2037 H 0.1014 0.40602 0.43026 0.0
H2038 H 0.04178 0.39819 0.48324 0.0
H2039 H 0.06348 0.40662 0.41255 0.0
H2040 H 0.99498 0.42078 0.39167 0.0
H2041 H 1.03303 0.42782 0.4141 0.0
H2042 H 1.01351 0.36985 0.45149 0.0
H2043 H 0.97558 0.36263 0.42892 0.0
C2044 C 0.07655 0.39979 0.48184 0.0
C2045 C 0.09355 0.4013 0.46696 0.0
C2046 C 0.05476 0.40015 0.47163 0.0
C2047 C 0.04965 0.40223 0.44646 0.0
C2048 C 0.06693 0.40514 0.43205 0.0
C2049 C 0.08865 0.40465 0.44218 0.0
C2050 C 0.99884 0.40949 0.4046 0.0
C2051 C 0.98232 0.39103 0.40837 0.0
C2052 C 1.02058 0.41361 0.41753 0.0
C2053 C 1.0262 0.39942 0.43456 0.0
C2054 C 1.00956 0.38133 0.43879 0.0
C2055 C 0.98785 0.37715 0.4258 0.0
H2056 H 0.97247 0.67302 0.6393 0.0
H2057 H 0.98048 0.71276 0.57983 0.0
H2058 H 0.98419 0.64169 0.61529 0.0
H2059 H 0.99168 0.68098 0.55533 0.0
H2060 H 0.05778 0.65211 0.56056 0.0
H2061 H 1.02805 0.67298 0.56453 0.0
H2062 H 0.98591 0.61232 0.58185 0.0
H2063 H 1.01613 0.59181 0.57861 0.0
C2064 C 0.9756 0.67463 0.62055 0.0
C2065 C 0.97638 0.69571 0.61187 0.0
C2066 C 0.98236 0.65654 0.60665 0.0
C2067 C 0.98974 0.65917 0.58372 0.0
C2068 C 0.98685 0.67874 0.5733 0.0
C2069 C 0.98025 0.69689 0.58729 0.0
C2070 C 0.04193 0.64305 0.56445 0.0
C2071 C 0.03938 0.6206 0.56992 0.0
C2072 C 1.02473 0.65493 0.56657 0.0
C2073 C 1.00464 0.64447 0.57401 0.0
C2074 C 1.0013 0.62107 0.57665 0.0
C2075 C 1.01857 0.6093 0.57474 0.0
H2076 H 0.69827 0.83977 0.95749 0.0
H2077 H 0.70336 0.90073 0.92279 0.0
H2078 H 0.7072 0.81843 0.92007 0.0
H2079 H 0.71253 0.87952 0.88565 0.0
H2080 H 0.69479 0.82859 0.8132 0.0
H2081 H 0.68883 0.84827 0.85312 0.0
H2082 H 0.73527 0.81501 0.89199 0.0
H2083 H 0.74133 0.79548 0.85229 0.0
C2084 C 0.70207 0.84884 0.94226 0.0
C2085 C 0.69984 0.87184 0.94296 0.0
C2086 C 0.707 0.83656 0.92074 0.0
C2087 C 0.70984 0.84713 0.89967 0.0
C2088 C 0.70967 0.87072 0.90131 0.0
C2089 C 0.70472 0.88295 0.92272 0.0
C2090 C 0.70338 0.82514 0.83027 0.0
C2091 C 0.71846 0.81039 0.82948 0.0
C2092 C 0.70017 0.83659 0.85312 0.0
C2093 C 0.71193 0.83349 0.87565 0.0
C2094 C 0.72595 0.8177 0.87496 0.0
C2095 C 0.7292 0.80631 0.85214 0.0
H2096 H 0.50711 0.58212 0.76718 0.0
H2097 H 0.45569 0.60208 0.71975 0.0
H2098 H 0.52994 0.58223 0.73416 0.0
H2099 H 0.47862 0.60191 0.68623 0.0
H2100 H 0.53373 0.61629 0.63553 0.0
H2101 H 0.51127 0.61908 0.66941 0.0
H2102 H 0.53421 0.56189 0.69585 0.0
H2103 H 0.55661 0.55942 0.66244 0.0
C2104 C 0.50052 0.58657 0.74969 0.0
C2105 C 0.47921 0.59204 0.74657 0.0
C2106 C 0.51373 0.58646 0.73042 0.0
C2107 C 0.50641 0.59187 0.70693 0.0
C2108 C 0.48523 0.59778 0.70387 0.0
C2109 C 0.47189 0.59777 0.72322 0.0
C2110 C 0.53422 0.60451 0.64878 0.0
C2111 C 0.54736 0.58775 0.64609 0.0
C2112 C 0.52105 0.60593 0.66821 0.0
C2113 C 0.52062 0.59077 0.68591 0.0
C2114 C 0.53406 0.57425 0.68323 0.0
C2115 C 0.54702 0.57275 0.6638 0.0
H2116 H 0.83059 0.28316 0.0125 0.0
H2117 H 0.8871 0.25894 0.98826 0.0
H2118 H 0.82276 0.29612 0.97287 0.0
H2119 H 0.87936 0.27223 0.94852 0.0
H2120 H 0.84203 0.27396 0.87091 0.0
H2121 H 0.8502 0.2616 0.91093 0.0
H2122 H 0.83842 0.32535 0.94894 0.0
H2123 H 0.83001 0.33766 0.90894 0.0
C2124 C 0.84147 0.28076 0.99878 0.0
C2125 C 0.85946 0.26997 1.00352 0.0
C2126 C 0.83702 0.28829 0.97609 0.0
C2127 C 0.85038 0.28514 0.95752 0.0
C2128 C 0.86859 0.27464 0.96236 0.0
C2129 C 0.87313 0.26719 0.98518 0.0
C2130 C 0.84103 0.28529 0.88778 0.0
C2131 C 0.83534 0.3068 0.88671 0.0
C2132 C 0.84592 0.27828 0.91073 0.0
C2133 C 0.84512 0.29256 0.93312 0.0
C2134 C 0.83904 0.31388 0.93202 0.0
C2135 C 0.83423 0.32094 0.90908 0.0
H2136 H 0.15048 0.50593 0.23948 0.0
H2137 H 0.12035 0.55484 0.28165 0.0
H2138 H 0.13554 0.5174 0.20084 0.0
H2139 H 0.10569 0.56628 0.2431 0.0
H2140 H 0.1214 0.60512 0.17684 0.0
H2141 H 0.12812 0.58837 0.21444 0.0
H2142 H 0.09939 0.52004 0.17231 0.0
H2143 H 0.09231 0.53694 0.13456 0.0
C2144 C 0.14026 0.5187 0.24051 0.0
C2145 C 0.13689 0.52966 0.26375 0.0
C2146 C 0.13168 0.52524 0.21835 0.0
C2147 C 0.11976 0.54298 0.21904 0.0
C2148 C 0.1151 0.55279 0.24208 0.0
C2149 C 0.12344 0.54611 0.26415 0.0
C2150 C 0.11635 0.58655 0.17565 0.0
C2151 C 0.10642 0.57232 0.15283 0.0
C2152 C 0.12006 0.57697 0.19719 0.0
C2153 C 0.1142 0.5529 0.19631 0.0
C2154 C 0.10409 0.53863 0.17349 0.0
C2155 C 0.10001 0.5483 0.15196 0.0
H2156 H 0.81872 0.93512 0.61025 0.0
H2157 H 0.82771 0.99353 0.57169 0.0
H2158 H 0.8066 0.90889 0.57053 0.0
H2159 H 0.81675 0.96722 0.53162 0.0
H2160 H 0.79464 0.91307 0.46159 0.0
H2161 H 0.79125 0.93707 0.50041 0.0
H2162 H 0.83092 0.8991 0.54224 0.0
H2163 H 0.83426 0.87549 0.50401 0.0
C2164 C 0.81762 0.94231 0.59318 0.0
C2165 C 0.8244 0.96618 0.5938 0.0
C2166 C 0.81083 0.92733 0.57046 0.0
C2167 C 0.81137 0.93592 0.54792 0.0
C2168 C 0.81614 0.96004 0.54864 0.0
C2169 C 0.82248 0.97512 0.57153 0.0
C2170 C 0.8024 0.90978 0.47917 0.0
C2171 C 0.81467 0.89234 0.47973 0.0
C2172 C 0.80043 0.92347 0.50135 0.0
C2173 C 0.81065 0.9199 0.52443 0.0
C2174 C 0.82229 0.90197 0.5249 0.0
C2175 C 0.82426 0.88839 0.50288 0.0
H2176 H 0.50653 0.55341 0.87633 0.0
H2177 H 0.48972 0.61851 0.90155 0.0
H2178 H 0.52625 0.55419 0.91773 0.0
H2179 H 0.51037 0.61991 0.94304 0.0
H2180 H 0.53055 0.60427 0.02184 0.0
H2181 H 0.51109 0.60502 0.98042 0.0
H2182 H 0.55776 0.57006 0.94698 0.0
H2183 H 0.57644 0.56849 0.98824 0.0
C2184 C 0.5073 0.56813 0.89065 0.0
C2185 C 0.49649 0.58593 0.88538 0.0
C2186 C 0.51883 0.56868 0.91457 0.0
C2187 C 0.52023 0.58719 0.93416 0.0
C2188 C 0.50955 0.60515 0.92879 0.0
C2189 C 0.4978 0.60448 0.90482 0.0
C2190 C 0.53667 0.59677 1.00562 0.0
C2191 C 0.55505 0.58617 0.00856 0.0
C2192 C 0.52555 0.59732 0.98171 0.0
C2193 C 0.53256 0.58746 0.95991 0.0
C2194 C 0.55131 0.57737 0.96302 0.0
C2195 C 0.56224 0.57661 0.98686 0.0
H2196 H 0.91513 0.2772 0.16195 0.0
H2197 H 0.85568 0.29277 0.12411 0.0
H2198 H 0.91025 0.2999 0.20069 0.0
H2199 H 0.84993 0.31396 0.16269 0.0
H2200 H 0.84254 0.35574 0.23253 0.0
H2201 H 0.8577 0.34449 0.19479 0.0
H2202 H 0.88844 0.29642 0.23142 0.0
H2203 H 0.87467 0.309 0.26934 0.0
C2204 C 0.90113 0.28561 0.16185 0.0
C2205 C 0.88574 0.28299 0.13992 0.0
C2206 C 0.89816 0.29848 0.18415 0.0
C2207 C 0.87946 0.30865 0.18521 0.0
C2208 C 0.86474 0.30686 0.16288 0.0
C2209 C 0.86796 0.29444 0.14058 0.0
C2210 C 0.85302 0.3432 0.23257 0.0
C2211 C 0.85724 0.33312 0.25378 0.0
C2212 C 0.86154 0.33649 0.21084 0.0
C2213 C 0.87398 0.31906 0.20959 0.0
C2214 C 0.8792 0.31002 0.23143 0.0
C2215 C 0.87114 0.31715 0.25329 0.0
H2216 H 0.15565 0.51989 0.41668 0.0
H2217 H 0.11777 0.56695 0.38878 0.0
H2218 H 0.14023 0.52445 0.45572 0.0
H2219 H 0.10221 0.57119 0.42752 0.0
H2220 H 0.06469 0.55605 0.49338 0.0
H2221 H 0.0772 0.54671 0.45322 0.0
H2222 H 0.1454 0.56027 0.49064 0.0
H2223 H 0.13307 0.56987 0.53062 0.0
C2224 C 0.1438 0.5309 0.41873 0.0
C2225 C 0.13801 0.54316 0.39977 0.0
C2226 C 0.13508 0.53359 0.44108 0.0
C2227 C 0.12009 0.54821 0.4446 0.0
C2228 C 0.11361 0.5597 0.42522 0.0
C2229 C 0.12262 0.55735 0.40312 0.0
C2230 C 0.08233 0.55698 0.493 0.0
C2231 C 0.0979 0.56385 0.51511 0.0
C2232 C 0.08947 0.55166 0.47006 0.0
C2233 C 0.11224 0.55267 0.4689 0.0
C2234 C 0.12772 0.55911 0.49105 0.0
C2235 C 0.12066 0.56482 0.51389 0.0
H2236 H 0.87517 1.00123 0.75594 0.0
H2237 H 0.82412 0.95734 0.69849 0.0
H2238 H 0.8729 0.96982 0.78041 0.0
H2239 H 0.82216 0.92609 0.72251 0.0
H2240 H 0.81193 0.88119 0.78269 0.0
H2241 H 0.8117 0.9137 0.76052 0.0
H2242 H 0.88393 0.93181 0.77515 0.0
H2243 H 0.88414 0.89945 0.79779 0.0
C2244 C 0.86314 0.9851 0.74883 0.0
C2245 C 0.84991 0.98167 0.72529 0.0
C2246 C 0.86206 0.96704 0.76262 0.0
C2247 C 0.84759 0.9454 0.75316 0.0
C2248 C 0.83343 0.94254 0.73034 0.0
C2249 C 0.83459 0.96046 0.71656 0.0
C2250 C 0.82777 0.89194 0.78088 0.0
C2251 C 0.84805 0.88786 0.79196 0.0
C2252 C 0.82763 0.9106 0.76826 0.0
C2253 C 0.84778 0.9255 0.76643 0.0
C2254 C 0.86812 0.92091 0.77677 0.0
C2255 C 0.86826 0.90221 0.78939 0.0
H2256 H 0.68592 0.46348 0.57445 0.0
H2257 H 0.72852 0.50894 0.63798 0.0
H2258 H 0.65779 0.48668 0.5779 0.0
H2259 H 0.70023 0.53209 0.64154 0.0
H2260 H 0.65418 0.58169 0.61487 0.0
H2261 H 0.68303 0.55882 0.61827 0.0
H2262 H 0.63154 0.49615 0.60544 0.0
H2263 H 0.60305 0.51876 0.60182 0.0
C2264 C 0.6892 0.47829 0.5893 0.0
C2265 C 0.70945 0.48428 0.60594 0.0
C2266 C 0.67303 0.49156 0.59137 0.0
C2267 C 0.67672 0.51124 0.61007 0.0
C2268 C 0.69693 0.51717 0.62683 0.0
C2269 C 0.71306 0.50378 0.62486 0.0
C2270 C 0.64911 0.5631 0.61343 0.0
C2271 C 0.62638 0.55203 0.60781 0.0
C2272 C 0.6656 0.54996 0.61528 0.0
C2273 C 0.65957 0.52559 0.61158 0.0
C2274 C 0.63679 0.5148 0.60772 0.0
C2275 C 0.62045 0.52782 0.60583 0.0
H2276 H 0.21369 0.11479 0.47358 0.0
H2277 H 0.25356 0.09516 0.53428 0.0
H2278 H 0.18029 0.10335 0.49233 0.0
H2279 H 0.22015 0.08401 0.553 0.0
H2280 H 0.16548 0.1142 0.59312 0.0
H2281 H 0.19782 0.11305 0.57182 0.0
H2282 H 0.15484 0.06941 0.50741 0.0
H2283 H 0.12249 0.07026 0.52885 0.0
C2284 C 0.21524 0.10749 0.49054 0.0
C2285 C 0.2363 0.10623 0.50265 0.0
C2286 C 0.19612 0.10088 0.50121 0.0
C2287 C 0.19782 0.09313 0.52424 0.0
C2288 C 0.21854 0.09018 0.53535 0.0
C2289 C 0.2376 0.09648 0.52454 0.0
C2290 C 0.16304 0.10412 0.57457 0.0
C2291 C 0.14159 0.09252 0.56249 0.0
C2292 C 0.1815 0.1033 0.56247 0.0
C2293 C 0.17871 0.09111 0.53803 0.0
C2294 C 0.15733 0.07893 0.52624 0.0
C2295 C 0.13891 0.07946 0.53849 0.0
H2296 H 0.28936 1.01212 0.80038 0.0
H2297 H 0.2453 0.98919 0.85111 0.0
H2298 H 0.30226 0.97574 0.79792 0.0
H2299 H 0.25791 0.95265 0.8484 0.0
H2300 H 0.26929 0.87913 0.81882 0.0
H2301 H 0.25681 0.91573 0.82165 0.0
H2302 H 0.32395 0.95218 0.81986 0.0
H2303 H 0.33646 0.91559 0.8174 0.0
C2304 C 0.28237 0.99942 0.81113 0.0
C2305 C 0.26617 1.00415 0.82606 0.0
C2306 C 0.28991 0.97833 0.80978 0.0
C2307 C 0.28131 0.96062 0.82288 0.0
C2308 C 0.26501 0.96535 0.83772 0.0
C2309 C 0.25779 0.98663 0.83944 0.0
C2310 C 0.2815 0.89487 0.81898 0.0
C2311 C 0.30405 0.89386 0.81779 0.0
C2312 C 0.27429 0.91615 0.82079 0.0
C2313 C 0.28917 0.93754 0.82104 0.0
C2314 C 0.31168 0.93645 0.81953 0.0
C2315 C 0.31897 0.91522 0.8182 0.0
H2316 H 0.3122 1.01114 0.09965 0.0
H2317 H 0.31862 0.96757 0.03218 0.0
H2318 H 0.3466 0.03816 0.09642 0.0
H2319 H 0.35287 0.99437 0.02912 0.0
H2320 H 0.42517 0.05163 0.10061 0.0
H2321 H 0.38633 0.0338 0.10193 0.0
H2322 H 0.36958 0.03395 0.02306 0.0
H2323 H 0.4085 0.05112 0.02157 0.0
C2324 C 0.32069 1.00756 0.08388 0.0
C2325 C 0.31287 0.98711 0.06631 0.0
C2326 C 0.34041 0.02296 0.08213 0.0
C2327 C 0.35245 1.01828 0.06261 0.0
C2328 C 0.34386 0.99856 0.04425 0.0
C2329 C 0.32431 0.9831 0.04611 0.0
C2330 C 0.41313 0.04803 0.08362 0.0
C2331 C 0.41991 0.05251 0.06094 0.0
C2332 C 0.39086 0.0381 0.08443 0.0
C2333 C 0.37498 0.0324 0.06255 0.0
C2334 C 0.38153 0.038 0.04015 0.0
C2335 C 0.40377 0.04799 0.03936 0.0
H2336 H 0.91754 0.69768 0.77553 0.0
H2337 H 0.96389 0.7343 0.84114 0.0
H2338 H 0.89822 0.7294 0.77682 0.0
H2339 H 0.94513 0.76653 0.84191 0.0
H2340 H 0.88804 0.80146 0.85712 0.0
H2341 H 0.9115 0.77395 0.85247 0.0
H2342 H 0.8979 0.7683 0.77227 0.0
H2343 H 0.87345 0.79585 0.77708 0.0
C2344 C 0.92383 0.71269 0.79003 0.0
C2345 C 0.94206 0.71332 0.80847 0.0
C2346 C 0.91281 0.73099 0.79067 0.0
C2347 C 0.91984 0.75044 0.80968 0.0
C2348 C 0.93879 0.75152 0.82742 0.0
C2349 C 0.94971 0.73314 0.82687 0.0
C2350 C 0.89027 0.79473 0.83842 0.0
C2351 C 0.87891 0.80094 0.81744 0.0
C2352 C 0.90388 0.7789 0.83576 0.0
C2353 C 0.9067 0.76881 0.812 0.0
C2354 C 0.8958 0.77544 0.79087 0.0
C2355 C 0.88189 0.79128 0.79357 0.0
H2356 H 0.87179 0.60715 0.98513 0.0
H2357 H 0.82392 0.5503 1.00112 0.0
H2358 H 0.90095 0.58555 0.99032 0.0
H2359 H 0.85272 0.52785 1.00475 0.0
H2360 H 0.91357 0.52395 0.06168 0.0
H2361 H 0.88088 0.53188 0.03832 0.0
H2362 H 0.92056 0.55621 0.9838 0.0
H2363 H 0.95369 0.54983 0.00837 0.0
C2364 C 0.86731 0.58956 0.98857 0.0
C2365 C 0.84582 0.58055 0.9933 0.0
C2366 C 0.88404 0.57704 0.99148 0.0
C2367 C 0.8794 0.55512 0.99873 0.0
C2368 C 0.85709 0.54499 1.00008 0.0
C2369 C 0.84053 0.55774 0.99778 0.0
C2370 C 0.91528 0.53074 0.04456 0.0
C2371 C 0.93636 0.53684 0.03733 0.0
C2372 C 0.89639 0.53498 0.03082 0.0
C2373 C 0.89805 0.54514 0.00927 0.0
C2374 C 0.91873 0.54892 1.00061 0.0
C2375 C 0.93772 0.54495 0.01457 0.0
H2376 H 0.25631 0.15842 0.87696 0.0
H2377 H 0.27507 0.13045 0.80793 0.0
H2378 H 0.27273 0.19777 0.87091 0.0
H2379 H 0.29065 0.16985 0.80141 0.0
H2380 H 0.28485 0.24525 0.78512 0.0
H2381 H 0.27339 0.20566 0.79298 0.0
H2382 H 0.3117 0.22578 0.86683 0.0
H2383 H 0.32404 0.26548 0.85849 0.0
C2384 C 0.26418 0.16052 0.86061 0.0
C2385 C 0.26443 0.14075 0.84317 0.0
C2386 C 0.27365 0.18328 0.85711 0.0
C2387 C 0.28314 0.18744 0.83558 0.0
C2388 C 0.28356 0.16768 0.81823 0.0
C2389 C 0.27471 0.14488 0.82211 0.0
C2390 C 0.29118 0.24131 0.80298 0.0
C2391 C 0.30566 0.25892 0.821 0.0
C2392 C 0.28455 0.21839 0.8075 0.0
C2393 C 0.29146 0.21206 0.8306 0.0
C2394 C 0.30588 0.2297 0.84878 0.0
C2395 C 0.31313 0.25257 0.84394 0.0
H2396 H 0.45639 0.09007 0.35982 0.0
H2397 H 0.41192 0.10487 0.29972 0.0
H2398 H 0.42818 0.05674 0.36347 0.0
H2399 H 0.38341 0.07134 0.30364 0.0
H2400 H 0.3567 0.9908 0.29804 0.0
H2401 H 0.37942 0.02845 0.29533 0.0
H2402 H 0.39111 0.0462 0.37573 0.0
H2403 H 0.36917 1.00838 0.3785 0.0
C2404 C 0.4405 0.08633 0.3475 0.0
C2405 C 0.43646 0.10006 0.32937 0.0
C2406 C 0.42424 0.06732 0.34976 0.0
C2407 C 0.40355 0.06149 0.3339 0.0
C2408 C 0.39927 0.0754 0.31602 0.0
C2409 C 0.41555 0.09461 0.31386 0.0
C2410 C 0.36401 1.00283 0.31511 0.0
C2411 C 0.36135 0.99651 0.33849 0.0
C2412 C 0.3768 0.02447 0.31355 0.0
C2413 C 0.38721 0.04016 0.33533 0.0
C2414 C 0.38352 0.03432 0.35863 0.0
C2415 C 0.37075 1.01274 0.3602 0.0
H2416 H 0.59822 0.3682 0.67315 0.0
H2417 H 0.54121 0.375 0.70957 0.0
H2418 H 0.58981 0.3961 0.64713 0.0
H2419 H 0.53283 0.40319 0.68343 0.0
H2420 H 0.51228 0.43208 0.6112 0.0
H2421 H 0.52001 0.40481 0.63864 0.0
H2422 H 0.59016 0.43769 0.65131 0.0
H2423 H 0.5825 0.46517 0.62441 0.0
C2424 C 0.58392 0.37572 0.6757 0.0
C2425 C 0.57042 0.36937 0.69351 0.0
C2426 C 0.57916 0.39183 0.66082 0.0
C2427 C 0.56067 0.40194 0.6632 0.0
C2428 C 0.54709 0.39558 0.68099 0.0
C2429 C 0.55198 0.37955 0.69608 0.0
C2430 C 0.52933 0.43366 0.62001 0.0
C2431 C 0.54676 0.4508 0.61534 0.0
C2432 C 0.53375 0.41801 0.63576 0.0
C2433 C 0.55571 0.419 0.6471 0.0
C2434 C 0.5731 0.43619 0.64255 0.0
C2435 C 0.56869 0.4519 0.62699 0.0
H2436 H 0.50958 0.83229 0.37906 0.0
H2437 H 0.51806 0.8759 0.32321 0.0
H2438 H 0.4692 0.82916 0.37111 0.0
H2439 H 0.47751 0.87278 0.3152 0.0
H2440 H 0.39911 0.84854 0.29509 0.0
H2441 H 0.43934 0.84837 0.29912 0.0
H2442 H 0.4426 0.85275 0.37874 0.0
H2443 H 0.40301 0.853 0.37469 0.0
C2444 C 0.50289 0.84104 0.36484 0.0
C2445 C 0.51747 0.85436 0.35186 0.0
C2446 C 0.47954 0.8394 0.36037 0.0
C2447 C 0.46964 0.85085 0.34256 0.0
C2448 C 0.48416 0.86353 0.32893 0.0
C2449 C 0.5076 0.86537 0.33361 0.0
C2450 C 0.40841 0.84931 0.3134 0.0
C2451 C 0.39754 0.85078 0.33453 0.0
C2452 C 0.43162 0.84936 0.31579 0.0
C2453 C 0.44464 0.85045 0.33933 0.0
C2454 C 0.43348 0.85155 0.36023 0.0
C2455 C 0.41057 0.85183 0.35789 0.0
H2456 H 0.09206 0.77213 0.18428 0.0
H2457 H 0.04388 0.73622 0.22401 0.0
H2458 H 0.09252 0.73593 0.15862 0.0
H2459 H 0.04332 0.69977 0.19721 0.0
H2460 H 0.06655 0.6354 0.16368 0.0
H2461 H 0.06357 0.67134 0.18886 0.0
H2462 H 0.07419 0.70688 0.12647 0.0
H2463 H 0.07847 0.67127 0.10204 0.0
C2464 C 0.08117 0.75651 0.18722 0.0
C2465 C 0.0679 0.75715 0.20625 0.0
C2466 C 0.08132 0.73561 0.1723 0.0
C2467 C 0.06789 0.71467 0.17558 0.0
C2468 C 0.0542 0.71538 0.1943 0.0
C2469 C 0.05434 0.73634 0.20957 0.0
C2470 C 0.06823 0.65094 0.15541 0.0
C2471 C 0.07296 0.65056 0.13097 0.0
C2472 C 0.06634 0.67158 0.16979 0.0
C2473 C 0.06875 0.69229 0.15991 0.0
C2474 C 0.07281 0.69158 0.13511 0.0
C2475 C 0.07513 0.67107 0.12095 0.0
H2476 H 0.16287 0.36738 0.88438 0.0
H2477 H 0.13801 0.31317 0.82066 0.0
H2478 H 0.20122 0.36805 0.87683 0.0
H2479 H 0.17632 0.31392 0.81297 0.0
H2480 H 0.24748 0.335 0.79299 0.0
H2481 H 0.20926 0.33624 0.79972 0.0
H2482 H 0.23009 0.34515 0.8792 0.0
H2483 H 0.26827 0.34376 0.87244 0.0
C2484 C 0.16547 0.35575 0.86855 0.0
C2485 C 0.147 0.3403 0.85311 0.0
C2486 C 0.18764 0.35598 0.86432 0.0
C2487 C 0.19227 0.341 0.84426 0.0
C2488 C 0.17372 0.32593 0.82849 0.0
C2489 C 0.15158 0.32546 0.83294 0.0
C2490 C 0.24401 0.33734 0.81195 0.0
C2491 C 0.26129 0.33931 0.83211 0.0
C2492 C 0.2219 0.3379 0.81583 0.0
C2493 C 0.21618 0.34079 0.84007 0.0
C2494 C 0.23358 0.34313 0.86025 0.0
C2495 C 0.25562 0.34223 0.85634 0.0
H2496 H 0.60167 0.82606 1.00608 0.0
H2497 H 0.66068 0.82897 0.05894 0.0
H2498 H 0.58208 0.7925 0.02141 0.0
H2499 H 0.64134 0.79532 0.07383 0.0
H2500 H 0.56843 0.71568 0.03389 0.0
H2501 H 0.58352 0.75188 0.02032 0.0
H2502 H 0.61139 0.78272 0.09671 0.0
H2503 H 0.59717 0.74628 0.11013 0.0
C2504 C 0.61044 0.81956 0.02096 0.0
C2505 C 0.63274 0.83013 0.03125 0.0
C2506 C 0.59925 0.8003 0.02968 0.0
C2507 C 0.61012 0.79128 0.04889 0.0
C2508 C 0.63233 0.80206 0.05932 0.0
C2509 C 0.6435 0.82125 0.05062 0.0
C2510 C 0.5777 0.73023 0.04779 0.0
C2511 C 0.58178 0.72801 0.07306 0.0
C2512 C 0.58614 0.75106 0.04005 0.0
C2513 C 0.59886 0.77011 0.05741 0.0
C2514 C 0.60197 0.76824 0.08282 0.0
C2515 C 0.59356 0.74742 0.09055 0.0
H2516 H 0.07668 0.78694 0.68161 0.0
H2517 H 0.05306 0.73667 0.72715 0.0
H2518 H 0.11435 0.79314 0.70442 0.0
H2519 H 0.09096 0.74304 0.75005 0.0
H2520 H 0.1674 0.7421 0.75921 0.0
H2521 H 0.12833 0.736 0.74057 0.0
H2522 H 0.13457 0.80989 0.74786 0.0
H2523 H 0.17355 0.81612 0.76709 0.0
C2524 C 0.0795 0.7772 0.69649 0.0
C2525 C 0.06186 0.7613 0.70257 0.0
C2526 C 0.10106 0.78091 0.70966 0.0
C2527 C 0.1055 0.7687 0.7291 0.0
C2528 C 0.08796 0.75262 0.73508 0.0
C2529 C 0.0663 0.74903 0.72201 0.0
C2530 C 0.16034 0.75708 0.75742 0.0
C2531 C 0.17367 0.77961 0.76454 0.0
C2532 C 0.13797 0.75356 0.74665 0.0
C2533 C 0.12853 0.77247 0.74261 0.0
C2534 C 0.14158 0.795 0.75043 0.0
C2535 C 0.16389 0.79854 0.76138 0.0
H2536 H 0.1633 0.43495 0.59648 0.0
H2537 H 0.17448 0.47112 0.5349 0.0
H2538 H 0.15442 0.46903 0.61948 0.0
H2539 H 0.16449 0.50466 0.55708 0.0
H2540 H 0.09293 0.50378 0.616 0.0
H2541 H 0.12025 0.4801 0.61157 0.0
H2542 H 0.16424 0.53601 0.58811 0.0
H2543 H 0.13618 0.55934 0.59165 0.0
C2544 C 0.1646 0.4505 0.58823 0.0
C2545 C 0.16907 0.45029 0.56373 0.0
C2546 C 0.15929 0.46995 0.60129 0.0
C2547 C 0.15784 0.48931 0.5898 0.0
C2548 C 0.16531 0.49012 0.56661 0.0
C2549 C 0.17106 0.47081 0.55377 0.0
C2550 C 0.10867 0.51121 0.61053 0.0
C2551 C 0.11222 0.53311 0.60351 0.0
C2552 C 0.12454 0.4977 0.60817 0.0
C2553 C 0.14441 0.50593 0.59899 0.0
C2554 C 0.14892 0.52888 0.59462 0.0
C2555 C 0.13291 0.5423 0.59674 0.0
H2556 H 0.46017 0.30497 0.21294 0.0
H2557 H 0.46581 0.25041 0.25564 0.0
H2558 H 0.44847 0.32679 0.24803 0.0
H2559 H 0.45471 0.27224 0.29056 0.0
H2560 H 0.45119 0.32297 0.35784 0.0
H2561 H 0.46449 0.30315 0.32257 0.0
H2562 H 0.42021 0.32939 0.27177 0.0
H2563 H 0.40795 0.34994 0.30703 0.0
C2564 C 0.4585 0.29744 0.22964 0.0
C2565 C 0.46373 0.27585 0.23137 0.0
C2566 C 0.45179 0.30996 0.24983 0.0
C2567 C 0.45032 0.30124 0.2723 0.0
C2568 C 0.45538 0.27953 0.27372 0.0
C2569 C 0.4617 0.26688 0.2535 0.0
C2570 C 0.44466 0.32474 0.33911 0.0
C2571 C 0.42892 0.33837 0.33522 0.0
C2572 C 0.45205 0.31319 0.3188 0.0
C2573 C 0.44347 0.31458 0.29409 0.0
C2574 C 0.42772 0.32833 0.29037 0.0
C2575 C 0.42065 0.34014 0.31065 0.0
H2576 H 0.687 0.56625 0.43349 0.0
H2577 H 0.64884 0.60973 0.39927 0.0
H2578 H 0.66431 0.56563 0.46704 0.0
H2579 H 0.62554 0.60835 0.43181 0.0
H2580 H 0.59828 0.62156 0.50424 0.0
H2581 H 0.62064 0.62068 0.47106 0.0
H2582 H 0.63222 0.55419 0.48422 0.0
H2583 H 0.61037 0.55582 0.51868 0.0
C2584 C 0.67368 0.5756 0.43295 0.0
C2585 C 0.67011 0.58821 0.41344 0.0
C2586 C 0.66038 0.57512 0.4523 0.0
C2587 C 0.64274 0.58707 0.45292 0.0
C2588 C 0.63906 0.59932 0.43301 0.0
C2589 C 0.65249 0.6 0.41392 0.0
C2590 C 0.6054 0.60657 0.50008 0.0
C2591 C 0.60216 0.58872 0.51444 0.0
C2592 C 0.61832 0.60595 0.4806 0.0
C2593 C 0.62857 0.58727 0.47411 0.0
C2594 C 0.6251 0.56916 0.48835 0.0
C2595 C 0.61223 0.56991 0.50814 0.0
H2596 H 0.2593 0.91959 0.16284 0.0
H2597 H 0.29824 0.88172 0.11938 0.0
H2598 H 0.27382 0.90582 0.1999 0.0
H2599 H 0.31338 0.86858 0.15665 0.0
H2600 H 0.32128 0.90023 0.26686 0.0
H2601 H 0.30745 0.9123 0.22842 0.0
H2602 H 0.30616 0.84475 0.18728 0.0
H2603 H 0.32075 0.83296 0.22577 0.0
C2604 C 0.27088 0.90823 0.16113 0.0
C2605 C 0.27761 0.90185 0.13807 0.0
C2606 C 0.27944 0.90052 0.1825 0.0
C2607 C 0.29512 0.88637 0.18148 0.0
C2608 C 0.30126 0.87933 0.15821 0.0
C2609 C 0.29256 0.8869 0.13678 0.0
C2610 C 0.31833 0.88804 0.24957 0.0
C2611 C 0.3221 0.86561 0.24942 0.0
C2612 C 0.31014 0.89487 0.2275 0.0
C2613 C 0.30525 0.8794 0.20468 0.0
C2614 C 0.30982 0.85721 0.20441 0.0
C2615 C 0.31822 0.85044 0.22651 0.0
H2616 H 0.04429 0.60588 0.89086 0.0
H2617 H 1.0248 0.6658 0.92772 0.0
H2618 H 0.05684 0.5963 0.93115 0.0
H2619 H 0.03722 0.65597 0.96831 0.0
H2620 H 0.07432 0.63538 0.03827 0.0
H2621 H 0.0693 0.64986 0.99862 0.0
H2622 H 0.03422 0.58131 0.96172 0.0
H2623 H 0.03925 0.56701 1.00096 0.0
C2624 C 0.04302 0.61725 0.90759 0.0
C2625 C 1.03327 0.63644 0.90608 0.0
C2626 C 0.05012 0.61168 0.93069 0.0
C2627 C 0.04761 0.6251 0.9529 0.0
C2628 C 0.03938 0.64529 0.95151 0.0
C2629 C 1.03226 0.65091 0.92827 0.0
C2630 C 0.06565 0.62347 0.02159 0.0
C2631 C 0.05713 0.60009 0.02264 0.0
C2632 C 0.06272 0.63175 0.99897 0.0
C2633 C 0.05151 0.6167 0.97701 0.0
C2634 C 0.04326 0.59329 0.97818 0.0
C2635 C 0.046 0.58511 1.00071 0.0
H2636 H 0.29786 0.21887 0.5361 0.0
H2637 H 0.3519 0.18651 0.55929 0.0
H2638 H 0.30918 0.24793 0.5734 0.0
H2639 H 0.36384 0.21633 0.59645 0.0
H2640 H 0.3497 0.24678 0.67448 0.0
H2641 H 0.34918 0.22379 0.63413 0.0
H2642 H 0.3352 0.28012 0.59777 0.0
H2643 H 0.33417 0.3025 0.63804 0.0
C2644 C 0.31249 0.21826 0.54888 0.0
C2645 C 0.32373 0.20014 0.54492 0.0
C2646 C 0.31916 0.23511 0.57025 0.0
C2647 C 0.33736 0.23441 0.58808 0.0
C2648 C 0.3495 0.21713 0.58331 0.0
C2649 C 0.3427 0.20011 0.56198 0.0
C2650 C 0.34661 0.25431 0.65788 0.0
C2651 C 0.34145 0.27626 0.65948 0.0
C2652 C 0.34666 0.24125 0.63471 0.0
C2653 C 0.3418 0.24997 0.61263 0.0
C2654 C 0.33852 0.2727 0.61439 0.0
C2655 C 0.33822 0.28566 0.63755 0.0
H2656 H 0.66197 0.59136 0.29093 0.0
H2657 H 0.6956 0.5423 0.25512 0.0
H2658 H 0.64171 0.59351 0.25082 0.0
H2659 H 0.67426 0.54319 0.21486 0.0
H2660 H 0.64996 0.56575 0.14198 0.0
H2661 H 0.66948 0.56231 0.18226 0.0
H2662 H 0.61467 0.57962 0.21742 0.0
H2663 H 0.59607 0.58446 0.17733 0.0
C2664 C 0.66466 0.58051 0.27453 0.0
C2665 C 0.68051 0.5666 0.27653 0.0
C2666 C 0.65286 0.58167 0.25123 0.0
C2667 C 0.65609 0.56862 0.22895 0.0
C2668 C 0.67144 0.55405 0.23115 0.0
C2669 C 0.68359 0.55325 0.25446 0.0
C2670 C 0.64213 0.5689 0.15836 0.0
C2671 C 0.62146 0.57556 0.15627 0.0
C2672 C 0.65328 0.5667 0.18166 0.0
C2673 C 0.64394 0.57063 0.20372 0.0
C2674 C 0.62299 0.57693 0.20137 0.0
C2675 C 0.6121 0.57959 0.17816 0.0
H2676 H 0.31363 0.87479 0.01557 0.0
H2677 H 0.24664 0.87379 0.98091 0.0
H2678 H 0.32146 0.8565 0.97637 0.0
H2679 H 0.25424 0.85456 0.94141 0.0
H2680 H 0.28858 0.85183 0.87004 0.0
H2681 H 0.27499 0.86318 0.90881 0.0
H2682 H 0.31542 0.82307 0.94626 0.0
H2683 H 0.32967 0.81262 0.9077 0.0
C2684 C 0.30036 0.87025 0.99965 0.0
C2685 C 0.27951 0.87588 1.00145 0.0
C2686 C 0.30482 0.85953 0.97706 0.0
C2687 C 0.28852 0.85393 0.95549 0.0
C2688 C 0.26733 0.85885 0.95747 0.0
C2689 C 0.26289 0.86971 0.98019 0.0
C2690 C 0.29428 0.84515 0.88648 0.0
C2691 C 0.31042 0.83156 0.8859 0.0
C2692 C 0.2864 0.85159 0.90877 0.0
C2693 C 0.29432 0.8444 0.93096 0.0
C2694 C 0.30936 0.8295 0.92981 0.0
C2695 C 0.31741 0.8233 0.90763 0.0
H2696 H 0.04171 0.62436 0.78943 0.0
H2697 H 0.9939 0.65045 0.74296 0.0
H2698 H 0.05673 0.61034 0.75245 0.0
H2699 H 1.009 0.63655 0.70627 0.0
H2700 H 0.08901 0.60834 0.67952 0.0
H2701 H 0.07679 0.6237 0.71793 0.0
H2702 H 1.00791 0.59702 0.68371 0.0
H2703 H 1.01998 0.58179 0.64538 0.0
C2704 C 0.03462 0.62742 0.77144 0.0
C2705 C 1.01644 0.63834 0.76917 0.0
C2706 C 0.04325 0.61939 0.75028 0.0
C2707 C 1.03378 0.62202 0.72646 0.0
C2708 C 1.01631 0.63385 0.72434 0.0
C2709 C 1.00779 0.64196 0.74543 0.0
C2710 C 0.07126 0.60558 0.68027 0.0
C2711 C 0.05546 0.5939 0.65935 0.0
C2712 C 0.06429 0.61435 0.70228 0.0
C2713 C 0.04141 0.61179 0.7037 0.0
C2714 C 1.02566 0.5996 0.68301 0.0
C2715 C 1.0326 0.59069 0.66111 0.0
H2716 H 0.25014 0.20565 0.43404 0.0
H2717 H 0.30828 0.18475 0.41005 0.0
H2718 H 0.25385 0.23568 0.40827 0.0
H2719 H 0.31171 0.21463 0.38379 0.0
H2720 H 0.32845 0.28874 0.36857 0.0
H2721 H 0.32254 0.25718 0.39238 0.0
H2722 H 0.25156 0.24288 0.36539 0.0
H2723 H 0.25745 0.27475 0.34191 0.0
C2724 C 0.26348 0.20718 0.42289 0.0
C2725 C 0.27904 0.19296 0.42421 0.0
C2726 C 0.26555 0.22437 0.40808 0.0
C2727 C 0.28324 0.22771 0.39428 0.0
C2728 C 0.29816 0.21273 0.39463 0.0
C2729 C 0.29606 0.19547 0.40944 0.0
C2730 C 0.31157 0.279 0.36797 0.0
C2731 C 0.29341 0.28409 0.35337 0.0
C2732 C 0.30821 0.26077 0.38134 0.0
C2733 C 0.28663 0.24732 0.38042 0.0
C2734 C 0.26838 0.25295 0.36648 0.0
C2735 C 0.27174 0.27119 0.35307 0.0
H2736 H 0.4539 0.70858 0.54571 0.0
H2737 H 0.43625 0.66875 0.60297 0.0
H2738 H 0.47946 0.68365 0.53435 0.0
H2739 H 0.46148 0.64397 0.59153 0.0
H2740 H 0.54451 0.65432 0.55541 0.0
H2741 H 0.51557 0.67665 0.5561 0.0
H2742 H 0.46629 0.61439 0.55587 0.0
H2743 H 0.49548 0.59192 0.55506 0.0
C2744 C 0.45547 0.69456 0.55585 0.0
C2745 C 0.44319 0.69079 0.57538 0.0
C2746 C 0.47001 0.68025 0.54929 0.0
C2747 C 0.47225 0.66168 0.56185 0.0
C2748 C 0.45981 0.65784 0.58118 0.0
C2749 C 0.44556 0.67227 0.58795 0.0
C2750 C 0.5274 0.64528 0.55475 0.0
C2751 C 0.52224 0.62141 0.55528 0.0
C2752 C 0.5108 0.65808 0.55509 0.0
C2753 C 0.48872 0.64733 0.55637 0.0
C2754 C 0.48325 0.62315 0.55516 0.0
C2755 C 0.49987 0.61025 0.55442 0.0
H2756 H 0.91773 1.00958 0.62285 0.0
H2757 H 0.94418 0.06625 0.68427 0.0
H2758 H 0.95386 1.01431 0.60937 0.0
H2759 H 0.98096 0.07075 0.67068 0.0
H2760 H 0.03431 0.08355 0.61551 0.0
H2761 H 1.00004 0.08179 0.63422 0.0
H2762 H 0.99032 1.00739 0.62544 0.0
H2763 H 1.02394 1.00913 0.60636 0.0
C2764 C 0.93129 0.02303 0.63361 0.0
C2765 C 0.92808 0.03742 0.6548 0.0
C2766 C 0.95208 0.02564 0.62591 0.0
C2767 C 0.97031 0.04265 0.6392 0.0
C2768 C 0.96715 0.05748 0.66011 0.0
C2769 C 0.94616 0.05485 0.66791 0.0
C2770 C 1.02485 0.06691 0.61782 0.0
C2771 C 1.03142 0.04643 0.60918 0.0
C2772 C 1.00539 0.06591 0.62863 0.0
C2773 C 0.99238 0.04443 0.63092 0.0
C2774 C 0.99975 0.02415 0.62342 0.0
C2775 C 1.01901 0.02514 0.61256 0.0
H2776 H 0.87352 0.14996 0.26814 0.0
H2777 H 0.92226 0.17453 0.33467 0.0
H2778 H 0.86089 0.18632 0.27383 0.0
H2779 H 0.90953 0.21091 0.34067 0.0
H2780 H 0.89491 0.28369 0.33461 0.0
H2781 H 0.90776 0.24733 0.32947 0.0
H2782 H 0.8413 0.21084 0.29461 0.0
H2783 H 0.82866 0.24716 0.29953 0.0
C2784 C 0.88157 0.16302 0.28415 0.0
C2785 C 0.89906 0.15872 0.30088 0.0
C2786 C 0.87416 0.18416 0.28757 0.0
C2787 C 0.8839 0.20232 0.30786 0.0
C2788 C 0.90146 0.19797 0.32458 0.0
C2789 C 0.90878 0.17675 0.32122 0.0
C2790 C 0.88292 0.26794 0.32592 0.0
C2791 C 0.86054 0.26893 0.31763 0.0
C2792 C 0.89035 0.24675 0.32301 0.0
C2793 C 0.87584 0.22537 0.31146 0.0
C2794 C 0.85343 0.22647 0.30326 0.0
C2795 C 0.846 0.2476 0.3063 0.0
H2796 H 0.84561 0.15985 0.0972 0.0
H2797 H 0.80546 0.18914 0.0452 0.0
H2798 H 0.813 0.12985 0.09869 0.0
H2799 H 0.77288 0.15937 0.04703 0.0
H2800 H 0.71936 0.0962 0.04497 0.0
H2801 H 0.75528 0.1177 0.03776 0.0
H2802 H 0.77897 0.13171 0.11711 0.0
H2803 H 0.74321 0.11055 0.12433 0.0
C2804 C 0.82994 0.15976 0.0859 0.0
C2805 C 0.82808 0.17707 0.07135 0.0
C2806 C 0.81124 0.14261 0.08678 0.0
C2807 C 0.79036 0.14237 0.07312 0.0
C2808 C 0.78878 0.15895 0.05758 0.0
C2809 C 0.80745 0.17612 0.05672 0.0
C2810 C 0.73234 0.10371 0.06083 0.0
C2811 C 0.72837 0.10183 0.08524 0.0
C2812 C 0.75288 0.11597 0.05669 0.0
C2813 C 0.76987 0.12649 0.07687 0.0
C2814 C 0.76632 0.12353 0.10113 0.0
C2815 C 0.74579 0.11137 0.10528 0.0
H2816 H 0.21519 0.45242 0.28709 0.0
H2817 H 0.20546 0.46108 0.36422 0.0
H2818 H 0.23195 0.41975 0.29279 0.0
H2819 H 0.22246 0.42792 0.36998 0.0
H2820 H 0.28623 0.39179 0.36906 0.0
H2821 H 0.26175 0.41948 0.36943 0.0
H2822 H 0.22188 0.37973 0.30105 0.0
H2823 H 0.24646 0.35272 0.30043 0.0
C2824 C 0.21641 0.44718 0.30525 0.0
C2825 C 0.20901 0.45938 0.3252 0.0
C2826 C 0.2259 0.42831 0.30848 0.0
C2827 C 0.22843 0.42115 0.33182 0.0
C2828 C 0.22076 0.43309 0.3518 0.0
C2829 C 0.21094 0.45195 0.34846 0.0
C2830 C 0.27191 0.38869 0.35447 0.0
C2831 C 0.26849 0.37023 0.33443 0.0
C2832 C 0.25785 0.4045 0.35472 0.0
C2833 C 0.24016 0.40203 0.33497 0.0
C2834 C 0.23565 0.38241 0.31625 0.0
C2835 C 0.24969 0.36683 0.31594 0.0
H2836 H 0.32575 0.5912 0.19794 0.0
H2837 H 0.31676 0.54859 0.12533 0.0
H2838 H 0.29555 0.60943 0.18293 0.0
H2839 H 0.28691 0.56677 0.11048 0.0
H2840 H 0.24725 0.61706 0.08484 0.0
H2841 H 0.28114 0.6058 0.10192 0.0
H2842 H 0.25339 0.59463 0.16877 0.0
H2843 H 0.2193 0.60528 0.15157 0.0
C2844 C 0.31747 0.58588 0.17878 0.0
C2845 C 0.32351 0.56841 0.16284 0.0
C2846 C 0.3002 0.59625 0.17024 0.0
C2847 C 0.28901 0.58957 0.14553 0.0
C2848 C 0.29545 0.57248 0.12951 0.0
C2849 C 0.31242 0.56194 0.1381 0.0
C2850 C 0.24838 0.61226 0.1032 0.0
C2851 C 0.23044 0.61185 0.1167 0.0
C2852 C 0.26782 0.60592 0.113 0.0
C2853 C 0.2698 0.59924 0.13659 0.0
C2854 C 0.25239 0.59995 0.15065 0.0
C2855 C 0.23287 0.6061 0.14077 0.0
H2856 H 0.92402 0.02383 0.34086 0.0
H2857 H 0.87385 0.02159 0.27791 0.0
H2858 H 0.90703 0.98479 0.34459 0.0
H2859 H 0.85675 0.98133 0.28122 0.0
H2860 H 0.8232 0.9107 0.30684 0.0
H2861 H 0.83647 0.95127 0.30158 0.0
H2862 H 0.9041 0.94691 0.32769 0.0
H2863 H 0.89091 0.90745 0.33346 0.0
C2864 C 0.90927 1.01503 0.32759 0.0
C2865 C 0.90069 0.02645 0.30891 0.0
C2866 C 0.89948 0.99212 0.32961 0.0
C2867 C 0.88056 0.97888 0.31287 0.0
C2868 C 0.87127 0.99048 0.2946 0.0
C2869 C 0.88113 1.0138 0.29267 0.0
C2870 C 0.8409 0.91846 0.31145 0.0
C2871 C 0.85582 0.90542 0.3209 0.0
C2872 C 0.84863 0.9419 0.30835 0.0
C2873 C 0.87157 0.95326 0.31461 0.0
C2874 C 0.88629 0.93973 0.32331 0.0
C2875 C 0.87865 0.91663 0.32647 0.0
H2876 H 0.72095 0.10138 0.85453 0.0
H2877 H 0.74814 0.05852 0.80141 0.0
H2878 H 0.74852 0.13516 0.8499 0.0
H2879 H 0.77567 0.09236 0.79687 0.0
H2880 H 0.78736 0.16317 0.76664 0.0
H2881 H 0.76941 0.12648 0.77687 0.0
H2882 H 0.78978 0.15387 0.85538 0.0
H2883 H 0.80845 0.19055 0.84522 0.0
C2884 C 0.73307 0.09906 0.84226 0.0
C2885 C 0.73213 0.0773 0.82809 0.0
C2886 C 0.74894 0.1184 0.83972 0.0
C2887 C 0.76408 0.11638 0.82285 0.0
C2888 C 0.76401 0.09442 0.8098 0.0
C2889 C 0.74828 0.07505 0.81249 0.0
C2890 C 0.78868 0.16123 0.78607 0.0
C2891 C 0.79917 0.17995 0.80509 0.0
C2892 C 0.77832 0.14017 0.79193 0.0
C2893 C 0.77808 0.13741 0.81692 0.0
C2894 C 0.78949 0.15567 0.83596 0.0
C2895 C 0.80008 0.17667 0.8301 0.0
loop_
_geom_bond_atom_site_label_1
_geom_bond_atom_site_label_2
_geom_bond_distance
_geom_bond_site_symmetry_2
_ccdc_geom_bond_type
O0 Cd1 2.223 . S
O0 C8 1.315 . S
Cd1 O0 2.223 . S
Cd1 O4 2.297 . S
Cd1 O5 2.439 . S
Cd1 O11 2.240 . S
Cd2 O3 2.240 . S
Cd2 O10 2.223 . S
Cd2 O12 2.297 . S
Cd2 O13 2.439 . S
O3 Cd2 2.240 . S
O3 C8 1.279 . S
O4 Cd1 2.297 . S
O4 C6 1.247 . S
O5 Cd1 2.439 . S
O5 C6 1.208 . S
C6 O4 1.247 . S
C6 O5 1.208 . S
C7 O12 1.247 . S
C7 O13 1.208 . S
C8 O0 1.315 . S
C8 O3 1.279 . S
C9 O10 1.315 . S
C9 O11 1.279 . S
O10 Cd2 2.223 . S
O10 C9 1.315 . S
O11 Cd1 2.240 . S
O11 C9 1.279 . S
O12 Cd2 2.297 . S
O12 C7 1.247 . S
O13 Cd2 2.439 . S
O13 C7 1.208 . S
O14 Cd15 2.218 1_455 S
O14 C22 1.314 1_455 S
Cd15 O14 2.218 1_655 S
Cd15 O18 2.297 . S
Cd15 O19 2.439 . S
Cd15 O25 2.240 1_655 S
Cd16 O17 2.240 1_455 S
Cd16 O24 2.223 . S
Cd16 O26 2.297 . S
Cd16 O27 2.414 1_455 S
O17 Cd16 2.240 1_655 S
O17 C22 1.279 . S
O18 Cd15 2.297 . S
O18 C20 1.247 . S
O19 Cd15 2.439 . S
O19 C20 1.208 . S
C20 O18 1.247 . S
C20 O19 1.208 . S
C21 O26 1.247 . S
C21 O27 1.180 1_455 S
C22 O14 1.314 1_655 S
C22 O17 1.279 . S
C23 O24 1.315 . S
C23 O25 1.279 . S
O24 Cd16 2.223 . S
O24 C23 1.315 . S
O25 Cd15 2.240 1_455 S
O25 C23 1.279 . S
O26 Cd16 2.297 . S
O26 C21 1.247 . S
O27 Cd16 2.414 1_655 S
O27 C21 1.180 1_655 S
O28 Cd29 2.223 . S
O28 C36 1.315 1_554 S
Cd29 O28 2.223 . S
Cd29 O32 2.297 . S
Cd29 O33 2.439 . S
Cd29 O39 2.240 . S
Cd30 O31 2.240 . S
Cd30 O38 2.223 . S
Cd30 O40 2.297 . S
Cd30 O41 2.439 . S
O31 Cd30 2.240 . S
O31 C36 1.279 . S
O32 Cd29 2.297 . S
O32 C34 1.247 . S
O33 Cd29 2.439 . S
O33 C34 1.208 . S
C34 O32 1.247 . S
C34 O33 1.208 . S
C35 O40 1.247 . S
C35 O41 1.208 . S
C36 O28 1.315 1_556 S
C36 O31 1.279 . S
C37 O38 1.315 1_554 S
C37 O39 1.279 . S
O38 Cd30 2.223 . S
O38 C37 1.315 1_556 S
O39 Cd29 2.240 . S
O39 C37 1.279 . S
O40 Cd30 2.297 . S
O40 C35 1.247 . S
O41 Cd30 2.439 . S
O41 C35 1.208 . S
O42 Cd43 2.223 . S
O42 C50 1.315 . S
Cd43 O42 2.223 . S
Cd43 O46 2.297 . S
Cd43 O47 2.439 . S
Cd43 O53 2.240 . S
Cd44 O45 2.240 . S
Cd44 O52 2.223 . S
Cd44 O54 2.297 . S
Cd44 O55 2.439 . S
O45 Cd44 2.240 . S
O45 C50 1.279 . S
O46 Cd43 2.297 . S
O46 C48 1.247 . S
O47 Cd43 2.439 . S
O47 C48 1.208 . S
C48 O46 1.247 . S
C48 O47 1.208 . S
C49 O54 1.247 . S
C49 O55 1.208 . S
C50 O42 1.315 . S
C50 O45 1.279 . S
C51 O52 1.315 . S
C51 O53 1.279 . S
O52 Cd44 2.223 . S
O52 C51 1.315 . S
O53 Cd43 2.240 . S
O53 C51 1.279 . S
O54 Cd44 2.297 . S
O54 C49 1.247 . S
O55 Cd44 2.439 . S
O55 C49 1.208 . S
O56 Cd57 2.223 . S
O56 C64 1.315 . S
Cd57 O56 2.223 . S
Cd57 O60 2.297 . S
Cd57 O61 2.439 . S
Cd57 O67 2.240 . S
Cd58 O59 2.240 . S
Cd58 O66 2.223 . S
Cd58 O68 2.297 . S
Cd58 O69 2.439 . S
O59 Cd58 2.240 . S
O59 C64 1.279 . S
O60 Cd57 2.297 . S
O60 C62 1.247 1_455 S
O61 Cd57 2.439 . S
O61 C62 1.208 1_455 S
C62 O60 1.247 1_655 S
C62 O61 1.208 1_655 S
C63 O68 1.247 . S
C63 O69 1.208 . S
C64 O56 1.315 . S
C64 O59 1.279 . S
C65 O66 1.315 . S
C65 O67 1.279 . S
O66 Cd58 2.223 . S
O66 C65 1.315 . S
O67 Cd57 2.240 . S
O67 C65 1.279 . S
O68 Cd58 2.297 . S
O68 C63 1.247 . S
O69 Cd58 2.439 . S
O69 C63 1.208 . S
O70 Cd71 2.223 . S
O70 C78 1.315 . S
Cd71 O70 2.223 . S
Cd71 O74 2.297 . S
Cd71 O75 2.439 . S
Cd71 O81 2.240 . S
Cd72 O73 2.240 . S
Cd72 O80 2.223 . S
Cd72 O82 2.297 . S
Cd72 O83 2.439 . S
O73 Cd72 2.240 . S
O73 C78 1.279 . S
O74 Cd71 2.297 . S
O74 C76 1.247 . S
O75 Cd71 2.439 . S
O75 C76 1.208 . S
C76 O74 1.247 . S
C76 O75 1.208 . S
C77 O82 1.247 . S
C77 O83 1.208 . S
C78 O70 1.315 . S
C78 O73 1.279 . S
C79 O80 1.315 . S
C79 O81 1.279 . S
O80 Cd72 2.223 . S
O80 C79 1.315 . S
O81 Cd71 2.240 . S
O81 C79 1.279 . S
O82 Cd72 2.297 . S
O82 C77 1.247 . S
O83 Cd72 2.439 . S
O83 C77 1.208 . S
O84 Cd85 2.223 . S
O84 C92 1.315 . S
Cd85 O84 2.223 . S
Cd85 O88 2.297 . S
Cd85 O89 2.439 . S
Cd85 O95 2.240 . S
Cd86 O87 2.240 . S
Cd86 O94 2.223 . S
Cd86 O96 2.297 . S
Cd86 O97 2.439 . S
O87 Cd86 2.240 . S
O87 C92 1.279 . S
O88 Cd85 2.297 . S
O88 C90 1.247 . S
O89 Cd85 2.439 . S
O89 C90 1.208 . S
C90 O88 1.247 . S
C90 O89 1.208 . S
C91 O96 1.247 . S
C91 O97 1.208 . S
C92 O84 1.315 . S
C92 O87 1.279 . S
C93 O94 1.315 . S
C93 O95 1.279 . S
O94 Cd86 2.223 . S
O94 C93 1.315 . S
O95 Cd85 2.240 . S
O95 C93 1.279 . S
O96 Cd86 2.297 . S
O96 C91 1.247 . S
O97 Cd86 2.439 . S
O97 C91 1.208 . S
O98 Cd99 2.223 . S
O98 C106 1.315 . S
Cd99 O98 2.223 . S
Cd99 O102 2.297 . S
Cd99 O103 2.439 . S
Cd99 O109 2.240 . S
Cd100 O101 2.240 . S
Cd100 O108 2.223 . S
Cd100 O110 2.297 . S
Cd100 O111 2.439 . S
O101 Cd100 2.240 . S
O101 C106 1.279 . S
O102 Cd99 2.297 . S
O102 C104 1.247 . S
O103 Cd99 2.439 . S
O103 C104 1.208 . S
C104 O102 1.247 . S
C104 O103 1.208 . S
C105 O110 1.247 . S
C105 O111 1.208 . S
C106 O98 1.315 . S
C106 O101 1.279 . S
C107 O108 1.315 . S
C107 O109 1.279 . S
O108 Cd100 2.223 . S
O108 C107 1.315 . S
O109 Cd99 2.240 . S
O109 C107 1.279 . S
O110 Cd100 2.297 . S
O110 C105 1.247 . S
O111 Cd100 2.439 . S
O111 C105 1.208 . S
O112 Cd113 2.223 . S
O112 C120 1.315 . S
Cd113 O112 2.223 . S
Cd113 O116 2.297 . S
Cd113 O117 2.439 . S
Cd113 O123 2.240 . S
Cd114 O115 2.240 . S
Cd114 O122 2.223 . S
Cd114 O124 2.297 . S
Cd114 O125 2.439 . S
O115 Cd114 2.240 . S
O115 C120 1.279 . S
O116 Cd113 2.297 . S
O116 C118 1.247 . S
O117 Cd113 2.439 . S
O117 C118 1.208 . S
C118 O116 1.247 . S
C118 O117 1.208 . S
C119 O124 1.247 . S
C119 O125 1.208 . S
C120 O112 1.315 . S
C120 O115 1.279 . S
C121 O122 1.315 . S
C121 O123 1.279 . S
O122 Cd114 2.223 . S
O122 C121 1.315 . S
O123 Cd113 2.240 . S
O123 C121 1.279 . S
O124 Cd114 2.297 . S
O124 C119 1.247 . S
O125 Cd114 2.439 . S
O125 C119 1.208 . S
O126 Cd127 2.223 . S
O126 C134 1.315 . S
Cd127 O126 2.223 . S
Cd127 O130 2.297 . S
Cd127 O131 2.439 . S
Cd127 O137 2.240 . S
Cd128 O129 2.240 . S
Cd128 O136 2.223 . S
Cd128 O138 2.297 . S
Cd128 O139 2.439 . S
O129 Cd128 2.240 . S
O129 C134 1.279 . S
O130 Cd127 2.297 . S
O130 C132 1.247 . S
O131 Cd127 2.439 . S
O131 C132 1.208 . S
C132 O130 1.247 . S
C132 O131 1.208 . S
C133 O138 1.247 . S
C133 O139 1.208 . S
C134 O126 1.315 . S
C134 O129 1.279 . S
C135 O136 1.315 . S
C135 O137 1.279 . S
O136 Cd128 2.223 . S
O136 C135 1.315 . S
O137 Cd127 2.240 . S
O137 C135 1.279 . S
O138 Cd128 2.297 . S
O138 C133 1.247 . S
O139 Cd128 2.439 . S
O139 C133 1.208 . S
O140 Cd141 2.223 . S
O140 C148 1.315 . S
Cd141 O140 2.223 . S
Cd141 O144 2.297 1_545 S
Cd141 O145 2.439 1_545 S
Cd141 O151 2.240 . S
Cd142 O143 2.240 . S
Cd142 O150 2.223 . S
Cd142 O152 2.297 . S
Cd142 O153 2.439 . S
O143 Cd142 2.240 . S
O143 C148 1.279 . S
O144 Cd141 2.297 1_565 S
O144 C146 1.247 . S
O145 Cd141 2.439 1_565 S
O145 C146 1.208 . S
C146 O144 1.247 . S
C146 O145 1.208 . S
C147 O152 1.247 . S
C147 O153 1.208 . S
C148 O140 1.315 . S
C148 O143 1.279 . S
C149 O150 1.315 . S
C149 O151 1.279 . S
O150 Cd142 2.223 . S
O150 C149 1.315 . S
O151 Cd141 2.240 . S
O151 C149 1.279 . S
O152 Cd142 2.297 . S
O152 C147 1.247 . S
O153 Cd142 2.439 . S
O153 C147 1.208 . S
O154 Cd155 2.223 . S
O154 C162 1.315 . S
Cd155 O154 2.223 . S
Cd155 O158 2.297 . S
Cd155 O159 2.439 . S
Cd155 O165 2.240 . S
Cd156 O157 2.240 . S
Cd156 O164 2.223 . S
Cd156 O166 2.297 . S
Cd156 O167 2.439 . S
O157 Cd156 2.240 . S
O157 C162 1.279 . S
O158 Cd155 2.297 . S
O158 C160 1.247 . S
O159 Cd155 2.439 . S
O159 C160 1.208 . S
C160 O158 1.247 . S
C160 O159 1.208 . S
C161 O166 1.247 . S
C161 O167 1.208 . S
C162 O154 1.315 . S
C162 O157 1.279 . S
C163 O164 1.315 . S
C163 O165 1.279 . S
O164 Cd156 2.223 . S
O164 C163 1.315 . S
O165 Cd155 2.240 . S
O165 C163 1.279 . S
O166 Cd156 2.297 . S
O166 C161 1.247 . S
O167 Cd156 2.439 . S
O167 C161 1.208 . S
O168 Cd169 2.223 . S
O168 C176 1.315 . S
Cd169 O168 2.223 . S
Cd169 O172 2.297 . S
Cd169 O173 2.439 . S
Cd169 O179 2.240 . S
Cd170 O171 2.240 . S
Cd170 O178 2.223 . S
Cd170 O180 2.297 . S
Cd170 O181 2.439 . S
O171 Cd170 2.240 . S
O171 C176 1.279 . S
O172 Cd169 2.297 . S
O172 C174 1.247 . S
O173 Cd169 2.439 . S
O173 C174 1.208 . S
C174 O172 1.247 . S
C174 O173 1.208 . S
C175 O180 1.247 . S
C175 O181 1.208 . S
C176 O168 1.315 . S
C176 O171 1.279 . S
C177 O178 1.315 . S
C177 O179 1.279 . S
O178 Cd170 2.223 . S
O178 C177 1.315 . S
O179 Cd169 2.240 . S
O179 C177 1.279 . S
O180 Cd170 2.297 . S
O180 C175 1.247 . S
O181 Cd170 2.439 . S
O181 C175 1.208 . S
O182 Cd183 2.223 . S
O182 C190 1.315 . S
Cd183 O182 2.223 . S
Cd183 O186 2.297 . S
Cd183 O187 2.439 . S
Cd183 O193 2.240 . S
Cd184 O185 2.240 . S
Cd184 O192 2.223 . S
Cd184 O194 2.297 . S
Cd184 O195 2.439 . S
O185 Cd184 2.240 . S
O185 C190 1.279 . S
O186 Cd183 2.297 . S
O186 C188 1.247 . S
O187 Cd183 2.439 . S
O187 C188 1.208 . S
C188 O186 1.247 . S
C188 O187 1.208 . S
C189 O194 1.247 . S
C189 O195 1.208 . S
C190 O182 1.315 . S
C190 O185 1.279 . S
C191 O192 1.315 . S
C191 O193 1.279 . S
O192 Cd184 2.223 . S
O192 C191 1.315 . S
O193 Cd183 2.240 . S
O193 C191 1.279 . S
O194 Cd184 2.297 . S
O194 C189 1.247 . S
O195 Cd184 2.439 . S
O195 C189 1.208 . S
O196 Cd197 2.223 . S
O196 C204 1.315 . S
Cd197 O196 2.223 . S
Cd197 O200 2.297 . S
Cd197 O201 2.439 . S
Cd197 O207 2.240 . S
Cd198 O199 2.240 . S
Cd198 O206 2.223 . S
Cd198 O208 2.297 . S
Cd198 O209 2.439 . S
O199 Cd198 2.240 . S
O199 C204 1.279 . S
O200 Cd197 2.297 . S
O200 C202 1.247 . S
O201 Cd197 2.439 . S
O201 C202 1.208 . S
C202 O200 1.247 . S
C202 O201 1.208 . S
C203 O208 1.247 . S
C203 O209 1.208 . S
C204 O196 1.315 . S
C204 O199 1.279 . S
C205 O206 1.315 . S
C205 O207 1.279 . S
O206 Cd198 2.223 . S
O206 C205 1.315 . S
O207 Cd197 2.240 . S
O207 C205 1.279 . S
O208 Cd198 2.297 . S
O208 C203 1.247 . S
O209 Cd198 2.439 . S
O209 C203 1.208 . S
O210 Cd211 2.225 . S
O210 C218 1.312 1_545 S
Cd211 O210 2.225 . S
Cd211 O214 2.297 . S
Cd211 O215 2.439 1_545 S
Cd211 O221 2.240 . S
Cd212 O213 2.240 . S
Cd212 O220 2.223 . S
Cd212 O222 2.297 . S
Cd212 O223 2.439 . S
O213 Cd212 2.240 . S
O213 C218 1.279 . S
O214 Cd211 2.297 . S
O214 C216 1.247 . S
O215 Cd211 2.439 1_565 S
O215 C216 1.208 1_565 S
C216 O214 1.247 . S
C216 O215 1.208 1_545 S
C217 O222 1.247 . S
C217 O223 1.208 . S
C218 O210 1.312 1_565 S
C218 O213 1.279 . S
C219 O220 1.315 . S
C219 O221 1.279 1_565 S
O220 Cd212 2.223 . S
O220 C219 1.315 . S
O221 Cd211 2.240 . S
O221 C219 1.279 1_545 S
O222 Cd212 2.297 . S
O222 C217 1.247 . S
O223 Cd212 2.439 . S
O223 C217 1.208 . S
O224 Cd225 2.223 . S
O224 C232 1.315 . S
Cd225 O224 2.223 . S
Cd225 O228 2.297 . S
Cd225 O229 2.439 . S
Cd225 O235 2.240 . S
Cd226 O227 2.240 . S
Cd226 O234 2.223 . S
Cd226 O236 2.297 . S
Cd226 O237 2.439 . S
O227 Cd226 2.240 . S
O227 C232 1.279 . S
O228 Cd225 2.297 . S
O228 C230 1.247 . S
O229 Cd225 2.439 . S
O229 C230 1.208 . S
C230 O228 1.247 . S
C230 O229 1.208 . S
C231 O236 1.247 . S
C231 O237 1.208 . S
C232 O224 1.315 . S
C232 O227 1.279 . S
C233 O234 1.315 . S
C233 O235 1.279 . S
O234 Cd226 2.223 . S
O234 C233 1.315 . S
O235 Cd225 2.240 . S
O235 C233 1.279 . S
O236 Cd226 2.297 . S
O236 C231 1.247 . S
O237 Cd226 2.439 . S
O237 C231 1.208 . S
O238 Cd239 2.223 . S
O238 C246 1.315 . S
Cd239 O238 2.223 . S
Cd239 O242 2.297 . S
Cd239 O243 2.439 . S
Cd239 O249 2.240 . S
Cd240 O241 2.240 . S
Cd240 O248 2.223 . S
Cd240 O250 2.297 . S
Cd240 O251 2.439 . S
O241 Cd240 2.240 . S
O241 C246 1.279 . S
O242 Cd239 2.297 . S
O242 C244 1.247 . S
O243 Cd239 2.439 . S
O243 C244 1.208 . S
C244 O242 1.247 . S
C244 O243 1.208 . S
C245 O250 1.247 . S
C245 O251 1.208 . S
C246 O238 1.315 . S
C246 O241 1.279 . S
C247 O248 1.315 . S
C247 O249 1.279 . S
O248 Cd240 2.223 . S
O248 C247 1.315 . S
O249 Cd239 2.240 . S
O249 C247 1.279 . S
O250 Cd240 2.297 . S
O250 C245 1.247 . S
O251 Cd240 2.439 . S
O251 C245 1.208 . S
O252 Cd253 2.223 . S
O252 C260 1.315 . S
Cd253 O252 2.223 . S
Cd253 O256 2.297 . S
Cd253 O257 2.439 . S
Cd253 O263 2.240 . S
Cd254 O255 2.240 . S
Cd254 O262 2.223 . S
Cd254 O264 2.297 . S
Cd254 O265 2.439 . S
O255 Cd254 2.240 . S
O255 C260 1.279 . S
O256 Cd253 2.297 . S
O256 C258 1.247 . S
O257 Cd253 2.439 . S
O257 C258 1.208 . S
C258 O256 1.247 . S
C258 O257 1.208 . S
C259 O264 1.247 . S
C259 O265 1.208 . S
C260 O252 1.315 . S
C260 O255 1.279 . S
C261 O262 1.315 . S
C261 O263 1.279 . S
O262 Cd254 2.223 . S
O262 C261 1.315 . S
O263 Cd253 2.240 . S
O263 C261 1.279 . S
O264 Cd254 2.297 . S
O264 C259 1.247 . S
O265 Cd254 2.439 . S
O265 C259 1.208 . S
O266 Cd267 2.206 1_545 S
O266 C274 1.315 1_545 S
Cd267 O266 2.206 1_565 S
Cd267 O270 2.338 . S
Cd267 O271 2.476 . S
Cd267 O277 2.206 1_565 S
Cd268 O269 2.240 1_545 S
Cd268 O276 2.223 . S
Cd268 O278 2.297 . S
Cd268 O279 2.425 1_545 S
O269 Cd268 2.240 1_565 S
O269 C274 1.279 . S
O270 Cd267 2.338 . S
O270 C272 1.247 . S
O271 Cd267 2.476 . S
O271 C272 1.208 . S
C272 O270 1.247 . S
C272 O271 1.208 . S
C273 O278 1.247 . S
C273 O279 1.191 1_545 S
C274 O266 1.315 1_565 S
C274 O269 1.279 . S
C275 O276 1.315 . S
C275 O277 1.279 . S
O276 Cd268 2.223 . S
O276 C275 1.315 . S
O277 Cd267 2.206 1_545 S
O277 C275 1.279 . S
O278 Cd268 2.297 . S
O278 C273 1.247 . S
O279 Cd268 2.425 1_565 S
O279 C273 1.191 1_565 S
O280 Cd281 2.223 . S
O280 C288 1.315 . S
Cd281 O280 2.223 . S
Cd281 O284 2.297 . S
Cd281 O285 2.439 1_554 S
Cd281 O291 2.240 1_554 S
Cd282 O283 2.240 1_556 S
Cd282 O290 2.223 1_556 S
Cd282 O292 2.297 . S
Cd282 O293 2.439 . S
O283 Cd282 2.240 1_554 S
O283 C288 1.279 . S
O284 Cd281 2.297 . S
O284 C286 1.247 . S
O285 Cd281 2.439 1_556 S
O285 C286 1.208 1_556 S
C286 O284 1.247 . S
C286 O285 1.208 1_554 S
C287 O292 1.247 . S
C287 O293 1.208 . S
C288 O280 1.315 . S
C288 O283 1.279 . S
C289 O290 1.315 1_556 S
C289 O291 1.279 . S
O290 Cd282 2.223 1_554 S
O290 C289 1.315 1_554 S
O291 Cd281 2.240 1_556 S
O291 C289 1.279 . S
O292 Cd282 2.297 . S
O292 C287 1.247 . S
O293 Cd282 2.439 . S
O293 C287 1.208 . S
O294 Cd295 2.223 . S
O294 C302 1.315 . S
Cd295 O294 2.223 . S
Cd295 O298 2.297 . S
Cd295 O299 2.439 . S
Cd295 O305 2.240 . S
Cd296 O297 2.240 . S
Cd296 O304 2.223 . S
Cd296 O306 2.297 . S
Cd296 O307 2.439 . S
O297 Cd296 2.240 . S
O297 C302 1.279 . S
O298 Cd295 2.297 . S
O298 C300 1.247 . S
O299 Cd295 2.439 . S
O299 C300 1.208 . S
C300 O298 1.247 . S
C300 O299 1.208 . S
C301 O306 1.247 . S
C301 O307 1.208 . S
C302 O294 1.315 . S
C302 O297 1.279 . S
C303 O304 1.315 . S
C303 O305 1.279 . S
O304 Cd296 2.223 . S
O304 C303 1.315 . S
O305 Cd295 2.240 . S
O305 C303 1.279 . S
O306 Cd296 2.297 . S
O306 C301 1.247 . S
O307 Cd296 2.439 . S
O307 C301 1.208 . S
O308 Cd309 2.223 . S
O308 C316 1.315 . S
Cd309 O308 2.223 . S
Cd309 O312 2.297 . S
Cd309 O313 2.439 . S
Cd309 O319 2.240 . S
Cd310 O311 2.240 . S
Cd310 O318 2.223 . S
Cd310 O320 2.297 . S
Cd310 O321 2.439 . S
O311 Cd310 2.240 . S
O311 C316 1.279 . S
O312 Cd309 2.297 . S
O312 C314 1.247 . S
O313 Cd309 2.439 . S
O313 C314 1.208 . S
C314 O312 1.247 . S
C314 O313 1.208 . S
C315 O320 1.247 . S
C315 O321 1.208 . S
C316 O308 1.315 . S
C316 O311 1.279 . S
C317 O318 1.315 . S
C317 O319 1.279 . S
O318 Cd310 2.223 . S
O318 C317 1.315 . S
O319 Cd309 2.240 . S
O319 C317 1.279 . S
O320 Cd310 2.297 . S
O320 C315 1.247 . S
O321 Cd310 2.439 . S
O321 C315 1.208 . S
O322 Cd323 2.223 . S
O322 C330 1.315 . S
Cd323 O322 2.223 . S
Cd323 O326 2.297 . S
Cd323 O327 2.439 . S
Cd323 O333 2.240 . S
Cd324 O325 2.240 . S
Cd324 O332 2.223 . S
Cd324 O334 2.297 . S
Cd324 O335 2.439 . S
O325 Cd324 2.240 . S
O325 C330 1.279 . S
O326 Cd323 2.297 . S
O326 C328 1.247 . S
O327 Cd323 2.439 . S
O327 C328 1.208 . S
C328 O326 1.247 . S
C328 O327 1.208 . S
C329 O334 1.247 . S
C329 O335 1.208 . S
C330 O322 1.315 . S
C330 O325 1.279 . S
C331 O332 1.315 . S
C331 O333 1.279 . S
O332 Cd324 2.223 . S
O332 C331 1.315 . S
O333 Cd323 2.240 . S
O333 C331 1.279 . S
O334 Cd324 2.297 . S
O334 C329 1.247 . S
O335 Cd324 2.439 . S
O335 C329 1.208 . S
Nd336 C338 2.836 . S
Nd336 O356 2.500 . S
Nd336 O357 2.492 . S
Nd336 O358 2.487 . S
Nd336 O359 2.682 . S
Nd336 O360 2.410 . S
Nd336 O365 2.414 . S
Nd336 O367 2.424 . S
Nd337 C347 2.836 1_545 S
Nd337 O359 2.414 . S
Nd337 O361 2.424 . S
Nd337 O362 2.500 . S
Nd337 O363 2.492 . S
Nd337 O364 2.487 . S
Nd337 O365 2.682 . S
Nd337 O366 2.410 . S
C338 Nd336 2.836 . S
C338 C339 1.498 . S
C338 O356 1.258 . S
C338 O357 1.239 . S
C339 C338 1.498 . S
C339 C340 1.366 . S
C339 C344 1.407 . S
C340 C339 1.366 . S
C340 C341 1.392 . S
C340 H368 0.930 . S
C341 C340 1.392 . S
C341 C342 1.398 . S
C341 H369 0.929 . S
C342 C341 1.398 . S
C342 C343 1.352 . S
C343 C342 1.352 . S
C343 C344 1.384 . S
C343 H370 0.930 . S
C344 C339 1.407 . S
C344 C343 1.384 . S
C344 H371 0.929 . S
C345 O358 1.241 . S
C345 O359 1.273 . S
C346 O360 1.251 . S
C346 O361 1.268 . S
C347 Nd337 2.836 1_565 S
C347 C348 1.498 . S
C347 O362 1.258 1_565 S
C347 O363 1.239 1_565 S
C348 C347 1.498 . S
C348 C349 1.366 . S
C348 C353 1.407 . S
C349 C348 1.366 . S
C349 C350 1.392 . S
C349 H372 0.930 . S
C350 C349 1.392 . S
C350 C351 1.398 . S
C350 H373 0.929 . S
C351 C350 1.398 . S
C351 C352 1.352 . S
C352 C351 1.352 . S
C352 C353 1.384 . S
C352 H374 0.930 . S
C353 C348 1.407 . S
C353 C352 1.384 . S
C353 H375 0.929 . S
C354 O364 1.241 . S
C354 O365 1.273 . S
C355 O366 1.251 . S
C355 O367 1.268 . S
O356 Nd336 2.500 . S
O356 C338 1.258 . S
O357 Nd336 2.492 . S
O357 C338 1.239 . S
O358 Nd336 2.487 . S
O358 C345 1.241 . S
O359 Nd336 2.682 . S
O359 Nd337 2.414 . S
O359 C345 1.273 . S
O360 Nd336 2.410 . S
O360 C346 1.251 . S
O361 Nd337 2.424 . S
O361 C346 1.268 . S
O362 Nd337 2.500 . S
O362 C347 1.258 1_545 S
O363 Nd337 2.492 . S
O363 C347 1.239 1_545 S
O364 Nd337 2.487 . S
O364 C354 1.241 . S
O365 Nd336 2.414 . S
O365 Nd337 2.682 . S
O365 C354 1.273 . S
O366 Nd337 2.410 . S
O366 C355 1.251 . S
O367 Nd336 2.424 . S
O367 C355 1.268 . S
H368 C340 0.930 . S
H369 C341 0.929 . S
H370 C343 0.930 . S
H371 C344 0.929 . S
H372 C349 0.930 . S
H373 C350 0.929 . S
H374 C352 0.930 . S
H375 C353 0.929 . S
Nd376 C378 2.836 . S
Nd376 O396 2.500 . S
Nd376 O397 2.492 . S
Nd376 O398 2.487 . S
Nd376 O399 2.682 . S
Nd376 O400 2.410 . S
Nd376 O405 2.414 . S
Nd376 O407 2.424 . S
Nd377 C387 2.836 . S
Nd377 O399 2.414 . S
Nd377 O401 2.424 . S
Nd377 O402 2.500 . S
Nd377 O403 2.492 . S
Nd377 O404 2.487 . S
Nd377 O405 2.682 . S
Nd377 O406 2.410 . S
C378 Nd376 2.836 . S
C378 C379 1.498 . S
C378 O396 1.258 . S
C378 O397 1.239 . S
C379 C378 1.498 . S
C379 C380 1.366 . S
C379 C384 1.407 . S
C380 C379 1.366 . S
C380 C381 1.392 . S
C380 H408 0.930 . S
C381 C380 1.392 . S
C381 C382 1.398 . S
C381 H409 0.929 . S
C382 C381 1.398 . S
C382 C383 1.352 . S
C383 C382 1.352 . S
C383 C384 1.384 . S
C383 H410 0.930 . S
C384 C379 1.407 . S
C384 C383 1.384 . S
C384 H411 0.929 . S
C385 O398 1.241 . S
C385 O399 1.273 . S
C386 O400 1.251 . S
C386 O401 1.268 . S
C387 Nd377 2.836 . S
C387 C388 1.498 . S
C387 O402 1.258 . S
C387 O403 1.239 . S
C388 C387 1.498 . S
C388 C389 1.366 . S
C388 C393 1.407 . S
C389 C388 1.366 . S
C389 C390 1.392 . S
C389 H412 0.930 . S
C390 C389 1.392 . S
C390 C391 1.398 . S
C390 H413 0.929 . S
C391 C390 1.398 . S
C391 C392 1.352 . S
C392 C391 1.352 . S
C392 C393 1.384 . S
C392 H414 0.930 . S
C393 C388 1.407 . S
C393 C392 1.384 . S
C393 H415 0.929 . S
C394 O404 1.241 . S
C394 O405 1.273 . S
C395 O406 1.251 . S
C395 O407 1.268 . S
O396 Nd376 2.500 . S
O396 C378 1.258 . S
O397 Nd376 2.492 . S
O397 C378 1.239 . S
O398 Nd376 2.487 . S
O398 C385 1.241 . S
O399 Nd376 2.682 . S
O399 Nd377 2.414 . S
O399 C385 1.273 . S
O400 Nd376 2.410 . S
O400 C386 1.251 . S
O401 Nd377 2.424 . S
O401 C386 1.268 . S
O402 Nd377 2.500 . S
O402 C387 1.258 . S
O403 Nd377 2.492 . S
O403 C387 1.239 . S
O404 Nd377 2.487 . S
O404 C394 1.241 . S
O405 Nd376 2.414 . S
O405 Nd377 2.682 . S
O405 C394 1.273 . S
O406 Nd377 2.410 . S
O406 C395 1.251 . S
O407 Nd376 2.424 . S
O407 C395 1.268 . S
H408 C380 0.930 . S
H409 C381 0.929 . S
H410 C383 0.930 . S
H411 C384 0.929 . S
H412 C389 0.930 . S
H413 C390 0.929 . S
H414 C392 0.930 . S
H415 C393 0.929 . S
Nd416 C418 2.836 . S
Nd416 O436 2.500 . S
Nd416 O437 2.492 . S
Nd416 O438 2.487 . S
Nd416 O439 2.682 . S
Nd416 O440 2.410 . S
Nd416 O445 2.414 . S
Nd416 O447 2.424 . S
Nd417 C427 2.836 . S
Nd417 O439 2.414 . S
Nd417 O441 2.424 . S
Nd417 O442 2.500 . S
Nd417 O443 2.492 . S
Nd417 O444 2.487 . S
Nd417 O445 2.682 . S
Nd417 O446 2.410 . S
C418 Nd416 2.836 . S
C418 C419 1.498 . S
C418 O436 1.258 . S
C418 O437 1.239 . S
C419 C418 1.498 . S
C419 C420 1.366 . S
C419 C424 1.407 . S
C420 C419 1.366 . S
C420 C421 1.392 . S
C420 H448 0.930 . S
C421 C420 1.392 . S
C421 C422 1.398 . S
C421 H449 0.929 . S
C422 C421 1.398 . S
C422 C423 1.352 . S
C423 C422 1.352 . S
C423 C424 1.384 . S
C423 H450 0.930 . S
C424 C419 1.407 . S
C424 C423 1.384 . S
C424 H451 0.929 . S
C425 O438 1.241 . S
C425 O439 1.273 . S
C426 O440 1.251 . S
C426 O441 1.268 . S
C427 Nd417 2.836 . S
C427 C428 1.498 . S
C427 O442 1.258 . S
C427 O443 1.239 . S
C428 C427 1.498 . S
C428 C429 1.366 . S
C428 C433 1.407 . S
C429 C428 1.366 . S
C429 C430 1.392 . S
C429 H452 0.930 . S
C430 C429 1.392 . S
C430 C431 1.398 . S
C430 H453 0.929 . S
C431 C430 1.398 . S
C431 C432 1.352 . S
C432 C431 1.352 . S
C432 C433 1.384 . S
C432 H454 0.930 . S
C433 C428 1.407 . S
C433 C432 1.384 . S
C433 H455 0.929 . S
C434 O444 1.241 . S
C434 O445 1.273 . S
C435 O446 1.251 . S
C435 O447 1.268 . S
O436 Nd416 2.500 . S
O436 C418 1.258 . S
O437 Nd416 2.492 . S
O437 C418 1.239 . S
O438 Nd416 2.487 . S
O438 C425 1.241 . S
O439 Nd416 2.682 . S
O439 Nd417 2.414 . S
O439 C425 1.273 . S
O440 Nd416 2.410 . S
O440 C426 1.251 . S
O441 Nd417 2.424 . S
O441 C426 1.268 . S
O442 Nd417 2.500 . S
O442 C427 1.258 . S
O443 Nd417 2.492 . S
O443 C427 1.239 . S
O444 Nd417 2.487 . S
O444 C434 1.241 . S
O445 Nd416 2.414 . S
O445 Nd417 2.682 . S
O445 C434 1.273 . S
O446 Nd417 2.410 . S
O446 C435 1.251 . S
O447 Nd416 2.424 . S
O447 C435 1.268 . S
H448 C420 0.930 . S
H449 C421 0.929 . S
H450 C423 0.930 . S
H451 C424 0.929 . S
H452 C429 0.930 . S
H453 C430 0.929 . S
H454 C432 0.930 . S
H455 C433 0.929 . S
Nd456 C458 2.836 . S
Nd456 O476 2.500 . S
Nd456 O477 2.492 . S
Nd456 O478 2.487 . S
Nd456 O479 2.682 . S
Nd456 O480 2.410 . S
Nd456 O485 2.414 . S
Nd456 O487 2.424 . S
Nd457 C467 2.836 . S
Nd457 O479 2.414 . S
Nd457 O481 2.424 . S
Nd457 O482 2.500 . S
Nd457 O483 2.492 . S
Nd457 O484 2.487 . S
Nd457 O485 2.682 . S
Nd457 O486 2.410 . S
C458 Nd456 2.836 . S
C458 C459 1.498 . S
C458 O476 1.258 . S
C458 O477 1.239 . S
C459 C458 1.498 . S
C459 C460 1.366 . S
C459 C464 1.407 . S
C460 C459 1.366 . S
C460 C461 1.392 . S
C460 H488 0.930 . S
C461 C460 1.392 . S
C461 C462 1.398 . S
C461 H489 0.929 . S
C462 C461 1.398 . S
C462 C463 1.352 . S
C463 C462 1.352 . S
C463 C464 1.384 . S
C463 H490 0.930 . S
C464 C459 1.407 . S
C464 C463 1.384 . S
C464 H491 0.929 . S
C465 O478 1.241 . S
C465 O479 1.273 . S
C466 O480 1.251 . S
C466 O481 1.268 . S
C467 Nd457 2.836 . S
C467 C468 1.498 . S
C467 O482 1.258 . S
C467 O483 1.239 . S
C468 C467 1.498 . S
C468 C469 1.366 . S
C468 C473 1.407 . S
C469 C468 1.366 . S
C469 C470 1.392 . S
C469 H492 0.930 . S
C470 C469 1.392 . S
C470 C471 1.398 . S
C470 H493 0.929 . S
C471 C470 1.398 . S
C471 C472 1.352 . S
C472 C471 1.352 . S
C472 C473 1.384 . S
C472 H494 0.930 . S
C473 C468 1.407 . S
C473 C472 1.384 . S
C473 H495 0.929 . S
C474 O484 1.241 . S
C474 O485 1.273 . S
C475 O486 1.251 . S
C475 O487 1.268 . S
O476 Nd456 2.500 . S
O476 C458 1.258 . S
O477 Nd456 2.492 . S
O477 C458 1.239 . S
O478 Nd456 2.487 . S
O478 C465 1.241 . S
O479 Nd456 2.682 . S
O479 Nd457 2.414 . S
O479 C465 1.273 . S
O480 Nd456 2.410 . S
O480 C466 1.251 . S
O481 Nd457 2.424 . S
O481 C466 1.268 . S
O482 Nd457 2.500 . S
O482 C467 1.258 . S
O483 Nd457 2.492 . S
O483 C467 1.239 . S
O484 Nd457 2.487 . S
O484 C474 1.241 . S
O485 Nd456 2.414 . S
O485 Nd457 2.682 . S
O485 C474 1.273 . S
O486 Nd457 2.410 . S
O486 C475 1.251 . S
O487 Nd456 2.424 . S
O487 C475 1.268 . S
H488 C460 0.930 . S
H489 C461 0.929 . S
H490 C463 0.930 . S
H491 C464 0.929 . S
H492 C469 0.930 . S
H493 C470 0.929 . S
H494 C472 0.930 . S
H495 C473 0.929 . S
Nd496 C498 2.836 . S
Nd496 O516 2.500 . S
Nd496 O517 2.492 . S
Nd496 O518 2.487 . S
Nd496 O519 2.682 . S
Nd496 O520 2.410 . S
Nd496 O525 2.414 . S
Nd496 O527 2.424 . S
Nd497 C507 2.836 1_545 S
Nd497 O519 2.414 . S
Nd497 O521 2.424 . S
Nd497 O522 2.500 . S
Nd497 O523 2.492 1_545 S
Nd497 O524 2.487 . S
Nd497 O525 2.682 . S
Nd497 O526 2.410 . S
C498 Nd496 2.836 . S
C498 C499 1.498 . S
C498 O516 1.258 . S
C498 O517 1.239 . S
C499 C498 1.498 . S
C499 C500 1.366 . S
C499 C504 1.407 . S
C500 C499 1.366 . S
C500 C501 1.392 . S
C500 H528 0.930 . S
C501 C500 1.392 . S
C501 C502 1.398 . S
C501 H529 0.929 . S
C502 C501 1.398 . S
C502 C503 1.352 . S
C503 C502 1.352 . S
C503 C504 1.384 . S
C503 H530 0.930 . S
C504 C499 1.407 . S
C504 C503 1.384 . S
C504 H531 0.929 . S
C505 O518 1.241 . S
C505 O519 1.273 . S
C506 O520 1.251 . S
C506 O521 1.268 . S
C507 Nd497 2.836 1_565 S
C507 C508 1.498 . S
C507 O522 1.258 1_565 S
C507 O523 1.239 . S
C508 C507 1.498 . S
C508 C509 1.366 . S
C508 C513 1.407 . S
C509 C508 1.366 . S
C509 C510 1.392 . S
C509 H532 0.930 . S
C510 C509 1.392 . S
C510 C511 1.398 . S
C510 H533 0.929 . S
C511 C510 1.398 . S
C511 C512 1.352 . S
C512 C511 1.352 . S
C512 C513 1.384 . S
C512 H534 0.930 . S
C513 C508 1.407 . S
C513 C512 1.384 . S
C513 H535 0.929 . S
C514 O524 1.241 . S
C514 O525 1.273 . S
C515 O526 1.251 . S
C515 O527 1.268 . S
O516 Nd496 2.500 . S
O516 C498 1.258 . S
O517 Nd496 2.492 . S
O517 C498 1.239 . S
O518 Nd496 2.487 . S
O518 C505 1.241 . S
O519 Nd496 2.682 . S
O519 Nd497 2.414 . S
O519 C505 1.273 . S
O520 Nd496 2.410 . S
O520 C506 1.251 . S
O521 Nd497 2.424 . S
O521 C506 1.268 . S
O522 Nd497 2.500 . S
O522 C507 1.258 1_545 S
O523 Nd497 2.492 1_565 S
O523 C507 1.239 . S
O524 Nd497 2.487 . S
O524 C514 1.241 . S
O525 Nd496 2.414 . S
O525 Nd497 2.682 . S
O525 C514 1.273 . S
O526 Nd497 2.410 . S
O526 C515 1.251 . S
O527 Nd496 2.424 . S
O527 C515 1.268 . S
H528 C500 0.930 . S
H529 C501 0.929 . S
H530 C503 0.930 . S
H531 C504 0.929 . S
H532 C509 0.930 . S
H533 C510 0.929 . S
H534 C512 0.930 . S
H535 C513 0.929 . S
Nd536 C538 2.836 . S
Nd536 O556 2.500 . S
Nd536 O557 2.492 . S
Nd536 O558 2.487 . S
Nd536 O559 2.682 . S
Nd536 O560 2.410 . S
Nd536 O565 2.414 . S
Nd536 O567 2.424 . S
Nd537 C547 2.836 . S
Nd537 O559 2.414 . S
Nd537 O561 2.424 . S
Nd537 O562 2.500 . S
Nd537 O563 2.492 . S
Nd537 O564 2.487 . S
Nd537 O565 2.682 . S
Nd537 O566 2.410 . S
C538 Nd536 2.836 . S
C538 C539 1.498 . S
C538 O556 1.258 . S
C538 O557 1.239 . S
C539 C538 1.498 . S
C539 C540 1.366 . S
C539 C544 1.407 . S
C540 C539 1.366 . S
C540 C541 1.392 . S
C540 H568 0.930 . S
C541 C540 1.392 . S
C541 C542 1.398 . S
C541 H569 0.929 . S
C542 C541 1.398 . S
C542 C543 1.352 . S
C543 C542 1.352 . S
C543 C544 1.384 . S
C543 H570 0.930 . S
C544 C539 1.407 . S
C544 C543 1.384 . S
C544 H571 0.929 . S
C545 O558 1.241 . S
C545 O559 1.273 . S
C546 O560 1.251 . S
C546 O561 1.268 . S
C547 Nd537 2.836 . S
C547 C548 1.498 . S
C547 O562 1.258 . S
C547 O563 1.239 . S
C548 C547 1.498 . S
C548 C549 1.366 . S
C548 C553 1.407 . S
C549 C548 1.366 . S
C549 C550 1.392 . S
C549 H572 0.930 . S
C550 C549 1.392 . S
C550 C551 1.398 . S
C550 H573 0.929 . S
C551 C550 1.398 . S
C551 C552 1.352 . S
C552 C551 1.352 . S
C552 C553 1.384 . S
C552 H574 0.930 . S
C553 C548 1.407 . S
C553 C552 1.384 . S
C553 H575 0.929 . S
C554 O564 1.241 . S
C554 O565 1.273 . S
C555 O566 1.251 . S
C555 O567 1.268 . S
O556 Nd536 2.500 . S
O556 C538 1.258 . S
O557 Nd536 2.492 . S
O557 C538 1.239 . S
O558 Nd536 2.487 . S
O558 C545 1.241 . S
O559 Nd536 2.682 . S
O559 Nd537 2.414 . S
O559 C545 1.273 . S
O560 Nd536 2.410 . S
O560 C546 1.251 . S
O561 Nd537 2.424 . S
O561 C546 1.268 . S
O562 Nd537 2.500 . S
O562 C547 1.258 . S
O563 Nd537 2.492 . S
O563 C547 1.239 . S
O564 Nd537 2.487 . S
O564 C554 1.241 . S
O565 Nd536 2.414 . S
O565 Nd537 2.682 . S
O565 C554 1.273 . S
O566 Nd537 2.410 . S
O566 C555 1.251 . S
O567 Nd536 2.424 . S
O567 C555 1.268 . S
H568 C540 0.930 . S
H569 C541 0.929 . S
H570 C543 0.930 . S
H571 C544 0.929 . S
H572 C549 0.930 . S
H573 C550 0.929 . S
H574 C552 0.930 . S
H575 C553 0.929 . S
Nd576 C578 2.836 . S
Nd576 O596 2.500 . S
Nd576 O597 2.492 . S
Nd576 O598 2.487 . S
Nd576 O599 2.682 . S
Nd576 O600 2.410 . S
Nd576 O605 2.414 . S
Nd576 O607 2.424 . S
Nd577 C587 2.836 . S
Nd577 O599 2.414 . S
Nd577 O601 2.424 . S
Nd577 O602 2.500 . S
Nd577 O603 2.492 . S
Nd577 O604 2.487 . S
Nd577 O605 2.682 . S
Nd577 O606 2.410 . S
C578 Nd576 2.836 . S
C578 C579 1.498 . S
C578 O596 1.258 . S
C578 O597 1.239 . S
C579 C578 1.498 . S
C579 C580 1.366 . S
C579 C584 1.407 . S
C580 C579 1.366 . S
C580 C581 1.392 . S
C580 H608 0.930 . S
C581 C580 1.392 . S
C581 C582 1.398 . S
C581 H609 0.929 . S
C582 C581 1.398 . S
C582 C583 1.352 1_545 S
C583 C582 1.352 1_565 S
C583 C584 1.384 1_565 S
C583 H610 0.930 . S
C584 C579 1.407 . S
C584 C583 1.384 1_545 S
C584 H611 0.929 1_545 S
C585 O598 1.241 . S
C585 O599 1.273 . S
C586 O600 1.251 . S
C586 O601 1.268 . S
C587 Nd577 2.836 . S
C587 C588 1.498 . S
C587 O602 1.258 . S
C587 O603 1.239 . S
C588 C587 1.498 . S
C588 C589 1.366 . S
C588 C593 1.407 . S
C589 C588 1.366 . S
C589 C590 1.392 . S
C589 H612 0.930 . S
C590 C589 1.392 . S
C590 C591 1.398 . S
C590 H613 0.929 . S
C591 C590 1.398 . S
C591 C592 1.352 . S
C592 C591 1.352 . S
C592 C593 1.384 . S
C592 H614 0.930 . S
C593 C588 1.407 . S
C593 C592 1.384 . S
C593 H615 0.929 . S
C594 O604 1.241 . S
C594 O605 1.273 . S
C595 O606 1.251 . S
C595 O607 1.268 . S
O596 Nd576 2.500 . S
O596 C578 1.258 . S
O597 Nd576 2.492 . S
O597 C578 1.239 . S
O598 Nd576 2.487 . S
O598 C585 1.241 . S
O599 Nd576 2.682 . S
O599 Nd577 2.414 . S
O599 C585 1.273 . S
O600 Nd576 2.410 . S
O600 C586 1.251 . S
O601 Nd577 2.424 . S
O601 C586 1.268 . S
O602 Nd577 2.500 . S
O602 C587 1.258 . S
O603 Nd577 2.492 . S
O603 C587 1.239 . S
O604 Nd577 2.487 . S
O604 C594 1.241 . S
O605 Nd576 2.414 . S
O605 Nd577 2.682 . S
O605 C594 1.273 . S
O606 Nd577 2.410 . S
O606 C595 1.251 . S
O607 Nd576 2.424 . S
O607 C595 1.268 . S
H608 C580 0.930 . S
H609 C581 0.929 . S
H610 C583 0.930 . S
H611 C584 0.929 1_565 S
H612 C589 0.930 . S
H613 C590 0.929 . S
H614 C592 0.930 . S
H615 C593 0.929 . S
Nd616 C618 2.836 . S
Nd616 O636 2.500 . S
Nd616 O637 2.492 . S
Nd616 O638 2.487 . S
Nd616 O639 2.682 . S
Nd616 O640 2.410 . S
Nd616 O645 2.414 . S
Nd616 O647 2.424 . S
Nd617 C627 2.836 . S
Nd617 O639 2.414 . S
Nd617 O641 2.424 . S
Nd617 O642 2.500 . S
Nd617 O643 2.492 . S
Nd617 O644 2.487 . S
Nd617 O645 2.682 . S
Nd617 O646 2.410 . S
C618 Nd616 2.836 . S
C618 C619 1.498 . S
C618 O636 1.258 . S
C618 O637 1.239 . S
C619 C618 1.498 . S
C619 C620 1.366 . S
C619 C624 1.407 . S
C620 C619 1.366 . S
C620 C621 1.392 . S
C620 H648 0.930 . S
C621 C620 1.392 . S
C621 C622 1.398 . S
C621 H649 0.929 . S
C622 C621 1.398 . S
C622 C623 1.352 . S
C623 C622 1.352 . S
C623 C624 1.384 . S
C623 H650 0.930 . S
C624 C619 1.407 . S
C624 C623 1.384 . S
C624 H651 0.929 . S
C625 O638 1.241 . S
C625 O639 1.273 . S
C626 O640 1.251 . S
C626 O641 1.268 . S
C627 Nd617 2.836 . S
C627 C628 1.498 . S
C627 O642 1.258 . S
C627 O643 1.239 . S
C628 C627 1.498 . S
C628 C629 1.366 . S
C628 C633 1.407 . S
C629 C628 1.366 . S
C629 C630 1.392 . S
C629 H652 0.930 . S
C630 C629 1.392 . S
C630 C631 1.398 . S
C630 H653 0.929 . S
C631 C630 1.398 . S
C631 C632 1.352 . S
C632 C631 1.352 . S
C632 C633 1.384 . S
C632 H654 0.930 . S
C633 C628 1.407 . S
C633 C632 1.384 . S
C633 H655 0.929 . S
C634 O644 1.241 . S
C634 O645 1.273 . S
C635 O646 1.251 . S
C635 O647 1.268 . S
O636 Nd616 2.500 . S
O636 C618 1.258 . S
O637 Nd616 2.492 . S
O637 C618 1.239 . S
O638 Nd616 2.487 . S
O638 C625 1.241 . S
O639 Nd616 2.682 . S
O639 Nd617 2.414 . S
O639 C625 1.273 . S
O640 Nd616 2.410 . S
O640 C626 1.251 . S
O641 Nd617 2.424 . S
O641 C626 1.268 . S
O642 Nd617 2.500 . S
O642 C627 1.258 . S
O643 Nd617 2.492 . S
O643 C627 1.239 . S
O644 Nd617 2.487 . S
O644 C634 1.241 . S
O645 Nd616 2.414 . S
O645 Nd617 2.682 . S
O645 C634 1.273 . S
O646 Nd617 2.410 . S
O646 C635 1.251 . S
O647 Nd616 2.424 . S
O647 C635 1.268 . S
H648 C620 0.930 . S
H649 C621 0.929 . S
H650 C623 0.930 . S
H651 C624 0.929 . S
H652 C629 0.930 . S
H653 C630 0.929 . S
H654 C632 0.930 . S
H655 C633 0.929 . S
Nd656 C658 2.836 . S
Nd656 O676 2.500 . S
Nd656 O677 2.492 . S
Nd656 O678 2.487 . S
Nd656 O679 2.682 . S
Nd656 O680 2.410 . S
Nd656 O685 2.414 . S
Nd656 O687 2.424 . S
Nd657 C667 2.836 . S
Nd657 O679 2.414 . S
Nd657 O681 2.424 . S
Nd657 O682 2.500 . S
Nd657 O683 2.492 . S
Nd657 O684 2.487 . S
Nd657 O685 2.682 . S
Nd657 O686 2.410 . S
C658 Nd656 2.836 . S
C658 C659 1.498 . S
C658 O676 1.258 . S
C658 O677 1.239 . S
C659 C658 1.498 . S
C659 C660 1.366 . S
C659 C664 1.407 . S
C660 C659 1.366 . S
C660 C661 1.392 . S
C660 H688 0.930 . S
C661 C660 1.392 . S
C661 C662 1.398 . S
C661 H689 0.929 . S
C662 C661 1.398 . S
C662 C663 1.352 . S
C663 C662 1.352 . S
C663 C664 1.384 . S
C663 H690 0.930 . S
C664 C659 1.407 . S
C664 C663 1.384 . S
C664 H691 0.929 . S
C665 O678 1.241 . S
C665 O679 1.273 . S
C666 O680 1.251 . S
C666 O681 1.268 . S
C667 Nd657 2.836 . S
C667 C668 1.498 . S
C667 O682 1.258 . S
C667 O683 1.239 . S
C668 C667 1.498 . S
C668 C669 1.366 . S
C668 C673 1.407 . S
C669 C668 1.366 . S
C669 C670 1.392 . S
C669 H692 0.930 . S
C670 C669 1.392 . S
C670 C671 1.398 . S
C670 H693 0.929 . S
C671 C670 1.398 . S
C671 C672 1.352 . S
C672 C671 1.352 . S
C672 C673 1.384 . S
C672 H694 0.930 . S
C673 C668 1.407 . S
C673 C672 1.384 . S
C673 H695 0.929 . S
C674 O684 1.241 . S
C674 O685 1.273 . S
C675 O686 1.251 . S
C675 O687 1.268 . S
O676 Nd656 2.500 . S
O676 C658 1.258 . S
O677 Nd656 2.492 . S
O677 C658 1.239 . S
O678 Nd656 2.487 . S
O678 C665 1.241 . S
O679 Nd656 2.682 . S
O679 Nd657 2.414 . S
O679 C665 1.273 . S
O680 Nd656 2.410 . S
O680 C666 1.251 . S
O681 Nd657 2.424 . S
O681 C666 1.268 . S
O682 Nd657 2.500 . S
O682 C667 1.258 . S
O683 Nd657 2.492 . S
O683 C667 1.239 . S
O684 Nd657 2.487 . S
O684 C674 1.241 . S
O685 Nd656 2.414 . S
O685 Nd657 2.682 . S
O685 C674 1.273 . S
O686 Nd657 2.410 . S
O686 C675 1.251 . S
O687 Nd656 2.424 . S
O687 C675 1.268 . S
H688 C660 0.930 . S
H689 C661 0.929 . S
H690 C663 0.930 . S
H691 C664 0.929 . S
H692 C669 0.930 . S
H693 C670 0.929 . S
H694 C672 0.930 . S
H695 C673 0.929 . S
Nd696 C698 2.836 . S
Nd696 O716 2.500 . S
Nd696 O717 2.492 . S
Nd696 O718 2.487 . S
Nd696 O719 2.682 . S
Nd696 O720 2.410 . S
Nd696 O725 2.414 . S
Nd696 O727 2.424 . S
Nd697 C707 2.836 . S
Nd697 O719 2.414 . S
Nd697 O721 2.424 . S
Nd697 O722 2.500 . S
Nd697 O723 2.492 . S
Nd697 O724 2.487 . S
Nd697 O725 2.682 . S
Nd697 O726 2.410 . S
C698 Nd696 2.836 . S
C698 C699 1.498 . S
C698 O716 1.258 . S
C698 O717 1.239 . S
C699 C698 1.498 . S
C699 C700 1.366 . S
C699 C704 1.407 . S
C700 C699 1.366 . S
C700 C701 1.392 . S
C700 H728 0.930 . S
C701 C700 1.392 . S
C701 C702 1.398 . S
C701 H729 0.929 . S
C702 C701 1.398 . S
C702 C703 1.352 . S
C703 C702 1.352 . S
C703 C704 1.384 . S
C703 H730 0.930 . S
C704 C699 1.407 . S
C704 C703 1.384 . S
C704 H731 0.929 . S
C705 O718 1.241 . S
C705 O719 1.273 . S
C706 O720 1.251 . S
C706 O721 1.268 . S
C707 Nd697 2.836 . S
C707 C708 1.498 . S
C707 O722 1.258 . S
C707 O723 1.239 . S
C708 C707 1.498 . S
C708 C709 1.366 . S
C708 C713 1.407 . S
C709 C708 1.366 . S
C709 C710 1.392 . S
C709 H732 0.930 . S
C710 C709 1.392 . S
C710 C711 1.398 . S
C710 H733 0.929 . S
C711 C710 1.398 . S
C711 C712 1.352 . S
C712 C711 1.352 . S
C712 C713 1.384 . S
C712 H734 0.930 . S
C713 C708 1.407 . S
C713 C712 1.384 . S
C713 H735 0.929 . S
C714 O724 1.241 . S
C714 O725 1.273 . S
C715 O726 1.251 . S
C715 O727 1.268 . S
O716 Nd696 2.500 . S
O716 C698 1.258 . S
O717 Nd696 2.492 . S
O717 C698 1.239 . S
O718 Nd696 2.487 . S
O718 C705 1.241 . S
O719 Nd696 2.682 . S
O719 Nd697 2.414 . S
O719 C705 1.273 . S
O720 Nd696 2.410 . S
O720 C706 1.251 . S
O721 Nd697 2.424 . S
O721 C706 1.268 . S
O722 Nd697 2.500 . S
O722 C707 1.258 . S
O723 Nd697 2.492 . S
O723 C707 1.239 . S
O724 Nd697 2.487 . S
O724 C714 1.241 . S
O725 Nd696 2.414 . S
O725 Nd697 2.682 . S
O725 C714 1.273 . S
O726 Nd697 2.410 . S
O726 C715 1.251 . S
O727 Nd696 2.424 . S
O727 C715 1.268 . S
H728 C700 0.930 . S
H729 C701 0.929 . S
H730 C703 0.930 . S
H731 C704 0.929 . S
H732 C709 0.930 . S
H733 C710 0.929 . S
H734 C712 0.930 . S
H735 C713 0.929 . S
Nd736 C738 2.836 1_455 S
Nd736 O756 2.500 1_455 S
Nd736 O757 2.492 1_455 S
Nd736 O758 2.487 . S
Nd736 O759 2.682 . S
Nd736 O760 2.410 . S
Nd736 O765 2.414 . S
Nd736 O767 2.424 . S
Nd737 C747 2.836 . S
Nd737 O759 2.414 . S
Nd737 O761 2.424 . S
Nd737 O762 2.500 . S
Nd737 O763 2.492 . S
Nd737 O764 2.487 . S
Nd737 O765 2.682 . S
Nd737 O766 2.410 . S
C738 Nd736 2.836 1_655 S
C738 C739 1.498 . S
C738 O756 1.258 . S
C738 O757 1.239 . S
C739 C738 1.498 . S
C739 C740 1.366 . S
C739 C744 1.407 . S
C740 C739 1.366 . S
C740 C741 1.392 . S
C740 H768 0.930 . S
C741 C740 1.392 . S
C741 C742 1.398 . S
C741 H769 0.929 . S
C742 C741 1.398 . S
C742 C743 1.352 . S
C743 C742 1.352 . S
C743 C744 1.384 . S
C743 H770 0.930 . S
C744 C739 1.407 . S
C744 C743 1.384 . S
C744 H771 0.929 . S
C745 O758 1.241 . S
C745 O759 1.273 . S
C746 O760 1.251 . S
C746 O761 1.268 . S
C747 Nd737 2.836 . S
C747 C748 1.498 . S
C747 O762 1.258 . S
C747 O763 1.239 . S
C748 C747 1.498 . S
C748 C749 1.366 . S
C748 C753 1.407 . S
C749 C748 1.366 . S
C749 C750 1.392 . S
C749 H772 0.930 . S
C750 C749 1.392 . S
C750 C751 1.398 . S
C750 H773 0.929 . S
C751 C750 1.398 . S
C751 C752 1.352 . S
C752 C751 1.352 . S
C752 C753 1.384 . S
C752 H774 0.930 . S
C753 C748 1.407 . S
C753 C752 1.384 . S
C753 H775 0.929 . S
C754 O764 1.241 . S
C754 O765 1.273 . S
C755 O766 1.251 . S
C755 O767 1.268 . S
O756 Nd736 2.500 1_655 S
O756 C738 1.258 . S
O757 Nd736 2.492 1_655 S
O757 C738 1.239 . S
O758 Nd736 2.487 . S
O758 C745 1.241 . S
O759 Nd736 2.682 . S
O759 Nd737 2.414 . S
O759 C745 1.273 . S
O760 Nd736 2.410 . S
O760 C746 1.251 . S
O761 Nd737 2.424 . S
O761 C746 1.268 . S
O762 Nd737 2.500 . S
O762 C747 1.258 . S
O763 Nd737 2.492 . S
O763 C747 1.239 . S
O764 Nd737 2.487 . S
O764 C754 1.241 . S
O765 Nd736 2.414 . S
O765 Nd737 2.682 . S
O765 C754 1.273 . S
O766 Nd737 2.410 . S
O766 C755 1.251 . S
O767 Nd736 2.424 . S
O767 C755 1.268 . S
H768 C740 0.930 . S
H769 C741 0.929 . S
H770 C743 0.930 . S
H771 C744 0.929 . S
H772 C749 0.930 . S
H773 C750 0.929 . S
H774 C752 0.930 . S
H775 C753 0.929 . S
Nd776 C778 2.836 . S
Nd776 O796 2.500 . S
Nd776 O797 2.492 . S
Nd776 O798 2.487 . S
Nd776 O799 2.682 . S
Nd776 O800 2.410 . S
Nd776 O805 2.414 . S
Nd776 O807 2.424 . S
Nd777 C787 2.836 . S
Nd777 O799 2.414 . S
Nd777 O801 2.424 . S
Nd777 O802 2.500 . S
Nd777 O803 2.492 . S
Nd777 O804 2.487 . S
Nd777 O805 2.682 . S
Nd777 O806 2.410 . S
C778 Nd776 2.836 . S
C778 C779 1.498 . S
C778 O796 1.258 . S
C778 O797 1.239 . S
C779 C778 1.498 . S
C779 C780 1.366 . S
C779 C784 1.407 . S
C780 C779 1.366 . S
C780 C781 1.392 . S
C780 H808 0.930 . S
C781 C780 1.392 . S
C781 C782 1.398 . S
C781 H809 0.929 . S
C782 C781 1.398 . S
C782 C783 1.352 . S
C783 C782 1.352 . S
C783 C784 1.384 . S
C783 H810 0.930 . S
C784 C779 1.407 . S
C784 C783 1.384 . S
C784 H811 0.929 . S
C785 O798 1.241 . S
C785 O799 1.273 . S
C786 O800 1.251 . S
C786 O801 1.268 . S
C787 Nd777 2.836 . S
C787 C788 1.498 . S
C787 O802 1.258 . S
C787 O803 1.239 . S
C788 C787 1.498 . S
C788 C789 1.366 . S
C788 C793 1.407 . S
C789 C788 1.366 . S
C789 C790 1.392 . S
C789 H812 0.930 . S
C790 C789 1.392 . S
C790 C791 1.398 . S
C790 H813 0.929 . S
C791 C790 1.398 . S
C791 C792 1.352 . S
C792 C791 1.352 . S
C792 C793 1.384 . S
C792 H814 0.930 . S
C793 C788 1.407 . S
C793 C792 1.384 . S
C793 H815 0.929 . S
C794 O804 1.241 . S
C794 O805 1.273 . S
C795 O806 1.251 . S
C795 O807 1.268 . S
O796 Nd776 2.500 . S
O796 C778 1.258 . S
O797 Nd776 2.492 . S
O797 C778 1.239 . S
O798 Nd776 2.487 . S
O798 C785 1.241 . S
O799 Nd776 2.682 . S
O799 Nd777 2.414 . S
O799 C785 1.273 . S
O800 Nd776 2.410 . S
O800 C786 1.251 . S
O801 Nd777 2.424 . S
O801 C786 1.268 . S
O802 Nd777 2.500 . S
O802 C787 1.258 . S
O803 Nd777 2.492 . S
O803 C787 1.239 . S
O804 Nd777 2.487 . S
O804 C794 1.241 . S
O805 Nd776 2.414 . S
O805 Nd777 2.682 . S
O805 C794 1.273 . S
O806 Nd777 2.410 . S
O806 C795 1.251 . S
O807 Nd776 2.424 . S
O807 C795 1.268 . S
H808 C780 0.930 . S
H809 C781 0.929 . S
H810 C783 0.930 . S
H811 C784 0.929 . S
H812 C789 0.930 . S
H813 C790 0.929 . S
H814 C792 0.930 . S
H815 C793 0.929 . S
Nd816 C818 2.836 . S
Nd816 O836 2.500 . S
Nd816 O837 2.492 . S
Nd816 O838 2.487 . S
Nd816 O839 2.682 . S
Nd816 O840 2.410 . S
Nd816 O845 2.414 . S
Nd816 O847 2.424 . S
Nd817 C827 2.836 . S
Nd817 O839 2.414 . S
Nd817 O841 2.424 . S
Nd817 O842 2.500 . S
Nd817 O843 2.492 . S
Nd817 O844 2.487 . S
Nd817 O845 2.682 . S
Nd817 O846 2.410 . S
C818 Nd816 2.836 . S
C818 C819 1.498 . S
C818 O836 1.258 . S
C818 O837 1.239 . S
C819 C818 1.498 . S
C819 C820 1.366 . S
C819 C824 1.407 . S
C820 C819 1.366 . S
C820 C821 1.392 . S
C820 H848 0.930 . S
C821 C820 1.392 . S
C821 C822 1.398 . S
C821 H849 0.929 . S
C822 C821 1.398 . S
C822 C823 1.352 . S
C823 C822 1.352 . S
C823 C824 1.384 . S
C823 H850 0.930 . S
C824 C819 1.407 . S
C824 C823 1.384 . S
C824 H851 0.929 . S
C825 O838 1.241 . S
C825 O839 1.273 . S
C826 O840 1.251 . S
C826 O841 1.268 . S
C827 Nd817 2.836 . S
C827 C828 1.498 . S
C827 O842 1.258 . S
C827 O843 1.239 . S
C828 C827 1.498 . S
C828 C829 1.366 . S
C828 C833 1.407 . S
C829 C828 1.366 . S
C829 C830 1.392 . S
C829 H852 0.930 . S
C830 C829 1.392 . S
C830 C831 1.398 . S
C830 H853 0.929 . S
C831 C830 1.398 . S
C831 C832 1.352 . S
C832 C831 1.352 . S
C832 C833 1.384 . S
C832 H854 0.930 . S
C833 C828 1.407 . S
C833 C832 1.384 . S
C833 H855 0.929 . S
C834 O844 1.241 . S
C834 O845 1.273 . S
C835 O846 1.251 . S
C835 O847 1.268 . S
O836 Nd816 2.500 . S
O836 C818 1.258 . S
O837 Nd816 2.492 . S
O837 C818 1.239 . S
O838 Nd816 2.487 . S
O838 C825 1.241 . S
O839 Nd816 2.682 . S
O839 Nd817 2.414 . S
O839 C825 1.273 . S
O840 Nd816 2.410 . S
O840 C826 1.251 . S
O841 Nd817 2.424 . S
O841 C826 1.268 . S
O842 Nd817 2.500 . S
O842 C827 1.258 . S
O843 Nd817 2.492 . S
O843 C827 1.239 . S
O844 Nd817 2.487 . S
O844 C834 1.241 . S
O845 Nd816 2.414 . S
O845 Nd817 2.682 . S
O845 C834 1.273 . S
O846 Nd817 2.410 . S
O846 C835 1.251 . S
O847 Nd816 2.424 . S
O847 C835 1.268 . S
H848 C820 0.930 . S
H849 C821 0.929 . S
H850 C823 0.930 . S
H851 C824 0.929 . S
H852 C829 0.930 . S
H853 C830 0.929 . S
H854 C832 0.930 . S
H855 C833 0.929 . S
Nd856 C858 2.836 . S
Nd856 O876 2.500 . S
Nd856 O877 2.492 . S
Nd856 O878 2.487 . S
Nd856 O879 2.682 . S
Nd856 O880 2.410 . S
Nd856 O885 2.414 . S
Nd856 O887 2.424 . S
Nd857 C867 2.836 . S
Nd857 O879 2.414 . S
Nd857 O881 2.424 . S
Nd857 O882 2.500 . S
Nd857 O883 2.492 . S
Nd857 O884 2.487 . S
Nd857 O885 2.682 . S
Nd857 O886 2.410 . S
C858 Nd856 2.836 . S
C858 C859 1.498 . S
C858 O876 1.258 . S
C858 O877 1.239 . S
C859 C858 1.498 . S
C859 C860 1.366 . S
C859 C864 1.407 . S
C860 C859 1.366 . S
C860 C861 1.392 . S
C860 H888 0.930 . S
C861 C860 1.392 . S
C861 C862 1.398 . S
C861 H889 0.929 . S
C862 C861 1.398 . S
C862 C863 1.352 . S
C863 C862 1.352 . S
C863 C864 1.384 . S
C863 H890 0.930 . S
C864 C859 1.407 . S
C864 C863 1.384 . S
C864 H891 0.929 . S
C865 O878 1.241 . S
C865 O879 1.273 . S
C866 O880 1.251 . S
C866 O881 1.268 . S
C867 Nd857 2.836 . S
C867 C868 1.498 . S
C867 O882 1.258 . S
C867 O883 1.239 . S
C868 C867 1.498 . S
C868 C869 1.366 . S
C868 C873 1.407 . S
C869 C868 1.366 . S
C869 C870 1.392 . S
C869 H892 0.930 . S
C870 C869 1.392 . S
C870 C871 1.398 . S
C870 H893 0.929 . S
C871 C870 1.398 . S
C871 C872 1.352 . S
C872 C871 1.352 . S
C872 C873 1.384 . S
C872 H894 0.930 . S
C873 C868 1.407 . S
C873 C872 1.384 . S
C873 H895 0.929 . S
C874 O884 1.241 . S
C874 O885 1.273 . S
C875 O886 1.251 . S
C875 O887 1.268 . S
O876 Nd856 2.500 . S
O876 C858 1.258 . S
O877 Nd856 2.492 . S
O877 C858 1.239 . S
O878 Nd856 2.487 . S
O878 C865 1.241 . S
O879 Nd856 2.682 . S
O879 Nd857 2.414 . S
O879 C865 1.273 . S
O880 Nd856 2.410 . S
O880 C866 1.251 . S
O881 Nd857 2.424 . S
O881 C866 1.268 . S
O882 Nd857 2.500 . S
O882 C867 1.258 . S
O883 Nd857 2.492 . S
O883 C867 1.239 . S
O884 Nd857 2.487 . S
O884 C874 1.241 . S
O885 Nd856 2.414 . S
O885 Nd857 2.682 . S
O885 C874 1.273 . S
O886 Nd857 2.410 . S
O886 C875 1.251 . S
O887 Nd856 2.424 . S
O887 C875 1.268 . S
H888 C860 0.930 . S
H889 C861 0.929 . S
H890 C863 0.930 . S
H891 C864 0.929 . S
H892 C869 0.930 . S
H893 C870 0.929 . S
H894 C872 0.930 . S
H895 C873 0.929 . S
Nd896 C898 2.836 . S
Nd896 O916 2.500 . S
Nd896 O917 2.492 . S
Nd896 O918 2.487 . S
Nd896 O919 2.682 . S
Nd896 O920 2.410 . S
Nd896 O925 2.414 . S
Nd896 O927 2.424 . S
Nd897 C907 2.836 . S
Nd897 O919 2.414 . S
Nd897 O921 2.424 . S
Nd897 O922 2.500 . S
Nd897 O923 2.492 . S
Nd897 O924 2.487 . S
Nd897 O925 2.682 . S
Nd897 O926 2.410 . S
C898 Nd896 2.836 . S
C898 C899 1.498 . S
C898 O916 1.258 . S
C898 O917 1.239 . S
C899 C898 1.498 . S
C899 C900 1.366 . S
C899 C904 1.407 . S
C900 C899 1.366 . S
C900 C901 1.392 . S
C900 H928 0.930 . S
C901 C900 1.392 . S
C901 C902 1.398 . S
C901 H929 0.929 . S
C902 C901 1.398 . S
C902 C903 1.352 . S
C903 C902 1.352 . S
C903 C904 1.384 . S
C903 H930 0.930 . S
C904 C899 1.407 . S
C904 C903 1.384 . S
C904 H931 0.929 . S
C905 O918 1.241 . S
C905 O919 1.273 . S
C906 O920 1.251 . S
C906 O921 1.268 . S
C907 Nd897 2.836 . S
C907 C908 1.498 . S
C907 O922 1.258 . S
C907 O923 1.239 . S
C908 C907 1.498 . S
C908 C909 1.366 . S
C908 C913 1.407 . S
C909 C908 1.366 . S
C909 C910 1.392 . S
C909 H932 0.930 . S
C910 C909 1.392 . S
C910 C911 1.398 . S
C910 H933 0.929 . S
C911 C910 1.398 . S
C911 C912 1.352 . S
C912 C911 1.352 . S
C912 C913 1.384 . S
C912 H934 0.930 . S
C913 C908 1.407 . S
C913 C912 1.384 . S
C913 H935 0.929 . S
C914 O924 1.241 . S
C914 O925 1.273 . S
C915 O926 1.251 . S
C915 O927 1.268 . S
O916 Nd896 2.500 . S
O916 C898 1.258 . S
O917 Nd896 2.492 . S
O917 C898 1.239 . S
O918 Nd896 2.487 . S
O918 C905 1.241 . S
O919 Nd896 2.682 . S
O919 Nd897 2.414 . S
O919 C905 1.273 . S
O920 Nd896 2.410 . S
O920 C906 1.251 . S
O921 Nd897 2.424 . S
O921 C906 1.268 . S
O922 Nd897 2.500 . S
O922 C907 1.258 . S
O923 Nd897 2.492 . S
O923 C907 1.239 . S
O924 Nd897 2.487 . S
O924 C914 1.241 . S
O925 Nd896 2.414 . S
O925 Nd897 2.682 . S
O925 C914 1.273 . S
O926 Nd897 2.410 . S
O926 C915 1.251 . S
O927 Nd896 2.424 . S
O927 C915 1.268 . S
H928 C900 0.930 . S
H929 C901 0.929 . S
H930 C903 0.930 . S
H931 C904 0.929 . S
H932 C909 0.930 . S
H933 C910 0.929 . S
H934 C912 0.930 . S
H935 C913 0.929 . S
Nd936 C938 2.836 . S
Nd936 O956 2.500 . S
Nd936 O957 2.492 . S
Nd936 O958 2.487 . S
Nd936 O959 2.682 . S
Nd936 O960 2.410 . S
Nd936 O965 2.414 . S
Nd936 O967 2.424 . S
Nd937 C947 2.836 1_455 S
Nd937 O959 2.414 . S
Nd937 O961 2.424 . S
Nd937 O962 2.500 1_455 S
Nd937 O963 2.492 1_455 S
Nd937 O964 2.487 . S
Nd937 O965 2.682 . S
Nd937 O966 2.410 . S
C938 Nd936 2.836 . S
C938 C939 1.498 . S
C938 O956 1.258 . S
C938 O957 1.239 . S
C939 C938 1.498 . S
C939 C940 1.366 . S
C939 C944 1.407 . S
C940 C939 1.366 . S
C940 C941 1.392 . S
C940 H968 0.930 . S
C941 C940 1.392 . S
C941 C942 1.398 . S
C941 H969 0.929 . S
C942 C941 1.398 . S
C942 C943 1.352 . S
C943 C942 1.352 . S
C943 C944 1.384 . S
C943 H970 0.930 . S
C944 C939 1.407 . S
C944 C943 1.384 . S
C944 H971 0.929 . S
C945 O958 1.241 . S
C945 O959 1.273 . S
C946 O960 1.251 . S
C946 O961 1.268 . S
C947 Nd937 2.836 1_655 S
C947 C948 1.498 . S
C947 O962 1.258 . S
C947 O963 1.239 . S
C948 C947 1.498 . S
C948 C949 1.366 . S
C948 C953 1.407 . S
C949 C948 1.366 . S
C949 C950 1.392 . S
C949 H972 0.930 . S
C950 C949 1.392 . S
C950 C951 1.398 . S
C950 H973 0.929 . S
C951 C950 1.398 . S
C951 C952 1.352 . S
C952 C951 1.352 . S
C952 C953 1.384 . S
C952 H974 0.930 . S
C953 C948 1.407 . S
C953 C952 1.384 . S
C953 H975 0.929 . S
C954 O964 1.241 . S
C954 O965 1.273 . S
C955 O966 1.251 . S
C955 O967 1.268 . S
O956 Nd936 2.500 . S
O956 C938 1.258 . S
O957 Nd936 2.492 . S
O957 C938 1.239 . S
O958 Nd936 2.487 . S
O958 C945 1.241 . S
O959 Nd936 2.682 . S
O959 Nd937 2.414 . S
O959 C945 1.273 . S
O960 Nd936 2.410 . S
O960 C946 1.251 . S
O961 Nd937 2.424 . S
O961 C946 1.268 . S
O962 Nd937 2.500 1_655 S
O962 C947 1.258 . S
O963 Nd937 2.492 1_655 S
O963 C947 1.239 . S
O964 Nd937 2.487 . S
O964 C954 1.241 . S
O965 Nd936 2.414 . S
O965 Nd937 2.682 . S
O965 C954 1.273 . S
O966 Nd937 2.410 . S
O966 C955 1.251 . S
O967 Nd936 2.424 . S
O967 C955 1.268 . S
H968 C940 0.930 . S
H969 C941 0.929 . S
H970 C943 0.930 . S
H971 C944 0.929 . S
H972 C949 0.930 . S
H973 C950 0.929 . S
H974 C952 0.930 . S
H975 C953 0.929 . S
H976 C984 0.950 . S
H977 C989 0.950 . S
H978 C986 0.950 . S
H979 C988 0.950 1_554 S
H980 C990 0.950 . S
H981 C992 0.950 . S
H982 C994 0.990 . S
H983 C995 0.950 . S
C984 H976 0.950 . S
C984 C985 1.386 . S
C984 C986 1.391 . S
C985 C984 1.386 . S
C985 C989 1.393 . S
C986 H978 0.950 . S
C986 C984 1.391 . S
C986 C987 1.400 . S
C987 C986 1.400 . S
C987 C988 1.398 . S
C987 C993 1.491 1_556 S
C988 H979 0.950 1_556 S
C988 C987 1.398 . S
C988 C989 1.391 . S
C989 H977 0.950 . S
C989 C985 1.393 . S
C989 C988 1.391 . S
C990 H980 0.950 . S
C990 C991 1.386 . S
C990 C992 1.391 . S
C991 C990 1.386 . S
C991 C995 1.393 . S
C992 H981 0.950 . S
C992 C990 1.391 . S
C992 C993 1.400 . S
C993 C987 1.491 1_554 S
C993 C992 1.400 . S
C993 C994 1.398 1_554 S
C994 H982 0.990 . S
C994 C993 1.398 1_556 S
C994 C995 1.354 1_556 S
C995 H983 0.950 . S
C995 C991 1.393 . S
C995 C994 1.354 1_554 S
H996 C1004 0.950 . S
H997 C1009 0.950 . S
H998 C1006 0.950 . S
H999 C1008 0.950 . S
H1000 C1010 0.950 . S
H1001 C1012 0.950 . S
H1002 C1014 0.950 . S
H1003 C1015 0.950 . S
C1004 H996 0.950 . S
C1004 C1005 1.386 . S
C1004 C1006 1.391 . S
C1005 C1004 1.386 . S
C1005 C1009 1.393 . S
C1006 H998 0.950 . S
C1006 C1004 1.391 . S
C1006 C1007 1.400 . S
C1007 C1006 1.400 . S
C1007 C1008 1.398 . S
C1007 C1013 1.491 . S
C1008 H999 0.950 . S
C1008 C1007 1.398 . S
C1008 C1009 1.391 . S
C1009 H997 0.950 . S
C1009 C1005 1.393 . S
C1009 C1008 1.391 . S
C1010 H1000 0.950 . S
C1010 C1011 1.386 . S
C1010 C1012 1.391 . S
C1011 C1010 1.386 . S
C1011 C1015 1.393 . S
C1012 H1001 0.950 . S
C1012 C1010 1.391 . S
C1012 C1013 1.400 . S
C1013 C1007 1.491 . S
C1013 C1012 1.400 . S
C1013 C1014 1.398 . S
C1014 H1002 0.950 . S
C1014 C1013 1.398 . S
C1014 C1015 1.391 . S
C1015 H1003 0.950 . S
C1015 C1011 1.393 . S
C1015 C1014 1.391 . S
H1016 C1024 0.950 . S
H1017 C1029 0.950 . S
H1018 C1026 0.950 . S
H1019 C1028 0.950 . S
H1020 C1030 0.950 . S
H1021 C1032 0.950 . S
H1022 C1034 0.950 . S
H1023 C1035 0.950 . S
C1024 H1016 0.950 . S
C1024 C1025 1.386 . S
C1024 C1026 1.391 . S
C1025 C1024 1.386 . S
C1025 C1029 1.393 . S
C1026 H1018 0.950 . S
C1026 C1024 1.391 . S
C1026 C1027 1.400 . S
C1027 C1026 1.400 . S
C1027 C1028 1.398 . S
C1027 C1033 1.491 . S
C1028 H1019 0.950 . S
C1028 C1027 1.398 . S
C1028 C1029 1.391 . S
C1029 H1017 0.950 . S
C1029 C1025 1.393 . S
C1029 C1028 1.391 . S
C1030 H1020 0.950 . S
C1030 C1031 1.386 . S
C1030 C1032 1.391 . S
C1031 C1030 1.386 . S
C1031 C1035 1.393 . S
C1032 H1021 0.950 . S
C1032 C1030 1.391 . S
C1032 C1033 1.400 . S
C1033 C1027 1.491 . S
C1033 C1032 1.400 . S
C1033 C1034 1.398 . S
C1034 H1022 0.950 . S
C1034 C1033 1.398 . S
C1034 C1035 1.391 . S
C1035 H1023 0.950 . S
C1035 C1031 1.393 . S
C1035 C1034 1.391 . S
H1036 C1044 0.950 . S
H1037 C1049 0.950 . S
H1038 C1046 0.950 . S
H1039 C1048 0.950 . S
H1040 C1050 0.950 . S
H1041 C1052 0.950 . S
H1042 C1054 0.950 . S
H1043 C1055 0.950 . S
C1044 H1036 0.950 . S
C1044 C1045 1.386 . S
C1044 C1046 1.391 . S
C1045 C1044 1.386 . S
C1045 C1049 1.393 . S
C1046 H1038 0.950 . S
C1046 C1044 1.391 . S
C1046 C1047 1.400 . S
C1047 C1046 1.400 . S
C1047 C1048 1.398 . S
C1047 C1053 1.491 . S
C1048 H1039 0.950 . S
C1048 C1047 1.398 . S
C1048 C1049 1.391 . S
C1049 H1037 0.950 . S
C1049 C1045 1.393 . S
C1049 C1048 1.391 . S
C1050 H1040 0.950 . S
C1050 C1051 1.386 . S
C1050 C1052 1.391 . S
C1051 C1050 1.386 . S
C1051 C1055 1.393 . S
C1052 H1041 0.950 . S
C1052 C1050 1.391 . S
C1052 C1053 1.400 . S
C1053 C1047 1.491 . S
C1053 C1052 1.400 . S
C1053 C1054 1.398 . S
C1054 H1042 0.950 . S
C1054 C1053 1.398 . S
C1054 C1055 1.391 . S
C1055 H1043 0.950 . S
C1055 C1051 1.393 . S
C1055 C1054 1.391 . S
H1056 C1064 0.950 . S
H1057 C1069 0.950 1_655 S
H1058 C1066 0.950 . S
H1059 C1068 0.950 . S
H1060 C1070 0.950 . S
H1061 C1072 0.950 . S
H1062 C1074 0.950 . S
H1063 C1075 0.950 . S
C1064 H1056 0.950 . S
C1064 C1065 1.386 . S
C1064 C1066 1.391 . S
C1065 C1064 1.386 . S
C1065 C1069 1.393 . S
C1066 H1058 0.950 . S
C1066 C1064 1.391 . S
C1066 C1067 1.400 . S
C1067 C1066 1.400 . S
C1067 C1068 1.398 . S
C1067 C1073 1.491 . S
C1068 H1059 0.950 . S
C1068 C1067 1.398 . S
C1068 C1069 1.391 . S
C1069 H1057 0.950 1_455 S
C1069 C1065 1.393 . S
C1069 C1068 1.391 . S
C1070 H1060 0.950 . S
C1070 C1071 1.386 . S
C1070 C1072 1.391 . S
C1071 C1070 1.386 . S
C1071 C1075 1.393 . S
C1072 H1061 0.950 . S
C1072 C1070 1.391 . S
C1072 C1073 1.400 . S
C1073 C1067 1.491 . S
C1073 C1072 1.400 . S
C1073 C1074 1.398 . S
C1074 H1062 0.950 . S
C1074 C1073 1.398 . S
C1074 C1075 1.391 . S
C1075 H1063 0.950 . S
C1075 C1071 1.393 . S
C1075 C1074 1.391 . S
H1076 C1084 0.950 . S
H1077 C1089 0.950 . S
H1078 C1086 0.950 . S
H1079 C1088 0.950 . S
H1080 C1090 0.950 . S
H1081 C1092 0.950 . S
H1082 C1094 0.950 . S
H1083 C1095 0.950 . S
C1084 H1076 0.950 . S
C1084 C1085 1.386 . S
C1084 C1086 1.391 . S
C1085 C1084 1.386 . S
C1085 C1089 1.393 . S
C1086 H1078 0.950 . S
C1086 C1084 1.391 . S
C1086 C1087 1.400 . S
C1087 C1086 1.400 . S
C1087 C1088 1.398 . S
C1087 C1093 1.491 . S
C1088 H1079 0.950 . S
C1088 C1087 1.398 . S
C1088 C1089 1.391 . S
C1089 H1077 0.950 . S
C1089 C1085 1.393 . S
C1089 C1088 1.391 . S
C1090 H1080 0.950 . S
C1090 C1091 1.386 . S
C1090 C1092 1.391 . S
C1091 C1090 1.386 . S
C1091 C1095 1.393 . S
C1092 H1081 0.950 . S
C1092 C1090 1.391 . S
C1092 C1093 1.400 . S
C1093 C1087 1.491 . S
C1093 C1092 1.400 . S
C1093 C1094 1.398 . S
C1094 H1082 0.950 . S
C1094 C1093 1.398 . S
C1094 C1095 1.391 . S
C1095 H1083 0.950 . S
C1095 C1091 1.393 . S
C1095 C1094 1.391 . S
H1096 C1104 0.950 . S
H1097 C1109 0.950 . S
H1098 C1106 0.950 . S
H1099 C1108 0.950 . S
H1100 C1110 0.950 . S
H1101 C1112 0.950 . S
H1102 C1114 0.950 . S
H1103 C1115 0.950 . S
C1104 H1096 0.950 . S
C1104 C1105 1.386 . S
C1104 C1106 1.391 . S
C1105 C1104 1.386 . S
C1105 C1109 1.393 . S
C1106 H1098 0.950 . S
C1106 C1104 1.391 . S
C1106 C1107 1.400 . S
C1107 C1106 1.400 . S
C1107 C1108 1.398 . S
C1107 C1113 1.491 . S
C1108 H1099 0.950 . S
C1108 C1107 1.398 . S
C1108 C1109 1.391 . S
C1109 H1097 0.950 . S
C1109 C1105 1.393 . S
C1109 C1108 1.391 . S
C1110 H1100 0.950 . S
C1110 C1111 1.386 . S
C1110 C1112 1.391 . S
C1111 C1110 1.386 . S
C1111 C1115 1.393 . S
C1112 H1101 0.950 . S
C1112 C1110 1.391 . S
C1112 C1113 1.400 . S
C1113 C1107 1.491 . S
C1113 C1112 1.400 . S
C1113 C1114 1.398 . S
C1114 H1102 0.950 . S
C1114 C1113 1.398 . S
C1114 C1115 1.391 . S
C1115 H1103 0.950 . S
C1115 C1111 1.393 . S
C1115 C1114 1.391 . S
H1116 C1124 0.950 . S
H1117 C1129 0.950 . S
H1118 C1126 0.950 . S
H1119 C1128 0.950 . S
H1120 C1130 0.950 . S
H1121 C1132 0.950 . S
H1122 C1134 0.950 . S
H1123 C1135 0.950 . S
C1124 H1116 0.950 . S
C1124 C1125 1.386 . S
C1124 C1126 1.391 . S
C1125 C1124 1.386 . S
C1125 C1129 1.393 . S
C1126 H1118 0.950 . S
C1126 C1124 1.391 . S
C1126 C1127 1.400 . S
C1127 C1126 1.400 . S
C1127 C1128 1.398 . S
C1127 C1133 1.491 . S
C1128 H1119 0.950 . S
C1128 C1127 1.398 . S
C1128 C1129 1.391 . S
C1129 H1117 0.950 . S
C1129 C1125 1.393 . S
C1129 C1128 1.391 . S
C1130 H1120 0.950 . S
C1130 C1131 1.386 . S
C1130 C1132 1.391 . S
C1131 C1130 1.386 . S
C1131 C1135 1.393 . S
C1132 H1121 0.950 . S
C1132 C1130 1.391 . S
C1132 C1133 1.400 . S
C1133 C1127 1.491 . S
C1133 C1132 1.400 . S
C1133 C1134 1.398 . S
C1134 H1122 0.950 . S
C1134 C1133 1.398 . S
C1134 C1135 1.391 . S
C1135 H1123 0.950 . S
C1135 C1131 1.393 . S
C1135 C1134 1.391 . S
H1136 C1144 0.950 . S
H1137 C1149 0.950 . S
H1138 C1146 0.950 . S
H1139 C1148 0.950 . S
H1140 C1150 0.950 . S
H1141 C1152 0.950 . S
H1142 C1154 0.950 . S
H1143 C1155 0.950 . S
C1144 H1136 0.950 . S
C1144 C1145 1.386 . S
C1144 C1146 1.391 . S
C1145 C1144 1.386 . S
C1145 C1149 1.393 . S
C1146 H1138 0.950 . S
C1146 C1144 1.391 . S
C1146 C1147 1.400 . S
C1147 C1146 1.400 . S
C1147 C1148 1.398 . S
C1147 C1153 1.491 . S
C1148 H1139 0.950 . S
C1148 C1147 1.398 . S
C1148 C1149 1.391 . S
C1149 H1137 0.950 . S
C1149 C1145 1.393 . S
C1149 C1148 1.391 . S
C1150 H1140 0.950 . S
C1150 C1151 1.386 . S
C1150 C1152 1.391 1_455 S
C1151 C1150 1.386 . S
C1151 C1155 1.393 . S
C1152 H1141 0.950 . S
C1152 C1150 1.391 1_655 S
C1152 C1153 1.400 . S
C1153 C1147 1.491 . S
C1153 C1152 1.400 . S
C1153 C1154 1.398 . S
C1154 H1142 0.950 . S
C1154 C1153 1.398 . S
C1154 C1155 1.391 1_655 S
C1155 H1143 0.950 . S
C1155 C1151 1.393 . S
C1155 C1154 1.391 1_455 S
H1156 C1164 0.950 . S
H1157 C1169 0.950 . S
H1158 C1166 0.950 . S
H1159 C1168 0.950 . S
H1160 C1170 0.950 . S
H1161 C1172 0.950 . S
H1162 C1174 0.950 . S
H1163 C1175 0.950 . S
C1164 H1156 0.950 . S
C1164 C1165 1.386 . S
C1164 C1166 1.391 . S
C1165 C1164 1.386 . S
C1165 C1169 1.393 . S
C1166 H1158 0.950 . S
C1166 C1164 1.391 . S
C1166 C1167 1.400 . S
C1167 C1166 1.400 . S
C1167 C1168 1.398 . S
C1167 C1173 1.491 . S
C1168 H1159 0.950 . S
C1168 C1167 1.398 . S
C1168 C1169 1.391 . S
C1169 H1157 0.950 . S
C1169 C1165 1.393 . S
C1169 C1168 1.391 . S
C1170 H1160 0.950 . S
C1170 C1171 1.386 . S
C1170 C1172 1.391 . S
C1171 C1170 1.386 . S
C1171 C1175 1.393 . S
C1172 H1161 0.950 . S
C1172 C1170 1.391 . S
C1172 C1173 1.400 . S
C1173 C1167 1.491 . S
C1173 C1172 1.400 . S
C1173 C1174 1.398 . S
C1174 H1162 0.950 . S
C1174 C1173 1.398 . S
C1174 C1175 1.391 . S
C1175 H1163 0.950 . S
C1175 C1171 1.393 . S
C1175 C1174 1.391 . S
H1176 C1184 0.950 . S
H1177 C1189 0.950 1_565 S
H1178 C1186 0.950 . S
H1179 C1188 0.950 . S
H1180 C1190 0.950 . S
H1181 C1192 0.950 . S
H1182 C1194 0.950 . S
H1183 C1195 0.950 . S
C1184 H1176 0.950 . S
C1184 C1185 1.386 . S
C1184 C1186 1.391 . S
C1185 C1184 1.386 . S
C1185 C1189 1.393 . S
C1186 H1178 0.950 . S
C1186 C1184 1.391 . S
C1186 C1187 1.400 . S
C1187 C1186 1.400 . S
C1187 C1188 1.398 . S
C1187 C1193 1.491 . S
C1188 H1179 0.950 . S
C1188 C1187 1.398 . S
C1188 C1189 1.391 . S
C1189 H1177 0.950 1_545 S
C1189 C1185 1.393 . S
C1189 C1188 1.391 . S
C1190 H1180 0.950 . S
C1190 C1191 1.386 . S
C1190 C1192 1.391 . S
C1191 C1190 1.386 . S
C1191 C1195 1.393 . S
C1192 H1181 0.950 . S
C1192 C1190 1.391 . S
C1192 C1193 1.400 . S
C1193 C1187 1.491 . S
C1193 C1192 1.400 . S
C1193 C1194 1.398 . S
C1194 H1182 0.950 . S
C1194 C1193 1.398 . S
C1194 C1195 1.391 . S
C1195 H1183 0.950 . S
C1195 C1191 1.393 . S
C1195 C1194 1.391 . S
H1196 C1204 0.950 . S
H1197 C1209 0.950 . S
H1198 C1206 0.950 . S
H1199 C1208 0.950 . S
H1200 C1210 0.950 . S
H1201 C1212 0.950 . S
H1202 C1214 0.950 . S
H1203 C1215 0.950 . S
C1204 H1196 0.950 . S
C1204 C1205 1.386 . S
C1204 C1206 1.391 . S
C1205 C1204 1.386 . S
C1205 C1209 1.393 . S
C1206 H1198 0.950 . S
C1206 C1204 1.391 . S
C1206 C1207 1.400 . S
C1207 C1206 1.400 . S
C1207 C1208 1.398 . S
C1207 C1213 1.491 . S
C1208 H1199 0.950 . S
C1208 C1207 1.398 . S
C1208 C1209 1.391 . S
C1209 H1197 0.950 . S
C1209 C1205 1.393 . S
C1209 C1208 1.391 . S
C1210 H1200 0.950 . S
C1210 C1211 1.386 . S
C1210 C1212 1.391 1_556 S
C1211 C1210 1.386 . S
C1211 C1215 1.393 . S
C1212 H1201 0.950 . S
C1212 C1210 1.391 1_554 S
C1212 C1213 1.400 . S
C1213 C1207 1.491 . S
C1213 C1212 1.400 . S
C1213 C1214 1.398 1_554 S
C1214 H1202 0.950 . S
C1214 C1213 1.398 1_556 S
C1214 C1215 1.391 . S
C1215 H1203 0.950 . S
C1215 C1211 1.393 . S
C1215 C1214 1.391 . S
H1216 C1224 0.950 . S
H1217 C1229 0.950 . S
H1218 C1226 0.950 . S
H1219 C1228 0.950 1_455 S
H1220 C1230 0.950 . S
H1221 C1232 0.950 . S
H1222 C1234 0.950 . S
H1223 C1235 0.950 . S
C1224 H1216 0.950 . S
C1224 C1225 1.386 . S
C1224 C1226 1.391 . S
C1225 C1224 1.386 . S
C1225 C1229 1.393 . S
C1226 H1218 0.950 . S
C1226 C1224 1.391 . S
C1226 C1227 1.400 . S
C1227 C1226 1.400 . S
C1227 C1228 1.398 . S
C1227 C1233 1.491 . S
C1228 H1219 0.950 1_655 S
C1228 C1227 1.398 . S
C1228 C1229 1.391 . S
C1229 H1217 0.950 . S
C1229 C1225 1.393 . S
C1229 C1228 1.391 . S
C1230 H1220 0.950 . S
C1230 C1231 1.386 . S
C1230 C1232 1.391 . S
C1231 C1230 1.386 . S
C1231 C1235 1.393 1_455 S
C1232 H1221 0.950 . S
C1232 C1230 1.391 . S
C1232 C1233 1.400 1_455 S
C1233 C1227 1.491 . S
C1233 C1232 1.400 1_655 S
C1233 C1234 1.398 . S
C1234 H1222 0.950 . S
C1234 C1233 1.398 . S
C1234 C1235 1.391 . S
C1235 H1223 0.950 . S
C1235 C1231 1.393 1_655 S
C1235 C1234 1.391 . S
H1236 C1244 0.950 . S
H1237 C1249 0.950 . S
H1238 C1246 0.950 . S
H1239 C1248 0.950 . S
H1240 C1250 0.950 . S
H1241 C1252 0.950 . S
H1242 C1254 0.950 . S
H1243 C1255 0.950 . S
C1244 H1236 0.950 . S
C1244 C1245 1.386 . S
C1244 C1246 1.391 . S
C1245 C1244 1.386 . S
C1245 C1249 1.393 . S
C1246 H1238 0.950 . S
C1246 C1244 1.391 . S
C1246 C1247 1.400 . S
C1247 C1246 1.400 . S
C1247 C1248 1.398 . S
C1247 C1253 1.491 . S
C1248 H1239 0.950 . S
C1248 C1247 1.398 . S
C1248 C1249 1.391 . S
C1249 H1237 0.950 . S
C1249 C1245 1.393 . S
C1249 C1248 1.391 . S
C1250 H1240 0.950 . S
C1250 C1251 1.386 . S
C1250 C1252 1.391 . S
C1251 C1250 1.386 . S
C1251 C1255 1.393 . S
C1252 H1241 0.950 . S
C1252 C1250 1.391 . S
C1252 C1253 1.400 . S
C1253 C1247 1.491 . S
C1253 C1252 1.400 . S
C1253 C1254 1.398 . S
C1254 H1242 0.950 . S
C1254 C1253 1.398 . S
C1254 C1255 1.391 . S
C1255 H1243 0.950 . S
C1255 C1251 1.393 . S
C1255 C1254 1.391 . S
H1256 C1264 0.950 . S
H1257 C1269 0.950 . S
H1258 C1266 0.950 . S
H1259 C1268 0.950 . S
H1260 C1270 0.950 . S
H1261 C1272 0.950 . S
H1262 C1274 0.950 . S
H1263 C1275 0.950 . S
C1264 H1256 0.950 . S
C1264 C1265 1.386 . S
C1264 C1266 1.391 . S
C1265 C1264 1.386 . S
C1265 C1269 1.393 . S
C1266 H1258 0.950 . S
C1266 C1264 1.391 . S
C1266 C1267 1.400 . S
C1267 C1266 1.400 . S
C1267 C1268 1.398 . S
C1267 C1273 1.491 . S
C1268 H1259 0.950 . S
C1268 C1267 1.398 . S
C1268 C1269 1.391 . S
C1269 H1257 0.950 . S
C1269 C1265 1.393 . S
C1269 C1268 1.391 . S
C1270 H1260 0.950 . S
C1270 C1271 1.386 1_556 S
C1270 C1272 1.391 . S
C1271 C1270 1.386 1_554 S
C1271 C1275 1.393 . S
C1272 H1261 0.950 . S
C1272 C1270 1.391 . S
C1272 C1273 1.400 . S
C1273 C1267 1.491 . S
C1273 C1272 1.400 . S
C1273 C1274 1.398 . S
C1274 H1262 0.950 . S
C1274 C1273 1.398 . S
C1274 C1275 1.391 1_556 S
C1275 H1263 0.950 . S
C1275 C1271 1.393 . S
C1275 C1274 1.391 1_554 S
H1276 C1284 0.950 . S
H1277 C1289 0.950 . S
H1278 C1286 0.950 . S
H1279 C1288 0.950 . S
H1280 C1290 0.950 . S
H1281 C1292 0.950 . S
H1282 C1294 0.950 . S
H1283 C1295 0.950 . S
C1284 H1276 0.950 . S
C1284 C1285 1.386 . S
C1284 C1286 1.391 . S
C1285 C1284 1.386 . S
C1285 C1289 1.393 . S
C1286 H1278 0.950 . S
C1286 C1284 1.391 . S
C1286 C1287 1.400 . S
C1287 C1286 1.400 . S
C1287 C1288 1.398 . S
C1287 C1293 1.491 . S
C1288 H1279 0.950 . S
C1288 C1287 1.398 . S
C1288 C1289 1.391 . S
C1289 H1277 0.950 . S
C1289 C1285 1.393 . S
C1289 C1288 1.391 . S
C1290 H1280 0.950 . S
C1290 C1291 1.386 . S
C1290 C1292 1.391 . S
C1291 C1290 1.386 . S
C1291 C1295 1.393 . S
C1292 H1281 0.950 . S
C1292 C1290 1.391 . S
C1292 C1293 1.400 . S
C1293 C1287 1.491 . S
C1293 C1292 1.400 . S
C1293 C1294 1.398 . S
C1294 H1282 0.950 . S
C1294 C1293 1.398 . S
C1294 C1295 1.391 . S
C1295 H1283 0.950 . S
C1295 C1291 1.393 . S
C1295 C1294 1.391 . S
H1296 C1304 0.950 . S
H1297 C1309 0.950 . S
H1298 C1306 0.950 1_545 S
H1299 C1308 0.950 . S
H1300 C1310 0.950 . S
H1301 C1312 0.950 . S
H1302 C1314 0.950 . S
H1303 C1315 0.950 . S
C1304 H1296 0.950 . S
C1304 C1305 1.386 . S
C1304 C1306 1.391 . S
C1305 C1304 1.386 . S
C1305 C1309 1.393 . S
C1306 H1298 0.950 1_565 S
C1306 C1304 1.391 . S
C1306 C1307 1.400 . S
C1307 C1306 1.400 . S
C1307 C1308 1.398 . S
C1307 C1313 1.491 . S
C1308 H1299 0.950 . S
C1308 C1307 1.398 . S
C1308 C1309 1.391 . S
C1309 H1297 0.950 . S
C1309 C1305 1.393 . S
C1309 C1308 1.391 . S
C1310 H1300 0.950 . S
C1310 C1311 1.386 . S
C1310 C1312 1.391 1_545 S
C1311 C1310 1.386 . S
C1311 C1315 1.393 . S
C1312 H1301 0.950 . S
C1312 C1310 1.391 1_565 S
C1312 C1313 1.400 . S
C1313 C1307 1.491 . S
C1313 C1312 1.400 . S
C1313 C1314 1.398 1_565 S
C1314 H1302 0.950 . S
C1314 C1313 1.398 1_545 S
C1314 C1315 1.391 . S
C1315 H1303 0.950 . S
C1315 C1311 1.393 . S
C1315 C1314 1.391 . S
H1316 C1324 0.950 . S
H1317 C1329 0.950 . S
H1318 C1326 0.943 1_556 S
H1319 C1328 0.950 . S
H1320 C1330 0.950 . S
H1321 C1332 0.950 . S
H1322 C1334 0.950 . S
H1323 C1335 0.950 . S
C1324 H1316 0.950 . S
C1324 C1325 1.386 1_556 S
C1324 C1326 1.377 1_556 S
C1325 C1324 1.386 1_554 S
C1325 C1329 1.393 . S
C1326 H1318 0.943 1_554 S
C1326 C1324 1.377 1_554 S
C1326 C1327 1.421 . S
C1327 C1326 1.421 . S
C1327 C1328 1.398 . S
C1327 C1333 1.491 . S
C1328 H1319 0.950 . S
C1328 C1327 1.398 . S
C1328 C1329 1.391 . S
C1329 H1317 0.950 . S
C1329 C1325 1.393 . S
C1329 C1328 1.391 . S
C1330 H1320 0.950 . S
C1330 C1331 1.386 . S
C1330 C1332 1.391 . S
C1331 C1330 1.386 . S
C1331 C1335 1.393 . S
C1332 H1321 0.950 . S
C1332 C1330 1.391 . S
C1332 C1333 1.400 . S
C1333 C1327 1.491 . S
C1333 C1332 1.400 . S
C1333 C1334 1.398 . S
C1334 H1322 0.950 . S
C1334 C1333 1.398 . S
C1334 C1335 1.391 . S
C1335 H1323 0.950 . S
C1335 C1331 1.393 . S
C1335 C1334 1.391 . S
H1336 C1344 0.950 . S
H1337 C1349 0.950 . S
H1338 C1346 0.950 . S
H1339 C1348 0.950 . S
H1340 C1350 0.950 . S
H1341 C1352 0.950 . S
H1342 C1354 0.950 . S
H1343 C1355 0.950 . S
C1344 H1336 0.950 . S
C1344 C1345 1.386 . S
C1344 C1346 1.391 . S
C1345 C1344 1.386 . S
C1345 C1349 1.393 . S
C1346 H1338 0.950 . S
C1346 C1344 1.391 . S
C1346 C1347 1.400 . S
C1347 C1346 1.400 . S
C1347 C1348 1.398 . S
C1347 C1353 1.491 . S
C1348 H1339 0.950 . S
C1348 C1347 1.398 . S
C1348 C1349 1.391 . S
C1349 H1337 0.950 . S
C1349 C1345 1.393 . S
C1349 C1348 1.391 . S
C1350 H1340 0.950 . S
C1350 C1351 1.386 . S
C1350 C1352 1.391 . S
C1351 C1350 1.386 . S
C1351 C1355 1.393 . S
C1352 H1341 0.950 . S
C1352 C1350 1.391 . S
C1352 C1353 1.400 . S
C1353 C1347 1.491 . S
C1353 C1352 1.400 . S
C1353 C1354 1.398 . S
C1354 H1342 0.950 . S
C1354 C1353 1.398 . S
C1354 C1355 1.391 . S
C1355 H1343 0.950 . S
C1355 C1351 1.393 . S
C1355 C1354 1.391 . S
H1356 C1364 0.950 . S
H1357 C1369 0.950 . S
H1358 C1366 0.950 . S
H1359 C1368 0.950 . S
H1360 C1370 0.950 . S
H1361 C1372 0.950 . S
H1362 C1374 0.950 . S
H1363 C1375 0.950 . S
C1364 H1356 0.950 . S
C1364 C1365 1.386 . S
C1364 C1366 1.391 . S
C1365 C1364 1.386 . S
C1365 C1369 1.393 . S
C1366 H1358 0.950 . S
C1366 C1364 1.391 . S
C1366 C1367 1.400 . S
C1367 C1366 1.400 . S
C1367 C1368 1.398 . S
C1367 C1373 1.491 . S
C1368 H1359 0.950 . S
C1368 C1367 1.398 . S
C1368 C1369 1.391 . S
C1369 H1357 0.950 . S
C1369 C1365 1.393 . S
C1369 C1368 1.391 . S
C1370 H1360 0.950 . S
C1370 C1371 1.386 . S
C1370 C1372 1.391 . S
C1371 C1370 1.386 . S
C1371 C1375 1.393 . S
C1372 H1361 0.950 . S
C1372 C1370 1.391 . S
C1372 C1373 1.400 . S
C1373 C1367 1.491 . S
C1373 C1372 1.400 . S
C1373 C1374 1.398 . S
C1374 H1362 0.950 . S
C1374 C1373 1.398 . S
C1374 C1375 1.391 . S
C1375 H1363 0.950 . S
C1375 C1371 1.393 . S
C1375 C1374 1.391 . S
H1376 C1384 0.950 . S
H1377 C1389 0.950 . S
H1378 C1386 0.950 . S
H1379 C1388 0.950 . S
H1380 C1390 0.950 . S
H1381 C1392 0.950 . S
H1382 C1394 0.950 . S
H1383 C1395 0.950 . S
C1384 H1376 0.950 . S
C1384 C1385 1.386 . S
C1384 C1386 1.391 . S
C1385 C1384 1.386 . S
C1385 C1389 1.393 . S
C1386 H1378 0.950 . S
C1386 C1384 1.391 . S
C1386 C1387 1.400 . S
C1387 C1386 1.400 . S
C1387 C1388 1.398 . S
C1387 C1393 1.491 . S
C1388 H1379 0.950 . S
C1388 C1387 1.398 . S
C1388 C1389 1.391 . S
C1389 H1377 0.950 . S
C1389 C1385 1.393 . S
C1389 C1388 1.391 . S
C1390 H1380 0.950 . S
C1390 C1391 1.386 . S
C1390 C1392 1.391 . S
C1391 C1390 1.386 . S
C1391 C1395 1.393 . S
C1392 H1381 0.950 . S
C1392 C1390 1.391 . S
C1392 C1393 1.400 . S
C1393 C1387 1.491 . S
C1393 C1392 1.400 . S
C1393 C1394 1.398 . S
C1394 H1382 0.950 . S
C1394 C1393 1.398 . S
C1394 C1395 1.391 . S
C1395 H1383 0.950 . S
C1395 C1391 1.393 . S
C1395 C1394 1.391 . S
H1396 C1404 0.950 . S
H1397 C1409 0.950 . S
H1398 C1406 0.950 . S
H1399 C1408 0.950 . S
H1400 C1410 0.950 . S
H1401 C1412 0.950 . S
H1402 C1414 0.950 . S
H1403 C1415 0.950 . S
C1404 H1396 0.950 . S
C1404 C1405 1.386 . S
C1404 C1406 1.391 . S
C1405 C1404 1.386 . S
C1405 C1409 1.393 . S
C1406 H1398 0.950 . S
C1406 C1404 1.391 . S
C1406 C1407 1.400 . S
C1407 C1406 1.400 . S
C1407 C1408 1.398 . S
C1407 C1413 1.491 . S
C1408 H1399 0.950 . S
C1408 C1407 1.398 . S
C1408 C1409 1.391 . S
C1409 H1397 0.950 . S
C1409 C1405 1.393 . S
C1409 C1408 1.391 . S
C1410 H1400 0.950 . S
C1410 C1411 1.386 . S
C1410 C1412 1.391 . S
C1411 C1410 1.386 . S
C1411 C1415 1.393 . S
C1412 H1401 0.950 . S
C1412 C1410 1.391 . S
C1412 C1413 1.400 . S
C1413 C1407 1.491 . S
C1413 C1412 1.400 . S
C1413 C1414 1.398 . S
C1414 H1402 0.950 . S
C1414 C1413 1.398 . S
C1414 C1415 1.391 . S
C1415 H1403 0.950 . S
C1415 C1411 1.393 . S
C1415 C1414 1.391 . S
H1416 C1424 0.950 . S
H1417 C1429 0.950 . S
H1418 C1426 0.950 . S
H1419 C1428 0.950 . S
H1420 C1430 0.950 . S
H1421 C1432 0.950 . S
H1422 C1434 0.950 . S
H1423 C1435 0.950 . S
C1424 H1416 0.950 . S
C1424 C1425 1.386 . S
C1424 C1426 1.391 . S
C1425 C1424 1.386 . S
C1425 C1429 1.393 . S
C1426 H1418 0.950 . S
C1426 C1424 1.391 . S
C1426 C1427 1.400 . S
C1427 C1426 1.400 . S
C1427 C1428 1.398 . S
C1427 C1433 1.491 . S
C1428 H1419 0.950 . S
C1428 C1427 1.398 . S
C1428 C1429 1.391 . S
C1429 H1417 0.950 . S
C1429 C1425 1.393 . S
C1429 C1428 1.391 . S
C1430 H1420 0.950 . S
C1430 C1431 1.386 . S
C1430 C1432 1.391 . S
C1431 C1430 1.386 . S
C1431 C1435 1.393 . S
C1432 H1421 0.950 . S
C1432 C1430 1.391 . S
C1432 C1433 1.400 . S
C1433 C1427 1.491 . S
C1433 C1432 1.400 . S
C1433 C1434 1.398 . S
C1434 H1422 0.950 . S
C1434 C1433 1.398 . S
C1434 C1435 1.391 . S
C1435 H1423 0.950 . S
C1435 C1431 1.393 . S
C1435 C1434 1.391 . S
H1436 C1444 0.950 . S
H1437 C1449 0.950 . S
H1438 C1446 0.950 . S
H1439 C1448 0.950 . S
H1440 C1450 0.950 . S
H1441 C1452 0.950 . S
H1442 C1454 0.950 . S
H1443 C1455 0.950 . S
C1444 H1436 0.950 . S
C1444 C1445 1.386 . S
C1444 C1446 1.391 . S
C1445 C1444 1.386 . S
C1445 C1449 1.393 . S
C1446 H1438 0.950 . S
C1446 C1444 1.391 . S
C1446 C1447 1.400 . S
C1447 C1446 1.400 . S
C1447 C1448 1.398 . S
C1447 C1453 1.491 . S
C1448 H1439 0.950 . S
C1448 C1447 1.398 . S
C1448 C1449 1.391 . S
C1449 H1437 0.950 . S
C1449 C1445 1.393 . S
C1449 C1448 1.391 . S
C1450 H1440 0.950 . S
C1450 C1451 1.386 . S
C1450 C1452 1.391 . S
C1451 C1450 1.386 . S
C1451 C1455 1.393 . S
C1452 H1441 0.950 . S
C1452 C1450 1.391 . S
C1452 C1453 1.400 . S
C1453 C1447 1.491 . S
C1453 C1452 1.400 . S
C1453 C1454 1.398 . S
C1454 H1442 0.950 . S
C1454 C1453 1.398 . S
C1454 C1455 1.391 . S
C1455 H1443 0.950 . S
C1455 C1451 1.393 . S
C1455 C1454 1.391 . S
H1456 C1464 0.950 . S
H1457 C1469 0.950 . S
H1458 C1466 0.950 . S
H1459 C1468 0.950 . S
H1460 C1470 0.950 . S
H1461 C1472 0.950 . S
H1462 C1474 0.950 . S
H1463 C1475 0.950 . S
C1464 H1456 0.950 . S
C1464 C1465 1.386 . S
C1464 C1466 1.391 . S
C1465 C1464 1.386 . S
C1465 C1469 1.393 . S
C1466 H1458 0.950 . S
C1466 C1464 1.391 . S
C1466 C1467 1.400 . S
C1467 C1466 1.400 . S
C1467 C1468 1.398 . S
C1467 C1473 1.491 . S
C1468 H1459 0.950 . S
C1468 C1467 1.398 . S
C1468 C1469 1.391 . S
C1469 H1457 0.950 . S
C1469 C1465 1.393 . S
C1469 C1468 1.391 . S
C1470 H1460 0.950 . S
C1470 C1471 1.386 . S
C1470 C1472 1.391 . S
C1471 C1470 1.386 . S
C1471 C1475 1.393 . S
C1472 H1461 0.950 . S
C1472 C1470 1.391 . S
C1472 C1473 1.400 . S
C1473 C1467 1.491 . S
C1473 C1472 1.400 . S
C1473 C1474 1.398 . S
C1474 H1462 0.950 . S
C1474 C1473 1.398 . S
C1474 C1475 1.391 . S
C1475 H1463 0.950 . S
C1475 C1471 1.393 . S
C1475 C1474 1.391 . S
H1476 C1484 0.950 . S
H1477 C1489 0.950 . S
H1478 C1486 0.950 . S
H1479 C1488 0.950 . S
H1480 C1490 0.950 . S
H1481 C1492 0.950 . S
H1482 C1494 0.950 . S
H1483 C1495 0.950 . S
C1484 H1476 0.950 . S
C1484 C1485 1.386 . S
C1484 C1486 1.391 . S
C1485 C1484 1.386 . S
C1485 C1489 1.393 . S
C1486 H1478 0.950 . S
C1486 C1484 1.391 . S
C1486 C1487 1.400 . S
C1487 C1486 1.400 . S
C1487 C1488 1.398 . S
C1487 C1493 1.491 . S
C1488 H1479 0.950 . S
C1488 C1487 1.398 . S
C1488 C1489 1.391 . S
C1489 H1477 0.950 . S
C1489 C1485 1.393 . S
C1489 C1488 1.391 . S
C1490 H1480 0.950 . S
C1490 C1491 1.386 . S
C1490 C1492 1.391 . S
C1491 C1490 1.386 . S
C1491 C1495 1.393 . S
C1492 H1481 0.950 . S
C1492 C1490 1.391 . S
C1492 C1493 1.400 . S
C1493 C1487 1.491 . S
C1493 C1492 1.400 . S
C1493 C1494 1.398 . S
C1494 H1482 0.950 . S
C1494 C1493 1.398 . S
C1494 C1495 1.391 . S
C1495 H1483 0.950 . S
C1495 C1491 1.393 . S
C1495 C1494 1.391 . S
H1496 C1504 0.950 . S
H1497 C1509 0.950 . S
H1498 C1506 0.950 . S
H1499 C1508 0.950 . S
H1500 C1510 0.950 . S
H1501 C1512 0.950 . S
H1502 C1514 0.950 . S
H1503 C1515 0.950 . S
C1504 H1496 0.950 . S
C1504 C1505 1.386 . S
C1504 C1506 1.391 . S
C1505 C1504 1.386 . S
C1505 C1509 1.393 . S
C1506 H1498 0.950 . S
C1506 C1504 1.391 . S
C1506 C1507 1.400 . S
C1507 C1506 1.400 . S
C1507 C1508 1.398 . S
C1507 C1513 1.491 . S
C1508 H1499 0.950 . S
C1508 C1507 1.398 . S
C1508 C1509 1.391 . S
C1509 H1497 0.950 . S
C1509 C1505 1.393 . S
C1509 C1508 1.391 . S
C1510 H1500 0.950 . S
C1510 C1511 1.386 . S
C1510 C1512 1.391 . S
C1511 C1510 1.386 . S
C1511 C1515 1.393 . S
C1512 H1501 0.950 . S
C1512 C1510 1.391 . S
C1512 C1513 1.400 . S
C1513 C1507 1.491 . S
C1513 C1512 1.400 . S
C1513 C1514 1.398 . S
C1514 H1502 0.950 . S
C1514 C1513 1.398 . S
C1514 C1515 1.391 . S
C1515 H1503 0.950 . S
C1515 C1511 1.393 . S
C1515 C1514 1.391 . S
H1516 C1524 0.950 . S
H1517 C1529 0.950 . S
H1518 C1526 0.950 . S
H1519 C1528 0.950 . S
H1520 C1530 0.950 . S
H1521 C1532 0.950 . S
H1522 C1534 0.950 . S
H1523 C1535 0.950 . S
C1524 H1516 0.950 . S
C1524 C1525 1.386 . S
C1524 C1526 1.391 . S
C1525 C1524 1.386 . S
C1525 C1529 1.393 . S
C1526 H1518 0.950 . S
C1526 C1524 1.391 . S
C1526 C1527 1.400 . S
C1527 C1526 1.400 . S
C1527 C1528 1.398 . S
C1527 C1533 1.491 . S
C1528 H1519 0.950 . S
C1528 C1527 1.398 . S
C1528 C1529 1.391 . S
C1529 H1517 0.950 . S
C1529 C1525 1.393 . S
C1529 C1528 1.391 . S
C1530 H1520 0.950 . S
C1530 C1531 1.386 . S
C1530 C1532 1.391 . S
C1531 C1530 1.386 . S
C1531 C1535 1.393 . S
C1532 H1521 0.950 . S
C1532 C1530 1.391 . S
C1532 C1533 1.400 . S
C1533 C1527 1.491 . S
C1533 C1532 1.400 . S
C1533 C1534 1.398 . S
C1534 H1522 0.950 . S
C1534 C1533 1.398 . S
C1534 C1535 1.391 . S
C1535 H1523 0.950 . S
C1535 C1531 1.393 . S
C1535 C1534 1.391 . S
H1536 C1544 0.950 . S
H1537 C1549 0.950 . S
H1538 C1546 0.950 . S
H1539 C1548 0.950 . S
H1540 C1550 0.950 . S
H1541 C1552 0.950 . S
H1542 C1554 0.950 . S
H1543 C1555 0.950 . S
C1544 H1536 0.950 . S
C1544 C1545 1.386 . S
C1544 C1546 1.391 . S
C1545 C1544 1.386 . S
C1545 C1549 1.393 . S
C1546 H1538 0.950 . S
C1546 C1544 1.391 . S
C1546 C1547 1.400 . S
C1547 C1546 1.400 . S
C1547 C1548 1.398 . S
C1547 C1553 1.491 . S
C1548 H1539 0.950 . S
C1548 C1547 1.398 . S
C1548 C1549 1.391 . S
C1549 H1537 0.950 . S
C1549 C1545 1.393 . S
C1549 C1548 1.391 . S
C1550 H1540 0.950 . S
C1550 C1551 1.386 . S
C1550 C1552 1.391 . S
C1551 C1550 1.386 . S
C1551 C1555 1.393 . S
C1552 H1541 0.950 . S
C1552 C1550 1.391 . S
C1552 C1553 1.400 . S
C1553 C1547 1.491 . S
C1553 C1552 1.400 . S
C1553 C1554 1.398 . S
C1554 H1542 0.950 . S
C1554 C1553 1.398 . S
C1554 C1555 1.391 . S
C1555 H1543 0.950 . S
C1555 C1551 1.393 . S
C1555 C1554 1.391 . S
H1556 C1564 0.950 . S
H1557 C1569 0.950 . S
H1558 C1566 0.950 . S
H1559 C1568 0.950 . S
H1560 C1570 0.950 . S
H1561 C1572 0.950 . S
H1562 C1574 0.950 . S
H1563 C1575 0.950 . S
C1564 H1556 0.950 . S
C1564 C1565 1.386 . S
C1564 C1566 1.391 . S
C1565 C1564 1.386 . S
C1565 C1569 1.393 . S
C1566 H1558 0.950 . S
C1566 C1564 1.391 . S
C1566 C1567 1.400 . S
C1567 C1566 1.400 . S
C1567 C1568 1.398 . S
C1567 C1573 1.491 . S
C1568 H1559 0.950 . S
C1568 C1567 1.398 . S
C1568 C1569 1.391 . S
C1569 H1557 0.950 . S
C1569 C1565 1.393 . S
C1569 C1568 1.391 . S
C1570 H1560 0.950 . S
C1570 C1571 1.386 . S
C1570 C1572 1.391 . S
C1571 C1570 1.386 . S
C1571 C1575 1.393 . S
C1572 H1561 0.950 . S
C1572 C1570 1.391 . S
C1572 C1573 1.400 . S
C1573 C1567 1.491 . S
C1573 C1572 1.400 . S
C1573 C1574 1.398 . S
C1574 H1562 0.950 . S
C1574 C1573 1.398 . S
C1574 C1575 1.391 . S
C1575 H1563 0.950 . S
C1575 C1571 1.393 . S
C1575 C1574 1.391 . S
H1576 C1584 0.950 1_556 S
H1577 C1589 0.950 . S
H1578 C1586 0.950 . S
H1579 C1588 0.950 . S
H1580 C1590 0.950 1_545 S
H1581 C1592 0.950 . S
H1582 C1594 0.950 . S
H1583 C1595 0.950 . S
C1584 H1576 0.950 1_554 S
C1584 C1585 1.386 . S
C1584 C1586 1.391 . S
C1585 C1584 1.386 . S
C1585 C1589 1.393 . S
C1586 H1578 0.950 . S
C1586 C1584 1.391 . S
C1586 C1587 1.400 . S
C1587 C1586 1.400 . S
C1587 C1588 1.398 . S
C1587 C1593 1.491 . S
C1588 H1579 0.950 . S
C1588 C1587 1.398 . S
C1588 C1589 1.391 . S
C1589 H1577 0.950 . S
C1589 C1585 1.393 . S
C1589 C1588 1.391 . S
C1590 H1580 0.950 1_565 S
C1590 C1591 1.349 1_565 S
C1590 C1592 1.429 . S
C1591 C1590 1.349 1_545 S
C1591 C1595 1.393 . S
C1592 H1581 0.950 . S
C1592 C1590 1.429 . S
C1592 C1593 1.400 . S
C1593 C1587 1.491 . S
C1593 C1592 1.400 . S
C1593 C1594 1.398 . S
C1594 H1582 0.950 . S
C1594 C1593 1.398 . S
C1594 C1595 1.391 1_565 S
C1595 H1583 0.950 . S
C1595 C1591 1.393 . S
C1595 C1594 1.391 1_545 S
H1596 C1604 0.950 . S
H1597 C1609 0.950 . S
H1598 C1606 0.950 . S
H1599 C1608 0.950 . S
H1600 C1610 0.950 . S
H1601 C1612 0.950 . S
H1602 C1614 0.950 . S
H1603 C1615 0.950 . S
C1604 H1596 0.950 . S
C1604 C1605 1.386 . S
C1604 C1606 1.391 . S
C1605 C1604 1.386 . S
C1605 C1609 1.393 . S
C1606 H1598 0.950 . S
C1606 C1604 1.391 . S
C1606 C1607 1.400 . S
C1607 C1606 1.400 . S
C1607 C1608 1.398 . S
C1607 C1613 1.491 . S
C1608 H1599 0.950 . S
C1608 C1607 1.398 . S
C1608 C1609 1.391 . S
C1609 H1597 0.950 . S
C1609 C1605 1.393 . S
C1609 C1608 1.391 . S
C1610 H1600 0.950 . S
C1610 C1611 1.386 . S
C1610 C1612 1.391 . S
C1611 C1610 1.386 . S
C1611 C1615 1.393 . S
C1612 H1601 0.950 . S
C1612 C1610 1.391 . S
C1612 C1613 1.400 . S
C1613 C1607 1.491 . S
C1613 C1612 1.400 . S
C1613 C1614 1.398 . S
C1614 H1602 0.950 . S
C1614 C1613 1.398 . S
C1614 C1615 1.391 . S
C1615 H1603 0.950 . S
C1615 C1611 1.393 . S
C1615 C1614 1.391 . S
H1616 C1624 0.950 . S
H1617 C1629 0.950 . S
H1618 C1626 0.950 . S
H1619 C1628 0.950 . S
H1620 C1630 0.950 . S
H1621 C1632 0.950 . S
H1622 C1634 0.950 . S
H1623 C1635 0.950 . S
C1624 H1616 0.950 . S
C1624 C1625 1.386 . S
C1624 C1626 1.391 . S
C1625 C1624 1.386 . S
C1625 C1629 1.393 . S
C1626 H1618 0.950 . S
C1626 C1624 1.391 . S
C1626 C1627 1.400 . S
C1627 C1626 1.400 . S
C1627 C1628 1.398 . S
C1627 C1633 1.491 . S
C1628 H1619 0.950 . S
C1628 C1627 1.398 . S
C1628 C1629 1.391 . S
C1629 H1617 0.950 . S
C1629 C1625 1.393 . S
C1629 C1628 1.391 . S
C1630 H1620 0.950 . S
C1630 C1631 1.384 1_554 S
C1630 C1632 1.391 1_554 S
C1631 C1630 1.384 1_556 S
C1631 C1635 1.409 . S
C1632 H1621 0.950 . S
C1632 C1630 1.391 1_556 S
C1632 C1633 1.400 . S
C1633 C1627 1.491 . S
C1633 C1632 1.400 . S
C1633 C1634 1.398 . S
C1634 H1622 0.950 . S
C1634 C1633 1.398 . S
C1634 C1635 1.391 . S
C1635 H1623 0.950 . S
C1635 C1631 1.409 . S
C1635 C1634 1.391 . S
H1636 C1644 0.950 . S
H1637 C1649 0.950 . S
H1638 C1646 0.950 . S
H1639 C1648 0.950 . S
H1640 C1650 0.950 . S
H1641 C1652 0.950 . S
H1642 C1654 0.950 . S
H1643 C1655 0.950 . S
C1644 H1636 0.950 . S
C1644 C1645 1.386 . S
C1644 C1646 1.391 . S
C1645 C1644 1.386 . S
C1645 C1649 1.393 . S
C1646 H1638 0.950 . S
C1646 C1644 1.391 . S
C1646 C1647 1.400 . S
C1647 C1646 1.400 . S
C1647 C1648 1.398 . S
C1647 C1653 1.491 . S
C1648 H1639 0.950 . S
C1648 C1647 1.398 . S
C1648 C1649 1.391 . S
C1649 H1637 0.950 . S
C1649 C1645 1.393 . S
C1649 C1648 1.391 . S
C1650 H1640 0.950 . S
C1650 C1651 1.386 . S
C1650 C1652 1.391 . S
C1651 C1650 1.386 . S
C1651 C1655 1.393 . S
C1652 H1641 0.950 . S
C1652 C1650 1.391 . S
C1652 C1653 1.400 . S
C1653 C1647 1.491 . S
C1653 C1652 1.400 . S
C1653 C1654 1.398 . S
C1654 H1642 0.950 . S
C1654 C1653 1.398 . S
C1654 C1655 1.391 . S
C1655 H1643 0.950 . S
C1655 C1651 1.393 . S
C1655 C1654 1.391 . S
H1656 C1664 0.950 . S
H1657 C1669 0.950 . S
H1658 C1666 0.950 . S
H1659 C1668 0.950 . S
H1660 C1670 0.950 . S
H1661 C1672 0.950 . S
H1662 C1674 0.950 . S
H1663 C1675 0.950 . S
C1664 H1656 0.950 . S
C1664 C1665 1.386 . S
C1664 C1666 1.391 . S
C1665 C1664 1.386 . S
C1665 C1669 1.393 . S
C1666 H1658 0.950 . S
C1666 C1664 1.391 . S
C1666 C1667 1.400 . S
C1667 C1666 1.400 . S
C1667 C1668 1.398 . S
C1667 C1673 1.491 . S
C1668 H1659 0.950 . S
C1668 C1667 1.398 . S
C1668 C1669 1.391 . S
C1669 H1657 0.950 . S
C1669 C1665 1.393 . S
C1669 C1668 1.391 . S
C1670 H1660 0.950 . S
C1670 C1671 1.386 . S
C1670 C1672 1.391 . S
C1671 C1670 1.386 . S
C1671 C1675 1.393 . S
C1672 H1661 0.950 . S
C1672 C1670 1.391 . S
C1672 C1673 1.400 . S
C1673 C1667 1.491 . S
C1673 C1672 1.400 . S
C1673 C1674 1.398 . S
C1674 H1662 0.950 . S
C1674 C1673 1.398 . S
C1674 C1675 1.391 . S
C1675 H1663 0.950 . S
C1675 C1671 1.393 . S
C1675 C1674 1.391 . S
H1676 C1684 0.950 . S
H1677 C1689 0.950 . S
H1678 C1686 0.950 . S
H1679 C1688 0.950 . S
H1680 C1690 0.950 . S
H1681 C1692 0.950 . S
H1682 C1694 0.950 . S
H1683 C1695 0.950 . S
C1684 H1676 0.950 . S
C1684 C1685 1.386 . S
C1684 C1686 1.391 . S
C1685 C1684 1.386 . S
C1685 C1689 1.393 . S
C1686 H1678 0.950 . S
C1686 C1684 1.391 . S
C1686 C1687 1.400 . S
C1687 C1686 1.400 . S
C1687 C1688 1.398 . S
C1687 C1693 1.491 . S
C1688 H1679 0.950 . S
C1688 C1687 1.398 . S
C1688 C1689 1.391 . S
C1689 H1677 0.950 . S
C1689 C1685 1.393 . S
C1689 C1688 1.391 . S
C1690 H1680 0.950 . S
C1690 C1691 1.386 . S
C1690 C1692 1.391 . S
C1691 C1690 1.386 . S
C1691 C1695 1.393 . S
C1692 H1681 0.950 . S
C1692 C1690 1.391 . S
C1692 C1693 1.400 . S
C1693 C1687 1.491 . S
C1693 C1692 1.400 . S
C1693 C1694 1.398 . S
C1694 H1682 0.950 . S
C1694 C1693 1.398 . S
C1694 C1695 1.391 . S
C1695 H1683 0.950 . S
C1695 C1691 1.393 . S
C1695 C1694 1.391 . S
H1696 C1704 0.950 . S
H1697 C1709 0.950 . S
H1698 C1706 0.950 . S
H1699 C1708 0.950 . S
H1700 C1710 0.950 . S
H1701 C1712 0.950 . S
H1702 C1714 0.950 . S
H1703 C1715 0.950 . S
C1704 H1696 0.950 . S
C1704 C1705 1.386 . S
C1704 C1706 1.391 . S
C1705 C1704 1.386 . S
C1705 C1709 1.393 . S
C1706 H1698 0.950 . S
C1706 C1704 1.391 . S
C1706 C1707 1.400 . S
C1707 C1706 1.400 . S
C1707 C1708 1.398 . S
C1707 C1713 1.491 . S
C1708 H1699 0.950 . S
C1708 C1707 1.398 . S
C1708 C1709 1.391 . S
C1709 H1697 0.950 . S
C1709 C1705 1.393 . S
C1709 C1708 1.391 . S
C1710 H1700 0.950 . S
C1710 C1711 1.386 . S
C1710 C1712 1.391 . S
C1711 C1710 1.386 . S
C1711 C1715 1.393 . S
C1712 H1701 0.950 . S
C1712 C1710 1.391 . S
C1712 C1713 1.400 . S
C1713 C1707 1.491 . S
C1713 C1712 1.400 . S
C1713 C1714 1.398 . S
C1714 H1702 0.950 . S
C1714 C1713 1.398 . S
C1714 C1715 1.391 . S
C1715 H1703 0.950 . S
C1715 C1711 1.393 . S
C1715 C1714 1.391 . S
H1716 C1724 0.950 . S
H1717 C1729 0.950 . S
H1718 C1726 0.950 . S
H1719 C1728 0.950 . S
H1720 C1730 0.950 . S
H1721 C1732 0.950 . S
H1722 C1734 0.950 . S
H1723 C1735 0.950 . S
C1724 H1716 0.950 . S
C1724 C1725 1.386 . S
C1724 C1726 1.391 . S
C1725 C1724 1.386 . S
C1725 C1729 1.393 . S
C1726 H1718 0.950 . S
C1726 C1724 1.391 . S
C1726 C1727 1.400 . S
C1727 C1726 1.400 . S
C1727 C1728 1.398 . S
C1727 C1733 1.491 . S
C1728 H1719 0.950 . S
C1728 C1727 1.398 . S
C1728 C1729 1.391 . S
C1729 H1717 0.950 . S
C1729 C1725 1.393 . S
C1729 C1728 1.391 . S
C1730 H1720 0.950 . S
C1730 C1731 1.386 . S
C1730 C1732 1.391 . S
C1731 C1730 1.386 . S
C1731 C1735 1.393 . S
C1732 H1721 0.950 . S
C1732 C1730 1.391 . S
C1732 C1733 1.400 . S
C1733 C1727 1.491 . S
C1733 C1732 1.400 . S
C1733 C1734 1.398 . S
C1734 H1722 0.950 . S
C1734 C1733 1.398 . S
C1734 C1735 1.391 . S
C1735 H1723 0.950 . S
C1735 C1731 1.393 . S
C1735 C1734 1.391 . S
H1736 C1744 0.950 . S
H1737 C1749 0.950 . S
H1738 C1746 0.950 . S
H1739 C1748 0.950 . S
H1740 C1750 0.950 . S
H1741 C1752 0.950 . S
H1742 C1754 0.950 . S
H1743 C1755 0.950 . S
C1744 H1736 0.950 . S
C1744 C1745 1.386 . S
C1744 C1746 1.391 . S
C1745 C1744 1.386 . S
C1745 C1749 1.393 . S
C1746 H1738 0.950 . S
C1746 C1744 1.391 . S
C1746 C1747 1.400 . S
C1747 C1746 1.400 . S
C1747 C1748 1.398 . S
C1747 C1753 1.491 . S
C1748 H1739 0.950 . S
C1748 C1747 1.398 . S
C1748 C1749 1.391 . S
C1749 H1737 0.950 . S
C1749 C1745 1.393 . S
C1749 C1748 1.391 . S
C1750 H1740 0.950 . S
C1750 C1751 1.386 . S
C1750 C1752 1.391 . S
C1751 C1750 1.386 . S
C1751 C1755 1.393 . S
C1752 H1741 0.950 . S
C1752 C1750 1.391 . S
C1752 C1753 1.400 . S
C1753 C1747 1.491 . S
C1753 C1752 1.400 . S
C1753 C1754 1.398 . S
C1754 H1742 0.950 . S
C1754 C1753 1.398 . S
C1754 C1755 1.391 . S
C1755 H1743 0.950 . S
C1755 C1751 1.393 . S
C1755 C1754 1.391 . S
H1756 C1764 0.950 . S
H1757 C1769 0.950 . S
H1758 C1766 0.950 . S
H1759 C1768 0.950 . S
H1760 C1770 0.950 . S
H1761 C1772 0.950 . S
H1762 C1774 0.950 . S
H1763 C1775 0.950 . S
C1764 H1756 0.950 . S
C1764 C1765 1.386 . S
C1764 C1766 1.391 . S
C1765 C1764 1.386 . S
C1765 C1769 1.393 . S
C1766 H1758 0.950 . S
C1766 C1764 1.391 . S
C1766 C1767 1.400 . S
C1767 C1766 1.400 . S
C1767 C1768 1.398 . S
C1767 C1773 1.491 . S
C1768 H1759 0.950 . S
C1768 C1767 1.398 . S
C1768 C1769 1.391 . S
C1769 H1757 0.950 . S
C1769 C1765 1.393 . S
C1769 C1768 1.391 . S
C1770 H1760 0.950 . S
C1770 C1771 1.386 . S
C1770 C1772 1.391 . S
C1771 C1770 1.386 . S
C1771 C1775 1.393 . S
C1772 H1761 0.950 . S
C1772 C1770 1.391 . S
C1772 C1773 1.400 . S
C1773 C1767 1.491 . S
C1773 C1772 1.400 . S
C1773 C1774 1.398 . S
C1774 H1762 0.950 . S
C1774 C1773 1.398 . S
C1774 C1775 1.391 . S
C1775 H1763 0.950 . S
C1775 C1771 1.393 . S
C1775 C1774 1.391 . S
H1776 C1784 0.950 . S
H1777 C1789 0.950 . S
H1778 C1786 0.950 . S
H1779 C1788 0.950 . S
H1780 C1790 0.950 . S
H1781 C1792 0.950 . S
H1782 C1794 0.950 . S
H1783 C1795 0.950 . S
C1784 H1776 0.950 . S
C1784 C1785 1.386 . S
C1784 C1786 1.391 . S
C1785 C1784 1.386 . S
C1785 C1789 1.393 . S
C1786 H1778 0.950 . S
C1786 C1784 1.391 . S
C1786 C1787 1.400 . S
C1787 C1786 1.400 . S
C1787 C1788 1.398 . S
C1787 C1793 1.491 . S
C1788 H1779 0.950 . S
C1788 C1787 1.398 . S
C1788 C1789 1.391 . S
C1789 H1777 0.950 . S
C1789 C1785 1.393 . S
C1789 C1788 1.391 . S
C1790 H1780 0.950 . S
C1790 C1791 1.386 . S
C1790 C1792 1.391 . S
C1791 C1790 1.386 . S
C1791 C1795 1.393 . S
C1792 H1781 0.950 . S
C1792 C1790 1.391 . S
C1792 C1793 1.400 . S
C1793 C1787 1.491 . S
C1793 C1792 1.400 . S
C1793 C1794 1.398 . S
C1794 H1782 0.950 . S
C1794 C1793 1.398 . S
C1794 C1795 1.391 . S
C1795 H1783 0.950 . S
C1795 C1791 1.393 . S
C1795 C1794 1.391 . S
H1796 C1804 0.950 . S
H1797 C1809 0.950 . S
H1798 C1806 0.950 . S
H1799 C1808 0.950 . S
H1800 C1810 0.950 . S
H1801 C1812 0.950 . S
H1802 C1814 0.950 . S
H1803 C1815 0.950 . S
C1804 H1796 0.950 . S
C1804 C1805 1.386 . S
C1804 C1806 1.391 . S
C1805 C1804 1.386 . S
C1805 C1809 1.393 . S
C1806 H1798 0.950 . S
C1806 C1804 1.391 . S
C1806 C1807 1.400 . S
C1807 C1806 1.400 . S
C1807 C1808 1.398 . S
C1807 C1813 1.491 . S
C1808 H1799 0.950 . S
C1808 C1807 1.398 . S
C1808 C1809 1.391 . S
C1809 H1797 0.950 . S
C1809 C1805 1.393 . S
C1809 C1808 1.391 . S
C1810 H1800 0.950 . S
C1810 C1811 1.386 . S
C1810 C1812 1.391 . S
C1811 C1810 1.386 . S
C1811 C1815 1.393 . S
C1812 H1801 0.950 . S
C1812 C1810 1.391 . S
C1812 C1813 1.400 . S
C1813 C1807 1.491 . S
C1813 C1812 1.400 . S
C1813 C1814 1.398 . S
C1814 H1802 0.950 . S
C1814 C1813 1.398 . S
C1814 C1815 1.391 . S
C1815 H1803 0.950 . S
C1815 C1811 1.393 . S
C1815 C1814 1.391 . S
H1816 C1824 0.950 . S
H1817 C1829 0.950 . S
H1818 C1826 0.950 . S
H1819 C1828 0.950 . S
H1820 C1830 0.950 . S
H1821 C1832 0.950 . S
H1822 C1834 0.950 . S
H1823 C1835 0.950 . S
C1824 H1816 0.950 . S
C1824 C1825 1.386 . S
C1824 C1826 1.391 . S
C1825 C1824 1.386 . S
C1825 C1829 1.393 . S
C1826 H1818 0.950 . S
C1826 C1824 1.391 . S
C1826 C1827 1.400 . S
C1827 C1826 1.400 . S
C1827 C1828 1.398 . S
C1827 C1833 1.491 . S
C1828 H1819 0.950 . S
C1828 C1827 1.398 . S
C1828 C1829 1.391 . S
C1829 H1817 0.950 . S
C1829 C1825 1.393 . S
C1829 C1828 1.391 . S
C1830 H1820 0.950 . S
C1830 C1831 1.386 . S
C1830 C1832 1.391 . S
C1831 C1830 1.386 . S
C1831 C1835 1.393 . S
C1832 H1821 0.950 . S
C1832 C1830 1.391 . S
C1832 C1833 1.400 . S
C1833 C1827 1.491 . S
C1833 C1832 1.400 . S
C1833 C1834 1.398 . S
C1834 H1822 0.950 . S
C1834 C1833 1.398 . S
C1834 C1835 1.391 . S
C1835 H1823 0.950 . S
C1835 C1831 1.393 . S
C1835 C1834 1.391 . S
H1836 C1844 0.950 . S
H1837 C1849 0.950 . S
H1838 C1846 0.950 . S
H1839 C1848 0.950 . S
H1840 C1850 0.950 . S
H1841 C1852 0.950 . S
H1842 C1854 0.950 . S
H1843 C1855 0.950 . S
C1844 H1836 0.950 . S
C1844 C1845 1.386 . S
C1844 C1846 1.391 . S
C1845 C1844 1.386 . S
C1845 C1849 1.393 . S
C1846 H1838 0.950 . S
C1846 C1844 1.391 . S
C1846 C1847 1.400 . S
C1847 C1846 1.400 . S
C1847 C1848 1.398 . S
C1847 C1853 1.491 . S
C1848 H1839 0.950 . S
C1848 C1847 1.398 . S
C1848 C1849 1.391 . S
C1849 H1837 0.950 . S
C1849 C1845 1.393 . S
C1849 C1848 1.391 . S
C1850 H1840 0.950 . S
C1850 C1851 1.386 . S
C1850 C1852 1.391 . S
C1851 C1850 1.386 . S
C1851 C1855 1.393 . S
C1852 H1841 0.950 . S
C1852 C1850 1.391 . S
C1852 C1853 1.400 . S
C1853 C1847 1.491 . S
C1853 C1852 1.400 . S
C1853 C1854 1.398 . S
C1854 H1842 0.950 . S
C1854 C1853 1.398 . S
C1854 C1855 1.391 . S
C1855 H1843 0.950 . S
C1855 C1851 1.393 . S
C1855 C1854 1.391 . S
H1856 C1864 0.950 . S
H1857 C1869 0.950 . S
H1858 C1866 0.950 . S
H1859 C1868 0.950 . S
H1860 C1870 0.950 . S
H1861 C1872 0.950 . S
H1862 C1874 0.950 . S
H1863 C1875 0.950 . S
C1864 H1856 0.950 . S
C1864 C1865 1.386 . S
C1864 C1866 1.391 . S
C1865 C1864 1.386 . S
C1865 C1869 1.393 . S
C1866 H1858 0.950 . S
C1866 C1864 1.391 . S
C1866 C1867 1.400 . S
C1867 C1866 1.400 . S
C1867 C1868 1.398 . S
C1867 C1873 1.491 . S
C1868 H1859 0.950 . S
C1868 C1867 1.398 . S
C1868 C1869 1.391 . S
C1869 H1857 0.950 . S
C1869 C1865 1.393 . S
C1869 C1868 1.391 . S
C1870 H1860 0.950 . S
C1870 C1871 1.386 . S
C1870 C1872 1.391 . S
C1871 C1870 1.386 . S
C1871 C1875 1.393 . S
C1872 H1861 0.950 . S
C1872 C1870 1.391 . S
C1872 C1873 1.400 . S
C1873 C1867 1.491 . S
C1873 C1872 1.400 . S
C1873 C1874 1.398 . S
C1874 H1862 0.950 . S
C1874 C1873 1.398 . S
C1874 C1875 1.391 . S
C1875 H1863 0.950 . S
C1875 C1871 1.393 . S
C1875 C1874 1.391 . S
H1876 C1884 0.950 . S
H1877 C1889 0.950 1_565 S
H1878 C1886 0.950 . S
H1879 C1888 0.950 . S
H1880 C1890 0.950 . S
H1881 C1892 0.950 . S
H1882 C1894 0.950 . S
H1883 C1895 0.950 . S
C1884 H1876 0.950 . S
C1884 C1885 1.386 . S
C1884 C1886 1.391 . S
C1885 C1884 1.386 . S
C1885 C1889 1.393 . S
C1886 H1878 0.950 . S
C1886 C1884 1.391 . S
C1886 C1887 1.400 . S
C1887 C1886 1.400 . S
C1887 C1888 1.398 . S
C1887 C1893 1.491 . S
C1888 H1879 0.950 . S
C1888 C1887 1.398 . S
C1888 C1889 1.391 . S
C1889 H1877 0.950 1_545 S
C1889 C1885 1.393 . S
C1889 C1888 1.391 . S
C1890 H1880 0.950 . S
C1890 C1891 1.386 . S
C1890 C1892 1.391 . S
C1891 C1890 1.386 . S
C1891 C1895 1.393 . S
C1892 H1881 0.950 . S
C1892 C1890 1.391 . S
C1892 C1893 1.400 . S
C1893 C1887 1.491 . S
C1893 C1892 1.400 . S
C1893 C1894 1.398 . S
C1894 H1882 0.950 . S
C1894 C1893 1.398 . S
C1894 C1895 1.391 . S
C1895 H1883 0.950 . S
C1895 C1891 1.393 . S
C1895 C1894 1.391 . S
H1896 C1904 0.950 . S
H1897 C1909 0.950 . S
H1898 C1906 0.950 . S
H1899 C1908 0.950 . S
H1900 C1910 0.950 . S
H1901 C1912 0.950 . S
H1902 C1914 0.950 . S
H1903 C1915 0.950 . S
C1904 H1896 0.950 . S
C1904 C1905 1.386 . S
C1904 C1906 1.391 . S
C1905 C1904 1.386 . S
C1905 C1909 1.393 . S
C1906 H1898 0.950 . S
C1906 C1904 1.391 . S
C1906 C1907 1.400 . S
C1907 C1906 1.400 . S
C1907 C1908 1.398 . S
C1907 C1913 1.491 . S
C1908 H1899 0.950 . S
C1908 C1907 1.398 . S
C1908 C1909 1.391 . S
C1909 H1897 0.950 . S
C1909 C1905 1.393 . S
C1909 C1908 1.391 . S
C1910 H1900 0.950 . S
C1910 C1911 1.386 . S
C1910 C1912 1.391 . S
C1911 C1910 1.386 . S
C1911 C1915 1.393 . S
C1912 H1901 0.950 . S
C1912 C1910 1.391 . S
C1912 C1913 1.400 . S
C1913 C1907 1.491 . S
C1913 C1912 1.400 . S
C1913 C1914 1.398 . S
C1914 H1902 0.950 . S
C1914 C1913 1.398 . S
C1914 C1915 1.391 . S
C1915 H1903 0.950 . S
C1915 C1911 1.393 . S
C1915 C1914 1.391 . S
H1916 C1924 0.950 . S
H1917 C1929 0.950 . S
H1918 C1926 0.950 . S
H1919 C1928 0.950 . S
H1920 C1930 0.950 . S
H1921 C1932 0.950 . S
H1922 C1934 0.950 . S
H1923 C1935 0.950 . S
C1924 H1916 0.950 . S
C1924 C1925 1.386 . S
C1924 C1926 1.391 . S
C1925 C1924 1.386 . S
C1925 C1929 1.393 . S
C1926 H1918 0.950 . S
C1926 C1924 1.391 . S
C1926 C1927 1.400 . S
C1927 C1926 1.400 . S
C1927 C1928 1.398 . S
C1927 C1933 1.491 . S
C1928 H1919 0.950 . S
C1928 C1927 1.398 . S
C1928 C1929 1.391 . S
C1929 H1917 0.950 . S
C1929 C1925 1.393 . S
C1929 C1928 1.391 . S
C1930 H1920 0.950 . S
C1930 C1931 1.386 . S
C1930 C1932 1.391 . S
C1931 C1930 1.386 . S
C1931 C1935 1.393 . S
C1932 H1921 0.950 . S
C1932 C1930 1.391 . S
C1932 C1933 1.400 . S
C1933 C1927 1.491 . S
C1933 C1932 1.400 . S
C1933 C1934 1.398 . S
C1934 H1922 0.950 . S
C1934 C1933 1.398 . S
C1934 C1935 1.391 . S
C1935 H1923 0.950 . S
C1935 C1931 1.393 . S
C1935 C1934 1.391 . S
H1936 C1944 0.950 . S
H1937 C1949 0.950 . S
H1938 C1946 0.950 . S
H1939 C1948 0.950 . S
H1940 C1950 0.950 . S
H1941 C1952 0.950 . S
H1942 C1954 0.950 . S
H1943 C1955 0.950 . S
C1944 H1936 0.950 . S
C1944 C1945 1.386 . S
C1944 C1946 1.391 . S
C1945 C1944 1.386 . S
C1945 C1949 1.393 . S
C1946 H1938 0.950 . S
C1946 C1944 1.391 . S
C1946 C1947 1.400 . S
C1947 C1946 1.400 . S
C1947 C1948 1.398 . S
C1947 C1953 1.491 . S
C1948 H1939 0.950 . S
C1948 C1947 1.398 . S
C1948 C1949 1.391 . S
C1949 H1937 0.950 . S
C1949 C1945 1.393 . S
C1949 C1948 1.391 . S
C1950 H1940 0.950 . S
C1950 C1951 1.386 . S
C1950 C1952 1.391 . S
C1951 C1950 1.386 . S
C1951 C1955 1.393 . S
C1952 H1941 0.950 . S
C1952 C1950 1.391 . S
C1952 C1953 1.400 . S
C1953 C1947 1.491 . S
C1953 C1952 1.400 . S
C1953 C1954 1.398 . S
C1954 H1942 0.950 . S
C1954 C1953 1.398 . S
C1954 C1955 1.391 . S
C1955 H1943 0.950 . S
C1955 C1951 1.393 . S
C1955 C1954 1.391 . S
H1956 C1964 0.950 . S
H1957 C1969 0.950 . S
H1958 C1966 0.950 . S
H1959 C1968 0.950 . S
H1960 C1970 0.950 . S
H1961 C1972 0.950 . S
H1962 C1974 0.950 . S
H1963 C1975 0.950 . S
C1964 H1956 0.950 . S
C1964 C1965 1.386 . S
C1964 C1966 1.391 . S
C1965 C1964 1.386 . S
C1965 C1969 1.393 . S
C1966 H1958 0.950 . S
C1966 C1964 1.391 . S
C1966 C1967 1.400 . S
C1967 C1966 1.400 . S
C1967 C1968 1.398 . S
C1967 C1973 1.491 . S
C1968 H1959 0.950 . S
C1968 C1967 1.398 . S
C1968 C1969 1.391 . S
C1969 H1957 0.950 . S
C1969 C1965 1.393 . S
C1969 C1968 1.391 . S
C1970 H1960 0.950 . S
C1970 C1971 1.386 . S
C1970 C1972 1.391 . S
C1971 C1970 1.386 . S
C1971 C1975 1.393 . S
C1972 H1961 0.950 . S
C1972 C1970 1.391 . S
C1972 C1973 1.400 . S
C1973 C1967 1.491 . S
C1973 C1972 1.400 . S
C1973 C1974 1.398 . S
C1974 H1962 0.950 . S
C1974 C1973 1.398 . S
C1974 C1975 1.391 . S
C1975 H1963 0.950 . S
C1975 C1971 1.393 . S
C1975 C1974 1.391 . S
H1976 C1984 0.950 . S
H1977 C1989 0.950 . S
H1978 C1986 0.950 . S
H1979 C1988 0.950 . S
H1980 C1990 0.950 . S
H1981 C1992 0.950 . S
H1982 C1994 0.950 1_556 S
H1983 C1995 0.950 . S
C1984 H1976 0.950 . S
C1984 C1985 1.386 . S
C1984 C1986 1.391 . S
C1985 C1984 1.386 . S
C1985 C1989 1.393 . S
C1986 H1978 0.950 . S
C1986 C1984 1.391 . S
C1986 C1987 1.400 . S
C1987 C1986 1.400 . S
C1987 C1988 1.398 1_556 S
C1987 C1993 1.491 1_556 S
C1988 H1979 0.950 . S
C1988 C1987 1.398 1_554 S
C1988 C1989 1.391 1_554 S
C1989 H1977 0.950 . S
C1989 C1985 1.393 . S
C1989 C1988 1.391 1_556 S
C1990 H1980 0.950 . S
C1990 C1991 1.386 . S
C1990 C1992 1.391 . S
C1991 C1990 1.386 . S
C1991 C1995 1.393 . S
C1992 H1981 0.950 . S
C1992 C1990 1.391 . S
C1992 C1993 1.400 . S
C1993 C1987 1.491 1_554 S
C1993 C1992 1.400 . S
C1993 C1994 1.398 . S
C1994 H1982 0.950 1_554 S
C1994 C1993 1.398 . S
C1994 C1995 1.391 . S
C1995 H1983 0.950 . S
C1995 C1991 1.393 . S
C1995 C1994 1.391 . S
H1996 C2004 0.950 . S
H1997 C2009 0.950 . S
H1998 C2006 0.950 . S
H1999 C2008 0.950 . S
H2000 C2010 0.950 . S
H2001 C2012 0.950 . S
H2002 C2014 0.950 . S
H2003 C2015 0.950 . S
C2004 H1996 0.950 . S
C2004 C2005 1.386 . S
C2004 C2006 1.391 . S
C2005 C2004 1.386 . S
C2005 C2009 1.393 . S
C2006 H1998 0.950 . S
C2006 C2004 1.391 . S
C2006 C2007 1.400 . S
C2007 C2006 1.400 . S
C2007 C2008 1.398 . S
C2007 C2013 1.491 . S
C2008 H1999 0.950 . S
C2008 C2007 1.398 . S
C2008 C2009 1.391 . S
C2009 H1997 0.950 . S
C2009 C2005 1.393 . S
C2009 C2008 1.391 . S
C2010 H2000 0.950 . S
C2010 C2011 1.386 . S
C2010 C2012 1.391 . S
C2011 C2010 1.386 . S
C2011 C2015 1.393 . S
C2012 H2001 0.950 . S
C2012 C2010 1.391 . S
C2012 C2013 1.400 . S
C2013 C2007 1.491 . S
C2013 C2012 1.400 . S
C2013 C2014 1.398 . S
C2014 H2002 0.950 . S
C2014 C2013 1.398 . S
C2014 C2015 1.391 . S
C2015 H2003 0.950 . S
C2015 C2011 1.393 . S
C2015 C2014 1.391 . S
H2016 C2024 0.950 . S
H2017 C2029 0.950 . S
H2018 C2026 0.950 . S
H2019 C2028 0.950 . S
H2020 C2030 0.950 . S
H2021 C2032 0.950 . S
H2022 C2034 0.950 . S
H2023 C2035 0.950 . S
C2024 H2016 0.950 . S
C2024 C2025 1.386 . S
C2024 C2026 1.391 . S
C2025 C2024 1.386 . S
C2025 C2029 1.393 . S
C2026 H2018 0.950 . S
C2026 C2024 1.391 . S
C2026 C2027 1.400 . S
C2027 C2026 1.400 . S
C2027 C2028 1.398 . S
C2027 C2033 1.491 . S
C2028 H2019 0.950 . S
C2028 C2027 1.398 . S
C2028 C2029 1.391 . S
C2029 H2017 0.950 . S
C2029 C2025 1.393 . S
C2029 C2028 1.391 . S
C2030 H2020 0.950 . S
C2030 C2031 1.386 . S
C2030 C2032 1.391 . S
C2031 C2030 1.386 . S
C2031 C2035 1.393 . S
C2032 H2021 0.950 . S
C2032 C2030 1.391 . S
C2032 C2033 1.400 . S
C2033 C2027 1.491 . S
C2033 C2032 1.400 . S
C2033 C2034 1.398 . S
C2034 H2022 0.950 . S
C2034 C2033 1.398 . S
C2034 C2035 1.391 . S
C2035 H2023 0.950 . S
C2035 C2031 1.393 . S
C2035 C2034 1.391 . S
H2036 C2044 0.950 . S
H2037 C2049 0.950 . S
H2038 C2046 0.950 . S
H2039 C2048 0.950 . S
H2040 C2050 0.950 . S
H2041 C2052 0.950 . S
H2042 C2054 0.950 . S
H2043 C2055 0.950 . S
C2044 H2036 0.950 . S
C2044 C2045 1.386 . S
C2044 C2046 1.391 1_455 S
C2045 C2044 1.386 . S
C2045 C2049 1.393 . S
C2046 H2038 0.950 . S
C2046 C2044 1.391 1_655 S
C2046 C2047 1.400 . S
C2047 C2046 1.400 . S
C2047 C2048 1.398 1_655 S
C2047 C2053 1.491 . S
C2048 H2039 0.950 . S
C2048 C2047 1.398 1_455 S
C2048 C2049 1.391 . S
C2049 H2037 0.950 . S
C2049 C2045 1.393 . S
C2049 C2048 1.391 . S
C2050 H2040 0.950 . S
C2050 C2051 1.386 . S
C2050 C2052 1.391 . S
C2051 C2050 1.386 . S
C2051 C2055 1.393 . S
C2052 H2041 0.950 . S
C2052 C2050 1.391 . S
C2052 C2053 1.400 . S
C2053 C2047 1.491 . S
C2053 C2052 1.400 . S
C2053 C2054 1.398 . S
C2054 H2042 0.950 . S
C2054 C2053 1.398 . S
C2054 C2055 1.391 . S
C2055 H2043 0.950 . S
C2055 C2051 1.393 . S
C2055 C2054 1.391 . S
H2056 C2064 0.950 . S
H2057 C2069 0.950 . S
H2058 C2066 0.950 . S
H2059 C2068 0.950 . S
H2060 C2070 0.950 . S
H2061 C2072 0.950 . S
H2062 C2074 0.950 1_655 S
H2063 C2075 0.950 . S
C2064 H2056 0.950 . S
C2064 C2065 1.386 . S
C2064 C2066 1.391 . S
C2065 C2064 1.386 . S
C2065 C2069 1.393 1_655 S
C2066 H2058 0.950 . S
C2066 C2064 1.391 . S
C2066 C2067 1.400 1_655 S
C2067 C2066 1.400 1_455 S
C2067 C2068 1.398 . S
C2067 C2073 1.491 . S
C2068 H2059 0.950 . S
C2068 C2067 1.398 . S
C2068 C2069 1.391 . S
C2069 H2057 0.950 . S
C2069 C2065 1.393 1_455 S
C2069 C2068 1.391 . S
C2070 H2060 0.950 . S
C2070 C2071 1.386 . S
C2070 C2072 1.391 . S
C2071 C2070 1.386 . S
C2071 C2075 1.393 . S
C2072 H2061 0.950 . S
C2072 C2070 1.391 . S
C2072 C2073 1.400 . S
C2073 C2067 1.491 . S
C2073 C2072 1.400 . S
C2073 C2074 1.398 . S
C2074 H2062 0.950 1_455 S
C2074 C2073 1.398 . S
C2074 C2075 1.391 . S
C2075 H2063 0.950 . S
C2075 C2071 1.393 . S
C2075 C2074 1.391 . S
H2076 C2084 0.950 . S
H2077 C2089 0.950 . S
H2078 C2086 0.950 . S
H2079 C2088 0.950 . S
H2080 C2090 0.950 . S
H2081 C2092 0.950 . S
H2082 C2094 0.950 . S
H2083 C2095 0.950 . S
C2084 H2076 0.950 . S
C2084 C2085 1.386 . S
C2084 C2086 1.391 . S
C2085 C2084 1.386 . S
C2085 C2089 1.393 . S
C2086 H2078 0.950 . S
C2086 C2084 1.391 . S
C2086 C2087 1.400 . S
C2087 C2086 1.400 . S
C2087 C2088 1.398 . S
C2087 C2093 1.491 . S
C2088 H2079 0.950 . S
C2088 C2087 1.398 . S
C2088 C2089 1.391 . S
C2089 H2077 0.950 . S
C2089 C2085 1.393 . S
C2089 C2088 1.391 . S
C2090 H2080 0.950 . S
C2090 C2091 1.386 . S
C2090 C2092 1.391 . S
C2091 C2090 1.386 . S
C2091 C2095 1.393 . S
C2092 H2081 0.950 . S
C2092 C2090 1.391 . S
C2092 C2093 1.400 . S
C2093 C2087 1.491 . S
C2093 C2092 1.400 . S
C2093 C2094 1.398 . S
C2094 H2082 0.950 . S
C2094 C2093 1.398 . S
C2094 C2095 1.391 . S
C2095 H2083 0.950 . S
C2095 C2091 1.393 . S
C2095 C2094 1.391 . S
H2096 C2104 0.950 . S
H2097 C2109 0.950 . S
H2098 C2106 0.950 . S
H2099 C2108 0.950 . S
H2100 C2110 0.950 . S
H2101 C2112 0.950 . S
H2102 C2114 0.950 . S
H2103 C2115 0.950 . S
C2104 H2096 0.950 . S
C2104 C2105 1.386 . S
C2104 C2106 1.391 . S
C2105 C2104 1.386 . S
C2105 C2109 1.393 . S
C2106 H2098 0.950 . S
C2106 C2104 1.391 . S
C2106 C2107 1.400 . S
C2107 C2106 1.400 . S
C2107 C2108 1.398 . S
C2107 C2113 1.491 . S
C2108 H2099 0.950 . S
C2108 C2107 1.398 . S
C2108 C2109 1.391 . S
C2109 H2097 0.950 . S
C2109 C2105 1.393 . S
C2109 C2108 1.391 . S
C2110 H2100 0.950 . S
C2110 C2111 1.386 . S
C2110 C2112 1.391 . S
C2111 C2110 1.386 . S
C2111 C2115 1.393 . S
C2112 H2101 0.950 . S
C2112 C2110 1.391 . S
C2112 C2113 1.400 . S
C2113 C2107 1.491 . S
C2113 C2112 1.400 . S
C2113 C2114 1.398 . S
C2114 H2102 0.950 . S
C2114 C2113 1.398 . S
C2114 C2115 1.391 . S
C2115 H2103 0.950 . S
C2115 C2111 1.393 . S
C2115 C2114 1.391 . S
H2116 C2124 0.950 . S
H2117 C2129 0.950 . S
H2118 C2126 0.950 . S
H2119 C2128 0.950 . S
H2120 C2130 0.950 . S
H2121 C2132 0.950 . S
H2122 C2134 0.950 . S
H2123 C2135 0.950 . S
C2124 H2116 0.950 . S
C2124 C2125 1.386 . S
C2124 C2126 1.391 . S
C2125 C2124 1.386 . S
C2125 C2129 1.393 . S
C2126 H2118 0.950 . S
C2126 C2124 1.391 . S
C2126 C2127 1.400 . S
C2127 C2126 1.400 . S
C2127 C2128 1.398 . S
C2127 C2133 1.491 . S
C2128 H2119 0.950 . S
C2128 C2127 1.398 . S
C2128 C2129 1.391 . S
C2129 H2117 0.950 . S
C2129 C2125 1.393 . S
C2129 C2128 1.391 . S
C2130 H2120 0.950 . S
C2130 C2131 1.386 . S
C2130 C2132 1.391 . S
C2131 C2130 1.386 . S
C2131 C2135 1.393 . S
C2132 H2121 0.950 . S
C2132 C2130 1.391 . S
C2132 C2133 1.400 . S
C2133 C2127 1.491 . S
C2133 C2132 1.400 . S
C2133 C2134 1.398 . S
C2134 H2122 0.950 . S
C2134 C2133 1.398 . S
C2134 C2135 1.391 . S
C2135 H2123 0.950 . S
C2135 C2131 1.393 . S
C2135 C2134 1.391 . S
H2136 C2144 0.950 . S
H2137 C2149 0.950 . S
H2138 C2146 0.950 . S
H2139 C2148 0.950 . S
H2140 C2150 0.950 . S
H2141 C2152 0.950 . S
H2142 C2154 0.950 . S
H2143 C2155 0.950 . S
C2144 H2136 0.950 . S
C2144 C2145 1.386 . S
C2144 C2146 1.391 . S
C2145 C2144 1.386 . S
C2145 C2149 1.393 . S
C2146 H2138 0.950 . S
C2146 C2144 1.391 . S
C2146 C2147 1.400 . S
C2147 C2146 1.400 . S
C2147 C2148 1.398 . S
C2147 C2153 1.491 . S
C2148 H2139 0.950 . S
C2148 C2147 1.398 . S
C2148 C2149 1.391 . S
C2149 H2137 0.950 . S
C2149 C2145 1.393 . S
C2149 C2148 1.391 . S
C2150 H2140 0.950 . S
C2150 C2151 1.386 . S
C2150 C2152 1.391 . S
C2151 C2150 1.386 . S
C2151 C2155 1.393 . S
C2152 H2141 0.950 . S
C2152 C2150 1.391 . S
C2152 C2153 1.400 . S
C2153 C2147 1.491 . S
C2153 C2152 1.400 . S
C2153 C2154 1.398 . S
C2154 H2142 0.950 . S
C2154 C2153 1.398 . S
C2154 C2155 1.391 . S
C2155 H2143 0.950 . S
C2155 C2151 1.393 . S
C2155 C2154 1.391 . S
H2156 C2164 0.950 . S
H2157 C2169 0.950 . S
H2158 C2166 0.950 . S
H2159 C2168 0.950 . S
H2160 C2170 0.950 . S
H2161 C2172 0.950 . S
H2162 C2174 0.950 . S
H2163 C2175 0.950 . S
C2164 H2156 0.950 . S
C2164 C2165 1.386 . S
C2164 C2166 1.391 . S
C2165 C2164 1.386 . S
C2165 C2169 1.393 . S
C2166 H2158 0.950 . S
C2166 C2164 1.391 . S
C2166 C2167 1.400 . S
C2167 C2166 1.400 . S
C2167 C2168 1.398 . S
C2167 C2173 1.491 . S
C2168 H2159 0.950 . S
C2168 C2167 1.398 . S
C2168 C2169 1.391 . S
C2169 H2157 0.950 . S
C2169 C2165 1.393 . S
C2169 C2168 1.391 . S
C2170 H2160 0.950 . S
C2170 C2171 1.386 . S
C2170 C2172 1.391 . S
C2171 C2170 1.386 . S
C2171 C2175 1.393 . S
C2172 H2161 0.950 . S
C2172 C2170 1.391 . S
C2172 C2173 1.400 . S
C2173 C2167 1.491 . S
C2173 C2172 1.400 . S
C2173 C2174 1.398 . S
C2174 H2162 0.950 . S
C2174 C2173 1.398 . S
C2174 C2175 1.391 . S
C2175 H2163 0.950 . S
C2175 C2171 1.393 . S
C2175 C2174 1.391 . S
H2176 C2184 0.950 . S
H2177 C2189 0.950 . S
H2178 C2186 0.950 . S
H2179 C2188 0.950 . S
H2180 C2190 0.950 1_554 S
H2181 C2192 0.950 . S
H2182 C2194 0.950 . S
H2183 C2195 0.950 . S
C2184 H2176 0.950 . S
C2184 C2185 1.386 . S
C2184 C2186 1.391 . S
C2185 C2184 1.386 . S
C2185 C2189 1.393 . S
C2186 H2178 0.950 . S
C2186 C2184 1.391 . S
C2186 C2187 1.400 . S
C2187 C2186 1.400 . S
C2187 C2188 1.398 . S
C2187 C2193 1.491 . S
C2188 H2179 0.950 . S
C2188 C2187 1.398 . S
C2188 C2189 1.391 . S
C2189 H2177 0.950 . S
C2189 C2185 1.393 . S
C2189 C2188 1.391 . S
C2190 H2180 0.950 1_556 S
C2190 C2191 1.389 1_556 S
C2190 C2192 1.391 . S
C2191 C2190 1.389 1_554 S
C2191 C2195 1.353 1_554 S
C2192 H2181 0.950 . S
C2192 C2190 1.391 . S
C2192 C2193 1.400 . S
C2193 C2187 1.491 . S
C2193 C2192 1.400 . S
C2193 C2194 1.398 . S
C2194 H2182 0.950 . S
C2194 C2193 1.398 . S
C2194 C2195 1.391 . S
C2195 H2183 0.950 . S
C2195 C2191 1.353 1_556 S
C2195 C2194 1.391 . S
H2196 C2204 0.950 . S
H2197 C2209 0.950 . S
H2198 C2206 0.950 . S
H2199 C2208 0.950 . S
H2200 C2210 0.950 . S
H2201 C2212 0.950 . S
H2202 C2214 0.950 . S
H2203 C2215 0.950 . S
C2204 H2196 0.950 . S
C2204 C2205 1.386 . S
C2204 C2206 1.391 . S
C2205 C2204 1.386 . S
C2205 C2209 1.393 . S
C2206 H2198 0.950 . S
C2206 C2204 1.391 . S
C2206 C2207 1.400 . S
C2207 C2206 1.400 . S
C2207 C2208 1.398 . S
C2207 C2213 1.491 . S
C2208 H2199 0.950 . S
C2208 C2207 1.398 . S
C2208 C2209 1.391 . S
C2209 H2197 0.950 . S
C2209 C2205 1.393 . S
C2209 C2208 1.391 . S
C2210 H2200 0.950 . S
C2210 C2211 1.386 . S
C2210 C2212 1.391 . S
C2211 C2210 1.386 . S
C2211 C2215 1.393 . S
C2212 H2201 0.950 . S
C2212 C2210 1.391 . S
C2212 C2213 1.400 . S
C2213 C2207 1.491 . S
C2213 C2212 1.400 . S
C2213 C2214 1.398 . S
C2214 H2202 0.950 . S
C2214 C2213 1.398 . S
C2214 C2215 1.391 . S
C2215 H2203 0.950 . S
C2215 C2211 1.393 . S
C2215 C2214 1.391 . S
H2216 C2224 0.950 . S
H2217 C2229 0.950 . S
H2218 C2226 0.950 . S
H2219 C2228 0.950 . S
H2220 C2230 0.950 . S
H2221 C2232 0.950 . S
H2222 C2234 0.950 . S
H2223 C2235 0.950 . S
C2224 H2216 0.950 . S
C2224 C2225 1.386 . S
C2224 C2226 1.391 . S
C2225 C2224 1.386 . S
C2225 C2229 1.393 . S
C2226 H2218 0.950 . S
C2226 C2224 1.391 . S
C2226 C2227 1.400 . S
C2227 C2226 1.400 . S
C2227 C2228 1.398 . S
C2227 C2233 1.491 . S
C2228 H2219 0.950 . S
C2228 C2227 1.398 . S
C2228 C2229 1.391 . S
C2229 H2217 0.950 . S
C2229 C2225 1.393 . S
C2229 C2228 1.391 . S
C2230 H2220 0.950 . S
C2230 C2231 1.386 . S
C2230 C2232 1.391 . S
C2231 C2230 1.386 . S
C2231 C2235 1.393 . S
C2232 H2221 0.950 . S
C2232 C2230 1.391 . S
C2232 C2233 1.400 . S
C2233 C2227 1.491 . S
C2233 C2232 1.400 . S
C2233 C2234 1.398 . S
C2234 H2222 0.950 . S
C2234 C2233 1.398 . S
C2234 C2235 1.391 . S
C2235 H2223 0.950 . S
C2235 C2231 1.393 . S
C2235 C2234 1.391 . S
H2236 C2244 0.950 . S
H2237 C2249 0.950 . S
H2238 C2246 0.950 . S
H2239 C2248 0.950 . S
H2240 C2250 0.950 . S
H2241 C2252 0.950 . S
H2242 C2254 0.950 . S
H2243 C2255 0.950 . S
C2244 H2236 0.950 . S
C2244 C2245 1.386 . S
C2244 C2246 1.391 . S
C2245 C2244 1.386 . S
C2245 C2249 1.393 . S
C2246 H2238 0.950 . S
C2246 C2244 1.391 . S
C2246 C2247 1.400 . S
C2247 C2246 1.400 . S
C2247 C2248 1.398 . S
C2247 C2253 1.491 . S
C2248 H2239 0.950 . S
C2248 C2247 1.398 . S
C2248 C2249 1.391 . S
C2249 H2237 0.950 . S
C2249 C2245 1.393 . S
C2249 C2248 1.391 . S
C2250 H2240 0.950 . S
C2250 C2251 1.386 . S
C2250 C2252 1.391 . S
C2251 C2250 1.386 . S
C2251 C2255 1.393 . S
C2252 H2241 0.950 . S
C2252 C2250 1.391 . S
C2252 C2253 1.400 . S
C2253 C2247 1.491 . S
C2253 C2252 1.400 . S
C2253 C2254 1.398 . S
C2254 H2242 0.950 . S
C2254 C2253 1.398 . S
C2254 C2255 1.391 . S
C2255 H2243 0.950 . S
C2255 C2251 1.393 . S
C2255 C2254 1.391 . S
H2256 C2264 0.950 . S
H2257 C2269 0.950 . S
H2258 C2266 0.950 . S
H2259 C2268 0.950 . S
H2260 C2270 0.950 . S
H2261 C2272 0.950 . S
H2262 C2274 0.950 . S
H2263 C2275 0.950 . S
C2264 H2256 0.950 . S
C2264 C2265 1.386 . S
C2264 C2266 1.391 . S
C2265 C2264 1.386 . S
C2265 C2269 1.393 . S
C2266 H2258 0.950 . S
C2266 C2264 1.391 . S
C2266 C2267 1.400 . S
C2267 C2266 1.400 . S
C2267 C2268 1.398 . S
C2267 C2273 1.491 . S
C2268 H2259 0.950 . S
C2268 C2267 1.398 . S
C2268 C2269 1.391 . S
C2269 H2257 0.950 . S
C2269 C2265 1.393 . S
C2269 C2268 1.391 . S
C2270 H2260 0.950 . S
C2270 C2271 1.386 . S
C2270 C2272 1.391 . S
C2271 C2270 1.386 . S
C2271 C2275 1.393 . S
C2272 H2261 0.950 . S
C2272 C2270 1.391 . S
C2272 C2273 1.400 . S
C2273 C2267 1.491 . S
C2273 C2272 1.400 . S
C2273 C2274 1.398 . S
C2274 H2262 0.950 . S
C2274 C2273 1.398 . S
C2274 C2275 1.391 . S
C2275 H2263 0.950 . S
C2275 C2271 1.393 . S
C2275 C2274 1.391 . S
H2276 C2284 0.950 . S
H2277 C2289 0.950 . S
H2278 C2286 0.950 . S
H2279 C2288 0.950 . S
H2280 C2290 0.950 . S
H2281 C2292 0.950 . S
H2282 C2294 0.950 . S
H2283 C2295 0.950 . S
C2284 H2276 0.950 . S
C2284 C2285 1.386 . S
C2284 C2286 1.391 . S
C2285 C2284 1.386 . S
C2285 C2289 1.393 . S
C2286 H2278 0.950 . S
C2286 C2284 1.391 . S
C2286 C2287 1.400 . S
C2287 C2286 1.400 . S
C2287 C2288 1.398 . S
C2287 C2293 1.491 . S
C2288 H2279 0.950 . S
C2288 C2287 1.398 . S
C2288 C2289 1.391 . S
C2289 H2277 0.950 . S
C2289 C2285 1.393 . S
C2289 C2288 1.391 . S
C2290 H2280 0.950 . S
C2290 C2291 1.386 . S
C2290 C2292 1.391 . S
C2291 C2290 1.386 . S
C2291 C2295 1.393 . S
C2292 H2281 0.950 . S
C2292 C2290 1.391 . S
C2292 C2293 1.400 . S
C2293 C2287 1.491 . S
C2293 C2292 1.400 . S
C2293 C2294 1.398 . S
C2294 H2282 0.950 . S
C2294 C2293 1.398 . S
C2294 C2295 1.391 . S
C2295 H2283 0.950 . S
C2295 C2291 1.393 . S
C2295 C2294 1.391 . S
H2296 C2304 0.950 . S
H2297 C2309 0.950 . S
H2298 C2306 0.950 . S
H2299 C2308 0.950 . S
H2300 C2310 0.950 . S
H2301 C2312 0.950 . S
H2302 C2314 0.950 . S
H2303 C2315 0.950 . S
C2304 H2296 0.950 . S
C2304 C2305 1.386 . S
C2304 C2306 1.391 . S
C2305 C2304 1.386 . S
C2305 C2309 1.393 . S
C2306 H2298 0.950 . S
C2306 C2304 1.391 . S
C2306 C2307 1.400 . S
C2307 C2306 1.400 . S
C2307 C2308 1.398 . S
C2307 C2313 1.491 . S
C2308 H2299 0.950 . S
C2308 C2307 1.398 . S
C2308 C2309 1.391 . S
C2309 H2297 0.950 . S
C2309 C2305 1.393 . S
C2309 C2308 1.391 . S
C2310 H2300 0.950 . S
C2310 C2311 1.386 . S
C2310 C2312 1.391 . S
C2311 C2310 1.386 . S
C2311 C2315 1.393 . S
C2312 H2301 0.950 . S
C2312 C2310 1.391 . S
C2312 C2313 1.400 . S
C2313 C2307 1.491 . S
C2313 C2312 1.400 . S
C2313 C2314 1.398 . S
C2314 H2302 0.950 . S
C2314 C2313 1.398 . S
C2314 C2315 1.391 . S
C2315 H2303 0.950 . S
C2315 C2311 1.393 . S
C2315 C2314 1.391 . S
H2316 C2324 0.950 . S
H2317 C2329 0.950 . S
H2318 C2326 0.950 . S
H2319 C2328 0.950 . S
H2320 C2330 0.950 . S
H2321 C2332 0.950 . S
H2322 C2334 0.950 1_545 S
H2323 C2335 0.950 . S
C2324 H2316 0.950 . S
C2324 C2325 1.386 . S
C2324 C2326 1.391 . S
C2325 C2324 1.386 . S
C2325 C2329 1.393 . S
C2326 H2318 0.950 . S
C2326 C2324 1.391 . S
C2326 C2327 1.400 . S
C2327 C2326 1.400 . S
C2327 C2328 1.398 . S
C2327 C2333 1.491 . S
C2328 H2319 0.950 . S
C2328 C2327 1.398 . S
C2328 C2329 1.391 . S
C2329 H2317 0.950 . S
C2329 C2325 1.393 . S
C2329 C2328 1.391 . S
C2330 H2320 0.950 . S
C2330 C2331 1.386 1_565 S
C2330 C2332 1.391 . S
C2331 C2330 1.386 1_545 S
C2331 C2335 1.393 . S
C2332 H2321 0.950 . S
C2332 C2330 1.391 . S
C2332 C2333 1.400 . S
C2333 C2327 1.491 . S
C2333 C2332 1.400 . S
C2333 C2334 1.398 . S
C2334 H2322 0.950 1_565 S
C2334 C2333 1.398 . S
C2334 C2335 1.391 1_565 S
C2335 H2323 0.950 . S
C2335 C2331 1.393 . S
C2335 C2334 1.391 1_545 S
H2336 C2344 0.950 . S
H2337 C2349 0.950 . S
H2338 C2346 0.950 . S
H2339 C2348 0.950 . S
H2340 C2350 0.950 . S
H2341 C2352 0.950 . S
H2342 C2354 0.950 . S
H2343 C2355 0.950 . S
C2344 H2336 0.950 . S
C2344 C2345 1.386 . S
C2344 C2346 1.391 . S
C2345 C2344 1.386 . S
C2345 C2349 1.393 . S
C2346 H2338 0.950 . S
C2346 C2344 1.391 . S
C2346 C2347 1.400 . S
C2347 C2346 1.400 . S
C2347 C2348 1.398 . S
C2347 C2353 1.491 . S
C2348 H2339 0.950 . S
C2348 C2347 1.398 . S
C2348 C2349 1.391 . S
C2349 H2337 0.950 . S
C2349 C2345 1.393 . S
C2349 C2348 1.391 . S
C2350 H2340 0.950 . S
C2350 C2351 1.386 . S
C2350 C2352 1.391 . S
C2351 C2350 1.386 . S
C2351 C2355 1.393 . S
C2352 H2341 0.950 . S
C2352 C2350 1.391 . S
C2352 C2353 1.400 . S
C2353 C2347 1.491 . S
C2353 C2352 1.400 . S
C2353 C2354 1.398 . S
C2354 H2342 0.950 . S
C2354 C2353 1.398 . S
C2354 C2355 1.391 . S
C2355 H2343 0.950 . S
C2355 C2351 1.393 . S
C2355 C2354 1.391 . S
H2356 C2364 0.950 . S
H2357 C2369 0.950 . S
H2358 C2366 0.950 . S
H2359 C2368 0.950 . S
H2360 C2370 0.950 . S
H2361 C2372 0.950 . S
H2362 C2374 0.950 . S
H2363 C2375 0.950 . S
C2364 H2356 0.950 . S
C2364 C2365 1.386 . S
C2364 C2366 1.391 . S
C2365 C2364 1.386 . S
C2365 C2369 1.393 . S
C2366 H2358 0.950 . S
C2366 C2364 1.391 . S
C2366 C2367 1.400 . S
C2367 C2366 1.400 . S
C2367 C2368 1.398 . S
C2367 C2373 1.491 . S
C2368 H2359 0.950 . S
C2368 C2367 1.398 . S
C2368 C2369 1.391 . S
C2369 H2357 0.950 . S
C2369 C2365 1.393 . S
C2369 C2368 1.391 . S
C2370 H2360 0.950 . S
C2370 C2371 1.386 . S
C2370 C2372 1.391 . S
C2371 C2370 1.386 . S
C2371 C2375 1.393 . S
C2372 H2361 0.950 . S
C2372 C2370 1.391 . S
C2372 C2373 1.400 . S
C2373 C2367 1.491 . S
C2373 C2372 1.400 . S
C2373 C2374 1.398 . S
C2374 H2362 0.950 . S
C2374 C2373 1.398 . S
C2374 C2375 1.391 . S
C2375 H2363 0.950 . S
C2375 C2371 1.393 . S
C2375 C2374 1.391 . S
H2376 C2384 0.950 . S
H2377 C2389 0.950 . S
H2378 C2386 0.950 . S
H2379 C2388 0.950 . S
H2380 C2390 0.950 . S
H2381 C2392 0.950 . S
H2382 C2394 0.950 . S
H2383 C2395 0.950 . S
C2384 H2376 0.950 . S
C2384 C2385 1.386 . S
C2384 C2386 1.391 . S
C2385 C2384 1.386 . S
C2385 C2389 1.393 . S
C2386 H2378 0.950 . S
C2386 C2384 1.391 . S
C2386 C2387 1.400 . S
C2387 C2386 1.400 . S
C2387 C2388 1.398 . S
C2387 C2393 1.491 . S
C2388 H2379 0.950 . S
C2388 C2387 1.398 . S
C2388 C2389 1.391 . S
C2389 H2377 0.950 . S
C2389 C2385 1.393 . S
C2389 C2388 1.391 . S
C2390 H2380 0.950 . S
C2390 C2391 1.386 . S
C2390 C2392 1.391 . S
C2391 C2390 1.386 . S
C2391 C2395 1.393 . S
C2392 H2381 0.950 . S
C2392 C2390 1.391 . S
C2392 C2393 1.400 . S
C2393 C2387 1.491 . S
C2393 C2392 1.400 . S
C2393 C2394 1.398 . S
C2394 H2382 0.950 . S
C2394 C2393 1.398 . S
C2394 C2395 1.391 . S
C2395 H2383 0.950 . S
C2395 C2391 1.393 . S
C2395 C2394 1.391 . S
H2396 C2404 0.950 . S
H2397 C2409 0.950 . S
H2398 C2406 0.950 . S
H2399 C2408 0.950 . S
H2400 C2410 0.950 . S
H2401 C2412 0.950 . S
H2402 C2414 0.950 . S
H2403 C2415 0.950 . S
C2404 H2396 0.950 . S
C2404 C2405 1.386 . S
C2404 C2406 1.391 . S
C2405 C2404 1.386 . S
C2405 C2409 1.393 . S
C2406 H2398 0.950 . S
C2406 C2404 1.391 . S
C2406 C2407 1.400 . S
C2407 C2406 1.400 . S
C2407 C2408 1.398 . S
C2407 C2413 1.491 . S
C2408 H2399 0.950 . S
C2408 C2407 1.398 . S
C2408 C2409 1.391 . S
C2409 H2397 0.950 . S
C2409 C2405 1.393 . S
C2409 C2408 1.391 . S
C2410 H2400 0.950 . S
C2410 C2411 1.386 . S
C2410 C2412 1.391 . S
C2411 C2410 1.386 . S
C2411 C2415 1.393 . S
C2412 H2401 0.950 . S
C2412 C2410 1.391 . S
C2412 C2413 1.400 1_565 S
C2413 C2407 1.491 . S
C2413 C2412 1.400 1_545 S
C2413 C2414 1.398 . S
C2414 H2402 0.950 . S
C2414 C2413 1.398 . S
C2414 C2415 1.391 1_545 S
C2415 H2403 0.950 . S
C2415 C2411 1.393 . S
C2415 C2414 1.391 1_565 S
H2416 C2424 0.950 . S
H2417 C2429 0.950 . S
H2418 C2426 0.950 . S
H2419 C2428 0.950 . S
H2420 C2430 0.950 . S
H2421 C2432 0.950 . S
H2422 C2434 0.950 . S
H2423 C2435 0.950 . S
C2424 H2416 0.950 . S
C2424 C2425 1.386 . S
C2424 C2426 1.391 . S
C2425 C2424 1.386 . S
C2425 C2429 1.393 . S
C2426 H2418 0.950 . S
C2426 C2424 1.391 . S
C2426 C2427 1.400 . S
C2427 C2426 1.400 . S
C2427 C2428 1.398 . S
C2427 C2433 1.491 . S
C2428 H2419 0.950 . S
C2428 C2427 1.398 . S
C2428 C2429 1.391 . S
C2429 H2417 0.950 . S
C2429 C2425 1.393 . S
C2429 C2428 1.391 . S
C2430 H2420 0.950 . S
C2430 C2431 1.386 . S
C2430 C2432 1.391 . S
C2431 C2430 1.386 . S
C2431 C2435 1.393 . S
C2432 H2421 0.950 . S
C2432 C2430 1.391 . S
C2432 C2433 1.400 . S
C2433 C2427 1.491 . S
C2433 C2432 1.400 . S
C2433 C2434 1.398 . S
C2434 H2422 0.950 . S
C2434 C2433 1.398 . S
C2434 C2435 1.391 . S
C2435 H2423 0.950 . S
C2435 C2431 1.393 . S
C2435 C2434 1.391 . S
H2436 C2444 0.950 . S
H2437 C2449 0.950 . S
H2438 C2446 0.950 . S
H2439 C2448 0.950 . S
H2440 C2450 0.950 . S
H2441 C2452 0.950 . S
H2442 C2454 0.950 . S
H2443 C2455 0.950 . S
C2444 H2436 0.950 . S
C2444 C2445 1.386 . S
C2444 C2446 1.391 . S
C2445 C2444 1.386 . S
C2445 C2449 1.393 . S
C2446 H2438 0.950 . S
C2446 C2444 1.391 . S
C2446 C2447 1.400 . S
C2447 C2446 1.400 . S
C2447 C2448 1.398 . S
C2447 C2453 1.491 . S
C2448 H2439 0.950 . S
C2448 C2447 1.398 . S
C2448 C2449 1.391 . S
C2449 H2437 0.950 . S
C2449 C2445 1.393 . S
C2449 C2448 1.391 . S
C2450 H2440 0.950 . S
C2450 C2451 1.386 . S
C2450 C2452 1.391 . S
C2451 C2450 1.386 . S
C2451 C2455 1.393 . S
C2452 H2441 0.950 . S
C2452 C2450 1.391 . S
C2452 C2453 1.400 . S
C2453 C2447 1.491 . S
C2453 C2452 1.400 . S
C2453 C2454 1.398 . S
C2454 H2442 0.950 . S
C2454 C2453 1.398 . S
C2454 C2455 1.391 . S
C2455 H2443 0.950 . S
C2455 C2451 1.393 . S
C2455 C2454 1.391 . S
H2456 C2464 0.950 . S
H2457 C2469 0.950 . S
H2458 C2466 0.950 . S
H2459 C2468 0.950 . S
H2460 C2470 0.950 . S
H2461 C2472 0.950 . S
H2462 C2474 0.950 . S
H2463 C2475 0.950 . S
C2464 H2456 0.950 . S
C2464 C2465 1.386 . S
C2464 C2466 1.391 . S
C2465 C2464 1.386 . S
C2465 C2469 1.393 . S
C2466 H2458 0.950 . S
C2466 C2464 1.391 . S
C2466 C2467 1.400 . S
C2467 C2466 1.400 . S
C2467 C2468 1.398 . S
C2467 C2473 1.491 . S
C2468 H2459 0.950 . S
C2468 C2467 1.398 . S
C2468 C2469 1.391 . S
C2469 H2457 0.950 . S
C2469 C2465 1.393 . S
C2469 C2468 1.391 . S
C2470 H2460 0.950 . S
C2470 C2471 1.386 . S
C2470 C2472 1.391 . S
C2471 C2470 1.386 . S
C2471 C2475 1.393 . S
C2472 H2461 0.950 . S
C2472 C2470 1.391 . S
C2472 C2473 1.400 . S
C2473 C2467 1.491 . S
C2473 C2472 1.400 . S
C2473 C2474 1.398 . S
C2474 H2462 0.950 . S
C2474 C2473 1.398 . S
C2474 C2475 1.391 . S
C2475 H2463 0.950 . S
C2475 C2471 1.393 . S
C2475 C2474 1.391 . S
H2476 C2484 0.950 . S
H2477 C2489 0.950 . S
H2478 C2486 0.950 . S
H2479 C2488 0.950 . S
H2480 C2490 0.950 . S
H2481 C2492 0.950 . S
H2482 C2494 0.950 . S
H2483 C2495 0.950 . S
C2484 H2476 0.950 . S
C2484 C2485 1.386 . S
C2484 C2486 1.391 . S
C2485 C2484 1.386 . S
C2485 C2489 1.393 . S
C2486 H2478 0.950 . S
C2486 C2484 1.391 . S
C2486 C2487 1.400 . S
C2487 C2486 1.400 . S
C2487 C2488 1.398 . S
C2487 C2493 1.491 . S
C2488 H2479 0.950 . S
C2488 C2487 1.398 . S
C2488 C2489 1.391 . S
C2489 H2477 0.950 . S
C2489 C2485 1.393 . S
C2489 C2488 1.391 . S
C2490 H2480 0.950 . S
C2490 C2491 1.386 . S
C2490 C2492 1.391 . S
C2491 C2490 1.386 . S
C2491 C2495 1.393 . S
C2492 H2481 0.950 . S
C2492 C2490 1.391 . S
C2492 C2493 1.400 . S
C2493 C2487 1.491 . S
C2493 C2492 1.400 . S
C2493 C2494 1.398 . S
C2494 H2482 0.950 . S
C2494 C2493 1.398 . S
C2494 C2495 1.391 . S
C2495 H2483 0.950 . S
C2495 C2491 1.393 . S
C2495 C2494 1.391 . S
H2496 C2504 0.950 . S
H2497 C2509 0.913 1_556 S
H2498 C2506 0.950 . S
H2499 C2508 0.950 . S
H2500 C2510 0.950 . S
H2501 C2512 0.950 . S
H2502 C2514 0.950 . S
H2503 C2515 0.950 . S
C2504 H2496 0.950 . S
C2504 C2505 1.386 . S
C2504 C2506 1.391 . S
C2505 C2504 1.386 . S
C2505 C2509 1.393 . S
C2506 H2498 0.950 . S
C2506 C2504 1.391 . S
C2506 C2507 1.400 . S
C2507 C2506 1.400 . S
C2507 C2508 1.398 . S
C2507 C2513 1.491 . S
C2508 H2499 0.950 . S
C2508 C2507 1.398 . S
C2508 C2509 1.391 . S
C2509 H2497 0.913 1_554 S
C2509 C2505 1.393 . S
C2509 C2508 1.391 . S
C2510 H2500 0.950 . S
C2510 C2511 1.386 . S
C2510 C2512 1.391 . S
C2511 C2510 1.386 . S
C2511 C2515 1.393 . S
C2512 H2501 0.950 . S
C2512 C2510 1.391 . S
C2512 C2513 1.400 . S
C2513 C2507 1.491 . S
C2513 C2512 1.400 . S
C2513 C2514 1.398 . S
C2514 H2502 0.950 . S
C2514 C2513 1.398 . S
C2514 C2515 1.391 . S
C2515 H2503 0.950 . S
C2515 C2511 1.393 . S
C2515 C2514 1.391 . S
H2516 C2524 0.950 . S
H2517 C2529 0.950 . S
H2518 C2526 0.950 . S
H2519 C2528 0.950 . S
H2520 C2530 0.950 . S
H2521 C2532 0.950 . S
H2522 C2534 0.950 . S
H2523 C2535 0.950 . S
C2524 H2516 0.950 . S
C2524 C2525 1.386 . S
C2524 C2526 1.391 . S
C2525 C2524 1.386 . S
C2525 C2529 1.393 . S
C2526 H2518 0.950 . S
C2526 C2524 1.391 . S
C2526 C2527 1.400 . S
C2527 C2526 1.400 . S
C2527 C2528 1.398 . S
C2527 C2533 1.491 . S
C2528 H2519 0.950 . S
C2528 C2527 1.398 . S
C2528 C2529 1.391 . S
C2529 H2517 0.950 . S
C2529 C2525 1.393 . S
C2529 C2528 1.391 . S
C2530 H2520 0.950 . S
C2530 C2531 1.386 . S
C2530 C2532 1.391 . S
C2531 C2530 1.386 . S
C2531 C2535 1.393 . S
C2532 H2521 0.950 . S
C2532 C2530 1.391 . S
C2532 C2533 1.400 . S
C2533 C2527 1.491 . S
C2533 C2532 1.400 . S
C2533 C2534 1.398 . S
C2534 H2522 0.950 . S
C2534 C2533 1.398 . S
C2534 C2535 1.391 . S
C2535 H2523 0.950 . S
C2535 C2531 1.393 . S
C2535 C2534 1.391 . S
H2536 C2544 0.950 . S
H2537 C2549 0.950 . S
H2538 C2546 0.950 . S
H2539 C2548 0.950 . S
H2540 C2550 0.950 . S
H2541 C2552 0.950 . S
H2542 C2554 0.950 . S
H2543 C2555 0.950 . S
C2544 H2536 0.950 . S
C2544 C2545 1.386 . S
C2544 C2546 1.391 . S
C2545 C2544 1.386 . S
C2545 C2549 1.393 . S
C2546 H2538 0.950 . S
C2546 C2544 1.391 . S
C2546 C2547 1.400 . S
C2547 C2546 1.400 . S
C2547 C2548 1.398 . S
C2547 C2553 1.491 . S
C2548 H2539 0.950 . S
C2548 C2547 1.398 . S
C2548 C2549 1.391 . S
C2549 H2537 0.950 . S
C2549 C2545 1.393 . S
C2549 C2548 1.391 . S
C2550 H2540 0.950 . S
C2550 C2551 1.386 . S
C2550 C2552 1.391 . S
C2551 C2550 1.386 . S
C2551 C2555 1.393 . S
C2552 H2541 0.950 . S
C2552 C2550 1.391 . S
C2552 C2553 1.400 . S
C2553 C2547 1.491 . S
C2553 C2552 1.400 . S
C2553 C2554 1.398 . S
C2554 H2542 0.950 . S
C2554 C2553 1.398 . S
C2554 C2555 1.391 . S
C2555 H2543 0.950 . S
C2555 C2551 1.393 . S
C2555 C2554 1.391 . S
H2556 C2564 0.950 . S
H2557 C2569 0.950 . S
H2558 C2566 0.950 . S
H2559 C2568 0.950 . S
H2560 C2570 0.950 . S
H2561 C2572 0.950 . S
H2562 C2574 0.950 . S
H2563 C2575 0.950 . S
C2564 H2556 0.950 . S
C2564 C2565 1.386 . S
C2564 C2566 1.391 . S
C2565 C2564 1.386 . S
C2565 C2569 1.393 . S
C2566 H2558 0.950 . S
C2566 C2564 1.391 . S
C2566 C2567 1.400 . S
C2567 C2566 1.400 . S
C2567 C2568 1.398 . S
C2567 C2573 1.491 . S
C2568 H2559 0.950 . S
C2568 C2567 1.398 . S
C2568 C2569 1.391 . S
C2569 H2557 0.950 . S
C2569 C2565 1.393 . S
C2569 C2568 1.391 . S
C2570 H2560 0.950 . S
C2570 C2571 1.386 . S
C2570 C2572 1.391 . S
C2571 C2570 1.386 . S
C2571 C2575 1.393 . S
C2572 H2561 0.950 . S
C2572 C2570 1.391 . S
C2572 C2573 1.400 . S
C2573 C2567 1.491 . S
C2573 C2572 1.400 . S
C2573 C2574 1.398 . S
C2574 H2562 0.950 . S
C2574 C2573 1.398 . S
C2574 C2575 1.391 . S
C2575 H2563 0.950 . S
C2575 C2571 1.393 . S
C2575 C2574 1.391 . S
H2576 C2584 0.950 . S
H2577 C2589 0.950 . S
H2578 C2586 0.950 . S
H2579 C2588 0.950 . S
H2580 C2590 0.950 . S
H2581 C2592 0.950 . S
H2582 C2594 0.950 . S
H2583 C2595 0.950 . S
C2584 H2576 0.950 . S
C2584 C2585 1.386 . S
C2584 C2586 1.391 . S
C2585 C2584 1.386 . S
C2585 C2589 1.393 . S
C2586 H2578 0.950 . S
C2586 C2584 1.391 . S
C2586 C2587 1.400 . S
C2587 C2586 1.400 . S
C2587 C2588 1.398 . S
C2587 C2593 1.491 . S
C2588 H2579 0.950 . S
C2588 C2587 1.398 . S
C2588 C2589 1.391 . S
C2589 H2577 0.950 . S
C2589 C2585 1.393 . S
C2589 C2588 1.391 . S
C2590 H2580 0.950 . S
C2590 C2591 1.386 . S
C2590 C2592 1.391 . S
C2591 C2590 1.386 . S
C2591 C2595 1.393 . S
C2592 H2581 0.950 . S
C2592 C2590 1.391 . S
C2592 C2593 1.400 . S
C2593 C2587 1.491 . S
C2593 C2592 1.400 . S
C2593 C2594 1.398 . S
C2594 H2582 0.950 . S
C2594 C2593 1.398 . S
C2594 C2595 1.391 . S
C2595 H2583 0.950 . S
C2595 C2591 1.393 . S
C2595 C2594 1.391 . S
H2596 C2604 0.950 . S
H2597 C2609 0.950 . S
H2598 C2606 0.950 . S
H2599 C2608 0.950 . S
H2600 C2610 0.950 . S
H2601 C2612 0.950 . S
H2602 C2614 0.950 . S
H2603 C2615 0.950 . S
C2604 H2596 0.950 . S
C2604 C2605 1.386 . S
C2604 C2606 1.391 . S
C2605 C2604 1.386 . S
C2605 C2609 1.393 . S
C2606 H2598 0.950 . S
C2606 C2604 1.391 . S
C2606 C2607 1.400 . S
C2607 C2606 1.400 . S
C2607 C2608 1.398 . S
C2607 C2613 1.491 . S
C2608 H2599 0.950 . S
C2608 C2607 1.398 . S
C2608 C2609 1.391 . S
C2609 H2597 0.950 . S
C2609 C2605 1.393 . S
C2609 C2608 1.391 . S
C2610 H2600 0.950 . S
C2610 C2611 1.386 . S
C2610 C2612 1.391 . S
C2611 C2610 1.386 . S
C2611 C2615 1.393 . S
C2612 H2601 0.950 . S
C2612 C2610 1.391 . S
C2612 C2613 1.400 . S
C2613 C2607 1.491 . S
C2613 C2612 1.400 . S
C2613 C2614 1.398 . S
C2614 H2602 0.950 . S
C2614 C2613 1.398 . S
C2614 C2615 1.391 . S
C2615 H2603 0.950 . S
C2615 C2611 1.393 . S
C2615 C2614 1.391 . S
H2616 C2624 0.950 . S
H2617 C2629 0.960 . S
H2618 C2626 0.950 . S
H2619 C2628 0.950 . S
H2620 C2630 0.950 . S
H2621 C2632 0.950 . S
H2622 C2634 0.950 . S
H2623 C2635 0.950 . S
C2624 H2616 0.950 . S
C2624 C2625 1.386 . S
C2624 C2626 1.391 1_655 S
C2625 C2624 1.386 . S
C2625 C2629 1.393 1_655 S
C2626 H2618 0.950 . S
C2626 C2624 1.391 1_455 S
C2626 C2627 1.400 . S
C2627 C2626 1.400 . S
C2627 C2628 1.398 . S
C2627 C2633 1.491 . S
C2628 H2619 0.950 . S
C2628 C2627 1.398 . S
C2628 C2629 1.391 . S
C2629 H2617 0.960 . S
C2629 C2625 1.393 1_455 S
C2629 C2628 1.391 . S
C2630 H2620 0.950 . S
C2630 C2631 1.386 . S
C2630 C2632 1.391 . S
C2631 C2630 1.386 . S
C2631 C2635 1.393 1_554 S
C2632 H2621 0.950 . S
C2632 C2630 1.391 . S
C2632 C2633 1.400 1_554 S
C2633 C2627 1.491 . S
C2633 C2632 1.400 1_556 S
C2633 C2634 1.398 . S
C2634 H2622 0.950 . S
C2634 C2633 1.398 . S
C2634 C2635 1.391 . S
C2635 H2623 0.950 . S
C2635 C2631 1.393 1_556 S
C2635 C2634 1.391 . S
H2636 C2644 0.950 . S
H2637 C2649 0.950 . S
H2638 C2646 0.950 . S
H2639 C2648 0.950 . S
H2640 C2650 0.950 . S
H2641 C2652 0.950 . S
H2642 C2654 0.950 . S
H2643 C2655 0.950 . S
C2644 H2636 0.950 . S
C2644 C2645 1.386 . S
C2644 C2646 1.391 . S
C2645 C2644 1.386 . S
C2645 C2649 1.393 . S
C2646 H2638 0.950 . S
C2646 C2644 1.391 . S
C2646 C2647 1.400 . S
C2647 C2646 1.400 . S
C2647 C2648 1.398 . S
C2647 C2653 1.491 . S
C2648 H2639 0.950 . S
C2648 C2647 1.398 . S
C2648 C2649 1.391 . S
C2649 H2637 0.950 . S
C2649 C2645 1.393 . S
C2649 C2648 1.391 . S
C2650 H2640 0.950 . S
C2650 C2651 1.386 . S
C2650 C2652 1.391 . S
C2651 C2650 1.386 . S
C2651 C2655 1.393 . S
C2652 H2641 0.950 . S
C2652 C2650 1.391 . S
C2652 C2653 1.400 . S
C2653 C2647 1.491 . S
C2653 C2652 1.400 . S
C2653 C2654 1.398 . S
C2654 H2642 0.950 . S
C2654 C2653 1.398 . S
C2654 C2655 1.391 . S
C2655 H2643 0.950 . S
C2655 C2651 1.393 . S
C2655 C2654 1.391 . S
H2656 C2664 0.950 . S
H2657 C2669 0.950 . S
H2658 C2666 0.950 . S
H2659 C2668 0.950 . S
H2660 C2670 0.950 . S
H2661 C2672 0.950 . S
H2662 C2674 0.950 . S
H2663 C2675 0.950 . S
C2664 H2656 0.950 . S
C2664 C2665 1.386 . S
C2664 C2666 1.391 . S
C2665 C2664 1.386 . S
C2665 C2669 1.393 . S
C2666 H2658 0.950 . S
C2666 C2664 1.391 . S
C2666 C2667 1.400 . S
C2667 C2666 1.400 . S
C2667 C2668 1.398 . S
C2667 C2673 1.491 . S
C2668 H2659 0.950 . S
C2668 C2667 1.398 . S
C2668 C2669 1.391 . S
C2669 H2657 0.950 . S
C2669 C2665 1.393 . S
C2669 C2668 1.391 . S
C2670 H2660 0.950 . S
C2670 C2671 1.386 . S
C2670 C2672 1.391 . S
C2671 C2670 1.386 . S
C2671 C2675 1.393 . S
C2672 H2661 0.950 . S
C2672 C2670 1.391 . S
C2672 C2673 1.400 . S
C2673 C2667 1.491 . S
C2673 C2672 1.400 . S
C2673 C2674 1.398 . S
C2674 H2662 0.950 . S
C2674 C2673 1.398 . S
C2674 C2675 1.391 . S
C2675 H2663 0.950 . S
C2675 C2671 1.393 . S
C2675 C2674 1.391 . S
H2676 C2684 0.950 . S
H2677 C2689 0.950 . S
H2678 C2686 0.950 . S
H2679 C2688 0.950 . S
H2680 C2690 0.950 . S
H2681 C2692 0.950 . S
H2682 C2694 0.950 . S
H2683 C2695 0.950 . S
C2684 H2676 0.950 . S
C2684 C2685 1.386 . S
C2684 C2686 1.391 . S
C2685 C2684 1.386 . S
C2685 C2689 1.393 . S
C2686 H2678 0.950 . S
C2686 C2684 1.391 . S
C2686 C2687 1.400 . S
C2687 C2686 1.400 . S
C2687 C2688 1.398 . S
C2687 C2693 1.491 . S
C2688 H2679 0.950 . S
C2688 C2687 1.398 . S
C2688 C2689 1.391 . S
C2689 H2677 0.950 . S
C2689 C2685 1.393 . S
C2689 C2688 1.391 . S
C2690 H2680 0.950 . S
C2690 C2691 1.386 . S
C2690 C2692 1.391 . S
C2691 C2690 1.386 . S
C2691 C2695 1.393 . S
C2692 H2681 0.950 . S
C2692 C2690 1.391 . S
C2692 C2693 1.400 . S
C2693 C2687 1.491 . S
C2693 C2692 1.400 . S
C2693 C2694 1.398 . S
C2694 H2682 0.950 . S
C2694 C2693 1.398 . S
C2694 C2695 1.391 . S
C2695 H2683 0.950 . S
C2695 C2691 1.393 . S
C2695 C2694 1.391 . S
H2696 C2704 0.950 . S
H2697 C2709 0.950 . S
H2698 C2706 0.950 . S
H2699 C2708 0.950 . S
H2700 C2710 0.950 . S
H2701 C2712 0.950 . S
H2702 C2714 0.950 . S
H2703 C2715 0.950 . S
C2704 H2696 0.950 . S
C2704 C2705 1.386 . S
C2704 C2706 1.391 . S
C2705 C2704 1.386 . S
C2705 C2709 1.393 . S
C2706 H2698 0.950 . S
C2706 C2704 1.391 . S
C2706 C2707 1.400 . S
C2707 C2706 1.400 . S
C2707 C2708 1.398 . S
C2707 C2713 1.491 1_655 S
C2708 H2699 0.950 . S
C2708 C2707 1.398 . S
C2708 C2709 1.391 . S
C2709 H2697 0.950 . S
C2709 C2705 1.393 . S
C2709 C2708 1.391 . S
C2710 H2700 0.950 . S
C2710 C2711 1.386 . S
C2710 C2712 1.391 . S
C2711 C2710 1.386 . S
C2711 C2715 1.393 . S
C2712 H2701 0.950 . S
C2712 C2710 1.391 . S
C2712 C2713 1.400 . S
C2713 C2707 1.491 1_455 S
C2713 C2712 1.400 . S
C2713 C2714 1.398 . S
C2714 H2702 0.950 . S
C2714 C2713 1.398 . S
C2714 C2715 1.391 . S
C2715 H2703 0.950 . S
C2715 C2711 1.393 . S
C2715 C2714 1.391 . S
H2716 C2724 0.950 . S
H2717 C2729 0.950 . S
H2718 C2726 0.950 . S
H2719 C2728 0.950 . S
H2720 C2730 0.950 . S
H2721 C2732 0.950 . S
H2722 C2734 0.950 . S
H2723 C2735 0.950 . S
C2724 H2716 0.950 . S
C2724 C2725 1.386 . S
C2724 C2726 1.391 . S
C2725 C2724 1.386 . S
C2725 C2729 1.393 . S
C2726 H2718 0.950 . S
C2726 C2724 1.391 . S
C2726 C2727 1.400 . S
C2727 C2726 1.400 . S
C2727 C2728 1.398 . S
C2727 C2733 1.491 . S
C2728 H2719 0.950 . S
C2728 C2727 1.398 . S
C2728 C2729 1.391 . S
C2729 H2717 0.950 . S
C2729 C2725 1.393 . S
C2729 C2728 1.391 . S
C2730 H2720 0.950 . S
C2730 C2731 1.386 . S
C2730 C2732 1.391 . S
C2731 C2730 1.386 . S
C2731 C2735 1.393 . S
C2732 H2721 0.950 . S
C2732 C2730 1.391 . S
C2732 C2733 1.400 . S
C2733 C2727 1.491 . S
C2733 C2732 1.400 . S
C2733 C2734 1.398 . S
C2734 H2722 0.950 . S
C2734 C2733 1.398 . S
C2734 C2735 1.391 . S
C2735 H2723 0.950 . S
C2735 C2731 1.393 . S
C2735 C2734 1.391 . S
H2736 C2744 0.950 . S
H2737 C2749 0.950 . S
H2738 C2746 0.950 . S
H2739 C2748 0.950 . S
H2740 C2750 0.950 . S
H2741 C2752 0.950 . S
H2742 C2754 0.950 . S
H2743 C2755 0.950 . S
C2744 H2736 0.950 . S
C2744 C2745 1.386 . S
C2744 C2746 1.391 . S
C2745 C2744 1.386 . S
C2745 C2749 1.393 . S
C2746 H2738 0.950 . S
C2746 C2744 1.391 . S
C2746 C2747 1.400 . S
C2747 C2746 1.400 . S
C2747 C2748 1.398 . S
C2747 C2753 1.491 . S
C2748 H2739 0.950 . S
C2748 C2747 1.398 . S
C2748 C2749 1.391 . S
C2749 H2737 0.950 . S
C2749 C2745 1.393 . S
C2749 C2748 1.391 . S
C2750 H2740 0.950 . S
C2750 C2751 1.386 . S
C2750 C2752 1.391 . S
C2751 C2750 1.386 . S
C2751 C2755 1.393 . S
C2752 H2741 0.950 . S
C2752 C2750 1.391 . S
C2752 C2753 1.400 . S
C2753 C2747 1.491 . S
C2753 C2752 1.400 . S
C2753 C2754 1.398 . S
C2754 H2742 0.950 . S
C2754 C2753 1.398 . S
C2754 C2755 1.391 . S
C2755 H2743 0.950 . S
C2755 C2751 1.393 . S
C2755 C2754 1.391 . S
H2756 C2764 0.950 1_565 S
H2757 C2769 0.950 . S
H2758 C2766 0.950 . S
H2759 C2768 0.950 . S
H2760 C2770 0.950 . S
H2761 C2772 0.950 . S
H2762 C2774 0.950 . S
H2763 C2775 0.950 . S
C2764 H2756 0.950 1_545 S
C2764 C2765 1.386 . S
C2764 C2766 1.391 . S
C2765 C2764 1.386 . S
C2765 C2769 1.393 . S
C2766 H2758 0.950 . S
C2766 C2764 1.391 . S
C2766 C2767 1.400 . S
C2767 C2766 1.400 . S
C2767 C2768 1.398 . S
C2767 C2773 1.491 . S
C2768 H2759 0.950 . S
C2768 C2767 1.398 . S
C2768 C2769 1.391 . S
C2769 H2757 0.950 . S
C2769 C2765 1.393 . S
C2769 C2768 1.391 . S
C2770 H2760 0.950 . S
C2770 C2771 1.386 . S
C2770 C2772 1.391 . S
C2771 C2770 1.386 . S
C2771 C2775 1.393 . S
C2772 H2761 0.950 . S
C2772 C2770 1.391 . S
C2772 C2773 1.400 . S
C2773 C2767 1.491 . S
C2773 C2772 1.400 . S
C2773 C2774 1.398 . S
C2774 H2762 0.950 . S
C2774 C2773 1.398 . S
C2774 C2775 1.391 . S
C2775 H2763 0.950 . S
C2775 C2771 1.393 . S
C2775 C2774 1.391 . S
H2776 C2784 0.950 . S
H2777 C2789 0.950 . S
H2778 C2786 0.950 . S
H2779 C2788 0.950 . S
H2780 C2790 0.950 . S
H2781 C2792 0.950 . S
H2782 C2794 0.950 . S
H2783 C2795 0.950 . S
C2784 H2776 0.950 . S
C2784 C2785 1.386 . S
C2784 C2786 1.391 . S
C2785 C2784 1.386 . S
C2785 C2789 1.393 . S
C2786 H2778 0.950 . S
C2786 C2784 1.391 . S
C2786 C2787 1.400 . S
C2787 C2786 1.400 . S
C2787 C2788 1.398 . S
C2787 C2793 1.491 . S
C2788 H2779 0.950 . S
C2788 C2787 1.398 . S
C2788 C2789 1.391 . S
C2789 H2777 0.950 . S
C2789 C2785 1.393 . S
C2789 C2788 1.391 . S
C2790 H2780 0.950 . S
C2790 C2791 1.386 . S
C2790 C2792 1.391 . S
C2791 C2790 1.386 . S
C2791 C2795 1.393 . S
C2792 H2781 0.950 . S
C2792 C2790 1.391 . S
C2792 C2793 1.400 . S
C2793 C2787 1.491 . S
C2793 C2792 1.400 . S
C2793 C2794 1.398 . S
C2794 H2782 0.950 . S
C2794 C2793 1.398 . S
C2794 C2795 1.391 . S
C2795 H2783 0.950 . S
C2795 C2791 1.393 . S
C2795 C2794 1.391 . S
H2796 C2804 0.950 . S
H2797 C2809 0.950 . S
H2798 C2806 0.950 . S
H2799 C2808 0.950 . S
H2800 C2810 0.950 . S
H2801 C2812 0.950 . S
H2802 C2814 0.950 . S
H2803 C2815 0.950 . S
C2804 H2796 0.950 . S
C2804 C2805 1.386 . S
C2804 C2806 1.391 . S
C2805 C2804 1.386 . S
C2805 C2809 1.393 . S
C2806 H2798 0.950 . S
C2806 C2804 1.391 . S
C2806 C2807 1.400 . S
C2807 C2806 1.400 . S
C2807 C2808 1.398 . S
C2807 C2813 1.491 . S
C2808 H2799 0.950 . S
C2808 C2807 1.398 . S
C2808 C2809 1.391 . S
C2809 H2797 0.950 . S
C2809 C2805 1.393 . S
C2809 C2808 1.391 . S
C2810 H2800 0.950 . S
C2810 C2811 1.386 . S
C2810 C2812 1.391 . S
C2811 C2810 1.386 . S
C2811 C2815 1.393 . S
C2812 H2801 0.950 . S
C2812 C2810 1.391 . S
C2812 C2813 1.400 . S
C2813 C2807 1.491 . S
C2813 C2812 1.400 . S
C2813 C2814 1.398 . S
C2814 H2802 0.950 . S
C2814 C2813 1.398 . S
C2814 C2815 1.391 . S
C2815 H2803 0.950 . S
C2815 C2811 1.393 . S
C2815 C2814 1.391 . S
H2816 C2824 0.950 . S
H2817 C2829 0.950 . S
H2818 C2826 0.950 . S
H2819 C2828 0.950 . S
H2820 C2830 0.950 . S
H2821 C2832 0.950 . S
H2822 C2834 0.950 . S
H2823 C2835 0.950 . S
C2824 H2816 0.950 . S
C2824 C2825 1.386 . S
C2824 C2826 1.391 . S
C2825 C2824 1.386 . S
C2825 C2829 1.393 . S
C2826 H2818 0.950 . S
C2826 C2824 1.391 . S
C2826 C2827 1.400 . S
C2827 C2826 1.400 . S
C2827 C2828 1.398 . S
C2827 C2833 1.491 . S
C2828 H2819 0.950 . S
C2828 C2827 1.398 . S
C2828 C2829 1.391 . S
C2829 H2817 0.950 . S
C2829 C2825 1.393 . S
C2829 C2828 1.391 . S
C2830 H2820 0.950 . S
C2830 C2831 1.386 . S
C2830 C2832 1.391 . S
C2831 C2830 1.386 . S
C2831 C2835 1.393 . S
C2832 H2821 0.950 . S
C2832 C2830 1.391 . S
C2832 C2833 1.400 . S
C2833 C2827 1.491 . S
C2833 C2832 1.400 . S
C2833 C2834 1.398 . S
C2834 H2822 0.950 . S
C2834 C2833 1.398 . S
C2834 C2835 1.391 . S
C2835 H2823 0.950 . S
C2835 C2831 1.393 . S
C2835 C2834 1.391 . S
H2836 C2844 0.950 . S
H2837 C2849 0.950 . S
H2838 C2846 0.950 . S
H2839 C2848 0.950 . S
H2840 C2850 0.950 . S
H2841 C2852 0.950 . S
H2842 C2854 0.950 . S
H2843 C2855 0.950 . S
C2844 H2836 0.950 . S
C2844 C2845 1.386 . S
C2844 C2846 1.391 . S
C2845 C2844 1.386 . S
C2845 C2849 1.393 . S
C2846 H2838 0.950 . S
C2846 C2844 1.391 . S
C2846 C2847 1.400 . S
C2847 C2846 1.400 . S
C2847 C2848 1.398 . S
C2847 C2853 1.491 . S
C2848 H2839 0.950 . S
C2848 C2847 1.398 . S
C2848 C2849 1.391 . S
C2849 H2837 0.950 . S
C2849 C2845 1.393 . S
C2849 C2848 1.391 . S
C2850 H2840 0.950 . S
C2850 C2851 1.386 . S
C2850 C2852 1.391 . S
C2851 C2850 1.386 . S
C2851 C2855 1.393 . S
C2852 H2841 0.950 . S
C2852 C2850 1.391 . S
C2852 C2853 1.400 . S
C2853 C2847 1.491 . S
C2853 C2852 1.400 . S
C2853 C2854 1.398 . S
C2854 H2842 0.950 . S
C2854 C2853 1.398 . S
C2854 C2855 1.391 . S
C2855 H2843 0.950 . S
C2855 C2851 1.393 . S
C2855 C2854 1.391 . S
H2856 C2864 0.950 1_545 S
H2857 C2869 0.950 . S
H2858 C2866 0.950 . S
H2859 C2868 0.950 . S
H2860 C2870 0.950 . S
H2861 C2872 0.950 . S
H2862 C2874 0.950 . S
H2863 C2875 0.950 . S
C2864 H2856 0.950 1_565 S
C2864 C2865 1.386 . S
C2864 C2866 1.391 . S
C2865 C2864 1.386 . S
C2865 C2869 1.393 . S
C2866 H2858 0.950 . S
C2866 C2864 1.391 . S
C2866 C2867 1.400 . S
C2867 C2866 1.400 . S
C2867 C2868 1.398 . S
C2867 C2873 1.491 . S
C2868 H2859 0.950 . S
C2868 C2867 1.398 . S
C2868 C2869 1.391 . S
C2869 H2857 0.950 . S
C2869 C2865 1.393 . S
C2869 C2868 1.391 . S
C2870 H2860 0.950 . S
C2870 C2871 1.386 . S
C2870 C2872 1.391 . S
C2871 C2870 1.386 . S
C2871 C2875 1.393 . S
C2872 H2861 0.950 . S
C2872 C2870 1.391 . S
C2872 C2873 1.400 . S
C2873 C2867 1.491 . S
C2873 C2872 1.400 . S
C2873 C2874 1.398 . S
C2874 H2862 0.950 . S
C2874 C2873 1.398 . S
C2874 C2875 1.391 . S
C2875 H2863 0.950 . S
C2875 C2871 1.393 . S
C2875 C2874 1.391 . S
H2876 C2884 0.950 . S
H2877 C2889 0.950 . S
H2878 C2886 0.950 . S
H2879 C2888 0.950 . S
H2880 C2890 0.950 . S
H2881 C2892 0.950 . S
H2882 C2894 0.950 . S
H2883 C2895 0.950 . S
C2884 H2876 0.950 . S
C2884 C2885 1.386 . S
C2884 C2886 1.391 . S
C2885 C2884 1.386 . S
C2885 C2889 1.393 . S
C2886 H2878 0.950 . S
C2886 C2884 1.391 . S
C2886 C2887 1.400 . S
C2887 C2886 1.400 . S
C2887 C2888 1.398 . S
C2887 C2893 1.491 . S
C2888 H2879 0.950 . S
C2888 C2887 1.398 . S
C2888 C2889 1.391 . S
C2889 H2877 0.950 . S
C2889 C2885 1.393 . S
C2889 C2888 1.391 . S
C2890 H2880 0.950 . S
C2890 C2891 1.386 . S
C2890 C2892 1.391 . S
C2891 C2890 1.386 . S
C2891 C2895 1.393 . S
C2892 H2881 0.950 . S
C2892 C2890 1.391 . S
C2892 C2893 1.400 . S
C2893 C2887 1.491 . S
C2893 C2892 1.400 . S
C2893 C2894 1.398 . S
C2894 H2882 0.950 . S
C2894 C2893 1.398 . S
C2894 C2895 1.391 . S
C2895 H2883 0.950 . S
C2895 C2891 1.393 . S
C2895 C2894 1.391 . S
C985 C106 1.666 . S
C991 C342 1.580 . S
C1005 C65 1.943 . S
C1011 C394 1.862 . S
C1025 C79 1.828 . S
C1031 C426 1.878 1_565 S
C1051 C475 2.307 . S
C1045 C90 2.305 . S
C1065 C21 0.879 . S
C1071 C511 0.875 . S
C1091 C542 0.544 . S
C1085 C35 0.606 . S
C1111 C594 0.401 . S
C1105 C50 0.340 . S
C1125 C6 1.729 . S
C1131 C622 1.798 . S
C1151 C354 2.179 . S
C1145 C232 2.379 . S
C1165 C245 1.603 . S
C1171 C395 1.690 . S
C1191 C425 1.847 . S
C1185 C274 1.997 1_545 S
C1211 C462 0.580 . S
C1205 C175 0.586 . S
C1225 C231 1.550 . S
C1231 C506 1.615 . S
C1251 C554 1.895 . S
C1245 C246 1.952 . S
C1271 C595 1.474 . S
C1265 C273 1.420 . S
C1291 C634 1.969 . S
C1285 C176 2.193 . S
C1311 C355 2.346 . S
C1305 C160 2.240 . S
C1325 C289 1.568 1_554 S
C1331 C665 1.467 . S
C1351 C715 2.454 . S
C1345 C328 2.393 . S
C1371 C742 1.187 . S
C1365 C317 1.199 . S
C1385 C118 2.557 . S
C1391 C635 2.672 . S
C1405 C132 1.323 . S
C1411 C431 1.286 . S
C1425 C331 2.562 . S
C1431 C794 2.463 . S
C1451 C822 1.380 . S
C1445 C303 1.434 . S
C1471 C351 1.273 . S
C1465 C63 1.268 . S
C1491 C825 2.140 . S
C1485 C107 2.271 1_655 S
C1505 C92 1.391 . S
C1511 C435 1.387 . S
C1525 C78 2.874 . S
C1531 C786 2.945 . S
C1551 C502 1.135 . S
C1545 C8 1.152 . S
C1565 C51 0.600 . S
C1571 C711 0.593 . S
C1591 C585 0.637 . S
C1585 C37 0.597 . S
C1611 C871 1.624 . S
C1605 C20 1.595 . S
C1631 C345 1.882 1_556 S
C1625 C147 1.983 . S
C1651 C826 1.880 . S
C1645 C316 1.879 . S
C1665 C119 1.893 . S
C1671 C434 1.822 . S
C1685 C288 0.624 . S
C1691 C791 0.630 . S
C1705 C148 1.986 . S
C1711 C515 1.981 . S
C1731 C705 1.877 . S
C1725 C315 1.866 . S
C1745 C120 1.847 . S
C1751 C586 1.847 . S
C1765 C287 1.628 . S
C1771 C865 1.605 . S
C1785 C188 2.096 . S
C1791 C346 2.173 1_655 S
C1805 C177 1.980 . S
C1811 C674 1.999 . S
C1825 C258 2.582 . S
C1831 C546 2.645 . S
C1845 C247 1.180 . S
C1851 C751 1.165 . S
C1871 C866 2.388 . S
C1865 C272 2.305 . S
C1885 C216 1.169 . S
C1891 C422 1.109 . S
C1911 C465 2.692 . S
C1905 C261 2.755 . S
C1931 C391 1.365 . S
C1925 C205 1.433 . S
C1945 C76 1.342 . S
C1951 C902 1.365 . S
C1971 C834 1.960 . S
C1965 C93 2.046 . S
C1985 C105 1.398 . S
C1991 C946 1.502 . S
C2005 C62 2.324 . S
C2011 C795 2.323 . S
C2025 C49 0.887 . S
C2031 C671 0.882 . S
C2051 C702 0.840 . S
C2045 C9 0.839 . S
C2071 C754 0.316 . S
C2065 C22 0.468 . S
C2091 C862 1.840 . S
C2085 C36 1.940 . S
C2111 C914 2.133 . S
C2105 C260 2.334 . S
C2125 C189 1.453 1_556 S
C2131 C835 1.524 . S
C2151 C945 1.726 . S
C2145 C204 1.909 . S
C2171 C782 0.539 . S
C2165 C217 0.594 . S
C2191 C666 1.990 . S
C2185 C259 1.881 . S
C2205 C190 2.078 . S
C2211 C714 2.008 . S
C2231 C755 1.698 . S
C2225 C203 1.634 . S
C2245 C218 2.293 . S
C2251 C874 2.073 . S
C2271 C915 2.311 . S
C2265 C314 2.191 . S
C2285 C135 1.680 . S
C2291 C505 1.591 . S
C2311 C555 2.348 . S
C2305 C146 2.270 . S
C2331 C582 1.196 . S
C2325 C163 1.217 . S
C2351 C875 2.697 . S
C2345 C300 2.587 . S
C2365 C286 1.256 . S
C2371 C951 1.207 . S
C2391 C474 2.380 . S
C2385 C149 2.499 . S
C2411 C382 1.321 . S
C2405 C121 1.407 . S
C2425 C91 1.123 . S
C2431 C911 1.137 . S
C2451 C385 1.783 . S
C2445 C77 1.904 . S
C2465 C64 1.333 . S
C2471 C955 1.336 . S
C2485 C104 2.509 . S
C2491 C466 2.543 . S
C2505 C34 0.827 . S
C2511 C662 0.803 . S
C2531 C551 0.563 . S
C2525 C23 0.562 . S
C2545 C7 0.459 . S
C2551 C745 0.479 . S
C2565 C48 1.323 . S
C2571 C631 1.362 . S
C2591 C905 1.888 . S
C2585 C329 1.963 . S
C2605 C162 1.884 . S
C2611 C386 1.884 . S
C2631 C954 1.776 . S
C2625 C301 1.857 . S
C2645 C134 0.711 . S
C2651 C471 0.736 . S
C2665 C330 1.937 . S
C2671 C675 1.939 . S
C2691 C545 1.919 . S
C2685 C161 1.901 1_556 S
C2705 C302 1.778 . S
C2711 C746 1.783 . S
C2731 C625 1.563 . S
C2725 C133 1.581 . S
C2751 C906 2.452 . S
C2745 C244 2.369 . S
C2771 C514 1.969 1_655 S
C2765 C219 1.930 1_545 S
C2785 C230 2.261 . S
C2791 C706 2.307 . S
C2811 C591 1.206 . S
C2805 C191 1.217 . S
C2825 C202 2.514 . S
C2831 C626 2.616 . S
C2845 C174 1.224 . S
C2851 C942 1.180 . S
C2871 C785 2.720 . S
C2865 C233 2.768 1_565 S
C2891 C831 1.381 . S
C2885 C275 1.471 . S
