# Generated by pormake.
# Topology ocu, (6,8)-cn, num edge types: 1
# Building blocks:
#     Node 0, Type 0, BuildingBlock: VOLQOD_clean_sbu_1, # of connection points: 6
#     Node 1, Type 0, BuildingBlock: VOLQOD_clean_sbu_1, # of connection points: 6
#     Node 2, Type 0, BuildingBlock: VOLQOD_clean_sbu_1, # of connection points: 6
#     Node 3, Type 0, BuildingBlock: VOLQOD_clean_sbu_1, # of connection points: 6
#     Node 4, Type 0, BuildingBlock: VOLQOD_clean_sbu_1, # of connection points: 6
#     Node 5, Type 0, BuildingBlock: VOLQOD_clean_sbu_1, # of connection points: 6
#     Node 6, Type 0, BuildingBlock: VOLQOD_clean_sbu_1, # of connection points: 6
#     Node 7, Type 0, BuildingBlock: VOLQOD_clean_sbu_1, # of connection points: 6
#     Node 8, Type 1, BuildingBlock: AJUNOK_clean_sbu_0, # of connection points: 8
#     Node 9, Type 1, BuildingBlock: AJUNOK_clean_sbu_0, # of connection points: 8
#     Node 10, Type 1, BuildingBlock: AJUNOK_clean_sbu_0, # of connection points: 8
#     Node 11, Type 1, BuildingBlock: AJUNOK_clean_sbu_0, # of connection points: 8
#     Node 12, Type 1, BuildingBlock: AJUNOK_clean_sbu_0, # of connection points: 8
#     Node 13, Type 1, BuildingBlock: AJUNOK_clean_sbu_0, # of connection points: 8
#     Edge 14, Type (0, 1), BuildingBlock: CIFDUS_clean_linker_0, # of connection points: 2
#     Edge 15, Type (0, 1), BuildingBlock: CIFDUS_clean_linker_0, # of connection points: 2
#     Edge 16, Type (0, 1), BuildingBlock: CIFDUS_clean_linker_0, # of connection points: 2
#     Edge 17, Type (0, 1), BuildingBlock: CIFDUS_clean_linker_0, # of connection points: 2
#     Edge 18, Type (0, 1), BuildingBlock: CIFDUS_clean_linker_0, # of connection points: 2
#     Edge 19, Type (0, 1), BuildingBlock: CIFDUS_clean_linker_0, # of connection points: 2
#     Edge 20, Type (0, 1), BuildingBlock: CIFDUS_clean_linker_0, # of connection points: 2
#     Edge 21, Type (0, 1), BuildingBlock: CIFDUS_clean_linker_0, # of connection points: 2
#     Edge 22, Type (0, 1), BuildingBlock: CIFDUS_clean_linker_0, # of connection points: 2
#     Edge 23, Type (0, 1), BuildingBlock: CIFDUS_clean_linker_0, # of connection points: 2
#     Edge 24, Type (0, 1), BuildingBlock: CIFDUS_clean_linker_0, # of connection points: 2
#     Edge 25, Type (0, 1), BuildingBlock: CIFDUS_clean_linker_0, # of connection points: 2
#     Edge 26, Type (0, 1), BuildingBlock: CIFDUS_clean_linker_0, # of connection points: 2
#     Edge 27, Type (0, 1), BuildingBlock: CIFDUS_clean_linker_0, # of connection points: 2
#     Edge 28, Type (0, 1), BuildingBlock: CIFDUS_clean_linker_0, # of connection points: 2
#     Edge 29, Type (0, 1), BuildingBlock: CIFDUS_clean_linker_0, # of connection points: 2
#     Edge 30, Type (0, 1), BuildingBlock: CIFDUS_clean_linker_0, # of connection points: 2
#     Edge 31, Type (0, 1), BuildingBlock: CIFDUS_clean_linker_0, # of connection points: 2
#     Edge 32, Type (0, 1), BuildingBlock: CIFDUS_clean_linker_0, # of connection points: 2
#     Edge 33, Type (0, 1), BuildingBlock: CIFDUS_clean_linker_0, # of connection points: 2
#     Edge 34, Type (0, 1), BuildingBlock: CIFDUS_clean_linker_0, # of connection points: 2
#     Edge 35, Type (0, 1), BuildingBlock: CIFDUS_clean_linker_0, # of connection points: 2
#     Edge 36, Type (0, 1), BuildingBlock: CIFDUS_clean_linker_0, # of connection points: 2
#     Edge 37, Type (0, 1), BuildingBlock: CIFDUS_clean_linker_0, # of connection points: 2
#     Edge 38, Type (0, 1), BuildingBlock: CIFDUS_clean_linker_0, # of connection points: 2
#     Edge 39, Type (0, 1), BuildingBlock: CIFDUS_clean_linker_0, # of connection points: 2
#     Edge 40, Type (0, 1), BuildingBlock: CIFDUS_clean_linker_0, # of connection points: 2
#     Edge 41, Type (0, 1), BuildingBlock: CIFDUS_clean_linker_0, # of connection points: 2
#     Edge 42, Type (0, 1), BuildingBlock: CIFDUS_clean_linker_0, # of connection points: 2
#     Edge 43, Type (0, 1), BuildingBlock: CIFDUS_clean_linker_0, # of connection points: 2
#     Edge 44, Type (0, 1), BuildingBlock: CIFDUS_clean_linker_0, # of connection points: 2
#     Edge 45, Type (0, 1), BuildingBlock: CIFDUS_clean_linker_0, # of connection points: 2
#     Edge 46, Type (0, 1), BuildingBlock: CIFDUS_clean_linker_0, # of connection points: 2
#     Edge 47, Type (0, 1), BuildingBlock: CIFDUS_clean_linker_0, # of connection points: 2
#     Edge 48, Type (0, 1), BuildingBlock: CIFDUS_clean_linker_0, # of connection points: 2
#     Edge 49, Type (0, 1), BuildingBlock: CIFDUS_clean_linker_0, # of connection points: 2
#     Edge 50, Type (0, 1), BuildingBlock: CIFDUS_clean_linker_0, # of connection points: 2
#     Edge 51, Type (0, 1), BuildingBlock: CIFDUS_clean_linker_0, # of connection points: 2
#     Edge 52, Type (0, 1), BuildingBlock: CIFDUS_clean_linker_0, # of connection points: 2
#     Edge 53, Type (0, 1), BuildingBlock: CIFDUS_clean_linker_0, # of connection points: 2
#     Edge 54, Type (0, 1), BuildingBlock: CIFDUS_clean_linker_0, # of connection points: 2
#     Edge 55, Type (0, 1), BuildingBlock: CIFDUS_clean_linker_0, # of connection points: 2
#     Edge 56, Type (0, 1), BuildingBlock: CIFDUS_clean_linker_0, # of connection points: 2
#     Edge 57, Type (0, 1), BuildingBlock: CIFDUS_clean_linker_0, # of connection points: 2
#     Edge 58, Type (0, 1), BuildingBlock: CIFDUS_clean_linker_0, # of connection points: 2
#     Edge 59, Type (0, 1), BuildingBlock: CIFDUS_clean_linker_0, # of connection points: 2
#     Edge 60, Type (0, 1), BuildingBlock: CIFDUS_clean_linker_0, # of connection points: 2
#     Edge 61, Type (0, 1), BuildingBlock: CIFDUS_clean_linker_0, # of connection points: 2
# Relax obj value: 0.273
# Max RMSD: 0.367
# Mean RMSD: 0.267
data_MOF--net-ocu--node1-VOLQOD_clean_sbu_1--node2-AJUNOK_clean_sbu_0--edge1-CIFDUS_clean_linker_0
_symmetry_space_group_name_H-M    P1
_symmetry_Int_Tables_number       1
_symmetry_cell_setting            triclinic
loop_
_symmetry_equiv_pos_as_xyz
'x, y, z'
_cell_length_a     37.868869
_cell_length_b     38.184863
_cell_length_c     31.865287
_cell_angle_alpha  97.83978
_cell_angle_beta   97.494172
_cell_angle_gamma 100.98825
loop_
_atom_site_label
_atom_site_type_symbol
_atom_site_fract_x
_atom_site_fract_y
_atom_site_fract_z
_atom_type_partial_charge
O0 O 0.30521 0.28201 0.27156 0.0
Zn1 Zn 0.26722 0.24396 0.28985 0.0
O2 O 0.23159 0.21696 0.23878 0.0
Zn3 Zn 0.18527 0.22981 0.24129 0.0
Zn4 Zn 0.24577 0.22863 0.18551 0.0
Zn5 Zn 0.2254 0.1653 0.23706 0.0
O6 O 0.15129 0.19078 0.25996 0.0
O7 O 0.17567 0.14264 0.24787 0.0
O8 O 0.24226 0.27277 0.33121 0.0
O9 O 0.19125 0.27164 0.28739 0.0
O10 O 0.1628 0.24331 0.18673 0.0
O11 O 0.20785 0.24696 0.14851 0.0
O12 O 0.26004 0.18685 0.15114 0.0
O13 O 0.29119 0.20942 0.32167 0.0
O14 O 0.23833 0.14079 0.18276 0.0
O15 O 0.25982 0.15618 0.28571 0.0
C16 C 0.30792 0.28883 0.2339 0.0
C17 C 0.15048 0.15739 0.26006 0.0
C18 C 0.17588 0.25065 0.15339 0.0
C19 C 0.21291 0.28391 0.32253 0.0
C20 C 0.2538 0.15317 0.15301 0.0
C21 C 0.28398 0.17489 0.31623 0.0
O22 O 0.28728 0.26976 0.20077 0.0
O23 O 0.73347 0.17203 0.1887 0.0
Zn24 Zn 0.77156 0.21274 0.22762 0.0
O25 O 0.74843 0.24801 0.25882 0.0
Zn26 Zn 0.76545 0.29571 0.24635 0.0
Zn27 Zn 0.69636 0.23615 0.24094 0.0
Zn28 Zn 0.75926 0.24934 0.32052 0.0
O29 O 0.77981 0.33279 0.2997 0.0
O30 O 0.78116 0.29956 0.3515 0.0
O31 O 0.80773 0.23761 0.19343 0.0
O32 O 0.80926 0.29538 0.21856 0.0
O33 O 0.72857 0.3115 0.20585 0.0
O34 O 0.67855 0.27023 0.20466 0.0
O35 O 0.66938 0.23199 0.29047 0.0
O36 O 0.8012 0.19083 0.27071 0.0
O37 O 0.71373 0.23294 0.34383 0.0
O38 O 0.79386 0.21695 0.33481 0.0
C39 C 0.69884 0.16575 0.18573 0.0
C40 C 0.78613 0.33021 0.33924 0.0
C41 C 0.69481 0.29858 0.19266 0.0
C42 C 0.82173 0.27123 0.19717 0.0
C43 C 0.68008 0.22884 0.32904 0.0
C44 C 0.80791 0.1952 0.31162 0.0
O45 O 0.68263 0.18766 0.20513 0.0
O46 O 0.70999 0.68526 0.27121 0.0
Zn47 Zn 0.75032 0.72802 0.2985 0.0
O48 O 0.76684 0.75466 0.25223 0.0
Zn49 Zn 0.8183 0.75768 0.25228 0.0
Zn50 Zn 0.74318 0.73223 0.19426 0.0
Zn51 Zn 0.75684 0.80257 0.26225 0.0
O52 O 0.84544 0.80854 0.27141 0.0
O53 O 0.80216 0.84046 0.27021 0.0
O54 O 0.79122 0.70683 0.32771 0.0
O55 O 0.83591 0.72716 0.29276 0.0
O56 O 0.83098 0.73579 0.19656 0.0
O57 O 0.77702 0.71288 0.15683 0.0
O58 O 0.71204 0.76269 0.16433 0.0
O59 O 0.7293 0.75934 0.34263 0.0
O60 O 0.71908 0.80984 0.21613 0.0
O61 O 0.73637 0.81084 0.31664 0.0
C62 C 0.6978 0.67306 0.2317 0.0
C63 C 0.8356 0.83872 0.27634 0.0
C64 C 0.81156 0.71675 0.16253 0.0
C65 C 0.82367 0.70856 0.31994 0.0
C66 C 0.70434 0.79257 0.17908 0.0
C67 C 0.72635 0.79227 0.34485 0.0
O68 O 0.70899 0.68906 0.20196 0.0
O69 O 0.30891 0.75162 0.30966 0.0
Zn70 Zn 0.2615 0.72236 0.27521 0.0
O71 O 0.23042 0.75331 0.25202 0.0
Zn72 Zn 0.18289 0.74201 0.26952 0.0
Zn73 Zn 0.25092 0.80402 0.27344 0.0
Zn74 Zn 0.22586 0.74516 0.18988 0.0
O75 O 0.14253 0.73024 0.21871 0.0
O76 O 0.17351 0.72959 0.16424 0.0
O77 O 0.23605 0.69041 0.3121 0.0
O78 O 0.17907 0.69744 0.2965 0.0
O79 O 0.17543 0.78176 0.31423 0.0
O80 O 0.22081 0.82743 0.31201 0.0
O81 O 0.26212 0.8324 0.2258 0.0
O82 O 0.27271 0.68816 0.22773 0.0
O83 O 0.24762 0.78956 0.16822 0.0
O84 O 0.25035 0.70525 0.16772 0.0
C85 C 0.31803 0.78566 0.32186 0.0
C86 C 0.1434 0.72474 0.17854 0.0
C87 C 0.1925 0.81441 0.32703 0.0
C88 C 0.20223 0.68139 0.31376 0.0
C89 C 0.26038 0.82232 0.18562 0.0
C90 C 0.26703 0.68459 0.18699 0.0
O91 O 0.29795 0.80695 0.31042 0.0
O92 O 0.25788 0.6669 0.69487 0.0
Zn93 Zn 0.28092 0.71369 0.73519 0.0
O94 O 0.24573 0.74422 0.74588 0.0
Zn95 Zn 0.2579 0.78776 0.72182 0.0
Zn96 Zn 0.19799 0.71963 0.71708 0.0
Zn97 Zn 0.24557 0.75617 0.80752 0.0
O98 O 0.27982 0.82936 0.76931 0.0
O99 O 0.26715 0.80917 0.82898 0.0
O100 O 0.3216 0.73895 0.70797 0.0
O101 O 0.29627 0.78264 0.68573 0.0
O102 O 0.21535 0.79898 0.68481 0.0
O103 O 0.17376 0.74867 0.67978 0.0
O104 O 0.16556 0.70675 0.75958 0.0
O105 O 0.30119 0.69995 0.78985 0.0
O106 O 0.19523 0.73935 0.82169 0.0
O107 O 0.2777 0.72922 0.84084 0.0
C108 C 0.22565 0.65683 0.67421 0.0
C109 C 0.28132 0.83433 0.80992 0.0
C110 C 0.18369 0.77978 0.67002 0.0
C111 C 0.32092 0.76419 0.68579 0.0
C112 C 0.16708 0.71773 0.79945 0.0
C113 C 0.29771 0.70768 0.829 0.0
O114 O 0.2013 0.67495 0.6799 0.0
O115 O 0.19737 0.18133 0.74347 0.0
Zn116 Zn 0.23568 0.21942 0.7836 0.0
O117 O 0.26693 0.24675 0.74864 0.0
Zn118 Zn 0.31543 0.2374 0.75874 0.0
Zn119 Zn 0.2506 0.23361 0.68688 0.0
Zn120 Zn 0.26867 0.29758 0.76427 0.0
O121 O 0.35384 0.28267 0.77468 0.0
O122 O 0.31921 0.32244 0.78854 0.0
O123 O 0.26538 0.19447 0.82445 0.0
O124 O 0.32086 0.21157 0.80862 0.0
O125 O 0.32547 0.20576 0.70836 0.0
O126 O 0.28686 0.21358 0.65349 0.0
O127 O 0.2314 0.27339 0.66116 0.0
O128 O 0.20962 0.25246 0.81884 0.0
O129 O 0.24915 0.31967 0.71485 0.0
O130 O 0.23763 0.30672 0.80932 0.0
C131 C 0.19073 0.17415 0.70259 0.0
C132 C 0.35023 0.31417 0.78942 0.0
C133 C 0.31357 0.20063 0.66836 0.0
C134 C 0.29958 0.19553 0.831 0.0
C135 C 0.23364 0.30649 0.67657 0.0
C136 C 0.21483 0.2869 0.82676 0.0
O137 O 0.209 0.19237 0.67914 0.0
O138 O 0.81665 0.25753 0.80297 0.0
Zn139 Zn 0.7745 0.22762 0.75899 0.0
O140 O 0.7401 0.25633 0.73795 0.0
Zn141 Zn 0.69218 0.24123 0.75424 0.0
Zn142 Zn 0.75817 0.30594 0.76427 0.0
Zn143 Zn 0.73589 0.25226 0.67527 0.0
O144 O 0.65485 0.22013 0.70137 0.0
O145 O 0.68573 0.22559 0.64708 0.0
O146 O 0.74899 0.18702 0.78587 0.0
O147 O 0.69435 0.20059 0.78717 0.0
O148 O 0.67592 0.28053 0.79296 0.0
O149 O 0.72498 0.32418 0.80013 0.0
O150 O 0.76619 0.33772 0.72059 0.0
O151 O 0.79708 0.20706 0.71074 0.0
O152 O 0.74766 0.30151 0.65777 0.0
O153 O 0.77099 0.22323 0.65188 0.0
C154 C 0.82422 0.29129 0.81725 0.0
C155 C 0.65638 0.2146 0.66131 0.0
C156 C 0.69382 0.3123 0.80933 0.0
C157 C 0.71726 0.18123 0.79611 0.0
C158 C 0.76035 0.33292 0.67981 0.0
C159 C 0.79367 0.20736 0.67055 0.0
O160 O 0.80446 0.31223 0.80421 0.0
O161 O 0.80176 0.79634 0.79833 0.0
Zn162 Zn 0.76415 0.75315 0.80735 0.0
O163 O 0.73843 0.72396 0.75142 0.0
Zn164 Zn 0.68734 0.72686 0.7408 0.0
Zn165 Zn 0.76095 0.74035 0.70499 0.0
Zn166 Zn 0.74047 0.67372 0.74942 0.0
O167 O 0.65332 0.67994 0.74257 0.0
O168 O 0.69289 0.64583 0.75787 0.0
O169 O 0.72774 0.77346 0.83994 0.0
O170 O 0.67747 0.75874 0.79088 0.0
O171 O 0.67431 0.74801 0.68729 0.0
O172 O 0.7278 0.76069 0.66524 0.0
O173 O 0.77949 0.70217 0.67067 0.0
O174 O 0.78972 0.7221 0.84343 0.0
O175 O 0.75816 0.65258 0.69641 0.0
O176 O 0.77376 0.66845 0.80084 0.0
C177 C 0.81408 0.80182 0.76393 0.0
C178 C 0.66076 0.65153 0.75499 0.0
C179 C 0.69415 0.76146 0.66161 0.0
C180 C 0.69434 0.77389 0.82803 0.0
C181 C 0.77497 0.6682 0.66962 0.0
C182 C 0.79042 0.68857 0.83563 0.0
O183 O 0.80156 0.78104 0.72838 0.0
Cd184 Cd 0.95084 0.96414 0.57254 0.0
Cd185 Cd 0.03734 0.03397 0.50406 0.0
C186 C 0.02946 0.94873 0.5994 0.0
N187 N -0.0015 0.93422 0.57091 0.0
C188 C 0.02343 0.88408 0.54482 0.0
C189 C 0.0558 0.89868 0.57388 0.0
C190 C 0.05866 0.9315 0.60122 0.0
C191 C -0.00518 0.90242 0.54395 0.0
H192 H 0.03128 0.9733 0.6215 0.0
H193 H 0.96959 0.89123 0.52209 0.0
C194 C 0.97811 0.95885 0.46382 0.0
C195 C 0.96963 0.04965 0.44667 0.0
C196 C 0.94342 0.06726 0.43019 0.0
C197 C 0.93776 0.0987 0.45436 0.0
C198 C 0.95765 0.11044 0.49609 0.0
C199 C 0.98344 0.09148 0.51171 0.0
N200 N -0.01091 0.0619 0.48664 0.0
H201 H 0.97516 0.02678 0.42675 0.0
H202 H -0.0001 0.10113 0.54304 0.0
C203 C 0.07328 0.96682 0.51058 0.0
N204 N 0.08422 0.00333 0.51738 0.0
C205 C 0.14363 -0.00146 0.50285 0.0
C206 C 0.13161 0.9608 0.49013 0.0
C207 C 0.09639 0.94497 0.49661 0.0
C208 C 0.11908 0.01948 0.51551 0.0
H209 H 0.04522 0.95474 0.51094 0.0
H210 H 0.12679 0.04862 0.51936 0.0
C211 C 0.00746 0.0335 0.60334 0.0
C212 C 0.9097 0.92038 0.62021 0.0
N213 N 0.91112 0.00052 0.55483 0.0
C214 C 0.89366 0.0083 0.58831 0.0
C215 C 0.87312 0.03468 0.58827 0.0
C216 C 0.87065 0.05333 0.55344 0.0
C217 C 0.88627 0.04278 0.51749 0.0
C218 C 0.90699 0.01605 0.51899 0.0
C219 C 0.07254 0.07773 0.45265 0.0
O220 O 0.96888 0.9607 0.50085 0.0
O221 O 0.00477 0.98123 0.45615 0.0
O222 O 0.006 0.02185 0.56388 0.0
O223 O 0.98454 0.01661 0.62289 0.0
O224 O 0.89866 0.91811 0.58017 0.0
O225 O 0.94012 0.94112 0.63619 0.0
O226 O 0.07587 0.09038 0.49268 0.0
O227 O 0.05462 0.04558 0.43946 0.0
H228 H 0.89752 -0.00462 0.61622 0.0
H229 H 0.92105 0.00901 0.49273 0.0
H230 H 0.02017 0.85864 0.52349 0.0
H231 H 0.08271 0.94307 0.62497 0.0
H232 H 0.9282 0.05658 0.39836 0.0
H233 H 0.9543 0.13464 0.51581 0.0
H234 H 0.17073 0.01222 0.49982 0.0
H235 H 0.08505 0.91635 0.48701 0.0
H236 H 0.86108 0.04204 0.61637 0.0
H237 H 0.88422 0.05643 0.48998 0.0
Cd238 Cd 0.459 0.95653 0.02428 0.0
Cd239 Cd 0.53815 0.02289 0.95346 0.0
C240 C 0.5136 0.91988 0.07843 0.0
N241 N 0.50217 0.92085 0.03649 0.0
C242 C 0.54185 0.88222 0.01489 0.0
C243 C 0.55491 0.88158 0.0582 0.0
C244 C 0.54039 0.90104 0.09002 0.0
C245 C 0.51548 0.90237 0.0047 0.0
H246 H 0.50216 0.93421 0.10314 0.0
H247 H 0.50565 0.90325 0.9715 0.0
C248 C 0.46608 0.96845 0.91455 0.0
C249 C 0.47791 0.06209 0.91129 0.0
C250 C 0.45111 0.08235 0.90691 0.0
C251 C 0.44335 0.10257 0.94332 0.0
C252 C 0.46297 0.10203 0.98369 0.0
C253 C 0.48891 0.0803 0.9868 0.0
N254 N 0.49568 0.06071 0.95079 0.0
H255 H 0.48459 0.04754 0.88291 0.0
H256 H 0.50364 0.07912 0.01785 0.0
C257 C 0.55546 0.94677 0.9179 0.0
N258 N 0.56295 0.97162 0.9544 0.0
C259 C 0.60904 0.94295 0.98424 0.0
C260 C 0.60233 0.91748 0.9464 0.0
C261 C 0.57459 0.91919 0.91341 0.0
C262 C 0.58873 0.96992 0.98764 0.0
H263 H 0.53607 0.94933 0.89114 0.0
H264 H 0.59474 -0.0096 0.01598 0.0
C265 C 0.52943 0.01538 0.06477 0.0
C266 C 0.39671 0.91404 0.04715 0.0
N267 N 0.43284 0.00706 0.02736 0.0
C268 C 0.43205 0.02376 0.06759 0.0
C269 C 0.41011 0.04872 0.07388 0.0
C270 C 0.38856 0.05623 0.03847 0.0
C271 C 0.39095 0.04004 -0.00289 0.0
C272 C 0.41358 0.01528 0.9922 0.0
C273 C 0.60013 0.06616 0.93126 0.0
O274 O 0.47322 0.9698 0.95485 0.0
O275 O 0.48999 -0.01365 0.89686 0.0
O276 O 0.52583 0.01261 0.02426 0.0
O277 O 0.505 -0.00392 0.08034 0.0
O278 O 0.40415 0.90646 0.00959 0.0
O279 O 0.419 0.93923 0.07287 0.0
O280 O 0.59324 0.07168 0.96933 0.0
O281 O 0.57767 0.04182 0.9045 0.0
H282 H 0.44655 0.01595 0.0951 0.0
H283 H 0.41416 0.00135 0.9606 0.0
H284 H 0.55171 0.86724 0.98917 0.0
H285 H 0.54989 0.90226 0.12383 0.0
H286 H 0.43717 0.08296 0.87516 0.0
H287 H 0.45791 0.11776 0.01238 0.0
H288 H 0.63023 0.9425 0.01038 0.0
H289 H 0.56913 0.90065 0.88326 0.0
H290 H 0.4084 0.06055 0.10626 0.0
H291 H 0.37411 0.04495 0.9693 0.0
Cd292 Cd -0.01101 0.46583 0.06499 0.0
Cd293 Cd 0.02854 0.51871 0.95778 0.0
C294 C 0.0714 0.45086 0.07753 0.0
N295 N 0.03829 0.43971 0.05205 0.0
C296 C 0.05501 0.38589 0.02095 0.0
C297 C 0.08833 0.39537 0.0491 0.0
C298 C 0.09715 0.4291 0.07624 0.0
C299 C 0.0302 0.40856 0.02308 0.0
H300 H 0.07693 0.47527 0.10101 0.0
H301 H 0.0034 0.39999 0.00386 0.0
C302 C 0.96951 0.45046 0.94989 0.0
C303 C 0.95003 0.53868 0.93245 0.0
C304 C 0.92517 0.56111 0.92864 0.0
C305 C 0.93256 0.59539 0.95455 0.0
C306 C 0.96432 0.60541 0.98539 0.0
C307 C 0.98844 0.58197 0.98823 0.0
N308 N 0.98117 0.54957 0.96154 0.0
H309 H 0.94533 0.51357 0.91038 0.0
H310 H 0.01394 0.59049 0.01008 0.0
C311 C 0.05674 0.45027 0.91194 0.0
N312 N 0.06462 0.47533 0.9484 0.0
C313 C 0.11641 0.45178 0.97307 0.0
C314 C 0.10895 0.42574 0.9356 0.0
C315 C 0.07835 0.42486 0.90514 0.0
C316 C 0.0936 0.4763 0.97898 0.0
H317 H 0.03418 0.45043 0.88749 0.0
H318 H 0.09937 0.49656 0.00762 0.0
C319 C 0.04193 0.53541 0.07205 0.0
C320 C 0.95648 0.41105 0.10725 0.0
N321 N 0.95303 0.50959 0.07319 0.0
C322 C 0.95623 0.52691 0.11412 0.0
C323 C 0.94107 0.5571 0.12276 0.0
C324 C 0.92185 0.56951 0.08908 0.0
C325 C 0.91677 0.54968 0.04741 0.0
C326 C 0.93306 0.51977 0.04004 0.0
C327 C 0.06928 0.57628 0.92597 0.0
O328 O 0.98238 0.46482 0.9883 0.0
O329 O 0.98143 0.46629 0.92047 0.0
O330 O 0.03223 0.51758 0.03442 0.0
O331 O 0.03242 0.51998 0.10281 0.0
O332 O 0.94489 0.41127 0.06799 0.0
O333 O 0.98195 0.4371 0.12661 0.0
O334 O 0.07691 0.57125 0.96433 0.0
O335 O 0.04402 0.55283 0.90139 0.0
H336 H 0.97191 0.51806 0.13997 0.0
H337 H 0.93063 0.5054 0.00778 0.0
H338 H 0.04728 0.36011 -0.00042 0.0
H339 H 0.12235 0.43714 0.09886 0.0
H340 H 0.90154 0.55254 0.90367 0.0
H341 H 0.97106 0.63151 0.00606 0.0
H342 H 0.13981 0.45335 -0.00271 0.0
H343 H 0.07211 0.40576 0.87539 0.0
H344 H 0.94484 0.57097 0.15555 0.0
H345 H 0.90165 0.55804 0.02068 0.0
Cd346 Cd 0.45882 0.47577 0.07466 0.0
Cd347 Cd 0.52698 0.5384 0.98869 0.0
C348 C 0.52879 0.44621 0.10482 0.0
N349 N 0.49888 0.43661 0.07382 0.0
C350 C 0.51577 0.38098 0.04936 0.0
C351 C 0.54695 0.39051 0.08113 0.0
C352 C 0.55337 0.42371 0.1088 0.0
C353 C 0.49189 0.40469 0.04623 0.0
H354 H 0.53325 0.47095 0.1274 0.0
H355 H 0.46743 0.39726 0.02258 0.0
C356 C 0.47597 0.4639 0.9644 0.0
C357 C 0.44024 0.53972 0.96525 0.0
C358 C 0.41088 0.55478 0.95207 0.0
C359 C 0.41625 0.59221 0.95283 0.0
C360 C 0.45038 0.61408 0.97138 0.0
C361 C 0.47895 0.59784 0.98498 0.0
N362 N 0.47381 0.5612 0.98006 0.0
H363 H 0.43602 0.51082 0.96164 0.0
H364 H 0.50593 0.61432 0.99669 0.0
C365 C 0.57607 0.49494 0.93988 0.0
N366 N 0.56066 0.4941 0.97601 0.0
C367 C 0.57543 0.43686 0.98361 0.0
C368 C 0.59032 0.43674 0.94557 0.0
C369 C 0.59134 0.46651 0.92418 0.0
C370 C 0.56099 0.46642 -0.00127 0.0
H371 H 0.57499 0.51696 0.9221 0.0
H372 H 0.54855 0.4666 0.0273 0.0
C373 C 0.52477 0.53761 0.10076 0.0
C374 C 0.4108 0.43411 0.11706 0.0
N375 N 0.42155 0.51542 0.05667 0.0
C376 C 0.43437 0.55179 0.06736 0.0
C377 C 0.41036 0.57526 0.06608 0.0
C378 C 0.37284 0.56098 0.05506 0.0
C379 C 0.36046 0.52363 0.04156 0.0
C380 C 0.38557 0.50118 0.04218 0.0
C381 C 0.56789 0.58877 0.94751 0.0
O382 O 0.47579 0.47605 0.00343 0.0
O383 O 0.49399 0.48422 0.94289 0.0
O384 O 0.51534 0.53104 0.06044 0.0
O385 O 0.50329 0.52249 0.1234 0.0
O386 O 0.40614 0.42943 0.07621 0.0
O387 O 0.43791 0.4578 0.13755 0.0
O388 O 0.58057 0.58566 0.98566 0.0
O389 O 0.53616 0.57075 0.93172 0.0
H390 H 0.46286 0.56267 0.07933 0.0
H391 H 0.37598 0.47221 0.03398 0.0
H392 H 0.50974 0.35541 0.02768 0.0
H393 H 0.57641 0.43162 0.13461 0.0
H394 H 0.38472 0.53704 0.93894 0.0
H395 H 0.45576 0.64308 0.97235 0.0
H396 H 0.57472 0.41433 0.00099 0.0
H397 H 0.6027 0.46715 0.89473 0.0
H398 H 0.42071 0.60394 0.07728 0.0
H399 H 0.33158 0.51181 0.03331 0.0
Cd400 Cd 0.9837 0.48086 0.57827 0.0
Cd401 Cd 0.03133 0.50223 0.46204 0.0
C402 C 0.04598 0.44573 0.62314 0.0
N403 N 0.02156 0.43984 0.58636 0.0
C404 C 0.04664 0.39077 0.55693 0.0
C405 C 0.07319 0.39725 0.59386 0.0
C406 C 0.07219 0.42477 0.62754 0.0
C407 C 0.02094 0.41258 0.55382 0.0
H408 H 0.04558 0.46727 0.64879 0.0
H409 H 0.00102 0.40825 0.52507 0.0
C410 C 0.96044 0.45199 0.46483 0.0
C411 C 0.96686 0.53153 0.41456 0.0
C412 C 0.94187 0.55269 0.40446 0.0
C413 C 0.94146 0.58405 0.4329 0.0
C414 C 0.96594 0.59272 0.47181 0.0
C415 C -0.0096 0.57036 0.4809 0.0
N416 N -0.00974 0.54036 0.45235 0.0
H417 H 0.96796 0.50825 0.39171 0.0
H418 H 0.0098 0.57722 0.51036 0.0
C419 C 0.04352 0.4203 0.45546 0.0
N420 N 0.06051 0.4551 0.47159 0.0
C421 C 0.11898 0.43991 0.4742 0.0
C422 C 0.10217 0.40517 0.45233 0.0
C423 C 0.06406 0.39454 0.44611 0.0
C424 C 0.0973 0.46479 0.48364 0.0
H425 H 0.01437 0.41309 0.44584 0.0
H426 H 0.11001 0.4928 0.496 0.0
C427 C 0.05542 0.52716 0.5747 0.0
C428 C 0.92271 0.45537 0.61529 0.0
N429 N 0.96212 0.53107 0.56274 0.0
C430 C 0.97468 0.56424 0.58733 0.0
C431 C 0.95364 0.5905 0.58606 0.0
C432 C 0.91928 0.58196 0.55991 0.0
C433 C 0.90866 0.54868 0.53216 0.0
C434 C 0.93049 0.52333 0.53446 0.0
C435 C 0.08037 0.53383 0.41193 0.0
O436 O 0.9784 0.46622 0.50139 0.0
O437 O 0.97551 0.45761 0.43244 0.0
O438 O 0.03525 0.51391 0.53912 0.0
O439 O 0.04209 0.52239 0.60854 0.0
O440 O 0.92599 0.44278 0.57737 0.0
O441 O 0.94979 0.47809 0.63787 0.0
O442 O 0.08453 0.54439 0.45218 0.0
O443 O 0.0533 0.50842 0.39525 0.0
H444 H -0.00068 0.5693 0.61055 0.0
H445 H 0.92057 0.49637 0.51648 0.0
H446 H 0.04631 0.36974 0.5303 0.0
H447 H 0.09149 0.43007 0.65707 0.0
H448 H 0.92342 0.54487 0.3742 0.0
H449 H 0.96683 0.61695 0.49433 0.0
H450 H 0.14833 0.44902 0.47901 0.0
H451 H 0.05035 0.36784 0.4292 0.0
H452 H 0.96248 0.61571 0.60838 0.0
H453 H 0.88237 0.54123 0.51155 0.0
Cd454 Cd 0.48073 0.94998 0.54116 0.0
Cd455 Cd 0.52929 0.01225 0.44861 0.0
C456 C 0.56213 0.93471 0.56327 0.0
N457 N 0.53101 0.92496 0.53407 0.0
C458 C 0.54716 0.87003 0.50617 0.0
C459 C 0.57762 0.8776 0.53865 0.0
C460 C 0.58627 0.91132 0.56584 0.0
C461 C 0.52399 0.89426 0.50454 0.0
H462 H 0.56666 0.95893 0.58691 0.0
H463 H 0.49864 0.88703 0.48227 0.0
C464 C 0.47222 0.94645 0.43253 0.0
C465 C 0.45234 0.03089 0.41461 0.0
C466 C 0.42585 0.05131 0.409 0.0
C467 C 0.42767 0.08282 0.43835 0.0
C468 C 0.45563 0.09206 0.47406 0.0
C469 C 0.4815 0.07048 0.47872 0.0
N470 N 0.47959 0.04072 0.44892 0.0
H471 H 0.45211 0.00842 0.39004 0.0
H472 H 0.50404 0.07847 0.50495 0.0
C473 C 0.56157 0.94023 0.42355 0.0
N474 N 0.56878 0.9711 0.45302 0.0
C475 C 0.62451 0.95684 0.48375 0.0
C476 C 0.61795 0.92523 0.45302 0.0
C477 C 0.58555 0.91668 0.42336 0.0
C478 C 0.59927 0.97939 0.48336 0.0
H479 H 0.53793 0.93424 0.39891 0.0
H480 H 0.60455 0.0041 0.50641 0.0
C481 C 0.53144 0.02486 0.5669 0.0
C482 C 0.43907 0.88646 0.5602 0.0
N483 N 0.44191 -0.01075 0.55503 0.0
C484 C 0.43586 -0.00542 0.59622 0.0
C485 C 0.41406 0.0183 0.60887 0.0
C486 C 0.39796 0.03665 0.57876 0.0
C487 C 0.40472 0.03072 0.53631 0.0
C488 C 0.4269 0.00663 0.52504 0.0
C489 C 0.56641 0.06734 0.41065 0.0
O490 O 0.48525 0.96124 0.47061 0.0
O491 O 0.48506 0.96102 0.40293 0.0
O492 O 0.52802 0.01477 0.52658 0.0
O493 O 0.51827 0.00203 0.58931 0.0
O494 O 0.43189 0.89694 0.52453 0.0
O495 O 0.46522 0.90626 0.58743 0.0
O496 O 0.57249 0.06848 0.45103 0.0
O497 O 0.54578 0.03901 0.38833 0.0
H498 H 0.44842 0.98058 0.6194 0.0
H499 H 0.43212 0.00181 0.49248 0.0
H500 H 0.53972 0.84433 0.48465 0.0
H501 H 0.60934 0.91789 0.5916 0.0
H502 H 0.40548 0.04368 0.38031 0.0
H503 H 0.45809 0.1162 0.49737 0.0
H504 H 0.64929 0.96447 0.50708 0.0
H505 H 0.5798 0.89307 0.39848 0.0
H506 H 0.41026 0.02258 0.64214 0.0
H507 H 0.3927 0.04415 0.51206 0.0
H508 H 0.13371 0.18614 0.33431 0.0
H509 H 0.11637 0.08608 0.24573 0.0
H510 H 0.08945 0.05286 0.29846 0.0
H511 H 0.07711 0.05192 0.37136 0.0
H512 H 0.09938 0.15109 0.46266 0.0
H513 H 0.11952 0.18535 0.40717 0.0
C514 C 0.12307 0.15717 0.32613 0.0
C515 C 0.12648 0.13845 0.28615 0.0
C516 C 0.10984 0.13821 0.35741 0.0
C517 C 0.11359 0.1009 0.27621 0.0
C518 C 0.09867 0.08198 0.30646 0.0
C519 C 0.08629 0.08108 0.37927 0.0
C520 C 0.08695 0.09902 0.42109 0.0
C521 C 0.09783 0.10028 0.34753 0.0
C522 C 0.09904 0.13671 0.43081 0.0
C523 C 0.11018 0.15624 0.39904 0.0
H524 H 0.81906 0.18646 0.39583 0.0
H525 H 0.85488 0.15986 0.27439 0.0
H526 H 0.89875 0.12913 0.30837 0.0
H527 H 0.92754 0.11058 0.37207 0.0
H528 H 0.8901 0.13334 0.49316 0.0
H529 H 0.84689 0.16564 0.45997 0.0
C530 C 0.83644 0.17391 0.37679 0.0
C531 C 0.83363 0.17555 0.33255 0.0
C532 C 0.86153 0.1559 0.3965 0.0
C533 C 0.85626 0.15893 0.30838 0.0
C534 C 0.88149 0.14144 0.32782 0.0
C535 C 0.9096 0.1221 0.39123 0.0
C536 C 0.91197 0.11926 0.43505 0.0
C537 C 0.88435 0.1398 0.37176 0.0
C538 C 0.88917 0.13537 0.45949 0.0
C539 C 0.86425 0.15362 0.44042 0.0
H540 H 0.90805 0.84452 0.3011 0.0
H541 H 0.82204 0.90397 0.30872 0.0
H542 H 0.85873 0.9455 0.37042 0.0
H543 H 0.91184 0.96037 0.4272 0.0
H544 H -0.0015 0.90253 0.41962 0.0
H545 H 0.96422 0.86362 0.35343 0.0
C546 C 0.89765 0.86706 0.31556 0.0
C547 C 0.86199 0.87048 0.30112 0.0
C548 C 0.91828 0.89005 0.35194 0.0
C549 C 0.84926 0.90039 0.31951 0.0
C550 C 0.86995 0.92385 0.35524 0.0
C551 C 0.92271 0.93879 0.41119 0.0
C552 C 0.9565 0.9329 0.42822 0.0
C553 C 0.90364 0.91783 0.3728 0.0
C554 C 0.97171 0.90627 0.40703 0.0
C555 C 0.95246 0.88458 0.36916 0.0
H556 H 0.207 0.88788 0.34619 0.0
H557 H 0.15201 0.79155 0.38679 0.0
H558 H 0.13342 0.82852 0.44529 0.0
H559 H 0.13068 0.88786 0.48294 0.0
H560 H 0.17997 -0.01588 0.43675 0.0
H561 H 0.2045 0.94751 0.38441 0.0
C562 C 0.19093 0.87498 0.36784 0.0
C563 C 0.18058 0.83702 0.3618 0.0
C564 C 0.17973 0.89638 0.40096 0.0
C565 C 0.15984 0.82072 0.39024 0.0
C566 C 0.14942 0.84184 0.42391 0.0
C567 C 0.14639 0.90109 0.46126 0.0
C568 C 0.15249 0.93901 0.46388 0.0
C569 C 0.15881 0.87971 0.42923 0.0
C570 C 0.17464 0.95523 0.43642 0.0
C571 C 0.18838 0.93419 0.4057 0.0
H572 H 0.19472 0.84391 0.6401 0.0
H573 H 0.1127 0.74779 0.63831 0.0
H574 H 0.06662 0.77434 0.60149 0.0
H575 H 0.04807 0.82778 0.57928 0.0
H576 H 0.12922 0.92451 0.58225 0.0
H577 H 0.17729 0.89454 0.60845 0.0
C578 C 0.16686 0.82861 0.63123 0.0
C579 C 0.15709 0.79429 0.64288 0.0
C580 C 0.14029 0.84416 0.61039 0.0
C581 C 0.12096 0.77454 0.63041 0.0
C582 C 0.0945 0.78966 0.60929 0.0
C583 C 0.07637 0.84193 0.58442 0.0
C584 C 0.08513 0.87838 0.57953 0.0
C585 C 0.10364 0.82487 0.60042 0.0
C586 C 0.12188 0.89653 0.58654 0.0
C587 C 0.1493 0.87947 0.60161 0.0
H588 H 0.12781 0.1492 0.73141 0.0
H589 H 0.18582 0.13431 0.62453 0.0
H590 H 0.13306 0.09103 0.58347 0.0
H591 H 0.07064 0.05839 0.57725 0.0
H592 H 0.01156 0.07191 0.68315 0.0
H593 H 0.06449 0.11533 0.72523 0.0
C594 C 0.12892 0.13602 0.69936 0.0
C595 C 0.16036 0.14492 0.68082 0.0
C596 C 0.09827 0.11147 0.67558 0.0
C597 C 0.16164 0.12799 0.63922 0.0
C598 C 0.13153 0.10331 0.61568 0.0
C599 C 0.06913 0.07115 0.60926 0.0
C600 C 0.03738 0.06231 0.62701 0.0
C601 C 0.09962 0.09529 0.6333 0.0
C602 C 0.0359 0.07856 0.66886 0.0
C603 C 0.06614 0.10315 0.69297 0.0
H604 H 0.77472 0.16654 0.59043 0.0
H605 H 0.8636 0.20462 0.6961 0.0
H606 H 0.89868 0.16442 0.66305 0.0
H607 H 0.89994 0.112 0.61116 0.0
H608 H 0.80965 0.06845 0.50894 0.0
H609 H 0.77957 0.11779 0.53242 0.0
C610 C 0.80211 0.16655 0.6055 0.0
C611 C 0.81649 0.18807 0.64583 0.0
C612 C 0.82168 0.14225 0.58702 0.0
C613 C 0.85189 0.18788 0.66532 0.0
C614 C 0.87195 0.16495 0.64646 0.0
C615 C 0.87404 0.11394 0.59349 0.0
C616 C 0.85661 0.08677 0.55893 0.0
C617 C 0.8565 0.14104 0.60838 0.0
C618 C 0.82332 0.08926 0.53578 0.0
C619 C 0.80609 0.1172 0.54949 0.0
H620 H 0.79272 0.85097 0.7229 0.0
H621 H 0.88737 0.82633 0.79321 0.0
H622 H 0.92702 0.86546 0.75543 0.0
H623 H 0.93297 0.89575 0.69207 0.0
H624 H 0.83615 0.90772 0.61244 0.0
H625 H 0.79852 0.8828 0.66253 0.0
C626 C 0.82218 0.85547 0.73108 0.0
C627 C 0.83735 0.83618 0.76058 0.0
C628 C 0.84399 0.87394 0.70569 0.0
C629 C 0.87531 0.84149 0.77097 0.0
C630 C 0.89778 0.86301 0.74854 0.0
C631 C 0.90361 0.89282 0.68586 0.0
C632 C 0.88707 0.90287 0.64851 0.0
C633 C 0.88217 0.87737 0.714 0.0
C634 C 0.84918 0.89926 0.64054 0.0
C635 C 0.82782 0.88559 0.66944 0.0
H636 H 0.2998 0.17126 0.0965 0.0
H637 H 0.24219 0.07959 0.14385 0.0
H638 H 0.27614 0.04037 0.10692 0.0
H639 H 0.32807 0.0339 0.0703 0.0
H640 H 0.38746 0.12506 0.02475 0.0
H641 H 0.34665 0.16281 0.05134 0.0
C642 C 0.2941 0.14257 0.09804 0.0
C643 C 0.26893 0.12855 0.12363 0.0
C644 C 0.3143 0.12022 0.0774 0.0
C645 C 0.26175 0.09124 0.12495 0.0
C646 C 0.28121 0.06876 0.1039 0.0
C647 C 0.33141 0.06186 0.06546 0.0
C648 C 0.36051 0.07705 0.04609 0.0
C649 C 0.30844 0.08324 0.08149 0.0
C650 C 0.36501 0.1131 0.03965 0.0
C651 C 0.34187 0.13459 0.05507 0.0
H652 H 0.88324 0.31863 0.23212 0.0
H653 H 0.82684 0.25326 0.11264 0.0
H654 H 0.8675 0.28936 0.07312 0.0
H655 H 0.91139 0.3462 0.07272 0.0
H656 H 0.96635 0.41174 0.19325 0.0
H657 H 0.93414 0.36876 0.23237 0.0
C658 C 0.88067 0.31171 0.1975 0.0
C659 C 0.85208 0.28392 0.17502 0.0
C660 C 0.90329 0.3331 0.17527 0.0
C661 C 0.84887 0.27464 0.13038 0.0
C662 C 0.87176 0.29555 0.10786 0.0
C663 C 0.91653 0.3508 0.10753 0.0
C664 C 0.94032 0.38257 0.13012 0.0
C665 C 0.89777 0.326 0.1299 0.0
C666 C 0.94761 0.38781 0.17516 0.0
C667 C 0.92927 0.36324 0.19758 0.0
H668 H 0.69445 0.8147 0.10053 0.0
H669 H 0.64326 0.79625 0.21102 0.0
H670 H 0.59082 0.81854 0.18121 0.0
H671 H 0.56087 0.84573 0.12612 0.0
H672 H 0.61377 0.87127 0.01884 0.0
H673 H 0.6633 0.84268 0.04386 0.0
C674 C 0.67155 0.81531 0.1176 0.0
C675 C 0.67246 0.80386 0.15778 0.0
C676 C 0.64177 0.82932 0.10079 0.0
C677 C 0.64297 0.80502 0.18004 0.0
C678 C 0.61303 0.81774 0.16304 0.0
C679 C 0.58337 0.84558 0.10831 0.0
C680 C 0.58364 0.86132 0.07088 0.0
C681 C 0.61241 0.83051 0.12386 0.0
C682 C 0.61255 0.85933 0.04758 0.0
C683 C 0.64115 0.84322 0.06215 0.0
H684 H 0.14167 0.68894 0.09894 0.0
H685 H 0.0726 0.70793 0.19355 0.0
H686 H 0.03064 0.65051 0.16276 0.0
H687 H 0.02291 0.58912 0.12192 0.0
H688 H 0.10031 0.56662 0.03975 0.0
H689 H 0.1305 0.63067 0.05326 0.0
C690 C 0.11694 0.68111 0.11224 0.0
C691 C 0.11112 0.70186 0.14971 0.0
C692 C 0.09526 0.6466 0.09748 0.0
C693 C 0.07822 0.69195 0.16537 0.0
C694 C 0.05456 0.65883 0.14825 0.0
C695 C 0.04625 0.5985 0.10686 0.0
C696 C 0.05942 0.57375 0.07952 0.0
C697 C 0.06447 0.63484 0.1167 0.0
C698 C 0.08936 0.58575 0.05982 0.0
C699 C 0.10665 0.62217 0.06784 0.0
H700 H 0.32916 0.88438 0.78119 0.0
H701 H 0.29179 0.85639 0.89713 0.0
H702 H 0.34527 0.89796 0.94026 0.0
H703 H 0.40684 0.93496 0.94418 0.0
H704 H 0.44526 0.95977 0.82797 0.0
H705 H 0.38738 0.92626 0.78567 0.0
C706 C 0.33218 0.88785 0.81592 0.0
C707 C 0.30686 0.8666 0.83581 0.0
C708 C 0.36377 0.91042 0.84041 0.0
C709 C 0.3111 0.87199 0.8809 0.0
C710 C 0.34188 0.8955 0.90561 0.0
C711 C 0.40251 0.93287 0.90968 0.0
C712 C 0.43058 0.94901 0.88929 0.0
C713 C 0.36921 0.91342 0.88557 0.0
C714 C 0.42431 0.94707 0.84449 0.0
C715 C 0.39114 0.92808 0.82027 0.0
H716 H 0.23357 0.35401 0.87419 0.0
H717 H 0.14518 0.26041 0.83954 0.0
H718 H 0.10486 0.29437 0.87381 0.0
H719 H 0.09326 0.35291 0.90666 0.0
H720 H 0.18246 0.44578 0.94182 0.0
H721 H 0.22404 0.40977 0.91495 0.0
C722 C 0.2056 0.34086 0.87466 0.0
C723 C 0.19225 0.30489 0.85384 0.0
C724 C 0.18268 0.36052 0.89434 0.0
C725 C 0.15613 0.28806 0.8553 0.0
C726 C 0.13301 0.30756 0.87465 0.0
C727 C 0.12192 0.36503 0.90889 0.0
C728 C 0.13472 0.40204 0.92581 0.0
C729 C 0.14573 0.34413 0.89318 0.0
C730 C 0.17198 0.41735 0.92913 0.0
C731 C 0.19572 0.39683 0.91346 0.0
H732 H 0.71378 0.18787 0.87997 0.0
H733 H 0.69373 0.11005 0.76368 0.0
H734 H 0.6592 0.06459 0.79867 0.0
H735 H 0.6267 0.05115 0.85799 0.0
H736 H 0.64436 0.1299 0.97359 0.0
H737 H 0.68883 0.17078 0.94377 0.0
C738 C 0.70278 0.16053 0.86298 0.0
C739 C 0.7061 0.15189 0.81969 0.0
C740 C 0.68225 0.1351 0.88295 0.0
C741 C 0.69166 0.1168 0.79729 0.0
C742 C 0.67169 0.09106 0.81714 0.0
C743 C 0.64062 0.07709 0.8769 0.0
C744 C 0.63153 0.08807 0.91732 0.0
C745 C 0.66549 0.10052 0.85929 0.0
C746 C 0.65047 0.12121 0.94203 0.0
C747 C 0.67579 0.14457 0.92497 0.0
H748 H 0.85863 0.71356 0.88198 0.0
H749 H 0.76561 0.62454 0.85934 0.0
H750 H 0.80011 0.58992 0.90158 0.0
H751 H 0.8587 0.58164 0.936 0.0
H752 H 0.95385 0.66782 0.95243 0.0
H753 H 0.91658 0.70716 0.92321 0.0
C754 C 0.84585 0.68693 0.88725 0.0
C755 C 0.80988 0.6714 0.86742 0.0
C756 C 0.86634 0.66655 0.91028 0.0
C757 C 0.79349 0.63679 0.87404 0.0
C758 C 0.81317 0.61698 0.89812 0.0
C759 C 0.87123 0.60915 0.93355 0.0
C760 C 0.90908 0.62147 0.94569 0.0
C761 C 0.84998 0.63103 0.91494 0.0
C762 C 0.92475 0.65755 0.94343 0.0
C763 C 0.9035 0.68 0.92624 0.0
H764 H 0.2022 0.30654 0.11393 0.0
H765 H 0.10281 0.23494 0.1268 0.0
H766 H 0.0669 0.27101 0.08857 0.0
H767 H 0.06366 0.32729 0.06149 0.0
H768 H 0.16238 0.40259 0.05468 0.0
H769 H 0.19882 0.36075 0.08027 0.0
C770 C 0.17271 0.29836 0.10726 0.0
C771 C 0.15506 0.26812 0.12302 0.0
C772 C 0.1522 0.32023 0.08695 0.0
C773 C 0.11688 0.25813 0.11496 0.0
C774 C 0.09638 0.27882 0.09328 0.0
C775 C 0.09313 0.33408 0.06438 0.0
C776 C 0.11038 0.36789 0.05618 0.0
C777 C 0.11371 0.31058 0.08054 0.0
C778 C 0.14859 0.37671 0.06097 0.0
C779 C 0.16935 0.35285 0.07568 0.0
H780 H 0.17344 0.71069 0.88328 0.0
H781 H 0.09761 0.68223 0.76437 0.0
H782 H 0.05844 0.63733 0.79507 0.0
H783 H 0.0512 0.59975 0.85125 0.0
H784 H 0.1291 0.62599 0.96847 0.0
H785 H 0.16223 0.67798 0.94266 0.0
C786 C 0.14787 0.69538 0.86444 0.0
C787 C 0.13878 0.69925 0.82139 0.0
C788 C 0.12643 0.66846 0.88153 0.0
C789 C 0.10544 0.67935 0.79745 0.0
C790 C 0.0832 0.65346 0.81484 0.0
C791 C 0.07539 0.61691 0.87116 0.0
C792 C 0.08825 0.60855 0.91115 0.0
C793 C 0.09443 0.64655 0.85602 0.0
C794 C 0.11904 0.63151 0.93716 0.0
C795 C 0.13791 0.66133 0.92254 0.0
H796 H 0.36099 0.21997 0.88878 0.0
H797 H 0.27497 0.1259 0.84166 0.0
H798 H 0.3109 0.08839 0.87784 0.0
H799 H 0.3712 0.08125 0.91169 0.0
H800 H 0.45625 0.17575 0.96069 0.0
H801 H 0.41626 0.21452 0.93533 0.0
C802 C 0.34972 0.19144 0.8876 0.0
C803 C 0.31565 0.17552 0.86233 0.0
C804 C 0.37059 0.17018 0.90825 0.0
C805 C 0.30109 0.13867 0.86109 0.0
C806 C 0.3218 0.11721 0.88139 0.0
C807 C 0.38043 0.11042 0.918 0.0
C808 C 0.41655 0.12578 0.93773 0.0
C809 C 0.35722 0.13243 0.90342 0.0
C810 C 0.42848 0.16351 0.94568 0.0
C811 C 0.40571 0.18558 0.93092 0.0
H812 H 0.82827 0.33114 0.8944 0.0
H813 H 0.89392 0.28976 0.80693 0.0
H814 H 0.94801 0.33387 0.84557 0.0
H815 H 0.97262 0.39186 0.8944 0.0
H816 H 0.90722 0.43261 0.98267 0.0
H817 H 0.8568 0.38073 0.95409 0.0
C818 C 0.85477 0.33106 0.88493 0.0
C819 C 0.85743 0.30788 0.84786 0.0
C820 C 0.88534 0.35677 0.9068 0.0
C821 C 0.89158 0.30749 0.83557 0.0
C822 C 0.92229 0.33294 0.8573 0.0
C823 C 0.94749 0.38882 0.90777 0.0
C824 C 0.94277 0.41614 0.93938 0.0
C825 C 0.91893 0.35897 0.89135 0.0
C826 C 0.91087 0.4119 0.95774 0.0
C827 C 0.88214 0.38239 0.94137 0.0
H828 H 0.72017 0.83462 0.88824 0.0
H829 H 0.62263 0.75474 0.83246 0.0
H830 H 0.58596 0.78978 0.87106 0.0
H831 H 0.58051 0.84668 0.91215 0.0
H832 H 0.67676 0.9294 0.96335 0.0
H833 H 0.71513 0.8894 0.93648 0.0
C834 C 0.69101 0.82464 0.88534 0.0
C835 C 0.674 0.79252 0.85711 0.0
C836 C 0.66984 0.84553 0.90667 0.0
C837 C 0.6362 0.77977 0.85349 0.0
C838 C 0.61521 0.79973 0.87557 0.0
C839 C 0.60993 0.85575 0.91783 0.0
C840 C 0.62576 0.89107 0.93888 0.0
C841 C 0.63156 0.83325 0.90086 0.0
C842 C 0.66393 0.90227 0.94712 0.0
C843 C 0.68585 0.87954 0.93138 0.0
H844 H 0.88352 0.71479 0.16837 0.0
H845 H 0.77822 0.6639 0.09383 0.0
H846 H 0.80415 0.61528 0.06044 0.0
H847 H 0.85472 0.58254 0.06067 0.0
H848 H 0.95899 0.63313 0.13761 0.0
H849 H 0.93545 0.68624 0.16175 0.0
C850 C 0.86628 0.69354 0.14414 0.0
C851 C 0.82877 0.69291 0.13423 0.0
C852 C 0.88107 0.66504 0.12607 0.0
C853 C 0.80712 0.66516 0.10238 0.0
C854 C 0.82188 0.63708 0.08348 0.0
C855 C 0.87241 0.60549 0.08207 0.0
C856 C 0.90832 0.60349 0.09812 0.0
C857 C 0.8585 0.63596 0.09637 0.0
C858 C 0.93097 0.63356 0.12569 0.0
C859 C 0.91758 0.66405 0.13937 0.0
H860 H 0.27113 0.80689 0.10296 0.0
H861 H 0.29031 0.89462 0.20995 0.0
H862 H 0.33102 0.93237 0.1728 0.0
H863 H 0.36781 0.93705 0.11567 0.0
H864 H 0.35188 0.84861 0.01044 0.0
H865 H 0.30281 0.81442 0.04122 0.0
C866 C 0.28368 0.83448 0.11794 0.0
C867 C 0.27828 0.84761 0.15966 0.0
C868 C 0.30803 0.8556 0.09707 0.0
C869 C 0.29436 0.88361 0.17819 0.0
C870 C 0.31779 0.90517 0.15706 0.0
C871 C 0.35347 0.91035 0.09927 0.0
C872 C 0.36404 0.89487 0.06154 0.0
C873 C 0.32599 0.89084 0.11746 0.0
C874 C 0.34454 0.86079 0.03991 0.0
C875 C 0.31658 0.84129 0.05753 0.0
H876 H 0.64354 0.1223 0.20908 0.0
H877 H 0.70155 0.13691 0.10297 0.0
H878 H 0.65377 0.09054 0.05528 0.0
H879 H 0.59255 0.05041 0.04325 0.0
H880 H 0.53606 0.0358 0.15084 0.0
H881 H 0.58613 0.078 0.1987 0.0
C882 C 0.64602 0.11473 0.17566 0.0
C883 C 0.67569 0.13282 0.15928 0.0
C884 C 0.61848 0.08862 0.14876 0.0
C885 C 0.67898 0.12293 0.11616 0.0
C886 C 0.6515 0.0968 0.08891 0.0
C887 C 0.59139 0.05629 0.07715 0.0
C888 C 0.56052 0.04026 0.09333 0.0
C889 C 0.62062 0.08025 0.10469 0.0
C890 C 0.55943 0.04791 0.13749 0.0
C891 C 0.58807 0.07197 0.16493 0.0
H892 H 0.68246 0.63057 0.82892 0.0
H893 H 0.58588 0.63609 0.74388 0.0
H894 H 0.54858 0.62041 0.79886 0.0
H895 H 0.54442 0.60758 0.87182 0.0
H896 H 0.64214 0.60654 0.95781 0.0
H897 H 0.6787 0.62034 0.90199 0.0
C898 C 0.6531 0.62742 0.82183 0.0
C899 C 0.63673 0.63357 0.78198 0.0
C900 C 0.63247 0.62083 0.85429 0.0
C901 C 0.59888 0.63067 0.77396 0.0
C902 C 0.57775 0.62235 0.8056 0.0
C903 C 0.57381 0.61092 0.87855 0.0
C904 C 0.59063 0.60599 0.91881 0.0
C905 C 0.59444 0.61813 0.84614 0.0
C906 C 0.62866 0.61061 0.92727 0.0
C907 C 0.64944 0.61785 0.89515 0.0
H908 H 0.31067 0.64103 0.81498 0.0
H909 H 0.32638 0.73437 0.9136 0.0
H910 H 0.36304 0.70575 0.96262 0.0
H911 H 0.39447 0.65581 0.97464 0.0
H912 H 0.37696 0.56293 0.87446 0.0
H913 H 0.33676 0.58967 0.829 0.0
C914 C 0.32202 0.65507 0.84729 0.0
C915 C 0.31657 0.6899 0.86053 0.0
C916 C 0.34264 0.63852 0.87497 0.0
C917 C 0.33054 0.70753 0.90273 0.0
C918 C 0.35154 0.69126 0.93062 0.0
C919 C 0.38146 0.64132 0.94308 0.0
C920 C 0.38855 0.60733 0.92818 0.0
C921 C 0.35838 0.65701 0.91671 0.0
C922 C 0.37147 0.58879 0.88717 0.0
C923 C 0.34872 0.6042 0.86088 0.0
H924 H 0.3473 0.3428 0.8685 0.0
H925 H 0.42077 0.33647 0.7765 0.0
H926 H 0.4697 0.37888 0.82773 0.0
H927 H 0.48803 0.42255 0.89501 0.0
H928 H 0.41289 0.42914 0.98524 0.0
H929 H 0.36792 0.38012 0.93874 0.0
C930 C 0.37406 0.3509 0.85969 0.0
C931 C 0.38053 0.33811 0.8187 0.0
C932 C 0.40146 0.37459 0.88901 0.0
C933 C 0.41539 0.34707 0.80779 0.0
C934 C 0.44315 0.37099 0.83699 0.0
C935 C 0.46194 0.41277 0.9046 0.0
C936 C 0.45306 0.42958 0.94263 0.0
C937 C 0.43603 0.38563 0.87717 0.0
C938 C 0.41989 0.41648 0.9558 0.0
C939 C 0.39419 0.38884 0.92912 0.0
H940 H 0.62532 0.30322 0.83244 0.0
H941 H 0.73124 0.37562 0.8575 0.0
H942 H 0.70938 0.41816 0.90567 0.0
H943 H 0.65944 0.4379 0.93606 0.0
H944 H 0.55297 0.36795 0.91225 0.0
H945 H 0.57573 0.32124 0.86893 0.0
C946 C 0.64359 0.32818 0.84867 0.0
C947 C 0.67966 0.33636 0.84051 0.0
C948 C 0.6308 0.35302 0.8767 0.0
C949 C 0.70312 0.36873 0.8623 0.0
C950 C 0.69076 0.39318 0.89015 0.0
C951 C 0.64152 0.41206 0.92206 0.0
C952 C 0.60486 0.40604 0.92715 0.0
C953 C 0.65458 0.38598 0.89689 0.0
C954 C 0.58153 0.37275 0.90891 0.0
C955 C 0.59445 0.3463 0.88388 0.0
H956 H 0.62479 0.27534 0.1519 0.0
H957 H 0.7176 0.36447 0.16923 0.0
H958 H 0.6808 0.39867 0.12932 0.0
H959 H 0.62076 0.40601 0.09728 0.0
H960 H 0.52733 0.31828 0.08346 0.0
H961 H 0.5662 0.28027 0.11276 0.0
C962 C 0.6371 0.30212 0.14667 0.0
C963 C 0.67371 0.31758 0.16435 0.0
C964 C 0.61571 0.32182 0.12411 0.0
C965 C 0.68938 0.35205 0.15649 0.0
C966 C 0.66837 0.37166 0.13364 0.0
C967 C 0.60904 0.37838 0.10019 0.0
C968 C 0.57121 0.36513 0.08893 0.0
C969 C 0.63128 0.35722 0.11848 0.0
C970 C 0.5564 0.32907 0.09184 0.0
C971 C 0.57854 0.30749 0.10908 0.0
H972 H 0.68268 0.6301 0.1555 0.0
H973 H 0.64616 0.64493 0.27821 0.0
H974 H 0.58898 0.60135 0.2483 0.0
H975 H 0.54682 0.56605 0.18466 0.0
H976 H 0.58272 0.55676 0.06115 0.0
H977 H 0.64277 0.5925 0.09385 0.0
C978 C 0.66234 0.62359 0.17589 0.0
C979 C 0.66798 0.64119 0.21855 0.0
C980 C 0.62924 0.60047 0.15803 0.0
C981 C 0.64212 0.63178 0.2451 0.0
C982 C 0.60936 0.60729 0.22789 0.0
C983 C 0.56787 0.57191 0.16503 0.0
C984 C 0.56039 0.55967 0.12055 0.0
C985 C 0.60212 0.59275 0.18395 0.0
C986 C 0.58776 0.56686 0.09531 0.0
C987 C 0.62212 0.58686 0.11401 0.0
H988 H 0.29386 0.68592 0.11184 0.0
H989 H 0.26948 0.61833 0.20677 0.0
H990 H 0.29515 0.57139 0.16949 0.0
H991 H 0.3299 0.55218 0.11447 0.0
H992 H 0.36116 0.62189 0.02433 0.0
H993 H 0.32704 0.66528 0.0544 0.0
C994 C 0.2938 0.66068 0.12389 0.0
C995 C 0.28002 0.65555 0.16202 0.0
C996 C 0.30982 0.6343 0.1031 0.0
C997 C 0.28031 0.62295 0.17769 0.0
C998 C 0.29487 0.59609 0.15636 0.0
C999 C 0.32835 0.57647 0.10078 0.0
C1000 C 0.34731 0.58385 0.06694 0.0
C1001 C 0.3104 0.60181 0.11965 0.0
C1002 C 0.34623 0.61575 0.05006 0.0
C1003 C 0.32701 0.64053 0.06748 0.0
H1004 H 0.28824 0.33144 0.18068 0.0
H1005 H 0.37901 0.32093 0.2714 0.0
H1006 H 0.41879 0.36992 0.24603 0.0
H1007 H 0.42862 0.40889 0.19042 0.0
H1008 H 0.33795 0.41173 0.09459 0.0
H1009 H 0.29677 0.37215 0.12946 0.0
C1010 C 0.31675 0.34005 0.19517 0.0
C1011 C 0.33113 0.32227 0.22694 0.0
C1012 C 0.33927 0.36638 0.17904 0.0
C1013 C 0.36762 0.33422 0.24658 0.0
C1014 C 0.39027 0.36188 0.2318 0.0
C1015 C 0.39975 0.40102 0.17766 0.0
C1016 C 0.38608 0.41257 0.13991 0.0
C1017 C 0.37661 0.37706 0.19685 0.0
C1018 C 0.34885 0.4025 0.12327 0.0
C1019 C 0.32541 0.3801 0.14324 0.0
H1020 H 0.83162 0.69417 0.63061 0.0
H1021 H 0.75922 0.59523 0.64251 0.0
H1022 H 0.79514 0.55997 0.60258 0.0
H1023 H 0.85129 0.55719 0.57386 0.0
H1024 H 0.92684 0.65552 0.56737 0.0
H1025 H 0.88523 0.69138 0.59544 0.0
C1026 C 0.82327 0.66492 0.62374 0.0
C1027 C 0.79302 0.64726 0.63986 0.0
C1028 C 0.84477 0.64483 0.60214 0.0
C1029 C 0.78262 0.60937 0.63084 0.0
C1030 C 0.80314 0.58923 0.60807 0.0
C1031 C 0.85817 0.58647 0.57734 0.0
C1032 C 0.89196 0.60381 0.56853 0.0
C1033 C 0.83489 0.60665 0.5949 0.0
C1034 C 0.90097 0.64172 0.57415 0.0
C1035 C 0.87726 0.66212 0.59025 0.0
H1036 H 0.31249 0.77543 0.60455 0.0
H1037 H 0.39415 0.77692 0.71277 0.0
H1038 H 0.44087 0.81128 0.67892 0.0
H1039 H 0.45491 0.85059 0.62552 0.0
H1040 H 0.37224 0.84985 0.5182 0.0
H1041 H 0.32945 0.80479 0.54423 0.0
C1042 C 0.34077 0.78246 0.62 0.0
C1043 C 0.35009 0.77449 0.66112 0.0
C1044 C 0.36699 0.80275 0.60087 0.0
C1045 C 0.38663 0.78301 0.681 0.0
C1046 C 0.41315 0.80292 0.66188 0.0
C1047 C 0.4277 0.84009 0.60752 0.0
C1048 C 0.41623 0.8543 0.57093 0.0
C1049 C 0.40314 0.81455 0.62294 0.0
C1050 C 0.38138 0.83979 0.54701 0.0
C1051 C 0.3569 0.8141 0.56188 0.0
H1052 H 0.17038 0.28279 0.62063 0.0
H1053 H 0.24837 0.37978 0.68197 0.0
H1054 H 0.20649 0.41683 0.65722 0.0
H1055 H 0.14509 0.42124 0.62629 0.0
H1056 H 0.06517 0.32408 0.57021 0.0
H1057 H 0.11052 0.28757 0.5841 0.0
C1058 C 0.17861 0.31206 0.62751 0.0
C1059 C 0.2124 0.32854 0.65313 0.0
C1060 C 0.15377 0.33313 0.61472 0.0
C1061 C 0.22247 0.36649 0.66235 0.0
C1062 C 0.19845 0.38766 0.64846 0.0
C1063 C 0.1376 0.39206 0.61704 0.0
C1064 C 0.10163 0.37539 0.59789 0.0
C1065 C 0.16353 0.37121 0.62609 0.0
C1066 C 0.09265 0.33764 0.58499 0.0
C1067 C 0.11853 0.31672 0.59314 0.0
H1068 H 0.59568 0.17565 0.683 0.0
H1069 H 0.65054 0.19257 0.57452 0.0
H1070 H 0.61387 0.1356 0.53374 0.0
H1071 H 0.5746 0.0762 0.53411 0.0
H1072 H 0.52263 0.05857 0.64432 0.0
H1073 H 0.55039 0.12026 0.67951 0.0
C1074 C 0.59911 0.1674 0.65009 0.0
C1075 C 0.62665 0.18784 0.63241 0.0
C1076 C 0.57928 0.13385 0.6276 0.0
C1077 C 0.63002 0.17705 0.58932 0.0
C1078 C 0.60932 0.14424 0.56607 0.0
C1079 C 0.56912 0.08606 0.56558 0.0
C1080 C 0.54736 0.06267 0.58696 0.0
C1081 C 0.58539 0.12154 0.5858 0.0
C1082 C 0.54013 0.07578 0.62766 0.0
C1083 C 0.5557 0.11116 0.64765 0.0
H1084 H 0.82006 0.33276 0.42058 0.0
H1085 H 0.7967 0.40068 0.32717 0.0
H1086 H 0.84618 0.44934 0.36593 0.0
H1087 H 0.90489 0.4653 0.41366 0.0
H1088 H 0.93161 0.39592 0.50334 0.0
H1089 H 0.87177 0.35518 0.47928 0.0
C1090 C 0.82507 0.35857 0.40938 0.0
C1091 C 0.80591 0.36259 0.37002 0.0
C1092 C 0.85471 0.38577 0.43061 0.0
C1093 C 0.8119 0.39653 0.35666 0.0
C1094 C 0.84031 0.42431 0.37866 0.0
C1095 C 0.89713 0.44161 0.42846 0.0
C1096 C 0.92249 0.43265 0.45901 0.0
C1097 C 0.86345 0.41807 0.41358 0.0
C1098 C 0.91234 0.40277 0.47923 0.0
C1099 C 0.8783 0.3795 0.46533 0.0
H1100 H 0.74401 0.8614 0.38578 0.0
H1101 H 0.66606 0.7613 0.37623 0.0
H1102 H 0.6268 0.79344 0.41525 0.0
H1103 H 0.61058 0.85166 0.44131 0.0
H1104 H 0.68932 0.9513 0.4502 0.0
H1105 H 0.73267 0.9177 0.42328 0.0
C1106 C 0.71885 0.8465 0.39324 0.0
C1107 C 0.7077 0.80916 0.37774 0.0
C1108 C 0.69641 0.86518 0.41525 0.0
C1109 C 0.67525 0.79005 0.38793 0.0
C1110 C 0.65266 0.80849 0.40987 0.0
C1111 C 0.63754 0.86585 0.43818 0.0
C1112 C 0.64654 0.90397 0.44717 0.0
C1113 C 0.66228 0.8463 0.42207 0.0
C1114 C 0.68173 0.92203 0.44365 0.0
C1115 C 0.70644 0.90283 0.42783 0.0
H1116 H 0.14608 0.62593 0.2824 0.0
H1117 H 0.22899 0.66958 0.39294 0.0
H1118 H 0.20043 0.62404 0.43256 0.0
H1119 H 0.14742 0.57709 0.43794 0.0
H1120 H 0.06574 0.53266 0.326 0.0
H1121 H 0.09881 0.5727 0.28415 0.0
C1122 C 0.15805 0.62504 0.31499 0.0
C1123 C 0.18891 0.65118 0.33532 0.0
C1124 C 0.14173 0.59881 0.33714 0.0
C1125 C 0.20496 0.64965 0.37706 0.0
C1126 C 0.18861 0.62378 0.39963 0.0
C1127 C 0.13723 0.57587 0.40421 0.0
C1128 C 0.10385 0.55273 0.38524 0.0
C1129 C 0.15631 0.59902 0.38039 0.0
C1130 C 0.09123 0.55061 0.34135 0.0
C1131 C 0.10999 0.5736 0.31747 0.0
H1132 H 0.35013 0.19991 0.36847 0.0
H1133 H 0.2627 0.1056 0.32879 0.0
H1134 H 0.29756 0.07025 0.369 0.0
H1135 H 0.35508 0.06408 0.40863 0.0
H1136 H 0.44451 0.15662 0.44479 0.0
H1137 H 0.40637 0.19482 0.41429 0.0
C1138 C 0.33856 0.17178 0.36915 0.0
C1139 C 0.3041 0.15534 0.34501 0.0
C1140 C 0.35911 0.15121 0.39181 0.0
C1141 C 0.28943 0.11884 0.3464 0.0
C1142 C 0.30928 0.09855 0.36952 0.0
C1143 C 0.36611 0.09271 0.41022 0.0
C1144 C 0.4027 0.10732 0.42841 0.0
C1145 C 0.34453 0.11414 0.39124 0.0
C1146 C 0.41637 0.14464 0.43112 0.0
C1147 C 0.39468 0.16644 0.41322 0.0
H1148 H 0.6237 0.75173 0.62404 0.0
H1149 H 0.73073 0.81749 0.62893 0.0
H1150 H 0.70459 0.85763 0.58631 0.0
H1151 H 0.65027 0.87815 0.55538 0.0
H1152 H 0.54365 0.81138 0.5499 0.0
H1153 H 0.57064 0.76727 0.58404 0.0
C1154 C 0.64131 0.77454 0.61521 0.0
C1155 C 0.67892 0.78192 0.63012 0.0
C1156 C 0.62616 0.79743 0.59061 0.0
C1157 C 0.70159 0.81125 0.61791 0.0
C1158 C 0.68667 0.83435 0.59371 0.0
C1159 C 0.63317 0.85354 0.56095 0.0
C1160 C 0.59513 0.84808 0.55041 0.0
C1161 C 0.64886 0.82832 0.581 0.0
C1162 C 0.57308 0.81602 0.55738 0.0
C1163 C 0.58844 0.79094 0.57732 0.0
H1164 H 0.61741 0.1817 0.29596 0.0
H1165 H 0.6844 0.23497 0.4161 0.0
H1166 H 0.65176 0.19035 0.45359 0.0
H1167 H 0.6122 0.13048 0.4494 0.0
H1168 H 0.55074 0.07441 0.32703 0.0
H1169 H 0.57387 0.12546 0.29294 0.0
C1170 C 0.6241 0.18426 0.33057 0.0
C1171 C 0.65347 0.21115 0.35328 0.0
C1172 C 0.60719 0.1572 0.35115 0.0
C1173 C 0.66197 0.21418 0.39804 0.0
C1174 C 0.64367 0.18845 0.41931 0.0
C1175 C 0.60383 0.12953 0.41532 0.0
C1176 C 0.5805 0.09845 0.39058 0.0
C1177 C 0.61772 0.15874 0.39573 0.0
C1178 C 0.56934 0.09775 0.3466 0.0
C1179 C 0.58227 0.12704 0.32712 0.0
H1180 H 0.83128 0.68785 0.40006 0.0
H1181 H 0.86648 0.67427 0.27638 0.0
H1182 H 0.9052 0.63471 0.30029 0.0
H1183 H 0.93064 0.60521 0.35593 0.0
H1184 H 0.89845 0.61807 0.48088 0.0
H1185 H 0.85787 0.65727 0.45752 0.0
C1186 C 0.84746 0.67614 0.37856 0.0
C1187 C 0.84628 0.68432 0.33666 0.0
C1188 C 0.87053 0.65361 0.39283 0.0
C1189 C 0.86735 0.66895 0.30902 0.0
C1190 C 0.88947 0.64618 0.32256 0.0
C1191 C 0.91447 0.61625 0.378 0.0
C1192 C 0.9173 0.60849 0.41996 0.0
C1193 C 0.8915 0.63857 0.36436 0.0
C1194 C 0.89685 0.6238 0.44846 0.0
C1195 C 0.87351 0.64603 0.43498 0.0
H1196 H 0.32673 0.83182 0.3943 0.0
H1197 H 0.38625 0.7777 0.30928 0.0
H1198 H 0.4426 0.82212 0.34081 0.0
H1199 H 0.47102 0.88306 0.38231 0.0
H1200 H 0.40871 0.93842 0.46249 0.0
H1201 H 0.35701 0.88711 0.44306 0.0
C1202 C 0.35239 0.82921 0.38377 0.0
C1203 C 0.35272 0.80227 0.34945 0.0
C1204 C 0.38372 0.85565 0.40033 0.0
C1205 C 0.38575 0.79845 0.33589 0.0
C1206 C 0.41769 0.82412 0.3534 0.0
C1207 C 0.44613 0.88343 0.39566 0.0
C1208 C 0.44308 0.91418 0.42332 0.0
C1209 C 0.4164 0.85399 0.38382 0.0
C1210 C 0.41124 0.91483 0.44102 0.0
C1211 C 0.38181 0.88556 0.43001 0.0
H1212 H 0.16438 0.32431 0.30479 0.0
H1213 H 0.23575 0.30225 0.41036 0.0
H1214 H 0.20886 0.33963 0.46124 0.0
H1215 H 0.16095 0.37498 0.47517 0.0
H1216 H 0.08887 0.39229 0.36696 0.0
H1217 H 0.11988 0.3599 0.31758 0.0
C1218 C 0.17428 0.32764 0.33894 0.0
C1219 C 0.2016 0.31013 0.35383 0.0
C1220 C 0.15812 0.34793 0.36753 0.0
C1221 C 0.21462 0.31545 0.39811 0.0
C1222 C 0.19906 0.33656 0.42716 0.0
C1223 C 0.15226 0.37143 0.44078 0.0
C1224 C 0.12224 0.38508 0.42452 0.0
C1225 C 0.17011 0.35226 0.41224 0.0
C1226 C 0.11134 0.38107 0.38001 0.0
C1227 C 0.12918 0.36285 0.35178 0.0
H1228 H 0.30464 0.13104 0.67445 0.0
H1229 H 0.3516 0.20947 0.60129 0.0
H1230 H 0.37991 0.16411 0.56351 0.0
H1231 H 0.39604 0.10365 0.55745 0.0
H1232 H 0.3467 0.02583 0.63057 0.0
H1233 H 0.31436 0.06937 0.66212 0.0
C1234 C 0.32071 0.13795 0.64976 0.0
C1235 C 0.3265 0.1733 0.64073 0.0
C1236 C 0.33667 0.11197 0.62858 0.0
C1237 C 0.34695 0.18224 0.60859 0.0
C1238 C 0.36319 0.15639 0.58725 0.0
C1239 C 0.37768 0.09605 0.57965 0.0
C1240 C 0.37451 0.06178 0.59243 0.0
C1241 C 0.35896 0.12136 0.5978 0.0
C1242 C 0.35047 0.05232 0.62113 0.0
C1243 C 0.33181 0.07714 0.63907 0.0
H1244 H 0.80079 0.39875 0.71785 0.0
H1245 H 0.75591 0.33427 0.5934 0.0
H1246 H 0.80024 0.37233 0.56071 0.0
H1247 H 0.85998 0.41324 0.57071 0.0
H1248 H 0.90856 0.47291 0.69657 0.0
H1249 H 0.85465 0.44712 0.72563 0.0
C1250 C 0.80004 0.39346 0.68338 0.0
C1251 C 0.77623 0.36271 0.65835 0.0
C1252 C 0.82707 0.41383 0.66535 0.0
C1253 C 0.77472 0.35714 0.61358 0.0
C1254 C 0.80029 0.37867 0.59493 0.0
C1255 C 0.85866 0.42085 0.60446 0.0
C1256 C 0.88869 0.44376 0.63191 0.0
C1257 C 0.82814 0.40523 0.62106 0.0
C1258 C 0.88614 0.45446 0.67514 0.0
C1259 C 0.8553 0.43986 0.69169 0.0
H1260 H 0.19511 0.64476 0.5919 0.0
H1261 H 0.22677 0.59082 0.69626 0.0
H1262 H 0.17684 0.53881 0.6674 0.0
H1263 H 0.11455 0.51919 0.62636 0.0
H1264 H 0.0799 0.57752 0.52752 0.0
H1265 H 0.14036 0.61722 0.53964 0.0
C1266 C 0.19211 0.62068 0.60684 0.0
C1267 C 0.21353 0.62162 0.64648 0.0
C1268 C 0.16181 0.59243 0.5919 0.0
C1269 C 0.21021 0.59052 0.66574 0.0
C1270 C 0.18116 0.56119 0.64976 0.0
C1271 C 0.12071 0.5402 0.60703 0.0
C1272 C 0.09309 0.54626 0.57678 0.0
C1273 C 0.15508 0.5635 0.61522 0.0
C1274 C 0.10106 0.57268 0.55096 0.0
C1275 C 0.13548 0.59541 0.55806 0.0
loop_
_geom_bond_atom_site_label_1
_geom_bond_atom_site_label_2
_geom_bond_distance
_geom_bond_site_symmetry_2
_ccdc_geom_bond_type
O0 Zn1 1.953 . S
O0 C16 1.225 . S
Zn1 O0 1.953 . S
Zn1 O2 1.949 . S
Zn1 O8 1.919 . S
Zn1 O13 1.924 . S
O2 Zn1 1.949 . S
O2 Zn3 1.923 . S
O2 Zn4 1.950 . S
O2 Zn5 1.945 . S
Zn3 O2 1.923 . S
Zn3 O6 1.933 . S
Zn3 O9 1.941 . S
Zn3 O10 1.965 . S
Zn4 O2 1.950 . S
Zn4 O11 1.938 . S
Zn4 O12 1.906 . S
Zn4 O22 1.953 . S
Zn5 O2 1.945 . S
Zn5 O7 1.932 . S
Zn5 O14 1.977 . S
Zn5 O15 1.910 . S
O6 Zn3 1.933 . S
O6 C17 1.226 . S
O7 Zn5 1.932 . S
O7 C17 1.307 . S
O8 Zn1 1.919 . S
O8 C19 1.253 . S
O9 Zn3 1.941 . S
O9 C19 1.283 . S
O10 Zn3 1.965 . S
O10 C18 1.303 . S
O11 Zn4 1.938 . S
O11 C18 1.247 . S
O12 Zn4 1.906 . S
O12 C20 1.304 . S
O13 Zn1 1.924 . S
O13 C21 1.311 . S
O14 Zn5 1.977 . S
O14 C20 1.272 . S
O15 Zn5 1.910 . S
O15 C21 1.231 . S
C16 O0 1.225 . S
C16 O22 1.298 . S
C17 O6 1.226 . S
C17 O7 1.307 . S
C18 O10 1.303 . S
C18 O11 1.247 . S
C19 O8 1.253 . S
C19 O9 1.283 . S
C20 O12 1.304 . S
C20 O14 1.272 . S
C21 O13 1.311 . S
C21 O15 1.231 . S
O22 Zn4 1.953 . S
O22 C16 1.298 . S
O23 Zn24 1.953 . S
O23 C39 1.225 . S
Zn24 O23 1.953 . S
Zn24 O25 1.949 . S
Zn24 O31 1.919 . S
Zn24 O36 1.924 . S
O25 Zn24 1.949 . S
O25 Zn26 1.923 . S
O25 Zn27 1.950 . S
O25 Zn28 1.945 . S
Zn26 O25 1.923 . S
Zn26 O29 1.933 . S
Zn26 O32 1.941 . S
Zn26 O33 1.965 . S
Zn27 O25 1.950 . S
Zn27 O34 1.938 . S
Zn27 O35 1.906 . S
Zn27 O45 1.953 . S
Zn28 O25 1.945 . S
Zn28 O30 1.932 . S
Zn28 O37 1.977 . S
Zn28 O38 1.910 . S
O29 Zn26 1.933 . S
O29 C40 1.226 . S
O30 Zn28 1.932 . S
O30 C40 1.307 . S
O31 Zn24 1.919 . S
O31 C42 1.253 . S
O32 Zn26 1.941 . S
O32 C42 1.283 . S
O33 Zn26 1.965 . S
O33 C41 1.303 . S
O34 Zn27 1.938 . S
O34 C41 1.247 . S
O35 Zn27 1.906 . S
O35 C43 1.304 . S
O36 Zn24 1.924 . S
O36 C44 1.311 . S
O37 Zn28 1.977 . S
O37 C43 1.272 . S
O38 Zn28 1.910 . S
O38 C44 1.231 . S
C39 O23 1.225 . S
C39 O45 1.298 . S
C40 O29 1.226 . S
C40 O30 1.307 . S
C41 O33 1.303 . S
C41 O34 1.247 . S
C42 O31 1.253 . S
C42 O32 1.283 . S
C43 O35 1.304 . S
C43 O37 1.272 . S
C44 O36 1.311 . S
C44 O38 1.231 . S
O45 Zn27 1.953 . S
O45 C39 1.298 . S
O46 Zn47 1.953 . S
O46 C62 1.225 . S
Zn47 O46 1.953 . S
Zn47 O48 1.949 . S
Zn47 O54 1.919 . S
Zn47 O59 1.924 . S
O48 Zn47 1.949 . S
O48 Zn49 1.923 . S
O48 Zn50 1.950 . S
O48 Zn51 1.945 . S
Zn49 O48 1.923 . S
Zn49 O52 1.933 . S
Zn49 O55 1.941 . S
Zn49 O56 1.965 . S
Zn50 O48 1.950 . S
Zn50 O57 1.938 . S
Zn50 O58 1.906 . S
Zn50 O68 1.953 . S
Zn51 O48 1.945 . S
Zn51 O53 1.932 . S
Zn51 O60 1.977 . S
Zn51 O61 1.910 . S
O52 Zn49 1.933 . S
O52 C63 1.226 . S
O53 Zn51 1.932 . S
O53 C63 1.307 . S
O54 Zn47 1.919 . S
O54 C65 1.253 . S
O55 Zn49 1.941 . S
O55 C65 1.283 . S
O56 Zn49 1.965 . S
O56 C64 1.303 . S
O57 Zn50 1.938 . S
O57 C64 1.247 . S
O58 Zn50 1.906 . S
O58 C66 1.304 . S
O59 Zn47 1.924 . S
O59 C67 1.311 . S
O60 Zn51 1.977 . S
O60 C66 1.272 . S
O61 Zn51 1.910 . S
O61 C67 1.231 . S
C62 O46 1.225 . S
C62 O68 1.298 . S
C63 O52 1.226 . S
C63 O53 1.307 . S
C64 O56 1.303 . S
C64 O57 1.247 . S
C65 O54 1.253 . S
C65 O55 1.283 . S
C66 O58 1.304 . S
C66 O60 1.272 . S
C67 O59 1.311 . S
C67 O61 1.231 . S
O68 Zn50 1.953 . S
O68 C62 1.298 . S
O69 Zn70 1.953 . S
O69 C85 1.225 . S
Zn70 O69 1.953 . S
Zn70 O71 1.949 . S
Zn70 O77 1.919 . S
Zn70 O82 1.924 . S
O71 Zn70 1.949 . S
O71 Zn72 1.923 . S
O71 Zn73 1.950 . S
O71 Zn74 1.945 . S
Zn72 O71 1.923 . S
Zn72 O75 1.933 . S
Zn72 O78 1.941 . S
Zn72 O79 1.965 . S
Zn73 O71 1.950 . S
Zn73 O80 1.938 . S
Zn73 O81 1.906 . S
Zn73 O91 1.953 . S
Zn74 O71 1.945 . S
Zn74 O76 1.932 . S
Zn74 O83 1.977 . S
Zn74 O84 1.910 . S
O75 Zn72 1.933 . S
O75 C86 1.226 . S
O76 Zn74 1.932 . S
O76 C86 1.307 . S
O77 Zn70 1.919 . S
O77 C88 1.253 . S
O78 Zn72 1.941 . S
O78 C88 1.283 . S
O79 Zn72 1.965 . S
O79 C87 1.303 . S
O80 Zn73 1.938 . S
O80 C87 1.247 . S
O81 Zn73 1.906 . S
O81 C89 1.304 . S
O82 Zn70 1.924 . S
O82 C90 1.311 . S
O83 Zn74 1.977 . S
O83 C89 1.272 . S
O84 Zn74 1.910 . S
O84 C90 1.231 . S
C85 O69 1.225 . S
C85 O91 1.298 . S
C86 O75 1.226 . S
C86 O76 1.307 . S
C87 O79 1.303 . S
C87 O80 1.247 . S
C88 O77 1.253 . S
C88 O78 1.283 . S
C89 O81 1.304 . S
C89 O83 1.272 . S
C90 O82 1.311 . S
C90 O84 1.231 . S
O91 Zn73 1.953 . S
O91 C85 1.298 . S
O92 Zn93 1.953 . S
O92 C108 1.225 . S
Zn93 O92 1.953 . S
Zn93 O94 1.949 . S
Zn93 O100 1.919 . S
Zn93 O105 1.924 . S
O94 Zn93 1.949 . S
O94 Zn95 1.923 . S
O94 Zn96 1.950 . S
O94 Zn97 1.945 . S
Zn95 O94 1.923 . S
Zn95 O98 1.933 . S
Zn95 O101 1.941 . S
Zn95 O102 1.965 . S
Zn96 O94 1.950 . S
Zn96 O103 1.938 . S
Zn96 O104 1.906 . S
Zn96 O114 1.953 . S
Zn97 O94 1.945 . S
Zn97 O99 1.932 . S
Zn97 O106 1.977 . S
Zn97 O107 1.910 . S
O98 Zn95 1.933 . S
O98 C109 1.226 . S
O99 Zn97 1.932 . S
O99 C109 1.307 . S
O100 Zn93 1.919 . S
O100 C111 1.253 . S
O101 Zn95 1.941 . S
O101 C111 1.283 . S
O102 Zn95 1.965 . S
O102 C110 1.303 . S
O103 Zn96 1.938 . S
O103 C110 1.247 . S
O104 Zn96 1.906 . S
O104 C112 1.304 . S
O105 Zn93 1.924 . S
O105 C113 1.311 . S
O106 Zn97 1.977 . S
O106 C112 1.272 . S
O107 Zn97 1.910 . S
O107 C113 1.231 . S
C108 O92 1.225 . S
C108 O114 1.298 . S
C109 O98 1.226 . S
C109 O99 1.307 . S
C110 O102 1.303 . S
C110 O103 1.247 . S
C111 O100 1.253 . S
C111 O101 1.283 . S
C112 O104 1.304 . S
C112 O106 1.272 . S
C113 O105 1.311 . S
C113 O107 1.231 . S
O114 Zn96 1.953 . S
O114 C108 1.298 . S
O115 Zn116 1.953 . S
O115 C131 1.225 . S
Zn116 O115 1.953 . S
Zn116 O117 1.949 . S
Zn116 O123 1.919 . S
Zn116 O128 1.924 . S
O117 Zn116 1.949 . S
O117 Zn118 1.923 . S
O117 Zn119 1.950 . S
O117 Zn120 1.945 . S
Zn118 O117 1.923 . S
Zn118 O121 1.933 . S
Zn118 O124 1.941 . S
Zn118 O125 1.965 . S
Zn119 O117 1.950 . S
Zn119 O126 1.938 . S
Zn119 O127 1.906 . S
Zn119 O137 1.953 . S
Zn120 O117 1.945 . S
Zn120 O122 1.932 . S
Zn120 O129 1.977 . S
Zn120 O130 1.910 . S
O121 Zn118 1.933 . S
O121 C132 1.226 . S
O122 Zn120 1.932 . S
O122 C132 1.307 . S
O123 Zn116 1.919 . S
O123 C134 1.253 . S
O124 Zn118 1.941 . S
O124 C134 1.283 . S
O125 Zn118 1.965 . S
O125 C133 1.303 . S
O126 Zn119 1.938 . S
O126 C133 1.247 . S
O127 Zn119 1.906 . S
O127 C135 1.304 . S
O128 Zn116 1.924 . S
O128 C136 1.311 . S
O129 Zn120 1.977 . S
O129 C135 1.272 . S
O130 Zn120 1.910 . S
O130 C136 1.231 . S
C131 O115 1.225 . S
C131 O137 1.298 . S
C132 O121 1.226 . S
C132 O122 1.307 . S
C133 O125 1.303 . S
C133 O126 1.247 . S
C134 O123 1.253 . S
C134 O124 1.283 . S
C135 O127 1.304 . S
C135 O129 1.272 . S
C136 O128 1.311 . S
C136 O130 1.231 . S
O137 Zn119 1.953 . S
O137 C131 1.298 . S
O138 Zn139 1.953 . S
O138 C154 1.225 . S
Zn139 O138 1.953 . S
Zn139 O140 1.949 . S
Zn139 O146 1.919 . S
Zn139 O151 1.924 . S
O140 Zn139 1.949 . S
O140 Zn141 1.923 . S
O140 Zn142 1.950 . S
O140 Zn143 1.945 . S
Zn141 O140 1.923 . S
Zn141 O144 1.933 . S
Zn141 O147 1.941 . S
Zn141 O148 1.965 . S
Zn142 O140 1.950 . S
Zn142 O149 1.938 . S
Zn142 O150 1.906 . S
Zn142 O160 1.953 . S
Zn143 O140 1.945 . S
Zn143 O145 1.932 . S
Zn143 O152 1.977 . S
Zn143 O153 1.910 . S
O144 Zn141 1.933 . S
O144 C155 1.226 . S
O145 Zn143 1.932 . S
O145 C155 1.307 . S
O146 Zn139 1.919 . S
O146 C157 1.253 . S
O147 Zn141 1.941 . S
O147 C157 1.283 . S
O148 Zn141 1.965 . S
O148 C156 1.303 . S
O149 Zn142 1.938 . S
O149 C156 1.247 . S
O150 Zn142 1.906 . S
O150 C158 1.304 . S
O151 Zn139 1.924 . S
O151 C159 1.311 . S
O152 Zn143 1.977 . S
O152 C158 1.272 . S
O153 Zn143 1.910 . S
O153 C159 1.231 . S
C154 O138 1.225 . S
C154 O160 1.298 . S
C155 O144 1.226 . S
C155 O145 1.307 . S
C156 O148 1.303 . S
C156 O149 1.247 . S
C157 O146 1.253 . S
C157 O147 1.283 . S
C158 O150 1.304 . S
C158 O152 1.272 . S
C159 O151 1.311 . S
C159 O153 1.231 . S
O160 Zn142 1.953 . S
O160 C154 1.298 . S
O161 Zn162 1.953 . S
O161 C177 1.225 . S
Zn162 O161 1.953 . S
Zn162 O163 1.949 . S
Zn162 O169 1.919 . S
Zn162 O174 1.924 . S
O163 Zn162 1.949 . S
O163 Zn164 1.923 . S
O163 Zn165 1.950 . S
O163 Zn166 1.945 . S
Zn164 O163 1.923 . S
Zn164 O167 1.933 . S
Zn164 O170 1.941 . S
Zn164 O171 1.965 . S
Zn165 O163 1.950 . S
Zn165 O172 1.938 . S
Zn165 O173 1.906 . S
Zn165 O183 1.953 . S
Zn166 O163 1.945 . S
Zn166 O168 1.932 . S
Zn166 O175 1.977 . S
Zn166 O176 1.910 . S
O167 Zn164 1.933 . S
O167 C178 1.226 . S
O168 Zn166 1.932 . S
O168 C178 1.307 . S
O169 Zn162 1.919 . S
O169 C180 1.253 . S
O170 Zn164 1.941 . S
O170 C180 1.283 . S
O171 Zn164 1.965 . S
O171 C179 1.303 . S
O172 Zn165 1.938 . S
O172 C179 1.247 . S
O173 Zn165 1.906 . S
O173 C181 1.304 . S
O174 Zn162 1.924 . S
O174 C182 1.311 . S
O175 Zn166 1.977 . S
O175 C181 1.272 . S
O176 Zn166 1.910 . S
O176 C182 1.231 . S
C177 O161 1.225 . S
C177 O183 1.298 . S
C178 O167 1.226 . S
C178 O168 1.307 . S
C179 O171 1.303 . S
C179 O172 1.247 . S
C180 O169 1.253 . S
C180 O170 1.283 . S
C181 O173 1.304 . S
C181 O175 1.272 . S
C182 O174 1.311 . S
C182 O176 1.231 . S
O183 Zn165 1.953 . S
O183 C177 1.298 . S
Cd184 N187 2.334 1_655 S
Cd184 N213 2.304 1_565 S
Cd184 O220 2.268 . S
Cd184 O223 2.273 1_665 S
Cd184 O224 2.417 . S
Cd184 O225 2.330 . S
Cd185 N200 2.304 1_455 S
Cd185 N204 2.334 1_545 S
Cd185 O221 2.273 1_445 S
Cd185 O222 2.268 . S
Cd185 O226 2.417 . S
Cd185 O227 2.330 . S
C186 N187 1.332 . S
C186 C190 1.381 . S
C186 H192 0.931 . S
N187 Cd184 2.334 1_455 S
N187 C186 1.332 . S
N187 C191 1.328 . S
C188 C189 1.396 . S
C188 C191 1.378 . S
C188 H230 0.931 . S
C189 C188 1.396 . S
C189 C190 1.382 . S
C190 C186 1.381 . S
C190 C189 1.382 . S
C190 H231 0.930 . S
C191 N187 1.328 . S
C191 C188 1.378 . S
C191 H193 0.930 . S
H192 C186 0.931 . S
H193 C191 0.930 . S
C194 O220 1.238 . S
C194 O221 1.253 . S
C195 C196 1.379 . S
C195 N200 1.337 . S
C195 H201 0.929 . S
C196 C195 1.379 . S
C196 C197 1.380 . S
C196 H232 0.929 . S
C197 C196 1.380 . S
C197 C198 1.399 . S
C198 C197 1.399 . S
C198 C199 1.376 . S
C198 H233 0.931 . S
C199 C198 1.376 . S
C199 N200 1.338 . S
C199 H202 0.930 1_655 S
N200 Cd185 2.304 1_655 S
N200 C195 1.337 . S
N200 C199 1.338 . S
H201 C195 0.929 . S
H202 C199 0.930 1_455 S
C203 N204 1.332 . S
C203 C207 1.381 . S
C203 H209 0.931 . S
N204 Cd185 2.334 1_565 S
N204 C203 1.332 . S
N204 C208 1.328 . S
C205 C206 1.396 . S
C205 C208 1.378 . S
C205 H234 0.931 . S
C206 C205 1.396 . S
C206 C207 1.382 . S
C207 C203 1.381 . S
C207 C206 1.382 . S
C207 H235 0.930 . S
C208 N204 1.328 . S
C208 C205 1.378 . S
C208 H210 0.930 1_565 S
H209 C203 0.931 . S
H210 C208 0.930 1_545 S
C211 O222 1.238 . S
C211 O223 1.253 . S
C212 O224 1.239 . S
C212 O225 1.230 . S
N213 Cd184 2.304 1_545 S
N213 C214 1.337 . S
N213 C218 1.338 . S
C214 N213 1.337 . S
C214 C215 1.379 . S
C214 H228 0.929 . S
C215 C214 1.379 . S
C215 C216 1.380 . S
C215 H236 0.929 . S
C216 C215 1.380 . S
C216 C217 1.399 . S
C217 C216 1.399 . S
C217 C218 1.376 . S
C217 H237 0.931 . S
C218 N213 1.338 . S
C218 C217 1.376 . S
C218 H229 0.930 . S
C219 O226 1.239 . S
C219 O227 1.230 . S
O220 Cd184 2.268 . S
O220 C194 1.238 . S
O221 Cd185 2.273 1_665 S
O221 C194 1.253 . S
O222 Cd185 2.268 . S
O222 C211 1.238 . S
O223 Cd184 2.273 1_445 S
O223 C211 1.253 . S
O224 Cd184 2.417 . S
O224 C212 1.239 . S
O225 Cd184 2.330 . S
O225 C212 1.230 . S
O226 Cd185 2.417 . S
O226 C219 1.239 . S
O227 Cd185 2.330 . S
O227 C219 1.230 . S
H228 C214 0.929 . S
H229 C218 0.930 . S
H230 C188 0.931 . S
H231 C190 0.930 . S
H232 C196 0.929 . S
H233 C198 0.931 . S
H234 C205 0.931 . S
H235 C207 0.930 . S
H236 C215 0.929 . S
H237 C217 0.931 . S
Cd238 N241 2.334 . S
Cd238 N267 2.304 1_565 S
Cd238 O274 2.268 1_554 S
Cd238 O277 2.273 1_565 S
Cd238 O278 2.417 . S
Cd238 O279 2.330 . S
Cd239 N254 2.304 . S
Cd239 N258 2.334 1_545 S
Cd239 O275 2.273 1_545 S
Cd239 O276 2.268 1_556 S
Cd239 O280 2.417 . S
Cd239 O281 2.330 . S
C240 N241 1.332 . S
C240 C244 1.381 . S
C240 H246 0.931 . S
N241 Cd238 2.334 . S
N241 C240 1.332 . S
N241 C245 1.328 . S
C242 C243 1.396 . S
C242 C245 1.378 . S
C242 H284 0.931 . S
C243 C242 1.396 . S
C243 C244 1.382 . S
C244 C240 1.381 . S
C244 C243 1.382 . S
C244 H285 0.930 . S
C245 N241 1.328 . S
C245 C242 1.378 . S
C245 H247 0.930 . S
H246 C240 0.931 . S
H247 C245 0.930 . S
C248 O274 1.238 . S
C248 O275 1.253 . S
C249 C250 1.379 . S
C249 N254 1.337 . S
C249 H255 0.929 . S
C250 C249 1.379 . S
C250 C251 1.380 . S
C250 H286 0.929 . S
C251 C250 1.380 . S
C251 C252 1.399 . S
C252 C251 1.399 . S
C252 C253 1.376 . S
C252 H287 0.931 1_556 S
C253 C252 1.376 . S
C253 N254 1.338 . S
C253 H256 0.930 1_556 S
N254 Cd239 2.304 . S
N254 C249 1.337 . S
N254 C253 1.338 . S
H255 C249 0.929 . S
H256 C253 0.930 1_554 S
C257 N258 1.332 . S
C257 C261 1.381 . S
C257 H263 0.931 . S
N258 Cd239 2.334 1_565 S
N258 C257 1.332 . S
N258 C262 1.328 . S
C259 C260 1.396 . S
C259 C262 1.378 . S
C259 H288 0.931 1_556 S
C260 C259 1.396 . S
C260 C261 1.382 . S
C261 C257 1.381 . S
C261 C260 1.382 . S
C261 H289 0.930 . S
C262 N258 1.328 . S
C262 C259 1.378 . S
C262 H264 0.930 1_566 S
H263 C257 0.931 . S
H264 C262 0.930 1_544 S
C265 O276 1.238 . S
C265 O277 1.253 . S
C266 O278 1.239 . S
C266 O279 1.230 . S
N267 Cd238 2.304 1_545 S
N267 C268 1.337 . S
N267 C272 1.338 . S
C268 N267 1.337 . S
C268 C269 1.379 . S
C268 H282 0.929 . S
C269 C268 1.379 . S
C269 C270 1.380 . S
C269 H290 0.929 . S
C270 C269 1.380 . S
C270 C271 1.399 . S
C271 C270 1.399 . S
C271 C272 1.376 . S
C271 H291 0.931 . S
C272 N267 1.338 . S
C272 C271 1.376 . S
C272 H283 0.928 1_545 S
C273 O280 1.239 . S
C273 O281 1.230 . S
O274 Cd238 2.268 1_556 S
O274 C248 1.238 . S
O275 Cd239 2.273 1_565 S
O275 C248 1.253 . S
O276 Cd239 2.268 1_554 S
O276 C265 1.238 . S
O277 Cd238 2.273 1_545 S
O277 C265 1.253 . S
O278 Cd238 2.417 . S
O278 C266 1.239 . S
O279 Cd238 2.330 . S
O279 C266 1.230 . S
O280 Cd239 2.417 . S
O280 C273 1.239 . S
O281 Cd239 2.330 . S
O281 C273 1.230 . S
H282 C268 0.929 . S
H283 C272 0.928 1_565 S
H284 C242 0.931 . S
H285 C244 0.930 . S
H286 C250 0.929 . S
H287 C252 0.931 1_554 S
H288 C259 0.931 1_554 S
H289 C261 0.930 . S
H290 C269 0.929 . S
H291 C271 0.931 . S
Cd292 N295 2.334 1_655 S
Cd292 N321 2.304 . S
Cd292 O328 2.268 1_554 S
Cd292 O331 2.273 1_655 S
Cd292 O332 2.417 . S
Cd292 O333 2.330 . S
Cd293 N308 2.304 1_455 S
Cd293 N312 2.334 . S
Cd293 O329 2.273 1_455 S
Cd293 O330 2.268 1_556 S
Cd293 O334 2.417 . S
Cd293 O335 2.330 . S
C294 N295 1.332 . S
C294 C298 1.381 . S
C294 H300 0.931 . S
N295 Cd292 2.334 1_455 S
N295 C294 1.332 . S
N295 C299 1.328 . S
C296 C297 1.396 . S
C296 C299 1.378 . S
C296 H338 0.931 1_554 S
C297 C296 1.396 . S
C297 C298 1.382 . S
C298 C294 1.381 . S
C298 C297 1.382 . S
C298 H339 0.930 . S
C299 N295 1.328 . S
C299 C296 1.378 . S
C299 H301 0.930 1_554 S
H300 C294 0.931 . S
H301 C299 0.930 1_556 S
C302 O328 1.238 . S
C302 O329 1.253 . S
C303 C304 1.379 . S
C303 N308 1.337 . S
C303 H309 0.929 . S
C304 C303 1.379 . S
C304 C305 1.380 . S
C304 H340 0.929 . S
C305 C304 1.380 . S
C305 C306 1.399 . S
C306 C305 1.399 . S
C306 C307 1.376 . S
C306 H341 0.931 1_556 S
C307 C306 1.376 . S
C307 N308 1.338 . S
C307 H310 0.930 1_656 S
N308 Cd293 2.304 1_655 S
N308 C303 1.337 . S
N308 C307 1.338 . S
H309 C303 0.929 . S
H310 C307 0.930 1_454 S
C311 N312 1.332 . S
C311 C315 1.381 . S
C311 H317 0.931 . S
N312 Cd293 2.334 . S
N312 C311 1.332 . S
N312 C316 1.328 . S
C313 C314 1.396 . S
C313 C316 1.378 . S
C313 H342 0.931 1_556 S
C314 C313 1.396 . S
C314 C315 1.382 . S
C315 C311 1.381 . S
C315 C314 1.382 . S
C315 H343 0.930 . S
C316 N312 1.328 . S
C316 C313 1.378 . S
C316 H318 0.930 1_556 S
H317 C311 0.931 . S
H318 C316 0.930 1_554 S
C319 O330 1.238 . S
C319 O331 1.253 . S
C320 O332 1.239 . S
C320 O333 1.230 . S
N321 Cd292 2.304 . S
N321 C322 1.337 . S
N321 C326 1.338 . S
C322 N321 1.337 . S
C322 C323 1.379 . S
C322 H336 0.929 . S
C323 C322 1.379 . S
C323 C324 1.380 . S
C323 H344 0.929 . S
C324 C323 1.380 . S
C324 C325 1.399 . S
C325 C324 1.399 . S
C325 C326 1.376 . S
C325 H345 0.931 1_554 S
C326 N321 1.338 . S
C326 C325 1.376 . S
C326 H337 0.930 1_554 S
C327 O334 1.239 . S
C327 O335 1.230 . S
O328 Cd292 2.268 1_556 S
O328 C302 1.238 . S
O329 Cd293 2.273 1_655 S
O329 C302 1.253 . S
O330 Cd293 2.268 1_554 S
O330 C319 1.238 . S
O331 Cd292 2.273 1_455 S
O331 C319 1.253 . S
O332 Cd292 2.417 . S
O332 C320 1.239 . S
O333 Cd292 2.330 . S
O333 C320 1.230 . S
O334 Cd293 2.417 . S
O334 C327 1.239 . S
O335 Cd293 2.330 . S
O335 C327 1.230 . S
H336 C322 0.929 . S
H337 C326 0.930 1_556 S
H338 C296 0.931 1_556 S
H339 C298 0.930 . S
H340 C304 0.929 . S
H341 C306 0.931 1_554 S
H342 C313 0.931 1_554 S
H343 C315 0.930 . S
H344 C323 0.929 . S
H345 C325 0.931 1_556 S
Cd346 N349 2.334 . S
Cd346 N375 2.304 . S
Cd346 O382 2.268 1_554 S
Cd346 O385 2.273 . S
Cd346 O386 2.417 . S
Cd346 O387 2.330 . S
Cd347 N362 2.304 . S
Cd347 N366 2.334 . S
Cd347 O383 2.273 . S
Cd347 O384 2.268 1_556 S
Cd347 O388 2.417 . S
Cd347 O389 2.330 . S
C348 N349 1.332 . S
C348 C352 1.381 . S
C348 H354 0.931 . S
N349 Cd346 2.334 . S
N349 C348 1.332 . S
N349 C353 1.328 . S
C350 C351 1.396 . S
C350 C353 1.378 . S
C350 H392 0.931 . S
C351 C350 1.396 . S
C351 C352 1.382 . S
C352 C348 1.381 . S
C352 C351 1.382 . S
C352 H393 0.930 . S
C353 N349 1.328 . S
C353 C350 1.378 . S
C353 H355 0.930 . S
H354 C348 0.931 . S
H355 C353 0.930 . S
C356 O382 1.238 . S
C356 O383 1.253 . S
C357 C358 1.379 . S
C357 N362 1.337 . S
C357 H363 0.929 . S
C358 C357 1.379 . S
C358 C359 1.380 . S
C358 H394 0.929 . S
C359 C358 1.380 . S
C359 C360 1.399 . S
C360 C359 1.399 . S
C360 C361 1.376 . S
C360 H395 0.931 1_556 S
C361 C360 1.376 . S
C361 N362 1.338 . S
C361 H364 0.930 1_556 S
N362 Cd347 2.304 . S
N362 C357 1.337 . S
N362 C361 1.338 . S
H363 C357 0.929 . S
H364 C361 0.930 1_554 S
C365 N366 1.332 . S
C365 C369 1.381 . S
C365 H371 0.931 . S
N366 Cd347 2.334 . S
N366 C365 1.332 . S
N366 C370 1.328 . S
C367 C368 1.396 . S
C367 C370 1.378 . S
C367 H396 0.931 1_556 S
C368 C367 1.396 . S
C368 C369 1.382 . S
C369 C365 1.381 . S
C369 C368 1.382 . S
C369 H397 0.930 . S
C370 N366 1.328 . S
C370 C367 1.378 . S
C370 H372 0.930 1_556 S
H371 C365 0.931 . S
H372 C370 0.930 1_554 S
C373 O384 1.238 . S
C373 O385 1.253 . S
C374 O386 1.239 . S
C374 O387 1.230 . S
N375 Cd346 2.304 . S
N375 C376 1.337 . S
N375 C380 1.338 . S
C376 N375 1.337 . S
C376 C377 1.379 . S
C376 H390 0.929 . S
C377 C376 1.379 . S
C377 C378 1.380 . S
C377 H398 0.929 . S
C378 C377 1.380 . S
C378 C379 1.399 . S
C379 C378 1.399 . S
C379 C380 1.376 . S
C379 H399 0.943 . S
C380 N375 1.338 . S
C380 C379 1.376 . S
C380 H391 0.930 . S
C381 O388 1.239 . S
C381 O389 1.230 . S
O382 Cd346 2.268 1_556 S
O382 C356 1.238 . S
O383 Cd347 2.273 . S
O383 C356 1.253 . S
O384 Cd347 2.268 1_554 S
O384 C373 1.238 . S
O385 Cd346 2.273 . S
O385 C373 1.253 . S
O386 Cd346 2.417 . S
O386 C374 1.239 . S
O387 Cd346 2.330 . S
O387 C374 1.230 . S
O388 Cd347 2.417 . S
O388 C381 1.239 . S
O389 Cd347 2.330 . S
O389 C381 1.230 . S
H390 C376 0.929 . S
H391 C380 0.930 . S
H392 C350 0.931 . S
H393 C352 0.930 . S
H394 C358 0.929 . S
H395 C360 0.931 1_554 S
H396 C367 0.931 1_554 S
H397 C369 0.930 . S
H398 C377 0.929 . S
H399 C379 0.943 . S
Cd400 N403 2.334 1_655 S
Cd400 N429 2.304 . S
Cd400 O436 2.268 . S
Cd400 O439 2.273 1_655 S
Cd400 O440 2.417 . S
Cd400 O441 2.330 . S
Cd401 N416 2.304 1_455 S
Cd401 N420 2.334 . S
Cd401 O437 2.273 1_455 S
Cd401 O438 2.268 . S
Cd401 O442 2.417 . S
Cd401 O443 2.330 . S
C402 N403 1.332 . S
C402 C406 1.381 . S
C402 H408 0.931 . S
N403 Cd400 2.334 1_455 S
N403 C402 1.332 . S
N403 C407 1.328 . S
C404 C405 1.396 . S
C404 C407 1.378 . S
C404 H446 0.931 . S
C405 C404 1.396 . S
C405 C406 1.382 . S
C406 C402 1.381 . S
C406 C405 1.382 . S
C406 H447 0.930 . S
C407 N403 1.328 . S
C407 C404 1.378 . S
C407 H409 0.930 . S
H408 C402 0.931 . S
H409 C407 0.930 . S
C410 O436 1.238 . S
C410 O437 1.253 . S
C411 C412 1.379 . S
C411 N416 1.337 . S
C411 H417 0.929 . S
C412 C411 1.379 . S
C412 C413 1.380 . S
C412 H448 0.929 . S
C413 C412 1.380 . S
C413 C414 1.399 . S
C414 C413 1.399 . S
C414 C415 1.376 . S
C414 H449 0.931 . S
C415 C414 1.376 . S
C415 N416 1.338 . S
C415 H418 0.930 1_655 S
N416 Cd401 2.304 1_655 S
N416 C411 1.337 . S
N416 C415 1.338 . S
H417 C411 0.929 . S
H418 C415 0.930 1_455 S
C419 N420 1.332 . S
C419 C423 1.381 . S
C419 H425 0.931 . S
N420 Cd401 2.334 . S
N420 C419 1.332 . S
N420 C424 1.328 . S
C421 C422 1.396 . S
C421 C424 1.378 . S
C421 H450 0.931 . S
C422 C421 1.396 . S
C422 C423 1.382 . S
C423 C419 1.381 . S
C423 C422 1.382 . S
C423 H451 0.930 . S
C424 N420 1.328 . S
C424 C421 1.378 . S
C424 H426 0.930 . S
H425 C419 0.931 . S
H426 C424 0.930 . S
C427 O438 1.238 . S
C427 O439 1.253 . S
C428 O440 1.239 . S
C428 O441 1.230 . S
N429 Cd400 2.304 . S
N429 C430 1.337 . S
N429 C434 1.338 . S
C430 N429 1.337 . S
C430 C431 1.379 . S
C430 H444 0.929 . S
C431 C430 1.379 . S
C431 C432 1.380 . S
C431 H452 0.929 . S
C432 C431 1.380 . S
C432 C433 1.399 . S
C433 C432 1.399 . S
C433 C434 1.376 . S
C433 H453 0.931 . S
C434 N429 1.338 . S
C434 C433 1.376 . S
C434 H445 0.930 . S
C435 O442 1.239 . S
C435 O443 1.230 . S
O436 Cd400 2.268 . S
O436 C410 1.238 . S
O437 Cd401 2.273 1_655 S
O437 C410 1.253 . S
O438 Cd401 2.268 . S
O438 C427 1.238 . S
O439 Cd400 2.273 1_455 S
O439 C427 1.253 . S
O440 Cd400 2.417 . S
O440 C428 1.239 . S
O441 Cd400 2.330 . S
O441 C428 1.230 . S
O442 Cd401 2.417 . S
O442 C435 1.239 . S
O443 Cd401 2.330 . S
O443 C435 1.230 . S
H444 C430 0.929 . S
H445 C434 0.930 . S
H446 C404 0.931 . S
H447 C406 0.930 . S
H448 C412 0.929 . S
H449 C414 0.931 . S
H450 C421 0.931 . S
H451 C423 0.930 . S
H452 C431 0.929 . S
H453 C433 0.931 . S
Cd454 N457 2.334 . S
Cd454 N483 2.304 1_565 S
Cd454 O490 2.268 . S
Cd454 O493 2.273 1_565 S
Cd454 O494 2.417 . S
Cd454 O495 2.330 . S
Cd455 N470 2.304 . S
Cd455 N474 2.334 1_545 S
Cd455 O491 2.273 1_545 S
Cd455 O492 2.268 . S
Cd455 O496 2.417 . S
Cd455 O497 2.330 . S
C456 N457 1.332 . S
C456 C460 1.381 . S
C456 H462 0.931 . S
N457 Cd454 2.334 . S
N457 C456 1.332 . S
N457 C461 1.328 . S
C458 C459 1.396 . S
C458 C461 1.378 . S
C458 H500 0.931 . S
C459 C458 1.396 . S
C459 C460 1.382 . S
C460 C456 1.381 . S
C460 C459 1.382 . S
C460 H501 0.930 . S
C461 N457 1.328 . S
C461 C458 1.378 . S
C461 H463 0.930 . S
H462 C456 0.931 . S
H463 C461 0.930 . S
C464 O490 1.238 . S
C464 O491 1.253 . S
C465 C466 1.379 . S
C465 N470 1.337 . S
C465 H471 0.929 . S
C466 C465 1.379 . S
C466 C467 1.380 . S
C466 H502 0.929 . S
C467 C466 1.380 . S
C467 C468 1.399 . S
C468 C467 1.399 . S
C468 C469 1.376 . S
C468 H503 0.931 . S
C469 C468 1.376 . S
C469 N470 1.338 . S
C469 H472 0.930 . S
N470 Cd455 2.304 . S
N470 C465 1.337 . S
N470 C469 1.338 . S
H471 C465 0.929 . S
H472 C469 0.930 . S
C473 N474 1.332 . S
C473 C477 1.381 . S
C473 H479 0.931 . S
N474 Cd455 2.334 1_565 S
N474 C473 1.332 . S
N474 C478 1.328 . S
C475 C476 1.396 . S
C475 C478 1.378 . S
C475 H504 0.931 . S
C476 C475 1.396 . S
C476 C477 1.382 . S
C477 C473 1.381 . S
C477 C476 1.382 . S
C477 H505 0.930 . S
C478 N474 1.328 . S
C478 C475 1.378 . S
C478 H480 0.930 1_565 S
H479 C473 0.931 . S
H480 C478 0.930 1_545 S
C481 O492 1.238 . S
C481 O493 1.253 . S
C482 O494 1.239 . S
C482 O495 1.230 . S
N483 Cd454 2.304 1_545 S
N483 C484 1.337 . S
N483 C488 1.338 . S
C484 N483 1.337 . S
C484 C485 1.379 . S
C484 H498 0.929 . S
C485 C484 1.379 . S
C485 C486 1.380 . S
C485 H506 0.929 . S
C486 C485 1.380 . S
C486 C487 1.399 . S
C487 C486 1.399 . S
C487 C488 1.376 . S
C487 H507 0.931 . S
C488 N483 1.338 . S
C488 C487 1.376 . S
C488 H499 0.930 . S
C489 O496 1.239 . S
C489 O497 1.230 . S
O490 Cd454 2.268 . S
O490 C464 1.238 . S
O491 Cd455 2.273 1_565 S
O491 C464 1.253 . S
O492 Cd455 2.268 . S
O492 C481 1.238 . S
O493 Cd454 2.273 1_545 S
O493 C481 1.253 . S
O494 Cd454 2.417 . S
O494 C482 1.239 . S
O495 Cd454 2.330 . S
O495 C482 1.230 . S
O496 Cd455 2.417 . S
O496 C489 1.239 . S
O497 Cd455 2.330 . S
O497 C489 1.230 . S
H498 C484 0.929 . S
H499 C488 0.930 . S
H500 C458 0.931 . S
H501 C460 0.930 . S
H502 C466 0.929 . S
H503 C468 0.931 . S
H504 C475 0.931 . S
H505 C477 0.930 . S
H506 C485 0.929 . S
H507 C487 0.931 . S
H508 C514 0.930 . S
H509 C517 0.930 . S
H510 C518 0.930 . S
H511 C519 0.930 . S
H512 C522 0.930 . S
H513 C523 0.930 . S
C514 H508 0.930 . S
C514 C515 1.355 . S
C514 C516 1.415 . S
C515 C514 1.355 . S
C515 C517 1.419 . S
C516 C514 1.415 . S
C516 C521 1.425 . S
C516 C523 1.409 . S
C517 H509 0.930 . S
C517 C515 1.419 . S
C517 C518 1.362 . S
C518 H510 0.930 . S
C518 C517 1.362 . S
C518 C521 1.409 . S
C519 H511 0.930 . S
C519 C520 1.355 . S
C519 C521 1.415 . S
C520 C519 1.355 . S
C520 C522 1.419 . S
C521 C516 1.425 . S
C521 C518 1.409 . S
C521 C519 1.415 . S
C522 H512 0.930 . S
C522 C520 1.419 . S
C522 C523 1.362 . S
C523 H513 0.930 . S
C523 C516 1.409 . S
C523 C522 1.362 . S
H524 C530 0.930 . S
H525 C533 0.930 . S
H526 C534 0.930 . S
H527 C535 0.930 . S
H528 C538 0.930 . S
H529 C539 0.930 . S
C530 H524 0.930 . S
C530 C531 1.355 . S
C530 C532 1.415 . S
C531 C530 1.355 . S
C531 C533 1.419 . S
C532 C530 1.415 . S
C532 C537 1.425 . S
C532 C539 1.409 . S
C533 H525 0.930 . S
C533 C531 1.419 . S
C533 C534 1.362 . S
C534 H526 0.930 . S
C534 C533 1.362 . S
C534 C537 1.409 . S
C535 H527 0.930 . S
C535 C536 1.355 . S
C535 C537 1.415 . S
C536 C535 1.355 . S
C536 C538 1.419 . S
C537 C532 1.425 . S
C537 C534 1.409 . S
C537 C535 1.415 . S
C538 H528 0.930 . S
C538 C536 1.419 . S
C538 C539 1.362 . S
C539 H529 0.930 . S
C539 C532 1.409 . S
C539 C538 1.362 . S
H540 C546 0.930 . S
H541 C549 0.930 . S
H542 C550 0.930 . S
H543 C551 0.930 . S
H544 C554 0.930 . S
H545 C555 0.930 . S
C546 H540 0.930 . S
C546 C547 1.355 . S
C546 C548 1.415 . S
C547 C546 1.355 . S
C547 C549 1.419 . S
C548 C546 1.415 . S
C548 C553 1.425 . S
C548 C555 1.409 . S
C549 H541 0.930 . S
C549 C547 1.419 . S
C549 C550 1.362 . S
C550 H542 0.930 . S
C550 C549 1.362 . S
C550 C553 1.409 . S
C551 H543 0.930 . S
C551 C552 1.355 . S
C551 C553 1.415 . S
C552 C551 1.355 . S
C552 C554 1.419 . S
C553 C548 1.425 . S
C553 C550 1.409 . S
C553 C551 1.415 . S
C554 H544 0.930 . S
C554 C552 1.419 . S
C554 C555 1.362 . S
C555 H545 0.930 . S
C555 C548 1.409 . S
C555 C554 1.362 . S
H556 C562 0.930 . S
H557 C565 0.930 . S
H558 C566 0.930 . S
H559 C567 0.930 . S
H560 C570 0.930 . S
H561 C571 0.930 . S
C562 H556 0.930 . S
C562 C563 1.355 . S
C562 C564 1.415 . S
C563 C562 1.355 . S
C563 C565 1.419 . S
C564 C562 1.415 . S
C564 C569 1.425 . S
C564 C571 1.409 . S
C565 H557 0.930 . S
C565 C563 1.419 . S
C565 C566 1.362 . S
C566 H558 0.930 . S
C566 C565 1.362 . S
C566 C569 1.409 . S
C567 H559 0.930 . S
C567 C568 1.355 . S
C567 C569 1.415 . S
C568 C567 1.355 . S
C568 C570 1.419 . S
C569 C564 1.425 . S
C569 C566 1.409 . S
C569 C567 1.415 . S
C570 H560 0.930 . S
C570 C568 1.419 . S
C570 C571 1.362 . S
C571 H561 0.930 . S
C571 C564 1.409 . S
C571 C570 1.362 . S
H572 C578 0.930 . S
H573 C581 0.930 . S
H574 C582 0.930 . S
H575 C583 0.930 . S
H576 C586 0.930 . S
H577 C587 0.930 . S
C578 H572 0.930 . S
C578 C579 1.355 . S
C578 C580 1.415 . S
C579 C578 1.355 . S
C579 C581 1.419 . S
C580 C578 1.415 . S
C580 C585 1.425 . S
C580 C587 1.409 . S
C581 H573 0.930 . S
C581 C579 1.419 . S
C581 C582 1.362 . S
C582 H574 0.930 . S
C582 C581 1.362 . S
C582 C585 1.409 . S
C583 H575 0.930 . S
C583 C584 1.355 . S
C583 C585 1.415 . S
C584 C583 1.355 . S
C584 C586 1.419 . S
C585 C580 1.425 . S
C585 C582 1.409 . S
C585 C583 1.415 . S
C586 H576 0.930 . S
C586 C584 1.419 . S
C586 C587 1.362 . S
C587 H577 0.930 . S
C587 C580 1.409 . S
C587 C586 1.362 . S
H588 C594 0.930 . S
H589 C597 0.930 . S
H590 C598 0.930 . S
H591 C599 0.930 . S
H592 C602 0.930 . S
H593 C603 0.930 . S
C594 H588 0.930 . S
C594 C595 1.355 . S
C594 C596 1.415 . S
C595 C594 1.355 . S
C595 C597 1.419 . S
C596 C594 1.415 . S
C596 C601 1.425 . S
C596 C603 1.409 . S
C597 H589 0.930 . S
C597 C595 1.419 . S
C597 C598 1.362 . S
C598 H590 0.930 . S
C598 C597 1.362 . S
C598 C601 1.409 . S
C599 H591 0.930 . S
C599 C600 1.355 . S
C599 C601 1.415 . S
C600 C599 1.355 . S
C600 C602 1.419 . S
C601 C596 1.425 . S
C601 C598 1.409 . S
C601 C599 1.415 . S
C602 H592 0.930 . S
C602 C600 1.419 . S
C602 C603 1.362 . S
C603 H593 0.930 . S
C603 C596 1.409 . S
C603 C602 1.362 . S
H604 C610 0.930 . S
H605 C613 0.930 . S
H606 C614 0.930 . S
H607 C615 0.930 . S
H608 C618 0.930 . S
H609 C619 0.930 . S
C610 H604 0.930 . S
C610 C611 1.355 . S
C610 C612 1.415 . S
C611 C610 1.355 . S
C611 C613 1.419 . S
C612 C610 1.415 . S
C612 C617 1.425 . S
C612 C619 1.409 . S
C613 H605 0.930 . S
C613 C611 1.419 . S
C613 C614 1.362 . S
C614 H606 0.930 . S
C614 C613 1.362 . S
C614 C617 1.409 . S
C615 H607 0.930 . S
C615 C616 1.355 . S
C615 C617 1.415 . S
C616 C615 1.355 . S
C616 C618 1.419 . S
C617 C612 1.425 . S
C617 C614 1.409 . S
C617 C615 1.415 . S
C618 H608 0.930 . S
C618 C616 1.419 . S
C618 C619 1.362 . S
C619 H609 0.930 . S
C619 C612 1.409 . S
C619 C618 1.362 . S
H620 C626 0.930 . S
H621 C629 0.930 . S
H622 C630 0.930 . S
H623 C631 0.930 . S
H624 C634 0.930 . S
H625 C635 0.930 . S
C626 H620 0.930 . S
C626 C627 1.355 . S
C626 C628 1.415 . S
C627 C626 1.355 . S
C627 C629 1.419 . S
C628 C626 1.415 . S
C628 C633 1.425 . S
C628 C635 1.409 . S
C629 H621 0.930 . S
C629 C627 1.419 . S
C629 C630 1.362 . S
C630 H622 0.930 . S
C630 C629 1.362 . S
C630 C633 1.409 . S
C631 H623 0.930 . S
C631 C632 1.355 . S
C631 C633 1.415 . S
C632 C631 1.355 . S
C632 C634 1.419 . S
C633 C628 1.425 . S
C633 C630 1.409 . S
C633 C631 1.415 . S
C634 H624 0.930 . S
C634 C632 1.419 . S
C634 C635 1.362 . S
C635 H625 0.930 . S
C635 C628 1.409 . S
C635 C634 1.362 . S
H636 C642 0.930 . S
H637 C645 0.930 . S
H638 C646 0.930 . S
H639 C647 0.930 . S
H640 C650 0.930 . S
H641 C651 0.930 . S
C642 H636 0.930 . S
C642 C643 1.355 . S
C642 C644 1.415 . S
C643 C642 1.355 . S
C643 C645 1.419 . S
C644 C642 1.415 . S
C644 C649 1.425 . S
C644 C651 1.409 . S
C645 H637 0.930 . S
C645 C643 1.419 . S
C645 C646 1.362 . S
C646 H638 0.930 . S
C646 C645 1.362 . S
C646 C649 1.409 . S
C647 H639 0.930 . S
C647 C648 1.355 . S
C647 C649 1.415 . S
C648 C647 1.355 . S
C648 C650 1.419 . S
C649 C644 1.425 . S
C649 C646 1.409 . S
C649 C647 1.415 . S
C650 H640 0.930 . S
C650 C648 1.419 . S
C650 C651 1.362 . S
C651 H641 0.930 . S
C651 C644 1.409 . S
C651 C650 1.362 . S
H652 C658 0.930 . S
H653 C661 0.930 . S
H654 C662 0.930 . S
H655 C663 0.930 . S
H656 C666 0.930 . S
H657 C667 0.930 . S
C658 H652 0.930 . S
C658 C659 1.355 . S
C658 C660 1.415 . S
C659 C658 1.355 . S
C659 C661 1.419 . S
C660 C658 1.415 . S
C660 C665 1.425 . S
C660 C667 1.409 . S
C661 H653 0.930 . S
C661 C659 1.419 . S
C661 C662 1.362 . S
C662 H654 0.930 . S
C662 C661 1.362 . S
C662 C665 1.409 . S
C663 H655 0.930 . S
C663 C664 1.355 . S
C663 C665 1.415 . S
C664 C663 1.355 . S
C664 C666 1.419 . S
C665 C660 1.425 . S
C665 C662 1.409 . S
C665 C663 1.415 . S
C666 H656 0.930 . S
C666 C664 1.419 . S
C666 C667 1.362 . S
C667 H657 0.930 . S
C667 C660 1.409 . S
C667 C666 1.362 . S
H668 C674 0.930 . S
H669 C677 0.930 . S
H670 C678 0.930 . S
H671 C679 0.930 . S
H672 C682 0.930 . S
H673 C683 0.930 . S
C674 H668 0.930 . S
C674 C675 1.355 . S
C674 C676 1.415 . S
C675 C674 1.355 . S
C675 C677 1.419 . S
C676 C674 1.415 . S
C676 C681 1.425 . S
C676 C683 1.409 . S
C677 H669 0.930 . S
C677 C675 1.419 . S
C677 C678 1.362 . S
C678 H670 0.930 . S
C678 C677 1.362 . S
C678 C681 1.409 . S
C679 H671 0.930 . S
C679 C680 1.355 . S
C679 C681 1.415 . S
C680 C679 1.355 . S
C680 C682 1.419 . S
C681 C676 1.425 . S
C681 C678 1.409 . S
C681 C679 1.415 . S
C682 H672 0.930 . S
C682 C680 1.419 . S
C682 C683 1.362 . S
C683 H673 0.930 . S
C683 C676 1.409 . S
C683 C682 1.362 . S
H684 C690 0.930 . S
H685 C693 0.930 . S
H686 C694 0.930 . S
H687 C695 0.930 . S
H688 C698 0.930 . S
H689 C699 0.930 . S
C690 H684 0.930 . S
C690 C691 1.355 . S
C690 C692 1.415 . S
C691 C690 1.355 . S
C691 C693 1.419 . S
C692 C690 1.415 . S
C692 C697 1.425 . S
C692 C699 1.409 . S
C693 H685 0.930 . S
C693 C691 1.419 . S
C693 C694 1.362 . S
C694 H686 0.930 . S
C694 C693 1.362 . S
C694 C697 1.409 . S
C695 H687 0.930 . S
C695 C696 1.355 . S
C695 C697 1.415 . S
C696 C695 1.355 . S
C696 C698 1.419 . S
C697 C692 1.425 . S
C697 C694 1.409 . S
C697 C695 1.415 . S
C698 H688 0.930 . S
C698 C696 1.419 . S
C698 C699 1.362 . S
C699 H689 0.930 . S
C699 C692 1.409 . S
C699 C698 1.362 . S
H700 C706 0.930 . S
H701 C709 0.930 . S
H702 C710 0.930 . S
H703 C711 0.930 . S
H704 C714 0.930 . S
H705 C715 0.930 . S
C706 H700 0.930 . S
C706 C707 1.355 . S
C706 C708 1.415 . S
C707 C706 1.355 . S
C707 C709 1.419 . S
C708 C706 1.415 . S
C708 C713 1.425 . S
C708 C715 1.409 . S
C709 H701 0.930 . S
C709 C707 1.419 . S
C709 C710 1.362 . S
C710 H702 0.930 . S
C710 C709 1.362 . S
C710 C713 1.409 . S
C711 H703 0.930 . S
C711 C712 1.355 . S
C711 C713 1.415 . S
C712 C711 1.355 . S
C712 C714 1.419 . S
C713 C708 1.425 . S
C713 C710 1.409 . S
C713 C711 1.415 . S
C714 H704 0.930 . S
C714 C712 1.419 . S
C714 C715 1.362 . S
C715 H705 0.930 . S
C715 C708 1.409 . S
C715 C714 1.362 . S
H716 C722 0.930 . S
H717 C725 0.930 . S
H718 C726 0.930 . S
H719 C727 0.930 . S
H720 C730 0.930 . S
H721 C731 0.930 . S
C722 H716 0.930 . S
C722 C723 1.355 . S
C722 C724 1.415 . S
C723 C722 1.355 . S
C723 C725 1.419 . S
C724 C722 1.415 . S
C724 C729 1.425 . S
C724 C731 1.409 . S
C725 H717 0.930 . S
C725 C723 1.419 . S
C725 C726 1.362 . S
C726 H718 0.930 . S
C726 C725 1.362 . S
C726 C729 1.409 . S
C727 H719 0.930 . S
C727 C728 1.355 . S
C727 C729 1.415 . S
C728 C727 1.355 . S
C728 C730 1.419 . S
C729 C724 1.425 . S
C729 C726 1.409 . S
C729 C727 1.415 . S
C730 H720 0.930 . S
C730 C728 1.419 . S
C730 C731 1.362 . S
C731 H721 0.930 . S
C731 C724 1.409 . S
C731 C730 1.362 . S
H732 C738 0.930 . S
H733 C741 0.930 . S
H734 C742 0.930 . S
H735 C743 0.930 . S
H736 C746 0.930 . S
H737 C747 0.930 . S
C738 H732 0.930 . S
C738 C739 1.355 . S
C738 C740 1.415 . S
C739 C738 1.355 . S
C739 C741 1.419 . S
C740 C738 1.415 . S
C740 C745 1.425 . S
C740 C747 1.409 . S
C741 H733 0.930 . S
C741 C739 1.419 . S
C741 C742 1.362 . S
C742 H734 0.930 . S
C742 C741 1.362 . S
C742 C745 1.409 . S
C743 H735 0.930 . S
C743 C744 1.355 . S
C743 C745 1.415 . S
C744 C743 1.355 . S
C744 C746 1.419 . S
C745 C740 1.425 . S
C745 C742 1.409 . S
C745 C743 1.415 . S
C746 H736 0.930 . S
C746 C744 1.419 . S
C746 C747 1.362 . S
C747 H737 0.930 . S
C747 C740 1.409 . S
C747 C746 1.362 . S
H748 C754 0.930 . S
H749 C757 0.930 . S
H750 C758 0.930 . S
H751 C759 0.930 . S
H752 C762 0.930 . S
H753 C763 0.930 . S
C754 H748 0.930 . S
C754 C755 1.355 . S
C754 C756 1.415 . S
C755 C754 1.355 . S
C755 C757 1.419 . S
C756 C754 1.415 . S
C756 C761 1.425 . S
C756 C763 1.409 . S
C757 H749 0.930 . S
C757 C755 1.419 . S
C757 C758 1.362 . S
C758 H750 0.930 . S
C758 C757 1.362 . S
C758 C761 1.409 . S
C759 H751 0.930 . S
C759 C760 1.355 . S
C759 C761 1.415 . S
C760 C759 1.355 . S
C760 C762 1.419 . S
C761 C756 1.425 . S
C761 C758 1.409 . S
C761 C759 1.415 . S
C762 H752 0.930 . S
C762 C760 1.419 . S
C762 C763 1.362 . S
C763 H753 0.930 . S
C763 C756 1.409 . S
C763 C762 1.362 . S
H764 C770 0.930 . S
H765 C773 0.930 . S
H766 C774 0.930 . S
H767 C775 0.930 . S
H768 C778 0.930 . S
H769 C779 0.930 . S
C770 H764 0.930 . S
C770 C771 1.355 . S
C770 C772 1.415 . S
C771 C770 1.355 . S
C771 C773 1.419 . S
C772 C770 1.415 . S
C772 C777 1.425 . S
C772 C779 1.409 . S
C773 H765 0.930 . S
C773 C771 1.419 . S
C773 C774 1.362 . S
C774 H766 0.930 . S
C774 C773 1.362 . S
C774 C777 1.409 . S
C775 H767 0.930 . S
C775 C776 1.355 . S
C775 C777 1.415 . S
C776 C775 1.355 . S
C776 C778 1.419 . S
C777 C772 1.425 . S
C777 C774 1.409 . S
C777 C775 1.415 . S
C778 H768 0.930 . S
C778 C776 1.419 . S
C778 C779 1.362 . S
C779 H769 0.930 . S
C779 C772 1.409 . S
C779 C778 1.362 . S
H780 C786 0.930 . S
H781 C789 0.930 . S
H782 C790 0.930 . S
H783 C791 0.930 . S
H784 C794 0.930 . S
H785 C795 0.930 . S
C786 H780 0.930 . S
C786 C787 1.355 . S
C786 C788 1.415 . S
C787 C786 1.355 . S
C787 C789 1.419 . S
C788 C786 1.415 . S
C788 C793 1.425 . S
C788 C795 1.409 . S
C789 H781 0.930 . S
C789 C787 1.419 . S
C789 C790 1.362 . S
C790 H782 0.930 . S
C790 C789 1.362 . S
C790 C793 1.409 . S
C791 H783 0.930 . S
C791 C792 1.355 . S
C791 C793 1.415 . S
C792 C791 1.355 . S
C792 C794 1.419 . S
C793 C788 1.425 . S
C793 C790 1.409 . S
C793 C791 1.415 . S
C794 H784 0.930 . S
C794 C792 1.419 . S
C794 C795 1.362 . S
C795 H785 0.930 . S
C795 C788 1.409 . S
C795 C794 1.362 . S
H796 C802 0.930 . S
H797 C805 0.930 . S
H798 C806 0.930 . S
H799 C807 0.930 . S
H800 C810 0.930 . S
H801 C811 0.930 . S
C802 H796 0.930 . S
C802 C803 1.355 . S
C802 C804 1.415 . S
C803 C802 1.355 . S
C803 C805 1.419 . S
C804 C802 1.415 . S
C804 C809 1.425 . S
C804 C811 1.409 . S
C805 H797 0.930 . S
C805 C803 1.419 . S
C805 C806 1.362 . S
C806 H798 0.930 . S
C806 C805 1.362 . S
C806 C809 1.409 . S
C807 H799 0.930 . S
C807 C808 1.355 . S
C807 C809 1.415 . S
C808 C807 1.355 . S
C808 C810 1.419 . S
C809 C804 1.425 . S
C809 C806 1.409 . S
C809 C807 1.415 . S
C810 H800 0.930 . S
C810 C808 1.419 . S
C810 C811 1.362 . S
C811 H801 0.930 . S
C811 C804 1.409 . S
C811 C810 1.362 . S
H812 C818 0.930 . S
H813 C821 0.930 . S
H814 C822 0.930 . S
H815 C823 0.930 . S
H816 C826 0.930 . S
H817 C827 0.930 . S
C818 H812 0.930 . S
C818 C819 1.355 . S
C818 C820 1.415 . S
C819 C818 1.355 . S
C819 C821 1.419 . S
C820 C818 1.415 . S
C820 C825 1.425 . S
C820 C827 1.409 . S
C821 H813 0.930 . S
C821 C819 1.419 . S
C821 C822 1.362 . S
C822 H814 0.930 . S
C822 C821 1.362 . S
C822 C825 1.409 . S
C823 H815 0.930 . S
C823 C824 1.355 . S
C823 C825 1.415 . S
C824 C823 1.355 . S
C824 C826 1.419 . S
C825 C820 1.425 . S
C825 C822 1.409 . S
C825 C823 1.415 . S
C826 H816 0.930 . S
C826 C824 1.419 . S
C826 C827 1.362 . S
C827 H817 0.930 . S
C827 C820 1.409 . S
C827 C826 1.362 . S
H828 C834 0.930 . S
H829 C837 0.930 . S
H830 C838 0.930 . S
H831 C839 0.930 . S
H832 C842 0.930 . S
H833 C843 0.930 . S
C834 H828 0.930 . S
C834 C835 1.355 . S
C834 C836 1.415 . S
C835 C834 1.355 . S
C835 C837 1.419 . S
C836 C834 1.415 . S
C836 C841 1.425 . S
C836 C843 1.409 . S
C837 H829 0.930 . S
C837 C835 1.419 . S
C837 C838 1.362 . S
C838 H830 0.930 . S
C838 C837 1.362 . S
C838 C841 1.409 . S
C839 H831 0.930 . S
C839 C840 1.355 . S
C839 C841 1.415 . S
C840 C839 1.355 . S
C840 C842 1.419 . S
C841 C836 1.425 . S
C841 C838 1.409 . S
C841 C839 1.415 . S
C842 H832 0.930 . S
C842 C840 1.419 . S
C842 C843 1.362 . S
C843 H833 0.930 . S
C843 C836 1.409 . S
C843 C842 1.362 . S
H844 C850 0.930 . S
H845 C853 0.930 . S
H846 C854 0.930 . S
H847 C855 0.930 . S
H848 C858 0.930 . S
H849 C859 0.930 . S
C850 H844 0.930 . S
C850 C851 1.355 . S
C850 C852 1.415 . S
C851 C850 1.355 . S
C851 C853 1.419 . S
C852 C850 1.415 . S
C852 C857 1.425 . S
C852 C859 1.409 . S
C853 H845 0.930 . S
C853 C851 1.419 . S
C853 C854 1.362 . S
C854 H846 0.930 . S
C854 C853 1.362 . S
C854 C857 1.409 . S
C855 H847 0.930 . S
C855 C856 1.355 . S
C855 C857 1.415 . S
C856 C855 1.355 . S
C856 C858 1.419 . S
C857 C852 1.425 . S
C857 C854 1.409 . S
C857 C855 1.415 . S
C858 H848 0.930 . S
C858 C856 1.419 . S
C858 C859 1.362 . S
C859 H849 0.930 . S
C859 C852 1.409 . S
C859 C858 1.362 . S
H860 C866 0.930 . S
H861 C869 0.930 . S
H862 C870 0.930 . S
H863 C871 0.930 . S
H864 C874 0.930 . S
H865 C875 0.930 . S
C866 H860 0.930 . S
C866 C867 1.355 . S
C866 C868 1.415 . S
C867 C866 1.355 . S
C867 C869 1.419 . S
C868 C866 1.415 . S
C868 C873 1.425 . S
C868 C875 1.409 . S
C869 H861 0.930 . S
C869 C867 1.419 . S
C869 C870 1.362 . S
C870 H862 0.930 . S
C870 C869 1.362 . S
C870 C873 1.409 . S
C871 H863 0.930 . S
C871 C872 1.355 . S
C871 C873 1.415 . S
C872 C871 1.355 . S
C872 C874 1.419 . S
C873 C868 1.425 . S
C873 C870 1.409 . S
C873 C871 1.415 . S
C874 H864 0.930 . S
C874 C872 1.419 . S
C874 C875 1.362 . S
C875 H865 0.930 . S
C875 C868 1.409 . S
C875 C874 1.362 . S
H876 C882 0.930 . S
H877 C885 0.930 . S
H878 C886 0.930 . S
H879 C887 0.930 . S
H880 C890 0.930 . S
H881 C891 0.930 . S
C882 H876 0.930 . S
C882 C883 1.355 . S
C882 C884 1.415 . S
C883 C882 1.355 . S
C883 C885 1.419 . S
C884 C882 1.415 . S
C884 C889 1.425 . S
C884 C891 1.409 . S
C885 H877 0.930 . S
C885 C883 1.419 . S
C885 C886 1.362 . S
C886 H878 0.930 . S
C886 C885 1.362 . S
C886 C889 1.409 . S
C887 H879 0.930 . S
C887 C888 1.355 . S
C887 C889 1.415 . S
C888 C887 1.355 . S
C888 C890 1.419 . S
C889 C884 1.425 . S
C889 C886 1.409 . S
C889 C887 1.415 . S
C890 H880 0.930 . S
C890 C888 1.419 . S
C890 C891 1.362 . S
C891 H881 0.930 . S
C891 C884 1.409 . S
C891 C890 1.362 . S
H892 C898 0.930 . S
H893 C901 0.930 . S
H894 C902 0.930 . S
H895 C903 0.930 . S
H896 C906 0.930 . S
H897 C907 0.930 . S
C898 H892 0.930 . S
C898 C899 1.355 . S
C898 C900 1.415 . S
C899 C898 1.355 . S
C899 C901 1.419 . S
C900 C898 1.415 . S
C900 C905 1.425 . S
C900 C907 1.409 . S
C901 H893 0.930 . S
C901 C899 1.419 . S
C901 C902 1.362 . S
C902 H894 0.930 . S
C902 C901 1.362 . S
C902 C905 1.409 . S
C903 H895 0.930 . S
C903 C904 1.355 . S
C903 C905 1.415 . S
C904 C903 1.355 . S
C904 C906 1.419 . S
C905 C900 1.425 . S
C905 C902 1.409 . S
C905 C903 1.415 . S
C906 H896 0.930 . S
C906 C904 1.419 . S
C906 C907 1.362 . S
C907 H897 0.930 . S
C907 C900 1.409 . S
C907 C906 1.362 . S
H908 C914 0.930 . S
H909 C917 0.930 . S
H910 C918 0.930 . S
H911 C919 0.930 . S
H912 C922 0.930 . S
H913 C923 0.930 . S
C914 H908 0.930 . S
C914 C915 1.355 . S
C914 C916 1.415 . S
C915 C914 1.355 . S
C915 C917 1.419 . S
C916 C914 1.415 . S
C916 C921 1.425 . S
C916 C923 1.409 . S
C917 H909 0.930 . S
C917 C915 1.419 . S
C917 C918 1.362 . S
C918 H910 0.930 . S
C918 C917 1.362 . S
C918 C921 1.409 . S
C919 H911 0.930 . S
C919 C920 1.355 . S
C919 C921 1.415 . S
C920 C919 1.355 . S
C920 C922 1.419 . S
C921 C916 1.425 . S
C921 C918 1.409 . S
C921 C919 1.415 . S
C922 H912 0.930 . S
C922 C920 1.419 . S
C922 C923 1.362 . S
C923 H913 0.930 . S
C923 C916 1.409 . S
C923 C922 1.362 . S
H924 C930 0.930 . S
H925 C933 0.930 . S
H926 C934 0.930 . S
H927 C935 0.930 . S
H928 C938 0.930 . S
H929 C939 0.930 . S
C930 H924 0.930 . S
C930 C931 1.355 . S
C930 C932 1.415 . S
C931 C930 1.355 . S
C931 C933 1.419 . S
C932 C930 1.415 . S
C932 C937 1.425 . S
C932 C939 1.409 . S
C933 H925 0.930 . S
C933 C931 1.419 . S
C933 C934 1.362 . S
C934 H926 0.930 . S
C934 C933 1.362 . S
C934 C937 1.409 . S
C935 H927 0.930 . S
C935 C936 1.355 . S
C935 C937 1.415 . S
C936 C935 1.355 . S
C936 C938 1.419 . S
C937 C932 1.425 . S
C937 C934 1.409 . S
C937 C935 1.415 . S
C938 H928 0.930 . S
C938 C936 1.419 . S
C938 C939 1.362 . S
C939 H929 0.930 . S
C939 C932 1.409 . S
C939 C938 1.362 . S
H940 C946 0.930 . S
H941 C949 0.930 . S
H942 C950 0.930 . S
H943 C951 0.930 . S
H944 C954 0.930 . S
H945 C955 0.930 . S
C946 H940 0.930 . S
C946 C947 1.355 . S
C946 C948 1.415 . S
C947 C946 1.355 . S
C947 C949 1.419 . S
C948 C946 1.415 . S
C948 C953 1.425 . S
C948 C955 1.409 . S
C949 H941 0.930 . S
C949 C947 1.419 . S
C949 C950 1.362 . S
C950 H942 0.930 . S
C950 C949 1.362 . S
C950 C953 1.409 . S
C951 H943 0.930 . S
C951 C952 1.355 . S
C951 C953 1.415 . S
C952 C951 1.355 . S
C952 C954 1.419 . S
C953 C948 1.425 . S
C953 C950 1.409 . S
C953 C951 1.415 . S
C954 H944 0.930 . S
C954 C952 1.419 . S
C954 C955 1.362 . S
C955 H945 0.930 . S
C955 C948 1.409 . S
C955 C954 1.362 . S
H956 C962 0.930 . S
H957 C965 0.930 . S
H958 C966 0.930 . S
H959 C967 0.930 . S
H960 C970 0.930 . S
H961 C971 0.930 . S
C962 H956 0.930 . S
C962 C963 1.355 . S
C962 C964 1.415 . S
C963 C962 1.355 . S
C963 C965 1.419 . S
C964 C962 1.415 . S
C964 C969 1.425 . S
C964 C971 1.409 . S
C965 H957 0.930 . S
C965 C963 1.419 . S
C965 C966 1.362 . S
C966 H958 0.930 . S
C966 C965 1.362 . S
C966 C969 1.409 . S
C967 H959 0.930 . S
C967 C968 1.355 . S
C967 C969 1.415 . S
C968 C967 1.355 . S
C968 C970 1.419 . S
C969 C964 1.425 . S
C969 C966 1.409 . S
C969 C967 1.415 . S
C970 H960 0.930 . S
C970 C968 1.419 . S
C970 C971 1.362 . S
C971 H961 0.930 . S
C971 C964 1.409 . S
C971 C970 1.362 . S
H972 C978 0.930 . S
H973 C981 0.930 . S
H974 C982 0.930 . S
H975 C983 0.930 . S
H976 C986 0.930 . S
H977 C987 0.930 . S
C978 H972 0.930 . S
C978 C979 1.355 . S
C978 C980 1.415 . S
C979 C978 1.355 . S
C979 C981 1.419 . S
C980 C978 1.415 . S
C980 C985 1.425 . S
C980 C987 1.409 . S
C981 H973 0.930 . S
C981 C979 1.419 . S
C981 C982 1.362 . S
C982 H974 0.930 . S
C982 C981 1.362 . S
C982 C985 1.409 . S
C983 H975 0.930 . S
C983 C984 1.355 . S
C983 C985 1.415 . S
C984 C983 1.355 . S
C984 C986 1.419 . S
C985 C980 1.425 . S
C985 C982 1.409 . S
C985 C983 1.415 . S
C986 H976 0.930 . S
C986 C984 1.419 . S
C986 C987 1.362 . S
C987 H977 0.930 . S
C987 C980 1.409 . S
C987 C986 1.362 . S
H988 C994 0.930 . S
H989 C997 0.930 . S
H990 C998 0.930 . S
H991 C999 0.930 . S
H992 C1002 0.930 . S
H993 C1003 0.930 . S
C994 H988 0.930 . S
C994 C995 1.355 . S
C994 C996 1.415 . S
C995 C994 1.355 . S
C995 C997 1.419 . S
C996 C994 1.415 . S
C996 C1001 1.425 . S
C996 C1003 1.409 . S
C997 H989 0.930 . S
C997 C995 1.419 . S
C997 C998 1.362 . S
C998 H990 0.930 . S
C998 C997 1.362 . S
C998 C1001 1.409 . S
C999 H991 0.930 . S
C999 C1000 1.355 . S
C999 C1001 1.415 . S
C1000 C999 1.355 . S
C1000 C1002 1.419 . S
C1001 C996 1.425 . S
C1001 C998 1.409 . S
C1001 C999 1.415 . S
C1002 H992 0.930 . S
C1002 C1000 1.419 . S
C1002 C1003 1.362 . S
C1003 H993 0.930 . S
C1003 C996 1.409 . S
C1003 C1002 1.362 . S
H1004 C1010 0.930 . S
H1005 C1013 0.930 . S
H1006 C1014 0.930 . S
H1007 C1015 0.930 . S
H1008 C1018 0.930 . S
H1009 C1019 0.930 . S
C1010 H1004 0.930 . S
C1010 C1011 1.355 . S
C1010 C1012 1.415 . S
C1011 C1010 1.355 . S
C1011 C1013 1.419 . S
C1012 C1010 1.415 . S
C1012 C1017 1.425 . S
C1012 C1019 1.409 . S
C1013 H1005 0.930 . S
C1013 C1011 1.419 . S
C1013 C1014 1.362 . S
C1014 H1006 0.930 . S
C1014 C1013 1.362 . S
C1014 C1017 1.409 . S
C1015 H1007 0.930 . S
C1015 C1016 1.355 . S
C1015 C1017 1.415 . S
C1016 C1015 1.355 . S
C1016 C1018 1.419 . S
C1017 C1012 1.425 . S
C1017 C1014 1.409 . S
C1017 C1015 1.415 . S
C1018 H1008 0.930 . S
C1018 C1016 1.419 . S
C1018 C1019 1.362 . S
C1019 H1009 0.930 . S
C1019 C1012 1.409 . S
C1019 C1018 1.362 . S
H1020 C1026 0.930 . S
H1021 C1029 0.930 . S
H1022 C1030 0.930 . S
H1023 C1031 0.930 . S
H1024 C1034 0.930 . S
H1025 C1035 0.930 . S
C1026 H1020 0.930 . S
C1026 C1027 1.355 . S
C1026 C1028 1.415 . S
C1027 C1026 1.355 . S
C1027 C1029 1.419 . S
C1028 C1026 1.415 . S
C1028 C1033 1.425 . S
C1028 C1035 1.409 . S
C1029 H1021 0.930 . S
C1029 C1027 1.419 . S
C1029 C1030 1.362 . S
C1030 H1022 0.930 . S
C1030 C1029 1.362 . S
C1030 C1033 1.409 . S
C1031 H1023 0.930 . S
C1031 C1032 1.355 . S
C1031 C1033 1.415 . S
C1032 C1031 1.355 . S
C1032 C1034 1.419 . S
C1033 C1028 1.425 . S
C1033 C1030 1.409 . S
C1033 C1031 1.415 . S
C1034 H1024 0.930 . S
C1034 C1032 1.419 . S
C1034 C1035 1.362 . S
C1035 H1025 0.930 . S
C1035 C1028 1.409 . S
C1035 C1034 1.362 . S
H1036 C1042 0.930 . S
H1037 C1045 0.930 . S
H1038 C1046 0.930 . S
H1039 C1047 0.930 . S
H1040 C1050 0.930 . S
H1041 C1051 0.930 . S
C1042 H1036 0.930 . S
C1042 C1043 1.355 . S
C1042 C1044 1.415 . S
C1043 C1042 1.355 . S
C1043 C1045 1.419 . S
C1044 C1042 1.415 . S
C1044 C1049 1.425 . S
C1044 C1051 1.409 . S
C1045 H1037 0.930 . S
C1045 C1043 1.419 . S
C1045 C1046 1.362 . S
C1046 H1038 0.930 . S
C1046 C1045 1.362 . S
C1046 C1049 1.409 . S
C1047 H1039 0.930 . S
C1047 C1048 1.355 . S
C1047 C1049 1.415 . S
C1048 C1047 1.355 . S
C1048 C1050 1.419 . S
C1049 C1044 1.425 . S
C1049 C1046 1.409 . S
C1049 C1047 1.415 . S
C1050 H1040 0.930 . S
C1050 C1048 1.419 . S
C1050 C1051 1.362 . S
C1051 H1041 0.930 . S
C1051 C1044 1.409 . S
C1051 C1050 1.362 . S
H1052 C1058 0.930 . S
H1053 C1061 0.930 . S
H1054 C1062 0.930 . S
H1055 C1063 0.930 . S
H1056 C1066 0.930 . S
H1057 C1067 0.930 . S
C1058 H1052 0.930 . S
C1058 C1059 1.355 . S
C1058 C1060 1.415 . S
C1059 C1058 1.355 . S
C1059 C1061 1.419 . S
C1060 C1058 1.415 . S
C1060 C1065 1.425 . S
C1060 C1067 1.409 . S
C1061 H1053 0.930 . S
C1061 C1059 1.419 . S
C1061 C1062 1.362 . S
C1062 H1054 0.930 . S
C1062 C1061 1.362 . S
C1062 C1065 1.409 . S
C1063 H1055 0.930 . S
C1063 C1064 1.355 . S
C1063 C1065 1.415 . S
C1064 C1063 1.355 . S
C1064 C1066 1.419 . S
C1065 C1060 1.425 . S
C1065 C1062 1.409 . S
C1065 C1063 1.415 . S
C1066 H1056 0.930 . S
C1066 C1064 1.419 . S
C1066 C1067 1.362 . S
C1067 H1057 0.930 . S
C1067 C1060 1.409 . S
C1067 C1066 1.362 . S
H1068 C1074 0.930 . S
H1069 C1077 0.930 . S
H1070 C1078 0.930 . S
H1071 C1079 0.930 . S
H1072 C1082 0.930 . S
H1073 C1083 0.930 . S
C1074 H1068 0.930 . S
C1074 C1075 1.355 . S
C1074 C1076 1.415 . S
C1075 C1074 1.355 . S
C1075 C1077 1.419 . S
C1076 C1074 1.415 . S
C1076 C1081 1.425 . S
C1076 C1083 1.409 . S
C1077 H1069 0.930 . S
C1077 C1075 1.419 . S
C1077 C1078 1.362 . S
C1078 H1070 0.930 . S
C1078 C1077 1.362 . S
C1078 C1081 1.409 . S
C1079 H1071 0.930 . S
C1079 C1080 1.355 . S
C1079 C1081 1.415 . S
C1080 C1079 1.355 . S
C1080 C1082 1.419 . S
C1081 C1076 1.425 . S
C1081 C1078 1.409 . S
C1081 C1079 1.415 . S
C1082 H1072 0.930 . S
C1082 C1080 1.419 . S
C1082 C1083 1.362 . S
C1083 H1073 0.930 . S
C1083 C1076 1.409 . S
C1083 C1082 1.362 . S
H1084 C1090 0.930 . S
H1085 C1093 0.930 . S
H1086 C1094 0.930 . S
H1087 C1095 0.930 . S
H1088 C1098 0.930 . S
H1089 C1099 0.930 . S
C1090 H1084 0.930 . S
C1090 C1091 1.355 . S
C1090 C1092 1.415 . S
C1091 C1090 1.355 . S
C1091 C1093 1.419 . S
C1092 C1090 1.415 . S
C1092 C1097 1.425 . S
C1092 C1099 1.409 . S
C1093 H1085 0.930 . S
C1093 C1091 1.419 . S
C1093 C1094 1.362 . S
C1094 H1086 0.930 . S
C1094 C1093 1.362 . S
C1094 C1097 1.409 . S
C1095 H1087 0.930 . S
C1095 C1096 1.355 . S
C1095 C1097 1.415 . S
C1096 C1095 1.355 . S
C1096 C1098 1.419 . S
C1097 C1092 1.425 . S
C1097 C1094 1.409 . S
C1097 C1095 1.415 . S
C1098 H1088 0.930 . S
C1098 C1096 1.419 . S
C1098 C1099 1.362 . S
C1099 H1089 0.930 . S
C1099 C1092 1.409 . S
C1099 C1098 1.362 . S
H1100 C1106 0.930 . S
H1101 C1109 0.930 . S
H1102 C1110 0.930 . S
H1103 C1111 0.930 . S
H1104 C1114 0.930 . S
H1105 C1115 0.930 . S
C1106 H1100 0.930 . S
C1106 C1107 1.355 . S
C1106 C1108 1.415 . S
C1107 C1106 1.355 . S
C1107 C1109 1.419 . S
C1108 C1106 1.415 . S
C1108 C1113 1.425 . S
C1108 C1115 1.409 . S
C1109 H1101 0.930 . S
C1109 C1107 1.419 . S
C1109 C1110 1.362 . S
C1110 H1102 0.930 . S
C1110 C1109 1.362 . S
C1110 C1113 1.409 . S
C1111 H1103 0.930 . S
C1111 C1112 1.355 . S
C1111 C1113 1.415 . S
C1112 C1111 1.355 . S
C1112 C1114 1.419 . S
C1113 C1108 1.425 . S
C1113 C1110 1.409 . S
C1113 C1111 1.415 . S
C1114 H1104 0.930 . S
C1114 C1112 1.419 . S
C1114 C1115 1.362 . S
C1115 H1105 0.930 . S
C1115 C1108 1.409 . S
C1115 C1114 1.362 . S
H1116 C1122 0.930 . S
H1117 C1125 0.930 . S
H1118 C1126 0.930 . S
H1119 C1127 0.930 . S
H1120 C1130 0.930 . S
H1121 C1131 0.930 . S
C1122 H1116 0.930 . S
C1122 C1123 1.355 . S
C1122 C1124 1.415 . S
C1123 C1122 1.355 . S
C1123 C1125 1.419 . S
C1124 C1122 1.415 . S
C1124 C1129 1.425 . S
C1124 C1131 1.409 . S
C1125 H1117 0.930 . S
C1125 C1123 1.419 . S
C1125 C1126 1.362 . S
C1126 H1118 0.930 . S
C1126 C1125 1.362 . S
C1126 C1129 1.409 . S
C1127 H1119 0.930 . S
C1127 C1128 1.355 . S
C1127 C1129 1.415 . S
C1128 C1127 1.355 . S
C1128 C1130 1.419 . S
C1129 C1124 1.425 . S
C1129 C1126 1.409 . S
C1129 C1127 1.415 . S
C1130 H1120 0.930 . S
C1130 C1128 1.419 . S
C1130 C1131 1.362 . S
C1131 H1121 0.930 . S
C1131 C1124 1.409 . S
C1131 C1130 1.362 . S
H1132 C1138 0.930 . S
H1133 C1141 0.930 . S
H1134 C1142 0.930 . S
H1135 C1143 0.930 . S
H1136 C1146 0.930 . S
H1137 C1147 0.930 . S
C1138 H1132 0.930 . S
C1138 C1139 1.355 . S
C1138 C1140 1.415 . S
C1139 C1138 1.355 . S
C1139 C1141 1.419 . S
C1140 C1138 1.415 . S
C1140 C1145 1.425 . S
C1140 C1147 1.409 . S
C1141 H1133 0.930 . S
C1141 C1139 1.419 . S
C1141 C1142 1.362 . S
C1142 H1134 0.930 . S
C1142 C1141 1.362 . S
C1142 C1145 1.409 . S
C1143 H1135 0.930 . S
C1143 C1144 1.355 . S
C1143 C1145 1.415 . S
C1144 C1143 1.355 . S
C1144 C1146 1.419 . S
C1145 C1140 1.425 . S
C1145 C1142 1.409 . S
C1145 C1143 1.415 . S
C1146 H1136 0.930 . S
C1146 C1144 1.419 . S
C1146 C1147 1.362 . S
C1147 H1137 0.930 . S
C1147 C1140 1.409 . S
C1147 C1146 1.362 . S
H1148 C1154 0.930 . S
H1149 C1157 0.930 . S
H1150 C1158 0.930 . S
H1151 C1159 0.930 . S
H1152 C1162 0.930 . S
H1153 C1163 0.930 . S
C1154 H1148 0.930 . S
C1154 C1155 1.355 . S
C1154 C1156 1.415 . S
C1155 C1154 1.355 . S
C1155 C1157 1.419 . S
C1156 C1154 1.415 . S
C1156 C1161 1.425 . S
C1156 C1163 1.409 . S
C1157 H1149 0.930 . S
C1157 C1155 1.419 . S
C1157 C1158 1.362 . S
C1158 H1150 0.930 . S
C1158 C1157 1.362 . S
C1158 C1161 1.409 . S
C1159 H1151 0.930 . S
C1159 C1160 1.355 . S
C1159 C1161 1.415 . S
C1160 C1159 1.355 . S
C1160 C1162 1.419 . S
C1161 C1156 1.425 . S
C1161 C1158 1.409 . S
C1161 C1159 1.415 . S
C1162 H1152 0.930 . S
C1162 C1160 1.419 . S
C1162 C1163 1.362 . S
C1163 H1153 0.930 . S
C1163 C1156 1.409 . S
C1163 C1162 1.362 . S
H1164 C1170 0.930 . S
H1165 C1173 0.930 . S
H1166 C1174 0.930 . S
H1167 C1175 0.930 . S
H1168 C1178 0.930 . S
H1169 C1179 0.930 . S
C1170 H1164 0.930 . S
C1170 C1171 1.355 . S
C1170 C1172 1.415 . S
C1171 C1170 1.355 . S
C1171 C1173 1.419 . S
C1172 C1170 1.415 . S
C1172 C1177 1.425 . S
C1172 C1179 1.409 . S
C1173 H1165 0.930 . S
C1173 C1171 1.419 . S
C1173 C1174 1.362 . S
C1174 H1166 0.930 . S
C1174 C1173 1.362 . S
C1174 C1177 1.409 . S
C1175 H1167 0.930 . S
C1175 C1176 1.355 . S
C1175 C1177 1.415 . S
C1176 C1175 1.355 . S
C1176 C1178 1.419 . S
C1177 C1172 1.425 . S
C1177 C1174 1.409 . S
C1177 C1175 1.415 . S
C1178 H1168 0.930 . S
C1178 C1176 1.419 . S
C1178 C1179 1.362 . S
C1179 H1169 0.930 . S
C1179 C1172 1.409 . S
C1179 C1178 1.362 . S
H1180 C1186 0.930 . S
H1181 C1189 0.930 . S
H1182 C1190 0.930 . S
H1183 C1191 0.930 . S
H1184 C1194 0.930 . S
H1185 C1195 0.930 . S
C1186 H1180 0.930 . S
C1186 C1187 1.355 . S
C1186 C1188 1.415 . S
C1187 C1186 1.355 . S
C1187 C1189 1.419 . S
C1188 C1186 1.415 . S
C1188 C1193 1.425 . S
C1188 C1195 1.409 . S
C1189 H1181 0.930 . S
C1189 C1187 1.419 . S
C1189 C1190 1.362 . S
C1190 H1182 0.930 . S
C1190 C1189 1.362 . S
C1190 C1193 1.409 . S
C1191 H1183 0.930 . S
C1191 C1192 1.355 . S
C1191 C1193 1.415 . S
C1192 C1191 1.355 . S
C1192 C1194 1.419 . S
C1193 C1188 1.425 . S
C1193 C1190 1.409 . S
C1193 C1191 1.415 . S
C1194 H1184 0.930 . S
C1194 C1192 1.419 . S
C1194 C1195 1.362 . S
C1195 H1185 0.930 . S
C1195 C1188 1.409 . S
C1195 C1194 1.362 . S
H1196 C1202 0.930 . S
H1197 C1205 0.930 . S
H1198 C1206 0.930 . S
H1199 C1207 0.930 . S
H1200 C1210 0.930 . S
H1201 C1211 0.930 . S
C1202 H1196 0.930 . S
C1202 C1203 1.355 . S
C1202 C1204 1.415 . S
C1203 C1202 1.355 . S
C1203 C1205 1.419 . S
C1204 C1202 1.415 . S
C1204 C1209 1.425 . S
C1204 C1211 1.409 . S
C1205 H1197 0.930 . S
C1205 C1203 1.419 . S
C1205 C1206 1.362 . S
C1206 H1198 0.930 . S
C1206 C1205 1.362 . S
C1206 C1209 1.409 . S
C1207 H1199 0.930 . S
C1207 C1208 1.355 . S
C1207 C1209 1.415 . S
C1208 C1207 1.355 . S
C1208 C1210 1.419 . S
C1209 C1204 1.425 . S
C1209 C1206 1.409 . S
C1209 C1207 1.415 . S
C1210 H1200 0.930 . S
C1210 C1208 1.419 . S
C1210 C1211 1.362 . S
C1211 H1201 0.930 . S
C1211 C1204 1.409 . S
C1211 C1210 1.362 . S
H1212 C1218 0.930 . S
H1213 C1221 0.930 . S
H1214 C1222 0.930 . S
H1215 C1223 0.930 . S
H1216 C1226 0.930 . S
H1217 C1227 0.930 . S
C1218 H1212 0.930 . S
C1218 C1219 1.355 . S
C1218 C1220 1.415 . S
C1219 C1218 1.355 . S
C1219 C1221 1.419 . S
C1220 C1218 1.415 . S
C1220 C1225 1.425 . S
C1220 C1227 1.409 . S
C1221 H1213 0.930 . S
C1221 C1219 1.419 . S
C1221 C1222 1.362 . S
C1222 H1214 0.930 . S
C1222 C1221 1.362 . S
C1222 C1225 1.409 . S
C1223 H1215 0.930 . S
C1223 C1224 1.355 . S
C1223 C1225 1.415 . S
C1224 C1223 1.355 . S
C1224 C1226 1.419 . S
C1225 C1220 1.425 . S
C1225 C1222 1.409 . S
C1225 C1223 1.415 . S
C1226 H1216 0.930 . S
C1226 C1224 1.419 . S
C1226 C1227 1.362 . S
C1227 H1217 0.930 . S
C1227 C1220 1.409 . S
C1227 C1226 1.362 . S
H1228 C1234 0.930 . S
H1229 C1237 0.930 . S
H1230 C1238 0.930 . S
H1231 C1239 0.930 . S
H1232 C1242 0.930 . S
H1233 C1243 0.930 . S
C1234 H1228 0.930 . S
C1234 C1235 1.355 . S
C1234 C1236 1.415 . S
C1235 C1234 1.355 . S
C1235 C1237 1.419 . S
C1236 C1234 1.415 . S
C1236 C1241 1.425 . S
C1236 C1243 1.409 . S
C1237 H1229 0.930 . S
C1237 C1235 1.419 . S
C1237 C1238 1.362 . S
C1238 H1230 0.930 . S
C1238 C1237 1.362 . S
C1238 C1241 1.409 . S
C1239 H1231 0.930 . S
C1239 C1240 1.355 . S
C1239 C1241 1.415 . S
C1240 C1239 1.355 . S
C1240 C1242 1.419 . S
C1241 C1236 1.425 . S
C1241 C1238 1.409 . S
C1241 C1239 1.415 . S
C1242 H1232 0.930 . S
C1242 C1240 1.419 . S
C1242 C1243 1.362 . S
C1243 H1233 0.930 . S
C1243 C1236 1.409 . S
C1243 C1242 1.362 . S
H1244 C1250 0.930 . S
H1245 C1253 0.930 . S
H1246 C1254 0.930 . S
H1247 C1255 0.930 . S
H1248 C1258 0.930 . S
H1249 C1259 0.930 . S
C1250 H1244 0.930 . S
C1250 C1251 1.355 . S
C1250 C1252 1.415 . S
C1251 C1250 1.355 . S
C1251 C1253 1.419 . S
C1252 C1250 1.415 . S
C1252 C1257 1.425 . S
C1252 C1259 1.409 . S
C1253 H1245 0.930 . S
C1253 C1251 1.419 . S
C1253 C1254 1.362 . S
C1254 H1246 0.930 . S
C1254 C1253 1.362 . S
C1254 C1257 1.409 . S
C1255 H1247 0.930 . S
C1255 C1256 1.355 . S
C1255 C1257 1.415 . S
C1256 C1255 1.355 . S
C1256 C1258 1.419 . S
C1257 C1252 1.425 . S
C1257 C1254 1.409 . S
C1257 C1255 1.415 . S
C1258 H1248 0.930 . S
C1258 C1256 1.419 . S
C1258 C1259 1.362 . S
C1259 H1249 0.930 . S
C1259 C1252 1.409 . S
C1259 C1258 1.362 . S
H1260 C1266 0.930 . S
H1261 C1269 0.930 . S
H1262 C1270 0.930 . S
H1263 C1271 0.930 . S
H1264 C1274 0.930 . S
H1265 C1275 0.930 . S
C1266 H1260 0.930 . S
C1266 C1267 1.355 . S
C1266 C1268 1.415 . S
C1267 C1266 1.355 . S
C1267 C1269 1.419 . S
C1268 C1266 1.415 . S
C1268 C1273 1.425 . S
C1268 C1275 1.409 . S
C1269 H1261 0.930 . S
C1269 C1267 1.419 . S
C1269 C1270 1.362 . S
C1270 H1262 0.930 . S
C1270 C1269 1.362 . S
C1270 C1273 1.409 . S
C1271 H1263 0.930 . S
C1271 C1272 1.355 . S
C1271 C1273 1.415 . S
C1272 C1271 1.355 . S
C1272 C1274 1.419 . S
C1273 C1268 1.425 . S
C1273 C1270 1.409 . S
C1273 C1271 1.415 . S
C1274 H1264 0.930 . S
C1274 C1272 1.419 . S
C1274 C1275 1.362 . S
C1275 H1265 0.930 . S
C1275 C1268 1.409 . S
C1275 C1274 1.362 . S
C520 C219 1.089 . S
C515 C17 1.117 . S
C536 C197 1.780 . S
C531 C44 1.727 . S
C552 C194 0.775 . S
C547 C63 0.791 . S
C563 C87 1.642 . S
C568 C206 1.480 . S
C579 C110 1.613 . S
C584 C189 1.533 . S
C600 C211 0.801 . S
C595 C131 0.808 . S
C611 C159 1.761 . S
C616 C216 1.773 . S
C627 C177 1.117 . S
C632 C212 1.125 . S
C648 C270 1.684 . S
C643 C20 1.588 . S
C659 C42 1.244 . S
C664 C320 1.271 . S
C680 C243 1.777 . S
C675 C66 1.598 . S
C696 C319 0.839 . S
C691 C86 0.811 . S
C707 C109 0.845 . S
C712 C248 0.802 . S
C728 C314 1.751 . S
C723 C136 1.697 . S
C739 C157 1.247 . S
C744 C273 1.239 . S
C755 C182 1.565 . S
C760 C305 1.667 . S
C771 C18 1.632 . S
C776 C297 1.610 . S
C787 C112 1.169 . S
C792 C327 1.359 . S
C808 C251 1.545 . S
C803 C134 1.607 . S
C824 C302 1.022 . S
C819 C154 1.024 . S
C835 C180 1.590 . S
C840 C260 1.568 . S
C851 C64 1.643 . S
C856 C324 1.553 . S
C872 C266 1.386 . S
C867 C89 1.258 . S
C883 C39 1.036 . S
C888 C265 1.019 . S
C899 C178 1.100 . S
C904 C381 1.101 . S
C915 C113 1.706 . S
C920 C359 1.726 . S
C936 C356 0.848 . S
C931 C132 0.836 . S
C952 C368 1.519 . S
C947 C156 1.645 . S
C963 C41 1.611 . S
C968 C351 1.457 . S
C984 C373 0.811 . S
C979 C62 0.818 . S
C995 C90 1.673 . S
C1000 C378 1.724 . S
C1011 C16 1.109 . S
C1016 C374 1.130 . S
C1027 C181 1.601 . S
C1032 C432 1.629 . S
C1048 C482 1.271 . S
C1043 C111 1.302 . S
C1059 C135 1.672 . S
C1064 C405 1.756 . S
C1075 C155 0.782 . S
C1080 C481 0.810 . S
C1096 C410 0.823 . S
C1091 C40 0.835 . S
C1107 C67 1.705 . S
C1112 C476 1.766 . S
C1128 C435 1.261 . S
C1123 C88 1.235 . S
C1144 C467 1.638 . S
C1139 C21 1.560 . S
C1160 C459 1.544 . S
C1155 C179 1.637 . S
C1171 C43 1.289 . S
C1176 C489 1.404 . S
C1187 C65 1.561 . S
C1192 C413 1.603 . S
C1208 C464 1.015 . S
C1203 C85 0.977 . S
C1219 C19 1.601 . S
C1224 C422 1.543 . S
C1235 C133 1.639 . S
C1240 C486 1.551 . S
C1256 C428 1.410 . S
C1251 C158 1.245 . S
C1272 C427 1.030 . S
C1267 C108 1.024 . S
