# Generated by pormake.
# Topology gar, (4,6)-cn, num edge types: 1
# Building blocks:
#     Node 0, Type 0, BuildingBlock: GALJAG_clean_sbu_0, # of connection points: 4
#     Node 1, Type 0, BuildingBlock: GALJAG_clean_sbu_0, # of connection points: 4
#     Node 2, Type 0, BuildingBlock: GALJAG_clean_sbu_0, # of connection points: 4
#     Node 3, Type 0, BuildingBlock: GALJAG_clean_sbu_0, # of connection points: 4
#     Node 4, Type 0, BuildingBlock: GALJAG_clean_sbu_0, # of connection points: 4
#     Node 5, Type 0, BuildingBlock: GALJAG_clean_sbu_0, # of connection points: 4
#     Node 6, Type 0, BuildingBlock: GALJAG_clean_sbu_0, # of connection points: 4
#     Node 7, Type 0, BuildingBlock: GALJAG_clean_sbu_0, # of connection points: 4
#     Node 8, Type 0, BuildingBlock: GALJAG_clean_sbu_0, # of connection points: 4
#     Node 9, Type 0, BuildingBlock: GALJAG_clean_sbu_0, # of connection points: 4
#     Node 10, Type 0, BuildingBlock: GALJAG_clean_sbu_0, # of connection points: 4
#     Node 11, Type 0, BuildingBlock: GALJAG_clean_sbu_0, # of connection points: 4
#     Node 12, Type 0, BuildingBlock: GALJAG_clean_sbu_0, # of connection points: 4
#     Node 13, Type 0, BuildingBlock: GALJAG_clean_sbu_0, # of connection points: 4
#     Node 14, Type 0, BuildingBlock: GALJAG_clean_sbu_0, # of connection points: 4
#     Node 15, Type 0, BuildingBlock: GALJAG_clean_sbu_0, # of connection points: 4
#     Node 16, Type 0, BuildingBlock: GALJAG_clean_sbu_0, # of connection points: 4
#     Node 17, Type 0, BuildingBlock: GALJAG_clean_sbu_0, # of connection points: 4
#     Node 18, Type 0, BuildingBlock: GALJAG_clean_sbu_0, # of connection points: 4
#     Node 19, Type 0, BuildingBlock: GALJAG_clean_sbu_0, # of connection points: 4
#     Node 20, Type 0, BuildingBlock: GALJAG_clean_sbu_0, # of connection points: 4
#     Node 21, Type 0, BuildingBlock: GALJAG_clean_sbu_0, # of connection points: 4
#     Node 22, Type 0, BuildingBlock: GALJAG_clean_sbu_0, # of connection points: 4
#     Node 23, Type 0, BuildingBlock: GALJAG_clean_sbu_0, # of connection points: 4
#     Node 24, Type 1, BuildingBlock: KUMJIN_clean_sbu_1, # of connection points: 6
#     Node 25, Type 1, BuildingBlock: KUMJIN_clean_sbu_1, # of connection points: 6
#     Node 26, Type 1, BuildingBlock: KUMJIN_clean_sbu_1, # of connection points: 6
#     Node 27, Type 1, BuildingBlock: KUMJIN_clean_sbu_1, # of connection points: 6
#     Node 28, Type 1, BuildingBlock: KUMJIN_clean_sbu_1, # of connection points: 6
#     Node 29, Type 1, BuildingBlock: KUMJIN_clean_sbu_1, # of connection points: 6
#     Node 30, Type 1, BuildingBlock: KUMJIN_clean_sbu_1, # of connection points: 6
#     Node 31, Type 1, BuildingBlock: KUMJIN_clean_sbu_1, # of connection points: 6
#     Node 32, Type 1, BuildingBlock: KUMJIN_clean_sbu_1, # of connection points: 6
#     Node 33, Type 1, BuildingBlock: KUMJIN_clean_sbu_1, # of connection points: 6
#     Node 34, Type 1, BuildingBlock: KUMJIN_clean_sbu_1, # of connection points: 6
#     Node 35, Type 1, BuildingBlock: KUMJIN_clean_sbu_1, # of connection points: 6
#     Node 36, Type 1, BuildingBlock: KUMJIN_clean_sbu_1, # of connection points: 6
#     Node 37, Type 1, BuildingBlock: KUMJIN_clean_sbu_1, # of connection points: 6
#     Node 38, Type 1, BuildingBlock: KUMJIN_clean_sbu_1, # of connection points: 6
#     Node 39, Type 1, BuildingBlock: KUMJIN_clean_sbu_1, # of connection points: 6
#     Edge 40, Type (0, 1), BuildingBlock: AJUNOK_clean_linker_0, # of connection points: 2
#     Edge 41, Type (0, 1), BuildingBlock: AJUNOK_clean_linker_0, # of connection points: 2
#     Edge 42, Type (0, 1), BuildingBlock: AJUNOK_clean_linker_0, # of connection points: 2
#     Edge 43, Type (0, 1), BuildingBlock: AJUNOK_clean_linker_0, # of connection points: 2
#     Edge 44, Type (0, 1), BuildingBlock: AJUNOK_clean_linker_0, # of connection points: 2
#     Edge 45, Type (0, 1), BuildingBlock: AJUNOK_clean_linker_0, # of connection points: 2
#     Edge 46, Type (0, 1), BuildingBlock: AJUNOK_clean_linker_0, # of connection points: 2
#     Edge 47, Type (0, 1), BuildingBlock: AJUNOK_clean_linker_0, # of connection points: 2
#     Edge 48, Type (0, 1), BuildingBlock: AJUNOK_clean_linker_0, # of connection points: 2
#     Edge 49, Type (0, 1), BuildingBlock: AJUNOK_clean_linker_0, # of connection points: 2
#     Edge 50, Type (0, 1), BuildingBlock: AJUNOK_clean_linker_0, # of connection points: 2
#     Edge 51, Type (0, 1), BuildingBlock: AJUNOK_clean_linker_0, # of connection points: 2
#     Edge 52, Type (0, 1), BuildingBlock: AJUNOK_clean_linker_0, # of connection points: 2
#     Edge 53, Type (0, 1), BuildingBlock: AJUNOK_clean_linker_0, # of connection points: 2
#     Edge 54, Type (0, 1), BuildingBlock: AJUNOK_clean_linker_0, # of connection points: 2
#     Edge 55, Type (0, 1), BuildingBlock: AJUNOK_clean_linker_0, # of connection points: 2
#     Edge 56, Type (0, 1), BuildingBlock: AJUNOK_clean_linker_0, # of connection points: 2
#     Edge 57, Type (0, 1), BuildingBlock: AJUNOK_clean_linker_0, # of connection points: 2
#     Edge 58, Type (0, 1), BuildingBlock: AJUNOK_clean_linker_0, # of connection points: 2
#     Edge 59, Type (0, 1), BuildingBlock: AJUNOK_clean_linker_0, # of connection points: 2
#     Edge 60, Type (0, 1), BuildingBlock: AJUNOK_clean_linker_0, # of connection points: 2
#     Edge 61, Type (0, 1), BuildingBlock: AJUNOK_clean_linker_0, # of connection points: 2
#     Edge 62, Type (0, 1), BuildingBlock: AJUNOK_clean_linker_0, # of connection points: 2
#     Edge 63, Type (0, 1), BuildingBlock: AJUNOK_clean_linker_0, # of connection points: 2
#     Edge 64, Type (0, 1), BuildingBlock: AJUNOK_clean_linker_0, # of connection points: 2
#     Edge 65, Type (0, 1), BuildingBlock: AJUNOK_clean_linker_0, # of connection points: 2
#     Edge 66, Type (0, 1), BuildingBlock: AJUNOK_clean_linker_0, # of connection points: 2
#     Edge 67, Type (0, 1), BuildingBlock: AJUNOK_clean_linker_0, # of connection points: 2
#     Edge 68, Type (0, 1), BuildingBlock: AJUNOK_clean_linker_0, # of connection points: 2
#     Edge 69, Type (0, 1), BuildingBlock: AJUNOK_clean_linker_0, # of connection points: 2
#     Edge 70, Type (0, 1), BuildingBlock: AJUNOK_clean_linker_0, # of connection points: 2
#     Edge 71, Type (0, 1), BuildingBlock: AJUNOK_clean_linker_0, # of connection points: 2
#     Edge 72, Type (0, 1), BuildingBlock: AJUNOK_clean_linker_0, # of connection points: 2
#     Edge 73, Type (0, 1), BuildingBlock: AJUNOK_clean_linker_0, # of connection points: 2
#     Edge 74, Type (0, 1), BuildingBlock: AJUNOK_clean_linker_0, # of connection points: 2
#     Edge 75, Type (0, 1), BuildingBlock: AJUNOK_clean_linker_0, # of connection points: 2
#     Edge 76, Type (0, 1), BuildingBlock: AJUNOK_clean_linker_0, # of connection points: 2
#     Edge 77, Type (0, 1), BuildingBlock: AJUNOK_clean_linker_0, # of connection points: 2
#     Edge 78, Type (0, 1), BuildingBlock: AJUNOK_clean_linker_0, # of connection points: 2
#     Edge 79, Type (0, 1), BuildingBlock: AJUNOK_clean_linker_0, # of connection points: 2
#     Edge 80, Type (0, 1), BuildingBlock: AJUNOK_clean_linker_0, # of connection points: 2
#     Edge 81, Type (0, 1), BuildingBlock: AJUNOK_clean_linker_0, # of connection points: 2
#     Edge 82, Type (0, 1), BuildingBlock: AJUNOK_clean_linker_0, # of connection points: 2
#     Edge 83, Type (0, 1), BuildingBlock: AJUNOK_clean_linker_0, # of connection points: 2
#     Edge 84, Type (0, 1), BuildingBlock: AJUNOK_clean_linker_0, # of connection points: 2
#     Edge 85, Type (0, 1), BuildingBlock: AJUNOK_clean_linker_0, # of connection points: 2
#     Edge 86, Type (0, 1), BuildingBlock: AJUNOK_clean_linker_0, # of connection points: 2
#     Edge 87, Type (0, 1), BuildingBlock: AJUNOK_clean_linker_0, # of connection points: 2
#     Edge 88, Type (0, 1), BuildingBlock: AJUNOK_clean_linker_0, # of connection points: 2
#     Edge 89, Type (0, 1), BuildingBlock: AJUNOK_clean_linker_0, # of connection points: 2
#     Edge 90, Type (0, 1), BuildingBlock: AJUNOK_clean_linker_0, # of connection points: 2
#     Edge 91, Type (0, 1), BuildingBlock: AJUNOK_clean_linker_0, # of connection points: 2
#     Edge 92, Type (0, 1), BuildingBlock: AJUNOK_clean_linker_0, # of connection points: 2
#     Edge 93, Type (0, 1), BuildingBlock: AJUNOK_clean_linker_0, # of connection points: 2
#     Edge 94, Type (0, 1), BuildingBlock: AJUNOK_clean_linker_0, # of connection points: 2
#     Edge 95, Type (0, 1), BuildingBlock: AJUNOK_clean_linker_0, # of connection points: 2
#     Edge 96, Type (0, 1), BuildingBlock: AJUNOK_clean_linker_0, # of connection points: 2
#     Edge 97, Type (0, 1), BuildingBlock: AJUNOK_clean_linker_0, # of connection points: 2
#     Edge 98, Type (0, 1), BuildingBlock: AJUNOK_clean_linker_0, # of connection points: 2
#     Edge 99, Type (0, 1), BuildingBlock: AJUNOK_clean_linker_0, # of connection points: 2
#     Edge 100, Type (0, 1), BuildingBlock: AJUNOK_clean_linker_0, # of connection points: 2
#     Edge 101, Type (0, 1), BuildingBlock: AJUNOK_clean_linker_0, # of connection points: 2
#     Edge 102, Type (0, 1), BuildingBlock: AJUNOK_clean_linker_0, # of connection points: 2
#     Edge 103, Type (0, 1), BuildingBlock: AJUNOK_clean_linker_0, # of connection points: 2
#     Edge 104, Type (0, 1), BuildingBlock: AJUNOK_clean_linker_0, # of connection points: 2
#     Edge 105, Type (0, 1), BuildingBlock: AJUNOK_clean_linker_0, # of connection points: 2
#     Edge 106, Type (0, 1), BuildingBlock: AJUNOK_clean_linker_0, # of connection points: 2
#     Edge 107, Type (0, 1), BuildingBlock: AJUNOK_clean_linker_0, # of connection points: 2
#     Edge 108, Type (0, 1), BuildingBlock: AJUNOK_clean_linker_0, # of connection points: 2
#     Edge 109, Type (0, 1), BuildingBlock: AJUNOK_clean_linker_0, # of connection points: 2
#     Edge 110, Type (0, 1), BuildingBlock: AJUNOK_clean_linker_0, # of connection points: 2
#     Edge 111, Type (0, 1), BuildingBlock: AJUNOK_clean_linker_0, # of connection points: 2
#     Edge 112, Type (0, 1), BuildingBlock: AJUNOK_clean_linker_0, # of connection points: 2
#     Edge 113, Type (0, 1), BuildingBlock: AJUNOK_clean_linker_0, # of connection points: 2
#     Edge 114, Type (0, 1), BuildingBlock: AJUNOK_clean_linker_0, # of connection points: 2
#     Edge 115, Type (0, 1), BuildingBlock: AJUNOK_clean_linker_0, # of connection points: 2
#     Edge 116, Type (0, 1), BuildingBlock: AJUNOK_clean_linker_0, # of connection points: 2
#     Edge 117, Type (0, 1), BuildingBlock: AJUNOK_clean_linker_0, # of connection points: 2
#     Edge 118, Type (0, 1), BuildingBlock: AJUNOK_clean_linker_0, # of connection points: 2
#     Edge 119, Type (0, 1), BuildingBlock: AJUNOK_clean_linker_0, # of connection points: 2
#     Edge 120, Type (0, 1), BuildingBlock: AJUNOK_clean_linker_0, # of connection points: 2
#     Edge 121, Type (0, 1), BuildingBlock: AJUNOK_clean_linker_0, # of connection points: 2
#     Edge 122, Type (0, 1), BuildingBlock: AJUNOK_clean_linker_0, # of connection points: 2
#     Edge 123, Type (0, 1), BuildingBlock: AJUNOK_clean_linker_0, # of connection points: 2
#     Edge 124, Type (0, 1), BuildingBlock: AJUNOK_clean_linker_0, # of connection points: 2
#     Edge 125, Type (0, 1), BuildingBlock: AJUNOK_clean_linker_0, # of connection points: 2
#     Edge 126, Type (0, 1), BuildingBlock: AJUNOK_clean_linker_0, # of connection points: 2
#     Edge 127, Type (0, 1), BuildingBlock: AJUNOK_clean_linker_0, # of connection points: 2
#     Edge 128, Type (0, 1), BuildingBlock: AJUNOK_clean_linker_0, # of connection points: 2
#     Edge 129, Type (0, 1), BuildingBlock: AJUNOK_clean_linker_0, # of connection points: 2
#     Edge 130, Type (0, 1), BuildingBlock: AJUNOK_clean_linker_0, # of connection points: 2
#     Edge 131, Type (0, 1), BuildingBlock: AJUNOK_clean_linker_0, # of connection points: 2
#     Edge 132, Type (0, 1), BuildingBlock: AJUNOK_clean_linker_0, # of connection points: 2
#     Edge 133, Type (0, 1), BuildingBlock: AJUNOK_clean_linker_0, # of connection points: 2
#     Edge 134, Type (0, 1), BuildingBlock: AJUNOK_clean_linker_0, # of connection points: 2
#     Edge 135, Type (0, 1), BuildingBlock: AJUNOK_clean_linker_0, # of connection points: 2
# Relax obj value: 0.108
# Max RMSD: 0.189
# Mean RMSD: 0.134
data_MOF--net-gar--node1-GALJAG_clean_sbu_0--node2-KUMJIN_clean_sbu_1--edge1-AJUNOK_clean_linker_0
_symmetry_space_group_name_H-M    P1
_symmetry_Int_Tables_number       1
_symmetry_cell_setting            triclinic
loop_
_symmetry_equiv_pos_as_xyz
'x, y, z'
_cell_length_a     45.847448
_cell_length_b     45.795857
_cell_length_c     42.312572
_cell_angle_alpha  96.997272
_cell_angle_beta   97.088595
_cell_angle_gamma 102.07055
loop_
_atom_site_label
_atom_site_type_symbol
_atom_site_fract_x
_atom_site_fract_y
_atom_site_fract_z
_atom_type_partial_charge
In0 In 0.07346 0.34928 0.37083 0.0
O1 O 0.10351 0.3306 0.33123 0.0
O2 O 0.12822 0.35871 0.37179 0.0
C3 C 1.01082 0.34009 0.34117 0.0
C4 C 0.06957 0.30194 0.4051 0.0
C5 C 0.07464 0.40354 0.41146 0.0
O6 O 0.03209 0.35972 0.33401 0.0
O7 O 0.02159 0.32449 0.36018 0.0
O8 O 0.07218 0.37783 0.42026 0.0
O9 O 0.07882 0.40283 0.38225 0.0
C10 C 0.13007 0.34188 0.34631 0.0
O11 O 0.076 0.32915 0.41864 0.0
O12 O 0.06521 0.2988 0.3747 0.0
In13 In 0.04289 0.76766 0.71532 0.0
O14 O 0.04297 0.78495 0.66692 0.0
O15 O 0.04887 0.81743 0.70874 0.0
C16 C 0.03758 0.71432 0.67262 0.0
C17 C 0.1072 0.77812 0.7418 0.0
C18 C 0.98594 0.77055 0.74166 0.0
O19 O 0.03013 0.73771 0.66435 0.0
O20 O 0.04647 0.71706 0.70271 0.0
O21 O 1.0123 0.784 0.75595 0.0
O22 O 0.98857 0.7539 0.71653 0.0
C23 C 0.0471 0.81245 0.67851 0.0
O24 O 0.08757 0.75395 0.74193 0.0
O25 O 0.09423 0.79778 0.73171 0.0
In26 In 0.57263 0.84952 0.86892 0.0
O27 O 0.60223 0.82699 0.83164 0.0
O28 O 0.62665 0.86293 0.86538 0.0
C29 C 0.50941 0.84119 0.8416 0.0
C30 C 0.57081 0.8007 0.90062 0.0
C31 C 0.5751 0.90438 0.90931 0.0
O32 O 0.53111 0.84987 0.8261 0.0
O33 O 0.51965 0.83623 0.869 0.0
O34 O 0.57221 0.87873 0.91834 0.0
O35 O 0.57893 0.90328 0.87994 0.0
C36 C 0.62866 0.84239 0.84323 0.0
O37 O 0.58272 0.82738 0.91434 0.0
O38 O 0.55991 0.79893 0.8714 0.0
In39 In 0.54426 0.26747 0.21834 0.0
O40 O 0.54199 0.24175 0.16627 0.0
O41 O 0.53352 0.21433 0.20203 0.0
C42 C 0.55515 0.31581 0.18695 0.0
C43 C 0.48711 0.27379 0.24314 0.0
C44 C 0.60797 0.27496 0.24642 0.0
O45 O 0.54101 0.28986 0.17275 0.0
O46 O 0.56329 0.31725 0.21684 0.0
O47 O 0.59258 0.29481 0.25036 0.0
O48 O 0.59066 0.25042 0.23208 0.0
C49 C 0.53672 0.21508 0.17272 0.0
O50 O 0.50594 0.25985 0.25579 0.0
O51 O 0.49707 0.28411 0.21924 0.0
In52 In 0.0985 0.82074 0.12727 0.0
O53 O 0.09839 0.77648 0.08675 0.0
O54 O 0.0849 0.76785 0.13035 0.0
C55 C 0.09384 0.87738 0.10087 0.0
C56 C 0.05113 0.81839 0.16021 0.0
C57 C 0.15082 0.82753 0.17183 0.0
O58 O 0.07448 0.85233 0.09405 0.0
O59 O 0.11685 0.87341 0.11833 0.0
O60 O 0.12482 0.82723 0.17892 0.0
O61 O 0.15139 0.82599 0.14168 0.0
C62 C 0.08933 0.75581 0.10349 0.0
O63 O 0.07811 0.82978 0.17308 0.0
O64 O 0.04793 0.80924 0.13031 0.0
In65 In 0.51583 0.79103 0.47543 0.0
O66 O 0.53934 0.78424 0.43067 0.0
O67 O 0.567 0.80444 0.475 0.0
C68 C 0.46019 0.7885 0.43647 0.0
C69 C 0.52292 0.73409 0.49905 0.0
C70 C 0.52357 0.8542 0.50227 0.0
O71 O 0.48499 0.78897 0.42618 0.0
O72 O 0.46252 0.78702 0.46647 0.0
O73 O 0.5144 0.83253 0.51765 0.0
O74 O 0.52979 0.84394 0.47546 0.0
C75 C 0.56582 0.79527 0.44537 0.0
O76 O 0.53086 0.76019 0.5162 0.0
O77 O 0.50944 0.7365 0.47179 0.0
In78 In 0.59756 0.32129 0.62542 0.0
O79 O 0.60973 0.27626 0.59555 0.0
O80 O 0.56937 0.26925 0.61335 0.0
C81 C 0.59208 0.37895 0.60115 0.0
C82 C 0.54789 0.31417 0.65427 0.0
C83 C 0.64951 0.32804 0.67159 0.0
O84 O 0.60451 0.35942 0.58725 0.0
O85 O 0.58273 0.36922 0.62553 0.0
O86 O 0.62308 0.32622 0.67787 0.0
O87 O 0.65049 0.32785 0.6418 0.0
C88 C 0.58719 0.25627 0.59971 0.0
O89 O 0.57411 0.32571 0.66977 0.0
O90 O 0.54684 0.30633 0.62426 0.0
In91 In 1.01612 0.29087 0.97356 0.0
O92 O 0.02114 0.25678 0.01464 0.0
O93 O 0.02412 0.2396 0.96801 0.0
C94 C 0.02537 0.35394 1.00213 0.0
C95 C 0.06441 0.29743 0.941 0.0
C96 C 0.96006 0.28721 0.93419 0.0
O97 O 1.01425 0.3321 0.01628 0.0
O98 O 0.0332 0.34381 0.97625 0.0
O99 O 0.98541 0.29044 0.92483 0.0
O100 O 0.96183 0.28292 0.96338 0.0
C101 C 0.0259 0.2342 0.99675 0.0
O102 O 0.03737 0.29065 0.92699 0.0
O103 O 0.06729 0.30099 0.9715 0.0
In104 In 0.41283 0.04511 0.33973 0.0
O105 O 0.45248 0.0532 0.31252 0.0
O106 O 0.4077 0.04357 0.28653 0.0
C107 C 0.44767 0.04673 0.3943 0.0
C108 C 0.38673 0.09058 0.33749 0.0
C109 C 0.37645 0.99102 0.33291 0.0
O110 O 0.44929 0.03003 0.36894 0.0
O111 O 0.42929 0.06349 0.39153 0.0
O112 O 0.37423 1.01258 0.3533 0.0
O113 O 0.39694 0.99693 0.31589 0.0
C114 C 0.43566 0.04904 0.28556 0.0
O115 O 0.37238 0.06454 0.34021 0.0
O116 O 0.41493 0.09405 0.33877 0.0
In117 In 0.28355 0.21161 0.5336 0.0
O118 O 0.29703 0.25275 0.57679 0.0
O119 O 0.27294 0.21092 0.5855 0.0
C120 C 0.28924 0.2363 0.47631 0.0
C121 C 0.33237 0.18786 0.54277 0.0
C122 C 0.22953 0.17069 0.52597 0.0
O123 O 0.2792 0.24877 0.49981 0.0
O124 O 0.29608 0.21196 0.48177 0.0
O125 O 0.25466 0.1636 0.53044 0.0
O126 O 0.23151 0.19834 0.52364 0.0
C127 C 0.28581 0.23772 0.59747 0.0
O128 O 0.30784 0.17345 0.52585 0.0
O129 O 0.3326 0.21471 0.55428 0.0
In130 In 0.15291 0.08164 0.81199 0.0
O131 O 0.12447 0.09634 0.76857 0.0
O132 O 0.13524 0.05402 0.76073 0.0
C133 C 0.1297 0.07507 0.86992 0.0
C134 C 0.18267 0.03725 0.80732 0.0
C135 C 0.19292 0.13571 0.81467 0.0
O136 O 0.11334 0.07631 0.84391 0.0
O137 O 0.15699 0.07795 0.86671 0.0
O138 O 0.20015 0.11063 0.81069 0.0
O139 O 0.16559 0.13365 0.81815 0.0
C140 C 0.12363 0.07333 0.7483 0.0
O141 O 0.19592 0.06476 0.81536 0.0
O142 O 0.15412 0.03211 0.80228 0.0
In143 In 0.32168 0.95557 1.00295 0.0
O144 O 0.31681 0.91552 0.02974 0.0
O145 O 0.32335 0.9593 0.05682 0.0
C146 C 0.31831 0.92026 0.94773 0.0
C147 C 0.28234 0.99023 1.00365 0.0
C148 C 0.37768 0.98692 0.01197 0.0
O149 O 0.29696 0.91702 0.96405 0.0
O150 O 0.34026 0.94198 0.95863 0.0
O151 O 0.35651 0.99461 0.99535 0.0
O152 O 0.37049 0.96269 0.02356 0.0
C153 C 0.31993 0.93133 0.05702 0.0
O154 O 0.31019 1.00066 0.0055 0.0
O155 O 0.27404 0.96182 0.998 0.0
In156 In 0.34009 0.40196 0.06485 0.0
O157 O 0.34152 0.36184 0.09528 0.0
O158 O 0.33012 0.40045 0.11757 0.0
C159 C 0.33347 0.3709 1.00242 0.0
C160 C 0.29331 0.42936 0.0621 0.0
C161 C 0.39403 0.44333 0.06689 0.0
O162 O 0.35847 0.38086 0.02056 0.0
O163 O 0.31144 0.37436 0.01641 0.0
O164 O 0.36871 0.44796 0.05619 0.0
O165 O 0.39202 0.41858 0.07781 0.0
C166 C 0.33365 0.37431 0.12024 0.0
O167 O 0.31993 0.44352 0.07399 0.0
O168 O 0.29072 0.40183 0.05133 0.0
In169 In 0.78663 0.1525 0.09258 0.0
O170 O 0.80711 0.11218 0.08858 0.0
O171 O 0.83568 0.15579 0.1055 0.0
C172 C 0.72939 0.12626 0.07659 0.0
C173 C 0.78946 0.18089 0.14995 0.0
C174 C 0.79014 0.18328 0.04349 0.0
O175 O 0.74924 0.11095 0.08026 0.0
O176 O 0.73866 0.1546 0.0822 0.0
O177 O 0.79275 0.19554 0.07223 0.0
O178 O 0.78736 0.15503 0.0395 0.0
C179 C 0.83358 0.12813 0.09697 0.0
O180 O 0.80572 0.19078 0.13006 0.0
O181 O 0.77159 0.15538 0.14148 0.0
In182 In 0.21385 0.5811 0.25578 0.0
O183 O 0.25319 0.5599 0.26051 0.0
O184 O 0.2093 0.53193 0.24172 0.0
C185 C 0.2417 0.63798 0.27325 0.0
C186 C 0.18321 0.58619 0.20149 0.0
C187 C 0.18351 0.56896 0.30359 0.0
O188 O 0.25401 0.61985 0.2576 0.0
O189 O 0.2165 0.62681 0.28057 0.0
O190 O 0.1714 0.5624 0.27442 0.0
O191 O 0.21181 0.57897 0.30828 0.0
C192 C 0.2369 0.53365 0.25091 0.0
O193 O 0.1754 0.59309 0.22829 0.0
O194 O 0.20738 0.57717 0.2019 0.0
In195 In 0.84252 0.90201 0.56294 0.0
O196 O 0.84335 0.86251 0.59449 0.0
O197 O 0.8315 0.90166 0.61508 0.0
C198 C 0.83695 0.87299 0.49992 0.0
C199 C 0.79268 0.92532 0.56051 0.0
C200 C 0.89729 0.94288 0.56739 0.0
O201 O 0.83339 0.85858 0.52345 0.0
O202 O 0.8434 0.90117 0.50835 0.0
O203 O 0.87205 0.94812 0.55796 0.0
O204 O 0.89534 0.91712 0.57613 0.0
C205 C 0.83456 0.87548 0.61864 0.0
O206 O 0.81815 0.93945 0.57559 0.0
O207 O 0.79226 0.89924 0.54642 0.0
In208 In 0.96354 0.02181 0.28071 0.0
O209 O 0.9887 0.05112 0.24622 0.0
O210 O 0.98259 1.00433 0.23393 0.0
C211 C 0.99175 0.02681 0.34424 0.0
C212 C 0.93458 0.06759 0.27949 0.0
C213 C 0.92262 0.96767 0.27651 0.0
O214 O 1.00632 0.02639 0.32068 0.0
O215 O 0.96422 0.02517 0.33561 0.0
O216 O 0.91575 0.99303 0.27978 0.0
O217 O 0.94991 0.96914 0.27299 0.0
C218 C 0.99242 0.03003 0.22619 0.0
O219 O 0.92189 0.04091 0.26629 0.0
O220 O 0.96155 0.07094 0.29276 0.0
In221 In 0.28515 0.64593 0.58738 0.0
O222 O 0.30063 0.60435 0.59921 0.0
O223 O 0.3331 0.64344 0.59436 0.0
C224 C 0.22676 0.62232 0.57385 0.0
C225 C 0.29034 0.68327 0.63975 0.0
C226 C 0.28924 0.67379 0.53606 0.0
O227 O 0.24555 0.60994 0.56122 0.0
O228 O 0.23777 0.6457 0.59416 0.0
O229 O 0.29911 0.68688 0.56439 0.0
O230 O 0.27933 0.64559 0.53327 0.0
C231 C 0.328 0.61666 0.59996 0.0
O232 O 0.29698 0.69181 0.61388 0.0
O233 O 0.28098 0.65528 0.6397 0.0
In234 In 0.46291 0.52451 0.78261 0.0
O235 O 0.41923 0.54172 0.78195 0.0
O236 O 0.46042 0.574 0.78461 0.0
C237 C 0.42174 0.47081 0.78156 0.0
C238 C 0.49068 0.53113 0.72741 0.0
C239 C 0.49568 0.53201 0.84413 0.0
O240 O 0.41881 0.49631 0.79385 0.0
O241 O 0.44523 0.4721 0.76829 0.0
O242 O 0.48804 0.50713 0.82545 0.0
O243 O 0.48859 0.55345 0.83125 0.0
C244 C 0.43216 0.56911 0.78347 0.0
O245 O 0.50484 0.52998 0.75471 0.0
O246 O 0.4626 0.5271 0.7275 0.0
In247 In 0.71384 0.07932 0.75116 0.0
O248 O 0.75424 0.05885 0.7461 0.0
O249 O 0.71136 0.03068 0.74783 0.0
C250 C 0.74011 0.13717 0.76725 0.0
C251 C 0.68457 0.07183 0.69322 0.0
C252 C 0.6788 0.078 0.79655 0.0
O253 O 0.75151 0.11724 0.77907 0.0
O254 O 0.71686 0.12741 0.74648 0.0
O255 O 0.66959 0.07915 0.76761 0.0
O256 O 0.70617 0.07697 0.80278 0.0
C257 C 0.73871 0.03248 0.74577 0.0
O258 O 0.6746 0.05797 0.71495 0.0
O259 O 0.71048 0.08928 0.70023 0.0
In260 In 0.78198 0.71179 0.03042 0.0
O261 O 0.7955 0.66686 0.02367 0.0
O262 O 0.83035 0.70691 0.03986 0.0
C263 C 0.72905 0.66827 0.02578 0.0
C264 C 0.79055 0.74176 0.09427 0.0
C265 C 0.79026 0.73889 0.97418 0.0
O266 O 0.75502 0.66337 0.0314 0.0
O267 O 0.72934 0.69501 0.02094 0.0
O268 O 0.76939 0.74181 0.99039 0.0
O269 O 0.80682 0.72338 0.98657 0.0
C270 C 0.82336 0.67837 0.03281 0.0
O271 O 0.76804 0.74098 0.07349 0.0
O272 O 0.80982 0.72993 0.08231 0.0
In273 In 0.90575 0.54041 0.83967 0.0
O274 O 0.86551 0.56056 0.83426 0.0
O275 O 0.90943 0.58988 0.84161 0.0
C276 C 0.87503 0.48425 0.83493 0.0
C277 C 0.92677 0.54227 0.78413 0.0
C278 C 0.94212 0.5439 0.89338 0.0
O279 O 0.867 0.50575 0.85045 0.0
O280 O 0.89839 0.49099 0.82217 0.0
O281 O 0.94884 0.53651 0.86609 0.0
O282 O 0.91698 0.55087 0.89377 0.0
C283 C 0.88129 0.5868 0.83504 0.0
O284 O 0.94348 0.5526 0.81089 0.0
O285 O 0.89934 0.53167 0.78568 0.0
In286 In 0.82554 0.45695 0.50691 0.0
O287 O 0.81773 0.41558 0.5308 0.0
O288 O 0.82489 0.45804 0.56053 0.0
C289 C 0.81872 0.42043 0.45151 0.0
C290 C 0.78774 0.49341 0.51028 0.0
C291 C 0.88322 0.48392 0.5171 0.0
O292 O 0.80164 0.41525 0.47225 0.0
O293 O 0.838 0.44518 0.4578 0.0
O294 O 0.86354 0.49401 0.50096 0.0
O295 O 0.8739 0.4593 0.52714 0.0
C296 C 0.82003 0.42973 0.55873 0.0
O297 O 0.81588 0.50275 0.51654 0.0
O298 O 0.77879 0.46577 0.4989 0.0
In299 In 0.65301 0.58281 0.31033 0.0
O300 O 0.69777 0.56933 0.30825 0.0
O301 O 0.65985 0.53415 0.30871 0.0
C302 C 0.69502 0.63566 0.31506 0.0
C303 C 0.62275 0.57685 0.24713 0.0
C304 C 0.62702 0.5776 0.36713 0.0
O305 O 0.70106 0.6099 0.31173 0.0
O306 O 0.6675 0.63516 0.31717 0.0
O307 O 0.61513 0.56247 0.33997 0.0
O308 O 0.6509 0.59645 0.36551 0.0
C309 C 0.68765 0.54147 0.30711 0.0
O310 O 0.62735 0.55487 0.26064 0.0
O311 O 0.63097 0.60158 0.26606 0.0
Eu312 Eu 0.10185 0.0783 0.07304 0.0
C313 C 0.99792 0.97458 0.9932 0.0
N314 N 1.01731 0.99993 0.98818 0.0
C315 C 1.01875 0.97641 0.93465 0.0
C316 C 0.98882 0.94894 0.96913 0.0
C317 C 0.02684 1.0014 0.95893 0.0
C318 C 0.99995 0.94996 0.93989 0.0
C319 C 0.96458 0.9492 0.02694 0.0
C320 C 0.98588 0.97465 0.0219 0.0
C321 C 0.95587 0.92362 1.0031 0.0
C322 C 0.96817 0.92345 0.97446 0.0
Eu323 Eu 0.02573 0.04171 0.02976 0.0
N324 N 0.9946 0.99964 0.04468 0.0
C325 C 0.95288 0.95006 0.056 0.0
C326 C 0.98189 1.00123 0.07216 0.0
C327 C 0.96154 0.97626 0.07867 0.0
H328 H 0.03951 0.02195 0.95322 0.0
H329 H 0.95198 0.97752 0.1008 0.0
H330 H 0.08591 0.09649 0.14818 0.0
H331 H 0.15629 0.1507 0.99299 0.0
H332 H 0.98638 0.022 0.08862 0.0
H333 H 0.93682 0.93082 0.06092 0.0
H334 H 0.13237 0.10308 0.00876 0.0
H335 H 0.02644 0.97782 0.91158 0.0
H336 H 0.93974 0.90379 0.00665 0.0
H337 H 0.96133 0.90364 0.95631 0.0
H338 H 0.09376 0.14184 0.18831 0.0
H339 H 0.99345 0.93082 0.92081 0.0
H340 H 0.16478 0.19817 0.03091 0.0
N341 N 0.10349 0.12027 0.1119 0.0
C342 C 0.11835 0.14727 0.10496 0.0
C343 C 0.10034 0.14371 0.1648 0.0
C344 C 0.12413 0.17367 0.12782 0.0
C345 C 0.09519 0.11806 0.14158 0.0
C346 C 0.11464 0.17162 0.1578 0.0
N347 N 0.12233 0.12292 0.05296 0.0
C348 C 0.13317 0.12347 0.02434 0.0
C349 C 0.14322 0.17649 0.06743 0.0
C350 C 0.12782 0.14866 0.07482 0.0
C351 C 0.15285 0.17725 0.03738 0.0
C352 C 0.1479 0.15057 0.01581 0.0
H353 H 0.11849 0.19141 0.17579 0.0
H354 H 0.14377 0.22167 0.1375 0.0
H355 H 0.16092 0.22412 0.0851 0.0
O356 O 0.14914 0.0835 0.06901 0.0
O357 O 0.06928 0.11208 0.06333 0.0
O358 O 0.04134 0.08962 0.01554 0.0
O359 O 0.13534 0.08362 0.11598 0.0
O360 O 0.1022 0.05638 0.02091 0.0
O361 O 0.05712 0.06157 0.99641 0.0
O362 O 0.98793 0.06045 0.04109 0.0
O363 O 0.04821 1.00322 0.04812 0.0
O364 O 0.09608 0.02595 0.0747 0.0
O365 O 0.987 0.03598 0.99249 0.0
O366 O 0.02944 0.06197 0.08315 0.0
O367 O 0.07315 0.05277 0.10569 0.0
C368 C 0.05296 0.11483 0.03592 0.0
C369 C 0.1785 0.06513 0.10816 0.0
C370 C 0.21476 0.03708 0.09231 0.0
C371 C 0.22147 0.03191 0.12411 0.0
C372 C 0.18498 0.05984 0.14002 0.0
C373 C 0.20639 0.04316 0.14789 0.0
C374 C 0.19353 0.05367 0.08452 0.0
C375 C 0.08478 0.05902 0.99466 0.0
C376 C 0.15756 0.084 0.09965 0.0
C377 C 0.13937 0.20123 0.1203 0.0
C378 C 0.14898 0.20264 0.09033 0.0
C379 C 0.07435 1.0009 0.06453 0.0
C380 C 0.94346 0.05523 1.00192 0.0
C381 C 0.90156 0.07502 0.01576 0.0
C382 C 0.88762 0.06821 0.98354 0.0
C383 C 0.92963 0.04782 0.96956 0.0
C384 C 0.92914 0.0684 0.02494 0.0
C385 C 0.90163 0.05431 0.96045 0.0
C386 C 0.04507 0.0537 0.10731 0.0
C387 C 0.97316 0.05035 0.01199 0.0
H388 H 0.23833 0.01934 0.13046 0.0
H389 H 0.17384 0.06887 0.15881 0.0
H390 H 0.21153 0.03926 0.17246 0.0
H391 H 0.18948 0.05831 0.06 0.0
H392 H 0.86611 0.07365 0.97641 0.0
H393 H 0.94055 0.03746 0.95139 0.0
H394 H 0.93968 0.07427 0.05001 0.0
H395 H 0.89099 0.04888 0.93553 0.0
Eu396 Eu 0.27747 0.81282 0.34713 0.0
C397 C 0.34846 0.76195 0.23523 0.0
N398 N 0.36107 0.78699 0.25723 0.0
C399 C 0.40864 0.77265 0.26179 0.0
C400 C 0.36554 0.7409 0.22607 0.0
C401 C 0.39077 0.7927 0.27032 0.0
C402 C 0.39595 0.74655 0.23968 0.0
C403 C 0.30441 0.73078 0.19993 0.0
C404 C 0.3182 0.75697 0.22245 0.0
C405 C 0.32129 0.70972 0.19096 0.0
C406 C 0.35178 0.71478 0.20398 0.0
Eu407 Eu 0.3291 0.81817 0.2742 0.0
N408 N 0.30222 0.77747 0.23229 0.0
C409 C 0.27405 0.72644 0.18695 0.0
C410 C 0.27297 0.77382 0.21801 0.0
C411 C 0.25841 0.7483 0.19572 0.0
H412 H 0.40078 0.81284 0.28739 0.0
H413 H 0.23511 0.74569 0.1851 0.0
H414 H 0.20943 0.8264 0.32648 0.0
H415 H 0.36782 0.87808 0.44457 0.0
H416 H 0.26039 0.79036 0.22263 0.0
H417 H 0.26267 0.70665 0.16967 0.0
H418 H 0.34809 0.84632 0.39328 0.0
H419 H 0.43216 0.77729 0.27241 0.0
H420 H 0.31099 0.68948 0.17387 0.0
H421 H 0.36454 0.69833 0.19681 0.0
H422 H 0.1759 0.85685 0.34759 0.0
H423 H 0.40979 0.73091 0.23329 0.0
H424 H 0.33445 0.90311 0.47416 0.0
N425 N 0.24484 0.84249 0.3657 0.0
C426 C 0.25452 0.8608 0.39439 0.0
C427 C 0.19795 0.85826 0.36103 0.0
C428 C 0.23598 0.87859 0.40764 0.0
C429 C 0.21711 0.84118 0.3489 0.0
C430 C 0.20738 0.87701 0.39062 0.0
N431 N 0.3021 0.84844 0.39416 0.0
C432 C 0.33226 0.85475 0.40608 0.0
C433 C 0.29483 0.88348 0.43861 0.0
C434 C 0.28372 0.86328 0.40948 0.0
C435 C 0.3251 0.88779 0.45193 0.0
C436 C 0.34398 0.87375 0.43529 0.0
H437 H 0.19257 0.89041 0.39993 0.0
H438 H 0.23281 0.91175 0.44743 0.0
H439 H 0.28429 0.9159 0.4747 0.0
O440 O 0.27569 0.7752 0.37407 0.0
O441 O 0.28881 0.85984 0.33652 0.0
O442 O 0.32989 0.8486 0.32029 0.0
O443 O 0.23429 0.78668 0.35499 0.0
O444 O 0.32482 0.80113 0.35895 0.0
O445 O 0.35797 0.81775 0.32324 0.0
O446 O 0.32774 0.8477 0.23822 0.0
O447 O 0.31943 0.77294 0.28903 0.0
O448 O 0.27773 0.78486 0.30051 0.0
O449 O 0.37086 0.84704 0.26531 0.0
O450 O 0.28268 0.83145 0.26317 0.0
O451 O 0.24968 0.81227 0.29745 0.0
C452 C 0.31274 0.86789 0.32345 0.0
C453 C 0.23538 0.7665 0.40358 0.0
C454 C 0.23859 0.74438 0.45232 0.0
C455 C 0.21495 0.75666 0.46187 0.0
C456 C 0.21162 0.77898 0.41293 0.0
C457 C 0.20144 0.77395 0.44205 0.0
C458 C 0.24859 0.74914 0.42334 0.0
C459 C 0.35229 0.80606 0.34996 0.0
C460 C 0.24653 0.7703 0.37317 0.0
C461 C 0.24674 0.89795 0.43694 0.0
C462 C 0.27601 0.90022 0.45251 0.0
C463 C 0.29401 0.76492 0.29911 0.0
C464 C 0.37048 0.86179 0.21311 0.0
C465 C 0.36796 0.88138 0.16262 0.0
C466 C 0.39771 0.87918 0.16067 0.0
C467 C 0.40025 0.85932 0.21113 0.0
C468 C 0.35438 0.87257 0.18856 0.0
C469 C 0.41374 0.86794 0.18482 0.0
C470 C 0.25501 0.82448 0.27111 0.0
C471 C 0.35693 0.85745 0.24211 0.0
H472 H 0.20705 0.75283 0.48444 0.0
H473 H 0.2009 0.79243 0.39786 0.0
H474 H 0.1831 0.78342 0.44923 0.0
H475 H 0.26682 0.73927 0.41625 0.0
H476 H 0.40841 0.88621 0.14057 0.0
H477 H 0.41326 0.8515 0.23015 0.0
H478 H 0.33162 0.87531 0.19016 0.0
H479 H 0.43679 0.86641 0.18341 0.0
Eu480 Eu 0.51512 0.05129 0.58228 0.0
C481 C 0.61953 0.10755 0.49876 0.0
N482 N 0.59917 0.08041 0.4928 0.0
C483 C 0.58778 0.08645 0.43742 0.0
C484 C 0.62363 0.12578 0.47435 0.0
C485 C 0.5847 0.06899 0.46219 0.0
C486 C 0.60689 0.11519 0.44365 0.0
C487 C 0.65969 0.14398 0.53514 0.0
C488 C 0.63755 0.11662 0.52886 0.0
C489 C 0.66283 0.16263 0.51126 0.0
C490 C 0.64487 0.15357 0.48098 0.0
Eu491 Eu 0.59438 0.05499 0.53805 0.0
N492 N 0.63374 0.09855 0.55192 0.0
C493 C 0.67807 0.15181 0.5653 0.0
C494 C 0.65289 0.10507 0.58043 0.0
C495 C 0.67488 0.13204 0.5879 0.0
H496 H 0.57102 0.04626 0.45638 0.0
H497 H 0.68957 0.13736 0.6109 0.0
H498 H 0.5384 0.05259 0.66351 0.0
H499 H 0.42767 0.96958 0.49829 0.0
H500 H 0.65173 0.08925 0.59712 0.0
H501 H 0.69518 0.17273 0.5711 0.0
H502 H 0.46673 0.01684 0.51581 0.0
H503 H 0.5757 0.07755 0.4134 0.0
H504 H 0.67945 0.1839 0.5158 0.0
H505 H 0.64804 0.16794 0.46257 0.0
H506 H 0.52874 0.01925 0.70351 0.0
H507 H 0.60939 0.12855 0.4243 0.0
H508 H 0.4163 0.93365 0.53665 0.0
N509 N 0.50998 0.02154 0.62419 0.0
C510 C 0.4883 0.99528 0.61589 0.0
C511 C 0.51764 1.012 0.67885 0.0
C512 C 0.48144 0.97596 0.63887 0.0
C513 C 0.52361 0.03062 0.65556 0.0
C514 C 0.49674 0.98444 0.67044 0.0
N515 N 0.47859 1.00664 0.56251 0.0
C516 C 0.46253 1.00085 0.53223 0.0
C517 C 0.44952 0.96087 0.57577 0.0
C518 C 0.47204 0.98784 0.58457 0.0
C519 C 0.43375 0.95415 0.54427 0.0
C520 C 0.44017 0.97431 0.52248 0.0
H521 H 0.49197 0.97024 0.68873 0.0
H522 H 0.45362 0.93407 0.64739 0.0
H523 H 0.42598 0.92078 0.59224 0.0
O524 O 0.47312 0.06562 0.56634 0.0
O525 O 0.52366 1.00334 0.56081 0.0
O526 O 0.56399 1.00641 0.53106 0.0
O527 O 0.49222 0.07141 0.61759 0.0
O528 O 0.52778 0.06678 0.53654 0.0
O529 O 0.55143 0.04036 0.50437 0.0
O530 O 0.63378 0.03842 0.55885 0.0
O531 O 0.58793 0.10372 0.55996 0.0
O532 O 0.54251 0.10065 0.58133 0.0
O533 O 0.61413 0.02586 0.50823 0.0
O534 O 0.57229 0.0444 0.57957 0.0
O535 O 0.55631 0.06837 0.6188 0.0
C536 C 0.5407 0.99036 0.54223 0.0
C537 C 0.44596 0.08723 0.60635 0.0
C538 C 0.40993 0.11887 0.59938 0.0
C539 C 0.40169 0.1139 0.62955 0.0
C540 C 0.43742 0.0825 0.6364 0.0
C541 C 0.4153 0.09571 0.64784 0.0
C542 C 0.43195 0.10518 0.58762 0.0
C543 C 0.52688 0.04848 0.51022 0.0
C544 C 0.4709 0.07499 0.59613 0.0
C545 C 0.45908 0.94909 0.62999 0.0
C546 C 0.44326 0.94155 0.59858 0.0
C547 C 0.56779 0.11699 0.57349 0.0
C548 C 0.66288 0.01755 0.52092 0.0
C549 C 0.70184 0.98854 0.52397 0.0
C550 C 0.70742 0.99436 0.49321 0.0
C551 C 0.66958 0.02384 0.49051 0.0
C552 C 0.67961 1.00032 0.53798 0.0
C553 C 0.69157 1.01212 0.47675 0.0
C554 C 0.57879 0.06075 0.60756 0.0
C555 C 0.63455 0.02278 0.53108 0.0
H556 H 0.38455 0.12404 0.6389 0.0
H557 H 0.44803 0.06873 0.65118 0.0
H558 H 0.40885 0.09203 0.67105 0.0
H559 H 0.43888 0.10936 0.56468 0.0
H560 H 0.72427 0.98522 0.48198 0.0
H561 H 0.65681 0.03661 0.4766 0.0
H562 H 0.67435 0.9948 0.56115 0.0
H563 H 0.69594 0.01632 0.45296 0.0
Eu564 Eu 0.34632 0.28691 0.80289 0.0
C565 C 0.24316 0.33862 0.73177 0.0
N566 N 0.26233 0.3516 0.75943 0.0
C567 C 0.26546 0.40066 0.74412 0.0
C568 C 0.23451 0.35651 0.70903 0.0
C569 C 0.2733 0.38211 0.76605 0.0
C570 C 0.24602 0.38782 0.71547 0.0
C571 C 0.21204 0.29352 0.69759 0.0
C572 C 0.23197 0.30734 0.72612 0.0
C573 C 0.2034 0.31138 0.67504 0.0
C574 C 0.21459 0.34274 0.68073 0.0
Eu575 Eu 0.27203 0.31846 0.79552 0.0
N576 N 0.24102 0.2904 0.74814 0.0
C577 C 0.20126 0.26213 0.69257 0.0
C578 C 0.22997 0.25991 0.74362 0.0
C579 C 0.21017 0.24529 0.71577 0.0
H580 H 0.28722 0.39227 0.78873 0.0
H581 H 0.2018 0.22102 0.71224 0.0
H582 H 0.33133 0.21511 0.81669 0.0
H583 H 0.44128 0.37824 0.86013 0.0
H584 H 0.23643 0.24664 0.76111 0.0
H585 H 0.18592 0.2507 0.67097 0.0
H586 H 0.39712 0.35283 0.81957 0.0
H587 H 0.27409 0.42488 0.74952 0.0
H588 H 0.18804 0.30114 0.65307 0.0
H589 H 0.20764 0.35617 0.66307 0.0
H590 H 0.3431 0.18558 0.85955 0.0
H591 H 0.23983 0.40231 0.69861 0.0
H592 H 0.45574 0.35341 0.9065 0.0
N593 N 0.35699 0.25682 0.84247 0.0
C594 C 0.37882 0.27053 0.86772 0.0
C595 C 0.35275 0.20961 0.86261 0.0
C596 C 0.3877 0.25432 0.89212 0.0
C597 C 0.34515 0.22652 0.83881 0.0
C598 C 0.37372 0.22371 0.88973 0.0
N599 N 0.38536 0.31505 0.84362 0.0
C600 C 0.4024 0.34238 0.84027 0.0
C601 C 0.41898 0.31391 0.89178 0.0
C602 C 0.39394 0.30023 0.8679 0.0
C603 C 0.43605 0.34235 0.88894 0.0
C604 C 0.42789 0.35651 0.86288 0.0
H605 H 0.38002 0.21044 0.90788 0.0
H606 H 0.41814 0.25663 0.93627 0.0
H607 H 0.4458 0.30869 0.93576 0.0
O608 O 0.38264 0.29875 0.77295 0.0
O609 O 0.33447 0.30671 0.85168 0.0
O610 O 0.302 0.33888 0.84339 0.0
O611 O 0.37294 0.25502 0.78993 0.0
O612 O 0.34669 0.33082 0.78202 0.0
O613 O 0.31534 0.35545 0.80763 0.0
O614 O 0.23338 0.30231 0.81934 0.0
O615 O 0.29074 0.30568 0.74836 0.0
O616 O 0.31172 0.26597 0.75827 0.0
O617 O 0.23983 0.34639 0.80559 0.0
O618 O 0.272 0.27581 0.81867 0.0
O619 O 0.30291 0.24956 0.79482 0.0
C620 C 0.32008 0.32731 0.86248 0.0
C621 C 0.41481 0.2629 0.76035 0.0
C622 C 0.45534 0.26907 0.72749 0.0
C623 C 0.46233 0.24234 0.73596 0.0
C624 C 0.42254 0.2363 0.76847 0.0
C625 C 0.4461 0.22618 0.75637 0.0
C626 C 0.43159 0.27959 0.73996 0.0
C627 C 0.34 0.35599 0.79437 0.0
C628 C 0.39002 0.27291 0.77467 0.0
C629 C 0.41119 0.26867 0.91721 0.0
C630 C 0.42694 0.29832 0.91692 0.0
C631 C 0.30047 0.28164 0.73785 0.0
C632 C 0.21163 0.33777 0.8487 0.0
C633 C 0.17189 0.33411 0.88302 0.0
C634 C 0.1873 0.36206 0.90098 0.0
C635 C 0.22677 0.36539 0.8676 0.0
C636 C 0.18416 0.32189 0.85675 0.0
C637 C 0.21456 0.37745 0.89342 0.0
C638 C 0.27825 0.25003 0.80785 0.0
C639 C 0.22313 0.32663 0.81935 0.0
H640 H 0.4807 0.23409 0.72697 0.0
H641 H 0.41049 0.22326 0.78448 0.0
H642 H 0.45187 0.20575 0.76293 0.0
H643 H 0.42618 0.30031 0.73371 0.0
H644 H 0.17818 0.372 0.92103 0.0
H645 H 0.24781 0.37798 0.86206 0.0
H646 H 0.17219 0.30055 0.84238 0.0
H647 H 0.22618 0.399 0.90751 0.0
Eu648 Eu 0.07951 0.01947 0.54092 0.0
C649 C 0.02734 0.12415 0.61015 0.0
N650 N 1.01443 0.10279 0.58413 0.0
C651 C 0.96599 0.09851 0.60112 0.0
C652 C 1.00976 0.13337 0.63287 0.0
C653 C 0.98418 0.09027 0.57902 0.0
C654 C 0.97883 0.12008 0.62819 0.0
C655 C 0.07203 0.15918 0.64096 0.0
C656 C 0.0583 0.13681 0.61427 0.0
C657 C 0.05444 0.16849 0.6634 0.0
C658 C 0.02346 0.15555 0.65945 0.0
Eu659 Eu 0.04713 0.09241 0.54788 0.0
N660 N 0.07521 0.12631 0.59309 0.0
C661 C 0.10322 0.17091 0.64483 0.0
C662 C 0.10545 0.13832 0.59632 0.0
C663 C 0.11997 0.16045 0.62237 0.0
H664 H 0.97379 0.07461 0.55746 0.0
H665 H 0.14404 0.16964 0.62493 0.0
H666 H 0.15118 0.03383 0.52676 0.0
H667 H 0.97948 0.94043 0.47061 0.0
H668 H 0.11849 0.13135 0.57881 0.0
H669 H 0.11459 0.18799 0.66509 0.0
H670 H 1.00855 0.97615 0.51735 0.0
H671 H 0.94201 0.08852 0.59702 0.0
H672 H 0.06465 0.18548 0.68413 0.0
H673 H 1.01027 0.16288 0.67713 0.0
H674 H 0.18034 0.01975 0.48447 0.0
H675 H 0.9646 0.12655 0.64516 0.0
H676 H 1.00468 0.92568 0.42481 0.0
N677 N 0.10916 1.00789 0.50143 0.0
C678 C 0.09462 0.98756 0.47521 0.0
C679 C 0.1562 1.01081 0.48136 0.0
C680 C 0.11048 0.97842 0.45065 0.0
C681 C 0.13956 0.01922 0.50504 0.0
C682 C 0.14158 0.99043 0.45396 0.0
N683 N 0.04913 0.98447 0.49731 0.0
C684 C 0.01952 0.97133 0.49709 0.0
C685 C 0.04825 0.95423 0.44617 0.0
C686 C 0.06381 0.97552 0.47306 0.0
C687 C 1.01743 0.94206 0.44505 0.0
C688 C 1.00309 0.95043 0.47078 0.0
H689 H 0.15457 0.98383 0.43571 0.0
H690 H 0.10679 0.95012 0.40474 0.0
H691 H 0.05233 0.92905 0.40076 0.0
O692 O 0.06719 0.97975 0.56577 0.0
O693 O 0.06584 0.03668 0.49335 0.0
O694 O 0.02598 0.05796 0.50292 0.0
O695 O 0.11327 0.99536 0.55611 0.0
O696 O 0.03675 0.01854 0.56411 0.0
O697 O 1.0107 0.04865 0.53822 0.0
O698 O 0.06181 0.12953 0.5209 0.0
O699 O 0.06243 0.07758 0.59671 0.0
O700 O 0.09942 0.05234 0.58699 0.0
O701 O 1.01842 0.12344 0.53679 0.0
O702 O 0.08997 0.09316 0.52522 0.0
O703 O 0.11637 0.06285 0.55004 0.0
C704 C 0.04092 0.04493 0.48284 0.0
C705 C 0.10526 0.95212 0.58391 0.0
C706 C 0.09656 0.90808 0.61146 0.0
C707 C 0.12739 0.90815 0.61388 0.0
C708 C 0.13606 0.95169 0.58668 0.0
C709 C 0.14699 0.92989 0.60166 0.0
C710 C 0.08545 0.93032 0.59668 0.0
C711 C 1.01114 0.0257 0.55419 0.0
C712 C 0.09479 0.97602 0.56849 0.0
C713 C 0.09496 0.9574 0.42381 0.0
C714 C 0.06394 0.9454 0.42154 0.0
C715 C 0.08453 0.06503 0.60726 0.0
C716 C 0.02574 0.15363 0.49492 0.0
C717 C 0.03037 0.19549 0.46339 0.0
C718 C 1.00021 0.18419 0.44896 0.0
C719 C 0.99575 0.14264 0.47965 0.0
C720 C 0.04318 0.18013 0.48649 0.0
C721 C 0.98312 0.15793 0.45696 0.0
C722 C 0.11574 0.08672 0.53569 0.0
C723 C 0.03763 0.13993 0.52226 0.0
H724 H 0.13634 0.89135 0.62546 0.0
H725 H 0.15187 0.96835 0.57741 0.0
H726 H 0.17074 0.92985 0.60377 0.0
H727 H 0.06168 0.93043 0.59494 0.0
H728 H 0.98988 0.19574 0.43133 0.0
H729 H 0.98179 0.1226 0.48582 0.0
H730 H 0.06626 0.18905 0.49825 0.0
H731 H 0.95985 0.14955 0.44571 0.0
Eu732 Eu 0.31173 0.84853 0.76428 0.0
C733 C 0.25345 0.74652 0.84206 0.0
N734 N 0.28042 0.76729 0.84875 0.0
C735 C 0.27399 0.77679 0.90423 0.0
C736 C 0.23539 0.74103 0.86637 0.0
C737 C 0.29152 0.78103 0.87973 0.0
C738 C 0.24564 0.75709 0.89744 0.0
C739 C 0.2185 0.70524 0.80531 0.0
C740 C 0.24472 0.72879 0.81152 0.0
C741 C 0.20002 0.70086 0.82914 0.0
C742 C 0.20835 0.71876 0.85948 0.0
Eu743 Eu 0.30733 0.77017 0.80462 0.0
N744 N 0.26248 0.73365 0.78828 0.0
C745 C 0.21227 0.6859 0.77577 0.0
C746 C 0.25749 0.71398 0.76024 0.0
C747 C 0.23219 0.68994 0.7534 0.0
H748 H 0.3142 0.79464 0.88634 0.0
H749 H 0.22806 0.6746 0.73091 0.0
H750 H 0.30951 0.82079 0.68365 0.0
H751 H 0.39091 0.94312 0.84054 0.0
H752 H 0.27344 0.71631 0.74363 0.0
H753 H 0.19252 0.66735 0.7703 0.0
H754 H 0.34439 0.90237 0.8259 0.0
H755 H 0.28273 0.78815 0.92856 0.0
H756 H 0.17962 0.68307 0.82465 0.0
H757 H 0.19422 0.71445 0.87789 0.0
H758 H 0.34279 0.82695 0.64321 0.0
H759 H 0.23241 0.75342 0.91671 0.0
H760 H 0.4274 0.95063 0.80218 0.0
N761 N 0.34085 0.85087 0.72158 0.0
C762 C 0.36724 0.87245 0.7286 0.0
C763 C 0.35018 0.83947 0.66728 0.0
C764 C 0.38649 0.87742 0.70521 0.0
C765 C 0.33157 0.83552 0.69089 0.0
C766 C 0.37791 0.86018 0.67455 0.0
N767 N 0.35586 0.88615 0.78117 0.0
C768 C 0.36086 0.90498 0.80973 0.0
C769 C 0.40125 0.91387 0.76596 0.0
C770 C 0.37467 0.89074 0.75882 0.0
C771 C 0.40732 0.9325 0.79593 0.0
C772 C 0.38685 0.92825 0.81774 0.0
H773 H 0.39207 0.86342 0.65599 0.0
H774 H 0.42828 0.90396 0.69496 0.0
H775 H 0.44115 0.93577 0.74799 0.0
O776 O 0.29625 0.88979 0.77985 0.0
O777 O 0.35957 0.83958 0.78566 0.0
O778 O 0.35693 0.79892 0.81519 0.0
O779 O 0.29313 0.8721 0.72846 0.0
O780 O 0.29763 0.83711 0.81083 0.0
O781 O 0.32583 0.81228 0.83963 0.0
O782 O 0.32742 0.73398 0.78365 0.0
O783 O 0.25943 0.77689 0.78056 0.0
O784 O 0.2616 0.82436 0.76462 0.0
O785 O 0.31816 0.73642 0.83266 0.0
O786 O 0.32251 0.78692 0.76122 0.0
O787 O 0.29265 0.80677 0.72964 0.0
C788 C 0.37288 0.82219 0.80367 0.0
C789 C 0.27487 0.91722 0.73992 0.0
C790 C 0.24571 0.95491 0.75016 0.0
C791 C 0.24425 0.95944 0.71787 0.0
C792 C 0.27343 0.92217 0.70767 0.0
C793 C 0.25824 0.94325 0.69679 0.0
C794 C 0.26128 0.934 0.76136 0.0
C795 C 0.31719 0.83705 0.83575 0.0
C796 C 0.28803 0.89261 0.74988 0.0
C797 C 0.41329 0.89998 0.71267 0.0
C798 C 0.42062 0.91814 0.74288 0.0
C799 C 0.24573 0.79782 0.7696 0.0
C800 C 0.35674 0.71218 0.82104 0.0
C801 C 0.38514 0.67282 0.81866 0.0
C802 C 0.40359 0.68763 0.84749 0.0
C803 C 0.37594 0.72711 0.84951 0.0
C804 C 0.36167 0.68512 0.80538 0.0
C805 C 0.39909 0.71472 0.8627 0.0
C806 C 0.30337 0.78378 0.73539 0.0
C807 C 0.32927 0.72226 0.8102 0.0
H808 H 0.23226 0.97558 0.70904 0.0
H809 H 0.28364 0.9094 0.69067 0.0
H810 H 0.25702 0.94678 0.67188 0.0
H811 H 0.26188 0.93016 0.7862 0.0
H812 H 0.42162 0.67823 0.8581 0.0
H813 H 0.37246 0.74787 0.86212 0.0
H814 H 0.34693 0.67334 0.78349 0.0
H815 H 0.4134 0.72598 0.88497 0.0
Eu816 Eu 0.55557 0.08784 1.00105 0.0
C817 C 0.60915 0.0173 0.10981 0.0
N818 N 0.58538 1.00516 0.08609 0.0
C819 C 0.60243 0.95918 0.07806 0.0
C820 C 0.63069 1.00061 0.11851 0.0
C821 C 0.58182 0.97663 0.07006 0.0
C822 C 0.62696 0.97119 0.10243 0.0
C823 C 0.63786 0.06038 0.14838 0.0
C824 C 0.61272 0.04698 0.12438 0.0
C825 C 0.65908 0.04367 0.15737 0.0
C826 C 0.65552 1.01388 0.14247 0.0
Eu827 Eu 0.55192 0.03592 0.07272 0.0
N828 N 0.59219 0.06295 0.11451 0.0
C829 C 0.64112 0.09027 0.16261 0.0
C830 C 0.59504 0.09189 0.12937 0.0
C831 C 0.61948 0.10599 0.1532 0.0
H832 H 0.56289 0.96719 0.05121 0.0
H833 H 0.62147 0.129 0.16445 0.0
H834 H 0.54628 0.15788 0.02054 0.0
H835 H 0.49321 0.99991 0.89997 0.0
H836 H 0.57875 0.10461 0.12384 0.0
H837 H 0.66009 0.10133 0.18107 0.0
H838 H 0.53411 0.02286 0.94327 0.0
H839 H 0.59944 0.93652 0.06535 0.0
H840 H 0.67846 0.05365 0.17571 0.0
H841 H 0.67226 1.00138 0.14947 0.0
H842 H 0.51144 0.18957 1.00466 0.0
H843 H 0.64304 0.95768 0.10843 0.0
H844 H 0.45494 0.02785 0.88303 0.0
N845 N 0.52454 0.12026 0.98493 0.0
C846 C 0.50192 0.10897 0.95985 0.0
C847 C 0.50843 0.16693 0.99187 0.0
C848 C 0.48136 0.12637 0.94996 0.0
C849 C 0.52805 0.14882 1.00094 0.0
C850 C 0.4849 0.15564 0.96631 0.0
N851 N 0.519 0.06347 0.95466 0.0
C852 C 0.51748 0.03544 0.93806 0.0
C853 C 0.4752 0.06739 0.91851 0.0
C854 C 0.49891 0.07975 0.94442 0.0
C855 C 0.47284 0.03814 0.90292 0.0
C856 C 0.49429 0.02227 0.91251 0.0
H857 H 0.46958 0.16966 0.95943 0.0
H858 H 0.44174 0.127 0.9166 0.0
H859 H 0.43632 0.07534 0.88903 0.0
O860 O 0.59232 0.08963 0.9732 0.0
O861 O 0.50916 0.07498 0.01313 0.0
O862 O 0.52118 0.03362 0.02706 0.0
O863 O 0.58228 0.13115 0.99402 0.0
O864 O 0.56863 0.04073 0.98932 0.0
O865 O 0.54661 1.00782 0.02224 0.0
O866 O 0.52222 0.03651 0.10836 0.0
O867 O 0.59691 0.04689 0.05763 0.0
O868 O 0.58356 0.08832 0.04746 0.0
O869 O 0.5279 0.99295 0.08514 0.0
O870 O 0.53703 0.08154 0.08422 0.0
O871 O 0.55529 0.11562 0.05056 0.0
C872 C 0.50141 0.05 0.0245 0.0
C873 C 0.60095 0.1308 0.94466 0.0
C874 C 0.61787 0.12592 0.89282 0.0
C875 C 0.61234 0.1543 0.88835 0.0
C876 C 0.59551 0.15924 0.94025 0.0
C877 C 0.60095 0.17076 0.91194 0.0
C878 C 0.61139 0.11406 0.92054 0.0
C879 C 0.56057 1.01284 0.99688 0.0
C880 C 0.5978 0.11892 0.97485 0.0
C881 C 0.45777 0.11401 0.92439 0.0
C882 C 0.45466 0.08458 0.90875 0.0
C883 C 0.60381 0.07251 0.04771 0.0
C884 C 0.4948 0.99235 0.12581 0.0
C885 C 0.46809 0.9964 0.17114 0.0
C886 C 0.45525 0.9653 0.16455 0.0
C887 C 0.48227 0.96117 0.11917 0.0
C888 C 0.4877 1.00983 0.15187 0.0
C889 C 0.46247 0.94771 0.13859 0.0
C890 C 0.54271 0.10941 0.07646 0.0
C891 C 0.51532 1.00721 0.10605 0.0
H892 H 0.61737 0.16395 0.86697 0.0
H893 H 0.58743 0.17265 0.95869 0.0
H894 H 0.5969 0.1927 0.90857 0.0
H895 H 0.61498 0.09183 0.92352 0.0
H896 H 0.44 0.95472 0.17963 0.0
H897 H 0.48766 0.94733 0.09905 0.0
H898 H 0.49746 0.03394 0.15745 0.0
H899 H 0.45285 0.92367 0.13356 0.0
Eu900 Eu 0.28707 0.26275 0.27402 0.0
C901 C 0.39282 0.36123 0.35076 0.0
N902 N 0.36573 0.34572 0.35678 0.0
C903 C 0.38841 0.34257 0.41011 0.0
C904 C 0.41895 0.36694 0.37403 0.0
C905 C 0.36302 0.33798 0.38666 0.0
C906 C 0.41659 0.35642 0.4035 0.0
C907 C 0.42177 0.38962 0.31536 0.0
C908 C 0.39436 0.3725 0.32167 0.0
C909 C 0.4478 0.39489 0.33837 0.0
C910 C 0.44644 0.38341 0.36749 0.0
Eu911 Eu 0.32463 0.34099 0.31517 0.0
N912 N 0.36898 0.36676 0.2995 0.0
C913 C 0.42211 0.4012 0.2862 0.0
C914 C 0.36876 0.37939 0.27194 0.0
C915 C 0.3954 0.39628 0.26453 0.0
H916 H 0.34141 0.32924 0.39333 0.0
H917 H 0.3952 0.40589 0.24238 0.0
H918 H 0.26506 0.28278 0.20117 0.0
H919 H 0.21997 0.19889 0.3519 0.0
H920 H 0.34794 0.37718 0.25607 0.0
H921 H 0.44274 0.41445 0.28047 0.0
H922 H 0.26621 0.22681 0.33635 0.0
H923 H 0.38616 0.33581 0.43349 0.0
H924 H 0.46909 0.40795 0.33394 0.0
H925 H 0.46675 0.38777 0.38503 0.0
H926 H 0.21784 0.27998 0.16574 0.0
H927 H 0.43621 0.35939 0.42162 0.0
H928 H 0.17104 0.19264 0.31704 0.0
N929 N 0.24366 0.26252 0.23762 0.0
C930 C 0.21728 0.2468 0.24513 0.0
C931 C 0.21736 0.27097 0.18821 0.0
C932 C 0.18974 0.24386 0.22478 0.0
C933 C 0.24418 0.27322 0.2089 0.0
C934 C 0.19 0.25678 0.1965 0.0
N935 N 0.244 0.23931 0.29464 0.0
C936 C 0.24504 0.22625 0.32201 0.0
C937 C 0.19039 0.21838 0.28199 0.0
C938 C 0.21752 0.23474 0.27409 0.0
C939 C 0.19135 0.20569 0.31044 0.0
C940 C 0.21883 0.20945 0.33038 0.0
H941 H 0.16923 0.25574 0.1808 0.0
H942 H 0.14136 0.2269 0.21851 0.0
H943 H 0.14207 0.20313 0.26739 0.0
O944 O 0.28229 0.21558 0.27722 0.0
O945 O 0.25216 0.29349 0.28652 0.0
O946 O 0.27628 0.32989 0.3286 0.0
O947 O 0.28153 0.22946 0.23015 0.0
O948 O 0.30891 0.26436 0.32644 0.0
O949 O 0.30347 0.31017 0.34889 0.0
O950 O 0.31133 0.3813 0.30278 0.0
O951 O 0.36059 0.31782 0.29261 0.0
O952 O 0.33963 0.26731 0.27527 0.0
O953 O 0.33462 0.38142 0.35107 0.0
O954 O 0.30251 0.33599 0.26251 0.0
O955 O 0.31105 0.29175 0.24024 0.0
C956 C 0.2506 0.31441 0.31089 0.0
C957 C 0.29159 0.18112 0.23599 0.0
C958 C 0.31593 0.14162 0.25023 0.0
C959 C 0.30781 0.12643 0.21852 0.0
C960 C 0.28317 0.1659 0.20426 0.0
C961 C 0.29141 0.13864 0.19555 0.0
C962 C 0.30822 0.16893 0.25877 0.0
C963 C 0.30492 0.28224 0.35161 0.0
C964 C 0.27917 0.20693 0.24638 0.0
C965 C 0.16275 0.22849 0.23335 0.0
C966 C 0.16312 0.21529 0.26146 0.0
C967 C 0.36371 0.2905 0.28079 0.0
C968 C 0.31323 0.42351 0.34272 0.0
C969 C 0.29172 0.46491 0.32982 0.0
C970 C 0.29966 0.47906 0.36193 0.0
C971 C 0.32162 0.43763 0.37496 0.0
C972 C 0.29857 0.43748 0.32028 0.0
C973 C 0.31477 0.4654 0.38448 0.0
C974 C 0.31039 0.32001 0.23837 0.0
C975 C 0.32382 0.39708 0.33082 0.0
H976 H 0.31404 0.10524 0.21169 0.0
H977 H 0.26965 0.17469 0.18652 0.0
H978 H 0.28477 0.12683 0.17111 0.0
H979 H 0.31491 0.18035 0.28345 0.0
H980 H 0.29434 0.50059 0.36935 0.0
H981 H 0.33402 0.42762 0.39252 0.0
H982 H 0.29271 0.42728 0.29512 0.0
H983 H 0.32138 0.47643 0.40921 0.0
Eu984 Eu 0.57793 0.51504 0.04068 0.0
C985 C 0.53329 0.62124 0.11253 0.0
N986 N 0.51946 0.60064 0.08622 0.0
C987 C 0.47216 0.59599 0.10615 0.0
C988 C 0.51717 0.62895 0.13744 0.0
C989 C 0.48895 0.58956 0.08188 0.0
C990 C 0.48645 0.61529 0.13438 0.0
C991 C 0.57681 0.66059 0.13838 0.0
C992 C 0.56283 0.63684 0.11317 0.0
C993 C 0.56141 0.66707 0.1641 0.0
C994 C 0.53168 0.65122 0.16367 0.0
Eu995 Eu 0.54993 0.59178 0.04633 0.0
N996 N 0.57729 0.63003 0.08808 0.0
C997 C 0.60538 0.67791 0.13633 0.0
C998 C 0.60452 0.64758 0.08522 0.0
C999 C 0.61914 0.67158 0.10942 0.0
H1000 H 0.47717 0.57686 0.05919 0.0
H1001 H 0.64096 0.68518 0.10729 0.0
H1002 H 0.64999 0.52882 0.02826 0.0
H1003 H 0.4794 0.43331 0.97093 0.0
H1004 H 0.61474 0.64313 0.06415 0.0
H1005 H 0.61676 0.69651 0.15509 0.0
H1006 H 0.50694 0.47175 0.01631 0.0
H1007 H 0.44805 0.58674 0.10266 0.0
H1008 H 0.57193 0.68496 0.1839 0.0
H1009 H 0.5197 0.65722 0.18312 0.0
H1010 H 0.67987 0.51511 0.98664 0.0
H1011 H 0.47325 0.62073 0.15289 0.0
H1012 H 0.50549 0.41843 0.92589 0.0
N1013 N 0.6081 0.50435 1.00159 0.0
C1014 C 0.59388 0.4838 0.97539 0.0
C1015 C 0.65563 0.50658 0.98285 0.0
C1016 C 0.61013 0.47474 0.95116 0.0
C1017 C 0.6386 0.5149 0.00616 0.0
C1018 C 0.64129 0.4867 0.95501 0.0
N1019 N 0.54799 0.47976 0.99714 0.0
C1020 C 0.51846 0.46614 0.99674 0.0
C1021 C 0.5482 0.44899 0.94663 0.0
C1022 C 0.56314 0.47102 0.97318 0.0
C1023 C 0.5177 0.4355 0.9458 0.0
C1024 C 0.50287 0.44391 0.97114 0.0
H1025 H 0.65458 0.48011 0.93706 0.0
H1026 H 0.60715 0.44648 0.9054 0.0
H1027 H 0.55298 0.42404 0.90137 0.0
O1028 O 0.56921 0.46898 0.05247 0.0
O1029 O 0.56454 0.53204 0.99289 0.0
O1030 O 0.52692 0.55621 1.00333 0.0
O1031 O 0.61454 0.49878 0.06594 0.0
O1032 O 0.5348 0.51352 0.06187 0.0
O1033 O 0.51151 0.54873 0.04154 0.0
O1034 O 0.56205 0.62468 0.01224 0.0
O1035 O 0.58297 0.58602 0.09009 0.0
O1036 O 0.57016 0.53519 0.09032 0.0
O1037 O 0.52177 0.62231 0.03519 0.0
O1038 O 0.59133 0.58821 0.02284 0.0
O1039 O 0.61571 0.5583 0.05078 0.0
C1040 C 0.54109 0.54285 0.98283 0.0
C1041 C 0.60801 0.44822 0.08019 0.0
C1042 C 0.60181 0.40678 0.11171 0.0
C1043 C 0.63028 0.40241 0.10618 0.0
C1044 C 0.63644 0.44359 0.07517 0.0
C1045 C 0.64738 0.42062 0.0879 0.0
C1046 C 0.59038 0.42949 0.09821 0.0
C1047 C 0.51038 0.52335 0.05395 0.0
C1048 C 0.59702 0.47234 0.06597 0.0
C1049 C 0.59504 0.45353 0.9243 0.0
C1050 C 0.56418 0.44072 0.92203 0.0
C1051 C 0.58167 0.56267 0.10577 0.0
C1052 C 0.5274 0.65792 0.99797 0.0
C1053 C 0.5344 0.69984 0.96667 0.0
C1054 C 0.50368 0.69985 0.96569 0.0
C1055 C 0.49668 0.65851 0.99612 0.0
C1056 C 0.54649 0.67881 0.98307 0.0
C1057 C 0.48504 0.67936 0.98026 0.0
C1058 C 0.61647 0.58235 0.03622 0.0
C1059 C 0.53814 0.63518 0.01563 0.0
H1060 H 0.63932 0.38489 0.1162 0.0
H1061 H 0.65007 0.45755 0.06104 0.0
H1062 H 0.66926 0.41701 0.08373 0.0
H1063 H 0.5684 0.433 0.10235 0.0
H1064 H 0.49402 0.71588 0.95346 0.0
H1065 H 0.4814 0.64272 0.00699 0.0
H1066 H 0.57017 0.6786 0.98401 0.0
H1067 H 0.46138 0.67958 0.97919 0.0
Eu1068 Eu 0.81203 0.34827 0.26721 0.0
C1069 C 0.75447 0.24499 0.34519 0.0
N1070 N 0.78245 0.26407 0.35186 0.0
C1071 C 0.77891 0.27017 0.40826 0.0
C1072 C 0.73714 0.23921 0.37001 0.0
C1073 C 0.79551 0.27493 0.38308 0.0
C1074 C 0.74939 0.25281 0.40163 0.0
C1075 C 0.71665 0.20679 0.3076 0.0
C1076 C 0.74416 0.22868 0.31413 0.0
C1077 C 0.69868 0.20263 0.33189 0.0
C1078 C 0.70887 0.21876 0.36296 0.0
Eu1079 Eu 0.80756 0.26833 0.30667 0.0
N1080 N 0.76185 0.23284 0.29074 0.0
C1081 C 0.70876 0.18861 0.27729 0.0
C1082 C 0.75613 0.21283 0.26291 0.0
C1083 C 0.72901 0.19113 0.25514 0.0
H1084 H 0.81889 0.28689 0.38896 0.0
H1085 H 0.72411 0.17591 0.2325 0.0
H1086 H 0.81043 0.3185 0.18656 0.0
H1087 H 0.89041 0.44458 0.3414 0.0
H1088 H 0.77297 0.21296 0.24742 0.0
H1089 H 0.68787 0.1715 0.27142 0.0
H1090 H 0.84424 0.40331 0.32747 0.0
H1091 H 0.7891 0.27947 0.43285 0.0
H1092 H 0.67736 0.1861 0.32722 0.0
H1093 H 0.69523 0.21431 0.38175 0.0
H1094 H 0.8433 0.3247 0.1461 0.0
H1095 H 0.73679 0.24881 0.42133 0.0
H1096 H 0.92623 0.45235 0.30237 0.0
N1097 N 0.84117 0.34986 0.22422 0.0
C1098 C 0.86708 0.37212 0.2306 0.0
C1099 C 0.85054 0.33777 0.16994 0.0
C1100 C 0.88607 0.3771 0.20693 0.0
C1101 C 0.83216 0.33381 0.19374 0.0
C1102 C 0.87776 0.3592 0.17664 0.0
N1103 N 0.85566 0.38667 0.28295 0.0
C1104 C 0.86063 0.40586 0.31124 0.0
C1105 C 0.90034 0.41489 0.26683 0.0
C1106 C 0.87423 0.39113 0.26037 0.0
C1107 C 0.90641 0.43388 0.29656 0.0
C1108 C 0.88634 0.42949 0.31875 0.0
H1109 H 0.89171 0.36245 0.15789 0.0
H1110 H 0.92706 0.40436 0.19575 0.0
H1111 H 0.9396 0.43724 0.24812 0.0
O1112 O 0.79635 0.38997 0.28115 0.0
O1113 O 0.86026 0.34025 0.2897 0.0
O1114 O 0.85693 0.29708 0.31551 0.0
O1115 O 0.79197 0.36978 0.23045 0.0
O1116 O 0.79877 0.33777 0.31476 0.0
O1117 O 0.8248 0.31019 0.34302 0.0
O1118 O 0.82963 0.23392 0.28441 0.0
O1119 O 0.76013 0.27487 0.28203 0.0
O1120 O 0.76266 0.32422 0.27149 0.0
O1121 O 0.8166 0.23215 0.33146 0.0
O1122 O 0.82135 0.28919 0.26514 0.0
O1123 O 0.79184 0.30704 0.23182 0.0
C1124 C 0.8733 0.32152 0.30617 0.0
C1125 C 0.77279 0.41458 0.23954 0.0
C1126 C 0.74708 0.45544 0.24894 0.0
C1127 C 0.74249 0.45632 0.21566 0.0
C1128 C 0.768 0.41585 0.20629 0.0
C1129 C 0.75288 0.43659 0.19449 0.0
C1130 C 0.76217 0.43444 0.26092 0.0
C1131 C 0.81768 0.33594 0.33975 0.0
C1132 C 0.78697 0.39106 0.25097 0.0
C1133 C 0.91233 0.40036 0.21369 0.0
C1134 C 0.91943 0.41916 0.2435 0.0
C1135 C 0.74665 0.29696 0.27435 0.0
C1136 C 0.85513 0.20742 0.32108 0.0
C1137 C 0.8847 0.16902 0.31544 0.0
C1138 C 0.89797 0.17805 0.34782 0.0
C1139 C 0.86892 0.21602 0.35348 0.0
C1140 C 0.86305 0.18363 0.30203 0.0
C1141 C 0.89002 0.20129 0.36669 0.0
C1142 C 0.80271 0.28461 0.23879 0.0
C1143 C 0.82917 0.21966 0.30925 0.0
H1144 H 0.73063 0.47222 0.20605 0.0
H1145 H 0.77568 0.40062 0.18925 0.0
H1146 H 0.7491 0.43727 0.16886 0.0
H1147 H 0.76545 0.43352 0.28657 0.0
H1148 H 0.91437 0.16679 0.35864 0.0
H1149 H 0.86304 0.23388 0.36892 0.0
H1150 H 0.85207 0.17617 0.27731 0.0
H1151 H 0.90025 0.20792 0.3917 0.0
Eu1152 Eu 0.0532 0.58736 0.4989 0.0
C1153 C 0.1107 0.51982 0.61404 0.0
N1154 N 0.08671 0.50586 0.59136 0.0
C1155 C 0.1089 0.46338 0.58104 0.0
C1156 C 0.13549 0.50654 0.6203 0.0
C1157 C 0.08523 0.47785 0.5752 0.0
C1158 C 0.13436 0.47796 0.60341 0.0
C1159 C 0.13461 0.56249 0.65512 0.0
C1160 C 0.11017 0.54736 0.63109 0.0
C1161 C 0.1601 0.55018 0.66038 0.0
C1162 C 0.16045 0.52214 0.64313 0.0
Eu1163 Eu 0.05077 0.53399 0.57734 0.0
N1164 N 0.08507 0.55848 0.6253 0.0
C1165 C 0.13225 0.58896 0.67386 0.0
C1166 C 0.08124 0.58198 0.64644 0.0
C1167 C 0.10506 0.59818 0.6702 0.0
H1168 H 0.06587 0.46676 0.55761 0.0
H1169 H 0.10231 0.61763 0.68586 0.0
H1170 H 0.04335 0.65682 0.5252 0.0
H1171 H 0.99998 0.51038 0.38737 0.0
H1172 H 0.05994 0.58854 0.64546 0.0
H1173 H 0.15062 0.60147 0.69233 0.0
H1174 H 0.03768 0.5295 0.43556 0.0
H1175 H 0.10764 0.44119 0.56801 0.0
H1176 H 0.17925 0.5617 0.6784 0.0
H1177 H 0.17992 0.51253 0.64797 0.0
H1178 H 1.00827 0.689 0.5119 0.0
H1179 H 0.15286 0.46688 0.60763 0.0
H1180 H 0.96186 0.53913 0.3719 0.0
N1181 N 0.02297 0.62159 0.48616 0.0
C1182 C 1.00204 0.61265 0.45911 0.0
C1183 C 1.0061 0.66747 0.497 0.0
C1184 C 0.98146 0.63044 0.45068 0.0
C1185 C 0.02577 0.64896 0.50462 0.0
C1186 C 0.9836 0.65803 0.47014 0.0
N1187 N 0.02097 0.56867 0.44879 0.0
C1188 C 0.02125 0.5424 0.42975 0.0
C1189 C 0.97905 0.57532 0.41204 0.0
C1190 C 1.00106 0.58554 0.4398 0.0
C1191 C 0.97851 0.54781 0.39329 0.0
C1192 C 0.99992 0.53147 0.402 0.0
H1193 H 0.96824 0.67235 0.46444 0.0
H1194 H 0.94321 0.63343 0.4166 0.0
H1195 H 0.94093 0.58505 0.38296 0.0
O1196 O 0.09212 0.58885 0.47419 0.0
O1197 O 1.00517 0.56283 0.49617 0.0
O1198 O 0.03064 0.5485 0.53449 0.0
O1199 O 0.08058 0.6305 0.49243 0.0
O1200 O 0.06326 0.53884 0.48813 0.0
O1201 O 0.04917 0.50695 0.52652 0.0
O1202 O 1.00933 0.52997 0.59827 0.0
O1203 O 0.09537 0.54612 0.56074 0.0
O1204 O 0.0799 0.58558 0.54589 0.0
O1205 O 0.0263 0.49024 0.58588 0.0
O1206 O 0.04365 0.58254 0.59079 0.0
O1207 O 0.04694 0.61204 0.54858 0.0
C1208 C 1.0041 0.54663 0.51877 0.0
C1209 C 0.10243 0.62936 0.4449 0.0
C1210 C 0.1221 0.62355 0.39467 0.0
C1211 C 0.11368 0.64988 0.38694 0.0
C1212 C 0.09419 0.65591 0.43735 0.0
C1213 C 0.09981 0.66605 0.40838 0.0
C1214 C 0.11635 0.61341 0.42344 0.0
C1215 C 0.05787 0.51164 0.49803 0.0
C1216 C 0.09751 0.61809 0.47515 0.0
C1217 C 0.95939 0.6202 0.42323 0.0
C1218 C 0.95813 0.59268 0.40403 0.0
C1219 C 0.1007 0.57032 0.54746 0.0
C1220 C 0.9991 0.49075 0.6297 0.0
C1221 C 0.97872 0.49762 0.67946 0.0
C1222 C 0.98121 0.46858 0.68477 0.0
C1223 C 1.00152 0.4616 0.63514 0.0
C1224 C 0.98765 0.50876 0.6521 0.0
C1225 C 0.99269 0.45066 0.66266 0.0
C1226 C 0.04307 0.60813 0.57879 0.0
C1227 C 1.00635 0.50129 0.59964 0.0
H1228 H 0.11813 0.65802 0.36463 0.0
H1229 H 0.08351 0.6688 0.45373 0.0
H1230 H 0.09351 0.68649 0.40258 0.0
H1231 H 0.12266 0.59284 0.42901 0.0
H1232 H 0.97395 0.45971 0.70583 0.0
H1233 H 1.00983 0.44711 0.61791 0.0
H1234 H 0.98503 0.53108 0.64809 0.0
H1235 H 0.99438 0.42814 0.66664 0.0
Eu1236 Eu 0.84835 0.78628 0.30388 0.0
C1237 C 0.7358 0.83645 0.23958 0.0
N1238 N 0.76109 0.84854 0.26147 0.0
C1239 C 0.76597 0.89578 0.2413 0.0
C1240 C 0.72464 0.8538 0.21761 0.0
C1241 C 0.77576 0.87799 0.26308 0.0
C1242 C 0.74035 0.88363 0.21837 0.0
C1243 C 0.69411 0.79378 0.21726 0.0
C1244 C 0.72094 0.80659 0.23908 0.0
C1245 C 0.68262 0.81129 0.19594 0.0
C1246 C 0.69805 0.84106 0.19582 0.0
Eu1247 Eu 0.77358 0.81694 0.29867 0.0
N1248 N 0.73332 0.78969 0.2589 0.0
C1249 C 0.68038 0.76331 0.21646 0.0
C1250 C 0.71979 0.76014 0.25842 0.0
C1251 C 0.69342 0.74638 0.237 0.0
H1252 H 0.79439 0.88833 0.28168 0.0
H1253 H 0.68296 0.72283 0.23667 0.0
H1254 H 0.83412 0.71457 0.31824 0.0
H1255 H 0.92465 0.8873 0.37595 0.0
H1256 H 0.72871 0.74723 0.27489 0.0
H1257 H 0.65999 0.75257 0.19979 0.0
H1258 H 0.8902 0.85792 0.32845 0.0
H1259 H 0.77784 0.91907 0.24265 0.0
H1260 H 0.66224 0.80172 0.17882 0.0
H1261 H 0.68918 0.8541 0.17881 0.0
H1262 H 0.84803 0.68549 0.36073 0.0
H1263 H 0.73259 0.89761 0.20176 0.0
H1264 H 0.93907 0.86206 0.42193 0.0
N1265 N 0.85943 0.75671 0.34369 0.0
C1266 C 0.87933 0.77146 0.37019 0.0
C1267 C 0.85673 0.70969 0.36389 0.0
C1268 C 0.88824 0.75569 0.395 0.0
C1269 C 0.84844 0.72626 0.34003 0.0
C1270 C 0.8766 0.72448 0.39159 0.0
N1271 N 0.88222 0.81711 0.34812 0.0
C1272 C 0.89483 0.84693 0.34875 0.0
C1273 C 0.91156 0.81818 0.39988 0.0
C1274 C 0.89098 0.80242 0.37252 0.0
C1275 C 0.92323 0.84917 0.40133 0.0
C1276 C 0.91503 0.86353 0.37551 0.0
H1277 H 0.88306 0.71156 0.41001 0.0
H1278 H 0.9157 0.75964 0.4415 0.0
H1279 H 0.93598 0.81431 0.44585 0.0
O1280 O 0.89062 0.79955 0.28399 0.0
O1281 O 0.82974 0.79793 0.3512 0.0
O1282 O 0.81034 0.83842 0.34126 0.0
O1283 O 0.87192 0.7521 0.2875 0.0
O1284 O 0.84832 0.82852 0.28021 0.0
O1285 O 0.81749 0.85322 0.30629 0.0
O1286 O 0.73873 0.80432 0.33021 0.0
O1287 O 0.78299 0.79834 0.24806 0.0
O1288 O 0.8198 0.77049 0.25427 0.0
O1289 O 0.74799 0.8488 0.31491 0.0
O1290 O 0.77437 0.77343 0.31948 0.0
O1291 O 0.80528 0.74908 0.29296 0.0
C1292 C 0.8216 0.82287 0.36175 0.0
C1293 C 0.91835 0.76227 0.26476 0.0
C1294 C 0.95962 0.77097 0.23328 0.0
C1295 C 0.96324 0.74155 0.23519 0.0
C1296 C 0.9225 0.73291 0.26644 0.0
C1297 C 0.94484 0.7227 0.25178 0.0
C1298 C 0.93723 0.7815 0.24827 0.0
C1299 C 0.84062 0.85366 0.29053 0.0
C1300 C 0.8932 0.7716 0.27871 0.0
C1301 C 0.90862 0.7714 0.42224 0.0
C1302 C 0.92017 0.80255 0.42472 0.0
C1303 C 0.79959 0.78037 0.23599 0.0
C1304 C 0.70857 0.84079 0.34815 0.0
C1305 C 0.66657 0.83316 0.37942 0.0
C1306 C 0.66495 0.86333 0.37862 0.0
C1307 C 0.70612 0.87091 0.34809 0.0
C1308 C 0.68844 0.82163 0.36389 0.0
C1309 C 0.68451 0.88196 0.36311 0.0
C1310 C 0.78124 0.74839 0.30722 0.0
C1311 C 0.73176 0.83058 0.33067 0.0
H1312 H 0.98042 0.73318 0.22381 0.0
H1313 H 0.90829 0.71768 0.27891 0.0
H1314 H 0.94779 0.70002 0.25312 0.0
H1315 H 0.93422 0.80413 0.24653 0.0
H1316 H 0.64826 0.87254 0.39008 0.0
H1317 H 0.72093 0.88619 0.33623 0.0
H1318 H 0.68977 0.79831 0.36415 0.0
H1319 H 0.68291 0.90516 0.36269 0.0
Eu1320 Eu 0.77627 0.31086 0.84731 0.0
C1321 C 0.8507 0.26252 0.7323 0.0
N1322 N 0.86184 0.28605 0.75651 0.0
C1323 C 0.9096 0.27219 0.76292 0.0
C1324 C 0.86883 0.24271 0.72253 0.0
C1325 C 0.89076 0.29105 0.77191 0.0
C1326 C 0.8986 0.24789 0.73811 0.0
C1327 C 0.80835 0.23219 0.69394 0.0
C1328 C 0.82071 0.25731 0.71835 0.0
C1329 C 0.82648 0.21279 0.68383 0.0
C1330 C 0.85661 0.21799 0.69814 0.0
Eu1331 Eu 0.82844 0.31542 0.77331 0.0
N1332 N 0.80329 0.27574 0.7297 0.0
C1333 C 0.7779 0.22674 0.68084 0.0
C1334 C 0.77328 0.26978 0.71707 0.0
C1335 C 0.76033 0.24565 0.69249 0.0
H1336 H 0.89938 0.30963 0.79124 0.0
H1337 H 0.73655 0.24136 0.68295 0.0
H1338 H 0.70454 0.31821 0.83917 0.0
H1339 H 0.8683 0.36959 0.94663 0.0
H1340 H 0.75832 0.2825 0.72587 0.0
H1341 H 0.76763 0.20773 0.66214 0.0
H1342 H 0.84102 0.32738 0.90648 0.0
H1343 H 0.93251 0.27628 0.77531 0.0
H1344 H 0.81727 0.19341 0.66527 0.0
H1345 H 0.8702 0.20253 0.69043 0.0
H1346 H 0.67576 0.35558 0.85569 0.0
H1347 H 0.91315 0.2331 0.7314 0.0
H1348 H 0.8453 0.41256 0.96109 0.0
N1349 N 0.74575 0.34235 0.86775 0.0
C1350 C 0.75955 0.36643 0.89045 0.0
C1351 C 0.6994 0.35912 0.86546 0.0
C1352 C 0.74395 0.38851 0.9007 0.0
C1353 C 0.7159 0.3381 0.85582 0.0
C1354 C 0.7136 0.38471 0.88767 0.0
N1355 N 0.80335 0.34669 0.89358 0.0
C1356 C 0.83079 0.34617 0.91027 0.0
C1357 C 0.80403 0.39336 0.92779 0.0
C1358 C 0.78927 0.36882 0.90361 0.0
C1359 C 0.83322 0.39413 0.94247 0.0
C1360 C 0.84631 0.37003 0.93424 0.0
H1361 H 0.70084 0.40112 0.89496 0.0
H1362 H 0.74748 0.43088 0.93154 0.0
H1363 H 0.80015 0.43512 0.95539 0.0
O1364 O 0.77457 0.27374 0.87467 0.0
O1365 O 0.78628 0.35765 0.83539 0.0
O1366 O 0.82324 0.34053 0.81932 0.0
O1367 O 0.73301 0.28219 0.85201 0.0
O1368 O 0.82366 0.29793 0.85778 0.0
O1369 O 0.85645 0.31767 0.82324 0.0
O1370 O 0.82767 0.35008 0.74316 0.0
O1371 O 0.81758 0.26918 0.78625 0.0
O1372 O 0.77863 0.2849 0.80041 0.0
O1373 O 0.87046 0.3458 0.76765 0.0
O1374 O 0.78121 0.32644 0.7602 0.0
O1375 O 0.74864 0.31409 0.79803 0.0
C1376 C 0.80926 0.36233 0.82063 0.0
C1377 C 0.73368 0.2656 0.90265 0.0
C1378 C 0.73893 0.24893 0.95445 0.0
C1379 C 0.7167 0.26355 0.96377 0.0
C1380 C 0.71106 0.28007 0.91156 0.0
C1381 C 0.7026 0.27893 0.94212 0.0
C1382 C 0.74718 0.2499 0.92409 0.0
C1383 C 0.85136 0.30502 0.84944 0.0
C1384 C 0.74528 0.26757 0.87223 0.0
C1385 C 0.75899 0.41354 0.92368 0.0
C1386 C 0.78899 0.41597 0.93718 0.0
C1387 C 0.79313 0.26345 0.79875 0.0
C1388 C 0.87061 0.36713 0.71936 0.0
C1389 C 0.86606 0.38403 0.6675 0.0
C1390 C 0.89701 0.38657 0.66716 0.0
C1391 C 0.90168 0.36974 0.71913 0.0
C1392 C 0.85295 0.37451 0.69345 0.0
C1393 C 0.91478 0.37943 0.69301 0.0
C1394 C 0.75408 0.32316 0.76987 0.0
C1395 C 0.85688 0.35981 0.74763 0.0
H1396 H 0.71008 0.2627 0.9874 0.0
H1397 H 0.70017 0.29236 0.89525 0.0
H1398 H 0.68523 0.29005 0.94907 0.0
H1399 H 0.76471 0.23874 0.91736 0.0
H1400 H 0.90738 0.39448 0.64718 0.0
H1401 H 0.9159 0.36484 0.73928 0.0
H1402 H 0.82909 0.37344 0.69355 0.0
H1403 H 0.93875 0.38176 0.69298 0.0
Eu1404 Eu 0.78635 0.76409 0.77274 0.0
C1405 C 0.89327 0.85995 0.85308 0.0
N1406 N 0.86515 0.84613 0.85806 0.0
C1407 C 0.88429 0.84499 0.91317 0.0
C1408 C 0.91809 0.86601 0.87804 0.0
C1409 C 0.86022 0.8401 0.88807 0.0
C1410 C 0.91339 0.85746 0.90797 0.0
C1411 C 0.92598 0.88412 0.8179 0.0
C1412 C 0.89733 0.86882 0.82314 0.0
C1413 C 0.95057 0.89012 0.84283 0.0
C1414 C 0.94669 0.88078 0.87263 0.0
Eu1415 Eu 0.82656 0.84205 0.81412 0.0
N1416 N 0.87339 0.86193 0.79893 0.0
C1417 C 0.92913 0.89277 0.78764 0.0
C1418 C 0.87612 0.87122 0.76979 0.0
C1419 C 0.90404 0.88637 0.76352 0.0
H1420 H 0.83779 0.83276 0.8935 0.0
H1421 H 0.90606 0.89359 0.7403 0.0
H1422 H 0.762 0.78315 0.70022 0.0
H1423 H 0.72304 0.70233 0.85474 0.0
H1424 H 0.85666 0.86806 0.75178 0.0
H1425 H 0.95075 0.90466 0.78275 0.0
H1426 H 0.76828 0.72971 0.83672 0.0
H1427 H 0.88029 0.83969 0.93673 0.0
H1428 H 0.97275 0.9018 0.83924 0.0
H1429 H 0.96597 0.88519 0.89148 0.0
H1430 H 0.7144 0.77448 0.66336 0.0
H1431 H 0.93195 0.86086 0.92744 0.0
H1432 H 0.6735 0.69291 0.82017 0.0
N1433 N 0.74202 0.76204 0.73698 0.0
C1434 C 0.71641 0.74523 0.74502 0.0
C1435 C 0.71463 0.76656 0.68645 0.0
C1436 C 0.68876 0.7392 0.72406 0.0
C1437 C 0.74159 0.77202 0.70784 0.0
C1438 C 0.6881 0.75034 0.69472 0.0
N1439 N 0.74448 0.7403 0.79479 0.0
C1440 C 0.74668 0.72827 0.82274 0.0
C1441 C 0.69132 0.71704 0.78322 0.0
C1442 C 0.71767 0.73417 0.77454 0.0
C1443 C 0.69325 0.70615 0.81273 0.0
C1444 C 0.7211 0.71165 0.83247 0.0
H1445 H 0.66724 0.74633 0.67822 0.0
H1446 H 0.64125 0.71735 0.71697 0.0
H1447 H 0.6435 0.69791 0.76848 0.0
O1448 O 0.78712 0.7181 0.7786 0.0
O1449 O 0.75119 0.79282 0.78838 0.0
O1450 O 0.77608 0.83658 0.82184 0.0
O1451 O 0.77635 0.72878 0.73064 0.0
O1452 O 0.81044 0.76783 0.82477 0.0
O1453 O 0.80217 0.81236 0.8468 0.0
O1454 O 0.82503 0.88569 0.80059 0.0
O1455 O 0.86187 0.81428 0.79771 0.0
O1456 O 0.83707 0.76995 0.76515 0.0
O1457 O 0.83484 0.88156 0.85106 0.0
O1458 O 0.80381 0.83823 0.76193 0.0
O1459 O 0.80877 0.79291 0.73795 0.0
C1460 C 0.75023 0.8176 0.80814 0.0
C1461 C 0.79405 0.68423 0.7349 0.0
C1462 C 0.82106 0.64564 0.74537 0.0
C1463 C 0.8123 0.63172 0.71317 0.0
C1464 C 0.78539 0.67048 0.70263 0.0
C1465 C 0.79482 0.64445 0.69175 0.0
C1466 C 0.81256 0.67216 0.75582 0.0
C1467 C 0.80492 0.78491 0.8497 0.0
C1468 C 0.77989 0.70782 0.74789 0.0
C1469 C 0.66264 0.72214 0.7328 0.0
C1470 C 0.66391 0.7111 0.76221 0.0
C1471 C 0.86285 0.78955 0.77802 0.0
C1472 C 0.81124 0.92043 0.83809 0.0
C1473 C 0.78319 0.95574 0.82024 0.0
C1474 C 0.77881 0.96448 0.85186 0.0
C1475 C 0.80711 0.92907 0.86999 0.0
C1476 C 0.79921 0.93394 0.81338 0.0
C1477 C 0.79087 0.95111 0.87678 0.0
C1478 C 0.80891 0.82142 0.73663 0.0
C1479 C 0.83001 0.89936 0.8303 0.0
H1480 H 0.81834 0.61078 0.70485 0.0
H1481 H 0.77056 0.67926 0.68618 0.0
H1482 H 0.78777 0.63359 0.667 0.0
H1483 H 0.81944 0.68258 0.78082 0.0
H1484 H 0.76652 0.98182 0.8572 0.0
H1485 H 0.81663 0.91912 0.8896 0.0
H1486 H 0.80291 0.92821 0.78875 0.0
H1487 H 0.78771 0.95785 0.9013 0.0
Eu1488 Eu 0.60148 0.58085 0.57279 0.0
C1489 C 0.49609 0.47594 0.48578 0.0
N1490 N 0.51065 0.50402 0.48177 0.0
C1491 C 0.50197 0.48906 0.42439 0.0
C1492 C 0.48515 0.45292 0.45912 0.0
C1493 C 0.51256 0.51117 0.4515 0.0
C1494 C 0.48886 0.45964 0.42827 0.0
C1495 C 0.47119 0.44323 0.52028 0.0
C1496 C 0.48902 0.47119 0.51603 0.0
C1497 C 0.46228 0.41959 0.49424 0.0
C1498 C 0.46924 0.4245 0.46376 0.0
Eu1499 Eu 0.52642 0.54007 0.52922 0.0
N1500 N 0.4971 0.49472 0.54056 0.0
C1501 C 0.46138 0.44039 0.55003 0.0
C1502 C 0.48569 0.49268 0.56872 0.0
C1503 C 0.46806 0.46549 0.5741 0.0
H1504 H 0.52192 0.53418 0.44835 0.0
H1505 H 0.45968 0.46395 0.59681 0.0
H1506 H 0.58009 0.60317 0.64484 0.0
H1507 H 0.68097 0.64737 0.50679 0.0
H1508 H 0.49019 0.51186 0.58713 0.0
H1509 H 0.44759 0.41934 0.55418 0.0
H1510 H 0.65097 0.60109 0.52015 0.0
H1511 H 0.50371 0.4948 0.40053 0.0
H1512 H 0.44885 0.39787 0.49709 0.0
H1513 H 0.46115 0.40662 0.44358 0.0
H1514 H 0.58287 0.6503 0.68036 0.0
H1515 H 0.48043 0.44266 0.40716 0.0
H1516 H 0.68127 0.69687 0.53749 0.0
N1517 N 0.60293 0.62443 0.60991 0.0
C1518 C 0.61884 0.65092 0.6028 0.0
C1519 C 0.59268 0.65081 0.65839 0.0
C1520 C 0.621 0.67854 0.62281 0.0
C1521 C 0.5908 0.62399 0.6378 0.0
C1522 C 0.60735 0.67824 0.65058 0.0
N1523 N 0.63186 0.62378 0.55693 0.0
C1524 C 0.64987 0.62246 0.53341 0.0
C1525 C 0.65096 0.67771 0.56887 0.0
C1526 C 0.63345 0.65056 0.57569 0.0
C1527 C 0.66753 0.67653 0.54331 0.0
C1528 C 0.66739 0.6487 0.52588 0.0
H1529 H 0.60848 0.69901 0.66642 0.0
H1530 H 0.63789 0.72704 0.62927 0.0
H1531 H 0.66498 0.72622 0.5829 0.0
O1532 O 0.64469 0.57301 0.56623 0.0
O1533 O 0.56872 0.61347 0.56278 0.0
O1534 O 0.54184 0.58841 0.51514 0.0
O1535 O 0.63772 0.58993 0.61436 0.0
O1536 O 0.598 0.58024 0.51819 0.0
O1537 O 0.56238 0.53819 0.49606 0.0
O1538 O 0.49567 0.56778 0.54332 0.0
O1539 O 0.54585 0.50536 0.55679 0.0
O1540 O 0.5966 0.52714 0.56707 0.0
O1541 O 0.48409 0.53578 0.49773 0.0
O1542 O 0.52702 0.55732 0.58292 0.0
O1543 O 0.57381 0.5569 0.60754 0.0
C1544 C 0.55193 0.6144 0.53507 0.0
C1545 C 0.67736 0.56385 0.60862 0.0
C1546 C 0.71621 0.53757 0.59701 0.0
C1547 C 0.72255 0.53487 0.62966 0.0
C1548 C 0.68327 0.56098 0.6413 0.0
C1549 C 0.70587 0.5464 0.65172 0.0
C1550 C 0.69402 0.5522 0.58685 0.0
C1551 C 0.58528 0.55977 0.49322 0.0
C1552 C 0.65658 0.58147 0.59643 0.0
C1553 C 0.6369 0.7056 0.6148 0.0
C1554 C 0.65206 0.70517 0.58814 0.0
C1555 C 0.57392 0.50281 0.56551 0.0
C1556 C 0.44896 0.5657 0.50951 0.0
C1557 C 0.40461 0.57621 0.52815 0.0
C1558 C 0.39219 0.57794 0.49658 0.0
C1559 C 0.43697 0.56716 0.47776 0.0
C1560 C 0.43305 0.57066 0.53462 0.0
C1561 C 0.40858 0.57361 0.47138 0.0
C1562 C 0.54495 0.55477 0.60877 0.0
C1563 C 0.47679 0.5565 0.51677 0.0
H1564 H 0.74028 0.52401 0.63795 0.0
H1565 H 0.67097 0.57039 0.6587 0.0
H1566 H 0.71074 0.54442 0.67695 0.0
H1567 H 0.69057 0.55544 0.56176 0.0
H1568 H 0.37009 0.5828 0.4916 0.0
H1569 H 0.44942 0.56317 0.45811 0.0
H1570 H 0.44227 0.56911 0.55913 0.0
H1571 H 0.3992 0.57494 0.44698 0.0
Eu1572 Eu 1.01548 0.5516 0.07817 0.0
C1573 C 0.11836 0.6103 0.99944 0.0
N1574 N 0.09789 0.58322 0.99246 0.0
C1575 C 0.08886 0.58988 0.93702 0.0
C1576 C 0.12368 0.6288 0.97546 0.0
C1577 C 0.0844 0.57224 0.96145 0.0
C1578 C 0.10819 0.61848 0.94415 0.0
C1579 C 0.15674 0.64688 0.03784 0.0
C1580 C 0.13515 0.61918 0.03031 0.0
C1581 C 0.1611 0.66572 0.01426 0.0
C1582 C 0.14477 0.65664 0.98315 0.0
Eu1583 Eu 0.0934 0.55567 0.036 0.0
N1584 N 0.13045 0.6007 0.05297 0.0
C1585 C 0.17378 0.65458 0.06872 0.0
C1586 C 0.14875 0.60687 0.08198 0.0
C1587 C 0.17012 0.63421 0.0907 0.0
H1588 H 0.07097 0.54953 0.95502 0.0
H1589 H 0.18415 0.63927 0.11409 0.0
H1590 H 0.0395 0.55587 0.15914 0.0
H1591 H 0.92825 0.46711 0.997 0.0
H1592 H 0.14763 0.5904 0.09789 0.0
H1593 H 0.19053 0.67568 0.07542 0.0
H1594 H 0.96702 0.51478 0.01279 0.0
H1595 H 0.0778 0.58115 0.91258 0.0
H1596 H 0.17748 0.68714 0.01967 0.0
H1597 H 0.1489 0.67119 0.96505 0.0
H1598 H 0.03036 0.52436 0.20118 0.0
H1599 H 0.11177 0.632 0.92507 0.0
H1600 H 0.91752 0.43264 0.03693 0.0
N1601 N 1.01066 0.52353 0.12139 0.0
C1602 C 0.98932 0.497 0.11417 0.0
C1603 C 0.01905 0.5162 0.17672 0.0
C1604 C 0.98286 0.47867 0.1381 0.0
C1605 C 0.02465 0.53377 0.15243 0.0
C1606 C 0.99832 0.48842 0.16949 0.0
N1607 N 0.97929 0.50631 0.06013 0.0
C1608 C 0.96305 0.49947 0.02992 0.0
C1609 C 0.95076 0.46117 0.07521 0.0
C1610 C 0.97305 0.48836 0.08299 0.0
C1611 C 0.93482 0.45335 0.0438 0.0
C1612 C 0.94087 0.47268 0.02113 0.0
H1613 H 0.99386 0.47502 0.18851 0.0
H1614 H 0.95562 0.43721 0.14836 0.0
H1615 H 0.92777 0.42182 0.09337 0.0
O1616 O 0.97479 0.56777 0.06096 0.0
O1617 O 0.02462 0.50352 0.05824 0.0
O1618 O 0.06415 0.50655 0.02759 0.0
O1619 O 0.99074 0.56995 0.11252 0.0
O1620 O 0.02595 0.56691 0.03182 0.0
O1621 O 0.05058 0.53911 1.00226 0.0
O1622 O 0.13389 0.53866 0.0538 0.0
O1623 O 0.08425 0.60352 0.05531 0.0
O1624 O 0.04416 0.6014 0.08499 0.0
O1625 O 0.11739 0.53603 1.00232 0.0
O1626 O 0.07802 0.54008 0.08008 0.0
O1627 O 0.05757 0.56906 0.11247 0.0
C1628 C 0.04145 0.49038 0.03951 0.0
C1629 C 0.9465 0.58919 0.10037 0.0
C1630 C 0.90584 0.61468 0.08879 0.0
C1631 C 0.90228 0.61747 0.12142 0.0
C1632 C 0.94257 0.59221 0.13298 0.0
C1633 C 0.92062 0.60632 0.14338 0.0
C1634 C 0.92806 0.6006 0.07819 0.0
C1635 C 0.02605 0.5481 0.00626 0.0
C1636 C 0.97107 0.5757 0.09068 0.0
C1637 C 0.96078 0.45151 0.13025 0.0
C1638 C 0.94485 0.44277 0.09893 0.0
C1639 C 0.0671 0.61719 0.07298 0.0
C1640 C 0.16111 0.51606 0.01321 0.0
C1641 C 0.19975 0.48717 0.02113 0.0
C1642 C 0.20183 0.48506 0.98813 0.0
C1643 C 0.16396 0.51374 0.98026 0.0
C1644 C 0.17948 0.50299 0.03392 0.0
C1645 C 0.18414 0.49836 0.96792 0.0
C1646 C 0.08064 0.5587 0.10628 0.0
C1647 C 0.13716 0.53018 0.024 0.0
H1648 H 0.88544 0.6286 0.12993 0.0
H1649 H 0.95663 0.58388 0.15065 0.0
H1650 H 0.91792 0.60874 0.16855 0.0
H1651 H 0.93107 0.59881 0.05306 0.0
H1652 H 0.21735 0.47305 0.97797 0.0
H1653 H 0.15025 0.5235 0.96367 0.0
H1654 H 0.17744 0.50427 0.05927 0.0
H1655 H 0.18588 0.49653 0.94251 0.0
C1656 C 0.02824 0.19413 0.03751 0.0
C1657 C 0.03374 0.20427 0.00767 0.0
C1658 C 0.03495 0.16642 0.04684 0.0
C1659 C 0.04762 0.14625 0.02712 0.0
H1660 H 1.01816 0.2076 0.05394 0.0
H1661 H 0.02943 0.16045 0.06971 0.0
S1662 S 0.07074 0.16286 0.94858 0.0
N1663 N 0.05587 0.19159 0.96001 0.0
N1664 N 0.06761 0.14104 0.9769 0.0
C1665 C 0.05399 0.15656 0.99775 0.0
C1666 C 0.04739 0.18474 0.98836 0.0
C1667 C 0.20766 0.83963 0.19407 0.0
C1668 C 0.17741 0.82726 0.19714 0.0
C1669 C 0.23221 0.83943 0.2182 0.0
C1670 C 0.22804 0.82604 0.24637 0.0
H1671 H 0.21246 0.84992 0.173 0.0
H1672 H 0.25481 0.84954 0.2144 0.0
S1673 S 0.15327 0.78675 0.26382 0.0
N1674 N 0.14494 0.80005 0.23016 0.0
N1675 N 0.19035 0.79691 0.27306 0.0
C1676 C 0.1978 0.81249 0.24881 0.0
C1677 C 0.17286 0.8138 0.22497 0.0
C1678 C 0.52519 0.90213 0.54495 0.0
C1679 C 0.52629 0.88878 0.513 0.0
C1680 C 0.52861 0.93426 0.55419 0.0
C1681 C 0.53362 0.95537 0.53221 0.0
H1682 H 0.5221 0.88769 0.56327 0.0
H1683 H 0.52816 0.94269 0.57913 0.0
S1684 S 0.53466 0.93305 0.44491 0.0
N1685 N 0.53009 0.90058 0.45898 0.0
N1686 N 0.53689 0.9592 0.47617 0.0
C1687 C 0.53384 0.94217 0.50021 0.0
C1688 C 0.53011 0.90972 0.49076 0.0
C1689 C 0.49876 0.28024 0.6582 0.0
C1690 C 0.52105 0.30666 0.67051 0.0
C1691 C 0.47577 0.26958 0.67571 0.0
C1692 C 0.47388 0.28521 0.70589 0.0
H1693 H 0.50018 0.26661 0.63589 0.0
H1694 H 0.46035 0.248 0.66648 0.0
S1695 S 0.52379 0.358 0.74625 0.0
N1696 N 0.5379 0.34997 0.71299 0.0
N1697 N 0.49418 0.33012 0.74563 0.0
C1698 C 0.4945 0.31291 0.71721 0.0
C1699 C 0.51829 0.32355 0.69963 0.0
C1700 C 0.06335 0.83058 0.62895 0.0
C1701 C 0.05354 0.83687 0.65873 0.0
C1702 C 0.07502 0.85388 0.61232 0.0
C1703 C 0.07683 0.88422 0.62458 0.0
H1704 H 0.06387 0.80768 0.61937 0.0
H1705 H 0.0843 0.84828 0.59063 0.0
S1706 S 0.04967 0.91242 0.69872 0.0
N1707 N 0.04317 0.87543 0.6979 0.0
N1708 N 0.06481 0.91926 0.66614 0.0
C1709 C 0.06477 0.89071 0.65283 0.0
C1710 C 0.05323 0.86699 0.67008 0.0
C1711 C 0.45421 0.83429 0.85309 0.0
C1712 C 0.4748 0.83756 0.83046 0.0
C1713 C 0.42218 0.82999 0.84444 0.0
C1714 C 0.40796 0.82911 0.81247 0.0
H1715 H 0.46294 0.83488 0.87819 0.0
H1716 H 0.40831 0.82733 0.86329 0.0
S1717 S 0.4499 0.83409 0.7426 0.0
N1718 N 0.47702 0.83784 0.77346 0.0
N1719 N 0.41794 0.83052 0.75763 0.0
C1720 C 0.42812 0.83236 0.78947 0.0
C1721 C 0.46087 0.83637 0.79824 0.0
C1722 C 0.54753 0.19119 0.11876 0.0
C1723 C 0.53647 0.18756 0.14815 0.0
C1724 C 0.54912 0.16623 0.09603 0.0
C1725 C 0.53916 0.13586 0.10076 0.0
H1726 H 0.55581 0.21372 0.11345 0.0
H1727 H 0.55898 0.17108 0.07483 0.0
S1728 S 0.50774 0.11335 0.17363 0.0
N1729 N 0.51545 0.15064 0.18061 0.0
N1730 N 0.51737 0.1042 0.13803 0.0
C1731 C 0.52762 0.13192 0.12997 0.0
C1732 C 0.52654 0.15744 0.15342 0.0
C1733 C 0.16213 0.3103 0.31302 0.0
C1734 C 0.16067 0.3352 0.33627 0.0
C1735 C 0.19021 0.30372 0.30484 0.0
C1736 C 0.21948 0.32138 0.31917 0.0
H1737 H 0.14118 0.29527 0.30102 0.0
H1738 H 0.18873 0.28431 0.28699 0.0
S1739 S 0.22976 0.39025 0.38032 0.0
N1740 N 0.1927 0.37804 0.3726 0.0
N1741 N 0.24368 0.36622 0.35769 0.0
C1742 C 0.21816 0.34643 0.34218 0.0
C1743 C 0.1897 0.35307 0.3505 0.0
C1744 C 1.01035 0.06423 0.18564 0.0
C1745 C 1.00623 0.03549 0.19587 0.0
C1746 C 0.02246 0.06995 0.15707 0.0
C1747 C 0.03196 0.0475 0.13766 0.0
H1748 H 1.00378 0.08253 0.19965 0.0
H1749 H 0.02479 0.09232 0.15037 0.0
S1750 S 0.02605 0.96842 0.15258 0.0
N1751 N 1.01217 0.9841 0.18287 0.0
N1752 N 0.03616 0.9953 0.13075 0.0
C1753 C 0.02837 0.01887 0.14772 0.0
C1754 C 1.01522 1.01276 0.17624 0.0
C1755 C 0.25845 0.67742 0.48508 0.0
C1756 C 0.28178 0.69118 0.51066 0.0
C1757 C 0.24446 0.69494 0.4661 0.0
C1758 C 0.25348 0.72651 0.47231 0.0
H1759 H 0.24963 0.65317 0.48097 0.0
H1760 H 0.226 0.68386 0.44707 0.0
S1761 S 0.31655 0.77318 0.53234 0.0
N1762 N 0.31569 0.73807 0.53841 0.0
N1763 N 0.28916 0.77088 0.50223 0.0
C1764 C 0.27813 0.74047 0.49596 0.0
C1765 C 0.29245 0.72275 0.51527 0.0
C1766 C 0.65079 0.04583 0.64505 0.0
C1767 C 0.66366 0.07294 0.66561 0.0
C1768 C 0.62319 0.04238 0.62575 0.0
C1769 C 0.60806 0.06603 0.62665 0.0
H1770 H 0.6611 0.0266 0.64556 0.0
H1771 H 0.61305 0.0207 0.61102 0.0
S1772 S 0.63211 0.14087 0.67777 0.0
N1773 N 0.65949 0.12347 0.68681 0.0
N1774 N 0.60707 0.11695 0.64995 0.0
C1775 C 0.62069 0.0933 0.64707 0.0
C1776 C 0.64897 0.09691 0.6665 0.0
C1777 C 0.30252 0.34295 0.94886 0.0
C1778 C 0.33052 0.35889 0.96699 0.0
C1779 C 0.29943 0.33282 0.91531 0.0
C1780 C 0.32413 0.33816 0.89823 0.0
H1781 H 0.28275 0.33829 0.96066 0.0
H1782 H 0.27745 0.32063 0.9026 0.0
S1783 S 0.40071 0.38388 0.9329 0.0
N1784 N 0.38253 0.38226 0.96414 0.0
N1785 N 0.37643 0.36412 0.90164 0.0
C1786 C 0.35184 0.35505 0.91582 0.0
C1787 C 0.35509 0.36513 0.94994 0.0
C1788 C 0.03586 0.04169 0.39078 0.0
C1789 C 1.00494 0.02932 0.37927 0.0
C1790 C 0.04757 0.04602 0.4241 0.0
C1791 C 0.02881 0.0385 0.44739 0.0
H1792 H 0.05102 0.04876 0.37404 0.0
H1793 H 0.07134 0.05615 0.43179 0.0
S1794 S 0.94747 1.0009 0.42984 0.0
N1795 N 0.95671 1.00637 0.39415 0.0
N1796 N 0.97853 0.01507 0.45603 0.0
C1797 C 0.99825 0.02503 0.43608 0.0
C1798 C 0.9864 0.02032 0.40232 0.0
C1799 C 0.31653 0.71403 0.68984 0.0
C1800 C 0.29075 0.70537 0.66664 0.0
C1801 C 0.3207 0.74013 0.71182 0.0
C1802 C 0.2988 0.75753 0.71128 0.0
H1803 H 0.33412 0.70145 0.68996 0.0
H1804 H 0.34145 0.74698 0.72885 0.0
S1805 S 0.22834 0.74427 0.65323 0.0
N1806 N 0.24402 0.716 0.64244 0.0
N1807 N 0.25114 0.76496 0.68502 0.0
C1808 C 0.273 0.74903 0.68787 0.0
C1809 C 0.26903 0.72269 0.66526 0.0
C1810 C 0.63374 0.09308 0.8129 0.0
C1811 C 0.66038 0.08339 0.82147 0.0
C1812 C 0.61945 0.10578 0.83634 0.0
C1813 C 0.63121 0.10894 0.86903 0.0
H1814 H 0.6248 0.09261 0.78787 0.0
H1815 H 0.59965 0.1141 0.82879 0.0
S1816 S 0.69635 0.08044 0.90395 0.0
N1817 N 0.69505 0.07286 0.8646 0.0
N1818 N 0.66836 0.09722 0.90919 0.0
C1819 C 0.65619 0.09667 0.87808 0.0
C1820 C 0.67075 0.08369 0.85409 0.0
C1821 C 0.30816 0.36912 0.17015 0.0
C1822 C 0.32787 0.35968 0.14989 0.0
C1823 C 0.30242 0.35614 0.1982 0.0
C1824 C 0.31608 0.33298 0.20764 0.0
H1825 H 0.29681 0.38668 0.16418 0.0
H1826 H 0.28701 0.36434 0.21261 0.0
S1827 S 0.37168 0.30184 0.1649 0.0
N1828 N 0.3623 0.32666 0.14264 0.0
N1829 N 0.35168 0.30244 0.1948 0.0
C1830 C 0.33604 0.32352 0.18773 0.0
C1831 C 0.34187 0.33676 0.15915 0.0
C1832 C 0.27887 0.02826 0.04796 0.0
C1833 C 0.26427 1.0077 0.02029 0.0
C1834 C 0.26253 0.0376 0.07128 0.0
C1835 C 0.23118 0.02716 0.06718 0.0
H1836 H 0.30328 0.03529 0.05303 0.0
H1837 H 0.27451 0.05255 0.09293 0.0
S1838 S 0.18216 0.97707 0.99664 0.0
N1839 N 0.21683 0.97961 0.98844 0.0
N1840 N 0.18558 0.9983 0.03199 0.0
C1841 C 0.21604 1.00867 0.03842 0.0
C1842 C 0.23278 0.99869 0.01493 0.0
C1843 C 0.67245 0.64892 0.01423 0.0
C1844 C 0.70094 0.64511 0.02708 0.0
C1845 C 0.64573 0.62808 0.01653 0.0
C1846 C 0.64595 0.60296 0.03298 0.0
H1847 H 0.67072 0.66819 1.00219 0.0
H1848 H 0.62457 0.63227 0.00587 0.0
S1849 S 0.71505 0.58291 0.07135 0.0
N1850 N 0.72798 0.61349 0.05574 0.0
N1851 N 0.67793 0.57628 0.06297 0.0
C1852 C 0.67443 0.59907 0.04616 0.0
C1853 C 0.70177 0.6196 0.04254 0.0
C1854 C 0.73157 0.52888 0.28427 0.0
C1855 C 0.70586 0.51943 0.29875 0.0
C1856 C 0.74614 0.50796 0.27013 0.0
C1857 C 0.73586 0.47693 0.27043 0.0
H1858 H 0.73942 0.55243 0.28195 0.0
H1859 H 0.76465 0.51594 0.2574 0.0
S1860 S 0.67266 0.44092 0.30961 0.0
N1861 N 0.67281 0.47729 0.31566 0.0
N1862 N 0.70077 0.43786 0.28938 0.0
C1863 C 0.71183 0.46731 0.28709 0.0
C1864 C 0.69663 0.48863 0.30116 0.0
C1865 C 0.92198 0.531 0.52221 0.0
C1866 C 0.91481 0.49986 0.52311 0.0
C1867 C 0.95178 0.54636 0.52383 0.0
C1868 C 0.97521 0.53095 0.5258 0.0
H1869 H 0.9044 0.54344 0.51925 0.0
H1870 H 0.95638 0.57021 0.52177 0.0
S1871 S 0.96767 0.44917 0.52827 0.0
N1872 N 0.93305 0.45422 0.52763 0.0
N1873 N 0.98911 0.48275 0.52725 0.0
C1874 C 0.96838 0.49993 0.52729 0.0
C1875 C 0.93804 0.48443 0.52689 0.0
C1876 C 0.38268 0.12181 0.29514 0.0
C1877 C 0.37092 0.11017 0.32133 0.0
C1878 C 0.36434 0.13148 0.27186 0.0
C1879 C 0.33405 0.13031 0.27455 0.0
H1880 H 0.40549 0.12129 0.29118 0.0
H1881 H 0.37374 0.13953 0.2514 0.0
S1882 S 0.29373 0.1053 0.3407 0.0
N1883 N 0.3281 0.09998 0.35008 0.0
N1884 N 0.29359 0.11961 0.30665 0.0
C1885 C 0.32251 0.12069 0.30171 0.0
C1886 C 0.34106 0.1103 0.32515 0.0
C1887 C 0.37561 0.1843 0.58247 0.0
C1888 C 0.35674 0.17289 0.55287 0.0
C1889 C 0.39442 0.1674 0.59636 0.0
C1890 C 0.39527 0.13868 0.58097 0.0
H1891 H 0.3744 0.20552 0.5961 0.0
H1892 H 0.4073 0.17621 0.62008 0.0
S1893 S 0.35421 0.1009 0.50058 0.0
N1894 N 0.34275 0.13274 0.50673 0.0
N1895 N 0.37863 0.10111 0.53282 0.0
C1896 C 0.3786 0.12814 0.55008 0.0
C1897 C 0.35909 0.1452 0.53606 0.0
C1898 C 0.71462 0.69209 0.32821 0.0
C1899 C 0.71824 0.6638 0.31453 0.0
C1900 C 0.73577 0.71886 0.32686 0.0
C1901 C 0.761 0.71883 0.31063 0.0
H1902 H 0.69528 0.69359 0.34015 0.0
H1903 H 0.73164 0.73993 0.33788 0.0
S1904 S 0.7805 0.65027 0.2703 0.0
N1905 N 0.74965 0.63707 0.28526 0.0
N1906 N 0.78763 0.68734 0.28003 0.0
C1907 C 0.76478 0.69053 0.29677 0.0
C1908 C 0.74387 0.66313 0.29934 0.0
C1909 C 0.86086 0.43659 0.856 0.0
C1910 C 0.85797 0.45347 0.83087 0.0
C1911 C 0.84533 0.40649 0.85198 0.0
C1912 C 0.82619 0.39309 0.82309 0.0
H1913 H 0.87542 0.44658 0.87857 0.0
H1914 H 0.84808 0.39371 0.87159 0.0
S1915 S 0.81157 0.42834 0.75041 0.0
N1916 N 0.83597 0.45508 0.77606 0.0
N1917 N 0.80477 0.39871 0.76937 0.0
C1918 C 0.82299 0.40987 0.79796 0.0
C1919 C 0.83952 0.44021 0.80166 0.0
C1920 C 0.11202 0.93612 0.09726 0.0
C1921 C 0.08911 0.90873 0.09092 0.0
C1922 C 0.10732 0.96482 0.08882 0.0
C1923 C 0.07922 0.96901 0.07331 0.0
H1924 H 0.13418 0.93554 0.10907 0.0
H1925 H 0.12628 0.98415 0.09472 0.0
S1926 S 1.01058 0.90563 0.05331 0.0
N1927 N 0.03639 0.88922 0.06915 0.0
N1928 N 0.02767 0.94127 0.05392 0.0
C1929 C 0.05613 0.94178 0.06744 0.0
C1930 C 0.06096 0.91264 0.07595 0.0
C1931 C 0.90208 0.27727 0.91592 0.0
C1932 C 0.93199 0.29169 0.91319 0.0
C1933 C 0.87636 0.28152 0.89564 0.0
C1934 C 0.87894 0.30089 0.87182 0.0
H1935 H 0.89848 0.26212 0.93352 0.0
H1936 H 0.85418 0.26931 0.89859 0.0
S1937 S 0.95184 0.3478 0.85819 0.0
N1938 N 0.96201 0.3281 0.88607 0.0
N1939 N 0.91471 0.33724 0.85006 0.0
C1940 C 0.90875 0.31639 0.87004 0.0
C1941 C 0.93478 0.31154 0.89003 0.0
C1942 C 0.60426 0.20562 0.5813 0.0
C1943 C 0.58214 0.22076 0.59176 0.0
C1944 C 0.59981 0.17304 0.57565 0.0
C1945 C 0.57291 0.15266 0.57991 0.0
H1946 H 0.62564 0.21911 0.57771 0.0
H1947 H 0.618 0.16376 0.56808 0.0
S1948 S 0.50697 0.17944 0.60661 0.0
N1949 N 0.53162 0.2112 0.60587 0.0
N1950 N 0.52342 0.15193 0.59533 0.0
C1951 C 0.55061 0.16764 0.59027 0.0
C1952 C 0.55514 0.20068 0.59608 0.0
C1953 C 0.62091 0.81697 0.44586 0.0
C1954 C 0.59321 0.79925 0.42903 0.0
C1955 C 0.64604 0.82492 0.43017 0.0
C1956 C 0.64471 0.81531 0.39702 0.0
H1957 H 0.6228 0.82628 0.47101 0.0
H1958 H 0.66605 0.84058 0.44357 0.0
S1959 S 0.57927 0.76474 0.34283 0.0
N1960 N 0.56721 0.76935 0.37793 0.0
N1961 N 0.61456 0.78448 0.34861 0.0
C1962 C 0.61806 0.79558 0.38046 0.0
C1963 C 0.59229 0.78755 0.39638 0.0
C1964 C 0.05543 0.27784 0.45334 0.0
C1965 C 0.06517 0.27557 0.42297 0.0
C1966 C 0.04647 0.25197 0.46795 0.0
C1967 C 0.04757 0.22308 0.45304 0.0
H1968 H 0.05296 0.29942 0.46496 0.0
H1969 H 0.03704 0.25434 0.49013 0.0
S1970 S 0.07535 0.20544 0.37604 0.0
N1971 N 0.07812 0.2423 0.38028 0.0
N1972 N 0.06185 0.19416 0.40805 0.0
C1973 C 0.05929 0.22089 0.42399 0.0
C1974 C 0.06796 0.247 0.40889 0.0
C1975 C 0.65937 0.25731 0.2491 0.0
C1976 C 0.64336 0.28052 0.25509 0.0
C1977 C 0.69187 0.26237 0.25554 0.0
C1978 C 0.7112 0.29115 0.26807 0.0
H1979 H 0.64663 0.23474 0.23895 0.0
H1980 H 0.70196 0.24345 0.2498 0.0
S1981 S 0.68223 0.36019 0.28871 0.0
N1982 N 0.65106 0.33395 0.27508 0.0
N1983 N 0.71049 0.34323 0.28646 0.0
C1984 C 0.69551 0.31449 0.27408 0.0
C1985 C 0.66247 0.30931 0.26788 0.0
C1986 C 0.58783 0.96204 0.93025 0.0
C1987 C 0.57131 0.93235 0.93101 0.0
C1988 C 0.5844 0.98771 0.95123 0.0
C1989 C 0.56397 0.9853 0.97393 0.0
H1990 H 0.60398 0.96548 0.91367 0.0
H1991 H 0.59815 1.00967 0.94976 0.0
S1992 S 0.51193 0.91339 0.98244 0.0
N1993 N 0.53187 0.90293 0.95497 0.0
N1994 N 0.52476 0.9502 0.99281 0.0
C1995 C 0.54658 0.9558 0.97391 0.0
C1996 C 0.5504 0.92979 0.95302 0.0
C1997 C 0.9517 0.79855 0.77551 0.0
C1998 C 0.95458 0.77474 0.7518 0.0
C1999 C 0.92296 0.80299 0.78375 0.0
C2000 C 0.89431 0.78411 0.76914 0.0
H2001 H 0.97201 0.81438 0.78788 0.0
H2002 H 0.92343 0.82161 0.80222 0.0
S2003 S 0.88769 0.71776 0.70577 0.0
N2004 N 0.92451 0.73173 0.71404 0.0
N2005 N 0.87224 0.73974 0.72921 0.0
C2006 C 0.89698 0.76014 0.74553 0.0
C2007 C 0.92618 0.75568 0.73705 0.0
C2008 C 0.08966 0.07433 0.90705 0.0
C2009 C 0.11837 0.07024 0.9016 0.0
C2010 C 0.07921 0.07057 0.93681 0.0
C2011 C 0.09658 0.0619 0.96271 0.0
H2012 H 0.07524 0.08101 0.88833 0.0
H2013 H 0.05719 0.07475 0.93951 0.0
S2014 S 0.17307 0.04726 0.96082 0.0
N2015 N 0.16395 0.05666 0.92505 0.0
N2016 N 0.14399 0.0487 0.97992 0.0
C2017 C 0.12511 0.05722 0.95731 0.0
C2018 C 0.13601 0.06159 0.92721 0.0
C2019 C 0.82918 0.43248 0.61812 0.0
C2020 C 0.82329 0.41498 0.58735 0.0
C2021 C 0.84099 0.42123 0.64489 0.0
C2022 C 0.84762 0.39264 0.64125 0.0
H2023 H 0.82659 0.45559 0.62122 0.0
H2024 H 0.84668 0.4355 0.66813 0.0
S2025 S 0.82962 0.33552 0.56792 0.0
N2026 N 0.81941 0.36549 0.55622 0.0
N2027 N 0.84272 0.34506 0.60678 0.0
C2028 C 0.83882 0.37379 0.61162 0.0
C2029 C 0.82625 0.38485 0.58449 0.0
C2030 C 0.48504 0.02631 0.42624 0.0
C2031 C 0.46583 0.04638 0.42487 0.0
C2032 C 0.50378 0.02639 0.4546 0.0
C2033 C 0.50428 0.04692 0.48228 0.0
H2034 H 0.48598 1.01066 0.40521 0.0
H2035 H 0.51851 1.01073 0.45452 0.0
S2036 S 0.45572 0.10188 0.49182 0.0
N2037 N 0.44595 0.0852 0.45405 0.0
N2038 N 0.48254 0.08644 0.50731 0.0
C2039 C 0.48427 0.06631 0.48161 0.0
C2040 C 0.46471 0.06581 0.45281 0.0
C2041 C 0.81877 0.75288 0.15212 0.0
C2042 C 0.79297 0.75284 0.13002 0.0
C2043 C 0.82047 0.76159 0.18583 0.0
C2044 C 0.79653 0.77085 0.19952 0.0
H2045 H 0.83786 0.74591 0.14337 0.0
H2046 H 0.84102 0.76121 0.20128 0.0
S2047 S 0.72311 0.77252 0.15215 0.0
N2048 N 0.74249 0.76147 0.12459 0.0
N2049 N 0.74561 0.77775 0.18696 0.0
C2050 C 0.77063 0.77058 0.17746 0.0
C2051 C 0.76888 0.76162 0.14321 0.0
C2052 C 0.0986 0.09168 0.69957 0.0
C2053 C 0.11242 0.07006 0.71249 0.0
C2054 C 0.08912 0.08952 0.66602 0.0
C2055 C 0.09394 0.06642 0.64328 0.0
H2056 H 0.09493 0.1105 0.71552 0.0
H2057 H 0.07811 0.10636 0.65801 0.0
S2058 S 0.12707 1.00249 0.66426 0.0
N2059 N 0.12852 0.02324 0.69943 0.0
N2060 N 0.112 0.02015 0.637 0.0
C2061 C 0.10738 0.0444 0.65596 0.0
C2062 C 0.11631 0.04605 0.69018 0.0
C2063 C 0.84363 0.40013 0.40789 0.0
C2064 C 0.81807 0.39812 0.4235 0.0
C2065 C 0.844 0.37871 0.38161 0.0
C2066 C 0.81832 0.35585 0.36931 0.0
H2067 H 0.8636 0.41809 0.41626 0.0
H2068 H 0.86416 0.38049 0.37036 0.0
S2069 S 0.74731 0.33847 0.40351 0.0
N2070 N 0.76797 0.369 0.42721 0.0
N2071 N 0.76776 0.3305 0.37553 0.0
C2072 C 0.79302 0.35295 0.3851 0.0
C2073 C 0.79309 0.37382 0.41277 0.0
C2074 C 0.47532 0.03687 0.25513 0.0
C2075 C 0.44693 0.04397 0.255 0.0
C2076 C 0.48267 0.0225 0.22719 0.0
C2077 C 0.46181 1.01504 0.19869 0.0
H2078 H 0.49095 0.0402 0.27735 0.0
H2079 H 0.504 0.01571 0.22826 0.0
S2080 S 0.38814 0.03562 0.18381 0.0
N2081 N 0.40042 0.04765 0.22255 0.0
N2082 N 0.41458 0.02039 0.16995 0.0
C2083 C 0.43496 0.02495 0.19728 0.0
C2084 C 0.42745 0.03965 0.22558 0.0
C2085 C 0.77362 0.76571 0.92752 0.0
C2086 C 0.79474 0.75144 0.94289 0.0
C2087 C 0.77726 0.77673 0.8979 0.0
C2088 C 0.80186 0.77353 0.88167 0.0
H2089 H 0.75392 0.76826 0.93836 0.0
H2090 H 0.76022 0.78732 0.88722 0.0
S2091 S 0.86508 0.74053 0.91228 0.0
N2092 N 0.84253 0.73682 0.93984 0.0
N2093 N 0.84861 0.75664 0.88445 0.0
C2094 C 0.82329 0.75974 0.89686 0.0
C2095 C 0.81993 0.74898 0.92723 0.0
C2096 C 0.86074 0.08837 0.08536 0.0
C2097 C 0.85819 0.11816 0.08426 0.0
C2098 C 0.87616 0.07469 0.0637 0.0
C2099 C 0.88833 0.0904 0.04016 0.0
H2100 H 0.84908 0.07509 0.10146 0.0
H2101 H 0.87711 0.05129 0.06411 0.0
S2102 S 0.8906 0.16972 0.02983 0.0
N2103 N 0.87162 0.16397 0.06008 0.0
N2104 N 0.90029 0.13764 0.019 0.0
C2105 C 0.888 0.12079 0.04043 0.0
C2106 C 0.87296 0.13495 0.06279 0.0
C2107 C 0.42482 0.49124 0.05163 0.0
C2108 C 0.42368 0.46425 0.06496 0.0
C2109 C 0.45254 0.51026 0.04819 0.0
C2110 C 0.48061 0.50366 0.05858 0.0
H2111 H 0.40405 0.4975 0.04315 0.0
H2112 H 0.45174 0.52987 0.03656 0.0
S2113 S 0.49004 0.43446 0.09334 0.0
N2114 N 0.45321 0.43115 0.08689 0.0
N2115 N 0.50474 0.4668 0.08194 0.0
C2116 C 0.47957 0.47656 0.07198 0.0
C2117 C 0.45141 0.45702 0.07482 0.0
C2118 C 0.39183 0.59175 0.80435 0.0
C2119 C 0.41607 0.59385 0.78664 0.0
C2120 C 0.37995 0.61705 0.81267 0.0
C2121 C 0.39149 0.64484 0.80284 0.0
H2122 H 0.38339 0.57111 0.81366 0.0
H2123 H 0.36289 0.61536 0.82837 0.0
S2124 S 0.45105 0.66057 0.75167 0.0
N2125 N 0.44867 0.62495 0.75656 0.0
N2126 N 0.42569 0.67212 0.77154 0.0
C2127 C 0.41384 0.64645 0.78295 0.0
C2128 C 0.42631 0.621 0.77499 0.0
C2129 C 0.18319 0.58268 0.54525 0.0
C2130 C 0.19429 0.61072 0.56511 0.0
C2131 C 0.1523 0.57027 0.53808 0.0
C2132 C 0.13189 0.58592 0.55003 0.0
H2133 H 0.19843 0.56978 0.53602 0.0
H2134 H 0.14435 0.54799 0.52391 0.0
S2135 S 0.14925 0.66048 0.60207 0.0
N2136 N 0.18241 0.65423 0.59588 0.0
N2137 N 0.12412 0.63083 0.58188 0.0
C2138 C 0.14247 0.61448 0.56883 0.0
C2139 C 0.17387 0.62694 0.57655 0.0
C2140 C 0.78283 1.01395 0.766 0.0
C2141 C 0.7522 1.00743 0.75262 0.0
C2142 C 0.79324 0.99585 0.78689 0.0
C2143 C 0.77325 0.97096 0.79434 0.0
H2144 H 0.79797 0.0348 0.76336 0.0
H2145 H 0.81639 1.00249 0.79901 0.0
S2146 S 0.69369 0.93942 0.758 0.0
N2147 N 0.70392 0.97054 0.74219 0.0
N2148 N 0.7239 0.93669 0.78209 0.0
C2149 C 0.74392 0.96172 0.77761 0.0
C2150 C 0.73333 0.97989 0.75615 0.0
C2151 C 0.74052 0.92491 0.53452 0.0
C2152 C 0.76626 0.93929 0.55708 0.0
C2153 C 0.71778 0.94008 0.52618 0.0
C2154 C 0.71982 0.96997 0.5404 0.0
H2155 H 0.7388 0.90253 0.52164 0.0
H2156 H 0.69951 0.92913 0.50691 0.0
S2157 S 0.77968 0.01588 0.60462 0.0
N2158 N 0.79033 0.98383 0.59652 0.0
N2159 N 0.74736 1.01209 0.58072 0.0
C2160 C 0.74383 0.98354 0.56511 0.0
C2161 C 0.76716 0.96826 0.57347 0.0
C2162 C 0.40202 0.41403 0.76752 0.0
C2163 C 0.40004 0.44192 0.78424 0.0
C2164 C 0.38236 0.38668 0.77059 0.0
C2165 C 0.35992 0.38574 0.79084 0.0
H2166 H 0.41896 0.41327 0.75191 0.0
H2167 H 0.38504 0.366 0.75707 0.0
S2168 S 0.34615 0.45227 0.84133 0.0
N2169 N 0.3738 0.46667 0.82228 0.0
N2170 N 0.33803 0.41552 0.82895 0.0
C2171 C 0.35793 0.41346 0.80795 0.0
C2172 C 0.37763 0.44137 0.80445 0.0
C2173 C 0.28546 0.68115 0.28082 0.0
C2174 C 0.25473 0.67018 0.28136 0.0
C2175 C 0.29816 0.71195 0.28798 0.0
C2176 C 0.28031 0.7327 0.29513 0.0
H2177 H 0.29981 0.6659 0.27486 0.0
H2178 H 0.32205 0.71951 0.28717 0.0
S2179 S 0.19799 0.71496 0.29804 0.0
N2180 N 0.20639 0.68189 0.28936 0.0
N2181 N 0.23011 0.74014 0.30125 0.0
C2182 C 0.2494 0.72194 0.29555 0.0
C2183 C 0.23659 0.69051 0.28895 0.0
C2184 C 0.54801 0.70153 0.53804 0.0
C2185 C 0.52981 0.70345 0.50875 0.0
C2186 C 0.55496 0.67361 0.54626 0.0
C2187 C 0.54438 0.64499 0.52596 0.0
H2188 H 0.55734 0.72202 0.55502 0.0
H2189 H 0.56896 0.67464 0.56908 0.0
S2190 S 0.49591 0.63602 0.44618 0.0
N2191 N 0.50165 0.67253 0.45935 0.0
N2192 N 0.51415 0.62174 0.47439 0.0
C2193 C 0.52621 0.64669 0.49665 0.0
C2194 C 0.5192 0.67503 0.48828 0.0
C2195 C 0.70592 0.33063 0.68956 0.0
C2196 C 0.67639 0.32857 0.69703 0.0
C2197 C 0.73071 0.32981 0.71311 0.0
C2198 C 0.72743 0.32625 0.74547 0.0
H2199 H 0.70998 0.33268 0.66517 0.0
H2200 H 0.75261 0.33137 0.7055 0.0
S2201 S 0.65497 0.32102 0.77806 0.0
N2202 N 0.64587 0.32414 0.73989 0.0
N2203 N 0.69134 0.32164 0.78294 0.0
C2204 C 0.69798 0.32458 0.75305 0.0
C2205 C 0.67293 0.32592 0.72932 0.0
C2206 C 0.02553 0.40224 0.04392 0.0
C2207 C 0.02791 0.38851 0.01252 0.0
C2208 C 0.02875 0.43445 0.05246 0.0
C2209 C 0.03488 0.45525 0.0303 0.0
H2210 H 0.02156 0.38805 0.06234 0.0
H2211 H 0.02723 0.44319 0.07701 0.0
S2212 S 0.03992 0.4316 0.94419 0.0
N2213 N 0.03409 0.39944 0.95875 0.0
N2214 N 0.04114 0.45813 0.97475 0.0
C2215 C 0.03656 0.44156 0.9989 0.0
C2216 C 0.03285 0.40907 0.99012 0.0
C2217 C 0.99714 0.79598 0.16377 0.0
C2218 C 0.02595 0.8123 0.17924 0.0
C2219 C 0.97452 0.78482 0.18158 0.0
C2220 C 0.9798 0.78991 0.21541 0.0
H2221 H 0.99253 0.79024 0.13777 0.0
H2222 H 0.95339 0.77059 0.16886 0.0
S2223 S 0.04984 0.83359 0.26768 0.0
N2224 N 0.05745 0.8349 0.23065 0.0
N2225 N 1.01467 0.81395 0.26379 0.0
C2226 C 1.00759 0.80783 0.23116 0.0
C2227 C 0.03075 0.81908 0.21315 0.0
C2228 C 0.5509 0.34036 0.1371 0.0
C2229 C 0.56359 0.34187 0.16953 0.0
C2230 C 0.56154 0.36299 0.11892 0.0
C2231 C 0.5853 0.38774 0.13257 0.0
H2232 H 0.53343 0.321 0.1253 0.0
H2233 H 0.55239 0.36021 0.0936 0.0
S2234 S 0.62451 0.40397 0.21686 0.0
N2235 N 0.59977 0.37167 0.21496 0.0
N2236 N 0.61968 0.41378 0.18063 0.0
C2237 C 0.59692 0.39045 0.16531 0.0
C2238 C 0.58608 0.36763 0.18386 0.0
C2239 C 0.96208 0.35625 0.3148 0.0
C2240 C 0.97601 0.3357 0.33051 0.0
C2241 C 0.92966 0.35204 0.30714 0.0
C2242 C 0.90868 0.32706 0.31467 0.0
H2243 H 0.97632 0.37607 0.30859 0.0
H2244 H 0.92108 0.36873 0.29522 0.0
S2245 S 0.933 0.26609 0.355 0.0
N2246 N 0.96514 0.28899 0.35245 0.0
N2247 N 0.90626 0.28117 0.33871 0.0
C2248 C 0.92267 0.30644 0.33013 0.0
C2249 C 0.95535 0.31071 0.33779 0.0
C2250 C 0.06253 0.67266 0.65141 0.0
C2251 C 0.03808 0.68698 0.64853 0.0
C2252 C 0.06426 0.64797 0.62848 0.0
C2253 C 0.04122 0.63549 0.602 0.0
H2254 H 0.08099 0.68114 0.67114 0.0
H2255 H 0.08421 0.63892 0.63127 0.0
S2256 S 0.97232 0.66433 0.58278 0.0
N2257 N 0.99058 0.68697 0.61592 0.0
N2258 N 0.99332 0.64007 0.57414 0.0
C2259 C 1.01684 0.64975 0.5986 0.0
C2260 C 1.01535 0.67539 0.62151 0.0
C2261 C 0.662 0.80888 0.81476 0.0
C2262 C 0.65942 0.83631 0.83316 0.0
C2263 C 0.69038 0.80308 0.80674 0.0
C2264 C 0.71891 0.82412 0.81634 0.0
H2265 H 0.64175 0.79125 0.80662 0.0
H2266 H 0.68976 0.78151 0.79286 0.0
S2267 S 0.7257 0.90011 0.86381 0.0
N2268 N 0.68928 0.88494 0.85987 0.0
N2269 N 0.74095 0.87461 0.84521 0.0
C2270 C 0.71641 0.85166 0.83448 0.0
C2271 C 0.68759 0.85749 0.84267 0.0
C2272 C 0.48841 0.54302 0.66988 0.0
C2273 C 0.50549 0.53791 0.69799 0.0
C2274 C 0.50148 0.54956 0.64211 0.0
C2275 C 0.53225 0.55033 0.64016 0.0
H2276 H 0.46457 0.5422 0.66929 0.0
H2277 H 0.48698 0.55375 0.62176 0.0
S2278 S 0.58812 0.54261 0.7086 0.0
N2279 N 0.55593 0.53761 0.72316 0.0
N2280 N 0.58002 0.54824 0.67102 0.0
C2281 C 0.54985 0.54638 0.66863 0.0
C2282 C 0.53665 0.54048 0.69726 0.0
C2283 C 0.78741 0.23143 0.02441 0.0
C2284 C 0.78295 0.19983 0.01732 0.0
C2285 C 0.7729 0.24737 1.00394 0.0
C2286 C 0.75387 0.2321 0.9758 0.0
H2287 H 0.80086 0.24372 0.04679 0.0
H2288 H 0.77619 0.2716 0.01034 0.0
S2289 S 0.73796 0.1506 0.94403 0.0
N2290 N 0.76045 0.15439 0.9786 0.0
N2291 N 0.73353 0.1848 0.93975 0.0
C2292 C 0.75096 0.20101 0.96715 0.0
C2293 C 0.7656 0.18471 0.98799 0.0
C2294 C 0.14223 0.60175 0.17091 0.0
C2295 C 0.16147 0.58175 0.1729 0.0
C2296 C 0.11556 0.59386 0.14931 0.0
C2297 C 0.10776 0.56581 0.12934 0.0
H2298 H 0.14724 0.623 0.18713 0.0
H2299 H 0.10107 0.60975 0.14818 0.0
S2300 S 0.14977 0.50489 0.12722 0.0
N2301 N 0.17097 0.5327 0.1542 0.0
N2302 N 0.12004 0.51736 0.11373 0.0
C2303 C 0.12677 0.54556 0.13111 0.0
C2304 C 0.15413 0.55382 0.15275 0.0
C2305 C 0.8432 0.87706 0.44185 0.0
C2306 C 0.83369 0.8589 0.46508 0.0
C2307 C 0.83949 0.86522 0.40879 0.0
C2308 C 0.82644 0.83451 0.39725 0.0
H2309 H 0.8535 0.90086 0.44921 0.0
H2310 H 0.84705 0.88029 0.3921 0.0
S2311 S 0.79605 0.77736 0.44699 0.0
N2312 N 0.80931 0.80854 0.47331 0.0
N2313 N 0.80308 0.78633 0.41159 0.0
C2314 C 0.817 0.81599 0.42005 0.0
C2315 C 0.82041 0.82813 0.45374 0.0
C2316 C 0.50452 0.51 0.89558 0.0
C2317 C 0.50903 0.53517 0.87908 0.0
C2318 C 0.51485 0.51269 0.92892 0.0
C2319 C 0.53069 0.54042 0.94731 0.0
H2320 H 0.49206 0.48811 0.88287 0.0
H2321 H 0.50965 0.49304 0.9405 0.0
S2322 S 0.54983 0.61312 0.91595 0.0
N2323 N 0.53101 0.58897 0.88414 0.0
N2324 N 0.55112 0.59348 0.94616 0.0
C2325 C 0.53575 0.56566 0.93111 0.0
C2326 C 0.52484 0.56314 0.89725 0.0
C2327 C 0.81657 0.21396 0.19738 0.0
C2328 C 0.78875 0.20096 0.17823 0.0
C2329 C 0.82082 0.24164 0.2165 0.0
C2330 C 0.79715 0.25659 0.21736 0.0
H2331 H 0.83576 0.20376 0.19566 0.0
H2332 H 0.84305 0.25176 0.23005 0.0
S2333 S 0.72002 0.23154 0.17141 0.0
N2334 N 0.73723 0.20446 0.16054 0.0
N2335 N 0.74512 0.257 0.19774 0.0
C2336 C 0.76908 0.24383 0.19848 0.0
C2337 C 0.76473 0.21545 0.17896 0.0
C2338 C 0.13659 0.57998 0.3194 0.0
C2339 C 0.1655 0.57506 0.3288 0.0
C2340 C 0.12256 0.59558 0.34103 0.0
C2341 C 0.13673 0.60612 0.3728 0.0
H2342 H 0.12563 0.57385 0.29457 0.0
H2343 H 0.10084 0.60004 0.33267 0.0
S2344 S 0.21019 0.59508 0.41071 0.0
N2345 N 0.20631 0.57903 0.37283 0.0
N2346 N 0.17952 0.60809 0.41386 0.0
C2347 C 0.16447 0.59929 0.38329 0.0
C2348 C 0.17893 0.58365 0.36117 0.0
C2349 C 0.83368 0.83329 0.65365 0.0
C2350 C 0.82726 0.86135 0.64835 0.0
C2351 C 0.8271 0.82023 0.68155 0.0
C2352 C 0.8137 0.83448 0.70569 0.0
H2353 H 0.8442 0.82138 0.63624 0.0
H2354 H 0.83315 0.79898 0.68446 0.0
S2355 S 0.7898 0.90694 0.70258 0.0
N2356 N 0.80487 0.90193 0.66942 0.0
N2357 N 0.79266 0.87764 0.72092 0.0
C2358 C 0.80643 0.8621 0.7002 0.0
C2359 C 0.81315 0.87539 0.67195 0.0
C2360 C 0.78163 0.53178 0.55342 0.0
C2361 C 0.76824 0.50961 0.52656 0.0
C2362 C 0.76462 0.54029 0.57652 0.0
C2363 C 0.73373 0.52735 0.57307 0.0
H2364 H 0.80578 0.54108 0.55796 0.0
H2365 H 0.77571 0.55682 0.59736 0.0
S2366 S 0.68705 0.47293 0.50414 0.0
N2367 N 0.72181 0.47791 0.49569 0.0
N2368 N 0.68943 0.49466 0.53895 0.0
C2369 C 0.71955 0.50723 0.54498 0.0
C2370 C 0.73693 0.49829 0.52162 0.0
C2371 C 0.20023 0.12103 0.53763 0.0
C2372 C 0.20044 0.14883 0.52636 0.0
C2373 C 0.17303 0.10116 0.54061 0.0
C2374 C 0.14469 0.10762 0.5314 0.0
H2375 H 0.22131 0.11494 0.54521 0.0
H2376 H 0.17447 0.08093 0.55087 0.0
S2377 S 0.13314 0.17793 0.50063 0.0
N2378 N 0.17009 0.18218 0.50683 0.0
N2379 N 0.11933 0.14462 0.51046 0.0
C2380 C 0.14485 0.13528 0.51958 0.0
C2381 C 0.17253 0.15583 0.5175 0.0
C2382 C 0.1834 0.98576 0.78129 0.0
C2383 C 0.19923 1.01365 0.79935 0.0
C2384 C 0.19882 0.96545 0.76737 0.0
C2385 C 0.23045 0.97223 0.77152 0.0
H2386 H 0.15898 0.98038 0.77604 0.0
H2387 H 0.18595 0.94514 0.75173 0.0
S2388 S 0.28252 0.04001 0.81993 0.0
N2389 N 0.24846 0.04552 0.82318 0.0
N2390 N 0.27723 1.00682 0.79715 0.0
C2391 C 0.24658 0.99874 0.79152 0.0
C2392 C 0.23098 0.01964 0.80546 0.0
C2393 C 0.4319 0.99248 0.03105 0.0
C2394 C 0.40873 1.0044 0.01657 0.0
C2395 C 0.46186 1.00792 0.03419 0.0
C2396 C 0.46956 0.03595 0.02341 0.0
H2397 H 0.42701 0.97075 0.03933 0.0
H2398 H 0.47908 0.99739 0.04445 0.0
S2399 S 0.41684 0.07738 0.98509 0.0
N2400 N 0.39504 0.04602 0.99197 0.0
N2401 N 0.45158 0.07561 0.99882 0.0
C2402 C 0.4465 0.04859 0.00981 0.0
C2403 C 0.41597 0.03262 0.00612 0.0
C2404 C 0.84247 0.61483 0.82129 0.0
C2405 C 0.86935 0.60676 0.81576 0.0
C2406 C 0.82702 0.62779 0.79836 0.0
C2407 C 0.83779 0.63217 0.76909 0.0
H2408 H 0.83292 0.61017 0.84284 0.0
H2409 H 0.80606 0.63357 0.80308 0.0
S2410 S 0.90657 0.61327 0.74307 0.0
N2411 N 0.90599 0.60331 0.77922 0.0
N2412 N 0.87663 0.62754 0.73592 0.0
C2413 C 0.86475 0.62433 0.76352 0.0
C2414 C 0.88071 0.61168 0.78702 0.0
C2415 C 0.83479 0.63078 0.04796 0.0
C2416 C 0.84519 0.65964 0.03984 0.0
C2417 C 0.85501 0.61504 0.06149 0.0
C2418 C 0.88622 0.62736 0.06671 0.0
H2419 H 0.81083 0.62122 0.04607 0.0
H2420 H 0.84611 0.59392 0.06972 0.0
S2421 S 0.92514 0.69988 0.0452 0.0
N2422 N 0.88886 0.69843 0.03484 0.0
N2423 N 0.92692 0.6683 0.05977 0.0
C2424 C 0.89708 0.65492 0.05624 0.0
C2425 C 0.87649 0.67124 0.04293 0.0
C2426 C 0.24424 0.16545 0.80807 0.0
C2427 C 0.21452 0.16487 0.8139 0.0
C2428 C 0.2644 0.19265 0.8056 0.0
C2429 C 0.25642 0.22083 0.81036 0.0
H2430 H 0.25186 0.1446 0.80458 0.0
H2431 H 0.28607 0.19111 0.79923 0.0
S2432 S 0.17967 0.23088 0.82252 0.0
N2433 N 0.17705 0.19432 0.82113 0.0
N2434 N 0.21492 0.24509 0.81864 0.0
C2435 C 0.22644 0.22015 0.81591 0.0
C2436 C 0.20564 0.19241 0.81726 0.0
C2437 C 0.35613 0.93989 0.30234 0.0
C2438 C 0.35759 0.96072 0.32997 0.0
C2439 C 0.34025 0.91014 0.30004 0.0
C2440 C 0.32588 0.9001 0.32524 0.0
H2441 H 0.36746 0.94651 0.28244 0.0
H2442 H 0.33895 0.89505 0.27833 0.0
S2443 S 0.32129 0.94663 0.40181 0.0
N2444 N 0.34203 0.97016 0.38242 0.0
N2445 N 0.31219 0.91383 0.37782 0.0
C2446 C 0.32601 0.92107 0.3524 0.0
C2447 C 0.34203 0.95152 0.35484 0.0
C2448 C 0.60823 0.4295 0.57519 0.0
C2449 C 0.58772 0.4103 0.59088 0.0
C2450 C 0.60446 0.45891 0.5679 0.0
C2451 C 0.5794 0.47143 0.57482 0.0
H2452 H 0.62796 0.42205 0.56892 0.0
H2453 H 0.62136 0.47181 0.55616 0.0
S2454 S 0.51921 0.43187 0.61675 0.0
N2455 N 0.54153 0.408 0.61379 0.0
N2456 N 0.5343 0.4609 0.59983 0.0
C2457 C 0.55891 0.45236 0.59049 0.0
C2458 C 0.56307 0.42293 0.59849 0.0
C2459 C 0.43309 0.79788 0.38324 0.0
C2460 C 0.43175 0.79167 0.41505 0.0
C2461 C 0.40779 0.80243 0.36297 0.0
C2462 C 0.37907 0.80063 0.3727 0.0
H2463 H 0.45421 0.79975 0.37382 0.0
H2464 H 0.41109 0.80756 0.33932 0.0
S2465 S 0.3627 0.7851 0.45401 0.0
N2466 N 0.39876 0.78455 0.45549 0.0
N2467 N 0.35144 0.79185 0.41755 0.0
C2468 C 0.37729 0.79411 0.40451 0.0
C2469 C 0.40334 0.79 0.42545 0.0
C2470 C 0.0778 0.7009 0.11758 0.0
C2471 C 0.08437 0.72049 0.09432 0.0
C2472 C 0.07257 0.66848 0.11071 0.0
C2473 C 0.07385 0.65266 0.08004 0.0
H2474 H 0.07655 0.71076 0.14182 0.0
H2475 H 0.06762 0.65562 0.13001 0.0
S2476 S 0.08721 0.69138 0.00886 0.0
N2477 N 0.08981 0.71982 0.03794 0.0
N2478 N 0.08053 0.66025 0.02542 0.0
C2479 C 0.08014 0.67179 0.0564 0.0
C2480 C 0.08518 0.70491 0.06333 0.0
C2481 C 0.09017 0.3191 0.89709 0.0
C2482 C 0.09062 0.30262 0.92312 0.0
C2483 C 0.11605 0.32741 0.8824 0.0
C2484 C 0.14301 0.31879 0.89258 0.0
H2485 H 0.07023 0.32706 0.8892 0.0
H2486 H 0.11541 0.34187 0.86399 0.0
S2487 S 0.15445 0.27168 0.95623 0.0
N2488 N 0.11942 0.27558 0.95624 0.0
N2489 N 0.16757 0.29041 0.92803 0.0
C2490 C 0.14303 0.30061 0.91702 0.0
C2491 C 0.11697 0.29271 0.93243 0.0
C2492 C 0.55125 0.74538 0.90047 0.0
C2493 C 0.56761 0.77361 0.91744 0.0
C2494 C 0.54366 0.72026 0.91623 0.0
C2495 C 0.55219 0.72217 0.94963 0.0
H2496 H 0.54271 0.74298 0.87503 0.0
H2497 H 0.52903 0.69974 0.90259 0.0
S2498 S 0.59915 0.78918 1.00456 0.0
N2499 N 0.59523 0.80082 0.96913 0.0
N2500 N 0.58068 0.75341 0.99864 0.0
C2501 C 0.57068 0.74938 0.96649 0.0
C2502 C 0.5784 0.77516 0.95045 0.0
C2503 C 0.16221 0.81083 0.76331 0.0
C2504 C 0.14244 0.78248 0.7499 0.0
C2505 C 0.19464 0.81529 0.76959 0.0
C2506 C 0.21021 0.79191 0.76271 0.0
H2507 H 0.1525 0.83003 0.76924 0.0
H2508 H 0.20775 0.83763 0.78016 0.0
S2509 S 0.1704 0.71511 0.7203 0.0
N2510 N 0.14237 0.73163 0.72615 0.0
N2511 N 0.2018 0.74016 0.73648 0.0
C2512 C 0.19074 0.76388 0.74788 0.0
C2513 C 0.15769 0.75922 0.74191 0.0
C2514 C 0.08153 0.46131 0.42818 0.0
C2515 C 0.07047 0.43124 0.43329 0.0
C2516 C 0.07743 0.48687 0.44877 0.0
C2517 C 0.06158 0.48396 0.47545 0.0
H2518 H 0.09385 0.46523 0.40829 0.0
H2519 H 0.08704 0.50919 0.44374 0.0
S2520 S 0.0249 0.41007 0.49732 0.0
N2521 N 0.04132 0.40046 0.46635 0.0
N2522 N 0.03267 0.44732 0.50338 0.0
C2523 C 0.04964 0.45386 0.47999 0.0
C2524 C 0.05428 0.42802 0.45949 0.0
C2525 C 0.44155 0.30116 0.2447 0.0
C2526 C 0.45601 0.27804 0.25415 0.0
C2527 C 0.41303 0.30543 0.25375 0.0
C2528 C 0.39548 0.28617 0.27198 0.0
H2529 H 0.45261 0.31664 0.23013 0.0
H2530 H 0.40432 0.32392 0.24563 0.0
S2531 S 0.42184 0.2224 0.30429 0.0
N2532 N 0.44941 0.23635 0.2848 0.0
N2533 N 0.39652 0.24308 0.29972 0.0
C2534 C 0.40957 0.26299 0.28152 0.0
C2535 C 0.43915 0.2593 0.27327 0.0
C2536 C 0.62178 0.59607 0.4251 0.0
C2537 C 0.61514 0.57268 0.39852 0.0
C2538 C 0.61165 0.59174 0.45491 0.0
C2539 C 0.59534 0.56343 0.46051 0.0
H2540 H 0.6346 0.61822 0.42275 0.0
H2541 H 0.61642 0.6111 0.47363 0.0
S2542 S 0.57395 0.49388 0.39949 0.0
N2543 N 0.59122 0.51985 0.38002 0.0
N2544 N 0.57463 0.51111 0.43631 0.0
C2545 C 0.58906 0.53969 0.43418 0.0
C2546 C 0.5984 0.54442 0.40338 0.0
C2547 C 0.34505 0.93783 0.11332 0.0
C2548 C 0.32588 0.919 0.0868 0.0
C2549 C 0.35787 0.92546 0.13865 0.0
C2550 C 0.35135 0.89413 0.13823 0.0
H2551 H 0.35197 0.96197 0.11347 0.0
H2552 H 0.37387 0.94029 0.15796 0.0
S2553 S 0.29784 0.83604 0.07793 0.0
N2554 N 0.29776 0.86813 0.06386 0.0
N2555 N 0.32132 0.84499 0.11235 0.0
C2556 C 0.32998 0.87541 0.11364 0.0
C2557 C 0.3173 0.88788 0.08759 0.0
C2558 C 0.96134 0.56199 0.95102 0.0
C2559 C 0.96209 0.54339 0.92247 0.0
C2560 C 0.98198 0.56312 0.9784 0.0
C2561 C 1.00344 0.54522 0.97794 0.0
H2562 H 0.9454 0.57642 0.95193 0.0
H2563 H 0.98139 0.57848 0.99977 0.0
S2564 S 1.01173 0.49023 0.90939 0.0
N2565 N 0.98407 0.50526 0.8954 0.0
N2566 N 0.0223 0.50648 0.94721 0.0
C2567 C 1.00324 0.52541 0.94979 0.0
C2568 C 0.98265 0.52471 0.92188 0.0
C2569 C 0.30252 0.27952 0.64654 0.0
C2570 C 0.28855 0.24926 0.63319 0.0
C2571 C 0.30577 0.28999 0.68011 0.0
C2572 C 0.29604 0.27053 0.7021 0.0
H2573 H 0.31108 0.2953 0.63095 0.0
H2574 H 0.31665 0.31342 0.68902 0.0
S2575 S 0.25687 0.18971 0.68021 0.0
N2576 N 0.26349 0.20046 0.64541 0.0
N2577 N 0.27116 0.21972 0.70779 0.0
C2578 C 0.2821 0.24035 0.68916 0.0
C2579 C 0.27797 0.22988 0.65504 0.0
C2580 C 0.59188 0.54753 0.19414 0.0
C2581 C 0.61163 0.57409 0.21141 0.0
C2582 C 0.58232 0.54423 0.16043 0.0
C2583 C 0.59239 0.56708 0.14194 0.0
H2584 H 0.58356 0.5291 0.20684 0.0
H2585 H 0.5668 0.52342 0.14875 0.0
S2586 S 0.64931 0.63843 0.17453 0.0
N2587 N 0.64347 0.62226 0.20668 0.0
N2588 N 0.62696 0.61555 0.14378 0.0
C2589 C 0.61327 0.59316 0.15884 0.0
C2590 C 0.62248 0.59676 0.19326 0.0
C2591 C 0.29146 0.87997 0.9034 0.0
C2592 C 0.3186 0.89927 0.91917 0.0
C2593 C 0.29123 0.85968 0.87607 0.0
C2594 C 0.31821 0.85774 0.86455 0.0
H2595 H 0.27028 0.8808 0.91196 0.0
H2596 H 0.26992 0.84525 0.86403 0.0
S2597 S 0.39533 0.90151 0.89828 0.0
N2598 N 0.37327 0.91473 0.92169 0.0
N2599 N 0.37268 0.87468 0.87126 0.0
C2600 C 0.3456 0.87579 0.88072 0.0
C2601 C 0.34582 0.89726 0.90782 0.0
C2602 C 0.9708 0.54479 0.75514 0.0
C2603 C 0.93928 0.53811 0.75406 0.0
C2604 C 0.98372 0.53347 0.72946 0.0
C2605 C 0.96539 0.51555 0.7021 0.0
H2606 H 0.98566 0.55686 0.77679 0.0
H2607 H 1.00807 0.53708 0.73185 0.0
S2608 S 0.88209 0.49728 0.68445 0.0
N2609 N 0.89017 0.51666 0.72117 0.0
N2610 N 0.91483 0.49543 0.67286 0.0
C2611 C 0.93405 0.51142 0.69924 0.0
C2612 C 0.92083 0.52284 0.72531 0.0
C2613 C 0.30568 0.23347 0.42061 0.0
C2614 C 0.29304 0.24863 0.44483 0.0
C2615 C 0.30958 0.2443 0.39098 0.0
C2616 C 0.30099 0.27092 0.3837 0.0
H2617 H 0.31274 0.21289 0.42454 0.0
H2618 H 0.31944 0.23159 0.37358 0.0
S2619 S 0.26596 0.31895 0.43816 0.0
N2620 N 0.27163 0.29175 0.45881 0.0
N2621 N 0.27845 0.31177 0.40374 0.0
C2622 C 0.28818 0.2862 0.4077 0.0
C2623 C 0.28433 0.27521 0.43789 0.0
C2624 C 0.38069 0.61603 0.59884 0.0
C2625 C 0.35085 0.59937 0.59647 0.0
C2626 C 0.39929 0.60711 0.5778 0.0
C2627 C 0.38844 0.58107 0.5549 0.0
H2628 H 0.38805 0.6382 0.61338 0.0
H2629 H 0.42092 0.62202 0.57734 0.0
S2630 S 0.31704 0.52415 0.54825 0.0
N2631 N 0.31472 0.55163 0.57631 0.0
N2632 N 0.3504 0.5346 0.53693 0.0
C2633 C 0.36112 0.56149 0.55657 0.0
C2634 C 0.34218 0.57053 0.57796 0.0
C2635 C 0.92719 0.98584 0.54411 0.0
C2636 C 0.92643 0.96463 0.5658 0.0
C2637 C 0.95431 1.00582 0.54095 0.0
C2638 C 0.98203 1.00583 0.55959 0.0
H2639 H 0.90669 0.98656 0.52877 0.0
H2640 H 0.95359 0.0209 0.52319 0.0
S2641 S 0.99204 0.95667 0.62209 0.0
N2642 N 0.95572 0.94611 0.60741 0.0
N2643 N 1.00634 0.98368 0.60211 0.0
C2644 C 0.98139 0.98526 0.58202 0.0
C2645 C 0.95379 0.96473 0.58497 0.0
C2646 C 0.93683 0.12273 0.28529 0.0
C2647 C 0.91923 0.09305 0.28114 0.0
C2648 C 0.92442 0.14764 0.29297 0.0
C2649 C 0.89398 0.14384 0.297 0.0
H2650 H 0.9608 0.12673 0.28417 0.0
H2651 H 0.93924 0.16998 0.29806 0.0
S2652 S 0.8375 0.07115 0.28609 0.0
N2653 N 0.86908 0.06137 0.27901 0.0
N2654 N 0.84586 0.10845 0.29401 0.0
C2655 C 0.87553 0.1145 0.29068 0.0
C2656 C 0.88815 0.08899 0.28261 0.0
C2657 C 0.6763 0.13009 0.07136 0.0
C2658 C 0.6975 0.11246 0.0666 0.0
C2659 C 0.64558 0.11741 0.06326 0.0
C2660 C 0.63541 0.08678 0.05029 0.0
H2661 H 0.6834 0.15361 0.08231 0.0
H2662 H 0.62981 0.13127 0.06866 0.0
S2663 S 0.6816 0.03207 0.02948 0.0
N2664 N 0.70635 0.0637 0.04546 0.0
N2665 N 0.64808 0.03975 0.03029 0.0
C2666 C 0.65624 0.06929 0.04395 0.0
C2667 C 0.68753 0.08216 0.0522 0.0
C2668 C 0.27499 0.50392 0.25918 0.0
C2669 C 0.24632 0.5085 0.26298 0.0
C2670 C 0.28932 0.48834 0.28024 0.0
C2671 C 0.27545 0.4781 0.30589 0.0
H2672 H 0.28709 0.51418 0.24139 0.0
H2673 H 0.31196 0.48588 0.27771 0.0
S2674 S 0.19948 0.48202 0.32387 0.0
N2675 N 0.20341 0.49932 0.29211 0.0
N2676 N 0.23093 0.47042 0.33208 0.0
C2677 C 0.24603 0.4806 0.30842 0.0
C2678 C 0.23118 0.49574 0.28667 0.0
C2679 C 0.23951 0.42695 0.0412 0.0
C2680 C 0.2673 0.44389 0.05857 0.0
C2681 C 0.21593 0.4408 0.03241 0.0
C2682 C 0.21917 0.47207 0.04077 0.0
H2683 H 0.23649 0.40309 0.03254 0.0
H2684 H 0.19589 0.42739 0.01675 0.0
S2685 S 0.28492 0.52569 0.09109 0.0
N2686 N 0.29502 0.49298 0.08772 0.0
N2687 N 0.25039 0.51895 0.07088 0.0
C2688 C 0.24555 0.48879 0.06075 0.0
C2689 C 0.26976 0.47472 0.06967 0.0
C2690 C 0.9031 0.91094 0.26345 0.0
C2691 C 0.90097 0.93901 0.27949 0.0
C2692 C 0.88316 0.8838 0.26662 0.0
C2693 C 0.86052 0.88331 0.28658 0.0
H2694 H 0.9202 0.90993 0.24808 0.0
H2695 H 0.8858 0.86293 0.25347 0.0
S2696 S 0.84835 0.95054 0.33751 0.0
N2697 N 0.87559 0.9645 0.3177 0.0
N2698 N 0.83969 0.91372 0.32532 0.0
C2699 C 0.85898 0.91125 0.30372 0.0
C2700 C 0.87873 0.93895 0.29975 0.0
C2701 C 0.78054 0.17999 0.79681 0.0
C2702 C 0.75218 0.16958 0.77748 0.0
C2703 C 0.79306 0.21088 0.80527 0.0
C2704 C 0.77721 0.23204 0.79531 0.0
H2705 H 0.79358 0.16425 0.80454 0.0
H2706 H 0.81562 0.2183 0.81887 0.0
S2707 S 0.70144 0.21645 0.74597 0.0
N2708 N 0.70808 0.18286 0.74951 0.0
N2709 N 0.73137 0.24097 0.76649 0.0
C2710 C 0.74823 0.22204 0.77734 0.0
C2711 C 0.73576 0.19067 0.76808 0.0
loop_
_geom_bond_atom_site_label_1
_geom_bond_atom_site_label_2
_geom_bond_distance
_geom_bond_site_symmetry_2
_ccdc_geom_bond_type
In0 O1 2.294 . S
In0 O2 2.326 . S
In0 O6 2.266 . S
In0 O7 2.326 . S
In0 O8 2.266 . S
In0 O9 2.326 . S
In0 O11 2.294 . S
In0 O12 2.326 . S
O1 In0 2.294 . S
O1 C10 1.240 . S
O2 In0 2.326 . S
O2 C10 1.252 . S
C3 O6 1.252 1_655 S
C3 O7 1.260 1_655 S
C4 O11 1.240 . S
C4 O12 1.252 . S
C5 O8 1.252 . S
C5 O9 1.260 . S
O6 In0 2.266 . S
O6 C3 1.252 1_455 S
O7 In0 2.326 . S
O7 C3 1.260 1_455 S
O8 In0 2.266 . S
O8 C5 1.252 . S
O9 In0 2.326 . S
O9 C5 1.260 . S
C10 O1 1.240 . S
C10 O2 1.252 . S
O11 In0 2.294 . S
O11 C4 1.240 . S
O12 In0 2.326 . S
O12 C4 1.252 . S
In13 O14 2.294 . S
In13 O15 2.326 . S
In13 O19 2.266 . S
In13 O20 2.326 . S
In13 O21 2.273 . S
In13 O22 2.326 1_455 S
In13 O24 2.294 . S
In13 O25 2.326 . S
O14 In13 2.294 . S
O14 C23 1.240 . S
O15 In13 2.326 . S
O15 C23 1.252 . S
C16 O19 1.252 . S
C16 O20 1.260 . S
C17 O24 1.240 . S
C17 O25 1.252 . S
C18 O21 1.243 1_655 S
C18 O22 1.260 . S
O19 In13 2.266 . S
O19 C16 1.252 . S
O20 In13 2.326 . S
O20 C16 1.260 . S
O21 In13 2.273 . S
O21 C18 1.243 1_455 S
O22 In13 2.326 1_655 S
O22 C18 1.260 . S
C23 O14 1.240 . S
C23 O15 1.252 . S
O24 In13 2.294 . S
O24 C17 1.240 . S
O25 In13 2.326 . S
O25 C17 1.252 . S
In26 O27 2.294 . S
In26 O28 2.326 . S
In26 O32 2.266 . S
In26 O33 2.326 . S
In26 O34 2.266 . S
In26 O35 2.326 . S
In26 O37 2.294 . S
In26 O38 2.326 . S
O27 In26 2.294 . S
O27 C36 1.240 . S
O28 In26 2.326 . S
O28 C36 1.252 . S
C29 O32 1.252 . S
C29 O33 1.260 . S
C30 O37 1.240 . S
C30 O38 1.252 . S
C31 O34 1.252 . S
C31 O35 1.260 . S
O32 In26 2.266 . S
O32 C29 1.252 . S
O33 In26 2.326 . S
O33 C29 1.260 . S
O34 In26 2.266 . S
O34 C31 1.252 . S
O35 In26 2.326 . S
O35 C31 1.260 . S
C36 O27 1.240 . S
C36 O28 1.252 . S
O37 In26 2.294 . S
O37 C30 1.240 . S
O38 In26 2.326 . S
O38 C30 1.252 . S
In39 O40 2.294 . S
In39 O41 2.326 . S
In39 O45 2.266 . S
In39 O46 2.326 . S
In39 O47 2.266 . S
In39 O48 2.326 . S
In39 O50 2.294 . S
In39 O51 2.326 . S
O40 In39 2.294 . S
O40 C49 1.240 . S
O41 In39 2.326 . S
O41 C49 1.252 . S
C42 O45 1.252 . S
C42 O46 1.260 . S
C43 O50 1.240 . S
C43 O51 1.252 . S
C44 O47 1.252 . S
C44 O48 1.260 . S
O45 In39 2.266 . S
O45 C42 1.252 . S
O46 In39 2.326 . S
O46 C42 1.260 . S
O47 In39 2.266 . S
O47 C44 1.252 . S
O48 In39 2.326 . S
O48 C44 1.260 . S
C49 O40 1.240 . S
C49 O41 1.252 . S
O50 In39 2.294 . S
O50 C43 1.240 . S
O51 In39 2.326 . S
O51 C43 1.252 . S
In52 O53 2.294 . S
In52 O54 2.326 . S
In52 O58 2.266 . S
In52 O59 2.326 . S
In52 O60 2.266 . S
In52 O61 2.326 . S
In52 O63 2.294 . S
In52 O64 2.326 . S
O53 In52 2.294 . S
O53 C62 1.240 . S
O54 In52 2.326 . S
O54 C62 1.252 . S
C55 O58 1.252 . S
C55 O59 1.260 . S
C56 O63 1.240 . S
C56 O64 1.252 . S
C57 O60 1.252 . S
C57 O61 1.260 . S
O58 In52 2.266 . S
O58 C55 1.252 . S
O59 In52 2.326 . S
O59 C55 1.260 . S
O60 In52 2.266 . S
O60 C57 1.252 . S
O61 In52 2.326 . S
O61 C57 1.260 . S
C62 O53 1.240 . S
C62 O54 1.252 . S
O63 In52 2.294 . S
O63 C56 1.240 . S
O64 In52 2.326 . S
O64 C56 1.252 . S
In65 O66 2.294 . S
In65 O67 2.326 . S
In65 O71 2.266 . S
In65 O72 2.326 . S
In65 O73 2.266 . S
In65 O74 2.326 . S
In65 O76 2.294 . S
In65 O77 2.326 . S
O66 In65 2.294 . S
O66 C75 1.240 . S
O67 In65 2.326 . S
O67 C75 1.252 . S
C68 O71 1.252 . S
C68 O72 1.260 . S
C69 O76 1.240 . S
C69 O77 1.252 . S
C70 O73 1.252 . S
C70 O74 1.260 . S
O71 In65 2.266 . S
O71 C68 1.252 . S
O72 In65 2.326 . S
O72 C68 1.260 . S
O73 In65 2.266 . S
O73 C70 1.252 . S
O74 In65 2.326 . S
O74 C70 1.260 . S
C75 O66 1.240 . S
C75 O67 1.252 . S
O76 In65 2.294 . S
O76 C69 1.240 . S
O77 In65 2.326 . S
O77 C69 1.252 . S
In78 O79 2.294 . S
In78 O80 2.326 . S
In78 O84 2.266 . S
In78 O85 2.326 . S
In78 O86 2.266 . S
In78 O87 2.326 . S
In78 O89 2.294 . S
In78 O90 2.326 . S
O79 In78 2.294 . S
O79 C88 1.240 . S
O80 In78 2.326 . S
O80 C88 1.252 . S
C81 O84 1.252 . S
C81 O85 1.260 . S
C82 O89 1.240 . S
C82 O90 1.252 . S
C83 O86 1.252 . S
C83 O87 1.260 . S
O84 In78 2.266 . S
O84 C81 1.252 . S
O85 In78 2.326 . S
O85 C81 1.260 . S
O86 In78 2.266 . S
O86 C83 1.252 . S
O87 In78 2.326 . S
O87 C83 1.260 . S
C88 O79 1.240 . S
C88 O80 1.252 . S
O89 In78 2.294 . S
O89 C82 1.240 . S
O90 In78 2.326 . S
O90 C82 1.252 . S
In91 O92 2.294 1_556 S
In91 O93 2.327 . S
In91 O97 2.266 1_556 S
In91 O98 2.326 . S
In91 O99 2.266 1_455 S
In91 O100 2.326 1_455 S
In91 O102 2.294 . S
In91 O103 2.326 . S
O92 In91 2.294 1_554 S
O92 C101 1.240 1_554 S
O93 In91 2.327 . S
O93 C101 1.252 . S
C94 O97 1.252 1_556 S
C94 O98 1.260 . S
C95 O102 1.240 . S
C95 O103 1.252 . S
C96 O99 1.252 . S
C96 O100 1.260 . S
O97 In91 2.266 1_554 S
O97 C94 1.252 1_554 S
O98 In91 2.326 . S
O98 C94 1.260 . S
O99 In91 2.266 1_655 S
O99 C96 1.252 . S
O100 In91 2.326 1_655 S
O100 C96 1.260 . S
C101 O92 1.240 1_556 S
C101 O93 1.252 . S
O102 In91 2.294 . S
O102 C95 1.240 . S
O103 In91 2.326 . S
O103 C95 1.252 . S
In104 O105 2.294 . S
In104 O106 2.326 . S
In104 O110 2.266 . S
In104 O111 2.326 . S
In104 O112 2.266 1_545 S
In104 O113 2.326 1_545 S
In104 O115 2.294 . S
In104 O116 2.326 . S
O105 In104 2.294 . S
O105 C114 1.240 . S
O106 In104 2.326 . S
O106 C114 1.252 . S
C107 O110 1.252 . S
C107 O111 1.260 . S
C108 O115 1.240 . S
C108 O116 1.252 . S
C109 O112 1.252 . S
C109 O113 1.260 . S
O110 In104 2.266 . S
O110 C107 1.252 . S
O111 In104 2.326 . S
O111 C107 1.260 . S
O112 In104 2.266 1_565 S
O112 C109 1.252 . S
O113 In104 2.326 1_565 S
O113 C109 1.260 . S
C114 O105 1.240 . S
C114 O106 1.252 . S
O115 In104 2.294 . S
O115 C108 1.240 . S
O116 In104 2.326 . S
O116 C108 1.252 . S
In117 O118 2.294 . S
In117 O119 2.326 . S
In117 O123 2.266 . S
In117 O124 2.326 . S
In117 O125 2.266 . S
In117 O126 2.326 . S
In117 O128 2.294 . S
In117 O129 2.326 . S
O118 In117 2.294 . S
O118 C127 1.240 . S
O119 In117 2.326 . S
O119 C127 1.252 . S
C120 O123 1.252 . S
C120 O124 1.260 . S
C121 O128 1.240 . S
C121 O129 1.252 . S
C122 O125 1.252 . S
C122 O126 1.260 . S
O123 In117 2.266 . S
O123 C120 1.252 . S
O124 In117 2.326 . S
O124 C120 1.260 . S
O125 In117 2.266 . S
O125 C122 1.252 . S
O126 In117 2.326 . S
O126 C122 1.260 . S
C127 O118 1.240 . S
C127 O119 1.252 . S
O128 In117 2.294 . S
O128 C121 1.240 . S
O129 In117 2.326 . S
O129 C121 1.252 . S
In130 O131 2.294 . S
In130 O132 2.326 . S
In130 O136 2.266 . S
In130 O137 2.326 . S
In130 O138 2.266 . S
In130 O139 2.326 . S
In130 O141 2.294 . S
In130 O142 2.326 . S
O131 In130 2.294 . S
O131 C140 1.240 . S
O132 In130 2.326 . S
O132 C140 1.252 . S
C133 O136 1.252 . S
C133 O137 1.260 . S
C134 O141 1.240 . S
C134 O142 1.252 . S
C135 O138 1.252 . S
C135 O139 1.260 . S
O136 In130 2.266 . S
O136 C133 1.252 . S
O137 In130 2.326 . S
O137 C133 1.260 . S
O138 In130 2.266 . S
O138 C135 1.252 . S
O139 In130 2.326 . S
O139 C135 1.260 . S
C140 O131 1.240 . S
C140 O132 1.252 . S
O141 In130 2.294 . S
O141 C134 1.240 . S
O142 In130 2.326 . S
O142 C134 1.252 . S
In143 O144 2.298 . S
In143 O145 2.332 . S
In143 O149 2.263 1_554 S
In143 O150 2.320 1_554 S
In143 O151 2.262 1_554 S
In143 O152 2.325 . S
In143 O154 2.295 . S
In143 O155 2.323 . S
O144 In143 2.298 . S
O144 C153 1.240 . S
O145 In143 2.332 . S
O145 C153 1.252 . S
C146 O149 1.252 . S
C146 O150 1.260 . S
C147 O154 1.240 . S
C147 O155 1.253 . S
C148 O151 1.252 1_554 S
C148 O152 1.260 . S
O149 In143 2.263 1_556 S
O149 C146 1.252 . S
O150 In143 2.320 1_556 S
O150 C146 1.260 . S
O151 In143 2.262 1_556 S
O151 C148 1.252 1_556 S
O152 In143 2.325 . S
O152 C148 1.260 . S
C153 O144 1.240 . S
C153 O145 1.252 . S
O154 In143 2.295 . S
O154 C147 1.240 . S
O155 In143 2.323 . S
O155 C147 1.253 . S
In156 O157 2.294 . S
In156 O158 2.326 . S
In156 O162 2.266 . S
In156 O163 2.326 . S
In156 O164 2.266 . S
In156 O165 2.326 . S
In156 O167 2.294 . S
In156 O168 2.326 . S
O157 In156 2.294 . S
O157 C166 1.240 . S
O158 In156 2.326 . S
O158 C166 1.252 . S
C159 O162 1.252 1_556 S
C159 O163 1.260 1_556 S
C160 O167 1.240 . S
C160 O168 1.252 . S
C161 O164 1.252 . S
C161 O165 1.260 . S
O162 In156 2.266 . S
O162 C159 1.252 1_554 S
O163 In156 2.326 . S
O163 C159 1.260 1_554 S
O164 In156 2.266 . S
O164 C161 1.252 . S
O165 In156 2.326 . S
O165 C161 1.260 . S
C166 O157 1.240 . S
C166 O158 1.252 . S
O167 In156 2.294 . S
O167 C160 1.240 . S
O168 In156 2.326 . S
O168 C160 1.252 . S
In169 O170 2.294 . S
In169 O171 2.326 . S
In169 O175 2.266 . S
In169 O176 2.326 . S
In169 O177 2.266 . S
In169 O178 2.326 . S
In169 O180 2.294 . S
In169 O181 2.326 . S
O170 In169 2.294 . S
O170 C179 1.240 . S
O171 In169 2.326 . S
O171 C179 1.252 . S
C172 O175 1.252 . S
C172 O176 1.260 . S
C173 O180 1.240 . S
C173 O181 1.252 . S
C174 O177 1.252 . S
C174 O178 1.260 . S
O175 In169 2.266 . S
O175 C172 1.252 . S
O176 In169 2.326 . S
O176 C172 1.260 . S
O177 In169 2.266 . S
O177 C174 1.252 . S
O178 In169 2.326 . S
O178 C174 1.260 . S
C179 O170 1.240 . S
C179 O171 1.252 . S
O180 In169 2.294 . S
O180 C173 1.240 . S
O181 In169 2.326 . S
O181 C173 1.252 . S
In182 O183 2.294 . S
In182 O184 2.326 . S
In182 O188 2.266 . S
In182 O189 2.326 . S
In182 O190 2.266 . S
In182 O191 2.326 . S
In182 O193 2.294 . S
In182 O194 2.326 . S
O183 In182 2.294 . S
O183 C192 1.240 . S
O184 In182 2.326 . S
O184 C192 1.252 . S
C185 O188 1.252 . S
C185 O189 1.260 . S
C186 O193 1.240 . S
C186 O194 1.252 . S
C187 O190 1.252 . S
C187 O191 1.260 . S
O188 In182 2.266 . S
O188 C185 1.252 . S
O189 In182 2.326 . S
O189 C185 1.260 . S
O190 In182 2.266 . S
O190 C187 1.252 . S
O191 In182 2.326 . S
O191 C187 1.260 . S
C192 O183 1.240 . S
C192 O184 1.252 . S
O193 In182 2.294 . S
O193 C186 1.240 . S
O194 In182 2.326 . S
O194 C186 1.252 . S
In195 O196 2.294 . S
In195 O197 2.326 . S
In195 O201 2.266 . S
In195 O202 2.326 . S
In195 O203 2.266 . S
In195 O204 2.326 . S
In195 O206 2.294 . S
In195 O207 2.326 . S
O196 In195 2.294 . S
O196 C205 1.240 . S
O197 In195 2.326 . S
O197 C205 1.252 . S
C198 O201 1.252 . S
C198 O202 1.260 . S
C199 O206 1.240 . S
C199 O207 1.252 . S
C200 O203 1.252 . S
C200 O204 1.260 . S
O201 In195 2.266 . S
O201 C198 1.252 . S
O202 In195 2.326 . S
O202 C198 1.260 . S
O203 In195 2.266 . S
O203 C200 1.252 . S
O204 In195 2.326 . S
O204 C200 1.260 . S
C205 O196 1.240 . S
C205 O197 1.252 . S
O206 In195 2.294 . S
O206 C199 1.240 . S
O207 In195 2.326 . S
O207 C199 1.252 . S
In208 O209 2.294 . S
In208 O210 2.326 . S
In208 O214 2.266 . S
In208 O215 2.326 . S
In208 O216 2.266 1_545 S
In208 O217 2.326 1_545 S
In208 O219 2.294 . S
In208 O220 2.326 . S
O209 In208 2.294 . S
O209 C218 1.240 . S
O210 In208 2.326 . S
O210 C218 1.252 . S
C211 O214 1.252 . S
C211 O215 1.260 . S
C212 O219 1.240 . S
C212 O220 1.252 . S
C213 O216 1.252 . S
C213 O217 1.260 . S
O214 In208 2.266 . S
O214 C211 1.252 . S
O215 In208 2.326 . S
O215 C211 1.260 . S
O216 In208 2.266 1_565 S
O216 C213 1.252 . S
O217 In208 2.326 1_565 S
O217 C213 1.260 . S
C218 O209 1.240 . S
C218 O210 1.252 . S
O219 In208 2.294 . S
O219 C212 1.240 . S
O220 In208 2.326 . S
O220 C212 1.252 . S
In221 O222 2.294 . S
In221 O223 2.326 . S
In221 O227 2.266 . S
In221 O228 2.326 . S
In221 O229 2.266 . S
In221 O230 2.326 . S
In221 O232 2.294 . S
In221 O233 2.326 . S
O222 In221 2.294 . S
O222 C231 1.240 . S
O223 In221 2.326 . S
O223 C231 1.252 . S
C224 O227 1.252 . S
C224 O228 1.260 . S
C225 O232 1.240 . S
C225 O233 1.252 . S
C226 O229 1.252 . S
C226 O230 1.260 . S
O227 In221 2.266 . S
O227 C224 1.252 . S
O228 In221 2.326 . S
O228 C224 1.260 . S
O229 In221 2.266 . S
O229 C226 1.252 . S
O230 In221 2.326 . S
O230 C226 1.260 . S
C231 O222 1.240 . S
C231 O223 1.252 . S
O232 In221 2.294 . S
O232 C225 1.240 . S
O233 In221 2.326 . S
O233 C225 1.252 . S
In234 O235 2.294 . S
In234 O236 2.326 . S
In234 O240 2.266 . S
In234 O241 2.326 . S
In234 O242 2.266 . S
In234 O243 2.326 . S
In234 O245 2.294 . S
In234 O246 2.326 . S
O235 In234 2.294 . S
O235 C244 1.240 . S
O236 In234 2.326 . S
O236 C244 1.252 . S
C237 O240 1.252 . S
C237 O241 1.260 . S
C238 O245 1.240 . S
C238 O246 1.252 . S
C239 O242 1.252 . S
C239 O243 1.260 . S
O240 In234 2.266 . S
O240 C237 1.252 . S
O241 In234 2.326 . S
O241 C237 1.260 . S
O242 In234 2.266 . S
O242 C239 1.252 . S
O243 In234 2.326 . S
O243 C239 1.260 . S
C244 O235 1.240 . S
C244 O236 1.252 . S
O245 In234 2.294 . S
O245 C238 1.240 . S
O246 In234 2.326 . S
O246 C238 1.252 . S
In247 O248 2.294 . S
In247 O249 2.326 . S
In247 O253 2.266 . S
In247 O254 2.326 . S
In247 O255 2.266 . S
In247 O256 2.326 . S
In247 O258 2.294 . S
In247 O259 2.326 . S
O248 In247 2.294 . S
O248 C257 1.240 . S
O249 In247 2.326 . S
O249 C257 1.252 . S
C250 O253 1.252 . S
C250 O254 1.260 . S
C251 O258 1.240 . S
C251 O259 1.252 . S
C252 O255 1.252 . S
C252 O256 1.260 . S
O253 In247 2.266 . S
O253 C250 1.252 . S
O254 In247 2.326 . S
O254 C250 1.260 . S
O255 In247 2.266 . S
O255 C252 1.252 . S
O256 In247 2.326 . S
O256 C252 1.260 . S
C257 O248 1.240 . S
C257 O249 1.252 . S
O258 In247 2.294 . S
O258 C251 1.240 . S
O259 In247 2.326 . S
O259 C251 1.252 . S
In260 O261 2.294 . S
In260 O262 2.326 . S
In260 O266 2.266 . S
In260 O267 2.326 . S
In260 O268 2.266 1_554 S
In260 O269 2.326 1_554 S
In260 O271 2.294 . S
In260 O272 2.326 . S
O261 In260 2.294 . S
O261 C270 1.240 . S
O262 In260 2.326 . S
O262 C270 1.252 . S
C263 O266 1.252 . S
C263 O267 1.260 . S
C264 O271 1.240 . S
C264 O272 1.252 . S
C265 O268 1.252 . S
C265 O269 1.260 . S
O266 In260 2.266 . S
O266 C263 1.252 . S
O267 In260 2.326 . S
O267 C263 1.260 . S
O268 In260 2.266 1_556 S
O268 C265 1.252 . S
O269 In260 2.326 1_556 S
O269 C265 1.260 . S
C270 O261 1.240 . S
C270 O262 1.252 . S
O271 In260 2.294 . S
O271 C264 1.240 . S
O272 In260 2.326 . S
O272 C264 1.252 . S
In273 O274 2.294 . S
In273 O275 2.326 . S
In273 O279 2.266 . S
In273 O280 2.326 . S
In273 O281 2.266 . S
In273 O282 2.326 . S
In273 O284 2.294 . S
In273 O285 2.326 . S
O274 In273 2.294 . S
O274 C283 1.240 . S
O275 In273 2.326 . S
O275 C283 1.252 . S
C276 O279 1.252 . S
C276 O280 1.260 . S
C277 O284 1.240 . S
C277 O285 1.252 . S
C278 O281 1.252 . S
C278 O282 1.260 . S
O279 In273 2.266 . S
O279 C276 1.252 . S
O280 In273 2.326 . S
O280 C276 1.260 . S
O281 In273 2.266 . S
O281 C278 1.252 . S
O282 In273 2.326 . S
O282 C278 1.260 . S
C283 O274 1.240 . S
C283 O275 1.252 . S
O284 In273 2.294 . S
O284 C277 1.240 . S
O285 In273 2.326 . S
O285 C277 1.252 . S
In286 O287 2.294 . S
In286 O288 2.326 . S
In286 O292 2.266 . S
In286 O293 2.326 . S
In286 O294 2.266 . S
In286 O295 2.326 . S
In286 O297 2.294 . S
In286 O298 2.326 . S
O287 In286 2.294 . S
O287 C296 1.240 . S
O288 In286 2.326 . S
O288 C296 1.252 . S
C289 O292 1.252 . S
C289 O293 1.260 . S
C290 O297 1.240 . S
C290 O298 1.252 . S
C291 O294 1.252 . S
C291 O295 1.260 . S
O292 In286 2.266 . S
O292 C289 1.252 . S
O293 In286 2.326 . S
O293 C289 1.260 . S
O294 In286 2.266 . S
O294 C291 1.252 . S
O295 In286 2.326 . S
O295 C291 1.260 . S
C296 O287 1.240 . S
C296 O288 1.252 . S
O297 In286 2.294 . S
O297 C290 1.240 . S
O298 In286 2.326 . S
O298 C290 1.252 . S
In299 O300 2.294 . S
In299 O301 2.326 . S
In299 O305 2.266 . S
In299 O306 2.326 . S
In299 O307 2.266 . S
In299 O308 2.326 . S
In299 O310 2.294 . S
In299 O311 2.326 . S
O300 In299 2.294 . S
O300 C309 1.240 . S
O301 In299 2.326 . S
O301 C309 1.252 . S
C302 O305 1.252 . S
C302 O306 1.260 . S
C303 O310 1.240 . S
C303 O311 1.252 . S
C304 O307 1.252 . S
C304 O308 1.260 . S
O305 In299 2.266 . S
O305 C302 1.252 . S
O306 In299 2.326 . S
O306 C302 1.260 . S
O307 In299 2.266 . S
O307 C304 1.252 . S
O308 In299 2.326 . S
O308 C304 1.260 . S
C309 O300 1.240 . S
C309 O301 1.252 . S
O310 In299 2.294 . S
O310 C303 1.240 . S
O311 In299 2.326 . S
O311 C303 1.252 . S
Eu312 N341 2.600 . S
Eu312 N347 2.562 . S
Eu312 O356 2.462 . S
Eu312 O357 2.373 . S
Eu312 O359 2.432 . S
Eu312 O360 2.291 . S
Eu312 O364 2.335 . S
Eu312 O367 2.372 . S
Eu312 C376 2.787 . S
C313 N314 1.365 . S
C313 C316 1.405 . S
C313 C320 1.448 1_556 S
N314 C313 1.365 . S
N314 C317 1.319 . S
N314 Eu323 2.600 1_666 S
C315 C317 1.397 . S
C315 C318 1.367 . S
C315 H335 0.931 . S
C316 C313 1.405 . S
C316 C318 1.403 . S
C316 C322 1.439 . S
C317 N314 1.319 . S
C317 C315 1.397 . S
C317 H328 0.930 1_565 S
C318 C315 1.367 . S
C318 C316 1.403 . S
C318 H339 0.929 . S
C319 C320 1.430 . S
C319 C321 1.387 . S
C319 C325 1.404 . S
C320 C313 1.448 1_554 S
C320 C319 1.430 . S
C320 N324 1.351 . S
C321 C319 1.387 . S
C321 C322 1.374 1_554 S
C321 H336 0.931 . S
C322 C316 1.439 . S
C322 C321 1.374 1_556 S
C322 H337 0.931 . S
Eu323 N314 2.600 1_444 S
Eu323 N324 2.562 1_445 S
Eu323 O358 2.335 . S
Eu323 O361 2.372 1_554 S
Eu323 O362 2.462 1_455 S
Eu323 O363 2.373 1_545 S
Eu323 O365 2.441 1_455 S
Eu323 O366 2.291 . S
Eu323 C387 2.787 1_455 S
N324 C320 1.351 . S
N324 Eu323 2.562 1_665 S
N324 C326 1.325 . S
C325 C319 1.404 . S
C325 C327 1.366 . S
C325 H333 0.930 . S
C326 N324 1.325 . S
C326 C327 1.416 . S
C326 H332 0.929 1_565 S
C327 C325 1.366 . S
C327 C326 1.416 . S
C327 H329 0.930 . S
H328 C317 0.930 1_545 S
H329 C327 0.930 . S
H330 C345 0.930 . S
H331 C352 0.930 . S
H332 C326 0.929 1_545 S
H333 C325 0.930 . S
H334 C348 0.929 . S
H335 C315 0.931 . S
H336 C321 0.931 . S
H337 C322 0.931 . S
H338 C343 0.931 . S
H339 C318 0.929 . S
H340 C351 0.930 . S
N341 Eu312 2.600 . S
N341 C342 1.365 . S
N341 C345 1.319 . S
C342 N341 1.365 . S
C342 C344 1.405 . S
C342 C350 1.448 . S
C343 H338 0.931 . S
C343 C345 1.397 . S
C343 C346 1.367 . S
C344 C342 1.405 . S
C344 C346 1.403 . S
C344 C377 1.439 . S
C345 H330 0.930 . S
C345 N341 1.319 . S
C345 C343 1.397 . S
C346 C343 1.367 . S
C346 C344 1.403 . S
C346 H353 0.929 . S
N347 Eu312 2.562 . S
N347 C348 1.325 . S
N347 C350 1.351 . S
C348 H334 0.929 . S
C348 N347 1.325 . S
C348 C352 1.416 . S
C349 C350 1.430 . S
C349 C351 1.404 . S
C349 C378 1.387 . S
C350 C342 1.448 . S
C350 N347 1.351 . S
C350 C349 1.430 . S
C351 H340 0.930 . S
C351 C349 1.404 . S
C351 C352 1.366 . S
C352 H331 0.930 . S
C352 C348 1.416 . S
C352 C351 1.366 . S
H353 C346 0.929 . S
H354 C377 0.931 . S
H355 C378 0.931 . S
O356 Eu312 2.462 . S
O356 C376 1.252 . S
O357 Eu312 2.373 . S
O357 C368 1.249 . S
O358 Eu323 2.335 . S
O358 C368 1.264 . S
O359 Eu312 2.432 . S
O359 C376 1.268 . S
O360 Eu312 2.291 . S
O360 C375 1.250 1_554 S
O361 Eu323 2.372 1_556 S
O361 C375 1.257 . S
O362 Eu323 2.462 1_655 S
O362 C387 1.252 . S
O363 Eu323 2.373 1_565 S
O363 C379 1.249 . S
O364 Eu312 2.335 . S
O364 C379 1.264 1_545 S
O365 Eu323 2.441 1_655 S
O365 C387 1.284 . S
O366 Eu323 2.291 . S
O366 C386 1.255 . S
O367 Eu312 2.372 . S
O367 C386 1.257 . S
C368 O357 1.249 . S
C368 O358 1.264 . S
C369 C372 1.382 . S
C369 C374 1.390 . S
C369 C376 1.506 . S
C370 C371 1.398 . S
C370 C374 1.392 . S
C371 C370 1.398 . S
C371 C373 1.372 . S
C371 H388 0.931 . S
C372 C369 1.382 . S
C372 C373 1.390 . S
C372 H389 0.931 . S
C373 C371 1.372 . S
C373 C372 1.390 . S
C373 H390 0.929 . S
C374 C369 1.390 . S
C374 C370 1.392 . S
C374 H391 0.930 . S
C375 O360 1.250 1_556 S
C375 O361 1.257 . S
C376 Eu312 2.787 . S
C376 O356 1.252 . S
C376 O359 1.268 . S
C376 C369 1.506 . S
C377 C344 1.439 . S
C377 H354 0.931 . S
C377 C378 1.374 . S
C378 C349 1.387 . S
C378 H355 0.931 . S
C378 C377 1.374 . S
C379 O363 1.249 . S
C379 O364 1.264 1_565 S
C380 C383 1.382 1_554 S
C380 C384 1.390 . S
C380 C387 1.506 . S
C381 C382 1.398 . S
C381 C384 1.392 . S
C382 C381 1.398 . S
C382 C385 1.372 1_554 S
C382 H392 0.931 . S
C383 C380 1.382 1_556 S
C383 C385 1.390 . S
C383 H393 0.931 . S
C384 C380 1.390 . S
C384 C381 1.392 . S
C384 H394 0.930 . S
C385 C382 1.372 1_556 S
C385 C383 1.390 . S
C385 H395 0.929 . S
C386 O366 1.255 . S
C386 O367 1.257 . S
C387 Eu323 2.787 1_655 S
C387 O362 1.252 . S
C387 O365 1.284 . S
C387 C380 1.506 . S
H388 C371 0.931 . S
H389 C372 0.931 . S
H390 C373 0.929 . S
H391 C374 0.930 . S
H392 C382 0.931 . S
H393 C383 0.931 . S
H394 C384 0.930 . S
H395 C385 0.929 . S
Eu396 N425 2.600 . S
Eu396 N431 2.562 . S
Eu396 O440 2.462 . S
Eu396 O441 2.373 . S
Eu396 O443 2.432 . S
Eu396 O444 2.291 . S
Eu396 O448 2.335 . S
Eu396 O451 2.372 . S
Eu396 C460 2.787 . S
C397 N398 1.365 . S
C397 C400 1.405 . S
C397 C404 1.448 . S
N398 C397 1.365 . S
N398 C401 1.319 . S
N398 Eu407 2.600 . S
C399 C401 1.397 . S
C399 C402 1.367 . S
C399 H419 0.931 . S
C400 C397 1.405 . S
C400 C402 1.403 . S
C400 C406 1.439 . S
C401 N398 1.319 . S
C401 C399 1.397 . S
C401 H412 0.930 . S
C402 C399 1.367 . S
C402 C400 1.403 . S
C402 H423 0.929 . S
C403 C404 1.430 . S
C403 C405 1.387 . S
C403 C409 1.404 . S
C404 C397 1.448 . S
C404 C403 1.430 . S
C404 N408 1.351 . S
C405 C403 1.387 . S
C405 C406 1.374 . S
C405 H420 0.931 . S
C406 C400 1.439 . S
C406 C405 1.374 . S
C406 H421 0.931 . S
Eu407 N398 2.600 . S
Eu407 N408 2.562 . S
Eu407 O442 2.335 . S
Eu407 O445 2.372 . S
Eu407 O446 2.462 . S
Eu407 O447 2.373 . S
Eu407 O449 2.432 . S
Eu407 O450 2.291 . S
Eu407 C471 2.787 . S
N408 C404 1.351 . S
N408 Eu407 2.562 . S
N408 C410 1.325 . S
C409 C403 1.404 . S
C409 C411 1.366 . S
C409 H417 0.930 . S
C410 N408 1.325 . S
C410 C411 1.416 . S
C410 H416 0.929 . S
C411 C409 1.366 . S
C411 C410 1.416 . S
C411 H413 0.930 . S
H412 C401 0.930 . S
H413 C411 0.930 . S
H414 C429 0.930 . S
H415 C436 0.930 . S
H416 C410 0.929 . S
H417 C409 0.930 . S
H418 C432 0.929 . S
H419 C399 0.931 . S
H420 C405 0.931 . S
H421 C406 0.931 . S
H422 C427 0.931 . S
H423 C402 0.929 . S
H424 C435 0.930 . S
N425 Eu396 2.600 . S
N425 C426 1.365 . S
N425 C429 1.319 . S
C426 N425 1.365 . S
C426 C428 1.405 . S
C426 C434 1.448 . S
C427 H422 0.931 . S
C427 C429 1.397 . S
C427 C430 1.367 . S
C428 C426 1.405 . S
C428 C430 1.403 . S
C428 C461 1.439 . S
C429 H414 0.930 . S
C429 N425 1.319 . S
C429 C427 1.397 . S
C430 C427 1.367 . S
C430 C428 1.403 . S
C430 H437 0.929 . S
N431 Eu396 2.562 . S
N431 C432 1.325 . S
N431 C434 1.351 . S
C432 H418 0.929 . S
C432 N431 1.325 . S
C432 C436 1.416 . S
C433 C434 1.430 . S
C433 C435 1.404 . S
C433 C462 1.387 . S
C434 C426 1.448 . S
C434 N431 1.351 . S
C434 C433 1.430 . S
C435 H424 0.930 . S
C435 C433 1.404 . S
C435 C436 1.366 . S
C436 H415 0.930 . S
C436 C432 1.416 . S
C436 C435 1.366 . S
H437 C430 0.929 . S
H438 C461 0.931 . S
H439 C462 0.931 . S
O440 Eu396 2.462 . S
O440 C460 1.252 . S
O441 Eu396 2.373 . S
O441 C452 1.249 . S
O442 Eu407 2.335 . S
O442 C452 1.264 . S
O443 Eu396 2.432 . S
O443 C460 1.268 . S
O444 Eu396 2.291 . S
O444 C459 1.255 . S
O445 Eu407 2.372 . S
O445 C459 1.257 . S
O446 Eu407 2.462 . S
O446 C471 1.252 . S
O447 Eu407 2.373 . S
O447 C463 1.249 . S
O448 Eu396 2.335 . S
O448 C463 1.264 . S
O449 Eu407 2.432 . S
O449 C471 1.268 . S
O450 Eu407 2.291 . S
O450 C470 1.255 . S
O451 Eu396 2.372 . S
O451 C470 1.257 . S
C452 O441 1.249 . S
C452 O442 1.264 . S
C453 C456 1.382 . S
C453 C458 1.390 . S
C453 C460 1.506 . S
C454 C455 1.398 . S
C454 C458 1.392 . S
C455 C454 1.398 . S
C455 C457 1.372 . S
C455 H472 0.931 . S
C456 C453 1.382 . S
C456 C457 1.390 . S
C456 H473 0.931 . S
C457 C455 1.372 . S
C457 C456 1.390 . S
C457 H474 0.929 . S
C458 C453 1.390 . S
C458 C454 1.392 . S
C458 H475 0.930 . S
C459 O444 1.255 . S
C459 O445 1.257 . S
C460 Eu396 2.787 . S
C460 O440 1.252 . S
C460 O443 1.268 . S
C460 C453 1.506 . S
C461 C428 1.439 . S
C461 H438 0.931 . S
C461 C462 1.374 . S
C462 C433 1.387 . S
C462 H439 0.931 . S
C462 C461 1.374 . S
C463 O447 1.249 . S
C463 O448 1.264 . S
C464 C467 1.382 . S
C464 C468 1.390 . S
C464 C471 1.506 . S
C465 C466 1.398 . S
C465 C468 1.392 . S
C466 C465 1.398 . S
C466 C469 1.372 . S
C466 H476 0.931 . S
C467 C464 1.382 . S
C467 C469 1.390 . S
C467 H477 0.931 . S
C468 C464 1.390 . S
C468 C465 1.392 . S
C468 H478 0.930 . S
C469 C466 1.372 . S
C469 C467 1.390 . S
C469 H479 0.929 . S
C470 O450 1.255 . S
C470 O451 1.257 . S
C471 Eu407 2.787 . S
C471 O446 1.252 . S
C471 O449 1.268 . S
C471 C464 1.506 . S
H472 C455 0.931 . S
H473 C456 0.931 . S
H474 C457 0.929 . S
H475 C458 0.930 . S
H476 C466 0.931 . S
H477 C467 0.931 . S
H478 C468 0.930 . S
H479 C469 0.929 . S
Eu480 N509 2.598 1_545 S
Eu480 N515 2.562 1_545 S
Eu480 O524 2.462 . S
Eu480 O525 2.373 1_545 S
Eu480 O527 2.432 . S
Eu480 O528 2.291 . S
Eu480 O532 2.335 . S
Eu480 O535 2.372 . S
Eu480 C544 2.787 . S
C481 N482 1.365 . S
C481 C484 1.405 . S
C481 C488 1.448 . S
N482 C481 1.365 . S
N482 C485 1.319 . S
N482 Eu491 2.600 . S
C483 C485 1.397 . S
C483 C486 1.367 . S
C483 H503 0.931 . S
C484 C481 1.405 . S
C484 C486 1.403 . S
C484 C490 1.439 . S
C485 N482 1.319 . S
C485 C483 1.397 . S
C485 H496 0.930 . S
C486 C483 1.367 . S
C486 C484 1.403 . S
C486 H507 0.929 . S
C487 C488 1.430 . S
C487 C489 1.387 . S
C487 C493 1.404 . S
C488 C481 1.448 . S
C488 C487 1.430 . S
C488 N492 1.351 . S
C489 C487 1.387 . S
C489 C490 1.374 . S
C489 H504 0.931 . S
C490 C484 1.439 . S
C490 C489 1.374 . S
C490 H505 0.931 . S
Eu491 N482 2.600 . S
Eu491 N492 2.562 . S
Eu491 O526 2.335 1_545 S
Eu491 O529 2.372 . S
Eu491 O530 2.462 . S
Eu491 O531 2.373 . S
Eu491 O533 2.432 . S
Eu491 O534 2.291 . S
Eu491 C555 2.787 . S
N492 C488 1.351 . S
N492 Eu491 2.562 . S
N492 C494 1.325 . S
C493 C487 1.404 . S
C493 C495 1.366 . S
C493 H501 0.930 . S
C494 N492 1.325 . S
C494 C495 1.416 . S
C494 H500 0.929 . S
C495 C493 1.366 . S
C495 C494 1.416 . S
C495 H497 0.930 . S
H496 C485 0.930 . S
H497 C495 0.930 . S
H498 C513 0.930 . S
H499 C520 0.930 . S
H500 C494 0.929 . S
H501 C493 0.930 . S
H502 C516 0.929 . S
H503 C483 0.931 . S
H504 C489 0.931 . S
H505 C490 0.931 . S
H506 C511 0.931 . S
H507 C486 0.929 . S
H508 C519 0.930 . S
N509 Eu480 2.598 1_565 S
N509 C510 1.367 . S
N509 C513 1.319 1_565 S
C510 N509 1.367 . S
C510 C512 1.405 . S
C510 C518 1.448 . S
C511 H506 0.931 . S
C511 C513 1.397 1_565 S
C511 C514 1.367 . S
C512 C510 1.405 . S
C512 C514 1.403 . S
C512 C545 1.439 . S
C513 H498 0.930 . S
C513 N509 1.319 1_545 S
C513 C511 1.397 1_545 S
C514 C511 1.367 . S
C514 C512 1.403 . S
C514 H521 0.929 . S
N515 Eu480 2.562 1_565 S
N515 C516 1.325 . S
N515 C518 1.351 . S
C516 H502 0.929 . S
C516 N515 1.325 . S
C516 C520 1.416 . S
C517 C518 1.430 . S
C517 C519 1.404 . S
C517 C546 1.387 . S
C518 C510 1.448 . S
C518 N515 1.351 . S
C518 C517 1.430 . S
C519 H508 0.930 . S
C519 C517 1.404 . S
C519 C520 1.366 . S
C520 H499 0.930 . S
C520 C516 1.416 . S
C520 C519 1.366 . S
H521 C514 0.929 . S
H522 C545 0.931 . S
H523 C546 0.931 . S
O524 Eu480 2.462 . S
O524 C544 1.252 . S
O525 Eu480 2.373 1_565 S
O525 C536 1.249 . S
O526 Eu491 2.335 1_565 S
O526 C536 1.264 . S
O527 Eu480 2.432 . S
O527 C544 1.268 . S
O528 Eu480 2.291 . S
O528 C543 1.255 . S
O529 Eu491 2.372 . S
O529 C543 1.257 . S
O530 Eu491 2.462 . S
O530 C555 1.252 . S
O531 Eu491 2.373 . S
O531 C547 1.249 . S
O532 Eu480 2.335 . S
O532 C547 1.264 . S
O533 Eu491 2.432 . S
O533 C555 1.268 . S
O534 Eu491 2.291 . S
O534 C554 1.255 . S
O535 Eu480 2.372 . S
O535 C554 1.257 . S
C536 O525 1.249 . S
C536 O526 1.264 . S
C537 C540 1.382 . S
C537 C542 1.390 . S
C537 C544 1.506 . S
C538 C539 1.398 . S
C538 C542 1.392 . S
C539 C538 1.398 . S
C539 C541 1.372 . S
C539 H556 0.931 . S
C540 C537 1.382 . S
C540 C541 1.390 . S
C540 H557 0.931 . S
C541 C539 1.372 . S
C541 C540 1.390 . S
C541 H558 0.929 . S
C542 C537 1.390 . S
C542 C538 1.392 . S
C542 H559 0.930 . S
C543 O528 1.255 . S
C543 O529 1.257 . S
C544 Eu480 2.787 . S
C544 O524 1.252 . S
C544 O527 1.268 . S
C544 C537 1.506 . S
C545 C512 1.439 . S
C545 H522 0.931 . S
C545 C546 1.374 . S
C546 C517 1.387 . S
C546 H523 0.931 . S
C546 C545 1.374 . S
C547 O531 1.249 . S
C547 O532 1.264 . S
C548 C551 1.382 . S
C548 C552 1.390 . S
C548 C555 1.506 1_565 S
C549 C550 1.398 . S
C549 C552 1.392 . S
C550 C549 1.398 . S
C550 C553 1.372 . S
C550 H560 0.931 . S
C551 C548 1.382 . S
C551 C553 1.390 . S
C551 H561 0.931 . S
C552 C548 1.390 . S
C552 C549 1.392 . S
C552 H562 0.930 . S
C553 C550 1.372 . S
C553 C551 1.390 . S
C553 H563 0.929 . S
C554 O534 1.255 . S
C554 O535 1.257 . S
C555 Eu491 2.787 . S
C555 O530 1.252 . S
C555 O533 1.268 . S
C555 C548 1.506 1_545 S
H556 C539 0.931 . S
H557 C540 0.931 . S
H558 C541 0.929 . S
H559 C542 0.930 . S
H560 C550 0.931 . S
H561 C551 0.931 . S
H562 C552 0.930 . S
H563 C553 0.929 . S
Eu564 N593 2.600 . S
Eu564 N599 2.562 . S
Eu564 O608 2.462 . S
Eu564 O609 2.373 . S
Eu564 O611 2.432 . S
Eu564 O612 2.291 . S
Eu564 O616 2.335 . S
Eu564 O619 2.372 . S
Eu564 C628 2.787 . S
C565 N566 1.365 . S
C565 C568 1.405 . S
C565 C572 1.448 . S
N566 C565 1.365 . S
N566 C569 1.319 . S
N566 Eu575 2.600 . S
C567 C569 1.397 . S
C567 C570 1.367 . S
C567 H587 0.931 . S
C568 C565 1.405 . S
C568 C570 1.403 . S
C568 C574 1.439 . S
C569 N566 1.319 . S
C569 C567 1.397 . S
C569 H580 0.930 . S
C570 C567 1.367 . S
C570 C568 1.403 . S
C570 H591 0.929 . S
C571 C572 1.430 . S
C571 C573 1.387 . S
C571 C577 1.404 . S
C572 C565 1.448 . S
C572 C571 1.430 . S
C572 N576 1.351 . S
C573 C571 1.387 . S
C573 C574 1.374 . S
C573 H588 0.931 . S
C574 C568 1.439 . S
C574 C573 1.374 . S
C574 H589 0.931 . S
Eu575 N566 2.600 . S
Eu575 N576 2.562 . S
Eu575 O610 2.335 . S
Eu575 O613 2.372 . S
Eu575 O614 2.462 . S
Eu575 O615 2.373 . S
Eu575 O617 2.432 . S
Eu575 O618 2.291 . S
Eu575 C639 2.787 . S
N576 C572 1.351 . S
N576 Eu575 2.562 . S
N576 C578 1.325 . S
C577 C571 1.404 . S
C577 C579 1.366 . S
C577 H585 0.930 . S
C578 N576 1.325 . S
C578 C579 1.416 . S
C578 H584 0.929 . S
C579 C577 1.366 . S
C579 C578 1.416 . S
C579 H581 0.930 . S
H580 C569 0.930 . S
H581 C579 0.930 . S
H582 C597 0.930 . S
H583 C604 0.930 . S
H584 C578 0.929 . S
H585 C577 0.930 . S
H586 C600 0.929 . S
H587 C567 0.931 . S
H588 C573 0.931 . S
H589 C574 0.931 . S
H590 C595 0.931 . S
H591 C570 0.929 . S
H592 C603 0.930 . S
N593 Eu564 2.600 . S
N593 C594 1.365 . S
N593 C597 1.319 . S
C594 N593 1.365 . S
C594 C596 1.405 . S
C594 C602 1.448 . S
C595 H590 0.931 . S
C595 C597 1.397 . S
C595 C598 1.367 . S
C596 C594 1.405 . S
C596 C598 1.403 . S
C596 C629 1.439 . S
C597 H582 0.930 . S
C597 N593 1.319 . S
C597 C595 1.397 . S
C598 C595 1.367 . S
C598 C596 1.403 . S
C598 H605 0.929 . S
N599 Eu564 2.562 . S
N599 C600 1.325 . S
N599 C602 1.351 . S
C600 H586 0.929 . S
C600 N599 1.325 . S
C600 C604 1.416 . S
C601 C602 1.430 . S
C601 C603 1.404 . S
C601 C630 1.387 . S
C602 C594 1.448 . S
C602 N599 1.351 . S
C602 C601 1.430 . S
C603 H592 0.930 . S
C603 C601 1.404 . S
C603 C604 1.366 . S
C604 H583 0.930 . S
C604 C600 1.416 . S
C604 C603 1.366 . S
H605 C598 0.929 . S
H606 C629 0.931 . S
H607 C630 0.931 . S
O608 Eu564 2.462 . S
O608 C628 1.252 . S
O609 Eu564 2.373 . S
O609 C620 1.249 . S
O610 Eu575 2.335 . S
O610 C620 1.264 . S
O611 Eu564 2.432 . S
O611 C628 1.268 . S
O612 Eu564 2.291 . S
O612 C627 1.255 . S
O613 Eu575 2.372 . S
O613 C627 1.257 . S
O614 Eu575 2.462 . S
O614 C639 1.252 . S
O615 Eu575 2.373 . S
O615 C631 1.249 . S
O616 Eu564 2.335 . S
O616 C631 1.264 . S
O617 Eu575 2.432 . S
O617 C639 1.268 . S
O618 Eu575 2.291 . S
O618 C638 1.255 . S
O619 Eu564 2.372 . S
O619 C638 1.257 . S
C620 O609 1.249 . S
C620 O610 1.264 . S
C621 C624 1.382 . S
C621 C626 1.390 . S
C621 C628 1.506 . S
C622 C623 1.398 . S
C622 C626 1.392 . S
C623 C622 1.398 . S
C623 C625 1.372 . S
C623 H640 0.931 . S
C624 C621 1.382 . S
C624 C625 1.390 . S
C624 H641 0.931 . S
C625 C623 1.372 . S
C625 C624 1.390 . S
C625 H642 0.929 . S
C626 C621 1.390 . S
C626 C622 1.392 . S
C626 H643 0.930 . S
C627 O612 1.255 . S
C627 O613 1.257 . S
C628 Eu564 2.787 . S
C628 O608 1.252 . S
C628 O611 1.268 . S
C628 C621 1.506 . S
C629 C596 1.439 . S
C629 H606 0.931 . S
C629 C630 1.374 . S
C630 C601 1.387 . S
C630 H607 0.931 . S
C630 C629 1.374 . S
C631 O615 1.249 . S
C631 O616 1.264 . S
C632 C635 1.382 . S
C632 C636 1.390 . S
C632 C639 1.506 . S
C633 C634 1.398 . S
C633 C636 1.392 . S
C634 C633 1.398 . S
C634 C637 1.372 . S
C634 H644 0.931 . S
C635 C632 1.382 . S
C635 C637 1.390 . S
C635 H645 0.931 . S
C636 C632 1.390 . S
C636 C633 1.392 . S
C636 H646 0.930 . S
C637 C634 1.372 . S
C637 C635 1.390 . S
C637 H647 0.929 . S
C638 O618 1.255 . S
C638 O619 1.257 . S
C639 Eu575 2.787 . S
C639 O614 1.252 . S
C639 O617 1.268 . S
C639 C632 1.506 . S
H640 C623 0.931 . S
H641 C624 0.931 . S
H642 C625 0.929 . S
H643 C626 0.930 . S
H644 C634 0.931 . S
H645 C635 0.931 . S
H646 C636 0.930 . S
H647 C637 0.929 . S
Eu648 N677 2.600 . S
Eu648 N683 2.562 . S
Eu648 O692 2.462 . S
Eu648 O693 2.373 1_565 S
Eu648 O695 2.432 . S
Eu648 O696 2.293 . S
Eu648 O700 2.335 1_565 S
Eu648 O703 2.372 1_565 S
Eu648 C712 2.787 . S
C649 N650 1.370 . S
C649 C652 1.391 1_455 S
C649 C656 1.448 . S
N650 C649 1.370 . S
N650 C653 1.298 1_455 S
N650 Eu659 2.617 . S
C651 C653 1.397 . S
C651 C654 1.367 . S
C651 H671 0.931 . S
C652 C649 1.391 1_655 S
C652 C654 1.423 . S
C652 C658 1.434 1_655 S
C653 N650 1.298 1_655 S
C653 C651 1.397 . S
C653 H664 0.930 . S
C654 C651 1.367 . S
C654 C652 1.423 . S
C654 H675 0.929 . S
C655 C656 1.430 . S
C655 C657 1.387 . S
C655 C661 1.404 . S
C656 C649 1.448 . S
C656 C655 1.430 . S
C656 N660 1.351 . S
C657 C655 1.387 . S
C657 C658 1.374 . S
C657 H672 0.931 . S
C658 C652 1.434 1_455 S
C658 C657 1.374 . S
C658 H673 0.931 . S
Eu659 N650 2.617 . S
Eu659 N660 2.562 . S
Eu659 O694 2.335 . S
Eu659 O697 2.372 1_455 S
Eu659 O698 2.462 . S
Eu659 O699 2.373 . S
Eu659 O701 2.438 . S
Eu659 O702 2.291 . S
Eu659 C723 2.787 . S
N660 C656 1.351 . S
N660 Eu659 2.562 . S
N660 C662 1.325 . S
C661 C655 1.404 . S
C661 C663 1.366 . S
C661 H669 0.930 . S
C662 N660 1.325 . S
C662 C663 1.416 . S
C662 H668 0.929 . S
C663 C661 1.366 . S
C663 C662 1.416 . S
C663 H665 0.930 . S
H664 C653 0.930 . S
H665 C663 0.930 . S
H666 C681 0.930 1_545 S
H667 C688 0.930 . S
H668 C662 0.929 . S
H669 C661 0.930 . S
H670 C684 0.927 . S
H671 C651 0.931 . S
H672 C657 0.931 . S
H673 C658 0.931 . S
H674 C679 0.931 . S
H675 C654 0.929 . S
H676 C687 0.930 1_655 S
N677 Eu648 2.600 . S
N677 C678 1.365 . S
N677 C681 1.319 . S
C678 N677 1.365 . S
C678 C680 1.405 . S
C678 C686 1.448 . S
C679 H674 0.931 . S
C679 C681 1.397 . S
C679 C682 1.367 . S
C680 C678 1.405 . S
C680 C682 1.403 . S
C680 C713 1.439 . S
C681 H666 0.930 1_565 S
C681 N677 1.319 . S
C681 C679 1.397 . S
C682 C679 1.367 . S
C682 C680 1.403 . S
C682 H689 0.929 . S
N683 Eu648 2.562 . S
N683 C684 1.325 . S
N683 C686 1.351 . S
C684 H670 0.927 . S
C684 N683 1.325 . S
C684 C688 1.416 1_455 S
C685 C686 1.430 . S
C685 C687 1.404 . S
C685 C714 1.387 . S
C686 C678 1.448 . S
C686 N683 1.351 . S
C686 C685 1.430 . S
C687 H676 0.930 1_455 S
C687 C685 1.404 . S
C687 C688 1.366 1_455 S
C688 H667 0.930 . S
C688 C684 1.416 1_655 S
C688 C687 1.366 1_655 S
H689 C682 0.929 . S
H690 C713 0.931 . S
H691 C714 0.931 . S
O692 Eu648 2.462 . S
O692 C712 1.252 . S
O693 Eu648 2.373 1_545 S
O693 C704 1.249 . S
O694 Eu659 2.335 . S
O694 C704 1.264 . S
O695 Eu648 2.432 . S
O695 C712 1.268 . S
O696 Eu648 2.293 . S
O696 C711 1.252 1_465 S
O697 Eu659 2.372 1_655 S
O697 C711 1.257 . S
O698 Eu659 2.462 . S
O698 C723 1.252 . S
O699 Eu659 2.373 . S
O699 C715 1.249 . S
O700 Eu648 2.335 1_545 S
O700 C715 1.264 . S
O701 Eu659 2.438 . S
O701 C723 1.275 . S
O702 Eu659 2.291 . S
O702 C722 1.255 . S
O703 Eu648 2.372 1_545 S
O703 C722 1.257 . S
C704 O693 1.249 . S
C704 O694 1.264 . S
C705 C708 1.382 . S
C705 C710 1.390 . S
C705 C712 1.506 . S
C706 C707 1.398 . S
C706 C710 1.392 . S
C707 C706 1.398 . S
C707 C709 1.372 . S
C707 H724 0.931 . S
C708 C705 1.382 . S
C708 C709 1.390 . S
C708 H725 0.931 . S
C709 C707 1.372 . S
C709 C708 1.390 . S
C709 H726 0.929 . S
C710 C705 1.390 . S
C710 C706 1.392 . S
C710 H727 0.930 . S
C711 O696 1.252 1_645 S
C711 O697 1.257 . S
C712 Eu648 2.787 . S
C712 O692 1.252 . S
C712 O695 1.268 . S
C712 C705 1.506 . S
C713 C680 1.439 . S
C713 H690 0.931 . S
C713 C714 1.374 . S
C714 C685 1.387 . S
C714 H691 0.931 . S
C714 C713 1.374 . S
C715 O699 1.249 . S
C715 O700 1.264 . S
C716 C719 1.382 1_455 S
C716 C720 1.390 . S
C716 C723 1.506 . S
C717 C718 1.398 . S
C717 C720 1.392 . S
C718 C717 1.398 . S
C718 C721 1.372 1_455 S
C718 H728 0.939 . S
C719 C716 1.382 1_655 S
C719 C721 1.390 . S
C719 H729 0.931 . S
C720 C716 1.390 . S
C720 C717 1.392 . S
C720 H730 0.930 . S
C721 C718 1.372 1_655 S
C721 C719 1.390 . S
C721 H731 0.929 . S
C722 O702 1.255 . S
C722 O703 1.257 . S
C723 Eu659 2.787 . S
C723 O698 1.252 . S
C723 O701 1.275 . S
C723 C716 1.506 . S
H724 C707 0.931 . S
H725 C708 0.931 . S
H726 C709 0.929 . S
H727 C710 0.930 . S
H728 C718 0.939 . S
H729 C719 0.931 . S
H730 C720 0.930 . S
H731 C721 0.929 . S
Eu732 N761 2.600 . S
Eu732 N767 2.562 . S
Eu732 O776 2.462 . S
Eu732 O777 2.373 . S
Eu732 O779 2.432 . S
Eu732 O780 2.291 . S
Eu732 O784 2.335 . S
Eu732 O787 2.372 . S
Eu732 C796 2.787 . S
C733 N734 1.365 . S
C733 C736 1.405 . S
C733 C740 1.448 . S
N734 C733 1.365 . S
N734 C737 1.319 . S
N734 Eu743 2.600 . S
C735 C737 1.397 . S
C735 C738 1.367 . S
C735 H755 0.931 . S
C736 C733 1.405 . S
C736 C738 1.403 . S
C736 C742 1.439 . S
C737 N734 1.319 . S
C737 C735 1.397 . S
C737 H748 0.930 . S
C738 C735 1.367 . S
C738 C736 1.403 . S
C738 H759 0.929 . S
C739 C740 1.430 . S
C739 C741 1.387 . S
C739 C745 1.404 . S
C740 C733 1.448 . S
C740 C739 1.430 . S
C740 N744 1.351 . S
C741 C739 1.387 . S
C741 C742 1.374 . S
C741 H756 0.931 . S
C742 C736 1.439 . S
C742 C741 1.374 . S
C742 H757 0.931 . S
Eu743 N734 2.600 . S
Eu743 N744 2.562 . S
Eu743 O778 2.335 . S
Eu743 O781 2.372 . S
Eu743 O782 2.462 . S
Eu743 O783 2.373 . S
Eu743 O785 2.432 . S
Eu743 O786 2.291 . S
Eu743 C807 2.787 . S
N744 C740 1.351 . S
N744 Eu743 2.562 . S
N744 C746 1.325 . S
C745 C739 1.404 . S
C745 C747 1.366 . S
C745 H753 0.930 . S
C746 N744 1.325 . S
C746 C747 1.416 . S
C746 H752 0.929 . S
C747 C745 1.366 . S
C747 C746 1.416 . S
C747 H749 0.930 . S
H748 C737 0.930 . S
H749 C747 0.930 . S
H750 C765 0.930 . S
H751 C772 0.930 . S
H752 C746 0.929 . S
H753 C745 0.930 . S
H754 C768 0.929 . S
H755 C735 0.931 . S
H756 C741 0.931 . S
H757 C742 0.931 . S
H758 C763 0.931 . S
H759 C738 0.929 . S
H760 C771 0.930 . S
N761 Eu732 2.600 . S
N761 C762 1.365 . S
N761 C765 1.319 . S
C762 N761 1.365 . S
C762 C764 1.405 . S
C762 C770 1.448 . S
C763 H758 0.931 . S
C763 C765 1.397 . S
C763 C766 1.367 . S
C764 C762 1.405 . S
C764 C766 1.403 . S
C764 C797 1.439 . S
C765 H750 0.930 . S
C765 N761 1.319 . S
C765 C763 1.397 . S
C766 C763 1.367 . S
C766 C764 1.403 . S
C766 H773 0.929 . S
N767 Eu732 2.562 . S
N767 C768 1.325 . S
N767 C770 1.351 . S
C768 H754 0.929 . S
C768 N767 1.325 . S
C768 C772 1.416 . S
C769 C770 1.430 . S
C769 C771 1.404 . S
C769 C798 1.387 . S
C770 C762 1.448 . S
C770 N767 1.351 . S
C770 C769 1.430 . S
C771 H760 0.930 . S
C771 C769 1.404 . S
C771 C772 1.366 . S
C772 H751 0.930 . S
C772 C768 1.416 . S
C772 C771 1.366 . S
H773 C766 0.929 . S
H774 C797 0.931 . S
H775 C798 0.931 . S
O776 Eu732 2.462 . S
O776 C796 1.252 . S
O777 Eu732 2.373 . S
O777 C788 1.249 . S
O778 Eu743 2.335 . S
O778 C788 1.264 . S
O779 Eu732 2.432 . S
O779 C796 1.268 . S
O780 Eu732 2.291 . S
O780 C795 1.255 . S
O781 Eu743 2.372 . S
O781 C795 1.257 . S
O782 Eu743 2.462 . S
O782 C807 1.252 . S
O783 Eu743 2.373 . S
O783 C799 1.249 . S
O784 Eu732 2.335 . S
O784 C799 1.264 . S
O785 Eu743 2.432 . S
O785 C807 1.268 . S
O786 Eu743 2.291 . S
O786 C806 1.255 . S
O787 Eu732 2.372 . S
O787 C806 1.257 . S
C788 O777 1.249 . S
C788 O778 1.264 . S
C789 C792 1.382 . S
C789 C794 1.390 . S
C789 C796 1.506 . S
C790 C791 1.398 . S
C790 C794 1.392 . S
C791 C790 1.398 . S
C791 C793 1.372 . S
C791 H808 0.931 . S
C792 C789 1.382 . S
C792 C793 1.390 . S
C792 H809 0.931 . S
C793 C791 1.372 . S
C793 C792 1.390 . S
C793 H810 0.929 . S
C794 C789 1.390 . S
C794 C790 1.392 . S
C794 H811 0.930 . S
C795 O780 1.255 . S
C795 O781 1.257 . S
C796 Eu732 2.787 . S
C796 O776 1.252 . S
C796 O779 1.268 . S
C796 C789 1.506 . S
C797 C764 1.439 . S
C797 H774 0.931 . S
C797 C798 1.374 . S
C798 C769 1.387 . S
C798 H775 0.931 . S
C798 C797 1.374 . S
C799 O783 1.249 . S
C799 O784 1.264 . S
C800 C803 1.382 . S
C800 C804 1.390 . S
C800 C807 1.506 . S
C801 C802 1.398 . S
C801 C804 1.392 . S
C802 C801 1.398 . S
C802 C805 1.372 . S
C802 H812 0.931 . S
C803 C800 1.382 . S
C803 C805 1.390 . S
C803 H813 0.931 . S
C804 C800 1.390 . S
C804 C801 1.392 . S
C804 H814 0.930 . S
C805 C802 1.372 . S
C805 C803 1.390 . S
C805 H815 0.929 . S
C806 O786 1.255 . S
C806 O787 1.257 . S
C807 Eu743 2.787 . S
C807 O782 1.252 . S
C807 O785 1.268 . S
C807 C800 1.506 . S
H808 C791 0.931 . S
H809 C792 0.931 . S
H810 C793 0.929 . S
H811 C794 0.930 . S
H812 C802 0.931 . S
H813 C803 0.931 . S
H814 C804 0.930 . S
H815 C805 0.929 . S
Eu816 N845 2.600 . S
Eu816 N851 2.562 . S
Eu816 O860 2.462 . S
Eu816 O861 2.373 1_556 S
Eu816 O863 2.432 . S
Eu816 O864 2.291 . S
Eu816 O868 2.335 1_556 S
Eu816 O871 2.372 1_556 S
Eu816 C880 2.787 . S
C817 N818 1.360 1_545 S
C817 C820 1.405 1_545 S
C817 C824 1.448 . S
N818 C817 1.360 1_565 S
N818 C821 1.356 . S
N818 Eu827 2.568 1_565 S
C819 C821 1.397 . S
C819 C822 1.367 . S
C819 H839 0.931 . S
C820 C817 1.405 1_565 S
C820 C822 1.403 . S
C820 C826 1.439 1_565 S
C821 N818 1.356 . S
C821 C819 1.397 . S
C821 H832 0.930 . S
C822 C819 1.367 . S
C822 C820 1.403 . S
C822 H843 0.929 . S
C823 C824 1.430 . S
C823 C825 1.387 . S
C823 C829 1.404 . S
C824 C817 1.448 . S
C824 C823 1.430 . S
C824 N828 1.351 . S
C825 C823 1.387 . S
C825 C826 1.374 . S
C825 H840 0.931 . S
C826 C820 1.439 1_545 S
C826 C825 1.374 . S
C826 H841 0.942 . S
Eu827 N818 2.568 1_545 S
Eu827 N828 2.562 . S
Eu827 O862 2.335 . S
Eu827 O865 2.372 1_545 S
Eu827 O866 2.462 . S
Eu827 O867 2.373 . S
Eu827 O869 2.432 1_545 S
Eu827 O870 2.291 . S
Eu827 C891 2.787 . S
N828 C824 1.351 . S
N828 Eu827 2.562 . S
N828 C830 1.325 . S
C829 C823 1.404 . S
C829 C831 1.366 . S
C829 H837 0.930 . S
C830 N828 1.325 . S
C830 C831 1.416 . S
C830 H836 0.929 . S
C831 C829 1.366 . S
C831 C830 1.416 . S
C831 H833 0.930 . S
H832 C821 0.930 . S
H833 C831 0.930 . S
H834 C849 0.930 1_554 S
H835 C856 0.930 1_565 S
H836 C830 0.929 . S
H837 C829 0.930 . S
H838 C852 0.929 . S
H839 C819 0.931 . S
H840 C825 0.931 . S
H841 C826 0.942 . S
H842 C847 0.931 . S
H843 C822 0.929 . S
H844 C855 0.930 . S
N845 Eu816 2.600 . S
N845 C846 1.365 . S
N845 C849 1.319 . S
C846 N845 1.365 . S
C846 C848 1.405 . S
C846 C854 1.448 . S
C847 H842 0.931 . S
C847 C849 1.397 . S
C847 C850 1.367 . S
C848 C846 1.405 . S
C848 C850 1.403 . S
C848 C881 1.439 . S
C849 H834 0.930 1_556 S
C849 N845 1.319 . S
C849 C847 1.397 . S
C850 C847 1.367 . S
C850 C848 1.403 . S
C850 H857 0.929 . S
N851 Eu816 2.562 . S
N851 C852 1.325 . S
N851 C854 1.351 . S
C852 H838 0.929 . S
C852 N851 1.325 . S
C852 C856 1.416 . S
C853 C854 1.430 . S
C853 C855 1.404 . S
C853 C882 1.387 . S
C854 C846 1.448 . S
C854 N851 1.351 . S
C854 C853 1.430 . S
C855 H844 0.930 . S
C855 C853 1.404 . S
C855 C856 1.366 . S
C856 H835 0.930 1_545 S
C856 C852 1.416 . S
C856 C855 1.366 . S
H857 C850 0.929 . S
H858 C881 0.931 . S
H859 C882 0.931 . S
O860 Eu816 2.462 . S
O860 C880 1.252 . S
O861 Eu816 2.373 1_554 S
O861 C872 1.249 . S
O862 Eu827 2.335 . S
O862 C872 1.264 . S
O863 Eu816 2.432 . S
O863 C880 1.268 . S
O864 Eu816 2.291 . S
O864 C879 1.255 . S
O865 Eu827 2.372 1_565 S
O865 C879 1.257 1_564 S
O866 Eu827 2.462 . S
O866 C891 1.252 . S
O867 Eu827 2.373 . S
O867 C883 1.249 . S
O868 Eu816 2.335 1_554 S
O868 C883 1.264 . S
O869 Eu827 2.432 1_565 S
O869 C891 1.268 1_565 S
O870 Eu827 2.291 . S
O870 C890 1.255 . S
O871 Eu816 2.372 1_554 S
O871 C890 1.257 . S
C872 O861 1.249 . S
C872 O862 1.264 . S
C873 C876 1.382 . S
C873 C878 1.390 . S
C873 C880 1.506 . S
C874 C875 1.398 . S
C874 C878 1.392 . S
C875 C874 1.398 . S
C875 C877 1.372 . S
C875 H892 0.931 . S
C876 C873 1.382 . S
C876 C877 1.390 . S
C876 H893 0.931 . S
C877 C875 1.372 . S
C877 C876 1.390 . S
C877 H894 0.929 . S
C878 C873 1.390 . S
C878 C874 1.392 . S
C878 H895 0.930 . S
C879 O864 1.255 . S
C879 O865 1.257 1_546 S
C880 Eu816 2.787 . S
C880 O860 1.252 . S
C880 O863 1.268 . S
C880 C873 1.506 . S
C881 C848 1.439 . S
C881 H858 0.931 . S
C881 C882 1.374 . S
C882 C853 1.387 . S
C882 H859 0.931 . S
C882 C881 1.374 . S
C883 O867 1.249 . S
C883 O868 1.264 . S
C884 C887 1.382 1_545 S
C884 C888 1.390 . S
C884 C891 1.506 . S
C885 C886 1.398 1_545 S
C885 C888 1.392 . S
C886 C885 1.398 1_565 S
C886 C889 1.372 . S
C886 H896 0.931 . S
C887 C884 1.382 1_565 S
C887 C889 1.390 . S
C887 H897 0.931 . S
C888 C884 1.390 . S
C888 C885 1.392 . S
C888 H898 0.930 . S
C889 C886 1.372 . S
C889 C887 1.390 . S
C889 H899 0.929 . S
C890 O870 1.255 . S
C890 O871 1.257 . S
C891 Eu827 2.787 . S
C891 O866 1.252 . S
C891 O869 1.268 1_545 S
C891 C884 1.506 . S
H892 C875 0.931 . S
H893 C876 0.931 . S
H894 C877 0.929 . S
H895 C878 0.930 . S
H896 C886 0.931 . S
H897 C887 0.931 . S
H898 C888 0.930 . S
H899 C889 0.929 . S
Eu900 N929 2.600 . S
Eu900 N935 2.562 . S
Eu900 O944 2.462 . S
Eu900 O945 2.373 . S
Eu900 O947 2.432 . S
Eu900 O948 2.291 . S
Eu900 O952 2.335 . S
Eu900 O955 2.372 . S
Eu900 C964 2.787 . S
C901 N902 1.365 . S
C901 C904 1.405 . S
C901 C908 1.448 . S
N902 C901 1.365 . S
N902 C905 1.319 . S
N902 Eu911 2.600 . S
C903 C905 1.397 . S
C903 C906 1.367 . S
C903 H923 0.931 . S
C904 C901 1.405 . S
C904 C906 1.403 . S
C904 C910 1.439 . S
C905 N902 1.319 . S
C905 C903 1.397 . S
C905 H916 0.930 . S
C906 C903 1.367 . S
C906 C904 1.403 . S
C906 H927 0.929 . S
C907 C908 1.430 . S
C907 C909 1.387 . S
C907 C913 1.404 . S
C908 C901 1.448 . S
C908 C907 1.430 . S
C908 N912 1.351 . S
C909 C907 1.387 . S
C909 C910 1.374 . S
C909 H924 0.931 . S
C910 C904 1.439 . S
C910 C909 1.374 . S
C910 H925 0.931 . S
Eu911 N902 2.600 . S
Eu911 N912 2.562 . S
Eu911 O946 2.335 . S
Eu911 O949 2.372 . S
Eu911 O950 2.462 . S
Eu911 O951 2.373 . S
Eu911 O953 2.432 . S
Eu911 O954 2.291 . S
Eu911 C975 2.787 . S
N912 C908 1.351 . S
N912 Eu911 2.562 . S
N912 C914 1.325 . S
C913 C907 1.404 . S
C913 C915 1.366 . S
C913 H921 0.930 . S
C914 N912 1.325 . S
C914 C915 1.416 . S
C914 H920 0.929 . S
C915 C913 1.366 . S
C915 C914 1.416 . S
C915 H917 0.930 . S
H916 C905 0.930 . S
H917 C915 0.930 . S
H918 C933 0.930 . S
H919 C940 0.930 . S
H920 C914 0.929 . S
H921 C913 0.930 . S
H922 C936 0.929 . S
H923 C903 0.931 . S
H924 C909 0.931 . S
H925 C910 0.931 . S
H926 C931 0.931 . S
H927 C906 0.929 . S
H928 C939 0.930 . S
N929 Eu900 2.600 . S
N929 C930 1.365 . S
N929 C933 1.319 . S
C930 N929 1.365 . S
C930 C932 1.405 . S
C930 C938 1.448 . S
C931 H926 0.931 . S
C931 C933 1.397 . S
C931 C934 1.367 . S
C932 C930 1.405 . S
C932 C934 1.403 . S
C932 C965 1.439 . S
C933 H918 0.930 . S
C933 N929 1.319 . S
C933 C931 1.397 . S
C934 C931 1.367 . S
C934 C932 1.403 . S
C934 H941 0.929 . S
N935 Eu900 2.562 . S
N935 C936 1.325 . S
N935 C938 1.351 . S
C936 H922 0.929 . S
C936 N935 1.325 . S
C936 C940 1.416 . S
C937 C938 1.430 . S
C937 C939 1.404 . S
C937 C966 1.387 . S
C938 C930 1.448 . S
C938 N935 1.351 . S
C938 C937 1.430 . S
C939 H928 0.930 . S
C939 C937 1.404 . S
C939 C940 1.366 . S
C940 H919 0.930 . S
C940 C936 1.416 . S
C940 C939 1.366 . S
H941 C934 0.929 . S
H942 C965 0.931 . S
H943 C966 0.931 . S
O944 Eu900 2.462 . S
O944 C964 1.252 . S
O945 Eu900 2.373 . S
O945 C956 1.249 . S
O946 Eu911 2.335 . S
O946 C956 1.264 . S
O947 Eu900 2.432 . S
O947 C964 1.268 . S
O948 Eu900 2.291 . S
O948 C963 1.255 . S
O949 Eu911 2.372 . S
O949 C963 1.257 . S
O950 Eu911 2.462 . S
O950 C975 1.252 . S
O951 Eu911 2.373 . S
O951 C967 1.249 . S
O952 Eu900 2.335 . S
O952 C967 1.264 . S
O953 Eu911 2.432 . S
O953 C975 1.268 . S
O954 Eu911 2.291 . S
O954 C974 1.255 . S
O955 Eu900 2.372 . S
O955 C974 1.257 . S
C956 O945 1.249 . S
C956 O946 1.264 . S
C957 C960 1.382 . S
C957 C962 1.390 . S
C957 C964 1.506 . S
C958 C959 1.398 . S
C958 C962 1.392 . S
C959 C958 1.398 . S
C959 C961 1.372 . S
C959 H976 0.931 . S
C960 C957 1.382 . S
C960 C961 1.390 . S
C960 H977 0.931 . S
C961 C959 1.372 . S
C961 C960 1.390 . S
C961 H978 0.929 . S
C962 C957 1.390 . S
C962 C958 1.392 . S
C962 H979 0.930 . S
C963 O948 1.255 . S
C963 O949 1.257 . S
C964 Eu900 2.787 . S
C964 O944 1.252 . S
C964 O947 1.268 . S
C964 C957 1.506 . S
C965 C932 1.439 . S
C965 H942 0.931 . S
C965 C966 1.374 . S
C966 C937 1.387 . S
C966 H943 0.931 . S
C966 C965 1.374 . S
C967 O951 1.249 . S
C967 O952 1.264 . S
C968 C971 1.382 . S
C968 C972 1.390 . S
C968 C975 1.506 . S
C969 C970 1.398 . S
C969 C972 1.392 . S
C970 C969 1.398 . S
C970 C973 1.372 . S
C970 H980 0.931 . S
C971 C968 1.382 . S
C971 C973 1.390 . S
C971 H981 0.931 . S
C972 C968 1.390 . S
C972 C969 1.392 . S
C972 H982 0.930 . S
C973 C970 1.372 . S
C973 C971 1.390 . S
C973 H983 0.929 . S
C974 O954 1.255 . S
C974 O955 1.257 . S
C975 Eu911 2.787 . S
C975 O950 1.252 . S
C975 O953 1.268 . S
C975 C968 1.506 . S
H976 C959 0.931 . S
H977 C960 0.931 . S
H978 C961 0.929 . S
H979 C962 0.930 . S
H980 C970 0.931 . S
H981 C971 0.931 . S
H982 C972 0.930 . S
H983 C973 0.929 . S
Eu984 N1013 2.600 1_554 S
Eu984 N1019 2.562 1_554 S
Eu984 O1028 2.462 . S
Eu984 O1029 2.373 1_554 S
Eu984 O1031 2.432 . S
Eu984 O1032 2.291 . S
Eu984 O1036 2.335 . S
Eu984 O1039 2.372 . S
Eu984 C1048 2.787 . S
C985 N986 1.365 . S
C985 C988 1.405 . S
C985 C992 1.448 . S
N986 C985 1.365 . S
N986 C989 1.319 . S
N986 Eu995 2.600 . S
C987 C989 1.397 . S
C987 C990 1.367 . S
C987 H1007 0.931 . S
C988 C985 1.405 . S
C988 C990 1.403 . S
C988 C994 1.439 . S
C989 N986 1.319 . S
C989 C987 1.397 . S
C989 H1000 0.930 . S
C990 C987 1.367 . S
C990 C988 1.403 . S
C990 H1011 0.929 . S
C991 C992 1.430 . S
C991 C993 1.387 . S
C991 C997 1.404 . S
C992 C985 1.448 . S
C992 C991 1.430 . S
C992 N996 1.351 . S
C993 C991 1.387 . S
C993 C994 1.374 . S
C993 H1008 0.931 . S
C994 C988 1.439 . S
C994 C993 1.374 . S
C994 H1009 0.931 . S
Eu995 N986 2.600 . S
Eu995 N996 2.562 . S
Eu995 O1030 2.335 1_554 S
Eu995 O1033 2.372 . S
Eu995 O1034 2.462 . S
Eu995 O1035 2.373 . S
Eu995 O1037 2.432 . S
Eu995 O1038 2.291 . S
Eu995 C1059 2.787 . S
N996 C992 1.351 . S
N996 Eu995 2.562 . S
N996 C998 1.325 . S
C997 C991 1.404 . S
C997 C999 1.366 . S
C997 H1005 0.930 . S
C998 N996 1.325 . S
C998 C999 1.416 . S
C998 H1004 0.929 . S
C999 C997 1.366 . S
C999 C998 1.416 . S
C999 H1001 0.930 . S
H1000 C989 0.930 . S
H1001 C999 0.930 . S
H1002 C1017 0.930 1_554 S
H1003 C1024 0.930 . S
H1004 C998 0.929 . S
H1005 C997 0.930 . S
H1006 C1020 0.929 . S
H1007 C987 0.931 . S
H1008 C993 0.931 . S
H1009 C994 0.931 . S
H1010 C1015 0.931 . S
H1011 C990 0.929 . S
H1012 C1023 0.930 . S
N1013 Eu984 2.600 1_556 S
N1013 C1014 1.365 . S
N1013 C1017 1.319 . S
C1014 N1013 1.365 . S
C1014 C1016 1.405 . S
C1014 C1022 1.448 . S
C1015 H1010 0.931 . S
C1015 C1017 1.397 . S
C1015 C1018 1.367 . S
C1016 C1014 1.405 . S
C1016 C1018 1.403 . S
C1016 C1049 1.439 . S
C1017 H1002 0.930 1_556 S
C1017 N1013 1.319 . S
C1017 C1015 1.397 . S
C1018 C1015 1.367 . S
C1018 C1016 1.403 . S
C1018 H1025 0.929 . S
N1019 Eu984 2.562 1_556 S
N1019 C1020 1.325 . S
N1019 C1022 1.351 . S
C1020 H1006 0.929 . S
C1020 N1019 1.325 . S
C1020 C1024 1.416 . S
C1021 C1022 1.430 . S
C1021 C1023 1.404 . S
C1021 C1050 1.387 . S
C1022 C1014 1.448 . S
C1022 N1019 1.351 . S
C1022 C1021 1.430 . S
C1023 H1012 0.930 . S
C1023 C1021 1.404 . S
C1023 C1024 1.366 . S
C1024 H1003 0.930 . S
C1024 C1020 1.416 . S
C1024 C1023 1.366 . S
H1025 C1018 0.929 . S
H1026 C1049 0.931 . S
H1027 C1050 0.931 . S
O1028 Eu984 2.462 . S
O1028 C1048 1.252 . S
O1029 Eu984 2.373 1_556 S
O1029 C1040 1.249 . S
O1030 Eu995 2.335 1_556 S
O1030 C1040 1.264 . S
O1031 Eu984 2.432 . S
O1031 C1048 1.268 . S
O1032 Eu984 2.291 . S
O1032 C1047 1.255 . S
O1033 Eu995 2.372 . S
O1033 C1047 1.257 . S
O1034 Eu995 2.462 . S
O1034 C1059 1.252 . S
O1035 Eu995 2.373 . S
O1035 C1051 1.249 . S
O1036 Eu984 2.335 . S
O1036 C1051 1.264 . S
O1037 Eu995 2.432 . S
O1037 C1059 1.268 . S
O1038 Eu995 2.291 . S
O1038 C1058 1.255 . S
O1039 Eu984 2.372 . S
O1039 C1058 1.257 . S
C1040 O1029 1.249 . S
C1040 O1030 1.264 . S
C1041 C1044 1.382 . S
C1041 C1046 1.390 . S
C1041 C1048 1.506 . S
C1042 C1043 1.398 . S
C1042 C1046 1.392 . S
C1043 C1042 1.398 . S
C1043 C1045 1.372 . S
C1043 H1060 0.931 . S
C1044 C1041 1.382 . S
C1044 C1045 1.390 . S
C1044 H1061 0.931 . S
C1045 C1043 1.372 . S
C1045 C1044 1.390 . S
C1045 H1062 0.929 . S
C1046 C1041 1.390 . S
C1046 C1042 1.392 . S
C1046 H1063 0.930 . S
C1047 O1032 1.255 . S
C1047 O1033 1.257 . S
C1048 Eu984 2.787 . S
C1048 O1028 1.252 . S
C1048 O1031 1.268 . S
C1048 C1041 1.506 . S
C1049 C1016 1.439 . S
C1049 H1026 0.931 . S
C1049 C1050 1.374 . S
C1050 C1021 1.387 . S
C1050 H1027 0.931 . S
C1050 C1049 1.374 . S
C1051 O1035 1.249 . S
C1051 O1036 1.264 . S
C1052 C1055 1.382 . S
C1052 C1056 1.390 . S
C1052 C1059 1.506 1_556 S
C1053 C1054 1.398 . S
C1053 C1056 1.392 . S
C1054 C1053 1.398 . S
C1054 C1057 1.372 . S
C1054 H1064 0.931 . S
C1055 C1052 1.382 . S
C1055 C1057 1.390 . S
C1055 H1065 0.931 . S
C1056 C1052 1.390 . S
C1056 C1053 1.392 . S
C1056 H1066 0.930 . S
C1057 C1054 1.372 . S
C1057 C1055 1.390 . S
C1057 H1067 0.929 . S
C1058 O1038 1.255 . S
C1058 O1039 1.257 . S
C1059 Eu995 2.787 . S
C1059 O1034 1.252 . S
C1059 O1037 1.268 . S
C1059 C1052 1.506 1_554 S
H1060 C1043 0.931 . S
H1061 C1044 0.931 . S
H1062 C1045 0.929 . S
H1063 C1046 0.930 . S
H1064 C1054 0.931 . S
H1065 C1055 0.931 . S
H1066 C1056 0.930 . S
H1067 C1057 0.929 . S
Eu1068 N1097 2.600 . S
Eu1068 N1103 2.562 . S
Eu1068 O1112 2.462 . S
Eu1068 O1113 2.373 . S
Eu1068 O1115 2.432 . S
Eu1068 O1116 2.291 . S
Eu1068 O1120 2.335 . S
Eu1068 O1123 2.372 . S
Eu1068 C1132 2.787 . S
C1069 N1070 1.365 . S
C1069 C1072 1.405 . S
C1069 C1076 1.448 . S
N1070 C1069 1.365 . S
N1070 C1073 1.319 . S
N1070 Eu1079 2.600 . S
C1071 C1073 1.397 . S
C1071 C1074 1.367 . S
C1071 H1091 0.931 . S
C1072 C1069 1.405 . S
C1072 C1074 1.403 . S
C1072 C1078 1.439 . S
C1073 N1070 1.319 . S
C1073 C1071 1.397 . S
C1073 H1084 0.930 . S
C1074 C1071 1.367 . S
C1074 C1072 1.403 . S
C1074 H1095 0.929 . S
C1075 C1076 1.430 . S
C1075 C1077 1.387 . S
C1075 C1081 1.404 . S
C1076 C1069 1.448 . S
C1076 C1075 1.430 . S
C1076 N1080 1.351 . S
C1077 C1075 1.387 . S
C1077 C1078 1.374 . S
C1077 H1092 0.931 . S
C1078 C1072 1.439 . S
C1078 C1077 1.374 . S
C1078 H1093 0.931 . S
Eu1079 N1070 2.600 . S
Eu1079 N1080 2.562 . S
Eu1079 O1114 2.335 . S
Eu1079 O1117 2.372 . S
Eu1079 O1118 2.462 . S
Eu1079 O1119 2.373 . S
Eu1079 O1121 2.432 . S
Eu1079 O1122 2.291 . S
Eu1079 C1143 2.787 . S
N1080 C1076 1.351 . S
N1080 Eu1079 2.562 . S
N1080 C1082 1.325 . S
C1081 C1075 1.404 . S
C1081 C1083 1.366 . S
C1081 H1089 0.930 . S
C1082 N1080 1.325 . S
C1082 C1083 1.416 . S
C1082 H1088 0.929 . S
C1083 C1081 1.366 . S
C1083 C1082 1.416 . S
C1083 H1085 0.930 . S
H1084 C1073 0.930 . S
H1085 C1083 0.930 . S
H1086 C1101 0.930 . S
H1087 C1108 0.930 . S
H1088 C1082 0.929 . S
H1089 C1081 0.930 . S
H1090 C1104 0.929 . S
H1091 C1071 0.931 . S
H1092 C1077 0.931 . S
H1093 C1078 0.931 . S
H1094 C1099 0.931 . S
H1095 C1074 0.929 . S
H1096 C1107 0.930 . S
N1097 Eu1068 2.600 . S
N1097 C1098 1.365 . S
N1097 C1101 1.319 . S
C1098 N1097 1.365 . S
C1098 C1100 1.405 . S
C1098 C1106 1.448 . S
C1099 H1094 0.931 . S
C1099 C1101 1.397 . S
C1099 C1102 1.367 . S
C1100 C1098 1.405 . S
C1100 C1102 1.403 . S
C1100 C1133 1.439 . S
C1101 H1086 0.930 . S
C1101 N1097 1.319 . S
C1101 C1099 1.397 . S
C1102 C1099 1.367 . S
C1102 C1100 1.403 . S
C1102 H1109 0.929 . S
N1103 Eu1068 2.562 . S
N1103 C1104 1.325 . S
N1103 C1106 1.351 . S
C1104 H1090 0.929 . S
C1104 N1103 1.325 . S
C1104 C1108 1.416 . S
C1105 C1106 1.430 . S
C1105 C1107 1.404 . S
C1105 C1134 1.387 . S
C1106 C1098 1.448 . S
C1106 N1103 1.351 . S
C1106 C1105 1.430 . S
C1107 H1096 0.930 . S
C1107 C1105 1.404 . S
C1107 C1108 1.366 . S
C1108 H1087 0.930 . S
C1108 C1104 1.416 . S
C1108 C1107 1.366 . S
H1109 C1102 0.929 . S
H1110 C1133 0.931 . S
H1111 C1134 0.931 . S
O1112 Eu1068 2.462 . S
O1112 C1132 1.252 . S
O1113 Eu1068 2.373 . S
O1113 C1124 1.249 . S
O1114 Eu1079 2.335 . S
O1114 C1124 1.264 . S
O1115 Eu1068 2.432 . S
O1115 C1132 1.268 . S
O1116 Eu1068 2.291 . S
O1116 C1131 1.255 . S
O1117 Eu1079 2.372 . S
O1117 C1131 1.257 . S
O1118 Eu1079 2.462 . S
O1118 C1143 1.252 . S
O1119 Eu1079 2.373 . S
O1119 C1135 1.249 . S
O1120 Eu1068 2.335 . S
O1120 C1135 1.264 . S
O1121 Eu1079 2.432 . S
O1121 C1143 1.268 . S
O1122 Eu1079 2.291 . S
O1122 C1142 1.255 . S
O1123 Eu1068 2.372 . S
O1123 C1142 1.257 . S
C1124 O1113 1.249 . S
C1124 O1114 1.264 . S
C1125 C1128 1.382 . S
C1125 C1130 1.390 . S
C1125 C1132 1.506 . S
C1126 C1127 1.398 . S
C1126 C1130 1.392 . S
C1127 C1126 1.398 . S
C1127 C1129 1.372 . S
C1127 H1144 0.931 . S
C1128 C1125 1.382 . S
C1128 C1129 1.390 . S
C1128 H1145 0.931 . S
C1129 C1127 1.372 . S
C1129 C1128 1.390 . S
C1129 H1146 0.929 . S
C1130 C1125 1.390 . S
C1130 C1126 1.392 . S
C1130 H1147 0.930 . S
C1131 O1116 1.255 . S
C1131 O1117 1.257 . S
C1132 Eu1068 2.787 . S
C1132 O1112 1.252 . S
C1132 O1115 1.268 . S
C1132 C1125 1.506 . S
C1133 C1100 1.439 . S
C1133 H1110 0.931 . S
C1133 C1134 1.374 . S
C1134 C1105 1.387 . S
C1134 H1111 0.931 . S
C1134 C1133 1.374 . S
C1135 O1119 1.249 . S
C1135 O1120 1.264 . S
C1136 C1139 1.382 . S
C1136 C1140 1.390 . S
C1136 C1143 1.506 . S
C1137 C1138 1.398 . S
C1137 C1140 1.392 . S
C1138 C1137 1.398 . S
C1138 C1141 1.372 . S
C1138 H1148 0.931 . S
C1139 C1136 1.382 . S
C1139 C1141 1.390 . S
C1139 H1149 0.931 . S
C1140 C1136 1.390 . S
C1140 C1137 1.392 . S
C1140 H1150 0.930 . S
C1141 C1138 1.372 . S
C1141 C1139 1.390 . S
C1141 H1151 0.929 . S
C1142 O1122 1.255 . S
C1142 O1123 1.257 . S
C1143 Eu1079 2.787 . S
C1143 O1118 1.252 . S
C1143 O1121 1.268 . S
C1143 C1136 1.506 . S
H1144 C1127 0.931 . S
H1145 C1128 0.931 . S
H1146 C1129 0.929 . S
H1147 C1130 0.930 . S
H1148 C1138 0.931 . S
H1149 C1139 0.931 . S
H1150 C1140 0.930 . S
H1151 C1141 0.929 . S
Eu1152 N1181 2.600 1_455 S
Eu1152 N1187 2.562 1_455 S
Eu1152 O1196 2.462 . S
Eu1152 O1197 2.373 1_455 S
Eu1152 O1199 2.432 . S
Eu1152 O1200 2.291 . S
Eu1152 O1204 2.335 . S
Eu1152 O1207 2.372 . S
Eu1152 C1216 2.787 . S
C1153 N1154 1.365 . S
C1153 C1156 1.405 . S
C1153 C1160 1.448 . S
N1154 C1153 1.365 . S
N1154 C1157 1.319 . S
N1154 Eu1163 2.600 . S
C1155 C1157 1.397 . S
C1155 C1158 1.367 . S
C1155 H1175 0.931 . S
C1156 C1153 1.405 . S
C1156 C1158 1.403 . S
C1156 C1162 1.439 . S
C1157 N1154 1.319 . S
C1157 C1155 1.397 . S
C1157 H1168 0.930 . S
C1158 C1155 1.367 . S
C1158 C1156 1.403 . S
C1158 H1179 0.929 . S
C1159 C1160 1.430 . S
C1159 C1161 1.387 . S
C1159 C1165 1.404 . S
C1160 C1153 1.448 . S
C1160 C1159 1.430 . S
C1160 N1164 1.351 . S
C1161 C1159 1.387 . S
C1161 C1162 1.374 . S
C1161 H1176 0.931 . S
C1162 C1156 1.439 . S
C1162 C1161 1.374 . S
C1162 H1177 0.931 . S
Eu1163 N1154 2.600 . S
Eu1163 N1164 2.562 . S
Eu1163 O1198 2.335 1_455 S
Eu1163 O1201 2.372 . S
Eu1163 O1202 2.462 . S
Eu1163 O1203 2.373 . S
Eu1163 O1205 2.432 . S
Eu1163 O1206 2.291 . S
Eu1163 C1227 2.787 1_455 S
N1164 C1160 1.351 . S
N1164 Eu1163 2.562 . S
N1164 C1166 1.325 . S
C1165 C1159 1.404 . S
C1165 C1167 1.366 . S
C1165 H1173 0.930 . S
C1166 N1164 1.325 . S
C1166 C1167 1.416 . S
C1166 H1172 0.929 . S
C1167 C1165 1.366 . S
C1167 C1166 1.416 . S
C1167 H1169 0.930 . S
H1168 C1157 0.930 . S
H1169 C1167 0.930 . S
H1170 C1185 0.930 1_455 S
H1171 C1192 0.930 . S
H1172 C1166 0.929 . S
H1173 C1165 0.930 . S
H1174 C1188 0.929 . S
H1175 C1155 0.931 . S
H1176 C1161 0.931 . S
H1177 C1162 0.931 . S
H1178 C1183 0.931 . S
H1179 C1158 0.929 . S
H1180 C1191 0.930 . S
N1181 Eu1152 2.600 1_655 S
N1181 C1182 1.365 . S
N1181 C1185 1.319 . S
C1182 N1181 1.365 . S
C1182 C1184 1.405 . S
C1182 C1190 1.448 . S
C1183 H1178 0.931 . S
C1183 C1185 1.397 . S
C1183 C1186 1.367 . S
C1184 C1182 1.405 . S
C1184 C1186 1.403 . S
C1184 C1217 1.439 . S
C1185 H1170 0.930 1_655 S
C1185 N1181 1.319 . S
C1185 C1183 1.397 . S
C1186 C1183 1.367 . S
C1186 C1184 1.403 . S
C1186 H1193 0.929 . S
N1187 Eu1152 2.562 1_655 S
N1187 C1188 1.325 . S
N1187 C1190 1.351 . S
C1188 H1174 0.929 . S
C1188 N1187 1.325 . S
C1188 C1192 1.416 . S
C1189 C1190 1.430 . S
C1189 C1191 1.404 . S
C1189 C1218 1.387 . S
C1190 C1182 1.448 . S
C1190 N1187 1.351 . S
C1190 C1189 1.430 . S
C1191 H1180 0.930 . S
C1191 C1189 1.404 . S
C1191 C1192 1.366 . S
C1192 H1171 0.930 . S
C1192 C1188 1.416 . S
C1192 C1191 1.366 . S
H1193 C1186 0.929 . S
H1194 C1217 0.931 . S
H1195 C1218 0.931 . S
O1196 Eu1152 2.462 . S
O1196 C1216 1.252 . S
O1197 Eu1152 2.373 1_655 S
O1197 C1208 1.249 . S
O1198 Eu1163 2.335 1_655 S
O1198 C1208 1.264 . S
O1199 Eu1152 2.432 . S
O1199 C1216 1.268 . S
O1200 Eu1152 2.291 . S
O1200 C1215 1.255 . S
O1201 Eu1163 2.372 . S
O1201 C1215 1.257 . S
O1202 Eu1163 2.462 . S
O1202 C1227 1.252 1_455 S
O1203 Eu1163 2.373 . S
O1203 C1219 1.249 . S
O1204 Eu1152 2.335 . S
O1204 C1219 1.264 . S
O1205 Eu1163 2.432 . S
O1205 C1227 1.268 1_455 S
O1206 Eu1163 2.291 . S
O1206 C1226 1.255 . S
O1207 Eu1152 2.372 . S
O1207 C1226 1.257 . S
C1208 O1197 1.249 . S
C1208 O1198 1.264 . S
C1209 C1212 1.382 . S
C1209 C1214 1.390 . S
C1209 C1216 1.506 . S
C1210 C1211 1.398 . S
C1210 C1214 1.392 . S
C1211 C1210 1.398 . S
C1211 C1213 1.372 . S
C1211 H1228 0.931 . S
C1212 C1209 1.382 . S
C1212 C1213 1.390 . S
C1212 H1229 0.931 . S
C1213 C1211 1.372 . S
C1213 C1212 1.390 . S
C1213 H1230 0.929 . S
C1214 C1209 1.390 . S
C1214 C1210 1.392 . S
C1214 H1231 0.930 . S
C1215 O1200 1.255 . S
C1215 O1201 1.257 . S
C1216 Eu1152 2.787 . S
C1216 O1196 1.252 . S
C1216 O1199 1.268 . S
C1216 C1209 1.506 . S
C1217 C1184 1.439 . S
C1217 H1194 0.931 . S
C1217 C1218 1.374 . S
C1218 C1189 1.387 . S
C1218 H1195 0.931 . S
C1218 C1217 1.374 . S
C1219 O1203 1.249 . S
C1219 O1204 1.264 . S
C1220 C1223 1.382 . S
C1220 C1224 1.390 . S
C1220 C1227 1.506 . S
C1221 C1222 1.398 . S
C1221 C1224 1.392 . S
C1222 C1221 1.398 . S
C1222 C1225 1.372 . S
C1222 H1232 0.931 . S
C1223 C1220 1.382 . S
C1223 C1225 1.390 . S
C1223 H1233 0.931 . S
C1224 C1220 1.390 . S
C1224 C1221 1.392 . S
C1224 H1234 0.930 . S
C1225 C1222 1.372 . S
C1225 C1223 1.390 . S
C1225 H1235 0.929 . S
C1226 O1206 1.255 . S
C1226 O1207 1.257 . S
C1227 Eu1163 2.787 1_655 S
C1227 O1202 1.252 1_655 S
C1227 O1205 1.268 1_655 S
C1227 C1220 1.506 . S
H1228 C1211 0.931 . S
H1229 C1212 0.931 . S
H1230 C1213 0.929 . S
H1231 C1214 0.930 . S
H1232 C1222 0.931 . S
H1233 C1223 0.931 . S
H1234 C1224 0.930 . S
H1235 C1225 0.929 . S
Eu1236 N1265 2.600 . S
Eu1236 N1271 2.562 . S
Eu1236 O1280 2.462 . S
Eu1236 O1281 2.373 . S
Eu1236 O1283 2.432 . S
Eu1236 O1284 2.291 . S
Eu1236 O1288 2.335 . S
Eu1236 O1291 2.372 . S
Eu1236 C1300 2.787 . S
C1237 N1238 1.365 . S
C1237 C1240 1.405 . S
C1237 C1244 1.448 . S
N1238 C1237 1.365 . S
N1238 C1241 1.319 . S
N1238 Eu1247 2.600 . S
C1239 C1241 1.397 . S
C1239 C1242 1.367 . S
C1239 H1259 0.931 . S
C1240 C1237 1.405 . S
C1240 C1242 1.403 . S
C1240 C1246 1.439 . S
C1241 N1238 1.319 . S
C1241 C1239 1.397 . S
C1241 H1252 0.930 . S
C1242 C1239 1.367 . S
C1242 C1240 1.403 . S
C1242 H1263 0.929 . S
C1243 C1244 1.430 . S
C1243 C1245 1.387 . S
C1243 C1249 1.404 . S
C1244 C1237 1.448 . S
C1244 C1243 1.430 . S
C1244 N1248 1.351 . S
C1245 C1243 1.387 . S
C1245 C1246 1.374 . S
C1245 H1260 0.931 . S
C1246 C1240 1.439 . S
C1246 C1245 1.374 . S
C1246 H1261 0.931 . S
Eu1247 N1238 2.600 . S
Eu1247 N1248 2.562 . S
Eu1247 O1282 2.335 . S
Eu1247 O1285 2.372 . S
Eu1247 O1286 2.462 . S
Eu1247 O1287 2.373 . S
Eu1247 O1289 2.432 . S
Eu1247 O1290 2.291 . S
Eu1247 C1311 2.787 . S
N1248 C1244 1.351 . S
N1248 Eu1247 2.562 . S
N1248 C1250 1.325 . S
C1249 C1243 1.404 . S
C1249 C1251 1.366 . S
C1249 H1257 0.930 . S
C1250 N1248 1.325 . S
C1250 C1251 1.416 . S
C1250 H1256 0.929 . S
C1251 C1249 1.366 . S
C1251 C1250 1.416 . S
C1251 H1253 0.930 . S
H1252 C1241 0.930 . S
H1253 C1251 0.930 . S
H1254 C1269 0.930 . S
H1255 C1276 0.930 . S
H1256 C1250 0.929 . S
H1257 C1249 0.930 . S
H1258 C1272 0.929 . S
H1259 C1239 0.931 . S
H1260 C1245 0.931 . S
H1261 C1246 0.931 . S
H1262 C1267 0.931 . S
H1263 C1242 0.929 . S
H1264 C1275 0.930 . S
N1265 Eu1236 2.600 . S
N1265 C1266 1.365 . S
N1265 C1269 1.319 . S
C1266 N1265 1.365 . S
C1266 C1268 1.405 . S
C1266 C1274 1.448 . S
C1267 H1262 0.931 . S
C1267 C1269 1.397 . S
C1267 C1270 1.367 . S
C1268 C1266 1.405 . S
C1268 C1270 1.403 . S
C1268 C1301 1.439 . S
C1269 H1254 0.930 . S
C1269 N1265 1.319 . S
C1269 C1267 1.397 . S
C1270 C1267 1.367 . S
C1270 C1268 1.403 . S
C1270 H1277 0.929 . S
N1271 Eu1236 2.562 . S
N1271 C1272 1.325 . S
N1271 C1274 1.351 . S
C1272 H1258 0.929 . S
C1272 N1271 1.325 . S
C1272 C1276 1.416 . S
C1273 C1274 1.430 . S
C1273 C1275 1.404 . S
C1273 C1302 1.387 . S
C1274 C1266 1.448 . S
C1274 N1271 1.351 . S
C1274 C1273 1.430 . S
C1275 H1264 0.930 . S
C1275 C1273 1.404 . S
C1275 C1276 1.366 . S
C1276 H1255 0.930 . S
C1276 C1272 1.416 . S
C1276 C1275 1.366 . S
H1277 C1270 0.929 . S
H1278 C1301 0.931 . S
H1279 C1302 0.931 . S
O1280 Eu1236 2.462 . S
O1280 C1300 1.252 . S
O1281 Eu1236 2.373 . S
O1281 C1292 1.249 . S
O1282 Eu1247 2.335 . S
O1282 C1292 1.264 . S
O1283 Eu1236 2.432 . S
O1283 C1300 1.268 . S
O1284 Eu1236 2.291 . S
O1284 C1299 1.255 . S
O1285 Eu1247 2.372 . S
O1285 C1299 1.257 . S
O1286 Eu1247 2.462 . S
O1286 C1311 1.252 . S
O1287 Eu1247 2.373 . S
O1287 C1303 1.249 . S
O1288 Eu1236 2.335 . S
O1288 C1303 1.264 . S
O1289 Eu1247 2.432 . S
O1289 C1311 1.268 . S
O1290 Eu1247 2.291 . S
O1290 C1310 1.255 . S
O1291 Eu1236 2.372 . S
O1291 C1310 1.257 . S
C1292 O1281 1.249 . S
C1292 O1282 1.264 . S
C1293 C1296 1.382 . S
C1293 C1298 1.390 . S
C1293 C1300 1.506 . S
C1294 C1295 1.398 . S
C1294 C1298 1.392 . S
C1295 C1294 1.398 . S
C1295 C1297 1.372 . S
C1295 H1312 0.931 . S
C1296 C1293 1.382 . S
C1296 C1297 1.390 . S
C1296 H1313 0.931 . S
C1297 C1295 1.372 . S
C1297 C1296 1.390 . S
C1297 H1314 0.929 . S
C1298 C1293 1.390 . S
C1298 C1294 1.392 . S
C1298 H1315 0.930 . S
C1299 O1284 1.255 . S
C1299 O1285 1.257 . S
C1300 Eu1236 2.787 . S
C1300 O1280 1.252 . S
C1300 O1283 1.268 . S
C1300 C1293 1.506 . S
C1301 C1268 1.439 . S
C1301 H1278 0.931 . S
C1301 C1302 1.374 . S
C1302 C1273 1.387 . S
C1302 H1279 0.931 . S
C1302 C1301 1.374 . S
C1303 O1287 1.249 . S
C1303 O1288 1.264 . S
C1304 C1307 1.382 . S
C1304 C1308 1.390 . S
C1304 C1311 1.506 . S
C1305 C1306 1.398 . S
C1305 C1308 1.392 . S
C1306 C1305 1.398 . S
C1306 C1309 1.372 . S
C1306 H1316 0.931 . S
C1307 C1304 1.382 . S
C1307 C1309 1.390 . S
C1307 H1317 0.931 . S
C1308 C1304 1.390 . S
C1308 C1305 1.392 . S
C1308 H1318 0.930 . S
C1309 C1306 1.372 . S
C1309 C1307 1.390 . S
C1309 H1319 0.929 . S
C1310 O1290 1.255 . S
C1310 O1291 1.257 . S
C1311 Eu1247 2.787 . S
C1311 O1286 1.252 . S
C1311 O1289 1.268 . S
C1311 C1304 1.506 . S
H1312 C1295 0.931 . S
H1313 C1296 0.931 . S
H1314 C1297 0.929 . S
H1315 C1298 0.930 . S
H1316 C1306 0.931 . S
H1317 C1307 0.931 . S
H1318 C1308 0.930 . S
H1319 C1309 0.929 . S
Eu1320 N1349 2.600 . S
Eu1320 N1355 2.562 . S
Eu1320 O1364 2.462 . S
Eu1320 O1365 2.373 . S
Eu1320 O1367 2.432 . S
Eu1320 O1368 2.291 . S
Eu1320 O1372 2.335 . S
Eu1320 O1375 2.372 . S
Eu1320 C1384 2.787 . S
C1321 N1322 1.365 . S
C1321 C1324 1.405 . S
C1321 C1328 1.448 . S
N1322 C1321 1.365 . S
N1322 C1325 1.319 . S
N1322 Eu1331 2.600 . S
C1323 C1325 1.397 . S
C1323 C1326 1.367 . S
C1323 H1343 0.931 . S
C1324 C1321 1.405 . S
C1324 C1326 1.403 . S
C1324 C1330 1.439 . S
C1325 N1322 1.319 . S
C1325 C1323 1.397 . S
C1325 H1336 0.930 . S
C1326 C1323 1.367 . S
C1326 C1324 1.403 . S
C1326 H1347 0.929 . S
C1327 C1328 1.430 . S
C1327 C1329 1.387 . S
C1327 C1333 1.404 . S
C1328 C1321 1.448 . S
C1328 C1327 1.430 . S
C1328 N1332 1.351 . S
C1329 C1327 1.387 . S
C1329 C1330 1.374 . S
C1329 H1344 0.931 . S
C1330 C1324 1.439 . S
C1330 C1329 1.374 . S
C1330 H1345 0.931 . S
Eu1331 N1322 2.600 . S
Eu1331 N1332 2.562 . S
Eu1331 O1366 2.335 . S
Eu1331 O1369 2.372 . S
Eu1331 O1370 2.462 . S
Eu1331 O1371 2.373 . S
Eu1331 O1373 2.432 . S
Eu1331 O1374 2.291 . S
Eu1331 C1395 2.787 . S
N1332 C1328 1.351 . S
N1332 Eu1331 2.562 . S
N1332 C1334 1.325 . S
C1333 C1327 1.404 . S
C1333 C1335 1.366 . S
C1333 H1341 0.930 . S
C1334 N1332 1.325 . S
C1334 C1335 1.416 . S
C1334 H1340 0.929 . S
C1335 C1333 1.366 . S
C1335 C1334 1.416 . S
C1335 H1337 0.930 . S
H1336 C1325 0.930 . S
H1337 C1335 0.930 . S
H1338 C1353 0.930 . S
H1339 C1360 0.930 . S
H1340 C1334 0.929 . S
H1341 C1333 0.930 . S
H1342 C1356 0.929 . S
H1343 C1323 0.931 . S
H1344 C1329 0.931 . S
H1345 C1330 0.931 . S
H1346 C1351 0.931 . S
H1347 C1326 0.929 . S
H1348 C1359 0.930 . S
N1349 Eu1320 2.600 . S
N1349 C1350 1.365 . S
N1349 C1353 1.319 . S
C1350 N1349 1.365 . S
C1350 C1352 1.405 . S
C1350 C1358 1.448 . S
C1351 H1346 0.931 . S
C1351 C1353 1.397 . S
C1351 C1354 1.367 . S
C1352 C1350 1.405 . S
C1352 C1354 1.403 . S
C1352 C1385 1.439 . S
C1353 H1338 0.930 . S
C1353 N1349 1.319 . S
C1353 C1351 1.397 . S
C1354 C1351 1.367 . S
C1354 C1352 1.403 . S
C1354 H1361 0.929 . S
N1355 Eu1320 2.562 . S
N1355 C1356 1.325 . S
N1355 C1358 1.351 . S
C1356 H1342 0.929 . S
C1356 N1355 1.325 . S
C1356 C1360 1.416 . S
C1357 C1358 1.430 . S
C1357 C1359 1.404 . S
C1357 C1386 1.387 . S
C1358 C1350 1.448 . S
C1358 N1355 1.351 . S
C1358 C1357 1.430 . S
C1359 H1348 0.930 . S
C1359 C1357 1.404 . S
C1359 C1360 1.366 . S
C1360 H1339 0.930 . S
C1360 C1356 1.416 . S
C1360 C1359 1.366 . S
H1361 C1354 0.929 . S
H1362 C1385 0.931 . S
H1363 C1386 0.931 . S
O1364 Eu1320 2.462 . S
O1364 C1384 1.252 . S
O1365 Eu1320 2.373 . S
O1365 C1376 1.249 . S
O1366 Eu1331 2.335 . S
O1366 C1376 1.264 . S
O1367 Eu1320 2.432 . S
O1367 C1384 1.268 . S
O1368 Eu1320 2.291 . S
O1368 C1383 1.255 . S
O1369 Eu1331 2.372 . S
O1369 C1383 1.257 . S
O1370 Eu1331 2.462 . S
O1370 C1395 1.252 . S
O1371 Eu1331 2.373 . S
O1371 C1387 1.249 . S
O1372 Eu1320 2.335 . S
O1372 C1387 1.264 . S
O1373 Eu1331 2.432 . S
O1373 C1395 1.268 . S
O1374 Eu1331 2.291 . S
O1374 C1394 1.255 . S
O1375 Eu1320 2.372 . S
O1375 C1394 1.257 . S
C1376 O1365 1.249 . S
C1376 O1366 1.264 . S
C1377 C1380 1.382 . S
C1377 C1382 1.390 . S
C1377 C1384 1.506 . S
C1378 C1379 1.398 . S
C1378 C1382 1.392 . S
C1379 C1378 1.398 . S
C1379 C1381 1.372 . S
C1379 H1396 0.931 . S
C1380 C1377 1.382 . S
C1380 C1381 1.390 . S
C1380 H1397 0.931 . S
C1381 C1379 1.372 . S
C1381 C1380 1.390 . S
C1381 H1398 0.929 . S
C1382 C1377 1.390 . S
C1382 C1378 1.392 . S
C1382 H1399 0.930 . S
C1383 O1368 1.255 . S
C1383 O1369 1.257 . S
C1384 Eu1320 2.787 . S
C1384 O1364 1.252 . S
C1384 O1367 1.268 . S
C1384 C1377 1.506 . S
C1385 C1352 1.439 . S
C1385 H1362 0.931 . S
C1385 C1386 1.374 . S
C1386 C1357 1.387 . S
C1386 H1363 0.931 . S
C1386 C1385 1.374 . S
C1387 O1371 1.249 . S
C1387 O1372 1.264 . S
C1388 C1391 1.382 . S
C1388 C1392 1.390 . S
C1388 C1395 1.506 . S
C1389 C1390 1.398 . S
C1389 C1392 1.392 . S
C1390 C1389 1.398 . S
C1390 C1393 1.372 . S
C1390 H1400 0.931 . S
C1391 C1388 1.382 . S
C1391 C1393 1.390 . S
C1391 H1401 0.931 . S
C1392 C1388 1.390 . S
C1392 C1389 1.392 . S
C1392 H1402 0.930 . S
C1393 C1390 1.372 . S
C1393 C1391 1.390 . S
C1393 H1403 0.929 . S
C1394 O1374 1.255 . S
C1394 O1375 1.257 . S
C1395 Eu1331 2.787 . S
C1395 O1370 1.252 . S
C1395 O1373 1.268 . S
C1395 C1388 1.506 . S
H1396 C1379 0.931 . S
H1397 C1380 0.931 . S
H1398 C1381 0.929 . S
H1399 C1382 0.930 . S
H1400 C1390 0.931 . S
H1401 C1391 0.931 . S
H1402 C1392 0.930 . S
H1403 C1393 0.929 . S
Eu1404 N1433 2.600 . S
Eu1404 N1439 2.562 . S
Eu1404 O1448 2.462 . S
Eu1404 O1449 2.373 . S
Eu1404 O1451 2.432 . S
Eu1404 O1452 2.291 . S
Eu1404 O1456 2.335 . S
Eu1404 O1459 2.372 . S
Eu1404 C1468 2.787 . S
C1405 N1406 1.365 . S
C1405 C1408 1.405 . S
C1405 C1412 1.448 . S
N1406 C1405 1.365 . S
N1406 C1409 1.319 . S
N1406 Eu1415 2.600 . S
C1407 C1409 1.397 . S
C1407 C1410 1.367 . S
C1407 H1427 0.931 . S
C1408 C1405 1.405 . S
C1408 C1410 1.403 . S
C1408 C1414 1.439 . S
C1409 N1406 1.319 . S
C1409 C1407 1.397 . S
C1409 H1420 0.930 . S
C1410 C1407 1.367 . S
C1410 C1408 1.403 . S
C1410 H1431 0.929 . S
C1411 C1412 1.430 . S
C1411 C1413 1.387 . S
C1411 C1417 1.404 . S
C1412 C1405 1.448 . S
C1412 C1411 1.430 . S
C1412 N1416 1.351 . S
C1413 C1411 1.387 . S
C1413 C1414 1.374 . S
C1413 H1428 0.931 . S
C1414 C1408 1.439 . S
C1414 C1413 1.374 . S
C1414 H1429 0.931 . S
Eu1415 N1406 2.600 . S
Eu1415 N1416 2.562 . S
Eu1415 O1450 2.335 . S
Eu1415 O1453 2.372 . S
Eu1415 O1454 2.462 . S
Eu1415 O1455 2.373 . S
Eu1415 O1457 2.432 . S
Eu1415 O1458 2.291 . S
Eu1415 C1479 2.787 . S
N1416 C1412 1.351 . S
N1416 Eu1415 2.562 . S
N1416 C1418 1.325 . S
C1417 C1411 1.404 . S
C1417 C1419 1.366 . S
C1417 H1425 0.930 . S
C1418 N1416 1.325 . S
C1418 C1419 1.416 . S
C1418 H1424 0.929 . S
C1419 C1417 1.366 . S
C1419 C1418 1.416 . S
C1419 H1421 0.930 . S
H1420 C1409 0.930 . S
H1421 C1419 0.930 . S
H1422 C1437 0.930 . S
H1423 C1444 0.930 . S
H1424 C1418 0.929 . S
H1425 C1417 0.930 . S
H1426 C1440 0.929 . S
H1427 C1407 0.931 . S
H1428 C1413 0.931 . S
H1429 C1414 0.931 . S
H1430 C1435 0.931 . S
H1431 C1410 0.929 . S
H1432 C1443 0.930 . S
N1433 Eu1404 2.600 . S
N1433 C1434 1.365 . S
N1433 C1437 1.319 . S
C1434 N1433 1.365 . S
C1434 C1436 1.405 . S
C1434 C1442 1.448 . S
C1435 H1430 0.931 . S
C1435 C1437 1.397 . S
C1435 C1438 1.367 . S
C1436 C1434 1.405 . S
C1436 C1438 1.403 . S
C1436 C1469 1.439 . S
C1437 H1422 0.930 . S
C1437 N1433 1.319 . S
C1437 C1435 1.397 . S
C1438 C1435 1.367 . S
C1438 C1436 1.403 . S
C1438 H1445 0.929 . S
N1439 Eu1404 2.562 . S
N1439 C1440 1.325 . S
N1439 C1442 1.351 . S
C1440 H1426 0.929 . S
C1440 N1439 1.325 . S
C1440 C1444 1.416 . S
C1441 C1442 1.430 . S
C1441 C1443 1.404 . S
C1441 C1470 1.387 . S
C1442 C1434 1.448 . S
C1442 N1439 1.351 . S
C1442 C1441 1.430 . S
C1443 H1432 0.930 . S
C1443 C1441 1.404 . S
C1443 C1444 1.366 . S
C1444 H1423 0.930 . S
C1444 C1440 1.416 . S
C1444 C1443 1.366 . S
H1445 C1438 0.929 . S
H1446 C1469 0.931 . S
H1447 C1470 0.931 . S
O1448 Eu1404 2.462 . S
O1448 C1468 1.252 . S
O1449 Eu1404 2.373 . S
O1449 C1460 1.249 . S
O1450 Eu1415 2.335 . S
O1450 C1460 1.264 . S
O1451 Eu1404 2.432 . S
O1451 C1468 1.268 . S
O1452 Eu1404 2.291 . S
O1452 C1467 1.255 . S
O1453 Eu1415 2.372 . S
O1453 C1467 1.257 . S
O1454 Eu1415 2.462 . S
O1454 C1479 1.252 . S
O1455 Eu1415 2.373 . S
O1455 C1471 1.249 . S
O1456 Eu1404 2.335 . S
O1456 C1471 1.264 . S
O1457 Eu1415 2.432 . S
O1457 C1479 1.268 . S
O1458 Eu1415 2.291 . S
O1458 C1478 1.255 . S
O1459 Eu1404 2.372 . S
O1459 C1478 1.257 . S
C1460 O1449 1.249 . S
C1460 O1450 1.264 . S
C1461 C1464 1.382 . S
C1461 C1466 1.390 . S
C1461 C1468 1.506 . S
C1462 C1463 1.398 . S
C1462 C1466 1.392 . S
C1463 C1462 1.398 . S
C1463 C1465 1.372 . S
C1463 H1480 0.931 . S
C1464 C1461 1.382 . S
C1464 C1465 1.390 . S
C1464 H1481 0.931 . S
C1465 C1463 1.372 . S
C1465 C1464 1.390 . S
C1465 H1482 0.929 . S
C1466 C1461 1.390 . S
C1466 C1462 1.392 . S
C1466 H1483 0.930 . S
C1467 O1452 1.255 . S
C1467 O1453 1.257 . S
C1468 Eu1404 2.787 . S
C1468 O1448 1.252 . S
C1468 O1451 1.268 . S
C1468 C1461 1.506 . S
C1469 C1436 1.439 . S
C1469 H1446 0.931 . S
C1469 C1470 1.374 . S
C1470 C1441 1.387 . S
C1470 H1447 0.931 . S
C1470 C1469 1.374 . S
C1471 O1455 1.249 . S
C1471 O1456 1.264 . S
C1472 C1475 1.382 . S
C1472 C1476 1.390 . S
C1472 C1479 1.506 . S
C1473 C1474 1.398 . S
C1473 C1476 1.392 . S
C1474 C1473 1.398 . S
C1474 C1477 1.372 . S
C1474 H1484 0.931 . S
C1475 C1472 1.382 . S
C1475 C1477 1.390 . S
C1475 H1485 0.931 . S
C1476 C1472 1.390 . S
C1476 C1473 1.392 . S
C1476 H1486 0.930 . S
C1477 C1474 1.372 . S
C1477 C1475 1.390 . S
C1477 H1487 0.929 . S
C1478 O1458 1.255 . S
C1478 O1459 1.257 . S
C1479 Eu1415 2.787 . S
C1479 O1454 1.252 . S
C1479 O1457 1.268 . S
C1479 C1472 1.506 . S
H1480 C1463 0.931 . S
H1481 C1464 0.931 . S
H1482 C1465 0.929 . S
H1483 C1466 0.930 . S
H1484 C1474 0.931 . S
H1485 C1475 0.931 . S
H1486 C1476 0.930 . S
H1487 C1477 0.929 . S
Eu1488 N1517 2.600 . S
Eu1488 N1523 2.562 . S
Eu1488 O1532 2.462 . S
Eu1488 O1533 2.373 . S
Eu1488 O1535 2.432 . S
Eu1488 O1536 2.291 . S
Eu1488 O1540 2.335 . S
Eu1488 O1543 2.372 . S
Eu1488 C1552 2.787 . S
C1489 N1490 1.365 . S
C1489 C1492 1.405 . S
C1489 C1496 1.448 . S
N1490 C1489 1.365 . S
N1490 C1493 1.319 . S
N1490 Eu1499 2.600 . S
C1491 C1493 1.397 . S
C1491 C1494 1.367 . S
C1491 H1511 0.931 . S
C1492 C1489 1.405 . S
C1492 C1494 1.403 . S
C1492 C1498 1.439 . S
C1493 N1490 1.319 . S
C1493 C1491 1.397 . S
C1493 H1504 0.930 . S
C1494 C1491 1.367 . S
C1494 C1492 1.403 . S
C1494 H1515 0.929 . S
C1495 C1496 1.430 . S
C1495 C1497 1.387 . S
C1495 C1501 1.404 . S
C1496 C1489 1.448 . S
C1496 C1495 1.430 . S
C1496 N1500 1.351 . S
C1497 C1495 1.387 . S
C1497 C1498 1.374 . S
C1497 H1512 0.931 . S
C1498 C1492 1.439 . S
C1498 C1497 1.374 . S
C1498 H1513 0.931 . S
Eu1499 N1490 2.600 . S
Eu1499 N1500 2.562 . S
Eu1499 O1534 2.335 . S
Eu1499 O1537 2.372 . S
Eu1499 O1538 2.462 . S
Eu1499 O1539 2.373 . S
Eu1499 O1541 2.432 . S
Eu1499 O1542 2.291 . S
Eu1499 C1563 2.787 . S
N1500 C1496 1.351 . S
N1500 Eu1499 2.562 . S
N1500 C1502 1.325 . S
C1501 C1495 1.404 . S
C1501 C1503 1.366 . S
C1501 H1509 0.930 . S
C1502 N1500 1.325 . S
C1502 C1503 1.416 . S
C1502 H1508 0.929 . S
C1503 C1501 1.366 . S
C1503 C1502 1.416 . S
C1503 H1505 0.930 . S
H1504 C1493 0.930 . S
H1505 C1503 0.930 . S
H1506 C1521 0.930 . S
H1507 C1528 0.930 . S
H1508 C1502 0.929 . S
H1509 C1501 0.930 . S
H1510 C1524 0.929 . S
H1511 C1491 0.931 . S
H1512 C1497 0.931 . S
H1513 C1498 0.931 . S
H1514 C1519 0.931 . S
H1515 C1494 0.929 . S
H1516 C1527 0.930 . S
N1517 Eu1488 2.600 . S
N1517 C1518 1.365 . S
N1517 C1521 1.319 . S
C1518 N1517 1.365 . S
C1518 C1520 1.405 . S
C1518 C1526 1.448 . S
C1519 H1514 0.931 . S
C1519 C1521 1.397 . S
C1519 C1522 1.367 . S
C1520 C1518 1.405 . S
C1520 C1522 1.403 . S
C1520 C1553 1.439 . S
C1521 H1506 0.930 . S
C1521 N1517 1.319 . S
C1521 C1519 1.397 . S
C1522 C1519 1.367 . S
C1522 C1520 1.403 . S
C1522 H1529 0.929 . S
N1523 Eu1488 2.562 . S
N1523 C1524 1.325 . S
N1523 C1526 1.351 . S
C1524 H1510 0.929 . S
C1524 N1523 1.325 . S
C1524 C1528 1.416 . S
C1525 C1526 1.430 . S
C1525 C1527 1.404 . S
C1525 C1554 1.387 . S
C1526 C1518 1.448 . S
C1526 N1523 1.351 . S
C1526 C1525 1.430 . S
C1527 H1516 0.930 . S
C1527 C1525 1.404 . S
C1527 C1528 1.366 . S
C1528 H1507 0.930 . S
C1528 C1524 1.416 . S
C1528 C1527 1.366 . S
H1529 C1522 0.929 . S
H1530 C1553 0.931 . S
H1531 C1554 0.931 . S
O1532 Eu1488 2.462 . S
O1532 C1552 1.252 . S
O1533 Eu1488 2.373 . S
O1533 C1544 1.249 . S
O1534 Eu1499 2.335 . S
O1534 C1544 1.264 . S
O1535 Eu1488 2.432 . S
O1535 C1552 1.268 . S
O1536 Eu1488 2.291 . S
O1536 C1551 1.255 . S
O1537 Eu1499 2.372 . S
O1537 C1551 1.257 . S
O1538 Eu1499 2.462 . S
O1538 C1563 1.252 . S
O1539 Eu1499 2.373 . S
O1539 C1555 1.249 . S
O1540 Eu1488 2.335 . S
O1540 C1555 1.264 . S
O1541 Eu1499 2.432 . S
O1541 C1563 1.268 . S
O1542 Eu1499 2.291 . S
O1542 C1562 1.255 . S
O1543 Eu1488 2.372 . S
O1543 C1562 1.257 . S
C1544 O1533 1.249 . S
C1544 O1534 1.264 . S
C1545 C1548 1.382 . S
C1545 C1550 1.390 . S
C1545 C1552 1.506 . S
C1546 C1547 1.398 . S
C1546 C1550 1.392 . S
C1547 C1546 1.398 . S
C1547 C1549 1.372 . S
C1547 H1564 0.931 . S
C1548 C1545 1.382 . S
C1548 C1549 1.390 . S
C1548 H1565 0.931 . S
C1549 C1547 1.372 . S
C1549 C1548 1.390 . S
C1549 H1566 0.929 . S
C1550 C1545 1.390 . S
C1550 C1546 1.392 . S
C1550 H1567 0.930 . S
C1551 O1536 1.255 . S
C1551 O1537 1.257 . S
C1552 Eu1488 2.787 . S
C1552 O1532 1.252 . S
C1552 O1535 1.268 . S
C1552 C1545 1.506 . S
C1553 C1520 1.439 . S
C1553 H1530 0.931 . S
C1553 C1554 1.374 . S
C1554 C1525 1.387 . S
C1554 H1531 0.931 . S
C1554 C1553 1.374 . S
C1555 O1539 1.249 . S
C1555 O1540 1.264 . S
C1556 C1559 1.382 . S
C1556 C1560 1.390 . S
C1556 C1563 1.506 . S
C1557 C1558 1.398 . S
C1557 C1560 1.392 . S
C1558 C1557 1.398 . S
C1558 C1561 1.372 . S
C1558 H1568 0.931 . S
C1559 C1556 1.382 . S
C1559 C1561 1.390 . S
C1559 H1569 0.931 . S
C1560 C1556 1.390 . S
C1560 C1557 1.392 . S
C1560 H1570 0.930 . S
C1561 C1558 1.372 . S
C1561 C1559 1.390 . S
C1561 H1571 0.929 . S
C1562 O1542 1.255 . S
C1562 O1543 1.257 . S
C1563 Eu1499 2.787 . S
C1563 O1538 1.252 . S
C1563 O1541 1.268 . S
C1563 C1556 1.506 . S
H1564 C1547 0.931 . S
H1565 C1548 0.931 . S
H1566 C1549 0.929 . S
H1567 C1550 0.930 . S
H1568 C1558 0.931 . S
H1569 C1559 0.931 . S
H1570 C1560 0.930 . S
H1571 C1561 0.929 . S
Eu1572 N1601 2.600 . S
Eu1572 N1607 2.562 . S
Eu1572 O1616 2.462 . S
Eu1572 O1617 2.373 1_655 S
Eu1572 O1619 2.432 . S
Eu1572 O1620 2.291 . S
Eu1572 O1624 2.335 1_655 S
Eu1572 O1627 2.372 1_655 S
Eu1572 C1636 2.787 . S
C1573 N1574 1.365 . S
C1573 C1576 1.405 . S
C1573 C1580 1.448 1_556 S
N1574 C1573 1.365 . S
N1574 C1577 1.319 . S
N1574 Eu1583 2.600 1_556 S
C1575 C1577 1.397 . S
C1575 C1578 1.367 . S
C1575 H1595 0.931 . S
C1576 C1573 1.405 . S
C1576 C1578 1.403 . S
C1576 C1582 1.439 . S
C1577 N1574 1.319 . S
C1577 C1575 1.397 . S
C1577 H1588 0.930 . S
C1578 C1575 1.367 . S
C1578 C1576 1.403 . S
C1578 H1599 0.929 . S
C1579 C1580 1.430 . S
C1579 C1581 1.387 . S
C1579 C1585 1.404 . S
C1580 C1573 1.448 1_554 S
C1580 C1579 1.430 . S
C1580 N1584 1.351 . S
C1581 C1579 1.387 . S
C1581 C1582 1.374 1_554 S
C1581 H1596 0.931 . S
C1582 C1576 1.439 . S
C1582 C1581 1.374 1_556 S
C1582 H1597 0.931 . S
Eu1583 N1574 2.600 1_554 S
Eu1583 N1584 2.562 . S
Eu1583 O1618 2.335 . S
Eu1583 O1621 2.372 1_554 S
Eu1583 O1622 2.462 . S
Eu1583 O1623 2.373 . S
Eu1583 O1625 2.432 1_554 S
Eu1583 O1626 2.291 . S
Eu1583 C1647 2.787 . S
N1584 C1580 1.351 . S
N1584 Eu1583 2.562 . S
N1584 C1586 1.325 . S
C1585 C1579 1.404 . S
C1585 C1587 1.366 . S
C1585 H1593 0.930 . S
C1586 N1584 1.325 . S
C1586 C1587 1.416 . S
C1586 H1592 0.929 . S
C1587 C1585 1.366 . S
C1587 C1586 1.416 . S
C1587 H1589 0.930 . S
H1588 C1577 0.930 . S
H1589 C1587 0.930 . S
H1590 C1605 0.930 1_455 S
H1591 C1612 0.930 . S
H1592 C1586 0.929 . S
H1593 C1585 0.930 . S
H1594 C1608 0.929 . S
H1595 C1575 0.931 . S
H1596 C1581 0.931 . S
H1597 C1582 0.931 . S
H1598 C1603 0.931 1_455 S
H1599 C1578 0.929 . S
H1600 C1611 0.930 . S
N1601 Eu1572 2.600 . S
N1601 C1602 1.365 . S
N1601 C1605 1.319 . S
C1602 N1601 1.365 . S
C1602 C1604 1.405 . S
C1602 C1610 1.448 . S
C1603 H1598 0.931 1_655 S
C1603 C1605 1.397 . S
C1603 C1606 1.367 . S
C1604 C1602 1.405 . S
C1604 C1606 1.403 . S
C1604 C1637 1.439 . S
C1605 H1590 0.930 1_655 S
C1605 N1601 1.319 . S
C1605 C1603 1.397 . S
C1606 C1603 1.367 . S
C1606 C1604 1.403 . S
C1606 H1613 0.929 . S
N1607 Eu1572 2.562 . S
N1607 C1608 1.325 . S
N1607 C1610 1.351 . S
C1608 H1594 0.929 . S
C1608 N1607 1.325 . S
C1608 C1612 1.416 . S
C1609 C1610 1.430 . S
C1609 C1611 1.404 . S
C1609 C1638 1.387 . S
C1610 C1602 1.448 . S
C1610 N1607 1.351 . S
C1610 C1609 1.430 . S
C1611 H1600 0.930 . S
C1611 C1609 1.404 . S
C1611 C1612 1.366 . S
C1612 H1591 0.930 . S
C1612 C1608 1.416 . S
C1612 C1611 1.366 . S
H1613 C1606 0.929 . S
H1614 C1637 0.931 . S
H1615 C1638 0.931 . S
O1616 Eu1572 2.462 . S
O1616 C1636 1.252 . S
O1617 Eu1572 2.373 1_455 S
O1617 C1628 1.249 . S
O1618 Eu1583 2.335 . S
O1618 C1628 1.264 . S
O1619 Eu1572 2.432 . S
O1619 C1636 1.268 . S
O1620 Eu1572 2.291 . S
O1620 C1635 1.273 1_655 S
O1621 Eu1583 2.372 1_556 S
O1621 C1635 1.250 1_556 S
O1622 Eu1583 2.462 . S
O1622 C1647 1.252 . S
O1623 Eu1583 2.373 . S
O1623 C1639 1.249 . S
O1624 Eu1572 2.335 1_455 S
O1624 C1639 1.264 . S
O1625 Eu1583 2.432 1_556 S
O1625 C1647 1.268 1_556 S
O1626 Eu1583 2.291 . S
O1626 C1646 1.255 . S
O1627 Eu1572 2.372 1_455 S
O1627 C1646 1.257 . S
C1628 O1617 1.249 . S
C1628 O1618 1.264 . S
C1629 C1632 1.382 . S
C1629 C1634 1.390 . S
C1629 C1636 1.506 . S
C1630 C1631 1.398 . S
C1630 C1634 1.392 . S
C1631 C1630 1.398 . S
C1631 C1633 1.372 . S
C1631 H1648 0.931 . S
C1632 C1629 1.382 . S
C1632 C1633 1.390 . S
C1632 H1649 0.931 . S
C1633 C1631 1.372 . S
C1633 C1632 1.390 . S
C1633 H1650 0.929 . S
C1634 C1629 1.390 . S
C1634 C1630 1.392 . S
C1634 H1651 0.930 . S
C1635 O1620 1.273 1_455 S
C1635 O1621 1.250 1_554 S
C1636 Eu1572 2.787 . S
C1636 O1616 1.252 . S
C1636 O1619 1.268 . S
C1636 C1629 1.506 . S
C1637 C1604 1.439 . S
C1637 H1614 0.931 . S
C1637 C1638 1.374 . S
C1638 C1609 1.387 . S
C1638 H1615 0.931 . S
C1638 C1637 1.374 . S
C1639 O1623 1.249 . S
C1639 O1624 1.264 . S
C1640 C1643 1.382 1_554 S
C1640 C1644 1.390 . S
C1640 C1647 1.506 . S
C1641 C1642 1.391 1_554 S
C1641 C1644 1.392 . S
C1642 C1641 1.391 1_556 S
C1642 C1645 1.377 . S
C1642 H1652 0.933 . S
C1643 C1640 1.382 1_556 S
C1643 C1645 1.390 . S
C1643 H1653 0.931 . S
C1644 C1640 1.390 . S
C1644 C1641 1.392 . S
C1644 H1654 0.930 . S
C1645 C1642 1.377 . S
C1645 C1643 1.390 . S
C1645 H1655 0.929 . S
C1646 O1626 1.255 . S
C1646 O1627 1.257 . S
C1647 Eu1583 2.787 . S
C1647 O1622 1.252 . S
C1647 O1625 1.268 1_554 S
C1647 C1640 1.506 . S
H1648 C1631 0.931 . S
H1649 C1632 0.931 . S
H1650 C1633 0.929 . S
H1651 C1634 0.930 . S
H1652 C1642 0.933 . S
H1653 C1643 0.931 . S
H1654 C1644 0.930 . S
H1655 C1645 0.929 . S
C1656 C1657 1.369 . S
C1656 C1658 1.419 . S
C1656 H1660 0.930 1_455 S
C1657 C1656 1.369 . S
C1657 C1666 1.429 1_554 S
C1658 C1656 1.419 . S
C1658 C1659 1.363 . S
C1658 H1661 0.929 . S
C1659 C1658 1.363 . S
C1659 C1665 1.428 . S
H1660 C1656 0.930 1_655 S
H1661 C1658 0.929 . S
S1662 N1663 1.613 . S
S1662 N1664 1.610 . S
N1663 S1662 1.613 . S
N1663 C1666 1.350 . S
N1664 S1662 1.610 . S
N1664 C1665 1.351 1_556 S
C1665 C1659 1.428 . S
C1665 N1664 1.351 1_554 S
C1665 C1666 1.434 1_554 S
C1666 C1657 1.429 1_556 S
C1666 N1663 1.350 . S
C1666 C1665 1.434 1_556 S
C1667 C1668 1.369 . S
C1667 C1669 1.419 . S
C1667 H1671 0.930 . S
C1668 C1667 1.369 . S
C1668 C1677 1.429 . S
C1669 C1667 1.419 . S
C1669 C1670 1.363 . S
C1669 H1672 0.929 . S
C1670 C1669 1.363 . S
C1670 C1676 1.428 . S
H1671 C1667 0.930 . S
H1672 C1669 0.929 . S
S1673 N1674 1.613 . S
S1673 N1675 1.610 . S
N1674 S1673 1.613 . S
N1674 C1677 1.350 . S
N1675 S1673 1.610 . S
N1675 C1676 1.351 . S
C1676 C1670 1.428 . S
C1676 N1675 1.351 . S
C1676 C1677 1.434 . S
C1677 C1668 1.429 . S
C1677 N1674 1.350 . S
C1677 C1676 1.434 . S
C1678 C1679 1.369 . S
C1678 C1680 1.419 . S
C1678 H1682 0.930 . S
C1679 C1678 1.369 . S
C1679 C1688 1.429 . S
C1680 C1678 1.419 . S
C1680 C1681 1.363 . S
C1680 H1683 0.929 . S
C1681 C1680 1.363 . S
C1681 C1687 1.428 . S
H1682 C1678 0.930 . S
H1683 C1680 0.929 . S
S1684 N1685 1.613 . S
S1684 N1686 1.610 . S
N1685 S1684 1.613 . S
N1685 C1688 1.350 . S
N1686 S1684 1.610 . S
N1686 C1687 1.351 . S
C1687 C1681 1.428 . S
C1687 N1686 1.351 . S
C1687 C1688 1.434 . S
C1688 C1679 1.429 . S
C1688 N1685 1.350 . S
C1688 C1687 1.434 . S
C1689 C1690 1.369 . S
C1689 C1691 1.419 . S
C1689 H1693 0.930 . S
C1690 C1689 1.369 . S
C1690 C1699 1.429 . S
C1691 C1689 1.419 . S
C1691 C1692 1.363 . S
C1691 H1694 0.929 . S
C1692 C1691 1.363 . S
C1692 C1698 1.428 . S
H1693 C1689 0.930 . S
H1694 C1691 0.929 . S
S1695 N1696 1.613 . S
S1695 N1697 1.610 . S
N1696 S1695 1.613 . S
N1696 C1699 1.350 . S
N1697 S1695 1.610 . S
N1697 C1698 1.351 . S
C1698 C1692 1.428 . S
C1698 N1697 1.351 . S
C1698 C1699 1.434 . S
C1699 C1690 1.429 . S
C1699 N1696 1.350 . S
C1699 C1698 1.434 . S
C1700 C1701 1.369 . S
C1700 C1702 1.419 . S
C1700 H1704 0.930 . S
C1701 C1700 1.369 . S
C1701 C1710 1.429 . S
C1702 C1700 1.419 . S
C1702 C1703 1.363 . S
C1702 H1705 0.929 . S
C1703 C1702 1.363 . S
C1703 C1709 1.428 . S
H1704 C1700 0.930 . S
H1705 C1702 0.929 . S
S1706 N1707 1.629 . S
S1706 N1708 1.631 . S
N1707 S1706 1.629 . S
N1707 C1710 1.350 . S
N1708 S1706 1.631 . S
N1708 C1709 1.351 . S
C1709 C1703 1.428 . S
C1709 N1708 1.351 . S
C1709 C1710 1.434 . S
C1710 C1701 1.429 . S
C1710 N1707 1.350 . S
C1710 C1709 1.434 . S
C1711 C1712 1.369 . S
C1711 C1713 1.419 . S
C1711 H1715 0.930 . S
C1712 C1711 1.369 . S
C1712 C1721 1.429 . S
C1713 C1711 1.419 . S
C1713 C1714 1.363 . S
C1713 H1716 0.929 . S
C1714 C1713 1.363 . S
C1714 C1720 1.428 . S
H1715 C1711 0.930 . S
H1716 C1713 0.929 . S
S1717 N1718 1.613 . S
S1717 N1719 1.610 . S
N1718 S1717 1.613 . S
N1718 C1721 1.350 . S
N1719 S1717 1.610 . S
N1719 C1720 1.351 . S
C1720 C1714 1.428 . S
C1720 N1719 1.351 . S
C1720 C1721 1.434 . S
C1721 C1712 1.429 . S
C1721 N1718 1.350 . S
C1721 C1720 1.434 . S
C1722 C1723 1.369 . S
C1722 C1724 1.419 . S
C1722 H1726 0.930 . S
C1723 C1722 1.369 . S
C1723 C1732 1.429 . S
C1724 C1722 1.419 . S
C1724 C1725 1.363 . S
C1724 H1727 0.929 . S
C1725 C1724 1.363 . S
C1725 C1731 1.428 . S
H1726 C1722 0.930 . S
H1727 C1724 0.929 . S
S1728 N1729 1.613 . S
S1728 N1730 1.610 . S
N1729 S1728 1.613 . S
N1729 C1732 1.350 . S
N1730 S1728 1.610 . S
N1730 C1731 1.351 . S
C1731 C1725 1.428 . S
C1731 N1730 1.351 . S
C1731 C1732 1.434 . S
C1732 C1723 1.429 . S
C1732 N1729 1.350 . S
C1732 C1731 1.434 . S
C1733 C1734 1.369 . S
C1733 C1735 1.419 . S
C1733 H1737 0.930 . S
C1734 C1733 1.369 . S
C1734 C1743 1.429 . S
C1735 C1733 1.419 . S
C1735 C1736 1.363 . S
C1735 H1738 0.929 . S
C1736 C1735 1.363 . S
C1736 C1742 1.428 . S
H1737 C1733 0.930 . S
H1738 C1735 0.929 . S
S1739 N1740 1.613 . S
S1739 N1741 1.610 . S
N1740 S1739 1.613 . S
N1740 C1743 1.350 . S
N1741 S1739 1.610 . S
N1741 C1742 1.351 . S
C1742 C1736 1.428 . S
C1742 N1741 1.351 . S
C1742 C1743 1.434 . S
C1743 C1734 1.429 . S
C1743 N1740 1.350 . S
C1743 C1742 1.434 . S
C1744 C1745 1.369 . S
C1744 C1746 1.419 1_655 S
C1744 H1748 0.930 . S
C1745 C1744 1.369 . S
C1745 C1754 1.429 . S
C1746 C1744 1.419 1_455 S
C1746 C1747 1.363 . S
C1746 H1749 0.929 . S
C1747 C1746 1.363 . S
C1747 C1753 1.428 . S
H1748 C1744 0.930 . S
H1749 C1746 0.929 . S
S1750 N1751 1.613 . S
S1750 N1752 1.610 1_655 S
N1751 S1750 1.613 . S
N1751 C1754 1.350 1_565 S
N1752 S1750 1.610 1_455 S
N1752 C1753 1.351 1_565 S
C1753 C1747 1.428 . S
C1753 N1752 1.351 1_545 S
C1753 C1754 1.434 1_455 S
C1754 C1745 1.429 . S
C1754 N1751 1.350 1_545 S
C1754 C1753 1.434 1_655 S
C1755 C1756 1.369 . S
C1755 C1757 1.419 . S
C1755 H1759 0.930 . S
C1756 C1755 1.369 . S
C1756 C1765 1.429 . S
C1757 C1755 1.419 . S
C1757 C1758 1.363 . S
C1757 H1760 0.929 . S
C1758 C1757 1.363 . S
C1758 C1764 1.428 . S
H1759 C1755 0.930 . S
H1760 C1757 0.929 . S
S1761 N1762 1.613 . S
S1761 N1763 1.610 . S
N1762 S1761 1.613 . S
N1762 C1765 1.350 . S
N1763 S1761 1.610 . S
N1763 C1764 1.351 . S
C1764 C1758 1.428 . S
C1764 N1763 1.351 . S
C1764 C1765 1.434 . S
C1765 C1756 1.429 . S
C1765 N1762 1.350 . S
C1765 C1764 1.434 . S
C1766 C1767 1.369 . S
C1766 C1768 1.419 . S
C1766 H1770 0.930 . S
C1767 C1766 1.369 . S
C1767 C1776 1.429 . S
C1768 C1766 1.419 . S
C1768 C1769 1.363 . S
C1768 H1771 0.929 . S
C1769 C1768 1.363 . S
C1769 C1775 1.428 . S
H1770 C1766 0.930 . S
H1771 C1768 0.929 . S
S1772 N1773 1.613 . S
S1772 N1774 1.610 . S
N1773 S1772 1.613 . S
N1773 C1776 1.350 . S
N1774 S1772 1.610 . S
N1774 C1775 1.351 . S
C1775 C1769 1.428 . S
C1775 N1774 1.351 . S
C1775 C1776 1.434 . S
C1776 C1767 1.429 . S
C1776 N1773 1.350 . S
C1776 C1775 1.434 . S
C1777 C1778 1.369 . S
C1777 C1779 1.419 . S
C1777 H1781 0.930 . S
C1778 C1777 1.369 . S
C1778 C1787 1.429 . S
C1779 C1777 1.419 . S
C1779 C1780 1.363 . S
C1779 H1782 0.929 . S
C1780 C1779 1.363 . S
C1780 C1786 1.428 . S
H1781 C1777 0.930 . S
H1782 C1779 0.929 . S
S1783 N1784 1.613 . S
S1783 N1785 1.610 . S
N1784 S1783 1.613 . S
N1784 C1787 1.350 . S
N1785 S1783 1.610 . S
N1785 C1786 1.351 . S
C1786 C1780 1.428 . S
C1786 N1785 1.351 . S
C1786 C1787 1.434 . S
C1787 C1778 1.429 . S
C1787 N1784 1.350 . S
C1787 C1786 1.434 . S
C1788 C1789 1.369 1_455 S
C1788 C1790 1.419 . S
C1788 H1792 0.930 . S
C1789 C1788 1.369 1_655 S
C1789 C1798 1.429 . S
C1790 C1788 1.419 . S
C1790 C1791 1.363 . S
C1790 H1793 0.929 . S
C1791 C1790 1.363 . S
C1791 C1797 1.428 1_455 S
H1792 C1788 0.930 . S
H1793 C1790 0.929 . S
S1794 N1795 1.613 . S
S1794 N1796 1.610 . S
N1795 S1794 1.613 . S
N1795 C1798 1.350 1_565 S
N1796 S1794 1.610 . S
N1796 C1797 1.351 1_565 S
C1797 C1791 1.428 1_655 S
C1797 N1796 1.351 1_545 S
C1797 C1798 1.434 . S
C1798 C1789 1.429 . S
C1798 N1795 1.350 1_545 S
C1798 C1797 1.434 . S
C1799 C1800 1.369 . S
C1799 C1801 1.419 . S
C1799 H1803 0.930 . S
C1800 C1799 1.369 . S
C1800 C1809 1.429 . S
C1801 C1799 1.419 . S
C1801 C1802 1.363 . S
C1801 H1804 0.929 . S
C1802 C1801 1.363 . S
C1802 C1808 1.428 . S
H1803 C1799 0.930 . S
H1804 C1801 0.929 . S
S1805 N1806 1.613 . S
S1805 N1807 1.610 . S
N1806 S1805 1.613 . S
N1806 C1809 1.350 . S
N1807 S1805 1.610 . S
N1807 C1808 1.351 . S
C1808 C1802 1.428 . S
C1808 N1807 1.351 . S
C1808 C1809 1.434 . S
C1809 C1800 1.429 . S
C1809 N1806 1.350 . S
C1809 C1808 1.434 . S
C1810 C1811 1.369 . S
C1810 C1812 1.419 . S
C1810 H1814 0.930 . S
C1811 C1810 1.369 . S
C1811 C1820 1.429 . S
C1812 C1810 1.419 . S
C1812 C1813 1.363 . S
C1812 H1815 0.929 . S
C1813 C1812 1.363 . S
C1813 C1819 1.428 . S
H1814 C1810 0.930 . S
H1815 C1812 0.929 . S
S1816 N1817 1.613 . S
S1816 N1818 1.610 . S
N1817 S1816 1.613 . S
N1817 C1820 1.350 . S
N1818 S1816 1.610 . S
N1818 C1819 1.351 . S
C1819 C1813 1.428 . S
C1819 N1818 1.351 . S
C1819 C1820 1.434 . S
C1820 C1811 1.429 . S
C1820 N1817 1.350 . S
C1820 C1819 1.434 . S
C1821 C1822 1.369 . S
C1821 C1823 1.419 . S
C1821 H1825 0.930 . S
C1822 C1821 1.369 . S
C1822 C1831 1.429 . S
C1823 C1821 1.419 . S
C1823 C1824 1.363 . S
C1823 H1826 0.929 . S
C1824 C1823 1.363 . S
C1824 C1830 1.428 . S
H1825 C1821 0.930 . S
H1826 C1823 0.929 . S
S1827 N1828 1.613 . S
S1827 N1829 1.610 . S
N1828 S1827 1.613 . S
N1828 C1831 1.350 . S
N1829 S1827 1.610 . S
N1829 C1830 1.351 . S
C1830 C1824 1.428 . S
C1830 N1829 1.351 . S
C1830 C1831 1.434 . S
C1831 C1822 1.429 . S
C1831 N1828 1.350 . S
C1831 C1830 1.434 . S
C1832 C1833 1.369 . S
C1832 C1834 1.419 1_565 S
C1832 H1836 0.930 . S
C1833 C1832 1.369 . S
C1833 C1842 1.417 1_554 S
C1834 C1832 1.419 1_545 S
C1834 C1835 1.363 . S
C1834 H1837 0.929 . S
C1835 C1834 1.363 . S
C1835 C1841 1.428 . S
H1836 C1832 0.930 . S
H1837 C1834 0.929 . S
S1838 N1839 1.613 . S
S1838 N1840 1.610 1_566 S
N1839 S1838 1.613 . S
N1839 C1842 1.381 . S
N1840 S1838 1.610 1_544 S
N1840 C1841 1.351 . S
C1841 C1835 1.428 . S
C1841 N1840 1.351 . S
C1841 C1842 1.415 1_544 S
C1842 C1833 1.417 1_556 S
C1842 N1839 1.381 . S
C1842 C1841 1.415 1_566 S
C1843 C1844 1.369 . S
C1843 C1845 1.419 . S
C1843 H1847 0.930 . S
C1844 C1843 1.369 . S
C1844 C1853 1.429 . S
C1845 C1843 1.419 . S
C1845 C1846 1.363 . S
C1845 H1848 0.929 . S
C1846 C1845 1.363 . S
C1846 C1852 1.428 . S
H1847 C1843 0.930 . S
H1848 C1845 0.929 . S
S1849 N1850 1.613 . S
S1849 N1851 1.610 . S
N1850 S1849 1.613 . S
N1850 C1853 1.350 . S
N1851 S1849 1.610 . S
N1851 C1852 1.351 . S
C1852 C1846 1.428 . S
C1852 N1851 1.351 . S
C1852 C1853 1.434 . S
C1853 C1844 1.429 . S
C1853 N1850 1.350 . S
C1853 C1852 1.434 . S
C1854 C1855 1.369 . S
C1854 C1856 1.419 . S
C1854 H1858 0.930 . S
C1855 C1854 1.369 . S
C1855 C1864 1.429 . S
C1856 C1854 1.419 . S
C1856 C1857 1.363 . S
C1856 H1859 0.929 . S
C1857 C1856 1.363 . S
C1857 C1863 1.428 . S
H1858 C1854 0.930 . S
H1859 C1856 0.929 . S
S1860 N1861 1.613 . S
S1860 N1862 1.610 . S
N1861 S1860 1.613 . S
N1861 C1864 1.350 . S
N1862 S1860 1.610 . S
N1862 C1863 1.351 . S
C1863 C1857 1.428 . S
C1863 N1862 1.351 . S
C1863 C1864 1.434 . S
C1864 C1855 1.429 . S
C1864 N1861 1.350 . S
C1864 C1863 1.434 . S
C1865 C1866 1.369 . S
C1865 C1867 1.419 . S
C1865 H1869 0.930 . S
C1866 C1865 1.369 . S
C1866 C1875 1.429 . S
C1867 C1865 1.419 . S
C1867 C1868 1.363 . S
C1867 H1870 0.929 . S
C1868 C1867 1.363 . S
C1868 C1874 1.428 . S
H1869 C1865 0.930 . S
H1870 C1867 0.929 . S
S1871 N1872 1.613 . S
S1871 N1873 1.610 . S
N1872 S1871 1.613 . S
N1872 C1875 1.350 . S
N1873 S1871 1.610 . S
N1873 C1874 1.351 . S
C1874 C1868 1.428 . S
C1874 N1873 1.351 . S
C1874 C1875 1.434 . S
C1875 C1866 1.429 . S
C1875 N1872 1.350 . S
C1875 C1874 1.434 . S
C1876 C1877 1.369 . S
C1876 C1878 1.419 . S
C1876 H1880 0.930 . S
C1877 C1876 1.369 . S
C1877 C1886 1.429 . S
C1878 C1876 1.419 . S
C1878 C1879 1.363 . S
C1878 H1881 0.929 . S
C1879 C1878 1.363 . S
C1879 C1885 1.428 . S
H1880 C1876 0.930 . S
H1881 C1878 0.929 . S
S1882 N1883 1.613 . S
S1882 N1884 1.610 . S
N1883 S1882 1.613 . S
N1883 C1886 1.350 . S
N1884 S1882 1.610 . S
N1884 C1885 1.351 . S
C1885 C1879 1.428 . S
C1885 N1884 1.351 . S
C1885 C1886 1.434 . S
C1886 C1877 1.429 . S
C1886 N1883 1.350 . S
C1886 C1885 1.434 . S
C1887 C1888 1.369 . S
C1887 C1889 1.419 . S
C1887 H1891 0.930 . S
C1888 C1887 1.369 . S
C1888 C1897 1.429 . S
C1889 C1887 1.419 . S
C1889 C1890 1.363 . S
C1889 H1892 0.929 . S
C1890 C1889 1.363 . S
C1890 C1896 1.428 . S
H1891 C1887 0.930 . S
H1892 C1889 0.929 . S
S1893 N1894 1.613 . S
S1893 N1895 1.610 . S
N1894 S1893 1.613 . S
N1894 C1897 1.350 . S
N1895 S1893 1.610 . S
N1895 C1896 1.351 . S
C1896 C1890 1.428 . S
C1896 N1895 1.351 . S
C1896 C1897 1.434 . S
C1897 C1888 1.429 . S
C1897 N1894 1.350 . S
C1897 C1896 1.434 . S
C1898 C1899 1.369 . S
C1898 C1900 1.419 . S
C1898 H1902 0.930 . S
C1899 C1898 1.369 . S
C1899 C1908 1.429 . S
C1900 C1898 1.419 . S
C1900 C1901 1.363 . S
C1900 H1903 0.929 . S
C1901 C1900 1.363 . S
C1901 C1907 1.428 . S
H1902 C1898 0.930 . S
H1903 C1900 0.929 . S
S1904 N1905 1.613 . S
S1904 N1906 1.610 . S
N1905 S1904 1.613 . S
N1905 C1908 1.350 . S
N1906 S1904 1.610 . S
N1906 C1907 1.351 . S
C1907 C1901 1.428 . S
C1907 N1906 1.351 . S
C1907 C1908 1.434 . S
C1908 C1899 1.429 . S
C1908 N1905 1.350 . S
C1908 C1907 1.434 . S
C1909 C1910 1.369 . S
C1909 C1911 1.419 . S
C1909 H1913 0.930 . S
C1910 C1909 1.369 . S
C1910 C1919 1.429 . S
C1911 C1909 1.419 . S
C1911 C1912 1.363 . S
C1911 H1914 0.929 . S
C1912 C1911 1.363 . S
C1912 C1918 1.428 . S
H1913 C1909 0.930 . S
H1914 C1911 0.929 . S
S1915 N1916 1.613 . S
S1915 N1917 1.610 . S
N1916 S1915 1.613 . S
N1916 C1919 1.350 . S
N1917 S1915 1.610 . S
N1917 C1918 1.351 . S
C1918 C1912 1.428 . S
C1918 N1917 1.351 . S
C1918 C1919 1.434 . S
C1919 C1910 1.429 . S
C1919 N1916 1.350 . S
C1919 C1918 1.434 . S
C1920 C1921 1.369 . S
C1920 C1922 1.419 . S
C1920 H1924 0.930 . S
C1921 C1920 1.369 . S
C1921 C1930 1.429 . S
C1922 C1920 1.419 . S
C1922 C1923 1.363 . S
C1922 H1925 0.929 . S
C1923 C1922 1.363 . S
C1923 C1929 1.428 . S
H1924 C1920 0.930 . S
H1925 C1922 0.929 . S
S1926 N1927 1.613 1_655 S
S1926 N1928 1.610 1_655 S
N1927 S1926 1.613 1_455 S
N1927 C1930 1.350 . S
N1928 S1926 1.610 1_455 S
N1928 C1929 1.351 . S
C1929 C1923 1.428 . S
C1929 N1928 1.351 . S
C1929 C1930 1.434 . S
C1930 C1921 1.429 . S
C1930 N1927 1.350 . S
C1930 C1929 1.434 . S
C1931 C1932 1.369 . S
C1931 C1933 1.419 . S
C1931 H1935 0.930 . S
C1932 C1931 1.369 . S
C1932 C1941 1.429 . S
C1933 C1931 1.419 . S
C1933 C1934 1.363 . S
C1933 H1936 0.929 . S
C1934 C1933 1.363 . S
C1934 C1940 1.428 . S
H1935 C1931 0.930 . S
H1936 C1933 0.929 . S
S1937 N1938 1.613 . S
S1937 N1939 1.610 . S
N1938 S1937 1.613 . S
N1938 C1941 1.350 . S
N1939 S1937 1.610 . S
N1939 C1940 1.351 . S
C1940 C1934 1.428 . S
C1940 N1939 1.351 . S
C1940 C1941 1.434 . S
C1941 C1932 1.429 . S
C1941 N1938 1.350 . S
C1941 C1940 1.434 . S
C1942 C1943 1.369 . S
C1942 C1944 1.419 . S
C1942 H1946 0.930 . S
C1943 C1942 1.369 . S
C1943 C1952 1.429 . S
C1944 C1942 1.419 . S
C1944 C1945 1.363 . S
C1944 H1947 0.929 . S
C1945 C1944 1.363 . S
C1945 C1951 1.428 . S
H1946 C1942 0.930 . S
H1947 C1944 0.929 . S
S1948 N1949 1.613 . S
S1948 N1950 1.610 . S
N1949 S1948 1.613 . S
N1949 C1952 1.350 . S
N1950 S1948 1.610 . S
N1950 C1951 1.351 . S
C1951 C1945 1.428 . S
C1951 N1950 1.351 . S
C1951 C1952 1.434 . S
C1952 C1943 1.429 . S
C1952 N1949 1.350 . S
C1952 C1951 1.434 . S
C1953 C1954 1.369 . S
C1953 C1955 1.419 . S
C1953 H1957 0.930 . S
C1954 C1953 1.369 . S
C1954 C1963 1.429 . S
C1955 C1953 1.419 . S
C1955 C1956 1.363 . S
C1955 H1958 0.929 . S
C1956 C1955 1.363 . S
C1956 C1962 1.428 . S
H1957 C1953 0.930 . S
H1958 C1955 0.929 . S
S1959 N1960 1.613 . S
S1959 N1961 1.610 . S
N1960 S1959 1.613 . S
N1960 C1963 1.350 . S
N1961 S1959 1.610 . S
N1961 C1962 1.351 . S
C1962 C1956 1.428 . S
C1962 N1961 1.351 . S
C1962 C1963 1.434 . S
C1963 C1954 1.429 . S
C1963 N1960 1.350 . S
C1963 C1962 1.434 . S
C1964 C1965 1.369 . S
C1964 C1966 1.419 . S
C1964 H1968 0.930 . S
C1965 C1964 1.369 . S
C1965 C1974 1.429 . S
C1966 C1964 1.419 . S
C1966 C1967 1.363 . S
C1966 H1969 0.929 . S
C1967 C1966 1.363 . S
C1967 C1973 1.428 . S
H1968 C1964 0.930 . S
H1969 C1966 0.929 . S
S1970 N1971 1.613 . S
S1970 N1972 1.610 . S
N1971 S1970 1.613 . S
N1971 C1974 1.350 . S
N1972 S1970 1.610 . S
N1972 C1973 1.351 . S
C1973 C1967 1.428 . S
C1973 N1972 1.351 . S
C1973 C1974 1.434 . S
C1974 C1965 1.429 . S
C1974 N1971 1.350 . S
C1974 C1973 1.434 . S
C1975 C1976 1.369 . S
C1975 C1977 1.419 . S
C1975 H1979 0.930 . S
C1976 C1975 1.369 . S
C1976 C1985 1.429 . S
C1977 C1975 1.419 . S
C1977 C1978 1.363 . S
C1977 H1980 0.929 . S
C1978 C1977 1.363 . S
C1978 C1984 1.428 . S
H1979 C1975 0.930 . S
H1980 C1977 0.929 . S
S1981 N1982 1.613 . S
S1981 N1983 1.610 . S
N1982 S1981 1.613 . S
N1982 C1985 1.350 . S
N1983 S1981 1.610 . S
N1983 C1984 1.351 . S
C1984 C1978 1.428 . S
C1984 N1983 1.351 . S
C1984 C1985 1.434 . S
C1985 C1976 1.429 . S
C1985 N1982 1.350 . S
C1985 C1984 1.434 . S
C1986 C1987 1.369 . S
C1986 C1988 1.419 . S
C1986 H1990 0.930 . S
C1987 C1986 1.369 . S
C1987 C1996 1.429 . S
C1988 C1986 1.419 . S
C1988 C1989 1.363 . S
C1988 H1991 0.929 . S
C1989 C1988 1.363 . S
C1989 C1995 1.428 . S
H1990 C1986 0.930 . S
H1991 C1988 0.929 . S
S1992 N1993 1.613 . S
S1992 N1994 1.610 . S
N1993 S1992 1.613 . S
N1993 C1996 1.350 . S
N1994 S1992 1.610 . S
N1994 C1995 1.351 . S
C1995 C1989 1.428 . S
C1995 N1994 1.351 . S
C1995 C1996 1.434 . S
C1996 C1987 1.429 . S
C1996 N1993 1.350 . S
C1996 C1995 1.434 . S
C1997 C1998 1.369 . S
C1997 C1999 1.419 . S
C1997 H2001 0.930 . S
C1998 C1997 1.369 . S
C1998 C2007 1.429 . S
C1999 C1997 1.419 . S
C1999 C2000 1.363 . S
C1999 H2002 0.929 . S
C2000 C1999 1.363 . S
C2000 C2006 1.428 . S
H2001 C1997 0.930 . S
H2002 C1999 0.929 . S
S2003 N2004 1.613 . S
S2003 N2005 1.610 . S
N2004 S2003 1.613 . S
N2004 C2007 1.350 . S
N2005 S2003 1.610 . S
N2005 C2006 1.351 . S
C2006 C2000 1.428 . S
C2006 N2005 1.351 . S
C2006 C2007 1.434 . S
C2007 C1998 1.429 . S
C2007 N2004 1.350 . S
C2007 C2006 1.434 . S
C2008 C2009 1.369 . S
C2008 C2010 1.419 . S
C2008 H2012 0.930 . S
C2009 C2008 1.369 . S
C2009 C2018 1.429 . S
C2010 C2008 1.419 . S
C2010 C2011 1.363 . S
C2010 H2013 0.929 . S
C2011 C2010 1.363 . S
C2011 C2017 1.428 . S
H2012 C2008 0.930 . S
H2013 C2010 0.929 . S
S2014 N2015 1.613 . S
S2014 N2016 1.610 . S
N2015 S2014 1.613 . S
N2015 C2018 1.350 . S
N2016 S2014 1.610 . S
N2016 C2017 1.351 . S
C2017 C2011 1.428 . S
C2017 N2016 1.351 . S
C2017 C2018 1.434 . S
C2018 C2009 1.429 . S
C2018 N2015 1.350 . S
C2018 C2017 1.434 . S
C2019 C2020 1.369 . S
C2019 C2021 1.419 . S
C2019 H2023 0.930 . S
C2020 C2019 1.369 . S
C2020 C2029 1.429 . S
C2021 C2019 1.419 . S
C2021 C2022 1.363 . S
C2021 H2024 0.929 . S
C2022 C2021 1.363 . S
C2022 C2028 1.428 . S
H2023 C2019 0.930 . S
H2024 C2021 0.929 . S
S2025 N2026 1.613 . S
S2025 N2027 1.610 . S
N2026 S2025 1.613 . S
N2026 C2029 1.350 . S
N2027 S2025 1.610 . S
N2027 C2028 1.351 . S
C2028 C2022 1.428 . S
C2028 N2027 1.351 . S
C2028 C2029 1.434 . S
C2029 C2020 1.429 . S
C2029 N2026 1.350 . S
C2029 C2028 1.434 . S
C2030 C2031 1.369 . S
C2030 C2032 1.419 . S
C2030 H2034 0.930 1_545 S
C2031 C2030 1.369 . S
C2031 C2040 1.429 . S
C2032 C2030 1.419 . S
C2032 C2033 1.363 . S
C2032 H2035 0.929 . S
C2033 C2032 1.363 . S
C2033 C2039 1.428 . S
H2034 C2030 0.930 1_565 S
H2035 C2032 0.929 . S
S2036 N2037 1.613 . S
S2036 N2038 1.610 . S
N2037 S2036 1.613 . S
N2037 C2040 1.350 . S
N2038 S2036 1.610 . S
N2038 C2039 1.351 . S
C2039 C2033 1.428 . S
C2039 N2038 1.351 . S
C2039 C2040 1.434 . S
C2040 C2031 1.429 . S
C2040 N2037 1.350 . S
C2040 C2039 1.434 . S
C2041 C2042 1.369 . S
C2041 C2043 1.419 . S
C2041 H2045 0.930 . S
C2042 C2041 1.369 . S
C2042 C2051 1.429 . S
C2043 C2041 1.419 . S
C2043 C2044 1.363 . S
C2043 H2046 0.929 . S
C2044 C2043 1.363 . S
C2044 C2050 1.428 . S
H2045 C2041 0.930 . S
H2046 C2043 0.929 . S
S2047 N2048 1.613 . S
S2047 N2049 1.610 . S
N2048 S2047 1.613 . S
N2048 C2051 1.350 . S
N2049 S2047 1.610 . S
N2049 C2050 1.351 . S
C2050 C2044 1.428 . S
C2050 N2049 1.351 . S
C2050 C2051 1.434 . S
C2051 C2042 1.429 . S
C2051 N2048 1.350 . S
C2051 C2050 1.434 . S
C2052 C2053 1.369 . S
C2052 C2054 1.419 . S
C2052 H2056 0.930 . S
C2053 C2052 1.369 . S
C2053 C2062 1.429 . S
C2054 C2052 1.419 . S
C2054 C2055 1.363 . S
C2054 H2057 0.929 . S
C2055 C2054 1.363 . S
C2055 C2061 1.428 . S
H2056 C2052 0.930 . S
H2057 C2054 0.929 . S
S2058 N2059 1.613 . S
S2058 N2060 1.610 . S
N2059 S2058 1.613 . S
N2059 C2062 1.350 1_565 S
N2060 S2058 1.610 . S
N2060 C2061 1.351 1_565 S
C2061 C2055 1.428 . S
C2061 N2060 1.351 1_545 S
C2061 C2062 1.434 . S
C2062 C2053 1.429 . S
C2062 N2059 1.350 1_545 S
C2062 C2061 1.434 . S
C2063 C2064 1.369 . S
C2063 C2065 1.419 . S
C2063 H2067 0.930 . S
C2064 C2063 1.369 . S
C2064 C2073 1.429 . S
C2065 C2063 1.419 . S
C2065 C2066 1.363 . S
C2065 H2068 0.929 . S
C2066 C2065 1.363 . S
C2066 C2072 1.428 . S
H2067 C2063 0.930 . S
H2068 C2065 0.929 . S
S2069 N2070 1.613 . S
S2069 N2071 1.610 . S
N2070 S2069 1.613 . S
N2070 C2073 1.350 . S
N2071 S2069 1.610 . S
N2071 C2072 1.351 . S
C2072 C2066 1.428 . S
C2072 N2071 1.351 . S
C2072 C2073 1.434 . S
C2073 C2064 1.429 . S
C2073 N2070 1.350 . S
C2073 C2072 1.434 . S
C2074 C2075 1.369 . S
C2074 C2076 1.419 . S
C2074 H2078 0.930 1_545 S
C2075 C2074 1.369 . S
C2075 C2084 1.429 . S
C2076 C2074 1.419 . S
C2076 C2077 1.363 . S
C2076 H2079 0.929 . S
C2077 C2076 1.363 . S
C2077 C2083 1.428 . S
H2078 C2074 0.930 1_565 S
H2079 C2076 0.929 . S
S2080 N2081 1.613 . S
S2080 N2082 1.610 . S
N2081 S2080 1.613 . S
N2081 C2084 1.350 . S
N2082 S2080 1.610 . S
N2082 C2083 1.351 . S
C2083 C2077 1.428 . S
C2083 N2082 1.351 . S
C2083 C2084 1.434 . S
C2084 C2075 1.429 . S
C2084 N2081 1.350 . S
C2084 C2083 1.434 . S
C2085 C2086 1.369 . S
C2085 C2087 1.419 . S
C2085 H2089 0.930 . S
C2086 C2085 1.369 . S
C2086 C2095 1.429 . S
C2087 C2085 1.419 . S
C2087 C2088 1.363 . S
C2087 H2090 0.929 . S
C2088 C2087 1.363 . S
C2088 C2094 1.428 . S
H2089 C2085 0.930 . S
H2090 C2087 0.929 . S
S2091 N2092 1.613 . S
S2091 N2093 1.610 . S
N2092 S2091 1.613 . S
N2092 C2095 1.350 . S
N2093 S2091 1.610 . S
N2093 C2094 1.351 . S
C2094 C2088 1.428 . S
C2094 N2093 1.351 . S
C2094 C2095 1.434 . S
C2095 C2086 1.429 . S
C2095 N2092 1.350 . S
C2095 C2094 1.434 . S
C2096 C2097 1.369 . S
C2096 C2098 1.419 . S
C2096 H2100 0.930 . S
C2097 C2096 1.369 . S
C2097 C2106 1.429 . S
C2098 C2096 1.419 . S
C2098 C2099 1.363 . S
C2098 H2101 0.929 . S
C2099 C2098 1.363 . S
C2099 C2105 1.428 . S
H2100 C2096 0.930 . S
H2101 C2098 0.929 . S
S2102 N2103 1.613 . S
S2102 N2104 1.610 . S
N2103 S2102 1.613 . S
N2103 C2106 1.350 . S
N2104 S2102 1.610 . S
N2104 C2105 1.351 . S
C2105 C2099 1.428 . S
C2105 N2104 1.351 . S
C2105 C2106 1.434 . S
C2106 C2097 1.429 . S
C2106 N2103 1.350 . S
C2106 C2105 1.434 . S
C2107 C2108 1.369 . S
C2107 C2109 1.419 . S
C2107 H2111 0.930 . S
C2108 C2107 1.369 . S
C2108 C2117 1.429 . S
C2109 C2107 1.419 . S
C2109 C2110 1.363 . S
C2109 H2112 0.929 . S
C2110 C2109 1.363 . S
C2110 C2116 1.428 . S
H2111 C2107 0.930 . S
H2112 C2109 0.929 . S
S2113 N2114 1.613 . S
S2113 N2115 1.610 . S
N2114 S2113 1.613 . S
N2114 C2117 1.350 . S
N2115 S2113 1.610 . S
N2115 C2116 1.351 . S
C2116 C2110 1.428 . S
C2116 N2115 1.351 . S
C2116 C2117 1.434 . S
C2117 C2108 1.429 . S
C2117 N2114 1.350 . S
C2117 C2116 1.434 . S
C2118 C2119 1.369 . S
C2118 C2120 1.419 . S
C2118 H2122 0.930 . S
C2119 C2118 1.369 . S
C2119 C2128 1.429 . S
C2120 C2118 1.419 . S
C2120 C2121 1.363 . S
C2120 H2123 0.929 . S
C2121 C2120 1.363 . S
C2121 C2127 1.428 . S
H2122 C2118 0.930 . S
H2123 C2120 0.929 . S
S2124 N2125 1.613 . S
S2124 N2126 1.610 . S
N2125 S2124 1.613 . S
N2125 C2128 1.350 . S
N2126 S2124 1.610 . S
N2126 C2127 1.351 . S
C2127 C2121 1.428 . S
C2127 N2126 1.351 . S
C2127 C2128 1.434 . S
C2128 C2119 1.429 . S
C2128 N2125 1.350 . S
C2128 C2127 1.434 . S
C2129 C2130 1.369 . S
C2129 C2131 1.419 . S
C2129 H2133 0.930 . S
C2130 C2129 1.369 . S
C2130 C2139 1.429 . S
C2131 C2129 1.419 . S
C2131 C2132 1.363 . S
C2131 H2134 0.929 . S
C2132 C2131 1.363 . S
C2132 C2138 1.428 . S
H2133 C2129 0.930 . S
H2134 C2131 0.929 . S
S2135 N2136 1.613 . S
S2135 N2137 1.610 . S
N2136 S2135 1.613 . S
N2136 C2139 1.350 . S
N2137 S2135 1.610 . S
N2137 C2138 1.351 . S
C2138 C2132 1.428 . S
C2138 N2137 1.351 . S
C2138 C2139 1.434 . S
C2139 C2130 1.429 . S
C2139 N2136 1.350 . S
C2139 C2138 1.434 . S
C2140 C2141 1.369 . S
C2140 C2142 1.419 1_545 S
C2140 H2144 0.930 . S
C2141 C2140 1.369 . S
C2141 C2150 1.429 1_545 S
C2142 C2140 1.419 1_565 S
C2142 C2143 1.363 . S
C2142 H2145 0.929 . S
C2143 C2142 1.363 . S
C2143 C2149 1.428 . S
H2144 C2140 0.930 . S
H2145 C2142 0.929 . S
S2146 N2147 1.613 . S
S2146 N2148 1.610 . S
N2147 S2146 1.613 . S
N2147 C2150 1.350 . S
N2148 S2146 1.610 . S
N2148 C2149 1.351 . S
C2149 C2143 1.428 . S
C2149 N2148 1.351 . S
C2149 C2150 1.434 . S
C2150 C2141 1.429 1_565 S
C2150 N2147 1.350 . S
C2150 C2149 1.434 . S
C2151 C2152 1.369 . S
C2151 C2153 1.419 . S
C2151 H2155 0.930 . S
C2152 C2151 1.369 . S
C2152 C2161 1.429 . S
C2153 C2151 1.419 . S
C2153 C2154 1.363 . S
C2153 H2156 0.929 . S
C2154 C2153 1.363 . S
C2154 C2160 1.428 . S
H2155 C2151 0.930 . S
H2156 C2153 0.929 . S
S2157 N2158 1.613 . S
S2157 N2159 1.610 . S
N2158 S2157 1.613 . S
N2158 C2161 1.350 . S
N2159 S2157 1.610 . S
N2159 C2160 1.351 . S
C2160 C2154 1.428 . S
C2160 N2159 1.351 . S
C2160 C2161 1.434 . S
C2161 C2152 1.429 . S
C2161 N2158 1.350 . S
C2161 C2160 1.434 . S
C2162 C2163 1.369 . S
C2162 C2164 1.419 . S
C2162 H2166 0.930 . S
C2163 C2162 1.369 . S
C2163 C2172 1.429 . S
C2164 C2162 1.419 . S
C2164 C2165 1.363 . S
C2164 H2167 0.929 . S
C2165 C2164 1.363 . S
C2165 C2171 1.428 . S
H2166 C2162 0.930 . S
H2167 C2164 0.929 . S
S2168 N2169 1.613 . S
S2168 N2170 1.610 . S
N2169 S2168 1.613 . S
N2169 C2172 1.350 . S
N2170 S2168 1.610 . S
N2170 C2171 1.351 . S
C2171 C2165 1.428 . S
C2171 N2170 1.351 . S
C2171 C2172 1.434 . S
C2172 C2163 1.429 . S
C2172 N2169 1.350 . S
C2172 C2171 1.434 . S
C2173 C2174 1.369 . S
C2173 C2175 1.419 . S
C2173 H2177 0.930 . S
C2174 C2173 1.369 . S
C2174 C2183 1.429 . S
C2175 C2173 1.419 . S
C2175 C2176 1.363 . S
C2175 H2178 0.929 . S
C2176 C2175 1.363 . S
C2176 C2182 1.428 . S
H2177 C2173 0.930 . S
H2178 C2175 0.929 . S
S2179 N2180 1.613 . S
S2179 N2181 1.610 . S
N2180 S2179 1.613 . S
N2180 C2183 1.350 . S
N2181 S2179 1.610 . S
N2181 C2182 1.351 . S
C2182 C2176 1.428 . S
C2182 N2181 1.351 . S
C2182 C2183 1.434 . S
C2183 C2174 1.429 . S
C2183 N2180 1.350 . S
C2183 C2182 1.434 . S
C2184 C2185 1.369 . S
C2184 C2186 1.419 . S
C2184 H2188 0.930 . S
C2185 C2184 1.369 . S
C2185 C2194 1.429 . S
C2186 C2184 1.419 . S
C2186 C2187 1.363 . S
C2186 H2189 0.929 . S
C2187 C2186 1.363 . S
C2187 C2193 1.428 . S
H2188 C2184 0.930 . S
H2189 C2186 0.929 . S
S2190 N2191 1.613 . S
S2190 N2192 1.610 . S
N2191 S2190 1.613 . S
N2191 C2194 1.350 . S
N2192 S2190 1.610 . S
N2192 C2193 1.351 . S
C2193 C2187 1.428 . S
C2193 N2192 1.351 . S
C2193 C2194 1.434 . S
C2194 C2185 1.429 . S
C2194 N2191 1.350 . S
C2194 C2193 1.434 . S
C2195 C2196 1.369 . S
C2195 C2197 1.419 . S
C2195 H2199 0.930 . S
C2196 C2195 1.369 . S
C2196 C2205 1.429 . S
C2197 C2195 1.419 . S
C2197 C2198 1.363 . S
C2197 H2200 0.929 . S
C2198 C2197 1.363 . S
C2198 C2204 1.428 . S
H2199 C2195 0.930 . S
H2200 C2197 0.929 . S
S2201 N2202 1.613 . S
S2201 N2203 1.610 . S
N2202 S2201 1.613 . S
N2202 C2205 1.350 . S
N2203 S2201 1.610 . S
N2203 C2204 1.351 . S
C2204 C2198 1.428 . S
C2204 N2203 1.351 . S
C2204 C2205 1.434 . S
C2205 C2196 1.429 . S
C2205 N2202 1.350 . S
C2205 C2204 1.434 . S
C2206 C2207 1.369 . S
C2206 C2208 1.419 . S
C2206 H2210 0.930 . S
C2207 C2206 1.369 . S
C2207 C2216 1.429 1_554 S
C2208 C2206 1.419 . S
C2208 C2209 1.363 . S
C2208 H2211 0.929 . S
C2209 C2208 1.363 . S
C2209 C2215 1.428 . S
H2210 C2206 0.930 . S
H2211 C2208 0.929 . S
S2212 N2213 1.613 . S
S2212 N2214 1.610 1_655 S
N2213 S2212 1.613 . S
N2213 C2216 1.350 1_655 S
N2214 S2212 1.610 1_455 S
N2214 C2215 1.351 1_556 S
C2215 C2209 1.428 . S
C2215 N2214 1.351 1_554 S
C2215 C2216 1.434 1_554 S
C2216 C2207 1.429 1_556 S
C2216 N2213 1.350 1_455 S
C2216 C2215 1.434 1_556 S
C2217 C2218 1.369 . S
C2217 C2219 1.419 . S
C2217 H2221 0.930 . S
C2218 C2217 1.369 . S
C2218 C2227 1.429 1_655 S
C2219 C2217 1.419 . S
C2219 C2220 1.363 . S
C2219 H2222 0.929 . S
C2220 C2219 1.363 . S
C2220 C2226 1.428 . S
H2221 C2217 0.930 . S
H2222 C2219 0.929 . S
S2223 N2224 1.613 . S
S2223 N2225 1.610 . S
N2224 S2223 1.613 . S
N2224 C2227 1.350 . S
N2225 S2223 1.610 . S
N2225 C2226 1.351 1_455 S
C2226 C2220 1.428 . S
C2226 N2225 1.351 1_655 S
C2226 C2227 1.434 1_655 S
C2227 C2218 1.429 1_455 S
C2227 N2224 1.350 . S
C2227 C2226 1.434 1_455 S
C2228 C2229 1.369 . S
C2228 C2230 1.419 . S
C2228 H2232 0.930 . S
C2229 C2228 1.369 . S
C2229 C2238 1.429 . S
C2230 C2228 1.419 . S
C2230 C2231 1.363 . S
C2230 H2233 0.929 . S
C2231 C2230 1.363 . S
C2231 C2237 1.428 . S
H2232 C2228 0.930 . S
H2233 C2230 0.929 . S
S2234 N2235 1.613 . S
S2234 N2236 1.610 . S
N2235 S2234 1.613 . S
N2235 C2238 1.350 . S
N2236 S2234 1.610 . S
N2236 C2237 1.351 . S
C2237 C2231 1.428 . S
C2237 N2236 1.351 . S
C2237 C2238 1.434 . S
C2238 C2229 1.429 . S
C2238 N2235 1.350 . S
C2238 C2237 1.434 . S
C2239 C2240 1.369 . S
C2239 C2241 1.419 . S
C2239 H2243 0.930 . S
C2240 C2239 1.369 . S
C2240 C2249 1.429 . S
C2241 C2239 1.419 . S
C2241 C2242 1.363 . S
C2241 H2244 0.929 . S
C2242 C2241 1.363 . S
C2242 C2248 1.428 . S
H2243 C2239 0.930 . S
H2244 C2241 0.929 . S
S2245 N2246 1.613 . S
S2245 N2247 1.610 . S
N2246 S2245 1.613 . S
N2246 C2249 1.350 . S
N2247 S2245 1.610 . S
N2247 C2248 1.351 . S
C2248 C2242 1.428 . S
C2248 N2247 1.351 . S
C2248 C2249 1.434 . S
C2249 C2240 1.429 . S
C2249 N2246 1.350 . S
C2249 C2248 1.434 . S
C2250 C2251 1.369 . S
C2250 C2252 1.419 . S
C2250 H2254 0.930 . S
C2251 C2250 1.369 . S
C2251 C2260 1.429 1_455 S
C2252 C2250 1.419 . S
C2252 C2253 1.363 . S
C2252 H2255 0.929 . S
C2253 C2252 1.363 . S
C2253 C2259 1.428 1_455 S
H2254 C2250 0.930 . S
H2255 C2252 0.929 . S
S2256 N2257 1.613 . S
S2256 N2258 1.610 . S
N2257 S2256 1.613 . S
N2257 C2260 1.350 . S
N2258 S2256 1.610 . S
N2258 C2259 1.351 . S
C2259 C2253 1.428 1_655 S
C2259 N2258 1.351 . S
C2259 C2260 1.434 . S
C2260 C2251 1.429 1_655 S
C2260 N2257 1.350 . S
C2260 C2259 1.434 . S
C2261 C2262 1.369 . S
C2261 C2263 1.419 . S
C2261 H2265 0.930 . S
C2262 C2261 1.369 . S
C2262 C2271 1.429 . S
C2263 C2261 1.419 . S
C2263 C2264 1.363 . S
C2263 H2266 0.929 . S
C2264 C2263 1.363 . S
C2264 C2270 1.428 . S
H2265 C2261 0.930 . S
H2266 C2263 0.929 . S
S2267 N2268 1.613 . S
S2267 N2269 1.610 . S
N2268 S2267 1.613 . S
N2268 C2271 1.350 . S
N2269 S2267 1.610 . S
N2269 C2270 1.351 . S
C2270 C2264 1.428 . S
C2270 N2269 1.351 . S
C2270 C2271 1.434 . S
C2271 C2262 1.429 . S
C2271 N2268 1.350 . S
C2271 C2270 1.434 . S
C2272 C2273 1.369 . S
C2272 C2274 1.419 . S
C2272 H2276 0.930 . S
C2273 C2272 1.369 . S
C2273 C2282 1.429 . S
C2274 C2272 1.419 . S
C2274 C2275 1.363 . S
C2274 H2277 0.929 . S
C2275 C2274 1.363 . S
C2275 C2281 1.428 . S
H2276 C2272 0.930 . S
H2277 C2274 0.929 . S
S2278 N2279 1.613 . S
S2278 N2280 1.610 . S
N2279 S2278 1.613 . S
N2279 C2282 1.350 . S
N2280 S2278 1.610 . S
N2280 C2281 1.351 . S
C2281 C2275 1.428 . S
C2281 N2280 1.351 . S
C2281 C2282 1.434 . S
C2282 C2273 1.429 . S
C2282 N2279 1.350 . S
C2282 C2281 1.434 . S
C2283 C2284 1.369 . S
C2283 C2285 1.419 . S
C2283 H2287 0.930 . S
C2284 C2283 1.369 . S
C2284 C2293 1.429 1_554 S
C2285 C2283 1.419 . S
C2285 C2286 1.363 1_554 S
C2285 H2288 0.929 . S
C2286 C2285 1.363 1_556 S
C2286 C2292 1.428 . S
H2287 C2283 0.930 . S
H2288 C2285 0.929 . S
S2289 N2290 1.613 . S
S2289 N2291 1.610 . S
N2290 S2289 1.613 . S
N2290 C2293 1.350 . S
N2291 S2289 1.610 . S
N2291 C2292 1.351 . S
C2292 C2286 1.428 . S
C2292 N2291 1.351 . S
C2292 C2293 1.434 . S
C2293 C2284 1.429 1_556 S
C2293 N2290 1.350 . S
C2293 C2292 1.434 . S
C2294 C2295 1.369 . S
C2294 C2296 1.419 . S
C2294 H2298 0.930 . S
C2295 C2294 1.369 . S
C2295 C2304 1.429 . S
C2296 C2294 1.419 . S
C2296 C2297 1.363 . S
C2296 H2299 0.929 . S
C2297 C2296 1.363 . S
C2297 C2303 1.428 . S
H2298 C2294 0.930 . S
H2299 C2296 0.929 . S
S2300 N2301 1.613 . S
S2300 N2302 1.610 . S
N2301 S2300 1.613 . S
N2301 C2304 1.350 . S
N2302 S2300 1.610 . S
N2302 C2303 1.351 . S
C2303 C2297 1.428 . S
C2303 N2302 1.351 . S
C2303 C2304 1.434 . S
C2304 C2295 1.429 . S
C2304 N2301 1.350 . S
C2304 C2303 1.434 . S
C2305 C2306 1.369 . S
C2305 C2307 1.419 . S
C2305 H2309 0.930 . S
C2306 C2305 1.369 . S
C2306 C2315 1.429 . S
C2307 C2305 1.419 . S
C2307 C2308 1.363 . S
C2307 H2310 0.929 . S
C2308 C2307 1.363 . S
C2308 C2314 1.428 . S
H2309 C2305 0.930 . S
H2310 C2307 0.929 . S
S2311 N2312 1.613 . S
S2311 N2313 1.610 . S
N2312 S2311 1.613 . S
N2312 C2315 1.350 . S
N2313 S2311 1.610 . S
N2313 C2314 1.351 . S
C2314 C2308 1.428 . S
C2314 N2313 1.351 . S
C2314 C2315 1.434 . S
C2315 C2306 1.429 . S
C2315 N2312 1.350 . S
C2315 C2314 1.434 . S
C2316 C2317 1.369 . S
C2316 C2318 1.419 . S
C2316 H2320 0.930 . S
C2317 C2316 1.369 . S
C2317 C2326 1.429 . S
C2318 C2316 1.419 . S
C2318 C2319 1.363 . S
C2318 H2321 0.929 . S
C2319 C2318 1.363 . S
C2319 C2325 1.428 . S
H2320 C2316 0.930 . S
H2321 C2318 0.929 . S
S2322 N2323 1.613 . S
S2322 N2324 1.610 . S
N2323 S2322 1.613 . S
N2323 C2326 1.350 . S
N2324 S2322 1.610 . S
N2324 C2325 1.351 . S
C2325 C2319 1.428 . S
C2325 N2324 1.351 . S
C2325 C2326 1.434 . S
C2326 C2317 1.429 . S
C2326 N2323 1.350 . S
C2326 C2325 1.434 . S
C2327 C2328 1.369 . S
C2327 C2329 1.419 . S
C2327 H2331 0.930 . S
C2328 C2327 1.369 . S
C2328 C2337 1.429 . S
C2329 C2327 1.419 . S
C2329 C2330 1.363 . S
C2329 H2332 0.929 . S
C2330 C2329 1.363 . S
C2330 C2336 1.428 . S
H2331 C2327 0.930 . S
H2332 C2329 0.929 . S
S2333 N2334 1.613 . S
S2333 N2335 1.610 . S
N2334 S2333 1.613 . S
N2334 C2337 1.350 . S
N2335 S2333 1.610 . S
N2335 C2336 1.351 . S
C2336 C2330 1.428 . S
C2336 N2335 1.351 . S
C2336 C2337 1.434 . S
C2337 C2328 1.429 . S
C2337 N2334 1.350 . S
C2337 C2336 1.434 . S
C2338 C2339 1.369 . S
C2338 C2340 1.419 . S
C2338 H2342 0.930 . S
C2339 C2338 1.369 . S
C2339 C2348 1.429 . S
C2340 C2338 1.419 . S
C2340 C2341 1.363 . S
C2340 H2343 0.929 . S
C2341 C2340 1.363 . S
C2341 C2347 1.428 . S
H2342 C2338 0.930 . S
H2343 C2340 0.929 . S
S2344 N2345 1.613 . S
S2344 N2346 1.610 . S
N2345 S2344 1.613 . S
N2345 C2348 1.350 . S
N2346 S2344 1.610 . S
N2346 C2347 1.351 . S
C2347 C2341 1.428 . S
C2347 N2346 1.351 . S
C2347 C2348 1.434 . S
C2348 C2339 1.429 . S
C2348 N2345 1.350 . S
C2348 C2347 1.434 . S
C2349 C2350 1.369 . S
C2349 C2351 1.419 . S
C2349 H2353 0.930 . S
C2350 C2349 1.369 . S
C2350 C2359 1.429 . S
C2351 C2349 1.419 . S
C2351 C2352 1.363 . S
C2351 H2354 0.929 . S
C2352 C2351 1.363 . S
C2352 C2358 1.428 . S
H2353 C2349 0.930 . S
H2354 C2351 0.929 . S
S2355 N2356 1.613 . S
S2355 N2357 1.610 . S
N2356 S2355 1.613 . S
N2356 C2359 1.350 . S
N2357 S2355 1.610 . S
N2357 C2358 1.351 . S
C2358 C2352 1.428 . S
C2358 N2357 1.351 . S
C2358 C2359 1.434 . S
C2359 C2350 1.429 . S
C2359 N2356 1.350 . S
C2359 C2358 1.434 . S
C2360 C2361 1.369 . S
C2360 C2362 1.419 . S
C2360 H2364 0.930 . S
C2361 C2360 1.369 . S
C2361 C2370 1.429 . S
C2362 C2360 1.419 . S
C2362 C2363 1.363 . S
C2362 H2365 0.929 . S
C2363 C2362 1.363 . S
C2363 C2369 1.428 . S
H2364 C2360 0.930 . S
H2365 C2362 0.929 . S
S2366 N2367 1.613 . S
S2366 N2368 1.610 . S
N2367 S2366 1.613 . S
N2367 C2370 1.350 . S
N2368 S2366 1.610 . S
N2368 C2369 1.351 . S
C2369 C2363 1.428 . S
C2369 N2368 1.351 . S
C2369 C2370 1.434 . S
C2370 C2361 1.429 . S
C2370 N2367 1.350 . S
C2370 C2369 1.434 . S
C2371 C2372 1.369 . S
C2371 C2373 1.419 . S
C2371 H2375 0.930 . S
C2372 C2371 1.369 . S
C2372 C2381 1.429 . S
C2373 C2371 1.419 . S
C2373 C2374 1.363 . S
C2373 H2376 0.929 . S
C2374 C2373 1.363 . S
C2374 C2380 1.428 . S
H2375 C2371 0.930 . S
H2376 C2373 0.929 . S
S2377 N2378 1.613 . S
S2377 N2379 1.610 . S
N2378 S2377 1.613 . S
N2378 C2381 1.350 . S
N2379 S2377 1.610 . S
N2379 C2380 1.351 . S
C2380 C2374 1.428 . S
C2380 N2379 1.351 . S
C2380 C2381 1.434 . S
C2381 C2372 1.429 . S
C2381 N2378 1.350 . S
C2381 C2380 1.434 . S
C2382 C2383 1.369 . S
C2382 C2384 1.419 . S
C2382 H2386 0.930 . S
C2383 C2382 1.369 . S
C2383 C2392 1.429 1_565 S
C2384 C2382 1.419 . S
C2384 C2385 1.363 . S
C2384 H2387 0.929 . S
C2385 C2384 1.363 . S
C2385 C2391 1.428 . S
H2386 C2382 0.930 . S
H2387 C2384 0.929 . S
S2388 N2389 1.613 . S
S2388 N2390 1.610 . S
N2389 S2388 1.613 . S
N2389 C2392 1.350 . S
N2390 S2388 1.610 . S
N2390 C2391 1.351 1_545 S
C2391 C2385 1.428 . S
C2391 N2390 1.351 1_565 S
C2391 C2392 1.434 1_565 S
C2392 C2383 1.429 1_545 S
C2392 N2389 1.350 . S
C2392 C2391 1.434 1_545 S
C2393 C2394 1.380 . S
C2393 C2395 1.413 1_565 S
C2393 H2397 0.930 . S
C2394 C2393 1.380 . S
C2394 C2403 1.418 1_564 S
C2395 C2393 1.413 1_545 S
C2395 C2396 1.372 . S
C2395 H2398 0.925 1_545 S
C2396 C2395 1.372 . S
C2396 C2402 1.428 1_554 S
H2397 C2393 0.930 . S
H2398 C2395 0.925 1_565 S
S2399 N2400 1.613 . S
S2399 N2401 1.610 . S
N2400 S2399 1.613 . S
N2400 C2403 1.350 . S
N2401 S2399 1.610 . S
N2401 C2402 1.351 . S
C2402 C2396 1.428 1_556 S
C2402 N2401 1.351 . S
C2402 C2403 1.434 . S
C2403 C2394 1.418 1_546 S
C2403 N2400 1.350 . S
C2403 C2402 1.434 . S
C2404 C2405 1.369 . S
C2404 C2406 1.419 . S
C2404 H2408 0.930 . S
C2405 C2404 1.369 . S
C2405 C2414 1.429 . S
C2406 C2404 1.419 . S
C2406 C2407 1.363 . S
C2406 H2409 0.929 . S
C2407 C2406 1.363 . S
C2407 C2413 1.428 . S
H2408 C2404 0.930 . S
H2409 C2406 0.929 . S
S2410 N2411 1.613 . S
S2410 N2412 1.610 . S
N2411 S2410 1.613 . S
N2411 C2414 1.350 . S
N2412 S2410 1.610 . S
N2412 C2413 1.351 . S
C2413 C2407 1.428 . S
C2413 N2412 1.351 . S
C2413 C2414 1.434 . S
C2414 C2405 1.429 . S
C2414 N2411 1.350 . S
C2414 C2413 1.434 . S
C2415 C2416 1.369 . S
C2415 C2417 1.419 . S
C2415 H2419 0.930 . S
C2416 C2415 1.369 . S
C2416 C2425 1.429 . S
C2417 C2415 1.419 . S
C2417 C2418 1.363 . S
C2417 H2420 0.929 . S
C2418 C2417 1.363 . S
C2418 C2424 1.428 . S
H2419 C2415 0.930 . S
H2420 C2417 0.929 . S
S2421 N2422 1.613 . S
S2421 N2423 1.610 . S
N2422 S2421 1.613 . S
N2422 C2425 1.350 . S
N2423 S2421 1.610 . S
N2423 C2424 1.351 . S
C2424 C2418 1.428 . S
C2424 N2423 1.351 . S
C2424 C2425 1.434 . S
C2425 C2416 1.429 . S
C2425 N2422 1.350 . S
C2425 C2424 1.434 . S
C2426 C2427 1.369 . S
C2426 C2428 1.419 . S
C2426 H2430 0.930 . S
C2427 C2426 1.369 . S
C2427 C2436 1.429 . S
C2428 C2426 1.419 . S
C2428 C2429 1.363 . S
C2428 H2431 0.929 . S
C2429 C2428 1.363 . S
C2429 C2435 1.428 . S
H2430 C2426 0.930 . S
H2431 C2428 0.929 . S
S2432 N2433 1.613 . S
S2432 N2434 1.610 . S
N2433 S2432 1.613 . S
N2433 C2436 1.350 . S
N2434 S2432 1.610 . S
N2434 C2435 1.351 . S
C2435 C2429 1.428 . S
C2435 N2434 1.351 . S
C2435 C2436 1.434 . S
C2436 C2427 1.429 . S
C2436 N2433 1.350 . S
C2436 C2435 1.434 . S
C2437 C2438 1.369 . S
C2437 C2439 1.419 . S
C2437 H2441 0.930 . S
C2438 C2437 1.369 . S
C2438 C2447 1.429 . S
C2439 C2437 1.419 . S
C2439 C2440 1.363 . S
C2439 H2442 0.929 . S
C2440 C2439 1.363 . S
C2440 C2446 1.428 . S
H2441 C2437 0.930 . S
H2442 C2439 0.929 . S
S2443 N2444 1.613 . S
S2443 N2445 1.610 . S
N2444 S2443 1.613 . S
N2444 C2447 1.350 . S
N2445 S2443 1.610 . S
N2445 C2446 1.351 . S
C2446 C2440 1.428 . S
C2446 N2445 1.351 . S
C2446 C2447 1.434 . S
C2447 C2438 1.429 . S
C2447 N2444 1.350 . S
C2447 C2446 1.434 . S
C2448 C2449 1.369 . S
C2448 C2450 1.419 . S
C2448 H2452 0.930 . S
C2449 C2448 1.369 . S
C2449 C2458 1.429 . S
C2450 C2448 1.419 . S
C2450 C2451 1.363 . S
C2450 H2453 0.929 . S
C2451 C2450 1.363 . S
C2451 C2457 1.428 . S
H2452 C2448 0.930 . S
H2453 C2450 0.929 . S
S2454 N2455 1.613 . S
S2454 N2456 1.610 . S
N2455 S2454 1.613 . S
N2455 C2458 1.350 . S
N2456 S2454 1.610 . S
N2456 C2457 1.351 . S
C2457 C2451 1.428 . S
C2457 N2456 1.351 . S
C2457 C2458 1.434 . S
C2458 C2449 1.429 . S
C2458 N2455 1.350 . S
C2458 C2457 1.434 . S
C2459 C2460 1.369 . S
C2459 C2461 1.419 . S
C2459 H2463 0.930 . S
C2460 C2459 1.369 . S
C2460 C2469 1.429 . S
C2461 C2459 1.419 . S
C2461 C2462 1.363 . S
C2461 H2464 0.929 . S
C2462 C2461 1.363 . S
C2462 C2468 1.428 . S
H2463 C2459 0.930 . S
H2464 C2461 0.929 . S
S2465 N2466 1.613 . S
S2465 N2467 1.610 . S
N2466 S2465 1.613 . S
N2466 C2469 1.350 . S
N2467 S2465 1.610 . S
N2467 C2468 1.351 . S
C2468 C2462 1.428 . S
C2468 N2467 1.351 . S
C2468 C2469 1.434 . S
C2469 C2460 1.429 . S
C2469 N2466 1.350 . S
C2469 C2468 1.434 . S
C2470 C2471 1.369 . S
C2470 C2472 1.419 . S
C2470 H2474 0.930 . S
C2471 C2470 1.369 . S
C2471 C2480 1.429 . S
C2472 C2470 1.419 . S
C2472 C2473 1.363 . S
C2472 H2475 0.929 . S
C2473 C2472 1.363 . S
C2473 C2479 1.428 . S
H2474 C2470 0.930 . S
H2475 C2472 0.929 . S
S2476 N2477 1.613 1_556 S
S2476 N2478 1.610 1_556 S
N2477 S2476 1.613 1_554 S
N2477 C2480 1.350 . S
N2478 S2476 1.610 1_554 S
N2478 C2479 1.351 . S
C2479 C2473 1.428 . S
C2479 N2478 1.351 . S
C2479 C2480 1.434 . S
C2480 C2471 1.429 . S
C2480 N2477 1.350 . S
C2480 C2479 1.434 . S
C2481 C2482 1.369 . S
C2481 C2483 1.419 . S
C2481 H2485 0.930 . S
C2482 C2481 1.369 . S
C2482 C2491 1.429 . S
C2483 C2481 1.419 . S
C2483 C2484 1.363 . S
C2483 H2486 0.929 . S
C2484 C2483 1.363 . S
C2484 C2490 1.428 . S
H2485 C2481 0.930 . S
H2486 C2483 0.929 . S
S2487 N2488 1.613 . S
S2487 N2489 1.610 . S
N2488 S2487 1.613 . S
N2488 C2491 1.350 . S
N2489 S2487 1.610 . S
N2489 C2490 1.351 . S
C2490 C2484 1.428 . S
C2490 N2489 1.351 . S
C2490 C2491 1.434 . S
C2491 C2482 1.429 . S
C2491 N2488 1.350 . S
C2491 C2490 1.434 . S
C2492 C2493 1.369 . S
C2492 C2494 1.419 . S
C2492 H2496 0.930 . S
C2493 C2492 1.369 . S
C2493 C2502 1.429 . S
C2494 C2492 1.419 . S
C2494 C2495 1.363 . S
C2494 H2497 0.929 . S
C2495 C2494 1.363 . S
C2495 C2501 1.428 . S
H2496 C2492 0.930 . S
H2497 C2494 0.929 . S
S2498 N2499 1.613 . S
S2498 N2500 1.610 . S
N2499 S2498 1.613 . S
N2499 C2502 1.350 . S
N2500 S2498 1.610 . S
N2500 C2501 1.351 . S
C2501 C2495 1.428 . S
C2501 N2500 1.351 . S
C2501 C2502 1.434 . S
C2502 C2493 1.429 . S
C2502 N2499 1.350 . S
C2502 C2501 1.434 . S
C2503 C2504 1.369 . S
C2503 C2505 1.419 . S
C2503 H2507 0.930 . S
C2504 C2503 1.369 . S
C2504 C2513 1.429 . S
C2505 C2503 1.419 . S
C2505 C2506 1.363 . S
C2505 H2508 0.929 . S
C2506 C2505 1.363 . S
C2506 C2512 1.428 . S
H2507 C2503 0.930 . S
H2508 C2505 0.929 . S
S2509 N2510 1.613 . S
S2509 N2511 1.610 . S
N2510 S2509 1.613 . S
N2510 C2513 1.350 . S
N2511 S2509 1.610 . S
N2511 C2512 1.351 . S
C2512 C2506 1.428 . S
C2512 N2511 1.351 . S
C2512 C2513 1.434 . S
C2513 C2504 1.429 . S
C2513 N2510 1.350 . S
C2513 C2512 1.434 . S
C2514 C2515 1.369 . S
C2514 C2516 1.419 . S
C2514 H2518 0.930 . S
C2515 C2514 1.369 . S
C2515 C2524 1.429 . S
C2516 C2514 1.419 . S
C2516 C2517 1.363 . S
C2516 H2519 0.929 . S
C2517 C2516 1.363 . S
C2517 C2523 1.428 . S
H2518 C2514 0.930 . S
H2519 C2516 0.929 . S
S2520 N2521 1.613 1_655 S
S2520 N2522 1.610 1_655 S
N2521 S2520 1.613 1_455 S
N2521 C2524 1.350 . S
N2522 S2520 1.610 1_455 S
N2522 C2523 1.351 . S
C2523 C2517 1.428 . S
C2523 N2522 1.351 . S
C2523 C2524 1.434 . S
C2524 C2515 1.429 . S
C2524 N2521 1.350 . S
C2524 C2523 1.434 . S
C2525 C2526 1.369 . S
C2525 C2527 1.419 . S
C2525 H2529 0.930 . S
C2526 C2525 1.369 . S
C2526 C2535 1.429 . S
C2527 C2525 1.419 . S
C2527 C2528 1.363 . S
C2527 H2530 0.929 . S
C2528 C2527 1.363 . S
C2528 C2534 1.428 . S
H2529 C2525 0.930 . S
H2530 C2527 0.929 . S
S2531 N2532 1.613 . S
S2531 N2533 1.610 . S
N2532 S2531 1.613 . S
N2532 C2535 1.350 . S
N2533 S2531 1.610 . S
N2533 C2534 1.351 . S
C2534 C2528 1.428 . S
C2534 N2533 1.351 . S
C2534 C2535 1.434 . S
C2535 C2526 1.429 . S
C2535 N2532 1.350 . S
C2535 C2534 1.434 . S
C2536 C2537 1.369 . S
C2536 C2538 1.419 . S
C2536 H2540 0.930 . S
C2537 C2536 1.369 . S
C2537 C2546 1.429 . S
C2538 C2536 1.419 . S
C2538 C2539 1.363 . S
C2538 H2541 0.929 . S
C2539 C2538 1.363 . S
C2539 C2545 1.428 . S
H2540 C2536 0.930 . S
H2541 C2538 0.929 . S
S2542 N2543 1.613 . S
S2542 N2544 1.610 . S
N2543 S2542 1.613 . S
N2543 C2546 1.350 . S
N2544 S2542 1.610 . S
N2544 C2545 1.351 . S
C2545 C2539 1.428 . S
C2545 N2544 1.351 . S
C2545 C2546 1.434 . S
C2546 C2537 1.429 . S
C2546 N2543 1.350 . S
C2546 C2545 1.434 . S
C2547 C2548 1.369 . S
C2547 C2549 1.419 . S
C2547 H2551 0.930 . S
C2548 C2547 1.369 . S
C2548 C2557 1.429 . S
C2549 C2547 1.419 . S
C2549 C2550 1.363 . S
C2549 H2552 0.929 . S
C2550 C2549 1.363 . S
C2550 C2556 1.428 . S
H2551 C2547 0.930 . S
H2552 C2549 0.929 . S
S2553 N2554 1.613 . S
S2553 N2555 1.610 . S
N2554 S2553 1.613 . S
N2554 C2557 1.350 . S
N2555 S2553 1.610 . S
N2555 C2556 1.351 . S
C2556 C2550 1.428 . S
C2556 N2555 1.351 . S
C2556 C2557 1.434 . S
C2557 C2548 1.429 . S
C2557 N2554 1.350 . S
C2557 C2556 1.434 . S
C2558 C2559 1.369 . S
C2558 C2560 1.419 . S
C2558 H2562 0.930 . S
C2559 C2558 1.369 . S
C2559 C2568 1.429 . S
C2560 C2558 1.419 . S
C2560 C2561 1.363 . S
C2560 H2563 0.929 . S
C2561 C2560 1.363 . S
C2561 C2567 1.428 . S
H2562 C2558 0.930 . S
H2563 C2560 0.929 . S
S2564 N2565 1.613 . S
S2564 N2566 1.610 1_655 S
N2565 S2564 1.613 . S
N2565 C2568 1.350 . S
N2566 S2564 1.610 1_455 S
N2566 C2567 1.351 1_455 S
C2567 C2561 1.428 . S
C2567 N2566 1.351 1_655 S
C2567 C2568 1.434 . S
C2568 C2559 1.429 . S
C2568 N2565 1.350 . S
C2568 C2567 1.434 . S
C2569 C2570 1.369 . S
C2569 C2571 1.419 . S
C2569 H2573 0.930 . S
C2570 C2569 1.369 . S
C2570 C2579 1.429 . S
C2571 C2569 1.419 . S
C2571 C2572 1.363 . S
C2571 H2574 0.929 . S
C2572 C2571 1.363 . S
C2572 C2578 1.428 . S
H2573 C2569 0.930 . S
H2574 C2571 0.929 . S
S2575 N2576 1.613 . S
S2575 N2577 1.610 . S
N2576 S2575 1.613 . S
N2576 C2579 1.350 . S
N2577 S2575 1.610 . S
N2577 C2578 1.351 . S
C2578 C2572 1.428 . S
C2578 N2577 1.351 . S
C2578 C2579 1.434 . S
C2579 C2570 1.429 . S
C2579 N2576 1.350 . S
C2579 C2578 1.434 . S
C2580 C2581 1.369 . S
C2580 C2582 1.419 . S
C2580 H2584 0.930 . S
C2581 C2580 1.369 . S
C2581 C2590 1.429 . S
C2582 C2580 1.419 . S
C2582 C2583 1.363 . S
C2582 H2585 0.929 . S
C2583 C2582 1.363 . S
C2583 C2589 1.428 . S
H2584 C2580 0.930 . S
H2585 C2582 0.929 . S
S2586 N2587 1.613 . S
S2586 N2588 1.610 . S
N2587 S2586 1.613 . S
N2587 C2590 1.350 . S
N2588 S2586 1.610 . S
N2588 C2589 1.351 . S
C2589 C2583 1.428 . S
C2589 N2588 1.351 . S
C2589 C2590 1.434 . S
C2590 C2581 1.429 . S
C2590 N2587 1.350 . S
C2590 C2589 1.434 . S
C2591 C2592 1.369 . S
C2591 C2593 1.419 . S
C2591 H2595 0.930 . S
C2592 C2591 1.369 . S
C2592 C2601 1.429 . S
C2593 C2591 1.419 . S
C2593 C2594 1.363 . S
C2593 H2596 0.929 . S
C2594 C2593 1.363 . S
C2594 C2600 1.428 . S
H2595 C2591 0.930 . S
H2596 C2593 0.929 . S
S2597 N2598 1.613 . S
S2597 N2599 1.610 . S
N2598 S2597 1.613 . S
N2598 C2601 1.350 . S
N2599 S2597 1.610 . S
N2599 C2600 1.351 . S
C2600 C2594 1.428 . S
C2600 N2599 1.351 . S
C2600 C2601 1.434 . S
C2601 C2592 1.429 . S
C2601 N2598 1.350 . S
C2601 C2600 1.434 . S
C2602 C2603 1.369 . S
C2602 C2604 1.419 . S
C2602 H2606 0.930 . S
C2603 C2602 1.369 . S
C2603 C2612 1.429 . S
C2604 C2602 1.419 . S
C2604 C2605 1.363 . S
C2604 H2607 0.929 . S
C2605 C2604 1.363 . S
C2605 C2611 1.428 . S
H2606 C2602 0.930 . S
H2607 C2604 0.929 . S
S2608 N2609 1.613 . S
S2608 N2610 1.610 . S
N2609 S2608 1.613 . S
N2609 C2612 1.350 . S
N2610 S2608 1.610 . S
N2610 C2611 1.351 . S
C2611 C2605 1.428 . S
C2611 N2610 1.351 . S
C2611 C2612 1.434 . S
C2612 C2603 1.429 . S
C2612 N2609 1.350 . S
C2612 C2611 1.434 . S
C2613 C2614 1.369 . S
C2613 C2615 1.419 . S
C2613 H2617 0.930 . S
C2614 C2613 1.369 . S
C2614 C2623 1.429 . S
C2615 C2613 1.419 . S
C2615 C2616 1.363 . S
C2615 H2618 0.929 . S
C2616 C2615 1.363 . S
C2616 C2622 1.428 . S
H2617 C2613 0.930 . S
H2618 C2615 0.929 . S
S2619 N2620 1.613 . S
S2619 N2621 1.610 . S
N2620 S2619 1.613 . S
N2620 C2623 1.350 . S
N2621 S2619 1.610 . S
N2621 C2622 1.351 . S
C2622 C2616 1.428 . S
C2622 N2621 1.351 . S
C2622 C2623 1.434 . S
C2623 C2614 1.429 . S
C2623 N2620 1.350 . S
C2623 C2622 1.434 . S
C2624 C2625 1.369 . S
C2624 C2626 1.419 . S
C2624 H2628 0.930 . S
C2625 C2624 1.369 . S
C2625 C2634 1.429 . S
C2626 C2624 1.419 . S
C2626 C2627 1.363 . S
C2626 H2629 0.929 . S
C2627 C2626 1.363 . S
C2627 C2633 1.428 . S
H2628 C2624 0.930 . S
H2629 C2626 0.929 . S
S2630 N2631 1.613 . S
S2630 N2632 1.610 . S
N2631 S2630 1.613 . S
N2631 C2634 1.350 . S
N2632 S2630 1.610 . S
N2632 C2633 1.351 . S
C2633 C2627 1.428 . S
C2633 N2632 1.351 . S
C2633 C2634 1.434 . S
C2634 C2625 1.429 . S
C2634 N2631 1.350 . S
C2634 C2633 1.434 . S
C2635 C2636 1.369 . S
C2635 C2637 1.419 . S
C2635 H2639 0.930 . S
C2636 C2635 1.369 . S
C2636 C2645 1.429 . S
C2637 C2635 1.419 . S
C2637 C2638 1.363 . S
C2637 H2640 0.929 . S
C2638 C2637 1.363 . S
C2638 C2644 1.428 . S
H2639 C2635 0.930 . S
H2640 C2637 0.929 . S
S2641 N2642 1.613 . S
S2641 N2643 1.610 . S
N2642 S2641 1.613 . S
N2642 C2645 1.350 . S
N2643 S2641 1.610 . S
N2643 C2644 1.351 . S
C2644 C2638 1.428 . S
C2644 N2643 1.351 . S
C2644 C2645 1.434 . S
C2645 C2636 1.429 . S
C2645 N2642 1.350 . S
C2645 C2644 1.434 . S
C2646 C2647 1.369 . S
C2646 C2648 1.419 . S
C2646 H2650 0.930 . S
C2647 C2646 1.369 . S
C2647 C2656 1.429 . S
C2648 C2646 1.419 . S
C2648 C2649 1.363 . S
C2648 H2651 0.929 . S
C2649 C2648 1.363 . S
C2649 C2655 1.428 . S
H2650 C2646 0.930 . S
H2651 C2648 0.929 . S
S2652 N2653 1.613 . S
S2652 N2654 1.610 . S
N2653 S2652 1.613 . S
N2653 C2656 1.350 . S
N2654 S2652 1.610 . S
N2654 C2655 1.351 . S
C2655 C2649 1.428 . S
C2655 N2654 1.351 . S
C2655 C2656 1.434 . S
C2656 C2647 1.429 . S
C2656 N2653 1.350 . S
C2656 C2655 1.434 . S
C2657 C2658 1.369 . S
C2657 C2659 1.419 . S
C2657 H2661 0.930 . S
C2658 C2657 1.369 . S
C2658 C2667 1.429 . S
C2659 C2657 1.419 . S
C2659 C2660 1.363 . S
C2659 H2662 0.929 . S
C2660 C2659 1.363 . S
C2660 C2666 1.428 . S
H2661 C2657 0.930 . S
H2662 C2659 0.929 . S
S2663 N2664 1.613 . S
S2663 N2665 1.610 . S
N2664 S2663 1.613 . S
N2664 C2667 1.350 . S
N2665 S2663 1.610 . S
N2665 C2666 1.351 . S
C2666 C2660 1.428 . S
C2666 N2665 1.351 . S
C2666 C2667 1.434 . S
C2667 C2658 1.429 . S
C2667 N2664 1.350 . S
C2667 C2666 1.434 . S
C2668 C2669 1.369 . S
C2668 C2670 1.419 . S
C2668 H2672 0.930 . S
C2669 C2668 1.369 . S
C2669 C2678 1.429 . S
C2670 C2668 1.419 . S
C2670 C2671 1.363 . S
C2670 H2673 0.929 . S
C2671 C2670 1.363 . S
C2671 C2677 1.428 . S
H2672 C2668 0.930 . S
H2673 C2670 0.929 . S
S2674 N2675 1.613 . S
S2674 N2676 1.610 . S
N2675 S2674 1.613 . S
N2675 C2678 1.350 . S
N2676 S2674 1.610 . S
N2676 C2677 1.351 . S
C2677 C2671 1.428 . S
C2677 N2676 1.351 . S
C2677 C2678 1.434 . S
C2678 C2669 1.429 . S
C2678 N2675 1.350 . S
C2678 C2677 1.434 . S
C2679 C2680 1.369 . S
C2679 C2681 1.419 . S
C2679 H2683 0.930 . S
C2680 C2679 1.369 . S
C2680 C2689 1.429 . S
C2681 C2679 1.419 . S
C2681 C2682 1.363 . S
C2681 H2684 0.929 . S
C2682 C2681 1.363 . S
C2682 C2688 1.428 . S
H2683 C2679 0.930 . S
H2684 C2681 0.929 . S
S2685 N2686 1.613 . S
S2685 N2687 1.610 . S
N2686 S2685 1.613 . S
N2686 C2689 1.350 . S
N2687 S2685 1.610 . S
N2687 C2688 1.351 . S
C2688 C2682 1.428 . S
C2688 N2687 1.351 . S
C2688 C2689 1.434 . S
C2689 C2680 1.429 . S
C2689 N2686 1.350 . S
C2689 C2688 1.434 . S
C2690 C2691 1.369 . S
C2690 C2692 1.419 . S
C2690 H2694 0.930 . S
C2691 C2690 1.369 . S
C2691 C2700 1.429 . S
C2692 C2690 1.419 . S
C2692 C2693 1.363 . S
C2692 H2695 0.929 . S
C2693 C2692 1.363 . S
C2693 C2699 1.428 . S
H2694 C2690 0.930 . S
H2695 C2692 0.929 . S
S2696 N2697 1.613 . S
S2696 N2698 1.610 . S
N2697 S2696 1.613 . S
N2697 C2700 1.350 . S
N2698 S2696 1.610 . S
N2698 C2699 1.351 . S
C2699 C2693 1.428 . S
C2699 N2698 1.351 . S
C2699 C2700 1.434 . S
C2700 C2691 1.429 . S
C2700 N2697 1.350 . S
C2700 C2699 1.434 . S
C2701 C2702 1.369 . S
C2701 C2703 1.419 . S
C2701 H2705 0.930 . S
C2702 C2701 1.369 . S
C2702 C2711 1.429 . S
C2703 C2701 1.419 . S
C2703 C2704 1.363 . S
C2703 H2706 0.929 . S
C2704 C2703 1.363 . S
C2704 C2710 1.428 . S
H2705 C2701 0.930 . S
H2706 C2703 0.929 . S
S2707 N2708 1.613 . S
S2707 N2709 1.610 . S
N2708 S2707 1.613 . S
N2708 C2711 1.350 . S
N2709 S2707 1.610 . S
N2709 C2710 1.351 . S
C2710 C2704 1.428 . S
C2710 N2709 1.351 . S
C2710 C2711 1.434 . S
C2711 C2702 1.429 . S
C2711 N2708 1.350 . S
C2711 C2710 1.434 . S
C1657 C101 2.206 1_554 S
C1659 C368 2.207 . S
C1668 C57 1.873 . S
C1670 C470 1.951 . S
C1679 C70 1.819 . S
C1681 C536 1.819 . S
C1692 C622 1.389 . S
C1690 C82 1.432 . S
C1701 C23 1.435 . S
C1703 C706 1.388 . S
C1714 C788 1.820 . S
C1712 C29 1.821 . S
C1725 C890 1.942 . S
C1723 C49 1.874 . S
C1734 C10 2.208 . S
C1736 C956 2.206 . S
C1747 C386 1.785 . S
C1745 C218 1.830 . S
C1756 C226 1.035 . S
C1758 C454 1.018 . S
C1769 C554 1.342 . S
C1767 C251 1.286 . S
C1780 C620 1.602 . S
C1778 C159 1.605 . S
C1789 C211 1.605 . S
C1791 C704 1.601 . S
C1802 C806 1.345 . S
C1800 C225 1.284 . S
C1813 C874 1.012 . S
C1811 C252 1.046 . S
C1824 C974 1.785 . S
C1822 C166 1.829 . S
C1835 C370 1.314 . S
C1833 C147 1.275 . S
C1844 C263 1.661 . S
C1846 C1058 1.712 . S
C1857 C1126 1.496 . S
C1855 C309 1.505 . S
C1868 C1208 0.824 . S
C1866 C291 0.822 . S
C1877 C108 1.270 . S
C1879 C958 1.312 . S
C1888 C121 1.503 . S
C1890 C538 1.497 . S
C1899 C302 1.662 . S
C1901 C1310 1.713 . S
C1912 C1376 0.826 . S
C1910 C276 0.819 . S
C1923 C379 2.372 . S
C1921 C55 2.335 . S
C1934 C1383 2.132 . S
C1932 C96 2.112 . S
C1943 C88 2.073 . S
C1945 C547 2.087 . S
C1954 C75 1.547 . S
C1956 C1305 1.462 . S
C1967 C717 1.459 . S
C1965 C4 1.549 . S
C1976 C44 2.078 . S
C1978 C1135 2.094 . S
C1989 C879 2.132 1_565 S
C1987 C31 2.112 . S
C2000 C1471 2.371 . S
C1998 C18 2.337 . S
C2011 C375 2.000 . S
C2009 C133 2.035 . S
C2022 C1389 1.048 . S
C2020 C296 1.131 . S
C2031 C107 1.413 . S
C2033 C543 1.418 . S
C2042 C264 1.831 . S
C2044 C1303 1.829 . S
C2053 C140 1.831 . S
C2055 C715 1.828 . S
C2066 C1131 1.418 . S
C2064 C289 1.409 . S
C2075 C114 1.136 . S
C2077 C885 1.052 . S
C2086 C265 2.035 . S
C2088 C1467 1.995 . S
C2097 C179 1.211 . S
C2099 C381 1.216 . S
C2108 C161 1.835 . S
C2110 C1047 1.835 . S
C2119 C244 1.493 . S
C2121 C801 1.433 . S
C2130 C224 1.070 . S
C2132 C1219 1.071 . S
C2143 C1473 1.218 . S
C2141 C257 1.213 . S
C2152 C199 1.491 . S
C2154 C549 1.435 . S
C2165 C627 1.832 . S
C2163 C237 1.831 . S
C2176 C463 1.071 . S
C2174 C185 1.067 . S
C2185 C69 2.208 . S
C2187 C1544 2.207 . S
C2198 C1394 1.952 . S
C2196 C83 1.875 . S
C2207 C94 1.820 1_554 S
C2209 C1628 1.819 . S
C2218 C56 1.430 1_655 S
C2220 C1294 1.385 . S
C2229 C42 1.446 . S
C2231 C1042 1.386 . S
C2242 C1124 1.819 . S
C2240 C3 1.820 . S
C2253 C1226 1.952 . S
C2251 C16 1.879 . S
C2264 C1460 2.206 . S
C2262 C36 2.208 . S
C2275 C1562 1.791 . S
C2273 C238 1.826 . S
C2284 C174 1.046 . S
C2286 C1378 1.009 . S
C2297 C1646 1.340 . S
C2295 C186 1.298 . S
C2308 C1292 1.601 . S
C2306 C198 1.602 . S
C2319 C1040 1.602 . S
C2317 C239 1.604 . S
C2328 C173 1.292 . S
C2330 C1142 1.340 . S
C2341 C1210 1.015 . S
C2339 C187 1.046 . S
C2350 C205 1.830 . S
C2352 C1478 1.789 . S
C2363 C1546 1.311 . S
C2361 C290 1.275 . S
C2372 C122 1.665 . S
C2374 C722 1.711 . S
C2385 C790 1.497 . S
C2383 C134 1.499 1_565 S
C2396 C872 0.827 . S
C2394 C148 0.829 . S
C2407 C1462 1.306 . S
C2405 C283 1.265 . S
C2416 C270 1.506 . S
C2418 C1630 1.493 . S
C2429 C638 1.711 . S
C2427 C135 1.663 . S
C2440 C452 0.825 . S
C2438 C109 0.827 . S
C2449 C81 2.334 . S
C2451 C1555 2.372 . S
C2462 C459 2.134 . S
C2460 C68 2.115 . S
C2471 C62 2.075 . S
C2473 C1639 2.086 . S
C2482 C95 1.548 . S
C2484 C633 1.460 . S
C2493 C30 1.547 . S
C2495 C1053 1.461 . S
C2506 C799 2.087 . S
C2504 C17 2.073 . S
C2515 C5 2.112 . S
C2517 C1215 2.132 . S
C2526 C43 2.339 . S
C2528 C967 2.362 . S
C2539 C1551 1.993 . S
C2537 C304 2.035 . S
C2548 C153 1.130 . S
C2550 C465 1.052 . S
C2561 C1635 1.403 1_656 S
C2559 C278 1.412 . S
C2570 C127 1.830 . S
C2572 C631 1.829 . S
C2581 C303 1.827 . S
C2583 C1051 1.826 . S
C2594 C795 1.415 . S
C2592 C146 1.416 . S
C2603 C277 1.135 . S
C2605 C1221 1.044 . S
C2616 C963 1.989 . S
C2614 C120 2.037 . S
C2627 C1557 1.221 . S
C2625 C231 1.216 . S
C2638 C711 1.835 1_565 S
C2636 C200 1.834 . S
C2647 C212 1.490 . S
C2649 C1137 1.433 . S
C2660 C883 1.068 . S
C2658 C172 1.069 . S
C2669 C192 1.210 . S
C2671 C969 1.216 . S
C2680 C160 1.490 . S
C2682 C1641 1.434 . S
C2693 C1299 1.833 . S
C2691 C213 1.832 . S
C2704 C1387 1.071 . S
C2702 C250 1.070 . S
