# Generated by pormake.
# Topology gar, (4,6)-cn, num edge types: 1
# Building blocks:
#     Node 0, Type 0, BuildingBlock: UXUYUI_clean_sbu_0, # of connection points: 4
#     Node 1, Type 0, BuildingBlock: UXUYUI_clean_sbu_0, # of connection points: 4
#     Node 2, Type 0, BuildingBlock: UXUYUI_clean_sbu_0, # of connection points: 4
#     Node 3, Type 0, BuildingBlock: UXUYUI_clean_sbu_0, # of connection points: 4
#     Node 4, Type 0, BuildingBlock: UXUYUI_clean_sbu_0, # of connection points: 4
#     Node 5, Type 0, BuildingBlock: UXUYUI_clean_sbu_0, # of connection points: 4
#     Node 6, Type 0, BuildingBlock: UXUYUI_clean_sbu_0, # of connection points: 4
#     Node 7, Type 0, BuildingBlock: UXUYUI_clean_sbu_0, # of connection points: 4
#     Node 8, Type 0, BuildingBlock: UXUYUI_clean_sbu_0, # of connection points: 4
#     Node 9, Type 0, BuildingBlock: UXUYUI_clean_sbu_0, # of connection points: 4
#     Node 10, Type 0, BuildingBlock: UXUYUI_clean_sbu_0, # of connection points: 4
#     Node 11, Type 0, BuildingBlock: UXUYUI_clean_sbu_0, # of connection points: 4
#     Node 12, Type 0, BuildingBlock: UXUYUI_clean_sbu_0, # of connection points: 4
#     Node 13, Type 0, BuildingBlock: UXUYUI_clean_sbu_0, # of connection points: 4
#     Node 14, Type 0, BuildingBlock: UXUYUI_clean_sbu_0, # of connection points: 4
#     Node 15, Type 0, BuildingBlock: UXUYUI_clean_sbu_0, # of connection points: 4
#     Node 16, Type 0, BuildingBlock: UXUYUI_clean_sbu_0, # of connection points: 4
#     Node 17, Type 0, BuildingBlock: UXUYUI_clean_sbu_0, # of connection points: 4
#     Node 18, Type 0, BuildingBlock: UXUYUI_clean_sbu_0, # of connection points: 4
#     Node 19, Type 0, BuildingBlock: UXUYUI_clean_sbu_0, # of connection points: 4
#     Node 20, Type 0, BuildingBlock: UXUYUI_clean_sbu_0, # of connection points: 4
#     Node 21, Type 0, BuildingBlock: UXUYUI_clean_sbu_0, # of connection points: 4
#     Node 22, Type 0, BuildingBlock: UXUYUI_clean_sbu_0, # of connection points: 4
#     Node 23, Type 0, BuildingBlock: UXUYUI_clean_sbu_0, # of connection points: 4
#     Node 24, Type 1, BuildingBlock: PAMTUU_clean_sbu_0, # of connection points: 6
#     Node 25, Type 1, BuildingBlock: PAMTUU_clean_sbu_0, # of connection points: 6
#     Node 26, Type 1, BuildingBlock: PAMTUU_clean_sbu_0, # of connection points: 6
#     Node 27, Type 1, BuildingBlock: PAMTUU_clean_sbu_0, # of connection points: 6
#     Node 28, Type 1, BuildingBlock: PAMTUU_clean_sbu_0, # of connection points: 6
#     Node 29, Type 1, BuildingBlock: PAMTUU_clean_sbu_0, # of connection points: 6
#     Node 30, Type 1, BuildingBlock: PAMTUU_clean_sbu_0, # of connection points: 6
#     Node 31, Type 1, BuildingBlock: PAMTUU_clean_sbu_0, # of connection points: 6
#     Node 32, Type 1, BuildingBlock: PAMTUU_clean_sbu_0, # of connection points: 6
#     Node 33, Type 1, BuildingBlock: PAMTUU_clean_sbu_0, # of connection points: 6
#     Node 34, Type 1, BuildingBlock: PAMTUU_clean_sbu_0, # of connection points: 6
#     Node 35, Type 1, BuildingBlock: PAMTUU_clean_sbu_0, # of connection points: 6
#     Node 36, Type 1, BuildingBlock: PAMTUU_clean_sbu_0, # of connection points: 6
#     Node 37, Type 1, BuildingBlock: PAMTUU_clean_sbu_0, # of connection points: 6
#     Node 38, Type 1, BuildingBlock: PAMTUU_clean_sbu_0, # of connection points: 6
#     Node 39, Type 1, BuildingBlock: PAMTUU_clean_sbu_0, # of connection points: 6
#     Edge 40, Type (0, 1), BuildingBlock: XUDNAN_clean_linker_2, # of connection points: 2
#     Edge 41, Type (0, 1), BuildingBlock: XUDNAN_clean_linker_2, # of connection points: 2
#     Edge 42, Type (0, 1), BuildingBlock: XUDNAN_clean_linker_2, # of connection points: 2
#     Edge 43, Type (0, 1), BuildingBlock: XUDNAN_clean_linker_2, # of connection points: 2
#     Edge 44, Type (0, 1), BuildingBlock: XUDNAN_clean_linker_2, # of connection points: 2
#     Edge 45, Type (0, 1), BuildingBlock: XUDNAN_clean_linker_2, # of connection points: 2
#     Edge 46, Type (0, 1), BuildingBlock: XUDNAN_clean_linker_2, # of connection points: 2
#     Edge 47, Type (0, 1), BuildingBlock: XUDNAN_clean_linker_2, # of connection points: 2
#     Edge 48, Type (0, 1), BuildingBlock: XUDNAN_clean_linker_2, # of connection points: 2
#     Edge 49, Type (0, 1), BuildingBlock: XUDNAN_clean_linker_2, # of connection points: 2
#     Edge 50, Type (0, 1), BuildingBlock: XUDNAN_clean_linker_2, # of connection points: 2
#     Edge 51, Type (0, 1), BuildingBlock: XUDNAN_clean_linker_2, # of connection points: 2
#     Edge 52, Type (0, 1), BuildingBlock: XUDNAN_clean_linker_2, # of connection points: 2
#     Edge 53, Type (0, 1), BuildingBlock: XUDNAN_clean_linker_2, # of connection points: 2
#     Edge 54, Type (0, 1), BuildingBlock: XUDNAN_clean_linker_2, # of connection points: 2
#     Edge 55, Type (0, 1), BuildingBlock: XUDNAN_clean_linker_2, # of connection points: 2
#     Edge 56, Type (0, 1), BuildingBlock: XUDNAN_clean_linker_2, # of connection points: 2
#     Edge 57, Type (0, 1), BuildingBlock: XUDNAN_clean_linker_2, # of connection points: 2
#     Edge 58, Type (0, 1), BuildingBlock: XUDNAN_clean_linker_2, # of connection points: 2
#     Edge 59, Type (0, 1), BuildingBlock: XUDNAN_clean_linker_2, # of connection points: 2
#     Edge 60, Type (0, 1), BuildingBlock: XUDNAN_clean_linker_2, # of connection points: 2
#     Edge 61, Type (0, 1), BuildingBlock: XUDNAN_clean_linker_2, # of connection points: 2
#     Edge 62, Type (0, 1), BuildingBlock: XUDNAN_clean_linker_2, # of connection points: 2
#     Edge 63, Type (0, 1), BuildingBlock: XUDNAN_clean_linker_2, # of connection points: 2
#     Edge 64, Type (0, 1), BuildingBlock: XUDNAN_clean_linker_2, # of connection points: 2
#     Edge 65, Type (0, 1), BuildingBlock: XUDNAN_clean_linker_2, # of connection points: 2
#     Edge 66, Type (0, 1), BuildingBlock: XUDNAN_clean_linker_2, # of connection points: 2
#     Edge 67, Type (0, 1), BuildingBlock: XUDNAN_clean_linker_2, # of connection points: 2
#     Edge 68, Type (0, 1), BuildingBlock: XUDNAN_clean_linker_2, # of connection points: 2
#     Edge 69, Type (0, 1), BuildingBlock: XUDNAN_clean_linker_2, # of connection points: 2
#     Edge 70, Type (0, 1), BuildingBlock: XUDNAN_clean_linker_2, # of connection points: 2
#     Edge 71, Type (0, 1), BuildingBlock: XUDNAN_clean_linker_2, # of connection points: 2
#     Edge 72, Type (0, 1), BuildingBlock: XUDNAN_clean_linker_2, # of connection points: 2
#     Edge 73, Type (0, 1), BuildingBlock: XUDNAN_clean_linker_2, # of connection points: 2
#     Edge 74, Type (0, 1), BuildingBlock: XUDNAN_clean_linker_2, # of connection points: 2
#     Edge 75, Type (0, 1), BuildingBlock: XUDNAN_clean_linker_2, # of connection points: 2
#     Edge 76, Type (0, 1), BuildingBlock: XUDNAN_clean_linker_2, # of connection points: 2
#     Edge 77, Type (0, 1), BuildingBlock: XUDNAN_clean_linker_2, # of connection points: 2
#     Edge 78, Type (0, 1), BuildingBlock: XUDNAN_clean_linker_2, # of connection points: 2
#     Edge 79, Type (0, 1), BuildingBlock: XUDNAN_clean_linker_2, # of connection points: 2
#     Edge 80, Type (0, 1), BuildingBlock: XUDNAN_clean_linker_2, # of connection points: 2
#     Edge 81, Type (0, 1), BuildingBlock: XUDNAN_clean_linker_2, # of connection points: 2
#     Edge 82, Type (0, 1), BuildingBlock: XUDNAN_clean_linker_2, # of connection points: 2
#     Edge 83, Type (0, 1), BuildingBlock: XUDNAN_clean_linker_2, # of connection points: 2
#     Edge 84, Type (0, 1), BuildingBlock: XUDNAN_clean_linker_2, # of connection points: 2
#     Edge 85, Type (0, 1), BuildingBlock: XUDNAN_clean_linker_2, # of connection points: 2
#     Edge 86, Type (0, 1), BuildingBlock: XUDNAN_clean_linker_2, # of connection points: 2
#     Edge 87, Type (0, 1), BuildingBlock: XUDNAN_clean_linker_2, # of connection points: 2
#     Edge 88, Type (0, 1), BuildingBlock: XUDNAN_clean_linker_2, # of connection points: 2
#     Edge 89, Type (0, 1), BuildingBlock: XUDNAN_clean_linker_2, # of connection points: 2
#     Edge 90, Type (0, 1), BuildingBlock: XUDNAN_clean_linker_2, # of connection points: 2
#     Edge 91, Type (0, 1), BuildingBlock: XUDNAN_clean_linker_2, # of connection points: 2
#     Edge 92, Type (0, 1), BuildingBlock: XUDNAN_clean_linker_2, # of connection points: 2
#     Edge 93, Type (0, 1), BuildingBlock: XUDNAN_clean_linker_2, # of connection points: 2
#     Edge 94, Type (0, 1), BuildingBlock: XUDNAN_clean_linker_2, # of connection points: 2
#     Edge 95, Type (0, 1), BuildingBlock: XUDNAN_clean_linker_2, # of connection points: 2
#     Edge 96, Type (0, 1), BuildingBlock: XUDNAN_clean_linker_2, # of connection points: 2
#     Edge 97, Type (0, 1), BuildingBlock: XUDNAN_clean_linker_2, # of connection points: 2
#     Edge 98, Type (0, 1), BuildingBlock: XUDNAN_clean_linker_2, # of connection points: 2
#     Edge 99, Type (0, 1), BuildingBlock: XUDNAN_clean_linker_2, # of connection points: 2
#     Edge 100, Type (0, 1), BuildingBlock: XUDNAN_clean_linker_2, # of connection points: 2
#     Edge 101, Type (0, 1), BuildingBlock: XUDNAN_clean_linker_2, # of connection points: 2
#     Edge 102, Type (0, 1), BuildingBlock: XUDNAN_clean_linker_2, # of connection points: 2
#     Edge 103, Type (0, 1), BuildingBlock: XUDNAN_clean_linker_2, # of connection points: 2
#     Edge 104, Type (0, 1), BuildingBlock: XUDNAN_clean_linker_2, # of connection points: 2
#     Edge 105, Type (0, 1), BuildingBlock: XUDNAN_clean_linker_2, # of connection points: 2
#     Edge 106, Type (0, 1), BuildingBlock: XUDNAN_clean_linker_2, # of connection points: 2
#     Edge 107, Type (0, 1), BuildingBlock: XUDNAN_clean_linker_2, # of connection points: 2
#     Edge 108, Type (0, 1), BuildingBlock: XUDNAN_clean_linker_2, # of connection points: 2
#     Edge 109, Type (0, 1), BuildingBlock: XUDNAN_clean_linker_2, # of connection points: 2
#     Edge 110, Type (0, 1), BuildingBlock: XUDNAN_clean_linker_2, # of connection points: 2
#     Edge 111, Type (0, 1), BuildingBlock: XUDNAN_clean_linker_2, # of connection points: 2
#     Edge 112, Type (0, 1), BuildingBlock: XUDNAN_clean_linker_2, # of connection points: 2
#     Edge 113, Type (0, 1), BuildingBlock: XUDNAN_clean_linker_2, # of connection points: 2
#     Edge 114, Type (0, 1), BuildingBlock: XUDNAN_clean_linker_2, # of connection points: 2
#     Edge 115, Type (0, 1), BuildingBlock: XUDNAN_clean_linker_2, # of connection points: 2
#     Edge 116, Type (0, 1), BuildingBlock: XUDNAN_clean_linker_2, # of connection points: 2
#     Edge 117, Type (0, 1), BuildingBlock: XUDNAN_clean_linker_2, # of connection points: 2
#     Edge 118, Type (0, 1), BuildingBlock: XUDNAN_clean_linker_2, # of connection points: 2
#     Edge 119, Type (0, 1), BuildingBlock: XUDNAN_clean_linker_2, # of connection points: 2
#     Edge 120, Type (0, 1), BuildingBlock: XUDNAN_clean_linker_2, # of connection points: 2
#     Edge 121, Type (0, 1), BuildingBlock: XUDNAN_clean_linker_2, # of connection points: 2
#     Edge 122, Type (0, 1), BuildingBlock: XUDNAN_clean_linker_2, # of connection points: 2
#     Edge 123, Type (0, 1), BuildingBlock: XUDNAN_clean_linker_2, # of connection points: 2
#     Edge 124, Type (0, 1), BuildingBlock: XUDNAN_clean_linker_2, # of connection points: 2
#     Edge 125, Type (0, 1), BuildingBlock: XUDNAN_clean_linker_2, # of connection points: 2
#     Edge 126, Type (0, 1), BuildingBlock: XUDNAN_clean_linker_2, # of connection points: 2
#     Edge 127, Type (0, 1), BuildingBlock: XUDNAN_clean_linker_2, # of connection points: 2
#     Edge 128, Type (0, 1), BuildingBlock: XUDNAN_clean_linker_2, # of connection points: 2
#     Edge 129, Type (0, 1), BuildingBlock: XUDNAN_clean_linker_2, # of connection points: 2
#     Edge 130, Type (0, 1), BuildingBlock: XUDNAN_clean_linker_2, # of connection points: 2
#     Edge 131, Type (0, 1), BuildingBlock: XUDNAN_clean_linker_2, # of connection points: 2
#     Edge 132, Type (0, 1), BuildingBlock: XUDNAN_clean_linker_2, # of connection points: 2
#     Edge 133, Type (0, 1), BuildingBlock: XUDNAN_clean_linker_2, # of connection points: 2
#     Edge 134, Type (0, 1), BuildingBlock: XUDNAN_clean_linker_2, # of connection points: 2
#     Edge 135, Type (0, 1), BuildingBlock: XUDNAN_clean_linker_2, # of connection points: 2
# Relax obj value: 0.182
# Max RMSD: 0.305
# Mean RMSD: 0.204
data_MOF--net-gar--node1-UXUYUI_clean_sbu_0--node2-PAMTUU_clean_sbu_0--edge1-XUDNAN_clean_linker_2
_symmetry_space_group_name_H-M    P1
_symmetry_Int_Tables_number       1
_symmetry_cell_setting            triclinic
loop_
_symmetry_equiv_pos_as_xyz
'x, y, z'
_cell_length_a     73.384736
_cell_length_b     68.842846
_cell_length_c     72.251138
_cell_angle_alpha  93.686569
_cell_angle_beta   93.449042
_cell_angle_gamma 105.68841
loop_
_atom_site_label
_atom_site_type_symbol
_atom_site_fract_x
_atom_site_fract_y
_atom_site_fract_z
_atom_type_partial_charge
Li0 Li 0.02292 0.27162 0.3749 0.0
Li1 Li 0.04599 0.29494 0.4016 0.0
Li2 Li 0.06405 0.27561 0.37533 0.0
Li3 Li 0.04181 0.25369 0.39962 0.0
C4 C 0.04965 0.3158 0.3693 0.0
N5 N 0.05598 0.35606 0.36267 0.0
C6 C 0.03583 0.32583 0.37272 0.0
C7 C 0.06671 0.32623 0.36255 0.0
C8 C 0.0393 0.34619 0.36928 0.0
C9 C 0.06963 0.34659 0.35926 0.0
C10 C 1.00421 0.2675 0.40665 0.0
C11 C 0.97437 0.24489 0.41314 0.0
N12 N 0.96609 0.26028 0.41202 0.0
C13 C 0.99543 0.2831 0.40558 0.0
C14 C 0.99363 0.24823 0.41044 0.0
C15 C 0.97613 0.27914 0.40833 0.0
C16 C 0.97988 0.25379 0.36168 0.0
N17 N 0.99496 0.27049 0.36074 0.0
C18 C 0.9722 0.28612 0.34503 0.0
C19 C 0.99106 0.28644 0.35222 0.0
C20 C 0.95622 0.26926 0.34627 0.0
C21 C 0.96095 0.25286 0.35465 0.0
H22 H 0.98229 0.24096 0.36831 0.0
H23 H 1.00251 0.2999 0.35115 0.0
C24 C 0.06006 0.34042 0.41416 0.0
N25 N 0.0473 0.32275 0.41773 0.0
C26 C 0.05995 0.35954 0.4229 0.0
C27 C 0.03429 0.34285 0.44008 0.0
C28 C 0.03471 0.32395 0.43082 0.0
C29 C 0.04677 0.36143 0.43604 0.0
H30 H 0.07023 0.33992 0.40404 0.0
H31 H 0.0245 0.31023 0.43394 0.0
C32 C 0.03718 0.23096 0.3652 0.0
N33 N 0.03238 0.1905 0.35473 0.0
C34 C 0.05233 0.22247 0.36781 0.0
C35 C 0.01961 0.21893 0.35723 0.0
C36 C 0.04961 0.20197 0.36244 0.0
C37 C 0.01747 0.19848 0.35202 0.0
C38 C 0.07946 0.27561 0.41652 0.0
C39 C 0.09169 0.26418 0.41129 0.0
C40 C 0.08094 0.28415 0.43481 0.0
C41 C 0.10523 0.26141 0.42454 0.0
C42 C 0.09468 0.28103 0.44765 0.0
N43 N 0.10643 0.26982 0.44229 0.0
C44 C 0.10792 0.2901 0.36643 0.0
C45 C 0.09052 0.26196 0.34702 0.0
C46 C 0.12519 0.28958 0.35797 0.0
N47 N 0.09059 0.27633 0.36114 0.0
C48 C 0.10738 0.26088 0.33832 0.0
C49 C 0.12563 0.2746 0.34361 0.0
H50 H 0.1087 0.30162 0.3776 0.0
H51 H 0.07726 0.25083 0.34237 0.0
C52 C 0.02717 0.20865 0.40749 0.0
N53 N 0.04029 0.2264 0.41407 0.0
C54 C 0.02605 0.18997 0.41552 0.0
C55 C 0.0514 0.20718 0.43791 0.0
C56 C 0.05217 0.22563 0.42933 0.0
C57 C 0.03836 0.18849 0.43102 0.0
H58 H 0.01739 0.20873 0.39572 0.0
H59 H 0.06259 0.23934 0.43503 0.0
O60 O 0.0467 0.296 0.37292 0.0
O61 O 0.0229 0.27087 0.40333 0.0
O62 O 0.03947 0.25088 0.37074 0.0
O63 O 0.06607 0.27839 0.40379 0.0
H64 H 0.02271 0.31805 0.37828 0.0
H65 H 0.07758 0.31868 0.35994 0.0
H66 H 0.02877 0.35418 0.37196 0.0
H67 H 0.08276 0.35487 0.35404 0.0
H68 H 0.96598 0.23005 0.41604 0.0
H69 H 1.00339 0.29802 0.40242 0.0
H70 H 1.00021 0.23597 0.41116 0.0
H71 H 0.96912 0.29104 0.40745 0.0
H72 H 0.97021 0.29941 0.33892 0.0
H73 H 0.95007 0.23897 0.35589 0.0
H74 H 0.07027 0.3729 0.41919 0.0
H75 H 0.02372 0.3429 0.44989 0.0
H76 H 0.06598 0.2316 0.37407 0.0
H77 H 0.00775 0.2253 0.35517 0.0
H78 H 0.06117 0.19516 0.36444 0.0
H79 H 1.00395 0.18895 0.34587 0.0
H80 H 0.09069 0.25747 0.39717 0.0
H81 H 0.07155 0.29305 0.43903 0.0
H82 H 0.11478 0.25256 0.42072 0.0
H83 H 0.09599 0.28752 0.46187 0.0
H84 H 0.13828 0.30071 0.36312 0.0
H85 H 0.10585 0.24909 0.32725 0.0
H86 H 0.01527 0.17666 0.40949 0.0
H87 H 0.06139 0.20758 0.44966 0.0
Li88 Li 0.0365 0.80767 0.649 0.0
Li89 Li 0.05288 0.78883 0.67453 0.0
Li90 Li 0.03063 0.76473 0.6486 0.0
Li91 Li 0.01394 0.78542 0.675 0.0
C92 C 0.07307 0.79162 0.6445 0.0
N93 N 0.1117 0.79782 0.64288 0.0
C94 C 0.0848 0.81108 0.64303 0.0
C95 C 0.08094 0.77529 0.64505 0.0
C96 C 0.10431 0.8139 0.64223 0.0
C97 C 0.10052 0.77875 0.64425 0.0
C98 C 0.04893 0.82637 0.68967 0.0
C99 C 0.05817 0.84286 0.72057 0.0
N100 N 0.07205 0.85727 0.71365 0.0
C101 C 0.06327 0.84132 0.68284 0.0
C102 C 0.04632 0.8271 0.70867 0.0
C103 C 0.07481 0.85683 0.69519 0.0
C104 C 0.03124 0.84939 0.64176 0.0
N105 N 0.03794 0.83436 0.63374 0.0
C106 C 0.04576 0.85555 0.60747 0.0
C107 C 0.04506 0.83743 0.61664 0.0
C108 C 0.03925 0.87153 0.61561 0.0
C109 C 0.03173 0.86761 0.63312 0.0
H110 H 0.02542 0.84739 0.65514 0.0
H111 H 0.05043 0.82585 0.60991 0.0
C112 C 0.08283 0.77053 0.69325 0.0
N113 N 0.08027 0.78884 0.68912 0.0
C114 C 0.10039 0.76853 0.70147 0.0
C115 C 0.11376 0.80408 0.70116 0.0
C116 C 0.09578 0.80548 0.69296 0.0
C117 C 0.11666 0.78535 0.70591 0.0
H118 H 0.07123 0.757 0.68986 0.0
H119 H 0.09451 0.82013 0.68948 0.0
C120 C 0.99548 0.77652 0.63473 0.0
N121 N 0.96248 0.7625 0.61165 0.0
C122 C 0.98365 0.75706 0.63594 0.0
C123 C 0.99061 0.78885 0.62177 0.0
C124 C 0.967 0.75026 0.62416 0.0
C125 C 0.97383 0.78148 0.61022 0.0
C126 C 0.03128 0.75398 0.69203 0.0
C127 C 0.02774 0.73293 0.69041 0.0
C128 C 0.03666 0.76472 0.70947 0.0
C129 C 0.02982 0.72296 0.70632 0.0
C130 C 0.03862 0.7542 0.72504 0.0
N131 N 0.03519 0.73371 0.72315 0.0
C132 C 0.03779 0.7233 0.63942 0.0
C133 C 0.0193 0.73193 0.61535 0.0
C134 C 0.03758 0.70483 0.62901 0.0
N135 N 0.02877 0.73678 0.63266 0.0
C136 C 0.01894 0.71377 0.60444 0.0
C137 C 0.02828 0.69962 0.61093 0.0
H138 H 0.04561 0.72693 0.65294 0.0
H139 H 0.01209 0.74229 0.60969 0.0
C140 C 0.98751 0.79971 0.70292 0.0
N141 N 0.98734 0.785 0.68908 0.0
C142 C 0.9708 0.80085 0.71187 0.0
C143 C 0.95286 0.77169 0.6929 0.0
C144 C 0.97 0.77103 0.68427 0.0
C145 C 0.95253 0.78695 0.70705 0.0
H146 H 1.00074 0.81103 0.70718 0.0
H147 H 0.96911 0.75915 0.67342 0.0
O148 O 0.05407 0.78869 0.64607 0.0
O149 O 0.03774 0.81092 0.6778 0.0
O150 O 0.01196 0.78331 0.64594 0.0
O151 O 0.02962 0.76411 0.67664 0.0
H152 H 0.0789 0.82387 0.64262 0.0
H153 H 0.07204 0.76018 0.64635 0.0
H154 H 0.11358 0.82889 0.64116 0.0
H155 H 0.10684 0.76628 0.64481 0.0
H156 H 0.05634 0.84362 0.73532 0.0
H157 H 0.06547 0.84092 0.66816 0.0
H158 H 0.03532 0.8156 0.71418 0.0
H159 H 0.08598 0.8685 0.69011 0.0
H160 H 0.05181 0.85713 0.59417 0.0
H161 H 0.02594 0.87855 0.64035 0.0
H162 H 0.10114 0.75344 0.70399 0.0
H163 H 0.12529 0.8178 0.70396 0.0
H164 H 0.98736 0.74731 0.64583 0.0
H165 H 0.99971 0.80392 0.62062 0.0
H166 H 0.95769 0.73523 0.62493 0.0
H167 H 0.96986 0.79084 0.60011 0.0
H168 H 0.0233 0.72438 0.67706 0.0
H169 H 0.03951 0.78102 0.71091 0.0
H170 H 0.02714 0.70667 0.70528 0.0
H171 H 0.04289 0.76232 0.73861 0.0
H172 H 0.04526 0.69501 0.63495 0.0
H173 H 0.01126 0.71092 0.59084 0.0
H174 H 0.97255 0.81284 0.72278 0.0
H175 H 0.93978 0.76035 0.68811 0.0
Li176 Li 0.51962 0.76979 0.87201 0.0
Li177 Li 0.54242 0.79368 0.89906 0.0
Li178 Li 0.55918 0.7736 0.87315 0.0
Li179 Li 0.53829 0.75102 0.89772 0.0
C180 C 0.54112 0.80951 0.86024 0.0
N181 N 0.53673 0.83963 0.83836 0.0
C182 C 0.53014 0.82223 0.86579 0.0
C183 C 0.54989 0.81208 0.84359 0.0
C184 C 0.5281 0.83738 0.85453 0.0
C185 C 0.54749 0.82741 0.83271 0.0
C186 C 0.50178 0.76782 0.90622 0.0
C187 C 0.47324 0.74919 0.91897 0.0
N188 N 0.46581 0.76512 0.91712 0.0
C189 C 0.49389 0.78401 0.90445 0.0
C190 C 0.49142 0.75025 0.91353 0.0
C191 C 0.47567 0.78235 0.91004 0.0
C192 C 0.47486 0.75742 0.86251 0.0
N193 N 0.49195 0.76939 0.85774 0.0
C194 C 0.47335 0.78452 0.83638 0.0
C195 C 0.49101 0.78258 0.84448 0.0
C196 C 0.45542 0.77288 0.84138 0.0
C197 C 0.4568 0.75885 0.8546 0.0
H198 H 0.47496 0.74684 0.87292 0.0
H199 H 0.50406 0.79207 0.84014 0.0
C200 C 0.55313 0.83993 0.91081 0.0
N201 N 0.54336 0.82104 0.9153 0.0
C202 C 0.55246 0.85807 0.92131 0.0
C203 C 0.53158 0.83763 0.94101 0.0
C204 C 0.53267 0.81998 0.93026 0.0
C205 C 0.54165 0.85742 0.93698 0.0
H206 H 0.56149 0.84115 0.89889 0.0
H207 H 0.52462 0.8053 0.9339 0.0
C208 C 0.53843 0.73449 0.85595 0.0
N209 N 0.54562 0.70756 0.82928 0.0
C210 C 0.55011 0.72226 0.86066 0.0
C211 C 0.53039 0.73306 0.83772 0.0
C212 C 0.55358 0.70873 0.84696 0.0
C213 C 0.53419 0.71933 0.82442 0.0
C214 C 0.57947 0.77725 0.90963 0.0
C215 C 0.58645 0.76028 0.90818 0.0
C216 C 0.59076 0.79539 0.91878 0.0
C217 C 0.60474 0.76178 0.91589 0.0
C218 C 0.60899 0.79627 0.92631 0.0
N219 N 0.61554 0.77959 0.92472 0.0
C220 C 0.6036 0.78483 0.86732 0.0
C221 C 0.58519 0.76487 0.84194 0.0
C222 C 0.62085 0.78469 0.85876 0.0
N223 N 0.58576 0.77483 0.85914 0.0
C224 C 0.60202 0.76442 0.83294 0.0
C225 C 0.62073 0.77415 0.84114 0.0
H226 H 0.60478 0.79299 0.88082 0.0
H227 H 0.57152 0.75697 0.83488 0.0
C228 C 0.52863 0.70514 0.90627 0.0
N229 N 0.53737 0.72477 0.91323 0.0
C230 C 0.52857 0.68806 0.91677 0.0
C231 C 0.54666 0.71096 0.94161 0.0
C232 C 0.54642 0.72751 0.93073 0.0
C233 C 0.5375 0.69048 0.93508 0.0
H234 H 0.52153 0.70246 0.89241 0.0
H235 H 0.55368 0.74274 0.93648 0.0
O236 O 0.54321 0.79452 0.87099 0.0
O237 O 0.51943 0.76901 0.90052 0.0
O238 O 0.53517 0.74809 0.86906 0.0
O239 O 0.5617 0.77614 0.902 0.0
H240 H 0.52318 0.82035 0.8786 0.0
H241 H 0.55841 0.80231 0.83912 0.0
H242 H 0.51961 0.84733 0.85863 0.0
H243 H 0.55416 0.82957 0.81976 0.0
H244 H 0.46503 0.73568 0.92463 0.0
H245 H 0.5017 0.79765 0.8987 0.0
H246 H 0.49734 0.73757 0.9149 0.0
H247 H 0.46935 0.79473 0.9087 0.0
H248 H 0.47394 0.79535 0.82607 0.0
H249 H 0.44395 0.74933 0.85937 0.0
H250 H 0.56064 0.87251 0.91725 0.0
H251 H 0.5225 0.83554 0.95238 0.0
H252 H 0.55648 0.72327 0.87471 0.0
H253 H 0.52138 0.74253 0.83388 0.0
H254 H 0.56262 0.69918 0.85037 0.0
H255 H 0.5281 0.71806 0.81024 0.0
H256 H 0.57785 0.74615 0.90111 0.0
H257 H 0.58552 0.80866 0.91997 0.0
H258 H 0.61036 0.74879 0.91485 0.0
H259 H 0.61793 0.81021 0.9334 0.0
H260 H 0.63429 0.79261 0.86625 0.0
H261 H 0.60006 0.75638 0.8193 0.0
H262 H 0.52118 0.67304 0.9106 0.0
H263 H 0.55432 0.71445 0.95521 0.0
Li264 Li 0.53913 0.30679 0.14808 0.0
Li265 Li 0.55631 0.28866 0.17374 0.0
Li266 Li 0.53434 0.26474 0.14751 0.0
Li267 Li 0.51674 0.28415 0.17417 0.0
C268 C 0.57664 0.29461 0.14347 0.0
N269 N 0.61546 0.30644 0.1411 0.0
C270 C 0.58594 0.31482 0.14136 0.0
C271 C 0.58704 0.28038 0.14426 0.0
C272 C 0.60558 0.32051 0.1402 0.0
C273 C 0.60667 0.28667 0.14309 0.0
C274 C 0.54983 0.32543 0.18962 0.0
C275 C 0.55468 0.34194 0.22068 0.0
N276 N 0.56947 0.35658 0.21534 0.0
C277 C 0.56505 0.34063 0.18443 0.0
C278 C 0.54457 0.32604 0.20787 0.0
C279 C 0.57481 0.35626 0.19764 0.0
C280 C 0.53445 0.34887 0.14182 0.0
N281 N 0.53996 0.33341 0.13304 0.0
C282 C 0.54578 0.35403 0.10618 0.0
C283 C 0.54548 0.33596 0.11527 0.0
C284 C 0.54048 0.37044 0.11508 0.0
C285 C 0.53456 0.36704 0.13328 0.0
H286 H 0.52987 0.34726 0.15573 0.0
H287 H 0.54987 0.324 0.10793 0.0
C288 C 0.58622 0.27135 0.19415 0.0
N289 N 0.58392 0.28921 0.18842 0.0
C290 C 0.60397 0.26948 0.20202 0.0
C291 C 0.61799 0.30435 0.19855 0.0
C292 C 0.59979 0.30565 0.19077 0.0
C293 C 0.62083 0.2859 0.20424 0.0
H294 H 0.57428 0.25799 0.19229 0.0
H295 H 0.59869 0.31995 0.18614 0.0
C296 C 0.50145 0.2747 0.13045 0.0
N297 N 0.47517 0.25881 0.10061 0.0
C298 C 0.48392 0.26141 0.13325 0.0
C299 C 0.50566 0.27991 0.11251 0.0
C300 C 0.47081 0.25354 0.11796 0.0
C301 C 0.49217 0.27171 0.09759 0.0
C302 C 0.5348 0.2532 0.19081 0.0
C303 C 0.53442 0.23278 0.18869 0.0
C304 C 0.53687 0.2631 0.20863 0.0
C305 C 0.53629 0.22259 0.20451 0.0
C306 C 0.53871 0.25239 0.22409 0.0
N307 N 0.53839 0.23253 0.22173 0.0
C308 C 0.54672 0.22751 0.13819 0.0
C309 C 0.52179 0.22783 0.11644 0.0
C310 C 0.54814 0.20891 0.1295 0.0
N311 N 0.53364 0.23692 0.13188 0.0
C312 C 0.52273 0.20901 0.10728 0.0
C313 C 0.53595 0.19877 0.11378 0.0
H314 H 0.55624 0.23437 0.15028 0.0
H315 H 0.51135 0.23498 0.11112 0.0
C316 C 0.48788 0.30089 0.1968 0.0
N317 N 0.49023 0.28329 0.18853 0.0
C318 C 0.4711 0.30171 0.20578 0.0
C319 C 0.45812 0.2664 0.19796 0.0
C320 C 0.47528 0.26618 0.18913 0.0
C321 C 0.45541 0.28435 0.20686 0.0
H322 H 0.49908 0.31478 0.19643 0.0
H323 H 0.47639 0.25197 0.18267 0.0
O324 O 0.55752 0.28894 0.14526 0.0
O325 O 0.54028 0.30989 0.17694 0.0
O326 O 0.51459 0.28232 0.14516 0.0
O327 O 0.53324 0.26356 0.17555 0.0
H328 H 0.57808 0.32602 0.14072 0.0
H329 H 0.5801 0.26471 0.14603 0.0
H330 H 0.61298 0.33612 0.13863 0.0
H331 H 0.61493 0.27585 0.14383 0.0
H332 H 0.55079 0.34262 0.23486 0.0
H333 H 0.56927 0.34034 0.17034 0.0
H334 H 0.53281 0.31437 0.21209 0.0
H335 H 0.58664 0.36812 0.19384 0.0
H336 H 0.55057 0.35521 0.09231 0.0
H337 H 0.52976 0.37836 0.14114 0.0
H338 H 0.60425 0.2548 0.20631 0.0
H339 H 0.62993 0.31776 0.19955 0.0
H340 H 0.48053 0.25717 0.14706 0.0
H341 H 0.51924 0.2901 0.11015 0.0
H342 H 0.45718 0.24322 0.1199 0.0
H343 H 0.49522 0.27559 0.08362 0.0
H344 H 0.53265 0.22486 0.175 0.0
H345 H 0.53719 0.27891 0.21046 0.0
H346 H 0.53605 0.20679 0.20309 0.0
H347 H 0.5404 0.25987 0.23797 0.0
H348 H 0.55905 0.20263 0.13523 0.0
H349 H 0.51282 0.20235 0.09539 0.0
H350 H 0.47052 0.31635 0.21165 0.0
H351 H 0.44712 0.25229 0.19798 0.0
Li352 Li 0.08146 0.81636 0.1126 0.0
Li353 Li 0.09886 0.8005 0.13587 0.0
Li354 Li 0.07541 0.77942 0.1116 0.0
Li355 Li 0.06327 0.79675 0.1368 0.0
C356 C 0.11234 0.81218 0.09812 0.0
N357 N 0.13701 0.83824 0.07752 0.0
C358 C 0.12828 0.82646 0.10699 0.0
C359 C 0.10896 0.81108 0.0788 0.0
C360 C 0.14058 0.83952 0.09632 0.0
C361 C 0.1216 0.82441 0.06862 0.0
C362 C 0.08803 0.83025 0.15831 0.0
C363 C 0.09002 0.82645 0.19125 0.0
N364 N 0.09281 0.84675 0.19473 0.0
C365 C 0.09087 0.85104 0.16219 0.0
C366 C 0.08755 0.81782 0.17293 0.0
C367 C 0.09329 0.8591 0.18071 0.0
C368 C 0.06771 0.84184 0.08785 0.0
N369 N 0.08242 0.84109 0.09999 0.0
C370 C 0.09667 0.87669 0.0983 0.0
C371 C 0.09675 0.85812 0.10527 0.0
C372 C 0.08159 0.87805 0.08587 0.0
C373 C 0.06702 0.86015 0.08062 0.0
H374 H 0.0562 0.82831 0.0841 0.0
H375 H 0.10802 0.85745 0.11535 0.0
C376 C 0.12856 0.78413 0.14536 0.0
N377 N 0.12251 0.80068 0.14993 0.0
C378 C 0.14406 0.78059 0.15544 0.0
C379 C 0.14804 0.81206 0.17402 0.0
C380 C 0.1322 0.81489 0.16366 0.0
C381 C 0.15381 0.79441 0.17028 0.0
H382 H 0.121 0.77334 0.13408 0.0
H383 H 0.12744 0.82817 0.16694 0.0
C384 C 0.04331 0.78446 0.0962 0.0
N385 N 0.01688 0.76161 0.06888 0.0
C386 C 0.02524 0.77399 0.10077 0.0
C387 C 0.04791 0.78346 0.07775 0.0
C388 C 0.01208 0.7625 0.08675 0.0
C389 C 0.03436 0.77177 0.06413 0.0
C390 C 0.06892 0.75605 0.14047 0.0
C391 C 0.04914 0.74871 0.13945 0.0
C392 C 0.08005 0.74262 0.14247 0.0
C393 C 0.04081 0.72804 0.14041 0.0
C394 C 0.07118 0.72204 0.14331 0.0
N395 N 0.05191 0.71523 0.14227 0.0
C396 C 0.08785 0.74918 0.09188 0.0
C397 C 0.05481 0.73848 0.09483 0.0
C398 C 0.08767 0.72969 0.08476 0.0
N399 N 0.07167 0.75321 0.09711 0.0
C400 C 0.05398 0.71871 0.08777 0.0
C401 C 0.07067 0.71389 0.08308 0.0
H402 H 0.10117 0.76092 0.09401 0.0
H403 H 0.04211 0.74166 0.09943 0.0
C404 C 0.03137 0.80865 0.14592 0.0
N405 N 0.04284 0.79751 0.15212 0.0
C406 C 0.0162 0.81077 0.1559 0.0
C407 C 0.02476 0.78981 0.17858 0.0
C408 C 0.03988 0.78814 0.16814 0.0
C409 C 0.01274 0.80138 0.17255 0.0
H410 H 0.03405 0.81595 0.13315 0.0
H411 H 0.04928 0.77947 0.17287 0.0
O412 O 0.0999 0.79957 0.10834 0.0
O413 O 0.08545 0.82212 0.14027 0.0
O414 O 0.05642 0.79571 0.10973 0.0
O415 O 0.0773 0.77621 0.13918 0.0
H416 H 0.131 0.82761 0.12196 0.0
H417 H 0.09669 0.80007 0.07175 0.0
H418 H 0.15294 0.85072 0.10299 0.0
H419 H 0.11915 0.82377 0.05365 0.0
H420 H 0.08971 0.81703 0.20271 0.0
H421 H 0.0912 0.86084 0.151 0.0
H422 H 0.08537 0.80169 0.17017 0.0
H423 H 0.09553 0.87518 0.18393 0.0
H424 H 0.1081 0.89001 0.10311 0.0
H425 H 0.05516 0.86024 0.071 0.0
H426 H 0.14815 0.76692 0.1519 0.0
H427 H 0.15514 0.82309 0.18535 0.0
H428 H 0.02145 0.77467 0.115 0.0
H429 H 0.06182 0.79155 0.07402 0.0
H430 H 0.99806 0.75425 0.09007 0.0
H431 H 0.03774 0.77077 0.0498 0.0
H432 H 0.04028 0.75879 0.13759 0.0
H433 H 0.09536 0.74797 0.1433 0.0
H434 H 0.02551 0.72216 0.13952 0.0
H435 H 0.07962 0.71147 0.14477 0.0
H436 H 0.10089 0.72695 0.08105 0.0
H437 H 0.04057 0.70711 0.08695 0.0
H438 H 1.00719 0.81958 0.15053 0.0
H439 H 0.02276 0.78246 0.1914 0.0
Li440 Li 0.51315 0.78657 0.4357 0.0
Li441 Li 0.49154 0.76507 0.40908 0.0
Li442 Li 0.51015 0.74885 0.43355 0.0
Li443 Li 0.52664 0.77063 0.41084 0.0
C444 C 0.48218 0.76853 0.45254 0.0
N445 N 0.46805 0.78096 0.4844 0.0
C446 C 0.46595 0.77544 0.45126 0.0
C447 C 0.49118 0.76782 0.46998 0.0
C448 C 0.45904 0.78169 0.46755 0.0
C449 C 0.48382 0.7742 0.48594 0.0
C450 C 0.52177 0.80392 0.39764 0.0
C451 C 0.52942 0.81348 0.36694 0.0
N452 N 0.54318 0.82998 0.37464 0.0
C453 C 0.5359 0.82102 0.40528 0.0
C454 C 0.5184 0.80014 0.37834 0.0
C455 C 0.5466 0.834 0.39341 0.0
C456 C 0.52933 0.82164 0.46322 0.0
N457 N 0.51454 0.81166 0.45077 0.0
C458 C 0.49953 0.8383 0.45579 0.0
C459 C 0.49992 0.81978 0.44687 0.0
C460 C 0.5145 0.84902 0.46876 0.0
C461 C 0.52962 0.84045 0.47235 0.0
H462 H 0.54101 0.81516 0.46589 0.0
H463 H 0.48859 0.81194 0.43656 0.0
C464 C 0.45669 0.74813 0.38352 0.0
N465 N 0.4682 0.76437 0.39424 0.0
C466 C 0.4401 0.74978 0.37361 0.0
C467 C 0.44748 0.78463 0.38603 0.0
C468 C 0.46392 0.78241 0.39545 0.0
C469 C 0.43517 0.76819 0.37501 0.0
H470 H 0.46025 0.73386 0.38276 0.0
H471 H 0.47326 0.79513 0.40396 0.0
C472 C 0.5493 0.76622 0.44235 0.0
N473 N 0.58153 0.75382 0.4501 0.0
C474 C 0.55218 0.74958 0.43204 0.0
C475 C 0.56285 0.77663 0.45655 0.0
C476 C 0.56855 0.74352 0.43618 0.0
C477 C 0.57904 0.7701 0.46027 0.0
C478 C 0.50684 0.7328 0.38992 0.0
C479 C 0.51404 0.71602 0.391 0.0
C480 C 0.5 0.73723 0.37267 0.0
C481 C 0.51446 0.70409 0.37473 0.0
C482 C 0.50065 0.72491 0.35673 0.0
N483 N 0.50782 0.70874 0.35808 0.0
C484 C 0.49737 0.70635 0.43764 0.0
C485 C 0.52273 0.72295 0.45973 0.0
C486 C 0.49822 0.6874 0.44315 0.0
N487 N 0.50981 0.72371 0.44559 0.0
C488 C 0.52427 0.70424 0.46549 0.0
C489 C 0.51225 0.68594 0.45684 0.0
H490 H 0.48716 0.70714 0.42648 0.0
H491 H 0.53246 0.73681 0.4661 0.0
C492 C 0.56474 0.78968 0.40491 0.0
N493 N 0.54929 0.77517 0.39691 0.0
C494 C 0.58239 0.79274 0.39753 0.0
C495 C 0.56801 0.76637 0.37329 0.0
C496 C 0.5506 0.76386 0.38112 0.0
C497 C 0.58435 0.78071 0.3817 0.0
H498 H 0.56348 0.79858 0.41742 0.0
H499 H 0.53838 0.75246 0.37476 0.0
O500 O 0.48947 0.76284 0.43679 0.0
O501 O 0.51148 0.79078 0.40903 0.0
O502 O 0.53351 0.77262 0.43833 0.0
O503 O 0.50607 0.74452 0.4057 0.0
H504 H 0.45888 0.77611 0.43783 0.0
H505 H 0.50381 0.76256 0.47115 0.0
H506 H 0.44654 0.78717 0.46679 0.0
H507 H 0.49067 0.77383 0.49954 0.0
H508 H 0.52704 0.81071 0.35196 0.0
H509 H 0.5387 0.8241 0.42021 0.0
H510 H 0.50747 0.78699 0.37224 0.0
H511 H 0.55766 0.84723 0.39911 0.0
H512 H 0.48773 0.84438 0.45225 0.0
H513 H 0.54146 0.8481 0.48224 0.0
H514 H 0.43096 0.73667 0.36541 0.0
H515 H 0.44441 0.79916 0.38742 0.0
H516 H 0.5419 0.74148 0.42092 0.0
H517 H 0.56088 0.78962 0.46459 0.0
H518 H 0.57094 0.73066 0.4283 0.0
H519 H 0.58965 0.77799 0.47124 0.0
H520 H 0.51922 0.71223 0.40424 0.0
H521 H 0.49441 0.75015 0.37159 0.0
H522 H 0.52004 0.6911 0.37535 0.0
H523 H 0.49548 0.72821 0.34329 0.0
H524 H 0.48811 0.67399 0.43636 0.0
H525 H 0.53535 0.7042 0.47605 0.0
H526 H 0.59443 0.80429 0.40434 0.0
H527 H 0.56875 0.75661 0.36116 0.0
Li528 Li 0.58079 0.31786 0.619 0.0
Li529 Li 0.59908 0.30318 0.64086 0.0
Li530 Li 0.57932 0.28037 0.61609 0.0
Li531 Li 0.56442 0.29526 0.6428 0.0
C532 C 0.6053 0.30659 0.59526 0.0
N533 N 0.61244 0.31112 0.55845 0.0
C534 C 0.62368 0.31569 0.59059 0.0
C535 C 0.59054 0.29979 0.58123 0.0
C536 C 0.62701 0.31785 0.5719 0.0
C537 C 0.59444 0.30221 0.5627 0.0
C538 C 0.59496 0.34118 0.65247 0.0
C539 C 0.60264 0.37175 0.67304 0.0
N540 N 0.61801 0.37956 0.66351 0.0
C541 C 0.61083 0.34949 0.64287 0.0
C542 C 0.5908 0.35236 0.66767 0.0
C543 C 0.62231 0.36892 0.64866 0.0
C544 C 0.56254 0.34778 0.61339 0.0
N545 N 0.57734 0.34167 0.60706 0.0
C546 C 0.58333 0.36859 0.58653 0.0
C547 C 0.58791 0.35188 0.59401 0.0
C548 C 0.56769 0.37483 0.59248 0.0
C549 C 0.55753 0.36427 0.60637 0.0
H550 H 0.55446 0.33966 0.62391 0.0
H551 H 0.59978 0.34702 0.58923 0.0
C552 C 0.63808 0.30289 0.64901 0.0
N553 N 0.62279 0.30718 0.65631 0.0
C554 C 0.65469 0.30432 0.66039 0.0
C555 C 0.63954 0.31454 0.68658 0.0
C556 C 0.6233 0.31298 0.67472 0.0
C557 C 0.65566 0.31024 0.67953 0.0
H558 H 0.63731 0.2981 0.63436 0.0
H559 H 0.61089 0.31598 0.68031 0.0
C560 C 0.54148 0.28642 0.60512 0.0
N561 N 0.50712 0.27129 0.58429 0.0
C562 C 0.52781 0.2699 0.61069 0.0
C563 C 0.53764 0.29536 0.58905 0.0
C564 C 0.51053 0.26244 0.59994 0.0
C565 C 0.52019 0.28745 0.57868 0.0
C566 C 0.5903 0.26766 0.65484 0.0
C567 C 0.60301 0.25756 0.64808 0.0
C568 C 0.58831 0.26946 0.67394 0.0
C569 C 0.61369 0.24956 0.66063 0.0
C570 C 0.59924 0.26123 0.68603 0.0
N571 N 0.61161 0.25156 0.67918 0.0
C572 C 0.59126 0.25195 0.59169 0.0
C573 C 0.56109 0.23897 0.60285 0.0
C574 C 0.59082 0.23268 0.58374 0.0
N575 N 0.57659 0.25478 0.60119 0.0
C576 C 0.56006 0.21941 0.5951 0.0
C577 C 0.57527 0.21589 0.58573 0.0
H578 H 0.60374 0.26445 0.59095 0.0
H579 H 0.54987 0.24128 0.61099 0.0
C580 C 0.53357 0.30481 0.65987 0.0
N581 N 0.54267 0.29018 0.65719 0.0
C582 C 0.51664 0.30081 0.66877 0.0
C583 C 0.51894 0.26688 0.67225 0.0
C584 C 0.53584 0.27156 0.66338 0.0
C585 C 0.5089 0.28149 0.67482 0.0
H586 H 0.53921 0.31945 0.65466 0.0
H587 H 0.54327 0.26014 0.66096 0.0
O588 O 0.60185 0.30471 0.61355 0.0
O589 O 0.58349 0.32218 0.64708 0.0
O590 O 0.5584 0.2941 0.61553 0.0
O591 O 0.58018 0.27615 0.64285 0.0
H592 H 0.63524 0.32111 0.60132 0.0
H593 H 0.57627 0.2926 0.58455 0.0
H594 H 0.64117 0.3249 0.56807 0.0
H595 H 0.58315 0.29699 0.55169 0.0
H596 H 0.5996 0.38059 0.68479 0.0
H597 H 0.61428 0.34106 0.63106 0.0
H598 H 0.57854 0.34611 0.67523 0.0
H599 H 0.63464 0.37555 0.64136 0.0
H600 H 0.59159 0.37615 0.57584 0.0
H601 H 0.54563 0.36863 0.61178 0.0
H602 H 0.6667 0.301 0.6542 0.0
H603 H 0.63929 0.31874 0.70124 0.0
H604 H 0.53051 0.26289 0.62315 0.0
H605 H 0.54802 0.30827 0.58463 0.0
H606 H 0.49984 0.24963 0.60406 0.0
H607 H 0.51703 0.29419 0.56618 0.0
H608 H 0.60477 0.25615 0.63334 0.0
H609 H 0.5786 0.27735 0.67936 0.0
H610 H 0.62368 0.24182 0.65563 0.0
H611 H 0.59795 0.26261 0.70086 0.0
H612 H 0.60284 0.23089 0.5765 0.0
H613 H 0.54791 0.20702 0.59732 0.0
H614 H 0.50934 0.31247 0.67027 0.0
H615 H 0.51369 0.25187 0.67687 0.0
Li616 Li 0.01003 0.28361 0.9333 0.0
Li617 Li 0.98855 0.26052 0.90928 0.0
Li618 Li 1.00704 0.24562 0.93264 0.0
Li619 Li 0.02267 0.26606 0.90803 0.0
C620 C 0.9843 0.26102 0.95587 0.0
N621 N 0.97872 0.26125 0.99339 0.0
C622 C 0.96688 0.26215 0.96202 0.0
C623 C 0.99887 0.25998 0.96885 0.0
C624 C 0.96435 0.26228 0.98103 0.0
C625 C 0.99577 0.26009 0.98774 0.0
C626 C 0.99747 0.29529 0.89537 0.0
C627 C 0.98621 0.30262 0.86526 0.0
N628 N 0.97473 0.31245 0.87362 0.0
C629 C 0.98551 0.30543 0.90366 0.0
C630 C 0.99779 0.29381 0.87601 0.0
C631 C 0.97415 0.31402 0.89242 0.0
C632 C 0.02195 0.32628 0.9367 0.0
N633 N 0.01422 0.31049 0.94683 0.0
C634 C 0.00932 0.33385 0.97104 0.0
C635 C 0.00824 0.314 0.96394 0.0
C636 C 0.01639 0.35018 0.96035 0.0
C637 C 0.023 0.34621 0.94311 0.0
H638 H 0.02652 0.32336 0.9231 0.0
H639 H 1.00195 0.30147 0.97185 0.0
C640 C 0.96149 0.25248 0.87633 0.0
N641 N 0.96416 0.25726 0.89509 0.0
C642 C 0.94436 0.25238 0.86647 0.0
C643 C 0.93282 0.26162 0.89537 0.0
C644 C 0.95019 0.26178 0.90461 0.0
C645 C 0.92968 0.25695 0.876 0.0
H646 H 0.97278 0.24918 0.86891 0.0
H647 H 0.95271 0.26601 0.91939 0.0
C648 C 0.04741 0.28185 0.94187 0.0
N649 N 0.08172 0.30839 0.95548 0.0
C650 C 0.05542 0.29883 0.93248 0.0
C651 C 0.05682 0.27834 0.95818 0.0
C652 C 0.07279 0.31208 0.93958 0.0
C653 C 0.07417 0.29194 0.96483 0.0
C654 C 0.00895 0.22917 0.89156 0.0
C655 C 0.01558 0.21264 0.89585 0.0
C656 C 0.00954 0.23524 0.87346 0.0
C657 C 0.02285 0.20254 0.88195 0.0
C658 C 0.01696 0.22477 0.85997 0.0
N659 N 0.02341 0.20878 0.86445 0.0
C660 C 0.99069 0.2085 0.94961 0.0
C661 C 0.02415 0.21714 0.94983 0.0
C662 C 0.99041 0.19008 0.95706 0.0
N663 N 1.00738 0.22155 0.94591 0.0
C664 C 0.02451 0.19883 0.95726 0.0
C665 C 1.00744 0.1847 0.96071 0.0
H666 H 0.97749 0.21218 0.94635 0.0
H667 H 0.03726 0.22754 0.94658 0.0
C668 C 0.04755 0.28438 0.88129 0.0
N669 N 0.04394 0.2691 0.89272 0.0
C670 C 0.06262 0.28695 0.8699 0.0
C671 C 0.07055 0.25843 0.88262 0.0
C672 C 0.05529 0.25642 0.89382 0.0
C673 C 0.07428 0.27374 0.87025 0.0
H674 H 0.03882 0.29474 0.88112 0.0
H675 H 0.05239 0.24462 0.90329 0.0
O676 O 0.98692 0.26075 0.93726 0.0
O677 O 0.00825 0.28622 0.90614 0.0
O678 O 0.03036 0.26876 0.93528 0.0
O679 O 1.00206 0.23944 0.90505 0.0
H680 H 0.95541 0.26292 0.95222 0.0
H681 H 0.01248 0.25918 0.96448 0.0
H682 H 0.95095 0.26318 0.98597 0.0
H683 H 1.00693 0.25931 0.99791 0.0
H684 H 0.98626 0.30151 0.85026 0.0
H685 H 0.98472 0.30631 0.91858 0.0
H686 H 1.00661 0.28565 0.8693 0.0
H687 H 0.96477 0.32182 0.89865 0.0
H688 H 1.00386 0.33631 0.98433 0.0
H689 H 0.0284 0.35839 0.9344 0.0
H690 H 0.94256 0.24858 0.85157 0.0
H691 H 0.92208 0.26554 0.9033 0.0
H692 H 0.04829 0.3018 0.91989 0.0
H693 H 0.05075 0.26526 0.96562 0.0
H694 H 0.07915 0.3253 0.93246 0.0
H695 H 0.08161 0.28943 0.97745 0.0
H696 H 0.01515 0.20769 0.90975 0.0
H697 H 1.00473 0.24817 0.86998 0.0
H698 H 0.02808 0.18976 0.88508 0.0
H699 H 0.01768 0.22943 0.84595 0.0
H700 H 0.97687 0.18004 0.95975 0.0
H701 H 0.03801 0.19547 0.95957 0.0
H702 H 0.0652 0.29932 0.86099 0.0
H703 H 0.07908 0.24785 0.88338 0.0
Li704 Li 0.44771 0.03447 0.32181 0.0
Li705 Li 0.41954 0.01603 0.30239 0.0
Li706 Li 0.44841 0.03293 0.2885 0.0
Li707 Li 0.42863 0.05197 0.3053 0.0
C708 C 0.4429 0.99276 0.31323 0.0
N709 N 0.43903 0.95779 0.33124 0.0
C710 C 0.43395 0.99052 0.32984 0.0
C711 C 0.44985 0.97718 0.30581 0.0
C712 C 0.43214 0.97274 0.33872 0.0
C713 C 0.44777 0.95963 0.31512 0.0
C714 C 0.40829 0.04067 0.33488 0.0
C715 C 0.37848 0.04914 0.33545 0.0
N716 N 0.38262 0.05557 0.3538 0.0
C717 C 0.41214 0.04715 0.3538 0.0
C718 C 0.39123 0.04146 0.32569 0.0
C719 C 0.39901 0.0547 0.3631 0.0
C720 C 0.46588 0.05228 0.35636 0.0
N721 N 0.46452 0.03683 0.34321 0.0
C722 C 0.49036 0.02799 0.35878 0.0
C723 C 0.47658 0.02493 0.34398 0.0
C724 C 0.49201 0.04376 0.37259 0.0
C725 C 0.47967 0.05609 0.37127 0.0
H726 H 0.45664 0.06203 0.35493 0.0
H727 H 0.47586 0.01341 0.33289 0.0
C728 C 0.39856 0.97889 0.28449 0.0
N729 N 0.39867 0.99239 0.29908 0.0
C730 C 0.38314 0.96187 0.28041 0.0
C731 C 0.36885 0.97208 0.30734 0.0
C732 C 0.38443 0.98916 0.31069 0.0
C733 C 0.36799 0.95844 0.29182 0.0
H734 H 0.41043 0.98146 0.27592 0.0
H735 H 0.38513 0.99977 0.32255 0.0
C736 C 0.47384 0.06789 0.31416 0.0
N737 N 0.50901 0.08866 0.33129 0.0
C738 C 0.47615 0.0863 0.32464 0.0
C739 C 0.48943 0.06013 0.31224 0.0
C740 C 0.49405 0.09655 0.33323 0.0
C741 C 0.50709 0.07084 0.32105 0.0
C742 C 0.40897 0.02357 0.26779 0.0
C743 C 0.41461 0.01315 0.25292 0.0
C744 C 0.38985 0.02311 0.26835 0.0
C745 C 0.40095 1.00203 0.23912 0.0
C746 C 0.37661 0.01179 0.2543 0.0
N747 N 0.38239 1.00155 0.24011 0.0
C748 C 0.46755 0.01475 0.26369 0.0
C749 C 0.47516 0.05055 0.26402 0.0
C750 C 0.48126 0.01413 0.25133 0.0
N751 N 0.4649 0.03276 0.2698 0.0
C752 C 0.48906 0.05065 0.25166 0.0
C753 C 0.49236 0.03227 0.24533 0.0
H754 H 0.45911 1.00091 0.26858 0.0
H755 H 0.47285 0.06465 0.2694 0.0
C756 C 0.42082 0.08683 0.3218 0.0
N757 N 0.41941 0.07489 0.30575 0.0
C758 C 0.41098 0.10153 0.32284 0.0
C759 C 0.39978 0.09234 0.29042 0.0
C760 C 0.40963 0.0777 0.29008 0.0
C761 C 0.39984 0.10401 0.30713 0.0
H762 H 0.42876 0.08419 0.33403 0.0
H763 H 0.40895 0.06807 0.27749 0.0
O764 O 0.44467 0.00992 0.30408 0.0
O765 O 0.42115 0.03358 0.32547 0.0
O766 O 0.45633 0.05737 0.30608 0.0
O767 O 0.42214 0.03434 0.28156 0.0
H768 H 0.42847 1.00232 0.33589 0.0
H769 H 0.45681 0.97859 0.293 0.0
H770 H 0.42526 0.97083 0.35157 0.0
H771 H 0.4531 0.94747 0.30952 0.0
H772 H 0.36532 0.05 0.32844 0.0
H773 H 0.42506 0.04626 0.36127 0.0
H774 H 0.38796 0.03636 0.31113 0.0
H775 H 0.40186 0.05984 0.37772 0.0
H776 H 0.49982 0.01833 0.35932 0.0
H777 H 0.48054 0.06836 0.38175 0.0
H778 H 0.38317 0.95135 0.2686 0.0
H779 H 0.35749 0.96972 0.31656 0.0
H780 H 0.46422 0.09249 0.32627 0.0
H781 H 0.48784 0.04581 0.3043 0.0
H782 H 0.49604 0.11076 0.34148 0.0
H783 H 0.51924 0.06493 0.31982 0.0
H784 H 0.42933 0.01347 0.25212 0.0
H785 H 0.38523 0.03138 0.2795 0.0
H786 H 0.40511 0.99376 0.22763 0.0
H787 H 0.36175 0.01118 0.25466 0.0
H788 H 0.48308 0.99962 0.24646 0.0
H789 H 0.4974 0.06496 0.24742 0.0
H790 H 0.41135 0.11014 0.33601 0.0
H791 H 0.39178 0.09413 0.27786 0.0
Li792 Li 0.29092 0.20832 0.54108 0.0
Li793 Li 0.30568 0.18347 0.52377 0.0
Li794 Li 0.2917 0.20709 0.50523 0.0
Li795 Li 0.27106 0.17994 0.52094 0.0
C796 C 0.32981 0.2246 0.53542 0.0
N797 N 0.3625 0.24607 0.5566 0.0
C798 C 0.33677 0.21606 0.55038 0.0
C799 C 0.33949 0.24403 0.53118 0.0
C800 C 0.35331 0.22717 0.56094 0.0
C801 C 0.35599 0.25465 0.54206 0.0
C802 C 0.27612 0.16453 0.55238 0.0
C803 C 0.26355 0.12939 0.55776 0.0
N804 N 0.25106 0.1345 0.569 0.0
C805 C 0.2632 0.16946 0.56401 0.0
C806 C 0.27634 0.14436 0.54922 0.0
C807 C 0.25063 0.15404 0.57227 0.0
C808 C 0.28328 0.23707 0.57036 0.0
N809 N 0.29235 0.22259 0.56653 0.0
C810 C 0.30029 0.2222 0.59949 0.0
C811 C 0.30093 0.21533 0.58079 0.0
C812 C 0.29045 0.2366 0.60392 0.0
C813 C 0.28219 0.24427 0.58887 0.0
H814 H 0.27626 0.24266 0.55916 0.0
H815 H 0.30766 0.20345 0.57777 0.0
C816 C 0.33746 0.17259 0.51019 0.0
N817 N 0.32615 0.17047 0.52458 0.0
C818 C 0.35294 0.16431 0.51026 0.0
C819 C 0.3448 0.15144 0.53984 0.0
C820 C 0.3295 0.16007 0.53924 0.0
C821 C 0.35694 0.15365 0.52529 0.0
H822 H 0.33455 0.18091 0.49868 0.0
H823 H 0.32048 0.15875 0.55066 0.0
C824 C 0.26807 0.22789 0.52139 0.0
N825 N 0.26404 0.26667 0.52185 0.0
C826 C 0.25035 0.23123 0.52359 0.0
C827 C 0.28374 0.24426 0.51935 0.0
C828 C 0.2486 0.25096 0.52382 0.0
C829 C 0.28141 0.26375 0.51963 0.0
C830 C 0.27861 0.1706 0.48383 0.0
C831 C 0.26186 0.1756 0.47879 0.0
C832 C 0.28611 0.15937 0.47107 0.0
C833 C 0.25284 0.16921 0.461 0.0
C834 C 0.27667 0.15325 0.45341 0.0
N835 N 0.26037 0.15826 0.44878 0.0
C836 C 0.31101 0.21889 0.47248 0.0
C837 C 0.28136 0.22617 0.47133 0.0
C838 C 0.31351 0.22406 0.45408 0.0
N839 N 0.29502 0.2197 0.48079 0.0
C840 C 0.28335 0.23161 0.45283 0.0
C841 C 0.29943 0.23016 0.44365 0.0
H842 H 0.32164 0.21346 0.47993 0.0
H843 H 0.26849 0.22634 0.47782 0.0
C844 C 0.23105 0.16524 0.52537 0.0
N845 N 0.24635 0.15993 0.5192 0.0
C846 C 0.21322 0.15094 0.52454 0.0
C847 C 0.22722 0.12587 0.51125 0.0
C848 C 0.24473 0.14064 0.51228 0.0
C849 C 0.21102 0.13089 0.51728 0.0
H850 H 0.23269 0.18062 0.53096 0.0
H851 H 0.25711 0.13667 0.50767 0.0
O852 O 0.3136 0.21404 0.52497 0.0
O853 O 0.28811 0.17932 0.5437 0.0
O854 O 0.26991 0.20863 0.52114 0.0
O855 O 0.28791 0.17707 0.50102 0.0
H856 H 0.32943 0.20106 0.55385 0.0
H857 H 0.3343 0.25082 0.5196 0.0
H858 H 0.35883 0.22076 0.57258 0.0
H859 H 0.36363 0.26971 0.53896 0.0
H860 H 0.26347 0.11369 0.55536 0.0
H861 H 0.2627 0.18498 0.56642 0.0
H862 H 0.28609 0.14028 0.54006 0.0
H863 H 0.24048 0.15761 0.58123 0.0
H864 H 0.30669 0.21553 0.61041 0.0
H865 H 0.27461 0.25554 0.59135 0.0
H866 H 0.36167 0.16621 0.49859 0.0
H867 H 0.34738 0.1436 0.55182 0.0
H868 H 0.23807 0.21872 0.52514 0.0
H869 H 0.29754 0.24201 0.51751 0.0
H870 H 0.23497 0.25378 0.52555 0.0
H871 H 0.29341 0.27655 0.51808 0.0
H872 H 0.25595 0.18445 0.48845 0.0
H873 H 0.29914 0.1555 0.47476 0.0
H874 H 0.23989 0.173 0.45689 0.0
H875 H 0.28231 0.14456 0.44337 0.0
H876 H 0.32632 0.2229 0.44796 0.0
H877 H 0.27196 0.236 0.44552 0.0
H878 H 0.20122 0.15567 0.5292 0.0
H879 H 0.22646 0.11061 0.50587 0.0
Li880 Li 0.16543 0.04553 0.81755 0.0
Li881 Li 0.14345 0.01922 0.83066 0.0
Li882 Li 0.17194 0.01364 0.81729 0.0
Li883 Li 0.14647 0.0187 0.79703 0.0
C884 C 0.17943 0.04512 0.85355 0.0
N885 N 0.19801 0.07346 0.88216 0.0
C886 C 0.16953 0.04986 0.86836 0.0
C887 C 0.19884 0.05459 0.85345 0.0
C888 C 0.17916 0.06427 0.88265 0.0
C889 C 0.20796 0.06894 0.86799 0.0
C890 C 0.13476 0.05679 0.81602 0.0
C891 C 0.12997 0.08714 0.80411 0.0
N892 N 0.13047 0.09534 0.82183 0.0
C893 C 0.13511 0.06549 0.83411 0.0
C894 C 0.13206 0.06766 0.80089 0.0
C895 C 0.13294 0.08499 0.83676 0.0
C896 C 0.18474 0.07884 0.80133 0.0
N897 N 0.17803 0.07375 0.81797 0.0
C898 C 0.19362 0.10701 0.83196 0.0
C899 C 0.18155 0.08761 0.83301 0.0
C900 C 0.20195 0.11188 0.8153 0.0
C901 C 0.19694 0.09785 0.79971 0.0
H902 H 0.18112 0.06788 0.78939 0.0
H903 H 0.1756 0.08348 0.84596 0.0
C904 C 0.1308 0.9992 0.86167 0.0
N905 N 0.12668 0.01144 0.849 0.0
C906 C 0.11912 0.99387 0.87609 0.0
C907 C 0.09895 0.01334 0.86362 0.0
C908 C 0.11089 0.0181 0.84937 0.0
C909 C 0.10326 1.0014 0.87735 0.0
H910 H 0.14342 0.99403 0.86079 0.0
H911 H 0.10777 0.0274 0.83879 0.0
C912 C 0.18074 0.0222 0.78228 0.0
N913 N 0.19542 1.004 0.75375 0.0
C914 C 0.17285 1.00167 0.77655 0.0
C915 C 0.1962 0.0334 0.77356 0.0
C916 C 0.18044 0.99277 0.76209 0.0
C917 C 0.20339 0.02395 0.75914 0.0
C918 C 0.12792 0.98176 0.81074 0.0
C919 C 0.1267 0.96111 0.80988 0.0
C920 C 0.11126 0.98796 0.80936 0.0
C921 C 0.10886 0.94699 0.80761 0.0
C922 C 0.09369 0.97337 0.80713 0.0
N923 N 0.09286 0.95336 0.8063 0.0
C924 C 0.18812 0.98076 0.81735 0.0
C925 C 0.20938 0.01359 0.81752 0.0
C926 C 0.20283 0.97193 0.81444 0.0
N927 N 0.19165 1.00121 0.81844 0.0
C928 C 0.2245 1.00545 0.81477 0.0
C929 C 0.22121 0.98435 0.81262 0.0
H930 H 0.17375 0.97136 0.81772 0.0
H931 H 0.21156 0.02977 0.81782 0.0
C932 C 0.13847 0.0298 0.76276 0.0
N933 N 0.1341 0.01337 0.77275 0.0
C934 C 0.12971 0.0291 0.74504 0.0
C935 C 0.11282 0.99411 0.74771 0.0
C936 C 0.12201 0.99549 0.76543 0.0
C937 C 0.11635 0.01123 0.73749 0.0
H938 H 0.14871 0.04355 0.7687 0.0
H939 H 0.11932 0.98233 0.77326 0.0
O940 O 0.17028 0.03083 0.83957 0.0
O941 O 0.13721 0.03783 0.81318 0.0
O942 O 0.17399 0.03122 0.79683 0.0
O943 O 0.14533 0.99572 0.8133 0.0
H944 H 0.15458 0.04249 0.86885 0.0
H945 H 0.20675 0.05112 0.84215 0.0
H946 H 0.17165 0.06814 0.89415 0.0
H947 H 0.22294 0.07652 0.86799 0.0
H948 H 0.12795 0.09574 0.79252 0.0
H949 H 0.1373 0.0574 0.84599 0.0
H950 H 0.13154 0.06116 0.7868 0.0
H951 H 0.13331 0.09194 0.85069 0.0
H952 H 0.19715 0.11767 0.84419 0.0
H953 H 0.20292 0.10135 0.78657 0.0
H954 H 0.12291 0.98478 0.88659 0.0
H955 H 0.08672 0.01926 0.86417 0.0
H956 H 0.16109 0.99259 0.78323 0.0
H957 H 0.20272 0.04921 0.77798 0.0
H958 H 0.17447 0.97691 0.75754 0.0
H959 H 0.21535 0.03245 0.75229 0.0
H960 H 0.13942 0.95603 0.81097 0.0
H961 H 0.11184 1.00382 0.80981 0.0
H962 H 0.10773 0.93096 0.80692 0.0
H963 H 0.08072 0.97797 0.80601 0.0
H964 H 0.19959 0.95558 0.81253 0.0
H965 H 0.23846 0.01555 0.81359 0.0
H966 H 0.1333 0.04245 0.73737 0.0
H967 H 0.10274 0.97999 0.74228 0.0
Li968 Li 0.27482 0.9343 1.00086 0.0
Li969 Li 0.28432 0.90666 0.01442 0.0
Li970 Li 0.30809 0.9335 0.00197 0.0
Li971 Li 0.28509 0.90829 0.98174 0.0
C972 C 0.299 0.95428 0.03238 0.0
N973 N 0.31319 0.99181 0.05176 0.0
C974 C 0.30371 0.95575 0.05154 0.0
C975 C 0.30158 0.97188 0.02305 0.0
C976 C 0.31084 0.97488 0.0611 0.0
C977 C 0.30876 0.99071 0.0331 0.0
C978 C 0.24906 0.89088 0.00473 0.0
C979 C 0.23481 0.8564 0.0113 0.0
N980 N 0.22327 0.86294 0.02278 0.0
C981 C 0.23697 0.89725 0.01646 0.0
C982 C 0.2479 0.87028 0.00201 0.0
C983 C 0.22405 0.8829 0.0255 0.0
C984 C 0.25372 0.95958 0.9872 0.0
N985 N 0.25897 0.95155 0.00266 0.0
C986 C 0.244 0.97101 0.02192 0.0
C987 C 0.25412 0.95669 0.01977 0.0
C988 C 0.23896 0.98012 0.00631 0.0
C989 C 0.24375 0.97415 0.98874 0.0
H990 H 0.25749 0.95485 0.97375 0.0
H991 H 0.25846 0.94994 0.03178 0.0
C992 C 0.29075 0.8771 0.03737 0.0
N993 N 0.28147 0.89154 0.03542 0.0
C994 C 0.29308 0.86998 0.05477 0.0
C995 C 0.27533 0.89194 0.06745 0.0
C996 C 0.27339 0.89865 0.04984 0.0
C997 C 0.28595 0.87804 0.07022 0.0
H998 H 0.2975 0.87218 0.02576 0.0
H999 H 0.26654 0.91055 0.04794 0.0
C1000 C 0.30331 0.94941 0.96818 0.0
N1001 N 0.32614 0.97199 0.94372 0.0
C1002 C 0.31853 0.94327 0.96156 0.0
C1003 C 0.29991 0.96728 0.9626 0.0
C1004 C 0.32986 0.95481 0.94915 0.0
C1005 C 0.31154 0.97842 0.95016 0.0
C1006 C 0.31323 0.89126 0.9899 0.0
C1007 C 0.33162 0.8983 0.98433 0.0
C1008 C 0.3032 0.87093 0.98577 0.0
C1009 C 0.33951 0.88496 0.97436 0.0
C1010 C 0.31157 0.85806 0.97575 0.0
N1011 N 0.3294 0.86529 0.97028 0.0
C1012 C 0.3429 0.94224 0.02102 0.0
C1013 C 0.3405 0.9682 0.00176 0.0
C1014 C 0.36106 0.95331 0.02808 0.0
N1015 N 0.33314 0.94972 0.00801 0.0
C1016 C 0.35876 0.97969 0.00825 0.0
C1017 C 0.36929 0.97226 0.0216 0.0
H1018 H 0.33636 0.92775 0.02613 0.0
H1019 H 0.33217 0.97423 0.99201 0.0
C1020 C 0.26128 0.88292 0.95318 0.0
N1021 N 0.27977 0.89294 0.95816 0.0
C1022 C 0.25617 0.87116 0.93625 0.0
C1023 C 0.28916 0.88062 0.92961 0.0
C1024 C 0.29364 0.89206 0.94672 0.0
C1025 C 0.27023 0.86991 0.92426 0.0
H1026 H 0.25048 0.88401 0.9624 0.0
H1027 H 0.30825 0.89988 0.95092 0.0
O1028 O 0.29224 0.93565 0.0228 0.0
O1029 O 0.26211 0.90474 0.9961 0.0
O1030 O 0.2922 0.93843 0.98054 0.0
O1031 O 0.30527 0.90412 0.99966 0.0
H1032 H 0.3019 0.94224 0.05893 0.0
H1033 H 0.2982 0.97101 0.00818 0.0
H1034 H 0.31453 0.97626 0.07594 0.0
H1035 H 0.31083 1.00446 0.02607 0.0
H1036 H 0.23382 0.84042 0.0094 0.0
H1037 H 0.23765 0.91312 0.01869 0.0
H1038 H 0.25705 0.86509 0.99286 0.0
H1039 H 0.21469 0.88763 0.03472 0.0
H1040 H 0.24055 0.97527 0.0357 0.0
H1041 H 0.23976 0.9806 0.97635 0.0
H1042 H 0.30155 0.85944 0.05634 0.0
H1043 H 0.26942 0.89835 0.07895 0.0
H1044 H 0.32192 0.93009 0.96641 0.0
H1045 H 0.28853 0.97263 0.96791 0.0
H1046 H 0.34171 0.95021 0.94397 0.0
H1047 H 0.30902 0.99224 0.94569 0.0
H1048 H 0.33971 0.91392 0.98762 0.0
H1049 H 0.28905 0.86517 0.99013 0.0
H1050 H 0.35368 0.89023 0.96986 0.0
H1051 H 0.3039 0.84233 0.97232 0.0
H1052 H 0.36845 0.94716 0.03865 0.0
H1053 H 0.36457 0.99414 0.00273 0.0
H1054 H 0.2414 0.86318 0.93254 0.0
H1055 H 0.30045 0.87975 0.92088 0.0
Li1056 Li 0.27567 0.37451 0.03292 0.0
Li1057 Li 0.29014 0.35389 0.05078 0.0
Li1058 Li 0.31123 0.38294 0.03675 0.0
Li1059 Li 0.29029 0.35191 0.01421 0.0
C1060 C 0.29501 0.38628 0.07471 0.0
N1061 N 0.29898 0.39078 0.11315 0.0
C1062 C 0.27897 0.38339 0.08482 0.0
C1063 C 0.31307 0.39156 0.08416 0.0
C1064 C 0.28127 0.38567 0.10425 0.0
C1065 C 0.31478 0.39378 0.10359 0.0
C1066 C 0.24928 0.33862 0.02912 0.0
C1067 C 0.21933 0.32277 0.01157 0.0
N1068 N 0.21006 0.32856 0.02576 0.0
C1069 C 0.23944 0.34418 0.04362 0.0
C1070 C 0.23915 0.32765 0.01304 0.0
C1071 C 0.21962 0.33905 0.04162 0.0
C1072 C 0.24141 0.38132 0.01621 0.0
N1073 N 0.25482 0.38717 0.03084 0.0
C1074 C 0.23862 0.41043 0.04339 0.0
C1075 C 0.25384 0.40172 0.04414 0.0
C1076 C 0.22416 0.40407 0.02885 0.0
C1077 C 0.22586 0.38945 0.01503 0.0
H1078 H 0.24262 0.37008 0.00555 0.0
H1079 H 0.2648 0.40646 0.05547 0.0
C1080 C 0.30347 0.34266 0.08737 0.0
N1081 N 0.28832 0.33942 0.07447 0.0
C1082 C 0.30133 0.33503 0.10505 0.0
C1083 C 0.26818 0.32021 0.09597 0.0
C1084 C 0.27092 0.32814 0.07854 0.0
C1085 C 0.28343 0.32364 0.10976 0.0
H1086 H 0.31724 0.35174 0.08426 0.0
H1087 H 0.25893 0.32561 0.06841 0.0
C1088 C 0.28898 0.39689 0.00553 0.0
N1089 N 0.27716 0.42754 0.99007 0.0
C1090 C 0.27865 0.39323 0.98817 0.0
C1091 C 0.29337 0.41613 0.015 0.0
C1092 C 0.2728 0.40893 0.98059 0.0
C1093 C 0.28724 0.43142 0.00696 0.0
C1094 C 0.32028 0.3405 0.0415 0.0
C1095 C 0.33726 0.34725 0.05281 0.0
C1096 C 0.31173 0.31976 0.03775 0.0
C1097 C 0.34536 0.33304 0.06035 0.0
C1098 C 0.32029 0.30603 0.04555 0.0
N1099 N 0.33678 0.3129 0.05659 0.0
C1100 C 0.34852 0.40039 0.02669 0.0
C1101 C 0.33853 0.42105 0.0491 0.0
C1102 C 0.36592 0.41509 0.02632 0.0
N1103 N 0.33524 0.40357 0.03795 0.0
C1104 C 0.35582 0.43606 0.04936 0.0
C1105 C 0.36987 0.43334 0.03776 0.0
H1106 H 0.34549 0.38647 0.01776 0.0
H1107 H 0.32768 0.42341 0.05777 0.0
C1108 C 0.27692 0.33625 0.97532 0.0
N1109 N 0.29115 0.33836 0.98901 0.0
C1110 C 0.27868 0.32912 0.95692 0.0
C1111 C 0.30977 0.32654 0.96672 0.0
C1112 C 0.30739 0.33362 0.9849 0.0
C1113 C 0.29534 0.32414 0.95219 0.0
H1114 H 0.26429 0.34059 0.9785 0.0
H1115 H 0.31885 0.33588 0.99567 0.0
O1116 O 0.29303 0.38377 0.05568 0.0
O1117 O 0.26871 0.3437 0.03069 0.0
O1118 O 0.29436 0.3816 0.01348 0.0
O1119 O 0.31201 0.35414 0.03419 0.0
H1120 H 0.26488 0.37934 0.07778 0.0
H1121 H 0.32563 0.39347 0.07659 0.0
H1122 H 0.26898 0.38337 0.11225 0.0
H1123 H 0.32867 0.39771 0.11108 0.0
H1124 H 0.21132 0.31436 0.99917 0.0
H1125 H 0.24704 0.35265 0.05615 0.0
H1126 H 0.24651 0.32288 0.00184 0.0
H1127 H 0.21185 0.34346 0.05265 0.0
H1128 H 0.23793 0.42162 0.05436 0.0
H1129 H 0.21526 0.38432 0.00338 0.0
H1130 H 0.31367 0.33801 0.1149 0.0
H1131 H 0.25398 0.31184 0.0987 0.0
H1132 H 0.27508 0.37841 0.9807 0.0
H1133 H 0.30119 0.41913 0.02853 0.0
H1134 H 0.26473 0.40631 0.9672 0.0
H1135 H 0.29044 0.44636 0.01418 0.0
H1136 H 0.344 0.36329 0.05583 0.0
H1137 H 0.29858 0.31436 0.02899 0.0
H1138 H 0.35846 0.33801 0.0692 0.0
H1139 H 0.31381 0.28992 0.04283 0.0
H1140 H 0.37596 0.41229 0.01683 0.0
H1141 H 0.35813 0.44961 0.05867 0.0
H1142 H 0.267 0.32752 0.94653 0.0
H1143 H 0.32314 0.32351 0.96405 0.0
Li1144 Li 0.79816 0.15513 0.07141 0.0
Li1145 Li 0.80754 0.13175 0.05016 0.0
Li1146 Li 0.79267 0.15567 0.03704 0.0
Li1147 Li 0.7753 0.12824 0.05276 0.0
C1148 C 0.836 0.1643 0.05046 0.0
N1149 N 0.87382 0.1673 0.04619 0.0
C1150 C 0.84743 0.15989 0.06489 0.0
C1151 C 0.84388 0.17048 0.03396 0.0
C1152 C 0.86649 0.16141 0.06243 0.0
C1153 C 0.86301 0.17186 0.03205 0.0
C1154 C 0.78362 0.10889 0.07979 0.0
C1155 C 0.77143 0.07254 0.07831 0.0
N1156 N 0.76163 0.07438 0.09342 0.0
C1157 C 0.77348 0.11042 0.09533 0.0
C1158 C 0.78264 0.0898 0.07122 0.0
C1159 C 0.76243 0.0928 0.10199 0.0
C1160 C 0.78984 0.16969 0.10589 0.0
N1161 N 0.80395 0.17089 0.09433 0.0
C1162 C 0.82592 0.19506 0.11578 0.0
C1163 C 0.82168 0.18337 0.0988 0.0
C1164 C 0.81169 0.19399 0.12813 0.0
C1165 C 0.79343 0.18114 0.123 0.0
H1166 H 0.77573 0.16006 0.10167 0.0
H1167 H 0.83247 0.18442 0.08912 0.0
C1168 C 0.83457 0.11519 0.03238 0.0
N1169 N 0.82601 0.11744 0.04822 0.0
C1170 C 0.84836 0.10459 0.0322 0.0
C1171 C 0.84382 0.0987 0.06446 0.0
C1172 C 0.8305 0.10965 0.06411 0.0
C1173 C 0.85307 0.09611 0.04842 0.0
H1174 H 0.83082 0.12178 0.02001 0.0
H1175 H 0.82371 0.11196 0.0766 0.0
C1176 C 0.77266 0.17563 0.06074 0.0
N1177 N 0.76848 0.21396 0.06857 0.0
C1178 C 0.75484 0.17816 0.06405 0.0
C1179 C 0.78839 0.19264 0.06147 0.0
C1180 C 0.75301 0.19766 0.06795 0.0
C1181 C 0.78597 0.21187 0.06544 0.0
C1182 C 0.77491 0.12164 0.01436 0.0
C1183 C 0.75894 0.12907 0.01383 0.0
C1184 C 0.77763 0.10934 0.99922 0.0
C1185 C 0.74595 0.12402 0.99816 0.0
C1186 C 0.76432 0.10464 0.9838 0.0
N1187 N 0.74888 0.11201 0.9836 0.0
C1188 C 0.79871 0.1668 1.00036 0.0
C1189 C 0.77613 0.18029 0.01477 0.0
C1190 C 0.79364 0.17302 0.98319 0.0
N1191 N 0.78978 0.1703 0.0157 0.0
C1192 C 0.77068 0.18674 0.998 0.0
C1193 C 0.77905 0.18261 0.98183 0.0
H1194 H 0.80885 0.15798 1.00117 0.0
H1195 H 0.7684 0.18215 0.02658 0.0
C1196 C 0.73684 0.11599 0.05899 0.0
N1197 N 0.75103 0.10957 0.0517 0.0
C1198 C 0.71799 0.10529 0.05402 0.0
C1199 C 0.72889 0.08076 0.03542 0.0
C1200 C 0.74753 0.09189 0.0408 0.0
C1201 C 0.71403 0.08797 0.04156 0.0
H1202 H 0.74015 0.13013 0.06757 0.0
H1203 H 0.75917 0.08731 0.0351 0.0
O1204 O 0.8172 0.1625 0.05245 0.0
O1205 O 0.7943 0.12599 0.07287 0.0
O1206 O 0.77466 0.15655 0.05725 0.0
O1207 O 0.78792 0.12631 0.02952 0.0
H1208 H 0.84154 0.15491 0.07771 0.0
H1209 H 0.83534 0.17423 0.02276 0.0
H1210 H 0.87542 0.15781 0.0734 0.0
H1211 H 0.86927 0.17656 0.01932 0.0
H1212 H 0.77046 0.05768 0.07176 0.0
H1213 H 0.77409 0.12504 0.10215 0.0
H1214 H 0.79023 0.08834 0.05906 0.0
H1215 H 0.75447 0.09377 0.11398 0.0
H1216 H 0.84017 0.20481 0.1192 0.0
H1217 H 0.78193 0.18027 0.1319 0.0
H1218 H 0.85531 0.10323 0.01958 0.0
H1219 H 0.84661 0.09213 0.07718 0.0
H1220 H 0.74251 0.16522 0.06356 0.0
H1221 H 0.80231 0.1911 0.05899 0.0
H1222 H 0.73929 0.19982 0.0705 0.0
H1223 H 0.798 0.22514 0.06604 0.0
H1224 H 0.75654 0.13861 0.02537 0.0
H1225 H 0.78993 0.10349 0.9994 0.0
H1226 H 0.73353 0.12964 0.99759 0.0
H1227 H 0.76625 0.09512 0.97199 0.0
H1228 H 0.80028 0.16934 0.97095 0.0
H1229 H 0.75946 0.19424 0.99758 0.0
H1230 H 0.70668 0.1112 0.05882 0.0
H1231 H 0.72613 0.06751 0.02564 0.0
Li1232 Li 0.16096 0.53797 0.24348 0.0
Li1233 Li 0.13724 0.50845 0.25283 0.0
Li1234 Li 0.16237 0.50337 0.23502 0.0
Li1235 Li 0.13641 0.51565 0.22198 0.0
C1236 C 0.16846 0.52355 0.27857 0.0
N1237 N 0.17464 0.53542 0.31623 0.0
C1238 C 0.15795 0.53547 0.28684 0.0
C1239 C 0.18214 0.51773 0.28949 0.0
C1240 C 0.16126 0.54127 0.30589 0.0
C1241 C 0.18507 0.5239 0.30849 0.0
C1242 C 0.1204 0.54308 0.2372 0.0
C1243 C 0.08872 0.54214 0.22521 0.0
N1244 N 0.09456 0.5624 0.22352 0.0
C1245 C 0.126 0.56394 0.23558 0.0
C1246 C 0.10152 0.53213 0.23221 0.0
C1247 C 0.11277 0.57341 0.22855 0.0
C1248 C 0.17824 0.57684 0.23406 0.0
N1249 N 0.17727 0.56489 0.24844 0.0
C1250 C 0.2027 0.5898 0.26587 0.0
C1251 C 0.18917 0.57102 0.26418 0.0
C1252 C 0.20432 0.60213 0.25103 0.0
C1253 C 0.19176 0.5956 0.23504 0.0
H1254 H 0.16893 0.57142 0.22152 0.0
H1255 H 0.18889 0.56115 0.27517 0.0
C1256 C 0.12929 0.48759 0.28513 0.0
N1257 N 0.123 0.49907 0.27296 0.0
C1258 C 0.12112 0.48428 0.302 0.0
C1259 C 0.09921 0.5032 0.29259 0.0
C1260 C 0.10791 0.50632 0.27608 0.0
C1261 C 0.1064 0.49288 0.30613 0.0
H1262 H 0.14144 0.48216 0.28226 0.0
H1263 H 0.10333 0.5155 0.26625 0.0
C1264 C 0.18228 0.53345 0.21409 0.0
N1265 N 0.21922 0.54929 0.20533 0.0
C1266 C 0.18595 0.53935 0.19623 0.0
C1267 C 0.1974 0.53565 0.22752 0.0
C1268 C 0.20473 0.54731 0.19207 0.0
C1269 C 0.21597 0.54368 0.22281 0.0
C1270 C 0.12339 0.47214 0.23762 0.0
C1271 C 0.1308 0.4568 0.24382 0.0
C1272 C 0.10406 0.47046 0.23858 0.0
C1273 C 0.11882 0.44022 0.25119 0.0
C1274 C 0.09254 0.45366 0.24606 0.0
N1275 N 0.1001 0.43902 0.25218 0.0
C1276 C 0.18375 0.47908 0.24726 0.0
C1277 C 0.18815 0.48619 0.21586 0.0
C1278 C 0.19727 0.46834 0.24713 0.0
N1279 N 0.17955 0.48777 0.23184 0.0
C1280 C 0.20208 0.47583 0.21521 0.0
C1281 C 0.2067 0.46678 0.23102 0.0
H1282 H 0.17661 0.48061 0.2597 0.0
H1283 H 0.18447 0.49327 0.20379 0.0
C1284 C 0.12058 0.53241 0.19269 0.0
N1285 N 0.12011 0.51495 0.20066 0.0
C1286 C 0.10658 0.53276 0.1789 0.0
C1287 C 0.09282 0.49686 0.18089 0.0
C1288 C 0.10692 0.49727 0.19481 0.0
C1289 C 0.09234 0.51486 0.1731 0.0
H1290 H 0.13137 0.54619 0.1976 0.0
H1291 H 0.10705 0.48359 0.20128 0.0
O1292 O 0.16493 0.51699 0.26008 0.0
O1293 O 0.13326 0.53355 0.24396 0.0
O1294 O 0.16391 0.52597 0.21839 0.0
O1295 O 0.13499 0.48869 0.23065 0.0
H1296 H 0.14731 0.54017 0.27866 0.0
H1297 H 0.19042 0.50854 0.28336 0.0
H1298 H 0.15318 0.55041 0.31246 0.0
H1299 H 0.19561 0.5195 0.31709 0.0
H1300 H 0.07415 0.53379 0.22106 0.0
H1301 H 0.14038 0.57277 0.23979 0.0
H1302 H 0.09686 0.516 0.23337 0.0
H1303 H 0.11696 0.58953 0.22714 0.0
H1304 H 0.21237 0.59422 0.2783 0.0
H1305 H 0.19258 0.60477 0.22331 0.0
H1306 H 0.12711 0.47635 0.31217 0.0
H1307 H 0.08768 0.5098 0.2952 0.0
H1308 H 0.17439 0.53785 0.18572 0.0
H1309 H 0.19487 0.53127 0.24144 0.0
H1310 H 0.20777 0.55194 0.1783 0.0
H1311 H 0.2278 0.54547 0.23306 0.0
H1312 H 0.14563 0.45766 0.24296 0.0
H1313 H 0.09804 0.48213 0.23383 0.0
H1314 H 0.1244 0.4283 0.25613 0.0
H1315 H 0.0776 0.45228 0.24704 0.0
H1316 H 0.20062 0.46166 0.25963 0.0
H1317 H 0.20908 0.4748 0.20255 0.0
H1318 H 0.10682 0.54683 0.17289 0.0
H1319 H 0.08213 0.48277 0.1766 0.0
Li1320 Li 0.77873 0.87684 0.53022 0.0
Li1321 Li 0.79297 0.85494 0.54836 0.0
Li1322 Li 0.81278 0.88398 0.53119 0.0
Li1323 Li 0.79317 0.85396 0.51123 0.0
C1324 C 0.78961 0.89664 0.56388 0.0
N1325 N 0.77391 0.92063 0.58657 0.0
C1326 C 0.7785 0.8883 0.57799 0.0
C1327 C 0.79282 0.91724 0.56142 0.0
C1328 C 0.77069 0.90066 0.5893 0.0
C1329 C 0.78472 0.92909 0.57298 0.0
C1330 C 0.75216 0.84166 0.52507 0.0
C1331 C 0.72451 0.84304 0.50594 0.0
N1332 N 0.71325 0.83425 0.51909 0.0
C1333 C 0.74032 0.83264 0.53839 0.0
C1334 C 0.74421 0.84689 0.5087 0.0
C1335 C 0.72067 0.829 0.5351 0.0
C1336 C 0.75508 0.90177 0.51756 0.0
N1337 N 0.75747 0.88894 0.5305 0.0
C1338 C 0.72941 0.8921 0.54436 0.0
C1339 C 0.74493 0.88402 0.54372 0.0
C1340 C 0.72652 0.90538 0.5312 0.0
C1341 C 0.73971 0.91025 0.5177 0.0
H1342 H 0.76495 0.90524 0.50695 0.0
H1343 H 0.74684 0.87362 0.55374 0.0
C1344 C 0.80558 0.85457 0.58624 0.0
N1345 N 0.79284 0.8427 0.57282 0.0
C1346 C 0.80491 0.8504 0.605 0.0
C1347 C 0.77884 0.82086 0.59616 0.0
C1348 C 0.77989 0.82573 0.57743 0.0
C1349 C 0.79108 0.83366 0.61043 0.0
H1350 H 0.81573 0.86804 0.5825 0.0
H1351 H 0.76982 0.81633 0.56675 0.0
C1352 C 0.80429 0.89855 0.49977 0.0
N1353 N 0.82489 0.93044 0.4816 0.0
C1354 C 0.81286 0.89482 0.48366 0.0
C1355 C 0.80597 0.91851 0.50646 0.0
C1356 C 0.82327 0.91114 0.47471 0.0
C1357 C 0.81651 0.93442 0.49714 0.0
C1358 C 0.81976 0.83788 0.53033 0.0
C1359 C 0.83841 0.8381 0.52719 0.0
C1360 C 0.80639 0.81954 0.53244 0.0
C1361 C 0.84339 0.81987 0.52616 0.0
C1362 C 0.81193 0.80164 0.53134 0.0
N1363 N 0.83015 0.80218 0.52825 0.0
C1364 C 0.84245 0.91951 0.5456 0.0
C1365 C 0.84896 0.90225 0.51849 0.0
C1366 C 0.85988 0.93428 0.5457 0.0
N1367 N 0.83722 0.90402 0.53199 0.0
C1368 C 0.86649 0.9167 0.51801 0.0
C1369 C 0.87218 0.93313 0.53169 0.0
H1370 H 0.83313 0.92042 0.55645 0.0
H1371 H 0.84461 0.88968 0.50792 0.0
C1372 C 0.77792 0.83253 0.47412 0.0
N1373 N 0.79365 0.83949 0.48635 0.0
C1374 C 0.77939 0.82552 0.4556 0.0
C1375 C 0.81312 0.83252 0.46245 0.0
C1376 C 0.81103 0.8394 0.48074 0.0
C1377 C 0.79722 0.82551 0.44935 0.0
H1378 H 0.76418 0.8328 0.47849 0.0
H1379 H 0.82352 0.84556 0.49026 0.0
O1380 O 0.7973 0.88473 0.55257 0.0
O1381 O 0.77144 0.84566 0.52814 0.0
O1382 O 0.79444 0.88278 0.50902 0.0
O1383 O 0.81463 0.85556 0.53122 0.0
H1384 H 0.77556 0.87236 0.57998 0.0
H1385 H 0.80145 0.92404 0.5507 0.0
H1386 H 0.76196 0.89435 0.60017 0.0
H1387 H 0.78705 0.94503 0.57117 0.0
H1388 H 0.71819 0.84718 0.49342 0.0
H1389 H 0.74622 0.8287 0.55122 0.0
H1390 H 0.7532 0.85438 0.49848 0.0
H1391 H 0.71134 0.8221 0.54532 0.0
H1392 H 0.71982 0.88802 0.55517 0.0
H1393 H 0.73797 0.92017 0.5071 0.0
H1394 H 0.81488 0.86062 0.6153 0.0
H1395 H 0.76792 0.80779 0.59952 0.0
H1396 H 0.8116 0.87953 0.47815 0.0
H1397 H 0.79926 0.92168 0.51876 0.0
H1398 H 0.83007 0.90846 0.46229 0.0
H1399 H 0.81802 0.94994 0.50226 0.0
H1400 H 0.8489 0.8522 0.52549 0.0
H1401 H 0.79188 0.81911 0.53487 0.0
H1402 H 0.85776 0.81979 0.5237 0.0
H1403 H 0.80174 0.78733 0.53295 0.0
H1404 H 0.86374 0.94635 0.55678 0.0
H1405 H 0.87531 0.91517 0.50683 0.0
H1406 H 0.76663 0.82013 0.44629 0.0
H1407 H 0.82729 0.83334 0.45848 0.0
Li1408 Li 0.94831 0.04433 0.25781 0.0
Li1409 Li 0.92132 0.02207 0.24253 0.0
Li1410 Li 0.94203 0.04791 0.22553 0.0
Li1411 Li 0.92047 0.05636 0.24995 0.0
C1412 C 0.96358 0.01838 0.23927 0.0
N1413 N 0.9963 0.00638 0.24553 0.0
C1414 C 0.96442 1.0044 0.25227 0.0
C1415 C 0.97933 0.02606 0.22927 0.0
C1416 C 0.98111 0.9986 0.25531 0.0
C1417 C 0.99575 0.01984 0.23267 0.0
C1418 C 0.91167 0.02221 0.27708 0.0
C1419 C 0.88163 0.00783 0.28954 0.0
N1420 N 0.8883 0.99258 0.29568 0.0
C1421 C 0.91827 0.0065 0.28368 0.0
C1422 C 0.89323 0.02297 0.28015 0.0
C1423 C 0.90623 0.99162 0.29297 0.0
C1424 C 0.9639 0.04448 0.29424 0.0
N1425 N 0.96866 0.04747 0.27657 0.0
C1426 C 1.00146 0.05214 0.28601 0.0
C1427 C 0.98709 0.05192 0.27237 0.0
C1428 C 0.99679 0.04816 0.30418 0.0
C1429 C 0.97779 0.04473 0.30834 0.0
H1430 H 0.94923 0.04148 0.29735 0.0
H1431 H 0.99063 0.05491 0.25836 0.0
C1432 C 0.91203 0.9791 0.23665 0.0
N1433 N 0.9049 0.99516 0.23996 0.0
C1434 C 0.9001 0.95939 0.23566 0.0
C1435 C 0.87368 0.97322 0.24089 0.0
C1436 C 0.8861 0.99257 0.24187 0.0
C1437 C 0.88067 0.95631 0.23791 0.0
H1438 H 0.92698 0.98158 0.23492 0.0
H1439 H 0.88078 1.00558 0.24446 0.0
C1440 C 0.96173 0.08376 0.25681 0.0
N1441 N 0.99043 0.11113 0.27905 0.0
C1442 C 0.95823 0.09083 0.27443 0.0
C1443 C 0.97977 0.09067 0.25042 0.0
C1444 C 0.97295 0.10464 0.28549 0.0
C1445 C 0.9941 0.10451 0.26189 0.0
C1446 C 0.89915 0.0283 0.21378 0.0
C1447 C 0.90275 0.01393 0.20101 0.0
C1448 C 0.88055 0.02964 0.21487 0.0
C1449 C 0.88771 1.00111 0.18956 0.0
C1450 C 0.8659 0.01657 0.20315 0.0
N1451 N 0.86975 1.00269 0.19085 0.0
C1452 C 0.95309 0.04019 0.19008 0.0
C1453 C 0.95922 0.07503 0.20009 0.0
C1454 C 0.96156 0.045 0.17364 0.0
N1455 N 0.9522 0.05515 0.2029 0.0
C1456 C 0.96816 0.08055 0.18395 0.0
C1457 C 0.96945 0.06538 0.17059 0.0
H1458 H 0.94784 0.02453 0.19293 0.0
H1459 H 0.95826 0.08657 0.21058 0.0
C1460 C 0.90113 0.07657 0.2738 0.0
N1461 N 0.90479 0.07294 0.25588 0.0
C1462 C 0.88688 0.0858 0.27767 0.0
C1463 C 0.88123 0.0882 0.24465 0.0
C1464 C 0.89569 0.07913 0.24145 0.0
C1465 C 0.87636 0.09111 0.26291 0.0
H1466 H 0.90863 0.0714 0.28496 0.0
H1467 H 0.89907 0.07614 0.22737 0.0
O1468 O 0.94737 0.02428 0.23612 0.0
O1469 O 0.92319 0.03676 0.2677 0.0
O1470 O 0.9476 0.06993 0.24596 0.0
O1471 O 0.91369 0.04078 0.2253 0.0
H1472 H 0.95234 0.99814 0.26 0.0
H1473 H 0.97904 0.03697 0.21924 0.0
H1474 H 0.98198 0.98791 0.26543 0.0
H1475 H 0.00808 0.02578 0.22514 0.0
H1476 H 0.86728 0.00813 0.29185 0.0
H1477 H 0.93253 0.00576 0.28159 0.0
H1478 H 0.88775 0.03484 0.27499 0.0
H1479 H 0.91113 0.97931 0.29803 0.0
H1480 H 0.01599 0.05513 0.28234 0.0
H1481 H 0.97357 0.04147 0.32217 0.0
H1482 H 0.90598 0.94672 0.23315 0.0
H1483 H 0.85886 0.97153 0.24297 0.0
H1484 H 0.94436 0.08553 0.27959 0.0
H1485 H 0.98275 0.0852 0.23687 0.0
H1486 H 0.97049 0.11016 0.29921 0.0
H1487 H 0.00817 0.10991 0.25719 0.0
H1488 H 0.91694 0.01236 0.20027 0.0
H1489 H 0.87738 0.0404 0.22484 0.0
H1490 H 0.89031 0.98983 0.17972 0.0
H1491 H 0.85144 0.01739 0.2039 0.0
H1492 H 0.96267 0.03292 0.16378 0.0
H1493 H 0.97417 0.09641 0.18201 0.0
H1494 H 0.88349 0.08782 0.29193 0.0
H1495 H 0.87362 0.09244 0.23296 0.0
Li1496 Li 0.29614 0.64811 0.57181 0.0
Li1497 Li 0.30237 0.62257 0.55003 0.0
Li1498 Li 0.29096 0.64876 0.53779 0.0
Li1499 Li 0.27127 0.6232 0.55393 0.0
C1500 C 0.33368 0.65157 0.5543 0.0
N1501 N 0.37041 0.6482 0.55686 0.0
C1502 C 0.34066 0.64419 0.57002 0.0
C1503 C 0.34544 0.65739 0.53996 0.0
C1504 C 0.35925 0.64256 0.57103 0.0
C1505 C 0.36395 0.65553 0.5415 0.0
C1506 C 0.27858 0.60233 0.5806 0.0
C1507 C 0.26279 0.56658 0.57873 0.0
N1508 N 0.25454 0.56942 0.59467 0.0
C1509 C 0.27005 0.60489 0.59702 0.0
C1510 C 0.27501 0.58303 0.5714 0.0
C1511 C 0.2579 0.58806 0.60389 0.0
C1512 C 0.28728 0.66435 0.60479 0.0
N1513 N 0.30223 0.66408 0.59468 0.0
C1514 C 0.32353 0.68776 0.61707 0.0
C1515 C 0.32012 0.6755 0.60036 0.0
C1516 C 0.30831 0.68843 0.62781 0.0
C1517 C 0.28999 0.67648 0.62144 0.0
H1518 H 0.27315 0.65542 0.59965 0.0
H1519 H 0.33168 0.67536 0.59184 0.0
C1520 C 0.32251 0.60375 0.527 0.0
N1521 N 0.31775 0.60541 0.54478 0.0
C1522 C 0.33289 0.59035 0.52185 0.0
C1523 C 0.33338 0.58081 0.55351 0.0
C1524 C 0.32301 0.59444 0.55805 0.0
C1525 C 0.33831 0.57855 0.53516 0.0
H1526 H 0.31799 0.61268 0.51679 0.0
H1527 H 0.319 0.59617 0.5721 0.0
C1528 C 0.27361 0.67211 0.56024 0.0
N1529 N 0.27332 0.71206 0.56634 0.0
C1530 C 0.25671 0.67687 0.56364 0.0
C1531 C 0.29039 0.68768 0.55997 0.0
C1532 C 0.25685 0.69716 0.56667 0.0
C1533 C 0.28994 0.70777 0.56308 0.0
C1534 C 0.26913 0.61625 0.51535 0.0
C1535 C 0.25426 0.62536 0.51548 0.0
C1536 C 0.27074 0.604 0.49969 0.0
C1537 C 0.24121 0.62202 0.49992 0.0
C1538 C 0.2574 0.60103 0.48441 0.0
N1539 N 0.24304 0.61003 0.48484 0.0
C1540 C 0.30318 0.66084 0.50386 0.0
C1541 C 0.27806 0.67394 0.51305 0.0
C1542 C 0.30198 0.66793 0.48633 0.0
N1543 N 0.29123 0.6638 0.51672 0.0
C1544 C 0.27631 0.68124 0.49566 0.0
C1545 C 0.2881 0.67786 0.4819 0.0
H1546 H 0.31293 0.65197 0.5069 0.0
H1547 H 0.26811 0.6753 0.52314 0.0
C1548 C 0.23526 0.6141 0.56692 0.0
N1549 N 0.24612 0.60712 0.55502 0.0
C1550 C 0.21635 0.60339 0.56788 0.0
C1551 C 0.22025 0.5785 0.54433 0.0
C1552 C 0.23917 0.58954 0.54404 0.0
C1553 C 0.20862 0.58552 0.55629 0.0
H1554 H 0.24129 0.62809 0.57553 0.0
H1555 H 0.24828 0.58422 0.53491 0.0
O1556 O 0.31537 0.65285 0.55291 0.0
O1557 O 0.29015 0.61868 0.57339 0.0
O1558 O 0.2736 0.65225 0.55747 0.0
O1559 O 0.28235 0.61949 0.53025 0.0
H1560 H 0.33169 0.63946 0.58118 0.0
H1561 H 0.34037 0.66334 0.52779 0.0
H1562 H 0.36477 0.63672 0.58305 0.0
H1563 H 0.37319 0.65994 0.53048 0.0
H1564 H 0.25978 0.55158 0.57168 0.0
H1565 H 0.27269 0.61971 0.60432 0.0
H1566 H 0.28135 0.58082 0.55857 0.0
H1567 H 0.25112 0.58982 0.61653 0.0
H1568 H 0.33789 0.69664 0.62147 0.0
H1569 H 0.27776 0.67688 0.62897 0.0
H1570 H 0.33627 0.58892 0.50753 0.0
H1571 H 0.33756 0.57222 0.56424 0.0
H1572 H 0.24362 0.66499 0.56393 0.0
H1573 H 0.30363 0.68436 0.5574 0.0
H1574 H 0.24386 0.70106 0.56931 0.0
H1575 H 0.3028 0.71996 0.56292 0.0
H1576 H 0.25278 0.63496 0.5274 0.0
H1577 H 0.28221 0.5969 0.49935 0.0
H1578 H 0.22965 0.62899 0.49983 0.0
H1579 H 0.25849 0.59159 0.47219 0.0
H1580 H 0.31143 0.66512 0.47617 0.0
H1581 H 0.26516 0.68844 0.49271 0.0
H1582 H 0.20772 0.60932 0.57715 0.0
H1583 H 0.21473 0.56467 0.53532 0.0
Li1584 Li 0.41257 0.51504 0.73188 0.0
Li1585 Li 0.44105 0.53687 0.74933 0.0
Li1586 Li 0.41525 0.54971 0.73828 0.0
Li1587 Li 0.43524 0.53926 0.71631 0.0
C1588 C 0.40231 0.53312 0.76915 0.0
N1589 N 0.37748 0.5411 0.79397 0.0
C1590 C 0.40826 0.53789 0.78804 0.0
C1591 C 0.38361 0.53201 0.76298 0.0
C1592 C 0.39553 0.54197 0.80035 0.0
C1593 C 0.37131 0.53622 0.77571 0.0
C1594 C 0.44345 0.4989 0.73463 0.0
C1595 C 0.45742 0.47109 0.73081 0.0
N1596 N 0.45072 0.46438 0.74706 0.0
C1597 C 0.43669 0.49171 0.7513 0.0
C1598 C 0.45387 0.48849 0.72429 0.0
C1599 C 0.44052 0.47424 0.75734 0.0
C1600 C 0.39868 0.47556 0.71493 0.0
N1601 N 0.39614 0.48838 0.72901 0.0
C1602 C 0.37289 0.46174 0.74084 0.0
C1603 C 0.38339 0.48198 0.74171 0.0
C1604 C 0.37568 0.44798 0.72682 0.0
C1605 C 0.38845 0.4552 0.71348 0.0
H1606 H 0.40919 0.48101 0.70522 0.0
H1607 H 0.38196 0.49234 0.75302 0.0
C1608 C 0.46004 0.55384 0.78341 0.0
N1609 N 0.46043 0.54038 0.76895 0.0
C1610 C 0.47297 0.55673 0.79896 0.0
C1611 C 0.48738 0.53289 0.7839 0.0
C1612 C 0.47411 0.53043 0.76865 0.0
C1613 C 0.48666 0.54587 0.7995 0.0
H1614 H 0.44942 0.56209 0.78295 0.0
H1615 H 0.47472 0.52048 0.75666 0.0
C1616 C 0.39351 0.52151 0.70191 0.0
N1617 N 0.36547 0.49582 0.6776 0.0
C1618 C 0.39833 0.51184 0.68608 0.0
C1619 C 0.37439 0.5183 0.70522 0.0
C1620 C 0.38396 0.49886 0.674 0.0
C1621 C 0.36043 0.50521 0.69282 0.0
C1622 C 0.46149 0.57192 0.73603 0.0
C1623 C 0.4675 0.59285 0.74044 0.0
C1624 C 0.47471 0.56155 0.7312 0.0
C1625 C 0.48668 0.60309 0.73991 0.0
C1626 C 0.49376 0.57234 0.73084 0.0
N1627 N 0.4993 0.59271 0.73517 0.0
C1628 C 0.4044 0.58071 0.75905 0.0
C1629 C 0.39114 0.57226 0.72783 0.0
C1630 C 0.39447 0.59523 0.76144 0.0
N1631 N 0.40232 0.56945 0.74251 0.0
C1632 C 0.38114 0.58669 0.72953 0.0
C1633 C 0.38272 0.59833 0.7465 0.0
H1634 H 0.4137 0.57834 0.77036 0.0
H1635 H 0.39005 0.56333 0.71476 0.0
C1636 C 0.45178 0.53138 0.68354 0.0
N1637 N 0.44641 0.54563 0.69404 0.0
C1638 C 0.45937 0.53598 0.66662 0.0
C1639 C 0.45625 0.56998 0.67202 0.0
C1640 C 0.44843 0.56461 0.68869 0.0
C1641 C 0.46165 0.55549 0.66074 0.0
H1642 H 0.44991 0.51641 0.68821 0.0
H1643 H 0.4439 0.57554 0.69739 0.0
O1644 O 0.41465 0.52924 0.75685 0.0
O1645 O 0.43957 0.51571 0.72812 0.0
O1646 O 0.40742 0.53408 0.71404 0.0
O1647 O 0.44275 0.56175 0.7366 0.0
H1648 H 0.42247 0.53824 0.79321 0.0
H1649 H 0.37871 0.52811 0.74849 0.0
H1650 H 0.39998 0.54575 0.81499 0.0
H1651 H 0.35686 0.5356 0.77105 0.0
H1652 H 0.46547 0.4629 0.72294 0.0
H1653 H 0.42856 0.49945 0.75952 0.0
H1654 H 0.45915 0.4938 0.71133 0.0
H1655 H 0.43537 0.46851 0.7702 0.0
H1656 H 0.3635 0.45675 0.75164 0.0
H1657 H 0.39095 0.4451 0.7024 0.0
H1658 H 0.4718 0.56683 0.81067 0.0
H1659 H 0.49798 0.52459 0.78354 0.0
H1660 H 0.413 0.51408 0.68327 0.0
H1661 H 0.37031 0.52589 0.71718 0.0
H1662 H 0.38752 0.49116 0.66179 0.0
H1663 H 0.34559 0.50254 0.69526 0.0
H1664 H 0.45744 0.60107 0.74424 0.0
H1665 H 0.47038 0.54536 0.72777 0.0
H1666 H 0.49153 0.61929 0.74329 0.0
H1667 H 0.50413 0.56451 0.72713 0.0
H1668 H 0.39611 0.60409 0.77468 0.0
H1669 H 0.37206 0.58852 0.71776 0.0
H1670 H 0.46363 0.52453 0.65832 0.0
H1671 H 0.45783 0.58515 0.66786 0.0
Li1672 Li 0.65352 0.00881 0.76421 0.0
Li1673 Li 0.67182 0.03515 0.74792 0.0
Li1674 Li 0.64514 0.00916 0.7319 0.0
Li1675 Li 0.67444 1.00106 0.74279 0.0
C1676 C 0.64183 0.04439 0.76427 0.0
N1677 N 0.6359 0.07363 0.78943 0.0
C1678 C 0.6533 0.05015 0.78095 0.0
C1679 C 0.62727 0.05345 0.76044 0.0
C1680 C 0.65009 0.06496 0.79347 0.0
C1681 C 0.62453 0.06824 0.77331 0.0
C1682 C 0.70085 0.02567 0.76906 0.0
C1683 C 0.73153 0.04122 0.75836 0.0
N1684 N 0.74 0.03859 0.77491 0.0
C1685 C 0.70988 0.02316 0.78597 0.0
C1686 C 0.71178 0.0348 0.75514 0.0
C1687 C 0.72967 0.02978 0.78866 0.0
C1688 C 0.6542 1.0025 0.80255 0.0
N1689 N 0.64293 1.00396 0.78739 0.0
C1690 C 0.61772 0.00574 0.8062 0.0
C1691 C 0.62481 1.00492 0.78879 0.0
C1692 C 0.62945 1.00564 0.82227 0.0
C1693 C 0.64769 1.00328 0.82026 0.0
H1694 H 0.66854 1.00176 0.80095 0.0
H1695 H 0.61627 0.00632 0.77648 0.0
C1696 C 0.68583 0.0719 0.73229 0.0
N1697 N 0.68508 0.06304 0.7486 0.0
C1698 C 0.69662 0.09189 0.73159 0.0
C1699 C 0.70502 0.09347 0.76466 0.0
C1700 C 0.69432 0.07337 0.76465 0.0
C1701 C 0.70644 0.10282 0.74792 0.0
H1702 H 0.67829 0.0633 0.71977 0.0
H1703 H 0.6938 0.06588 0.77738 0.0
C1704 C 0.63422 0.97223 0.75396 0.0
N1705 N 0.60737 0.94691 0.77322 0.0
C1706 C 0.63985 0.96105 0.76759 0.0
C1707 C 0.61493 0.97057 0.75018 0.0
C1708 C 0.62607 0.94833 0.77717 0.0
C1709 C 0.60157 0.95766 0.76004 0.0
C1710 C 0.6716 0.01147 0.70602 0.0
C1711 C 0.66464 0.99053 0.70183 0.0
C1712 C 0.67898 0.02378 0.69208 0.0
C1713 C 0.66512 0.9823 0.68375 0.0
C1714 C 0.67922 0.01496 0.67416 0.0
N1715 N 0.67233 0.99458 0.6704 0.0
C1716 C 0.61996 0.02259 0.70994 0.0
C1717 C 0.61702 0.98768 0.70299 0.0
C1718 C 0.60548 0.02195 0.69638 0.0
N1719 N 0.62535 1.00563 0.71302 0.0
C1720 C 0.60251 0.98637 0.68913 0.0
C1721 C 0.59658 1.0037 0.68573 0.0
H1722 H 0.62714 0.03671 0.71792 0.0
H1723 H 0.62167 0.97444 0.70574 0.0
C1724 C 0.6925 0.9697 0.74643 0.0
N1725 N 0.69279 0.98671 0.73778 0.0
C1726 C 0.70771 0.96118 0.74562 0.0
C1727 C 0.72299 0.98754 0.72661 0.0
C1728 C 0.70734 0.99531 0.72749 0.0
C1729 C 0.72343 0.97053 0.73608 0.0
H1730 H 0.6809 0.96326 0.75463 0.0
H1731 H 0.70732 0.00886 0.72074 0.0
O1732 O 0.64448 0.02969 0.75185 0.0
O1733 O 0.68144 0.01907 0.76626 0.0
O1734 O 0.64753 0.98511 0.74468 0.0
O1735 O 0.67122 0.01998 0.7236 0.0
H1736 H 0.66447 0.04315 0.7843 0.0
H1737 H 0.61811 0.04906 0.7477 0.0
H1738 H 0.65886 0.06951 0.80644 0.0
H1739 H 0.61332 0.07538 0.77051 0.0
H1740 H 0.74013 0.04826 0.74767 0.0
H1741 H 0.7017 0.01613 0.79692 0.0
H1742 H 0.70514 0.03683 0.74193 0.0
H1743 H 0.73682 0.0279 0.80168 0.0
H1744 H 0.60367 0.00781 0.8071 0.0
H1745 H 0.65708 1.00288 0.83229 0.0
H1746 H 0.69732 0.09871 0.71846 0.0
H1747 H 0.7126 0.1014 0.77747 0.0
H1748 H 0.65471 0.96245 0.77103 0.0
H1749 H 0.61028 0.97938 0.73997 0.0
H1750 H 0.63024 0.93968 0.78783 0.0
H1751 H 0.58661 0.9563 0.75729 0.0
H1752 H 0.65895 0.98069 0.71239 0.0
H1753 H 0.6845 0.04 0.69507 0.0
H1754 H 0.65976 0.96613 0.68033 0.0
H1755 H 0.68488 0.02433 0.66325 0.0
H1756 H 0.60167 0.03576 0.69388 0.0
H1757 H 0.59602 0.97203 0.68116 0.0
H1758 H 0.70766 0.94811 0.75323 0.0
H1759 H 0.73486 0.99508 0.71907 0.0
Li1760 Li 0.78827 0.70801 0.0389 0.0
Li1761 Li 0.80238 0.68357 0.023 0.0
Li1762 Li 0.78892 0.70743 0.00343 0.0
Li1763 Li 0.76733 0.67975 0.02008 0.0
C1764 C 0.82567 0.72792 0.03224 0.0
N1765 N 0.85572 0.75697 0.05111 0.0
C1766 C 0.83527 0.72322 0.04787 0.0
C1767 C 0.83134 0.74734 0.02615 0.0
C1768 C 0.85044 0.73813 0.05724 0.0
C1769 C 0.84658 0.76183 0.03589 0.0
C1770 C 0.78039 0.65958 0.04766 0.0
C1771 C 0.77746 0.62415 0.0402 0.0
N1772 N 0.77311 0.62038 0.05789 0.0
C1773 C 0.77595 0.65536 0.06577 0.0
C1774 C 0.78121 0.64386 0.03477 0.0
C1775 C 0.77229 0.63544 0.07067 0.0
C1776 C 0.7771 0.71313 0.07583 0.0
N1777 N 0.78939 0.72307 0.06389 0.0
C1778 C 0.80269 0.74974 0.0882 0.0
C1779 C 0.80187 0.7413 0.06975 0.0
C1780 C 0.79035 0.73966 0.10102 0.0
C1781 C 0.7773 0.7211 0.09432 0.0
H1782 H 0.76704 0.69882 0.071 0.0
H1783 H 0.81145 0.74931 0.06027 0.0
C1784 C 0.83064 0.66537 0.00914 0.0
N1785 N 0.82264 0.67023 0.02468 0.0
C1786 C 0.84555 0.6562 0.01046 0.0
C1787 C 0.84365 0.65704 0.0437 0.0
C1788 C 0.82881 0.66614 0.04174 0.0
C1789 C 0.85243 0.65206 0.02796 0.0
H1790 H 0.82558 0.66883 0.9957 0.0
H1791 H 0.82225 0.67005 0.05393 0.0
C1792 C 0.76528 0.727 0.02633 0.0
N1793 N 0.76252 0.76365 0.04208 0.0
C1794 C 0.75244 0.72749 0.03977 0.0
C1795 C 0.77673 0.74515 0.02093 0.0
C1796 C 0.75126 0.74617 0.04756 0.0
C1797 C 0.77511 0.76352 0.02904 0.0
C1798 C 0.77509 0.66941 0.98318 0.0
C1799 C 0.7593 0.67562 0.97702 0.0
C1800 C 0.78124 0.65555 0.97194 0.0
C1801 C 0.74994 0.66788 0.95961 0.0
C1802 C 0.77148 0.64815 0.95461 0.0
N1803 N 0.75617 0.65442 0.94885 0.0
C1804 C 0.80652 0.71569 0.96921 0.0
C1805 C 0.77941 0.72783 0.97016 0.0
C1806 C 0.80845 0.72037 0.95062 0.0
N1807 N 0.79204 0.71919 0.97865 0.0
C1808 C 0.78093 0.73291 0.95152 0.0
C1809 C 0.79539 0.7288 0.94121 0.0
H1810 H 0.81628 0.70855 0.97593 0.0
H1811 H 0.76768 0.73014 0.97756 0.0
C1812 C 0.72779 0.66478 0.02618 0.0
N1813 N 0.74255 0.65994 0.01832 0.0
C1814 C 0.70991 0.65058 0.02544 0.0
C1815 C 0.72278 0.62649 0.00879 0.0
C1816 C 0.74032 0.64117 0.00973 0.0
C1817 C 0.70713 0.63107 0.01658 0.0
H1818 H 0.72984 0.67971 0.03302 0.0
H1819 H 0.7522 0.6375 0.00365 0.0
O1820 O 0.81077 0.71359 0.02291 0.0
O1821 O 0.78397 0.67903 0.04267 0.0
O1822 O 0.7673 0.70893 0.01908 0.0
O1823 O 0.78459 0.67696 1.00009 0.0
H1824 H 0.83092 0.70831 0.05284 0.0
H1825 H 0.82404 0.75117 0.01404 0.0
H1826 H 0.85796 0.73475 0.06941 0.0
H1827 H 0.85113 0.77695 0.03136 0.0
H1828 H 0.77801 0.61184 0.03035 0.0
H1829 H 0.77537 0.66734 0.07598 0.0
H1830 H 0.78469 0.64678 0.02071 0.0
H1831 H 0.76882 0.63197 0.08464 0.0
H1832 H 0.81326 0.76392 0.09238 0.0
H1833 H 0.76713 0.71276 0.10319 0.0
H1834 H 0.85192 0.65285 0.99794 0.0
H1835 H 0.84815 0.65388 0.05746 0.0
H1836 H 0.7437 0.71363 0.04437 0.0
H1837 H 0.78693 0.74503 0.01075 0.0
H1838 H 0.74146 0.74678 0.05805 0.0
H1839 H 0.78393 0.77767 0.02503 0.0
H1840 H 0.75436 0.68634 0.98557 0.0
H1841 H 0.79343 0.65059 0.97654 0.0
H1842 H 0.73773 0.67258 0.95463 0.0
H1843 H 0.77608 0.63742 0.94574 0.0
H1844 H 0.82002 0.71707 0.94357 0.0
H1845 H 0.77035 0.73917 0.94501 0.0
H1846 H 0.69834 0.65501 0.03147 0.0
H1847 H 0.7216 0.61162 0.00212 0.0
Li1848 Li 0.93088 0.5297 0.80913 0.0
Li1849 Li 0.95737 0.55465 0.82427 0.0
Li1850 Li 0.93047 0.56478 0.80967 0.0
Li1851 Li 0.95382 0.55148 0.79098 0.0
C1852 C 0.92028 0.54284 0.84553 0.0
N1853 N 0.8987 0.53172 0.87519 0.0
C1854 C 0.92806 0.5361 0.86119 0.0
C1855 C 0.90162 0.54431 0.84516 0.0
C1856 C 0.9169 0.53044 0.87599 0.0
C1857 C 0.89091 0.53849 0.86022 0.0
C1858 C 0.96454 0.51691 0.81561 0.0
C1859 C 0.98599 0.49591 0.81735 0.0
N1860 N 0.97805 0.48829 0.83281 0.0
C1861 C 0.95654 0.50881 0.83144 0.0
C1862 C 0.97933 0.51036 0.80843 0.0
C1863 C 0.96357 0.49438 0.83996 0.0
C1864 C 0.91939 0.48675 0.80114 0.0
N1865 N 0.91419 0.50283 0.80881 0.0
C1866 C 0.88424 0.48118 0.81523 0.0
C1867 C 0.89685 0.50038 0.81544 0.0
C1868 C 0.88941 0.46426 0.80789 0.0
C1869 C 0.90716 0.4672 0.80057 0.0
H1870 H 0.93299 0.48911 0.79535 0.0
H1871 H 0.89253 0.51336 0.82044 0.0
C1872 C 0.97469 0.57122 0.86007 0.0
N1873 N 0.97687 0.56146 0.84376 0.0
C1874 C 0.98933 0.5761 0.87427 0.0
C1875 C 0.00823 0.5613 0.85431 0.0
C1876 C 0.99339 0.55701 0.84045 0.0
C1877 C 1.00614 0.57069 0.8715 0.0
H1878 H 0.96152 0.57499 0.86209 0.0
H1879 H 0.99504 0.5501 0.82704 0.0
C1880 C 0.90973 0.53102 0.77893 0.0
N1881 N 0.87777 0.50253 0.7625 0.0
C1882 C 0.9115 0.51619 0.76555 0.0
C1883 C 0.8917 0.53144 0.78388 0.0
C1884 C 0.89517 0.50189 0.75744 0.0
C1885 C 0.87572 0.51689 0.77542 0.0
C1886 C 0.97109 0.5926 0.81768 0.0
C1887 C 0.96496 0.60563 0.8299 0.0
C1888 C 0.99054 0.59532 0.81635 0.0
C1889 C 0.9784 0.62115 0.84068 0.0
C1890 C 1.00354 0.61099 0.82739 0.0
N1891 N 0.99725 0.62347 0.83923 0.0
C1892 C 0.90886 0.58995 0.82472 0.0
C1893 C 0.90824 0.58509 0.79186 0.0
C1894 C 0.89511 0.60048 0.82318 0.0
N1895 N 0.91475 0.58217 0.80914 0.0
C1896 C 0.89453 0.59546 0.78966 0.0
C1897 C 0.88755 0.60302 0.80545 0.0
H1898 H 0.91443 0.58747 0.8383 0.0
H1899 H 0.91321 0.57864 0.77976 0.0
C1900 C 0.96829 0.53825 0.75886 0.0
N1901 N 0.96795 0.55465 0.77013 0.0
C1902 C 0.98037 0.54044 0.7445 0.0
C1903 C 0.99182 0.57624 0.75406 0.0
C1904 C 0.97909 0.57345 0.76782 0.0
C1905 C 0.9927 0.5596 0.74216 0.0
H1906 H 0.95944 0.52344 0.76124 0.0
H1907 H 0.97846 0.58622 0.777 0.0
O1908 O 0.93115 0.54901 0.8311 0.0
O1909 O 0.95802 0.5312 0.80708 0.0
O1910 O 0.92558 0.54479 0.78742 0.0
O1911 O 0.95812 0.57698 0.80739 0.0
H1912 H 0.94262 0.53539 0.86204 0.0
H1913 H 0.89534 0.54951 0.83319 0.0
H1914 H 0.92274 0.52513 0.88815 0.0
H1915 H 0.8764 0.53935 0.85999 0.0
H1916 H 0.99748 0.49075 0.81199 0.0
H1917 H 0.94486 0.51341 0.83691 0.0
H1918 H 0.98565 0.51647 0.79614 0.0
H1919 H 0.95748 0.48797 0.85221 0.0
H1920 H 0.87046 0.47965 0.82049 0.0
H1921 H 0.91165 0.45453 0.79471 0.0
H1922 H 0.98724 0.58318 0.8875 0.0
H1923 H 0.02108 0.557 0.85178 0.0
H1924 H 0.92533 0.51559 0.76164 0.0
H1925 H 0.89008 0.54263 0.79439 0.0
H1926 H 0.89633 0.49024 0.74716 0.0
H1927 H 0.8617 0.51695 0.77921 0.0
H1928 H 0.94998 0.60368 0.83119 0.0
H1929 H 0.99556 0.58519 0.80717 0.0
H1930 H 0.97385 0.6313 0.85026 0.0
H1931 H 0.01863 0.61316 0.82662 0.0
H1932 H 0.89027 0.60634 0.83568 0.0
H1933 H 0.88894 0.59684 0.77574 0.0
H1934 H 0.97999 0.52719 0.73542 0.0
H1935 H 1.00112 0.59125 0.7531 0.0
Li1936 Li 0.79285 0.40412 0.51203 0.0
Li1937 Li 0.7726 0.42679 0.50604 0.0
Li1938 Li 0.78123 0.40658 0.47982 0.0
Li1939 Li 0.8039 0.43394 0.49664 0.0
C1940 C 0.74813 0.38525 0.50046 0.0
N1941 N 0.71092 0.36184 0.49908 0.0
C1942 C 0.73344 0.39264 0.49329 0.0
C1943 C 0.7439 0.36598 0.50698 0.0
C1944 C 0.71471 0.38057 0.4927 0.0
C1945 C 0.725 0.35436 0.50613 0.0
C1946 C 0.81114 0.43782 0.53552 0.0
C1947 C 0.82493 0.45353 0.56579 0.0
N1948 N 0.84141 0.44903 0.56229 0.0
C1949 C 0.8282 0.43333 0.53223 0.0
C1950 C 0.80947 0.44799 0.55242 0.0
C1951 C 0.84334 0.43914 0.54593 0.0
C1952 C 0.81503 0.38217 0.53093 0.0
N1953 N 0.79838 0.3873 0.53007 0.0
C1954 C 0.78932 0.37077 0.55747 0.0
C1955 C 0.78557 0.38184 0.5429 0.0
C1956 C 0.80648 0.3654 0.55885 0.0
C1957 C 0.81936 0.37109 0.54525 0.0
H1958 H 0.8252 0.38714 0.52083 0.0
H1959 H 0.77258 0.3864 0.54197 0.0
C1960 C 0.74513 0.44837 0.50602 0.0
N1961 N 0.75385 0.43706 0.5162 0.0
C1962 C 0.7319 0.45689 0.51387 0.0
C1963 C 0.73657 0.4415 0.54233 0.0
C1964 C 0.74983 0.43339 0.53396 0.0
C1965 C 0.7276 0.45359 0.53229 0.0
H1966 H 0.7485 0.45079 0.49184 0.0
H1967 H 0.7571 0.42433 0.54165 0.0
C1968 C 0.81062 0.3888 0.48444 0.0
N1969 N 0.81713 0.35201 0.47423 0.0
C1970 C 0.82836 0.38806 0.4789 0.0
C1971 C 0.79619 0.37079 0.48482 0.0
C1972 C 0.83137 0.36932 0.47379 0.0
C1973 C 0.79976 0.35236 0.47959 0.0
C1974 C 0.78854 0.45224 0.47294 0.0
C1975 C 0.79728 0.4509 0.45643 0.0
C1976 C 0.78845 0.47121 0.48103 0.0
C1977 C 0.8059 0.46862 0.44832 0.0
C1978 C 0.79722 0.48857 0.47247 0.0
N1979 N 0.8057 0.48693 0.45644 0.0
C1980 C 0.75505 0.38135 0.45113 0.0
C1981 C 0.78727 0.39229 0.44446 0.0
C1982 C 0.75024 0.36997 0.43396 0.0
N1983 N 0.77336 0.392 0.45611 0.0
C1984 C 0.78314 0.38104 0.42726 0.0
C1985 C 0.76443 0.36952 0.42187 0.0
H1986 H 0.74418 0.38146 0.46047 0.0
H1987 H 0.80171 0.40097 0.44871 0.0
C1988 C 0.82834 0.47297 0.50594 0.0
N1989 N 0.82595 0.45548 0.49507 0.0
C1990 C 0.84593 0.48743 0.50797 0.0
C1991 C 0.85786 0.46603 0.48676 0.0
C1992 C 0.84 0.45204 0.48506 0.0
C1993 C 0.86118 0.48364 0.4989 0.0
H1994 H 0.81689 0.47517 0.51383 0.0
H1995 H 0.83764 0.43789 0.47663 0.0
O1996 O 0.76654 0.39692 0.5015 0.0
O1997 O 0.7961 0.43246 0.5223 0.0
O1998 O 0.80762 0.40714 0.48948 0.0
O1999 O 0.78037 0.43508 0.48129 0.0
H2000 H 0.73648 0.40742 0.48798 0.0
H2001 H 0.75512 0.36005 0.51259 0.0
H2002 H 0.70321 0.38607 0.48713 0.0
H2003 H 0.72152 0.33941 0.5111 0.0
H2004 H 0.82384 0.46141 0.57894 0.0
H2005 H 0.82981 0.42552 0.51922 0.0
H2006 H 0.79635 0.45158 0.55516 0.0
H2007 H 0.85663 0.4358 0.54355 0.0
H2008 H 0.77894 0.36653 0.56758 0.0
H2009 H 0.83288 0.36755 0.54598 0.0
H2010 H 0.72501 0.46584 0.50559 0.0
H2011 H 0.73363 0.43869 0.55658 0.0
H2012 H 0.83971 0.40183 0.47859 0.0
H2013 H 0.78238 0.37094 0.48904 0.0
H2014 H 0.84504 0.36854 0.46948 0.0
H2015 H 0.78871 0.33833 0.4798 0.0
H2016 H 0.79752 0.43635 0.45003 0.0
H2017 H 0.78196 0.47254 0.49393 0.0
H2018 H 0.81279 0.46781 0.43558 0.0
H2019 H 0.79737 0.50336 0.47863 0.0
H2020 H 0.73558 0.36153 0.43027 0.0
H2021 H 0.79463 0.38093 0.41856 0.0
H2022 H 0.84783 0.50091 0.51728 0.0
H2023 H 0.86925 0.46235 0.47969 0.0
Li2024 Li 0.65439 0.51733 0.33545 0.0
Li2025 Li 0.67401 0.54863 0.32089 0.0
Li2026 Li 0.64985 0.52134 0.30286 0.0
Li2027 Li 0.67847 0.51557 0.31411 0.0
C2028 C 0.62916 0.54244 0.31809 0.0
N2029 N 0.59475 0.54711 0.30448 0.0
C2030 C 0.62863 0.55883 0.30784 0.0
C2031 C 0.61222 0.52856 0.32162 0.0
C2032 C 0.61108 0.56089 0.30101 0.0
C2033 C 0.59496 0.53115 0.31458 0.0
C2034 C 0.69734 0.52594 0.34678 0.0
C2035 C 0.73107 0.53192 0.35363 0.0
N2036 N 0.72784 0.51396 0.36144 0.0
C2037 C 0.69434 0.50758 0.35492 0.0
C2038 C 0.71584 0.53826 0.34616 0.0
C2039 C 0.70995 0.50178 0.36223 0.0
C2040 C 0.64023 0.48966 0.36232 0.0
N2041 N 0.64316 0.50889 0.35726 0.0
C2042 C 0.6291 0.51849 0.38393 0.0
C2043 C 0.63794 0.52327 0.36769 0.0
C2044 C 0.62558 0.4987 0.38943 0.0
C2045 C 0.63124 0.48414 0.37845 0.0
H2046 H 0.64467 0.47859 0.35372 0.0
H2047 H 0.6405 0.53841 0.36324 0.0
C2048 C 0.68489 0.58677 0.30832 0.0
N2049 N 0.68669 0.57631 0.32331 0.0
C2050 C 0.69652 0.60633 0.30759 0.0
C2051 C 0.71142 0.60406 0.3379 0.0
C2052 C 0.69922 0.58463 0.33819 0.0
C2053 C 0.71033 0.61492 0.32228 0.0
H2054 H 0.67509 0.57949 0.29653 0.0
H2055 H 0.70036 0.57582 0.34985 0.0
C2056 C 0.63936 0.47972 0.30805 0.0
N2057 N 0.61209 0.44444 0.29501 0.0
C2058 C 0.64275 0.46735 0.29328 0.0
C2059 C 0.6222 0.47396 0.31636 0.0
C2060 C 0.62875 0.44964 0.28683 0.0
C2061 C 0.60857 0.45611 0.30953 0.0
C2062 C 0.68283 0.53186 0.28035 0.0
C2063 C 0.67503 0.51373 0.26934 0.0
C2064 C 0.69819 0.54641 0.27452 0.0
C2065 C 0.68287 0.51033 0.2527 0.0
C2066 C 0.70565 0.54244 0.2578 0.0
N2067 N 0.6979 0.52463 0.24733 0.0
C2068 C 0.63698 0.53304 0.26987 0.0
C2069 C 0.6153 0.50343 0.27855 0.0
C2070 C 0.62556 0.53276 0.25372 0.0
N2071 N 0.63191 0.51833 0.28175 0.0
C2072 C 0.60342 0.50253 0.26248 0.0
C2073 C 0.6086 0.51726 0.24977 0.0
H2074 H 0.64997 0.54506 0.27295 0.0
H2075 H 0.61109 0.49234 0.28842 0.0
C2076 C 0.69563 0.48357 0.31031 0.0
N2077 N 0.69815 0.5037 0.30909 0.0
C2078 C 0.71041 0.47501 0.30693 0.0
C2079 C 0.73008 0.50815 0.30135 0.0
C2080 C 0.71494 0.51604 0.30485 0.0
C2081 C 0.72788 0.48737 0.30232 0.0
H2082 H 0.68217 0.47423 0.31398 0.0
H2083 H 0.71665 0.5321 0.30447 0.0
O2084 O 0.6462 0.53976 0.32434 0.0
O2085 O 0.68224 0.53156 0.33907 0.0
O2086 O 0.6531 0.49687 0.31483 0.0
O2087 O 0.67547 0.53544 0.29678 0.0
H2088 H 0.64162 0.56971 0.30499 0.0
H2089 H 0.6124 0.51584 0.32961 0.0
H2090 H 0.61045 0.5734 0.29291 0.0
H2091 H 0.58173 0.52045 0.3171 0.0
H2092 H 0.74547 0.54123 0.35312 0.0
H2093 H 0.68014 0.49778 0.35534 0.0
H2094 H 0.71846 0.55236 0.33964 0.0
H2095 H 0.70784 0.48755 0.36848 0.0
H2096 H 0.62465 0.53005 0.39188 0.0
H2097 H 0.62879 0.46876 0.38231 0.0
H2098 H 0.69549 0.61419 0.29522 0.0
H2099 H 0.72192 0.6103 0.34945 0.0
H2100 H 0.65611 0.47127 0.28696 0.0
H2101 H 0.61928 0.48329 0.32777 0.0
H2102 H 0.63117 0.43997 0.27537 0.0
H2103 H 0.59518 0.45157 0.31575 0.0
H2104 H 0.663 0.50246 0.27356 0.0
H2105 H 0.70436 0.56055 0.2829 0.0
H2106 H 0.67698 0.49634 0.24405 0.0
H2107 H 0.71759 0.55352 0.25314 0.0
H2108 H 0.63019 0.54436 0.24424 0.0
H2109 H 0.59028 0.49053 0.2601 0.0
H2110 H 0.7081 0.45887 0.30764 0.0
H2111 H 0.7434 0.51822 0.29811 0.0
Tb2112 Tb 0.06222 0.04801 0.03187 0.0
Tb2113 Tb 0.02034 0.01553 0.02387 0.0
C2114 C 0.03013 0.04688 0.05868 0.0
C2115 C 0.11334 0.06688 0.03233 0.0
C2116 C 0.14707 0.05696 0.0256 0.0
C2117 C 0.14774 0.07628 0.03367 0.0
C2118 C 0.13088 0.08119 0.03715 0.0
C2119 C 0.11271 0.0479 0.02363 0.0
C2120 C 0.12943 0.04295 0.02035 0.0
C2121 C 0.09557 0.071 0.03697 0.0
O2122 O 0.06662 0.01817 0.03521 0.0
O2123 O 0.0368 1.00132 0.0423 0.0
O2124 O 0.03805 1.00548 0.00478 0.0
O2125 O 0.05883 0.03655 0.00281 0.0
O2126 O 0.99771 0.99464 0.03424 0.0
O2127 O 0.99732 0.99985 0.00508 0.0
O2128 O 0.01961 0.04192 0.00834 0.0
O2129 O 0.04365 0.06672 0.02469 0.0
O2130 O 0.04826 0.04883 0.05738 0.0
O2131 O 0.01728 0.0375 0.04535 0.0
C2132 C 0.05501 1.00266 0.04201 0.0
O2133 O 0.08389 0.07124 0.02274 0.0
O2134 O 0.08695 0.06013 0.04963 0.0
C2135 C 0.05085 0.01781 0.9961 0.0
C2136 C 0.96863 0.99553 0.01978 0.0
C2137 C 0.93738 0.00956 0.02851 0.0
C2138 C 0.94211 0.99459 0.03855 0.0
C2139 C 0.95755 0.98751 0.03412 0.0
C2140 C 0.96297 0.00935 0.00882 0.0
C2141 C 0.9474 0.01623 0.01311 0.0
C2142 C 0.98738 0.99186 0.01846 0.0
C2143 C 0.02865 0.06125 0.01266 0.0
H2144 H 0.16124 0.08727 0.03782 0.0
H2145 H 0.13152 0.09592 0.04386 0.0
H2146 H 0.09925 0.03675 0.0197 0.0
H2147 H 0.12859 0.02806 0.01387 0.0
H2148 H 0.93447 0.98913 0.0504 0.0
H2149 H 0.9616 0.97678 0.04271 0.0
H2150 H 0.97121 0.01583 0.99767 0.0
H2151 H 0.9441 0.0279 0.00524 0.0
Tb2152 Tb 0.27882 0.77771 0.29236 0.0
Tb2153 Tb 0.30578 0.78261 0.25745 0.0
C2154 C 0.26233 0.78 0.25151 0.0
C2155 C 0.26179 0.76057 0.3361 0.0
C2156 C 0.26573 0.73686 0.3655 0.0
C2157 C 0.25151 0.74707 0.36507 0.0
C2158 C 0.24951 0.75882 0.35038 0.0
C2159 C 0.27616 0.75066 0.33666 0.0
C2160 C 0.27809 0.73888 0.35121 0.0
C2161 C 0.25966 0.77226 0.3203 0.0
O2162 O 0.2847 0.74869 0.28702 0.0
O2163 O 0.29015 0.75104 0.25629 0.0
O2164 O 0.32233 0.77369 0.2801 0.0
O2165 O 0.30824 0.78587 0.30393 0.0
O2166 O 0.30955 0.77403 0.22987 0.0
O2167 O 0.33164 0.79643 0.24663 0.0
O2168 O 0.30946 0.81257 0.27094 0.0
O2169 O 0.28123 0.80812 0.28447 0.0
O2170 O 0.25971 0.77131 0.26717 0.0
O2171 O 0.27948 0.78913 0.24696 0.0
C2172 C 0.28538 0.74023 0.27039 0.0
O2173 O 0.27378 0.78822 0.31898 0.0
O2174 O 0.25458 0.76152 0.3044 0.0
C2175 C 0.3223 0.77948 0.29782 0.0
C2176 C 0.32596 0.802 0.21538 0.0
C2177 C 0.32253 0.82615 0.18613 0.0
C2178 C 0.33132 0.81044 0.18373 0.0
C2179 C 0.333 0.79843 0.19828 0.0
C2180 C 0.31758 0.81793 0.21796 0.0
C2181 C 0.31592 0.82993 0.20349 0.0
C2182 C 0.32554 0.78804 0.22991 0.0
C2183 C 0.29643 0.81974 0.27819 0.0
H2184 H 0.24177 0.74568 0.37591 0.0
H2185 H 0.23834 0.76638 0.35008 0.0
H2186 H 0.28585 0.75198 0.32578 0.0
H2187 H 0.28938 0.73148 0.35135 0.0
H2188 H 0.33667 0.80729 0.17054 0.0
H2189 H 0.33935 0.78606 0.19605 0.0
H2190 H 0.31178 0.82068 0.23101 0.0
H2191 H 0.30881 0.84168 0.20569 0.0
Tb2192 Tb 0.52078 0.0317 0.53078 0.0
Tb2193 Tb 0.56604 0.03056 0.53056 0.0
C2194 C 0.54266 0.02048 0.56482 0.0
C2195 C 0.47549 0.04869 0.53195 0.0
C2196 C 0.45351 0.07695 0.53336 0.0
C2197 C 0.44486 0.05616 0.52873 0.0
C2198 C 0.45572 0.04225 0.52803 0.0
C2199 C 0.48421 0.06927 0.53717 0.0
C2200 C 0.47334 0.08323 0.53793 0.0
C2201 C 0.48671 0.03404 0.5285 0.0
O2202 O 0.53749 0.06341 0.53486 0.0
O2203 O 0.5668 0.05979 0.54489 0.0
O2204 O 0.55962 0.0469 0.50751 0.0
O2205 O 0.52895 0.02778 0.50278 0.0
O2206 O 0.5924 0.03292 0.54521 0.0
O2207 O 0.58858 0.02717 0.51529 0.0
O2208 O 0.54926 1.00123 0.51726 0.0
O2209 O 0.51943 0.99939 0.52713 0.0
O2210 O 0.53158 0.03156 0.55946 0.0
O2211 O 0.55348 0.01427 0.55333 0.0
C2212 C 0.55485 0.07095 0.54281 0.0
O2213 O 0.49819 0.03787 0.51533 0.0
O2214 O 0.49452 0.02771 0.54277 0.0
C2215 C 0.54414 0.0394 0.49657 0.0
C2216 C 0.61047 0.01296 0.53116 0.0
C2217 C 0.63178 0.98416 0.53179 0.0
C2218 C 0.64016 1.00454 0.53835 0.0
C2219 C 0.62963 0.01874 0.53801 0.0
C2220 C 0.60192 0.99262 0.52479 0.0
C2221 C 0.61246 0.97839 0.52507 0.0
C2222 C 0.59998 0.0285 0.53018 0.0
C2223 C 0.53172 0.99085 0.51963 0.0
H2224 H 0.42975 0.05066 0.52486 0.0
H2225 H 0.44871 0.02648 0.52376 0.0
H2226 H 0.49947 0.07461 0.54017 0.0
H2227 H 0.48055 0.09901 0.54186 0.0
H2228 H 0.65484 0.00953 0.54394 0.0
H2229 H 0.6365 0.03434 0.54302 0.0
H2230 H 0.58716 0.98778 0.51941 0.0
H2231 H 0.60553 0.96294 0.51969 0.0
Tb2232 Tb 0.31655 0.27551 0.77866 0.0
Tb2233 Tb 0.27478 0.28623 0.77806 0.0
C2234 C 0.27916 0.24398 0.78723 0.0
C2235 C 0.36373 0.26807 0.76589 0.0
C2236 C 0.39324 0.26749 0.74237 0.0
C2237 C 0.38445 0.25031 0.75143 0.0
C2238 C 0.36993 0.25063 0.76303 0.0
C2239 C 0.37251 0.28537 0.75697 0.0
C2240 C 0.38716 0.2851 0.74537 0.0
C2241 C 0.34846 0.26771 0.77854 0.0
O2242 O 0.30841 0.27559 0.74896 0.0
O2243 O 0.27625 0.27127 0.75045 0.0
O2244 O 0.29352 0.30956 0.76374 0.0
O2245 O 0.32165 0.3078 0.77808 0.0
O2246 O 0.24537 0.27649 0.77124 0.0
O2247 O 0.25882 0.30705 0.78315 0.0
O2248 O 0.28871 0.29714 0.80606 0.0
O2249 O 0.31009 0.27805 0.80795 0.0
O2250 O 0.29446 0.24735 0.77812 0.0
O2251 O 0.27114 0.25834 0.79157 0.0
C2252 C 0.29104 0.27114 0.74082 0.0
O2253 O 0.34619 0.28492 0.78503 0.0
O2254 O 0.33222 0.25444 0.77386 0.0
C2255 C 0.31189 0.31684 0.7676 0.0
C2256 C 0.22635 0.2928 0.78866 0.0
C2257 C 0.1918 0.28966 0.80535 0.0
C2258 C 0.1998 0.30628 0.79526 0.0
C2259 C 0.21683 0.3078 0.78703 0.0
C2260 C 0.21894 0.2766 0.79945 0.0
C2261 C 0.20183 0.2751 0.80779 0.0
C2262 C 0.2428 0.29366 0.77753 0.0
C2263 C 0.30035 0.28943 0.81597 0.0
H2264 H 0.38895 0.2366 0.74974 0.0
H2265 H 0.36355 0.23716 0.76986 0.0
H2266 H 0.36808 0.29909 0.75894 0.0
H2267 H 0.39351 0.29855 0.73852 0.0
H2268 H 0.19264 0.31795 0.79337 0.0
H2269 H 0.22226 0.32044 0.77882 0.0
H2270 H 0.22602 0.26481 0.80093 0.0
H2271 H 0.19605 0.2621 0.81544 0.0
Tb2272 Tb 0.04226 0.04431 0.53954 0.0
Tb2273 Tb 0.04019 0.01467 0.50307 0.0
C2274 C 1.00394 0.01583 0.5223 0.0
C2275 C 0.05186 0.05957 0.58809 0.0
C2276 C 0.06327 0.04362 0.62022 0.0
C2277 C 0.04945 0.05434 0.62082 0.0
C2278 C 0.04369 0.06217 0.60478 0.0
C2279 C 0.06624 0.04965 0.58773 0.0
C2280 C 0.07192 0.0418 0.60365 0.0
C2281 C 0.04334 0.06369 0.57043 0.0
O2282 O 0.04201 0.01456 0.55063 0.0
O2283 O 0.04523 0.99468 0.525 0.0
O2284 O 0.06845 0.03546 0.50505 0.0
O2285 O 0.07196 0.04582 0.53599 0.0
O2286 O 0.02426 0.99981 0.47871 0.0
O2287 O 0.05257 0.9972 0.48554 0.0
O2288 O 0.03487 0.04287 0.49237 0.0
O2289 O 0.04318 0.06608 0.51786 0.0
O2290 O 0.01274 0.03475 0.52781 0.0
O2291 O 0.01352 1.00395 0.51552 0.0
C2292 C 0.04389 0.99709 0.5432 0.0
O2293 O 0.05512 0.07001 0.55788 0.0
O2294 O 0.02872 0.04915 0.5635 0.0
C2295 C 0.07919 0.04445 0.51996 0.0
C2296 C 0.04374 1.00031 0.45438 0.0
C2297 C 0.04872 0.0136 0.41862 0.0
C2298 C 0.05378 0.02755 0.43437 0.0
C2299 C 0.05137 0.02094 0.45213 0.0
C2300 C 0.03954 0.98621 0.43881 0.0
C2301 C 0.04211 0.99281 0.421 0.0
C2302 C 0.03852 0.99395 0.47273 0.0
C2303 C 0.03866 0.06197 0.49974 0.0
H2304 H 0.04254 0.05589 0.63345 0.0
H2305 H 0.03232 0.06944 0.60518 0.0
H2306 H 0.07252 0.04714 0.57492 0.0
H2307 H 0.08283 0.03393 0.60288 0.0
H2308 H 0.05897 0.04364 0.4329 0.0
H2309 H 0.05474 0.03203 0.46405 0.0
H2310 H 0.03357 0.97025 0.44036 0.0
H2311 H 0.0379 0.98177 0.40906 0.0
Tb2312 Tb 0.29418 0.80208 0.76844 0.0
Tb2313 Tb 0.27755 0.7574 0.78164 0.0
C2314 C 0.29656 0.76381 0.74399 0.0
C2315 C 0.30083 0.85532 0.75958 0.0
C2316 C 0.28937 0.89037 0.76773 0.0
C2317 C 0.30808 0.89189 0.76339 0.0
C2318 C 0.31379 0.87441 0.75939 0.0
C2319 C 0.28195 0.85376 0.76313 0.0
C2320 C 0.27624 0.87117 0.76709 0.0
C2321 C 0.30756 0.83722 0.75858 0.0
O2322 O 0.26375 0.79367 0.75621 0.0
O2323 O 0.25148 0.76657 0.77288 0.0
O2324 O 0.27618 0.77725 0.80557 0.0
O2325 O 0.27941 0.8074 0.79249 0.0
O2326 O 0.25815 0.72863 0.77657 0.0
O2327 O 0.27707 0.73629 0.80147 0.0
O2328 O 0.30913 0.76227 0.78694 0.0
O2329 O 0.31847 0.79663 0.78566 0.0
O2330 O 0.30475 0.78269 0.74977 0.0
O2331 O 0.28322 0.75246 0.75289 0.0
C2332 C 0.24872 0.77999 0.7613 0.0
O2333 O 0.31172 0.83152 0.77476 0.0
O2334 O 0.29756 0.82202 0.74729 0.0
C2335 C 0.2752 0.79598 0.80628 0.0
C2336 C 0.27284 0.70398 0.78613 0.0
C2337 C 0.29399 0.6776 0.7746 0.0
C2338 C 0.2964 0.68603 0.7931 0.0
C2339 C 0.28584 0.69909 0.79884 0.0
C2340 C 0.26913 0.69391 0.76818 0.0
C2341 C 0.27966 0.68087 0.76246 0.0
C2342 C 0.26564 0.72165 0.79059 0.0
C2343 C 0.32266 0.77968 0.78974 0.0
H2344 H 0.31849 0.9065 0.7639 0.0
H2345 H 0.32848 0.87577 0.75689 0.0
H2346 H 0.27182 0.83907 0.7635 0.0
H2347 H 0.26163 0.86959 0.77006 0.0
H2348 H 0.30733 0.6837 0.80276 0.0
H2349 H 0.28882 0.70643 0.81284 0.0
H2350 H 0.25896 0.69704 0.75812 0.0
H2351 H 0.27723 0.67411 0.74826 0.0
Tb2352 Tb 0.54703 0.02025 0.0441 0.0
Tb2353 Tb 0.53656 0.03772 0.00562 0.0
C2354 C 0.57768 0.03871 0.018 0.0
C2355 C 0.55647 0.01342 0.09383 0.0
C2356 C 0.55301 0.02174 0.13185 0.0
C2357 C 0.56942 0.0172 0.12594 0.0
C2358 C 0.5711 0.01303 0.10704 0.0
C2359 C 0.54028 0.0184 0.09959 0.0
C2360 C 0.5385 0.02236 0.11844 0.0
C2361 C 0.55841 0.009 0.07409 0.0
O2362 O 0.54883 0.05253 0.05195 0.0
O2363 O 0.53418 0.0623 0.02653 0.0
O2364 O 0.50945 0.027 0.01706 0.0
O2365 O 0.51776 0.01982 0.04674 0.0
O2366 O 0.54249 0.06028 0.98686 0.0
O2367 O 0.51997 0.03277 0.98015 0.0
O2368 O 0.5415 0.00745 0.99715 0.0
O2369 O 0.53718 0.9929 0.02467 0.0
O2370 O 0.5707 0.02302 0.02711 0.0
O2371 O 0.56687 0.04944 0.01176 0.0
C2372 C 0.54137 0.0659 0.04415 0.0
O2373 O 0.5429 0.99905 0.06407 0.0
O2374 O 0.56836 0.02412 0.06579 0.0
C2375 C 0.50534 0.02208 0.03384 0.0
C2376 C 0.53979 0.04519 0.95641 0.0
C2377 C 0.56217 0.03905 0.92743 0.0
C2378 C 0.56216 0.05874 0.9339 0.0
C2379 C 0.551 0.06177 0.94821 0.0
C2380 C 0.53915 0.02545 0.94934 0.0
C2381 C 0.55017 0.02243 0.93492 0.0
C2382 C 0.53098 0.04867 0.9737 0.0
C2383 C 0.53892 0.99109 0.0066 0.0
H2384 H 0.58095 0.01686 0.13589 0.0
H2385 H 0.58379 0.00945 0.10275 0.0
H2386 H 0.52891 0.01899 0.08953 0.0
H2387 H 0.52551 0.02542 0.12249 0.0
H2388 H 0.57114 0.0718 0.92818 0.0
H2389 H 0.55176 0.0771 0.95343 0.0
H2390 H 0.53078 0.01231 0.95545 0.0
H2391 H 0.55 0.00709 0.93027 0.0
Tb2392 Tb 0.28428 0.25377 0.26992 0.0
Tb2393 Tb 0.29766 0.3001 0.28349 0.0
C2394 C 0.28053 0.28507 0.24123 0.0
C2395 C 0.283 0.20102 0.27126 0.0
C2396 C 0.30566 0.17857 0.28737 0.0
C2397 C 0.30062 0.17603 0.26809 0.0
C2398 C 0.28938 0.18722 0.26009 0.0
C2399 C 0.287 0.20257 0.29067 0.0
C2400 C 0.29821 0.19142 0.29865 0.0
C2401 C 0.27499 0.21593 0.26255 0.0
O2402 O 0.313 0.26385 0.25849 0.0
O2403 O 0.32483 0.2919 0.27854 0.0
O2404 O 0.29818 0.2854 0.30964 0.0
O2405 O 0.30015 0.25503 0.29686 0.0
O2406 O 0.31748 0.32807 0.28099 0.0
O2407 O 0.29599 0.32565 0.30016 0.0
O2408 O 0.26619 0.29366 0.28661 0.0
O2409 O 0.2591 0.25919 0.28355 0.0
O2410 O 0.27347 0.26678 0.24639 0.0
O2411 O 0.29119 0.29956 0.25313 0.0
C2412 C 0.32783 0.27884 0.26541 0.0
O2413 O 0.26579 0.22525 0.27318 0.0
O2414 O 0.28662 0.22854 0.25314 0.0
C2415 C 0.30051 0.26737 0.31162 0.0
C2416 C 0.30223 0.35356 0.28253 0.0
C2417 C 0.28862 0.38271 0.26509 0.0
C2418 C 0.30438 0.38875 0.2783 0.0
C2419 C 0.31116 0.37419 0.28702 0.0
C2420 C 0.28688 0.34758 0.26896 0.0
C2421 C 0.28017 0.36201 0.26028 0.0
C2422 C 0.30873 0.33794 0.29153 0.0
C2423 C 0.25393 0.27582 0.28829 0.0
H2424 H 0.30631 0.16635 0.25904 0.0
H2425 H 0.28659 0.18595 0.2451 0.0
H2426 H 0.28231 0.21315 0.29966 0.0
H2427 H 0.30165 0.19344 0.31356 0.0
H2428 H 0.31104 0.40465 0.2823 0.0
H2429 H 0.32312 0.37898 0.29739 0.0
H2430 H 0.2799 0.3317 0.26523 0.0
H2431 H 0.26816 0.35696 0.24997 0.0
Tb2432 Tb 0.53998 0.54394 0.04477 0.0
Tb2433 Tb 0.5359 0.51692 0.00608 0.0
C2434 C 0.5011 0.51725 0.02784 0.0
C2435 C 0.54858 0.55694 0.09469 0.0
C2436 C 0.55758 0.54276 0.12873 0.0
C2437 C 0.54715 0.55714 0.12815 0.0
C2438 C 0.54257 0.56409 0.11118 0.0
C2439 C 0.55954 0.54313 0.09534 0.0
C2440 C 0.56397 0.53606 0.1122 0.0
C2441 C 0.54171 0.56192 0.07664 0.0
O2442 O 0.53963 0.51348 0.05356 0.0
O2443 O 0.54199 0.4954 0.02641 0.0
O2444 O 0.56477 0.53611 0.00796 0.0
O2445 O 0.56939 0.54603 0.03916 0.0
O2446 O 0.51756 0.50364 0.98263 0.0
O2447 O 0.54596 0.49998 0.98586 0.0
O2448 O 0.53228 0.54688 0.99727 0.0
O2449 O 0.5406 0.56697 0.02478 0.0
O2450 O 0.51023 0.53591 0.03378 0.0
O2451 O 0.51035 0.5056 0.02013 0.0
C2452 C 0.54135 0.49658 0.04483 0.0
O2453 O 0.55445 0.56743 0.06479 0.0
O2454 O 0.52665 0.54852 0.06891 0.0
C2455 C 0.57596 0.54475 0.02273 0.0
C2456 C 0.53356 0.5038 0.95575 0.0
C2457 C 0.53445 0.51894 0.92039 0.0
C2458 C 0.54757 0.52931 0.93515 0.0
C2459 C 0.54704 0.52188 0.95273 0.0
C2460 C 0.521 0.49298 0.94094 0.0
C2461 C 0.52139 0.50047 0.92344 0.0
C2462 C 0.53072 0.49751 0.97462 0.0
C2463 C 0.53626 0.56514 0.00658 0.0
H2464 H 0.542 0.56248 0.1407 0.0
H2465 H 0.53391 0.57458 0.11086 0.0
H2466 H 0.56423 0.53738 0.0827 0.0
H2467 H 0.57227 0.52523 0.11229 0.0
H2468 H 0.55796 0.54343 0.93327 0.0
H2469 H 0.55671 0.53061 0.96408 0.0
H2470 H 0.51031 0.47917 0.94312 0.0
H2471 H 0.5108 0.49225 0.91258 0.0
Tb2472 Tb 0.79825 0.30096 0.27152 0.0
Tb2473 Tb 0.77854 0.2561 0.2821 0.0
C2474 C 0.80079 0.26341 0.24638 0.0
C2475 C 0.80957 0.35604 0.26867 0.0
C2476 C 0.80141 0.39298 0.27725 0.0
C2477 C 0.81845 0.39263 0.26947 0.0
C2478 C 0.82249 0.37424 0.2652 0.0
C2479 C 0.79272 0.35628 0.27667 0.0
C2480 C 0.78862 0.37459 0.28085 0.0
C2481 C 0.81383 0.33682 0.26436 0.0
O2482 O 0.76682 0.2974 0.26425 0.0
O2483 O 0.7565 0.26282 0.26295 0.0
O2484 O 0.76663 0.27544 0.29966 0.0
O2485 O 0.79036 0.30471 0.29957 0.0
O2486 O 0.76282 0.22621 0.27388 0.0
O2487 O 0.77162 0.23595 0.30283 0.0
O2488 O 0.80736 0.26404 0.29734 0.0
O2489 O 0.82329 0.28976 0.28101 0.0
O2490 O 0.79923 0.28187 0.24706 0.0
O2491 O 0.79612 0.25177 0.25995 0.0
C2492 C 0.75306 0.28029 0.25959 0.0
O2493 O 0.81893 0.32853 0.27874 0.0
O2494 O 0.80133 0.3237 0.253 0.0
C2495 C 0.77535 0.29383 0.30664 0.0
C2496 C 0.77279 0.20359 0.29189 0.0
C2497 C 0.78875 0.17081 0.29006 0.0
C2498 C 0.76909 0.16748 0.29124 0.0
C2499 C 0.76116 0.18381 0.29214 0.0
C2500 C 0.79245 0.20701 0.29125 0.0
C2501 C 0.80037 0.19078 0.29038 0.0
C2502 C 0.76446 0.22054 0.29063 0.0
C2503 C 0.82376 0.27608 0.29309 0.0
H2504 H 0.82865 0.40655 0.26672 0.0
H2505 H 0.83566 0.37421 0.25919 0.0
H2506 H 0.78266 0.34228 0.27954 0.0
H2507 H 0.77521 0.37426 0.28651 0.0
H2508 H 0.75983 0.15226 0.29112 0.0
H2509 H 0.74593 0.18097 0.29252 0.0
H2510 H 0.80161 0.22221 0.29079 0.0
H2511 H 0.8155 0.19385 0.28911 0.0
Tb2512 Tb 0.03064 0.51862 0.54116 0.0
Tb2513 Tb 0.03872 0.54101 0.5039 0.0
C2514 C 0.07098 0.53938 0.53251 0.0
C2515 C 0.03001 0.51402 0.59063 0.0
C2516 C 0.03898 0.53529 0.62608 0.0
C2517 C 0.04529 0.51804 0.62192 0.0
C2518 C 0.0408 0.50747 0.60432 0.0
C2519 C 0.02411 0.5315 0.59463 0.0
C2520 C 0.02843 0.54192 0.61216 0.0
C2521 C 0.02615 0.50363 0.57182 0.0
O2522 O 0.02757 0.54983 0.54916 0.0
O2523 O 0.04113 0.5667 0.52477 0.0
O2524 O 0.00965 0.53927 0.50963 0.0
O2525 O 1.00424 0.51012 0.52402 0.0
O2526 O 0.05736 0.56049 0.48777 0.0
O2527 O 0.02814 0.54618 0.47769 0.0
O2528 O 0.03338 0.50864 0.49427 0.0
O2529 O 0.0373 0.49492 0.52178 0.0
O2530 O 0.05868 0.53905 0.54478 0.0
O2531 O 0.06526 0.53599 0.51481 0.0
C2532 C 0.0341 0.56708 0.54124 0.0
O2533 O 0.01239 0.50724 0.5615 0.0
O2534 O 0.04111 0.50445 0.56269 0.0
C2535 C 0.99793 0.52339 0.51543 0.0
C2536 C 0.05142 0.54717 0.45653 0.0
C2537 C 0.06566 0.52929 0.42661 0.0
C2538 C 0.04904 0.5186 0.43409 0.0
C2539 C 0.04199 0.52743 0.44889 0.0
C2540 C 0.0679 0.55799 0.44896 0.0
C2541 C 0.07499 0.54912 0.43409 0.0
C2542 C 0.04502 0.55574 0.47329 0.0
C2543 C 0.03594 0.49331 0.50327 0.0
H2544 H 0.05358 0.51265 0.63229 0.0
H2545 H 0.0458 0.49425 0.60137 0.0
H2546 H 0.01603 0.53714 0.58425 0.0
H2547 H 0.02292 0.55482 0.6149 0.0
H2548 H 0.04138 0.50344 0.4284 0.0
H2549 H 0.02929 0.51861 0.4545 0.0
H2550 H 0.07548 0.57313 0.45476 0.0
H2551 H 0.08791 0.55766 0.42864 0.0
Tb2552 Tb 0.81819 0.78026 0.27591 0.0
Tb2553 Tb 0.77439 0.78576 0.27438 0.0
C2554 C 0.78283 0.74561 0.2852 0.0
C2555 C 0.86822 0.78191 0.26511 0.0
C2556 C 0.90041 0.79203 0.24422 0.0
C2557 C 0.89957 0.77903 0.25859 0.0
C2558 C 0.88365 0.77404 0.26891 0.0
C2559 C 0.8689 0.79492 0.25084 0.0
C2560 C 0.88486 0.79996 0.24051 0.0
C2561 C 0.85141 0.77584 0.27585 0.0
O2562 O 0.80997 0.78163 0.24655 0.0
O2563 O 0.77741 0.77153 0.24676 0.0
O2564 O 0.79161 0.81088 0.26111 0.0
O2565 O 0.82095 0.81239 0.27506 0.0
O2566 O 0.74497 0.77337 0.26839 0.0
O2567 O 0.75664 0.80481 0.27833 0.0
O2568 O 0.78711 0.79728 0.3028 0.0
O2569 O 0.81135 0.78191 0.30496 0.0
O2570 O 0.79898 0.75029 0.2774 0.0
O2571 O 0.77294 0.75858 0.28812 0.0
C2572 C 0.793 0.77446 0.23777 0.0
O2573 O 0.84704 0.79014 0.28584 0.0
O2574 O 0.8364 0.76329 0.26702 0.0
C2575 C 0.80948 0.82054 0.26563 0.0
C2576 C 0.72631 0.78832 0.28733 0.0
C2577 C 0.69788 0.78616 0.31258 0.0
C2578 C 0.69688 0.79515 0.29572 0.0
C2579 C 0.71094 0.7962 0.28325 0.0
C2580 C 0.72741 0.77924 0.30405 0.0
C2581 C 0.71332 0.77813 0.31654 0.0
C2582 C 0.74119 0.79011 0.27417 0.0
C2583 C 0.80007 0.79148 0.31282 0.0
H2584 H 0.91134 0.77288 0.26206 0.0
H2585 H 0.88337 0.76395 0.27986 0.0
H2586 H 0.85706 0.80105 0.24762 0.0
H2587 H 0.88488 0.80982 0.22942 0.0
H2588 H 0.68544 0.80178 0.29229 0.0
H2589 H 0.7099 0.80337 0.27046 0.0
H2590 H 0.73919 0.77308 0.30747 0.0
H2591 H 0.71448 0.77087 0.32924 0.0
Tb2592 Tb 0.78001 0.28355 0.79499 0.0
Tb2593 Tb 0.80644 0.28621 0.75982 0.0
C2594 C 0.76699 0.29676 0.75705 0.0
C2595 C 0.75693 0.26533 0.83663 0.0
C2596 C 0.75378 0.2396 0.86563 0.0
C2597 C 0.74333 0.25396 0.86511 0.0
C2598 C 0.74498 0.26683 0.85072 0.0
C2599 C 0.7668 0.25049 0.83671 0.0
C2600 C 0.76533 0.23779 0.85116 0.0
C2601 C 0.76011 0.28 0.82255 0.0
O2602 O 0.76873 0.25579 0.77708 0.0
O2603 O 0.79605 0.25445 0.76417 0.0
O2604 O 0.8247 0.2839 0.78438 0.0
O2605 O 0.80143 0.26837 0.80264 0.0
O2606 O 0.81077 0.27325 0.73404 0.0
O2607 O 0.83091 0.30042 0.74682 0.0
O2608 O 0.80844 0.31733 0.76927 0.0
O2609 O 0.80196 0.31204 0.79944 0.0
O2610 O 0.76867 0.30059 0.77521 0.0
O2611 O 0.77828 0.28768 0.74862 0.0
C2612 C 0.77876 0.24569 0.76819 0.0
O2613 O 0.77744 0.29153 0.82299 0.0
O2614 O 0.75338 0.27292 0.80564 0.0
C2615 C 0.81935 0.27381 0.79894 0.0
C2616 C 0.8264 0.29659 0.71408 0.0
C2617 C 0.82629 0.31027 0.6782 0.0
C2618 C 0.84197 0.30451 0.68576 0.0
C2619 C 0.84199 0.29768 0.70355 0.0
C2620 C 0.81095 0.30289 0.70688 0.0
C2621 C 0.81088 0.30964 0.68906 0.0
C2622 C 0.82595 0.28776 0.73202 0.0
C2623 C 0.80919 0.32405 0.78678 0.0
H2624 H 0.73445 0.25576 0.87618 0.0
H2625 H 0.73732 0.27825 0.85085 0.0
H2626 H 0.77598 0.24905 0.82583 0.0
H2627 H 0.77337 0.22671 0.85115 0.0
H2628 H 0.85419 0.30515 0.67789 0.0
H2629 H 0.85404 0.29291 0.70896 0.0
H2630 H 0.79877 0.3021 0.71486 0.0
H2631 H 0.7985 0.31376 0.6836 0.0
Tb2632 Tb 0.78066 0.7593 0.76686 0.0
Tb2633 Tb 0.79431 0.80477 0.78547 0.0
C2634 C 0.78151 0.79586 0.7416 0.0
C2635 C 0.77852 0.70615 0.75773 0.0
C2636 C 0.79659 0.67676 0.76774 0.0
C2637 C 0.77667 0.6718 0.76504 0.0
C2638 C 0.76769 0.68644 0.76006 0.0
C2639 C 0.7984 0.71095 0.75994 0.0
C2640 C 0.80734 0.69641 0.76485 0.0
C2641 C 0.76926 0.72229 0.75541 0.0
O2642 O 0.81139 0.7665 0.76119 0.0
O2643 O 0.82029 0.79985 0.77254 0.0
O2644 O 0.79462 0.78734 0.80967 0.0
O2645 O 0.79371 0.75684 0.79458 0.0
O2646 O 0.81689 0.82925 0.7974 0.0
O2647 O 0.78829 0.83177 0.79395 0.0
O2648 O 0.7645 0.79512 0.79411 0.0
O2649 O 0.75362 0.76593 0.77505 0.0
O2650 O 0.77897 0.77631 0.74252 0.0
O2651 O 0.78548 0.80852 0.75669 0.0
C2652 C 0.82455 0.78415 0.76373 0.0
O2653 O 0.76461 0.72981 0.77082 0.0
O2654 O 0.77749 0.73649 0.74518 0.0
C2655 C 0.79521 0.76852 0.81011 0.0
C2656 C 0.81206 0.86037 0.7892 0.0
C2657 C 0.81071 0.89469 0.77082 0.0
C2658 C 0.81293 0.89588 0.79035 0.0
C2659 C 0.81345 0.87873 0.7995 0.0
C2660 C 0.81205 0.85979 0.76975 0.0
C2661 C 0.81125 0.87682 0.76059 0.0
C2662 C 0.80604 0.84143 0.79816 0.0
C2663 C 0.75021 0.77947 0.78742 0.0
H2664 H 0.76806 0.65673 0.76709 0.0
H2665 H 0.75232 0.68257 0.75863 0.0
H2666 H 0.80705 0.72617 0.75855 0.0
H2667 H 0.82268 0.70083 0.76717 0.0
H2668 H 0.81236 0.90942 0.79854 0.0
H2669 H 0.81329 0.87937 0.81451 0.0
H2670 H 0.81097 0.84571 0.76159 0.0
H2671 H 0.80958 0.87558 0.74552 0.0
Tb2672 Tb 0.55888 0.54112 0.53058 0.0
Tb2673 Tb 0.51709 0.5142 0.51222 0.0
C2674 C 0.52117 0.54414 0.54767 0.0
C2675 C 0.60773 0.54853 0.54606 0.0
C2676 C 0.63469 0.52717 0.55275 0.0
C2677 C 0.63788 0.54706 0.56077 0.0
C2678 C 0.62429 0.55765 0.55761 0.0
C2679 C 0.60502 0.52899 0.53746 0.0
C2680 C 0.61829 0.51832 0.54092 0.0
C2681 C 0.59216 0.55801 0.54431 0.0
O2682 O 0.55696 0.50952 0.53593 0.0
O2683 O 0.52471 0.49805 0.53509 0.0
O2684 O 0.53748 0.50128 0.49929 0.0
O2685 O 0.56188 0.53027 0.50244 0.0
O2686 O 0.49088 0.49349 0.51522 0.0
O2687 O 0.49802 0.50412 0.48846 0.0
O2688 O 0.52464 0.54195 0.49776 0.0
O2689 O 0.54628 0.56377 0.51917 0.0
O2690 O 0.5391 0.54463 0.55066 0.0
O2691 O 0.51079 0.53563 0.53238 0.0
C2692 C 0.54158 0.49581 0.53959 0.0
O2693 O 0.58616 0.55982 0.52732 0.0
O2694 O 0.57812 0.55032 0.55421 0.0
C2695 C 0.55391 0.51199 0.49464 0.0
C2696 C 0.46669 0.49968 0.49641 0.0
C2697 C 0.43212 0.50946 0.49906 0.0
C2698 C 0.43228 0.48944 0.49393 0.0
C2699 C 0.44949 0.48458 0.49267 0.0
C2700 C 0.4666 0.51978 0.50078 0.0
C2701 C 0.44947 0.52464 0.5021 0.0
C2702 C 0.48461 0.49427 0.49813 0.0
C2703 C 0.53412 0.56048 0.50435 0.0
H2704 H 0.65056 0.55413 0.56984 0.0
H2705 H 0.6265 0.57267 0.56444 0.0
H2706 H 0.59239 0.52176 0.5284 0.0
H2707 H 0.61575 0.50311 0.53437 0.0
H2708 H 0.41913 0.47748 0.49135 0.0
H2709 H 0.44939 0.46897 0.48943 0.0
H2710 H 0.4798 0.53158 0.50396 0.0
H2711 H 0.44989 0.54012 0.50642 0.0
Tb2712 Tb 0.01846 0.53313 0.01716 0.0
Tb2713 Tb 0.0629 0.52945 0.02565 0.0
C2714 C 0.03262 0.51932 0.0539 0.0
C2715 C 0.97363 0.55086 0.01545 0.0
C2716 C 0.95 0.57662 0.02284 0.0
C2717 C 0.94216 0.55637 0.01561 0.0
C2718 C 0.95383 0.54369 0.01196 0.0
C2719 C 0.98158 0.57096 0.0229 0.0
C2720 C 0.96991 0.58368 0.02656 0.0
C2721 C 0.9856 0.53754 0.00999 0.0
O2722 O 0.03581 0.56394 0.02582 0.0
O2723 O 0.06228 0.55787 0.04077 0.0
O2724 O 0.06221 0.54886 0.00329 0.0
O2725 O 0.0322 0.53194 0.99158 0.0
O2726 O 0.08523 0.52734 0.04463 0.0
O2727 O 0.08845 0.52775 0.01512 0.0
O2728 O 0.04799 0.50157 0.00887 0.0
O2729 O 0.01636 0.50093 0.01085 0.0
O2730 O 0.02386 0.53174 0.04683 0.0
O2731 O 0.04414 0.51195 0.04423 0.0
C2732 C 0.05154 0.56999 0.03699 0.0
O2733 O 1.00043 0.54572 1.0012 0.0
O2734 O 0.98939 0.52564 0.02213 0.0
C2735 C 0.04911 0.54362 0.98944 0.0
C2736 C 0.10578 0.50914 0.032 0.0
C2737 C 0.12715 0.48025 0.03137 0.0
C2738 C 0.11067 0.47742 0.01922 0.0
C2739 C 0.1001 0.49164 0.01958 0.0
C2740 C 0.12191 0.51182 0.04439 0.0
C2741 C 0.13244 0.49756 0.04413 0.0
C2742 C 0.09607 0.52544 0.03133 0.0
C2743 C 0.0297 0.49215 0.00656 0.0
H2744 H 0.92695 0.55021 0.01285 0.0
H2745 H 0.94738 0.52827 0.00616 0.0
H2746 H 0.99683 0.57692 0.02561 0.0
H2747 H 0.97656 0.59921 0.03192 0.0
H2748 H 0.10616 0.46449 0.00902 0.0
H2749 H 0.08772 0.48915 0.00983 0.0
H2750 H 0.1266 0.52518 0.05411 0.0
H2751 H 0.14474 0.50016 0.05397 0.0
H2752 H 0.03355 0.17425 0.98515 0.0
H2753 H 0.98101 0.14814 0.95057 0.0
H2754 H 0.98036 0.11443 0.96049 0.0
H2755 H 0.05402 0.13279 0.9759 0.0
H2756 H 0.06488 0.1344 0.9992 0.0
H2757 H 0.06104 0.15671 0.98979 0.0
H2758 H 0.04207 0.16228 0.01778 0.0
H2759 H 0.04583 0.13997 0.02726 0.0
H2760 H 0.02205 0.14219 0.02303 0.0
H2761 H 0.98565 0.0829 0.97373 0.0
H2762 H 0.99644 0.05657 0.98927 0.0
H2763 H 0.0457 0.10265 0.01516 0.0
C2764 C 0.02192 0.16147 0.97958 0.0
C2765 C 1.00722 0.16418 0.96712 0.0
C2766 C 0.99226 0.14684 0.96039 0.0
C2767 C 0.99182 0.12747 0.96586 0.0
C2768 C 1.00646 0.12539 0.97812 0.0
C2769 C 0.02124 0.14193 0.98492 0.0
C2770 C 0.03527 0.13547 0.99787 0.0
C2771 C 0.05497 0.14012 0.99023 0.0
C2772 C 0.03636 0.14558 0.01766 0.0
C2773 C 0.02612 0.11275 0.99721 0.0
C2774 C 0.0095 0.10725 0.98573 0.0
C2775 C 0.99864 0.08708 0.98277 0.0
C2776 C 1.00492 0.07217 0.99168 0.0
C2777 C 0.02194 0.07735 0.00353 0.0
C2778 C 0.03258 0.09804 0.00629 0.0
H2779 H 0.19061 0.81763 0.1821 0.0
H2780 H 0.15031 0.7593 0.18648 0.0
H2781 H 0.17395 0.74942 0.20671 0.0
H2782 H 0.23229 0.79831 0.18046 0.0
H2783 H 0.24802 0.81988 0.19403 0.0
H2784 H 0.22798 0.82284 0.17993 0.0
H2785 H 0.21607 0.83828 0.20887 0.0
H2786 H 0.23611 0.83543 0.22302 0.0
H2787 H 0.21233 0.82434 0.22925 0.0
H2788 H 0.20093 0.746 0.22729 0.0
H2789 H 0.23053 0.74869 0.24647 0.0
H2790 H 0.25518 0.80831 0.22818 0.0
C2791 C 0.18682 0.80282 0.18739 0.0
C2792 C 0.16857 0.78919 0.18265 0.0
C2793 C 0.1642 0.7699 0.18975 0.0
C2794 C 0.17753 0.76416 0.20131 0.0
C2795 C 0.19539 0.77777 0.20559 0.0
C2796 C 0.20019 0.79666 0.1988 0.0
C2797 C 0.22062 0.80812 0.20551 0.0
C2798 C 0.23295 0.81255 0.18899 0.0
C2799 C 0.22132 0.8277 0.21737 0.0
C2800 C 0.22635 0.7928 0.21727 0.0
C2801 C 0.21144 0.77547 0.21711 0.0
C2802 C 0.21276 0.75942 0.22741 0.0
C2803 C 0.22965 0.76111 0.2383 0.0
C2804 C 0.24524 0.77861 0.23876 0.0
C2805 C 0.24362 0.79461 0.22789 0.0
H2806 H 0.54368 0.88469 0.4758 0.0
H2807 H 0.48409 0.85847 0.48337 0.0
H2808 H 0.48218 0.89136 0.49751 0.0
H2809 H 0.55488 0.91806 0.51898 0.0
H2810 H 0.57075 0.93847 0.50862 0.0
H2811 H 0.56777 0.91265 0.49974 0.0
H2812 H 0.55853 0.92144 0.46679 0.0
H2813 H 0.56147 0.94727 0.4756 0.0
H2814 H 0.53927 0.93282 0.46349 0.0
H2815 H 0.48637 0.92748 0.51024 0.0
H2816 H 0.49644 0.96396 0.52055 0.0
H2817 H 0.55328 0.96726 0.50468 0.0
C2818 C 0.5303 0.8858 0.48067 0.0
C2819 C 0.51401 0.86886 0.47837 0.0
C2820 C 0.49672 0.87116 0.48472 0.0
C2821 C 0.49551 0.88981 0.49288 0.0
C2822 C 0.5117 0.90624 0.49467 0.0
C2823 C 0.5288 0.90444 0.48879 0.0
C2824 C 0.54391 0.92469 0.4919 0.0
C2825 C 0.5603 0.92338 0.50563 0.0
C2826 C 0.55122 0.93198 0.47334 0.0
C2827 C 0.5326 0.93809 0.50034 0.0
C2828 C 0.51407 0.92712 0.50189 0.0
C2829 C 0.50088 0.9362 0.50913 0.0
C2830 C 0.50675 0.95701 0.51497 0.0
C2831 C 0.52567 0.96869 0.5135 0.0
C2832 C 0.5387 0.95892 0.50606 0.0
H2833 H 0.4947 0.30461 0.70004 0.0
H2834 H 0.48024 0.24641 0.66765 0.0
H2835 H 0.44909 0.23715 0.68072 0.0
H2836 H 0.47246 0.2865 0.7409 0.0
H2837 H 0.46406 0.30842 0.74595 0.0
H2838 H 0.48517 0.31078 0.73379 0.0
H2839 H 0.47035 0.32611 0.70687 0.0
H2840 H 0.44917 0.32374 0.71894 0.0
H2841 H 0.44755 0.3123 0.69553 0.0
H2842 H 0.4196 0.2339 0.69729 0.0
H2843 H 0.39395 0.2365 0.71698 0.0
H2844 H 0.42709 0.29666 0.73908 0.0
C2845 C 0.48492 0.28998 0.69559 0.0
C2846 C 0.49005 0.27619 0.68286 0.0
C2847 C 0.47685 0.25712 0.67758 0.0
C2848 C 0.45903 0.25176 0.68483 0.0
C2849 C 0.45447 0.26562 0.69737 0.0
C2850 C 0.46702 0.28433 0.70276 0.0
C2851 C 0.45864 0.29619 0.71679 0.0
C2852 C 0.47081 0.30073 0.73546 0.0
C2853 C 0.45629 0.31574 0.70907 0.0
C2854 C 0.43949 0.28118 0.71847 0.0
C2855 C 0.4374 0.26369 0.70707 0.0
C2856 C 0.4211 0.24751 0.70631 0.0
C2857 C 0.40663 0.24909 0.71765 0.0
C2858 C 0.40847 0.26671 0.72973 0.0
C2859 C 0.42512 0.28305 0.72992 0.0
H2860 H 0.03922 0.8821 0.57722 0.0
H2861 H 0.04333 0.90953 0.63368 0.0
H2862 H 0.04479 0.94229 0.62155 0.0
H2863 H 0.07185 0.92621 0.55887 0.0
H2864 H 0.0586 0.92346 0.53658 0.0
H2865 H 0.05766 0.90156 0.54929 0.0
H2866 H 0.02112 0.89328 0.54777 0.0
H2867 H 0.02195 0.91516 0.53505 0.0
H2868 H 0.01019 0.91224 0.5563 0.0
H2869 H 0.04553 0.97351 0.60346 0.0
H2870 H 0.046 0.99949 0.58151 0.0
H2871 H 0.04213 0.95464 0.53533 0.0
C2872 C 0.04048 0.89493 0.58715 0.0
C2873 C 0.04073 0.8922 0.60685 0.0
C2874 C 0.04246 0.9101 0.61874 0.0
C2875 C 0.0435 0.92923 0.61189 0.0
C2876 C 0.04294 0.93123 0.59271 0.0
C2877 C 0.04152 0.91456 0.58041 0.0
C2878 C 0.04124 0.92127 0.56036 0.0
C2879 C 0.05835 0.91792 0.55069 0.0
C2880 C 0.02251 0.9098 0.5492 0.0
C2881 C 0.04272 0.94415 0.56332 0.0
C2882 C 0.04366 0.94941 0.58222 0.0
C2883 C 0.04488 0.96939 0.58868 0.0
C2884 C 0.04511 0.98427 0.57587 0.0
C2885 C 0.04418 0.97986 0.55622 0.0
C2886 C 0.04301 0.95913 0.55006 0.0
H2887 H 0.41704 0.74584 0.83382 0.0
H2888 H 0.44872 0.80857 0.83097 0.0
H2889 H 0.41984 0.81594 0.81815 0.0
H2890 H 0.38625 0.74193 0.79054 0.0
H2891 H 0.36514 0.72639 0.79926 0.0
H2892 H 0.38824 0.72537 0.80843 0.0
H2893 H 0.38001 0.73391 0.84164 0.0
H2894 H 0.35689 0.73495 0.83255 0.0
H2895 H 0.37235 0.75634 0.84658 0.0
H2896 H 0.38678 0.8176 0.80543 0.0
H2897 H 0.35362 0.81319 0.79388 0.0
H2898 H 0.34038 0.74947 0.80344 0.0
C2899 C 0.41802 0.76119 0.83057 0.0
C2900 C 0.43616 0.77646 0.83353 0.0
C2901 C 0.43589 0.79619 0.82876 0.0
C2902 C 0.41919 0.80068 0.82146 0.0
C2903 C 0.40194 0.78547 0.81859 0.0
C2904 C 0.40115 0.76603 0.82295 0.0
C2905 C 0.38047 0.75261 0.81818 0.0
C2906 C 0.38 0.73555 0.80322 0.0
C2907 C 0.37193 0.74393 0.83579 0.0
C2908 C 0.36988 0.7675 0.81058 0.0
C2909 C 0.38275 0.7864 0.81108 0.0
C2910 C 0.37675 0.80278 0.80503 0.0
C2911 C 0.35751 0.80006 0.79839 0.0
C2912 C 0.3435 0.781 0.7974 0.0
C2913 C 0.35019 0.7644 0.80374 0.0
H2914 H 0.52752 0.17932 0.07623 0.0
H2915 H 0.54598 0.1686 0.13198 0.0
H2916 H 0.54934 0.13575 0.12015 0.0
H2917 H 0.50012 0.1261 0.0628 0.0
H2918 H 0.50652 0.12609 0.0391 0.0
H2919 H 0.50552 0.14934 0.05147 0.0
H2920 H 0.54013 0.16621 0.04474 0.0
H2921 H 0.54124 0.143 0.03238 0.0
H2922 H 0.55851 0.15459 0.05149 0.0
H2923 H 0.55148 0.1034 0.10275 0.0
H2924 H 0.55132 0.07412 0.08154 0.0
H2925 H 0.53067 0.10223 0.0356 0.0
C2926 C 0.53221 0.1701 0.08604 0.0
C2927 C 0.53687 0.17762 0.10536 0.0
C2928 C 0.54285 0.16435 0.11722 0.0
C2929 C 0.54467 0.14522 0.11058 0.0
C2930 C 0.54037 0.13859 0.09173 0.0
C2931 C 0.53413 0.15052 0.07954 0.0
C2932 C 0.5304 0.13922 0.05987 0.0
C2933 C 0.50939 0.13494 0.05289 0.0
C2934 C 0.54334 0.15149 0.04631 0.0
C2935 C 0.53557 0.11926 0.06298 0.0
C2936 C 0.5413 0.11948 0.08158 0.0
C2937 C 0.54697 0.1032 0.08818 0.0
C2938 C 0.54685 0.08639 0.07578 0.0
C2939 C 0.54105 0.08515 0.05646 0.0
C2940 C 0.53523 0.10218 0.05012 0.0
H2941 H 0.16216 0.3038 0.33852 0.0
H2942 H 0.13325 0.23971 0.32826 0.0
H2943 H 0.16093 0.23426 0.31367 0.0
H2944 H 0.18665 0.30835 0.295 0.0
H2945 H 0.20855 0.32548 0.30532 0.0
H2946 H 0.18647 0.32509 0.3152 0.0
H2947 H 0.20041 0.31851 0.34704 0.0
H2948 H 0.22253 0.31891 0.33726 0.0
H2949 H 0.2102 0.29727 0.34875 0.0
H2950 H 0.19282 0.23468 0.29971 0.0
H2951 H 0.22455 0.24102 0.28816 0.0
H2952 H 0.23586 0.30485 0.30592 0.0
C2953 C 0.1615 0.28853 0.33326 0.0
C2954 C 0.14434 0.27231 0.33473 0.0
C2955 C 0.14514 0.25282 0.32734 0.0
C2956 C 0.16124 0.24942 0.31897 0.0
C2957 C 0.17746 0.26551 0.31759 0.0
C2958 C 0.1778 0.28479 0.32455 0.0
C2959 C 0.19737 0.2993 0.32106 0.0
C2960 C 0.1946 0.31553 0.3084 0.0
C2961 C 0.20828 0.30909 0.33964 0.0
C2962 C 0.20787 0.28524 0.31115 0.0
C2963 C 0.19591 0.26577 0.30944 0.0
C2964 C 0.20209 0.24996 0.30107 0.0
C2965 C 0.22052 0.25381 0.2944 0.0
C2966 C 0.23362 0.27349 0.29563 0.0
C2967 C 0.22674 0.2895 0.30431 0.0
H2968 H 0.95792 0.05189 0.13438 0.0
H2969 H 1.00561 0.08926 0.17029 0.0
H2970 H 0.02585 0.09229 0.1439 0.0
H2971 H 0.98112 0.02334 0.11113 0.0
H2972 H 0.96899 0.02209 0.08844 0.0
H2973 H 0.95737 0.02613 0.10893 0.0
H2974 H 0.95185 0.05864 0.09671 0.0
H2975 H 0.96387 0.05528 0.07618 0.0
H2976 H 0.97175 0.07854 0.09093 0.0
H2977 H 0.04201 0.0858 0.11569 0.0
H2978 H 0.05241 0.07274 0.08673 0.0
H2979 H 0.99388 0.04038 0.06891 0.0
C2980 C 0.97247 0.06123 0.13646 0.0
C2981 C 0.98028 0.07043 0.15421 0.0
C2982 C 0.99938 0.08237 0.15665 0.0
C2983 C 0.01096 0.08412 0.14178 0.0
C2984 C 1.00304 0.07418 0.12456 0.0
C2985 C 0.98411 0.06333 0.12171 0.0
C2986 C 0.97946 0.05278 0.1023 0.0
C2987 C 0.97127 0.02972 0.10275 0.0
C2988 C 0.96592 0.06185 0.09086 0.0
C2989 C 0.999 0.05811 0.0952 0.0
C2990 C 0.01235 0.07077 0.10809 0.0
C2991 C 0.03163 0.0763 0.10529 0.0
C2992 C 0.03742 0.06867 0.08887 0.0
C2993 C 0.02394 0.0556 0.07555 0.0
C2994 C 1.00449 0.05055 0.07871 0.0
H2995 H 0.27996 0.71231 0.47089 0.0
H2996 H 0.28881 0.65545 0.44943 0.0
H2997 H 0.28312 0.664 0.41739 0.0
H2998 H 0.24183 0.71214 0.43654 0.0
H2999 H 0.24941 0.73914 0.43506 0.0
H3000 H 0.25419 0.72862 0.45642 0.0
H3001 H 0.29009 0.74654 0.45601 0.0
H3002 H 0.28541 0.75717 0.4347 0.0
H3003 H 0.30224 0.74237 0.43579 0.0
H3004 H 0.27686 0.67868 0.38783 0.0
H3005 H 0.27099 0.69907 0.3624 0.0
H3006 H 0.2656 0.74608 0.40297 0.0
C3007 C 0.28058 0.7016 0.45946 0.0
C3008 C 0.285 0.6833 0.46267 0.0
C3009 C 0.28585 0.66976 0.44732 0.0
C3010 C 0.28245 0.67438 0.42907 0.0
C3011 C 0.27811 0.69252 0.42641 0.0
C3012 C 0.27716 0.70593 0.44115 0.0
C3013 C 0.27242 0.7245 0.43442 0.0
C3014 C 0.25333 0.72619 0.441 0.0
C3015 C 0.2885 0.74378 0.44059 0.0
C3016 C 0.27106 0.7195 0.41359 0.0
C3017 C 0.27432 0.70094 0.40929 0.0
C3018 C 0.27425 0.69323 0.39099 0.0
C3019 C 0.27099 0.70493 0.37667 0.0
C3020 C 0.26788 0.72413 0.38076 0.0
C3021 C 0.2677 0.73135 0.39946 0.0
H3022 H 0.59441 0.98647 0.65034 0.0
H3023 H 0.56705 0.02099 0.68617 0.0
H3024 H 0.54649 0.02499 0.65913 0.0
H3025 H 0.59788 0.01614 0.61444 0.0
H3026 H 0.59338 0.99615 0.59597 0.0
H3027 H 0.60322 0.99261 0.61845 0.0
H3028 H 0.57558 0.96027 0.62039 0.0
H3029 H 0.5657 0.96362 0.59776 0.0
H3030 H 0.55139 0.96156 0.61734 0.0
H3031 H 0.53252 0.02959 0.62765 0.0
H3032 H 0.52638 0.03431 0.59444 0.0
H3033 H 0.5628 0.99643 0.57958 0.0
C3034 C 0.58358 0.99417 0.65262 0.0
C3035 C 0.58221 1.00331 0.67032 0.0
C3036 C 0.56832 0.01391 0.67267 0.0
C3037 C 0.55651 0.01614 0.65743 0.0
C3038 C 0.55867 0.00752 0.64 0.0
C3039 C 0.57175 0.99657 0.63757 0.0
C3040 C 0.57282 0.99078 0.61721 0.0
C3041 C 0.59301 0.99945 0.61118 0.0
C3042 C 0.56596 0.96768 0.61293 0.0
C3043 C 0.55899 1.00099 0.60854 0.0
C3044 C 0.55068 0.01026 0.62186 0.0
C3045 C 0.53863 0.02205 0.61708 0.0
C3046 C 0.53526 0.02468 0.59819 0.0
C3047 C 0.54409 0.01573 0.58441 0.0
C3048 C 0.55571 1.00337 0.58973 0.0
H3049 H 0.28085 0.33332 0.91782 0.0
H3050 H 0.31521 0.29709 0.94129 0.0
H3051 H 0.32053 0.28537 0.90975 0.0
H3052 H 0.25821 0.2963 0.87899 0.0
H3053 H 0.25799 0.31513 0.86282 0.0
H3054 H 0.25698 0.32114 0.88732 0.0
H3055 H 0.28652 0.3518 0.88701 0.0
H3056 H 0.28766 0.34584 0.86253 0.0
H3057 H 0.30802 0.34796 0.87858 0.0
H3058 H 0.32271 0.27753 0.87538 0.0
H3059 H 0.32048 0.27327 0.84112 0.0
H3060 H 0.28374 0.31318 0.83886 0.0
C3061 C 0.28937 0.32278 0.91644 0.0
C3062 C 0.29779 0.31651 0.9325 0.0
C3063 C 0.30893 0.30275 0.92959 0.0
C3064 C 0.31194 0.29579 0.91158 0.0
C3065 C 0.30366 0.30243 0.89621 0.0
C3066 C 0.29247 0.31551 0.89841 0.0
C3067 C 0.28507 0.32007 0.8794 0.0
C3068 C 0.26327 0.31272 0.877 0.0
C3069 C 0.29225 0.34277 0.87673 0.0
C3070 C 0.29391 0.30758 0.86625 0.0
C3071 C 0.30462 0.29759 0.87631 0.0
C3072 C 0.3143 0.28527 0.8674 0.0
C3073 C 0.31297 0.28297 0.8478 0.0
C3074 C 0.30196 0.29283 0.83696 0.0
C3075 C 0.29232 0.30537 0.84652 0.0
H3076 H 1.00201 0.06324 0.34062 0.0
H3077 H 0.02345 0.02747 0.30018 0.0
H3078 H 0.04368 0.01898 0.3252 0.0
H3079 H 0.04686 0.08091 0.37288 0.0
H3080 H 0.03336 0.07872 0.39305 0.0
H3081 H 0.02373 0.08537 0.37157 0.0
H3082 H 0.99369 0.05522 0.37229 0.0
H3083 H 1.00326 0.04845 0.39362 0.0
H3084 H 0.99631 0.03005 0.37377 0.0
H3085 H 0.05643 0.00901 0.35494 0.0
H3086 H 0.06199 0.99993 0.38701 0.0
H3087 H 0.03262 0.04259 0.40787 0.0
C3088 C 0.01138 0.05409 0.337 0.0
C3089 C 0.01126 0.04608 0.31851 0.0
C3090 C 0.02357 0.03403 0.31424 0.0
C3091 C 0.03508 0.0291 0.32836 0.0
C3092 C 0.0343 0.0366 0.34659 0.0
C3093 C 0.02298 0.04912 0.3509 0.0
C3094 C 0.02308 0.0534 0.3717 0.0
C3095 C 0.03231 0.07594 0.37765 0.0
C3096 C 1.0029 0.04635 0.37821 0.0
C3097 C 0.03542 0.04048 0.37844 0.0
C3098 C 0.04198 0.03111 0.36379 0.0
C3099 C 0.05184 0.01668 0.36656 0.0
C3100 C 0.05483 0.01153 0.38475 0.0
C3101 C 0.04801 0.02083 0.39985 0.0
C3102 C 0.03854 0.03575 0.39663 0.0
H3103 H 0.29084 0.68091 0.6602 0.0
H3104 H 0.33211 0.72691 0.63457 0.0
H3105 H 0.33536 0.75029 0.66266 0.0
H3106 H 0.26693 0.71415 0.67983 0.0
H3107 H 0.26219 0.70133 0.70074 0.0
H3108 H 0.26469 0.6874 0.67955 0.0
H3109 H 0.29139 0.67521 0.69626 0.0
H3110 H 0.2887 0.68901 0.71749 0.0
H3111 H 0.31164 0.69363 0.70823 0.0
H3112 H 0.33234 0.76947 0.69235 0.0
H3113 H 0.3233 0.78324 0.72163 0.0
H3114 H 0.28317 0.72503 0.72744 0.0
C3115 C 0.30064 0.69586 0.66048 0.0
C3116 C 0.31129 0.70201 0.64518 0.0
C3117 C 0.32406 0.72168 0.64623 0.0
C3118 C 0.32593 0.73512 0.66209 0.0
C3119 C 0.31495 0.72866 0.67675 0.0
C3120 C 0.30257 0.7095 0.67611 0.0
C3121 C 0.29154 0.70672 0.69324 0.0
C3122 C 0.27007 0.70214 0.68802 0.0
C3123 C 0.29611 0.69016 0.70447 0.0
C3124 C 0.29943 0.72746 0.70349 0.0
C3125 C 0.31302 0.73983 0.69381 0.0
C3126 C 0.32184 0.75989 0.70014 0.0
C3127 C 0.31656 0.76757 0.71678 0.0
C3128 C 0.3025 0.75523 0.72685 0.0
C3129 C 0.29399 0.73486 0.72012 0.0
H3130 H 0.59427 0.99161 0.83544 0.0
H3131 H 0.65092 0.03113 0.85076 0.0
H3132 H 0.64016 0.04262 0.8801 0.0
H3133 H 0.56966 0.02546 0.8514 0.0
H3134 H 0.55057 0.00672 0.86005 0.0
H3135 H 0.56308 0.99969 0.8412 0.0
H3136 H 0.57109 0.97175 0.85988 0.0
H3137 H 0.55842 0.97854 0.87874 0.0
H3138 H 0.58282 0.97833 0.88298 0.0
H3139 H 0.62268 0.05251 0.90602 0.0
H3140 H 0.59995 0.05824 0.9282 0.0
H3141 H 0.55459 0.01251 0.89613 0.0
C3142 C 0.60447 1.00245 0.84511 0.0
C3143 C 0.62347 0.01035 0.84087 0.0
C3144 C 0.63639 0.02454 0.85386 0.0
C3145 C 0.63039 0.03129 0.87051 0.0
C3146 C 0.61145 0.02361 0.87402 0.0
C3147 C 0.59872 0.00932 0.86182 0.0
C3148 C 0.57896 1.0042 0.86856 0.0
C3149 C 0.56474 0.00933 0.85446 0.0
C3150 C 0.57244 0.98188 0.87279 0.0
C3151 C 0.5825 0.01823 0.8862 0.0
C3152 C 0.60135 0.02925 0.8891 0.0
C3153 C 0.60792 0.04383 0.90402 0.0
C3154 C 0.5949 0.04711 0.91642 0.0
C3155 C 0.57556 0.03584 0.91382 0.0
C3156 C 0.56934 0.02119 0.89852 0.0
H3157 H 0.30094 0.34007 0.14524 0.0
H3158 H 0.25948 0.28726 0.11738 0.0
H3159 H 0.25354 0.27309 0.14752 0.0
H3160 H 0.32037 0.31275 0.1793 0.0
H3161 H 0.32372 0.33233 0.19799 0.0
H3162 H 0.32462 0.33883 0.17424 0.0
H3163 H 0.2984 0.35697 0.17887 0.0
H3164 H 0.29734 0.35039 0.20261 0.0
H3165 H 0.27614 0.34325 0.18693 0.0
H3166 H 0.25201 0.26395 0.18071 0.0
H3167 H 0.25578 0.2601 0.21426 0.0
H3168 H 0.29843 0.31823 0.22191 0.0
C3169 C 0.29068 0.32546 0.14541 0.0
C3170 C 0.28054 0.31503 0.12857 0.0
C3171 C 0.26719 0.29597 0.1298 0.0
C3172 C 0.26377 0.28765 0.14698 0.0
C3173 C 0.27377 0.29836 0.16318 0.0
C3174 C 0.28703 0.31684 0.1626 0.0
C3175 C 0.29595 0.32498 0.18222 0.0
C3176 C 0.31744 0.32736 0.18351 0.0
C3177 C 0.29171 0.3451 0.18799 0.0
C3178 C 0.2857 0.30817 0.19383 0.0
C3179 C 0.27294 0.29302 0.18246 0.0
C3180 C 0.26196 0.27576 0.18971 0.0
C3181 C 0.2642 0.27373 0.20892 0.0
C3182 C 0.27733 0.28882 0.22105 0.0
C3183 C 0.2881 0.30642 0.21324 0.0
H3184 H 0.20777 0.978 0.02544 0.0
H3185 H 0.24658 0.01688 0.99163 0.0
H3186 H 0.22874 0.04258 0.99502 0.0
H3187 H 0.16629 0.98803 0.00658 0.0
H3188 H 0.15525 0.98719 0.02825 0.0
H3189 H 0.17202 0.97284 0.02429 0.0
H3190 H 0.19218 0.99056 0.05447 0.0
H3191 H 0.17548 1.00504 0.05848 0.0
H3192 H 0.20026 0.01783 0.05738 0.0
H3193 H 0.20581 0.06343 0.00139 0.0
H3194 H 0.17829 0.07641 0.00824 0.0
H3195 H 0.1548 0.02329 0.03736 0.0
C3196 C 0.21267 0.99206 0.019 0.0
C3197 C 0.22856 0.99561 0.00839 0.0
C3198 C 0.23435 0.01394 0.99976 0.0
C3199 C 0.22442 0.02864 0.00173 0.0
C3200 C 0.20877 0.02466 0.01232 0.0
C3201 C 0.20288 0.00675 0.02071 0.0
C3202 C 0.18495 1.00549 0.03031 0.0
C3203 C 0.16867 0.98732 0.02184 0.0
C3204 C 0.18844 1.00469 0.05142 0.0
C3205 C 0.18145 0.02534 0.02578 0.0
C3206 C 0.19545 0.03637 0.01563 0.0
C3207 C 0.19483 0.05498 0.00943 0.0
C3208 C 0.17925 0.06227 0.01341 0.0
C3209 C 0.16454 0.05075 0.02323 0.0
C3210 C 0.16588 0.0323 0.02975 0.0
H3211 H 0.67943 0.62435 0.04203 0.0
H3212 H 0.69108 0.60315 0.9872 0.0
H3213 H 0.66005 0.5777 0.98418 0.0
H3214 H 0.65361 0.57543 0.05612 0.0
H3215 H 0.63638 0.58507 0.06772 0.0
H3216 H 0.66001 0.60122 0.06625 0.0
H3217 H 0.64606 0.62753 0.05076 0.0
H3218 H 0.62241 0.61152 0.05229 0.0
H3219 H 0.62999 0.61968 0.0301 0.0
H3220 H 0.6276 0.55516 0.98634 0.0
H3221 H 0.59505 0.53772 0.99297 0.0
H3222 H 0.60308 0.57344 0.04612 0.0
C3223 C 0.67548 0.61443 0.02934 0.0
C3224 C 0.68804 0.61574 0.01496 0.0
C3225 C 0.68213 0.60227 0.99867 0.0
C3226 C 0.6644 0.58777 0.99674 0.0
C3227 C 0.65251 0.58684 0.01116 0.0
C3228 C 0.65769 0.59983 0.02712 0.0
C3229 C 0.64183 0.59593 0.04022 0.0
C3230 C 0.64835 0.589 0.05867 0.0
C3231 C 0.63465 0.61479 0.04353 0.0
C3232 C 0.62689 0.57884 0.02901 0.0
C3233 C 0.63349 0.57382 0.01235 0.0
C3234 C 0.6223 0.55891 0.99936 0.0
C3235 C 0.60376 0.54907 0.00329 0.0
C3236 C 0.59639 0.55409 0.02011 0.0
C3237 C 0.6083 0.56904 0.03325 0.0
H3238 H 0.73967 0.45897 0.32087 0.0
H3239 H 0.75104 0.49547 0.2739 0.0
H3240 H 0.7753 0.47855 0.26516 0.0
H3241 H 0.78927 0.45553 0.33109 0.0
H3242 H 0.78095 0.42966 0.33678 0.0
H3243 H 0.76691 0.44703 0.3412 0.0
H3244 H 0.73819 0.42241 0.32155 0.0
H3245 H 0.75215 0.40508 0.31711 0.0
H3246 H 0.74094 0.41423 0.29792 0.0
H3247 H 0.79442 0.45441 0.25881 0.0
H3248 H 0.8069 0.42467 0.25521 0.0
H3249 H 0.78383 0.40438 0.30679 0.0
C3250 C 0.74749 0.4636 0.30892 0.0
C3251 C 0.74356 0.47854 0.29809 0.0
C3252 C 0.75406 0.48426 0.28255 0.0
C3253 C 0.76785 0.47474 0.27748 0.0
C3254 C 0.77109 0.45974 0.28823 0.0
C3255 C 0.76131 0.45431 0.30372 0.0
C3256 C 0.76614 0.43645 0.31186 0.0
C3257 C 0.77644 0.44254 0.33139 0.0
C3258 C 0.7483 0.41849 0.31211 0.0
C3259 C 0.77939 0.43204 0.29795 0.0
C3260 C 0.78234 0.44586 0.28463 0.0
C3261 C 0.79262 0.44377 0.26939 0.0
C3262 C 0.79971 0.42686 0.26751 0.0
C3263 C 0.79638 0.41223 0.28074 0.0
C3264 C 0.78656 0.41527 0.29641 0.0
H3265 H 0.8903 0.49551 0.47615 0.0
H3266 H 0.87679 0.49898 0.53375 0.0
H3267 H 0.91053 0.51429 0.54359 0.0
H3268 H 0.92957 0.47918 0.48393 0.0
H3269 H 0.94367 0.49328 0.46711 0.0
H3270 H 0.9182 0.48665 0.46383 0.0
H3271 H 0.91928 0.5244 0.46197 0.0
H3272 H 0.94485 0.53117 0.465 0.0
H3273 H 0.93178 0.54282 0.48051 0.0
H3274 H 0.94532 0.52236 0.54796 0.0
H3275 H 0.97957 0.52583 0.54617 0.0
H3276 H 0.97143 0.51827 0.48598 0.0
C3277 C 0.89441 0.50004 0.49077 0.0
C3278 C 0.88086 0.49623 0.50414 0.0
C3279 C 0.88679 0.50218 0.52318 0.0
C3280 C 0.90598 0.5108 0.52894 0.0
C3281 C 0.91905 0.51359 0.51551 0.0
C3282 C 0.91355 0.50873 0.49677 0.0
C3283 C 0.93064 0.51142 0.48542 0.0
C3284 C 0.9305 0.49144 0.47444 0.0
C3285 C 0.9317 0.52847 0.47246 0.0
C3286 C 0.94654 0.51745 0.50081 0.0
C3287 C 0.93949 0.5188 0.51804 0.0
C3288 C 0.9511 0.52194 0.53455 0.0
C3289 C 0.97042 0.52373 0.53343 0.0
C3290 C 0.97787 0.52251 0.51596 0.0
C3291 C 0.96593 0.51967 0.49944 0.0
H3292 H 0.36368 0.097 0.29132 0.0
H3293 H 0.40788 0.1419 0.32567 0.0
H3294 H 0.38698 0.16466 0.32703 0.0
H3295 H 0.34962 0.1314 0.26368 0.0
H3296 H 0.32479 0.11778 0.26162 0.0
H3297 H 0.34246 0.10437 0.26506 0.0
H3298 H 0.32668 0.08981 0.29423 0.0
H3299 H 0.30898 0.10327 0.29092 0.0
H3300 H 0.32312 0.10686 0.31279 0.0
H3301 H 0.36212 0.18325 0.3228 0.0
H3302 H 0.3359 0.19699 0.31217 0.0
H3303 H 0.30845 0.14 0.28003 0.0
C3304 C 0.36905 0.11164 0.2991 0.0
C3305 C 0.38744 0.11772 0.30834 0.0
C3306 C 0.39376 0.13686 0.31864 0.0
C3307 C 0.38201 0.14987 0.31948 0.0
C3308 C 0.36402 0.14344 0.31 0.0
C3309 C 0.3576 0.12479 0.29998 0.0
C3310 C 0.33821 0.12192 0.29007 0.0
C3311 C 0.33882 0.11869 0.26885 0.0
C3312 C 0.32337 0.10443 0.29745 0.0
C3313 C 0.33489 0.14211 0.29568 0.0
C3314 C 0.3498 0.1542 0.30741 0.0
C3315 C 0.35027 0.17385 0.31381 0.0
C3316 C 0.33527 0.18146 0.30778 0.0
C3317 C 0.32011 0.16948 0.29537 0.0
C3318 C 0.31984 0.14947 0.28952 0.0
H3319 H 0.36017 0.11708 0.53725 0.0
H3320 H 0.39251 0.17184 0.51495 0.0
H3321 H 0.4206 0.15866 0.51541 0.0
H3322 H 0.39879 0.11054 0.56812 0.0
H3323 H 0.39173 0.08334 0.56405 0.0
H3324 H 0.37416 0.09718 0.56232 0.0
H3325 H 0.36325 0.08068 0.52884 0.0
H3326 H 0.38079 0.06681 0.53045 0.0
H3327 H 0.38042 0.08279 0.51171 0.0
H3328 H 0.44524 0.13937 0.51778 0.0
H3329 H 0.46427 0.11513 0.52116 0.0
H3330 H 0.41647 0.07294 0.54263 0.0
C3331 C 0.3732 0.1264 0.53262 0.0
C3332 C 0.37398 0.14554 0.52596 0.0
C3333 C 0.39134 0.15704 0.51984 0.0
C3334 C 0.40747 0.14974 0.52017 0.0
C3335 C 0.40617 0.13083 0.52669 0.0
C3336 C 0.38948 0.11928 0.5328 0.0
C3337 C 0.39184 0.09926 0.53876 0.0
C3338 C 0.38896 0.09748 0.55955 0.0
C3339 C 0.37827 0.08133 0.52672 0.0
C3340 C 0.4124 0.10132 0.53495 0.0
C3341 C 0.42041 0.1197 0.52808 0.0
C3342 C 0.43914 0.12499 0.52328 0.0
C3343 C 0.44992 0.11111 0.52541 0.0
C3344 C 0.44207 0.09202 0.5323 0.0
C3345 C 0.423 0.08725 0.53721 0.0
H3346 H 0.70381 0.65038 0.31296 0.0
H3347 H 0.7488 0.62257 0.3265 0.0
H3348 H 0.7727 0.65345 0.31907 0.0
H3349 H 0.72302 0.6745 0.27463 0.0
H3350 H 0.71577 0.69721 0.27948 0.0
H3351 H 0.70236 0.67361 0.28721 0.0
H3352 H 0.70667 0.68979 0.32116 0.0
H3353 H 0.7199 0.71354 0.31349 0.0
H3354 H 0.73024 0.70213 0.33164 0.0
H3355 H 0.7912 0.68592 0.30696 0.0
H3356 H 0.80334 0.71932 0.29459 0.0
H3357 H 0.74618 0.72613 0.29037 0.0
C3358 C 0.71873 0.65099 0.31465 0.0
C3359 C 0.72457 0.63426 0.32033 0.0
C3360 C 0.74415 0.63543 0.32237 0.0
C3361 C 0.75777 0.65281 0.31808 0.0
C3362 C 0.75151 0.6689 0.31205 0.0
C3363 C 0.73248 0.66829 0.31068 0.0
C3364 C 0.72944 0.68746 0.30361 0.0
C3365 C 0.71691 0.68291 0.28514 0.0
C3366 C 0.72107 0.69891 0.31836 0.0
C3367 C 0.74968 0.69875 0.30081 0.0
C3368 C 0.76221 0.68779 0.30565 0.0
C3369 C 0.78156 0.69478 0.30337 0.0
C3370 C 0.7883 0.71365 0.29622 0.0
C3371 C 0.7757 0.72529 0.29165 0.0
C3372 C 0.75617 0.71766 0.29396 0.0
H3373 H 0.88024 0.4336 0.77971 0.0
H3374 H 0.86892 0.44859 0.83638 0.0
H3375 H 0.8464 0.41476 0.83664 0.0
H3376 H 0.83245 0.40472 0.76411 0.0
H3377 H 0.8397 0.38615 0.7498 0.0
H3378 H 0.8549 0.41163 0.75391 0.0
H3379 H 0.88245 0.39797 0.76652 0.0
H3380 H 0.86736 0.37245 0.76235 0.0
H3381 H 0.87877 0.38159 0.78525 0.0
H3382 H 0.82571 0.37943 0.8311 0.0
H3383 H 0.80813 0.34436 0.82022 0.0
H3384 H 0.83258 0.35206 0.76698 0.0
C3385 C 0.87312 0.42969 0.79221 0.0
C3386 C 0.87626 0.44372 0.80802 0.0
C3387 C 0.86652 0.43815 0.82404 0.0
C3388 C 0.85377 0.41896 0.82434 0.0
C3389 C 0.85088 0.40555 0.8085 0.0
C3390 C 0.86026 0.4106 0.79273 0.0
C3391 C 0.85458 0.39327 0.77762 0.0
C3392 C 0.84483 0.39931 0.76034 0.0
C3393 C 0.87182 0.38589 0.77265 0.0
C3394 C 0.84066 0.37766 0.78745 0.0
C3395 C 0.83875 0.3851 0.80524 0.0
C3396 C 0.82703 0.37343 0.81719 0.0
C3397 C 0.81711 0.35351 0.81087 0.0
C3398 C 0.81894 0.34547 0.79273 0.0
C3399 C 0.83076 0.35782 0.78085 0.0
H3400 H 0.05054 0.89344 0.0793 0.0
H3401 H 0.11155 0.90813 0.07584 0.0
H3402 H 0.11134 0.94123 0.06482 0.0
H3403 H 0.04019 0.91712 0.03787 0.0
H3404 H 0.02174 0.92623 0.0477 0.0
H3405 H 0.0266 0.90359 0.05532 0.0
H3406 H 0.03167 0.91926 0.08941 0.0
H3407 H 0.0269 0.94198 0.08189 0.0
H3408 H 0.04881 0.94346 0.09532 0.0
H3409 H 0.10464 0.97307 0.05404 0.0
H3410 H 0.09198 1.00086 0.04426 0.0
H3411 H 0.03517 0.966 0.0544 0.0
C3412 C 0.06386 0.9035 0.07607 0.0
C3413 C 0.08111 0.89798 0.07861 0.0
C3414 C 0.09818 0.91191 0.07437 0.0
C3415 C 0.09819 0.9308 0.06797 0.0
C3416 C 0.08103 0.93578 0.06579 0.0
C3417 C 0.06415 0.92253 0.06968 0.0
C3418 C 0.04768 0.93172 0.06622 0.0
C3419 C 0.0332 0.9189 0.05086 0.0
C3420 C 0.03821 0.93425 0.08429 0.0
C3421 C 0.05793 0.95218 0.05978 0.0
C3422 C 0.07717 0.95417 0.05963 0.0
C3423 C 0.08959 0.97164 0.05414 0.0
C3424 C 0.08223 0.98742 0.0486 0.0
C3425 C 0.06253 0.98584 0.04855 0.0
C3426 C 0.0503 0.96787 0.05431 0.0
H3427 H 0.92295 0.2726 0.84256 0.0
H3428 H 0.89417 0.24055 0.88698 0.0
H3429 H 0.86328 0.24072 0.87165 0.0
H3430 H 0.89228 0.30481 0.83669 0.0
H3431 H 0.89261 0.30419 0.81174 0.0
H3432 H 0.91258 0.30094 0.8257 0.0
H3433 H 0.90966 0.26686 0.80676 0.0
H3434 H 0.88969 0.27002 0.79271 0.0
H3435 H 0.88736 0.24744 0.80473 0.0
H3436 H 0.83552 0.24472 0.85207 0.0
H3437 H 0.81255 0.25281 0.82982 0.0
H3438 H 0.85862 0.28273 0.79761 0.0
C3439 C 0.91012 0.26541 0.84893 0.0
C3440 C 0.91106 0.25657 0.86606 0.0
C3441 C 0.89391 0.2476 0.87403 0.0
C3442 C 0.87625 0.24752 0.86536 0.0
C3443 C 0.87583 0.25651 0.84865 0.0
C3444 C 0.89228 0.26532 0.84048 0.0
C3445 C 0.88772 0.27445 0.82272 0.0
C3446 C 0.89684 0.29747 0.82432 0.0
C3447 C 0.89398 0.26407 0.80572 0.0
C3448 C 0.86618 0.26946 0.82227 0.0
C3449 C 0.85969 0.25901 0.83734 0.0
C3450 C 0.84044 0.25286 0.84019 0.0
C3451 C 0.82746 0.25756 0.82739 0.0
C3452 C 0.83363 0.26843 0.81182 0.0
C3453 C 0.85334 0.27436 0.80926 0.0
H3454 H 0.54567 0.1834 0.56977 0.0
H3455 H 0.60579 0.20011 0.58785 0.0
H3456 H 0.60698 0.16552 0.57843 0.0
H3457 H 0.53455 0.13301 0.58532 0.0
H3458 H 0.51779 0.12168 0.56575 0.0
H3459 H 0.52154 0.14797 0.57349 0.0
H3460 H 0.5296 0.15798 0.54039 0.0
H3461 H 0.52584 0.1317 0.53261 0.0
H3462 H 0.54809 0.14984 0.52957 0.0
H3463 H 0.6018 0.12888 0.56796 0.0
H3464 H 0.59069 0.09286 0.55644 0.0
H3465 H 0.53383 0.09903 0.54484 0.0
C3466 C 0.55909 0.1798 0.57177 0.0
C3467 C 0.5757 0.19477 0.57943 0.0
C3468 C 0.59294 0.18925 0.58168 0.0
C3469 C 0.59375 0.16951 0.57649 0.0
C3470 C 0.5772 0.15522 0.56901 0.0
C3471 C 0.56018 0.16006 0.56658 0.0
C3472 C 0.5445 0.14167 0.55823 0.0
C3473 C 0.52866 0.13574 0.57149 0.0
C3474 C 0.53654 0.14553 0.53906 0.0
C3475 C 0.55538 0.12578 0.55649 0.0
C3476 C 0.57422 0.13397 0.56283 0.0
C3477 C 0.58708 0.12232 0.5629 0.0
C3478 C 0.58059 0.10179 0.55632 0.0
C3479 C 0.56135 0.0929 0.54965 0.0
C3480 C 0.54864 0.10523 0.54975 0.0
H3481 H 0.59345 0.77762 0.34513 0.0
H3482 H 0.61859 0.78741 0.40211 0.0
H3483 H 0.65005 0.78996 0.39071 0.0
H3484 H 0.62225 0.74634 0.32818 0.0
H3485 H 0.62413 0.75654 0.30579 0.0
H3486 H 0.60355 0.7559 0.31838 0.0
H3487 H 0.60946 0.79455 0.31655 0.0
H3488 H 0.63006 0.7953 0.30397 0.0
H3489 H 0.63219 0.81141 0.32511 0.0
H3490 H 0.67896 0.79133 0.37317 0.0
H3491 H 0.7031 0.79169 0.35077 0.0
H3492 H 0.65914 0.77964 0.30518 0.0
C3493 C 0.60553 0.78019 0.35525 0.0
C3494 C 0.60342 0.78248 0.37458 0.0
C3495 C 0.61975 0.78602 0.38725 0.0
C3496 C 0.63772 0.78733 0.38091 0.0
C3497 C 0.63926 0.78501 0.36182 0.0
C3498 C 0.62361 0.7815 0.34916 0.0
C3499 C 0.62916 0.77947 0.32938 0.0
C3500 C 0.61918 0.7583 0.31988 0.0
C3501 C 0.62497 0.79618 0.31809 0.0
C3502 C 0.65037 0.78241 0.33291 0.0
C3503 C 0.65589 0.78557 0.35172 0.0
C3504 C 0.67478 0.78876 0.3584 0.0
C3505 C 0.68839 0.78879 0.34554 0.0
C3506 C 0.68313 0.78561 0.32613 0.0
C3507 C 0.66377 0.78233 0.31986 0.0
H3508 H 0.04714 0.17821 0.46819 0.0
H3509 H 0.02865 0.15017 0.41222 0.0
H3510 H 0.02671 0.11679 0.4234 0.0
H3511 H 0.07598 0.14401 0.48091 0.0
H3512 H 0.06958 0.14285 0.5046 0.0
H3513 H 0.06969 0.16498 0.4925 0.0
H3514 H 0.03482 0.16116 0.49929 0.0
H3515 H 0.03461 0.139 0.51139 0.0
H3516 H 0.01714 0.13756 0.49234 0.0
H3517 H 0.02681 0.08486 0.44064 0.0
H3518 H 0.02856 0.05869 0.46192 0.0
H3519 H 0.04671 0.10517 0.50783 0.0
C3520 C 0.04272 0.16513 0.45817 0.0
C3521 C 0.0378 0.16768 0.43898 0.0
C3522 C 0.03211 0.14949 0.42689 0.0
C3523 C 0.03109 0.1301 0.43317 0.0
C3524 C 0.03575 0.12819 0.45193 0.0
C3525 C 0.04147 0.14526 0.46433 0.0
C3526 C 0.04553 0.13867 0.48387 0.0
C3527 C 0.06644 0.1482 0.49089 0.0
C3528 C 0.03224 0.14445 0.49754 0.0
C3529 C 0.04123 0.1154 0.48053 0.0
C3530 C 0.03567 0.10979 0.46189 0.0
C3531 C 0.0311 0.08931 0.45524 0.0
C3532 C 0.03213 0.07431 0.46763 0.0
C3533 C 0.03766 0.07916 0.48698 0.0
C3534 C 0.0423 0.10038 0.49331 0.0
H3535 H 0.65552 0.31393 0.22301 0.0
H3536 H 0.63293 0.25093 0.20173 0.0
H3537 H 0.66235 0.24405 0.21322 0.0
H3538 H 0.70506 0.31789 0.21154 0.0
H3539 H 0.71616 0.33384 0.23216 0.0
H3540 H 0.6931 0.33461 0.22264 0.0
H3541 H 0.67954 0.32669 0.25427 0.0
H3542 H 0.70257 0.32591 0.26387 0.0
H3543 H 0.68217 0.30453 0.26492 0.0
H3544 H 0.69469 0.24266 0.22745 0.0
H3545 H 0.72667 0.24714 0.24218 0.0
H3546 H 0.73235 0.31112 0.25476 0.0
C3547 C 0.65663 0.29863 0.22067 0.0
C3548 C 0.64064 0.28297 0.21147 0.0
C3549 C 0.64375 0.26339 0.20902 0.0
C3550 C 0.66089 0.25924 0.21545 0.0
C3551 C 0.67589 0.27466 0.22455 0.0
C3552 C 0.67409 0.29409 0.22712 0.0
C3553 C 0.69291 0.30772 0.23734 0.0
C3554 C 0.70237 0.32453 0.2252 0.0
C3555 C 0.68907 0.31676 0.25622 0.0
C3556 C 0.70538 0.29295 0.24008 0.0
C3557 C 0.69498 0.27395 0.23251 0.0
C3558 C 0.70282 0.25757 0.23332 0.0
C3559 C 0.72137 0.26035 0.24192 0.0
C3560 C 0.73299 0.27948 0.24999 0.0
C3561 C 0.72449 0.29615 0.24883 0.0
H3562 H 0.54596 0.89902 0.92884 0.0
H3563 H 0.53684 0.86047 0.97464 0.0
H3564 H 0.53462 0.88913 0.99533 0.0
H3565 H 0.57528 0.94463 0.95728 0.0
H3566 H 0.56571 0.96225 0.94521 0.0
H3567 H 0.56639 0.93871 0.93319 0.0
H3568 H 0.53031 0.92997 0.92445 0.0
H3569 H 0.52955 0.95347 0.9365 0.0
H3570 H 0.5144 0.92981 0.94254 0.0
H3571 H 0.53296 0.92178 0.01206 0.0
H3572 H 0.53302 0.95594 0.02374 0.0
H3573 H 0.54408 0.97687 0.96898 0.0
C3574 C 0.54355 0.89651 0.94322 0.0
C3575 C 0.54116 0.87655 0.94953 0.0
C3576 C 0.53812 0.87476 0.96872 0.0
C3577 C 0.537 0.89127 0.98087 0.0
C3578 C 0.53907 0.9103 0.9742 0.0
C3579 C 0.54241 0.91319 0.95584 0.0
C3580 C 0.54427 0.93565 0.95269 0.0
C3581 C 0.56409 0.94592 0.94673 0.0
C3582 C 0.52871 0.93732 0.93817 0.0
C3583 C 0.54142 0.94476 0.97208 0.0
C3584 C 0.53843 0.9296 0.98412 0.0
C3585 C 0.53535 0.93369 0.00267 0.0
C3586 C 0.5354 0.95349 0.00924 0.0
C3587 C 0.53855 0.96987 0.99764 0.0
C3588 C 0.54158 0.96512 0.97853 0.0
H3589 H 0.91545 0.75806 0.71081 0.0
H3590 H 0.94558 0.8214 0.72463 0.0
H3591 H 0.9182 0.82642 0.73994 0.0
H3592 H 0.86817 0.76675 0.70149 0.0
H3593 H 0.85516 0.74432 0.71151 0.0
H3594 H 0.87728 0.74492 0.70163 0.0
H3595 H 0.89045 0.73543 0.73264 0.0
H3596 H 0.86838 0.73485 0.74261 0.0
H3597 H 0.89044 0.75077 0.75382 0.0
H3598 H 0.88645 0.82559 0.75471 0.0
H3599 H 0.85461 0.81889 0.76624 0.0
H3600 H 0.84193 0.75638 0.7436 0.0
C3601 C 0.91648 0.77308 0.717 0.0
C3602 C 0.93395 0.78915 0.71632 0.0
C3603 C 0.93353 0.80833 0.7249 0.0
C3604 C 0.91757 0.81151 0.73371 0.0
C3605 C 0.90106 0.79556 0.73429 0.0
C3606 C 0.9003 0.77663 0.72607 0.0
C3607 C 0.88044 0.76222 0.7287 0.0
C3608 C 0.86962 0.75406 0.7097 0.0
C3609 C 0.88255 0.74477 0.74011 0.0
C3610 C 0.87028 0.77592 0.73959 0.0
C3611 C 0.88264 0.79513 0.74261 0.0
C3612 C 0.87685 0.81051 0.75229 0.0
C3613 C 0.85837 0.80647 0.75894 0.0
C3614 C 0.84487 0.78705 0.75627 0.0
C3615 C 0.85135 0.77153 0.74625 0.0
H3616 H 0.09593 0.03108 0.89938 0.0
H3617 H 0.08736 0.96612 0.89301 0.0
H3618 H 0.0712 0.96275 0.92233 0.0
H3619 H 0.10767 0.03674 0.9475 0.0
H3620 H 0.09623 0.05647 0.95203 0.0
H3621 H 0.10528 0.05334 0.92976 0.0
H3622 H 0.07203 0.04985 0.91323 0.0
H3623 H 0.0629 0.05311 0.93546 0.0
H3624 H 0.0517 0.03105 0.91984 0.0
H3625 H 0.05685 0.96704 0.95282 0.0
H3626 H 0.04696 0.97864 0.98278 0.0
H3627 H 0.06676 0.04095 0.96911 0.0
C3628 C 0.09026 0.0161 0.90396 0.0
C3629 C 0.09251 0.9988 0.89395 0.0
C3630 C 0.08555 0.97949 0.90057 0.0
C3631 C 0.07635 0.97746 0.9171 0.0
C3632 C 0.0745 0.99494 0.92676 0.0
C3633 C 0.08135 0.01388 0.92045 0.0
C3634 C 0.07886 0.03045 0.93393 0.0
C3635 C 0.09816 0.0451 0.94124 0.0
C3636 C 0.06558 0.04177 0.92508 0.0
C3637 C 0.06968 0.01793 0.94896 0.0
C3638 C 0.06703 0.99746 0.94452 0.0
C3639 C 0.05882 0.98301 0.95643 0.0
C3640 C 0.05325 0.98972 0.97336 0.0
C3641 C 0.05622 0.01067 0.9782 0.0
C3642 C 0.06448 0.02486 0.96581 0.0
H3643 H 0.8008 0.37227 0.59554 0.0
H3644 H 0.82293 0.33403 0.55801 0.0
H3645 H 0.83115 0.31626 0.58459 0.0
H3646 H 0.83569 0.37712 0.63381 0.0
H3647 H 0.81902 0.37632 0.65127 0.0
H3648 H 0.81508 0.38612 0.62932 0.0
H3649 H 0.78179 0.36032 0.62406 0.0
H3650 H 0.78561 0.35047 0.64601 0.0
H3651 H 0.77965 0.3337 0.62501 0.0
H3652 H 0.83637 0.30232 0.61518 0.0
H3653 H 0.83811 0.29305 0.64754 0.0
H3654 H 0.81288 0.34079 0.66499 0.0
C3655 C 0.80721 0.36003 0.59287 0.0
C3656 C 0.81119 0.35449 0.5747 0.0
C3657 C 0.81991 0.33864 0.57184 0.0
C3658 C 0.82456 0.32842 0.58683 0.0
C3659 C 0.82044 0.33429 0.60455 0.0
C3660 C 0.81196 0.34972 0.60763 0.0
C3661 C 0.80899 0.35307 0.62801 0.0
C3662 C 0.82038 0.37442 0.63607 0.0
C3663 C 0.78775 0.34915 0.63094 0.0
C3664 C 0.817 0.337 0.63591 0.0
C3665 C 0.82356 0.32636 0.62217 0.0
C3666 C 0.83139 0.31063 0.62608 0.0
C3667 C 0.83243 0.30557 0.64453 0.0
C3668 C 0.82571 0.31624 0.65884 0.0
C3669 C 0.81799 0.33222 0.65437 0.0
H3670 H 0.4963 0.01506 0.39493 0.0
H3671 H 0.51782 0.07888 0.38729 0.0
H3672 H 0.53841 0.08369 0.41666 0.0
H3673 H 0.49089 0.02147 0.44101 0.0
H3674 H 0.49725 0.99915 0.44747 0.0
H3675 H 0.48759 1.00002 0.42421 0.0
H3676 H 0.51708 0.99201 0.41099 0.0
H3677 H 0.52686 0.99109 0.4343 0.0
H3678 H 0.5405 0.0078 0.41885 0.0
H3679 H 0.55372 0.08205 0.44853 0.0
H3680 H 0.55985 0.07478 0.48117 0.0
H3681 H 0.52662 0.01253 0.46799 0.0
C3682 C 0.50586 0.02989 0.39914 0.0
C3683 C 0.50579 0.04655 0.38887 0.0
C3684 C 0.51786 0.06594 0.39505 0.0
C3685 C 0.52967 0.06875 0.41157 0.0
C3686 C 0.52911 0.05201 0.42165 0.0
C3687 C 0.51744 0.03296 0.41565 0.0
C3688 C 0.51726 0.01806 0.43012 0.0
C3689 C 0.49706 0.00918 0.43605 0.0
C3690 C 0.52595 1.00125 0.42314 0.0
C3691 C 0.52998 0.03187 0.44554 0.0
C3692 C 0.5372 0.05125 0.44027 0.0
C3693 C 0.54838 0.06687 0.45272 0.0
C3694 C 0.55182 0.06265 0.47116 0.0
C3695 C 0.54364 0.04315 0.47687 0.0
C3696 C 0.53304 0.02754 0.46382 0.0
H3697 H 0.78142 0.71974 0.1335 0.0
H3698 H 0.80036 0.78003 0.11445 0.0
H3699 H 0.80243 0.79479 0.14664 0.0
H3700 H 0.75183 0.73316 0.16843 0.0
H3701 H 0.75747 0.71661 0.18486 0.0
H3702 H 0.75765 0.71044 0.16026 0.0
H3703 H 0.79228 0.70842 0.16525 0.0
H3704 H 0.7922 0.71457 0.18985 0.0
H3705 H 0.81018 0.72976 0.17683 0.0
H3706 H 0.80382 0.80346 0.18136 0.0
H3707 H 0.80311 0.80514 0.21562 0.0
H3708 H 0.78108 0.73986 0.21287 0.0
C3709 C 0.7858 0.73607 0.13593 0.0
C3710 C 0.79096 0.74853 0.12097 0.0
C3711 C 0.7968 0.76986 0.12531 0.0
C3712 C 0.79785 0.77851 0.14369 0.0
C3713 C 0.79282 0.76582 0.15794 0.0
C3714 C 0.78676 0.74505 0.15429 0.0
C3715 C 0.7821 0.7349 0.17228 0.0
C3716 C 0.76101 0.72308 0.1714 0.0
C3717 C 0.79496 0.72109 0.17628 0.0
C3718 C 0.7866 0.75319 0.18659 0.0
C3719 C 0.79287 0.77087 0.17794 0.0
C3720 C 0.7987 0.78971 0.18819 0.0
C3721 C 0.79822 0.79054 0.20768 0.0
C3722 C 0.79169 0.77274 0.21694 0.0
C3723 C 0.78571 0.75379 0.20617 0.0
H3724 H 0.1015 0.04058 0.72469 0.0
H3725 H 0.10804 0.98106 0.70898 0.0
H3726 H 0.09234 0.98159 0.67782 0.0
H3727 H 0.05572 0.03423 0.69846 0.0
H3728 H 0.06213 0.05996 0.69213 0.0
H3729 H 0.072 0.05388 0.71373 0.0
H3730 H 0.106 0.06981 0.70421 0.0
H3731 H 0.09625 0.07594 0.68263 0.0
H3732 H 0.11296 0.06097 0.68243 0.0
H3733 H 0.07853 0.98997 0.64773 0.0
H3734 H 0.0676 1.0055 0.62086 0.0
H3735 H 0.07089 0.05983 0.65633 0.0
C3736 C 0.09957 0.0276 0.71473 0.0
C3737 C 0.10601 0.01079 0.71919 0.0
C3738 C 0.10302 0.994 0.70588 0.0
C3739 C 0.09416 0.99419 0.68816 0.0
C3740 C 0.08831 0.01121 0.68413 0.0
C3741 C 0.09083 0.02757 0.69707 0.0
C3742 C 0.08435 0.04452 0.68898 0.0
C3743 C 0.06755 0.04836 0.69892 0.0
C3744 C 0.10087 0.06395 0.68959 0.0
C3745 C 0.07821 0.03537 0.66928 0.0
C3746 C 0.08043 0.01607 0.6668 0.0
C3747 C 0.07658 1.00498 0.64954 0.0
C3748 C 0.0705 0.01396 0.63437 0.0
C3749 C 0.06843 0.03385 0.63659 0.0
C3750 C 0.07208 0.04451 0.65433 0.0
H3751 H 0.7791 0.3778 0.38825 0.0
H3752 H 0.74046 0.33114 0.41567 0.0
H3753 H 0.73602 0.30784 0.38738 0.0
H3754 H 0.75575 0.36344 0.3402 0.0
H3755 H 0.77823 0.36876 0.33005 0.0
H3756 H 0.7758 0.38292 0.35118 0.0
H3757 H 0.80394 0.37284 0.36752 0.0
H3758 H 0.80639 0.35863 0.34651 0.0
H3759 H 0.803 0.34643 0.36787 0.0
H3760 H 0.73876 0.28834 0.35775 0.0
H3761 H 0.74865 0.27413 0.32902 0.0
H3762 H 0.78641 0.33317 0.32151 0.0
C3763 C 0.76949 0.36278 0.38823 0.0
C3764 C 0.76007 0.35635 0.40418 0.0
C3765 C 0.74756 0.33657 0.40354 0.0
C3766 C 0.74499 0.32318 0.38754 0.0
C3767 C 0.75493 0.32983 0.37227 0.0
C3768 C 0.76684 0.34922 0.37243 0.0
C3769 C 0.77726 0.35202 0.35492 0.0
C3770 C 0.7714 0.36771 0.34341 0.0
C3771 C 0.79892 0.35781 0.35949 0.0
C3772 C 0.76994 0.33093 0.34526 0.0
C3773 C 0.75681 0.31846 0.35531 0.0
C3774 C 0.74884 0.29802 0.34962 0.0
C3775 C 0.75458 0.29008 0.33332 0.0
C3776 C 0.76835 0.30251 0.32307 0.0
C3777 C 0.77587 0.32325 0.32904 0.0
H3778 H 0.4996 0.05369 0.2148 0.0
H3779 H 0.51765 0.00943 0.24599 0.0
H3780 H 0.53931 0.00573 0.22199 0.0
H3781 H 0.49694 0.02949 0.17196 0.0
H3782 H 0.5057 0.05169 0.15968 0.0
H3783 H 0.49424 0.0536 0.18074 0.0
H3784 H 0.52386 0.0815 0.19521 0.0
H3785 H 0.53542 0.0798 0.17407 0.0
H3786 H 0.54683 0.07666 0.19604 0.0
H3787 H 0.55481 1.00286 0.19266 0.0
H3788 H 0.56308 1.00106 0.16018 0.0
H3789 H 0.53645 0.04867 0.14877 0.0
C3790 C 0.5086 0.04376 0.2169 0.0
C3791 C 0.50698 0.03185 0.23221 0.0
C3792 C 0.51857 0.01855 0.23423 0.0
C3793 C 0.53104 0.01651 0.22079 0.0
C3794 C 0.53191 0.02807 0.20558 0.0
C3795 C 0.52115 0.04159 0.20366 0.0
C3796 C 0.52321 0.05063 0.18511 0.0
C3797 C 0.50388 0.04606 0.17371 0.0
C3798 C 0.53292 0.07351 0.18777 0.0
C3799 C 0.53602 0.03928 0.17653 0.0
C3800 C 0.54116 0.02661 0.18866 0.0
C3801 C 0.55133 0.01311 0.18318 0.0
C3802 C 0.55602 0.01225 0.1647 0.0
C3803 C 0.55047 0.02477 0.15192 0.0
C3804 C 0.54085 0.03885 0.15816 0.0
H3805 H 0.78897 0.76061 0.92147 0.0
H3806 H 0.80367 0.70382 0.91374 0.0
H3807 H 0.80579 0.70812 0.88029 0.0
H3808 H 0.76013 0.75495 0.87763 0.0
H3809 H 0.76809 0.78134 0.87351 0.0
H3810 H 0.76764 0.77394 0.89699 0.0
H3811 H 0.80326 0.79303 0.90337 0.0
H3812 H 0.80383 0.80044 0.87989 0.0
H3813 H 0.82017 0.78706 0.88845 0.0
H3814 H 0.80572 0.71804 0.84701 0.0
H3815 H 0.80401 0.73312 0.81706 0.0
H3816 H 0.79018 0.78412 0.8455 0.0
C3817 C 0.79257 0.74902 0.91275 0.0
C3818 C 0.79632 0.73189 0.92061 0.0
C3819 C 0.80107 0.71726 0.90844 0.0
C3820 C 0.8022 0.71951 0.88926 0.0
C3821 C 0.79862 0.73656 0.88206 0.0
C3822 C 0.79394 0.75113 0.89342 0.0
C3823 C 0.79095 0.7681 0.882 0.0
C3824 C 0.77049 0.76967 0.88257 0.0
C3825 C 0.80542 0.78836 0.88884 0.0
C3826 C 0.79463 0.76077 0.86252 0.0
C3827 C 0.79895 0.74247 0.8629 0.0
C3828 C 0.80246 0.73243 0.84663 0.0
C3829 C 0.80146 0.74117 0.82958 0.0
C3830 C 0.79716 0.75999 0.82867 0.0
C3831 C 0.79378 0.76988 0.84556 0.0
H3832 H 0.8598 0.07059 0.02027 0.0
H3833 H 0.87872 0.09499 0.07733 0.0
H3834 H 0.90008 0.07302 0.07904 0.0
H3835 H 0.86157 0.01984 0.02493 0.0
H3836 H 0.87103 0.01697 0.00278 0.0
H3837 H 0.85638 0.03392 0.00607 0.0
H3838 H 0.88298 0.0636 0.99597 0.0
H3839 H 0.89757 0.04668 0.99236 0.0
H3840 H 0.90646 0.06948 0.00766 0.0
H3841 H 0.91868 0.04798 0.07504 0.0
H3842 H 0.93719 0.02511 0.06395 0.0
H3843 H 0.90828 0.01905 0.00883 0.0
C3844 C 0.86858 0.07155 0.03307 0.0
C3845 C 0.86722 0.08426 0.04878 0.0
C3846 C 0.87899 0.08493 0.06527 0.0
C3847 C 0.89126 0.07257 0.06638 0.0
C3848 C 0.89185 0.05988 0.0508 0.0
C3849 C 0.88116 0.05959 0.03433 0.0
C3850 C 0.88532 0.04538 0.01932 0.0
C3851 C 0.86751 0.028 0.01291 0.0
C3852 C 0.89358 0.05698 0.00286 0.0
C3853 C 0.90005 0.0378 0.02997 0.0
C3854 C 0.90334 0.0461 0.04819 0.0
C3855 C 0.9163 0.0414 0.06079 0.0
C3856 C 0.92661 0.02831 0.05441 0.0
C3857 C 0.92409 0.02038 0.03557 0.0
C3858 C 0.91042 0.02494 0.0233 0.0
H3859 H 0.4055 0.42862 0.03192 0.0
H3860 H 0.37635 0.4749 0.04251 0.0
H3861 H 0.4066 0.50131 0.04201 0.0
H3862 H 0.44932 0.45362 0.05863 0.0
H3863 H 0.46388 0.44555 0.04219 0.0
H3864 H 0.44005 0.43023 0.04417 0.0
H3865 H 0.43205 0.43135 0.0089 0.0
H3866 H 0.45587 0.44664 0.00681 0.0
H3867 H 0.4359 0.4555 0.99923 0.0
H3868 H 0.44066 0.52306 0.04046 0.0
H3869 H 0.47486 0.53777 0.0366 0.0
H3870 H 0.4809 0.47728 0.02507 0.0
C3871 C 0.40531 0.44427 0.03397 0.0
C3872 C 0.38831 0.44945 0.0374 0.0
C3873 C 0.38908 0.47029 0.04027 0.0
C3874 C 0.40624 0.4855 0.03987 0.0
C3875 C 0.42263 0.4798 0.03643 0.0
C3876 C 0.42226 0.45966 0.03341 0.0
C3877 C 0.44172 0.4575 0.02953 0.0
C3878 C 0.44918 0.44605 0.04453 0.0
C3879 C 0.44136 0.44714 0.00995 0.0
C3880 C 0.45311 0.47956 0.03079 0.0
C3881 C 0.44192 0.49223 0.03494 0.0
C3882 C 0.4495 0.51325 0.03712 0.0
C3883 C 0.46895 0.52148 0.03493 0.0
C3884 C 0.48058 0.50874 0.03039 0.0
C3885 C 0.47242 0.48751 0.02834 0.0
H3886 H 0.3612 0.60389 0.77491 0.0
H3887 H 0.37939 0.62622 0.72232 0.0
H3888 H 0.35887 0.64928 0.72413 0.0
H3889 H 0.31327 0.60346 0.76695 0.0
H3890 H 0.31053 0.61164 0.79057 0.0
H3891 H 0.32763 0.59786 0.78592 0.0
H3892 H 0.3544 0.62686 0.80355 0.0
H3893 H 0.33734 0.64066 0.80844 0.0
H3894 H 0.35812 0.65234 0.79685 0.0
H3895 H 0.33563 0.6686 0.73085 0.0
H3896 H 0.31164 0.68419 0.74271 0.0
H3897 H 0.30798 0.6489 0.79068 0.0
C3898 C 0.36113 0.61394 0.76399 0.0
C3899 C 0.37182 0.61336 0.74848 0.0
C3900 C 0.37115 0.6264 0.73424 0.0
C3901 C 0.35961 0.63956 0.73518 0.0
C3902 C 0.34892 0.63945 0.75045 0.0
C3903 C 0.34964 0.62711 0.76467 0.0
C3904 C 0.33621 0.62949 0.7792 0.0
C3905 C 0.32101 0.60942 0.78074 0.0
C3906 C 0.34718 0.63784 0.79813 0.0
C3907 C 0.32768 0.64492 0.77079 0.0
C3908 C 0.33526 0.65048 0.75424 0.0
C3909 C 0.32954 0.66435 0.74377 0.0
C3910 C 0.31574 0.67292 0.75048 0.0
C3911 C 0.30776 0.66746 0.7674 0.0
C3912 C 0.31385 0.65331 0.77769 0.0
H3913 H 0.18301 0.57333 0.52601 0.0
H3914 H 0.18847 0.57457 0.58622 0.0
H3915 H 0.15377 0.56001 0.58619 0.0
H3916 H 0.14198 0.58921 0.52282 0.0
H3917 H 0.13121 0.57348 0.50197 0.0
H3918 H 0.15664 0.58136 0.50635 0.0
H3919 H 0.15754 0.54393 0.5034 0.0
H3920 H 0.13207 0.53591 0.49884 0.0
H3921 H 0.14326 0.52611 0.51759 0.0
H3922 H 0.1189 0.54864 0.58002 0.0
H3923 H 0.0854 0.54077 0.56826 0.0
H3924 H 0.1021 0.54709 0.51178 0.0
C3925 C 0.1769 0.56998 0.53912 0.0
C3926 C 0.18828 0.57487 0.55613 0.0
C3927 C 0.17987 0.57089 0.57308 0.0
C3928 C 0.16026 0.56255 0.57317 0.0
C3929 C 0.14935 0.55832 0.55619 0.0
C3930 C 0.15732 0.5618 0.53946 0.0
C3931 C 0.14221 0.55745 0.52333 0.0
C3932 C 0.14307 0.57651 0.51302 0.0
C3933 C 0.14387 0.53979 0.51001 0.0
C3934 C 0.12448 0.5515 0.5337 0.0
C3935 C 0.12899 0.55191 0.55261 0.0
C3936 C 0.11516 0.54803 0.56523 0.0
C3937 C 0.09616 0.54369 0.55839 0.0
C3938 C 0.09115 0.54334 0.53908 0.0
C3939 C 0.10551 0.5471 0.52657 0.0
H3940 H 0.72632 0.93206 0.72909 0.0
H3941 H 0.75941 0.99337 0.74705 0.0
H3942 H 0.78772 0.9812 0.75364 0.0
H3943 H 0.74433 0.90839 0.7628 0.0
H3944 H 0.74469 0.88623 0.74828 0.0
H3945 H 0.7281 0.90024 0.74228 0.0
H3946 H 0.74105 0.9046 0.70974 0.0
H3947 H 0.75777 0.89058 0.7157 0.0
H3948 H 0.76608 0.91563 0.70801 0.0
H3949 H 0.81039 0.96151 0.76362 0.0
H3950 H 0.82596 0.93602 0.77441 0.0
H3951 H 0.77877 0.88802 0.74798 0.0
C3952 C 0.73968 0.94293 0.73394 0.0
C3953 C 0.74081 0.96361 0.73747 0.0
C3954 C 0.7584 0.97748 0.74402 0.0
C3955 C 0.77452 0.97071 0.7478 0.0
C3956 C 0.77286 0.9501 0.74457 0.0
C3957 C 0.75595 0.93646 0.73747 0.0
C3958 C 0.75747 0.91496 0.73657 0.0
C3959 C 0.74279 0.90169 0.74818 0.0
C3960 C 0.75548 0.90591 0.71629 0.0
C3961 C 0.77751 0.9185 0.74519 0.0
C3962 C 0.78627 0.93887 0.74957 0.0
C3963 C 0.80394 0.94557 0.75972 0.0
C3964 C 0.81268 0.93105 0.76581 0.0
C3965 C 0.80377 0.91016 0.76157 0.0
C3966 C 0.78622 0.90393 0.75075 0.0
H3967 H 0.72454 0.944 0.52461 0.0
H3968 H 0.69014 0.88555 0.53826 0.0
H3969 H 0.66243 0.8992 0.53974 0.0
H3970 H 0.7038 0.97441 0.55416 0.0
H3971 H 0.70459 0.99352 0.53807 0.0
H3972 H 0.72178 0.97916 0.53778 0.0
H3973 H 0.7122 0.96811 0.5028 0.0
H3974 H 0.69504 0.98251 0.50296 0.0
H3975 H 0.68766 0.95594 0.49523 0.0
H3976 H 0.63842 0.91932 0.54033 0.0
H3977 H 0.61992 0.94434 0.53975 0.0
H3978 H 0.66944 0.98954 0.52468 0.0
C3979 C 0.71114 0.93399 0.52772 0.0
C3980 C 0.70966 0.91367 0.53144 0.0
C3981 C 0.69183 0.90123 0.53567 0.0
C3982 C 0.67593 0.90882 0.53643 0.0
C3983 C 0.67794 0.92891 0.53287 0.0
C3984 C 0.69507 0.94132 0.52854 0.0
C3985 C 0.6934 0.96241 0.52547 0.0
C3986 C 0.70668 0.97831 0.53972 0.0
C3987 C 0.69731 0.96754 0.50542 0.0
C3988 C 0.6727 0.95992 0.52884 0.0
C3989 C 0.66404 0.94046 0.53306 0.0
C3990 C 0.64503 0.93457 0.53691 0.0
C3991 C 0.63458 0.9489 0.53642 0.0
C3992 C 0.64308 0.969 0.5321 0.0
C3993 C 0.66246 0.97444 0.52824 0.0
H3994 H 0.33938 0.42851 0.73486 0.0
H3995 H 0.39296 0.41792 0.72138 0.0
H3996 H 0.38065 0.38209 0.72708 0.0
H3997 H 0.33288 0.39977 0.7723 0.0
H3998 H 0.30752 0.38945 0.76816 0.0
H3999 H 0.31899 0.41349 0.75993 0.0
H4000 H 0.30466 0.40027 0.72635 0.0
H4001 H 0.29292 0.3762 0.73452 0.0
H4002 H 0.30836 0.37729 0.7159 0.0
H4003 H 0.36521 0.34967 0.73906 0.0
H4004 H 0.34612 0.32096 0.75433 0.0
H4005 H 0.30182 0.35135 0.75969 0.0
C4006 C 0.34834 0.41852 0.73271 0.0
C4007 C 0.36707 0.42597 0.72751 0.0
C4008 C 0.37843 0.41249 0.72494 0.0
C4009 C 0.3716 0.39211 0.72825 0.0
C4010 C 0.35333 0.38541 0.73393 0.0
C4011 C 0.3417 0.39806 0.73589 0.0
C4012 C 0.32319 0.38729 0.74357 0.0
C4013 C 0.3205 0.39815 0.76209 0.0
C4014 C 0.30628 0.38514 0.72923 0.0
C4015 C 0.32666 0.36695 0.74644 0.0
C4016 C 0.34411 0.36623 0.74063 0.0
C4017 C 0.35136 0.34985 0.74331 0.0
C4018 C 0.34051 0.33373 0.75215 0.0
C4019 C 0.32258 0.33405 0.75813 0.0
C4020 C 0.3154 0.35071 0.75499 0.0
H4021 H 0.21416 0.63245 0.27925 0.0
H4022 H 0.22887 0.61477 0.22465 0.0
H4023 H 0.25429 0.64688 0.22567 0.0
H4024 H 0.21958 0.68344 0.27179 0.0
H4025 H 0.22924 0.69324 0.29512 0.0
H4026 H 0.21368 0.66798 0.29096 0.0
H4027 H 0.23941 0.65389 0.30702 0.0
H4028 H 0.25511 0.67917 0.31108 0.0
H4029 H 0.26282 0.65959 0.29875 0.0
H4030 H 0.27619 0.68144 0.23144 0.0
H4031 H 0.29184 0.71748 0.24053 0.0
H4032 H 0.26301 0.71308 0.29149 0.0
C4033 C 0.22298 0.63525 0.26768 0.0
C4034 C 0.21966 0.62122 0.25188 0.0
C4035 C 0.23116 0.62547 0.2368 0.0
C4036 C 0.24572 0.64352 0.23735 0.0
C4037 C 0.24858 0.65712 0.25308 0.0
C4038 C 0.2375 0.65328 0.26795 0.0
C4039 C 0.24247 0.67119 0.28245 0.0
C4040 C 0.22522 0.67945 0.28523 0.0
C4041 C 0.25043 0.66562 0.30092 0.0
C4042 C 0.25773 0.68588 0.27316 0.0
C4043 C 0.26123 0.67731 0.25638 0.0
C4044 C 0.27376 0.68827 0.24464 0.0
C4045 C 0.28256 0.70874 0.24993 0.0
C4046 C 0.27868 0.71803 0.26674 0.0
C4047 C 0.26651 0.70628 0.27872 0.0
H4048 H 0.52519 0.67352 0.49036 0.0
H4049 H 0.50596 0.65172 0.43277 0.0
H4050 H 0.50952 0.61829 0.43894 0.0
H4051 H 0.5612 0.64605 0.49421 0.0
H4052 H 0.55736 0.64057 0.51795 0.0
H4053 H 0.55289 0.66303 0.50944 0.0
H4054 H 0.51853 0.6519 0.51933 0.0
H4055 H 0.5229 0.62942 0.52787 0.0
H4056 H 0.50331 0.6273 0.51086 0.0
H4057 H 0.51426 0.58671 0.45103 0.0
H4058 H 0.52109 0.55935 0.46811 0.0
H4059 H 0.53942 0.60086 0.51772 0.0
C4060 C 0.52182 0.66182 0.47897 0.0
C4061 C 0.51486 0.66555 0.46107 0.0
C4062 C 0.51067 0.64947 0.44675 0.0
C4063 C 0.51285 0.63032 0.45006 0.0
C4064 C 0.51952 0.62718 0.46775 0.0
C4065 C 0.5241 0.64247 0.48199 0.0
C4066 C 0.53125 0.63489 0.49966 0.0
C4067 C 0.5519 0.64685 0.50567 0.0
C4068 C 0.51822 0.63594 0.51536 0.0
C4069 C 0.52988 0.61298 0.4931 0.0
C4070 C 0.52296 0.60894 0.47464 0.0
C4071 C 0.51981 0.58975 0.46546 0.0
C4072 C 0.52372 0.57424 0.47534 0.0
C4073 C 0.53095 0.57782 0.49427 0.0
C4074 C 0.53418 0.59761 0.5032 0.0
H4075 H 0.68099 0.28644 0.67893 0.0
H4076 H 0.67059 0.33873 0.70876 0.0
H4077 H 0.69835 0.34144 0.7306 0.0
H4078 H 0.69607 0.26473 0.71843 0.0
H4079 H 0.71445 0.25656 0.70744 0.0
H4080 H 0.69403 0.25887 0.69358 0.0
H4081 H 0.71604 0.28307 0.67319 0.0
H4082 H 0.73655 0.28082 0.68699 0.0
H4083 H 0.73317 0.30545 0.68407 0.0
H4084 H 0.726 0.33762 0.75039 0.0
H4085 H 0.75247 0.32806 0.76642 0.0
H4086 H 0.74691 0.27933 0.72344 0.0
C4087 C 0.68469 0.29865 0.68988 0.0
C4088 C 0.67327 0.31224 0.69211 0.0
C4089 C 0.67866 0.32782 0.70686 0.0
C4090 C 0.69458 0.32962 0.7193 0.0
C4091 C 0.70529 0.31588 0.71685 0.0
C4092 C 0.70071 0.30077 0.70244 0.0
C4093 C 0.71457 0.28782 0.70326 0.0
C4094 C 0.70415 0.26568 0.70583 0.0
C4095 C 0.72574 0.28939 0.68584 0.0
C4096 C 0.72744 0.29785 0.72052 0.0
C4097 C 0.72175 0.31401 0.72808 0.0
C4098 C 0.7307 0.32513 0.74449 0.0
C4099 C 0.74574 0.31954 0.75353 0.0
C4100 C 0.75193 0.30305 0.74617 0.0
C4101 C 0.74275 0.29223 0.72927 0.0
H4102 H 0.03825 0.37846 0.98759 0.0
H4103 H 0.99159 0.36872 0.94526 0.0
H4104 H 0.98908 0.40338 0.95323 0.0
H4105 H 0.02073 0.40989 0.02124 0.0
H4106 H 0.04397 0.42653 0.02837 0.0
H4107 H 0.04139 0.40055 0.0202 0.0
H4108 H 0.06499 0.41253 0.99531 0.0
H4109 H 0.06763 0.43851 0.00342 0.0
H4110 H 0.06046 0.43003 0.97929 0.0
H4111 H 0.99125 0.43901 0.96618 0.0
H4112 H 0.99983 0.47402 0.98117 0.0
H4113 H 0.04679 0.46203 0.0134 0.0
C4114 C 0.02742 0.38365 0.98018 0.0
C4115 C 0.01492 0.37088 0.96595 0.0
C4116 C 1.00115 0.37824 0.9563 0.0
C4117 C 0.99963 0.39789 0.96075 0.0
C4118 C 0.01214 0.41017 0.97479 0.0
C4119 C 0.02591 0.40344 0.98427 0.0
C4120 C 0.0381 0.42009 0.99819 0.0
C4121 C 0.03591 0.41389 0.01818 0.0
C4122 C 0.05903 0.42561 0.99378 0.0
C4123 C 0.02925 0.43728 0.99481 0.0
C4124 C 0.01403 0.43108 0.98154 0.0
C4125 C 1.0032 0.44405 0.97652 0.0
C4126 C 0.00812 0.46388 0.98515 0.0
C4127 C 0.024 0.47078 0.99835 0.0
C4128 C 0.03467 0.45723 0.00321 0.0
H4129 H 0.98752 0.77274 0.19058 0.0
H4130 H 1.00191 0.83608 0.17945 0.0
H4131 H 0.97496 0.84052 0.19642 0.0
H4132 H 0.93705 0.76385 0.1854 0.0
H4133 H 0.9325 0.74734 0.20397 0.0
H4134 H 0.95318 0.74913 0.19124 0.0
H4135 H 0.97472 0.7587 0.22205 0.0
H4136 H 0.9541 0.75688 0.23488 0.0
H4137 H 0.97326 0.7799 0.23731 0.0
H4138 H 0.94612 0.83809 0.21426 0.0
H4139 H 0.91783 0.82905 0.23212 0.0
H4140 H 0.92187 0.76724 0.23164 0.0
C4141 C 0.98514 0.7876 0.19189 0.0
C4142 C 0.99684 0.80403 0.18354 0.0
C4143 C 0.99303 0.82317 0.18543 0.0
C4144 C 0.97779 0.82588 0.19515 0.0
C4145 C 0.96642 0.80934 0.203 0.0
C4146 C 0.96992 0.79058 0.20154 0.0
C4147 C 0.95536 0.77526 0.2111 0.0
C4148 C 0.94384 0.75787 0.19709 0.0
C4149 C 0.96493 0.76721 0.2273 0.0
C4150 C 0.94314 0.78833 0.21812 0.0
C4151 C 0.94978 0.80794 0.21329 0.0
C4152 C 0.94078 0.82276 0.2181 0.0
C4153 C 0.92461 0.81743 0.22814 0.0
C4154 C 0.9175 0.79742 0.23331 0.0
C4155 C 0.927 0.78274 0.22815 0.0
H4156 H 0.53709 0.3806 0.07671 0.0
H4157 H 0.5473 0.40875 0.1333 0.0
H4158 H 0.54843 0.44155 0.1215 0.0
H4159 H 0.56853 0.42377 0.05578 0.0
H4160 H 0.55335 0.42133 0.03471 0.0
H4161 H 0.55305 0.39936 0.04713 0.0
H4162 H 0.51688 0.39237 0.04906 0.0
H4163 H 0.51709 0.41431 0.03664 0.0
H4164 H 0.50751 0.41197 0.05904 0.0
H4165 H 0.54824 0.47256 0.10406 0.0
H4166 H 0.54713 0.49855 0.08277 0.0
H4167 H 0.53791 0.45359 0.03569 0.0
C4168 C 0.53963 0.3936 0.08672 0.0
C4169 C 0.54168 0.39108 0.10641 0.0
C4170 C 0.54502 0.40918 0.11843 0.0
C4171 C 0.5459 0.42832 0.11175 0.0
C4172 C 0.54357 0.43013 0.09262 0.0
C4173 C 0.54055 0.41328 0.08016 0.0
C4174 C 0.53855 0.41994 0.0602 0.0
C4175 C 0.5543 0.41585 0.04877 0.0
C4176 C 0.51883 0.40899 0.05067 0.0
C4177 C 0.5409 0.443 0.06344 0.0
C4178 C 0.54376 0.44831 0.08239 0.0
C4179 C 0.54606 0.46838 0.08922 0.0
C4180 C 0.5454 0.4833 0.07676 0.0
C4181 C 0.54253 0.47894 0.05706 0.0
C4182 C 0.54031 0.45808 0.05045 0.0
H4183 H 0.94017 0.29161 0.31952 0.0
H4184 H 0.92242 0.24583 0.35839 0.0
H4185 H 0.88921 0.24293 0.34885 0.0
H4186 H 0.90163 0.31586 0.32712 0.0
H4187 H 0.89817 0.32093 0.30319 0.0
H4188 H 0.92112 0.31959 0.31248 0.0
H4189 H 0.92094 0.29215 0.28638 0.0
H4190 H 0.89798 0.2934 0.27702 0.0
H4191 H 0.90134 0.26954 0.28309 0.0
H4192 H 0.85633 0.24413 0.33507 0.0
H4193 H 0.82795 0.24998 0.31926 0.0
H4194 H 0.86383 0.29586 0.28884 0.0
C4195 C 0.92942 0.28093 0.32615 0.0
C4196 C 0.93505 0.26861 0.33978 0.0
C4197 C 0.91964 0.25513 0.34766 0.0
C4198 C 0.90025 0.25345 0.34238 0.0
C4199 C 0.89538 0.26541 0.32898 0.0
C4200 C 0.90952 0.27904 0.32097 0.0
C4201 C 0.89994 0.29018 0.30696 0.0
C4202 C 0.90556 0.313 0.31278 0.0
C4203 C 0.90538 0.28608 0.28718 0.0
C4204 C 0.87837 0.28072 0.30838 0.0
C4205 C 0.87627 0.26641 0.32124 0.0
C4206 C 0.85803 0.2554 0.32506 0.0
C4207 C 0.84169 0.25892 0.31582 0.0
C4208 C 0.84277 0.27352 0.30249 0.0
C4209 C 0.86184 0.28458 0.29885 0.0
H4210 H 0.02812 0.65913 0.61959 0.0
H4211 H 0.03103 0.69642 0.57305 0.0
H4212 H 0.03247 0.66761 0.55188 0.0
H4213 H 0.06006 0.6299 0.60282 0.0
H4214 H 0.04668 0.60611 0.61033 0.0
H4215 H 0.046 0.62959 0.62248 0.0
H4216 H 0.00944 0.61902 0.61714 0.0
H4217 H 0.01008 0.59554 0.60498 0.0
H4218 H 0.99838 0.61208 0.59381 0.0
H4219 H 0.03443 0.63495 0.53489 0.0
H4220 H 0.03551 0.60106 0.52331 0.0
H4221 H 0.03026 0.58152 0.57917 0.0
C4222 C 0.0291 0.66132 0.60495 0.0
C4223 C 0.02924 0.68072 0.59835 0.0
C4224 C 0.03048 0.68221 0.57888 0.0
C4225 C 0.03145 0.66572 0.56657 0.0
C4226 C 0.03111 0.64707 0.57341 0.0
C4227 C 0.02986 0.64462 0.59216 0.0
C4228 C 0.02943 0.6225 0.59547 0.0
C4229 C 0.04656 0.622 0.60856 0.0
C4230 C 0.01072 0.61164 0.60332 0.0
C4231 C 0.03074 0.61308 0.57575 0.0
C4232 C 0.03182 0.6278 0.56339 0.0
C4233 C 0.03352 0.62339 0.54453 0.0
C4234 C 0.03417 0.60379 0.53803 0.0
C4235 C 0.03297 0.58789 0.54997 0.0
C4236 C 0.03111 0.59287 0.56933 0.0
H4237 H 0.66018 0.79945 0.84551 0.0
H4238 H 0.625 0.74462 0.81458 0.0
H4239 H 0.65246 0.74112 0.79846 0.0
H4240 H 0.69004 0.81796 0.80758 0.0
H4241 H 0.71185 0.82728 0.82224 0.0
H4242 H 0.68942 0.82617 0.83168 0.0
H4243 H 0.69725 0.80452 0.85724 0.0
H4244 H 0.7197 0.80559 0.84789 0.0
H4245 H 0.70327 0.78144 0.85072 0.0
H4246 H 0.68477 0.74275 0.78461 0.0
H4247 H 0.71752 0.74926 0.7754 0.0
H4248 H 0.73461 0.8027 0.81444 0.0
C4249 C 0.65806 0.78661 0.83538 0.0
C4250 C 0.63927 0.77258 0.83156 0.0
C4251 C 0.63825 0.75619 0.81797 0.0
C4252 C 0.65418 0.75387 0.80861 0.0
C4253 C 0.67205 0.76788 0.81253 0.0
C4254 C 0.67417 0.78398 0.82569 0.0
C4255 C 0.69528 0.79674 0.82718 0.0
C4256 C 0.69673 0.81833 0.82186 0.0
C4257 C 0.70442 0.7971 0.84694 0.0
C4258 C 0.70458 0.78538 0.81289 0.0
C4259 C 0.69073 0.76873 0.80466 0.0
C4260 C 0.69554 0.75581 0.79111 0.0
C4261 C 0.71454 0.75972 0.78586 0.0
C4262 C 0.72952 0.77659 0.7938 0.0
C4263 C 0.72403 0.78961 0.80771 0.0
H4264 H 0.45142 0.53454 0.62673 0.0
H4265 H 0.49127 0.58779 0.65543 0.0
H4266 H 0.50821 0.59404 0.6269 0.0
H4267 H 0.48315 0.51649 0.604 0.0
H4268 H 0.46865 0.50754 0.58249 0.0
H4269 H 0.45761 0.50947 0.60379 0.0
H4270 H 0.43896 0.53253 0.5892 0.0
H4271 H 0.44995 0.53061 0.56775 0.0
H4272 H 0.45166 0.55514 0.57924 0.0
H4273 H 0.52421 0.59039 0.59819 0.0
H4274 H 0.53715 0.57836 0.57024 0.0
H4275 H 0.48595 0.52873 0.55913 0.0
C4276 C 0.46343 0.54779 0.62678 0.0
C4277 C 0.47012 0.56073 0.64313 0.0
C4278 C 0.48588 0.57787 0.6429 0.0
C4279 C 0.49554 0.58153 0.62678 0.0
C4280 C 0.48893 0.56814 0.611 0.0
C4281 C 0.47302 0.55181 0.61074 0.0
C4282 C 0.46989 0.53866 0.5926 0.0
C4283 C 0.46984 0.51676 0.59593 0.0
C4284 C 0.45152 0.53928 0.58154 0.0
C4285 C 0.48721 0.54939 0.58318 0.0
C4286 C 0.49788 0.56652 0.59393 0.0
C4287 C 0.51573 0.57742 0.58935 0.0
C4288 C 0.52301 0.57043 0.57357 0.0
C4289 C 0.51235 0.55286 0.56255 0.0
C4290 C 0.49405 0.54256 0.5671 0.0
H4291 H 0.7993 0.20056 0.95372 0.0
H4292 H 0.74192 0.17513 0.96896 0.0
H4293 H 0.7291 0.18494 0.93976 0.0
H4294 H 0.79113 0.24319 0.93442 0.0
H4295 H 0.80632 0.24321 0.91572 0.0
H4296 H 0.81104 0.23266 0.93704 0.0
H4297 H 0.80973 0.19869 0.91859 0.0
H4298 H 0.80505 0.20918 0.89717 0.0
H4299 H 0.78902 0.18608 0.90326 0.0
H4300 H 0.72252 0.19997 0.91041 0.0
H4301 H 0.72273 0.21857 0.8822 0.0
H4302 H 0.78425 0.23364 0.88569 0.0
C4303 C 0.78405 0.19673 0.95071 0.0
C4304 C 0.7716 0.18724 0.96363 0.0
C4305 C 0.75171 0.18269 0.95936 0.0
C4306 C 0.74429 0.18806 0.94276 0.0
C4307 C 0.75694 0.19781 0.9305 0.0
C4308 C 0.77639 0.20199 0.93418 0.0
C4309 C 0.78684 0.21353 0.91908 0.0
C4310 C 0.79958 0.23438 0.92705 0.0
C4311 C 0.79834 0.20112 0.90892 0.0
C4312 C 0.77024 0.21552 0.90659 0.0
C4313 C 0.75311 0.20626 0.91337 0.0
C4314 C 0.73583 0.20706 0.9048 0.0
C4315 C 0.73607 0.21772 0.88888 0.0
C4316 C 0.75348 0.22735 0.88174 0.0
C4317 C 0.77072 0.22604 0.89065 0.0
H4318 H 0.08136 0.48932 0.14179 0.0
H4319 H 0.07022 0.54099 0.17163 0.0
H4320 H 0.04725 0.5429 0.14577 0.0
H4321 H 0.08378 0.50838 0.0999 0.0
H4322 H 0.07301 0.48483 0.08612 0.0
H4323 H 0.08491 0.48469 0.10851 0.0
H4324 H 0.0543 0.46033 0.11881 0.0
H4325 H 0.04225 0.46053 0.09635 0.0
H4326 H 0.03233 0.46732 0.11723 0.0
H4327 H 0.0298 0.54258 0.11508 0.0
H4328 H 0.02179 0.54214 0.08137 0.0
H4329 H 0.04453 0.49076 0.07151 0.0
C4330 C 0.07354 0.50055 0.14311 0.0
C4331 C 0.07731 0.51488 0.15864 0.0
C4332 C 0.06742 0.52988 0.15975 0.0
C4333 C 0.05423 0.53091 0.14526 0.0
C4334 C 0.05111 0.5168 0.12986 0.0
C4335 C 0.06052 0.50189 0.12871 0.0
C4336 C 0.05701 0.4906 0.10963 0.0
C4337 C 0.07578 0.49225 0.10052 0.0
C4338 C 0.0458 0.46838 0.11057 0.0
C4339 C 0.04505 0.50222 0.09991 0.0
C4340 C 0.04128 0.51686 0.11192 0.0
C4341 C 0.03226 0.53089 0.10562 0.0
C4342 C 0.02773 0.53051 0.08644 0.0
C4343 C 0.03258 0.51641 0.07389 0.0
C4344 C 0.04053 0.50158 0.08083 0.0
H4345 H 0.77748 0.82951 0.41582 0.0
H4346 H 0.82201 0.80456 0.43758 0.0
H4347 H 0.82728 0.79381 0.40571 0.0
H4348 H 0.75865 0.78951 0.37799 0.0
H4349 H 0.75366 0.8065 0.36168 0.0
H4350 H 0.75304 0.8123 0.38628 0.0
H4351 H 0.77742 0.84702 0.38439 0.0
H4352 H 0.77817 0.8413 0.35981 0.0
H4353 H 0.79979 0.848 0.37489 0.0
H4354 H 0.82848 0.78605 0.37149 0.0
H4355 H 0.82504 0.78109 0.33735 0.0
H4356 H 0.77929 0.81007 0.33628 0.0
C4357 C 0.78822 0.82161 0.41394 0.0
C4358 C 0.79946 0.8182 0.42957 0.0
C4359 C 0.81343 0.80789 0.42614 0.0
C4360 C 0.81647 0.80153 0.40797 0.0
C4361 C 0.80541 0.80538 0.39301 0.0
C4362 C 0.79147 0.81506 0.39572 0.0
C4363 C 0.78169 0.81729 0.37698 0.0
C4364 C 0.7605 0.80571 0.37566 0.0
C4365 C 0.78443 0.83974 0.37384 0.0
C4366 C 0.7924 0.80745 0.3634 0.0
C4367 C 0.80601 0.8007 0.37306 0.0
C4368 C 0.81783 0.79124 0.36381 0.0
C4369 C 0.81575 0.78851 0.34427 0.0
C4370 C 0.80191 0.79514 0.33378 0.0
C4371 C 0.79006 0.8048 0.34367 0.0
H4372 H 0.49679 0.51477 0.81512 0.0
H4373 H 0.50424 0.57955 0.82316 0.0
H4374 H 0.52125 0.58043 0.85389 0.0
H4375 H 0.48655 0.50383 0.85922 0.0
H4376 H 0.49903 0.48471 0.861 0.0
H4377 H 0.49012 0.4896 0.83857 0.0
H4378 H 0.52382 0.49644 0.82694 0.0
H4379 H 0.53286 0.49137 0.84934 0.0
H4380 H 0.54336 0.51502 0.8398 0.0
H4381 H 0.53302 0.57335 0.88534 0.0
H4382 H 0.53917 0.55904 0.91468 0.0
H4383 H 0.52604 0.49922 0.88531 0.0
C4384 C 0.50259 0.52928 0.82301 0.0
C4385 C 0.4992 0.54709 0.8167 0.0
C4386 C 0.50651 0.56567 0.82777 0.0
C4387 C 0.51633 0.56635 0.84517 0.0
C4388 C 0.51895 0.54839 0.85118 0.0
C4389 C 0.51249 0.53024 0.84032 0.0
C4390 C 0.51563 0.5128 0.8506 0.0
C4391 C 0.49671 0.49681 0.85246 0.0
C4392 C 0.52977 0.50336 0.84111 0.0
C4393 C 0.52412 0.52384 0.86922 0.0
C4394 C 0.52614 0.54439 0.86923 0.0
C4395 C 0.53199 0.55737 0.88537 0.0
C4396 C 0.53556 0.54908 0.90199 0.0
C4397 C 0.53325 0.52797 0.90235 0.0
C4398 C 0.52793 0.51539 0.88558 0.0
H4399 H 0.79957 0.1834 0.16218 0.0
H4400 H 0.83209 0.23374 0.13405 0.0
H4401 H 0.83629 0.25601 0.16299 0.0
H4402 H 0.77389 0.21041 0.18641 0.0
H4403 H 0.77364 0.19753 0.20738 0.0
H4404 H 0.77565 0.18475 0.18542 0.0
H4405 H 0.80667 0.17775 0.19867 0.0
H4406 H 0.80472 0.19052 0.22074 0.0
H4407 H 0.82604 0.19856 0.20883 0.0
H4408 H 0.83329 0.27367 0.19305 0.0
H4409 H 0.82378 0.28569 0.22284 0.0
H4410 H 0.79336 0.22403 0.2319 0.0
C4411 C 0.8078 0.19905 0.1622 0.0
C4412 C 0.81559 0.20684 0.14591 0.0
C4413 C 0.82628 0.22737 0.14646 0.0
C4414 C 0.82871 0.24014 0.16281 0.0
C4415 C 0.82052 0.23208 0.17851 0.0
C4416 C 0.8104 0.21198 0.17842 0.0
C4417 C 0.80172 0.20755 0.19671 0.0
C4418 C 0.77994 0.1996 0.19379 0.0
C4419 C 0.81031 0.19272 0.20683 0.0
C4420 C 0.8079 0.2285 0.20681 0.0
C4421 C 0.81892 0.24235 0.19612 0.0
C4422 C 0.82498 0.26294 0.20171 0.0
C4423 C 0.81941 0.26962 0.21858 0.0
C4424 C 0.80792 0.25574 0.22963 0.0
C4425 C 0.80244 0.23488 0.22385 0.0
H4426 H 0.10197 0.5258 0.32589 0.0
H4427 H 0.09778 0.4621 0.32948 0.0
H4428 H 0.08814 0.4646 0.36171 0.0
H4429 H 0.12061 0.54271 0.37285 0.0
H4430 H 0.10742 0.56123 0.37503 0.0
H4431 H 0.11438 0.5543 0.35261 0.0
H4432 H 0.07927 0.54478 0.33904 0.0
H4433 H 0.07222 0.55183 0.36135 0.0
H4434 H 0.06149 0.52684 0.35013 0.0
H4435 H 0.07803 0.47435 0.39325 0.0
H4436 H 0.06816 0.49025 0.42121 0.0
H4437 H 0.07879 0.54722 0.3957 0.0
C4438 C 0.09881 0.51228 0.33334 0.0
C4439 C 0.10031 0.49368 0.32518 0.0
C4440 C 0.09662 0.47647 0.33556 0.0
C4441 C 0.09116 0.47777 0.3538 0.0
C4442 C 0.08968 0.4964 0.36135 0.0
C4443 C 0.09343 0.51332 0.3514 0.0
C4444 C 0.09063 0.53153 0.36237 0.0
C4445 C 0.10938 0.54843 0.36593 0.0
C4446 C 0.07497 0.53918 0.35264 0.0
C4447 C 0.08444 0.52222 0.38007 0.0
C4448 C 0.08406 0.50198 0.37932 0.0
C4449 C 0.07833 0.49019 0.394 0.0
C4450 C 0.07268 0.49931 0.40974 0.0
C4451 C 0.07278 0.51998 0.41059 0.0
C4452 C 0.0789 0.53151 0.39559 0.0
H4453 H 0.7849 0.79828 0.62941 0.0
H4454 H 0.79174 0.86289 0.63807 0.0
H4455 H 0.78873 0.85983 0.67159 0.0
H4456 H 0.75052 0.78294 0.66414 0.0
H4457 H 0.76041 0.76331 0.67193 0.0
H4458 H 0.76245 0.77017 0.64833 0.0
H4459 H 0.79895 0.77706 0.65291 0.0
H4460 H 0.79701 0.77018 0.6765 0.0
H4461 H 0.81201 0.79452 0.67189 0.0
H4462 H 0.78547 0.85024 0.70455 0.0
H4463 H 0.78336 0.83503 0.73453 0.0
H4464 H 0.77907 0.77634 0.70589 0.0
C4465 C 0.78562 0.81175 0.63834 0.0
C4466 C 0.7887 0.83092 0.63086 0.0
C4467 C 0.78969 0.8481 0.64326 0.0
C4468 C 0.78787 0.8465 0.66242 0.0
C4469 C 0.78507 0.82756 0.66934 0.0
C4470 C 0.78401 0.81045 0.65774 0.0
C4471 C 0.78154 0.79205 0.66909 0.0
C4472 C 0.7626 0.77618 0.66301 0.0
C4473 C 0.79838 0.78291 0.6675 0.0
C4474 C 0.78141 0.80152 0.68879 0.0
C4475 C 0.78337 0.82202 0.68852 0.0
C4476 C 0.78391 0.83418 0.70488 0.0
C4477 C 0.78267 0.82532 0.72195 0.0
C4478 C 0.78096 0.80436 0.72287 0.0
C4479 C 0.78017 0.79234 0.70586 0.0
H4480 H 0.7255 0.49246 0.53107 0.0
H4481 H 0.69826 0.43515 0.55236 0.0
H4482 H 0.6734 0.44967 0.56411 0.0
H4483 H 0.71388 0.5256 0.56875 0.0
H4484 H 0.70997 0.54332 0.55268 0.0
H4485 H 0.72698 0.52928 0.54833 0.0
H4486 H 0.7096 0.51583 0.51582 0.0
H4487 H 0.69262 0.52981 0.52004 0.0
H4488 H 0.6846 0.50287 0.51404 0.0
H4489 H 0.64921 0.46857 0.56905 0.0
H4490 H 0.62796 0.49097 0.56775 0.0
H4491 H 0.67145 0.53636 0.54431 0.0
C4492 C 0.71445 0.48308 0.53846 0.0
C4493 C 0.71373 0.46272 0.54084 0.0
C4494 C 0.69913 0.45087 0.5506 0.0
C4495 C 0.68497 0.45898 0.5573 0.0
C4496 C 0.68587 0.47903 0.55437 0.0
C4497 C 0.70034 0.49099 0.54535 0.0
C4498 C 0.69729 0.51153 0.54271 0.0
C4499 C 0.71296 0.52843 0.55378 0.0
C4500 C 0.69594 0.51521 0.52192 0.0
C4501 C 0.67841 0.50898 0.55093 0.0
C4502 C 0.67214 0.49019 0.55775 0.0
C4503 C 0.65418 0.48352 0.56423 0.0
C4504 C 0.64222 0.49627 0.56342 0.0
C4505 C 0.64836 0.51542 0.55629 0.0
C4506 C 0.66678 0.52202 0.55036 0.0
H4507 H 0.18188 0.12547 0.54113 0.0
H4508 H 0.19657 0.10147 0.48873 0.0
H4509 H 0.16552 0.07599 0.48503 0.0
H4510 H 0.15528 0.07733 0.55634 0.0
H4511 H 0.1374 0.08738 0.56621 0.0
H4512 H 0.16115 0.10349 0.56536 0.0
H4513 H 0.1479 0.1288 0.54748 0.0
H4514 H 0.12411 0.11282 0.54836 0.0
H4515 H 0.13285 0.11991 0.52628 0.0
H4516 H 0.13268 0.05378 0.48614 0.0
H4517 H 0.09971 0.03653 0.49168 0.0
H4518 H 0.10516 0.0744 0.54328 0.0
C4519 C 0.17858 0.1149 0.52885 0.0
C4520 C 0.19197 0.11548 0.51533 0.0
C4521 C 0.18693 0.1012 0.49953 0.0
C4522 C 0.1692 0.08668 0.49722 0.0
C4523 C 0.15646 0.08648 0.51079 0.0
C4524 C 0.16084 0.10021 0.52629 0.0
C4525 C 0.14424 0.09686 0.53852 0.0
C4526 C 0.14986 0.09091 0.55775 0.0
C4527 C 0.13684 0.11572 0.54025 0.0
C4528 C 0.12984 0.07924 0.52736 0.0
C4529 C 0.1373 0.07353 0.51145 0.0
C4530 C 0.12672 0.05807 0.49859 0.0
C4531 C 0.10794 0.04834 0.50189 0.0
C4532 C 0.09974 0.05396 0.51796 0.0
C4533 C 0.11102 0.06952 0.53098 0.0
H4534 H 0.22922 0.95004 0.82385 0.0
H4535 H 0.24659 0.99792 0.78697 0.0
H4536 H 0.26903 0.98088 0.77398 0.0
H4537 H 0.27608 0.93897 0.83097 0.0
H4538 H 0.26507 0.91213 0.83054 0.0
H4539 H 0.25286 0.92985 0.83927 0.0
H4540 H 0.22398 0.91292 0.81571 0.0
H4541 H 0.23615 0.89531 0.80685 0.0
H4542 H 0.22743 0.91078 0.79125 0.0
H4543 H 0.28627 0.95663 0.76205 0.0
H4544 H 0.29737 0.92689 0.75248 0.0
H4545 H 0.26847 0.89479 0.79682 0.0
C4546 C 0.238 0.95713 0.81329 0.0
C4547 C 0.23629 0.9754 0.80658 0.0
C4548 C 0.24797 0.98416 0.79267 0.0
C4549 C 0.26071 0.97456 0.78512 0.0
C4550 C 0.26165 0.95627 0.79169 0.0
C4551 C 0.25073 0.94771 0.80557 0.0
C4552 C 0.2531 0.92705 0.80893 0.0
C4553 C 0.26234 0.92701 0.8286 0.0
C4554 C 0.23403 0.91056 0.80547 0.0
C4555 C 0.26645 0.92503 0.79426 0.0
C4556 C 0.27146 0.94214 0.78465 0.0
C4557 C 0.28274 0.94327 0.76968 0.0
C4558 C 0.28896 0.92635 0.76435 0.0
C4559 C 0.28369 0.90859 0.77387 0.0
C4560 C 0.27256 0.90812 0.78918 0.0
H4561 H 0.3996 0.95727 0.0293 0.0
H4562 H 0.38359 0.01353 0.02867 0.0
H4563 H 0.41707 0.03273 0.03649 0.0
H4564 H 0.43809 0.97529 0.06836 0.0
H4565 H 0.45253 0.96101 0.05768 0.0
H4566 H 0.42699 0.95174 0.0547 0.0
H4567 H 0.42842 0.94974 0.01889 0.0
H4568 H 0.45385 0.95906 0.02173 0.0
H4569 H 0.4403 0.97208 0.00804 0.0
H4570 H 0.45231 0.04556 0.03899 0.0
H4571 H 0.4869 0.05098 0.0371 0.0
H4572 H 0.47977 0.98663 0.03862 0.0
C4573 C 0.40296 0.9736 0.03145 0.0
C4574 C 0.38895 0.98387 0.02831 0.0
C4575 C 0.39412 1.00531 0.03072 0.0
C4576 C 0.41305 0.01635 0.03539 0.0
C4577 C 0.42656 0.00572 0.03797 0.0
C4578 C 0.42171 0.98481 0.03634 0.0
C4579 C 0.43907 0.97701 0.03821 0.0
C4580 C 0.43917 0.96559 0.05579 0.0
C4581 C 0.44048 0.9637 0.02067 0.0
C4582 C 0.45452 0.9968 0.04013 0.0
C4583 C 0.447 0.01322 0.04021 0.0
C4584 C 0.45841 0.03293 0.03955 0.0
C4585 C 0.47794 0.03587 0.03844 0.0
C4586 C 0.48572 0.01922 0.0382 0.0
C4587 C 0.47403 0.99956 0.03947 0.0
H4588 H 0.88348 0.62967 0.78012 0.0
H4589 H 0.85624 0.59796 0.82547 0.0
H4590 H 0.82911 0.61233 0.82005 0.0
H4591 H 0.8688 0.6748 0.7882 0.0
H4592 H 0.86526 0.67793 0.76379 0.0
H4593 H 0.88255 0.66546 0.7717 0.0
H4594 H 0.8661 0.63412 0.74886 0.0
H4595 H 0.84864 0.64643 0.74101 0.0
H4596 H 0.84119 0.6219 0.74993 0.0
H4597 H 0.80484 0.62999 0.80927 0.0
H4598 H 0.78636 0.65133 0.79532 0.0
H4599 H 0.82913 0.6697 0.75615 0.0
C4600 C 0.87179 0.62568 0.78889 0.0
C4601 C 0.87194 0.6127 0.8032 0.0
C4602 C 0.85651 0.6081 0.81457 0.0
C4603 C 0.84098 0.61602 0.81148 0.0
C4604 C 0.84114 0.62843 0.79697 0.0
C4605 C 0.85621 0.63331 0.78595 0.0
C4606 C 0.85303 0.64702 0.77132 0.0
C4607 C 0.86831 0.66752 0.77392 0.0
C4608 C 0.85219 0.63675 0.75162 0.0
C4609 C 0.83384 0.6492 0.77588 0.0
C4610 C 0.82714 0.63832 0.79066 0.0
C4611 C 0.80988 0.63849 0.79762 0.0
C4612 C 0.79942 0.65049 0.78951 0.0
C4613 C 0.80632 0.66212 0.77465 0.0
C4614 C 0.82356 0.66107 0.76758 0.0
H4615 H 0.86078 0.62211 0.00511 0.0
H4616 H 0.88172 0.66193 0.0554 0.0
H4617 H 0.90861 0.64714 0.05947 0.0
H4618 H 0.87311 0.57864 0.02114 0.0
H4619 H 0.88019 0.5709 0.99902 0.0
H4620 H 0.86255 0.58469 0.99986 0.0
H4621 H 0.88269 0.61186 0.98059 0.0
H4622 H 0.90036 0.59812 0.97964 0.0
H4623 H 0.90705 0.62432 0.98864 0.0
H4624 H 0.93332 0.62787 0.05832 0.0
H4625 H 0.95382 0.6055 0.05206 0.0
H4626 H 0.91758 0.57861 0.00208 0.0
C4627 C 0.87109 0.62786 0.0169 0.0
C4628 C 0.86892 0.64317 0.03001 0.0
C4629 C 0.88274 0.65001 0.04533 0.0
C4630 C 0.89819 0.64178 0.0477 0.0
C4631 C 0.89981 0.62667 0.03464 0.0
C4632 C 0.88666 0.61977 0.01952 0.0
C4633 C 0.89169 0.60324 0.0076 0.0
C4634 C 0.87595 0.58318 0.00687 0.0
C4635 C 0.89568 0.60978 0.98795 0.0
C4636 C 0.90967 0.60192 0.01841 0.0
C4637 C 0.91411 0.6156 0.03395 0.0
C4638 C 0.93002 0.61716 0.04613 0.0
C4639 C 0.94168 0.60444 0.04238 0.0
C4640 C 0.93749 0.59022 0.02653 0.0
C4641 C 0.92118 0.58908 0.01444 0.0
H4642 H 0.19947 0.15095 0.8191 0.0
H4643 H 0.23814 0.11457 0.80838 0.0
H4644 H 0.26309 0.14522 0.80266 0.0
H4645 H 0.21217 0.18239 0.78348 0.0
H4646 H 0.21048 0.20533 0.79587 0.0
H4647 H 0.19643 0.18116 0.80187 0.0
H4648 H 0.21062 0.18967 0.83609 0.0
H4649 H 0.2246 0.21399 0.83021 0.0
H4650 H 0.23604 0.19706 0.84109 0.0
H4651 H 0.28229 0.17833 0.79482 0.0
H4652 H 0.29556 0.21289 0.78597 0.0
H4653 H 0.24463 0.22857 0.80136 0.0
C4654 C 0.21339 0.14968 0.81606 0.0
C4655 C 0.21712 0.13063 0.81429 0.0
C4656 C 0.23522 0.12918 0.80984 0.0
C4657 C 0.24943 0.14645 0.80663 0.0
C4658 C 0.24524 0.165 0.80794 0.0
C4659 C 0.22775 0.16684 0.81266 0.0
C4660 C 0.22658 0.18839 0.8116 0.0
C4661 C 0.21046 0.18936 0.79736 0.0
C4662 C 0.22433 0.19783 0.8309 0.0
C4663 C 0.2459 0.19815 0.80501 0.0
C4664 C 0.25645 0.18438 0.8032 0.0
C4665 C 0.27431 0.18937 0.7964 0.0
C4666 C 0.28166 0.20902 0.7913 0.0
C4667 C 0.27113 0.22344 0.79297 0.0
C4668 C 0.25307 0.21793 0.80007 0.0
H4669 H 0.35318 0.92994 0.31541 0.0
H4670 H 0.34692 0.9458 0.25876 0.0
H4671 H 0.32235 0.91336 0.25073 0.0
H4672 H 0.3522 0.88104 0.30409 0.0
H4673 H 0.33935 0.87033 0.3232 0.0
H4674 H 0.35317 0.89636 0.32553 0.0
H4675 H 0.32344 0.90746 0.33397 0.0
H4676 H 0.30947 0.88136 0.33164 0.0
H4677 H 0.30214 0.89967 0.31843 0.0
H4678 H 0.30305 0.87764 0.24746 0.0
H4679 H 0.29117 0.84061 0.24899 0.0
H4680 H 0.30971 0.84745 0.30763 0.0
C4681 C 0.34608 0.92683 0.30152 0.0
C4682 C 0.35168 0.94033 0.28772 0.0
C4683 C 0.34268 0.93558 0.2695 0.0
C4684 C 0.32864 0.9173 0.26487 0.0
C4685 C 0.32376 0.904 0.27866 0.0
C4686 C 0.33217 0.90854 0.29665 0.0
C4687 C 0.32636 0.89055 0.30814 0.0
C4688 C 0.34381 0.8842 0.31566 0.0
C4689 C 0.31465 0.89503 0.32398 0.0
C4690 C 0.31417 0.87489 0.29355 0.0
C4691 C 0.31248 0.8831 0.27675 0.0
C4692 C 0.30376 0.87115 0.26065 0.0
C4693 C 0.29705 0.8502 0.26161 0.0
C4694 C 0.29913 0.84156 0.27854 0.0
C4695 C 0.30735 0.854 0.29477 0.0
H4696 H 0.58897 0.41227 0.58166 0.0
H4697 H 0.53111 0.37476 0.58319 0.0
H4698 H 0.51901 0.40157 0.57067 0.0
H4699 H 0.57952 0.45993 0.59475 0.0
H4700 H 0.59512 0.47456 0.5793 0.0
H4701 H 0.60014 0.45252 0.58817 0.0
H4702 H 0.60065 0.43707 0.55477 0.0
H4703 H 0.59606 0.45922 0.54572 0.0
H4704 H 0.58062 0.43445 0.53815 0.0
H4705 H 0.51255 0.43206 0.55887 0.0
H4706 H 0.51196 0.46432 0.54671 0.0
H4707 H 0.57368 0.48352 0.55126 0.0
C4708 C 0.57377 0.40965 0.57921 0.0
C4709 C 0.56103 0.39131 0.58379 0.0
C4710 C 0.54124 0.38868 0.58033 0.0
C4711 C 0.53417 0.40384 0.57307 0.0
C4712 C 0.54697 0.42176 0.56909 0.0
C4713 C 0.56636 0.4248 0.57186 0.0
C4714 C 0.57678 0.44575 0.5663 0.0
C4715 C 0.58859 0.45897 0.58314 0.0
C4716 C 0.58926 0.44401 0.55028 0.0
C4717 C 0.56016 0.45379 0.55995 0.0
C4718 C 0.54316 0.4396 0.56184 0.0
C4719 C 0.52577 0.44327 0.55724 0.0
C4720 C 0.52562 0.46179 0.55034 0.0
C4721 C 0.54274 0.4767 0.54791 0.0
C4722 C 0.5603 0.47256 0.5529 0.0
H4723 H 0.41905 0.75643 0.33863 0.0
H4724 H 0.40982 0.78477 0.39133 0.0
H4725 H 0.38038 0.79019 0.37725 0.0
H4726 H 0.40244 0.78987 0.30971 0.0
H4727 H 0.39096 0.77054 0.29148 0.0
H4728 H 0.41108 0.76794 0.30566 0.0
H4729 H 0.39123 0.73311 0.31449 0.0
H4730 H 0.37107 0.73557 0.30027 0.0
H4731 H 0.36894 0.73116 0.32447 0.0
H4732 H 0.35239 0.79317 0.35793 0.0
H4733 H 0.32714 0.79376 0.33435 0.0
H4734 H 0.35356 0.76412 0.29301 0.0
C4735 C 0.4107 0.76358 0.34721 0.0
C4736 C 0.41687 0.77026 0.36614 0.0
C4737 C 0.40559 0.77974 0.37681 0.0
C4738 C 0.38876 0.78282 0.36894 0.0
C4739 C 0.38325 0.7764 0.35027 0.0
C4740 C 0.39379 0.76697 0.33947 0.0
C4741 C 0.38465 0.76209 0.31958 0.0
C4742 C 0.39809 0.77328 0.30579 0.0
C4743 C 0.37862 0.73911 0.3144 0.0
C4744 C 0.36742 0.77031 0.32096 0.0
C4745 C 0.36696 0.77839 0.33887 0.0
C4746 C 0.35259 0.78689 0.34384 0.0
C4747 C 0.33825 0.78715 0.33024 0.0
C4748 C 0.33821 0.77905 0.31165 0.0
C4749 C 0.35312 0.77052 0.30701 0.0
H4750 H 0.04371 0.68353 0.06091 0.0
H4751 H 0.09774 0.69521 0.09364 0.0
H4752 H 0.09861 0.66026 0.08536 0.0
H4753 H 0.02474 0.63185 0.07298 0.0
H4754 H 0.01312 0.62263 0.05017 0.0
H4755 H 0.01658 0.6487 0.05853 0.0
H4756 H 0.0341 0.66029 0.02941 0.0
H4757 H 0.03068 0.63425 0.021 0.0
H4758 H 0.05426 0.65138 0.02394 0.0
H4759 H 0.09383 0.62391 0.07381 0.0
H4760 H 0.08379 0.58881 0.05952 0.0
H4761 H 0.03271 0.59983 0.03417 0.0
C4762 C 0.05569 0.67873 0.06641 0.0
C4763 C 0.07079 0.69243 0.0778 0.0
C4764 C 0.0862 0.68536 0.08457 0.0
C4765 C 0.08676 0.66539 0.08006 0.0
C4766 C 0.0718 0.6524 0.06875 0.0
C4767 C 0.05652 0.65873 0.062 0.0
C4768 C 0.04236 0.64158 0.05001 0.0
C4769 C 0.02305 0.63585 0.05843 0.0
C4770 C 0.04023 0.64722 0.0299 0.0
C4771 C 0.0521 0.62473 0.0511 0.0
C4772 C 0.06904 0.63133 0.06204 0.0
C4773 C 0.08059 0.61858 0.06521 0.0
C4774 C 0.07473 0.59859 0.05699 0.0
C4775 C 0.05745 0.59135 0.04563 0.0
C4776 C 0.04602 0.60475 0.04272 0.0
H4777 H 0.11053 0.26946 0.87755 0.0
H4778 H 0.07338 0.28258 0.83389 0.0
H4779 H 0.0991 0.28734 0.81282 0.0
H4780 H 0.15311 0.30538 0.86722 0.0
H4781 H 0.16839 0.28942 0.87191 0.0
H4782 H 0.14696 0.28648 0.88364 0.0
H4783 H 0.13582 0.24856 0.87165 0.0
H4784 H 0.15724 0.25137 0.8599 0.0
H4785 H 0.13441 0.2415 0.84703 0.0
H4786 H 0.12874 0.29163 0.79664 0.0
H4787 H 0.16062 0.29481 0.78606 0.0
H4788 H 0.17914 0.27846 0.83962 0.0
C4789 C 0.10773 0.2731 0.86349 0.0
C4790 C 0.08987 0.27581 0.85748 0.0
C4791 C 0.08696 0.2808 0.839 0.0
C4792 C 0.10146 0.28339 0.82685 0.0
C4793 C 0.11888 0.28086 0.83326 0.0
C4794 C 0.12211 0.27575 0.8511 0.0
C4795 C 0.14234 0.27426 0.85445 0.0
C4796 C 0.15335 0.28981 0.87024 0.0
C4797 C 0.14245 0.25263 0.85849 0.0
C4798 C 0.14996 0.27949 0.83576 0.0
C4799 C 0.13612 0.28321 0.82379 0.0
C4800 C 0.1397 0.28874 0.80588 0.0
C4801 C 0.15792 0.29063 0.80005 0.0
C4802 C 0.17248 0.28704 0.81202 0.0
C4803 C 0.16831 0.28119 0.83009 0.0
H4804 H 0.53515 0.64785 0.92639 0.0
H4805 H 0.53761 0.69133 0.97343 0.0
H4806 H 0.53755 0.66506 0.99469 0.0
H4807 H 0.5036 0.60407 0.9466 0.0
H4808 H 0.51517 0.58579 0.93776 0.0
H4809 H 0.51548 0.60784 0.92545 0.0
H4810 H 0.55206 0.61722 0.9271 0.0
H4811 H 0.55179 0.59521 0.93944 0.0
H4812 H 0.56534 0.61996 0.94938 0.0
H4813 H 0.5375 0.63428 0.01209 0.0
H4814 H 0.53723 0.60181 0.0241 0.0
H4815 H 0.53421 0.57473 0.96761 0.0
C4816 C 0.53563 0.65195 0.94116 0.0
C4817 C 0.53679 0.67261 0.94773 0.0
C4818 C 0.53731 0.67644 0.96741 0.0
C4819 C 0.5371 0.6613 0.97986 0.0
C4820 C 0.53625 0.64156 0.97303 0.0
C4821 C 0.53546 0.63667 0.95411 0.0
C4822 C 0.53463 0.61391 0.95087 0.0
C4823 C 0.51612 0.60221 0.93949 0.0
C4824 C 0.55198 0.61143 0.94111 0.0
C4825 C 0.53506 0.60693 0.97085 0.0
C4826 C 0.53601 0.62339 0.98325 0.0
C4827 C 0.53674 0.62139 0.00239 0.0
C4828 C 0.53659 0.6025 0.00916 0.0
C4829 C 0.53567 0.58487 0.99724 0.0
C4830 C 0.53481 0.58742 0.97751 0.0
H4831 H 0.15656 0.80805 0.70525 0.0
H4832 H 0.12099 0.75701 0.73027 0.0
H4833 H 0.14936 0.75089 0.74563 0.0
H4834 H 0.19603 0.78551 0.69783 0.0
H4835 H 0.21466 0.80861 0.70378 0.0
H4836 H 0.19164 0.8096 0.69436 0.0
H4837 H 0.18928 0.83312 0.72284 0.0
H4838 H 0.2123 0.83219 0.73234 0.0
H4839 H 0.19205 0.8252 0.7459 0.0
H4840 H 0.18221 0.74941 0.75916 0.0
H4841 H 0.21559 0.75285 0.7692 0.0
H4842 H 0.23296 0.80482 0.73691 0.0
C4843 C 0.15459 0.79558 0.71399 0.0
C4844 C 0.13559 0.78288 0.71583 0.0
C4845 C 0.13463 0.76687 0.72769 0.0
C4846 C 0.15099 0.76328 0.73682 0.0
C4847 C 0.16915 0.7757 0.7345 0.0
C4848 C 0.17115 0.79162 0.72338 0.0
C4849 C 0.19266 0.80251 0.72345 0.0
C4850 C 0.19913 0.80151 0.70367 0.0
C4851 C 0.19682 0.82458 0.73161 0.0
C4852 C 0.20231 0.79027 0.73624 0.0
C4853 C 0.18825 0.77488 0.74241 0.0
C4854 C 0.19318 0.76148 0.7543 0.0
C4855 C 0.21256 0.76361 0.76003 0.0
C4856 C 0.2278 0.77908 0.75419 0.0
C4857 C 0.2222 0.79267 0.74193 0.0
H4858 H 0.03821 0.37521 0.47232 0.0
H4859 H 0.05225 0.39662 0.41835 0.0
H4860 H 0.05112 0.43064 0.42973 0.0
H4861 H 1.00572 0.40638 0.48207 0.0
H4862 H 0.01329 0.41189 0.5065 0.0
H4863 H 0.01497 0.38874 0.49447 0.0
H4864 H 0.05073 0.39795 0.50497 0.0
H4865 H 0.04915 0.42113 0.51703 0.0
H4866 H 0.06604 0.4219 0.49978 0.0
H4867 H 0.04808 0.4632 0.44642 0.0
H4868 H 0.04437 0.49133 0.46703 0.0
H4869 H 0.0329 0.45189 0.51192 0.0
C4870 C 0.04101 0.387 0.46282 0.0
C4871 C 0.04557 0.38254 0.44414 0.0
C4872 C 0.04912 0.39899 0.43264 0.0
C4873 C 0.04837 0.41864 0.43901 0.0
C4874 C 0.04409 0.42247 0.45728 0.0
C4875 C 0.04053 0.40716 0.46913 0.0
C4876 C 0.03657 0.41589 0.48827 0.0
C4877 C 0.01644 0.40507 0.49312 0.0
C4878 C 0.05151 0.4141 0.50342 0.0
C4879 C 0.03836 0.43834 0.48525 0.0
C4880 C 0.04262 0.44155 0.46712 0.0
C4881 C 0.04475 0.46067 0.46062 0.0
C4882 C 0.0425 0.47679 0.47262 0.0
C4883 C 0.0382 0.47453 0.49146 0.0
C4884 C 0.03623 0.45467 0.49778 0.0
H4885 H 0.41572 0.25936 0.20317 0.0
H4886 H 0.4527 0.3116 0.23624 0.0
H4887 H 0.42575 0.31528 0.25321 0.0
H4888 H 0.37332 0.27858 0.20063 0.0
H4889 H 0.35652 0.25449 0.20284 0.0
H4890 H 0.37862 0.25547 0.19279 0.0
H4891 H 0.38635 0.23226 0.21694 0.0
H4892 H 0.36427 0.23123 0.22706 0.0
H4893 H 0.38637 0.23941 0.24139 0.0
H4894 H 0.39374 0.31401 0.26783 0.0
H4895 H 0.36127 0.30784 0.27778 0.0
H4896 H 0.34235 0.25624 0.2368 0.0
C4897 C 0.41834 0.27162 0.21399 0.0
C4898 C 0.43732 0.28538 0.21758 0.0
C4899 C 0.43903 0.30096 0.2322 0.0
C4900 C 0.42348 0.30314 0.2423 0.0
C4901 C 0.40531 0.2897 0.23828 0.0
C4902 C 0.40261 0.27414 0.22443 0.0
C4903 C 0.38132 0.26186 0.22307 0.0
C4904 C 0.37189 0.26264 0.20367 0.0
C4905 C 0.37947 0.23988 0.22736 0.0
C4906 C 0.37259 0.27285 0.2382 0.0
C4907 C 0.38689 0.2889 0.24677 0.0
C4908 C 0.38264 0.30141 0.26107 0.0
C4909 C 0.36378 0.2977 0.26675 0.0
C4910 C 0.34835 0.28146 0.25852 0.0
C4911 C 0.35327 0.26885 0.24382 0.0
H4912 H 0.63211 0.52016 0.42326 0.0
H4913 H 0.59553 0.46584 0.39297 0.0
H4914 H 0.57507 0.46047 0.41922 0.0
H4915 H 0.62574 0.50257 0.47144 0.0
H4916 H 0.62589 0.52753 0.48077 0.0
H4917 H 0.63967 0.52458 0.46148 0.0
H4918 H 0.62271 0.54616 0.44234 0.0
H4919 H 0.60879 0.549 0.46141 0.0
H4920 H 0.59715 0.53859 0.43886 0.0
H4921 H 0.55589 0.46441 0.4462 0.0
H4922 H 0.54021 0.47666 0.47207 0.0
H4923 H 0.58943 0.52866 0.48418 0.0
C4924 C 0.62007 0.50685 0.42239 0.0
C4925 C 0.61535 0.49339 0.40619 0.0
C4926 C 0.59949 0.47616 0.40542 0.0
C4927 C 0.58779 0.47303 0.42023 0.0
C4928 C 0.59238 0.48712 0.43572 0.0
C4929 C 0.60832 0.50353 0.43699 0.0
C4930 C 0.60909 0.51766 0.45408 0.0
C4931 C 0.62611 0.5181 0.46775 0.0
C4932 C 0.60944 0.53911 0.44885 0.0
C4933 C 0.59057 0.50725 0.46169 0.0
C4934 C 0.58127 0.48946 0.45117 0.0
C4935 C 0.5632 0.4781 0.45476 0.0
C4936 C 0.55438 0.48523 0.46942 0.0
C4937 C 0.56358 0.50365 0.48008 0.0
C4938 C 0.58202 0.51451 0.47631 0.0
H4939 H 0.28752 0.84152 0.08273 0.0
H4940 H 0.29738 0.90518 0.10072 0.0
H4941 H 0.30841 0.89894 0.13209 0.0
H4942 H 0.27084 0.82202 0.12569 0.0
H4943 H 0.28232 0.80196 0.1243 0.0
H4944 H 0.27482 0.81141 0.10332 0.0
H4945 H 0.30911 0.81882 0.09304 0.0
H4946 H 0.31675 0.80958 0.11409 0.0
H4947 H 0.32851 0.83473 0.10827 0.0
H4948 H 0.31902 0.88611 0.16122 0.0
H4949 H 0.32702 0.86701 0.18683 0.0
H4950 H 0.3103 0.81173 0.14998 0.0
C4951 C 0.29197 0.85412 0.09328 0.0
C4952 C 0.29141 0.87379 0.08932 0.0
C4953 C 0.29729 0.88989 0.10353 0.0
C4954 C 0.30377 0.88655 0.12135 0.0
C4955 C 0.3043 0.86704 0.12473 0.0
C4956 C 0.29847 0.85107 0.11117 0.0
C4957 C 0.3004 0.83156 0.11852 0.0
C4958 C 0.28094 0.81581 0.11793 0.0
C4959 C 0.31454 0.82319 0.10784 0.0
C4960 C 0.30824 0.8391 0.13833 0.0
C4961 C 0.31045 0.85963 0.14159 0.0
C4962 C 0.3173 0.87001 0.15888 0.0
C4963 C 0.32175 0.85904 0.17333 0.0
C4964 C 0.31928 0.8379 0.17039 0.0
C4965 C 0.31261 0.82792 0.15258 0.0
H4966 H 0.01727 0.53996 0.88499 0.0
H4967 H 0.02523 0.60456 0.89401 0.0
H4968 H 0.04495 0.60541 0.92331 0.0
H4969 H 1.00733 0.53029 0.9282 0.0
H4970 H 0.0183 0.50995 0.93016 0.0
H4971 H 0.01019 0.51538 0.90769 0.0
H4972 H 0.04388 0.51978 0.89648 0.0
H4973 H 0.05213 0.51432 0.91906 0.0
H4974 H 0.06404 0.53743 0.90938 0.0
H4975 H 0.05884 0.59826 0.95367 0.0
H4976 H 0.06183 0.58347 0.98369 0.0
H4977 H 0.04216 0.52326 0.9556 0.0
C4978 C 0.02394 0.55439 0.89276 0.0
C4979 C 0.02025 0.57227 0.88723 0.0
C4980 C 0.02828 0.5908 0.89803 0.0
C4981 C 0.03958 0.59141 0.91455 0.0
C4982 C 0.04249 0.57331 0.92 0.0
C4983 C 0.03479 0.55511 0.90941 0.0
C4984 C 0.03655 0.5373 0.91984 0.0
C4985 C 0.01694 0.52239 0.92158 0.0
C4986 C 0.04995 0.52658 0.91064 0.0
C4987 C 0.04535 0.54816 0.93838 0.0
C4988 C 0.04947 0.56898 0.938 0.0
C4989 C 0.05608 0.58204 0.95403 0.0
C4990 C 0.05779 0.57357 0.97098 0.0
C4991 C 0.05236 0.55234 0.97164 0.0
C4992 C 0.04668 0.53955 0.95517 0.0
H4993 H 0.31585 0.24324 0.63589 0.0
H4994 H 0.25828 0.24292 0.61774 0.0
H4995 H 0.25259 0.25167 0.65006 0.0
H4996 H 0.30499 0.22145 0.67961 0.0
H4997 H 0.32633 0.23699 0.69246 0.0
H4998 H 0.3262 0.23085 0.66782 0.0
H4999 H 0.33758 0.26898 0.6628 0.0
H5000 H 0.33776 0.27522 0.68743 0.0
H5001 H 0.32419 0.28571 0.67118 0.0
H5002 H 0.25248 0.25956 0.68467 0.0
H5003 H 0.2584 0.26734 0.71861 0.0
H5004 H 0.31626 0.26356 0.71544 0.0
C5005 C 0.30202 0.24499 0.63868 0.0
C5006 C 0.28757 0.24247 0.62391 0.0
C5007 C 0.26977 0.24507 0.62846 0.0
C5008 C 0.26632 0.24992 0.64692 0.0
C5009 C 0.28079 0.25231 0.66102 0.0
C5010 C 0.29835 0.25006 0.65717 0.0
C5011 C 0.31146 0.2537 0.67505 0.0
C5012 C 0.31761 0.23461 0.67896 0.0
C5013 C 0.32877 0.27199 0.67405 0.0
C5014 C 0.29848 0.25819 0.68952 0.0
C5015 C 0.28082 0.2572 0.68105 0.0
C5016 C 0.26629 0.26044 0.6914 0.0
C5017 C 0.26981 0.26483 0.7108 0.0
C5018 C 0.28781 0.26616 0.72001 0.0
C5019 C 0.30233 0.26278 0.70902 0.0
H5020 H 0.59971 0.5487 0.23347 0.0
H5021 H 0.59144 0.48375 0.22609 0.0
H5022 H 0.5748 0.48276 0.19514 0.0
H5023 H 0.5546 0.54957 0.20844 0.0
H5024 H 0.56548 0.57281 0.19842 0.0
H5025 H 0.57459 0.56795 0.22086 0.0
H5026 H 0.60804 0.57341 0.20885 0.0
H5027 H 0.59905 0.57819 0.18639 0.0
H5028 H 0.61094 0.55858 0.18831 0.0
H5029 H 0.56235 0.48944 0.1638 0.0
H5030 H 0.55388 0.50312 0.1347 0.0
H5031 H 0.57071 0.56376 0.16251 0.0
C5032 C 0.5942 0.53423 0.22544 0.0
C5033 C 0.59683 0.51629 0.23217 0.0
C5034 C 0.58933 0.49763 0.2213 0.0
C5035 C 0.57994 0.49693 0.20369 0.0
C5036 C 0.57804 0.515 0.19727 0.0
C5037 C 0.58481 0.53327 0.20788 0.0
C5038 C 0.58201 0.55069 0.19735 0.0
C5039 C 0.56835 0.56085 0.20684 0.0
C5040 C 0.60115 0.56611 0.19509 0.0
C5041 C 0.57311 0.53943 0.17894 0.0
C5042 C 0.5708 0.51885 0.17922 0.0
C5043 C 0.56386 0.50549 0.16348 0.0
C5044 C 0.55924 0.51341 0.14702 0.0
C5045 C 0.56162 0.53448 0.14643 0.0
C5046 C 0.56845 0.54757 0.16267 0.0
H5047 H 0.28234 0.87895 0.88989 0.0
H5048 H 0.24776 0.83103 0.9192 0.0
H5049 H 0.24238 0.80775 0.89072 0.0
H5050 H 0.25456 0.86375 0.84363 0.0
H5051 H 0.27568 0.87039 0.83124 0.0
H5052 H 0.27474 0.88402 0.85316 0.0
H5053 H 0.30522 0.87567 0.86607 0.0
H5054 H 0.3062 0.86196 0.84428 0.0
H5055 H 0.3058 0.84962 0.86557 0.0
H5056 H 0.24459 0.78863 0.86103 0.0
H5057 H 0.25268 0.77516 0.83109 0.0
H5058 H 0.28487 0.83564 0.82036 0.0
C5059 C 0.27337 0.86365 0.89017 0.0
C5060 C 0.2654 0.85675 0.90667 0.0
C5061 C 0.25377 0.83665 0.9066 0.0
C5062 C 0.25067 0.82334 0.89052 0.0
C5063 C 0.25906 0.83047 0.87459 0.0
C5064 C 0.26996 0.85023 0.87418 0.0
C5065 C 0.27833 0.85369 0.8556 0.0
C5066 C 0.27034 0.86886 0.8453 0.0
C5067 C 0.30018 0.86063 0.85804 0.0
C5068 C 0.27113 0.83255 0.84597 0.0
C5069 C 0.25993 0.81945 0.85713 0.0
C5070 C 0.25301 0.79879 0.85198 0.0
C5071 C 0.25778 0.79127 0.83503 0.0
C5072 C 0.26927 0.8044 0.82342 0.0
C5073 C 0.27575 0.82535 0.82883 0.0
H5074 H 0.01016 0.53191 0.72779 0.0
H5075 H 1.00542 0.5929 0.72227 0.0
H5076 H 0.02533 0.59583 0.69598 0.0
H5077 H 0.05799 0.53797 0.70874 0.0
H5078 H 0.04992 0.51331 0.6962 0.0
H5079 H 0.04063 0.51797 0.71809 0.0
H5080 H 1.00629 0.50588 0.70235 0.0
H5081 H 0.01548 0.50097 0.68064 0.0
H5082 H 1.00029 0.51759 0.6821 0.0
H5083 H 0.04072 0.59048 0.66737 0.0
H5084 H 0.04593 0.57586 0.63681 0.0
H5085 H 0.03673 0.51698 0.65862 0.0
C5086 C 0.01343 0.54602 0.72127 0.0
C5087 C 1.00619 0.56218 0.72735 0.0
C5088 C 0.01111 0.58041 0.71837 0.0
C5089 C 0.02248 0.58226 0.70335 0.0
C5090 C 0.02876 0.56574 0.69732 0.0
C5091 C 0.02425 0.54789 0.70593 0.0
C5092 C 0.02936 0.53109 0.69469 0.0
C5093 C 0.04544 0.52472 0.70505 0.0
C5094 C 0.01181 0.51283 0.68964 0.0
C5095 C 0.03617 0.5419 0.67778 0.0
C5096 C 0.03658 0.56212 0.67997 0.0
C5097 C 0.04067 0.57474 0.66557 0.0
C5098 C 0.04343 0.56624 0.64821 0.0
C5099 C 0.04145 0.54519 0.64525 0.0
C5100 C 0.0387 0.53316 0.66049 0.0
H5101 H 0.28934 0.25937 0.42259 0.0
H5102 H 0.31312 0.20816 0.41761 0.0
H5103 H 0.31666 0.21282 0.38442 0.0
H5104 H 0.26289 0.24935 0.37707 0.0
H5105 H 0.26752 0.27564 0.37266 0.0
H5106 H 0.26678 0.26851 0.39622 0.0
H5107 H 0.30047 0.29258 0.40445 0.0
H5108 H 0.30133 0.29973 0.38088 0.0
H5109 H 0.31967 0.28985 0.391 0.0
H5110 H 0.31714 0.22225 0.35117 0.0
H5111 H 0.31481 0.23606 0.32074 0.0
H5112 H 0.29139 0.28192 0.34602 0.0
C5113 C 0.29525 0.24909 0.41452 0.0
C5114 C 0.30114 0.23346 0.42313 0.0
C5115 C 0.30883 0.2205 0.41179 0.0
C5116 C 0.31081 0.22295 0.39274 0.0
C5117 C 0.30511 0.23852 0.38481 0.0
C5118 C 0.29749 0.25144 0.39531 0.0
C5119 C 0.2926 0.267 0.38315 0.0
C5120 C 0.27118 0.265 0.38222 0.0
C5121 C 0.30421 0.28857 0.3903 0.0
C5122 C 0.29858 0.26076 0.36425 0.0
C5123 C 0.30569 0.24421 0.3656 0.0
C5124 C 0.31169 0.23529 0.35004 0.0
C5125 C 0.31031 0.24329 0.3327 0.0
C5126 C 0.30309 0.26027 0.33074 0.0
C5127 C 0.29727 0.26916 0.34693 0.0
H5128 H 0.36803 0.58435 0.51316 0.0
H5129 H 0.33288 0.53989 0.54544 0.0
H5130 H 0.35136 0.51589 0.5372 0.0
H5131 H 0.37407 0.54845 0.4758 0.0
H5132 H 0.39832 0.56245 0.47358 0.0
H5133 H 0.38146 0.57554 0.48098 0.0
H5134 H 0.40352 0.59097 0.51073 0.0
H5135 H 0.42043 0.57799 0.50341 0.0
H5136 H 0.41118 0.57439 0.52587 0.0
H5137 H 0.37493 0.49774 0.52712 0.0
H5138 H 0.40267 0.48731 0.51708 0.0
H5139 H 0.42147 0.54319 0.49032 0.0
C5140 C 0.36398 0.56943 0.5182 0.0
C5141 C 0.34901 0.56394 0.52989 0.0
C5142 C 0.34443 0.54445 0.5366 0.0
C5143 C 0.35471 0.53067 0.53185 0.0
C5144 C 0.36943 0.5366 0.52033 0.0
C5145 C 0.37406 0.55552 0.51359 0.0
C5146 C 0.39119 0.55863 0.50236 0.0
C5147 C 0.38594 0.56143 0.48197 0.0
C5148 C 0.40754 0.57655 0.51113 0.0
C5149 C 0.39574 0.53867 0.50416 0.0
C5150 C 0.38292 0.52608 0.51441 0.0
C5151 C 0.38489 0.50732 0.51883 0.0
C5152 C 0.40062 0.50146 0.51295 0.0
C5153 C 0.41418 0.51439 0.50283 0.0
C5154 C 0.41138 0.533 0.49806 0.0
H5155 H 0.90661 0.92815 0.52182 0.0
H5156 H 0.87992 0.97421 0.54055 0.0
H5157 H 0.91044 1.00036 0.54016 0.0
H5158 H 0.95157 0.94936 0.54778 0.0
H5159 H 0.96515 0.94271 0.52963 0.0
H5160 H 0.94122 0.92762 0.53151 0.0
H5161 H 0.93221 0.93292 0.49734 0.0
H5162 H 0.95613 0.94802 0.49536 0.0
H5163 H 0.93642 0.95829 0.49024 0.0
H5164 H 0.94435 0.02172 0.53788 0.0
H5165 H 0.97848 0.03617 0.53377 0.0
H5166 H 0.98256 0.97624 0.51569 0.0
C5167 C 0.90706 0.94374 0.52568 0.0
C5168 C 0.89071 0.94899 0.5313 0.0
C5169 C 0.8922 0.96963 0.53649 0.0
C5170 C 0.90949 0.98467 0.53619 0.0
C5171 C 0.92527 0.97894 0.5306 0.0
C5172 C 0.92419 0.95895 0.52541 0.0
C5173 C 0.94323 0.95675 0.52 0.0
C5174 C 0.95073 0.94332 0.53301 0.0
C5175 C 0.94191 0.94851 0.49952 0.0
C5176 C 0.95519 0.9786 0.52293 0.0
C5177 C 0.94461 0.99119 0.52908 0.0
C5178 C 0.95273 0.01198 0.533 0.0
C5179 C 0.97215 0.02007 0.53062 0.0
C5180 C 0.98327 0.00743 0.52432 0.0
C5181 C 0.97452 0.98642 0.5204 0.0
H5182 H 0.87436 0.12118 0.28873 0.0
H5183 H 0.84109 0.0781 0.24469 0.0
H5184 H 0.81347 0.0913 0.24962 0.0
H5185 H 0.83529 0.12058 0.31892 0.0
H5186 H 0.84387 0.14737 0.32553 0.0
H5187 H 0.86037 0.13307 0.31996 0.0
H5188 H 0.87344 0.15757 0.29506 0.0
H5189 H 0.85706 0.17194 0.30059 0.0
H5190 H 0.85724 0.16181 0.27699 0.0
H5191 H 0.79051 0.11077 0.25752 0.0
H5192 H 0.77436 0.13664 0.26651 0.0
H5193 H 0.82237 0.16684 0.30572 0.0
C5194 C 0.86113 0.11432 0.28039 0.0
C5195 C 0.85977 0.09866 0.26636 0.0
C5196 C 0.8424 0.09025 0.25542 0.0
C5197 C 0.82662 0.0975 0.25823 0.0
C5198 C 0.82846 0.1131 0.27207 0.0
C5199 C 0.84528 0.12146 0.28294 0.0
C5200 C 0.84399 0.13921 0.29576 0.0
C5201 C 0.846 0.13478 0.31626 0.0
C5202 C 0.8588 0.15878 0.29185 0.0
C5203 C 0.82401 0.13986 0.29002 0.0
C5204 C 0.81519 0.12446 0.27656 0.0
C5205 C 0.79712 0.12271 0.26827 0.0
C5206 C 0.78802 0.1374 0.27355 0.0
C5207 C 0.79708 0.15368 0.28687 0.0
C5208 C 0.8151 0.15456 0.2955 0.0
H5209 H 0.68574 0.05769 0.05303 0.0
H5210 H 0.69929 0.10021 0.01093 0.0
H5211 H 0.66588 0.08912 0.99759 0.0
H5212 H 0.64938 0.01727 0.02294 0.0
H5213 H 0.63461 0.01082 0.04192 0.0
H5214 H 0.66004 0.02006 0.04645 0.0
H5215 H 0.65589 0.04859 0.06965 0.0
H5216 H 0.63053 0.0395 0.06516 0.0
H5217 H 0.64254 0.06545 0.06191 0.0
H5218 H 0.63076 0.07705 0.99177 0.0
H5219 H 0.59607 0.0639 0.99316 0.0
H5220 H 0.60547 0.02833 0.03844 0.0
C5221 C 0.68164 0.06417 0.04071 0.0
C5222 C 0.69478 0.07956 0.03276 0.0
C5223 C 0.68918 0.08822 0.01694 0.0
C5224 C 0.67035 0.08199 0.0093 0.0
C5225 C 0.65749 0.06698 0.01761 0.0
C5226 C 0.6629 0.05802 0.03285 0.0
C5227 C 0.64601 0.04341 0.04001 0.0
C5228 C 0.64761 0.0216 0.03768 0.0
C5229 C 0.64361 0.04962 0.06038 0.0
C5230 C 0.63021 0.04625 0.02695 0.0
C5231 C 0.63714 0.05974 0.014 0.0
C5232 C 0.62515 0.06613 0.00156 0.0
C5233 C 0.60551 0.05869 0.00252 0.0
C5234 C 0.59817 0.04501 0.0158 0.0
C5235 C 0.6107 0.03846 0.02789 0.0
H5236 H 0.20327 0.42901 0.24155 0.0
H5237 H 0.24324 0.48033 0.22141 0.0
H5238 H 0.26897 0.46361 0.22624 0.0
H5239 H 0.23298 0.42126 0.27756 0.0
H5240 H 0.22455 0.39401 0.2751 0.0
H5241 H 0.2091 0.4089 0.26791 0.0
H5242 H 0.20372 0.39034 0.23481 0.0
H5243 H 0.219 0.37518 0.24197 0.0
H5244 H 0.2239 0.38962 0.22201 0.0
H5245 H 0.29084 0.44269 0.23699 0.0
H5246 H 0.30629 0.4181 0.25013 0.0
H5247 H 0.2513 0.38111 0.26283 0.0
C5248 C 0.21738 0.43653 0.23783 0.0
C5249 C 0.2214 0.45586 0.23113 0.0
C5250 C 0.23996 0.46537 0.22639 0.0
C5251 C 0.25461 0.45604 0.22917 0.0
C5252 C 0.25028 0.43718 0.23642 0.0
C5253 C 0.23201 0.42743 0.24039 0.0
C5254 C 0.23107 0.40777 0.24888 0.0
C5255 C 0.22402 0.40802 0.26852 0.0
C5256 C 0.21869 0.38966 0.23615 0.0
C5257 C 0.25174 0.40817 0.24954 0.0
C5258 C 0.26267 0.42517 0.24229 0.0
C5259 C 0.28237 0.42917 0.24243 0.0
C5260 C 0.29103 0.41526 0.25002 0.0
C5261 C 0.27991 0.39766 0.25723 0.0
C5262 C 0.26008 0.39421 0.257 0.0
H5263 H 0.22262 0.44362 0.03587 0.0
H5264 H 0.18696 0.38254 0.02087 0.0
H5265 H 0.15852 0.3952 0.02019 0.0
H5266 H 0.19072 0.4597 0.06576 0.0
H5267 H 0.19607 0.485 0.05837 0.0
H5268 H 0.2137 0.47118 0.05782 0.0
H5269 H 0.21665 0.47638 0.02283 0.0
H5270 H 0.19908 0.49025 0.02328 0.0
H5271 H 0.19569 0.46851 0.00684 0.0
H5272 H 0.13373 0.4144 0.02169 0.0
H5273 H 0.11464 0.43877 0.02406 0.0
H5274 H 0.16631 0.48778 0.0369 0.0
C5275 C 0.20881 0.43289 0.03255 0.0
C5276 C 0.20709 0.41204 0.02838 0.0
C5277 C 0.18873 0.39858 0.02388 0.0
C5278 C 0.17245 0.40562 0.02357 0.0
C5279 C 0.17465 0.42623 0.0277 0.0
C5280 C 0.19237 0.43971 0.03201 0.0
C5281 C 0.19078 0.46117 0.03554 0.0
C5282 C 0.19826 0.46976 0.05557 0.0
C5283 C 0.20117 0.47488 0.02127 0.0
C5284 C 0.16942 0.45763 0.03263 0.0
C5285 C 0.16039 0.43735 0.0282 0.0
C5286 C 0.14069 0.43034 0.02501 0.0
C5287 C 0.12994 0.44439 0.02627 0.0
C5288 C 0.13882 0.46537 0.03055 0.0
C5289 C 0.15891 0.47191 0.03381 0.0
H5290 H 0.88743 0.92445 0.25525 0.0
H5291 H 0.84467 0.94178 0.22108 0.0
H5292 H 0.82204 0.90843 0.22374 0.0
H5293 H 0.87424 0.87086 0.23692 0.0
H5294 H 0.87892 0.8623 0.25931 0.0
H5295 H 0.89214 0.88697 0.25355 0.0
H5296 H 0.88192 0.90326 0.28311 0.0
H5297 H 0.86853 0.8787 0.28887 0.0
H5298 H 0.85702 0.89856 0.28652 0.0
H5299 H 0.80358 0.8743 0.23173 0.0
H5300 H 0.79068 0.84095 0.24355 0.0
H5301 H 0.84567 0.84575 0.27231 0.0
C5302 C 0.87346 0.92105 0.24796 0.0
C5303 C 0.86777 0.93566 0.23795 0.0
C5304 C 0.84923 0.93083 0.22896 0.0
C5305 C 0.83633 0.91193 0.23032 0.0
C5306 C 0.84225 0.89803 0.24063 0.0
C5307 C 0.86041 0.90226 0.24917 0.0
C5308 C 0.86294 0.88496 0.26004 0.0
C5309 C 0.87795 0.87573 0.25197 0.0
C5310 C 0.86789 0.89179 0.28087 0.0
C5311 C 0.84325 0.87051 0.25656 0.0
C5312 C 0.83157 0.8783 0.24525 0.0
C5313 C 0.81261 0.86795 0.24047 0.0
C5314 C 0.80541 0.84906 0.24734 0.0
C5315 C 0.81715 0.84073 0.2589 0.0
C5316 C 0.83632 0.85167 0.26351 0.0
H5317 H 0.70689 0.13614 0.77085 0.0
H5318 H 0.73361 0.11628 0.72403 0.0
H5319 H 0.75521 0.15081 0.72412 0.0
H5320 H 0.70868 0.18574 0.75573 0.0
H5321 H 0.71329 0.19799 0.779 0.0
H5322 H 0.69997 0.17175 0.77513 0.0
H5323 H 0.72377 0.16221 0.79841 0.0
H5324 H 0.73721 0.1884 0.80228 0.0
H5325 H 0.74873 0.16953 0.79483 0.0
H5326 H 0.77483 0.18693 0.73038 0.0
H5327 H 0.78952 0.22301 0.74071 0.0
H5328 H 0.74901 0.21954 0.7826 0.0
C5329 C 0.71729 0.13912 0.76062 0.0
C5330 C 0.71868 0.12366 0.74744 0.0
C5331 C 0.73229 0.12805 0.73413 0.0
C5332 C 0.74465 0.14753 0.73415 0.0
C5333 C 0.74302 0.16243 0.74744 0.0
C5334 C 0.72955 0.15852 0.76029 0.0
C5335 C 0.73056 0.17728 0.77288 0.0
C5336 C 0.71202 0.18356 0.77054 0.0
C5337 C 0.73536 0.17416 0.79331 0.0
C5338 C 0.74683 0.1923 0.76522 0.0
C5339 C 0.75391 0.1834 0.75064 0.0
C5340 C 0.76932 0.19412 0.74168 0.0
C5341 C 0.77761 0.21455 0.7477 0.0
C5342 C 0.77032 0.22404 0.76237 0.0
C5343 C 0.75474 0.21272 0.77121 0.0
loop_
_geom_bond_atom_site_label_1
_geom_bond_atom_site_label_2
_geom_bond_distance
_geom_bond_site_symmetry_2
_ccdc_geom_bond_type
Li0 N17 1.990 1_455 S
Li0 O60 1.956 . S
Li0 O61 1.970 . S
Li0 O62 1.961 . S
Li1 N25 1.990 . S
Li1 O60 1.970 . S
Li1 O61 1.956 . S
Li1 O63 1.961 . S
Li2 N47 1.990 . S
Li2 O60 1.961 . S
Li2 O62 1.956 . S
Li2 O63 1.970 . S
Li3 N53 1.990 . S
Li3 O61 1.961 . S
Li3 O62 1.970 . S
Li3 O63 1.956 . S
C4 C6 1.348 . S
C4 C7 1.356 . S
C4 O60 1.325 . S
N5 C8 1.314 . S
N5 C9 1.279 . S
C6 C4 1.348 . S
C6 C8 1.353 . S
C6 H64 0.929 . S
C7 C4 1.356 . S
C7 C9 1.358 . S
C7 H65 0.930 . S
C8 N5 1.314 . S
C8 C6 1.353 . S
C8 H66 0.930 . S
C9 N5 1.279 . S
C9 C7 1.358 . S
C9 H67 0.930 . S
C10 C13 1.348 . S
C10 C14 1.356 . S
C10 O61 1.325 1_655 S
C11 N12 1.279 . S
C11 C14 1.358 . S
C11 H68 0.930 . S
N12 C11 1.279 . S
N12 C15 1.314 . S
C13 C10 1.348 . S
C13 C15 1.353 . S
C13 H69 0.929 . S
C14 C10 1.356 . S
C14 C11 1.358 . S
C14 H70 0.930 1_655 S
C15 N12 1.314 . S
C15 C13 1.353 . S
C15 H71 0.930 . S
C16 N17 1.314 . S
C16 C21 1.353 . S
C16 H22 0.930 . S
N17 Li0 1.990 1_655 S
N17 C16 1.314 . S
N17 C19 1.279 . S
C18 C19 1.358 . S
C18 C20 1.356 . S
C18 H72 0.930 . S
C19 N17 1.279 . S
C19 C18 1.358 . S
C19 H23 0.930 . S
C20 C18 1.356 . S
C20 C21 1.348 . S
C21 C16 1.353 . S
C21 C20 1.348 . S
C21 H73 0.929 . S
H22 C16 0.930 . S
H23 C19 0.930 . S
C24 N25 1.314 . S
C24 C26 1.353 . S
C24 H30 0.930 . S
N25 Li1 1.990 . S
N25 C24 1.314 . S
N25 C28 1.279 . S
C26 C24 1.353 . S
C26 C29 1.348 . S
C26 H74 0.929 . S
C27 C28 1.358 . S
C27 C29 1.356 . S
C27 H75 0.930 . S
C28 N25 1.279 . S
C28 C27 1.358 . S
C28 H31 0.930 . S
C29 C26 1.348 . S
C29 C27 1.356 . S
H30 C24 0.930 . S
H31 C28 0.930 . S
C32 C34 1.348 . S
C32 C35 1.356 . S
C32 O62 1.325 . S
N33 C36 1.314 . S
N33 C37 1.279 . S
C34 C32 1.348 . S
C34 C36 1.353 . S
C34 H76 0.929 . S
C35 C32 1.356 . S
C35 C37 1.358 . S
C35 H77 0.930 . S
C36 N33 1.314 . S
C36 C34 1.353 . S
C36 H78 0.930 . S
C37 N33 1.279 . S
C37 C35 1.358 . S
C37 H79 0.930 . S
C38 C39 1.348 . S
C38 C40 1.356 . S
C38 O63 1.325 . S
C39 C38 1.348 . S
C39 C41 1.353 . S
C39 H80 0.929 . S
C40 C38 1.356 . S
C40 C42 1.358 . S
C40 H81 0.930 . S
C41 C39 1.353 . S
C41 N43 1.314 . S
C41 H82 0.930 . S
C42 C40 1.358 . S
C42 N43 1.279 . S
C42 H83 0.930 . S
N43 C41 1.314 . S
N43 C42 1.279 . S
C44 C46 1.353 . S
C44 N47 1.314 . S
C44 H50 0.930 . S
C45 N47 1.279 . S
C45 C48 1.358 . S
C45 H51 0.930 . S
C46 C44 1.353 . S
C46 C49 1.348 . S
C46 H84 0.929 . S
N47 Li2 1.990 . S
N47 C44 1.314 . S
N47 C45 1.279 . S
C48 C45 1.358 . S
C48 C49 1.356 . S
C48 H85 0.930 . S
C49 C46 1.348 . S
C49 C48 1.356 . S
H50 C44 0.930 . S
H51 C45 0.930 . S
C52 N53 1.314 . S
C52 C54 1.353 . S
C52 H58 0.949 . S
N53 Li3 1.990 . S
N53 C52 1.314 . S
N53 C56 1.279 . S
C54 C52 1.353 . S
C54 C57 1.348 . S
C54 H86 0.929 1_455 S
C55 C56 1.358 . S
C55 C57 1.356 . S
C55 H87 0.930 . S
C56 N53 1.279 . S
C56 C55 1.358 . S
C56 H59 0.930 . S
C57 C54 1.348 . S
C57 C55 1.356 . S
H58 C52 0.949 . S
H59 C56 0.930 . S
O60 Li0 1.956 . S
O60 Li1 1.970 . S
O60 Li2 1.961 . S
O60 C4 1.325 . S
O61 Li0 1.970 . S
O61 Li1 1.956 . S
O61 Li3 1.961 . S
O61 C10 1.325 1_455 S
O62 Li0 1.961 . S
O62 Li2 1.956 . S
O62 Li3 1.970 . S
O62 C32 1.325 . S
O63 Li1 1.961 . S
O63 Li2 1.970 . S
O63 Li3 1.956 . S
O63 C38 1.325 . S
H64 C6 0.929 . S
H65 C7 0.930 . S
H66 C8 0.930 . S
H67 C9 0.930 . S
H68 C11 0.930 . S
H69 C13 0.929 . S
H70 C14 0.930 1_455 S
H71 C15 0.930 . S
H72 C18 0.930 . S
H73 C21 0.929 . S
H74 C26 0.929 . S
H75 C27 0.930 . S
H76 C34 0.929 . S
H77 C35 0.930 . S
H78 C36 0.930 . S
H79 C37 0.930 . S
H80 C39 0.929 . S
H81 C40 0.930 . S
H82 C41 0.930 . S
H83 C42 0.930 . S
H84 C46 0.929 . S
H85 C48 0.930 . S
H86 C54 0.929 1_655 S
H87 C55 0.930 . S
Li88 N105 1.990 . S
Li88 O148 1.956 . S
Li88 O149 1.970 . S
Li88 O150 1.961 . S
Li89 N113 1.990 . S
Li89 O148 1.970 . S
Li89 O149 1.956 . S
Li89 O151 1.961 . S
Li90 N135 1.990 . S
Li90 O148 1.961 . S
Li90 O150 1.956 . S
Li90 O151 1.970 . S
Li91 N141 2.027 . S
Li91 O149 1.961 . S
Li91 O150 1.970 . S
Li91 O151 1.956 . S
C92 C94 1.348 . S
C92 C95 1.356 . S
C92 O148 1.325 . S
N93 C96 1.314 . S
N93 C97 1.279 . S
C94 C92 1.348 . S
C94 C96 1.353 . S
C94 H152 0.929 . S
C95 C92 1.356 . S
C95 C97 1.358 . S
C95 H153 0.930 . S
C96 N93 1.314 . S
C96 C94 1.353 . S
C96 H154 0.930 . S
C97 N93 1.279 . S
C97 C95 1.358 . S
C97 H155 0.930 . S
C98 C101 1.348 . S
C98 C102 1.356 . S
C98 O149 1.325 . S
C99 N100 1.279 . S
C99 C102 1.358 . S
C99 H156 0.930 . S
N100 C99 1.279 . S
N100 C103 1.314 . S
C101 C98 1.348 . S
C101 C103 1.353 . S
C101 H157 0.929 . S
C102 C98 1.356 . S
C102 C99 1.358 . S
C102 H158 0.930 . S
C103 N100 1.314 . S
C103 C101 1.353 . S
C103 H159 0.930 . S
C104 N105 1.314 . S
C104 C109 1.353 . S
C104 H110 0.930 . S
N105 Li88 1.990 . S
N105 C104 1.314 . S
N105 C107 1.279 . S
C106 C107 1.358 . S
C106 C108 1.356 . S
C106 H160 0.930 . S
C107 N105 1.279 . S
C107 C106 1.358 . S
C107 H111 0.930 . S
C108 C106 1.356 . S
C108 C109 1.348 . S
C109 C104 1.353 . S
C109 C108 1.348 . S
C109 H161 0.929 . S
H110 C104 0.930 . S
H111 C107 0.930 . S
C112 N113 1.314 . S
C112 C114 1.353 . S
C112 H118 0.930 . S
N113 Li89 1.990 . S
N113 C112 1.314 . S
N113 C116 1.279 . S
C114 C112 1.353 . S
C114 C117 1.348 . S
C114 H162 0.929 . S
C115 C116 1.358 . S
C115 C117 1.356 . S
C115 H163 0.930 . S
C116 N113 1.279 . S
C116 C115 1.358 . S
C116 H119 0.930 . S
C117 C114 1.348 . S
C117 C115 1.356 . S
H118 C112 0.930 . S
H119 C116 0.930 . S
C120 C122 1.348 1_455 S
C120 C123 1.356 . S
C120 O150 1.325 . S
N121 C124 1.314 . S
N121 C125 1.279 . S
C122 C120 1.348 1_655 S
C122 C124 1.353 . S
C122 H164 0.929 . S
C123 C120 1.356 . S
C123 C125 1.358 1_455 S
C123 H165 0.930 . S
C124 N121 1.314 . S
C124 C122 1.353 . S
C124 H166 0.930 . S
C125 N121 1.279 . S
C125 C123 1.358 1_655 S
C125 H167 0.930 . S
C126 C127 1.348 . S
C126 C128 1.356 . S
C126 O151 1.325 . S
C127 C126 1.348 . S
C127 C129 1.353 . S
C127 H168 0.929 . S
C128 C126 1.356 . S
C128 C130 1.358 . S
C128 H169 0.930 . S
C129 C127 1.353 . S
C129 N131 1.314 . S
C129 H170 0.930 . S
C130 C128 1.358 . S
C130 N131 1.279 . S
C130 H171 0.930 . S
N131 C129 1.314 . S
N131 C130 1.279 . S
C132 C134 1.353 . S
C132 N135 1.314 . S
C132 H138 0.930 . S
C133 N135 1.279 . S
C133 C136 1.358 . S
C133 H139 0.930 . S
C134 C132 1.353 . S
C134 C137 1.348 . S
C134 H172 0.929 . S
N135 Li90 1.990 . S
N135 C132 1.314 . S
N135 C133 1.279 . S
C136 C133 1.358 . S
C136 C137 1.356 . S
C136 H173 0.944 . S
C137 C134 1.348 . S
C137 C136 1.356 . S
H138 C132 0.930 . S
H139 C133 0.930 . S
C140 N141 1.283 1_655 S
C140 C142 1.353 . S
C140 H146 0.930 . S
N141 Li91 2.027 . S
N141 C140 1.283 1_455 S
N141 C144 1.268 1_455 S
C142 C140 1.353 . S
C142 C145 1.348 . S
C142 H174 0.929 . S
C143 C144 1.358 . S
C143 C145 1.356 . S
C143 H175 0.930 . S
C144 N141 1.268 1_655 S
C144 C143 1.358 . S
C144 H147 0.930 . S
C145 C142 1.348 . S
C145 C143 1.356 . S
H146 C140 0.930 . S
H147 C144 0.930 . S
O148 Li88 1.956 . S
O148 Li89 1.970 . S
O148 Li90 1.961 . S
O148 C92 1.325 . S
O149 Li88 1.970 . S
O149 Li89 1.956 . S
O149 Li91 1.961 . S
O149 C98 1.325 . S
O150 Li88 1.961 . S
O150 Li90 1.956 . S
O150 Li91 1.970 . S
O150 C120 1.325 . S
O151 Li89 1.961 . S
O151 Li90 1.970 . S
O151 Li91 1.956 . S
O151 C126 1.325 . S
H152 C94 0.929 . S
H153 C95 0.930 . S
H154 C96 0.930 . S
H155 C97 0.930 . S
H156 C99 0.930 . S
H157 C101 0.929 . S
H158 C102 0.930 . S
H159 C103 0.930 . S
H160 C106 0.930 . S
H161 C109 0.929 . S
H162 C114 0.929 . S
H163 C115 0.930 . S
H164 C122 0.929 . S
H165 C123 0.930 . S
H166 C124 0.930 . S
H167 C125 0.930 . S
H168 C127 0.929 . S
H169 C128 0.930 . S
H170 C129 0.930 . S
H171 C130 0.930 . S
H172 C134 0.929 . S
H173 C136 0.944 . S
H174 C142 0.929 . S
H175 C143 0.930 . S
Li176 N193 1.990 . S
Li176 O236 1.956 . S
Li176 O237 1.970 . S
Li176 O238 1.961 . S
Li177 N201 1.990 . S
Li177 O236 1.970 . S
Li177 O237 1.956 . S
Li177 O239 1.961 . S
Li178 N223 1.990 . S
Li178 O236 1.961 . S
Li178 O238 1.956 . S
Li178 O239 1.970 . S
Li179 N229 1.990 . S
Li179 O237 1.961 . S
Li179 O238 1.970 . S
Li179 O239 1.956 . S
C180 C182 1.348 . S
C180 C183 1.356 . S
C180 O236 1.325 . S
N181 C184 1.314 . S
N181 C185 1.279 . S
C182 C180 1.348 . S
C182 C184 1.353 . S
C182 H240 0.929 . S
C183 C180 1.356 . S
C183 C185 1.358 . S
C183 H241 0.930 . S
C184 N181 1.314 . S
C184 C182 1.353 . S
C184 H242 0.930 . S
C185 N181 1.279 . S
C185 C183 1.358 . S
C185 H243 0.930 . S
C186 C189 1.348 . S
C186 C190 1.356 . S
C186 O237 1.325 . S
C187 N188 1.279 . S
C187 C190 1.358 . S
C187 H244 0.930 . S
N188 C187 1.279 . S
N188 C191 1.314 . S
C189 C186 1.348 . S
C189 C191 1.353 . S
C189 H245 0.929 . S
C190 C186 1.356 . S
C190 C187 1.358 . S
C190 H246 0.930 . S
C191 N188 1.314 . S
C191 C189 1.353 . S
C191 H247 0.930 . S
C192 N193 1.314 . S
C192 C197 1.353 . S
C192 H198 0.930 . S
N193 Li176 1.990 . S
N193 C192 1.314 . S
N193 C195 1.279 . S
C194 C195 1.358 . S
C194 C196 1.356 . S
C194 H248 0.930 . S
C195 N193 1.279 . S
C195 C194 1.358 . S
C195 H199 0.930 . S
C196 C194 1.356 . S
C196 C197 1.348 . S
C197 C192 1.353 . S
C197 C196 1.348 . S
C197 H249 0.929 . S
H198 C192 0.930 . S
H199 C195 0.930 . S
C200 N201 1.314 . S
C200 C202 1.353 . S
C200 H206 0.930 . S
N201 Li177 1.990 . S
N201 C200 1.314 . S
N201 C204 1.279 . S
C202 C200 1.353 . S
C202 C205 1.348 . S
C202 H250 0.929 . S
C203 C204 1.358 . S
C203 C205 1.356 . S
C203 H251 0.930 . S
C204 N201 1.279 . S
C204 C203 1.358 . S
C204 H207 0.930 . S
C205 C202 1.348 . S
C205 C203 1.356 . S
H206 C200 0.930 . S
H207 C204 0.930 . S
C208 C210 1.348 . S
C208 C211 1.356 . S
C208 O238 1.325 . S
N209 C212 1.314 . S
N209 C213 1.279 . S
C210 C208 1.348 . S
C210 C212 1.353 . S
C210 H252 0.929 . S
C211 C208 1.356 . S
C211 C213 1.358 . S
C211 H253 0.930 . S
C212 N209 1.314 . S
C212 C210 1.353 . S
C212 H254 0.930 . S
C213 N209 1.279 . S
C213 C211 1.358 . S
C213 H255 0.930 . S
C214 C215 1.348 . S
C214 C216 1.356 . S
C214 O239 1.325 . S
C215 C214 1.348 . S
C215 C217 1.353 . S
C215 H256 0.929 . S
C216 C214 1.356 . S
C216 C218 1.358 . S
C216 H257 0.930 . S
C217 C215 1.353 . S
C217 N219 1.314 . S
C217 H258 0.930 . S
C218 C216 1.358 . S
C218 N219 1.279 . S
C218 H259 0.930 . S
N219 C217 1.314 . S
N219 C218 1.279 . S
C220 C222 1.353 . S
C220 N223 1.314 . S
C220 H226 0.930 . S
C221 N223 1.279 . S
C221 C224 1.358 . S
C221 H227 0.930 . S
C222 C220 1.353 . S
C222 C225 1.348 . S
C222 H260 0.929 . S
N223 Li178 1.990 . S
N223 C220 1.314 . S
N223 C221 1.279 . S
C224 C221 1.358 . S
C224 C225 1.356 . S
C224 H261 0.930 . S
C225 C222 1.348 . S
C225 C224 1.356 . S
H226 C220 0.930 . S
H227 C221 0.930 . S
C228 N229 1.314 . S
C228 C230 1.353 . S
C228 H234 0.930 . S
N229 Li179 1.990 . S
N229 C228 1.314 . S
N229 C232 1.279 . S
C230 C228 1.353 . S
C230 C233 1.348 . S
C230 H262 0.929 . S
C231 C232 1.358 . S
C231 C233 1.356 . S
C231 H263 0.930 . S
C232 N229 1.279 . S
C232 C231 1.358 . S
C232 H235 0.930 . S
C233 C230 1.348 . S
C233 C231 1.356 . S
H234 C228 0.930 . S
H235 C232 0.930 . S
O236 Li176 1.956 . S
O236 Li177 1.970 . S
O236 Li178 1.961 . S
O236 C180 1.325 . S
O237 Li176 1.970 . S
O237 Li177 1.956 . S
O237 Li179 1.961 . S
O237 C186 1.325 . S
O238 Li176 1.961 . S
O238 Li178 1.956 . S
O238 Li179 1.970 . S
O238 C208 1.325 . S
O239 Li177 1.961 . S
O239 Li178 1.970 . S
O239 Li179 1.956 . S
O239 C214 1.325 . S
H240 C182 0.929 . S
H241 C183 0.930 . S
H242 C184 0.930 . S
H243 C185 0.930 . S
H244 C187 0.930 . S
H245 C189 0.929 . S
H246 C190 0.930 . S
H247 C191 0.930 . S
H248 C194 0.930 . S
H249 C197 0.929 . S
H250 C202 0.929 . S
H251 C203 0.930 . S
H252 C210 0.929 . S
H253 C211 0.930 . S
H254 C212 0.930 . S
H255 C213 0.930 . S
H256 C215 0.929 . S
H257 C216 0.930 . S
H258 C217 0.930 . S
H259 C218 0.930 . S
H260 C222 0.929 . S
H261 C224 0.930 . S
H262 C230 0.929 . S
H263 C231 0.930 . S
Li264 N281 1.990 . S
Li264 O324 1.956 . S
Li264 O325 1.970 . S
Li264 O326 1.961 . S
Li265 N289 1.990 . S
Li265 O324 1.970 . S
Li265 O325 1.956 . S
Li265 O327 1.961 . S
Li266 N311 1.990 . S
Li266 O324 1.961 . S
Li266 O326 1.956 . S
Li266 O327 1.970 . S
Li267 N317 1.990 . S
Li267 O325 1.961 . S
Li267 O326 1.970 . S
Li267 O327 1.956 . S
C268 C270 1.348 . S
C268 C271 1.356 . S
C268 O324 1.325 . S
N269 C272 1.314 . S
N269 C273 1.279 . S
C270 C268 1.348 . S
C270 C272 1.353 . S
C270 H328 0.929 . S
C271 C268 1.356 . S
C271 C273 1.358 . S
C271 H329 0.930 . S
C272 N269 1.314 . S
C272 C270 1.353 . S
C272 H330 0.930 . S
C273 N269 1.279 . S
C273 C271 1.358 . S
C273 H331 0.930 . S
C274 C277 1.348 . S
C274 C278 1.356 . S
C274 O325 1.325 . S
C275 N276 1.279 . S
C275 C278 1.358 . S
C275 H332 0.930 . S
N276 C275 1.279 . S
N276 C279 1.314 . S
C277 C274 1.348 . S
C277 C279 1.353 . S
C277 H333 0.929 . S
C278 C274 1.356 . S
C278 C275 1.358 . S
C278 H334 0.930 . S
C279 N276 1.314 . S
C279 C277 1.353 . S
C279 H335 0.930 . S
C280 N281 1.314 . S
C280 C285 1.353 . S
C280 H286 0.930 . S
N281 Li264 1.990 . S
N281 C280 1.314 . S
N281 C283 1.279 . S
C282 C283 1.358 . S
C282 C284 1.356 . S
C282 H336 0.930 . S
C283 N281 1.279 . S
C283 C282 1.358 . S
C283 H287 0.930 . S
C284 C282 1.356 . S
C284 C285 1.348 . S
C285 C280 1.353 . S
C285 C284 1.348 . S
C285 H337 0.929 . S
H286 C280 0.930 . S
H287 C283 0.930 . S
C288 N289 1.314 . S
C288 C290 1.353 . S
C288 H294 0.930 . S
N289 Li265 1.990 . S
N289 C288 1.314 . S
N289 C292 1.279 . S
C290 C288 1.353 . S
C290 C293 1.348 . S
C290 H338 0.929 . S
C291 C292 1.358 . S
C291 C293 1.356 . S
C291 H339 0.930 . S
C292 N289 1.279 . S
C292 C291 1.358 . S
C292 H295 0.930 . S
C293 C290 1.348 . S
C293 C291 1.356 . S
H294 C288 0.930 . S
H295 C292 0.930 . S
C296 C298 1.348 . S
C296 C299 1.356 . S
C296 O326 1.325 . S
N297 C300 1.314 . S
N297 C301 1.279 . S
C298 C296 1.348 . S
C298 C300 1.353 . S
C298 H340 0.929 . S
C299 C296 1.356 . S
C299 C301 1.358 . S
C299 H341 0.930 . S
C300 N297 1.314 . S
C300 C298 1.353 . S
C300 H342 0.930 . S
C301 N297 1.279 . S
C301 C299 1.358 . S
C301 H343 0.930 . S
C302 C303 1.348 . S
C302 C304 1.356 . S
C302 O327 1.325 . S
C303 C302 1.348 . S
C303 C305 1.353 . S
C303 H344 0.929 . S
C304 C302 1.356 . S
C304 C306 1.358 . S
C304 H345 0.930 . S
C305 C303 1.353 . S
C305 N307 1.314 . S
C305 H346 0.930 . S
C306 C304 1.358 . S
C306 N307 1.279 . S
C306 H347 0.930 . S
N307 C305 1.314 . S
N307 C306 1.279 . S
C308 C310 1.353 . S
C308 N311 1.314 . S
C308 H314 0.930 . S
C309 N311 1.279 . S
C309 C312 1.358 . S
C309 H315 0.930 . S
C310 C308 1.353 . S
C310 C313 1.348 . S
C310 H348 0.929 . S
N311 Li266 1.990 . S
N311 C308 1.314 . S
N311 C309 1.279 . S
C312 C309 1.358 . S
C312 C313 1.356 . S
C312 H349 0.930 . S
C313 C310 1.348 . S
C313 C312 1.356 . S
H314 C308 0.930 . S
H315 C309 0.930 . S
C316 N317 1.314 . S
C316 C318 1.353 . S
C316 H322 0.930 . S
N317 Li267 1.990 . S
N317 C316 1.314 . S
N317 C320 1.279 . S
C318 C316 1.353 . S
C318 C321 1.348 . S
C318 H350 0.929 . S
C319 C320 1.358 . S
C319 C321 1.356 . S
C319 H351 0.930 . S
C320 N317 1.279 . S
C320 C319 1.358 . S
C320 H323 0.930 . S
C321 C318 1.348 . S
C321 C319 1.356 . S
H322 C316 0.930 . S
H323 C320 0.930 . S
O324 Li264 1.956 . S
O324 Li265 1.970 . S
O324 Li266 1.961 . S
O324 C268 1.325 . S
O325 Li264 1.970 . S
O325 Li265 1.956 . S
O325 Li267 1.961 . S
O325 C274 1.325 . S
O326 Li264 1.961 . S
O326 Li266 1.956 . S
O326 Li267 1.970 . S
O326 C296 1.325 . S
O327 Li265 1.961 . S
O327 Li266 1.970 . S
O327 Li267 1.956 . S
O327 C302 1.325 . S
H328 C270 0.929 . S
H329 C271 0.930 . S
H330 C272 0.930 . S
H331 C273 0.930 . S
H332 C275 0.930 . S
H333 C277 0.929 . S
H334 C278 0.930 . S
H335 C279 0.930 . S
H336 C282 0.930 . S
H337 C285 0.929 . S
H338 C290 0.929 . S
H339 C291 0.930 . S
H340 C298 0.929 . S
H341 C299 0.930 . S
H342 C300 0.930 . S
H343 C301 0.930 . S
H344 C303 0.929 . S
H345 C304 0.930 . S
H346 C305 0.930 . S
H347 C306 0.930 . S
H348 C310 0.929 . S
H349 C312 0.930 . S
H350 C318 0.929 . S
H351 C319 0.930 . S
Li352 N369 1.990 . S
Li352 O412 1.956 . S
Li352 O413 1.970 . S
Li352 O414 1.961 . S
Li353 N377 1.990 . S
Li353 O412 1.970 . S
Li353 O413 1.956 . S
Li353 O415 1.961 . S
Li354 N399 1.990 . S
Li354 O412 1.961 . S
Li354 O414 1.956 . S
Li354 O415 1.970 . S
Li355 N405 1.990 . S
Li355 O413 1.961 . S
Li355 O414 1.970 . S
Li355 O415 1.956 . S
C356 C358 1.348 . S
C356 C359 1.356 . S
C356 O412 1.325 . S
N357 C360 1.314 . S
N357 C361 1.279 . S
C358 C356 1.348 . S
C358 C360 1.353 . S
C358 H416 0.929 . S
C359 C356 1.356 . S
C359 C361 1.358 . S
C359 H417 0.930 . S
C360 N357 1.314 . S
C360 C358 1.353 . S
C360 H418 0.930 . S
C361 N357 1.279 . S
C361 C359 1.358 . S
C361 H419 0.930 . S
C362 C365 1.348 . S
C362 C366 1.356 . S
C362 O413 1.325 . S
C363 N364 1.279 . S
C363 C366 1.358 . S
C363 H420 0.930 . S
N364 C363 1.279 . S
N364 C367 1.314 . S
C365 C362 1.348 . S
C365 C367 1.353 . S
C365 H421 0.929 . S
C366 C362 1.356 . S
C366 C363 1.358 . S
C366 H422 0.930 . S
C367 N364 1.314 . S
C367 C365 1.353 . S
C367 H423 0.930 . S
C368 N369 1.314 . S
C368 C373 1.353 . S
C368 H374 0.930 . S
N369 Li352 1.990 . S
N369 C368 1.314 . S
N369 C371 1.279 . S
C370 C371 1.358 . S
C370 C372 1.356 . S
C370 H424 0.930 . S
C371 N369 1.279 . S
C371 C370 1.358 . S
C371 H375 0.930 . S
C372 C370 1.356 . S
C372 C373 1.348 . S
C373 C368 1.353 . S
C373 C372 1.348 . S
C373 H425 0.929 . S
H374 C368 0.930 . S
H375 C371 0.930 . S
C376 N377 1.314 . S
C376 C378 1.353 . S
C376 H382 0.930 . S
N377 Li353 1.990 . S
N377 C376 1.314 . S
N377 C380 1.279 . S
C378 C376 1.353 . S
C378 C381 1.348 . S
C378 H426 0.929 . S
C379 C380 1.358 . S
C379 C381 1.356 . S
C379 H427 0.930 . S
C380 N377 1.279 . S
C380 C379 1.358 . S
C380 H383 0.930 . S
C381 C378 1.348 . S
C381 C379 1.356 . S
H382 C376 0.930 . S
H383 C380 0.930 . S
C384 C386 1.348 . S
C384 C387 1.356 . S
C384 O414 1.325 . S
N385 C388 1.314 . S
N385 C389 1.279 . S
C386 C384 1.348 . S
C386 C388 1.353 . S
C386 H428 0.929 . S
C387 C384 1.356 . S
C387 C389 1.358 . S
C387 H429 0.930 . S
C388 N385 1.314 . S
C388 C386 1.353 . S
C388 H430 0.930 1_455 S
C389 N385 1.279 . S
C389 C387 1.358 . S
C389 H431 0.930 . S
C390 C391 1.348 . S
C390 C392 1.356 . S
C390 O415 1.325 . S
C391 C390 1.348 . S
C391 C393 1.353 . S
C391 H432 0.929 . S
C392 C390 1.356 . S
C392 C394 1.358 . S
C392 H433 0.930 . S
C393 C391 1.353 . S
C393 N395 1.314 . S
C393 H434 0.930 . S
C394 C392 1.358 . S
C394 N395 1.279 . S
C394 H435 0.930 . S
N395 C393 1.314 . S
N395 C394 1.279 . S
C396 C398 1.353 . S
C396 N399 1.314 . S
C396 H402 0.930 . S
C397 N399 1.279 . S
C397 C400 1.358 . S
C397 H403 0.930 . S
C398 C396 1.353 . S
C398 C401 1.348 . S
C398 H436 0.929 . S
N399 Li354 1.990 . S
N399 C396 1.314 . S
N399 C397 1.279 . S
C400 C397 1.358 . S
C400 C401 1.356 . S
C400 H437 0.930 . S
C401 C398 1.348 . S
C401 C400 1.356 . S
H402 C396 0.930 . S
H403 C397 0.930 . S
C404 N405 1.314 . S
C404 C406 1.353 . S
C404 H410 0.930 . S
N405 Li355 1.990 . S
N405 C404 1.314 . S
N405 C408 1.279 . S
C406 C404 1.353 . S
C406 C409 1.344 1_455 S
C406 H438 0.929 . S
C407 C408 1.358 . S
C407 C409 1.347 1_455 S
C407 H439 0.930 . S
C408 N405 1.279 . S
C408 C407 1.358 . S
C408 H411 0.930 . S
C409 C406 1.344 1_655 S
C409 C407 1.347 1_655 S
H410 C404 0.930 . S
H411 C408 0.930 . S
O412 Li352 1.956 . S
O412 Li353 1.970 . S
O412 Li354 1.961 . S
O412 C356 1.325 . S
O413 Li352 1.970 . S
O413 Li353 1.956 . S
O413 Li355 1.961 . S
O413 C362 1.325 . S
O414 Li352 1.961 . S
O414 Li354 1.956 . S
O414 Li355 1.970 . S
O414 C384 1.325 . S
O415 Li353 1.961 . S
O415 Li354 1.970 . S
O415 Li355 1.956 . S
O415 C390 1.325 . S
H416 C358 0.929 . S
H417 C359 0.930 . S
H418 C360 0.930 . S
H419 C361 0.930 . S
H420 C363 0.930 . S
H421 C365 0.929 . S
H422 C366 0.930 . S
H423 C367 0.930 . S
H424 C370 0.930 . S
H425 C373 0.929 . S
H426 C378 0.929 . S
H427 C379 0.930 . S
H428 C386 0.929 . S
H429 C387 0.930 . S
H430 C388 0.930 1_655 S
H431 C389 0.930 . S
H432 C391 0.929 . S
H433 C392 0.930 . S
H434 C393 0.930 . S
H435 C394 0.930 . S
H436 C398 0.929 . S
H437 C400 0.930 . S
H438 C406 0.929 . S
H439 C407 0.930 . S
Li440 N457 1.990 . S
Li440 O500 1.956 . S
Li440 O501 1.970 . S
Li440 O502 1.961 . S
Li441 N465 1.990 . S
Li441 O500 1.970 . S
Li441 O501 1.956 . S
Li441 O503 1.961 . S
Li442 N487 1.990 . S
Li442 O500 1.961 . S
Li442 O502 1.956 . S
Li442 O503 1.970 . S
Li443 N493 1.990 . S
Li443 O501 1.961 . S
Li443 O502 1.970 . S
Li443 O503 1.956 . S
C444 C446 1.348 . S
C444 C447 1.356 . S
C444 O500 1.325 . S
N445 C448 1.314 . S
N445 C449 1.279 . S
C446 C444 1.348 . S
C446 C448 1.353 . S
C446 H504 0.929 . S
C447 C444 1.356 . S
C447 C449 1.358 . S
C447 H505 0.930 . S
C448 N445 1.314 . S
C448 C446 1.353 . S
C448 H506 0.930 . S
C449 N445 1.279 . S
C449 C447 1.358 . S
C449 H507 0.930 . S
C450 C453 1.348 . S
C450 C454 1.356 . S
C450 O501 1.325 . S
C451 N452 1.279 . S
C451 C454 1.358 . S
C451 H508 0.930 . S
N452 C451 1.279 . S
N452 C455 1.314 . S
C453 C450 1.348 . S
C453 C455 1.353 . S
C453 H509 0.929 . S
C454 C450 1.356 . S
C454 C451 1.358 . S
C454 H510 0.930 . S
C455 N452 1.314 . S
C455 C453 1.353 . S
C455 H511 0.930 . S
C456 N457 1.314 . S
C456 C461 1.353 . S
C456 H462 0.930 . S
N457 Li440 1.990 . S
N457 C456 1.314 . S
N457 C459 1.279 . S
C458 C459 1.358 . S
C458 C460 1.356 . S
C458 H512 0.930 . S
C459 N457 1.279 . S
C459 C458 1.358 . S
C459 H463 0.930 . S
C460 C458 1.356 . S
C460 C461 1.348 . S
C461 C456 1.353 . S
C461 C460 1.348 . S
C461 H513 0.929 . S
H462 C456 0.930 . S
H463 C459 0.930 . S
C464 N465 1.314 . S
C464 C466 1.353 . S
C464 H470 0.930 . S
N465 Li441 1.990 . S
N465 C464 1.314 . S
N465 C468 1.279 . S
C466 C464 1.353 . S
C466 C469 1.348 . S
C466 H514 0.929 . S
C467 C468 1.358 . S
C467 C469 1.356 . S
C467 H515 0.930 . S
C468 N465 1.279 . S
C468 C467 1.358 . S
C468 H471 0.930 . S
C469 C466 1.348 . S
C469 C467 1.356 . S
H470 C464 0.930 . S
H471 C468 0.930 . S
C472 C474 1.348 . S
C472 C475 1.356 . S
C472 O502 1.325 . S
N473 C476 1.314 . S
N473 C477 1.279 . S
C474 C472 1.348 . S
C474 C476 1.353 . S
C474 H516 0.929 . S
C475 C472 1.356 . S
C475 C477 1.358 . S
C475 H517 0.930 . S
C476 N473 1.314 . S
C476 C474 1.353 . S
C476 H518 0.930 . S
C477 N473 1.279 . S
C477 C475 1.358 . S
C477 H519 0.930 . S
C478 C479 1.348 . S
C478 C480 1.356 . S
C478 O503 1.325 . S
C479 C478 1.348 . S
C479 C481 1.353 . S
C479 H520 0.929 . S
C480 C478 1.356 . S
C480 C482 1.358 . S
C480 H521 0.930 . S
C481 C479 1.353 . S
C481 N483 1.314 . S
C481 H522 0.930 . S
C482 C480 1.358 . S
C482 N483 1.279 . S
C482 H523 0.930 . S
N483 C481 1.314 . S
N483 C482 1.279 . S
C484 C486 1.353 . S
C484 N487 1.314 . S
C484 H490 0.930 . S
C485 N487 1.279 . S
C485 C488 1.358 . S
C485 H491 0.930 . S
C486 C484 1.353 . S
C486 C489 1.348 . S
C486 H524 0.929 . S
N487 Li442 1.990 . S
N487 C484 1.314 . S
N487 C485 1.279 . S
C488 C485 1.358 . S
C488 C489 1.356 . S
C488 H525 0.930 . S
C489 C486 1.348 . S
C489 C488 1.356 . S
H490 C484 0.930 . S
H491 C485 0.930 . S
C492 N493 1.314 . S
C492 C494 1.353 . S
C492 H498 0.930 . S
N493 Li443 1.990 . S
N493 C492 1.314 . S
N493 C496 1.279 . S
C494 C492 1.353 . S
C494 C497 1.348 . S
C494 H526 0.929 . S
C495 C496 1.358 . S
C495 C497 1.356 . S
C495 H527 0.930 . S
C496 N493 1.279 . S
C496 C495 1.358 . S
C496 H499 0.930 . S
C497 C494 1.348 . S
C497 C495 1.356 . S
H498 C492 0.930 . S
H499 C496 0.930 . S
O500 Li440 1.956 . S
O500 Li441 1.970 . S
O500 Li442 1.961 . S
O500 C444 1.325 . S
O501 Li440 1.970 . S
O501 Li441 1.956 . S
O501 Li443 1.961 . S
O501 C450 1.325 . S
O502 Li440 1.961 . S
O502 Li442 1.956 . S
O502 Li443 1.970 . S
O502 C472 1.325 . S
O503 Li441 1.961 . S
O503 Li442 1.970 . S
O503 Li443 1.956 . S
O503 C478 1.325 . S
H504 C446 0.929 . S
H505 C447 0.930 . S
H506 C448 0.930 . S
H507 C449 0.930 . S
H508 C451 0.930 . S
H509 C453 0.929 . S
H510 C454 0.930 . S
H511 C455 0.930 . S
H512 C458 0.930 . S
H513 C461 0.929 . S
H514 C466 0.929 . S
H515 C467 0.930 . S
H516 C474 0.929 . S
H517 C475 0.930 . S
H518 C476 0.930 . S
H519 C477 0.930 . S
H520 C479 0.929 . S
H521 C480 0.930 . S
H522 C481 0.930 . S
H523 C482 0.930 . S
H524 C486 0.929 . S
H525 C488 0.930 . S
H526 C494 0.929 . S
H527 C495 0.930 . S
Li528 N545 1.990 . S
Li528 O588 1.956 . S
Li528 O589 1.970 . S
Li528 O590 1.961 . S
Li529 N553 1.990 . S
Li529 O588 1.970 . S
Li529 O589 1.956 . S
Li529 O591 1.961 . S
Li530 N575 1.990 . S
Li530 O588 1.961 . S
Li530 O590 1.956 . S
Li530 O591 1.970 . S
Li531 N581 1.990 . S
Li531 O589 1.961 . S
Li531 O590 1.970 . S
Li531 O591 1.956 . S
C532 C534 1.348 . S
C532 C535 1.356 . S
C532 O588 1.325 . S
N533 C536 1.314 . S
N533 C537 1.279 . S
C534 C532 1.348 . S
C534 C536 1.353 . S
C534 H592 0.929 . S
C535 C532 1.356 . S
C535 C537 1.358 . S
C535 H593 0.930 . S
C536 N533 1.314 . S
C536 C534 1.353 . S
C536 H594 0.930 . S
C537 N533 1.279 . S
C537 C535 1.358 . S
C537 H595 0.930 . S
C538 C541 1.348 . S
C538 C542 1.356 . S
C538 O589 1.325 . S
C539 N540 1.279 . S
C539 C542 1.358 . S
C539 H596 0.930 . S
N540 C539 1.279 . S
N540 C543 1.314 . S
C541 C538 1.348 . S
C541 C543 1.353 . S
C541 H597 0.929 . S
C542 C538 1.356 . S
C542 C539 1.358 . S
C542 H598 0.930 . S
C543 N540 1.314 . S
C543 C541 1.353 . S
C543 H599 0.930 . S
C544 N545 1.314 . S
C544 C549 1.353 . S
C544 H550 0.930 . S
N545 Li528 1.990 . S
N545 C544 1.314 . S
N545 C547 1.279 . S
C546 C547 1.358 . S
C546 C548 1.356 . S
C546 H600 0.930 . S
C547 N545 1.279 . S
C547 C546 1.358 . S
C547 H551 0.930 . S
C548 C546 1.356 . S
C548 C549 1.348 . S
C549 C544 1.353 . S
C549 C548 1.348 . S
C549 H601 0.929 . S
H550 C544 0.930 . S
H551 C547 0.930 . S
C552 N553 1.314 . S
C552 C554 1.353 . S
C552 H558 0.930 . S
N553 Li529 1.990 . S
N553 C552 1.314 . S
N553 C556 1.279 . S
C554 C552 1.353 . S
C554 C557 1.348 . S
C554 H602 0.929 . S
C555 C556 1.358 . S
C555 C557 1.356 . S
C555 H603 0.930 . S
C556 N553 1.279 . S
C556 C555 1.358 . S
C556 H559 0.930 . S
C557 C554 1.348 . S
C557 C555 1.356 . S
H558 C552 0.930 . S
H559 C556 0.930 . S
C560 C562 1.348 . S
C560 C563 1.356 . S
C560 O590 1.325 . S
N561 C564 1.314 . S
N561 C565 1.279 . S
C562 C560 1.348 . S
C562 C564 1.353 . S
C562 H604 0.929 . S
C563 C560 1.356 . S
C563 C565 1.358 . S
C563 H605 0.930 . S
C564 N561 1.314 . S
C564 C562 1.353 . S
C564 H606 0.930 . S
C565 N561 1.279 . S
C565 C563 1.358 . S
C565 H607 0.930 . S
C566 C567 1.348 . S
C566 C568 1.356 . S
C566 O591 1.325 . S
C567 C566 1.348 . S
C567 C569 1.353 . S
C567 H608 0.929 . S
C568 C566 1.356 . S
C568 C570 1.358 . S
C568 H609 0.930 . S
C569 C567 1.353 . S
C569 N571 1.314 . S
C569 H610 0.930 . S
C570 C568 1.358 . S
C570 N571 1.279 . S
C570 H611 0.930 . S
N571 C569 1.314 . S
N571 C570 1.279 . S
C572 C574 1.353 . S
C572 N575 1.314 . S
C572 H578 0.930 . S
C573 N575 1.279 . S
C573 C576 1.358 . S
C573 H579 0.930 . S
C574 C572 1.353 . S
C574 C577 1.348 . S
C574 H612 0.929 . S
N575 Li530 1.990 . S
N575 C572 1.314 . S
N575 C573 1.279 . S
C576 C573 1.358 . S
C576 C577 1.356 . S
C576 H613 0.930 . S
C577 C574 1.348 . S
C577 C576 1.356 . S
H578 C572 0.930 . S
H579 C573 0.930 . S
C580 N581 1.314 . S
C580 C582 1.353 . S
C580 H586 0.930 . S
N581 Li531 1.990 . S
N581 C580 1.314 . S
N581 C584 1.279 . S
C582 C580 1.353 . S
C582 C585 1.348 . S
C582 H614 0.929 . S
C583 C584 1.358 . S
C583 C585 1.356 . S
C583 H615 0.930 . S
C584 N581 1.279 . S
C584 C583 1.358 . S
C584 H587 0.930 . S
C585 C582 1.348 . S
C585 C583 1.356 . S
H586 C580 0.930 . S
H587 C584 0.930 . S
O588 Li528 1.956 . S
O588 Li529 1.970 . S
O588 Li530 1.961 . S
O588 C532 1.325 . S
O589 Li528 1.970 . S
O589 Li529 1.956 . S
O589 Li531 1.961 . S
O589 C538 1.325 . S
O590 Li528 1.961 . S
O590 Li530 1.956 . S
O590 Li531 1.970 . S
O590 C560 1.325 . S
O591 Li529 1.961 . S
O591 Li530 1.970 . S
O591 Li531 1.956 . S
O591 C566 1.325 . S
H592 C534 0.929 . S
H593 C535 0.930 . S
H594 C536 0.930 . S
H595 C537 0.930 . S
H596 C539 0.930 . S
H597 C541 0.929 . S
H598 C542 0.930 . S
H599 C543 0.930 . S
H600 C546 0.930 . S
H601 C549 0.929 . S
H602 C554 0.929 . S
H603 C555 0.930 . S
H604 C562 0.929 . S
H605 C563 0.930 . S
H606 C564 0.930 . S
H607 C565 0.930 . S
H608 C567 0.929 . S
H609 C568 0.930 . S
H610 C569 0.930 . S
H611 C570 0.930 . S
H612 C574 0.929 . S
H613 C576 0.930 . S
H614 C582 0.929 . S
H615 C583 0.930 . S
Li616 N633 1.990 . S
Li616 O676 1.956 1_455 S
Li616 O677 1.970 . S
Li616 O678 1.961 . S
Li617 N641 1.990 . S
Li617 O676 1.970 . S
Li617 O677 1.956 1_655 S
Li617 O679 1.961 . S
Li618 N663 1.990 . S
Li618 O676 1.961 . S
Li618 O678 1.956 1_655 S
Li618 O679 1.970 . S
Li619 N669 1.990 . S
Li619 O677 1.961 . S
Li619 O678 1.970 . S
Li619 O679 1.956 1_455 S
C620 C622 1.348 . S
C620 C623 1.356 . S
C620 O676 1.325 . S
N621 C624 1.314 . S
N621 C625 1.279 . S
C622 C620 1.348 . S
C622 C624 1.353 . S
C622 H680 0.929 . S
C623 C620 1.356 . S
C623 C625 1.358 . S
C623 H681 0.930 . S
C624 N621 1.314 . S
C624 C622 1.353 . S
C624 H682 0.930 . S
C625 N621 1.279 . S
C625 C623 1.358 . S
C625 H683 0.930 . S
C626 C629 1.348 . S
C626 C630 1.356 . S
C626 O677 1.325 . S
C627 N628 1.279 . S
C627 C630 1.358 . S
C627 H684 0.930 . S
N628 C627 1.279 . S
N628 C631 1.314 . S
C629 C626 1.348 . S
C629 C631 1.353 . S
C629 H685 0.911 1_455 S
C630 C626 1.356 . S
C630 C627 1.358 . S
C630 H686 0.930 . S
C631 N628 1.314 . S
C631 C629 1.353 . S
C631 H687 0.930 . S
C632 N633 1.314 . S
C632 C637 1.353 . S
C632 H638 0.930 . S
N633 Li616 1.990 . S
N633 C632 1.314 . S
N633 C635 1.279 1_455 S
C634 C635 1.358 . S
C634 C636 1.356 1_655 S
C634 H688 0.930 . S
C635 N633 1.279 1_655 S
C635 C634 1.358 . S
C635 H639 0.930 . S
C636 C634 1.356 1_455 S
C636 C637 1.348 . S
C637 C632 1.353 . S
C637 C636 1.348 . S
C637 H689 0.929 . S
H638 C632 0.930 . S
H639 C635 0.930 . S
C640 N641 1.314 . S
C640 C642 1.353 . S
C640 H646 0.930 . S
N641 Li617 1.990 . S
N641 C640 1.314 . S
N641 C644 1.279 . S
C642 C640 1.353 . S
C642 C645 1.348 . S
C642 H690 0.929 . S
C643 C644 1.358 . S
C643 C645 1.356 . S
C643 H691 0.930 . S
C644 N641 1.279 . S
C644 C643 1.358 . S
C644 H647 0.930 . S
C645 C642 1.348 . S
C645 C643 1.356 . S
H646 C640 0.930 . S
H647 C644 0.930 . S
C648 C650 1.348 . S
C648 C651 1.356 . S
C648 O678 1.325 . S
N649 C652 1.314 . S
N649 C653 1.279 . S
C650 C648 1.348 . S
C650 C652 1.353 . S
C650 H692 0.929 . S
C651 C648 1.356 . S
C651 C653 1.358 . S
C651 H693 0.930 . S
C652 N649 1.314 . S
C652 C650 1.353 . S
C652 H694 0.930 . S
C653 N649 1.279 . S
C653 C651 1.358 . S
C653 H695 0.930 . S
C654 C655 1.348 . S
C654 C656 1.356 . S
C654 O679 1.325 . S
C655 C654 1.348 . S
C655 C657 1.353 . S
C655 H696 0.921 1_655 S
C656 C654 1.356 . S
C656 C658 1.358 . S
C656 H697 0.930 . S
C657 C655 1.353 . S
C657 N659 1.314 . S
C657 H698 0.930 . S
C658 C656 1.358 . S
C658 N659 1.279 . S
C658 H699 0.930 . S
N659 C657 1.314 . S
N659 C658 1.279 . S
C660 C662 1.353 . S
C660 N663 1.314 . S
C660 H666 0.930 . S
C661 N663 1.279 1_455 S
C661 C664 1.358 . S
C661 H667 0.930 . S
C662 C660 1.353 . S
C662 C665 1.348 . S
C662 H700 0.929 . S
N663 Li618 1.990 . S
N663 C660 1.314 . S
N663 C661 1.279 1_655 S
C664 C661 1.358 . S
C664 C665 1.356 1_455 S
C664 H701 0.930 . S
C665 C662 1.348 . S
C665 C664 1.356 1_655 S
H666 C660 0.930 . S
H667 C661 0.930 . S
C668 N669 1.314 . S
C668 C670 1.353 . S
C668 H674 0.930 . S
N669 Li619 1.990 . S
N669 C668 1.314 . S
N669 C672 1.279 . S
C670 C668 1.353 . S
C670 C673 1.348 . S
C670 H702 0.929 . S
C671 C672 1.358 . S
C671 C673 1.356 . S
C671 H703 0.930 . S
C672 N669 1.279 . S
C672 C671 1.358 . S
C672 H675 0.930 . S
C673 C670 1.348 . S
C673 C671 1.356 . S
H674 C668 0.930 . S
H675 C672 0.930 . S
O676 Li616 1.956 1_655 S
O676 Li617 1.970 . S
O676 Li618 1.961 . S
O676 C620 1.325 . S
O677 Li616 1.970 . S
O677 Li617 1.956 1_455 S
O677 Li619 1.961 . S
O677 C626 1.325 . S
O678 Li616 1.961 . S
O678 Li618 1.956 1_455 S
O678 Li619 1.970 . S
O678 C648 1.325 . S
O679 Li617 1.961 . S
O679 Li618 1.970 . S
O679 Li619 1.956 1_655 S
O679 C654 1.325 . S
H680 C622 0.929 . S
H681 C623 0.930 . S
H682 C624 0.930 . S
H683 C625 0.930 . S
H684 C627 0.930 . S
H685 C629 0.911 1_655 S
H686 C630 0.930 . S
H687 C631 0.930 . S
H688 C634 0.930 . S
H689 C637 0.929 . S
H690 C642 0.929 . S
H691 C643 0.930 . S
H692 C650 0.929 . S
H693 C651 0.930 . S
H694 C652 0.930 . S
H695 C653 0.930 . S
H696 C655 0.921 1_455 S
H697 C656 0.930 . S
H698 C657 0.930 . S
H699 C658 0.930 . S
H700 C662 0.929 . S
H701 C664 0.930 . S
H702 C670 0.929 . S
H703 C671 0.930 . S
Li704 N721 1.990 . S
Li704 O764 1.956 . S
Li704 O765 1.970 . S
Li704 O766 1.961 . S
Li705 N729 1.990 1_545 S
Li705 O764 1.970 . S
Li705 O765 1.956 . S
Li705 O767 1.961 . S
Li706 N751 1.990 . S
Li706 O764 1.961 . S
Li706 O766 1.956 . S
Li706 O767 1.970 . S
Li707 N757 1.990 . S
Li707 O765 1.961 . S
Li707 O766 1.970 . S
Li707 O767 1.956 . S
C708 C710 1.348 . S
C708 C711 1.356 . S
C708 O764 1.325 1_565 S
N709 C712 1.314 . S
N709 C713 1.279 . S
C710 C708 1.348 . S
C710 C712 1.353 . S
C710 H768 0.929 . S
C711 C708 1.356 . S
C711 C713 1.358 . S
C711 H769 0.930 1_565 S
C712 N709 1.314 . S
C712 C710 1.353 . S
C712 H770 0.930 . S
C713 N709 1.279 . S
C713 C711 1.358 . S
C713 H771 0.930 . S
C714 C717 1.348 . S
C714 C718 1.356 . S
C714 O765 1.325 . S
C715 N716 1.279 . S
C715 C718 1.358 . S
C715 H772 0.930 . S
N716 C715 1.279 . S
N716 C719 1.314 . S
C717 C714 1.348 . S
C717 C719 1.353 . S
C717 H773 0.929 . S
C718 C714 1.356 . S
C718 C715 1.358 . S
C718 H774 0.930 . S
C719 N716 1.314 . S
C719 C717 1.353 . S
C719 H775 0.930 . S
C720 N721 1.314 . S
C720 C725 1.353 . S
C720 H726 0.930 . S
N721 Li704 1.990 . S
N721 C720 1.314 . S
N721 C723 1.279 . S
C722 C723 1.358 . S
C722 C724 1.356 . S
C722 H776 0.930 . S
C723 N721 1.279 . S
C723 C722 1.358 . S
C723 H727 0.930 . S
C724 C722 1.356 . S
C724 C725 1.348 . S
C725 C720 1.353 . S
C725 C724 1.348 . S
C725 H777 0.929 . S
H726 C720 0.930 . S
H727 C723 0.930 . S
C728 N729 1.314 . S
C728 C730 1.353 . S
C728 H734 0.930 . S
N729 Li705 1.990 1_565 S
N729 C728 1.314 . S
N729 C732 1.279 . S
C730 C728 1.353 . S
C730 C733 1.348 . S
C730 H778 0.929 . S
C731 C732 1.358 . S
C731 C733 1.356 . S
C731 H779 0.930 . S
C732 N729 1.279 . S
C732 C731 1.358 . S
C732 H735 0.930 . S
C733 C730 1.348 . S
C733 C731 1.356 . S
H734 C728 0.930 . S
H735 C732 0.930 . S
C736 C738 1.348 . S
C736 C739 1.356 . S
C736 O766 1.325 . S
N737 C740 1.314 . S
N737 C741 1.279 . S
C738 C736 1.348 . S
C738 C740 1.353 . S
C738 H780 0.929 . S
C739 C736 1.356 . S
C739 C741 1.358 . S
C739 H781 0.930 . S
C740 N737 1.314 . S
C740 C738 1.353 . S
C740 H782 0.930 . S
C741 N737 1.279 . S
C741 C739 1.358 . S
C741 H783 0.930 . S
C742 C743 1.348 . S
C742 C744 1.356 . S
C742 O767 1.325 . S
C743 C742 1.348 . S
C743 C745 1.353 . S
C743 H784 0.929 . S
C744 C742 1.356 . S
C744 C746 1.358 . S
C744 H785 0.930 . S
C745 C743 1.353 . S
C745 N747 1.314 . S
C745 H786 0.930 . S
C746 C744 1.358 . S
C746 N747 1.279 . S
C746 H787 0.930 . S
N747 C745 1.314 . S
N747 C746 1.279 . S
C748 C750 1.353 . S
C748 N751 1.314 . S
C748 H754 0.930 . S
C749 N751 1.279 . S
C749 C752 1.358 . S
C749 H755 0.930 . S
C750 C748 1.353 . S
C750 C753 1.348 . S
C750 H788 0.929 . S
N751 Li706 1.990 . S
N751 C748 1.314 . S
N751 C749 1.279 . S
C752 C749 1.358 . S
C752 C753 1.356 . S
C752 H789 0.930 . S
C753 C750 1.348 . S
C753 C752 1.356 . S
H754 C748 0.930 . S
H755 C749 0.930 . S
C756 N757 1.314 . S
C756 C758 1.353 . S
C756 H762 0.930 . S
N757 Li707 1.990 . S
N757 C756 1.314 . S
N757 C760 1.279 . S
C758 C756 1.353 . S
C758 C761 1.348 . S
C758 H790 0.929 . S
C759 C760 1.358 . S
C759 C761 1.356 . S
C759 H791 0.930 . S
C760 N757 1.279 . S
C760 C759 1.358 . S
C760 H763 0.930 . S
C761 C758 1.348 . S
C761 C759 1.356 . S
H762 C756 0.930 . S
H763 C760 0.930 . S
O764 Li704 1.956 . S
O764 Li705 1.970 . S
O764 Li706 1.961 . S
O764 C708 1.325 1_545 S
O765 Li704 1.970 . S
O765 Li705 1.956 . S
O765 Li707 1.961 . S
O765 C714 1.325 . S
O766 Li704 1.961 . S
O766 Li706 1.956 . S
O766 Li707 1.970 . S
O766 C736 1.325 . S
O767 Li705 1.961 . S
O767 Li706 1.970 . S
O767 Li707 1.956 . S
O767 C742 1.325 . S
H768 C710 0.929 . S
H769 C711 0.930 1_545 S
H770 C712 0.930 . S
H771 C713 0.930 . S
H772 C715 0.930 . S
H773 C717 0.929 . S
H774 C718 0.930 . S
H775 C719 0.930 . S
H776 C722 0.930 . S
H777 C725 0.929 . S
H778 C730 0.929 . S
H779 C731 0.930 . S
H780 C738 0.929 . S
H781 C739 0.930 . S
H782 C740 0.930 . S
H783 C741 0.930 . S
H784 C743 0.929 . S
H785 C744 0.930 . S
H786 C745 0.930 . S
H787 C746 0.930 . S
H788 C750 0.929 . S
H789 C752 0.930 . S
H790 C758 0.929 . S
H791 C759 0.930 . S
Li792 N809 1.990 . S
Li792 O852 1.956 . S
Li792 O853 1.970 . S
Li792 O854 1.961 . S
Li793 N817 1.990 . S
Li793 O852 1.970 . S
Li793 O853 1.956 . S
Li793 O855 1.961 . S
Li794 N839 1.990 . S
Li794 O852 1.961 . S
Li794 O854 1.956 . S
Li794 O855 1.970 . S
Li795 N845 1.990 . S
Li795 O853 1.961 . S
Li795 O854 1.970 . S
Li795 O855 1.956 . S
C796 C798 1.348 . S
C796 C799 1.356 . S
C796 O852 1.325 . S
N797 C800 1.314 . S
N797 C801 1.279 . S
C798 C796 1.348 . S
C798 C800 1.353 . S
C798 H856 0.929 . S
C799 C796 1.356 . S
C799 C801 1.358 . S
C799 H857 0.930 . S
C800 N797 1.314 . S
C800 C798 1.353 . S
C800 H858 0.930 . S
C801 N797 1.279 . S
C801 C799 1.358 . S
C801 H859 0.930 . S
C802 C805 1.348 . S
C802 C806 1.356 . S
C802 O853 1.325 . S
C803 N804 1.279 . S
C803 C806 1.358 . S
C803 H860 0.930 . S
N804 C803 1.279 . S
N804 C807 1.314 . S
C805 C802 1.348 . S
C805 C807 1.353 . S
C805 H861 0.929 . S
C806 C802 1.356 . S
C806 C803 1.358 . S
C806 H862 0.930 . S
C807 N804 1.314 . S
C807 C805 1.353 . S
C807 H863 0.930 . S
C808 N809 1.314 . S
C808 C813 1.353 . S
C808 H814 0.930 . S
N809 Li792 1.990 . S
N809 C808 1.314 . S
N809 C811 1.279 . S
C810 C811 1.358 . S
C810 C812 1.356 . S
C810 H864 0.930 . S
C811 N809 1.279 . S
C811 C810 1.358 . S
C811 H815 0.930 . S
C812 C810 1.356 . S
C812 C813 1.348 . S
C813 C808 1.353 . S
C813 C812 1.348 . S
C813 H865 0.929 . S
H814 C808 0.930 . S
H815 C811 0.930 . S
C816 N817 1.314 . S
C816 C818 1.353 . S
C816 H822 0.930 . S
N817 Li793 1.990 . S
N817 C816 1.314 . S
N817 C820 1.279 . S
C818 C816 1.353 . S
C818 C821 1.348 . S
C818 H866 0.929 . S
C819 C820 1.358 . S
C819 C821 1.356 . S
C819 H867 0.930 . S
C820 N817 1.279 . S
C820 C819 1.358 . S
C820 H823 0.930 . S
C821 C818 1.348 . S
C821 C819 1.356 . S
H822 C816 0.930 . S
H823 C820 0.930 . S
C824 C826 1.348 . S
C824 C827 1.356 . S
C824 O854 1.325 . S
N825 C828 1.314 . S
N825 C829 1.279 . S
C826 C824 1.348 . S
C826 C828 1.353 . S
C826 H868 0.929 . S
C827 C824 1.356 . S
C827 C829 1.358 . S
C827 H869 0.930 . S
C828 N825 1.314 . S
C828 C826 1.353 . S
C828 H870 0.930 . S
C829 N825 1.279 . S
C829 C827 1.358 . S
C829 H871 0.930 . S
C830 C831 1.348 . S
C830 C832 1.356 . S
C830 O855 1.325 . S
C831 C830 1.348 . S
C831 C833 1.353 . S
C831 H872 0.929 . S
C832 C830 1.356 . S
C832 C834 1.358 . S
C832 H873 0.930 . S
C833 C831 1.353 . S
C833 N835 1.314 . S
C833 H874 0.930 . S
C834 C832 1.358 . S
C834 N835 1.279 . S
C834 H875 0.930 . S
N835 C833 1.314 . S
N835 C834 1.279 . S
C836 C838 1.353 . S
C836 N839 1.314 . S
C836 H842 0.930 . S
C837 N839 1.279 . S
C837 C840 1.358 . S
C837 H843 0.930 . S
C838 C836 1.353 . S
C838 C841 1.348 . S
C838 H876 0.929 . S
N839 Li794 1.990 . S
N839 C836 1.314 . S
N839 C837 1.279 . S
C840 C837 1.358 . S
C840 C841 1.356 . S
C840 H877 0.930 . S
C841 C838 1.348 . S
C841 C840 1.356 . S
H842 C836 0.930 . S
H843 C837 0.930 . S
C844 N845 1.314 . S
C844 C846 1.353 . S
C844 H850 0.930 . S
N845 Li795 1.990 . S
N845 C844 1.314 . S
N845 C848 1.279 . S
C846 C844 1.353 . S
C846 C849 1.348 . S
C846 H878 0.929 . S
C847 C848 1.358 . S
C847 C849 1.356 . S
C847 H879 0.930 . S
C848 N845 1.279 . S
C848 C847 1.358 . S
C848 H851 0.930 . S
C849 C846 1.348 . S
C849 C847 1.356 . S
H850 C844 0.930 . S
H851 C848 0.930 . S
O852 Li792 1.956 . S
O852 Li793 1.970 . S
O852 Li794 1.961 . S
O852 C796 1.325 . S
O853 Li792 1.970 . S
O853 Li793 1.956 . S
O853 Li795 1.961 . S
O853 C802 1.325 . S
O854 Li792 1.961 . S
O854 Li794 1.956 . S
O854 Li795 1.970 . S
O854 C824 1.325 . S
O855 Li793 1.961 . S
O855 Li794 1.970 . S
O855 Li795 1.956 . S
O855 C830 1.325 . S
H856 C798 0.929 . S
H857 C799 0.930 . S
H858 C800 0.930 . S
H859 C801 0.930 . S
H860 C803 0.930 . S
H861 C805 0.929 . S
H862 C806 0.930 . S
H863 C807 0.930 . S
H864 C810 0.930 . S
H865 C813 0.929 . S
H866 C818 0.929 . S
H867 C819 0.930 . S
H868 C826 0.929 . S
H869 C827 0.930 . S
H870 C828 0.930 . S
H871 C829 0.930 . S
H872 C831 0.929 . S
H873 C832 0.930 . S
H874 C833 0.930 . S
H875 C834 0.930 . S
H876 C838 0.929 . S
H877 C840 0.930 . S
H878 C846 0.929 . S
H879 C847 0.930 . S
Li880 N897 1.990 . S
Li880 O940 1.956 . S
Li880 O941 1.970 . S
Li880 O942 1.961 . S
Li881 N905 1.990 . S
Li881 O940 1.970 . S
Li881 O941 1.956 . S
Li881 O943 1.961 . S
Li882 N927 1.990 . S
Li882 O940 1.961 . S
Li882 O942 1.956 . S
Li882 O943 1.970 . S
Li883 N933 1.990 . S
Li883 O941 1.961 . S
Li883 O942 1.970 . S
Li883 O943 1.956 . S
C884 C886 1.348 . S
C884 C887 1.356 . S
C884 O940 1.325 . S
N885 C888 1.314 . S
N885 C889 1.279 . S
C886 C884 1.348 . S
C886 C888 1.353 . S
C886 H944 0.929 . S
C887 C884 1.356 . S
C887 C889 1.358 . S
C887 H945 0.930 . S
C888 N885 1.314 . S
C888 C886 1.353 . S
C888 H946 0.930 . S
C889 N885 1.279 . S
C889 C887 1.358 . S
C889 H947 0.930 . S
C890 C893 1.348 . S
C890 C894 1.356 . S
C890 O941 1.325 . S
C891 N892 1.279 . S
C891 C894 1.358 . S
C891 H948 0.930 . S
N892 C891 1.279 . S
N892 C895 1.314 . S
C893 C890 1.348 . S
C893 C895 1.353 . S
C893 H949 0.929 . S
C894 C890 1.356 . S
C894 C891 1.358 . S
C894 H950 0.930 . S
C895 N892 1.314 . S
C895 C893 1.353 . S
C895 H951 0.930 . S
C896 N897 1.314 . S
C896 C901 1.353 . S
C896 H902 0.930 . S
N897 Li880 1.990 . S
N897 C896 1.314 . S
N897 C899 1.279 . S
C898 C899 1.358 . S
C898 C900 1.356 . S
C898 H952 0.930 . S
C899 N897 1.279 . S
C899 C898 1.358 . S
C899 H903 0.930 . S
C900 C898 1.356 . S
C900 C901 1.348 . S
C901 C896 1.353 . S
C901 C900 1.348 . S
C901 H953 0.929 . S
H902 C896 0.930 . S
H903 C899 0.930 . S
C904 N905 1.314 . S
C904 C906 1.353 . S
C904 H910 0.930 . S
N905 Li881 1.990 . S
N905 C904 1.314 . S
N905 C908 1.279 . S
C906 C904 1.353 . S
C906 C909 1.348 . S
C906 H954 0.929 . S
C907 C908 1.358 . S
C907 C909 1.356 . S
C907 H955 0.930 . S
C908 N905 1.279 . S
C908 C907 1.358 . S
C908 H911 0.930 . S
C909 C906 1.348 . S
C909 C907 1.356 . S
H910 C904 0.930 . S
H911 C908 0.930 . S
C912 C914 1.348 . S
C912 C915 1.356 . S
C912 O942 1.325 . S
N913 C916 1.314 . S
N913 C917 1.279 . S
C914 C912 1.348 . S
C914 C916 1.353 . S
C914 H956 0.929 . S
C915 C912 1.356 . S
C915 C917 1.358 . S
C915 H957 0.930 . S
C916 N913 1.314 . S
C916 C914 1.353 . S
C916 H958 0.930 . S
C917 N913 1.279 . S
C917 C915 1.358 . S
C917 H959 0.930 . S
C918 C919 1.348 . S
C918 C920 1.356 . S
C918 O943 1.325 1_565 S
C919 C918 1.348 . S
C919 C921 1.353 . S
C919 H960 0.929 . S
C920 C918 1.356 . S
C920 C922 1.358 . S
C920 H961 0.930 1_565 S
C921 C919 1.353 . S
C921 N923 1.314 . S
C921 H962 0.930 . S
C922 C920 1.358 . S
C922 N923 1.279 . S
C922 H963 0.930 . S
N923 C921 1.314 . S
N923 C922 1.279 . S
C924 C926 1.353 . S
C924 N927 1.314 1_565 S
C924 H930 0.930 . S
C925 N927 1.279 1_565 S
C925 C928 1.358 . S
C925 H931 0.930 1_565 S
C926 C924 1.353 . S
C926 C929 1.348 . S
C926 H964 0.929 . S
N927 Li882 1.990 . S
N927 C924 1.314 1_545 S
N927 C925 1.279 1_545 S
C928 C925 1.358 . S
C928 C929 1.356 . S
C928 H965 0.930 . S
C929 C926 1.348 . S
C929 C928 1.356 . S
H930 C924 0.930 . S
H931 C925 0.930 1_545 S
C932 N933 1.314 . S
C932 C934 1.353 . S
C932 H938 0.930 . S
N933 Li883 1.990 . S
N933 C932 1.314 . S
N933 C936 1.279 . S
C934 C932 1.353 . S
C934 C937 1.348 . S
C934 H966 0.929 . S
C935 C936 1.358 . S
C935 C937 1.356 . S
C935 H967 0.930 1_545 S
C936 N933 1.279 . S
C936 C935 1.358 . S
C936 H939 0.930 . S
C937 C934 1.348 . S
C937 C935 1.356 . S
H938 C932 0.930 . S
H939 C936 0.930 . S
O940 Li880 1.956 . S
O940 Li881 1.970 . S
O940 Li882 1.961 . S
O940 C884 1.325 . S
O941 Li880 1.970 . S
O941 Li881 1.956 . S
O941 Li883 1.961 . S
O941 C890 1.325 . S
O942 Li880 1.961 . S
O942 Li882 1.956 . S
O942 Li883 1.970 . S
O942 C912 1.325 . S
O943 Li881 1.961 . S
O943 Li882 1.970 . S
O943 Li883 1.956 . S
O943 C918 1.325 1_545 S
H944 C886 0.929 . S
H945 C887 0.930 . S
H946 C888 0.930 . S
H947 C889 0.930 . S
H948 C891 0.930 . S
H949 C893 0.929 . S
H950 C894 0.930 . S
H951 C895 0.930 . S
H952 C898 0.930 . S
H953 C901 0.929 . S
H954 C906 0.929 . S
H955 C907 0.930 . S
H956 C914 0.929 . S
H957 C915 0.930 . S
H958 C916 0.930 . S
H959 C917 0.930 . S
H960 C919 0.929 . S
H961 C920 0.930 1_545 S
H962 C921 0.930 . S
H963 C922 0.930 . S
H964 C926 0.929 . S
H965 C928 0.930 . S
H966 C934 0.929 . S
H967 C935 0.930 1_565 S
Li968 N985 1.991 . S
Li968 O1028 1.987 . S
Li968 O1029 1.971 1_554 S
Li968 O1030 1.927 1_554 S
Li969 N993 1.990 . S
Li969 O1028 1.970 . S
Li969 O1029 1.956 1_554 S
Li969 O1031 1.986 . S
Li970 N1015 1.990 . S
Li970 O1028 1.961 . S
Li970 O1030 1.956 1_554 S
Li970 O1031 1.968 . S
Li971 N1021 1.990 . S
Li971 O1029 1.961 . S
Li971 O1030 1.970 . S
Li971 O1031 1.931 1_556 S
C972 C974 1.348 . S
C972 C975 1.356 . S
C972 O1028 1.325 . S
N973 C976 1.314 . S
N973 C977 1.279 . S
C974 C972 1.348 . S
C974 C976 1.353 . S
C974 H1032 0.929 . S
C975 C972 1.356 . S
C975 C977 1.358 . S
C975 H1033 0.930 . S
C976 N973 1.314 . S
C976 C974 1.353 . S
C976 H1034 0.930 . S
C977 N973 1.279 . S
C977 C975 1.358 . S
C977 H1035 0.930 . S
C978 C981 1.348 1_556 S
C978 C982 1.356 . S
C978 O1029 1.325 . S
C979 N980 1.279 . S
C979 C982 1.358 . S
C979 H1036 0.930 . S
N980 C979 1.279 . S
N980 C983 1.314 1_556 S
C981 C978 1.348 1_554 S
C981 C983 1.353 . S
C981 H1037 0.929 . S
C982 C978 1.356 . S
C982 C979 1.358 . S
C982 H1038 0.930 . S
C983 N980 1.314 1_554 S
C983 C981 1.353 . S
C983 H1039 0.930 . S
C984 N985 1.314 1_556 S
C984 C989 1.353 . S
C984 H990 0.930 . S
N985 Li968 1.991 . S
N985 C984 1.314 1_554 S
N985 C987 1.279 . S
C986 C987 1.358 . S
C986 C988 1.368 . S
C986 H1040 0.930 . S
C987 N985 1.279 . S
C987 C986 1.358 . S
C987 H991 0.930 . S
C988 C986 1.368 . S
C988 C989 1.335 1_554 S
C989 C984 1.353 . S
C989 C988 1.335 1_556 S
C989 H1041 0.929 . S
H990 C984 0.930 . S
H991 C987 0.930 . S
C992 N993 1.314 . S
C992 C994 1.353 . S
C992 H998 0.930 . S
N993 Li969 1.990 . S
N993 C992 1.314 . S
N993 C996 1.279 . S
C994 C992 1.353 . S
C994 C997 1.348 . S
C994 H1042 0.929 . S
C995 C996 1.358 . S
C995 C997 1.356 . S
C995 H1043 0.930 . S
C996 N993 1.279 . S
C996 C995 1.358 . S
C996 H999 0.930 . S
C997 C994 1.348 . S
C997 C995 1.356 . S
H998 C992 0.930 . S
H999 C996 0.930 . S
C1000 C1002 1.348 . S
C1000 C1003 1.356 . S
C1000 O1030 1.325 . S
N1001 C1004 1.314 . S
N1001 C1005 1.279 . S
C1002 C1000 1.348 . S
C1002 C1004 1.353 . S
C1002 H1044 0.929 . S
C1003 C1000 1.356 . S
C1003 C1005 1.358 . S
C1003 H1045 0.930 . S
C1004 N1001 1.314 . S
C1004 C1002 1.353 . S
C1004 H1046 0.930 . S
C1005 N1001 1.279 . S
C1005 C1003 1.358 . S
C1005 H1047 0.930 . S
C1006 C1007 1.348 1_554 S
C1006 C1008 1.356 . S
C1006 O1031 1.324 . S
C1007 C1006 1.348 1_556 S
C1007 C1009 1.353 . S
C1007 H1048 0.929 . S
C1008 C1006 1.356 . S
C1008 C1010 1.358 . S
C1008 H1049 0.930 . S
C1009 C1007 1.353 . S
C1009 N1011 1.314 . S
C1009 H1050 0.930 . S
C1010 C1008 1.358 . S
C1010 N1011 1.279 1_554 S
C1010 H1051 0.930 . S
N1011 C1009 1.314 . S
N1011 C1010 1.279 1_556 S
C1012 C1014 1.353 . S
C1012 N1015 1.314 . S
C1012 H1018 0.930 . S
C1013 N1015 1.279 1_556 S
C1013 C1016 1.358 . S
C1013 H1019 0.930 . S
C1014 C1012 1.353 . S
C1014 C1017 1.348 . S
C1014 H1052 0.929 . S
N1015 Li970 1.990 . S
N1015 C1012 1.314 . S
N1015 C1013 1.279 1_554 S
C1016 C1013 1.358 . S
C1016 C1017 1.356 1_556 S
C1016 H1053 0.930 . S
C1017 C1014 1.348 . S
C1017 C1016 1.356 1_554 S
H1018 C1012 0.930 . S
H1019 C1013 0.930 . S
C1020 N1021 1.314 . S
C1020 C1022 1.353 . S
C1020 H1026 0.930 . S
N1021 Li971 1.990 . S
N1021 C1020 1.314 . S
N1021 C1024 1.279 . S
C1022 C1020 1.353 . S
C1022 C1025 1.348 . S
C1022 H1054 0.929 . S
C1023 C1024 1.358 . S
C1023 C1025 1.356 . S
C1023 H1055 0.930 . S
C1024 N1021 1.279 . S
C1024 C1023 1.358 . S
C1024 H1027 0.930 . S
C1025 C1022 1.348 . S
C1025 C1023 1.356 . S
H1026 C1020 0.930 . S
H1027 C1024 0.930 . S
O1028 Li968 1.987 . S
O1028 Li969 1.970 . S
O1028 Li970 1.961 . S
O1028 C972 1.325 . S
O1029 Li968 1.971 1_556 S
O1029 Li969 1.956 1_556 S
O1029 Li971 1.961 . S
O1029 C978 1.325 . S
O1030 Li968 1.927 1_556 S
O1030 Li970 1.956 1_556 S
O1030 Li971 1.970 . S
O1030 C1000 1.325 . S
O1031 Li969 1.986 . S
O1031 Li970 1.968 . S
O1031 Li971 1.931 1_554 S
O1031 C1006 1.324 . S
H1032 C974 0.929 . S
H1033 C975 0.930 . S
H1034 C976 0.930 . S
H1035 C977 0.930 . S
H1036 C979 0.930 . S
H1037 C981 0.929 . S
H1038 C982 0.930 . S
H1039 C983 0.930 . S
H1040 C986 0.930 . S
H1041 C989 0.929 . S
H1042 C994 0.929 . S
H1043 C995 0.930 . S
H1044 C1002 0.929 . S
H1045 C1003 0.930 . S
H1046 C1004 0.930 . S
H1047 C1005 0.930 . S
H1048 C1007 0.929 . S
H1049 C1008 0.930 . S
H1050 C1009 0.930 . S
H1051 C1010 0.930 . S
H1052 C1014 0.929 . S
H1053 C1016 0.930 . S
H1054 C1022 0.929 . S
H1055 C1023 0.930 . S
Li1056 N1073 1.990 . S
Li1056 O1116 1.956 . S
Li1056 O1117 1.970 . S
Li1056 O1118 1.961 . S
Li1057 N1081 1.990 . S
Li1057 O1116 1.970 . S
Li1057 O1117 1.956 . S
Li1057 O1119 1.961 . S
Li1058 N1103 1.990 . S
Li1058 O1116 1.961 . S
Li1058 O1118 1.956 . S
Li1058 O1119 1.970 . S
Li1059 N1109 1.990 1_554 S
Li1059 O1117 1.961 . S
Li1059 O1118 1.970 . S
Li1059 O1119 1.956 . S
C1060 C1062 1.348 . S
C1060 C1063 1.356 . S
C1060 O1116 1.325 . S
N1061 C1064 1.314 . S
N1061 C1065 1.279 . S
C1062 C1060 1.348 . S
C1062 C1064 1.353 . S
C1062 H1120 0.929 . S
C1063 C1060 1.356 . S
C1063 C1065 1.358 . S
C1063 H1121 0.930 . S
C1064 N1061 1.314 . S
C1064 C1062 1.353 . S
C1064 H1122 0.930 . S
C1065 N1061 1.279 . S
C1065 C1063 1.358 . S
C1065 H1123 0.930 . S
C1066 C1069 1.348 . S
C1066 C1070 1.356 . S
C1066 O1117 1.325 . S
C1067 N1068 1.279 . S
C1067 C1070 1.358 . S
C1067 H1124 0.930 . S
N1068 C1067 1.279 . S
N1068 C1071 1.314 . S
C1069 C1066 1.348 . S
C1069 C1071 1.353 . S
C1069 H1125 0.929 . S
C1070 C1066 1.356 . S
C1070 C1067 1.358 . S
C1070 H1126 0.930 . S
C1071 N1068 1.314 . S
C1071 C1069 1.353 . S
C1071 H1127 0.930 . S
C1072 N1073 1.314 . S
C1072 C1077 1.353 . S
C1072 H1078 0.888 1_554 S
N1073 Li1056 1.990 . S
N1073 C1072 1.314 . S
N1073 C1075 1.279 . S
C1074 C1075 1.358 . S
C1074 C1076 1.356 . S
C1074 H1128 0.930 . S
C1075 N1073 1.279 . S
C1075 C1074 1.358 . S
C1075 H1079 0.930 . S
C1076 C1074 1.356 . S
C1076 C1077 1.348 . S
C1077 C1072 1.353 . S
C1077 C1076 1.348 . S
C1077 H1129 0.929 1_554 S
H1078 C1072 0.888 1_556 S
H1079 C1075 0.930 . S
C1080 N1081 1.314 . S
C1080 C1082 1.353 . S
C1080 H1086 0.930 . S
N1081 Li1057 1.990 . S
N1081 C1080 1.314 . S
N1081 C1084 1.279 . S
C1082 C1080 1.353 . S
C1082 C1085 1.348 . S
C1082 H1130 0.929 . S
C1083 C1084 1.358 . S
C1083 C1085 1.356 . S
C1083 H1131 0.930 . S
C1084 N1081 1.279 . S
C1084 C1083 1.358 . S
C1084 H1087 0.930 . S
C1085 C1082 1.348 . S
C1085 C1083 1.356 . S
H1086 C1080 0.930 . S
H1087 C1084 0.930 . S
C1088 C1090 1.348 . S
C1088 C1091 1.356 . S
C1088 O1118 1.325 1_556 S
N1089 C1092 1.314 . S
N1089 C1093 1.279 . S
C1090 C1088 1.348 . S
C1090 C1092 1.353 . S
C1090 H1132 0.929 . S
C1091 C1088 1.356 . S
C1091 C1093 1.358 . S
C1091 H1133 0.930 1_556 S
C1092 N1089 1.314 . S
C1092 C1090 1.353 . S
C1092 H1134 0.930 . S
C1093 N1089 1.279 . S
C1093 C1091 1.358 . S
C1093 H1135 0.930 . S
C1094 C1095 1.348 . S
C1094 C1096 1.356 . S
C1094 O1119 1.325 . S
C1095 C1094 1.348 . S
C1095 C1097 1.353 . S
C1095 H1136 0.929 . S
C1096 C1094 1.356 . S
C1096 C1098 1.358 . S
C1096 H1137 0.930 . S
C1097 C1095 1.353 . S
C1097 N1099 1.314 . S
C1097 H1138 0.930 . S
C1098 C1096 1.358 . S
C1098 N1099 1.279 . S
C1098 H1139 0.930 . S
N1099 C1097 1.314 . S
N1099 C1098 1.279 . S
C1100 C1102 1.353 . S
C1100 N1103 1.314 . S
C1100 H1106 0.930 . S
C1101 N1103 1.279 . S
C1101 C1104 1.358 . S
C1101 H1107 0.930 . S
C1102 C1100 1.353 . S
C1102 C1105 1.348 . S
C1102 H1140 0.929 . S
N1103 Li1058 1.990 . S
N1103 C1100 1.314 . S
N1103 C1101 1.279 . S
C1104 C1101 1.358 . S
C1104 C1105 1.356 . S
C1104 H1141 0.930 . S
C1105 C1102 1.348 . S
C1105 C1104 1.356 . S
H1106 C1100 0.930 . S
H1107 C1101 0.930 . S
C1108 N1109 1.314 . S
C1108 C1110 1.353 . S
C1108 H1114 0.930 . S
N1109 Li1059 1.990 1_556 S
N1109 C1108 1.314 . S
N1109 C1112 1.279 . S
C1110 C1108 1.353 . S
C1110 C1113 1.348 . S
C1110 H1142 0.929 . S
C1111 C1112 1.358 . S
C1111 C1113 1.356 . S
C1111 H1143 0.930 . S
C1112 N1109 1.279 . S
C1112 C1111 1.358 . S
C1112 H1115 0.930 . S
C1113 C1110 1.348 . S
C1113 C1111 1.356 . S
H1114 C1108 0.930 . S
H1115 C1112 0.930 . S
O1116 Li1056 1.956 . S
O1116 Li1057 1.970 . S
O1116 Li1058 1.961 . S
O1116 C1060 1.325 . S
O1117 Li1056 1.970 . S
O1117 Li1057 1.956 . S
O1117 Li1059 1.961 . S
O1117 C1066 1.325 . S
O1118 Li1056 1.961 . S
O1118 Li1058 1.956 . S
O1118 Li1059 1.970 . S
O1118 C1088 1.325 1_554 S
O1119 Li1057 1.961 . S
O1119 Li1058 1.970 . S
O1119 Li1059 1.956 . S
O1119 C1094 1.325 . S
H1120 C1062 0.929 . S
H1121 C1063 0.930 . S
H1122 C1064 0.930 . S
H1123 C1065 0.930 . S
H1124 C1067 0.930 . S
H1125 C1069 0.929 . S
H1126 C1070 0.930 . S
H1127 C1071 0.930 . S
H1128 C1074 0.930 . S
H1129 C1077 0.929 1_556 S
H1130 C1082 0.929 . S
H1131 C1083 0.930 . S
H1132 C1090 0.929 . S
H1133 C1091 0.930 1_554 S
H1134 C1092 0.930 . S
H1135 C1093 0.930 . S
H1136 C1095 0.929 . S
H1137 C1096 0.930 . S
H1138 C1097 0.930 . S
H1139 C1098 0.930 . S
H1140 C1102 0.929 . S
H1141 C1104 0.930 . S
H1142 C1110 0.929 . S
H1143 C1111 0.930 . S
Li1144 N1161 1.990 . S
Li1144 O1204 1.956 . S
Li1144 O1205 1.970 . S
Li1144 O1206 1.961 . S
Li1145 N1169 1.990 . S
Li1145 O1204 1.970 . S
Li1145 O1205 1.956 . S
Li1145 O1207 1.961 . S
Li1146 N1191 1.990 . S
Li1146 O1204 1.961 . S
Li1146 O1206 1.956 . S
Li1146 O1207 1.970 . S
Li1147 N1197 1.990 . S
Li1147 O1205 1.961 . S
Li1147 O1206 1.970 . S
Li1147 O1207 1.956 . S
C1148 C1150 1.348 . S
C1148 C1151 1.356 . S
C1148 O1204 1.325 . S
N1149 C1152 1.314 . S
N1149 C1153 1.279 . S
C1150 C1148 1.348 . S
C1150 C1152 1.353 . S
C1150 H1208 0.929 . S
C1151 C1148 1.356 . S
C1151 C1153 1.358 . S
C1151 H1209 0.930 . S
C1152 N1149 1.314 . S
C1152 C1150 1.353 . S
C1152 H1210 0.930 . S
C1153 N1149 1.279 . S
C1153 C1151 1.358 . S
C1153 H1211 0.930 . S
C1154 C1157 1.348 . S
C1154 C1158 1.356 . S
C1154 O1205 1.325 . S
C1155 N1156 1.279 . S
C1155 C1158 1.358 . S
C1155 H1212 0.930 . S
N1156 C1155 1.279 . S
N1156 C1159 1.314 . S
C1157 C1154 1.348 . S
C1157 C1159 1.353 . S
C1157 H1213 0.929 . S
C1158 C1154 1.356 . S
C1158 C1155 1.358 . S
C1158 H1214 0.930 . S
C1159 N1156 1.314 . S
C1159 C1157 1.353 . S
C1159 H1215 0.930 . S
C1160 N1161 1.314 . S
C1160 C1165 1.353 . S
C1160 H1166 0.930 . S
N1161 Li1144 1.990 . S
N1161 C1160 1.314 . S
N1161 C1163 1.279 . S
C1162 C1163 1.358 . S
C1162 C1164 1.356 . S
C1162 H1216 0.930 . S
C1163 N1161 1.279 . S
C1163 C1162 1.358 . S
C1163 H1167 0.930 . S
C1164 C1162 1.356 . S
C1164 C1165 1.348 . S
C1165 C1160 1.353 . S
C1165 C1164 1.348 . S
C1165 H1217 0.929 . S
H1166 C1160 0.930 . S
H1167 C1163 0.930 . S
C1168 N1169 1.314 . S
C1168 C1170 1.353 . S
C1168 H1174 0.930 . S
N1169 Li1145 1.990 . S
N1169 C1168 1.314 . S
N1169 C1172 1.279 . S
C1170 C1168 1.353 . S
C1170 C1173 1.348 . S
C1170 H1218 0.929 . S
C1171 C1172 1.358 . S
C1171 C1173 1.356 . S
C1171 H1219 0.930 . S
C1172 N1169 1.279 . S
C1172 C1171 1.358 . S
C1172 H1175 0.930 . S
C1173 C1170 1.348 . S
C1173 C1171 1.356 . S
H1174 C1168 0.930 . S
H1175 C1172 0.930 . S
C1176 C1178 1.348 . S
C1176 C1179 1.356 . S
C1176 O1206 1.325 . S
N1177 C1180 1.314 . S
N1177 C1181 1.279 . S
C1178 C1176 1.348 . S
C1178 C1180 1.353 . S
C1178 H1220 0.929 . S
C1179 C1176 1.356 . S
C1179 C1181 1.358 . S
C1179 H1221 0.930 . S
C1180 N1177 1.314 . S
C1180 C1178 1.353 . S
C1180 H1222 0.930 . S
C1181 N1177 1.279 . S
C1181 C1179 1.358 . S
C1181 H1223 0.930 . S
C1182 C1183 1.348 1_554 S
C1182 C1184 1.356 . S
C1182 O1207 1.325 . S
C1183 C1182 1.348 1_556 S
C1183 C1185 1.353 . S
C1183 H1224 0.929 . S
C1184 C1182 1.356 . S
C1184 C1186 1.358 1_554 S
C1184 H1225 0.930 . S
C1185 C1183 1.353 . S
C1185 N1187 1.314 . S
C1185 H1226 0.930 . S
C1186 C1184 1.358 1_556 S
C1186 N1187 1.279 . S
C1186 H1227 0.930 . S
N1187 C1185 1.314 . S
N1187 C1186 1.279 . S
C1188 C1190 1.353 1_554 S
C1188 N1191 1.314 . S
C1188 H1194 0.930 . S
C1189 N1191 1.279 . S
C1189 C1192 1.358 1_554 S
C1189 H1195 0.930 . S
C1190 C1188 1.353 1_556 S
C1190 C1193 1.348 . S
C1190 H1228 0.929 . S
N1191 Li1146 1.990 . S
N1191 C1188 1.314 . S
N1191 C1189 1.279 . S
C1192 C1189 1.358 1_556 S
C1192 C1193 1.356 . S
C1192 H1229 0.930 . S
C1193 C1190 1.348 . S
C1193 C1192 1.356 . S
H1194 C1188 0.930 . S
H1195 C1189 0.930 . S
C1196 N1197 1.314 . S
C1196 C1198 1.353 . S
C1196 H1202 0.930 . S
N1197 Li1147 1.990 . S
N1197 C1196 1.314 . S
N1197 C1200 1.279 . S
C1198 C1196 1.353 . S
C1198 C1201 1.348 . S
C1198 H1230 0.929 . S
C1199 C1200 1.358 . S
C1199 C1201 1.356 . S
C1199 H1231 0.930 . S
C1200 N1197 1.279 . S
C1200 C1199 1.358 . S
C1200 H1203 0.930 . S
C1201 C1198 1.348 . S
C1201 C1199 1.356 . S
H1202 C1196 0.930 . S
H1203 C1200 0.930 . S
O1204 Li1144 1.956 . S
O1204 Li1145 1.970 . S
O1204 Li1146 1.961 . S
O1204 C1148 1.325 . S
O1205 Li1144 1.970 . S
O1205 Li1145 1.956 . S
O1205 Li1147 1.961 . S
O1205 C1154 1.325 . S
O1206 Li1144 1.961 . S
O1206 Li1146 1.956 . S
O1206 Li1147 1.970 . S
O1206 C1176 1.325 . S
O1207 Li1145 1.961 . S
O1207 Li1146 1.970 . S
O1207 Li1147 1.956 . S
O1207 C1182 1.325 . S
H1208 C1150 0.929 . S
H1209 C1151 0.930 . S
H1210 C1152 0.930 . S
H1211 C1153 0.930 . S
H1212 C1155 0.930 . S
H1213 C1157 0.929 . S
H1214 C1158 0.930 . S
H1215 C1159 0.930 . S
H1216 C1162 0.930 . S
H1217 C1165 0.929 . S
H1218 C1170 0.929 . S
H1219 C1171 0.930 . S
H1220 C1178 0.929 . S
H1221 C1179 0.930 . S
H1222 C1180 0.930 . S
H1223 C1181 0.930 . S
H1224 C1183 0.929 . S
H1225 C1184 0.930 . S
H1226 C1185 0.930 . S
H1227 C1186 0.930 . S
H1228 C1190 0.929 . S
H1229 C1192 0.930 . S
H1230 C1198 0.929 . S
H1231 C1199 0.930 . S
Li1232 N1249 1.990 . S
Li1232 O1292 1.956 . S
Li1232 O1293 1.970 . S
Li1232 O1294 1.961 . S
Li1233 N1257 1.990 . S
Li1233 O1292 1.970 . S
Li1233 O1293 1.956 . S
Li1233 O1295 1.961 . S
Li1234 N1279 1.990 . S
Li1234 O1292 1.961 . S
Li1234 O1294 1.956 . S
Li1234 O1295 1.970 . S
Li1235 N1285 1.990 . S
Li1235 O1293 1.961 . S
Li1235 O1294 1.970 . S
Li1235 O1295 1.956 . S
C1236 C1238 1.348 . S
C1236 C1239 1.356 . S
C1236 O1292 1.325 . S
N1237 C1240 1.314 . S
N1237 C1241 1.279 . S
C1238 C1236 1.348 . S
C1238 C1240 1.353 . S
C1238 H1296 0.929 . S
C1239 C1236 1.356 . S
C1239 C1241 1.358 . S
C1239 H1297 0.930 . S
C1240 N1237 1.314 . S
C1240 C1238 1.353 . S
C1240 H1298 0.930 . S
C1241 N1237 1.279 . S
C1241 C1239 1.358 . S
C1241 H1299 0.930 . S
C1242 C1245 1.348 . S
C1242 C1246 1.356 . S
C1242 O1293 1.325 . S
C1243 N1244 1.279 . S
C1243 C1246 1.358 . S
C1243 H1300 0.930 . S
N1244 C1243 1.279 . S
N1244 C1247 1.314 . S
C1245 C1242 1.348 . S
C1245 C1247 1.353 . S
C1245 H1301 0.929 . S
C1246 C1242 1.356 . S
C1246 C1243 1.358 . S
C1246 H1302 0.930 . S
C1247 N1244 1.314 . S
C1247 C1245 1.353 . S
C1247 H1303 0.930 . S
C1248 N1249 1.314 . S
C1248 C1253 1.353 . S
C1248 H1254 0.930 . S
N1249 Li1232 1.990 . S
N1249 C1248 1.314 . S
N1249 C1251 1.279 . S
C1250 C1251 1.358 . S
C1250 C1252 1.356 . S
C1250 H1304 0.930 . S
C1251 N1249 1.279 . S
C1251 C1250 1.358 . S
C1251 H1255 0.930 . S
C1252 C1250 1.356 . S
C1252 C1253 1.348 . S
C1253 C1248 1.353 . S
C1253 C1252 1.348 . S
C1253 H1305 0.929 . S
H1254 C1248 0.930 . S
H1255 C1251 0.930 . S
C1256 N1257 1.314 . S
C1256 C1258 1.353 . S
C1256 H1262 0.930 . S
N1257 Li1233 1.990 . S
N1257 C1256 1.314 . S
N1257 C1260 1.279 . S
C1258 C1256 1.353 . S
C1258 C1261 1.348 . S
C1258 H1306 0.929 . S
C1259 C1260 1.358 . S
C1259 C1261 1.356 . S
C1259 H1307 0.930 . S
C1260 N1257 1.279 . S
C1260 C1259 1.358 . S
C1260 H1263 0.930 . S
C1261 C1258 1.348 . S
C1261 C1259 1.356 . S
H1262 C1256 0.930 . S
H1263 C1260 0.930 . S
C1264 C1266 1.348 . S
C1264 C1267 1.356 . S
C1264 O1294 1.325 . S
N1265 C1268 1.314 . S
N1265 C1269 1.279 . S
C1266 C1264 1.348 . S
C1266 C1268 1.353 . S
C1266 H1308 0.929 . S
C1267 C1264 1.356 . S
C1267 C1269 1.358 . S
C1267 H1309 0.930 . S
C1268 N1265 1.314 . S
C1268 C1266 1.353 . S
C1268 H1310 0.930 . S
C1269 N1265 1.279 . S
C1269 C1267 1.358 . S
C1269 H1311 0.930 . S
C1270 C1271 1.348 . S
C1270 C1272 1.356 . S
C1270 O1295 1.325 . S
C1271 C1270 1.348 . S
C1271 C1273 1.353 . S
C1271 H1312 0.929 . S
C1272 C1270 1.356 . S
C1272 C1274 1.358 . S
C1272 H1313 0.930 . S
C1273 C1271 1.353 . S
C1273 N1275 1.314 . S
C1273 H1314 0.930 . S
C1274 C1272 1.358 . S
C1274 N1275 1.279 . S
C1274 H1315 0.930 . S
N1275 C1273 1.314 . S
N1275 C1274 1.279 . S
C1276 C1278 1.353 . S
C1276 N1279 1.314 . S
C1276 H1282 0.930 . S
C1277 N1279 1.279 . S
C1277 C1280 1.358 . S
C1277 H1283 0.930 . S
C1278 C1276 1.353 . S
C1278 C1281 1.348 . S
C1278 H1316 0.929 . S
N1279 Li1234 1.990 . S
N1279 C1276 1.314 . S
N1279 C1277 1.279 . S
C1280 C1277 1.358 . S
C1280 C1281 1.356 . S
C1280 H1317 0.930 . S
C1281 C1278 1.348 . S
C1281 C1280 1.356 . S
H1282 C1276 0.930 . S
H1283 C1277 0.930 . S
C1284 N1285 1.314 . S
C1284 C1286 1.353 . S
C1284 H1290 0.930 . S
N1285 Li1235 1.990 . S
N1285 C1284 1.314 . S
N1285 C1288 1.279 . S
C1286 C1284 1.353 . S
C1286 C1289 1.348 . S
C1286 H1318 0.929 . S
C1287 C1288 1.358 . S
C1287 C1289 1.356 . S
C1287 H1319 0.930 . S
C1288 N1285 1.279 . S
C1288 C1287 1.358 . S
C1288 H1291 0.930 . S
C1289 C1286 1.348 . S
C1289 C1287 1.356 . S
H1290 C1284 0.930 . S
H1291 C1288 0.930 . S
O1292 Li1232 1.956 . S
O1292 Li1233 1.970 . S
O1292 Li1234 1.961 . S
O1292 C1236 1.325 . S
O1293 Li1232 1.970 . S
O1293 Li1233 1.956 . S
O1293 Li1235 1.961 . S
O1293 C1242 1.325 . S
O1294 Li1232 1.961 . S
O1294 Li1234 1.956 . S
O1294 Li1235 1.970 . S
O1294 C1264 1.325 . S
O1295 Li1233 1.961 . S
O1295 Li1234 1.970 . S
O1295 Li1235 1.956 . S
O1295 C1270 1.325 . S
H1296 C1238 0.929 . S
H1297 C1239 0.930 . S
H1298 C1240 0.930 . S
H1299 C1241 0.930 . S
H1300 C1243 0.930 . S
H1301 C1245 0.929 . S
H1302 C1246 0.930 . S
H1303 C1247 0.930 . S
H1304 C1250 0.930 . S
H1305 C1253 0.929 . S
H1306 C1258 0.929 . S
H1307 C1259 0.930 . S
H1308 C1266 0.929 . S
H1309 C1267 0.930 . S
H1310 C1268 0.930 . S
H1311 C1269 0.930 . S
H1312 C1271 0.929 . S
H1313 C1272 0.930 . S
H1314 C1273 0.930 . S
H1315 C1274 0.930 . S
H1316 C1278 0.929 . S
H1317 C1280 0.930 . S
H1318 C1286 0.929 . S
H1319 C1287 0.930 . S
Li1320 N1337 1.990 . S
Li1320 O1380 1.956 . S
Li1320 O1381 1.970 . S
Li1320 O1382 1.961 . S
Li1321 N1345 1.990 . S
Li1321 O1380 1.970 . S
Li1321 O1381 1.956 . S
Li1321 O1383 1.961 . S
Li1322 N1367 1.990 . S
Li1322 O1380 1.961 . S
Li1322 O1382 1.956 . S
Li1322 O1383 1.970 . S
Li1323 N1373 1.990 . S
Li1323 O1381 1.961 . S
Li1323 O1382 1.970 . S
Li1323 O1383 1.956 . S
C1324 C1326 1.348 . S
C1324 C1327 1.356 . S
C1324 O1380 1.325 . S
N1325 C1328 1.314 . S
N1325 C1329 1.279 . S
C1326 C1324 1.348 . S
C1326 C1328 1.353 . S
C1326 H1384 0.929 . S
C1327 C1324 1.356 . S
C1327 C1329 1.358 . S
C1327 H1385 0.930 . S
C1328 N1325 1.314 . S
C1328 C1326 1.353 . S
C1328 H1386 0.930 . S
C1329 N1325 1.279 . S
C1329 C1327 1.358 . S
C1329 H1387 0.930 . S
C1330 C1333 1.348 . S
C1330 C1334 1.356 . S
C1330 O1381 1.325 . S
C1331 N1332 1.279 . S
C1331 C1334 1.358 . S
C1331 H1388 0.930 . S
N1332 C1331 1.279 . S
N1332 C1335 1.314 . S
C1333 C1330 1.348 . S
C1333 C1335 1.353 . S
C1333 H1389 0.929 . S
C1334 C1330 1.356 . S
C1334 C1331 1.358 . S
C1334 H1390 0.930 . S
C1335 N1332 1.314 . S
C1335 C1333 1.353 . S
C1335 H1391 0.930 . S
C1336 N1337 1.314 . S
C1336 C1341 1.353 . S
C1336 H1342 0.930 . S
N1337 Li1320 1.990 . S
N1337 C1336 1.314 . S
N1337 C1339 1.279 . S
C1338 C1339 1.358 . S
C1338 C1340 1.356 . S
C1338 H1392 0.930 . S
C1339 N1337 1.279 . S
C1339 C1338 1.358 . S
C1339 H1343 0.930 . S
C1340 C1338 1.356 . S
C1340 C1341 1.348 . S
C1341 C1336 1.353 . S
C1341 C1340 1.348 . S
C1341 H1393 0.929 . S
H1342 C1336 0.930 . S
H1343 C1339 0.930 . S
C1344 N1345 1.314 . S
C1344 C1346 1.353 . S
C1344 H1350 0.930 . S
N1345 Li1321 1.990 . S
N1345 C1344 1.314 . S
N1345 C1348 1.279 . S
C1346 C1344 1.353 . S
C1346 C1349 1.348 . S
C1346 H1394 0.929 . S
C1347 C1348 1.358 . S
C1347 C1349 1.356 . S
C1347 H1395 0.930 . S
C1348 N1345 1.279 . S
C1348 C1347 1.358 . S
C1348 H1351 0.930 . S
C1349 C1346 1.348 . S
C1349 C1347 1.356 . S
H1350 C1344 0.930 . S
H1351 C1348 0.930 . S
C1352 C1354 1.348 . S
C1352 C1355 1.356 . S
C1352 O1382 1.325 . S
N1353 C1356 1.314 . S
N1353 C1357 1.279 . S
C1354 C1352 1.348 . S
C1354 C1356 1.353 . S
C1354 H1396 0.929 . S
C1355 C1352 1.356 . S
C1355 C1357 1.358 . S
C1355 H1397 0.930 . S
C1356 N1353 1.314 . S
C1356 C1354 1.353 . S
C1356 H1398 0.930 . S
C1357 N1353 1.279 . S
C1357 C1355 1.358 . S
C1357 H1399 0.930 . S
C1358 C1359 1.348 . S
C1358 C1360 1.356 . S
C1358 O1383 1.325 . S
C1359 C1358 1.348 . S
C1359 C1361 1.353 . S
C1359 H1400 0.929 . S
C1360 C1358 1.356 . S
C1360 C1362 1.358 . S
C1360 H1401 0.930 . S
C1361 C1359 1.353 . S
C1361 N1363 1.314 . S
C1361 H1402 0.930 . S
C1362 C1360 1.358 . S
C1362 N1363 1.279 . S
C1362 H1403 0.930 . S
N1363 C1361 1.314 . S
N1363 C1362 1.279 . S
C1364 C1366 1.353 . S
C1364 N1367 1.314 . S
C1364 H1370 0.930 . S
C1365 N1367 1.279 . S
C1365 C1368 1.358 . S
C1365 H1371 0.930 . S
C1366 C1364 1.353 . S
C1366 C1369 1.348 . S
C1366 H1404 0.929 . S
N1367 Li1322 1.990 . S
N1367 C1364 1.314 . S
N1367 C1365 1.279 . S
C1368 C1365 1.358 . S
C1368 C1369 1.356 . S
C1368 H1405 0.930 . S
C1369 C1366 1.348 . S
C1369 C1368 1.356 . S
H1370 C1364 0.930 . S
H1371 C1365 0.930 . S
C1372 N1373 1.314 . S
C1372 C1374 1.353 . S
C1372 H1378 0.930 . S
N1373 Li1323 1.990 . S
N1373 C1372 1.314 . S
N1373 C1376 1.279 . S
C1374 C1372 1.353 . S
C1374 C1377 1.348 . S
C1374 H1406 0.929 . S
C1375 C1376 1.358 . S
C1375 C1377 1.356 . S
C1375 H1407 0.930 . S
C1376 N1373 1.279 . S
C1376 C1375 1.358 . S
C1376 H1379 0.930 . S
C1377 C1374 1.348 . S
C1377 C1375 1.356 . S
H1378 C1372 0.930 . S
H1379 C1376 0.930 . S
O1380 Li1320 1.956 . S
O1380 Li1321 1.970 . S
O1380 Li1322 1.961 . S
O1380 C1324 1.325 . S
O1381 Li1320 1.970 . S
O1381 Li1321 1.956 . S
O1381 Li1323 1.961 . S
O1381 C1330 1.325 . S
O1382 Li1320 1.961 . S
O1382 Li1322 1.956 . S
O1382 Li1323 1.970 . S
O1382 C1352 1.325 . S
O1383 Li1321 1.961 . S
O1383 Li1322 1.970 . S
O1383 Li1323 1.956 . S
O1383 C1358 1.325 . S
H1384 C1326 0.929 . S
H1385 C1327 0.930 . S
H1386 C1328 0.930 . S
H1387 C1329 0.930 . S
H1388 C1331 0.930 . S
H1389 C1333 0.929 . S
H1390 C1334 0.930 . S
H1391 C1335 0.930 . S
H1392 C1338 0.930 . S
H1393 C1341 0.929 . S
H1394 C1346 0.929 . S
H1395 C1347 0.930 . S
H1396 C1354 0.929 . S
H1397 C1355 0.930 . S
H1398 C1356 0.930 . S
H1399 C1357 0.930 . S
H1400 C1359 0.929 . S
H1401 C1360 0.930 . S
H1402 C1361 0.930 . S
H1403 C1362 0.930 . S
H1404 C1366 0.929 . S
H1405 C1368 0.930 . S
H1406 C1374 0.929 . S
H1407 C1375 0.930 . S
Li1408 N1425 1.990 . S
Li1408 O1468 1.956 1_545 S
Li1408 O1469 1.970 . S
Li1408 O1470 1.961 . S
Li1409 N1433 1.990 . S
Li1409 O1468 1.970 . S
Li1409 O1469 1.956 1_565 S
Li1409 O1471 1.961 1_565 S
Li1410 N1455 1.990 . S
Li1410 O1468 1.961 1_545 S
Li1410 O1470 1.956 . S
Li1410 O1471 1.970 . S
Li1411 N1461 1.990 . S
Li1411 O1469 1.961 . S
Li1411 O1470 1.970 . S
Li1411 O1471 1.956 . S
C1412 C1414 1.348 . S
C1412 C1415 1.356 . S
C1412 O1468 1.325 . S
N1413 C1416 1.314 . S
N1413 C1417 1.279 . S
C1414 C1412 1.348 . S
C1414 C1416 1.353 . S
C1414 H1472 0.929 . S
C1415 C1412 1.356 . S
C1415 C1417 1.358 . S
C1415 H1473 0.930 . S
C1416 N1413 1.314 . S
C1416 C1414 1.353 . S
C1416 H1474 0.930 . S
C1417 N1413 1.279 . S
C1417 C1415 1.358 . S
C1417 H1475 0.930 . S
C1418 C1421 1.348 . S
C1418 C1422 1.356 . S
C1418 O1469 1.325 . S
C1419 N1420 1.279 . S
C1419 C1422 1.358 . S
C1419 H1476 0.930 . S
N1420 C1419 1.279 . S
N1420 C1423 1.314 . S
C1421 C1418 1.348 . S
C1421 C1423 1.353 . S
C1421 H1477 0.929 . S
C1422 C1418 1.356 . S
C1422 C1419 1.358 . S
C1422 H1478 0.930 . S
C1423 N1420 1.314 . S
C1423 C1421 1.353 . S
C1423 H1479 0.933 . S
C1424 N1425 1.314 . S
C1424 C1429 1.353 . S
C1424 H1430 0.930 . S
N1425 Li1408 1.990 . S
N1425 C1424 1.314 . S
N1425 C1427 1.279 . S
C1426 C1427 1.358 . S
C1426 C1428 1.356 . S
C1426 H1480 0.930 1_545 S
C1427 N1425 1.279 . S
C1427 C1426 1.358 . S
C1427 H1431 0.930 1_545 S
C1428 C1426 1.356 . S
C1428 C1429 1.348 . S
C1429 C1424 1.353 . S
C1429 C1428 1.348 . S
C1429 H1481 0.929 . S
H1430 C1424 0.930 . S
H1431 C1427 0.930 1_565 S
C1432 N1433 1.314 . S
C1432 C1434 1.353 . S
C1432 H1438 0.930 . S
N1433 Li1409 1.990 . S
N1433 C1432 1.314 . S
N1433 C1436 1.279 . S
C1434 C1432 1.353 . S
C1434 C1437 1.348 . S
C1434 H1482 0.929 . S
C1435 C1436 1.358 . S
C1435 C1437 1.356 . S
C1435 H1483 0.930 . S
C1436 N1433 1.279 . S
C1436 C1435 1.358 . S
C1436 H1439 0.930 . S
C1437 C1434 1.348 . S
C1437 C1435 1.356 . S
H1438 C1432 0.930 . S
H1439 C1436 0.930 . S
C1440 C1442 1.348 . S
C1440 C1443 1.356 . S
C1440 O1470 1.325 . S
N1441 C1444 1.314 . S
N1441 C1445 1.279 . S
C1442 C1440 1.348 . S
C1442 C1444 1.353 . S
C1442 H1484 0.929 . S
C1443 C1440 1.356 . S
C1443 C1445 1.358 . S
C1443 H1485 0.930 . S
C1444 N1441 1.314 . S
C1444 C1442 1.353 . S
C1444 H1486 0.930 . S
C1445 N1441 1.279 . S
C1445 C1443 1.358 . S
C1445 H1487 0.930 . S
C1446 C1447 1.348 . S
C1446 C1448 1.356 1_545 S
C1446 O1471 1.325 . S
C1447 C1446 1.348 . S
C1447 C1449 1.353 . S
C1447 H1488 0.929 . S
C1448 C1446 1.356 1_565 S
C1448 C1450 1.358 . S
C1448 H1489 0.930 . S
C1449 C1447 1.353 . S
C1449 N1451 1.313 1_545 S
C1449 H1490 0.930 . S
C1450 C1448 1.358 . S
C1450 N1451 1.282 . S
C1450 H1491 0.930 . S
N1451 C1449 1.313 1_565 S
N1451 C1450 1.282 . S
C1452 C1454 1.353 . S
C1452 N1455 1.359 . S
C1452 H1458 0.886 1_545 S
C1453 N1455 1.279 . S
C1453 C1456 1.358 . S
C1453 H1459 0.930 . S
C1454 C1452 1.353 . S
C1454 C1457 1.389 . S
C1454 H1492 0.883 1_545 S
N1455 Li1410 1.990 . S
N1455 C1452 1.359 . S
N1455 C1453 1.279 . S
C1456 C1453 1.358 . S
C1456 C1457 1.356 . S
C1456 H1493 0.930 . S
C1457 C1454 1.389 . S
C1457 C1456 1.356 . S
H1458 C1452 0.886 1_565 S
H1459 C1453 0.930 . S
C1460 N1461 1.314 . S
C1460 C1462 1.353 . S
C1460 H1466 0.930 . S
N1461 Li1411 1.990 . S
N1461 C1460 1.314 . S
N1461 C1464 1.279 . S
C1462 C1460 1.353 . S
C1462 C1465 1.348 . S
C1462 H1494 0.929 . S
C1463 C1464 1.358 . S
C1463 C1465 1.356 . S
C1463 H1495 0.930 . S
C1464 N1461 1.279 . S
C1464 C1463 1.358 . S
C1464 H1467 0.930 . S
C1465 C1462 1.348 . S
C1465 C1463 1.356 . S
H1466 C1460 0.930 . S
H1467 C1464 0.930 . S
O1468 Li1408 1.956 1_565 S
O1468 Li1409 1.970 . S
O1468 Li1410 1.961 1_565 S
O1468 C1412 1.325 . S
O1469 Li1408 1.970 . S
O1469 Li1409 1.956 1_545 S
O1469 Li1411 1.961 . S
O1469 C1418 1.325 . S
O1470 Li1408 1.961 . S
O1470 Li1410 1.956 . S
O1470 Li1411 1.970 . S
O1470 C1440 1.325 . S
O1471 Li1409 1.961 1_545 S
O1471 Li1410 1.970 . S
O1471 Li1411 1.956 . S
O1471 C1446 1.325 . S
H1472 C1414 0.929 . S
H1473 C1415 0.930 . S
H1474 C1416 0.930 . S
H1475 C1417 0.930 . S
H1476 C1419 0.930 . S
H1477 C1421 0.929 . S
H1478 C1422 0.930 . S
H1479 C1423 0.933 . S
H1480 C1426 0.930 1_565 S
H1481 C1429 0.929 . S
H1482 C1434 0.929 . S
H1483 C1435 0.930 . S
H1484 C1442 0.929 . S
H1485 C1443 0.930 . S
H1486 C1444 0.930 . S
H1487 C1445 0.930 . S
H1488 C1447 0.929 . S
H1489 C1448 0.930 . S
H1490 C1449 0.930 . S
H1491 C1450 0.930 . S
H1492 C1454 0.883 1_565 S
H1493 C1456 0.930 . S
H1494 C1462 0.929 . S
H1495 C1463 0.930 . S
Li1496 N1513 1.990 . S
Li1496 O1556 1.956 . S
Li1496 O1557 1.970 . S
Li1496 O1558 1.961 . S
Li1497 N1521 1.990 . S
Li1497 O1556 1.970 . S
Li1497 O1557 1.956 . S
Li1497 O1559 1.961 . S
Li1498 N1543 1.990 . S
Li1498 O1556 1.961 . S
Li1498 O1558 1.956 . S
Li1498 O1559 1.970 . S
Li1499 N1549 1.990 . S
Li1499 O1557 1.961 . S
Li1499 O1558 1.970 . S
Li1499 O1559 1.956 . S
C1500 C1502 1.348 . S
C1500 C1503 1.356 . S
C1500 O1556 1.325 . S
N1501 C1504 1.314 . S
N1501 C1505 1.279 . S
C1502 C1500 1.348 . S
C1502 C1504 1.353 . S
C1502 H1560 0.929 . S
C1503 C1500 1.356 . S
C1503 C1505 1.358 . S
C1503 H1561 0.930 . S
C1504 N1501 1.314 . S
C1504 C1502 1.353 . S
C1504 H1562 0.930 . S
C1505 N1501 1.279 . S
C1505 C1503 1.358 . S
C1505 H1563 0.930 . S
C1506 C1509 1.348 . S
C1506 C1510 1.356 . S
C1506 O1557 1.325 . S
C1507 N1508 1.279 . S
C1507 C1510 1.358 . S
C1507 H1564 0.930 . S
N1508 C1507 1.279 . S
N1508 C1511 1.314 . S
C1509 C1506 1.348 . S
C1509 C1511 1.353 . S
C1509 H1565 0.929 . S
C1510 C1506 1.356 . S
C1510 C1507 1.358 . S
C1510 H1566 0.930 . S
C1511 N1508 1.314 . S
C1511 C1509 1.353 . S
C1511 H1567 0.930 . S
C1512 N1513 1.314 . S
C1512 C1517 1.353 . S
C1512 H1518 0.930 . S
N1513 Li1496 1.990 . S
N1513 C1512 1.314 . S
N1513 C1515 1.279 . S
C1514 C1515 1.358 . S
C1514 C1516 1.356 . S
C1514 H1568 0.930 . S
C1515 N1513 1.279 . S
C1515 C1514 1.358 . S
C1515 H1519 0.930 . S
C1516 C1514 1.356 . S
C1516 C1517 1.348 . S
C1517 C1512 1.353 . S
C1517 C1516 1.348 . S
C1517 H1569 0.929 . S
H1518 C1512 0.930 . S
H1519 C1515 0.930 . S
C1520 N1521 1.314 . S
C1520 C1522 1.353 . S
C1520 H1526 0.930 . S
N1521 Li1497 1.990 . S
N1521 C1520 1.314 . S
N1521 C1524 1.279 . S
C1522 C1520 1.353 . S
C1522 C1525 1.348 . S
C1522 H1570 0.929 . S
C1523 C1524 1.358 . S
C1523 C1525 1.356 . S
C1523 H1571 0.930 . S
C1524 N1521 1.279 . S
C1524 C1523 1.358 . S
C1524 H1527 0.930 . S
C1525 C1522 1.348 . S
C1525 C1523 1.356 . S
H1526 C1520 0.930 . S
H1527 C1524 0.930 . S
C1528 C1530 1.348 . S
C1528 C1531 1.356 . S
C1528 O1558 1.325 . S
N1529 C1532 1.314 . S
N1529 C1533 1.279 . S
C1530 C1528 1.348 . S
C1530 C1532 1.353 . S
C1530 H1572 0.929 . S
C1531 C1528 1.356 . S
C1531 C1533 1.358 . S
C1531 H1573 0.930 . S
C1532 N1529 1.314 . S
C1532 C1530 1.353 . S
C1532 H1574 0.930 . S
C1533 N1529 1.279 . S
C1533 C1531 1.358 . S
C1533 H1575 0.930 . S
C1534 C1535 1.348 . S
C1534 C1536 1.356 . S
C1534 O1559 1.325 . S
C1535 C1534 1.348 . S
C1535 C1537 1.353 . S
C1535 H1576 0.929 . S
C1536 C1534 1.356 . S
C1536 C1538 1.358 . S
C1536 H1577 0.930 . S
C1537 C1535 1.353 . S
C1537 N1539 1.314 . S
C1537 H1578 0.930 . S
C1538 C1536 1.358 . S
C1538 N1539 1.279 . S
C1538 H1579 0.930 . S
N1539 C1537 1.314 . S
N1539 C1538 1.279 . S
C1540 C1542 1.353 . S
C1540 N1543 1.314 . S
C1540 H1546 0.930 . S
C1541 N1543 1.279 . S
C1541 C1544 1.358 . S
C1541 H1547 0.930 . S
C1542 C1540 1.353 . S
C1542 C1545 1.348 . S
C1542 H1580 0.929 . S
N1543 Li1498 1.990 . S
N1543 C1540 1.314 . S
N1543 C1541 1.279 . S
C1544 C1541 1.358 . S
C1544 C1545 1.356 . S
C1544 H1581 0.930 . S
C1545 C1542 1.348 . S
C1545 C1544 1.356 . S
H1546 C1540 0.930 . S
H1547 C1541 0.930 . S
C1548 N1549 1.314 . S
C1548 C1550 1.353 . S
C1548 H1554 0.930 . S
N1549 Li1499 1.990 . S
N1549 C1548 1.314 . S
N1549 C1552 1.279 . S
C1550 C1548 1.353 . S
C1550 C1553 1.348 . S
C1550 H1582 0.929 . S
C1551 C1552 1.358 . S
C1551 C1553 1.356 . S
C1551 H1583 0.930 . S
C1552 N1549 1.279 . S
C1552 C1551 1.358 . S
C1552 H1555 0.930 . S
C1553 C1550 1.348 . S
C1553 C1551 1.356 . S
H1554 C1548 0.930 . S
H1555 C1552 0.930 . S
O1556 Li1496 1.956 . S
O1556 Li1497 1.970 . S
O1556 Li1498 1.961 . S
O1556 C1500 1.325 . S
O1557 Li1496 1.970 . S
O1557 Li1497 1.956 . S
O1557 Li1499 1.961 . S
O1557 C1506 1.325 . S
O1558 Li1496 1.961 . S
O1558 Li1498 1.956 . S
O1558 Li1499 1.970 . S
O1558 C1528 1.325 . S
O1559 Li1497 1.961 . S
O1559 Li1498 1.970 . S
O1559 Li1499 1.956 . S
O1559 C1534 1.325 . S
H1560 C1502 0.929 . S
H1561 C1503 0.930 . S
H1562 C1504 0.930 . S
H1563 C1505 0.930 . S
H1564 C1507 0.930 . S
H1565 C1509 0.929 . S
H1566 C1510 0.930 . S
H1567 C1511 0.930 . S
H1568 C1514 0.930 . S
H1569 C1517 0.929 . S
H1570 C1522 0.929 . S
H1571 C1523 0.930 . S
H1572 C1530 0.929 . S
H1573 C1531 0.930 . S
H1574 C1532 0.930 . S
H1575 C1533 0.930 . S
H1576 C1535 0.929 . S
H1577 C1536 0.930 . S
H1578 C1537 0.930 . S
H1579 C1538 0.930 . S
H1580 C1542 0.929 . S
H1581 C1544 0.930 . S
H1582 C1550 0.929 . S
H1583 C1551 0.930 . S
Li1584 N1601 1.990 . S
Li1584 O1644 1.956 . S
Li1584 O1645 1.970 . S
Li1584 O1646 1.961 . S
Li1585 N1609 1.990 . S
Li1585 O1644 1.970 . S
Li1585 O1645 1.956 . S
Li1585 O1647 1.961 . S
Li1586 N1631 1.990 . S
Li1586 O1644 1.961 . S
Li1586 O1646 1.956 . S
Li1586 O1647 1.970 . S
Li1587 N1637 1.990 . S
Li1587 O1645 1.961 . S
Li1587 O1646 1.970 . S
Li1587 O1647 1.956 . S
C1588 C1590 1.348 . S
C1588 C1591 1.356 . S
C1588 O1644 1.325 . S
N1589 C1592 1.314 . S
N1589 C1593 1.279 . S
C1590 C1588 1.348 . S
C1590 C1592 1.353 . S
C1590 H1648 0.929 . S
C1591 C1588 1.356 . S
C1591 C1593 1.358 . S
C1591 H1649 0.930 . S
C1592 N1589 1.314 . S
C1592 C1590 1.353 . S
C1592 H1650 0.930 . S
C1593 N1589 1.279 . S
C1593 C1591 1.358 . S
C1593 H1651 0.930 . S
C1594 C1597 1.348 . S
C1594 C1598 1.356 . S
C1594 O1645 1.325 . S
C1595 N1596 1.279 . S
C1595 C1598 1.358 . S
C1595 H1652 0.930 . S
N1596 C1595 1.279 . S
N1596 C1599 1.314 . S
C1597 C1594 1.348 . S
C1597 C1599 1.353 . S
C1597 H1653 0.929 . S
C1598 C1594 1.356 . S
C1598 C1595 1.358 . S
C1598 H1654 0.930 . S
C1599 N1596 1.314 . S
C1599 C1597 1.353 . S
C1599 H1655 0.930 . S
C1600 N1601 1.314 . S
C1600 C1605 1.353 . S
C1600 H1606 0.930 . S
N1601 Li1584 1.990 . S
N1601 C1600 1.314 . S
N1601 C1603 1.279 . S
C1602 C1603 1.358 . S
C1602 C1604 1.356 . S
C1602 H1656 0.930 . S
C1603 N1601 1.279 . S
C1603 C1602 1.358 . S
C1603 H1607 0.930 . S
C1604 C1602 1.356 . S
C1604 C1605 1.348 . S
C1605 C1600 1.353 . S
C1605 C1604 1.348 . S
C1605 H1657 0.929 . S
H1606 C1600 0.930 . S
H1607 C1603 0.930 . S
C1608 N1609 1.314 . S
C1608 C1610 1.353 . S
C1608 H1614 0.930 . S
N1609 Li1585 1.990 . S
N1609 C1608 1.314 . S
N1609 C1612 1.279 . S
C1610 C1608 1.353 . S
C1610 C1613 1.348 . S
C1610 H1658 0.929 . S
C1611 C1612 1.358 . S
C1611 C1613 1.356 . S
C1611 H1659 0.930 . S
C1612 N1609 1.279 . S
C1612 C1611 1.358 . S
C1612 H1615 0.930 . S
C1613 C1610 1.348 . S
C1613 C1611 1.356 . S
H1614 C1608 0.930 . S
H1615 C1612 0.930 . S
C1616 C1618 1.348 . S
C1616 C1619 1.356 . S
C1616 O1646 1.325 . S
N1617 C1620 1.314 . S
N1617 C1621 1.279 . S
C1618 C1616 1.348 . S
C1618 C1620 1.353 . S
C1618 H1660 0.929 . S
C1619 C1616 1.356 . S
C1619 C1621 1.358 . S
C1619 H1661 0.930 . S
C1620 N1617 1.314 . S
C1620 C1618 1.353 . S
C1620 H1662 0.930 . S
C1621 N1617 1.279 . S
C1621 C1619 1.358 . S
C1621 H1663 0.930 . S
C1622 C1623 1.348 . S
C1622 C1624 1.356 . S
C1622 O1647 1.325 . S
C1623 C1622 1.348 . S
C1623 C1625 1.353 . S
C1623 H1664 0.929 . S
C1624 C1622 1.356 . S
C1624 C1626 1.358 . S
C1624 H1665 0.930 . S
C1625 C1623 1.353 . S
C1625 N1627 1.314 . S
C1625 H1666 0.930 . S
C1626 C1624 1.358 . S
C1626 N1627 1.279 . S
C1626 H1667 0.930 . S
N1627 C1625 1.314 . S
N1627 C1626 1.279 . S
C1628 C1630 1.353 . S
C1628 N1631 1.314 . S
C1628 H1634 0.930 . S
C1629 N1631 1.279 . S
C1629 C1632 1.358 . S
C1629 H1635 0.930 . S
C1630 C1628 1.353 . S
C1630 C1633 1.348 . S
C1630 H1668 0.929 . S
N1631 Li1586 1.990 . S
N1631 C1628 1.314 . S
N1631 C1629 1.279 . S
C1632 C1629 1.358 . S
C1632 C1633 1.356 . S
C1632 H1669 0.930 . S
C1633 C1630 1.348 . S
C1633 C1632 1.356 . S
H1634 C1628 0.930 . S
H1635 C1629 0.930 . S
C1636 N1637 1.314 . S
C1636 C1638 1.353 . S
C1636 H1642 0.930 . S
N1637 Li1587 1.990 . S
N1637 C1636 1.314 . S
N1637 C1640 1.279 . S
C1638 C1636 1.353 . S
C1638 C1641 1.348 . S
C1638 H1670 0.929 . S
C1639 C1640 1.358 . S
C1639 C1641 1.356 . S
C1639 H1671 0.930 . S
C1640 N1637 1.279 . S
C1640 C1639 1.358 . S
C1640 H1643 0.930 . S
C1641 C1638 1.348 . S
C1641 C1639 1.356 . S
H1642 C1636 0.930 . S
H1643 C1640 0.930 . S
O1644 Li1584 1.956 . S
O1644 Li1585 1.970 . S
O1644 Li1586 1.961 . S
O1644 C1588 1.325 . S
O1645 Li1584 1.970 . S
O1645 Li1585 1.956 . S
O1645 Li1587 1.961 . S
O1645 C1594 1.325 . S
O1646 Li1584 1.961 . S
O1646 Li1586 1.956 . S
O1646 Li1587 1.970 . S
O1646 C1616 1.325 . S
O1647 Li1585 1.961 . S
O1647 Li1586 1.970 . S
O1647 Li1587 1.956 . S
O1647 C1622 1.325 . S
H1648 C1590 0.929 . S
H1649 C1591 0.930 . S
H1650 C1592 0.930 . S
H1651 C1593 0.930 . S
H1652 C1595 0.930 . S
H1653 C1597 0.929 . S
H1654 C1598 0.930 . S
H1655 C1599 0.930 . S
H1656 C1602 0.930 . S
H1657 C1605 0.929 . S
H1658 C1610 0.929 . S
H1659 C1611 0.930 . S
H1660 C1618 0.929 . S
H1661 C1619 0.930 . S
H1662 C1620 0.930 . S
H1663 C1621 0.930 . S
H1664 C1623 0.929 . S
H1665 C1624 0.930 . S
H1666 C1625 0.930 . S
H1667 C1626 0.930 . S
H1668 C1630 0.929 . S
H1669 C1632 0.930 . S
H1670 C1638 0.929 . S
H1671 C1639 0.930 . S
Li1672 N1689 1.990 . S
Li1672 O1732 1.956 . S
Li1672 O1733 1.970 . S
Li1672 O1734 1.931 1_545 S
Li1673 N1697 1.990 . S
Li1673 O1732 1.970 . S
Li1673 O1733 1.956 . S
Li1673 O1735 1.961 . S
Li1674 N1719 1.990 . S
Li1674 O1732 1.961 . S
Li1674 O1734 1.925 1_545 S
Li1674 O1735 1.970 . S
Li1675 N1725 1.990 1_545 S
Li1675 O1733 1.961 . S
Li1675 O1734 1.972 1_545 S
Li1675 O1735 1.956 . S
C1676 C1678 1.348 . S
C1676 C1679 1.356 . S
C1676 O1732 1.325 . S
N1677 C1680 1.314 . S
N1677 C1681 1.279 . S
C1678 C1676 1.348 . S
C1678 C1680 1.353 . S
C1678 H1736 0.929 . S
C1679 C1676 1.356 . S
C1679 C1681 1.358 . S
C1679 H1737 0.930 . S
C1680 N1677 1.314 . S
C1680 C1678 1.353 . S
C1680 H1738 0.930 . S
C1681 N1677 1.279 . S
C1681 C1679 1.358 . S
C1681 H1739 0.930 . S
C1682 C1685 1.348 . S
C1682 C1686 1.356 . S
C1682 O1733 1.325 . S
C1683 N1684 1.279 . S
C1683 C1686 1.358 . S
C1683 H1740 0.930 . S
N1684 C1683 1.279 . S
N1684 C1687 1.314 . S
C1685 C1682 1.348 . S
C1685 C1687 1.353 . S
C1685 H1741 0.929 . S
C1686 C1682 1.356 . S
C1686 C1683 1.358 . S
C1686 H1742 0.930 . S
C1687 N1684 1.314 . S
C1687 C1685 1.353 . S
C1687 H1743 0.930 . S
C1688 N1689 1.314 . S
C1688 C1693 1.353 . S
C1688 H1694 0.930 1_545 S
N1689 Li1672 1.990 . S
N1689 C1688 1.314 . S
N1689 C1691 1.279 . S
C1690 C1691 1.358 . S
C1690 C1692 1.356 . S
C1690 H1744 0.930 . S
C1691 N1689 1.279 . S
C1691 C1690 1.358 . S
C1691 H1695 0.930 . S
C1692 C1690 1.356 . S
C1692 C1693 1.348 . S
C1693 C1688 1.353 . S
C1693 C1692 1.348 . S
C1693 H1745 0.929 1_545 S
H1694 C1688 0.930 1_565 S
H1695 C1691 0.930 . S
C1696 N1697 1.314 . S
C1696 C1698 1.353 . S
C1696 H1702 0.930 . S
N1697 Li1673 1.990 . S
N1697 C1696 1.314 . S
N1697 C1700 1.279 . S
C1698 C1696 1.353 . S
C1698 C1701 1.348 . S
C1698 H1746 0.929 . S
C1699 C1700 1.358 . S
C1699 C1701 1.356 . S
C1699 H1747 0.930 . S
C1700 N1697 1.279 . S
C1700 C1699 1.358 . S
C1700 H1703 0.930 . S
C1701 C1698 1.348 . S
C1701 C1699 1.356 . S
H1702 C1696 0.930 . S
H1703 C1700 0.930 . S
C1704 C1706 1.348 . S
C1704 C1707 1.356 . S
C1704 O1734 1.355 . S
N1705 C1708 1.314 . S
N1705 C1709 1.279 . S
C1706 C1704 1.348 . S
C1706 C1708 1.353 . S
C1706 H1748 0.929 . S
C1707 C1704 1.356 . S
C1707 C1709 1.358 . S
C1707 H1749 0.930 . S
C1708 N1705 1.314 . S
C1708 C1706 1.353 . S
C1708 H1750 0.930 . S
C1709 N1705 1.279 . S
C1709 C1707 1.358 . S
C1709 H1751 0.930 . S
C1710 C1711 1.348 . S
C1710 C1712 1.356 . S
C1710 O1735 1.325 . S
C1711 C1710 1.348 . S
C1711 C1713 1.353 . S
C1711 H1752 0.929 . S
C1712 C1710 1.356 . S
C1712 C1714 1.358 . S
C1712 H1753 0.930 . S
C1713 C1711 1.353 . S
C1713 N1715 1.314 . S
C1713 H1754 0.930 . S
C1714 C1712 1.358 . S
C1714 N1715 1.279 . S
C1714 H1755 0.930 . S
N1715 C1713 1.314 . S
N1715 C1714 1.279 . S
C1716 C1718 1.353 . S
C1716 N1719 1.314 . S
C1716 H1722 0.930 . S
C1717 N1719 1.279 1_565 S
C1717 C1720 1.358 . S
C1717 H1723 0.930 . S
C1718 C1716 1.353 . S
C1718 C1721 1.348 . S
C1718 H1756 0.929 . S
N1719 Li1674 1.990 . S
N1719 C1716 1.314 . S
N1719 C1717 1.279 1_545 S
C1720 C1717 1.358 . S
C1720 C1721 1.356 1_565 S
C1720 H1757 0.930 . S
C1721 C1718 1.348 . S
C1721 C1720 1.356 1_545 S
H1722 C1716 0.930 . S
H1723 C1717 0.930 . S
C1724 N1725 1.314 . S
C1724 C1726 1.353 . S
C1724 H1730 0.930 . S
N1725 Li1675 1.990 1_565 S
N1725 C1724 1.314 . S
N1725 C1728 1.279 . S
C1726 C1724 1.353 . S
C1726 C1729 1.348 . S
C1726 H1758 0.929 . S
C1727 C1728 1.358 . S
C1727 C1729 1.356 . S
C1727 H1759 0.930 . S
C1728 N1725 1.279 . S
C1728 C1727 1.358 . S
C1728 H1731 0.930 . S
C1729 C1726 1.348 . S
C1729 C1727 1.356 . S
H1730 C1724 0.930 . S
H1731 C1728 0.930 . S
O1732 Li1672 1.956 . S
O1732 Li1673 1.970 . S
O1732 Li1674 1.961 . S
O1732 C1676 1.325 . S
O1733 Li1672 1.970 . S
O1733 Li1673 1.956 . S
O1733 Li1675 1.961 . S
O1733 C1682 1.325 . S
O1734 Li1672 1.931 1_565 S
O1734 Li1674 1.925 1_565 S
O1734 Li1675 1.972 1_565 S
O1734 C1704 1.355 . S
O1735 Li1673 1.961 . S
O1735 Li1674 1.970 . S
O1735 Li1675 1.956 . S
O1735 C1710 1.325 . S
H1736 C1678 0.929 . S
H1737 C1679 0.930 . S
H1738 C1680 0.930 . S
H1739 C1681 0.930 . S
H1740 C1683 0.930 . S
H1741 C1685 0.929 . S
H1742 C1686 0.930 . S
H1743 C1687 0.930 . S
H1744 C1690 0.930 . S
H1745 C1693 0.929 1_565 S
H1746 C1698 0.929 . S
H1747 C1699 0.930 . S
H1748 C1706 0.929 . S
H1749 C1707 0.930 . S
H1750 C1708 0.930 . S
H1751 C1709 0.930 . S
H1752 C1711 0.929 . S
H1753 C1712 0.930 . S
H1754 C1713 0.930 . S
H1755 C1714 0.930 . S
H1756 C1718 0.929 . S
H1757 C1720 0.930 . S
H1758 C1726 0.929 . S
H1759 C1727 0.930 . S
Li1760 N1777 1.990 . S
Li1760 O1820 1.956 . S
Li1760 O1821 1.970 . S
Li1760 O1822 1.961 . S
Li1761 N1785 1.990 . S
Li1761 O1820 1.970 . S
Li1761 O1821 1.956 . S
Li1761 O1823 1.961 . S
Li1762 N1807 1.990 1_554 S
Li1762 O1820 1.961 . S
Li1762 O1822 1.956 . S
Li1762 O1823 1.970 . S
Li1763 N1813 1.990 . S
Li1763 O1821 1.961 . S
Li1763 O1822 1.970 . S
Li1763 O1823 1.956 . S
C1764 C1766 1.348 . S
C1764 C1767 1.356 . S
C1764 O1820 1.325 . S
N1765 C1768 1.314 . S
N1765 C1769 1.279 . S
C1766 C1764 1.348 . S
C1766 C1768 1.353 . S
C1766 H1824 0.929 . S
C1767 C1764 1.356 . S
C1767 C1769 1.358 . S
C1767 H1825 0.930 . S
C1768 N1765 1.314 . S
C1768 C1766 1.353 . S
C1768 H1826 0.930 . S
C1769 N1765 1.279 . S
C1769 C1767 1.358 . S
C1769 H1827 0.930 . S
C1770 C1773 1.348 . S
C1770 C1774 1.356 . S
C1770 O1821 1.325 . S
C1771 N1772 1.279 . S
C1771 C1774 1.358 . S
C1771 H1828 0.930 . S
N1772 C1771 1.279 . S
N1772 C1775 1.314 . S
C1773 C1770 1.348 . S
C1773 C1775 1.353 . S
C1773 H1829 0.929 . S
C1774 C1770 1.356 . S
C1774 C1771 1.358 . S
C1774 H1830 0.930 . S
C1775 N1772 1.314 . S
C1775 C1773 1.353 . S
C1775 H1831 0.930 . S
C1776 N1777 1.314 . S
C1776 C1781 1.353 . S
C1776 H1782 0.930 . S
N1777 Li1760 1.990 . S
N1777 C1776 1.314 . S
N1777 C1779 1.279 . S
C1778 C1779 1.358 . S
C1778 C1780 1.356 . S
C1778 H1832 0.930 . S
C1779 N1777 1.279 . S
C1779 C1778 1.358 . S
C1779 H1783 0.930 . S
C1780 C1778 1.356 . S
C1780 C1781 1.348 . S
C1781 C1776 1.353 . S
C1781 C1780 1.348 . S
C1781 H1833 0.929 . S
H1782 C1776 0.930 . S
H1783 C1779 0.930 . S
C1784 N1785 1.314 . S
C1784 C1786 1.353 . S
C1784 H1790 0.957 . S
N1785 Li1761 1.990 . S
N1785 C1784 1.314 . S
N1785 C1788 1.279 . S
C1786 C1784 1.353 . S
C1786 C1789 1.348 . S
C1786 H1834 0.929 1_554 S
C1787 C1788 1.358 . S
C1787 C1789 1.356 . S
C1787 H1835 0.930 . S
C1788 N1785 1.279 . S
C1788 C1787 1.358 . S
C1788 H1791 0.930 . S
C1789 C1786 1.348 . S
C1789 C1787 1.356 . S
H1790 C1784 0.957 . S
H1791 C1788 0.930 . S
C1792 C1794 1.348 . S
C1792 C1795 1.356 . S
C1792 O1822 1.325 . S
N1793 C1796 1.314 . S
N1793 C1797 1.279 . S
C1794 C1792 1.348 . S
C1794 C1796 1.353 . S
C1794 H1836 0.929 . S
C1795 C1792 1.356 . S
C1795 C1797 1.358 . S
C1795 H1837 0.930 . S
C1796 N1793 1.314 . S
C1796 C1794 1.353 . S
C1796 H1838 0.930 . S
C1797 N1793 1.279 . S
C1797 C1795 1.358 . S
C1797 H1839 0.930 . S
C1798 C1799 1.348 . S
C1798 C1800 1.356 . S
C1798 O1823 1.325 1_556 S
C1799 C1798 1.348 . S
C1799 C1801 1.353 . S
C1799 H1840 0.929 . S
C1800 C1798 1.356 . S
C1800 C1802 1.358 . S
C1800 H1841 0.930 1_556 S
C1801 C1799 1.353 . S
C1801 N1803 1.314 . S
C1801 H1842 0.930 . S
C1802 C1800 1.358 . S
C1802 N1803 1.279 . S
C1802 H1843 0.930 . S
N1803 C1801 1.314 . S
N1803 C1802 1.279 . S
C1804 C1806 1.353 . S
C1804 N1807 1.314 . S
C1804 H1810 0.930 . S
C1805 N1807 1.279 . S
C1805 C1808 1.358 . S
C1805 H1811 0.930 . S
C1806 C1804 1.353 . S
C1806 C1809 1.348 . S
C1806 H1844 0.929 . S
N1807 Li1762 1.990 1_556 S
N1807 C1804 1.314 . S
N1807 C1805 1.279 . S
C1808 C1805 1.358 . S
C1808 C1809 1.356 . S
C1808 H1845 0.930 . S
C1809 C1806 1.348 . S
C1809 C1808 1.356 . S
H1810 C1804 0.930 . S
H1811 C1805 0.930 . S
C1812 N1813 1.314 . S
C1812 C1814 1.353 . S
C1812 H1818 0.930 . S
N1813 Li1763 1.990 . S
N1813 C1812 1.314 . S
N1813 C1816 1.279 . S
C1814 C1812 1.353 . S
C1814 C1817 1.348 . S
C1814 H1846 0.929 . S
C1815 C1816 1.358 . S
C1815 C1817 1.356 . S
C1815 H1847 0.930 1_554 S
C1816 N1813 1.279 . S
C1816 C1815 1.358 . S
C1816 H1819 0.930 1_554 S
C1817 C1814 1.348 . S
C1817 C1815 1.356 . S
H1818 C1812 0.930 . S
H1819 C1816 0.930 1_556 S
O1820 Li1760 1.956 . S
O1820 Li1761 1.970 . S
O1820 Li1762 1.961 . S
O1820 C1764 1.325 . S
O1821 Li1760 1.970 . S
O1821 Li1761 1.956 . S
O1821 Li1763 1.961 . S
O1821 C1770 1.325 . S
O1822 Li1760 1.961 . S
O1822 Li1762 1.956 . S
O1822 Li1763 1.970 . S
O1822 C1792 1.325 . S
O1823 Li1761 1.961 . S
O1823 Li1762 1.970 . S
O1823 Li1763 1.956 . S
O1823 C1798 1.325 1_554 S
H1824 C1766 0.929 . S
H1825 C1767 0.930 . S
H1826 C1768 0.930 . S
H1827 C1769 0.930 . S
H1828 C1771 0.930 . S
H1829 C1773 0.929 . S
H1830 C1774 0.930 . S
H1831 C1775 0.930 . S
H1832 C1778 0.930 . S
H1833 C1781 0.929 . S
H1834 C1786 0.929 1_556 S
H1835 C1787 0.930 . S
H1836 C1794 0.929 . S
H1837 C1795 0.930 . S
H1838 C1796 0.930 . S
H1839 C1797 0.930 . S
H1840 C1799 0.929 . S
H1841 C1800 0.930 1_554 S
H1842 C1801 0.930 . S
H1843 C1802 0.930 . S
H1844 C1806 0.929 . S
H1845 C1808 0.930 . S
H1846 C1814 0.929 . S
H1847 C1815 0.930 1_556 S
Li1848 N1865 1.990 . S
Li1848 O1908 1.956 . S
Li1848 O1909 1.970 . S
Li1848 O1910 1.961 . S
Li1849 N1873 1.990 . S
Li1849 O1908 1.970 . S
Li1849 O1909 1.956 . S
Li1849 O1911 1.961 . S
Li1850 N1895 1.990 . S
Li1850 O1908 1.961 . S
Li1850 O1910 1.956 . S
Li1850 O1911 1.970 . S
Li1851 N1901 1.990 . S
Li1851 O1909 1.961 . S
Li1851 O1910 1.970 . S
Li1851 O1911 1.956 . S
C1852 C1854 1.348 . S
C1852 C1855 1.356 . S
C1852 O1908 1.325 . S
N1853 C1856 1.314 . S
N1853 C1857 1.279 . S
C1854 C1852 1.348 . S
C1854 C1856 1.353 . S
C1854 H1912 0.929 . S
C1855 C1852 1.356 . S
C1855 C1857 1.358 . S
C1855 H1913 0.930 . S
C1856 N1853 1.314 . S
C1856 C1854 1.353 . S
C1856 H1914 0.930 . S
C1857 N1853 1.279 . S
C1857 C1855 1.358 . S
C1857 H1915 0.930 . S
C1858 C1861 1.348 . S
C1858 C1862 1.356 . S
C1858 O1909 1.325 . S
C1859 N1860 1.279 . S
C1859 C1862 1.358 . S
C1859 H1916 0.930 . S
N1860 C1859 1.279 . S
N1860 C1863 1.314 . S
C1861 C1858 1.348 . S
C1861 C1863 1.353 . S
C1861 H1917 0.929 . S
C1862 C1858 1.356 . S
C1862 C1859 1.358 . S
C1862 H1918 0.930 . S
C1863 N1860 1.314 . S
C1863 C1861 1.353 . S
C1863 H1919 0.930 . S
C1864 N1865 1.314 . S
C1864 C1869 1.353 . S
C1864 H1870 0.930 . S
N1865 Li1848 1.990 . S
N1865 C1864 1.314 . S
N1865 C1867 1.279 . S
C1866 C1867 1.358 . S
C1866 C1868 1.356 . S
C1866 H1920 0.930 . S
C1867 N1865 1.279 . S
C1867 C1866 1.358 . S
C1867 H1871 0.930 . S
C1868 C1866 1.356 . S
C1868 C1869 1.348 . S
C1869 C1864 1.353 . S
C1869 C1868 1.348 . S
C1869 H1921 0.929 . S
H1870 C1864 0.930 . S
H1871 C1867 0.930 . S
C1872 N1873 1.314 . S
C1872 C1874 1.353 . S
C1872 H1878 0.930 . S
N1873 Li1849 1.990 . S
N1873 C1872 1.314 . S
N1873 C1876 1.279 . S
C1874 C1872 1.353 . S
C1874 C1877 1.348 . S
C1874 H1922 0.929 . S
C1875 C1876 1.358 . S
C1875 C1877 1.356 . S
C1875 H1923 0.930 . S
C1876 N1873 1.279 . S
C1876 C1875 1.358 . S
C1876 H1879 0.930 . S
C1877 C1874 1.348 . S
C1877 C1875 1.356 . S
H1878 C1872 0.930 . S
H1879 C1876 0.930 . S
C1880 C1882 1.348 . S
C1880 C1883 1.356 . S
C1880 O1910 1.325 . S
N1881 C1884 1.314 . S
N1881 C1885 1.279 . S
C1882 C1880 1.348 . S
C1882 C1884 1.353 . S
C1882 H1924 0.929 . S
C1883 C1880 1.356 . S
C1883 C1885 1.358 . S
C1883 H1925 0.930 . S
C1884 N1881 1.314 . S
C1884 C1882 1.353 . S
C1884 H1926 0.930 . S
C1885 N1881 1.279 . S
C1885 C1883 1.358 . S
C1885 H1927 0.930 . S
C1886 C1887 1.348 . S
C1886 C1888 1.356 . S
C1886 O1911 1.325 . S
C1887 C1886 1.348 . S
C1887 C1889 1.353 . S
C1887 H1928 0.929 . S
C1888 C1886 1.356 . S
C1888 C1890 1.358 . S
C1888 H1929 0.930 . S
C1889 C1887 1.353 . S
C1889 N1891 1.314 . S
C1889 H1930 0.930 . S
C1890 C1888 1.358 . S
C1890 N1891 1.279 . S
C1890 H1931 0.930 . S
N1891 C1889 1.314 . S
N1891 C1890 1.279 . S
C1892 C1894 1.353 . S
C1892 N1895 1.314 . S
C1892 H1898 0.930 . S
C1893 N1895 1.279 . S
C1893 C1896 1.358 . S
C1893 H1899 0.930 . S
C1894 C1892 1.353 . S
C1894 C1897 1.348 . S
C1894 H1932 0.929 . S
N1895 Li1850 1.990 . S
N1895 C1892 1.314 . S
N1895 C1893 1.279 . S
C1896 C1893 1.358 . S
C1896 C1897 1.356 . S
C1896 H1933 0.930 . S
C1897 C1894 1.348 . S
C1897 C1896 1.356 . S
H1898 C1892 0.930 . S
H1899 C1893 0.930 . S
C1900 N1901 1.314 . S
C1900 C1902 1.353 . S
C1900 H1906 0.930 . S
N1901 Li1851 1.990 . S
N1901 C1900 1.314 . S
N1901 C1904 1.279 . S
C1902 C1900 1.353 . S
C1902 C1905 1.348 . S
C1902 H1934 0.929 . S
C1903 C1904 1.358 . S
C1903 C1905 1.356 . S
C1903 H1935 0.930 . S
C1904 N1901 1.279 . S
C1904 C1903 1.358 . S
C1904 H1907 0.930 . S
C1905 C1902 1.348 . S
C1905 C1903 1.356 . S
H1906 C1900 0.930 . S
H1907 C1904 0.930 . S
O1908 Li1848 1.956 . S
O1908 Li1849 1.970 . S
O1908 Li1850 1.961 . S
O1908 C1852 1.325 . S
O1909 Li1848 1.970 . S
O1909 Li1849 1.956 . S
O1909 Li1851 1.961 . S
O1909 C1858 1.325 . S
O1910 Li1848 1.961 . S
O1910 Li1850 1.956 . S
O1910 Li1851 1.970 . S
O1910 C1880 1.325 . S
O1911 Li1849 1.961 . S
O1911 Li1850 1.970 . S
O1911 Li1851 1.956 . S
O1911 C1886 1.325 . S
H1912 C1854 0.929 . S
H1913 C1855 0.930 . S
H1914 C1856 0.930 . S
H1915 C1857 0.930 . S
H1916 C1859 0.930 . S
H1917 C1861 0.929 . S
H1918 C1862 0.930 . S
H1919 C1863 0.930 . S
H1920 C1866 0.930 . S
H1921 C1869 0.929 . S
H1922 C1874 0.929 . S
H1923 C1875 0.930 . S
H1924 C1882 0.929 . S
H1925 C1883 0.930 . S
H1926 C1884 0.930 . S
H1927 C1885 0.930 . S
H1928 C1887 0.929 . S
H1929 C1888 0.930 . S
H1930 C1889 0.930 . S
H1931 C1890 0.930 . S
H1932 C1894 0.929 . S
H1933 C1896 0.930 . S
H1934 C1902 0.929 . S
H1935 C1903 0.930 . S
Li1936 N1953 1.990 . S
Li1936 O1996 1.956 . S
Li1936 O1997 1.970 . S
Li1936 O1998 1.961 . S
Li1937 N1961 1.990 . S
Li1937 O1996 1.970 . S
Li1937 O1997 1.956 . S
Li1937 O1999 1.961 . S
Li1938 N1983 1.990 . S
Li1938 O1996 1.961 . S
Li1938 O1998 1.956 . S
Li1938 O1999 1.970 . S
Li1939 N1989 1.990 . S
Li1939 O1997 1.961 . S
Li1939 O1998 1.970 . S
Li1939 O1999 1.956 . S
C1940 C1942 1.348 . S
C1940 C1943 1.356 . S
C1940 O1996 1.325 . S
N1941 C1944 1.314 . S
N1941 C1945 1.279 . S
C1942 C1940 1.348 . S
C1942 C1944 1.353 . S
C1942 H2000 0.929 . S
C1943 C1940 1.356 . S
C1943 C1945 1.358 . S
C1943 H2001 0.930 . S
C1944 N1941 1.314 . S
C1944 C1942 1.353 . S
C1944 H2002 0.930 . S
C1945 N1941 1.279 . S
C1945 C1943 1.358 . S
C1945 H2003 0.930 . S
C1946 C1949 1.348 . S
C1946 C1950 1.356 . S
C1946 O1997 1.325 . S
C1947 N1948 1.279 . S
C1947 C1950 1.358 . S
C1947 H2004 0.930 . S
N1948 C1947 1.279 . S
N1948 C1951 1.314 . S
C1949 C1946 1.348 . S
C1949 C1951 1.353 . S
C1949 H2005 0.929 . S
C1950 C1946 1.356 . S
C1950 C1947 1.358 . S
C1950 H2006 0.930 . S
C1951 N1948 1.314 . S
C1951 C1949 1.353 . S
C1951 H2007 0.930 . S
C1952 N1953 1.314 . S
C1952 C1957 1.353 . S
C1952 H1958 0.930 . S
N1953 Li1936 1.990 . S
N1953 C1952 1.314 . S
N1953 C1955 1.279 . S
C1954 C1955 1.358 . S
C1954 C1956 1.356 . S
C1954 H2008 0.930 . S
C1955 N1953 1.279 . S
C1955 C1954 1.358 . S
C1955 H1959 0.930 . S
C1956 C1954 1.356 . S
C1956 C1957 1.348 . S
C1957 C1952 1.353 . S
C1957 C1956 1.348 . S
C1957 H2009 0.929 . S
H1958 C1952 0.930 . S
H1959 C1955 0.930 . S
C1960 N1961 1.314 . S
C1960 C1962 1.353 . S
C1960 H1966 0.930 . S
N1961 Li1937 1.990 . S
N1961 C1960 1.314 . S
N1961 C1964 1.279 . S
C1962 C1960 1.353 . S
C1962 C1965 1.348 . S
C1962 H2010 0.929 . S
C1963 C1964 1.358 . S
C1963 C1965 1.356 . S
C1963 H2011 0.930 . S
C1964 N1961 1.279 . S
C1964 C1963 1.358 . S
C1964 H1967 0.930 . S
C1965 C1962 1.348 . S
C1965 C1963 1.356 . S
H1966 C1960 0.930 . S
H1967 C1964 0.930 . S
C1968 C1970 1.348 . S
C1968 C1971 1.356 . S
C1968 O1998 1.325 . S
N1969 C1972 1.314 . S
N1969 C1973 1.279 . S
C1970 C1968 1.348 . S
C1970 C1972 1.353 . S
C1970 H2012 0.929 . S
C1971 C1968 1.356 . S
C1971 C1973 1.358 . S
C1971 H2013 0.930 . S
C1972 N1969 1.314 . S
C1972 C1970 1.353 . S
C1972 H2014 0.930 . S
C1973 N1969 1.279 . S
C1973 C1971 1.358 . S
C1973 H2015 0.930 . S
C1974 C1975 1.348 . S
C1974 C1976 1.356 . S
C1974 O1999 1.325 . S
C1975 C1974 1.348 . S
C1975 C1977 1.353 . S
C1975 H2016 0.929 . S
C1976 C1974 1.356 . S
C1976 C1978 1.358 . S
C1976 H2017 0.930 . S
C1977 C1975 1.353 . S
C1977 N1979 1.314 . S
C1977 H2018 0.930 . S
C1978 C1976 1.358 . S
C1978 N1979 1.279 . S
C1978 H2019 0.930 . S
N1979 C1977 1.314 . S
N1979 C1978 1.279 . S
C1980 C1982 1.353 . S
C1980 N1983 1.314 . S
C1980 H1986 0.930 . S
C1981 N1983 1.279 . S
C1981 C1984 1.358 . S
C1981 H1987 0.930 . S
C1982 C1980 1.353 . S
C1982 C1985 1.348 . S
C1982 H2020 0.929 . S
N1983 Li1938 1.990 . S
N1983 C1980 1.314 . S
N1983 C1981 1.279 . S
C1984 C1981 1.358 . S
C1984 C1985 1.356 . S
C1984 H2021 0.930 . S
C1985 C1982 1.348 . S
C1985 C1984 1.356 . S
H1986 C1980 0.930 . S
H1987 C1981 0.930 . S
C1988 N1989 1.314 . S
C1988 C1990 1.353 . S
C1988 H1994 0.930 . S
N1989 Li1939 1.990 . S
N1989 C1988 1.314 . S
N1989 C1992 1.279 . S
C1990 C1988 1.353 . S
C1990 C1993 1.348 . S
C1990 H2022 0.929 . S
C1991 C1992 1.358 . S
C1991 C1993 1.356 . S
C1991 H2023 0.930 . S
C1992 N1989 1.279 . S
C1992 C1991 1.358 . S
C1992 H1995 0.930 . S
C1993 C1990 1.348 . S
C1993 C1991 1.356 . S
H1994 C1988 0.930 . S
H1995 C1992 0.930 . S
O1996 Li1936 1.956 . S
O1996 Li1937 1.970 . S
O1996 Li1938 1.961 . S
O1996 C1940 1.325 . S
O1997 Li1936 1.970 . S
O1997 Li1937 1.956 . S
O1997 Li1939 1.961 . S
O1997 C1946 1.325 . S
O1998 Li1936 1.961 . S
O1998 Li1938 1.956 . S
O1998 Li1939 1.970 . S
O1998 C1968 1.325 . S
O1999 Li1937 1.961 . S
O1999 Li1938 1.970 . S
O1999 Li1939 1.956 . S
O1999 C1974 1.325 . S
H2000 C1942 0.929 . S
H2001 C1943 0.930 . S
H2002 C1944 0.930 . S
H2003 C1945 0.930 . S
H2004 C1947 0.930 . S
H2005 C1949 0.929 . S
H2006 C1950 0.930 . S
H2007 C1951 0.930 . S
H2008 C1954 0.930 . S
H2009 C1957 0.929 . S
H2010 C1962 0.929 . S
H2011 C1963 0.930 . S
H2012 C1970 0.929 . S
H2013 C1971 0.930 . S
H2014 C1972 0.930 . S
H2015 C1973 0.930 . S
H2016 C1975 0.929 . S
H2017 C1976 0.930 . S
H2018 C1977 0.930 . S
H2019 C1978 0.930 . S
H2020 C1982 0.929 . S
H2021 C1984 0.930 . S
H2022 C1990 0.929 . S
H2023 C1991 0.930 . S
Li2024 N2041 1.990 . S
Li2024 O2084 1.956 . S
Li2024 O2085 1.970 . S
Li2024 O2086 1.961 . S
Li2025 N2049 1.990 . S
Li2025 O2084 1.970 . S
Li2025 O2085 1.956 . S
Li2025 O2087 1.961 . S
Li2026 N2071 1.990 . S
Li2026 O2084 1.961 . S
Li2026 O2086 1.956 . S
Li2026 O2087 1.970 . S
Li2027 N2077 1.990 . S
Li2027 O2085 1.961 . S
Li2027 O2086 1.970 . S
Li2027 O2087 1.956 . S
C2028 C2030 1.348 . S
C2028 C2031 1.356 . S
C2028 O2084 1.325 . S
N2029 C2032 1.314 . S
N2029 C2033 1.279 . S
C2030 C2028 1.348 . S
C2030 C2032 1.353 . S
C2030 H2088 0.929 . S
C2031 C2028 1.356 . S
C2031 C2033 1.358 . S
C2031 H2089 0.930 . S
C2032 N2029 1.314 . S
C2032 C2030 1.353 . S
C2032 H2090 0.930 . S
C2033 N2029 1.279 . S
C2033 C2031 1.358 . S
C2033 H2091 0.930 . S
C2034 C2037 1.348 . S
C2034 C2038 1.356 . S
C2034 O2085 1.325 . S
C2035 N2036 1.279 . S
C2035 C2038 1.358 . S
C2035 H2092 0.930 . S
N2036 C2035 1.279 . S
N2036 C2039 1.314 . S
C2037 C2034 1.348 . S
C2037 C2039 1.353 . S
C2037 H2093 0.929 . S
C2038 C2034 1.356 . S
C2038 C2035 1.358 . S
C2038 H2094 0.930 . S
C2039 N2036 1.314 . S
C2039 C2037 1.353 . S
C2039 H2095 0.930 . S
C2040 N2041 1.314 . S
C2040 C2045 1.353 . S
C2040 H2046 0.930 . S
N2041 Li2024 1.990 . S
N2041 C2040 1.314 . S
N2041 C2043 1.279 . S
C2042 C2043 1.358 . S
C2042 C2044 1.356 . S
C2042 H2096 0.930 . S
C2043 N2041 1.279 . S
C2043 C2042 1.358 . S
C2043 H2047 0.930 . S
C2044 C2042 1.356 . S
C2044 C2045 1.348 . S
C2045 C2040 1.353 . S
C2045 C2044 1.348 . S
C2045 H2097 0.929 . S
H2046 C2040 0.930 . S
H2047 C2043 0.930 . S
C2048 N2049 1.314 . S
C2048 C2050 1.353 . S
C2048 H2054 0.930 . S
N2049 Li2025 1.990 . S
N2049 C2048 1.314 . S
N2049 C2052 1.279 . S
C2050 C2048 1.353 . S
C2050 C2053 1.348 . S
C2050 H2098 0.929 . S
C2051 C2052 1.358 . S
C2051 C2053 1.356 . S
C2051 H2099 0.930 . S
C2052 N2049 1.279 . S
C2052 C2051 1.358 . S
C2052 H2055 0.930 . S
C2053 C2050 1.348 . S
C2053 C2051 1.356 . S
H2054 C2048 0.930 . S
H2055 C2052 0.930 . S
C2056 C2058 1.348 . S
C2056 C2059 1.356 . S
C2056 O2086 1.325 . S
N2057 C2060 1.314 . S
N2057 C2061 1.279 . S
C2058 C2056 1.348 . S
C2058 C2060 1.353 . S
C2058 H2100 0.929 . S
C2059 C2056 1.356 . S
C2059 C2061 1.358 . S
C2059 H2101 0.930 . S
C2060 N2057 1.314 . S
C2060 C2058 1.353 . S
C2060 H2102 0.930 . S
C2061 N2057 1.279 . S
C2061 C2059 1.358 . S
C2061 H2103 0.930 . S
C2062 C2063 1.348 . S
C2062 C2064 1.356 . S
C2062 O2087 1.325 . S
C2063 C2062 1.348 . S
C2063 C2065 1.353 . S
C2063 H2104 0.929 . S
C2064 C2062 1.356 . S
C2064 C2066 1.358 . S
C2064 H2105 0.930 . S
C2065 C2063 1.353 . S
C2065 N2067 1.314 . S
C2065 H2106 0.930 . S
C2066 C2064 1.358 . S
C2066 N2067 1.279 . S
C2066 H2107 0.930 . S
N2067 C2065 1.314 . S
N2067 C2066 1.279 . S
C2068 C2070 1.353 . S
C2068 N2071 1.314 . S
C2068 H2074 0.930 . S
C2069 N2071 1.279 . S
C2069 C2072 1.358 . S
C2069 H2075 0.930 . S
C2070 C2068 1.353 . S
C2070 C2073 1.348 . S
C2070 H2108 0.929 . S
N2071 Li2026 1.990 . S
N2071 C2068 1.314 . S
N2071 C2069 1.279 . S
C2072 C2069 1.358 . S
C2072 C2073 1.356 . S
C2072 H2109 0.930 . S
C2073 C2070 1.348 . S
C2073 C2072 1.356 . S
H2074 C2068 0.930 . S
H2075 C2069 0.930 . S
C2076 N2077 1.314 . S
C2076 C2078 1.353 . S
C2076 H2082 0.930 . S
N2077 Li2027 1.990 . S
N2077 C2076 1.314 . S
N2077 C2080 1.279 . S
C2078 C2076 1.353 . S
C2078 C2081 1.348 . S
C2078 H2110 0.929 . S
C2079 C2080 1.358 . S
C2079 C2081 1.356 . S
C2079 H2111 0.930 . S
C2080 N2077 1.279 . S
C2080 C2079 1.358 . S
C2080 H2083 0.930 . S
C2081 C2078 1.348 . S
C2081 C2079 1.356 . S
H2082 C2076 0.930 . S
H2083 C2080 0.930 . S
O2084 Li2024 1.956 . S
O2084 Li2025 1.970 . S
O2084 Li2026 1.961 . S
O2084 C2028 1.325 . S
O2085 Li2024 1.970 . S
O2085 Li2025 1.956 . S
O2085 Li2027 1.961 . S
O2085 C2034 1.325 . S
O2086 Li2024 1.961 . S
O2086 Li2026 1.956 . S
O2086 Li2027 1.970 . S
O2086 C2056 1.325 . S
O2087 Li2025 1.961 . S
O2087 Li2026 1.970 . S
O2087 Li2027 1.956 . S
O2087 C2062 1.325 . S
H2088 C2030 0.929 . S
H2089 C2031 0.930 . S
H2090 C2032 0.930 . S
H2091 C2033 0.930 . S
H2092 C2035 0.930 . S
H2093 C2037 0.929 . S
H2094 C2038 0.930 . S
H2095 C2039 0.930 . S
H2096 C2042 0.930 . S
H2097 C2045 0.929 . S
H2098 C2050 0.929 . S
H2099 C2051 0.930 . S
H2100 C2058 0.929 . S
H2101 C2059 0.930 . S
H2102 C2060 0.930 . S
H2103 C2061 0.930 . S
H2104 C2063 0.929 . S
H2105 C2064 0.930 . S
H2106 C2065 0.930 . S
H2107 C2066 0.930 . S
H2108 C2070 0.929 . S
H2109 C2072 0.930 . S
H2110 C2078 0.929 . S
H2111 C2079 0.930 . S
Tb2112 C2121 2.764 . S
Tb2112 O2122 2.325 . S
Tb2112 O2125 2.303 . S
Tb2112 O2129 2.322 . S
Tb2112 O2130 2.349 . S
Tb2112 O2133 2.415 . S
Tb2112 O2134 2.399 . S
Tb2113 O2123 2.322 1_545 S
Tb2113 O2124 2.349 1_554 S
Tb2113 O2126 2.415 1_455 S
Tb2113 O2127 2.399 1_454 S
Tb2113 O2128 2.325 . S
Tb2113 O2131 2.303 . S
Tb2113 C2142 2.764 1_455 S
C2114 O2130 1.261 . S
C2114 O2131 1.257 . S
C2115 C2118 1.358 . S
C2115 C2119 1.332 . S
C2115 C2121 1.504 . S
C2116 C2117 1.373 . S
C2116 C2120 1.308 . S
C2117 C2116 1.373 . S
C2117 C2118 1.429 . S
C2117 H2144 0.932 . S
C2118 C2115 1.358 . S
C2118 C2117 1.429 . S
C2118 H2145 0.930 . S
C2119 C2115 1.332 . S
C2119 C2120 1.394 . S
C2119 H2146 0.932 . S
C2120 C2116 1.308 . S
C2120 C2119 1.394 . S
C2120 H2147 0.929 1_545 S
C2121 Tb2112 2.764 . S
C2121 C2115 1.504 . S
C2121 O2133 1.239 . S
C2121 O2134 1.263 . S
O2122 Tb2112 2.325 . S
O2122 C2132 1.236 1_545 S
O2123 Tb2113 2.322 1_565 S
O2123 C2132 1.257 . S
O2124 Tb2113 2.349 1_556 S
O2124 C2135 1.261 . S
O2125 Tb2112 2.303 . S
O2125 C2135 1.257 1_554 S
O2126 Tb2113 2.415 1_655 S
O2126 C2142 1.239 . S
O2127 Tb2113 2.399 1_656 S
O2127 C2142 1.263 1_556 S
O2128 Tb2113 2.325 . S
O2128 C2143 1.236 . S
O2129 Tb2112 2.322 . S
O2129 C2143 1.257 . S
O2130 Tb2112 2.349 . S
O2130 C2114 1.261 . S
O2131 Tb2113 2.303 . S
O2131 C2114 1.257 . S
C2132 O2122 1.236 1_565 S
C2132 O2123 1.257 . S
O2133 Tb2112 2.415 . S
O2133 C2121 1.239 . S
O2134 Tb2112 2.399 . S
O2134 C2121 1.263 . S
C2135 O2124 1.261 . S
C2135 O2125 1.257 1_556 S
C2136 C2139 1.358 1_554 S
C2136 C2140 1.332 . S
C2136 C2142 1.504 . S
C2137 C2138 1.373 . S
C2137 C2141 1.308 1_556 S
C2138 C2137 1.373 . S
C2138 C2139 1.429 . S
C2138 H2148 0.932 . S
C2139 C2136 1.358 1_556 S
C2139 C2138 1.429 . S
C2139 H2149 0.930 . S
C2140 C2136 1.332 . S
C2140 C2141 1.394 . S
C2140 H2150 0.932 . S
C2141 C2137 1.308 1_554 S
C2141 C2140 1.394 . S
C2141 H2151 0.929 . S
C2142 Tb2113 2.764 1_655 S
C2142 O2126 1.239 . S
C2142 O2127 1.263 1_554 S
C2142 C2136 1.504 . S
C2143 O2128 1.236 . S
C2143 O2129 1.257 . S
H2144 C2117 0.932 . S
H2145 C2118 0.930 . S
H2146 C2119 0.932 . S
H2147 C2120 0.929 1_565 S
H2148 C2138 0.932 . S
H2149 C2139 0.930 . S
H2150 C2140 0.932 . S
H2151 C2141 0.929 . S
Tb2152 C2161 2.764 . S
Tb2152 O2162 2.325 . S
Tb2152 O2165 2.303 . S
Tb2152 O2169 2.322 . S
Tb2152 O2170 2.349 . S
Tb2152 O2173 2.415 . S
Tb2152 O2174 2.399 . S
Tb2153 O2163 2.322 . S
Tb2153 O2164 2.349 . S
Tb2153 O2166 2.415 . S
Tb2153 O2167 2.399 . S
Tb2153 O2168 2.325 . S
Tb2153 O2171 2.303 . S
Tb2153 C2182 2.764 . S
C2154 O2170 1.261 . S
C2154 O2171 1.257 . S
C2155 C2158 1.358 . S
C2155 C2159 1.332 . S
C2155 C2161 1.504 . S
C2156 C2157 1.373 . S
C2156 C2160 1.308 . S
C2157 C2156 1.373 . S
C2157 C2158 1.429 . S
C2157 H2184 0.932 . S
C2158 C2155 1.358 . S
C2158 C2157 1.429 . S
C2158 H2185 0.930 . S
C2159 C2155 1.332 . S
C2159 C2160 1.394 . S
C2159 H2186 0.932 . S
C2160 C2156 1.308 . S
C2160 C2159 1.394 . S
C2160 H2187 0.929 . S
C2161 Tb2152 2.764 . S
C2161 C2155 1.504 . S
C2161 O2173 1.239 . S
C2161 O2174 1.263 . S
O2162 Tb2152 2.325 . S
O2162 C2172 1.236 . S
O2163 Tb2153 2.322 . S
O2163 C2172 1.257 . S
O2164 Tb2153 2.349 . S
O2164 C2175 1.261 . S
O2165 Tb2152 2.303 . S
O2165 C2175 1.257 . S
O2166 Tb2153 2.415 . S
O2166 C2182 1.239 . S
O2167 Tb2153 2.399 . S
O2167 C2182 1.263 . S
O2168 Tb2153 2.325 . S
O2168 C2183 1.236 . S
O2169 Tb2152 2.322 . S
O2169 C2183 1.257 . S
O2170 Tb2152 2.349 . S
O2170 C2154 1.261 . S
O2171 Tb2153 2.303 . S
O2171 C2154 1.257 . S
C2172 O2162 1.236 . S
C2172 O2163 1.257 . S
O2173 Tb2152 2.415 . S
O2173 C2161 1.239 . S
O2174 Tb2152 2.399 . S
O2174 C2161 1.263 . S
C2175 O2164 1.261 . S
C2175 O2165 1.257 . S
C2176 C2179 1.358 . S
C2176 C2180 1.332 . S
C2176 C2182 1.504 . S
C2177 C2178 1.373 . S
C2177 C2181 1.308 . S
C2178 C2177 1.373 . S
C2178 C2179 1.429 . S
C2178 H2188 0.932 . S
C2179 C2176 1.358 . S
C2179 C2178 1.429 . S
C2179 H2189 0.930 . S
C2180 C2176 1.332 . S
C2180 C2181 1.394 . S
C2180 H2190 0.932 . S
C2181 C2177 1.308 . S
C2181 C2180 1.394 . S
C2181 H2191 0.929 . S
C2182 Tb2153 2.764 . S
C2182 O2166 1.239 . S
C2182 O2167 1.263 . S
C2182 C2176 1.504 . S
C2183 O2168 1.236 . S
C2183 O2169 1.257 . S
H2184 C2157 0.932 . S
H2185 C2158 0.930 . S
H2186 C2159 0.932 . S
H2187 C2160 0.929 . S
H2188 C2178 0.932 . S
H2189 C2179 0.930 . S
H2190 C2180 0.932 . S
H2191 C2181 0.929 . S
Tb2192 C2201 2.764 . S
Tb2192 O2202 2.325 . S
Tb2192 O2205 2.303 . S
Tb2192 O2209 2.322 1_545 S
Tb2192 O2210 2.349 . S
Tb2192 O2213 2.415 . S
Tb2192 O2214 2.399 . S
Tb2193 O2203 2.322 . S
Tb2193 O2204 2.349 . S
Tb2193 O2206 2.415 . S
Tb2193 O2207 2.399 . S
Tb2193 O2208 2.325 1_545 S
Tb2193 O2211 2.303 . S
Tb2193 C2222 2.764 . S
C2194 O2210 1.261 . S
C2194 O2211 1.257 . S
C2195 C2198 1.358 . S
C2195 C2199 1.332 . S
C2195 C2201 1.504 . S
C2196 C2197 1.373 . S
C2196 C2200 1.308 . S
C2197 C2196 1.373 . S
C2197 C2198 1.429 . S
C2197 H2224 0.932 . S
C2198 C2195 1.358 . S
C2198 C2197 1.429 . S
C2198 H2225 0.930 . S
C2199 C2195 1.332 . S
C2199 C2200 1.394 . S
C2199 H2226 0.932 . S
C2200 C2196 1.308 . S
C2200 C2199 1.394 . S
C2200 H2227 0.929 . S
C2201 Tb2192 2.764 . S
C2201 C2195 1.504 . S
C2201 O2213 1.239 . S
C2201 O2214 1.263 . S
O2202 Tb2192 2.325 . S
O2202 C2212 1.236 . S
O2203 Tb2193 2.322 . S
O2203 C2212 1.257 . S
O2204 Tb2193 2.349 . S
O2204 C2215 1.261 . S
O2205 Tb2192 2.303 . S
O2205 C2215 1.257 . S
O2206 Tb2193 2.415 . S
O2206 C2222 1.239 . S
O2207 Tb2193 2.399 . S
O2207 C2222 1.263 . S
O2208 Tb2193 2.325 1_565 S
O2208 C2223 1.236 . S
O2209 Tb2192 2.322 1_565 S
O2209 C2223 1.257 . S
O2210 Tb2192 2.349 . S
O2210 C2194 1.261 . S
O2211 Tb2193 2.303 . S
O2211 C2194 1.257 . S
C2212 O2202 1.236 . S
C2212 O2203 1.257 . S
O2213 Tb2192 2.415 . S
O2213 C2201 1.239 . S
O2214 Tb2192 2.399 . S
O2214 C2201 1.263 . S
C2215 O2204 1.261 . S
C2215 O2205 1.257 . S
C2216 C2219 1.358 . S
C2216 C2220 1.332 . S
C2216 C2222 1.504 1_565 S
C2217 C2218 1.373 . S
C2217 C2221 1.308 . S
C2218 C2217 1.373 . S
C2218 C2219 1.440 . S
C2218 H2228 0.932 . S
C2219 C2216 1.358 . S
C2219 C2218 1.440 . S
C2219 H2229 0.919 1_565 S
C2220 C2216 1.332 . S
C2220 C2221 1.394 . S
C2220 H2230 0.932 . S
C2221 C2217 1.308 . S
C2221 C2220 1.394 . S
C2221 H2231 0.929 . S
C2222 Tb2193 2.764 . S
C2222 O2206 1.239 . S
C2222 O2207 1.263 . S
C2222 C2216 1.504 1_545 S
C2223 O2208 1.236 . S
C2223 O2209 1.257 . S
H2224 C2197 0.932 . S
H2225 C2198 0.930 . S
H2226 C2199 0.932 . S
H2227 C2200 0.929 . S
H2228 C2218 0.932 . S
H2229 C2219 0.919 1_545 S
H2230 C2220 0.932 . S
H2231 C2221 0.929 . S
Tb2232 C2241 2.764 . S
Tb2232 O2242 2.325 . S
Tb2232 O2245 2.303 . S
Tb2232 O2249 2.322 . S
Tb2232 O2250 2.349 . S
Tb2232 O2253 2.415 . S
Tb2232 O2254 2.399 . S
Tb2233 O2243 2.322 . S
Tb2233 O2244 2.349 . S
Tb2233 O2246 2.415 . S
Tb2233 O2247 2.399 . S
Tb2233 O2248 2.325 . S
Tb2233 O2251 2.303 . S
Tb2233 C2262 2.764 . S
C2234 O2250 1.261 . S
C2234 O2251 1.257 . S
C2235 C2238 1.358 . S
C2235 C2239 1.332 . S
C2235 C2241 1.504 . S
C2236 C2237 1.373 . S
C2236 C2240 1.308 . S
C2237 C2236 1.373 . S
C2237 C2238 1.429 . S
C2237 H2264 0.932 . S
C2238 C2235 1.358 . S
C2238 C2237 1.429 . S
C2238 H2265 0.930 . S
C2239 C2235 1.332 . S
C2239 C2240 1.394 . S
C2239 H2266 0.932 . S
C2240 C2236 1.308 . S
C2240 C2239 1.394 . S
C2240 H2267 0.929 . S
C2241 Tb2232 2.764 . S
C2241 C2235 1.504 . S
C2241 O2253 1.239 . S
C2241 O2254 1.263 . S
O2242 Tb2232 2.325 . S
O2242 C2252 1.236 . S
O2243 Tb2233 2.322 . S
O2243 C2252 1.257 . S
O2244 Tb2233 2.349 . S
O2244 C2255 1.261 . S
O2245 Tb2232 2.303 . S
O2245 C2255 1.257 . S
O2246 Tb2233 2.415 . S
O2246 C2262 1.239 . S
O2247 Tb2233 2.399 . S
O2247 C2262 1.263 . S
O2248 Tb2233 2.325 . S
O2248 C2263 1.236 . S
O2249 Tb2232 2.322 . S
O2249 C2263 1.257 . S
O2250 Tb2232 2.349 . S
O2250 C2234 1.261 . S
O2251 Tb2233 2.303 . S
O2251 C2234 1.257 . S
C2252 O2242 1.236 . S
C2252 O2243 1.257 . S
O2253 Tb2232 2.415 . S
O2253 C2241 1.239 . S
O2254 Tb2232 2.399 . S
O2254 C2241 1.263 . S
C2255 O2244 1.261 . S
C2255 O2245 1.257 . S
C2256 C2259 1.358 . S
C2256 C2260 1.332 . S
C2256 C2262 1.504 . S
C2257 C2258 1.373 . S
C2257 C2261 1.308 . S
C2258 C2257 1.373 . S
C2258 C2259 1.429 . S
C2258 H2268 0.932 . S
C2259 C2256 1.358 . S
C2259 C2258 1.429 . S
C2259 H2269 0.930 . S
C2260 C2256 1.332 . S
C2260 C2261 1.394 . S
C2260 H2270 0.932 . S
C2261 C2257 1.308 . S
C2261 C2260 1.394 . S
C2261 H2271 0.929 . S
C2262 Tb2233 2.764 . S
C2262 O2246 1.239 . S
C2262 O2247 1.263 . S
C2262 C2256 1.504 . S
C2263 O2248 1.236 . S
C2263 O2249 1.257 . S
H2264 C2237 0.932 . S
H2265 C2238 0.930 . S
H2266 C2239 0.932 . S
H2267 C2240 0.929 . S
H2268 C2258 0.932 . S
H2269 C2259 0.930 . S
H2270 C2260 0.932 . S
H2271 C2261 0.929 . S
Tb2272 C2281 2.764 . S
Tb2272 O2282 2.325 . S
Tb2272 O2285 2.303 . S
Tb2272 O2289 2.322 . S
Tb2272 O2290 2.349 . S
Tb2272 O2293 2.415 . S
Tb2272 O2294 2.399 . S
Tb2273 O2283 2.322 1_545 S
Tb2273 O2284 2.349 . S
Tb2273 O2286 2.415 . S
Tb2273 O2287 2.399 . S
Tb2273 O2288 2.325 . S
Tb2273 O2291 2.303 . S
Tb2273 C2302 2.764 . S
C2274 O2290 1.262 1_655 S
C2274 O2291 1.230 1_655 S
C2275 C2278 1.358 . S
C2275 C2279 1.332 . S
C2275 C2281 1.504 . S
C2276 C2277 1.373 . S
C2276 C2280 1.308 . S
C2277 C2276 1.373 . S
C2277 C2278 1.429 . S
C2277 H2304 0.932 . S
C2278 C2275 1.358 . S
C2278 C2277 1.429 . S
C2278 H2305 0.930 . S
C2279 C2275 1.332 . S
C2279 C2280 1.394 . S
C2279 H2306 0.932 . S
C2280 C2276 1.308 . S
C2280 C2279 1.394 . S
C2280 H2307 0.929 . S
C2281 Tb2272 2.764 . S
C2281 C2275 1.504 . S
C2281 O2293 1.239 . S
C2281 O2294 1.263 . S
O2282 Tb2272 2.325 . S
O2282 C2292 1.236 1_545 S
O2283 Tb2273 2.322 1_565 S
O2283 C2292 1.257 . S
O2284 Tb2273 2.349 . S
O2284 C2295 1.261 . S
O2285 Tb2272 2.303 . S
O2285 C2295 1.257 . S
O2286 Tb2273 2.415 . S
O2286 C2302 1.239 . S
O2287 Tb2273 2.399 . S
O2287 C2302 1.263 . S
O2288 Tb2273 2.325 . S
O2288 C2303 1.236 . S
O2289 Tb2272 2.322 . S
O2289 C2303 1.257 . S
O2290 Tb2272 2.349 . S
O2290 C2274 1.262 1_455 S
O2291 Tb2273 2.303 . S
O2291 C2274 1.230 1_455 S
C2292 O2282 1.236 1_565 S
C2292 O2283 1.257 . S
O2293 Tb2272 2.415 . S
O2293 C2281 1.239 . S
O2294 Tb2272 2.399 . S
O2294 C2281 1.263 . S
C2295 O2284 1.261 . S
C2295 O2285 1.257 . S
C2296 C2299 1.358 . S
C2296 C2300 1.281 1_455 S
C2296 C2302 1.504 . S
C2297 C2298 1.373 . S
C2297 C2301 1.308 1_455 S
C2298 C2297 1.373 . S
C2298 C2299 1.429 . S
C2298 H2308 0.932 . S
C2299 C2296 1.358 . S
C2299 C2298 1.429 . S
C2299 H2309 0.930 . S
C2300 C2296 1.281 1_655 S
C2300 C2301 1.410 . S
C2300 H2310 0.970 . S
C2301 C2297 1.308 1_655 S
C2301 C2300 1.410 . S
C2301 H2311 0.929 . S
C2302 Tb2273 2.764 . S
C2302 O2286 1.239 . S
C2302 O2287 1.263 . S
C2302 C2296 1.504 . S
C2303 O2288 1.236 . S
C2303 O2289 1.257 . S
H2304 C2277 0.932 . S
H2305 C2278 0.930 . S
H2306 C2279 0.932 . S
H2307 C2280 0.929 . S
H2308 C2298 0.932 . S
H2309 C2299 0.930 . S
H2310 C2300 0.970 . S
H2311 C2301 0.929 . S
Tb2312 C2321 2.764 . S
Tb2312 O2322 2.325 . S
Tb2312 O2325 2.303 . S
Tb2312 O2329 2.322 . S
Tb2312 O2330 2.349 . S
Tb2312 O2333 2.415 . S
Tb2312 O2334 2.399 . S
Tb2313 O2323 2.322 . S
Tb2313 O2324 2.349 . S
Tb2313 O2326 2.415 . S
Tb2313 O2327 2.399 . S
Tb2313 O2328 2.325 . S
Tb2313 O2331 2.303 . S
Tb2313 C2342 2.764 . S
C2314 O2330 1.261 . S
C2314 O2331 1.257 . S
C2315 C2318 1.358 . S
C2315 C2319 1.332 . S
C2315 C2321 1.504 . S
C2316 C2317 1.373 . S
C2316 C2320 1.308 . S
C2317 C2316 1.373 . S
C2317 C2318 1.429 . S
C2317 H2344 0.932 . S
C2318 C2315 1.358 . S
C2318 C2317 1.429 . S
C2318 H2345 0.930 . S
C2319 C2315 1.332 . S
C2319 C2320 1.394 . S
C2319 H2346 0.932 . S
C2320 C2316 1.308 . S
C2320 C2319 1.394 . S
C2320 H2347 0.929 . S
C2321 Tb2312 2.764 . S
C2321 C2315 1.504 . S
C2321 O2333 1.239 . S
C2321 O2334 1.263 . S
O2322 Tb2312 2.325 . S
O2322 C2332 1.236 . S
O2323 Tb2313 2.322 . S
O2323 C2332 1.257 . S
O2324 Tb2313 2.349 . S
O2324 C2335 1.261 . S
O2325 Tb2312 2.303 . S
O2325 C2335 1.257 . S
O2326 Tb2313 2.415 . S
O2326 C2342 1.239 . S
O2327 Tb2313 2.399 . S
O2327 C2342 1.263 . S
O2328 Tb2313 2.325 . S
O2328 C2343 1.236 . S
O2329 Tb2312 2.322 . S
O2329 C2343 1.257 . S
O2330 Tb2312 2.349 . S
O2330 C2314 1.261 . S
O2331 Tb2313 2.303 . S
O2331 C2314 1.257 . S
C2332 O2322 1.236 . S
C2332 O2323 1.257 . S
O2333 Tb2312 2.415 . S
O2333 C2321 1.239 . S
O2334 Tb2312 2.399 . S
O2334 C2321 1.263 . S
C2335 O2324 1.261 . S
C2335 O2325 1.257 . S
C2336 C2339 1.358 . S
C2336 C2340 1.332 . S
C2336 C2342 1.504 . S
C2337 C2338 1.373 . S
C2337 C2341 1.308 . S
C2338 C2337 1.373 . S
C2338 C2339 1.429 . S
C2338 H2348 0.932 . S
C2339 C2336 1.358 . S
C2339 C2338 1.429 . S
C2339 H2349 0.930 . S
C2340 C2336 1.332 . S
C2340 C2341 1.394 . S
C2340 H2350 0.932 . S
C2341 C2337 1.308 . S
C2341 C2340 1.394 . S
C2341 H2351 0.929 . S
C2342 Tb2313 2.764 . S
C2342 O2326 1.239 . S
C2342 O2327 1.263 . S
C2342 C2336 1.504 . S
C2343 O2328 1.236 . S
C2343 O2329 1.257 . S
H2344 C2317 0.932 . S
H2345 C2318 0.930 . S
H2346 C2319 0.932 . S
H2347 C2320 0.929 . S
H2348 C2338 0.932 . S
H2349 C2339 0.930 . S
H2350 C2340 0.932 . S
H2351 C2341 0.929 . S
Tb2352 C2361 2.764 . S
Tb2352 O2362 2.325 . S
Tb2352 O2365 2.303 . S
Tb2352 O2369 2.322 1_545 S
Tb2352 O2370 2.349 . S
Tb2352 O2373 2.415 . S
Tb2352 O2374 2.399 . S
Tb2353 O2363 2.327 1_556 S
Tb2353 O2364 2.351 . S
Tb2353 O2366 2.410 . S
Tb2353 O2367 2.392 . S
Tb2353 O2368 2.325 . S
Tb2353 O2371 2.308 1_556 S
Tb2353 C2382 2.758 . S
C2354 O2370 1.261 . S
C2354 O2371 1.257 . S
C2355 C2358 1.358 . S
C2355 C2359 1.332 . S
C2355 C2361 1.504 . S
C2356 C2357 1.373 . S
C2356 C2360 1.308 . S
C2357 C2356 1.373 . S
C2357 C2358 1.429 . S
C2357 H2384 0.932 . S
C2358 C2355 1.358 . S
C2358 C2357 1.429 . S
C2358 H2385 0.930 . S
C2359 C2355 1.332 . S
C2359 C2360 1.394 . S
C2359 H2386 0.932 . S
C2360 C2356 1.308 . S
C2360 C2359 1.394 . S
C2360 H2387 0.929 . S
C2361 Tb2352 2.764 . S
C2361 C2355 1.504 . S
C2361 O2373 1.239 . S
C2361 O2374 1.263 . S
O2362 Tb2352 2.325 . S
O2362 C2372 1.236 . S
O2363 Tb2353 2.327 1_554 S
O2363 C2372 1.257 . S
O2364 Tb2353 2.351 . S
O2364 C2375 1.247 1_556 S
O2365 Tb2352 2.303 . S
O2365 C2375 1.257 . S
O2366 Tb2353 2.410 . S
O2366 C2382 1.239 . S
O2367 Tb2353 2.392 . S
O2367 C2382 1.263 . S
O2368 Tb2353 2.325 . S
O2368 C2383 1.236 1_546 S
O2369 Tb2352 2.322 1_565 S
O2369 C2383 1.257 . S
O2370 Tb2352 2.349 . S
O2370 C2354 1.261 . S
O2371 Tb2353 2.308 1_554 S
O2371 C2354 1.257 . S
C2372 O2362 1.236 . S
C2372 O2363 1.257 . S
O2373 Tb2352 2.415 . S
O2373 C2361 1.239 . S
O2374 Tb2352 2.399 . S
O2374 C2361 1.263 . S
C2375 O2364 1.247 1_554 S
C2375 O2365 1.257 . S
C2376 C2379 1.358 . S
C2376 C2380 1.332 . S
C2376 C2382 1.504 . S
C2377 C2378 1.373 . S
C2377 C2381 1.308 . S
C2378 C2377 1.373 . S
C2378 C2379 1.429 . S
C2378 H2388 0.932 . S
C2379 C2376 1.358 . S
C2379 C2378 1.429 . S
C2379 H2389 0.930 . S
C2380 C2376 1.332 . S
C2380 C2381 1.394 . S
C2380 H2390 0.932 . S
C2381 C2377 1.308 . S
C2381 C2380 1.394 . S
C2381 H2391 0.929 . S
C2382 Tb2353 2.758 . S
C2382 O2366 1.239 . S
C2382 O2367 1.263 . S
C2382 C2376 1.504 . S
C2383 O2368 1.236 1_564 S
C2383 O2369 1.257 . S
H2384 C2357 0.932 . S
H2385 C2358 0.930 . S
H2386 C2359 0.932 . S
H2387 C2360 0.929 . S
H2388 C2378 0.932 . S
H2389 C2379 0.930 . S
H2390 C2380 0.932 . S
H2391 C2381 0.929 . S
Tb2392 C2401 2.764 . S
Tb2392 O2402 2.325 . S
Tb2392 O2405 2.303 . S
Tb2392 O2409 2.322 . S
Tb2392 O2410 2.349 . S
Tb2392 O2413 2.415 . S
Tb2392 O2414 2.399 . S
Tb2393 O2403 2.322 . S
Tb2393 O2404 2.349 . S
Tb2393 O2406 2.415 . S
Tb2393 O2407 2.399 . S
Tb2393 O2408 2.325 . S
Tb2393 O2411 2.303 . S
Tb2393 C2422 2.764 . S
C2394 O2410 1.261 . S
C2394 O2411 1.257 . S
C2395 C2398 1.358 . S
C2395 C2399 1.332 . S
C2395 C2401 1.504 . S
C2396 C2397 1.373 . S
C2396 C2400 1.308 . S
C2397 C2396 1.373 . S
C2397 C2398 1.429 . S
C2397 H2424 0.932 . S
C2398 C2395 1.358 . S
C2398 C2397 1.429 . S
C2398 H2425 0.930 . S
C2399 C2395 1.332 . S
C2399 C2400 1.394 . S
C2399 H2426 0.932 . S
C2400 C2396 1.308 . S
C2400 C2399 1.394 . S
C2400 H2427 0.929 . S
C2401 Tb2392 2.764 . S
C2401 C2395 1.504 . S
C2401 O2413 1.239 . S
C2401 O2414 1.263 . S
O2402 Tb2392 2.325 . S
O2402 C2412 1.236 . S
O2403 Tb2393 2.322 . S
O2403 C2412 1.257 . S
O2404 Tb2393 2.349 . S
O2404 C2415 1.261 . S
O2405 Tb2392 2.303 . S
O2405 C2415 1.257 . S
O2406 Tb2393 2.415 . S
O2406 C2422 1.239 . S
O2407 Tb2393 2.399 . S
O2407 C2422 1.263 . S
O2408 Tb2393 2.325 . S
O2408 C2423 1.236 . S
O2409 Tb2392 2.322 . S
O2409 C2423 1.257 . S
O2410 Tb2392 2.349 . S
O2410 C2394 1.261 . S
O2411 Tb2393 2.303 . S
O2411 C2394 1.257 . S
C2412 O2402 1.236 . S
C2412 O2403 1.257 . S
O2413 Tb2392 2.415 . S
O2413 C2401 1.239 . S
O2414 Tb2392 2.399 . S
O2414 C2401 1.263 . S
C2415 O2404 1.261 . S
C2415 O2405 1.257 . S
C2416 C2419 1.358 . S
C2416 C2420 1.332 . S
C2416 C2422 1.504 . S
C2417 C2418 1.373 . S
C2417 C2421 1.308 . S
C2418 C2417 1.373 . S
C2418 C2419 1.429 . S
C2418 H2428 0.932 . S
C2419 C2416 1.358 . S
C2419 C2418 1.429 . S
C2419 H2429 0.930 . S
C2420 C2416 1.332 . S
C2420 C2421 1.394 . S
C2420 H2430 0.932 . S
C2421 C2417 1.308 . S
C2421 C2420 1.394 . S
C2421 H2431 0.929 . S
C2422 Tb2393 2.764 . S
C2422 O2406 1.239 . S
C2422 O2407 1.263 . S
C2422 C2416 1.504 . S
C2423 O2408 1.236 . S
C2423 O2409 1.257 . S
H2424 C2397 0.932 . S
H2425 C2398 0.930 . S
H2426 C2399 0.932 . S
H2427 C2400 0.929 . S
H2428 C2418 0.932 . S
H2429 C2419 0.930 . S
H2430 C2420 0.932 . S
H2431 C2421 0.929 . S
Tb2432 C2441 2.764 . S
Tb2432 O2442 2.325 . S
Tb2432 O2445 2.303 . S
Tb2432 O2449 2.322 . S
Tb2432 O2450 2.349 . S
Tb2432 O2453 2.415 . S
Tb2432 O2454 2.399 . S
Tb2433 O2443 2.284 1_556 S
Tb2433 O2444 2.348 1_556 S
Tb2433 O2446 2.450 . S
Tb2433 O2447 2.448 . S
Tb2433 O2448 2.329 . S
Tb2433 O2451 2.270 1_556 S
Tb2433 C2462 2.811 . S
C2434 O2450 1.261 . S
C2434 O2451 1.257 . S
C2435 C2438 1.358 . S
C2435 C2439 1.332 . S
C2435 C2441 1.504 . S
C2436 C2437 1.373 . S
C2436 C2440 1.308 . S
C2437 C2436 1.373 . S
C2437 C2438 1.429 . S
C2437 H2464 0.932 . S
C2438 C2435 1.358 . S
C2438 C2437 1.429 . S
C2438 H2465 0.930 . S
C2439 C2435 1.332 . S
C2439 C2440 1.394 . S
C2439 H2466 0.932 . S
C2440 C2436 1.308 . S
C2440 C2439 1.394 . S
C2440 H2467 0.929 . S
C2441 Tb2432 2.764 . S
C2441 C2435 1.504 . S
C2441 O2453 1.239 . S
C2441 O2454 1.263 . S
O2442 Tb2432 2.325 . S
O2442 C2452 1.236 . S
O2443 Tb2433 2.284 1_554 S
O2443 C2452 1.257 . S
O2444 Tb2433 2.348 1_554 S
O2444 C2455 1.261 . S
O2445 Tb2432 2.303 . S
O2445 C2455 1.257 . S
O2446 Tb2433 2.450 . S
O2446 C2462 1.239 . S
O2447 Tb2433 2.448 . S
O2447 C2462 1.263 . S
O2448 Tb2433 2.329 . S
O2448 C2463 1.236 1_556 S
O2449 Tb2432 2.322 . S
O2449 C2463 1.257 . S
O2450 Tb2432 2.349 . S
O2450 C2434 1.261 . S
O2451 Tb2433 2.270 1_554 S
O2451 C2434 1.257 . S
C2452 O2442 1.236 . S
C2452 O2443 1.257 . S
O2453 Tb2432 2.415 . S
O2453 C2441 1.239 . S
O2454 Tb2432 2.399 . S
O2454 C2441 1.263 . S
C2455 O2444 1.261 . S
C2455 O2445 1.257 . S
C2456 C2459 1.358 . S
C2456 C2460 1.332 . S
C2456 C2462 1.504 . S
C2457 C2458 1.373 . S
C2457 C2461 1.308 . S
C2458 C2457 1.373 . S
C2458 C2459 1.429 . S
C2458 H2468 0.932 . S
C2459 C2456 1.358 . S
C2459 C2458 1.429 . S
C2459 H2469 0.930 . S
C2460 C2456 1.332 . S
C2460 C2461 1.394 . S
C2460 H2470 0.932 . S
C2461 C2457 1.308 . S
C2461 C2460 1.394 . S
C2461 H2471 0.929 . S
C2462 Tb2433 2.811 . S
C2462 O2446 1.239 . S
C2462 O2447 1.263 . S
C2462 C2456 1.504 . S
C2463 O2448 1.236 1_554 S
C2463 O2449 1.257 . S
H2464 C2437 0.932 . S
H2465 C2438 0.930 . S
H2466 C2439 0.932 . S
H2467 C2440 0.929 . S
H2468 C2458 0.932 . S
H2469 C2459 0.930 . S
H2470 C2460 0.932 . S
H2471 C2461 0.929 . S
Tb2472 C2481 2.764 . S
Tb2472 O2482 2.325 . S
Tb2472 O2485 2.303 . S
Tb2472 O2489 2.322 . S
Tb2472 O2490 2.349 . S
Tb2472 O2493 2.415 . S
Tb2472 O2494 2.399 . S
Tb2473 O2483 2.322 . S
Tb2473 O2484 2.349 . S
Tb2473 O2486 2.415 . S
Tb2473 O2487 2.399 . S
Tb2473 O2488 2.325 . S
Tb2473 O2491 2.303 . S
Tb2473 C2502 2.764 . S
C2474 O2490 1.261 . S
C2474 O2491 1.257 . S
C2475 C2478 1.358 . S
C2475 C2479 1.332 . S
C2475 C2481 1.504 . S
C2476 C2477 1.373 . S
C2476 C2480 1.308 . S
C2477 C2476 1.373 . S
C2477 C2478 1.429 . S
C2477 H2504 0.932 . S
C2478 C2475 1.358 . S
C2478 C2477 1.429 . S
C2478 H2505 0.930 . S
C2479 C2475 1.332 . S
C2479 C2480 1.394 . S
C2479 H2506 0.932 . S
C2480 C2476 1.308 . S
C2480 C2479 1.394 . S
C2480 H2507 0.929 . S
C2481 Tb2472 2.764 . S
C2481 C2475 1.504 . S
C2481 O2493 1.239 . S
C2481 O2494 1.263 . S
O2482 Tb2472 2.325 . S
O2482 C2492 1.236 . S
O2483 Tb2473 2.322 . S
O2483 C2492 1.257 . S
O2484 Tb2473 2.349 . S
O2484 C2495 1.261 . S
O2485 Tb2472 2.303 . S
O2485 C2495 1.257 . S
O2486 Tb2473 2.415 . S
O2486 C2502 1.239 . S
O2487 Tb2473 2.399 . S
O2487 C2502 1.263 . S
O2488 Tb2473 2.325 . S
O2488 C2503 1.236 . S
O2489 Tb2472 2.322 . S
O2489 C2503 1.257 . S
O2490 Tb2472 2.349 . S
O2490 C2474 1.261 . S
O2491 Tb2473 2.303 . S
O2491 C2474 1.257 . S
C2492 O2482 1.236 . S
C2492 O2483 1.257 . S
O2493 Tb2472 2.415 . S
O2493 C2481 1.239 . S
O2494 Tb2472 2.399 . S
O2494 C2481 1.263 . S
C2495 O2484 1.261 . S
C2495 O2485 1.257 . S
C2496 C2499 1.358 . S
C2496 C2500 1.332 . S
C2496 C2502 1.504 . S
C2497 C2498 1.373 . S
C2497 C2501 1.308 . S
C2498 C2497 1.373 . S
C2498 C2499 1.429 . S
C2498 H2508 0.932 . S
C2499 C2496 1.358 . S
C2499 C2498 1.429 . S
C2499 H2509 0.930 . S
C2500 C2496 1.332 . S
C2500 C2501 1.394 . S
C2500 H2510 0.932 . S
C2501 C2497 1.308 . S
C2501 C2500 1.394 . S
C2501 H2511 0.929 . S
C2502 Tb2473 2.764 . S
C2502 O2486 1.239 . S
C2502 O2487 1.263 . S
C2502 C2496 1.504 . S
C2503 O2488 1.236 . S
C2503 O2489 1.257 . S
H2504 C2477 0.932 . S
H2505 C2478 0.930 . S
H2506 C2479 0.932 . S
H2507 C2480 0.929 . S
H2508 C2498 0.932 . S
H2509 C2499 0.930 . S
H2510 C2500 0.932 . S
H2511 C2501 0.929 . S
Tb2512 C2521 2.764 . S
Tb2512 O2522 2.325 . S
Tb2512 O2525 2.303 . S
Tb2512 O2529 2.322 . S
Tb2512 O2530 2.349 . S
Tb2512 O2533 2.415 . S
Tb2512 O2534 2.399 . S
Tb2513 O2523 2.322 . S
Tb2513 O2524 2.349 . S
Tb2513 O2526 2.415 . S
Tb2513 O2527 2.399 . S
Tb2513 O2528 2.325 . S
Tb2513 O2531 2.303 . S
Tb2513 C2542 2.764 . S
C2514 O2530 1.261 . S
C2514 O2531 1.257 . S
C2515 C2518 1.358 . S
C2515 C2519 1.332 . S
C2515 C2521 1.504 . S
C2516 C2517 1.373 . S
C2516 C2520 1.308 1_455 S
C2517 C2516 1.373 . S
C2517 C2518 1.429 . S
C2517 H2544 0.932 . S
C2518 C2515 1.358 . S
C2518 C2517 1.429 . S
C2518 H2545 0.930 . S
C2519 C2515 1.332 . S
C2519 C2520 1.394 1_455 S
C2519 H2546 0.932 1_455 S
C2520 C2516 1.308 1_655 S
C2520 C2519 1.394 1_655 S
C2520 H2547 0.929 . S
C2521 Tb2512 2.764 . S
C2521 C2515 1.504 . S
C2521 O2533 1.239 . S
C2521 O2534 1.263 . S
O2522 Tb2512 2.325 . S
O2522 C2532 1.236 . S
O2523 Tb2513 2.322 . S
O2523 C2532 1.257 . S
O2524 Tb2513 2.349 . S
O2524 C2535 1.257 1_455 S
O2525 Tb2512 2.303 . S
O2525 C2535 1.227 1_455 S
O2526 Tb2513 2.415 . S
O2526 C2542 1.239 . S
O2527 Tb2513 2.399 . S
O2527 C2542 1.263 . S
O2528 Tb2513 2.325 . S
O2528 C2543 1.236 . S
O2529 Tb2512 2.322 . S
O2529 C2543 1.257 . S
O2530 Tb2512 2.349 . S
O2530 C2514 1.261 . S
O2531 Tb2513 2.303 . S
O2531 C2514 1.257 . S
C2532 O2522 1.236 . S
C2532 O2523 1.257 . S
O2533 Tb2512 2.415 . S
O2533 C2521 1.239 . S
O2534 Tb2512 2.399 . S
O2534 C2521 1.263 . S
C2535 O2524 1.257 1_655 S
C2535 O2525 1.227 1_655 S
C2536 C2539 1.358 . S
C2536 C2540 1.332 . S
C2536 C2542 1.504 . S
C2537 C2538 1.373 . S
C2537 C2541 1.308 . S
C2538 C2537 1.373 . S
C2538 C2539 1.429 . S
C2538 H2548 0.932 . S
C2539 C2536 1.358 . S
C2539 C2538 1.429 . S
C2539 H2549 0.930 . S
C2540 C2536 1.332 . S
C2540 C2541 1.394 . S
C2540 H2550 0.932 . S
C2541 C2537 1.308 . S
C2541 C2540 1.394 . S
C2541 H2551 0.929 . S
C2542 Tb2513 2.764 . S
C2542 O2526 1.239 . S
C2542 O2527 1.263 . S
C2542 C2536 1.504 . S
C2543 O2528 1.236 . S
C2543 O2529 1.257 . S
H2544 C2517 0.932 . S
H2545 C2518 0.930 . S
H2546 C2519 0.932 1_655 S
H2547 C2520 0.929 . S
H2548 C2538 0.932 . S
H2549 C2539 0.930 . S
H2550 C2540 0.932 . S
H2551 C2541 0.929 . S
Tb2552 C2561 2.764 . S
Tb2552 O2562 2.325 . S
Tb2552 O2565 2.303 . S
Tb2552 O2569 2.322 . S
Tb2552 O2570 2.349 . S
Tb2552 O2573 2.415 . S
Tb2552 O2574 2.399 . S
Tb2553 O2563 2.322 . S
Tb2553 O2564 2.349 . S
Tb2553 O2566 2.415 . S
Tb2553 O2567 2.399 . S
Tb2553 O2568 2.325 . S
Tb2553 O2571 2.303 . S
Tb2553 C2582 2.764 . S
C2554 O2570 1.261 . S
C2554 O2571 1.257 . S
C2555 C2558 1.358 . S
C2555 C2559 1.332 . S
C2555 C2561 1.504 . S
C2556 C2557 1.373 . S
C2556 C2560 1.308 . S
C2557 C2556 1.373 . S
C2557 C2558 1.429 . S
C2557 H2584 0.932 . S
C2558 C2555 1.358 . S
C2558 C2557 1.429 . S
C2558 H2585 0.930 . S
C2559 C2555 1.332 . S
C2559 C2560 1.394 . S
C2559 H2586 0.932 . S
C2560 C2556 1.308 . S
C2560 C2559 1.394 . S
C2560 H2587 0.929 . S
C2561 Tb2552 2.764 . S
C2561 C2555 1.504 . S
C2561 O2573 1.239 . S
C2561 O2574 1.263 . S
O2562 Tb2552 2.325 . S
O2562 C2572 1.236 . S
O2563 Tb2553 2.322 . S
O2563 C2572 1.257 . S
O2564 Tb2553 2.349 . S
O2564 C2575 1.261 . S
O2565 Tb2552 2.303 . S
O2565 C2575 1.257 . S
O2566 Tb2553 2.415 . S
O2566 C2582 1.239 . S
O2567 Tb2553 2.399 . S
O2567 C2582 1.263 . S
O2568 Tb2553 2.325 . S
O2568 C2583 1.236 . S
O2569 Tb2552 2.322 . S
O2569 C2583 1.257 . S
O2570 Tb2552 2.349 . S
O2570 C2554 1.261 . S
O2571 Tb2553 2.303 . S
O2571 C2554 1.257 . S
C2572 O2562 1.236 . S
C2572 O2563 1.257 . S
O2573 Tb2552 2.415 . S
O2573 C2561 1.239 . S
O2574 Tb2552 2.399 . S
O2574 C2561 1.263 . S
C2575 O2564 1.261 . S
C2575 O2565 1.257 . S
C2576 C2579 1.358 . S
C2576 C2580 1.332 . S
C2576 C2582 1.504 . S
C2577 C2578 1.373 . S
C2577 C2581 1.308 . S
C2578 C2577 1.373 . S
C2578 C2579 1.429 . S
C2578 H2588 0.932 . S
C2579 C2576 1.358 . S
C2579 C2578 1.429 . S
C2579 H2589 0.930 . S
C2580 C2576 1.332 . S
C2580 C2581 1.394 . S
C2580 H2590 0.932 . S
C2581 C2577 1.308 . S
C2581 C2580 1.394 . S
C2581 H2591 0.929 . S
C2582 Tb2553 2.764 . S
C2582 O2566 1.239 . S
C2582 O2567 1.263 . S
C2582 C2576 1.504 . S
C2583 O2568 1.236 . S
C2583 O2569 1.257 . S
H2584 C2557 0.932 . S
H2585 C2558 0.930 . S
H2586 C2559 0.932 . S
H2587 C2560 0.929 . S
H2588 C2578 0.932 . S
H2589 C2579 0.930 . S
H2590 C2580 0.932 . S
H2591 C2581 0.929 . S
Tb2592 C2601 2.764 . S
Tb2592 O2602 2.325 . S
Tb2592 O2605 2.303 . S
Tb2592 O2609 2.322 . S
Tb2592 O2610 2.349 . S
Tb2592 O2613 2.415 . S
Tb2592 O2614 2.399 . S
Tb2593 O2603 2.322 . S
Tb2593 O2604 2.349 . S
Tb2593 O2606 2.415 . S
Tb2593 O2607 2.399 . S
Tb2593 O2608 2.325 . S
Tb2593 O2611 2.303 . S
Tb2593 C2622 2.764 . S
C2594 O2610 1.261 . S
C2594 O2611 1.257 . S
C2595 C2598 1.358 . S
C2595 C2599 1.332 . S
C2595 C2601 1.504 . S
C2596 C2597 1.373 . S
C2596 C2600 1.308 . S
C2597 C2596 1.373 . S
C2597 C2598 1.429 . S
C2597 H2624 0.932 . S
C2598 C2595 1.358 . S
C2598 C2597 1.429 . S
C2598 H2625 0.930 . S
C2599 C2595 1.332 . S
C2599 C2600 1.394 . S
C2599 H2626 0.932 . S
C2600 C2596 1.308 . S
C2600 C2599 1.394 . S
C2600 H2627 0.929 . S
C2601 Tb2592 2.764 . S
C2601 C2595 1.504 . S
C2601 O2613 1.239 . S
C2601 O2614 1.263 . S
O2602 Tb2592 2.325 . S
O2602 C2612 1.236 . S
O2603 Tb2593 2.322 . S
O2603 C2612 1.257 . S
O2604 Tb2593 2.349 . S
O2604 C2615 1.261 . S
O2605 Tb2592 2.303 . S
O2605 C2615 1.257 . S
O2606 Tb2593 2.415 . S
O2606 C2622 1.239 . S
O2607 Tb2593 2.399 . S
O2607 C2622 1.263 . S
O2608 Tb2593 2.325 . S
O2608 C2623 1.236 . S
O2609 Tb2592 2.322 . S
O2609 C2623 1.257 . S
O2610 Tb2592 2.349 . S
O2610 C2594 1.261 . S
O2611 Tb2593 2.303 . S
O2611 C2594 1.257 . S
C2612 O2602 1.236 . S
C2612 O2603 1.257 . S
O2613 Tb2592 2.415 . S
O2613 C2601 1.239 . S
O2614 Tb2592 2.399 . S
O2614 C2601 1.263 . S
C2615 O2604 1.261 . S
C2615 O2605 1.257 . S
C2616 C2619 1.358 . S
C2616 C2620 1.332 . S
C2616 C2622 1.504 . S
C2617 C2618 1.373 . S
C2617 C2621 1.308 . S
C2618 C2617 1.373 . S
C2618 C2619 1.429 . S
C2618 H2628 0.932 . S
C2619 C2616 1.358 . S
C2619 C2618 1.429 . S
C2619 H2629 0.930 . S
C2620 C2616 1.332 . S
C2620 C2621 1.394 . S
C2620 H2630 0.932 . S
C2621 C2617 1.308 . S
C2621 C2620 1.394 . S
C2621 H2631 0.929 . S
C2622 Tb2593 2.764 . S
C2622 O2606 1.239 . S
C2622 O2607 1.263 . S
C2622 C2616 1.504 . S
C2623 O2608 1.236 . S
C2623 O2609 1.257 . S
H2624 C2597 0.932 . S
H2625 C2598 0.930 . S
H2626 C2599 0.932 . S
H2627 C2600 0.929 . S
H2628 C2618 0.932 . S
H2629 C2619 0.930 . S
H2630 C2620 0.932 . S
H2631 C2621 0.929 . S
Tb2632 C2641 2.764 . S
Tb2632 O2642 2.325 . S
Tb2632 O2645 2.303 . S
Tb2632 O2649 2.322 . S
Tb2632 O2650 2.349 . S
Tb2632 O2653 2.415 . S
Tb2632 O2654 2.399 . S
Tb2633 O2643 2.322 . S
Tb2633 O2644 2.349 . S
Tb2633 O2646 2.415 . S
Tb2633 O2647 2.399 . S
Tb2633 O2648 2.325 . S
Tb2633 O2651 2.303 . S
Tb2633 C2662 2.764 . S
C2634 O2650 1.261 . S
C2634 O2651 1.257 . S
C2635 C2638 1.358 . S
C2635 C2639 1.332 . S
C2635 C2641 1.504 . S
C2636 C2637 1.373 . S
C2636 C2640 1.308 . S
C2637 C2636 1.373 . S
C2637 C2638 1.429 . S
C2637 H2664 0.932 . S
C2638 C2635 1.358 . S
C2638 C2637 1.429 . S
C2638 H2665 0.930 . S
C2639 C2635 1.332 . S
C2639 C2640 1.394 . S
C2639 H2666 0.932 . S
C2640 C2636 1.308 . S
C2640 C2639 1.394 . S
C2640 H2667 0.929 . S
C2641 Tb2632 2.764 . S
C2641 C2635 1.504 . S
C2641 O2653 1.239 . S
C2641 O2654 1.263 . S
O2642 Tb2632 2.325 . S
O2642 C2652 1.236 . S
O2643 Tb2633 2.322 . S
O2643 C2652 1.257 . S
O2644 Tb2633 2.349 . S
O2644 C2655 1.261 . S
O2645 Tb2632 2.303 . S
O2645 C2655 1.257 . S
O2646 Tb2633 2.415 . S
O2646 C2662 1.239 . S
O2647 Tb2633 2.399 . S
O2647 C2662 1.263 . S
O2648 Tb2633 2.325 . S
O2648 C2663 1.236 . S
O2649 Tb2632 2.322 . S
O2649 C2663 1.257 . S
O2650 Tb2632 2.349 . S
O2650 C2634 1.261 . S
O2651 Tb2633 2.303 . S
O2651 C2634 1.257 . S
C2652 O2642 1.236 . S
C2652 O2643 1.257 . S
O2653 Tb2632 2.415 . S
O2653 C2641 1.239 . S
O2654 Tb2632 2.399 . S
O2654 C2641 1.263 . S
C2655 O2644 1.261 . S
C2655 O2645 1.257 . S
C2656 C2659 1.358 . S
C2656 C2660 1.332 . S
C2656 C2662 1.504 . S
C2657 C2658 1.373 . S
C2657 C2661 1.308 . S
C2658 C2657 1.373 . S
C2658 C2659 1.429 . S
C2658 H2668 0.932 . S
C2659 C2656 1.358 . S
C2659 C2658 1.429 . S
C2659 H2669 0.930 . S
C2660 C2656 1.332 . S
C2660 C2661 1.394 . S
C2660 H2670 0.932 . S
C2661 C2657 1.308 . S
C2661 C2660 1.394 . S
C2661 H2671 0.929 . S
C2662 Tb2633 2.764 . S
C2662 O2646 1.239 . S
C2662 O2647 1.263 . S
C2662 C2656 1.504 . S
C2663 O2648 1.236 . S
C2663 O2649 1.257 . S
H2664 C2637 0.932 . S
H2665 C2638 0.930 . S
H2666 C2639 0.932 . S
H2667 C2640 0.929 . S
H2668 C2658 0.932 . S
H2669 C2659 0.930 . S
H2670 C2660 0.932 . S
H2671 C2661 0.929 . S
Tb2672 C2681 2.764 . S
Tb2672 O2682 2.325 . S
Tb2672 O2685 2.303 . S
Tb2672 O2689 2.322 . S
Tb2672 O2690 2.349 . S
Tb2672 O2693 2.415 . S
Tb2672 O2694 2.399 . S
Tb2673 O2683 2.322 . S
Tb2673 O2684 2.349 . S
Tb2673 O2686 2.415 . S
Tb2673 O2687 2.399 . S
Tb2673 O2688 2.325 . S
Tb2673 O2691 2.303 . S
Tb2673 C2702 2.764 . S
C2674 O2690 1.261 . S
C2674 O2691 1.257 . S
C2675 C2678 1.358 . S
C2675 C2679 1.332 . S
C2675 C2681 1.504 . S
C2676 C2677 1.373 . S
C2676 C2680 1.308 . S
C2677 C2676 1.373 . S
C2677 C2678 1.429 . S
C2677 H2704 0.932 . S
C2678 C2675 1.358 . S
C2678 C2677 1.429 . S
C2678 H2705 0.930 . S
C2679 C2675 1.332 . S
C2679 C2680 1.394 . S
C2679 H2706 0.932 . S
C2680 C2676 1.308 . S
C2680 C2679 1.394 . S
C2680 H2707 0.929 . S
C2681 Tb2672 2.764 . S
C2681 C2675 1.504 . S
C2681 O2693 1.239 . S
C2681 O2694 1.263 . S
O2682 Tb2672 2.325 . S
O2682 C2692 1.236 . S
O2683 Tb2673 2.322 . S
O2683 C2692 1.257 . S
O2684 Tb2673 2.349 . S
O2684 C2695 1.261 . S
O2685 Tb2672 2.303 . S
O2685 C2695 1.257 . S
O2686 Tb2673 2.415 . S
O2686 C2702 1.239 . S
O2687 Tb2673 2.399 . S
O2687 C2702 1.263 . S
O2688 Tb2673 2.325 . S
O2688 C2703 1.236 . S
O2689 Tb2672 2.322 . S
O2689 C2703 1.257 . S
O2690 Tb2672 2.349 . S
O2690 C2674 1.261 . S
O2691 Tb2673 2.303 . S
O2691 C2674 1.257 . S
C2692 O2682 1.236 . S
C2692 O2683 1.257 . S
O2693 Tb2672 2.415 . S
O2693 C2681 1.239 . S
O2694 Tb2672 2.399 . S
O2694 C2681 1.263 . S
C2695 O2684 1.261 . S
C2695 O2685 1.257 . S
C2696 C2699 1.358 . S
C2696 C2700 1.332 . S
C2696 C2702 1.504 . S
C2697 C2698 1.373 . S
C2697 C2701 1.308 . S
C2698 C2697 1.373 . S
C2698 C2699 1.429 . S
C2698 H2708 0.932 . S
C2699 C2696 1.358 . S
C2699 C2698 1.429 . S
C2699 H2709 0.930 . S
C2700 C2696 1.332 . S
C2700 C2701 1.394 . S
C2700 H2710 0.932 . S
C2701 C2697 1.308 . S
C2701 C2700 1.394 . S
C2701 H2711 0.929 . S
C2702 Tb2673 2.764 . S
C2702 O2686 1.239 . S
C2702 O2687 1.263 . S
C2702 C2696 1.504 . S
C2703 O2688 1.236 . S
C2703 O2689 1.257 . S
H2704 C2677 0.932 . S
H2705 C2678 0.930 . S
H2706 C2679 0.932 . S
H2707 C2680 0.929 . S
H2708 C2698 0.932 . S
H2709 C2699 0.930 . S
H2710 C2700 0.932 . S
H2711 C2701 0.929 . S
Tb2712 C2721 2.764 1_455 S
Tb2712 O2722 2.325 . S
Tb2712 O2725 2.303 . S
Tb2712 O2729 2.322 . S
Tb2712 O2730 2.349 . S
Tb2712 O2733 2.415 1_455 S
Tb2712 O2734 2.399 1_455 S
Tb2713 O2723 2.322 . S
Tb2713 O2724 2.349 1_554 S
Tb2713 O2726 2.415 . S
Tb2713 O2727 2.399 1_554 S
Tb2713 O2728 2.325 . S
Tb2713 O2731 2.303 . S
Tb2713 C2742 2.764 . S
C2714 O2730 1.261 . S
C2714 O2731 1.257 . S
C2715 C2718 1.358 . S
C2715 C2719 1.332 . S
C2715 C2721 1.504 . S
C2716 C2717 1.373 . S
C2716 C2720 1.308 . S
C2717 C2716 1.373 . S
C2717 C2718 1.429 . S
C2717 H2744 0.932 . S
C2718 C2715 1.358 . S
C2718 C2717 1.429 . S
C2718 H2745 0.930 . S
C2719 C2715 1.332 . S
C2719 C2720 1.394 . S
C2719 H2746 0.932 . S
C2720 C2716 1.308 . S
C2720 C2719 1.394 . S
C2720 H2747 0.929 . S
C2721 Tb2712 2.764 1_655 S
C2721 C2715 1.504 . S
C2721 O2733 1.239 . S
C2721 O2734 1.263 . S
O2722 Tb2712 2.325 . S
O2722 C2732 1.236 . S
O2723 Tb2713 2.322 . S
O2723 C2732 1.257 . S
O2724 Tb2713 2.349 1_556 S
O2724 C2735 1.261 . S
O2725 Tb2712 2.303 . S
O2725 C2735 1.257 1_554 S
O2726 Tb2713 2.415 . S
O2726 C2742 1.239 . S
O2727 Tb2713 2.399 1_556 S
O2727 C2742 1.263 1_556 S
O2728 Tb2713 2.325 . S
O2728 C2743 1.236 . S
O2729 Tb2712 2.322 . S
O2729 C2743 1.257 . S
O2730 Tb2712 2.349 . S
O2730 C2714 1.261 . S
O2731 Tb2713 2.303 . S
O2731 C2714 1.257 . S
C2732 O2722 1.236 . S
C2732 O2723 1.257 . S
O2733 Tb2712 2.415 1_655 S
O2733 C2721 1.239 . S
O2734 Tb2712 2.399 1_655 S
O2734 C2721 1.263 . S
C2735 O2724 1.261 . S
C2735 O2725 1.257 1_556 S
C2736 C2739 1.358 1_554 S
C2736 C2740 1.332 . S
C2736 C2742 1.504 . S
C2737 C2738 1.373 1_554 S
C2737 C2741 1.308 . S
C2738 C2737 1.373 1_556 S
C2738 C2739 1.429 . S
C2738 H2748 0.932 . S
C2739 C2736 1.358 1_556 S
C2739 C2738 1.429 . S
C2739 H2749 0.930 . S
C2740 C2736 1.332 . S
C2740 C2741 1.394 . S
C2740 H2750 0.932 . S
C2741 C2737 1.308 . S
C2741 C2740 1.394 . S
C2741 H2751 0.929 . S
C2742 Tb2713 2.764 . S
C2742 O2726 1.239 . S
C2742 O2727 1.263 1_554 S
C2742 C2736 1.504 . S
C2743 O2728 1.236 . S
C2743 O2729 1.257 . S
H2744 C2717 0.932 . S
H2745 C2718 0.930 . S
H2746 C2719 0.932 . S
H2747 C2720 0.929 . S
H2748 C2738 0.932 . S
H2749 C2739 0.930 . S
H2750 C2740 0.932 . S
H2751 C2741 0.929 . S
H2752 C2764 0.903 1_554 S
H2753 C2766 0.930 . S
H2754 C2767 0.930 . S
H2755 C2771 0.959 . S
H2756 C2771 0.959 . S
H2757 C2771 0.961 . S
H2758 C2772 0.970 . S
H2759 C2772 0.953 1_455 S
H2760 C2772 0.971 . S
H2761 C2775 0.929 . S
H2762 C2776 0.931 . S
H2763 C2778 0.930 . S
C2764 H2752 0.903 1_556 S
C2764 C2765 1.434 1_455 S
C2764 C2769 1.392 1_556 S
C2765 C2764 1.434 1_655 S
C2765 C2766 1.376 . S
C2766 H2753 0.930 . S
C2766 C2765 1.376 . S
C2766 C2767 1.388 . S
C2767 H2754 0.930 . S
C2767 C2766 1.388 . S
C2767 C2768 1.390 1_655 S
C2768 C2767 1.390 1_455 S
C2768 C2769 1.394 1_556 S
C2768 C2774 1.465 . S
C2769 C2764 1.392 1_554 S
C2769 C2768 1.394 1_554 S
C2769 C2770 1.516 . S
C2770 C2769 1.516 . S
C2770 C2771 1.502 . S
C2770 C2772 1.548 1_455 S
C2770 C2773 1.526 . S
C2771 H2755 0.959 . S
C2771 H2756 0.959 . S
C2771 H2757 0.961 . S
C2771 C2770 1.502 . S
C2772 H2758 0.970 . S
C2772 H2759 0.953 1_655 S
C2772 H2760 0.971 . S
C2772 C2770 1.548 1_655 S
C2773 C2770 1.526 . S
C2773 C2774 1.396 1_554 S
C2773 C2778 1.390 . S
C2774 C2768 1.465 . S
C2774 C2773 1.396 1_556 S
C2774 C2775 1.399 . S
C2775 H2761 0.929 . S
C2775 C2774 1.399 . S
C2775 C2776 1.385 . S
C2776 H2762 0.931 . S
C2776 C2775 1.385 . S
C2776 C2777 1.389 1_556 S
C2777 C2776 1.389 1_554 S
C2777 C2778 1.387 . S
C2778 H2763 0.930 . S
C2778 C2773 1.390 . S
C2778 C2777 1.387 . S
H2779 C2791 0.930 . S
H2780 C2793 0.930 . S
H2781 C2794 0.930 . S
H2782 C2798 0.959 . S
H2783 C2798 0.959 . S
H2784 C2798 0.961 . S
H2785 C2799 0.960 . S
H2786 C2799 0.961 . S
H2787 C2799 0.959 . S
H2788 C2802 0.929 . S
H2789 C2803 0.931 . S
H2790 C2805 0.930 . S
C2791 H2779 0.930 . S
C2791 C2792 1.399 . S
C2791 C2796 1.399 . S
C2792 C2791 1.399 . S
C2792 C2793 1.376 . S
C2793 H2780 0.930 . S
C2793 C2792 1.376 . S
C2793 C2794 1.388 . S
C2794 H2781 0.930 . S
C2794 C2793 1.388 . S
C2794 C2795 1.390 . S
C2795 C2794 1.390 . S
C2795 C2796 1.394 . S
C2795 C2801 1.465 . S
C2796 C2791 1.399 . S
C2796 C2795 1.394 . S
C2796 C2797 1.516 . S
C2797 C2796 1.516 . S
C2797 C2798 1.502 . S
C2797 C2799 1.561 . S
C2797 C2800 1.526 . S
C2798 H2782 0.959 . S
C2798 H2783 0.959 . S
C2798 H2784 0.961 . S
C2798 C2797 1.502 . S
C2799 H2785 0.960 . S
C2799 H2786 0.961 . S
C2799 H2787 0.959 . S
C2799 C2797 1.561 . S
C2800 C2797 1.526 . S
C2800 C2801 1.396 . S
C2800 C2805 1.390 . S
C2801 C2795 1.465 . S
C2801 C2800 1.396 . S
C2801 C2802 1.399 . S
C2802 H2788 0.929 . S
C2802 C2801 1.399 . S
C2802 C2803 1.385 . S
C2803 H2789 0.931 . S
C2803 C2802 1.385 . S
C2803 C2804 1.389 . S
C2804 C2803 1.389 . S
C2804 C2805 1.387 . S
C2805 H2790 0.930 . S
C2805 C2800 1.390 . S
C2805 C2804 1.387 . S
H2806 C2818 0.930 . S
H2807 C2820 0.930 . S
H2808 C2821 0.930 . S
H2809 C2825 0.959 . S
H2810 C2825 0.959 . S
H2811 C2825 0.961 . S
H2812 C2826 0.960 . S
H2813 C2826 0.961 . S
H2814 C2826 0.959 . S
H2815 C2829 0.929 . S
H2816 C2830 0.931 . S
H2817 C2832 0.930 . S
C2818 H2806 0.930 . S
C2818 C2819 1.399 . S
C2818 C2823 1.399 . S
C2819 C2818 1.399 . S
C2819 C2820 1.376 . S
C2820 H2807 0.930 . S
C2820 C2819 1.376 . S
C2820 C2821 1.388 . S
C2821 H2808 0.930 . S
C2821 C2820 1.388 . S
C2821 C2822 1.390 . S
C2822 C2821 1.390 . S
C2822 C2823 1.394 . S
C2822 C2828 1.465 . S
C2823 C2818 1.399 . S
C2823 C2822 1.394 . S
C2823 C2824 1.516 . S
C2824 C2823 1.516 . S
C2824 C2825 1.502 . S
C2824 C2826 1.561 . S
C2824 C2827 1.526 . S
C2825 H2809 0.959 . S
C2825 H2810 0.959 . S
C2825 H2811 0.961 . S
C2825 C2824 1.502 . S
C2826 H2812 0.960 . S
C2826 H2813 0.961 . S
C2826 H2814 0.959 . S
C2826 C2824 1.561 . S
C2827 C2824 1.526 . S
C2827 C2828 1.396 . S
C2827 C2832 1.390 . S
C2828 C2822 1.465 . S
C2828 C2827 1.396 . S
C2828 C2829 1.399 . S
C2829 H2815 0.929 . S
C2829 C2828 1.399 . S
C2829 C2830 1.385 . S
C2830 H2816 0.931 . S
C2830 C2829 1.385 . S
C2830 C2831 1.389 . S
C2831 C2830 1.389 . S
C2831 C2832 1.387 . S
C2832 H2817 0.930 . S
C2832 C2827 1.390 . S
C2832 C2831 1.387 . S
H2833 C2845 0.930 . S
H2834 C2847 0.930 . S
H2835 C2848 0.930 . S
H2836 C2852 0.959 . S
H2837 C2852 0.959 . S
H2838 C2852 0.961 . S
H2839 C2853 0.960 . S
H2840 C2853 0.961 . S
H2841 C2853 0.959 . S
H2842 C2856 0.929 . S
H2843 C2857 0.931 . S
H2844 C2859 0.930 . S
C2845 H2833 0.930 . S
C2845 C2846 1.399 . S
C2845 C2850 1.399 . S
C2846 C2845 1.399 . S
C2846 C2847 1.376 . S
C2847 H2834 0.930 . S
C2847 C2846 1.376 . S
C2847 C2848 1.388 . S
C2848 H2835 0.930 . S
C2848 C2847 1.388 . S
C2848 C2849 1.390 . S
C2849 C2848 1.390 . S
C2849 C2850 1.394 . S
C2849 C2855 1.465 . S
C2850 C2845 1.399 . S
C2850 C2849 1.394 . S
C2850 C2851 1.516 . S
C2851 C2850 1.516 . S
C2851 C2852 1.502 . S
C2851 C2853 1.561 . S
C2851 C2854 1.526 . S
C2852 H2836 0.959 . S
C2852 H2837 0.959 . S
C2852 H2838 0.961 . S
C2852 C2851 1.502 . S
C2853 H2839 0.960 . S
C2853 H2840 0.961 . S
C2853 H2841 0.959 . S
C2853 C2851 1.561 . S
C2854 C2851 1.526 . S
C2854 C2855 1.396 . S
C2854 C2859 1.390 . S
C2855 C2849 1.465 . S
C2855 C2854 1.396 . S
C2855 C2856 1.399 . S
C2856 H2842 0.929 . S
C2856 C2855 1.399 . S
C2856 C2857 1.385 . S
C2857 H2843 0.931 . S
C2857 C2856 1.385 . S
C2857 C2858 1.389 . S
C2858 C2857 1.389 . S
C2858 C2859 1.387 . S
C2859 H2844 0.930 . S
C2859 C2854 1.390 . S
C2859 C2858 1.387 . S
H2860 C2872 0.930 . S
H2861 C2874 0.930 . S
H2862 C2875 0.930 . S
H2863 C2879 0.959 . S
H2864 C2879 0.959 . S
H2865 C2879 0.961 . S
H2866 C2880 0.960 . S
H2867 C2880 0.961 . S
H2868 C2880 0.959 . S
H2869 C2883 0.929 . S
H2870 C2884 0.931 . S
H2871 C2886 0.930 . S
C2872 H2860 0.930 . S
C2872 C2873 1.399 . S
C2872 C2877 1.399 . S
C2873 C2872 1.399 . S
C2873 C2874 1.376 . S
C2874 H2861 0.930 . S
C2874 C2873 1.376 . S
C2874 C2875 1.388 . S
C2875 H2862 0.930 . S
C2875 C2874 1.388 . S
C2875 C2876 1.390 . S
C2876 C2875 1.390 . S
C2876 C2877 1.394 . S
C2876 C2882 1.465 . S
C2877 C2872 1.399 . S
C2877 C2876 1.394 . S
C2877 C2878 1.516 . S
C2878 C2877 1.516 . S
C2878 C2879 1.502 . S
C2878 C2880 1.561 . S
C2878 C2881 1.526 . S
C2879 H2863 0.959 . S
C2879 H2864 0.959 . S
C2879 H2865 0.961 . S
C2879 C2878 1.502 . S
C2880 H2866 0.960 . S
C2880 H2867 0.961 . S
C2880 H2868 0.959 . S
C2880 C2878 1.561 . S
C2881 C2878 1.526 . S
C2881 C2882 1.396 . S
C2881 C2886 1.390 . S
C2882 C2876 1.465 . S
C2882 C2881 1.396 . S
C2882 C2883 1.399 . S
C2883 H2869 0.929 . S
C2883 C2882 1.399 . S
C2883 C2884 1.385 . S
C2884 H2870 0.931 . S
C2884 C2883 1.385 . S
C2884 C2885 1.389 . S
C2885 C2884 1.389 . S
C2885 C2886 1.387 . S
C2886 H2871 0.930 . S
C2886 C2881 1.390 . S
C2886 C2885 1.387 . S
H2887 C2899 0.930 . S
H2888 C2901 0.930 . S
H2889 C2902 0.930 . S
H2890 C2906 0.959 . S
H2891 C2906 0.959 . S
H2892 C2906 0.961 . S
H2893 C2907 0.960 . S
H2894 C2907 0.961 . S
H2895 C2907 0.959 . S
H2896 C2910 0.929 . S
H2897 C2911 0.931 . S
H2898 C2913 0.930 . S
C2899 H2887 0.930 . S
C2899 C2900 1.399 . S
C2899 C2904 1.399 . S
C2900 C2899 1.399 . S
C2900 C2901 1.376 . S
C2901 H2888 0.930 . S
C2901 C2900 1.376 . S
C2901 C2902 1.388 . S
C2902 H2889 0.930 . S
C2902 C2901 1.388 . S
C2902 C2903 1.390 . S
C2903 C2902 1.390 . S
C2903 C2904 1.394 . S
C2903 C2909 1.465 . S
C2904 C2899 1.399 . S
C2904 C2903 1.394 . S
C2904 C2905 1.516 . S
C2905 C2904 1.516 . S
C2905 C2906 1.502 . S
C2905 C2907 1.561 . S
C2905 C2908 1.526 . S
C2906 H2890 0.959 . S
C2906 H2891 0.959 . S
C2906 H2892 0.961 . S
C2906 C2905 1.502 . S
C2907 H2893 0.960 . S
C2907 H2894 0.961 . S
C2907 H2895 0.959 . S
C2907 C2905 1.561 . S
C2908 C2905 1.526 . S
C2908 C2909 1.396 . S
C2908 C2913 1.390 . S
C2909 C2903 1.465 . S
C2909 C2908 1.396 . S
C2909 C2910 1.399 . S
C2910 H2896 0.929 . S
C2910 C2909 1.399 . S
C2910 C2911 1.385 . S
C2911 H2897 0.931 . S
C2911 C2910 1.385 . S
C2911 C2912 1.389 . S
C2912 C2911 1.389 . S
C2912 C2913 1.387 . S
C2913 H2898 0.930 . S
C2913 C2908 1.390 . S
C2913 C2912 1.387 . S
H2914 C2926 0.930 . S
H2915 C2928 0.930 . S
H2916 C2929 0.930 . S
H2917 C2933 0.959 . S
H2918 C2933 0.959 . S
H2919 C2933 0.961 . S
H2920 C2934 0.960 . S
H2921 C2934 0.961 . S
H2922 C2934 0.959 . S
H2923 C2937 0.929 . S
H2924 C2938 0.931 . S
H2925 C2940 0.930 . S
C2926 H2914 0.930 . S
C2926 C2927 1.399 . S
C2926 C2931 1.399 . S
C2927 C2926 1.399 . S
C2927 C2928 1.376 . S
C2928 H2915 0.930 . S
C2928 C2927 1.376 . S
C2928 C2929 1.388 . S
C2929 H2916 0.930 . S
C2929 C2928 1.388 . S
C2929 C2930 1.390 . S
C2930 C2929 1.390 . S
C2930 C2931 1.394 . S
C2930 C2936 1.465 . S
C2931 C2926 1.399 . S
C2931 C2930 1.394 . S
C2931 C2932 1.516 . S
C2932 C2931 1.516 . S
C2932 C2933 1.502 . S
C2932 C2934 1.561 . S
C2932 C2935 1.526 . S
C2933 H2917 0.959 . S
C2933 H2918 0.959 . S
C2933 H2919 0.961 . S
C2933 C2932 1.502 . S
C2934 H2920 0.960 . S
C2934 H2921 0.961 . S
C2934 H2922 0.959 . S
C2934 C2932 1.561 . S
C2935 C2932 1.526 . S
C2935 C2936 1.396 . S
C2935 C2940 1.390 . S
C2936 C2930 1.465 . S
C2936 C2935 1.396 . S
C2936 C2937 1.399 . S
C2937 H2923 0.929 . S
C2937 C2936 1.399 . S
C2937 C2938 1.385 . S
C2938 H2924 0.931 . S
C2938 C2937 1.385 . S
C2938 C2939 1.389 . S
C2939 C2938 1.389 . S
C2939 C2940 1.387 . S
C2940 H2925 0.930 . S
C2940 C2935 1.390 . S
C2940 C2939 1.387 . S
H2941 C2953 0.930 . S
H2942 C2955 0.930 . S
H2943 C2956 0.930 . S
H2944 C2960 0.959 . S
H2945 C2960 0.959 . S
H2946 C2960 0.961 . S
H2947 C2961 0.960 . S
H2948 C2961 0.961 . S
H2949 C2961 0.959 . S
H2950 C2964 0.929 . S
H2951 C2965 0.931 . S
H2952 C2967 0.930 . S
C2953 H2941 0.930 . S
C2953 C2954 1.399 . S
C2953 C2958 1.399 . S
C2954 C2953 1.399 . S
C2954 C2955 1.376 . S
C2955 H2942 0.930 . S
C2955 C2954 1.376 . S
C2955 C2956 1.388 . S
C2956 H2943 0.930 . S
C2956 C2955 1.388 . S
C2956 C2957 1.390 . S
C2957 C2956 1.390 . S
C2957 C2958 1.394 . S
C2957 C2963 1.465 . S
C2958 C2953 1.399 . S
C2958 C2957 1.394 . S
C2958 C2959 1.516 . S
C2959 C2958 1.516 . S
C2959 C2960 1.502 . S
C2959 C2961 1.561 . S
C2959 C2962 1.526 . S
C2960 H2944 0.959 . S
C2960 H2945 0.959 . S
C2960 H2946 0.961 . S
C2960 C2959 1.502 . S
C2961 H2947 0.960 . S
C2961 H2948 0.961 . S
C2961 H2949 0.959 . S
C2961 C2959 1.561 . S
C2962 C2959 1.526 . S
C2962 C2963 1.396 . S
C2962 C2967 1.390 . S
C2963 C2957 1.465 . S
C2963 C2962 1.396 . S
C2963 C2964 1.399 . S
C2964 H2950 0.929 . S
C2964 C2963 1.399 . S
C2964 C2965 1.385 . S
C2965 H2951 0.931 . S
C2965 C2964 1.385 . S
C2965 C2966 1.389 . S
C2966 C2965 1.389 . S
C2966 C2967 1.387 . S
C2967 H2952 0.930 . S
C2967 C2962 1.390 . S
C2967 C2966 1.387 . S
H2968 C2980 0.930 . S
H2969 C2982 0.977 . S
H2970 C2983 0.930 . S
H2971 C2987 0.959 . S
H2972 C2987 0.959 1_455 S
H2973 C2987 0.961 . S
H2974 C2988 0.960 . S
H2975 C2988 0.961 . S
H2976 C2988 0.959 . S
H2977 C2991 0.929 1_665 S
H2978 C2992 0.972 . S
H2979 C2994 0.930 . S
C2980 H2968 0.930 . S
C2980 C2981 1.399 . S
C2980 C2985 1.399 . S
C2981 C2980 1.399 . S
C2981 C2982 1.321 1_545 S
C2982 H2969 0.977 . S
C2982 C2981 1.321 1_565 S
C2982 C2983 1.401 . S
C2983 H2970 0.930 . S
C2983 C2982 1.401 . S
C2983 C2984 1.390 1_565 S
C2984 C2983 1.390 1_545 S
C2984 C2985 1.394 . S
C2984 C2990 1.465 1_655 S
C2985 C2980 1.399 . S
C2985 C2984 1.394 . S
C2985 C2986 1.516 1_655 S
C2986 C2985 1.516 1_455 S
C2986 C2987 1.502 1_455 S
C2986 C2988 1.561 . S
C2986 C2989 1.526 . S
C2987 H2971 0.959 . S
C2987 H2972 0.959 1_655 S
C2987 H2973 0.961 . S
C2987 C2986 1.502 1_655 S
C2988 H2974 0.960 . S
C2988 H2975 0.961 . S
C2988 H2976 0.959 . S
C2988 C2986 1.561 . S
C2989 C2986 1.526 . S
C2989 C2990 1.396 . S
C2989 C2994 1.390 . S
C2990 C2984 1.465 1_455 S
C2990 C2989 1.396 . S
C2990 C2991 1.399 . S
C2991 H2977 0.929 1_445 S
C2991 C2990 1.399 . S
C2991 C2992 1.385 . S
C2992 H2978 0.972 . S
C2992 C2991 1.385 . S
C2992 C2993 1.389 . S
C2993 C2992 1.389 . S
C2993 C2994 1.387 . S
C2994 H2979 0.930 . S
C2994 C2989 1.390 . S
C2994 C2993 1.387 . S
H2995 C3007 0.930 . S
H2996 C3009 0.930 . S
H2997 C3010 0.930 . S
H2998 C3014 0.959 . S
H2999 C3014 0.959 . S
H3000 C3014 0.961 . S
H3001 C3015 0.960 . S
H3002 C3015 0.961 . S
H3003 C3015 0.959 . S
H3004 C3018 0.929 . S
H3005 C3019 0.931 . S
H3006 C3021 0.930 . S
C3007 H2995 0.930 . S
C3007 C3008 1.399 . S
C3007 C3012 1.399 . S
C3008 C3007 1.399 . S
C3008 C3009 1.376 . S
C3009 H2996 0.930 . S
C3009 C3008 1.376 . S
C3009 C3010 1.388 . S
C3010 H2997 0.930 . S
C3010 C3009 1.388 . S
C3010 C3011 1.390 . S
C3011 C3010 1.390 . S
C3011 C3012 1.394 . S
C3011 C3017 1.465 . S
C3012 C3007 1.399 . S
C3012 C3011 1.394 . S
C3012 C3013 1.516 . S
C3013 C3012 1.516 . S
C3013 C3014 1.502 . S
C3013 C3015 1.561 . S
C3013 C3016 1.526 . S
C3014 H2998 0.959 . S
C3014 H2999 0.959 . S
C3014 H3000 0.961 . S
C3014 C3013 1.502 . S
C3015 H3001 0.960 . S
C3015 H3002 0.961 . S
C3015 H3003 0.959 . S
C3015 C3013 1.561 . S
C3016 C3013 1.526 . S
C3016 C3017 1.396 . S
C3016 C3021 1.390 . S
C3017 C3011 1.465 . S
C3017 C3016 1.396 . S
C3017 C3018 1.399 . S
C3018 H3004 0.929 . S
C3018 C3017 1.399 . S
C3018 C3019 1.385 . S
C3019 H3005 0.931 . S
C3019 C3018 1.385 . S
C3019 C3020 1.389 . S
C3020 C3019 1.389 . S
C3020 C3021 1.387 . S
C3021 H3006 0.930 . S
C3021 C3016 1.390 . S
C3021 C3020 1.387 . S
H3022 C3034 0.930 . S
H3023 C3036 0.930 . S
H3024 C3037 0.930 . S
H3025 C3041 0.959 . S
H3026 C3041 0.959 . S
H3027 C3041 0.961 . S
H3028 C3042 0.960 . S
H3029 C3042 0.961 . S
H3030 C3042 0.959 . S
H3031 C3045 0.929 . S
H3032 C3046 0.931 . S
H3033 C3048 0.930 1_565 S
C3034 H3022 0.930 . S
C3034 C3035 1.399 1_565 S
C3034 C3039 1.399 1_565 S
C3035 C3034 1.399 1_545 S
C3035 C3036 1.376 . S
C3036 H3023 0.930 . S
C3036 C3035 1.376 . S
C3036 C3037 1.388 . S
C3037 H3024 0.930 . S
C3037 C3036 1.388 . S
C3037 C3038 1.390 . S
C3038 C3037 1.390 . S
C3038 C3039 1.394 . S
C3038 C3044 1.465 . S
C3039 C3034 1.399 1_545 S
C3039 C3038 1.394 . S
C3039 C3040 1.516 1_545 S
C3040 C3039 1.516 1_565 S
C3040 C3041 1.502 . S
C3040 C3042 1.561 . S
C3040 C3043 1.526 1_565 S
C3041 H3025 0.959 . S
C3041 H3026 0.959 . S
C3041 H3027 0.961 . S
C3041 C3040 1.502 . S
C3042 H3028 0.960 . S
C3042 H3029 0.961 . S
C3042 H3030 0.959 . S
C3042 C3040 1.561 . S
C3043 C3040 1.526 1_545 S
C3043 C3044 1.396 . S
C3043 C3048 1.390 . S
C3044 C3038 1.465 . S
C3044 C3043 1.396 . S
C3044 C3045 1.399 . S
C3045 H3031 0.929 . S
C3045 C3044 1.399 . S
C3045 C3046 1.385 . S
C3046 H3032 0.931 . S
C3046 C3045 1.385 . S
C3046 C3047 1.389 . S
C3047 C3046 1.389 . S
C3047 C3048 1.387 . S
C3048 H3033 0.930 1_545 S
C3048 C3043 1.390 . S
C3048 C3047 1.387 . S
H3049 C3061 0.930 . S
H3050 C3063 0.930 . S
H3051 C3064 0.930 . S
H3052 C3068 0.959 . S
H3053 C3068 0.959 . S
H3054 C3068 0.961 . S
H3055 C3069 0.960 . S
H3056 C3069 0.961 . S
H3057 C3069 0.959 . S
H3058 C3072 0.929 . S
H3059 C3073 0.931 . S
H3060 C3075 0.930 . S
C3061 H3049 0.930 . S
C3061 C3062 1.399 . S
C3061 C3066 1.399 . S
C3062 C3061 1.399 . S
C3062 C3063 1.376 . S
C3063 H3050 0.930 . S
C3063 C3062 1.376 . S
C3063 C3064 1.388 . S
C3064 H3051 0.930 . S
C3064 C3063 1.388 . S
C3064 C3065 1.390 . S
C3065 C3064 1.390 . S
C3065 C3066 1.394 . S
C3065 C3071 1.465 . S
C3066 C3061 1.399 . S
C3066 C3065 1.394 . S
C3066 C3067 1.516 . S
C3067 C3066 1.516 . S
C3067 C3068 1.502 . S
C3067 C3069 1.561 . S
C3067 C3070 1.526 . S
C3068 H3052 0.959 . S
C3068 H3053 0.959 . S
C3068 H3054 0.961 . S
C3068 C3067 1.502 . S
C3069 H3055 0.960 . S
C3069 H3056 0.961 . S
C3069 H3057 0.959 . S
C3069 C3067 1.561 . S
C3070 C3067 1.526 . S
C3070 C3071 1.396 . S
C3070 C3075 1.390 . S
C3071 C3065 1.465 . S
C3071 C3070 1.396 . S
C3071 C3072 1.399 . S
C3072 H3058 0.929 . S
C3072 C3071 1.399 . S
C3072 C3073 1.385 . S
C3073 H3059 0.931 . S
C3073 C3072 1.385 . S
C3073 C3074 1.389 . S
C3074 C3073 1.389 . S
C3074 C3075 1.387 . S
C3075 H3060 0.930 . S
C3075 C3070 1.390 . S
C3075 C3074 1.387 . S
H3076 C3088 0.930 . S
H3077 C3090 0.930 1_565 S
H3078 C3091 0.930 . S
H3079 C3095 0.959 . S
H3080 C3095 0.959 . S
H3081 C3095 0.961 . S
H3082 C3096 0.960 . S
H3083 C3096 0.961 . S
H3084 C3096 0.959 . S
H3085 C3099 0.929 . S
H3086 C3100 0.931 . S
H3087 C3102 0.930 . S
C3088 H3076 0.930 . S
C3088 C3089 1.399 . S
C3088 C3093 1.399 . S
C3089 C3088 1.399 . S
C3089 C3090 1.376 . S
C3090 H3077 0.930 1_545 S
C3090 C3089 1.376 . S
C3090 C3091 1.388 1_545 S
C3091 H3078 0.930 . S
C3091 C3090 1.388 1_565 S
C3091 C3092 1.390 1_565 S
C3092 C3091 1.390 1_545 S
C3092 C3093 1.394 . S
C3092 C3098 1.465 . S
C3093 C3088 1.399 . S
C3093 C3092 1.394 . S
C3093 C3094 1.516 . S
C3094 C3093 1.516 . S
C3094 C3095 1.502 1_655 S
C3094 C3096 1.561 . S
C3094 C3097 1.526 . S
C3095 H3079 0.959 . S
C3095 H3080 0.959 . S
C3095 H3081 0.961 . S
C3095 C3094 1.502 1_455 S
C3096 H3082 0.960 . S
C3096 H3083 0.961 . S
C3096 H3084 0.959 . S
C3096 C3094 1.561 . S
C3097 C3094 1.526 . S
C3097 C3098 1.396 . S
C3097 C3102 1.390 1_655 S
C3098 C3092 1.465 . S
C3098 C3097 1.396 . S
C3098 C3099 1.399 1_545 S
C3099 H3085 0.929 . S
C3099 C3098 1.399 1_565 S
C3099 C3100 1.385 . S
C3100 H3086 0.931 . S
C3100 C3099 1.385 . S
C3100 C3101 1.389 1_665 S
C3101 C3100 1.389 1_445 S
C3101 C3102 1.387 . S
C3102 H3087 0.930 . S
C3102 C3097 1.390 1_455 S
C3102 C3101 1.387 . S
H3103 C3115 0.930 . S
H3104 C3117 0.930 . S
H3105 C3118 0.930 . S
H3106 C3122 0.959 . S
H3107 C3122 0.959 . S
H3108 C3122 0.961 . S
H3109 C3123 0.960 . S
H3110 C3123 0.961 . S
H3111 C3123 0.959 . S
H3112 C3126 0.929 . S
H3113 C3127 0.931 . S
H3114 C3129 0.930 . S
C3115 H3103 0.930 . S
C3115 C3116 1.399 . S
C3115 C3120 1.399 . S
C3116 C3115 1.399 . S
C3116 C3117 1.376 . S
C3117 H3104 0.930 . S
C3117 C3116 1.376 . S
C3117 C3118 1.388 . S
C3118 H3105 0.930 . S
C3118 C3117 1.388 . S
C3118 C3119 1.390 . S
C3119 C3118 1.390 . S
C3119 C3120 1.394 . S
C3119 C3125 1.465 . S
C3120 C3115 1.399 . S
C3120 C3119 1.394 . S
C3120 C3121 1.516 . S
C3121 C3120 1.516 . S
C3121 C3122 1.502 . S
C3121 C3123 1.561 . S
C3121 C3124 1.526 . S
C3122 H3106 0.959 . S
C3122 H3107 0.959 . S
C3122 H3108 0.961 . S
C3122 C3121 1.502 . S
C3123 H3109 0.960 . S
C3123 H3110 0.961 . S
C3123 H3111 0.959 . S
C3123 C3121 1.561 . S
C3124 C3121 1.526 . S
C3124 C3125 1.396 . S
C3124 C3129 1.390 . S
C3125 C3119 1.465 . S
C3125 C3124 1.396 . S
C3125 C3126 1.399 . S
C3126 H3112 0.929 . S
C3126 C3125 1.399 . S
C3126 C3127 1.385 . S
C3127 H3113 0.931 . S
C3127 C3126 1.385 . S
C3127 C3128 1.389 . S
C3128 C3127 1.389 . S
C3128 C3129 1.387 . S
C3129 H3114 0.930 . S
C3129 C3124 1.390 . S
C3129 C3128 1.387 . S
H3130 C3142 0.930 1_565 S
H3131 C3144 0.930 . S
H3132 C3145 0.930 . S
H3133 C3149 0.959 1_545 S
H3134 C3149 0.959 . S
H3135 C3149 0.961 . S
H3136 C3150 0.960 . S
H3137 C3150 0.961 . S
H3138 C3150 0.959 . S
H3139 C3153 0.929 . S
H3140 C3154 0.931 . S
H3141 C3156 0.930 . S
C3142 H3130 0.930 1_545 S
C3142 C3143 1.399 . S
C3142 C3147 1.399 . S
C3143 C3142 1.399 . S
C3143 C3144 1.376 . S
C3144 H3131 0.930 . S
C3144 C3143 1.376 . S
C3144 C3145 1.388 . S
C3145 H3132 0.930 . S
C3145 C3144 1.388 . S
C3145 C3146 1.390 . S
C3146 C3145 1.390 . S
C3146 C3147 1.394 . S
C3146 C3152 1.465 . S
C3147 C3142 1.399 . S
C3147 C3146 1.394 . S
C3147 C3148 1.520 . S
C3148 C3147 1.520 . S
C3148 C3149 1.505 1_545 S
C3148 C3150 1.549 1_545 S
C3148 C3151 1.532 . S
C3149 H3133 0.959 1_565 S
C3149 H3134 0.959 . S
C3149 H3135 0.961 . S
C3149 C3148 1.505 1_565 S
C3150 H3136 0.960 . S
C3150 H3137 0.961 . S
C3150 H3138 0.959 . S
C3150 C3148 1.549 1_565 S
C3151 C3148 1.532 . S
C3151 C3152 1.396 . S
C3151 C3156 1.390 . S
C3152 C3146 1.465 . S
C3152 C3151 1.396 . S
C3152 C3153 1.399 . S
C3153 H3139 0.929 . S
C3153 C3152 1.399 . S
C3153 C3154 1.385 . S
C3154 H3140 0.931 . S
C3154 C3153 1.385 . S
C3154 C3155 1.389 . S
C3155 C3154 1.389 . S
C3155 C3156 1.387 . S
C3156 H3141 0.930 . S
C3156 C3151 1.390 . S
C3156 C3155 1.387 . S
H3157 C3169 0.930 . S
H3158 C3171 0.930 . S
H3159 C3172 0.930 . S
H3160 C3176 0.959 . S
H3161 C3176 0.959 . S
H3162 C3176 0.961 . S
H3163 C3177 0.960 . S
H3164 C3177 0.961 . S
H3165 C3177 0.959 . S
H3166 C3180 0.929 . S
H3167 C3181 0.931 . S
H3168 C3183 0.930 . S
C3169 H3157 0.930 . S
C3169 C3170 1.399 . S
C3169 C3174 1.399 . S
C3170 C3169 1.399 . S
C3170 C3171 1.376 . S
C3171 H3158 0.930 . S
C3171 C3170 1.376 . S
C3171 C3172 1.388 . S
C3172 H3159 0.930 . S
C3172 C3171 1.388 . S
C3172 C3173 1.390 . S
C3173 C3172 1.390 . S
C3173 C3174 1.394 . S
C3173 C3179 1.465 . S
C3174 C3169 1.399 . S
C3174 C3173 1.394 . S
C3174 C3175 1.516 . S
C3175 C3174 1.516 . S
C3175 C3176 1.502 . S
C3175 C3177 1.561 . S
C3175 C3178 1.526 . S
C3176 H3160 0.959 . S
C3176 H3161 0.959 . S
C3176 H3162 0.961 . S
C3176 C3175 1.502 . S
C3177 H3163 0.960 . S
C3177 H3164 0.961 . S
C3177 H3165 0.959 . S
C3177 C3175 1.561 . S
C3178 C3175 1.526 . S
C3178 C3179 1.396 . S
C3178 C3183 1.390 . S
C3179 C3173 1.465 . S
C3179 C3178 1.396 . S
C3179 C3180 1.399 . S
C3180 H3166 0.929 . S
C3180 C3179 1.399 . S
C3180 C3181 1.385 . S
C3181 H3167 0.931 . S
C3181 C3180 1.385 . S
C3181 C3182 1.389 . S
C3182 C3181 1.389 . S
C3182 C3183 1.387 . S
C3183 H3168 0.930 . S
C3183 C3178 1.390 . S
C3183 C3182 1.387 . S
H3184 C3196 0.930 . S
H3185 C3198 0.915 1_545 S
H3186 C3199 0.930 . S
H3187 C3203 0.959 . S
H3188 C3203 0.959 . S
H3189 C3203 0.961 . S
H3190 C3204 0.960 . S
H3191 C3204 0.961 . S
H3192 C3204 0.959 . S
H3193 C3207 0.929 . S
H3194 C3208 0.931 . S
H3195 C3210 0.930 . S
C3196 H3184 0.930 . S
C3196 C3197 1.399 . S
C3196 C3201 1.399 . S
C3197 C3196 1.399 . S
C3197 C3198 1.430 . S
C3198 H3185 0.915 1_565 S
C3198 C3197 1.430 . S
C3198 C3199 1.352 1_565 S
C3199 H3186 0.930 . S
C3199 C3198 1.352 1_545 S
C3199 C3200 1.390 1_545 S
C3200 C3199 1.390 1_565 S
C3200 C3201 1.394 . S
C3200 C3206 1.465 1_565 S
C3201 C3196 1.399 . S
C3201 C3200 1.394 . S
C3201 C3202 1.516 . S
C3202 C3201 1.516 . S
C3202 C3203 1.502 . S
C3202 C3204 1.561 . S
C3202 C3205 1.526 . S
C3203 H3187 0.959 . S
C3203 H3188 0.959 . S
C3203 H3189 0.961 . S
C3203 C3202 1.502 . S
C3204 H3190 0.960 . S
C3204 H3191 0.961 . S
C3204 H3192 0.959 . S
C3204 C3202 1.561 . S
C3205 C3202 1.526 . S
C3205 C3206 1.396 1_565 S
C3205 C3210 1.390 . S
C3206 C3200 1.465 1_545 S
C3206 C3205 1.396 1_545 S
C3206 C3207 1.399 . S
C3207 H3193 0.929 . S
C3207 C3206 1.399 . S
C3207 C3208 1.385 . S
C3208 H3194 0.931 . S
C3208 C3207 1.385 . S
C3208 C3209 1.389 . S
C3209 C3208 1.389 . S
C3209 C3210 1.387 1_545 S
C3210 H3195 0.930 . S
C3210 C3205 1.390 . S
C3210 C3209 1.387 1_565 S
H3211 C3223 0.930 . S
H3212 C3225 0.936 1_556 S
H3213 C3226 0.930 . S
H3214 C3230 0.959 . S
H3215 C3230 0.959 . S
H3216 C3230 0.961 . S
H3217 C3231 0.960 . S
H3218 C3231 0.961 . S
H3219 C3231 0.959 . S
H3220 C3234 0.929 . S
H3221 C3235 0.931 1_556 S
H3222 C3237 0.930 . S
C3223 H3211 0.930 . S
C3223 C3224 1.399 . S
C3223 C3228 1.399 . S
C3224 C3223 1.399 . S
C3224 C3225 1.370 . S
C3225 H3212 0.936 1_554 S
C3225 C3224 1.370 . S
C3225 C3226 1.389 1_554 S
C3226 H3213 0.930 . S
C3226 C3225 1.389 1_556 S
C3226 C3227 1.390 1_556 S
C3227 C3226 1.390 1_554 S
C3227 C3228 1.394 . S
C3227 C3233 1.465 . S
C3228 C3223 1.399 . S
C3228 C3227 1.394 . S
C3228 C3229 1.516 . S
C3229 C3228 1.516 . S
C3229 C3230 1.502 . S
C3229 C3231 1.561 . S
C3229 C3232 1.526 . S
C3230 H3214 0.959 . S
C3230 H3215 0.959 . S
C3230 H3216 0.961 . S
C3230 C3229 1.502 . S
C3231 H3217 0.960 . S
C3231 H3218 0.961 . S
C3231 H3219 0.959 . S
C3231 C3229 1.561 . S
C3232 C3229 1.526 . S
C3232 C3233 1.396 . S
C3232 C3237 1.390 . S
C3233 C3227 1.465 . S
C3233 C3232 1.396 . S
C3233 C3234 1.399 1_554 S
C3234 H3220 0.929 . S
C3234 C3233 1.399 1_556 S
C3234 C3235 1.385 1_556 S
C3235 H3221 0.931 1_554 S
C3235 C3234 1.385 1_554 S
C3235 C3236 1.389 . S
C3236 C3235 1.389 . S
C3236 C3237 1.387 . S
C3237 H3222 0.930 . S
C3237 C3232 1.390 . S
C3237 C3236 1.387 . S
H3238 C3250 0.930 . S
H3239 C3252 0.930 . S
H3240 C3253 0.930 . S
H3241 C3257 0.959 . S
H3242 C3257 0.959 . S
H3243 C3257 0.961 . S
H3244 C3258 0.960 . S
H3245 C3258 0.961 . S
H3246 C3258 0.959 . S
H3247 C3261 0.929 . S
H3248 C3262 0.931 . S
H3249 C3264 0.930 . S
C3250 H3238 0.930 . S
C3250 C3251 1.399 . S
C3250 C3255 1.399 . S
C3251 C3250 1.399 . S
C3251 C3252 1.376 . S
C3252 H3239 0.930 . S
C3252 C3251 1.376 . S
C3252 C3253 1.388 . S
C3253 H3240 0.930 . S
C3253 C3252 1.388 . S
C3253 C3254 1.390 . S
C3254 C3253 1.390 . S
C3254 C3255 1.394 . S
C3254 C3260 1.465 . S
C3255 C3250 1.399 . S
C3255 C3254 1.394 . S
C3255 C3256 1.516 . S
C3256 C3255 1.516 . S
C3256 C3257 1.502 . S
C3256 C3258 1.561 . S
C3256 C3259 1.526 . S
C3257 H3241 0.959 . S
C3257 H3242 0.959 . S
C3257 H3243 0.961 . S
C3257 C3256 1.502 . S
C3258 H3244 0.960 . S
C3258 H3245 0.961 . S
C3258 H3246 0.959 . S
C3258 C3256 1.561 . S
C3259 C3256 1.526 . S
C3259 C3260 1.396 . S
C3259 C3264 1.390 . S
C3260 C3254 1.465 . S
C3260 C3259 1.396 . S
C3260 C3261 1.399 . S
C3261 H3247 0.929 . S
C3261 C3260 1.399 . S
C3261 C3262 1.385 . S
C3262 H3248 0.931 . S
C3262 C3261 1.385 . S
C3262 C3263 1.389 . S
C3263 C3262 1.389 . S
C3263 C3264 1.387 . S
C3264 H3249 0.930 . S
C3264 C3259 1.390 . S
C3264 C3263 1.387 . S
H3265 C3277 0.930 . S
H3266 C3279 0.930 . S
H3267 C3280 0.930 . S
H3268 C3284 0.959 . S
H3269 C3284 0.959 . S
H3270 C3284 0.961 . S
H3271 C3285 0.960 . S
H3272 C3285 0.961 . S
H3273 C3285 0.959 . S
H3274 C3288 0.929 . S
H3275 C3289 0.931 . S
H3276 C3291 0.930 . S
C3277 H3265 0.930 . S
C3277 C3278 1.399 . S
C3277 C3282 1.399 . S
C3278 C3277 1.399 . S
C3278 C3279 1.376 . S
C3279 H3266 0.930 . S
C3279 C3278 1.376 . S
C3279 C3280 1.388 . S
C3280 H3267 0.930 . S
C3280 C3279 1.388 . S
C3280 C3281 1.390 . S
C3281 C3280 1.390 . S
C3281 C3282 1.394 . S
C3281 C3287 1.465 . S
C3282 C3277 1.399 . S
C3282 C3281 1.394 . S
C3282 C3283 1.516 . S
C3283 C3282 1.516 . S
C3283 C3284 1.502 . S
C3283 C3285 1.561 . S
C3283 C3286 1.526 . S
C3284 H3268 0.959 . S
C3284 H3269 0.959 . S
C3284 H3270 0.961 . S
C3284 C3283 1.502 . S
C3285 H3271 0.960 . S
C3285 H3272 0.961 . S
C3285 H3273 0.959 . S
C3285 C3283 1.561 . S
C3286 C3283 1.526 . S
C3286 C3287 1.396 . S
C3286 C3291 1.390 . S
C3287 C3281 1.465 . S
C3287 C3286 1.396 . S
C3287 C3288 1.399 . S
C3288 H3274 0.929 . S
C3288 C3287 1.399 . S
C3288 C3289 1.385 . S
C3289 H3275 0.931 . S
C3289 C3288 1.385 . S
C3289 C3290 1.389 . S
C3290 C3289 1.389 . S
C3290 C3291 1.387 . S
C3291 H3276 0.930 . S
C3291 C3286 1.390 . S
C3291 C3290 1.387 . S
H3292 C3304 0.930 . S
H3293 C3306 0.930 . S
H3294 C3307 0.930 . S
H3295 C3311 0.959 . S
H3296 C3311 0.959 . S
H3297 C3311 0.961 . S
H3298 C3312 0.960 . S
H3299 C3312 0.961 . S
H3300 C3312 0.959 . S
H3301 C3315 0.929 . S
H3302 C3316 0.931 . S
H3303 C3318 0.930 . S
C3304 H3292 0.930 . S
C3304 C3305 1.399 . S
C3304 C3309 1.399 . S
C3305 C3304 1.399 . S
C3305 C3306 1.376 . S
C3306 H3293 0.930 . S
C3306 C3305 1.376 . S
C3306 C3307 1.388 . S
C3307 H3294 0.930 . S
C3307 C3306 1.388 . S
C3307 C3308 1.390 . S
C3308 C3307 1.390 . S
C3308 C3309 1.394 . S
C3308 C3314 1.465 . S
C3309 C3304 1.399 . S
C3309 C3308 1.394 . S
C3309 C3310 1.516 . S
C3310 C3309 1.516 . S
C3310 C3311 1.502 . S
C3310 C3312 1.561 . S
C3310 C3313 1.526 . S
C3311 H3295 0.959 . S
C3311 H3296 0.959 . S
C3311 H3297 0.961 . S
C3311 C3310 1.502 . S
C3312 H3298 0.960 . S
C3312 H3299 0.961 . S
C3312 H3300 0.959 . S
C3312 C3310 1.561 . S
C3313 C3310 1.526 . S
C3313 C3314 1.396 . S
C3313 C3318 1.390 . S
C3314 C3308 1.465 . S
C3314 C3313 1.396 . S
C3314 C3315 1.399 . S
C3315 H3301 0.929 . S
C3315 C3314 1.399 . S
C3315 C3316 1.385 . S
C3316 H3302 0.931 . S
C3316 C3315 1.385 . S
C3316 C3317 1.389 . S
C3317 C3316 1.389 . S
C3317 C3318 1.387 . S
C3318 H3303 0.930 . S
C3318 C3313 1.390 . S
C3318 C3317 1.387 . S
H3319 C3331 0.930 . S
H3320 C3333 0.930 . S
H3321 C3334 0.930 . S
H3322 C3338 0.959 . S
H3323 C3338 0.959 . S
H3324 C3338 0.961 . S
H3325 C3339 0.960 . S
H3326 C3339 0.961 . S
H3327 C3339 0.959 . S
H3328 C3342 0.929 . S
H3329 C3343 0.931 . S
H3330 C3345 0.930 . S
C3331 H3319 0.930 . S
C3331 C3332 1.399 . S
C3331 C3336 1.399 . S
C3332 C3331 1.399 . S
C3332 C3333 1.376 . S
C3333 H3320 0.930 . S
C3333 C3332 1.376 . S
C3333 C3334 1.388 . S
C3334 H3321 0.930 . S
C3334 C3333 1.388 . S
C3334 C3335 1.390 . S
C3335 C3334 1.390 . S
C3335 C3336 1.394 . S
C3335 C3341 1.465 . S
C3336 C3331 1.399 . S
C3336 C3335 1.394 . S
C3336 C3337 1.516 . S
C3337 C3336 1.516 . S
C3337 C3338 1.502 . S
C3337 C3339 1.561 . S
C3337 C3340 1.526 . S
C3338 H3322 0.959 . S
C3338 H3323 0.959 . S
C3338 H3324 0.961 . S
C3338 C3337 1.502 . S
C3339 H3325 0.960 . S
C3339 H3326 0.961 . S
C3339 H3327 0.959 . S
C3339 C3337 1.561 . S
C3340 C3337 1.526 . S
C3340 C3341 1.396 . S
C3340 C3345 1.390 . S
C3341 C3335 1.465 . S
C3341 C3340 1.396 . S
C3341 C3342 1.399 . S
C3342 H3328 0.929 . S
C3342 C3341 1.399 . S
C3342 C3343 1.385 . S
C3343 H3329 0.931 . S
C3343 C3342 1.385 . S
C3343 C3344 1.389 . S
C3344 C3343 1.389 . S
C3344 C3345 1.387 . S
C3345 H3330 0.930 . S
C3345 C3340 1.390 . S
C3345 C3344 1.387 . S
H3346 C3358 0.930 . S
H3347 C3360 0.930 . S
H3348 C3361 0.930 . S
H3349 C3365 0.959 . S
H3350 C3365 0.959 . S
H3351 C3365 0.961 . S
H3352 C3366 0.960 . S
H3353 C3366 0.961 . S
H3354 C3366 0.959 . S
H3355 C3369 0.929 . S
H3356 C3370 0.931 . S
H3357 C3372 0.930 . S
C3358 H3346 0.930 . S
C3358 C3359 1.399 . S
C3358 C3363 1.399 . S
C3359 C3358 1.399 . S
C3359 C3360 1.376 . S
C3360 H3347 0.930 . S
C3360 C3359 1.376 . S
C3360 C3361 1.388 . S
C3361 H3348 0.930 . S
C3361 C3360 1.388 . S
C3361 C3362 1.390 . S
C3362 C3361 1.390 . S
C3362 C3363 1.394 . S
C3362 C3368 1.465 . S
C3363 C3358 1.399 . S
C3363 C3362 1.394 . S
C3363 C3364 1.516 . S
C3364 C3363 1.516 . S
C3364 C3365 1.502 . S
C3364 C3366 1.561 . S
C3364 C3367 1.526 . S
C3365 H3349 0.959 . S
C3365 H3350 0.959 . S
C3365 H3351 0.961 . S
C3365 C3364 1.502 . S
C3366 H3352 0.960 . S
C3366 H3353 0.961 . S
C3366 H3354 0.959 . S
C3366 C3364 1.561 . S
C3367 C3364 1.526 . S
C3367 C3368 1.396 . S
C3367 C3372 1.390 . S
C3368 C3362 1.465 . S
C3368 C3367 1.396 . S
C3368 C3369 1.399 . S
C3369 H3355 0.929 . S
C3369 C3368 1.399 . S
C3369 C3370 1.385 . S
C3370 H3356 0.931 . S
C3370 C3369 1.385 . S
C3370 C3371 1.389 . S
C3371 C3370 1.389 . S
C3371 C3372 1.387 . S
C3372 H3357 0.930 . S
C3372 C3367 1.390 . S
C3372 C3371 1.387 . S
H3373 C3385 0.930 . S
H3374 C3387 0.930 . S
H3375 C3388 0.930 . S
H3376 C3392 0.959 . S
H3377 C3392 0.959 . S
H3378 C3392 0.961 . S
H3379 C3393 0.960 . S
H3380 C3393 0.961 . S
H3381 C3393 0.959 . S
H3382 C3396 0.929 . S
H3383 C3397 0.931 . S
H3384 C3399 0.930 . S
C3385 H3373 0.930 . S
C3385 C3386 1.399 . S
C3385 C3390 1.399 . S
C3386 C3385 1.399 . S
C3386 C3387 1.376 . S
C3387 H3374 0.930 . S
C3387 C3386 1.376 . S
C3387 C3388 1.388 . S
C3388 H3375 0.930 . S
C3388 C3387 1.388 . S
C3388 C3389 1.390 . S
C3389 C3388 1.390 . S
C3389 C3390 1.394 . S
C3389 C3395 1.465 . S
C3390 C3385 1.399 . S
C3390 C3389 1.394 . S
C3390 C3391 1.516 . S
C3391 C3390 1.516 . S
C3391 C3392 1.502 . S
C3391 C3393 1.561 . S
C3391 C3394 1.526 . S
C3392 H3376 0.959 . S
C3392 H3377 0.959 . S
C3392 H3378 0.961 . S
C3392 C3391 1.502 . S
C3393 H3379 0.960 . S
C3393 H3380 0.961 . S
C3393 H3381 0.959 . S
C3393 C3391 1.561 . S
C3394 C3391 1.526 . S
C3394 C3395 1.396 . S
C3394 C3399 1.390 . S
C3395 C3389 1.465 . S
C3395 C3394 1.396 . S
C3395 C3396 1.399 . S
C3396 H3382 0.929 . S
C3396 C3395 1.399 . S
C3396 C3397 1.385 . S
C3397 H3383 0.931 . S
C3397 C3396 1.385 . S
C3397 C3398 1.389 . S
C3398 C3397 1.389 . S
C3398 C3399 1.387 . S
C3399 H3384 0.930 . S
C3399 C3394 1.390 . S
C3399 C3398 1.387 . S
H3400 C3412 0.930 . S
H3401 C3414 0.930 . S
H3402 C3415 0.930 . S
H3403 C3419 0.959 . S
H3404 C3419 0.959 . S
H3405 C3419 0.961 . S
H3406 C3420 0.960 . S
H3407 C3420 0.961 . S
H3408 C3420 0.959 . S
H3409 C3423 0.929 . S
H3410 C3424 0.931 . S
H3411 C3426 0.930 . S
C3412 H3400 0.930 . S
C3412 C3413 1.399 . S
C3412 C3417 1.399 . S
C3413 C3412 1.399 . S
C3413 C3414 1.376 . S
C3414 H3401 0.930 . S
C3414 C3413 1.376 . S
C3414 C3415 1.388 . S
C3415 H3402 0.930 . S
C3415 C3414 1.388 . S
C3415 C3416 1.390 . S
C3416 C3415 1.390 . S
C3416 C3417 1.394 . S
C3416 C3422 1.465 . S
C3417 C3412 1.399 . S
C3417 C3416 1.394 . S
C3417 C3418 1.516 . S
C3418 C3417 1.516 . S
C3418 C3419 1.502 . S
C3418 C3420 1.561 . S
C3418 C3421 1.526 . S
C3419 H3403 0.959 . S
C3419 H3404 0.959 . S
C3419 H3405 0.961 . S
C3419 C3418 1.502 . S
C3420 H3406 0.960 . S
C3420 H3407 0.961 . S
C3420 H3408 0.959 . S
C3420 C3418 1.561 . S
C3421 C3418 1.526 . S
C3421 C3422 1.396 . S
C3421 C3426 1.390 . S
C3422 C3416 1.465 . S
C3422 C3421 1.396 . S
C3422 C3423 1.399 . S
C3423 H3409 0.929 . S
C3423 C3422 1.399 . S
C3423 C3424 1.385 . S
C3424 H3410 0.931 . S
C3424 C3423 1.385 . S
C3424 C3425 1.389 . S
C3425 C3424 1.389 . S
C3425 C3426 1.387 . S
C3426 H3411 0.930 . S
C3426 C3421 1.390 . S
C3426 C3425 1.387 . S
H3427 C3439 0.930 . S
H3428 C3441 0.930 . S
H3429 C3442 0.930 . S
H3430 C3446 0.959 . S
H3431 C3446 0.959 . S
H3432 C3446 0.961 . S
H3433 C3447 0.960 . S
H3434 C3447 0.961 . S
H3435 C3447 0.959 . S
H3436 C3450 0.929 . S
H3437 C3451 0.931 . S
H3438 C3453 0.930 . S
C3439 H3427 0.930 . S
C3439 C3440 1.399 . S
C3439 C3444 1.399 . S
C3440 C3439 1.399 . S
C3440 C3441 1.376 . S
C3441 H3428 0.930 . S
C3441 C3440 1.376 . S
C3441 C3442 1.388 . S
C3442 H3429 0.930 . S
C3442 C3441 1.388 . S
C3442 C3443 1.390 . S
C3443 C3442 1.390 . S
C3443 C3444 1.394 . S
C3443 C3449 1.465 . S
C3444 C3439 1.399 . S
C3444 C3443 1.394 . S
C3444 C3445 1.516 . S
C3445 C3444 1.516 . S
C3445 C3446 1.502 . S
C3445 C3447 1.561 . S
C3445 C3448 1.526 . S
C3446 H3430 0.959 . S
C3446 H3431 0.959 . S
C3446 H3432 0.961 . S
C3446 C3445 1.502 . S
C3447 H3433 0.960 . S
C3447 H3434 0.961 . S
C3447 H3435 0.959 . S
C3447 C3445 1.561 . S
C3448 C3445 1.526 . S
C3448 C3449 1.396 . S
C3448 C3453 1.390 . S
C3449 C3443 1.465 . S
C3449 C3448 1.396 . S
C3449 C3450 1.399 . S
C3450 H3436 0.929 . S
C3450 C3449 1.399 . S
C3450 C3451 1.385 . S
C3451 H3437 0.931 . S
C3451 C3450 1.385 . S
C3451 C3452 1.389 . S
C3452 C3451 1.389 . S
C3452 C3453 1.387 . S
C3453 H3438 0.930 . S
C3453 C3448 1.390 . S
C3453 C3452 1.387 . S
H3454 C3466 0.930 . S
H3455 C3468 0.930 . S
H3456 C3469 0.930 . S
H3457 C3473 0.959 . S
H3458 C3473 0.959 . S
H3459 C3473 0.961 . S
H3460 C3474 0.960 . S
H3461 C3474 0.961 . S
H3462 C3474 0.959 . S
H3463 C3477 0.929 . S
H3464 C3478 0.931 . S
H3465 C3480 0.930 . S
C3466 H3454 0.930 . S
C3466 C3467 1.399 . S
C3466 C3471 1.399 . S
C3467 C3466 1.399 . S
C3467 C3468 1.376 . S
C3468 H3455 0.930 . S
C3468 C3467 1.376 . S
C3468 C3469 1.388 . S
C3469 H3456 0.930 . S
C3469 C3468 1.388 . S
C3469 C3470 1.390 . S
C3470 C3469 1.390 . S
C3470 C3471 1.394 . S
C3470 C3476 1.465 . S
C3471 C3466 1.399 . S
C3471 C3470 1.394 . S
C3471 C3472 1.516 . S
C3472 C3471 1.516 . S
C3472 C3473 1.502 . S
C3472 C3474 1.561 . S
C3472 C3475 1.526 . S
C3473 H3457 0.959 . S
C3473 H3458 0.959 . S
C3473 H3459 0.961 . S
C3473 C3472 1.502 . S
C3474 H3460 0.960 . S
C3474 H3461 0.961 . S
C3474 H3462 0.959 . S
C3474 C3472 1.561 . S
C3475 C3472 1.526 . S
C3475 C3476 1.396 . S
C3475 C3480 1.390 . S
C3476 C3470 1.465 . S
C3476 C3475 1.396 . S
C3476 C3477 1.399 . S
C3477 H3463 0.929 . S
C3477 C3476 1.399 . S
C3477 C3478 1.385 . S
C3478 H3464 0.931 . S
C3478 C3477 1.385 . S
C3478 C3479 1.389 . S
C3479 C3478 1.389 . S
C3479 C3480 1.387 . S
C3480 H3465 0.930 . S
C3480 C3475 1.390 . S
C3480 C3479 1.387 . S
H3481 C3493 0.930 . S
H3482 C3495 0.930 . S
H3483 C3496 0.930 . S
H3484 C3500 0.959 . S
H3485 C3500 0.959 . S
H3486 C3500 0.961 . S
H3487 C3501 0.960 . S
H3488 C3501 0.961 . S
H3489 C3501 0.959 . S
H3490 C3504 0.929 . S
H3491 C3505 0.931 . S
H3492 C3507 0.930 . S
C3493 H3481 0.930 . S
C3493 C3494 1.399 . S
C3493 C3498 1.399 . S
C3494 C3493 1.399 . S
C3494 C3495 1.376 . S
C3495 H3482 0.930 . S
C3495 C3494 1.376 . S
C3495 C3496 1.388 . S
C3496 H3483 0.930 . S
C3496 C3495 1.388 . S
C3496 C3497 1.390 . S
C3497 C3496 1.390 . S
C3497 C3498 1.394 . S
C3497 C3503 1.465 . S
C3498 C3493 1.399 . S
C3498 C3497 1.394 . S
C3498 C3499 1.516 . S
C3499 C3498 1.516 . S
C3499 C3500 1.502 . S
C3499 C3501 1.561 . S
C3499 C3502 1.526 . S
C3500 H3484 0.959 . S
C3500 H3485 0.959 . S
C3500 H3486 0.961 . S
C3500 C3499 1.502 . S
C3501 H3487 0.960 . S
C3501 H3488 0.961 . S
C3501 H3489 0.959 . S
C3501 C3499 1.561 . S
C3502 C3499 1.526 . S
C3502 C3503 1.396 . S
C3502 C3507 1.390 . S
C3503 C3497 1.465 . S
C3503 C3502 1.396 . S
C3503 C3504 1.399 . S
C3504 H3490 0.929 . S
C3504 C3503 1.399 . S
C3504 C3505 1.385 . S
C3505 H3491 0.931 . S
C3505 C3504 1.385 . S
C3505 C3506 1.389 . S
C3506 C3505 1.389 . S
C3506 C3507 1.387 . S
C3507 H3492 0.930 . S
C3507 C3502 1.390 . S
C3507 C3506 1.387 . S
H3508 C3520 0.930 . S
H3509 C3522 0.930 . S
H3510 C3523 0.930 . S
H3511 C3527 0.959 . S
H3512 C3527 0.959 . S
H3513 C3527 0.961 . S
H3514 C3528 0.960 . S
H3515 C3528 0.961 . S
H3516 C3528 0.959 . S
H3517 C3531 0.929 . S
H3518 C3532 0.931 . S
H3519 C3534 0.930 . S
C3520 H3508 0.930 . S
C3520 C3521 1.399 . S
C3520 C3525 1.399 . S
C3521 C3520 1.399 . S
C3521 C3522 1.376 . S
C3522 H3509 0.930 . S
C3522 C3521 1.376 . S
C3522 C3523 1.388 . S
C3523 H3510 0.930 . S
C3523 C3522 1.388 . S
C3523 C3524 1.390 . S
C3524 C3523 1.390 . S
C3524 C3525 1.394 . S
C3524 C3530 1.465 . S
C3525 C3520 1.399 . S
C3525 C3524 1.394 . S
C3525 C3526 1.516 . S
C3526 C3525 1.516 . S
C3526 C3527 1.502 . S
C3526 C3528 1.561 . S
C3526 C3529 1.526 . S
C3527 H3511 0.959 . S
C3527 H3512 0.959 . S
C3527 H3513 0.961 . S
C3527 C3526 1.502 . S
C3528 H3514 0.960 . S
C3528 H3515 0.961 . S
C3528 H3516 0.959 . S
C3528 C3526 1.561 . S
C3529 C3526 1.526 . S
C3529 C3530 1.396 . S
C3529 C3534 1.390 . S
C3530 C3524 1.465 . S
C3530 C3529 1.396 . S
C3530 C3531 1.399 . S
C3531 H3517 0.929 . S
C3531 C3530 1.399 . S
C3531 C3532 1.385 . S
C3532 H3518 0.931 . S
C3532 C3531 1.385 . S
C3532 C3533 1.389 . S
C3533 C3532 1.389 . S
C3533 C3534 1.387 . S
C3534 H3519 0.930 . S
C3534 C3529 1.390 . S
C3534 C3533 1.387 . S
H3535 C3547 0.930 . S
H3536 C3549 0.930 . S
H3537 C3550 0.930 . S
H3538 C3554 0.959 . S
H3539 C3554 0.959 . S
H3540 C3554 0.961 . S
H3541 C3555 0.960 . S
H3542 C3555 0.961 . S
H3543 C3555 0.959 . S
H3544 C3558 0.929 . S
H3545 C3559 0.931 . S
H3546 C3561 0.930 . S
C3547 H3535 0.930 . S
C3547 C3548 1.399 . S
C3547 C3552 1.399 . S
C3548 C3547 1.399 . S
C3548 C3549 1.376 . S
C3549 H3536 0.930 . S
C3549 C3548 1.376 . S
C3549 C3550 1.388 . S
C3550 H3537 0.930 . S
C3550 C3549 1.388 . S
C3550 C3551 1.390 . S
C3551 C3550 1.390 . S
C3551 C3552 1.394 . S
C3551 C3557 1.465 . S
C3552 C3547 1.399 . S
C3552 C3551 1.394 . S
C3552 C3553 1.516 . S
C3553 C3552 1.516 . S
C3553 C3554 1.502 . S
C3553 C3555 1.561 . S
C3553 C3556 1.526 . S
C3554 H3538 0.959 . S
C3554 H3539 0.959 . S
C3554 H3540 0.961 . S
C3554 C3553 1.502 . S
C3555 H3541 0.960 . S
C3555 H3542 0.961 . S
C3555 H3543 0.959 . S
C3555 C3553 1.561 . S
C3556 C3553 1.526 . S
C3556 C3557 1.396 . S
C3556 C3561 1.390 . S
C3557 C3551 1.465 . S
C3557 C3556 1.396 . S
C3557 C3558 1.399 . S
C3558 H3544 0.929 . S
C3558 C3557 1.399 . S
C3558 C3559 1.385 . S
C3559 H3545 0.931 . S
C3559 C3558 1.385 . S
C3559 C3560 1.389 . S
C3560 C3559 1.389 . S
C3560 C3561 1.387 . S
C3561 H3546 0.930 . S
C3561 C3556 1.390 . S
C3561 C3560 1.387 . S
H3562 C3574 0.930 . S
H3563 C3576 0.930 . S
H3564 C3577 0.930 . S
H3565 C3581 0.959 . S
H3566 C3581 0.959 . S
H3567 C3581 0.961 . S
H3568 C3582 0.960 . S
H3569 C3582 0.961 . S
H3570 C3582 0.959 . S
H3571 C3585 0.911 1_554 S
H3572 C3586 0.931 . S
H3573 C3588 0.930 . S
C3574 H3562 0.930 . S
C3574 C3575 1.399 . S
C3574 C3579 1.399 . S
C3575 C3574 1.399 . S
C3575 C3576 1.376 . S
C3576 H3563 0.930 . S
C3576 C3575 1.376 . S
C3576 C3577 1.388 . S
C3577 H3564 0.930 . S
C3577 C3576 1.388 . S
C3577 C3578 1.390 . S
C3578 C3577 1.390 . S
C3578 C3579 1.394 . S
C3578 C3584 1.465 . S
C3579 C3574 1.399 . S
C3579 C3578 1.394 . S
C3579 C3580 1.516 . S
C3580 C3579 1.516 . S
C3580 C3581 1.502 . S
C3580 C3582 1.561 . S
C3580 C3583 1.526 . S
C3581 H3565 0.959 . S
C3581 H3566 0.959 . S
C3581 H3567 0.961 . S
C3581 C3580 1.502 . S
C3582 H3568 0.960 . S
C3582 H3569 0.961 . S
C3582 H3570 0.959 . S
C3582 C3580 1.561 . S
C3583 C3580 1.526 . S
C3583 C3584 1.396 . S
C3583 C3588 1.390 . S
C3584 C3578 1.465 . S
C3584 C3583 1.396 . S
C3584 C3585 1.399 . S
C3585 H3571 0.911 1_556 S
C3585 C3584 1.399 . S
C3585 C3586 1.385 1_556 S
C3586 H3572 0.931 . S
C3586 C3585 1.385 1_554 S
C3586 C3587 1.389 1_554 S
C3587 C3586 1.389 1_556 S
C3587 C3588 1.387 . S
C3588 H3573 0.930 . S
C3588 C3583 1.390 . S
C3588 C3587 1.387 . S
H3589 C3601 0.930 . S
H3590 C3603 0.930 . S
H3591 C3604 0.930 . S
H3592 C3608 0.959 . S
H3593 C3608 0.959 . S
H3594 C3608 0.961 . S
H3595 C3609 0.960 . S
H3596 C3609 0.961 . S
H3597 C3609 0.959 . S
H3598 C3612 0.929 . S
H3599 C3613 0.931 . S
H3600 C3615 0.930 . S
C3601 H3589 0.930 . S
C3601 C3602 1.399 . S
C3601 C3606 1.399 . S
C3602 C3601 1.399 . S
C3602 C3603 1.376 . S
C3603 H3590 0.930 . S
C3603 C3602 1.376 . S
C3603 C3604 1.388 . S
C3604 H3591 0.930 . S
C3604 C3603 1.388 . S
C3604 C3605 1.390 . S
C3605 C3604 1.390 . S
C3605 C3606 1.394 . S
C3605 C3611 1.465 . S
C3606 C3601 1.399 . S
C3606 C3605 1.394 . S
C3606 C3607 1.516 . S
C3607 C3606 1.516 . S
C3607 C3608 1.502 . S
C3607 C3609 1.561 . S
C3607 C3610 1.526 . S
C3608 H3592 0.959 . S
C3608 H3593 0.959 . S
C3608 H3594 0.961 . S
C3608 C3607 1.502 . S
C3609 H3595 0.960 . S
C3609 H3596 0.961 . S
C3609 H3597 0.959 . S
C3609 C3607 1.561 . S
C3610 C3607 1.526 . S
C3610 C3611 1.396 . S
C3610 C3615 1.390 . S
C3611 C3605 1.465 . S
C3611 C3610 1.396 . S
C3611 C3612 1.399 . S
C3612 H3598 0.929 . S
C3612 C3611 1.399 . S
C3612 C3613 1.385 . S
C3613 H3599 0.931 . S
C3613 C3612 1.385 . S
C3613 C3614 1.389 . S
C3614 C3613 1.389 . S
C3614 C3615 1.387 . S
C3615 H3600 0.930 . S
C3615 C3610 1.390 . S
C3615 C3614 1.387 . S
H3616 C3628 0.930 . S
H3617 C3630 0.930 . S
H3618 C3631 0.930 1_565 S
H3619 C3635 0.959 . S
H3620 C3635 0.959 . S
H3621 C3635 0.961 . S
H3622 C3636 0.960 . S
H3623 C3636 0.961 . S
H3624 C3636 0.959 . S
H3625 C3639 0.929 1_565 S
H3626 C3640 0.920 1_565 S
H3627 C3642 0.930 . S
C3628 H3616 0.930 . S
C3628 C3629 1.399 . S
C3628 C3633 1.399 . S
C3629 C3628 1.399 . S
C3629 C3630 1.376 . S
C3630 H3617 0.930 . S
C3630 C3629 1.376 . S
C3630 C3631 1.388 . S
C3631 H3618 0.930 1_545 S
C3631 C3630 1.388 . S
C3631 C3632 1.390 . S
C3632 C3631 1.390 . S
C3632 C3633 1.394 . S
C3632 C3638 1.465 . S
C3633 C3628 1.399 . S
C3633 C3632 1.394 . S
C3633 C3634 1.516 . S
C3634 C3633 1.516 . S
C3634 C3635 1.502 . S
C3634 C3636 1.561 . S
C3634 C3637 1.526 . S
C3635 H3619 0.959 . S
C3635 H3620 0.959 . S
C3635 H3621 0.961 . S
C3635 C3634 1.502 . S
C3636 H3622 0.960 . S
C3636 H3623 0.961 . S
C3636 H3624 0.959 . S
C3636 C3634 1.561 . S
C3637 C3634 1.526 . S
C3637 C3638 1.396 . S
C3637 C3642 1.390 . S
C3638 C3632 1.465 . S
C3638 C3637 1.396 . S
C3638 C3639 1.399 . S
C3639 H3625 0.929 1_545 S
C3639 C3638 1.399 . S
C3639 C3640 1.384 . S
C3640 H3626 0.920 1_545 S
C3640 C3639 1.384 . S
C3640 C3641 1.402 . S
C3641 C3640 1.402 . S
C3641 C3642 1.387 . S
C3642 H3627 0.930 . S
C3642 C3637 1.390 . S
C3642 C3641 1.387 . S
H3643 C3655 0.930 . S
H3644 C3657 0.930 . S
H3645 C3658 0.930 . S
H3646 C3662 0.959 . S
H3647 C3662 0.959 . S
H3648 C3662 0.961 . S
H3649 C3663 0.960 . S
H3650 C3663 0.961 . S
H3651 C3663 0.959 . S
H3652 C3666 0.929 . S
H3653 C3667 0.931 . S
H3654 C3669 0.930 . S
C3655 H3643 0.930 . S
C3655 C3656 1.399 . S
C3655 C3660 1.399 . S
C3656 C3655 1.399 . S
C3656 C3657 1.376 . S
C3657 H3644 0.930 . S
C3657 C3656 1.376 . S
C3657 C3658 1.388 . S
C3658 H3645 0.930 . S
C3658 C3657 1.388 . S
C3658 C3659 1.390 . S
C3659 C3658 1.390 . S
C3659 C3660 1.394 . S
C3659 C3665 1.465 . S
C3660 C3655 1.399 . S
C3660 C3659 1.394 . S
C3660 C3661 1.516 . S
C3661 C3660 1.516 . S
C3661 C3662 1.502 . S
C3661 C3663 1.561 . S
C3661 C3664 1.526 . S
C3662 H3646 0.959 . S
C3662 H3647 0.959 . S
C3662 H3648 0.961 . S
C3662 C3661 1.502 . S
C3663 H3649 0.960 . S
C3663 H3650 0.961 . S
C3663 H3651 0.959 . S
C3663 C3661 1.561 . S
C3664 C3661 1.526 . S
C3664 C3665 1.396 . S
C3664 C3669 1.390 . S
C3665 C3659 1.465 . S
C3665 C3664 1.396 . S
C3665 C3666 1.399 . S
C3666 H3652 0.929 . S
C3666 C3665 1.399 . S
C3666 C3667 1.385 . S
C3667 H3653 0.931 . S
C3667 C3666 1.385 . S
C3667 C3668 1.389 . S
C3668 C3667 1.389 . S
C3668 C3669 1.387 . S
C3669 H3654 0.930 . S
C3669 C3664 1.390 . S
C3669 C3668 1.387 . S
H3670 C3682 0.930 . S
H3671 C3684 0.930 . S
H3672 C3685 0.930 . S
H3673 C3689 0.959 1_545 S
H3674 C3689 0.959 . S
H3675 C3689 0.961 . S
H3676 C3690 0.960 1_565 S
H3677 C3690 0.961 1_565 S
H3678 C3690 0.959 . S
H3679 C3693 0.929 . S
H3680 C3694 0.931 . S
H3681 C3696 0.930 . S
C3682 H3670 0.930 . S
C3682 C3683 1.399 . S
C3682 C3687 1.399 . S
C3683 C3682 1.399 . S
C3683 C3684 1.376 . S
C3684 H3671 0.930 . S
C3684 C3683 1.376 . S
C3684 C3685 1.388 . S
C3685 H3672 0.930 . S
C3685 C3684 1.388 . S
C3685 C3686 1.390 . S
C3686 C3685 1.390 . S
C3686 C3687 1.394 . S
C3686 C3692 1.465 . S
C3687 C3682 1.399 . S
C3687 C3686 1.394 . S
C3687 C3688 1.516 . S
C3688 C3687 1.516 . S
C3688 C3689 1.502 1_545 S
C3688 C3690 1.561 . S
C3688 C3691 1.526 . S
C3689 H3673 0.959 1_565 S
C3689 H3674 0.959 . S
C3689 H3675 0.961 . S
C3689 C3688 1.502 1_565 S
C3690 H3676 0.960 1_545 S
C3690 H3677 0.961 1_545 S
C3690 H3678 0.959 . S
C3690 C3688 1.561 . S
C3691 C3688 1.526 . S
C3691 C3692 1.396 . S
C3691 C3696 1.390 . S
C3692 C3686 1.465 . S
C3692 C3691 1.396 . S
C3692 C3693 1.399 . S
C3693 H3679 0.929 . S
C3693 C3692 1.399 . S
C3693 C3694 1.385 . S
C3694 H3680 0.931 . S
C3694 C3693 1.385 . S
C3694 C3695 1.389 . S
C3695 C3694 1.389 . S
C3695 C3696 1.387 . S
C3696 H3681 0.930 . S
C3696 C3691 1.390 . S
C3696 C3695 1.387 . S
H3697 C3709 0.930 . S
H3698 C3711 0.930 . S
H3699 C3712 0.930 . S
H3700 C3716 0.959 . S
H3701 C3716 0.959 . S
H3702 C3716 0.961 . S
H3703 C3717 0.960 . S
H3704 C3717 0.961 . S
H3705 C3717 0.959 . S
H3706 C3720 0.929 . S
H3707 C3721 0.931 . S
H3708 C3723 0.930 . S
C3709 H3697 0.930 . S
C3709 C3710 1.399 . S
C3709 C3714 1.399 . S
C3710 C3709 1.399 . S
C3710 C3711 1.376 . S
C3711 H3698 0.930 . S
C3711 C3710 1.376 . S
C3711 C3712 1.388 . S
C3712 H3699 0.930 . S
C3712 C3711 1.388 . S
C3712 C3713 1.390 . S
C3713 C3712 1.390 . S
C3713 C3714 1.394 . S
C3713 C3719 1.465 . S
C3714 C3709 1.399 . S
C3714 C3713 1.394 . S
C3714 C3715 1.516 . S
C3715 C3714 1.516 . S
C3715 C3716 1.502 . S
C3715 C3717 1.561 . S
C3715 C3718 1.526 . S
C3716 H3700 0.959 . S
C3716 H3701 0.959 . S
C3716 H3702 0.961 . S
C3716 C3715 1.502 . S
C3717 H3703 0.960 . S
C3717 H3704 0.961 . S
C3717 H3705 0.959 . S
C3717 C3715 1.561 . S
C3718 C3715 1.526 . S
C3718 C3719 1.396 . S
C3718 C3723 1.390 . S
C3719 C3713 1.465 . S
C3719 C3718 1.396 . S
C3719 C3720 1.399 . S
C3720 H3706 0.929 . S
C3720 C3719 1.399 . S
C3720 C3721 1.385 . S
C3721 H3707 0.931 . S
C3721 C3720 1.385 . S
C3721 C3722 1.389 . S
C3722 C3721 1.389 . S
C3722 C3723 1.387 . S
C3723 H3708 0.930 . S
C3723 C3718 1.390 . S
C3723 C3722 1.387 . S
H3724 C3736 0.930 . S
H3725 C3738 0.930 1_565 S
H3726 C3739 0.930 1_565 S
H3727 C3743 0.959 . S
H3728 C3743 0.959 . S
H3729 C3743 0.961 . S
H3730 C3744 0.960 . S
H3731 C3744 0.961 . S
H3732 C3744 0.959 . S
H3733 C3747 0.929 1_565 S
H3734 C3748 0.931 . S
H3735 C3750 0.930 . S
C3736 H3724 0.930 . S
C3736 C3737 1.399 . S
C3736 C3741 1.399 . S
C3737 C3736 1.399 . S
C3737 C3738 1.376 . S
C3738 H3725 0.930 1_545 S
C3738 C3737 1.376 . S
C3738 C3739 1.388 . S
C3739 H3726 0.930 1_545 S
C3739 C3738 1.388 . S
C3739 C3740 1.390 . S
C3740 C3739 1.390 . S
C3740 C3741 1.394 . S
C3740 C3746 1.465 . S
C3741 C3736 1.399 . S
C3741 C3740 1.394 . S
C3741 C3742 1.516 . S
C3742 C3741 1.516 . S
C3742 C3743 1.502 . S
C3742 C3744 1.561 . S
C3742 C3745 1.526 . S
C3743 H3727 0.959 . S
C3743 H3728 0.959 . S
C3743 H3729 0.961 . S
C3743 C3742 1.502 . S
C3744 H3730 0.960 . S
C3744 H3731 0.961 . S
C3744 H3732 0.959 . S
C3744 C3742 1.561 . S
C3745 C3742 1.526 . S
C3745 C3746 1.396 . S
C3745 C3750 1.390 . S
C3746 C3740 1.465 . S
C3746 C3745 1.396 . S
C3746 C3747 1.399 . S
C3747 H3733 0.929 1_545 S
C3747 C3746 1.399 . S
C3747 C3748 1.385 . S
C3748 H3734 0.931 . S
C3748 C3747 1.385 . S
C3748 C3749 1.389 . S
C3749 C3748 1.389 . S
C3749 C3750 1.387 . S
C3750 H3735 0.930 . S
C3750 C3745 1.390 . S
C3750 C3749 1.387 . S
H3751 C3763 0.930 . S
H3752 C3765 0.930 . S
H3753 C3766 0.930 . S
H3754 C3770 0.959 . S
H3755 C3770 0.959 . S
H3756 C3770 0.961 . S
H3757 C3771 0.960 . S
H3758 C3771 0.961 . S
H3759 C3771 0.959 . S
H3760 C3774 0.929 . S
H3761 C3775 0.931 . S
H3762 C3777 0.930 . S
C3763 H3751 0.930 . S
C3763 C3764 1.399 . S
C3763 C3768 1.399 . S
C3764 C3763 1.399 . S
C3764 C3765 1.376 . S
C3765 H3752 0.930 . S
C3765 C3764 1.376 . S
C3765 C3766 1.388 . S
C3766 H3753 0.930 . S
C3766 C3765 1.388 . S
C3766 C3767 1.390 . S
C3767 C3766 1.390 . S
C3767 C3768 1.394 . S
C3767 C3773 1.465 . S
C3768 C3763 1.399 . S
C3768 C3767 1.394 . S
C3768 C3769 1.516 . S
C3769 C3768 1.516 . S
C3769 C3770 1.502 . S
C3769 C3771 1.561 . S
C3769 C3772 1.526 . S
C3770 H3754 0.959 . S
C3770 H3755 0.959 . S
C3770 H3756 0.961 . S
C3770 C3769 1.502 . S
C3771 H3757 0.960 . S
C3771 H3758 0.961 . S
C3771 H3759 0.959 . S
C3771 C3769 1.561 . S
C3772 C3769 1.526 . S
C3772 C3773 1.396 . S
C3772 C3777 1.390 . S
C3773 C3767 1.465 . S
C3773 C3772 1.396 . S
C3773 C3774 1.399 . S
C3774 H3760 0.929 . S
C3774 C3773 1.399 . S
C3774 C3775 1.385 . S
C3775 H3761 0.931 . S
C3775 C3774 1.385 . S
C3775 C3776 1.389 . S
C3776 C3775 1.389 . S
C3776 C3777 1.387 . S
C3777 H3762 0.930 . S
C3777 C3772 1.390 . S
C3777 C3776 1.387 . S
H3778 C3790 0.930 . S
H3779 C3792 0.930 . S
H3780 C3793 0.930 1_565 S
H3781 C3797 0.959 . S
H3782 C3797 0.959 . S
H3783 C3797 0.961 . S
H3784 C3798 0.960 . S
H3785 C3798 0.961 . S
H3786 C3798 0.959 . S
H3787 C3801 0.929 1_565 S
H3788 C3802 0.931 1_565 S
H3789 C3804 0.930 . S
C3790 H3778 0.930 . S
C3790 C3791 1.399 . S
C3790 C3795 1.399 . S
C3791 C3790 1.399 . S
C3791 C3792 1.376 . S
C3792 H3779 0.930 . S
C3792 C3791 1.376 . S
C3792 C3793 1.388 . S
C3793 H3780 0.930 1_545 S
C3793 C3792 1.388 . S
C3793 C3794 1.390 . S
C3794 C3793 1.390 . S
C3794 C3795 1.394 . S
C3794 C3800 1.465 . S
C3795 C3790 1.399 . S
C3795 C3794 1.394 . S
C3795 C3796 1.516 . S
C3796 C3795 1.516 . S
C3796 C3797 1.502 . S
C3796 C3798 1.561 . S
C3796 C3799 1.526 . S
C3797 H3781 0.959 . S
C3797 H3782 0.959 . S
C3797 H3783 0.961 . S
C3797 C3796 1.502 . S
C3798 H3784 0.960 . S
C3798 H3785 0.961 . S
C3798 H3786 0.959 . S
C3798 C3796 1.561 . S
C3799 C3796 1.526 . S
C3799 C3800 1.396 . S
C3799 C3804 1.390 . S
C3800 C3794 1.465 . S
C3800 C3799 1.396 . S
C3800 C3801 1.399 . S
C3801 H3787 0.929 1_545 S
C3801 C3800 1.399 . S
C3801 C3802 1.385 . S
C3802 H3788 0.931 1_545 S
C3802 C3801 1.385 . S
C3802 C3803 1.389 . S
C3803 C3802 1.389 . S
C3803 C3804 1.387 . S
C3804 H3789 0.930 . S
C3804 C3799 1.390 . S
C3804 C3803 1.387 . S
H3805 C3817 0.930 . S
H3806 C3819 0.930 . S
H3807 C3820 0.930 . S
H3808 C3824 0.959 . S
H3809 C3824 0.959 . S
H3810 C3824 0.961 . S
H3811 C3825 0.960 . S
H3812 C3825 0.961 . S
H3813 C3825 0.959 . S
H3814 C3828 0.929 . S
H3815 C3829 0.931 . S
H3816 C3831 0.930 . S
C3817 H3805 0.930 . S
C3817 C3818 1.399 . S
C3817 C3822 1.399 . S
C3818 C3817 1.399 . S
C3818 C3819 1.376 . S
C3819 H3806 0.930 . S
C3819 C3818 1.376 . S
C3819 C3820 1.388 . S
C3820 H3807 0.930 . S
C3820 C3819 1.388 . S
C3820 C3821 1.390 . S
C3821 C3820 1.390 . S
C3821 C3822 1.394 . S
C3821 C3827 1.465 . S
C3822 C3817 1.399 . S
C3822 C3821 1.394 . S
C3822 C3823 1.516 . S
C3823 C3822 1.516 . S
C3823 C3824 1.502 . S
C3823 C3825 1.561 . S
C3823 C3826 1.526 . S
C3824 H3808 0.959 . S
C3824 H3809 0.959 . S
C3824 H3810 0.961 . S
C3824 C3823 1.502 . S
C3825 H3811 0.960 . S
C3825 H3812 0.961 . S
C3825 H3813 0.959 . S
C3825 C3823 1.561 . S
C3826 C3823 1.526 . S
C3826 C3827 1.396 . S
C3826 C3831 1.390 . S
C3827 C3821 1.465 . S
C3827 C3826 1.396 . S
C3827 C3828 1.399 . S
C3828 H3814 0.929 . S
C3828 C3827 1.399 . S
C3828 C3829 1.385 . S
C3829 H3815 0.931 . S
C3829 C3828 1.385 . S
C3829 C3830 1.389 . S
C3830 C3829 1.389 . S
C3830 C3831 1.387 . S
C3831 H3816 0.930 . S
C3831 C3826 1.390 . S
C3831 C3830 1.387 . S
H3832 C3844 0.930 . S
H3833 C3846 0.930 . S
H3834 C3847 0.930 . S
H3835 C3851 0.959 . S
H3836 C3851 0.959 . S
H3837 C3851 0.961 . S
H3838 C3852 0.960 . S
H3839 C3852 0.961 . S
H3840 C3852 0.959 1_554 S
H3841 C3855 0.929 . S
H3842 C3856 0.931 . S
H3843 C3858 0.930 . S
C3844 H3832 0.930 . S
C3844 C3845 1.399 . S
C3844 C3849 1.399 . S
C3845 C3844 1.399 . S
C3845 C3846 1.376 . S
C3846 H3833 0.930 . S
C3846 C3845 1.376 . S
C3846 C3847 1.388 . S
C3847 H3834 0.930 . S
C3847 C3846 1.388 . S
C3847 C3848 1.390 . S
C3848 C3847 1.390 . S
C3848 C3849 1.394 . S
C3848 C3854 1.465 . S
C3849 C3844 1.399 . S
C3849 C3848 1.394 . S
C3849 C3850 1.516 . S
C3850 C3849 1.516 . S
C3850 C3851 1.502 1_554 S
C3850 C3852 1.561 1_554 S
C3850 C3853 1.526 . S
C3851 H3835 0.959 . S
C3851 H3836 0.959 . S
C3851 H3837 0.961 . S
C3851 C3850 1.502 1_556 S
C3852 H3838 0.960 . S
C3852 H3839 0.961 . S
C3852 H3840 0.959 1_556 S
C3852 C3850 1.561 1_556 S
C3853 C3850 1.526 . S
C3853 C3854 1.396 . S
C3853 C3858 1.390 1_554 S
C3854 C3848 1.465 . S
C3854 C3853 1.396 . S
C3854 C3855 1.399 . S
C3855 H3841 0.929 . S
C3855 C3854 1.399 . S
C3855 C3856 1.385 . S
C3856 H3842 0.931 . S
C3856 C3855 1.385 . S
C3856 C3857 1.389 . S
C3857 C3856 1.389 . S
C3857 C3858 1.387 1_554 S
C3858 H3843 0.930 . S
C3858 C3853 1.390 1_556 S
C3858 C3857 1.387 1_556 S
H3859 C3871 0.930 . S
H3860 C3873 0.930 . S
H3861 C3874 0.930 1_556 S
H3862 C3878 0.959 . S
H3863 C3878 0.959 . S
H3864 C3878 0.961 . S
H3865 C3879 0.960 . S
H3866 C3879 0.961 . S
H3867 C3879 0.959 . S
H3868 C3882 0.929 1_556 S
H3869 C3883 0.931 1_556 S
H3870 C3885 0.930 . S
C3871 H3859 0.930 . S
C3871 C3872 1.399 . S
C3871 C3876 1.399 . S
C3872 C3871 1.399 . S
C3872 C3873 1.376 . S
C3873 H3860 0.930 . S
C3873 C3872 1.376 . S
C3873 C3874 1.388 . S
C3874 H3861 0.930 1_554 S
C3874 C3873 1.388 . S
C3874 C3875 1.390 . S
C3875 C3874 1.390 . S
C3875 C3876 1.394 . S
C3875 C3881 1.465 . S
C3876 C3871 1.399 . S
C3876 C3875 1.394 . S
C3876 C3877 1.516 . S
C3877 C3876 1.516 . S
C3877 C3878 1.502 . S
C3877 C3879 1.561 . S
C3877 C3880 1.526 . S
C3878 H3862 0.959 . S
C3878 H3863 0.959 . S
C3878 H3864 0.961 . S
C3878 C3877 1.502 . S
C3879 H3865 0.960 . S
C3879 H3866 0.961 . S
C3879 H3867 0.959 . S
C3879 C3877 1.561 . S
C3880 C3877 1.526 . S
C3880 C3881 1.396 . S
C3880 C3885 1.390 . S
C3881 C3875 1.465 . S
C3881 C3880 1.396 . S
C3881 C3882 1.399 . S
C3882 H3868 0.929 1_554 S
C3882 C3881 1.399 . S
C3882 C3883 1.385 . S
C3883 H3869 0.931 1_554 S
C3883 C3882 1.385 . S
C3883 C3884 1.389 . S
C3884 C3883 1.389 . S
C3884 C3885 1.387 . S
C3885 H3870 0.930 . S
C3885 C3880 1.390 . S
C3885 C3884 1.387 . S
H3886 C3898 0.930 . S
H3887 C3900 0.930 . S
H3888 C3901 0.930 . S
H3889 C3905 0.959 . S
H3890 C3905 0.959 . S
H3891 C3905 0.961 . S
H3892 C3906 0.960 . S
H3893 C3906 0.961 . S
H3894 C3906 0.959 . S
H3895 C3909 0.929 . S
H3896 C3910 0.931 . S
H3897 C3912 0.930 . S
C3898 H3886 0.930 . S
C3898 C3899 1.399 . S
C3898 C3903 1.399 . S
C3899 C3898 1.399 . S
C3899 C3900 1.376 . S
C3900 H3887 0.930 . S
C3900 C3899 1.376 . S
C3900 C3901 1.388 . S
C3901 H3888 0.930 . S
C3901 C3900 1.388 . S
C3901 C3902 1.390 . S
C3902 C3901 1.390 . S
C3902 C3903 1.394 . S
C3902 C3908 1.465 . S
C3903 C3898 1.399 . S
C3903 C3902 1.394 . S
C3903 C3904 1.516 . S
C3904 C3903 1.516 . S
C3904 C3905 1.502 . S
C3904 C3906 1.561 . S
C3904 C3907 1.526 . S
C3905 H3889 0.959 . S
C3905 H3890 0.959 . S
C3905 H3891 0.961 . S
C3905 C3904 1.502 . S
C3906 H3892 0.960 . S
C3906 H3893 0.961 . S
C3906 H3894 0.959 . S
C3906 C3904 1.561 . S
C3907 C3904 1.526 . S
C3907 C3908 1.396 . S
C3907 C3912 1.390 . S
C3908 C3902 1.465 . S
C3908 C3907 1.396 . S
C3908 C3909 1.399 . S
C3909 H3895 0.929 . S
C3909 C3908 1.399 . S
C3909 C3910 1.385 . S
C3910 H3896 0.931 . S
C3910 C3909 1.385 . S
C3910 C3911 1.389 . S
C3911 C3910 1.389 . S
C3911 C3912 1.387 . S
C3912 H3897 0.930 . S
C3912 C3907 1.390 . S
C3912 C3911 1.387 . S
H3913 C3925 0.930 . S
H3914 C3927 0.930 . S
H3915 C3928 0.930 . S
H3916 C3932 0.959 . S
H3917 C3932 0.959 . S
H3918 C3932 0.961 . S
H3919 C3933 0.960 . S
H3920 C3933 0.961 . S
H3921 C3933 0.959 . S
H3922 C3936 0.929 . S
H3923 C3937 0.931 . S
H3924 C3939 0.930 . S
C3925 H3913 0.930 . S
C3925 C3926 1.399 . S
C3925 C3930 1.399 . S
C3926 C3925 1.399 . S
C3926 C3927 1.376 . S
C3927 H3914 0.930 . S
C3927 C3926 1.376 . S
C3927 C3928 1.388 . S
C3928 H3915 0.930 . S
C3928 C3927 1.388 . S
C3928 C3929 1.390 . S
C3929 C3928 1.390 . S
C3929 C3930 1.394 . S
C3929 C3935 1.465 . S
C3930 C3925 1.399 . S
C3930 C3929 1.394 . S
C3930 C3931 1.516 . S
C3931 C3930 1.516 . S
C3931 C3932 1.502 . S
C3931 C3933 1.561 . S
C3931 C3934 1.526 . S
C3932 H3916 0.959 . S
C3932 H3917 0.959 . S
C3932 H3918 0.961 . S
C3932 C3931 1.502 . S
C3933 H3919 0.960 . S
C3933 H3920 0.961 . S
C3933 H3921 0.959 . S
C3933 C3931 1.561 . S
C3934 C3931 1.526 . S
C3934 C3935 1.396 . S
C3934 C3939 1.390 . S
C3935 C3929 1.465 . S
C3935 C3934 1.396 . S
C3935 C3936 1.399 . S
C3936 H3922 0.929 . S
C3936 C3935 1.399 . S
C3936 C3937 1.385 . S
C3937 H3923 0.931 . S
C3937 C3936 1.385 . S
C3937 C3938 1.389 . S
C3938 C3937 1.389 . S
C3938 C3939 1.387 . S
C3939 H3924 0.930 . S
C3939 C3934 1.390 . S
C3939 C3938 1.387 . S
H3940 C3952 0.930 . S
H3941 C3954 0.930 . S
H3942 C3955 0.930 . S
H3943 C3959 0.959 . S
H3944 C3959 0.959 . S
H3945 C3959 0.961 . S
H3946 C3960 0.960 . S
H3947 C3960 0.961 . S
H3948 C3960 0.959 . S
H3949 C3963 0.929 . S
H3950 C3964 0.931 . S
H3951 C3966 0.930 . S
C3952 H3940 0.930 . S
C3952 C3953 1.399 . S
C3952 C3957 1.399 . S
C3953 C3952 1.399 . S
C3953 C3954 1.376 . S
C3954 H3941 0.930 . S
C3954 C3953 1.376 . S
C3954 C3955 1.388 . S
C3955 H3942 0.930 . S
C3955 C3954 1.388 . S
C3955 C3956 1.390 . S
C3956 C3955 1.390 . S
C3956 C3957 1.394 . S
C3956 C3962 1.465 . S
C3957 C3952 1.399 . S
C3957 C3956 1.394 . S
C3957 C3958 1.516 . S
C3958 C3957 1.516 . S
C3958 C3959 1.502 . S
C3958 C3960 1.561 . S
C3958 C3961 1.526 . S
C3959 H3943 0.959 . S
C3959 H3944 0.959 . S
C3959 H3945 0.961 . S
C3959 C3958 1.502 . S
C3960 H3946 0.960 . S
C3960 H3947 0.961 . S
C3960 H3948 0.959 . S
C3960 C3958 1.561 . S
C3961 C3958 1.526 . S
C3961 C3962 1.396 . S
C3961 C3966 1.390 . S
C3962 C3956 1.465 . S
C3962 C3961 1.396 . S
C3962 C3963 1.399 . S
C3963 H3949 0.929 . S
C3963 C3962 1.399 . S
C3963 C3964 1.385 . S
C3964 H3950 0.931 . S
C3964 C3963 1.385 . S
C3964 C3965 1.389 . S
C3965 C3964 1.389 . S
C3965 C3966 1.387 . S
C3966 H3951 0.930 . S
C3966 C3961 1.390 . S
C3966 C3965 1.387 . S
H3967 C3979 0.930 . S
H3968 C3981 0.930 . S
H3969 C3982 0.930 . S
H3970 C3986 0.959 . S
H3971 C3986 0.959 . S
H3972 C3986 0.961 . S
H3973 C3987 0.960 . S
H3974 C3987 0.961 . S
H3975 C3987 0.959 . S
H3976 C3990 0.929 . S
H3977 C3991 0.931 . S
H3978 C3993 0.930 . S
C3979 H3967 0.930 . S
C3979 C3980 1.399 . S
C3979 C3984 1.399 . S
C3980 C3979 1.399 . S
C3980 C3981 1.376 . S
C3981 H3968 0.930 . S
C3981 C3980 1.376 . S
C3981 C3982 1.388 . S
C3982 H3969 0.930 . S
C3982 C3981 1.388 . S
C3982 C3983 1.390 . S
C3983 C3982 1.390 . S
C3983 C3984 1.394 . S
C3983 C3989 1.465 . S
C3984 C3979 1.399 . S
C3984 C3983 1.394 . S
C3984 C3985 1.516 . S
C3985 C3984 1.516 . S
C3985 C3986 1.502 . S
C3985 C3987 1.561 . S
C3985 C3988 1.526 . S
C3986 H3970 0.959 . S
C3986 H3971 0.959 . S
C3986 H3972 0.961 . S
C3986 C3985 1.502 . S
C3987 H3973 0.960 . S
C3987 H3974 0.961 . S
C3987 H3975 0.959 . S
C3987 C3985 1.561 . S
C3988 C3985 1.526 . S
C3988 C3989 1.396 . S
C3988 C3993 1.390 . S
C3989 C3983 1.465 . S
C3989 C3988 1.396 . S
C3989 C3990 1.399 . S
C3990 H3976 0.929 . S
C3990 C3989 1.399 . S
C3990 C3991 1.385 . S
C3991 H3977 0.931 . S
C3991 C3990 1.385 . S
C3991 C3992 1.389 . S
C3992 C3991 1.389 . S
C3992 C3993 1.387 . S
C3993 H3978 0.930 . S
C3993 C3988 1.390 . S
C3993 C3992 1.387 . S
H3994 C4006 0.930 . S
H3995 C4008 0.930 . S
H3996 C4009 0.930 . S
H3997 C4013 0.959 . S
H3998 C4013 0.959 . S
H3999 C4013 0.961 . S
H4000 C4014 0.960 . S
H4001 C4014 0.961 . S
H4002 C4014 0.959 . S
H4003 C4017 0.929 . S
H4004 C4018 0.931 . S
H4005 C4020 0.930 . S
C4006 H3994 0.930 . S
C4006 C4007 1.399 . S
C4006 C4011 1.399 . S
C4007 C4006 1.399 . S
C4007 C4008 1.376 . S
C4008 H3995 0.930 . S
C4008 C4007 1.376 . S
C4008 C4009 1.388 . S
C4009 H3996 0.930 . S
C4009 C4008 1.388 . S
C4009 C4010 1.390 . S
C4010 C4009 1.390 . S
C4010 C4011 1.394 . S
C4010 C4016 1.465 . S
C4011 C4006 1.399 . S
C4011 C4010 1.394 . S
C4011 C4012 1.516 . S
C4012 C4011 1.516 . S
C4012 C4013 1.502 . S
C4012 C4014 1.561 . S
C4012 C4015 1.526 . S
C4013 H3997 0.959 . S
C4013 H3998 0.959 . S
C4013 H3999 0.961 . S
C4013 C4012 1.502 . S
C4014 H4000 0.960 . S
C4014 H4001 0.961 . S
C4014 H4002 0.959 . S
C4014 C4012 1.561 . S
C4015 C4012 1.526 . S
C4015 C4016 1.396 . S
C4015 C4020 1.390 . S
C4016 C4010 1.465 . S
C4016 C4015 1.396 . S
C4016 C4017 1.399 . S
C4017 H4003 0.929 . S
C4017 C4016 1.399 . S
C4017 C4018 1.385 . S
C4018 H4004 0.931 . S
C4018 C4017 1.385 . S
C4018 C4019 1.389 . S
C4019 C4018 1.389 . S
C4019 C4020 1.387 . S
C4020 H4005 0.930 . S
C4020 C4015 1.390 . S
C4020 C4019 1.387 . S
H4021 C4033 0.930 . S
H4022 C4035 0.930 . S
H4023 C4036 0.930 . S
H4024 C4040 0.959 . S
H4025 C4040 0.959 . S
H4026 C4040 0.961 . S
H4027 C4041 0.960 . S
H4028 C4041 0.961 . S
H4029 C4041 0.959 . S
H4030 C4044 0.929 . S
H4031 C4045 0.931 . S
H4032 C4047 0.930 . S
C4033 H4021 0.930 . S
C4033 C4034 1.399 . S
C4033 C4038 1.399 . S
C4034 C4033 1.399 . S
C4034 C4035 1.376 . S
C4035 H4022 0.930 . S
C4035 C4034 1.376 . S
C4035 C4036 1.388 . S
C4036 H4023 0.930 . S
C4036 C4035 1.388 . S
C4036 C4037 1.390 . S
C4037 C4036 1.390 . S
C4037 C4038 1.394 . S
C4037 C4043 1.465 . S
C4038 C4033 1.399 . S
C4038 C4037 1.394 . S
C4038 C4039 1.516 . S
C4039 C4038 1.516 . S
C4039 C4040 1.502 . S
C4039 C4041 1.561 . S
C4039 C4042 1.526 . S
C4040 H4024 0.959 . S
C4040 H4025 0.959 . S
C4040 H4026 0.961 . S
C4040 C4039 1.502 . S
C4041 H4027 0.960 . S
C4041 H4028 0.961 . S
C4041 H4029 0.959 . S
C4041 C4039 1.561 . S
C4042 C4039 1.526 . S
C4042 C4043 1.396 . S
C4042 C4047 1.390 . S
C4043 C4037 1.465 . S
C4043 C4042 1.396 . S
C4043 C4044 1.399 . S
C4044 H4030 0.929 . S
C4044 C4043 1.399 . S
C4044 C4045 1.385 . S
C4045 H4031 0.931 . S
C4045 C4044 1.385 . S
C4045 C4046 1.389 . S
C4046 C4045 1.389 . S
C4046 C4047 1.387 . S
C4047 H4032 0.930 . S
C4047 C4042 1.390 . S
C4047 C4046 1.387 . S
H4048 C4060 0.930 . S
H4049 C4062 0.930 . S
H4050 C4063 0.930 . S
H4051 C4067 0.959 . S
H4052 C4067 0.959 . S
H4053 C4067 0.961 . S
H4054 C4068 0.960 . S
H4055 C4068 0.961 . S
H4056 C4068 0.959 . S
H4057 C4071 0.929 . S
H4058 C4072 0.931 . S
H4059 C4074 0.930 . S
C4060 H4048 0.930 . S
C4060 C4061 1.399 . S
C4060 C4065 1.399 . S
C4061 C4060 1.399 . S
C4061 C4062 1.376 . S
C4062 H4049 0.930 . S
C4062 C4061 1.376 . S
C4062 C4063 1.388 . S
C4063 H4050 0.930 . S
C4063 C4062 1.388 . S
C4063 C4064 1.390 . S
C4064 C4063 1.390 . S
C4064 C4065 1.394 . S
C4064 C4070 1.465 . S
C4065 C4060 1.399 . S
C4065 C4064 1.394 . S
C4065 C4066 1.516 . S
C4066 C4065 1.516 . S
C4066 C4067 1.502 . S
C4066 C4068 1.561 . S
C4066 C4069 1.526 . S
C4067 H4051 0.959 . S
C4067 H4052 0.959 . S
C4067 H4053 0.961 . S
C4067 C4066 1.502 . S
C4068 H4054 0.960 . S
C4068 H4055 0.961 . S
C4068 H4056 0.959 . S
C4068 C4066 1.561 . S
C4069 C4066 1.526 . S
C4069 C4070 1.396 . S
C4069 C4074 1.390 . S
C4070 C4064 1.465 . S
C4070 C4069 1.396 . S
C4070 C4071 1.399 . S
C4071 H4057 0.929 . S
C4071 C4070 1.399 . S
C4071 C4072 1.385 . S
C4072 H4058 0.931 . S
C4072 C4071 1.385 . S
C4072 C4073 1.389 . S
C4073 C4072 1.389 . S
C4073 C4074 1.387 . S
C4074 H4059 0.930 . S
C4074 C4069 1.390 . S
C4074 C4073 1.387 . S
H4075 C4087 0.930 . S
H4076 C4089 0.930 . S
H4077 C4090 0.930 . S
H4078 C4094 0.959 . S
H4079 C4094 0.959 . S
H4080 C4094 0.961 . S
H4081 C4095 0.960 . S
H4082 C4095 0.961 . S
H4083 C4095 0.959 . S
H4084 C4098 0.929 . S
H4085 C4099 0.931 . S
H4086 C4101 0.930 . S
C4087 H4075 0.930 . S
C4087 C4088 1.399 . S
C4087 C4092 1.399 . S
C4088 C4087 1.399 . S
C4088 C4089 1.376 . S
C4089 H4076 0.930 . S
C4089 C4088 1.376 . S
C4089 C4090 1.388 . S
C4090 H4077 0.930 . S
C4090 C4089 1.388 . S
C4090 C4091 1.390 . S
C4091 C4090 1.390 . S
C4091 C4092 1.394 . S
C4091 C4097 1.465 . S
C4092 C4087 1.399 . S
C4092 C4091 1.394 . S
C4092 C4093 1.516 . S
C4093 C4092 1.516 . S
C4093 C4094 1.502 . S
C4093 C4095 1.561 . S
C4093 C4096 1.526 . S
C4094 H4078 0.959 . S
C4094 H4079 0.959 . S
C4094 H4080 0.961 . S
C4094 C4093 1.502 . S
C4095 H4081 0.960 . S
C4095 H4082 0.961 . S
C4095 H4083 0.959 . S
C4095 C4093 1.561 . S
C4096 C4093 1.526 . S
C4096 C4097 1.396 . S
C4096 C4101 1.390 . S
C4097 C4091 1.465 . S
C4097 C4096 1.396 . S
C4097 C4098 1.399 . S
C4098 H4084 0.929 . S
C4098 C4097 1.399 . S
C4098 C4099 1.385 . S
C4099 H4085 0.931 . S
C4099 C4098 1.385 . S
C4099 C4100 1.389 . S
C4100 C4099 1.389 . S
C4100 C4101 1.387 . S
C4101 H4086 0.930 . S
C4101 C4096 1.390 . S
C4101 C4100 1.387 . S
H4102 C4114 0.957 . S
H4103 C4116 0.930 . S
H4104 C4117 0.930 . S
H4105 C4121 0.959 . S
H4106 C4121 0.959 . S
H4107 C4121 0.961 . S
H4108 C4122 0.960 . S
H4109 C4122 0.961 . S
H4110 C4122 0.959 . S
H4111 C4125 0.929 . S
H4112 C4126 0.931 . S
H4113 C4128 0.930 . S
C4114 H4102 0.957 . S
C4114 C4115 1.370 1_554 S
C4114 C4119 1.401 . S
C4115 C4114 1.370 1_556 S
C4115 C4116 1.376 . S
C4116 H4103 0.930 . S
C4116 C4115 1.376 . S
C4116 C4117 1.388 . S
C4117 H4104 0.930 . S
C4117 C4116 1.388 . S
C4117 C4118 1.390 . S
C4118 C4117 1.390 . S
C4118 C4119 1.394 1_556 S
C4118 C4124 1.465 . S
C4119 C4114 1.401 . S
C4119 C4118 1.394 1_554 S
C4119 C4120 1.516 . S
C4120 C4119 1.516 . S
C4120 C4121 1.502 1_455 S
C4120 C4122 1.561 . S
C4120 C4123 1.526 . S
C4121 H4105 0.959 . S
C4121 H4106 0.959 . S
C4121 H4107 0.961 . S
C4121 C4120 1.502 1_655 S
C4122 H4108 0.960 . S
C4122 H4109 0.961 . S
C4122 H4110 0.959 . S
C4122 C4120 1.561 . S
C4123 C4120 1.526 . S
C4123 C4124 1.396 1_554 S
C4123 C4128 1.390 . S
C4124 C4118 1.465 . S
C4124 C4123 1.396 1_556 S
C4124 C4125 1.399 . S
C4125 H4111 0.929 . S
C4125 C4124 1.399 . S
C4125 C4126 1.385 . S
C4126 H4112 0.931 . S
C4126 C4125 1.385 . S
C4126 C4127 1.389 1_556 S
C4127 C4126 1.389 1_554 S
C4127 C4128 1.387 . S
C4128 H4113 0.930 . S
C4128 C4123 1.390 . S
C4128 C4127 1.387 . S
H4129 C4141 0.930 . S
H4130 C4143 0.930 . S
H4131 C4144 0.930 . S
H4132 C4148 0.959 . S
H4133 C4148 0.959 . S
H4134 C4148 0.961 . S
H4135 C4149 0.960 . S
H4136 C4149 0.961 . S
H4137 C4149 0.959 . S
H4138 C4152 0.929 . S
H4139 C4153 0.931 . S
H4140 C4155 0.930 . S
C4141 H4129 0.930 . S
C4141 C4142 1.399 . S
C4141 C4146 1.399 . S
C4142 C4141 1.399 . S
C4142 C4143 1.376 . S
C4143 H4130 0.930 . S
C4143 C4142 1.376 . S
C4143 C4144 1.388 . S
C4144 H4131 0.930 . S
C4144 C4143 1.388 . S
C4144 C4145 1.390 . S
C4145 C4144 1.390 . S
C4145 C4146 1.394 . S
C4145 C4151 1.465 . S
C4146 C4141 1.399 . S
C4146 C4145 1.394 . S
C4146 C4147 1.516 . S
C4147 C4146 1.516 . S
C4147 C4148 1.502 . S
C4147 C4149 1.561 . S
C4147 C4150 1.526 . S
C4148 H4132 0.959 . S
C4148 H4133 0.959 . S
C4148 H4134 0.961 . S
C4148 C4147 1.502 . S
C4149 H4135 0.960 . S
C4149 H4136 0.961 . S
C4149 H4137 0.959 . S
C4149 C4147 1.561 . S
C4150 C4147 1.526 . S
C4150 C4151 1.396 . S
C4150 C4155 1.390 . S
C4151 C4145 1.465 . S
C4151 C4150 1.396 . S
C4151 C4152 1.399 . S
C4152 H4138 0.929 . S
C4152 C4151 1.399 . S
C4152 C4153 1.385 . S
C4153 H4139 0.931 . S
C4153 C4152 1.385 . S
C4153 C4154 1.389 . S
C4154 C4153 1.389 . S
C4154 C4155 1.387 . S
C4155 H4140 0.930 . S
C4155 C4150 1.390 . S
C4155 C4154 1.387 . S
H4156 C4168 0.930 . S
H4157 C4170 0.930 . S
H4158 C4171 0.930 . S
H4159 C4175 0.959 . S
H4160 C4175 0.959 . S
H4161 C4175 0.961 . S
H4162 C4176 0.960 . S
H4163 C4176 0.961 . S
H4164 C4176 0.959 . S
H4165 C4179 0.929 . S
H4166 C4180 0.931 . S
H4167 C4182 0.930 . S
C4168 H4156 0.930 . S
C4168 C4169 1.399 . S
C4168 C4173 1.399 . S
C4169 C4168 1.399 . S
C4169 C4170 1.376 . S
C4170 H4157 0.930 . S
C4170 C4169 1.376 . S
C4170 C4171 1.388 . S
C4171 H4158 0.930 . S
C4171 C4170 1.388 . S
C4171 C4172 1.390 . S
C4172 C4171 1.390 . S
C4172 C4173 1.394 . S
C4172 C4178 1.465 . S
C4173 C4168 1.399 . S
C4173 C4172 1.394 . S
C4173 C4174 1.516 . S
C4174 C4173 1.516 . S
C4174 C4175 1.502 . S
C4174 C4176 1.561 . S
C4174 C4177 1.526 . S
C4175 H4159 0.959 . S
C4175 H4160 0.959 . S
C4175 H4161 0.961 . S
C4175 C4174 1.502 . S
C4176 H4162 0.960 . S
C4176 H4163 0.961 . S
C4176 H4164 0.959 . S
C4176 C4174 1.561 . S
C4177 C4174 1.526 . S
C4177 C4178 1.396 . S
C4177 C4182 1.390 . S
C4178 C4172 1.465 . S
C4178 C4177 1.396 . S
C4178 C4179 1.399 . S
C4179 H4165 0.929 . S
C4179 C4178 1.399 . S
C4179 C4180 1.385 . S
C4180 H4166 0.931 . S
C4180 C4179 1.385 . S
C4180 C4181 1.389 . S
C4181 C4180 1.389 . S
C4181 C4182 1.387 . S
C4182 H4167 0.930 . S
C4182 C4177 1.390 . S
C4182 C4181 1.387 . S
H4183 C4195 0.930 . S
H4184 C4197 0.930 . S
H4185 C4198 0.930 . S
H4186 C4202 0.959 . S
H4187 C4202 0.959 . S
H4188 C4202 0.961 . S
H4189 C4203 0.960 . S
H4190 C4203 0.961 . S
H4191 C4203 0.959 . S
H4192 C4206 0.929 . S
H4193 C4207 0.931 . S
H4194 C4209 0.930 . S
C4195 H4183 0.930 . S
C4195 C4196 1.399 . S
C4195 C4200 1.399 . S
C4196 C4195 1.399 . S
C4196 C4197 1.376 . S
C4197 H4184 0.930 . S
C4197 C4196 1.376 . S
C4197 C4198 1.388 . S
C4198 H4185 0.930 . S
C4198 C4197 1.388 . S
C4198 C4199 1.390 . S
C4199 C4198 1.390 . S
C4199 C4200 1.394 . S
C4199 C4205 1.465 . S
C4200 C4195 1.399 . S
C4200 C4199 1.394 . S
C4200 C4201 1.516 . S
C4201 C4200 1.516 . S
C4201 C4202 1.502 . S
C4201 C4203 1.561 . S
C4201 C4204 1.526 . S
C4202 H4186 0.959 . S
C4202 H4187 0.959 . S
C4202 H4188 0.961 . S
C4202 C4201 1.502 . S
C4203 H4189 0.960 . S
C4203 H4190 0.961 . S
C4203 H4191 0.959 . S
C4203 C4201 1.561 . S
C4204 C4201 1.526 . S
C4204 C4205 1.396 . S
C4204 C4209 1.390 . S
C4205 C4199 1.465 . S
C4205 C4204 1.396 . S
C4205 C4206 1.399 . S
C4206 H4192 0.929 . S
C4206 C4205 1.399 . S
C4206 C4207 1.385 . S
C4207 H4193 0.931 . S
C4207 C4206 1.385 . S
C4207 C4208 1.389 . S
C4208 C4207 1.389 . S
C4208 C4209 1.387 . S
C4209 H4194 0.930 . S
C4209 C4204 1.390 . S
C4209 C4208 1.387 . S
H4210 C4222 0.930 . S
H4211 C4224 0.930 . S
H4212 C4225 0.930 1_655 S
H4213 C4229 0.959 . S
H4214 C4229 0.959 . S
H4215 C4229 0.961 . S
H4216 C4230 0.960 . S
H4217 C4230 0.961 . S
H4218 C4230 0.959 . S
H4219 C4233 0.929 1_655 S
H4220 C4234 0.931 . S
H4221 C4236 0.930 . S
C4222 H4210 0.930 . S
C4222 C4223 1.399 . S
C4222 C4227 1.399 . S
C4223 C4222 1.399 . S
C4223 C4224 1.376 . S
C4224 H4211 0.930 . S
C4224 C4223 1.376 . S
C4224 C4225 1.388 . S
C4225 H4212 0.930 1_455 S
C4225 C4224 1.388 . S
C4225 C4226 1.390 . S
C4226 C4225 1.390 . S
C4226 C4227 1.394 . S
C4226 C4232 1.465 . S
C4227 C4222 1.399 . S
C4227 C4226 1.394 . S
C4227 C4228 1.516 . S
C4228 C4227 1.516 . S
C4228 C4229 1.502 . S
C4228 C4230 1.561 . S
C4228 C4231 1.526 . S
C4229 H4213 0.959 . S
C4229 H4214 0.959 . S
C4229 H4215 0.961 . S
C4229 C4228 1.502 . S
C4230 H4216 0.960 . S
C4230 H4217 0.961 . S
C4230 H4218 0.959 . S
C4230 C4228 1.561 . S
C4231 C4228 1.526 . S
C4231 C4232 1.396 . S
C4231 C4236 1.390 . S
C4232 C4226 1.465 . S
C4232 C4231 1.396 . S
C4232 C4233 1.399 . S
C4233 H4219 0.929 1_455 S
C4233 C4232 1.399 . S
C4233 C4234 1.385 . S
C4234 H4220 0.931 . S
C4234 C4233 1.385 . S
C4234 C4235 1.389 . S
C4235 C4234 1.389 . S
C4235 C4236 1.387 . S
C4236 H4221 0.930 . S
C4236 C4231 1.390 . S
C4236 C4235 1.387 . S
H4237 C4249 0.930 . S
H4238 C4251 0.930 . S
H4239 C4252 0.930 . S
H4240 C4256 0.959 . S
H4241 C4256 0.959 . S
H4242 C4256 0.961 . S
H4243 C4257 0.960 . S
H4244 C4257 0.961 . S
H4245 C4257 0.959 . S
H4246 C4260 0.929 . S
H4247 C4261 0.931 . S
H4248 C4263 0.930 . S
C4249 H4237 0.930 . S
C4249 C4250 1.399 . S
C4249 C4254 1.399 . S
C4250 C4249 1.399 . S
C4250 C4251 1.376 . S
C4251 H4238 0.930 . S
C4251 C4250 1.376 . S
C4251 C4252 1.388 . S
C4252 H4239 0.930 . S
C4252 C4251 1.388 . S
C4252 C4253 1.390 . S
C4253 C4252 1.390 . S
C4253 C4254 1.394 . S
C4253 C4259 1.465 . S
C4254 C4249 1.399 . S
C4254 C4253 1.394 . S
C4254 C4255 1.516 . S
C4255 C4254 1.516 . S
C4255 C4256 1.502 . S
C4255 C4257 1.561 . S
C4255 C4258 1.526 . S
C4256 H4240 0.959 . S
C4256 H4241 0.959 . S
C4256 H4242 0.961 . S
C4256 C4255 1.502 . S
C4257 H4243 0.960 . S
C4257 H4244 0.961 . S
C4257 H4245 0.959 . S
C4257 C4255 1.561 . S
C4258 C4255 1.526 . S
C4258 C4259 1.396 . S
C4258 C4263 1.390 . S
C4259 C4253 1.465 . S
C4259 C4258 1.396 . S
C4259 C4260 1.399 . S
C4260 H4246 0.929 . S
C4260 C4259 1.399 . S
C4260 C4261 1.385 . S
C4261 H4247 0.931 . S
C4261 C4260 1.385 . S
C4261 C4262 1.389 . S
C4262 C4261 1.389 . S
C4262 C4263 1.387 . S
C4263 H4248 0.930 . S
C4263 C4258 1.390 . S
C4263 C4262 1.387 . S
H4264 C4276 0.930 . S
H4265 C4278 0.930 . S
H4266 C4279 0.930 . S
H4267 C4283 0.959 . S
H4268 C4283 0.959 . S
H4269 C4283 0.961 . S
H4270 C4284 0.960 . S
H4271 C4284 0.961 . S
H4272 C4284 0.959 . S
H4273 C4287 0.929 . S
H4274 C4288 0.931 . S
H4275 C4290 0.930 . S
C4276 H4264 0.930 . S
C4276 C4277 1.399 . S
C4276 C4281 1.399 . S
C4277 C4276 1.399 . S
C4277 C4278 1.376 . S
C4278 H4265 0.930 . S
C4278 C4277 1.376 . S
C4278 C4279 1.388 . S
C4279 H4266 0.930 . S
C4279 C4278 1.388 . S
C4279 C4280 1.390 . S
C4280 C4279 1.390 . S
C4280 C4281 1.394 . S
C4280 C4286 1.465 . S
C4281 C4276 1.399 . S
C4281 C4280 1.394 . S
C4281 C4282 1.516 . S
C4282 C4281 1.516 . S
C4282 C4283 1.502 . S
C4282 C4284 1.561 . S
C4282 C4285 1.526 . S
C4283 H4267 0.959 . S
C4283 H4268 0.959 . S
C4283 H4269 0.961 . S
C4283 C4282 1.502 . S
C4284 H4270 0.960 . S
C4284 H4271 0.961 . S
C4284 H4272 0.959 . S
C4284 C4282 1.561 . S
C4285 C4282 1.526 . S
C4285 C4286 1.396 . S
C4285 C4290 1.390 . S
C4286 C4280 1.465 . S
C4286 C4285 1.396 . S
C4286 C4287 1.399 . S
C4287 H4273 0.929 . S
C4287 C4286 1.399 . S
C4287 C4288 1.385 . S
C4288 H4274 0.931 . S
C4288 C4287 1.385 . S
C4288 C4289 1.389 . S
C4289 C4288 1.389 . S
C4289 C4290 1.387 . S
C4290 H4275 0.930 . S
C4290 C4285 1.390 . S
C4290 C4289 1.387 . S
H4291 C4303 0.930 . S
H4292 C4305 0.930 . S
H4293 C4306 0.930 . S
H4294 C4310 0.959 . S
H4295 C4310 0.959 . S
H4296 C4310 0.961 . S
H4297 C4311 0.960 . S
H4298 C4311 0.961 . S
H4299 C4311 0.959 . S
H4300 C4314 0.929 . S
H4301 C4315 0.931 . S
H4302 C4317 0.930 . S
C4303 H4291 0.930 . S
C4303 C4304 1.399 . S
C4303 C4308 1.399 . S
C4304 C4303 1.399 . S
C4304 C4305 1.376 . S
C4305 H4292 0.930 . S
C4305 C4304 1.376 . S
C4305 C4306 1.388 . S
C4306 H4293 0.930 . S
C4306 C4305 1.388 . S
C4306 C4307 1.390 . S
C4307 C4306 1.390 . S
C4307 C4308 1.394 . S
C4307 C4313 1.465 . S
C4308 C4303 1.399 . S
C4308 C4307 1.394 . S
C4308 C4309 1.516 . S
C4309 C4308 1.516 . S
C4309 C4310 1.502 . S
C4309 C4311 1.561 . S
C4309 C4312 1.526 . S
C4310 H4294 0.959 . S
C4310 H4295 0.959 . S
C4310 H4296 0.961 . S
C4310 C4309 1.502 . S
C4311 H4297 0.960 . S
C4311 H4298 0.961 . S
C4311 H4299 0.959 . S
C4311 C4309 1.561 . S
C4312 C4309 1.526 . S
C4312 C4313 1.396 . S
C4312 C4317 1.390 . S
C4313 C4307 1.465 . S
C4313 C4312 1.396 . S
C4313 C4314 1.399 . S
C4314 H4300 0.929 . S
C4314 C4313 1.399 . S
C4314 C4315 1.385 . S
C4315 H4301 0.931 . S
C4315 C4314 1.385 . S
C4315 C4316 1.389 . S
C4316 C4315 1.389 . S
C4316 C4317 1.387 . S
C4317 H4302 0.930 . S
C4317 C4312 1.390 . S
C4317 C4316 1.387 . S
H4318 C4330 0.930 . S
H4319 C4332 0.930 . S
H4320 C4333 0.930 . S
H4321 C4337 0.959 . S
H4322 C4337 0.959 . S
H4323 C4337 0.961 . S
H4324 C4338 0.960 . S
H4325 C4338 0.961 . S
H4326 C4338 0.959 . S
H4327 C4341 0.929 . S
H4328 C4342 0.931 . S
H4329 C4344 0.930 . S
C4330 H4318 0.930 . S
C4330 C4331 1.399 . S
C4330 C4335 1.399 . S
C4331 C4330 1.399 . S
C4331 C4332 1.376 . S
C4332 H4319 0.930 . S
C4332 C4331 1.376 . S
C4332 C4333 1.388 . S
C4333 H4320 0.930 . S
C4333 C4332 1.388 . S
C4333 C4334 1.390 . S
C4334 C4333 1.390 . S
C4334 C4335 1.394 . S
C4334 C4340 1.465 . S
C4335 C4330 1.399 . S
C4335 C4334 1.394 . S
C4335 C4336 1.516 . S
C4336 C4335 1.516 . S
C4336 C4337 1.502 . S
C4336 C4338 1.561 . S
C4336 C4339 1.526 . S
C4337 H4321 0.959 . S
C4337 H4322 0.959 . S
C4337 H4323 0.961 . S
C4337 C4336 1.502 . S
C4338 H4324 0.960 . S
C4338 H4325 0.961 . S
C4338 H4326 0.959 . S
C4338 C4336 1.561 . S
C4339 C4336 1.526 . S
C4339 C4340 1.396 . S
C4339 C4344 1.390 . S
C4340 C4334 1.465 . S
C4340 C4339 1.396 . S
C4340 C4341 1.399 . S
C4341 H4327 0.929 . S
C4341 C4340 1.399 . S
C4341 C4342 1.385 . S
C4342 H4328 0.931 . S
C4342 C4341 1.385 . S
C4342 C4343 1.389 . S
C4343 C4342 1.389 . S
C4343 C4344 1.387 . S
C4344 H4329 0.930 . S
C4344 C4339 1.390 . S
C4344 C4343 1.387 . S
H4345 C4357 0.930 . S
H4346 C4359 0.930 . S
H4347 C4360 0.930 . S
H4348 C4364 0.959 . S
H4349 C4364 0.959 . S
H4350 C4364 0.961 . S
H4351 C4365 0.960 . S
H4352 C4365 0.961 . S
H4353 C4365 0.959 . S
H4354 C4368 0.929 . S
H4355 C4369 0.931 . S
H4356 C4371 0.930 . S
C4357 H4345 0.930 . S
C4357 C4358 1.399 . S
C4357 C4362 1.399 . S
C4358 C4357 1.399 . S
C4358 C4359 1.376 . S
C4359 H4346 0.930 . S
C4359 C4358 1.376 . S
C4359 C4360 1.388 . S
C4360 H4347 0.930 . S
C4360 C4359 1.388 . S
C4360 C4361 1.390 . S
C4361 C4360 1.390 . S
C4361 C4362 1.394 . S
C4361 C4367 1.465 . S
C4362 C4357 1.399 . S
C4362 C4361 1.394 . S
C4362 C4363 1.516 . S
C4363 C4362 1.516 . S
C4363 C4364 1.502 . S
C4363 C4365 1.561 . S
C4363 C4366 1.526 . S
C4364 H4348 0.959 . S
C4364 H4349 0.959 . S
C4364 H4350 0.961 . S
C4364 C4363 1.502 . S
C4365 H4351 0.960 . S
C4365 H4352 0.961 . S
C4365 H4353 0.959 . S
C4365 C4363 1.561 . S
C4366 C4363 1.526 . S
C4366 C4367 1.396 . S
C4366 C4371 1.390 . S
C4367 C4361 1.465 . S
C4367 C4366 1.396 . S
C4367 C4368 1.399 . S
C4368 H4354 0.929 . S
C4368 C4367 1.399 . S
C4368 C4369 1.385 . S
C4369 H4355 0.931 . S
C4369 C4368 1.385 . S
C4369 C4370 1.389 . S
C4370 C4369 1.389 . S
C4370 C4371 1.387 . S
C4371 H4356 0.930 . S
C4371 C4366 1.390 . S
C4371 C4370 1.387 . S
H4372 C4384 0.930 . S
H4373 C4386 0.930 . S
H4374 C4387 0.930 . S
H4375 C4391 0.959 . S
H4376 C4391 0.959 . S
H4377 C4391 0.961 . S
H4378 C4392 0.960 . S
H4379 C4392 0.961 . S
H4380 C4392 0.959 . S
H4381 C4395 0.929 . S
H4382 C4396 0.931 . S
H4383 C4398 0.930 . S
C4384 H4372 0.930 . S
C4384 C4385 1.399 . S
C4384 C4389 1.399 . S
C4385 C4384 1.399 . S
C4385 C4386 1.376 . S
C4386 H4373 0.930 . S
C4386 C4385 1.376 . S
C4386 C4387 1.388 . S
C4387 H4374 0.930 . S
C4387 C4386 1.388 . S
C4387 C4388 1.390 . S
C4388 C4387 1.390 . S
C4388 C4389 1.394 . S
C4388 C4394 1.465 . S
C4389 C4384 1.399 . S
C4389 C4388 1.394 . S
C4389 C4390 1.516 . S
C4390 C4389 1.516 . S
C4390 C4391 1.502 . S
C4390 C4392 1.561 . S
C4390 C4393 1.526 . S
C4391 H4375 0.959 . S
C4391 H4376 0.959 . S
C4391 H4377 0.961 . S
C4391 C4390 1.502 . S
C4392 H4378 0.960 . S
C4392 H4379 0.961 . S
C4392 H4380 0.959 . S
C4392 C4390 1.561 . S
C4393 C4390 1.526 . S
C4393 C4394 1.396 . S
C4393 C4398 1.390 . S
C4394 C4388 1.465 . S
C4394 C4393 1.396 . S
C4394 C4395 1.399 . S
C4395 H4381 0.929 . S
C4395 C4394 1.399 . S
C4395 C4396 1.385 . S
C4396 H4382 0.931 . S
C4396 C4395 1.385 . S
C4396 C4397 1.389 . S
C4397 C4396 1.389 . S
C4397 C4398 1.387 . S
C4398 H4383 0.930 . S
C4398 C4393 1.390 . S
C4398 C4397 1.387 . S
H4399 C4411 0.930 . S
H4400 C4413 0.930 . S
H4401 C4414 0.930 . S
H4402 C4418 0.959 . S
H4403 C4418 0.959 . S
H4404 C4418 0.961 . S
H4405 C4419 0.960 . S
H4406 C4419 0.961 . S
H4407 C4419 0.959 . S
H4408 C4422 0.929 . S
H4409 C4423 0.931 . S
H4410 C4425 0.930 . S
C4411 H4399 0.930 . S
C4411 C4412 1.399 . S
C4411 C4416 1.399 . S
C4412 C4411 1.399 . S
C4412 C4413 1.376 . S
C4413 H4400 0.930 . S
C4413 C4412 1.376 . S
C4413 C4414 1.388 . S
C4414 H4401 0.930 . S
C4414 C4413 1.388 . S
C4414 C4415 1.390 . S
C4415 C4414 1.390 . S
C4415 C4416 1.394 . S
C4415 C4421 1.465 . S
C4416 C4411 1.399 . S
C4416 C4415 1.394 . S
C4416 C4417 1.516 . S
C4417 C4416 1.516 . S
C4417 C4418 1.502 . S
C4417 C4419 1.561 . S
C4417 C4420 1.526 . S
C4418 H4402 0.959 . S
C4418 H4403 0.959 . S
C4418 H4404 0.961 . S
C4418 C4417 1.502 . S
C4419 H4405 0.960 . S
C4419 H4406 0.961 . S
C4419 H4407 0.959 . S
C4419 C4417 1.561 . S
C4420 C4417 1.526 . S
C4420 C4421 1.396 . S
C4420 C4425 1.390 . S
C4421 C4415 1.465 . S
C4421 C4420 1.396 . S
C4421 C4422 1.399 . S
C4422 H4408 0.929 . S
C4422 C4421 1.399 . S
C4422 C4423 1.385 . S
C4423 H4409 0.931 . S
C4423 C4422 1.385 . S
C4423 C4424 1.389 . S
C4424 C4423 1.389 . S
C4424 C4425 1.387 . S
C4425 H4410 0.930 . S
C4425 C4420 1.390 . S
C4425 C4424 1.387 . S
H4426 C4438 0.930 . S
H4427 C4440 0.930 . S
H4428 C4441 0.930 . S
H4429 C4445 0.959 . S
H4430 C4445 0.959 . S
H4431 C4445 0.961 . S
H4432 C4446 0.960 . S
H4433 C4446 0.961 . S
H4434 C4446 0.959 . S
H4435 C4449 0.929 . S
H4436 C4450 0.931 . S
H4437 C4452 0.930 . S
C4438 H4426 0.930 . S
C4438 C4439 1.399 . S
C4438 C4443 1.399 . S
C4439 C4438 1.399 . S
C4439 C4440 1.376 . S
C4440 H4427 0.930 . S
C4440 C4439 1.376 . S
C4440 C4441 1.388 . S
C4441 H4428 0.930 . S
C4441 C4440 1.388 . S
C4441 C4442 1.390 . S
C4442 C4441 1.390 . S
C4442 C4443 1.394 . S
C4442 C4448 1.465 . S
C4443 C4438 1.399 . S
C4443 C4442 1.394 . S
C4443 C4444 1.516 . S
C4444 C4443 1.516 . S
C4444 C4445 1.502 . S
C4444 C4446 1.561 . S
C4444 C4447 1.526 . S
C4445 H4429 0.959 . S
C4445 H4430 0.959 . S
C4445 H4431 0.961 . S
C4445 C4444 1.502 . S
C4446 H4432 0.960 . S
C4446 H4433 0.961 . S
C4446 H4434 0.959 . S
C4446 C4444 1.561 . S
C4447 C4444 1.526 . S
C4447 C4448 1.396 . S
C4447 C4452 1.390 . S
C4448 C4442 1.465 . S
C4448 C4447 1.396 . S
C4448 C4449 1.399 . S
C4449 H4435 0.929 . S
C4449 C4448 1.399 . S
C4449 C4450 1.385 . S
C4450 H4436 0.931 . S
C4450 C4449 1.385 . S
C4450 C4451 1.389 . S
C4451 C4450 1.389 . S
C4451 C4452 1.387 . S
C4452 H4437 0.930 . S
C4452 C4447 1.390 . S
C4452 C4451 1.387 . S
H4453 C4465 0.930 . S
H4454 C4467 0.930 . S
H4455 C4468 0.930 . S
H4456 C4472 0.959 . S
H4457 C4472 0.959 . S
H4458 C4472 0.961 . S
H4459 C4473 0.960 . S
H4460 C4473 0.961 . S
H4461 C4473 0.959 . S
H4462 C4476 0.929 . S
H4463 C4477 0.931 . S
H4464 C4479 0.930 . S
C4465 H4453 0.930 . S
C4465 C4466 1.399 . S
C4465 C4470 1.399 . S
C4466 C4465 1.399 . S
C4466 C4467 1.376 . S
C4467 H4454 0.930 . S
C4467 C4466 1.376 . S
C4467 C4468 1.388 . S
C4468 H4455 0.930 . S
C4468 C4467 1.388 . S
C4468 C4469 1.390 . S
C4469 C4468 1.390 . S
C4469 C4470 1.394 . S
C4469 C4475 1.465 . S
C4470 C4465 1.399 . S
C4470 C4469 1.394 . S
C4470 C4471 1.516 . S
C4471 C4470 1.516 . S
C4471 C4472 1.502 . S
C4471 C4473 1.561 . S
C4471 C4474 1.526 . S
C4472 H4456 0.959 . S
C4472 H4457 0.959 . S
C4472 H4458 0.961 . S
C4472 C4471 1.502 . S
C4473 H4459 0.960 . S
C4473 H4460 0.961 . S
C4473 H4461 0.959 . S
C4473 C4471 1.561 . S
C4474 C4471 1.526 . S
C4474 C4475 1.396 . S
C4474 C4479 1.390 . S
C4475 C4469 1.465 . S
C4475 C4474 1.396 . S
C4475 C4476 1.399 . S
C4476 H4462 0.929 . S
C4476 C4475 1.399 . S
C4476 C4477 1.385 . S
C4477 H4463 0.931 . S
C4477 C4476 1.385 . S
C4477 C4478 1.389 . S
C4478 C4477 1.389 . S
C4478 C4479 1.387 . S
C4479 H4464 0.930 . S
C4479 C4474 1.390 . S
C4479 C4478 1.387 . S
H4480 C4492 0.930 . S
H4481 C4494 0.930 . S
H4482 C4495 0.930 . S
H4483 C4499 0.959 . S
H4484 C4499 0.959 . S
H4485 C4499 0.961 . S
H4486 C4500 0.960 . S
H4487 C4500 0.961 . S
H4488 C4500 0.959 . S
H4489 C4503 0.929 . S
H4490 C4504 0.931 . S
H4491 C4506 0.930 . S
C4492 H4480 0.930 . S
C4492 C4493 1.399 . S
C4492 C4497 1.399 . S
C4493 C4492 1.399 . S
C4493 C4494 1.376 . S
C4494 H4481 0.930 . S
C4494 C4493 1.376 . S
C4494 C4495 1.388 . S
C4495 H4482 0.930 . S
C4495 C4494 1.388 . S
C4495 C4496 1.390 . S
C4496 C4495 1.390 . S
C4496 C4497 1.394 . S
C4496 C4502 1.465 . S
C4497 C4492 1.399 . S
C4497 C4496 1.394 . S
C4497 C4498 1.516 . S
C4498 C4497 1.516 . S
C4498 C4499 1.502 . S
C4498 C4500 1.561 . S
C4498 C4501 1.526 . S
C4499 H4483 0.959 . S
C4499 H4484 0.959 . S
C4499 H4485 0.961 . S
C4499 C4498 1.502 . S
C4500 H4486 0.960 . S
C4500 H4487 0.961 . S
C4500 H4488 0.959 . S
C4500 C4498 1.561 . S
C4501 C4498 1.526 . S
C4501 C4502 1.396 . S
C4501 C4506 1.390 . S
C4502 C4496 1.465 . S
C4502 C4501 1.396 . S
C4502 C4503 1.399 . S
C4503 H4489 0.929 . S
C4503 C4502 1.399 . S
C4503 C4504 1.385 . S
C4504 H4490 0.931 . S
C4504 C4503 1.385 . S
C4504 C4505 1.389 . S
C4505 C4504 1.389 . S
C4505 C4506 1.387 . S
C4506 H4491 0.930 . S
C4506 C4501 1.390 . S
C4506 C4505 1.387 . S
H4507 C4519 0.930 . S
H4508 C4521 0.930 . S
H4509 C4522 0.930 . S
H4510 C4526 0.959 . S
H4511 C4526 0.959 . S
H4512 C4526 0.961 . S
H4513 C4527 0.960 . S
H4514 C4527 0.961 . S
H4515 C4527 0.959 . S
H4516 C4530 0.929 . S
H4517 C4531 0.931 . S
H4518 C4533 0.930 . S
C4519 H4507 0.930 . S
C4519 C4520 1.399 . S
C4519 C4524 1.399 . S
C4520 C4519 1.399 . S
C4520 C4521 1.376 . S
C4521 H4508 0.930 . S
C4521 C4520 1.376 . S
C4521 C4522 1.388 . S
C4522 H4509 0.930 . S
C4522 C4521 1.388 . S
C4522 C4523 1.390 . S
C4523 C4522 1.390 . S
C4523 C4524 1.394 . S
C4523 C4529 1.465 . S
C4524 C4519 1.399 . S
C4524 C4523 1.394 . S
C4524 C4525 1.516 . S
C4525 C4524 1.516 . S
C4525 C4526 1.502 . S
C4525 C4527 1.561 . S
C4525 C4528 1.526 . S
C4526 H4510 0.959 . S
C4526 H4511 0.959 . S
C4526 H4512 0.961 . S
C4526 C4525 1.502 . S
C4527 H4513 0.960 . S
C4527 H4514 0.961 . S
C4527 H4515 0.959 . S
C4527 C4525 1.561 . S
C4528 C4525 1.526 . S
C4528 C4529 1.396 . S
C4528 C4533 1.390 . S
C4529 C4523 1.465 . S
C4529 C4528 1.396 . S
C4529 C4530 1.399 . S
C4530 H4516 0.929 . S
C4530 C4529 1.399 . S
C4530 C4531 1.385 . S
C4531 H4517 0.931 . S
C4531 C4530 1.385 . S
C4531 C4532 1.389 . S
C4532 C4531 1.389 . S
C4532 C4533 1.387 . S
C4533 H4518 0.930 . S
C4533 C4528 1.390 . S
C4533 C4532 1.387 . S
H4534 C4546 0.930 . S
H4535 C4548 0.930 . S
H4536 C4549 0.930 . S
H4537 C4553 0.959 . S
H4538 C4553 0.959 . S
H4539 C4553 0.961 . S
H4540 C4554 0.960 . S
H4541 C4554 0.961 . S
H4542 C4554 0.959 . S
H4543 C4557 0.929 . S
H4544 C4558 0.931 . S
H4545 C4560 0.930 . S
C4546 H4534 0.930 . S
C4546 C4547 1.399 . S
C4546 C4551 1.399 . S
C4547 C4546 1.399 . S
C4547 C4548 1.376 . S
C4548 H4535 0.930 . S
C4548 C4547 1.376 . S
C4548 C4549 1.388 . S
C4549 H4536 0.930 . S
C4549 C4548 1.388 . S
C4549 C4550 1.390 . S
C4550 C4549 1.390 . S
C4550 C4551 1.394 . S
C4550 C4556 1.465 . S
C4551 C4546 1.399 . S
C4551 C4550 1.394 . S
C4551 C4552 1.516 . S
C4552 C4551 1.516 . S
C4552 C4553 1.502 . S
C4552 C4554 1.561 . S
C4552 C4555 1.526 . S
C4553 H4537 0.959 . S
C4553 H4538 0.959 . S
C4553 H4539 0.961 . S
C4553 C4552 1.502 . S
C4554 H4540 0.960 . S
C4554 H4541 0.961 . S
C4554 H4542 0.959 . S
C4554 C4552 1.561 . S
C4555 C4552 1.526 . S
C4555 C4556 1.396 . S
C4555 C4560 1.390 . S
C4556 C4550 1.465 . S
C4556 C4555 1.396 . S
C4556 C4557 1.399 . S
C4557 H4543 0.929 . S
C4557 C4556 1.399 . S
C4557 C4558 1.385 . S
C4558 H4544 0.931 . S
C4558 C4557 1.385 . S
C4558 C4559 1.389 . S
C4559 C4558 1.389 . S
C4559 C4560 1.387 . S
C4560 H4545 0.930 . S
C4560 C4555 1.390 . S
C4560 C4559 1.387 . S
H4561 C4573 0.930 . S
H4562 C4575 0.930 . S
H4563 C4576 0.930 . S
H4564 C4580 0.959 . S
H4565 C4580 0.959 . S
H4566 C4580 0.961 . S
H4567 C4581 0.960 . S
H4568 C4581 0.961 . S
H4569 C4581 0.959 . S
H4570 C4584 0.929 . S
H4571 C4585 0.926 1_556 S
H4572 C4587 0.930 . S
C4573 H4561 0.930 . S
C4573 C4574 1.399 . S
C4573 C4578 1.399 . S
C4574 C4573 1.399 . S
C4574 C4575 1.376 1_564 S
C4575 H4562 0.930 . S
C4575 C4574 1.376 1_546 S
C4575 C4576 1.388 . S
C4576 H4563 0.930 . S
C4576 C4575 1.388 . S
C4576 C4577 1.390 1_556 S
C4577 C4576 1.390 1_554 S
C4577 C4578 1.394 1_545 S
C4577 C4583 1.465 . S
C4578 C4573 1.399 . S
C4578 C4577 1.394 1_565 S
C4578 C4579 1.516 . S
C4579 C4578 1.516 . S
C4579 C4580 1.502 . S
C4579 C4581 1.561 . S
C4579 C4582 1.526 . S
C4580 H4564 0.959 . S
C4580 H4565 0.959 . S
C4580 H4566 0.961 . S
C4580 C4579 1.502 . S
C4581 H4567 0.960 . S
C4581 H4568 0.961 . S
C4581 H4569 0.959 . S
C4581 C4579 1.561 . S
C4582 C4579 1.526 . S
C4582 C4583 1.396 1_565 S
C4582 C4587 1.390 . S
C4583 C4577 1.465 . S
C4583 C4582 1.396 1_545 S
C4583 C4584 1.399 1_554 S
C4584 H4570 0.929 . S
C4584 C4583 1.399 1_556 S
C4584 C4585 1.385 1_556 S
C4585 H4571 0.926 1_554 S
C4585 C4584 1.385 1_554 S
C4585 C4586 1.389 . S
C4586 C4585 1.389 . S
C4586 C4587 1.387 1_545 S
C4587 H4572 0.930 . S
C4587 C4582 1.390 . S
C4587 C4586 1.387 1_565 S
H4588 C4600 0.930 . S
H4589 C4602 0.930 . S
H4590 C4603 0.930 . S
H4591 C4607 0.959 . S
H4592 C4607 0.959 . S
H4593 C4607 0.961 . S
H4594 C4608 0.960 . S
H4595 C4608 0.961 . S
H4596 C4608 0.959 . S
H4597 C4611 0.929 . S
H4598 C4612 0.931 . S
H4599 C4614 0.930 . S
C4600 H4588 0.930 . S
C4600 C4601 1.399 . S
C4600 C4605 1.399 . S
C4601 C4600 1.399 . S
C4601 C4602 1.376 . S
C4602 H4589 0.930 . S
C4602 C4601 1.376 . S
C4602 C4603 1.388 . S
C4603 H4590 0.930 . S
C4603 C4602 1.388 . S
C4603 C4604 1.390 . S
C4604 C4603 1.390 . S
C4604 C4605 1.394 . S
C4604 C4610 1.465 . S
C4605 C4600 1.399 . S
C4605 C4604 1.394 . S
C4605 C4606 1.516 . S
C4606 C4605 1.516 . S
C4606 C4607 1.502 . S
C4606 C4608 1.561 . S
C4606 C4609 1.526 . S
C4607 H4591 0.959 . S
C4607 H4592 0.959 . S
C4607 H4593 0.961 . S
C4607 C4606 1.502 . S
C4608 H4594 0.960 . S
C4608 H4595 0.961 . S
C4608 H4596 0.959 . S
C4608 C4606 1.561 . S
C4609 C4606 1.526 . S
C4609 C4610 1.396 . S
C4609 C4614 1.390 . S
C4610 C4604 1.465 . S
C4610 C4609 1.396 . S
C4610 C4611 1.399 . S
C4611 H4597 0.929 . S
C4611 C4610 1.399 . S
C4611 C4612 1.385 . S
C4612 H4598 0.931 . S
C4612 C4611 1.385 . S
C4612 C4613 1.389 . S
C4613 C4612 1.389 . S
C4613 C4614 1.387 . S
C4614 H4599 0.930 . S
C4614 C4609 1.390 . S
C4614 C4613 1.387 . S
H4615 C4627 0.930 . S
H4616 C4629 0.930 . S
H4617 C4630 0.930 . S
H4618 C4634 0.959 . S
H4619 C4634 0.959 . S
H4620 C4634 0.961 . S
H4621 C4635 0.960 1_556 S
H4622 C4635 0.961 . S
H4623 C4635 0.946 1_556 S
H4624 C4638 0.929 . S
H4625 C4639 0.931 . S
H4626 C4641 0.930 . S
C4627 H4615 0.930 . S
C4627 C4628 1.399 . S
C4627 C4632 1.399 . S
C4628 C4627 1.399 . S
C4628 C4629 1.376 . S
C4629 H4616 0.930 . S
C4629 C4628 1.376 . S
C4629 C4630 1.388 . S
C4630 H4617 0.930 . S
C4630 C4629 1.388 . S
C4630 C4631 1.390 . S
C4631 C4630 1.390 . S
C4631 C4632 1.394 . S
C4631 C4637 1.465 . S
C4632 C4627 1.399 . S
C4632 C4631 1.394 . S
C4632 C4633 1.516 . S
C4633 C4632 1.516 . S
C4633 C4634 1.502 . S
C4633 C4635 1.561 . S
C4633 C4636 1.526 . S
C4634 H4618 0.959 . S
C4634 H4619 0.959 . S
C4634 H4620 0.961 . S
C4634 C4633 1.502 . S
C4635 H4621 0.960 1_554 S
C4635 H4622 0.961 . S
C4635 H4623 0.946 1_554 S
C4635 C4633 1.561 . S
C4636 C4633 1.526 . S
C4636 C4637 1.396 . S
C4636 C4641 1.390 . S
C4637 C4631 1.465 . S
C4637 C4636 1.396 . S
C4637 C4638 1.399 . S
C4638 H4624 0.929 . S
C4638 C4637 1.399 . S
C4638 C4639 1.385 . S
C4639 H4625 0.931 . S
C4639 C4638 1.385 . S
C4639 C4640 1.389 . S
C4640 C4639 1.389 . S
C4640 C4641 1.387 . S
C4641 H4626 0.930 . S
C4641 C4636 1.390 . S
C4641 C4640 1.387 . S
H4642 C4654 0.930 . S
H4643 C4656 0.930 . S
H4644 C4657 0.930 . S
H4645 C4661 0.959 . S
H4646 C4661 0.959 . S
H4647 C4661 0.961 . S
H4648 C4662 0.960 . S
H4649 C4662 0.961 . S
H4650 C4662 0.959 . S
H4651 C4665 0.929 . S
H4652 C4666 0.931 . S
H4653 C4668 0.930 . S
C4654 H4642 0.930 . S
C4654 C4655 1.399 . S
C4654 C4659 1.399 . S
C4655 C4654 1.399 . S
C4655 C4656 1.376 . S
C4656 H4643 0.930 . S
C4656 C4655 1.376 . S
C4656 C4657 1.388 . S
C4657 H4644 0.930 . S
C4657 C4656 1.388 . S
C4657 C4658 1.390 . S
C4658 C4657 1.390 . S
C4658 C4659 1.394 . S
C4658 C4664 1.465 . S
C4659 C4654 1.399 . S
C4659 C4658 1.394 . S
C4659 C4660 1.516 . S
C4660 C4659 1.516 . S
C4660 C4661 1.502 . S
C4660 C4662 1.561 . S
C4660 C4663 1.526 . S
C4661 H4645 0.959 . S
C4661 H4646 0.959 . S
C4661 H4647 0.961 . S
C4661 C4660 1.502 . S
C4662 H4648 0.960 . S
C4662 H4649 0.961 . S
C4662 H4650 0.959 . S
C4662 C4660 1.561 . S
C4663 C4660 1.526 . S
C4663 C4664 1.396 . S
C4663 C4668 1.390 . S
C4664 C4658 1.465 . S
C4664 C4663 1.396 . S
C4664 C4665 1.399 . S
C4665 H4651 0.929 . S
C4665 C4664 1.399 . S
C4665 C4666 1.385 . S
C4666 H4652 0.931 . S
C4666 C4665 1.385 . S
C4666 C4667 1.389 . S
C4667 C4666 1.389 . S
C4667 C4668 1.387 . S
C4668 H4653 0.930 . S
C4668 C4663 1.390 . S
C4668 C4667 1.387 . S
H4669 C4681 0.930 . S
H4670 C4683 0.930 . S
H4671 C4684 0.930 . S
H4672 C4688 0.959 . S
H4673 C4688 0.959 . S
H4674 C4688 0.961 . S
H4675 C4689 0.960 . S
H4676 C4689 0.961 . S
H4677 C4689 0.959 . S
H4678 C4692 0.929 . S
H4679 C4693 0.931 . S
H4680 C4695 0.930 . S
C4681 H4669 0.930 . S
C4681 C4682 1.399 . S
C4681 C4686 1.399 . S
C4682 C4681 1.399 . S
C4682 C4683 1.376 . S
C4683 H4670 0.930 . S
C4683 C4682 1.376 . S
C4683 C4684 1.388 . S
C4684 H4671 0.930 . S
C4684 C4683 1.388 . S
C4684 C4685 1.390 . S
C4685 C4684 1.390 . S
C4685 C4686 1.394 . S
C4685 C4691 1.465 . S
C4686 C4681 1.399 . S
C4686 C4685 1.394 . S
C4686 C4687 1.516 . S
C4687 C4686 1.516 . S
C4687 C4688 1.502 . S
C4687 C4689 1.561 . S
C4687 C4690 1.526 . S
C4688 H4672 0.959 . S
C4688 H4673 0.959 . S
C4688 H4674 0.961 . S
C4688 C4687 1.502 . S
C4689 H4675 0.960 . S
C4689 H4676 0.961 . S
C4689 H4677 0.959 . S
C4689 C4687 1.561 . S
C4690 C4687 1.526 . S
C4690 C4691 1.396 . S
C4690 C4695 1.390 . S
C4691 C4685 1.465 . S
C4691 C4690 1.396 . S
C4691 C4692 1.399 . S
C4692 H4678 0.929 . S
C4692 C4691 1.399 . S
C4692 C4693 1.385 . S
C4693 H4679 0.931 . S
C4693 C4692 1.385 . S
C4693 C4694 1.389 . S
C4694 C4693 1.389 . S
C4694 C4695 1.387 . S
C4695 H4680 0.930 . S
C4695 C4690 1.390 . S
C4695 C4694 1.387 . S
H4696 C4708 0.930 . S
H4697 C4710 0.930 . S
H4698 C4711 0.930 . S
H4699 C4715 0.959 . S
H4700 C4715 0.959 . S
H4701 C4715 0.961 . S
H4702 C4716 0.960 . S
H4703 C4716 0.961 . S
H4704 C4716 0.959 . S
H4705 C4719 0.929 . S
H4706 C4720 0.931 . S
H4707 C4722 0.930 . S
C4708 H4696 0.930 . S
C4708 C4709 1.399 . S
C4708 C4713 1.399 . S
C4709 C4708 1.399 . S
C4709 C4710 1.376 . S
C4710 H4697 0.930 . S
C4710 C4709 1.376 . S
C4710 C4711 1.388 . S
C4711 H4698 0.930 . S
C4711 C4710 1.388 . S
C4711 C4712 1.390 . S
C4712 C4711 1.390 . S
C4712 C4713 1.394 . S
C4712 C4718 1.465 . S
C4713 C4708 1.399 . S
C4713 C4712 1.394 . S
C4713 C4714 1.516 . S
C4714 C4713 1.516 . S
C4714 C4715 1.502 . S
C4714 C4716 1.561 . S
C4714 C4717 1.526 . S
C4715 H4699 0.959 . S
C4715 H4700 0.959 . S
C4715 H4701 0.961 . S
C4715 C4714 1.502 . S
C4716 H4702 0.960 . S
C4716 H4703 0.961 . S
C4716 H4704 0.959 . S
C4716 C4714 1.561 . S
C4717 C4714 1.526 . S
C4717 C4718 1.396 . S
C4717 C4722 1.390 . S
C4718 C4712 1.465 . S
C4718 C4717 1.396 . S
C4718 C4719 1.399 . S
C4719 H4705 0.929 . S
C4719 C4718 1.399 . S
C4719 C4720 1.385 . S
C4720 H4706 0.931 . S
C4720 C4719 1.385 . S
C4720 C4721 1.389 . S
C4721 C4720 1.389 . S
C4721 C4722 1.387 . S
C4722 H4707 0.930 . S
C4722 C4717 1.390 . S
C4722 C4721 1.387 . S
H4723 C4735 0.930 . S
H4724 C4737 0.930 . S
H4725 C4738 0.930 . S
H4726 C4742 0.959 . S
H4727 C4742 0.959 . S
H4728 C4742 0.961 . S
H4729 C4743 0.960 . S
H4730 C4743 0.961 . S
H4731 C4743 0.959 . S
H4732 C4746 0.929 . S
H4733 C4747 0.931 . S
H4734 C4749 0.930 . S
C4735 H4723 0.930 . S
C4735 C4736 1.399 . S
C4735 C4740 1.399 . S
C4736 C4735 1.399 . S
C4736 C4737 1.376 . S
C4737 H4724 0.930 . S
C4737 C4736 1.376 . S
C4737 C4738 1.388 . S
C4738 H4725 0.930 . S
C4738 C4737 1.388 . S
C4738 C4739 1.390 . S
C4739 C4738 1.390 . S
C4739 C4740 1.394 . S
C4739 C4745 1.465 . S
C4740 C4735 1.399 . S
C4740 C4739 1.394 . S
C4740 C4741 1.516 . S
C4741 C4740 1.516 . S
C4741 C4742 1.502 . S
C4741 C4743 1.561 . S
C4741 C4744 1.526 . S
C4742 H4726 0.959 . S
C4742 H4727 0.959 . S
C4742 H4728 0.961 . S
C4742 C4741 1.502 . S
C4743 H4729 0.960 . S
C4743 H4730 0.961 . S
C4743 H4731 0.959 . S
C4743 C4741 1.561 . S
C4744 C4741 1.526 . S
C4744 C4745 1.396 . S
C4744 C4749 1.390 . S
C4745 C4739 1.465 . S
C4745 C4744 1.396 . S
C4745 C4746 1.399 . S
C4746 H4732 0.929 . S
C4746 C4745 1.399 . S
C4746 C4747 1.385 . S
C4747 H4733 0.931 . S
C4747 C4746 1.385 . S
C4747 C4748 1.389 . S
C4748 C4747 1.389 . S
C4748 C4749 1.387 . S
C4749 H4734 0.930 . S
C4749 C4744 1.390 . S
C4749 C4748 1.387 . S
H4750 C4762 0.930 . S
H4751 C4764 0.930 . S
H4752 C4765 0.930 . S
H4753 C4769 0.959 . S
H4754 C4769 0.959 . S
H4755 C4769 0.961 . S
H4756 C4770 0.960 . S
H4757 C4770 0.961 . S
H4758 C4770 0.959 . S
H4759 C4773 0.929 . S
H4760 C4774 0.931 . S
H4761 C4776 0.930 . S
C4762 H4750 0.930 . S
C4762 C4763 1.399 . S
C4762 C4767 1.399 . S
C4763 C4762 1.399 . S
C4763 C4764 1.376 . S
C4764 H4751 0.930 . S
C4764 C4763 1.376 . S
C4764 C4765 1.388 . S
C4765 H4752 0.930 . S
C4765 C4764 1.388 . S
C4765 C4766 1.390 . S
C4766 C4765 1.390 . S
C4766 C4767 1.394 . S
C4766 C4772 1.465 . S
C4767 C4762 1.399 . S
C4767 C4766 1.394 . S
C4767 C4768 1.516 . S
C4768 C4767 1.516 . S
C4768 C4769 1.502 . S
C4768 C4770 1.561 . S
C4768 C4771 1.526 . S
C4769 H4753 0.959 . S
C4769 H4754 0.959 . S
C4769 H4755 0.961 . S
C4769 C4768 1.502 . S
C4770 H4756 0.960 . S
C4770 H4757 0.961 . S
C4770 H4758 0.959 . S
C4770 C4768 1.561 . S
C4771 C4768 1.526 . S
C4771 C4772 1.396 . S
C4771 C4776 1.390 . S
C4772 C4766 1.465 . S
C4772 C4771 1.396 . S
C4772 C4773 1.399 . S
C4773 H4759 0.929 . S
C4773 C4772 1.399 . S
C4773 C4774 1.385 . S
C4774 H4760 0.931 . S
C4774 C4773 1.385 . S
C4774 C4775 1.389 . S
C4775 C4774 1.389 . S
C4775 C4776 1.387 . S
C4776 H4761 0.930 . S
C4776 C4771 1.390 . S
C4776 C4775 1.387 . S
H4777 C4789 0.930 . S
H4778 C4791 0.930 . S
H4779 C4792 0.930 . S
H4780 C4796 0.959 . S
H4781 C4796 0.959 . S
H4782 C4796 0.961 . S
H4783 C4797 0.960 . S
H4784 C4797 0.961 . S
H4785 C4797 0.959 . S
H4786 C4800 0.929 . S
H4787 C4801 0.931 . S
H4788 C4803 0.930 . S
C4789 H4777 0.930 . S
C4789 C4790 1.399 . S
C4789 C4794 1.399 . S
C4790 C4789 1.399 . S
C4790 C4791 1.376 . S
C4791 H4778 0.930 . S
C4791 C4790 1.376 . S
C4791 C4792 1.388 . S
C4792 H4779 0.930 . S
C4792 C4791 1.388 . S
C4792 C4793 1.390 . S
C4793 C4792 1.390 . S
C4793 C4794 1.394 . S
C4793 C4799 1.465 . S
C4794 C4789 1.399 . S
C4794 C4793 1.394 . S
C4794 C4795 1.516 . S
C4795 C4794 1.516 . S
C4795 C4796 1.502 . S
C4795 C4797 1.561 . S
C4795 C4798 1.526 . S
C4796 H4780 0.959 . S
C4796 H4781 0.959 . S
C4796 H4782 0.961 . S
C4796 C4795 1.502 . S
C4797 H4783 0.960 . S
C4797 H4784 0.961 . S
C4797 H4785 0.959 . S
C4797 C4795 1.561 . S
C4798 C4795 1.526 . S
C4798 C4799 1.396 . S
C4798 C4803 1.390 . S
C4799 C4793 1.465 . S
C4799 C4798 1.396 . S
C4799 C4800 1.399 . S
C4800 H4786 0.929 . S
C4800 C4799 1.399 . S
C4800 C4801 1.385 . S
C4801 H4787 0.931 . S
C4801 C4800 1.385 . S
C4801 C4802 1.389 . S
C4802 C4801 1.389 . S
C4802 C4803 1.387 . S
C4803 H4788 0.930 . S
C4803 C4798 1.390 . S
C4803 C4802 1.387 . S
H4804 C4816 0.930 . S
H4805 C4818 0.930 . S
H4806 C4819 0.930 . S
H4807 C4823 0.959 . S
H4808 C4823 0.959 . S
H4809 C4823 0.961 . S
H4810 C4824 0.960 . S
H4811 C4824 0.961 . S
H4812 C4824 0.959 . S
H4813 C4827 0.929 1_554 S
H4814 C4828 0.931 . S
H4815 C4830 0.930 . S
C4816 H4804 0.930 . S
C4816 C4817 1.399 . S
C4816 C4821 1.399 . S
C4817 C4816 1.399 . S
C4817 C4818 1.376 . S
C4818 H4805 0.930 . S
C4818 C4817 1.376 . S
C4818 C4819 1.388 . S
C4819 H4806 0.930 . S
C4819 C4818 1.388 . S
C4819 C4820 1.390 . S
C4820 C4819 1.390 . S
C4820 C4821 1.394 . S
C4820 C4826 1.465 . S
C4821 C4816 1.399 . S
C4821 C4820 1.394 . S
C4821 C4822 1.516 . S
C4822 C4821 1.516 . S
C4822 C4823 1.502 . S
C4822 C4824 1.561 . S
C4822 C4825 1.526 . S
C4823 H4807 0.959 . S
C4823 H4808 0.959 . S
C4823 H4809 0.961 . S
C4823 C4822 1.502 . S
C4824 H4810 0.960 . S
C4824 H4811 0.961 . S
C4824 H4812 0.959 . S
C4824 C4822 1.561 . S
C4825 C4822 1.526 . S
C4825 C4826 1.396 . S
C4825 C4830 1.390 . S
C4826 C4820 1.465 . S
C4826 C4825 1.396 . S
C4826 C4827 1.399 . S
C4827 H4813 0.929 1_556 S
C4827 C4826 1.399 . S
C4827 C4828 1.385 1_556 S
C4828 H4814 0.931 . S
C4828 C4827 1.385 1_554 S
C4828 C4829 1.389 1_554 S
C4829 C4828 1.389 1_556 S
C4829 C4830 1.387 . S
C4830 H4815 0.930 . S
C4830 C4825 1.390 . S
C4830 C4829 1.387 . S
H4831 C4843 0.930 . S
H4832 C4845 0.930 . S
H4833 C4846 0.930 . S
H4834 C4850 0.959 . S
H4835 C4850 0.959 . S
H4836 C4850 0.961 . S
H4837 C4851 0.960 . S
H4838 C4851 0.961 . S
H4839 C4851 0.959 . S
H4840 C4854 0.929 . S
H4841 C4855 0.931 . S
H4842 C4857 0.930 . S
C4843 H4831 0.930 . S
C4843 C4844 1.399 . S
C4843 C4848 1.399 . S
C4844 C4843 1.399 . S
C4844 C4845 1.376 . S
C4845 H4832 0.930 . S
C4845 C4844 1.376 . S
C4845 C4846 1.388 . S
C4846 H4833 0.930 . S
C4846 C4845 1.388 . S
C4846 C4847 1.390 . S
C4847 C4846 1.390 . S
C4847 C4848 1.394 . S
C4847 C4853 1.465 . S
C4848 C4843 1.399 . S
C4848 C4847 1.394 . S
C4848 C4849 1.516 . S
C4849 C4848 1.516 . S
C4849 C4850 1.502 . S
C4849 C4851 1.561 . S
C4849 C4852 1.526 . S
C4850 H4834 0.959 . S
C4850 H4835 0.959 . S
C4850 H4836 0.961 . S
C4850 C4849 1.502 . S
C4851 H4837 0.960 . S
C4851 H4838 0.961 . S
C4851 H4839 0.959 . S
C4851 C4849 1.561 . S
C4852 C4849 1.526 . S
C4852 C4853 1.396 . S
C4852 C4857 1.390 . S
C4853 C4847 1.465 . S
C4853 C4852 1.396 . S
C4853 C4854 1.399 . S
C4854 H4840 0.929 . S
C4854 C4853 1.399 . S
C4854 C4855 1.385 . S
C4855 H4841 0.931 . S
C4855 C4854 1.385 . S
C4855 C4856 1.389 . S
C4856 C4855 1.389 . S
C4856 C4857 1.387 . S
C4857 H4842 0.930 . S
C4857 C4852 1.390 . S
C4857 C4856 1.387 . S
H4858 C4870 0.930 . S
H4859 C4872 0.930 . S
H4860 C4873 0.930 . S
H4861 C4877 0.959 . S
H4862 C4877 0.959 . S
H4863 C4877 0.961 . S
H4864 C4878 0.960 . S
H4865 C4878 0.961 . S
H4866 C4878 0.959 . S
H4867 C4881 0.929 . S
H4868 C4882 0.931 . S
H4869 C4884 0.930 . S
C4870 H4858 0.930 . S
C4870 C4871 1.399 . S
C4870 C4875 1.399 . S
C4871 C4870 1.399 . S
C4871 C4872 1.376 . S
C4872 H4859 0.930 . S
C4872 C4871 1.376 . S
C4872 C4873 1.388 . S
C4873 H4860 0.930 . S
C4873 C4872 1.388 . S
C4873 C4874 1.390 . S
C4874 C4873 1.390 . S
C4874 C4875 1.394 . S
C4874 C4880 1.465 . S
C4875 C4870 1.399 . S
C4875 C4874 1.394 . S
C4875 C4876 1.516 . S
C4876 C4875 1.516 . S
C4876 C4877 1.502 . S
C4876 C4878 1.561 . S
C4876 C4879 1.526 . S
C4877 H4861 0.959 . S
C4877 H4862 0.959 . S
C4877 H4863 0.961 . S
C4877 C4876 1.502 . S
C4878 H4864 0.960 . S
C4878 H4865 0.961 . S
C4878 H4866 0.959 . S
C4878 C4876 1.561 . S
C4879 C4876 1.526 . S
C4879 C4880 1.396 . S
C4879 C4884 1.390 . S
C4880 C4874 1.465 . S
C4880 C4879 1.396 . S
C4880 C4881 1.399 . S
C4881 H4867 0.929 . S
C4881 C4880 1.399 . S
C4881 C4882 1.385 . S
C4882 H4868 0.931 . S
C4882 C4881 1.385 . S
C4882 C4883 1.389 . S
C4883 C4882 1.389 . S
C4883 C4884 1.387 . S
C4884 H4869 0.930 . S
C4884 C4879 1.390 . S
C4884 C4883 1.387 . S
H4885 C4897 0.930 . S
H4886 C4899 0.930 . S
H4887 C4900 0.930 . S
H4888 C4904 0.959 . S
H4889 C4904 0.959 . S
H4890 C4904 0.961 . S
H4891 C4905 0.960 . S
H4892 C4905 0.961 . S
H4893 C4905 0.959 . S
H4894 C4908 0.929 . S
H4895 C4909 0.931 . S
H4896 C4911 0.930 . S
C4897 H4885 0.930 . S
C4897 C4898 1.399 . S
C4897 C4902 1.399 . S
C4898 C4897 1.399 . S
C4898 C4899 1.376 . S
C4899 H4886 0.930 . S
C4899 C4898 1.376 . S
C4899 C4900 1.388 . S
C4900 H4887 0.930 . S
C4900 C4899 1.388 . S
C4900 C4901 1.390 . S
C4901 C4900 1.390 . S
C4901 C4902 1.394 . S
C4901 C4907 1.465 . S
C4902 C4897 1.399 . S
C4902 C4901 1.394 . S
C4902 C4903 1.516 . S
C4903 C4902 1.516 . S
C4903 C4904 1.502 . S
C4903 C4905 1.561 . S
C4903 C4906 1.526 . S
C4904 H4888 0.959 . S
C4904 H4889 0.959 . S
C4904 H4890 0.961 . S
C4904 C4903 1.502 . S
C4905 H4891 0.960 . S
C4905 H4892 0.961 . S
C4905 H4893 0.959 . S
C4905 C4903 1.561 . S
C4906 C4903 1.526 . S
C4906 C4907 1.396 . S
C4906 C4911 1.390 . S
C4907 C4901 1.465 . S
C4907 C4906 1.396 . S
C4907 C4908 1.399 . S
C4908 H4894 0.929 . S
C4908 C4907 1.399 . S
C4908 C4909 1.385 . S
C4909 H4895 0.931 . S
C4909 C4908 1.385 . S
C4909 C4910 1.389 . S
C4910 C4909 1.389 . S
C4910 C4911 1.387 . S
C4911 H4896 0.930 . S
C4911 C4906 1.390 . S
C4911 C4910 1.387 . S
H4912 C4924 0.930 . S
H4913 C4926 0.930 . S
H4914 C4927 0.930 . S
H4915 C4931 0.959 . S
H4916 C4931 0.959 . S
H4917 C4931 0.961 . S
H4918 C4932 0.960 . S
H4919 C4932 0.961 . S
H4920 C4932 0.959 . S
H4921 C4935 0.929 . S
H4922 C4936 0.931 . S
H4923 C4938 0.930 . S
C4924 H4912 0.930 . S
C4924 C4925 1.399 . S
C4924 C4929 1.399 . S
C4925 C4924 1.399 . S
C4925 C4926 1.376 . S
C4926 H4913 0.930 . S
C4926 C4925 1.376 . S
C4926 C4927 1.388 . S
C4927 H4914 0.930 . S
C4927 C4926 1.388 . S
C4927 C4928 1.390 . S
C4928 C4927 1.390 . S
C4928 C4929 1.394 . S
C4928 C4934 1.465 . S
C4929 C4924 1.399 . S
C4929 C4928 1.394 . S
C4929 C4930 1.516 . S
C4930 C4929 1.516 . S
C4930 C4931 1.502 . S
C4930 C4932 1.561 . S
C4930 C4933 1.526 . S
C4931 H4915 0.959 . S
C4931 H4916 0.959 . S
C4931 H4917 0.961 . S
C4931 C4930 1.502 . S
C4932 H4918 0.960 . S
C4932 H4919 0.961 . S
C4932 H4920 0.959 . S
C4932 C4930 1.561 . S
C4933 C4930 1.526 . S
C4933 C4934 1.396 . S
C4933 C4938 1.390 . S
C4934 C4928 1.465 . S
C4934 C4933 1.396 . S
C4934 C4935 1.399 . S
C4935 H4921 0.929 . S
C4935 C4934 1.399 . S
C4935 C4936 1.385 . S
C4936 H4922 0.931 . S
C4936 C4935 1.385 . S
C4936 C4937 1.389 . S
C4937 C4936 1.389 . S
C4937 C4938 1.387 . S
C4938 H4923 0.930 . S
C4938 C4933 1.390 . S
C4938 C4937 1.387 . S
H4939 C4951 0.930 . S
H4940 C4953 0.930 . S
H4941 C4954 0.930 . S
H4942 C4958 0.959 . S
H4943 C4958 0.959 . S
H4944 C4958 0.961 . S
H4945 C4959 0.960 . S
H4946 C4959 0.961 . S
H4947 C4959 0.959 . S
H4948 C4962 0.929 . S
H4949 C4963 0.931 . S
H4950 C4965 0.930 . S
C4951 H4939 0.930 . S
C4951 C4952 1.399 . S
C4951 C4956 1.399 . S
C4952 C4951 1.399 . S
C4952 C4953 1.376 . S
C4953 H4940 0.930 . S
C4953 C4952 1.376 . S
C4953 C4954 1.388 . S
C4954 H4941 0.930 . S
C4954 C4953 1.388 . S
C4954 C4955 1.390 . S
C4955 C4954 1.390 . S
C4955 C4956 1.394 . S
C4955 C4961 1.465 . S
C4956 C4951 1.399 . S
C4956 C4955 1.394 . S
C4956 C4957 1.516 . S
C4957 C4956 1.516 . S
C4957 C4958 1.502 . S
C4957 C4959 1.561 . S
C4957 C4960 1.526 . S
C4958 H4942 0.959 . S
C4958 H4943 0.959 . S
C4958 H4944 0.961 . S
C4958 C4957 1.502 . S
C4959 H4945 0.960 . S
C4959 H4946 0.961 . S
C4959 H4947 0.959 . S
C4959 C4957 1.561 . S
C4960 C4957 1.526 . S
C4960 C4961 1.396 . S
C4960 C4965 1.390 . S
C4961 C4955 1.465 . S
C4961 C4960 1.396 . S
C4961 C4962 1.399 . S
C4962 H4948 0.929 . S
C4962 C4961 1.399 . S
C4962 C4963 1.385 . S
C4963 H4949 0.931 . S
C4963 C4962 1.385 . S
C4963 C4964 1.389 . S
C4964 C4963 1.389 . S
C4964 C4965 1.387 . S
C4965 H4950 0.930 . S
C4965 C4960 1.390 . S
C4965 C4964 1.387 . S
H4966 C4978 0.930 . S
H4967 C4980 0.930 . S
H4968 C4981 0.930 . S
H4969 C4985 0.959 . S
H4970 C4985 0.959 . S
H4971 C4985 0.961 . S
H4972 C4986 0.960 1_655 S
H4973 C4986 0.961 . S
H4974 C4986 0.959 . S
H4975 C4989 0.929 . S
H4976 C4990 0.931 . S
H4977 C4992 0.930 . S
C4978 H4966 0.930 . S
C4978 C4979 1.399 . S
C4978 C4983 1.399 . S
C4979 C4978 1.399 . S
C4979 C4980 1.376 1_655 S
C4980 H4967 0.930 . S
C4980 C4979 1.376 1_455 S
C4980 C4981 1.388 . S
C4981 H4968 0.930 . S
C4981 C4980 1.388 . S
C4981 C4982 1.390 . S
C4982 C4981 1.390 . S
C4982 C4983 1.394 1_455 S
C4982 C4988 1.465 . S
C4983 C4978 1.399 . S
C4983 C4982 1.394 1_655 S
C4983 C4984 1.516 . S
C4984 C4983 1.516 . S
C4984 C4985 1.502 . S
C4984 C4986 1.561 1_655 S
C4984 C4987 1.526 1_655 S
C4985 H4969 0.959 . S
C4985 H4970 0.959 . S
C4985 H4971 0.961 . S
C4985 C4984 1.502 . S
C4986 H4972 0.960 1_455 S
C4986 H4973 0.961 . S
C4986 H4974 0.959 . S
C4986 C4984 1.561 1_455 S
C4987 C4984 1.526 1_455 S
C4987 C4988 1.396 . S
C4987 C4992 1.390 . S
C4988 C4982 1.465 . S
C4988 C4987 1.396 . S
C4988 C4989 1.399 . S
C4989 H4975 0.929 . S
C4989 C4988 1.399 . S
C4989 C4990 1.385 . S
C4990 H4976 0.931 . S
C4990 C4989 1.385 . S
C4990 C4991 1.389 . S
C4991 C4990 1.389 . S
C4991 C4992 1.387 . S
C4992 H4977 0.930 . S
C4992 C4987 1.390 . S
C4992 C4991 1.387 . S
H4993 C5005 0.930 . S
H4994 C5007 0.930 . S
H4995 C5008 0.930 . S
H4996 C5012 0.959 . S
H4997 C5012 0.959 . S
H4998 C5012 0.961 . S
H4999 C5013 0.960 . S
H5000 C5013 0.961 . S
H5001 C5013 0.959 . S
H5002 C5016 0.929 . S
H5003 C5017 0.931 . S
H5004 C5019 0.930 . S
C5005 H4993 0.930 . S
C5005 C5006 1.399 . S
C5005 C5010 1.399 . S
C5006 C5005 1.399 . S
C5006 C5007 1.376 . S
C5007 H4994 0.930 . S
C5007 C5006 1.376 . S
C5007 C5008 1.388 . S
C5008 H4995 0.930 . S
C5008 C5007 1.388 . S
C5008 C5009 1.390 . S
C5009 C5008 1.390 . S
C5009 C5010 1.394 . S
C5009 C5015 1.465 . S
C5010 C5005 1.399 . S
C5010 C5009 1.394 . S
C5010 C5011 1.516 . S
C5011 C5010 1.516 . S
C5011 C5012 1.502 . S
C5011 C5013 1.561 . S
C5011 C5014 1.526 . S
C5012 H4996 0.959 . S
C5012 H4997 0.959 . S
C5012 H4998 0.961 . S
C5012 C5011 1.502 . S
C5013 H4999 0.960 . S
C5013 H5000 0.961 . S
C5013 H5001 0.959 . S
C5013 C5011 1.561 . S
C5014 C5011 1.526 . S
C5014 C5015 1.396 . S
C5014 C5019 1.390 . S
C5015 C5009 1.465 . S
C5015 C5014 1.396 . S
C5015 C5016 1.399 . S
C5016 H5002 0.929 . S
C5016 C5015 1.399 . S
C5016 C5017 1.385 . S
C5017 H5003 0.931 . S
C5017 C5016 1.385 . S
C5017 C5018 1.389 . S
C5018 C5017 1.389 . S
C5018 C5019 1.387 . S
C5019 H5004 0.930 . S
C5019 C5014 1.390 . S
C5019 C5018 1.387 . S
H5020 C5032 0.930 . S
H5021 C5034 0.930 . S
H5022 C5035 0.930 . S
H5023 C5039 0.959 . S
H5024 C5039 0.959 . S
H5025 C5039 0.961 . S
H5026 C5040 0.960 . S
H5027 C5040 0.961 . S
H5028 C5040 0.959 . S
H5029 C5043 0.929 . S
H5030 C5044 0.931 . S
H5031 C5046 0.930 . S
C5032 H5020 0.930 . S
C5032 C5033 1.399 . S
C5032 C5037 1.399 . S
C5033 C5032 1.399 . S
C5033 C5034 1.376 . S
C5034 H5021 0.930 . S
C5034 C5033 1.376 . S
C5034 C5035 1.388 . S
C5035 H5022 0.930 . S
C5035 C5034 1.388 . S
C5035 C5036 1.390 . S
C5036 C5035 1.390 . S
C5036 C5037 1.394 . S
C5036 C5042 1.465 . S
C5037 C5032 1.399 . S
C5037 C5036 1.394 . S
C5037 C5038 1.516 . S
C5038 C5037 1.516 . S
C5038 C5039 1.502 . S
C5038 C5040 1.561 . S
C5038 C5041 1.526 . S
C5039 H5023 0.959 . S
C5039 H5024 0.959 . S
C5039 H5025 0.961 . S
C5039 C5038 1.502 . S
C5040 H5026 0.960 . S
C5040 H5027 0.961 . S
C5040 H5028 0.959 . S
C5040 C5038 1.561 . S
C5041 C5038 1.526 . S
C5041 C5042 1.396 . S
C5041 C5046 1.390 . S
C5042 C5036 1.465 . S
C5042 C5041 1.396 . S
C5042 C5043 1.399 . S
C5043 H5029 0.929 . S
C5043 C5042 1.399 . S
C5043 C5044 1.385 . S
C5044 H5030 0.931 . S
C5044 C5043 1.385 . S
C5044 C5045 1.389 . S
C5045 C5044 1.389 . S
C5045 C5046 1.387 . S
C5046 H5031 0.930 . S
C5046 C5041 1.390 . S
C5046 C5045 1.387 . S
H5047 C5059 0.930 . S
H5048 C5061 0.930 . S
H5049 C5062 0.930 . S
H5050 C5066 0.959 . S
H5051 C5066 0.959 . S
H5052 C5066 0.961 . S
H5053 C5067 0.960 . S
H5054 C5067 0.961 . S
H5055 C5067 0.959 . S
H5056 C5070 0.929 . S
H5057 C5071 0.931 . S
H5058 C5073 0.930 . S
C5059 H5047 0.930 . S
C5059 C5060 1.399 . S
C5059 C5064 1.399 . S
C5060 C5059 1.399 . S
C5060 C5061 1.376 . S
C5061 H5048 0.930 . S
C5061 C5060 1.376 . S
C5061 C5062 1.388 . S
C5062 H5049 0.930 . S
C5062 C5061 1.388 . S
C5062 C5063 1.390 . S
C5063 C5062 1.390 . S
C5063 C5064 1.394 . S
C5063 C5069 1.465 . S
C5064 C5059 1.399 . S
C5064 C5063 1.394 . S
C5064 C5065 1.516 . S
C5065 C5064 1.516 . S
C5065 C5066 1.502 . S
C5065 C5067 1.561 . S
C5065 C5068 1.526 . S
C5066 H5050 0.959 . S
C5066 H5051 0.959 . S
C5066 H5052 0.961 . S
C5066 C5065 1.502 . S
C5067 H5053 0.960 . S
C5067 H5054 0.961 . S
C5067 H5055 0.959 . S
C5067 C5065 1.561 . S
C5068 C5065 1.526 . S
C5068 C5069 1.396 . S
C5068 C5073 1.390 . S
C5069 C5063 1.465 . S
C5069 C5068 1.396 . S
C5069 C5070 1.399 . S
C5070 H5056 0.929 . S
C5070 C5069 1.399 . S
C5070 C5071 1.385 . S
C5071 H5057 0.931 . S
C5071 C5070 1.385 . S
C5071 C5072 1.389 . S
C5072 C5071 1.389 . S
C5072 C5073 1.387 . S
C5073 H5058 0.930 . S
C5073 C5068 1.390 . S
C5073 C5072 1.387 . S
H5074 C5086 0.930 . S
H5075 C5088 0.930 . S
H5076 C5089 0.930 . S
H5077 C5093 0.959 . S
H5078 C5093 0.959 . S
H5079 C5093 0.961 . S
H5080 C5094 0.960 . S
H5081 C5094 0.961 . S
H5082 C5094 0.959 . S
H5083 C5097 0.929 . S
H5084 C5098 0.931 . S
H5085 C5100 0.930 . S
C5086 H5074 0.930 . S
C5086 C5087 1.399 . S
C5086 C5091 1.399 . S
C5087 C5086 1.399 . S
C5087 C5088 1.376 . S
C5088 H5075 0.930 . S
C5088 C5087 1.376 . S
C5088 C5089 1.388 . S
C5089 H5076 0.930 . S
C5089 C5088 1.388 . S
C5089 C5090 1.390 . S
C5090 C5089 1.390 . S
C5090 C5091 1.394 . S
C5090 C5096 1.465 . S
C5091 C5086 1.399 . S
C5091 C5090 1.394 . S
C5091 C5092 1.516 . S
C5092 C5091 1.516 . S
C5092 C5093 1.502 1_655 S
C5092 C5094 1.561 . S
C5092 C5095 1.526 . S
C5093 H5077 0.959 . S
C5093 H5078 0.959 . S
C5093 H5079 0.961 . S
C5093 C5092 1.502 1_455 S
C5094 H5080 0.960 . S
C5094 H5081 0.961 . S
C5094 H5082 0.959 . S
C5094 C5092 1.561 . S
C5095 C5092 1.526 . S
C5095 C5096 1.431 . S
C5095 C5100 1.362 1_655 S
C5096 C5090 1.465 . S
C5096 C5095 1.431 . S
C5096 C5097 1.399 . S
C5097 H5083 0.929 . S
C5097 C5096 1.399 . S
C5097 C5098 1.385 . S
C5098 H5084 0.931 . S
C5098 C5097 1.385 . S
C5098 C5099 1.389 1_655 S
C5099 C5098 1.389 1_455 S
C5099 C5100 1.387 . S
C5100 H5085 0.930 . S
C5100 C5095 1.362 1_455 S
C5100 C5099 1.387 . S
H5101 C5113 0.930 . S
H5102 C5115 0.930 . S
H5103 C5116 0.930 . S
H5104 C5120 0.959 . S
H5105 C5120 0.959 . S
H5106 C5120 0.961 . S
H5107 C5121 0.960 . S
H5108 C5121 0.961 . S
H5109 C5121 0.959 . S
H5110 C5124 0.929 . S
H5111 C5125 0.931 . S
H5112 C5127 0.930 . S
C5113 H5101 0.930 . S
C5113 C5114 1.399 . S
C5113 C5118 1.399 . S
C5114 C5113 1.399 . S
C5114 C5115 1.376 . S
C5115 H5102 0.930 . S
C5115 C5114 1.376 . S
C5115 C5116 1.388 . S
C5116 H5103 0.930 . S
C5116 C5115 1.388 . S
C5116 C5117 1.390 . S
C5117 C5116 1.390 . S
C5117 C5118 1.394 . S
C5117 C5123 1.465 . S
C5118 C5113 1.399 . S
C5118 C5117 1.394 . S
C5118 C5119 1.516 . S
C5119 C5118 1.516 . S
C5119 C5120 1.502 . S
C5119 C5121 1.561 . S
C5119 C5122 1.526 . S
C5120 H5104 0.959 . S
C5120 H5105 0.959 . S
C5120 H5106 0.961 . S
C5120 C5119 1.502 . S
C5121 H5107 0.960 . S
C5121 H5108 0.961 . S
C5121 H5109 0.959 . S
C5121 C5119 1.561 . S
C5122 C5119 1.526 . S
C5122 C5123 1.396 . S
C5122 C5127 1.390 . S
C5123 C5117 1.465 . S
C5123 C5122 1.396 . S
C5123 C5124 1.399 . S
C5124 H5110 0.929 . S
C5124 C5123 1.399 . S
C5124 C5125 1.385 . S
C5125 H5111 0.931 . S
C5125 C5124 1.385 . S
C5125 C5126 1.389 . S
C5126 C5125 1.389 . S
C5126 C5127 1.387 . S
C5127 H5112 0.930 . S
C5127 C5122 1.390 . S
C5127 C5126 1.387 . S
H5128 C5140 0.930 . S
H5129 C5142 0.930 . S
H5130 C5143 0.930 . S
H5131 C5147 0.959 . S
H5132 C5147 0.959 . S
H5133 C5147 0.961 . S
H5134 C5148 0.960 . S
H5135 C5148 0.961 . S
H5136 C5148 0.959 . S
H5137 C5151 0.929 . S
H5138 C5152 0.931 . S
H5139 C5154 0.930 . S
C5140 H5128 0.930 . S
C5140 C5141 1.399 . S
C5140 C5145 1.399 . S
C5141 C5140 1.399 . S
C5141 C5142 1.376 . S
C5142 H5129 0.930 . S
C5142 C5141 1.376 . S
C5142 C5143 1.388 . S
C5143 H5130 0.930 . S
C5143 C5142 1.388 . S
C5143 C5144 1.390 . S
C5144 C5143 1.390 . S
C5144 C5145 1.394 . S
C5144 C5150 1.465 . S
C5145 C5140 1.399 . S
C5145 C5144 1.394 . S
C5145 C5146 1.516 . S
C5146 C5145 1.516 . S
C5146 C5147 1.502 . S
C5146 C5148 1.561 . S
C5146 C5149 1.526 . S
C5147 H5131 0.959 . S
C5147 H5132 0.959 . S
C5147 H5133 0.961 . S
C5147 C5146 1.502 . S
C5148 H5134 0.960 . S
C5148 H5135 0.961 . S
C5148 H5136 0.959 . S
C5148 C5146 1.561 . S
C5149 C5146 1.526 . S
C5149 C5150 1.396 . S
C5149 C5154 1.390 . S
C5150 C5144 1.465 . S
C5150 C5149 1.396 . S
C5150 C5151 1.399 . S
C5151 H5137 0.929 . S
C5151 C5150 1.399 . S
C5151 C5152 1.385 . S
C5152 H5138 0.931 . S
C5152 C5151 1.385 . S
C5152 C5153 1.389 . S
C5153 C5152 1.389 . S
C5153 C5154 1.387 . S
C5154 H5139 0.930 . S
C5154 C5149 1.390 . S
C5154 C5153 1.387 . S
H5155 C5167 0.930 . S
H5156 C5169 0.930 . S
H5157 C5170 0.930 . S
H5158 C5174 0.959 . S
H5159 C5174 0.959 . S
H5160 C5174 0.961 . S
H5161 C5175 0.960 . S
H5162 C5175 0.961 . S
H5163 C5175 0.959 . S
H5164 C5178 0.947 . S
H5165 C5179 0.931 . S
H5166 C5181 0.930 . S
C5167 H5155 0.930 . S
C5167 C5168 1.399 . S
C5167 C5172 1.399 . S
C5168 C5167 1.399 . S
C5168 C5169 1.376 . S
C5169 H5156 0.930 . S
C5169 C5168 1.376 . S
C5169 C5170 1.388 . S
C5170 H5157 0.930 . S
C5170 C5169 1.388 . S
C5170 C5171 1.390 . S
C5171 C5170 1.390 . S
C5171 C5172 1.394 . S
C5171 C5177 1.465 . S
C5172 C5167 1.399 . S
C5172 C5171 1.394 . S
C5172 C5173 1.516 . S
C5173 C5172 1.516 . S
C5173 C5174 1.502 . S
C5173 C5175 1.561 . S
C5173 C5176 1.526 . S
C5174 H5158 0.959 . S
C5174 H5159 0.959 . S
C5174 H5160 0.961 . S
C5174 C5173 1.502 . S
C5175 H5161 0.960 . S
C5175 H5162 0.961 . S
C5175 H5163 0.959 . S
C5175 C5173 1.561 . S
C5176 C5173 1.526 . S
C5176 C5177 1.396 . S
C5176 C5181 1.390 . S
C5177 C5171 1.465 . S
C5177 C5176 1.396 . S
C5177 C5178 1.377 1_565 S
C5178 H5164 0.947 . S
C5178 C5177 1.377 1_545 S
C5178 C5179 1.390 . S
C5179 H5165 0.931 . S
C5179 C5178 1.390 . S
C5179 C5180 1.418 . S
C5180 C5179 1.418 . S
C5180 C5181 1.351 1_545 S
C5181 H5166 0.930 . S
C5181 C5176 1.390 . S
C5181 C5180 1.351 1_565 S
H5182 C5194 0.930 . S
H5183 C5196 0.930 . S
H5184 C5197 0.930 . S
H5185 C5201 0.959 . S
H5186 C5201 0.959 . S
H5187 C5201 0.961 . S
H5188 C5202 0.960 . S
H5189 C5202 0.961 . S
H5190 C5202 0.959 . S
H5191 C5205 0.929 . S
H5192 C5206 0.931 . S
H5193 C5208 0.930 . S
C5194 H5182 0.930 . S
C5194 C5195 1.399 . S
C5194 C5199 1.399 . S
C5195 C5194 1.399 . S
C5195 C5196 1.376 . S
C5196 H5183 0.930 . S
C5196 C5195 1.376 . S
C5196 C5197 1.388 . S
C5197 H5184 0.930 . S
C5197 C5196 1.388 . S
C5197 C5198 1.390 . S
C5198 C5197 1.390 . S
C5198 C5199 1.394 . S
C5198 C5204 1.465 . S
C5199 C5194 1.399 . S
C5199 C5198 1.394 . S
C5199 C5200 1.516 . S
C5200 C5199 1.516 . S
C5200 C5201 1.502 . S
C5200 C5202 1.561 . S
C5200 C5203 1.526 . S
C5201 H5185 0.959 . S
C5201 H5186 0.959 . S
C5201 H5187 0.961 . S
C5201 C5200 1.502 . S
C5202 H5188 0.960 . S
C5202 H5189 0.961 . S
C5202 H5190 0.959 . S
C5202 C5200 1.561 . S
C5203 C5200 1.526 . S
C5203 C5204 1.396 . S
C5203 C5208 1.390 . S
C5204 C5198 1.465 . S
C5204 C5203 1.396 . S
C5204 C5205 1.399 . S
C5205 H5191 0.929 . S
C5205 C5204 1.399 . S
C5205 C5206 1.385 . S
C5206 H5192 0.931 . S
C5206 C5205 1.385 . S
C5206 C5207 1.389 . S
C5207 C5206 1.389 . S
C5207 C5208 1.387 . S
C5208 H5193 0.930 . S
C5208 C5203 1.390 . S
C5208 C5207 1.387 . S
H5209 C5221 0.930 . S
H5210 C5223 0.930 . S
H5211 C5224 0.930 . S
H5212 C5228 0.959 . S
H5213 C5228 0.959 1_565 S
H5214 C5228 0.961 . S
H5215 C5229 0.960 . S
H5216 C5229 0.961 . S
H5217 C5229 0.959 . S
H5218 C5232 0.929 . S
H5219 C5233 0.931 . S
H5220 C5235 0.930 . S
C5221 H5209 0.930 . S
C5221 C5222 1.399 . S
C5221 C5226 1.399 . S
C5222 C5221 1.399 . S
C5222 C5223 1.376 . S
C5223 H5210 0.930 . S
C5223 C5222 1.376 . S
C5223 C5224 1.388 . S
C5224 H5211 0.930 . S
C5224 C5223 1.388 . S
C5224 C5225 1.390 . S
C5225 C5224 1.390 . S
C5225 C5226 1.394 . S
C5225 C5231 1.465 . S
C5226 C5221 1.399 . S
C5226 C5225 1.394 . S
C5226 C5227 1.516 . S
C5227 C5226 1.516 . S
C5227 C5228 1.502 . S
C5227 C5229 1.561 . S
C5227 C5230 1.526 . S
C5228 H5212 0.959 . S
C5228 H5213 0.959 1_545 S
C5228 H5214 0.961 . S
C5228 C5227 1.502 . S
C5229 H5215 0.960 . S
C5229 H5216 0.961 . S
C5229 H5217 0.959 . S
C5229 C5227 1.561 . S
C5230 C5227 1.526 . S
C5230 C5231 1.396 . S
C5230 C5235 1.390 . S
C5231 C5225 1.465 . S
C5231 C5230 1.396 . S
C5231 C5232 1.399 . S
C5232 H5218 0.929 . S
C5232 C5231 1.399 . S
C5232 C5233 1.385 . S
C5233 H5219 0.931 . S
C5233 C5232 1.385 . S
C5233 C5234 1.389 . S
C5234 C5233 1.389 . S
C5234 C5235 1.387 . S
C5235 H5220 0.930 . S
C5235 C5230 1.390 . S
C5235 C5234 1.387 . S
H5236 C5248 0.930 . S
H5237 C5250 0.930 . S
H5238 C5251 0.930 . S
H5239 C5255 0.959 . S
H5240 C5255 0.959 . S
H5241 C5255 0.961 . S
H5242 C5256 0.960 . S
H5243 C5256 0.961 . S
H5244 C5256 0.959 . S
H5245 C5259 0.929 . S
H5246 C5260 0.931 . S
H5247 C5262 0.930 . S
C5248 H5236 0.930 . S
C5248 C5249 1.399 . S
C5248 C5253 1.399 . S
C5249 C5248 1.399 . S
C5249 C5250 1.376 . S
C5250 H5237 0.930 . S
C5250 C5249 1.376 . S
C5250 C5251 1.388 . S
C5251 H5238 0.930 . S
C5251 C5250 1.388 . S
C5251 C5252 1.390 . S
C5252 C5251 1.390 . S
C5252 C5253 1.394 . S
C5252 C5258 1.465 . S
C5253 C5248 1.399 . S
C5253 C5252 1.394 . S
C5253 C5254 1.516 . S
C5254 C5253 1.516 . S
C5254 C5255 1.502 . S
C5254 C5256 1.561 . S
C5254 C5257 1.526 . S
C5255 H5239 0.959 . S
C5255 H5240 0.959 . S
C5255 H5241 0.961 . S
C5255 C5254 1.502 . S
C5256 H5242 0.960 . S
C5256 H5243 0.961 . S
C5256 H5244 0.959 . S
C5256 C5254 1.561 . S
C5257 C5254 1.526 . S
C5257 C5258 1.396 . S
C5257 C5262 1.390 . S
C5258 C5252 1.465 . S
C5258 C5257 1.396 . S
C5258 C5259 1.399 . S
C5259 H5245 0.929 . S
C5259 C5258 1.399 . S
C5259 C5260 1.385 . S
C5260 H5246 0.931 . S
C5260 C5259 1.385 . S
C5260 C5261 1.389 . S
C5261 C5260 1.389 . S
C5261 C5262 1.387 . S
C5262 H5247 0.930 . S
C5262 C5257 1.390 . S
C5262 C5261 1.387 . S
H5263 C5275 0.930 . S
H5264 C5277 0.930 . S
H5265 C5278 0.930 1_556 S
H5266 C5282 0.959 . S
H5267 C5282 0.959 . S
H5268 C5282 0.961 . S
H5269 C5283 0.960 . S
H5270 C5283 0.961 . S
H5271 C5283 0.942 1_556 S
H5272 C5286 0.929 . S
H5273 C5287 0.931 . S
H5274 C5289 0.930 . S
C5275 H5263 0.930 . S
C5275 C5276 1.399 . S
C5275 C5280 1.399 . S
C5276 C5275 1.399 . S
C5276 C5277 1.376 . S
C5277 H5264 0.930 . S
C5277 C5276 1.376 . S
C5277 C5278 1.388 . S
C5278 H5265 0.930 1_554 S
C5278 C5277 1.388 . S
C5278 C5279 1.390 . S
C5279 C5278 1.390 . S
C5279 C5280 1.394 . S
C5279 C5285 1.465 . S
C5280 C5275 1.399 . S
C5280 C5279 1.394 . S
C5280 C5281 1.516 . S
C5281 C5280 1.516 . S
C5281 C5282 1.502 . S
C5281 C5283 1.561 . S
C5281 C5284 1.526 . S
C5282 H5266 0.959 . S
C5282 H5267 0.959 . S
C5282 H5268 0.961 . S
C5282 C5281 1.502 . S
C5283 H5269 0.960 . S
C5283 H5270 0.961 . S
C5283 H5271 0.942 1_554 S
C5283 C5281 1.561 . S
C5284 C5281 1.526 . S
C5284 C5285 1.396 . S
C5284 C5289 1.390 . S
C5285 C5279 1.465 . S
C5285 C5284 1.396 . S
C5285 C5286 1.399 1_554 S
C5286 H5272 0.929 . S
C5286 C5285 1.399 1_556 S
C5286 C5287 1.385 . S
C5287 H5273 0.931 . S
C5287 C5286 1.385 . S
C5287 C5288 1.377 1_556 S
C5288 C5287 1.377 1_554 S
C5288 C5289 1.402 . S
C5289 H5274 0.930 . S
C5289 C5284 1.390 . S
C5289 C5288 1.402 . S
H5290 C5302 0.930 . S
H5291 C5304 0.930 . S
H5292 C5305 0.930 . S
H5293 C5309 0.959 . S
H5294 C5309 0.959 . S
H5295 C5309 0.961 . S
H5296 C5310 0.960 . S
H5297 C5310 0.961 . S
H5298 C5310 0.959 . S
H5299 C5313 0.929 . S
H5300 C5314 0.931 . S
H5301 C5316 0.930 . S
C5302 H5290 0.930 . S
C5302 C5303 1.399 . S
C5302 C5307 1.399 . S
C5303 C5302 1.399 . S
C5303 C5304 1.376 . S
C5304 H5291 0.930 . S
C5304 C5303 1.376 . S
C5304 C5305 1.388 . S
C5305 H5292 0.930 . S
C5305 C5304 1.388 . S
C5305 C5306 1.390 . S
C5306 C5305 1.390 . S
C5306 C5307 1.394 . S
C5306 C5312 1.465 . S
C5307 C5302 1.399 . S
C5307 C5306 1.394 . S
C5307 C5308 1.516 . S
C5308 C5307 1.516 . S
C5308 C5309 1.502 . S
C5308 C5310 1.561 . S
C5308 C5311 1.526 . S
C5309 H5293 0.959 . S
C5309 H5294 0.959 . S
C5309 H5295 0.961 . S
C5309 C5308 1.502 . S
C5310 H5296 0.960 . S
C5310 H5297 0.961 . S
C5310 H5298 0.959 . S
C5310 C5308 1.561 . S
C5311 C5308 1.526 . S
C5311 C5312 1.396 . S
C5311 C5316 1.390 . S
C5312 C5306 1.465 . S
C5312 C5311 1.396 . S
C5312 C5313 1.399 . S
C5313 H5299 0.929 . S
C5313 C5312 1.399 . S
C5313 C5314 1.385 . S
C5314 H5300 0.931 . S
C5314 C5313 1.385 . S
C5314 C5315 1.389 . S
C5315 C5314 1.389 . S
C5315 C5316 1.387 . S
C5316 H5301 0.930 . S
C5316 C5311 1.390 . S
C5316 C5315 1.387 . S
H5317 C5329 0.930 . S
H5318 C5331 0.930 . S
H5319 C5332 0.930 . S
H5320 C5336 0.959 . S
H5321 C5336 0.959 . S
H5322 C5336 0.961 . S
H5323 C5337 0.960 . S
H5324 C5337 0.961 . S
H5325 C5337 0.959 . S
H5326 C5340 0.929 . S
H5327 C5341 0.931 . S
H5328 C5343 0.930 . S
C5329 H5317 0.930 . S
C5329 C5330 1.399 . S
C5329 C5334 1.399 . S
C5330 C5329 1.399 . S
C5330 C5331 1.376 . S
C5331 H5318 0.930 . S
C5331 C5330 1.376 . S
C5331 C5332 1.388 . S
C5332 H5319 0.930 . S
C5332 C5331 1.388 . S
C5332 C5333 1.390 . S
C5333 C5332 1.390 . S
C5333 C5334 1.394 . S
C5333 C5339 1.465 . S
C5334 C5329 1.399 . S
C5334 C5333 1.394 . S
C5334 C5335 1.516 . S
C5335 C5334 1.516 . S
C5335 C5336 1.502 . S
C5335 C5337 1.561 . S
C5335 C5338 1.526 . S
C5336 H5320 0.959 . S
C5336 H5321 0.959 . S
C5336 H5322 0.961 . S
C5336 C5335 1.502 . S
C5337 H5323 0.960 . S
C5337 H5324 0.961 . S
C5337 H5325 0.959 . S
C5337 C5335 1.561 . S
C5338 C5335 1.526 . S
C5338 C5339 1.396 . S
C5338 C5343 1.390 . S
C5339 C5333 1.465 . S
C5339 C5338 1.396 . S
C5339 C5340 1.399 . S
C5340 H5326 0.929 . S
C5340 C5339 1.399 . S
C5340 C5341 1.385 . S
C5341 H5327 0.931 . S
C5341 C5340 1.385 . S
C5341 C5342 1.389 . S
C5342 C5341 1.389 . S
C5342 C5343 1.387 . S
C5343 H5328 0.930 . S
C5343 C5338 1.390 . S
C5343 C5342 1.387 . S
C2765 C665 2.041 . S
C2777 C2143 2.037 . S
C2792 C381 1.686 . S
C2804 C2154 1.710 . S
C2819 C460 1.518 . S
C2831 C2223 1.535 . S
C2858 C2236 1.203 . S
C2846 C585 1.192 . S
C2873 C108 2.458 . S
C2885 C2292 2.418 . S
C2912 C2343 2.040 . S
C2900 C196 1.991 . S
C2939 C2372 2.364 . S
C2927 C313 2.371 . S
C2954 C49 2.360 . S
C2966 C2423 2.363 . S
C2993 C2114 0.980 . S
C2981 C1457 1.023 . S
C3008 C1545 0.866 . S
C3020 C2156 0.812 . S
C3047 C2194 1.002 . S
C3035 C1721 1.040 . S
C3074 C2263 1.699 . S
C3062 C1113 1.646 . S
C3089 C1428 0.469 . S
C3101 C2297 0.593 . S
C3128 C2314 1.341 . S
C3116 C1516 1.354 . S
C3155 C2377 0.284 . S
C3143 C1692 0.195 . S
C3182 C2394 2.063 . S
C3170 C1085 2.100 . S
C3209 C2116 1.555 . S
C3197 C988 1.588 . S
C3224 C1817 1.568 . S
C3236 C2455 1.493 . S
C3263 C2476 1.397 . S
C3251 C2081 1.364 . S
C3290 C2535 0.504 . S
C3278 C1993 0.315 . S
C3305 C761 0.941 . S
C3317 C2396 0.820 . S
C3332 C821 1.335 . S
C3344 C2196 1.248 . S
C3359 C2053 0.966 . S
C3371 C2554 0.891 . S
C3398 C2623 0.824 . S
C3386 C1868 0.873 . S
C3425 C2132 2.064 . S
C3413 C372 2.062 . S
C3452 C2615 1.719 . S
C3440 C645 1.702 . S
C3467 C577 1.493 . S
C3479 C2212 1.506 . S
C3494 C497 1.191 . S
C3506 C2577 1.184 . S
C3533 C2303 2.428 . S
C3521 C57 2.460 . S
C3548 C293 1.991 . S
C3560 C2492 2.034 . S
C3587 C2383 2.363 1_556 S
C3575 C205 2.367 . S
C3614 C2652 2.355 . S
C3602 C145 2.361 . S
C3641 C2135 1.003 . S
C3629 C909 1.012 . S
C3668 C2617 0.862 . S
C3656 C1956 0.878 . S
C3683 C724 1.063 . S
C3695 C2215 1.035 . S
C3710 C1780 1.666 . S
C3722 C2572 1.687 . S
C3737 C937 0.561 . S
C3749 C2276 0.468 . S
C3776 C2495 1.321 . S
C3764 C1985 1.352 . S
C3791 C753 0.318 . S
C3803 C2356 0.355 . S
C3818 C1809 2.080 . S
C3830 C2655 2.086 . S
C3845 C1173 1.614 . S
C3857 C2137 1.486 1_554 S
C3872 C1105 1.552 . S
C3884 C2434 1.547 . S
C3899 C1633 1.418 . S
C3911 C2337 1.299 . S
C3926 C1553 0.511 . S
C3938 C2514 0.337 . S
C3965 C2657 0.951 . S
C3953 C1729 0.860 . S
C3980 C1340 1.335 . S
C3992 C2217 1.246 . S
C4019 C2255 0.955 . S
C4007 C1604 0.864 . S
C4046 C2172 0.850 . S
C4034 C1252 0.890 . S
C4061 C489 2.037 . S
C4073 C2703 2.041 . S
C4100 C2594 1.722 . S
C4088 C557 1.723 . S
C4115 C636 1.503 . S
C4127 C2743 1.512 . S
C4142 C409 1.223 . S
C4154 C2556 1.167 . S
C4169 C284 2.459 . S
C4181 C2452 2.420 . S
C4208 C2503 2.027 . S
C4196 C20 2.010 . S
C4235 C2532 2.383 . S
C4223 C137 2.387 . S
C4262 C2663 2.366 . S
C4250 C225 2.360 . S
C4289 C2674 0.997 . S
C4277 C1641 1.011 . S
C4304 C1193 0.809 . S
C4316 C2596 0.907 . S
C4343 C2714 0.996 . S
C4331 C1289 1.046 . S
C4370 C2583 1.700 . S
C4358 C1377 1.640 . S
C4397 C2457 0.488 . S
C4385 C1613 0.619 . S
C4412 C1164 1.355 . S
C4424 C2474 1.335 . S
C4451 C2537 0.259 . S
C4439 C1261 0.396 . S
C4466 C1349 2.091 . S
C4478 C2634 2.058 . S
C4505 C2676 1.537 . S
C4493 C1965 1.574 . S
C4520 C849 1.569 . S
C4532 C2295 1.493 . S
C4559 C2316 1.389 . S
C4547 C929 1.370 . S
C4586 C2375 0.260 . S
C4574 C1017 0.475 . S
C4613 C2636 0.855 . S
C4601 C1897 0.913 . S
C4628 C1789 1.324 . S
C4640 C2716 1.278 . S
C4667 C2234 0.947 . S
C4655 C900 0.886 . S
C4694 C2183 0.903 . S
C4682 C733 0.866 . S
C4709 C548 2.026 . S
C4721 C2692 2.068 . S
C4748 C2175 1.712 . S
C4736 C469 1.682 . S
C4763 C401 1.489 . S
C4775 C2732 1.504 . S
C4790 C673 1.208 . S
C4802 C2257 1.206 . S
C4817 C233 2.450 . S
C4829 C2463 2.419 1_556 S
C4856 C2332 2.052 . S
C4844 C117 2.008 . S
C4871 C29 2.379 . S
C4883 C2543 2.377 . S
C4898 C321 2.376 . S
C4910 C2412 2.375 . S
C4937 C2695 1.009 . S
C4925 C2044 1.011 . S
C4952 C997 0.816 . S
C4964 C2177 0.839 . S
C4991 C2735 1.025 . S
C4979 C1877 1.063 . S
C5006 C812 1.604 . S
C5018 C2252 1.690 . S
C5033 C2073 0.550 . S
C5045 C2436 0.466 . S
C5072 C2335 1.316 . S
C5060 C1025 1.355 . S
C5087 C1905 0.259 . S
C5099 C2516 0.183 . S
C5126 C2415 2.087 . S
C5114 C841 2.077 . S
C5153 C2697 1.493 . S
C5141 C1525 1.622 . S
C5180 C2274 1.546 . S
C5168 C1369 1.571 . S
C5195 C1465 1.447 . S
C5207 C2497 1.316 . S
C5234 C2354 0.422 . S
C5222 C1201 0.299 . S
C5249 C1281 0.865 . S
C5261 C2417 0.948 . S
C5276 C1076 1.307 . S
C5288 C2737 1.297 . S
C5315 C2575 0.898 . S
C5303 C1437 0.974 . S
C5342 C2612 0.856 . S
C5330 C1701 0.890 . S
