# Generated by pormake.
# Topology pyr, (3,6)-cn, num edge types: 1
# Building blocks:
#     Node 0, Type 0, BuildingBlock: OLANEW_clean_sbu_2, # of connection points: 3
#     Node 1, Type 0, BuildingBlock: OLANEW_clean_sbu_2, # of connection points: 3
#     Node 2, Type 0, BuildingBlock: OLANEW_clean_sbu_2, # of connection points: 3
#     Node 3, Type 0, BuildingBlock: OLANEW_clean_sbu_2, # of connection points: 3
#     Node 4, Type 0, BuildingBlock: OLANEW_clean_sbu_2, # of connection points: 3
#     Node 5, Type 0, BuildingBlock: OLANEW_clean_sbu_2, # of connection points: 3
#     Node 6, Type 0, BuildingBlock: OLANEW_clean_sbu_2, # of connection points: 3
#     Node 7, Type 0, BuildingBlock: OLANEW_clean_sbu_2, # of connection points: 3
#     Node 8, Type 1, BuildingBlock: BETDEL_clean_sbu_0, # of connection points: 6
#     Node 9, Type 1, BuildingBlock: BETDEL_clean_sbu_0, # of connection points: 6
#     Node 10, Type 1, BuildingBlock: BETDEL_clean_sbu_0, # of connection points: 6
#     Node 11, Type 1, BuildingBlock: BETDEL_clean_sbu_0, # of connection points: 6
#     Edge 12, Type (0, 1), BuildingBlock: AJUNOK_clean_linker_0, # of connection points: 2
#     Edge 13, Type (0, 1), BuildingBlock: AJUNOK_clean_linker_0, # of connection points: 2
#     Edge 14, Type (0, 1), BuildingBlock: AJUNOK_clean_linker_0, # of connection points: 2
#     Edge 15, Type (0, 1), BuildingBlock: AJUNOK_clean_linker_0, # of connection points: 2
#     Edge 16, Type (0, 1), BuildingBlock: AJUNOK_clean_linker_0, # of connection points: 2
#     Edge 17, Type (0, 1), BuildingBlock: AJUNOK_clean_linker_0, # of connection points: 2
#     Edge 18, Type (0, 1), BuildingBlock: AJUNOK_clean_linker_0, # of connection points: 2
#     Edge 19, Type (0, 1), BuildingBlock: AJUNOK_clean_linker_0, # of connection points: 2
#     Edge 20, Type (0, 1), BuildingBlock: AJUNOK_clean_linker_0, # of connection points: 2
#     Edge 21, Type (0, 1), BuildingBlock: AJUNOK_clean_linker_0, # of connection points: 2
#     Edge 22, Type (0, 1), BuildingBlock: AJUNOK_clean_linker_0, # of connection points: 2
#     Edge 23, Type (0, 1), BuildingBlock: AJUNOK_clean_linker_0, # of connection points: 2
#     Edge 24, Type (0, 1), BuildingBlock: AJUNOK_clean_linker_0, # of connection points: 2
#     Edge 25, Type (0, 1), BuildingBlock: AJUNOK_clean_linker_0, # of connection points: 2
#     Edge 26, Type (0, 1), BuildingBlock: AJUNOK_clean_linker_0, # of connection points: 2
#     Edge 27, Type (0, 1), BuildingBlock: AJUNOK_clean_linker_0, # of connection points: 2
#     Edge 28, Type (0, 1), BuildingBlock: AJUNOK_clean_linker_0, # of connection points: 2
#     Edge 29, Type (0, 1), BuildingBlock: AJUNOK_clean_linker_0, # of connection points: 2
#     Edge 30, Type (0, 1), BuildingBlock: AJUNOK_clean_linker_0, # of connection points: 2
#     Edge 31, Type (0, 1), BuildingBlock: AJUNOK_clean_linker_0, # of connection points: 2
#     Edge 32, Type (0, 1), BuildingBlock: AJUNOK_clean_linker_0, # of connection points: 2
#     Edge 33, Type (0, 1), BuildingBlock: AJUNOK_clean_linker_0, # of connection points: 2
#     Edge 34, Type (0, 1), BuildingBlock: AJUNOK_clean_linker_0, # of connection points: 2
#     Edge 35, Type (0, 1), BuildingBlock: AJUNOK_clean_linker_0, # of connection points: 2
# Relax obj value: 0.063
# Max RMSD: 0.141
# Mean RMSD: 0.109
data_MOF--net-pyr--node1-OLANEW_clean_sbu_2--node2-BETDEL_clean_sbu_0--edge1-AJUNOK_clean_linker_0
_symmetry_space_group_name_H-M    P1
_symmetry_Int_Tables_number       1
_symmetry_cell_setting            triclinic
loop_
_symmetry_equiv_pos_as_xyz
'x, y, z'
_cell_length_a     29.345872
_cell_length_b     31.397
_cell_length_c     27.843469
_cell_angle_alpha  96.811295
_cell_angle_beta   87.761339
_cell_angle_gamma 100.93544
loop_
_atom_site_label
_atom_site_type_symbol
_atom_site_fract_x
_atom_site_fract_y
_atom_site_fract_z
_atom_type_partial_charge
O0 O 0.33799 0.2714 0.1514 0.0
Cd1 Cd 0.29906 0.33204 0.18044 0.0
O2 O 0.2853 0.2277 0.18891 0.0
Cd3 Cd 0.25666 0.16887 0.22221 0.0
O4 O 0.21759 0.1287 0.2738 0.0
C5 C 0.18241 0.14214 0.29363 0.0
O6 O 0.17173 0.17792 0.28078 0.0
C7 C 0.32313 0.23388 0.16479 0.0
C8 C 0.22511 0.34559 0.12788 0.0
O9 O 0.26727 0.36102 0.1165 0.0
O10 O 0.21801 0.32196 0.16294 0.0
O11 O 0.41522 0.90817 0.77405 0.0
Cd12 Cd 0.42447 0.89944 0.687 0.0
O13 O 0.3403 0.89501 0.76381 0.0
Cd14 Cd 0.26629 0.88621 0.77979 0.0
O15 O 0.20818 0.8901 0.73532 0.0
C16 C 0.19245 0.92534 0.73974 0.0
O17 O 0.20829 0.95607 0.7745 0.0
C18 C 0.37448 0.90287 0.7921 0.0
C19 C 0.45206 0.81977 0.66549 0.0
O20 O 0.48187 0.85523 0.67347 0.0
O21 O 0.40899 0.82239 0.66565 0.0
O22 O 0.74897 0.40831 0.86278 0.0
Cd23 Cd 0.67163 0.37724 0.8291 0.0
O24 O 0.74902 0.35502 0.90776 0.0
Cd25 Cd 0.67948 0.31721 0.89421 0.0
O26 O 0.62643 0.26425 0.91696 0.0
C27 C 0.63042 0.25403 0.95928 0.0
O28 O 0.66471 0.27634 0.98603 0.0
C29 C 0.76936 0.39036 0.89229 0.0
C30 C 0.6408 0.42239 0.75866 0.0
O31 O 0.63243 0.43166 0.80384 0.0
O32 O 0.66472 0.39245 0.7468 0.0
O33 O 0.9205 0.73221 0.39271 0.0
Cd34 Cd 0.89061 0.6557 0.36282 0.0
O35 O 0.93937 0.71235 0.46129 0.0
Cd36 Cd 0.90569 0.64428 0.44599 0.0
O37 O 0.83978 0.60551 0.46639 0.0
C38 C 0.80402 0.60299 0.44118 0.0
O39 O 0.80879 0.61942 0.39964 0.0
C40 C 0.9381 0.74227 0.43456 0.0
C41 C 0.92443 0.62206 0.27426 0.0
O42 O 0.94748 0.62548 0.31314 0.0
O43 O 0.88579 0.63566 0.27693 0.0
O44 O 0.82219 0.79952 0.79508 0.0
Cd45 Cd 0.77643 0.74271 0.83787 0.0
O46 O 0.79934 0.84903 0.84753 0.0
Cd47 Cd 0.79514 0.91421 0.88211 0.0
O48 O 0.75161 0.95554 0.92218 0.0
C49 C 0.70979 0.94787 0.9084 0.0
O50 O 0.69819 0.91853 0.87108 0.0
C51 C 0.82365 0.83937 0.81054 0.0
C52 C 0.84083 0.7117 0.88739 0.0
O53 O 0.83175 0.69769 0.84306 0.0
O54 O 0.81765 0.73903 0.90951 0.0
O55 O 0.66496 0.08792 0.40308 0.0
Cd56 Cd 0.69129 0.07772 0.48138 0.0
O57 O 0.70498 0.1547 0.40375 0.0
Cd58 Cd 0.71454 0.2185 0.37747 0.0
O59 O 0.69703 0.28296 0.37908 0.0
C60 C 0.65524 0.28508 0.37105 0.0
O61 O 0.62583 0.2486 0.35886 0.0
C62 C 0.67626 0.12295 0.38335 0.0
C63 C 0.78446 0.07239 0.48369 0.0
O64 O 0.75367 0.03839 0.47151 0.0
O65 O 0.77107 0.10909 0.49316 0.0
O66 O 0.439 0.78822 0.2107 0.0
Cd67 Cd 0.40281 0.71694 0.23858 0.0
O68 O 0.37163 0.80914 0.21011 0.0
Cd69 Cd 0.32969 0.74893 0.22981 0.0
O70 O 0.26693 0.70529 0.20396 0.0
C71 C 0.26976 0.67581 0.1692 0.0
O72 O 0.31094 0.66932 0.15338 0.0
C73 C 0.41525 0.81672 0.20279 0.0
C74 C 0.44623 0.67804 0.3062 0.0
O75 O 0.45407 0.67046 0.26065 0.0
O76 O 0.41972 0.70549 0.31979 0.0
O77 O 0.18447 0.44521 0.75753 0.0
Cd78 Cd 0.21516 0.39934 0.69159 0.0
O79 O 0.17167 0.39132 0.80308 0.0
Cd80 Cd 0.19161 0.34275 0.74833 0.0
O81 O 0.16884 0.27941 0.70754 0.0
C82 C 0.13236 0.25741 0.72488 0.0
O83 O 0.11342 0.2744 0.76433 0.0
C84 C 0.17047 0.43063 0.79733 0.0
C85 C 0.29146 0.44125 0.64125 0.0
O86 O 0.25021 0.43752 0.62565 0.0
O87 O 0.29635 0.4261 0.68113 0.0
Dy88 Dy 0.04661 0.01681 0.53003 0.0
C89 C 0.9405 0.95685 0.69294 0.0
C90 C 0.0863 0.05509 0.45177 0.0
Dy91 Dy 0.98753 0.99414 0.61731 0.0
O92 O 0.10138 0.02497 0.47131 0.0
O93 O 0.04953 0.0642 0.47501 0.0
O94 O 0.09348 0.97133 0.54684 0.0
O95 O 0.06117 0.00553 0.60295 0.0
C96 C 0.08558 0.97686 0.59318 0.0
C97 C 0.9502 0.03778 0.55723 0.0
O98 O 0.02956 0.05641 0.65084 0.0
O99 O 0.05858 0.08087 0.57829 0.0
O100 O 0.92484 0.98175 0.66619 0.0
O101 O 0.98226 0.95264 0.67866 0.0
O102 O 0.94648 0.04394 0.60397 0.0
O103 O 0.97177 0.00694 0.54453 0.0
O104 O 0.00571 0.95407 0.497 0.0
O105 O 0.98138 0.9295 0.57049 0.0
C106 C 0.05129 0.0878 0.62574 0.0
C107 C 0.98731 0.92232 0.52292 0.0
Dy108 Dy 0.53374 0.06591 0.12515 0.0
C109 C 0.40026 0.96483 0.98936 0.0
C110 C 0.57935 0.10775 0.20545 0.0
Dy111 Dy 0.45986 0.02468 0.04725 0.0
O112 O 0.53609 0.08869 0.20394 0.0
O113 O 0.59808 0.10481 0.16223 0.0
O114 O 0.53903 0.99866 0.13841 0.0
O115 O 0.47424 0.01038 0.12011 0.0
C116 C 0.4963 0.98129 0.12912 0.0
C117 C 0.50957 0.10009 0.02092 0.0
O118 O 0.41709 0.06255 0.09752 0.0
O119 O 0.48035 0.10877 0.13468 0.0
O120 O 0.39682 0.00551 0.00062 0.0
O121 O 0.43504 0.95673 0.01199 0.0
O122 O 0.47693 0.07574 0.99447 0.0
O123 O 0.5126 0.08187 0.05805 0.0
O124 O 0.5815 0.04953 0.06454 0.0
O125 O 0.52443 -0.0005 0.02143 0.0
C126 C 0.43562 0.0992 0.12408 0.0
C127 C 0.56859 0.01799 0.0289 0.0
Dy128 Dy 0.5446 0.5045 0.49281 0.0
C129 C 0.50774 0.65241 0.617 0.0
C130 C 0.58155 0.4405 0.43883 0.0
Dy131 Dy 0.53547 0.58259 0.56479 0.0
O132 O 0.53742 0.44031 0.44538 0.0
O133 O 0.60517 0.47582 0.46134 0.0
O134 O 0.46699 0.48518 0.48949 0.0
O135 O 0.49812 0.51561 0.55426 0.0
C136 C 0.45989 0.50174 0.5336 0.0
C137 C 0.62003 0.58208 0.52668 0.0
O138 O 0.54738 0.53857 0.61829 0.0
O139 O 0.57503 0.48919 0.5613 0.0
O140 O 0.55047 0.64792 0.60886 0.0
O141 O 0.4799 0.6179 0.59777 0.0
O142 O 0.61284 0.59799 0.57088 0.0
O143 O 0.58242 0.57081 0.50439 0.0
O144 O 0.53113 0.54914 0.43987 0.0
O145 O 0.50487 0.59865 0.49756 0.0
C146 C 0.56897 0.50516 0.60713 0.0
C147 C 0.51088 0.58339 0.45169 0.0
Dy148 Dy 0.03861 0.48896 0.03468 0.0
C149 C 0.97517 0.63626 0.97778 0.0
C150 C 0.0858 0.42483 0.05055 0.0
Dy151 Dy 0.01754 0.57159 0.00108 0.0
O152 O 0.0478 0.43181 0.07305 0.0
O153 O 0.09709 0.45223 0.01879 0.0
O154 O 0.98235 0.48971 0.09186 0.0
O155 O 0.01933 0.54847 0.07135 0.0
C156 C 0.98562 0.53186 0.09656 0.0
C157 C 0.07313 0.53052 0.9418 0.0
O158 O 0.07548 0.60318 0.05007 0.0
O159 O 0.10288 0.53928 0.0552 0.0
O160 O 0.01139 0.62454 0.95587 0.0
O161 O 0.96311 0.61365 0.01391 0.0
O162 O 0.07666 0.57263 0.94754 0.0
O163 O 0.03817 0.51275 0.96478 0.0
O164 O 0.97838 0.45785 0.98781 0.0
O165 O 0.95256 0.5224 0.98225 0.0
C166 C 0.10786 0.58249 0.06247 0.0
C167 C 0.9464 0.47919 0.97567 0.0
C168 C 0.17104 0.084 0.34947 0.0
C169 C 0.15574 0.1193 0.33248 0.0
C170 C 0.14801 0.06316 0.38773 0.0
C171 C 0.1087 0.07666 0.41036 0.0
H172 H 0.2015 0.07265 0.33363 0.0
H173 H 0.16144 0.0365 0.3999 0.0
S174 S 0.05313 0.16613 0.37877 0.0
N175 N 0.09765 0.16595 0.34069 0.0
N176 N 0.05448 0.12657 0.41249 0.0
C177 C 0.09237 0.11127 0.39331 0.0
C178 C 0.11586 0.13264 0.3544 0.0
C179 C 0.34415 0.93956 0.86755 0.0
C180 C 0.36863 0.90815 0.84498 0.0
C181 C 0.35049 0.95477 0.91678 0.0
C182 C 0.38102 0.93855 0.94468 0.0
H183 H 0.32353 0.95531 0.84622 0.0
H184 H 0.33447 0.98187 0.93191 0.0
S185 S 0.44468 0.84893 0.90392 0.0
N186 N 0.41846 0.85652 0.85508 0.0
N187 N 0.42928 0.88387 0.94778 0.0
C188 C 0.40096 0.90329 0.92361 0.0
C189 C 0.39517 0.88849 0.87352 0.0
C190 C 0.63264 0.43379 0.67177 0.0
C191 C 0.62256 0.44467 0.72109 0.0
C192 C 0.61506 0.45331 0.63544 0.0
C193 C 0.58656 0.48467 0.64667 0.0
H194 H 0.65428 0.40984 0.66092 0.0
H195 H 0.62417 0.44373 0.59817 0.0
S196 S 0.54922 0.52461 0.77032 0.0
N197 N 0.58187 0.48897 0.7792 0.0
N198 N 0.54886 0.5255 0.7112 0.0
C199 C 0.57621 0.49595 0.69591 0.0
C200 C 0.59415 0.47604 0.73295 0.0
C201 C 0.90869 0.57862 0.19325 0.0
C202 C 0.9409 0.60105 0.2281 0.0
C203 C 0.92327 0.55586 0.15068 0.0
C204 C 0.97053 0.55578 0.14113 0.0
H205 H 0.87186 0.57769 0.19947 0.0
H206 H 0.89751 0.53844 0.12502 0.0
S207 S 0.06882 0.61005 0.21962 0.0
N208 N 0.0223 0.62186 0.24961 0.0
N209 N 0.04955 0.58002 0.16918 0.0
C210 C 0.00312 0.57863 0.17507 0.0
C211 C 0.98833 0.60105 0.21871 0.0
C212 C 0.33108 0.15533 0.14555 0.0
C213 C 0.35176 0.19957 0.15588 0.0
C214 C 0.35827 0.12281 0.13617 0.0
C215 C 0.40709 0.13333 0.13747 0.0
H216 H 0.2937 0.14586 0.14342 0.0
H217 H 0.34088 0.08927 0.12749 0.0
S218 S 0.47792 0.24476 0.16386 0.0
N219 N 0.4237 0.25225 0.16757 0.0
N220 N 0.47478 0.19172 0.15034 0.0
C221 C 0.42804 0.17758 0.1485 0.0
C222 C 0.40039 0.21053 0.15746 0.0
C223 C 0.13702 0.96873 0.71338 0.0
C224 C 0.16144 0.93422 0.70291 0.0
C225 C 0.11143 0.98126 0.67791 0.0
C226 C 0.10989 0.96027 0.63031 0.0
H227 H 0.13828 0.98679 0.74911 0.0
H228 H 0.09388 0.00854 0.68763 0.0
S229 S 0.16483 0.86607 0.58465 0.0
N230 N 0.18005 0.87741 0.64191 0.0
N231 N 0.1324 0.90174 0.57505 0.0
C232 C 0.13277 0.92484 0.61955 0.0
C233 C 0.15838 0.91157 0.65592 0.0
C234 C 0.83257 0.45611 0.90804 0.0
C235 C 0.81608 0.41141 0.91084 0.0
C236 C 0.87482 0.47744 0.92871 0.0
C237 C 0.90274 0.45489 0.95263 0.0
H238 H 0.81215 0.47517 0.8908 0.0
H239 H 0.88547 0.51206 0.92604 0.0
S240 S 0.87679 0.33675 0.96744 0.0
N241 N 0.83211 0.34474 0.93773 0.0
N242 N 0.91151 0.38481 0.97625 0.0
C243 C 0.88736 0.4099 0.95448 0.0
C244 C 0.84409 0.38818 0.93375 0.0
C245 C 0.71769 0.58742 0.43384 0.0
C246 C 0.75699 0.58998 0.4623 0.0
C247 C 0.673 0.58281 0.45457 0.0
C248 C 0.6662 0.58125 0.50456 0.0
H249 H 0.72151 0.59061 0.39551 0.0
H250 H 0.6439 0.58251 0.43166 0.0
S251 S 0.75591 0.57961 0.59398 0.0
N252 N 0.785 0.58511 0.54244 0.0
N253 N 0.70099 0.57731 0.58119 0.0
C254 C 0.70453 0.58094 0.53296 0.0
C255 C 0.74997 0.58499 0.51185 0.0
C256 C 0.19522 0.38042 0.06247 0.0
C257 C 0.18616 0.35829 0.10392 0.0
C258 C 0.1613 0.39934 0.04354 0.0
C259 C 0.11708 0.39717 0.06547 0.0
H260 H 0.22938 0.38471 0.0455 0.0
H261 H 0.17068 0.41766 0.01286 0.0
S262 S 0.07364 0.33868 0.17113 0.0
N263 N 0.12795 0.33173 0.16353 0.0
N264 N 0.06441 0.36774 0.12801 0.0
C265 C 0.10643 0.37278 0.10496 0.0
C266 C 0.14094 0.35322 0.12414 0.0
C267 C 0.56541 0.18965 0.9459 0.0
C268 C 0.59863 0.21616 0.97705 0.0
C269 C 0.53643 0.15254 0.96078 0.0
C270 C 0.53953 0.14037 0.00735 0.0
H271 H 0.56206 0.19719 0.90937 0.0
H272 H 0.51184 0.13291 0.93526 0.0
S273 S 0.61815 0.19977 0.10422 0.0
N274 N 0.63119 0.22839 0.05786 0.0
N275 N 0.57659 0.15859 0.08543 0.0
C276 C 0.57169 0.1669 0.03931 0.0
C277 C 0.60126 0.20481 0.02428 0.0
C278 C 0.96208 0.79865 0.50454 0.0
C279 C 0.95301 0.78866 0.45473 0.0
C280 C 0.97254 0.84185 0.52608 0.0
C281 C 0.97495 0.87709 0.49875 0.0
H282 H 0.96033 0.77289 0.52759 0.0
H283 H 0.97917 0.84755 0.56454 0.0
S284 S 0.95507 0.86924 0.36684 0.0
N285 N 0.94765 0.818 0.37849 0.0
N286 N 0.96787 0.89934 0.419 0.0
C287 C 0.96669 0.86782 0.44877 0.0
C288 C 0.95557 0.82364 0.42679 0.0
C289 C 0.43388 0.73904 0.64243 0.0
C290 C 0.46674 0.7769 0.65662 0.0
C291 C 0.44707 0.69831 0.63199 0.0
C292 C 0.49355 0.69395 0.63547 0.0
H293 H 0.39779 0.74091 0.63826 0.0
H294 H 0.42088 0.67034 0.61958 0.0
S295 S 0.59237 0.78191 0.67555 0.0
N296 N 0.54742 0.80667 0.6769 0.0
N297 N 0.57201 0.73007 0.65727 0.0
C298 C 0.52643 0.73107 0.65157 0.0
C299 C 0.5131 0.77258 0.66209 0.0
C300 C 0.89933 0.86692 0.77189 0.0
C301 C 0.85428 0.87309 0.78585 0.0
C302 C 0.92804 0.89577 0.74404 0.0
C303 C 0.91232 0.93128 0.72838 0.0
H304 H 0.91217 0.83907 0.78185 0.0
H305 H 0.96205 0.88907 0.73305 0.0
S306 S 0.79739 0.96219 0.75628 0.0
N307 N 0.79555 0.91775 0.78319 0.0
N308 N 0.84938 0.97207 0.73042 0.0
C309 C 0.86779 0.93859 0.74332 0.0
C310 C 0.83875 0.90941 0.77221 0.0
C311 C 0.60404 0.1142 0.33769 0.0
C312 C 0.6524 0.12727 0.33931 0.0
C313 C 0.58045 0.11148 0.29457 0.0
C314 C 0.60452 0.12071 0.25122 0.0
H315 H 0.58442 0.10466 0.36973 0.0
H316 H 0.54328 0.09963 0.29485 0.0
S317 S 0.73112 0.16018 0.23749 0.0
N318 N 0.72347 0.15309 0.29533 0.0
N319 N 0.67905 0.14695 0.21337 0.0
C320 C 0.65267 0.13625 0.25287 0.0
C321 C 0.67669 0.13973 0.29723 0.0
C322 C 0.45426 0.66281 0.39167 0.0
C323 C 0.46509 0.65438 0.34216 0.0
C324 C 0.4692 0.63972 0.42634 0.0
C325 C 0.49565 0.60691 0.4133 0.0
H326 H 0.4336 0.68727 0.40396 0.0
H327 H 0.45945 0.64764 0.46379 0.0
S328 S 0.53484 0.57282 0.28856 0.0
N329 N 0.50499 0.61126 0.28192 0.0
N330 N 0.53302 0.56794 0.34703 0.0
C331 C 0.5072 0.59833 0.36393 0.0
C332 C 0.49202 0.62202 0.3285 0.0
C333 C 0.11669 0.4367 0.86823 0.0
C334 C 0.14882 0.45755 0.83559 0.0
C335 C 0.09271 0.46066 0.90263 0.0
C336 C 0.10052 0.50644 0.90642 0.0
H337 H 0.10884 0.40142 0.86635 0.0
H338 H 0.06738 0.44302 0.92598 0.0
S339 S 0.18318 0.57704 0.83172 0.0
N340 N 0.18837 0.5268 0.81033 0.0
N341 N 0.14407 0.57204 0.87598 0.0
C342 C 0.13352 0.5279 0.87502 0.0
C343 C 0.15746 0.50339 0.83936 0.0
C344 C 0.68519 0.99382 0.98111 0.0
C345 C 0.67394 0.96825 0.93661 0.0
C346 C 0.65115 0.01048 0.01033 0.0
C347 C 0.60447 0.0021 0.9963 0.0
H348 H 0.72041 0.0003 0.99414 0.0
H349 H 0.66141 0.02919 0.04469 0.0
S350 S 0.55744 0.94062 0.88087 0.0
N351 N 0.61312 0.93799 0.87839 0.0
N352 N 0.54935 0.96918 0.93312 0.0
C353 C 0.593 0.97784 0.9511 0.0
C354 C 0.62765 0.96099 0.92131 0.0
C355 C 0.84737 0.02818 0.47808 0.0
C356 C 0.83287 0.06823 0.49215 0.0
C357 C 0.88874 0.01977 0.49518 0.0
C358 C 0.91645 0.05101 0.52729 0.0
H359 H 0.8253 0.00214 0.4561 0.0
H360 H 0.8969 0.98746 0.48651 0.0
S361 S 0.89893 0.16338 0.56827 0.0
N362 N 0.85363 0.14162 0.53435 0.0
N363 N 0.9306 0.12507 0.56729 0.0
C364 C 0.90476 0.09237 0.538 0.0
C365 C 0.86311 0.10124 0.52015 0.0
C366 C 0.22813 0.61179 0.11593 0.0
C367 C 0.22759 0.65219 0.14355 0.0
C368 C 0.18927 0.58957 0.08972 0.0
C369 C 0.14876 0.60737 0.08931 0.0
H370 H 0.25874 0.59705 0.11472 0.0
H371 H 0.1912 0.55836 0.06926 0.0
S372 S 0.12975 0.71262 0.15527 0.0
N373 N 0.18303 0.70918 0.16901 0.0
N374 N 0.11043 0.6679 0.11893 0.0
C375 C 0.14786 0.64794 0.11648 0.0
C376 C 0.18712 0.67018 0.1439 0.0
C377 C 0.37526 0.47587 0.63689 0.0
C378 C 0.33267 0.46078 0.61341 0.0
C379 C 0.41583 0.49097 0.611 0.0
C380 C 0.41557 0.49078 0.56045 0.0
H381 H 0.3775 0.47541 0.67557 0.0
H382 H 0.44793 0.50134 0.63063 0.0
S383 S 0.31282 0.45733 0.48198 0.0
N384 N 0.29229 0.44907 0.53686 0.0
N385 N 0.36893 0.47667 0.48814 0.0
C386 C 0.37308 0.4772 0.53666 0.0
C387 C 0.33152 0.46241 0.56314 0.0
C388 C 0.87241 0.68926 0.96055 0.0
C389 C 0.87774 0.6971 0.91182 0.0
C390 C 0.9055 0.67152 0.98274 0.0
C391 C 0.94537 0.66212 0.95717 0.0
H392 H 0.84154 0.69502 0.98097 0.0
H393 H 0.89903 0.66379 0.01958 0.0
S394 S 0.97824 0.6827 0.83071 0.0
N395 N 0.9275 0.69797 0.83999 0.0
N396 N 0.99033 0.66592 0.88192 0.0
C397 C 0.95245 0.67259 0.90939 0.0
C398 C 0.91837 0.68971 0.88659 0.0
C399 C 0.40916 0.88864 0.1748 0.0
C400 C 0.43694 0.85803 0.18283 0.0
C401 C 0.42796 0.92766 0.15545 0.0
C402 C 0.47536 0.93781 0.14357 0.0
H403 H 0.37245 0.88271 0.18386 0.0
H404 H 0.40543 0.95051 0.15108 0.0
S405 S 0.56275 0.86794 0.15354 0.0
N406 N 0.51413 0.84002 0.17445 0.0
N407 N 0.54936 0.91323 0.13831 0.0
C408 C 0.50335 0.90713 0.15001 0.0
C409 C 0.48423 0.86737 0.16964 0.0
C410 C 0.12679 0.19961 0.65421 0.0
C411 C 0.111 0.21402 0.70057 0.0
C412 C 0.1069 0.15901 0.6301 0.0
C413 C 0.07074 0.13098 0.6516 0.0
H414 H 0.15464 0.21989 0.63613 0.0
H415 H 0.12046 0.14938 0.59456 0.0
S416 S 0.01603 0.1534 0.77213 0.0
N417 N 0.0564 0.19707 0.76685 0.0
N418 N 0.01923 0.12078 0.72158 0.0
C419 C 0.05447 0.14495 0.69788 0.0
C420 C 0.07451 0.18645 0.72233 0.0
C421 C 0.59032 0.32697 0.3811 0.0
C422 C 0.63828 0.3269 0.38203 0.0
C423 C 0.5724 0.3645 0.39757 0.0
C424 C 0.60173 0.40343 0.41543 0.0
H425 H 0.56606 0.29738 0.36927 0.0
H426 H 0.53512 0.36248 0.39786 0.0
S427 S 0.73025 0.4224 0.42041 0.0
N428 N 0.71514 0.37061 0.39848 0.0
N429 N 0.6813 0.44103 0.4293 0.0
C430 C 0.64989 0.40468 0.41407 0.0
C431 C 0.66821 0.36645 0.39739 0.0
loop_
_geom_bond_atom_site_label_1
_geom_bond_atom_site_label_2
_geom_bond_distance
_geom_bond_site_symmetry_2
_ccdc_geom_bond_type
O0 Cd1 2.300 . S
O0 C7 1.275 . S
Cd1 O0 2.300 . S
Cd1 O9 2.381 . S
Cd1 O10 2.378 . S
O2 Cd3 2.385 . S
O2 C7 1.255 . S
Cd3 O2 2.385 . S
Cd3 O4 2.317 . S
O4 Cd3 2.317 . S
O4 C5 1.232 . S
C5 O4 1.232 . S
C5 O6 1.218 . S
O6 C5 1.218 . S
C7 O0 1.275 . S
C7 O2 1.255 . S
C8 O9 1.258 . S
C8 O10 1.256 . S
O9 Cd1 2.381 . S
O9 C8 1.258 . S
O10 Cd1 2.378 . S
O10 C8 1.256 . S
O11 Cd12 2.300 . S
O11 C18 1.275 . S
Cd12 O11 2.300 . S
Cd12 O20 2.381 . S
Cd12 O21 2.378 . S
O13 Cd14 2.385 . S
O13 C18 1.255 . S
Cd14 O13 2.385 . S
Cd14 O15 2.317 . S
O15 Cd14 2.317 . S
O15 C16 1.232 . S
C16 O15 1.232 . S
C16 O17 1.218 . S
O17 C16 1.218 . S
C18 O11 1.275 . S
C18 O13 1.255 . S
C19 O20 1.258 . S
C19 O21 1.256 . S
O20 Cd12 2.381 . S
O20 C19 1.258 . S
O21 Cd12 2.378 . S
O21 C19 1.256 . S
O22 Cd23 2.300 . S
O22 C29 1.275 . S
Cd23 O22 2.300 . S
Cd23 O31 2.381 . S
Cd23 O32 2.378 . S
O24 Cd25 2.385 . S
O24 C29 1.255 . S
Cd25 O24 2.385 . S
Cd25 O26 2.317 . S
O26 Cd25 2.317 . S
O26 C27 1.232 . S
C27 O26 1.232 . S
C27 O28 1.218 . S
O28 C27 1.218 . S
C29 O22 1.275 . S
C29 O24 1.255 . S
C30 O31 1.258 . S
C30 O32 1.256 . S
O31 Cd23 2.381 . S
O31 C30 1.258 . S
O32 Cd23 2.378 . S
O32 C30 1.256 . S
O33 Cd34 2.300 . S
O33 C40 1.275 . S
Cd34 O33 2.300 . S
Cd34 O42 2.381 . S
Cd34 O43 2.378 . S
O35 Cd36 2.385 . S
O35 C40 1.255 . S
Cd36 O35 2.385 . S
Cd36 O37 2.317 . S
O37 Cd36 2.317 . S
O37 C38 1.232 . S
C38 O37 1.232 . S
C38 O39 1.218 . S
O39 C38 1.218 . S
C40 O33 1.275 . S
C40 O35 1.255 . S
C41 O42 1.258 . S
C41 O43 1.256 . S
O42 Cd34 2.381 . S
O42 C41 1.258 . S
O43 Cd34 2.378 . S
O43 C41 1.256 . S
O44 Cd45 2.300 . S
O44 C51 1.275 . S
Cd45 O44 2.300 . S
Cd45 O53 2.381 . S
Cd45 O54 2.378 . S
O46 Cd47 2.385 . S
O46 C51 1.255 . S
Cd47 O46 2.385 . S
Cd47 O48 2.317 . S
O48 Cd47 2.317 . S
O48 C49 1.232 . S
C49 O48 1.232 . S
C49 O50 1.218 . S
O50 C49 1.218 . S
C51 O44 1.275 . S
C51 O46 1.255 . S
C52 O53 1.258 . S
C52 O54 1.256 . S
O53 Cd45 2.381 . S
O53 C52 1.258 . S
O54 Cd45 2.378 . S
O54 C52 1.256 . S
O55 Cd56 2.300 . S
O55 C62 1.275 . S
Cd56 O55 2.300 . S
Cd56 O64 2.381 . S
Cd56 O65 2.378 . S
O57 Cd58 2.385 . S
O57 C62 1.255 . S
Cd58 O57 2.385 . S
Cd58 O59 2.317 . S
O59 Cd58 2.317 . S
O59 C60 1.232 . S
C60 O59 1.232 . S
C60 O61 1.218 . S
O61 C60 1.218 . S
C62 O55 1.275 . S
C62 O57 1.255 . S
C63 O64 1.258 . S
C63 O65 1.256 . S
O64 Cd56 2.381 . S
O64 C63 1.258 . S
O65 Cd56 2.378 . S
O65 C63 1.256 . S
O66 Cd67 2.300 . S
O66 C73 1.275 . S
Cd67 O66 2.300 . S
Cd67 O75 2.381 . S
Cd67 O76 2.378 . S
O68 Cd69 2.385 . S
O68 C73 1.255 . S
Cd69 O68 2.385 . S
Cd69 O70 2.317 . S
O70 Cd69 2.317 . S
O70 C71 1.232 . S
C71 O70 1.232 . S
C71 O72 1.218 . S
O72 C71 1.218 . S
C73 O66 1.275 . S
C73 O68 1.255 . S
C74 O75 1.258 . S
C74 O76 1.256 . S
O75 Cd67 2.381 . S
O75 C74 1.258 . S
O76 Cd67 2.378 . S
O76 C74 1.256 . S
O77 Cd78 2.300 . S
O77 C84 1.275 . S
Cd78 O77 2.300 . S
Cd78 O86 2.381 . S
Cd78 O87 2.378 . S
O79 Cd80 2.385 . S
O79 C84 1.255 . S
Cd80 O79 2.385 . S
Cd80 O81 2.317 . S
O81 Cd80 2.317 . S
O81 C82 1.232 . S
C82 O81 1.232 . S
C82 O83 1.218 . S
O83 C82 1.218 . S
C84 O77 1.275 . S
C84 O79 1.255 . S
C85 O86 1.258 . S
C85 O87 1.256 . S
O86 Cd78 2.381 . S
O86 C85 1.258 . S
O87 Cd78 2.378 . S
O87 C85 1.256 . S
Dy88 O92 2.398 . S
Dy88 O93 2.491 . S
Dy88 O94 2.403 . S
Dy88 O95 2.664 1_545 S
Dy88 O99 2.326 . S
Dy88 O103 2.310 1_455 S
Dy88 O104 2.351 1_545 S
C89 O100 1.185 . S
C89 O101 1.355 . S
C90 O92 1.185 . S
C90 O93 1.355 . S
Dy91 O95 2.310 1_645 S
Dy91 O98 2.351 1_655 S
Dy91 O100 2.398 1_545 S
Dy91 O101 2.491 1_545 S
Dy91 O102 2.403 . S
Dy91 O103 2.664 . S
Dy91 O105 2.326 1_545 S
O92 Dy88 2.398 . S
O92 C90 1.185 . S
O93 Dy88 2.491 . S
O93 C90 1.355 . S
O94 Dy88 2.403 . S
O94 C96 1.254 1_545 S
O95 Dy88 2.664 1_565 S
O95 Dy91 2.310 1_465 S
O95 C96 1.268 . S
C96 O94 1.254 1_565 S
C96 O95 1.268 . S
C97 O102 1.254 . S
C97 O103 1.268 . S
O98 Dy91 2.351 1_455 S
O98 C106 1.249 . S
O99 Dy88 2.326 . S
O99 C106 1.267 . S
O100 C89 1.185 . S
O100 Dy91 2.398 1_565 S
O101 C89 1.355 . S
O101 Dy91 2.491 1_565 S
O102 Dy91 2.403 . S
O102 C97 1.254 . S
O103 Dy88 2.310 1_655 S
O103 Dy91 2.664 . S
O103 C97 1.268 . S
O104 Dy88 2.351 1_565 S
O104 C107 1.249 1_455 S
O105 Dy91 2.326 1_565 S
O105 C107 1.267 . S
C106 O98 1.249 . S
C106 O99 1.267 . S
C107 O104 1.249 1_655 S
C107 O105 1.267 . S
Dy108 O112 2.398 . S
Dy108 O113 2.491 . S
Dy108 O114 2.403 1_545 S
Dy108 O115 2.664 1_545 S
Dy108 O119 2.326 . S
Dy108 O123 2.310 . S
Dy108 O124 2.351 . S
C109 O120 1.185 1_565 S
C109 O121 1.355 . S
C110 O112 1.185 . S
C110 O113 1.355 . S
Dy111 O115 2.310 1_545 S
Dy111 O118 2.351 . S
Dy111 O120 2.398 1_554 S
Dy111 O121 2.491 1_544 S
Dy111 O122 2.403 1_554 S
Dy111 O123 2.664 . S
Dy111 O125 2.326 1_554 S
O112 Dy108 2.398 . S
O112 C110 1.185 . S
O113 Dy108 2.491 . S
O113 C110 1.355 . S
O114 Dy108 2.403 1_565 S
O114 C116 1.254 . S
O115 Dy108 2.664 1_565 S
O115 Dy111 2.310 1_565 S
O115 C116 1.268 . S
C116 O114 1.254 . S
C116 O115 1.268 . S
C117 O122 1.254 1_554 S
C117 O123 1.268 . S
O118 Dy111 2.351 . S
O118 C126 1.249 . S
O119 Dy108 2.326 . S
O119 C126 1.267 . S
O120 C109 1.185 1_545 S
O120 Dy111 2.398 1_556 S
O121 C109 1.355 . S
O121 Dy111 2.491 1_566 S
O122 Dy111 2.403 1_556 S
O122 C117 1.254 1_556 S
O123 Dy108 2.310 . S
O123 Dy111 2.664 . S
O123 C117 1.268 . S
O124 Dy108 2.351 . S
O124 C127 1.249 1_545 S
O125 Dy111 2.326 1_556 S
O125 C127 1.267 1_546 S
C126 O118 1.249 . S
C126 O119 1.267 . S
C127 O124 1.249 1_565 S
C127 O125 1.267 1_564 S
Dy128 O132 2.398 . S
Dy128 O133 2.491 . S
Dy128 O134 2.403 . S
Dy128 O135 2.664 . S
Dy128 O139 2.326 . S
Dy128 O143 2.310 . S
Dy128 O144 2.351 . S
C129 O140 1.185 . S
C129 O141 1.355 . S
C130 O132 1.185 . S
C130 O133 1.355 . S
Dy131 O135 2.310 . S
Dy131 O138 2.351 . S
Dy131 O140 2.398 . S
Dy131 O141 2.491 . S
Dy131 O142 2.403 . S
Dy131 O143 2.664 . S
Dy131 O145 2.326 . S
O132 Dy128 2.398 . S
O132 C130 1.185 . S
O133 Dy128 2.491 . S
O133 C130 1.355 . S
O134 Dy128 2.403 . S
O134 C136 1.254 . S
O135 Dy128 2.664 . S
O135 Dy131 2.310 . S
O135 C136 1.268 . S
C136 O134 1.254 . S
C136 O135 1.268 . S
C137 O142 1.254 . S
C137 O143 1.268 . S
O138 Dy131 2.351 . S
O138 C146 1.249 . S
O139 Dy128 2.326 . S
O139 C146 1.267 . S
O140 C129 1.185 . S
O140 Dy131 2.398 . S
O141 C129 1.355 . S
O141 Dy131 2.491 . S
O142 Dy131 2.403 . S
O142 C137 1.254 . S
O143 Dy128 2.310 . S
O143 Dy131 2.664 . S
O143 C137 1.268 . S
O144 Dy128 2.351 . S
O144 C147 1.249 . S
O145 Dy131 2.326 . S
O145 C147 1.267 . S
C146 O138 1.249 . S
C146 O139 1.267 . S
C147 O144 1.249 . S
C147 O145 1.267 . S
Dy148 O152 2.398 . S
Dy148 O153 2.491 . S
Dy148 O154 2.403 . S
Dy148 O155 2.664 . S
Dy148 O159 2.326 . S
Dy148 O163 2.310 1_554 S
Dy148 O164 2.351 1_455 S
C149 O160 1.185 . S
C149 O161 1.355 . S
C150 O152 1.185 . S
C150 O153 1.355 . S
Dy151 O155 2.310 1_556 S
Dy151 O158 2.351 1_556 S
Dy151 O160 2.398 1_455 S
Dy151 O161 2.491 1_455 S
Dy151 O162 2.403 . S
Dy151 O163 2.664 . S
Dy151 O165 2.326 1_455 S
O152 Dy148 2.398 . S
O152 C150 1.185 . S
O153 Dy148 2.491 . S
O153 C150 1.355 . S
O154 Dy148 2.403 . S
O154 C156 1.254 1_455 S
O155 Dy148 2.664 . S
O155 Dy151 2.310 1_554 S
O155 C156 1.268 1_455 S
C156 O154 1.254 1_655 S
C156 O155 1.268 1_655 S
C157 O162 1.254 . S
C157 O163 1.268 . S
O158 Dy151 2.351 1_554 S
O158 C166 1.249 . S
O159 Dy148 2.326 . S
O159 C166 1.267 . S
O160 C149 1.185 . S
O160 Dy151 2.398 1_655 S
O161 C149 1.355 . S
O161 Dy151 2.491 1_655 S
O162 Dy151 2.403 . S
O162 C157 1.254 . S
O163 Dy148 2.310 1_556 S
O163 Dy151 2.664 . S
O163 C157 1.268 . S
O164 Dy148 2.351 1_655 S
O164 C167 1.249 1_554 S
O165 Dy151 2.326 1_655 S
O165 C167 1.267 . S
C166 O158 1.249 . S
C166 O159 1.267 . S
C167 O164 1.249 1_556 S
C167 O165 1.267 . S
C168 C169 1.369 . S
C168 C170 1.419 . S
C168 H172 0.930 . S
C169 C168 1.369 . S
C169 C178 1.429 . S
C170 C168 1.419 . S
C170 C171 1.363 . S
C170 H173 0.929 . S
C171 C170 1.363 . S
C171 C177 1.428 . S
H172 C168 0.930 . S
H173 C170 0.929 . S
S174 N175 1.613 . S
S174 N176 1.610 . S
N175 S174 1.613 . S
N175 C178 1.350 . S
N176 S174 1.610 . S
N176 C177 1.351 . S
C177 C171 1.428 . S
C177 N176 1.351 . S
C177 C178 1.434 . S
C178 C169 1.429 . S
C178 N175 1.350 . S
C178 C177 1.434 . S
C179 C180 1.369 . S
C179 C181 1.419 . S
C179 H183 0.930 1_565 S
C180 C179 1.369 . S
C180 C189 1.429 . S
C181 C179 1.419 . S
C181 C182 1.363 . S
C181 H184 0.929 1_565 S
C182 C181 1.363 . S
C182 C188 1.428 . S
H183 C179 0.930 1_545 S
H184 C181 0.929 1_545 S
S185 N186 1.613 . S
S185 N187 1.610 . S
N186 S185 1.613 . S
N186 C189 1.350 . S
N187 S185 1.610 . S
N187 C188 1.351 . S
C188 C182 1.428 . S
C188 N187 1.351 . S
C188 C189 1.434 . S
C189 C180 1.429 . S
C189 N186 1.350 . S
C189 C188 1.434 . S
C190 C191 1.369 . S
C190 C192 1.419 . S
C190 H194 0.930 . S
C191 C190 1.369 . S
C191 C200 1.429 . S
C192 C190 1.419 . S
C192 C193 1.363 . S
C192 H195 0.929 . S
C193 C192 1.363 . S
C193 C199 1.428 . S
H194 C190 0.930 . S
H195 C192 0.929 . S
S196 N197 1.613 . S
S196 N198 1.610 . S
N197 S196 1.613 . S
N197 C200 1.350 . S
N198 S196 1.610 . S
N198 C199 1.351 . S
C199 C193 1.428 . S
C199 N198 1.351 . S
C199 C200 1.434 . S
C200 C191 1.429 . S
C200 N197 1.350 . S
C200 C199 1.434 . S
C201 C202 1.369 . S
C201 C203 1.419 . S
C201 H205 0.930 . S
C202 C201 1.369 . S
C202 C211 1.429 1_655 S
C203 C201 1.419 . S
C203 C204 1.363 . S
C203 H206 0.929 . S
C204 C203 1.363 . S
C204 C210 1.428 1_655 S
H205 C201 0.930 . S
H206 C203 0.929 . S
S207 N208 1.613 . S
S207 N209 1.610 . S
N208 S207 1.613 . S
N208 C211 1.350 . S
N209 S207 1.610 . S
N209 C210 1.351 . S
C210 C204 1.428 1_455 S
C210 N209 1.351 . S
C210 C211 1.434 . S
C211 C202 1.429 1_455 S
C211 N208 1.350 . S
C211 C210 1.434 . S
C212 C213 1.369 . S
C212 C214 1.419 . S
C212 H216 0.930 . S
C213 C212 1.369 . S
C213 C222 1.429 . S
C214 C212 1.419 . S
C214 C215 1.363 . S
C214 H217 0.929 . S
C215 C214 1.363 . S
C215 C221 1.428 . S
H216 C212 0.930 . S
H217 C214 0.929 . S
S218 N219 1.613 . S
S218 N220 1.610 . S
N219 S218 1.613 . S
N219 C222 1.350 . S
N220 S218 1.610 . S
N220 C221 1.351 . S
C221 C215 1.428 . S
C221 N220 1.351 . S
C221 C222 1.434 . S
C222 C213 1.429 . S
C222 N219 1.350 . S
C222 C221 1.434 . S
C223 C224 1.369 . S
C223 C225 1.419 1_565 S
C223 H227 0.930 1_565 S
C224 C223 1.369 . S
C224 C233 1.429 . S
C225 C223 1.419 1_545 S
C225 C226 1.363 1_545 S
C225 H228 0.929 . S
C226 C225 1.363 1_565 S
C226 C232 1.428 . S
H227 C223 0.930 1_545 S
H228 C225 0.929 . S
S229 N230 1.613 . S
S229 N231 1.610 . S
N230 S229 1.613 . S
N230 C233 1.350 . S
N231 S229 1.610 . S
N231 C232 1.351 . S
C232 C226 1.428 . S
C232 N231 1.351 . S
C232 C233 1.434 . S
C233 C224 1.429 . S
C233 N230 1.350 . S
C233 C232 1.434 . S
C234 C235 1.369 . S
C234 C236 1.419 . S
C234 H238 0.930 . S
C235 C234 1.369 . S
C235 C244 1.429 . S
C236 C234 1.419 . S
C236 C237 1.363 . S
C236 H239 0.929 . S
C237 C236 1.363 . S
C237 C243 1.428 . S
H238 C234 0.930 . S
H239 C236 0.929 . S
S240 N241 1.613 1_554 S
S240 N242 1.610 . S
N241 S240 1.613 1_556 S
N241 C244 1.350 . S
N242 S240 1.610 . S
N242 C243 1.351 1_554 S
C243 C237 1.428 . S
C243 N242 1.351 1_556 S
C243 C244 1.434 . S
C244 C235 1.429 . S
C244 N241 1.350 . S
C244 C243 1.434 . S
C245 C246 1.369 . S
C245 C247 1.419 . S
C245 H249 0.930 . S
C246 C245 1.369 . S
C246 C255 1.429 . S
C247 C245 1.419 . S
C247 C248 1.363 . S
C247 H250 0.929 . S
C248 C247 1.363 . S
C248 C254 1.428 . S
H249 C245 0.930 . S
H250 C247 0.929 . S
S251 N252 1.613 . S
S251 N253 1.610 . S
N252 S251 1.613 . S
N252 C255 1.350 . S
N253 S251 1.610 . S
N253 C254 1.351 . S
C254 C248 1.428 . S
C254 N253 1.351 . S
C254 C255 1.434 . S
C255 C246 1.429 . S
C255 N252 1.350 . S
C255 C254 1.434 . S
C256 C257 1.369 . S
C256 C258 1.419 . S
C256 H260 0.930 . S
C257 C256 1.369 . S
C257 C266 1.429 . S
C258 C256 1.419 . S
C258 C259 1.363 . S
C258 H261 0.929 . S
C259 C258 1.363 . S
C259 C265 1.428 . S
H260 C256 0.930 . S
H261 C258 0.929 . S
S262 N263 1.613 . S
S262 N264 1.610 . S
N263 S262 1.613 . S
N263 C266 1.350 . S
N264 S262 1.610 . S
N264 C265 1.351 . S
C265 C259 1.428 . S
C265 N264 1.351 . S
C265 C266 1.434 . S
C266 C257 1.429 . S
C266 N263 1.350 . S
C266 C265 1.434 . S
C267 C268 1.369 . S
C267 C269 1.419 . S
C267 H271 0.930 . S
C268 C267 1.369 . S
C268 C277 1.429 . S
C269 C267 1.419 . S
C269 C270 1.363 1_556 S
C269 H272 0.929 . S
C270 C269 1.363 1_554 S
C270 C276 1.428 . S
H271 C267 0.930 . S
H272 C269 0.929 . S
S273 N274 1.613 1_554 S
S273 N275 1.610 . S
N274 S273 1.613 1_556 S
N274 C277 1.350 . S
N275 S273 1.610 . S
N275 C276 1.351 . S
C276 C270 1.428 . S
C276 N275 1.351 . S
C276 C277 1.434 1_554 S
C277 C268 1.429 . S
C277 N274 1.350 . S
C277 C276 1.434 1_556 S
C278 C279 1.369 . S
C278 C280 1.419 . S
C278 H282 0.930 . S
C279 C278 1.369 . S
C279 C288 1.429 . S
C280 C278 1.419 . S
C280 C281 1.363 . S
C280 H283 0.929 . S
C281 C280 1.363 . S
C281 C287 1.428 . S
H282 C278 0.930 . S
H283 C280 0.929 . S
S284 N285 1.613 . S
S284 N286 1.610 . S
N285 S284 1.613 . S
N285 C288 1.350 . S
N286 S284 1.610 . S
N286 C287 1.351 . S
C287 C281 1.428 . S
C287 N286 1.351 . S
C287 C288 1.434 . S
C288 C279 1.429 . S
C288 N285 1.350 . S
C288 C287 1.434 . S
C289 C290 1.369 . S
C289 C291 1.419 . S
C289 H293 0.930 . S
C290 C289 1.369 . S
C290 C299 1.429 . S
C291 C289 1.419 . S
C291 C292 1.363 . S
C291 H294 0.929 . S
C292 C291 1.363 . S
C292 C298 1.428 . S
H293 C289 0.930 . S
H294 C291 0.929 . S
S295 N296 1.613 . S
S295 N297 1.610 . S
N296 S295 1.613 . S
N296 C299 1.350 . S
N297 S295 1.610 . S
N297 C298 1.351 . S
C298 C292 1.428 . S
C298 N297 1.351 . S
C298 C299 1.434 . S
C299 C290 1.429 . S
C299 N296 1.350 . S
C299 C298 1.434 . S
C300 C301 1.369 . S
C300 C302 1.419 . S
C300 H304 0.930 . S
C301 C300 1.369 . S
C301 C310 1.429 . S
C302 C300 1.419 . S
C302 C303 1.363 . S
C302 H305 0.929 . S
C303 C302 1.363 . S
C303 C309 1.428 . S
H304 C300 0.930 . S
H305 C302 0.929 . S
S306 N307 1.613 . S
S306 N308 1.610 . S
N307 S306 1.613 . S
N307 C310 1.350 . S
N308 S306 1.610 . S
N308 C309 1.351 . S
C309 C303 1.428 . S
C309 N308 1.351 . S
C309 C310 1.434 . S
C310 C301 1.429 . S
C310 N307 1.350 . S
C310 C309 1.434 . S
C311 C312 1.369 . S
C311 C313 1.419 . S
C311 H315 0.930 . S
C312 C311 1.369 . S
C312 C321 1.429 . S
C313 C311 1.419 . S
C313 C314 1.363 . S
C313 H316 0.929 . S
C314 C313 1.363 . S
C314 C320 1.428 . S
H315 C311 0.930 . S
H316 C313 0.929 . S
S317 N318 1.613 . S
S317 N319 1.610 . S
N318 S317 1.613 . S
N318 C321 1.350 . S
N319 S317 1.610 . S
N319 C320 1.351 . S
C320 C314 1.428 . S
C320 N319 1.351 . S
C320 C321 1.434 . S
C321 C312 1.429 . S
C321 N318 1.350 . S
C321 C320 1.434 . S
C322 C323 1.369 . S
C322 C324 1.419 . S
C322 H326 0.930 . S
C323 C322 1.369 . S
C323 C332 1.429 . S
C324 C322 1.419 . S
C324 C325 1.363 . S
C324 H327 0.929 . S
C325 C324 1.363 . S
C325 C331 1.428 . S
H326 C322 0.930 . S
H327 C324 0.929 . S
S328 N329 1.613 . S
S328 N330 1.610 . S
N329 S328 1.613 . S
N329 C332 1.350 . S
N330 S328 1.610 . S
N330 C331 1.351 . S
C331 C325 1.428 . S
C331 N330 1.351 . S
C331 C332 1.434 . S
C332 C323 1.429 . S
C332 N329 1.350 . S
C332 C331 1.434 . S
C333 C334 1.369 . S
C333 C335 1.419 . S
C333 H337 0.930 . S
C334 C333 1.369 . S
C334 C343 1.429 . S
C335 C333 1.419 . S
C335 C336 1.363 . S
C335 H338 0.929 . S
C336 C335 1.363 . S
C336 C342 1.428 . S
H337 C333 0.930 . S
H338 C335 0.929 . S
S339 N340 1.613 . S
S339 N341 1.610 . S
N340 S339 1.613 . S
N340 C343 1.350 . S
N341 S339 1.610 . S
N341 C342 1.351 . S
C342 C336 1.428 . S
C342 N341 1.351 . S
C342 C343 1.434 . S
C343 C334 1.429 . S
C343 N340 1.350 . S
C343 C342 1.434 . S
C344 C345 1.369 . S
C344 C346 1.419 . S
C344 H348 0.930 . S
C345 C344 1.369 . S
C345 C354 1.429 . S
C346 C344 1.419 . S
C346 C347 1.363 . S
C346 H349 0.929 1_556 S
C347 C346 1.363 . S
C347 C353 1.428 . S
H348 C344 0.930 . S
H349 C346 0.929 1_554 S
S350 N351 1.613 . S
S350 N352 1.610 . S
N351 S350 1.613 . S
N351 C354 1.350 . S
N352 S350 1.610 . S
N352 C353 1.351 . S
C353 C347 1.428 . S
C353 N352 1.351 . S
C353 C354 1.434 . S
C354 C345 1.429 . S
C354 N351 1.350 . S
C354 C353 1.434 . S
C355 C356 1.369 . S
C355 C357 1.419 . S
C355 H359 0.930 . S
C356 C355 1.369 . S
C356 C365 1.429 . S
C357 C355 1.419 . S
C357 C358 1.363 . S
C357 H360 0.929 . S
C358 C357 1.363 . S
C358 C364 1.428 . S
H359 C355 0.930 . S
H360 C357 0.929 . S
S361 N362 1.613 . S
S361 N363 1.610 . S
N362 S361 1.613 . S
N362 C365 1.350 . S
N363 S361 1.610 . S
N363 C364 1.351 . S
C364 C358 1.428 . S
C364 N363 1.351 . S
C364 C365 1.434 . S
C365 C356 1.429 . S
C365 N362 1.350 . S
C365 C364 1.434 . S
C366 C367 1.369 . S
C366 C368 1.419 . S
C366 H370 0.930 . S
C367 C366 1.369 . S
C367 C376 1.429 . S
C368 C366 1.419 . S
C368 C369 1.363 . S
C368 H371 0.929 . S
C369 C368 1.363 . S
C369 C375 1.428 . S
H370 C366 0.930 . S
H371 C368 0.929 . S
S372 N373 1.613 . S
S372 N374 1.610 . S
N373 S372 1.613 . S
N373 C376 1.350 . S
N374 S372 1.610 . S
N374 C375 1.351 . S
C375 C369 1.428 . S
C375 N374 1.351 . S
C375 C376 1.434 . S
C376 C367 1.429 . S
C376 N373 1.350 . S
C376 C375 1.434 . S
C377 C378 1.369 . S
C377 C379 1.419 . S
C377 H381 0.930 . S
C378 C377 1.369 . S
C378 C387 1.429 . S
C379 C377 1.419 . S
C379 C380 1.363 . S
C379 H382 0.929 . S
C380 C379 1.363 . S
C380 C386 1.428 . S
H381 C377 0.930 . S
H382 C379 0.929 . S
S383 N384 1.613 . S
S383 N385 1.610 . S
N384 S383 1.613 . S
N384 C387 1.350 . S
N385 S383 1.610 . S
N385 C386 1.351 . S
C386 C380 1.428 . S
C386 N385 1.351 . S
C386 C387 1.434 . S
C387 C378 1.429 . S
C387 N384 1.350 . S
C387 C386 1.434 . S
C388 C389 1.369 . S
C388 C390 1.419 . S
C388 H392 0.930 . S
C389 C388 1.369 . S
C389 C398 1.429 . S
C390 C388 1.419 . S
C390 C391 1.363 . S
C390 H393 0.929 . S
C391 C390 1.363 . S
C391 C397 1.428 . S
H392 C388 0.930 . S
H393 C390 0.929 . S
S394 N395 1.613 . S
S394 N396 1.610 . S
N395 S394 1.613 . S
N395 C398 1.350 . S
N396 S394 1.610 . S
N396 C397 1.351 . S
C397 C391 1.428 . S
C397 N396 1.351 . S
C397 C398 1.434 . S
C398 C389 1.429 . S
C398 N395 1.350 . S
C398 C397 1.434 . S
C399 C400 1.369 . S
C399 C401 1.419 . S
C399 H403 0.930 . S
C400 C399 1.369 . S
C400 C409 1.429 . S
C401 C399 1.419 . S
C401 C402 1.363 . S
C401 H404 0.929 . S
C402 C401 1.363 . S
C402 C408 1.428 . S
H403 C399 0.930 . S
H404 C401 0.929 . S
S405 N406 1.613 . S
S405 N407 1.610 . S
N406 S405 1.613 . S
N406 C409 1.350 . S
N407 S405 1.610 . S
N407 C408 1.351 . S
C408 C402 1.428 . S
C408 N407 1.351 . S
C408 C409 1.434 . S
C409 C400 1.429 . S
C409 N406 1.350 . S
C409 C408 1.434 . S
C410 C411 1.369 . S
C410 C412 1.419 . S
C410 H414 0.930 . S
C411 C410 1.369 . S
C411 C420 1.429 . S
C412 C410 1.419 . S
C412 C413 1.363 . S
C412 H415 0.929 . S
C413 C412 1.363 . S
C413 C419 1.428 . S
H414 C410 0.930 . S
H415 C412 0.929 . S
S416 N417 1.613 . S
S416 N418 1.610 . S
N417 S416 1.613 . S
N417 C420 1.350 . S
N418 S416 1.610 . S
N418 C419 1.351 . S
C419 C413 1.428 . S
C419 N418 1.351 . S
C419 C420 1.434 . S
C420 C411 1.429 . S
C420 N417 1.350 . S
C420 C419 1.434 . S
C421 C422 1.369 . S
C421 C423 1.419 . S
C421 H425 0.930 . S
C422 C421 1.369 . S
C422 C431 1.429 . S
C423 C421 1.419 . S
C423 C424 1.363 . S
C423 H426 0.929 . S
C424 C423 1.363 . S
C424 C430 1.428 . S
H425 C421 0.930 . S
H426 C423 0.929 . S
S427 N428 1.613 . S
S427 N429 1.610 . S
N428 S427 1.613 . S
N428 C431 1.350 . S
N429 S427 1.610 . S
N429 C430 1.351 . S
C430 C424 1.428 . S
C430 N429 1.351 . S
C430 C431 1.434 . S
C431 C422 1.429 . S
C431 N428 1.350 . S
C431 C430 1.434 . S
C169 C5 1.286 . S
C171 C90 1.586 . S
C180 C18 1.317 . S
C182 C109 1.423 . S
C193 C146 1.623 . S
C191 C30 1.640 . S
C202 C41 1.556 . S
C204 C156 1.510 . S
C215 C126 1.981 . S
C213 C7 1.853 . S
C226 C96 1.525 . S
C224 C16 1.305 . S
C237 C167 1.612 . S
C235 C29 1.544 . S
C248 C137 1.165 . S
C246 C38 1.096 . S
C257 C8 1.614 . S
C259 C150 1.689 . S
C270 C117 1.888 . S
C268 C27 1.703 . S
C279 C40 1.789 . S
C281 C107 1.801 . S
C290 C19 1.075 . S
C292 C129 1.090 . S
C303 C89 1.487 . S
C301 C51 1.321 . S
C312 C62 1.513 . S
C314 C110 1.489 . S
C323 C74 1.757 . S
C325 C147 1.743 . S
C334 C84 1.567 . S
C336 C157 1.639 . S
C345 C49 1.593 . S
C347 C127 2.059 1_556 S
C358 C97 1.429 . S
C356 C63 1.454 . S
C369 C166 1.533 . S
C367 C71 1.425 . S
C380 C136 1.274 . S
C378 C85 1.260 . S
C389 C52 1.557 . S
C391 C149 1.646 . S
C402 C116 1.933 . S
C400 C73 1.959 . S
C413 C106 1.561 . S
C411 C82 1.256 . S
C422 C60 1.089 . S
C424 C130 1.308 . S
