# Generated by pormake.
# Topology eea, (3,6)-cn, num edge types: 1
# Building blocks:
#     Node 0, Type 0, BuildingBlock: OLANEW_clean_sbu_2, # of connection points: 3
#     Node 1, Type 0, BuildingBlock: OLANEW_clean_sbu_2, # of connection points: 3
#     Node 2, Type 0, BuildingBlock: OLANEW_clean_sbu_2, # of connection points: 3
#     Node 3, Type 0, BuildingBlock: OLANEW_clean_sbu_2, # of connection points: 3
#     Node 4, Type 0, BuildingBlock: OLANEW_clean_sbu_2, # of connection points: 3
#     Node 5, Type 0, BuildingBlock: OLANEW_clean_sbu_2, # of connection points: 3
#     Node 6, Type 0, BuildingBlock: OLANEW_clean_sbu_2, # of connection points: 3
#     Node 7, Type 0, BuildingBlock: OLANEW_clean_sbu_2, # of connection points: 3
#     Node 8, Type 0, BuildingBlock: OLANEW_clean_sbu_2, # of connection points: 3
#     Node 9, Type 0, BuildingBlock: OLANEW_clean_sbu_2, # of connection points: 3
#     Node 10, Type 0, BuildingBlock: OLANEW_clean_sbu_2, # of connection points: 3
#     Node 11, Type 0, BuildingBlock: OLANEW_clean_sbu_2, # of connection points: 3
#     Node 12, Type 0, BuildingBlock: OLANEW_clean_sbu_2, # of connection points: 3
#     Node 13, Type 0, BuildingBlock: OLANEW_clean_sbu_2, # of connection points: 3
#     Node 14, Type 0, BuildingBlock: OLANEW_clean_sbu_2, # of connection points: 3
#     Node 15, Type 0, BuildingBlock: OLANEW_clean_sbu_2, # of connection points: 3
#     Node 16, Type 0, BuildingBlock: OLANEW_clean_sbu_2, # of connection points: 3
#     Node 17, Type 0, BuildingBlock: OLANEW_clean_sbu_2, # of connection points: 3
#     Node 18, Type 1, BuildingBlock: KUMBOL_clean_sbu_0, # of connection points: 6
#     Node 19, Type 1, BuildingBlock: KUMBOL_clean_sbu_0, # of connection points: 6
#     Node 20, Type 1, BuildingBlock: KUMBOL_clean_sbu_0, # of connection points: 6
#     Node 21, Type 1, BuildingBlock: KUMBOL_clean_sbu_0, # of connection points: 6
#     Node 22, Type 1, BuildingBlock: KUMBOL_clean_sbu_0, # of connection points: 6
#     Node 23, Type 1, BuildingBlock: KUMBOL_clean_sbu_0, # of connection points: 6
#     Node 24, Type 1, BuildingBlock: KUMBOL_clean_sbu_0, # of connection points: 6
#     Node 25, Type 1, BuildingBlock: KUMBOL_clean_sbu_0, # of connection points: 6
#     Node 26, Type 1, BuildingBlock: KUMBOL_clean_sbu_0, # of connection points: 6
#     Edge 27, Type (0, 1), BuildingBlock: EZIPEK_clean_linker_0, # of connection points: 2
#     Edge 28, Type (0, 1), BuildingBlock: EZIPEK_clean_linker_0, # of connection points: 2
#     Edge 29, Type (0, 1), BuildingBlock: EZIPEK_clean_linker_0, # of connection points: 2
#     Edge 30, Type (0, 1), BuildingBlock: EZIPEK_clean_linker_0, # of connection points: 2
#     Edge 31, Type (0, 1), BuildingBlock: EZIPEK_clean_linker_0, # of connection points: 2
#     Edge 32, Type (0, 1), BuildingBlock: EZIPEK_clean_linker_0, # of connection points: 2
#     Edge 33, Type (0, 1), BuildingBlock: EZIPEK_clean_linker_0, # of connection points: 2
#     Edge 34, Type (0, 1), BuildingBlock: EZIPEK_clean_linker_0, # of connection points: 2
#     Edge 35, Type (0, 1), BuildingBlock: EZIPEK_clean_linker_0, # of connection points: 2
#     Edge 36, Type (0, 1), BuildingBlock: EZIPEK_clean_linker_0, # of connection points: 2
#     Edge 37, Type (0, 1), BuildingBlock: EZIPEK_clean_linker_0, # of connection points: 2
#     Edge 38, Type (0, 1), BuildingBlock: EZIPEK_clean_linker_0, # of connection points: 2
#     Edge 39, Type (0, 1), BuildingBlock: EZIPEK_clean_linker_0, # of connection points: 2
#     Edge 40, Type (0, 1), BuildingBlock: EZIPEK_clean_linker_0, # of connection points: 2
#     Edge 41, Type (0, 1), BuildingBlock: EZIPEK_clean_linker_0, # of connection points: 2
#     Edge 42, Type (0, 1), BuildingBlock: EZIPEK_clean_linker_0, # of connection points: 2
#     Edge 43, Type (0, 1), BuildingBlock: EZIPEK_clean_linker_0, # of connection points: 2
#     Edge 44, Type (0, 1), BuildingBlock: EZIPEK_clean_linker_0, # of connection points: 2
#     Edge 45, Type (0, 1), BuildingBlock: EZIPEK_clean_linker_0, # of connection points: 2
#     Edge 46, Type (0, 1), BuildingBlock: EZIPEK_clean_linker_0, # of connection points: 2
#     Edge 47, Type (0, 1), BuildingBlock: EZIPEK_clean_linker_0, # of connection points: 2
#     Edge 48, Type (0, 1), BuildingBlock: EZIPEK_clean_linker_0, # of connection points: 2
#     Edge 49, Type (0, 1), BuildingBlock: EZIPEK_clean_linker_0, # of connection points: 2
#     Edge 50, Type (0, 1), BuildingBlock: EZIPEK_clean_linker_0, # of connection points: 2
#     Edge 51, Type (0, 1), BuildingBlock: EZIPEK_clean_linker_0, # of connection points: 2
#     Edge 52, Type (0, 1), BuildingBlock: EZIPEK_clean_linker_0, # of connection points: 2
#     Edge 53, Type (0, 1), BuildingBlock: EZIPEK_clean_linker_0, # of connection points: 2
#     Edge 54, Type (0, 1), BuildingBlock: EZIPEK_clean_linker_0, # of connection points: 2
#     Edge 55, Type (0, 1), BuildingBlock: EZIPEK_clean_linker_0, # of connection points: 2
#     Edge 56, Type (0, 1), BuildingBlock: EZIPEK_clean_linker_0, # of connection points: 2
#     Edge 57, Type (0, 1), BuildingBlock: EZIPEK_clean_linker_0, # of connection points: 2
#     Edge 58, Type (0, 1), BuildingBlock: EZIPEK_clean_linker_0, # of connection points: 2
#     Edge 59, Type (0, 1), BuildingBlock: EZIPEK_clean_linker_0, # of connection points: 2
#     Edge 60, Type (0, 1), BuildingBlock: EZIPEK_clean_linker_0, # of connection points: 2
#     Edge 61, Type (0, 1), BuildingBlock: EZIPEK_clean_linker_0, # of connection points: 2
#     Edge 62, Type (0, 1), BuildingBlock: EZIPEK_clean_linker_0, # of connection points: 2
#     Edge 63, Type (0, 1), BuildingBlock: EZIPEK_clean_linker_0, # of connection points: 2
#     Edge 64, Type (0, 1), BuildingBlock: EZIPEK_clean_linker_0, # of connection points: 2
#     Edge 65, Type (0, 1), BuildingBlock: EZIPEK_clean_linker_0, # of connection points: 2
#     Edge 66, Type (0, 1), BuildingBlock: EZIPEK_clean_linker_0, # of connection points: 2
#     Edge 67, Type (0, 1), BuildingBlock: EZIPEK_clean_linker_0, # of connection points: 2
#     Edge 68, Type (0, 1), BuildingBlock: EZIPEK_clean_linker_0, # of connection points: 2
#     Edge 69, Type (0, 1), BuildingBlock: EZIPEK_clean_linker_0, # of connection points: 2
#     Edge 70, Type (0, 1), BuildingBlock: EZIPEK_clean_linker_0, # of connection points: 2
#     Edge 71, Type (0, 1), BuildingBlock: EZIPEK_clean_linker_0, # of connection points: 2
#     Edge 72, Type (0, 1), BuildingBlock: EZIPEK_clean_linker_0, # of connection points: 2
#     Edge 73, Type (0, 1), BuildingBlock: EZIPEK_clean_linker_0, # of connection points: 2
#     Edge 74, Type (0, 1), BuildingBlock: EZIPEK_clean_linker_0, # of connection points: 2
#     Edge 75, Type (0, 1), BuildingBlock: EZIPEK_clean_linker_0, # of connection points: 2
#     Edge 76, Type (0, 1), BuildingBlock: EZIPEK_clean_linker_0, # of connection points: 2
#     Edge 77, Type (0, 1), BuildingBlock: EZIPEK_clean_linker_0, # of connection points: 2
#     Edge 78, Type (0, 1), BuildingBlock: EZIPEK_clean_linker_0, # of connection points: 2
#     Edge 79, Type (0, 1), BuildingBlock: EZIPEK_clean_linker_0, # of connection points: 2
#     Edge 80, Type (0, 1), BuildingBlock: EZIPEK_clean_linker_0, # of connection points: 2
# Relax obj value: 0.012
# Max RMSD: 0.175
# Mean RMSD: 0.120
data_MOF--net-eea--node1-OLANEW_clean_sbu_2--node2-KUMBOL_clean_sbu_0--edge1-EZIPEK_clean_linker_0
_symmetry_space_group_name_H-M    P1
_symmetry_Int_Tables_number       1
_symmetry_cell_setting            triclinic
loop_
_symmetry_equiv_pos_as_xyz
'x, y, z'
_cell_length_a     45.339447
_cell_length_b     44.980812
_cell_length_c     54.450411
_cell_angle_alpha  94.671013
_cell_angle_beta   90.07427
_cell_angle_gamma 121.01032
loop_
_atom_site_label
_atom_site_type_symbol
_atom_site_fract_x
_atom_site_fract_y
_atom_site_fract_z
_atom_type_partial_charge
O0 O 0.26838 0.16065 0.44143 0.0
Cd1 Cd 0.23281 0.14317 0.40286 0.0
O2 O 0.28985 0.12838 0.42819 0.0
Cd3 Cd 0.2516 0.09925 0.39797 0.0
O4 O 0.21339 0.04401 0.3902 0.0
C5 C 0.22355 0.02449 0.38035 0.0
O6 O 0.25538 0.03859 0.37339 0.0
C7 C 0.2893 0.15016 0.44431 0.0
C8 C 0.21632 0.19099 0.3878 0.0
O9 O 0.24492 0.19333 0.38241 0.0
O10 O 0.19585 0.16658 0.40077 0.0
O11 O 0.87511 0.1555 0.41433 0.0
Cd12 Cd 0.89871 0.14167 0.37751 0.0
O13 O 0.89458 0.1316 0.43842 0.0
Cd14 Cd 0.90283 0.10408 0.40711 0.0
O15 O 0.86525 0.05197 0.39068 0.0
C16 C 0.83637 0.04702 0.38315 0.0
O17 O 0.83164 0.0735 0.38363 0.0
C18 C 0.87989 0.1488 0.43572 0.0
C19 C 0.965 0.19496 0.36835 0.0
O20 O 0.96023 0.17283 0.38362 0.0
O21 O 0.93847 0.19203 0.35738 0.0
O22 O 0.88048 0.69647 0.43622 0.0
Cd23 Cd 0.897 0.70391 0.39313 0.0
O24 O 0.85294 0.72365 0.43073 0.0
Cd25 Cd 0.81815 0.74345 0.43731 0.0
O26 O 0.78518 0.76411 0.42875 0.0
C27 C 0.78923 0.77799 0.40862 0.0
O28 O 0.81304 0.77996 0.39398 0.0
C29 C 0.86074 0.70687 0.44445 0.0
C30 C 0.96622 0.73029 0.38313 0.0
O31 O 0.94661 0.69856 0.38776 0.0
O32 O 0.95354 0.75007 0.38412 0.0
O33 O 0.18548 0.27842 0.58459 0.0
Cd34 Cd 0.19855 0.28045 0.62863 0.0
O35 O 0.13714 0.27479 0.59322 0.0
Cd36 Cd 0.088 0.27301 0.59891 0.0
O37 O 0.03621 0.25697 0.6116 0.0
C38 C 0.02917 0.25209 0.63408 0.0
O39 O 0.05337 0.25769 0.65031 0.0
C40 C 0.15792 0.27629 0.57685 0.0
C41 C 0.24118 0.25446 0.63877 0.0
O42 O 0.25308 0.28408 0.63027 0.0
O43 O 0.20888 0.23677 0.64241 0.0
O44 O 0.76499 0.84964 0.56594 0.0
Cd45 Cd 0.80659 0.88224 0.60066 0.0
O46 O 0.79367 0.88571 0.53803 0.0
Cd47 Cd 0.82905 0.9264 0.56587 0.0
O48 O 0.84 0.97414 0.58771 0.0
C49 C 0.81416 0.97367 0.59714 0.0
O50 O 0.78383 0.94484 0.59446 0.0
C51 C 0.76814 0.85726 0.54375 0.0
C52 C 0.81063 0.8348 0.62814 0.0
O53 O 0.78839 0.84373 0.63271 0.0
O54 O 0.8316 0.84894 0.61113 0.0
O55 O 0.07618 0.84119 0.57595 0.0
Cd56 Cd 0.07352 0.85488 0.62021 0.0
O57 O 0.13292 0.86787 0.57843 0.0
Cd58 Cd 0.13998 0.89923 0.61308 0.0
O59 O 0.17037 0.95475 0.62521 0.0
C60 C 0.19569 0.96766 0.64086 0.0
O61 O 0.20248 0.94696 0.65213 0.0
C62 C 0.10439 0.84853 0.56628 0.0
C63 C 0.01059 0.80505 0.638 0.0
O64 O 0.01667 0.83556 0.63468 0.0
O65 O 0.03437 0.79837 0.63329 0.0
O66 O 0.89999 0.46988 0.76343 0.0
Cd67 Cd 0.87558 0.45783 0.72129 0.0
O68 O 0.94796 0.47206 0.75298 0.0
Cd69 Cd 0.9231 0.44284 0.7178 0.0
O70 O 0.89087 0.3868 0.70858 0.0
C71 C 0.9033 0.36969 0.69812 0.0
O72 O 0.93492 0.38638 0.69067 0.0
C73 C 0.93007 0.4764 0.76919 0.0
C74 C 0.86665 0.51237 0.71071 0.0
O75 O 0.84242 0.48542 0.71971 0.0
O76 O 0.89488 0.51337 0.70627 0.0
O77 O 0.54618 0.49041 0.76249 0.0
Cd78 Cd 0.5701 0.47643 0.72588 0.0
O79 O 0.56122 0.4633 0.78711 0.0
Cd80 Cd 0.57373 0.43819 0.75659 0.0
O81 O 0.54199 0.3885 0.73471 0.0
C82 C 0.51433 0.36792 0.74475 0.0
O83 O 0.50846 0.37738 0.76678 0.0
C84 C 0.54825 0.48195 0.78388 0.0
C85 C 0.63418 0.53174 0.71481 0.0
O86 O 0.60638 0.52727 0.70485 0.0
O87 O 0.63173 0.51018 0.72986 0.0
O88 O 0.55378 0.02162 0.7647 0.0
Cd89 Cd 0.56776 0.02245 0.72095 0.0
O90 O 0.52426 0.0454 0.75529 0.0
Cd91 Cd 0.48893 0.06516 0.75651 0.0
O92 O 0.45844 0.08629 0.74277 0.0
C93 C 0.44496 0.07706 0.72089 0.0
O94 O 0.4491 0.05463 0.70663 0.0
C95 C 0.53341 0.03205 0.77119 0.0
C96 C 0.63668 0.05612 0.70838 0.0
O97 O 0.6215 0.02508 0.71497 0.0
O98 O 0.61981 0.07187 0.70869 0.0
O99 O 0.85988 0.62728 0.92867 0.0
Cd100 Cd 0.86776 0.62593 0.973 0.0
O101 O 0.80869 0.61811 0.93443 0.0
Cd102 Cd 0.75686 0.61094 0.93773 0.0
O103 O 0.70435 0.59213 0.95001 0.0
C104 C 0.699 0.6019 0.97128 0.0
O105 O 0.72524 0.62431 0.98625 0.0
C106 C 0.83179 0.62232 0.91933 0.0
C107 C 0.90623 0.59553 0.98289 0.0
O108 O 0.87324 0.57724 0.98091 0.0
O109 O 0.92107 0.62816 0.98033 0.0
O110 O 0.41241 0.21215 0.92689 0.0
Cd111 Cd 0.44925 0.22804 0.96439 0.0
O112 O 0.45548 0.23014 0.90202 0.0
Cd113 Cd 0.49192 0.25986 0.93307 0.0
O114 O 0.50408 0.3079 0.95498 0.0
C115 C 0.47994 0.3144 0.95447 0.0
O116 O 0.45063 0.292 0.94241 0.0
C117 C 0.42334 0.21516 0.90521 0.0
C118 C 0.46286 0.17617 0.97384 0.0
O119 O 0.48322 0.20098 0.96113 0.0
O120 O 0.43616 0.17576 0.98197 0.0
O121 O 0.75808 0.18002 0.91217 0.0
Cd122 Cd 0.7544 0.19085 0.9567 0.0
O123 O 0.81145 0.19146 0.91624 0.0
Cd124 Cd 0.82058 0.21925 0.95276 0.0
O125 O 0.8477 0.27425 0.96643 0.0
C126 C 0.87844 0.28985 0.97549 0.0
O127 O 0.89321 0.27192 0.97936 0.0
C128 C 0.78414 0.18062 0.90293 0.0
C129 C 0.68874 0.14457 0.97259 0.0
O130 O 0.69789 0.17615 0.96972 0.0
O131 O 0.71063 0.13513 0.96819 0.0
O132 O 0.59515 0.83469 0.11752 0.0
Cd133 Cd 0.56683 0.82425 0.07644 0.0
O134 O 0.6239 0.81032 0.10289 0.0
Cd135 Cd 0.59582 0.78989 0.06719 0.0
O136 O 0.56292 0.73531 0.05341 0.0
C137 C 0.57629 0.71929 0.04265 0.0
O138 O 0.60885 0.73682 0.0373 0.0
C139 C 0.61736 0.82588 0.12064 0.0
C140 C 0.55244 0.87386 0.06193 0.0
O141 O 0.53022 0.84797 0.07302 0.0
O142 O 0.58183 0.87701 0.05838 0.0
O143 O 0.21734 0.84177 0.09425 0.0
Cd144 Cd 0.24103 0.82717 0.05772 0.0
O145 O 0.21379 0.79865 0.1133 0.0
Cd146 Cd 0.22729 0.77521 0.08221 0.0
O147 O 0.20044 0.72492 0.06034 0.0
C148 C 0.16984 0.70553 0.06684 0.0
O149 O 0.15836 0.71699 0.08515 0.0
C150 C 0.21009 0.82477 0.11313 0.0
C151 C 0.30538 0.88102 0.0455 0.0
O152 O 0.27765 0.87647 0.03534 0.0
O153 O 0.30269 0.86037 0.06141 0.0
O154 O 0.23081 0.40338 0.10187 0.0
Cd155 Cd 0.25252 0.43497 0.06492 0.0
O156 O 0.17696 0.38946 0.09486 0.0
Cd157 Cd 0.1826 0.41466 0.06092 0.0
O158 O 0.16171 0.43699 0.0368 0.0
C159 C 0.13227 0.43144 0.04267 0.0
O160 O 0.1172 0.41217 0.06082 0.0
C161 C 0.19967 0.38869 0.10809 0.0
C162 C 0.31733 0.4463 0.05229 0.0
O163 O 0.31438 0.46604 0.06918 0.0
O164 O 0.28966 0.42106 0.04126 0.0
O165 O 0.50771 0.94175 0.24715 0.0
Cd166 Cd 0.49789 0.91184 0.28445 0.0
O167 O 0.46028 0.93963 0.25583 0.0
Cd168 Cd 0.4125 0.93777 0.26663 0.0
O169 O 0.36495 0.91575 0.28697 0.0
C170 C 0.34503 0.92785 0.28784 0.0
O171 O 0.35312 0.95566 0.2766 0.0
C172 C 0.48349 0.94612 0.24036 0.0
C173 C 0.54867 0.89786 0.29783 0.0
O174 O 0.52837 0.88162 0.27876 0.0
O175 O 0.54567 0.92156 0.31023 0.0
O176 O 0.05188 0.49672 0.23693 0.0
Cd177 Cd 0.08574 0.51998 0.27638 0.0
O178 O 0.09247 0.53449 0.21463 0.0
Cd179 Cd 0.12324 0.56803 0.24703 0.0
O180 O 0.13646 0.61525 0.27049 0.0
C181 C 0.12762 0.635 0.26168 0.0
O182 O 0.11235 0.62641 0.23956 0.0
C183 C 0.06271 0.50784 0.2161 0.0
C184 C 0.10393 0.47482 0.29454 0.0
O185 O 0.07482 0.47182 0.29904 0.0
O186 O 0.12442 0.499 0.28143 0.0
O187 O 0.43156 0.50508 0.25056 0.0
Cd188 Cd 0.41307 0.51932 0.29004 0.0
O189 O 0.48449 0.52665 0.26587 0.0
Cd190 Cd 0.47699 0.54702 0.30134 0.0
O191 O 0.50241 0.59937 0.32017 0.0
C192 C 0.5291 0.62063 0.30951 0.0
O193 O 0.53794 0.60932 0.28951 0.0
C194 C 0.46224 0.51187 0.24795 0.0
C195 C 0.35031 0.467 0.30587 0.0
O196 O 0.35144 0.48733 0.29022 0.0
O197 O 0.37886 0.47106 0.31393 0.0
Gd198 Gd 0.51279 0.04071 0.04442 0.0
Gd199 Gd 0.48362 0.99156 0.98176 0.0
C200 C 0.37994 0.88866 0.9699 0.0
C201 C 0.39765 0.84651 0.96081 0.0
C202 C 0.44048 0.90824 0.96878 0.0
C203 C 0.41488 0.91552 0.97295 0.0
C204 C 0.43222 0.8738 0.96185 0.0
C205 C 0.37148 0.85397 0.96471 0.0
C206 C 0.35467 0.89769 0.97098 0.0
C207 C 0.36467 0.93281 0.9738 0.0
N208 N 0.42415 0.94938 0.97735 0.0
C209 C 0.39972 0.95837 0.97644 0.0
H210 H 0.40724 0.98523 0.97803 0.0
C211 C 0.49842 0.93041 0.95934 0.0
N212 N 0.47324 0.93546 0.96873 0.0
C213 C 0.49187 0.89672 0.95293 0.0
C214 C 0.45872 0.86816 0.9547 0.0
H215 H 0.52373 0.95241 0.957 0.0
H216 H 0.3448 0.83291 0.96274 0.0
H217 H 0.59045 0.0516 0.05419 0.0
H218 H 0.32755 0.87789 0.96878 0.0
H219 H 0.34545 0.94024 0.97386 0.0
H220 H 0.39078 0.81982 0.95583 0.0
H221 H 0.46486 0.07625 0.06031 0.0
H222 H 0.66518 0.16073 0.06481 0.0
H223 H 0.65084 0.09952 0.06201 0.0
H224 H 0.59539 0.21235 0.06999 0.0
H225 H 0.51225 0.89285 0.94629 0.0
H226 H 0.4535 0.84211 0.94928 0.0
H227 H 0.64418 0.20285 0.06725 0.0
H228 H 0.47291 0.13456 0.06977 0.0
N229 N 0.5709 0.08519 0.05177 0.0
C230 C 0.63865 0.13979 0.06127 0.0
C231 C 0.63069 0.10528 0.05956 0.0
C232 C 0.61197 0.14671 0.06002 0.0
C233 C 0.57786 0.11838 0.05579 0.0
C234 C 0.59647 0.07818 0.05492 0.0
N235 N 0.51823 0.0953 0.05597 0.0
C236 C 0.55059 0.12365 0.05803 0.0
C237 C 0.49499 0.13187 0.06643 0.0
C238 C 0.52803 0.16139 0.0673 0.0
C239 C 0.49056 0.09881 0.06118 0.0
C240 C 0.55642 0.15748 0.0636 0.0
H241 H 0.5314 0.18696 0.07149 0.0
O242 O 0.48511 0.02777 0.07814 0.0
O243 O 0.47041 0.99601 0.02073 0.0
O244 O 0.47117 0.03522 0.98699 0.0
O245 O 0.50666 0.07466 0.01973 0.0
O246 O 0.45614 0.01832 0.04894 0.0
O247 O 0.53329 0.02876 0.07579 0.0
O248 O 0.51051 0.00391 0.94759 0.0
O249 O 0.52617 0.03601 0.00532 0.0
O250 O 0.53056 0.00173 0.03853 0.0
O251 O 0.49661 0.96026 0.00564 0.0
O252 O 0.54012 0.0115 0.97835 0.0
O253 O 0.46299 0.00375 0.95054 0.0
C254 C 0.44443 0.99406 0.03105 0.0
C255 C 0.59035 0.1861 0.06598 0.0
C256 C 0.61812 0.18071 0.06432 0.0
C257 C 0.50824 0.02445 0.08968 0.0
C258 C 0.51741 0.03977 0.11537 0.0
C259 C 0.5364 0.07595 0.12137 0.0
C260 C 0.50641 0.01746 0.13426 0.0
C261 C 0.51451 0.03107 0.15911 0.0
C262 C 0.54441 0.08962 0.14612 0.0
C263 C 0.53363 0.06732 0.16495 0.0
C264 C 0.48639 0.06651 0.99982 0.0
C265 C 0.552 0.03634 0.99591 0.0
C266 C 0.487 0.00664 0.93605 0.0
C267 C 0.47565 0.98787 0.91121 0.0
C268 C 0.45229 0.95179 0.90841 0.0
C269 C 0.48934 0.00573 0.89012 0.0
C270 C 0.48049 0.98736 0.86643 0.0
C271 C 0.44316 0.93359 0.885 0.0
C272 C 0.45731 0.95114 0.86416 0.0
C273 C 0.51757 0.97076 0.02575 0.0
H274 H 0.54498 0.09351 0.10699 0.0
H275 H 0.49182 0.98945 0.12967 0.0
H276 H 0.55915 0.11756 0.1507 0.0
H277 H 0.54033 0.07824 0.18401 0.0
H278 H 0.44131 0.93765 0.92432 0.0
H279 H 0.50734 0.03364 0.89214 0.0
H280 H 0.42527 0.90572 0.88302 0.0
H281 H 0.45017 0.93644 0.84618 0.0
Gd282 Gd 0.99532 0.49495 0.03587 0.0
Gd283 Gd 0.02961 0.50999 0.97413 0.0
C284 C 0.12418 0.50122 0.95889 0.0
C285 C 0.16808 0.56135 0.95438 0.0
C286 C 0.1091 0.54575 0.96172 0.0
C287 C 0.09961 0.51131 0.96273 0.0
C288 C 0.14315 0.5709 0.95665 0.0
C289 C 0.15862 0.52657 0.95553 0.0
C290 C 0.11318 0.46583 0.95759 0.0
C291 C 0.07824 0.44139 0.95884 0.0
N292 N 0.06599 0.48737 0.96581 0.0
C293 C 0.05483 0.45258 0.96253 0.0
H294 H 0.0281 0.43291 0.96315 0.0
C295 C 0.09089 0.58583 0.95774 0.0
N296 N 0.0844 0.55412 0.96376 0.0
C297 C 0.12429 0.61177 0.95293 0.0
C298 C 0.15074 0.60451 0.95293 0.0
H299 H 0.07041 0.59135 0.95709 0.0
H300 H 0.17787 0.51933 0.9529 0.0
H301 H 0.05151 0.52406 0.0851 0.0
H302 H 0.13123 0.45704 0.95472 0.0
H303 H 0.06927 0.41383 0.95704 0.0
H304 H 0.19447 0.58041 0.95083 0.0
H305 H 0.91803 0.4797 0.01788 0.0
H306 H 0.04095 0.60002 0.13015 0.0
H307 H 0.07031 0.56707 0.12135 0.0
H308 H 0.94036 0.59178 0.09373 0.0
H309 H 0.12954 0.63722 0.94903 0.0
H310 H 0.17656 0.62455 0.94897 0.0
H311 H 0.99264 0.60958 0.11941 0.0
H312 H 0.87986 0.50269 0.02699 0.0
N313 N 0.01326 0.53395 0.07219 0.0
C314 C 0.03288 0.58147 0.11393 0.0
C315 C 0.04949 0.56292 0.10904 0.0
C316 C 0.00499 0.57463 0.09847 0.0
C317 C 0.99552 0.55016 0.07765 0.0
C318 C 0.03887 0.53867 0.08828 0.0
N319 N 0.95735 0.51527 0.04434 0.0
C320 C 0.96643 0.54034 0.06325 0.0
C321 C 0.90424 0.5137 0.03729 0.0
C322 C 0.91435 0.54114 0.05565 0.0
C323 C 0.92596 0.5007 0.03214 0.0
C324 C 0.94551 0.5544 0.06924 0.0
H325 H 0.89755 0.55124 0.05961 0.0
O326 O 0.94782 0.45438 0.04992 0.0
O327 O 0.02651 0.4848 0.00801 0.0
O328 O 0.99395 0.45299 0.97904 0.0
O329 O 0.95699 0.45727 0.0054 0.0
O330 O 0.04406 0.49554 0.04442 0.0
O331 O 0.99506 0.45529 0.05634 0.0
O332 O 0.9846 0.48914 0.94916 0.0
O333 O 0.99118 0.51133 0.99927 0.0
O334 O 0.04051 0.5508 0.03872 0.0
O335 O 0.06676 0.55705 1.00057 0.0
O336 O 0.0181 0.55298 0.97888 0.0
O337 O 0.03413 0.51066 0.93408 0.0
C338 C 0.05094 0.48957 0.02234 0.0
C339 C 0.95579 0.58027 0.08907 0.0
C340 C 0.98554 0.5904 0.10368 0.0
C341 C 0.96274 0.44085 0.06106 0.0
C342 C 0.95339 0.43308 0.08661 0.0
C343 C 0.91914 0.40846 0.09111 0.0
C344 C 0.97789 0.4496 0.10653 0.0
C345 C 0.96809 0.44163 0.13067 0.0
C346 C 0.90942 0.40052 0.11515 0.0
C347 C 0.93377 0.41703 0.1349 0.0
C348 C 0.96276 0.43955 0.9875 0.0
C349 C 0.9949 0.54025 0.99482 0.0
C350 C 0.00161 0.49819 0.92943 0.0
C351 C 0.99201 0.51653 0.91284 0.0
C352 C 0.98788 0.54424 0.92201 0.0
C353 C 0.98495 0.50492 0.88763 0.0
C354 C 0.97344 0.52059 0.87191 0.0
C355 C 0.97682 0.56001 0.90636 0.0
C356 C 0.96954 0.54823 0.8814 0.0
C357 C 0.06559 0.56843 0.02368 0.0
H358 H 0.89992 0.39539 0.07598 0.0
H359 H 0.00445 0.46858 0.10342 0.0
H360 H 0.88296 0.38155 0.11847 0.0
H361 H 0.9259 0.41073 0.15347 0.0
H362 H 0.99256 0.55355 0.94123 0.0
H363 H 0.98757 0.48329 0.88033 0.0
H364 H 0.97349 0.58114 0.91369 0.0
H365 H 0.96052 0.56039 0.86949 0.0
Gd366 Gd 0.48569 0.51024 0.98326 0.0
Gd367 Gd 0.52445 0.50506 0.04206 0.0
C368 C 0.63512 0.52812 0.04474 0.0
C369 C 0.62665 0.47089 0.04896 0.0
C370 C 0.5775 0.47871 0.04726 0.0
C371 C 0.59911 0.51357 0.04432 0.0
C372 C 0.59112 0.45728 0.0507 0.0
C373 C 0.64866 0.50632 0.04601 0.0
C374 C 0.65645 0.56431 0.04519 0.0
C375 C 0.64179 0.58507 0.04645 0.0
N376 N 0.58514 0.53389 0.04367 0.0
C377 C 0.60591 0.56937 0.04606 0.0
H378 H 0.59497 0.58575 0.04709 0.0
C379 C 0.52284 0.43568 0.05901 0.0
N380 N 0.54355 0.46682 0.04967 0.0
C381 C 0.53483 0.41308 0.0622 0.0
C382 C 0.56894 0.42358 0.05736 0.0
H383 H 0.49696 0.42823 0.06372 0.0
H384 H 0.6762 0.51691 0.04588 0.0
H385 H 0.41326 0.4323 0.98128 0.0
H386 H 0.68423 0.57652 0.0455 0.0
H387 H 0.65806 0.61316 0.04757 0.0
H388 H 0.63756 0.4547 0.05114 0.0
H389 H 0.52009 0.59028 0.96489 0.0
H390 H 0.32697 0.44629 0.97745 0.0
H391 H 0.35038 0.40755 0.97979 0.0
H392 H 0.37927 0.56683 0.96422 0.0
H393 H 0.51793 0.38784 0.0687 0.0
H394 H 0.57836 0.40628 0.06021 0.0
H395 H 0.33808 0.50615 0.97208 0.0
H396 H 0.50136 0.63047 0.95421 0.0
N397 N 0.42543 0.48466 0.98141 0.0
C398 C 0.3546 0.4573 0.97836 0.0
C399 C 0.36771 0.43536 0.97961 0.0
C400 C 0.37731 0.49294 0.97691 0.0
C401 C 0.41305 0.50592 0.97826 0.0
C402 C 0.40339 0.44951 0.98067 0.0
N403 N 0.47003 0.55056 0.97362 0.0
C404 C 0.43611 0.53994 0.97393 0.0
C405 C 0.48275 0.60515 0.95986 0.0
C406 C 0.44813 0.59519 0.9612 0.0
C407 C 0.49327 0.58229 0.96595 0.0
C408 C 0.42423 0.56209 0.96805 0.0
H409 H 0.44005 0.61294 0.95646 0.0
O410 O 0.51083 0.52215 0.9485 0.0
O411 O 0.53247 0.51798 0.00311 0.0
O412 O 0.5332 0.55924 0.03807 0.0
O413 O 0.49182 0.5544 0.00986 0.0
O414 O 0.54021 0.55197 0.97712 0.0
O415 O 0.46355 0.47274 0.95087 0.0
O416 O 0.49678 0.49244 0.07588 0.0
O417 O 0.4784 0.4988 0.02237 0.0
O418 O 0.47605 0.45555 0.98675 0.0
O419 O 0.51637 0.45968 0.01611 0.0
O420 O 0.46909 0.46304 0.04709 0.0
O421 O 0.54752 0.53815 0.07629 0.0
C422 C 0.55552 0.54378 0.99276 0.0
C423 C 0.38886 0.55005 0.96832 0.0
C424 C 0.36542 0.51552 0.97283 0.0
C425 C 0.48675 0.49352 0.9365 0.0
C426 C 0.47459 0.49753 0.91272 0.0
C427 C 0.4478 0.5044 0.9111 0.0
C428 C 0.49104 0.49569 0.89138 0.0
C429 C 0.48082 0.50061 0.86848 0.0
C430 C 0.43769 0.50949 0.88832 0.0
C431 C 0.45411 0.50762 0.86704 0.0
C432 C 0.51454 0.5712 0.02877 0.0
C433 C 0.45456 0.47284 0.03194 0.0
C434 C 0.52205 0.51804 0.0894 0.0
C435 C 0.53067 0.5089 0.11253 0.0
C436 C 0.5549 0.49842 0.11356 0.0
C437 C 0.51333 0.50944 0.13373 0.0
C438 C 0.52019 0.49964 0.15587 0.0
C439 C 0.56149 0.48832 0.13552 0.0
C440 C 0.54422 0.4889 0.15663 0.0
C441 C 0.49388 0.44341 0.99707 0.0
H442 H 0.43479 0.50588 0.92736 0.0
H443 H 0.51172 0.49032 0.89252 0.0
H444 H 0.41703 0.51481 0.88715 0.0
H445 H 0.44587 0.51133 0.84946 0.0
H446 H 0.56866 0.498 0.09746 0.0
H447 H 0.4947 0.51767 0.1331 0.0
H448 H 0.58016 0.4802 0.13621 0.0
H449 H 0.5499 0.48145 0.17363 0.0
Gd450 Gd 0.17273 0.35562 0.37419 0.0
Gd451 Gd 0.14572 0.30964 0.31027 0.0
C452 C 0.03948 0.21031 0.29595 0.0
C453 C 0.05444 0.16599 0.28723 0.0
C454 C 0.09932 0.22691 0.29582 0.0
C455 C 0.07481 0.2359 0.29951 0.0
C456 C 0.0895 0.19207 0.28861 0.0
C457 C 0.02941 0.17513 0.29082 0.0
C458 C 0.01551 0.22105 0.29635 0.0
C459 C 0.02716 0.25657 0.29881 0.0
N460 N 0.08566 0.27021 0.30379 0.0
C461 C 0.06252 0.28091 0.30207 0.0
H462 H 0.07095 0.3082 0.30361 0.0
C463 C 0.15681 0.24669 0.28637 0.0
N464 N 0.13266 0.25299 0.29622 0.0
C465 C 0.14871 0.21253 0.27961 0.0
C466 C 0.115 0.18493 0.28137 0.0
H467 H 0.18245 0.26811 0.28396 0.0
H468 H 0.00238 0.15503 0.28851 0.0
H469 H 0.24953 0.36122 0.37937 0.0
H470 H 0.98814 0.20225 0.29376 0.0
H471 H 0.00895 0.26528 0.29824 0.0
H472 H 0.04637 0.13898 0.28211 0.0
H473 H 0.13322 0.39352 0.40173 0.0
H474 H 0.32893 0.4688 0.3878 0.0
H475 H 0.31109 0.40648 0.38332 0.0
H476 H 0.26577 0.52668 0.40226 0.0
H477 H 0.16831 0.20758 0.27272 0.0
H478 H 0.10858 0.15853 0.27571 0.0
H479 H 0.31165 0.51376 0.39411 0.0
H480 H 0.14482 0.453 0.41388 0.0
N481 N 0.23231 0.39724 0.37994 0.0
C482 C 0.30179 0.44898 0.38583 0.0
C483 C 0.29182 0.41385 0.38339 0.0
C484 C 0.27652 0.45799 0.38711 0.0
C485 C 0.24159 0.43111 0.38437 0.0
C486 C 0.25677 0.3882 0.38096 0.0
N487 N 0.18329 0.41113 0.38896 0.0
C488 C 0.21603 0.43835 0.38894 0.0
C489 C 0.16502 0.44935 0.40651 0.0
C490 C 0.19799 0.47807 0.40439 0.0
C491 C 0.15838 0.41578 0.39935 0.0
C492 C 0.22434 0.47268 0.39636 0.0
H493 H 0.20325 0.50401 0.41027 0.0
O494 O 0.14371 0.33977 0.40725 0.0
O495 O 0.13224 0.31088 0.34941 0.0
O496 O 0.12934 0.34971 0.31719 0.0
O497 O 0.15917 0.3881 0.35241 0.0
O498 O 0.11532 0.33186 0.37708 0.0
O499 O 0.19255 0.34246 0.40532 0.0
O500 O 0.17435 0.32173 0.27684 0.0
O501 O 0.18641 0.35448 0.33492 0.0
O502 O 0.19056 0.31679 0.3668 0.0
O503 O 0.15849 0.27709 0.33271 0.0
O504 O 0.20296 0.33284 0.30748 0.0
O505 O 0.12886 0.32555 0.2792 0.0
C506 C 0.10546 0.30772 0.35911 0.0
C507 C 0.25886 0.50003 0.397 0.0
C508 C 0.28498 0.49267 0.3924 0.0
C509 C 0.16682 0.3366 0.4189 0.0
C510 C 0.17503 0.35105 0.44487 0.0
C511 C 0.192 0.38711 0.45135 0.0
C512 C 0.16535 0.32828 0.46349 0.0
C513 C 0.17268 0.34147 0.48848 0.0
C514 C 0.19905 0.40025 0.47618 0.0
C515 C 0.18948 0.37759 0.4947 0.0
C516 C 0.14 0.37911 0.33157 0.0
C517 C 0.21311 0.35737 0.32518 0.0
C518 C 0.15292 0.32738 0.26521 0.0
C519 C 0.14211 0.31087 0.23982 0.0
C520 C 0.11601 0.27575 0.23517 0.0
C521 C 0.15812 0.33053 0.21995 0.0
C522 C 0.14774 0.31532 0.1955 0.0
C523 C 0.10587 0.2605 0.21092 0.0
C524 C 0.12154 0.28015 0.19116 0.0
C525 C 0.17884 0.28675 0.35301 0.0
H526 H 0.19982 0.40503 0.43726 0.0
H527 H 0.15249 0.30039 0.45859 0.0
H528 H 0.21215 0.42809 0.48109 0.0
H529 H 0.19549 0.3882 0.51385 0.0
H530 H 0.10344 0.26022 0.25024 0.0
H531 H 0.17831 0.35769 0.22345 0.0
H532 H 0.08568 0.23341 0.20743 0.0
H533 H 0.11316 0.268 0.17247 0.0
Gd534 Gd 0.64677 0.83898 0.37992 0.0
Gd535 Gd 0.69083 0.83473 0.32346 0.0
C536 C 0.79019 0.83228 0.32957 0.0
C537 C 0.83265 0.88848 0.31633 0.0
C538 C 0.77229 0.87127 0.31714 0.0
C539 C 0.76428 0.84029 0.32614 0.0
C540 C 0.80635 0.89519 0.3113 0.0
C541 C 0.82457 0.85702 0.32544 0.0
C542 C 0.7806 0.79913 0.33605 0.0
C543 C 0.74581 0.77458 0.33808 0.0
N544 N 0.73076 0.81692 0.3298 0.0
C545 C 0.72109 0.78385 0.33471 0.0
H546 H 0.69443 0.76449 0.33655 0.0
C547 C 0.75157 0.90274 0.29812 0.0
N548 N 0.74618 0.87663 0.31211 0.0
C549 C 0.78493 0.92752 0.29224 0.0
C550 C 0.81261 0.9242 0.2994 0.0
H551 H 0.73014 0.90473 0.29179 0.0
H552 H 0.84488 0.85155 0.32836 0.0
H553 H 0.69416 0.90746 0.42192 0.0
H554 H 0.79969 0.79192 0.33881 0.0
H555 H 0.73801 0.74856 0.34248 0.0
H556 H 0.85906 0.90676 0.31229 0.0
H557 H 0.56354 0.78691 0.35889 0.0
H558 H 0.65797 0.97842 0.42108 0.0
H559 H 0.69991 0.96376 0.43639 0.0
H560 H 0.55046 0.91077 0.37449 0.0
H561 H 0.78922 0.9489 0.28196 0.0
H562 H 0.8384 0.94318 0.29458 0.0
H563 H 0.60228 0.95859 0.39743 0.0
H564 H 0.513 0.79114 0.35066 0.0
N565 N 0.65168 0.89195 0.39672 0.0
C566 C 0.65578 0.95399 0.41434 0.0
C567 C 0.67942 0.94579 0.42307 0.0
C568 C 0.62821 0.92945 0.39837 0.0
C569 C 0.62667 0.89808 0.39007 0.0
C570 C 0.67621 0.91398 0.41472 0.0
N571 N 0.59661 0.84097 0.37096 0.0
C572 C 0.59787 0.87147 0.37705 0.0
C573 C 0.53688 0.81413 0.35775 0.0
C574 C 0.53875 0.84603 0.36212 0.0
C575 C 0.56609 0.81203 0.36228 0.0
C576 C 0.56937 0.87515 0.37218 0.0
H577 H 0.51617 0.84765 0.35834 0.0
O578 O 0.60828 0.79368 0.39737 0.0
O579 O 0.68208 0.82279 0.36279 0.0
O580 O 0.65221 0.77987 0.33198 0.0
O581 O 0.61408 0.78605 0.35732 0.0
O582 O 0.69435 0.84555 0.39854 0.0
O583 O 0.64674 0.839 0.41969 0.0
O584 O 0.66484 0.82912 0.2882 0.0
O585 O 0.64759 0.83945 0.33953 0.0
O586 O 0.69303 0.89303 0.37427 0.0
O587 O 0.72682 0.88724 0.34377 0.0
O588 O 0.67476 0.87214 0.31292 0.0
O589 O 0.69017 0.80047 0.2925 0.0
C590 C 0.70443 0.83326 0.38054 0.0
C591 C 0.57179 0.90724 0.37859 0.0
C592 C 0.60129 0.93446 0.39161 0.0
C593 C 0.62191 0.80683 0.41948 0.0
C594 C 0.62716 0.78462 0.43538 0.0
C595 C 0.60284 0.74877 0.43455 0.0
C596 C 0.65545 0.79931 0.45254 0.0
C597 C 0.65961 0.77845 0.46828 0.0
C598 C 0.60776 0.72771 0.44953 0.0
C599 C 0.63611 0.74244 0.46635 0.0
C600 C 0.62197 0.76704 0.3419 0.0
C601 C 0.65003 0.86364 0.32766 0.0
C602 C 0.67561 0.8102 0.27709 0.0
C603 C 0.69237 0.82213 0.25375 0.0
C604 C 0.7278 0.83524 0.25167 0.0
C605 C 0.67287 0.82181 0.23354 0.0
C606 C 0.68855 0.83428 0.21139 0.0
C607 C 0.74346 0.84796 0.22975 0.0
C608 C 0.72398 0.84748 0.20967 0.0
C609 C 0.72141 0.90548 0.36156 0.0
H610 H 0.57991 0.73708 0.42243 0.0
H611 H 0.67381 0.82714 0.45431 0.0
H612 H 0.5891 0.70004 0.4485 0.0
H613 H 0.63904 0.7261 0.47847 0.0
H614 H 0.74345 0.83589 0.26697 0.0
H615 H 0.64551 0.81171 0.23494 0.0
H616 H 0.77078 0.85813 0.2283 0.0
H617 H 0.73641 0.85708 0.19269 0.0
Gd618 Gd 0.13941 0.82881 0.3132 0.0
Gd619 Gd 0.1774 0.81353 0.36801 0.0
C620 C 0.29521 0.86566 0.36776 0.0
C621 C 0.30224 0.81631 0.35707 0.0
C622 C 0.24514 0.80749 0.36289 0.0
C623 C 0.2591 0.84288 0.36724 0.0
C624 C 0.26668 0.79366 0.3588 0.0
C625 C 0.31652 0.85234 0.36157 0.0
C626 C 0.30892 0.90082 0.37573 0.0
C627 C 0.28693 0.91204 0.38411 0.0
N628 N 0.23766 0.85473 0.37325 0.0
C629 C 0.25134 0.88851 0.38299 0.0
H630 H 0.23537 0.898 0.38996 0.0
C631 C 0.19735 0.75163 0.36705 0.0
N632 N 0.21084 0.7865 0.36517 0.0
C633 C 0.21742 0.73655 0.36273 0.0
C634 C 0.2521 0.75757 0.35793 0.0
H635 H 0.17066 0.73523 0.37105 0.0
H636 H 0.3442 0.86952 0.36137 0.0
H637 H 0.06786 0.75064 0.30215 0.0
H638 H 0.33647 0.91913 0.37649 0.0
H639 H 0.29731 0.93892 0.39128 0.0
H640 H 0.31911 0.8062 0.35348 0.0
H641 H 0.17423 0.91335 0.30448 0.0
H642 H 0.98074 0.76327 0.30061 0.0
H643 H 0.00514 0.72512 0.29746 0.0
H644 H 0.03237 0.88671 0.30182 0.0
H645 H 0.20615 0.70876 0.36324 0.0
H646 H 0.26774 0.74593 0.35483 0.0
H647 H 0.9912 0.82393 0.30273 0.0
H648 H 0.15539 0.95472 0.29854 0.0
N649 N 0.07909 0.80264 0.30936 0.0
C650 C 0.00834 0.77462 0.30303 0.0
C651 C 0.02199 0.753 0.30131 0.0
C652 C 0.03069 0.81075 0.30603 0.0
C653 C 0.06645 0.82413 0.30883 0.0
C654 C 0.05762 0.76757 0.30425 0.0
N655 N 0.12362 0.87066 0.3089 0.0
C656 C 0.08949 0.85931 0.30828 0.0
C657 C 0.13657 0.928 0.30141 0.0
C658 C 0.10165 0.91701 0.30174 0.0
C659 C 0.14716 0.90436 0.30487 0.0
C660 C 0.07756 0.88222 0.30497 0.0
H661 H 0.09353 0.93538 0.29903 0.0
O662 O 0.16787 0.84953 0.28062 0.0
O663 O 0.1862 0.8329 0.33095 0.0
O664 O 0.18011 0.86619 0.37249 0.0
O665 O 0.14039 0.8652 0.34449 0.0
O666 O 0.19344 0.87439 0.31277 0.0
O667 O 0.12095 0.79899 0.2773 0.0
O668 O 0.17099 0.78502 0.39989 0.0
O669 O 0.13043 0.80816 0.35001 0.0
O670 O 0.12923 0.77349 0.30904 0.0
O671 O 0.16668 0.77159 0.33758 0.0
O672 O 0.12317 0.76761 0.36879 0.0
O673 O 0.17255 0.83366 0.40459 0.0
C674 C 0.20889 0.86256 0.32491 0.0
C675 C 0.04201 0.86943 0.30399 0.0
C676 C 0.01858 0.83371 0.30458 0.0
C677 C 0.14555 0.82333 0.26569 0.0
C678 C 0.13575 0.83226 0.24297 0.0
C679 C 0.11095 0.84202 0.24269 0.0
C680 C 0.15236 0.83195 0.22132 0.0
C681 C 0.14419 0.84122 0.19945 0.0
C682 C 0.10295 0.85151 0.22096 0.0
C683 C 0.11946 0.85111 0.19937 0.0
C684 C 0.16141 0.87898 0.36449 0.0
C685 C 0.10745 0.77906 0.3566 0.0
C686 C 0.16633 0.80605 0.41485 0.0
C687 C 0.13584 0.79002 0.43013 0.0
C688 C 0.10739 0.75643 0.42318 0.0
C689 C 0.13559 0.80784 0.45252 0.0
C690 C 0.10731 0.79222 0.46761 0.0
C691 C 0.07879 0.74169 0.43766 0.0
C692 C 0.07872 0.75942 0.45982 0.0
C693 C 0.14554 0.75886 0.31777 0.0
H694 H 0.09782 0.84232 0.25917 0.0
H695 H 0.17144 0.82426 0.22141 0.0
H696 H 0.0838 0.85904 0.22082 0.0
H697 H 0.11277 0.85814 0.18258 0.0
H698 H 0.10721 0.74101 0.40686 0.0
H699 H 0.1577 0.83321 0.45859 0.0
H700 H 0.05697 0.71601 0.43198 0.0
H701 H 0.05679 0.74718 0.47127 0.0
Gd702 Gd 0.84102 0.69355 0.71463 0.0
Gd703 Gd 0.80847 0.64889 0.65122 0.0
C704 C 0.69993 0.55258 0.63921 0.0
C705 C 0.71179 0.50679 0.6268 0.0
C706 C 0.75884 0.56665 0.63611 0.0
C707 C 0.73567 0.57691 0.64186 0.0
C708 C 0.74721 0.53168 0.62774 0.0
C709 C 0.68813 0.51727 0.63242 0.0
C710 C 0.6772 0.56472 0.64247 0.0
C711 C 0.69036 0.60044 0.64709 0.0
N712 N 0.74807 0.6113 0.64781 0.0
C713 C 0.72605 0.62348 0.64928 0.0
H714 H 0.7359 0.65092 0.65257 0.0
C715 C 0.81554 0.58418 0.6255 0.0
N716 N 0.79256 0.59169 0.63613 0.0
C717 C 0.8056 0.54977 0.61761 0.0
C718 C 0.77135 0.52323 0.61921 0.0
H719 H 0.84167 0.60481 0.62339 0.0
H720 H 0.6608 0.4981 0.63069 0.0
H721 H 0.91794 0.7015 0.72071 0.0
H722 H 0.64956 0.5469 0.6407 0.0
H723 H 0.67307 0.61028 0.64899 0.0
H724 H 0.70235 0.47971 0.62071 0.0
H725 H 0.79527 0.73017 0.7342 0.0
H726 H 0.9949 0.80953 0.73507 0.0
H727 H 0.97888 0.74782 0.7288 0.0
H728 H 0.92811 0.86388 0.74689 0.0
H729 H 0.82421 0.54383 0.60999 0.0
H730 H 0.76352 0.49666 0.61266 0.0
H731 H 0.97564 0.85286 0.7413 0.0
H732 H 0.80532 0.78858 0.74709 0.0
N733 N 0.89967 0.7365 0.72166 0.0
C734 C 0.96811 0.78929 0.73142 0.0
C735 C 0.95921 0.75453 0.72774 0.0
C736 C 0.94209 0.79726 0.73192 0.0
C737 C 0.9076 0.76979 0.72747 0.0
C738 C 0.92467 0.72835 0.72294 0.0
N739 N 0.84822 0.7482 0.72875 0.0
C740 C 0.881 0.77588 0.73121 0.0
C741 C 0.82683 0.7854 0.74256 0.0
C742 C 0.86027 0.81434 0.7439 0.0
C743 C 0.82126 0.75227 0.73535 0.0
C744 C 0.88794 0.80973 0.73867 0.0
H745 H 0.86452 0.83995 0.74964 0.0
O746 O 0.81388 0.67802 0.74841 0.0
O747 O 0.79743 0.65029 0.6909 0.0
O748 O 0.79877 0.69387 0.65963 0.0
O749 O 0.8366 0.73086 0.69225 0.0
O750 O 0.78467 0.6723 0.72023 0.0
O751 O 0.86262 0.68059 0.74486 0.0
O752 O 0.83359 0.65995 0.61638 0.0
O753 O 0.85257 0.6914 0.67479 0.0
O754 O 0.8575 0.65383 0.70523 0.0
O755 O 0.82105 0.61498 0.67211 0.0
O756 O 0.86444 0.66763 0.64604 0.0
O757 O 0.78945 0.66557 0.62175 0.0
C758 C 0.77207 0.64852 0.70201 0.0
C759 C 0.92224 0.83761 0.74141 0.0
C760 C 0.94929 0.83136 0.73813 0.0
C761 C 0.83779 0.67525 0.75931 0.0
C762 C 0.84757 0.69088 0.78498 0.0
C763 C 0.86457 0.72711 0.79059 0.0
C764 C 0.83877 0.66915 0.80421 0.0
C765 C 0.84691 0.68358 0.82892 0.0
C766 C 0.8726 0.74147 0.81515 0.0
C767 C 0.86383 0.71985 0.83426 0.0
C768 C 0.81653 0.72486 0.67264 0.0
C769 C 0.87767 0.69184 0.66406 0.0
C770 C 0.81171 0.66639 0.60627 0.0
C771 C 0.79839 0.64949 0.5812 0.0
C772 C 0.77272 0.61412 0.57747 0.0
C773 C 0.81295 0.66837 0.56072 0.0
C774 C 0.80276 0.65165 0.53659 0.0
C775 C 0.76217 0.59756 0.55359 0.0
C776 C 0.77726 0.61606 0.53327 0.0
C777 C 0.84334 0.6237 0.6911 0.0
H778 H 0.87148 0.74422 0.77606 0.0
H779 H 0.82574 0.64112 0.8 0.0
H780 H 0.88571 0.76945 0.81937 0.0
H781 H 0.87049 0.73138 0.85319 0.0
H782 H 0.76111 0.59925 0.59297 0.0
H783 H 0.8328 0.69574 0.56352 0.0
H784 H 0.7425 0.5702 0.55083 0.0
H785 H 0.76909 0.60261 0.51489 0.0
Gd786 Gd 0.32705 0.16848 0.70503 0.0
Gd787 Gd 0.37606 0.17971 0.64803 0.0
C788 C 0.46419 0.15812 0.64746 0.0
C789 C 0.51427 0.21608 0.64567 0.0
C790 C 0.45669 0.20731 0.64535 0.0
C791 C 0.44277 0.17229 0.64738 0.0
C792 C 0.49247 0.2294 0.64339 0.0
C793 C 0.50012 0.18041 0.64769 0.0
C794 C 0.44879 0.12187 0.64594 0.0
C795 C 0.41297 0.10081 0.64308 0.0
N796 N 0.40798 0.1516 0.64658 0.0
C797 C 0.39289 0.11621 0.64302 0.0
H798 H 0.36526 0.09966 0.6409 0.0
C799 C 0.44625 0.25066 0.634 0.0
N800 N 0.43474 0.21888 0.64241 0.0
C801 C 0.48157 0.27391 0.63226 0.0
C802 C 0.50491 0.26354 0.63764 0.0
H803 H 0.42812 0.25808 0.62883 0.0
H804 H 0.51705 0.17011 0.64823 0.0
H805 H 0.33568 0.24671 0.71671 0.0
H806 H 0.4643 0.10991 0.64596 0.0
H807 H 0.40077 0.07272 0.64109 0.0
H808 H 0.5419 0.23275 0.64463 0.0
H809 H 0.27586 0.08411 0.71384 0.0
H810 H 0.23554 0.234 0.71865 0.0
H811 H 0.29899 0.27221 0.7218 0.0
H812 H 0.16081 0.11028 0.71601 0.0
H813 H 0.4907 0.29957 0.62646 0.0
H814 H 0.53221 0.28137 0.63593 0.0
H815 H 0.18389 0.17321 0.7159 0.0
H816 H 0.21436 0.04216 0.71885 0.0
N817 N 0.29362 0.19469 0.70969 0.0
C818 C 0.25155 0.22267 0.71624 0.0
C819 C 0.28733 0.24431 0.71804 0.0
C820 C 0.23694 0.18653 0.71297 0.0
C821 C 0.25902 0.17319 0.71012 0.0
C822 C 0.30806 0.22976 0.71493 0.0
N823 N 0.26866 0.12669 0.70982 0.0
C824 C 0.24609 0.13797 0.71037 0.0
C825 C 0.22292 0.06902 0.71641 0.0
C826 C 0.19917 0.07995 0.71593 0.0
C827 C 0.25779 0.09292 0.71359 0.0
C828 C 0.21067 0.11489 0.71321 0.0
H829 H 0.17218 0.06141 0.7182 0.0
O830 O 0.33322 0.1494 0.73877 0.0
O831 O 0.36757 0.16272 0.68602 0.0
O832 O 0.32883 0.12499 0.6493 0.0
O833 O 0.29019 0.13029 0.6745 0.0
O834 O 0.33736 0.12524 0.70903 0.0
O835 O 0.3446 0.20258 0.73919 0.0
O836 O 0.3632 0.19464 0.61449 0.0
O837 O 0.33599 0.18532 0.66741 0.0
O838 O 0.37396 0.22375 0.70509 0.0
O839 O 0.41228 0.22367 0.67593 0.0
O840 O 0.36442 0.22251 0.64397 0.0
O841 O 0.36632 0.14836 0.61315 0.0
C842 C 0.36286 0.13544 0.69491 0.0
C843 C 0.18818 0.12767 0.71419 0.0
C844 C 0.20131 0.16348 0.71405 0.0
C845 C 0.34203 0.17832 0.75218 0.0
C846 C 0.32552 0.17462 0.77571 0.0
C847 C 0.29032 0.16293 0.7768 0.0
C848 C 0.34539 0.18186 0.79748 0.0
C849 C 0.3303 0.17742 0.82035 0.0
C850 C 0.27519 0.15848 0.79963 0.0
C851 C 0.29508 0.16567 0.8214 0.0
C852 C 0.29688 0.11378 0.65612 0.0
C853 C 0.33976 0.2124 0.65899 0.0
C854 C 0.36161 0.16902 0.60055 0.0
C855 C 0.37878 0.17798 0.5772 0.0
C856 C 0.41429 0.19129 0.5759 0.0
C857 C 0.35912 0.17353 0.55585 0.0
C858 C 0.3746 0.18188 0.53314 0.0
C859 C 0.42988 0.20005 0.55335 0.0
C860 C 0.41014 0.19528 0.532 0.0
C861 C 0.40482 0.23775 0.69547 0.0
H862 H 0.27461 0.15714 0.76011 0.0
H863 H 0.37263 0.19095 0.79668 0.0
H864 H 0.24802 0.14945 0.80044 0.0
H865 H 0.28318 0.16233 0.839 0.0
H866 H 0.42984 0.1948 0.59219 0.0
H867 H 0.33163 0.16308 0.55678 0.0
H868 H 0.45726 0.21027 0.55239 0.0
H869 H 0.42243 0.20162 0.51457 0.0
Gd870 Gd 0.81571 0.16592 0.6368 0.0
Gd871 Gd 0.84621 0.15323 0.69592 0.0
C872 C 0.95805 0.18032 0.70531 0.0
C873 C 0.95074 0.12308 0.70671 0.0
C874 C 0.9007 0.12933 0.70361 0.0
C875 C 0.9219 0.16491 0.70296 0.0
C876 C 0.91487 0.10821 0.70644 0.0
C877 C 0.97231 0.15913 0.7062 0.0
C878 C 0.97877 0.21663 0.7078 0.0
C879 C 0.96332 0.23658 0.70915 0.0
N880 N 0.90721 0.18468 0.70228 0.0
C881 C 0.92742 0.22015 0.70676 0.0
H882 H 0.9167 0.23652 0.70784 0.0
C883 C 0.84501 0.08283 0.71031 0.0
N884 N 0.86627 0.11592 0.704 0.0
C885 C 0.85766 0.06065 0.71281 0.0
C886 C 0.89267 0.07317 0.71025 0.0
H887 H 0.81815 0.07343 0.71305 0.0
H888 H 0.99999 0.1705 0.70751 0.0
H889 H 0.74138 0.09064 0.62746 0.0
H890 H 0.00659 0.22946 0.7096 0.0
H891 H 0.97905 0.26472 0.71185 0.0
H892 H 0.96208 0.1072 0.70846 0.0
H893 H 0.85603 0.24942 0.62435 0.0
H894 H 0.65895 0.11084 0.62534 0.0
H895 H 0.67894 0.06893 0.62429 0.0
H896 H 0.71859 0.23424 0.62097 0.0
H897 H 0.84048 0.03406 0.71692 0.0
H898 H 0.90253 0.05609 0.71248 0.0
H899 H 0.67409 0.17294 0.62437 0.0
H900 H 0.84155 0.29367 0.61631 0.0
N901 N 0.75612 0.14376 0.63281 0.0
C902 C 0.68626 0.12038 0.62732 0.0
C903 C 0.69743 0.09666 0.6267 0.0
C904 C 0.71064 0.15609 0.62873 0.0
C905 C 0.74587 0.16706 0.63129 0.0
C906 C 0.73273 0.10895 0.62886 0.0
N907 N 0.80428 0.21025 0.63004 0.0
C908 C 0.77079 0.20143 0.62945 0.0
C909 C 0.82141 0.26786 0.62009 0.0
C910 C 0.7872 0.25956 0.62043 0.0
C911 C 0.82951 0.24269 0.6247 0.0
C912 C 0.76132 0.22592 0.62491 0.0
H913 H 0.78099 0.27909 0.61677 0.0
O914 O 0.84342 0.18166 0.6033 0.0
O915 O 0.85984 0.16998 0.65826 0.0
O916 O 0.86022 0.20923 0.69363 0.0
O917 O 0.82028 0.20718 0.66574 0.0
O918 O 0.8717 0.20685 0.6339 0.0
O919 O 0.79459 0.13297 0.60224 0.0
O920 O 0.84889 0.14659 0.73505 0.0
O921 O 0.80115 0.14589 0.67381 0.0
O922 O 0.80637 0.11085 0.63537 0.0
O923 O 0.83877 0.10912 0.66832 0.0
O924 O 0.79295 0.10561 0.69359 0.0
O925 O 0.82307 0.172 0.72324 0.0
C926 C 0.88466 0.19633 0.64962 0.0
C927 C 0.72635 0.21568 0.62406 0.0
C928 C 0.70102 0.1808 0.62606 0.0
C929 C 0.81939 0.15509 0.58949 0.0
C930 C 0.80958 0.16318 0.56637 0.0
C931 C 0.78614 0.17471 0.56581 0.0
C932 C 0.82504 0.16063 0.54467 0.0
C933 C 0.81735 0.16974 0.52254 0.0
C934 C 0.77861 0.18401 0.54381 0.0
C935 C 0.7942 0.18164 0.52222 0.0
C936 C 0.84198 0.22215 0.68533 0.0
C937 C 0.77799 0.11637 0.67976 0.0
C938 C 0.83041 0.16002 0.74165 0.0
C939 C 0.80243 0.14105 0.75846 0.0
C940 C 0.77157 0.11039 0.75003 0.0
C941 C 0.80628 0.15423 0.78334 0.0
C942 C 0.77957 0.13687 0.79942 0.0
C943 C 0.74503 0.09339 0.76593 0.0
C944 C 0.74896 0.1065 0.79054 0.0
C945 C 0.8211 0.09638 0.64678 0.0
H946 H 0.77376 0.17659 0.58227 0.0
H947 H 0.84305 0.15157 0.54494 0.0
H948 H 0.76058 0.19297 0.5435 0.0
H949 H 0.78794 0.18861 0.50522 0.0
H950 H 0.7675 0.09928 0.7313 0.0
H951 H 0.82987 0.17784 0.7902 0.0
H952 H 0.72134 0.06993 0.75912 0.0
H953 H 0.72818 0.09296 0.80271 0.0
C954 C 0.36542 0.9015 0.03255 0.0
C955 C 0.33987 0.90942 0.03915 0.0
C956 C 0.38124 0.97131 0.0353 0.0
C957 C 0.40805 0.96392 0.03132 0.0
N958 N 0.42592 0.9219 0.03365 0.0
N959 N 0.3252 0.95278 0.05143 0.0
C960 C 0.40023 0.92896 0.03187 0.0
C961 C 0.34808 0.94452 0.0415 0.0
N962 N 0.35643 0.86766 0.02653 0.0
N963 N 0.38739 0.00414 0.03346 0.0
H964 H 0.30107 0.9343 0.05702 0.0
H965 H 0.33134 0.97825 0.05645 0.0
H966 H 0.41169 0.02549 0.03118 0.0
H967 H 0.36787 0.0098 0.03257 0.0
H968 H 0.3736 0.86061 0.01958 0.0
H969 H 0.331 0.84689 0.02588 0.0
H970 H 0.42174 0.89745 0.03659 0.0
H971 H 0.45155 0.94131 0.03531 0.0
C972 C 0.1297 0.48317 0.03051 0.0
C973 C 0.11464 0.44653 0.03001 0.0
C974 C 0.05822 0.43759 0.01842 0.0
C975 C 0.07308 0.47426 0.0189 0.0
N976 N 0.12414 0.53108 0.01918 0.0
N977 N 0.06797 0.3893 0.01549 0.0
C978 C 0.1093 0.49668 0.02272 0.0
C979 C 0.08 0.42393 0.0212 0.0
N980 N 0.16254 0.5052 0.04017 0.0
N981 N 0.02326 0.41579 0.01686 0.0
H982 H 0.08363 0.37875 0.01703 0.0
H983 H 0.04388 0.37203 0.00678 0.0
H984 H 0.00613 0.42433 0.01471 0.0
H985 H 0.01114 0.38942 0.01946 0.0
H986 H 0.17323 0.53196 0.04393 0.0
H987 H 0.17854 0.49668 0.04611 0.0
H988 H 0.15066 0.54815 0.01908 0.0
H989 H 0.10973 0.54161 0.01374 0.0
C990 C 0.56909 0.66431 0.05663 0.0
C991 C 0.55748 0.6808 0.04134 0.0
C992 C 0.50758 0.6238 0.02689 0.0
C993 C 0.52331 0.60752 0.03781 0.0
N994 N 0.55344 0.61153 0.07532 0.0
N995 N 0.51519 0.67642 0.01194 0.0
C996 C 0.54991 0.62748 0.05624 0.0
C997 C 0.52629 0.66063 0.02673 0.0
N998 N 0.59816 0.68368 0.07172 0.0
N999 N 0.47353 0.6047 0.01954 0.0
H1000 H 0.52825 0.70335 0.01123 0.0
H1001 H 0.49452 0.66256 0.99903 0.0
H1002 H 0.4581 0.57852 0.02249 0.0
H1003 H 0.45966 0.61586 0.01406 0.0
H1004 H 0.61019 0.67277 0.0806 0.0
H1005 H 0.61125 0.71078 0.07457 0.0
H1006 H 0.57084 0.62468 0.09039 0.0
H1007 H 0.53472 0.58597 0.07799 0.0
C1008 C 0.92563 0.34571 0.96106 0.0
C1009 C 0.89889 0.3284 0.97751 0.0
C1010 C 0.90567 0.38426 0.99322 0.0
C1011 C 0.93607 0.40196 0.98002 0.0
N1012 N 0.96193 0.39889 0.94205 0.0
N1013 N 0.86504 0.33115 0.01076 0.0
C1014 C 0.94264 0.38256 0.96128 0.0
C1015 C 0.88922 0.34765 0.99392 0.0
N1016 N 0.93484 0.32703 0.94521 0.0
N1017 N 0.89023 0.40163 0.00257 0.0
H1018 H 0.85241 0.30431 0.01188 0.0
H1019 H 0.85988 0.34449 0.02501 0.0
H1020 H 0.89752 0.42632 0.99769 0.0
H1021 H 0.86684 0.38968 0.01112 0.0
H1022 H 0.95723 0.33845 0.93545 0.0
H1023 H 0.92123 0.2999 0.94269 0.0
H1024 H 0.96562 0.38605 0.92669 0.0
H1025 H 0.9701 0.42471 0.93968 0.0
C1026 C 0.64943 0.60912 0.98353 0.0
C1027 C 0.66327 0.5873 0.9794 0.0
C1028 C 0.60711 0.5362 0.98619 0.0
C1029 C 0.59344 0.55812 0.99175 0.0
N1030 N 0.60395 0.61639 1.00052 0.0
N1031 N 0.65799 0.5317 0.98268 0.0
C1032 C 0.61539 0.5949 0.99182 0.0
C1033 C 0.64292 0.55133 0.98254 0.0
N1034 N 0.6682 0.64314 0.97846 0.0
N1035 N 0.58587 0.50093 0.98298 0.0
H1036 H 0.68418 0.54191 0.98019 0.0
H1037 H 0.64531 0.50629 0.9877 0.0
H1038 H 0.55974 0.48873 0.98549 0.0
H1039 H 0.59369 0.48397 0.97596 0.0
H1040 H 0.65805 0.65927 0.97824 0.0
H1041 H 0.69325 0.65459 0.97245 0.0
H1042 H 0.61979 0.64335 0.00365 0.0
H1043 H 0.57942 0.60708 0.00706 0.0
C1044 C 0.50091 0.15707 0.99176 0.0
C1045 C 0.46987 0.14847 0.97906 0.0
C1046 C 0.44825 0.08667 0.98174 0.0
C1047 C 0.48089 0.09466 0.99175 0.0
N1048 N 0.54144 0.13937 1.0001 0.0
N1049 N 0.41748 0.10475 0.95646 0.0
C1050 C 0.50819 0.13041 0.99497 0.0
C1051 C 0.44472 0.11317 0.97222 0.0
N1052 N 0.523 0.19046 1.00172 0.0
N1053 N 0.41971 0.05464 0.9831 0.0
H1054 H 0.41421 0.12346 0.94882 0.0
H1055 H 0.40026 0.07929 0.94903 0.0
H1056 H 0.42021 0.03599 0.99264 0.0
H1057 H 0.3949 0.04856 0.97802 0.0
H1058 H 0.54392 0.19716 0.01369 0.0
H1059 H 0.51854 0.21077 1.00009 0.0
H1060 H 0.56226 0.16478 1.00004 0.0
H1061 H 0.54913 0.12152 0.00183 0.0
C1062 C 0.62383 0.11554 0.96835 0.0
C1063 C 0.65357 0.11919 0.98032 0.0
C1064 C 0.61649 0.06765 0.00184 0.0
C1065 C 0.58676 0.06742 0.9933 0.0
N1066 N 0.56198 0.09022 0.96666 0.0
N1067 N 0.67764 0.1024 0.01219 0.0
C1068 C 0.59049 0.09159 0.97638 0.0
C1069 C 0.64972 0.09631 0.99815 0.0
N1070 N 0.6271 0.13244 0.9478 0.0
N1071 N 0.61325 0.03993 0.01279 0.0
H1072 H 0.70203 0.12451 0.01147 0.0
H1073 H 0.67587 0.08752 0.02644 0.0
H1074 H 0.58956 0.01918 0.01703 0.0
H1075 H 0.634 0.03677 0.01641 0.0
H1076 H 0.60637 0.12799 0.93656 0.0
H1077 H 0.6506 0.14827 0.94014 0.0
H1078 H 0.563 0.10953 0.95673 0.0
H1079 H 0.53695 0.07112 0.96999 0.0
C1080 C 0.92151 0.54975 0.97258 0.0
C1081 C 0.92681 0.57935 0.98781 0.0
C1082 C 0.97508 0.58137 0.00988 0.0
C1083 C 0.96816 0.55019 0.99585 0.0
N1084 N 0.92772 0.49953 0.96891 0.0
N1085 N 0.95289 0.61782 0.02506 0.0
C1086 C 0.93912 0.53271 0.97882 0.0
C1087 C 0.95198 0.59364 0.00766 0.0
N1088 N 0.90122 0.53894 0.9513 0.0
N1089 N 0.00373 0.59943 0.02538 0.0
H1090 H 0.93563 0.62658 0.02456 0.0
H1091 H 0.96829 0.62643 0.04132 0.0
H1092 H 0.0194 0.5897 0.02929 0.0
H1093 H 0.01257 0.62453 0.03356 0.0
H1094 H 0.89978 0.51998 0.93815 0.0
H1095 H 0.88881 0.55138 0.94541 0.0
H1096 H 0.90496 0.48465 0.95804 0.0
H1097 H 0.93829 0.48523 0.97424 0.0
C1098 C 0.50318 0.37814 0.9537 0.0
C1099 C 0.48492 0.3476 0.96609 0.0
C1100 C 0.47283 0.37971 0.99907 0.0
C1101 C 0.48934 0.40989 0.98599 0.0
N1102 N 0.51565 0.43651 0.949 0.0
N1103 N 0.44918 0.31741 0.99889 0.0
C1104 C 0.50318 0.40871 0.96275 0.0
C1105 C 0.46884 0.34786 0.98832 0.0
N1106 N 0.52091 0.37804 0.93341 0.0
N1107 N 0.46107 0.38153 0.02185 0.0
H1108 H 0.44721 0.29399 0.99228 0.0
H1109 H 0.43325 0.31468 0.01335 0.0
H1110 H 0.46153 0.40367 0.02953 0.0
H1111 H 0.45273 0.36209 0.03379 0.0
H1112 H 0.53815 0.40043 0.92529 0.0
H1113 H 0.52043 0.35582 0.92564 0.0
H1114 H 0.52209 0.43578 0.93071 0.0
H1115 H 0.5173 0.45983 0.95518 0.0
C1116 C 0.13119 0.66674 0.03085 0.0
C1117 C 0.14692 0.67037 0.05423 0.0
C1118 C 0.1144 0.60699 0.055 0.0
C1119 C 0.09462 0.60359 0.03353 0.0
N1120 N 0.08115 0.63202 0.00335 0.0
N1121 N 0.15192 0.64453 0.08988 0.0
C1122 C 0.10248 0.63389 0.02185 0.0
C1123 C 0.13802 0.64065 0.06671 0.0
N1124 N 0.14324 0.69478 0.01737 0.0
N1125 N 0.11199 0.57819 0.06357 0.0
H1126 H 0.17102 0.66855 0.09846 0.0
H1127 H 0.14299 0.62421 0.10115 0.0
H1128 H 0.09592 0.55325 0.05505 0.0
H1129 H 0.12836 0.57928 0.07752 0.0
H1130 H 0.13539 0.6927 0.999 0.0
H1131 H 0.16328 0.71964 0.02378 0.0
H1132 H 0.08337 0.65376 0.99607 0.0
H1133 H 0.05897 0.60904 0.99702 0.0
C1134 C 0.3583 0.42461 0.04353 0.0
C1135 C 0.35193 0.45252 0.04594 0.0
C1136 C 0.41357 0.49356 0.04325 0.0
C1137 C 0.41903 0.46584 0.03607 0.0
N1138 N 0.39449 0.40402 0.02639 0.0
N1139 N 0.37351 0.51343 0.0416 0.0
C1140 C 0.39078 0.431 0.03551 0.0
C1141 C 0.37952 0.48696 0.04371 0.0
N1142 N 0.33424 0.39243 0.05001 0.0
N1143 N 0.44037 0.5254 0.05216 0.0
H1144 H 0.34877 0.50953 0.04048 0.0
H1145 H 0.39304 0.53832 0.03805 0.0
H1146 H 0.46477 0.52957 0.05604 0.0
H1147 H 0.43691 0.54555 0.05937 0.0
H1148 H 0.33912 0.37228 0.05083 0.0
H1149 H 0.31087 0.38691 0.05724 0.0
H1150 H 0.37396 0.37839 0.02339 0.0
H1151 H 0.4172 0.40805 0.01889 0.0
C1152 C 0.53164 0.91594 0.06915 0.0
C1153 C 0.54399 0.89903 0.05282 0.0
C1154 C 0.54371 0.93293 0.01988 0.0
C1155 C 0.52693 0.94623 0.03509 0.0
N1156 N 0.49956 0.94523 0.0734 0.0
N1157 N 0.55462 0.88606 0.01097 0.0
C1158 C 0.51942 0.93633 0.05954 0.0
C1159 C 0.54803 0.906 0.0277 0.0
N1160 N 0.53285 0.91376 0.09399 0.0
N1161 N 0.55734 0.94726 0.99856 0.0
H1162 H 0.55689 0.86528 0.01565 0.0
H1163 H 0.5542 0.88786 0.99202 0.0
H1164 H 0.5563 0.96823 0.99291 0.0
H1165 H 0.57281 0.94086 0.98802 0.0
H1166 H 0.52766 0.92863 0.10695 0.0
H1167 H 0.54247 0.89988 0.10186 0.0
H1168 H 0.4902 0.93546 0.09021 0.0
H1169 H 0.4897 0.95976 0.06714 0.0
C1170 C 0.00879 0.25827 0.36464 0.0
C1171 C 1.00041 0.22314 0.36352 0.0
C1172 C 0.06124 0.24241 0.35846 0.0
C1173 C 0.06916 0.27723 0.35703 0.0
N1174 N 0.04753 0.31541 0.35186 0.0
N1175 N 0.01741 0.18118 0.3526 0.0
C1176 C 0.04199 0.28425 0.35812 0.0
C1177 C 0.02625 0.21501 0.35835 0.0
N1178 N 0.98587 0.26736 0.37309 0.0
N1179 N 0.08677 0.23535 0.36128 0.0
H1180 H 0.99195 0.16045 0.3512 0.0
H1181 H 0.03498 0.17419 0.34646 0.0
H1182 H 0.1125 0.25458 0.36235 0.0
H1183 H 0.08229 0.21105 0.36504 0.0
H1184 H 0.99227 0.29319 0.37657 0.0
H1185 H 0.9618 0.24955 0.37918 0.0
H1186 H 0.028 0.32098 0.3503 0.0
H1187 H 0.07062 0.33353 0.34479 0.0
C1188 C 0.78316 0.82802 0.39832 0.0
C1189 C 0.76752 0.79212 0.40163 0.0
C1190 C 0.7107 0.78393 0.39282 0.0
C1191 C 0.72643 0.81862 0.38617 0.0
N1192 N 0.77835 0.87334 0.38112 0.0
N1193 N 0.71682 0.73449 0.3982 0.0
C1194 C 0.7629 0.84062 0.38862 0.0
C1195 C 0.73139 0.76967 0.39787 0.0
N1196 N 0.81712 0.85037 0.40538 0.0
N1197 N 0.67603 0.76502 0.39541 0.0
H1198 H 0.73104 0.72286 0.40165 0.0
H1199 H 0.69111 0.71662 0.39281 0.0
H1200 H 0.66038 0.7751 0.39255 0.0
H1201 H 0.66357 0.74113 0.40289 0.0
H1202 H 0.82917 0.87736 0.40602 0.0
H1203 H 0.83266 0.8422 0.41287 0.0
H1204 H 0.80483 0.88922 0.37966 0.0
H1205 H 0.76441 0.88331 0.37396 0.0
C1206 C 0.16952 0.96665 0.36799 0.0
C1207 C 0.20213 0.98627 0.38105 0.0
C1208 C 0.19451 0.93249 0.3949 0.0
C1209 C 0.16794 0.91332 0.37648 0.0
N1210 N 0.11701 0.90998 0.3604 0.0
N1211 N 0.24356 0.98812 0.41023 0.0
C1212 C 0.15118 0.92965 0.36735 0.0
C1213 C 0.21396 0.96929 0.39563 0.0
N1214 N 0.15692 0.98307 0.3553 0.0
N1215 N 0.19777 0.91585 0.41358 0.0
H1216 H 0.25695 0.01524 0.41321 0.0
H1217 H 0.25537 0.97664 0.41865 0.0
H1218 H 0.17946 0.88988 0.41536 0.0
H1219 H 0.21494 0.92865 0.42882 0.0
H1220 H 0.13452 0.96987 0.34396 0.0
H1221 H 0.16984 0.01006 0.35508 0.0
H1222 H 0.1022 0.92059 0.356 0.0
H1223 H 0.10267 0.88332 0.36235 0.0
C1224 C 0.56483 0.66809 0.34314 0.0
C1225 C 0.54986 0.65794 0.31882 0.0
C1226 C 0.58275 0.71866 0.30934 0.0
C1227 C 0.59547 0.72958 0.33439 0.0
N1228 N 0.59237 0.71408 0.37613 0.0
N1229 N 0.53763 0.67437 0.2808 0.0
C1230 C 0.58437 0.70412 0.35162 0.0
C1231 C 0.55672 0.68348 0.30254 0.0
N1232 N 0.56211 0.64356 0.35777 0.0
N1233 N 0.596 0.74144 0.29172 0.0
H1234 H 0.51765 0.64897 0.27547 0.0
H1235 H 0.5391 0.69255 0.2694 0.0
H1236 H 0.61485 0.76739 0.29568 0.0
H1237 H 0.59052 0.73382 0.27288 0.0
H1238 H 0.57604 0.64978 0.37454 0.0
H1239 H 0.54855 0.61693 0.3522 0.0
H1240 H 0.58221 0.69685 0.3897 0.0
H1241 H 0.60641 0.73997 0.38298 0.0
C1242 C 0.28839 0.87366 0.29441 0.0
C1243 C 0.31201 0.90976 0.30048 0.0
C1244 C 0.26935 0.91333 0.32616 0.0
C1245 C 0.24636 0.87671 0.32135 0.0
N1246 N 0.23885 0.8211 0.30584 0.0
N1247 N 0.32837 0.9616 0.3275 0.0
C1248 C 0.25754 0.85655 0.30727 0.0
C1249 C 0.30352 0.9289 0.31801 0.0
N1250 N 0.29395 0.85601 0.27509 0.0
N1251 N 0.25837 0.93352 0.33819 0.0
H1252 H 0.35391 0.97346 0.32248 0.0
H1253 H 0.32449 0.97536 0.34219 0.0
H1254 H 0.23453 0.92314 0.34614 0.0
H1255 H 0.27241 0.96065 0.33937 0.0
H1256 H 0.27555 0.83076 0.26804 0.0
H1257 H 0.31525 0.86761 0.26426 0.0
H1258 H 0.24777 0.80544 0.29802 0.0
H1259 H 0.21653 0.80745 0.31507 0.0
C1260 C 0.11067 0.44504 0.32956 0.0
C1261 C 0.11359 0.45079 0.30419 0.0
C1262 C 0.13881 0.41407 0.298 0.0
C1263 C 0.13139 0.40438 0.3225 0.0
N1264 N 0.10259 0.40526 0.35958 0.0
N1265 N 0.12323 0.43399 0.26309 0.0
C1266 C 0.11527 0.41844 0.33778 0.0
C1267 C 0.12566 0.43342 0.28805 0.0
N1268 N 0.10478 0.46574 0.34607 0.0
N1269 N 0.15961 0.40618 0.28443 0.0
H1270 H 0.11247 0.44661 0.25487 0.0
H1271 H 0.12841 0.41873 0.25049 0.0
H1272 H 0.17105 0.3933 0.29116 0.0
H1273 H 0.16849 0.41572 0.26748 0.0
H1274 H 0.10594 0.4648 0.36509 0.0
H1275 H 0.10248 0.48636 0.34104 0.0
H1276 H 0.08753 0.41214 0.37019 0.0
H1277 H 0.10406 0.38478 0.36572 0.0
C1278 C 0.30821 0.40505 0.31493 0.0
C1279 C 0.3167 0.44009 0.3147 0.0
C1280 C 0.25755 0.4227 0.32462 0.0
C1281 C 0.24944 0.38787 0.32638 0.0
N1282 N 0.27149 0.35005 0.33147 0.0
N1283 N 0.3024 0.48359 0.32752 0.0
C1284 C 0.27625 0.38041 0.3241 0.0
C1285 C 0.2923 0.44934 0.32215 0.0
N1286 N 0.32951 0.39456 0.30518 0.0
N1287 N 0.23231 0.43048 0.32395 0.0
H1288 H 0.32795 0.50381 0.327 0.0
H1289 H 0.28625 0.49153 0.33524 0.0
H1290 H 0.20675 0.41206 0.32555 0.0
H1291 H 0.23657 0.45456 0.3198 0.0
H1292 H 0.32254 0.36848 0.30274 0.0
H1293 H 0.35247 0.41119 0.29718 0.0
H1294 H 0.29102 0.34435 0.33209 0.0
H1295 H 0.24946 0.33306 0.34022 0.0
C1296 C 0.60809 0.91544 0.31421 0.0
C1297 C 0.57427 0.88876 0.30577 0.0
C1298 C 0.59027 0.84508 0.31088 0.0
C1299 C 0.62239 0.87134 0.32253 0.0
N1300 N 0.65849 0.93099 0.33966 0.0
N1301 N 0.53104 0.8272 0.30138 0.0
C1302 C 0.63031 0.90639 0.32543 0.0
C1303 C 0.56478 0.85328 0.30538 0.0
N1304 N 0.61985 0.94933 0.31034 0.0
N1305 N 0.58393 0.81224 0.30482 0.0
H1306 H 0.51082 0.83172 0.29971 0.0
H1307 H 0.52247 0.80107 0.3029 0.0
H1308 H 0.60073 0.80446 0.30997 0.0
H1309 H 0.56301 0.79346 0.29341 0.0
H1310 H 0.6454 0.96924 0.31405 0.0
H1311 H 0.60535 0.95698 0.30071 0.0
H1312 H 0.66364 0.95619 0.34443 0.0
H1313 H 0.67415 0.92485 0.34924 0.0
C1314 C 0.11749 0.66387 0.29932 0.0
C1315 C 0.13311 0.66675 0.27642 0.0
C1316 C 0.15493 0.72953 0.27993 0.0
C1317 C 0.1413 0.72705 0.3037 0.0
N1318 N 0.11577 0.69281 0.33808 0.0
N1319 N 0.17199 0.70282 0.24691 0.0
C1320 C 0.12461 0.69456 0.31407 0.0
C1321 C 0.15318 0.69972 0.26719 0.0
N1322 N 0.09428 0.63173 0.30643 0.0
N1323 N 0.16986 0.76046 0.26957 0.0
H1324 H 0.17191 0.6817 0.23738 0.0
H1325 H 0.1901 0.72662 0.2408 0.0
H1326 H 0.1745 0.78366 0.279 0.0
H1327 H 0.17606 0.76283 0.25115 0.0
H1328 H 0.079 0.62808 0.32148 0.0
H1329 H 0.08773 0.60848 0.296 0.0
H1330 H 0.10766 0.67075 0.34742 0.0
H1331 H 0.11906 0.71414 0.34934 0.0
C1332 C 0.79123 0.99943 0.3536 0.0
C1333 C 0.80666 0.0112 0.37773 0.0
C1334 C 0.76693 0.95381 0.39142 0.0
C1335 C 0.74955 0.94252 0.36769 0.0
N1336 N 0.7407 0.95811 0.32809 0.0
N1337 N 0.80418 0.00255 0.42099 0.0
C1338 C 0.76048 0.96634 0.34929 0.0
C1339 C 0.79302 0.98928 0.39706 0.0
N1340 N 0.80647 0.01941 0.3346 0.0
N1341 N 0.75995 0.93051 0.40829 0.0
H1342 H 0.82326 0.02844 0.42599 0.0
H1343 H 0.79223 0.98879 0.43603 0.0
H1344 H 0.74128 0.90435 0.40505 0.0
H1345 H 0.77478 0.93651 0.42459 0.0
H1346 H 0.79863 0.01039 0.31614 0.0
H1347 H 0.82886 0.04396 0.33713 0.0
H1348 H 0.74531 0.97584 0.31529 0.0
H1349 H 0.71785 0.93443 0.32435 0.0
C1350 C 0.00933 0.72364 0.35795 0.0
C1351 C 0.00236 0.74343 0.37608 0.0
C1352 C 0.06397 0.7886 0.37967 0.0
C1353 C 0.07107 0.76809 0.36211 0.0
N1354 N 0.05126 0.71179 0.33997 0.0
N1355 N 0.024 0.79069 0.40836 0.0
C1356 C 0.04401 0.73413 0.35324 0.0
C1357 C 0.02988 0.77508 0.38788 0.0
N1358 N 0.98286 0.69597 0.34399 0.0
N1359 N 0.09007 0.82022 0.38969 0.0
H1360 H 0.99995 0.78054 0.41593 0.0
H1361 H 0.04337 0.81179 0.41944 0.0
H1362 H 0.1158 0.82796 0.38831 0.0
H1363 H 0.08621 0.8389 0.39917 0.0
H1364 H 0.98658 0.68241 0.32909 0.0
H1365 H 0.95715 0.68883 0.34534 0.0
H1366 H 0.0334 0.68529 0.33606 0.0
H1367 H 0.0756 0.71955 0.33371 0.0
C1368 C 0.19553 0.23298 0.39565 0.0
C1369 C 0.20689 0.21555 0.37891 0.0
C1370 C 0.20412 0.24813 0.34594 0.0
C1371 C 0.18834 0.26198 0.36176 0.0
N1372 N 0.16212 0.26069 0.40067 0.0
N1373 N 0.2141 0.20072 0.33656 0.0
C1374 C 0.1821 0.25248 0.38636 0.0
C1375 C 0.20894 0.22143 0.35359 0.0
N1376 N 0.19882 0.2322 0.42051 0.0
N1377 N 0.21631 0.26165 0.32414 0.0
H1378 H 0.2164 0.17991 0.34112 0.0
H1379 H 0.21231 0.20186 0.3176 0.0
H1380 H 0.21482 0.28235 0.31849 0.0
H1381 H 0.23109 0.25484 0.3131 0.0
H1382 H 0.1942 0.24748 0.43352 0.0
H1383 H 0.20969 0.21931 0.42818 0.0
H1384 H 0.15399 0.2513 0.41778 0.0
H1385 H 0.15062 0.27377 0.39445 0.0
C1386 C 0.67591 0.59609 0.71375 0.0
C1387 C 0.66847 0.56133 0.70943 0.0
C1388 C 0.72913 0.58303 0.70187 0.0
C1389 C 0.73608 0.61783 0.70295 0.0
N1390 N 0.71409 0.65682 0.70796 0.0
N1391 N 0.68647 0.52165 0.69408 0.0
C1392 C 0.70879 0.62408 0.70824 0.0
C1393 C 0.69459 0.55482 0.70176 0.0
N1394 N 0.65248 0.6027 0.72472 0.0
N1395 N 0.75538 0.57676 0.7031 0.0
H1396 H 0.66129 0.50037 0.69305 0.0
H1397 H 0.70412 0.51594 0.68617 0.0
H1398 H 0.78064 0.5967 0.70655 0.0
H1399 H 0.75177 0.55212 0.70443 0.0
H1400 H 0.65807 0.62763 0.73109 0.0
H1401 H 0.62846 0.5832 0.72975 0.0
H1402 H 0.69414 0.66194 0.7081 0.0
H1403 H 0.73807 0.67871 0.70594 0.0
C1404 C 0.44185 0.12814 0.70909 0.0
C1405 C 0.42509 0.09193 0.71138 0.0
C1406 C 0.37087 0.08465 0.69555 0.0
C1407 C 0.38636 0.12151 0.69682 0.0
N1408 N 0.43638 0.17853 0.70851 0.0
N1409 N 0.37274 0.03568 0.70918 0.0
C1410 C 0.42188 0.14337 0.70439 0.0
C1411 C 0.3894 0.07008 0.70503 0.0
N1412 N 0.47704 0.14796 0.71078 0.0
N1413 N 0.33857 0.0635 0.68467 0.0
H1414 H 0.38531 0.02397 0.71616 0.0
H1415 H 0.34605 0.01939 0.70768 0.0
H1416 H 0.32438 0.07315 0.67714 0.0
H1417 H 0.32733 0.03668 0.68075 0.0
H1418 H 0.49083 0.1737 0.70646 0.0
H1419 H 0.49255 0.13768 0.71406 0.0
H1420 H 0.46079 0.19514 0.71695 0.0
H1421 H 0.4231 0.19091 0.70523 0.0
C1422 C 0.85126 0.3106 0.68579 0.0
C1423 C 0.88425 0.33129 0.69815 0.0
C1424 C 0.87932 0.2787 0.7124 0.0
C1425 C 0.85094 0.25817 0.69536 0.0
N1426 N 0.79888 0.25383 0.68041 0.0
N1427 N 0.92868 0.33538 0.72542 0.0
C1428 C 0.83339 0.27379 0.68624 0.0
C1429 C 0.89797 0.31546 0.71218 0.0
N1430 N 0.83771 0.32586 0.67272 0.0
N1431 N 0.88557 0.26353 0.73082 0.0
H1432 H 0.94168 0.36251 0.72792 0.0
H1433 H 0.94198 0.32487 0.73307 0.0
H1434 H 0.86886 0.23752 0.73371 0.0
H1435 H 0.90412 0.27747 0.74515 0.0
H1436 H 0.81505 0.3118 0.6617 0.0
H1437 H 0.85029 0.35266 0.67152 0.0
H1438 H 0.78375 0.2641 0.67606 0.0
H1439 H 0.78464 0.2275 0.68332 0.0
C1440 C 0.25331 0.01853 0.63273 0.0
C1441 C 0.22054 0.00569 0.64285 0.0
C1442 C 0.23354 0.06567 0.65232 0.0
C1443 C 0.26812 0.07815 0.64598 0.0
N1444 N 0.3007 0.0674 0.61552 0.0
N1445 N 0.17863 0.01644 0.66209 0.0
C1446 C 0.27546 0.05494 0.63205 0.0
C1447 C 0.21019 0.02911 0.65227 0.0
N1448 N 0.2633 0.99609 0.62342 0.0
N1449 N 0.22231 0.08854 0.65607 0.0
H1450 H 0.16106 0.98987 0.66258 0.0
H1451 H 0.17068 0.0321 0.6713 0.0
H1452 H 0.23785 0.11483 0.65344 0.0
H1453 H 0.19673 0.08103 0.65859 0.0
H1454 H 0.28856 0.00439 0.6189 0.0
H1455 H 0.24705 0.96909 0.62154 0.0
H1456 H 0.30604 0.05163 0.60362 0.0
H1457 H 0.3117 0.0927 0.61061 0.0
C1458 C 0.97196 0.20208 0.64402 0.0
C1459 C 0.99331 0.23815 0.64162 0.0
C1460 C 0.94537 0.24666 0.65199 0.0
C1461 C 0.92256 0.20987 0.65082 0.0
N1462 N 0.9142 0.15239 0.64167 0.0
N1463 N 1.00061 0.29511 0.64198 0.0
C1464 C 0.9359 0.18749 0.64604 0.0
C1465 C 0.98011 0.26057 0.64532 0.0
N1466 N 0.98606 0.18156 0.64418 0.0
N1467 N 0.93398 0.26837 0.66023 0.0
H1468 H 0.0266 0.3065 0.63824 0.0
H1469 H 0.99141 0.31202 0.64137 0.0
H1470 H 0.90896 0.25923 0.66571 0.0
H1471 H 0.95006 0.2952 0.66405 0.0
H1472 H 0.9725 0.15596 0.6488 0.0
H1473 H 0.01215 0.19098 0.64185 0.0
H1474 H 0.92203 0.13527 0.6351 0.0
H1475 H 0.88784 0.14059 0.64264 0.0
C1476 C 0.78232 0.7737 0.64014 0.0
C1477 C 0.81142 0.80789 0.6416 0.0
C1478 C 0.84468 0.78892 0.6642 0.0
C1479 C 0.81467 0.75479 0.66407 0.0
N1480 N 0.7526 0.72023 0.65947 0.0
N1481 N 0.867 0.85027 0.66076 0.0
C1482 C 0.7828 0.7488 0.65422 0.0
C1483 C 0.84155 0.8162 0.65547 0.0
N1484 N 0.75452 0.76443 0.62468 0.0
N1485 N 0.87662 0.79538 0.67112 0.0
H1486 H 0.86552 0.87091 0.6547 0.0
H1487 H 0.88774 0.85819 0.67324 0.0
H1488 H 0.88162 0.77687 0.67676 0.0
H1489 H 0.89926 0.81871 0.66871 0.0
H1490 H 0.73428 0.73873 0.62103 0.0
H1491 H 0.75312 0.78168 0.61374 0.0
H1492 H 0.72846 0.71609 0.65453 0.0
H1493 H 0.75188 0.70333 0.67163 0.0
C1494 C 0.97483 0.75497 0.66341 0.0
C1495 C 0.97648 0.77763 0.64606 0.0
C1496 C 0.91317 0.7471 0.64364 0.0
C1497 C 0.91163 0.72345 0.66025 0.0
N1498 N 0.9414 0.69755 0.67728 0.0
N1499 N 0.94662 0.78785 0.6141 0.0
C1500 C 0.94257 0.7251 0.66747 0.0
C1501 C 0.94549 0.77199 0.63479 0.0
N1502 N 0.00386 0.76231 0.67659 0.0
N1503 N 0.88357 0.74453 0.63502 0.0
H1504 H 0.96932 0.80395 0.60563 0.0
H1505 H 0.9249 0.78193 0.6034 0.0
H1506 H 0.8592 0.72482 0.63895 0.0
H1507 H 0.88314 0.76338 0.62539 0.0
H1508 H 0.00368 0.74733 0.69026 0.0
H1509 H 0.02749 0.78533 0.67577 0.0
H1510 H 0.96316 0.69575 0.68005 0.0
H1511 H 0.91842 0.67556 0.68124 0.0
C1512 C 0.25751 0.20825 0.63657 0.0
C1513 C 0.26485 0.24218 0.64528 0.0
C1514 C 0.32037 0.2557 0.66377 0.0
C1515 C 0.31266 0.22141 0.65599 0.0
N1516 N 0.279 0.16926 0.62839 0.0
N1517 N 0.29936 0.29502 0.67209 0.0
C1518 C 0.28226 0.19848 0.64097 0.0
C1519 C 0.29543 0.26521 0.65995 0.0
N1520 N 0.22711 0.18536 0.62369 0.0
N1521 N 0.35181 0.27942 0.67491 0.0
H1522 H 0.28061 0.30181 0.6715 0.0
H1523 H 0.31937 0.31119 0.68503 0.0
H1524 H 0.36874 0.27231 0.68118 0.0
H1525 H 0.36138 0.30611 0.67736 0.0
H1526 H 0.21766 0.15875 0.62054 0.0
H1527 H 0.21032 0.19244 0.61696 0.0
H1528 H 0.25978 0.15359 0.61482 0.0
H1529 H 0.29744 0.16221 0.62957 0.0
C1530 C 0.80975 0.00602 0.63513 0.0
C1531 C 0.81748 0.0056 0.60999 0.0
C1532 C 0.83068 0.0657 0.6096 0.0
C1533 C 0.81907 0.06474 0.63398 0.0
N1534 N 0.79075 0.0306 0.66784 0.0
N1535 N 0.82929 0.03256 0.57181 0.0
C1536 C 0.80688 0.03402 0.64623 0.0
C1537 C 0.82633 0.03477 0.59679 0.0
N1538 N 0.80603 0.98008 0.64866 0.0
N1539 N 0.84722 0.09638 0.59894 0.0
H1540 H 0.82626 0.01039 0.56167 0.0
H1541 H 0.83166 0.05154 0.56085 0.0
H1542 H 0.85161 0.11991 0.60757 0.0
H1543 H 0.85959 0.09923 0.58243 0.0
H1544 H 0.80424 0.98109 0.66775 0.0
H1545 H 0.80811 0.95917 0.64117 0.0
H1546 H 0.77802 0.00739 0.67615 0.0
H1547 H 0.78708 0.04992 0.67621 0.0
C1548 C 0.47629 0.30299 0.74217 0.0
C1549 C 0.4877 0.33457 0.73139 0.0
C1550 C 0.44694 0.30245 0.69602 0.0
C1551 C 0.43314 0.27124 0.70787 0.0
N1552 N 0.43152 0.24278 0.7441 0.0
N1553 N 0.47956 0.36553 0.70045 0.0
C1554 C 0.44681 0.27183 0.73155 0.0
C1555 C 0.47207 0.33464 0.70886 0.0
N1556 N 0.49455 0.30251 0.76199 0.0
N1557 N 0.43591 0.30157 0.67252 0.0
H1558 H 0.49724 0.3898 0.7095 0.0
H1559 H 0.46597 0.36724 0.68575 0.0
H1560 H 0.41558 0.27924 0.66324 0.0
H1561 H 0.44824 0.32236 0.66172 0.0
H1562 H 0.48983 0.27969 0.76903 0.0
H1563 H 0.51666 0.32471 0.76999 0.0
H1564 H 0.43767 0.24292 0.76256 0.0
H1565 H 0.41084 0.21897 0.73675 0.0
C1566 C 0.69773 0.10709 0.70885 0.0
C1567 C 0.67233 0.07273 0.69954 0.0
C1568 C 0.71584 0.06812 0.67566 0.0
C1569 C 0.74064 0.1037 0.68301 0.0
N1570 N 0.75184 0.15902 0.70289 0.0
N1571 N 0.65545 0.02423 0.66878 0.0
C1572 C 0.73047 0.12389 0.69822 0.0
C1573 C 0.68088 0.05421 0.68149 0.0
N1574 N 0.69159 0.12298 0.72899 0.0
N1575 N 0.72547 0.04753 0.66264 0.0
H1576 H 0.62931 0.01405 0.67141 0.0
H1577 H 0.66003 0.01164 0.65369 0.0
H1578 H 0.74947 0.05754 0.65511 0.0
H1579 H 0.70985 0.02048 0.6599 0.0
H1580 H 0.71064 0.1463 0.73838 0.0
H1581 H 0.6686 0.11109 0.73806 0.0
H1582 H 0.74409 0.17517 0.71163 0.0
H1583 H 0.776 0.17262 0.69589 0.0
C1584 C 0.85387 0.55866 0.72573 0.0
C1585 C 0.86241 0.54205 0.70615 0.0
C1586 C 0.86655 0.58465 0.679 0.0
C1587 C 0.85246 0.59756 0.69718 0.0
N1588 N 0.82915 0.59378 0.73756 0.0
N1589 N 0.87142 0.53582 0.6628 0.0
C1590 C 0.8453 0.58387 0.72054 0.0
C1591 C 0.86736 0.55415 0.68241 0.0
N1592 N 0.85525 0.5514 0.74946 0.0
N1593 N 0.88088 0.60251 0.65902 0.0
H1594 H 0.8714 0.51285 0.66432 0.0
H1595 H 0.87139 0.54158 0.64465 0.0
H1596 H 0.88215 0.62578 0.65649 0.0
H1597 H 0.89459 0.59619 0.64646 0.0
H1598 H 0.85295 0.56547 0.76473 0.0
H1599 H 0.86221 0.53373 0.75414 0.0
H1600 H 0.81954 0.58144 0.75353 0.0
H1601 H 0.82278 0.61244 0.73489 0.0
C1602 C 0.46372 0.97369 0.20979 0.0
C1603 C 0.48511 0.96072 0.21602 0.0
C1604 C 0.52247 0.98972 0.18245 0.0
C1605 C 0.50421 0.00692 0.1788 0.0
N1606 N 0.45747 0.01598 0.18895 0.0
N1607 N 0.52079 0.94019 0.19807 0.0
C1608 C 0.47477 0.99909 0.19245 0.0
C1609 C 0.51058 0.96402 0.19941 0.0
N1610 N 0.43102 0.95825 0.2177 0.0
N1611 N 0.55193 0.99875 0.17036 0.0
H1612 H 0.5087 0.91788 0.20749 0.0
H1613 H 0.53712 0.93947 0.18491 0.0
H1614 H 0.56158 0.01741 0.1577 0.0
H1615 H 0.56841 0.98993 0.1745 0.0
H1616 H 0.4132 0.96509 0.21292 0.0
H1617 H 0.41995 0.93438 0.22512 0.0
H1618 H 0.43837 0.01442 0.20032 0.0
H1619 H 0.46378 0.03345 0.17561 0.0
C1620 C 0.02699 0.51007 0.18191 0.0
C1621 C 0.03955 0.49131 0.19365 0.0
C1622 C 0.00839 0.44169 0.16226 0.0
C1623 C 0.99376 0.45934 0.15175 0.0
N1624 N 0.98634 0.5087 0.15205 0.0
N1625 N 0.04084 0.43877 0.19652 0.0
C1626 C 0.00253 0.49324 0.16158 0.0
C1627 C 0.0298 0.45692 0.18427 0.0
N1628 N 0.03831 0.54392 0.19033 0.0
N1629 N 0.00265 0.41089 0.15066 0.0
H1630 H 0.05829 0.44976 0.21176 0.0
H1631 H 0.03143 0.41228 0.19249 0.0
H1632 H 0.98698 0.39894 0.13459 0.0
H1633 H 0.01534 0.39838 0.15574 0.0
H1634 H 0.03387 0.5605 0.18081 0.0
H1635 H 0.05378 0.55636 0.20642 0.0
H1636 H 0.98846 0.53162 0.15993 0.0
H1637 H 0.96885 0.49753 0.13683 0.0
C1638 C 0.499 0.53863 0.21278 0.0
C1639 C 0.47412 0.50805 0.2232 0.0
C1640 C 0.47559 0.47209 0.1874 0.0
C1641 C 0.50352 0.50244 0.17869 0.0
N1642 N 0.54497 0.56418 0.18453 0.0
N1643 N 0.44029 0.44546 0.22181 0.0
C1644 C 0.51603 0.53564 0.19173 0.0
C1645 C 0.46258 0.47465 0.2108 0.0
N1646 N 0.50551 0.57058 0.22254 0.0
N1647 N 0.46115 0.44103 0.17306 0.0
H1648 H 0.42996 0.44647 0.23875 0.0
H1649 H 0.43382 0.42039 0.21506 0.0
H1650 H 0.47031 0.43826 0.15597 0.0
H1651 H 0.43857 0.41869 0.17712 0.0
H1652 H 0.52064 0.59346 0.21422 0.0
H1653 H 0.49304 0.57388 0.23767 0.0
H1654 H 0.55764 0.58825 0.195 0.0
H1655 H 0.5581 0.56324 0.16905 0.0
C1656 C 0.97321 0.51936 0.80215 0.0
C1657 C 0.94307 0.48663 0.79524 0.0
C1658 C 0.93312 0.47569 0.83865 0.0
C1659 C 0.96423 0.50755 0.8455 0.0
N1660 N 0.0176 0.55617 0.83395 0.0
N1661 N 0.89925 0.42999 0.80618 0.0
C1662 C 0.98548 0.52829 0.82726 0.0
C1663 C 0.92446 0.46367 0.81329 0.0
N1664 N 0.98915 0.54257 0.78499 0.0
N1665 N 0.9111 0.45763 0.85626 0.0
H1666 H 0.89263 0.41995 0.78774 0.0
H1667 H 0.88731 0.41109 0.8185 0.0
H1668 H 0.91642 0.46547 0.8751 0.0
H1669 H 0.88629 0.43642 0.8521 0.0
H1670 H 0.00889 0.56827 0.78946 0.0
H1671 H 0.9808 0.5371 0.76643 0.0
H1672 H 0.03565 0.57022 0.82129 0.0
H1673 H 0.0274 0.56333 0.85221 0.0
C1674 C 0.54793 0.51963 0.82045 0.0
C1675 C 0.53037 0.48858 0.80432 0.0
C1676 C 0.48057 0.4654 0.8303 0.0
C1677 C 0.49741 0.49708 0.84585 0.0
N1678 N 0.54442 0.5564 0.85414 0.0
N1679 N 0.47811 0.43459 0.79097 0.0
C1680 C 0.53035 0.52487 0.84044 0.0
C1681 C 0.49606 0.4623 0.80836 0.0
N1682 N 0.58164 0.54357 0.81699 0.0
N1683 N 0.45045 0.43776 0.83704 0.0
H1684 H 0.48873 0.43109 0.77481 0.0
H1685 H 0.45186 0.41657 0.79149 0.0
H1686 H 0.43802 0.43907 0.85284 0.0
H1687 H 0.43904 0.41272 0.82809 0.0
H1688 H 0.5972 0.56491 0.82958 0.0
H1689 H 0.59479 0.54094 0.80205 0.0
H1690 H 0.56671 0.57876 0.84974 0.0
H1691 H 0.53233 0.56096 0.86902 0.0
C1692 C 0.48417 0.0099 0.80035 0.0
C1693 C 0.52011 0.02698 0.79657 0.0
C1694 C 0.53091 0.02076 0.83958 0.0
C1695 C 0.49521 0.00522 0.84364 0.0
N1696 N 0.43992 0.99507 0.82996 0.0
N1697 N 0.57799 0.05807 0.81487 0.0
C1698 C 0.47257 0.00327 0.82469 0.0
C1699 C 0.54357 0.03548 0.81697 0.0
N1700 N 0.46078 0.99751 0.78074 0.0
N1701 N 0.55252 0.01971 0.85653 0.0
H1702 H 0.588 0.07028 0.79886 0.0
H1703 H 0.59591 0.06761 0.82979 0.0
H1704 H 0.54437 0.00839 0.87304 0.0
H1705 H 0.57796 0.02727 0.85317 0.0
H1706 H 0.43433 0.98168 0.78251 0.0
H1707 H 0.46762 0.99994 0.76246 0.0
H1708 H 0.42334 0.99638 0.81742 0.0
H1709 H 0.43084 0.99062 0.8477 0.0
C1710 C 0.18018 0.28509 0.53378 0.0
C1711 C 0.15411 0.28083 0.55005 0.0
C1712 C 0.13395 0.30668 0.5214 0.0
C1713 C 0.16438 0.31765 0.50822 0.0
N1714 N 0.21655 0.31679 0.50135 0.0
N1715 N 0.0956 0.26691 0.54991 0.0
C1716 C 0.18725 0.30621 0.51399 0.0
C1717 C 0.1277 0.28573 0.54129 0.0
N1718 N 0.19611 0.2666 0.53606 0.0
N1719 N 0.11149 0.3169 0.51532 0.0
H1720 H 0.0896 0.2468 0.56094 0.0
H1721 H 0.07427 0.2673 0.54324 0.0
H1722 H 0.11454 0.331 0.50026 0.0
H1723 H 0.09099 0.31303 0.52602 0.0
H1724 H 0.21344 0.2664 0.5236 0.0
H1725 H 0.18809 0.24747 0.54831 0.0
H1726 H 0.23621 0.31282 0.50675 0.0
H1727 H 0.22238 0.33168 0.4864 0.0
C1728 C 0.70684 0.83021 0.52834 0.0
C1729 C 0.73998 0.83485 0.52503 0.0
C1730 C 0.72033 0.80161 0.48435 0.0
C1731 C 0.68678 0.79532 0.48841 0.0
N1732 N 0.64616 0.79777 0.51581 0.0
N1733 N 0.77716 0.82055 0.50206 0.0
C1734 C 0.67943 0.80767 0.51097 0.0
C1735 C 0.74646 0.8193 0.50361 0.0
N1736 N 0.70202 0.84905 0.54723 0.0
N1737 N 0.72732 0.79136 0.46189 0.0
H1738 H 0.79671 0.83308 0.51594 0.0
H1739 H 0.78226 0.80685 0.48808 0.0
H1740 H 0.70836 0.77697 0.44785 0.0
H1741 H 0.7521 0.79881 0.45667 0.0
H1742 H 0.67952 0.84979 0.54887 0.0
H1743 H 0.72153 0.86666 0.56009 0.0
H1744 H 0.63872 0.80261 0.53304 0.0
H1745 H 0.62539 0.7821 0.50324 0.0
C1746 C 0.11519 0.80941 0.5374 0.0
C1747 C 0.10443 0.83393 0.54091 0.0
C1748 C 0.09538 0.83126 0.49612 0.0
C1749 C 0.10832 0.80854 0.49264 0.0
N1750 N 0.13552 0.77996 0.50929 0.0
N1751 N 0.08895 0.87227 0.52403 0.0
C1752 C 0.11977 0.79885 0.51311 0.0
C1753 C 0.09568 0.84594 0.52037 0.0
N1754 N 0.11964 0.79511 0.55728 0.0
N1755 N 0.0822 0.83822 0.47626 0.0
H1756 H 0.08866 0.88343 0.54152 0.0
H1757 H 0.08612 0.88486 0.5098 0.0
H1758 H 0.08296 0.82909 0.45817 0.0
H1759 H 0.06872 0.85122 0.47774 0.0
H1760 H 0.12374 0.77431 0.55578 0.0
H1761 H 0.11624 0.80196 0.57536 0.0
H1762 H 0.1479 0.7754 0.52331 0.0
H1763 H 0.13873 0.77113 0.49176 0.0
C1764 C 0.6553 0.86162 0.15848 0.0
C1765 C 0.63228 0.82869 0.14559 0.0
C1766 C 0.64559 0.79949 0.17607 0.0
C1767 C 0.66767 0.83223 0.18952 0.0
N1768 N 0.68823 0.89358 0.19662 0.0
N1769 N 0.59842 0.76613 0.14561 0.0
C1770 C 0.67086 0.86308 0.18167 0.0
C1771 C 0.62525 0.79757 0.1555 0.0
N1772 N 0.66345 0.89142 0.14809 0.0
N1773 N 0.64513 0.77039 0.18225 0.0
H1774 H 0.58235 0.76372 0.13088 0.0
H1775 H 0.58985 0.74293 0.15358 0.0
H1776 H 0.65967 0.77055 0.19717 0.0
H1777 H 0.63261 0.74667 0.17135 0.0
H1778 H 0.68297 0.91613 0.1552 0.0
H1779 H 0.65224 0.89126 0.1313 0.0
H1780 H 0.68862 0.9162 0.19314 0.0
H1781 H 0.69987 0.89547 0.21369 0.0
C1782 C 0.21125 0.86126 0.15118 0.0
C1783 C 0.19263 0.83176 0.13377 0.0
C1784 C 0.14233 0.80877 0.15928 0.0
C1785 C 0.16043 0.83882 0.1763 0.0
N1786 N 0.20954 0.89636 0.18691 0.0
N1787 N 0.13846 0.78161 0.11816 0.0
C1788 C 0.19416 0.86596 0.17175 0.0
C1789 C 0.15753 0.80677 0.13691 0.0
N1790 N 0.24555 0.88393 0.14856 0.0
N1791 N 0.11117 0.78152 0.16493 0.0
H1792 H 0.14863 0.77953 0.10137 0.0
H1793 H 0.11189 0.76488 0.11827 0.0
H1794 H 0.09885 0.78212 0.18096 0.0
H1795 H 0.09868 0.75728 0.1547 0.0
H1796 H 0.26161 0.90374 0.16199 0.0
H1797 H 0.25856 0.88158 0.13344 0.0
H1798 H 0.23261 0.91849 0.1833 0.0
H1799 H 0.19787 0.90038 0.20228 0.0
C1800 C 0.19453 0.34409 0.13597 0.0
C1801 C 0.18957 0.37196 0.13159 0.0
C1802 C 0.157 0.36264 0.16908 0.0
C1803 C 0.16374 0.33622 0.17426 0.0
N1804 N 0.1954 0.30721 0.16573 0.0
N1805 N 0.17402 0.41353 0.14734 0.0
C1806 C 0.18456 0.32863 0.15864 0.0
C1807 C 0.17316 0.38296 0.14917 0.0
N1808 N 0.20709 0.33115 0.11803 0.0
N1809 N 0.13405 0.36743 0.18248 0.0
H1810 H 0.18652 0.42973 0.13347 0.0
H1811 H 0.16556 0.42463 0.16099 0.0
H1812 H 0.12136 0.35294 0.19709 0.0
H1813 H 0.12527 0.38362 0.17774 0.0
H1814 H 0.20763 0.30842 0.11913 0.0
H1815 H 0.21424 0.34132 0.10105 0.0
H1816 H 0.21346 0.30352 0.15638 0.0
H1817 H 0.18884 0.29569 0.1823 0.0
C1818 C 0.8574 0.63266 0.8773 0.0
C1819 C 0.82943 0.62629 0.89223 0.0
C1820 C 0.80768 0.64784 0.86126 0.0
C1821 C 0.83926 0.66089 0.8493 0.0
N1822 N 0.89423 0.66503 0.84525 0.0
N1823 N 0.76941 0.60695 0.88917 0.0
C1824 C 0.86396 0.65265 0.8569 0.0
C1825 C 0.80183 0.6279 0.88168 0.0
N1826 N 0.87571 0.61693 0.88133 0.0
N1827 N 0.78367 0.65524 0.85354 0.0
H1828 H 0.76424 0.58743 0.90057 0.0
H1829 H 0.74749 0.60498 0.88121 0.0
H1830 H 0.7866 0.66874 0.83815 0.0
H1831 H 0.76194 0.64976 0.86327 0.0
H1832 H 0.89471 0.61831 0.86994 0.0
H1833 H 0.8683 0.59829 0.8939 0.0
H1834 H 0.91496 0.6636 0.85194 0.0
H1835 H 0.89954 0.67877 0.82972 0.0
C1836 C 0.39837 0.23152 0.8716 0.0
C1837 C 0.39892 0.20503 0.8838 0.0
C1838 C 0.35386 0.16003 0.85454 0.0
C1839 C 0.3522 0.18646 0.84317 0.0
N1840 N 0.36805 0.24644 0.84298 0.0
N1841 N 0.37475 0.14428 0.88936 0.0
C1842 C 0.3731 0.22198 0.85232 0.0
C1843 C 0.37578 0.16929 0.87607 0.0
N1844 N 0.42225 0.26584 0.87827 0.0
N1845 N 0.33543 0.12631 0.84419 0.0
H1846 H 0.39163 0.15006 0.90447 0.0
H1847 H 0.35592 0.11796 0.88642 0.0
H1848 H 0.31856 0.11851 0.82875 0.0
H1849 H 0.33837 0.10639 0.84982 0.0
H1850 H 0.426 0.28606 0.86814 0.0
H1851 H 0.44006 0.27424 0.89315 0.0
H1852 H 0.37967 0.27218 0.8506 0.0
H1853 H 0.3499 0.24042 0.8287 0.0
C1854 C 0.77919 0.18861 0.8583 0.0
C1855 C 0.78333 0.16979 0.87638 0.0
C1856 C 0.791 0.13368 0.84383 0.0
C1857 C 0.78321 0.15 0.8258 0.0
N1858 N 0.76561 0.18988 0.81545 0.0
N1859 N 0.78808 0.12114 0.88651 0.0
C1860 C 0.77616 0.17666 0.83291 0.0
C1861 C 0.78802 0.14151 0.8692 0.0
N1862 N 0.77964 0.21874 0.86534 0.0
N1863 N 0.80179 0.11111 0.83667 0.0
H1864 H 0.7854 0.12569 0.90523 0.0
H1865 H 0.78766 0.09796 0.88214 0.0
H1866 H 0.80403 0.10461 0.81822 0.0
H1867 H 0.81137 0.10119 0.84899 0.0
H1868 H 0.78054 0.23559 0.85293 0.0
H1869 H 0.78222 0.22863 0.88372 0.0
H1870 H 0.75615 0.20632 0.81972 0.0
H1871 H 0.76396 0.18245 0.7966 0.0
C1872 C 0.30584 0.13195 0.48149 0.0
C1873 C 0.3101 0.15932 0.46775 0.0
C1874 C 0.35436 0.20213 0.4985 0.0
C1875 C 0.35291 0.17446 0.51037 0.0
N1876 N 0.33174 0.11303 0.51051 0.0
N1877 N 0.34134 0.22034 0.46129 0.0
C1878 C 0.32991 0.13935 0.5011 0.0
C1879 C 0.33507 0.19447 0.47578 0.0
N1880 N 0.27788 0.09905 0.47649 0.0
N1881 N 0.37339 0.23556 0.50927 0.0
H1882 H 0.32777 0.21569 0.44455 0.0
H1883 H 0.36176 0.24592 0.46485 0.0
H1884 H 0.38789 0.2421 0.52583 0.0
H1885 H 0.37258 0.25634 0.50289 0.0
H1886 H 0.27166 0.07896 0.48756 0.0
H1887 H 0.25878 0.09269 0.4629 0.0
H1888 H 0.31813 0.08732 0.50263 0.0
H1889 H 0.34931 0.11731 0.52474 0.0
C1890 C 0.87865 0.18876 0.47015 0.0
C1891 C 0.86301 0.1553 0.45695 0.0
C1892 C 0.81537 0.13278 0.48496 0.0
C1893 C 0.83257 0.16536 0.49945 0.0
N1894 N 0.8814 0.22371 0.50755 0.0
N1895 N 0.81794 0.0946 0.45205 0.0
C1896 C 0.8644 0.19328 0.49245 0.0
C1897 C 0.8317 0.12707 0.4644 0.0
N1898 N 0.90689 0.21617 0.4612 0.0
N1899 N 0.78307 0.10755 0.49063 0.0
H1900 H 0.82781 0.08967 0.43598 0.0
H1901 H 0.79782 0.07204 0.45834 0.0
H1902 H 0.77066 0.11041 0.50595 0.0
H1903 H 0.7674 0.08473 0.47931 0.0
H1904 H 0.91762 0.24196 0.46846 0.0
H1905 H 0.91838 0.2134 0.44528 0.0
H1906 H 0.90638 0.24375 0.50506 0.0
H1907 H 0.87122 0.2282 0.52363 0.0
C1908 C 0.81032 0.68153 0.47237 0.0
C1909 C 0.84635 0.69784 0.46922 0.0
C1910 C 0.85438 0.68478 0.51078 0.0
C1911 C 0.81877 0.67075 0.51453 0.0
N1912 N 0.76531 0.66549 0.50142 0.0
N1913 N 0.90344 0.72388 0.48834 0.0
C1914 C 0.79758 0.67241 0.49614 0.0
C1915 C 0.86864 0.70232 0.48939 0.0
N1916 N 0.78781 0.67229 0.45254 0.0
N1917 N 0.87431 0.67973 0.52676 0.0
H1918 H 0.91472 0.73818 0.47336 0.0
H1919 H 0.92061 0.73051 0.5034 0.0
H1920 H 0.86482 0.66595 0.54219 0.0
H1921 H 0.89949 0.68632 0.52337 0.0
H1922 H 0.76117 0.65718 0.45369 0.0
H1923 H 0.79547 0.67642 0.4345 0.0
H1924 H 0.75001 0.66943 0.4894 0.0
H1925 H 0.75544 0.65945 0.51882 0.0
loop_
_geom_bond_atom_site_label_1
_geom_bond_atom_site_label_2
_geom_bond_distance
_geom_bond_site_symmetry_2
_ccdc_geom_bond_type
O0 Cd1 2.300 . S
O0 C7 1.275 . S
Cd1 O0 2.300 . S
Cd1 O9 2.381 . S
Cd1 O10 2.378 . S
O2 Cd3 2.385 . S
O2 C7 1.255 . S
Cd3 O2 2.385 . S
Cd3 O4 2.317 . S
O4 Cd3 2.317 . S
O4 C5 1.232 . S
C5 O4 1.232 . S
C5 O6 1.218 . S
O6 C5 1.218 . S
C7 O0 1.275 . S
C7 O2 1.255 . S
C8 O9 1.258 . S
C8 O10 1.256 . S
O9 Cd1 2.381 . S
O9 C8 1.258 . S
O10 Cd1 2.378 . S
O10 C8 1.256 . S
O11 Cd12 2.300 . S
O11 C18 1.275 . S
Cd12 O11 2.300 . S
Cd12 O20 2.381 . S
Cd12 O21 2.378 . S
O13 Cd14 2.385 . S
O13 C18 1.255 . S
Cd14 O13 2.385 . S
Cd14 O15 2.317 . S
O15 Cd14 2.317 . S
O15 C16 1.232 . S
C16 O15 1.232 . S
C16 O17 1.204 1_545 S
O17 C16 1.204 1_565 S
C18 O11 1.275 . S
C18 O13 1.255 . S
C19 O20 1.258 . S
C19 O21 1.256 . S
O20 Cd12 2.381 . S
O20 C19 1.258 . S
O21 Cd12 2.378 . S
O21 C19 1.256 . S
O22 Cd23 2.300 . S
O22 C29 1.275 . S
Cd23 O22 2.300 . S
Cd23 O31 2.381 . S
Cd23 O32 2.378 . S
O24 Cd25 2.385 . S
O24 C29 1.255 . S
Cd25 O24 2.385 . S
Cd25 O26 2.317 . S
O26 Cd25 2.317 . S
O26 C27 1.232 . S
C27 O26 1.232 . S
C27 O28 1.218 . S
O28 C27 1.218 . S
C29 O22 1.275 . S
C29 O24 1.255 . S
C30 O31 1.258 . S
C30 O32 1.256 . S
O31 Cd23 2.381 . S
O31 C30 1.258 . S
O32 Cd23 2.378 . S
O32 C30 1.256 . S
O33 Cd34 2.300 . S
O33 C40 1.275 . S
Cd34 O33 2.300 . S
Cd34 O42 2.381 . S
Cd34 O43 2.378 . S
O35 Cd36 2.385 . S
O35 C40 1.255 . S
Cd36 O35 2.385 . S
Cd36 O37 2.317 . S
O37 Cd36 2.317 . S
O37 C38 1.232 . S
C38 O37 1.232 . S
C38 O39 1.218 . S
O39 C38 1.218 . S
C40 O33 1.275 . S
C40 O35 1.255 . S
C41 O42 1.258 . S
C41 O43 1.256 . S
O42 Cd34 2.381 . S
O42 C41 1.258 . S
O43 Cd34 2.378 . S
O43 C41 1.256 . S
O44 Cd45 2.300 . S
O44 C51 1.275 . S
Cd45 O44 2.300 . S
Cd45 O53 2.381 . S
Cd45 O54 2.378 . S
O46 Cd47 2.385 . S
O46 C51 1.255 . S
Cd47 O46 2.385 . S
Cd47 O48 2.317 . S
O48 Cd47 2.317 . S
O48 C49 1.232 . S
C49 O48 1.232 . S
C49 O50 1.218 1_565 S
O50 C49 1.218 1_545 S
C51 O44 1.275 . S
C51 O46 1.255 . S
C52 O53 1.258 . S
C52 O54 1.256 . S
O53 Cd45 2.381 . S
O53 C52 1.258 . S
O54 Cd45 2.378 . S
O54 C52 1.256 . S
O55 Cd56 2.300 . S
O55 C62 1.275 . S
Cd56 O55 2.300 . S
Cd56 O64 2.381 . S
Cd56 O65 2.378 . S
O57 Cd58 2.385 . S
O57 C62 1.255 . S
Cd58 O57 2.385 . S
Cd58 O59 2.317 . S
O59 Cd58 2.317 . S
O59 C60 1.232 . S
C60 O59 1.232 . S
C60 O61 1.218 . S
O61 C60 1.218 . S
C62 O55 1.275 . S
C62 O57 1.255 . S
C63 O64 1.258 . S
C63 O65 1.256 . S
O64 Cd56 2.381 . S
O64 C63 1.258 . S
O65 Cd56 2.378 . S
O65 C63 1.256 . S
O66 Cd67 2.300 . S
O66 C73 1.275 . S
Cd67 O66 2.300 . S
Cd67 O75 2.381 . S
Cd67 O76 2.378 . S
O68 Cd69 2.385 . S
O68 C73 1.255 . S
Cd69 O68 2.385 . S
Cd69 O70 2.317 . S
O70 Cd69 2.317 . S
O70 C71 1.232 . S
C71 O70 1.232 . S
C71 O72 1.218 . S
O72 C71 1.218 . S
C73 O66 1.275 . S
C73 O68 1.255 . S
C74 O75 1.258 . S
C74 O76 1.256 . S
O75 Cd67 2.381 . S
O75 C74 1.258 . S
O76 Cd67 2.378 . S
O76 C74 1.256 . S
O77 Cd78 2.300 . S
O77 C84 1.275 . S
Cd78 O77 2.300 . S
Cd78 O86 2.381 . S
Cd78 O87 2.378 . S
O79 Cd80 2.385 . S
O79 C84 1.255 . S
Cd80 O79 2.385 . S
Cd80 O81 2.317 . S
O81 Cd80 2.317 . S
O81 C82 1.232 . S
C82 O81 1.232 . S
C82 O83 1.218 . S
O83 C82 1.218 . S
C84 O77 1.275 . S
C84 O79 1.255 . S
C85 O86 1.258 . S
C85 O87 1.256 . S
O86 Cd78 2.381 . S
O86 C85 1.258 . S
O87 Cd78 2.378 . S
O87 C85 1.256 . S
O88 Cd89 2.300 . S
O88 C95 1.275 . S
Cd89 O88 2.300 . S
Cd89 O97 2.381 . S
Cd89 O98 2.378 . S
O90 Cd91 2.385 . S
O90 C95 1.255 . S
Cd91 O90 2.385 . S
Cd91 O92 2.317 . S
O92 Cd91 2.317 . S
O92 C93 1.232 . S
C93 O92 1.232 . S
C93 O94 1.218 . S
O94 C93 1.218 . S
C95 O88 1.275 . S
C95 O90 1.255 . S
C96 O97 1.258 . S
C96 O98 1.256 . S
O97 Cd89 2.381 . S
O97 C96 1.258 . S
O98 Cd89 2.378 . S
O98 C96 1.256 . S
O99 Cd100 2.300 . S
O99 C106 1.275 . S
Cd100 O99 2.300 . S
Cd100 O108 2.381 . S
Cd100 O109 2.378 . S
O101 Cd102 2.385 . S
O101 C106 1.255 . S
Cd102 O101 2.385 . S
Cd102 O103 2.317 . S
O103 Cd102 2.317 . S
O103 C104 1.232 . S
C104 O103 1.232 . S
C104 O105 1.218 . S
O105 C104 1.218 . S
C106 O99 1.275 . S
C106 O101 1.255 . S
C107 O108 1.258 . S
C107 O109 1.256 . S
O108 Cd100 2.381 . S
O108 C107 1.258 . S
O109 Cd100 2.378 . S
O109 C107 1.256 . S
O110 Cd111 2.300 . S
O110 C117 1.275 . S
Cd111 O110 2.300 . S
Cd111 O119 2.381 . S
Cd111 O120 2.378 . S
O112 Cd113 2.385 . S
O112 C117 1.255 . S
Cd113 O112 2.385 . S
Cd113 O114 2.317 . S
O114 Cd113 2.317 . S
O114 C115 1.232 . S
C115 O114 1.232 . S
C115 O116 1.218 . S
O116 C115 1.218 . S
C117 O110 1.275 . S
C117 O112 1.255 . S
C118 O119 1.258 . S
C118 O120 1.256 . S
O119 Cd111 2.381 . S
O119 C118 1.258 . S
O120 Cd111 2.378 . S
O120 C118 1.256 . S
O121 Cd122 2.300 . S
O121 C128 1.275 . S
Cd122 O121 2.300 . S
Cd122 O130 2.381 . S
Cd122 O131 2.378 . S
O123 Cd124 2.385 . S
O123 C128 1.255 . S
Cd124 O123 2.385 . S
Cd124 O125 2.317 . S
O125 Cd124 2.317 . S
O125 C126 1.232 . S
C126 O125 1.232 . S
C126 O127 1.218 . S
O127 C126 1.218 . S
C128 O121 1.275 . S
C128 O123 1.255 . S
C129 O130 1.258 . S
C129 O131 1.256 . S
O130 Cd122 2.381 . S
O130 C129 1.258 . S
O131 Cd122 2.378 . S
O131 C129 1.256 . S
O132 Cd133 2.300 . S
O132 C139 1.275 . S
Cd133 O132 2.300 . S
Cd133 O141 2.381 . S
Cd133 O142 2.378 . S
O134 Cd135 2.385 . S
O134 C139 1.255 . S
Cd135 O134 2.385 . S
Cd135 O136 2.317 . S
O136 Cd135 2.317 . S
O136 C137 1.232 . S
C137 O136 1.232 . S
C137 O138 1.218 . S
O138 C137 1.218 . S
C139 O132 1.275 . S
C139 O134 1.255 . S
C140 O141 1.258 . S
C140 O142 1.256 . S
O141 Cd133 2.381 . S
O141 C140 1.258 . S
O142 Cd133 2.378 . S
O142 C140 1.256 . S
O143 Cd144 2.300 . S
O143 C150 1.275 . S
Cd144 O143 2.300 . S
Cd144 O152 2.381 . S
Cd144 O153 2.378 . S
O145 Cd146 2.385 . S
O145 C150 1.255 . S
Cd146 O145 2.385 . S
Cd146 O147 2.317 . S
O147 Cd146 2.317 . S
O147 C148 1.232 . S
C148 O147 1.232 . S
C148 O149 1.218 . S
O149 C148 1.218 . S
C150 O143 1.275 . S
C150 O145 1.255 . S
C151 O152 1.258 . S
C151 O153 1.256 . S
O152 Cd144 2.381 . S
O152 C151 1.258 . S
O153 Cd144 2.378 . S
O153 C151 1.256 . S
O154 Cd155 2.300 . S
O154 C161 1.275 . S
Cd155 O154 2.300 . S
Cd155 O163 2.381 . S
Cd155 O164 2.378 . S
O156 Cd157 2.385 . S
O156 C161 1.255 . S
Cd157 O156 2.385 . S
Cd157 O158 2.317 . S
O158 Cd157 2.317 . S
O158 C159 1.232 . S
C159 O158 1.232 . S
C159 O160 1.218 . S
O160 C159 1.218 . S
C161 O154 1.275 . S
C161 O156 1.255 . S
C162 O163 1.258 . S
C162 O164 1.256 . S
O163 Cd155 2.381 . S
O163 C162 1.258 . S
O164 Cd155 2.378 . S
O164 C162 1.256 . S
O165 Cd166 2.300 . S
O165 C172 1.275 . S
Cd166 O165 2.300 . S
Cd166 O174 2.381 . S
Cd166 O175 2.378 . S
O167 Cd168 2.385 . S
O167 C172 1.255 . S
Cd168 O167 2.385 . S
Cd168 O169 2.317 . S
O169 Cd168 2.317 . S
O169 C170 1.232 . S
C170 O169 1.232 . S
C170 O171 1.218 . S
O171 C170 1.218 . S
C172 O165 1.275 . S
C172 O167 1.255 . S
C173 O174 1.258 . S
C173 O175 1.256 . S
O174 Cd166 2.381 . S
O174 C173 1.258 . S
O175 Cd166 2.378 . S
O175 C173 1.256 . S
O176 Cd177 2.300 . S
O176 C183 1.275 . S
Cd177 O176 2.300 . S
Cd177 O185 2.381 . S
Cd177 O186 2.378 . S
O178 Cd179 2.385 . S
O178 C183 1.255 . S
Cd179 O178 2.385 . S
Cd179 O180 2.317 . S
O180 Cd179 2.317 . S
O180 C181 1.232 . S
C181 O180 1.232 . S
C181 O182 1.218 . S
O182 C181 1.218 . S
C183 O176 1.275 . S
C183 O178 1.255 . S
C184 O185 1.258 . S
C184 O186 1.256 . S
O185 Cd177 2.381 . S
O185 C184 1.258 . S
O186 Cd177 2.378 . S
O186 C184 1.256 . S
O187 Cd188 2.300 . S
O187 C194 1.275 . S
Cd188 O187 2.300 . S
Cd188 O196 2.381 . S
Cd188 O197 2.378 . S
O189 Cd190 2.385 . S
O189 C194 1.255 . S
Cd190 O189 2.385 . S
Cd190 O191 2.317 . S
O191 Cd190 2.317 . S
O191 C192 1.232 . S
C192 O191 1.232 . S
C192 O193 1.218 . S
O193 C192 1.218 . S
C194 O187 1.275 . S
C194 O189 1.255 . S
C195 O196 1.258 . S
C195 O197 1.256 . S
O196 Cd188 2.381 . S
O196 C195 1.258 . S
O197 Cd188 2.378 . S
O197 C195 1.256 . S
Gd198 N229 2.661 . S
Gd198 N235 2.601 . S
Gd198 O242 2.545 . S
Gd198 O243 2.606 1_545 S
Gd198 O245 2.429 . S
Gd198 O246 2.545 1_545 S
Gd198 O247 2.412 . S
Gd198 O249 2.362 . S
Gd198 O250 2.324 1_545 S
Gd198 C257 2.828 . S
Gd199 N208 2.661 . S
Gd199 N212 2.601 . S
Gd199 O243 2.362 1_556 S
Gd199 O244 2.324 1_565 S
Gd199 O248 2.545 . S
Gd199 O249 2.606 1_566 S
Gd199 O251 2.429 . S
Gd199 O252 2.545 1_565 S
Gd199 O253 2.412 1_565 S
Gd199 C266 2.828 . S
C200 C203 1.417 . S
C200 C205 1.431 . S
C200 C206 1.412 . S
C201 C204 1.437 . S
C201 C205 1.317 . S
C201 H220 0.929 . S
C202 C203 1.426 . S
C202 C204 1.413 . S
C202 N212 1.359 . S
C203 C200 1.417 . S
C203 C202 1.426 . S
C203 N208 1.350 . S
C204 C201 1.437 . S
C204 C202 1.413 . S
C204 C214 1.391 . S
C205 C200 1.431 . S
C205 C201 1.317 . S
C205 H216 0.930 . S
C206 C200 1.412 . S
C206 C207 1.355 . S
C206 H218 0.930 . S
C207 C206 1.355 . S
C207 C209 1.402 . S
C207 H219 0.930 . S
N208 Gd199 2.661 . S
N208 C203 1.350 . S
N208 C209 1.307 . S
C209 C207 1.402 . S
C209 N208 1.307 . S
C209 H210 0.930 . S
H210 C209 0.930 . S
C211 N212 1.334 . S
C211 C213 1.394 . S
C211 H215 0.930 . S
N212 Gd199 2.601 . S
N212 C202 1.359 . S
N212 C211 1.334 . S
C213 C211 1.394 . S
C213 C214 1.359 . S
C213 H225 0.930 . S
C214 C204 1.391 . S
C214 C213 1.359 . S
C214 H226 0.929 . S
H215 C211 0.930 . S
H216 C205 0.930 . S
H217 C234 0.930 . S
H218 C206 0.930 . S
H219 C207 0.930 . S
H220 C201 0.929 . S
H221 C239 0.930 . S
H222 C230 0.930 . S
H223 C231 0.930 . S
H224 C255 0.929 . S
H225 C213 0.930 . S
H226 C214 0.929 . S
H227 C256 0.930 . S
H228 C237 0.930 . S
N229 Gd198 2.661 . S
N229 C233 1.350 . S
N229 C234 1.307 . S
C230 H222 0.930 . S
C230 C231 1.355 . S
C230 C232 1.412 . S
C231 H223 0.930 . S
C231 C230 1.355 . S
C231 C234 1.402 . S
C232 C230 1.412 . S
C232 C233 1.417 . S
C232 C256 1.431 . S
C233 N229 1.350 . S
C233 C232 1.417 . S
C233 C236 1.426 . S
C234 H217 0.930 . S
C234 N229 1.307 . S
C234 C231 1.402 . S
N235 Gd198 2.601 . S
N235 C236 1.359 . S
N235 C239 1.334 . S
C236 C233 1.426 . S
C236 N235 1.359 . S
C236 C240 1.413 . S
C237 H228 0.930 . S
C237 C238 1.359 . S
C237 C239 1.394 . S
C238 C237 1.359 . S
C238 C240 1.391 . S
C238 H241 0.929 . S
C239 H221 0.930 . S
C239 N235 1.334 . S
C239 C237 1.394 . S
C240 C236 1.413 . S
C240 C238 1.391 . S
C240 C255 1.437 . S
H241 C238 0.929 . S
O242 Gd198 2.545 . S
O242 C257 1.258 . S
O243 Gd198 2.606 1_565 S
O243 Gd199 2.362 1_554 S
O243 C254 1.284 . S
O244 Gd199 2.324 1_545 S
O244 C264 1.254 . S
O245 Gd198 2.429 . S
O245 C264 1.268 1_554 S
O246 Gd198 2.545 1_565 S
O246 C254 1.250 . S
O247 Gd198 2.412 . S
O247 C257 1.252 . S
O248 Gd199 2.545 . S
O248 C266 1.258 . S
O249 Gd198 2.362 . S
O249 Gd199 2.606 1_544 S
O249 C265 1.284 1_554 S
O250 Gd198 2.324 1_565 S
O250 C273 1.254 . S
O251 Gd199 2.429 . S
O251 C273 1.268 1_556 S
O252 Gd199 2.545 1_545 S
O252 C265 1.250 . S
O253 Gd199 2.412 1_545 S
O253 C266 1.252 1_545 S
C254 O243 1.284 . S
C254 O246 1.250 . S
C255 H224 0.929 . S
C255 C240 1.437 . S
C255 C256 1.317 . S
C256 H227 0.930 . S
C256 C232 1.431 . S
C256 C255 1.317 . S
C257 Gd198 2.828 . S
C257 O242 1.258 . S
C257 O247 1.252 . S
C257 C258 1.497 . S
C258 C257 1.497 . S
C258 C259 1.395 . S
C258 C260 1.380 1_545 S
C259 C258 1.395 . S
C259 C262 1.398 . S
C259 H274 0.930 . S
C260 C258 1.380 1_565 S
C260 C261 1.391 . S
C260 H275 0.930 . S
C261 C260 1.391 . S
C261 C263 1.387 . S
C262 C259 1.398 . S
C262 C263 1.380 1_545 S
C262 H276 0.930 . S
C263 C261 1.387 . S
C263 C262 1.380 1_565 S
C263 H277 0.930 . S
C264 O244 1.254 . S
C264 O245 1.268 1_556 S
C265 O249 1.284 1_556 S
C265 O252 1.250 . S
C266 Gd199 2.828 . S
C266 O248 1.258 . S
C266 O253 1.252 1_565 S
C266 C267 1.497 . S
C267 C266 1.497 . S
C267 C268 1.395 . S
C267 C269 1.380 1_565 S
C268 C267 1.395 . S
C268 C271 1.398 . S
C268 H278 0.930 . S
C269 C267 1.380 1_545 S
C269 C270 1.391 . S
C269 H279 0.930 . S
C270 C269 1.391 . S
C270 C272 1.387 . S
C271 C268 1.398 . S
C271 C272 1.380 1_565 S
C271 H280 0.930 . S
C272 C270 1.387 . S
C272 C271 1.380 1_545 S
C272 H281 0.930 . S
C273 O250 1.254 . S
C273 O251 1.268 1_554 S
H274 C259 0.930 . S
H275 C260 0.930 . S
H276 C262 0.930 . S
H277 C263 0.930 . S
H278 C268 0.930 . S
H279 C269 0.930 . S
H280 C271 0.930 . S
H281 C272 0.930 . S
Gd282 N313 2.661 . S
Gd282 N319 2.601 . S
Gd282 O326 2.545 . S
Gd282 O327 2.606 1_655 S
Gd282 O329 2.429 . S
Gd282 O330 2.545 1_655 S
Gd282 O331 2.412 1_655 S
Gd282 O333 2.362 . S
Gd282 O334 2.324 1_655 S
Gd282 C341 2.828 . S
Gd283 N292 2.661 . S
Gd283 N296 2.601 . S
Gd283 O327 2.362 1_556 S
Gd283 O328 2.324 1_455 S
Gd283 O332 2.545 . S
Gd283 O333 2.606 1_456 S
Gd283 O335 2.419 1_556 S
Gd283 O336 2.545 1_455 S
Gd283 O337 2.412 1_455 S
Gd283 C350 2.828 . S
C284 C287 1.417 . S
C284 C289 1.431 . S
C284 C290 1.412 . S
C285 C288 1.437 . S
C285 C289 1.317 . S
C285 H304 0.929 . S
C286 C287 1.426 . S
C286 C288 1.413 . S
C286 N296 1.359 . S
C287 C284 1.417 . S
C287 C286 1.426 . S
C287 N292 1.350 . S
C288 C285 1.437 . S
C288 C286 1.413 . S
C288 C298 1.391 . S
C289 C284 1.431 . S
C289 C285 1.317 . S
C289 H300 0.930 . S
C290 C284 1.412 . S
C290 C291 1.355 . S
C290 H302 0.930 . S
C291 C290 1.355 . S
C291 C293 1.402 . S
C291 H303 0.930 . S
N292 Gd283 2.661 . S
N292 C287 1.350 . S
N292 C293 1.307 . S
C293 C291 1.402 . S
C293 N292 1.307 . S
C293 H294 0.930 1_455 S
H294 C293 0.930 1_655 S
C295 N296 1.334 . S
C295 C297 1.394 . S
C295 H299 0.930 . S
N296 Gd283 2.601 . S
N296 C286 1.359 . S
N296 C295 1.334 . S
C297 C295 1.394 . S
C297 C298 1.359 . S
C297 H309 0.930 . S
C298 C288 1.391 . S
C298 C297 1.359 . S
C298 H310 0.929 . S
H299 C295 0.930 . S
H300 C289 0.930 . S
H301 C318 0.930 1_455 S
H302 C290 0.930 . S
H303 C291 0.930 . S
H304 C285 0.929 . S
H305 C323 0.930 . S
H306 C314 0.930 . S
H307 C315 0.930 . S
H308 C339 0.929 . S
H309 C297 0.930 . S
H310 C298 0.929 . S
H311 C340 0.930 . S
H312 C321 0.930 . S
N313 Gd282 2.661 . S
N313 C317 1.350 . S
N313 C318 1.307 . S
C314 H306 0.930 . S
C314 C315 1.355 . S
C314 C316 1.412 . S
C315 H307 0.930 . S
C315 C314 1.355 . S
C315 C318 1.402 . S
C316 C314 1.412 . S
C316 C317 1.417 . S
C316 C340 1.431 . S
C317 N313 1.350 . S
C317 C316 1.417 . S
C317 C320 1.426 . S
C318 H301 0.930 1_655 S
C318 N313 1.307 . S
C318 C315 1.402 . S
N319 Gd282 2.601 . S
N319 C320 1.359 . S
N319 C323 1.334 . S
C320 C317 1.426 . S
C320 N319 1.359 . S
C320 C324 1.413 . S
C321 H312 0.930 . S
C321 C322 1.359 . S
C321 C323 1.394 . S
C322 C321 1.359 . S
C322 C324 1.391 . S
C322 H325 0.929 . S
C323 H305 0.930 . S
C323 N319 1.334 . S
C323 C321 1.394 . S
C324 C320 1.413 . S
C324 C322 1.391 . S
C324 C339 1.437 . S
H325 C322 0.929 . S
O326 Gd282 2.545 . S
O326 C341 1.258 . S
O327 Gd282 2.606 1_455 S
O327 Gd283 2.362 1_554 S
O327 C338 1.284 . S
O328 Gd283 2.324 1_655 S
O328 C348 1.254 . S
O329 Gd282 2.429 . S
O329 C348 1.268 1_554 S
O330 Gd282 2.545 1_455 S
O330 C338 1.250 . S
O331 Gd282 2.412 1_455 S
O331 C341 1.252 1_455 S
O332 Gd283 2.545 . S
O332 C350 1.258 . S
O333 Gd282 2.362 . S
O333 Gd283 2.606 1_654 S
O333 C349 1.284 1_554 S
O334 Gd282 2.324 1_455 S
O334 C357 1.254 . S
O335 Gd283 2.419 1_554 S
O335 C357 1.290 . S
O336 Gd283 2.545 1_655 S
O336 C349 1.250 . S
O337 Gd283 2.412 1_655 S
O337 C350 1.252 1_655 S
C338 O327 1.284 . S
C338 O330 1.250 . S
C339 H308 0.929 . S
C339 C324 1.437 . S
C339 C340 1.317 . S
C340 H311 0.930 . S
C340 C316 1.431 . S
C340 C339 1.317 . S
C341 Gd282 2.828 . S
C341 O326 1.258 . S
C341 O331 1.252 1_655 S
C341 C342 1.497 1_655 S
C342 C341 1.497 1_455 S
C342 C343 1.395 1_455 S
C342 C344 1.380 . S
C343 C342 1.395 1_655 S
C343 C346 1.398 . S
C343 H358 0.930 . S
C344 C342 1.380 . S
C344 C345 1.391 . S
C344 H359 0.930 . S
C345 C344 1.391 . S
C345 C347 1.387 . S
C346 C343 1.398 . S
C346 C347 1.380 1_655 S
C346 H360 0.930 . S
C347 C345 1.387 . S
C347 C346 1.380 1_455 S
C347 H361 0.930 . S
C348 O328 1.254 . S
C348 O329 1.268 1_556 S
C349 O333 1.284 1_556 S
C349 O336 1.250 . S
C350 Gd283 2.828 . S
C350 O332 1.258 . S
C350 O337 1.252 1_455 S
C350 C351 1.497 1_455 S
C351 C350 1.497 1_655 S
C351 C352 1.395 1_655 S
C351 C353 1.380 . S
C352 C351 1.395 1_455 S
C352 C355 1.398 . S
C352 H362 0.930 . S
C353 C351 1.380 . S
C353 C354 1.391 . S
C353 H363 0.930 . S
C354 C353 1.391 . S
C354 C356 1.387 . S
C355 C352 1.398 . S
C355 C356 1.380 1_455 S
C355 H364 0.930 . S
C356 C354 1.387 . S
C356 C355 1.380 1_655 S
C356 H365 0.930 . S
C357 O334 1.254 . S
C357 O335 1.290 . S
H358 C343 0.930 . S
H359 C344 0.930 . S
H360 C346 0.930 . S
H361 C347 0.930 . S
H362 C352 0.930 . S
H363 C353 0.930 . S
H364 C355 0.930 . S
H365 C356 0.930 . S
Gd366 N397 2.661 . S
Gd366 N403 2.601 . S
Gd366 O410 2.545 . S
Gd366 O411 2.601 1_556 S
Gd366 O413 2.429 . S
Gd366 O414 2.545 . S
Gd366 O415 2.412 . S
Gd366 O417 2.362 1_556 S
Gd366 O418 2.324 . S
Gd366 C425 2.828 . S
Gd367 N376 2.661 . S
Gd367 N380 2.601 . S
Gd367 O411 2.369 . S
Gd367 O412 2.324 . S
Gd367 O416 2.545 . S
Gd367 O417 2.606 . S
Gd367 O419 2.429 . S
Gd367 O420 2.545 . S
Gd367 O421 2.412 . S
Gd367 C434 2.828 . S
C368 C371 1.417 . S
C368 C373 1.431 . S
C368 C374 1.412 . S
C369 C372 1.437 . S
C369 C373 1.317 . S
C369 H388 0.929 . S
C370 C371 1.426 . S
C370 C372 1.413 . S
C370 N380 1.359 . S
C371 C368 1.417 . S
C371 C370 1.426 . S
C371 N376 1.350 . S
C372 C369 1.437 . S
C372 C370 1.413 . S
C372 C382 1.391 . S
C373 C368 1.431 . S
C373 C369 1.317 . S
C373 H384 0.930 . S
C374 C368 1.412 . S
C374 C375 1.355 . S
C374 H386 0.930 . S
C375 C374 1.355 . S
C375 C377 1.402 . S
C375 H387 0.930 . S
N376 Gd367 2.661 . S
N376 C371 1.350 . S
N376 C377 1.307 . S
C377 C375 1.402 . S
C377 N376 1.307 . S
C377 H378 0.930 . S
H378 C377 0.930 . S
C379 N380 1.334 . S
C379 C381 1.394 . S
C379 H383 0.930 . S
N380 Gd367 2.601 . S
N380 C370 1.359 . S
N380 C379 1.334 . S
C381 C379 1.394 . S
C381 C382 1.359 . S
C381 H393 0.930 . S
C382 C372 1.391 . S
C382 C381 1.359 . S
C382 H394 0.929 . S
H383 C379 0.930 . S
H384 C373 0.930 . S
H385 C402 0.930 . S
H386 C374 0.930 . S
H387 C375 0.930 . S
H388 C369 0.929 . S
H389 C407 0.930 . S
H390 C398 0.930 . S
H391 C399 0.930 . S
H392 C423 0.929 . S
H393 C381 0.930 . S
H394 C382 0.929 . S
H395 C424 0.930 . S
H396 C405 0.930 . S
N397 Gd366 2.661 . S
N397 C401 1.350 . S
N397 C402 1.307 . S
C398 H390 0.930 . S
C398 C399 1.355 . S
C398 C400 1.412 . S
C399 H391 0.930 . S
C399 C398 1.355 . S
C399 C402 1.402 . S
C400 C398 1.412 . S
C400 C401 1.417 . S
C400 C424 1.431 . S
C401 N397 1.350 . S
C401 C400 1.417 . S
C401 C404 1.426 . S
C402 H385 0.930 . S
C402 N397 1.307 . S
C402 C399 1.402 . S
N403 Gd366 2.601 . S
N403 C404 1.359 . S
N403 C407 1.334 . S
C404 C401 1.426 . S
C404 N403 1.359 . S
C404 C408 1.413 . S
C405 H396 0.930 . S
C405 C406 1.359 . S
C405 C407 1.394 . S
C406 C405 1.359 . S
C406 C408 1.391 . S
C406 H409 0.929 . S
C407 H389 0.930 . S
C407 N403 1.334 . S
C407 C405 1.394 . S
C408 C404 1.413 . S
C408 C406 1.391 . S
C408 C423 1.437 . S
H409 C406 0.929 . S
O410 Gd366 2.545 . S
O410 C425 1.258 . S
O411 Gd366 2.601 1_554 S
O411 Gd367 2.369 . S
O411 C422 1.279 1_554 S
O412 Gd367 2.324 . S
O412 C432 1.254 . S
O413 Gd366 2.429 . S
O413 C432 1.268 1_556 S
O414 Gd366 2.545 . S
O414 C422 1.250 . S
O415 Gd366 2.412 . S
O415 C425 1.252 . S
O416 Gd367 2.545 . S
O416 C434 1.258 . S
O417 Gd366 2.362 1_554 S
O417 Gd367 2.606 . S
O417 C433 1.284 . S
O418 Gd366 2.324 . S
O418 C441 1.254 . S
O419 Gd367 2.429 . S
O419 C441 1.268 1_554 S
O420 Gd367 2.545 . S
O420 C433 1.250 . S
O421 Gd367 2.412 . S
O421 C434 1.252 . S
C422 O411 1.279 1_556 S
C422 O414 1.250 . S
C423 H392 0.929 . S
C423 C408 1.437 . S
C423 C424 1.317 . S
C424 H395 0.930 . S
C424 C400 1.431 . S
C424 C423 1.317 . S
C425 Gd366 2.828 . S
C425 O410 1.258 . S
C425 O415 1.252 . S
C425 C426 1.497 . S
C426 C425 1.497 . S
C426 C427 1.395 . S
C426 C428 1.380 . S
C427 C426 1.395 . S
C427 C430 1.398 . S
C427 H442 0.930 . S
C428 C426 1.380 . S
C428 C429 1.391 . S
C428 H443 0.930 . S
C429 C428 1.391 . S
C429 C431 1.387 . S
C430 C427 1.398 . S
C430 C431 1.380 . S
C430 H444 0.930 . S
C431 C429 1.387 . S
C431 C430 1.380 . S
C431 H445 0.930 . S
C432 O412 1.254 . S
C432 O413 1.268 1_554 S
C433 O417 1.284 . S
C433 O420 1.250 . S
C434 Gd367 2.828 . S
C434 O416 1.258 . S
C434 O421 1.252 . S
C434 C435 1.497 . S
C435 C434 1.497 . S
C435 C436 1.395 . S
C435 C437 1.380 . S
C436 C435 1.395 . S
C436 C439 1.398 . S
C436 H446 0.930 . S
C437 C435 1.380 . S
C437 C438 1.391 . S
C437 H447 0.930 . S
C438 C437 1.391 . S
C438 C440 1.387 . S
C439 C436 1.398 . S
C439 C440 1.380 . S
C439 H448 0.930 . S
C440 C438 1.387 . S
C440 C439 1.380 . S
C440 H449 0.930 . S
C441 O418 1.254 . S
C441 O419 1.268 1_556 S
H442 C427 0.930 . S
H443 C428 0.930 . S
H444 C430 0.930 . S
H445 C431 0.930 . S
H446 C436 0.930 . S
H447 C437 0.930 . S
H448 C439 0.930 . S
H449 C440 0.930 . S
Gd450 N481 2.661 . S
Gd450 N487 2.601 . S
Gd450 O494 2.545 . S
Gd450 O495 2.606 . S
Gd450 O497 2.429 . S
Gd450 O498 2.545 . S
Gd450 O499 2.412 . S
Gd450 O501 2.362 . S
Gd450 O502 2.324 . S
Gd450 C509 2.828 . S
Gd451 N460 2.661 . S
Gd451 N464 2.601 . S
Gd451 O495 2.362 . S
Gd451 O496 2.324 . S
Gd451 O500 2.545 . S
Gd451 O501 2.606 . S
Gd451 O503 2.429 . S
Gd451 O504 2.545 . S
Gd451 O505 2.412 . S
Gd451 C518 2.828 . S
C452 C455 1.417 . S
C452 C457 1.431 . S
C452 C458 1.412 . S
C453 C456 1.437 . S
C453 C457 1.317 . S
C453 H472 0.929 . S
C454 C455 1.426 . S
C454 C456 1.413 . S
C454 N464 1.359 . S
C455 C452 1.417 . S
C455 C454 1.426 . S
C455 N460 1.350 . S
C456 C453 1.437 . S
C456 C454 1.413 . S
C456 C466 1.391 . S
C457 C452 1.431 . S
C457 C453 1.317 . S
C457 H468 0.930 1_455 S
C458 C452 1.412 . S
C458 C459 1.355 . S
C458 H470 0.930 1_455 S
C459 C458 1.355 . S
C459 C461 1.402 . S
C459 H471 0.930 . S
N460 Gd451 2.661 . S
N460 C455 1.350 . S
N460 C461 1.307 . S
C461 C459 1.402 . S
C461 N460 1.307 . S
C461 H462 0.930 . S
H462 C461 0.930 . S
C463 N464 1.334 . S
C463 C465 1.394 . S
C463 H467 0.930 . S
N464 Gd451 2.601 . S
N464 C454 1.359 . S
N464 C463 1.334 . S
C465 C463 1.394 . S
C465 C466 1.359 . S
C465 H477 0.930 . S
C466 C456 1.391 . S
C466 C465 1.359 . S
C466 H478 0.929 . S
H467 C463 0.930 . S
H468 C457 0.930 1_655 S
H469 C486 0.930 . S
H470 C458 0.930 1_655 S
H471 C459 0.930 . S
H472 C453 0.929 . S
H473 C491 0.930 . S
H474 C482 0.930 . S
H475 C483 0.930 . S
H476 C507 0.929 . S
H477 C465 0.930 . S
H478 C466 0.929 . S
H479 C508 0.930 . S
H480 C489 0.930 . S
N481 Gd450 2.661 . S
N481 C485 1.350 . S
N481 C486 1.307 . S
C482 H474 0.930 . S
C482 C483 1.355 . S
C482 C484 1.412 . S
C483 H475 0.930 . S
C483 C482 1.355 . S
C483 C486 1.402 . S
C484 C482 1.412 . S
C484 C485 1.417 . S
C484 C508 1.431 . S
C485 N481 1.350 . S
C485 C484 1.417 . S
C485 C488 1.426 . S
C486 H469 0.930 . S
C486 N481 1.307 . S
C486 C483 1.402 . S
N487 Gd450 2.601 . S
N487 C488 1.359 . S
N487 C491 1.334 . S
C488 C485 1.426 . S
C488 N487 1.359 . S
C488 C492 1.413 . S
C489 H480 0.930 . S
C489 C490 1.359 . S
C489 C491 1.394 . S
C490 C489 1.359 . S
C490 C492 1.391 . S
C490 H493 0.929 . S
C491 H473 0.930 . S
C491 N487 1.334 . S
C491 C489 1.394 . S
C492 C488 1.413 . S
C492 C490 1.391 . S
C492 C507 1.437 . S
H493 C490 0.929 . S
O494 Gd450 2.545 . S
O494 C509 1.258 . S
O495 Gd450 2.606 . S
O495 Gd451 2.362 . S
O495 C506 1.284 . S
O496 Gd451 2.324 . S
O496 C516 1.254 . S
O497 Gd450 2.429 . S
O497 C516 1.268 . S
O498 Gd450 2.545 . S
O498 C506 1.250 . S
O499 Gd450 2.412 . S
O499 C509 1.252 . S
O500 Gd451 2.545 . S
O500 C518 1.258 . S
O501 Gd450 2.362 . S
O501 Gd451 2.606 . S
O501 C517 1.284 . S
O502 Gd450 2.324 . S
O502 C525 1.254 . S
O503 Gd451 2.429 . S
O503 C525 1.268 . S
O504 Gd451 2.545 . S
O504 C517 1.250 . S
O505 Gd451 2.412 . S
O505 C518 1.252 . S
C506 O495 1.284 . S
C506 O498 1.250 . S
C507 H476 0.929 . S
C507 C492 1.437 . S
C507 C508 1.317 . S
C508 H479 0.930 . S
C508 C484 1.431 . S
C508 C507 1.317 . S
C509 Gd450 2.828 . S
C509 O494 1.258 . S
C509 O499 1.252 . S
C509 C510 1.497 . S
C510 C509 1.497 . S
C510 C511 1.395 . S
C510 C512 1.380 . S
C511 C510 1.395 . S
C511 C514 1.398 . S
C511 H526 0.930 . S
C512 C510 1.380 . S
C512 C513 1.391 . S
C512 H527 0.930 . S
C513 C512 1.391 . S
C513 C515 1.387 . S
C514 C511 1.398 . S
C514 C515 1.380 . S
C514 H528 0.930 . S
C515 C513 1.387 . S
C515 C514 1.380 . S
C515 H529 0.930 . S
C516 O496 1.254 . S
C516 O497 1.268 . S
C517 O501 1.284 . S
C517 O504 1.250 . S
C518 Gd451 2.828 . S
C518 O500 1.258 . S
C518 O505 1.252 . S
C518 C519 1.497 . S
C519 C518 1.497 . S
C519 C520 1.395 . S
C519 C521 1.380 . S
C520 C519 1.395 . S
C520 C523 1.398 . S
C520 H530 0.930 . S
C521 C519 1.380 . S
C521 C522 1.391 . S
C521 H531 0.930 . S
C522 C521 1.391 . S
C522 C524 1.387 . S
C523 C520 1.398 . S
C523 C524 1.380 . S
C523 H532 0.930 . S
C524 C522 1.387 . S
C524 C523 1.380 . S
C524 H533 0.930 . S
C525 O502 1.254 . S
C525 O503 1.268 . S
H526 C511 0.930 . S
H527 C512 0.930 . S
H528 C514 0.930 . S
H529 C515 0.930 . S
H530 C520 0.930 . S
H531 C521 0.930 . S
H532 C523 0.930 . S
H533 C524 0.930 . S
Gd534 N565 2.661 . S
Gd534 N571 2.601 . S
Gd534 O578 2.545 . S
Gd534 O579 2.606 . S
Gd534 O581 2.429 . S
Gd534 O582 2.545 . S
Gd534 O583 2.412 . S
Gd534 O585 2.362 . S
Gd534 O586 2.324 . S
Gd534 C593 2.828 . S
Gd535 N544 2.661 . S
Gd535 N548 2.601 . S
Gd535 O579 2.362 . S
Gd535 O580 2.324 . S
Gd535 O584 2.545 . S
Gd535 O585 2.606 . S
Gd535 O587 2.429 . S
Gd535 O588 2.545 . S
Gd535 O589 2.412 . S
Gd535 C602 2.828 . S
C536 C539 1.417 . S
C536 C541 1.431 . S
C536 C542 1.412 . S
C537 C540 1.437 . S
C537 C541 1.317 . S
C537 H556 0.929 . S
C538 C539 1.426 . S
C538 C540 1.413 . S
C538 N548 1.359 . S
C539 C536 1.417 . S
C539 C538 1.426 . S
C539 N544 1.350 . S
C540 C537 1.437 . S
C540 C538 1.413 . S
C540 C550 1.391 . S
C541 C536 1.431 . S
C541 C537 1.317 . S
C541 H552 0.930 . S
C542 C536 1.412 . S
C542 C543 1.355 . S
C542 H554 0.930 . S
C543 C542 1.355 . S
C543 C545 1.402 . S
C543 H555 0.930 . S
N544 Gd535 2.661 . S
N544 C539 1.350 . S
N544 C545 1.307 . S
C545 C543 1.402 . S
C545 N544 1.307 . S
C545 H546 0.930 . S
H546 C545 0.930 . S
C547 N548 1.334 . S
C547 C549 1.394 . S
C547 H551 0.930 . S
N548 Gd535 2.601 . S
N548 C538 1.359 . S
N548 C547 1.334 . S
C549 C547 1.394 . S
C549 C550 1.359 . S
C549 H561 0.930 . S
C550 C540 1.391 . S
C550 C549 1.359 . S
C550 H562 0.929 . S
H551 C547 0.930 . S
H552 C541 0.930 . S
H553 C570 0.930 . S
H554 C542 0.930 . S
H555 C543 0.930 . S
H556 C537 0.929 . S
H557 C575 0.930 . S
H558 C566 0.930 . S
H559 C567 0.930 . S
H560 C591 0.929 . S
H561 C549 0.930 . S
H562 C550 0.929 . S
H563 C592 0.930 . S
H564 C573 0.930 . S
N565 Gd534 2.661 . S
N565 C569 1.350 . S
N565 C570 1.307 . S
C566 H558 0.930 . S
C566 C567 1.355 . S
C566 C568 1.412 . S
C567 H559 0.930 . S
C567 C566 1.355 . S
C567 C570 1.402 . S
C568 C566 1.412 . S
C568 C569 1.417 . S
C568 C592 1.431 . S
C569 N565 1.350 . S
C569 C568 1.417 . S
C569 C572 1.426 . S
C570 H553 0.930 . S
C570 N565 1.307 . S
C570 C567 1.402 . S
N571 Gd534 2.601 . S
N571 C572 1.359 . S
N571 C575 1.334 . S
C572 C569 1.426 . S
C572 N571 1.359 . S
C572 C576 1.413 . S
C573 H564 0.930 . S
C573 C574 1.359 . S
C573 C575 1.394 . S
C574 C573 1.359 . S
C574 C576 1.391 . S
C574 H577 0.929 . S
C575 H557 0.930 . S
C575 N571 1.334 . S
C575 C573 1.394 . S
C576 C572 1.413 . S
C576 C574 1.391 . S
C576 C591 1.437 . S
H577 C574 0.929 . S
O578 Gd534 2.545 . S
O578 C593 1.258 . S
O579 Gd534 2.606 . S
O579 Gd535 2.362 . S
O579 C590 1.284 . S
O580 Gd535 2.324 . S
O580 C600 1.254 . S
O581 Gd534 2.429 . S
O581 C600 1.268 . S
O582 Gd534 2.545 . S
O582 C590 1.250 . S
O583 Gd534 2.412 . S
O583 C593 1.252 . S
O584 Gd535 2.545 . S
O584 C602 1.258 . S
O585 Gd534 2.362 . S
O585 Gd535 2.606 . S
O585 C601 1.284 . S
O586 Gd534 2.324 . S
O586 C609 1.254 . S
O587 Gd535 2.429 . S
O587 C609 1.268 . S
O588 Gd535 2.545 . S
O588 C601 1.250 . S
O589 Gd535 2.412 . S
O589 C602 1.252 . S
C590 O579 1.284 . S
C590 O582 1.250 . S
C591 H560 0.929 . S
C591 C576 1.437 . S
C591 C592 1.317 . S
C592 H563 0.930 . S
C592 C568 1.431 . S
C592 C591 1.317 . S
C593 Gd534 2.828 . S
C593 O578 1.258 . S
C593 O583 1.252 . S
C593 C594 1.497 . S
C594 C593 1.497 . S
C594 C595 1.395 . S
C594 C596 1.380 . S
C595 C594 1.395 . S
C595 C598 1.398 . S
C595 H610 0.930 . S
C596 C594 1.380 . S
C596 C597 1.391 . S
C596 H611 0.930 . S
C597 C596 1.391 . S
C597 C599 1.387 . S
C598 C595 1.398 . S
C598 C599 1.380 . S
C598 H612 0.930 . S
C599 C597 1.387 . S
C599 C598 1.380 . S
C599 H613 0.930 . S
C600 O580 1.254 . S
C600 O581 1.268 . S
C601 O585 1.284 . S
C601 O588 1.250 . S
C602 Gd535 2.828 . S
C602 O584 1.258 . S
C602 O589 1.252 . S
C602 C603 1.497 . S
C603 C602 1.497 . S
C603 C604 1.395 . S
C603 C605 1.380 . S
C604 C603 1.395 . S
C604 C607 1.398 . S
C604 H614 0.930 . S
C605 C603 1.380 . S
C605 C606 1.391 . S
C605 H615 0.930 . S
C606 C605 1.391 . S
C606 C608 1.387 . S
C607 C604 1.398 . S
C607 C608 1.380 . S
C607 H616 0.930 . S
C608 C606 1.387 . S
C608 C607 1.380 . S
C608 H617 0.930 . S
C609 O586 1.254 . S
C609 O587 1.268 . S
H610 C595 0.930 . S
H611 C596 0.930 . S
H612 C598 0.930 . S
H613 C599 0.930 . S
H614 C604 0.930 . S
H615 C605 0.930 . S
H616 C607 0.930 . S
H617 C608 0.930 . S
Gd618 N649 2.661 . S
Gd618 N655 2.601 . S
Gd618 O662 2.545 . S
Gd618 O663 2.606 . S
Gd618 O665 2.429 . S
Gd618 O666 2.545 . S
Gd618 O667 2.412 . S
Gd618 O669 2.362 . S
Gd618 O670 2.324 . S
Gd618 C677 2.828 . S
Gd619 N628 2.661 . S
Gd619 N632 2.601 . S
Gd619 O663 2.362 . S
Gd619 O664 2.324 . S
Gd619 O668 2.545 . S
Gd619 O669 2.606 . S
Gd619 O671 2.429 . S
Gd619 O672 2.545 . S
Gd619 O673 2.412 . S
Gd619 C686 2.828 . S
C620 C623 1.417 . S
C620 C625 1.431 . S
C620 C626 1.412 . S
C621 C624 1.437 . S
C621 C625 1.317 . S
C621 H640 0.929 . S
C622 C623 1.426 . S
C622 C624 1.413 . S
C622 N632 1.359 . S
C623 C620 1.417 . S
C623 C622 1.426 . S
C623 N628 1.350 . S
C624 C621 1.437 . S
C624 C622 1.413 . S
C624 C634 1.391 . S
C625 C620 1.431 . S
C625 C621 1.317 . S
C625 H636 0.930 . S
C626 C620 1.412 . S
C626 C627 1.355 . S
C626 H638 0.930 . S
C627 C626 1.355 . S
C627 C629 1.402 . S
C627 H639 0.930 . S
N628 Gd619 2.661 . S
N628 C623 1.350 . S
N628 C629 1.307 . S
C629 C627 1.402 . S
C629 N628 1.307 . S
C629 H630 0.930 . S
H630 C629 0.930 . S
C631 N632 1.334 . S
C631 C633 1.394 . S
C631 H635 0.930 . S
N632 Gd619 2.601 . S
N632 C622 1.359 . S
N632 C631 1.334 . S
C633 C631 1.394 . S
C633 C634 1.359 . S
C633 H645 0.930 . S
C634 C624 1.391 . S
C634 C633 1.359 . S
C634 H646 0.929 . S
H635 C631 0.930 . S
H636 C625 0.930 . S
H637 C654 0.930 . S
H638 C626 0.930 . S
H639 C627 0.930 . S
H640 C621 0.929 . S
H641 C659 0.930 . S
H642 C650 0.930 . S
H643 C651 0.930 . S
H644 C675 0.929 . S
H645 C633 0.930 . S
H646 C634 0.929 . S
H647 C676 0.930 . S
H648 C657 0.930 . S
N649 Gd618 2.661 . S
N649 C653 1.350 . S
N649 C654 1.307 . S
C650 H642 0.930 . S
C650 C651 1.355 . S
C650 C652 1.412 . S
C651 H643 0.930 . S
C651 C650 1.355 . S
C651 C654 1.402 . S
C652 C650 1.412 . S
C652 C653 1.417 . S
C652 C676 1.431 . S
C653 N649 1.350 . S
C653 C652 1.417 . S
C653 C656 1.426 . S
C654 H637 0.930 . S
C654 N649 1.307 . S
C654 C651 1.402 . S
N655 Gd618 2.601 . S
N655 C656 1.359 . S
N655 C659 1.334 . S
C656 C653 1.426 . S
C656 N655 1.359 . S
C656 C660 1.413 . S
C657 H648 0.930 . S
C657 C658 1.359 . S
C657 C659 1.394 . S
C658 C657 1.359 . S
C658 C660 1.391 . S
C658 H661 0.929 . S
C659 H641 0.930 . S
C659 N655 1.334 . S
C659 C657 1.394 . S
C660 C656 1.413 . S
C660 C658 1.391 . S
C660 C675 1.437 . S
H661 C658 0.929 . S
O662 Gd618 2.545 . S
O662 C677 1.258 . S
O663 Gd618 2.606 . S
O663 Gd619 2.362 . S
O663 C674 1.284 . S
O664 Gd619 2.324 . S
O664 C684 1.254 . S
O665 Gd618 2.429 . S
O665 C684 1.268 . S
O666 Gd618 2.545 . S
O666 C674 1.250 . S
O667 Gd618 2.412 . S
O667 C677 1.252 . S
O668 Gd619 2.545 . S
O668 C686 1.258 . S
O669 Gd618 2.362 . S
O669 Gd619 2.606 . S
O669 C685 1.284 . S
O670 Gd618 2.324 . S
O670 C693 1.254 . S
O671 Gd619 2.429 . S
O671 C693 1.268 . S
O672 Gd619 2.545 . S
O672 C685 1.250 . S
O673 Gd619 2.412 . S
O673 C686 1.252 . S
C674 O663 1.284 . S
C674 O666 1.250 . S
C675 H644 0.929 . S
C675 C660 1.437 . S
C675 C676 1.317 . S
C676 H647 0.930 . S
C676 C652 1.431 . S
C676 C675 1.317 . S
C677 Gd618 2.828 . S
C677 O662 1.258 . S
C677 O667 1.252 . S
C677 C678 1.497 . S
C678 C677 1.497 . S
C678 C679 1.395 . S
C678 C680 1.380 . S
C679 C678 1.395 . S
C679 C682 1.398 . S
C679 H694 0.930 . S
C680 C678 1.380 . S
C680 C681 1.391 . S
C680 H695 0.930 . S
C681 C680 1.391 . S
C681 C683 1.387 . S
C682 C679 1.398 . S
C682 C683 1.380 . S
C682 H696 0.930 . S
C683 C681 1.387 . S
C683 C682 1.380 . S
C683 H697 0.930 . S
C684 O664 1.254 . S
C684 O665 1.268 . S
C685 O669 1.284 . S
C685 O672 1.250 . S
C686 Gd619 2.828 . S
C686 O668 1.258 . S
C686 O673 1.252 . S
C686 C687 1.497 . S
C687 C686 1.497 . S
C687 C688 1.395 . S
C687 C689 1.380 . S
C688 C687 1.395 . S
C688 C691 1.398 . S
C688 H698 0.930 . S
C689 C687 1.380 . S
C689 C690 1.391 . S
C689 H699 0.930 . S
C690 C689 1.391 . S
C690 C692 1.387 . S
C691 C688 1.398 . S
C691 C692 1.380 . S
C691 H700 0.930 . S
C692 C690 1.387 . S
C692 C691 1.380 . S
C692 H701 0.930 . S
C693 O670 1.254 . S
C693 O671 1.268 . S
H694 C679 0.930 . S
H695 C680 0.930 . S
H696 C682 0.930 . S
H697 C683 0.930 . S
H698 C688 0.930 . S
H699 C689 0.930 . S
H700 C691 0.930 . S
H701 C692 0.930 . S
Gd702 N733 2.661 . S
Gd702 N739 2.601 . S
Gd702 O746 2.545 . S
Gd702 O747 2.606 . S
Gd702 O749 2.429 . S
Gd702 O750 2.545 . S
Gd702 O751 2.412 . S
Gd702 O753 2.362 . S
Gd702 O754 2.324 . S
Gd702 C761 2.828 . S
Gd703 N712 2.661 . S
Gd703 N716 2.601 . S
Gd703 O747 2.362 . S
Gd703 O748 2.324 . S
Gd703 O752 2.545 . S
Gd703 O753 2.606 . S
Gd703 O755 2.429 . S
Gd703 O756 2.545 . S
Gd703 O757 2.412 . S
Gd703 C770 2.828 . S
C704 C707 1.417 . S
C704 C709 1.431 . S
C704 C710 1.412 . S
C705 C708 1.437 . S
C705 C709 1.317 . S
C705 H724 0.929 . S
C706 C707 1.426 . S
C706 C708 1.413 . S
C706 N716 1.359 . S
C707 C704 1.417 . S
C707 C706 1.426 . S
C707 N712 1.350 . S
C708 C705 1.437 . S
C708 C706 1.413 . S
C708 C718 1.391 . S
C709 C704 1.431 . S
C709 C705 1.317 . S
C709 H720 0.930 . S
C710 C704 1.412 . S
C710 C711 1.355 . S
C710 H722 0.930 . S
C711 C710 1.355 . S
C711 C713 1.402 . S
C711 H723 0.930 . S
N712 Gd703 2.661 . S
N712 C707 1.350 . S
N712 C713 1.307 . S
C713 C711 1.402 . S
C713 N712 1.307 . S
C713 H714 0.930 . S
H714 C713 0.930 . S
C715 N716 1.334 . S
C715 C717 1.394 . S
C715 H719 0.930 . S
N716 Gd703 2.601 . S
N716 C706 1.359 . S
N716 C715 1.334 . S
C717 C715 1.394 . S
C717 C718 1.359 . S
C717 H729 0.930 . S
C718 C708 1.391 . S
C718 C717 1.359 . S
C718 H730 0.929 . S
H719 C715 0.930 . S
H720 C709 0.930 . S
H721 C738 0.930 . S
H722 C710 0.930 . S
H723 C711 0.930 . S
H724 C705 0.929 . S
H725 C743 0.930 . S
H726 C734 0.930 . S
H727 C735 0.930 . S
H728 C759 0.929 . S
H729 C717 0.930 . S
H730 C718 0.929 . S
H731 C760 0.930 . S
H732 C741 0.930 . S
N733 Gd702 2.661 . S
N733 C737 1.350 . S
N733 C738 1.307 . S
C734 H726 0.930 . S
C734 C735 1.355 . S
C734 C736 1.412 . S
C735 H727 0.930 . S
C735 C734 1.355 . S
C735 C738 1.402 . S
C736 C734 1.412 . S
C736 C737 1.417 . S
C736 C760 1.431 . S
C737 N733 1.350 . S
C737 C736 1.417 . S
C737 C740 1.426 . S
C738 H721 0.930 . S
C738 N733 1.307 . S
C738 C735 1.402 . S
N739 Gd702 2.601 . S
N739 C740 1.359 . S
N739 C743 1.334 . S
C740 C737 1.426 . S
C740 N739 1.359 . S
C740 C744 1.413 . S
C741 H732 0.930 . S
C741 C742 1.359 . S
C741 C743 1.394 . S
C742 C741 1.359 . S
C742 C744 1.391 . S
C742 H745 0.929 . S
C743 H725 0.930 . S
C743 N739 1.334 . S
C743 C741 1.394 . S
C744 C740 1.413 . S
C744 C742 1.391 . S
C744 C759 1.437 . S
H745 C742 0.929 . S
O746 Gd702 2.545 . S
O746 C761 1.258 . S
O747 Gd702 2.606 . S
O747 Gd703 2.362 . S
O747 C758 1.284 . S
O748 Gd703 2.324 . S
O748 C768 1.254 . S
O749 Gd702 2.429 . S
O749 C768 1.268 . S
O750 Gd702 2.545 . S
O750 C758 1.250 . S
O751 Gd702 2.412 . S
O751 C761 1.252 . S
O752 Gd703 2.545 . S
O752 C770 1.258 . S
O753 Gd702 2.362 . S
O753 Gd703 2.606 . S
O753 C769 1.284 . S
O754 Gd702 2.324 . S
O754 C777 1.254 . S
O755 Gd703 2.429 . S
O755 C777 1.268 . S
O756 Gd703 2.545 . S
O756 C769 1.250 . S
O757 Gd703 2.412 . S
O757 C770 1.252 . S
C758 O747 1.284 . S
C758 O750 1.250 . S
C759 H728 0.929 . S
C759 C744 1.437 . S
C759 C760 1.317 . S
C760 H731 0.930 . S
C760 C736 1.431 . S
C760 C759 1.317 . S
C761 Gd702 2.828 . S
C761 O746 1.258 . S
C761 O751 1.252 . S
C761 C762 1.497 . S
C762 C761 1.497 . S
C762 C763 1.395 . S
C762 C764 1.380 . S
C763 C762 1.395 . S
C763 C766 1.398 . S
C763 H778 0.930 . S
C764 C762 1.380 . S
C764 C765 1.391 . S
C764 H779 0.930 . S
C765 C764 1.391 . S
C765 C767 1.387 . S
C766 C763 1.398 . S
C766 C767 1.380 . S
C766 H780 0.930 . S
C767 C765 1.387 . S
C767 C766 1.380 . S
C767 H781 0.930 . S
C768 O748 1.254 . S
C768 O749 1.268 . S
C769 O753 1.284 . S
C769 O756 1.250 . S
C770 Gd703 2.828 . S
C770 O752 1.258 . S
C770 O757 1.252 . S
C770 C771 1.497 . S
C771 C770 1.497 . S
C771 C772 1.395 . S
C771 C773 1.380 . S
C772 C771 1.395 . S
C772 C775 1.398 . S
C772 H782 0.930 . S
C773 C771 1.380 . S
C773 C774 1.391 . S
C773 H783 0.930 . S
C774 C773 1.391 . S
C774 C776 1.387 . S
C775 C772 1.398 . S
C775 C776 1.380 . S
C775 H784 0.930 . S
C776 C774 1.387 . S
C776 C775 1.380 . S
C776 H785 0.930 . S
C777 O754 1.254 . S
C777 O755 1.268 . S
H778 C763 0.930 . S
H779 C764 0.930 . S
H780 C766 0.930 . S
H781 C767 0.930 . S
H782 C772 0.930 . S
H783 C773 0.930 . S
H784 C775 0.930 . S
H785 C776 0.930 . S
Gd786 N817 2.661 . S
Gd786 N823 2.601 . S
Gd786 O830 2.545 . S
Gd786 O831 2.606 . S
Gd786 O833 2.429 . S
Gd786 O834 2.545 . S
Gd786 O835 2.412 . S
Gd786 O837 2.362 . S
Gd786 O838 2.324 . S
Gd786 C845 2.828 . S
Gd787 N796 2.661 . S
Gd787 N800 2.601 . S
Gd787 O831 2.362 . S
Gd787 O832 2.324 . S
Gd787 O836 2.545 . S
Gd787 O837 2.606 . S
Gd787 O839 2.429 . S
Gd787 O840 2.545 . S
Gd787 O841 2.412 . S
Gd787 C854 2.828 . S
C788 C791 1.417 . S
C788 C793 1.431 . S
C788 C794 1.412 . S
C789 C792 1.437 . S
C789 C793 1.317 . S
C789 H808 0.929 . S
C790 C791 1.426 . S
C790 C792 1.413 . S
C790 N800 1.359 . S
C791 C788 1.417 . S
C791 C790 1.426 . S
C791 N796 1.350 . S
C792 C789 1.437 . S
C792 C790 1.413 . S
C792 C802 1.391 . S
C793 C788 1.431 . S
C793 C789 1.317 . S
C793 H804 0.930 . S
C794 C788 1.412 . S
C794 C795 1.355 . S
C794 H806 0.930 . S
C795 C794 1.355 . S
C795 C797 1.402 . S
C795 H807 0.930 . S
N796 Gd787 2.661 . S
N796 C791 1.350 . S
N796 C797 1.307 . S
C797 C795 1.402 . S
C797 N796 1.307 . S
C797 H798 0.930 . S
H798 C797 0.930 . S
C799 N800 1.334 . S
C799 C801 1.394 . S
C799 H803 0.930 . S
N800 Gd787 2.601 . S
N800 C790 1.359 . S
N800 C799 1.334 . S
C801 C799 1.394 . S
C801 C802 1.359 . S
C801 H813 0.930 . S
C802 C792 1.391 . S
C802 C801 1.359 . S
C802 H814 0.929 . S
H803 C799 0.930 . S
H804 C793 0.930 . S
H805 C822 0.930 . S
H806 C794 0.930 . S
H807 C795 0.930 . S
H808 C789 0.929 . S
H809 C827 0.930 . S
H810 C818 0.930 . S
H811 C819 0.930 . S
H812 C843 0.929 . S
H813 C801 0.930 . S
H814 C802 0.929 . S
H815 C844 0.930 . S
H816 C825 0.930 . S
N817 Gd786 2.661 . S
N817 C821 1.350 . S
N817 C822 1.307 . S
C818 H810 0.930 . S
C818 C819 1.355 . S
C818 C820 1.412 . S
C819 H811 0.930 . S
C819 C818 1.355 . S
C819 C822 1.402 . S
C820 C818 1.412 . S
C820 C821 1.417 . S
C820 C844 1.431 . S
C821 N817 1.350 . S
C821 C820 1.417 . S
C821 C824 1.426 . S
C822 H805 0.930 . S
C822 N817 1.307 . S
C822 C819 1.402 . S
N823 Gd786 2.601 . S
N823 C824 1.359 . S
N823 C827 1.334 . S
C824 C821 1.426 . S
C824 N823 1.359 . S
C824 C828 1.413 . S
C825 H816 0.930 . S
C825 C826 1.359 . S
C825 C827 1.394 . S
C826 C825 1.359 . S
C826 C828 1.391 . S
C826 H829 0.929 . S
C827 H809 0.930 . S
C827 N823 1.334 . S
C827 C825 1.394 . S
C828 C824 1.413 . S
C828 C826 1.391 . S
C828 C843 1.437 . S
H829 C826 0.929 . S
O830 Gd786 2.545 . S
O830 C845 1.258 . S
O831 Gd786 2.606 . S
O831 Gd787 2.362 . S
O831 C842 1.284 . S
O832 Gd787 2.324 . S
O832 C852 1.254 . S
O833 Gd786 2.429 . S
O833 C852 1.268 . S
O834 Gd786 2.545 . S
O834 C842 1.250 . S
O835 Gd786 2.412 . S
O835 C845 1.252 . S
O836 Gd787 2.545 . S
O836 C854 1.258 . S
O837 Gd786 2.362 . S
O837 Gd787 2.606 . S
O837 C853 1.284 . S
O838 Gd786 2.324 . S
O838 C861 1.254 . S
O839 Gd787 2.429 . S
O839 C861 1.268 . S
O840 Gd787 2.545 . S
O840 C853 1.250 . S
O841 Gd787 2.412 . S
O841 C854 1.252 . S
C842 O831 1.284 . S
C842 O834 1.250 . S
C843 H812 0.929 . S
C843 C828 1.437 . S
C843 C844 1.317 . S
C844 H815 0.930 . S
C844 C820 1.431 . S
C844 C843 1.317 . S
C845 Gd786 2.828 . S
C845 O830 1.258 . S
C845 O835 1.252 . S
C845 C846 1.497 . S
C846 C845 1.497 . S
C846 C847 1.395 . S
C846 C848 1.380 . S
C847 C846 1.395 . S
C847 C850 1.398 . S
C847 H862 0.930 . S
C848 C846 1.380 . S
C848 C849 1.391 . S
C848 H863 0.930 . S
C849 C848 1.391 . S
C849 C851 1.387 . S
C850 C847 1.398 . S
C850 C851 1.380 . S
C850 H864 0.930 . S
C851 C849 1.387 . S
C851 C850 1.380 . S
C851 H865 0.930 . S
C852 O832 1.254 . S
C852 O833 1.268 . S
C853 O837 1.284 . S
C853 O840 1.250 . S
C854 Gd787 2.828 . S
C854 O836 1.258 . S
C854 O841 1.252 . S
C854 C855 1.497 . S
C855 C854 1.497 . S
C855 C856 1.395 . S
C855 C857 1.380 . S
C856 C855 1.395 . S
C856 C859 1.398 . S
C856 H866 0.930 . S
C857 C855 1.380 . S
C857 C858 1.391 . S
C857 H867 0.930 . S
C858 C857 1.391 . S
C858 C860 1.387 . S
C859 C856 1.398 . S
C859 C860 1.380 . S
C859 H868 0.930 . S
C860 C858 1.387 . S
C860 C859 1.380 . S
C860 H869 0.930 . S
C861 O838 1.254 . S
C861 O839 1.268 . S
H862 C847 0.930 . S
H863 C848 0.930 . S
H864 C850 0.930 . S
H865 C851 0.930 . S
H866 C856 0.930 . S
H867 C857 0.930 . S
H868 C859 0.930 . S
H869 C860 0.930 . S
Gd870 N901 2.661 . S
Gd870 N907 2.601 . S
Gd870 O914 2.545 . S
Gd870 O915 2.606 . S
Gd870 O917 2.429 . S
Gd870 O918 2.545 . S
Gd870 O919 2.412 . S
Gd870 O921 2.362 . S
Gd870 O922 2.324 . S
Gd870 C929 2.828 . S
Gd871 N880 2.661 . S
Gd871 N884 2.601 . S
Gd871 O915 2.362 . S
Gd871 O916 2.324 . S
Gd871 O920 2.545 . S
Gd871 O921 2.606 . S
Gd871 O923 2.429 . S
Gd871 O924 2.545 . S
Gd871 O925 2.412 . S
Gd871 C938 2.828 . S
C872 C875 1.417 . S
C872 C877 1.431 . S
C872 C878 1.412 . S
C873 C876 1.437 . S
C873 C877 1.317 . S
C873 H892 0.929 . S
C874 C875 1.426 . S
C874 C876 1.413 . S
C874 N884 1.359 . S
C875 C872 1.417 . S
C875 C874 1.426 . S
C875 N880 1.350 . S
C876 C873 1.437 . S
C876 C874 1.413 . S
C876 C886 1.391 . S
C877 C872 1.431 . S
C877 C873 1.317 . S
C877 H888 0.930 1_655 S
C878 C872 1.412 . S
C878 C879 1.355 . S
C878 H890 0.930 1_655 S
C879 C878 1.355 . S
C879 C881 1.402 . S
C879 H891 0.930 . S
N880 Gd871 2.661 . S
N880 C875 1.350 . S
N880 C881 1.307 . S
C881 C879 1.402 . S
C881 N880 1.307 . S
C881 H882 0.930 . S
H882 C881 0.930 . S
C883 N884 1.334 . S
C883 C885 1.394 . S
C883 H887 0.930 . S
N884 Gd871 2.601 . S
N884 C874 1.359 . S
N884 C883 1.334 . S
C885 C883 1.394 . S
C885 C886 1.359 . S
C885 H897 0.930 . S
C886 C876 1.391 . S
C886 C885 1.359 . S
C886 H898 0.929 . S
H887 C883 0.930 . S
H888 C877 0.930 1_455 S
H889 C906 0.930 . S
H890 C878 0.930 1_455 S
H891 C879 0.930 . S
H892 C873 0.929 . S
H893 C911 0.930 . S
H894 C902 0.930 . S
H895 C903 0.930 . S
H896 C927 0.929 . S
H897 C885 0.930 . S
H898 C886 0.929 . S
H899 C928 0.930 . S
H900 C909 0.930 . S
N901 Gd870 2.661 . S
N901 C905 1.350 . S
N901 C906 1.307 . S
C902 H894 0.930 . S
C902 C903 1.355 . S
C902 C904 1.412 . S
C903 H895 0.930 . S
C903 C902 1.355 . S
C903 C906 1.402 . S
C904 C902 1.412 . S
C904 C905 1.417 . S
C904 C928 1.431 . S
C905 N901 1.350 . S
C905 C904 1.417 . S
C905 C908 1.426 . S
C906 H889 0.930 . S
C906 N901 1.307 . S
C906 C903 1.402 . S
N907 Gd870 2.601 . S
N907 C908 1.359 . S
N907 C911 1.334 . S
C908 C905 1.426 . S
C908 N907 1.359 . S
C908 C912 1.413 . S
C909 H900 0.930 . S
C909 C910 1.359 . S
C909 C911 1.394 . S
C910 C909 1.359 . S
C910 C912 1.391 . S
C910 H913 0.929 . S
C911 H893 0.930 . S
C911 N907 1.334 . S
C911 C909 1.394 . S
C912 C908 1.413 . S
C912 C910 1.391 . S
C912 C927 1.437 . S
H913 C910 0.929 . S
O914 Gd870 2.545 . S
O914 C929 1.258 . S
O915 Gd870 2.606 . S
O915 Gd871 2.362 . S
O915 C926 1.284 . S
O916 Gd871 2.324 . S
O916 C936 1.254 . S
O917 Gd870 2.429 . S
O917 C936 1.268 . S
O918 Gd870 2.545 . S
O918 C926 1.250 . S
O919 Gd870 2.412 . S
O919 C929 1.252 . S
O920 Gd871 2.545 . S
O920 C938 1.258 . S
O921 Gd870 2.362 . S
O921 Gd871 2.606 . S
O921 C937 1.284 . S
O922 Gd870 2.324 . S
O922 C945 1.254 . S
O923 Gd871 2.429 . S
O923 C945 1.268 . S
O924 Gd871 2.545 . S
O924 C937 1.250 . S
O925 Gd871 2.412 . S
O925 C938 1.252 . S
C926 O915 1.284 . S
C926 O918 1.250 . S
C927 H896 0.929 . S
C927 C912 1.437 . S
C927 C928 1.317 . S
C928 H899 0.930 . S
C928 C904 1.431 . S
C928 C927 1.317 . S
C929 Gd870 2.828 . S
C929 O914 1.258 . S
C929 O919 1.252 . S
C929 C930 1.497 . S
C930 C929 1.497 . S
C930 C931 1.395 . S
C930 C932 1.380 . S
C931 C930 1.395 . S
C931 C934 1.398 . S
C931 H946 0.930 . S
C932 C930 1.380 . S
C932 C933 1.391 . S
C932 H947 0.930 . S
C933 C932 1.391 . S
C933 C935 1.387 . S
C934 C931 1.398 . S
C934 C935 1.380 . S
C934 H948 0.930 . S
C935 C933 1.387 . S
C935 C934 1.380 . S
C935 H949 0.930 . S
C936 O916 1.254 . S
C936 O917 1.268 . S
C937 O921 1.284 . S
C937 O924 1.250 . S
C938 Gd871 2.828 . S
C938 O920 1.258 . S
C938 O925 1.252 . S
C938 C939 1.497 . S
C939 C938 1.497 . S
C939 C940 1.395 . S
C939 C941 1.380 . S
C940 C939 1.395 . S
C940 C943 1.398 . S
C940 H950 0.930 . S
C941 C939 1.380 . S
C941 C942 1.391 . S
C941 H951 0.930 . S
C942 C941 1.391 . S
C942 C944 1.387 . S
C943 C940 1.398 . S
C943 C944 1.380 . S
C943 H952 0.930 . S
C944 C942 1.387 . S
C944 C943 1.380 . S
C944 H953 0.930 . S
C945 O922 1.254 . S
C945 O923 1.268 . S
H946 C931 0.930 . S
H947 C932 0.930 . S
H948 C934 0.930 . S
H949 C935 0.930 . S
H950 C940 0.930 . S
H951 C941 0.930 . S
H952 C943 0.930 . S
H953 C944 0.930 . S
C954 C955 1.363 . S
C954 C960 1.379 . S
C954 N962 1.356 . S
C955 C954 1.363 . S
C955 C961 1.363 . S
C956 C957 1.363 . S
C956 C961 1.379 . S
C956 N963 1.356 . S
C957 C956 1.363 . S
C957 C960 1.363 . S
N958 C960 1.356 1_556 S
N958 H970 0.984 . S
N958 H971 0.985 . S
N959 C961 1.356 . S
N959 H964 0.984 . S
N959 H965 0.985 . S
C960 C954 1.379 . S
C960 C957 1.363 . S
C960 N958 1.356 1_554 S
C961 C955 1.363 . S
C961 C956 1.379 . S
C961 N959 1.356 . S
N962 C954 1.356 . S
N962 H968 0.984 1_554 S
N962 H969 0.984 . S
N963 C956 1.356 . S
N963 H966 0.984 . S
N963 H967 0.985 . S
H964 N959 0.984 . S
H965 N959 0.985 . S
H966 N963 0.984 . S
H967 N963 0.985 . S
H968 N962 0.984 1_556 S
H969 N962 0.984 . S
H970 N958 0.984 . S
H971 N958 0.985 . S
C972 C973 1.363 . S
C972 C978 1.379 . S
C972 N980 1.356 . S
C973 C972 1.363 . S
C973 C979 1.363 . S
C974 C975 1.363 . S
C974 C979 1.379 . S
C974 N981 1.356 . S
C975 C974 1.363 . S
C975 C978 1.363 . S
N976 C978 1.356 . S
N976 H988 0.984 . S
N976 H989 0.985 . S
N977 C979 1.356 . S
N977 H982 0.984 . S
N977 H983 0.985 . S
C978 C972 1.379 . S
C978 C975 1.363 . S
C978 N976 1.356 . S
C979 C973 1.363 . S
C979 C974 1.379 . S
C979 N977 1.356 . S
N980 C972 1.356 . S
N980 H986 0.984 . S
N980 H987 0.984 . S
N981 C974 1.356 . S
N981 H984 0.984 . S
N981 H985 0.985 . S
H982 N977 0.984 . S
H983 N977 0.985 . S
H984 N981 0.984 . S
H985 N981 0.985 . S
H986 N980 0.984 . S
H987 N980 0.984 . S
H988 N976 0.984 . S
H989 N976 0.985 . S
C990 C991 1.363 . S
C990 C996 1.379 . S
C990 N998 1.356 . S
C991 C990 1.363 . S
C991 C997 1.363 . S
C992 C993 1.363 . S
C992 C997 1.379 . S
C992 N999 1.356 1_554 S
C993 C992 1.363 . S
C993 C996 1.363 . S
N994 C996 1.356 . S
N994 H1006 0.984 . S
N994 H1007 0.985 . S
N995 C997 1.356 . S
N995 H1000 0.984 . S
N995 H1001 0.985 1_554 S
C996 C990 1.379 . S
C996 C993 1.363 . S
C996 N994 1.356 . S
C997 C991 1.363 . S
C997 C992 1.379 . S
C997 N995 1.356 . S
N998 C990 1.356 . S
N998 H1004 0.984 . S
N998 H1005 0.984 . S
N999 C992 1.356 1_556 S
N999 H1002 0.984 . S
N999 H1003 0.985 . S
H1000 N995 0.984 . S
H1001 N995 0.985 1_556 S
H1002 N999 0.984 . S
H1003 N999 0.985 . S
H1004 N998 0.984 . S
H1005 N998 0.984 . S
H1006 N994 0.984 . S
H1007 N994 0.985 . S
C1008 C1009 1.363 . S
C1008 C1014 1.379 . S
C1008 N1016 1.356 . S
C1009 C1008 1.363 . S
C1009 C1015 1.363 . S
C1010 C1011 1.363 1_554 S
C1010 C1015 1.379 1_554 S
C1010 N1017 1.356 . S
C1011 C1010 1.363 1_556 S
C1011 C1014 1.363 . S
N1012 C1014 1.356 . S
N1012 H1024 0.984 . S
N1012 H1025 0.985 . S
N1013 C1015 1.356 1_554 S
N1013 H1018 0.984 1_554 S
N1013 H1019 0.985 . S
C1014 C1008 1.379 . S
C1014 C1011 1.363 . S
C1014 N1012 1.356 . S
C1015 C1009 1.363 . S
C1015 C1010 1.379 1_556 S
C1015 N1013 1.356 1_556 S
N1016 C1008 1.356 . S
N1016 H1022 0.984 . S
N1016 H1023 0.984 . S
N1017 C1010 1.356 . S
N1017 H1020 0.984 . S
N1017 H1021 0.985 . S
H1018 N1013 0.984 1_556 S
H1019 N1013 0.985 . S
H1020 N1017 0.984 . S
H1021 N1017 0.985 . S
H1022 N1016 0.984 . S
H1023 N1016 0.984 . S
H1024 N1012 0.984 . S
H1025 N1012 0.985 . S
C1026 C1027 1.363 . S
C1026 C1032 1.390 . S
C1026 N1034 1.356 1_556 S
C1027 C1026 1.363 . S
C1027 C1033 1.363 . S
C1028 C1029 1.363 . S
C1028 C1033 1.379 . S
C1028 N1035 1.356 . S
C1029 C1028 1.363 . S
C1029 C1032 1.385 . S
N1030 C1032 1.327 1_554 S
N1030 H1042 0.984 . S
N1030 H1043 0.985 . S
N1031 C1033 1.356 . S
N1031 H1036 0.984 . S
N1031 H1037 0.985 . S
C1032 C1026 1.390 . S
C1032 C1029 1.385 . S
C1032 N1030 1.327 1_556 S
C1033 C1027 1.363 . S
C1033 C1028 1.379 . S
C1033 N1031 1.356 . S
N1034 C1026 1.356 1_554 S
N1034 H1040 0.984 . S
N1034 H1041 0.984 1_554 S
N1035 C1028 1.356 . S
N1035 H1038 0.984 . S
N1035 H1039 0.985 . S
H1036 N1031 0.984 . S
H1037 N1031 0.985 . S
H1038 N1035 0.984 . S
H1039 N1035 0.985 . S
H1040 N1034 0.984 . S
H1041 N1034 0.984 1_556 S
H1042 N1030 0.984 . S
H1043 N1030 0.985 . S
C1044 C1045 1.363 . S
C1044 C1050 1.379 . S
C1044 N1052 1.356 . S
C1045 C1044 1.363 . S
C1045 C1051 1.363 . S
C1046 C1047 1.363 . S
C1046 C1051 1.379 . S
C1046 N1053 1.371 . S
C1047 C1046 1.363 . S
C1047 C1050 1.363 . S
N1048 C1050 1.356 . S
N1048 H1060 0.984 . S
N1048 H1061 0.985 . S
N1049 C1051 1.356 . S
N1049 H1054 0.984 . S
N1049 H1055 0.985 . S
C1050 C1044 1.379 . S
C1050 C1047 1.363 . S
C1050 N1048 1.356 . S
C1051 C1045 1.363 . S
C1051 C1046 1.379 . S
C1051 N1049 1.356 . S
N1052 C1044 1.356 . S
N1052 H1058 0.984 . S
N1052 H1059 0.984 . S
N1053 C1046 1.371 . S
N1053 H1056 0.978 1_556 S
N1053 H1057 0.978 1_556 S
H1054 N1049 0.984 . S
H1055 N1049 0.985 . S
H1056 N1053 0.978 1_554 S
H1057 N1053 0.978 1_554 S
H1058 N1052 0.984 . S
H1059 N1052 0.984 . S
H1060 N1048 0.984 . S
H1061 N1048 0.985 . S
C1062 C1063 1.363 . S
C1062 C1068 1.379 . S
C1062 N1070 1.356 . S
C1063 C1062 1.363 . S
C1063 C1069 1.363 . S
C1064 C1065 1.363 1_554 S
C1064 C1069 1.379 1_554 S
C1064 N1071 1.356 . S
C1065 C1064 1.363 1_556 S
C1065 C1068 1.363 . S
N1066 C1068 1.356 . S
N1066 H1078 0.984 . S
N1066 H1079 0.985 . S
N1067 C1069 1.356 1_554 S
N1067 H1072 0.984 1_554 S
N1067 H1073 0.985 . S
C1068 C1062 1.379 . S
C1068 C1065 1.363 . S
C1068 N1066 1.356 . S
C1069 C1063 1.363 . S
C1069 C1064 1.379 1_556 S
C1069 N1067 1.356 1_556 S
N1070 C1062 1.356 . S
N1070 H1076 0.984 . S
N1070 H1077 0.984 . S
N1071 C1064 1.356 . S
N1071 H1074 0.984 . S
N1071 H1075 0.985 . S
H1072 N1067 0.984 1_556 S
H1073 N1067 0.985 . S
H1074 N1071 0.984 . S
H1075 N1071 0.985 . S
H1076 N1070 0.984 . S
H1077 N1070 0.984 . S
H1078 N1066 0.984 . S
H1079 N1066 0.985 . S
C1080 C1081 1.363 . S
C1080 C1086 1.379 . S
C1080 N1088 1.356 . S
C1081 C1080 1.363 . S
C1081 C1087 1.363 . S
C1082 C1083 1.363 . S
C1082 C1087 1.379 . S
C1082 N1089 1.356 1_556 S
C1083 C1082 1.363 . S
C1083 C1086 1.363 . S
N1084 C1086 1.356 . S
N1084 H1096 0.984 . S
N1084 H1097 0.985 . S
N1085 C1087 1.356 . S
N1085 H1090 0.984 . S
N1085 H1091 0.985 1_556 S
C1086 C1080 1.379 . S
C1086 C1083 1.363 . S
C1086 N1084 1.356 . S
C1087 C1081 1.363 . S
C1087 C1082 1.379 . S
C1087 N1085 1.356 . S
N1088 C1080 1.356 . S
N1088 H1094 0.984 . S
N1088 H1095 0.984 . S
N1089 C1082 1.356 1_554 S
N1089 H1092 0.984 . S
N1089 H1093 0.985 . S
H1090 N1085 0.984 . S
H1091 N1085 0.985 1_554 S
H1092 N1089 0.984 . S
H1093 N1089 0.985 . S
H1094 N1088 0.984 . S
H1095 N1088 0.984 . S
H1096 N1084 0.984 . S
H1097 N1084 0.985 . S
C1098 C1099 1.363 . S
C1098 C1104 1.379 . S
C1098 N1106 1.356 . S
C1099 C1098 1.363 . S
C1099 C1105 1.363 . S
C1100 C1101 1.363 . S
C1100 C1105 1.379 . S
C1100 N1107 1.356 1_556 S
C1101 C1100 1.363 . S
C1101 C1104 1.363 . S
N1102 C1104 1.356 . S
N1102 H1114 0.984 . S
N1102 H1115 0.985 . S
N1103 C1105 1.356 1_554 S
N1103 H1108 0.984 1_554 S
N1103 H1109 0.985 . S
C1104 C1098 1.379 . S
C1104 C1101 1.363 . S
C1104 N1102 1.356 . S
C1105 C1099 1.363 . S
C1105 C1100 1.379 . S
C1105 N1103 1.356 1_556 S
N1106 C1098 1.356 . S
N1106 H1112 0.984 . S
N1106 H1113 0.984 . S
N1107 C1100 1.356 1_554 S
N1107 H1110 0.984 . S
N1107 H1111 0.985 . S
H1108 N1103 0.984 1_556 S
H1109 N1103 0.985 . S
H1110 N1107 0.984 . S
H1111 N1107 0.985 . S
H1112 N1106 0.984 . S
H1113 N1106 0.984 . S
H1114 N1102 0.984 . S
H1115 N1102 0.985 . S
C1116 C1117 1.363 . S
C1116 C1122 1.379 . S
C1116 N1124 1.356 . S
C1117 C1116 1.363 . S
C1117 C1123 1.363 . S
C1118 C1119 1.363 . S
C1118 C1123 1.379 . S
C1118 N1125 1.356 . S
C1119 C1118 1.363 . S
C1119 C1122 1.363 . S
N1120 C1122 1.356 1_556 S
N1120 H1132 0.984 . S
N1120 H1133 0.985 . S
N1121 C1123 1.356 . S
N1121 H1126 0.984 . S
N1121 H1127 0.985 . S
C1122 C1116 1.379 . S
C1122 C1119 1.363 . S
C1122 N1120 1.356 1_554 S
C1123 C1117 1.363 . S
C1123 C1118 1.379 . S
C1123 N1121 1.356 . S
N1124 C1116 1.356 . S
N1124 H1130 0.984 1_554 S
N1124 H1131 0.984 . S
N1125 C1118 1.356 . S
N1125 H1128 0.984 . S
N1125 H1129 0.985 . S
H1126 N1121 0.984 . S
H1127 N1121 0.985 . S
H1128 N1125 0.984 . S
H1129 N1125 0.985 . S
H1130 N1124 0.984 1_556 S
H1131 N1124 0.984 . S
H1132 N1120 0.984 . S
H1133 N1120 0.985 . S
C1134 C1135 1.363 . S
C1134 C1140 1.379 . S
C1134 N1142 1.356 . S
C1135 C1134 1.363 . S
C1135 C1141 1.363 . S
C1136 C1137 1.363 . S
C1136 C1141 1.379 . S
C1136 N1143 1.356 . S
C1137 C1136 1.363 . S
C1137 C1140 1.363 . S
N1138 C1140 1.356 . S
N1138 H1150 0.984 . S
N1138 H1151 0.985 . S
N1139 C1141 1.356 . S
N1139 H1144 0.984 . S
N1139 H1145 0.985 . S
C1140 C1134 1.379 . S
C1140 C1137 1.363 . S
C1140 N1138 1.356 . S
C1141 C1135 1.363 . S
C1141 C1136 1.379 . S
C1141 N1139 1.356 . S
N1142 C1134 1.356 . S
N1142 H1148 0.984 . S
N1142 H1149 0.984 . S
N1143 C1136 1.356 . S
N1143 H1146 0.984 . S
N1143 H1147 0.985 . S
H1144 N1139 0.984 . S
H1145 N1139 0.985 . S
H1146 N1143 0.984 . S
H1147 N1143 0.985 . S
H1148 N1142 0.984 . S
H1149 N1142 0.984 . S
H1150 N1138 0.984 . S
H1151 N1138 0.985 . S
C1152 C1153 1.363 . S
C1152 C1158 1.379 . S
C1152 N1160 1.356 . S
C1153 C1152 1.363 . S
C1153 C1159 1.363 . S
C1154 C1155 1.363 . S
C1154 C1159 1.379 . S
C1154 N1161 1.356 1_554 S
C1155 C1154 1.363 . S
C1155 C1158 1.363 . S
N1156 C1158 1.356 . S
N1156 H1168 0.984 . S
N1156 H1169 0.985 . S
N1157 C1159 1.375 . S
N1157 H1162 1.009 . S
N1157 H1163 0.942 1_554 S
C1158 C1152 1.379 . S
C1158 C1155 1.363 . S
C1158 N1156 1.356 . S
C1159 C1153 1.363 . S
C1159 C1154 1.379 . S
C1159 N1157 1.375 . S
N1160 C1152 1.356 . S
N1160 H1166 0.984 . S
N1160 H1167 0.984 . S
N1161 C1154 1.356 1_556 S
N1161 H1164 0.984 . S
N1161 H1165 0.985 . S
H1162 N1157 1.009 . S
H1163 N1157 0.942 1_556 S
H1164 N1161 0.984 . S
H1165 N1161 0.985 . S
H1166 N1160 0.984 . S
H1167 N1160 0.984 . S
H1168 N1156 0.984 . S
H1169 N1156 0.985 . S
C1170 C1171 1.363 . S
C1170 C1176 1.379 . S
C1170 N1178 1.356 1_455 S
C1171 C1170 1.363 . S
C1171 C1177 1.363 . S
C1172 C1173 1.363 . S
C1172 C1177 1.379 . S
C1172 N1179 1.356 . S
C1173 C1172 1.363 . S
C1173 C1176 1.363 . S
N1174 C1176 1.356 . S
N1174 H1186 0.984 . S
N1174 H1187 0.985 . S
N1175 C1177 1.356 . S
N1175 H1180 0.984 . S
N1175 H1181 0.985 . S
C1176 C1170 1.379 . S
C1176 C1173 1.363 . S
C1176 N1174 1.356 . S
C1177 C1171 1.363 . S
C1177 C1172 1.379 . S
C1177 N1175 1.356 . S
N1178 C1170 1.356 1_655 S
N1178 H1184 0.984 . S
N1178 H1185 0.984 . S
N1179 C1172 1.356 . S
N1179 H1182 0.984 . S
N1179 H1183 0.985 . S
H1180 N1175 0.984 . S
H1181 N1175 0.985 . S
H1182 N1179 0.984 . S
H1183 N1179 0.985 . S
H1184 N1178 0.984 . S
H1185 N1178 0.984 . S
H1186 N1174 0.984 . S
H1187 N1174 0.985 . S
C1188 C1189 1.363 . S
C1188 C1194 1.379 . S
C1188 N1196 1.356 . S
C1189 C1188 1.363 . S
C1189 C1195 1.363 . S
C1190 C1191 1.363 . S
C1190 C1195 1.379 . S
C1190 N1197 1.356 . S
C1191 C1190 1.363 . S
C1191 C1194 1.363 . S
N1192 C1194 1.356 . S
N1192 H1204 0.984 . S
N1192 H1205 0.985 . S
N1193 C1195 1.356 . S
N1193 H1198 0.984 . S
N1193 H1199 0.985 . S
C1194 C1188 1.379 . S
C1194 C1191 1.363 . S
C1194 N1192 1.356 . S
C1195 C1189 1.363 . S
C1195 C1190 1.379 . S
C1195 N1193 1.356 . S
N1196 C1188 1.356 . S
N1196 H1202 0.984 . S
N1196 H1203 0.984 . S
N1197 C1190 1.356 . S
N1197 H1200 0.984 . S
N1197 H1201 0.985 . S
H1198 N1193 0.984 . S
H1199 N1193 0.985 . S
H1200 N1197 0.984 . S
H1201 N1197 0.985 . S
H1202 N1196 0.984 . S
H1203 N1196 0.984 . S
H1204 N1192 0.984 . S
H1205 N1192 0.985 . S
C1206 C1207 1.363 1_565 S
C1206 C1212 1.379 . S
C1206 N1214 1.356 1_565 S
C1207 C1206 1.363 1_545 S
C1207 C1213 1.363 1_545 S
C1208 C1209 1.363 . S
C1208 C1213 1.379 . S
C1208 N1215 1.356 . S
C1209 C1208 1.363 . S
C1209 C1212 1.363 . S
N1210 C1212 1.356 . S
N1210 H1222 0.984 . S
N1210 H1223 0.985 . S
N1211 C1213 1.356 1_545 S
N1211 H1216 0.984 . S
N1211 H1217 0.985 . S
C1212 C1206 1.379 . S
C1212 C1209 1.363 . S
C1212 N1210 1.356 . S
C1213 C1207 1.363 1_565 S
C1213 C1208 1.379 . S
C1213 N1211 1.356 1_565 S
N1214 C1206 1.356 1_545 S
N1214 H1220 0.984 . S
N1214 H1221 0.984 . S
N1215 C1208 1.356 . S
N1215 H1218 0.984 . S
N1215 H1219 0.985 . S
H1216 N1211 0.984 . S
H1217 N1211 0.985 . S
H1218 N1215 0.984 . S
H1219 N1215 0.985 . S
H1220 N1214 0.984 . S
H1221 N1214 0.984 . S
H1222 N1210 0.984 . S
H1223 N1210 0.985 . S
C1224 C1225 1.363 . S
C1224 C1230 1.379 . S
C1224 N1232 1.356 . S
C1225 C1224 1.363 . S
C1225 C1231 1.363 . S
C1226 C1227 1.363 . S
C1226 C1231 1.379 . S
C1226 N1233 1.356 . S
C1227 C1226 1.363 . S
C1227 C1230 1.363 . S
N1228 C1230 1.356 . S
N1228 H1240 0.984 . S
N1228 H1241 0.985 . S
N1229 C1231 1.356 . S
N1229 H1234 0.984 . S
N1229 H1235 0.985 . S
C1230 C1224 1.379 . S
C1230 C1227 1.363 . S
C1230 N1228 1.356 . S
C1231 C1225 1.363 . S
C1231 C1226 1.379 . S
C1231 N1229 1.356 . S
N1232 C1224 1.356 . S
N1232 H1238 0.984 . S
N1232 H1239 0.984 . S
N1233 C1226 1.356 . S
N1233 H1236 0.984 . S
N1233 H1237 0.985 . S
H1234 N1229 0.984 . S
H1235 N1229 0.985 . S
H1236 N1233 0.984 . S
H1237 N1233 0.985 . S
H1238 N1232 0.984 . S
H1239 N1232 0.984 . S
H1240 N1228 0.984 . S
H1241 N1228 0.985 . S
C1242 C1243 1.363 . S
C1242 C1248 1.379 . S
C1242 N1250 1.356 . S
C1243 C1242 1.363 . S
C1243 C1249 1.363 . S
C1244 C1245 1.363 . S
C1244 C1249 1.379 . S
C1244 N1251 1.356 . S
C1245 C1244 1.363 . S
C1245 C1248 1.363 . S
N1246 C1248 1.356 . S
N1246 H1258 0.984 . S
N1246 H1259 0.985 . S
N1247 C1249 1.356 . S
N1247 H1252 0.984 . S
N1247 H1253 0.985 . S
C1248 C1242 1.379 . S
C1248 C1245 1.363 . S
C1248 N1246 1.356 . S
C1249 C1243 1.363 . S
C1249 C1244 1.379 . S
C1249 N1247 1.356 . S
N1250 C1242 1.356 . S
N1250 H1256 0.984 . S
N1250 H1257 0.984 . S
N1251 C1244 1.356 . S
N1251 H1254 0.984 . S
N1251 H1255 0.985 . S
H1252 N1247 0.984 . S
H1253 N1247 0.985 . S
H1254 N1251 0.984 . S
H1255 N1251 0.985 . S
H1256 N1250 0.984 . S
H1257 N1250 0.984 . S
H1258 N1246 0.984 . S
H1259 N1246 0.985 . S
C1260 C1261 1.363 . S
C1260 C1266 1.379 . S
C1260 N1268 1.356 . S
C1261 C1260 1.363 . S
C1261 C1267 1.363 . S
C1262 C1263 1.363 . S
C1262 C1267 1.379 . S
C1262 N1269 1.356 . S
C1263 C1262 1.363 . S
C1263 C1266 1.363 . S
N1264 C1266 1.356 . S
N1264 H1276 0.984 . S
N1264 H1277 0.985 . S
N1265 C1267 1.356 . S
N1265 H1270 0.984 . S
N1265 H1271 0.985 . S
C1266 C1260 1.379 . S
C1266 C1263 1.363 . S
C1266 N1264 1.356 . S
C1267 C1261 1.363 . S
C1267 C1262 1.379 . S
C1267 N1265 1.356 . S
N1268 C1260 1.356 . S
N1268 H1274 0.984 . S
N1268 H1275 0.984 . S
N1269 C1262 1.356 . S
N1269 H1272 0.984 . S
N1269 H1273 0.985 . S
H1270 N1265 0.984 . S
H1271 N1265 0.985 . S
H1272 N1269 0.984 . S
H1273 N1269 0.985 . S
H1274 N1268 0.984 . S
H1275 N1268 0.984 . S
H1276 N1264 0.984 . S
H1277 N1264 0.985 . S
C1278 C1279 1.363 . S
C1278 C1284 1.379 . S
C1278 N1286 1.356 . S
C1279 C1278 1.363 . S
C1279 C1285 1.363 . S
C1280 C1281 1.363 . S
C1280 C1285 1.379 . S
C1280 N1287 1.356 . S
C1281 C1280 1.363 . S
C1281 C1284 1.363 . S
N1282 C1284 1.356 . S
N1282 H1294 0.984 . S
N1282 H1295 0.985 . S
N1283 C1285 1.356 . S
N1283 H1288 0.984 . S
N1283 H1289 0.985 . S
C1284 C1278 1.379 . S
C1284 C1281 1.363 . S
C1284 N1282 1.356 . S
C1285 C1279 1.363 . S
C1285 C1280 1.379 . S
C1285 N1283 1.356 . S
N1286 C1278 1.356 . S
N1286 H1292 0.984 . S
N1286 H1293 0.984 . S
N1287 C1280 1.356 . S
N1287 H1290 0.984 . S
N1287 H1291 0.985 . S
H1288 N1283 0.984 . S
H1289 N1283 0.985 . S
H1290 N1287 0.984 . S
H1291 N1287 0.985 . S
H1292 N1286 0.984 . S
H1293 N1286 0.984 . S
H1294 N1282 0.984 . S
H1295 N1282 0.985 . S
C1296 C1297 1.363 . S
C1296 C1302 1.379 . S
C1296 N1304 1.356 . S
C1297 C1296 1.363 . S
C1297 C1303 1.363 . S
C1298 C1299 1.363 . S
C1298 C1303 1.379 . S
C1298 N1305 1.356 . S
C1299 C1298 1.363 . S
C1299 C1302 1.363 . S
N1300 C1302 1.356 . S
N1300 H1312 0.984 . S
N1300 H1313 0.985 . S
N1301 C1303 1.356 . S
N1301 H1306 0.984 . S
N1301 H1307 0.985 . S
C1302 C1296 1.379 . S
C1302 C1299 1.363 . S
C1302 N1300 1.356 . S
C1303 C1297 1.363 . S
C1303 C1298 1.379 . S
C1303 N1301 1.356 . S
N1304 C1296 1.356 . S
N1304 H1310 0.984 . S
N1304 H1311 0.984 . S
N1305 C1298 1.356 . S
N1305 H1308 0.984 . S
N1305 H1309 0.985 . S
H1306 N1301 0.984 . S
H1307 N1301 0.985 . S
H1308 N1305 0.984 . S
H1309 N1305 0.985 . S
H1310 N1304 0.984 . S
H1311 N1304 0.984 . S
H1312 N1300 0.984 . S
H1313 N1300 0.985 . S
C1314 C1315 1.363 . S
C1314 C1320 1.379 . S
C1314 N1322 1.356 . S
C1315 C1314 1.363 . S
C1315 C1321 1.363 . S
C1316 C1317 1.363 . S
C1316 C1321 1.379 . S
C1316 N1323 1.356 . S
C1317 C1316 1.363 . S
C1317 C1320 1.363 . S
N1318 C1320 1.356 . S
N1318 H1330 0.984 . S
N1318 H1331 0.985 . S
N1319 C1321 1.356 . S
N1319 H1324 0.984 . S
N1319 H1325 0.985 . S
C1320 C1314 1.379 . S
C1320 C1317 1.363 . S
C1320 N1318 1.356 . S
C1321 C1315 1.363 . S
C1321 C1316 1.379 . S
C1321 N1319 1.356 . S
N1322 C1314 1.356 . S
N1322 H1328 0.984 . S
N1322 H1329 0.984 . S
N1323 C1316 1.356 . S
N1323 H1326 0.984 . S
N1323 H1327 0.985 . S
H1324 N1319 0.984 . S
H1325 N1319 0.985 . S
H1326 N1323 0.984 . S
H1327 N1323 0.985 . S
H1328 N1322 0.984 . S
H1329 N1322 0.984 . S
H1330 N1318 0.984 . S
H1331 N1318 0.985 . S
C1332 C1333 1.363 . S
C1332 C1338 1.379 . S
C1332 N1340 1.356 1_565 S
C1333 C1332 1.363 . S
C1333 C1339 1.363 . S
C1334 C1335 1.363 . S
C1334 C1339 1.379 . S
C1334 N1341 1.356 . S
C1335 C1334 1.363 . S
C1335 C1338 1.363 . S
N1336 C1338 1.356 . S
N1336 H1348 0.984 . S
N1336 H1349 0.985 . S
N1337 C1339 1.356 . S
N1337 H1342 0.984 1_565 S
N1337 H1343 0.985 . S
C1338 C1332 1.379 . S
C1338 C1335 1.363 . S
C1338 N1336 1.356 . S
C1339 C1333 1.363 . S
C1339 C1334 1.379 . S
C1339 N1337 1.356 . S
N1340 C1332 1.356 1_545 S
N1340 H1346 0.984 . S
N1340 H1347 0.984 . S
N1341 C1334 1.356 . S
N1341 H1344 0.984 . S
N1341 H1345 0.985 . S
H1342 N1337 0.984 1_545 S
H1343 N1337 0.985 . S
H1344 N1341 0.984 . S
H1345 N1341 0.985 . S
H1346 N1340 0.984 . S
H1347 N1340 0.984 . S
H1348 N1336 0.984 . S
H1349 N1336 0.985 . S
C1350 C1351 1.363 . S
C1350 C1356 1.379 . S
C1350 N1358 1.356 1_455 S
C1351 C1350 1.363 . S
C1351 C1357 1.363 . S
C1352 C1353 1.363 . S
C1352 C1357 1.379 . S
C1352 N1359 1.356 . S
C1353 C1352 1.363 . S
C1353 C1356 1.363 . S
N1354 C1356 1.356 . S
N1354 H1366 0.984 . S
N1354 H1367 0.985 . S
N1355 C1357 1.356 . S
N1355 H1360 0.984 1_455 S
N1355 H1361 0.985 . S
C1356 C1350 1.379 . S
C1356 C1353 1.363 . S
C1356 N1354 1.356 . S
C1357 C1351 1.363 . S
C1357 C1352 1.379 . S
C1357 N1355 1.356 . S
N1358 C1350 1.356 1_655 S
N1358 H1364 0.984 . S
N1358 H1365 0.984 . S
N1359 C1352 1.356 . S
N1359 H1362 0.984 . S
N1359 H1363 0.985 . S
H1360 N1355 0.984 1_655 S
H1361 N1355 0.985 . S
H1362 N1359 0.984 . S
H1363 N1359 0.985 . S
H1364 N1358 0.984 . S
H1365 N1358 0.984 . S
H1366 N1354 0.984 . S
H1367 N1354 0.985 . S
C1368 C1369 1.363 . S
C1368 C1374 1.379 . S
C1368 N1376 1.356 . S
C1369 C1368 1.363 . S
C1369 C1375 1.363 . S
C1370 C1371 1.363 . S
C1370 C1375 1.379 . S
C1370 N1377 1.356 . S
C1371 C1370 1.363 . S
C1371 C1374 1.363 . S
N1372 C1374 1.356 . S
N1372 H1384 0.984 . S
N1372 H1385 0.985 . S
N1373 C1375 1.356 . S
N1373 H1378 0.984 . S
N1373 H1379 0.985 . S
C1374 C1368 1.379 . S
C1374 C1371 1.363 . S
C1374 N1372 1.356 . S
C1375 C1369 1.363 . S
C1375 C1370 1.379 . S
C1375 N1373 1.356 . S
N1376 C1368 1.356 . S
N1376 H1382 0.984 . S
N1376 H1383 0.984 . S
N1377 C1370 1.356 . S
N1377 H1380 0.984 . S
N1377 H1381 0.985 . S
H1378 N1373 0.984 . S
H1379 N1373 0.985 . S
H1380 N1377 0.984 . S
H1381 N1377 0.985 . S
H1382 N1376 0.984 . S
H1383 N1376 0.984 . S
H1384 N1372 0.984 . S
H1385 N1372 0.985 . S
C1386 C1387 1.363 . S
C1386 C1392 1.379 . S
C1386 N1394 1.356 . S
C1387 C1386 1.363 . S
C1387 C1393 1.363 . S
C1388 C1389 1.363 . S
C1388 C1393 1.379 . S
C1388 N1395 1.356 . S
C1389 C1388 1.363 . S
C1389 C1392 1.363 . S
N1390 C1392 1.356 . S
N1390 H1402 0.984 . S
N1390 H1403 0.985 . S
N1391 C1393 1.356 . S
N1391 H1396 0.984 . S
N1391 H1397 0.985 . S
C1392 C1386 1.379 . S
C1392 C1389 1.363 . S
C1392 N1390 1.356 . S
C1393 C1387 1.363 . S
C1393 C1388 1.379 . S
C1393 N1391 1.356 . S
N1394 C1386 1.356 . S
N1394 H1400 0.984 . S
N1394 H1401 0.984 . S
N1395 C1388 1.356 . S
N1395 H1398 0.984 . S
N1395 H1399 0.985 . S
H1396 N1391 0.984 . S
H1397 N1391 0.985 . S
H1398 N1395 0.984 . S
H1399 N1395 0.985 . S
H1400 N1394 0.984 . S
H1401 N1394 0.984 . S
H1402 N1390 0.984 . S
H1403 N1390 0.985 . S
C1404 C1405 1.363 . S
C1404 C1410 1.379 . S
C1404 N1412 1.356 . S
C1405 C1404 1.363 . S
C1405 C1411 1.363 . S
C1406 C1407 1.363 . S
C1406 C1411 1.379 . S
C1406 N1413 1.356 . S
C1407 C1406 1.363 . S
C1407 C1410 1.363 . S
N1408 C1410 1.356 . S
N1408 H1420 0.984 . S
N1408 H1421 0.985 . S
N1409 C1411 1.356 . S
N1409 H1414 0.984 . S
N1409 H1415 0.985 . S
C1410 C1404 1.379 . S
C1410 C1407 1.363 . S
C1410 N1408 1.356 . S
C1411 C1405 1.363 . S
C1411 C1406 1.379 . S
C1411 N1409 1.356 . S
N1412 C1404 1.356 . S
N1412 H1418 0.984 . S
N1412 H1419 0.984 . S
N1413 C1406 1.356 . S
N1413 H1416 0.984 . S
N1413 H1417 0.985 . S
H1414 N1409 0.984 . S
H1415 N1409 0.985 . S
H1416 N1413 0.984 . S
H1417 N1413 0.985 . S
H1418 N1412 0.984 . S
H1419 N1412 0.984 . S
H1420 N1408 0.984 . S
H1421 N1408 0.985 . S
C1422 C1423 1.363 . S
C1422 C1428 1.379 . S
C1422 N1430 1.356 . S
C1423 C1422 1.363 . S
C1423 C1429 1.363 . S
C1424 C1425 1.363 . S
C1424 C1429 1.379 . S
C1424 N1431 1.356 . S
C1425 C1424 1.363 . S
C1425 C1428 1.363 . S
N1426 C1428 1.356 . S
N1426 H1438 0.984 . S
N1426 H1439 0.985 . S
N1427 C1429 1.356 . S
N1427 H1432 0.984 . S
N1427 H1433 0.985 . S
C1428 C1422 1.379 . S
C1428 C1425 1.363 . S
C1428 N1426 1.356 . S
C1429 C1423 1.363 . S
C1429 C1424 1.379 . S
C1429 N1427 1.356 . S
N1430 C1422 1.356 . S
N1430 H1436 0.984 . S
N1430 H1437 0.984 . S
N1431 C1424 1.356 . S
N1431 H1434 0.984 . S
N1431 H1435 0.985 . S
H1432 N1427 0.984 . S
H1433 N1427 0.985 . S
H1434 N1431 0.984 . S
H1435 N1431 0.985 . S
H1436 N1430 0.984 . S
H1437 N1430 0.984 . S
H1438 N1426 0.984 . S
H1439 N1426 0.985 . S
C1440 C1441 1.363 . S
C1440 C1446 1.379 . S
C1440 N1448 1.356 1_545 S
C1441 C1440 1.363 . S
C1441 C1447 1.363 . S
C1442 C1443 1.363 . S
C1442 C1447 1.379 . S
C1442 N1449 1.356 . S
C1443 C1442 1.363 . S
C1443 C1446 1.363 . S
N1444 C1446 1.356 . S
N1444 H1456 0.984 . S
N1444 H1457 0.985 . S
N1445 C1447 1.356 1_565 S
N1445 H1450 0.984 . S
N1445 H1451 0.985 1_565 S
C1446 C1440 1.379 . S
C1446 C1443 1.363 . S
C1446 N1444 1.356 . S
C1447 C1441 1.363 . S
C1447 C1442 1.379 . S
C1447 N1445 1.356 1_545 S
N1448 C1440 1.356 1_565 S
N1448 H1454 0.984 . S
N1448 H1455 0.984 . S
N1449 C1442 1.356 . S
N1449 H1452 0.984 . S
N1449 H1453 0.985 . S
H1450 N1445 0.984 . S
H1451 N1445 0.985 1_545 S
H1452 N1449 0.984 . S
H1453 N1449 0.985 . S
H1454 N1448 0.984 . S
H1455 N1448 0.984 . S
H1456 N1444 0.984 . S
H1457 N1444 0.985 . S
C1458 C1459 1.351 1_655 S
C1458 C1464 1.407 . S
C1458 N1466 1.334 1_655 S
C1459 C1458 1.351 1_455 S
C1459 C1465 1.363 1_455 S
C1460 C1461 1.363 . S
C1460 C1465 1.379 . S
C1460 N1467 1.356 . S
C1461 C1460 1.363 . S
C1461 C1464 1.363 . S
N1462 C1464 1.356 . S
N1462 H1474 0.984 . S
N1462 H1475 0.985 . S
N1463 C1465 1.356 . S
N1463 H1468 0.984 1_655 S
N1463 H1469 0.985 . S
C1464 C1458 1.407 . S
C1464 C1461 1.363 . S
C1464 N1462 1.356 . S
C1465 C1459 1.363 1_655 S
C1465 C1460 1.379 . S
C1465 N1463 1.356 . S
N1466 C1458 1.334 1_455 S
N1466 H1472 0.984 . S
N1466 H1473 0.984 . S
N1467 C1460 1.356 . S
N1467 H1470 0.984 . S
N1467 H1471 0.985 . S
H1468 N1463 0.984 1_455 S
H1469 N1463 0.985 . S
H1470 N1467 0.984 . S
H1471 N1467 0.985 . S
H1472 N1466 0.984 . S
H1473 N1466 0.984 . S
H1474 N1462 0.984 . S
H1475 N1462 0.985 . S
C1476 C1477 1.363 . S
C1476 C1482 1.379 . S
C1476 N1484 1.356 . S
C1477 C1476 1.363 . S
C1477 C1483 1.363 . S
C1478 C1479 1.363 . S
C1478 C1483 1.379 . S
C1478 N1485 1.356 . S
C1479 C1478 1.363 . S
C1479 C1482 1.363 . S
N1480 C1482 1.356 . S
N1480 H1492 0.984 . S
N1480 H1493 0.985 . S
N1481 C1483 1.356 . S
N1481 H1486 0.984 . S
N1481 H1487 0.985 . S
C1482 C1476 1.379 . S
C1482 C1479 1.363 . S
C1482 N1480 1.356 . S
C1483 C1477 1.363 . S
C1483 C1478 1.379 . S
C1483 N1481 1.356 . S
N1484 C1476 1.356 . S
N1484 H1490 0.984 . S
N1484 H1491 0.984 . S
N1485 C1478 1.356 . S
N1485 H1488 0.984 . S
N1485 H1489 0.985 . S
H1486 N1481 0.984 . S
H1487 N1481 0.985 . S
H1488 N1485 0.984 . S
H1489 N1485 0.985 . S
H1490 N1484 0.984 . S
H1491 N1484 0.984 . S
H1492 N1480 0.984 . S
H1493 N1480 0.985 . S
C1494 C1495 1.363 . S
C1494 C1500 1.379 . S
C1494 N1502 1.356 1_655 S
C1495 C1494 1.363 . S
C1495 C1501 1.363 . S
C1496 C1497 1.363 . S
C1496 C1501 1.379 . S
C1496 N1503 1.356 . S
C1497 C1496 1.363 . S
C1497 C1500 1.363 . S
N1498 C1500 1.356 . S
N1498 H1510 0.984 . S
N1498 H1511 0.985 . S
N1499 C1501 1.356 . S
N1499 H1504 0.984 . S
N1499 H1505 0.985 . S
C1500 C1494 1.379 . S
C1500 C1497 1.363 . S
C1500 N1498 1.356 . S
C1501 C1495 1.363 . S
C1501 C1496 1.379 . S
C1501 N1499 1.356 . S
N1502 C1494 1.356 1_455 S
N1502 H1508 0.984 . S
N1502 H1509 0.984 . S
N1503 C1496 1.356 . S
N1503 H1506 0.984 . S
N1503 H1507 0.985 . S
H1504 N1499 0.984 . S
H1505 N1499 0.985 . S
H1506 N1503 0.984 . S
H1507 N1503 0.985 . S
H1508 N1502 0.984 . S
H1509 N1502 0.984 . S
H1510 N1498 0.984 . S
H1511 N1498 0.985 . S
C1512 C1513 1.363 . S
C1512 C1518 1.379 . S
C1512 N1520 1.356 . S
C1513 C1512 1.363 . S
C1513 C1519 1.363 . S
C1514 C1515 1.363 . S
C1514 C1519 1.379 . S
C1514 N1521 1.356 . S
C1515 C1514 1.363 . S
C1515 C1518 1.363 . S
N1516 C1518 1.356 . S
N1516 H1528 0.984 . S
N1516 H1529 0.985 . S
N1517 C1519 1.356 . S
N1517 H1522 0.984 . S
N1517 H1523 0.985 . S
C1518 C1512 1.379 . S
C1518 C1515 1.363 . S
C1518 N1516 1.356 . S
C1519 C1513 1.363 . S
C1519 C1514 1.379 . S
C1519 N1517 1.356 . S
N1520 C1512 1.356 . S
N1520 H1526 0.984 . S
N1520 H1527 0.984 . S
N1521 C1514 1.356 . S
N1521 H1524 0.984 . S
N1521 H1525 0.985 . S
H1522 N1517 0.984 . S
H1523 N1517 0.985 . S
H1524 N1521 0.984 . S
H1525 N1521 0.985 . S
H1526 N1520 0.984 . S
H1527 N1520 0.984 . S
H1528 N1516 0.984 . S
H1529 N1516 0.985 . S
C1530 C1531 1.363 . S
C1530 C1536 1.379 . S
C1530 N1538 1.356 1_545 S
C1531 C1530 1.363 . S
C1531 C1537 1.363 . S
C1532 C1533 1.363 . S
C1532 C1537 1.379 . S
C1532 N1539 1.356 . S
C1533 C1532 1.363 . S
C1533 C1536 1.363 . S
N1534 C1536 1.356 . S
N1534 H1546 0.984 . S
N1534 H1547 0.985 . S
N1535 C1537 1.356 . S
N1535 H1540 0.984 1_545 S
N1535 H1541 0.985 . S
C1536 C1530 1.379 . S
C1536 C1533 1.363 . S
C1536 N1534 1.356 . S
C1537 C1531 1.363 . S
C1537 C1532 1.379 . S
C1537 N1535 1.356 . S
N1538 C1530 1.356 1_565 S
N1538 H1544 0.984 . S
N1538 H1545 0.984 . S
N1539 C1532 1.356 . S
N1539 H1542 0.984 . S
N1539 H1543 0.985 . S
H1540 N1535 0.984 1_565 S
H1541 N1535 0.985 . S
H1542 N1539 0.984 . S
H1543 N1539 0.985 . S
H1544 N1538 0.984 . S
H1545 N1538 0.984 . S
H1546 N1534 0.984 . S
H1547 N1534 0.985 . S
C1548 C1549 1.363 . S
C1548 C1554 1.379 . S
C1548 N1556 1.356 . S
C1549 C1548 1.363 . S
C1549 C1555 1.363 . S
C1550 C1551 1.363 . S
C1550 C1555 1.379 . S
C1550 N1557 1.356 . S
C1551 C1550 1.363 . S
C1551 C1554 1.363 . S
N1552 C1554 1.356 . S
N1552 H1564 0.984 . S
N1552 H1565 0.985 . S
N1553 C1555 1.356 . S
N1553 H1558 0.984 . S
N1553 H1559 0.985 . S
C1554 C1548 1.379 . S
C1554 C1551 1.363 . S
C1554 N1552 1.356 . S
C1555 C1549 1.363 . S
C1555 C1550 1.379 . S
C1555 N1553 1.356 . S
N1556 C1548 1.356 . S
N1556 H1562 0.984 . S
N1556 H1563 0.984 . S
N1557 C1550 1.356 . S
N1557 H1560 0.984 . S
N1557 H1561 0.985 . S
H1558 N1553 0.984 . S
H1559 N1553 0.985 . S
H1560 N1557 0.984 . S
H1561 N1557 0.985 . S
H1562 N1556 0.984 . S
H1563 N1556 0.984 . S
H1564 N1552 0.984 . S
H1565 N1552 0.985 . S
C1566 C1567 1.363 . S
C1566 C1572 1.379 . S
C1566 N1574 1.356 . S
C1567 C1566 1.363 . S
C1567 C1573 1.363 . S
C1568 C1569 1.363 . S
C1568 C1573 1.379 . S
C1568 N1575 1.356 . S
C1569 C1568 1.363 . S
C1569 C1572 1.363 . S
N1570 C1572 1.356 . S
N1570 H1582 0.984 . S
N1570 H1583 0.985 . S
N1571 C1573 1.356 . S
N1571 H1576 0.984 . S
N1571 H1577 0.985 . S
C1572 C1566 1.379 . S
C1572 C1569 1.363 . S
C1572 N1570 1.356 . S
C1573 C1567 1.363 . S
C1573 C1568 1.379 . S
C1573 N1571 1.356 . S
N1574 C1566 1.356 . S
N1574 H1580 0.984 . S
N1574 H1581 0.984 . S
N1575 C1568 1.356 . S
N1575 H1578 0.984 . S
N1575 H1579 0.985 . S
H1576 N1571 0.984 . S
H1577 N1571 0.985 . S
H1578 N1575 0.984 . S
H1579 N1575 0.985 . S
H1580 N1574 0.984 . S
H1581 N1574 0.984 . S
H1582 N1570 0.984 . S
H1583 N1570 0.985 . S
C1584 C1585 1.363 . S
C1584 C1590 1.379 . S
C1584 N1592 1.356 . S
C1585 C1584 1.363 . S
C1585 C1591 1.363 . S
C1586 C1587 1.363 . S
C1586 C1591 1.379 . S
C1586 N1593 1.356 . S
C1587 C1586 1.363 . S
C1587 C1590 1.363 . S
N1588 C1590 1.356 . S
N1588 H1600 0.984 . S
N1588 H1601 0.985 . S
N1589 C1591 1.356 . S
N1589 H1594 0.984 . S
N1589 H1595 0.985 . S
C1590 C1584 1.379 . S
C1590 C1587 1.363 . S
C1590 N1588 1.356 . S
C1591 C1585 1.363 . S
C1591 C1586 1.379 . S
C1591 N1589 1.356 . S
N1592 C1584 1.356 . S
N1592 H1598 0.984 . S
N1592 H1599 0.984 . S
N1593 C1586 1.356 . S
N1593 H1596 0.984 . S
N1593 H1597 0.985 . S
H1594 N1589 0.984 . S
H1595 N1589 0.985 . S
H1596 N1593 0.984 . S
H1597 N1593 0.985 . S
H1598 N1592 0.984 . S
H1599 N1592 0.984 . S
H1600 N1588 0.984 . S
H1601 N1588 0.985 . S
C1602 C1603 1.363 . S
C1602 C1608 1.379 . S
C1602 N1610 1.356 . S
C1603 C1602 1.363 . S
C1603 C1609 1.363 . S
C1604 C1605 1.363 . S
C1604 C1609 1.379 . S
C1604 N1611 1.356 . S
C1605 C1604 1.363 . S
C1605 C1608 1.363 . S
N1606 C1608 1.356 . S
N1606 H1618 0.995 . S
N1606 H1619 0.985 . S
N1607 C1609 1.356 . S
N1607 H1612 0.984 . S
N1607 H1613 0.985 . S
C1608 C1602 1.379 . S
C1608 C1605 1.363 . S
C1608 N1606 1.356 . S
C1609 C1603 1.363 . S
C1609 C1604 1.379 . S
C1609 N1607 1.356 . S
N1610 C1602 1.356 . S
N1610 H1616 0.984 . S
N1610 H1617 0.984 . S
N1611 C1604 1.356 . S
N1611 H1614 0.984 . S
N1611 H1615 0.985 . S
H1612 N1607 0.984 . S
H1613 N1607 0.985 . S
H1614 N1611 0.984 . S
H1615 N1611 0.985 . S
H1616 N1610 0.984 . S
H1617 N1610 0.984 . S
H1618 N1606 0.995 . S
H1619 N1606 0.985 . S
C1620 C1621 1.363 . S
C1620 C1626 1.379 . S
C1620 N1628 1.356 . S
C1621 C1620 1.363 . S
C1621 C1627 1.363 . S
C1622 C1623 1.363 . S
C1622 C1627 1.379 . S
C1622 N1629 1.356 . S
C1623 C1622 1.363 . S
C1623 C1626 1.363 . S
N1624 C1626 1.356 . S
N1624 H1636 0.984 . S
N1624 H1637 0.985 . S
N1625 C1627 1.356 . S
N1625 H1630 0.984 . S
N1625 H1631 0.985 . S
C1626 C1620 1.379 . S
C1626 C1623 1.363 . S
C1626 N1624 1.356 . S
C1627 C1621 1.363 . S
C1627 C1622 1.379 . S
C1627 N1625 1.356 . S
N1628 C1620 1.356 . S
N1628 H1634 0.984 . S
N1628 H1635 0.984 . S
N1629 C1622 1.356 . S
N1629 H1632 0.984 . S
N1629 H1633 0.985 . S
H1630 N1625 0.984 . S
H1631 N1625 0.985 . S
H1632 N1629 0.984 . S
H1633 N1629 0.985 . S
H1634 N1628 0.984 . S
H1635 N1628 0.984 . S
H1636 N1624 0.984 . S
H1637 N1624 0.985 . S
C1638 C1639 1.363 . S
C1638 C1644 1.379 . S
C1638 N1646 1.356 . S
C1639 C1638 1.363 . S
C1639 C1645 1.363 . S
C1640 C1641 1.363 . S
C1640 C1645 1.379 . S
C1640 N1647 1.356 . S
C1641 C1640 1.363 . S
C1641 C1644 1.363 . S
N1642 C1644 1.356 . S
N1642 H1654 0.984 . S
N1642 H1655 0.985 . S
N1643 C1645 1.356 . S
N1643 H1648 0.984 . S
N1643 H1649 0.985 . S
C1644 C1638 1.379 . S
C1644 C1641 1.363 . S
C1644 N1642 1.356 . S
C1645 C1639 1.363 . S
C1645 C1640 1.379 . S
C1645 N1643 1.356 . S
N1646 C1638 1.356 . S
N1646 H1652 0.984 . S
N1646 H1653 0.984 . S
N1647 C1640 1.356 . S
N1647 H1650 0.984 . S
N1647 H1651 0.985 . S
H1648 N1643 0.984 . S
H1649 N1643 0.985 . S
H1650 N1647 0.984 . S
H1651 N1647 0.985 . S
H1652 N1646 0.984 . S
H1653 N1646 0.984 . S
H1654 N1642 0.984 . S
H1655 N1642 0.985 . S
C1656 C1657 1.363 . S
C1656 C1662 1.379 . S
C1656 N1664 1.356 . S
C1657 C1656 1.363 . S
C1657 C1663 1.363 . S
C1658 C1659 1.363 . S
C1658 C1663 1.379 . S
C1658 N1665 1.356 . S
C1659 C1658 1.363 . S
C1659 C1662 1.363 . S
N1660 C1662 1.356 . S
N1660 H1672 0.985 . S
N1660 H1673 0.985 . S
N1661 C1663 1.356 . S
N1661 H1666 0.984 . S
N1661 H1667 0.985 . S
C1662 C1656 1.379 . S
C1662 C1659 1.363 . S
C1662 N1660 1.356 . S
C1663 C1657 1.363 . S
C1663 C1658 1.379 . S
C1663 N1661 1.356 . S
N1664 C1656 1.356 . S
N1664 H1670 0.984 . S
N1664 H1671 0.984 . S
N1665 C1658 1.356 . S
N1665 H1668 0.984 . S
N1665 H1669 0.985 . S
H1666 N1661 0.984 . S
H1667 N1661 0.985 . S
H1668 N1665 0.984 . S
H1669 N1665 0.985 . S
H1670 N1664 0.984 . S
H1671 N1664 0.984 . S
H1672 N1660 0.985 . S
H1673 N1660 0.985 . S
C1674 C1675 1.363 . S
C1674 C1680 1.379 . S
C1674 N1682 1.356 . S
C1675 C1674 1.363 . S
C1675 C1681 1.363 . S
C1676 C1677 1.363 . S
C1676 C1681 1.379 . S
C1676 N1683 1.356 . S
C1677 C1676 1.363 . S
C1677 C1680 1.363 . S
N1678 C1680 1.356 . S
N1678 H1690 0.984 . S
N1678 H1691 0.985 . S
N1679 C1681 1.356 . S
N1679 H1684 0.984 . S
N1679 H1685 0.985 . S
C1680 C1674 1.379 . S
C1680 C1677 1.363 . S
C1680 N1678 1.356 . S
C1681 C1675 1.363 . S
C1681 C1676 1.379 . S
C1681 N1679 1.356 . S
N1682 C1674 1.356 . S
N1682 H1688 0.984 . S
N1682 H1689 0.984 . S
N1683 C1676 1.356 . S
N1683 H1686 0.984 . S
N1683 H1687 0.985 . S
H1684 N1679 0.984 . S
H1685 N1679 0.985 . S
H1686 N1683 0.984 . S
H1687 N1683 0.985 . S
H1688 N1682 0.984 . S
H1689 N1682 0.984 . S
H1690 N1678 0.984 . S
H1691 N1678 0.985 . S
C1692 C1693 1.363 . S
C1692 C1698 1.379 . S
C1692 N1700 1.356 . S
C1693 C1692 1.363 . S
C1693 C1699 1.363 . S
C1694 C1695 1.363 . S
C1694 C1699 1.379 . S
C1694 N1701 1.356 . S
C1695 C1694 1.363 . S
C1695 C1698 1.363 . S
N1696 C1698 1.356 . S
N1696 H1708 0.984 1_545 S
N1696 H1709 0.985 . S
N1697 C1699 1.356 . S
N1697 H1702 0.984 . S
N1697 H1703 0.985 . S
C1698 C1692 1.379 . S
C1698 C1695 1.363 . S
C1698 N1696 1.356 . S
C1699 C1693 1.363 . S
C1699 C1694 1.379 . S
C1699 N1697 1.356 . S
N1700 C1692 1.356 . S
N1700 H1706 0.984 . S
N1700 H1707 0.984 . S
N1701 C1694 1.356 . S
N1701 H1704 0.984 . S
N1701 H1705 0.985 . S
H1702 N1697 0.984 . S
H1703 N1697 0.985 . S
H1704 N1701 0.984 . S
H1705 N1701 0.985 . S
H1706 N1700 0.984 . S
H1707 N1700 0.984 . S
H1708 N1696 0.984 1_565 S
H1709 N1696 0.985 . S
C1710 C1711 1.363 . S
C1710 C1716 1.379 . S
C1710 N1718 1.356 . S
C1711 C1710 1.363 . S
C1711 C1717 1.363 . S
C1712 C1713 1.363 . S
C1712 C1717 1.379 . S
C1712 N1719 1.356 . S
C1713 C1712 1.363 . S
C1713 C1716 1.363 . S
N1714 C1716 1.356 . S
N1714 H1726 0.984 . S
N1714 H1727 0.985 . S
N1715 C1717 1.356 . S
N1715 H1720 0.984 . S
N1715 H1721 0.985 . S
C1716 C1710 1.379 . S
C1716 C1713 1.363 . S
C1716 N1714 1.356 . S
C1717 C1711 1.363 . S
C1717 C1712 1.379 . S
C1717 N1715 1.356 . S
N1718 C1710 1.356 . S
N1718 H1724 0.984 . S
N1718 H1725 0.984 . S
N1719 C1712 1.356 . S
N1719 H1722 0.984 . S
N1719 H1723 0.985 . S
H1720 N1715 0.984 . S
H1721 N1715 0.985 . S
H1722 N1719 0.984 . S
H1723 N1719 0.985 . S
H1724 N1718 0.984 . S
H1725 N1718 0.984 . S
H1726 N1714 0.984 . S
H1727 N1714 0.985 . S
C1728 C1729 1.363 . S
C1728 C1734 1.379 . S
C1728 N1736 1.356 . S
C1729 C1728 1.363 . S
C1729 C1735 1.363 . S
C1730 C1731 1.363 . S
C1730 C1735 1.379 . S
C1730 N1737 1.356 . S
C1731 C1730 1.363 . S
C1731 C1734 1.363 . S
N1732 C1734 1.356 . S
N1732 H1744 0.984 . S
N1732 H1745 0.985 . S
N1733 C1735 1.356 . S
N1733 H1738 0.984 . S
N1733 H1739 0.985 . S
C1734 C1728 1.379 . S
C1734 C1731 1.363 . S
C1734 N1732 1.356 . S
C1735 C1729 1.363 . S
C1735 C1730 1.379 . S
C1735 N1733 1.356 . S
N1736 C1728 1.356 . S
N1736 H1742 0.984 . S
N1736 H1743 0.984 . S
N1737 C1730 1.356 . S
N1737 H1740 0.984 . S
N1737 H1741 0.985 . S
H1738 N1733 0.984 . S
H1739 N1733 0.985 . S
H1740 N1737 0.984 . S
H1741 N1737 0.985 . S
H1742 N1736 0.984 . S
H1743 N1736 0.984 . S
H1744 N1732 0.984 . S
H1745 N1732 0.985 . S
C1746 C1747 1.363 . S
C1746 C1752 1.379 . S
C1746 N1754 1.356 . S
C1747 C1746 1.363 . S
C1747 C1753 1.363 . S
C1748 C1749 1.363 . S
C1748 C1753 1.379 . S
C1748 N1755 1.356 . S
C1749 C1748 1.363 . S
C1749 C1752 1.363 . S
N1750 C1752 1.356 . S
N1750 H1762 0.984 . S
N1750 H1763 0.985 . S
N1751 C1753 1.356 . S
N1751 H1756 0.984 . S
N1751 H1757 0.985 . S
C1752 C1746 1.379 . S
C1752 C1749 1.363 . S
C1752 N1750 1.356 . S
C1753 C1747 1.363 . S
C1753 C1748 1.379 . S
C1753 N1751 1.356 . S
N1754 C1746 1.356 . S
N1754 H1760 0.984 . S
N1754 H1761 0.984 . S
N1755 C1748 1.356 . S
N1755 H1758 0.984 . S
N1755 H1759 0.985 . S
H1756 N1751 0.984 . S
H1757 N1751 0.985 . S
H1758 N1755 0.984 . S
H1759 N1755 0.985 . S
H1760 N1754 0.984 . S
H1761 N1754 0.984 . S
H1762 N1750 0.984 . S
H1763 N1750 0.985 . S
C1764 C1765 1.363 . S
C1764 C1770 1.379 . S
C1764 N1772 1.356 . S
C1765 C1764 1.363 . S
C1765 C1771 1.363 . S
C1766 C1767 1.363 . S
C1766 C1771 1.379 . S
C1766 N1773 1.356 . S
C1767 C1766 1.363 . S
C1767 C1770 1.363 . S
N1768 C1770 1.356 . S
N1768 H1780 0.984 . S
N1768 H1781 0.985 . S
N1769 C1771 1.356 . S
N1769 H1774 0.984 . S
N1769 H1775 0.985 . S
C1770 C1764 1.379 . S
C1770 C1767 1.363 . S
C1770 N1768 1.356 . S
C1771 C1765 1.363 . S
C1771 C1766 1.379 . S
C1771 N1769 1.356 . S
N1772 C1764 1.356 . S
N1772 H1778 0.984 . S
N1772 H1779 0.984 . S
N1773 C1766 1.356 . S
N1773 H1776 0.984 . S
N1773 H1777 0.985 . S
H1774 N1769 0.984 . S
H1775 N1769 0.985 . S
H1776 N1773 0.984 . S
H1777 N1773 0.985 . S
H1778 N1772 0.984 . S
H1779 N1772 0.984 . S
H1780 N1768 0.984 . S
H1781 N1768 0.985 . S
C1782 C1783 1.363 . S
C1782 C1788 1.379 . S
C1782 N1790 1.356 . S
C1783 C1782 1.363 . S
C1783 C1789 1.363 . S
C1784 C1785 1.363 . S
C1784 C1789 1.379 . S
C1784 N1791 1.356 . S
C1785 C1784 1.363 . S
C1785 C1788 1.363 . S
N1786 C1788 1.356 . S
N1786 H1798 0.984 . S
N1786 H1799 0.985 . S
N1787 C1789 1.356 . S
N1787 H1792 0.984 . S
N1787 H1793 0.985 . S
C1788 C1782 1.379 . S
C1788 C1785 1.363 . S
C1788 N1786 1.356 . S
C1789 C1783 1.363 . S
C1789 C1784 1.379 . S
C1789 N1787 1.356 . S
N1790 C1782 1.356 . S
N1790 H1796 0.984 . S
N1790 H1797 0.984 . S
N1791 C1784 1.356 . S
N1791 H1794 0.984 . S
N1791 H1795 0.985 . S
H1792 N1787 0.984 . S
H1793 N1787 0.985 . S
H1794 N1791 0.984 . S
H1795 N1791 0.985 . S
H1796 N1790 0.984 . S
H1797 N1790 0.984 . S
H1798 N1786 0.984 . S
H1799 N1786 0.985 . S
C1800 C1801 1.363 . S
C1800 C1806 1.379 . S
C1800 N1808 1.356 . S
C1801 C1800 1.363 . S
C1801 C1807 1.363 . S
C1802 C1803 1.363 . S
C1802 C1807 1.379 . S
C1802 N1809 1.356 . S
C1803 C1802 1.363 . S
C1803 C1806 1.363 . S
N1804 C1806 1.356 . S
N1804 H1816 0.984 . S
N1804 H1817 0.985 . S
N1805 C1807 1.356 . S
N1805 H1810 0.984 . S
N1805 H1811 0.985 . S
C1806 C1800 1.379 . S
C1806 C1803 1.363 . S
C1806 N1804 1.356 . S
C1807 C1801 1.363 . S
C1807 C1802 1.379 . S
C1807 N1805 1.356 . S
N1808 C1800 1.356 . S
N1808 H1814 0.984 . S
N1808 H1815 0.984 . S
N1809 C1802 1.356 . S
N1809 H1812 0.984 . S
N1809 H1813 0.985 . S
H1810 N1805 0.984 . S
H1811 N1805 0.985 . S
H1812 N1809 0.984 . S
H1813 N1809 0.985 . S
H1814 N1808 0.984 . S
H1815 N1808 0.984 . S
H1816 N1804 0.984 . S
H1817 N1804 0.985 . S
C1818 C1819 1.363 . S
C1818 C1824 1.379 . S
C1818 N1826 1.356 . S
C1819 C1818 1.363 . S
C1819 C1825 1.363 . S
C1820 C1821 1.363 . S
C1820 C1825 1.379 . S
C1820 N1827 1.356 . S
C1821 C1820 1.363 . S
C1821 C1824 1.363 . S
N1822 C1824 1.356 . S
N1822 H1834 0.984 . S
N1822 H1835 0.985 . S
N1823 C1825 1.356 . S
N1823 H1828 0.984 . S
N1823 H1829 0.985 . S
C1824 C1818 1.379 . S
C1824 C1821 1.363 . S
C1824 N1822 1.356 . S
C1825 C1819 1.363 . S
C1825 C1820 1.379 . S
C1825 N1823 1.356 . S
N1826 C1818 1.356 . S
N1826 H1832 0.984 . S
N1826 H1833 0.984 . S
N1827 C1820 1.356 . S
N1827 H1830 0.984 . S
N1827 H1831 0.985 . S
H1828 N1823 0.984 . S
H1829 N1823 0.985 . S
H1830 N1827 0.984 . S
H1831 N1827 0.985 . S
H1832 N1826 0.984 . S
H1833 N1826 0.984 . S
H1834 N1822 0.984 . S
H1835 N1822 0.985 . S
C1836 C1837 1.363 . S
C1836 C1842 1.379 . S
C1836 N1844 1.356 . S
C1837 C1836 1.363 . S
C1837 C1843 1.363 . S
C1838 C1839 1.363 . S
C1838 C1843 1.379 . S
C1838 N1845 1.356 . S
C1839 C1838 1.363 . S
C1839 C1842 1.363 . S
N1840 C1842 1.356 . S
N1840 H1852 0.984 . S
N1840 H1853 0.985 . S
N1841 C1843 1.356 . S
N1841 H1846 0.984 . S
N1841 H1847 0.985 . S
C1842 C1836 1.379 . S
C1842 C1839 1.363 . S
C1842 N1840 1.356 . S
C1843 C1837 1.363 . S
C1843 C1838 1.379 . S
C1843 N1841 1.356 . S
N1844 C1836 1.356 . S
N1844 H1850 0.984 . S
N1844 H1851 0.984 . S
N1845 C1838 1.356 . S
N1845 H1848 0.984 . S
N1845 H1849 0.985 . S
H1846 N1841 0.984 . S
H1847 N1841 0.985 . S
H1848 N1845 0.984 . S
H1849 N1845 0.985 . S
H1850 N1844 0.984 . S
H1851 N1844 0.984 . S
H1852 N1840 0.984 . S
H1853 N1840 0.985 . S
C1854 C1855 1.363 . S
C1854 C1860 1.379 . S
C1854 N1862 1.356 . S
C1855 C1854 1.363 . S
C1855 C1861 1.363 . S
C1856 C1857 1.363 . S
C1856 C1861 1.379 . S
C1856 N1863 1.356 . S
C1857 C1856 1.363 . S
C1857 C1860 1.363 . S
N1858 C1860 1.356 . S
N1858 H1870 0.984 . S
N1858 H1871 0.985 . S
N1859 C1861 1.356 . S
N1859 H1864 0.984 . S
N1859 H1865 0.985 . S
C1860 C1854 1.379 . S
C1860 C1857 1.363 . S
C1860 N1858 1.356 . S
C1861 C1855 1.363 . S
C1861 C1856 1.379 . S
C1861 N1859 1.356 . S
N1862 C1854 1.356 . S
N1862 H1868 0.984 . S
N1862 H1869 0.984 . S
N1863 C1856 1.356 . S
N1863 H1866 0.984 . S
N1863 H1867 0.985 . S
H1864 N1859 0.984 . S
H1865 N1859 0.985 . S
H1866 N1863 0.984 . S
H1867 N1863 0.985 . S
H1868 N1862 0.984 . S
H1869 N1862 0.984 . S
H1870 N1858 0.984 . S
H1871 N1858 0.985 . S
C1872 C1873 1.363 . S
C1872 C1878 1.379 . S
C1872 N1880 1.356 . S
C1873 C1872 1.363 . S
C1873 C1879 1.363 . S
C1874 C1875 1.363 . S
C1874 C1879 1.379 . S
C1874 N1881 1.356 . S
C1875 C1874 1.363 . S
C1875 C1878 1.363 . S
N1876 C1878 1.356 . S
N1876 H1888 0.984 . S
N1876 H1889 0.985 . S
N1877 C1879 1.356 . S
N1877 H1882 0.984 . S
N1877 H1883 0.985 . S
C1878 C1872 1.379 . S
C1878 C1875 1.363 . S
C1878 N1876 1.356 . S
C1879 C1873 1.363 . S
C1879 C1874 1.379 . S
C1879 N1877 1.356 . S
N1880 C1872 1.356 . S
N1880 H1886 0.984 . S
N1880 H1887 0.984 . S
N1881 C1874 1.356 . S
N1881 H1884 0.984 . S
N1881 H1885 0.985 . S
H1882 N1877 0.984 . S
H1883 N1877 0.985 . S
H1884 N1881 0.984 . S
H1885 N1881 0.985 . S
H1886 N1880 0.984 . S
H1887 N1880 0.984 . S
H1888 N1876 0.984 . S
H1889 N1876 0.985 . S
C1890 C1891 1.363 . S
C1890 C1896 1.379 . S
C1890 N1898 1.356 . S
C1891 C1890 1.363 . S
C1891 C1897 1.363 . S
C1892 C1893 1.363 . S
C1892 C1897 1.379 . S
C1892 N1899 1.356 . S
C1893 C1892 1.363 . S
C1893 C1896 1.363 . S
N1894 C1896 1.356 . S
N1894 H1906 0.984 . S
N1894 H1907 0.985 . S
N1895 C1897 1.356 . S
N1895 H1900 0.984 . S
N1895 H1901 0.985 . S
C1896 C1890 1.379 . S
C1896 C1893 1.363 . S
C1896 N1894 1.356 . S
C1897 C1891 1.363 . S
C1897 C1892 1.379 . S
C1897 N1895 1.356 . S
N1898 C1890 1.356 . S
N1898 H1904 0.984 . S
N1898 H1905 0.984 . S
N1899 C1892 1.356 . S
N1899 H1902 0.984 . S
N1899 H1903 0.985 . S
H1900 N1895 0.984 . S
H1901 N1895 0.985 . S
H1902 N1899 0.984 . S
H1903 N1899 0.985 . S
H1904 N1898 0.984 . S
H1905 N1898 0.984 . S
H1906 N1894 0.984 . S
H1907 N1894 0.985 . S
C1908 C1909 1.363 . S
C1908 C1914 1.379 . S
C1908 N1916 1.356 . S
C1909 C1908 1.363 . S
C1909 C1915 1.363 . S
C1910 C1911 1.363 . S
C1910 C1915 1.379 . S
C1910 N1917 1.356 . S
C1911 C1910 1.363 . S
C1911 C1914 1.363 . S
N1912 C1914 1.356 . S
N1912 H1924 0.984 . S
N1912 H1925 0.985 . S
N1913 C1915 1.356 . S
N1913 H1918 0.984 . S
N1913 H1919 0.985 . S
C1914 C1908 1.379 . S
C1914 C1911 1.363 . S
C1914 N1912 1.356 . S
C1915 C1909 1.363 . S
C1915 C1910 1.379 . S
C1915 N1913 1.356 . S
N1916 C1908 1.356 . S
N1916 H1922 0.984 . S
N1916 H1923 0.984 . S
N1917 C1910 1.356 . S
N1917 H1920 0.984 . S
N1917 H1921 0.985 . S
H1918 N1913 0.984 . S
H1919 N1913 0.985 . S
H1920 N1917 0.984 . S
H1921 N1917 0.985 . S
H1922 N1916 0.984 . S
H1923 N1916 0.984 . S
H1924 N1912 0.984 . S
H1925 N1912 0.985 . S
C955 C151 1.206 . S
C957 C254 1.182 . S
C973 C159 1.662 . S
C975 C338 1.733 . S
C991 C137 1.331 . S
C993 C432 1.453 . S
C1009 C126 1.289 . S
C1011 C348 1.436 . S
C1029 C422 1.692 . S
C1027 C104 1.632 . S
C1045 C118 1.173 . S
C1047 C264 1.177 . S
C1065 C265 1.377 . S
C1063 C129 1.435 . S
C1083 C349 1.544 . S
C1081 C107 1.618 . S
C1099 C115 1.252 . S
C1101 C441 1.448 . S
C1117 C148 1.257 . S
C1119 C357 1.430 . S
C1135 C162 1.578 . S
C1137 C433 1.499 . S
C1155 C273 1.379 . S
C1153 C140 1.411 . S
C1173 C506 1.182 . S
C1171 C19 1.206 1_455 S
C1189 C27 1.662 . S
C1191 C590 1.733 . S
C1207 C5 1.331 . S
C1209 C684 1.453 . S
C1225 C192 1.289 . S
C1227 C600 1.435 . S
C1243 C170 1.632 . S
C1245 C674 1.692 . S
C1261 C184 1.173 . S
C1263 C516 1.177 . S
C1279 C195 1.435 . S
C1281 C517 1.377 . S
C1297 C173 1.618 . S
C1299 C601 1.544 . S
C1317 C693 1.448 . S
C1315 C181 1.252 . S
C1333 C16 1.257 1_565 S
C1335 C609 1.430 . S
C1353 C685 1.499 . S
C1351 C30 1.578 1_455 S
C1369 C8 1.411 . S
C1371 C525 1.379 . S
C1389 C758 1.182 . S
C1387 C85 1.206 . S
C1405 C93 1.662 . S
C1407 C842 1.733 . S
C1425 C936 1.453 . S
C1423 C71 1.331 . S
C1443 C852 1.436 . S
C1441 C60 1.289 1_545 S
C1461 C926 1.692 . S
C1459 C38 1.632 . S
C1477 C52 1.173 . S
C1479 C768 1.177 . S
C1495 C63 1.435 1_655 S
C1497 C769 1.377 . S
C1513 C41 1.618 . S
C1515 C853 1.544 . S
C1533 C945 1.448 . S
C1531 C49 1.252 1_545 S
C1549 C82 1.257 . S
C1551 C861 1.429 . S
C1567 C96 1.579 . S
C1569 C937 1.499 . S
C1585 C74 1.411 . S
C1587 C777 1.379 . S
C1603 C172 1.573 . S
C1605 C261 1.468 . S
C1623 C345 1.253 . S
C1621 C183 1.335 . S
C1639 C194 1.474 . S
C1641 C438 1.335 . S
C1657 C73 1.500 . S
C1659 C354 1.343 . S
C1675 C84 1.322 . S
C1677 C429 1.244 . S
C1695 C270 1.453 . S
C1693 C95 1.559 . S
C1711 C40 1.573 . S
C1713 C513 1.468 . S
C1729 C51 1.335 . S
C1731 C597 1.253 . S
C1747 C62 1.474 . S
C1749 C690 1.335 . S
C1765 C139 1.500 . S
C1767 C606 1.343 . S
C1785 C681 1.244 . S
C1783 C150 1.321 . S
C1801 C161 1.559 . S
C1803 C522 1.453 . S
C1819 C106 1.573 . S
C1821 C765 1.468 . S
C1837 C117 1.335 . S
C1839 C849 1.253 . S
C1857 C942 1.335 . S
C1855 C128 1.474 . S
C1873 C7 1.500 . S
C1875 C858 1.343 . S
C1891 C18 1.322 . S
C1893 C933 1.244 . S
C1909 C29 1.559 . S
C1911 C774 1.453 . S
