# Generated by pormake.
# Topology gar, (4,6)-cn, num edge types: 1
# Building blocks:
#     Node 0, Type 0, BuildingBlock: QUQFOY_clean_sbu_3, # of connection points: 4
#     Node 1, Type 0, BuildingBlock: QUQFOY_clean_sbu_3, # of connection points: 4
#     Node 2, Type 0, BuildingBlock: QUQFOY_clean_sbu_3, # of connection points: 4
#     Node 3, Type 0, BuildingBlock: QUQFOY_clean_sbu_3, # of connection points: 4
#     Node 4, Type 0, BuildingBlock: QUQFOY_clean_sbu_3, # of connection points: 4
#     Node 5, Type 0, BuildingBlock: QUQFOY_clean_sbu_3, # of connection points: 4
#     Node 6, Type 0, BuildingBlock: QUQFOY_clean_sbu_3, # of connection points: 4
#     Node 7, Type 0, BuildingBlock: QUQFOY_clean_sbu_3, # of connection points: 4
#     Node 8, Type 0, BuildingBlock: QUQFOY_clean_sbu_3, # of connection points: 4
#     Node 9, Type 0, BuildingBlock: QUQFOY_clean_sbu_3, # of connection points: 4
#     Node 10, Type 0, BuildingBlock: QUQFOY_clean_sbu_3, # of connection points: 4
#     Node 11, Type 0, BuildingBlock: QUQFOY_clean_sbu_3, # of connection points: 4
#     Node 12, Type 0, BuildingBlock: QUQFOY_clean_sbu_3, # of connection points: 4
#     Node 13, Type 0, BuildingBlock: QUQFOY_clean_sbu_3, # of connection points: 4
#     Node 14, Type 0, BuildingBlock: QUQFOY_clean_sbu_3, # of connection points: 4
#     Node 15, Type 0, BuildingBlock: QUQFOY_clean_sbu_3, # of connection points: 4
#     Node 16, Type 0, BuildingBlock: QUQFOY_clean_sbu_3, # of connection points: 4
#     Node 17, Type 0, BuildingBlock: QUQFOY_clean_sbu_3, # of connection points: 4
#     Node 18, Type 0, BuildingBlock: QUQFOY_clean_sbu_3, # of connection points: 4
#     Node 19, Type 0, BuildingBlock: QUQFOY_clean_sbu_3, # of connection points: 4
#     Node 20, Type 0, BuildingBlock: QUQFOY_clean_sbu_3, # of connection points: 4
#     Node 21, Type 0, BuildingBlock: QUQFOY_clean_sbu_3, # of connection points: 4
#     Node 22, Type 0, BuildingBlock: QUQFOY_clean_sbu_3, # of connection points: 4
#     Node 23, Type 0, BuildingBlock: QUQFOY_clean_sbu_3, # of connection points: 4
#     Node 24, Type 1, BuildingBlock: BETDEL_clean_sbu_0, # of connection points: 6
#     Node 25, Type 1, BuildingBlock: BETDEL_clean_sbu_0, # of connection points: 6
#     Node 26, Type 1, BuildingBlock: BETDEL_clean_sbu_0, # of connection points: 6
#     Node 27, Type 1, BuildingBlock: BETDEL_clean_sbu_0, # of connection points: 6
#     Node 28, Type 1, BuildingBlock: BETDEL_clean_sbu_0, # of connection points: 6
#     Node 29, Type 1, BuildingBlock: BETDEL_clean_sbu_0, # of connection points: 6
#     Node 30, Type 1, BuildingBlock: BETDEL_clean_sbu_0, # of connection points: 6
#     Node 31, Type 1, BuildingBlock: BETDEL_clean_sbu_0, # of connection points: 6
#     Node 32, Type 1, BuildingBlock: BETDEL_clean_sbu_0, # of connection points: 6
#     Node 33, Type 1, BuildingBlock: BETDEL_clean_sbu_0, # of connection points: 6
#     Node 34, Type 1, BuildingBlock: BETDEL_clean_sbu_0, # of connection points: 6
#     Node 35, Type 1, BuildingBlock: BETDEL_clean_sbu_0, # of connection points: 6
#     Node 36, Type 1, BuildingBlock: BETDEL_clean_sbu_0, # of connection points: 6
#     Node 37, Type 1, BuildingBlock: BETDEL_clean_sbu_0, # of connection points: 6
#     Node 38, Type 1, BuildingBlock: BETDEL_clean_sbu_0, # of connection points: 6
#     Node 39, Type 1, BuildingBlock: BETDEL_clean_sbu_0, # of connection points: 6
#     Edge 40, Type (0, 1), BuildingBlock: KIFKEQ_clean_linker_1, # of connection points: 2
#     Edge 41, Type (0, 1), BuildingBlock: KIFKEQ_clean_linker_1, # of connection points: 2
#     Edge 42, Type (0, 1), BuildingBlock: KIFKEQ_clean_linker_1, # of connection points: 2
#     Edge 43, Type (0, 1), BuildingBlock: KIFKEQ_clean_linker_1, # of connection points: 2
#     Edge 44, Type (0, 1), BuildingBlock: KIFKEQ_clean_linker_1, # of connection points: 2
#     Edge 45, Type (0, 1), BuildingBlock: KIFKEQ_clean_linker_1, # of connection points: 2
#     Edge 46, Type (0, 1), BuildingBlock: KIFKEQ_clean_linker_1, # of connection points: 2
#     Edge 47, Type (0, 1), BuildingBlock: KIFKEQ_clean_linker_1, # of connection points: 2
#     Edge 48, Type (0, 1), BuildingBlock: KIFKEQ_clean_linker_1, # of connection points: 2
#     Edge 49, Type (0, 1), BuildingBlock: KIFKEQ_clean_linker_1, # of connection points: 2
#     Edge 50, Type (0, 1), BuildingBlock: KIFKEQ_clean_linker_1, # of connection points: 2
#     Edge 51, Type (0, 1), BuildingBlock: KIFKEQ_clean_linker_1, # of connection points: 2
#     Edge 52, Type (0, 1), BuildingBlock: KIFKEQ_clean_linker_1, # of connection points: 2
#     Edge 53, Type (0, 1), BuildingBlock: KIFKEQ_clean_linker_1, # of connection points: 2
#     Edge 54, Type (0, 1), BuildingBlock: KIFKEQ_clean_linker_1, # of connection points: 2
#     Edge 55, Type (0, 1), BuildingBlock: KIFKEQ_clean_linker_1, # of connection points: 2
#     Edge 56, Type (0, 1), BuildingBlock: KIFKEQ_clean_linker_1, # of connection points: 2
#     Edge 57, Type (0, 1), BuildingBlock: KIFKEQ_clean_linker_1, # of connection points: 2
#     Edge 58, Type (0, 1), BuildingBlock: KIFKEQ_clean_linker_1, # of connection points: 2
#     Edge 59, Type (0, 1), BuildingBlock: KIFKEQ_clean_linker_1, # of connection points: 2
#     Edge 60, Type (0, 1), BuildingBlock: KIFKEQ_clean_linker_1, # of connection points: 2
#     Edge 61, Type (0, 1), BuildingBlock: KIFKEQ_clean_linker_1, # of connection points: 2
#     Edge 62, Type (0, 1), BuildingBlock: KIFKEQ_clean_linker_1, # of connection points: 2
#     Edge 63, Type (0, 1), BuildingBlock: KIFKEQ_clean_linker_1, # of connection points: 2
#     Edge 64, Type (0, 1), BuildingBlock: KIFKEQ_clean_linker_1, # of connection points: 2
#     Edge 65, Type (0, 1), BuildingBlock: KIFKEQ_clean_linker_1, # of connection points: 2
#     Edge 66, Type (0, 1), BuildingBlock: KIFKEQ_clean_linker_1, # of connection points: 2
#     Edge 67, Type (0, 1), BuildingBlock: KIFKEQ_clean_linker_1, # of connection points: 2
#     Edge 68, Type (0, 1), BuildingBlock: KIFKEQ_clean_linker_1, # of connection points: 2
#     Edge 69, Type (0, 1), BuildingBlock: KIFKEQ_clean_linker_1, # of connection points: 2
#     Edge 70, Type (0, 1), BuildingBlock: KIFKEQ_clean_linker_1, # of connection points: 2
#     Edge 71, Type (0, 1), BuildingBlock: KIFKEQ_clean_linker_1, # of connection points: 2
#     Edge 72, Type (0, 1), BuildingBlock: KIFKEQ_clean_linker_1, # of connection points: 2
#     Edge 73, Type (0, 1), BuildingBlock: KIFKEQ_clean_linker_1, # of connection points: 2
#     Edge 74, Type (0, 1), BuildingBlock: KIFKEQ_clean_linker_1, # of connection points: 2
#     Edge 75, Type (0, 1), BuildingBlock: KIFKEQ_clean_linker_1, # of connection points: 2
#     Edge 76, Type (0, 1), BuildingBlock: KIFKEQ_clean_linker_1, # of connection points: 2
#     Edge 77, Type (0, 1), BuildingBlock: KIFKEQ_clean_linker_1, # of connection points: 2
#     Edge 78, Type (0, 1), BuildingBlock: KIFKEQ_clean_linker_1, # of connection points: 2
#     Edge 79, Type (0, 1), BuildingBlock: KIFKEQ_clean_linker_1, # of connection points: 2
#     Edge 80, Type (0, 1), BuildingBlock: KIFKEQ_clean_linker_1, # of connection points: 2
#     Edge 81, Type (0, 1), BuildingBlock: KIFKEQ_clean_linker_1, # of connection points: 2
#     Edge 82, Type (0, 1), BuildingBlock: KIFKEQ_clean_linker_1, # of connection points: 2
#     Edge 83, Type (0, 1), BuildingBlock: KIFKEQ_clean_linker_1, # of connection points: 2
#     Edge 84, Type (0, 1), BuildingBlock: KIFKEQ_clean_linker_1, # of connection points: 2
#     Edge 85, Type (0, 1), BuildingBlock: KIFKEQ_clean_linker_1, # of connection points: 2
#     Edge 86, Type (0, 1), BuildingBlock: KIFKEQ_clean_linker_1, # of connection points: 2
#     Edge 87, Type (0, 1), BuildingBlock: KIFKEQ_clean_linker_1, # of connection points: 2
#     Edge 88, Type (0, 1), BuildingBlock: KIFKEQ_clean_linker_1, # of connection points: 2
#     Edge 89, Type (0, 1), BuildingBlock: KIFKEQ_clean_linker_1, # of connection points: 2
#     Edge 90, Type (0, 1), BuildingBlock: KIFKEQ_clean_linker_1, # of connection points: 2
#     Edge 91, Type (0, 1), BuildingBlock: KIFKEQ_clean_linker_1, # of connection points: 2
#     Edge 92, Type (0, 1), BuildingBlock: KIFKEQ_clean_linker_1, # of connection points: 2
#     Edge 93, Type (0, 1), BuildingBlock: KIFKEQ_clean_linker_1, # of connection points: 2
#     Edge 94, Type (0, 1), BuildingBlock: KIFKEQ_clean_linker_1, # of connection points: 2
#     Edge 95, Type (0, 1), BuildingBlock: KIFKEQ_clean_linker_1, # of connection points: 2
#     Edge 96, Type (0, 1), BuildingBlock: KIFKEQ_clean_linker_1, # of connection points: 2
#     Edge 97, Type (0, 1), BuildingBlock: KIFKEQ_clean_linker_1, # of connection points: 2
#     Edge 98, Type (0, 1), BuildingBlock: KIFKEQ_clean_linker_1, # of connection points: 2
#     Edge 99, Type (0, 1), BuildingBlock: KIFKEQ_clean_linker_1, # of connection points: 2
#     Edge 100, Type (0, 1), BuildingBlock: KIFKEQ_clean_linker_1, # of connection points: 2
#     Edge 101, Type (0, 1), BuildingBlock: KIFKEQ_clean_linker_1, # of connection points: 2
#     Edge 102, Type (0, 1), BuildingBlock: KIFKEQ_clean_linker_1, # of connection points: 2
#     Edge 103, Type (0, 1), BuildingBlock: KIFKEQ_clean_linker_1, # of connection points: 2
#     Edge 104, Type (0, 1), BuildingBlock: KIFKEQ_clean_linker_1, # of connection points: 2
#     Edge 105, Type (0, 1), BuildingBlock: KIFKEQ_clean_linker_1, # of connection points: 2
#     Edge 106, Type (0, 1), BuildingBlock: KIFKEQ_clean_linker_1, # of connection points: 2
#     Edge 107, Type (0, 1), BuildingBlock: KIFKEQ_clean_linker_1, # of connection points: 2
#     Edge 108, Type (0, 1), BuildingBlock: KIFKEQ_clean_linker_1, # of connection points: 2
#     Edge 109, Type (0, 1), BuildingBlock: KIFKEQ_clean_linker_1, # of connection points: 2
#     Edge 110, Type (0, 1), BuildingBlock: KIFKEQ_clean_linker_1, # of connection points: 2
#     Edge 111, Type (0, 1), BuildingBlock: KIFKEQ_clean_linker_1, # of connection points: 2
#     Edge 112, Type (0, 1), BuildingBlock: KIFKEQ_clean_linker_1, # of connection points: 2
#     Edge 113, Type (0, 1), BuildingBlock: KIFKEQ_clean_linker_1, # of connection points: 2
#     Edge 114, Type (0, 1), BuildingBlock: KIFKEQ_clean_linker_1, # of connection points: 2
#     Edge 115, Type (0, 1), BuildingBlock: KIFKEQ_clean_linker_1, # of connection points: 2
#     Edge 116, Type (0, 1), BuildingBlock: KIFKEQ_clean_linker_1, # of connection points: 2
#     Edge 117, Type (0, 1), BuildingBlock: KIFKEQ_clean_linker_1, # of connection points: 2
#     Edge 118, Type (0, 1), BuildingBlock: KIFKEQ_clean_linker_1, # of connection points: 2
#     Edge 119, Type (0, 1), BuildingBlock: KIFKEQ_clean_linker_1, # of connection points: 2
#     Edge 120, Type (0, 1), BuildingBlock: KIFKEQ_clean_linker_1, # of connection points: 2
#     Edge 121, Type (0, 1), BuildingBlock: KIFKEQ_clean_linker_1, # of connection points: 2
#     Edge 122, Type (0, 1), BuildingBlock: KIFKEQ_clean_linker_1, # of connection points: 2
#     Edge 123, Type (0, 1), BuildingBlock: KIFKEQ_clean_linker_1, # of connection points: 2
#     Edge 124, Type (0, 1), BuildingBlock: KIFKEQ_clean_linker_1, # of connection points: 2
#     Edge 125, Type (0, 1), BuildingBlock: KIFKEQ_clean_linker_1, # of connection points: 2
#     Edge 126, Type (0, 1), BuildingBlock: KIFKEQ_clean_linker_1, # of connection points: 2
#     Edge 127, Type (0, 1), BuildingBlock: KIFKEQ_clean_linker_1, # of connection points: 2
#     Edge 128, Type (0, 1), BuildingBlock: KIFKEQ_clean_linker_1, # of connection points: 2
#     Edge 129, Type (0, 1), BuildingBlock: KIFKEQ_clean_linker_1, # of connection points: 2
#     Edge 130, Type (0, 1), BuildingBlock: KIFKEQ_clean_linker_1, # of connection points: 2
#     Edge 131, Type (0, 1), BuildingBlock: KIFKEQ_clean_linker_1, # of connection points: 2
#     Edge 132, Type (0, 1), BuildingBlock: KIFKEQ_clean_linker_1, # of connection points: 2
#     Edge 133, Type (0, 1), BuildingBlock: KIFKEQ_clean_linker_1, # of connection points: 2
#     Edge 134, Type (0, 1), BuildingBlock: KIFKEQ_clean_linker_1, # of connection points: 2
#     Edge 135, Type (0, 1), BuildingBlock: KIFKEQ_clean_linker_1, # of connection points: 2
# Relax obj value: 0.139
# Max RMSD: 0.271
# Mean RMSD: 0.140
data_MOF--net-gar--node1-QUQFOY_clean_sbu_3--node2-BETDEL_clean_sbu_0--edge1-KIFKEQ_clean_linker_1
_symmetry_space_group_name_H-M    P1
_symmetry_Int_Tables_number       1
_symmetry_cell_setting            triclinic
loop_
_symmetry_equiv_pos_as_xyz
'x, y, z'
_cell_length_a     57.204378
_cell_length_b     55.419963
_cell_length_c     56.432432
_cell_angle_alpha  96.219105
_cell_angle_beta   92.45099
_cell_angle_gamma 100.93388
loop_
_atom_site_label
_atom_site_type_symbol
_atom_site_fract_x
_atom_site_fract_y
_atom_site_fract_z
_atom_type_partial_charge
C0 C -0.00601 0.2923 0.36044 0.0
O1 O 0.00985 0.30218 0.34745 0.0
Cd2 Cd 0.05178 0.3063 0.35344 0.0
O3 O -0.00038 0.28194 0.37847 0.0
Cd4 Cd 0.03678 0.27293 0.39841 0.0
C5 C 0.05539 0.33553 0.41138 0.0
O6 O 0.05425 0.26579 0.36091 0.0
O7 O 0.07793 0.26576 0.39135 0.0
O8 O 0.01207 0.23343 0.40573 0.0
C9 C 0.07451 0.26334 0.36881 0.0
O10 O 0.05956 0.33603 0.38941 0.0
C11 C 0.02137 0.23334 0.42658 0.0
O12 O 0.04664 0.31524 0.41927 0.0
O13 O 0.0374 0.25195 0.4346 0.0
C14 C 0.96267 0.76539 0.6658 0.0
O15 O 0.97577 0.75188 0.67432 0.0
Cd16 Cd 0.011 0.7412 0.65943 0.0
O17 O 0.96772 0.7752 0.64668 0.0
Cd18 Cd 0.00079 0.77695 0.61809 0.0
C19 C 0.99068 0.7145 0.60203 0.0
O20 O 0.03136 0.77938 0.64919 0.0
O21 O 0.0435 0.77407 0.61399 0.0
O22 O 0.00126 0.8208 0.61547 0.0
C23 C 0.04843 0.77678 0.63634 0.0
O24 O -0.001 0.71283 0.62298 0.0
C25 C -0.00073 0.81904 0.59282 0.0
O26 O 0.98801 0.73535 0.59585 0.0
O27 O -0.00263 0.79748 0.58172 0.0
C28 C 0.4901 0.79111 0.86188 0.0
O29 O 0.506 0.8033 0.85041 0.0
Cd30 Cd 0.54799 0.80536 0.85421 0.0
O31 O 0.49567 0.77779 0.87753 0.0
Cd32 Cd 0.53375 0.76898 0.89542 0.0
C33 C 0.55317 0.83125 0.91251 0.0
O34 O 0.55187 0.76396 0.85761 0.0
O35 O 0.57534 0.76393 0.88831 0.0
O36 O 0.51343 0.72682 0.90022 0.0
C37 C 0.57213 0.76164 0.86574 0.0
O38 O 0.55817 0.8333 0.89096 0.0
C39 C 0.52006 0.72782 0.92215 0.0
O40 O 0.5434 0.81039 0.91866 0.0
O41 O 0.53258 0.7482 0.93186 0.0
C42 C 0.46322 0.26547 0.16649 0.0
O43 O 0.47528 0.25093 0.17487 0.0
Cd44 Cd 0.51003 0.23802 0.16136 0.0
O45 O 0.46895 0.27537 0.14754 0.0
Cd46 Cd 0.50196 0.27569 0.11888 0.0
C47 C 0.4912 0.21248 0.10342 0.0
O48 O 0.53069 0.27559 0.15064 0.0
O49 O 0.54594 0.27661 0.11669 0.0
O50 O 0.50249 0.31935 0.11538 0.0
C51 C 0.54888 0.27531 0.13885 0.0
O52 O 0.4982 0.21047 0.12472 0.0
C53 C 0.50025 0.31704 0.09271 0.0
O54 O 0.48984 0.23358 0.0969 0.0
O55 O 0.4982 0.29527 0.08204 0.0
C56 C -0.00288 0.78488 0.18613 0.0
O57 O 0.01233 0.77613 0.19793 0.0
Cd58 Cd 0.05254 0.77556 0.18854 0.0
O59 O 0.00247 0.79439 0.16696 0.0
Cd60 Cd 0.03797 0.80317 0.14248 0.0
C61 C 0.04305 0.74237 0.13244 0.0
O62 O 0.06466 0.81595 0.17744 0.0
O63 O 0.08227 0.81584 0.14476 0.0
O64 O 0.02267 0.83946 0.13285 0.0
C65 C 0.08407 0.81967 0.16737 0.0
O66 O 0.05053 0.7439 0.15426 0.0
C67 C 0.02638 0.83666 0.11079 0.0
O68 O 0.03613 0.76056 0.12421 0.0
O69 O 0.03526 0.8181 0.1034 0.0
C70 C 0.44996 0.75461 0.32831 0.0
O71 O 0.46453 0.77048 0.31887 0.0
Cd72 Cd 0.50464 0.78701 0.33265 0.0
O73 O 0.45596 0.74636 0.34749 0.0
Cd74 Cd 0.49341 0.75269 0.37403 0.0
C75 C 0.49642 0.81446 0.38815 0.0
O76 O 0.51652 0.74943 0.33954 0.0
O77 O 0.53775 0.75797 0.37268 0.0
O78 O 0.47963 0.71008 0.38258 0.0
C79 C 0.53679 0.75231 0.35026 0.0
O80 O 0.50423 0.81709 0.36761 0.0
C81 C 0.48774 0.71406 0.40425 0.0
O82 O 0.48965 0.793 0.39441 0.0
O83 O 0.49753 0.73616 0.41205 0.0
C84 C 0.49731 0.28198 0.68435 0.0
O85 O 0.51292 0.2733 0.69564 0.0
Cd86 Cd 0.5531 0.27433 0.68522 0.0
O87 O 0.50208 0.2918 0.66524 0.0
Cd88 Cd 0.53662 0.30078 0.63994 0.0
C89 C 0.54211 0.24041 0.62993 0.0
O90 O 0.56333 0.31511 0.67456 0.0
O91 O 0.58114 0.31377 0.64204 0.0
O92 O 0.51975 0.33602 0.63007 0.0
C93 C 0.58276 0.31896 0.66456 0.0
O94 O 0.55187 0.24273 0.65098 0.0
C95 C 0.52347 0.33326 0.608 0.0
O96 O 0.5333 0.25779 0.62231 0.0
O97 O 0.5332 0.31527 0.60076 0.0
C98 C 0.94861 0.25736 0.8299 0.0
O99 O 0.96308 0.27258 0.81964 0.0
Cd100 Cd 0.00302 0.28991 0.83305 0.0
O101 O 0.95504 0.24971 0.84926 0.0
Cd102 Cd 0.99338 0.25583 0.87485 0.0
C103 C -0.00546 0.31747 0.88859 0.0
O104 O 0.01682 0.25321 0.84025 0.0
O105 O 0.03759 0.26198 0.8737 0.0
O106 O 0.98076 0.21283 0.88293 0.0
C107 C 0.03701 0.25652 0.85128 0.0
O108 O 0.00037 0.32 0.86736 0.0
C109 C 0.98825 0.21684 0.90479 0.0
O110 O 0.99035 0.29615 0.89571 0.0
O111 O -0.00279 0.23909 0.91289 0.0
C112 C 0.44392 0.0408 0.31683 0.0
O113 O 0.45443 0.0287 0.30172 0.0
Cd114 Cd 0.43909 0.0119 0.26232 0.0
O115 O 0.42337 0.04527 0.31158 0.0
Cd116 Cd 0.39549 0.03726 0.27531 0.0
C117 C 0.38662 0.97519 0.27373 0.0
O118 O 0.42608 0.04623 0.24732 0.0
O119 O 0.39087 0.03031 0.23162 0.0
O120 O 0.38295 0.07646 0.28569 0.0
C121 C 0.41224 0.04012 0.2287 0.0
O122 O 0.40717 0.97603 0.26564 0.0
C123 C 0.36084 0.0674 0.28144 0.0
O124 O 0.37912 0.99493 0.27993 0.0
O125 O 0.355 0.04426 0.27535 0.0
C126 C 0.28904 0.10173 0.49771 0.0
O127 O 0.27054 0.08967 0.50575 0.0
Cd128 Cd 0.23325 0.10216 0.50899 0.0
O129 O 0.28865 0.12238 0.48975 0.0
Cd130 Cd 0.25834 0.14885 0.48341 0.0
C131 C 0.25132 0.15939 0.54269 0.0
O132 O 0.22457 0.11544 0.47172 0.0
O133 O 0.21544 0.1506 0.48261 0.0
O134 O 0.2704 0.15452 0.4431 0.0
C135 C 0.20846 0.12807 0.47429 0.0
O136 O 0.23964 0.13717 0.54029 0.0
C137 C 0.27395 0.17798 0.44581 0.0
O138 O 0.26185 0.16843 0.52521 0.0
O139 O 0.27111 0.18825 0.46646 0.0
C140 C 0.09708 0.00944 0.8143 0.0
O141 O 0.08695 0.02218 0.80119 0.0
Cd142 Cd 0.09473 0.03243 0.7622 0.0
O143 O 0.11447 -0.00033 0.80713 0.0
Cd144 Cd 0.13807 -0.0009 0.77015 0.0
C145 C 0.1533 0.06254 0.77597 0.0
O146 O 0.1041 0.99623 0.74265 0.0
O147 O 0.13741 0.00068 0.72609 0.0
O148 O 0.14185 0.956 0.77172 0.0
C149 C 0.115 -0.00111 0.72381 0.0
O150 O 0.13167 0.06252 0.76955 0.0
C151 C 0.16449 0.96001 0.77193 0.0
O152 O 0.16033 0.04239 0.77864 0.0
O153 O 0.175 0.98239 0.77194 0.0
C154 C 0.2727 0.92668 0.97348 0.0
O155 O 0.26012 0.93867 0.96199 0.0
Cd156 Cd 0.21813 0.93462 0.96409 0.0
O157 O 0.26321 0.91134 0.9873 0.0
Cd158 Cd 0.22338 0.89445 0.00105 0.0
C159 C 0.20438 0.8728 0.94336 0.0
O160 O 0.21576 0.9357 0.00643 0.0
O161 O 0.18668 0.908 0.01485 0.0
O162 O 0.24717 0.88622 0.03523 0.0
C163 C 0.19529 0.93073 0.01425 0.0
O164 O 0.20412 0.89497 0.93954 0.0
C165 C 0.23262 0.86679 0.03883 0.0
O166 O 0.21089 0.86803 0.96387 0.0
O167 O 0.21389 0.86044 0.02497 0.0
C168 C 0.29752 0.43186 0.01799 0.0
O169 O 0.28379 0.44168 0.00543 0.0
Cd170 Cd 0.24265 0.42832 -0.00362 0.0
O171 O 0.28957 0.41252 0.02797 0.0
Cd172 Cd 0.24958 0.38419 0.03008 0.0
C173 C 0.24847 0.37084 0.96914 0.0
O174 O 0.2308 0.41903 0.0344 0.0
O175 O 0.20556 0.38478 0.02891 0.0
O176 O 0.26028 0.3806 0.07195 0.0
C177 C 0.20931 0.40817 0.03339 0.0
O178 O 0.24403 0.39238 0.96808 0.0
C179 C 0.25299 0.35735 0.07074 0.0
O180 O 0.25159 0.36296 0.98925 0.0
O181 O 0.24494 0.3462 0.0503 0.0
C182 C 0.794 0.08637 0.02101 0.0
O183 O 0.78253 0.07915 0.03854 0.0
Cd184 Cd 0.75377 0.09862 0.05737 0.0
O185 O 0.79108 0.106 0.01231 0.0
Cd186 Cd 0.76492 0.13711 0.01957 0.0
C187 C 0.78277 0.15807 0.07716 0.0
O188 O 0.73065 0.10574 0.02387 0.0
O189 O 0.72478 0.14302 0.03108 0.0
O190 O 0.75447 0.13951 0.97796 0.0
C191 C 0.71616 0.11998 0.02821 0.0
O192 O 0.773 0.13661 0.08172 0.0
C193 C 0.76533 0.16161 0.97762 0.0
O194 O 0.78325 0.16327 0.05576 0.0
O195 O 0.77709 0.17235 -0.00333 0.0
C196 C 0.06835 0.48894 0.25851 0.0
O197 O 0.05805 0.49491 0.24024 0.0
Cd198 Cd 0.07397 0.49777 0.20191 0.0
O199 O 0.08931 0.48421 0.2579 0.0
Cd200 Cd 0.12052 0.48302 0.22912 0.0
C201 C 0.12289 0.543 0.21978 0.0
O202 O 0.09206 0.46236 0.19764 0.0
O203 O 0.12721 0.47332 0.18646 0.0
O204 O 0.13665 0.45463 0.25262 0.0
C205 C 0.10562 0.46354 0.18061 0.0
O206 O 0.10406 0.53656 0.20588 0.0
C207 C 0.15815 0.46339 0.24873 0.0
O208 O 0.13076 0.52755 0.23149 0.0
O209 O 0.16189 0.48119 0.23617 0.0
C210 C 0.7947 0.92863 0.51337 0.0
O211 O 0.78055 0.93724 0.50018 0.0
Cd212 Cd 0.73895 0.92302 0.49492 0.0
O213 O 0.78713 0.91026 0.52475 0.0
Cd214 Cd 0.74737 0.8821 0.52695 0.0
C215 C 0.74343 0.86657 0.4668 0.0
O216 O 0.7281 0.91703 0.53448 0.0
O217 O 0.70369 0.88265 0.52447 0.0
O218 O 0.76261 0.87522 0.56663 0.0
C219 C 0.70679 0.90537 0.53249 0.0
O220 O 0.73582 0.88659 0.46568 0.0
C221 C 0.75043 0.85346 0.56614 0.0
O222 O 0.75058 0.86089 0.48678 0.0
O223 O 0.73757 0.84466 0.54715 0.0
C224 C 0.91447 0.01504 0.26873 0.0
O225 O 0.9253 0.0059 0.25186 0.0
Cd226 Cd 0.91416 0.00332 0.21054 0.0
O227 O 0.89672 0.02516 0.26428 0.0
Cd228 Cd 0.87385 0.03309 0.22773 0.0
C229 C 0.85747 0.97054 0.2148 0.0
O230 O 0.90774 0.04344 0.20391 0.0
O231 O 0.87385 0.03556 0.18388 0.0
O232 O 0.8711 0.07432 0.24666 0.0
C233 C 0.89626 0.04288 0.18415 0.0
O234 O 0.87834 0.97101 0.20764 0.0
C235 C 0.84863 0.07162 0.24306 0.0
O236 O 0.85123 0.99036 0.22355 0.0
O237 O 0.83772 0.05075 0.23274 0.0
C238 C 0.29111 0.58948 0.52089 0.0
O239 O 0.27556 0.58105 0.53482 0.0
Cd240 Cd 0.24493 0.6016 0.54769 0.0
O241 O 0.29115 0.61026 0.51307 0.0
Cd242 Cd 0.2661 0.64264 0.51552 0.0
C243 C 0.27586 0.65812 0.57459 0.0
O244 O 0.22962 0.61233 0.51119 0.0
O245 O 0.22483 0.64974 0.51996 0.0
O246 O 0.27351 0.64562 0.47383 0.0
C247 C 0.21547 0.62719 0.51389 0.0
O248 O 0.2627 0.63717 0.57621 0.0
C249 C 0.27717 0.66905 0.47554 0.0
O250 O 0.28131 0.66471 0.55433 0.0
O251 O 0.27666 0.68043 0.49622 0.0
C252 C 0.41524 0.52118 0.77096 0.0
O253 O 0.42822 0.51414 0.75495 0.0
Cd254 Cd 0.41601 0.50769 0.7136 0.0
O255 O 0.39586 0.528 0.76523 0.0
Cd256 Cd 0.37337 0.53444 0.72792 0.0
C257 C 0.36021 0.47201 0.71835 0.0
O258 O 0.40685 0.54585 0.70363 0.0
O259 O 0.37297 0.53297 0.68379 0.0
O260 O 0.36936 0.57567 0.74551 0.0
C261 C 0.39494 0.54258 0.68373 0.0
O262 O 0.38157 0.47337 0.71226 0.0
C263 C 0.34682 0.57213 0.74208 0.0
O264 O 0.3525 0.49152 0.72536 0.0
O265 O 0.33644 0.55089 0.73216 0.0
C266 C 0.57101 0.99327 0.76036 0.0
O267 O 0.56032 -0.00011 0.74269 0.0
Cd268 Cd 0.57472 0.00122 0.70363 0.0
O269 O 0.59121 0.98689 0.75843 0.0
Cd270 Cd 0.62001 0.9827 0.72753 0.0
C271 C 0.6262 0.0434 0.71894 0.0
O272 O 0.58889 0.96321 0.69854 0.0
O273 O 0.62297 0.97084 0.68386 0.0
O274 O 0.63389 0.95104 0.74817 0.0
C275 C 0.60089 0.96161 0.68042 0.0
O276 O 0.60643 0.03861 0.70646 0.0
C277 C 0.65588 0.96025 0.74701 0.0
O278 O 0.63359 0.0268 0.72934 0.0
O279 O 0.66089 0.97969 0.73676 0.0
C280 C 0.78892 0.60335 -0.00399 0.0
O281 O 0.77077 0.59075 0.00419 0.0
Cd282 Cd 0.73232 0.60061 0.0065 0.0
O283 O 0.78772 0.62349 0.98734 0.0
Cd284 Cd 0.75686 0.6487 0.9793 0.0
C285 C 0.74863 0.65908 0.03861 0.0
O286 O 0.72586 0.61314 0.96863 0.0
O287 O 0.71314 0.64719 0.97295 0.0
O288 O 0.77221 0.6544 0.94024 0.0
C289 C 0.70831 0.62386 0.96787 0.0
O290 O 0.73788 0.63652 0.03671 0.0
C291 C 0.77409 0.67774 0.94231 0.0
O292 O 0.75859 0.66825 0.02091 0.0
O293 O 0.7687 0.68791 0.96207 0.0
C294 C 0.94614 0.54112 0.81549 0.0
O295 O 0.9558 0.52658 0.80191 0.0
Cd296 Cd 0.9408 0.50616 0.76364 0.0
O297 O 0.92625 0.54655 0.80922 0.0
Cd298 Cd 0.89855 0.53659 0.77281 0.0
C299 C 0.88661 0.47472 0.77732 0.0
O300 O 0.93013 0.53984 0.74581 0.0
O301 O 0.89482 0.52847 0.72871 0.0
O302 O 0.88919 0.57783 0.77635 0.0
C303 C 0.91705 0.53463 0.72667 0.0
O304 O 0.90735 0.47351 0.77056 0.0
C305 C 0.86673 0.57023 0.77545 0.0
O306 O 0.8798 0.49532 0.78015 0.0
O307 O 0.85925 0.54707 0.77462 0.0
C308 C 0.77389 0.42539 0.47634 0.0
O309 O 0.76125 0.43699 0.46443 0.0
Cd310 Cd 0.71897 0.43173 0.46444 0.0
O311 O 0.76436 0.40958 0.48967 0.0
Cd312 Cd 0.72449 0.3912 0.50183 0.0
C313 C 0.70763 0.36988 0.44354 0.0
O314 O 0.71443 0.43108 0.50614 0.0
O315 O 0.68589 0.40213 0.51342 0.0
O316 O 0.74482 0.38727 0.53948 0.0
C317 C 0.69359 0.42507 0.51279 0.0
O318 O 0.70678 0.39196 0.43979 0.0
C319 C 0.73439 0.36506 0.54045 0.0
O320 O 0.71385 0.3651 0.46414 0.0
O321 O 0.71932 0.35502 0.52337 0.0
C322 C 0.59413 0.50325 0.31334 0.0
O323 O 0.58333 0.51505 0.29981 0.0
Cd324 Cd 0.59512 0.53035 0.26351 0.0
O325 O 0.61382 0.49702 0.30782 0.0
Cd326 Cd 0.6399 0.49961 0.2725 0.0
C327 C 0.6526 0.56297 0.28046 0.0
O328 O 0.60745 0.49631 0.24293 0.0
O329 O 0.64199 0.50311 0.22885 0.0
O330 O 0.64441 0.4566 0.27272 0.0
C331 C 0.6196 0.5003 0.22508 0.0
O332 O 0.63089 0.56206 0.27359 0.0
C333 C 0.66708 0.46108 0.27408 0.0
O334 O 0.66047 0.54321 0.28277 0.0
O335 O 0.67731 0.4837 0.27551 0.0
Dy336 Dy 0.9771 0.01155 0.99303 0.0
C337 C 0.07661 0.03724 0.02234 0.0
C338 C 0.92895 0.00545 0.98513 0.0
Dy339 Dy 0.02876 0.03237 0.01261 0.0
O340 O 0.94435 0.01174 0.96956 0.0
O341 O 0.93991 0.00179 0.00462 0.0
O342 O 0.98979 0.98748 0.96347 0.0
O343 O 0.01093 0.02173 0.97731 0.0
C344 C 0.01044 0.00223 0.96344 0.0
C345 C -0.00451 0.04208 0.04204 0.0
O346 O 0.02262 0.06495 0.99502 0.0
O347 O 0.98133 0.05267 0.99207 0.0
O348 O 0.06072 0.03579 0.03813 0.0
O349 O 0.06635 0.03704 0.00133 0.0
O350 O 0.01605 0.05688 0.04161 0.0
O351 O -0.0051 0.02234 0.02843 0.0
O352 O 0.98294 0.97917 0.01076 0.0
O353 O 0.02418 0.9913 0.01485 0.0
C354 C 0.001 0.06933 0.99031 0.0
C355 C 0.00433 0.97474 0.01616 0.0
Dy356 Dy 0.25763 0.76231 0.22524 0.0
C357 C 0.26178 0.7435 0.32339 0.0
C358 C 0.25675 0.77737 0.18087 0.0
Dy359 Dy 0.25355 0.75819 0.27992 0.0
O360 O 0.27433 0.78417 0.19696 0.0
O361 O 0.23971 0.76198 0.18884 0.0
O362 O 0.28573 0.73847 0.22442 0.0
O363 O 0.28167 0.76118 0.25542 0.0
C364 C 0.29212 0.74456 0.24703 0.0
C365 C 0.21947 0.77699 0.25904 0.0
O366 O 0.27889 0.7941 0.28041 0.0
O367 O 0.2656 0.80167 0.24303 0.0
O368 O 0.24947 0.76039 0.31964 0.0
O369 O 0.26904 0.73452 0.30347 0.0
O370 O 0.2256 0.7821 0.28182 0.0
O371 O 0.2296 0.76031 0.25002 0.0
O372 O 0.23358 0.72526 0.22271 0.0
O373 O 0.23725 0.71958 0.26305 0.0
C374 C 0.27753 0.80931 0.26405 0.0
C375 C 0.22983 0.7114 0.24044 0.0
Dy376 Dy 0.5388 0.02281 0.51407 0.0
C377 C 0.44002 0.03349 0.50724 0.0
C378 C 0.58162 0.00873 0.5199 0.0
Dy379 Dy 0.48377 0.02185 0.51437 0.0
O380 O 0.57104 0.01033 0.49947 0.0
O381 O 0.56932 0.01594 0.53715 0.0
O382 O 0.54134 0.0474 0.48463 0.0
O383 O 0.50989 0.02144 0.48776 0.0
C384 C 0.51916 0.0391 0.47683 0.0
C385 C 0.50368 0.00515 0.55124 0.0
O386 O 0.48289 0.98541 0.49262 0.0
O387 O 0.52125 0.98262 0.50579 0.0
O388 O 0.44612 0.02176 0.52453 0.0
O389 O 0.45766 0.03847 0.49373 0.0
O390 O 0.48166 0.99641 0.54328 0.0
O391 O 0.51253 0.02299 0.54045 0.0
O392 O 0.5409 0.05986 0.53447 0.0
O393 O 0.50086 0.06191 0.52663 0.0
C394 C 0.50016 0.97262 0.49465 0.0
C395 C 0.52308 0.0721 0.53501 0.0
Dy396 Dy 0.23441 0.26621 0.75661 0.0
C397 C 0.33578 0.27755 0.75 0.0
C398 C 0.18784 0.25509 0.7671 0.0
Dy399 Dy 0.28861 0.26868 0.75868 0.0
O400 O 0.19654 0.27204 0.75392 0.0
O401 O 0.20444 0.2439 0.77397 0.0
O402 O 0.23839 0.29995 0.73739 0.0
O403 O 0.26582 0.29593 0.76183 0.0
C404 C 0.26009 0.30873 0.74618 0.0
C405 C 0.26212 0.22601 0.76825 0.0
O406 O 0.286 0.28746 0.79545 0.0
O407 O 0.24501 0.27427 0.79601 0.0
O408 O 0.32539 0.26018 0.76186 0.0
O409 O 0.3205 0.29044 0.74329 0.0
O410 O 0.28346 0.23464 0.77805 0.0
O411 O 0.25727 0.23935 0.75284 0.0
O412 O 0.23694 0.24766 0.71991 0.0
O413 O 0.27801 0.26035 0.71909 0.0
C414 C 0.26614 0.28419 0.80704 0.0
C415 C 0.25672 0.25055 0.70816 0.0
Dy416 Dy -0.00333 0.01372 0.4812 0.0
C417 C 0.03595 0.04486 0.57672 0.0
C418 C 0.9736 0.00238 0.43691 0.0
Dy419 Dy 0.01184 0.03528 0.53285 0.0
O420 O -0.00474 -0.00014 0.44216 0.0
O421 O 0.96423 0.01036 0.45605 0.0
O422 O 0.03476 0.01149 0.47485 0.0
O423 O 0.02717 0.04009 0.49872 0.0
C424 C 0.04369 0.0305 0.49025 0.0
C425 C 0.96489 0.01925 0.52372 0.0
O426 O 0.01026 0.07119 0.51866 0.0
O427 O 0.98992 0.05276 0.48272 0.0
O428 O 0.01298 0.04168 0.57289 0.0
O429 O 0.04588 0.04396 0.55645 0.0
O430 O 0.97392 0.03777 0.53971 0.0
O431 O 0.98121 0.00934 0.51517 0.0
O432 O -0.004 0.97807 0.49664 0.0
O433 O 0.01985 -0.0033 0.53033 0.0
C434 C -0.00142 0.07269 0.49817 0.0
C435 C 0.00935 0.97658 0.51603 0.0
Dy436 Dy 0.28117 0.77838 0.77517 0.0
C437 C 0.19312 0.74091 0.72043 0.0
C438 C 0.32268 0.79286 0.80301 0.0
Dy439 Dy 0.23115 0.75258 0.75309 0.0
O440 O 0.31894 0.79911 0.78186 0.0
O441 O 0.3034 0.77925 0.80935 0.0
O442 O 0.29327 0.78468 0.73818 0.0
O443 O 0.26724 0.7543 0.74307 0.0
C444 C 0.27777 0.766 0.72761 0.0
C445 C 0.23369 0.76404 0.80069 0.0
O446 O 0.24726 0.71896 0.75477 0.0
O447 O 0.27945 0.73824 0.78108 0.0
O448 O 0.19295 0.73463 0.74201 0.0
O449 O 0.21415 0.75289 0.71669 0.0
O450 O 0.21856 0.7454 0.78933 0.0
O451 O 0.24478 0.77636 0.78575 0.0
O452 O 0.26461 0.812 0.77451 0.0
O453 O 0.23256 0.79277 0.74819 0.0
C454 C 0.26586 0.71792 0.7693 0.0
C455 C 0.24594 0.81306 0.76009 0.0
Dy456 Dy 0.49368 0.01651 0.02348 0.0
C457 C 0.50606 0.00424 0.92232 0.0
C458 C 0.48045 0.0233 0.06883 0.0
Dy459 Dy 0.49894 0.0162 0.96891 0.0
O460 O 0.49018 0.04098 0.05695 0.0
O461 O 0.47828 0.00193 0.05607 0.0
O462 O 0.52004 0.99105 0.02535 0.0
O463 O 0.49814 0.98929 0.99425 0.0
C464 C 0.5152 0.98126 0.00327 0.0
C465 C 0.49173 0.05878 0.99194 0.0
O466 O 0.46163 0.99457 0.96821 0.0
O467 O 0.45648 -0.00026 0.00917 0.0
O468 O 0.49091 0.01772 0.92981 0.0
O469 O 0.51715 -0.00259 0.9402 0.0
O470 O 0.50403 0.05789 0.97315 0.0
O471 O 0.48269 0.03723 -0.00403 0.0
O472 O 0.52789 0.04329 0.02247 0.0
O473 O 0.5364 0.02799 0.98462 0.0
C474 C 0.44837 0.99146 0.9868 0.0
C475 C 0.54292 0.04149 0.00551 0.0
Dy476 Dy 0.26901 0.29939 0.2688 0.0
C477 C 0.26796 0.19694 0.26077 0.0
C478 C 0.26423 0.34752 0.27572 0.0
Dy479 Dy 0.26154 0.24308 0.25436 0.0
O480 O 0.26187 0.33236 0.29177 0.0
O481 O 0.26965 0.3365 0.25577 0.0
O482 O 0.29096 0.29514 0.30171 0.0
O483 O 0.26232 0.26702 0.28749 0.0
C484 C 0.27924 0.27289 0.30333 0.0
C485 C 0.25142 0.2689 0.21903 0.0
O486 O 0.22655 0.24474 0.26912 0.0
O487 O 0.22881 0.2866 0.26659 0.0
O488 O 0.25761 0.20226 0.24148 0.0
O489 O 0.2749 0.21664 0.27573 0.0
O490 O 0.24119 0.24585 0.21987 0.0
O491 O 0.26773 0.27543 0.23547 0.0
O492 O 0.30476 0.29869 0.25441 0.0
O493 O 0.30084 0.25577 0.25057 0.0
C494 C 0.21669 0.26454 0.27043 0.0
C495 C 0.31362 0.27833 0.24978 0.0
Dy496 Dy 0.49661 0.51099 0.98029 0.0
C497 C 0.54282 0.54068 0.07396 0.0
C498 C 0.46899 0.50108 0.93842 0.0
Dy499 Dy 0.51678 0.53161 0.03113 0.0
O500 O 0.48879 0.49343 0.94221 0.0
O501 O 0.46394 0.51345 0.95776 0.0
O502 O 0.5332 0.50808 0.969 0.0
O503 O 0.52913 0.53594 -0.00438 0.0
C504 C 0.54417 0.52588 0.98477 0.0
C505 C 0.46925 0.51706 0.02572 0.0
O506 O 0.51615 0.56784 0.01725 0.0
O507 O 0.49095 0.55053 0.98384 0.0
O508 O 0.52006 0.53991 0.07104 0.0
O509 O 0.55166 0.53751 0.05328 0.0
O510 O 0.4798 0.53519 0.0414 0.0
O511 O 0.48448 0.5068 0.01554 0.0
O512 O 0.49597 0.47517 -0.00433 0.0
O513 O 0.52359 0.49262 0.02695 0.0
C514 C 0.50219 0.57009 -0.00149 0.0
C515 C 0.51108 0.4729 0.01346 0.0
Dy516 Dy 0.78658 0.28153 0.2734 0.0
C517 C 0.69621 0.24263 0.22229 0.0
C518 C 0.82661 0.29525 0.30343 0.0
Dy519 Dy 0.73681 0.25554 0.25152 0.0
O520 O 0.82324 0.30433 0.28354 0.0
O521 O 0.8079 0.27911 0.30712 0.0
O522 O 0.79909 0.28847 0.23671 0.0
O523 O 0.77288 0.25797 0.24092 0.0
C524 C 0.7835 0.27006 0.22573 0.0
C525 C 0.74017 0.26581 0.29926 0.0
O526 O 0.75286 0.22186 0.25251 0.0
O527 O 0.78548 0.2412 0.27825 0.0
O528 O 0.69758 0.24038 0.24495 0.0
O529 O 0.71723 0.25117 0.2154 0.0
O530 O 0.72579 0.24667 0.28784 0.0
O531 O 0.75041 0.27893 0.28445 0.0
O532 O 0.76926 0.31467 0.2735 0.0
O533 O 0.73808 0.29559 0.24618 0.0
C534 C 0.77178 0.22088 0.26661 0.0
C535 C 0.75085 0.3158 0.25877 0.0
Dy536 Dy -0.0041 0.52177 0.52021 0.0
C537 C 0.00171 0.50515 0.41842 0.0
C538 C 0.98561 0.52809 0.5666 0.0
Dy539 Dy -0.00333 0.51983 0.46491 0.0
O540 O 0.98795 0.5072 0.55505 0.0
O541 O 0.98917 0.54565 0.55291 0.0
O542 O 0.02459 0.49888 0.52018 0.0
O543 O -0.00036 0.49432 0.49094 0.0
C544 C 0.01817 0.48787 0.49872 0.0
C545 C 0.98826 0.56193 0.4878 0.0
O546 O 0.96056 0.49687 0.46716 0.0
O547 O 0.95874 0.5015 0.50868 0.0
O548 O 0.98655 0.5187 0.42576 0.0
O549 O 0.01401 0.49997 0.43637 0.0
O550 O -0.00101 0.56122 0.46794 0.0
O551 O 0.98119 0.54034 0.49291 0.0
O552 O 0.02841 0.55021 0.51638 0.0
O553 O 0.03454 0.53481 0.47774 0.0
C554 C 0.94916 0.49293 0.4868 0.0
C555 C 0.04196 0.54915 0.498 0.0
Dy556 Dy 0.73163 0.7645 0.2519 0.0
C557 C 0.83343 0.77809 0.24781 0.0
C558 C 0.68512 0.75205 0.26206 0.0
Dy559 Dy 0.78599 0.76828 0.25562 0.0
O560 O 0.69344 0.7693 0.24902 0.0
O561 O 0.70207 0.7413 0.26888 0.0
O562 O 0.73537 0.79805 0.23244 0.0
O563 O 0.76247 0.79487 0.25771 0.0
C564 C 0.75678 0.8074 0.24178 0.0
C565 C 0.76006 0.72548 0.26544 0.0
O566 O 0.78214 0.78651 0.2925 0.0
O567 O 0.74105 0.77325 0.29123 0.0
O568 O 0.82297 0.76027 0.25911 0.0
O569 O 0.81806 0.79094 0.24122 0.0
O570 O 0.78109 0.7348 0.27568 0.0
O571 O 0.75523 0.73824 0.24947 0.0
O572 O 0.73509 0.74601 0.21563 0.0
O573 O 0.77621 0.75911 0.2158 0.0
C574 C 0.76168 0.78323 0.30316 0.0
C575 C 0.75515 0.74909 0.20443 0.0
Dy576 Dy 0.75385 0.26572 0.73154 0.0
C577 C 0.74779 0.24464 0.8295 0.0
C578 C 0.7499 0.28327 0.68874 0.0
Dy579 Dy 0.74775 0.26038 0.78539 0.0
O580 O 0.75781 0.26321 0.69179 0.0
O581 O 0.74421 0.29341 0.7089 0.0
O582 O 0.78291 0.24321 0.73029 0.0
O583 O 0.77719 0.26346 0.7622 0.0
C584 C 0.78811 0.24744 0.75324 0.0
C585 C 0.71454 0.27943 0.76306 0.0
O586 O 0.77186 0.29755 0.78927 0.0
O587 O 0.76825 0.30425 0.74933 0.0
O588 O 0.73159 0.23622 0.81228 0.0
O589 O 0.76381 0.26201 0.82283 0.0
O590 O 0.72028 0.28502 0.78583 0.0
O591 O 0.72469 0.26253 0.75479 0.0
O592 O 0.72764 0.23031 0.72938 0.0
O593 O 0.74024 0.22136 0.76642 0.0
C594 C 0.77528 0.31207 0.77203 0.0
C595 C 0.72869 0.21443 0.74511 0.0
Dy596 Dy 0.76682 0.79677 0.76551 0.0
C597 C 0.76518 0.6928 0.74668 0.0
C598 C 0.76246 0.84514 0.77153 0.0
Dy599 Dy 0.75972 0.74085 0.7498 0.0
O600 O 0.76158 0.83091 0.78838 0.0
O601 O 0.76616 0.83304 0.75151 0.0
O602 O 0.79012 0.7929 0.79757 0.0
O603 O 0.76209 0.76394 0.78375 0.0
C604 C 0.77956 0.77016 0.79895 0.0
C605 C 0.74766 0.76725 0.71568 0.0
O606 O 0.72453 0.74134 0.76483 0.0
O607 O 0.72688 0.78371 0.76536 0.0
O608 O 0.76954 0.70712 0.73 0.0
O609 O 0.75711 0.70455 0.76467 0.0
O610 O 0.7375 0.74431 0.71687 0.0
O611 O 0.76469 0.77369 0.73141 0.0
O612 O 0.80193 0.79613 0.74999 0.0
O613 O 0.79955 0.75408 0.75164 0.0
C614 C 0.71489 0.76126 0.76804 0.0
C615 C 0.81163 0.77617 0.74805 0.0
Dy616 Dy 0.47297 0.50864 0.49164 0.0
C617 C 0.57268 0.53027 0.51917 0.0
C618 C 0.42486 0.50409 0.48471 0.0
Dy619 Dy 0.52504 0.52718 0.50972 0.0
O620 O 0.44028 0.51219 0.46979 0.0
O621 O 0.43575 0.49766 0.50293 0.0
O622 O 0.48347 0.4836 0.46162 0.0
O623 O 0.5065 0.51703 0.47457 0.0
C624 C 0.50456 0.49721 0.46074 0.0
C625 C 0.49354 0.53924 0.54034 0.0
O626 O 0.51981 0.56024 0.49247 0.0
O627 O 0.47846 0.54986 0.49134 0.0
O628 O 0.55672 0.52826 0.53485 0.0
O629 O 0.56264 0.53156 0.49839 0.0
O630 O 0.5148 0.55249 0.53956 0.0
O631 O 0.49145 0.51921 0.52675 0.0
O632 O 0.47803 0.47602 0.50949 0.0
O633 O 0.51931 0.48604 0.5112 0.0
C634 C 0.49846 0.56571 0.48879 0.0
C635 C 0.49916 0.47041 0.51361 0.0
Dy636 Dy 0.04026 0.52611 0.01256 0.0
C637 C 0.94264 0.54071 0.00722 0.0
C638 C 0.07963 0.50698 0.02199 0.0
Dy639 Dy 0.98576 0.52771 0.0137 0.0
O640 O 0.07978 0.52641 0.0108 0.0
O641 O 0.05831 0.49855 0.02797 0.0
O642 O 0.04403 0.54711 0.98057 0.0
O643 O 0.01119 0.52486 0.98656 0.0
C644 C 0.02129 0.54097 0.97431 0.0
C645 C 0.00645 0.51393 0.05209 0.0
O646 O 0.98239 0.49061 0.99241 0.0
O647 O 0.0216 0.48663 0.00079 0.0
O648 O 0.94795 0.52715 0.02328 0.0
O649 O 0.96077 0.54693 0.99459 0.0
O650 O 0.98409 0.5054 0.04536 0.0
O651 O 0.01513 0.52999 0.03931 0.0
O652 O 0.04293 0.56333 0.03375 0.0
O653 O 0.00404 0.5676 0.02383 0.0
C654 C -0.00068 0.47722 0.99231 0.0
C655 C 0.02617 0.57699 0.03291 0.0
H656 H 0.96582 0.16854 0.89406 0.0
H657 H 0.01065 0.21885 0.94892 0.0
H658 H 0.96825 0.13419 0.9171 0.0
H659 H 0.01308 0.18439 0.97194 0.0
H660 H 0.03605 0.10952 0.9853 0.0
H661 H 0.03168 0.14631 0.96655 0.0
H662 H 0.95569 0.11899 0.95576 0.0
H663 H 0.9599 0.08234 0.97437 0.0
C664 C 0.97599 0.1723 0.91114 0.0
C665 C 0.98804 0.1964 0.91966 0.0
C666 C 0.97731 0.15264 0.92438 0.0
C667 C 0.99091 0.15661 0.9463 0.0
C668 C 0.00265 0.18077 0.95501 0.0
C669 C 0.0011 0.20049 0.94189 0.0
C670 C 0.01838 0.11148 0.97919 0.0
C671 C -0.00163 0.09287 0.98124 0.0
C672 C 0.01587 0.1326 0.96853 0.0
C673 C 0.99336 0.13541 0.95954 0.0
C674 C 0.9733 0.11718 0.96225 0.0
C675 C 0.97575 0.09622 0.97306 0.0
H676 H 0.12806 0.81919 0.1502 0.0
H677 H 0.09171 0.82326 0.21566 0.0
H678 H 0.16389 0.81406 0.17263 0.0
H679 H 0.1272 0.81758 0.23791 0.0
H680 H 0.20138 0.76232 0.21359 0.0
H681 H 0.17189 0.77873 0.19137 0.0
H682 H 0.16882 0.83254 0.25206 0.0
H683 H 0.19854 0.81581 0.27443 0.0
C684 C 0.12785 0.81942 0.1694 0.0
C685 C 0.10697 0.82122 0.18111 0.0
C686 C 0.14831 0.81635 0.18223 0.0
C687 C 0.14825 0.81502 0.20699 0.0
C688 C 0.12791 0.81865 0.2189 0.0
C689 C 0.10749 0.82175 0.20609 0.0
C690 C 0.19472 0.77792 0.22205 0.0
C691 C 0.20221 0.78783 0.24568 0.0
C692 C 0.1779 0.78744 0.20927 0.0
C693 C 0.1681 0.80706 0.21988 0.0
C694 C 0.17595 0.81732 0.24345 0.0
C695 C 0.1929 0.80777 0.25625 0.0
H696 H 0.46781 0.81824 0.42559 0.0
H697 H 0.52271 0.86087 0.38839 0.0
H698 H 0.4665 0.85541 0.45314 0.0
H699 H 0.52172 0.89757 0.4162 0.0
H700 H 0.53417 0.94438 0.48986 0.0
H701 H 0.53157 0.90517 0.46511 0.0
H702 H 0.45735 0.90332 0.44629 0.0
H703 H 0.45985 0.94326 0.47086 0.0
C704 C 0.47961 0.83548 0.42335 0.0
C705 C 0.4954 0.83666 0.40487 0.0
C706 C 0.47874 0.85668 0.439 0.0
C707 C 0.49404 0.87918 0.43671 0.0
C708 C 0.50981 0.88035 0.4183 0.0
C709 C 0.51032 0.85938 0.4024 0.0
C710 C 0.51713 0.93564 0.48075 0.0
C711 C 0.49724 0.94717 0.48219 0.0
C712 C 0.51573 0.91317 0.46654 0.0
C713 C 0.49435 0.90146 0.45374 0.0
C714 C 0.47403 0.91211 0.45608 0.0
C715 C 0.4755 0.93493 0.47008 0.0
H716 H 0.45745 0.29351 0.66322 0.0
H717 H 0.48388 0.2699 0.72803 0.0
H718 H 0.41886 0.29339 0.68005 0.0
H719 H 0.44573 0.27061 0.74509 0.0
H720 H 0.36669 0.24709 0.7571 0.0
H721 H 0.40572 0.24837 0.74115 0.0
H722 H 0.39936 0.315 0.71006 0.0
H723 H 0.35982 0.3131 0.72541 0.0
C724 C 0.45506 0.28839 0.68107 0.0
C725 C 0.4737 0.28158 0.69421 0.0
C726 C 0.43301 0.28852 0.69081 0.0
C727 C 0.42919 0.28202 0.71395 0.0
C728 C 0.44791 0.27533 0.72708 0.0
C729 C 0.46984 0.27501 0.7173 0.0
C730 C 0.37376 0.26213 0.74705 0.0
C731 C 0.36032 0.27999 0.74245 0.0
C732 C 0.39616 0.26293 0.73796 0.0
C733 C 0.40568 0.28175 0.72425 0.0
C734 C 0.39239 0.30001 0.7202 0.0
C735 C 0.36988 0.29909 0.72916 0.0
H736 H -0.00296 0.82148 0.54445 0.0
H737 H 0.00362 0.86693 0.61252 0.0
H738 H 0.00075 0.85863 0.52395 0.0
H739 H 0.00693 0.90379 0.59214 0.0
H740 H 0.03789 0.96664 0.55221 0.0
H741 H 0.03567 0.92791 0.56925 0.0
H742 H 0.97984 0.89228 0.51592 0.0
H743 H 0.98231 0.93115 0.4985 0.0
C744 C -0.0009 0.83936 0.55503 0.0
C745 C 0.00013 0.84125 0.58013 0.0
C746 C 0.00116 0.86063 0.54327 0.0
C747 C 0.0044 0.88422 0.55639 0.0
C748 C 0.00496 0.88598 0.58147 0.0
C749 C 0.00287 0.86479 0.59318 0.0
C750 C 0.02531 0.95052 0.54388 0.0
C751 C 0.01014 0.9521 0.52407 0.0
C752 C 0.02391 0.92832 0.5538 0.0
C753 C 0.00728 0.90708 0.54424 0.0
C754 C 0.99289 0.90828 0.5237 0.0
C755 C -0.0057 0.93057 0.51372 0.0
H756 H 0.47424 0.82967 0.84543 0.0
H757 H 0.44934 0.75772 0.86796 0.0
H758 H 0.43345 0.83308 0.83531 0.0
H759 H 0.40825 0.76051 0.85664 0.0
H760 H 0.33443 0.77791 0.84587 0.0
H761 H 0.37462 0.77951 0.86357 0.0
H762 H 0.40447 0.81607 0.80465 0.0
H763 H 0.36462 0.81534 0.78779 0.0
C764 C 0.45998 0.81447 0.84809 0.0
C765 C 0.465 0.79326 0.85716 0.0
C766 C 0.43655 0.81639 0.8422 0.0
C767 C 0.41748 0.79691 0.84473 0.0
C768 C 0.42243 0.77598 0.85462 0.0
C769 C 0.44598 0.77427 0.86095 0.0
C770 C 0.34967 0.78673 0.83707 0.0
C771 C 0.34647 0.79656 0.81552 0.0
C772 C 0.37268 0.78742 0.84704 0.0
C773 C 0.39289 0.79783 0.83553 0.0
C774 C 0.38946 0.8083 0.81432 0.0
C775 C 0.36655 0.80779 0.80453 0.0
H776 H 0.48567 0.1646 0.11268 0.0
H777 H 0.48659 0.20931 0.05441 0.0
H778 H 0.48337 0.12788 0.0844 0.0
H779 H 0.48385 0.17216 0.02589 0.0
H780 H 0.51428 0.10613 0.98863 0.0
H781 H 0.51069 0.14356 0.01431 0.0
H782 H 0.4582 0.10002 0.05341 0.0
H783 H 0.46201 0.0627 0.02788 0.0
C784 C 0.48501 0.16656 0.09378 0.0
C785 C 0.48648 0.18996 0.08583 0.0
C786 C 0.48355 0.14542 0.07753 0.0
C787 C 0.48353 0.14709 0.05288 0.0
C788 C 0.48412 0.17034 0.04481 0.0
C789 C 0.48548 0.19157 0.06113 0.0
C790 C 0.50186 0.10467 0.00261 0.0
C791 C 0.48863 0.08156 0.0065 0.0
C792 C 0.49967 0.12609 0.01721 0.0
C793 C 0.4842 0.12476 0.03596 0.0
C794 C 0.47051 0.10164 0.03934 0.0
C795 C 0.47269 0.08027 0.02474 0.0
H796 H 0.07592 0.27399 0.3228 0.0
H797 H 0.11734 0.25036 0.37858 0.0
H798 H 0.10874 0.27349 0.29649 0.0
H799 H 0.15001 0.24948 0.35203 0.0
H800 H 0.1911 0.22511 0.28902 0.0
H801 H 0.1557 0.22412 0.31156 0.0
H802 H 0.15294 0.29855 0.29751 0.0
H803 H 0.1888 0.29989 0.27508 0.0
C804 C 0.09197 0.26851 0.32938 0.0
C805 C 0.0941 0.26218 0.35275 0.0
C806 C 0.11075 0.26836 0.31435 0.0
C807 C 0.13181 0.2614 0.32224 0.0
C808 C 0.13383 0.25473 0.34548 0.0
C809 C 0.11523 0.25532 0.36068 0.0
C810 C 0.18282 0.2412 0.29032 0.0
C811 C 0.19292 0.26267 0.28031 0.0
C812 C 0.16263 0.24063 0.30341 0.0
C813 C 0.15183 0.26134 0.30648 0.0
C814 C 0.161 0.28233 0.29537 0.0
C815 C 0.18148 0.28307 0.28253 0.0
H816 H 0.94336 0.06147 0.18072 0.0
H817 H 0.87788 0.03177 0.13766 0.0
H818 H 0.96531 0.06371 0.14477 0.0
H819 H 0.89996 0.03415 0.10147 0.0
H820 H -0.00343 0.08171 0.07544 0.0
H821 H 0.97058 0.08482 0.10847 0.0
H822 H 0.93007 0.0118 0.0835 0.0
H823 H 0.95608 0.00871 0.0506 0.0
C824 C 0.9336 0.05568 0.16353 0.0
C825 C 0.90891 0.04629 0.16204 0.0
C826 C 0.94617 0.05713 0.1429 0.0
C827 C 0.93438 0.04909 0.12026 0.0
C828 C 0.90956 0.0403 0.11869 0.0
C829 C 0.89691 0.03905 0.13939 0.0
C830 C 0.98194 0.06646 0.07689 0.0
C831 C 0.97837 0.04495 0.06051 0.0
C832 C 0.96711 0.06821 0.09581 0.0
C833 C 0.94835 0.04851 0.09866 0.0
C834 C 0.9442 0.0274 0.08166 0.0
C835 C 0.95912 0.02561 0.06283 0.0
H836 H 0.28061 0.71863 0.47292 0.0
H837 H 0.27901 0.64895 0.42969 0.0
H838 H 0.27999 0.73917 0.43674 0.0
H839 H 0.27786 0.66924 0.39375 0.0
H840 H 0.29263 0.71393 0.33304 0.0
H841 H 0.30048 0.69855 0.3708 0.0
H842 H 0.25062 0.73927 0.40386 0.0
H843 H 0.24332 0.75525 0.36603 0.0
C844 C 0.28041 0.70778 0.45573 0.0
C845 C 0.27977 0.68217 0.45412 0.0
C846 C 0.27986 0.71949 0.43503 0.0
C847 C 0.27874 0.70582 0.41239 0.0
C848 C 0.27902 0.68039 0.41091 0.0
C849 C 0.27956 0.66871 0.43153 0.0
C850 C 0.28346 0.7197 0.34843 0.0
C851 C 0.26715 0.7355 0.34665 0.0
C852 C 0.28792 0.71086 0.37003 0.0
C853 C 0.27601 0.71749 0.39026 0.0
C854 C 0.26025 0.734 0.38865 0.0
C855 C 0.25591 0.743 0.367 0.0
H856 H 0.55444 0.94087 0.66864 0.0
H857 H 0.61918 0.97406 0.63829 0.0
H858 H 0.53119 0.94618 0.63323 0.0
H859 H 0.59584 0.97885 0.60243 0.0
H860 H 0.54467 0.02754 0.57595 0.0
H861 H 0.56994 0.00961 0.60184 0.0
H862 H 0.51994 0.93976 0.58996 0.0
H863 H 0.49452 0.95797 0.56362 0.0
C864 C 0.56379 0.94852 0.65401 0.0
C865 C 0.58852 0.95772 0.65647 0.0
C866 C 0.55044 0.95141 0.63364 0.0
C867 C 0.56165 0.96351 0.61536 0.0
C868 C 0.58672 0.96998 0.61657 0.0
C869 C 0.6001 0.96709 0.63701 0.0
C870 C 0.5392 0.00827 0.57868 0.0
C871 C 0.51779 0.99405 0.56779 0.0
C872 C 0.55379 -0.00209 0.59329 0.0
C873 C 0.54716 0.97312 0.59757 0.0
C874 C 0.52554 0.95887 0.58683 0.0
C875 C 0.51094 0.96929 0.57199 0.0
H876 H 0.24741 0.32065 0.96038 0.0
H877 H 0.25832 0.38793 0.92662 0.0
H878 H 0.25421 0.29737 0.92249 0.0
H879 H 0.26542 0.36489 0.88937 0.0
H880 H 0.29928 0.32099 0.8327 0.0
H881 H 0.29677 0.34019 0.87347 0.0
H882 H 0.23164 0.28806 0.87995 0.0
H883 H 0.23393 0.26904 0.83921 0.0
C884 C 0.2513 0.33045 0.94498 0.0
C885 C 0.25213 0.3561 0.9465 0.0
C886 C 0.2552 0.31716 0.92335 0.0
C887 C 0.26057 0.3294 0.90309 0.0
C888 C 0.26165 0.35503 0.90476 0.0
C889 C 0.25732 0.36816 0.9261 0.0
C890 C 0.28467 0.31335 0.84298 0.0
C891 C 0.2667 0.29366 0.83268 0.0
C892 C 0.28318 0.3244 0.86625 0.0
C893 C 0.26394 0.31566 0.8798 0.0
C894 C 0.24672 0.29508 0.86998 0.0
C895 C 0.24798 0.28432 0.8466 0.0
H896 H 0.94145 0.98334 0.2833 0.0
H897 H 0.90395 0.04017 0.31042 0.0
H898 H 0.95349 0.97783 0.32371 0.0
H899 H 0.91702 0.03547 0.35121 0.0
H900 H 0.92864 0.00748 0.42295 0.0
H901 H 0.91292 0.00934 0.38232 0.0
H902 H 0.98013 -0.00219 0.35543 0.0
H903 H -0.0048 0.99489 0.39568 0.0
C904 C 0.93601 0.99492 0.29793 0.0
C905 C 0.92192 0.01239 0.29362 0.0
C906 C 0.94301 0.99181 0.32118 0.0
C907 C 0.93647 0.00635 0.34083 0.0
C908 C 0.92216 0.02372 0.33655 0.0
C909 C 0.91483 0.02659 0.31318 0.0
C910 C 0.93981 0.00493 0.40822 0.0
C911 C 0.96306 0.00091 0.41238 0.0
C912 C 0.93094 0.00628 0.38498 0.0
C913 C 0.94525 0.00383 0.36551 0.0
C914 C 0.96838 -0.00065 0.36983 0.0
C915 C 0.9771 -0.00226 0.39295 0.0
H916 H 0.27717 0.64736 0.62035 0.0
H917 H 0.28946 0.70865 0.57819 0.0
H918 H 0.28045 0.67623 0.65651 0.0
H919 H 0.29231 0.7377 0.61466 0.0
H920 H 0.3105 0.77872 0.6944 0.0
H921 H 0.31436 0.75391 0.65633 0.0
H922 H 0.25058 0.70212 0.66827 0.0
H923 H 0.24704 0.72621 0.70585 0.0
C924 C 0.28091 0.66702 0.61884 0.0
C925 C 0.28261 0.67573 0.59643 0.0
C926 C 0.28271 0.68355 0.63953 0.0
C927 C 0.28602 0.70914 0.63825 0.0
C928 C 0.28966 0.71804 0.61607 0.0
C929 C 0.28801 0.70142 0.59525 0.0
C930 C 0.29717 0.76224 0.68856 0.0
C931 C 0.27855 0.75427 0.70307 0.0
C932 C 0.29941 0.74807 0.66691 0.0
C933 C 0.28309 0.72582 0.65974 0.0
C934 C 0.26378 0.71883 0.67367 0.0
C935 C 0.26159 0.73282 0.69509 0.0
H936 H 0.52512 -0.00311 0.76915 0.0
H937 H 0.59169 0.98893 0.80373 0.0
H938 H 0.50684 0.9966 0.80735 0.0
H939 H 0.57372 0.98955 0.84197 0.0
H940 H 0.53171 0.97099 0.90445 0.0
H941 H 0.54535 0.96586 0.86424 0.0
H942 H 0.50816 0.02247 0.84437 0.0
H943 H 0.49375 0.02676 0.88441 0.0
C944 C 0.53588 0.99519 0.78493 0.0
C945 C 0.55986 0.99296 0.78345 0.0
C946 C 0.52542 0.99512 0.80682 0.0
C947 C 0.53879 0.99301 0.8277 0.0
C948 C 0.56276 0.9907 0.82616 0.0
C949 C 0.57314 0.99054 0.80426 0.0
C950 C 0.52621 0.98206 0.89133 0.0
C951 C 0.51187 -0.00062 0.89742 0.0
C952 C 0.53416 0.97927 0.86838 0.0
C953 C 0.52816 0.99402 0.8512 0.0
C954 C 0.51295 0.01067 0.85711 0.0
C955 C 0.50476 0.01322 0.88003 0.0
H956 H 0.24238 0.30731 0.07338 0.0
H957 H 0.26285 0.37775 0.11715 0.0
H958 H 0.24129 0.28611 0.1092 0.0
H959 H 0.26089 0.35678 0.1529 0.0
H960 H 0.22015 0.25637 0.17943 0.0
H961 H 0.21994 0.27774 0.14367 0.0
H962 H 0.28085 0.33231 0.17475 0.0
H963 H 0.2804 0.31152 0.21051 0.0
C964 C 0.2466 0.31828 0.09065 0.0
C965 C 0.25288 0.34422 0.09236 0.0
C966 C 0.24576 0.30613 0.11125 0.0
C967 C 0.25099 0.31965 0.1341 0.0
C968 C 0.25716 0.34564 0.13569 0.0
C969 C 0.2582 0.35772 0.11513 0.0
C970 C 0.23331 0.27307 0.17861 0.0
C971 C 0.25022 0.2823 0.1978 0.0
C972 C 0.23336 0.28523 0.15804 0.0
C973 C 0.25042 0.30682 0.15615 0.0
C974 C 0.26716 0.31605 0.17557 0.0
C975 C 0.26698 0.30404 0.19612 0.0
H976 H 0.20707 0.9791 0.00661 0.0
H977 H 0.15239 0.9266 0.03448 0.0
H978 H 0.18301 0.01091 0.01304 0.0
H979 H 0.12838 0.95849 0.04093 0.0
H980 H 0.09495 0.02265 0.06243 0.0
H981 H 0.12779 0.00033 0.06445 0.0
H982 H 0.14365 0.01428 0.99247 0.0
H983 H 0.11076 0.03644 0.99039 0.0
C984 C 0.19003 0.97443 0.01437 0.0
C985 C 0.18146 0.9503 0.01985 0.0
C986 C 0.17632 0.99265 0.01804 0.0
C987 C 0.15393 0.98716 0.02753 0.0
C988 C 0.14577 0.96331 0.03389 0.0
C989 C 0.15937 0.945 0.02999 0.0
C990 C 0.10598 0.02168 0.04736 0.0
C991 C 0.10022 0.03098 0.02615 0.0
C992 C 0.12462 0.00874 0.04846 0.0
C993 C 0.13794 0.00525 0.02849 0.0
C994 C 0.13368 0.01674 0.00815 0.0
C995 C 0.11488 0.02944 0.00695 0.0
H996 H 0.69438 0.57379 0.96191 0.0
H997 H 0.6669 0.64127 0.97371 0.0
H998 H 0.655 0.54962 0.96623 0.0
H999 H 0.62715 0.61692 0.97743 0.0
H1000 H 0.56775 0.56782 0.01164 0.0
H1001 H 0.60722 0.59158 0.0061 0.0
H1002 H 0.61528 0.53738 0.94746 0.0
H1003 H 0.57604 0.51335 0.95344 0.0
C1004 C 0.67982 0.58346 0.96507 0.0
C1005 C 0.68376 0.60946 0.96761 0.0
C1006 C 0.65722 0.56957 0.96747 0.0
C1007 C 0.63798 0.58134 0.97236 0.0
C1008 C 0.64173 0.60733 0.97409 0.0
C1009 C 0.66442 0.62127 0.97174 0.0
C1010 C 0.57809 0.56089 -0.00225 0.0
C1011 C 0.56889 0.53878 0.98295 0.0
C1012 C 0.60056 0.57462 0.99439 0.0
C1013 C 0.61426 0.56652 0.97616 0.0
C1014 C 0.60524 0.54405 0.96176 0.0
C1015 C 0.58278 0.53029 0.96516 0.0
H1016 H 0.64934 0.41139 0.2683 0.0
H1017 H 0.71572 0.4647 0.27673 0.0
H1018 H 0.67134 0.37782 0.26386 0.0
H1019 H 0.73783 0.43091 0.27204 0.0
H1020 H 0.76597 0.35945 0.28819 0.0
H1021 H 0.74683 0.39546 0.29212 0.0
H1022 H 0.69572 0.36092 0.23407 0.0
H1023 H 0.71455 0.32502 0.23024 0.0
C1024 C 0.66865 0.41597 0.26928 0.0
C1025 C 0.68074 0.44076 0.27281 0.0
C1026 C 0.68128 0.3967 0.26654 0.0
C1027 C 0.70636 0.40167 0.26732 0.0
C1028 C 0.71853 0.42645 0.27143 0.0
C1029 C 0.70585 0.4458 0.27406 0.0
C1030 C 0.75089 0.35971 0.27601 0.0
C1031 C 0.74173 0.33921 0.25901 0.0
C1032 C 0.73992 0.38037 0.27828 0.0
C1033 C 0.71951 0.38091 0.26366 0.0
C1034 C 0.71108 0.36088 0.24597 0.0
C1035 C 0.72203 0.34034 0.24367 0.0
H1036 H 0.80003 0.45592 0.44822 0.0
H1037 H 0.80699 0.40805 0.50272 0.0
H1038 H 0.84318 0.46859 0.44957 0.0
H1039 H 0.8503 0.42056 0.50374 0.0
H1040 H 0.92223 0.47409 0.44537 0.0
H1041 H 0.88039 0.45367 0.44119 0.0
H1042 H 0.87809 0.45999 0.518 0.0
H1043 H 0.91994 0.48006 0.52231 0.0
C1044 C 0.81076 0.44786 0.46027 0.0
C1045 C 0.80008 0.43118 0.47555 0.0
C1046 C 0.8355 0.45498 0.46089 0.0
C1047 C 0.85004 0.44561 0.47682 0.0
C1048 C 0.83944 0.42826 0.49149 0.0
C1049 C 0.81467 0.42105 0.49082 0.0
C1050 C 0.9129 0.47092 0.46139 0.0
C1051 C 0.92436 0.47895 0.48419 0.0
C1052 C 0.88893 0.45928 0.45896 0.0
C1053 C 0.87601 0.45537 0.47926 0.0
C1054 C 0.88769 0.46254 0.50203 0.0
C1055 C 0.91163 0.47423 0.50448 0.0
H1056 H 0.31514 0.05538 0.26176 0.0
H1057 H 0.36633 0.11534 0.30102 0.0
H1058 H 0.28706 0.08325 0.25802 0.0
H1059 H 0.33829 0.14297 0.29742 0.0
H1060 H 0.27949 0.18342 0.30335 0.0
H1061 H 0.29768 0.14844 0.3107 0.0
H1062 H 0.28839 0.12186 0.23541 0.0
H1063 H 0.26984 0.15708 0.22801 0.0
C1064 C 0.32022 0.07438 0.26994 0.0
C1065 C 0.34292 0.08327 0.28165 0.0
C1066 C 0.30421 0.09028 0.26767 0.0
C1067 C 0.31053 0.11515 0.27746 0.0
C1068 C 0.33287 0.12376 0.28995 0.0
C1069 C 0.34896 0.108 0.29192 0.0
C1070 C 0.28083 0.1698 0.28842 0.0
C1071 C 0.2737 0.17303 0.26505 0.0
C1072 C 0.29126 0.14985 0.29265 0.0
C1073 C 0.2948 0.1328 0.27358 0.0
C1074 C 0.2858 0.13481 0.25042 0.0
C1075 C 0.27524 0.15489 0.24616 0.0
H1076 H 0.33376 0.12331 0.48609 0.0
H1077 H 0.29421 0.05653 0.50947 0.0
H1078 H 0.37007 0.10621 0.48767 0.0
H1079 H 0.33016 0.03935 0.51047 0.0
H1080 H 0.40365 0.02881 0.53698 0.0
H1081 H 0.36726 0.04549 0.53402 0.0
H1082 H 0.3888 0.07403 0.46832 0.0
H1083 H 0.42552 0.05783 0.47169 0.0
C1084 C 0.33276 0.10496 0.4914 0.0
C1085 C 0.3111 0.09139 0.49779 0.0
C1086 C 0.35353 0.09509 0.49218 0.0
C1087 C 0.35303 0.07145 0.49932 0.0
C1088 C 0.33128 0.05778 0.50532 0.0
C1089 C 0.31061 0.06763 0.50462 0.0
C1090 C 0.40049 0.03851 0.52185 0.0
C1091 C 0.41731 0.04203 0.50456 0.0
C1092 C 0.37963 0.048 0.52008 0.0
C1093 C 0.37512 0.06112 0.50093 0.0
C1094 C 0.39189 0.06433 0.48347 0.0
C1095 C 0.41279 0.05489 0.48528 0.0
H1096 H 0.70165 0.57294 0.28591 0.0
H1097 H 0.64073 0.60842 0.28182 0.0
H1098 H 0.72825 0.61292 0.28472 0.0
H1099 H 0.66722 0.64809 0.28086 0.0
H1100 H 0.76822 0.69512 0.29872 0.0
H1101 H 0.74266 0.6561 0.30593 0.0
H1102 H 0.69241 0.66417 0.24938 0.0
H1103 H 0.71781 0.70281 0.2422 0.0
C1104 C 0.69395 0.58927 0.28523 0.0
C1105 C 0.66904 0.58739 0.28362 0.0
C1106 C 0.70919 0.61217 0.28459 0.0
C1107 C 0.69978 0.63354 0.28229 0.0
C1108 C 0.67497 0.63185 0.28211 0.0
C1109 C 0.6598 0.60909 0.28277 0.0
C1110 C 0.75168 0.68848 0.2879 0.0
C1111 C 0.74488 0.70203 0.27003 0.0
C1112 C 0.73712 0.66617 0.29198 0.0
C1113 C 0.71544 0.6572 0.27837 0.0
C1114 C 0.70878 0.67081 0.26047 0.0
C1115 C 0.72337 0.69291 0.25629 0.0
H1116 H 0.89654 0.42884 0.7812 0.0
H1117 H 0.83864 0.46895 0.78186 0.0
H1118 H 0.86809 0.39057 0.78435 0.0
H1119 H 0.81034 0.43066 0.78483 0.0
H1120 H 0.77197 0.3515 0.74847 0.0
H1121 H 0.7983 0.39205 0.75384 0.0
H1122 H 0.83703 0.37029 0.81269 0.0
H1123 H 0.81037 0.32955 0.8075 0.0
C1124 C 0.87781 0.42954 0.78223 0.0
C1125 C 0.86982 0.45187 0.78106 0.0
C1126 C 0.86159 0.40769 0.78424 0.0
C1127 C 0.83708 0.40775 0.7848 0.0
C1128 C 0.82916 0.43016 0.78433 0.0
C1129 C 0.84538 0.45205 0.78265 0.0
C1130 C 0.78586 0.3555 0.7628 0.0
C1131 C 0.78923 0.33742 0.77752 0.0
C1132 C 0.80083 0.37873 0.76594 0.0
C1133 C 0.81969 0.38419 0.78363 0.0
C1134 C 0.82264 0.36641 0.79887 0.0
C1135 C 0.80734 0.34325 0.796 0.0
H1136 H 0.00027 0.87268 0.1194 0.0
H1137 H 0.04112 0.8412 0.06577 0.0
H1138 H 0.99356 0.90368 0.09362 0.0
H1139 H 0.0345 0.87241 0.04004 0.0
H1140 H 0.04428 0.9551 0.02237 0.0
H1141 H 0.04809 0.91947 0.04313 0.0
H1142 H 0.9726 0.90636 0.05346 0.0
H1143 H 0.96865 0.9419 0.03266 0.0
C1144 C 0.00768 0.87229 0.10205 0.0
C1145 C 0.02127 0.85457 0.09463 0.0
C1146 C 0.00372 0.88994 0.08724 0.0
C1147 C 0.0135 0.89041 0.06484 0.0
C1148 C 0.02686 0.87251 0.05728 0.0
C1149 C 0.03055 0.85463 0.07197 0.0
C1150 C 0.02842 0.94442 0.02876 0.0
C1151 C 0.00618 0.95142 0.02597 0.0
C1152 C 0.03061 0.92396 0.04055 0.0
C1153 C 0.01066 0.91029 0.05002 0.0
C1154 C 0.98829 0.91675 0.04652 0.0
C1155 C 0.98603 0.937 0.03447 0.0
H1156 H 0.9081 0.23723 0.85094 0.0
H1157 H 0.93383 0.25837 0.78381 0.0
H1158 H 0.86712 0.22768 0.83289 0.0
H1159 H 0.89334 0.24905 0.76604 0.0
H1160 H 0.80323 0.25978 0.79995 0.0
H1161 H 0.8408 0.25529 0.81916 0.0
H1162 H 0.85784 0.21641 0.75359 0.0
H1163 H 0.82007 0.22107 0.73428 0.0
C1164 C 0.90505 0.23946 0.8323 0.0
C1165 C 0.92412 0.24886 0.81889 0.0
C1166 C 0.88165 0.23405 0.822 0.0
C1167 C 0.87704 0.23761 0.79805 0.0
C1168 C 0.89629 0.24578 0.78442 0.0
C1169 C 0.91951 0.25141 0.79472 0.0
C1170 C 0.81473 0.24976 0.7898 0.0
C1171 C 0.80893 0.24105 0.76556 0.0
C1172 C 0.8362 0.24705 0.80086 0.0
C1173 C 0.85235 0.23567 0.78783 0.0
C1174 C 0.84582 0.22552 0.76398 0.0
C1175 C 0.82424 0.22814 0.75294 0.0
H1176 H 0.57544 0.2114 0.6261 0.0
H1177 H 0.50526 0.21666 0.59879 0.0
H1178 H 0.57276 0.17232 0.60098 0.0
H1179 H 0.50139 0.17655 0.57518 0.0
H1180 H 0.50431 0.11087 0.52242 0.0
H1181 H 0.51074 0.15269 0.54321 0.0
H1182 H 0.55675 0.1315 0.59697 0.0
H1183 H 0.55177 0.09058 0.57487 0.0
C1184 C 0.55931 0.20396 0.61484 0.0
C1185 C 0.54056 0.21695 0.61434 0.0
C1186 C 0.55761 0.18138 0.60055 0.0
C1187 C 0.53673 0.1708 0.58602 0.0
C1188 C 0.518 0.18407 0.58559 0.0
C1189 C 0.52006 0.20704 0.59931 0.0
C1190 C 0.51601 0.11542 0.53855 0.0
C1191 C 0.52763 0.09764 0.54703 0.0
C1192 C 0.51955 0.13934 0.55068 0.0
C1193 C 0.53418 0.14578 0.57206 0.0
C1194 C 0.54582 0.12775 0.58037 0.0
C1195 C 0.54285 0.10411 0.5678 0.0
H1196 H 0.58247 0.75367 0.36784 0.0
H1197 H 0.53912 0.74789 0.30206 0.0
H1198 H 0.61748 0.75145 0.34482 0.0
H1199 H 0.57394 0.74561 0.27923 0.0
H1200 H 0.64873 0.77551 0.25217 0.0
H1201 H 0.61212 0.77442 0.27322 0.0
H1202 H 0.63226 0.72048 0.3158 0.0
H1203 H 0.66882 0.72157 0.29477 0.0
C1204 C 0.58043 0.75191 0.34853 0.0
C1205 C 0.55812 0.75101 0.33676 0.0
C1206 C 0.60038 0.75047 0.33536 0.0
C1207 C 0.59835 0.74833 0.31025 0.0
C1208 C 0.57603 0.74745 0.29855 0.0
C1209 C 0.55611 0.74867 0.31166 0.0
C1210 C 0.64508 0.76311 0.26572 0.0
C1211 C 0.66153 0.74867 0.27192 0.0
C1212 C 0.62419 0.7625 0.27777 0.0
C1213 C 0.61955 0.74756 0.2963 0.0
C1214 C 0.63561 0.73243 0.30184 0.0
C1215 C 0.65638 0.7329 0.28967 0.0
H1216 H 0.98188 0.19634 0.41908 0.0
H1217 H 0.0463 0.22171 0.46471 0.0
H1218 H 0.97288 0.15924 0.43917 0.0
H1219 H 0.03811 0.18404 0.484 0.0
H1220 H 0.01317 0.11874 0.52378 0.0
H1221 H 0.01555 0.15896 0.50911 0.0
H1222 H 0.98601 0.12223 0.43981 0.0
H1223 H 0.98261 0.08255 0.45469 0.0
C1224 C -0.00589 0.19398 0.43345 0.0
C1225 C 0.01487 0.21187 0.44019 0.0
C1226 C 0.98907 0.17259 0.4449 0.0
C1227 C 0.00491 0.16828 0.46308 0.0
C1228 C 0.02528 0.18669 0.47034 0.0
C1229 C 0.0301 0.20829 0.45915 0.0
C1230 C 0.00681 0.11933 0.50554 0.0
C1231 C -0.00224 0.09734 0.49046 0.0
C1232 C 0.00837 0.14241 0.49703 0.0
C1233 C 0.00112 0.14404 0.47315 0.0
C1234 C 0.9914 0.12198 0.45838 0.0
C1235 C 0.9896 0.09903 0.46694 0.0
H1236 H 0.55127 0.24901 0.17634 0.0
H1237 H 0.59474 0.28552 0.12508 0.0
H1238 H 0.58551 0.2362 0.19356 0.0
H1239 H 0.63007 0.27488 0.14399 0.0
H1240 H 0.68908 0.24115 0.17392 0.0
H1241 H 0.65289 0.24613 0.15189 0.0
H1242 H 0.61802 0.25116 0.2184 0.0
H1243 H 0.65322 0.24416 0.23957 0.0
C1244 C 0.56829 0.25458 0.1689 0.0
C1245 C 0.57033 0.26834 0.14939 0.0
C1246 C 0.58814 0.24744 0.17901 0.0
C1247 C 0.61088 0.25479 0.17059 0.0
C1248 C 0.61289 0.2685 0.15085 0.0
C1249 C 0.59272 0.27489 0.14014 0.0
C1250 C 0.67334 0.24267 0.18355 0.0
C1251 C 0.67378 0.24207 0.20835 0.0
C1252 C 0.6527 0.2459 0.17104 0.0
C1253 C 0.63234 0.24922 0.18323 0.0
C1254 C 0.6329 0.24806 0.20807 0.0
C1255 C 0.65322 0.24415 0.22037 0.0
H1256 H 0.54237 0.83569 0.95967 0.0
H1257 H 0.56814 0.87889 0.90336 0.0
H1258 H 0.53755 0.87366 0.98396 0.0
H1259 H 0.56283 0.91637 0.92746 0.0
H1260 H 0.50292 0.95719 0.95882 0.0
H1261 H 0.51813 0.92252 0.93925 0.0
H1262 H 0.56271 0.92152 0.00262 0.0
H1263 H 0.54831 0.95744 0.02202 0.0
C1264 C 0.54757 0.85325 0.9527 0.0
C1265 C 0.55528 0.85415 0.92939 0.0
C1266 C 0.54486 0.87494 0.96664 0.0
C1267 C 0.5496 0.89776 0.95738 0.0
C1268 C 0.55894 0.89891 0.93488 0.0
C1269 C 0.56196 0.87739 0.92111 0.0
C1270 C 0.51642 0.95007 0.9684 0.0
C1271 C 0.52482 0.96036 0.99173 0.0
C1272 C 0.52501 0.93013 0.95725 0.0
C1273 C 0.54171 0.91959 0.9694 0.0
C1274 C 0.54991 0.9295 0.99291 0.0
C1275 C 0.5417 0.94997 0.00393 0.0
H1276 H 0.95203 0.75354 0.71011 0.0
H1277 H 0.92598 0.78764 0.6516 0.0
H1278 H 0.91745 0.75913 0.73176 0.0
H1279 H 0.8907 0.79274 0.67335 0.0
H1280 H 0.83881 0.81443 0.7284 0.0
H1281 H 0.8764 0.81416 0.70931 0.0
H1282 H 0.87574 0.7403 0.72748 0.0
H1283 H 0.83877 0.74071 0.74682 0.0
C1284 C 0.93887 0.76218 0.70177 0.0
C1285 C 0.94167 0.76985 0.67892 0.0
C1286 C 0.91897 0.76533 0.71424 0.0
C1287 C 0.90117 0.77611 0.7042 0.0
C1288 C 0.9042 0.7845 0.68164 0.0
C1289 C 0.9243 0.78143 0.66911 0.0
C1290 C 0.84695 0.79833 0.72868 0.0
C1291 C 0.83579 0.77761 0.7392 0.0
C1292 C 0.86833 0.79809 0.71751 0.0
C1293 C 0.87903 0.7772 0.7168 0.0
C1294 C 0.86816 0.75682 0.72793 0.0
C1295 C 0.84686 0.75703 0.73898 0.0
H1296 H 0.07765 0.0426 0.84144 0.0
H1297 H 0.09708 0.97101 0.84163 0.0
H1298 H 0.06055 0.03863 0.87974 0.0
H1299 H 0.07945 0.96689 0.88046 0.0
H1300 H 0.0102 0.96373 0.9285 0.0
H1301 H 0.03544 0.96372 0.89438 0.0
H1302 H 0.07442 0.03643 0.92253 0.0
H1303 H 0.04917 0.03663 0.95616 0.0
C1304 C 0.0784 0.02603 0.84978 0.0
C1305 C 0.08862 0.00706 0.83849 0.0
C1306 C 0.06874 0.02385 0.87183 0.0
C1307 C 0.06877 0.00251 0.88312 0.0
C1308 C 0.07923 0.98353 0.87208 0.0
C1309 C 0.08938 0.98593 0.85001 0.0
C1310 C 0.02446 0.97948 0.92755 0.0
C1311 C 0.02758 0.00029 0.94482 0.0
C1312 C 0.03899 0.97938 0.90816 0.0
C1313 C 0.05673 0.00016 0.90575 0.0
C1314 C 0.06074 0.02026 0.92385 0.0
C1315 C 0.04632 0.02033 0.94315 0.0
H1316 H 0.71795 0.31637 0.54546 0.0
H1317 H 0.76113 0.38387 0.58173 0.0
H1318 H 0.72319 0.2954 0.58072 0.0
H1319 H 0.76629 0.36288 0.61685 0.0
H1320 H 0.7382 0.32726 0.68276 0.0
H1321 H 0.7363 0.34612 0.64591 0.0
H1322 H 0.75605 0.28241 0.60679 0.0
H1323 H 0.75811 0.26342 0.64401 0.0
C1324 C 0.72871 0.32665 0.56086 0.0
C1325 C 0.73895 0.35181 0.56095 0.0
C1326 C 0.73181 0.31461 0.58094 0.0
C1327 C 0.74499 0.32761 0.60148 0.0
C1328 C 0.75582 0.35254 0.60129 0.0
C1329 C 0.75292 0.36451 0.58118 0.0
C1330 C 0.74218 0.31727 0.66631 0.0
C1331 C 0.74838 0.29395 0.66615 0.0
C1332 C 0.74122 0.32813 0.64528 0.0
C1333 C 0.74624 0.31579 0.62361 0.0
C1334 C 0.75209 0.29225 0.62332 0.0
C1335 C 0.75332 0.28145 0.64452 0.0
H1336 H 0.42279 0.05296 0.35786 0.0
H1337 H 0.49095 0.04602 0.33051 0.0
H1338 H 0.44104 0.05934 0.39864 0.0
H1339 H 0.50904 0.05245 0.37111 0.0
H1340 H 0.53725 0.07412 0.44826 0.0
H1341 H 0.5188 0.08172 0.41036 0.0
H1342 H 0.45677 0.02633 0.41952 0.0
H1343 H 0.4753 0.01824 0.45654 0.0
C1344 C 0.44173 0.05335 0.36052 0.0
C1345 C 0.45537 0.04857 0.34107 0.0
C1346 C 0.45214 0.05698 0.38381 0.0
C1347 C 0.47639 0.05626 0.38794 0.0
C1348 C 0.49036 0.05331 0.36841 0.0
C1349 C 0.47993 0.04936 0.34519 0.0
C1350 C 0.51955 0.06388 0.44224 0.0
C1351 C 0.50761 0.04573 0.45535 0.0
C1352 C 0.50901 0.06826 0.42068 0.0
C1353 C 0.48629 0.05478 0.41222 0.0
C1354 C 0.47406 0.03737 0.42588 0.0
C1355 C 0.48472 0.03271 0.44708 0.0
H1356 H 0.72452 0.64685 0.07752 0.0
H1357 H 0.77468 0.70598 0.05275 0.0
H1358 H 0.72624 0.67093 0.11628 0.0
H1359 H 0.77619 0.73036 0.09191 0.0
H1360 H 0.79243 0.74832 0.17539 0.0
H1361 H 0.79071 0.72871 0.13425 0.0
H1362 H 0.71401 0.70846 0.13436 0.0
H1363 H 0.71563 0.72764 0.17537 0.0
C1364 C 0.73587 0.66506 0.08027 0.0
C1365 C 0.74949 0.67445 0.06196 0.0
C1366 C 0.7367 0.67896 0.10251 0.0
C1367 C 0.75123 0.70262 0.10713 0.0
C1368 C 0.76491 0.71212 0.08889 0.0
C1369 C 0.76395 0.69822 0.06645 0.0
C1370 C 0.77517 0.73987 0.16657 0.0
C1371 C 0.7542 0.73928 0.17882 0.0
C1372 C 0.7742 0.72877 0.14295 0.0
C1373 C 0.75225 0.71682 0.13116 0.0
C1374 C 0.73124 0.71714 0.14311 0.0
C1375 C 0.73219 0.72822 0.16663 0.0
H1376 H 0.13063 -0.0012 0.67867 0.0
H1377 H 0.07326 0.01548 0.72084 0.0
H1378 H 0.11189 0.01192 0.64391 0.0
H1379 H 0.0555 0.03036 0.68696 0.0
H1380 H 0.01504 0.02956 0.61604 0.0
H1381 H 0.03415 0.01846 0.65128 0.0
H1382 H 0.10339 0.0447 0.6252 0.0
H1383 H 0.08383 0.05414 0.58896 0.0
C1384 C 0.11409 0.00544 0.68052 0.0
C1385 C 0.10336 0.00596 0.70242 0.0
C1386 C 0.10345 0.01329 0.66068 0.0
C1387 C 0.0821 0.02238 0.66244 0.0
C1388 C 0.07159 0.02303 0.68456 0.0
C1389 C 0.08189 0.01461 0.70415 0.0
C1390 C 0.03435 0.03331 0.61803 0.0
C1391 C 0.04797 0.04273 0.59981 0.0
C1392 C 0.04542 0.027 0.63835 0.0
C1393 C 0.07046 0.03049 0.64127 0.0
C1394 C 0.08409 0.04112 0.62344 0.0
C1395 C 0.07293 0.04691 0.6028 0.0
H1396 H 0.70189 0.37525 0.39629 0.0
H1397 H 0.70962 0.32085 0.44408 0.0
H1398 H 0.70882 0.34667 0.36266 0.0
H1399 H 0.71634 0.29218 0.41006 0.0
H1400 H 0.70791 0.24664 0.33024 0.0
H1401 H 0.69608 0.26914 0.3663 0.0
H1402 H 0.7507 0.33236 0.35764 0.0
H1403 H 0.76278 0.31001 0.32217 0.0
C1404 C 0.70443 0.357 0.39959 0.0
C1405 C 0.70564 0.35052 0.42295 0.0
C1406 C 0.70853 0.34072 0.38033 0.0
C1407 C 0.71358 0.31755 0.38399 0.0
C1408 C 0.71261 0.31006 0.40692 0.0
C1409 C 0.70875 0.32648 0.42632 0.0
C1410 C 0.71769 0.26513 0.33641 0.0
C1411 C 0.73603 0.27675 0.32328 0.0
C1412 C 0.71086 0.27797 0.3569 0.0
C1413 C 0.72214 0.30258 0.36423 0.0
C1414 C 0.74142 0.31355 0.35195 0.0
C1415 C 0.74841 0.3007 0.33177 0.0
H1416 H 0.45647 0.06199 0.21743 0.0
H1417 H 0.38899 0.01908 0.18614 0.0
H1418 H 0.4731 0.05936 0.1783 0.0
H1419 H 0.40569 0.0165 0.14708 0.0
H1420 H 0.45521 0.9883 0.09268 0.0
H1421 H 0.438 0.99444 0.13116 0.0
H1422 H 0.46751 0.07275 0.13667 0.0
H1423 H 0.48473 0.06661 0.09798 0.0
C1424 C 0.44514 0.05221 0.20216 0.0
C1425 C 0.42152 0.04053 0.20481 0.0
C1426 C 0.45463 0.05083 0.17981 0.0
C1427 C 0.4407 0.03756 0.15984 0.0
C1428 C 0.41685 0.02657 0.16234 0.0
C1429 C 0.40729 0.02815 0.18463 0.0
C1430 C 0.45808 0.00679 0.10217 0.0
C1431 C 0.47127 0.02699 0.09251 0.0
C1432 C 0.4481 0.01033 0.12404 0.0
C1433 C 0.45131 0.03408 0.13668 0.0
C1434 C 0.46487 0.05426 0.12722 0.0
C1435 C 0.47468 0.05075 0.10518 0.0
H1436 H 0.78102 0.72799 0.94151 0.0
H1437 H 0.78095 0.65952 0.89684 0.0
H1438 H 0.78622 0.75049 0.90648 0.0
H1439 H 0.78605 0.682 0.862 0.0
H1440 H 0.81167 0.78389 0.8378 0.0
H1441 H 0.81438 0.76185 0.87302 0.0
H1442 H 0.757 0.70351 0.84137 0.0
H1443 H 0.75385 0.72568 0.80686 0.0
C1444 C 0.78249 0.71781 0.92432 0.0
C1445 C 0.78034 0.69194 0.92192 0.0
C1446 C 0.78558 0.73071 0.9043 0.0
C1447 C 0.78634 0.71794 0.88151 0.0
C1448 C 0.78527 0.69226 0.87932 0.0
C1449 C 0.78242 0.67942 0.8993 0.0
C1450 C 0.79983 0.76624 0.83835 0.0
C1451 C 0.78275 0.75633 0.81944 0.0
C1452 C 0.80133 0.7537 0.85849 0.0
C1453 C 0.78602 0.73089 0.85984 0.0
C1454 C 0.76933 0.72083 0.84066 0.0
C1455 C 0.76759 0.7335 0.82082 0.0
H1456 H 0.79233 0.03749 0.02351 0.0
H1457 H 0.83187 0.10058 0.99412 0.0
H1458 H 0.82037 0.01248 0.00869 0.0
H1459 H 0.86064 0.07575 0.98007 0.0
H1460 H 0.89635 0.99547 0.01776 0.0
H1461 H 0.86023 0.01199 0.02186 0.0
H1462 H 0.86972 0.04131 0.95418 0.0
H1463 H 0.90651 0.02517 0.95047 0.0
C1464 C 0.80707 0.04602 0.01387 0.0
C1465 C 0.81023 0.07112 0.01037 0.0
C1466 C 0.82311 0.03166 0.00535 0.0
C1467 C 0.8429 0.04217 0.99347 0.0
C1468 C 0.84543 0.067 0.98894 0.0
C1469 C 0.82912 0.08131 -0.00282 0.0
C1470 C 0.89034 0.0048 0.00342 0.0
C1471 C 0.90426 0.00928 0.98394 0.0
C1472 C 0.86957 0.01424 0.0057 0.0
C1473 C 0.86224 0.02828 0.98847 0.0
C1474 C 0.87516 0.03096 0.96795 0.0
C1475 C 0.89603 0.02149 0.96569 0.0
H1476 H 0.33077 0.43244 0.05485 0.0
H1477 H 0.32192 0.45669 0.98534 0.0
H1478 H 0.37294 0.45357 0.05783 0.0
H1479 H 0.36365 0.47717 0.98821 0.0
H1480 H 0.44526 0.48196 0.99179 0.0
H1481 H 0.4039 0.46016 0.99107 0.0
H1482 H 0.39509 0.50246 0.05781 0.0
H1483 H 0.43661 0.52479 0.05835 0.0
C1484 C 0.33787 0.44206 0.04022 0.0
C1485 C 0.32314 0.44301 0.01992 0.0
C1486 C 0.36182 0.45424 0.04199 0.0
C1487 C 0.37133 0.46694 0.02324 0.0
C1488 C 0.35668 0.46743 0.00284 0.0
C1489 C 0.33282 0.45576 0.00127 0.0
C1490 C 0.43445 0.48675 0.00621 0.0
C1491 C 0.44396 0.50517 0.02501 0.0
C1492 C 0.41089 0.47421 0.00584 0.0
C1493 C 0.39653 0.47959 0.02447 0.0
C1494 C 0.40601 0.49789 0.0434 0.0
C1495 C 0.42956 0.51079 0.04357 0.0
H1496 H 0.3651 0.62018 0.75957 0.0
H1497 H 0.29839 0.56924 0.73973 0.0
H1498 H 0.34362 0.65357 0.76864 0.0
H1499 H 0.2767 0.60257 0.74956 0.0
H1500 H 0.25094 0.67535 0.73878 0.0
H1501 H 0.26927 0.63909 0.73437 0.0
H1502 H 0.31811 0.67019 0.79533 0.0
H1503 H 0.30025 0.70687 0.79926 0.0
C1504 C 0.3458 0.61604 0.75742 0.0
C1505 C 0.33348 0.59206 0.74881 0.0
C1506 C 0.33342 0.63519 0.76282 0.0
C1507 C 0.30835 0.63085 0.75992 0.0
C1508 C 0.296 0.6067 0.75174 0.0
C1509 C 0.30842 0.58755 0.7462 0.0
C1510 C 0.26531 0.6743 0.75153 0.0
C1511 C 0.27423 0.69416 0.76926 0.0
C1512 C 0.27582 0.6534 0.74902 0.0
C1513 C 0.29541 0.65175 0.7643 0.0
C1514 C 0.30343 0.67104 0.78288 0.0
C1515 C 0.29304 0.69201 0.78527 0.0
H1516 H 0.17998 0.65237 0.52636 0.0
H1517 H 0.19248 0.58113 0.49624 0.0
H1518 H 0.13679 0.63587 0.52242 0.0
H1519 H 0.14985 0.56494 0.49243 0.0
H1520 H 0.07406 0.55166 0.46374 0.0
H1521 H 0.11531 0.57329 0.46744 0.0
H1522 H 0.10702 0.60172 0.54026 0.0
H1523 H 0.06527 0.5801 0.53664 0.0
C1524 C 0.17351 0.63327 0.51887 0.0
C1525 C 0.18952 0.61801 0.51154 0.0
C1526 C 0.14892 0.62387 0.51675 0.0
C1527 C 0.14012 0.59924 0.50697 0.0
C1528 C 0.15618 0.5841 0.49971 0.0
C1529 C 0.1806 0.59335 0.50201 0.0
C1530 C 0.08085 0.56261 0.48055 0.0
C1531 C 0.06647 0.56384 0.50004 0.0
C1532 C 0.1045 0.57499 0.48262 0.0
C1533 C 0.11431 0.58889 0.5042 0.0
C1534 C 0.09976 0.59114 0.52341 0.0
C1535 C 0.07598 0.57863 0.52137 0.0
H1536 H 0.70376 0.97354 0.74271 0.0
H1537 H 0.65088 0.92011 0.77178 0.0
H1538 H 0.73469 0.95123 0.75381 0.0
H1539 H 0.6818 0.89781 0.78274 0.0
H1540 H 0.76341 0.87642 0.73766 0.0
H1541 H 0.74094 0.90953 0.73653 0.0
H1542 H 0.71964 0.89966 0.80794 0.0
H1543 H 0.74221 0.86643 0.80904 0.0
C1544 C 0.6988 0.95724 0.75177 0.0
C1545 C 0.67485 0.94835 0.7561 0.0
C1546 C 0.71651 0.94452 0.75811 0.0
C1547 C 0.71063 0.92281 0.76907 0.0
C1548 C 0.6869 0.91468 0.77457 0.0
C1549 C 0.66915 0.9273 0.76808 0.0
C1550 C 0.75455 0.88187 0.75338 0.0
C1551 C 0.75426 0.86878 0.77331 0.0
C1552 C 0.74174 0.90087 0.75278 0.0
C1553 C 0.72832 0.90691 0.77206 0.0
C1554 C 0.72963 0.89513 0.79276 0.0
C1555 C 0.74264 0.87626 0.79343 0.0
H1556 H 0.70774 0.95071 0.55648 0.0
H1557 H 0.66163 0.89129 0.51113 0.0
H1558 H 0.67729 0.97608 0.55476 0.0
H1559 H 0.6312 0.91686 0.50922 0.0
H1560 H 0.60204 0.98372 0.48508 0.0
H1561 H 0.63115 0.95733 0.49018 0.0
H1562 H 0.63417 0.97668 0.56662 0.0
H1563 H 0.60477 0.00295 0.56153 0.0
C1564 C 0.69095 0.94297 0.54639 0.0
C1565 C 0.68706 0.91908 0.53383 0.0
C1566 C 0.67354 0.95747 0.54548 0.0
C1567 C 0.65205 0.94849 0.53169 0.0
C1568 C 0.64778 0.92428 0.51978 0.0
C1569 C 0.66507 0.90959 0.52101 0.0
C1570 C 0.60914 0.98257 0.50294 0.0
C1571 C 0.60134 0.99548 0.5229 0.0
C1572 C 0.62555 0.96726 0.50587 0.0
C1573 C 0.63468 0.9648 0.5288 0.0
C1574 C 0.6274 0.97829 0.54875 0.0
C1575 C 0.61072 0.99337 0.54583 0.0
H1576 H 0.31224 0.46132 0.72439 0.0
H1577 H 0.37359 0.42701 0.7148 0.0
H1578 H 0.28798 0.42123 0.72973 0.0
H1579 H 0.34927 0.38704 0.72023 0.0
H1580 H 0.24817 0.33976 0.71554 0.0
H1581 H 0.27214 0.37885 0.70674 0.0
H1582 H 0.32904 0.3694 0.75556 0.0
H1583 H 0.30492 0.33052 0.76463 0.0
C1584 C 0.3205 0.44522 0.72318 0.0
C1585 C 0.34488 0.44741 0.71923 0.0
C1586 C 0.30657 0.42226 0.72617 0.0
C1587 C 0.3168 0.40108 0.72556 0.0
C1588 C 0.34101 0.40313 0.72105 0.0
C1589 C 0.35487 0.42601 0.71778 0.0
C1590 C 0.2658 0.34606 0.72437 0.0
C1591 C 0.27475 0.33211 0.74069 0.0
C1592 C 0.27947 0.36842 0.71937 0.0
C1593 C 0.30245 0.3771 0.73041 0.0
C1594 C 0.31148 0.36299 0.74657 0.0
C1595 C 0.29769 0.34079 0.75179 0.0
H1596 H 0.14532 0.56968 0.26003 0.0
H1597 H 0.13132 0.5736 0.18497 0.0
H1598 H 0.1705 0.61061 0.26415 0.0
H1599 H 0.15801 0.61402 0.18848 0.0
H1600 H 0.1923 0.69587 0.2075 0.0
H1601 H 0.16504 0.65586 0.20225 0.0
H1602 H 0.20769 0.63042 0.25602 0.0
H1603 H 0.23373 0.67096 0.26228 0.0
C1604 C 0.14779 0.57938 0.24437 0.0
C1605 C 0.13648 0.56858 0.2222 0.0
C1606 C 0.16248 0.60274 0.24662 0.0
C1607 C 0.16682 0.6156 0.22656 0.0
C1608 C 0.15499 0.6049 0.2044 0.0
C1609 C 0.13973 0.58171 0.20232 0.0
C1610 C 0.19583 0.68157 0.21804 0.0
C1611 C 0.21498 0.68644 0.23538 0.0
C1612 C 0.18026 0.65858 0.215 0.0
C1613 C 0.18386 0.63982 0.2289 0.0
C1614 C 0.20377 0.64455 0.24551 0.0
C1615 C 0.21891 0.6677 0.24896 0.0
H1616 H 0.46344 0.66636 0.39447 0.0
H1617 H 0.51159 0.7156 0.44753 0.0
H1618 H 0.46556 0.63191 0.41747 0.0
H1619 H 0.51374 0.68103 0.47049 0.0
H1620 H 0.53443 0.60449 0.48222 0.0
H1621 H 0.53067 0.64169 0.46387 0.0
H1622 H 0.45409 0.6178 0.45703 0.0
H1623 H 0.45768 0.58077 0.47526 0.0
C1624 C 0.47427 0.66987 0.41116 0.0
C1625 C 0.48733 0.69367 0.41918 0.0
C1626 C 0.47543 0.65017 0.42436 0.0
C1627 C 0.48986 0.65381 0.44574 0.0
C1628 C 0.50263 0.67768 0.45398 0.0
C1629 C 0.50125 0.69747 0.44091 0.0
C1630 C 0.51678 0.60731 0.47707 0.0
C1631 C 0.4964 0.58954 0.48008 0.0
C1632 C 0.51463 0.62866 0.46665 0.0
C1633 C 0.49209 0.6325 0.45886 0.0
C1634 C 0.4717 0.61515 0.46259 0.0
C1635 C 0.47381 0.59398 0.47316 0.0
H1636 H 0.58976 0.32611 0.71294 0.0
H1637 H 0.62725 0.31798 0.64858 0.0
H1638 H 0.62475 0.32179 0.73668 0.0
H1639 H 0.66278 0.31446 0.67255 0.0
H1640 H 0.69369 0.319 0.7764 0.0
H1641 H 0.66552 0.33582 0.75203 0.0
H1642 H 0.67052 0.28075 0.69301 0.0
H1643 H 0.69866 0.2645 0.71705 0.0
C1644 C 0.60573 0.32405 0.70389 0.0
C1645 C 0.60559 0.32184 0.67883 0.0
C1646 C 0.6259 0.32177 0.71757 0.0
C1647 C 0.64646 0.31736 0.7065 0.0
C1648 C 0.64701 0.31729 0.68156 0.0
C1649 C 0.62673 0.31947 0.66784 0.0
C1650 C 0.68881 0.31072 0.75816 0.0
C1651 C 0.69818 0.2904 0.74863 0.0
C1652 C 0.67274 0.32031 0.7442 0.0
C1653 C 0.66581 0.30969 0.72052 0.0
C1654 C 0.67578 0.28975 0.71096 0.0
C1655 C 0.69173 0.28023 0.72485 0.0
H1656 H 0.99121 0.36329 0.87694 0.0
H1657 H 0.99292 0.32172 0.93731 0.0
H1658 H 0.98872 0.4001 0.90384 0.0
H1659 H 0.99058 0.35878 0.96425 0.0
H1660 H 0.96464 0.45651 0.95715 0.0
H1661 H 0.96063 0.41624 0.9331 0.0
H1662 H 0.01921 0.40026 0.97552 0.0
H1663 H 0.02334 0.44041 -0.00058 0.0
C1664 C 0.99099 0.36197 0.89594 0.0
C1665 C 0.99241 0.3396 0.90499 0.0
C1666 C 0.98933 0.38301 0.91131 0.0
C1667 C 0.98937 0.38226 0.93611 0.0
C1668 C 0.99057 0.35987 0.9452 0.0
C1669 C 0.99188 0.33868 0.92978 0.0
C1670 C 0.97634 0.44419 0.96161 0.0
C1671 C -0.0056 0.45166 0.98005 0.0
C1672 C 0.97415 0.42124 0.94776 0.0
C1673 C 0.98971 0.40522 0.95237 0.0
C1674 C 0.00689 0.41216 0.97164 0.0
C1675 C 0.00932 0.43521 0.98523 0.0
H1676 H 0.9577 0.79652 0.16401 0.0
H1677 H 0.98266 0.77323 0.2296 0.0
H1678 H 0.91856 0.79606 0.17981 0.0
H1679 H 0.94402 0.77359 0.24559 0.0
H1680 H 0.86488 0.74834 0.25547 0.0
H1681 H 0.90438 0.75053 0.24048 0.0
H1682 H 0.8975 0.81689 0.20917 0.0
H1683 H 0.85747 0.8141 0.22361 0.0
C1684 C 0.95489 0.79143 0.18182 0.0
C1685 C 0.97327 0.78472 0.19544 0.0
C1686 C 0.93251 0.79136 0.19096 0.0
C1687 C 0.9281 0.78473 0.21398 0.0
C1688 C 0.94662 0.77834 0.22765 0.0
C1689 C 0.96885 0.77823 0.21847 0.0
C1690 C 0.87191 0.76351 0.24557 0.0
C1691 C 0.85819 0.78106 0.2407 0.0
C1692 C 0.8946 0.76484 0.23703 0.0
C1693 C 0.90417 0.78388 0.22357 0.0
C1694 C 0.89055 0.80177 0.21915 0.0
C1695 C 0.86774 0.80033 0.22761 0.0
H1696 H 0.4952 0.31805 0.04422 0.0
H1697 H 0.50723 0.36551 0.11133 0.0
H1698 H 0.49878 0.35456 0.02272 0.0
H1699 H 0.51059 0.40172 0.08996 0.0
H1700 H 0.48095 0.42845 -0.00171 0.0
H1701 H 0.47821 0.38972 0.0161 0.0
H1702 H 0.53927 0.42306 0.06421 0.0
H1703 H 0.54195 0.46158 0.04672 0.0
C1704 C 0.49846 0.33623 0.05438 0.0
C1705 C 0.50103 0.33887 0.0795 0.0
C1706 C 0.50044 0.35711 0.04206 0.0
C1707 C 0.50524 0.38104 0.05462 0.0
C1708 C 0.50735 0.38358 0.07973 0.0
C1709 C 0.50525 0.36278 0.092 0.0
C1710 C 0.49404 0.42736 0.01237 0.0
C1711 C 0.51151 0.44823 0.02122 0.0
C1712 C 0.49245 0.40517 0.02259 0.0
C1713 C 0.50826 0.40347 0.04186 0.0
C1714 C 0.52647 0.42394 0.04977 0.0
C1715 C 0.52809 0.446 0.03959 0.0
H1716 H 0.97546 0.30388 0.31901 0.0
H1717 H 0.95562 0.28359 0.38827 0.0
H1718 H 0.93475 0.3071 0.30884 0.0
H1719 H 0.91458 0.28764 0.3783 0.0
H1720 H 0.8396 0.26744 0.33672 0.0
H1721 H 0.87992 0.26808 0.35301 0.0
H1722 H 0.90619 0.33206 0.3172 0.0
H1723 H 0.866 0.33057 0.30009 0.0
C1724 C 0.96241 0.3003 0.33219 0.0
C1725 C 0.96882 0.29349 0.35448 0.0
C1726 C 0.93903 0.30241 0.32643 0.0
C1727 C 0.92139 0.29803 0.34287 0.0
C1728 C 0.92771 0.29105 0.36517 0.0
C1729 C 0.9512 0.28873 0.37089 0.0
C1730 C 0.85397 0.28189 0.33272 0.0
C1731 C 0.84983 0.29878 0.31694 0.0
C1732 C 0.87708 0.28232 0.34211 0.0
C1733 C 0.89642 0.29983 0.33606 0.0
C1734 C 0.89183 0.31787 0.32169 0.0
C1735 C 0.8688 0.31721 0.31205 0.0
H1736 H 0.98319 0.71149 0.5533 0.0
H1737 H 0.9877 0.66662 0.61077 0.0
H1738 H 0.97975 0.67466 0.52424 0.0
H1739 H 0.98455 0.63014 0.58187 0.0
H1740 H 0.9601 0.5653 0.52511 0.0
H1741 H 0.95734 0.60228 0.55174 0.0
H1742 H 0.00688 0.64671 0.51048 0.0
H1743 H 0.00962 0.60957 0.48386 0.0
C1744 C 0.98313 0.69377 0.55975 0.0
C1745 C 0.98582 0.69204 0.58436 0.0
C1746 C 0.98136 0.67273 0.54311 0.0
C1747 C 0.98199 0.64952 0.55075 0.0
C1748 C 0.98377 0.64768 0.57537 0.0
C1749 C 0.98571 0.66867 0.59196 0.0
C1750 C 0.97041 0.58298 0.52178 0.0
C1751 C 0.98537 0.58459 0.5027 0.0
C1752 C 0.9688 0.60415 0.53698 0.0
C1753 C 0.982 0.62741 0.53331 0.0
C1754 C -0.00369 0.6291 0.51365 0.0
C1755 C -0.00202 0.60786 0.49849 0.0
H1756 H 0.57369 0.77029 0.81911 0.0
H1757 H 0.61495 0.74897 0.87643 0.0
H1758 H 0.60658 0.76865 0.79309 0.0
H1759 H 0.64773 0.74704 0.85023 0.0
H1760 H 0.691 0.72248 0.78895 0.0
H1761 H 0.65534 0.72127 0.81132 0.0
H1762 H 0.6497 0.79371 0.79319 0.0
H1763 H 0.6856 0.79517 0.77093 0.0
C1764 C 0.58971 0.76508 0.8261 0.0
C1765 C 0.59177 0.75978 0.84984 0.0
C1766 C 0.60854 0.76425 0.81122 0.0
C1767 C 0.62964 0.75768 0.81964 0.0
C1768 C 0.63155 0.75195 0.84323 0.0
C1769 C 0.61287 0.75318 0.85825 0.0
C1770 C 0.68196 0.73799 0.78932 0.0
C1771 C 0.6912 0.75897 0.77817 0.0
C1772 C 0.66165 0.73735 0.80233 0.0
C1773 C 0.64992 0.75748 0.80415 0.0
C1774 C 0.65839 0.77791 0.79201 0.0
C1775 C 0.67894 0.77874 0.77929 0.0
H1776 H 0.38246 0.51558 0.64008 0.0
H1777 H 0.43522 0.57525 0.67714 0.0
H1778 H 0.40558 0.51644 0.60483 0.0
H1779 H 0.45758 0.57759 0.64148 0.0
H1780 H 0.50768 0.55538 0.5867 0.0
H1781 H 0.48282 0.55771 0.62038 0.0
H1782 H 0.41965 0.53457 0.57215 0.0
H1783 H 0.44499 0.5309 0.53877 0.0
C1784 C 0.39875 0.5293 0.64043 0.0
C1785 C 0.40718 0.54521 0.66136 0.0
C1786 C 0.41202 0.52994 0.62014 0.0
C1787 C 0.43378 0.54692 0.62015 0.0
C1788 C 0.44141 0.5637 0.64085 0.0
C1789 C 0.42846 0.56259 0.66128 0.0
C1790 C 0.48846 0.55093 0.58338 0.0
C1791 C 0.47819 0.54264 0.56025 0.0
C1792 C 0.47409 0.55243 0.60269 0.0
C1793 C 0.44901 0.54633 0.59925 0.0
C1794 C 0.43881 0.53885 0.57578 0.0
C1795 C 0.45328 0.53678 0.55655 0.0
H1796 H 0.79781 0.19839 0.962 0.0
H1797 H 0.72712 0.15422 0.94608 0.0
H1798 H 0.79348 0.219 0.9264 0.0
H1799 H 0.7218 0.17594 0.91183 0.0
H1800 H 0.7269 0.19874 0.83804 0.0
H1801 H 0.73189 0.17902 0.8737 0.0
H1802 H 0.77631 0.24702 0.90795 0.0
H1803 H 0.77267 0.26595 0.8712 0.0
C1804 C 0.78126 0.19333 0.95096 0.0
C1805 C 0.76293 0.17454 0.95649 0.0
C1806 C 0.77862 0.20528 0.93068 0.0
C1807 C 0.75729 0.19914 0.91595 0.0
C1808 C 0.73877 0.18075 0.92212 0.0
C1809 C 0.74171 0.16835 0.9419 0.0
C1810 C 0.73761 0.20946 0.85328 0.0
C1811 C 0.74934 0.23382 0.85201 0.0
C1812 C 0.74039 0.19823 0.87388 0.0
C1813 C 0.75442 0.21137 0.89401 0.0
C1814 C 0.76574 0.23607 0.89277 0.0
C1815 C 0.76348 0.24707 0.87184 0.0
H1816 H 0.11581 0.5039 0.15799 0.0
H1817 H 0.07068 0.43153 0.15252 0.0
H1818 H 0.09152 0.51521 0.12697 0.0
H1819 H 0.04734 0.44162 0.11898 0.0
H1820 H 0.99284 0.47691 0.08046 0.0
H1821 H 0.0185 0.4625 0.10939 0.0
H1822 H 0.079 0.51476 0.08979 0.0
H1823 H 0.05289 0.5313 0.06452 0.0
C1824 C 0.10135 0.4899 0.14908 0.0
C1825 C 0.09527 0.46675 0.15729 0.0
C1826 C 0.08724 0.49634 0.13109 0.0
C1827 C 0.06717 0.47939 0.12008 0.0
C1828 C 0.06218 0.45546 0.12728 0.0
C1829 C 0.07582 0.4494 0.14611 0.0
C1830 C 0.01158 0.48548 0.0829 0.0
C1831 C 0.02094 0.50503 0.07014 0.0
C1832 C 0.02647 0.47696 0.09913 0.0
C1833 C 0.05111 0.48737 0.10221 0.0
C1834 C 0.06019 0.50667 0.0889 0.0
C1835 C 0.04517 0.51598 0.07392 0.0
H1836 H 0.71792 0.86382 0.42453 0.0
H1837 H 0.7746 0.83512 0.45785 0.0
H1838 H 0.72385 0.84169 0.38622 0.0
H1839 H 0.78075 0.81311 0.41911 0.0
H1840 H 0.79813 0.80917 0.33526 0.0
H1841 H 0.79423 0.82697 0.37645 0.0
H1842 H 0.71894 0.79547 0.36976 0.0
H1843 H 0.7226 0.77765 0.32933 0.0
C1844 C 0.73153 0.85262 0.4237 0.0
C1845 C 0.74568 0.8511 0.44424 0.0
C1846 C 0.73493 0.83996 0.40177 0.0
C1847 C 0.75281 0.82576 0.39973 0.0
C1848 C 0.76695 0.82406 0.42022 0.0
C1849 C 0.76324 0.83642 0.44237 0.0
C1850 C 0.78085 0.8058 0.34272 0.0
C1851 C 0.76067 0.79226 0.32879 0.0
C1852 C 0.77864 0.81591 0.36628 0.0
C1853 C 0.75621 0.81278 0.37611 0.0
C1854 C 0.73636 0.79844 0.36251 0.0
C1855 C 0.73855 0.78823 0.33926 0.0
H1856 H 0.45859 0.51671 0.78987 0.0
H1857 H 0.38719 0.52147 0.80921 0.0
H1858 H 0.46919 0.51031 0.8305 0.0
H1859 H 0.3976 0.5142 0.84992 0.0
H1860 H 0.43502 0.52674 0.92629 0.0
H1861 H 0.42088 0.53185 0.88607 0.0
H1862 H 0.46211 0.47929 0.85665 0.0
H1863 H 0.4769 0.47504 0.89685 0.0
C1864 C 0.44512 0.51638 0.80282 0.0
C1865 C 0.42202 0.51955 0.79627 0.0
C1866 C 0.45113 0.51243 0.82611 0.0
C1867 C 0.43414 0.51127 0.84345 0.0
C1868 C 0.41117 0.51507 0.83707 0.0
C1869 C 0.4052 0.51926 0.81374 0.0
C1870 C 0.44071 0.516 0.9112 0.0
C1871 C 0.45717 0.50063 0.91461 0.0
C1872 C 0.4326 0.51889 0.88814 0.0
C1873 C 0.44066 0.50632 0.86805 0.0
C1874 C 0.45603 0.4898 0.87166 0.0
C1875 C 0.46431 0.48711 0.89469 0.0
H1876 H 0.79054 0.20847 0.0766 0.0
H1877 H 0.79259 0.15197 0.12339 0.0
H1878 H 0.79395 0.23969 0.11157 0.0
H1879 H 0.79604 0.18305 0.15794 0.0
H1880 H 0.75395 0.22958 0.20359 0.0
H1881 H 0.75903 0.2055 0.16638 0.0
H1882 H 0.82131 0.25941 0.15487 0.0
H1883 H 0.81624 0.28401 0.19278 0.0
C1884 C 0.79247 0.20284 0.09426 0.0
C1885 C 0.79077 0.17769 0.0973 0.0
C1886 C 0.79445 0.22071 0.11419 0.0
C1887 C 0.79481 0.21356 0.13728 0.0
C1888 C 0.79544 0.18887 0.14023 0.0
C1889 C 0.79345 0.17111 0.12045 0.0
C1890 C 0.7685 0.23666 0.19302 0.0
C1891 C 0.7848 0.25857 0.20116 0.0
C1892 C 0.7715 0.22275 0.1718 0.0
C1893 C 0.79084 0.23041 0.15815 0.0
C1894 C 0.80637 0.25314 0.1653 0.0
C1895 C 0.80342 0.26716 0.18684 0.0
H1896 H 0.08705 0.48399 0.30255 0.0
H1897 H 0.02182 0.49185 0.26519 0.0
H1898 H 0.06758 0.48477 0.3399 0.0
H1899 H 0.00205 0.49183 0.30261 0.0
H1900 H 0.98912 0.52579 0.37927 0.0
H1901 H 0.003 0.51893 0.33918 0.0
H1902 H 0.03804 0.46179 0.36161 0.0
H1903 H 0.025 0.46945 0.40175 0.0
C1904 C 0.06845 0.48554 0.30225 0.0
C1905 C 0.05603 0.488 0.28093 0.0
C1906 C 0.0572 0.48579 0.32366 0.0
C1907 C 0.03321 0.48826 0.32421 0.0
C1908 C 0.02062 0.49018 0.3028 0.0
C1909 C 0.03194 0.49011 0.28137 0.0
C1910 C -0.00054 0.51152 0.3754 0.0
C1911 C 0.00634 0.49839 0.39349 0.0
C1912 C 0.00734 0.5075 0.35247 0.0
C1913 C 0.02196 0.49008 0.34733 0.0
C1914 C 0.02734 0.47578 0.36516 0.0
C1915 C 0.01976 0.48004 0.38808 0.0
H1916 H 0.78513 0.85866 0.60204 0.0
H1917 H 0.71492 0.81734 0.57787 0.0
H1918 H 0.78406 0.83718 0.63745 0.0
H1919 H 0.71285 0.79707 0.61409 0.0
H1920 H 0.72331 0.74892 0.67268 0.0
H1921 H 0.72449 0.76853 0.63603 0.0
H1922 H 0.76898 0.83459 0.67384 0.0
H1923 H 0.76947 0.81396 0.70949 0.0
C1924 C 0.76938 0.84506 0.60444 0.0
C1925 C 0.75016 0.83964 0.58718 0.0
C1926 C 0.76857 0.83288 0.62493 0.0
C1927 C 0.7482 0.81544 0.62909 0.0
C1928 C 0.72903 0.80998 0.61158 0.0
C1929 C 0.73013 0.82171 0.59078 0.0
C1930 C 0.73324 0.76768 0.67309 0.0
C1931 C 0.74612 0.77999 0.69408 0.0
C1932 C 0.73384 0.77907 0.65205 0.0
C1933 C 0.74696 0.80329 0.65162 0.0
C1934 C 0.75917 0.81577 0.673 0.0
C1935 C 0.75905 0.80413 0.69376 0.0
H1936 H 0.64958 0.41921 0.53099 0.0
H1937 H 0.70397 0.47326 0.50463 0.0
H1938 H 0.62434 0.45015 0.53639 0.0
H1939 H 0.67873 0.50402 0.50999 0.0
H1940 H 0.60654 0.52909 0.48691 0.0
H1941 H 0.63922 0.50656 0.48867 0.0
H1942 H 0.62324 0.49193 0.56046 0.0
H1943 H 0.59066 0.51463 0.55879 0.0
C1944 C 0.65619 0.43771 0.52654 0.0
C1945 C 0.67862 0.44377 0.51724 0.0
C1946 C 0.64188 0.45546 0.52983 0.0
C1947 C 0.6497 0.47946 0.52366 0.0
C1948 C 0.67231 0.48564 0.51481 0.0
C1949 C 0.6867 0.46801 0.51177 0.0
C1950 C 0.61057 0.52181 0.50335 0.0
C1951 C 0.59602 0.52335 0.52262 0.0
C1952 C 0.62922 0.50889 0.50435 0.0
C1953 C 0.6334 0.49719 0.52456 0.0
C1954 C 0.62009 0.50051 0.54456 0.0
C1955 C 0.60163 0.51366 0.54366 0.0
H1956 H 0.18572 0.08608 0.44714 0.0
H1957 H 0.1753 0.14133 0.50356 0.0
H1958 H 0.14568 0.06281 0.45093 0.0
H1959 H 0.13605 0.1174 0.50875 0.0
H1960 H 0.05842 0.08023 0.49974 0.0
H1961 H 0.09729 0.10454 0.49424 0.0
H1962 H 0.12328 0.03712 0.47454 0.0
H1963 H 0.08353 0.01297 0.47837 0.0
C1964 C 0.17475 0.09322 0.46032 0.0
C1965 C 0.18344 0.11554 0.47491 0.0
C1966 C 0.15192 0.07973 0.46278 0.0
C1967 C 0.13752 0.08795 0.48036 0.0
C1968 C 0.14627 0.11058 0.4947 0.0
C1969 C 0.16884 0.12436 0.4918 0.0
C1970 C 0.07251 0.07062 0.49437 0.0
C1971 C 0.06805 0.04474 0.48945 0.0
C1972 C 0.09492 0.08458 0.49131 0.0
C1973 C 0.11364 0.07294 0.48385 0.0
C1974 C 0.10925 0.04687 0.4797 0.0
C1975 C 0.08659 0.03294 0.48218 0.0
H1976 H 0.14611 0.91049 0.76806 0.0
H1977 H 0.213 0.96291 0.77377 0.0
H1978 H 0.16759 0.87645 0.76455 0.0
H1979 H 0.23458 0.92864 0.77008 0.0
H1980 H 0.26183 0.85724 0.78857 0.0
H1981 H 0.24325 0.89369 0.79169 0.0
H1982 H 0.1914 0.85839 0.73454 0.0
H1983 H 0.2097 0.82213 0.73145 0.0
C1984 C 0.16542 0.91477 0.76865 0.0
C1985 C 0.17782 0.93944 0.77112 0.0
C1986 C 0.17774 0.89523 0.76646 0.0
C1987 C 0.2028 0.89982 0.76678 0.0
C1988 C 0.21528 0.9245 0.76984 0.0
C1989 C 0.20291 0.94411 0.77188 0.0
C1990 C 0.24671 0.85743 0.77641 0.0
C1991 C 0.23718 0.83663 0.75988 0.0
C1992 C 0.23606 0.87832 0.77822 0.0
C1993 C 0.21561 0.87877 0.76362 0.0
C1994 C 0.2068 0.85842 0.74641 0.0
C1995 C 0.21745 0.83767 0.74454 0.0
H1996 H 0.30566 0.90659 -0.00285 0.0
H1997 H 0.2989 0.95812 0.94609 0.0
H1998 H 0.34896 0.9184 -0.00227 0.0
H1999 H 0.34213 0.97015 0.94705 0.0
H2000 H 0.42217 0.97664 0.94407 0.0
H2001 H 0.38008 0.95666 0.93806 0.0
H2002 H 0.37604 0.95703 0.01437 0.0
H2003 H 0.41784 0.97652 0.02042 0.0
C2004 C 0.31338 0.92023 0.98587 0.0
C2005 C 0.29883 0.93168 0.97184 0.0
C2006 C 0.33816 0.92703 0.98626 0.0
C2007 C 0.34887 0.94535 0.97261 0.0
C2008 C 0.33437 0.95583 0.95762 0.0
C2009 C 0.30959 0.94907 0.95723 0.0
C2010 C 0.41233 0.97224 0.95953 0.0
C2011 C 0.4233 0.97836 0.98272 0.0
C2012 C 0.38825 0.96087 0.95607 0.0
C2013 C 0.37483 0.95526 0.97574 0.0
C2014 C 0.386 0.96079 -0.00116 0.0
C2015 C 0.40994 0.97221 0.0023 0.0
H2016 H 0.87735 0.61801 0.76591 0.0
H2017 H 0.81839 0.56053 0.77883 0.0
H2018 H 0.84941 0.64454 0.75711 0.0
H2019 H 0.79042 0.58738 0.77022 0.0
H2020 H 0.75882 0.66213 0.78136 0.0
H2021 H 0.78183 0.63031 0.7885 0.0
H2022 H 0.81649 0.64136 0.72297 0.0
H2023 H 0.79339 0.67295 0.71569 0.0
C2024 C 0.85846 0.61116 0.76716 0.0
C2025 C 0.85004 0.5872 0.77301 0.0
C2026 C 0.84248 0.62624 0.76188 0.0
C2027 C 0.81781 0.61777 0.76264 0.0
C2028 C 0.80938 0.59421 0.76942 0.0
C2029 C 0.82537 0.57894 0.77437 0.0
C2030 C 0.77085 0.6572 0.76816 0.0
C2031 C 0.77448 0.67001 0.74805 0.0
C2032 C 0.78401 0.63908 0.77227 0.0
C2033 C 0.80115 0.63379 0.75647 0.0
C2034 C 0.8036 0.64544 0.73557 0.0
C2035 C 0.79025 0.66331 0.73131 0.0
H2036 H 0.83344 0.6274 0.98645 0.0
H2037 H 0.79551 0.55829 0.00674 0.0
H2038 H 0.87071 0.61208 0.98871 0.0
H2039 H 0.83239 0.54285 0.00829 0.0
H2040 H 0.90562 0.53388 0.03592 0.0
H2041 H 0.86871 0.54954 0.03281 0.0
H2042 H 0.89147 0.58196 0.96925 0.0
H2043 H 0.92877 0.56686 0.97288 0.0
C2044 C 0.83302 0.60892 0.99121 0.0
C2045 C 0.81154 0.59416 -0.00343 0.0
C2046 C 0.85433 0.60009 0.99239 0.0
C2047 C 0.85453 0.57629 -0.00118 0.0
C2048 C 0.83296 0.56144 0.00376 0.0
C2049 C 0.81176 0.57029 0.00274 0.0
C2050 C 0.90265 0.54427 0.02125 0.0
C2051 C 0.91992 0.54916 0.00463 0.0
C2052 C 0.88149 0.55316 0.01939 0.0
C2053 C 0.87712 0.56697 0.00074 0.0
C2054 C 0.89443 0.57168 0.984 0.0
C2055 C 0.91567 0.56289 0.98596 0.0
H2056 H 0.14258 0.10845 0.78039 0.0
H2057 H 0.20244 0.07111 0.77922 0.0
H2058 H 0.16964 0.14799 0.78127 0.0
H2059 H 0.2297 0.11109 0.77978 0.0
H2060 H 0.27094 0.19289 0.79857 0.0
H2061 H 0.24534 0.15306 0.80356 0.0
H2062 H 0.19399 0.16593 0.75032 0.0
H2063 H 0.21929 0.20531 0.74545 0.0
C2064 C 0.16156 0.10866 0.78044 0.0
C2065 C 0.17033 0.08655 0.77936 0.0
C2066 C 0.17706 0.13137 0.78089 0.0
C2067 C 0.20174 0.13259 0.78017 0.0
C2068 C 0.21074 0.11068 0.78038 0.0
C2069 C 0.19514 0.08781 0.77999 0.0
C2070 C 0.25413 0.18712 0.78805 0.0
C2071 C 0.24697 0.2022 0.77177 0.0
C2072 C 0.23957 0.16435 0.79082 0.0
C2073 C 0.21759 0.1565 0.77749 0.0
C2074 C 0.21061 0.17166 0.76118 0.0
C2075 C 0.22514 0.1942 0.75833 0.0
H2076 H 0.39811 0.92922 0.27131 0.0
H2077 H 0.33864 0.96685 0.27817 0.0
H2078 H 0.37072 0.88945 0.27106 0.0
H2079 H 0.31146 0.92717 0.27765 0.0
H2080 H 0.27254 0.84879 0.24061 0.0
H2081 H 0.2989 0.88947 0.24486 0.0
H2082 H 0.34175 0.86731 0.30033 0.0
H2083 H 0.31534 0.82673 0.29636 0.0
C2084 C 0.37927 0.92901 0.27287 0.0
C2085 C 0.37054 0.95114 0.27474 0.0
C2086 C 0.36365 0.90632 0.27284 0.0
C2087 C 0.33905 0.90538 0.27429 0.0
C2088 C 0.33035 0.92746 0.27637 0.0
C2089 C 0.34596 0.95014 0.27678 0.0
C2090 C 0.28742 0.85271 0.2539 0.0
C2091 C 0.29188 0.83461 0.26816 0.0
C2092 C 0.30244 0.87596 0.25635 0.0
C2093 C 0.32236 0.88135 0.27283 0.0
C2094 C 0.32658 0.86346 0.28738 0.0
C2095 C 0.31135 0.84035 0.28522 0.0
H2096 H 0.53612 0.33666 0.56215 0.0
H2097 H 0.49724 0.36913 0.61702 0.0
H2098 H 0.5282 0.36713 0.53615 0.0
H2099 H 0.48934 0.39949 0.59103 0.0
H2100 H 0.46354 0.4387 0.53165 0.0
H2101 H 0.46742 0.40289 0.55213 0.0
H2102 H 0.54202 0.41334 0.53793 0.0
H2103 H 0.53824 0.44906 0.51745 0.0
C2104 C 0.52571 0.35015 0.56857 0.0
C2105 C 0.51741 0.35061 0.59168 0.0
C2106 C 0.52125 0.36761 0.55372 0.0
C2107 C 0.50817 0.38565 0.56158 0.0
C2108 C 0.49926 0.38562 0.5844 0.0
C2109 C 0.50393 0.36835 0.59934 0.0
C2110 C 0.48068 0.43312 0.53253 0.0
C2111 C 0.50063 0.44684 0.52307 0.0
C2112 C 0.48291 0.41272 0.54439 0.0
C2113 C 0.50505 0.40546 0.54675 0.0
C2114 C 0.5247 0.41841 0.53625 0.0
C2115 C 0.52254 0.43895 0.52462 0.0
H2116 H 0.40877 0.7346 0.34808 0.0
H2117 H 0.43706 0.75436 0.2815 0.0
H2118 H 0.3684 0.72453 0.32856 0.0
H2119 H 0.39707 0.74422 0.26217 0.0
H2120 H 0.30867 0.76082 0.29267 0.0
H2121 H 0.34514 0.75521 0.31289 0.0
H2122 H 0.36016 0.71035 0.25007 0.0
H2123 H 0.32278 0.71533 0.22984 0.0
C2124 C 0.40641 0.73634 0.32924 0.0
C2125 C 0.42595 0.74567 0.31641 0.0
C2126 C 0.38339 0.73056 0.31809 0.0
C2127 C 0.37968 0.73358 0.29387 0.0
C2128 C 0.39942 0.74142 0.28076 0.0
C2129 C 0.42228 0.74754 0.29194 0.0
C2130 C 0.31924 0.749 0.2834 0.0
C2131 C 0.31282 0.73837 0.25972 0.0
C2132 C 0.34015 0.74577 0.29504 0.0
C2133 C 0.35541 0.73229 0.28308 0.0
C2134 C 0.34862 0.72081 0.25967 0.0
C2135 C 0.32733 0.72368 0.24811 0.0
H2136 H 0.05651 0.69997 0.14377 0.0
H2137 H 0.02843 0.73208 0.0849 0.0
H2138 H 0.05452 0.66139 0.11796 0.0
H2139 H 0.02688 0.69356 0.05898 0.0
H2140 H -0.0024 0.61115 0.03193 0.0
H2141 H 0.00342 0.6518 0.05474 0.0
H2142 H 0.07186 0.64237 0.08358 0.0
H2143 H 0.06583 0.60125 0.06102 0.0
C2144 C 0.05006 0.69889 0.12528 0.0
C2145 C 0.04246 0.71912 0.11648 0.0
C2146 C 0.04912 0.6768 0.11042 0.0
C2147 C 0.04055 0.67438 0.08639 0.0
C2148 C 0.03331 0.69473 0.07748 0.0
C2149 C 0.03427 0.71684 0.09234 0.0
C2150 C 0.01401 0.61775 0.04296 0.0
C2151 C 0.03117 0.6028 0.04477 0.0
C2152 C 0.01741 0.6412 0.05594 0.0
C2153 C 0.03805 0.65031 0.07109 0.0
C2154 C 0.05561 0.63573 0.07231 0.0
C2155 C 0.05223 0.61224 0.05924 0.0
H2156 H 0.04059 0.25205 0.80315 0.0
H2157 H 0.08225 0.25792 0.86998 0.0
H2158 H 0.07607 0.24957 0.78131 0.0
H2159 H 0.11785 0.25552 0.84801 0.0
H2160 H 0.17058 0.22531 0.8001 0.0
H2161 H 0.13339 0.22451 0.82 0.0
H2162 H 0.11467 0.27794 0.77595 0.0
H2163 H 0.1519 0.27871 0.75603 0.0
C2164 C 0.05734 0.25281 0.81318 0.0
C2165 C 0.05867 0.25522 0.83829 0.0
C2166 C 0.07764 0.25148 0.80066 0.0
C2167 C 0.09967 0.2523 0.81296 0.0
C2168 C 0.10101 0.25455 0.83808 0.0
C2169 C 0.08071 0.25611 0.85064 0.0
C2170 C 0.15834 0.2366 0.79445 0.0
C2171 C 0.16405 0.25212 0.77659 0.0
C2172 C 0.13719 0.2363 0.80597 0.0
C2173 C 0.1213 0.25134 0.79968 0.0
C2174 C 0.12657 0.26607 0.78108 0.0
C2175 C 0.14783 0.26652 0.76969 0.0
H2176 H 0.52847 0.72545 0.96994 0.0
H2177 H 0.49927 0.68054 0.90419 0.0
H2178 H 0.52135 0.68882 0.99108 0.0
H2179 H 0.49298 0.64389 0.92496 0.0
H2180 H 0.46891 0.58291 0.96879 0.0
H2181 H 0.4706 0.62213 0.95264 0.0
H2182 H 0.5365 0.65238 0.99495 0.0
H2183 H 0.53423 0.61338 0.01179 0.0
C2184 C 0.52048 0.70776 0.96001 0.0
C2185 C 0.51446 0.70592 0.93537 0.0
C2186 C 0.51653 0.6867 0.9721 0.0
C2187 C 0.50661 0.66326 0.9598 0.0
C2188 C 0.50023 0.66161 0.93521 0.0
C2189 C 0.50399 0.68265 0.9232 0.0
C2190 C 0.48355 0.59808 0.97495 0.0
C2191 C 0.50149 0.59497 0.9915 0.0
C2192 C 0.48465 0.62054 0.96551 0.0
C2193 C 0.5039 0.64042 0.97212 0.0
C2194 C 0.52128 0.63764 0.98954 0.0
C2195 C 0.52002 0.61522 -0.00079 0.0
H2196 H 0.08458 0.76017 0.61307 0.0
H2197 H 0.06173 0.77944 0.68344 0.0
H2198 H 0.11902 0.74698 0.63112 0.0
H2199 H 0.09613 0.76676 0.70135 0.0
H2200 H 0.14674 0.72303 0.72854 0.0
H2201 H 0.11137 0.72936 0.70606 0.0
H2202 H 0.15625 0.76457 0.65493 0.0
H2203 H 0.19144 0.75768 0.67707 0.0
C2204 C 0.08703 0.76181 0.63235 0.0
C2205 C 0.07044 0.77081 0.64684 0.0
C2206 C 0.1067 0.75421 0.64268 0.0
C2207 C 0.1101 0.75547 0.66766 0.0
C2208 C 0.09372 0.76494 0.68205 0.0
C2209 C 0.07414 0.7725 0.67178 0.0
C2210 C 0.14894 0.73155 0.71218 0.0
C2211 C 0.17176 0.74006 0.70463 0.0
C2212 C 0.12875 0.73541 0.69943 0.0
C2213 C 0.13106 0.7479 0.67897 0.0
C2214 C 0.15384 0.75485 0.67056 0.0
C2215 C 0.174 0.75095 0.68328 0.0
H2216 H 0.06606 0.38208 0.39814 0.0
H2217 H 0.04882 0.34306 0.45944 0.0
H2218 H 0.06105 0.42044 0.42089 0.0
H2219 H 0.0443 0.38194 0.48229 0.0
H2220 H 0.00222 0.46039 0.45645 0.0
H2221 H 0.01723 0.42556 0.43692 0.0
H2222 H 0.06914 0.43135 0.49604 0.0
H2223 H 0.0549 0.46746 0.51524 0.0
C2224 C 0.06183 0.38173 0.41664 0.0
C2225 C 0.05747 0.35935 0.42684 0.0
C2226 C 0.05898 0.40375 0.42962 0.0
C2227 C 0.05215 0.40398 0.45319 0.0
C2228 C 0.04967 0.38214 0.46412 0.0
C2229 C 0.05219 0.35993 0.45101 0.0
C2230 C 0.01728 0.45476 0.46502 0.0
C2231 C 0.02777 0.467 0.48708 0.0
C2232 C 0.02574 0.43472 0.45391 0.0
C2233 C 0.04443 0.42602 0.46494 0.0
C2234 C 0.05477 0.4379 0.4872 0.0
C2235 C 0.04666 0.45847 0.4981 0.0
H2236 H 0.45363 0.25628 0.21167 0.0
H2237 H 0.42672 0.28785 0.15182 0.0
H2238 H 0.41949 0.26298 0.23351 0.0
H2239 H 0.39183 0.29412 0.17386 0.0
H2240 H 0.34019 0.31672 0.22972 0.0
H2241 H 0.3777 0.31661 0.21022 0.0
H2242 H 0.37777 0.243 0.22874 0.0
H2243 H 0.34094 0.24325 0.24837 0.0
C2244 C 0.44037 0.26462 0.20308 0.0
C2245 C 0.44273 0.27113 0.17977 0.0
C2246 C 0.42076 0.26846 0.21568 0.0
C2247 C 0.40279 0.27874 0.20531 0.0
C2248 C 0.40547 0.28623 0.18235 0.0
C2249 C 0.42534 0.2825 0.16968 0.0
C2250 C 0.34852 0.30075 0.22999 0.0
C2251 C 0.33765 0.28002 0.24064 0.0
C2252 C 0.36981 0.30058 0.21859 0.0
C2253 C 0.38068 0.2798 0.21792 0.0
C2254 C 0.37005 0.25943 0.22917 0.0
C2255 C 0.34885 0.25954 0.24037 0.0
H2256 H 0.61613 0.50155 0.35728 0.0
H2257 H 0.547 0.49095 0.3196 0.0
H2258 H 0.59661 0.49629 0.39496 0.0
H2259 H 0.5277 0.48529 0.35675 0.0
H2260 H 0.49851 0.45957 0.42428 0.0
H2261 H 0.52246 0.45651 0.38957 0.0
H2262 H 0.5708 0.52379 0.41871 0.0
H2263 H 0.54661 0.52715 0.45314 0.0
C2264 C 0.59683 0.49757 0.35699 0.0
C2265 C 0.58306 0.49678 0.3356 0.0
C2266 C 0.58569 0.49469 0.37849 0.0
C2267 C 0.56064 0.49035 0.37874 0.0
C2268 C 0.54699 0.48836 0.3571 0.0
C2269 C 0.55806 0.49175 0.33585 0.0
C2270 C 0.51444 0.4735 0.42344 0.0
C2271 C 0.52064 0.49367 0.44136 0.0
C2272 C 0.52814 0.47173 0.4036 0.0
C2273 C 0.54847 0.48992 0.40145 0.0
C2274 C 0.55539 0.50935 0.42003 0.0
C2275 C 0.5415 0.51131 0.43971 0.0
H2276 H 0.27542 0.86517 0.06115 0.0
H2277 H 0.19989 0.83566 0.06036 0.0
H2278 H 0.28273 0.84105 0.09334 0.0
H2279 H 0.20681 0.81281 0.09352 0.0
H2280 H 0.22544 0.76003 0.14237 0.0
H2281 H 0.22104 0.7797 0.10624 0.0
H2282 H 0.27901 0.83976 0.13378 0.0
H2283 H 0.28424 0.81914 0.16892 0.0
C2284 C 0.26037 0.85367 0.06806 0.0
C2285 C 0.23711 0.85229 0.05835 0.0
C2286 C 0.2645 0.83992 0.08661 0.0
C2287 C 0.24537 0.82494 0.09623 0.0
C2288 C 0.22208 0.82363 0.08634 0.0
C2289 C 0.21804 0.83693 0.06745 0.0
C2290 C 0.23742 0.77725 0.14039 0.0
C2291 C 0.25517 0.7881 0.1583 0.0
C2292 C 0.23478 0.78869 0.11983 0.0
C2293 C 0.2495 0.81154 0.11705 0.0
C2294 C 0.26759 0.82203 0.13494 0.0
C2295 C 0.27052 0.8103 0.15521 0.0
H2296 H 0.92544 0.55681 0.85565 0.0
H2297 H 0.99299 0.54618 0.82919 0.0
H2298 H 0.94366 0.56456 0.89651 0.0
H2299 H 0.01103 0.55383 0.86973 0.0
H2300 H 0.04068 0.57424 0.94488 0.0
H2301 H 0.02222 0.58287 0.90754 0.0
H2302 H 0.9574 0.53252 0.91934 0.0
H2303 H 0.97583 0.52371 0.95618 0.0
C2304 C 0.94427 0.55676 0.85851 0.0
C2305 C 0.95772 0.55045 0.83938 0.0
C2306 C 0.95466 0.56114 0.88183 0.0
C2307 C 0.97868 0.5596 0.88623 0.0
C2308 C 0.99254 0.55534 0.86686 0.0
C2309 C 0.98213 0.55069 0.84367 0.0
C2310 C 0.02238 0.56536 0.93959 0.0
C2311 C 0.00967 0.54826 0.95326 0.0
C2312 C 0.01182 0.57035 0.91835 0.0
C2313 C 0.98838 0.55844 0.91065 0.0
C2314 C 0.97533 0.54233 0.92505 0.0
C2315 C 0.98594 0.53717 0.94608 0.0
H2316 H 0.2281 0.14643 0.58195 0.0
H2317 H 0.27626 0.20682 0.55669 0.0
H2318 H 0.22909 0.17065 0.62055 0.0
H2319 H 0.27697 0.23134 0.59563 0.0
H2320 H 0.2934 0.25148 0.67832 0.0
H2321 H 0.29181 0.23135 0.6375 0.0
H2322 H 0.21562 0.20697 0.63908 0.0
H2323 H 0.21719 0.22669 0.67998 0.0
C2324 C 0.23886 0.16494 0.58456 0.0
C2325 C 0.25215 0.17463 0.56615 0.0
C2326 C 0.23925 0.17893 0.60671 0.0
C2327 C 0.25296 0.20301 0.61114 0.0
C2328 C 0.26632 0.21279 0.5928 0.0
C2329 C 0.26585 0.19877 0.57048 0.0
C2330 C 0.27625 0.24202 0.66992 0.0
C2331 C 0.25545 0.24048 0.68258 0.0
C2332 C 0.27535 0.2306 0.64644 0.0
C2333 C 0.25363 0.21735 0.63511 0.0
C2334 C 0.23271 0.21666 0.64745 0.0
C2335 C 0.2336 0.22809 0.67088 0.0
H2336 H 0.6362 0.49781 0.18033 0.0
H2337 H 0.57909 0.51864 0.22037 0.0
H2338 H 0.61838 0.50938 0.14422 0.0
H2339 H 0.56243 0.5323 0.18525 0.0
H2340 H 0.52219 0.52873 0.11434 0.0
H2341 H 0.54102 0.51909 0.15031 0.0
H2342 H 0.61035 0.53979 0.12223 0.0
H2343 H 0.59087 0.54748 0.08515 0.0
C2344 C 0.61995 0.5051 0.18141 0.0
C2345 C 0.6089 0.50707 0.20307 0.0
C2346 C 0.60983 0.51207 0.16078 0.0
C2347 C 0.58878 0.52181 0.16154 0.0
C2348 C 0.57819 0.52425 0.18353 0.0
C2349 C 0.58787 0.51658 0.20386 0.0
C2350 C 0.54149 0.53152 0.11598 0.0
C2351 C 0.55509 0.53892 0.09702 0.0
C2352 C 0.55242 0.5261 0.13677 0.0
C2353 C 0.57739 0.52862 0.1395 0.0
C2354 C 0.59108 0.53705 0.12074 0.0
C2355 C 0.58 0.54184 0.09959 0.0
H2356 H 0.20383 0.82329 0.94427 0.0
H2357 H 0.19937 0.87803 0.89598 0.0
H2358 H 0.20948 0.79374 0.91054 0.0
H2359 H 0.20522 0.84855 0.86261 0.0
H2360 H 0.25734 0.80824 0.82282 0.0
H2361 H 0.24576 0.83203 0.85765 0.0
H2362 H 0.1892 0.77089 0.86717 0.0
H2363 H 0.20051 0.74695 0.83172 0.0
C2364 C 0.20344 0.82883 0.92646 0.0
C2365 C 0.20156 0.85318 0.92288 0.0
C2366 C 0.20668 0.8119 0.90721 0.0
C2367 C 0.20828 0.81916 0.88421 0.0
C2368 C 0.20443 0.84273 0.88033 0.0
C2369 C 0.20094 0.85954 0.89945 0.0
C2370 C 0.24262 0.7997 0.83246 0.0
C2371 C 0.2296 0.7759 0.82438 0.0
C2372 C 0.23591 0.81338 0.85227 0.0
C2373 C 0.21628 0.80342 0.86463 0.0
C2374 C 0.20426 0.77896 0.8577 0.0
C2375 C 0.2108 0.7653 0.83756 0.0
H2376 H 0.96269 0.53181 0.71761 0.0
H2377 H 0.89512 0.53718 0.68337 0.0
H2378 H 0.98048 0.53153 0.67903 0.0
H2379 H 0.91322 0.5374 0.64474 0.0
H2380 H 0.96667 0.56572 0.58783 0.0
H2381 H 0.95002 0.56812 0.62717 0.0
H2382 H 0.97013 0.49895 0.6391 0.0
H2383 H 0.98624 0.49621 0.59964 0.0
C2384 C 0.95169 0.53305 0.70184 0.0
C2385 C 0.92753 0.53444 0.70336 0.0
C2386 C 0.96187 0.53285 0.67986 0.0
C2387 C 0.94816 0.53453 0.65915 0.0
C2388 C 0.92409 0.53626 0.66063 0.0
C2389 C 0.91375 0.53597 0.68259 0.0
C2390 C 0.96768 0.55118 0.599 0.0
C2391 C 0.97766 0.53078 0.59089 0.0
C2392 C 0.95806 0.55249 0.62131 0.0
C2393 C 0.95882 0.53367 0.63591 0.0
C2394 C 0.96947 0.51368 0.62808 0.0
C2395 C 0.97863 0.51212 0.6056 0.0
H2396 H 0.28374 0.22846 0.44596 0.0
H2397 H 0.27583 0.15994 0.39916 0.0
H2398 H 0.2879 0.25159 0.41127 0.0
H2399 H 0.27993 0.18303 0.36469 0.0
H2400 H 0.25025 0.23043 0.31219 0.0
H2401 H 0.25251 0.20765 0.34644 0.0
H2402 H 0.31423 0.26156 0.37638 0.0
H2403 H 0.31231 0.28426 0.34151 0.0
C2404 C 0.28323 0.21836 0.42834 0.0
C2405 C 0.27927 0.19235 0.42532 0.0
C2406 C 0.2857 0.23161 0.40851 0.0
C2407 C 0.28403 0.21909 0.38527 0.0
C2408 C 0.281 0.19316 0.38236 0.0
C2409 C 0.27875 0.17996 0.40215 0.0
C2410 C 0.2646 0.23723 0.32583 0.0
C2411 C 0.28133 0.25894 0.32399 0.0
C2412 C 0.26587 0.22417 0.34548 0.0
C2413 C 0.28364 0.23272 0.36403 0.0
C2414 C 0.30032 0.25456 0.36235 0.0
C2415 C 0.29926 0.26749 0.3424 0.0
H2416 H 0.29032 0.54117 0.52671 0.0
H2417 H 0.33084 0.60314 0.49636 0.0
H2418 H 0.31865 0.51579 0.51347 0.0
H2419 H 0.35968 0.57791 0.48379 0.0
H2420 H 0.4019 0.52501 0.4515 0.0
H2421 H 0.36635 0.54287 0.4572 0.0
H2422 H 0.35881 0.51388 0.52518 0.0
H2423 H 0.39374 0.49555 0.5191 0.0
C2424 C 0.30536 0.54944 0.51732 0.0
C2425 C 0.30849 0.57428 0.51281 0.0
C2426 C 0.32157 0.53485 0.50971 0.0
C2427 C 0.34142 0.54481 0.4976 0.0
C2428 C 0.34434 0.56954 0.49271 0.0
C2429 C 0.32798 0.5841 0.50016 0.0
C2430 C 0.39213 0.52183 0.46726 0.0
C2431 C 0.40057 0.50909 0.48495 0.0
C2432 C 0.37198 0.53228 0.47066 0.0
C2433 C 0.36003 0.53019 0.49183 0.0
C2434 C 0.36748 0.51574 0.5086 0.0
C2435 C 0.38753 0.50522 0.50514 0.0
H2436 H 0.82765 0.93229 0.551 0.0
H2437 H 0.81907 0.95153 0.47939 0.0
H2438 H 0.86936 0.9546 0.55391 0.0
H2439 H 0.86056 0.97317 0.48218 0.0
H2440 H 0.94347 0.9821 0.49009 0.0
H2441 H 0.9024 0.95899 0.488 0.0
H2442 H 0.88905 0.00339 0.55179 0.0
H2443 H 0.93006 0.02707 0.55358 0.0
C2444 C 0.83475 0.94101 0.53586 0.0
C2445 C 0.8202 0.94028 0.51501 0.0
C2446 C 0.85844 0.95386 0.53758 0.0
C2447 C 0.86796 0.96556 0.51826 0.0
C2448 C 0.85358 0.96422 0.49725 0.0
C2449 C 0.82987 0.95191 0.49572 0.0
C2450 C 0.93168 0.9871 0.5035 0.0
C2451 C 0.93979 0.00647 0.52187 0.0
C2452 C 0.9083 0.97383 0.50236 0.0
C2453 C 0.89278 0.97938 0.51984 0.0
C2454 C 0.90085 -0.00131 0.53827 0.0
C2455 C 0.92416 0.01232 0.53915 0.0
H2456 H 0.80047 0.07041 0.24036 0.0
H2457 H 0.86824 0.11942 0.2604 0.0
H2458 H 0.78 0.10487 0.24913 0.0
H2459 H 0.84797 0.15397 0.26837 0.0
H2460 H 0.80591 0.20979 0.29682 0.0
H2461 H 0.82284 0.1725 0.2939 0.0
H2462 H 0.77409 0.14126 0.2329 0.0
H2463 H 0.75667 0.17815 0.23634 0.0
C2464 C 0.811 0.08853 0.24669 0.0
C2465 C 0.836 0.09217 0.24963 0.0
C2466 C 0.79927 0.10835 0.25158 0.0
C2467 C 0.81227 0.13232 0.25941 0.0
C2468 C 0.83727 0.13577 0.26277 0.0
C2469 C 0.84895 0.11594 0.25803 0.0
C2470 C 0.79856 0.1948 0.283 0.0
C2471 C 0.77998 0.19704 0.26676 0.0
C2472 C 0.80841 0.17347 0.2812 0.0
C2473 C 0.80008 0.15389 0.26297 0.0
C2474 C 0.78084 0.15576 0.24733 0.0
C2475 C 0.77086 0.17702 0.24926 0.0
H2476 H 0.67932 0.1452 0.03286 0.0
H2477 H 0.69511 0.07158 0.02458 0.0
H2478 H 0.63648 0.12715 0.02898 0.0
H2479 H 0.65275 0.05386 0.02077 0.0
H2480 H 0.58044 0.03479 0.9793 0.0
H2481 H 0.62198 0.0552 0.98717 0.0
H2482 H 0.60381 0.09809 0.04977 0.0
H2483 H 0.56188 0.07764 0.04192 0.0
C2484 C 0.67367 0.12525 0.03054 0.0
C2485 C 0.6905 0.1098 0.0287 0.0
C2486 C 0.64925 0.11497 0.02838 0.0
C2487 C 0.64148 0.08918 0.02423 0.0
C2488 C 0.65835 0.07382 0.02353 0.0
C2489 C 0.68258 0.084 0.02579 0.0
C2490 C 0.58519 0.04862 0.9947 0.0
C2491 C 0.56792 0.05449 0.01009 0.0
C2492 C 0.60899 0.06021 -0.00075 0.0
C2493 C 0.61601 0.07801 0.01918 0.0
C2494 C 0.59874 0.08442 0.03428 0.0
C2495 C 0.57486 0.07261 0.02985 0.0
H2496 H 0.16714 0.44958 0.29255 0.0
H2497 H 0.19331 0.45197 0.22219 0.0
H2498 H 0.19889 0.42867 0.3043 0.0
H2499 H 0.22327 0.4288 0.23257 0.0
H2500 H 0.27734 0.38759 0.25169 0.0
H2501 H 0.25677 0.42216 0.25013 0.0
H2502 H 0.20785 0.39116 0.3006 0.0
H2503 H 0.23009 0.35872 0.30386 0.0
C2504 C 0.1797 0.4454 0.27961 0.0
C2505 C 0.17785 0.45206 0.25649 0.0
C2506 C 0.19781 0.43322 0.28618 0.0
C2507 C 0.21368 0.42643 0.26935 0.0
C2508 C 0.21199 0.43394 0.24637 0.0
C2509 C 0.19455 0.447 0.24019 0.0
C2510 C 0.26264 0.38886 0.26295 0.0
C2511 C 0.25513 0.37059 0.27775 0.0
C2512 C 0.25054 0.40842 0.26185 0.0
C2513 C 0.22999 0.40933 0.27466 0.0
C2514 C 0.2236 0.39165 0.29059 0.0
C2515 C 0.2363 0.37276 0.29239 0.0
H2516 H 0.16088 0.39106 0.02669 0.0
H2517 H 0.21453 0.45819 0.0396 0.0
H2518 H 0.12987 0.4159 0.02476 0.0
H2519 H 0.18372 0.4828 0.03797 0.0
H2520 H 0.12406 0.51679 0.00478 0.0
H2521 H 0.1555 0.49264 0.00816 0.0
H2522 H 0.11136 0.4445 0.05092 0.0
H2523 H 0.08003 0.46837 0.0473 0.0
C2524 C 0.16602 0.41105 0.02926 0.0
C2525 C 0.19012 0.42264 0.0332 0.0
C2526 C 0.14831 0.42528 0.02824 0.0
C2527 C 0.15441 0.45132 0.0311 0.0
C2528 C 0.17849 0.46281 0.03532 0.0
C2529 C 0.19611 0.44865 0.0364 0.0
C2530 C 0.12127 0.5012 0.01507 0.0
C2531 C 0.09967 0.49436 0.02568 0.0
C2532 C 0.13921 0.48738 0.01703 0.0
C2533 C 0.13578 0.46651 0.02963 0.0
C2534 C 0.11435 0.46016 0.04073 0.0
C2535 C 0.0965 0.47395 0.03879 0.0
H2536 H 0.80974 0.96132 0.22274 0.0
H2537 H 0.86898 0.92481 0.20865 0.0
H2538 H 0.78473 0.92144 0.22801 0.0
H2539 H 0.84408 0.88526 0.21422 0.0
H2540 H 0.80118 0.82992 0.26078 0.0
H2541 H 0.82493 0.86905 0.25188 0.0
H2542 H 0.76778 0.87827 0.20331 0.0
H2543 H 0.74423 0.83872 0.21169 0.0
C2544 C 0.81735 0.94481 0.22051 0.0
C2545 C 0.84137 0.94629 0.21533 0.0
C2546 C 0.80303 0.92202 0.22349 0.0
C2547 C 0.81259 0.90038 0.22173 0.0
C2548 C 0.83637 0.90173 0.21592 0.0
C2549 C 0.85055 0.92439 0.21257 0.0
C2550 C 0.79381 0.84015 0.24801 0.0
C2551 C 0.77101 0.83118 0.23672 0.0
C2552 C 0.80737 0.86253 0.24294 0.0
C2553 C 0.79818 0.87658 0.22684 0.0
C2554 C 0.77521 0.86781 0.21583 0.0
C2555 C 0.76181 0.84519 0.22059 0.0
H2556 H 0.65438 0.06591 0.75784 0.0
H2557 H 0.63114 0.0774 0.6869 0.0
H2558 H 0.67919 0.10699 0.76338 0.0
H2559 H 0.65737 0.11808 0.69159 0.0
H2560 H 0.68812 0.19927 0.71638 0.0
H2561 H 0.66319 0.15819 0.70971 0.0
H2562 H 0.71392 0.13088 0.75373 0.0
H2563 H 0.73787 0.17254 0.76168 0.0
C2564 C 0.65485 0.07722 0.7433 0.0
C2565 C 0.64087 0.06855 0.72195 0.0
C2566 C 0.6693 0.10074 0.74635 0.0
C2567 C 0.67064 0.11597 0.72787 0.0
C2568 C 0.65659 0.10716 0.70641 0.0
C2569 C 0.64162 0.08379 0.70361 0.0
C2570 C 0.69395 0.1844 0.72451 0.0
C2571 C 0.71484 0.18903 0.73962 0.0
C2572 C 0.67972 0.16074 0.72057 0.0
C2573 C 0.68634 0.14102 0.73123 0.0
C2574 C 0.7078 0.14563 0.74571 0.0
C2575 C 0.7217 0.16946 0.75013 0.0
loop_
_geom_bond_atom_site_label_1
_geom_bond_atom_site_label_2
_geom_bond_distance
_geom_bond_site_symmetry_2
_ccdc_geom_bond_type
C0 O1 1.306 . S
C0 O3 1.160 . S
O1 C0 1.306 . S
O1 Cd2 2.228 1_655 S
Cd2 O1 2.228 1_455 S
Cd2 O6 2.273 . S
Cd2 O10 2.277 . S
O3 C0 1.160 . S
O3 Cd4 2.203 1_655 S
Cd4 O3 2.203 1_455 S
Cd4 O6 2.411 . S
Cd4 O7 2.333 . S
Cd4 O8 2.352 . S
Cd4 O12 2.277 . S
Cd4 O13 2.356 . S
C5 O10 1.209 . S
C5 O12 1.226 . S
O6 Cd2 2.273 . S
O6 Cd4 2.411 . S
O6 C9 1.320 . S
O7 Cd4 2.333 . S
O7 C9 1.214 . S
O8 Cd4 2.352 . S
O8 C11 1.258 . S
C9 O6 1.320 . S
C9 O7 1.214 . S
O10 Cd2 2.277 . S
O10 C5 1.209 . S
C11 O8 1.258 . S
C11 O13 1.282 . S
O12 Cd4 2.277 . S
O12 C5 1.226 . S
O13 Cd4 2.356 . S
O13 C11 1.282 . S
C14 O15 1.306 . S
C14 O17 1.160 . S
O15 C14 1.306 . S
O15 Cd16 2.228 1_655 S
Cd16 O15 2.228 1_455 S
Cd16 O20 2.273 . S
Cd16 O24 2.277 . S
O17 C14 1.160 . S
O17 Cd18 2.203 1_655 S
Cd18 O17 2.203 1_455 S
Cd18 O20 2.411 . S
Cd18 O21 2.333 . S
Cd18 O22 2.352 . S
Cd18 O26 2.277 . S
Cd18 O27 2.356 . S
C19 O24 1.209 . S
C19 O26 1.226 . S
O20 Cd16 2.273 . S
O20 Cd18 2.411 . S
O20 C23 1.320 . S
O21 Cd18 2.333 . S
O21 C23 1.214 . S
O22 Cd18 2.352 . S
O22 C25 1.258 . S
C23 O20 1.320 . S
C23 O21 1.214 . S
O24 Cd16 2.277 . S
O24 C19 1.209 . S
C25 O22 1.258 . S
C25 O27 1.282 . S
O26 Cd18 2.277 . S
O26 C19 1.226 . S
O27 Cd18 2.356 . S
O27 C25 1.282 . S
C28 O29 1.306 . S
C28 O31 1.160 . S
O29 C28 1.306 . S
O29 Cd30 2.228 . S
Cd30 O29 2.228 . S
Cd30 O34 2.273 . S
Cd30 O38 2.277 . S
O31 C28 1.160 . S
O31 Cd32 2.203 . S
Cd32 O31 2.203 . S
Cd32 O34 2.411 . S
Cd32 O35 2.333 . S
Cd32 O36 2.352 . S
Cd32 O40 2.277 . S
Cd32 O41 2.356 . S
C33 O38 1.209 . S
C33 O40 1.226 . S
O34 Cd30 2.273 . S
O34 Cd32 2.411 . S
O34 C37 1.320 . S
O35 Cd32 2.333 . S
O35 C37 1.214 . S
O36 Cd32 2.352 . S
O36 C39 1.258 . S
C37 O34 1.320 . S
C37 O35 1.214 . S
O38 Cd30 2.277 . S
O38 C33 1.209 . S
C39 O36 1.258 . S
C39 O41 1.282 . S
O40 Cd32 2.277 . S
O40 C33 1.226 . S
O41 Cd32 2.356 . S
O41 C39 1.282 . S
C42 O43 1.306 . S
C42 O45 1.160 . S
O43 C42 1.306 . S
O43 Cd44 2.228 . S
Cd44 O43 2.228 . S
Cd44 O48 2.273 . S
Cd44 O52 2.277 . S
O45 C42 1.160 . S
O45 Cd46 2.203 . S
Cd46 O45 2.203 . S
Cd46 O48 2.411 . S
Cd46 O49 2.333 . S
Cd46 O50 2.352 . S
Cd46 O54 2.277 . S
Cd46 O55 2.356 . S
C47 O52 1.209 . S
C47 O54 1.226 . S
O48 Cd44 2.273 . S
O48 Cd46 2.411 . S
O48 C51 1.320 . S
O49 Cd46 2.333 . S
O49 C51 1.214 . S
O50 Cd46 2.352 . S
O50 C53 1.258 . S
C51 O48 1.320 . S
C51 O49 1.214 . S
O52 Cd44 2.277 . S
O52 C47 1.209 . S
C53 O50 1.258 . S
C53 O55 1.282 . S
O54 Cd46 2.277 . S
O54 C47 1.226 . S
O55 Cd46 2.356 . S
O55 C53 1.282 . S
C56 O57 1.306 . S
C56 O59 1.160 . S
O57 C56 1.306 . S
O57 Cd58 2.228 1_655 S
Cd58 O57 2.228 1_455 S
Cd58 O62 2.273 . S
Cd58 O66 2.277 . S
O59 C56 1.160 . S
O59 Cd60 2.203 1_655 S
Cd60 O59 2.203 1_455 S
Cd60 O62 2.411 . S
Cd60 O63 2.333 . S
Cd60 O64 2.352 . S
Cd60 O68 2.277 . S
Cd60 O69 2.356 . S
C61 O66 1.209 . S
C61 O68 1.226 . S
O62 Cd58 2.273 . S
O62 Cd60 2.411 . S
O62 C65 1.320 . S
O63 Cd60 2.333 . S
O63 C65 1.214 . S
O64 Cd60 2.352 . S
O64 C67 1.258 . S
C65 O62 1.320 . S
C65 O63 1.214 . S
O66 Cd58 2.277 . S
O66 C61 1.209 . S
C67 O64 1.258 . S
C67 O69 1.282 . S
O68 Cd60 2.277 . S
O68 C61 1.226 . S
O69 Cd60 2.356 . S
O69 C67 1.282 . S
C70 O71 1.306 . S
C70 O73 1.160 . S
O71 C70 1.306 . S
O71 Cd72 2.228 . S
Cd72 O71 2.228 . S
Cd72 O76 2.273 . S
Cd72 O80 2.277 . S
O73 C70 1.160 . S
O73 Cd74 2.203 . S
Cd74 O73 2.203 . S
Cd74 O76 2.411 . S
Cd74 O77 2.333 . S
Cd74 O78 2.352 . S
Cd74 O82 2.277 . S
Cd74 O83 2.356 . S
C75 O80 1.209 . S
C75 O82 1.226 . S
O76 Cd72 2.273 . S
O76 Cd74 2.411 . S
O76 C79 1.320 . S
O77 Cd74 2.333 . S
O77 C79 1.214 . S
O78 Cd74 2.352 . S
O78 C81 1.258 . S
C79 O76 1.320 . S
C79 O77 1.214 . S
O80 Cd72 2.277 . S
O80 C75 1.209 . S
C81 O78 1.258 . S
C81 O83 1.282 . S
O82 Cd74 2.277 . S
O82 C75 1.226 . S
O83 Cd74 2.356 . S
O83 C81 1.282 . S
C84 O85 1.306 . S
C84 O87 1.160 . S
O85 C84 1.306 . S
O85 Cd86 2.228 . S
Cd86 O85 2.228 . S
Cd86 O90 2.273 . S
Cd86 O94 2.277 . S
O87 C84 1.160 . S
O87 Cd88 2.203 . S
Cd88 O87 2.203 . S
Cd88 O90 2.411 . S
Cd88 O91 2.333 . S
Cd88 O92 2.352 . S
Cd88 O96 2.277 . S
Cd88 O97 2.356 . S
C89 O94 1.209 . S
C89 O96 1.226 . S
O90 Cd86 2.273 . S
O90 Cd88 2.411 . S
O90 C93 1.320 . S
O91 Cd88 2.333 . S
O91 C93 1.214 . S
O92 Cd88 2.352 . S
O92 C95 1.258 . S
C93 O90 1.320 . S
C93 O91 1.214 . S
O94 Cd86 2.277 . S
O94 C89 1.209 . S
C95 O92 1.258 . S
C95 O97 1.282 . S
O96 Cd88 2.277 . S
O96 C89 1.226 . S
O97 Cd88 2.356 . S
O97 C95 1.282 . S
C98 O99 1.306 . S
C98 O101 1.160 . S
O99 C98 1.306 . S
O99 Cd100 2.228 1_655 S
Cd100 O99 2.228 1_455 S
Cd100 O104 2.273 . S
Cd100 O108 2.277 . S
O101 C98 1.160 . S
O101 Cd102 2.203 1_655 S
Cd102 O101 2.203 1_455 S
Cd102 O104 2.411 . S
Cd102 O105 2.333 . S
Cd102 O106 2.352 1_455 S
Cd102 O110 2.277 . S
Cd102 O111 2.356 . S
C103 O108 1.209 . S
C103 O110 1.226 . S
O104 Cd100 2.273 . S
O104 Cd102 2.411 . S
O104 C107 1.320 . S
O105 Cd102 2.333 . S
O105 C107 1.214 . S
O106 Cd102 2.352 1_655 S
O106 C109 1.258 . S
C107 O104 1.320 . S
C107 O105 1.214 . S
O108 Cd100 2.277 . S
O108 C103 1.209 . S
C109 O106 1.258 . S
C109 O111 1.282 1_655 S
O110 Cd102 2.277 . S
O110 C103 1.226 . S
O111 Cd102 2.356 . S
O111 C109 1.282 1_455 S
C112 O113 1.306 . S
C112 O115 1.160 . S
O113 C112 1.306 . S
O113 Cd114 2.228 1_545 S
Cd114 O113 2.228 1_565 S
Cd114 O118 2.273 1_565 S
Cd114 O122 2.277 . S
O115 C112 1.160 . S
O115 Cd116 2.203 . S
Cd116 O115 2.203 . S
Cd116 O118 2.411 . S
Cd116 O119 2.333 . S
Cd116 O120 2.352 . S
Cd116 O124 2.277 1_545 S
Cd116 O125 2.356 . S
C117 O122 1.209 . S
C117 O124 1.226 . S
O118 Cd114 2.273 1_545 S
O118 Cd116 2.411 . S
O118 C121 1.320 . S
O119 Cd116 2.333 . S
O119 C121 1.214 . S
O120 Cd116 2.352 . S
O120 C123 1.258 . S
C121 O118 1.320 . S
C121 O119 1.214 . S
O122 Cd114 2.277 . S
O122 C117 1.209 . S
C123 O120 1.258 . S
C123 O125 1.282 . S
O124 Cd116 2.277 1_565 S
O124 C117 1.226 . S
O125 Cd116 2.356 . S
O125 C123 1.282 . S
C126 O127 1.306 . S
C126 O129 1.160 . S
O127 C126 1.306 . S
O127 Cd128 2.228 . S
Cd128 O127 2.228 . S
Cd128 O132 2.273 . S
Cd128 O136 2.277 . S
O129 C126 1.160 . S
O129 Cd130 2.203 . S
Cd130 O129 2.203 . S
Cd130 O132 2.411 . S
Cd130 O133 2.333 . S
Cd130 O134 2.352 . S
Cd130 O138 2.277 . S
Cd130 O139 2.356 . S
C131 O136 1.209 . S
C131 O138 1.226 . S
O132 Cd128 2.273 . S
O132 Cd130 2.411 . S
O132 C135 1.320 . S
O133 Cd130 2.333 . S
O133 C135 1.214 . S
O134 Cd130 2.352 . S
O134 C137 1.258 . S
C135 O132 1.320 . S
C135 O133 1.214 . S
O136 Cd128 2.277 . S
O136 C131 1.209 . S
C137 O134 1.258 . S
C137 O139 1.282 . S
O138 Cd130 2.277 . S
O138 C131 1.226 . S
O139 Cd130 2.356 . S
O139 C137 1.282 . S
C140 O141 1.306 . S
C140 O143 1.151 1_545 S
O141 C140 1.306 . S
O141 Cd142 2.228 . S
Cd142 O141 2.228 . S
Cd142 O146 2.273 1_545 S
Cd142 O150 2.277 . S
O143 C140 1.151 1_565 S
O143 Cd144 2.203 . S
Cd144 O143 2.203 . S
Cd144 O146 2.411 . S
Cd144 O147 2.333 . S
Cd144 O148 2.352 . S
Cd144 O152 2.277 1_565 S
Cd144 O153 2.356 . S
C145 O150 1.209 . S
C145 O152 1.226 . S
O146 Cd142 2.273 1_565 S
O146 Cd144 2.411 . S
O146 C149 1.320 . S
O147 Cd144 2.333 . S
O147 C149 1.214 . S
O148 Cd144 2.352 . S
O148 C151 1.258 . S
C149 O146 1.320 . S
C149 O147 1.214 . S
O150 Cd142 2.277 . S
O150 C145 1.209 . S
C151 O148 1.258 . S
C151 O153 1.282 . S
O152 Cd144 2.277 1_545 S
O152 C145 1.226 . S
O153 Cd144 2.356 . S
O153 C151 1.282 . S
C154 O155 1.306 . S
C154 O157 1.160 . S
O155 C154 1.306 . S
O155 Cd156 2.228 1_554 S
Cd156 O155 2.228 1_556 S
Cd156 O160 2.273 1_556 S
Cd156 O164 2.277 . S
O157 C154 1.160 . S
O157 Cd158 2.203 . S
Cd158 O157 2.203 . S
Cd158 O160 2.411 . S
Cd158 O161 2.333 . S
Cd158 O162 2.352 . S
Cd158 O166 2.277 1_554 S
Cd158 O167 2.356 . S
C159 O164 1.209 . S
C159 O166 1.226 . S
O160 Cd156 2.273 1_554 S
O160 Cd158 2.411 . S
O160 C163 1.320 . S
O161 Cd158 2.333 . S
O161 C163 1.214 . S
O162 Cd158 2.352 . S
O162 C165 1.258 . S
C163 O160 1.320 . S
C163 O161 1.214 . S
O164 Cd156 2.277 . S
O164 C159 1.209 . S
C165 O162 1.258 . S
C165 O167 1.282 . S
O166 Cd158 2.277 1_556 S
O166 C159 1.226 . S
O167 Cd158 2.356 . S
O167 C165 1.282 . S
C168 O169 1.306 . S
C168 O171 1.160 . S
O169 C168 1.306 . S
O169 Cd170 2.228 1_554 S
Cd170 O169 2.228 1_556 S
Cd170 O174 2.273 1_556 S
Cd170 O178 2.277 . S
O171 C168 1.160 . S
O171 Cd172 2.203 . S
Cd172 O171 2.203 . S
Cd172 O174 2.411 . S
Cd172 O175 2.333 . S
Cd172 O176 2.352 . S
Cd172 O180 2.277 1_554 S
Cd172 O181 2.356 . S
C173 O178 1.209 . S
C173 O180 1.226 . S
O174 Cd170 2.273 1_554 S
O174 Cd172 2.411 . S
O174 C177 1.320 . S
O175 Cd172 2.333 . S
O175 C177 1.214 . S
O176 Cd172 2.352 . S
O176 C179 1.258 . S
C177 O174 1.320 . S
C177 O175 1.214 . S
O178 Cd170 2.277 . S
O178 C173 1.209 . S
C179 O176 1.258 . S
C179 O181 1.282 . S
O180 Cd172 2.277 1_556 S
O180 C173 1.226 . S
O181 Cd172 2.356 . S
O181 C179 1.282 . S
C182 O183 1.306 . S
C182 O185 1.160 1_554 S
O183 C182 1.306 . S
O183 Cd184 2.228 . S
Cd184 O183 2.228 . S
Cd184 O188 2.273 1_554 S
Cd184 O192 2.277 . S
O185 C182 1.160 1_556 S
O185 Cd186 2.203 . S
Cd186 O185 2.203 . S
Cd186 O188 2.411 . S
Cd186 O189 2.333 . S
Cd186 O190 2.352 . S
Cd186 O194 2.277 1_556 S
Cd186 O195 2.356 . S
C187 O192 1.209 . S
C187 O194 1.226 . S
O188 Cd184 2.273 1_556 S
O188 Cd186 2.411 . S
O188 C191 1.320 . S
O189 Cd186 2.333 . S
O189 C191 1.214 . S
O190 Cd186 2.352 . S
O190 C193 1.258 . S
C191 O188 1.320 . S
C191 O189 1.214 . S
O192 Cd184 2.277 . S
O192 C187 1.209 . S
C193 O190 1.258 . S
C193 O195 1.282 . S
O194 Cd186 2.277 1_554 S
O194 C187 1.226 . S
O195 Cd186 2.356 . S
O195 C193 1.282 . S
C196 O197 1.306 . S
C196 O199 1.160 . S
O197 C196 1.306 . S
O197 Cd198 2.228 . S
Cd198 O197 2.228 . S
Cd198 O202 2.273 . S
Cd198 O206 2.277 . S
O199 C196 1.160 . S
O199 Cd200 2.203 . S
Cd200 O199 2.203 . S
Cd200 O202 2.411 . S
Cd200 O203 2.333 . S
Cd200 O204 2.352 . S
Cd200 O208 2.277 . S
Cd200 O209 2.356 . S
C201 O206 1.209 . S
C201 O208 1.226 . S
O202 Cd198 2.273 . S
O202 Cd200 2.411 . S
O202 C205 1.320 . S
O203 Cd200 2.333 . S
O203 C205 1.214 . S
O204 Cd200 2.352 . S
O204 C207 1.258 . S
C205 O202 1.320 . S
C205 O203 1.214 . S
O206 Cd198 2.277 . S
O206 C201 1.209 . S
C207 O204 1.258 . S
C207 O209 1.282 . S
O208 Cd200 2.277 . S
O208 C201 1.226 . S
O209 Cd200 2.356 . S
O209 C207 1.282 . S
C210 O211 1.306 . S
C210 O213 1.160 . S
O211 C210 1.306 . S
O211 Cd212 2.228 . S
Cd212 O211 2.228 . S
Cd212 O216 2.273 . S
Cd212 O220 2.277 . S
O213 C210 1.160 . S
O213 Cd214 2.203 . S
Cd214 O213 2.203 . S
Cd214 O216 2.411 . S
Cd214 O217 2.333 . S
Cd214 O218 2.352 . S
Cd214 O222 2.277 . S
Cd214 O223 2.356 . S
C215 O220 1.209 . S
C215 O222 1.226 . S
O216 Cd212 2.273 . S
O216 Cd214 2.411 . S
O216 C219 1.320 . S
O217 Cd214 2.333 . S
O217 C219 1.214 . S
O218 Cd214 2.352 . S
O218 C221 1.258 . S
C219 O216 1.320 . S
C219 O217 1.214 . S
O220 Cd212 2.277 . S
O220 C215 1.209 . S
C221 O218 1.258 . S
C221 O223 1.282 . S
O222 Cd214 2.277 . S
O222 C215 1.226 . S
O223 Cd214 2.356 . S
O223 C221 1.282 . S
C224 O225 1.306 . S
C224 O227 1.160 . S
O225 C224 1.306 . S
O225 Cd226 2.228 . S
Cd226 O225 2.228 . S
Cd226 O230 2.273 . S
Cd226 O234 2.277 1_545 S
O227 C224 1.160 . S
O227 Cd228 2.203 . S
Cd228 O227 2.203 . S
Cd228 O230 2.411 . S
Cd228 O231 2.333 . S
Cd228 O232 2.352 . S
Cd228 O236 2.277 . S
Cd228 O237 2.356 . S
C229 O234 1.209 . S
C229 O236 1.226 1_565 S
O230 Cd226 2.273 . S
O230 Cd228 2.411 . S
O230 C233 1.320 . S
O231 Cd228 2.333 . S
O231 C233 1.214 . S
O232 Cd228 2.352 . S
O232 C235 1.258 . S
C233 O230 1.320 . S
C233 O231 1.214 . S
O234 Cd226 2.277 1_565 S
O234 C229 1.209 . S
C235 O232 1.258 . S
C235 O237 1.282 . S
O236 Cd228 2.277 . S
O236 C229 1.226 1_545 S
O237 Cd228 2.356 . S
O237 C235 1.282 . S
C238 O239 1.306 . S
C238 O241 1.160 . S
O239 C238 1.306 . S
O239 Cd240 2.228 . S
Cd240 O239 2.228 . S
Cd240 O244 2.273 . S
Cd240 O248 2.277 . S
O241 C238 1.160 . S
O241 Cd242 2.203 . S
Cd242 O241 2.203 . S
Cd242 O244 2.411 . S
Cd242 O245 2.333 . S
Cd242 O246 2.352 . S
Cd242 O250 2.277 . S
Cd242 O251 2.356 . S
C243 O248 1.209 . S
C243 O250 1.226 . S
O244 Cd240 2.273 . S
O244 Cd242 2.411 . S
O244 C247 1.320 . S
O245 Cd242 2.333 . S
O245 C247 1.214 . S
O246 Cd242 2.352 . S
O246 C249 1.258 . S
C247 O244 1.320 . S
C247 O245 1.214 . S
O248 Cd240 2.277 . S
O248 C243 1.209 . S
C249 O246 1.258 . S
C249 O251 1.282 . S
O250 Cd242 2.277 . S
O250 C243 1.226 . S
O251 Cd242 2.356 . S
O251 C249 1.282 . S
C252 O253 1.306 . S
C252 O255 1.160 . S
O253 C252 1.306 . S
O253 Cd254 2.228 . S
Cd254 O253 2.228 . S
Cd254 O258 2.273 . S
Cd254 O262 2.277 . S
O255 C252 1.160 . S
O255 Cd256 2.203 . S
Cd256 O255 2.203 . S
Cd256 O258 2.411 . S
Cd256 O259 2.333 . S
Cd256 O260 2.352 . S
Cd256 O264 2.277 . S
Cd256 O265 2.356 . S
C257 O262 1.209 . S
C257 O264 1.226 . S
O258 Cd254 2.273 . S
O258 Cd256 2.411 . S
O258 C261 1.320 . S
O259 Cd256 2.333 . S
O259 C261 1.214 . S
O260 Cd256 2.352 . S
O260 C263 1.258 . S
C261 O258 1.320 . S
C261 O259 1.214 . S
O262 Cd254 2.277 . S
O262 C257 1.209 . S
C263 O260 1.258 . S
C263 O265 1.282 . S
O264 Cd256 2.277 . S
O264 C257 1.226 . S
O265 Cd256 2.356 . S
O265 C263 1.282 . S
C266 O267 1.306 . S
C266 O269 1.160 . S
O267 C266 1.306 . S
O267 Cd268 2.228 . S
Cd268 O267 2.228 . S
Cd268 O272 2.273 . S
Cd268 O276 2.277 . S
O269 C266 1.160 . S
O269 Cd270 2.203 . S
Cd270 O269 2.203 . S
Cd270 O272 2.411 . S
Cd270 O273 2.333 . S
Cd270 O274 2.352 1_545 S
Cd270 O278 2.277 . S
Cd270 O279 2.356 1_545 S
C271 O276 1.209 . S
C271 O278 1.226 . S
O272 Cd268 2.273 . S
O272 Cd270 2.411 . S
O272 C275 1.320 . S
O273 Cd270 2.333 . S
O273 C275 1.214 . S
O274 Cd270 2.352 1_565 S
O274 C277 1.258 . S
C275 O272 1.320 . S
C275 O273 1.214 . S
O276 Cd268 2.277 . S
O276 C271 1.209 . S
C277 O274 1.258 . S
C277 O279 1.282 . S
O278 Cd270 2.277 . S
O278 C271 1.226 . S
O279 Cd270 2.356 1_565 S
O279 C277 1.282 . S
C280 O281 1.306 . S
C280 O283 1.160 . S
O281 C280 1.306 . S
O281 Cd282 2.228 . S
Cd282 O281 2.228 . S
Cd282 O286 2.273 . S
Cd282 O290 2.277 . S
O283 C280 1.160 . S
O283 Cd284 2.203 . S
Cd284 O283 2.203 . S
Cd284 O286 2.411 . S
Cd284 O287 2.333 . S
Cd284 O288 2.352 1_554 S
Cd284 O292 2.277 . S
Cd284 O293 2.356 1_554 S
C285 O290 1.209 . S
C285 O292 1.226 . S
O286 Cd282 2.273 . S
O286 Cd284 2.411 . S
O286 C289 1.320 . S
O287 Cd284 2.333 . S
O287 C289 1.214 . S
O288 Cd284 2.352 1_556 S
O288 C291 1.258 . S
C289 O286 1.320 . S
C289 O287 1.214 . S
O290 Cd282 2.277 . S
O290 C285 1.209 . S
C291 O288 1.258 . S
C291 O293 1.282 . S
O292 Cd284 2.277 . S
O292 C285 1.226 . S
O293 Cd284 2.356 1_556 S
O293 C291 1.282 . S
C294 O295 1.306 . S
C294 O297 1.160 . S
O295 C294 1.306 . S
O295 Cd296 2.228 . S
Cd296 O295 2.228 . S
Cd296 O300 2.273 . S
Cd296 O304 2.277 . S
O297 C294 1.160 . S
O297 Cd298 2.203 . S
Cd298 O297 2.203 . S
Cd298 O300 2.411 . S
Cd298 O301 2.333 . S
Cd298 O302 2.352 . S
Cd298 O306 2.277 . S
Cd298 O307 2.356 . S
C299 O304 1.209 . S
C299 O306 1.226 . S
O300 Cd296 2.273 . S
O300 Cd298 2.411 . S
O300 C303 1.320 . S
O301 Cd298 2.333 . S
O301 C303 1.214 . S
O302 Cd298 2.352 . S
O302 C305 1.258 . S
C303 O300 1.320 . S
C303 O301 1.214 . S
O304 Cd296 2.277 . S
O304 C299 1.209 . S
C305 O302 1.258 . S
C305 O307 1.282 . S
O306 Cd298 2.277 . S
O306 C299 1.226 . S
O307 Cd298 2.356 . S
O307 C305 1.282 . S
C308 O309 1.306 . S
C308 O311 1.160 . S
O309 C308 1.306 . S
O309 Cd310 2.228 . S
Cd310 O309 2.228 . S
Cd310 O314 2.273 . S
Cd310 O318 2.277 . S
O311 C308 1.160 . S
O311 Cd312 2.203 . S
Cd312 O311 2.203 . S
Cd312 O314 2.411 . S
Cd312 O315 2.333 . S
Cd312 O316 2.352 . S
Cd312 O320 2.277 . S
Cd312 O321 2.356 . S
C313 O318 1.209 . S
C313 O320 1.226 . S
O314 Cd310 2.273 . S
O314 Cd312 2.411 . S
O314 C317 1.320 . S
O315 Cd312 2.333 . S
O315 C317 1.214 . S
O316 Cd312 2.352 . S
O316 C319 1.258 . S
C317 O314 1.320 . S
C317 O315 1.214 . S
O318 Cd310 2.277 . S
O318 C313 1.209 . S
C319 O316 1.258 . S
C319 O321 1.282 . S
O320 Cd312 2.277 . S
O320 C313 1.226 . S
O321 Cd312 2.356 . S
O321 C319 1.282 . S
C322 O323 1.306 . S
C322 O325 1.160 . S
O323 C322 1.306 . S
O323 Cd324 2.228 . S
Cd324 O323 2.228 . S
Cd324 O328 2.273 . S
Cd324 O332 2.277 . S
O325 C322 1.160 . S
O325 Cd326 2.203 . S
Cd326 O325 2.203 . S
Cd326 O328 2.411 . S
Cd326 O329 2.333 . S
Cd326 O330 2.352 . S
Cd326 O334 2.277 . S
Cd326 O335 2.356 . S
C327 O332 1.209 . S
C327 O334 1.226 . S
O328 Cd324 2.273 . S
O328 Cd326 2.411 . S
O328 C331 1.320 . S
O329 Cd326 2.333 . S
O329 C331 1.214 . S
O330 Cd326 2.352 . S
O330 C333 1.258 . S
C331 O328 1.320 . S
C331 O329 1.214 . S
O332 Cd324 2.277 . S
O332 C327 1.209 . S
C333 O330 1.258 . S
C333 O335 1.282 . S
O334 Cd326 2.277 . S
O334 C327 1.226 . S
O335 Cd326 2.356 . S
O335 C333 1.282 . S
Dy336 O340 2.422 . S
Dy336 O341 2.483 1_556 S
Dy336 O342 2.439 . S
Dy336 O343 2.674 1_655 S
Dy336 O347 2.339 . S
Dy336 O351 2.278 1_656 S
Dy336 O352 2.337 1_546 S
C337 O348 1.185 . S
C337 O349 1.355 . S
C338 O340 1.185 . S
C338 O341 1.355 1_556 S
Dy339 O343 2.310 1_554 S
Dy339 O346 2.351 . S
Dy339 O348 2.398 . S
Dy339 O349 2.491 . S
Dy339 O350 2.403 . S
Dy339 O351 2.664 . S
Dy339 O353 2.326 1_545 S
O340 Dy336 2.422 . S
O340 C338 1.185 . S
O341 Dy336 2.483 1_554 S
O341 C338 1.355 1_554 S
O342 Dy336 2.439 . S
O342 C344 1.254 1_655 S
O343 Dy336 2.674 1_455 S
O343 Dy339 2.310 1_556 S
O343 C344 1.268 . S
C344 O342 1.254 1_455 S
C344 O343 1.268 . S
C345 O350 1.254 . S
C345 O351 1.268 . S
O346 Dy339 2.351 . S
O346 C354 1.249 . S
O347 Dy336 2.339 . S
O347 C354 1.267 1_656 S
O348 C337 1.185 . S
O348 Dy339 2.398 . S
O349 C337 1.355 . S
O349 Dy339 2.491 . S
O350 Dy339 2.403 . S
O350 C345 1.254 . S
O351 Dy336 2.278 1_454 S
O351 Dy339 2.664 . S
O351 C345 1.268 . S
O352 Dy336 2.337 1_564 S
O352 C355 1.249 1_655 S
O353 Dy339 2.326 1_565 S
O353 C355 1.267 . S
C354 O346 1.249 . S
C354 O347 1.267 1_454 S
C355 O352 1.249 1_455 S
C355 O353 1.267 . S
Dy356 O360 2.398 . S
Dy356 O361 2.491 . S
Dy356 O362 2.403 . S
Dy356 O363 2.664 . S
Dy356 O367 2.326 . S
Dy356 O371 2.310 . S
Dy356 O372 2.351 . S
C357 O368 1.185 . S
C357 O369 1.355 . S
C358 O360 1.185 . S
C358 O361 1.355 . S
Dy359 O363 2.310 . S
Dy359 O366 2.351 . S
Dy359 O368 2.398 . S
Dy359 O369 2.491 . S
Dy359 O370 2.403 . S
Dy359 O371 2.664 . S
Dy359 O373 2.326 . S
O360 Dy356 2.398 . S
O360 C358 1.185 . S
O361 Dy356 2.491 . S
O361 C358 1.355 . S
O362 Dy356 2.403 . S
O362 C364 1.254 . S
O363 Dy356 2.664 . S
O363 Dy359 2.310 . S
O363 C364 1.268 . S
C364 O362 1.254 . S
C364 O363 1.268 . S
C365 O370 1.254 . S
C365 O371 1.268 . S
O366 Dy359 2.351 . S
O366 C374 1.249 . S
O367 Dy356 2.326 . S
O367 C374 1.267 . S
O368 C357 1.185 . S
O368 Dy359 2.398 . S
O369 C357 1.355 . S
O369 Dy359 2.491 . S
O370 Dy359 2.403 . S
O370 C365 1.254 . S
O371 Dy356 2.310 . S
O371 Dy359 2.664 . S
O371 C365 1.268 . S
O372 Dy356 2.351 . S
O372 C375 1.249 . S
O373 Dy359 2.326 . S
O373 C375 1.267 . S
C374 O366 1.249 . S
C374 O367 1.267 . S
C375 O372 1.249 . S
C375 O373 1.267 . S
Dy376 O380 2.398 . S
Dy376 O381 2.491 1_545 S
Dy376 O382 2.403 . S
Dy376 O383 2.664 . S
Dy376 O387 2.326 1_545 S
Dy376 O391 2.310 . S
Dy376 O392 2.351 . S
C377 O388 1.185 . S
C377 O389 1.355 . S
C378 O380 1.185 1_565 S
C378 O381 1.355 . S
Dy379 O383 2.310 . S
Dy379 O386 2.351 1_545 S
Dy379 O388 2.398 . S
Dy379 O389 2.491 . S
Dy379 O390 2.403 . S
Dy379 O391 2.664 . S
Dy379 O393 2.326 . S
O380 Dy376 2.398 . S
O380 C378 1.185 1_545 S
O381 Dy376 2.491 1_565 S
O381 C378 1.355 . S
O382 Dy376 2.403 . S
O382 C384 1.254 . S
O383 Dy376 2.664 . S
O383 Dy379 2.310 . S
O383 C384 1.268 . S
C384 O382 1.254 . S
C384 O383 1.268 . S
C385 O390 1.254 . S
C385 O391 1.268 . S
O386 Dy379 2.351 1_565 S
O386 C394 1.249 . S
O387 Dy376 2.326 1_565 S
O387 C394 1.267 . S
O388 C377 1.185 . S
O388 Dy379 2.398 . S
O389 C377 1.355 . S
O389 Dy379 2.491 . S
O390 Dy379 2.403 . S
O390 C385 1.254 . S
O391 Dy376 2.310 . S
O391 Dy379 2.664 . S
O391 C385 1.268 . S
O392 Dy376 2.351 . S
O392 C395 1.249 . S
O393 Dy379 2.326 . S
O393 C395 1.267 . S
C394 O386 1.249 . S
C394 O387 1.267 . S
C395 O392 1.249 . S
C395 O393 1.267 . S
Dy396 O400 2.398 . S
Dy396 O401 2.491 . S
Dy396 O402 2.403 . S
Dy396 O403 2.664 . S
Dy396 O407 2.326 . S
Dy396 O411 2.310 . S
Dy396 O412 2.351 . S
C397 O408 1.185 . S
C397 O409 1.355 . S
C398 O400 1.185 . S
C398 O401 1.355 . S
Dy399 O403 2.310 . S
Dy399 O406 2.351 . S
Dy399 O408 2.398 . S
Dy399 O409 2.491 . S
Dy399 O410 2.403 . S
Dy399 O411 2.664 . S
Dy399 O413 2.326 . S
O400 Dy396 2.398 . S
O400 C398 1.185 . S
O401 Dy396 2.491 . S
O401 C398 1.355 . S
O402 Dy396 2.403 . S
O402 C404 1.254 . S
O403 Dy396 2.664 . S
O403 Dy399 2.310 . S
O403 C404 1.268 . S
C404 O402 1.254 . S
C404 O403 1.268 . S
C405 O410 1.254 . S
C405 O411 1.268 . S
O406 Dy399 2.351 . S
O406 C414 1.249 . S
O407 Dy396 2.326 . S
O407 C414 1.267 . S
O408 C397 1.185 . S
O408 Dy399 2.398 . S
O409 C397 1.355 . S
O409 Dy399 2.491 . S
O410 Dy399 2.403 . S
O410 C405 1.254 . S
O411 Dy396 2.310 . S
O411 Dy399 2.664 . S
O411 C405 1.268 . S
O412 Dy396 2.351 . S
O412 C415 1.249 . S
O413 Dy399 2.326 . S
O413 C415 1.267 . S
C414 O406 1.249 . S
C414 O407 1.267 . S
C415 O412 1.249 . S
C415 O413 1.267 . S
Dy416 O420 2.398 . S
Dy416 O421 2.491 1_455 S
Dy416 O422 2.403 . S
Dy416 O423 2.664 . S
Dy416 O427 2.326 . S
Dy416 O431 2.310 1_455 S
Dy416 O432 2.351 1_545 S
C417 O428 1.185 . S
C417 O429 1.355 . S
C418 O420 1.185 1_655 S
C418 O421 1.355 . S
Dy419 O423 2.310 . S
Dy419 O426 2.351 . S
Dy419 O428 2.398 . S
Dy419 O429 2.491 . S
Dy419 O430 2.403 1_455 S
Dy419 O431 2.664 1_455 S
Dy419 O433 2.326 1_545 S
O420 Dy416 2.398 . S
O420 C418 1.185 1_455 S
O421 Dy416 2.491 1_655 S
O421 C418 1.355 . S
O422 Dy416 2.403 . S
O422 C424 1.254 . S
O423 Dy416 2.664 . S
O423 Dy419 2.310 . S
O423 C424 1.268 . S
C424 O422 1.254 . S
C424 O423 1.268 . S
C425 O430 1.254 . S
C425 O431 1.268 . S
O426 Dy419 2.351 . S
O426 C434 1.249 . S
O427 Dy416 2.326 . S
O427 C434 1.267 . S
O428 C417 1.185 . S
O428 Dy419 2.398 . S
O429 C417 1.355 . S
O429 Dy419 2.491 . S
O430 Dy419 2.403 1_655 S
O430 C425 1.254 . S
O431 Dy416 2.310 1_655 S
O431 Dy419 2.664 1_655 S
O431 C425 1.268 . S
O432 Dy416 2.351 1_565 S
O432 C435 1.249 . S
O433 Dy419 2.326 1_565 S
O433 C435 1.267 . S
C434 O426 1.249 . S
C434 O427 1.267 . S
C435 O432 1.249 . S
C435 O433 1.267 . S
Dy436 O440 2.398 . S
Dy436 O441 2.491 . S
Dy436 O442 2.403 . S
Dy436 O443 2.664 . S
Dy436 O447 2.326 . S
Dy436 O451 2.310 . S
Dy436 O452 2.351 . S
C437 O448 1.185 . S
C437 O449 1.355 . S
C438 O440 1.185 . S
C438 O441 1.355 . S
Dy439 O443 2.310 . S
Dy439 O446 2.351 . S
Dy439 O448 2.398 . S
Dy439 O449 2.491 . S
Dy439 O450 2.403 . S
Dy439 O451 2.664 . S
Dy439 O453 2.326 . S
O440 Dy436 2.398 . S
O440 C438 1.185 . S
O441 Dy436 2.491 . S
O441 C438 1.355 . S
O442 Dy436 2.403 . S
O442 C444 1.254 . S
O443 Dy436 2.664 . S
O443 Dy439 2.310 . S
O443 C444 1.268 . S
C444 O442 1.254 . S
C444 O443 1.268 . S
C445 O450 1.254 . S
C445 O451 1.268 . S
O446 Dy439 2.351 . S
O446 C454 1.249 . S
O447 Dy436 2.326 . S
O447 C454 1.267 . S
O448 C437 1.185 . S
O448 Dy439 2.398 . S
O449 C437 1.355 . S
O449 Dy439 2.491 . S
O450 Dy439 2.403 . S
O450 C445 1.254 . S
O451 Dy436 2.310 . S
O451 Dy439 2.664 . S
O451 C445 1.268 . S
O452 Dy436 2.351 . S
O452 C455 1.249 . S
O453 Dy439 2.326 . S
O453 C455 1.267 . S
C454 O446 1.249 . S
C454 O447 1.267 . S
C455 O452 1.249 . S
C455 O453 1.267 . S
Dy456 O460 2.398 1_545 S
Dy456 O461 2.491 . S
Dy456 O462 2.403 1_545 S
Dy456 O463 2.661 1_544 S
Dy456 O467 2.320 1_545 S
Dy456 O471 2.310 . S
Dy456 O472 2.351 . S
C457 O468 1.185 . S
C457 O469 1.355 . S
C458 O460 1.185 1_545 S
C458 O461 1.355 . S
Dy459 O463 2.298 1_545 S
Dy459 O466 2.351 . S
Dy459 O468 2.398 . S
Dy459 O469 2.491 . S
Dy459 O470 2.403 . S
Dy459 O471 2.664 1_556 S
Dy459 O473 2.326 . S
O460 Dy456 2.398 1_565 S
O460 C458 1.185 1_565 S
O461 Dy456 2.491 . S
O461 C458 1.355 . S
O462 Dy456 2.403 1_565 S
O462 C464 1.254 . S
O463 Dy456 2.661 1_566 S
O463 Dy459 2.298 1_565 S
O463 C464 1.281 1_556 S
C464 O462 1.254 . S
C464 O463 1.281 1_554 S
C465 O470 1.254 1_554 S
C465 O471 1.268 . S
O466 Dy459 2.351 . S
O466 C474 1.249 1_556 S
O467 Dy456 2.320 1_565 S
O467 C474 1.247 1_565 S
O468 C457 1.185 . S
O468 Dy459 2.398 . S
O469 C457 1.355 . S
O469 Dy459 2.491 . S
O470 Dy459 2.403 . S
O470 C465 1.254 1_556 S
O471 Dy456 2.310 . S
O471 Dy459 2.664 1_554 S
O471 C465 1.268 . S
O472 Dy456 2.351 . S
O472 C475 1.249 . S
O473 Dy459 2.326 . S
O473 C475 1.267 1_556 S
C474 O466 1.249 1_554 S
C474 O467 1.247 1_545 S
C475 O472 1.249 . S
C475 O473 1.267 1_554 S
Dy476 O480 2.398 . S
Dy476 O481 2.491 . S
Dy476 O482 2.403 . S
Dy476 O483 2.664 . S
Dy476 O487 2.326 . S
Dy476 O491 2.310 . S
Dy476 O492 2.351 . S
C477 O488 1.185 . S
C477 O489 1.355 . S
C478 O480 1.185 . S
C478 O481 1.355 . S
Dy479 O483 2.310 . S
Dy479 O486 2.351 . S
Dy479 O488 2.398 . S
Dy479 O489 2.491 . S
Dy479 O490 2.403 . S
Dy479 O491 2.664 . S
Dy479 O493 2.326 . S
O480 Dy476 2.398 . S
O480 C478 1.185 . S
O481 Dy476 2.491 . S
O481 C478 1.355 . S
O482 Dy476 2.403 . S
O482 C484 1.254 . S
O483 Dy476 2.664 . S
O483 Dy479 2.310 . S
O483 C484 1.268 . S
C484 O482 1.254 . S
C484 O483 1.268 . S
C485 O490 1.254 . S
C485 O491 1.268 . S
O486 Dy479 2.351 . S
O486 C494 1.249 . S
O487 Dy476 2.326 . S
O487 C494 1.267 . S
O488 C477 1.185 . S
O488 Dy479 2.398 . S
O489 C477 1.355 . S
O489 Dy479 2.491 . S
O490 Dy479 2.403 . S
O490 C485 1.254 . S
O491 Dy476 2.310 . S
O491 Dy479 2.664 . S
O491 C485 1.268 . S
O492 Dy476 2.351 . S
O492 C495 1.249 . S
O493 Dy479 2.326 . S
O493 C495 1.267 . S
C494 O486 1.249 . S
C494 O487 1.267 . S
C495 O492 1.249 . S
C495 O493 1.267 . S
Dy496 O500 2.398 . S
Dy496 O501 2.491 . S
Dy496 O502 2.403 . S
Dy496 O503 2.664 1_556 S
Dy496 O507 2.326 . S
Dy496 O511 2.310 1_556 S
Dy496 O512 2.351 1_556 S
C497 O508 1.185 . S
C497 O509 1.355 . S
C498 O500 1.185 . S
C498 O501 1.355 . S
Dy499 O503 2.310 . S
Dy499 O506 2.351 . S
Dy499 O508 2.398 . S
Dy499 O509 2.491 . S
Dy499 O510 2.403 . S
Dy499 O511 2.664 . S
Dy499 O513 2.326 . S
O500 Dy496 2.398 . S
O500 C498 1.185 . S
O501 Dy496 2.491 . S
O501 C498 1.355 . S
O502 Dy496 2.403 . S
O502 C504 1.258 1_556 S
O503 Dy496 2.664 1_554 S
O503 Dy499 2.310 . S
O503 C504 1.265 . S
C504 O502 1.258 1_554 S
C504 O503 1.265 . S
C505 O510 1.254 . S
C505 O511 1.268 . S
O506 Dy499 2.351 . S
O506 C514 1.249 1_554 S
O507 Dy496 2.326 . S
O507 C514 1.267 . S
O508 C497 1.185 . S
O508 Dy499 2.398 . S
O509 C497 1.355 . S
O509 Dy499 2.491 . S
O510 Dy499 2.403 . S
O510 C505 1.254 . S
O511 Dy496 2.310 1_554 S
O511 Dy499 2.664 . S
O511 C505 1.268 . S
O512 Dy496 2.351 1_554 S
O512 C515 1.249 . S
O513 Dy499 2.326 . S
O513 C515 1.267 . S
C514 O506 1.249 1_556 S
C514 O507 1.267 . S
C515 O512 1.249 . S
C515 O513 1.267 . S
Dy516 O520 2.398 . S
Dy516 O521 2.491 . S
Dy516 O522 2.403 . S
Dy516 O523 2.664 . S
Dy516 O527 2.326 . S
Dy516 O531 2.310 . S
Dy516 O532 2.351 . S
C517 O528 1.185 . S
C517 O529 1.355 . S
C518 O520 1.185 . S
C518 O521 1.355 . S
Dy519 O523 2.310 . S
Dy519 O526 2.351 . S
Dy519 O528 2.398 . S
Dy519 O529 2.491 . S
Dy519 O530 2.403 . S
Dy519 O531 2.664 . S
Dy519 O533 2.326 . S
O520 Dy516 2.398 . S
O520 C518 1.185 . S
O521 Dy516 2.491 . S
O521 C518 1.355 . S
O522 Dy516 2.403 . S
O522 C524 1.254 . S
O523 Dy516 2.664 . S
O523 Dy519 2.310 . S
O523 C524 1.268 . S
C524 O522 1.254 . S
C524 O523 1.268 . S
C525 O530 1.254 . S
C525 O531 1.268 . S
O526 Dy519 2.351 . S
O526 C534 1.249 . S
O527 Dy516 2.326 . S
O527 C534 1.267 . S
O528 C517 1.185 . S
O528 Dy519 2.398 . S
O529 C517 1.355 . S
O529 Dy519 2.491 . S
O530 Dy519 2.403 . S
O530 C525 1.254 . S
O531 Dy516 2.310 . S
O531 Dy519 2.664 . S
O531 C525 1.268 . S
O532 Dy516 2.351 . S
O532 C535 1.249 . S
O533 Dy519 2.326 . S
O533 C535 1.267 . S
C534 O526 1.249 . S
C534 O527 1.267 . S
C535 O532 1.249 . S
C535 O533 1.267 . S
Dy536 O540 2.381 1_455 S
Dy536 O541 2.491 1_455 S
Dy536 O542 2.403 . S
Dy536 O543 2.664 . S
Dy536 O547 2.326 1_455 S
Dy536 O551 2.310 . S
Dy536 O552 2.351 . S
C537 O548 1.185 . S
C537 O549 1.355 . S
C538 O540 1.221 . S
C538 O541 1.355 . S
Dy539 O543 2.310 . S
Dy539 O546 2.351 1_455 S
Dy539 O548 2.398 . S
Dy539 O549 2.491 . S
Dy539 O550 2.403 . S
Dy539 O551 2.664 . S
Dy539 O553 2.326 . S
O540 Dy536 2.381 1_655 S
O540 C538 1.221 . S
O541 Dy536 2.491 1_655 S
O541 C538 1.355 . S
O542 Dy536 2.403 . S
O542 C544 1.254 . S
O543 Dy536 2.664 . S
O543 Dy539 2.310 . S
O543 C544 1.268 . S
C544 O542 1.254 . S
C544 O543 1.268 . S
C545 O550 1.254 . S
C545 O551 1.268 . S
O546 Dy539 2.351 1_655 S
O546 C554 1.249 . S
O547 Dy536 2.326 1_655 S
O547 C554 1.267 . S
O548 C537 1.185 . S
O548 Dy539 2.398 . S
O549 C537 1.355 . S
O549 Dy539 2.491 . S
O550 Dy539 2.403 . S
O550 C545 1.254 . S
O551 Dy536 2.310 . S
O551 Dy539 2.664 . S
O551 C545 1.268 . S
O552 Dy536 2.351 . S
O552 C555 1.249 . S
O553 Dy539 2.326 . S
O553 C555 1.267 . S
C554 O546 1.249 . S
C554 O547 1.267 . S
C555 O552 1.249 . S
C555 O553 1.267 . S
Dy556 O560 2.398 . S
Dy556 O561 2.491 . S
Dy556 O562 2.403 . S
Dy556 O563 2.664 . S
Dy556 O567 2.326 . S
Dy556 O571 2.310 . S
Dy556 O572 2.351 . S
C557 O568 1.185 . S
C557 O569 1.355 . S
C558 O560 1.185 . S
C558 O561 1.355 . S
Dy559 O563 2.310 . S
Dy559 O566 2.351 . S
Dy559 O568 2.398 . S
Dy559 O569 2.491 . S
Dy559 O570 2.403 . S
Dy559 O571 2.664 . S
Dy559 O573 2.326 . S
O560 Dy556 2.398 . S
O560 C558 1.185 . S
O561 Dy556 2.491 . S
O561 C558 1.355 . S
O562 Dy556 2.403 . S
O562 C564 1.254 . S
O563 Dy556 2.664 . S
O563 Dy559 2.310 . S
O563 C564 1.268 . S
C564 O562 1.254 . S
C564 O563 1.268 . S
C565 O570 1.254 . S
C565 O571 1.268 . S
O566 Dy559 2.351 . S
O566 C574 1.249 . S
O567 Dy556 2.326 . S
O567 C574 1.267 . S
O568 C557 1.185 . S
O568 Dy559 2.398 . S
O569 C557 1.355 . S
O569 Dy559 2.491 . S
O570 Dy559 2.403 . S
O570 C565 1.254 . S
O571 Dy556 2.310 . S
O571 Dy559 2.664 . S
O571 C565 1.268 . S
O572 Dy556 2.351 . S
O572 C575 1.249 . S
O573 Dy559 2.326 . S
O573 C575 1.267 . S
C574 O566 1.249 . S
C574 O567 1.267 . S
C575 O572 1.249 . S
C575 O573 1.267 . S
Dy576 O580 2.398 . S
Dy576 O581 2.491 . S
Dy576 O582 2.403 . S
Dy576 O583 2.664 . S
Dy576 O587 2.326 . S
Dy576 O591 2.310 . S
Dy576 O592 2.351 . S
C577 O588 1.185 . S
C577 O589 1.355 . S
C578 O580 1.185 . S
C578 O581 1.355 . S
Dy579 O583 2.310 . S
Dy579 O586 2.351 . S
Dy579 O588 2.398 . S
Dy579 O589 2.491 . S
Dy579 O590 2.403 . S
Dy579 O591 2.664 . S
Dy579 O593 2.326 . S
O580 Dy576 2.398 . S
O580 C578 1.185 . S
O581 Dy576 2.491 . S
O581 C578 1.355 . S
O582 Dy576 2.403 . S
O582 C584 1.254 . S
O583 Dy576 2.664 . S
O583 Dy579 2.310 . S
O583 C584 1.268 . S
C584 O582 1.254 . S
C584 O583 1.268 . S
C585 O590 1.254 . S
C585 O591 1.268 . S
O586 Dy579 2.351 . S
O586 C594 1.249 . S
O587 Dy576 2.326 . S
O587 C594 1.267 . S
O588 C577 1.185 . S
O588 Dy579 2.398 . S
O589 C577 1.355 . S
O589 Dy579 2.491 . S
O590 Dy579 2.403 . S
O590 C585 1.254 . S
O591 Dy576 2.310 . S
O591 Dy579 2.664 . S
O591 C585 1.268 . S
O592 Dy576 2.351 . S
O592 C595 1.249 . S
O593 Dy579 2.326 . S
O593 C595 1.267 . S
C594 O586 1.249 . S
C594 O587 1.267 . S
C595 O592 1.249 . S
C595 O593 1.267 . S
Dy596 O600 2.398 . S
Dy596 O601 2.491 . S
Dy596 O602 2.403 . S
Dy596 O603 2.664 . S
Dy596 O607 2.326 . S
Dy596 O611 2.310 . S
Dy596 O612 2.351 . S
C597 O608 1.185 . S
C597 O609 1.355 . S
C598 O600 1.185 . S
C598 O601 1.355 . S
Dy599 O603 2.310 . S
Dy599 O606 2.351 . S
Dy599 O608 2.398 . S
Dy599 O609 2.491 . S
Dy599 O610 2.403 . S
Dy599 O611 2.664 . S
Dy599 O613 2.326 . S
O600 Dy596 2.398 . S
O600 C598 1.185 . S
O601 Dy596 2.491 . S
O601 C598 1.355 . S
O602 Dy596 2.403 . S
O602 C604 1.254 . S
O603 Dy596 2.664 . S
O603 Dy599 2.310 . S
O603 C604 1.268 . S
C604 O602 1.254 . S
C604 O603 1.268 . S
C605 O610 1.254 . S
C605 O611 1.268 . S
O606 Dy599 2.351 . S
O606 C614 1.249 . S
O607 Dy596 2.326 . S
O607 C614 1.267 . S
O608 C597 1.185 . S
O608 Dy599 2.398 . S
O609 C597 1.355 . S
O609 Dy599 2.491 . S
O610 Dy599 2.403 . S
O610 C605 1.254 . S
O611 Dy596 2.310 . S
O611 Dy599 2.664 . S
O611 C605 1.268 . S
O612 Dy596 2.351 . S
O612 C615 1.249 . S
O613 Dy599 2.326 . S
O613 C615 1.267 . S
C614 O606 1.249 . S
C614 O607 1.267 . S
C615 O612 1.249 . S
C615 O613 1.267 . S
Dy616 O620 2.398 . S
Dy616 O621 2.491 . S
Dy616 O622 2.403 . S
Dy616 O623 2.664 . S
Dy616 O627 2.326 . S
Dy616 O631 2.310 . S
Dy616 O632 2.351 . S
C617 O628 1.185 . S
C617 O629 1.355 . S
C618 O620 1.185 . S
C618 O621 1.355 . S
Dy619 O623 2.310 . S
Dy619 O626 2.351 . S
Dy619 O628 2.398 . S
Dy619 O629 2.491 . S
Dy619 O630 2.403 . S
Dy619 O631 2.664 . S
Dy619 O633 2.326 . S
O620 Dy616 2.398 . S
O620 C618 1.185 . S
O621 Dy616 2.491 . S
O621 C618 1.355 . S
O622 Dy616 2.403 . S
O622 C624 1.254 . S
O623 Dy616 2.664 . S
O623 Dy619 2.310 . S
O623 C624 1.268 . S
C624 O622 1.254 . S
C624 O623 1.268 . S
C625 O630 1.254 . S
C625 O631 1.268 . S
O626 Dy619 2.351 . S
O626 C634 1.249 . S
O627 Dy616 2.326 . S
O627 C634 1.267 . S
O628 C617 1.185 . S
O628 Dy619 2.398 . S
O629 C617 1.355 . S
O629 Dy619 2.491 . S
O630 Dy619 2.403 . S
O630 C625 1.254 . S
O631 Dy616 2.310 . S
O631 Dy619 2.664 . S
O631 C625 1.268 . S
O632 Dy616 2.351 . S
O632 C635 1.249 . S
O633 Dy619 2.326 . S
O633 C635 1.267 . S
C634 O626 1.249 . S
C634 O627 1.267 . S
C635 O632 1.249 . S
C635 O633 1.267 . S
Dy636 O640 2.398 1_554 S
Dy636 O641 2.491 . S
Dy636 O642 2.403 1_554 S
Dy636 O643 2.664 1_554 S
Dy636 O647 2.326 1_554 S
Dy636 O651 2.310 . S
Dy636 O652 2.351 . S
C637 O648 1.185 . S
C637 O649 1.355 . S
C638 O640 1.185 . S
C638 O641 1.355 1_556 S
Dy639 O643 2.310 1_654 S
Dy639 O646 2.351 . S
Dy639 O648 2.398 . S
Dy639 O649 2.491 . S
Dy639 O650 2.403 . S
Dy639 O651 2.664 1_655 S
Dy639 O653 2.326 1_655 S
O640 Dy636 2.398 1_556 S
O640 C638 1.185 . S
O641 Dy636 2.491 . S
O641 C638 1.355 1_554 S
O642 Dy636 2.403 1_556 S
O642 C644 1.254 . S
O643 Dy636 2.664 1_556 S
O643 Dy639 2.310 1_456 S
O643 C644 1.268 . S
C644 O642 1.254 . S
C644 O643 1.268 . S
C645 O650 1.254 1_455 S
C645 O651 1.268 . S
O646 Dy639 2.351 . S
O646 C654 1.231 1_654 S
O647 Dy636 2.326 1_556 S
O647 C654 1.290 . S
O648 C637 1.185 . S
O648 Dy639 2.398 . S
O649 C637 1.355 . S
O649 Dy639 2.491 . S
O650 Dy639 2.403 . S
O650 C645 1.254 1_655 S
O651 Dy636 2.310 . S
O651 Dy639 2.664 1_455 S
O651 C645 1.268 . S
O652 Dy636 2.351 . S
O652 C655 1.249 . S
O653 Dy639 2.326 1_455 S
O653 C655 1.267 . S
C654 O646 1.231 1_456 S
C654 O647 1.290 . S
C655 O652 1.249 . S
C655 O653 1.267 . S
H656 C664 0.950 . S
H657 C669 0.950 . S
H658 C666 0.950 . S
H659 C668 0.950 . S
H660 C670 0.950 . S
H661 C672 0.950 . S
H662 C674 0.950 . S
H663 C675 0.950 1_554 S
C664 H656 0.950 . S
C664 C665 1.386 . S
C664 C666 1.391 . S
C665 C664 1.386 . S
C665 C669 1.393 1_655 S
C666 H658 0.950 . S
C666 C664 1.391 . S
C666 C667 1.400 1_655 S
C667 C666 1.400 1_455 S
C667 C668 1.398 . S
C667 C673 1.491 . S
C668 H659 0.950 . S
C668 C667 1.398 . S
C668 C669 1.391 . S
C669 H657 0.950 . S
C669 C665 1.393 1_455 S
C669 C668 1.391 . S
C670 H660 0.950 . S
C670 C671 1.386 . S
C670 C672 1.391 . S
C671 C670 1.386 . S
C671 C675 1.393 1_455 S
C672 H661 0.950 . S
C672 C670 1.391 . S
C672 C673 1.400 . S
C673 C667 1.491 . S
C673 C672 1.400 . S
C673 C674 1.398 1_455 S
C674 H662 0.950 . S
C674 C673 1.398 1_655 S
C674 C675 1.391 . S
C675 H663 0.950 1_556 S
C675 C671 1.393 1_655 S
C675 C674 1.391 . S
H676 C684 0.950 . S
H677 C689 0.950 . S
H678 C686 0.950 . S
H679 C688 0.950 . S
H680 C690 0.950 . S
H681 C692 0.950 . S
H682 C694 0.950 . S
H683 C695 0.950 . S
C684 H676 0.950 . S
C684 C685 1.386 . S
C684 C686 1.391 . S
C685 C684 1.386 . S
C685 C689 1.393 . S
C686 H678 0.950 . S
C686 C684 1.391 . S
C686 C687 1.400 . S
C687 C686 1.400 . S
C687 C688 1.398 . S
C687 C693 1.491 . S
C688 H679 0.950 . S
C688 C687 1.398 . S
C688 C689 1.391 . S
C689 H677 0.950 . S
C689 C685 1.393 . S
C689 C688 1.391 . S
C690 H680 0.950 . S
C690 C691 1.386 . S
C690 C692 1.391 . S
C691 C690 1.386 . S
C691 C695 1.393 . S
C692 H681 0.950 . S
C692 C690 1.391 . S
C692 C693 1.400 . S
C693 C687 1.491 . S
C693 C692 1.400 . S
C693 C694 1.398 . S
C694 H682 0.950 . S
C694 C693 1.398 . S
C694 C695 1.391 . S
C695 H683 0.950 . S
C695 C691 1.393 . S
C695 C694 1.391 . S
H696 C704 0.950 . S
H697 C709 0.950 . S
H698 C706 0.950 . S
H699 C708 0.950 . S
H700 C710 0.950 . S
H701 C712 0.950 . S
H702 C714 0.950 . S
H703 C715 0.950 . S
C704 H696 0.950 . S
C704 C705 1.386 . S
C704 C706 1.391 . S
C705 C704 1.386 . S
C705 C709 1.393 . S
C706 H698 0.950 . S
C706 C704 1.391 . S
C706 C707 1.400 . S
C707 C706 1.400 . S
C707 C708 1.398 . S
C707 C713 1.491 . S
C708 H699 0.950 . S
C708 C707 1.398 . S
C708 C709 1.391 . S
C709 H697 0.950 . S
C709 C705 1.393 . S
C709 C708 1.391 . S
C710 H700 0.950 . S
C710 C711 1.386 . S
C710 C712 1.391 . S
C711 C710 1.386 . S
C711 C715 1.393 . S
C712 H701 0.950 . S
C712 C710 1.391 . S
C712 C713 1.400 . S
C713 C707 1.491 . S
C713 C712 1.400 . S
C713 C714 1.398 . S
C714 H702 0.950 . S
C714 C713 1.398 . S
C714 C715 1.391 . S
C715 H703 0.950 . S
C715 C711 1.393 . S
C715 C714 1.391 . S
H716 C724 0.950 . S
H717 C729 0.950 . S
H718 C726 0.950 . S
H719 C728 0.950 . S
H720 C730 0.950 . S
H721 C732 0.950 . S
H722 C734 0.950 . S
H723 C735 0.950 . S
C724 H716 0.950 . S
C724 C725 1.386 . S
C724 C726 1.391 . S
C725 C724 1.386 . S
C725 C729 1.393 . S
C726 H718 0.950 . S
C726 C724 1.391 . S
C726 C727 1.400 . S
C727 C726 1.400 . S
C727 C728 1.398 . S
C727 C733 1.491 . S
C728 H719 0.950 . S
C728 C727 1.398 . S
C728 C729 1.391 . S
C729 H717 0.950 . S
C729 C725 1.393 . S
C729 C728 1.391 . S
C730 H720 0.950 . S
C730 C731 1.386 . S
C730 C732 1.391 . S
C731 C730 1.386 . S
C731 C735 1.393 . S
C732 H721 0.950 . S
C732 C730 1.391 . S
C732 C733 1.400 . S
C733 C727 1.491 . S
C733 C732 1.400 . S
C733 C734 1.398 . S
C734 H722 0.950 . S
C734 C733 1.398 . S
C734 C735 1.391 . S
C735 H723 0.950 . S
C735 C731 1.393 . S
C735 C734 1.391 . S
H736 C744 0.950 . S
H737 C749 0.950 . S
H738 C746 0.950 . S
H739 C748 0.950 . S
H740 C750 0.950 . S
H741 C752 0.950 . S
H742 C754 0.950 . S
H743 C755 0.950 . S
C744 H736 0.950 . S
C744 C745 1.386 . S
C744 C746 1.391 . S
C745 C744 1.386 . S
C745 C749 1.393 . S
C746 H738 0.950 . S
C746 C744 1.391 . S
C746 C747 1.400 . S
C747 C746 1.400 . S
C747 C748 1.398 . S
C747 C753 1.491 . S
C748 H739 0.950 . S
C748 C747 1.398 . S
C748 C749 1.391 . S
C749 H737 0.950 . S
C749 C745 1.393 . S
C749 C748 1.391 . S
C750 H740 0.950 . S
C750 C751 1.386 . S
C750 C752 1.391 . S
C751 C750 1.386 . S
C751 C755 1.393 . S
C752 H741 0.950 . S
C752 C750 1.391 . S
C752 C753 1.400 . S
C753 C747 1.491 . S
C753 C752 1.400 . S
C753 C754 1.398 . S
C754 H742 0.950 . S
C754 C753 1.398 . S
C754 C755 1.391 . S
C755 H743 0.950 . S
C755 C751 1.393 . S
C755 C754 1.391 . S
H756 C764 0.950 . S
H757 C769 0.950 . S
H758 C766 0.950 . S
H759 C768 0.950 . S
H760 C770 0.950 . S
H761 C772 0.950 . S
H762 C774 0.950 . S
H763 C775 0.950 . S
C764 H756 0.950 . S
C764 C765 1.386 . S
C764 C766 1.391 . S
C765 C764 1.386 . S
C765 C769 1.393 . S
C766 H758 0.950 . S
C766 C764 1.391 . S
C766 C767 1.400 . S
C767 C766 1.400 . S
C767 C768 1.398 . S
C767 C773 1.491 . S
C768 H759 0.950 . S
C768 C767 1.398 . S
C768 C769 1.391 . S
C769 H757 0.950 . S
C769 C765 1.393 . S
C769 C768 1.391 . S
C770 H760 0.950 . S
C770 C771 1.386 . S
C770 C772 1.391 . S
C771 C770 1.386 . S
C771 C775 1.393 . S
C772 H761 0.950 . S
C772 C770 1.391 . S
C772 C773 1.400 . S
C773 C767 1.491 . S
C773 C772 1.400 . S
C773 C774 1.398 . S
C774 H762 0.950 . S
C774 C773 1.398 . S
C774 C775 1.391 . S
C775 H763 0.950 . S
C775 C771 1.393 . S
C775 C774 1.391 . S
H776 C784 0.950 . S
H777 C789 0.950 . S
H778 C786 0.950 . S
H779 C788 0.950 . S
H780 C790 0.950 . S
H781 C792 0.950 . S
H782 C794 0.950 . S
H783 C795 0.950 . S
C784 H776 0.950 . S
C784 C785 1.386 . S
C784 C786 1.391 . S
C785 C784 1.386 . S
C785 C789 1.393 . S
C786 H778 0.950 . S
C786 C784 1.391 . S
C786 C787 1.400 . S
C787 C786 1.400 . S
C787 C788 1.398 . S
C787 C793 1.491 . S
C788 H779 0.950 . S
C788 C787 1.398 . S
C788 C789 1.391 . S
C789 H777 0.950 . S
C789 C785 1.393 . S
C789 C788 1.391 . S
C790 H780 0.950 . S
C790 C791 1.386 . S
C790 C792 1.391 . S
C791 C790 1.386 . S
C791 C795 1.393 . S
C792 H781 0.950 . S
C792 C790 1.391 . S
C792 C793 1.400 . S
C793 C787 1.491 . S
C793 C792 1.400 . S
C793 C794 1.398 . S
C794 H782 0.950 . S
C794 C793 1.398 . S
C794 C795 1.391 . S
C795 H783 0.950 . S
C795 C791 1.393 . S
C795 C794 1.391 . S
H796 C804 0.950 . S
H797 C809 0.950 . S
H798 C806 0.950 . S
H799 C808 0.950 . S
H800 C810 0.950 . S
H801 C812 0.950 . S
H802 C814 0.950 . S
H803 C815 0.950 . S
C804 H796 0.950 . S
C804 C805 1.386 . S
C804 C806 1.391 . S
C805 C804 1.386 . S
C805 C809 1.393 . S
C806 H798 0.950 . S
C806 C804 1.391 . S
C806 C807 1.400 . S
C807 C806 1.400 . S
C807 C808 1.398 . S
C807 C813 1.491 . S
C808 H799 0.950 . S
C808 C807 1.398 . S
C808 C809 1.391 . S
C809 H797 0.950 . S
C809 C805 1.393 . S
C809 C808 1.391 . S
C810 H800 0.950 . S
C810 C811 1.386 . S
C810 C812 1.391 . S
C811 C810 1.386 . S
C811 C815 1.393 . S
C812 H801 0.950 . S
C812 C810 1.391 . S
C812 C813 1.400 . S
C813 C807 1.491 . S
C813 C812 1.400 . S
C813 C814 1.398 . S
C814 H802 0.950 . S
C814 C813 1.398 . S
C814 C815 1.391 . S
C815 H803 0.950 . S
C815 C811 1.393 . S
C815 C814 1.391 . S
H816 C824 0.950 . S
H817 C829 0.950 . S
H818 C826 0.950 . S
H819 C828 0.950 . S
H820 C830 0.950 . S
H821 C832 0.950 . S
H822 C834 0.950 . S
H823 C835 0.950 . S
C824 H816 0.950 . S
C824 C825 1.386 . S
C824 C826 1.391 . S
C825 C824 1.386 . S
C825 C829 1.393 . S
C826 H818 0.950 . S
C826 C824 1.391 . S
C826 C827 1.400 . S
C827 C826 1.400 . S
C827 C828 1.398 . S
C827 C833 1.491 . S
C828 H819 0.950 . S
C828 C827 1.398 . S
C828 C829 1.391 . S
C829 H817 0.950 . S
C829 C825 1.393 . S
C829 C828 1.391 . S
C830 H820 0.950 . S
C830 C831 1.386 . S
C830 C832 1.391 . S
C831 C830 1.386 . S
C831 C835 1.393 1_655 S
C832 H821 0.950 . S
C832 C830 1.391 . S
C832 C833 1.400 . S
C833 C827 1.491 . S
C833 C832 1.400 . S
C833 C834 1.398 . S
C834 H822 0.950 . S
C834 C833 1.398 . S
C834 C835 1.391 1_655 S
C835 H823 0.950 . S
C835 C831 1.393 1_455 S
C835 C834 1.391 1_455 S
H836 C844 0.950 . S
H837 C849 0.950 . S
H838 C846 0.950 . S
H839 C848 0.950 . S
H840 C850 0.950 . S
H841 C852 0.950 . S
H842 C854 0.950 . S
H843 C855 0.950 . S
C844 H836 0.950 . S
C844 C845 1.386 . S
C844 C846 1.391 . S
C845 C844 1.386 . S
C845 C849 1.393 . S
C846 H838 0.950 . S
C846 C844 1.391 . S
C846 C847 1.400 . S
C847 C846 1.400 . S
C847 C848 1.398 . S
C847 C853 1.491 . S
C848 H839 0.950 . S
C848 C847 1.398 . S
C848 C849 1.391 . S
C849 H837 0.950 . S
C849 C845 1.393 . S
C849 C848 1.391 . S
C850 H840 0.950 . S
C850 C851 1.386 . S
C850 C852 1.391 . S
C851 C850 1.386 . S
C851 C855 1.393 . S
C852 H841 0.950 . S
C852 C850 1.391 . S
C852 C853 1.400 . S
C853 C847 1.491 . S
C853 C852 1.400 . S
C853 C854 1.398 . S
C854 H842 0.950 . S
C854 C853 1.398 . S
C854 C855 1.391 . S
C855 H843 0.950 . S
C855 C851 1.393 . S
C855 C854 1.391 . S
H856 C864 0.950 . S
H857 C869 0.950 . S
H858 C866 0.950 . S
H859 C868 0.950 . S
H860 C870 0.950 . S
H861 C872 0.950 . S
H862 C874 0.950 . S
H863 C875 0.950 . S
C864 H856 0.950 . S
C864 C865 1.386 1_565 S
C864 C866 1.391 . S
C865 C864 1.386 1_545 S
C865 C869 1.393 . S
C866 H858 0.950 . S
C866 C864 1.391 . S
C866 C867 1.400 1_565 S
C867 C866 1.400 1_545 S
C867 C868 1.398 . S
C867 C873 1.491 . S
C868 H859 0.950 . S
C868 C867 1.398 . S
C868 C869 1.391 . S
C869 H857 0.950 . S
C869 C865 1.393 . S
C869 C868 1.391 . S
C870 H860 0.950 . S
C870 C871 1.386 . S
C870 C872 1.391 . S
C871 C870 1.386 . S
C871 C875 1.393 1_545 S
C872 H861 0.950 . S
C872 C870 1.391 . S
C872 C873 1.400 . S
C873 C867 1.491 . S
C873 C872 1.400 . S
C873 C874 1.398 1_545 S
C874 H862 0.950 . S
C874 C873 1.398 1_565 S
C874 C875 1.391 . S
C875 H863 0.950 . S
C875 C871 1.393 1_565 S
C875 C874 1.391 . S
H876 C884 0.950 . S
H877 C889 0.950 . S
H878 C886 0.950 . S
H879 C888 0.950 . S
H880 C890 0.950 . S
H881 C892 0.950 . S
H882 C894 0.950 . S
H883 C895 0.950 . S
C884 H876 0.950 . S
C884 C885 1.386 . S
C884 C886 1.391 . S
C885 C884 1.386 . S
C885 C889 1.393 . S
C886 H878 0.950 . S
C886 C884 1.391 . S
C886 C887 1.400 . S
C887 C886 1.400 . S
C887 C888 1.398 . S
C887 C893 1.491 . S
C888 H879 0.950 . S
C888 C887 1.398 . S
C888 C889 1.391 . S
C889 H877 0.950 . S
C889 C885 1.393 . S
C889 C888 1.391 . S
C890 H880 0.950 . S
C890 C891 1.386 . S
C890 C892 1.391 . S
C891 C890 1.386 . S
C891 C895 1.393 . S
C892 H881 0.950 . S
C892 C890 1.391 . S
C892 C893 1.400 . S
C893 C887 1.491 . S
C893 C892 1.400 . S
C893 C894 1.398 . S
C894 H882 0.950 . S
C894 C893 1.398 . S
C894 C895 1.391 . S
C895 H883 0.950 . S
C895 C891 1.393 . S
C895 C894 1.391 . S
H896 C904 0.950 . S
H897 C909 0.950 . S
H898 C906 0.950 . S
H899 C908 0.950 . S
H900 C910 0.950 1_565 S
H901 C912 0.950 . S
H902 C914 0.950 . S
H903 C915 0.983 . S
C904 H896 0.950 . S
C904 C905 1.386 . S
C904 C906 1.391 . S
C905 C904 1.386 . S
C905 C909 1.393 . S
C906 H898 0.950 . S
C906 C904 1.391 . S
C906 C907 1.400 . S
C907 C906 1.400 . S
C907 C908 1.398 . S
C907 C913 1.491 . S
C908 H899 0.950 . S
C908 C907 1.398 . S
C908 C909 1.391 . S
C909 H897 0.950 . S
C909 C905 1.393 . S
C909 C908 1.391 . S
C910 H900 0.950 1_545 S
C910 C911 1.386 . S
C910 C912 1.391 . S
C911 C910 1.386 . S
C911 C915 1.381 1_655 S
C912 H901 0.950 . S
C912 C910 1.391 . S
C912 C913 1.400 . S
C913 C907 1.491 . S
C913 C912 1.400 . S
C913 C914 1.398 . S
C914 H902 0.950 . S
C914 C913 1.398 . S
C914 C915 1.371 1_655 S
C915 H903 0.983 . S
C915 C911 1.381 1_455 S
C915 C914 1.371 1_455 S
H916 C924 0.950 . S
H917 C929 0.950 . S
H918 C926 0.950 . S
H919 C928 0.950 . S
H920 C930 0.950 . S
H921 C932 0.950 . S
H922 C934 0.950 . S
H923 C935 0.950 . S
C924 H916 0.950 . S
C924 C925 1.386 . S
C924 C926 1.391 . S
C925 C924 1.386 . S
C925 C929 1.393 . S
C926 H918 0.950 . S
C926 C924 1.391 . S
C926 C927 1.400 . S
C927 C926 1.400 . S
C927 C928 1.398 . S
C927 C933 1.491 . S
C928 H919 0.950 . S
C928 C927 1.398 . S
C928 C929 1.391 . S
C929 H917 0.950 . S
C929 C925 1.393 . S
C929 C928 1.391 . S
C930 H920 0.950 . S
C930 C931 1.386 . S
C930 C932 1.391 . S
C931 C930 1.386 . S
C931 C935 1.393 . S
C932 H921 0.950 . S
C932 C930 1.391 . S
C932 C933 1.400 . S
C933 C927 1.491 . S
C933 C932 1.400 . S
C933 C934 1.398 . S
C934 H922 0.950 . S
C934 C933 1.398 . S
C934 C935 1.391 . S
C935 H923 0.950 . S
C935 C931 1.393 . S
C935 C934 1.391 . S
H936 C944 0.950 . S
H937 C949 0.950 . S
H938 C946 0.950 . S
H939 C948 0.950 . S
H940 C950 0.950 . S
H941 C952 0.950 . S
H942 C954 0.950 . S
H943 C955 0.950 . S
C944 H936 0.950 . S
C944 C945 1.386 . S
C944 C946 1.391 . S
C945 C944 1.386 . S
C945 C949 1.393 . S
C946 H938 0.950 . S
C946 C944 1.391 . S
C946 C947 1.400 . S
C947 C946 1.400 . S
C947 C948 1.398 . S
C947 C953 1.491 . S
C948 H939 0.950 . S
C948 C947 1.398 . S
C948 C949 1.391 . S
C949 H937 0.950 . S
C949 C945 1.393 . S
C949 C948 1.391 . S
C950 H940 0.950 . S
C950 C951 1.386 . S
C950 C952 1.391 . S
C951 C950 1.386 . S
C951 C955 1.393 . S
C952 H941 0.950 . S
C952 C950 1.391 . S
C952 C953 1.400 . S
C953 C947 1.491 . S
C953 C952 1.400 . S
C953 C954 1.398 . S
C954 H942 0.950 . S
C954 C953 1.398 . S
C954 C955 1.391 . S
C955 H943 0.950 . S
C955 C951 1.393 . S
C955 C954 1.391 . S
H956 C964 0.950 . S
H957 C969 0.950 . S
H958 C966 0.950 . S
H959 C968 0.950 . S
H960 C970 0.950 . S
H961 C972 0.950 . S
H962 C974 0.950 . S
H963 C975 0.950 . S
C964 H956 0.950 . S
C964 C965 1.386 . S
C964 C966 1.391 . S
C965 C964 1.386 . S
C965 C969 1.393 . S
C966 H958 0.950 . S
C966 C964 1.391 . S
C966 C967 1.400 . S
C967 C966 1.400 . S
C967 C968 1.398 . S
C967 C973 1.491 . S
C968 H959 0.950 . S
C968 C967 1.398 . S
C968 C969 1.391 . S
C969 H957 0.950 . S
C969 C965 1.393 . S
C969 C968 1.391 . S
C970 H960 0.950 . S
C970 C971 1.386 . S
C970 C972 1.391 . S
C971 C970 1.386 . S
C971 C975 1.393 . S
C972 H961 0.950 . S
C972 C970 1.391 . S
C972 C973 1.400 . S
C973 C967 1.491 . S
C973 C972 1.400 . S
C973 C974 1.398 . S
C974 H962 0.950 . S
C974 C973 1.398 . S
C974 C975 1.391 . S
C975 H963 0.950 . S
C975 C971 1.393 . S
C975 C974 1.391 . S
H976 C984 0.950 . S
H977 C989 0.950 . S
H978 C986 0.950 . S
H979 C988 0.950 . S
H980 C990 0.950 . S
H981 C992 0.950 . S
H982 C994 0.950 . S
H983 C995 0.950 . S
C984 H976 0.950 . S
C984 C985 1.386 . S
C984 C986 1.391 . S
C985 C984 1.386 . S
C985 C989 1.393 . S
C986 H978 0.950 . S
C986 C984 1.391 . S
C986 C987 1.400 . S
C987 C986 1.400 . S
C987 C988 1.398 . S
C987 C993 1.491 . S
C988 H979 0.950 . S
C988 C987 1.398 . S
C988 C989 1.391 . S
C989 H977 0.950 . S
C989 C985 1.393 . S
C989 C988 1.391 . S
C990 H980 0.950 . S
C990 C991 1.386 . S
C990 C992 1.391 . S
C991 C990 1.386 . S
C991 C995 1.393 1_565 S
C992 H981 0.950 . S
C992 C990 1.391 . S
C992 C993 1.400 . S
C993 C987 1.491 . S
C993 C992 1.400 . S
C993 C994 1.398 . S
C994 H982 0.950 . S
C994 C993 1.398 . S
C994 C995 1.391 1_565 S
C995 H983 0.950 . S
C995 C991 1.393 1_545 S
C995 C994 1.391 1_545 S
H996 C1004 0.950 . S
H997 C1009 0.950 . S
H998 C1006 0.950 . S
H999 C1008 0.950 . S
H1000 C1010 0.950 . S
H1001 C1012 0.950 . S
H1002 C1014 0.950 . S
H1003 C1015 0.950 . S
C1004 H996 0.950 . S
C1004 C1005 1.386 . S
C1004 C1006 1.391 . S
C1005 C1004 1.386 . S
C1005 C1009 1.393 . S
C1006 H998 0.950 . S
C1006 C1004 1.391 . S
C1006 C1007 1.400 . S
C1007 C1006 1.400 . S
C1007 C1008 1.398 . S
C1007 C1013 1.491 . S
C1008 H999 0.950 . S
C1008 C1007 1.398 . S
C1008 C1009 1.391 . S
C1009 H997 0.950 . S
C1009 C1005 1.393 . S
C1009 C1008 1.391 . S
C1010 H1000 0.950 . S
C1010 C1011 1.386 . S
C1010 C1012 1.391 . S
C1011 C1010 1.386 . S
C1011 C1015 1.393 . S
C1012 H1001 0.950 . S
C1012 C1010 1.391 . S
C1012 C1013 1.400 . S
C1013 C1007 1.491 . S
C1013 C1012 1.400 . S
C1013 C1014 1.398 . S
C1014 H1002 0.950 . S
C1014 C1013 1.398 . S
C1014 C1015 1.391 . S
C1015 H1003 0.950 . S
C1015 C1011 1.393 . S
C1015 C1014 1.391 . S
H1016 C1024 0.950 . S
H1017 C1029 0.950 . S
H1018 C1026 0.950 . S
H1019 C1028 0.950 . S
H1020 C1030 0.950 . S
H1021 C1032 0.950 . S
H1022 C1034 0.950 . S
H1023 C1035 0.950 . S
C1024 H1016 0.950 . S
C1024 C1025 1.386 . S
C1024 C1026 1.391 . S
C1025 C1024 1.386 . S
C1025 C1029 1.393 . S
C1026 H1018 0.950 . S
C1026 C1024 1.391 . S
C1026 C1027 1.400 . S
C1027 C1026 1.400 . S
C1027 C1028 1.398 . S
C1027 C1033 1.491 . S
C1028 H1019 0.950 . S
C1028 C1027 1.398 . S
C1028 C1029 1.391 . S
C1029 H1017 0.950 . S
C1029 C1025 1.393 . S
C1029 C1028 1.391 . S
C1030 H1020 0.950 . S
C1030 C1031 1.386 . S
C1030 C1032 1.391 . S
C1031 C1030 1.386 . S
C1031 C1035 1.393 . S
C1032 H1021 0.950 . S
C1032 C1030 1.391 . S
C1032 C1033 1.400 . S
C1033 C1027 1.491 . S
C1033 C1032 1.400 . S
C1033 C1034 1.398 . S
C1034 H1022 0.950 . S
C1034 C1033 1.398 . S
C1034 C1035 1.391 . S
C1035 H1023 0.950 . S
C1035 C1031 1.393 . S
C1035 C1034 1.391 . S
H1036 C1044 0.950 . S
H1037 C1049 0.950 . S
H1038 C1046 0.950 . S
H1039 C1048 0.950 . S
H1040 C1050 0.950 . S
H1041 C1052 0.950 . S
H1042 C1054 0.950 . S
H1043 C1055 0.950 . S
C1044 H1036 0.950 . S
C1044 C1045 1.386 . S
C1044 C1046 1.391 . S
C1045 C1044 1.386 . S
C1045 C1049 1.393 . S
C1046 H1038 0.950 . S
C1046 C1044 1.391 . S
C1046 C1047 1.400 . S
C1047 C1046 1.400 . S
C1047 C1048 1.398 . S
C1047 C1053 1.491 . S
C1048 H1039 0.950 . S
C1048 C1047 1.398 . S
C1048 C1049 1.391 . S
C1049 H1037 0.950 . S
C1049 C1045 1.393 . S
C1049 C1048 1.391 . S
C1050 H1040 0.950 . S
C1050 C1051 1.386 . S
C1050 C1052 1.391 . S
C1051 C1050 1.386 . S
C1051 C1055 1.393 . S
C1052 H1041 0.950 . S
C1052 C1050 1.391 . S
C1052 C1053 1.400 . S
C1053 C1047 1.491 . S
C1053 C1052 1.400 . S
C1053 C1054 1.398 . S
C1054 H1042 0.950 . S
C1054 C1053 1.398 . S
C1054 C1055 1.391 . S
C1055 H1043 0.950 . S
C1055 C1051 1.393 . S
C1055 C1054 1.391 . S
H1056 C1064 0.950 . S
H1057 C1069 0.950 . S
H1058 C1066 0.950 . S
H1059 C1068 0.950 . S
H1060 C1070 0.950 . S
H1061 C1072 0.950 . S
H1062 C1074 0.950 . S
H1063 C1075 0.950 . S
C1064 H1056 0.950 . S
C1064 C1065 1.386 . S
C1064 C1066 1.391 . S
C1065 C1064 1.386 . S
C1065 C1069 1.393 . S
C1066 H1058 0.950 . S
C1066 C1064 1.391 . S
C1066 C1067 1.400 . S
C1067 C1066 1.400 . S
C1067 C1068 1.398 . S
C1067 C1073 1.491 . S
C1068 H1059 0.950 . S
C1068 C1067 1.398 . S
C1068 C1069 1.391 . S
C1069 H1057 0.950 . S
C1069 C1065 1.393 . S
C1069 C1068 1.391 . S
C1070 H1060 0.950 . S
C1070 C1071 1.386 . S
C1070 C1072 1.391 . S
C1071 C1070 1.386 . S
C1071 C1075 1.393 . S
C1072 H1061 0.950 . S
C1072 C1070 1.391 . S
C1072 C1073 1.400 . S
C1073 C1067 1.491 . S
C1073 C1072 1.400 . S
C1073 C1074 1.398 . S
C1074 H1062 0.950 . S
C1074 C1073 1.398 . S
C1074 C1075 1.391 . S
C1075 H1063 0.950 . S
C1075 C1071 1.393 . S
C1075 C1074 1.391 . S
H1076 C1084 0.950 . S
H1077 C1089 0.950 . S
H1078 C1086 0.950 . S
H1079 C1088 0.950 . S
H1080 C1090 0.950 . S
H1081 C1092 0.950 . S
H1082 C1094 0.950 . S
H1083 C1095 0.950 . S
C1084 H1076 0.950 . S
C1084 C1085 1.386 . S
C1084 C1086 1.391 . S
C1085 C1084 1.386 . S
C1085 C1089 1.393 . S
C1086 H1078 0.950 . S
C1086 C1084 1.391 . S
C1086 C1087 1.400 . S
C1087 C1086 1.400 . S
C1087 C1088 1.398 . S
C1087 C1093 1.491 . S
C1088 H1079 0.950 . S
C1088 C1087 1.398 . S
C1088 C1089 1.391 . S
C1089 H1077 0.950 . S
C1089 C1085 1.393 . S
C1089 C1088 1.391 . S
C1090 H1080 0.950 . S
C1090 C1091 1.386 . S
C1090 C1092 1.391 . S
C1091 C1090 1.386 . S
C1091 C1095 1.393 . S
C1092 H1081 0.950 . S
C1092 C1090 1.391 . S
C1092 C1093 1.400 . S
C1093 C1087 1.491 . S
C1093 C1092 1.400 . S
C1093 C1094 1.398 . S
C1094 H1082 0.950 . S
C1094 C1093 1.398 . S
C1094 C1095 1.391 . S
C1095 H1083 0.950 . S
C1095 C1091 1.393 . S
C1095 C1094 1.391 . S
H1096 C1104 0.950 . S
H1097 C1109 0.950 . S
H1098 C1106 0.950 . S
H1099 C1108 0.950 . S
H1100 C1110 0.950 . S
H1101 C1112 0.950 . S
H1102 C1114 0.950 . S
H1103 C1115 0.950 . S
C1104 H1096 0.950 . S
C1104 C1105 1.386 . S
C1104 C1106 1.391 . S
C1105 C1104 1.386 . S
C1105 C1109 1.393 . S
C1106 H1098 0.950 . S
C1106 C1104 1.391 . S
C1106 C1107 1.400 . S
C1107 C1106 1.400 . S
C1107 C1108 1.398 . S
C1107 C1113 1.491 . S
C1108 H1099 0.950 . S
C1108 C1107 1.398 . S
C1108 C1109 1.391 . S
C1109 H1097 0.950 . S
C1109 C1105 1.393 . S
C1109 C1108 1.391 . S
C1110 H1100 0.950 . S
C1110 C1111 1.386 . S
C1110 C1112 1.391 . S
C1111 C1110 1.386 . S
C1111 C1115 1.393 . S
C1112 H1101 0.950 . S
C1112 C1110 1.391 . S
C1112 C1113 1.400 . S
C1113 C1107 1.491 . S
C1113 C1112 1.400 . S
C1113 C1114 1.398 . S
C1114 H1102 0.950 . S
C1114 C1113 1.398 . S
C1114 C1115 1.391 . S
C1115 H1103 0.950 . S
C1115 C1111 1.393 . S
C1115 C1114 1.391 . S
H1116 C1124 0.950 . S
H1117 C1129 0.950 . S
H1118 C1126 0.950 . S
H1119 C1128 0.950 . S
H1120 C1130 0.950 . S
H1121 C1132 0.950 . S
H1122 C1134 0.950 . S
H1123 C1135 0.950 . S
C1124 H1116 0.950 . S
C1124 C1125 1.386 . S
C1124 C1126 1.391 . S
C1125 C1124 1.386 . S
C1125 C1129 1.393 . S
C1126 H1118 0.950 . S
C1126 C1124 1.391 . S
C1126 C1127 1.400 . S
C1127 C1126 1.400 . S
C1127 C1128 1.398 . S
C1127 C1133 1.491 . S
C1128 H1119 0.950 . S
C1128 C1127 1.398 . S
C1128 C1129 1.391 . S
C1129 H1117 0.950 . S
C1129 C1125 1.393 . S
C1129 C1128 1.391 . S
C1130 H1120 0.950 . S
C1130 C1131 1.386 . S
C1130 C1132 1.391 . S
C1131 C1130 1.386 . S
C1131 C1135 1.393 . S
C1132 H1121 0.950 . S
C1132 C1130 1.391 . S
C1132 C1133 1.400 . S
C1133 C1127 1.491 . S
C1133 C1132 1.400 . S
C1133 C1134 1.398 . S
C1134 H1122 0.950 . S
C1134 C1133 1.398 . S
C1134 C1135 1.391 . S
C1135 H1123 0.950 . S
C1135 C1131 1.393 . S
C1135 C1134 1.391 . S
H1136 C1144 0.950 . S
H1137 C1149 0.950 . S
H1138 C1146 0.950 . S
H1139 C1148 0.950 . S
H1140 C1150 0.950 1_556 S
H1141 C1152 0.950 . S
H1142 C1154 0.950 . S
H1143 C1155 0.950 . S
C1144 H1136 0.950 . S
C1144 C1145 1.386 . S
C1144 C1146 1.391 . S
C1145 C1144 1.386 . S
C1145 C1149 1.393 . S
C1146 H1138 0.950 . S
C1146 C1144 1.391 . S
C1146 C1147 1.400 . S
C1147 C1146 1.400 . S
C1147 C1148 1.398 . S
C1147 C1153 1.491 . S
C1148 H1139 0.950 . S
C1148 C1147 1.398 . S
C1148 C1149 1.391 . S
C1149 H1137 0.950 . S
C1149 C1145 1.393 . S
C1149 C1148 1.391 . S
C1150 H1140 0.950 1_554 S
C1150 C1151 1.386 . S
C1150 C1152 1.391 . S
C1151 C1150 1.386 . S
C1151 C1155 1.393 . S
C1152 H1141 0.950 . S
C1152 C1150 1.391 . S
C1152 C1153 1.400 . S
C1153 C1147 1.491 . S
C1153 C1152 1.400 . S
C1153 C1154 1.398 . S
C1154 H1142 0.950 . S
C1154 C1153 1.398 . S
C1154 C1155 1.391 . S
C1155 H1143 0.950 . S
C1155 C1151 1.393 . S
C1155 C1154 1.391 . S
H1156 C1164 0.950 . S
H1157 C1169 0.950 . S
H1158 C1166 0.950 . S
H1159 C1168 0.950 . S
H1160 C1170 0.950 . S
H1161 C1172 0.950 . S
H1162 C1174 0.950 . S
H1163 C1175 0.950 . S
C1164 H1156 0.950 . S
C1164 C1165 1.386 . S
C1164 C1166 1.391 . S
C1165 C1164 1.386 . S
C1165 C1169 1.393 . S
C1166 H1158 0.950 . S
C1166 C1164 1.391 . S
C1166 C1167 1.400 . S
C1167 C1166 1.400 . S
C1167 C1168 1.398 . S
C1167 C1173 1.491 . S
C1168 H1159 0.950 . S
C1168 C1167 1.398 . S
C1168 C1169 1.391 . S
C1169 H1157 0.950 . S
C1169 C1165 1.393 . S
C1169 C1168 1.391 . S
C1170 H1160 0.950 . S
C1170 C1171 1.386 . S
C1170 C1172 1.391 . S
C1171 C1170 1.386 . S
C1171 C1175 1.393 . S
C1172 H1161 0.950 . S
C1172 C1170 1.391 . S
C1172 C1173 1.400 . S
C1173 C1167 1.491 . S
C1173 C1172 1.400 . S
C1173 C1174 1.398 . S
C1174 H1162 0.950 . S
C1174 C1173 1.398 . S
C1174 C1175 1.391 . S
C1175 H1163 0.950 . S
C1175 C1171 1.393 . S
C1175 C1174 1.391 . S
H1176 C1184 0.950 . S
H1177 C1189 0.950 . S
H1178 C1186 0.950 . S
H1179 C1188 0.950 . S
H1180 C1190 0.950 . S
H1181 C1192 0.950 . S
H1182 C1194 0.950 . S
H1183 C1195 0.950 . S
C1184 H1176 0.950 . S
C1184 C1185 1.386 . S
C1184 C1186 1.391 . S
C1185 C1184 1.386 . S
C1185 C1189 1.393 . S
C1186 H1178 0.950 . S
C1186 C1184 1.391 . S
C1186 C1187 1.400 . S
C1187 C1186 1.400 . S
C1187 C1188 1.398 . S
C1187 C1193 1.491 . S
C1188 H1179 0.950 . S
C1188 C1187 1.398 . S
C1188 C1189 1.391 . S
C1189 H1177 0.950 . S
C1189 C1185 1.393 . S
C1189 C1188 1.391 . S
C1190 H1180 0.950 . S
C1190 C1191 1.386 . S
C1190 C1192 1.391 . S
C1191 C1190 1.386 . S
C1191 C1195 1.393 . S
C1192 H1181 0.950 . S
C1192 C1190 1.391 . S
C1192 C1193 1.400 . S
C1193 C1187 1.491 . S
C1193 C1192 1.400 . S
C1193 C1194 1.398 . S
C1194 H1182 0.950 . S
C1194 C1193 1.398 . S
C1194 C1195 1.391 . S
C1195 H1183 0.950 . S
C1195 C1191 1.393 . S
C1195 C1194 1.391 . S
H1196 C1204 0.950 . S
H1197 C1209 0.950 . S
H1198 C1206 0.950 . S
H1199 C1208 0.950 . S
H1200 C1210 0.950 . S
H1201 C1212 0.950 . S
H1202 C1214 0.950 . S
H1203 C1215 0.950 . S
C1204 H1196 0.950 . S
C1204 C1205 1.386 . S
C1204 C1206 1.391 . S
C1205 C1204 1.386 . S
C1205 C1209 1.393 . S
C1206 H1198 0.950 . S
C1206 C1204 1.391 . S
C1206 C1207 1.400 . S
C1207 C1206 1.400 . S
C1207 C1208 1.398 . S
C1207 C1213 1.491 . S
C1208 H1199 0.950 . S
C1208 C1207 1.398 . S
C1208 C1209 1.391 . S
C1209 H1197 0.950 . S
C1209 C1205 1.393 . S
C1209 C1208 1.391 . S
C1210 H1200 0.950 . S
C1210 C1211 1.386 . S
C1210 C1212 1.391 . S
C1211 C1210 1.386 . S
C1211 C1215 1.393 . S
C1212 H1201 0.950 . S
C1212 C1210 1.391 . S
C1212 C1213 1.400 . S
C1213 C1207 1.491 . S
C1213 C1212 1.400 . S
C1213 C1214 1.398 . S
C1214 H1202 0.950 . S
C1214 C1213 1.398 . S
C1214 C1215 1.391 . S
C1215 H1203 0.950 . S
C1215 C1211 1.393 . S
C1215 C1214 1.391 . S
H1216 C1224 0.950 . S
H1217 C1229 0.950 . S
H1218 C1226 0.950 . S
H1219 C1228 0.950 . S
H1220 C1230 0.950 . S
H1221 C1232 0.950 . S
H1222 C1234 0.950 . S
H1223 C1235 0.950 . S
C1224 H1216 0.950 . S
C1224 C1225 1.386 1_655 S
C1224 C1226 1.391 . S
C1225 C1224 1.386 1_455 S
C1225 C1229 1.393 . S
C1226 H1218 0.950 . S
C1226 C1224 1.391 . S
C1226 C1227 1.400 1_655 S
C1227 C1226 1.400 1_455 S
C1227 C1228 1.398 . S
C1227 C1233 1.491 . S
C1228 H1219 0.950 . S
C1228 C1227 1.398 . S
C1228 C1229 1.391 . S
C1229 H1217 0.950 . S
C1229 C1225 1.393 . S
C1229 C1228 1.391 . S
C1230 H1220 0.950 . S
C1230 C1231 1.386 . S
C1230 C1232 1.391 . S
C1231 C1230 1.386 . S
C1231 C1235 1.393 1_455 S
C1232 H1221 0.950 . S
C1232 C1230 1.391 . S
C1232 C1233 1.400 . S
C1233 C1227 1.491 . S
C1233 C1232 1.400 . S
C1233 C1234 1.398 1_455 S
C1234 H1222 0.950 . S
C1234 C1233 1.398 1_655 S
C1234 C1235 1.391 . S
C1235 H1223 0.950 . S
C1235 C1231 1.393 1_655 S
C1235 C1234 1.391 . S
H1236 C1244 0.950 . S
H1237 C1249 0.950 . S
H1238 C1246 0.950 . S
H1239 C1248 0.950 . S
H1240 C1250 0.950 . S
H1241 C1252 0.950 . S
H1242 C1254 0.950 . S
H1243 C1255 0.950 . S
C1244 H1236 0.950 . S
C1244 C1245 1.386 . S
C1244 C1246 1.391 . S
C1245 C1244 1.386 . S
C1245 C1249 1.393 . S
C1246 H1238 0.950 . S
C1246 C1244 1.391 . S
C1246 C1247 1.400 . S
C1247 C1246 1.400 . S
C1247 C1248 1.398 . S
C1247 C1253 1.491 . S
C1248 H1239 0.950 . S
C1248 C1247 1.398 . S
C1248 C1249 1.391 . S
C1249 H1237 0.950 . S
C1249 C1245 1.393 . S
C1249 C1248 1.391 . S
C1250 H1240 0.950 . S
C1250 C1251 1.386 . S
C1250 C1252 1.391 . S
C1251 C1250 1.386 . S
C1251 C1255 1.393 . S
C1252 H1241 0.950 . S
C1252 C1250 1.391 . S
C1252 C1253 1.400 . S
C1253 C1247 1.491 . S
C1253 C1252 1.400 . S
C1253 C1254 1.398 . S
C1254 H1242 0.950 . S
C1254 C1253 1.398 . S
C1254 C1255 1.391 . S
C1255 H1243 0.950 . S
C1255 C1251 1.393 . S
C1255 C1254 1.391 . S
H1256 C1264 0.950 . S
H1257 C1269 0.950 . S
H1258 C1266 0.950 . S
H1259 C1268 0.950 . S
H1260 C1270 0.950 . S
H1261 C1272 0.950 . S
H1262 C1274 0.950 . S
H1263 C1275 0.950 1_554 S
C1264 H1256 0.950 . S
C1264 C1265 1.386 . S
C1264 C1266 1.391 . S
C1265 C1264 1.386 . S
C1265 C1269 1.393 . S
C1266 H1258 0.950 . S
C1266 C1264 1.391 . S
C1266 C1267 1.400 . S
C1267 C1266 1.400 . S
C1267 C1268 1.398 . S
C1267 C1273 1.491 . S
C1268 H1259 0.950 . S
C1268 C1267 1.398 . S
C1268 C1269 1.391 . S
C1269 H1257 0.950 . S
C1269 C1265 1.393 . S
C1269 C1268 1.391 . S
C1270 H1260 0.950 . S
C1270 C1271 1.386 . S
C1270 C1272 1.391 . S
C1271 C1270 1.386 . S
C1271 C1275 1.393 . S
C1272 H1261 0.950 . S
C1272 C1270 1.391 . S
C1272 C1273 1.400 . S
C1273 C1267 1.491 . S
C1273 C1272 1.400 . S
C1273 C1274 1.398 . S
C1274 H1262 0.950 . S
C1274 C1273 1.398 . S
C1274 C1275 1.391 . S
C1275 H1263 0.950 1_556 S
C1275 C1271 1.393 . S
C1275 C1274 1.391 . S
H1276 C1284 0.950 . S
H1277 C1289 0.950 . S
H1278 C1286 0.950 . S
H1279 C1288 0.950 . S
H1280 C1290 0.950 . S
H1281 C1292 0.950 . S
H1282 C1294 0.950 . S
H1283 C1295 0.950 . S
C1284 H1276 0.950 . S
C1284 C1285 1.386 . S
C1284 C1286 1.391 . S
C1285 C1284 1.386 . S
C1285 C1289 1.393 . S
C1286 H1278 0.950 . S
C1286 C1284 1.391 . S
C1286 C1287 1.400 . S
C1287 C1286 1.400 . S
C1287 C1288 1.398 . S
C1287 C1293 1.491 . S
C1288 H1279 0.950 . S
C1288 C1287 1.398 . S
C1288 C1289 1.391 . S
C1289 H1277 0.950 . S
C1289 C1285 1.393 . S
C1289 C1288 1.391 . S
C1290 H1280 0.950 . S
C1290 C1291 1.386 . S
C1290 C1292 1.391 . S
C1291 C1290 1.386 . S
C1291 C1295 1.393 . S
C1292 H1281 0.950 . S
C1292 C1290 1.391 . S
C1292 C1293 1.400 . S
C1293 C1287 1.491 . S
C1293 C1292 1.400 . S
C1293 C1294 1.398 . S
C1294 H1282 0.950 . S
C1294 C1293 1.398 . S
C1294 C1295 1.391 . S
C1295 H1283 0.950 . S
C1295 C1291 1.393 . S
C1295 C1294 1.391 . S
H1296 C1304 0.950 . S
H1297 C1309 0.950 . S
H1298 C1306 0.950 . S
H1299 C1308 0.950 . S
H1300 C1310 0.950 . S
H1301 C1312 0.950 . S
H1302 C1314 0.950 . S
H1303 C1315 0.950 . S
C1304 H1296 0.950 . S
C1304 C1305 1.386 . S
C1304 C1306 1.391 . S
C1305 C1304 1.386 . S
C1305 C1309 1.393 1_545 S
C1306 H1298 0.950 . S
C1306 C1304 1.391 . S
C1306 C1307 1.400 . S
C1307 C1306 1.400 . S
C1307 C1308 1.398 1_545 S
C1307 C1313 1.491 . S
C1308 H1299 0.950 . S
C1308 C1307 1.398 1_565 S
C1308 C1309 1.391 . S
C1309 H1297 0.950 . S
C1309 C1305 1.393 1_565 S
C1309 C1308 1.391 . S
C1310 H1300 0.950 . S
C1310 C1311 1.386 1_565 S
C1310 C1312 1.391 . S
C1311 C1310 1.386 1_545 S
C1311 C1315 1.393 . S
C1312 H1301 0.950 . S
C1312 C1310 1.391 . S
C1312 C1313 1.400 1_565 S
C1313 C1307 1.491 . S
C1313 C1312 1.400 1_545 S
C1313 C1314 1.398 . S
C1314 H1302 0.950 . S
C1314 C1313 1.398 . S
C1314 C1315 1.391 . S
C1315 H1303 0.950 . S
C1315 C1311 1.393 . S
C1315 C1314 1.391 . S
H1316 C1324 0.950 . S
H1317 C1329 0.950 . S
H1318 C1326 0.950 . S
H1319 C1328 0.950 . S
H1320 C1330 0.950 . S
H1321 C1332 0.950 . S
H1322 C1334 0.950 . S
H1323 C1335 0.950 . S
C1324 H1316 0.950 . S
C1324 C1325 1.386 . S
C1324 C1326 1.391 . S
C1325 C1324 1.386 . S
C1325 C1329 1.393 . S
C1326 H1318 0.950 . S
C1326 C1324 1.391 . S
C1326 C1327 1.400 . S
C1327 C1326 1.400 . S
C1327 C1328 1.398 . S
C1327 C1333 1.491 . S
C1328 H1319 0.950 . S
C1328 C1327 1.398 . S
C1328 C1329 1.391 . S
C1329 H1317 0.950 . S
C1329 C1325 1.393 . S
C1329 C1328 1.391 . S
C1330 H1320 0.950 . S
C1330 C1331 1.386 . S
C1330 C1332 1.391 . S
C1331 C1330 1.386 . S
C1331 C1335 1.393 . S
C1332 H1321 0.950 . S
C1332 C1330 1.391 . S
C1332 C1333 1.400 . S
C1333 C1327 1.491 . S
C1333 C1332 1.400 . S
C1333 C1334 1.398 . S
C1334 H1322 0.950 . S
C1334 C1333 1.398 . S
C1334 C1335 1.391 . S
C1335 H1323 0.950 . S
C1335 C1331 1.393 . S
C1335 C1334 1.391 . S
H1336 C1344 0.950 . S
H1337 C1349 0.950 . S
H1338 C1346 0.950 . S
H1339 C1348 0.950 . S
H1340 C1350 0.950 . S
H1341 C1352 0.950 . S
H1342 C1354 0.950 . S
H1343 C1355 0.950 . S
C1344 H1336 0.950 . S
C1344 C1345 1.386 . S
C1344 C1346 1.391 . S
C1345 C1344 1.386 . S
C1345 C1349 1.393 . S
C1346 H1338 0.950 . S
C1346 C1344 1.391 . S
C1346 C1347 1.400 . S
C1347 C1346 1.400 . S
C1347 C1348 1.398 . S
C1347 C1353 1.491 . S
C1348 H1339 0.950 . S
C1348 C1347 1.398 . S
C1348 C1349 1.391 . S
C1349 H1337 0.950 . S
C1349 C1345 1.393 . S
C1349 C1348 1.391 . S
C1350 H1340 0.950 . S
C1350 C1351 1.386 . S
C1350 C1352 1.391 . S
C1351 C1350 1.386 . S
C1351 C1355 1.393 . S
C1352 H1341 0.950 . S
C1352 C1350 1.391 . S
C1352 C1353 1.400 . S
C1353 C1347 1.491 . S
C1353 C1352 1.400 . S
C1353 C1354 1.398 . S
C1354 H1342 0.950 . S
C1354 C1353 1.398 . S
C1354 C1355 1.391 . S
C1355 H1343 0.950 . S
C1355 C1351 1.393 . S
C1355 C1354 1.391 . S
H1356 C1364 0.950 . S
H1357 C1369 0.950 . S
H1358 C1366 0.950 . S
H1359 C1368 0.950 . S
H1360 C1370 0.950 . S
H1361 C1372 0.950 . S
H1362 C1374 0.950 . S
H1363 C1375 0.950 . S
C1364 H1356 0.950 . S
C1364 C1365 1.386 . S
C1364 C1366 1.391 . S
C1365 C1364 1.386 . S
C1365 C1369 1.393 . S
C1366 H1358 0.950 . S
C1366 C1364 1.391 . S
C1366 C1367 1.400 . S
C1367 C1366 1.400 . S
C1367 C1368 1.398 . S
C1367 C1373 1.491 . S
C1368 H1359 0.950 . S
C1368 C1367 1.398 . S
C1368 C1369 1.391 . S
C1369 H1357 0.950 . S
C1369 C1365 1.393 . S
C1369 C1368 1.391 . S
C1370 H1360 0.950 . S
C1370 C1371 1.386 . S
C1370 C1372 1.391 . S
C1371 C1370 1.386 . S
C1371 C1375 1.393 . S
C1372 H1361 0.950 . S
C1372 C1370 1.391 . S
C1372 C1373 1.400 . S
C1373 C1367 1.491 . S
C1373 C1372 1.400 . S
C1373 C1374 1.398 . S
C1374 H1362 0.950 . S
C1374 C1373 1.398 . S
C1374 C1375 1.391 . S
C1375 H1363 0.950 . S
C1375 C1371 1.393 . S
C1375 C1374 1.391 . S
H1376 C1384 0.950 . S
H1377 C1389 0.950 . S
H1378 C1386 0.950 . S
H1379 C1388 0.950 . S
H1380 C1390 0.951 1_565 S
H1381 C1392 0.950 . S
H1382 C1394 0.950 . S
H1383 C1395 0.950 . S
C1384 H1376 0.950 . S
C1384 C1385 1.386 1_545 S
C1384 C1386 1.391 . S
C1385 C1384 1.386 1_565 S
C1385 C1389 1.393 . S
C1386 H1378 0.950 . S
C1386 C1384 1.391 . S
C1386 C1387 1.400 . S
C1387 C1386 1.400 . S
C1387 C1388 1.398 1_545 S
C1387 C1393 1.491 . S
C1388 H1379 0.950 . S
C1388 C1387 1.398 1_565 S
C1388 C1389 1.391 . S
C1389 H1377 0.950 . S
C1389 C1385 1.393 . S
C1389 C1388 1.391 . S
C1390 H1380 0.951 1_545 S
C1390 C1391 1.383 . S
C1390 C1392 1.392 1_545 S
C1391 C1390 1.383 . S
C1391 C1395 1.393 . S
C1392 H1381 0.950 . S
C1392 C1390 1.392 1_565 S
C1392 C1393 1.400 1_565 S
C1393 C1387 1.491 . S
C1393 C1392 1.400 1_545 S
C1393 C1394 1.398 . S
C1394 H1382 0.950 . S
C1394 C1393 1.398 . S
C1394 C1395 1.391 . S
C1395 H1383 0.950 . S
C1395 C1391 1.393 . S
C1395 C1394 1.391 . S
H1396 C1404 0.950 . S
H1397 C1409 0.950 . S
H1398 C1406 0.950 . S
H1399 C1408 0.950 . S
H1400 C1410 0.950 . S
H1401 C1412 0.950 . S
H1402 C1414 0.950 . S
H1403 C1415 0.950 . S
C1404 H1396 0.950 . S
C1404 C1405 1.386 . S
C1404 C1406 1.391 . S
C1405 C1404 1.386 . S
C1405 C1409 1.393 . S
C1406 H1398 0.950 . S
C1406 C1404 1.391 . S
C1406 C1407 1.400 . S
C1407 C1406 1.400 . S
C1407 C1408 1.398 . S
C1407 C1413 1.491 . S
C1408 H1399 0.950 . S
C1408 C1407 1.398 . S
C1408 C1409 1.391 . S
C1409 H1397 0.950 . S
C1409 C1405 1.393 . S
C1409 C1408 1.391 . S
C1410 H1400 0.950 . S
C1410 C1411 1.386 . S
C1410 C1412 1.391 . S
C1411 C1410 1.386 . S
C1411 C1415 1.393 . S
C1412 H1401 0.950 . S
C1412 C1410 1.391 . S
C1412 C1413 1.400 . S
C1413 C1407 1.491 . S
C1413 C1412 1.400 . S
C1413 C1414 1.398 . S
C1414 H1402 0.950 . S
C1414 C1413 1.398 . S
C1414 C1415 1.391 . S
C1415 H1403 0.950 . S
C1415 C1411 1.393 . S
C1415 C1414 1.391 . S
H1416 C1424 0.950 . S
H1417 C1429 0.950 1_565 S
H1418 C1426 0.950 . S
H1419 C1428 0.950 . S
H1420 C1430 0.950 . S
H1421 C1432 0.950 . S
H1422 C1434 0.950 . S
H1423 C1435 0.950 . S
C1424 H1416 0.950 . S
C1424 C1425 1.386 . S
C1424 C1426 1.391 . S
C1425 C1424 1.386 . S
C1425 C1429 1.393 . S
C1426 H1418 0.950 . S
C1426 C1424 1.391 . S
C1426 C1427 1.400 . S
C1427 C1426 1.400 . S
C1427 C1428 1.398 1_545 S
C1427 C1433 1.491 . S
C1428 H1419 0.950 . S
C1428 C1427 1.398 1_565 S
C1428 C1429 1.391 1_565 S
C1429 H1417 0.950 1_545 S
C1429 C1425 1.393 . S
C1429 C1428 1.391 1_545 S
C1430 H1420 0.950 . S
C1430 C1431 1.386 1_565 S
C1430 C1432 1.391 . S
C1431 C1430 1.386 1_545 S
C1431 C1435 1.393 . S
C1432 H1421 0.950 . S
C1432 C1430 1.391 . S
C1432 C1433 1.400 1_565 S
C1433 C1427 1.491 . S
C1433 C1432 1.400 1_545 S
C1433 C1434 1.398 . S
C1434 H1422 0.950 . S
C1434 C1433 1.398 . S
C1434 C1435 1.391 . S
C1435 H1423 0.950 . S
C1435 C1431 1.393 . S
C1435 C1434 1.391 . S
H1436 C1444 0.950 . S
H1437 C1449 0.950 . S
H1438 C1446 0.950 . S
H1439 C1448 0.950 . S
H1440 C1450 0.950 . S
H1441 C1452 0.950 . S
H1442 C1454 0.950 . S
H1443 C1455 0.950 . S
C1444 H1436 0.950 . S
C1444 C1445 1.386 . S
C1444 C1446 1.391 . S
C1445 C1444 1.386 . S
C1445 C1449 1.393 . S
C1446 H1438 0.950 . S
C1446 C1444 1.391 . S
C1446 C1447 1.400 . S
C1447 C1446 1.400 . S
C1447 C1448 1.398 . S
C1447 C1453 1.491 . S
C1448 H1439 0.950 . S
C1448 C1447 1.398 . S
C1448 C1449 1.391 . S
C1449 H1437 0.950 . S
C1449 C1445 1.393 . S
C1449 C1448 1.391 . S
C1450 H1440 0.950 . S
C1450 C1451 1.386 . S
C1450 C1452 1.391 . S
C1451 C1450 1.386 . S
C1451 C1455 1.393 . S
C1452 H1441 0.950 . S
C1452 C1450 1.391 . S
C1452 C1453 1.400 . S
C1453 C1447 1.491 . S
C1453 C1452 1.400 . S
C1453 C1454 1.398 . S
C1454 H1442 0.950 . S
C1454 C1453 1.398 . S
C1454 C1455 1.391 . S
C1455 H1443 0.950 . S
C1455 C1451 1.393 . S
C1455 C1454 1.391 . S
H1456 C1464 0.950 . S
H1457 C1469 0.950 . S
H1458 C1466 0.950 . S
H1459 C1468 0.950 . S
H1460 C1470 0.952 . S
H1461 C1472 0.950 1_554 S
H1462 C1474 0.950 . S
H1463 C1475 0.950 . S
C1464 H1456 0.950 . S
C1464 C1465 1.390 . S
C1464 C1466 1.391 . S
C1465 C1464 1.390 . S
C1465 C1469 1.391 1_556 S
C1466 H1458 0.950 . S
C1466 C1464 1.391 . S
C1466 C1467 1.400 . S
C1467 C1466 1.400 . S
C1467 C1468 1.398 1_556 S
C1467 C1473 1.491 . S
C1468 H1459 0.950 . S
C1468 C1467 1.398 1_554 S
C1468 C1469 1.391 . S
C1469 H1457 0.950 . S
C1469 C1465 1.391 1_554 S
C1469 C1468 1.391 . S
C1470 H1460 0.952 . S
C1470 C1471 1.386 . S
C1470 C1472 1.391 . S
C1471 C1470 1.386 . S
C1471 C1475 1.393 . S
C1472 H1461 0.950 1_556 S
C1472 C1470 1.391 . S
C1472 C1473 1.400 . S
C1473 C1467 1.491 . S
C1473 C1472 1.400 . S
C1473 C1474 1.398 . S
C1474 H1462 0.950 . S
C1474 C1473 1.398 . S
C1474 C1475 1.391 . S
C1475 H1463 0.950 . S
C1475 C1471 1.393 . S
C1475 C1474 1.391 . S
H1476 C1484 0.950 . S
H1477 C1489 0.929 1_556 S
H1478 C1486 0.950 . S
H1479 C1488 0.950 1_556 S
H1480 C1490 0.950 . S
H1481 C1492 0.952 1_556 S
H1482 C1494 0.950 . S
H1483 C1495 0.950 . S
C1484 H1476 0.950 . S
C1484 C1485 1.386 . S
C1484 C1486 1.391 . S
C1485 C1484 1.386 . S
C1485 C1489 1.419 . S
C1486 H1478 0.950 . S
C1486 C1484 1.391 . S
C1486 C1487 1.400 . S
C1487 C1486 1.400 . S
C1487 C1488 1.398 . S
C1487 C1493 1.491 . S
C1488 H1479 0.950 1_554 S
C1488 C1487 1.398 . S
C1488 C1489 1.387 . S
C1489 H1477 0.929 1_554 S
C1489 C1485 1.419 . S
C1489 C1488 1.387 . S
C1490 H1480 0.950 . S
C1490 C1491 1.385 1_556 S
C1490 C1492 1.392 1_556 S
C1491 C1490 1.385 1_554 S
C1491 C1495 1.393 . S
C1492 H1481 0.952 1_554 S
C1492 C1490 1.392 1_554 S
C1492 C1493 1.397 . S
C1493 C1487 1.491 . S
C1493 C1492 1.397 . S
C1493 C1494 1.398 . S
C1494 H1482 0.950 . S
C1494 C1493 1.398 . S
C1494 C1495 1.391 . S
C1495 H1483 0.950 . S
C1495 C1491 1.393 . S
C1495 C1494 1.391 . S
H1496 C1504 0.950 . S
H1497 C1509 0.950 . S
H1498 C1506 0.950 . S
H1499 C1508 0.950 . S
H1500 C1510 0.950 . S
H1501 C1512 0.950 . S
H1502 C1514 0.950 . S
H1503 C1515 0.950 . S
C1504 H1496 0.950 . S
C1504 C1505 1.386 . S
C1504 C1506 1.391 . S
C1505 C1504 1.386 . S
C1505 C1509 1.393 . S
C1506 H1498 0.950 . S
C1506 C1504 1.391 . S
C1506 C1507 1.400 . S
C1507 C1506 1.400 . S
C1507 C1508 1.398 . S
C1507 C1513 1.491 . S
C1508 H1499 0.950 . S
C1508 C1507 1.398 . S
C1508 C1509 1.391 . S
C1509 H1497 0.950 . S
C1509 C1505 1.393 . S
C1509 C1508 1.391 . S
C1510 H1500 0.950 . S
C1510 C1511 1.386 . S
C1510 C1512 1.391 . S
C1511 C1510 1.386 . S
C1511 C1515 1.393 . S
C1512 H1501 0.950 . S
C1512 C1510 1.391 . S
C1512 C1513 1.400 . S
C1513 C1507 1.491 . S
C1513 C1512 1.400 . S
C1513 C1514 1.398 . S
C1514 H1502 0.950 . S
C1514 C1513 1.398 . S
C1514 C1515 1.391 . S
C1515 H1503 0.950 . S
C1515 C1511 1.393 . S
C1515 C1514 1.391 . S
H1516 C1524 0.950 . S
H1517 C1529 0.950 . S
H1518 C1526 0.950 . S
H1519 C1528 0.950 . S
H1520 C1530 0.950 . S
H1521 C1532 0.950 . S
H1522 C1534 0.950 . S
H1523 C1535 0.950 . S
C1524 H1516 0.950 . S
C1524 C1525 1.386 . S
C1524 C1526 1.391 . S
C1525 C1524 1.386 . S
C1525 C1529 1.393 . S
C1526 H1518 0.950 . S
C1526 C1524 1.391 . S
C1526 C1527 1.400 . S
C1527 C1526 1.400 . S
C1527 C1528 1.398 . S
C1527 C1533 1.491 . S
C1528 H1519 0.950 . S
C1528 C1527 1.398 . S
C1528 C1529 1.391 . S
C1529 H1517 0.950 . S
C1529 C1525 1.393 . S
C1529 C1528 1.391 . S
C1530 H1520 0.950 . S
C1530 C1531 1.386 . S
C1530 C1532 1.391 . S
C1531 C1530 1.386 . S
C1531 C1535 1.393 . S
C1532 H1521 0.950 . S
C1532 C1530 1.391 . S
C1532 C1533 1.400 . S
C1533 C1527 1.491 . S
C1533 C1532 1.400 . S
C1533 C1534 1.398 . S
C1534 H1522 0.950 . S
C1534 C1533 1.398 . S
C1534 C1535 1.391 . S
C1535 H1523 0.950 . S
C1535 C1531 1.393 . S
C1535 C1534 1.391 . S
H1536 C1544 0.950 . S
H1537 C1549 0.950 . S
H1538 C1546 0.950 . S
H1539 C1548 0.950 . S
H1540 C1550 0.950 . S
H1541 C1552 0.950 . S
H1542 C1554 0.950 . S
H1543 C1555 0.950 . S
C1544 H1536 0.950 . S
C1544 C1545 1.386 . S
C1544 C1546 1.391 . S
C1545 C1544 1.386 . S
C1545 C1549 1.393 . S
C1546 H1538 0.950 . S
C1546 C1544 1.391 . S
C1546 C1547 1.400 . S
C1547 C1546 1.400 . S
C1547 C1548 1.398 . S
C1547 C1553 1.491 . S
C1548 H1539 0.950 . S
C1548 C1547 1.398 . S
C1548 C1549 1.391 . S
C1549 H1537 0.950 . S
C1549 C1545 1.393 . S
C1549 C1548 1.391 . S
C1550 H1540 0.950 . S
C1550 C1551 1.386 . S
C1550 C1552 1.391 . S
C1551 C1550 1.386 . S
C1551 C1555 1.393 . S
C1552 H1541 0.950 . S
C1552 C1550 1.391 . S
C1552 C1553 1.400 . S
C1553 C1547 1.491 . S
C1553 C1552 1.400 . S
C1553 C1554 1.398 . S
C1554 H1542 0.950 . S
C1554 C1553 1.398 . S
C1554 C1555 1.391 . S
C1555 H1543 0.950 . S
C1555 C1551 1.393 . S
C1555 C1554 1.391 . S
H1556 C1564 0.950 . S
H1557 C1569 0.950 . S
H1558 C1566 0.950 . S
H1559 C1568 0.950 . S
H1560 C1570 0.950 . S
H1561 C1572 0.950 . S
H1562 C1574 0.950 . S
H1563 C1575 0.950 . S
C1564 H1556 0.950 . S
C1564 C1565 1.386 . S
C1564 C1566 1.391 . S
C1565 C1564 1.386 . S
C1565 C1569 1.393 . S
C1566 H1558 0.950 . S
C1566 C1564 1.391 . S
C1566 C1567 1.400 . S
C1567 C1566 1.400 . S
C1567 C1568 1.398 . S
C1567 C1573 1.491 . S
C1568 H1559 0.950 . S
C1568 C1567 1.398 . S
C1568 C1569 1.391 . S
C1569 H1557 0.950 . S
C1569 C1565 1.393 . S
C1569 C1568 1.391 . S
C1570 H1560 0.950 . S
C1570 C1571 1.386 . S
C1570 C1572 1.391 . S
C1571 C1570 1.386 . S
C1571 C1575 1.393 . S
C1572 H1561 0.950 . S
C1572 C1570 1.391 . S
C1572 C1573 1.400 . S
C1573 C1567 1.491 . S
C1573 C1572 1.400 . S
C1573 C1574 1.398 . S
C1574 H1562 0.950 . S
C1574 C1573 1.398 . S
C1574 C1575 1.391 . S
C1575 H1563 0.950 . S
C1575 C1571 1.393 . S
C1575 C1574 1.391 . S
H1576 C1584 0.950 . S
H1577 C1589 0.950 . S
H1578 C1586 0.950 . S
H1579 C1588 0.950 . S
H1580 C1590 0.950 . S
H1581 C1592 0.950 . S
H1582 C1594 0.950 . S
H1583 C1595 0.950 . S
C1584 H1576 0.950 . S
C1584 C1585 1.386 . S
C1584 C1586 1.391 . S
C1585 C1584 1.386 . S
C1585 C1589 1.393 . S
C1586 H1578 0.950 . S
C1586 C1584 1.391 . S
C1586 C1587 1.400 . S
C1587 C1586 1.400 . S
C1587 C1588 1.398 . S
C1587 C1593 1.491 . S
C1588 H1579 0.950 . S
C1588 C1587 1.398 . S
C1588 C1589 1.391 . S
C1589 H1577 0.950 . S
C1589 C1585 1.393 . S
C1589 C1588 1.391 . S
C1590 H1580 0.950 . S
C1590 C1591 1.386 . S
C1590 C1592 1.391 . S
C1591 C1590 1.386 . S
C1591 C1595 1.393 . S
C1592 H1581 0.950 . S
C1592 C1590 1.391 . S
C1592 C1593 1.400 . S
C1593 C1587 1.491 . S
C1593 C1592 1.400 . S
C1593 C1594 1.398 . S
C1594 H1582 0.950 . S
C1594 C1593 1.398 . S
C1594 C1595 1.391 . S
C1595 H1583 0.950 . S
C1595 C1591 1.393 . S
C1595 C1594 1.391 . S
H1596 C1604 0.950 . S
H1597 C1609 0.950 . S
H1598 C1606 0.950 . S
H1599 C1608 0.950 . S
H1600 C1610 0.950 . S
H1601 C1612 0.950 . S
H1602 C1614 0.950 . S
H1603 C1615 0.950 . S
C1604 H1596 0.950 . S
C1604 C1605 1.386 . S
C1604 C1606 1.391 . S
C1605 C1604 1.386 . S
C1605 C1609 1.393 . S
C1606 H1598 0.950 . S
C1606 C1604 1.391 . S
C1606 C1607 1.400 . S
C1607 C1606 1.400 . S
C1607 C1608 1.398 . S
C1607 C1613 1.491 . S
C1608 H1599 0.950 . S
C1608 C1607 1.398 . S
C1608 C1609 1.391 . S
C1609 H1597 0.950 . S
C1609 C1605 1.393 . S
C1609 C1608 1.391 . S
C1610 H1600 0.950 . S
C1610 C1611 1.386 . S
C1610 C1612 1.391 . S
C1611 C1610 1.386 . S
C1611 C1615 1.393 . S
C1612 H1601 0.950 . S
C1612 C1610 1.391 . S
C1612 C1613 1.400 . S
C1613 C1607 1.491 . S
C1613 C1612 1.400 . S
C1613 C1614 1.398 . S
C1614 H1602 0.950 . S
C1614 C1613 1.398 . S
C1614 C1615 1.391 . S
C1615 H1603 0.950 . S
C1615 C1611 1.393 . S
C1615 C1614 1.391 . S
H1616 C1624 0.950 . S
H1617 C1629 0.950 . S
H1618 C1626 0.950 . S
H1619 C1628 0.950 . S
H1620 C1630 0.950 . S
H1621 C1632 0.950 . S
H1622 C1634 0.950 . S
H1623 C1635 0.950 . S
C1624 H1616 0.950 . S
C1624 C1625 1.386 . S
C1624 C1626 1.391 . S
C1625 C1624 1.386 . S
C1625 C1629 1.393 . S
C1626 H1618 0.950 . S
C1626 C1624 1.391 . S
C1626 C1627 1.400 . S
C1627 C1626 1.400 . S
C1627 C1628 1.398 . S
C1627 C1633 1.491 . S
C1628 H1619 0.950 . S
C1628 C1627 1.398 . S
C1628 C1629 1.391 . S
C1629 H1617 0.950 . S
C1629 C1625 1.393 . S
C1629 C1628 1.391 . S
C1630 H1620 0.950 . S
C1630 C1631 1.386 . S
C1630 C1632 1.391 . S
C1631 C1630 1.386 . S
C1631 C1635 1.393 . S
C1632 H1621 0.950 . S
C1632 C1630 1.391 . S
C1632 C1633 1.400 . S
C1633 C1627 1.491 . S
C1633 C1632 1.400 . S
C1633 C1634 1.398 . S
C1634 H1622 0.950 . S
C1634 C1633 1.398 . S
C1634 C1635 1.391 . S
C1635 H1623 0.950 . S
C1635 C1631 1.393 . S
C1635 C1634 1.391 . S
H1636 C1644 0.950 . S
H1637 C1649 0.950 . S
H1638 C1646 0.950 . S
H1639 C1648 0.950 . S
H1640 C1650 0.950 . S
H1641 C1652 0.950 . S
H1642 C1654 0.950 . S
H1643 C1655 0.950 . S
C1644 H1636 0.950 . S
C1644 C1645 1.386 . S
C1644 C1646 1.391 . S
C1645 C1644 1.386 . S
C1645 C1649 1.393 . S
C1646 H1638 0.950 . S
C1646 C1644 1.391 . S
C1646 C1647 1.400 . S
C1647 C1646 1.400 . S
C1647 C1648 1.398 . S
C1647 C1653 1.491 . S
C1648 H1639 0.950 . S
C1648 C1647 1.398 . S
C1648 C1649 1.391 . S
C1649 H1637 0.950 . S
C1649 C1645 1.393 . S
C1649 C1648 1.391 . S
C1650 H1640 0.950 . S
C1650 C1651 1.386 . S
C1650 C1652 1.391 . S
C1651 C1650 1.386 . S
C1651 C1655 1.393 . S
C1652 H1641 0.950 . S
C1652 C1650 1.391 . S
C1652 C1653 1.400 . S
C1653 C1647 1.491 . S
C1653 C1652 1.400 . S
C1653 C1654 1.398 . S
C1654 H1642 0.950 . S
C1654 C1653 1.398 . S
C1654 C1655 1.391 . S
C1655 H1643 0.950 . S
C1655 C1651 1.393 . S
C1655 C1654 1.391 . S
H1656 C1664 0.950 . S
H1657 C1669 0.950 . S
H1658 C1666 0.950 . S
H1659 C1668 0.950 . S
H1660 C1670 0.950 1_554 S
H1661 C1672 0.950 . S
H1662 C1674 0.950 . S
H1663 C1675 0.950 . S
C1664 H1656 0.950 . S
C1664 C1665 1.386 . S
C1664 C1666 1.391 . S
C1665 C1664 1.386 . S
C1665 C1669 1.393 1_455 S
C1666 H1658 0.950 . S
C1666 C1664 1.391 . S
C1666 C1667 1.400 . S
C1667 C1666 1.400 . S
C1667 C1668 1.398 1_455 S
C1667 C1673 1.491 . S
C1668 H1659 0.950 . S
C1668 C1667 1.398 1_655 S
C1668 C1669 1.391 . S
C1669 H1657 0.950 . S
C1669 C1665 1.393 1_655 S
C1669 C1668 1.391 . S
C1670 H1660 0.950 1_556 S
C1670 C1671 1.386 1_655 S
C1670 C1672 1.391 . S
C1671 C1670 1.386 1_455 S
C1671 C1675 1.393 . S
C1672 H1661 0.950 . S
C1672 C1670 1.391 . S
C1672 C1673 1.400 1_655 S
C1673 C1667 1.491 . S
C1673 C1672 1.400 1_455 S
C1673 C1674 1.398 . S
C1674 H1662 0.950 . S
C1674 C1673 1.398 . S
C1674 C1675 1.391 . S
C1675 H1663 0.950 . S
C1675 C1671 1.393 . S
C1675 C1674 1.391 . S
H1676 C1684 0.950 . S
H1677 C1689 0.950 . S
H1678 C1686 0.950 . S
H1679 C1688 0.950 . S
H1680 C1690 0.950 . S
H1681 C1692 0.950 . S
H1682 C1694 0.950 . S
H1683 C1695 0.950 . S
C1684 H1676 0.950 . S
C1684 C1685 1.386 . S
C1684 C1686 1.391 . S
C1685 C1684 1.386 . S
C1685 C1689 1.393 . S
C1686 H1678 0.950 . S
C1686 C1684 1.391 . S
C1686 C1687 1.400 . S
C1687 C1686 1.400 . S
C1687 C1688 1.398 . S
C1687 C1693 1.491 . S
C1688 H1679 0.950 . S
C1688 C1687 1.398 . S
C1688 C1689 1.391 . S
C1689 H1677 0.950 . S
C1689 C1685 1.393 . S
C1689 C1688 1.391 . S
C1690 H1680 0.950 . S
C1690 C1691 1.386 . S
C1690 C1692 1.391 . S
C1691 C1690 1.386 . S
C1691 C1695 1.393 . S
C1692 H1681 0.950 . S
C1692 C1690 1.391 . S
C1692 C1693 1.400 . S
C1693 C1687 1.491 . S
C1693 C1692 1.400 . S
C1693 C1694 1.398 . S
C1694 H1682 0.950 . S
C1694 C1693 1.398 . S
C1694 C1695 1.391 . S
C1695 H1683 0.950 . S
C1695 C1691 1.393 . S
C1695 C1694 1.391 . S
H1696 C1704 0.950 . S
H1697 C1709 0.950 . S
H1698 C1706 0.950 . S
H1699 C1708 0.950 . S
H1700 C1710 0.950 . S
H1701 C1712 0.950 . S
H1702 C1714 0.950 . S
H1703 C1715 0.950 . S
C1704 H1696 0.950 . S
C1704 C1705 1.386 . S
C1704 C1706 1.391 . S
C1705 C1704 1.386 . S
C1705 C1709 1.393 . S
C1706 H1698 0.950 . S
C1706 C1704 1.391 . S
C1706 C1707 1.400 . S
C1707 C1706 1.400 . S
C1707 C1708 1.398 . S
C1707 C1713 1.491 . S
C1708 H1699 0.950 . S
C1708 C1707 1.398 . S
C1708 C1709 1.391 . S
C1709 H1697 0.950 . S
C1709 C1705 1.393 . S
C1709 C1708 1.391 . S
C1710 H1700 0.950 . S
C1710 C1711 1.386 . S
C1710 C1712 1.391 . S
C1711 C1710 1.386 . S
C1711 C1715 1.393 . S
C1712 H1701 0.950 . S
C1712 C1710 1.391 . S
C1712 C1713 1.400 . S
C1713 C1707 1.491 . S
C1713 C1712 1.400 . S
C1713 C1714 1.398 . S
C1714 H1702 0.950 . S
C1714 C1713 1.398 . S
C1714 C1715 1.391 . S
C1715 H1703 0.950 . S
C1715 C1711 1.393 . S
C1715 C1714 1.391 . S
H1716 C1724 0.950 . S
H1717 C1729 0.950 . S
H1718 C1726 0.950 . S
H1719 C1728 0.950 . S
H1720 C1730 0.950 . S
H1721 C1732 0.950 . S
H1722 C1734 0.950 . S
H1723 C1735 0.950 . S
C1724 H1716 0.950 . S
C1724 C1725 1.386 . S
C1724 C1726 1.391 . S
C1725 C1724 1.386 . S
C1725 C1729 1.393 . S
C1726 H1718 0.950 . S
C1726 C1724 1.391 . S
C1726 C1727 1.400 . S
C1727 C1726 1.400 . S
C1727 C1728 1.398 . S
C1727 C1733 1.491 . S
C1728 H1719 0.950 . S
C1728 C1727 1.398 . S
C1728 C1729 1.391 . S
C1729 H1717 0.950 . S
C1729 C1725 1.393 . S
C1729 C1728 1.391 . S
C1730 H1720 0.950 . S
C1730 C1731 1.386 . S
C1730 C1732 1.391 . S
C1731 C1730 1.386 . S
C1731 C1735 1.393 . S
C1732 H1721 0.950 . S
C1732 C1730 1.391 . S
C1732 C1733 1.400 . S
C1733 C1727 1.491 . S
C1733 C1732 1.400 . S
C1733 C1734 1.398 . S
C1734 H1722 0.950 . S
C1734 C1733 1.398 . S
C1734 C1735 1.391 . S
C1735 H1723 0.950 . S
C1735 C1731 1.393 . S
C1735 C1734 1.391 . S
H1736 C1744 0.950 . S
H1737 C1749 0.950 . S
H1738 C1746 0.950 . S
H1739 C1748 0.950 . S
H1740 C1750 0.950 . S
H1741 C1752 0.950 . S
H1742 C1754 0.950 . S
H1743 C1755 0.950 . S
C1744 H1736 0.950 . S
C1744 C1745 1.386 . S
C1744 C1746 1.391 . S
C1745 C1744 1.386 . S
C1745 C1749 1.393 1_455 S
C1746 H1738 0.950 . S
C1746 C1744 1.391 . S
C1746 C1747 1.400 . S
C1747 C1746 1.400 . S
C1747 C1748 1.398 1_455 S
C1747 C1753 1.491 . S
C1748 H1739 0.950 . S
C1748 C1747 1.398 1_655 S
C1748 C1749 1.391 . S
C1749 H1737 0.950 . S
C1749 C1745 1.393 1_655 S
C1749 C1748 1.391 . S
C1750 H1740 0.950 . S
C1750 C1751 1.386 1_655 S
C1750 C1752 1.391 . S
C1751 C1750 1.386 1_455 S
C1751 C1755 1.393 . S
C1752 H1741 0.950 . S
C1752 C1750 1.391 . S
C1752 C1753 1.400 1_655 S
C1753 C1747 1.491 . S
C1753 C1752 1.400 1_455 S
C1753 C1754 1.398 . S
C1754 H1742 0.950 . S
C1754 C1753 1.398 . S
C1754 C1755 1.391 . S
C1755 H1743 0.950 . S
C1755 C1751 1.393 . S
C1755 C1754 1.391 . S
H1756 C1764 0.950 . S
H1757 C1769 0.950 . S
H1758 C1766 0.950 . S
H1759 C1768 0.950 . S
H1760 C1770 0.950 . S
H1761 C1772 0.950 . S
H1762 C1774 0.950 . S
H1763 C1775 0.950 . S
C1764 H1756 0.950 . S
C1764 C1765 1.386 . S
C1764 C1766 1.391 . S
C1765 C1764 1.386 . S
C1765 C1769 1.393 . S
C1766 H1758 0.950 . S
C1766 C1764 1.391 . S
C1766 C1767 1.400 . S
C1767 C1766 1.400 . S
C1767 C1768 1.398 . S
C1767 C1773 1.491 . S
C1768 H1759 0.950 . S
C1768 C1767 1.398 . S
C1768 C1769 1.391 . S
C1769 H1757 0.950 . S
C1769 C1765 1.393 . S
C1769 C1768 1.391 . S
C1770 H1760 0.950 . S
C1770 C1771 1.386 . S
C1770 C1772 1.391 . S
C1771 C1770 1.386 . S
C1771 C1775 1.393 . S
C1772 H1761 0.950 . S
C1772 C1770 1.391 . S
C1772 C1773 1.400 . S
C1773 C1767 1.491 . S
C1773 C1772 1.400 . S
C1773 C1774 1.398 . S
C1774 H1762 0.950 . S
C1774 C1773 1.398 . S
C1774 C1775 1.391 . S
C1775 H1763 0.950 . S
C1775 C1771 1.393 . S
C1775 C1774 1.391 . S
H1776 C1784 0.950 . S
H1777 C1789 0.950 . S
H1778 C1786 0.950 . S
H1779 C1788 0.950 . S
H1780 C1790 0.950 . S
H1781 C1792 0.950 . S
H1782 C1794 0.950 . S
H1783 C1795 0.950 . S
C1784 H1776 0.950 . S
C1784 C1785 1.386 . S
C1784 C1786 1.391 . S
C1785 C1784 1.386 . S
C1785 C1789 1.393 . S
C1786 H1778 0.950 . S
C1786 C1784 1.391 . S
C1786 C1787 1.400 . S
C1787 C1786 1.400 . S
C1787 C1788 1.398 . S
C1787 C1793 1.491 . S
C1788 H1779 0.950 . S
C1788 C1787 1.398 . S
C1788 C1789 1.391 . S
C1789 H1777 0.950 . S
C1789 C1785 1.393 . S
C1789 C1788 1.391 . S
C1790 H1780 0.950 . S
C1790 C1791 1.386 . S
C1790 C1792 1.391 . S
C1791 C1790 1.386 . S
C1791 C1795 1.393 . S
C1792 H1781 0.950 . S
C1792 C1790 1.391 . S
C1792 C1793 1.400 . S
C1793 C1787 1.491 . S
C1793 C1792 1.400 . S
C1793 C1794 1.398 . S
C1794 H1782 0.950 . S
C1794 C1793 1.398 . S
C1794 C1795 1.391 . S
C1795 H1783 0.950 . S
C1795 C1791 1.393 . S
C1795 C1794 1.391 . S
H1796 C1804 0.950 . S
H1797 C1809 0.950 . S
H1798 C1806 0.950 . S
H1799 C1808 0.950 . S
H1800 C1810 0.950 . S
H1801 C1812 0.950 . S
H1802 C1814 0.950 . S
H1803 C1815 0.950 . S
C1804 H1796 0.950 . S
C1804 C1805 1.386 . S
C1804 C1806 1.391 . S
C1805 C1804 1.386 . S
C1805 C1809 1.393 . S
C1806 H1798 0.950 . S
C1806 C1804 1.391 . S
C1806 C1807 1.400 . S
C1807 C1806 1.400 . S
C1807 C1808 1.398 . S
C1807 C1813 1.491 . S
C1808 H1799 0.950 . S
C1808 C1807 1.398 . S
C1808 C1809 1.391 . S
C1809 H1797 0.950 . S
C1809 C1805 1.393 . S
C1809 C1808 1.391 . S
C1810 H1800 0.950 . S
C1810 C1811 1.386 . S
C1810 C1812 1.391 . S
C1811 C1810 1.386 . S
C1811 C1815 1.393 . S
C1812 H1801 0.950 . S
C1812 C1810 1.391 . S
C1812 C1813 1.400 . S
C1813 C1807 1.491 . S
C1813 C1812 1.400 . S
C1813 C1814 1.398 . S
C1814 H1802 0.950 . S
C1814 C1813 1.398 . S
C1814 C1815 1.391 . S
C1815 H1803 0.950 . S
C1815 C1811 1.393 . S
C1815 C1814 1.391 . S
H1816 C1824 0.950 . S
H1817 C1829 0.950 . S
H1818 C1826 0.950 . S
H1819 C1828 0.950 . S
H1820 C1830 0.950 . S
H1821 C1832 0.950 . S
H1822 C1834 0.950 . S
H1823 C1835 0.950 . S
C1824 H1816 0.950 . S
C1824 C1825 1.386 . S
C1824 C1826 1.391 . S
C1825 C1824 1.386 . S
C1825 C1829 1.393 . S
C1826 H1818 0.950 . S
C1826 C1824 1.391 . S
C1826 C1827 1.400 . S
C1827 C1826 1.400 . S
C1827 C1828 1.398 . S
C1827 C1833 1.491 . S
C1828 H1819 0.950 . S
C1828 C1827 1.398 . S
C1828 C1829 1.391 . S
C1829 H1817 0.950 . S
C1829 C1825 1.393 . S
C1829 C1828 1.391 . S
C1830 H1820 0.950 . S
C1830 C1831 1.386 . S
C1830 C1832 1.391 . S
C1831 C1830 1.386 . S
C1831 C1835 1.393 . S
C1832 H1821 0.950 . S
C1832 C1830 1.391 . S
C1832 C1833 1.400 . S
C1833 C1827 1.491 . S
C1833 C1832 1.400 . S
C1833 C1834 1.398 . S
C1834 H1822 0.950 . S
C1834 C1833 1.398 . S
C1834 C1835 1.391 . S
C1835 H1823 0.950 . S
C1835 C1831 1.393 . S
C1835 C1834 1.391 . S
H1836 C1844 0.950 . S
H1837 C1849 0.950 . S
H1838 C1846 0.950 . S
H1839 C1848 0.950 . S
H1840 C1850 0.950 . S
H1841 C1852 0.950 . S
H1842 C1854 0.950 . S
H1843 C1855 0.950 . S
C1844 H1836 0.950 . S
C1844 C1845 1.386 . S
C1844 C1846 1.391 . S
C1845 C1844 1.386 . S
C1845 C1849 1.393 . S
C1846 H1838 0.950 . S
C1846 C1844 1.391 . S
C1846 C1847 1.400 . S
C1847 C1846 1.400 . S
C1847 C1848 1.398 . S
C1847 C1853 1.491 . S
C1848 H1839 0.950 . S
C1848 C1847 1.398 . S
C1848 C1849 1.391 . S
C1849 H1837 0.950 . S
C1849 C1845 1.393 . S
C1849 C1848 1.391 . S
C1850 H1840 0.950 . S
C1850 C1851 1.386 . S
C1850 C1852 1.391 . S
C1851 C1850 1.386 . S
C1851 C1855 1.393 . S
C1852 H1841 0.950 . S
C1852 C1850 1.391 . S
C1852 C1853 1.400 . S
C1853 C1847 1.491 . S
C1853 C1852 1.400 . S
C1853 C1854 1.398 . S
C1854 H1842 0.950 . S
C1854 C1853 1.398 . S
C1854 C1855 1.391 . S
C1855 H1843 0.950 . S
C1855 C1851 1.393 . S
C1855 C1854 1.391 . S
H1856 C1864 0.950 . S
H1857 C1869 0.950 . S
H1858 C1866 0.950 . S
H1859 C1868 0.950 . S
H1860 C1870 0.950 . S
H1861 C1872 0.950 . S
H1862 C1874 0.950 . S
H1863 C1875 0.950 . S
C1864 H1856 0.950 . S
C1864 C1865 1.386 . S
C1864 C1866 1.391 . S
C1865 C1864 1.386 . S
C1865 C1869 1.393 . S
C1866 H1858 0.950 . S
C1866 C1864 1.391 . S
C1866 C1867 1.400 . S
C1867 C1866 1.400 . S
C1867 C1868 1.398 . S
C1867 C1873 1.491 . S
C1868 H1859 0.950 . S
C1868 C1867 1.398 . S
C1868 C1869 1.391 . S
C1869 H1857 0.950 . S
C1869 C1865 1.393 . S
C1869 C1868 1.391 . S
C1870 H1860 0.950 . S
C1870 C1871 1.386 . S
C1870 C1872 1.391 . S
C1871 C1870 1.386 . S
C1871 C1875 1.393 . S
C1872 H1861 0.950 . S
C1872 C1870 1.391 . S
C1872 C1873 1.400 . S
C1873 C1867 1.491 . S
C1873 C1872 1.400 . S
C1873 C1874 1.398 . S
C1874 H1862 0.950 . S
C1874 C1873 1.398 . S
C1874 C1875 1.391 . S
C1875 H1863 0.950 . S
C1875 C1871 1.393 . S
C1875 C1874 1.391 . S
H1876 C1884 0.950 . S
H1877 C1889 0.950 . S
H1878 C1886 0.950 . S
H1879 C1888 0.950 . S
H1880 C1890 0.950 . S
H1881 C1892 0.950 . S
H1882 C1894 0.950 . S
H1883 C1895 0.950 . S
C1884 H1876 0.950 . S
C1884 C1885 1.386 . S
C1884 C1886 1.391 . S
C1885 C1884 1.386 . S
C1885 C1889 1.393 . S
C1886 H1878 0.950 . S
C1886 C1884 1.391 . S
C1886 C1887 1.400 . S
C1887 C1886 1.400 . S
C1887 C1888 1.398 . S
C1887 C1893 1.491 . S
C1888 H1879 0.950 . S
C1888 C1887 1.398 . S
C1888 C1889 1.391 . S
C1889 H1877 0.950 . S
C1889 C1885 1.393 . S
C1889 C1888 1.391 . S
C1890 H1880 0.950 . S
C1890 C1891 1.386 . S
C1890 C1892 1.391 . S
C1891 C1890 1.386 . S
C1891 C1895 1.393 . S
C1892 H1881 0.950 . S
C1892 C1890 1.391 . S
C1892 C1893 1.400 . S
C1893 C1887 1.491 . S
C1893 C1892 1.400 . S
C1893 C1894 1.398 . S
C1894 H1882 0.950 . S
C1894 C1893 1.398 . S
C1894 C1895 1.391 . S
C1895 H1883 0.950 . S
C1895 C1891 1.393 . S
C1895 C1894 1.391 . S
H1896 C1904 0.950 . S
H1897 C1909 0.950 . S
H1898 C1906 0.950 . S
H1899 C1908 0.950 . S
H1900 C1910 0.950 . S
H1901 C1912 0.950 . S
H1902 C1914 0.950 . S
H1903 C1915 0.950 . S
C1904 H1896 0.950 . S
C1904 C1905 1.386 . S
C1904 C1906 1.391 . S
C1905 C1904 1.386 . S
C1905 C1909 1.393 . S
C1906 H1898 0.950 . S
C1906 C1904 1.391 . S
C1906 C1907 1.400 . S
C1907 C1906 1.400 . S
C1907 C1908 1.398 . S
C1907 C1913 1.491 . S
C1908 H1899 0.950 . S
C1908 C1907 1.398 . S
C1908 C1909 1.391 . S
C1909 H1897 0.950 . S
C1909 C1905 1.393 . S
C1909 C1908 1.391 . S
C1910 H1900 0.950 . S
C1910 C1911 1.386 . S
C1910 C1912 1.391 . S
C1911 C1910 1.386 . S
C1911 C1915 1.393 . S
C1912 H1901 0.950 . S
C1912 C1910 1.391 . S
C1912 C1913 1.400 . S
C1913 C1907 1.491 . S
C1913 C1912 1.400 . S
C1913 C1914 1.398 . S
C1914 H1902 0.950 . S
C1914 C1913 1.398 . S
C1914 C1915 1.391 . S
C1915 H1903 0.950 . S
C1915 C1911 1.393 . S
C1915 C1914 1.391 . S
H1916 C1924 0.950 . S
H1917 C1929 0.950 . S
H1918 C1926 0.950 . S
H1919 C1928 0.950 . S
H1920 C1930 0.950 . S
H1921 C1932 0.950 . S
H1922 C1934 0.950 . S
H1923 C1935 0.950 . S
C1924 H1916 0.950 . S
C1924 C1925 1.386 . S
C1924 C1926 1.391 . S
C1925 C1924 1.386 . S
C1925 C1929 1.393 . S
C1926 H1918 0.950 . S
C1926 C1924 1.391 . S
C1926 C1927 1.400 . S
C1927 C1926 1.400 . S
C1927 C1928 1.398 . S
C1927 C1933 1.491 . S
C1928 H1919 0.950 . S
C1928 C1927 1.398 . S
C1928 C1929 1.391 . S
C1929 H1917 0.950 . S
C1929 C1925 1.393 . S
C1929 C1928 1.391 . S
C1930 H1920 0.950 . S
C1930 C1931 1.386 . S
C1930 C1932 1.391 . S
C1931 C1930 1.386 . S
C1931 C1935 1.393 . S
C1932 H1921 0.950 . S
C1932 C1930 1.391 . S
C1932 C1933 1.400 . S
C1933 C1927 1.491 . S
C1933 C1932 1.400 . S
C1933 C1934 1.398 . S
C1934 H1922 0.950 . S
C1934 C1933 1.398 . S
C1934 C1935 1.391 . S
C1935 H1923 0.950 . S
C1935 C1931 1.393 . S
C1935 C1934 1.391 . S
H1936 C1944 0.950 . S
H1937 C1949 0.950 . S
H1938 C1946 0.950 . S
H1939 C1948 0.950 . S
H1940 C1950 0.950 . S
H1941 C1952 0.950 . S
H1942 C1954 0.950 . S
H1943 C1955 0.950 . S
C1944 H1936 0.950 . S
C1944 C1945 1.386 . S
C1944 C1946 1.391 . S
C1945 C1944 1.386 . S
C1945 C1949 1.393 . S
C1946 H1938 0.950 . S
C1946 C1944 1.391 . S
C1946 C1947 1.400 . S
C1947 C1946 1.400 . S
C1947 C1948 1.398 . S
C1947 C1953 1.491 . S
C1948 H1939 0.950 . S
C1948 C1947 1.398 . S
C1948 C1949 1.391 . S
C1949 H1937 0.950 . S
C1949 C1945 1.393 . S
C1949 C1948 1.391 . S
C1950 H1940 0.950 . S
C1950 C1951 1.386 . S
C1950 C1952 1.391 . S
C1951 C1950 1.386 . S
C1951 C1955 1.393 . S
C1952 H1941 0.950 . S
C1952 C1950 1.391 . S
C1952 C1953 1.400 . S
C1953 C1947 1.491 . S
C1953 C1952 1.400 . S
C1953 C1954 1.398 . S
C1954 H1942 0.950 . S
C1954 C1953 1.398 . S
C1954 C1955 1.391 . S
C1955 H1943 0.950 . S
C1955 C1951 1.393 . S
C1955 C1954 1.391 . S
H1956 C1964 0.950 . S
H1957 C1969 0.950 . S
H1958 C1966 0.950 . S
H1959 C1968 0.950 . S
H1960 C1970 0.950 . S
H1961 C1972 0.950 . S
H1962 C1974 0.950 . S
H1963 C1975 0.950 . S
C1964 H1956 0.950 . S
C1964 C1965 1.386 . S
C1964 C1966 1.391 . S
C1965 C1964 1.386 . S
C1965 C1969 1.393 . S
C1966 H1958 0.950 . S
C1966 C1964 1.391 . S
C1966 C1967 1.400 . S
C1967 C1966 1.400 . S
C1967 C1968 1.398 . S
C1967 C1973 1.491 . S
C1968 H1959 0.950 . S
C1968 C1967 1.398 . S
C1968 C1969 1.391 . S
C1969 H1957 0.950 . S
C1969 C1965 1.393 . S
C1969 C1968 1.391 . S
C1970 H1960 0.950 . S
C1970 C1971 1.386 . S
C1970 C1972 1.391 . S
C1971 C1970 1.386 . S
C1971 C1975 1.393 . S
C1972 H1961 0.950 . S
C1972 C1970 1.391 . S
C1972 C1973 1.400 . S
C1973 C1967 1.491 . S
C1973 C1972 1.400 . S
C1973 C1974 1.398 . S
C1974 H1962 0.950 . S
C1974 C1973 1.398 . S
C1974 C1975 1.391 . S
C1975 H1963 0.950 . S
C1975 C1971 1.393 . S
C1975 C1974 1.391 . S
H1976 C1984 0.950 . S
H1977 C1989 0.950 . S
H1978 C1986 0.950 . S
H1979 C1988 0.950 . S
H1980 C1990 0.950 . S
H1981 C1992 0.950 . S
H1982 C1994 0.950 . S
H1983 C1995 0.950 . S
C1984 H1976 0.950 . S
C1984 C1985 1.386 . S
C1984 C1986 1.391 . S
C1985 C1984 1.386 . S
C1985 C1989 1.393 . S
C1986 H1978 0.950 . S
C1986 C1984 1.391 . S
C1986 C1987 1.400 . S
C1987 C1986 1.400 . S
C1987 C1988 1.398 . S
C1987 C1993 1.491 . S
C1988 H1979 0.950 . S
C1988 C1987 1.398 . S
C1988 C1989 1.391 . S
C1989 H1977 0.950 . S
C1989 C1985 1.393 . S
C1989 C1988 1.391 . S
C1990 H1980 0.950 . S
C1990 C1991 1.386 . S
C1990 C1992 1.391 . S
C1991 C1990 1.386 . S
C1991 C1995 1.393 . S
C1992 H1981 0.950 . S
C1992 C1990 1.391 . S
C1992 C1993 1.400 . S
C1993 C1987 1.491 . S
C1993 C1992 1.400 . S
C1993 C1994 1.398 . S
C1994 H1982 0.950 . S
C1994 C1993 1.398 . S
C1994 C1995 1.391 . S
C1995 H1983 0.950 . S
C1995 C1991 1.393 . S
C1995 C1994 1.391 . S
H1996 C2004 0.950 . S
H1997 C2009 0.950 . S
H1998 C2006 0.950 . S
H1999 C2008 0.950 . S
H2000 C2010 0.950 1_556 S
H2001 C2012 0.950 1_556 S
H2002 C2014 0.950 . S
H2003 C2015 0.950 . S
C2004 H1996 0.950 . S
C2004 C2005 1.386 . S
C2004 C2006 1.391 . S
C2005 C2004 1.386 . S
C2005 C2009 1.393 . S
C2006 H1998 0.950 . S
C2006 C2004 1.391 . S
C2006 C2007 1.400 . S
C2007 C2006 1.400 . S
C2007 C2008 1.398 . S
C2007 C2013 1.491 . S
C2008 H1999 0.950 . S
C2008 C2007 1.398 . S
C2008 C2009 1.391 . S
C2009 H1997 0.950 . S
C2009 C2005 1.393 . S
C2009 C2008 1.391 . S
C2010 H2000 0.950 1_554 S
C2010 C2011 1.386 1_565 S
C2010 C2012 1.391 . S
C2011 C2010 1.386 1_545 S
C2011 C2015 1.393 . S
C2012 H2001 0.950 1_554 S
C2012 C2010 1.391 . S
C2012 C2013 1.400 . S
C2013 C2007 1.491 . S
C2013 C2012 1.400 . S
C2013 C2014 1.398 1_565 S
C2014 H2002 0.950 . S
C2014 C2013 1.398 1_545 S
C2014 C2015 1.391 . S
C2015 H2003 0.950 . S
C2015 C2011 1.393 . S
C2015 C2014 1.391 . S
H2016 C2024 0.950 . S
H2017 C2029 0.950 . S
H2018 C2026 0.950 . S
H2019 C2028 0.950 . S
H2020 C2030 0.950 . S
H2021 C2032 0.950 . S
H2022 C2034 0.950 . S
H2023 C2035 0.950 . S
C2024 H2016 0.950 . S
C2024 C2025 1.386 . S
C2024 C2026 1.391 . S
C2025 C2024 1.386 . S
C2025 C2029 1.393 . S
C2026 H2018 0.950 . S
C2026 C2024 1.391 . S
C2026 C2027 1.400 . S
C2027 C2026 1.400 . S
C2027 C2028 1.398 . S
C2027 C2033 1.491 . S
C2028 H2019 0.950 . S
C2028 C2027 1.398 . S
C2028 C2029 1.391 . S
C2029 H2017 0.950 . S
C2029 C2025 1.393 . S
C2029 C2028 1.391 . S
C2030 H2020 0.950 . S
C2030 C2031 1.386 . S
C2030 C2032 1.391 . S
C2031 C2030 1.386 . S
C2031 C2035 1.393 . S
C2032 H2021 0.950 . S
C2032 C2030 1.391 . S
C2032 C2033 1.400 . S
C2033 C2027 1.491 . S
C2033 C2032 1.400 . S
C2033 C2034 1.398 . S
C2034 H2022 0.950 . S
C2034 C2033 1.398 . S
C2034 C2035 1.391 . S
C2035 H2023 0.950 . S
C2035 C2031 1.393 . S
C2035 C2034 1.391 . S
H2036 C2044 0.950 1_556 S
H2037 C2049 0.950 . S
H2038 C2046 0.950 1_556 S
H2039 C2048 0.950 . S
H2040 C2050 0.950 . S
H2041 C2052 0.950 . S
H2042 C2054 0.950 . S
H2043 C2055 0.950 . S
C2044 H2036 0.950 1_554 S
C2044 C2045 1.386 . S
C2044 C2046 1.391 . S
C2045 C2044 1.386 . S
C2045 C2049 1.393 . S
C2046 H2038 0.950 1_554 S
C2046 C2044 1.391 . S
C2046 C2047 1.400 . S
C2047 C2046 1.400 . S
C2047 C2048 1.398 . S
C2047 C2053 1.491 . S
C2048 H2039 0.950 . S
C2048 C2047 1.398 . S
C2048 C2049 1.391 . S
C2049 H2037 0.950 . S
C2049 C2045 1.393 . S
C2049 C2048 1.391 . S
C2050 H2040 0.950 . S
C2050 C2051 1.386 . S
C2050 C2052 1.391 . S
C2051 C2050 1.386 . S
C2051 C2055 1.393 . S
C2052 H2041 0.950 . S
C2052 C2050 1.391 . S
C2052 C2053 1.400 . S
C2053 C2047 1.491 . S
C2053 C2052 1.400 . S
C2053 C2054 1.398 . S
C2054 H2042 0.950 . S
C2054 C2053 1.398 . S
C2054 C2055 1.391 . S
C2055 H2043 0.950 . S
C2055 C2051 1.393 . S
C2055 C2054 1.391 . S
H2056 C2064 0.950 . S
H2057 C2069 0.950 . S
H2058 C2066 0.950 . S
H2059 C2068 0.950 . S
H2060 C2070 0.950 . S
H2061 C2072 0.950 . S
H2062 C2074 0.950 . S
H2063 C2075 0.950 . S
C2064 H2056 0.950 . S
C2064 C2065 1.386 . S
C2064 C2066 1.391 . S
C2065 C2064 1.386 . S
C2065 C2069 1.393 . S
C2066 H2058 0.950 . S
C2066 C2064 1.391 . S
C2066 C2067 1.400 . S
C2067 C2066 1.400 . S
C2067 C2068 1.398 . S
C2067 C2073 1.491 . S
C2068 H2059 0.950 . S
C2068 C2067 1.398 . S
C2068 C2069 1.391 . S
C2069 H2057 0.950 . S
C2069 C2065 1.393 . S
C2069 C2068 1.391 . S
C2070 H2060 0.950 . S
C2070 C2071 1.386 . S
C2070 C2072 1.391 . S
C2071 C2070 1.386 . S
C2071 C2075 1.393 . S
C2072 H2061 0.950 . S
C2072 C2070 1.391 . S
C2072 C2073 1.400 . S
C2073 C2067 1.491 . S
C2073 C2072 1.400 . S
C2073 C2074 1.398 . S
C2074 H2062 0.950 . S
C2074 C2073 1.398 . S
C2074 C2075 1.391 . S
C2075 H2063 0.950 . S
C2075 C2071 1.393 . S
C2075 C2074 1.391 . S
H2076 C2084 0.950 . S
H2077 C2089 0.950 . S
H2078 C2086 0.950 . S
H2079 C2088 0.950 . S
H2080 C2090 0.950 . S
H2081 C2092 0.950 . S
H2082 C2094 0.950 . S
H2083 C2095 0.950 . S
C2084 H2076 0.950 . S
C2084 C2085 1.386 . S
C2084 C2086 1.391 . S
C2085 C2084 1.386 . S
C2085 C2089 1.393 . S
C2086 H2078 0.950 . S
C2086 C2084 1.391 . S
C2086 C2087 1.400 . S
C2087 C2086 1.400 . S
C2087 C2088 1.398 . S
C2087 C2093 1.491 . S
C2088 H2079 0.950 . S
C2088 C2087 1.398 . S
C2088 C2089 1.391 . S
C2089 H2077 0.950 . S
C2089 C2085 1.393 . S
C2089 C2088 1.391 . S
C2090 H2080 0.950 . S
C2090 C2091 1.386 . S
C2090 C2092 1.391 . S
C2091 C2090 1.386 . S
C2091 C2095 1.393 . S
C2092 H2081 0.950 . S
C2092 C2090 1.391 . S
C2092 C2093 1.400 . S
C2093 C2087 1.491 . S
C2093 C2092 1.400 . S
C2093 C2094 1.398 . S
C2094 H2082 0.950 . S
C2094 C2093 1.398 . S
C2094 C2095 1.391 . S
C2095 H2083 0.950 . S
C2095 C2091 1.393 . S
C2095 C2094 1.391 . S
H2096 C2104 0.950 . S
H2097 C2109 0.950 . S
H2098 C2106 0.950 . S
H2099 C2108 0.950 . S
H2100 C2110 0.950 . S
H2101 C2112 0.950 . S
H2102 C2114 0.950 . S
H2103 C2115 0.950 . S
C2104 H2096 0.950 . S
C2104 C2105 1.386 . S
C2104 C2106 1.391 . S
C2105 C2104 1.386 . S
C2105 C2109 1.393 . S
C2106 H2098 0.950 . S
C2106 C2104 1.391 . S
C2106 C2107 1.400 . S
C2107 C2106 1.400 . S
C2107 C2108 1.398 . S
C2107 C2113 1.491 . S
C2108 H2099 0.950 . S
C2108 C2107 1.398 . S
C2108 C2109 1.391 . S
C2109 H2097 0.950 . S
C2109 C2105 1.393 . S
C2109 C2108 1.391 . S
C2110 H2100 0.950 . S
C2110 C2111 1.386 . S
C2110 C2112 1.391 . S
C2111 C2110 1.386 . S
C2111 C2115 1.393 . S
C2112 H2101 0.950 . S
C2112 C2110 1.391 . S
C2112 C2113 1.400 . S
C2113 C2107 1.491 . S
C2113 C2112 1.400 . S
C2113 C2114 1.398 . S
C2114 H2102 0.950 . S
C2114 C2113 1.398 . S
C2114 C2115 1.391 . S
C2115 H2103 0.950 . S
C2115 C2111 1.393 . S
C2115 C2114 1.391 . S
H2116 C2124 0.950 . S
H2117 C2129 0.950 . S
H2118 C2126 0.950 . S
H2119 C2128 0.950 . S
H2120 C2130 0.950 . S
H2121 C2132 0.950 . S
H2122 C2134 0.950 . S
H2123 C2135 0.950 . S
C2124 H2116 0.950 . S
C2124 C2125 1.386 . S
C2124 C2126 1.391 . S
C2125 C2124 1.386 . S
C2125 C2129 1.393 . S
C2126 H2118 0.950 . S
C2126 C2124 1.391 . S
C2126 C2127 1.400 . S
C2127 C2126 1.400 . S
C2127 C2128 1.398 . S
C2127 C2133 1.491 . S
C2128 H2119 0.950 . S
C2128 C2127 1.398 . S
C2128 C2129 1.391 . S
C2129 H2117 0.950 . S
C2129 C2125 1.393 . S
C2129 C2128 1.391 . S
C2130 H2120 0.950 . S
C2130 C2131 1.386 . S
C2130 C2132 1.391 . S
C2131 C2130 1.386 . S
C2131 C2135 1.393 . S
C2132 H2121 0.950 . S
C2132 C2130 1.391 . S
C2132 C2133 1.400 . S
C2133 C2127 1.491 . S
C2133 C2132 1.400 . S
C2133 C2134 1.398 . S
C2134 H2122 0.950 . S
C2134 C2133 1.398 . S
C2134 C2135 1.391 . S
C2135 H2123 0.950 . S
C2135 C2131 1.393 . S
C2135 C2134 1.391 . S
H2136 C2144 0.950 . S
H2137 C2149 0.950 . S
H2138 C2146 0.950 . S
H2139 C2148 0.950 . S
H2140 C2150 0.950 1_556 S
H2141 C2152 0.950 . S
H2142 C2154 0.950 . S
H2143 C2155 0.950 . S
C2144 H2136 0.950 . S
C2144 C2145 1.386 . S
C2144 C2146 1.391 . S
C2145 C2144 1.386 . S
C2145 C2149 1.393 . S
C2146 H2138 0.950 . S
C2146 C2144 1.391 . S
C2146 C2147 1.400 . S
C2147 C2146 1.400 . S
C2147 C2148 1.398 . S
C2147 C2153 1.491 . S
C2148 H2139 0.950 . S
C2148 C2147 1.398 . S
C2148 C2149 1.391 . S
C2149 H2137 0.950 . S
C2149 C2145 1.393 . S
C2149 C2148 1.391 . S
C2150 H2140 0.950 1_554 S
C2150 C2151 1.386 . S
C2150 C2152 1.391 . S
C2151 C2150 1.386 . S
C2151 C2155 1.393 . S
C2152 H2141 0.950 . S
C2152 C2150 1.391 . S
C2152 C2153 1.400 . S
C2153 C2147 1.491 . S
C2153 C2152 1.400 . S
C2153 C2154 1.398 . S
C2154 H2142 0.950 . S
C2154 C2153 1.398 . S
C2154 C2155 1.391 . S
C2155 H2143 0.950 . S
C2155 C2151 1.393 . S
C2155 C2154 1.391 . S
H2156 C2164 0.950 . S
H2157 C2169 0.950 . S
H2158 C2166 0.950 . S
H2159 C2168 0.950 . S
H2160 C2170 0.950 . S
H2161 C2172 0.950 . S
H2162 C2174 0.950 . S
H2163 C2175 0.950 . S
C2164 H2156 0.950 . S
C2164 C2165 1.386 . S
C2164 C2166 1.391 . S
C2165 C2164 1.386 . S
C2165 C2169 1.393 . S
C2166 H2158 0.950 . S
C2166 C2164 1.391 . S
C2166 C2167 1.400 . S
C2167 C2166 1.400 . S
C2167 C2168 1.398 . S
C2167 C2173 1.491 . S
C2168 H2159 0.950 . S
C2168 C2167 1.398 . S
C2168 C2169 1.391 . S
C2169 H2157 0.950 . S
C2169 C2165 1.393 . S
C2169 C2168 1.391 . S
C2170 H2160 0.950 . S
C2170 C2171 1.386 . S
C2170 C2172 1.391 . S
C2171 C2170 1.386 . S
C2171 C2175 1.393 . S
C2172 H2161 0.950 . S
C2172 C2170 1.391 . S
C2172 C2173 1.400 . S
C2173 C2167 1.491 . S
C2173 C2172 1.400 . S
C2173 C2174 1.398 . S
C2174 H2162 0.950 . S
C2174 C2173 1.398 . S
C2174 C2175 1.391 . S
C2175 H2163 0.950 . S
C2175 C2171 1.393 . S
C2175 C2174 1.391 . S
H2176 C2184 0.950 . S
H2177 C2189 0.950 . S
H2178 C2186 0.950 . S
H2179 C2188 0.950 . S
H2180 C2190 0.950 . S
H2181 C2192 0.950 . S
H2182 C2194 0.950 . S
H2183 C2195 0.950 1_554 S
C2184 H2176 0.950 . S
C2184 C2185 1.386 . S
C2184 C2186 1.391 . S
C2185 C2184 1.386 . S
C2185 C2189 1.393 . S
C2186 H2178 0.950 . S
C2186 C2184 1.391 . S
C2186 C2187 1.400 . S
C2187 C2186 1.400 . S
C2187 C2188 1.398 . S
C2187 C2193 1.491 . S
C2188 H2179 0.950 . S
C2188 C2187 1.398 . S
C2188 C2189 1.391 . S
C2189 H2177 0.950 . S
C2189 C2185 1.393 . S
C2189 C2188 1.391 . S
C2190 H2180 0.950 . S
C2190 C2191 1.386 . S
C2190 C2192 1.391 . S
C2191 C2190 1.386 . S
C2191 C2195 1.393 . S
C2192 H2181 0.950 . S
C2192 C2190 1.391 . S
C2192 C2193 1.400 . S
C2193 C2187 1.491 . S
C2193 C2192 1.400 . S
C2193 C2194 1.398 . S
C2194 H2182 0.950 . S
C2194 C2193 1.398 . S
C2194 C2195 1.391 . S
C2195 H2183 0.950 1_556 S
C2195 C2191 1.393 . S
C2195 C2194 1.391 . S
H2196 C2204 0.950 . S
H2197 C2209 0.950 . S
H2198 C2206 0.950 . S
H2199 C2208 0.950 . S
H2200 C2210 0.950 . S
H2201 C2212 0.950 . S
H2202 C2214 0.950 . S
H2203 C2215 0.950 . S
C2204 H2196 0.950 . S
C2204 C2205 1.386 . S
C2204 C2206 1.391 . S
C2205 C2204 1.386 . S
C2205 C2209 1.393 . S
C2206 H2198 0.950 . S
C2206 C2204 1.391 . S
C2206 C2207 1.400 . S
C2207 C2206 1.400 . S
C2207 C2208 1.398 . S
C2207 C2213 1.491 . S
C2208 H2199 0.950 . S
C2208 C2207 1.398 . S
C2208 C2209 1.391 . S
C2209 H2197 0.950 . S
C2209 C2205 1.393 . S
C2209 C2208 1.391 . S
C2210 H2200 0.950 . S
C2210 C2211 1.386 . S
C2210 C2212 1.391 . S
C2211 C2210 1.386 . S
C2211 C2215 1.393 . S
C2212 H2201 0.950 . S
C2212 C2210 1.391 . S
C2212 C2213 1.400 . S
C2213 C2207 1.491 . S
C2213 C2212 1.400 . S
C2213 C2214 1.398 . S
C2214 H2202 0.950 . S
C2214 C2213 1.398 . S
C2214 C2215 1.391 . S
C2215 H2203 0.950 . S
C2215 C2211 1.393 . S
C2215 C2214 1.391 . S
H2216 C2224 0.950 . S
H2217 C2229 0.950 1_655 S
H2218 C2226 0.950 . S
H2219 C2228 0.950 1_655 S
H2220 C2230 0.962 . S
H2221 C2232 0.927 1_655 S
H2222 C2234 0.950 . S
H2223 C2235 0.950 . S
C2224 H2216 0.950 . S
C2224 C2225 1.386 . S
C2224 C2226 1.391 . S
C2225 C2224 1.386 . S
C2225 C2229 1.393 . S
C2226 H2218 0.950 . S
C2226 C2224 1.391 . S
C2226 C2227 1.400 . S
C2227 C2226 1.400 . S
C2227 C2228 1.398 . S
C2227 C2233 1.491 . S
C2228 H2219 0.950 1_455 S
C2228 C2227 1.398 . S
C2228 C2229 1.391 . S
C2229 H2217 0.950 1_455 S
C2229 C2225 1.393 . S
C2229 C2228 1.391 . S
C2230 H2220 0.962 . S
C2230 C2231 1.376 1_655 S
C2230 C2232 1.382 1_655 S
C2231 C2230 1.376 1_455 S
C2231 C2235 1.393 . S
C2232 H2221 0.927 1_455 S
C2232 C2230 1.382 1_455 S
C2232 C2233 1.430 . S
C2233 C2227 1.491 . S
C2233 C2232 1.430 . S
C2233 C2234 1.398 . S
C2234 H2222 0.950 . S
C2234 C2233 1.398 . S
C2234 C2235 1.391 . S
C2235 H2223 0.950 . S
C2235 C2231 1.393 . S
C2235 C2234 1.391 . S
H2236 C2244 0.950 . S
H2237 C2249 0.950 . S
H2238 C2246 0.950 . S
H2239 C2248 0.950 . S
H2240 C2250 0.950 . S
H2241 C2252 0.950 . S
H2242 C2254 0.950 . S
H2243 C2255 0.950 . S
C2244 H2236 0.950 . S
C2244 C2245 1.386 . S
C2244 C2246 1.391 . S
C2245 C2244 1.386 . S
C2245 C2249 1.393 . S
C2246 H2238 0.950 . S
C2246 C2244 1.391 . S
C2246 C2247 1.400 . S
C2247 C2246 1.400 . S
C2247 C2248 1.398 . S
C2247 C2253 1.491 . S
C2248 H2239 0.950 . S
C2248 C2247 1.398 . S
C2248 C2249 1.391 . S
C2249 H2237 0.950 . S
C2249 C2245 1.393 . S
C2249 C2248 1.391 . S
C2250 H2240 0.950 . S
C2250 C2251 1.386 . S
C2250 C2252 1.391 . S
C2251 C2250 1.386 . S
C2251 C2255 1.393 . S
C2252 H2241 0.950 . S
C2252 C2250 1.391 . S
C2252 C2253 1.400 . S
C2253 C2247 1.491 . S
C2253 C2252 1.400 . S
C2253 C2254 1.398 . S
C2254 H2242 0.950 . S
C2254 C2253 1.398 . S
C2254 C2255 1.391 . S
C2255 H2243 0.950 . S
C2255 C2251 1.393 . S
C2255 C2254 1.391 . S
H2256 C2264 0.950 . S
H2257 C2269 0.950 . S
H2258 C2266 0.950 . S
H2259 C2268 0.950 . S
H2260 C2270 0.950 . S
H2261 C2272 0.950 . S
H2262 C2274 0.950 . S
H2263 C2275 0.950 . S
C2264 H2256 0.950 . S
C2264 C2265 1.386 . S
C2264 C2266 1.391 . S
C2265 C2264 1.386 . S
C2265 C2269 1.393 . S
C2266 H2258 0.950 . S
C2266 C2264 1.391 . S
C2266 C2267 1.400 . S
C2267 C2266 1.400 . S
C2267 C2268 1.398 . S
C2267 C2273 1.491 . S
C2268 H2259 0.950 . S
C2268 C2267 1.398 . S
C2268 C2269 1.391 . S
C2269 H2257 0.950 . S
C2269 C2265 1.393 . S
C2269 C2268 1.391 . S
C2270 H2260 0.950 . S
C2270 C2271 1.386 . S
C2270 C2272 1.391 . S
C2271 C2270 1.386 . S
C2271 C2275 1.393 . S
C2272 H2261 0.950 . S
C2272 C2270 1.391 . S
C2272 C2273 1.400 . S
C2273 C2267 1.491 . S
C2273 C2272 1.400 . S
C2273 C2274 1.398 . S
C2274 H2262 0.950 . S
C2274 C2273 1.398 . S
C2274 C2275 1.391 . S
C2275 H2263 0.950 . S
C2275 C2271 1.393 . S
C2275 C2274 1.391 . S
H2276 C2284 0.950 . S
H2277 C2289 0.950 . S
H2278 C2286 0.950 . S
H2279 C2288 0.950 . S
H2280 C2290 0.950 . S
H2281 C2292 0.950 . S
H2282 C2294 0.950 . S
H2283 C2295 0.950 . S
C2284 H2276 0.950 . S
C2284 C2285 1.386 . S
C2284 C2286 1.391 . S
C2285 C2284 1.386 . S
C2285 C2289 1.393 . S
C2286 H2278 0.950 . S
C2286 C2284 1.391 . S
C2286 C2287 1.400 . S
C2287 C2286 1.400 . S
C2287 C2288 1.398 . S
C2287 C2293 1.491 . S
C2288 H2279 0.950 . S
C2288 C2287 1.398 . S
C2288 C2289 1.391 . S
C2289 H2277 0.950 . S
C2289 C2285 1.393 . S
C2289 C2288 1.391 . S
C2290 H2280 0.950 . S
C2290 C2291 1.386 . S
C2290 C2292 1.391 . S
C2291 C2290 1.386 . S
C2291 C2295 1.393 . S
C2292 H2281 0.950 . S
C2292 C2290 1.391 . S
C2292 C2293 1.400 . S
C2293 C2287 1.491 . S
C2293 C2292 1.400 . S
C2293 C2294 1.398 . S
C2294 H2282 0.950 . S
C2294 C2293 1.398 . S
C2294 C2295 1.391 . S
C2295 H2283 0.950 . S
C2295 C2291 1.393 . S
C2295 C2294 1.391 . S
H2296 C2304 0.950 . S
H2297 C2309 0.950 . S
H2298 C2306 0.950 . S
H2299 C2308 0.950 . S
H2300 C2310 0.950 1_455 S
H2301 C2312 0.950 . S
H2302 C2314 0.950 . S
H2303 C2315 0.950 . S
C2304 H2296 0.950 . S
C2304 C2305 1.386 . S
C2304 C2306 1.391 . S
C2305 C2304 1.386 . S
C2305 C2309 1.393 . S
C2306 H2298 0.950 . S
C2306 C2304 1.391 . S
C2306 C2307 1.400 . S
C2307 C2306 1.400 . S
C2307 C2308 1.398 . S
C2307 C2313 1.491 . S
C2308 H2299 0.950 . S
C2308 C2307 1.398 . S
C2308 C2309 1.391 . S
C2309 H2297 0.950 . S
C2309 C2305 1.393 . S
C2309 C2308 1.391 . S
C2310 H2300 0.950 1_655 S
C2310 C2311 1.386 . S
C2310 C2312 1.391 . S
C2311 C2310 1.386 . S
C2311 C2315 1.393 . S
C2312 H2301 0.950 . S
C2312 C2310 1.391 . S
C2312 C2313 1.400 . S
C2313 C2307 1.491 . S
C2313 C2312 1.400 . S
C2313 C2314 1.398 . S
C2314 H2302 0.950 . S
C2314 C2313 1.398 . S
C2314 C2315 1.391 . S
C2315 H2303 0.950 . S
C2315 C2311 1.393 . S
C2315 C2314 1.391 . S
H2316 C2324 0.950 . S
H2317 C2329 0.950 . S
H2318 C2326 0.950 . S
H2319 C2328 0.950 . S
H2320 C2330 0.950 . S
H2321 C2332 0.950 . S
H2322 C2334 0.950 . S
H2323 C2335 0.950 . S
C2324 H2316 0.950 . S
C2324 C2325 1.386 . S
C2324 C2326 1.391 . S
C2325 C2324 1.386 . S
C2325 C2329 1.393 . S
C2326 H2318 0.950 . S
C2326 C2324 1.391 . S
C2326 C2327 1.400 . S
C2327 C2326 1.400 . S
C2327 C2328 1.398 . S
C2327 C2333 1.491 . S
C2328 H2319 0.950 . S
C2328 C2327 1.398 . S
C2328 C2329 1.391 . S
C2329 H2317 0.950 . S
C2329 C2325 1.393 . S
C2329 C2328 1.391 . S
C2330 H2320 0.950 . S
C2330 C2331 1.386 . S
C2330 C2332 1.391 . S
C2331 C2330 1.386 . S
C2331 C2335 1.393 . S
C2332 H2321 0.950 . S
C2332 C2330 1.391 . S
C2332 C2333 1.400 . S
C2333 C2327 1.491 . S
C2333 C2332 1.400 . S
C2333 C2334 1.398 . S
C2334 H2322 0.950 . S
C2334 C2333 1.398 . S
C2334 C2335 1.391 . S
C2335 H2323 0.950 . S
C2335 C2331 1.393 . S
C2335 C2334 1.391 . S
H2336 C2344 0.950 . S
H2337 C2349 0.950 . S
H2338 C2346 0.950 . S
H2339 C2348 0.950 . S
H2340 C2350 0.950 . S
H2341 C2352 0.950 . S
H2342 C2354 0.950 . S
H2343 C2355 0.950 . S
C2344 H2336 0.950 . S
C2344 C2345 1.386 . S
C2344 C2346 1.391 . S
C2345 C2344 1.386 . S
C2345 C2349 1.393 . S
C2346 H2338 0.950 . S
C2346 C2344 1.391 . S
C2346 C2347 1.400 . S
C2347 C2346 1.400 . S
C2347 C2348 1.398 . S
C2347 C2353 1.491 . S
C2348 H2339 0.950 . S
C2348 C2347 1.398 . S
C2348 C2349 1.391 . S
C2349 H2337 0.950 . S
C2349 C2345 1.393 . S
C2349 C2348 1.391 . S
C2350 H2340 0.950 . S
C2350 C2351 1.386 . S
C2350 C2352 1.391 . S
C2351 C2350 1.386 . S
C2351 C2355 1.393 . S
C2352 H2341 0.950 . S
C2352 C2350 1.391 . S
C2352 C2353 1.400 . S
C2353 C2347 1.491 . S
C2353 C2352 1.400 . S
C2353 C2354 1.398 . S
C2354 H2342 0.950 . S
C2354 C2353 1.398 . S
C2354 C2355 1.391 . S
C2355 H2343 0.950 . S
C2355 C2351 1.393 . S
C2355 C2354 1.391 . S
H2356 C2364 0.950 . S
H2357 C2369 0.950 . S
H2358 C2366 0.950 . S
H2359 C2368 0.950 . S
H2360 C2370 0.950 . S
H2361 C2372 0.950 . S
H2362 C2374 0.950 . S
H2363 C2375 0.950 . S
C2364 H2356 0.950 . S
C2364 C2365 1.386 . S
C2364 C2366 1.391 . S
C2365 C2364 1.386 . S
C2365 C2369 1.393 . S
C2366 H2358 0.950 . S
C2366 C2364 1.391 . S
C2366 C2367 1.400 . S
C2367 C2366 1.400 . S
C2367 C2368 1.398 . S
C2367 C2373 1.491 . S
C2368 H2359 0.950 . S
C2368 C2367 1.398 . S
C2368 C2369 1.391 . S
C2369 H2357 0.950 . S
C2369 C2365 1.393 . S
C2369 C2368 1.391 . S
C2370 H2360 0.950 . S
C2370 C2371 1.386 . S
C2370 C2372 1.391 . S
C2371 C2370 1.386 . S
C2371 C2375 1.393 . S
C2372 H2361 0.950 . S
C2372 C2370 1.391 . S
C2372 C2373 1.400 . S
C2373 C2367 1.491 . S
C2373 C2372 1.400 . S
C2373 C2374 1.398 . S
C2374 H2362 0.950 . S
C2374 C2373 1.398 . S
C2374 C2375 1.391 . S
C2375 H2363 0.950 . S
C2375 C2371 1.393 . S
C2375 C2374 1.391 . S
H2376 C2384 0.950 . S
H2377 C2389 0.950 . S
H2378 C2386 0.950 . S
H2379 C2388 0.950 . S
H2380 C2390 0.950 . S
H2381 C2392 0.950 . S
H2382 C2394 0.950 . S
H2383 C2395 0.950 1_455 S
C2384 H2376 0.950 . S
C2384 C2385 1.386 . S
C2384 C2386 1.391 . S
C2385 C2384 1.386 . S
C2385 C2389 1.393 . S
C2386 H2378 0.950 . S
C2386 C2384 1.391 . S
C2386 C2387 1.400 . S
C2387 C2386 1.400 . S
C2387 C2388 1.398 . S
C2387 C2393 1.491 . S
C2388 H2379 0.950 . S
C2388 C2387 1.398 . S
C2388 C2389 1.391 . S
C2389 H2377 0.950 . S
C2389 C2385 1.393 . S
C2389 C2388 1.391 . S
C2390 H2380 0.950 . S
C2390 C2391 1.386 . S
C2390 C2392 1.391 . S
C2391 C2390 1.386 . S
C2391 C2395 1.393 . S
C2392 H2381 0.950 . S
C2392 C2390 1.391 . S
C2392 C2393 1.400 . S
C2393 C2387 1.491 . S
C2393 C2392 1.400 . S
C2393 C2394 1.398 . S
C2394 H2382 0.950 . S
C2394 C2393 1.398 . S
C2394 C2395 1.391 . S
C2395 H2383 0.950 1_655 S
C2395 C2391 1.393 . S
C2395 C2394 1.391 . S
H2396 C2404 0.950 . S
H2397 C2409 0.950 . S
H2398 C2406 0.950 . S
H2399 C2408 0.950 . S
H2400 C2410 0.950 . S
H2401 C2412 0.950 . S
H2402 C2414 0.950 . S
H2403 C2415 0.950 . S
C2404 H2396 0.950 . S
C2404 C2405 1.386 . S
C2404 C2406 1.391 . S
C2405 C2404 1.386 . S
C2405 C2409 1.393 . S
C2406 H2398 0.950 . S
C2406 C2404 1.391 . S
C2406 C2407 1.400 . S
C2407 C2406 1.400 . S
C2407 C2408 1.398 . S
C2407 C2413 1.491 . S
C2408 H2399 0.950 . S
C2408 C2407 1.398 . S
C2408 C2409 1.391 . S
C2409 H2397 0.950 . S
C2409 C2405 1.393 . S
C2409 C2408 1.391 . S
C2410 H2400 0.950 . S
C2410 C2411 1.386 . S
C2410 C2412 1.391 . S
C2411 C2410 1.386 . S
C2411 C2415 1.393 . S
C2412 H2401 0.950 . S
C2412 C2410 1.391 . S
C2412 C2413 1.400 . S
C2413 C2407 1.491 . S
C2413 C2412 1.400 . S
C2413 C2414 1.398 . S
C2414 H2402 0.950 . S
C2414 C2413 1.398 . S
C2414 C2415 1.391 . S
C2415 H2403 0.950 . S
C2415 C2411 1.393 . S
C2415 C2414 1.391 . S
H2416 C2424 0.950 . S
H2417 C2429 0.950 . S
H2418 C2426 0.950 . S
H2419 C2428 0.950 . S
H2420 C2430 0.950 . S
H2421 C2432 0.950 . S
H2422 C2434 0.950 . S
H2423 C2435 0.950 . S
C2424 H2416 0.950 . S
C2424 C2425 1.386 . S
C2424 C2426 1.391 . S
C2425 C2424 1.386 . S
C2425 C2429 1.393 . S
C2426 H2418 0.950 . S
C2426 C2424 1.391 . S
C2426 C2427 1.400 . S
C2427 C2426 1.400 . S
C2427 C2428 1.398 . S
C2427 C2433 1.491 . S
C2428 H2419 0.950 . S
C2428 C2427 1.398 . S
C2428 C2429 1.391 . S
C2429 H2417 0.950 . S
C2429 C2425 1.393 . S
C2429 C2428 1.391 . S
C2430 H2420 0.950 . S
C2430 C2431 1.386 . S
C2430 C2432 1.391 . S
C2431 C2430 1.386 . S
C2431 C2435 1.393 . S
C2432 H2421 0.950 . S
C2432 C2430 1.391 . S
C2432 C2433 1.400 . S
C2433 C2427 1.491 . S
C2433 C2432 1.400 . S
C2433 C2434 1.398 . S
C2434 H2422 0.950 . S
C2434 C2433 1.398 . S
C2434 C2435 1.391 . S
C2435 H2423 0.950 . S
C2435 C2431 1.393 . S
C2435 C2434 1.391 . S
H2436 C2444 0.950 . S
H2437 C2449 0.950 . S
H2438 C2446 0.950 . S
H2439 C2448 0.950 . S
H2440 C2450 0.950 . S
H2441 C2452 0.950 . S
H2442 C2454 0.950 . S
H2443 C2455 0.920 1_545 S
C2444 H2436 0.950 . S
C2444 C2445 1.386 . S
C2444 C2446 1.391 . S
C2445 C2444 1.386 . S
C2445 C2449 1.393 . S
C2446 H2438 0.950 . S
C2446 C2444 1.391 . S
C2446 C2447 1.400 . S
C2447 C2446 1.400 . S
C2447 C2448 1.398 . S
C2447 C2453 1.491 . S
C2448 H2439 0.950 . S
C2448 C2447 1.398 . S
C2448 C2449 1.391 . S
C2449 H2437 0.950 . S
C2449 C2445 1.393 . S
C2449 C2448 1.391 . S
C2450 H2440 0.950 . S
C2450 C2451 1.386 . S
C2450 C2452 1.391 . S
C2451 C2450 1.386 . S
C2451 C2455 1.406 . S
C2452 H2441 0.950 . S
C2452 C2450 1.391 . S
C2452 C2453 1.400 . S
C2453 C2447 1.491 . S
C2453 C2452 1.400 . S
C2453 C2454 1.398 . S
C2454 H2442 0.950 . S
C2454 C2453 1.398 . S
C2454 C2455 1.409 . S
C2455 H2443 0.920 1_565 S
C2455 C2451 1.406 . S
C2455 C2454 1.409 . S
H2456 C2464 0.950 . S
H2457 C2469 0.950 . S
H2458 C2466 0.950 . S
H2459 C2468 0.950 . S
H2460 C2470 0.950 . S
H2461 C2472 0.950 . S
H2462 C2474 0.950 . S
H2463 C2475 0.950 . S
C2464 H2456 0.950 . S
C2464 C2465 1.386 . S
C2464 C2466 1.391 . S
C2465 C2464 1.386 . S
C2465 C2469 1.393 . S
C2466 H2458 0.950 . S
C2466 C2464 1.391 . S
C2466 C2467 1.400 . S
C2467 C2466 1.400 . S
C2467 C2468 1.398 . S
C2467 C2473 1.491 . S
C2468 H2459 0.950 . S
C2468 C2467 1.398 . S
C2468 C2469 1.391 . S
C2469 H2457 0.950 . S
C2469 C2465 1.393 . S
C2469 C2468 1.391 . S
C2470 H2460 0.950 . S
C2470 C2471 1.386 . S
C2470 C2472 1.391 . S
C2471 C2470 1.386 . S
C2471 C2475 1.393 . S
C2472 H2461 0.950 . S
C2472 C2470 1.391 . S
C2472 C2473 1.400 . S
C2473 C2467 1.491 . S
C2473 C2472 1.400 . S
C2473 C2474 1.398 . S
C2474 H2462 0.950 . S
C2474 C2473 1.398 . S
C2474 C2475 1.391 . S
C2475 H2463 0.950 . S
C2475 C2471 1.393 . S
C2475 C2474 1.391 . S
H2476 C2484 0.950 . S
H2477 C2489 0.950 . S
H2478 C2486 0.950 . S
H2479 C2488 0.950 . S
H2480 C2490 0.949 1_556 S
H2481 C2492 0.951 1_556 S
H2482 C2494 0.950 . S
H2483 C2495 0.950 . S
C2484 H2476 0.950 . S
C2484 C2485 1.386 1_554 S
C2484 C2486 1.391 . S
C2485 C2484 1.386 1_556 S
C2485 C2489 1.393 . S
C2486 H2478 0.950 . S
C2486 C2484 1.391 . S
C2486 C2487 1.401 . S
C2487 C2486 1.401 . S
C2487 C2488 1.390 1_554 S
C2487 C2493 1.498 . S
C2488 H2479 0.950 . S
C2488 C2487 1.390 1_556 S
C2488 C2489 1.391 . S
C2489 H2477 0.950 . S
C2489 C2485 1.393 . S
C2489 C2488 1.391 . S
C2490 H2480 0.949 1_554 S
C2490 C2491 1.386 . S
C2490 C2492 1.390 . S
C2491 C2490 1.386 . S
C2491 C2495 1.393 . S
C2492 H2481 0.951 1_554 S
C2492 C2490 1.390 . S
C2492 C2493 1.400 . S
C2493 C2487 1.498 . S
C2493 C2492 1.400 . S
C2493 C2494 1.398 . S
C2494 H2482 0.950 . S
C2494 C2493 1.398 . S
C2494 C2495 1.391 . S
C2495 H2483 0.950 . S
C2495 C2491 1.393 . S
C2495 C2494 1.391 . S
H2496 C2504 0.950 . S
H2497 C2509 0.950 . S
H2498 C2506 0.950 . S
H2499 C2508 0.950 . S
H2500 C2510 0.950 . S
H2501 C2512 0.950 . S
H2502 C2514 0.950 . S
H2503 C2515 0.950 . S
C2504 H2496 0.950 . S
C2504 C2505 1.386 . S
C2504 C2506 1.391 . S
C2505 C2504 1.386 . S
C2505 C2509 1.393 . S
C2506 H2498 0.950 . S
C2506 C2504 1.391 . S
C2506 C2507 1.400 . S
C2507 C2506 1.400 . S
C2507 C2508 1.398 . S
C2507 C2513 1.491 . S
C2508 H2499 0.950 . S
C2508 C2507 1.398 . S
C2508 C2509 1.391 . S
C2509 H2497 0.950 . S
C2509 C2505 1.393 . S
C2509 C2508 1.391 . S
C2510 H2500 0.950 . S
C2510 C2511 1.386 . S
C2510 C2512 1.391 . S
C2511 C2510 1.386 . S
C2511 C2515 1.393 . S
C2512 H2501 0.950 . S
C2512 C2510 1.391 . S
C2512 C2513 1.400 . S
C2513 C2507 1.491 . S
C2513 C2512 1.400 . S
C2513 C2514 1.398 . S
C2514 H2502 0.950 . S
C2514 C2513 1.398 . S
C2514 C2515 1.391 . S
C2515 H2503 0.950 . S
C2515 C2511 1.393 . S
C2515 C2514 1.391 . S
H2516 C2524 0.950 . S
H2517 C2529 0.960 . S
H2518 C2526 0.950 . S
H2519 C2528 0.937 1_556 S
H2520 C2530 0.950 . S
H2521 C2532 0.950 . S
H2522 C2534 0.950 . S
H2523 C2535 0.954 . S
C2524 H2516 0.950 . S
C2524 C2525 1.386 . S
C2524 C2526 1.391 . S
C2525 C2524 1.386 . S
C2525 C2529 1.393 . S
C2526 H2518 0.950 . S
C2526 C2524 1.391 . S
C2526 C2527 1.400 . S
C2527 C2526 1.400 . S
C2527 C2528 1.407 . S
C2527 C2533 1.491 1_554 S
C2528 H2519 0.937 1_554 S
C2528 C2527 1.407 . S
C2528 C2529 1.397 . S
C2529 H2517 0.960 . S
C2529 C2525 1.393 . S
C2529 C2528 1.397 . S
C2530 H2520 0.950 . S
C2530 C2531 1.386 . S
C2530 C2532 1.391 . S
C2531 C2530 1.386 . S
C2531 C2535 1.387 1_556 S
C2532 H2521 0.950 . S
C2532 C2530 1.391 . S
C2532 C2533 1.400 . S
C2533 C2527 1.491 1_556 S
C2533 C2532 1.400 . S
C2533 C2534 1.398 1_556 S
C2534 H2522 0.950 . S
C2534 C2533 1.398 1_554 S
C2534 C2535 1.393 . S
C2535 H2523 0.954 . S
C2535 C2531 1.387 1_554 S
C2535 C2534 1.393 . S
H2536 C2544 0.950 . S
H2537 C2549 0.950 . S
H2538 C2546 0.950 . S
H2539 C2548 0.950 . S
H2540 C2550 0.950 . S
H2541 C2552 0.950 . S
H2542 C2554 0.950 . S
H2543 C2555 0.950 . S
C2544 H2536 0.950 . S
C2544 C2545 1.386 . S
C2544 C2546 1.391 . S
C2545 C2544 1.386 . S
C2545 C2549 1.393 . S
C2546 H2538 0.950 . S
C2546 C2544 1.391 . S
C2546 C2547 1.400 . S
C2547 C2546 1.400 . S
C2547 C2548 1.398 . S
C2547 C2553 1.491 . S
C2548 H2539 0.950 . S
C2548 C2547 1.398 . S
C2548 C2549 1.391 . S
C2549 H2537 0.950 . S
C2549 C2545 1.393 . S
C2549 C2548 1.391 . S
C2550 H2540 0.950 . S
C2550 C2551 1.386 . S
C2550 C2552 1.391 . S
C2551 C2550 1.386 . S
C2551 C2555 1.393 . S
C2552 H2541 0.950 . S
C2552 C2550 1.391 . S
C2552 C2553 1.400 . S
C2553 C2547 1.491 . S
C2553 C2552 1.400 . S
C2553 C2554 1.398 . S
C2554 H2542 0.950 . S
C2554 C2553 1.398 . S
C2554 C2555 1.391 . S
C2555 H2543 0.950 . S
C2555 C2551 1.393 . S
C2555 C2554 1.391 . S
H2556 C2564 0.950 . S
H2557 C2569 0.950 . S
H2558 C2566 0.950 . S
H2559 C2568 0.950 . S
H2560 C2570 0.950 . S
H2561 C2572 0.950 . S
H2562 C2574 0.950 . S
H2563 C2575 0.950 . S
C2564 H2556 0.950 . S
C2564 C2565 1.386 . S
C2564 C2566 1.391 . S
C2565 C2564 1.386 . S
C2565 C2569 1.393 . S
C2566 H2558 0.950 . S
C2566 C2564 1.391 . S
C2566 C2567 1.400 . S
C2567 C2566 1.400 . S
C2567 C2568 1.398 . S
C2567 C2573 1.491 . S
C2568 H2559 0.950 . S
C2568 C2567 1.398 . S
C2568 C2569 1.391 . S
C2569 H2557 0.950 . S
C2569 C2565 1.393 . S
C2569 C2568 1.391 . S
C2570 H2560 0.950 . S
C2570 C2571 1.386 . S
C2570 C2572 1.391 . S
C2571 C2570 1.386 . S
C2571 C2575 1.393 . S
C2572 H2561 0.950 . S
C2572 C2570 1.391 . S
C2572 C2573 1.400 . S
C2573 C2567 1.491 . S
C2573 C2572 1.400 . S
C2573 C2574 1.398 . S
C2574 H2562 0.950 . S
C2574 C2573 1.398 . S
C2574 C2575 1.391 . S
C2575 H2563 0.950 . S
C2575 C2571 1.393 . S
C2575 C2574 1.391 . S
C665 C109 1.540 . S
C671 C354 1.508 1_556 S
C685 C65 1.614 . S
C691 C365 1.615 . S
C705 C75 1.028 . S
C711 C394 0.990 . S
C731 C397 1.464 . S
C725 C84 1.471 . S
C745 C25 1.605 . S
C751 C435 1.564 . S
C771 C438 0.963 . S
C765 C28 0.964 . S
C791 C465 1.492 . S
C785 C47 1.494 . S
C805 C9 1.691 . S
C811 C494 1.615 . S
C831 C345 1.615 1_655 S
C825 C233 1.624 . S
C845 C249 0.867 . S
C851 C357 0.867 . S
C871 C385 1.614 . S
C865 C275 1.620 . S
C891 C414 1.104 . S
C885 C173 1.123 . S
C905 C224 1.056 . S
C911 C418 1.064 . S
C931 C444 1.610 . S
C925 C243 1.629 . S
C951 C457 0.762 . S
C945 C266 0.766 . S
C971 C485 1.537 . S
C965 C179 1.549 . S
C991 C337 1.548 1_565 S
C985 C163 1.562 . S
C1005 C289 1.731 . S
C1011 C504 1.695 . S
C1031 C535 1.480 . S
C1025 C333 1.533 . S
C1051 C554 0.899 . S
C1045 C308 0.909 . S
C1065 C123 1.365 . S
C1071 C477 1.372 . S
C1085 C126 1.513 . S
C1091 C377 1.519 . S
C1105 C327 1.608 . S
C1111 C565 1.591 . S
C1131 C594 0.963 . S
C1125 C299 0.993 . S
C1151 C355 1.511 . S
C1145 C67 1.557 . S
C1171 C584 1.627 . S
C1165 C98 1.615 . S
C1185 C89 1.055 . S
C1191 C395 1.045 . S
C1205 C79 1.513 . S
C1211 C558 1.508 . S
C1231 C434 1.580 . S
C1225 C11 1.630 . S
C1245 C51 0.975 . S
C1251 C517 0.984 . S
C1271 C464 1.528 1_556 S
C1265 C33 1.535 . S
C1291 C615 1.621 . S
C1285 C14 1.679 . S
C1311 C344 1.599 . S
C1305 C140 1.587 . S
C1331 C578 0.841 . S
C1325 C319 0.859 . S
C1345 C112 1.617 . S
C1351 C384 1.619 . S
C1365 C285 1.149 . S
C1371 C575 1.125 . S
C1385 C149 1.086 . S
C1391 C417 1.082 . S
C1411 C525 1.630 . S
C1405 C313 1.660 . S
C1425 C121 0.808 . S
C1431 C458 0.797 . S
C1445 C291 1.573 . S
C1451 C604 1.569 . S
C1465 C182 1.555 1_556 S
C1471 C338 1.529 . S
C1485 C168 1.730 . S
C1491 C505 1.718 . S
C1505 C263 1.576 . S
C1511 C454 1.535 . S
C1525 C247 0.950 . S
C1531 C555 0.956 . S
C1551 C598 1.350 . S
C1545 C277 1.371 . S
C1565 C219 1.550 . S
C1571 C378 1.538 . S
C1591 C404 1.639 . S
C1585 C257 1.645 . S
C1611 C375 0.964 . S
C1605 C201 0.995 . S
C1625 C81 1.532 . S
C1631 C634 1.502 . S
C1651 C585 1.611 . S
C1645 C93 1.616 . S
C1665 C103 1.031 . S
C1671 C654 1.023 . S
C1685 C56 1.461 . S
C1691 C557 1.461 . S
C1705 C53 1.597 . S
C1711 C515 1.549 . S
C1731 C518 0.961 . S
C1725 C0 0.964 . S
C1751 C545 1.488 . S
C1745 C19 1.489 . S
C1771 C614 1.617 . S
C1765 C37 1.691 . S
C1791 C625 1.617 . S
C1785 C261 1.622 . S
C1805 C193 0.868 . S
C1811 C577 0.858 . S
C1831 C645 1.605 . S
C1825 C205 1.616 . S
C1851 C574 1.113 . S
C1845 C215 1.115 . S
C1871 C498 1.061 . S
C1865 C252 1.057 . S
C1885 C187 1.627 . S
C1891 C524 1.602 . S
C1911 C537 0.744 . S
C1905 C196 0.737 . S
C1925 C221 1.544 . S
C1931 C605 1.541 . S
C1951 C617 1.542 . S
C1945 C317 1.557 . S
C1965 C135 1.730 . S
C1971 C424 1.698 . S
C1991 C455 1.478 . S
C1985 C151 1.539 . S
C2011 C474 0.896 . S
C2005 C154 0.909 . S
C2031 C597 1.367 . S
C2025 C305 1.357 . S
C2045 C280 1.513 . S
C2051 C637 1.522 . S
C2071 C405 1.595 . S
C2065 C145 1.604 . S
C2091 C374 0.965 . S
C2085 C117 0.994 . S
C2105 C95 1.551 . S
C2111 C635 1.514 . S
C2131 C364 1.628 . S
C2125 C70 1.615 . S
C2145 C61 1.057 . S
C2151 C655 1.029 . S
C2165 C107 1.512 . S
C2171 C398 1.498 . S
C2185 C39 1.628 . S
C2191 C514 1.564 . S
C2211 C437 0.984 . S
C2205 C23 0.978 . S
C2225 C5 1.533 . S
C2231 C544 1.523 . S
C2245 C42 1.676 . S
C2251 C495 1.614 . S
C2271 C624 1.595 . S
C2265 C322 1.587 . S
C2285 C165 0.874 . S
C2291 C358 0.855 . S
C2311 C644 1.618 1_655 S
C2305 C294 1.618 . S
C2325 C131 1.149 . S
C2331 C415 1.128 . S
C2345 C331 1.086 . S
C2351 C497 1.083 . S
C2371 C445 1.644 . S
C2365 C159 1.661 . S
C2385 C303 0.804 . S
C2391 C538 0.788 . S
C2411 C484 1.561 . S
C2405 C137 1.577 . S
C2431 C618 1.532 . S
C2425 C238 1.556 . S
C2451 C425 1.718 1_565 S
C2445 C210 1.730 . S
C2465 C235 1.582 . S
C2471 C534 1.517 . S
C2491 C475 0.936 . S
C2485 C191 0.954 . S
C2505 C207 1.377 . S
C2511 C478 1.363 . S
C2525 C177 1.552 . S
C2531 C638 1.541 . S
C2551 C564 1.632 . S
C2545 C229 1.647 . S
C2571 C595 0.963 . S
C2565 C271 0.995 . S
