# Generated by pormake.
# Topology gar, (4,6)-cn, num edge types: 1
# Building blocks:
#     Node 0, Type 0, BuildingBlock: TATPOV_clean_sbu_0, # of connection points: 4
#     Node 1, Type 0, BuildingBlock: TATPOV_clean_sbu_0, # of connection points: 4
#     Node 2, Type 0, BuildingBlock: TATPOV_clean_sbu_0, # of connection points: 4
#     Node 3, Type 0, BuildingBlock: TATPOV_clean_sbu_0, # of connection points: 4
#     Node 4, Type 0, BuildingBlock: TATPOV_clean_sbu_0, # of connection points: 4
#     Node 5, Type 0, BuildingBlock: TATPOV_clean_sbu_0, # of connection points: 4
#     Node 6, Type 0, BuildingBlock: TATPOV_clean_sbu_0, # of connection points: 4
#     Node 7, Type 0, BuildingBlock: TATPOV_clean_sbu_0, # of connection points: 4
#     Node 8, Type 0, BuildingBlock: TATPOV_clean_sbu_0, # of connection points: 4
#     Node 9, Type 0, BuildingBlock: TATPOV_clean_sbu_0, # of connection points: 4
#     Node 10, Type 0, BuildingBlock: TATPOV_clean_sbu_0, # of connection points: 4
#     Node 11, Type 0, BuildingBlock: TATPOV_clean_sbu_0, # of connection points: 4
#     Node 12, Type 0, BuildingBlock: TATPOV_clean_sbu_0, # of connection points: 4
#     Node 13, Type 0, BuildingBlock: TATPOV_clean_sbu_0, # of connection points: 4
#     Node 14, Type 0, BuildingBlock: TATPOV_clean_sbu_0, # of connection points: 4
#     Node 15, Type 0, BuildingBlock: TATPOV_clean_sbu_0, # of connection points: 4
#     Node 16, Type 0, BuildingBlock: TATPOV_clean_sbu_0, # of connection points: 4
#     Node 17, Type 0, BuildingBlock: TATPOV_clean_sbu_0, # of connection points: 4
#     Node 18, Type 0, BuildingBlock: TATPOV_clean_sbu_0, # of connection points: 4
#     Node 19, Type 0, BuildingBlock: TATPOV_clean_sbu_0, # of connection points: 4
#     Node 20, Type 0, BuildingBlock: TATPOV_clean_sbu_0, # of connection points: 4
#     Node 21, Type 0, BuildingBlock: TATPOV_clean_sbu_0, # of connection points: 4
#     Node 22, Type 0, BuildingBlock: TATPOV_clean_sbu_0, # of connection points: 4
#     Node 23, Type 0, BuildingBlock: TATPOV_clean_sbu_0, # of connection points: 4
#     Node 24, Type 1, BuildingBlock: CUWYAW_clean_sbu_0, # of connection points: 6
#     Node 25, Type 1, BuildingBlock: CUWYAW_clean_sbu_0, # of connection points: 6
#     Node 26, Type 1, BuildingBlock: CUWYAW_clean_sbu_0, # of connection points: 6
#     Node 27, Type 1, BuildingBlock: CUWYAW_clean_sbu_0, # of connection points: 6
#     Node 28, Type 1, BuildingBlock: CUWYAW_clean_sbu_0, # of connection points: 6
#     Node 29, Type 1, BuildingBlock: CUWYAW_clean_sbu_0, # of connection points: 6
#     Node 30, Type 1, BuildingBlock: CUWYAW_clean_sbu_0, # of connection points: 6
#     Node 31, Type 1, BuildingBlock: CUWYAW_clean_sbu_0, # of connection points: 6
#     Node 32, Type 1, BuildingBlock: CUWYAW_clean_sbu_0, # of connection points: 6
#     Node 33, Type 1, BuildingBlock: CUWYAW_clean_sbu_0, # of connection points: 6
#     Node 34, Type 1, BuildingBlock: CUWYAW_clean_sbu_0, # of connection points: 6
#     Node 35, Type 1, BuildingBlock: CUWYAW_clean_sbu_0, # of connection points: 6
#     Node 36, Type 1, BuildingBlock: CUWYAW_clean_sbu_0, # of connection points: 6
#     Node 37, Type 1, BuildingBlock: CUWYAW_clean_sbu_0, # of connection points: 6
#     Node 38, Type 1, BuildingBlock: CUWYAW_clean_sbu_0, # of connection points: 6
#     Node 39, Type 1, BuildingBlock: CUWYAW_clean_sbu_0, # of connection points: 6
#     Edge 40, Type (0, 1), BuildingBlock: XIVTED_clean_linker_0, # of connection points: 2
#     Edge 41, Type (0, 1), BuildingBlock: XIVTED_clean_linker_0, # of connection points: 2
#     Edge 42, Type (0, 1), BuildingBlock: XIVTED_clean_linker_0, # of connection points: 2
#     Edge 43, Type (0, 1), BuildingBlock: XIVTED_clean_linker_0, # of connection points: 2
#     Edge 44, Type (0, 1), BuildingBlock: XIVTED_clean_linker_0, # of connection points: 2
#     Edge 45, Type (0, 1), BuildingBlock: XIVTED_clean_linker_0, # of connection points: 2
#     Edge 46, Type (0, 1), BuildingBlock: XIVTED_clean_linker_0, # of connection points: 2
#     Edge 47, Type (0, 1), BuildingBlock: XIVTED_clean_linker_0, # of connection points: 2
#     Edge 48, Type (0, 1), BuildingBlock: XIVTED_clean_linker_0, # of connection points: 2
#     Edge 49, Type (0, 1), BuildingBlock: XIVTED_clean_linker_0, # of connection points: 2
#     Edge 50, Type (0, 1), BuildingBlock: XIVTED_clean_linker_0, # of connection points: 2
#     Edge 51, Type (0, 1), BuildingBlock: XIVTED_clean_linker_0, # of connection points: 2
#     Edge 52, Type (0, 1), BuildingBlock: XIVTED_clean_linker_0, # of connection points: 2
#     Edge 53, Type (0, 1), BuildingBlock: XIVTED_clean_linker_0, # of connection points: 2
#     Edge 54, Type (0, 1), BuildingBlock: XIVTED_clean_linker_0, # of connection points: 2
#     Edge 55, Type (0, 1), BuildingBlock: XIVTED_clean_linker_0, # of connection points: 2
#     Edge 56, Type (0, 1), BuildingBlock: XIVTED_clean_linker_0, # of connection points: 2
#     Edge 57, Type (0, 1), BuildingBlock: XIVTED_clean_linker_0, # of connection points: 2
#     Edge 58, Type (0, 1), BuildingBlock: XIVTED_clean_linker_0, # of connection points: 2
#     Edge 59, Type (0, 1), BuildingBlock: XIVTED_clean_linker_0, # of connection points: 2
#     Edge 60, Type (0, 1), BuildingBlock: XIVTED_clean_linker_0, # of connection points: 2
#     Edge 61, Type (0, 1), BuildingBlock: XIVTED_clean_linker_0, # of connection points: 2
#     Edge 62, Type (0, 1), BuildingBlock: XIVTED_clean_linker_0, # of connection points: 2
#     Edge 63, Type (0, 1), BuildingBlock: XIVTED_clean_linker_0, # of connection points: 2
#     Edge 64, Type (0, 1), BuildingBlock: XIVTED_clean_linker_0, # of connection points: 2
#     Edge 65, Type (0, 1), BuildingBlock: XIVTED_clean_linker_0, # of connection points: 2
#     Edge 66, Type (0, 1), BuildingBlock: XIVTED_clean_linker_0, # of connection points: 2
#     Edge 67, Type (0, 1), BuildingBlock: XIVTED_clean_linker_0, # of connection points: 2
#     Edge 68, Type (0, 1), BuildingBlock: XIVTED_clean_linker_0, # of connection points: 2
#     Edge 69, Type (0, 1), BuildingBlock: XIVTED_clean_linker_0, # of connection points: 2
#     Edge 70, Type (0, 1), BuildingBlock: XIVTED_clean_linker_0, # of connection points: 2
#     Edge 71, Type (0, 1), BuildingBlock: XIVTED_clean_linker_0, # of connection points: 2
#     Edge 72, Type (0, 1), BuildingBlock: XIVTED_clean_linker_0, # of connection points: 2
#     Edge 73, Type (0, 1), BuildingBlock: XIVTED_clean_linker_0, # of connection points: 2
#     Edge 74, Type (0, 1), BuildingBlock: XIVTED_clean_linker_0, # of connection points: 2
#     Edge 75, Type (0, 1), BuildingBlock: XIVTED_clean_linker_0, # of connection points: 2
#     Edge 76, Type (0, 1), BuildingBlock: XIVTED_clean_linker_0, # of connection points: 2
#     Edge 77, Type (0, 1), BuildingBlock: XIVTED_clean_linker_0, # of connection points: 2
#     Edge 78, Type (0, 1), BuildingBlock: XIVTED_clean_linker_0, # of connection points: 2
#     Edge 79, Type (0, 1), BuildingBlock: XIVTED_clean_linker_0, # of connection points: 2
#     Edge 80, Type (0, 1), BuildingBlock: XIVTED_clean_linker_0, # of connection points: 2
#     Edge 81, Type (0, 1), BuildingBlock: XIVTED_clean_linker_0, # of connection points: 2
#     Edge 82, Type (0, 1), BuildingBlock: XIVTED_clean_linker_0, # of connection points: 2
#     Edge 83, Type (0, 1), BuildingBlock: XIVTED_clean_linker_0, # of connection points: 2
#     Edge 84, Type (0, 1), BuildingBlock: XIVTED_clean_linker_0, # of connection points: 2
#     Edge 85, Type (0, 1), BuildingBlock: XIVTED_clean_linker_0, # of connection points: 2
#     Edge 86, Type (0, 1), BuildingBlock: XIVTED_clean_linker_0, # of connection points: 2
#     Edge 87, Type (0, 1), BuildingBlock: XIVTED_clean_linker_0, # of connection points: 2
#     Edge 88, Type (0, 1), BuildingBlock: XIVTED_clean_linker_0, # of connection points: 2
#     Edge 89, Type (0, 1), BuildingBlock: XIVTED_clean_linker_0, # of connection points: 2
#     Edge 90, Type (0, 1), BuildingBlock: XIVTED_clean_linker_0, # of connection points: 2
#     Edge 91, Type (0, 1), BuildingBlock: XIVTED_clean_linker_0, # of connection points: 2
#     Edge 92, Type (0, 1), BuildingBlock: XIVTED_clean_linker_0, # of connection points: 2
#     Edge 93, Type (0, 1), BuildingBlock: XIVTED_clean_linker_0, # of connection points: 2
#     Edge 94, Type (0, 1), BuildingBlock: XIVTED_clean_linker_0, # of connection points: 2
#     Edge 95, Type (0, 1), BuildingBlock: XIVTED_clean_linker_0, # of connection points: 2
#     Edge 96, Type (0, 1), BuildingBlock: XIVTED_clean_linker_0, # of connection points: 2
#     Edge 97, Type (0, 1), BuildingBlock: XIVTED_clean_linker_0, # of connection points: 2
#     Edge 98, Type (0, 1), BuildingBlock: XIVTED_clean_linker_0, # of connection points: 2
#     Edge 99, Type (0, 1), BuildingBlock: XIVTED_clean_linker_0, # of connection points: 2
#     Edge 100, Type (0, 1), BuildingBlock: XIVTED_clean_linker_0, # of connection points: 2
#     Edge 101, Type (0, 1), BuildingBlock: XIVTED_clean_linker_0, # of connection points: 2
#     Edge 102, Type (0, 1), BuildingBlock: XIVTED_clean_linker_0, # of connection points: 2
#     Edge 103, Type (0, 1), BuildingBlock: XIVTED_clean_linker_0, # of connection points: 2
#     Edge 104, Type (0, 1), BuildingBlock: XIVTED_clean_linker_0, # of connection points: 2
#     Edge 105, Type (0, 1), BuildingBlock: XIVTED_clean_linker_0, # of connection points: 2
#     Edge 106, Type (0, 1), BuildingBlock: XIVTED_clean_linker_0, # of connection points: 2
#     Edge 107, Type (0, 1), BuildingBlock: XIVTED_clean_linker_0, # of connection points: 2
#     Edge 108, Type (0, 1), BuildingBlock: XIVTED_clean_linker_0, # of connection points: 2
#     Edge 109, Type (0, 1), BuildingBlock: XIVTED_clean_linker_0, # of connection points: 2
#     Edge 110, Type (0, 1), BuildingBlock: XIVTED_clean_linker_0, # of connection points: 2
#     Edge 111, Type (0, 1), BuildingBlock: XIVTED_clean_linker_0, # of connection points: 2
#     Edge 112, Type (0, 1), BuildingBlock: XIVTED_clean_linker_0, # of connection points: 2
#     Edge 113, Type (0, 1), BuildingBlock: XIVTED_clean_linker_0, # of connection points: 2
#     Edge 114, Type (0, 1), BuildingBlock: XIVTED_clean_linker_0, # of connection points: 2
#     Edge 115, Type (0, 1), BuildingBlock: XIVTED_clean_linker_0, # of connection points: 2
#     Edge 116, Type (0, 1), BuildingBlock: XIVTED_clean_linker_0, # of connection points: 2
#     Edge 117, Type (0, 1), BuildingBlock: XIVTED_clean_linker_0, # of connection points: 2
#     Edge 118, Type (0, 1), BuildingBlock: XIVTED_clean_linker_0, # of connection points: 2
#     Edge 119, Type (0, 1), BuildingBlock: XIVTED_clean_linker_0, # of connection points: 2
#     Edge 120, Type (0, 1), BuildingBlock: XIVTED_clean_linker_0, # of connection points: 2
#     Edge 121, Type (0, 1), BuildingBlock: XIVTED_clean_linker_0, # of connection points: 2
#     Edge 122, Type (0, 1), BuildingBlock: XIVTED_clean_linker_0, # of connection points: 2
#     Edge 123, Type (0, 1), BuildingBlock: XIVTED_clean_linker_0, # of connection points: 2
#     Edge 124, Type (0, 1), BuildingBlock: XIVTED_clean_linker_0, # of connection points: 2
#     Edge 125, Type (0, 1), BuildingBlock: XIVTED_clean_linker_0, # of connection points: 2
#     Edge 126, Type (0, 1), BuildingBlock: XIVTED_clean_linker_0, # of connection points: 2
#     Edge 127, Type (0, 1), BuildingBlock: XIVTED_clean_linker_0, # of connection points: 2
#     Edge 128, Type (0, 1), BuildingBlock: XIVTED_clean_linker_0, # of connection points: 2
#     Edge 129, Type (0, 1), BuildingBlock: XIVTED_clean_linker_0, # of connection points: 2
#     Edge 130, Type (0, 1), BuildingBlock: XIVTED_clean_linker_0, # of connection points: 2
#     Edge 131, Type (0, 1), BuildingBlock: XIVTED_clean_linker_0, # of connection points: 2
#     Edge 132, Type (0, 1), BuildingBlock: XIVTED_clean_linker_0, # of connection points: 2
#     Edge 133, Type (0, 1), BuildingBlock: XIVTED_clean_linker_0, # of connection points: 2
#     Edge 134, Type (0, 1), BuildingBlock: XIVTED_clean_linker_0, # of connection points: 2
#     Edge 135, Type (0, 1), BuildingBlock: XIVTED_clean_linker_0, # of connection points: 2
# Relax obj value: 0.218
# Max RMSD: 0.306
# Mean RMSD: 0.163
data_MOF--net-gar--node1-TATPOV_clean_sbu_0--node2-CUWYAW_clean_sbu_0--edge1-XIVTED_clean_linker_0
_symmetry_space_group_name_H-M    P1
_symmetry_Int_Tables_number       1
_symmetry_cell_setting            triclinic
loop_
_symmetry_equiv_pos_as_xyz
'x, y, z'
_cell_length_a     64.774619
_cell_length_b     55.170434
_cell_length_c     55.50952
_cell_angle_alpha  98.357942
_cell_angle_beta   96.662797
_cell_angle_gamma 100.63802
loop_
_atom_site_label
_atom_site_type_symbol
_atom_site_fract_x
_atom_site_fract_y
_atom_site_fract_z
_atom_type_partial_charge
Zn0 Zn 0.03927 0.36118 0.47991 0.0
Zn1 Zn 0.05726 0.36076 0.44167 0.0
O2 O 0.07946 0.3845 0.46871 0.0
O3 O 0.06667 0.37578 0.50208 0.0
O4 O 0.07185 0.35662 0.41166 0.0
O5 O 0.0281 0.3243 0.47367 0.0
O6 O 0.05002 0.324 0.44633 0.0
C7 C 0.08141 0.38687 0.49209 0.0
C8 C 0.01871 0.38451 0.44503 0.0
O9 O 0.03089 0.375 0.43162 0.0
O10 O 0.02071 0.38349 0.46779 0.0
C11 C 0.08921 0.37005 0.40864 0.0
O12 O 0.09804 0.38998 0.4251 0.0
C13 C 0.03713 0.31229 0.45839 0.0
Zn14 Zn 0.02376 0.67407 0.7058 0.0
Zn15 Zn 0.0258 0.71477 0.68226 0.0
O16 O 0.01606 0.72718 0.71422 0.0
O17 O 1.01326 0.69509 0.73391 0.0
O18 O 0.02764 0.7432 0.6639 0.0
O19 O 0.0556 0.67583 0.70278 0.0
O20 O 0.05534 0.70809 0.68376 0.0
C21 C 1.01145 0.71743 0.7328 0.0
C22 C 0.99702 0.66513 0.65815 0.0
O23 O 1.00478 0.68809 0.6586 0.0
O24 O 1.00221 0.65461 0.67615 0.0
C25 C 0.04211 0.76283 0.66968 0.0
O26 O 0.05603 0.76563 0.68959 0.0
C27 C 0.06505 0.69219 0.69169 0.0
Zn28 Zn 0.54639 0.84823 0.98369 0.0
Zn29 Zn 0.5605 0.8529 0.94414 0.0
O30 O 0.58089 0.87969 0.97059 0.0
O31 O 0.57339 0.86675 1.00472 0.0
O32 O 0.57423 0.85424 0.91342 0.0
O33 O 0.53966 0.81104 0.97612 0.0
O34 O 0.55973 0.81597 0.9472 0.0
C35 C 0.58489 0.88148 0.99391 0.0
C36 C 0.5182 0.86667 0.95221 0.0
O37 O 0.5304 0.86043 0.93692 0.0
O38 O 0.52316 0.86613 0.97482 0.0
C39 C 0.56737 0.83655 0.89524 0.0
O40 O 0.5498 0.82048 0.89581 0.0
C41 C 0.54907 0.8018 0.95948 0.0
Zn42 Zn 0.51805 0.17057 0.21613 0.0
Zn43 Zn 0.52033 0.21353 0.19541 0.0
O44 O 0.5074 0.22156 0.22614 0.0
O45 O 0.50456 0.18803 0.24378 0.0
O46 O 0.52252 0.24462 0.18071 0.0
O47 O 0.55062 0.17567 0.217 0.0
O48 O 0.55054 0.20983 0.20088 0.0
C49 C 0.50203 0.21026 0.24353 0.0
C50 C 0.49585 0.16355 0.16596 0.0
O51 O 0.50288 0.18694 0.16812 0.0
O52 O 0.49944 0.15225 0.18387 0.0
C53 C 0.50619 0.25077 0.17037 0.0
O54 O 0.48737 0.23672 0.16995 0.0
C55 C 0.5605 0.19421 0.20896 0.0
Zn56 Zn 0.1119 0.81174 0.14542 0.0
Zn57 Zn 0.08217 0.80908 0.17406 0.0
O58 O 0.07994 0.83999 0.1571 0.0
O59 O 0.10667 0.84361 0.13585 0.0
O60 O 0.05707 0.8061 0.19326 0.0
O61 O 0.09806 0.77904 0.12432 0.0
O62 O 0.07494 0.77506 0.15028 0.0
C63 C 0.0909 0.85151 0.14298 0.0
C64 C 0.12846 0.8118 0.19563 0.0
O65 O 0.10942 0.81207 0.19953 0.0
O66 O 0.13319 0.81147 0.17413 0.0
C67 C 0.05037 0.82469 0.20362 0.0
O68 O 0.06075 0.84746 0.20338 0.0
C69 C 0.08238 0.76615 0.13139 0.0
Zn70 Zn 0.47251 0.75825 0.46021 0.0
Zn71 Zn 0.49873 0.75617 0.42665 0.0
O72 O 0.50816 0.79217 0.44625 0.0
O73 O 0.48925 0.79228 0.47681 0.0
O74 O 0.52193 0.75345 0.40514 0.0
O75 O 0.47828 0.72756 0.47243 0.0
O76 O 0.50131 0.72708 0.44629 0.0
C77 C 0.50338 0.80333 0.46596 0.0
C78 C 0.45162 0.75276 0.40962 0.0
O79 O 0.47005 0.75222 0.40372 0.0
O80 O 0.44903 0.75525 0.43207 0.0
C81 C 0.52934 0.76997 0.39288 0.0
O82 O 0.52073 0.7897 0.39233 0.0
C83 C 0.49235 0.71778 0.46314 0.0
Zn84 Zn 0.62189 0.31676 0.66005 0.0
Zn85 Zn 0.58926 0.31266 0.68534 0.0
O86 O 0.58706 0.34257 0.66669 0.0
O87 O 0.61409 0.34554 0.64589 0.0
O88 O 0.56387 0.31129 0.70414 0.0
O89 O 0.61018 0.28152 0.642 0.0
O90 O 0.58278 0.27838 0.66222 0.0
C91 C 0.59785 0.35317 0.65185 0.0
C92 C 0.63589 0.32151 0.71131 0.0
O93 O 0.61592 0.3168 0.71218 0.0
O94 O 0.64265 0.32339 0.69105 0.0
C95 C 0.54526 0.30636 0.69189 0.0
O96 O 0.54321 0.30203 0.66773 0.0
C97 C 0.59289 0.26896 0.64608 0.0
Zn98 Zn 0.96574 0.24944 0.93998 0.0
Zn99 Zn 0.99862 0.25382 0.91528 0.0
O100 O 1.00445 0.28856 0.93745 0.0
O101 O 0.97638 0.28537 0.95658 0.0
O102 O 0.02398 0.25479 0.89654 0.0
O103 O 0.97419 0.22189 0.95577 0.0
O104 O 1.00103 0.22453 0.93469 0.0
C105 C 0.99363 0.29816 0.95265 0.0
C106 C 0.95221 0.24342 0.88861 0.0
O107 O 0.97219 0.24902 0.88815 0.0
O108 O 0.94522 0.24111 0.90868 0.0
C109 C 0.04268 0.2594 0.90849 0.0
O110 O 0.04509 0.26395 0.93267 0.0
C111 C 0.99051 0.21434 0.94998 0.0
Zn112 Zn 0.44217 0.02422 0.28972 0.0
Zn113 Zn 0.42204 0.06035 0.29222 0.0
O114 O 0.44223 0.06513 0.32845 0.0
O115 O 0.46038 0.03525 0.32267 0.0
O116 O 0.40617 0.09254 0.29368 0.0
O117 O 0.45442 0.02846 0.259 0.0
O118 O 0.43848 0.06031 0.2585 0.0
C119 C 0.45628 0.05334 0.33678 0.0
C120 C 0.39841 1.00371 0.28795 0.0
O121 O 0.39737 0.02701 0.28979 0.0
O122 O 0.41614 0.99743 0.28707 0.0
C123 C 0.3861 0.09161 0.28802 0.0
O124 O 0.37375 0.06939 0.28069 0.0
C125 C 0.45009 0.04607 0.24841 0.0
Zn126 Zn 0.23477 0.19065 0.52899 0.0
Zn127 Zn 0.26164 0.16158 0.5251 0.0
O128 O 0.26279 0.18011 0.49461 0.0
O129 O 0.23838 0.2029 0.49783 0.0
O130 O 0.28526 0.14168 0.52267 0.0
O131 O 0.25073 0.21153 0.55984 0.0
O132 O 0.27217 0.18493 0.55907 0.0
C133 C 0.25261 0.19578 0.48653 0.0
C134 C 0.21508 0.13986 0.52869 0.0
O135 O 0.23339 0.13568 0.52523 0.0
O136 O 0.21189 0.16195 0.53095 0.0
C137 C 0.29237 0.1328 0.54114 0.0
O138 O 0.28324 0.13511 0.56105 0.0
C139 C 0.26647 0.20418 0.56977 0.0
Zn140 Zn 0.14426 0.04358 0.81718 0.0
Zn141 Zn 0.16626 1.01109 0.8126 0.0
O142 O 0.14941 1.00818 0.84646 0.0
O143 O 0.13214 0.03901 0.84775 0.0
O144 O 0.18429 0.98012 0.80845 0.0
O145 O 0.12582 0.03372 0.78469 0.0
O146 O 0.14583 1.00651 0.77624 0.0
C147 C 0.13718 0.02113 0.85731 0.0
C148 C 0.18611 0.06991 0.81757 0.0
O149 O 0.1894 0.04728 0.8156 0.0
O150 O 0.16748 0.07314 0.81916 0.0
C151 C 0.18681 0.96405 0.82284 0.0
O152 O 0.17799 0.96589 0.84301 0.0
C153 C 0.1309 0.01766 0.76906 0.0
Zn154 Zn 0.28824 0.85967 0.9641 0.0
Zn155 Zn 0.27014 0.89544 0.97003 0.0
O156 O 0.24772 0.86846 0.94561 0.0
O157 O 0.2609 0.83557 0.95165 0.0
O158 O 0.25566 0.92415 0.97881 0.0
O159 O 0.3008 0.86314 0.99922 0.0
O160 O 0.27753 0.88698 1.00463 0.0
C161 C 0.24597 0.84476 0.94242 0.0
C162 C 0.30844 0.89852 0.94287 0.0
O163 O 0.29671 0.90999 0.95534 0.0
O164 O 0.3059 0.87499 0.94077 0.0
C165 C 0.24359 0.93341 0.96462 0.0
O166 O 0.23994 0.9245 0.94092 0.0
C167 C 0.29115 0.87543 0.0135 0.0
Zn168 Zn 0.34318 0.36373 0.06907 0.0
Zn169 Zn 0.32118 0.39903 0.07574 0.0
O170 O 0.31073 0.37926 0.04017 0.0
O171 O 0.32555 0.34632 0.03743 0.0
O172 O 0.2998 0.42206 0.07931 0.0
O173 O 0.33731 0.35098 0.09954 0.0
O174 O 0.31711 0.37878 0.10462 0.0
C175 C 0.31306 0.35866 0.02813 0.0
C176 C 0.36843 0.41398 0.07364 0.0
O177 O 0.35142 0.42126 0.07817 0.0
O178 O 0.36846 0.39083 0.06885 0.0
C179 C 0.2926 0.43109 0.06098 0.0
O180 O 0.30062 0.42736 0.0404 0.0
C181 C 0.3246 0.36064 0.11158 0.0
Zn182 Zn 0.81252 0.2073 0.12004 0.0
Zn183 Zn 0.82404 0.16857 0.12569 0.0
O184 O 0.82471 0.17023 0.08868 0.0
O185 O 0.80538 0.19838 0.08373 0.0
O186 O 0.83666 0.13815 0.12835 0.0
O187 O 0.83968 0.23026 0.136 0.0
O188 O 0.84396 0.19685 0.1514 0.0
C189 C 0.81457 0.18171 0.07464 0.0
C190 C 0.78254 0.177 0.14128 0.0
O191 O 0.79341 0.16085 0.13438 0.0
O192 O 0.7891 0.19974 0.13989 0.0
C193 C 0.82906 0.11828 0.11278 0.0
O194 O 0.81167 0.11735 0.09761 0.0
C195 C 0.84923 0.22042 0.15193 0.0
Zn196 Zn 0.13933 0.54633 0.30809 0.0
Zn197 Zn 0.16025 0.51114 0.30772 0.0
O198 O 0.14413 0.51203 0.34165 0.0
O199 O 0.12632 0.54191 0.33828 0.0
O200 O 0.17864 0.48138 0.30751 0.0
O201 O 0.12209 0.53482 0.27464 0.0
O202 O 0.14049 0.505 0.27083 0.0
C203 C 0.13166 0.52585 0.35048 0.0
C204 C 0.18299 0.56801 0.31207 0.0
O205 O 0.1843 0.54484 0.31047 0.0
O206 O 0.16503 0.5739 0.3119 0.0
C207 C 0.17244 0.45804 0.30878 0.0
O208 O 0.15232 0.45009 0.31036 0.0
C209 C 0.12659 0.51642 0.2614 0.0
Zn210 Zn 0.85268 0.87415 0.57674 0.0
Zn211 Zn 0.82334 0.90151 0.57482 0.0
O212 O 0.81681 0.87832 0.54075 0.0
O213 O 0.84328 0.8584 0.54151 0.0
O214 O 0.79957 0.92154 0.57456 0.0
O215 O 0.8411 0.85687 0.60258 0.0
O216 O 0.81891 0.88267 0.60457 0.0
C217 C 0.82666 0.86281 0.53014 0.0
C218 C 0.87109 0.9259 0.58361 0.0
O219 O 0.85176 0.92775 0.57832 0.0
O220 O 0.87564 0.90493 0.5858 0.0
C221 C 0.78944 0.92504 0.5547 0.0
O222 O 0.79504 0.91659 0.53358 0.0
C223 C 0.82652 0.865 0.6124 0.0
Zn224 Zn 0.94009 0.01593 0.27765 0.0
Zn225 Zn 0.91831 0.04874 0.28217 0.0
O226 O 0.93862 0.05425 0.31867 0.0
O227 O 0.95829 0.02658 0.31033 0.0
O228 O 0.90026 0.0796 0.28268 0.0
O229 O 0.95253 0.02021 0.24712 0.0
O230 O 0.9355 0.0512 0.24853 0.0
C231 C 0.95353 0.04304 0.32584 0.0
C232 C 0.89819 0.99003 0.27773 0.0
O233 O 0.89512 1.01275 0.27976 0.0
O234 O 0.9167 0.98651 0.27583 0.0
C235 C 0.89513 0.09323 0.30117 0.0
O236 O 0.90089 0.08859 0.32324 0.0
C237 C 0.94769 0.03823 0.23764 0.0
Zn238 Zn 0.3316 0.73364 0.60637 0.0
Zn239 Zn 0.33563 0.68832 0.61525 0.0
O240 O 0.34649 0.69121 0.58209 0.0
O241 O 0.34516 0.72947 0.57601 0.0
O242 O 0.34163 0.65456 0.61958 0.0
O243 O 0.3502 0.74951 0.63787 0.0
O244 O 0.3528 0.71222 0.64599 0.0
C245 C 0.34998 0.70858 0.56943 0.0
C246 C 0.29176 0.7014 0.61094 0.0
O247 O 0.30344 0.68566 0.61468 0.0
O248 O 0.29988 0.72265 0.60632 0.0
C249 C 0.33427 0.63627 0.60211 0.0
O250 O 0.32095 0.63945 0.58366 0.0
C251 C 0.35717 0.73599 0.65212 0.0
Zn252 Zn 0.44212 0.5145 0.77631 0.0
Zn253 Zn 0.41985 0.54724 0.78226 0.0
O254 O 0.44023 0.55189 0.81862 0.0
O255 O 0.46005 0.52458 0.80935 0.0
O256 O 0.40124 0.57781 0.78326 0.0
O257 O 0.45444 0.51965 0.7457 0.0
O258 O 0.43694 0.55031 0.7486 0.0
C259 C 0.4551 0.54042 0.82536 0.0
C260 C 0.40019 0.48844 0.77693 0.0
O261 O 0.39702 0.51112 0.77965 0.0
O262 O 0.41861 0.48506 0.77419 0.0
C263 C 0.3951 0.59047 0.80167 0.0
O264 O 0.40014 0.58505 0.82359 0.0
C265 C 0.44924 0.53797 0.7371 0.0
Zn266 Zn 0.64319 0.05005 0.80761 0.0
Zn267 Zn 0.66061 1.01233 0.80672 0.0
O268 O 0.64345 0.01461 0.83973 0.0
O269 O 0.62681 0.0453 0.83532 0.0
O270 O 0.67523 0.97934 0.80684 0.0
O271 O 0.62916 0.04249 0.77256 0.0
O272 O 0.64149 1.00772 0.76973 0.0
C273 C 0.63092 0.0288 0.84766 0.0
C274 C 0.68717 0.06792 0.81356 0.0
O275 O 0.68666 0.04421 0.80978 0.0
O276 O 0.67013 0.0757 0.81502 0.0
C277 C 0.69532 0.97953 0.80874 0.0
O278 O 0.70827 1.00129 0.81072 0.0
C279 C 0.63096 0.02236 0.75964 0.0
Zn280 Zn 0.72841 0.68993 0.0189 0.0
Zn281 Zn 0.75869 0.6644 0.02127 0.0
O282 O 0.76429 0.68576 0.9935 0.0
O283 O 0.74078 0.70992 0.99525 0.0
O284 O 0.78256 0.64463 0.02162 0.0
O285 O 0.73621 0.70358 0.05486 0.0
O286 O 0.7638 0.68549 0.05628 0.0
C287 C 0.75644 0.70358 0.98632 0.0
C288 C 0.71104 0.63827 0.00944 0.0
O289 O 0.73047 0.63733 0.01567 0.0
O290 O 0.70592 0.65897 1.00731 0.0
C291 C 0.80184 0.65616 0.02773 0.0
O292 O 0.80591 0.68067 0.03382 0.0
C293 C 0.75277 0.6996 0.06679 0.0
Zn294 Zn 0.9441 0.52634 0.79448 0.0
Zn295 Zn 0.92307 0.56164 0.79452 0.0
O296 O 0.94222 0.56734 0.83163 0.0
O297 O 0.96196 0.53887 0.8274 0.0
O298 O 0.9041 0.59094 0.79462 0.0
O299 O 0.95619 0.53005 0.76347 0.0
O300 O 0.94035 0.56185 0.76152 0.0
C301 C 0.95664 0.5565 0.84087 0.0
C302 C 0.90064 0.50476 0.79164 0.0
O303 O 0.89919 0.52767 0.79135 0.0
O304 O 0.91869 0.49902 0.7932 0.0
C305 C 0.90991 0.61448 0.79397 0.0
O306 O 0.93008 0.62315 0.79317 0.0
C307 C 0.95212 0.54735 0.75222 0.0
Zn308 Zn 0.77154 0.33967 0.49627 0.0
Zn309 Zn 0.76173 0.38113 0.48379 0.0
O310 O 0.74351 0.35285 0.45723 0.0
O311 O 0.74767 0.31859 0.47141 0.0
O312 O 0.75274 0.41315 0.47764 0.0
O313 O 0.76774 0.35027 0.53119 0.0
O314 O 0.75512 0.38166 0.51913 0.0
C315 C 0.73894 0.32909 0.45538 0.0
C316 C 0.80658 0.37138 0.48191 0.0
O317 O 0.79378 0.38641 0.48122 0.0
O318 O 0.8004 0.34961 0.4865 0.0
C319 C 0.7355 0.41387 0.46448 0.0
O320 O 0.72394 0.39302 0.45138 0.0
C321 C 0.7594 0.36908 0.53579 0.0
Zn322 Zn 0.64165 0.54357 0.31996 0.0
Zn323 Zn 0.66525 0.51155 0.31521 0.0
O324 O 0.64884 0.50796 0.34914 0.0
O325 O 0.63023 0.53763 0.35108 0.0
O326 O 0.68422 0.48167 0.31091 0.0
O327 O 0.62357 0.53205 0.28689 0.0
O328 O 0.64458 0.50578 0.27919 0.0
C329 C 0.63617 0.51998 0.3603 0.0
C330 C 0.68356 0.57069 0.31971 0.0
O331 O 0.68731 0.54826 0.31768 0.0
O332 O 0.66485 0.57347 0.32167 0.0
C333 C 0.68666 0.46531 0.32495 0.0
O334 O 0.67718 0.46626 0.34466 0.0
C335 C 0.62917 0.51602 0.27165 0.0
C336 C 0.10026 0.06229 0.07649 0.0
Eu337 Eu 0.05999 0.04664 0.05946 0.0
C338 C 0.11807 0.05531 0.06487 0.0
C339 C 0.13905 0.06253 0.07685 0.0
C340 C 0.15544 0.0541 0.0658 0.0
C341 C 0.151 0.03832 0.04263 0.0
C342 C 0.12991 0.03158 0.03065 0.0
C343 C 0.11368 0.03995 0.04168 0.0
C344 C 0.02751 0.0483 0.08833 0.0
C345 C 0.04966 0.98881 0.06057 0.0
C346 C 0.98217 1.00145 0.0154 0.0
Eu347 Eu 0.02218 0.01853 0.03303 0.0
C348 C 0.96315 1.00392 0.02696 0.0
C349 C 0.94497 1.00774 0.01298 0.0
C350 C 0.92824 0.01435 0.02455 0.0
C351 C 0.92947 0.01735 0.05035 0.0
C352 C 0.94738 1.01241 0.06416 0.0
C353 C 0.96408 1.00588 0.05259 0.0
C354 C 0.05471 0.01645 1.00441 0.0
C355 C 0.03216 0.07703 0.0328 0.0
O356 O 0.0891 0.07524 0.06442 0.0
O357 O 0.0882 0.04394 0.08378 0.0
O358 O 0.04271 0.06696 0.08752 0.0
O359 O 0.03034 0.02934 0.07418 0.0
O360 O 0.06443 1.00659 0.05602 0.0
O361 O 0.02987 0.9912 0.05702 0.0
O362 O 0.9944 0.98782 0.02479 0.0
O363 O 0.99303 0.02241 0.01129 0.0
O364 O 0.03943 0.99795 1.00525 0.0
O365 O 0.05185 0.03559 0.01831 0.0
O366 O 0.0173 0.05845 0.03578 0.0
O367 O 0.05208 0.07542 0.03747 0.0
H368 H 0.14271 0.07432 0.09481 0.0
H369 H 0.17153 0.05979 0.07544 0.0
H370 H 0.12575 0.01908 0.01309 0.0
H371 H 0.09752 0.03394 0.03234 0.0
H372 H 0.9441 1.00669 0.99323 0.0
H373 H 0.91485 0.01835 0.01336 0.0
H374 H 0.94876 0.01422 0.08401 0.0
H375 H 0.97807 1.00327 0.06378 0.0
C376 C 0.30626 0.79607 0.37909 0.0
Eu377 Eu 0.29328 0.79376 0.33277 0.0
C378 C 0.31632 0.77931 0.39262 0.0
C379 C 0.33193 0.78951 0.41297 0.0
C380 C 0.34254 0.77395 0.42516 0.0
C381 C 0.33785 0.74785 0.41704 0.0
C382 C 0.32251 0.73778 0.39623 0.0
C383 C 0.31177 0.75336 0.38422 0.0
C384 C 0.25739 0.80022 0.30701 0.0
C385 C 0.27428 0.73453 0.30518 0.0
C386 C 0.27212 0.77453 0.22782 0.0
Eu387 Eu 0.28807 0.77831 0.27346 0.0
C388 C 0.27748 0.78765 0.20767 0.0
C389 C 0.2977 0.80267 0.20894 0.0
C390 C 0.30189 0.81732 0.19088 0.0
C391 C 0.2858 0.81736 0.17161 0.0
C392 C 0.26565 0.80206 0.17035 0.0
C393 C 0.26154 0.7873 0.18828 0.0
C394 C 0.3267 0.77458 0.29656 0.0
C395 C 0.30994 0.83665 0.3004 0.0
O396 O 0.31794 0.80708 0.36447 0.0
O397 O 0.28634 0.78772 0.36913 0.0
O398 O 0.26591 0.81419 0.32812 0.0
O399 O 0.26724 0.7829 0.30206 0.0
O400 O 0.28324 0.75069 0.32564 0.0
O401 O 0.27279 0.74129 0.28313 0.0
O402 O 0.26617 0.78834 0.24596 0.0
O403 O 0.28513 0.76053 0.23521 0.0
O404 O 0.32144 0.76865 0.27275 0.0
O405 O 0.31165 0.78245 0.30496 0.0
O406 O 0.30156 0.82052 0.27981 0.0
O407 O 0.30971 0.83032 0.32262 0.0
H408 H 0.33584 0.80953 0.41951 0.0
H409 H 0.35391 0.78236 0.44144 0.0
H410 H 0.31864 0.71784 0.38935 0.0
H411 H 0.30004 0.7451 0.36827 0.0
H412 H 0.31006 0.80346 0.22415 0.0
H413 H 0.31751 0.82905 0.19229 0.0
H414 H 0.25308 0.80146 0.15546 0.0
H415 H 0.24578 0.77602 0.18729 0.0
C416 C 0.48351 0.03441 0.56111 0.0
Eu417 Eu 0.52297 0.03395 0.5553 0.0
C418 C 0.46596 0.04813 0.55745 0.0
C419 C 0.4602 0.06226 0.57782 0.0
C420 C 0.44201 0.07254 0.57535 0.0
C421 C 0.42894 0.06881 0.55247 0.0
C422 C 0.4351 0.05535 0.5319 0.0
C423 C 0.45334 0.04508 0.53436 0.0
C424 C 0.55249 0.02207 0.58948 0.0
C425 C 0.55241 0.0902 0.56198 0.0
C426 C 0.60868 0.04142 0.54246 0.0
Eu427 Eu 0.56806 0.04042 0.54163 0.0
C428 C 0.62553 0.02743 0.54852 0.0
C429 C 0.62344 1.00204 0.53842 0.0
C430 C 0.64068 0.99016 0.54145 0.0
C431 C 0.66037 1.00333 0.55474 0.0
C432 C 0.6621 0.0284 0.56577 0.0
C433 C 0.6449 0.04032 0.56258 0.0
C434 C 0.54113 0.04722 0.50141 0.0
C435 C 0.53769 0.98634 0.52979 0.0
O436 O 0.48911 0.02238 0.54162 0.0
O437 O 0.49972 0.04468 0.57817 0.0
O438 O 0.53289 1.0102 0.58345 0.0
O439 O 0.55537 0.03999 0.57748 0.0
O440 O 0.53327 0.07631 0.56124 0.0
O441 O 0.56873 0.08056 0.55616 0.0
O442 O 0.60087 0.0528 0.56059 0.0
O443 O 0.59424 0.03129 0.52342 0.0
O444 O 0.56146 0.04906 0.50277 0.0
O445 O 0.53607 0.04234 0.52184 0.0
O446 O 0.55719 0.99864 0.53843 0.0
O447 O 0.52138 0.99747 0.5303 0.0
H448 H 0.46944 0.06479 0.59589 0.0
H449 H 0.43803 0.08316 0.59154 0.0
H450 H 0.42537 0.05187 0.51403 0.0
H451 H 0.45713 0.03408 0.51829 0.0
H452 H 0.60868 0.99152 0.52757 0.0
H453 H 0.63868 0.97073 0.53305 0.0
H454 H 0.67705 0.03916 0.57596 0.0
H455 H 0.64697 0.05994 0.57042 0.0
C456 C 0.35913 0.28074 0.81094 0.0
Eu457 Eu 0.31787 0.27547 0.80456 0.0
C458 C 0.37824 0.28856 0.79962 0.0
C459 C 0.39804 0.287 0.81173 0.0
C460 C 0.41627 0.2917 0.8005 0.0
C461 C 0.41513 0.29811 0.77681 0.0
C462 C 0.39523 0.30028 0.76495 0.0
C463 C 0.37693 0.29549 0.77624 0.0
C464 C 0.28828 0.23324 0.80888 0.0
C465 C 0.29304 0.26741 0.74864 0.0
C466 C 0.2279 0.27871 0.78826 0.0
Eu467 Eu 0.26914 0.28426 0.79463 0.0
C468 C 0.20899 0.27117 0.79997 0.0
C469 C 0.18913 0.27301 0.78825 0.0
C470 C 0.17116 0.26891 0.80001 0.0
C471 C 0.17263 0.26282 0.82384 0.0
C472 C 0.19257 0.26028 0.83526 0.0
C473 C 0.21061 0.26448 0.82345 0.0
C474 C 0.29874 0.32658 0.79074 0.0
C475 C 0.2942 0.29426 0.85008 0.0
O476 O 0.34938 0.29809 0.81989 0.0
O477 O 0.346 0.26028 0.79948 0.0
O478 O 0.30871 0.23516 0.8121 0.0
O479 O 0.28514 0.25416 0.80415 0.0
O480 O 0.31149 0.27132 0.76317 0.0
O481 O 0.27478 0.26907 0.75668 0.0
O482 O 0.23772 0.26125 0.77964 0.0
O483 O 0.24096 0.29943 0.79926 0.0
O484 O 0.27834 0.32493 0.78814 0.0
O485 O 0.30185 0.30555 0.79515 0.0
O486 O 0.27556 0.28772 0.83582 0.0
O487 O 0.31258 0.2937 0.8419 0.0
H488 H 0.39932 0.28142 0.82969 0.0
H489 H 0.43113 0.28941 0.8101 0.0
H490 H 0.39374 0.3055 0.74686 0.0
H491 H 0.36174 0.29669 0.76654 0.0
H492 H 0.18763 0.27844 0.77023 0.0
H493 H 0.15627 0.27148 0.79073 0.0
H494 H 0.1943 0.25529 0.85344 0.0
H495 H 0.22586 0.26309 0.83284 0.0
C496 C 0.02186 0.95238 0.52991 0.0
Eu497 Eu 0.03824 0.99974 0.5372 0.0
C498 C 0.02846 0.93106 0.539 0.0
C499 C 0.01371 0.9086 0.53673 0.0
C500 C 0.01899 0.8893 0.5483 0.0
C501 C 0.03911 0.89227 0.56235 0.0
C502 C 0.05413 0.91456 0.56377 0.0
C503 C 0.0488 0.93386 0.55223 0.0
C504 C 0.07861 0.02406 0.53546 0.0
C505 C 0.06243 0.02305 0.59456 0.0
C506 C 0.05598 0.10626 0.56223 0.0
Eu507 Eu 0.04506 0.05809 0.55767 0.0
C508 C 0.05157 0.12346 0.54549 0.0
C509 C 0.03247 0.11807 0.5291 0.0
C510 C 0.02896 0.13354 0.51197 0.0
C511 C 0.04454 0.15458 0.51092 0.0
C512 C 0.06371 0.15982 0.52728 0.0
C513 C 0.0672 0.14433 0.54443 0.0
C514 C 1.00955 0.02904 0.56651 0.0
C515 C 0.0227 0.03548 0.49929 0.0
O516 O 0.01697 0.96865 0.54689 0.0
O517 O 0.03355 0.96281 0.51489 0.0
O518 O 0.07204 1.00025 0.52713 0.0
O519 O 0.06337 0.03223 0.54303 0.0
O520 O 0.0521 1.00298 0.57824 0.0
O521 O 0.06358 0.04617 0.58977 0.0
O522 O 0.06817 0.09113 0.55472 0.0
O523 O 0.03965 0.09505 0.57121 0.0
O524 O 0.02016 0.04861 0.58199 0.0
O525 O 0.0176 0.02658 0.54685 0.0
O526 O 0.02981 0.05521 0.51722 0.0
O527 O 0.02393 1.01239 0.50275 0.0
H528 H 0.99787 0.90635 0.5268 0.0
H529 H 1.00695 0.87255 0.54717 0.0
H530 H 0.0698 0.91729 0.57425 0.0
H531 H 0.0603 0.95128 0.55429 0.0
H532 H 0.02031 0.1018 0.52942 0.0
H533 H 0.01411 0.12899 0.49949 0.0
H534 H 0.07585 0.17617 0.52715 0.0
H535 H 0.08212 0.14855 0.55677 0.0
C536 C 0.27685 0.75632 0.72745 0.0
Eu537 Eu 0.28177 0.76904 0.77514 0.0
C538 C 0.25867 0.73913 0.71156 0.0
C539 C 0.2466 0.72013 0.72139 0.0
C540 C 0.22678 0.7073 0.70904 0.0
C541 C 0.21846 0.71325 0.6866 0.0
C542 C 0.23139 0.7308 0.67576 0.0
C543 C 0.25133 0.74376 0.68824 0.0
C544 C 0.24956 0.75138 0.79982 0.0
C545 C 0.2665 0.81675 0.80327 0.0
C546 C 0.2996 0.79266 0.87777 0.0
Eu547 Eu 0.29336 0.78033 0.83026 0.0
C548 C 0.32024 0.79866 0.89379 0.0
C549 C 0.33608 0.78553 0.8878 0.0
C550 C 0.35735 0.79583 0.8968 0.0
C551 C 0.36323 0.81951 0.91183 0.0
C552 C 0.34725 0.8315 0.91979 0.0
C553 C 0.32587 0.82116 0.91071 0.0
C554 C 0.32556 0.79671 0.80545 0.0
C555 C 0.31025 0.73333 0.80267 0.0
O556 O 0.27258 0.77702 0.73841 0.0
O557 O 0.28823 0.74612 0.7425 0.0
O558 O 0.2468 0.75805 0.77854 0.0
O559 O 0.26896 0.75161 0.80543 0.0
O560 O 0.27362 0.80834 0.78272 0.0
O561 O 0.26937 0.80559 0.82273 0.0
O562 O 0.29291 0.7694 0.86656 0.0
O563 O 0.29763 0.80872 0.86296 0.0
O564 O 0.32816 0.78883 0.82616 0.0
O565 O 0.30634 0.79756 0.79991 0.0
O566 O 0.30502 0.74328 0.82386 0.0
O567 O 0.30491 0.74223 0.78225 0.0
H568 H 0.25182 0.71635 0.73948 0.0
H569 H 0.2173 0.69425 0.71824 0.0
H570 H 0.2256 0.73556 0.65832 0.0
H571 H 0.26041 0.75835 0.68036 0.0
H572 H 0.33226 0.76824 0.87462 0.0
H573 H 0.36931 0.78585 0.8909 0.0
H574 H 0.35133 0.84966 0.93155 0.0
H575 H 0.31391 0.83171 0.91529 0.0
C576 C 0.56656 0.11713 0.07382 0.0
Eu577 Eu 0.5534 0.06957 0.05725 0.0
C578 C 0.58574 0.12938 0.09138 0.0
C579 C 0.59178 0.11841 0.11173 0.0
C580 C 0.61215 0.12622 0.12504 0.0
C581 C 0.62697 0.14496 0.11812 0.0
C582 C 0.62039 0.15715 0.09888 0.0
C583 C 0.59993 0.14939 0.0856 0.0
C584 C 0.57891 0.03795 0.06994 0.0
C585 C 0.56415 0.04141 1.00712 0.0
C586 C 0.5199 0.96793 0.02399 0.0
Eu587 Eu 0.53293 0.01516 0.0417 0.0
C588 C 0.49823 0.95541 0.01219 0.0
C589 C 0.49478 0.94434 0.98722 0.0
C590 C 0.47446 0.93957 0.97358 0.0
C591 C 0.45731 0.94577 0.98478 0.0
C592 C 0.4605 0.95467 0.01025 0.0
C593 C 0.48075 0.95955 0.02379 0.0
C594 C 0.5068 0.04693 0.03051 0.0
C595 C 0.52146 0.04264 0.09234 0.0
O596 O 0.57021 0.10635 0.05265 0.0
O597 O 0.55167 0.1031 0.08254 0.0
O598 O 0.58576 0.05948 0.06413 0.0
O599 O 0.55933 0.03505 0.07067 0.0
O600 O 0.55953 0.06279 0.0171 0.0
O601 O 0.55904 0.02129 0.01731 0.0
O602 O 0.52257 0.97672 0.04763 0.0
O603 O 0.52942 0.98397 0.01165 0.0
O604 O 0.5004 0.02441 0.03436 0.0
O605 O 0.52637 0.05002 0.02935 0.0
O606 O 0.52334 0.02069 0.08025 0.0
O607 O 0.52963 0.06367 0.08484 0.0
H608 H 0.58121 0.10277 0.11651 0.0
H609 H 0.61663 0.11678 0.14002 0.0
H610 H 0.63147 0.17152 0.09295 0.0
H611 H 0.59567 0.15791 0.06984 0.0
H612 H 0.50804 0.94113 0.97783 0.0
H613 H 0.47246 0.93246 0.95403 0.0
H614 H 0.44746 0.95884 0.01958 0.0
H615 H 0.48283 0.96814 0.04298 0.0
C616 C 0.34494 0.32641 0.31348 0.0
Eu617 Eu 0.30642 0.30094 0.30913 0.0
C618 C 0.36543 0.31898 0.31839 0.0
C619 C 0.36724 0.29952 0.33174 0.0
C620 C 0.38549 0.28941 0.33272 0.0
C621 C 0.40214 0.29838 0.32011 0.0
C622 C 0.40064 0.31871 0.30777 0.0
C623 C 0.38242 0.3289 0.30693 0.0
C624 C 0.28802 0.28177 0.34533 0.0
C625 C 0.30884 0.24005 0.29423 0.0
C626 C 0.2276 0.23933 0.29026 0.0
Eu627 Eu 0.26629 0.26286 0.29161 0.0
C628 C 0.2102 0.24983 0.29992 0.0
C629 C 0.19157 0.2498 0.28419 0.0
C630 C 0.17673 0.26349 0.29229 0.0
C631 C 0.18039 0.27753 0.31621 0.0
C632 C 0.19859 0.27663 0.33219 0.0
C633 C 0.21333 0.26303 0.32416 0.0
C634 C 0.28486 0.28119 0.25529 0.0
C635 C 0.26402 0.32321 0.30641 0.0
O636 O 0.33369 0.3156 0.29222 0.0
O637 O 0.33358 0.32697 0.33152 0.0
O638 O 0.29716 0.30517 0.34755 0.0
O639 O 0.28981 0.26991 0.32488 0.0
O640 O 0.31893 0.26402 0.29986 0.0
O641 O 0.28775 0.23428 0.29087 0.0
O642 O 0.24324 0.23762 0.30673 0.0
O643 O 0.23434 0.24822 0.27133 0.0
O644 O 0.27559 0.2578 0.25343 0.0
O645 O 0.28305 0.29366 0.27553 0.0
O646 O 0.25462 0.29932 0.30503 0.0
O647 O 0.2847 0.32895 0.30566 0.0
H648 H 0.35417 0.29138 0.34051 0.0
H649 H 0.38622 0.27398 0.34261 0.0
H650 H 0.41298 0.32584 0.29751 0.0
H651 H 0.38117 0.34368 0.29627 0.0
H652 H 0.18891 0.24001 0.26536 0.0
H653 H 0.16285 0.26386 0.27955 0.0
H654 H 0.20165 0.28682 0.35089 0.0
H655 H 0.22758 0.2637 0.33678 0.0
C656 C 0.53352 0.44697 0.02793 0.0
Eu657 Eu 0.54222 0.49571 0.03656 0.0
C658 C 0.53263 0.42692 0.04263 0.0
C659 C 0.51915 0.40371 0.03333 0.0
C660 C 0.51677 0.38501 0.04783 0.0
C661 C 0.52781 0.38931 0.07191 0.0
C662 C 0.54159 0.41252 0.08101 0.0
C663 C 0.54395 0.43121 0.06648 0.0
C664 C 0.57702 0.52598 0.02728 0.0
C665 C 0.5617 0.51787 0.0958 0.0
C666 C 0.55478 0.59809 0.06167 0.0
Eu667 Eu 0.54552 0.54979 0.05626 0.0
C668 C 0.55466 0.61484 0.0434 0.0
C669 C 0.54232 0.63316 0.04542 0.0
C670 C 0.54036 0.64762 0.02703 0.0
C671 C 0.55086 0.64412 1.0064 0.0
C672 C 0.56354 0.62612 1.00455 0.0
C673 C 0.56529 0.6114 0.02281 0.0
C674 C 0.50989 0.51974 0.06418 0.0
C675 C 0.52508 0.52834 0.99761 0.0
O676 O 0.51917 0.46057 0.03069 0.0
O677 O 0.55232 0.46036 0.02743 0.0
O678 O 0.5661 0.50697 0.01147 0.0
O679 O 0.56953 0.52759 0.0473 0.0
O680 O 0.5538 0.49794 0.07832 0.0
O681 O 0.5615 0.54069 0.09123 0.0
O682 O 0.56918 0.58427 0.06126 0.0
O683 O 0.53611 0.5857 0.06423 0.0
O684 O 0.52013 0.53915 0.08005 0.0
O685 O 0.51832 0.51806 0.04482 0.0
O686 O 0.53368 0.54809 0.01491 0.0
O687 O 0.52507 0.50539 1.00213 0.0
H688 H 0.51023 0.40018 0.01497 0.0
H689 H 0.50627 0.36719 0.04019 0.0
H690 H 0.55013 0.41649 0.09957 0.0
H691 H 0.55432 0.4491 0.07402 0.0
H692 H 0.53392 0.63599 0.06105 0.0
H693 H 0.53079 0.66176 0.02905 0.0
H694 H 0.5718 0.62319 0.98881 0.0
H695 H 0.57469 0.59711 0.02058 0.0
C696 C 0.77862 0.26033 0.22683 0.0
Eu697 Eu 0.78601 0.27495 0.27413 0.0
C698 C 0.75902 0.24353 0.21353 0.0
C699 C 0.74928 0.2237 0.22431 0.0
C700 C 0.72793 0.21268 0.21686 0.0
C701 C 0.71584 0.22121 0.19842 0.0
C702 C 0.72624 0.23916 0.18581 0.0
C703 C 0.74765 0.2504 0.19347 0.0
C704 C 0.75521 0.2574 0.30059 0.0
C705 C 0.77037 0.32226 0.30161 0.0
C706 C 0.80689 0.30369 0.37532 0.0
Eu707 Eu 0.7994 0.28785 0.32819 0.0
C708 C 0.82764 0.31559 0.39009 0.0
C709 C 0.84497 0.30372 0.38865 0.0
C710 C 0.86564 0.31763 0.39497 0.0
C711 C 0.86944 0.3437 0.4026 0.0
C712 C 0.85216 0.3551 0.4066 0.0
C713 C 0.8314 0.3411 0.40047 0.0
C714 C 0.8304 0.30387 0.3013 0.0
C715 C 0.8146 0.23957 0.3015 0.0
O716 O 0.77597 0.28208 0.23732 0.0
O717 O 0.79063 0.25042 0.24148 0.0
O718 O 0.75149 0.26462 0.27973 0.0
O719 O 0.77469 0.25785 0.30536 0.0
O720 O 0.77726 0.31387 0.28095 0.0
O721 O 0.77396 0.31141 0.3211 0.0
O722 O 0.80405 0.27995 0.36573 0.0
O723 O 0.80037 0.31693 0.35945 0.0
O724 O 0.83387 0.2966 0.3222 0.0
O725 O 0.81106 0.30445 0.29679 0.0
O726 O 0.80951 0.24988 0.32261 0.0
O727 O 0.8095 0.24853 0.28106 0.0
H728 H 0.75758 0.21814 0.24002 0.0
H729 H 0.72058 0.19906 0.22713 0.0
H730 H 0.71755 0.24561 0.17099 0.0
H731 H 0.75484 0.26565 0.18491 0.0
H732 H 0.84267 0.28407 0.38086 0.0
H733 H 0.87867 0.3081 0.39267 0.0
H734 H 0.85454 0.37509 0.41277 0.0
H735 H 0.81828 0.35066 0.40177 0.0
C736 C 0.07017 0.61732 0.57676 0.0
Eu737 Eu 0.05807 0.56913 0.56264 0.0
C738 C 0.09129 0.63308 0.58728 0.0
C739 C 0.10181 0.63021 0.61004 0.0
C740 C 0.12298 0.64213 0.61802 0.0
C741 C 0.13412 0.65718 0.60345 0.0
C742 C 0.12318 0.66138 0.58152 0.0
C743 C 0.10197 0.64945 0.57353 0.0
C744 C 0.08494 0.53916 0.57595 0.0
C745 C 0.06948 0.53918 0.51311 0.0
C746 C 0.0276 0.46526 0.53619 0.0
Eu747 Eu 0.03901 0.51346 0.54952 0.0
C748 C 1.00679 0.45075 0.52356 0.0
C749 C 0.99543 0.46016 0.50515 0.0
C750 C 0.97432 0.44907 0.49605 0.0
C751 C 0.96401 0.42846 0.5053 0.0
C752 C 0.97571 0.41822 0.52279 0.0
C753 C 0.99695 0.42934 0.5319 0.0
C754 C 1.01181 0.54301 0.53564 0.0
C755 C 0.02636 0.54337 0.59813 0.0
O756 O 0.06796 0.60653 0.55374 0.0
O757 O 0.06144 0.60224 0.59052 0.0
O758 O 0.091 0.56059 0.56944 0.0
O759 O 0.06541 0.53574 0.57717 0.0
O760 O 0.06584 0.56108 0.52328 0.0
O761 O 0.06365 0.51897 0.52304 0.0
O762 O 0.02775 0.47651 0.55864 0.0
O763 O 0.03838 0.47974 0.52336 0.0
O764 O 1.00591 0.52077 0.54044 0.0
O765 O 0.03149 0.5469 0.53524 0.0
O766 O 0.03015 0.52149 0.58825 0.0
O767 O 0.03286 0.56367 0.58856 0.0
H768 H 0.09403 0.61794 0.6213 0.0
H769 H 0.13086 0.63889 0.63521 0.0
H770 H 0.13133 0.67276 0.56979 0.0
H771 H 0.09422 0.65211 0.55601 0.0
H772 H 1.00256 0.47676 0.49844 0.0
H773 H 0.96591 0.45706 0.4822 0.0
H774 H 0.96817 0.40245 0.53041 0.0
H775 H 1.00536 0.42194 0.54624 0.0
C776 C 0.85434 0.78007 0.30252 0.0
Eu777 Eu 0.81335 0.77549 0.30041 0.0
C778 C 0.87281 0.78886 0.29029 0.0
C779 C 0.89087 0.80498 0.30434 0.0
C780 C 0.90961 0.81084 0.29421 0.0
C781 C 0.91076 0.80055 0.26979 0.0
C782 C 0.89239 0.78515 0.25545 0.0
C783 C 0.87361 0.7794 0.26555 0.0
C784 C 0.7839 0.73386 0.3062 0.0
C785 C 0.78452 0.76858 0.24718 0.0
C786 C 0.72485 0.78437 0.2938 0.0
Eu787 Eu 0.76574 0.7873 0.29699 0.0
C788 C 0.70492 0.7765 0.30365 0.0
C789 C 0.68572 0.77143 0.28754 0.0
C790 C 0.66631 0.76793 0.29657 0.0
C791 C 0.66564 0.76937 0.32196 0.0
C792 C 0.68491 0.77319 0.33801 0.0
C793 C 0.70441 0.77686 0.32894 0.0
C794 C 0.79542 0.82877 0.29111 0.0
C795 C 0.79432 0.79312 0.35029 0.0
O796 O 0.84558 0.7969 0.31439 0.0
O797 O 0.84048 0.76017 0.29103 0.0
O798 O 0.80413 0.73487 0.30667 0.0
O799 O 0.78076 0.75528 0.30298 0.0
O800 O 0.80389 0.77221 0.25955 0.0
O801 O 0.76757 0.77117 0.25778 0.0
O802 O 0.73327 0.76727 0.28183 0.0
O803 O 0.739 0.80299 0.30714 0.0
O804 O 0.77525 0.82799 0.29072 0.0
O805 O 0.79826 0.80729 0.29433 0.0
O806 O 0.775 0.78987 0.33786 0.0
O807 O 0.81134 0.79073 0.33975 0.0
H808 H 0.89073 0.81235 0.3235 0.0
H809 H 0.92347 0.82259 0.30586 0.0
H810 H 0.89261 0.77724 0.23647 0.0
H811 H 0.85993 0.76697 0.25418 0.0
H812 H 0.68575 0.77115 0.26798 0.0
H813 H 0.65178 0.76461 0.28367 0.0
H814 H 0.68496 0.77451 0.35767 0.0
H815 H 0.71906 0.78087 0.34174 0.0
C816 C 0.82039 0.29097 0.87396 0.0
Eu817 Eu 0.80189 0.29143 0.82999 0.0
C818 C 0.8198 0.27176 0.88962 0.0
C819 C 0.80264 0.25133 0.88545 0.0
C820 C 0.80243 0.23245 0.89964 0.0
C821 C 0.81922 0.23394 0.91864 0.0
C822 C 0.83654 0.2544 0.92254 0.0
C823 C 0.83686 0.27309 0.90802 0.0
C824 C 0.76373 0.30196 0.81562 0.0
C825 C 0.77707 0.23339 0.80406 0.0
C826 C 0.76597 0.27878 0.7318 0.0
Eu827 Eu 0.78662 0.27944 0.77498 0.0
C828 C 0.7591 0.29747 0.71834 0.0
C829 C 0.76337 0.32284 0.72915 0.0
C830 C 0.75768 0.34066 0.71562 0.0
C831 C 0.74739 0.33323 0.69123 0.0
C832 C 0.7422 0.30761 0.681 0.0
C833 C 0.74807 0.28988 0.69446 0.0
C834 C 0.82476 0.26879 0.78902 0.0
C835 C 0.81243 0.33692 0.80082 0.0
O836 O 0.82912 0.28637 0.85414 0.0
O837 O 0.80284 0.29925 0.86972 0.0
O838 O 0.77759 0.3164 0.8331 0.0
O839 O 0.77039 0.28282 0.8075 0.0
O840 O 0.78829 0.24888 0.82377 0.0
O841 O 0.77333 0.24111 0.78284 0.0
O842 O 0.75676 0.27545 0.75115 0.0
O843 O 0.78647 0.27966 0.73572 0.0
O844 O 0.81106 0.25479 0.77107 0.0
O845 O 0.81813 0.28789 0.7974 0.0
O846 O 0.79902 0.32242 0.78202 0.0
O847 O 0.81791 0.32812 0.821 0.0
H848 H 0.78933 0.2501 0.87133 0.0
H849 H 0.78897 0.21685 0.89589 0.0
H850 H 0.84956 0.25643 0.93729 0.0
H851 H 0.85031 0.2887 0.91131 0.0
H852 H 0.77146 0.32894 0.74781 0.0
H853 H 0.76183 0.36026 0.72394 0.0
H854 H 0.73462 0.30134 0.6621 0.0
H855 H 0.74447 0.27031 0.686 0.0
C856 C 0.85306 0.83312 0.81035 0.0
Eu857 Eu 0.81476 0.80852 0.81016 0.0
C858 C 0.87373 0.82559 0.81233 0.0
C859 C 0.87748 0.80686 0.82591 0.0
C860 C 0.8959 0.7972 0.82479 0.0
C861 C 0.91079 0.80586 0.80982 0.0
C862 C 0.90725 0.82527 0.79694 0.0
C863 C 0.88891 0.83504 0.79822 0.0
C864 C 0.79879 0.79032 0.84825 0.0
C865 C 0.81638 0.74745 0.79635 0.0
C866 C 0.73551 0.74676 0.79788 0.0
Eu867 Eu 0.77373 0.77037 0.79612 0.0
C868 C 0.71664 0.75656 0.80384 0.0
C869 C 0.69671 0.74678 0.78956 0.0
C870 C 0.67908 0.757 0.79459 0.0
C871 C 0.68113 0.77726 0.81394 0.0
C872 C 0.70115 0.7869 0.82821 0.0
C873 C 0.71867 0.77674 0.82319 0.0
C874 C 0.79001 0.78722 0.75782 0.0
C875 C 0.77253 0.83163 0.80877 0.0
O876 O 0.84008 0.82262 0.79012 0.0
O877 O 0.84359 0.8337 0.82998 0.0
O878 O 0.80815 0.81358 0.84981 0.0
O879 O 0.79923 0.77818 0.82746 0.0
O880 O 0.82636 0.7714 0.79983 0.0
O881 O 0.7954 0.74169 0.79551 0.0
O882 O 0.75116 0.75032 0.81607 0.0
O883 O 0.74208 0.75136 0.77726 0.0
O884 O 0.78064 0.76402 0.75693 0.0
O885 O 0.78948 0.80026 0.77825 0.0
O886 O 0.76248 0.8079 0.80714 0.0
O887 O 0.79328 0.83679 0.8082 0.0
H888 H 0.86584 0.79905 0.83671 0.0
H889 H 0.89818 0.7825 0.83519 0.0
H890 H 0.91811 0.83212 0.78486 0.0
H891 H 0.88614 0.84924 0.78735 0.0
H892 H 0.69483 0.73139 0.77441 0.0
H893 H 0.66392 0.74924 0.78312 0.0
H894 H 0.70329 0.80214 0.84355 0.0
H895 H 0.73386 0.78481 0.83449 0.0
C896 C 0.60599 0.56418 0.56688 0.0
Eu897 Eu 0.56549 0.54622 0.56175 0.0
C898 C 0.62185 0.55396 0.5539 0.0
C899 C 0.64264 0.56757 0.5556 0.0
C900 C 0.65727 0.55743 0.5426 0.0
C901 C 0.65119 0.53364 0.52759 0.0
C902 C 0.63026 0.52025 0.52598 0.0
C903 C 0.6158 0.53028 0.53901 0.0
C904 C 0.53564 0.54852 0.59419 0.0
C905 C 0.55326 0.48735 0.56616 0.0
C906 C 0.47988 0.49371 0.52888 0.0
Eu907 Eu 0.52033 0.51275 0.53602 0.0
C908 C 0.46247 0.50259 0.53978 0.0
C909 C 0.44163 0.48862 0.53405 0.0
C910 C 0.42509 0.49787 0.54389 0.0
C911 C 0.42921 0.5212 0.55965 0.0
C912 C 0.45026 0.53484 0.56563 0.0
C913 C 0.46669 0.52564 0.55574 0.0
C914 C 0.55046 0.51046 0.50378 0.0
C915 C 0.53201 0.57207 0.53314 0.0
O916 O 0.59198 0.57238 0.55294 0.0
O917 O 0.59726 0.55029 0.58174 0.0
O918 O 0.55522 0.56094 0.59875 0.0
O919 O 0.53319 0.53669 0.57228 0.0
O920 O 0.56846 0.50659 0.565 0.0
O921 O 0.53306 0.48645 0.55834 0.0
O922 O 0.49358 0.48648 0.54413 0.0
O923 O 0.48907 0.50798 0.51463 0.0
O924 O 0.53095 0.49794 0.49918 0.0
O925 O 0.55264 0.5223 0.52562 0.0
O926 O 0.51693 0.55255 0.53393 0.0
O927 O 0.5523 0.57287 0.54037 0.0
H928 H 0.64754 0.58595 0.56692 0.0
H929 H 0.67327 0.56825 0.54416 0.0
H930 H 0.6251 0.50172 0.51501 0.0
H931 H 0.59978 0.5195 0.53741 0.0
H932 H 0.43813 0.47075 0.52178 0.0
H933 H 0.40908 0.48682 0.53908 0.0
H934 H 0.454 0.55304 0.57732 0.0
H935 H 0.4827 0.53674 0.56026 0.0
C936 C 0.97477 0.52757 0.05436 0.0
Eu937 Eu 0.01542 0.52865 0.0563 0.0
C938 C 0.95761 0.54047 0.04701 0.0
C939 C 0.93664 0.52935 0.04856 0.0
C940 C 0.92009 0.54192 0.04396 0.0
C941 C 0.92411 0.56599 0.03765 0.0
C942 C 0.94519 0.57687 0.03555 0.0
C943 C 0.9618 0.56423 0.04021 0.0
C944 C 0.04238 0.51959 0.09555 0.0
C945 C 0.04737 0.58303 0.06468 0.0
C946 C 0.10434 0.534 0.04657 0.0
Eu947 Eu 0.06365 0.53302 0.04371 0.0
C948 C 0.12148 0.52015 0.0521 0.0
C949 C 0.12327 0.49872 0.03596 0.0
C950 C 0.14132 0.48825 0.03906 0.0
C951 C 0.15805 0.49887 0.05837 0.0
C952 C 0.15581 0.51958 0.07519 0.0
C953 C 0.13779 0.53017 0.072 0.0
C954 C 0.03687 0.5431 1.00498 0.0
C955 C 0.03104 0.47887 0.03268 0.0
O956 O 0.98294 0.51551 0.03692 0.0
O957 O 0.98902 0.53938 0.07309 0.0
O958 O 0.02219 0.51889 0.09488 0.0
O959 O 0.04678 0.52458 0.0749 0.0
O960 O 0.02751 0.57033 0.06118 0.0
O961 O 0.06386 0.57248 0.06142 0.0
O962 O 0.0957 0.54392 0.06482 0.0
O963 O 0.09066 0.52517 0.0265 0.0
O964 O 0.05705 0.5437 1.00548 0.0
O965 O 0.03238 0.53747 0.02538 0.0
O966 O 0.05104 0.49122 0.03635 0.0
O967 O 0.01487 0.4896 0.03713 0.0
H968 H 0.93311 0.51112 0.05398 0.0
H969 H 0.90424 0.53303 0.0462 0.0
H970 H 0.9489 0.5952 0.03042 0.0
H971 H 0.97791 0.57315 0.03894 0.0
H972 H 0.11108 0.49047 0.02039 0.0
H973 H 0.14234 0.47205 0.026 0.0
H974 H 0.16843 0.52835 0.09017 0.0
H975 H 0.13699 0.54682 0.08458 0.0
H976 H 0.02848 0.19851 0.95029 0.0
H977 H 0.99299 0.08885 0.02599 0.0
H978 H 0.96788 0.18392 0.97638 0.0
H979 H 0.058 0.11356 0.01533 0.0
H980 H 0.98314 0.12231 1.0057 0.0
H981 H 0.03922 0.16569 0.97142 0.0
C982 C 0.01742 0.18836 0.96033 0.0
C983 C 0.99727 0.194 0.96158 0.0
C984 C 0.99959 0.12053 1.00792 0.0
C985 C 1.00941 0.15659 0.98574 0.0
C986 C 1.00523 0.10143 0.01954 0.0
C987 C 0.02635 0.09844 0.0224 0.0
C988 C 0.01514 0.13663 0.99883 0.0
C989 C 0.04154 0.11528 0.01361 0.0
C990 C 0.02359 0.16975 0.97248 0.0
C991 C 0.9836 0.18032 0.97496 0.0
N992 N 0.03561 0.13357 1.00207 0.0
N993 N 0.98991 0.16226 0.98643 0.0
H994 H 0.13721 0.83406 0.24491 0.0
H995 H 0.23452 0.76577 0.269 0.0
H996 H 0.15764 0.78349 0.19014 0.0
H997 H 0.23332 0.83638 0.31336 0.0
H998 H 0.20139 0.76753 0.24445 0.0
H999 H 0.1678 0.83091 0.27469 0.0
C1000 C 0.14795 0.82213 0.2393 0.0
C1001 C 0.14507 0.80916 0.21506 0.0
C1002 C 0.20832 0.7827 0.25954 0.0
C1003 C 0.17951 0.80529 0.24865 0.0
C1004 C 0.2273 0.78175 0.27351 0.0
C1005 C 0.23691 0.80125 0.29286 0.0
C1006 C 0.19864 0.80319 0.265 0.0
C1007 C 0.22651 0.82114 0.29832 0.0
C1008 C 0.16538 0.82047 0.25615 0.0
C1009 C 0.15941 0.79403 0.20857 0.0
N1010 N 0.20789 0.82171 0.28433 0.0
N1011 N 0.1759 0.7925 0.22522 0.0
H1012 H 0.51605 0.82627 0.51362 0.0
H1013 H 0.5086 0.96002 0.49103 0.0
H1014 H 0.51071 0.84081 0.43913 0.0
H1015 H 0.55881 0.95184 0.54558 0.0
H1016 H 0.50323 0.91516 0.47426 0.0
H1017 H 0.52676 0.87156 0.52877 0.0
C1018 C 0.51743 0.83903 0.5005 0.0
C1019 C 0.51266 0.82996 0.47514 0.0
C1020 C 0.51546 0.92332 0.48983 0.0
C1021 C 0.52401 0.88135 0.49226 0.0
C1022 C 0.5184 0.94873 0.4995 0.0
C1023 C 0.53413 0.95948 0.51968 0.0
C1024 C 0.52787 0.90854 0.50098 0.0
C1025 C 0.54656 0.94418 0.52993 0.0
C1026 C 0.52351 0.86472 0.50912 0.0
C1027 C 0.5145 0.84715 0.45882 0.0
N1028 N 0.54295 0.91931 0.5207 0.0
N1029 N 0.51962 0.87215 0.46768 0.0
H1030 H 0.50359 0.29307 0.67073 0.0
H1031 H 0.45659 0.31949 0.79714 0.0
H1032 H 0.54304 0.31824 0.7414 0.0
H1033 H 0.41808 0.28397 0.72784 0.0
H1034 H 0.48823 0.32185 0.77681 0.0
H1035 H 0.4721 0.29227 0.69107 0.0
C1036 C 0.50567 0.29845 0.69055 0.0
C1037 C 0.52608 0.3057 0.70435 0.0
C1038 C 0.47285 0.3136 0.76605 0.0
C1039 C 0.48986 0.3049 0.72785 0.0
C1040 C 0.45472 0.31215 0.77766 0.0
C1041 C 0.43448 0.30138 0.76429 0.0
C1042 C 0.47086 0.30433 0.74077 0.0
C1043 C 0.4332 0.2927 0.73894 0.0
C1044 C 0.48762 0.29796 0.70217 0.0
C1045 C 0.52766 0.31246 0.73 0.0
N1046 N 0.45108 0.29431 0.72808 0.0
N1047 N 0.50981 0.31193 0.74091 0.0
H1048 H 0.02148 0.75761 0.62306 0.0
H1049 H 0.05997 0.89936 0.60948 0.0
H1050 H 0.06655 0.81037 0.67855 0.0
H1051 H 0.0283 0.84127 0.54881 0.0
H1052 H 0.0634 0.86742 0.635 0.0
H1053 H 0.02384 0.78845 0.59583 0.0
C1054 C 0.03188 0.77574 0.62955 0.0
C1055 C 0.04372 0.78153 0.65319 0.0
C1056 C 0.05593 0.86167 0.61602 0.0
C1057 C 0.04652 0.81697 0.622 0.0
C1058 C 0.05408 0.87986 0.60136 0.0
C1059 C 0.04365 0.87298 0.577 0.0
C1060 C 0.04711 0.83646 0.60631 0.0
C1061 C 0.03606 0.84746 0.56763 0.0
C1062 C 0.03332 0.79329 0.6139 0.0
C1063 C 0.05709 0.8052 0.66048 0.0
N1064 N 0.03775 0.83015 0.58238 0.0
N1065 N 0.058 0.82219 0.64498 0.0
H1066 H 0.49654 0.85602 0.90513 0.0
H1067 H 0.38559 0.84706 0.95546 0.0
H1068 H 0.49017 0.88376 0.98016 0.0
H1069 H 0.3922 0.82204 0.87992 0.0
H1070 H 0.42351 0.86619 0.96366 0.0
H1071 H 0.45813 0.85031 0.89393 0.0
C1072 C 0.48716 0.86151 0.91912 0.0
C1073 C 0.49652 0.8698 0.94372 0.0
C1074 C 0.41662 0.85665 0.94524 0.0
C1075 C 0.45255 0.86275 0.9312 0.0
C1076 C 0.39499 0.84574 0.94059 0.0
C1077 C 0.38587 0.8324 0.91715 0.0
C1078 C 0.42914 0.85437 0.92626 0.0
C1079 C 0.39873 0.83146 0.89847 0.0
C1080 C 0.46518 0.85804 0.91277 0.0
C1081 C 0.48357 0.87676 0.96105 0.0
N1082 N 0.41972 0.84209 0.90347 0.0
N1083 N 0.46221 0.87261 0.95457 0.0
H1084 H 0.47285 0.11544 0.15426 0.0
H1085 H 0.46759 0.04167 0.04455 0.0
H1086 H 0.4994 0.17824 0.1215 0.0
H1087 H 0.52197 0.09771 0.03874 0.0
H1088 H 0.45562 0.07257 0.07275 0.0
H1089 H 0.46684 0.08881 0.11405 0.0
C1090 C 0.47684 0.12376 0.13846 0.0
C1091 C 0.48697 0.14895 0.14131 0.0
C1092 C 0.47003 0.0782 0.0651 0.0
C1093 C 0.48031 0.11862 0.09516 0.0
C1094 C 0.47677 0.06068 0.04878 0.0
C1095 C 0.49626 0.06699 0.04016 0.0
C1096 C 0.48297 0.10208 0.07283 0.0
C1097 C 0.50718 0.09197 0.04562 0.0
C1098 C 0.47325 0.10859 0.11538 0.0
C1099 C 0.49172 0.15883 0.12018 0.0
N1100 N 0.50063 0.10855 0.06214 0.0
N1101 N 0.48895 0.14346 0.09811 0.0
H1102 H 0.12938 0.38982 0.40056 0.0
H1103 H 0.13675 0.2666 0.30911 0.0
H1104 H 0.07626 0.32836 0.37291 0.0
H1105 H 0.19061 0.32511 0.34241 0.0
H1106 H 0.1132 0.2922 0.32656 0.0
H1107 H 0.1507 0.36982 0.37335 0.0
C1108 C 0.12208 0.37232 0.38851 0.0
C1109 C 0.10109 0.36056 0.38933 0.0
C1110 C 0.13016 0.29952 0.32984 0.0
C1111 C 0.12549 0.33742 0.35832 0.0
C1112 C 0.14359 0.28495 0.31981 0.0
C1113 C 0.16568 0.29357 0.32462 0.0
C1114 C 0.1389 0.3229 0.34471 0.0
C1115 C 0.1737 0.31749 0.33867 0.0
C1116 C 0.1343 0.36085 0.37303 0.0
C1117 C 0.09246 0.33797 0.37314 0.0
N1118 N 0.16034 0.33122 0.34835 0.0
N1119 N 0.10476 0.32698 0.35853 0.0
H1120 H 0.96173 0.08252 0.2184 0.0
H1121 H 1.00331 1.00719 0.10245 0.0
H1122 H 0.95419 1.00238 0.20178 0.0
H1123 H 0.02055 0.08744 0.12213 0.0
H1124 H 0.98244 1.00604 0.13663 0.0
H1125 H 0.98004 0.08581 0.18172 0.0
C1126 C 0.96349 0.0656 0.20695 0.0
C1127 C 0.95614 0.04209 0.21356 0.0
C1128 C 0.99069 0.024 0.13354 0.0
C1129 C 0.97749 0.04573 0.17122 0.0
C1130 C 1.00264 0.02466 0.11379 0.0
C1131 C 0.01389 0.04744 0.109 0.0
C1132 C 0.98966 0.04629 0.14911 0.0
C1133 C 1.01229 0.06935 0.12488 0.0
C1134 C 0.97419 0.06749 0.18601 0.0
C1135 C 0.95945 0.02099 0.19782 0.0
N1136 N 1.00055 0.06825 0.14401 0.0
N1137 N 0.96969 0.02331 0.17779 0.0
H1138 H 0.38143 0.73889 0.55356 0.0
H1139 H 0.31827 0.70268 0.42702 0.0
H1140 H 0.33623 0.669 0.53192 0.0
H1141 H 0.37851 0.755 0.44161 0.0
H1142 H 0.32989 0.68265 0.46076 0.0
H1143 H 0.38697 0.73838 0.51084 0.0
C1144 C 0.37315 0.72304 0.53977 0.0
C1145 C 0.35803 0.70426 0.54593 0.0
C1146 C 0.34087 0.69805 0.4562 0.0
C1147 C 0.36351 0.70399 0.49699 0.0
C1148 C 0.33424 0.70952 0.43677 0.0
C1149 C 0.3471 0.73128 0.43212 0.0
C1150 C 0.36023 0.70881 0.47142 0.0
C1151 C 0.36768 0.73901 0.44534 0.0
C1152 C 0.37631 0.72268 0.51537 0.0
C1153 C 0.34784 0.68397 0.52766 0.0
N1154 N 0.37338 0.72827 0.46491 0.0
N1155 N 0.35022 0.68476 0.50376 0.0
H1156 H 0.60622 0.97968 0.72802 0.0
H1157 H 0.58906 0.05457 0.61423 0.0
H1158 H 0.63481 0.05691 0.72949 0.0
H1159 H 0.54741 0.98528 0.61846 0.0
H1160 H 0.6095 0.05254 0.65381 0.0
H1161 H 0.58825 0.97804 0.68566 0.0
C1162 C 0.60912 0.9961 0.71935 0.0
C1163 C 0.62224 0.01844 0.73254 0.0
C1164 C 0.59596 0.03765 0.64608 0.0
C1165 C 0.60154 0.01679 0.68389 0.0
C1166 C 0.58428 0.03879 0.62332 0.0
C1167 C 0.5663 0.02016 0.6128 0.0
C1168 C 0.58995 0.01758 0.65866 0.0
C1169 C 0.56105 1.00018 0.62575 0.0
C1170 C 0.59867 0.99526 0.6952 0.0
C1171 C 0.62492 0.03923 0.72024 0.0
N1172 N 0.5727 0.99943 0.64782 0.0
N1173 N 0.61482 0.03789 0.69693 0.0
H1174 H 0.31103 0.38757 0.99257 0.0
H1175 H 0.26609 0.27731 0.87984 0.0
H1176 H 0.29538 0.3113 1.00471 0.0
H1177 H 0.32236 0.33291 0.8794 0.0
H1178 H 0.26638 0.29418 0.92349 0.0
H1179 H 0.3038 0.37235 0.94791 0.0
C1180 C 0.30538 0.36773 0.9858 0.0
C1181 C 0.3038 0.35058 1.00213 0.0
C1182 C 0.27854 0.30266 0.91367 0.0
C1183 C 0.2955 0.33329 0.95163 0.0
C1184 C 0.27844 0.29309 0.88895 0.0
C1185 C 0.29441 0.30361 0.87629 0.0
C1186 C 0.29425 0.32338 0.92534 0.0
C1187 C 0.31 0.32409 0.88873 0.0
C1188 C 0.30151 0.3591 0.96046 0.0
C1189 C 0.29679 0.32502 0.99256 0.0
N1190 N 0.30945 0.33348 0.91261 0.0
N1191 N 0.2929 0.31707 0.96783 0.0
H1192 H 0.98649 0.02227 0.34192 0.0
H1193 H 1.00494 0.07517 0.48648 0.0
H1194 H 0.94654 0.07063 0.37063 0.0
H1195 H 0.01682 1.00394 0.45469 0.0
H1196 H 0.98802 0.07954 0.44548 0.0
H1197 H 1.00248 0.0219 0.38343 0.0
C1198 C 0.98104 0.03311 0.35688 0.0
C1199 C 0.96475 0.0464 0.35216 0.0
C1200 C 0.99431 0.06297 0.44754 0.0
C1201 C 0.98377 0.04602 0.40109 0.0
C1202 C 1.00413 0.06048 0.47098 0.0
C1203 C 1.0125 0.0391 0.47438 0.0
C1204 C 0.9932 0.04423 0.42699 0.0
C1205 C 1.01069 0.02073 0.45334 0.0
C1206 C 0.9903 0.03273 0.38085 0.0
C1207 C 0.95895 0.0601 0.37298 0.0
N1208 N 1.00153 0.02384 0.43083 0.0
N1209 N 0.96842 0.05956 0.39645 0.0
H1210 H 0.36468 0.71336 0.69226 0.0
H1211 H 0.35902 0.77319 0.80757 0.0
H1212 H 0.37022 0.78588 0.67012 0.0
H1213 H 0.32496 0.81444 0.76221 0.0
H1214 H 0.37826 0.76189 0.77352 0.0
H1215 H 0.36695 0.73341 0.73491 0.0
C1216 C 0.36725 0.73358 0.69644 0.0
C1217 C 0.36648 0.74789 0.67756 0.0
C1218 C 0.3669 0.77383 0.77128 0.0
C1219 C 0.36897 0.77085 0.7261 0.0
C1220 C 0.35601 0.7804 0.79065 0.0
C1221 C 0.34017 0.7944 0.78737 0.0
C1222 C 0.36201 0.78165 0.74877 0.0
C1223 C 0.33687 0.80334 0.76524 0.0
C1224 C 0.36861 0.74506 0.72085 0.0
C1225 C 0.37005 0.77404 0.68407 0.0
N1226 N 0.34761 0.79663 0.74663 0.0
N1227 N 0.37036 0.78463 0.70774 0.0
H1228 H 0.63129 0.99528 0.88202 0.0
H1229 H 0.57217 0.07604 0.97604 0.0
H1230 H 0.60919 0.06203 0.86905 0.0
H1231 H 0.58096 1.00223 0.98536 0.0
H1232 H 0.5886 0.0719 0.93841 0.0
H1233 H 0.61574 0.99774 0.92093 0.0
C1234 C 0.62325 1.01037 0.88714 0.0
C1235 C 0.62167 0.02835 0.8717 0.0
C1236 C 0.587 0.05654 0.94863 0.0
C1237 C 0.60394 0.03152 0.91673 0.0
C1238 C 0.5776 0.05896 0.97032 0.0
C1239 C 0.57494 0.03949 0.9842 0.0
C1240 C 0.59418 0.03452 0.94042 0.0
C1241 C 0.58245 0.0178 0.97542 0.0
C1242 C 0.61433 1.01179 0.90946 0.0
C1243 C 0.61095 0.0475 0.87983 0.0
N1244 N 0.59167 0.01594 0.95432 0.0
N1245 N 0.60274 0.04855 0.90143 0.0
H1246 H 0.30615 0.38136 0.14978 0.0
H1247 H 0.29126 0.25794 0.21078 0.0
H1248 H 0.3283 0.31497 0.12213 0.0
H1249 H 0.29255 0.33086 0.25217 0.0
H1250 H 0.30045 0.27767 0.17561 0.0
H1251 H 0.29643 0.36219 0.18533 0.0
C1252 C 0.30891 0.3628 0.15115 0.0
C1253 C 0.31814 0.34981 0.13306 0.0
C1254 C 0.29878 0.28935 0.19243 0.0
C1255 C 0.30695 0.32781 0.17327 0.0
C1256 C 0.29353 0.2781 0.21244 0.0
C1257 C 0.29121 0.29282 0.23432 0.0
C1258 C 0.30141 0.31546 0.19425 0.0
C1259 C 0.29429 0.31887 0.23559 0.0
C1260 C 0.30346 0.35194 0.17142 0.0
C1261 C 0.32139 0.32579 0.13572 0.0
N1262 N 0.29912 0.32939 0.21574 0.0
N1263 N 0.31572 0.31556 0.15535 0.0
H1264 H 0.21513 0.95648 0.94073 0.0
H1265 H 0.18389 0.0213 0.06586 0.0
H1266 H 0.24661 0.95414 0.01307 0.0
H1267 H 0.15636 0.03029 0.99386 0.0
H1268 H 0.20878 0.99927 0.04674 0.0
H1269 H 0.19496 0.98565 0.95958 0.0
C1270 C 0.21793 0.96223 0.96053 0.0
C1271 C 0.23247 0.95265 0.97533 0.0
C1272 C 0.19742 1.00625 0.03511 0.0
C1273 C 0.20938 0.98594 0.99704 0.0
C1274 C 0.18328 0.01903 0.04607 0.0
C1275 C 0.16784 0.02752 0.03148 0.0
C1276 C 0.19608 1.00173 0.00934 0.0
C1277 C 0.16769 0.02365 1.00584 0.0
C1278 C 0.20641 0.9789 0.97129 0.0
C1279 C 0.23548 0.96087 1.0009 0.0
N1280 N 0.18144 1.01085 0.99559 0.0
N1281 N 0.22393 0.97685 0.01092 0.0
H1282 H 0.67544 0.62335 0.97545 0.0
H1283 H 0.60933 0.55246 0.06272 0.0
H1284 H 0.70672 0.60482 0.04113 0.0
H1285 H 0.59149 0.53265 0.98401 0.0
H1286 H 0.64381 0.5759 0.05641 0.0
H1287 H 0.64331 0.59321 0.97858 0.0
C1288 C 0.67567 0.61244 0.99018 0.0
C1289 C 0.69376 0.61632 1.00793 0.0
C1290 C 0.63237 0.56627 0.04055 0.0
C1291 C 0.6569 0.58279 0.01222 0.0
C1292 C 0.61268 0.55311 0.04413 0.0
C1293 C 0.59762 0.54064 0.02382 0.0
C1294 C 0.63678 0.56748 0.01653 0.0
C1295 C 0.60274 0.54198 1.00012 0.0
C1296 C 0.65734 0.59538 0.99201 0.0
C1297 C 0.69317 0.60206 0.02689 0.0
N1298 N 0.62181 0.55543 0.99709 0.0
N1299 N 0.67486 0.58627 0.02885 0.0
H1300 H 0.69594 0.43197 0.35482 0.0
H1301 H 0.76147 0.3533 0.26734 0.0
H1302 H 0.70752 0.45084 0.28427 0.0
H1303 H 0.75089 0.34091 0.34015 0.0
H1304 H 0.74196 0.3879 0.27175 0.0
H1305 H 0.71566 0.39862 0.34847 0.0
C1306 C 0.7026 0.42928 0.33786 0.0
C1307 C 0.69971 0.44486 0.32015 0.0
C1308 C 0.74391 0.37764 0.28679 0.0
C1309 C 0.72302 0.40528 0.31256 0.0
C1310 C 0.75511 0.35769 0.28427 0.0
C1311 C 0.75816 0.34372 0.30339 0.0
C1312 C 0.73537 0.384 0.3086 0.0
C1313 C 0.74929 0.35081 0.32479 0.0
C1314 C 0.71402 0.40992 0.33425 0.0
C1315 C 0.70911 0.43971 0.29864 0.0
N1316 N 0.73849 0.37008 0.32671 0.0
N1317 N 0.72017 0.42055 0.29548 0.0
H1318 H 0.82839 0.41899 0.48154 0.0
H1319 H 0.94166 0.37976 0.49541 0.0
H1320 H 0.83646 0.34261 0.4775 0.0
H1321 H 0.93341 0.45604 0.49928 0.0
H1322 H 0.90307 0.36545 0.48608 0.0
H1323 H 0.86684 0.43261 0.48417 0.0
C1324 C 0.8382 0.40506 0.48089 0.0
C1325 C 0.82923 0.37969 0.47972 0.0
C1326 C 0.90973 0.38532 0.48889 0.0
C1327 C 0.87321 0.39513 0.48305 0.0
C1328 C 0.93174 0.39348 0.4943 0.0
C1329 C 0.94079 0.41912 0.49817 0.0
C1330 C 0.89668 0.40294 0.4874 0.0
C1331 C 0.92719 0.43606 0.4961 0.0
C1332 C 0.86017 0.41285 0.48253 0.0
C1333 C 0.84271 0.36243 0.4788 0.0
N1334 N 0.90584 0.42768 0.49096 0.0
N1335 N 0.86403 0.3705 0.48073 0.0
H1336 H 0.34377 0.09269 0.27855 0.0
H1337 H 0.35283 0.2429 0.30242 0.0
H1338 H 0.40431 0.1436 0.30027 0.0
H1339 H 0.29395 0.18861 0.28332 0.0
H1340 H 0.37226 0.2083 0.30129 0.0
H1341 H 0.32622 0.12815 0.27988 0.0
C1342 C 0.35356 0.11133 0.28365 0.0
C1343 C 0.37585 0.11461 0.28931 0.0
C1344 C 0.3551 0.20395 0.29731 0.0
C1345 C 0.35516 0.1565 0.29084 0.0
C1346 C 0.34388 0.22381 0.2979 0.0
C1347 C 0.32143 0.21909 0.29292 0.0
C1348 C 0.34401 0.1788 0.29166 0.0
C1349 C 0.3111 0.19362 0.28728 0.0
C1350 C 0.34334 0.1318 0.28439 0.0
C1351 C 0.38719 0.13972 0.29575 0.0
N1352 N 0.32233 0.17479 0.28682 0.0
N1353 N 0.3768 0.15949 0.2963 0.0
H1354 H 0.31823 0.1291 0.50517 0.0
H1355 H 0.40039 0.06898 0.58537 0.0
H1356 H 0.31086 0.11163 0.57739 0.0
H1357 H 0.4105 0.089 0.51469 0.0
H1358 H 0.36708 0.08358 0.58191 0.0
H1359 H 0.3512 0.1131 0.50721 0.0
C1360 C 0.32344 0.12177 0.52138 0.0
C1361 C 0.3117 0.12178 0.54115 0.0
C1362 C 0.37655 0.08483 0.56713 0.0
C1363 C 0.34953 0.10353 0.54366 0.0
C1364 C 0.39575 0.07665 0.56918 0.0
C1365 C 0.40851 0.0779 0.5504 0.0
C1366 C 0.36985 0.09438 0.5461 0.0
C1367 C 0.40119 0.08748 0.52959 0.0
C1368 C 0.34231 0.1127 0.52256 0.0
C1369 C 0.31932 0.11208 0.5617 0.0
N1370 N 0.38242 0.09538 0.52803 0.0
N1371 N 0.3377 0.10344 0.56241 0.0
H1372 H 0.72673 0.57713 0.3129 0.0
H1373 H 0.7402 0.72602 0.3091 0.0
H1374 H 0.67742 0.61882 0.32373 0.0
H1375 H 0.79222 0.68741 0.30768 0.0
H1376 H 0.71661 0.68644 0.31271 0.0
H1377 H 0.75078 0.61656 0.30954 0.0
C1378 C 0.72091 0.59438 0.31471 0.0
C1379 C 0.69979 0.59418 0.31868 0.0
C1380 C 0.73321 0.68661 0.31159 0.0
C1381 C 0.72736 0.63978 0.31452 0.0
C1382 C 0.74669 0.70931 0.30947 0.0
C1383 C 0.76836 0.71032 0.30806 0.0
C1384 C 0.74129 0.6645 0.31217 0.0
C1385 C 0.77569 0.68778 0.30872 0.0
C1386 C 0.73467 0.61701 0.31271 0.0
C1387 C 0.69341 0.61754 0.32068 0.0
N1388 N 0.76234 0.66606 0.31065 0.0
N1389 N 0.70692 0.63901 0.31852 0.0
H1390 H 0.87092 0.4759 0.75367 0.0
H1391 H 0.83621 0.37295 0.83789 0.0
H1392 H 0.89019 0.4857 0.83188 0.0
H1393 H 0.81162 0.36194 0.76061 0.0
H1394 H 0.85413 0.41522 0.8357 0.0
H1395 H 0.84701 0.43597 0.75546 0.0
C1396 C 0.86955 0.47009 0.77133 0.0
C1397 C 0.88215 0.48455 0.79278 0.0
C1398 C 0.84477 0.40373 0.81916 0.0
C1399 C 0.8555 0.43829 0.79488 0.0
C1400 C 0.83446 0.37937 0.82038 0.0
C1401 C 0.82234 0.36349 0.79938 0.0
C1402 C 0.84327 0.41269 0.7967 0.0
C1403 C 0.82076 0.37333 0.77732 0.0
C1404 C 0.85611 0.44711 0.77232 0.0
C1405 C 0.8804 0.47552 0.815 0.0
N1406 N 0.8312 0.39714 0.77652 0.0
N1407 N 0.86752 0.45309 0.81544 0.0
H1408 H 0.05315 0.86761 0.14353 0.0
H1409 H 0.08885 0.97727 0.06768 0.0
H1410 H 0.11475 0.88458 0.12019 0.0
H1411 H 0.0241 0.95351 0.07982 0.0
H1412 H 0.099 0.94489 0.08933 0.0
H1413 H 0.04272 0.90123 0.12346 0.0
C1414 C 0.06453 0.87855 0.13443 0.0
C1415 C 0.08479 0.87319 0.1334 0.0
C1416 C 0.08255 0.94666 0.08719 0.0
C1417 C 0.07298 0.9114 0.11037 0.0
C1418 C 0.07673 0.96511 0.07476 0.0
C1419 C 0.05559 0.96801 0.07187 0.0
C1420 C 0.06715 0.93107 0.09697 0.0
C1421 C 0.04057 0.9518 0.08151 0.0
C1422 C 0.05853 0.89759 0.12285 0.0
C1423 C 0.0989 0.8879 0.1213 0.0
N1424 N 0.04665 0.93405 0.09373 0.0
N1425 N 0.09271 0.90625 0.11024 0.0
H1426 H 0.9155 0.20915 0.87249 0.0
H1427 H 0.86001 0.30259 0.81193 0.0
H1428 H 0.95281 0.27642 0.85639 0.0
H1429 H 0.83636 0.22338 0.78786 0.0
H1430 H 0.89354 0.29392 0.83036 0.0
H1431 H 0.88578 0.21342 0.84285 0.0
C1432 C 0.91759 0.22444 0.86217 0.0
C1433 C 0.93662 0.24239 0.86671 0.0
C1434 C 0.88114 0.27846 0.82072 0.0
C1435 C 0.90252 0.24793 0.83368 0.0
C1436 C 0.86199 0.28337 0.81036 0.0
C1437 C 0.84548 0.26364 0.79841 0.0
C1438 C 0.88355 0.2536 0.81976 0.0
C1439 C 0.8488 0.23909 0.79686 0.0
C1440 C 0.90065 0.22689 0.84534 0.0
C1441 C 0.93847 0.26205 0.85317 0.0
N1442 N 0.86736 0.23469 0.80785 0.0
N1443 N 0.92142 0.26465 0.83766 0.0
H1444 H 0.55651 0.23523 0.64927 0.0
H1445 H 0.58613 0.12586 0.55691 0.0
H1446 H 0.61094 0.24408 0.61077 0.0
H1447 H 0.52764 0.11666 0.58796 0.0
H1448 H 0.59439 0.16986 0.57556 0.0
H1449 H 0.5447 0.19233 0.62644 0.0
C1450 C 0.56593 0.22823 0.636 0.0
C1451 C 0.58483 0.24327 0.63208 0.0
C1452 C 0.57965 0.15833 0.5782 0.0
C1453 C 0.57142 0.19432 0.60595 0.0
C1454 C 0.57492 0.13314 0.56753 0.0
C1455 C 0.55622 0.11747 0.571 0.0
C1456 C 0.56573 0.16804 0.59274 0.0
C1457 C 0.54224 0.12806 0.5848 0.0
C1458 C 0.55916 0.20377 0.62294 0.0
C1459 C 0.59634 0.23322 0.61457 0.0
N1460 N 0.54738 0.15267 0.5954 0.0
N1461 N 0.58951 0.20943 0.6023 0.0
H1462 H 0.55592 0.73696 0.39794 0.0
H1463 H 0.6335 0.79266 0.30804 0.0
H1464 H 0.54689 0.79881 0.3612 0.0
H1465 H 0.65077 0.74428 0.35803 0.0
H1466 H 0.59988 0.79162 0.32412 0.0
H1467 H 0.58876 0.7359 0.38028 0.0
C1468 C 0.56073 0.75021 0.38602 0.0
C1469 C 0.54858 0.76804 0.3811 0.0
C1470 C 0.61098 0.78118 0.33157 0.0
C1471 C 0.58623 0.76689 0.36081 0.0
C1472 C 0.63015 0.78162 0.32227 0.0
C1473 C 0.645 0.76844 0.33161 0.0
C1474 C 0.60641 0.76731 0.35029 0.0
C1475 C 0.63987 0.75484 0.35039 0.0
C1476 C 0.57955 0.74965 0.37604 0.0
C1477 C 0.55572 0.78477 0.36558 0.0
N1478 N 0.62099 0.75455 0.35904 0.0
N1479 N 0.57401 0.78376 0.356 0.0
H1480 H 1.00399 0.28069 0.47057 0.0
H1481 H 0.07137 0.1771 0.48231 0.0
H1482 H 0.06317 0.2818 0.44174 0.0
H1483 H 1.00815 0.17188 0.50133 0.0
H1484 H 0.06609 0.21134 0.46041 0.0
H1485 H 1.00221 0.23702 0.47455 0.0
C1486 C 0.01647 0.27158 0.46475 0.0
C1487 C 0.03401 0.28496 0.45639 0.0
C1488 C 0.05321 0.20238 0.46896 0.0
C1489 C 0.03229 0.23513 0.46124 0.0
C1490 C 0.05628 0.18297 0.48158 0.0
C1491 C 0.04034 0.17206 0.49406 0.0
C1492 C 0.03418 0.2111 0.46916 0.0
C1493 C 0.0209 0.17988 0.49207 0.0
C1494 C 0.01543 0.24662 0.46695 0.0
C1495 C 0.04952 0.27219 0.44861 0.0
N1496 N 0.01851 0.19925 0.48025 0.0
N1497 N 0.04855 0.24807 0.45174 0.0
H1498 H 0.58597 0.23417 0.19689 0.0
H1499 H 0.69017 0.17593 0.20122 0.0
H1500 H 0.58708 0.16124 0.21604 0.0
H1501 H 0.68754 0.25099 0.18907 0.0
H1502 H 0.65192 0.16796 0.20267 0.0
H1503 H 0.62276 0.23859 0.19069 0.0
C1504 C 0.59399 0.21907 0.19994 0.0
C1505 C 0.58339 0.19731 0.20712 0.0
C1506 C 0.65977 0.18608 0.19951 0.0
C1507 C 0.62584 0.20227 0.19986 0.0
C1508 C 0.68161 0.1907 0.19875 0.0
C1509 C 0.69227 0.21429 0.19524 0.0
C1510 C 0.64854 0.20521 0.19686 0.0
C1511 C 0.68017 0.23242 0.19149 0.0
C1512 C 0.61506 0.22159 0.19629 0.0
C1513 C 0.5947 0.17841 0.2107 0.0
N1514 N 0.65906 0.22754 0.1926 0.0
N1515 N 0.61538 0.18132 0.20703 0.0
H1516 H 0.59948 0.8893 0.04321 0.0
H1517 H 0.57048 0.99441 0.08759 0.0
H1518 H 0.60181 0.92539 0.97932 0.0
H1519 H 0.61216 0.0342 0.04472 0.0
H1520 H 0.58407 0.95684 0.07521 0.0
H1521 H 0.60877 0.93037 0.06952 0.0
C1522 C 0.6026 0.90583 0.03472 0.0
C1523 C 0.59888 0.90403 0.00902 0.0
C1524 C 0.59094 0.974 0.06927 0.0
C1525 C 0.60889 0.95077 0.03891 0.0
C1526 C 0.58299 0.99535 0.07616 0.0
C1527 C 0.59014 0.01718 0.06699 0.0
C1528 C 0.60571 0.97442 0.05257 0.0
C1529 C 0.60626 0.01758 0.05213 0.0
C1530 C 0.60772 0.92923 0.04976 0.0
C1531 C 0.60384 0.92597 0.99905 0.0
N1532 N 0.61307 0.99622 0.04471 0.0
N1533 N 0.60799 0.94859 0.01404 0.0
H1534 H 0.01505 0.76798 0.74353 0.0
H1535 H 0.91159 0.75587 0.80656 0.0
H1536 H 0.98517 0.69894 0.76413 0.0
H1537 H 0.95138 0.8271 0.80369 0.0
H1538 H 0.93973 0.73501 0.79448 0.0
H1539 H 0.99372 0.79038 0.7686 0.0
C1540 C 1.00423 0.75759 0.75368 0.0
C1541 C 1.0017 0.73152 0.75153 0.0
C1542 C 0.94244 0.75524 0.79685 0.0
C1543 C 0.97691 0.75699 0.77992 0.0
C1544 C 0.92637 0.76723 0.80388 0.0
C1545 C 0.92891 0.79334 0.80584 0.0
C1546 C 0.96114 0.76938 0.79143 0.0
C1547 C 0.94843 0.80691 0.8018 0.0
C1548 C 0.99206 0.7704 0.76802 0.0
C1549 C 0.98758 0.71904 0.76523 0.0
N1550 N 0.96365 0.79475 0.79446 0.0
N1551 N 0.9754 0.73182 0.77849 0.0
H1552 H 0.11913 0.97731 0.87479 0.0
H1553 H 0.08253 0.05624 0.99244 0.0
H1554 H 0.13494 0.05758 0.89497 0.0
H1555 H 0.05953 0.97686 0.96988 0.0
H1556 H 0.10425 0.05596 0.95891 0.0
H1557 H 0.10026 0.9754 0.91115 0.0
C1558 C 0.11916 0.99447 0.88706 0.0
C1559 C 0.12901 0.01765 0.88156 0.0
C1560 C 0.09451 0.03852 0.96121 0.0
C1561 C 0.10686 0.01567 0.92342 0.0
C1562 C 0.08201 0.03869 0.98052 0.0
C1563 C 0.06886 0.01659 0.98424 0.0
C1564 C 0.09417 0.01605 0.9451 0.0
C1565 C 0.06921 0.99447 0.9679 0.0
C1566 C 0.10811 0.99342 0.90777 0.0
C1567 C 0.1278 0.03921 0.89819 0.0
N1568 N 0.08147 0.99477 0.94925 0.0
N1569 N 0.11709 0.03769 0.91796 0.0
H1570 H 0.72163 0.37225 0.55199 0.0
H1571 H 0.77669 0.37432 0.68753 0.0
H1572 H 0.78877 0.38263 0.57633 0.0
H1573 H 0.71304 0.33424 0.65768 0.0
H1574 H 0.77725 0.39604 0.6523 0.0
H1575 H 0.7155 0.37594 0.59526 0.0
C1576 C 0.73507 0.37611 0.56655 0.0
C1577 C 0.75566 0.37677 0.56095 0.0
C1578 C 0.7629 0.38307 0.65386 0.0
C1579 C 0.74893 0.38128 0.60979 0.0
C1580 C 0.76251 0.37078 0.67405 0.0
C1581 C 0.74502 0.35191 0.67507 0.0
C1582 C 0.74577 0.37628 0.63461 0.0
C1583 C 0.72708 0.34814 0.6571 0.0
C1584 C 0.7316 0.3782 0.59108 0.0
C1585 C 0.77265 0.3817 0.58014 0.0
N1586 N 0.72809 0.35977 0.63721 0.0
N1587 N 0.76889 0.38353 0.60376 0.0
H1588 H 0.4408 0.06025 0.3819 0.0
H1589 H 0.55395 0.05666 0.45839 0.0
H1590 H 0.49843 0.05698 0.35112 0.0
H1591 H 0.49685 0.0455 0.49175 0.0
H1592 H 0.53339 0.06148 0.42059 0.0
H1593 H 0.46021 0.05998 0.4231 0.0
C1594 C 0.45763 0.06025 0.38384 0.0
C1595 C 0.46799 0.05909 0.36282 0.0
C1596 C 0.52515 0.05802 0.43603 0.0
C1597 C 0.49031 0.05818 0.41005 0.0
C1598 C 0.537 0.05524 0.45788 0.0
C1599 C 0.52732 0.05053 0.47863 0.0
C1600 C 0.50307 0.05621 0.43428 0.0
C1601 C 0.50514 0.04903 0.47637 0.0
C1602 C 0.46866 0.05971 0.40737 0.0
C1603 C 0.4897 0.05823 0.36661 0.0
N1604 N 0.4938 0.05183 0.45467 0.0
N1605 N 0.49995 0.05781 0.38943 0.0
H1606 H 0.73122 0.72856 0.09409 0.0
H1607 H 0.81262 0.75152 0.21875 0.0
H1608 H 0.7878 0.69753 0.09929 0.0
H1609 H 0.74942 0.76701 0.2141 0.0
H1610 H 0.80612 0.73591 0.17435 0.0
H1611 H 0.74012 0.74701 0.13733 0.0
C1612 C 0.74558 0.72563 0.10431 0.0
C1613 C 0.75873 0.7113 0.09301 0.0
C1614 C 0.79375 0.7428 0.1831 0.0
C1615 C 0.76902 0.73253 0.14285 0.0
C1616 C 0.79745 0.75183 0.20841 0.0
C1617 C 0.78149 0.7605 0.22021 0.0
C1618 C 0.77404 0.74269 0.16953 0.0
C1619 C 0.76215 0.76037 0.20588 0.0
C1620 C 0.75063 0.73619 0.12908 0.0
C1621 C 0.77717 0.70832 0.10728 0.0
N1622 N 0.75899 0.7516 0.18134 0.0
N1623 N 0.78177 0.71884 0.13155 0.0
H1624 H 0.10305 0.04459 0.75146 0.0
H1625 H 0.07455 0.98083 0.60978 0.0
H1626 H 0.13421 0.98528 0.7253 0.0
H1627 H 0.07445 0.05809 0.63685 0.0
H1628 H 0.09163 0.97725 0.65105 0.0
H1629 H 0.0874 0.04433 0.70971 0.0
C1630 C 0.10661 0.03121 0.73704 0.0
C1631 C 0.1203 0.01493 0.74254 0.0
C1632 C 0.08792 0.99497 0.64786 0.0
C1633 C 0.10167 0.01462 0.69328 0.0
C1634 C 0.07803 0.99704 0.62428 0.0
C1635 C 0.0729 0.01987 0.6195 0.0
C1636 C 0.09231 0.01568 0.66715 0.0
C1637 C 0.07802 0.04011 0.63927 0.0
C1638 C 0.09759 0.03125 0.7129 0.0
C1639 C 0.12388 0.99823 0.72233 0.0
N1640 N 0.08712 0.03745 0.66196 0.0
N1641 N 0.1146 0.99843 0.69869 0.0
H1642 H 0.72785 0.27801 0.44478 0.0
H1643 H 0.72324 0.28328 0.30253 0.0
H1644 H 0.72361 0.34419 0.41299 0.0
H1645 H 0.75656 0.237 0.34223 0.0
H1646 H 0.7073 0.29538 0.33924 0.0
H1647 H 0.72085 0.25322 0.40351 0.0
C1648 C 0.72478 0.28725 0.4292 0.0
C1649 C 0.72722 0.3134 0.43225 0.0
C1650 C 0.71751 0.2819 0.33957 0.0
C1651 C 0.7192 0.28508 0.38517 0.0
C1652 C 0.72657 0.27495 0.31869 0.0
C1653 C 0.74145 0.25946 0.31968 0.0
C1654 C 0.72315 0.27287 0.36123 0.0
C1655 C 0.74534 0.24925 0.34097 0.0
C1656 C 0.7208 0.27304 0.40566 0.0
C1657 C 0.72249 0.32419 0.41142 0.0
N1658 N 0.73643 0.25638 0.36107 0.0
N1659 N 0.71925 0.31005 0.38862 0.0
H1660 H 0.46123 0.08763 0.22418 0.0
H1661 H 0.50283 1.00386 0.1143 0.0
H1662 H 0.45828 1.00814 0.21629 0.0
H1663 H 0.5133 0.08421 0.12198 0.0
H1664 H 0.48457 1.00594 0.1505 0.0
H1665 H 0.47801 0.0878 0.18615 0.0
C1666 C 0.46376 0.0702 0.21444 0.0
C1667 C 0.45821 0.04785 0.22389 0.0
C1668 C 0.49081 0.02322 0.14438 0.0
C1669 C 0.47757 0.04788 0.18001 0.0
C1670 C 0.50134 0.02201 0.12351 0.0
C1671 C 0.5099 0.04384 0.11473 0.0
C1672 C 0.48851 0.04646 0.15705 0.0
C1673 C 0.50716 0.06677 0.12787 0.0
C1674 C 0.47351 0.07032 0.19271 0.0
C1675 C 0.46228 0.02597 0.21021 0.0
N1676 N 0.49681 0.06747 0.14818 0.0
N1677 N 0.47155 0.02659 0.18937 0.0
H1678 H 0.75454 0.75121 0.98069 0.0
H1679 H 0.79197 0.74054 0.84971 0.0
H1680 H 0.77829 0.68734 0.94955 0.0
H1681 H 0.79423 0.81203 0.89452 0.0
H1682 H 0.78407 0.71991 0.88459 0.0
H1683 H 0.76649 0.77315 0.94811 0.0
C1684 C 0.76237 0.74183 0.96702 0.0
C1685 C 0.76532 0.71733 0.9677 0.0
C1686 C 0.7864 0.7401 0.88684 0.0
C1687 C 0.7788 0.74231 0.93021 0.0
C1688 C 0.79076 0.7519 0.86693 0.0
C1689 C 0.79371 0.77804 0.8693 0.0
C1690 C 0.78459 0.75449 0.90918 0.0
C1691 C 0.79206 0.79184 0.892 0.0
C1692 C 0.76926 0.75443 0.9485 0.0
C1693 C 0.77573 0.70619 0.94967 0.0
N1694 N 0.78742 0.77986 0.91107 0.0
N1695 N 0.78187 0.71867 0.93141 0.0
H1696 H 0.86784 0.11656 0.13751 0.0
H1697 H 0.88615 1.00689 0.03624 0.0
H1698 H 0.81954 0.07575 0.0779 0.0
H1699 H 0.93533 0.05154 0.09294 0.0
H1700 H 0.86013 0.02761 0.05481 0.0
H1701 H 0.89109 0.08819 0.12544 0.0
C1702 C 0.86198 0.10141 0.12211 0.0
C1703 C 0.84179 0.09877 0.10849 0.0
C1704 C 0.87658 0.03266 0.06333 0.0
C1705 C 0.86845 0.06636 0.09439 0.0
C1706 C 0.89147 0.02092 0.05267 0.0
C1707 C 0.91303 0.02759 0.06288 0.0
C1708 C 0.88327 0.0513 0.08434 0.0
C1709 C 0.9189 0.04559 0.08448 0.0
C1710 C 0.87531 0.08525 0.11517 0.0
C1711 C 0.83504 0.07867 0.0888 0.0
N1712 N 0.90416 0.05695 0.09432 0.0
N1713 N 0.84843 0.06343 0.08216 0.0
H1714 H 0.3829 0.46299 0.09787 0.0
H1715 H 0.48554 0.4818 0.0302 0.0
H1716 H 0.3992 0.40539 0.04658 0.0
H1717 H 0.48556 0.52528 0.10137 0.0
H1718 H 0.45053 0.45774 0.0325 0.0
H1719 H 0.41735 0.49034 0.09611 0.0
C1720 C 0.3936 0.45619 0.08617 0.0
C1721 C 0.38825 0.43185 0.07248 0.0
C1722 C 0.45818 0.47249 0.04769 0.0
C1723 C 0.4272 0.46284 0.07018 0.0
C1724 C 0.47824 0.48616 0.04643 0.0
C1725 C 0.48864 0.50526 0.06582 0.0
C1726 C 0.44818 0.4781 0.06833 0.0
C1727 C 0.47813 0.5105 0.08614 0.0
C1728 C 0.41323 0.47169 0.08529 0.0
C1729 C 0.40271 0.42391 0.05765 0.0
N1730 N 0.45839 0.49699 0.08689 0.0
N1731 N 0.42138 0.43934 0.05684 0.0
H1732 H 0.38085 0.6116 0.76051 0.0
H1733 H 0.32449 0.70982 0.84065 0.0
H1734 H 0.37989 0.61805 0.83862 0.0
H1735 H 0.32526 0.70775 0.76291 0.0
H1736 H 0.34447 0.67606 0.83934 0.0
H1737 H 0.36066 0.64567 0.75995 0.0
C1738 C 0.37649 0.61998 0.77755 0.0
C1739 C 0.38241 0.61138 0.79965 0.0
C1740 C 0.34031 0.68285 0.82246 0.0
C1741 C 0.35887 0.6511 0.79915 0.0
C1742 C 0.32875 0.70235 0.8232 0.0
C1743 C 0.32277 0.7121 0.80187 0.0
C1744 C 0.34631 0.67238 0.80019 0.0
C1745 C 0.32919 0.70113 0.77995 0.0
C1746 C 0.36487 0.63961 0.77723 0.0
C1747 C 0.37599 0.62354 0.82099 0.0
N1748 N 0.34042 0.68213 0.7797 0.0
N1749 N 0.3648 0.64235 0.82016 0.0
H1750 H 0.26849 0.65882 0.62259 0.0
H1751 H 0.15787 0.70313 0.60052 0.0
H1752 H 0.26258 0.7307 0.6037 0.0
H1753 H 0.16363 0.63153 0.6201 0.0
H1754 H 0.19662 0.71516 0.6055 0.0
H1755 H 0.23045 0.64979 0.62514 0.0
C1756 C 0.25922 0.67269 0.61895 0.0
C1757 C 0.26875 0.69543 0.61264 0.0
C1758 C 0.18941 0.69687 0.60887 0.0
C1759 C 0.22519 0.68526 0.61561 0.0
C1760 C 0.16729 0.69 0.606 0.0
C1761 C 0.15748 0.6662 0.60963 0.0
C1762 C 0.20182 0.67973 0.6152 0.0
C1763 C 0.17048 0.65012 0.61718 0.0
C1764 C 0.23751 0.66757 0.6205 0.0
C1765 C 0.25594 0.71281 0.60839 0.0
N1766 N 0.19195 0.65706 0.61946 0.0
N1767 N 0.23485 0.7073 0.60982 0.0
H1768 H 0.67587 0.92851 0.80579 0.0
H1769 H 0.78811 0.88232 0.81239 0.0
H1770 H 0.73739 0.97671 0.81199 0.0
H1771 H 0.72871 0.83018 0.80703 0.0
H1772 H 0.76889 0.91646 0.81247 0.0
H1773 H 0.69353 0.8923 0.80627 0.0
C1774 C 0.693 0.93165 0.80724 0.0
C1775 C 0.70493 0.95617 0.80884 0.0
C1776 C 0.75991 0.89761 0.81133 0.0
C1777 C 0.7255 0.91429 0.8094 0.0
C1778 C 0.771 0.87788 0.81132 0.0
C1779 C 0.7603 0.85289 0.80977 0.0
C1780 C 0.73759 0.8929 0.80971 0.0
C1781 C 0.7379 0.84893 0.80836 0.0
C1782 C 0.70313 0.91084 0.80752 0.0
C1783 C 0.7272 0.95853 0.81069 0.0
N1784 N 0.72741 0.86853 0.80833 0.0
N1785 N 0.73653 0.93821 0.8109 0.0
H1786 H 0.76178 0.92978 0.51537 0.0
H1787 H 0.69122 1.00613 0.59433 0.0
H1788 H 0.77434 0.948 0.59466 0.0
H1789 H 0.67296 0.97371 0.51752 0.0
H1790 H 0.72288 0.98756 0.59487 0.0
H1791 H 0.73054 0.94855 0.51583 0.0
C1792 C 0.75804 0.93782 0.53292 0.0
C1793 C 0.77078 0.93725 0.55502 0.0
C1794 C 0.71188 0.98444 0.57794 0.0
C1795 C 0.73478 0.9589 0.55566 0.0
C1796 C 0.69385 0.99511 0.57759 0.0
C1797 C 0.67931 0.99143 0.55586 0.0
C1798 C 0.71559 0.97019 0.55633 0.0
C1799 C 0.6835 0.9768 0.53478 0.0
C1800 C 0.7401 0.94847 0.53316 0.0
C1801 C 0.765 0.94796 0.57717 0.0
N1802 N 0.70124 0.96687 0.53553 0.0
N1803 N 0.74746 0.95838 0.57693 0.0
H1804 H 0.35731 0.48308 0.7848 0.0
H1805 H 0.34257 0.33439 0.78942 0.0
H1806 H 0.40555 0.44006 0.77257 0.0
H1807 H 0.29055 0.37307 0.78906 0.0
H1808 H 0.36641 0.37378 0.78598 0.0
H1809 H 0.33292 0.44405 0.78865 0.0
C1810 C 0.36282 0.46562 0.78279 0.0
C1811 C 0.38373 0.46531 0.77825 0.0
C1812 C 0.34977 0.37369 0.78672 0.0
C1813 C 0.35583 0.42026 0.78304 0.0
C1814 C 0.33615 0.35111 0.78879 0.0
C1815 C 0.31442 0.35019 0.78958 0.0
C1816 C 0.34175 0.39577 0.78561 0.0
C1817 C 0.30714 0.37269 0.7885 0.0
C1818 C 0.34887 0.44325 0.78506 0.0
C1819 C 0.38973 0.44173 0.77603 0.0
N1820 N 0.32064 0.39434 0.78664 0.0
N1821 N 0.37607 0.42054 0.77852 0.0
H1822 H 0.19726 0.60716 0.34964 0.0
H1823 H 0.26115 0.69348 0.2681 0.0
H1824 H 0.20974 0.57776 0.27785 0.0
H1825 H 0.26421 0.715 0.3465 0.0
H1826 H 0.24253 0.65132 0.27106 0.0
H1827 H 0.22204 0.64638 0.34906 0.0
C1828 C 0.20573 0.60871 0.33403 0.0
C1829 C 0.20177 0.58885 0.31403 0.0
C1830 C 0.24744 0.66517 0.28766 0.0
C1831 C 0.22958 0.63446 0.31265 0.0
C1832 C 0.25807 0.68938 0.286 0.0
C1833 C 0.26434 0.70811 0.30708 0.0
C1834 C 0.24262 0.65948 0.31052 0.0
C1835 C 0.25983 0.70137 0.32972 0.0
C1836 C 0.21977 0.63124 0.3336 0.0
C1837 C 0.2127 0.59229 0.29394 0.0
N1838 N 0.2491 0.67783 0.33077 0.0
N1839 N 0.22585 0.61471 0.29361 0.0
H1840 H 0.52794 0.69828 0.45727 0.0
H1841 H 0.49255 0.58348 0.52646 0.0
H1842 H 0.47033 0.68713 0.48993 0.0
H1843 H 0.55763 0.6096 0.51674 0.0
H1844 H 0.4828 0.61853 0.50863 0.0
H1845 H 0.53775 0.66263 0.47427 0.0
C1846 C 0.51732 0.68828 0.46788 0.0
C1847 C 0.49833 0.69575 0.47226 0.0
C1848 C 0.49922 0.61661 0.51048 0.0
C1849 C 0.50938 0.65501 0.4916 0.0
C1850 C 0.5048 0.59659 0.52062 0.0
C1851 C 0.52595 0.59365 0.52319 0.0
C1852 C 0.51484 0.63362 0.50251 0.0
C1853 C 0.54115 0.61125 0.51529 0.0
C1854 C 0.52297 0.66804 0.47767 0.0
C1855 C 0.48518 0.68214 0.48621 0.0
N1856 N 0.53528 0.63041 0.50518 0.0
N1857 N 0.49092 0.66241 0.4953 0.0
H1858 H 0.63464 0.29059 0.74571 0.0
H1859 H 0.75366 0.34759 0.8124 0.0
H1860 H 0.67355 0.35449 0.72542 0.0
H1861 H 0.72762 0.2683 0.79533 0.0
H1862 H 0.72036 0.35524 0.79146 0.0
H1863 H 0.66479 0.28751 0.77573 0.0
C1864 C 0.64929 0.30442 0.74816 0.0
C1865 C 0.65169 0.32281 0.73315 0.0
C1866 C 0.7219 0.33622 0.79269 0.0
C1867 C 0.68597 0.31946 0.76722 0.0
C1868 C 0.74079 0.33188 0.80465 0.0
C1869 C 0.7433 0.3073 0.80546 0.0
C1870 C 0.70532 0.31587 0.78214 0.0
C1871 C 0.72627 0.28752 0.79497 0.0
C1872 C 0.66649 0.30252 0.76505 0.0
C1873 C 0.67112 0.34003 0.73668 0.0
N1874 N 0.70797 0.29221 0.78378 0.0
N1875 N 0.68755 0.33792 0.75332 0.0
H1876 H 0.03071 0.33165 0.95155 0.0
H1877 H 0.99385 0.44516 0.0301 0.0
H1878 H 0.9724 0.32465 0.98302 0.0
H1879 H 0.05744 0.45073 0.01198 0.0
H1880 H 0.98568 0.40107 0.01164 0.0
H1881 H 0.04085 0.37547 0.97229 0.0
C1882 C 0.02008 0.33926 0.96284 0.0
C1883 C 1.00064 0.32443 0.96546 0.0
C1884 C 1.00147 0.41187 0.01178 0.0
C1885 C 1.01208 0.37444 0.98909 0.0
C1886 C 1.00614 0.43712 0.0223 0.0
C1887 C 0.02636 0.45175 0.02257 0.0
C1888 C 0.01703 0.40107 1.00119 0.0
C1889 C 0.04165 0.44017 0.01224 0.0
C1890 C 0.02589 0.36424 0.97469 0.0
C1891 C 0.98753 0.33529 0.98038 0.0
N1892 N 0.03663 0.41553 1.00182 0.0
N1893 N 0.99344 0.35959 0.99148 0.0
H1894 H 0.02247 0.78046 0.20282 0.0
H1895 H 0.94081 0.84419 0.27567 0.0
H1896 H 0.03219 0.85996 0.22864 0.0
H1897 H 0.92777 0.76652 0.24139 0.0
H1898 H 0.97505 0.8501 0.26036 0.0
H1899 H 0.9886 0.77472 0.21881 0.0
C1900 C 0.01756 0.79672 0.21196 0.0
C1901 C 0.03026 0.82075 0.21434 0.0
C1902 C 0.96467 0.83178 0.25613 0.0
C1903 C 0.99133 0.81428 0.23268 0.0
C1904 C 0.94513 0.82837 0.26494 0.0
C1905 C 0.9313 0.80482 0.25978 0.0
C1906 C 0.97057 0.81146 0.24218 0.0
C1907 C 0.93773 0.78508 0.24556 0.0
C1908 C 0.99815 0.79342 0.22101 0.0
C1909 C 0.02297 0.84109 0.22633 0.0
N1910 N 0.95687 0.78883 0.23736 0.0
N1911 N 1.00402 0.83739 0.23503 0.0
H1912 H 0.47523 0.26761 0.14347 0.0
H1913 H 0.55794 0.37532 0.10275 0.0
H1914 H 0.54283 0.28348 0.16806 0.0
H1915 H 0.49057 0.35896 0.07687 0.0
H1916 H 0.55241 0.34296 0.12837 0.0
H1917 H 0.4802 0.30233 0.1205 0.0
C1918 C 0.49109 0.27847 0.14415 0.0
C1919 C 0.50865 0.27256 0.15759 0.0
C1920 C 0.53882 0.34646 0.11711 0.0
C1921 C 0.51446 0.31221 0.13132 0.0
C1922 C 0.54196 0.36501 0.10257 0.0
C1923 C 0.5247 0.36977 0.08759 0.0
C1924 C 0.51825 0.33257 0.11671 0.0
C1925 C 0.50437 0.35563 0.08785 0.0
C1926 C 0.49393 0.29826 0.13101 0.0
C1927 C 0.52884 0.28729 0.15786 0.0
N1928 N 0.50171 0.33764 0.10216 0.0
N1929 N 0.53119 0.30636 0.14484 0.0
H1930 H 1.00109 0.37532 0.39642 0.0
H1931 H 0.88907 0.38527 0.43668 0.0
H1932 H 0.99231 0.40994 0.46832 0.0
H1933 H 0.89914 0.3375 0.37231 0.0
H1934 H 0.92647 0.40654 0.44231 0.0
H1935 H 0.96402 0.37476 0.38138 0.0
C1936 C 0.99159 0.38357 0.40885 0.0
C1937 C 0.99954 0.39194 0.43385 0.0
C1938 C 0.9204 0.3915 0.42687 0.0
C1939 C 0.95715 0.39091 0.41693 0.0
C1940 C 0.89911 0.37933 0.42374 0.0
C1941 C 0.89125 0.35881 0.40478 0.0
C1942 C 0.93381 0.3831 0.41082 0.0
C1943 C 0.90477 0.35243 0.38793 0.0
C1944 C 0.97037 0.38308 0.4003 0.0
C1945 C 0.98658 0.4027 0.44905 0.0
N1946 N 0.92545 0.36425 0.39157 0.0
N1947 N 0.96584 0.40133 0.44051 0.0
H1948 H 0.9927 0.67943 0.61295 0.0
H1949 H 0.02372 0.5931 0.53536 0.0
H1950 H 0.97646 0.61582 0.64911 0.0
H1951 H 0.97363 0.53778 0.55225 0.0
H1952 H 1.00972 0.62584 0.55855 0.0
H1953 H 0.98696 0.65119 0.5736 0.0
C1954 C 0.98739 0.65956 0.61259 0.0
C1955 C 0.98612 0.64977 0.63451 0.0
C1956 C 1.00118 0.60666 0.55633 0.0
C1957 C 0.97998 0.61756 0.5897 0.0
C1958 C 1.00932 0.58796 0.54321 0.0
C1959 C 1.00011 0.5628 0.54247 0.0
C1960 C 0.98394 0.59995 0.56898 0.0
C1961 C 0.98141 0.55703 0.55281 0.0
C1962 C 0.98432 0.64348 0.5901 0.0
C1963 C 0.97855 0.624 0.63276 0.0
N1964 N 0.97433 0.57544 0.56637 0.0
N1965 N 0.97625 0.60865 0.61075 0.0
H1966 H 0.56109 0.79528 0.85922 0.0
H1967 H 0.67961 0.82665 0.8282 0.0
H1968 H 0.60566 0.86441 0.88939 0.0
H1969 H 0.64013 0.75245 0.81346 0.0
H1970 H 0.65008 0.84329 0.84299 0.0
H1971 H 0.58714 0.78238 0.83431 0.0
C1972 C 0.5762 0.80797 0.8603 0.0
C1973 C 0.5813 0.83083 0.87673 0.0
C1974 C 0.64783 0.8234 0.8363 0.0
C1975 C 0.61124 0.81603 0.84832 0.0
C1976 C 0.66471 0.81384 0.82797 0.0
C1977 C 0.66251 0.788 0.81997 0.0
C1978 C 0.62852 0.80707 0.83655 0.0
C1979 C 0.6426 0.77247 0.81941 0.0
C1980 C 0.59111 0.80051 0.84614 0.0
C1981 C 0.60112 0.84651 0.8772 0.0
N1982 N 0.62645 0.78221 0.82783 0.0
N1983 N 0.61545 0.83871 0.86341 0.0
H1984 H 0.44296 0.50571 0.69339 0.0
H1985 H 0.53845 0.58242 0.63632 0.0
H1986 H 0.47602 0.58015 0.72662 0.0
H1987 H 0.4977 0.51457 0.59612 0.0
H1988 H 0.51576 0.58203 0.66876 0.0
H1989 H 0.4618 0.50892 0.65767 0.0
C1990 C 0.45377 0.52309 0.69295 0.0
C1991 C 0.45723 0.54293 0.71313 0.0
C1992 C 0.51155 0.56728 0.65282 0.0
C1993 C 0.48008 0.54636 0.67195 0.0
C1994 C 0.52459 0.56746 0.63409 0.0
C1995 C 0.52013 0.54862 0.61296 0.0
C1996 C 0.49371 0.54784 0.6511 0.0
C1997 C 0.50184 0.52974 0.61166 0.0
C1998 C 0.46475 0.5248 0.67247 0.0
C1999 C 0.47214 0.56458 0.71146 0.0
N2000 N 0.48955 0.52976 0.63037 0.0
N2001 N 0.48303 0.56557 0.69156 0.0
H2002 H 0.78007 0.17575 0.04055 0.0
H2003 H 0.85117 0.21424 0.94087 0.0
H2004 H 0.84723 0.17694 0.04834 0.0
H2005 H 0.78377 0.21203 0.93592 0.0
H2006 H 0.84899 0.1907 0.97492 0.0
H2007 H 0.77985 0.17769 0.997 0.0
C2008 C 0.79471 0.17591 0.03283 0.0
C2009 C 0.81376 0.17666 0.04789 0.0
C2010 C 0.83463 0.19493 0.96598 0.0
C2011 C 0.81389 0.17984 0.99839 0.0
C2012 C 0.83588 0.20854 0.94668 0.0
C2013 C 0.81772 0.21568 0.93585 0.0
C2014 C 0.81511 0.18853 0.97451 0.0
C2015 C 0.79824 0.20708 0.94362 0.0
C2016 C 0.79462 0.17706 1.008 0.0
C2017 C 0.83227 0.17654 0.03717 0.0
N2018 N 0.79753 0.19433 0.96269 0.0
N2019 N 0.83202 0.17883 0.01307 0.0
H2020 H 0.14327 0.51136 0.21694 0.0
H2021 H 0.02957 0.50838 0.13792 0.0
H2022 H 0.08424 0.50916 0.24582 0.0
H2023 H 0.08706 0.52272 0.10569 0.0
H2024 H 0.0501 0.50407 0.17588 0.0
H2025 H 0.12416 0.51065 0.17532 0.0
C2026 C 0.12623 0.50988 0.21449 0.0
C2027 C 0.11536 0.50975 0.23512 0.0
C2028 C 0.05844 0.50812 0.16066 0.0
C2029 C 0.09335 0.50964 0.18736 0.0
C2030 C 0.04661 0.5106 0.13869 0.0
C2031 C 0.05637 0.5161 0.11818 0.0
C2032 C 0.08064 0.51109 0.16287 0.0
C2033 C 0.07867 0.51858 0.12083 0.0
C2034 C 0.11535 0.50988 0.19071 0.0
C2035 C 0.09336 0.50885 0.23066 0.0
N2036 N 0.09001 0.51614 0.14269 0.0
N2037 N 0.08328 0.50883 0.20762 0.0
H2038 H 0.79225 0.86771 0.49826 0.0
H2039 H 0.82807 0.7903 0.38324 0.0
H2040 H 0.84474 0.82953 0.50303 0.0
H2041 H 0.76757 0.81292 0.37891 0.0
H2042 H 0.83422 0.80522 0.42739 0.0
H2043 H 0.78254 0.84842 0.45468 0.0
C2044 C 0.80164 0.85519 0.49023 0.0
C2045 C 0.81944 0.8504 0.50429 0.0
C2046 C 0.81951 0.8068 0.41687 0.0
C2047 C 0.8085 0.82845 0.45464 0.0
C2048 C 0.81602 0.79832 0.3916 0.0
C2049 C 0.79733 0.80048 0.37733 0.0
C2050 C 0.80434 0.81783 0.42804 0.0
C2051 C 0.7822 0.81088 0.38924 0.0
C2052 C 0.79607 0.84417 0.4654 0.0
C2053 C 0.83098 0.83396 0.49295 0.0
N2054 N 0.78612 0.81941 0.41393 0.0
N2055 N 0.82539 0.82376 0.46882 0.0
H2056 H 0.4523 0.57219 0.86967 0.0
H2057 H 0.51463 0.49417 0.95452 0.0
H2058 H 0.48251 0.51249 0.84215 0.0
H2059 H 0.51186 0.57025 0.98309 0.0
H2060 H 0.49791 0.49914 0.91424 0.0
H2061 H 0.46932 0.57103 0.91192 0.0
C2062 C 0.46249 0.559 0.87227 0.0
C2063 C 0.46579 0.5425 0.85178 0.0
C2064 C 0.5009 0.51484 0.92925 0.0
C2065 C 0.48501 0.54065 0.90043 0.0
C2066 C 0.5105 0.51198 0.95245 0.0
C2067 C 0.5149 0.53178 0.97259 0.0
C2068 C 0.49507 0.5376 0.92569 0.0
C2069 C 0.50897 0.5544 0.96826 0.0
C2070 C 0.47222 0.55833 0.89648 0.0
C2071 C 0.47923 0.52576 0.85685 0.0
N2072 N 0.4993 0.55664 0.94549 0.0
N2073 N 0.48798 0.52517 0.88026 0.0
H2074 H 0.86368 0.20751 0.19584 0.0
H2075 H 0.82766 0.3198 0.25713 0.0
H2076 H 0.86201 0.27135 0.15951 0.0
H2077 H 0.86295 0.2788 0.30142 0.0
H2078 H 0.84438 0.30538 0.22197 0.0
H2079 H 0.86937 0.23522 0.23553 0.0
C2080 C 0.86534 0.22746 0.19615 0.0
C2081 C 0.86146 0.237 0.17434 0.0
C2082 C 0.84898 0.30013 0.23957 0.0
C2083 C 0.86748 0.2686 0.21956 0.0
C2084 C 0.83937 0.3083 0.25956 0.0
C2085 C 0.84377 0.30021 0.28198 0.0
C2086 C 0.86252 0.28313 0.24189 0.0
C2087 C 0.85904 0.28531 0.28431 0.0
C2088 C 0.86853 0.2433 0.21887 0.0
C2089 C 0.86416 0.26307 0.17592 0.0
N2090 N 0.86744 0.27662 0.26427 0.0
N2091 N 0.86624 0.27789 0.19817 0.0
H2092 H 0.13123 0.49067 0.38345 0.0
H2093 H 0.079 0.57434 0.48305 0.0
H2094 H 0.11386 0.56115 0.37522 0.0
H2095 H 0.08401 0.49869 0.48963 0.0
H2096 H 0.09468 0.57001 0.445 0.0
H2097 H 0.11694 0.4931 0.42323 0.0
C2098 C 0.12455 0.50661 0.38982 0.0
C2099 C 0.12382 0.5256 0.37539 0.0
C2100 C 0.09243 0.55427 0.45468 0.0
C2101 C 0.10749 0.52867 0.42136 0.0
C2102 C 0.08344 0.5568 0.47664 0.0
C2103 C 0.07992 0.5369 0.4899 0.0
C2104 C 0.09831 0.53167 0.44549 0.0
C2105 C 0.08619 0.51462 0.48019 0.0
C2106 C 0.11632 0.50799 0.41261 0.0
C2107 C 0.11483 0.54577 0.3851 0.0
N2108 N 0.09501 0.51264 0.45878 0.0
N2109 N 0.10723 0.54672 0.40707 0.0
H2110 H 0.80753 0.88554 0.65005 0.0
H2111 H 0.79345 0.76279 0.71252 0.0
H2112 H 0.82788 0.81825 0.62134 0.0
H2113 H 0.79735 0.83659 0.75354 0.0
H2114 H 0.80046 0.78154 0.6761 0.0
H2115 H 0.79759 0.86634 0.68551 0.0
C2116 C 0.80969 0.86669 0.65109 0.0
C2117 C 0.81868 0.85353 0.6329 0.0
C2118 C 0.79979 0.7936 0.6931 0.0
C2119 C 0.80732 0.83155 0.67301 0.0
C2120 C 0.79581 0.78292 0.71382 0.0
C2121 C 0.79492 0.79819 0.73599 0.0
C2122 C 0.80259 0.81968 0.69452 0.0
C2123 C 0.79803 0.82418 0.73677 0.0
C2124 C 0.80416 0.85583 0.67133 0.0
C2125 C 0.82121 0.82917 0.63511 0.0
N2126 N 0.80164 0.83413 0.71627 0.0
N2127 N 0.81555 0.81897 0.65477 0.0
H2128 H 0.69911 0.42245 0.43977 0.0
H2129 H 0.69284 0.53417 0.54451 0.0
H2130 H 0.75081 0.45698 0.49801 0.0
H2131 H 0.64472 0.50634 0.48093 0.0
H2132 H 0.71618 0.50979 0.52507 0.0
H2133 H 0.68091 0.45641 0.45153 0.0
C2134 C 0.70681 0.43738 0.45477 0.0
C2135 C 0.72637 0.43662 0.46816 0.0
C2136 C 0.70062 0.50926 0.51521 0.0
C2137 C 0.70546 0.47542 0.48198 0.0
C2138 C 0.68732 0.52331 0.52626 0.0
C2139 C 0.66664 0.52199 0.51453 0.0
C2140 C 0.69317 0.49364 0.49232 0.0
C2141 C 0.66033 0.50742 0.49095 0.0
C2142 C 0.69639 0.45678 0.46151 0.0
C2143 C 0.73566 0.45663 0.48729 0.0
N2144 N 0.67342 0.49357 0.48078 0.0
N2145 N 0.72496 0.47497 0.49388 0.0
H2146 H 0.20573 0.08929 0.50816 0.0
H2147 H 0.09716 0.06737 0.56602 0.0
H2148 H 0.18383 0.14512 0.55583 0.0
H2149 H 0.1094 0.01379 0.50763 0.0
H2150 H 0.13183 0.09344 0.5661 0.0
H2151 H 0.17346 0.05861 0.51116 0.0
C2152 C 0.19431 0.09498 0.51943 0.0
C2153 C 0.19732 0.11983 0.53153 0.0
C2154 C 0.12702 0.07604 0.55314 0.0
C2155 C 0.16075 0.08515 0.53514 0.0
C2156 C 0.10709 0.0613 0.55295 0.0
C2157 C 0.10017 0.0389 0.53625 0.0
C2158 C 0.1403 0.06836 0.5365 0.0
C2159 C 0.11413 0.03121 0.52055 0.0
C2160 C 0.1759 0.07757 0.52104 0.0
C2161 C 0.18205 0.12629 0.54587 0.0
N2162 N 0.13353 0.04605 0.52087 0.0
N2163 N 0.16453 0.10916 0.5472 0.0
H2164 H 0.207 0.9486 0.78197 0.0
H2165 H 0.24715 0.83585 0.84166 0.0
H2166 H 0.19538 0.93028 0.8527 0.0
H2167 H 0.25862 0.84855 0.76918 0.0
H2168 H 0.2287 0.87081 0.84523 0.0
H2169 H 0.22611 0.91356 0.77625 0.0
C2170 C 0.2084 0.93743 0.79635 0.0
C2171 C 0.19925 0.94296 0.81794 0.0
C2172 C 0.23521 0.86613 0.82846 0.0
C2173 C 0.22148 0.90213 0.81139 0.0
C2174 C 0.24591 0.84592 0.82637 0.0
C2175 C 0.25481 0.83872 0.80505 0.0
C2176 C 0.23308 0.88001 0.80917 0.0
C2177 C 0.25222 0.85303 0.78605 0.0
C2178 C 0.21937 0.91724 0.79303 0.0
C2179 C 0.20189 0.92727 0.83567 0.0
N2180 N 0.24176 0.87275 0.78856 0.0
N2181 N 0.21254 0.90803 0.83203 0.0
H2182 H 0.33357 0.88082 0.91111 0.0
H2183 H 0.4312 0.97935 0.98886 0.0
H2184 H 0.32856 0.94726 0.9598 0.0
H2185 H 0.43591 0.90912 0.94652 0.0
H2186 H 0.39479 0.97387 0.96864 0.0
H2187 H 0.37147 0.89742 0.91322 0.0
C2188 C 0.34033 0.89927 0.92166 0.0
C2189 C 0.32812 0.91226 0.93611 0.0
C2190 C 0.40383 0.95974 0.96355 0.0
C2191 C 0.3714 0.93128 0.93869 0.0
C2192 C 0.42455 0.96272 0.97527 0.0
C2193 C 0.43629 0.94408 0.9701 0.0
C2194 C 0.39466 0.93787 0.94663 0.0
C2195 C 0.42722 0.92357 0.95151 0.0
C2196 C 0.362 0.9087 0.92291 0.0
C2197 C 0.33749 0.93636 0.94881 0.0
N2198 N 0.40677 0.92072 0.94078 0.0
N2199 N 0.35874 0.94483 0.95034 0.0
H2200 H 0.86561 0.60628 0.79465 0.0
H2201 H 0.8596 0.7522 0.79542 0.0
H2202 H 0.91922 0.66518 0.79351 0.0
H2203 H 0.80375 0.69563 0.79443 0.0
H2204 H 0.88101 0.71996 0.79466 0.0
H2205 H 0.84251 0.63741 0.79469 0.0
C2206 C 0.87263 0.62562 0.79441 0.0
C2207 C 0.89469 0.63271 0.79408 0.0
C2208 C 0.86408 0.71445 0.79459 0.0
C2209 C 0.86798 0.66894 0.79413 0.0
C2210 C 0.85169 0.73302 0.79499 0.0
C2211 C 0.82953 0.72705 0.79494 0.0
C2212 C 0.85462 0.68919 0.79425 0.0
C2213 C 0.82064 0.70147 0.79439 0.0
C2214 C 0.85934 0.6435 0.79442 0.0
C2215 C 0.90249 0.65837 0.79377 0.0
N2216 N 0.83309 0.68371 0.79412 0.0
N2217 N 0.88935 0.6752 0.79383 0.0
H2218 H 0.80002 0.60561 0.01411 0.0
H2219 H 0.9253 0.61635 0.05143 0.0
H2220 H 0.84433 0.67539 0.04218 0.0
H2221 H 0.88236 0.54746 0.01654 0.0
H2222 H 0.89584 0.6382 0.04797 0.0
H2223 H 0.82977 0.58382 0.01517 0.0
C2224 C 0.81597 0.61637 0.02049 0.0
C2225 C 0.8196 0.64242 0.0281 0.0
C2226 C 0.89286 0.61831 0.04099 0.0
C2227 C 0.85382 0.61753 0.02937 0.0
C2228 C 0.90977 0.6058 0.04278 0.0
C2229 C 0.90645 0.5799 0.03433 0.0
C2230 C 0.87233 0.60491 0.03073 0.0
C2231 C 0.88573 0.56732 0.02371 0.0
C2232 C 0.83298 0.60391 0.02105 0.0
C2233 C 0.84068 0.65532 0.03614 0.0
N2234 N 0.86952 0.57989 0.0223 0.0
N2235 N 0.85691 0.64277 0.03661 0.0
H2236 H 0.22986 0.07604 0.81305 0.0
H2237 H 0.24415 0.22472 0.80813 0.0
H2238 H 0.18025 0.11798 0.82032 0.0
H2239 H 0.29678 0.18706 0.81188 0.0
H2240 H 0.22023 0.18499 0.81034 0.0
H2241 H 0.25452 0.11544 0.81072 0.0
C2242 C 0.22409 0.09331 0.81426 0.0
C2243 C 0.20271 0.0932 0.81697 0.0
C2244 C 0.23703 0.18537 0.81064 0.0
C2245 C 0.23096 0.13871 0.81397 0.0
C2246 C 0.2507 0.20816 0.80928 0.0
C2247 C 0.27262 0.20948 0.80976 0.0
C2248 C 0.24517 0.16345 0.81231 0.0
C2249 C 0.28004 0.18715 0.81147 0.0
C2250 C 0.23819 0.11591 0.81287 0.0
C2251 C 0.19642 0.1166 0.81827 0.0
N2252 N 0.26649 0.16529 0.81261 0.0
N2253 N 0.21026 0.13799 0.8167 0.0
H2254 H 0.38097 0.96539 0.25035 0.0
H2255 H 0.3249 0.8778 0.33737 0.0
H2256 H 0.37539 0.99333 0.3253 0.0
H2257 H 0.31921 0.85585 0.25868 0.0
H2258 H 0.34291 0.92 0.33353 0.0
H2259 H 0.3575 0.9258 0.25281 0.0
C2260 C 0.3742 0.96349 0.2671 0.0
C2261 C 0.3797 0.98309 0.28739 0.0
C2262 C 0.33762 0.90601 0.31708 0.0
C2263 C 0.35351 0.93694 0.29089 0.0
C2264 C 0.32734 0.88176 0.31925 0.0
C2265 C 0.32044 0.8629 0.29835 0.0
C2266 C 0.34135 0.91166 0.29384 0.0
C2267 C 0.32415 0.86954 0.2754 0.0
C2268 C 0.36096 0.9407 0.26862 0.0
C2269 C 0.37109 0.97909 0.30896 0.0
N2270 N 0.3344 0.89312 0.27383 0.0
N2271 N 0.35867 0.95646 0.31023 0.0
H2272 H 0.62182 0.38588 0.6288 0.0
H2273 H 0.52703 0.44958 0.58178 0.0
H2274 H 0.55912 0.36738 0.64892 0.0
H2275 H 0.593 0.47808 0.57749 0.0
H2276 H 0.53761 0.41725 0.60358 0.0
H2277 H 0.61073 0.41802 0.60769 0.0
C2278 C 0.6057 0.38864 0.62887 0.0
C2279 C 0.59136 0.37386 0.64064 0.0
C2280 C 0.54973 0.43059 0.59782 0.0
C2281 C 0.57847 0.41068 0.61618 0.0
C2282 C 0.54371 0.44893 0.58522 0.0
C2283 C 0.55916 0.46659 0.57776 0.0
C2284 C 0.57131 0.42975 0.60281 0.0
C2285 C 0.58053 0.46494 0.58291 0.0
C2286 C 0.59938 0.40706 0.61679 0.0
C2287 C 0.5707 0.37842 0.64016 0.0
N2288 N 0.58595 0.44685 0.59507 0.0
N2289 N 0.56481 0.39634 0.62796 0.0
H2290 H 0.41011 0.7459 0.41619 0.0
H2291 H 0.36493 0.76821 0.28235 0.0
H2292 H 0.45052 0.75796 0.3606 0.0
H2293 H 0.33044 0.76835 0.34404 0.0
H2294 H 0.39562 0.76014 0.30838 0.0
H2295 H 0.37987 0.74914 0.3876 0.0
C2296 C 0.41265 0.74909 0.39786 0.0
C2297 C 0.43302 0.75192 0.39092 0.0
C2298 C 0.38133 0.76202 0.31621 0.0
C2299 C 0.39813 0.75581 0.35784 0.0
C2300 C 0.36387 0.7666 0.3014 0.0
C2301 C 0.34535 0.76947 0.31137 0.0
C2302 C 0.38 0.75996 0.34098 0.0
C2303 C 0.34463 0.76701 0.33598 0.0
C2304 C 0.39529 0.751 0.3815 0.0
C2305 C 0.43513 0.75572 0.36676 0.0
N2306 N 0.36164 0.7624 0.34992 0.0
N2307 N 0.4179 0.75775 0.3511 0.0
H2308 H 0.04866 0.73191 0.14037 0.0
H2309 H 0.08274 0.61756 0.0619 0.0
H2310 H 0.09782 0.7406 0.09408 0.0
H2311 H 0.02096 0.61084 0.08539 0.0
H2312 H 0.08936 0.66266 0.07593 0.0
H2313 H 0.03854 0.68735 0.12221 0.0
C2314 C 0.05716 0.72455 0.12624 0.0
C2315 C 0.07422 0.73999 0.11889 0.0
C2316 C 0.07429 0.65134 0.07789 0.0
C2317 C 0.06294 0.68917 0.0984 0.0
C2318 C 0.07056 0.62557 0.07 0.0
C2319 C 0.05131 0.61041 0.07255 0.0
C2320 C 0.05881 0.66203 0.08874 0.0
C2321 C 0.03603 0.62186 0.08304 0.0
C2322 C 0.05138 0.69915 0.11591 0.0
C2323 C 0.08465 0.72944 0.10046 0.0
N2324 N 0.04018 0.64701 0.09097 0.0
N2325 N 0.079 0.70468 0.09108 0.0
H2326 H 0.04385 0.24653 0.85891 0.0
H2327 H 0.171 0.278 0.87297 0.0
H2328 H 0.08466 0.27175 0.92869 0.0
H2329 H 0.13071 0.2425 0.80478 0.0
H2330 H 0.13956 0.2763 0.89354 0.0
H2331 H 0.07536 0.24604 0.83848 0.0
C2332 C 0.05941 0.252 0.86995 0.0
C2333 C 0.06155 0.25922 0.89559 0.0
C2334 C 0.13759 0.26879 0.87409 0.0
C2335 C 0.09776 0.25869 0.87228 0.0
C2336 C 0.15561 0.26956 0.86232 0.0
C2337 C 0.15364 0.26043 0.83699 0.0
C2338 C 0.11733 0.25893 0.86049 0.0
C2339 C 0.13309 0.25017 0.82421 0.0
C2340 C 0.07741 0.25164 0.85827 0.0
C2341 C 0.08217 0.26605 0.9089 0.0
N2342 N 0.11579 0.2498 0.83604 0.0
N2343 N 0.09942 0.26567 0.89711 0.0
H2344 H 0.57948 0.77626 0.94569 0.0
H2345 H 0.51484 0.65394 0.98295 0.0
H2346 H 0.5155 0.76594 0.9628 0.0
H2347 H 0.58302 0.67092 0.98746 0.0
H2348 H 0.51271 0.68793 0.95968 0.0
H2349 H 0.57853 0.73151 0.94593 0.0
C2350 C 0.5651 0.76442 0.94891 0.0
C2351 C 0.54774 0.77469 0.9549 0.0
C2352 C 0.52812 0.6839 0.9653 0.0
C2353 C 0.54643 0.72402 0.95487 0.0
C2354 C 0.52932 0.66458 0.97859 0.0
C2355 C 0.54916 0.66024 0.98763 0.0
C2356 C 0.54691 0.69918 0.96146 0.0
C2357 C 0.56745 0.67402 0.98104 0.0
C2358 C 0.56456 0.73901 0.94905 0.0
C2359 C 0.5294 0.75874 0.95874 0.0
N2360 N 0.56595 0.69337 0.9688 0.0
N2361 N 0.52931 0.73423 0.95893 0.0
H2362 H 0.08838 0.72401 0.66709 0.0
H2363 H 0.19265 0.66731 0.68637 0.0
H2364 H 0.0915 0.66027 0.70324 0.0
H2365 H 0.19118 0.7399 0.6666 0.0
H2366 H 0.15386 0.65876 0.68281 0.0
H2367 H 0.12421 0.72445 0.65795 0.0
C2368 C 0.0966 0.71009 0.6732 0.0
C2369 C 0.08699 0.69234 0.68641 0.0
C2370 C 0.16207 0.67637 0.67888 0.0
C2371 C 0.12823 0.69274 0.67577 0.0
C2372 C 0.18421 0.68129 0.68087 0.0
C2373 C 0.19534 0.70468 0.67748 0.0
C2374 C 0.15101 0.6949 0.67326 0.0
C2375 C 0.18346 0.72168 0.66958 0.0
C2376 C 0.11708 0.71031 0.66783 0.0
C2377 C 0.0984 0.67455 0.69339 0.0
N2378 N 0.162 0.7166 0.66812 0.0
N2379 N 0.11853 0.67532 0.68816 0.0
H2380 H 0.10559 0.42751 0.47864 0.0
H2381 H 0.1201 0.53845 0.55324 0.0
H2382 H 0.09383 0.39226 0.54157 0.0
H2383 H 0.07562 0.49331 0.58916 0.0
H2384 H 0.13302 0.50103 0.53764 0.0
H2385 H 0.1188 0.46734 0.50602 0.0
C2386 C 0.10676 0.42789 0.49833 0.0
C2387 C 0.09776 0.40684 0.50782 0.0
C2388 C 0.12074 0.49943 0.54933 0.0
C2389 C 0.11273 0.45232 0.53929 0.0
C2390 C 0.11345 0.52076 0.55837 0.0
C2391 C 0.0964 0.51867 0.57193 0.0
C2392 C 0.11083 0.47607 0.55399 0.0
C2393 C 0.08849 0.49551 0.57832 0.0
C2394 C 0.11436 0.45075 0.51407 0.0
C2395 C 0.09991 0.40834 0.53347 0.0
N2396 N 0.09558 0.47499 0.56898 0.0
N2397 N 0.10645 0.43093 0.5483 0.0
H2398 H 0.50754 0.2603 0.25904 0.0
H2399 H 0.40034 0.24777 0.31367 0.0
H2400 H 0.47288 0.18936 0.27072 0.0
H2401 H 0.4443 0.31826 0.31995 0.0
H2402 H 0.42807 0.22585 0.30227 0.0
H2403 H 0.48639 0.28176 0.28509 0.0
C2404 C 0.49563 0.24925 0.26741 0.0
C2405 C 0.49172 0.22303 0.26249 0.0
C2406 C 0.43179 0.2461 0.30658 0.0
C2407 C 0.46717 0.24746 0.29202 0.0
C2408 C 0.41596 0.25868 0.31324 0.0
C2409 C 0.41986 0.28497 0.31743 0.0
C2410 C 0.45158 0.2599 0.30377 0.0
C2411 C 0.44039 0.29801 0.31627 0.0
C2412 C 0.48359 0.26152 0.28235 0.0
C2413 C 0.4763 0.20962 0.27399 0.0
N2414 N 0.45537 0.28535 0.30918 0.0
N2415 N 0.46425 0.22199 0.28787 0.0
H2416 H 0.64159 0.55349 0.40308 0.0
H2417 H 0.54908 0.47512 0.46317 0.0
H2418 H 0.61107 0.47744 0.37241 0.0
H2419 H 0.58725 0.54573 0.50066 0.0
H2420 H 0.57182 0.47538 0.43076 0.0
H2421 H 0.62311 0.55057 0.4391 0.0
C2422 C 0.63143 0.53585 0.40415 0.0
C2423 C 0.62855 0.51548 0.38458 0.0
C2424 C 0.57547 0.49076 0.44612 0.0
C2425 C 0.60609 0.51233 0.42611 0.0
C2426 C 0.5624 0.49066 0.46483 0.0
C2427 C 0.56614 0.5103 0.48521 0.0
C2428 C 0.59258 0.51093 0.44707 0.0
C2429 C 0.58372 0.52991 0.48577 0.0
C2430 C 0.62065 0.53429 0.4248 0.0
C2431 C 0.61446 0.49347 0.38707 0.0
N2432 N 0.59604 0.52979 0.46708 0.0
N2433 N 0.60374 0.49261 0.40711 0.0
H2434 H 0.32285 0.85894 0.03902 0.0
H2435 H 0.26101 0.8473 0.15314 0.0
H2436 H 0.26707 0.8897 0.04833 0.0
H2437 H 0.31992 0.82272 0.14674 0.0
H2438 H 0.26573 0.86845 0.11785 0.0
H2439 H 0.32508 0.85138 0.0813 0.0
C2440 C 0.3112 0.86437 0.05007 0.0
C2441 C 0.29449 0.87449 0.04002 0.0
C2442 C 0.27779 0.85873 0.12434 0.0
C2443 C 0.29683 0.86567 0.08836 0.0
C2444 C 0.27503 0.84656 0.14437 0.0
C2445 C 0.28992 0.83291 0.1525 0.0
C2446 C 0.29543 0.85697 0.11219 0.0
C2447 C 0.30804 0.83297 0.14094 0.0
C2448 C 0.31251 0.86009 0.07425 0.0
C2449 C 0.28006 0.88157 0.05528 0.0
N2450 N 0.31013 0.84449 0.12109 0.0
N2451 N 0.28136 0.87663 0.07861 0.0
H2452 H 0.99889 0.57002 0.85774 0.0
H2453 H 0.99233 0.53957 0.99534 0.0
H2454 H 0.93883 0.55355 0.88408 0.0
H2455 H 0.0498 0.55824 0.96397 0.0
H2456 H 0.97185 0.54664 0.95719 0.0
H2457 H 0.0171 0.56892 0.89848 0.0
C2458 C 0.98949 0.56693 0.87235 0.0
C2459 C 0.96722 0.56261 0.86735 0.0
C2460 C 0.98897 0.5493 0.95878 0.0
C2461 C 0.98824 0.55998 0.91471 0.0
C2462 C 1.00069 0.54524 0.98063 0.0
C2463 C 0.02298 0.54814 0.9831 0.0
C2464 C 0.99956 0.5564 0.9392 0.0
C2465 C 0.03274 0.55559 0.96319 0.0
C2466 C 0.99994 0.56596 0.89573 0.0
C2467 C 0.95601 0.55779 0.88711 0.0
N2468 N 0.02113 0.55932 0.94243 0.0
N2469 N 0.96656 0.55637 0.90972 0.0
H2470 H 0.29334 0.188 0.60341 0.0
H2471 H 0.26578 0.27808 0.71269 0.0
H2472 H 0.26228 0.24937 0.59312 0.0
H2473 H 0.31939 0.24264 0.72386 0.0
H2474 H 0.26381 0.26594 0.66841 0.0
H2475 H 0.30373 0.20646 0.64723 0.0
C2476 C 0.28909 0.20556 0.61022 0.0
C2477 C 0.27656 0.2169 0.59474 0.0
C2478 C 0.27616 0.26099 0.68049 0.0
C2479 C 0.28807 0.23775 0.64449 0.0
C2480 C 0.27717 0.26776 0.70577 0.0
C2481 C 0.29266 0.26118 0.72188 0.0
C2482 C 0.29045 0.24706 0.67119 0.0
C2483 C 0.3072 0.24804 0.71195 0.0
C2484 C 0.29498 0.21603 0.63517 0.0
C2485 C 0.27154 0.23967 0.60447 0.0
N2486 N 0.30556 0.24103 0.68714 0.0
N2487 N 0.27701 0.24911 0.62876 0.0
H2488 H 0.63542 0.4848 0.22888 0.0
H2489 H 0.56682 0.55145 0.13859 0.0
H2490 H 0.59844 0.53882 0.25284 0.0
H2491 H 0.57834 0.47849 0.11204 0.0
H2492 H 0.58265 0.54865 0.17988 0.0
H2493 H 0.61875 0.48304 0.18586 0.0
C2494 C 0.62378 0.4961 0.22533 0.0
C2495 C 0.61853 0.51199 0.24502 0.0
C2496 C 0.58175 0.53313 0.16514 0.0
C2497 C 0.59964 0.51045 0.19547 0.0
C2498 C 0.57267 0.53474 0.14134 0.0
C2499 C 0.571 0.51517 0.12143 0.0
C2500 C 0.58983 0.51194 0.16961 0.0
C2501 C 0.57903 0.49403 0.12666 0.0
C2502 C 0.61426 0.49511 0.20067 0.0
C2503 C 0.60329 0.52624 0.23876 0.0
N2504 N 0.58821 0.49306 0.15007 0.0
N2505 N 0.59473 0.52529 0.21492 0.0
H2506 H 0.22946 0.79574 0.94203 0.0
H2507 H 0.2181 0.77811 0.7975 0.0
H2508 H 0.22625 0.85499 0.8998 0.0
H2509 H 0.25 0.7364 0.84443 0.0
H2510 H 0.20324 0.79637 0.83274 0.0
H2511 H 0.21724 0.76502 0.9044 0.0
C2512 C 0.22524 0.80225 0.92498 0.0
C2513 C 0.22958 0.82788 0.92377 0.0
C2514 C 0.2128 0.78248 0.83505 0.0
C2515 C 0.21605 0.79299 0.88085 0.0
C2516 C 0.22128 0.77201 0.81499 0.0
C2517 C 0.23566 0.75617 0.81834 0.0
C2518 C 0.21848 0.77662 0.85833 0.0
C2519 C 0.23926 0.74889 0.84129 0.0
C2520 C 0.21837 0.78471 0.90352 0.0
C2521 C 0.22351 0.83536 0.90139 0.0
N2522 N 0.23098 0.75949 0.86057 0.0
N2523 N 0.21769 0.81794 0.88053 0.0
H2524 H 0.96082 0.50863 0.72169 0.0
H2525 H 0.0171 0.58553 0.6256 0.0
H2526 H 0.96383 0.58792 0.72666 0.0
H2527 H 1.00824 0.50564 0.62181 0.0
H2528 H 0.99849 0.58788 0.66194 0.0
H2529 H 0.97783 0.50841 0.68499 0.0
C2530 C 0.96495 0.52617 0.71508 0.0
C2531 C 0.9607 0.54836 0.72784 0.0
C2532 C 1.0004 0.56983 0.653 0.0
C2533 C 0.98095 0.54819 0.68466 0.0
C2534 C 1.0112 0.56841 0.6322 0.0
C2535 C 0.01451 0.54528 0.62028 0.0
C2536 C 0.99248 0.54795 0.66214 0.0
C2537 C 1.00631 0.52394 0.63009 0.0
C2538 C 0.9748 0.52596 0.69385 0.0
C2539 C 0.96653 0.57026 0.71768 0.0
N2540 N 0.99583 0.52583 0.65015 0.0
N2541 N 0.97644 0.56964 0.69692 0.0
H2542 H 0.27407 0.1791 0.44933 0.0
H2543 H 0.28021 0.30304 0.39008 0.0
H2544 H 0.24368 0.23928 0.47524 0.0
H2545 H 0.28288 0.23208 0.34741 0.0
H2546 H 0.27178 0.28159 0.42457 0.0
H2547 H 0.28264 0.19999 0.41436 0.0
C2548 C 0.26923 0.19663 0.44767 0.0
C2549 C 0.25804 0.20738 0.4651 0.0
C2550 C 0.27418 0.27075 0.40761 0.0
C2551 C 0.26802 0.23139 0.42569 0.0
C2552 C 0.27899 0.28298 0.38801 0.0
C2553 C 0.28218 0.26928 0.36598 0.0
C2554 C 0.27296 0.24478 0.4052 0.0
C2555 C 0.28044 0.2433 0.36413 0.0
C2556 C 0.27405 0.20847 0.42775 0.0
C2557 C 0.25215 0.23017 0.46213 0.0
N2558 N 0.27611 0.23188 0.38358 0.0
N2559 N 0.25732 0.24147 0.44292 0.0
H2560 H 0.36508 0.62535 0.63468 0.0
H2561 H 0.39 0.52024 0.53435 0.0
H2562 H 0.32579 0.59628 0.5644 0.0
H2563 H 0.42842 0.54756 0.60542 0.0
H2564 H 0.36335 0.54316 0.54763 0.0
H2565 H 0.38526 0.59245 0.62702 0.0
C2566 C 0.36045 0.61181 0.61782 0.0
C2567 C 0.34392 0.61385 0.59998 0.0
C2568 C 0.37749 0.54392 0.56044 0.0
C2569 C 0.36715 0.57628 0.59095 0.0
C2570 C 0.39268 0.53067 0.55291 0.0
C2571 C 0.41165 0.53222 0.56866 0.0
C2572 C 0.3813 0.55896 0.58386 0.0
C2573 C 0.41427 0.54629 0.59244 0.0
C2574 C 0.37204 0.59304 0.61342 0.0
C2575 C 0.33856 0.59564 0.57856 0.0
N2576 N 0.3994 0.55933 0.5992 0.0
N2577 N 0.35033 0.57785 0.5745 0.0
H2578 H 0.90509 0.94258 0.61939 0.0
H2579 H 0.97806 1.00134 0.53064 0.0
H2580 H 0.87809 0.95544 0.54887 0.0
H2581 H 0.99308 0.02594 0.60918 0.0
H2582 H 0.94246 0.98037 0.5362 0.0
H2583 H 0.93847 0.97038 0.61604 0.0
C2584 C 0.90607 0.95186 0.60352 0.0
C2585 C 0.88883 0.94709 0.58453 0.0
C2586 C 0.95354 0.99048 0.55216 0.0
C2587 C 0.92711 0.97777 0.58001 0.0
C2588 C 0.97388 1.0022 0.54904 0.0
C2589 C 0.98846 0.0153 0.56952 0.0
C2590 C 0.94801 0.9914 0.57595 0.0
C2591 C 0.98225 0.01601 0.59294 0.0
C2592 C 0.9251 0.96755 0.60154 0.0
C2593 C 0.89096 0.95907 0.56408 0.0
N2594 N 0.96254 1.00399 0.59558 0.0
N2595 N 0.90994 0.97351 0.5621 0.0
H2596 H 0.88086 0.11383 0.25974 0.0
H2597 H 0.82809 0.21591 0.33963 0.0
H2598 H 0.8811 0.12214 0.33815 0.0
H2599 H 0.82878 0.21292 0.26177 0.0
H2600 H 0.84698 0.18119 0.33846 0.0
H2601 H 0.86167 0.14876 0.259 0.0
C2602 C 0.87694 0.12278 0.2768 0.0
C2603 C 0.8829 0.11448 0.29905 0.0
C2604 C 0.84304 0.188 0.32153 0.0
C2605 C 0.86055 0.15516 0.29833 0.0
C2606 C 0.83212 0.20805 0.32219 0.0
C2607 C 0.82648 0.21782 0.30079 0.0
C2608 C 0.84868 0.177 0.29927 0.0
C2609 C 0.83252 0.20632 0.27886 0.0
C2610 C 0.86592 0.14291 0.27637 0.0
C2611 C 0.87712 0.12738 0.32042 0.0
N2612 N 0.84312 0.18677 0.27869 0.0
N2613 N 0.86648 0.14665 0.31948 0.0
H2614 H 0.75648 0.13013 0.13243 0.0
H2615 H 0.65531 0.18993 0.13102 0.0
H2616 H 0.75893 0.20736 0.16284 0.0
H2617 H 0.65059 0.11051 0.12877 0.0
H2618 H 0.69369 0.19625 0.14251 0.0
H2619 H 0.71794 0.12143 0.13268 0.0
C2620 C 0.74903 0.14508 0.13975 0.0
C2621 C 0.76084 0.16961 0.14715 0.0
C2622 C 0.68419 0.17749 0.14004 0.0
C2623 C 0.71696 0.15997 0.14694 0.0
C2624 C 0.6623 0.17387 0.13328 0.0
C2625 C 0.64971 0.14967 0.1288 0.0
C2626 C 0.69359 0.1568 0.14253 0.0
C2627 C 0.65964 0.12955 0.13232 0.0
C2628 C 0.72704 0.14015 0.13977 0.0
C2629 C 0.75038 0.18828 0.15649 0.0
N2630 N 0.68103 0.13353 0.13872 0.0
N2631 N 0.72901 0.18318 0.15562 0.0
H2632 H 0.21645 0.46489 0.30683 0.0
H2633 H 0.22068 0.31864 0.30728 0.0
H2634 H 0.16231 0.40755 0.31023 0.0
H2635 H 0.27676 0.3747 0.30782 0.0
H2636 H 0.19948 0.3512 0.3078 0.0
H2637 H 0.23885 0.43308 0.30666 0.0
C2638 C 0.20917 0.44574 0.30753 0.0
C2639 C 0.18718 0.4393 0.30853 0.0
C2640 C 0.21644 0.35652 0.30794 0.0
C2641 C 0.21308 0.40226 0.30832 0.0
C2642 C 0.22868 0.33778 0.30766 0.0
C2643 C 0.25083 0.34355 0.30763 0.0
C2644 C 0.2261 0.3817 0.30817 0.0
C2645 C 0.25987 0.36902 0.30794 0.0
C2646 C 0.22205 0.42747 0.30745 0.0
C2647 C 0.17902 0.41385 0.30943 0.0
N2648 N 0.24761 0.38693 0.30818 0.0
N2649 N 0.19178 0.3966 0.30927 0.0
H2650 H 0.27185 0.4487 0.02361 0.0
H2651 H 0.18279 0.49139 0.09957 0.0
H2652 H 0.27048 0.44105 0.09973 0.0
H2653 H 0.17961 0.48496 0.02078 0.0
H2654 H 0.21626 0.47635 0.10124 0.0
H2655 H 0.23973 0.46573 0.02364 0.0
C2656 C 0.2649 0.45074 0.04044 0.0
C2657 C 0.27394 0.4433 0.06169 0.0
C2658 C 0.20819 0.47819 0.0836 0.0
C2659 C 0.23681 0.46285 0.06178 0.0
C2660 C 0.18912 0.48686 0.08264 0.0
C2661 C 0.17822 0.48931 0.05997 0.0
C2662 C 0.2166 0.47219 0.06178 0.0
C2663 C 0.18718 0.483 0.03863 0.0
C2664 C 0.24644 0.46041 0.04039 0.0
C2665 C 0.26409 0.44649 0.0829 0.0
N2666 N 0.20578 0.47485 0.04008 0.0
N2667 N 0.24605 0.45597 0.0824 0.0
H2668 H 0.85528 0.98505 0.2856 0.0
H2669 H 0.83889 0.83561 0.28739 0.0
H2670 H 0.90291 0.94138 0.27237 0.0
H2671 H 0.78789 0.87572 0.29053 0.0
H2672 H 0.86296 0.8748 0.28382 0.0
H2673 H 0.83054 0.9461 0.28897 0.0
C2674 C 0.86059 0.96747 0.28326 0.0
C2675 C 0.88145 0.96697 0.27863 0.0
C2676 C 0.84649 0.87506 0.28532 0.0
C2677 C 0.85311 0.92196 0.28283 0.0
C2678 C 0.83273 0.85258 0.28744 0.0
C2679 C 0.81121 0.85212 0.28931 0.0
C2680 C 0.83884 0.8975 0.28521 0.0
C2681 C 0.80429 0.87495 0.28912 0.0
C2682 C 0.84644 0.94513 0.28526 0.0
C2683 C 0.88716 0.94322 0.27596 0.0
N2684 N 0.81792 0.89648 0.28718 0.0
N2685 N 0.8733 0.92206 0.27817 0.0
H2686 H 0.70684 0.10392 0.8524 0.0
H2687 H 0.75988 0.19382 0.76651 0.0
H2688 H 0.70997 0.07802 0.77623 0.0
H2689 H 0.77195 0.21201 0.84572 0.0
H2690 H 0.74213 0.1514 0.76966 0.0
H2691 H 0.73163 0.14286 0.85078 0.0
C2692 C 0.71338 0.10606 0.83555 0.0
C2693 C 0.70676 0.08731 0.81463 0.0
C2694 C 0.74883 0.16458 0.78638 0.0
C2695 C 0.73436 0.1327 0.81216 0.0
C2696 C 0.75895 0.18895 0.78462 0.0
C2697 C 0.76749 0.20684 0.8059 0.0
C2698 C 0.74682 0.15787 0.80962 0.0
C2699 C 0.76573 0.19909 0.82878 0.0
C2700 C 0.72736 0.12847 0.83454 0.0
C2701 C 0.71511 0.09161 0.793 0.0
N2702 N 0.75545 0.17541 0.83002 0.0
N2703 N 0.72819 0.11392 0.79222 0.0
loop_
_geom_bond_atom_site_label_1
_geom_bond_atom_site_label_2
_geom_bond_distance
_geom_bond_site_symmetry_2
_ccdc_geom_bond_type
Zn0 O3 2.031 . S
Zn0 O5 2.049 . S
Zn0 O10 2.067 . S
Zn1 O2 1.962 . S
Zn1 O4 1.986 . S
Zn1 O6 1.996 . S
Zn1 O9 1.943 . S
O2 Zn1 1.962 . S
O2 C7 1.254 . S
O3 Zn0 2.031 . S
O3 C7 1.269 . S
O4 Zn1 1.986 . S
O4 C11 1.262 . S
O5 Zn0 2.049 . S
O5 C13 1.260 . S
O6 Zn1 1.996 . S
O6 C13 1.257 . S
C7 O2 1.254 . S
C7 O3 1.269 . S
C8 O9 1.249 . S
C8 O10 1.270 . S
O9 Zn1 1.943 . S
O9 C8 1.249 . S
O10 Zn0 2.067 . S
O10 C8 1.270 . S
C11 O4 1.262 . S
C11 O12 1.232 . S
O12 C11 1.232 . S
C13 O5 1.260 . S
C13 O6 1.257 . S
Zn14 O17 2.031 1_455 S
Zn14 O19 2.049 . S
Zn14 O24 2.067 . S
Zn15 O16 1.962 1_455 S
Zn15 O18 1.986 . S
Zn15 O20 1.996 . S
Zn15 O23 1.943 . S
O16 Zn15 1.962 1_655 S
O16 C21 1.254 . S
O17 Zn14 2.031 1_655 S
O17 C21 1.269 . S
O18 Zn15 1.986 . S
O18 C25 1.262 . S
O19 Zn14 2.049 . S
O19 C27 1.260 . S
O20 Zn15 1.996 . S
O20 C27 1.257 . S
C21 O16 1.254 . S
C21 O17 1.269 . S
C22 O23 1.249 . S
C22 O24 1.270 . S
O23 Zn15 1.943 . S
O23 C22 1.249 . S
O24 Zn14 2.067 . S
O24 C22 1.270 . S
C25 O18 1.262 . S
C25 O26 1.232 1_455 S
O26 C25 1.232 1_655 S
C27 O19 1.260 . S
C27 O20 1.257 . S
Zn28 O31 2.031 . S
Zn28 O33 2.049 1_556 S
Zn28 O38 2.067 . S
Zn29 O30 1.962 . S
Zn29 O32 1.986 . S
Zn29 O34 1.996 . S
Zn29 O37 1.943 . S
O30 Zn29 1.962 . S
O30 C35 1.254 . S
O31 Zn28 2.031 . S
O31 C35 1.269 . S
O32 Zn29 1.986 . S
O32 C39 1.262 . S
O33 Zn28 2.049 1_554 S
O33 C41 1.260 1_554 S
O34 Zn29 1.996 . S
O34 C41 1.257 . S
C35 O30 1.254 . S
C35 O31 1.269 . S
C36 O37 1.249 . S
C36 O38 1.270 . S
O37 Zn29 1.943 . S
O37 C36 1.249 . S
O38 Zn28 2.067 . S
O38 C36 1.270 . S
C39 O32 1.262 . S
C39 O40 1.232 . S
O40 C39 1.232 . S
C41 O33 1.260 1_556 S
C41 O34 1.257 . S
Zn42 O45 2.031 . S
Zn42 O47 2.049 . S
Zn42 O52 2.067 . S
Zn43 O44 1.962 . S
Zn43 O46 1.986 . S
Zn43 O48 1.996 . S
Zn43 O51 1.943 . S
O44 Zn43 1.962 . S
O44 C49 1.254 . S
O45 Zn42 2.031 . S
O45 C49 1.269 . S
O46 Zn43 1.986 . S
O46 C53 1.262 . S
O47 Zn42 2.049 . S
O47 C55 1.260 . S
O48 Zn43 1.996 . S
O48 C55 1.257 . S
C49 O44 1.254 . S
C49 O45 1.269 . S
C50 O51 1.249 . S
C50 O52 1.270 . S
O51 Zn43 1.943 . S
O51 C50 1.249 . S
O52 Zn42 2.067 . S
O52 C50 1.270 . S
C53 O46 1.262 . S
C53 O54 1.232 . S
O54 C53 1.232 . S
C55 O47 1.260 . S
C55 O48 1.257 . S
Zn56 O59 2.031 . S
Zn56 O61 2.049 . S
Zn56 O66 2.067 . S
Zn57 O58 1.962 . S
Zn57 O60 1.986 . S
Zn57 O62 1.996 . S
Zn57 O65 1.943 . S
O58 Zn57 1.962 . S
O58 C63 1.254 . S
O59 Zn56 2.031 . S
O59 C63 1.269 . S
O60 Zn57 1.986 . S
O60 C67 1.262 . S
O61 Zn56 2.049 . S
O61 C69 1.260 . S
O62 Zn57 1.996 . S
O62 C69 1.257 . S
C63 O58 1.254 . S
C63 O59 1.269 . S
C64 O65 1.249 . S
C64 O66 1.270 . S
O65 Zn57 1.943 . S
O65 C64 1.249 . S
O66 Zn56 2.067 . S
O66 C64 1.270 . S
C67 O60 1.262 . S
C67 O68 1.232 . S
O68 C67 1.232 . S
C69 O61 1.260 . S
C69 O62 1.257 . S
Zn70 O73 2.031 . S
Zn70 O75 2.049 . S
Zn70 O80 2.067 . S
Zn71 O72 1.962 . S
Zn71 O74 1.986 . S
Zn71 O76 1.996 . S
Zn71 O79 1.943 . S
O72 Zn71 1.962 . S
O72 C77 1.254 . S
O73 Zn70 2.031 . S
O73 C77 1.269 . S
O74 Zn71 1.986 . S
O74 C81 1.262 . S
O75 Zn70 2.049 . S
O75 C83 1.260 . S
O76 Zn71 1.996 . S
O76 C83 1.257 . S
C77 O72 1.254 . S
C77 O73 1.269 . S
C78 O79 1.249 . S
C78 O80 1.270 . S
O79 Zn71 1.943 . S
O79 C78 1.249 . S
O80 Zn70 2.067 . S
O80 C78 1.270 . S
C81 O74 1.262 . S
C81 O82 1.232 . S
O82 C81 1.232 . S
C83 O75 1.260 . S
C83 O76 1.257 . S
Zn84 O87 2.031 . S
Zn84 O89 2.049 . S
Zn84 O94 2.067 . S
Zn85 O86 1.962 . S
Zn85 O88 1.986 . S
Zn85 O90 1.996 . S
Zn85 O93 1.943 . S
O86 Zn85 1.962 . S
O86 C91 1.254 . S
O87 Zn84 2.031 . S
O87 C91 1.269 . S
O88 Zn85 1.986 . S
O88 C95 1.262 . S
O89 Zn84 2.049 . S
O89 C97 1.260 . S
O90 Zn85 1.996 . S
O90 C97 1.257 . S
C91 O86 1.254 . S
C91 O87 1.269 . S
C92 O93 1.249 . S
C92 O94 1.270 . S
O93 Zn85 1.943 . S
O93 C92 1.249 . S
O94 Zn84 2.067 . S
O94 C92 1.270 . S
C95 O88 1.262 . S
C95 O96 1.232 . S
O96 C95 1.232 . S
C97 O89 1.260 . S
C97 O90 1.257 . S
Zn98 O101 2.031 . S
Zn98 O103 2.049 . S
Zn98 O108 2.067 . S
Zn99 O100 1.962 . S
Zn99 O102 1.986 . S
Zn99 O104 1.996 . S
Zn99 O107 1.943 1_455 S
O100 Zn99 1.962 . S
O100 C105 1.254 . S
O101 Zn98 2.031 . S
O101 C105 1.269 1_655 S
O102 Zn99 1.986 . S
O102 C109 1.262 . S
O103 Zn98 2.049 . S
O103 C111 1.260 . S
O104 Zn99 1.996 . S
O104 C111 1.257 1_455 S
C105 O100 1.254 . S
C105 O101 1.269 1_455 S
C106 O107 1.249 . S
C106 O108 1.270 . S
O107 Zn99 1.943 1_655 S
O107 C106 1.249 . S
O108 Zn98 2.067 . S
O108 C106 1.270 . S
C109 O102 1.262 . S
C109 O110 1.232 . S
O110 C109 1.232 . S
C111 O103 1.260 . S
C111 O104 1.257 1_655 S
Zn112 O115 2.031 1_565 S
Zn112 O117 2.049 . S
Zn112 O122 2.067 . S
Zn113 O114 1.962 . S
Zn113 O116 1.986 . S
Zn113 O118 1.996 . S
Zn113 O121 1.943 . S
O114 Zn113 1.962 . S
O114 C119 1.254 . S
O115 Zn112 2.031 1_545 S
O115 C119 1.269 . S
O116 Zn113 1.986 . S
O116 C123 1.262 . S
O117 Zn112 2.049 . S
O117 C125 1.260 1_565 S
O118 Zn113 1.996 . S
O118 C125 1.257 . S
C119 O114 1.254 . S
C119 O115 1.269 . S
C120 O121 1.249 1_565 S
C120 O122 1.270 . S
O121 Zn113 1.943 . S
O121 C120 1.249 1_545 S
O122 Zn112 2.067 . S
O122 C120 1.270 . S
C123 O116 1.262 . S
C123 O124 1.232 . S
O124 C123 1.232 . S
C125 O117 1.260 1_545 S
C125 O118 1.257 . S
Zn126 O129 2.031 . S
Zn126 O131 2.049 . S
Zn126 O136 2.067 . S
Zn127 O128 1.962 . S
Zn127 O130 1.986 . S
Zn127 O132 1.996 . S
Zn127 O135 1.943 . S
O128 Zn127 1.962 . S
O128 C133 1.254 . S
O129 Zn126 2.031 . S
O129 C133 1.269 . S
O130 Zn127 1.986 . S
O130 C137 1.262 . S
O131 Zn126 2.049 . S
O131 C139 1.260 . S
O132 Zn127 1.996 . S
O132 C139 1.257 . S
C133 O128 1.254 . S
C133 O129 1.269 . S
C134 O135 1.249 . S
C134 O136 1.270 . S
O135 Zn127 1.943 . S
O135 C134 1.249 . S
O136 Zn126 2.067 . S
O136 C134 1.270 . S
C137 O130 1.262 . S
C137 O138 1.232 . S
O138 C137 1.232 . S
C139 O131 1.260 . S
C139 O132 1.257 . S
Zn140 O143 2.031 . S
Zn140 O145 2.049 . S
Zn140 O150 2.067 . S
Zn141 O142 1.962 . S
Zn141 O144 1.986 . S
Zn141 O146 1.996 . S
Zn141 O149 1.943 1_565 S
O142 Zn141 1.962 . S
O142 C147 1.254 1_565 S
O143 Zn140 2.031 . S
O143 C147 1.269 . S
O144 Zn141 1.986 . S
O144 C151 1.262 . S
O145 Zn140 2.049 . S
O145 C153 1.296 . S
O146 Zn141 1.996 . S
O146 C153 1.236 1_565 S
C147 O142 1.254 1_545 S
C147 O143 1.269 . S
C148 O149 1.249 . S
C148 O150 1.270 . S
O149 Zn141 1.943 1_545 S
O149 C148 1.249 . S
O150 Zn140 2.067 . S
O150 C148 1.270 . S
C151 O144 1.262 . S
C151 O152 1.232 . S
O152 C151 1.232 . S
C153 O145 1.296 . S
C153 O146 1.236 1_545 S
Zn154 O157 2.031 1_554 S
Zn154 O159 2.049 . S
Zn154 O164 2.067 . S
Zn155 O156 1.962 . S
Zn155 O158 1.986 1_556 S
Zn155 O160 1.996 1_556 S
Zn155 O163 1.943 1_556 S
O156 Zn155 1.962 . S
O156 C161 1.254 . S
O157 Zn154 2.031 1_556 S
O157 C161 1.269 . S
O158 Zn155 1.986 1_554 S
O158 C165 1.227 1_554 S
O159 Zn154 2.049 . S
O159 C167 1.260 . S
O160 Zn155 1.996 1_554 S
O160 C167 1.257 . S
C161 O156 1.254 . S
C161 O157 1.269 . S
C162 O163 1.249 . S
C162 O164 1.270 . S
O163 Zn155 1.943 1_554 S
O163 C162 1.249 . S
O164 Zn154 2.067 . S
O164 C162 1.270 . S
C165 O158 1.227 1_556 S
C165 O166 1.276 . S
O166 C165 1.276 . S
C167 O159 1.260 . S
C167 O160 1.257 . S
Zn168 O171 2.031 . S
Zn168 O173 2.049 . S
Zn168 O178 2.067 . S
Zn169 O170 1.962 . S
Zn169 O172 1.986 . S
Zn169 O174 1.996 . S
Zn169 O177 1.943 . S
O170 Zn169 1.962 . S
O170 C175 1.254 . S
O171 Zn168 2.031 . S
O171 C175 1.269 . S
O172 Zn169 1.986 . S
O172 C179 1.262 . S
O173 Zn168 2.049 . S
O173 C181 1.260 . S
O174 Zn169 1.996 . S
O174 C181 1.257 . S
C175 O170 1.254 . S
C175 O171 1.269 . S
C176 O177 1.249 . S
C176 O178 1.270 . S
O177 Zn169 1.943 . S
O177 C176 1.249 . S
O178 Zn168 2.067 . S
O178 C176 1.270 . S
C179 O172 1.262 . S
C179 O180 1.232 . S
O180 C179 1.232 . S
C181 O173 1.260 . S
C181 O174 1.257 . S
Zn182 O185 2.031 . S
Zn182 O187 2.049 . S
Zn182 O192 2.067 . S
Zn183 O184 1.962 . S
Zn183 O186 1.986 . S
Zn183 O188 1.996 . S
Zn183 O191 1.943 . S
O184 Zn183 1.962 . S
O184 C189 1.254 . S
O185 Zn182 2.031 . S
O185 C189 1.269 . S
O186 Zn183 1.986 . S
O186 C193 1.262 . S
O187 Zn182 2.049 . S
O187 C195 1.260 . S
O188 Zn183 1.996 . S
O188 C195 1.257 . S
C189 O184 1.254 . S
C189 O185 1.269 . S
C190 O191 1.249 . S
C190 O192 1.270 . S
O191 Zn183 1.943 . S
O191 C190 1.249 . S
O192 Zn182 2.067 . S
O192 C190 1.270 . S
C193 O186 1.262 . S
C193 O194 1.232 . S
O194 C193 1.232 . S
C195 O187 1.260 . S
C195 O188 1.257 . S
Zn196 O199 2.031 . S
Zn196 O201 2.049 . S
Zn196 O206 2.067 . S
Zn197 O198 1.962 . S
Zn197 O200 1.986 . S
Zn197 O202 1.996 . S
Zn197 O205 1.943 . S
O198 Zn197 1.962 . S
O198 C203 1.254 . S
O199 Zn196 2.031 . S
O199 C203 1.269 . S
O200 Zn197 1.986 . S
O200 C207 1.262 . S
O201 Zn196 2.049 . S
O201 C209 1.260 . S
O202 Zn197 1.996 . S
O202 C209 1.257 . S
C203 O198 1.254 . S
C203 O199 1.269 . S
C204 O205 1.249 . S
C204 O206 1.270 . S
O205 Zn197 1.943 . S
O205 C204 1.249 . S
O206 Zn196 2.067 . S
O206 C204 1.270 . S
C207 O200 1.262 . S
C207 O208 1.232 . S
O208 C207 1.232 . S
C209 O201 1.260 . S
C209 O202 1.257 . S
Zn210 O213 2.031 . S
Zn210 O215 2.049 . S
Zn210 O220 2.067 . S
Zn211 O212 1.962 . S
Zn211 O214 1.986 . S
Zn211 O216 1.996 . S
Zn211 O219 1.943 . S
O212 Zn211 1.962 . S
O212 C217 1.254 . S
O213 Zn210 2.031 . S
O213 C217 1.269 . S
O214 Zn211 1.986 . S
O214 C221 1.262 . S
O215 Zn210 2.049 . S
O215 C223 1.260 . S
O216 Zn211 1.996 . S
O216 C223 1.257 . S
C217 O212 1.254 . S
C217 O213 1.269 . S
C218 O219 1.249 . S
C218 O220 1.270 . S
O219 Zn211 1.943 . S
O219 C218 1.249 . S
O220 Zn210 2.067 . S
O220 C218 1.270 . S
C221 O214 1.262 . S
C221 O222 1.232 . S
O222 C221 1.232 . S
C223 O215 1.260 . S
C223 O216 1.257 . S
Zn224 O227 2.031 . S
Zn224 O229 2.049 . S
Zn224 O234 2.067 1_545 S
Zn225 O226 1.962 . S
Zn225 O228 1.986 . S
Zn225 O230 1.996 . S
Zn225 O233 1.943 . S
O226 Zn225 1.962 . S
O226 C231 1.254 . S
O227 Zn224 2.031 . S
O227 C231 1.269 . S
O228 Zn225 1.986 . S
O228 C235 1.262 . S
O229 Zn224 2.049 . S
O229 C237 1.260 . S
O230 Zn225 1.996 . S
O230 C237 1.257 . S
C231 O226 1.254 . S
C231 O227 1.269 . S
C232 O233 1.249 1_565 S
C232 O234 1.270 . S
O233 Zn225 1.943 . S
O233 C232 1.249 1_545 S
O234 Zn224 2.067 1_565 S
O234 C232 1.270 . S
C235 O228 1.262 . S
C235 O236 1.232 . S
O236 C235 1.232 . S
C237 O229 1.260 . S
C237 O230 1.257 . S
Zn238 O241 2.031 . S
Zn238 O243 2.049 . S
Zn238 O248 2.067 . S
Zn239 O240 1.962 . S
Zn239 O242 1.986 . S
Zn239 O244 1.996 . S
Zn239 O247 1.943 . S
O240 Zn239 1.962 . S
O240 C245 1.254 . S
O241 Zn238 2.031 . S
O241 C245 1.269 . S
O242 Zn239 1.986 . S
O242 C249 1.262 . S
O243 Zn238 2.049 . S
O243 C251 1.260 . S
O244 Zn239 1.996 . S
O244 C251 1.257 . S
C245 O240 1.254 . S
C245 O241 1.269 . S
C246 O247 1.249 . S
C246 O248 1.270 . S
O247 Zn239 1.943 . S
O247 C246 1.249 . S
O248 Zn238 2.067 . S
O248 C246 1.270 . S
C249 O242 1.262 . S
C249 O250 1.232 . S
O250 C249 1.232 . S
C251 O243 1.260 . S
C251 O244 1.257 . S
Zn252 O255 2.031 . S
Zn252 O257 2.049 . S
Zn252 O262 2.067 . S
Zn253 O254 1.962 . S
Zn253 O256 1.986 . S
Zn253 O258 1.996 . S
Zn253 O261 1.943 . S
O254 Zn253 1.962 . S
O254 C259 1.254 . S
O255 Zn252 2.031 . S
O255 C259 1.269 . S
O256 Zn253 1.986 . S
O256 C263 1.262 . S
O257 Zn252 2.049 . S
O257 C265 1.260 . S
O258 Zn253 1.996 . S
O258 C265 1.257 . S
C259 O254 1.254 . S
C259 O255 1.269 . S
C260 O261 1.249 . S
C260 O262 1.270 . S
O261 Zn253 1.943 . S
O261 C260 1.249 . S
O262 Zn252 2.067 . S
O262 C260 1.270 . S
C263 O256 1.262 . S
C263 O264 1.232 . S
O264 C263 1.232 . S
C265 O257 1.260 . S
C265 O258 1.257 . S
Zn266 O269 2.031 . S
Zn266 O271 2.049 . S
Zn266 O276 2.067 . S
Zn267 O268 1.965 . S
Zn267 O270 2.011 . S
Zn267 O272 1.985 1_565 S
Zn267 O275 1.920 1_565 S
O268 Zn267 1.965 . S
O268 C273 1.254 1_565 S
O269 Zn266 2.031 . S
O269 C273 1.269 . S
O270 Zn267 2.011 . S
O270 C277 1.262 . S
O271 Zn266 2.049 . S
O271 C279 1.260 . S
O272 Zn267 1.985 1_545 S
O272 C279 1.257 . S
C273 O268 1.254 1_545 S
C273 O269 1.269 . S
C274 O275 1.249 . S
C274 O276 1.270 . S
O275 Zn267 1.920 1_545 S
O275 C274 1.249 . S
O276 Zn266 2.067 . S
O276 C274 1.270 . S
C277 O270 1.262 . S
C277 O278 1.232 . S
O278 C277 1.232 . S
C279 O271 1.260 . S
C279 O272 1.257 . S
Zn280 O283 2.031 . S
Zn280 O285 2.049 . S
Zn280 O290 2.067 . S
Zn281 O282 1.962 . S
Zn281 O284 1.986 . S
Zn281 O286 1.996 . S
Zn281 O289 1.943 . S
O282 Zn281 1.962 . S
O282 C287 1.254 1_554 S
O283 Zn280 2.031 . S
O283 C287 1.269 1_554 S
O284 Zn281 1.986 . S
O284 C291 1.262 . S
O285 Zn280 2.049 . S
O285 C293 1.260 . S
O286 Zn281 1.996 . S
O286 C293 1.257 . S
C287 O282 1.254 1_556 S
C287 O283 1.269 1_556 S
C288 O289 1.249 . S
C288 O290 1.270 . S
O289 Zn281 1.943 . S
O289 C288 1.249 . S
O290 Zn280 2.067 . S
O290 C288 1.270 . S
C291 O284 1.262 . S
C291 O292 1.232 . S
O292 C291 1.232 . S
C293 O285 1.260 . S
C293 O286 1.257 . S
Zn294 O297 2.031 . S
Zn294 O299 2.049 . S
Zn294 O304 2.067 . S
Zn295 O296 1.962 . S
Zn295 O298 1.986 . S
Zn295 O300 1.996 . S
Zn295 O303 1.943 . S
O296 Zn295 1.962 . S
O296 C301 1.254 . S
O297 Zn294 2.031 . S
O297 C301 1.269 . S
O298 Zn295 1.986 . S
O298 C305 1.262 . S
O299 Zn294 2.049 . S
O299 C307 1.260 . S
O300 Zn295 1.996 . S
O300 C307 1.257 . S
C301 O296 1.254 . S
C301 O297 1.269 . S
C302 O303 1.249 . S
C302 O304 1.270 . S
O303 Zn295 1.943 . S
O303 C302 1.249 . S
O304 Zn294 2.067 . S
O304 C302 1.270 . S
C305 O298 1.262 . S
C305 O306 1.232 . S
O306 C305 1.232 . S
C307 O299 1.260 . S
C307 O300 1.257 . S
Zn308 O311 2.031 . S
Zn308 O313 2.049 . S
Zn308 O318 2.067 . S
Zn309 O310 1.962 . S
Zn309 O312 1.986 . S
Zn309 O314 1.996 . S
Zn309 O317 1.943 . S
O310 Zn309 1.962 . S
O310 C315 1.254 . S
O311 Zn308 2.031 . S
O311 C315 1.269 . S
O312 Zn309 1.986 . S
O312 C319 1.262 . S
O313 Zn308 2.049 . S
O313 C321 1.260 . S
O314 Zn309 1.996 . S
O314 C321 1.257 . S
C315 O310 1.254 . S
C315 O311 1.269 . S
C316 O317 1.249 . S
C316 O318 1.270 . S
O317 Zn309 1.943 . S
O317 C316 1.249 . S
O318 Zn308 2.067 . S
O318 C316 1.270 . S
C319 O312 1.262 . S
C319 O320 1.232 . S
O320 C319 1.232 . S
C321 O313 1.260 . S
C321 O314 1.257 . S
Zn322 O325 2.031 . S
Zn322 O327 2.049 . S
Zn322 O332 2.067 . S
Zn323 O324 1.962 . S
Zn323 O326 1.986 . S
Zn323 O328 1.996 . S
Zn323 O331 1.943 . S
O324 Zn323 1.962 . S
O324 C329 1.254 . S
O325 Zn322 2.031 . S
O325 C329 1.269 . S
O326 Zn323 1.986 . S
O326 C333 1.262 . S
O327 Zn322 2.049 . S
O327 C335 1.260 . S
O328 Zn323 1.996 . S
O328 C335 1.257 . S
C329 O324 1.254 . S
C329 O325 1.269 . S
C330 O331 1.249 . S
C330 O332 1.270 . S
O331 Zn323 1.943 . S
O331 C330 1.249 . S
O332 Zn322 2.067 . S
O332 C330 1.270 . S
C333 O326 1.262 . S
C333 O334 1.232 . S
O334 C333 1.232 . S
C335 O327 1.260 . S
C335 O328 1.257 . S
C336 Eu337 2.835 . S
C336 C338 1.500 1_545 S
C336 O356 1.257 . S
C336 O357 1.260 . S
Eu337 C336 2.835 . S
Eu337 O356 2.473 . S
Eu337 O357 2.480 . S
Eu337 O358 2.430 . S
Eu337 O359 2.670 . S
Eu337 O360 2.394 1_545 S
Eu337 O365 2.355 . S
Eu337 O367 2.374 . S
C338 C336 1.500 1_565 S
C338 C339 1.377 . S
C338 C343 1.377 . S
C339 C338 1.377 . S
C339 C340 1.395 . S
C339 H368 0.931 1_565 S
C340 C339 1.395 . S
C340 C341 1.383 . S
C340 H369 0.931 . S
C341 C340 1.383 . S
C341 C342 1.394 . S
C342 C341 1.394 . S
C342 C343 1.378 . S
C342 H370 0.931 . S
C343 C338 1.377 . S
C343 C342 1.378 . S
C343 H371 0.931 . S
C344 O358 1.259 . S
C344 O359 1.270 . S
C345 O360 1.251 . S
C345 O361 1.251 . S
C346 Eu347 2.835 1_655 S
C346 C348 1.500 . S
C346 O362 1.257 . S
C346 O363 1.260 . S
Eu347 C346 2.835 1_455 S
Eu347 O359 2.355 . S
Eu347 O361 2.374 1_545 S
Eu347 O362 2.473 1_455 S
Eu347 O363 2.480 1_455 S
Eu347 O364 2.430 1_554 S
Eu347 O365 2.670 . S
Eu347 O366 2.394 . S
C348 C346 1.500 . S
C348 C349 1.377 1_554 S
C348 C353 1.377 . S
C349 C348 1.377 1_556 S
C349 C350 1.395 . S
C349 H372 0.931 . S
C350 C349 1.395 . S
C350 C351 1.383 1_556 S
C350 H373 0.931 . S
C351 C350 1.383 1_554 S
C351 C352 1.394 . S
C352 C351 1.394 . S
C352 C353 1.378 . S
C352 H374 0.931 . S
C353 C348 1.377 . S
C353 C352 1.378 . S
C353 H375 0.931 . S
C354 O364 1.256 1_554 S
C354 O365 1.289 . S
C355 O366 1.251 . S
C355 O367 1.251 . S
O356 C336 1.257 . S
O356 Eu337 2.473 . S
O357 C336 1.260 . S
O357 Eu337 2.480 . S
O358 Eu337 2.430 . S
O358 C344 1.259 . S
O359 Eu337 2.670 . S
O359 C344 1.270 . S
O359 Eu347 2.355 . S
O360 Eu337 2.394 1_565 S
O360 C345 1.251 . S
O361 C345 1.251 . S
O361 Eu347 2.374 1_565 S
O362 C346 1.257 . S
O362 Eu347 2.473 1_655 S
O363 C346 1.260 . S
O363 Eu347 2.480 1_655 S
O364 Eu347 2.430 1_556 S
O364 C354 1.256 1_556 S
O365 Eu337 2.355 . S
O365 Eu347 2.670 . S
O365 C354 1.289 . S
O366 Eu347 2.394 . S
O366 C355 1.251 . S
O367 Eu337 2.374 . S
O367 C355 1.251 . S
H368 C339 0.931 1_545 S
H369 C340 0.931 . S
H370 C342 0.931 . S
H371 C343 0.931 . S
H372 C349 0.931 . S
H373 C350 0.931 . S
H374 C352 0.931 . S
H375 C353 0.931 . S
C376 Eu377 2.835 . S
C376 C378 1.500 . S
C376 O396 1.257 . S
C376 O397 1.260 . S
Eu377 C376 2.835 . S
Eu377 O396 2.473 . S
Eu377 O397 2.480 . S
Eu377 O398 2.430 . S
Eu377 O399 2.670 . S
Eu377 O400 2.394 . S
Eu377 O405 2.355 . S
Eu377 O407 2.374 . S
C378 C376 1.500 . S
C378 C379 1.377 . S
C378 C383 1.377 . S
C379 C378 1.377 . S
C379 C380 1.395 . S
C379 H408 0.931 . S
C380 C379 1.395 . S
C380 C381 1.383 . S
C380 H409 0.931 . S
C381 C380 1.383 . S
C381 C382 1.394 . S
C382 C381 1.394 . S
C382 C383 1.378 . S
C382 H410 0.931 . S
C383 C378 1.377 . S
C383 C382 1.378 . S
C383 H411 0.931 . S
C384 O398 1.259 . S
C384 O399 1.270 . S
C385 O400 1.251 . S
C385 O401 1.251 . S
C386 Eu387 2.835 . S
C386 C388 1.500 . S
C386 O402 1.257 . S
C386 O403 1.260 . S
Eu387 C386 2.835 . S
Eu387 O399 2.355 . S
Eu387 O401 2.374 . S
Eu387 O402 2.473 . S
Eu387 O403 2.480 . S
Eu387 O404 2.430 . S
Eu387 O405 2.670 . S
Eu387 O406 2.394 . S
C388 C386 1.500 . S
C388 C389 1.377 . S
C388 C393 1.377 . S
C389 C388 1.377 . S
C389 C390 1.395 . S
C389 H412 0.931 . S
C390 C389 1.395 . S
C390 C391 1.383 . S
C390 H413 0.931 . S
C391 C390 1.383 . S
C391 C392 1.394 . S
C392 C391 1.394 . S
C392 C393 1.378 . S
C392 H414 0.931 . S
C393 C388 1.377 . S
C393 C392 1.378 . S
C393 H415 0.931 . S
C394 O404 1.259 . S
C394 O405 1.270 . S
C395 O406 1.251 . S
C395 O407 1.251 . S
O396 C376 1.257 . S
O396 Eu377 2.473 . S
O397 C376 1.260 . S
O397 Eu377 2.480 . S
O398 Eu377 2.430 . S
O398 C384 1.259 . S
O399 Eu377 2.670 . S
O399 C384 1.270 . S
O399 Eu387 2.355 . S
O400 Eu377 2.394 . S
O400 C385 1.251 . S
O401 C385 1.251 . S
O401 Eu387 2.374 . S
O402 C386 1.257 . S
O402 Eu387 2.473 . S
O403 C386 1.260 . S
O403 Eu387 2.480 . S
O404 Eu387 2.430 . S
O404 C394 1.259 . S
O405 Eu377 2.355 . S
O405 Eu387 2.670 . S
O405 C394 1.270 . S
O406 Eu387 2.394 . S
O406 C395 1.251 . S
O407 Eu377 2.374 . S
O407 C395 1.251 . S
H408 C379 0.931 . S
H409 C380 0.931 . S
H410 C382 0.931 . S
H411 C383 0.931 . S
H412 C389 0.931 . S
H413 C390 0.931 . S
H414 C392 0.931 . S
H415 C393 0.931 . S
C416 Eu417 2.835 . S
C416 C418 1.500 . S
C416 O436 1.257 . S
C416 O437 1.260 . S
Eu417 C416 2.835 . S
Eu417 O436 2.473 . S
Eu417 O437 2.480 . S
Eu417 O438 2.430 . S
Eu417 O439 2.670 . S
Eu417 O440 2.394 . S
Eu417 O445 2.355 . S
Eu417 O447 2.374 1_545 S
C418 C416 1.500 . S
C418 C419 1.377 . S
C418 C423 1.377 . S
C419 C418 1.377 . S
C419 C420 1.395 . S
C419 H448 0.931 . S
C420 C419 1.395 . S
C420 C421 1.383 . S
C420 H449 0.931 . S
C421 C420 1.383 . S
C421 C422 1.394 . S
C422 C421 1.394 . S
C422 C423 1.378 . S
C422 H450 0.931 . S
C423 C418 1.377 . S
C423 C422 1.378 . S
C423 H451 0.931 . S
C424 O438 1.259 . S
C424 O439 1.270 . S
C425 O440 1.251 . S
C425 O441 1.251 . S
C426 Eu427 2.835 1_565 S
C426 C428 1.500 . S
C426 O442 1.257 . S
C426 O443 1.260 1_565 S
Eu427 C426 2.835 1_545 S
Eu427 O439 2.355 . S
Eu427 O441 2.374 . S
Eu427 O442 2.473 1_545 S
Eu427 O443 2.480 . S
Eu427 O444 2.430 . S
Eu427 O445 2.670 . S
Eu427 O446 2.394 1_545 S
C428 C426 1.500 . S
C428 C429 1.377 . S
C428 C433 1.377 . S
C429 C428 1.377 . S
C429 C430 1.395 . S
C429 H452 0.931 . S
C430 C429 1.395 . S
C430 C431 1.383 . S
C430 H453 0.931 . S
C431 C430 1.383 . S
C431 C432 1.394 . S
C432 C431 1.394 . S
C432 C433 1.378 . S
C432 H454 0.931 . S
C433 C428 1.377 . S
C433 C432 1.378 . S
C433 H455 0.931 . S
C434 O444 1.259 . S
C434 O445 1.270 . S
C435 O446 1.251 . S
C435 O447 1.251 . S
O436 C416 1.257 . S
O436 Eu417 2.473 . S
O437 C416 1.260 . S
O437 Eu417 2.480 . S
O438 Eu417 2.430 . S
O438 C424 1.259 . S
O439 Eu417 2.670 . S
O439 C424 1.270 . S
O439 Eu427 2.355 . S
O440 Eu417 2.394 . S
O440 C425 1.251 . S
O441 C425 1.251 . S
O441 Eu427 2.374 . S
O442 C426 1.257 . S
O442 Eu427 2.473 1_565 S
O443 C426 1.260 1_545 S
O443 Eu427 2.480 . S
O444 Eu427 2.430 . S
O444 C434 1.259 . S
O445 Eu417 2.355 . S
O445 Eu427 2.670 . S
O445 C434 1.270 . S
O446 Eu427 2.394 1_565 S
O446 C435 1.251 . S
O447 Eu417 2.374 1_565 S
O447 C435 1.251 . S
H448 C419 0.931 . S
H449 C420 0.931 . S
H450 C422 0.931 . S
H451 C423 0.931 . S
H452 C429 0.931 . S
H453 C430 0.931 . S
H454 C432 0.931 . S
H455 C433 0.931 . S
C456 Eu457 2.835 . S
C456 C458 1.500 . S
C456 O476 1.257 . S
C456 O477 1.260 . S
Eu457 C456 2.835 . S
Eu457 O476 2.473 . S
Eu457 O477 2.480 . S
Eu457 O478 2.430 . S
Eu457 O479 2.670 . S
Eu457 O480 2.394 . S
Eu457 O485 2.355 . S
Eu457 O487 2.374 . S
C458 C456 1.500 . S
C458 C459 1.377 . S
C458 C463 1.377 . S
C459 C458 1.377 . S
C459 C460 1.395 . S
C459 H488 0.931 . S
C460 C459 1.395 . S
C460 C461 1.383 . S
C460 H489 0.931 . S
C461 C460 1.383 . S
C461 C462 1.394 . S
C462 C461 1.394 . S
C462 C463 1.378 . S
C462 H490 0.931 . S
C463 C458 1.377 . S
C463 C462 1.378 . S
C463 H491 0.931 . S
C464 O478 1.259 . S
C464 O479 1.270 . S
C465 O480 1.251 . S
C465 O481 1.251 . S
C466 Eu467 2.835 . S
C466 C468 1.500 . S
C466 O482 1.257 . S
C466 O483 1.260 . S
Eu467 C466 2.835 . S
Eu467 O479 2.355 . S
Eu467 O481 2.374 . S
Eu467 O482 2.473 . S
Eu467 O483 2.480 . S
Eu467 O484 2.430 . S
Eu467 O485 2.670 . S
Eu467 O486 2.394 . S
C468 C466 1.500 . S
C468 C469 1.377 . S
C468 C473 1.377 . S
C469 C468 1.377 . S
C469 C470 1.395 . S
C469 H492 0.931 . S
C470 C469 1.395 . S
C470 C471 1.383 . S
C470 H493 0.931 . S
C471 C470 1.383 . S
C471 C472 1.394 . S
C472 C471 1.394 . S
C472 C473 1.378 . S
C472 H494 0.931 . S
C473 C468 1.377 . S
C473 C472 1.378 . S
C473 H495 0.931 . S
C474 O484 1.259 . S
C474 O485 1.270 . S
C475 O486 1.251 . S
C475 O487 1.251 . S
O476 C456 1.257 . S
O476 Eu457 2.473 . S
O477 C456 1.260 . S
O477 Eu457 2.480 . S
O478 Eu457 2.430 . S
O478 C464 1.259 . S
O479 Eu457 2.670 . S
O479 C464 1.270 . S
O479 Eu467 2.355 . S
O480 Eu457 2.394 . S
O480 C465 1.251 . S
O481 C465 1.251 . S
O481 Eu467 2.374 . S
O482 C466 1.257 . S
O482 Eu467 2.473 . S
O483 C466 1.260 . S
O483 Eu467 2.480 . S
O484 Eu467 2.430 . S
O484 C474 1.259 . S
O485 Eu457 2.355 . S
O485 Eu467 2.670 . S
O485 C474 1.270 . S
O486 Eu467 2.394 . S
O486 C475 1.251 . S
O487 Eu457 2.374 . S
O487 C475 1.251 . S
H488 C459 0.931 . S
H489 C460 0.931 . S
H490 C462 0.931 . S
H491 C463 0.931 . S
H492 C469 0.931 . S
H493 C470 0.931 . S
H494 C472 0.931 . S
H495 C473 0.931 . S
C496 Eu497 2.835 . S
C496 C498 1.500 . S
C496 O516 1.257 . S
C496 O517 1.260 . S
Eu497 C496 2.835 . S
Eu497 O516 2.473 . S
Eu497 O517 2.480 . S
Eu497 O518 2.430 1_565 S
Eu497 O519 2.670 1_565 S
Eu497 O520 2.394 1_565 S
Eu497 O525 2.355 1_565 S
Eu497 O527 2.374 1_565 S
C498 C496 1.500 . S
C498 C499 1.377 . S
C498 C503 1.377 . S
C499 C498 1.377 . S
C499 C500 1.395 . S
C499 H528 0.931 . S
C500 C499 1.395 . S
C500 C501 1.383 . S
C500 H529 0.931 . S
C501 C500 1.383 . S
C501 C502 1.394 . S
C502 C501 1.394 . S
C502 C503 1.378 . S
C502 H530 0.931 . S
C503 C498 1.377 . S
C503 C502 1.378 . S
C503 H531 0.931 . S
C504 O518 1.259 . S
C504 O519 1.270 . S
C505 O520 1.251 . S
C505 O521 1.251 . S
C506 Eu507 2.835 . S
C506 C508 1.500 . S
C506 O522 1.257 . S
C506 O523 1.260 . S
Eu507 C506 2.835 . S
Eu507 O519 2.355 . S
Eu507 O521 2.374 . S
Eu507 O522 2.473 . S
Eu507 O523 2.480 . S
Eu507 O524 2.430 1_455 S
Eu507 O525 2.670 . S
Eu507 O526 2.394 . S
C508 C506 1.500 . S
C508 C509 1.399 . S
C508 C513 1.377 . S
C509 C508 1.399 . S
C509 C510 1.390 1_455 S
C509 H532 0.914 1_455 S
C510 C509 1.390 1_655 S
C510 C511 1.383 1_655 S
C510 H533 0.931 . S
C511 C510 1.383 1_455 S
C511 C512 1.394 . S
C512 C511 1.394 . S
C512 C513 1.378 . S
C512 H534 0.931 . S
C513 C508 1.377 . S
C513 C512 1.378 . S
C513 H535 0.931 . S
C514 O524 1.259 . S
C514 O525 1.270 1_655 S
C515 O526 1.251 . S
C515 O527 1.251 . S
O516 C496 1.257 . S
O516 Eu497 2.473 . S
O517 C496 1.260 . S
O517 Eu497 2.480 . S
O518 Eu497 2.430 1_545 S
O518 C504 1.259 . S
O519 Eu497 2.670 1_545 S
O519 C504 1.270 . S
O519 Eu507 2.355 . S
O520 Eu497 2.394 1_545 S
O520 C505 1.251 . S
O521 C505 1.251 . S
O521 Eu507 2.374 . S
O522 C506 1.257 . S
O522 Eu507 2.473 . S
O523 C506 1.260 . S
O523 Eu507 2.480 . S
O524 Eu507 2.430 1_655 S
O524 C514 1.259 . S
O525 Eu497 2.355 1_545 S
O525 Eu507 2.670 . S
O525 C514 1.270 1_455 S
O526 Eu507 2.394 . S
O526 C515 1.251 . S
O527 Eu497 2.374 1_545 S
O527 C515 1.251 . S
H528 C499 0.931 . S
H529 C500 0.931 . S
H530 C502 0.931 . S
H531 C503 0.931 . S
H532 C509 0.914 1_655 S
H533 C510 0.931 . S
H534 C512 0.931 . S
H535 C513 0.931 . S
C536 Eu537 2.835 . S
C536 C538 1.500 . S
C536 O556 1.257 . S
C536 O557 1.260 . S
Eu537 C536 2.835 . S
Eu537 O556 2.473 . S
Eu537 O557 2.480 . S
Eu537 O558 2.430 . S
Eu537 O559 2.670 . S
Eu537 O560 2.394 . S
Eu537 O565 2.355 . S
Eu537 O567 2.374 . S
C538 C536 1.500 . S
C538 C539 1.377 . S
C538 C543 1.377 . S
C539 C538 1.377 . S
C539 C540 1.395 . S
C539 H568 0.931 . S
C540 C539 1.395 . S
C540 C541 1.383 . S
C540 H569 0.931 . S
C541 C540 1.383 . S
C541 C542 1.394 . S
C542 C541 1.394 . S
C542 C543 1.378 . S
C542 H570 0.931 . S
C543 C538 1.377 . S
C543 C542 1.378 . S
C543 H571 0.931 . S
C544 O558 1.259 . S
C544 O559 1.270 . S
C545 O560 1.251 . S
C545 O561 1.251 . S
C546 Eu547 2.835 . S
C546 C548 1.500 . S
C546 O562 1.257 . S
C546 O563 1.260 . S
Eu547 C546 2.835 . S
Eu547 O559 2.355 . S
Eu547 O561 2.374 . S
Eu547 O562 2.473 . S
Eu547 O563 2.480 . S
Eu547 O564 2.430 . S
Eu547 O565 2.670 . S
Eu547 O566 2.394 . S
C548 C546 1.500 . S
C548 C549 1.377 . S
C548 C553 1.377 . S
C549 C548 1.377 . S
C549 C550 1.395 . S
C549 H572 0.931 . S
C550 C549 1.395 . S
C550 C551 1.383 . S
C550 H573 0.931 . S
C551 C550 1.383 . S
C551 C552 1.394 . S
C552 C551 1.394 . S
C552 C553 1.378 . S
C552 H574 0.931 . S
C553 C548 1.377 . S
C553 C552 1.378 . S
C553 H575 0.931 . S
C554 O564 1.259 . S
C554 O565 1.270 . S
C555 O566 1.251 . S
C555 O567 1.251 . S
O556 C536 1.257 . S
O556 Eu537 2.473 . S
O557 C536 1.260 . S
O557 Eu537 2.480 . S
O558 Eu537 2.430 . S
O558 C544 1.259 . S
O559 Eu537 2.670 . S
O559 C544 1.270 . S
O559 Eu547 2.355 . S
O560 Eu537 2.394 . S
O560 C545 1.251 . S
O561 C545 1.251 . S
O561 Eu547 2.374 . S
O562 C546 1.257 . S
O562 Eu547 2.473 . S
O563 C546 1.260 . S
O563 Eu547 2.480 . S
O564 Eu547 2.430 . S
O564 C554 1.259 . S
O565 Eu537 2.355 . S
O565 Eu547 2.670 . S
O565 C554 1.270 . S
O566 Eu547 2.394 . S
O566 C555 1.251 . S
O567 Eu537 2.374 . S
O567 C555 1.251 . S
H568 C539 0.931 . S
H569 C540 0.931 . S
H570 C542 0.931 . S
H571 C543 0.931 . S
H572 C549 0.931 . S
H573 C550 0.931 . S
H574 C552 0.931 . S
H575 C553 0.931 . S
C576 Eu577 2.835 . S
C576 C578 1.500 . S
C576 O596 1.257 . S
C576 O597 1.260 . S
Eu577 C576 2.835 . S
Eu577 O596 2.473 . S
Eu577 O597 2.480 . S
Eu577 O598 2.430 1_545 S
Eu577 O599 2.670 1_545 S
Eu577 O600 2.394 . S
Eu577 O605 2.355 . S
Eu577 O607 2.374 . S
C578 C576 1.500 . S
C578 C579 1.377 . S
C578 C583 1.377 . S
C579 C578 1.377 . S
C579 C580 1.395 . S
C579 H608 0.931 . S
C580 C579 1.395 . S
C580 C581 1.383 . S
C580 H609 0.931 . S
C581 C580 1.383 . S
C581 C582 1.394 . S
C582 C581 1.394 . S
C582 C583 1.378 . S
C582 H610 0.931 . S
C583 C578 1.377 . S
C583 C582 1.378 . S
C583 H611 0.931 . S
C584 O598 1.259 . S
C584 O599 1.270 . S
C585 O600 1.251 1_556 S
C585 O601 1.251 . S
C586 Eu587 2.835 1_565 S
C586 C588 1.500 . S
C586 O602 1.257 . S
C586 O603 1.260 1_565 S
Eu587 C586 2.835 1_545 S
Eu587 O599 2.355 1_545 S
Eu587 O601 2.374 1_554 S
Eu587 O602 2.473 1_545 S
Eu587 O603 2.480 . S
Eu587 O604 2.430 . S
Eu587 O605 2.670 . S
Eu587 O606 2.394 . S
C588 C586 1.500 . S
C588 C589 1.377 . S
C588 C593 1.377 . S
C589 C588 1.377 . S
C589 C590 1.395 . S
C589 H612 0.931 1_565 S
C590 C589 1.395 . S
C590 C591 1.383 . S
C590 H613 0.931 . S
C591 C590 1.383 . S
C591 C592 1.394 . S
C592 C591 1.394 . S
C592 C593 1.378 . S
C592 H614 0.931 . S
C593 C588 1.377 . S
C593 C592 1.378 . S
C593 H615 0.931 . S
C594 O604 1.259 . S
C594 O605 1.270 . S
C595 O606 1.251 . S
C595 O607 1.251 . S
O596 C576 1.257 . S
O596 Eu577 2.473 . S
O597 C576 1.260 . S
O597 Eu577 2.480 . S
O598 Eu577 2.430 1_565 S
O598 C584 1.259 . S
O599 Eu577 2.670 1_565 S
O599 C584 1.270 . S
O599 Eu587 2.355 1_565 S
O600 Eu577 2.394 . S
O600 C585 1.251 1_554 S
O601 C585 1.251 . S
O601 Eu587 2.374 1_556 S
O602 C586 1.257 . S
O602 Eu587 2.473 1_565 S
O603 C586 1.260 1_545 S
O603 Eu587 2.480 . S
O604 Eu587 2.430 . S
O604 C594 1.259 . S
O605 Eu577 2.355 . S
O605 Eu587 2.670 . S
O605 C594 1.270 . S
O606 Eu587 2.394 . S
O606 C595 1.251 . S
O607 Eu577 2.374 . S
O607 C595 1.251 . S
H608 C579 0.931 . S
H609 C580 0.931 . S
H610 C582 0.931 . S
H611 C583 0.931 . S
H612 C589 0.931 1_545 S
H613 C590 0.931 . S
H614 C592 0.931 . S
H615 C593 0.931 . S
C616 Eu617 2.835 . S
C616 C618 1.500 . S
C616 O636 1.257 . S
C616 O637 1.260 . S
Eu617 C616 2.835 . S
Eu617 O636 2.473 . S
Eu617 O637 2.480 . S
Eu617 O638 2.430 . S
Eu617 O639 2.670 . S
Eu617 O640 2.394 . S
Eu617 O645 2.355 . S
Eu617 O647 2.374 . S
C618 C616 1.500 . S
C618 C619 1.377 . S
C618 C623 1.377 . S
C619 C618 1.377 . S
C619 C620 1.395 . S
C619 H648 0.931 . S
C620 C619 1.395 . S
C620 C621 1.383 . S
C620 H649 0.931 . S
C621 C620 1.383 . S
C621 C622 1.394 . S
C622 C621 1.394 . S
C622 C623 1.378 . S
C622 H650 0.931 . S
C623 C618 1.377 . S
C623 C622 1.378 . S
C623 H651 0.931 . S
C624 O638 1.259 . S
C624 O639 1.270 . S
C625 O640 1.251 . S
C625 O641 1.251 . S
C626 Eu627 2.835 . S
C626 C628 1.500 . S
C626 O642 1.257 . S
C626 O643 1.260 . S
Eu627 C626 2.835 . S
Eu627 O639 2.355 . S
Eu627 O641 2.374 . S
Eu627 O642 2.473 . S
Eu627 O643 2.480 . S
Eu627 O644 2.430 . S
Eu627 O645 2.670 . S
Eu627 O646 2.394 . S
C628 C626 1.500 . S
C628 C629 1.377 . S
C628 C633 1.377 . S
C629 C628 1.377 . S
C629 C630 1.395 . S
C629 H652 0.931 . S
C630 C629 1.395 . S
C630 C631 1.383 . S
C630 H653 0.931 . S
C631 C630 1.383 . S
C631 C632 1.394 . S
C632 C631 1.394 . S
C632 C633 1.378 . S
C632 H654 0.931 . S
C633 C628 1.377 . S
C633 C632 1.378 . S
C633 H655 0.931 . S
C634 O644 1.259 . S
C634 O645 1.270 . S
C635 O646 1.251 . S
C635 O647 1.251 . S
O636 C616 1.257 . S
O636 Eu617 2.473 . S
O637 C616 1.260 . S
O637 Eu617 2.480 . S
O638 Eu617 2.430 . S
O638 C624 1.259 . S
O639 Eu617 2.670 . S
O639 C624 1.270 . S
O639 Eu627 2.355 . S
O640 Eu617 2.394 . S
O640 C625 1.251 . S
O641 C625 1.251 . S
O641 Eu627 2.374 . S
O642 C626 1.257 . S
O642 Eu627 2.473 . S
O643 C626 1.260 . S
O643 Eu627 2.480 . S
O644 Eu627 2.430 . S
O644 C634 1.259 . S
O645 Eu617 2.355 . S
O645 Eu627 2.670 . S
O645 C634 1.270 . S
O646 Eu627 2.394 . S
O646 C635 1.251 . S
O647 Eu617 2.374 . S
O647 C635 1.251 . S
H648 C619 0.931 . S
H649 C620 0.931 . S
H650 C622 0.931 . S
H651 C623 0.931 . S
H652 C629 0.931 . S
H653 C630 0.931 . S
H654 C632 0.931 . S
H655 C633 0.931 . S
C656 Eu657 2.835 . S
C656 C658 1.500 . S
C656 O676 1.257 . S
C656 O677 1.260 . S
Eu657 C656 2.835 . S
Eu657 O676 2.473 . S
Eu657 O677 2.480 . S
Eu657 O678 2.430 . S
Eu657 O679 2.670 . S
Eu657 O680 2.394 . S
Eu657 O685 2.355 . S
Eu657 O687 2.374 1_554 S
C658 C656 1.500 . S
C658 C659 1.377 . S
C658 C663 1.377 . S
C659 C658 1.377 . S
C659 C660 1.395 . S
C659 H688 0.931 . S
C660 C659 1.395 . S
C660 C661 1.383 . S
C660 H689 0.931 . S
C661 C660 1.383 . S
C661 C662 1.394 . S
C662 C661 1.394 . S
C662 C663 1.378 . S
C662 H690 0.931 . S
C663 C658 1.377 . S
C663 C662 1.378 . S
C663 H691 0.931 . S
C664 O678 1.259 . S
C664 O679 1.270 . S
C665 O680 1.251 . S
C665 O681 1.251 . S
C666 Eu667 2.835 . S
C666 C668 1.500 . S
C666 O682 1.257 . S
C666 O683 1.260 . S
Eu667 C666 2.835 . S
Eu667 O679 2.355 . S
Eu667 O681 2.374 . S
Eu667 O682 2.473 . S
Eu667 O683 2.480 . S
Eu667 O684 2.430 . S
Eu667 O685 2.670 . S
Eu667 O686 2.394 . S
C668 C666 1.500 . S
C668 C669 1.377 . S
C668 C673 1.377 . S
C669 C668 1.377 . S
C669 C670 1.395 . S
C669 H692 0.931 . S
C670 C669 1.395 . S
C670 C671 1.383 . S
C670 H693 0.931 . S
C671 C670 1.383 . S
C671 C672 1.401 . S
C672 C671 1.401 . S
C672 C673 1.394 . S
C672 H694 0.909 1_554 S
C673 C668 1.377 . S
C673 C672 1.394 . S
C673 H695 0.931 . S
C674 O684 1.259 . S
C674 O685 1.270 . S
C675 O686 1.251 1_556 S
C675 O687 1.251 . S
O676 C656 1.257 . S
O676 Eu657 2.473 . S
O677 C656 1.260 . S
O677 Eu657 2.480 . S
O678 Eu657 2.430 . S
O678 C664 1.259 . S
O679 Eu657 2.670 . S
O679 C664 1.270 . S
O679 Eu667 2.355 . S
O680 Eu657 2.394 . S
O680 C665 1.251 . S
O681 C665 1.251 . S
O681 Eu667 2.374 . S
O682 C666 1.257 . S
O682 Eu667 2.473 . S
O683 C666 1.260 . S
O683 Eu667 2.480 . S
O684 Eu667 2.430 . S
O684 C674 1.259 . S
O685 Eu657 2.355 . S
O685 Eu667 2.670 . S
O685 C674 1.270 . S
O686 Eu667 2.394 . S
O686 C675 1.251 1_554 S
O687 Eu657 2.374 1_556 S
O687 C675 1.251 . S
H688 C659 0.931 . S
H689 C660 0.931 . S
H690 C662 0.931 . S
H691 C663 0.931 . S
H692 C669 0.931 . S
H693 C670 0.931 . S
H694 C672 0.909 1_556 S
H695 C673 0.931 . S
C696 Eu697 2.835 . S
C696 C698 1.500 . S
C696 O716 1.257 . S
C696 O717 1.260 . S
Eu697 C696 2.835 . S
Eu697 O716 2.473 . S
Eu697 O717 2.480 . S
Eu697 O718 2.430 . S
Eu697 O719 2.670 . S
Eu697 O720 2.394 . S
Eu697 O725 2.355 . S
Eu697 O727 2.374 . S
C698 C696 1.500 . S
C698 C699 1.377 . S
C698 C703 1.377 . S
C699 C698 1.377 . S
C699 C700 1.395 . S
C699 H728 0.931 . S
C700 C699 1.395 . S
C700 C701 1.383 . S
C700 H729 0.931 . S
C701 C700 1.383 . S
C701 C702 1.394 . S
C702 C701 1.394 . S
C702 C703 1.378 . S
C702 H730 0.931 . S
C703 C698 1.377 . S
C703 C702 1.378 . S
C703 H731 0.931 . S
C704 O718 1.259 . S
C704 O719 1.270 . S
C705 O720 1.251 . S
C705 O721 1.251 . S
C706 Eu707 2.835 . S
C706 C708 1.500 . S
C706 O722 1.257 . S
C706 O723 1.260 . S
Eu707 C706 2.835 . S
Eu707 O719 2.355 . S
Eu707 O721 2.374 . S
Eu707 O722 2.473 . S
Eu707 O723 2.480 . S
Eu707 O724 2.430 . S
Eu707 O725 2.670 . S
Eu707 O726 2.394 . S
C708 C706 1.500 . S
C708 C709 1.377 . S
C708 C713 1.377 . S
C709 C708 1.377 . S
C709 C710 1.395 . S
C709 H732 0.931 . S
C710 C709 1.395 . S
C710 C711 1.383 . S
C710 H733 0.931 . S
C711 C710 1.383 . S
C711 C712 1.394 . S
C712 C711 1.394 . S
C712 C713 1.378 . S
C712 H734 0.931 . S
C713 C708 1.377 . S
C713 C712 1.378 . S
C713 H735 0.931 . S
C714 O724 1.259 . S
C714 O725 1.270 . S
C715 O726 1.251 . S
C715 O727 1.251 . S
O716 C696 1.257 . S
O716 Eu697 2.473 . S
O717 C696 1.260 . S
O717 Eu697 2.480 . S
O718 Eu697 2.430 . S
O718 C704 1.259 . S
O719 Eu697 2.670 . S
O719 C704 1.270 . S
O719 Eu707 2.355 . S
O720 Eu697 2.394 . S
O720 C705 1.251 . S
O721 C705 1.251 . S
O721 Eu707 2.374 . S
O722 C706 1.257 . S
O722 Eu707 2.473 . S
O723 C706 1.260 . S
O723 Eu707 2.480 . S
O724 Eu707 2.430 . S
O724 C714 1.259 . S
O725 Eu697 2.355 . S
O725 Eu707 2.670 . S
O725 C714 1.270 . S
O726 Eu707 2.394 . S
O726 C715 1.251 . S
O727 Eu697 2.374 . S
O727 C715 1.251 . S
H728 C699 0.931 . S
H729 C700 0.931 . S
H730 C702 0.931 . S
H731 C703 0.931 . S
H732 C709 0.931 . S
H733 C710 0.931 . S
H734 C712 0.931 . S
H735 C713 0.931 . S
C736 Eu737 2.835 . S
C736 C738 1.500 . S
C736 O756 1.257 . S
C736 O757 1.260 . S
Eu737 C736 2.835 . S
Eu737 O756 2.473 . S
Eu737 O757 2.480 . S
Eu737 O758 2.430 . S
Eu737 O759 2.670 . S
Eu737 O760 2.394 . S
Eu737 O765 2.355 . S
Eu737 O767 2.374 . S
C738 C736 1.500 . S
C738 C739 1.377 . S
C738 C743 1.377 . S
C739 C738 1.377 . S
C739 C740 1.395 . S
C739 H768 0.931 . S
C740 C739 1.395 . S
C740 C741 1.383 . S
C740 H769 0.931 . S
C741 C740 1.383 . S
C741 C742 1.394 . S
C742 C741 1.394 . S
C742 C743 1.378 . S
C742 H770 0.931 . S
C743 C738 1.377 . S
C743 C742 1.378 . S
C743 H771 0.931 . S
C744 O758 1.259 . S
C744 O759 1.270 . S
C745 O760 1.251 . S
C745 O761 1.251 . S
C746 Eu747 2.835 . S
C746 C748 1.500 . S
C746 O762 1.257 . S
C746 O763 1.260 . S
Eu747 C746 2.835 . S
Eu747 O759 2.355 1_655 S
Eu747 O761 2.374 1_655 S
Eu747 O762 2.473 . S
Eu747 O763 2.480 . S
Eu747 O764 2.430 . S
Eu747 O765 2.670 1_655 S
Eu747 O766 2.394 . S
C748 C746 1.500 . S
C748 C749 1.377 . S
C748 C753 1.377 . S
C749 C748 1.377 . S
C749 C750 1.395 . S
C749 H772 0.931 . S
C750 C749 1.395 . S
C750 C751 1.383 . S
C750 H773 0.931 . S
C751 C750 1.383 . S
C751 C752 1.394 . S
C752 C751 1.394 . S
C752 C753 1.378 . S
C752 H774 0.931 . S
C753 C748 1.377 . S
C753 C752 1.378 . S
C753 H775 0.931 . S
C754 O764 1.259 1_455 S
C754 O765 1.270 . S
C755 O766 1.251 1_455 S
C755 O767 1.251 . S
O756 C736 1.257 . S
O756 Eu737 2.473 . S
O757 C736 1.260 . S
O757 Eu737 2.480 . S
O758 Eu737 2.430 . S
O758 C744 1.259 . S
O759 Eu737 2.670 . S
O759 C744 1.270 . S
O759 Eu747 2.355 1_455 S
O760 Eu737 2.394 . S
O760 C745 1.251 . S
O761 C745 1.251 . S
O761 Eu747 2.374 1_455 S
O762 C746 1.257 . S
O762 Eu747 2.473 . S
O763 C746 1.260 . S
O763 Eu747 2.480 . S
O764 Eu747 2.430 . S
O764 C754 1.259 1_655 S
O765 Eu737 2.355 . S
O765 Eu747 2.670 1_455 S
O765 C754 1.270 . S
O766 Eu747 2.394 . S
O766 C755 1.251 1_655 S
O767 Eu737 2.374 . S
O767 C755 1.251 . S
H768 C739 0.931 . S
H769 C740 0.931 . S
H770 C742 0.931 . S
H771 C743 0.931 . S
H772 C749 0.931 . S
H773 C750 0.931 . S
H774 C752 0.931 . S
H775 C753 0.931 . S
C776 Eu777 2.835 . S
C776 C778 1.500 . S
C776 O796 1.257 . S
C776 O797 1.260 . S
Eu777 C776 2.835 . S
Eu777 O796 2.473 . S
Eu777 O797 2.480 . S
Eu777 O798 2.430 . S
Eu777 O799 2.670 . S
Eu777 O800 2.394 . S
Eu777 O805 2.355 . S
Eu777 O807 2.374 . S
C778 C776 1.500 . S
C778 C779 1.377 . S
C778 C783 1.377 . S
C779 C778 1.377 . S
C779 C780 1.395 . S
C779 H808 0.931 . S
C780 C779 1.395 . S
C780 C781 1.383 . S
C780 H809 0.931 . S
C781 C780 1.383 . S
C781 C782 1.394 . S
C782 C781 1.394 . S
C782 C783 1.378 . S
C782 H810 0.931 . S
C783 C778 1.377 . S
C783 C782 1.378 . S
C783 H811 0.931 . S
C784 O798 1.259 . S
C784 O799 1.270 . S
C785 O800 1.251 . S
C785 O801 1.251 . S
C786 Eu787 2.835 . S
C786 C788 1.500 . S
C786 O802 1.257 . S
C786 O803 1.260 . S
Eu787 C786 2.835 . S
Eu787 O799 2.355 . S
Eu787 O801 2.374 . S
Eu787 O802 2.473 . S
Eu787 O803 2.480 . S
Eu787 O804 2.430 . S
Eu787 O805 2.670 . S
Eu787 O806 2.394 . S
C788 C786 1.500 . S
C788 C789 1.377 . S
C788 C793 1.377 . S
C789 C788 1.377 . S
C789 C790 1.395 . S
C789 H812 0.931 . S
C790 C789 1.395 . S
C790 C791 1.383 . S
C790 H813 0.931 . S
C791 C790 1.383 . S
C791 C792 1.394 . S
C792 C791 1.394 . S
C792 C793 1.378 . S
C792 H814 0.931 . S
C793 C788 1.377 . S
C793 C792 1.378 . S
C793 H815 0.931 . S
C794 O804 1.259 . S
C794 O805 1.270 . S
C795 O806 1.251 . S
C795 O807 1.251 . S
O796 C776 1.257 . S
O796 Eu777 2.473 . S
O797 C776 1.260 . S
O797 Eu777 2.480 . S
O798 Eu777 2.430 . S
O798 C784 1.259 . S
O799 Eu777 2.670 . S
O799 C784 1.270 . S
O799 Eu787 2.355 . S
O800 Eu777 2.394 . S
O800 C785 1.251 . S
O801 C785 1.251 . S
O801 Eu787 2.374 . S
O802 C786 1.257 . S
O802 Eu787 2.473 . S
O803 C786 1.260 . S
O803 Eu787 2.480 . S
O804 Eu787 2.430 . S
O804 C794 1.259 . S
O805 Eu777 2.355 . S
O805 Eu787 2.670 . S
O805 C794 1.270 . S
O806 Eu787 2.394 . S
O806 C795 1.251 . S
O807 Eu777 2.374 . S
O807 C795 1.251 . S
H808 C779 0.931 . S
H809 C780 0.931 . S
H810 C782 0.931 . S
H811 C783 0.931 . S
H812 C789 0.931 . S
H813 C790 0.931 . S
H814 C792 0.931 . S
H815 C793 0.931 . S
C816 Eu817 2.835 . S
C816 C818 1.500 . S
C816 O836 1.257 . S
C816 O837 1.260 . S
Eu817 C816 2.835 . S
Eu817 O836 2.473 . S
Eu817 O837 2.480 . S
Eu817 O838 2.430 . S
Eu817 O839 2.670 . S
Eu817 O840 2.394 . S
Eu817 O845 2.355 . S
Eu817 O847 2.374 . S
C818 C816 1.500 . S
C818 C819 1.377 . S
C818 C823 1.377 . S
C819 C818 1.377 . S
C819 C820 1.395 . S
C819 H848 0.931 . S
C820 C819 1.395 . S
C820 C821 1.383 . S
C820 H849 0.931 . S
C821 C820 1.383 . S
C821 C822 1.394 . S
C822 C821 1.394 . S
C822 C823 1.378 . S
C822 H850 0.931 . S
C823 C818 1.377 . S
C823 C822 1.378 . S
C823 H851 0.931 . S
C824 O838 1.259 . S
C824 O839 1.270 . S
C825 O840 1.251 . S
C825 O841 1.251 . S
C826 Eu827 2.835 . S
C826 C828 1.500 . S
C826 O842 1.257 . S
C826 O843 1.260 . S
Eu827 C826 2.835 . S
Eu827 O839 2.355 . S
Eu827 O841 2.374 . S
Eu827 O842 2.473 . S
Eu827 O843 2.480 . S
Eu827 O844 2.430 . S
Eu827 O845 2.670 . S
Eu827 O846 2.394 . S
C828 C826 1.500 . S
C828 C829 1.377 . S
C828 C833 1.377 . S
C829 C828 1.377 . S
C829 C830 1.395 . S
C829 H852 0.931 . S
C830 C829 1.395 . S
C830 C831 1.383 . S
C830 H853 0.931 . S
C831 C830 1.383 . S
C831 C832 1.394 . S
C832 C831 1.394 . S
C832 C833 1.378 . S
C832 H854 0.931 . S
C833 C828 1.377 . S
C833 C832 1.378 . S
C833 H855 0.931 . S
C834 O844 1.259 . S
C834 O845 1.270 . S
C835 O846 1.251 . S
C835 O847 1.251 . S
O836 C816 1.257 . S
O836 Eu817 2.473 . S
O837 C816 1.260 . S
O837 Eu817 2.480 . S
O838 Eu817 2.430 . S
O838 C824 1.259 . S
O839 Eu817 2.670 . S
O839 C824 1.270 . S
O839 Eu827 2.355 . S
O840 Eu817 2.394 . S
O840 C825 1.251 . S
O841 C825 1.251 . S
O841 Eu827 2.374 . S
O842 C826 1.257 . S
O842 Eu827 2.473 . S
O843 C826 1.260 . S
O843 Eu827 2.480 . S
O844 Eu827 2.430 . S
O844 C834 1.259 . S
O845 Eu817 2.355 . S
O845 Eu827 2.670 . S
O845 C834 1.270 . S
O846 Eu827 2.394 . S
O846 C835 1.251 . S
O847 Eu817 2.374 . S
O847 C835 1.251 . S
H848 C819 0.931 . S
H849 C820 0.931 . S
H850 C822 0.931 . S
H851 C823 0.931 . S
H852 C829 0.931 . S
H853 C830 0.931 . S
H854 C832 0.931 . S
H855 C833 0.931 . S
C856 Eu857 2.835 . S
C856 C858 1.500 . S
C856 O876 1.257 . S
C856 O877 1.260 . S
Eu857 C856 2.835 . S
Eu857 O876 2.473 . S
Eu857 O877 2.480 . S
Eu857 O878 2.430 . S
Eu857 O879 2.670 . S
Eu857 O880 2.394 . S
Eu857 O885 2.355 . S
Eu857 O887 2.374 . S
C858 C856 1.500 . S
C858 C859 1.377 . S
C858 C863 1.377 . S
C859 C858 1.377 . S
C859 C860 1.395 . S
C859 H888 0.931 . S
C860 C859 1.395 . S
C860 C861 1.383 . S
C860 H889 0.931 . S
C861 C860 1.383 . S
C861 C862 1.394 . S
C862 C861 1.394 . S
C862 C863 1.378 . S
C862 H890 0.931 . S
C863 C858 1.377 . S
C863 C862 1.378 . S
C863 H891 0.931 . S
C864 O878 1.259 . S
C864 O879 1.270 . S
C865 O880 1.251 . S
C865 O881 1.251 . S
C866 Eu867 2.835 . S
C866 C868 1.500 . S
C866 O882 1.257 . S
C866 O883 1.260 . S
Eu867 C866 2.835 . S
Eu867 O879 2.355 . S
Eu867 O881 2.374 . S
Eu867 O882 2.473 . S
Eu867 O883 2.480 . S
Eu867 O884 2.430 . S
Eu867 O885 2.670 . S
Eu867 O886 2.394 . S
C868 C866 1.500 . S
C868 C869 1.377 . S
C868 C873 1.377 . S
C869 C868 1.377 . S
C869 C870 1.395 . S
C869 H892 0.931 . S
C870 C869 1.395 . S
C870 C871 1.383 . S
C870 H893 0.931 . S
C871 C870 1.383 . S
C871 C872 1.394 . S
C872 C871 1.394 . S
C872 C873 1.378 . S
C872 H894 0.931 . S
C873 C868 1.377 . S
C873 C872 1.378 . S
C873 H895 0.931 . S
C874 O884 1.259 . S
C874 O885 1.270 . S
C875 O886 1.251 . S
C875 O887 1.251 . S
O876 C856 1.257 . S
O876 Eu857 2.473 . S
O877 C856 1.260 . S
O877 Eu857 2.480 . S
O878 Eu857 2.430 . S
O878 C864 1.259 . S
O879 Eu857 2.670 . S
O879 C864 1.270 . S
O879 Eu867 2.355 . S
O880 Eu857 2.394 . S
O880 C865 1.251 . S
O881 C865 1.251 . S
O881 Eu867 2.374 . S
O882 C866 1.257 . S
O882 Eu867 2.473 . S
O883 C866 1.260 . S
O883 Eu867 2.480 . S
O884 Eu867 2.430 . S
O884 C874 1.259 . S
O885 Eu857 2.355 . S
O885 Eu867 2.670 . S
O885 C874 1.270 . S
O886 Eu867 2.394 . S
O886 C875 1.251 . S
O887 Eu857 2.374 . S
O887 C875 1.251 . S
H888 C859 0.931 . S
H889 C860 0.931 . S
H890 C862 0.931 . S
H891 C863 0.931 . S
H892 C869 0.931 . S
H893 C870 0.931 . S
H894 C872 0.931 . S
H895 C873 0.931 . S
C896 Eu897 2.835 . S
C896 C898 1.500 . S
C896 O916 1.257 . S
C896 O917 1.260 . S
Eu897 C896 2.835 . S
Eu897 O916 2.473 . S
Eu897 O917 2.480 . S
Eu897 O918 2.430 . S
Eu897 O919 2.670 . S
Eu897 O920 2.394 . S
Eu897 O925 2.355 . S
Eu897 O927 2.374 . S
C898 C896 1.500 . S
C898 C899 1.377 . S
C898 C903 1.377 . S
C899 C898 1.377 . S
C899 C900 1.395 . S
C899 H928 0.931 . S
C900 C899 1.395 . S
C900 C901 1.383 . S
C900 H929 0.931 . S
C901 C900 1.383 . S
C901 C902 1.394 . S
C902 C901 1.394 . S
C902 C903 1.378 . S
C902 H930 0.931 . S
C903 C898 1.377 . S
C903 C902 1.378 . S
C903 H931 0.931 . S
C904 O918 1.259 . S
C904 O919 1.270 . S
C905 O920 1.251 . S
C905 O921 1.251 . S
C906 Eu907 2.835 . S
C906 C908 1.500 . S
C906 O922 1.257 . S
C906 O923 1.260 . S
Eu907 C906 2.835 . S
Eu907 O919 2.355 . S
Eu907 O921 2.374 . S
Eu907 O922 2.473 . S
Eu907 O923 2.480 . S
Eu907 O924 2.430 . S
Eu907 O925 2.670 . S
Eu907 O926 2.394 . S
C908 C906 1.500 . S
C908 C909 1.377 . S
C908 C913 1.377 . S
C909 C908 1.377 . S
C909 C910 1.395 . S
C909 H932 0.931 . S
C910 C909 1.395 . S
C910 C911 1.383 . S
C910 H933 0.931 . S
C911 C910 1.383 . S
C911 C912 1.394 . S
C912 C911 1.394 . S
C912 C913 1.378 . S
C912 H934 0.931 . S
C913 C908 1.377 . S
C913 C912 1.378 . S
C913 H935 0.931 . S
C914 O924 1.259 . S
C914 O925 1.270 . S
C915 O926 1.251 . S
C915 O927 1.251 . S
O916 C896 1.257 . S
O916 Eu897 2.473 . S
O917 C896 1.260 . S
O917 Eu897 2.480 . S
O918 Eu897 2.430 . S
O918 C904 1.259 . S
O919 Eu897 2.670 . S
O919 C904 1.270 . S
O919 Eu907 2.355 . S
O920 Eu897 2.394 . S
O920 C905 1.251 . S
O921 C905 1.251 . S
O921 Eu907 2.374 . S
O922 C906 1.257 . S
O922 Eu907 2.473 . S
O923 C906 1.260 . S
O923 Eu907 2.480 . S
O924 Eu907 2.430 . S
O924 C914 1.259 . S
O925 Eu897 2.355 . S
O925 Eu907 2.670 . S
O925 C914 1.270 . S
O926 Eu907 2.394 . S
O926 C915 1.251 . S
O927 Eu897 2.374 . S
O927 C915 1.251 . S
H928 C899 0.931 . S
H929 C900 0.931 . S
H930 C902 0.931 . S
H931 C903 0.931 . S
H932 C909 0.931 . S
H933 C910 0.931 . S
H934 C912 0.931 . S
H935 C913 0.931 . S
C936 Eu937 2.835 . S
C936 C938 1.500 . S
C936 O956 1.257 . S
C936 O957 1.260 . S
Eu937 C936 2.835 . S
Eu937 O956 2.473 . S
Eu937 O957 2.480 . S
Eu937 O958 2.430 1_655 S
Eu937 O959 2.670 1_655 S
Eu937 O960 2.394 1_655 S
Eu937 O965 2.355 1_655 S
Eu937 O967 2.374 1_655 S
C938 C936 1.500 . S
C938 C939 1.377 . S
C938 C943 1.377 . S
C939 C938 1.377 . S
C939 C940 1.395 . S
C939 H968 0.931 . S
C940 C939 1.395 . S
C940 C941 1.383 . S
C940 H969 0.931 . S
C941 C940 1.383 . S
C941 C942 1.394 . S
C942 C941 1.394 . S
C942 C943 1.378 . S
C942 H970 0.931 . S
C943 C938 1.377 . S
C943 C942 1.378 . S
C943 H971 0.931 . S
C944 O958 1.259 . S
C944 O959 1.270 . S
C945 O960 1.251 . S
C945 O961 1.251 . S
C946 Eu947 2.835 . S
C946 C948 1.500 . S
C946 O962 1.257 . S
C946 O963 1.260 . S
Eu947 C946 2.835 . S
Eu947 O959 2.355 . S
Eu947 O961 2.374 . S
Eu947 O962 2.473 . S
Eu947 O963 2.480 . S
Eu947 O964 2.430 1_554 S
Eu947 O965 2.670 . S
Eu947 O966 2.394 . S
C948 C946 1.500 . S
C948 C949 1.335 1_554 S
C948 C953 1.377 . S
C949 C948 1.335 1_556 S
C949 C950 1.403 . S
C949 H972 0.967 . S
C950 C949 1.403 . S
C950 C951 1.383 1_556 S
C950 H973 0.931 . S
C951 C950 1.383 1_554 S
C951 C952 1.394 . S
C952 C951 1.394 . S
C952 C953 1.378 . S
C952 H974 0.931 . S
C953 C948 1.377 . S
C953 C952 1.378 . S
C953 H975 0.931 . S
C954 O964 1.259 . S
C954 O965 1.270 1_556 S
C955 O966 1.251 . S
C955 O967 1.251 . S
O956 C936 1.257 . S
O956 Eu937 2.473 . S
O957 C936 1.260 . S
O957 Eu937 2.480 . S
O958 Eu937 2.430 1_455 S
O958 C944 1.259 . S
O959 Eu937 2.670 1_455 S
O959 C944 1.270 . S
O959 Eu947 2.355 . S
O960 Eu937 2.394 1_455 S
O960 C945 1.251 . S
O961 C945 1.251 . S
O961 Eu947 2.374 . S
O962 C946 1.257 . S
O962 Eu947 2.473 . S
O963 C946 1.260 . S
O963 Eu947 2.480 . S
O964 Eu947 2.430 1_556 S
O964 C954 1.259 . S
O965 Eu937 2.355 1_455 S
O965 Eu947 2.670 . S
O965 C954 1.270 1_554 S
O966 Eu947 2.394 . S
O966 C955 1.251 . S
O967 Eu937 2.374 1_455 S
O967 C955 1.251 . S
H968 C939 0.931 . S
H969 C940 0.931 . S
H970 C942 0.931 . S
H971 C943 0.931 . S
H972 C949 0.967 . S
H973 C950 0.931 . S
H974 C952 0.931 . S
H975 C953 0.931 . S
H976 C982 0.930 1_554 S
H977 C986 0.930 . S
H978 C991 0.929 . S
H979 C989 0.929 . S
H980 C984 0.929 1_655 S
H981 C990 0.929 . S
C982 H976 0.930 1_556 S
C982 C983 1.367 . S
C982 C990 1.378 1_556 S
C983 C982 1.367 . S
C983 C991 1.433 1_455 S
C984 H980 0.929 1_455 S
C984 C986 1.378 1_556 S
C984 C988 1.350 1_556 S
C985 C988 1.463 1_556 S
C985 C990 1.350 1_556 S
C985 N993 1.427 1_455 S
C986 H977 0.930 . S
C986 C984 1.378 1_554 S
C986 C987 1.367 . S
C987 C986 1.367 . S
C987 C989 1.433 . S
C988 C984 1.350 1_554 S
C988 C985 1.463 1_554 S
C988 N992 1.427 . S
C989 H979 0.929 . S
C989 C987 1.433 . S
C989 N992 1.384 . S
C990 H981 0.929 . S
C990 C982 1.378 1_554 S
C990 C985 1.350 1_554 S
C991 H978 0.929 . S
C991 C983 1.433 1_655 S
C991 N993 1.384 . S
N992 C988 1.427 . S
N992 C989 1.384 . S
N993 C985 1.427 1_655 S
N993 C991 1.384 . S
H994 C1000 0.930 . S
H995 C1004 0.930 . S
H996 C1009 0.929 . S
H997 C1007 0.929 . S
H998 C1002 0.929 . S
H999 C1008 0.929 . S
C1000 H994 0.930 . S
C1000 C1001 1.367 . S
C1000 C1008 1.378 . S
C1001 C1000 1.367 . S
C1001 C1009 1.433 . S
C1002 H998 0.929 . S
C1002 C1004 1.378 . S
C1002 C1006 1.350 . S
C1003 C1006 1.463 . S
C1003 C1008 1.350 . S
C1003 N1011 1.427 . S
C1004 H995 0.930 . S
C1004 C1002 1.378 . S
C1004 C1005 1.367 . S
C1005 C1004 1.367 . S
C1005 C1007 1.433 . S
C1006 C1002 1.350 . S
C1006 C1003 1.463 . S
C1006 N1010 1.427 . S
C1007 H997 0.929 . S
C1007 C1005 1.433 . S
C1007 N1010 1.384 . S
C1008 H999 0.929 . S
C1008 C1000 1.378 . S
C1008 C1003 1.350 . S
C1009 H996 0.929 . S
C1009 C1001 1.433 . S
C1009 N1011 1.384 . S
N1010 C1006 1.427 . S
N1010 C1007 1.384 . S
N1011 C1003 1.427 . S
N1011 C1009 1.384 . S
H1012 C1018 0.930 . S
H1013 C1022 0.930 . S
H1014 C1027 0.929 . S
H1015 C1025 0.929 . S
H1016 C1020 0.929 . S
H1017 C1026 0.929 . S
C1018 H1012 0.930 . S
C1018 C1019 1.367 . S
C1018 C1026 1.378 . S
C1019 C1018 1.367 . S
C1019 C1027 1.433 . S
C1020 H1016 0.929 . S
C1020 C1022 1.378 . S
C1020 C1024 1.350 . S
C1021 C1024 1.463 . S
C1021 C1026 1.350 . S
C1021 N1029 1.427 . S
C1022 H1013 0.930 . S
C1022 C1020 1.378 . S
C1022 C1023 1.367 . S
C1023 C1022 1.367 . S
C1023 C1025 1.433 . S
C1024 C1020 1.350 . S
C1024 C1021 1.463 . S
C1024 N1028 1.427 . S
C1025 H1015 0.929 . S
C1025 C1023 1.433 . S
C1025 N1028 1.384 . S
C1026 H1017 0.929 . S
C1026 C1018 1.378 . S
C1026 C1021 1.350 . S
C1027 H1014 0.929 . S
C1027 C1019 1.433 . S
C1027 N1029 1.384 . S
N1028 C1024 1.427 . S
N1028 C1025 1.384 . S
N1029 C1021 1.427 . S
N1029 C1027 1.384 . S
H1030 C1036 0.930 . S
H1031 C1040 0.930 . S
H1032 C1045 0.929 . S
H1033 C1043 0.929 . S
H1034 C1038 0.929 . S
H1035 C1044 0.929 . S
C1036 H1030 0.930 . S
C1036 C1037 1.367 . S
C1036 C1044 1.378 . S
C1037 C1036 1.367 . S
C1037 C1045 1.433 . S
C1038 H1034 0.929 . S
C1038 C1040 1.378 . S
C1038 C1042 1.350 . S
C1039 C1042 1.463 . S
C1039 C1044 1.350 . S
C1039 N1047 1.427 . S
C1040 H1031 0.930 . S
C1040 C1038 1.378 . S
C1040 C1041 1.367 . S
C1041 C1040 1.367 . S
C1041 C1043 1.433 . S
C1042 C1038 1.350 . S
C1042 C1039 1.463 . S
C1042 N1046 1.427 . S
C1043 H1033 0.929 . S
C1043 C1041 1.433 . S
C1043 N1046 1.384 . S
C1044 H1035 0.929 . S
C1044 C1036 1.378 . S
C1044 C1039 1.350 . S
C1045 H1032 0.929 . S
C1045 C1037 1.433 . S
C1045 N1047 1.384 . S
N1046 C1042 1.427 . S
N1046 C1043 1.384 . S
N1047 C1039 1.427 . S
N1047 C1045 1.384 . S
H1048 C1054 0.930 . S
H1049 C1058 0.930 . S
H1050 C1063 0.929 . S
H1051 C1061 0.929 . S
H1052 C1056 0.929 . S
H1053 C1062 0.929 . S
C1054 H1048 0.930 . S
C1054 C1055 1.367 . S
C1054 C1062 1.378 . S
C1055 C1054 1.367 . S
C1055 C1063 1.433 1_455 S
C1056 H1052 0.929 . S
C1056 C1058 1.378 . S
C1056 C1060 1.350 . S
C1057 C1060 1.463 . S
C1057 C1062 1.350 . S
C1057 N1065 1.427 . S
C1058 H1049 0.930 . S
C1058 C1056 1.378 . S
C1058 C1059 1.367 . S
C1059 C1058 1.367 . S
C1059 C1061 1.433 . S
C1060 C1056 1.350 . S
C1060 C1057 1.463 . S
C1060 N1064 1.427 . S
C1061 H1051 0.929 . S
C1061 C1059 1.433 . S
C1061 N1064 1.384 . S
C1062 H1053 0.929 . S
C1062 C1054 1.378 . S
C1062 C1057 1.350 . S
C1063 H1050 0.929 . S
C1063 C1055 1.433 1_655 S
C1063 N1065 1.384 1_655 S
N1064 C1060 1.427 . S
N1064 C1061 1.384 . S
N1065 C1057 1.427 . S
N1065 C1063 1.384 1_455 S
H1066 C1072 0.930 . S
H1067 C1076 0.930 . S
H1068 C1081 0.929 . S
H1069 C1079 0.929 . S
H1070 C1074 0.929 . S
H1071 C1080 0.929 . S
C1072 H1066 0.930 . S
C1072 C1073 1.367 . S
C1072 C1080 1.378 . S
C1073 C1072 1.367 . S
C1073 C1081 1.433 . S
C1074 H1070 0.929 . S
C1074 C1076 1.378 . S
C1074 C1078 1.350 . S
C1075 C1078 1.463 . S
C1075 C1080 1.350 . S
C1075 N1083 1.427 . S
C1076 H1067 0.930 . S
C1076 C1074 1.378 . S
C1076 C1077 1.367 . S
C1077 C1076 1.367 . S
C1077 C1079 1.433 . S
C1078 C1074 1.350 . S
C1078 C1075 1.463 . S
C1078 N1082 1.427 . S
C1079 H1069 0.929 . S
C1079 C1077 1.433 . S
C1079 N1082 1.384 . S
C1080 H1071 0.929 . S
C1080 C1072 1.378 . S
C1080 C1075 1.350 . S
C1081 H1068 0.929 . S
C1081 C1073 1.433 . S
C1081 N1083 1.384 . S
N1082 C1078 1.427 . S
N1082 C1079 1.384 . S
N1083 C1075 1.427 . S
N1083 C1081 1.384 . S
H1084 C1090 0.930 . S
H1085 C1094 0.930 . S
H1086 C1099 0.929 . S
H1087 C1097 0.929 . S
H1088 C1092 0.929 . S
H1089 C1098 0.929 . S
C1090 H1084 0.930 . S
C1090 C1091 1.367 . S
C1090 C1098 1.378 . S
C1091 C1090 1.367 . S
C1091 C1099 1.433 . S
C1092 H1088 0.929 . S
C1092 C1094 1.378 . S
C1092 C1096 1.350 . S
C1093 C1096 1.463 . S
C1093 C1098 1.350 . S
C1093 N1101 1.427 . S
C1094 H1085 0.930 . S
C1094 C1092 1.378 . S
C1094 C1095 1.367 . S
C1095 C1094 1.367 . S
C1095 C1097 1.433 . S
C1096 C1092 1.350 . S
C1096 C1093 1.463 . S
C1096 N1100 1.427 . S
C1097 H1087 0.929 . S
C1097 C1095 1.433 . S
C1097 N1100 1.384 . S
C1098 H1089 0.929 . S
C1098 C1090 1.378 . S
C1098 C1093 1.350 . S
C1099 H1086 0.929 . S
C1099 C1091 1.433 . S
C1099 N1101 1.384 . S
N1100 C1096 1.427 . S
N1100 C1097 1.384 . S
N1101 C1093 1.427 . S
N1101 C1099 1.384 . S
H1102 C1108 0.930 . S
H1103 C1112 0.930 . S
H1104 C1117 0.929 . S
H1105 C1115 0.929 . S
H1106 C1110 0.929 . S
H1107 C1116 0.929 . S
C1108 H1102 0.930 . S
C1108 C1109 1.367 . S
C1108 C1116 1.378 . S
C1109 C1108 1.367 . S
C1109 C1117 1.433 . S
C1110 H1106 0.929 . S
C1110 C1112 1.378 . S
C1110 C1114 1.350 . S
C1111 C1114 1.463 . S
C1111 C1116 1.350 . S
C1111 N1119 1.427 . S
C1112 H1103 0.930 . S
C1112 C1110 1.378 . S
C1112 C1113 1.367 . S
C1113 C1112 1.367 . S
C1113 C1115 1.433 . S
C1114 C1110 1.350 . S
C1114 C1111 1.463 . S
C1114 N1118 1.427 . S
C1115 H1105 0.929 . S
C1115 C1113 1.433 . S
C1115 N1118 1.384 . S
C1116 H1107 0.929 . S
C1116 C1108 1.378 . S
C1116 C1111 1.350 . S
C1117 H1104 0.929 . S
C1117 C1109 1.433 . S
C1117 N1119 1.384 . S
N1118 C1114 1.427 . S
N1118 C1115 1.384 . S
N1119 C1111 1.427 . S
N1119 C1117 1.384 . S
H1120 C1126 0.930 . S
H1121 C1130 0.930 . S
H1122 C1135 0.929 . S
H1123 C1133 0.929 . S
H1124 C1128 0.929 . S
H1125 C1134 0.929 . S
C1126 H1120 0.930 . S
C1126 C1127 1.367 . S
C1126 C1134 1.378 . S
C1127 C1126 1.367 . S
C1127 C1135 1.433 . S
C1128 H1124 0.929 . S
C1128 C1130 1.378 . S
C1128 C1132 1.350 . S
C1129 C1132 1.463 . S
C1129 C1134 1.350 . S
C1129 N1137 1.427 . S
C1130 H1121 0.930 . S
C1130 C1128 1.378 . S
C1130 C1131 1.367 1_655 S
C1131 C1130 1.367 1_455 S
C1131 C1133 1.433 . S
C1132 C1128 1.350 . S
C1132 C1129 1.463 . S
C1132 N1136 1.427 1_655 S
C1133 H1123 0.929 . S
C1133 C1131 1.433 . S
C1133 N1136 1.384 . S
C1134 H1125 0.929 . S
C1134 C1126 1.378 . S
C1134 C1129 1.350 . S
C1135 H1122 0.929 . S
C1135 C1127 1.433 . S
C1135 N1137 1.384 . S
N1136 C1132 1.427 1_455 S
N1136 C1133 1.384 . S
N1137 C1129 1.427 . S
N1137 C1135 1.384 . S
H1138 C1144 0.930 . S
H1139 C1148 0.930 . S
H1140 C1153 0.929 . S
H1141 C1151 0.929 . S
H1142 C1146 0.929 . S
H1143 C1152 0.929 . S
C1144 H1138 0.930 . S
C1144 C1145 1.367 . S
C1144 C1152 1.378 . S
C1145 C1144 1.367 . S
C1145 C1153 1.433 . S
C1146 H1142 0.929 . S
C1146 C1148 1.378 . S
C1146 C1150 1.350 . S
C1147 C1150 1.463 . S
C1147 C1152 1.350 . S
C1147 N1155 1.427 . S
C1148 H1139 0.930 . S
C1148 C1146 1.378 . S
C1148 C1149 1.367 . S
C1149 C1148 1.367 . S
C1149 C1151 1.433 . S
C1150 C1146 1.350 . S
C1150 C1147 1.463 . S
C1150 N1154 1.427 . S
C1151 H1141 0.929 . S
C1151 C1149 1.433 . S
C1151 N1154 1.384 . S
C1152 H1143 0.929 . S
C1152 C1144 1.378 . S
C1152 C1147 1.350 . S
C1153 H1140 0.929 . S
C1153 C1145 1.433 . S
C1153 N1155 1.384 . S
N1154 C1150 1.427 . S
N1154 C1151 1.384 . S
N1155 C1147 1.427 . S
N1155 C1153 1.384 . S
H1156 C1162 0.930 . S
H1157 C1166 0.930 . S
H1158 C1171 0.929 . S
H1159 C1169 0.929 . S
H1160 C1164 0.929 . S
H1161 C1170 0.929 . S
C1162 H1156 0.930 . S
C1162 C1163 1.367 1_565 S
C1162 C1170 1.378 . S
C1163 C1162 1.367 1_545 S
C1163 C1171 1.433 . S
C1164 H1160 0.929 . S
C1164 C1166 1.378 . S
C1164 C1168 1.350 . S
C1165 C1168 1.463 . S
C1165 C1170 1.350 1_545 S
C1165 N1173 1.427 . S
C1166 H1157 0.930 . S
C1166 C1164 1.378 . S
C1166 C1167 1.367 . S
C1167 C1166 1.367 . S
C1167 C1169 1.433 1_545 S
C1168 C1164 1.350 . S
C1168 C1165 1.463 . S
C1168 N1172 1.427 1_545 S
C1169 H1159 0.929 . S
C1169 C1167 1.433 1_565 S
C1169 N1172 1.384 . S
C1170 H1161 0.929 . S
C1170 C1162 1.378 . S
C1170 C1165 1.350 1_565 S
C1171 H1158 0.929 . S
C1171 C1163 1.433 . S
C1171 N1173 1.384 . S
N1172 C1168 1.427 1_565 S
N1172 C1169 1.384 . S
N1173 C1165 1.427 . S
N1173 C1171 1.384 . S
H1174 C1180 0.930 . S
H1175 C1184 0.930 . S
H1176 C1189 0.929 . S
H1177 C1187 0.929 . S
H1178 C1182 0.929 . S
H1179 C1188 0.929 . S
C1180 H1174 0.930 . S
C1180 C1181 1.367 . S
C1180 C1188 1.378 . S
C1181 C1180 1.367 . S
C1181 C1189 1.433 . S
C1182 H1178 0.929 . S
C1182 C1184 1.378 . S
C1182 C1186 1.350 . S
C1183 C1186 1.463 . S
C1183 C1188 1.350 . S
C1183 N1191 1.427 . S
C1184 H1175 0.930 . S
C1184 C1182 1.378 . S
C1184 C1185 1.367 . S
C1185 C1184 1.367 . S
C1185 C1187 1.433 . S
C1186 C1182 1.350 . S
C1186 C1183 1.463 . S
C1186 N1190 1.427 . S
C1187 H1177 0.929 . S
C1187 C1185 1.433 . S
C1187 N1190 1.384 . S
C1188 H1179 0.929 . S
C1188 C1180 1.378 . S
C1188 C1183 1.350 . S
C1189 H1176 0.929 . S
C1189 C1181 1.433 . S
C1189 N1191 1.384 . S
N1190 C1186 1.427 . S
N1190 C1187 1.384 . S
N1191 C1183 1.427 . S
N1191 C1189 1.384 . S
H1192 C1198 0.930 . S
H1193 C1202 0.930 . S
H1194 C1207 0.929 . S
H1195 C1205 0.929 1_565 S
H1196 C1200 0.929 . S
H1197 C1206 0.929 . S
C1198 H1192 0.930 . S
C1198 C1199 1.367 . S
C1198 C1206 1.378 . S
C1199 C1198 1.367 . S
C1199 C1207 1.433 . S
C1200 H1196 0.929 . S
C1200 C1202 1.378 . S
C1200 C1204 1.350 . S
C1201 C1204 1.463 . S
C1201 C1206 1.350 . S
C1201 N1209 1.427 . S
C1202 H1193 0.930 . S
C1202 C1200 1.378 . S
C1202 C1203 1.367 1_655 S
C1203 C1202 1.367 1_455 S
C1203 C1205 1.433 . S
C1204 C1200 1.350 . S
C1204 C1201 1.463 . S
C1204 N1208 1.427 . S
C1205 H1195 0.929 1_545 S
C1205 C1203 1.433 . S
C1205 N1208 1.384 1_455 S
C1206 H1197 0.929 . S
C1206 C1198 1.378 . S
C1206 C1201 1.350 . S
C1207 H1194 0.929 . S
C1207 C1199 1.433 . S
C1207 N1209 1.384 . S
N1208 C1204 1.427 . S
N1208 C1205 1.384 1_655 S
N1209 C1201 1.427 . S
N1209 C1207 1.384 . S
H1210 C1216 0.930 . S
H1211 C1220 0.930 . S
H1212 C1225 0.929 . S
H1213 C1223 0.929 . S
H1214 C1218 0.929 . S
H1215 C1224 0.929 . S
C1216 H1210 0.930 . S
C1216 C1217 1.367 . S
C1216 C1224 1.378 . S
C1217 C1216 1.367 . S
C1217 C1225 1.433 . S
C1218 H1214 0.929 . S
C1218 C1220 1.378 . S
C1218 C1222 1.350 . S
C1219 C1222 1.463 . S
C1219 C1224 1.350 . S
C1219 N1227 1.427 . S
C1220 H1211 0.930 . S
C1220 C1218 1.378 . S
C1220 C1221 1.367 . S
C1221 C1220 1.367 . S
C1221 C1223 1.433 . S
C1222 C1218 1.350 . S
C1222 C1219 1.463 . S
C1222 N1226 1.427 . S
C1223 H1213 0.929 . S
C1223 C1221 1.433 . S
C1223 N1226 1.384 . S
C1224 H1215 0.929 . S
C1224 C1216 1.378 . S
C1224 C1219 1.350 . S
C1225 H1212 0.929 . S
C1225 C1217 1.433 . S
C1225 N1227 1.384 . S
N1226 C1222 1.427 . S
N1226 C1223 1.384 . S
N1227 C1219 1.427 . S
N1227 C1225 1.384 . S
H1228 C1234 0.930 . S
H1229 C1238 0.930 . S
H1230 C1243 0.929 . S
H1231 C1241 0.929 . S
H1232 C1236 0.929 . S
H1233 C1242 0.929 . S
C1234 H1228 0.930 . S
C1234 C1235 1.367 . S
C1234 C1242 1.378 . S
C1235 C1234 1.367 . S
C1235 C1243 1.433 . S
C1236 H1232 0.929 . S
C1236 C1238 1.378 . S
C1236 C1240 1.350 . S
C1237 C1240 1.463 . S
C1237 C1242 1.350 . S
C1237 N1245 1.427 . S
C1238 H1229 0.930 . S
C1238 C1236 1.378 . S
C1238 C1239 1.367 . S
C1239 C1238 1.367 . S
C1239 C1241 1.433 . S
C1240 C1236 1.350 . S
C1240 C1237 1.463 . S
C1240 N1244 1.427 . S
C1241 H1231 0.929 . S
C1241 C1239 1.433 . S
C1241 N1244 1.384 . S
C1242 H1233 0.929 . S
C1242 C1234 1.378 . S
C1242 C1237 1.350 . S
C1243 H1230 0.929 . S
C1243 C1235 1.433 . S
C1243 N1245 1.384 . S
N1244 C1240 1.427 . S
N1244 C1241 1.384 . S
N1245 C1237 1.427 . S
N1245 C1243 1.384 . S
H1246 C1252 0.930 . S
H1247 C1256 0.930 . S
H1248 C1261 0.929 . S
H1249 C1259 0.929 . S
H1250 C1254 0.929 . S
H1251 C1260 0.929 . S
C1252 H1246 0.930 . S
C1252 C1253 1.367 . S
C1252 C1260 1.378 . S
C1253 C1252 1.367 . S
C1253 C1261 1.433 . S
C1254 H1250 0.929 . S
C1254 C1256 1.378 . S
C1254 C1258 1.350 . S
C1255 C1258 1.463 . S
C1255 C1260 1.350 . S
C1255 N1263 1.427 . S
C1256 H1247 0.930 . S
C1256 C1254 1.378 . S
C1256 C1257 1.367 . S
C1257 C1256 1.367 . S
C1257 C1259 1.433 . S
C1258 C1254 1.350 . S
C1258 C1255 1.463 . S
C1258 N1262 1.427 . S
C1259 H1249 0.929 . S
C1259 C1257 1.433 . S
C1259 N1262 1.384 . S
C1260 H1251 0.929 . S
C1260 C1252 1.378 . S
C1260 C1255 1.350 . S
C1261 H1248 0.929 . S
C1261 C1253 1.433 . S
C1261 N1263 1.384 . S
N1262 C1258 1.427 . S
N1262 C1259 1.384 . S
N1263 C1255 1.427 . S
N1263 C1261 1.384 . S
H1264 C1270 0.930 . S
H1265 C1274 0.930 . S
H1266 C1279 0.929 . S
H1267 C1277 0.929 . S
H1268 C1272 0.929 . S
H1269 C1278 0.929 . S
C1270 H1264 0.930 . S
C1270 C1271 1.367 1_556 S
C1270 C1278 1.378 1_556 S
C1271 C1270 1.367 1_554 S
C1271 C1279 1.433 . S
C1272 H1268 0.929 . S
C1272 C1274 1.378 . S
C1272 C1276 1.350 . S
C1273 C1276 1.463 . S
C1273 C1278 1.350 . S
C1273 N1281 1.427 . S
C1274 H1265 0.930 . S
C1274 C1272 1.378 . S
C1274 C1275 1.367 . S
C1275 C1274 1.367 . S
C1275 C1277 1.433 . S
C1276 C1272 1.350 . S
C1276 C1273 1.463 . S
C1276 N1280 1.427 . S
C1277 H1267 0.929 . S
C1277 C1275 1.433 . S
C1277 N1280 1.384 . S
C1278 H1269 0.929 . S
C1278 C1270 1.378 1_554 S
C1278 C1273 1.350 . S
C1279 H1266 0.929 . S
C1279 C1271 1.433 . S
C1279 N1281 1.384 . S
N1280 C1276 1.427 . S
N1280 C1277 1.384 . S
N1281 C1273 1.427 . S
N1281 C1279 1.384 . S
H1282 C1288 0.930 1_556 S
H1283 C1292 0.930 . S
H1284 C1297 0.929 . S
H1285 C1295 0.929 1_556 S
H1286 C1290 0.929 . S
H1287 C1296 0.929 1_556 S
C1288 H1282 0.930 1_554 S
C1288 C1289 1.367 . S
C1288 C1296 1.378 . S
C1289 C1288 1.367 . S
C1289 C1297 1.433 . S
C1290 H1286 0.929 . S
C1290 C1292 1.378 . S
C1290 C1294 1.350 . S
C1291 C1294 1.463 . S
C1291 C1296 1.350 . S
C1291 N1299 1.427 . S
C1292 H1283 0.930 . S
C1292 C1290 1.378 . S
C1292 C1293 1.367 . S
C1293 C1292 1.367 . S
C1293 C1295 1.433 . S
C1294 C1290 1.350 . S
C1294 C1291 1.463 . S
C1294 N1298 1.427 . S
C1295 H1285 0.929 1_554 S
C1295 C1293 1.433 . S
C1295 N1298 1.384 . S
C1296 H1287 0.929 1_554 S
C1296 C1288 1.378 . S
C1296 C1291 1.350 . S
C1297 H1284 0.929 . S
C1297 C1289 1.433 . S
C1297 N1299 1.384 . S
N1298 C1294 1.427 . S
N1298 C1295 1.384 . S
N1299 C1291 1.427 . S
N1299 C1297 1.384 . S
H1300 C1306 0.930 . S
H1301 C1310 0.930 . S
H1302 C1315 0.929 . S
H1303 C1313 0.929 . S
H1304 C1308 0.929 . S
H1305 C1314 0.929 . S
C1306 H1300 0.930 . S
C1306 C1307 1.367 . S
C1306 C1314 1.378 . S
C1307 C1306 1.367 . S
C1307 C1315 1.433 . S
C1308 H1304 0.929 . S
C1308 C1310 1.378 . S
C1308 C1312 1.350 . S
C1309 C1312 1.463 . S
C1309 C1314 1.350 . S
C1309 N1317 1.427 . S
C1310 H1301 0.930 . S
C1310 C1308 1.378 . S
C1310 C1311 1.367 . S
C1311 C1310 1.367 . S
C1311 C1313 1.433 . S
C1312 C1308 1.350 . S
C1312 C1309 1.463 . S
C1312 N1316 1.427 . S
C1313 H1303 0.929 . S
C1313 C1311 1.433 . S
C1313 N1316 1.384 . S
C1314 H1305 0.929 . S
C1314 C1306 1.378 . S
C1314 C1309 1.350 . S
C1315 H1302 0.929 . S
C1315 C1307 1.433 . S
C1315 N1317 1.384 . S
N1316 C1312 1.427 . S
N1316 C1313 1.384 . S
N1317 C1309 1.427 . S
N1317 C1315 1.384 . S
H1318 C1324 0.930 . S
H1319 C1328 0.930 . S
H1320 C1333 0.929 . S
H1321 C1331 0.929 . S
H1322 C1326 0.929 . S
H1323 C1332 0.929 . S
C1324 H1318 0.930 . S
C1324 C1325 1.367 . S
C1324 C1332 1.378 . S
C1325 C1324 1.367 . S
C1325 C1333 1.433 . S
C1326 H1322 0.929 . S
C1326 C1328 1.378 . S
C1326 C1330 1.350 . S
C1327 C1330 1.463 . S
C1327 C1332 1.350 . S
C1327 N1335 1.427 . S
C1328 H1319 0.930 . S
C1328 C1326 1.378 . S
C1328 C1329 1.367 . S
C1329 C1328 1.367 . S
C1329 C1331 1.433 . S
C1330 C1326 1.350 . S
C1330 C1327 1.463 . S
C1330 N1334 1.427 . S
C1331 H1321 0.929 . S
C1331 C1329 1.433 . S
C1331 N1334 1.384 . S
C1332 H1323 0.929 . S
C1332 C1324 1.378 . S
C1332 C1327 1.350 . S
C1333 H1320 0.929 . S
C1333 C1325 1.433 . S
C1333 N1335 1.384 . S
N1334 C1330 1.427 . S
N1334 C1331 1.384 . S
N1335 C1327 1.427 . S
N1335 C1333 1.384 . S
H1336 C1342 0.930 . S
H1337 C1346 0.930 . S
H1338 C1351 0.929 . S
H1339 C1349 0.929 . S
H1340 C1344 0.929 . S
H1341 C1350 0.929 . S
C1342 H1336 0.930 . S
C1342 C1343 1.367 . S
C1342 C1350 1.378 . S
C1343 C1342 1.367 . S
C1343 C1351 1.433 . S
C1344 H1340 0.929 . S
C1344 C1346 1.378 . S
C1344 C1348 1.350 . S
C1345 C1348 1.463 . S
C1345 C1350 1.350 . S
C1345 N1353 1.427 . S
C1346 H1337 0.930 . S
C1346 C1344 1.378 . S
C1346 C1347 1.367 . S
C1347 C1346 1.367 . S
C1347 C1349 1.433 . S
C1348 C1344 1.350 . S
C1348 C1345 1.463 . S
C1348 N1352 1.427 . S
C1349 H1339 0.929 . S
C1349 C1347 1.433 . S
C1349 N1352 1.384 . S
C1350 H1341 0.929 . S
C1350 C1342 1.378 . S
C1350 C1345 1.350 . S
C1351 H1338 0.929 . S
C1351 C1343 1.433 . S
C1351 N1353 1.384 . S
N1352 C1348 1.427 . S
N1352 C1349 1.384 . S
N1353 C1345 1.427 . S
N1353 C1351 1.384 . S
H1354 C1360 0.930 . S
H1355 C1364 0.930 . S
H1356 C1369 0.929 . S
H1357 C1367 0.929 . S
H1358 C1362 0.929 . S
H1359 C1368 0.929 . S
C1360 H1354 0.930 . S
C1360 C1361 1.367 . S
C1360 C1368 1.378 . S
C1361 C1360 1.367 . S
C1361 C1369 1.433 . S
C1362 H1358 0.929 . S
C1362 C1364 1.378 . S
C1362 C1366 1.350 . S
C1363 C1366 1.463 . S
C1363 C1368 1.350 . S
C1363 N1371 1.427 . S
C1364 H1355 0.930 . S
C1364 C1362 1.378 . S
C1364 C1365 1.367 . S
C1365 C1364 1.367 . S
C1365 C1367 1.433 . S
C1366 C1362 1.350 . S
C1366 C1363 1.463 . S
C1366 N1370 1.427 . S
C1367 H1357 0.929 . S
C1367 C1365 1.433 . S
C1367 N1370 1.384 . S
C1368 H1359 0.929 . S
C1368 C1360 1.378 . S
C1368 C1363 1.350 . S
C1369 H1356 0.929 . S
C1369 C1361 1.433 . S
C1369 N1371 1.384 . S
N1370 C1366 1.427 . S
N1370 C1367 1.384 . S
N1371 C1363 1.427 . S
N1371 C1369 1.384 . S
H1372 C1378 0.930 . S
H1373 C1382 0.930 . S
H1374 C1387 0.929 . S
H1375 C1385 0.929 . S
H1376 C1380 0.929 . S
H1377 C1386 0.929 . S
C1378 H1372 0.930 . S
C1378 C1379 1.367 . S
C1378 C1386 1.378 . S
C1379 C1378 1.367 . S
C1379 C1387 1.433 . S
C1380 H1376 0.929 . S
C1380 C1382 1.378 . S
C1380 C1384 1.350 . S
C1381 C1384 1.463 . S
C1381 C1386 1.350 . S
C1381 N1389 1.427 . S
C1382 H1373 0.930 . S
C1382 C1380 1.378 . S
C1382 C1383 1.367 . S
C1383 C1382 1.367 . S
C1383 C1385 1.433 . S
C1384 C1380 1.350 . S
C1384 C1381 1.463 . S
C1384 N1388 1.427 . S
C1385 H1375 0.929 . S
C1385 C1383 1.433 . S
C1385 N1388 1.384 . S
C1386 H1377 0.929 . S
C1386 C1378 1.378 . S
C1386 C1381 1.350 . S
C1387 H1374 0.929 . S
C1387 C1379 1.433 . S
C1387 N1389 1.384 . S
N1388 C1384 1.427 . S
N1388 C1385 1.384 . S
N1389 C1381 1.427 . S
N1389 C1387 1.384 . S
H1390 C1396 0.930 . S
H1391 C1400 0.930 . S
H1392 C1405 0.929 . S
H1393 C1403 0.929 . S
H1394 C1398 0.929 . S
H1395 C1404 0.929 . S
C1396 H1390 0.930 . S
C1396 C1397 1.367 . S
C1396 C1404 1.378 . S
C1397 C1396 1.367 . S
C1397 C1405 1.433 . S
C1398 H1394 0.929 . S
C1398 C1400 1.378 . S
C1398 C1402 1.350 . S
C1399 C1402 1.463 . S
C1399 C1404 1.350 . S
C1399 N1407 1.427 . S
C1400 H1391 0.930 . S
C1400 C1398 1.378 . S
C1400 C1401 1.367 . S
C1401 C1400 1.367 . S
C1401 C1403 1.433 . S
C1402 C1398 1.350 . S
C1402 C1399 1.463 . S
C1402 N1406 1.427 . S
C1403 H1393 0.929 . S
C1403 C1401 1.433 . S
C1403 N1406 1.384 . S
C1404 H1395 0.929 . S
C1404 C1396 1.378 . S
C1404 C1399 1.350 . S
C1405 H1392 0.929 . S
C1405 C1397 1.433 . S
C1405 N1407 1.384 . S
N1406 C1402 1.427 . S
N1406 C1403 1.384 . S
N1407 C1399 1.427 . S
N1407 C1405 1.384 . S
H1408 C1414 0.930 . S
H1409 C1418 0.930 . S
H1410 C1423 0.929 . S
H1411 C1421 0.929 . S
H1412 C1416 0.929 . S
H1413 C1422 0.929 . S
C1414 H1408 0.930 . S
C1414 C1415 1.367 . S
C1414 C1422 1.378 . S
C1415 C1414 1.367 . S
C1415 C1423 1.433 . S
C1416 H1412 0.929 . S
C1416 C1418 1.378 . S
C1416 C1420 1.350 . S
C1417 C1420 1.463 . S
C1417 C1422 1.350 . S
C1417 N1425 1.427 . S
C1418 H1409 0.930 . S
C1418 C1416 1.378 . S
C1418 C1419 1.367 . S
C1419 C1418 1.367 . S
C1419 C1421 1.433 . S
C1420 C1416 1.350 . S
C1420 C1417 1.463 . S
C1420 N1424 1.427 . S
C1421 H1411 0.929 . S
C1421 C1419 1.433 . S
C1421 N1424 1.384 . S
C1422 H1413 0.929 . S
C1422 C1414 1.378 . S
C1422 C1417 1.350 . S
C1423 H1410 0.929 . S
C1423 C1415 1.433 . S
C1423 N1425 1.384 . S
N1424 C1420 1.427 . S
N1424 C1421 1.384 . S
N1425 C1417 1.427 . S
N1425 C1423 1.384 . S
H1426 C1432 0.930 . S
H1427 C1436 0.930 . S
H1428 C1441 0.929 . S
H1429 C1439 0.929 . S
H1430 C1434 0.929 . S
H1431 C1440 0.929 . S
C1432 H1426 0.930 . S
C1432 C1433 1.367 . S
C1432 C1440 1.378 . S
C1433 C1432 1.367 . S
C1433 C1441 1.433 . S
C1434 H1430 0.929 . S
C1434 C1436 1.378 . S
C1434 C1438 1.350 . S
C1435 C1438 1.463 . S
C1435 C1440 1.350 . S
C1435 N1443 1.427 . S
C1436 H1427 0.930 . S
C1436 C1434 1.378 . S
C1436 C1437 1.367 . S
C1437 C1436 1.367 . S
C1437 C1439 1.433 . S
C1438 C1434 1.350 . S
C1438 C1435 1.463 . S
C1438 N1442 1.427 . S
C1439 H1429 0.929 . S
C1439 C1437 1.433 . S
C1439 N1442 1.384 . S
C1440 H1431 0.929 . S
C1440 C1432 1.378 . S
C1440 C1435 1.350 . S
C1441 H1428 0.929 . S
C1441 C1433 1.433 . S
C1441 N1443 1.384 . S
N1442 C1438 1.427 . S
N1442 C1439 1.384 . S
N1443 C1435 1.427 . S
N1443 C1441 1.384 . S
H1444 C1450 0.930 . S
H1445 C1454 0.930 . S
H1446 C1459 0.929 . S
H1447 C1457 0.929 . S
H1448 C1452 0.929 . S
H1449 C1458 0.929 . S
C1450 H1444 0.930 . S
C1450 C1451 1.367 . S
C1450 C1458 1.378 . S
C1451 C1450 1.367 . S
C1451 C1459 1.433 . S
C1452 H1448 0.929 . S
C1452 C1454 1.378 . S
C1452 C1456 1.350 . S
C1453 C1456 1.463 . S
C1453 C1458 1.350 . S
C1453 N1461 1.427 . S
C1454 H1445 0.930 . S
C1454 C1452 1.378 . S
C1454 C1455 1.367 . S
C1455 C1454 1.367 . S
C1455 C1457 1.433 . S
C1456 C1452 1.350 . S
C1456 C1453 1.463 . S
C1456 N1460 1.427 . S
C1457 H1447 0.929 . S
C1457 C1455 1.433 . S
C1457 N1460 1.384 . S
C1458 H1449 0.929 . S
C1458 C1450 1.378 . S
C1458 C1453 1.350 . S
C1459 H1446 0.929 . S
C1459 C1451 1.433 . S
C1459 N1461 1.384 . S
N1460 C1456 1.427 . S
N1460 C1457 1.384 . S
N1461 C1453 1.427 . S
N1461 C1459 1.384 . S
H1462 C1468 0.930 . S
H1463 C1472 0.930 . S
H1464 C1477 0.929 . S
H1465 C1475 0.929 . S
H1466 C1470 0.929 . S
H1467 C1476 0.929 . S
C1468 H1462 0.930 . S
C1468 C1469 1.367 . S
C1468 C1476 1.378 . S
C1469 C1468 1.367 . S
C1469 C1477 1.433 . S
C1470 H1466 0.929 . S
C1470 C1472 1.378 . S
C1470 C1474 1.350 . S
C1471 C1474 1.463 . S
C1471 C1476 1.350 . S
C1471 N1479 1.427 . S
C1472 H1463 0.930 . S
C1472 C1470 1.378 . S
C1472 C1473 1.367 . S
C1473 C1472 1.367 . S
C1473 C1475 1.433 . S
C1474 C1470 1.350 . S
C1474 C1471 1.463 . S
C1474 N1478 1.427 . S
C1475 H1465 0.929 . S
C1475 C1473 1.433 . S
C1475 N1478 1.384 . S
C1476 H1467 0.929 . S
C1476 C1468 1.378 . S
C1476 C1471 1.350 . S
C1477 H1464 0.929 . S
C1477 C1469 1.433 . S
C1477 N1479 1.384 . S
N1478 C1474 1.427 . S
N1478 C1475 1.384 . S
N1479 C1471 1.427 . S
N1479 C1477 1.384 . S
H1480 C1486 0.930 . S
H1481 C1490 0.930 . S
H1482 C1495 0.929 . S
H1483 C1493 0.929 . S
H1484 C1488 0.929 . S
H1485 C1494 0.929 . S
C1486 H1480 0.930 . S
C1486 C1487 1.367 . S
C1486 C1494 1.378 . S
C1487 C1486 1.367 . S
C1487 C1495 1.433 . S
C1488 H1484 0.929 . S
C1488 C1490 1.378 . S
C1488 C1492 1.350 . S
C1489 C1492 1.463 . S
C1489 C1494 1.350 . S
C1489 N1497 1.427 . S
C1490 H1481 0.930 . S
C1490 C1488 1.378 . S
C1490 C1491 1.367 . S
C1491 C1490 1.367 . S
C1491 C1493 1.433 . S
C1492 C1488 1.350 . S
C1492 C1489 1.463 . S
C1492 N1496 1.427 . S
C1493 H1483 0.929 . S
C1493 C1491 1.433 . S
C1493 N1496 1.384 . S
C1494 H1485 0.929 . S
C1494 C1486 1.378 . S
C1494 C1489 1.350 . S
C1495 H1482 0.929 . S
C1495 C1487 1.433 . S
C1495 N1497 1.384 . S
N1496 C1492 1.427 . S
N1496 C1493 1.384 . S
N1497 C1489 1.427 . S
N1497 C1495 1.384 . S
H1498 C1504 0.930 . S
H1499 C1508 0.930 . S
H1500 C1513 0.929 . S
H1501 C1511 0.929 . S
H1502 C1506 0.929 . S
H1503 C1512 0.929 . S
C1504 H1498 0.930 . S
C1504 C1505 1.367 . S
C1504 C1512 1.378 . S
C1505 C1504 1.367 . S
C1505 C1513 1.433 . S
C1506 H1502 0.929 . S
C1506 C1508 1.378 . S
C1506 C1510 1.350 . S
C1507 C1510 1.463 . S
C1507 C1512 1.350 . S
C1507 N1515 1.427 . S
C1508 H1499 0.930 . S
C1508 C1506 1.378 . S
C1508 C1509 1.367 . S
C1509 C1508 1.367 . S
C1509 C1511 1.433 . S
C1510 C1506 1.350 . S
C1510 C1507 1.463 . S
C1510 N1514 1.427 . S
C1511 H1501 0.929 . S
C1511 C1509 1.433 . S
C1511 N1514 1.384 . S
C1512 H1503 0.929 . S
C1512 C1504 1.378 . S
C1512 C1507 1.350 . S
C1513 H1500 0.929 . S
C1513 C1505 1.433 . S
C1513 N1515 1.384 . S
N1514 C1510 1.427 . S
N1514 C1511 1.384 . S
N1515 C1507 1.427 . S
N1515 C1513 1.384 . S
H1516 C1522 0.930 . S
H1517 C1526 0.930 1_556 S
H1518 C1531 0.929 . S
H1519 C1529 0.929 . S
H1520 C1524 0.929 . S
H1521 C1530 0.929 . S
C1522 H1516 0.930 . S
C1522 C1523 1.367 1_554 S
C1522 C1530 1.378 . S
C1523 C1522 1.367 1_556 S
C1523 C1531 1.433 . S
C1524 H1520 0.929 . S
C1524 C1526 1.378 1_556 S
C1524 C1528 1.350 1_556 S
C1525 C1528 1.463 . S
C1525 C1530 1.350 . S
C1525 N1533 1.427 1_554 S
C1526 H1517 0.930 1_554 S
C1526 C1524 1.378 1_554 S
C1526 C1527 1.367 . S
C1527 C1526 1.367 . S
C1527 C1529 1.433 . S
C1528 C1524 1.350 1_554 S
C1528 C1525 1.463 . S
C1528 N1532 1.427 . S
C1529 H1519 0.929 . S
C1529 C1527 1.433 . S
C1529 N1532 1.384 . S
C1530 H1521 0.929 . S
C1530 C1522 1.378 . S
C1530 C1525 1.350 . S
C1531 H1518 0.929 . S
C1531 C1523 1.433 . S
C1531 N1533 1.384 . S
N1532 C1528 1.427 . S
N1532 C1529 1.384 . S
N1533 C1525 1.427 1_556 S
N1533 C1531 1.384 . S
H1534 C1540 0.930 . S
H1535 C1544 0.930 . S
H1536 C1549 0.929 . S
H1537 C1547 0.929 . S
H1538 C1542 0.929 . S
H1539 C1548 0.929 . S
C1540 H1534 0.930 . S
C1540 C1541 1.367 . S
C1540 C1548 1.378 . S
C1541 C1540 1.367 . S
C1541 C1549 1.433 . S
C1542 H1538 0.929 . S
C1542 C1544 1.378 . S
C1542 C1546 1.350 . S
C1543 C1546 1.463 . S
C1543 C1548 1.350 . S
C1543 N1551 1.427 . S
C1544 H1535 0.930 . S
C1544 C1542 1.378 . S
C1544 C1545 1.367 . S
C1545 C1544 1.367 . S
C1545 C1547 1.433 . S
C1546 C1542 1.350 . S
C1546 C1543 1.463 . S
C1546 N1550 1.427 . S
C1547 H1537 0.929 . S
C1547 C1545 1.433 . S
C1547 N1550 1.384 . S
C1548 H1539 0.929 . S
C1548 C1540 1.378 . S
C1548 C1543 1.350 . S
C1549 H1536 0.929 . S
C1549 C1541 1.433 . S
C1549 N1551 1.384 . S
N1550 C1546 1.427 . S
N1550 C1547 1.384 . S
N1551 C1543 1.427 . S
N1551 C1549 1.384 . S
H1552 C1558 0.930 . S
H1553 C1562 0.930 . S
H1554 C1567 0.929 . S
H1555 C1565 0.929 . S
H1556 C1560 0.929 . S
H1557 C1566 0.929 . S
C1558 H1552 0.930 . S
C1558 C1559 1.367 . S
C1558 C1566 1.378 . S
C1559 C1558 1.367 . S
C1559 C1567 1.433 1_545 S
C1560 H1556 0.929 . S
C1560 C1562 1.378 . S
C1560 C1564 1.350 1_565 S
C1561 C1564 1.463 . S
C1561 C1566 1.350 . S
C1561 N1569 1.427 1_545 S
C1562 H1553 0.930 . S
C1562 C1560 1.378 . S
C1562 C1563 1.367 1_565 S
C1563 C1562 1.367 1_545 S
C1563 C1565 1.433 . S
C1564 C1560 1.350 1_545 S
C1564 C1561 1.463 . S
C1564 N1568 1.427 . S
C1565 H1555 0.929 . S
C1565 C1563 1.433 . S
C1565 N1568 1.384 . S
C1566 H1557 0.929 . S
C1566 C1558 1.378 . S
C1566 C1561 1.350 . S
C1567 H1554 0.929 . S
C1567 C1559 1.433 1_565 S
C1567 N1569 1.384 . S
N1568 C1564 1.427 . S
N1568 C1565 1.384 . S
N1569 C1561 1.427 1_565 S
N1569 C1567 1.384 . S
H1570 C1576 0.930 . S
H1571 C1580 0.930 . S
H1572 C1585 0.929 . S
H1573 C1583 0.929 . S
H1574 C1578 0.929 . S
H1575 C1584 0.929 . S
C1576 H1570 0.930 . S
C1576 C1577 1.367 . S
C1576 C1584 1.378 . S
C1577 C1576 1.367 . S
C1577 C1585 1.433 . S
C1578 H1574 0.929 . S
C1578 C1580 1.378 . S
C1578 C1582 1.350 . S
C1579 C1582 1.463 . S
C1579 C1584 1.350 . S
C1579 N1587 1.427 . S
C1580 H1571 0.930 . S
C1580 C1578 1.378 . S
C1580 C1581 1.367 . S
C1581 C1580 1.367 . S
C1581 C1583 1.433 . S
C1582 C1578 1.350 . S
C1582 C1579 1.463 . S
C1582 N1586 1.427 . S
C1583 H1573 0.929 . S
C1583 C1581 1.433 . S
C1583 N1586 1.384 . S
C1584 H1575 0.929 . S
C1584 C1576 1.378 . S
C1584 C1579 1.350 . S
C1585 H1572 0.929 . S
C1585 C1577 1.433 . S
C1585 N1587 1.384 . S
N1586 C1582 1.427 . S
N1586 C1583 1.384 . S
N1587 C1579 1.427 . S
N1587 C1585 1.384 . S
H1588 C1594 0.930 . S
H1589 C1598 0.935 . S
H1590 C1603 0.929 . S
H1591 C1601 0.929 . S
H1592 C1596 0.929 . S
H1593 C1602 0.929 . S
C1594 H1588 0.930 . S
C1594 C1595 1.367 . S
C1594 C1602 1.378 . S
C1595 C1594 1.367 . S
C1595 C1603 1.433 . S
C1596 H1592 0.929 . S
C1596 C1598 1.378 . S
C1596 C1600 1.350 . S
C1597 C1600 1.463 . S
C1597 C1602 1.350 . S
C1597 N1605 1.427 . S
C1598 H1589 0.935 . S
C1598 C1596 1.378 . S
C1598 C1599 1.367 . S
C1599 C1598 1.367 . S
C1599 C1601 1.433 . S
C1600 C1596 1.350 . S
C1600 C1597 1.463 . S
C1600 N1604 1.427 . S
C1601 H1591 0.929 . S
C1601 C1599 1.433 . S
C1601 N1604 1.384 . S
C1602 H1593 0.929 . S
C1602 C1594 1.378 . S
C1602 C1597 1.350 . S
C1603 H1590 0.929 . S
C1603 C1595 1.433 . S
C1603 N1605 1.384 . S
N1604 C1600 1.427 . S
N1604 C1601 1.384 . S
N1605 C1597 1.427 . S
N1605 C1603 1.384 . S
H1606 C1612 0.930 . S
H1607 C1616 0.930 . S
H1608 C1621 0.929 . S
H1609 C1619 0.929 . S
H1610 C1614 0.929 . S
H1611 C1620 0.929 . S
C1612 H1606 0.930 . S
C1612 C1613 1.367 . S
C1612 C1620 1.378 . S
C1613 C1612 1.367 . S
C1613 C1621 1.433 . S
C1614 H1610 0.929 . S
C1614 C1616 1.378 . S
C1614 C1618 1.350 . S
C1615 C1618 1.463 . S
C1615 C1620 1.350 . S
C1615 N1623 1.427 . S
C1616 H1607 0.930 . S
C1616 C1614 1.378 . S
C1616 C1617 1.367 . S
C1617 C1616 1.367 . S
C1617 C1619 1.433 . S
C1618 C1614 1.350 . S
C1618 C1615 1.463 . S
C1618 N1622 1.427 . S
C1619 H1609 0.929 . S
C1619 C1617 1.433 . S
C1619 N1622 1.384 . S
C1620 H1611 0.929 . S
C1620 C1612 1.378 . S
C1620 C1615 1.350 . S
C1621 H1608 0.929 . S
C1621 C1613 1.433 . S
C1621 N1623 1.384 . S
N1622 C1618 1.427 . S
N1622 C1619 1.384 . S
N1623 C1615 1.427 . S
N1623 C1621 1.384 . S
H1624 C1630 0.930 . S
H1625 C1634 0.930 . S
H1626 C1639 0.929 . S
H1627 C1637 0.929 . S
H1628 C1632 0.929 . S
H1629 C1638 0.929 . S
C1630 H1624 0.930 . S
C1630 C1631 1.367 1_545 S
C1630 C1638 1.378 . S
C1631 C1630 1.367 1_565 S
C1631 C1639 1.433 . S
C1632 H1628 0.929 . S
C1632 C1634 1.378 . S
C1632 C1636 1.350 1_565 S
C1633 C1636 1.463 . S
C1633 C1638 1.350 . S
C1633 N1641 1.427 1_545 S
C1634 H1625 0.930 . S
C1634 C1632 1.378 . S
C1634 C1635 1.367 1_565 S
C1635 C1634 1.367 1_545 S
C1635 C1637 1.433 . S
C1636 C1632 1.350 1_545 S
C1636 C1633 1.463 . S
C1636 N1640 1.427 . S
C1637 H1627 0.929 . S
C1637 C1635 1.433 . S
C1637 N1640 1.384 . S
C1638 H1629 0.929 . S
C1638 C1630 1.378 . S
C1638 C1633 1.350 . S
C1639 H1626 0.929 . S
C1639 C1631 1.433 . S
C1639 N1641 1.384 . S
N1640 C1636 1.427 . S
N1640 C1637 1.384 . S
N1641 C1633 1.427 1_565 S
N1641 C1639 1.384 . S
H1642 C1648 0.930 . S
H1643 C1652 0.930 . S
H1644 C1657 0.929 . S
H1645 C1655 0.929 . S
H1646 C1650 0.929 . S
H1647 C1656 0.929 . S
C1648 H1642 0.930 . S
C1648 C1649 1.367 . S
C1648 C1656 1.378 . S
C1649 C1648 1.367 . S
C1649 C1657 1.433 . S
C1650 H1646 0.929 . S
C1650 C1652 1.378 . S
C1650 C1654 1.350 . S
C1651 C1654 1.463 . S
C1651 C1656 1.350 . S
C1651 N1659 1.427 . S
C1652 H1643 0.930 . S
C1652 C1650 1.378 . S
C1652 C1653 1.367 . S
C1653 C1652 1.367 . S
C1653 C1655 1.433 . S
C1654 C1650 1.350 . S
C1654 C1651 1.463 . S
C1654 N1658 1.427 . S
C1655 H1645 0.929 . S
C1655 C1653 1.433 . S
C1655 N1658 1.384 . S
C1656 H1647 0.929 . S
C1656 C1648 1.378 . S
C1656 C1651 1.350 . S
C1657 H1644 0.929 . S
C1657 C1649 1.433 . S
C1657 N1659 1.384 . S
N1658 C1654 1.427 . S
N1658 C1655 1.384 . S
N1659 C1651 1.427 . S
N1659 C1657 1.384 . S
H1660 C1666 0.930 . S
H1661 C1670 0.930 . S
H1662 C1675 0.929 1_565 S
H1663 C1673 0.929 . S
H1664 C1668 0.929 . S
H1665 C1674 0.929 . S
C1666 H1660 0.930 . S
C1666 C1667 1.367 . S
C1666 C1674 1.378 . S
C1667 C1666 1.367 . S
C1667 C1675 1.433 . S
C1668 H1664 0.929 . S
C1668 C1670 1.378 . S
C1668 C1672 1.350 1_565 S
C1669 C1672 1.463 . S
C1669 C1674 1.350 . S
C1669 N1677 1.440 . S
C1670 H1661 0.930 . S
C1670 C1668 1.378 . S
C1670 C1671 1.367 1_565 S
C1671 C1670 1.367 1_545 S
C1671 C1673 1.433 . S
C1672 C1668 1.350 1_545 S
C1672 C1669 1.463 . S
C1672 N1676 1.427 . S
C1673 H1663 0.929 . S
C1673 C1671 1.433 . S
C1673 N1676 1.384 . S
C1674 H1665 0.929 . S
C1674 C1666 1.378 . S
C1674 C1669 1.350 . S
C1675 H1662 0.929 1_545 S
C1675 C1667 1.433 . S
C1675 N1677 1.384 . S
N1676 C1672 1.427 . S
N1676 C1673 1.384 . S
N1677 C1669 1.440 . S
N1677 C1675 1.384 . S
H1678 C1684 0.930 . S
H1679 C1688 0.930 . S
H1680 C1693 0.929 . S
H1681 C1691 0.929 . S
H1682 C1686 0.929 . S
H1683 C1692 0.929 . S
C1684 H1678 0.930 . S
C1684 C1685 1.367 . S
C1684 C1692 1.378 . S
C1685 C1684 1.367 . S
C1685 C1693 1.433 . S
C1686 H1682 0.929 . S
C1686 C1688 1.378 . S
C1686 C1690 1.350 . S
C1687 C1690 1.463 . S
C1687 C1692 1.350 . S
C1687 N1695 1.427 . S
C1688 H1679 0.930 . S
C1688 C1686 1.378 . S
C1688 C1689 1.367 . S
C1689 C1688 1.367 . S
C1689 C1691 1.433 . S
C1690 C1686 1.350 . S
C1690 C1687 1.463 . S
C1690 N1694 1.427 . S
C1691 H1681 0.929 . S
C1691 C1689 1.433 . S
C1691 N1694 1.384 . S
C1692 H1683 0.929 . S
C1692 C1684 1.378 . S
C1692 C1687 1.350 . S
C1693 H1680 0.929 . S
C1693 C1685 1.433 . S
C1693 N1695 1.384 . S
N1694 C1690 1.427 . S
N1694 C1691 1.384 . S
N1695 C1687 1.427 . S
N1695 C1693 1.384 . S
H1696 C1702 0.930 . S
H1697 C1706 0.930 . S
H1698 C1711 0.929 . S
H1699 C1709 0.929 . S
H1700 C1704 0.929 . S
H1701 C1710 0.929 . S
C1702 H1696 0.930 . S
C1702 C1703 1.367 . S
C1702 C1710 1.378 . S
C1703 C1702 1.367 . S
C1703 C1711 1.433 . S
C1704 H1700 0.929 . S
C1704 C1706 1.378 . S
C1704 C1708 1.350 . S
C1705 C1708 1.463 . S
C1705 C1710 1.350 . S
C1705 N1713 1.427 . S
C1706 H1697 0.930 . S
C1706 C1704 1.378 . S
C1706 C1707 1.367 . S
C1707 C1706 1.367 . S
C1707 C1709 1.433 . S
C1708 C1704 1.350 . S
C1708 C1705 1.463 . S
C1708 N1712 1.427 . S
C1709 H1699 0.929 . S
C1709 C1707 1.433 . S
C1709 N1712 1.384 . S
C1710 H1701 0.929 . S
C1710 C1702 1.378 . S
C1710 C1705 1.350 . S
C1711 H1698 0.929 . S
C1711 C1703 1.433 . S
C1711 N1713 1.384 . S
N1712 C1708 1.427 . S
N1712 C1709 1.384 . S
N1713 C1705 1.427 . S
N1713 C1711 1.384 . S
H1714 C1720 0.930 . S
H1715 C1724 0.930 . S
H1716 C1729 0.929 . S
H1717 C1727 0.929 . S
H1718 C1722 0.929 . S
H1719 C1728 0.929 . S
C1720 H1714 0.930 . S
C1720 C1721 1.367 . S
C1720 C1728 1.378 . S
C1721 C1720 1.367 . S
C1721 C1729 1.433 . S
C1722 H1718 0.929 . S
C1722 C1724 1.378 . S
C1722 C1726 1.350 . S
C1723 C1726 1.463 . S
C1723 C1728 1.350 . S
C1723 N1731 1.427 . S
C1724 H1715 0.930 . S
C1724 C1722 1.378 . S
C1724 C1725 1.367 . S
C1725 C1724 1.367 . S
C1725 C1727 1.433 . S
C1726 C1722 1.350 . S
C1726 C1723 1.463 . S
C1726 N1730 1.427 . S
C1727 H1717 0.929 . S
C1727 C1725 1.433 . S
C1727 N1730 1.384 . S
C1728 H1719 0.929 . S
C1728 C1720 1.378 . S
C1728 C1723 1.350 . S
C1729 H1716 0.929 . S
C1729 C1721 1.433 . S
C1729 N1731 1.384 . S
N1730 C1726 1.427 . S
N1730 C1727 1.384 . S
N1731 C1723 1.427 . S
N1731 C1729 1.384 . S
H1732 C1738 0.930 . S
H1733 C1742 0.930 . S
H1734 C1747 0.929 . S
H1735 C1745 0.929 . S
H1736 C1740 0.929 . S
H1737 C1746 0.929 . S
C1738 H1732 0.930 . S
C1738 C1739 1.367 . S
C1738 C1746 1.378 . S
C1739 C1738 1.367 . S
C1739 C1747 1.433 . S
C1740 H1736 0.929 . S
C1740 C1742 1.378 . S
C1740 C1744 1.350 . S
C1741 C1744 1.463 . S
C1741 C1746 1.350 . S
C1741 N1749 1.427 . S
C1742 H1733 0.930 . S
C1742 C1740 1.378 . S
C1742 C1743 1.367 . S
C1743 C1742 1.367 . S
C1743 C1745 1.433 . S
C1744 C1740 1.350 . S
C1744 C1741 1.463 . S
C1744 N1748 1.427 . S
C1745 H1735 0.929 . S
C1745 C1743 1.433 . S
C1745 N1748 1.384 . S
C1746 H1737 0.929 . S
C1746 C1738 1.378 . S
C1746 C1741 1.350 . S
C1747 H1734 0.929 . S
C1747 C1739 1.433 . S
C1747 N1749 1.384 . S
N1748 C1744 1.427 . S
N1748 C1745 1.384 . S
N1749 C1741 1.427 . S
N1749 C1747 1.384 . S
H1750 C1756 0.930 . S
H1751 C1760 0.930 . S
H1752 C1765 0.929 . S
H1753 C1763 0.929 . S
H1754 C1758 0.929 . S
H1755 C1764 0.929 . S
C1756 H1750 0.930 . S
C1756 C1757 1.367 . S
C1756 C1764 1.378 . S
C1757 C1756 1.367 . S
C1757 C1765 1.433 . S
C1758 H1754 0.929 . S
C1758 C1760 1.378 . S
C1758 C1762 1.350 . S
C1759 C1762 1.463 . S
C1759 C1764 1.350 . S
C1759 N1767 1.427 . S
C1760 H1751 0.930 . S
C1760 C1758 1.378 . S
C1760 C1761 1.367 . S
C1761 C1760 1.367 . S
C1761 C1763 1.433 . S
C1762 C1758 1.350 . S
C1762 C1759 1.463 . S
C1762 N1766 1.427 . S
C1763 H1753 0.929 . S
C1763 C1761 1.433 . S
C1763 N1766 1.384 . S
C1764 H1755 0.929 . S
C1764 C1756 1.378 . S
C1764 C1759 1.350 . S
C1765 H1752 0.929 . S
C1765 C1757 1.433 . S
C1765 N1767 1.384 . S
N1766 C1762 1.427 . S
N1766 C1763 1.384 . S
N1767 C1759 1.427 . S
N1767 C1765 1.384 . S
H1768 C1774 0.930 . S
H1769 C1778 0.930 . S
H1770 C1783 0.929 . S
H1771 C1781 0.929 . S
H1772 C1776 0.929 . S
H1773 C1782 0.929 . S
C1774 H1768 0.930 . S
C1774 C1775 1.367 . S
C1774 C1782 1.378 . S
C1775 C1774 1.367 . S
C1775 C1783 1.433 . S
C1776 H1772 0.929 . S
C1776 C1778 1.378 . S
C1776 C1780 1.350 . S
C1777 C1780 1.463 . S
C1777 C1782 1.350 . S
C1777 N1785 1.427 . S
C1778 H1769 0.930 . S
C1778 C1776 1.378 . S
C1778 C1779 1.367 . S
C1779 C1778 1.367 . S
C1779 C1781 1.433 . S
C1780 C1776 1.350 . S
C1780 C1777 1.463 . S
C1780 N1784 1.427 . S
C1781 H1771 0.929 . S
C1781 C1779 1.433 . S
C1781 N1784 1.384 . S
C1782 H1773 0.929 . S
C1782 C1774 1.378 . S
C1782 C1777 1.350 . S
C1783 H1770 0.929 . S
C1783 C1775 1.433 . S
C1783 N1785 1.384 . S
N1784 C1780 1.427 . S
N1784 C1781 1.384 . S
N1785 C1777 1.427 . S
N1785 C1783 1.384 . S
H1786 C1792 0.930 . S
H1787 C1796 0.930 . S
H1788 C1801 0.929 . S
H1789 C1799 0.929 . S
H1790 C1794 0.929 . S
H1791 C1800 0.929 . S
C1792 H1786 0.930 . S
C1792 C1793 1.367 . S
C1792 C1800 1.378 . S
C1793 C1792 1.367 . S
C1793 C1801 1.433 . S
C1794 H1790 0.929 . S
C1794 C1796 1.378 . S
C1794 C1798 1.350 . S
C1795 C1798 1.463 . S
C1795 C1800 1.350 . S
C1795 N1803 1.427 . S
C1796 H1787 0.930 . S
C1796 C1794 1.378 . S
C1796 C1797 1.367 . S
C1797 C1796 1.367 . S
C1797 C1799 1.433 . S
C1798 C1794 1.350 . S
C1798 C1795 1.463 . S
C1798 N1802 1.427 . S
C1799 H1789 0.929 . S
C1799 C1797 1.433 . S
C1799 N1802 1.384 . S
C1800 H1791 0.929 . S
C1800 C1792 1.378 . S
C1800 C1795 1.350 . S
C1801 H1788 0.929 . S
C1801 C1793 1.433 . S
C1801 N1803 1.384 . S
N1802 C1798 1.427 . S
N1802 C1799 1.384 . S
N1803 C1795 1.427 . S
N1803 C1801 1.384 . S
H1804 C1810 0.930 . S
H1805 C1814 0.930 . S
H1806 C1819 0.929 . S
H1807 C1817 0.929 . S
H1808 C1812 0.929 . S
H1809 C1818 0.929 . S
C1810 H1804 0.930 . S
C1810 C1811 1.367 . S
C1810 C1818 1.378 . S
C1811 C1810 1.367 . S
C1811 C1819 1.433 . S
C1812 H1808 0.929 . S
C1812 C1814 1.378 . S
C1812 C1816 1.350 . S
C1813 C1816 1.463 . S
C1813 C1818 1.350 . S
C1813 N1821 1.427 . S
C1814 H1805 0.930 . S
C1814 C1812 1.378 . S
C1814 C1815 1.367 . S
C1815 C1814 1.367 . S
C1815 C1817 1.433 . S
C1816 C1812 1.350 . S
C1816 C1813 1.463 . S
C1816 N1820 1.427 . S
C1817 H1807 0.929 . S
C1817 C1815 1.433 . S
C1817 N1820 1.384 . S
C1818 H1809 0.929 . S
C1818 C1810 1.378 . S
C1818 C1813 1.350 . S
C1819 H1806 0.929 . S
C1819 C1811 1.433 . S
C1819 N1821 1.384 . S
N1820 C1816 1.427 . S
N1820 C1817 1.384 . S
N1821 C1813 1.427 . S
N1821 C1819 1.384 . S
H1822 C1828 0.930 . S
H1823 C1832 0.930 . S
H1824 C1837 0.929 . S
H1825 C1835 0.929 . S
H1826 C1830 0.929 . S
H1827 C1836 0.929 . S
C1828 H1822 0.930 . S
C1828 C1829 1.367 . S
C1828 C1836 1.378 . S
C1829 C1828 1.367 . S
C1829 C1837 1.433 . S
C1830 H1826 0.929 . S
C1830 C1832 1.378 . S
C1830 C1834 1.350 . S
C1831 C1834 1.463 . S
C1831 C1836 1.350 . S
C1831 N1839 1.427 . S
C1832 H1823 0.930 . S
C1832 C1830 1.378 . S
C1832 C1833 1.367 . S
C1833 C1832 1.367 . S
C1833 C1835 1.433 . S
C1834 C1830 1.350 . S
C1834 C1831 1.463 . S
C1834 N1838 1.427 . S
C1835 H1825 0.929 . S
C1835 C1833 1.433 . S
C1835 N1838 1.384 . S
C1836 H1827 0.929 . S
C1836 C1828 1.378 . S
C1836 C1831 1.350 . S
C1837 H1824 0.929 . S
C1837 C1829 1.433 . S
C1837 N1839 1.384 . S
N1838 C1834 1.427 . S
N1838 C1835 1.384 . S
N1839 C1831 1.427 . S
N1839 C1837 1.384 . S
H1840 C1846 0.930 . S
H1841 C1850 0.930 . S
H1842 C1855 0.929 . S
H1843 C1853 0.929 . S
H1844 C1848 0.929 . S
H1845 C1854 0.929 . S
C1846 H1840 0.930 . S
C1846 C1847 1.367 . S
C1846 C1854 1.378 . S
C1847 C1846 1.367 . S
C1847 C1855 1.433 . S
C1848 H1844 0.929 . S
C1848 C1850 1.378 . S
C1848 C1852 1.350 . S
C1849 C1852 1.463 . S
C1849 C1854 1.350 . S
C1849 N1857 1.427 . S
C1850 H1841 0.930 . S
C1850 C1848 1.378 . S
C1850 C1851 1.367 . S
C1851 C1850 1.367 . S
C1851 C1853 1.433 . S
C1852 C1848 1.350 . S
C1852 C1849 1.463 . S
C1852 N1856 1.427 . S
C1853 H1843 0.929 . S
C1853 C1851 1.433 . S
C1853 N1856 1.384 . S
C1854 H1845 0.929 . S
C1854 C1846 1.378 . S
C1854 C1849 1.350 . S
C1855 H1842 0.929 . S
C1855 C1847 1.433 . S
C1855 N1857 1.384 . S
N1856 C1852 1.427 . S
N1856 C1853 1.384 . S
N1857 C1849 1.427 . S
N1857 C1855 1.384 . S
H1858 C1864 0.930 . S
H1859 C1868 0.930 . S
H1860 C1873 0.929 . S
H1861 C1871 0.929 . S
H1862 C1866 0.929 . S
H1863 C1872 0.929 . S
C1864 H1858 0.930 . S
C1864 C1865 1.367 . S
C1864 C1872 1.378 . S
C1865 C1864 1.367 . S
C1865 C1873 1.433 . S
C1866 H1862 0.929 . S
C1866 C1868 1.378 . S
C1866 C1870 1.350 . S
C1867 C1870 1.463 . S
C1867 C1872 1.350 . S
C1867 N1875 1.427 . S
C1868 H1859 0.930 . S
C1868 C1866 1.378 . S
C1868 C1869 1.367 . S
C1869 C1868 1.367 . S
C1869 C1871 1.433 . S
C1870 C1866 1.350 . S
C1870 C1867 1.463 . S
C1870 N1874 1.427 . S
C1871 H1861 0.929 . S
C1871 C1869 1.433 . S
C1871 N1874 1.384 . S
C1872 H1863 0.929 . S
C1872 C1864 1.378 . S
C1872 C1867 1.350 . S
C1873 H1860 0.929 . S
C1873 C1865 1.433 . S
C1873 N1875 1.384 . S
N1874 C1870 1.427 . S
N1874 C1871 1.384 . S
N1875 C1867 1.427 . S
N1875 C1873 1.384 . S
H1876 C1882 0.930 . S
H1877 C1886 0.930 . S
H1878 C1891 0.929 . S
H1879 C1889 0.929 . S
H1880 C1884 0.929 1_655 S
H1881 C1890 0.929 . S
C1882 H1876 0.930 . S
C1882 C1883 1.367 . S
C1882 C1890 1.378 . S
C1883 C1882 1.367 . S
C1883 C1891 1.433 1_455 S
C1884 H1880 0.929 1_455 S
C1884 C1886 1.378 . S
C1884 C1888 1.355 . S
C1885 C1888 1.461 1_556 S
C1885 C1890 1.350 . S
C1885 N1893 1.428 1_455 S
C1886 H1877 0.930 . S
C1886 C1884 1.378 . S
C1886 C1887 1.367 . S
C1887 C1886 1.367 . S
C1887 C1889 1.433 1_554 S
C1888 C1884 1.355 . S
C1888 C1885 1.461 1_554 S
C1888 N1892 1.423 1_554 S
C1889 H1879 0.929 . S
C1889 C1887 1.433 1_556 S
C1889 N1892 1.384 . S
C1890 H1881 0.929 . S
C1890 C1882 1.378 . S
C1890 C1885 1.350 . S
C1891 H1878 0.929 . S
C1891 C1883 1.433 1_655 S
C1891 N1893 1.384 . S
N1892 C1888 1.423 1_556 S
N1892 C1889 1.384 . S
N1893 C1885 1.428 1_655 S
N1893 C1891 1.384 . S
H1894 C1900 0.930 . S
H1895 C1904 0.930 . S
H1896 C1909 0.929 . S
H1897 C1907 0.929 . S
H1898 C1902 0.929 . S
H1899 C1908 0.929 . S
C1900 H1894 0.930 . S
C1900 C1901 1.367 1_655 S
C1900 C1908 1.378 . S
C1901 C1900 1.367 1_455 S
C1901 C1909 1.433 . S
C1902 H1898 0.929 . S
C1902 C1904 1.378 . S
C1902 C1906 1.350 . S
C1903 C1906 1.463 . S
C1903 C1908 1.350 . S
C1903 N1911 1.427 . S
C1904 H1895 0.930 . S
C1904 C1902 1.378 . S
C1904 C1905 1.367 . S
C1905 C1904 1.367 . S
C1905 C1907 1.433 . S
C1906 C1902 1.350 . S
C1906 C1903 1.463 . S
C1906 N1910 1.427 . S
C1907 H1897 0.929 . S
C1907 C1905 1.433 . S
C1907 N1910 1.384 . S
C1908 H1899 0.929 . S
C1908 C1900 1.378 . S
C1908 C1903 1.350 . S
C1909 H1896 0.929 . S
C1909 C1901 1.433 . S
C1909 N1911 1.384 1_455 S
N1910 C1906 1.427 . S
N1910 C1907 1.384 . S
N1911 C1903 1.427 . S
N1911 C1909 1.384 1_655 S
H1912 C1918 0.930 . S
H1913 C1922 0.930 . S
H1914 C1927 0.929 . S
H1915 C1925 0.929 . S
H1916 C1920 0.929 . S
H1917 C1926 0.929 . S
C1918 H1912 0.930 . S
C1918 C1919 1.367 . S
C1918 C1926 1.378 . S
C1919 C1918 1.367 . S
C1919 C1927 1.433 . S
C1920 H1916 0.929 . S
C1920 C1922 1.378 . S
C1920 C1924 1.350 . S
C1921 C1924 1.463 . S
C1921 C1926 1.350 . S
C1921 N1929 1.427 . S
C1922 H1913 0.930 . S
C1922 C1920 1.378 . S
C1922 C1923 1.367 . S
C1923 C1922 1.367 . S
C1923 C1925 1.433 . S
C1924 C1920 1.350 . S
C1924 C1921 1.463 . S
C1924 N1928 1.427 . S
C1925 H1915 0.929 . S
C1925 C1923 1.433 . S
C1925 N1928 1.384 . S
C1926 H1917 0.929 . S
C1926 C1918 1.378 . S
C1926 C1921 1.350 . S
C1927 H1914 0.929 . S
C1927 C1919 1.433 . S
C1927 N1929 1.384 . S
N1928 C1924 1.427 . S
N1928 C1925 1.384 . S
N1929 C1921 1.427 . S
N1929 C1927 1.384 . S
H1930 C1936 0.930 . S
H1931 C1940 0.930 . S
H1932 C1945 0.929 . S
H1933 C1943 0.929 . S
H1934 C1938 0.929 . S
H1935 C1944 0.929 . S
C1936 H1930 0.930 . S
C1936 C1937 1.367 . S
C1936 C1944 1.378 1_455 S
C1937 C1936 1.367 . S
C1937 C1945 1.433 1_455 S
C1938 H1934 0.929 . S
C1938 C1940 1.378 . S
C1938 C1942 1.350 . S
C1939 C1942 1.463 . S
C1939 C1944 1.350 . S
C1939 N1947 1.427 . S
C1940 H1931 0.930 . S
C1940 C1938 1.378 . S
C1940 C1941 1.367 . S
C1941 C1940 1.367 . S
C1941 C1943 1.433 . S
C1942 C1938 1.350 . S
C1942 C1939 1.463 . S
C1942 N1946 1.427 . S
C1943 H1933 0.929 . S
C1943 C1941 1.433 . S
C1943 N1946 1.384 . S
C1944 H1935 0.929 . S
C1944 C1936 1.378 1_655 S
C1944 C1939 1.350 . S
C1945 H1932 0.929 . S
C1945 C1937 1.433 1_655 S
C1945 N1947 1.384 . S
N1946 C1942 1.427 . S
N1946 C1943 1.384 . S
N1947 C1939 1.427 . S
N1947 C1945 1.384 . S
H1948 C1954 0.930 . S
H1949 C1958 0.930 . S
H1950 C1963 0.929 . S
H1951 C1961 0.929 . S
H1952 C1956 0.931 . S
H1953 C1962 0.929 . S
C1954 H1948 0.930 . S
C1954 C1955 1.367 1_455 S
C1954 C1962 1.378 . S
C1955 C1954 1.367 1_655 S
C1955 C1963 1.433 . S
C1956 H1952 0.931 . S
C1956 C1958 1.378 . S
C1956 C1960 1.350 . S
C1957 C1960 1.463 . S
C1957 C1962 1.350 . S
C1957 N1965 1.427 1_455 S
C1958 H1949 0.930 . S
C1958 C1956 1.378 . S
C1958 C1959 1.367 . S
C1959 C1958 1.367 . S
C1959 C1961 1.433 . S
C1960 C1956 1.350 . S
C1960 C1957 1.463 . S
C1960 N1964 1.427 . S
C1961 H1951 0.929 . S
C1961 C1959 1.433 . S
C1961 N1964 1.384 . S
C1962 H1953 0.929 . S
C1962 C1954 1.378 . S
C1962 C1957 1.350 . S
C1963 H1950 0.929 . S
C1963 C1955 1.433 . S
C1963 N1965 1.384 . S
N1964 C1960 1.427 . S
N1964 C1961 1.384 . S
N1965 C1957 1.427 1_655 S
N1965 C1963 1.384 . S
H1966 C1972 0.930 . S
H1967 C1976 0.930 . S
H1968 C1981 0.929 . S
H1969 C1979 0.929 . S
H1970 C1974 0.929 . S
H1971 C1980 0.929 . S
C1972 H1966 0.930 . S
C1972 C1973 1.367 . S
C1972 C1980 1.378 . S
C1973 C1972 1.367 . S
C1973 C1981 1.433 . S
C1974 H1970 0.929 . S
C1974 C1976 1.378 . S
C1974 C1978 1.350 . S
C1975 C1978 1.463 . S
C1975 C1980 1.350 . S
C1975 N1983 1.427 . S
C1976 H1967 0.930 . S
C1976 C1974 1.378 . S
C1976 C1977 1.367 . S
C1977 C1976 1.367 . S
C1977 C1979 1.433 . S
C1978 C1974 1.350 . S
C1978 C1975 1.463 . S
C1978 N1982 1.427 . S
C1979 H1969 0.929 . S
C1979 C1977 1.433 . S
C1979 N1982 1.384 . S
C1980 H1971 0.929 . S
C1980 C1972 1.378 . S
C1980 C1975 1.350 . S
C1981 H1968 0.929 . S
C1981 C1973 1.433 . S
C1981 N1983 1.384 . S
N1982 C1978 1.427 . S
N1982 C1979 1.384 . S
N1983 C1975 1.427 . S
N1983 C1981 1.384 . S
H1984 C1990 0.930 . S
H1985 C1994 0.930 . S
H1986 C1999 0.929 . S
H1987 C1997 0.929 . S
H1988 C1992 0.929 . S
H1989 C1998 0.929 . S
C1990 H1984 0.930 . S
C1990 C1991 1.367 . S
C1990 C1998 1.378 . S
C1991 C1990 1.367 . S
C1991 C1999 1.433 . S
C1992 H1988 0.929 . S
C1992 C1994 1.378 . S
C1992 C1996 1.350 . S
C1993 C1996 1.463 . S
C1993 C1998 1.350 . S
C1993 N2001 1.427 . S
C1994 H1985 0.930 . S
C1994 C1992 1.378 . S
C1994 C1995 1.367 . S
C1995 C1994 1.367 . S
C1995 C1997 1.433 . S
C1996 C1992 1.350 . S
C1996 C1993 1.463 . S
C1996 N2000 1.427 . S
C1997 H1987 0.929 . S
C1997 C1995 1.433 . S
C1997 N2000 1.384 . S
C1998 H1989 0.929 . S
C1998 C1990 1.378 . S
C1998 C1993 1.350 . S
C1999 H1986 0.929 . S
C1999 C1991 1.433 . S
C1999 N2001 1.384 . S
N2000 C1996 1.427 . S
N2000 C1997 1.384 . S
N2001 C1993 1.427 . S
N2001 C1999 1.384 . S
H2002 C2008 0.930 . S
H2003 C2012 0.930 . S
H2004 C2017 0.929 . S
H2005 C2015 0.929 . S
H2006 C2010 0.929 . S
H2007 C2016 0.929 . S
C2008 H2002 0.930 . S
C2008 C2009 1.367 . S
C2008 C2016 1.378 . S
C2009 C2008 1.367 . S
C2009 C2017 1.433 . S
C2010 H2006 0.929 . S
C2010 C2012 1.378 . S
C2010 C2014 1.350 . S
C2011 C2014 1.463 1_554 S
C2011 C2016 1.350 . S
C2011 N2019 1.427 . S
C2012 H2003 0.930 . S
C2012 C2010 1.378 . S
C2012 C2013 1.367 . S
C2013 C2012 1.367 . S
C2013 C2015 1.433 . S
C2014 C2010 1.350 . S
C2014 C2011 1.463 1_556 S
C2014 N2018 1.427 . S
C2015 H2005 0.929 . S
C2015 C2013 1.433 . S
C2015 N2018 1.384 . S
C2016 H2007 0.929 . S
C2016 C2008 1.378 . S
C2016 C2011 1.350 . S
C2017 H2004 0.929 . S
C2017 C2009 1.433 . S
C2017 N2019 1.384 . S
N2018 C2014 1.427 . S
N2018 C2015 1.384 . S
N2019 C2011 1.427 . S
N2019 C2017 1.384 . S
H2020 C2026 0.930 . S
H2021 C2030 0.930 . S
H2022 C2035 0.929 . S
H2023 C2033 0.929 . S
H2024 C2028 0.929 . S
H2025 C2034 0.929 . S
C2026 H2020 0.930 . S
C2026 C2027 1.367 . S
C2026 C2034 1.378 . S
C2027 C2026 1.367 . S
C2027 C2035 1.433 . S
C2028 H2024 0.929 . S
C2028 C2030 1.378 . S
C2028 C2032 1.350 . S
C2029 C2032 1.463 . S
C2029 C2034 1.350 . S
C2029 N2037 1.427 . S
C2030 H2021 0.930 . S
C2030 C2028 1.378 . S
C2030 C2031 1.367 . S
C2031 C2030 1.367 . S
C2031 C2033 1.433 . S
C2032 C2028 1.350 . S
C2032 C2029 1.463 . S
C2032 N2036 1.427 . S
C2033 H2023 0.929 . S
C2033 C2031 1.433 . S
C2033 N2036 1.384 . S
C2034 H2025 0.929 . S
C2034 C2026 1.378 . S
C2034 C2029 1.350 . S
C2035 H2022 0.929 . S
C2035 C2027 1.433 . S
C2035 N2037 1.384 . S
N2036 C2032 1.427 . S
N2036 C2033 1.384 . S
N2037 C2029 1.427 . S
N2037 C2035 1.384 . S
H2038 C2044 0.930 . S
H2039 C2048 0.930 . S
H2040 C2053 0.929 . S
H2041 C2051 0.929 . S
H2042 C2046 0.929 . S
H2043 C2052 0.929 . S
C2044 H2038 0.930 . S
C2044 C2045 1.367 . S
C2044 C2052 1.378 . S
C2045 C2044 1.367 . S
C2045 C2053 1.433 . S
C2046 H2042 0.929 . S
C2046 C2048 1.378 . S
C2046 C2050 1.350 . S
C2047 C2050 1.463 . S
C2047 C2052 1.350 . S
C2047 N2055 1.427 . S
C2048 H2039 0.930 . S
C2048 C2046 1.378 . S
C2048 C2049 1.367 . S
C2049 C2048 1.367 . S
C2049 C2051 1.433 . S
C2050 C2046 1.350 . S
C2050 C2047 1.463 . S
C2050 N2054 1.427 . S
C2051 H2041 0.929 . S
C2051 C2049 1.433 . S
C2051 N2054 1.384 . S
C2052 H2043 0.929 . S
C2052 C2044 1.378 . S
C2052 C2047 1.350 . S
C2053 H2040 0.929 . S
C2053 C2045 1.433 . S
C2053 N2055 1.384 . S
N2054 C2050 1.427 . S
N2054 C2051 1.384 . S
N2055 C2047 1.427 . S
N2055 C2053 1.384 . S
H2056 C2062 0.930 . S
H2057 C2066 0.930 . S
H2058 C2071 0.929 . S
H2059 C2069 0.929 . S
H2060 C2064 0.929 . S
H2061 C2070 0.929 . S
C2062 H2056 0.930 . S
C2062 C2063 1.367 . S
C2062 C2070 1.378 . S
C2063 C2062 1.367 . S
C2063 C2071 1.433 . S
C2064 H2060 0.929 . S
C2064 C2066 1.378 . S
C2064 C2068 1.350 . S
C2065 C2068 1.463 . S
C2065 C2070 1.350 . S
C2065 N2073 1.427 . S
C2066 H2057 0.930 . S
C2066 C2064 1.378 . S
C2066 C2067 1.367 . S
C2067 C2066 1.367 . S
C2067 C2069 1.433 . S
C2068 C2064 1.350 . S
C2068 C2065 1.463 . S
C2068 N2072 1.427 . S
C2069 H2059 0.929 . S
C2069 C2067 1.433 . S
C2069 N2072 1.384 . S
C2070 H2061 0.929 . S
C2070 C2062 1.378 . S
C2070 C2065 1.350 . S
C2071 H2058 0.929 . S
C2071 C2063 1.433 . S
C2071 N2073 1.384 . S
N2072 C2068 1.427 . S
N2072 C2069 1.384 . S
N2073 C2065 1.427 . S
N2073 C2071 1.384 . S
H2074 C2080 0.930 . S
H2075 C2084 0.930 . S
H2076 C2089 0.929 . S
H2077 C2087 0.929 . S
H2078 C2082 0.929 . S
H2079 C2088 0.929 . S
C2080 H2074 0.930 . S
C2080 C2081 1.367 . S
C2080 C2088 1.378 . S
C2081 C2080 1.367 . S
C2081 C2089 1.433 . S
C2082 H2078 0.929 . S
C2082 C2084 1.378 . S
C2082 C2086 1.350 . S
C2083 C2086 1.463 . S
C2083 C2088 1.350 . S
C2083 N2091 1.427 . S
C2084 H2075 0.930 . S
C2084 C2082 1.378 . S
C2084 C2085 1.367 . S
C2085 C2084 1.367 . S
C2085 C2087 1.433 . S
C2086 C2082 1.350 . S
C2086 C2083 1.463 . S
C2086 N2090 1.427 . S
C2087 H2077 0.929 . S
C2087 C2085 1.433 . S
C2087 N2090 1.384 . S
C2088 H2079 0.929 . S
C2088 C2080 1.378 . S
C2088 C2083 1.350 . S
C2089 H2076 0.929 . S
C2089 C2081 1.433 . S
C2089 N2091 1.384 . S
N2090 C2086 1.427 . S
N2090 C2087 1.384 . S
N2091 C2083 1.427 . S
N2091 C2089 1.384 . S
H2092 C2098 0.930 . S
H2093 C2102 0.930 . S
H2094 C2107 0.929 . S
H2095 C2105 0.929 . S
H2096 C2100 0.929 . S
H2097 C2106 0.929 . S
C2098 H2092 0.930 . S
C2098 C2099 1.367 . S
C2098 C2106 1.378 . S
C2099 C2098 1.367 . S
C2099 C2107 1.433 . S
C2100 H2096 0.929 . S
C2100 C2102 1.378 . S
C2100 C2104 1.350 . S
C2101 C2104 1.463 . S
C2101 C2106 1.350 . S
C2101 N2109 1.427 . S
C2102 H2093 0.930 . S
C2102 C2100 1.378 . S
C2102 C2103 1.367 . S
C2103 C2102 1.367 . S
C2103 C2105 1.433 . S
C2104 C2100 1.350 . S
C2104 C2101 1.463 . S
C2104 N2108 1.427 . S
C2105 H2095 0.929 . S
C2105 C2103 1.433 . S
C2105 N2108 1.384 . S
C2106 H2097 0.929 . S
C2106 C2098 1.378 . S
C2106 C2101 1.350 . S
C2107 H2094 0.929 . S
C2107 C2099 1.433 . S
C2107 N2109 1.384 . S
N2108 C2104 1.427 . S
N2108 C2105 1.384 . S
N2109 C2101 1.427 . S
N2109 C2107 1.384 . S
H2110 C2116 0.930 . S
H2111 C2120 0.930 . S
H2112 C2125 0.929 . S
H2113 C2123 0.929 . S
H2114 C2118 0.929 . S
H2115 C2124 0.929 . S
C2116 H2110 0.930 . S
C2116 C2117 1.367 . S
C2116 C2124 1.378 . S
C2117 C2116 1.367 . S
C2117 C2125 1.433 . S
C2118 H2114 0.929 . S
C2118 C2120 1.378 . S
C2118 C2122 1.350 . S
C2119 C2122 1.463 . S
C2119 C2124 1.350 . S
C2119 N2127 1.427 . S
C2120 H2111 0.930 . S
C2120 C2118 1.378 . S
C2120 C2121 1.367 . S
C2121 C2120 1.367 . S
C2121 C2123 1.433 . S
C2122 C2118 1.350 . S
C2122 C2119 1.463 . S
C2122 N2126 1.427 . S
C2123 H2113 0.929 . S
C2123 C2121 1.433 . S
C2123 N2126 1.384 . S
C2124 H2115 0.929 . S
C2124 C2116 1.378 . S
C2124 C2119 1.350 . S
C2125 H2112 0.929 . S
C2125 C2117 1.433 . S
C2125 N2127 1.384 . S
N2126 C2122 1.427 . S
N2126 C2123 1.384 . S
N2127 C2119 1.427 . S
N2127 C2125 1.384 . S
H2128 C2134 0.930 . S
H2129 C2138 0.930 . S
H2130 C2143 0.929 . S
H2131 C2141 0.929 . S
H2132 C2136 0.929 . S
H2133 C2142 0.929 . S
C2134 H2128 0.930 . S
C2134 C2135 1.367 . S
C2134 C2142 1.378 . S
C2135 C2134 1.367 . S
C2135 C2143 1.433 . S
C2136 H2132 0.929 . S
C2136 C2138 1.378 . S
C2136 C2140 1.350 . S
C2137 C2140 1.463 . S
C2137 C2142 1.350 . S
C2137 N2145 1.427 . S
C2138 H2129 0.930 . S
C2138 C2136 1.378 . S
C2138 C2139 1.367 . S
C2139 C2138 1.367 . S
C2139 C2141 1.433 . S
C2140 C2136 1.350 . S
C2140 C2137 1.463 . S
C2140 N2144 1.427 . S
C2141 H2131 0.929 . S
C2141 C2139 1.433 . S
C2141 N2144 1.384 . S
C2142 H2133 0.929 . S
C2142 C2134 1.378 . S
C2142 C2137 1.350 . S
C2143 H2130 0.929 . S
C2143 C2135 1.433 . S
C2143 N2145 1.384 . S
N2144 C2140 1.427 . S
N2144 C2141 1.384 . S
N2145 C2137 1.427 . S
N2145 C2143 1.384 . S
H2146 C2152 0.930 . S
H2147 C2156 0.930 . S
H2148 C2161 0.929 . S
H2149 C2159 0.929 . S
H2150 C2154 0.929 . S
H2151 C2160 0.929 . S
C2152 H2146 0.930 . S
C2152 C2153 1.367 . S
C2152 C2160 1.378 . S
C2153 C2152 1.367 . S
C2153 C2161 1.433 . S
C2154 H2150 0.929 . S
C2154 C2156 1.378 . S
C2154 C2158 1.350 . S
C2155 C2158 1.463 . S
C2155 C2160 1.350 . S
C2155 N2163 1.427 . S
C2156 H2147 0.930 . S
C2156 C2154 1.378 . S
C2156 C2157 1.367 . S
C2157 C2156 1.367 . S
C2157 C2159 1.433 . S
C2158 C2154 1.350 . S
C2158 C2155 1.463 . S
C2158 N2162 1.427 . S
C2159 H2149 0.929 . S
C2159 C2157 1.433 . S
C2159 N2162 1.384 . S
C2160 H2151 0.929 . S
C2160 C2152 1.378 . S
C2160 C2155 1.350 . S
C2161 H2148 0.929 . S
C2161 C2153 1.433 . S
C2161 N2163 1.384 . S
N2162 C2158 1.427 . S
N2162 C2159 1.384 . S
N2163 C2155 1.427 . S
N2163 C2161 1.384 . S
H2164 C2170 0.930 . S
H2165 C2174 0.930 . S
H2166 C2179 0.929 . S
H2167 C2177 0.929 . S
H2168 C2172 0.929 . S
H2169 C2178 0.929 . S
C2170 H2164 0.930 . S
C2170 C2171 1.367 . S
C2170 C2178 1.378 . S
C2171 C2170 1.367 . S
C2171 C2179 1.433 . S
C2172 H2168 0.929 . S
C2172 C2174 1.378 . S
C2172 C2176 1.350 . S
C2173 C2176 1.463 . S
C2173 C2178 1.350 . S
C2173 N2181 1.427 . S
C2174 H2165 0.930 . S
C2174 C2172 1.378 . S
C2174 C2175 1.367 . S
C2175 C2174 1.367 . S
C2175 C2177 1.433 . S
C2176 C2172 1.350 . S
C2176 C2173 1.463 . S
C2176 N2180 1.427 . S
C2177 H2167 0.929 . S
C2177 C2175 1.433 . S
C2177 N2180 1.384 . S
C2178 H2169 0.929 . S
C2178 C2170 1.378 . S
C2178 C2173 1.350 . S
C2179 H2166 0.929 . S
C2179 C2171 1.433 . S
C2179 N2181 1.384 . S
N2180 C2176 1.427 . S
N2180 C2177 1.384 . S
N2181 C2173 1.427 . S
N2181 C2179 1.384 . S
H2182 C2188 0.930 . S
H2183 C2192 0.930 . S
H2184 C2197 0.929 . S
H2185 C2195 0.929 . S
H2186 C2190 0.929 . S
H2187 C2196 0.929 . S
C2188 H2182 0.930 . S
C2188 C2189 1.367 1_556 S
C2188 C2196 1.378 . S
C2189 C2188 1.367 1_554 S
C2189 C2197 1.433 . S
C2190 H2186 0.929 . S
C2190 C2192 1.378 . S
C2190 C2194 1.350 . S
C2191 C2194 1.463 . S
C2191 C2196 1.350 1_554 S
C2191 N2199 1.427 . S
C2192 H2183 0.930 . S
C2192 C2190 1.378 . S
C2192 C2193 1.367 . S
C2193 C2192 1.367 . S
C2193 C2195 1.433 1_554 S
C2194 C2190 1.350 . S
C2194 C2191 1.463 . S
C2194 N2198 1.427 1_554 S
C2195 H2185 0.929 . S
C2195 C2193 1.433 1_556 S
C2195 N2198 1.384 . S
C2196 H2187 0.929 . S
C2196 C2188 1.378 . S
C2196 C2191 1.350 1_556 S
C2197 H2184 0.929 . S
C2197 C2189 1.433 . S
C2197 N2199 1.384 . S
N2198 C2194 1.427 1_556 S
N2198 C2195 1.384 . S
N2199 C2191 1.427 . S
N2199 C2197 1.384 . S
H2200 C2206 0.930 . S
H2201 C2210 0.930 . S
H2202 C2215 0.929 . S
H2203 C2213 0.929 . S
H2204 C2208 0.929 . S
H2205 C2214 0.929 . S
C2206 H2200 0.930 . S
C2206 C2207 1.367 . S
C2206 C2214 1.378 . S
C2207 C2206 1.367 . S
C2207 C2215 1.433 . S
C2208 H2204 0.929 . S
C2208 C2210 1.378 . S
C2208 C2212 1.350 . S
C2209 C2212 1.463 . S
C2209 C2214 1.350 . S
C2209 N2217 1.427 . S
C2210 H2201 0.930 . S
C2210 C2208 1.378 . S
C2210 C2211 1.367 . S
C2211 C2210 1.367 . S
C2211 C2213 1.433 . S
C2212 C2208 1.350 . S
C2212 C2209 1.463 . S
C2212 N2216 1.427 . S
C2213 H2203 0.929 . S
C2213 C2211 1.433 . S
C2213 N2216 1.384 . S
C2214 H2205 0.929 . S
C2214 C2206 1.378 . S
C2214 C2209 1.350 . S
C2215 H2202 0.929 . S
C2215 C2207 1.433 . S
C2215 N2217 1.384 . S
N2216 C2212 1.427 . S
N2216 C2213 1.384 . S
N2217 C2209 1.427 . S
N2217 C2215 1.384 . S
H2218 C2224 0.930 . S
H2219 C2228 0.930 . S
H2220 C2233 0.929 . S
H2221 C2231 0.929 . S
H2222 C2226 0.929 . S
H2223 C2232 0.929 . S
C2224 H2218 0.930 . S
C2224 C2225 1.367 . S
C2224 C2232 1.378 . S
C2225 C2224 1.367 . S
C2225 C2233 1.433 . S
C2226 H2222 0.929 . S
C2226 C2228 1.378 . S
C2226 C2230 1.350 . S
C2227 C2230 1.463 . S
C2227 C2232 1.350 . S
C2227 N2235 1.427 . S
C2228 H2219 0.930 . S
C2228 C2226 1.378 . S
C2228 C2229 1.367 . S
C2229 C2228 1.367 . S
C2229 C2231 1.433 . S
C2230 C2226 1.350 . S
C2230 C2227 1.463 . S
C2230 N2234 1.427 . S
C2231 H2221 0.929 . S
C2231 C2229 1.433 . S
C2231 N2234 1.384 . S
C2232 H2223 0.929 . S
C2232 C2224 1.378 . S
C2232 C2227 1.350 . S
C2233 H2220 0.929 . S
C2233 C2225 1.433 . S
C2233 N2235 1.384 . S
N2234 C2230 1.427 . S
N2234 C2231 1.384 . S
N2235 C2227 1.427 . S
N2235 C2233 1.384 . S
H2236 C2242 0.930 . S
H2237 C2246 0.930 . S
H2238 C2251 0.929 . S
H2239 C2249 0.929 . S
H2240 C2244 0.929 . S
H2241 C2250 0.929 . S
C2242 H2236 0.930 . S
C2242 C2243 1.367 . S
C2242 C2250 1.378 . S
C2243 C2242 1.367 . S
C2243 C2251 1.433 . S
C2244 H2240 0.929 . S
C2244 C2246 1.378 . S
C2244 C2248 1.350 . S
C2245 C2248 1.463 . S
C2245 C2250 1.350 . S
C2245 N2253 1.427 . S
C2246 H2237 0.930 . S
C2246 C2244 1.378 . S
C2246 C2247 1.367 . S
C2247 C2246 1.367 . S
C2247 C2249 1.433 . S
C2248 C2244 1.350 . S
C2248 C2245 1.463 . S
C2248 N2252 1.427 . S
C2249 H2239 0.929 . S
C2249 C2247 1.433 . S
C2249 N2252 1.384 . S
C2250 H2241 0.929 . S
C2250 C2242 1.378 . S
C2250 C2245 1.350 . S
C2251 H2238 0.929 . S
C2251 C2243 1.433 . S
C2251 N2253 1.384 . S
N2252 C2248 1.427 . S
N2252 C2249 1.384 . S
N2253 C2245 1.427 . S
N2253 C2251 1.384 . S
H2254 C2260 0.930 . S
H2255 C2264 0.930 . S
H2256 C2269 0.929 . S
H2257 C2267 0.929 . S
H2258 C2262 0.929 . S
H2259 C2268 0.929 . S
C2260 H2254 0.930 . S
C2260 C2261 1.367 . S
C2260 C2268 1.378 . S
C2261 C2260 1.367 . S
C2261 C2269 1.433 . S
C2262 H2258 0.929 . S
C2262 C2264 1.378 . S
C2262 C2266 1.350 . S
C2263 C2266 1.463 . S
C2263 C2268 1.350 . S
C2263 N2271 1.427 . S
C2264 H2255 0.930 . S
C2264 C2262 1.378 . S
C2264 C2265 1.367 . S
C2265 C2264 1.367 . S
C2265 C2267 1.433 . S
C2266 C2262 1.350 . S
C2266 C2263 1.463 . S
C2266 N2270 1.427 . S
C2267 H2257 0.929 . S
C2267 C2265 1.433 . S
C2267 N2270 1.384 . S
C2268 H2259 0.929 . S
C2268 C2260 1.378 . S
C2268 C2263 1.350 . S
C2269 H2256 0.929 . S
C2269 C2261 1.433 . S
C2269 N2271 1.384 . S
N2270 C2266 1.427 . S
N2270 C2267 1.384 . S
N2271 C2263 1.427 . S
N2271 C2269 1.384 . S
H2272 C2278 0.930 . S
H2273 C2282 0.930 . S
H2274 C2287 0.929 . S
H2275 C2285 0.929 . S
H2276 C2280 0.929 . S
H2277 C2286 0.929 . S
C2278 H2272 0.930 . S
C2278 C2279 1.367 . S
C2278 C2286 1.378 . S
C2279 C2278 1.367 . S
C2279 C2287 1.433 . S
C2280 H2276 0.929 . S
C2280 C2282 1.378 . S
C2280 C2284 1.350 . S
C2281 C2284 1.463 . S
C2281 C2286 1.350 . S
C2281 N2289 1.427 . S
C2282 H2273 0.930 . S
C2282 C2280 1.378 . S
C2282 C2283 1.367 . S
C2283 C2282 1.367 . S
C2283 C2285 1.433 . S
C2284 C2280 1.350 . S
C2284 C2281 1.463 . S
C2284 N2288 1.427 . S
C2285 H2275 0.929 . S
C2285 C2283 1.433 . S
C2285 N2288 1.384 . S
C2286 H2277 0.929 . S
C2286 C2278 1.378 . S
C2286 C2281 1.350 . S
C2287 H2274 0.929 . S
C2287 C2279 1.433 . S
C2287 N2289 1.384 . S
N2288 C2284 1.427 . S
N2288 C2285 1.384 . S
N2289 C2281 1.427 . S
N2289 C2287 1.384 . S
H2290 C2296 0.930 . S
H2291 C2300 0.930 . S
H2292 C2305 0.929 . S
H2293 C2303 0.929 . S
H2294 C2298 0.929 . S
H2295 C2304 0.929 . S
C2296 H2290 0.930 . S
C2296 C2297 1.367 . S
C2296 C2304 1.378 . S
C2297 C2296 1.367 . S
C2297 C2305 1.433 . S
C2298 H2294 0.929 . S
C2298 C2300 1.378 . S
C2298 C2302 1.350 . S
C2299 C2302 1.463 . S
C2299 C2304 1.350 . S
C2299 N2307 1.427 . S
C2300 H2291 0.930 . S
C2300 C2298 1.378 . S
C2300 C2301 1.367 . S
C2301 C2300 1.367 . S
C2301 C2303 1.433 . S
C2302 C2298 1.350 . S
C2302 C2299 1.463 . S
C2302 N2306 1.427 . S
C2303 H2293 0.929 . S
C2303 C2301 1.433 . S
C2303 N2306 1.384 . S
C2304 H2295 0.929 . S
C2304 C2296 1.378 . S
C2304 C2299 1.350 . S
C2305 H2292 0.929 . S
C2305 C2297 1.433 . S
C2305 N2307 1.384 . S
N2306 C2302 1.427 . S
N2306 C2303 1.384 . S
N2307 C2299 1.427 . S
N2307 C2305 1.384 . S
H2308 C2314 0.930 . S
H2309 C2318 0.930 . S
H2310 C2323 0.929 . S
H2311 C2321 0.929 . S
H2312 C2316 0.929 . S
H2313 C2322 0.929 . S
C2314 H2308 0.930 . S
C2314 C2315 1.367 . S
C2314 C2322 1.378 . S
C2315 C2314 1.367 . S
C2315 C2323 1.433 . S
C2316 H2312 0.929 . S
C2316 C2318 1.378 . S
C2316 C2320 1.350 . S
C2317 C2320 1.463 . S
C2317 C2322 1.350 . S
C2317 N2325 1.427 . S
C2318 H2309 0.930 . S
C2318 C2316 1.378 . S
C2318 C2319 1.367 . S
C2319 C2318 1.367 . S
C2319 C2321 1.433 . S
C2320 C2316 1.350 . S
C2320 C2317 1.463 . S
C2320 N2324 1.427 . S
C2321 H2311 0.929 . S
C2321 C2319 1.433 . S
C2321 N2324 1.384 . S
C2322 H2313 0.929 . S
C2322 C2314 1.378 . S
C2322 C2317 1.350 . S
C2323 H2310 0.929 . S
C2323 C2315 1.433 . S
C2323 N2325 1.384 . S
N2324 C2320 1.427 . S
N2324 C2321 1.384 . S
N2325 C2317 1.427 . S
N2325 C2323 1.384 . S
H2326 C2332 0.930 . S
H2327 C2336 0.930 . S
H2328 C2341 0.929 . S
H2329 C2339 0.929 . S
H2330 C2334 0.929 . S
H2331 C2340 0.929 . S
C2332 H2326 0.930 . S
C2332 C2333 1.367 . S
C2332 C2340 1.378 . S
C2333 C2332 1.367 . S
C2333 C2341 1.433 . S
C2334 H2330 0.929 . S
C2334 C2336 1.378 . S
C2334 C2338 1.350 . S
C2335 C2338 1.463 . S
C2335 C2340 1.350 . S
C2335 N2343 1.427 . S
C2336 H2327 0.930 . S
C2336 C2334 1.378 . S
C2336 C2337 1.367 . S
C2337 C2336 1.367 . S
C2337 C2339 1.433 . S
C2338 C2334 1.350 . S
C2338 C2335 1.463 . S
C2338 N2342 1.427 . S
C2339 H2329 0.929 . S
C2339 C2337 1.433 . S
C2339 N2342 1.384 . S
C2340 H2331 0.929 . S
C2340 C2332 1.378 . S
C2340 C2335 1.350 . S
C2341 H2328 0.929 . S
C2341 C2333 1.433 . S
C2341 N2343 1.384 . S
N2342 C2338 1.427 . S
N2342 C2339 1.384 . S
N2343 C2335 1.427 . S
N2343 C2341 1.384 . S
H2344 C2350 0.930 . S
H2345 C2354 0.930 . S
H2346 C2359 0.929 . S
H2347 C2357 0.929 . S
H2348 C2352 0.929 . S
H2349 C2358 0.929 . S
C2350 H2344 0.930 . S
C2350 C2351 1.367 . S
C2350 C2358 1.378 . S
C2351 C2350 1.367 . S
C2351 C2359 1.433 . S
C2352 H2348 0.929 . S
C2352 C2354 1.377 1_556 S
C2352 C2356 1.350 . S
C2353 C2356 1.463 . S
C2353 C2358 1.350 . S
C2353 N2361 1.427 . S
C2354 H2345 0.930 . S
C2354 C2352 1.377 1_554 S
C2354 C2355 1.367 . S
C2355 C2354 1.367 . S
C2355 C2357 1.433 . S
C2356 C2352 1.350 . S
C2356 C2353 1.463 . S
C2356 N2360 1.427 1_556 S
C2357 H2347 0.929 . S
C2357 C2355 1.433 . S
C2357 N2360 1.385 . S
C2358 H2349 0.929 . S
C2358 C2350 1.378 . S
C2358 C2353 1.350 . S
C2359 H2346 0.929 . S
C2359 C2351 1.433 . S
C2359 N2361 1.384 . S
N2360 C2356 1.427 1_554 S
N2360 C2357 1.385 . S
N2361 C2353 1.427 . S
N2361 C2359 1.384 . S
H2362 C2368 0.930 . S
H2363 C2372 0.930 . S
H2364 C2377 0.929 . S
H2365 C2375 0.929 . S
H2366 C2370 0.929 . S
H2367 C2376 0.929 . S
C2368 H2362 0.930 . S
C2368 C2369 1.367 . S
C2368 C2376 1.378 . S
C2369 C2368 1.367 . S
C2369 C2377 1.433 . S
C2370 H2366 0.929 . S
C2370 C2372 1.378 . S
C2370 C2374 1.350 . S
C2371 C2374 1.463 . S
C2371 C2376 1.350 . S
C2371 N2379 1.427 . S
C2372 H2363 0.930 . S
C2372 C2370 1.378 . S
C2372 C2373 1.367 . S
C2373 C2372 1.367 . S
C2373 C2375 1.433 . S
C2374 C2370 1.350 . S
C2374 C2371 1.463 . S
C2374 N2378 1.427 . S
C2375 H2365 0.929 . S
C2375 C2373 1.433 . S
C2375 N2378 1.384 . S
C2376 H2367 0.929 . S
C2376 C2368 1.378 . S
C2376 C2371 1.350 . S
C2377 H2364 0.929 . S
C2377 C2369 1.433 . S
C2377 N2379 1.384 . S
N2378 C2374 1.427 . S
N2378 C2375 1.384 . S
N2379 C2371 1.427 . S
N2379 C2377 1.384 . S
H2380 C2386 0.930 . S
H2381 C2390 0.930 . S
H2382 C2395 0.929 . S
H2383 C2393 0.929 . S
H2384 C2388 0.929 . S
H2385 C2394 0.929 . S
C2386 H2380 0.930 . S
C2386 C2387 1.367 . S
C2386 C2394 1.378 . S
C2387 C2386 1.367 . S
C2387 C2395 1.433 . S
C2388 H2384 0.929 . S
C2388 C2390 1.378 . S
C2388 C2392 1.350 . S
C2389 C2392 1.463 . S
C2389 C2394 1.350 . S
C2389 N2397 1.427 . S
C2390 H2381 0.930 . S
C2390 C2388 1.378 . S
C2390 C2391 1.367 . S
C2391 C2390 1.367 . S
C2391 C2393 1.433 . S
C2392 C2388 1.350 . S
C2392 C2389 1.463 . S
C2392 N2396 1.427 . S
C2393 H2383 0.929 . S
C2393 C2391 1.433 . S
C2393 N2396 1.384 . S
C2394 H2385 0.929 . S
C2394 C2386 1.378 . S
C2394 C2389 1.350 . S
C2395 H2382 0.929 . S
C2395 C2387 1.433 . S
C2395 N2397 1.384 . S
N2396 C2392 1.427 . S
N2396 C2393 1.384 . S
N2397 C2389 1.427 . S
N2397 C2395 1.384 . S
H2398 C2404 0.930 . S
H2399 C2408 0.930 . S
H2400 C2413 0.929 . S
H2401 C2411 0.929 . S
H2402 C2406 0.929 . S
H2403 C2412 0.929 . S
C2404 H2398 0.930 . S
C2404 C2405 1.367 . S
C2404 C2412 1.378 . S
C2405 C2404 1.367 . S
C2405 C2413 1.433 . S
C2406 H2402 0.929 . S
C2406 C2408 1.378 . S
C2406 C2410 1.350 . S
C2407 C2410 1.463 . S
C2407 C2412 1.350 . S
C2407 N2415 1.427 . S
C2408 H2399 0.930 . S
C2408 C2406 1.378 . S
C2408 C2409 1.367 . S
C2409 C2408 1.367 . S
C2409 C2411 1.433 . S
C2410 C2406 1.350 . S
C2410 C2407 1.463 . S
C2410 N2414 1.427 . S
C2411 H2401 0.929 . S
C2411 C2409 1.433 . S
C2411 N2414 1.384 . S
C2412 H2403 0.929 . S
C2412 C2404 1.378 . S
C2412 C2407 1.350 . S
C2413 H2400 0.929 . S
C2413 C2405 1.433 . S
C2413 N2415 1.384 . S
N2414 C2410 1.427 . S
N2414 C2411 1.384 . S
N2415 C2407 1.427 . S
N2415 C2413 1.384 . S
H2416 C2422 0.930 . S
H2417 C2426 0.930 . S
H2418 C2431 0.929 . S
H2419 C2429 0.929 . S
H2420 C2424 0.929 . S
H2421 C2430 0.929 . S
C2422 H2416 0.930 . S
C2422 C2423 1.367 . S
C2422 C2430 1.378 . S
C2423 C2422 1.367 . S
C2423 C2431 1.433 . S
C2424 H2420 0.929 . S
C2424 C2426 1.378 . S
C2424 C2428 1.350 . S
C2425 C2428 1.463 . S
C2425 C2430 1.350 . S
C2425 N2433 1.427 . S
C2426 H2417 0.930 . S
C2426 C2424 1.378 . S
C2426 C2427 1.367 . S
C2427 C2426 1.367 . S
C2427 C2429 1.433 . S
C2428 C2424 1.350 . S
C2428 C2425 1.463 . S
C2428 N2432 1.427 . S
C2429 H2419 0.929 . S
C2429 C2427 1.433 . S
C2429 N2432 1.384 . S
C2430 H2421 0.929 . S
C2430 C2422 1.378 . S
C2430 C2425 1.350 . S
C2431 H2418 0.929 . S
C2431 C2423 1.433 . S
C2431 N2433 1.384 . S
N2432 C2428 1.427 . S
N2432 C2429 1.384 . S
N2433 C2425 1.427 . S
N2433 C2431 1.384 . S
H2434 C2440 0.930 . S
H2435 C2444 0.930 . S
H2436 C2449 0.929 . S
H2437 C2447 0.929 . S
H2438 C2442 0.929 . S
H2439 C2448 0.929 . S
C2440 H2434 0.930 . S
C2440 C2441 1.367 . S
C2440 C2448 1.378 . S
C2441 C2440 1.367 . S
C2441 C2449 1.433 . S
C2442 H2438 0.929 . S
C2442 C2444 1.378 . S
C2442 C2446 1.350 . S
C2443 C2446 1.463 . S
C2443 C2448 1.350 . S
C2443 N2451 1.427 . S
C2444 H2435 0.930 . S
C2444 C2442 1.378 . S
C2444 C2445 1.367 . S
C2445 C2444 1.367 . S
C2445 C2447 1.433 . S
C2446 C2442 1.350 . S
C2446 C2443 1.463 . S
C2446 N2450 1.427 . S
C2447 H2437 0.929 . S
C2447 C2445 1.433 . S
C2447 N2450 1.384 . S
C2448 H2439 0.929 . S
C2448 C2440 1.378 . S
C2448 C2443 1.350 . S
C2449 H2436 0.929 . S
C2449 C2441 1.433 . S
C2449 N2451 1.384 . S
N2450 C2446 1.427 . S
N2450 C2447 1.384 . S
N2451 C2443 1.427 . S
N2451 C2449 1.384 . S
H2452 C2458 0.930 . S
H2453 C2462 0.930 . S
H2454 C2467 0.929 . S
H2455 C2465 0.929 . S
H2456 C2460 0.929 . S
H2457 C2466 0.929 . S
C2458 H2452 0.930 . S
C2458 C2459 1.367 . S
C2458 C2466 1.378 . S
C2459 C2458 1.367 . S
C2459 C2467 1.433 . S
C2460 H2456 0.929 . S
C2460 C2462 1.378 . S
C2460 C2464 1.350 . S
C2461 C2464 1.463 . S
C2461 C2466 1.350 . S
C2461 N2469 1.427 . S
C2462 H2453 0.930 . S
C2462 C2460 1.378 . S
C2462 C2463 1.367 . S
C2463 C2462 1.367 . S
C2463 C2465 1.433 1_655 S
C2464 C2460 1.350 . S
C2464 C2461 1.463 . S
C2464 N2468 1.427 . S
C2465 H2455 0.929 . S
C2465 C2463 1.433 1_455 S
C2465 N2468 1.384 1_455 S
C2466 H2457 0.929 . S
C2466 C2458 1.378 . S
C2466 C2461 1.350 . S
C2467 H2454 0.929 . S
C2467 C2459 1.433 . S
C2467 N2469 1.384 . S
N2468 C2464 1.427 . S
N2468 C2465 1.384 1_655 S
N2469 C2461 1.427 . S
N2469 C2467 1.384 . S
H2470 C2476 0.930 . S
H2471 C2480 0.930 . S
H2472 C2485 0.929 . S
H2473 C2483 0.929 . S
H2474 C2478 0.929 . S
H2475 C2484 0.929 . S
C2476 H2470 0.930 . S
C2476 C2477 1.367 . S
C2476 C2484 1.378 . S
C2477 C2476 1.367 . S
C2477 C2485 1.433 . S
C2478 H2474 0.929 . S
C2478 C2480 1.378 . S
C2478 C2482 1.350 . S
C2479 C2482 1.463 . S
C2479 C2484 1.350 . S
C2479 N2487 1.427 . S
C2480 H2471 0.930 . S
C2480 C2478 1.378 . S
C2480 C2481 1.367 . S
C2481 C2480 1.367 . S
C2481 C2483 1.433 . S
C2482 C2478 1.350 . S
C2482 C2479 1.463 . S
C2482 N2486 1.427 . S
C2483 H2473 0.929 . S
C2483 C2481 1.433 . S
C2483 N2486 1.384 . S
C2484 H2475 0.929 . S
C2484 C2476 1.378 . S
C2484 C2479 1.350 . S
C2485 H2472 0.929 . S
C2485 C2477 1.433 . S
C2485 N2487 1.384 . S
N2486 C2482 1.427 . S
N2486 C2483 1.384 . S
N2487 C2479 1.427 . S
N2487 C2485 1.384 . S
H2488 C2494 0.930 . S
H2489 C2498 0.930 . S
H2490 C2503 0.929 . S
H2491 C2501 0.929 . S
H2492 C2496 0.929 . S
H2493 C2502 0.929 . S
C2494 H2488 0.930 . S
C2494 C2495 1.367 . S
C2494 C2502 1.378 . S
C2495 C2494 1.367 . S
C2495 C2503 1.433 . S
C2496 H2492 0.929 . S
C2496 C2498 1.378 . S
C2496 C2500 1.350 . S
C2497 C2500 1.463 . S
C2497 C2502 1.350 . S
C2497 N2505 1.427 . S
C2498 H2489 0.930 . S
C2498 C2496 1.378 . S
C2498 C2499 1.367 . S
C2499 C2498 1.367 . S
C2499 C2501 1.433 . S
C2500 C2496 1.350 . S
C2500 C2497 1.463 . S
C2500 N2504 1.427 . S
C2501 H2491 0.929 . S
C2501 C2499 1.433 . S
C2501 N2504 1.384 . S
C2502 H2493 0.929 . S
C2502 C2494 1.378 . S
C2502 C2497 1.350 . S
C2503 H2490 0.929 . S
C2503 C2495 1.433 . S
C2503 N2505 1.384 . S
N2504 C2500 1.427 . S
N2504 C2501 1.384 . S
N2505 C2497 1.427 . S
N2505 C2503 1.384 . S
H2506 C2512 0.930 . S
H2507 C2516 0.930 . S
H2508 C2521 0.929 . S
H2509 C2519 0.929 . S
H2510 C2514 0.929 . S
H2511 C2520 0.929 . S
C2512 H2506 0.930 . S
C2512 C2513 1.367 . S
C2512 C2520 1.378 . S
C2513 C2512 1.367 . S
C2513 C2521 1.433 . S
C2514 H2510 0.929 . S
C2514 C2516 1.378 . S
C2514 C2518 1.350 . S
C2515 C2518 1.463 . S
C2515 C2520 1.350 . S
C2515 N2523 1.427 . S
C2516 H2507 0.930 . S
C2516 C2514 1.378 . S
C2516 C2517 1.367 . S
C2517 C2516 1.367 . S
C2517 C2519 1.433 . S
C2518 C2514 1.350 . S
C2518 C2515 1.463 . S
C2518 N2522 1.427 . S
C2519 H2509 0.929 . S
C2519 C2517 1.433 . S
C2519 N2522 1.384 . S
C2520 H2511 0.929 . S
C2520 C2512 1.378 . S
C2520 C2515 1.350 . S
C2521 H2508 0.929 . S
C2521 C2513 1.433 . S
C2521 N2523 1.384 . S
N2522 C2518 1.427 . S
N2522 C2519 1.384 . S
N2523 C2515 1.427 . S
N2523 C2521 1.384 . S
H2524 C2530 0.930 . S
H2525 C2534 0.904 1_455 S
H2526 C2539 0.929 . S
H2527 C2537 0.929 . S
H2528 C2532 0.929 . S
H2529 C2538 0.929 . S
C2530 H2524 0.930 . S
C2530 C2531 1.367 . S
C2530 C2538 1.378 . S
C2531 C2530 1.367 . S
C2531 C2539 1.433 . S
C2532 H2528 0.929 . S
C2532 C2534 1.396 . S
C2532 C2536 1.350 . S
C2533 C2536 1.463 . S
C2533 C2538 1.350 . S
C2533 N2541 1.427 . S
C2534 H2525 0.904 1_655 S
C2534 C2532 1.396 . S
C2534 C2535 1.375 . S
C2535 C2534 1.375 . S
C2535 C2537 1.433 . S
C2536 C2532 1.350 . S
C2536 C2533 1.463 . S
C2536 N2540 1.427 . S
C2537 H2527 0.929 . S
C2537 C2535 1.433 . S
C2537 N2540 1.384 . S
C2538 H2529 0.929 . S
C2538 C2530 1.378 . S
C2538 C2533 1.350 . S
C2539 H2526 0.929 . S
C2539 C2531 1.433 . S
C2539 N2541 1.384 . S
N2540 C2536 1.427 . S
N2540 C2537 1.384 . S
N2541 C2533 1.427 . S
N2541 C2539 1.384 . S
H2542 C2548 0.930 . S
H2543 C2552 0.930 . S
H2544 C2557 0.929 . S
H2545 C2555 0.929 . S
H2546 C2550 0.929 . S
H2547 C2556 0.929 . S
C2548 H2542 0.930 . S
C2548 C2549 1.367 . S
C2548 C2556 1.378 . S
C2549 C2548 1.367 . S
C2549 C2557 1.433 . S
C2550 H2546 0.929 . S
C2550 C2552 1.378 . S
C2550 C2554 1.350 . S
C2551 C2554 1.463 . S
C2551 C2556 1.350 . S
C2551 N2559 1.427 . S
C2552 H2543 0.930 . S
C2552 C2550 1.378 . S
C2552 C2553 1.367 . S
C2553 C2552 1.367 . S
C2553 C2555 1.433 . S
C2554 C2550 1.350 . S
C2554 C2551 1.463 . S
C2554 N2558 1.427 . S
C2555 H2545 0.929 . S
C2555 C2553 1.433 . S
C2555 N2558 1.384 . S
C2556 H2547 0.929 . S
C2556 C2548 1.378 . S
C2556 C2551 1.350 . S
C2557 H2544 0.929 . S
C2557 C2549 1.433 . S
C2557 N2559 1.384 . S
N2558 C2554 1.427 . S
N2558 C2555 1.384 . S
N2559 C2551 1.427 . S
N2559 C2557 1.384 . S
H2560 C2566 0.930 . S
H2561 C2570 0.930 . S
H2562 C2575 0.929 . S
H2563 C2573 0.929 . S
H2564 C2568 0.929 . S
H2565 C2574 0.929 . S
C2566 H2560 0.930 . S
C2566 C2567 1.367 . S
C2566 C2574 1.378 . S
C2567 C2566 1.367 . S
C2567 C2575 1.433 . S
C2568 H2564 0.929 . S
C2568 C2570 1.378 . S
C2568 C2572 1.350 . S
C2569 C2572 1.463 . S
C2569 C2574 1.350 . S
C2569 N2577 1.427 . S
C2570 H2561 0.930 . S
C2570 C2568 1.378 . S
C2570 C2571 1.367 . S
C2571 C2570 1.367 . S
C2571 C2573 1.433 . S
C2572 C2568 1.350 . S
C2572 C2569 1.463 . S
C2572 N2576 1.427 . S
C2573 H2563 0.929 . S
C2573 C2571 1.433 . S
C2573 N2576 1.384 . S
C2574 H2565 0.929 . S
C2574 C2566 1.378 . S
C2574 C2569 1.350 . S
C2575 H2562 0.929 . S
C2575 C2567 1.433 . S
C2575 N2577 1.384 . S
N2576 C2572 1.427 . S
N2576 C2573 1.384 . S
N2577 C2569 1.427 . S
N2577 C2575 1.384 . S
H2578 C2584 0.930 . S
H2579 C2588 0.930 . S
H2580 C2593 0.929 . S
H2581 C2591 0.929 . S
H2582 C2586 0.929 . S
H2583 C2592 0.929 . S
C2584 H2578 0.930 . S
C2584 C2585 1.367 . S
C2584 C2592 1.378 . S
C2585 C2584 1.367 . S
C2585 C2593 1.433 . S
C2586 H2582 0.929 . S
C2586 C2588 1.378 . S
C2586 C2590 1.350 . S
C2587 C2590 1.463 . S
C2587 C2592 1.350 . S
C2587 N2595 1.427 . S
C2588 H2579 0.930 . S
C2588 C2586 1.378 . S
C2588 C2589 1.367 . S
C2589 C2588 1.367 . S
C2589 C2591 1.433 . S
C2590 C2586 1.350 . S
C2590 C2587 1.463 . S
C2590 N2594 1.427 . S
C2591 H2581 0.929 . S
C2591 C2589 1.433 . S
C2591 N2594 1.384 . S
C2592 H2583 0.929 . S
C2592 C2584 1.378 . S
C2592 C2587 1.350 . S
C2593 H2580 0.929 . S
C2593 C2585 1.433 . S
C2593 N2595 1.384 . S
N2594 C2590 1.427 . S
N2594 C2591 1.384 . S
N2595 C2587 1.427 . S
N2595 C2593 1.384 . S
H2596 C2602 0.930 . S
H2597 C2606 0.930 . S
H2598 C2611 0.929 . S
H2599 C2609 0.929 . S
H2600 C2604 0.929 . S
H2601 C2610 0.929 . S
C2602 H2596 0.930 . S
C2602 C2603 1.367 . S
C2602 C2610 1.378 . S
C2603 C2602 1.367 . S
C2603 C2611 1.433 . S
C2604 H2600 0.929 . S
C2604 C2606 1.378 . S
C2604 C2608 1.350 . S
C2605 C2608 1.463 . S
C2605 C2610 1.350 . S
C2605 N2613 1.427 . S
C2606 H2597 0.930 . S
C2606 C2604 1.378 . S
C2606 C2607 1.367 . S
C2607 C2606 1.367 . S
C2607 C2609 1.433 . S
C2608 C2604 1.350 . S
C2608 C2605 1.463 . S
C2608 N2612 1.427 . S
C2609 H2599 0.929 . S
C2609 C2607 1.433 . S
C2609 N2612 1.384 . S
C2610 H2601 0.929 . S
C2610 C2602 1.378 . S
C2610 C2605 1.350 . S
C2611 H2598 0.929 . S
C2611 C2603 1.433 . S
C2611 N2613 1.384 . S
N2612 C2608 1.427 . S
N2612 C2609 1.384 . S
N2613 C2605 1.427 . S
N2613 C2611 1.384 . S
H2614 C2620 0.930 . S
H2615 C2624 0.930 . S
H2616 C2629 0.929 . S
H2617 C2627 0.929 . S
H2618 C2622 0.929 . S
H2619 C2628 0.929 . S
C2620 H2614 0.930 . S
C2620 C2621 1.367 . S
C2620 C2628 1.378 . S
C2621 C2620 1.367 . S
C2621 C2629 1.433 . S
C2622 H2618 0.929 . S
C2622 C2624 1.378 . S
C2622 C2626 1.350 . S
C2623 C2626 1.463 . S
C2623 C2628 1.350 . S
C2623 N2631 1.427 . S
C2624 H2615 0.930 . S
C2624 C2622 1.378 . S
C2624 C2625 1.367 . S
C2625 C2624 1.367 . S
C2625 C2627 1.433 . S
C2626 C2622 1.350 . S
C2626 C2623 1.463 . S
C2626 N2630 1.427 . S
C2627 H2617 0.929 . S
C2627 C2625 1.433 . S
C2627 N2630 1.384 . S
C2628 H2619 0.929 . S
C2628 C2620 1.378 . S
C2628 C2623 1.350 . S
C2629 H2616 0.929 . S
C2629 C2621 1.433 . S
C2629 N2631 1.384 . S
N2630 C2626 1.427 . S
N2630 C2627 1.384 . S
N2631 C2623 1.427 . S
N2631 C2629 1.384 . S
H2632 C2638 0.930 . S
H2633 C2642 0.930 . S
H2634 C2647 0.929 . S
H2635 C2645 0.929 . S
H2636 C2640 0.929 . S
H2637 C2646 0.929 . S
C2638 H2632 0.930 . S
C2638 C2639 1.367 . S
C2638 C2646 1.378 . S
C2639 C2638 1.367 . S
C2639 C2647 1.433 . S
C2640 H2636 0.929 . S
C2640 C2642 1.378 . S
C2640 C2644 1.350 . S
C2641 C2644 1.463 . S
C2641 C2646 1.350 . S
C2641 N2649 1.427 . S
C2642 H2633 0.930 . S
C2642 C2640 1.378 . S
C2642 C2643 1.367 . S
C2643 C2642 1.367 . S
C2643 C2645 1.433 . S
C2644 C2640 1.350 . S
C2644 C2641 1.463 . S
C2644 N2648 1.427 . S
C2645 H2635 0.929 . S
C2645 C2643 1.433 . S
C2645 N2648 1.384 . S
C2646 H2637 0.929 . S
C2646 C2638 1.378 . S
C2646 C2641 1.350 . S
C2647 H2634 0.929 . S
C2647 C2639 1.433 . S
C2647 N2649 1.384 . S
N2648 C2644 1.427 . S
N2648 C2645 1.384 . S
N2649 C2641 1.427 . S
N2649 C2647 1.384 . S
H2650 C2656 0.930 . S
H2651 C2660 0.930 . S
H2652 C2665 0.929 . S
H2653 C2663 0.929 . S
H2654 C2658 0.929 . S
H2655 C2664 0.929 . S
C2656 H2650 0.930 . S
C2656 C2657 1.367 . S
C2656 C2664 1.378 . S
C2657 C2656 1.367 . S
C2657 C2665 1.433 . S
C2658 H2654 0.929 . S
C2658 C2660 1.378 . S
C2658 C2662 1.350 . S
C2659 C2662 1.463 . S
C2659 C2664 1.350 . S
C2659 N2667 1.427 . S
C2660 H2651 0.930 . S
C2660 C2658 1.378 . S
C2660 C2661 1.367 . S
C2661 C2660 1.367 . S
C2661 C2663 1.433 . S
C2662 C2658 1.350 . S
C2662 C2659 1.463 . S
C2662 N2666 1.427 . S
C2663 H2653 0.929 . S
C2663 C2661 1.433 . S
C2663 N2666 1.384 . S
C2664 H2655 0.929 . S
C2664 C2656 1.378 . S
C2664 C2659 1.350 . S
C2665 H2652 0.929 . S
C2665 C2657 1.433 . S
C2665 N2667 1.384 . S
N2666 C2662 1.427 . S
N2666 C2663 1.384 . S
N2667 C2659 1.427 . S
N2667 C2665 1.384 . S
H2668 C2674 0.930 . S
H2669 C2678 0.930 . S
H2670 C2683 0.929 . S
H2671 C2681 0.929 . S
H2672 C2676 0.929 . S
H2673 C2682 0.929 . S
C2674 H2668 0.930 . S
C2674 C2675 1.367 . S
C2674 C2682 1.378 . S
C2675 C2674 1.367 . S
C2675 C2683 1.433 . S
C2676 H2672 0.929 . S
C2676 C2678 1.378 . S
C2676 C2680 1.350 . S
C2677 C2680 1.463 . S
C2677 C2682 1.350 . S
C2677 N2685 1.427 . S
C2678 H2669 0.930 . S
C2678 C2676 1.378 . S
C2678 C2679 1.367 . S
C2679 C2678 1.367 . S
C2679 C2681 1.433 . S
C2680 C2676 1.350 . S
C2680 C2677 1.463 . S
C2680 N2684 1.427 . S
C2681 H2671 0.929 . S
C2681 C2679 1.433 . S
C2681 N2684 1.384 . S
C2682 H2673 0.929 . S
C2682 C2674 1.378 . S
C2682 C2677 1.350 . S
C2683 H2670 0.929 . S
C2683 C2675 1.433 . S
C2683 N2685 1.384 . S
N2684 C2680 1.427 . S
N2684 C2681 1.384 . S
N2685 C2677 1.427 . S
N2685 C2683 1.384 . S
H2686 C2692 0.930 . S
H2687 C2696 0.930 . S
H2688 C2701 0.929 . S
H2689 C2699 0.929 . S
H2690 C2694 0.929 . S
H2691 C2700 0.929 . S
C2692 H2686 0.930 . S
C2692 C2693 1.367 . S
C2692 C2700 1.378 . S
C2693 C2692 1.367 . S
C2693 C2701 1.433 . S
C2694 H2690 0.929 . S
C2694 C2696 1.378 . S
C2694 C2698 1.350 . S
C2695 C2698 1.463 . S
C2695 C2700 1.350 . S
C2695 N2703 1.427 . S
C2696 H2687 0.930 . S
C2696 C2694 1.378 . S
C2696 C2697 1.367 . S
C2697 C2696 1.367 . S
C2697 C2699 1.433 . S
C2698 C2694 1.350 . S
C2698 C2695 1.463 . S
C2698 N2702 1.427 . S
C2699 H2689 0.929 . S
C2699 C2697 1.433 . S
C2699 N2702 1.384 . S
C2700 H2691 0.929 . S
C2700 C2692 1.378 . S
C2700 C2695 1.350 . S
C2701 H2688 0.929 . S
C2701 C2693 1.433 . S
C2701 N2703 1.384 . S
N2702 C2698 1.427 . S
N2702 C2699 1.384 . S
N2703 C2695 1.427 . S
N2703 C2701 1.384 . S
C983 C111 2.066 1_455 S
C987 C355 2.052 . S
C1001 C64 2.135 . S
C1005 C384 2.208 . S
C1019 C77 1.150 . S
C1023 C435 1.127 . S
C1041 C461 1.317 . S
C1037 C95 1.319 . S
C1055 C25 0.466 . S
C1059 C501 0.447 . S
C1077 C551 0.313 . S
C1073 C36 0.433 . S
C1095 C594 0.456 . S
C1091 C50 0.643 . S
C1109 C11 1.215 . S
C1113 C631 1.165 . S
C1131 C344 2.344 . S
C1127 C237 2.208 . S
C1145 C245 0.465 . S
C1149 C381 0.485 . S
C1167 C424 2.269 . S
C1163 C279 2.133 . S
C1185 C475 1.223 . S
C1181 C175 1.231 1_556 S
C1199 C231 1.731 . S
C1203 C515 1.722 . S
C1221 C554 0.373 . S
C1217 C251 0.551 . S
C1239 C585 1.891 . S
C1235 C273 1.949 . S
C1257 C634 1.994 . S
C1253 C181 1.939 . S
C1275 C341 1.344 . S
C1271 C165 1.400 1_554 S
C1289 C288 2.186 . S
C1293 C664 2.253 . S
C1311 C705 2.332 . S
C1307 C333 2.373 . S
C1329 C751 0.570 . S
C1325 C316 0.563 . S
C1343 C123 2.482 . S
C1347 C625 2.408 . S
C1361 C137 1.330 . S
C1365 C421 1.316 . S
C1379 C330 2.120 . S
C1383 C784 2.185 . S
C1401 C835 1.862 . S
C1397 C302 1.878 . S
C1419 C345 2.140 . S
C1415 C63 2.182 . S
C1437 C834 2.262 . S
C1433 C106 2.249 . S
C1451 C97 1.199 . S
C1455 C425 1.221 . S
C1469 C81 1.390 . S
C1473 C791 1.407 . S
C1491 C511 0.602 . S
C1487 C13 0.627 . S
C1505 C55 0.458 . S
C1509 C701 0.301 . S
C1527 C584 0.534 . S
C1523 C35 0.422 . S
C1545 C861 1.200 . S
C1541 C21 1.202 . S
C1563 C354 2.438 1_556 S
C1559 C147 2.446 . S
C1581 C831 0.446 . S
C1577 C321 0.627 . S
C1595 C119 2.355 . S
C1599 C434 2.337 . S
C1613 C293 1.312 . S
C1617 C785 1.360 . S
C1631 C153 1.774 1_565 S
C1635 C505 1.914 . S
C1653 C704 0.468 . S
C1649 C315 0.413 . S
C1667 C125 1.889 . S
C1671 C595 1.955 . S
C1685 C287 2.063 . S
C1689 C864 2.060 . S
C1703 C193 1.363 . S
C1707 C351 1.354 . S
C1721 C176 2.288 . S
C1725 C674 2.305 . S
C1739 C263 2.351 . S
C1743 C555 2.308 . S
C1757 C246 0.679 . S
C1761 C741 0.657 . S
C1779 C875 2.534 . S
C1775 C277 2.598 . S
C1793 C221 1.367 . S
C1797 C431 1.384 . S
C1815 C474 2.248 . S
C1811 C260 2.240 . S
C1833 C385 1.954 . S
C1829 C204 1.877 . S
C1847 C83 2.070 . S
C1851 C915 2.057 . S
C1869 C824 2.203 . S
C1865 C92 2.124 . S
C1883 C105 1.149 . S
C1887 C955 1.135 . S
C1901 C67 1.318 . S
C1905 C781 1.311 . S
C1919 C53 0.479 . S
C1923 C661 0.474 . S
C1941 C711 0.312 . S
C1937 C8 0.432 . S
C1959 C754 0.449 . S
C1955 C22 0.660 1_655 S
C1977 C871 1.141 . S
C1973 C39 1.202 . S
C1995 C904 2.343 . S
C1991 C265 2.210 . S
C2009 C189 0.441 . S
C2013 C821 0.459 . S
C2031 C944 2.264 . S
C2027 C209 2.125 . S
C2049 C795 1.212 . S
C2045 C217 1.234 . S
C2067 C675 1.723 . S
C2063 C259 1.738 . S
C2081 C195 0.590 . S
C2085 C714 0.400 . S
C2103 C745 1.889 . S
C2099 C203 1.948 . S
C2117 C223 1.940 . S
C2121 C874 1.995 . S
C2139 C901 1.343 . S
C2135 C319 1.417 . S
C2153 C134 2.187 . S
C2157 C504 2.254 . S
C2175 C545 2.331 . S
C2171 C151 2.374 . S
C2193 C591 0.567 . S
C2189 C162 0.586 . S
C2211 C865 2.399 . S
C2207 C305 2.484 . S
C2225 C291 1.335 . S
C2229 C941 1.315 . S
C2247 C464 2.188 . S
C2243 C148 2.128 . S
C2265 C395 1.865 . S
C2261 C120 1.877 . S
C2279 C91 2.186 . S
C2283 C905 2.141 . S
C2301 C394 2.258 . S
C2297 C78 2.247 . S
C2315 C69 1.198 . S
C2319 C945 1.222 . S
C2333 C109 1.389 . S
C2337 C471 1.405 . S
C2351 C41 0.659 . S
C2355 C671 0.614 . S
C2373 C541 0.310 . S
C2369 C27 0.496 . S
C2387 C7 0.411 . S
C2391 C744 0.515 . S
C2405 C49 1.196 . S
C2409 C621 1.194 . S
C2427 C914 2.454 . S
C2423 C329 2.447 . S
C2441 C167 0.602 . S
C2445 C391 0.440 . S
C2463 C954 2.340 1_655 S
C2459 C301 2.351 . S
C2477 C139 1.328 . S
C2481 C465 1.360 . S
C2495 C335 1.775 . S
C2499 C665 1.908 . S
C2517 C544 0.469 . S
C2513 C161 0.417 . S
C2531 C307 1.888 . S
C2535 C755 1.947 1_655 S
C2553 C624 2.057 . S
C2549 C133 2.065 . S
C2571 C911 1.354 . S
C2567 C249 1.368 . S
C2589 C514 2.304 1_565 S
C2585 C218 2.285 . S
C2603 C235 2.351 . S
C2607 C715 2.309 . S
C2625 C581 0.657 . S
C2621 C190 0.681 . S
C2639 C207 2.600 . S
C2643 C635 2.536 . S
C2657 C179 1.370 . S
C2661 C951 1.386 . S
C2679 C794 2.245 . S
C2675 C232 2.242 . S
C2697 C825 1.951 . S
C2693 C274 1.883 . S
