# Generated by pormake.
# Topology gar, (4,6)-cn, num edge types: 1
# Building blocks:
#     Node 0, Type 0, BuildingBlock: GALJAG_clean_sbu_0, # of connection points: 4
#     Node 1, Type 0, BuildingBlock: GALJAG_clean_sbu_0, # of connection points: 4
#     Node 2, Type 0, BuildingBlock: GALJAG_clean_sbu_0, # of connection points: 4
#     Node 3, Type 0, BuildingBlock: GALJAG_clean_sbu_0, # of connection points: 4
#     Node 4, Type 0, BuildingBlock: GALJAG_clean_sbu_0, # of connection points: 4
#     Node 5, Type 0, BuildingBlock: GALJAG_clean_sbu_0, # of connection points: 4
#     Node 6, Type 0, BuildingBlock: GALJAG_clean_sbu_0, # of connection points: 4
#     Node 7, Type 0, BuildingBlock: GALJAG_clean_sbu_0, # of connection points: 4
#     Node 8, Type 0, BuildingBlock: GALJAG_clean_sbu_0, # of connection points: 4
#     Node 9, Type 0, BuildingBlock: GALJAG_clean_sbu_0, # of connection points: 4
#     Node 10, Type 0, BuildingBlock: GALJAG_clean_sbu_0, # of connection points: 4
#     Node 11, Type 0, BuildingBlock: GALJAG_clean_sbu_0, # of connection points: 4
#     Node 12, Type 0, BuildingBlock: GALJAG_clean_sbu_0, # of connection points: 4
#     Node 13, Type 0, BuildingBlock: GALJAG_clean_sbu_0, # of connection points: 4
#     Node 14, Type 0, BuildingBlock: GALJAG_clean_sbu_0, # of connection points: 4
#     Node 15, Type 0, BuildingBlock: GALJAG_clean_sbu_0, # of connection points: 4
#     Node 16, Type 0, BuildingBlock: GALJAG_clean_sbu_0, # of connection points: 4
#     Node 17, Type 0, BuildingBlock: GALJAG_clean_sbu_0, # of connection points: 4
#     Node 18, Type 0, BuildingBlock: GALJAG_clean_sbu_0, # of connection points: 4
#     Node 19, Type 0, BuildingBlock: GALJAG_clean_sbu_0, # of connection points: 4
#     Node 20, Type 0, BuildingBlock: GALJAG_clean_sbu_0, # of connection points: 4
#     Node 21, Type 0, BuildingBlock: GALJAG_clean_sbu_0, # of connection points: 4
#     Node 22, Type 0, BuildingBlock: GALJAG_clean_sbu_0, # of connection points: 4
#     Node 23, Type 0, BuildingBlock: GALJAG_clean_sbu_0, # of connection points: 4
#     Node 24, Type 1, BuildingBlock: BETDIP_clean_sbu_0, # of connection points: 6
#     Node 25, Type 1, BuildingBlock: BETDIP_clean_sbu_0, # of connection points: 6
#     Node 26, Type 1, BuildingBlock: BETDIP_clean_sbu_0, # of connection points: 6
#     Node 27, Type 1, BuildingBlock: BETDIP_clean_sbu_0, # of connection points: 6
#     Node 28, Type 1, BuildingBlock: BETDIP_clean_sbu_0, # of connection points: 6
#     Node 29, Type 1, BuildingBlock: BETDIP_clean_sbu_0, # of connection points: 6
#     Node 30, Type 1, BuildingBlock: BETDIP_clean_sbu_0, # of connection points: 6
#     Node 31, Type 1, BuildingBlock: BETDIP_clean_sbu_0, # of connection points: 6
#     Node 32, Type 1, BuildingBlock: BETDIP_clean_sbu_0, # of connection points: 6
#     Node 33, Type 1, BuildingBlock: BETDIP_clean_sbu_0, # of connection points: 6
#     Node 34, Type 1, BuildingBlock: BETDIP_clean_sbu_0, # of connection points: 6
#     Node 35, Type 1, BuildingBlock: BETDIP_clean_sbu_0, # of connection points: 6
#     Node 36, Type 1, BuildingBlock: BETDIP_clean_sbu_0, # of connection points: 6
#     Node 37, Type 1, BuildingBlock: BETDIP_clean_sbu_0, # of connection points: 6
#     Node 38, Type 1, BuildingBlock: BETDIP_clean_sbu_0, # of connection points: 6
#     Node 39, Type 1, BuildingBlock: BETDIP_clean_sbu_0, # of connection points: 6
#     Edge 40, Type (0, 1), BuildingBlock: XUDNAN_clean_linker_2, # of connection points: 2
#     Edge 41, Type (0, 1), BuildingBlock: XUDNAN_clean_linker_2, # of connection points: 2
#     Edge 42, Type (0, 1), BuildingBlock: XUDNAN_clean_linker_2, # of connection points: 2
#     Edge 43, Type (0, 1), BuildingBlock: XUDNAN_clean_linker_2, # of connection points: 2
#     Edge 44, Type (0, 1), BuildingBlock: XUDNAN_clean_linker_2, # of connection points: 2
#     Edge 45, Type (0, 1), BuildingBlock: XUDNAN_clean_linker_2, # of connection points: 2
#     Edge 46, Type (0, 1), BuildingBlock: XUDNAN_clean_linker_2, # of connection points: 2
#     Edge 47, Type (0, 1), BuildingBlock: XUDNAN_clean_linker_2, # of connection points: 2
#     Edge 48, Type (0, 1), BuildingBlock: XUDNAN_clean_linker_2, # of connection points: 2
#     Edge 49, Type (0, 1), BuildingBlock: XUDNAN_clean_linker_2, # of connection points: 2
#     Edge 50, Type (0, 1), BuildingBlock: XUDNAN_clean_linker_2, # of connection points: 2
#     Edge 51, Type (0, 1), BuildingBlock: XUDNAN_clean_linker_2, # of connection points: 2
#     Edge 52, Type (0, 1), BuildingBlock: XUDNAN_clean_linker_2, # of connection points: 2
#     Edge 53, Type (0, 1), BuildingBlock: XUDNAN_clean_linker_2, # of connection points: 2
#     Edge 54, Type (0, 1), BuildingBlock: XUDNAN_clean_linker_2, # of connection points: 2
#     Edge 55, Type (0, 1), BuildingBlock: XUDNAN_clean_linker_2, # of connection points: 2
#     Edge 56, Type (0, 1), BuildingBlock: XUDNAN_clean_linker_2, # of connection points: 2
#     Edge 57, Type (0, 1), BuildingBlock: XUDNAN_clean_linker_2, # of connection points: 2
#     Edge 58, Type (0, 1), BuildingBlock: XUDNAN_clean_linker_2, # of connection points: 2
#     Edge 59, Type (0, 1), BuildingBlock: XUDNAN_clean_linker_2, # of connection points: 2
#     Edge 60, Type (0, 1), BuildingBlock: XUDNAN_clean_linker_2, # of connection points: 2
#     Edge 61, Type (0, 1), BuildingBlock: XUDNAN_clean_linker_2, # of connection points: 2
#     Edge 62, Type (0, 1), BuildingBlock: XUDNAN_clean_linker_2, # of connection points: 2
#     Edge 63, Type (0, 1), BuildingBlock: XUDNAN_clean_linker_2, # of connection points: 2
#     Edge 64, Type (0, 1), BuildingBlock: XUDNAN_clean_linker_2, # of connection points: 2
#     Edge 65, Type (0, 1), BuildingBlock: XUDNAN_clean_linker_2, # of connection points: 2
#     Edge 66, Type (0, 1), BuildingBlock: XUDNAN_clean_linker_2, # of connection points: 2
#     Edge 67, Type (0, 1), BuildingBlock: XUDNAN_clean_linker_2, # of connection points: 2
#     Edge 68, Type (0, 1), BuildingBlock: XUDNAN_clean_linker_2, # of connection points: 2
#     Edge 69, Type (0, 1), BuildingBlock: XUDNAN_clean_linker_2, # of connection points: 2
#     Edge 70, Type (0, 1), BuildingBlock: XUDNAN_clean_linker_2, # of connection points: 2
#     Edge 71, Type (0, 1), BuildingBlock: XUDNAN_clean_linker_2, # of connection points: 2
#     Edge 72, Type (0, 1), BuildingBlock: XUDNAN_clean_linker_2, # of connection points: 2
#     Edge 73, Type (0, 1), BuildingBlock: XUDNAN_clean_linker_2, # of connection points: 2
#     Edge 74, Type (0, 1), BuildingBlock: XUDNAN_clean_linker_2, # of connection points: 2
#     Edge 75, Type (0, 1), BuildingBlock: XUDNAN_clean_linker_2, # of connection points: 2
#     Edge 76, Type (0, 1), BuildingBlock: XUDNAN_clean_linker_2, # of connection points: 2
#     Edge 77, Type (0, 1), BuildingBlock: XUDNAN_clean_linker_2, # of connection points: 2
#     Edge 78, Type (0, 1), BuildingBlock: XUDNAN_clean_linker_2, # of connection points: 2
#     Edge 79, Type (0, 1), BuildingBlock: XUDNAN_clean_linker_2, # of connection points: 2
#     Edge 80, Type (0, 1), BuildingBlock: XUDNAN_clean_linker_2, # of connection points: 2
#     Edge 81, Type (0, 1), BuildingBlock: XUDNAN_clean_linker_2, # of connection points: 2
#     Edge 82, Type (0, 1), BuildingBlock: XUDNAN_clean_linker_2, # of connection points: 2
#     Edge 83, Type (0, 1), BuildingBlock: XUDNAN_clean_linker_2, # of connection points: 2
#     Edge 84, Type (0, 1), BuildingBlock: XUDNAN_clean_linker_2, # of connection points: 2
#     Edge 85, Type (0, 1), BuildingBlock: XUDNAN_clean_linker_2, # of connection points: 2
#     Edge 86, Type (0, 1), BuildingBlock: XUDNAN_clean_linker_2, # of connection points: 2
#     Edge 87, Type (0, 1), BuildingBlock: XUDNAN_clean_linker_2, # of connection points: 2
#     Edge 88, Type (0, 1), BuildingBlock: XUDNAN_clean_linker_2, # of connection points: 2
#     Edge 89, Type (0, 1), BuildingBlock: XUDNAN_clean_linker_2, # of connection points: 2
#     Edge 90, Type (0, 1), BuildingBlock: XUDNAN_clean_linker_2, # of connection points: 2
#     Edge 91, Type (0, 1), BuildingBlock: XUDNAN_clean_linker_2, # of connection points: 2
#     Edge 92, Type (0, 1), BuildingBlock: XUDNAN_clean_linker_2, # of connection points: 2
#     Edge 93, Type (0, 1), BuildingBlock: XUDNAN_clean_linker_2, # of connection points: 2
#     Edge 94, Type (0, 1), BuildingBlock: XUDNAN_clean_linker_2, # of connection points: 2
#     Edge 95, Type (0, 1), BuildingBlock: XUDNAN_clean_linker_2, # of connection points: 2
#     Edge 96, Type (0, 1), BuildingBlock: XUDNAN_clean_linker_2, # of connection points: 2
#     Edge 97, Type (0, 1), BuildingBlock: XUDNAN_clean_linker_2, # of connection points: 2
#     Edge 98, Type (0, 1), BuildingBlock: XUDNAN_clean_linker_2, # of connection points: 2
#     Edge 99, Type (0, 1), BuildingBlock: XUDNAN_clean_linker_2, # of connection points: 2
#     Edge 100, Type (0, 1), BuildingBlock: XUDNAN_clean_linker_2, # of connection points: 2
#     Edge 101, Type (0, 1), BuildingBlock: XUDNAN_clean_linker_2, # of connection points: 2
#     Edge 102, Type (0, 1), BuildingBlock: XUDNAN_clean_linker_2, # of connection points: 2
#     Edge 103, Type (0, 1), BuildingBlock: XUDNAN_clean_linker_2, # of connection points: 2
#     Edge 104, Type (0, 1), BuildingBlock: XUDNAN_clean_linker_2, # of connection points: 2
#     Edge 105, Type (0, 1), BuildingBlock: XUDNAN_clean_linker_2, # of connection points: 2
#     Edge 106, Type (0, 1), BuildingBlock: XUDNAN_clean_linker_2, # of connection points: 2
#     Edge 107, Type (0, 1), BuildingBlock: XUDNAN_clean_linker_2, # of connection points: 2
#     Edge 108, Type (0, 1), BuildingBlock: XUDNAN_clean_linker_2, # of connection points: 2
#     Edge 109, Type (0, 1), BuildingBlock: XUDNAN_clean_linker_2, # of connection points: 2
#     Edge 110, Type (0, 1), BuildingBlock: XUDNAN_clean_linker_2, # of connection points: 2
#     Edge 111, Type (0, 1), BuildingBlock: XUDNAN_clean_linker_2, # of connection points: 2
#     Edge 112, Type (0, 1), BuildingBlock: XUDNAN_clean_linker_2, # of connection points: 2
#     Edge 113, Type (0, 1), BuildingBlock: XUDNAN_clean_linker_2, # of connection points: 2
#     Edge 114, Type (0, 1), BuildingBlock: XUDNAN_clean_linker_2, # of connection points: 2
#     Edge 115, Type (0, 1), BuildingBlock: XUDNAN_clean_linker_2, # of connection points: 2
#     Edge 116, Type (0, 1), BuildingBlock: XUDNAN_clean_linker_2, # of connection points: 2
#     Edge 117, Type (0, 1), BuildingBlock: XUDNAN_clean_linker_2, # of connection points: 2
#     Edge 118, Type (0, 1), BuildingBlock: XUDNAN_clean_linker_2, # of connection points: 2
#     Edge 119, Type (0, 1), BuildingBlock: XUDNAN_clean_linker_2, # of connection points: 2
#     Edge 120, Type (0, 1), BuildingBlock: XUDNAN_clean_linker_2, # of connection points: 2
#     Edge 121, Type (0, 1), BuildingBlock: XUDNAN_clean_linker_2, # of connection points: 2
#     Edge 122, Type (0, 1), BuildingBlock: XUDNAN_clean_linker_2, # of connection points: 2
#     Edge 123, Type (0, 1), BuildingBlock: XUDNAN_clean_linker_2, # of connection points: 2
#     Edge 124, Type (0, 1), BuildingBlock: XUDNAN_clean_linker_2, # of connection points: 2
#     Edge 125, Type (0, 1), BuildingBlock: XUDNAN_clean_linker_2, # of connection points: 2
#     Edge 126, Type (0, 1), BuildingBlock: XUDNAN_clean_linker_2, # of connection points: 2
#     Edge 127, Type (0, 1), BuildingBlock: XUDNAN_clean_linker_2, # of connection points: 2
#     Edge 128, Type (0, 1), BuildingBlock: XUDNAN_clean_linker_2, # of connection points: 2
#     Edge 129, Type (0, 1), BuildingBlock: XUDNAN_clean_linker_2, # of connection points: 2
#     Edge 130, Type (0, 1), BuildingBlock: XUDNAN_clean_linker_2, # of connection points: 2
#     Edge 131, Type (0, 1), BuildingBlock: XUDNAN_clean_linker_2, # of connection points: 2
#     Edge 132, Type (0, 1), BuildingBlock: XUDNAN_clean_linker_2, # of connection points: 2
#     Edge 133, Type (0, 1), BuildingBlock: XUDNAN_clean_linker_2, # of connection points: 2
#     Edge 134, Type (0, 1), BuildingBlock: XUDNAN_clean_linker_2, # of connection points: 2
#     Edge 135, Type (0, 1), BuildingBlock: XUDNAN_clean_linker_2, # of connection points: 2
# Relax obj value: 0.196
# Max RMSD: 0.301
# Mean RMSD: 0.165
data_MOF--net-gar--node1-GALJAG_clean_sbu_0--node2-BETDIP_clean_sbu_0--edge1-XUDNAN_clean_linker_2
_symmetry_space_group_name_H-M    P1
_symmetry_Int_Tables_number       1
_symmetry_cell_setting            triclinic
loop_
_symmetry_equiv_pos_as_xyz
'x, y, z'
_cell_length_a     63.285907
_cell_length_b     56.295804
_cell_length_c     53.944553
_cell_angle_alpha  96.095783
_cell_angle_beta   98.414156
_cell_angle_gamma 100.43026
loop_
_atom_site_label
_atom_site_type_symbol
_atom_site_fract_x
_atom_site_fract_y
_atom_site_fract_z
_atom_type_partial_charge
In0 In 0.04419 0.3281 0.4053 0.0
O1 O 0.05842 0.32396 0.36972 0.0
O2 O 0.07921 0.33012 0.40597 0.0
C3 C 1.00173 0.32027 0.39369 0.0
C4 C 0.04602 0.29096 0.4296 0.0
C5 C 0.05033 0.37356 0.42455 0.0
O6 O 1.01341 0.31665 0.37705 0.0
O7 O 1.01158 0.32753 0.41596 0.0
O8 O 0.05453 0.35708 0.43745 0.0
O9 O 0.04414 0.3672 0.40102 0.0
C10 C 0.07725 0.32573 0.38232 0.0
O11 O 0.0519 0.3126 0.44049 0.0
O12 O 0.0392 0.28807 0.40608 0.0
In13 In 0.08252 0.7671 0.7231 0.0
O14 O 0.08987 0.78056 0.68747 0.0
O15 O 0.09485 0.80646 0.72102 0.0
C16 C 0.0649 0.72608 0.69426 0.0
C17 C 0.12234 0.76363 0.74283 0.0
C18 C 0.05096 0.77653 0.74624 0.0
O19 O 0.06563 0.74631 0.68597 0.0
O20 O 0.07131 0.72699 0.71774 0.0
O21 O 0.06383 0.76391 0.75568 0.0
O22 O 0.05412 0.78382 0.72563 0.0
C23 C 0.09598 0.80237 0.69784 0.0
O24 O 0.11346 0.78019 0.75181 0.0
O25 O 0.11057 0.74826 0.72542 0.0
In26 In 0.54294 0.82723 0.90378 0.0
O27 O 0.56079 0.83995 0.87313 0.0
O28 O 0.57863 0.82961 0.90582 0.0
C29 C 0.50272 0.81463 0.87974 0.0
C30 C 0.54277 0.78401 0.9172 0.0
C31 C 0.54264 0.8685 0.93029 0.0
O32 O 0.51883 0.81418 0.86851 0.0
O33 O 0.50692 0.82168 0.90321 0.0
O34 O 0.55048 0.85205 0.94044 0.0
O35 O 0.53592 0.86446 0.9068 0.0
C36 C 0.57866 0.83632 0.88425 0.0
O37 O 0.54186 0.80186 0.93311 0.0
O38 O 0.54419 0.78835 0.89504 0.0
In39 In 0.58468 0.26377 0.22279 0.0
O40 O 0.56569 0.24707 0.18509 0.0
O41 O 0.58274 0.22463 0.2071 0.0
C42 C 0.59083 0.30648 0.20602 0.0
C43 C 0.55321 0.26606 0.2496 0.0
C44 C 0.62477 0.2611 0.24165 0.0
O45 O 0.58701 0.28653 0.19152 0.0
O46 O 0.59096 0.30491 0.22917 0.0
O47 O 0.60872 0.2495 0.24972 0.0
O48 O 0.62036 0.2731 0.22389 0.0
C49 C 0.57048 0.22645 0.18694 0.0
O50 O 0.57257 0.27687 0.25785 0.0
O51 O 0.55005 0.25292 0.22858 0.0
In52 In 0.09498 0.81107 0.16863 0.0
O53 O 0.09433 0.78602 0.13234 0.0
O54 O 0.08967 0.7697 0.16557 0.0
C55 C 0.09297 0.8515 0.14527 0.0
C56 C 0.05657 0.80118 0.18563 0.0
C57 C 0.13524 0.81303 0.19585 0.0
O58 O 0.08819 0.83005 0.13394 0.0
O59 O 0.09964 0.85304 0.16869 0.0
O60 O 0.12015 0.81997 0.20585 0.0
O61 O 0.13026 0.80611 0.17239 0.0
C62 C 0.0905 0.7666 0.1422 0.0
O63 O 0.07391 0.81192 0.20025 0.0
O64 O 0.05862 0.79658 0.16293 0.0
In65 In 0.53479 0.77877 0.45831 0.0
O66 O 0.55099 0.77912 0.42302 0.0
O67 O 0.57193 0.78529 0.45856 0.0
C68 C 0.49281 0.77484 0.43207 0.0
C69 C 0.53952 0.74184 0.48666 0.0
C70 C 0.54316 0.82569 0.47918 0.0
O71 O 0.50507 0.76028 0.42684 0.0
O72 O 0.50119 0.79049 0.45095 0.0
O73 O 0.53629 0.80891 0.49165 0.0
O74 O 0.54621 0.81843 0.45733 0.0
C75 C 0.57039 0.78381 0.43485 0.0
O76 O 0.53613 0.76217 0.4957 0.0
O77 O 0.53942 0.73961 0.46315 0.0
In78 In 0.59467 0.31075 0.6703 0.0
O79 O 0.59289 0.28105 0.63619 0.0
O80 O 0.59471 0.2714 0.67341 0.0
C81 C 0.5928 0.35031 0.6456 0.0
C82 C 0.55512 0.30211 0.68518 0.0
C83 C 0.63405 0.31507 0.70096 0.0
O84 O 0.58965 0.32879 0.63444 0.0
O85 O 0.59781 0.35225 0.66937 0.0
O86 O 0.61606 0.31301 0.70886 0.0
O87 O 0.63256 0.3165 0.67753 0.0
C88 C 0.59326 0.26437 0.65017 0.0
O89 O 0.57162 0.31554 0.69926 0.0
O90 O 0.55846 0.29429 0.66369 0.0
In91 In 0.03603 0.28141 0.95629 0.0
O92 O 0.05028 0.26211 0.98933 0.0
O93 O 0.02754 0.24077 0.9589 0.0
C94 C 0.04037 0.32381 0.98567 0.0
C95 C 0.07253 0.2858 0.93382 0.0
C96 C 0.99401 0.28203 0.93305 0.0
O97 O 0.03629 0.30366 0.99419 0.0
O98 O 0.04293 0.32234 0.9628 0.0
O99 O 1.00903 0.27949 0.92041 0.0
O100 O 0.99996 0.28296 0.95649 0.0
C101 C 0.03997 0.24108 0.97955 0.0
O102 O 0.05671 0.26785 0.92779 0.0
O103 O 0.0696 0.30197 0.95019 0.0
In104 In 0.43331 0.06482 0.29434 0.0
O105 O 0.46292 0.06156 0.26992 0.0
O106 O 0.43305 0.06341 0.24936 0.0
C107 C 0.45965 0.0616 0.34261 0.0
C108 C 0.41161 0.10708 0.29507 0.0
C109 C 0.40399 1.02027 0.29437 0.0
O110 O 0.45991 0.08153 0.33343 0.0
O111 O 0.44753 0.04439 0.32734 0.0
O112 O 0.40396 0.04039 0.30725 0.0
O113 O 0.41763 1.02263 0.27937 0.0
C114 C 0.45253 0.06162 0.24793 0.0
O115 O 0.40219 0.08539 0.29603 0.0
O116 O 0.4316 0.10757 0.29399 0.0
In117 In 0.28895 0.18387 0.54424 0.0
O118 O 0.29691 0.22062 0.56911 0.0
O119 O 0.29065 0.18841 0.58678 0.0
C120 C 0.29142 0.20164 0.49954 0.0
C121 C 0.32664 0.16779 0.55502 0.0
C122 C 0.24749 0.15886 0.54359 0.0
O123 O 0.28886 0.21461 0.51898 0.0
O124 O 0.29193 0.17985 0.50251 0.0
O125 O 0.26241 0.14826 0.53784 0.0
O126 O 0.25325 0.18171 0.54862 0.0
C127 C 0.29574 0.21143 0.58942 0.0
O128 O 0.30914 0.15353 0.54428 0.0
O129 O 0.32512 0.18971 0.55962 0.0
In130 In 0.16116 0.0749 0.83738 0.0
O131 O 0.13405 0.0835 0.80967 0.0
O132 O 0.15298 0.0586 0.79627 0.0
C133 C 0.13917 0.06756 0.87591 0.0
C134 C 0.18428 0.04033 0.83515 0.0
C135 C 0.18801 0.117 0.8359 0.0
O136 O 0.13504 0.05377 0.85519 0.0
O137 O 0.15395 0.08608 0.87706 0.0
O138 O 0.19457 0.09997 0.84613 0.0
O139 O 0.16788 0.11318 0.82751 0.0
C140 C 0.13774 0.06985 0.79123 0.0
O141 O 0.19008 0.05901 0.85159 0.0
O142 O 0.16657 0.03889 0.82049 0.0
In143 In 0.26421 0.87388 1.00646 0.0
O144 O 0.25795 0.84265 0.02934 0.0
O145 O 0.26809 0.87924 0.04814 0.0
C146 C 0.2539 0.84592 0.96202 0.0
C147 C 0.24188 0.90818 1.01437 0.0
C148 C 0.30661 0.8936 1.01003 0.0
O149 O 0.26423 0.83963 0.98123 0.0
O150 O 0.24576 0.86444 0.96659 0.0
O151 O 0.29237 0.89681 0.99249 0.0
O152 O 0.29969 0.87931 0.02469 0.0
C153 C 0.26398 0.85685 0.05003 0.0
O154 O 0.25989 0.91213 1.00664 0.0
O155 O 0.23385 0.88605 1.01522 0.0
In156 In 0.34132 0.41419 0.08172 0.0
O157 O 0.33164 0.37975 0.09804 0.0
O158 O 0.34529 0.41106 0.12504 0.0
C159 C 0.33538 0.38083 0.04062 0.0
C160 C 0.30573 0.43583 0.0745 0.0
C161 C 0.38287 0.43754 0.0783 0.0
O162 O 0.34582 0.37847 0.06172 0.0
O163 O 0.32733 0.39981 0.04041 0.0
O164 O 0.3741 0.44333 0.09717 0.0
O165 O 0.3709 0.42082 0.06251 0.0
C166 C 0.33642 0.38861 0.12102 0.0
O167 O 0.32384 0.44457 0.06859 0.0
O168 O 0.30583 0.41708 0.08517 0.0
In169 In 0.85398 0.2064 0.09889 0.0
O170 O 0.86076 0.16939 0.09837 0.0
O171 O 0.88706 0.19976 0.09866 0.0
C172 C 0.811 0.19136 0.09326 0.0
C173 C 0.86895 0.22256 0.14689 0.0
C174 C 0.85354 0.22751 0.0577 0.0
O175 O 0.82264 0.18038 0.08095 0.0
O176 O 0.82106 0.20975 0.10865 0.0
O177 O 0.85274 0.23916 0.07885 0.0
O178 O 0.85792 0.20664 0.0586 0.0
C179 C 0.8809 0.17718 0.0991 0.0
O180 O 0.87111 0.23638 0.1299 0.0
O181 O 0.85908 0.20093 0.13911 0.0
In182 In 0.19127 0.52824 0.32524 0.0
O183 O 0.21782 0.50279 0.34103 0.0
O184 O 0.19637 0.48827 0.30829 0.0
C185 C 0.21812 0.57586 0.32743 0.0
C186 C 0.16321 0.52923 0.27832 0.0
C187 C 0.16461 0.53052 0.3649 0.0
O188 O 0.21863 0.55704 0.31265 0.0
O189 O 0.20484 0.57082 0.34231 0.0
O190 O 0.15886 0.51773 0.34328 0.0
O191 O 0.18434 0.54147 0.36751 0.0
C192 C 0.21221 0.48464 0.32364 0.0
O193 O 0.15698 0.52527 0.29902 0.0
O194 O 0.18372 0.53259 0.28076 0.0
In195 In 0.83982 0.91256 0.58205 0.0
O196 O 0.83952 0.87749 0.5992 0.0
O197 O 0.83628 0.90778 0.62394 0.0
C198 C 0.83743 0.88823 0.53653 0.0
C199 C 0.80023 0.9259 0.57284 0.0
C200 C 0.88114 0.94049 0.58493 0.0
O201 O 0.8406 0.87863 0.5565 0.0
O202 O 0.83528 0.9102 0.53937 0.0
O203 O 0.86659 0.94779 0.59581 0.0
O204 O 0.8752 0.91912 0.57364 0.0
C205 C 0.8365 0.88527 0.62084 0.0
O206 O 0.81752 0.9413 0.58205 0.0
O207 O 0.80307 0.9044 0.5686 0.0
In208 In 0.96171 1.01866 0.28917 0.0
O209 O 0.98651 1.00613 0.26677 0.0
O210 O 0.96906 0.03198 0.25226 0.0
C211 C 0.98905 0.0248 0.33256 0.0
C212 C 0.94862 0.06118 0.29324 0.0
C213 C 0.93178 0.9771 0.28616 0.0
O214 O 0.99181 1.01169 0.31333 0.0
O215 O 0.97262 0.03452 0.33002 0.0
O216 O 0.93329 0.989 0.26769 0.0
O217 O 0.94491 0.98646 0.30603 0.0
C218 C 0.98374 1.01989 0.25008 0.0
O219 O 0.93538 0.04135 0.29302 0.0
O220 O 0.9678 0.05917 0.29118 0.0
In221 In 0.35136 0.70777 0.59791 0.0
O222 O 0.36823 0.67709 0.59435 0.0
O223 O 0.38307 0.71257 0.58599 0.0
C224 C 0.31033 0.68787 0.59844 0.0
C225 C 0.37306 0.72573 0.64271 0.0
C226 C 0.3439 0.72516 0.55547 0.0
O227 O 0.32297 0.67637 0.58843 0.0
O228 O 0.31865 0.70908 0.60966 0.0
O229 O 0.34538 0.73844 0.57646 0.0
O230 O 0.34668 0.70369 0.5566 0.0
C231 C 0.38402 0.69057 0.58738 0.0
O232 O 0.36886 0.73916 0.62598 0.0
O233 O 0.36481 0.70326 0.63712 0.0
In234 In 0.46367 0.51884 0.78842 0.0
O235 O 0.43728 0.54078 0.79465 0.0
O236 O 0.4667 0.55839 0.78412 0.0
C237 C 0.43968 0.47475 0.79069 0.0
C238 C 0.48414 0.51988 0.74848 0.0
C239 C 0.48854 0.52688 0.83362 0.0
O240 O 0.43191 0.48962 0.77775 0.0
O241 O 0.4593 0.48182 0.80099 0.0
O242 O 0.49297 0.51391 0.8153 0.0
O243 O 0.47158 0.53555 0.82932 0.0
C244 C 0.44866 0.56035 0.7904 0.0
O245 O 0.4938 0.52753 0.77071 0.0
O246 O 0.46411 0.51062 0.74611 0.0
In247 In 0.69066 0.02898 0.82469 0.0
O248 O 0.71598 1.00265 0.84114 0.0
O249 O 0.69596 0.98939 0.80697 0.0
C250 C 0.71755 0.07649 0.82833 0.0
C251 C 0.66654 0.0296 0.77537 0.0
C252 C 0.66753 0.03438 0.86697 0.0
O253 O 0.72392 0.0566 0.82377 0.0
O254 O 0.69793 0.07266 0.83146 0.0
O255 O 0.66026 1.01864 0.84746 0.0
O256 O 0.68633 0.04594 0.86563 0.0
C257 C 0.71099 0.9851 0.82307 0.0
O258 O 0.65751 0.02558 0.79442 0.0
O259 O 0.68702 0.03287 0.78113 0.0
In260 In 0.78798 0.68376 0.04262 0.0
O261 O 0.81031 0.6562 0.03862 0.0
O262 O 0.82454 0.69243 0.05586 0.0
C263 C 0.74825 0.65361 0.03854 0.0
C264 C 0.79129 0.70265 0.09141 0.0
C265 C 0.78872 0.70844 1.00215 0.0
O266 O 0.76599 0.64618 0.03968 0.0
O267 O 0.75022 0.67623 0.0377 0.0
O268 O 0.78499 0.71704 0.0233 0.0
O269 O 0.79137 0.68665 1.00083 0.0
C270 C 0.82733 0.67116 0.04967 0.0
O271 O 0.79373 0.71636 0.07451 0.0
O272 O 0.78698 0.68019 0.08345 0.0
In273 In 0.93224 0.56447 0.79549 0.0
O274 O 0.90312 0.58646 0.80458 0.0
O275 O 0.92819 0.60597 0.79009 0.0
C276 C 0.90565 0.5172 0.79171 0.0
C277 C 0.95223 0.55969 0.74943 0.0
C278 C 0.95665 0.56343 0.84547 0.0
O279 O 0.89967 0.53426 0.78062 0.0
O280 O 0.9249 0.52351 0.80353 0.0
O281 O 0.96371 0.57772 0.83036 0.0
O282 O 0.93794 0.55131 0.83585 0.0
C283 C 0.91014 0.60668 0.79737 0.0
O284 O 0.96286 0.56288 0.77181 0.0
O285 O 0.93223 0.55875 0.75039 0.0
In286 In 0.76471 0.36924 0.50471 0.0
O287 O 0.78157 0.34442 0.52637 0.0
O288 O 0.75621 0.35835 0.54126 0.0
C289 C 0.74871 0.34527 0.45892 0.0
C290 C 0.74307 0.40336 0.51548 0.0
C291 C 0.80566 0.39289 0.50542 0.0
O292 O 0.75561 0.33463 0.47699 0.0
O293 O 0.74544 0.36617 0.46581 0.0
O294 O 0.79559 0.39615 0.52351 0.0
O295 O 0.79498 0.37796 0.48683 0.0
C296 C 0.77184 0.34742 0.54486 0.0
O297 O 0.75992 0.40732 0.50537 0.0
O298 O 0.73632 0.38153 0.51882 0.0
In299 In 0.66312 0.57414 0.33601 0.0
O300 O 0.68972 0.55574 0.32503 0.0
O301 O 0.6652 0.53565 0.34223 0.0
C302 C 0.69027 0.61682 0.339 0.0
C303 C 0.63844 0.56822 0.29009 0.0
C304 C 0.64375 0.57005 0.37672 0.0
O305 O 0.69685 0.59827 0.34577 0.0
O306 O 0.66993 0.61402 0.33208 0.0
O307 O 0.6349 0.55978 0.35484 0.0
O308 O 0.66233 0.58336 0.3782 0.0
C309 C 0.68184 0.53576 0.3319 0.0
O310 O 0.63535 0.58227 0.30847 0.0
O311 O 0.65371 0.5571 0.295 0.0
Tb312 Tb 0.05073 0.04102 0.06215 0.0
Tb313 Tb 0.09775 0.06534 0.0874 0.0
C314 C 1.01116 0.035 0.05747 0.0
C315 C 1.00052 0.0548 0.05027 0.0
C316 C 1.00421 0.07663 0.06701 0.0
C317 C 0.99573 0.09625 0.05969 0.0
C318 C 0.98253 0.09392 0.03597 0.0
C319 C 0.98147 0.07363 0.01801 0.0
C320 C 0.99011 0.05392 0.02529 0.0
C321 C 0.07541 0.04506 0.02714 0.0
C322 C 0.06873 0.09818 0.06228 0.0
C323 C 0.1379 0.0722 0.10089 0.0
C324 C 0.15113 0.05371 0.10428 0.0
C325 C 0.1456 0.03152 0.08802 0.0
C326 C 0.15826 1.014 0.09073 0.0
C327 C 0.17699 1.01867 0.10934 0.0
C328 C 0.18178 0.04017 0.12663 0.0
C329 C 0.16875 0.05759 0.12421 0.0
C330 C 0.06744 0.06219 0.11627 0.0
C331 C 0.07972 1.00579 0.07981 0.0
O332 O 1.02344 0.03945 0.07994 0.0
O333 O 1.02048 0.0252 0.03988 0.0
O334 O 0.08091 0.05222 0.05052 0.0
O335 O 0.055 0.03461 0.02294 0.0
O336 O 0.05217 0.08014 0.06264 0.0
O337 O 0.08919 0.09662 0.07025 0.0
O338 O 0.12876 0.07257 0.07752 0.0
O339 O 0.12447 0.07358 0.11699 0.0
O340 O 0.06961 0.04721 0.09847 0.0
O341 O 0.08353 0.08083 0.11903 0.0
O342 O 0.09613 0.02509 0.08719 0.0
O343 O 0.05993 1.00776 0.06994 0.0
H344 H 1.01323 0.07854 0.08604 0.0
H345 H 0.99706 0.11183 0.07391 0.0
H346 H 0.97151 0.07174 0.99951 0.0
H347 H 0.98812 0.03779 1.01163 0.0
H348 H 0.13208 0.02808 0.07243 0.0
H349 H 0.15448 0.99779 0.07683 0.0
H350 H 0.19629 0.04407 0.14097 0.0
H351 H 0.17289 0.0744 0.13723 0.0
Tb352 Tb 0.31899 0.79392 0.30036 0.0
Tb353 Tb 0.30311 0.81024 0.34269 0.0
C354 C 0.32136 0.78733 0.25508 0.0
C355 C 0.333 0.80481 0.24123 0.0
C356 C 0.32654 0.82717 0.23852 0.0
C357 C 0.33425 0.84102 0.22077 0.0
C358 C 0.34751 0.8318 0.20504 0.0
C359 C 0.35823 0.8133 0.21244 0.0
C360 C 0.35034 0.79914 0.22999 0.0
C361 C 0.35207 0.79448 0.33652 0.0
C362 C 0.33201 0.85085 0.31965 0.0
C363 C 0.28996 0.82156 0.383 0.0
C364 C 0.28145 0.80668 0.40082 0.0
C365 C 0.28976 0.78586 0.40509 0.0
C366 C 0.27987 0.76967 0.41931 0.0
C367 C 0.26139 0.77395 0.42938 0.0
C368 C 0.25308 0.79484 0.42518 0.0
C369 C 0.26301 0.81113 0.41064 0.0
C370 C 0.27721 0.81141 0.29986 0.0
C371 C 0.29361 0.75174 0.32541 0.0
O372 O 0.3044 0.79361 0.26314 0.0
O373 O 0.33348 0.77825 0.27188 0.0
O374 O 0.33418 0.80045 0.34065 0.0
O375 O 0.35121 0.7882 0.31273 0.0
O376 O 0.32944 0.83381 0.30008 0.0
O377 O 0.32482 0.84473 0.34027 0.0
O378 O 0.31054 0.82258 0.38152 0.0
O379 O 0.27757 0.81721 0.36091 0.0
O380 O 0.28651 0.79443 0.30604 0.0
O381 O 0.2842 0.82986 0.3173 0.0
O382 O 0.29248 0.76956 0.34341 0.0
O383 O 0.30332 0.7576 0.30619 0.0
H384 H 0.31408 0.83287 0.2482 0.0
H385 H 0.32644 0.856 0.21617 0.0
H386 H 0.36926 0.80666 0.20108 0.0
H387 H 0.35637 0.78267 0.23297 0.0
H388 H 0.30382 0.78198 0.39732 0.0
H389 H 0.28732 0.75431 0.42336 0.0
H390 H 0.23937 0.79877 0.43363 0.0
H391 H 0.25629 0.82704 0.40691 0.0
Tb392 Tb 0.58204 0.04548 0.54996 0.0
Tb393 Tb 0.53824 0.0425 0.57227 0.0
C394 C 0.61972 0.04105 0.543 0.0
C395 C 0.63482 1.02376 0.54636 0.0
C396 C 0.64827 0.02399 0.56964 0.0
C397 C 0.66391 1.00919 0.57154 0.0
C398 C 0.66638 0.99382 0.55027 0.0
C399 C 0.65257 0.99314 0.52722 0.0
C400 C 0.6371 1.00802 0.52526 0.0
C401 C 0.54874 0.05176 0.51386 0.0
C402 C 0.55068 0.99466 0.54997 0.0
C403 C 0.49993 0.04431 0.57838 0.0
C404 C 0.48548 0.06213 0.5788 0.0
C405 C 0.47846 0.07233 0.55716 0.0
C406 C 0.46364 0.08795 0.55798 0.0
C407 C 0.45569 0.0937 0.58044 0.0
C408 C 0.46328 0.08406 0.60222 0.0
C409 C 0.47795 0.06837 0.60136 0.0
C410 C 0.57144 0.03696 0.60843 0.0
C411 C 0.5706 0.09322 0.57507 0.0
O412 O 0.61595 0.05387 0.5631 0.0
O413 O 0.60211 0.03329 0.52602 0.0
O414 O 0.54877 0.04787 0.5368 0.0
O415 O 0.56905 0.05373 0.51156 0.0
O416 O 0.57073 1.00684 0.55068 0.0
O417 O 0.53453 1.00494 0.55562 0.0
O418 O 0.50498 0.03649 0.55664 0.0
O419 O 0.51655 0.04858 0.59683 0.0
O420 O 0.57144 0.03981 0.58523 0.0
O421 O 0.55136 0.03623 0.61114 0.0
O422 O 0.55025 0.08168 0.57428 0.0
O423 O 0.58629 0.08244 0.56855 0.0
H424 H 0.6471 0.03596 0.58624 0.0
H425 H 0.67421 1.00989 0.58962 0.0
H426 H 0.65421 0.98168 0.51045 0.0
H427 H 0.62725 1.00761 0.50696 0.0
H428 H 0.48412 0.068 0.53954 0.0
H429 H 0.45826 0.09538 0.54099 0.0
H430 H 0.4573 0.08796 0.61973 0.0
H431 H 0.48311 0.06069 0.61829 0.0
Tb432 Tb 0.29852 0.30069 0.81533 0.0
Tb433 Tb 0.34154 0.2816 0.82048 0.0
C434 C 0.26077 0.30715 0.82017 0.0
C435 C 0.24547 0.30493 0.83879 0.0
C436 C 0.23591 0.282 0.8443 0.0
C437 C 0.21953 0.27971 0.85924 0.0
C438 C 0.2123 0.30031 0.86963 0.0
C439 C 0.22236 0.32339 0.86466 0.0
C440 C 0.23864 0.32563 0.84935 0.0
C441 C 0.33315 0.33157 0.80974 0.0
C442 C 0.32689 0.2996 0.86964 0.0
C443 C 0.37871 0.27327 0.81681 0.0
C444 C 0.39353 0.27291 0.79801 0.0
C445 C 0.40399 0.2946 0.79062 0.0
C446 C 0.41966 0.29411 0.77491 0.0
C447 C 0.42513 0.27196 0.76618 0.0
C448 C 0.41413 0.25019 0.77286 0.0
C449 C 0.39857 0.25069 0.78873 0.0
C450 C 0.3063 0.25091 0.82492 0.0
C451 C 0.3143 0.28319 0.76616 0.0
O452 O 0.26491 0.2869 0.80938 0.0
O453 O 0.27818 0.32461 0.82563 0.0
O454 O 0.33236 0.31617 0.825 0.0
O455 O 0.31361 0.33156 0.79822 0.0
O456 O 0.30763 0.29947 0.85597 0.0
O457 O 0.34382 0.29524 0.85964 0.0
O458 O 0.37524 0.29455 0.82579 0.0
O459 O 0.361 0.25624 0.81246 0.0
O460 O 0.30794 0.26665 0.8103 0.0
O461 O 0.32548 0.25047 0.83702 0.0
O462 O 0.33358 0.284 0.78003 0.0
O463 O 0.29689 0.28649 0.77597 0.0
H464 H 0.24055 0.26557 0.83643 0.0
H465 H 0.21206 0.26148 0.8618 0.0
H466 H 0.21764 0.33978 0.87243 0.0
H467 H 0.24558 0.34357 0.84534 0.0
H468 H 0.40046 0.31204 0.79736 0.0
H469 H 0.42763 0.31113 0.76974 0.0
H470 H 0.4181 0.23287 0.76652 0.0
H471 H 0.39086 0.23372 0.79427 0.0
Tb472 Tb 0.06127 0.06387 0.56127 0.0
Tb473 Tb 0.0739 1.01782 0.55486 0.0
C474 C 0.06316 0.10745 0.55921 0.0
C475 C 0.05312 0.11703 0.53743 0.0
C476 C 0.06373 0.11944 0.51639 0.0
C477 C 0.05487 0.13008 0.49646 0.0
C478 C 0.03594 0.13917 0.49811 0.0
C479 C 1.02338 0.13282 0.51657 0.0
C480 C 0.03219 0.12218 0.53659 0.0
C481 C 1.02436 0.03177 0.55929 0.0
C482 C 0.05501 0.03611 0.50711 0.0
C483 C 0.08156 0.97616 0.55553 0.0
C484 C 0.09227 0.96496 0.57553 0.0
C485 C 0.08121 0.95704 0.59479 0.0
C486 C 0.09105 0.94478 0.61263 0.0
C487 C 0.11204 0.94046 0.61138 0.0
C488 C 0.12381 0.95031 0.59359 0.0
C489 C 0.11387 0.96229 0.57553 0.0
C490 C 0.10463 0.05533 0.55075 0.0
C491 C 0.07787 0.04574 0.61062 0.0
O492 O 0.07924 0.09675 0.55506 0.0
O493 O 0.04968 0.09528 0.57183 0.0
O494 O 0.04289 0.02653 0.55763 0.0
O495 O 0.02643 0.0551 0.56067 0.0
O496 O 0.05934 0.05742 0.52103 0.0
O497 O 0.05585 1.01609 0.51723 0.0
O498 O 0.06271 0.98141 0.55852 0.0
O499 O 0.09425 0.99365 0.54764 0.0
O500 O 0.09225 0.05378 0.56709 0.0
O501 O 0.09945 0.03533 0.53514 0.0
O502 O 0.08065 0.02588 0.59681 0.0
O503 O 0.07064 0.06324 0.60019 0.0
H504 H 0.07949 0.11457 0.51594 0.0
H505 H 0.06463 0.13484 0.48211 0.0
H506 H 1.00863 0.13978 0.51779 0.0
H507 H 1.02325 0.11945 0.55205 0.0
H508 H 0.06466 0.95931 0.59548 0.0
H509 H 0.08156 0.93704 0.62606 0.0
H510 H 0.14008 0.94721 0.59258 0.0
H511 H 0.12281 0.96869 0.56106 0.0
Tb512 Tb 0.32696 0.78509 0.80179 0.0
Tb513 Tb 0.3186 0.83713 0.80084 0.0
C514 C 0.33052 0.74164 0.79818 0.0
C515 C 0.34864 0.72956 0.80585 0.0
C516 C 0.36928 0.73747 0.79967 0.0
C517 C 0.38527 0.72359 0.80342 0.0
C518 C 0.38155 0.70219 0.81501 0.0
C519 C 0.3616 0.69632 0.82403 0.0
C520 C 0.34518 0.70946 0.81887 0.0
C521 C 0.34078 0.816 0.84397 0.0
C522 C 0.36367 0.82536 0.79472 0.0
C523 C 0.31073 0.87802 0.81139 0.0
C524 C 0.29412 0.88951 0.79879 0.0
C525 C 0.27185 0.88049 0.79845 0.0
C526 C 0.25673 0.89439 0.79071 0.0
C527 C 0.26401 0.91736 0.78383 0.0
C528 C 0.28543 0.92404 0.77958 0.0
C529 C 0.30062 0.91031 0.78752 0.0
C530 C 0.31565 0.81361 0.75541 0.0
C531 C 0.27856 0.79399 0.79759 0.0
O532 O 0.33301 0.75526 0.78015 0.0
O533 O 0.3223 0.75182 0.81655 0.0
O534 O 0.32404 0.81413 0.82807 0.0
O535 O 0.34971 0.79773 0.83819 0.0
O536 O 0.35355 0.80286 0.78605 0.0
O537 O 0.35398 0.841 0.80658 0.0
O538 O 0.30385 0.85961 0.8231 0.0
O539 O 0.32588 0.87428 0.7982 0.0
O540 O 0.31179 0.80485 0.77512 0.0
O541 O 0.31819 0.83704 0.7604 0.0
O542 O 0.28539 0.81779 0.79839 0.0
O543 O 0.29179 0.77827 0.79824 0.0
H544 H 0.37277 0.75373 0.79068 0.0
H545 H 0.40001 0.72955 0.79609 0.0
H546 H 0.35807 0.68127 0.83457 0.0
H547 H 0.32959 0.70365 0.82471 0.0
H548 H 0.26631 0.86388 0.80611 0.0
H549 H 0.24014 0.88906 0.79402 0.0
H550 H 0.29116 0.94179 0.77421 0.0
H551 H 0.31766 0.91703 0.78681 0.0
Tb552 Tb 0.53321 0.05662 0.02977 0.0
Tb553 Tb 0.57042 0.05093 0.06729 0.0
C554 C 0.49638 0.04919 1.00298 0.0
C555 C 0.4748 0.03841 1.00798 0.0
C556 C 0.47012 1.01379 1.01157 0.0
C557 C 0.45018 1.00378 0.01751 0.0
C558 C 0.43449 1.01808 0.01971 0.0
C559 C 0.43884 0.04264 0.01617 0.0
C560 C 0.45905 0.05283 1.01036 0.0
C561 C 0.55898 0.09771 0.05039 0.0
C562 C 0.52742 0.05253 0.09022 0.0
C563 C 0.60821 0.05754 0.09044 0.0
C564 C 0.62831 0.06629 0.08093 0.0
C565 C 0.6305 0.08709 0.0684 0.0
C566 C 0.65056 0.09692 0.06223 0.0
C567 C 0.66847 0.08607 0.0686 0.0
C568 C 0.66548 0.06353 0.07784 0.0
C569 C 0.64545 0.05373 0.08411 0.0
C570 C 0.54359 1.01051 0.04655 0.0
C571 C 0.57701 0.05519 1.00797 0.0
O572 O 0.50997 0.03429 1.00153 0.0
O573 O 0.50563 0.0703 0.01627 0.0
O574 O 0.55341 0.07926 0.06093 0.0
O575 O 0.54938 0.0934 0.02691 0.0
O576 O 0.51841 0.05207 0.06578 0.0
O577 O 0.54872 0.0531 0.09594 0.0
O578 O 0.59564 0.07341 0.09327 0.0
O579 O 0.59742 0.03593 0.07977 0.0
O580 O 0.55008 0.02867 0.03621 0.0
O581 O 0.55407 1.01382 0.0696 0.0
O582 O 0.58584 0.05698 0.0324 0.0
O583 O 0.55562 0.05364 1.00185 0.0
H584 H 0.48176 1.00211 1.0097 0.0
H585 H 0.44677 0.98465 0.01991 0.0
H586 H 0.4266 0.05368 0.01753 0.0
H587 H 0.46238 0.07187 1.0077 0.0
H588 H 0.61718 0.09661 0.06479 0.0
H589 H 0.65265 0.11442 0.05525 0.0
H590 H 0.67926 0.05501 0.08288 0.0
H591 H 0.64375 0.03719 0.09287 0.0
Tb592 Tb 0.28881 0.27566 0.29856 0.0
Tb593 Tb 0.33033 0.31044 0.3189 0.0
C594 C 0.25235 0.25367 0.30284 0.0
C595 C 0.23227 0.26315 0.30146 0.0
C596 C 0.23184 0.28498 0.31663 0.0
C597 C 0.21229 0.29245 0.31769 0.0
C598 C 0.19303 0.27806 0.30386 0.0
C599 C 0.19359 0.25767 0.28686 0.0
C600 C 0.21328 0.25028 0.28555 0.0
C601 C 0.30027 0.29621 0.26008 0.0
C602 C 0.28864 0.33521 0.31371 0.0
C603 C 0.36929 0.32994 0.32424 0.0
C604 C 0.38628 0.31834 0.31553 0.0
C605 C 0.38375 0.3076 0.2902 0.0
C606 C 0.39998 0.29672 0.28203 0.0
C607 C 0.41868 0.29624 0.29913 0.0
C608 C 0.4204 0.30495 0.32479 0.0
C609 C 0.40422 0.316 0.33298 0.0
C610 C 0.311 0.28804 0.35232 0.0
C611 C 0.33098 0.25187 0.29934 0.0
O612 O 0.26735 0.26373 0.32238 0.0
O613 O 0.26007 0.25093 0.28163 0.0
O614 O 0.31084 0.3007 0.2825 0.0
O615 O 0.28396 0.27826 0.25872 0.0
O616 O 0.27786 0.31206 0.30598 0.0
O617 O 0.31031 0.3394 0.31963 0.0
O618 O 0.3546 0.33439 0.30649 0.0
O619 O 0.36081 0.32027 0.3424 0.0
O620 O 0.31294 0.27973 0.33052 0.0
O621 O 0.32054 0.3109 0.35665 0.0
O622 O 0.34159 0.27528 0.30592 0.0
O623 O 0.30921 0.2471 0.2958 0.0
H624 H 0.24628 0.29552 0.32896 0.0
H625 H 0.21194 0.30796 0.3313 0.0
H626 H 0.17861 0.24635 0.27635 0.0
H627 H 0.21344 0.23377 0.27334 0.0
H628 H 0.36958 0.30822 0.2765 0.0
H629 H 0.39869 0.29032 0.26209 0.0
H630 H 0.43504 0.30493 0.33804 0.0
H631 H 0.40603 0.32337 0.35274 0.0
Tb632 Tb 0.56059 0.56505 0.06373 0.0
Tb633 Tb 0.57334 0.5168 0.054 0.0
C634 C 0.55151 0.606 0.06362 0.0
C635 C 0.54908 0.62005 0.0428 0.0
C636 C 0.56546 0.62437 0.02789 0.0
C637 C 0.56171 0.63543 1.00633 0.0
C638 C 0.54146 0.64175 0.99935 0.0
C639 C 0.52483 0.6363 1.01363 0.0
C640 C 0.52876 0.62587 0.03546 0.0
C641 C 0.53136 0.52664 0.0691 0.0
C642 C 0.55876 0.54114 1.00766 0.0
C643 C 0.57103 0.47225 0.05225 0.0
C644 C 0.58148 0.45907 0.07083 0.0
C645 C 0.57028 0.45133 0.09008 0.0
C646 C 0.58071 0.4416 0.10973 0.0
C647 C 0.60227 0.43892 0.11008 0.0
C648 C 0.61353 0.44615 0.09085 0.0
C649 C 0.60323 0.45648 0.07134 0.0
C650 C 0.60852 0.55128 0.05504 0.0
C651 C 0.58322 0.54673 0.10916 0.0
O652 O 0.57124 0.60284 0.0717 0.0
O653 O 0.53672 0.58598 0.06058 0.0
O654 O 0.54287 0.5285 0.05188 0.0
O655 O 0.53681 0.54664 0.08474 0.0
O656 O 0.56043 0.56138 0.02324 0.0
O657 O 0.56077 0.52023 0.01557 0.0
O658 O 0.55644 0.48348 0.06039 0.0
O659 O 0.58392 0.48567 0.03992 0.0
O660 O 0.58959 0.55388 0.05778 0.0
O661 O 0.60827 0.52811 0.05245 0.0
O662 O 0.57912 0.52475 0.09572 0.0
O663 O 0.58079 0.56629 0.09887 0.0
H664 H 0.58107 0.6192 0.03278 0.0
H665 H 0.57483 0.63976 0.99569 0.0
H666 H 0.50898 0.64077 1.00828 0.0
H667 H 0.51577 0.62187 0.04637 0.0
H668 H 0.55349 0.453 0.09015 0.0
H669 H 0.57167 0.43519 0.12414 0.0
H670 H 0.62999 0.44329 0.09068 0.0
H671 H 0.61224 0.46239 0.05676 0.0
Tb672 Tb 0.82848 0.28844 0.29894 0.0
Tb673 Tb 0.81881 0.33974 0.29509 0.0
C674 C 0.83127 0.24447 0.29387 0.0
C675 C 0.84902 0.23088 0.29768 0.0
C676 C 0.86087 0.22652 0.27818 0.0
C677 C 0.87694 0.21268 0.28124 0.0
C678 C 0.88152 0.2029 0.30386 0.0
C679 C 0.86996 0.20756 0.32355 0.0
C680 C 0.85379 0.22139 0.32046 0.0
C681 C 0.83876 0.31934 0.34091 0.0
C682 C 0.86634 0.32895 0.29594 0.0
C683 C 0.81815 0.384 0.30114 0.0
C684 C 0.80071 0.39754 0.29678 0.0
C685 C 0.7939 0.40851 0.31794 0.0
C686 C 0.77494 0.41762 0.315 0.0
C687 C 0.76282 0.41629 0.29084 0.0
C688 C 0.77018 0.40677 0.26944 0.0
C689 C 0.78904 0.39714 0.2724 0.0
C690 C 0.80733 0.30912 0.25408 0.0
C691 C 0.7806 0.29829 0.29816 0.0
O692 O 0.83142 0.25781 0.27541 0.0
O693 O 0.82636 0.25557 0.31422 0.0
O694 O 0.82267 0.31722 0.32367 0.0
O695 O 0.84867 0.30151 0.33637 0.0
O696 O 0.85795 0.30578 0.28791 0.0
O697 O 0.8541 0.3446 0.30192 0.0
O698 O 0.81602 0.37 0.31888 0.0
O699 O 0.8239 0.37323 0.28111 0.0
O700 O 0.82401 0.31102 0.27048 0.0
O701 O 0.79794 0.32745 0.25808 0.0
O702 O 0.78775 0.32218 0.30267 0.0
O703 O 0.79321 0.28251 0.29382 0.0
H704 H 0.8575 0.23343 0.26034 0.0
H705 H 0.88526 0.20898 0.26552 0.0
H706 H 0.87326 0.20033 0.34122 0.0
H707 H 0.84486 0.22439 0.33579 0.0
H708 H 0.80271 0.40901 0.33687 0.0
H709 H 0.76955 0.42548 0.33162 0.0
H710 H 0.76103 0.40614 0.25068 0.0
H711 H 0.794 0.38874 0.25577 0.0
Tb712 Tb 0.03136 0.5609 0.5312 0.0
Tb713 Tb 0.06982 0.54911 0.56561 0.0
C714 C 0.99326 0.55481 0.50803 0.0
C715 C 0.97196 0.54882 0.51575 0.0
C716 C 0.96889 0.53318 0.53415 0.0
C717 C 0.94799 0.5216 0.53617 0.0
C718 C 0.93004 0.52544 0.51967 0.0
C719 C 0.93298 0.54366 0.50387 0.0
C720 C 0.95394 0.55518 0.50177 0.0
C721 C 0.05777 0.59789 0.55888 0.0
C722 C 0.02754 0.55117 0.59134 0.0
C723 C 0.10892 0.55676 0.58481 0.0
C724 C 0.12841 0.56131 0.57282 0.0
C725 C 0.13204 0.581 0.55876 0.0
C726 C 0.15274 0.58935 0.55343 0.0
C727 C 0.16987 0.57817 0.56224 0.0
C728 C 0.16527 0.55595 0.57194 0.0
C729 C 0.14462 0.54774 0.57759 0.0
C730 C 0.04274 0.51209 0.53896 0.0
C731 C 0.07372 0.5567 0.50559 0.0
O732 O 1.00445 0.53748 0.5093 0.0
O733 O 1.00514 0.57651 0.51662 0.0
O734 O 0.05203 0.5769 0.56416 0.0
O735 O 0.047 0.59967 0.53682 0.0
O736 O 1.01841 0.55397 0.5678 0.0
O737 O 0.04862 0.54944 0.59567 0.0
O738 O 0.09748 0.57384 0.58381 0.0
O739 O 0.09682 0.53469 0.58027 0.0
O740 O 0.04873 0.53274 0.53283 0.0
O741 O 0.05388 0.51082 0.56102 0.0
O742 O 0.08311 0.55408 0.52888 0.0
O743 O 0.05283 0.55905 0.50177 0.0
H744 H 0.98257 0.52788 0.54512 0.0
H745 H 0.94616 0.50753 0.54838 0.0
H746 H 0.91923 0.547 0.49117 0.0
H747 H 0.95607 0.56734 0.48766 0.0
H748 H 0.11956 0.5914 0.55393 0.0
H749 H 0.1559 0.60643 0.54574 0.0
H750 H 0.17835 0.54693 0.5785 0.0
H751 H 0.14195 0.53214 0.58771 0.0
Tb752 Tb 0.79735 0.79995 0.31793 0.0
Tb753 Tb 0.84093 0.78389 0.31701 0.0
C754 C 0.75972 0.79915 0.32826 0.0
C755 C 0.74563 0.80697 0.34597 0.0
C756 C 0.73946 0.79207 0.36417 0.0
C757 C 0.7217 0.79502 0.3761 0.0
C758 C 0.70966 0.81288 0.37002 0.0
C759 C 0.71716 0.82922 0.35367 0.0
C760 C 0.73483 0.82619 0.34162 0.0
C761 C 0.82825 0.83364 0.3091 0.0
C762 C 0.83133 0.80335 0.3692 0.0
C763 C 0.87792 0.77678 0.3108 0.0
C764 C 0.89216 0.77508 0.29171 0.0
C765 C 0.90237 0.79603 0.28284 0.0
C766 C 0.91836 0.79458 0.26782 0.0
C767 C 0.92439 0.7722 0.26138 0.0
C768 C 0.91352 0.75108 0.26931 0.0
C769 C 0.89762 0.75254 0.28449 0.0
C770 C 0.8075 0.75039 0.32245 0.0
C771 C 0.8089 0.78182 0.26591 0.0
O772 O 0.77247 0.78465 0.33607 0.0
O773 O 0.76855 0.81432 0.31398 0.0
O774 O 0.8308 0.81801 0.32386 0.0
O775 O 0.80764 0.83245 0.30109 0.0
O776 O 0.81178 0.80503 0.35781 0.0
O777 O 0.84633 0.79695 0.35684 0.0
O778 O 0.87395 0.79828 0.31809 0.0
O779 O 0.8608 0.75925 0.30851 0.0
O780 O 0.80765 0.76716 0.30921 0.0
O781 O 0.82731 0.75089 0.33315 0.0
O782 O 0.8296 0.78655 0.27707 0.0
O783 O 0.79286 0.78198 0.27924 0.0
H784 H 0.74728 0.77691 0.36787 0.0
H785 H 0.71639 0.78205 0.38849 0.0
H786 H 0.70852 0.84351 0.34897 0.0
H787 H 0.73909 0.83792 0.3277 0.0
H788 H 0.89855 0.81367 0.28812 0.0
H789 H 0.92631 0.81107 0.2616 0.0
H790 H 0.91798 0.73364 0.2647 0.0
H791 H 0.89015 0.73618 0.29134 0.0
Tb792 Tb 0.81821 0.28976 0.79564 0.0
Tb793 Tb 0.80537 0.31107 0.84592 0.0
C794 C 0.81927 0.28013 0.7505 0.0
C795 C 0.82722 0.29887 0.73568 0.0
C796 C 0.81779 0.3196 0.73472 0.0
C797 C 0.82639 0.33827 0.7221 0.0
C798 C 0.84394 0.33593 0.70961 0.0
C799 C 0.8552 0.31705 0.7136 0.0
C800 C 0.84661 0.2983 0.72624 0.0
C801 C 0.85086 0.29218 0.83419 0.0
C802 C 0.83031 0.34805 0.81295 0.0
C803 C 0.80381 0.32377 0.8909 0.0
C804 C 0.79173 0.30879 0.90659 0.0
C805 C 0.79356 0.28433 0.90616 0.0
C806 C 0.78131 0.2693 0.91961 0.0
C807 C 0.7671 0.27842 0.93415 0.0
C808 C 0.76415 0.30249 0.93327 0.0
C809 C 0.77641 0.31763 0.91943 0.0
C810 C 0.7734 0.3087 0.80659 0.0
C811 C 0.79198 0.25213 0.82614 0.0
O812 O 0.80094 0.28167 0.75863 0.0
O813 O 0.8344 0.27624 0.76797 0.0
O814 O 0.8326 0.29845 0.83461 0.0
O815 O 0.85059 0.28364 0.81095 0.0
O816 O 0.82776 0.3294 0.79462 0.0
O817 O 0.82435 0.34481 0.8353 0.0
O818 O 0.82041 0.31564 0.88368 0.0
O819 O 0.79152 0.33051 0.87239 0.0
O820 O 0.79206 0.30356 0.80724 0.0
O821 O 0.77217 0.31527 0.82993 0.0
O822 O 0.7931 0.27031 0.84503 0.0
O823 O 0.79979 0.25647 0.80518 0.0
H824 H 0.80343 0.32116 0.74302 0.0
H825 H 0.81741 0.35268 0.71902 0.0
H826 H 0.8687 0.31501 0.70385 0.0
H827 H 0.85472 0.28303 0.72797 0.0
H828 H 0.80485 0.27677 0.8959 0.0
H829 H 0.78456 0.25111 0.9203 0.0
H830 H 0.75353 0.30997 0.94463 0.0
H831 H 0.77429 0.33627 0.91916 0.0
Tb832 Tb 0.78641 0.77528 0.79766 0.0
Tb833 Tb 0.82587 0.80809 0.81584 0.0
C834 C 0.74824 0.75219 0.79423 0.0
C835 C 0.72794 0.76036 0.7973 0.0
C836 C 0.72074 0.75959 0.82062 0.0
C837 C 0.70317 0.76989 0.82522 0.0
C838 C 0.69204 0.78059 0.80635 0.0
C839 C 0.69882 0.78089 0.78275 0.0
C840 C 0.71671 0.77086 0.77824 0.0
C841 C 0.80517 0.79221 0.76108 0.0
C842 C 0.78552 0.83441 0.81301 0.0
C843 C 0.8646 0.82778 0.81939 0.0
C844 C 0.88182 0.81518 0.81316 0.0
C845 C 0.87986 0.80182 0.78904 0.0
C846 C 0.89657 0.79054 0.78302 0.0
C847 C 0.91527 0.79248 0.80103 0.0
C848 C 0.91625 0.80347 0.82582 0.0
C849 C 0.89957 0.81488 0.83186 0.0
C850 C 0.80721 0.79133 0.85228 0.0
C851 C 0.82721 0.7497 0.80025 0.0
O852 O 0.76274 0.75594 0.81491 0.0
O853 O 0.7569 0.75786 0.77453 0.0
O854 O 0.80363 0.80433 0.78152 0.0
O855 O 0.79586 0.76961 0.76054 0.0
O856 O 0.77455 0.8112 0.80612 0.0
O857 O 0.80719 0.83818 0.8171 0.0
O858 O 0.84981 0.82933 0.80025 0.0
O859 O 0.85622 0.82141 0.83903 0.0
O860 O 0.80875 0.77898 0.83194 0.0
O861 O 0.8164 0.81393 0.85268 0.0
O862 O 0.83773 0.77303 0.80455 0.0
O863 O 0.80563 0.74556 0.79792 0.0
H864 H 0.72915 0.75173 0.83568 0.0
H865 H 0.69863 0.76992 0.84383 0.0
H866 H 0.69037 0.78892 0.76788 0.0
H867 H 0.72195 0.77175 0.76007 0.0
H868 H 0.86589 0.80087 0.77446 0.0
H869 H 0.89586 0.78245 0.76368 0.0
H870 H 0.93088 0.80539 0.83973 0.0
H871 H 0.90098 0.82433 0.85078 0.0
Tb872 Tb 0.5519 0.53994 0.55683 0.0
Tb873 Tb 0.59802 0.56299 0.58767 0.0
C874 C 0.51186 0.52878 0.54898 0.0
C875 C 0.4989 0.54742 0.54976 0.0
C876 C 0.50616 0.56781 0.56849 0.0
C877 C 0.49805 0.58869 0.56614 0.0
C878 C 0.48219 0.58921 0.54544 0.0
C879 C 0.47481 0.56913 0.52664 0.0
C880 C 0.48332 0.5482 0.52871 0.0
C881 C 0.58051 0.54419 0.52636 0.0
C882 C 0.57046 0.59765 0.5631 0.0
C883 C 0.63787 0.57009 0.60372 0.0
C884 C 0.65165 0.55211 0.60651 0.0
C885 C 0.64531 0.5293 0.5914 0.0
C886 C 0.65891 0.51263 0.59246 0.0
C887 C 0.67949 0.51908 0.60769 0.0
C888 C 0.68538 0.54122 0.62396 0.0
C889 C 0.67128 0.55762 0.62362 0.0
C890 C 0.56506 0.56054 0.6125 0.0
C891 C 0.57953 0.50392 0.5776 0.0
O892 O 0.52342 0.527 0.57075 0.0
O893 O 0.52314 0.52949 0.53049 0.0
O894 O 0.58369 0.55062 0.54985 0.0
O895 O 0.56023 0.53374 0.51922 0.0
O896 O 0.55317 0.57952 0.55934 0.0
O897 O 0.59039 0.59513 0.57225 0.0
O898 O 0.62977 0.57168 0.58025 0.0
O899 O 0.62336 0.56937 0.61872 0.0
O900 O 0.56792 0.54582 0.59478 0.0
O901 O 0.58205 0.57831 0.61754 0.0
O902 O 0.5951 0.52299 0.58857 0.0
O903 O 0.56141 0.50629 0.56344 0.0
H904 H 0.5187 0.56805 0.58457 0.0
H905 H 0.50344 0.60412 0.58099 0.0
H906 H 0.46207 0.56941 0.51095 0.0
H907 H 0.47823 0.53293 0.5137 0.0
H908 H 0.63064 0.52496 0.57741 0.0
H909 H 0.6544 0.49592 0.57922 0.0
H910 H 0.70147 0.54652 0.63539 0.0
H911 H 0.67625 0.5751 0.63552 0.0
Tb912 Tb 0.08066 0.54504 0.05286 0.0
Tb913 Tb 0.03587 0.54259 0.07214 0.0
C914 C 0.11991 0.54181 0.05226 0.0
C915 C 0.13401 0.52333 0.0504 0.0
C916 C 0.14454 0.51583 0.07216 0.0
C917 C 0.16086 0.50204 0.0706 0.0
C918 C 0.16704 0.49509 0.04716 0.0
C919 C 0.15497 0.50099 0.02525 0.0
C920 C 0.13911 0.51523 0.0269 0.0
C921 C 0.04835 0.54957 1.01453 0.0
C922 C 0.04846 0.49404 0.0509 0.0
C923 C 0.99666 0.54415 0.07382 0.0
C924 C 0.98297 0.56271 0.07531 0.0
C925 C 0.97579 0.57321 0.05393 0.0
C926 C 0.96151 0.58934 0.05539 0.0
C927 C 0.95437 0.5953 0.07823 0.0
C928 C 0.96189 0.5854 0.09976 0.0
C929 C 0.97601 0.56911 0.09828 0.0
C930 C 0.06679 0.53882 0.11152 0.0
C931 C 0.06773 0.59369 0.0743 0.0
O932 O 0.11181 0.54523 0.07303 0.0
O933 O 0.10601 0.5429 0.03213 0.0
O934 O 0.04779 0.54646 0.03759 0.0
O935 O 0.06882 0.55083 1.01295 0.0
O936 O 0.06774 0.50604 0.04793 0.0
O937 O 0.03331 0.50442 0.05929 0.0
O938 O 1.00401 0.53956 0.05268 0.0
O939 O 1.01133 0.54492 0.09376 0.0
O940 O 0.06915 0.54103 0.08846 0.0
O941 O 0.04617 0.53778 0.11132 0.0
O942 O 0.04807 0.58171 0.07601 0.0
O943 O 0.0833 0.58329 0.06677 0.0
H944 H 0.14096 0.52158 0.09063 0.0
H945 H 0.16922 0.49807 0.08814 0.0
H946 H 0.1579 0.49521 1.00653 0.0
H947 H 0.13132 0.52054 1.00968 0.0
H948 H 0.98082 0.56865 0.03597 0.0
H949 H 0.95573 0.59687 0.03861 0.0
H950 H 0.95636 0.58974 0.11747 0.0
H951 H 0.98115 0.56113 0.115 0.0
H952 H 0.06994 0.23352 0.02064 0.0
H953 H 1.01496 0.19664 0.96311 0.0
H954 H 1.01762 0.15782 0.97851 0.0
H955 H 0.1006 0.18459 0.01797 0.0
H956 H 0.11017 0.18792 0.05155 0.0
H957 H 0.1044 0.2139 0.03692 0.0
H958 H 0.07788 0.2209 0.06787 0.0
H959 H 0.08366 0.19497 0.0826 0.0
H960 H 0.05592 0.19636 0.07026 0.0
H961 H 1.02469 0.12358 0.99854 0.0
H962 H 0.03652 0.09306 0.02302 0.0
H963 H 0.08836 0.14853 0.06898 0.0
C964 C 0.05844 0.21724 1.01146 0.0
C965 C 0.04211 0.21826 0.99057 0.0
C966 C 0.02753 0.19651 0.97902 0.0
C967 C 0.0289 0.17427 0.98764 0.0
C968 C 0.04503 0.17375 1.00793 0.0
C969 C 0.05965 0.19444 0.01986 0.0
C970 C 0.07539 0.18788 0.04128 0.0
C971 C 0.09904 0.19393 0.03664 0.0
C972 C 0.07307 0.2008 0.06703 0.0
C973 C 0.06719 0.16031 0.03912 0.0
C974 C 0.04956 0.153 0.01973 0.0
C975 C 0.03846 0.12899 1.01379 0.0
C976 C 0.04531 0.11176 0.02805 0.0
C977 C 0.06323 0.11826 0.04823 0.0
C978 C 0.07461 0.14296 0.0537 0.0
H979 H 0.16707 0.8458 0.23008 0.0
H980 H 0.14902 0.77058 0.19465 0.0
H981 H 0.18267 0.76184 0.21813 0.0
H982 H 0.2245 0.85117 0.22655 0.0
H983 H 0.23385 0.87093 0.25617 0.0
H984 H 0.20768 0.87115 0.2379 0.0
H985 H 0.18916 0.86195 0.27645 0.0
H986 H 0.21523 0.86165 0.2949 0.0
H987 H 0.1932 0.83563 0.2915 0.0
H988 H 0.21844 0.7612 0.24458 0.0
H989 H 0.25463 0.76884 0.27169 0.0
H990 H 0.25117 0.84491 0.2893 0.0
C991 C 0.17023 0.8275 0.22753 0.0
C992 C 0.15547 0.80876 0.21069 0.0
C993 C 0.1602 0.78513 0.20743 0.0
C994 C 0.17923 0.78 0.22074 0.0
C995 C 0.19367 0.79883 0.23696 0.0
C996 C 0.18956 0.82217 0.2403 0.0
C997 C 0.20852 0.83927 0.25781 0.0
C998 C 0.21927 0.85932 0.24377 0.0
C999 C 0.20108 0.85026 0.28158 0.0
C1000 C 0.22366 0.8218 0.26412 0.0
C1001 C 0.21472 0.79858 0.25181 0.0
C1002 C 0.22565 0.77933 0.25426 0.0
C1003 C 0.24627 0.78387 0.26963 0.0
C1004 C 0.25588 0.80748 0.28251 0.0
C1005 C 0.24433 0.82668 0.27963 0.0
H1006 H 0.54018 0.84956 0.52634 0.0
H1007 H 0.55047 0.86128 0.4502 0.0
H1008 H 0.55038 0.90452 0.46028 0.0
H1009 H 0.50524 0.89281 0.53456 0.0
H1010 H 0.51717 0.90457 0.56695 0.0
H1011 H 0.51759 0.87365 0.55462 0.0
H1012 H 0.55963 0.88206 0.56747 0.0
H1013 H 0.55923 0.91284 0.58024 0.0
H1014 H 0.57594 0.90738 0.55674 0.0
H1015 H 0.54773 0.94503 0.47617 0.0
H1016 H 0.54893 0.98476 0.50071 0.0
H1017 H 0.54265 0.95016 0.56812 0.0
C1018 C 0.54253 0.86134 0.51195 0.0
C1019 C 0.5451 0.85194 0.48738 0.0
C1020 C 0.54835 0.86792 0.46909 0.0
C1021 C 0.54821 0.89257 0.47454 0.0
C1022 C 0.54511 0.90118 0.4985 0.0
C1023 C 0.54285 0.88644 0.51724 0.0
C1024 C 0.54097 0.90136 0.54179 0.0
C1025 C 0.51893 0.89256 0.54995 0.0
C1026 C 0.56008 0.90088 0.5628 0.0
C1027 C 0.54241 0.92654 0.53356 0.0
C1028 C 0.54443 0.92563 0.50834 0.0
C1029 C 0.54622 0.94613 0.49596 0.0
C1030 C 0.54677 0.96851 0.50995 0.0
C1031 C 0.54569 0.97018 0.53599 0.0
C1032 C 0.54311 0.94902 0.54804 0.0
H1033 H 0.54098 0.32033 0.72788 0.0
H1034 H 0.52158 0.26575 0.66134 0.0
H1035 H 0.48683 0.25093 0.67552 0.0
H1036 H 0.51695 0.28349 0.77142 0.0
H1037 H 0.50815 0.30837 0.78816 0.0
H1038 H 0.53186 0.31428 0.7732 0.0
H1039 H 0.51468 0.34466 0.74771 0.0
H1040 H 0.491 0.33891 0.76273 0.0
H1041 H 0.48797 0.33461 0.72871 0.0
H1042 H 0.45413 0.24177 0.69712 0.0
H1043 H 0.42495 0.24111 0.72316 0.0
H1044 H 0.46522 0.30224 0.77485 0.0
C1045 C 0.5294 0.30529 0.71631 0.0
C1046 C 0.53398 0.29424 0.69351 0.0
C1047 C 0.51838 0.27462 0.67883 0.0
C1048 C 0.49862 0.26596 0.68677 0.0
C1049 C 0.4946 0.27721 0.70937 0.0
C1050 C 0.50946 0.29657 0.72383 0.0
C1051 C 0.50081 0.30593 0.74691 0.0
C1052 C 0.51531 0.30282 0.77137 0.0
C1053 C 0.49848 0.33261 0.74648 0.0
C1054 C 0.47876 0.28897 0.74305 0.0
C1055 C 0.47557 0.27233 0.72145 0.0
C1056 C 0.45642 0.25477 0.71405 0.0
C1057 C 0.43998 0.25447 0.72897 0.0
C1058 C 0.44276 0.27177 0.75085 0.0
C1059 C 0.4625 0.28905 0.75799 0.0
H1060 H 0.09875 0.85073 0.7106 0.0
H1061 H 0.11052 0.79665 0.65336 0.0
H1062 H 0.12312 0.82909 0.62865 0.0
H1063 H 0.07536 0.88356 0.66819 0.0
H1064 H 0.08599 0.91317 0.6864 0.0
H1065 H 0.08197 0.88659 0.70218 0.0
H1066 H 0.12256 0.89721 0.72379 0.0
H1067 H 0.12669 0.92394 0.70803 0.0
H1068 H 0.14365 0.90171 0.70463 0.0
H1069 H 0.12981 0.86489 0.60825 0.0
H1070 H 0.12688 0.90256 0.59033 0.0
H1071 H 0.11082 0.93417 0.66044 0.0
C1072 C 0.10459 0.84592 0.69321 0.0
C1073 C 0.10412 0.82154 0.68387 0.0
C1074 C 0.11103 0.81545 0.66071 0.0
C1075 C 0.11841 0.83368 0.64677 0.0
C1076 C 0.11868 0.85764 0.65642 0.0
C1077 C 0.11175 0.86385 0.67893 0.0
C1078 C 0.1105 0.89044 0.68302 0.0
C1079 C 0.08707 0.89361 0.68504 0.0
C1080 C 0.12683 0.90412 0.70625 0.0
C1081 C 0.11723 0.89794 0.65888 0.0
C1082 C 0.12233 0.87883 0.64415 0.0
C1083 C 0.12665 0.88034 0.61983 0.0
C1084 C 0.12515 0.90186 0.60994 0.0
C1085 C 0.11926 0.92132 0.62443 0.0
C1086 C 0.11594 0.91967 0.64942 0.0
H1087 H 0.47275 0.84165 0.88789 0.0
H1088 H 0.485 0.7808 0.83942 0.0
H1089 H 0.45199 0.7816 0.80903 0.0
H1090 H 0.41339 0.8255 0.87643 0.0
H1091 H 0.4106 0.85682 0.87643 0.0
H1092 H 0.43413 0.84972 0.89487 0.0
H1093 H 0.45876 0.87887 0.87197 0.0
H1094 H 0.43524 0.88514 0.85256 0.0
H1095 H 0.45591 0.87361 0.838 0.0
H1096 H 0.4217 0.79202 0.78227 0.0
H1097 H 0.38684 0.80212 0.76559 0.0
H1098 H 0.39322 0.85563 0.83187 0.0
C1099 C 0.46797 0.82805 0.87124 0.0
C1100 C 0.481 0.81113 0.86558 0.0
C1101 C 0.47492 0.79385 0.84362 0.0
C1102 C 0.45649 0.79437 0.82629 0.0
C1103 C 0.44486 0.81252 0.83136 0.0
C1104 C 0.44983 0.82856 0.85357 0.0
C1105 C 0.43457 0.84631 0.85411 0.0
C1106 C 0.42243 0.84444 0.87678 0.0
C1107 C 0.44686 0.87253 0.85417 0.0
C1108 C 0.41967 0.83691 0.82912 0.0
C1109 C 0.42662 0.81816 0.81596 0.0
C1110 C 0.41587 0.8065 0.79238 0.0
C1111 C 0.39627 0.81265 0.78292 0.0
C1112 C 0.38731 0.8293 0.79774 0.0
C1113 C 0.39983 0.84295 0.82016 0.0
H1114 H 0.58908 0.18727 0.17801 0.0
H1115 H 0.53637 0.22184 0.14895 0.0
H1116 H 0.52789 0.19221 0.11006 0.0
H1117 H 0.60866 0.17824 0.12259 0.0
H1118 H 0.61504 0.14875 0.12632 0.0
H1119 H 0.61509 0.16992 0.15378 0.0
H1120 H 0.58711 0.13808 0.16972 0.0
H1121 H 0.5874 0.11646 0.14269 0.0
H1122 H 0.56197 0.12375 0.14906 0.0
H1123 H 0.52811 0.1629 0.07293 0.0
H1124 H 0.53338 0.13059 0.04118 0.0
H1125 H 0.58647 0.11586 0.09403 0.0
C1126 C 0.57537 0.18807 0.16374 0.0
C1127 C 0.56335 0.20664 0.16615 0.0
C1128 C 0.54576 0.20764 0.14713 0.0
C1129 C 0.54083 0.19096 0.12509 0.0
C1130 C 0.55372 0.17361 0.12262 0.0
C1131 C 0.57035 0.17169 0.14156 0.0
C1132 C 0.58248 0.15226 0.13346 0.0
C1133 C 0.60675 0.16295 0.13408 0.0
C1134 C 0.57955 0.1314 0.14969 0.0
C1135 C 0.5706 0.14433 0.10668 0.0
C1136 C 0.55402 0.15679 0.10088 0.0
C1137 C 0.541 0.15292 0.07715 0.0
C1138 C 0.54443 0.13498 0.0591 0.0
C1139 C 0.56069 0.12129 0.06514 0.0
C1140 C 0.57425 0.12645 0.08893 0.0
H1141 H 0.09896 0.34108 0.34514 0.0
H1142 H 0.09161 0.28708 0.39659 0.0
H1143 H 0.11878 0.26719 0.379 0.0
H1144 H 0.10789 0.30195 0.29168 0.0
H1145 H 0.12865 0.32465 0.28332 0.0
H1146 H 0.10744 0.33387 0.29874 0.0
H1147 H 0.13654 0.36089 0.33436 0.0
H1148 H 0.15789 0.35195 0.31909 0.0
H1149 H 0.15693 0.34745 0.35153 0.0
H1150 H 0.14529 0.25312 0.35641 0.0
H1151 H 0.17501 0.24784 0.33289 0.0
H1152 H 0.16815 0.31276 0.29827 0.0
C1153 C 0.10313 0.32499 0.35237 0.0
C1154 C 0.0935 0.31522 0.37178 0.0
C1155 C 0.09917 0.29452 0.38155 0.0
C1156 C 0.11435 0.28309 0.37165 0.0
C1157 C 0.12367 0.29299 0.35236 0.0
C1158 C 0.1187 0.31367 0.34311 0.0
C1159 C 0.1325 0.32145 0.32372 0.0
C1160 C 0.11827 0.32041 0.29783 0.0
C1161 C 0.14683 0.34694 0.33272 0.0
C1162 C 0.14588 0.30179 0.32354 0.0
C1163 C 0.1401 0.28539 0.33992 0.0
C1164 C 0.14995 0.26562 0.34334 0.0
C1165 C 0.16655 0.26266 0.32981 0.0
C1166 C 0.17309 0.27957 0.31351 0.0
C1167 C 0.16279 0.29938 0.31022 0.0
H1168 H 0.99646 0.06069 0.22805 0.0
H1169 H 1.00202 0.985 0.22817 0.0
H1170 H 1.02495 0.9887 0.19495 0.0
H1171 H 0.99426 0.06369 0.16223 0.0
H1172 H 1.01142 0.09354 0.16578 0.0
H1173 H 0.9955 0.08537 0.18978 0.0
H1174 H 0.03047 0.09602 0.22372 0.0
H1175 H 0.04652 0.10426 0.19981 0.0
H1176 H 0.05318 0.08171 0.21934 0.0
H1177 H 0.04471 0.9992 0.16078 0.0
H1178 H 0.06324 1.01664 0.12821 0.0
H1179 H 0.04794 0.08709 0.15098 0.0
C1180 C 1.00247 0.04493 0.2209 0.0
C1181 C 0.99728 1.02239 0.23022 0.0
C1182 C 1.00575 1.00229 0.22105 0.0
C1183 C 1.01877 1.00425 0.20226 0.0
C1184 C 1.02356 0.02662 0.19338 0.0
C1185 C 1.01602 0.04676 0.20255 0.0
C1186 C 1.02426 0.06877 0.18998 0.0
C1187 C 1.00522 0.0784 0.17611 0.0
C1188 C 0.03951 0.08888 0.20937 0.0
C1189 C 0.03681 0.05746 0.17155 0.0
C1190 C 0.03614 0.03315 0.17409 0.0
C1191 C 0.0456 1.01827 0.15878 0.0
C1192 C 0.05602 0.02839 0.14024 0.0
C1193 C 0.05709 0.05327 0.13716 0.0
C1194 C 0.04757 0.06813 0.1532 0.0
H1195 H 0.32989 0.767 0.54814 0.0
H1196 H 0.33396 0.69641 0.51003 0.0
H1197 H 0.30257 0.69794 0.47796 0.0
H1198 H 0.27344 0.76019 0.5395 0.0
H1199 H 0.27284 0.7907 0.53251 0.0
H1200 H 0.29624 0.7847 0.55236 0.0
H1201 H 0.32222 0.80248 0.5229 0.0
H1202 H 0.29924 0.81022 0.50412 0.0
H1203 H 0.31581 0.79189 0.48944 0.0
H1204 H 0.26871 0.70446 0.45376 0.0
H1205 H 0.24668 0.72486 0.42486 0.0
H1206 H 0.2648 0.79119 0.47806 0.0
C1207 C 0.32458 0.75224 0.53261 0.0
C1208 C 0.33349 0.73119 0.53195 0.0
C1209 C 0.32676 0.71248 0.51107 0.0
C1210 C 0.30869 0.71287 0.49315 0.0
C1211 C 0.29827 0.73239 0.49632 0.0
C1212 C 0.30673 0.7524 0.51446 0.0
C1213 C 0.29393 0.77227 0.51196 0.0
C1214 C 0.2835 0.77724 0.53549 0.0
C1215 C 0.30864 0.79557 0.50675 0.0
C1216 C 0.27689 0.76028 0.48933 0.0
C1217 C 0.27917 0.73681 0.48141 0.0
C1218 C 0.26666 0.72277 0.45965 0.0
C1219 C 0.25363 0.73425 0.44369 0.0
C1220 C 0.25513 0.75969 0.44907 0.0
C1221 C 0.26375 0.77173 0.47365 0.0
H1222 H 0.62354 0.03641 0.7568 0.0
H1223 H 0.68298 0.02395 0.73142 0.0
H1224 H 0.66627 0.02474 0.68729 0.0
H1225 H 0.58483 1.00107 0.70341 0.0
H1226 H 0.56687 1.02253 0.70184 0.0
H1227 H 0.58329 1.02065 0.73153 0.0
H1228 H 0.59956 0.06672 0.73597 0.0
H1229 H 0.58328 0.06868 0.70619 0.0
H1230 H 0.61245 0.07874 0.71104 0.0
H1231 H 0.64237 0.02687 0.64382 0.0
H1232 H 0.61414 0.02992 0.60759 0.0
H1233 H 0.57013 0.04172 0.65992 0.0
C1234 C 0.63303 0.03368 0.74198 0.0
C1235 C 0.65488 0.02989 0.74825 0.0
C1236 C 0.66642 0.02685 0.72776 0.0
C1237 C 0.65696 0.02727 0.70233 0.0
C1238 C 0.63564 0.03112 0.6968 0.0
C1239 C 0.62383 0.03443 0.71616 0.0
C1240 C 0.6014 0.03903 0.70501 0.0
C1241 C 0.58301 1.01966 0.7108 0.0
C1242 C 0.59903 0.06482 0.71516 0.0
C1243 C 0.60215 0.03685 0.6765 0.0
C1244 C 0.62217 0.03259 0.67214 0.0
C1245 C 0.62668 0.03024 0.64728 0.0
C1246 C 0.61051 0.03209 0.62658 0.0
C1247 C 0.58966 0.03611 0.63033 0.0
C1248 C 0.58575 0.03856 0.65595 0.0
H1249 H 0.31654 0.38405 0.9925 0.0
H1250 H 0.35394 0.3408 0.03657 0.0
H1251 H 0.35611 0.3151 0.99735 0.0
H1252 H 0.28501 0.33503 0.94624 0.0
H1253 H 0.28601 0.35279 0.92037 0.0
H1254 H 0.28732 0.36762 0.95197 0.0
H1255 H 0.32362 0.39609 0.94846 0.0
H1256 H 0.32248 0.38116 0.91692 0.0
H1257 H 0.34612 0.3829 0.94065 0.0
H1258 H 0.35595 0.29563 0.95319 0.0
H1259 H 0.35032 0.28142 0.90712 0.0
H1260 H 0.31154 0.33612 0.89278 0.0
C1261 C 0.32494 0.36898 0.99392 0.0
C1262 C 0.33496 0.36427 0.0175 0.0
C1263 C 0.34604 0.34459 0.01863 0.0
C1264 C 0.34746 0.32998 0.9965 0.0
C1265 C 0.33764 0.33531 0.9735 0.0
C1266 C 0.32645 0.3542 0.97207 0.0
C1267 C 0.31746 0.35617 0.945 0.0
C1268 C 0.29246 0.35268 0.94066 0.0
C1269 C 0.32805 0.38052 0.93731 0.0
C1270 C 0.32479 0.335 0.93155 0.0
C1271 C 0.33684 0.32352 0.94822 0.0
C1272 C 0.34626 0.30421 0.93997 0.0
C1273 C 0.343 0.29628 0.91392 0.0
C1274 C 0.33005 0.30734 0.89683 0.0
C1275 C 0.32095 0.32695 0.90572 0.0
H1276 H 0.99015 0.99396 0.36746 0.0
H1277 H 1.01934 0.06511 0.35121 0.0
H1278 H 0.04257 0.0735 0.3935 0.0
H1279 H 0.9865 1.01406 0.43067 0.0
H1280 H 0.99188 0.98667 0.44265 0.0
H1281 H 0.97948 0.98534 0.41018 0.0
H1282 H 1.01032 0.96548 0.39565 0.0
H1283 H 1.02293 0.96699 0.42814 0.0
H1284 H 0.03834 0.98074 0.40592 0.0
H1285 H 0.06057 0.07509 0.43678 0.0
H1286 H 0.07092 0.07191 0.48172 0.0
H1287 H 0.02931 0.99997 0.47138 0.0
C1288 C 1.00193 1.01096 0.37277 0.0
C1289 C 1.0038 0.02871 0.35635 0.0
C1290 C 1.01841 0.05125 0.36372 0.0
C1291 C 0.03155 0.05609 0.38751 0.0
C1292 C 0.02951 0.03818 0.40342 0.0
C1293 C 1.01493 1.0162 0.39659 0.0
C1294 C 1.01449 1.0012 0.41824 0.0
C1295 C 0.99174 0.99657 0.42588 0.0
C1296 C 1.02198 0.97718 0.41159 0.0
C1297 C 0.03103 1.01836 0.43838 0.0
C1298 C 0.03958 0.03941 0.42917 0.0
C1299 C 0.05417 0.05869 0.44426 0.0
C1300 C 0.05983 0.05673 0.46972 0.0
C1301 C 0.05075 0.03575 0.47979 0.0
C1302 C 0.03662 1.01602 0.4639 0.0
H1303 H 0.35779 0.70946 0.68208 0.0
H1304 H 0.40328 0.76719 0.66001 0.0
H1305 H 0.39567 0.79646 0.69303 0.0
H1306 H 0.31995 0.74119 0.6769 0.0
H1307 H 0.30554 0.73023 0.7012 0.0
H1308 H 0.32101 0.71134 0.68567 0.0
H1309 H 0.3452 0.7075 0.72737 0.0
H1310 H 0.32761 0.72322 0.74302 0.0
H1311 H 0.35695 0.73437 0.74944 0.0
H1312 H 0.37327 0.82031 0.71248 0.0
H1313 H 0.346 0.83788 0.73204 0.0
H1314 H 0.31149 0.76536 0.73845 0.0
C1315 C 0.36742 0.72785 0.68566 0.0
C1316 C 0.38073 0.73652 0.66867 0.0
C1317 C 0.39298 0.76056 0.6732 0.0
C1318 C 0.3884 0.77731 0.69155 0.0
C1319 C 0.37172 0.76923 0.7047 0.0
C1320 C 0.36165 0.74495 0.70235 0.0
C1321 C 0.34091 0.74161 0.71335 0.0
C1322 C 0.32071 0.73045 0.69305 0.0
C1323 C 0.34275 0.72584 0.7347 0.0
C1324 C 0.34091 0.76791 0.72238 0.0
C1325 C 0.35852 0.78344 0.71649 0.0
C1326 C 0.36005 0.80851 0.7185 0.0
C1327 C 0.34421 0.81823 0.72903 0.0
C1328 C 0.32735 0.8028 0.73755 0.0
C1329 C 0.32494 0.77736 0.73301 0.0
H1330 H 0.63517 1.00537 0.88981 0.0
H1331 H 0.67102 0.07932 0.89419 0.0
H1332 H 0.65205 0.09255 0.92851 0.0
H1333 H 0.58361 1.01691 0.90454 0.0
H1334 H 0.58023 0.99413 0.92549 0.0
H1335 H 0.59587 0.99053 0.90049 0.0
H1336 H 0.62853 0.9864 0.93285 0.0
H1337 H 0.61425 0.9909 0.95888 0.0
H1338 H 0.63984 1.0105 0.95867 0.0
H1339 H 0.62858 0.09824 0.96445 0.0
H1340 H 0.60474 0.09509 0.99711 0.0
H1341 H 0.58305 1.01803 0.97107 0.0
C1342 C 0.63888 0.02443 0.89771 0.0
C1343 C 0.65484 0.04121 0.88841 0.0
C1344 C 0.65916 0.06582 0.90036 0.0
C1345 C 0.64827 0.07363 0.9201 0.0
C1346 C 0.63287 0.05678 0.92883 0.0
C1347 C 0.62832 0.03259 0.91808 0.0
C1348 C 0.61253 1.01785 0.93262 0.0
C1349 C 0.59183 1.00403 0.91471 0.0
C1350 C 0.62444 1.00034 0.94654 0.0
C1351 C 0.60743 0.03759 0.95173 0.0
C1352 C 0.61986 0.05991 0.94961 0.0
C1353 C 0.61883 0.08072 0.96596 0.0
C1354 C 0.60508 0.07879 0.98468 0.0
C1355 C 0.59171 0.05633 0.98729 0.0
C1356 C 0.593 0.0355 0.9701 0.0
H1357 H 0.35349 0.39186 0.17272 0.0
H1358 H 0.30171 0.35204 0.11286 0.0
H1359 H 0.28774 0.32565 0.14239 0.0
H1360 H 0.3628 0.33843 0.20163 0.0
H1361 H 0.36792 0.35334 0.2338 0.0
H1362 H 0.37401 0.37067 0.20857 0.0
H1363 H 0.34946 0.40023 0.22191 0.0
H1364 H 0.34342 0.38306 0.24726 0.0
H1365 H 0.32154 0.38816 0.22431 0.0
H1366 H 0.27929 0.30311 0.17603 0.0
H1367 H 0.27604 0.2841 0.21411 0.0
H1368 H 0.33301 0.33606 0.25515 0.0
C1369 C 0.33915 0.37767 0.16605 0.0
C1370 C 0.32875 0.37397 0.1404 0.0
C1371 C 0.31012 0.35511 0.13227 0.0
C1372 C 0.30195 0.34002 0.14894 0.0
C1373 C 0.31263 0.34374 0.17382 0.0
C1374 C 0.33081 0.36193 0.18259 0.0
C1375 C 0.33921 0.36084 0.21038 0.0
C1376 C 0.36236 0.35551 0.21379 0.0
C1377 C 0.33835 0.38449 0.22694 0.0
C1378 C 0.32277 0.33934 0.21559 0.0
C1379 C 0.30771 0.33001 0.19396 0.0
C1380 C 0.29095 0.31019 0.19315 0.0
C1381 C 0.28932 0.29947 0.21502 0.0
C1382 C 0.3043 0.30845 0.23773 0.0
C1383 C 0.32137 0.32874 0.23807 0.0
H1384 H 0.20827 0.90446 0.04109 0.0
H1385 H 0.26031 0.95629 0.02044 0.0
H1386 H 0.25373 0.98832 0.0513 0.0
H1387 H 0.17206 0.94361 0.04574 0.0
H1388 H 0.16173 0.93224 0.07257 0.0
H1389 H 0.17247 0.91266 0.05129 0.0
H1390 H 0.19948 0.90459 0.08897 0.0
H1391 H 0.18895 0.92451 0.11036 0.0
H1392 H 0.21768 0.92996 0.10902 0.0
H1393 H 0.24143 1.01462 0.08234 0.0
H1394 H 0.21806 0.03689 0.10412 0.0
H1395 H 0.17271 0.96907 0.10384 0.0
C1396 C 0.21807 0.92263 0.04287 0.0
C1397 C 0.23471 0.928 0.0284 0.0
C1398 C 0.24735 0.95189 0.03128 0.0
C1399 C 0.24406 0.97006 0.04909 0.0
C1400 C 0.22811 0.96396 0.06378 0.0
C1401 C 0.21496 0.94105 0.06052 0.0
C1402 C 0.19742 0.94014 0.07682 0.0
C1403 C 0.17457 0.9317 0.06063 0.0
C1404 C 0.20111 0.92382 0.09751 0.0
C1405 C 0.20177 0.96667 0.08816 0.0
C1406 C 0.2203 0.97967 0.08143 0.0
C1407 C 0.2271 1.0047 0.08817 0.0
C1408 C 0.21384 1.01715 0.1008 0.0
C1409 C 0.19385 1.00454 0.10588 0.0
C1410 C 0.18822 0.97889 0.1006 0.0
H1411 H 0.70504 0.64535 1.01381 0.0
H1412 H 0.74684 0.62805 0.07768 0.0
H1413 H 0.71488 0.60389 0.09087 0.0
H1414 H 0.65718 0.64843 0.04344 0.0
H1415 H 0.6378 0.633 0.01608 0.0
H1416 H 0.66362 0.65053 1.01217 0.0
H1417 H 0.67185 0.61283 0.98643 0.0
H1418 H 0.64599 0.59522 0.99002 0.0
H1419 H 0.67079 0.58478 0.99994 0.0
H1420 H 0.67916 0.58102 0.09706 0.0
H1421 H 0.64193 0.5568 0.09343 0.0
H1422 H 0.62193 0.58618 0.0247 0.0
C1423 C 0.70732 0.63648 0.03057 0.0
C1424 C 0.72844 0.63852 0.04477 0.0
C1425 C 0.73087 0.62651 0.06644 0.0
C1426 C 0.71277 0.61291 0.0742 0.0
C1427 C 0.6922 0.61107 0.05988 0.0
C1428 C 0.68932 0.62213 0.03828 0.0
C1429 C 0.6655 0.61541 0.0254 0.0
C1430 C 0.65543 0.63821 0.02421 0.0
C1431 C 0.66341 0.60122 0.99888 0.0
C1432 C 0.65552 0.59913 0.04331 0.0
C1433 C 0.67132 0.59718 0.06317 0.0
C1434 C 0.6666 0.58256 0.08172 0.0
C1435 C 0.64536 0.56898 0.07962 0.0
C1436 C 0.62891 0.5701 0.05926 0.0
C1437 C 0.63399 0.58564 0.04098 0.0
H1438 H 0.7113 0.52999 0.30104 0.0
H1439 H 0.66867 0.49124 0.34608 0.0
H1440 H 0.67954 0.4529 0.33157 0.0
H1441 H 0.70304 0.47851 0.24794 0.0
H1442 H 0.73108 0.48616 0.24373 0.0
H1443 H 0.71736 0.50983 0.25424 0.0
H1444 H 0.74767 0.52387 0.29373 0.0
H1445 H 0.76151 0.50059 0.2831 0.0
H1446 H 0.75419 0.50197 0.31422 0.0
H1447 H 0.69794 0.42088 0.3173 0.0
H1448 H 0.72626 0.39796 0.30807 0.0
H1449 H 0.75632 0.45684 0.27139 0.0
C1450 C 0.70416 0.51337 0.3077 0.0
C1451 C 0.68927 0.51338 0.3247 0.0
C1452 C 0.68019 0.49145 0.33306 0.0
C1453 C 0.68599 0.46961 0.32466 0.0
C1454 C 0.70055 0.47012 0.30763 0.0
C1455 C 0.70961 0.49143 0.29931 0.0
C1456 C 0.72666 0.48752 0.28329 0.0
C1457 C 0.71907 0.4907 0.25566 0.0
C1458 C 0.74881 0.50446 0.29427 0.0
C1459 C 0.72703 0.46113 0.28571 0.0
C1460 C 0.71122 0.4512 0.29898 0.0
C1461 C 0.70997 0.42808 0.30625 0.0
C1462 C 0.72598 0.4152 0.30091 0.0
C1463 C 0.74286 0.42572 0.28865 0.0
C1464 C 0.74293 0.44834 0.27995 0.0
H1465 H 0.83369 0.42293 0.5446 0.0
H1466 H 0.82531 0.39655 0.46439 0.0
H1467 H 0.85696 0.42746 0.46042 0.0
H1468 H 0.84684 0.48355 0.5421 0.0
H1469 H 0.86834 0.49197 0.56919 0.0
H1470 H 0.84727 0.46547 0.56778 0.0
H1471 H 0.87597 0.43826 0.57386 0.0
H1472 H 0.89724 0.46485 0.57618 0.0
H1473 H 0.89601 0.43869 0.55327 0.0
H1474 H 0.88365 0.4646 0.46282 0.0
H1475 H 0.91167 0.50203 0.47332 0.0
H1476 H 0.90539 0.50415 0.55262 0.0
C1477 C 0.83898 0.42329 0.5264 0.0
C1478 C 0.827 0.40771 0.50466 0.0
C1479 C 0.83426 0.40845 0.48117 0.0
C1480 C 0.85217 0.42594 0.47873 0.0
C1481 C 0.86285 0.44198 0.50009 0.0
C1482 C 0.8572 0.44036 0.52372 0.0
C1483 C 0.87136 0.46051 0.54331 0.0
C1484 C 0.85761 0.4763 0.55634 0.0
C1485 C 0.88601 0.44994 0.5628 0.0
C1486 C 0.88465 0.47453 0.52647 0.0
C1487 C 0.87938 0.46337 0.50169 0.0
C1488 C 0.88833 0.47334 0.4822 0.0
C1489 C 0.9039 0.49485 0.48831 0.0
C1490 C 0.91041 0.50607 0.51372 0.0
C1491 C 0.90051 0.49594 0.53305 0.0
H1492 H 0.37545 0.12182 0.31683 0.0
H1493 H 0.42188 0.14522 0.2684 0.0
H1494 H 0.40616 0.18184 0.26345 0.0
H1495 H 0.32885 0.14462 0.28587 0.0
H1496 H 0.32058 0.15602 0.3147 0.0
H1497 H 0.33469 0.13093 0.31419 0.0
H1498 H 0.3639 0.1547 0.35116 0.0
H1499 H 0.34984 0.17987 0.35178 0.0
H1500 H 0.37813 0.1848 0.34832 0.0
H1501 H 0.38599 0.2185 0.26453 0.0
H1502 H 0.36387 0.24987 0.27129 0.0
H1503 H 0.32888 0.2055 0.31888 0.0
C1504 C 0.38229 0.13452 0.30502 0.0
C1505 C 0.40038 0.12972 0.29291 0.0
C1506 C 0.40844 0.14769 0.27809 0.0
C1507 C 0.39942 0.16888 0.27508 0.0
C1508 C 0.38206 0.17316 0.28729 0.0
C1509 C 0.37359 0.1565 0.30218 0.0
C1510 C 0.35552 0.1665 0.31417 0.0
C1511 C 0.3336 0.14843 0.30679 0.0
C1512 C 0.36223 0.17176 0.34308 0.0
C1513 C 0.35454 0.19064 0.30293 0.0
C1514 C 0.37037 0.19418 0.28778 0.0
C1515 C 0.37357 0.21556 0.27631 0.0
C1516 C 0.36078 0.23362 0.28035 0.0
C1517 C 0.34407 0.23093 0.29544 0.0
C1518 C 0.34104 0.2086 0.30678 0.0
H1519 H 0.34287 0.13138 0.53101 0.0
H1520 H 0.35674 0.18662 0.59682 0.0
H1521 H 0.39141 0.17378 0.61086 0.0
H1522 H 0.36534 0.08496 0.55943 0.0
H1523 H 0.37719 0.0755 0.53254 0.0
H1524 H 0.35323 0.08864 0.52802 0.0
H1525 H 0.37318 0.12155 0.50464 0.0
H1526 H 0.39718 0.10844 0.50905 0.0
H1527 H 0.39894 0.14021 0.52005 0.0
H1528 H 0.4241 0.15413 0.61822 0.0
H1529 H 0.45351 0.13066 0.61693 0.0
H1530 H 0.4191 0.0898 0.54521 0.0
C1531 C 0.35318 0.14059 0.54844 0.0
C1532 C 0.34714 0.15975 0.56303 0.0
C1533 C 0.36117 0.17183 0.58545 0.0
C1534 C 0.38083 0.16466 0.59358 0.0
C1535 C 0.38641 0.14574 0.57876 0.0
C1536 C 0.37315 0.13409 0.55649 0.0
C1537 C 0.38342 0.11504 0.54351 0.0
C1538 C 0.36893 0.08952 0.54073 0.0
C1539 C 0.38847 0.12172 0.51779 0.0
C1540 C 0.40418 0.11732 0.56227 0.0
C1541 C 0.40562 0.13512 0.58249 0.0
C1542 C 0.42321 0.14025 0.60239 0.0
C1543 C 0.43978 0.1268 0.60154 0.0
C1544 C 0.43865 0.10858 0.58087 0.0
C1545 C 0.42061 0.10392 0.56102 0.0
H1546 H 0.73506 0.62566 0.34671 0.0
H1547 H 0.67907 0.65835 0.32526 0.0
H1548 H 0.70346 0.69483 0.31698 0.0
H1549 H 0.77157 0.67907 0.37928 0.0
H1550 H 0.79526 0.67224 0.36727 0.0
H1551 H 0.77355 0.64782 0.37043 0.0
H1552 H 0.77012 0.6312 0.32303 0.0
H1553 H 0.79173 0.65573 0.31967 0.0
H1554 H 0.7656 0.65099 0.29948 0.0
H1555 H 0.73259 0.72436 0.30533 0.0
H1556 H 0.76634 0.75167 0.3014 0.0
H1557 H 0.80459 0.70511 0.33882 0.0
C1558 C 0.72801 0.64066 0.34059 0.0
C1559 C 0.70521 0.63931 0.33666 0.0
C1560 C 0.69649 0.65908 0.32837 0.0
C1561 C 0.71016 0.67976 0.32343 0.0
C1562 C 0.73246 0.68034 0.327 0.0
C1563 C 0.74148 0.66163 0.33578 0.0
C1564 C 0.76615 0.66749 0.3384 0.0
C1565 C 0.77728 0.66662 0.36548 0.0
C1566 C 0.77385 0.65033 0.31901 0.0
C1567 C 0.76951 0.69316 0.3316 0.0
C1568 C 0.74972 0.6994 0.32362 0.0
C1569 C 0.74821 0.72039 0.31281 0.0
C1570 C 0.7675 0.73603 0.31113 0.0
C1571 C 0.78794 0.73173 0.3222 0.0
C1572 C 0.78906 0.70958 0.33181 0.0
H1573 H 0.90497 0.486 0.82909 0.0
H1574 H 0.87406 0.49074 0.75311 0.0
H1575 H 0.85199 0.4492 0.75084 0.0
H1576 H 0.9068 0.42208 0.82169 0.0
H1577 H 0.89958 0.41681 0.85204 0.0
H1578 H 0.91327 0.44664 0.84762 0.0
H1579 H 0.88223 0.46531 0.8629 0.0
H1580 H 0.86846 0.43549 0.86733 0.0
H1581 H 0.85448 0.45357 0.84745 0.0
H1582 H 0.83435 0.40556 0.75583 0.0
H1583 H 0.82042 0.36573 0.76868 0.0
H1584 H 0.8597 0.38874 0.84306 0.0
C1585 C 0.89355 0.4783 0.81194 0.0
C1586 C 0.89159 0.49197 0.79108 0.0
C1587 C 0.87608 0.48103 0.76931 0.0
C1588 C 0.86343 0.45726 0.76786 0.0
C1589 C 0.8658 0.44435 0.78859 0.0
C1590 C 0.8802 0.45467 0.81046 0.0
C1591 C 0.87876 0.43717 0.83042 0.0
C1592 C 0.90093 0.43027 0.83841 0.0
C1593 C 0.8705 0.44857 0.85339 0.0
C1594 C 0.8619 0.41505 0.81613 0.0
C1595 C 0.85475 0.4197 0.79196 0.0
C1596 C 0.83981 0.40198 0.77478 0.0
C1597 C 0.83204 0.37914 0.78224 0.0
C1598 C 0.8388 0.37356 0.80685 0.0
C1599 C 0.85388 0.39217 0.82415 0.0
H1600 H 0.11143 0.90065 0.15959 0.0
H1601 H 0.06602 0.8498 0.1011 0.0
H1602 H 0.0589 0.88377 0.07815 0.0
H1603 H 0.08196 0.9502 0.15861 0.0
H1604 H 0.10599 0.97393 0.16272 0.0
H1605 H 0.10749 0.94578 0.17532 0.0
H1606 H 0.1386 0.93976 0.15033 0.0
H1607 H 0.13709 0.96785 0.13756 0.0
H1608 H 0.13423 0.93993 0.11656 0.0
H1609 H 0.05614 0.9221 0.06156 0.0
H1610 H 0.05777 0.96384 0.05159 0.0
H1611 H 0.10585 0.99153 0.11933 0.0
C1612 C 0.10001 0.89678 0.14196 0.0
C1613 C 0.08933 0.87254 0.13205 0.0
C1614 C 0.07454 0.86814 0.10892 0.0
C1615 C 0.07033 0.88733 0.09576 0.0
C1616 C 0.08126 0.91089 0.10575 0.0
C1617 C 0.09586 0.91583 0.12822 0.0
C1618 C 0.10557 0.94302 0.1342 0.0
C1619 C 0.09991 0.95387 0.1592 0.0
C1620 C 0.13034 0.94792 0.1347 0.0
C1621 C 0.09398 0.95243 0.11167 0.0
C1622 C 0.08004 0.93342 0.09563 0.0
C1623 C 0.06713 0.93714 0.07382 0.0
C1624 C 0.06826 0.96095 0.06829 0.0
C1625 C 0.0822 0.98093 0.08444 0.0
C1626 C 0.09547 0.97657 0.10631 0.0
H1627 H 0.96936 0.26609 0.88472 0.0
H1628 H 0.96803 0.30683 0.9571 0.0
H1629 H 0.93157 0.31425 0.94082 0.0
H1630 H 0.94145 0.30205 0.84493 0.0
H1631 H 0.92588 0.27631 0.82298 0.0
H1632 H 0.95206 0.27457 0.84018 0.0
H1633 H 0.93445 0.23588 0.85744 0.0
H1634 H 0.90821 0.23749 0.84026 0.0
H1635 H 0.91175 0.23689 0.87393 0.0
H1636 H 0.89422 0.31791 0.91552 0.0
H1637 H 0.86066 0.31606 0.88433 0.0
H1638 H 0.88568 0.27124 0.82977 0.0
C1639 C 0.96142 0.27662 0.8971 0.0
C1640 C 0.97176 0.2859 0.92227 0.0
C1641 C 0.96053 0.29937 0.93783 0.0
C1642 C 0.93974 0.30377 0.9287 0.0
C1643 C 0.92988 0.29427 0.90391 0.0
C1644 C 0.94032 0.28076 0.88842 0.0
C1645 C 0.92588 0.27188 0.86282 0.0
C1646 C 0.93698 0.2818 0.84147 0.0
C1647 C 0.91971 0.24388 0.85836 0.0
C1648 C 0.90605 0.28293 0.8661 0.0
C1649 C 0.9085 0.29576 0.88991 0.0
C1650 C 0.89214 0.30765 0.89689 0.0
C1651 C 0.87294 0.30638 0.87911 0.0
C1652 C 0.87011 0.29321 0.85459 0.0
C1653 C 0.88706 0.28139 0.84834 0.0
H1654 H 0.57414 0.23715 0.60338 0.0
H1655 H 0.61033 0.23306 0.6772 0.0
H1656 H 0.60874 0.18947 0.6651 0.0
H1657 H 0.53794 0.17809 0.59828 0.0
H1658 H 0.53718 0.17027 0.56485 0.0
H1659 H 0.54146 0.20179 0.57835 0.0
H1660 H 0.5771 0.21093 0.55975 0.0
H1661 H 0.57296 0.17939 0.54634 0.0
H1662 H 0.59802 0.19366 0.56715 0.0
H1663 H 0.60489 0.14748 0.64579 0.0
H1664 H 0.59559 0.10667 0.62053 0.0
H1665 H 0.55942 0.13519 0.55981 0.0
C1666 C 0.58194 0.22704 0.61675 0.0
C1667 C 0.59268 0.23854 0.64113 0.0
C1668 C 0.60219 0.22466 0.6584 0.0
C1669 C 0.6014 0.19988 0.65172 0.0
C1670 C 0.59079 0.18902 0.62774 0.0
C1671 C 0.58095 0.20188 0.61051 0.0
C1672 C 0.56992 0.18498 0.58635 0.0
C1673 C 0.54515 0.18372 0.5817 0.0
C1674 C 0.58011 0.19271 0.56355 0.0
C1675 C 0.57528 0.16091 0.59291 0.0
C1676 C 0.58759 0.16392 0.6168 0.0
C1677 C 0.59519 0.14478 0.62708 0.0
C1678 C 0.58995 0.12178 0.61262 0.0
C1679 C 0.57695 0.1181 0.58841 0.0
C1680 C 0.56942 0.13779 0.57835 0.0
H1681 H 0.61433 0.78757 0.4541 0.0
H1682 H 0.56984 0.79309 0.38654 0.0
H1683 H 0.60091 0.80364 0.36448 0.0
H1684 H 0.6588 0.83708 0.44666 0.0
H1685 H 0.68014 0.82139 0.45733 0.0
H1686 H 0.6547 0.81578 0.46906 0.0
H1687 H 0.65007 0.76959 0.45423 0.0
H1688 H 0.67548 0.77514 0.44248 0.0
H1689 H 0.65092 0.75925 0.42166 0.0
H1690 H 0.63562 0.8128 0.34911 0.0
H1691 H 0.67279 0.81744 0.33975 0.0
H1692 H 0.69639 0.80505 0.41613 0.0
C1693 C 0.6112 0.79105 0.43468 0.0
C1694 C 0.58957 0.78941 0.42198 0.0
C1695 C 0.58616 0.79403 0.39658 0.0
C1696 C 0.60373 0.80021 0.38393 0.0
C1697 C 0.62474 0.80159 0.3968 0.0
C1698 C 0.6287 0.79701 0.42153 0.0
C1699 C 0.65303 0.79865 0.43021 0.0
C1700 C 0.6622 0.81947 0.45212 0.0
C1701 C 0.65764 0.7742 0.43757 0.0
C1702 C 0.66187 0.80443 0.4063 0.0
C1703 C 0.64519 0.80643 0.38753 0.0
C1704 C 0.64889 0.81148 0.36368 0.0
C1705 C 0.67018 0.81432 0.35863 0.0
C1706 C 0.68769 0.81203 0.37726 0.0
C1707 C 0.68341 0.80704 0.40151 0.0
H1708 H 0.0314 0.24308 0.41134 0.0
H1709 H 0.06167 0.29351 0.4793 0.0
H1710 H 0.06138 0.25922 0.50385 0.0
H1711 H 0.99604 0.20236 0.44114 0.0
H1712 H 0.99908 0.17523 0.42219 0.0
H1713 H 1.00159 0.2037 0.40941 0.0
H1714 H 0.03984 0.1996 0.39982 0.0
H1715 H 0.03753 0.17116 0.41264 0.0
H1716 H 0.06048 0.19564 0.425 0.0
H1717 H 0.05747 0.22153 0.52085 0.0
H1718 H 0.05131 0.17943 0.53044 0.0
H1719 H 1.02424 0.15261 0.45165 0.0
C1720 C 0.03805 0.24681 0.43135 0.0
C1721 C 0.04655 0.27066 0.44363 0.0
C1722 C 0.05509 0.27517 0.46975 0.0
C1723 C 0.05497 0.25594 0.4838 0.0
C1724 C 0.04629 0.23265 0.47122 0.0
C1725 C 0.03807 0.22784 0.44567 0.0
C1726 C 0.0298 0.20094 0.43704 0.0
C1727 C 1.00516 0.19524 0.42685 0.0
C1728 C 0.0427 0.19127 0.41748 0.0
C1729 C 0.03472 0.19152 0.46189 0.0
C1730 C 0.04409 0.21028 0.48125 0.0
C1731 C 0.05001 0.2066 0.50604 0.0
C1732 C 0.04625 0.18284 0.51127 0.0
C1733 C 0.03673 0.16341 0.49172 0.0
C1734 C 0.03103 0.16753 0.46672 0.0
H1735 H 0.65819 0.29893 0.24487 0.0
H1736 H 0.64137 0.22532 0.26299 0.0
H1737 H 0.68021 0.22691 0.28022 0.0
H1738 H 0.70933 0.29454 0.22631 0.0
H1739 H 0.72252 0.32509 0.24036 0.0
H1740 H 0.69359 0.31808 0.22908 0.0
H1741 H 0.68666 0.33454 0.2733 0.0
H1742 H 0.71558 0.34172 0.28466 0.0
H1743 H 0.69783 0.3224 0.30081 0.0
H1744 H 0.72052 0.23594 0.29318 0.0
H1745 H 0.76004 0.25309 0.30464 0.0
H1746 H 0.74916 0.32171 0.28056 0.0
C1747 C 0.66275 0.28316 0.25247 0.0
C1748 C 0.6472 0.2619 0.25266 0.0
C1749 C 0.65336 0.24169 0.26293 0.0
C1750 C 0.67523 0.24242 0.27258 0.0
C1751 C 0.69027 0.26368 0.27209 0.0
C1752 C 0.68428 0.28379 0.26259 0.0
C1753 C 0.70346 0.30462 0.26481 0.0
C1754 C 0.70746 0.31093 0.23858 0.0
C1755 C 0.7007 0.32714 0.28192 0.0
C1756 C 0.72116 0.29304 0.2772 0.0
C1757 C 0.71331 0.26935 0.28089 0.0
C1758 C 0.72687 0.2546 0.29088 0.0
C1759 C 0.74915 0.26448 0.29738 0.0
C1760 C 0.75728 0.28886 0.29413 0.0
C1761 C 0.74314 0.30329 0.28404 0.0
H1762 H 0.57205 0.90728 0.95523 0.0
H1763 H 0.50319 0.87489 0.93842 0.0
H1764 H 0.49527 0.90853 0.96691 0.0
H1765 H 0.5766 0.9275 0.01867 0.0
H1766 H 0.59455 0.95628 0.01861 0.0
H1767 H 0.59448 0.93074 0.99555 0.0
H1768 H 0.58564 0.9556 0.95867 0.0
H1769 H 0.58724 0.98114 0.98256 0.0
H1770 H 0.56326 0.97142 0.95846 0.0
H1771 H 0.49573 0.94329 1.00006 0.0
H1772 H 0.50416 0.97986 0.03274 0.0
H1773 H 0.57231 0.98985 0.02531 0.0
C1774 C 0.55536 0.9076 0.95751 0.0
C1775 C 0.53815 0.88901 0.94526 0.0
C1776 C 0.5164 0.88947 0.94804 0.0
C1777 C 0.51181 0.90832 0.96403 0.0
C1778 C 0.52922 0.92641 0.97643 0.0
C1779 C 0.55048 0.92644 0.97294 0.0
C1780 C 0.56617 0.94797 0.98827 0.0
C1781 C 0.58398 0.94012 1.00635 0.0
C1782 C 0.57614 0.96506 0.97087 0.0
C1783 C 0.55069 0.95915 1.00227 0.0
C1784 C 0.52939 0.94667 0.99499 0.0
C1785 C 0.51229 0.9534 1.00582 0.0
C1786 C 0.51715 0.97387 0.02436 0.0
C1787 C 0.53878 0.98689 0.03145 0.0
C1788 C 0.55571 0.97951 0.02042 0.0
H1789 H 1.02107 0.74708 0.7668 0.0
H1790 H 0.04165 0.82074 0.75034 0.0
H1791 H 1.00867 0.83194 0.76301 0.0
H1792 H 0.96525 0.742 0.74228 0.0
H1793 H 0.95489 0.72494 0.76587 0.0
H1794 H 0.98114 0.72263 0.75783 0.0
H1795 H 0.99921 0.73546 0.80473 0.0
H1796 H 0.97299 0.73752 0.81309 0.0
H1797 H 0.99534 0.76337 0.82152 0.0
H1798 H 0.97389 0.83468 0.77311 0.0
H1799 H 0.93779 0.83055 0.78565 0.0
H1800 H 0.93813 0.75528 0.79639 0.0
C1801 C 1.01878 0.76569 0.76677 0.0
C1802 C 0.03366 0.78333 0.75815 0.0
C1803 C 0.03024 0.80729 0.75727 0.0
C1804 C 1.01163 0.81373 0.76426 0.0
C1805 C 0.99678 0.79586 0.77188 0.0
C1806 C 1.00004 0.77241 0.77349 0.0
C1807 C 0.98072 0.75674 0.78135 0.0
C1808 C 0.96987 0.73532 0.76059 0.0
C1809 C 0.98747 0.74775 0.80669 0.0
C1810 C 0.96629 0.77527 0.78393 0.0
C1811 C 0.97602 0.79753 0.77804 0.0
C1812 C 0.96609 0.81753 0.7781 0.0
C1813 C 0.9457 0.815 0.78509 0.0
C1814 C 0.93572 0.79274 0.79199 0.0
C1815 C 0.94581 0.77243 0.79122 0.0
H1816 H 0.14324 0.09459 0.92298 0.0
H1817 H 0.11226 0.02507 0.87776 0.0
H1818 H 0.09695 1.01128 0.91409 0.0
H1819 H 0.15571 0.07099 0.98288 0.0
H1820 H 0.14911 0.09606 1.00189 0.0
H1821 H 0.15914 0.10078 0.97281 0.0
H1822 H 0.12512 0.11778 0.95659 0.0
H1823 H 0.11506 0.11335 0.98565 0.0
H1824 H 0.09833 0.09976 0.95576 0.0
H1825 H 0.08537 1.00418 0.95342 0.0
H1826 H 0.07194 1.00603 0.99372 0.0
H1827 H 0.10769 0.08061 1.01518 0.0
C1828 C 0.1332 0.07651 0.92086 0.0
C1829 C 0.129 0.06081 0.89762 0.0
C1830 C 0.1157 0.03737 0.89536 0.0
C1831 C 0.10707 0.02926 0.91595 0.0
C1832 C 0.11178 0.04485 0.93866 0.0
C1833 C 0.12411 0.06813 0.94131 0.0
C1834 C 0.12516 0.08145 0.96768 0.0
C1835 C 0.14868 0.08769 0.98217 0.0
C1836 C 0.11532 0.10444 0.96633 0.0
C1837 C 0.11111 0.06201 0.97907 0.0
C1838 C 0.10417 0.04095 0.96193 0.0
C1839 C 0.09071 1.02044 0.96713 0.0
C1840 C 0.08329 1.02165 0.99013 0.0
C1841 C 0.08905 0.04329 1.00757 0.0
C1842 C 0.10362 0.06364 1.00241 0.0
H1843 H 0.77737 0.31215 0.57412 0.0
H1844 H 0.79494 0.38959 0.5706 0.0
H1845 H 0.82043 0.39521 0.61103 0.0
H1846 H 0.77687 0.32114 0.64107 0.0
H1847 H 0.78598 0.29321 0.64599 0.0
H1848 H 0.77039 0.29576 0.61605 0.0
H1849 H 0.80125 0.28404 0.59318 0.0
H1850 H 0.81695 0.28171 0.62315 0.0
H1851 H 0.82864 0.30163 0.60249 0.0
H1852 H 0.8412 0.39268 0.65353 0.0
H1853 H 0.85488 0.38163 0.69559 0.0
H1854 H 0.8248 0.30604 0.66892 0.0
C1855 C 0.78657 0.33018 0.58206 0.0
C1856 C 0.78443 0.35042 0.56985 0.0
C1857 C 0.79651 0.37395 0.58027 0.0
C1858 C 0.81107 0.3773 0.60297 0.0
C1859 C 0.81301 0.35689 0.61475 0.0
C1860 C 0.80088 0.33389 0.60482 0.0
C1861 C 0.80442 0.3154 0.62217 0.0
C1862 C 0.78317 0.30582 0.63191 0.0
C1863 C 0.81336 0.29447 0.60947 0.0
C1864 C 0.8212 0.33131 0.64275 0.0
C1865 C 0.82572 0.35532 0.63855 0.0
C1866 C 0.83846 0.37383 0.65683 0.0
C1867 C 0.84633 0.36751 0.68038 0.0
C1868 C 0.84179 0.34296 0.68452 0.0
C1869 C 0.82957 0.32472 0.66538 0.0
H1870 H 0.49328 0.0927 0.38099 0.0
H1871 H 0.45172 1.02077 0.36577 0.0
H1872 H 0.46735 1.01165 0.40739 0.0
H1873 H 0.54104 0.07389 0.41352 0.0
H1874 H 0.54923 0.10066 0.43687 0.0
H1875 H 0.53415 0.10239 0.40629 0.0
H1876 H 0.50501 0.11922 0.42795 0.0
H1877 H 0.51996 0.11732 0.45859 0.0
H1878 H 0.49181 0.10209 0.44977 0.0
H1879 H 0.48753 1.01014 0.4534 0.0
H1880 H 0.5126 1.0151 0.49444 0.0
H1881 H 0.54402 0.08601 0.48011 0.0
C1882 C 0.48738 0.07503 0.38634 0.0
C1883 C 0.47077 0.0576 0.36918 0.0
C1884 C 0.46414 0.03473 0.37776 0.0
C1885 C 0.47299 0.02929 0.40178 0.0
C1886 C 0.48909 0.04665 0.41808 0.0
C1887 C 0.49645 0.06903 0.41054 0.0
C1888 C 0.51454 0.08406 0.43155 0.0
C1889 C 0.53602 0.09064 0.42145 0.0
C1890 C 0.50742 0.10705 0.44261 0.0
C1891 C 0.51656 0.06661 0.45156 0.0
C1892 C 0.50126 0.04532 0.44372 0.0
C1893 C 0.4995 0.02687 0.45945 0.0
C1894 C 0.51376 0.02995 0.48316 0.0
C1895 C 0.53029 0.05118 0.49149 0.0
C1896 C 0.53147 0.06966 0.475 0.0
H1897 H 0.80983 0.74864 0.11785 0.0
H1898 H 0.77656 0.67603 0.12616 0.0
H1899 H 0.77782 0.68901 0.17126 0.0
H1900 H 0.846 0.75868 0.17981 0.0
H1901 H 0.84512 0.79056 0.18583 0.0
H1902 H 0.84223 0.77597 0.15378 0.0
H1903 H 0.80561 0.79003 0.14263 0.0
H1904 H 0.80829 0.80443 0.17471 0.0
H1905 H 0.78423 0.78199 0.16076 0.0
H1906 H 0.77934 0.70958 0.21366 0.0
H1907 H 0.78576 0.7363 0.25438 0.0
H1908 H 0.82093 0.79519 0.22152 0.0
C1909 C 0.80282 0.73558 0.12925 0.0
C1910 C 0.7928 0.7114 0.11846 0.0
C1911 C 0.78415 0.69467 0.13397 0.0
C1912 C 0.78477 0.70184 0.15963 0.0
C1913 C 0.79439 0.72574 0.16966 0.0
C1914 C 0.80367 0.74235 0.15527 0.0
C1915 C 0.81329 0.76681 0.17142 0.0
C1916 C 0.83814 0.77338 0.17278 0.0
C1917 C 0.80219 0.78701 0.16179 0.0
C1918 C 0.80747 0.76128 0.19679 0.0
C1919 C 0.79636 0.7375 0.19509 0.0
C1920 C 0.7882 0.72818 0.2154 0.0
C1921 C 0.79173 0.74352 0.2383 0.0
C1922 C 0.80362 0.76768 0.24074 0.0
C1923 C 0.81173 0.77673 0.21986 0.0
H1924 H 0.13626 0.03542 0.75054 0.0
H1925 H 0.11446 0.10203 0.77359 0.0
H1926 H 0.0974 0.10227 0.72969 0.0
H1927 H 0.14834 0.04993 0.69008 0.0
H1928 H 0.13805 1.01958 0.67345 0.0
H1929 H 0.14888 0.02388 0.70677 0.0
H1930 H 0.11268 0.99913 0.71553 0.0
H1931 H 0.10184 0.99462 0.68219 0.0
H1932 H 0.08736 1.0081 0.70453 0.0
H1933 H 0.08314 0.09618 0.68549 0.0
H1934 H 0.07046 0.08385 0.64064 0.0
H1935 H 0.10083 1.02037 0.64336 0.0
C1936 C 0.12775 0.04992 0.74624 0.0
C1937 C 0.12647 0.0687 0.76533 0.0
C1938 C 0.11533 0.0874 0.75924 0.0
C1939 C 0.10573 0.08775 0.73439 0.0
C1940 C 0.10727 0.06912 0.71605 0.0
C1941 C 0.11778 0.05039 0.72145 0.0
C1942 C 0.11648 0.03253 0.69776 0.0
C1943 C 0.1393 0.03144 0.69166 0.0
C1944 C 0.10384 1.00709 0.70017 0.0
C1945 C 0.10368 0.0444 0.67834 0.0
C1946 C 0.09869 0.06544 0.68962 0.0
C1947 C 0.08685 0.07973 0.67635 0.0
C1948 C 0.0797 0.07237 0.65071 0.0
C1949 C 0.08457 0.05093 0.63828 0.0
C1950 C 0.09672 0.03667 0.65233 0.0
H1951 H 0.76606 0.3069 0.44183 0.0
H1952 H 0.75144 0.37601 0.42309 0.0
H1953 H 0.7808 0.38021 0.39767 0.0
H1954 H 0.82292 0.32309 0.44802 0.0
H1955 H 0.82657 0.29417 0.43334 0.0
H1956 H 0.80375 0.2956 0.44952 0.0
H1957 H 0.77642 0.27455 0.40903 0.0
H1958 H 0.7992 0.27183 0.39331 0.0
H1959 H 0.77823 0.28669 0.37962 0.0
H1960 H 0.81575 0.38039 0.38096 0.0
H1961 H 0.84261 0.36743 0.35611 0.0
H1962 H 0.83095 0.29652 0.38112 0.0
C1963 C 0.76835 0.3224 0.4315 0.0
C1964 C 0.75683 0.34138 0.43496 0.0
C1965 C 0.76023 0.36131 0.42096 0.0
C1966 C 0.77724 0.3642 0.40699 0.0
C1967 C 0.79004 0.34659 0.4066 0.0
C1968 C 0.78506 0.32546 0.41724 0.0
C1969 C 0.80045 0.30855 0.41248 0.0
C1970 C 0.81422 0.30515 0.43733 0.0
C1971 C 0.78783 0.28396 0.39771 0.0
C1972 C 0.81446 0.32318 0.39684 0.0
C1973 C 0.80891 0.34565 0.39488 0.0
C1974 C 0.81981 0.36259 0.38176 0.0
C1975 C 0.83506 0.3552 0.36791 0.0
C1976 C 0.83774 0.33078 0.36599 0.0
C1977 C 0.8291 0.31534 0.38244 0.0
H1978 H 0.48549 0.03787 0.22897 0.0
H1979 H 0.44141 0.08575 0.20799 0.0
H1980 H 0.45501 0.08819 0.16754 0.0
H1981 H 0.53126 0.0634 0.20047 0.0
H1982 H 0.53687 0.03478 0.18747 0.0
H1983 H 0.52396 0.03638 0.21508 0.0
H1984 H 0.49201 1.00218 0.19237 0.0
H1985 H 0.50489 1.00049 0.1647 0.0
H1986 H 0.47743 1.00566 0.16211 0.0
H1987 H 0.47345 0.08552 0.12731 0.0
H1988 H 0.49468 0.07847 0.09318 0.0
H1989 H 0.52827 0.03248 0.13752 0.0
C1990 C 0.47875 0.04905 0.216 0.0
C1991 C 0.46216 0.06197 0.22274 0.0
C1992 C 0.4539 0.07569 0.20419 0.0
C1993 C 0.46166 0.07721 0.18079 0.0
C1994 C 0.47776 0.06445 0.1748 0.0
C1995 C 0.48609 0.05033 0.19179 0.0
C1996 C 0.50255 0.03749 0.17968 0.0
C1997 C 0.525 0.04338 0.1967 0.0
C1998 C 0.49371 1.00981 0.17443 0.0
C1999 C 0.50345 0.04804 0.15438 0.0
C2000 C 0.48841 0.06299 0.15172 0.0
C2001 C 0.48524 0.07385 0.12953 0.0
C2002 C 0.49749 0.06962 0.10989 0.0
C2003 C 0.5136 0.05494 0.11183 0.0
C2004 C 0.51644 0.04405 0.13489 0.0
H2005 H 0.79799 0.69595 0.95395 0.0
H2006 H 0.78382 0.75517 1.00327 0.0
H2007 H 0.78678 0.78143 0.97002 0.0
H2008 H 0.83749 0.73479 0.92453 0.0
H2009 H 0.82908 0.71735 0.89351 0.0
H2010 H 0.8263 0.70259 0.92124 0.0
H2011 H 0.78523 0.68679 0.90409 0.0
H2012 H 0.78792 0.70161 0.87638 0.0
H2013 H 0.76821 0.70816 0.89575 0.0
H2014 H 0.79099 0.80164 0.93311 0.0
H2015 H 0.79668 0.81574 0.89256 0.0
H2016 H 0.8076 0.74452 0.86461 0.0
C2017 C 0.79544 0.71442 0.95761 0.0
C2018 C 0.79045 0.72342 0.98124 0.0
C2019 C 0.78747 0.74775 0.98539 0.0
C2020 C 0.78916 0.76288 0.9666 0.0
C2021 C 0.79388 0.75356 0.94361 0.0
C2022 C 0.79708 0.72999 0.93885 0.0
C2023 C 0.80206 0.72504 0.91216 0.0
C2024 C 0.8251 0.71963 0.91292 0.0
C2025 C 0.78481 0.70416 0.89615 0.0
C2026 C 0.80065 0.74943 0.90278 0.0
C2027 C 0.79611 0.7655 0.92152 0.0
C2028 C 0.79446 0.78928 0.91817 0.0
C2029 C 0.79768 0.79711 0.89507 0.0
C2030 C 0.80233 0.78123 0.87545 0.0
C2031 C 0.80369 0.75693 0.87922 0.0
H2032 H 0.92374 0.18956 0.09688 0.0
H2033 H 0.87061 0.12795 0.09446 0.0
H2034 H 0.8916 0.10071 0.07499 0.0
H2035 H 0.93493 0.17489 0.03911 0.0
H2036 H 0.96422 0.18366 0.04649 0.0
H2037 H 0.94766 0.19822 0.06523 0.0
H2038 H 0.96702 0.18612 0.1062 0.0
H2039 H 0.98453 0.17254 0.08799 0.0
H2040 H 0.96911 0.15477 0.10765 0.0
H2041 H 0.91264 0.08322 0.04713 0.0
H2042 H 0.94095 0.07013 0.02622 0.0
H2043 H 0.98182 0.14248 0.04759 0.0
C2044 C 0.91696 0.17018 0.09321 0.0
C2045 C 0.89556 0.16067 0.0964 0.0
C2046 C 0.887 0.13537 0.09169 0.0
C2047 C 0.89867 0.11987 0.08051 0.0
C2048 C 0.91875 0.13023 0.0749 0.0
C2049 C 0.92837 0.15449 0.08208 0.0
C2050 C 0.94969 0.16102 0.07262 0.0
C2051 C 0.94906 0.18061 0.05482 0.0
C2052 C 0.96872 0.16905 0.09494 0.0
C2053 C 0.95006 0.13664 0.05826 0.0
C2054 C 0.93173 0.11951 0.05943 0.0
C2055 C 0.9274 0.09614 0.04651 0.0
C2056 C 0.94338 0.08915 0.03403 0.0
C2057 C 0.96361 0.10534 0.03547 0.0
C2058 C 0.96642 0.1299 0.04614 0.0
H2059 H 0.41676 0.47147 0.11007 0.0
H2060 H 0.39934 0.42896 0.03542 0.0
H2061 H 0.43522 0.44576 0.02561 0.0
H2062 H 0.44744 0.52506 0.09148 0.0
H2063 H 0.46841 0.53117 0.11912 0.0
H2064 H 0.44134 0.51552 0.12096 0.0
H2065 H 0.45704 0.47968 0.13758 0.0
H2066 H 0.48419 0.49522 0.13577 0.0
H2067 H 0.47388 0.46475 0.11947 0.0
H2068 H 0.4733 0.46705 0.02327 0.0
H2069 H 0.51022 0.49278 0.02858 0.0
H2070 H 0.50382 0.52218 0.10413 0.0
C2071 C 0.42052 0.46576 0.09169 0.0
C2072 C 0.405 0.44881 0.07358 0.0
C2073 C 0.41076 0.44182 0.04976 0.0
C2074 C 0.43122 0.45127 0.04391 0.0
C2075 C 0.44615 0.46777 0.06206 0.0
C2076 C 0.44114 0.47501 0.08548 0.0
C2077 C 0.46038 0.4931 0.10141 0.0
C2078 C 0.45401 0.51767 0.10866 0.0
C2079 C 0.4694 0.48256 0.12496 0.0
C2080 C 0.47658 0.49529 0.0831 0.0
C2081 C 0.46813 0.48024 0.06061 0.0
C2082 C 0.48009 0.4789 0.04085 0.0
C2083 C 0.50111 0.49352 0.04405 0.0
C2084 C 0.50999 0.5095 0.06676 0.0
C2085 C 0.49752 0.51015 0.08655 0.0
H2086 H 0.41352 0.57139 0.81022 0.0
H2087 H 0.47089 0.60334 0.78081 0.0
H2088 H 0.4623 0.64403 0.78923 0.0
H2089 H 0.37824 0.60581 0.78426 0.0
H2090 H 0.36485 0.60975 0.81129 0.0
H2091 H 0.37699 0.58358 0.80603 0.0
H2092 H 0.4002 0.5949 0.85098 0.0
H2093 H 0.38825 0.62137 0.8562 0.0
H2094 H 0.41742 0.62472 0.8598 0.0
H2095 H 0.44749 0.68088 0.80018 0.0
H2096 H 0.42511 0.71092 0.80729 0.0
H2097 H 0.375 0.6537 0.82453 0.0
C2098 C 0.42425 0.58698 0.80562 0.0
C2099 C 0.44275 0.58429 0.79473 0.0
C2100 C 0.45656 0.60505 0.7891 0.0
C2101 C 0.45197 0.62826 0.79403 0.0
C2102 C 0.43363 0.63036 0.80479 0.0
C2103 C 0.41992 0.61035 0.81044 0.0
C2104 C 0.40055 0.61761 0.82039 0.0
C2105 C 0.37889 0.60336 0.80452 0.0
C2106 C 0.40167 0.61445 0.8485 0.0
C2107 C 0.40462 0.64435 0.81725 0.0
C2108 C 0.42428 0.65154 0.80949 0.0
C2109 C 0.43183 0.67544 0.80593 0.0
C2110 C 0.41857 0.6924 0.80965 0.0
C2111 C 0.39735 0.68519 0.81565 0.0
C2112 C 0.3908 0.66072 0.82009 0.0
H2113 H 0.28008 0.67057 0.55643 0.0
H2114 H 0.29049 0.67968 0.6384 0.0
H2115 H 0.25452 0.65324 0.63711 0.0
H2116 H 0.21856 0.66918 0.54993 0.0
H2117 H 0.21301 0.6478 0.52132 0.0
H2118 H 0.23812 0.67014 0.52871 0.0
H2119 H 0.25958 0.63535 0.52442 0.0
H2120 H 0.23464 0.61287 0.51787 0.0
H2121 H 0.25562 0.61118 0.54374 0.0
H2122 H 0.22274 0.62056 0.62739 0.0
H2123 H 0.19012 0.58931 0.61017 0.0
H2124 H 0.19708 0.60353 0.53389 0.0
C2125 C 0.27431 0.66748 0.57399 0.0
C2126 C 0.28767 0.67674 0.59756 0.0
C2127 C 0.28013 0.67265 0.62032 0.0
C2128 C 0.25988 0.65769 0.61972 0.0
C2129 C 0.24738 0.64786 0.5962 0.0
C2130 C 0.25376 0.65328 0.5737 0.0
C2131 C 0.23713 0.63983 0.55112 0.0
C2132 C 0.22605 0.65781 0.53694 0.0
C2133 C 0.24737 0.62386 0.53325 0.0
C2134 C 0.2214 0.62452 0.56456 0.0
C2135 C 0.22779 0.62961 0.59052 0.0
C2136 C 0.21718 0.61676 0.60717 0.0
C2137 C 0.19896 0.59874 0.59715 0.0
C2138 C 0.19144 0.59384 0.57074 0.0
C2139 C 0.20275 0.60686 0.55413 0.0
H2140 H 0.73525 0.95831 0.858 0.0
H2141 H 0.71284 0.95848 0.77817 0.0
H2142 H 0.729 0.92275 0.76802 0.0
H2143 H 0.78677 0.93759 0.85272 0.0
H2144 H 0.78454 0.91722 0.87626 0.0
H2145 H 0.77184 0.94341 0.87799 0.0
H2146 H 0.73484 0.91546 0.87834 0.0
H2147 H 0.74746 0.88919 0.87661 0.0
H2148 H 0.7243 0.8904 0.85332 0.0
H2149 H 0.74753 0.88481 0.76528 0.0
H2150 H 0.76581 0.84997 0.77066 0.0
H2151 H 0.77772 0.87088 0.85185 0.0
C2152 C 0.73379 0.95102 0.83831 0.0
C2153 C 0.7223 0.96237 0.81894 0.0
C2154 C 0.72108 0.95106 0.79368 0.0
C2155 C 0.73042 0.93038 0.78761 0.0
C2156 C 0.74125 0.9197 0.80676 0.0
C2157 C 0.74292 0.92957 0.83175 0.0
C2158 C 0.75481 0.9135 0.84855 0.0
C2159 C 0.77574 0.92885 0.86486 0.0
C2160 C 0.73945 0.90143 0.86522 0.0
C2161 C 0.76015 0.89378 0.82922 0.0
C2162 C 0.75182 0.89774 0.80519 0.0
C2163 C 0.75395 0.88181 0.78415 0.0
C2164 C 0.76447 0.86166 0.78741 0.0
C2165 C 0.77351 0.85661 0.81156 0.0
C2166 C 0.77124 0.87352 0.83286 0.0
H2167 H 0.78816 0.97045 0.58232 0.0
H2168 H 0.76244 0.89491 0.55023 0.0
H2169 H 0.72566 0.90397 0.54068 0.0
H2170 H 0.74278 0.9798 0.61193 0.0
H2171 H 0.74377 1.0105 0.60475 0.0
H2172 H 0.7683 0.9983 0.60837 0.0
H2173 H 0.77455 1.00803 0.56377 0.0
H2174 H 0.75004 1.02029 0.56005 0.0
H2175 H 0.75329 0.99624 0.53693 0.0
H2176 H 0.69142 0.92125 0.53429 0.0
H2177 H 0.66234 0.94541 0.53294 0.0
H2178 H 0.7098 1.00934 0.57023 0.0
C2179 C 0.77479 0.95585 0.57325 0.0
C2180 C 0.77825 0.93197 0.56708 0.0
C2181 C 0.76027 0.91337 0.55521 0.0
C2182 C 0.73926 0.91832 0.54965 0.0
C2183 C 0.73637 0.94199 0.55608 0.0
C2184 C 0.75362 0.96046 0.56762 0.0
C2185 C 0.746 0.98428 0.57269 0.0
C2186 C 0.75048 0.99377 0.60113 0.0
C2187 C 0.7566 1.00334 0.55745 0.0
C2188 C 0.72175 0.97619 0.56284 0.0
C2189 C 0.71657 0.95179 0.55295 0.0
C2190 C 0.69529 0.94034 0.54211 0.0
C2191 C 0.67889 0.95419 0.54139 0.0
C2192 C 0.68377 0.97916 0.55173 0.0
C2193 C 0.70552 0.99019 0.56261 0.0
H2194 H 0.40167 0.4464 0.76257 0.0
H2195 H 0.44845 0.45212 0.83145 0.0
H2196 H 0.42714 0.41495 0.8426 0.0
H2197 H 0.35372 0.42509 0.78658 0.0
H2198 H 0.3408 0.40334 0.75919 0.0
H2199 H 0.36008 0.43001 0.75577 0.0
H2200 H 0.38284 0.40248 0.73433 0.0
H2201 H 0.36365 0.3757 0.73788 0.0
H2202 H 0.39214 0.37894 0.75057 0.0
H2203 H 0.40081 0.37821 0.84721 0.0
H2204 H 0.3697 0.34419 0.84547 0.0
H2205 H 0.33973 0.36141 0.77373 0.0
C2206 C 0.4074 0.43967 0.77988 0.0
C2207 C 0.42673 0.45199 0.79609 0.0
C2208 C 0.43381 0.44274 0.8186 0.0
C2209 C 0.42183 0.42167 0.82514 0.0
C2210 C 0.40296 0.4098 0.80877 0.0
C2211 C 0.39578 0.41827 0.78653 0.0
C2212 C 0.37486 0.40182 0.77246 0.0
C2213 C 0.35627 0.41592 0.76827 0.0
C2214 C 0.3786 0.38898 0.74731 0.0
C2215 C 0.37087 0.38377 0.791 0.0
C2216 C 0.38757 0.38841 0.81152 0.0
C2217 C 0.38765 0.37427 0.83119 0.0
C2218 C 0.36998 0.355 0.83002 0.0
C2219 C 0.35241 0.35041 0.80953 0.0
C2220 C 0.35297 0.36475 0.78965 0.0
H2221 H 0.22376 0.62213 0.35911 0.0
H2222 H 0.24191 0.58866 0.29117 0.0
H2223 H 0.26194 0.62854 0.28482 0.0
H2224 H 0.21714 0.67987 0.33648 0.0
H2225 H 0.22938 0.6992 0.36576 0.0
H2226 H 0.21619 0.66808 0.36619 0.0
H2227 H 0.25147 0.66011 0.39167 0.0
H2228 H 0.26462 0.69127 0.39135 0.0
H2229 H 0.27666 0.66664 0.37952 0.0
H2230 H 0.27981 0.67138 0.28427 0.0
H2231 H 0.29542 0.71474 0.28966 0.0
H2232 H 0.26812 0.72538 0.35851 0.0
C2233 C 0.23204 0.62317 0.34296 0.0
C2234 C 0.23097 0.60147 0.32561 0.0
C2235 C 0.24222 0.6043 0.30487 0.0
C2236 C 0.25375 0.62715 0.30103 0.0
C2237 C 0.25446 0.64786 0.31813 0.0
C2238 C 0.2441 0.64631 0.33888 0.0
C2239 C 0.24808 0.67207 0.3542 0.0
C2240 C 0.2264 0.68029 0.35575 0.0
C2241 C 0.26096 0.67254 0.38077 0.0
C2242 C 0.26188 0.68811 0.33853 0.0
C2243 C 0.26524 0.67334 0.3179 0.0
C2244 C 0.2773 0.68302 0.30043 0.0
C2245 C 0.28624 0.70814 0.30382 0.0
C2246 C 0.28347 0.72449 0.32462 0.0
C2247 C 0.2709 0.71394 0.34236 0.0
H2248 H 0.55531 0.70031 0.47355 0.0
H2249 H 0.53464 0.74019 0.53594 0.0
H2250 H 0.5422 0.70878 0.56278 0.0
H2251 H 0.53354 0.64024 0.48445 0.0
H2252 H 0.55633 0.62742 0.47694 0.0
H2253 H 0.54995 0.65336 0.46277 0.0
H2254 H 0.58929 0.67714 0.47984 0.0
H2255 H 0.59571 0.65137 0.49439 0.0
H2256 H 0.59971 0.68071 0.51325 0.0
H2257 H 0.5499 0.67198 0.58228 0.0
H2258 H 0.55792 0.63245 0.59315 0.0
H2259 H 0.57501 0.61676 0.51912 0.0
C2260 C 0.55233 0.70238 0.49285 0.0
C2261 C 0.54409 0.72264 0.50255 0.0
C2262 C 0.54076 0.72483 0.52802 0.0
C2263 C 0.54508 0.70709 0.54344 0.0
C2264 C 0.55304 0.68732 0.53332 0.0
C2265 C 0.55683 0.68493 0.50867 0.0
C2266 C 0.56551 0.66186 0.50257 0.0
C2267 C 0.55042 0.64471 0.48037 0.0
C2268 C 0.58894 0.66815 0.49719 0.0
C2269 C 0.56505 0.65118 0.52726 0.0
C2270 C 0.55804 0.66634 0.54483 0.0
C2271 C 0.55558 0.66008 0.56875 0.0
C2272 C 0.56014 0.63765 0.57479 0.0
C2273 C 0.56713 0.62181 0.55703 0.0
C2274 C 0.56983 0.62876 0.53307 0.0
H2275 H 0.67737 0.3402 0.70765 0.0
H2276 H 0.63546 0.27917 0.72991 0.0
H2277 H 0.66736 0.26866 0.75518 0.0
H2278 H 0.72522 0.3135 0.70481 0.0
H2279 H 0.74455 0.34076 0.71931 0.0
H2280 H 0.71873 0.34302 0.70149 0.0
H2281 H 0.71031 0.36878 0.74008 0.0
H2282 H 0.73618 0.36692 0.75799 0.0
H2283 H 0.71137 0.3571 0.76999 0.0
H2284 H 0.70355 0.26418 0.77781 0.0
H2285 H 0.74088 0.26959 0.8017 0.0
H2286 H 0.76028 0.33523 0.7686 0.0
C2287 C 0.67504 0.3246 0.7178 0.0
C2288 C 0.65389 0.31035 0.71667 0.0
C2289 C 0.65144 0.29034 0.73055 0.0
C2290 C 0.66952 0.28412 0.74484 0.0
C2291 C 0.69013 0.29834 0.74558 0.0
C2292 C 0.69301 0.31851 0.73294 0.0
C2293 C 0.71681 0.33177 0.73886 0.0
C2294 C 0.72692 0.33229 0.71467 0.0
C2295 C 0.71878 0.35768 0.75255 0.0
C2296 C 0.72686 0.31567 0.75638 0.0
C2297 C 0.71111 0.29631 0.75962 0.0
C2298 C 0.71605 0.27914 0.77523 0.0
C2299 C 0.73741 0.28217 0.7885 0.0
C2300 C 0.7538 0.30221 0.78631 0.0
C2301 C 0.74841 0.31911 0.76982 0.0
H2302 H 0.05475 0.36877 0.97343 0.0
H2303 H 0.02597 0.33189 0.03075 0.0
H2304 H 1.02344 0.37177 0.05316 0.0
H2305 H 0.08746 0.42028 1.01517 0.0
H2306 H 0.0833 0.44141 0.99292 0.0
H2307 H 0.08252 0.40995 0.98164 0.0
H2308 H 0.04396 0.40698 0.95573 0.0
H2309 H 0.04453 0.43836 0.96723 0.0
H2310 H 1.02253 0.41482 0.97166 0.0
H2311 H 1.0225 0.4157 0.06791 0.0
H2312 H 0.02763 0.46069 0.07686 0.0
H2313 H 0.05878 0.46801 1.01089 0.0
C2314 C 0.04804 0.36907 0.99079 0.0
C2315 C 0.04054 0.34736 1.00042 0.0
C2316 C 0.0319 0.34842 0.02319 0.0
C2317 C 0.03026 0.37092 0.0359 0.0
C2318 C 0.03748 0.39199 0.02561 0.0
C2319 C 0.04648 0.39125 1.00376 0.0
C2320 C 0.05348 0.41644 0.99684 0.0
C2321 C 0.07815 0.42236 0.99665 0.0
C2322 C 0.04034 0.41931 0.97136 0.0
C2323 C 0.04741 0.43156 0.01848 0.0
C2324 C 0.03776 0.41716 0.0346 0.0
C2325 C 0.03022 0.42716 0.05556 0.0
C2326 C 0.0331 0.45261 0.06044 0.0
C2327 C 0.04383 0.46751 0.04469 0.0
C2328 C 0.05083 0.45686 0.02337 0.0
H2329 H 0.04185 0.81966 0.22766 0.0
H2330 H 1.02447 0.76334 0.1626 0.0
H2331 H 0.98955 0.74811 0.17624 0.0
H2332 H 1.01683 0.78447 0.27223 0.0
H2333 H 1.00707 0.8097 0.28692 0.0
H2334 H 0.03141 0.81526 0.27304 0.0
H2335 H 1.01456 0.84396 0.24483 0.0
H2336 H 0.99026 0.83856 0.25878 0.0
H2337 H 0.98838 0.83277 0.22494 0.0
H2338 H 0.95639 0.7392 0.1966 0.0
H2339 H 0.92593 0.73953 0.22061 0.0
H2340 H 0.96422 0.80261 0.27121 0.0
C2341 C 0.03073 0.80402 0.21647 0.0
C2342 C 0.03582 0.79258 0.1942 0.0
C2343 C 1.02079 0.77239 0.17973 0.0
C2344 C 1.00099 0.76352 0.18737 0.0
C2345 C 0.99637 0.77523 0.20936 0.0
C2346 C 1.01067 0.79519 0.22357 0.0
C2347 C 1.0011 0.80536 0.24552 0.0
C2348 C 1.01493 0.80358 0.27093 0.0
C2349 C 0.99842 0.83172 0.24337 0.0
C2350 C 0.97923 0.78808 0.24133 0.0
C2351 C 0.9769 0.77063 0.22057 0.0
C2352 C 0.95798 0.7528 0.21288 0.0
C2353 C 0.94083 0.75308 0.22661 0.0
C2354 C 0.94272 0.77125 0.24749 0.0
C2355 C 0.96226 0.78874 0.25505 0.0
H2356 H 0.5852 0.31372 0.15727 0.0
H2357 H 0.60915 0.35099 0.23359 0.0
H2358 H 0.62032 0.38955 0.21639 0.0
H2359 H 0.62608 0.34534 0.12606 0.0
H2360 H 0.60662 0.34626 0.09838 0.0
H2361 H 0.60201 0.3216 0.11689 0.0
H2362 H 0.56422 0.33119 0.12241 0.0
H2363 H 0.56863 0.35562 0.10369 0.0
H2364 H 0.56248 0.36158 0.13506 0.0
H2365 H 0.62552 0.42415 0.19093 0.0
H2366 H 0.62243 0.45256 0.15899 0.0
H2367 H 0.59728 0.39123 0.10019 0.0
C2368 C 0.59297 0.32994 0.17037 0.0
C2369 C 0.59646 0.32963 0.1966 0.0
C2370 C 0.60632 0.35114 0.21332 0.0
C2371 C 0.61288 0.37294 0.20377 0.0
C2372 C 0.60944 0.37254 0.17763 0.0
C2373 C 0.59955 0.35162 0.16124 0.0
C2374 C 0.59594 0.35618 0.13416 0.0
C2375 C 0.60843 0.34147 0.11793 0.0
C2376 C 0.57138 0.35085 0.1232 0.0
C2377 C 0.6056 0.38299 0.13778 0.0
C2378 C 0.61326 0.39223 0.16295 0.0
C2379 C 0.62028 0.41714 0.17108 0.0
C2380 C 0.61871 0.43306 0.15297 0.0
C2381 C 0.61057 0.42362 0.1274 0.0
C2382 C 0.60463 0.39846 0.1196 0.0
H2383 H 0.97109 0.28907 0.3593 0.0
H2384 H 0.98304 0.35604 0.41149 0.0
H2385 H 0.94934 0.36641 0.39044 0.0
H2386 H 0.95368 0.30818 0.30635 0.0
H2387 H 0.93106 0.28356 0.29313 0.0
H2388 H 0.95328 0.27806 0.31511 0.0
H2389 H 0.92696 0.26168 0.34472 0.0
H2390 H 0.90442 0.266 0.32224 0.0
H2391 H 0.90817 0.27975 0.3547 0.0
H2392 H 0.91974 0.37337 0.35895 0.0
H2393 H 0.88813 0.37115 0.32573 0.0
H2394 H 0.89558 0.29923 0.29444 0.0
C2395 C 0.96593 0.30529 0.36687 0.0
C2396 C 0.97924 0.32187 0.38668 0.0
C2397 C 0.97259 0.34311 0.39637 0.0
C2398 C 0.95366 0.34921 0.38448 0.0
C2399 C 0.94155 0.33334 0.36372 0.0
C2400 C 0.94673 0.31123 0.35574 0.0
C2401 C 0.9312 0.29792 0.33251 0.0
C2402 C 0.94305 0.29159 0.31049 0.0
C2403 C 0.91684 0.27499 0.33893 0.0
C2404 C 0.91815 0.31722 0.32721 0.0
C2405 C 0.92411 0.33728 0.34563 0.0
C2406 C 0.91448 0.35754 0.34466 0.0
C2407 C 0.89688 0.3563 0.32539 0.0
C2408 C 0.88923 0.33484 0.30774 0.0
C2409 C 0.90098 0.31585 0.30769 0.0
H2410 H 0.04929 0.7178 0.64356 0.0
H2411 H 0.07922 0.68584 0.70629 0.0
H2412 H 0.08555 0.65303 0.67651 0.0
H2413 H 1.02159 0.66008 0.60758 0.0
H2414 H 1.02484 0.66977 0.57733 0.0
H2415 H 1.02331 0.6917 0.6035 0.0
H2416 H 0.06034 0.71751 0.5981 0.0
H2417 H 0.06204 0.69543 0.57209 0.0
H2418 H 0.08388 0.70354 0.59885 0.0
H2419 H 0.08487 0.62272 0.64292 0.0
H2420 H 0.07591 0.59325 0.60576 0.0
H2421 H 0.05157 0.64519 0.56107 0.0
C2422 C 0.05678 0.70358 0.65092 0.0
C2423 C 0.06356 0.70404 0.6771 0.0
C2424 C 0.07348 0.68543 0.68629 0.0
C2425 C 0.07753 0.66701 0.66953 0.0
C2426 C 0.07135 0.66752 0.64385 0.0
C2427 C 0.06085 0.68488 0.63442 0.0
C2428 C 0.05455 0.67972 0.6059 0.0
C2429 C 0.0296 0.67503 0.59811 0.0
C2430 C 0.06589 0.70029 0.59299 0.0
C2431 C 0.06328 0.6567 0.60095 0.0
C2432 C 0.07289 0.6503 0.62334 0.0
C2433 C 0.07883 0.62809 0.62497 0.0
C2434 C 0.07442 0.61157 0.60322 0.0
C2435 C 0.06554 0.61774 0.57966 0.0
C2436 C 0.05999 0.64075 0.5784 0.0
H2437 H 0.59789 0.79794 0.88248 0.0
H2438 H 0.59684 0.86683 0.85376 0.0
H2439 H 0.62475 0.85891 0.82767 0.0
H2440 H 0.6536 0.79736 0.88657 0.0
H2441 H 0.64964 0.76526 0.87543 0.0
H2442 H 0.62984 0.7766 0.89163 0.0
H2443 H 0.59939 0.75742 0.85357 0.0
H2444 H 0.61909 0.74601 0.83713 0.0
H2445 H 0.60228 0.76499 0.82242 0.0
H2446 H 0.65443 0.84453 0.80779 0.0
H2447 H 0.68292 0.82405 0.79385 0.0
H2448 H 0.66028 0.76252 0.83198 0.0
C2449 C 0.60387 0.81151 0.87098 0.0
C2450 C 0.59612 0.83333 0.87044 0.0
C2451 C 0.60328 0.85031 0.85455 0.0
C2452 C 0.61886 0.84586 0.83966 0.0
C2453 C 0.62621 0.82402 0.84052 0.0
C2454 C 0.61871 0.80698 0.85549 0.0
C2455 C 0.62866 0.78471 0.85261 0.0
C2456 C 0.64119 0.78078 0.87807 0.0
C2457 C 0.61132 0.76195 0.84072 0.0
C2458 C 0.64377 0.7924 0.83454 0.0
C2459 C 0.6421 0.81503 0.82766 0.0
C2460 C 0.65563 0.82657 0.81255 0.0
C2461 C 0.67162 0.81478 0.80462 0.0
C2462 C 0.67368 0.79173 0.81183 0.0
C2463 C 0.65915 0.78021 0.82634 0.0
H2464 H 0.5004 0.5612 0.72991 0.0
H2465 H 0.49428 0.4827 0.72003 0.0
H2466 H 0.51592 0.4855 0.6854 0.0
H2467 H 0.49445 0.56684 0.66314 0.0
H2468 H 0.51359 0.59544 0.66726 0.0
H2469 H 0.49843 0.58761 0.69202 0.0
H2470 H 0.53453 0.59381 0.7237 0.0
H2471 H 0.54983 0.60155 0.69903 0.0
H2472 H 0.55521 0.57717 0.7166 0.0
H2473 H 0.53662 0.49608 0.65218 0.0
H2474 H 0.55546 0.51349 0.61989 0.0
H2475 H 0.54877 0.58605 0.64981 0.0
C2476 C 0.50364 0.54471 0.72025 0.0
C2477 C 0.49572 0.52165 0.72712 0.0
C2478 C 0.50009 0.50034 0.7145 0.0
C2479 C 0.51242 0.50183 0.69505 0.0
C2480 C 0.51994 0.52476 0.68848 0.0
C2481 C 0.51566 0.54585 0.70046 0.0
C2482 C 0.52503 0.56798 0.68876 0.0
C2483 C 0.50679 0.58018 0.67711 0.0
C2484 C 0.54218 0.5862 0.70819 0.0
C2485 C 0.53534 0.55593 0.66843 0.0
C2486 C 0.5321 0.531 0.66881 0.0
C2487 C 0.53927 0.51554 0.65161 0.0
C2488 C 0.54986 0.52568 0.63323 0.0
C2489 C 0.5534 0.55114 0.63222 0.0
C2490 C 0.54626 0.56656 0.65023 0.0
H2491 H 0.84141 0.27016 0.04906 0.0
H2492 H 0.83551 0.19516 0.01546 0.0
H2493 H 0.8025 0.19808 0.98655 0.0
H2494 H 0.78507 0.27091 0.04625 0.0
H2495 H 0.78732 0.30101 0.03705 0.0
H2496 H 0.81026 0.29292 0.05583 0.0
H2497 H 0.83488 0.3041 0.02245 0.0
H2498 H 0.81244 0.31373 1.00468 0.0
H2499 H 0.82537 0.29136 0.98978 0.0
H2500 H 0.76945 0.20827 0.963 0.0
H2501 H 0.74914 0.23006 0.93372 0.0
H2502 H 0.77618 0.29798 0.98287 0.0
C2503 C 0.83348 0.25457 0.03517 0.0
C2504 C 0.84069 0.23239 0.03477 0.0
C2505 C 0.83016 0.21241 0.01614 0.0
C2506 C 0.81107 0.21363 1.00011 0.0
C2507 C 0.8031 0.23503 1.0028 0.0
C2508 C 0.81455 0.25549 0.01895 0.0
C2509 C 0.80413 0.27721 0.0159 0.0
C2510 C 0.79623 0.28602 0.04022 0.0
C2511 C 0.82012 0.29779 1.00768 0.0
C2512 C 0.78513 0.26588 0.99511 0.0
C2513 C 0.78434 0.24125 0.98856 0.0
C2514 C 0.76981 0.2275 0.96796 0.0
C2515 C 0.75787 0.23991 0.95173 0.0
C2516 C 0.76207 0.26572 0.95563 0.0
C2517 C 0.77296 0.27825 0.97935 0.0
H2518 H 0.16873 0.5279 0.22582 0.0
H2519 H 0.12129 0.53486 0.27532 0.0
H2520 H 0.0946 0.53893 0.23895 0.0
H2521 H 0.15221 0.5701 0.18245 0.0
H2522 H 0.15493 0.55213 0.15381 0.0
H2523 H 0.17139 0.54999 0.18344 0.0
H2524 H 0.15719 0.50346 0.17726 0.0
H2525 H 0.14081 0.50547 0.14753 0.0
H2526 H 0.12822 0.49159 0.17175 0.0
H2527 H 0.07284 0.54361 0.19895 0.0
H2528 H 0.055 0.54533 0.15665 0.0
H2529 H 0.11295 0.53312 0.1266 0.0
C2530 C 0.15271 0.53031 0.22899 0.0
C2531 C 0.1475 0.53116 0.25423 0.0
C2532 C 0.12612 0.53411 0.25685 0.0
C2533 C 0.11068 0.53652 0.23606 0.0
C2534 C 0.11622 0.53569 0.21186 0.0
C2535 C 0.13656 0.53235 0.20788 0.0
C2536 C 0.13729 0.53141 0.17914 0.0
C2537 C 0.15502 0.55214 0.17443 0.0
C2538 C 0.14112 0.5065 0.16827 0.0
C2539 C 0.1143 0.53503 0.16786 0.0
C2540 C 0.10285 0.53757 0.18764 0.0
C2541 C 0.08165 0.5414 0.18339 0.0
C2542 C 0.07154 0.54231 0.15867 0.0
C2543 C 0.08188 0.5392 0.13706 0.0
C2544 C 0.10408 0.53567 0.14205 0.0
H2545 H 0.80629 0.86052 0.49932 0.0
H2546 H 0.87569 0.88909 0.52083 0.0
H2547 H 0.88227 0.86726 0.48126 0.0
H2548 H 0.81028 0.80082 0.46987 0.0
H2549 H 0.78777 0.79897 0.4446 0.0
H2550 H 0.78831 0.81621 0.47488 0.0
H2551 H 0.78444 0.85462 0.4533 0.0
H2552 H 0.78354 0.83731 0.42301 0.0
H2553 H 0.80351 0.86513 0.43314 0.0
H2554 H 0.88124 0.84303 0.43971 0.0
H2555 H 0.87226 0.82067 0.39637 0.0
H2556 H 0.80353 0.80775 0.40231 0.0
C2557 C 0.82279 0.8621 0.49548 0.0
C2558 C 0.84058 0.87628 0.5126 0.0
C2559 C 0.86201 0.87817 0.5075 0.0
C2560 C 0.86587 0.86581 0.4853 0.0
C2561 C 0.84805 0.85164 0.46873 0.0
C2562 C 0.82691 0.84984 0.47339 0.0
C2563 C 0.81066 0.83409 0.45198 0.0
C2564 C 0.79855 0.81116 0.46089 0.0
C2565 C 0.79461 0.84867 0.43963 0.0
C2566 C 0.82598 0.82767 0.43455 0.0
C2567 C 0.84748 0.83769 0.44465 0.0
C2568 C 0.86449 0.83489 0.43159 0.0
C2569 C 0.85926 0.82205 0.40713 0.0
C2570 C 0.83723 0.81254 0.39617 0.0
C2571 C 0.82052 0.81484 0.41032 0.0
H2572 H 0.49291 0.49638 0.86868 0.0
H2573 H 0.5145 0.56998 0.85308 0.0
H2574 H 0.53775 0.58035 0.89533 0.0
H2575 H 0.4885 0.51434 0.93294 0.0
H2576 H 0.497 0.48799 0.94426 0.0
H2577 H 0.48359 0.48598 0.91207 0.0
H2578 H 0.51614 0.47076 0.89622 0.0
H2579 H 0.52973 0.47292 0.92839 0.0
H2580 H 0.5433 0.48879 0.90597 0.0
H2581 H 0.5567 0.58337 0.93868 0.0
H2582 H 0.56939 0.57999 0.9833 0.0
H2583 H 0.53515 0.50446 0.97165 0.0
C2584 C 0.50289 0.51449 0.87422 0.0
C2585 C 0.50256 0.53241 0.85801 0.0
C2586 C 0.51504 0.55616 0.86556 0.0
C2587 C 0.52823 0.56211 0.88932 0.0
C2588 C 0.52834 0.54407 0.90505 0.0
C2589 C 0.51586 0.52083 0.89804 0.0
C2590 C 0.51765 0.50558 0.91941 0.0
C2591 C 0.49537 0.49804 0.92766 0.0
C2592 C 0.5273 0.48319 0.91206 0.0
C2593 C 0.5333 0.52392 0.93942 0.0
C2594 C 0.53923 0.54593 0.93061 0.0
C2595 C 0.55242 0.56622 0.94585 0.0
C2596 C 0.55948 0.56415 0.97109 0.0
C2597 C 0.55331 0.54198 0.98061 0.0
C2598 C 0.54042 0.52146 0.96454 0.0
H2599 H 0.88042 0.26996 0.1673 0.0
H2600 H 0.85964 0.19726 0.18572 0.0
H2601 H 0.83568 0.21258 0.21277 0.0
H2602 H 0.87299 0.30452 0.23047 0.0
H2603 H 0.86428 0.32764 0.21304 0.0
H2604 H 0.88455 0.31191 0.20295 0.0
H2605 H 0.86013 0.30113 0.15861 0.0
H2606 H 0.83867 0.31441 0.16915 0.0
H2607 H 0.83312 0.28283 0.15545 0.0
H2608 H 0.80631 0.23268 0.22574 0.0
H2609 H 0.78634 0.26198 0.24426 0.0
H2610 H 0.82441 0.32023 0.2138 0.0
C2611 C 0.87204 0.25763 0.17845 0.0
C2612 C 0.87048 0.23237 0.17332 0.0
C2613 C 0.86016 0.21671 0.18878 0.0
C2614 C 0.84615 0.22512 0.20376 0.0
C2615 C 0.8442 0.24932 0.20394 0.0
C2616 C 0.85784 0.26576 0.19311 0.0
C2617 C 0.85132 0.29024 0.19427 0.0
C2618 C 0.86934 0.30973 0.21121 0.0
C2619 C 0.84548 0.29755 0.16779 0.0
C2620 C 0.83132 0.28462 0.20629 0.0
C2621 C 0.82728 0.26083 0.21136 0.0
C2622 C 0.80961 0.25153 0.22246 0.0
C2623 C 0.7979 0.26808 0.23218 0.0
C2624 C 0.8044 0.29316 0.23068 0.0
C2625 C 0.81924 0.30099 0.21494 0.0
H2626 H 0.1695 0.56108 0.41336 0.0
H2627 H 0.1231 0.50453 0.36196 0.0
H2628 H 0.09645 0.506 0.39081 0.0
H2629 H 0.15583 0.54204 0.47275 0.0
H2630 H 0.1575 0.57226 0.48879 0.0
H2631 H 0.17339 0.56775 0.46419 0.0
H2632 H 0.15645 0.59891 0.44029 0.0
H2633 H 0.14052 0.6035 0.46487 0.0
H2634 H 0.12722 0.59471 0.43245 0.0
H2635 H 0.07306 0.51406 0.42491 0.0
H2636 H 0.05662 0.52581 0.4619 0.0
H2637 H 0.11705 0.57563 0.49542 0.0
C2638 C 0.15379 0.54886 0.40816 0.0
C2639 C 0.14897 0.53239 0.38465 0.0
C2640 C 0.1278 0.51724 0.37927 0.0
C2641 C 0.1123 0.51798 0.39578 0.0
C2642 C 0.11746 0.53415 0.41842 0.0
C2643 C 0.13776 0.54938 0.42478 0.0
C2644 C 0.13865 0.56517 0.45045 0.0
C2645 C 0.15747 0.56158 0.47022 0.0
C2646 C 0.14086 0.59218 0.44681 0.0
C2647 C 0.11627 0.55558 0.45799 0.0
C2648 C 0.10417 0.53816 0.43866 0.0
C2649 C 0.08264 0.52753 0.44011 0.0
C2650 C 0.07327 0.53446 0.46148 0.0
C2651 C 0.08509 0.55161 0.48237 0.0
C2652 C 0.10722 0.56225 0.4803 0.0
H2653 H 0.82612 0.89506 0.66901 0.0
H2654 H 0.83695 0.83708 0.61538 0.0
H2655 H 0.82936 0.80777 0.64504 0.0
H2656 H 0.85077 0.87527 0.72527 0.0
H2657 H 0.83094 0.88239 0.74422 0.0
H2658 H 0.83631 0.89927 0.7185 0.0
H2659 H 0.79533 0.88821 0.699 0.0
H2660 H 0.78985 0.87132 0.72471 0.0
H2661 H 0.7817 0.85665 0.69249 0.0
H2662 H 0.82119 0.78445 0.67958 0.0
H2663 H 0.81333 0.76813 0.71861 0.0
H2664 H 0.80839 0.8402 0.75179 0.0
C2665 C 0.82699 0.87622 0.66365 0.0
C2666 C 0.83239 0.86849 0.63989 0.0
C2667 C 0.83306 0.84359 0.63347 0.0
C2668 C 0.82868 0.82669 0.65017 0.0
C2669 C 0.82357 0.8348 0.67337 0.0
C2670 C 0.82262 0.8589 0.68026 0.0
C2671 C 0.81681 0.86242 0.70666 0.0
C2672 C 0.83479 0.88094 0.72473 0.0
C2673 C 0.79461 0.87011 0.70565 0.0
C2674 C 0.81553 0.83675 0.71368 0.0
C2675 C 0.81911 0.82114 0.69389 0.0
C2676 C 0.81842 0.79645 0.69529 0.0
C2677 C 0.81398 0.78735 0.71754 0.0
C2678 C 0.81049 0.80287 0.73826 0.0
C2679 C 0.81131 0.82796 0.73633 0.0
H2680 H 0.7178 0.40253 0.55218 0.0
H2681 H 0.75027 0.4496 0.50451 0.0
H2682 H 0.74159 0.48535 0.52835 0.0
H2683 H 0.67387 0.43247 0.5577 0.0
H2684 H 0.67352 0.42887 0.59048 0.0
H2685 H 0.68324 0.40713 0.57042 0.0
H2686 H 0.7197 0.41496 0.60185 0.0
H2687 H 0.71021 0.43708 0.62186 0.0
H2688 H 0.73544 0.44557 0.61029 0.0
H2689 H 0.73056 0.51534 0.55684 0.0
H2690 H 0.71067 0.53832 0.58344 0.0
H2691 H 0.68361 0.47204 0.61156 0.0
C2692 C 0.7227 0.42034 0.54652 0.0
C2693 C 0.73456 0.42354 0.52656 0.0
C2694 C 0.7411 0.44699 0.51981 0.0
C2695 C 0.73651 0.46734 0.53338 0.0
C2696 C 0.72556 0.46373 0.55362 0.0
C2697 C 0.71835 0.44088 0.55995 0.0
C2698 C 0.70605 0.44216 0.58189 0.0
C2699 C 0.68278 0.42677 0.57467 0.0
C2700 C 0.7186 0.43447 0.60535 0.0
C2701 C 0.70631 0.4692 0.58573 0.0
C2702 C 0.71855 0.48131 0.56996 0.0
C2703 C 0.72114 0.50626 0.56955 0.0
C2704 C 0.71007 0.51916 0.58493 0.0
C2705 C 0.69627 0.50688 0.59986 0.0
C2706 C 0.6947 0.48175 0.60082 0.0
H2707 H 0.21881 0.11922 0.51401 0.0
H2708 H 0.22789 0.16915 0.58339 0.0
H2709 H 0.19273 0.14819 0.59269 0.0
H2710 H 0.16004 0.11771 0.49888 0.0
H2711 H 0.15343 0.08617 0.48496 0.0
H2712 H 0.17968 0.10452 0.48391 0.0
H2713 H 0.19875 0.07332 0.50547 0.0
H2714 H 0.17261 0.05483 0.50664 0.0
H2715 H 0.19222 0.06512 0.53528 0.0
H2716 H 0.15674 0.12188 0.59485 0.0
H2717 H 0.12184 0.09234 0.58935 0.0
H2718 H 0.13436 0.05989 0.51771 0.0
C2719 C 0.21333 0.12561 0.53115 0.0
C2720 C 0.22608 0.1458 0.54807 0.0
C2721 C 0.2183 0.15385 0.57014 0.0
C2722 C 0.19837 0.14201 0.57561 0.0
C2723 C 0.18603 0.12234 0.55855 0.0
C2724 C 0.19303 0.11432 0.5366 0.0
C2725 C 0.176 0.09341 0.52102 0.0
C2726 C 0.16674 0.1009 0.49569 0.0
C2727 C 0.18547 0.0703 0.51688 0.0
C2728 C 0.15881 0.09034 0.53812 0.0
C2729 C 0.16491 0.10741 0.55955 0.0
C2730 C 0.15176 0.10847 0.57811 0.0
C2731 C 0.13191 0.09162 0.57479 0.0
C2732 C 0.12527 0.07376 0.55314 0.0
C2733 C 0.13896 0.07328 0.53451 0.0
H2734 H 0.18244 1.00844 0.793 0.0
H2735 H 0.21689 0.03274 0.86987 0.0
H2736 H 0.24114 1.0037 0.86394 0.0
H2737 H 0.18449 0.94511 0.79055 0.0
H2738 H 0.18963 0.94161 0.7585 0.0
H2739 H 0.17455 0.96408 0.76844 0.0
H2740 H 0.20195 0.99772 0.75401 0.0
H2741 H 0.21715 0.97532 0.74411 0.0
H2742 H 0.23063 1.00181 0.76631 0.0
H2743 H 0.26105 0.97344 0.85062 0.0
H2744 H 0.27676 0.94133 0.83002 0.0
H2745 H 0.23009 0.93627 0.76124 0.0
C2746 C 0.19495 1.00738 0.80862 0.0
C2747 C 0.19787 1.02245 0.832 0.0
C2748 C 0.21455 1.02115 0.85192 0.0
C2749 C 0.22832 1.00482 0.84872 0.0
C2750 C 0.22517 0.99035 0.82544 0.0
C2751 C 0.20903 0.99141 0.80564 0.0
C2752 C 0.2097 0.97409 0.78241 0.0
C2753 C 0.18832 0.9551 0.77454 0.0
C2754 C 0.21518 0.98808 0.76042 0.0
C2755 C 0.22836 0.96266 0.79268 0.0
C2756 C 0.23709 0.97265 0.81745 0.0
C2757 C 0.2545 0.96548 0.83126 0.0
C2758 C 0.26327 0.94742 0.81944 0.0
C2759 C 0.25453 0.9369 0.79421 0.0
C2760 C 0.23691 0.94441 0.78052 0.0
H2761 H 0.33183 0.91295 0.97772 0.0
H2762 H 0.32825 0.91169 0.05726 0.0
H2763 H 0.35918 0.94681 0.06855 0.0
H2764 H 0.39266 0.92968 0.98855 0.0
H2765 H 0.39215 0.94731 0.96254 0.0
H2766 H 0.37089 0.92108 0.96174 0.0
H2767 H 0.34237 0.94855 0.95444 0.0
H2768 H 0.36358 0.97507 0.9565 0.0
H2769 H 0.3437 0.97484 0.97728 0.0
H2770 H 0.38841 0.98391 0.07074 0.0
H2771 H 0.41934 1.01524 0.06408 0.0
H2772 H 0.4035 0.99158 0.98337 0.0
C2773 C 0.33798 0.91975 0.9975 0.0
C2774 C 0.32786 0.90991 0.01664 0.0
C2775 C 0.33612 0.91901 0.04238 0.0
C2776 C 0.35344 0.93907 0.04895 0.0
C2777 C 0.36241 0.94924 0.02951 0.0
C2778 C 0.35552 0.93935 1.0044 0.0
C2779 C 0.3684 0.95312 0.98722 0.0
C2780 C 0.38182 0.93684 0.97426 0.0
C2781 C 0.35361 0.96351 0.96772 0.0
C2782 C 0.38285 0.97303 1.00645 0.0
C2783 C 0.37921 0.97051 0.03077 0.0
C2784 C 0.39141 0.98616 0.0518 0.0
C2785 C 0.40863 1.00405 0.0479 0.0
C2786 C 0.41308 1.0059 0.02322 0.0
C2787 C 0.3997 0.99083 1.00227 0.0
H2788 H 0.88545 0.63099 0.83035 0.0
H2789 H 0.90563 0.63253 0.75712 0.0
H2790 H 0.88657 0.66643 0.74966 0.0
H2791 H 0.83194 0.64761 0.81418 0.0
H2792 H 0.83411 0.6677 0.84318 0.0
H2793 H 0.84837 0.64273 0.84272 0.0
H2794 H 0.88467 0.67279 0.86055 0.0
H2795 H 0.87046 0.69783 0.86106 0.0
H2796 H 0.89311 0.69831 0.84426 0.0
H2797 H 0.86485 0.70246 0.74987 0.0
H2798 H 0.8449 0.73566 0.75844 0.0
H2799 H 0.83845 0.71393 0.83201 0.0
C2800 C 0.88581 0.63829 0.81262 0.0
C2801 C 0.89747 0.62813 0.79425 0.0
C2802 C 0.89729 0.63927 0.77172 0.0
C2803 C 0.88628 0.65883 0.76724 0.0
C2804 C 0.87531 0.66846 0.78557 0.0
C2805 C 0.87517 0.65865 0.80803 0.0
C2806 C 0.86306 0.67349 0.8251 0.0
C2807 C 0.84319 0.65689 0.83169 0.0
C2808 C 0.87875 0.68635 0.84919 0.0
C2809 C 0.85588 0.69255 0.80864 0.0
C2810 C 0.8633 0.68931 0.78589 0.0
C2811 C 0.85918 0.70489 0.76777 0.0
C2812 C 0.84767 0.72403 0.77285 0.0
C2813 C 0.83966 0.72825 0.79592 0.0
C2814 C 0.84397 0.71174 0.814 0.0
H2815 H 0.83686 0.62553 0.04307 0.0
H2816 H 0.86566 0.70103 0.07267 0.0
H2817 H 0.90096 0.68941 0.08603 0.0
H2818 H 0.86709 0.59943 0.0929 0.0
H2819 H 0.86978 0.57369 0.07154 0.0
H2820 H 0.84648 0.58778 0.0654 0.0
H2821 H 0.85528 0.59448 0.02087 0.0
H2822 H 0.87845 0.58025 0.02684 0.0
H2823 H 0.882 0.61054 0.01799 0.0
H2824 H 0.93345 0.66974 0.09505 0.0
H2825 H 0.96104 0.64342 0.0969 0.0
H2826 H 0.91108 0.58124 0.0611 0.0
C2827 C 0.85061 0.63961 0.05229 0.0
C2828 C 0.84859 0.66419 0.05665 0.0
C2829 C 0.86689 0.68208 0.069 0.0
C2830 C 0.88697 0.67566 0.0768 0.0
C2831 C 0.88842 0.65125 0.07225 0.0
C2832 C 0.87074 0.63351 0.06028 0.0
C2833 C 0.87675 0.60869 0.0571 0.0
C2834 C 0.86428 0.59138 0.07266 0.0
C2835 C 0.8729 0.59787 0.02903 0.0
C2836 C 0.90077 0.61543 0.06812 0.0
C2837 C 0.90712 0.63998 0.07727 0.0
C2838 C 0.92866 0.65049 0.08802 0.0
C2839 C 0.94417 0.63553 0.089 0.0
C2840 C 0.93795 0.61058 0.07904 0.0
C2841 C 0.91603 0.60036 0.06878 0.0
H2842 H 0.22815 0.13809 0.86354 0.0
H2843 H 0.18158 0.14374 0.79789 0.0
H2844 H 0.20709 0.17877 0.78836 0.0
H2845 H 0.24639 0.20388 0.88141 0.0
H2846 H 0.27431 0.20205 0.8922 0.0
H2847 H 0.25257 0.17712 0.89416 0.0
H2848 H 0.27061 0.14739 0.8682 0.0
H2849 H 0.2924 0.17222 0.86624 0.0
H2850 H 0.27681 0.15392 0.83775 0.0
H2851 H 0.23703 0.21182 0.78519 0.0
H2852 H 0.27048 0.24281 0.78884 0.0
H2853 H 0.29779 0.21754 0.85747 0.0
C2854 C 0.22338 0.14688 0.84729 0.0
C2855 C 0.20294 0.13855 0.83151 0.0
C2856 C 0.19708 0.15025 0.81037 0.0
C2857 C 0.21146 0.17001 0.80474 0.0
C2858 C 0.23142 0.17794 0.8207 0.0
C2859 C 0.23741 0.16699 0.84166 0.0
C2860 C 0.25972 0.17971 0.8559 0.0
C2861 C 0.25815 0.19138 0.8825 0.0
C2862 C 0.27583 0.16226 0.85707 0.0
C2863 C 0.26551 0.19897 0.83915 0.0
C2864 C 0.24882 0.19763 0.8191 0.0
C2865 C 0.25018 0.21326 0.80089 0.0
C2866 C 0.26918 0.23084 0.80322 0.0
C2867 C 0.28648 0.23259 0.82359 0.0
C2868 C 0.28469 0.21649 0.84179 0.0
H2869 H 0.39093 0.97278 0.26473 0.0
H2870 H 0.38987 1.01195 0.3382 0.0
H2871 H 0.37239 0.97395 0.35158 0.0
H2872 H 0.33656 0.932 0.2615 0.0
H2873 H 0.34394 0.90559 0.24577 0.0
H2874 H 0.35661 0.93573 0.24093 0.0
H2875 H 0.3946 0.92607 0.25513 0.0
H2876 H 0.38191 0.89597 0.26 0.0
H2877 H 0.40059 0.91579 0.28546 0.0
H2878 H 0.35591 0.93197 0.35857 0.0
H2879 H 0.33964 0.88883 0.35789 0.0
H2880 H 0.34838 0.87384 0.27979 0.0
C2881 C 0.38689 0.97337 0.28358 0.0
C2882 C 0.39195 0.99598 0.30034 0.0
C2883 C 0.38619 0.99544 0.32476 0.0
C2884 C 0.37625 0.97372 0.33267 0.0
C2885 C 0.3715 0.95203 0.31598 0.0
C2886 C 0.37628 0.95154 0.29176 0.0
C2887 C 0.36847 0.92539 0.27768 0.0
C2888 C 0.35033 0.92464 0.25512 0.0
C2889 C 0.38754 0.91521 0.26906 0.0
C2890 C 0.3594 0.91142 0.29808 0.0
C2891 C 0.36131 0.92741 0.31992 0.0
C2892 C 0.35427 0.91935 0.34149 0.0
C2893 C 0.34497 0.89454 0.34089 0.0
C2894 C 0.34252 0.87734 0.31889 0.0
C2895 C 0.34994 0.88618 0.29707 0.0
H2896 H 0.61161 0.39942 0.65847 0.0
H2897 H 0.56488 0.34795 0.6019 0.0
H2898 H 0.55691 0.38166 0.57879 0.0
H2899 H 0.58284 0.44939 0.65845 0.0
H2900 H 0.60694 0.47277 0.6611 0.0
H2901 H 0.60874 0.44481 0.67397 0.0
H2902 H 0.63848 0.4378 0.64717 0.0
H2903 H 0.63666 0.46572 0.6342 0.0
H2904 H 0.63281 0.4375 0.61339 0.0
H2905 H 0.55341 0.4201 0.56206 0.0
H2906 H 0.55527 0.46158 0.55132 0.0
H2907 H 0.60555 0.48948 0.61711 0.0
C2908 C 0.59973 0.39534 0.6412 0.0
C2909 C 0.58889 0.37103 0.6319 0.0
C2910 C 0.57353 0.36635 0.60921 0.0
C2911 C 0.56882 0.3854 0.59601 0.0
C2912 C 0.57989 0.40906 0.60546 0.0
C2913 C 0.59518 0.4142 0.62737 0.0
C2914 C 0.60517 0.44134 0.63267 0.0
C2915 C 0.60064 0.45275 0.65806 0.0
C2916 C 0.62974 0.44584 0.63181 0.0
C2917 C 0.59286 0.45056 0.61051 0.0
C2918 C 0.57834 0.43151 0.59518 0.0
C2919 C 0.56484 0.43515 0.57378 0.0
C2920 C 0.56609 0.45888 0.56783 0.0
C2921 C 0.58075 0.47889 0.58317 0.0
C2922 C 0.59446 0.47457 0.60475 0.0
H2923 H 0.46925 0.81196 0.42759 0.0
H2924 H 0.46591 0.73532 0.40278 0.0
H2925 H 0.42875 0.7323 0.37929 0.0
H2926 H 0.41273 0.809 0.43427 0.0
H2927 H 0.41022 0.83664 0.421 0.0
H2928 H 0.43634 0.83306 0.43687 0.0
H2929 H 0.45325 0.84147 0.39711 0.0
H2930 H 0.42726 0.84533 0.38119 0.0
H2931 H 0.44107 0.82342 0.3671 0.0
H2932 H 0.39177 0.73674 0.35958 0.0
H2933 H 0.359 0.74942 0.33915 0.0
H2934 H 0.38564 0.82419 0.37292 0.0
C2935 C 0.46059 0.79451 0.41734 0.0
C2936 C 0.47047 0.77366 0.41745 0.0
C2937 C 0.45876 0.75141 0.40323 0.0
C2938 C 0.43756 0.74953 0.38988 0.0
C2939 C 0.42819 0.77018 0.39041 0.0
C2940 C 0.43944 0.79243 0.40328 0.0
C2941 C 0.4259 0.81206 0.39911 0.0
C2942 C 0.42101 0.82336 0.42432 0.0
C2943 C 0.43756 0.83173 0.38531 0.0
C2944 C 0.40511 0.7972 0.38235 0.0
C2945 C 0.4069 0.77304 0.37792 0.0
C2946 C 0.39019 0.75558 0.363 0.0
C2947 C 0.37146 0.76293 0.35167 0.0
C2948 C 0.36926 0.78761 0.35497 0.0
C2949 C 0.38636 0.80503 0.37077 0.0
H2950 H 0.0868 0.72253 0.1602 0.0
H2951 H 0.08511 0.75537 0.09087 0.0
H2952 H 0.07899 0.7145 0.06609 0.0
H2953 H 0.11563 0.67653 0.14148 0.0
H2954 H 0.10087 0.65342 0.15669 0.0
H2955 H 0.10428 0.68513 0.16905 0.0
H2956 H 0.06241 0.6807 0.16542 0.0
H2957 H 0.05892 0.64889 0.15338 0.0
H2958 H 0.04512 0.66855 0.13547 0.0
H2959 H 0.07481 0.67055 0.04897 0.0
H2960 H 0.07043 0.62563 0.04043 0.0
H2961 H 0.07392 0.62111 0.12055 0.0
C2962 C 0.0851 0.7211 0.1398 0.0
C2963 C 0.08666 0.74211 0.12744 0.0
C2964 C 0.08425 0.73952 0.10073 0.0
C2965 C 0.08071 0.7164 0.08649 0.0
C2966 C 0.07965 0.6961 0.09927 0.0
C2967 C 0.08161 0.69816 0.1253 0.0
C2968 C 0.08014 0.67343 0.13437 0.0
C2969 C 0.1015 0.67205 0.1514 0.0
C2970 C 0.06047 0.66755 0.14795 0.0
C2971 C 0.07695 0.65713 0.10933 0.0
C2972 C 0.07689 0.67063 0.08935 0.0
C2973 C 0.07474 0.65976 0.06442 0.0
C2974 C 0.07238 0.63437 0.05974 0.0
C2975 C 0.07194 0.62029 0.07985 0.0
C2976 C 0.07424 0.63172 0.10493 0.0
H2977 H 0.09904 0.32092 0.91337 0.0
H2978 H 0.09526 0.25007 0.93894 0.0
H2979 H 0.13227 0.24899 0.93 0.0
H2980 H 0.12469 0.30663 0.86063 0.0
H2981 H 0.14193 0.33631 0.86302 0.0
H2982 H 0.11637 0.33332 0.87444 0.0
H2983 H 0.13651 0.35527 0.91843 0.0
H2984 H 0.16217 0.35818 0.90711 0.0
H2985 H 0.15853 0.34356 0.93475 0.0
H2986 H 0.16955 0.25554 0.91934 0.0
H2987 H 0.20226 0.26504 0.90011 0.0
H2988 H 0.18065 0.32885 0.87471 0.0
C2989 C 0.10612 0.30525 0.91706 0.0
C2990 C 0.09428 0.28544 0.92673 0.0
C2991 C 0.10395 0.26522 0.93126 0.0
C2992 C 0.12506 0.2646 0.92652 0.0
C2993 C 0.13628 0.28418 0.91681 0.0
C2994 C 0.12709 0.30397 0.91163 0.0
C2995 C 0.14208 0.32136 0.8989 0.0
C2996 C 0.13058 0.32458 0.87269 0.0
C2997 C 0.1503 0.34606 0.91581 0.0
C2998 C 0.16063 0.30772 0.89694 0.0
C2999 C 0.15722 0.28686 0.90834 0.0
C3000 C 0.17217 0.27153 0.90981 0.0
C3001 C 0.19068 0.277 0.89845 0.0
C3002 C 0.19397 0.2972 0.88478 0.0
C3003 C 0.17886 0.31315 0.88474 0.0
H3004 H 0.52636 0.7663 0.95652 0.0
H3005 H 0.55629 0.74713 0.89172 0.0
H3006 H 0.55448 0.70543 0.90257 0.0
H3007 H 0.55392 0.73647 0.99835 0.0
H3008 H 0.53129 0.72614 1.01393 0.0
H3009 H 0.53226 0.75326 0.99905 0.0
H3010 H 0.49424 0.73488 0.97198 0.0
H3011 H 0.49327 0.70752 0.98673 0.0
H3012 H 0.48995 0.70563 0.95278 0.0
H3013 H 0.55376 0.66839 0.92312 0.0
H3014 H 0.55397 0.63769 0.95274 0.0
H3015 H 0.52424 0.68182 1.00313 0.0
C3016 C 0.53232 0.7532 0.94454 0.0
C3017 C 0.54153 0.75956 0.92349 0.0
C3018 C 0.54913 0.74222 0.90798 0.0
C3019 C 0.54803 0.71859 0.91384 0.0
C3020 C 0.5389 0.71279 0.93485 0.0
C3021 C 0.53104 0.72952 0.94987 0.0
C3022 C 0.52357 0.71929 0.97245 0.0
C3023 C 0.53602 0.73469 0.9974 0.0
C3024 C 0.49879 0.71668 0.97087 0.0
C3025 C 0.52975 0.69478 0.96851 0.0
C3026 C 0.53812 0.6911 0.94649 0.0
C3027 C 0.54672 0.67064 0.94012 0.0
C3028 C 0.54691 0.65349 0.957 0.0
C3029 C 0.5387 0.65734 0.97976 0.0
C3030 C 0.5298 0.67801 0.98534 0.0
H3031 H 0.15423 0.80147 0.76709 0.0
H3032 H 0.14213 0.72592 0.73251 0.0
H3033 H 0.18138 0.72591 0.74204 0.0
H3034 H 0.20636 0.81898 0.74414 0.0
H3035 H 0.2185 0.83988 0.77239 0.0
H3036 H 0.18953 0.83466 0.76153 0.0
H3037 H 0.18267 0.82276 0.80528 0.0
H3038 H 0.2116 0.82782 0.81614 0.0
H3039 H 0.19464 0.79876 0.8176 0.0
H3040 H 0.22063 0.7328 0.75791 0.0
H3041 H 0.25927 0.74751 0.77656 0.0
H3042 H 0.24582 0.81879 0.80008 0.0
C3043 C 0.15989 0.78491 0.76181 0.0
C3044 C 0.14535 0.76349 0.74977 0.0
C3045 C 0.15318 0.74233 0.74225 0.0
C3046 C 0.17535 0.74218 0.74738 0.0
C3047 C 0.18928 0.76346 0.75964 0.0
C3048 C 0.182 0.78455 0.76643 0.0
C3049 C 0.20051 0.80485 0.77948 0.0
C3050 C 0.20392 0.82582 0.76342 0.0
C3051 C 0.19714 0.81407 0.80621 0.0
C3052 C 0.21898 0.7913 0.78031 0.0
C3053 C 0.21221 0.7676 0.76843 0.0
C3054 C 0.22626 0.75136 0.7672 0.0
C3055 C 0.24805 0.7598 0.77814 0.0
C3056 C 0.25534 0.78422 0.78997 0.0
C3057 C 0.24059 0.80002 0.79126 0.0
H3058 H 0.05715 0.38729 0.47485 0.0
H3059 H 0.03812 0.41146 0.40245 0.0
H3060 H 0.02911 0.44804 0.42475 0.0
H3061 H 1.01476 0.40639 0.50496 0.0
H3062 H 0.03215 0.41553 0.53533 0.0
H3063 H 0.03692 0.39116 0.51369 0.0
H3064 H 0.07678 0.41397 0.51572 0.0
H3065 H 0.07229 0.43823 0.53757 0.0
H3066 H 0.08181 0.44488 0.50868 0.0
H3067 H 1.02434 0.48186 0.45443 0.0
H3068 H 0.02688 0.51349 0.48978 0.0
H3069 H 0.04558 0.46512 0.54284 0.0
C3070 C 0.05133 0.4004 0.46363 0.0
C3071 C 0.04845 0.39693 0.43705 0.0
C3072 C 0.04063 0.4142 0.42293 0.0
C3073 C 0.03521 0.43471 0.43535 0.0
C3074 C 0.03749 0.43708 0.46161 0.0
C3075 C 0.04549 0.42053 0.47558 0.0
C3076 C 0.04714 0.42767 0.5036 0.0
C3077 C 0.03183 0.40906 0.51505 0.0
C3078 C 0.07091 0.43143 0.51718 0.0
C3079 C 0.03928 0.45129 0.50329 0.0
C3080 C 0.03358 0.45617 0.47886 0.0
C3081 C 0.02799 0.47798 0.47365 0.0
C3082 C 0.0291 0.49572 0.49401 0.0
C3083 C 0.03551 0.49135 0.51916 0.0
C3084 C 0.03986 0.46855 0.52388 0.0
H3085 H 0.51757 0.23838 0.26229 0.0
H3086 H 0.54827 0.31218 0.25524 0.0
H3087 H 0.51541 0.32687 0.26419 0.0
H3088 H 0.46257 0.24074 0.23594 0.0
H3089 H 0.45039 0.22373 0.25852 0.0
H3090 H 0.47593 0.21864 0.25024 0.0
H3091 H 0.49376 0.22795 0.29755 0.0
H3092 H 0.46826 0.23299 0.30598 0.0
H3093 H 0.49254 0.25636 0.3156 0.0
H3094 H 0.48029 0.33342 0.27239 0.0
H3095 H 0.44469 0.3332 0.28573 0.0
H3096 H 0.4369 0.25585 0.2911 0.0
C3097 C 0.51731 0.25764 0.26314 0.0
C3098 C 0.53523 0.27442 0.25881 0.0
C3099 C 0.53467 0.29941 0.2594 0.0
C3100 C 0.51608 0.30779 0.26405 0.0
C3101 C 0.49857 0.29087 0.26834 0.0
C3102 C 0.49906 0.26644 0.26847 0.0
C3103 C 0.47843 0.25262 0.27539 0.0
C3104 C 0.4661 0.23276 0.25372 0.0
C3105 C 0.48355 0.24185 0.30011 0.0
C3106 C 0.46627 0.27319 0.27894 0.0
C3107 C 0.47819 0.29492 0.2743 0.0
C3108 C 0.47076 0.31664 0.27621 0.0
C3109 C 0.45066 0.31634 0.2837 0.0
C3110 C 0.43855 0.29456 0.28933 0.0
C3111 C 0.44614 0.2726 0.28675 0.0
H3112 H 0.64124 0.59906 0.42034 0.0
H3113 H 0.62662 0.52445 0.38283 0.0
H3114 H 0.61362 0.51011 0.42048 0.0
H3115 H 0.65768 0.58782 0.48456 0.0
H3116 H 0.64357 0.60935 0.49878 0.0
H3117 H 0.65343 0.61415 0.46964 0.0
H3118 H 0.6146 0.61642 0.44834 0.0
H3119 H 0.60456 0.61158 0.47733 0.0
H3120 H 0.59223 0.59159 0.44853 0.0
H3121 H 0.60287 0.50336 0.4608 0.0
H3122 H 0.58758 0.50472 0.50015 0.0
H3123 H 0.60579 0.5836 0.51191 0.0
C3124 C 0.63537 0.57975 0.42031 0.0
C3125 C 0.63504 0.56271 0.399 0.0
C3126 C 0.6269 0.53766 0.39909 0.0
C3127 C 0.6197 0.52934 0.42042 0.0
C3128 C 0.62043 0.54641 0.44128 0.0
C3129 C 0.62742 0.57114 0.4413 0.0
C3130 C 0.62419 0.58551 0.46546 0.0
C3131 C 0.64603 0.60007 0.4805 0.0
C3132 C 0.60793 0.60226 0.45956 0.0
C3133 C 0.61474 0.56485 0.47908 0.0
C3134 C 0.61312 0.54252 0.46476 0.0
C3135 C 0.60423 0.52065 0.47241 0.0
C3136 C 0.59587 0.52156 0.49489 0.0
C3137 C 0.59633 0.54414 0.50931 0.0
C3138 C 0.60628 0.5661 0.50172 0.0
H3139 H 0.28955 0.8849 0.09116 0.0
H3140 H 0.25846 0.81007 0.0607 0.0
H3141 H 0.28011 0.79569 0.09592 0.0
H3142 H 0.3426 0.8723 0.1088 0.0
H3143 H 0.34949 0.89446 0.13686 0.0
H3144 H 0.33085 0.89919 0.11007 0.0
H3145 H 0.30172 0.90324 0.13861 0.0
H3146 H 0.32036 0.89881 0.16548 0.0
H3147 H 0.29375 0.87926 0.15706 0.0
H3148 H 0.30593 0.78957 0.13181 0.0
H3149 H 0.33022 0.79146 0.17182 0.0
H3150 H 0.34523 0.87057 0.17876 0.0
C3151 C 0.28678 0.8655 0.09224 0.0
C3152 C 0.2722 0.84845 0.07348 0.0
C3153 C 0.26939 0.82327 0.07517 0.0
C3154 C 0.28179 0.81501 0.09481 0.0
C3155 C 0.2969 0.83225 0.11214 0.0
C3156 C 0.29925 0.85696 0.11132 0.0
C3157 C 0.31688 0.87161 0.13213 0.0
C3158 C 0.33607 0.88519 0.12129 0.0
C3159 C 0.30761 0.88925 0.14935 0.0
C3160 C 0.32346 0.85117 0.14539 0.0
C3161 C 0.31214 0.82867 0.13303 0.0
C3162 C 0.31511 0.80699 0.14157 0.0
C3163 C 0.32932 0.80832 0.1641 0.0
C3164 C 0.34012 0.83124 0.17797 0.0
C3165 C 0.33768 0.85291 0.16809 0.0
H3166 H 0.9906 0.59396 0.88413 0.0
H3167 H 0.95083 0.52114 0.86629 0.0
H3168 H 0.96792 0.51047 0.90654 0.0
H3169 H 0.04002 0.57864 0.91623 0.0
H3170 H 0.04597 0.60415 0.94111 0.0
H3171 H 0.03077 0.60643 0.91079 0.0
H3172 H 0.99967 0.61799 0.93276 0.0
H3173 H 1.01474 0.6155 0.96314 0.0
H3174 H 0.98746 0.59799 0.95297 0.0
H3175 H 0.98956 0.5072 0.95117 0.0
H3176 H 1.01449 0.5115 0.99217 0.0
H3177 H 0.04181 0.58556 0.98279 0.0
C3178 C 0.98554 0.5757 0.88853 0.0
C3179 C 0.96898 0.55847 0.87105 0.0
C3180 C 0.96312 0.53498 0.87862 0.0
C3181 C 0.97287 0.52863 0.90181 0.0
C3182 C 0.98874 0.54587 0.91856 0.0
C3183 C 0.99505 0.56903 0.91224 0.0
C3184 C 1.01216 0.58422 0.93423 0.0
C3185 C 0.0335 0.59393 0.92503 0.0
C3186 C 1.00298 0.60519 0.94649 0.0
C3187 C 1.0154 0.56579 0.953 0.0
C3188 C 1.00121 0.54391 0.94388 0.0
C3189 C 1.00061 0.52441 0.95825 0.0
C3190 C 1.01482 0.52708 0.98195 0.0
C3191 C 0.03017 0.549 0.99172 0.0
C3192 C 0.03024 0.56856 0.97656 0.0
H3193 H 0.28681 0.19708 0.63422 0.0
H3194 H 0.31636 0.25916 0.60113 0.0
H3195 H 0.32476 0.28416 0.64319 0.0
H3196 H 0.26095 0.22945 0.67627 0.0
H3197 H 0.26581 0.21177 0.70174 0.0
H3198 H 0.26362 0.19818 0.66948 0.0
H3199 H 0.30154 0.18689 0.67993 0.0
H3200 H 0.3037 0.20013 0.71233 0.0
H3201 H 0.32471 0.21033 0.69443 0.0
H3202 H 0.32974 0.30238 0.68845 0.0
H3203 H 0.33013 0.31302 0.73434 0.0
H3204 H 0.29541 0.23993 0.73744 0.0
C3205 C 0.29512 0.21591 0.63587 0.0
C3206 C 0.30082 0.22631 0.61448 0.0
C3207 C 0.31166 0.25098 0.6173 0.0
C3208 C 0.31659 0.26525 0.64109 0.0
C3209 C 0.31044 0.25457 0.66174 0.0
C3210 C 0.29995 0.23047 0.65941 0.0
C3211 C 0.29448 0.22366 0.68447 0.0
C3212 C 0.26974 0.21529 0.68289 0.0
C3213 C 0.30685 0.2041 0.6933 0.0
C3214 C 0.30298 0.24793 0.70109 0.0
C3215 C 0.31249 0.26537 0.68769 0.0
C3216 C 0.32218 0.28899 0.69912 0.0
C3217 C 0.32224 0.29492 0.72501 0.0
C3218 C 0.31234 0.27742 0.73883 0.0
C3219 C 0.30256 0.2537 0.72685 0.0
H3220 H 0.64052 0.53659 0.24861 0.0
H3221 H 0.60938 0.59545 0.27374 0.0
H3222 H 0.59089 0.59437 0.23009 0.0
H3223 H 0.65037 0.55624 0.19044 0.0
H3224 H 0.64437 0.52627 0.1724 0.0
H3225 H 0.65447 0.53014 0.20586 0.0
H3226 H 0.62094 0.49882 0.21217 0.0
H3227 H 0.61078 0.49479 0.17868 0.0
H3228 H 0.5939 0.50339 0.20087 0.0
H3229 H 0.57775 0.58914 0.1851 0.0
H3230 H 0.56891 0.57923 0.13908 0.0
H3231 H 0.60765 0.52289 0.14139 0.0
C3232 C 0.62956 0.549 0.24491 0.0
C3233 C 0.62622 0.56609 0.26445 0.0
C3234 C 0.61197 0.58216 0.25902 0.0
C3235 C 0.60145 0.58169 0.23434 0.0
C3236 C 0.60523 0.56487 0.2155 0.0
C3237 C 0.61875 0.54864 0.22033 0.0
C3238 C 0.62022 0.5329 0.19619 0.0
C3239 C 0.64376 0.53663 0.19092 0.0
C3240 C 0.6109 0.50587 0.19705 0.0
C3241 C 0.60568 0.54323 0.17709 0.0
C3242 C 0.59727 0.56159 0.18888 0.0
C3243 C 0.58401 0.57466 0.17561 0.0
C3244 C 0.57919 0.5689 0.14947 0.0
C3245 C 0.58764 0.55026 0.13682 0.0
C3246 C 0.60082 0.53697 0.15075 0.0
H3247 H 0.27037 0.80689 0.94558 0.0
H3248 H 0.25547 0.8753 0.92514 0.0
H3249 H 0.28427 0.87856 0.89892 0.0
H3250 H 0.32626 0.82224 0.95173 0.0
H3251 H 0.33027 0.79337 0.93733 0.0
H3252 H 0.30706 0.79463 0.95283 0.0
H3253 H 0.28026 0.77364 0.91195 0.0
H3254 H 0.30343 0.7708 0.89695 0.0
H3255 H 0.28272 0.78563 0.88259 0.0
H3256 H 0.31839 0.87789 0.88122 0.0
H3257 H 0.34439 0.86412 0.85597 0.0
H3258 H 0.33599 0.79552 0.88622 0.0
C3259 C 0.27243 0.82191 0.93458 0.0
C3260 C 0.26105 0.84103 0.93774 0.0
C3261 C 0.2641 0.86044 0.92306 0.0
C3262 C 0.2808 0.8628 0.90864 0.0
C3263 C 0.29362 0.84518 0.90858 0.0
C3264 C 0.28885 0.82444 0.91992 0.0
C3265 C 0.30443 0.8076 0.91579 0.0
C3266 C 0.31778 0.80427 0.94093 0.0
C3267 C 0.29198 0.78297 0.90092 0.0
C3268 C 0.31872 0.82212 0.90033 0.0
C3269 C 0.31268 0.84419 0.89726 0.0
C3270 C 0.32311 0.86056 0.88323 0.0
C3271 C 0.3383 0.85286 0.8695 0.0
C3272 C 0.34172 0.8287 0.86903 0.0
C3273 C 0.33378 0.81419 0.88662 0.0
H3274 H 0.98989 0.54243 0.73366 0.0
H3275 H 0.93618 0.57583 0.70573 0.0
H3276 H 0.94902 0.57698 0.66477 0.0
H3277 H 0.03145 0.57288 0.70162 0.0
H3278 H 0.04221 0.54634 0.69247 0.0
H3279 H 0.02924 0.54788 0.72004 0.0
H3280 H 1.00262 0.50734 0.70162 0.0
H3281 H 1.0156 0.50571 0.67402 0.0
H3282 H 0.98667 0.50452 0.67053 0.0
H3283 H 0.96787 0.57482 0.62495 0.0
H3284 H 0.9901 0.56955 0.59169 0.0
H3285 H 0.03292 0.53697 0.64209 0.0
C3286 C 0.98084 0.55018 0.71905 0.0
C3287 C 0.96173 0.55944 0.72404 0.0
C3288 C 0.95064 0.56869 0.70339 0.0
C3289 C 0.95795 0.56943 0.67966 0.0
C3290 C 0.97655 0.56034 0.67544 0.0
C3291 C 0.98776 0.55054 0.6945 0.0
C3292 C 1.00667 0.54088 0.68406 0.0
C3293 C 0.02871 0.55271 0.70054 0.0
C3294 C 1.00267 0.51296 0.68249 0.0
C3295 C 1.00531 0.54832 0.65709 0.0
C3296 C 0.98734 0.55898 0.65244 0.0
C3297 C 0.98194 0.56651 0.62874 0.0
C3298 C 0.99489 0.56333 0.6096 0.0
C3299 C 1.01384 0.55289 0.61332 0.0
C3300 C 1.01889 0.54526 0.63793 0.0
H3301 H 0.29371 0.24891 0.48835 0.0
H3302 H 0.29616 0.17558 0.45614 0.0
H3303 H 0.3013 0.19014 0.41562 0.0
H3304 H 0.26437 0.26513 0.43205 0.0
H3305 H 0.2792 0.2962 0.4365 0.0
H3306 H 0.27581 0.28047 0.4635 0.0
H3307 H 0.31769 0.28944 0.47795 0.0
H3308 H 0.32121 0.30528 0.45106 0.0
H3309 H 0.33487 0.28035 0.45631 0.0
H3310 H 0.30468 0.21146 0.37847 0.0
H3311 H 0.30853 0.23925 0.34665 0.0
H3312 H 0.3056 0.3 0.402 0.0
C3313 C 0.29527 0.23595 0.47272 0.0
C3314 C 0.2943 0.21101 0.47535 0.0
C3315 C 0.29664 0.19468 0.45455 0.0
C3316 C 0.29961 0.20278 0.43144 0.0
C3317 C 0.3003 0.22732 0.42937 0.0
C3318 C 0.29837 0.24379 0.44938 0.0
C3319 C 0.29983 0.26922 0.44177 0.0
C3320 C 0.27853 0.27829 0.44357 0.0
C3321 C 0.31958 0.28713 0.45773 0.0
C3322 C 0.3029 0.26437 0.41442 0.0
C3323 C 0.30291 0.23998 0.40775 0.0
C3324 C 0.30482 0.23063 0.38348 0.0
C3325 C 0.30692 0.24663 0.3655 0.0
C3326 C 0.30744 0.27186 0.37186 0.0
C3327 C 0.30536 0.28084 0.39668 0.0
H3328 H 0.39995 0.6541 0.60563 0.0
H3329 H 0.40693 0.70574 0.55167 0.0
H3330 H 0.43507 0.68623 0.53543 0.0
H3331 H 0.45767 0.65055 0.61867 0.0
H3332 H 0.45121 0.61855 0.62159 0.0
H3333 H 0.4332 0.63823 0.63018 0.0
H3334 H 0.40103 0.60997 0.59932 0.0
H3335 H 0.41881 0.59028 0.59029 0.0
H3336 H 0.40328 0.60335 0.56648 0.0
H3337 H 0.45895 0.65856 0.52247 0.0
H3338 H 0.48005 0.62577 0.51609 0.0
H3339 H 0.45677 0.59397 0.57927 0.0
C3340 C 0.40771 0.66142 0.59067 0.0
C3341 C 0.40172 0.68103 0.57966 0.0
C3342 C 0.41187 0.6906 0.56023 0.0
C3343 C 0.42768 0.67973 0.55094 0.0
C3344 C 0.43302 0.6599 0.56184 0.0
C3345 C 0.42358 0.65109 0.58151 0.0
C3346 C 0.43142 0.62906 0.58932 0.0
C3347 C 0.44414 0.63443 0.61655 0.0
C3348 C 0.41251 0.60687 0.58613 0.0
C3349 C 0.44613 0.62632 0.57027 0.0
C3350 C 0.447 0.64426 0.55464 0.0
C3351 C 0.4588 0.64457 0.53477 0.0
C3352 C 0.47045 0.62602 0.53114 0.0
C3353 C 0.46977 0.60802 0.5474 0.0
C3354 C 0.45746 0.608 0.56692 0.0
H3355 H 0.91187 0.93301 0.55413 0.0
H3356 H 0.90033 0.98274 0.61559 0.0
H3357 H 0.93652 1.00836 0.61677 0.0
H3358 H 0.97052 0.93835 0.57531 0.0
H3359 H 0.97747 0.93811 0.54406 0.0
H3360 H 0.95099 0.9225 0.54826 0.0
H3361 H 0.9325 0.94713 0.51692 0.0
H3362 H 0.95888 0.9627 0.51244 0.0
H3363 H 0.93946 0.97998 0.52224 0.0
H3364 H 0.97326 0.02842 0.61246 0.0
H3365 H 1.00773 0.04565 0.59963 0.0
H3366 H 0.99725 0.98555 0.53881 0.0
C3367 C 0.91709 0.94922 0.56796 0.0
C3368 C 0.90322 0.95569 0.5851 0.0
C3369 C 0.91055 0.97726 0.60249 0.0
C3370 C 0.93117 0.9919 0.60333 0.0
C3371 C 0.94445 0.98502 0.58649 0.0
C3372 C 0.93773 0.96442 0.56883 0.0
C3373 C 0.95512 0.96227 0.55212 0.0
C3374 C 0.96405 0.93892 0.55512 0.0
C3375 C 0.94594 0.96308 0.52428 0.0
C3376 C 0.97256 0.98503 0.56319 0.0
C3377 C 0.96591 0.99744 0.58325 0.0
C3378 C 0.97862 1.01891 0.59677 0.0
C3379 C 0.9983 0.02854 0.58932 0.0
C3380 C 1.00547 1.01706 0.56832 0.0
C3381 C 0.99252 0.99461 0.55523 0.0
H3382 H 0.91521 0.07496 0.31496 0.0
H3383 H 0.96916 0.10145 0.27727 0.0
H3384 H 0.96036 0.14233 0.28104 0.0
H3385 H 0.8777 0.10631 0.28787 0.0
H3386 H 0.8669 0.11423 0.31607 0.0
H3387 H 0.87871 0.08757 0.31297 0.0
H3388 H 0.90531 0.1039 0.35509 0.0
H3389 H 0.89361 0.13077 0.35821 0.0
H3390 H 0.92251 0.13373 0.35879 0.0
H3391 H 0.94452 0.17873 0.28528 0.0
H3392 H 0.92107 0.20902 0.28836 0.0
H3393 H 0.87721 0.15966 0.32342 0.0
C3394 C 0.92514 0.08947 0.30764 0.0
C3395 C 0.94274 0.0852 0.2957 0.0
C3396 C 0.95561 0.1045 0.28652 0.0
C3397 C 0.95085 0.12777 0.28871 0.0
C3398 C 0.93346 0.13152 0.30058 0.0
C3399 C 0.92085 0.11306 0.31009 0.0
C3400 C 0.90259 0.12205 0.32112 0.0
C3401 C 0.88015 0.10663 0.30874 0.0
C3402 C 0.90622 0.12264 0.35001 0.0
C3403 C 0.90583 0.14767 0.31414 0.0
C3404 C 0.9242 0.15296 0.30315 0.0
C3405 C 0.9302 0.175 0.29411 0.0
C3406 C 0.91672 0.19199 0.29577 0.0
C3407 C 0.89732 0.1866 0.30599 0.0
C3408 C 0.89214 0.16441 0.31589 0.0
H3409 H 0.7802 0.17007 0.05211 0.0
H3410 H 0.79115 0.18867 0.13375 0.0
H3411 H 0.75506 0.1642 0.13518 0.0
H3412 H 0.7195 0.17152 0.04486 0.0
H3413 H 0.71282 0.14721 0.01871 0.0
H3414 H 0.73861 0.16833 0.02362 0.0
H3415 H 0.75845 0.13197 0.02419 0.0
H3416 H 0.73281 0.11083 0.01997 0.0
H3417 H 0.75366 0.11083 0.04661 0.0
H3418 H 0.7226 0.13302 0.12925 0.0
H3419 H 0.68891 0.10228 0.11542 0.0
H3420 H 0.69537 0.10627 0.03688 0.0
C3421 C 0.77458 0.16943 0.0701 0.0
C3422 C 0.78817 0.18101 0.09288 0.0
C3423 C 0.78069 0.18001 0.11619 0.0
C3424 C 0.76035 0.16611 0.11718 0.0
C3425 C 0.74759 0.15415 0.09458 0.0
C3426 C 0.75387 0.15633 0.07133 0.0
C3427 C 0.73666 0.14139 0.05008 0.0
C3428 C 0.72628 0.15811 0.03333 0.0
C3429 C 0.74597 0.12264 0.0343 0.0
C3430 C 0.72063 0.12914 0.06536 0.0
C3431 C 0.72748 0.1369 0.09096 0.0
C3432 C 0.71666 0.12719 0.10929 0.0
C3433 C 0.6978 0.10957 0.10128 0.0
C3434 C 0.68992 0.10201 0.07524 0.0
C3435 C 0.70133 0.11185 0.0569 0.0
H3436 H 0.24246 0.46262 0.35724 0.0
H3437 H 0.20744 0.45256 0.28035 0.0
H3438 H 0.22261 0.41607 0.27052 0.0
H3439 H 0.29182 0.44133 0.3434 0.0
H3440 H 0.29477 0.42456 0.36995 0.0
H3441 H 0.28153 0.45033 0.37167 0.0
H3442 H 0.24761 0.42332 0.38255 0.0
H3443 H 0.26077 0.39746 0.38082 0.0
H3444 H 0.23453 0.39574 0.36176 0.0
H3445 H 0.24092 0.37801 0.26814 0.0
H3446 H 0.26099 0.34459 0.27339 0.0
H3447 H 0.28679 0.37652 0.351 0.0
C3448 C 0.23797 0.4529 0.33824 0.0
C3449 C 0.2232 0.46161 0.31964 0.0
C3450 C 0.21825 0.44725 0.29531 0.0
C3451 C 0.22698 0.42607 0.28941 0.0
C3452 C 0.24108 0.41802 0.30785 0.0
C3453 C 0.24659 0.431 0.33192 0.0
C3454 C 0.26174 0.41749 0.34821 0.0
C3455 C 0.28378 0.43444 0.35895 0.0
C3456 C 0.25051 0.40795 0.36963 0.0
C3457 C 0.26456 0.39573 0.3294 0.0
C3458 C 0.25198 0.39631 0.30633 0.0
C3459 C 0.25081 0.37776 0.28622 0.0
C3460 C 0.26242 0.35845 0.28942 0.0
C3461 C 0.27604 0.35699 0.31244 0.0
C3462 C 0.27698 0.3765 0.33279 0.0
H3463 H 0.27049 0.43739 0.0993 0.0
H3464 H 0.29471 0.45292 0.0304 0.0
H3465 H 0.26046 0.46565 1.0145 0.0
H3466 H 0.21251 0.4162 0.07161 0.0
H3467 H 0.20294 0.43122 0.09772 0.0
H3468 H 0.22842 0.42099 0.10296 0.0
H3469 H 0.24812 0.46472 0.12298 0.0
H3470 H 0.22272 0.47505 0.1177 0.0
H3471 H 0.24583 0.48979 0.10523 0.0
H3472 H 0.22506 0.47881 1.00691 0.0
H3473 H 0.19192 0.49442 1.00865 0.0
H3474 H 0.18882 0.47015 0.08242 0.0
C3475 C 0.26848 0.44346 0.08087 0.0
C3476 C 0.28535 0.44443 0.06612 0.0
C3477 C 0.28219 0.45248 0.04215 0.0
C3478 C 0.26269 0.4595 0.03287 0.0
C3479 C 0.24652 0.45871 0.04791 0.0
C3480 C 0.24918 0.45111 0.0715 0.0
C3481 C 0.22977 0.45391 0.08446 0.0
C3482 C 0.2177 0.4291 0.08947 0.0
C3483 C 0.23704 0.47193 0.10905 0.0
C3484 C 0.21592 0.46435 0.06449 0.0
C3485 C 0.22588 0.46668 0.04355 0.0
C3486 C 0.21695 0.47682 0.02312 0.0
C3487 C 0.19763 0.48543 0.02427 0.0
C3488 C 0.18683 0.48364 0.0456 0.0
C3489 C 0.19623 0.4724 0.0658 0.0
H3490 H 0.92491 0.94938 0.32433 0.0
H3491 H 0.90392 0.95206 0.24453 0.0
H3492 H 0.87824 0.91291 0.24151 0.0
H3493 H 0.92058 0.88278 0.31922 0.0
H3494 H 0.91052 0.88062 0.34865 0.0
H3495 H 0.92856 0.90802 0.34441 0.0
H3496 H 0.90033 0.9336 0.35558 0.0
H3497 H 0.88229 0.90635 0.36001 0.0
H3498 H 0.87289 0.9258 0.33813 0.0
H3499 H 0.85352 0.87585 0.24714 0.0
H3500 H 0.8289 0.84312 0.26169 0.0
H3501 H 0.86551 0.86274 0.33788 0.0
C3502 C 0.91501 0.94159 0.30619 0.0
C3503 C 0.91639 0.95371 0.28458 0.0
C3504 C 0.9031 0.94309 0.26125 0.0
C3505 C 0.88858 0.9208 0.25934 0.0
C3506 C 0.88761 0.90931 0.28089 0.0
C3507 C 0.90036 0.91928 0.30393 0.0
C3508 C 0.89509 0.90367 0.32441 0.0
C3509 C 0.91487 0.89315 0.33478 0.0
C3510 C 0.88717 0.91822 0.34578 0.0
C3511 C 0.87686 0.88378 0.30932 0.0
C3512 C 0.87316 0.88737 0.28419 0.0
C3513 C 0.85637 0.87262 0.26665 0.0
C3514 C 0.84249 0.85412 0.27507 0.0
C3515 C 0.84553 0.85041 0.30071 0.0
C3516 C 0.86326 0.86496 0.31802 0.0
H3517 H 0.71497 0.12386 0.85168 0.0
H3518 H 0.75155 0.08735 0.80306 0.0
H3519 H 0.7734 0.12713 0.7987 0.0
H3520 H 0.7142 0.17798 0.82107 0.0
H3521 H 0.71919 0.1995 0.84954 0.0
H3522 H 0.70592 0.16835 0.84963 0.0
H3523 H 0.73521 0.16437 0.88684 0.0
H3524 H 0.74847 0.19558 0.88692 0.0
H3525 H 0.7636 0.17152 0.8839 0.0
H3526 H 0.79087 0.17031 0.79776 0.0
H3527 H 0.80447 0.21409 0.80152 0.0
H3528 H 0.75935 0.22703 0.85257 0.0
C3529 C 0.72766 0.12424 0.84019 0.0
C3530 C 0.73127 0.10182 0.82759 0.0
C3531 C 0.74826 0.10366 0.81301 0.0
C3532 C 0.76083 0.12641 0.81036 0.0
C3533 C 0.75691 0.14788 0.82281 0.0
C3534 C 0.74099 0.14718 0.83783 0.0
C3535 C 0.74104 0.17349 0.84961 0.0
C3536 C 0.71876 0.18022 0.842 0.0
C3537 C 0.74744 0.1764 0.87854 0.0
C3538 C 0.75883 0.18896 0.83807 0.0
C3539 C 0.76766 0.17341 0.82281 0.0
C3540 C 0.78409 0.18252 0.80978 0.0
C3541 C 0.79173 0.20785 0.81209 0.0
C3542 C 0.78332 0.22494 0.82736 0.0
C3543 C 0.76655 0.215 0.84085 0.0
loop_
_geom_bond_atom_site_label_1
_geom_bond_atom_site_label_2
_geom_bond_distance
_geom_bond_site_symmetry_2
_ccdc_geom_bond_type
In0 O1 2.294 . S
In0 O2 2.326 . S
In0 O6 2.266 1_455 S
In0 O7 2.326 1_455 S
In0 O8 2.266 . S
In0 O9 2.326 . S
In0 O11 2.294 . S
In0 O12 2.326 . S
O1 In0 2.294 . S
O1 C10 1.240 . S
O2 In0 2.326 . S
O2 C10 1.252 . S
C3 O6 1.252 . S
C3 O7 1.260 . S
C4 O11 1.240 . S
C4 O12 1.252 . S
C5 O8 1.252 . S
C5 O9 1.260 . S
O6 In0 2.266 1_655 S
O6 C3 1.252 . S
O7 In0 2.326 1_655 S
O7 C3 1.260 . S
O8 In0 2.266 . S
O8 C5 1.252 . S
O9 In0 2.326 . S
O9 C5 1.260 . S
C10 O1 1.240 . S
C10 O2 1.252 . S
O11 In0 2.294 . S
O11 C4 1.240 . S
O12 In0 2.326 . S
O12 C4 1.252 . S
In13 O14 2.294 . S
In13 O15 2.326 . S
In13 O19 2.266 . S
In13 O20 2.326 . S
In13 O21 2.266 . S
In13 O22 2.326 . S
In13 O24 2.294 . S
In13 O25 2.326 . S
O14 In13 2.294 . S
O14 C23 1.240 . S
O15 In13 2.326 . S
O15 C23 1.252 . S
C16 O19 1.252 . S
C16 O20 1.260 . S
C17 O24 1.240 . S
C17 O25 1.252 . S
C18 O21 1.252 . S
C18 O22 1.260 . S
O19 In13 2.266 . S
O19 C16 1.252 . S
O20 In13 2.326 . S
O20 C16 1.260 . S
O21 In13 2.266 . S
O21 C18 1.252 . S
O22 In13 2.326 . S
O22 C18 1.260 . S
C23 O14 1.240 . S
C23 O15 1.252 . S
O24 In13 2.294 . S
O24 C17 1.240 . S
O25 In13 2.326 . S
O25 C17 1.252 . S
In26 O27 2.294 . S
In26 O28 2.326 . S
In26 O32 2.266 . S
In26 O33 2.326 . S
In26 O34 2.266 . S
In26 O35 2.326 . S
In26 O37 2.294 . S
In26 O38 2.326 . S
O27 In26 2.294 . S
O27 C36 1.240 . S
O28 In26 2.326 . S
O28 C36 1.252 . S
C29 O32 1.252 . S
C29 O33 1.260 . S
C30 O37 1.240 . S
C30 O38 1.252 . S
C31 O34 1.252 . S
C31 O35 1.260 . S
O32 In26 2.266 . S
O32 C29 1.252 . S
O33 In26 2.326 . S
O33 C29 1.260 . S
O34 In26 2.266 . S
O34 C31 1.252 . S
O35 In26 2.326 . S
O35 C31 1.260 . S
C36 O27 1.240 . S
C36 O28 1.252 . S
O37 In26 2.294 . S
O37 C30 1.240 . S
O38 In26 2.326 . S
O38 C30 1.252 . S
In39 O40 2.294 . S
In39 O41 2.326 . S
In39 O45 2.266 . S
In39 O46 2.326 . S
In39 O47 2.266 . S
In39 O48 2.326 . S
In39 O50 2.294 . S
In39 O51 2.326 . S
O40 In39 2.294 . S
O40 C49 1.240 . S
O41 In39 2.326 . S
O41 C49 1.252 . S
C42 O45 1.252 . S
C42 O46 1.260 . S
C43 O50 1.240 . S
C43 O51 1.252 . S
C44 O47 1.252 . S
C44 O48 1.260 . S
O45 In39 2.266 . S
O45 C42 1.252 . S
O46 In39 2.326 . S
O46 C42 1.260 . S
O47 In39 2.266 . S
O47 C44 1.252 . S
O48 In39 2.326 . S
O48 C44 1.260 . S
C49 O40 1.240 . S
C49 O41 1.252 . S
O50 In39 2.294 . S
O50 C43 1.240 . S
O51 In39 2.326 . S
O51 C43 1.252 . S
In52 O53 2.294 . S
In52 O54 2.326 . S
In52 O58 2.266 . S
In52 O59 2.326 . S
In52 O60 2.266 . S
In52 O61 2.326 . S
In52 O63 2.294 . S
In52 O64 2.326 . S
O53 In52 2.294 . S
O53 C62 1.240 . S
O54 In52 2.326 . S
O54 C62 1.252 . S
C55 O58 1.252 . S
C55 O59 1.260 . S
C56 O63 1.240 . S
C56 O64 1.252 . S
C57 O60 1.252 . S
C57 O61 1.260 . S
O58 In52 2.266 . S
O58 C55 1.252 . S
O59 In52 2.326 . S
O59 C55 1.260 . S
O60 In52 2.266 . S
O60 C57 1.252 . S
O61 In52 2.326 . S
O61 C57 1.260 . S
C62 O53 1.240 . S
C62 O54 1.252 . S
O63 In52 2.294 . S
O63 C56 1.240 . S
O64 In52 2.326 . S
O64 C56 1.252 . S
In65 O66 2.294 . S
In65 O67 2.326 . S
In65 O71 2.266 . S
In65 O72 2.326 . S
In65 O73 2.266 . S
In65 O74 2.326 . S
In65 O76 2.294 . S
In65 O77 2.326 . S
O66 In65 2.294 . S
O66 C75 1.240 . S
O67 In65 2.326 . S
O67 C75 1.252 . S
C68 O71 1.252 . S
C68 O72 1.260 . S
C69 O76 1.240 . S
C69 O77 1.252 . S
C70 O73 1.252 . S
C70 O74 1.260 . S
O71 In65 2.266 . S
O71 C68 1.252 . S
O72 In65 2.326 . S
O72 C68 1.260 . S
O73 In65 2.266 . S
O73 C70 1.252 . S
O74 In65 2.326 . S
O74 C70 1.260 . S
C75 O66 1.240 . S
C75 O67 1.252 . S
O76 In65 2.294 . S
O76 C69 1.240 . S
O77 In65 2.326 . S
O77 C69 1.252 . S
In78 O79 2.294 . S
In78 O80 2.326 . S
In78 O84 2.266 . S
In78 O85 2.326 . S
In78 O86 2.266 . S
In78 O87 2.326 . S
In78 O89 2.294 . S
In78 O90 2.326 . S
O79 In78 2.294 . S
O79 C88 1.240 . S
O80 In78 2.326 . S
O80 C88 1.252 . S
C81 O84 1.252 . S
C81 O85 1.260 . S
C82 O89 1.240 . S
C82 O90 1.252 . S
C83 O86 1.252 . S
C83 O87 1.260 . S
O84 In78 2.266 . S
O84 C81 1.252 . S
O85 In78 2.326 . S
O85 C81 1.260 . S
O86 In78 2.266 . S
O86 C83 1.252 . S
O87 In78 2.326 . S
O87 C83 1.260 . S
C88 O79 1.240 . S
C88 O80 1.252 . S
O89 In78 2.294 . S
O89 C82 1.240 . S
O90 In78 2.326 . S
O90 C82 1.252 . S
In91 O92 2.294 . S
In91 O93 2.326 . S
In91 O97 2.266 . S
In91 O98 2.326 . S
In91 O99 2.266 1_455 S
In91 O100 2.326 1_455 S
In91 O102 2.294 . S
In91 O103 2.326 . S
O92 In91 2.294 . S
O92 C101 1.240 . S
O93 In91 2.326 . S
O93 C101 1.252 . S
C94 O97 1.252 . S
C94 O98 1.260 . S
C95 O102 1.240 . S
C95 O103 1.252 . S
C96 O99 1.252 . S
C96 O100 1.260 . S
O97 In91 2.266 . S
O97 C94 1.252 . S
O98 In91 2.326 . S
O98 C94 1.260 . S
O99 In91 2.266 1_655 S
O99 C96 1.252 . S
O100 In91 2.326 1_655 S
O100 C96 1.260 . S
C101 O92 1.240 . S
C101 O93 1.252 . S
O102 In91 2.294 . S
O102 C95 1.240 . S
O103 In91 2.326 . S
O103 C95 1.252 . S
In104 O105 2.294 . S
In104 O106 2.326 . S
In104 O110 2.266 . S
In104 O111 2.326 . S
In104 O112 2.266 1_545 S
In104 O113 2.326 1_545 S
In104 O115 2.294 . S
In104 O116 2.326 . S
O105 In104 2.294 . S
O105 C114 1.240 . S
O106 In104 2.326 . S
O106 C114 1.252 . S
C107 O110 1.252 . S
C107 O111 1.260 . S
C108 O115 1.240 . S
C108 O116 1.252 . S
C109 O112 1.252 . S
C109 O113 1.260 . S
O110 In104 2.266 . S
O110 C107 1.252 . S
O111 In104 2.326 . S
O111 C107 1.260 . S
O112 In104 2.266 1_565 S
O112 C109 1.252 . S
O113 In104 2.326 1_565 S
O113 C109 1.260 . S
C114 O105 1.240 . S
C114 O106 1.252 . S
O115 In104 2.294 . S
O115 C108 1.240 . S
O116 In104 2.326 . S
O116 C108 1.252 . S
In117 O118 2.294 . S
In117 O119 2.326 . S
In117 O123 2.266 . S
In117 O124 2.326 . S
In117 O125 2.266 . S
In117 O126 2.326 . S
In117 O128 2.294 . S
In117 O129 2.326 . S
O118 In117 2.294 . S
O118 C127 1.240 . S
O119 In117 2.326 . S
O119 C127 1.252 . S
C120 O123 1.252 . S
C120 O124 1.260 . S
C121 O128 1.240 . S
C121 O129 1.252 . S
C122 O125 1.252 . S
C122 O126 1.260 . S
O123 In117 2.266 . S
O123 C120 1.252 . S
O124 In117 2.326 . S
O124 C120 1.260 . S
O125 In117 2.266 . S
O125 C122 1.252 . S
O126 In117 2.326 . S
O126 C122 1.260 . S
C127 O118 1.240 . S
C127 O119 1.252 . S
O128 In117 2.294 . S
O128 C121 1.240 . S
O129 In117 2.326 . S
O129 C121 1.252 . S
In130 O131 2.294 . S
In130 O132 2.326 . S
In130 O136 2.266 . S
In130 O137 2.326 . S
In130 O138 2.266 . S
In130 O139 2.326 . S
In130 O141 2.294 . S
In130 O142 2.326 . S
O131 In130 2.294 . S
O131 C140 1.240 . S
O132 In130 2.326 . S
O132 C140 1.252 . S
C133 O136 1.252 . S
C133 O137 1.260 . S
C134 O141 1.240 . S
C134 O142 1.252 . S
C135 O138 1.252 . S
C135 O139 1.260 . S
O136 In130 2.266 . S
O136 C133 1.252 . S
O137 In130 2.326 . S
O137 C133 1.260 . S
O138 In130 2.266 . S
O138 C135 1.252 . S
O139 In130 2.326 . S
O139 C135 1.260 . S
C140 O131 1.240 . S
C140 O132 1.252 . S
O141 In130 2.294 . S
O141 C134 1.240 . S
O142 In130 2.326 . S
O142 C134 1.252 . S
In143 O144 2.296 . S
In143 O145 2.329 . S
In143 O149 2.264 1_554 S
In143 O150 2.322 1_554 S
In143 O151 2.267 . S
In143 O152 2.326 . S
In143 O154 2.294 . S
In143 O155 2.326 . S
O144 In143 2.296 . S
O144 C153 1.240 . S
O145 In143 2.329 . S
O145 C153 1.252 . S
C146 O149 1.252 . S
C146 O150 1.260 . S
C147 O154 1.240 . S
C147 O155 1.252 . S
C148 O151 1.252 . S
C148 O152 1.263 . S
O149 In143 2.264 1_556 S
O149 C146 1.252 . S
O150 In143 2.322 1_556 S
O150 C146 1.260 . S
O151 In143 2.267 . S
O151 C148 1.252 . S
O152 In143 2.326 . S
O152 C148 1.263 . S
C153 O144 1.240 . S
C153 O145 1.252 . S
O154 In143 2.294 . S
O154 C147 1.240 . S
O155 In143 2.326 . S
O155 C147 1.252 . S
In156 O157 2.294 . S
In156 O158 2.326 . S
In156 O162 2.266 . S
In156 O163 2.326 . S
In156 O164 2.266 . S
In156 O165 2.326 . S
In156 O167 2.294 . S
In156 O168 2.326 . S
O157 In156 2.294 . S
O157 C166 1.240 . S
O158 In156 2.326 . S
O158 C166 1.252 . S
C159 O162 1.252 . S
C159 O163 1.260 . S
C160 O167 1.240 . S
C160 O168 1.252 . S
C161 O164 1.252 . S
C161 O165 1.260 . S
O162 In156 2.266 . S
O162 C159 1.252 . S
O163 In156 2.326 . S
O163 C159 1.260 . S
O164 In156 2.266 . S
O164 C161 1.252 . S
O165 In156 2.326 . S
O165 C161 1.260 . S
C166 O157 1.240 . S
C166 O158 1.252 . S
O167 In156 2.294 . S
O167 C160 1.240 . S
O168 In156 2.326 . S
O168 C160 1.252 . S
In169 O170 2.294 . S
In169 O171 2.326 . S
In169 O175 2.266 . S
In169 O176 2.326 . S
In169 O177 2.266 . S
In169 O178 2.326 . S
In169 O180 2.294 . S
In169 O181 2.326 . S
O170 In169 2.294 . S
O170 C179 1.240 . S
O171 In169 2.326 . S
O171 C179 1.252 . S
C172 O175 1.252 . S
C172 O176 1.260 . S
C173 O180 1.240 . S
C173 O181 1.252 . S
C174 O177 1.252 . S
C174 O178 1.260 . S
O175 In169 2.266 . S
O175 C172 1.252 . S
O176 In169 2.326 . S
O176 C172 1.260 . S
O177 In169 2.266 . S
O177 C174 1.252 . S
O178 In169 2.326 . S
O178 C174 1.260 . S
C179 O170 1.240 . S
C179 O171 1.252 . S
O180 In169 2.294 . S
O180 C173 1.240 . S
O181 In169 2.326 . S
O181 C173 1.252 . S
In182 O183 2.294 . S
In182 O184 2.326 . S
In182 O188 2.266 . S
In182 O189 2.326 . S
In182 O190 2.266 . S
In182 O191 2.326 . S
In182 O193 2.294 . S
In182 O194 2.326 . S
O183 In182 2.294 . S
O183 C192 1.240 . S
O184 In182 2.326 . S
O184 C192 1.252 . S
C185 O188 1.252 . S
C185 O189 1.260 . S
C186 O193 1.240 . S
C186 O194 1.252 . S
C187 O190 1.252 . S
C187 O191 1.260 . S
O188 In182 2.266 . S
O188 C185 1.252 . S
O189 In182 2.326 . S
O189 C185 1.260 . S
O190 In182 2.266 . S
O190 C187 1.252 . S
O191 In182 2.326 . S
O191 C187 1.260 . S
C192 O183 1.240 . S
C192 O184 1.252 . S
O193 In182 2.294 . S
O193 C186 1.240 . S
O194 In182 2.326 . S
O194 C186 1.252 . S
In195 O196 2.294 . S
In195 O197 2.326 . S
In195 O201 2.266 . S
In195 O202 2.326 . S
In195 O203 2.266 . S
In195 O204 2.326 . S
In195 O206 2.294 . S
In195 O207 2.326 . S
O196 In195 2.294 . S
O196 C205 1.240 . S
O197 In195 2.326 . S
O197 C205 1.252 . S
C198 O201 1.252 . S
C198 O202 1.260 . S
C199 O206 1.240 . S
C199 O207 1.252 . S
C200 O203 1.252 . S
C200 O204 1.260 . S
O201 In195 2.266 . S
O201 C198 1.252 . S
O202 In195 2.326 . S
O202 C198 1.260 . S
O203 In195 2.266 . S
O203 C200 1.252 . S
O204 In195 2.326 . S
O204 C200 1.260 . S
C205 O196 1.240 . S
C205 O197 1.252 . S
O206 In195 2.294 . S
O206 C199 1.240 . S
O207 In195 2.326 . S
O207 C199 1.252 . S
In208 O209 2.294 . S
In208 O210 2.326 . S
In208 O214 2.266 . S
In208 O215 2.326 . S
In208 O216 2.266 1_545 S
In208 O217 2.326 1_545 S
In208 O219 2.294 . S
In208 O220 2.326 . S
O209 In208 2.294 . S
O209 C218 1.240 . S
O210 In208 2.326 . S
O210 C218 1.252 . S
C211 O214 1.252 . S
C211 O215 1.260 . S
C212 O219 1.240 . S
C212 O220 1.252 . S
C213 O216 1.252 . S
C213 O217 1.260 . S
O214 In208 2.266 . S
O214 C211 1.252 . S
O215 In208 2.326 . S
O215 C211 1.260 . S
O216 In208 2.266 1_565 S
O216 C213 1.252 . S
O217 In208 2.326 1_565 S
O217 C213 1.260 . S
C218 O209 1.240 . S
C218 O210 1.252 . S
O219 In208 2.294 . S
O219 C212 1.240 . S
O220 In208 2.326 . S
O220 C212 1.252 . S
In221 O222 2.294 . S
In221 O223 2.326 . S
In221 O227 2.266 . S
In221 O228 2.326 . S
In221 O229 2.266 . S
In221 O230 2.326 . S
In221 O232 2.294 . S
In221 O233 2.326 . S
O222 In221 2.294 . S
O222 C231 1.240 . S
O223 In221 2.326 . S
O223 C231 1.252 . S
C224 O227 1.252 . S
C224 O228 1.260 . S
C225 O232 1.240 . S
C225 O233 1.252 . S
C226 O229 1.252 . S
C226 O230 1.260 . S
O227 In221 2.266 . S
O227 C224 1.252 . S
O228 In221 2.326 . S
O228 C224 1.260 . S
O229 In221 2.266 . S
O229 C226 1.252 . S
O230 In221 2.326 . S
O230 C226 1.260 . S
C231 O222 1.240 . S
C231 O223 1.252 . S
O232 In221 2.294 . S
O232 C225 1.240 . S
O233 In221 2.326 . S
O233 C225 1.252 . S
In234 O235 2.294 . S
In234 O236 2.326 . S
In234 O240 2.266 . S
In234 O241 2.326 . S
In234 O242 2.266 . S
In234 O243 2.326 . S
In234 O245 2.294 . S
In234 O246 2.326 . S
O235 In234 2.294 . S
O235 C244 1.240 . S
O236 In234 2.326 . S
O236 C244 1.252 . S
C237 O240 1.252 . S
C237 O241 1.260 . S
C238 O245 1.240 . S
C238 O246 1.252 . S
C239 O242 1.252 . S
C239 O243 1.260 . S
O240 In234 2.266 . S
O240 C237 1.252 . S
O241 In234 2.326 . S
O241 C237 1.260 . S
O242 In234 2.266 . S
O242 C239 1.252 . S
O243 In234 2.326 . S
O243 C239 1.260 . S
C244 O235 1.240 . S
C244 O236 1.252 . S
O245 In234 2.294 . S
O245 C238 1.240 . S
O246 In234 2.326 . S
O246 C238 1.252 . S
In247 O248 2.294 1_545 S
In247 O249 2.326 1_545 S
In247 O253 2.266 . S
In247 O254 2.326 . S
In247 O255 2.266 . S
In247 O256 2.326 . S
In247 O258 2.294 . S
In247 O259 2.326 . S
O248 In247 2.294 1_565 S
O248 C257 1.240 . S
O249 In247 2.326 1_565 S
O249 C257 1.252 . S
C250 O253 1.252 . S
C250 O254 1.260 . S
C251 O258 1.240 . S
C251 O259 1.252 . S
C252 O255 1.252 . S
C252 O256 1.260 . S
O253 In247 2.266 . S
O253 C250 1.252 . S
O254 In247 2.326 . S
O254 C250 1.260 . S
O255 In247 2.266 . S
O255 C252 1.252 . S
O256 In247 2.326 . S
O256 C252 1.260 . S
C257 O248 1.240 . S
C257 O249 1.252 . S
O258 In247 2.294 . S
O258 C251 1.240 . S
O259 In247 2.326 . S
O259 C251 1.252 . S
In260 O261 2.294 . S
In260 O262 2.326 . S
In260 O266 2.266 . S
In260 O267 2.326 . S
In260 O268 2.266 . S
In260 O269 2.325 . S
In260 O271 2.294 . S
In260 O272 2.326 . S
O261 In260 2.294 . S
O261 C270 1.240 . S
O262 In260 2.326 . S
O262 C270 1.252 . S
C263 O266 1.252 . S
C263 O267 1.260 . S
C264 O271 1.240 . S
C264 O272 1.252 . S
C265 O268 1.251 1_556 S
C265 O269 1.260 1_556 S
O266 In260 2.266 . S
O266 C263 1.252 . S
O267 In260 2.326 . S
O267 C263 1.260 . S
O268 In260 2.266 . S
O268 C265 1.251 1_554 S
O269 In260 2.325 . S
O269 C265 1.260 1_554 S
C270 O261 1.240 . S
C270 O262 1.252 . S
O271 In260 2.294 . S
O271 C264 1.240 . S
O272 In260 2.326 . S
O272 C264 1.252 . S
In273 O274 2.294 . S
In273 O275 2.326 . S
In273 O279 2.266 . S
In273 O280 2.326 . S
In273 O281 2.266 . S
In273 O282 2.326 . S
In273 O284 2.294 . S
In273 O285 2.326 . S
O274 In273 2.294 . S
O274 C283 1.240 . S
O275 In273 2.326 . S
O275 C283 1.252 . S
C276 O279 1.252 . S
C276 O280 1.260 . S
C277 O284 1.240 . S
C277 O285 1.252 . S
C278 O281 1.252 . S
C278 O282 1.260 . S
O279 In273 2.266 . S
O279 C276 1.252 . S
O280 In273 2.326 . S
O280 C276 1.260 . S
O281 In273 2.266 . S
O281 C278 1.252 . S
O282 In273 2.326 . S
O282 C278 1.260 . S
C283 O274 1.240 . S
C283 O275 1.252 . S
O284 In273 2.294 . S
O284 C277 1.240 . S
O285 In273 2.326 . S
O285 C277 1.252 . S
In286 O287 2.294 . S
In286 O288 2.326 . S
In286 O292 2.266 . S
In286 O293 2.326 . S
In286 O294 2.266 . S
In286 O295 2.326 . S
In286 O297 2.294 . S
In286 O298 2.326 . S
O287 In286 2.294 . S
O287 C296 1.240 . S
O288 In286 2.326 . S
O288 C296 1.252 . S
C289 O292 1.252 . S
C289 O293 1.260 . S
C290 O297 1.240 . S
C290 O298 1.252 . S
C291 O294 1.252 . S
C291 O295 1.260 . S
O292 In286 2.266 . S
O292 C289 1.252 . S
O293 In286 2.326 . S
O293 C289 1.260 . S
O294 In286 2.266 . S
O294 C291 1.252 . S
O295 In286 2.326 . S
O295 C291 1.260 . S
C296 O287 1.240 . S
C296 O288 1.252 . S
O297 In286 2.294 . S
O297 C290 1.240 . S
O298 In286 2.326 . S
O298 C290 1.252 . S
In299 O300 2.294 . S
In299 O301 2.326 . S
In299 O305 2.266 . S
In299 O306 2.326 . S
In299 O307 2.266 . S
In299 O308 2.326 . S
In299 O310 2.294 . S
In299 O311 2.326 . S
O300 In299 2.294 . S
O300 C309 1.240 . S
O301 In299 2.326 . S
O301 C309 1.252 . S
C302 O305 1.252 . S
C302 O306 1.260 . S
C303 O310 1.240 . S
C303 O311 1.252 . S
C304 O307 1.252 . S
C304 O308 1.260 . S
O305 In299 2.266 . S
O305 C302 1.252 . S
O306 In299 2.326 . S
O306 C302 1.260 . S
O307 In299 2.266 . S
O307 C304 1.252 . S
O308 In299 2.326 . S
O308 C304 1.260 . S
C309 O300 1.240 . S
C309 O301 1.252 . S
O310 In299 2.294 . S
O310 C303 1.240 . S
O311 In299 2.326 . S
O311 C303 1.252 . S
Tb312 C314 2.809 1_455 S
Tb312 O332 2.512 . S
Tb312 O333 2.440 1_455 S
Tb312 O334 2.658 . S
Tb312 O335 2.409 . S
Tb312 O336 2.378 . S
Tb312 O340 2.325 . S
Tb312 O343 2.341 1_545 S
Tb313 C323 2.809 . S
Tb313 O334 2.325 . S
Tb313 O337 2.341 . S
Tb313 O338 2.484 . S
Tb313 O339 2.440 . S
Tb313 O340 2.658 . S
Tb313 O341 2.409 . S
Tb313 O342 2.378 . S
C314 Tb312 2.809 1_655 S
C314 C315 1.514 . S
C314 O332 1.235 1_655 S
C314 O333 1.266 . S
C315 C314 1.514 . S
C315 C316 1.359 . S
C315 C320 1.348 . S
C316 C315 1.359 . S
C316 C317 1.380 . S
C316 H344 0.929 . S
C317 C316 1.380 . S
C317 C318 1.347 . S
C317 H345 0.931 . S
C318 C317 1.347 . S
C318 C319 1.369 . S
C319 C318 1.369 . S
C319 C320 1.408 . S
C319 H346 0.930 1_554 S
C320 C315 1.348 . S
C320 C319 1.408 . S
C320 H347 0.930 . S
C321 O334 1.281 . S
C321 O335 1.254 . S
C322 O336 1.236 . S
C322 O337 1.266 . S
C323 Tb313 2.809 . S
C323 C324 1.514 . S
C323 O338 1.248 . S
C323 O339 1.266 . S
C324 C323 1.514 . S
C324 C325 1.359 1_545 S
C324 C329 1.348 . S
C325 C324 1.359 1_565 S
C325 C326 1.380 . S
C325 H348 0.929 . S
C326 C325 1.380 . S
C326 C327 1.347 . S
C326 H349 0.931 . S
C327 C326 1.347 . S
C327 C328 1.369 . S
C328 C327 1.369 . S
C328 C329 1.408 1_565 S
C328 H350 0.930 . S
C329 C324 1.348 . S
C329 C328 1.408 1_545 S
C329 H351 0.930 . S
C330 O340 1.281 . S
C330 O341 1.254 . S
C331 O342 1.236 1_565 S
C331 O343 1.266 . S
O332 Tb312 2.512 . S
O332 C314 1.235 1_455 S
O333 Tb312 2.440 1_655 S
O333 C314 1.266 . S
O334 Tb312 2.658 . S
O334 Tb313 2.325 . S
O334 C321 1.281 . S
O335 Tb312 2.409 . S
O335 C321 1.254 . S
O336 Tb312 2.378 . S
O336 C322 1.236 . S
O337 Tb313 2.341 . S
O337 C322 1.266 . S
O338 Tb313 2.484 . S
O338 C323 1.248 . S
O339 Tb313 2.440 . S
O339 C323 1.266 . S
O340 Tb312 2.325 . S
O340 Tb313 2.658 . S
O340 C330 1.281 . S
O341 Tb313 2.409 . S
O341 C330 1.254 . S
O342 Tb313 2.378 . S
O342 C331 1.236 1_545 S
O343 Tb312 2.341 1_565 S
O343 C331 1.266 . S
H344 C316 0.929 . S
H345 C317 0.931 . S
H346 C319 0.930 1_556 S
H347 C320 0.930 . S
H348 C325 0.929 . S
H349 C326 0.931 . S
H350 C328 0.930 . S
H351 C329 0.930 . S
Tb352 C354 2.809 . S
Tb352 O372 2.484 . S
Tb352 O373 2.440 . S
Tb352 O374 2.658 . S
Tb352 O375 2.409 . S
Tb352 O376 2.378 . S
Tb352 O380 2.325 . S
Tb352 O383 2.341 . S
Tb353 C363 2.809 . S
Tb353 O374 2.325 . S
Tb353 O377 2.341 . S
Tb353 O378 2.484 . S
Tb353 O379 2.440 . S
Tb353 O380 2.658 . S
Tb353 O381 2.409 . S
Tb353 O382 2.378 . S
C354 Tb352 2.809 . S
C354 C355 1.514 . S
C354 O372 1.248 . S
C354 O373 1.266 . S
C355 C354 1.514 . S
C355 C356 1.359 . S
C355 C360 1.348 . S
C356 C355 1.359 . S
C356 C357 1.380 . S
C356 H384 0.929 . S
C357 C356 1.380 . S
C357 C358 1.347 . S
C357 H385 0.931 . S
C358 C357 1.347 . S
C358 C359 1.369 . S
C359 C358 1.369 . S
C359 C360 1.408 . S
C359 H386 0.930 . S
C360 C355 1.348 . S
C360 C359 1.408 . S
C360 H387 0.930 . S
C361 O374 1.281 . S
C361 O375 1.254 . S
C362 O376 1.236 . S
C362 O377 1.266 . S
C363 Tb353 2.809 . S
C363 C364 1.514 . S
C363 O378 1.248 . S
C363 O379 1.266 . S
C364 C363 1.514 . S
C364 C365 1.359 . S
C364 C369 1.348 . S
C365 C364 1.359 . S
C365 C366 1.380 . S
C365 H388 0.929 . S
C366 C365 1.380 . S
C366 C367 1.347 . S
C366 H389 0.931 . S
C367 C366 1.347 . S
C367 C368 1.369 . S
C368 C367 1.369 . S
C368 C369 1.408 . S
C368 H390 0.930 . S
C369 C364 1.348 . S
C369 C368 1.408 . S
C369 H391 0.930 . S
C370 O380 1.281 . S
C370 O381 1.254 . S
C371 O382 1.236 . S
C371 O383 1.266 . S
O372 Tb352 2.484 . S
O372 C354 1.248 . S
O373 Tb352 2.440 . S
O373 C354 1.266 . S
O374 Tb352 2.658 . S
O374 Tb353 2.325 . S
O374 C361 1.281 . S
O375 Tb352 2.409 . S
O375 C361 1.254 . S
O376 Tb352 2.378 . S
O376 C362 1.236 . S
O377 Tb353 2.341 . S
O377 C362 1.266 . S
O378 Tb353 2.484 . S
O378 C363 1.248 . S
O379 Tb353 2.440 . S
O379 C363 1.266 . S
O380 Tb352 2.325 . S
O380 Tb353 2.658 . S
O380 C370 1.281 . S
O381 Tb353 2.409 . S
O381 C370 1.254 . S
O382 Tb353 2.378 . S
O382 C371 1.236 . S
O383 Tb352 2.341 . S
O383 C371 1.266 . S
H384 C356 0.929 . S
H385 C357 0.931 . S
H386 C359 0.930 . S
H387 C360 0.930 . S
H388 C365 0.929 . S
H389 C366 0.931 . S
H390 C368 0.930 . S
H391 C369 0.930 . S
Tb392 C394 2.809 1_545 S
Tb392 O412 2.484 1_545 S
Tb392 O413 2.440 . S
Tb392 O414 2.658 . S
Tb392 O415 2.409 . S
Tb392 O416 2.378 1_545 S
Tb392 O420 2.325 . S
Tb392 O423 2.341 . S
Tb393 C403 2.809 . S
Tb393 O414 2.325 . S
Tb393 O417 2.341 1_545 S
Tb393 O418 2.484 . S
Tb393 O419 2.440 . S
Tb393 O420 2.658 . S
Tb393 O421 2.409 . S
Tb393 O422 2.378 . S
C394 Tb392 2.809 1_565 S
C394 C395 1.514 . S
C394 O412 1.248 . S
C394 O413 1.266 1_565 S
C395 C394 1.514 . S
C395 C396 1.359 . S
C395 C400 1.348 . S
C396 C395 1.359 . S
C396 C397 1.380 . S
C396 H424 0.929 . S
C397 C396 1.380 . S
C397 C398 1.347 . S
C397 H425 0.931 . S
C398 C397 1.347 . S
C398 C399 1.369 . S
C399 C398 1.369 . S
C399 C400 1.408 . S
C399 H426 0.930 . S
C400 C395 1.348 . S
C400 C399 1.408 . S
C400 H427 0.930 . S
C401 O414 1.281 . S
C401 O415 1.254 . S
C402 O416 1.236 . S
C402 O417 1.266 . S
C403 Tb393 2.809 . S
C403 C404 1.514 . S
C403 O418 1.248 . S
C403 O419 1.266 . S
C404 C403 1.514 . S
C404 C405 1.359 . S
C404 C409 1.348 . S
C405 C404 1.359 . S
C405 C406 1.380 . S
C405 H428 0.929 . S
C406 C405 1.380 . S
C406 C407 1.347 . S
C406 H429 0.931 . S
C407 C406 1.347 . S
C407 C408 1.369 . S
C408 C407 1.369 . S
C408 C409 1.408 . S
C408 H430 0.930 . S
C409 C404 1.348 . S
C409 C408 1.408 . S
C409 H431 0.930 . S
C410 O420 1.281 . S
C410 O421 1.254 . S
C411 O422 1.236 . S
C411 O423 1.266 . S
O412 Tb392 2.484 1_565 S
O412 C394 1.248 . S
O413 Tb392 2.440 . S
O413 C394 1.266 1_545 S
O414 Tb392 2.658 . S
O414 Tb393 2.325 . S
O414 C401 1.281 . S
O415 Tb392 2.409 . S
O415 C401 1.254 . S
O416 Tb392 2.378 1_565 S
O416 C402 1.236 . S
O417 Tb393 2.341 1_565 S
O417 C402 1.266 . S
O418 Tb393 2.484 . S
O418 C403 1.248 . S
O419 Tb393 2.440 . S
O419 C403 1.266 . S
O420 Tb392 2.325 . S
O420 Tb393 2.658 . S
O420 C410 1.281 . S
O421 Tb393 2.409 . S
O421 C410 1.254 . S
O422 Tb393 2.378 . S
O422 C411 1.236 . S
O423 Tb392 2.341 . S
O423 C411 1.266 . S
H424 C396 0.929 . S
H425 C397 0.931 . S
H426 C399 0.930 . S
H427 C400 0.930 . S
H428 C405 0.929 . S
H429 C406 0.931 . S
H430 C408 0.930 . S
H431 C409 0.930 . S
Tb432 C434 2.809 . S
Tb432 O452 2.484 . S
Tb432 O453 2.440 . S
Tb432 O454 2.658 . S
Tb432 O455 2.409 . S
Tb432 O456 2.378 . S
Tb432 O460 2.325 . S
Tb432 O463 2.341 . S
Tb433 C443 2.809 . S
Tb433 O454 2.325 . S
Tb433 O457 2.341 . S
Tb433 O458 2.484 . S
Tb433 O459 2.440 . S
Tb433 O460 2.658 . S
Tb433 O461 2.409 . S
Tb433 O462 2.378 . S
C434 Tb432 2.809 . S
C434 C435 1.514 . S
C434 O452 1.248 . S
C434 O453 1.266 . S
C435 C434 1.514 . S
C435 C436 1.359 . S
C435 C440 1.348 . S
C436 C435 1.359 . S
C436 C437 1.380 . S
C436 H464 0.929 . S
C437 C436 1.380 . S
C437 C438 1.347 . S
C437 H465 0.931 . S
C438 C437 1.347 . S
C438 C439 1.369 . S
C439 C438 1.369 . S
C439 C440 1.408 . S
C439 H466 0.930 . S
C440 C435 1.348 . S
C440 C439 1.408 . S
C440 H467 0.930 . S
C441 O454 1.281 . S
C441 O455 1.254 . S
C442 O456 1.236 . S
C442 O457 1.266 . S
C443 Tb433 2.809 . S
C443 C444 1.514 . S
C443 O458 1.248 . S
C443 O459 1.266 . S
C444 C443 1.514 . S
C444 C445 1.359 . S
C444 C449 1.348 . S
C445 C444 1.359 . S
C445 C446 1.380 . S
C445 H468 0.929 . S
C446 C445 1.380 . S
C446 C447 1.347 . S
C446 H469 0.931 . S
C447 C446 1.347 . S
C447 C448 1.369 . S
C448 C447 1.369 . S
C448 C449 1.408 . S
C448 H470 0.930 . S
C449 C444 1.348 . S
C449 C448 1.408 . S
C449 H471 0.930 . S
C450 O460 1.281 . S
C450 O461 1.254 . S
C451 O462 1.236 . S
C451 O463 1.266 . S
O452 Tb432 2.484 . S
O452 C434 1.248 . S
O453 Tb432 2.440 . S
O453 C434 1.266 . S
O454 Tb432 2.658 . S
O454 Tb433 2.325 . S
O454 C441 1.281 . S
O455 Tb432 2.409 . S
O455 C441 1.254 . S
O456 Tb432 2.378 . S
O456 C442 1.236 . S
O457 Tb433 2.341 . S
O457 C442 1.266 . S
O458 Tb433 2.484 . S
O458 C443 1.248 . S
O459 Tb433 2.440 . S
O459 C443 1.266 . S
O460 Tb432 2.325 . S
O460 Tb433 2.658 . S
O460 C450 1.281 . S
O461 Tb433 2.409 . S
O461 C450 1.254 . S
O462 Tb433 2.378 . S
O462 C451 1.236 . S
O463 Tb432 2.341 . S
O463 C451 1.266 . S
H464 C436 0.929 . S
H465 C437 0.931 . S
H466 C439 0.930 . S
H467 C440 0.930 . S
H468 C445 0.929 . S
H469 C446 0.931 . S
H470 C448 0.930 . S
H471 C449 0.930 . S
Tb472 C474 2.809 . S
Tb472 O492 2.484 . S
Tb472 O493 2.440 . S
Tb472 O494 2.709 . S
Tb472 O495 2.409 . S
Tb472 O496 2.378 . S
Tb472 O500 2.325 . S
Tb472 O503 2.341 . S
Tb473 C483 2.809 . S
Tb473 O494 2.298 1_565 S
Tb473 O497 2.341 . S
Tb473 O498 2.484 . S
Tb473 O499 2.440 . S
Tb473 O500 2.658 1_565 S
Tb473 O501 2.409 1_565 S
Tb473 O502 2.378 1_565 S
C474 Tb472 2.809 . S
C474 C475 1.514 . S
C474 O492 1.248 . S
C474 O493 1.266 . S
C475 C474 1.514 . S
C475 C476 1.359 . S
C475 C480 1.348 . S
C476 C475 1.359 . S
C476 C477 1.380 . S
C476 H504 0.929 . S
C477 C476 1.380 . S
C477 C478 1.347 . S
C477 H505 0.931 . S
C478 C477 1.347 . S
C478 C479 1.369 . S
C479 C478 1.369 . S
C479 C480 1.408 . S
C479 H506 0.930 1_455 S
C480 C475 1.348 . S
C480 C479 1.408 . S
C480 H507 0.930 1_455 S
C481 O494 1.298 . S
C481 O495 1.254 . S
C482 O496 1.236 . S
C482 O497 1.266 1_545 S
C483 Tb473 2.809 . S
C483 C484 1.514 . S
C483 O498 1.248 . S
C483 O499 1.266 . S
C484 C483 1.514 . S
C484 C485 1.359 . S
C484 C489 1.348 . S
C485 C484 1.359 . S
C485 C486 1.380 . S
C485 H508 0.929 . S
C486 C485 1.380 . S
C486 C487 1.347 . S
C486 H509 0.931 . S
C487 C486 1.347 . S
C487 C488 1.369 . S
C488 C487 1.369 . S
C488 C489 1.408 . S
C488 H510 0.930 . S
C489 C484 1.348 . S
C489 C488 1.408 . S
C489 H511 0.930 . S
C490 O500 1.281 . S
C490 O501 1.254 . S
C491 O502 1.236 . S
C491 O503 1.266 . S
O492 Tb472 2.484 . S
O492 C474 1.248 . S
O493 Tb472 2.440 . S
O493 C474 1.266 . S
O494 Tb472 2.709 . S
O494 Tb473 2.298 1_545 S
O494 C481 1.298 . S
O495 Tb472 2.409 . S
O495 C481 1.254 . S
O496 Tb472 2.378 . S
O496 C482 1.236 . S
O497 Tb473 2.341 . S
O497 C482 1.266 1_565 S
O498 Tb473 2.484 . S
O498 C483 1.248 . S
O499 Tb473 2.440 . S
O499 C483 1.266 . S
O500 Tb472 2.325 . S
O500 Tb473 2.658 1_545 S
O500 C490 1.281 . S
O501 Tb473 2.409 1_545 S
O501 C490 1.254 . S
O502 Tb473 2.378 1_545 S
O502 C491 1.236 . S
O503 Tb472 2.341 . S
O503 C491 1.266 . S
H504 C476 0.929 . S
H505 C477 0.931 . S
H506 C479 0.930 1_655 S
H507 C480 0.930 1_655 S
H508 C485 0.929 . S
H509 C486 0.931 . S
H510 C488 0.930 . S
H511 C489 0.930 . S
Tb512 C514 2.809 . S
Tb512 O532 2.484 . S
Tb512 O533 2.440 . S
Tb512 O534 2.658 . S
Tb512 O535 2.409 . S
Tb512 O536 2.378 . S
Tb512 O540 2.325 . S
Tb512 O543 2.341 . S
Tb513 C523 2.809 . S
Tb513 O534 2.325 . S
Tb513 O537 2.341 . S
Tb513 O538 2.484 . S
Tb513 O539 2.440 . S
Tb513 O540 2.658 . S
Tb513 O541 2.409 . S
Tb513 O542 2.378 . S
C514 Tb512 2.809 . S
C514 C515 1.514 . S
C514 O532 1.248 . S
C514 O533 1.266 . S
C515 C514 1.514 . S
C515 C516 1.359 . S
C515 C520 1.348 . S
C516 C515 1.359 . S
C516 C517 1.380 . S
C516 H544 0.929 . S
C517 C516 1.380 . S
C517 C518 1.347 . S
C517 H545 0.931 . S
C518 C517 1.347 . S
C518 C519 1.369 . S
C519 C518 1.369 . S
C519 C520 1.408 . S
C519 H546 0.930 . S
C520 C515 1.348 . S
C520 C519 1.408 . S
C520 H547 0.930 . S
C521 O534 1.281 . S
C521 O535 1.254 . S
C522 O536 1.236 . S
C522 O537 1.266 . S
C523 Tb513 2.809 . S
C523 C524 1.514 . S
C523 O538 1.248 . S
C523 O539 1.266 . S
C524 C523 1.514 . S
C524 C525 1.359 . S
C524 C529 1.348 . S
C525 C524 1.359 . S
C525 C526 1.380 . S
C525 H548 0.929 . S
C526 C525 1.380 . S
C526 C527 1.347 . S
C526 H549 0.931 . S
C527 C526 1.347 . S
C527 C528 1.369 . S
C528 C527 1.369 . S
C528 C529 1.408 . S
C528 H550 0.930 . S
C529 C524 1.348 . S
C529 C528 1.408 . S
C529 H551 0.930 . S
C530 O540 1.281 . S
C530 O541 1.254 . S
C531 O542 1.236 . S
C531 O543 1.266 . S
O532 Tb512 2.484 . S
O532 C514 1.248 . S
O533 Tb512 2.440 . S
O533 C514 1.266 . S
O534 Tb512 2.658 . S
O534 Tb513 2.325 . S
O534 C521 1.281 . S
O535 Tb512 2.409 . S
O535 C521 1.254 . S
O536 Tb512 2.378 . S
O536 C522 1.236 . S
O537 Tb513 2.341 . S
O537 C522 1.266 . S
O538 Tb513 2.484 . S
O538 C523 1.248 . S
O539 Tb513 2.440 . S
O539 C523 1.266 . S
O540 Tb512 2.325 . S
O540 Tb513 2.658 . S
O540 C530 1.281 . S
O541 Tb513 2.409 . S
O541 C530 1.254 . S
O542 Tb513 2.378 . S
O542 C531 1.236 . S
O543 Tb512 2.341 . S
O543 C531 1.266 . S
H544 C516 0.929 . S
H545 C517 0.931 . S
H546 C519 0.930 . S
H547 C520 0.930 . S
H548 C525 0.929 . S
H549 C526 0.931 . S
H550 C528 0.930 . S
H551 C529 0.930 . S
Tb552 C554 2.809 . S
Tb552 O572 2.484 . S
Tb552 O573 2.440 . S
Tb552 O574 2.658 . S
Tb552 O575 2.409 . S
Tb552 O576 2.378 . S
Tb552 O580 2.325 . S
Tb552 O583 2.341 1_554 S
Tb553 C563 2.809 . S
Tb553 O574 2.325 . S
Tb553 O577 2.341 . S
Tb553 O578 2.484 . S
Tb553 O579 2.440 . S
Tb553 O580 2.658 . S
Tb553 O581 2.409 1_545 S
Tb553 O582 2.378 . S
C554 Tb552 2.809 . S
C554 C555 1.514 . S
C554 O572 1.248 . S
C554 O573 1.266 . S
C555 C554 1.514 . S
C555 C556 1.359 1_545 S
C555 C560 1.348 . S
C556 C555 1.359 1_565 S
C556 C557 1.380 . S
C556 H584 0.929 . S
C557 C556 1.380 . S
C557 C558 1.347 . S
C557 H585 0.931 . S
C558 C557 1.347 . S
C558 C559 1.369 1_565 S
C559 C558 1.369 1_545 S
C559 C560 1.408 . S
C559 H586 0.930 . S
C560 C555 1.348 . S
C560 C559 1.408 . S
C560 H587 0.930 . S
C561 O574 1.281 . S
C561 O575 1.254 . S
C562 O576 1.236 . S
C562 O577 1.266 . S
C563 Tb553 2.809 . S
C563 C564 1.514 . S
C563 O578 1.248 . S
C563 O579 1.266 . S
C564 C563 1.514 . S
C564 C565 1.359 . S
C564 C569 1.348 . S
C565 C564 1.359 . S
C565 C566 1.380 . S
C565 H588 0.929 . S
C566 C565 1.380 . S
C566 C567 1.347 . S
C566 H589 0.931 . S
C567 C566 1.347 . S
C567 C568 1.369 . S
C568 C567 1.369 . S
C568 C569 1.408 . S
C568 H590 0.930 . S
C569 C564 1.348 . S
C569 C568 1.408 . S
C569 H591 0.930 . S
C570 O580 1.281 1_565 S
C570 O581 1.254 . S
C571 O582 1.236 1_556 S
C571 O583 1.266 . S
O572 Tb552 2.484 . S
O572 C554 1.248 . S
O573 Tb552 2.440 . S
O573 C554 1.266 . S
O574 Tb552 2.658 . S
O574 Tb553 2.325 . S
O574 C561 1.281 . S
O575 Tb552 2.409 . S
O575 C561 1.254 . S
O576 Tb552 2.378 . S
O576 C562 1.236 . S
O577 Tb553 2.341 . S
O577 C562 1.266 . S
O578 Tb553 2.484 . S
O578 C563 1.248 . S
O579 Tb553 2.440 . S
O579 C563 1.266 . S
O580 Tb552 2.325 . S
O580 Tb553 2.658 . S
O580 C570 1.281 1_545 S
O581 Tb553 2.409 1_565 S
O581 C570 1.254 . S
O582 Tb553 2.378 . S
O582 C571 1.236 1_554 S
O583 Tb552 2.341 1_556 S
O583 C571 1.266 . S
H584 C556 0.929 . S
H585 C557 0.931 . S
H586 C559 0.930 . S
H587 C560 0.930 . S
H588 C565 0.929 . S
H589 C566 0.931 . S
H590 C568 0.930 . S
H591 C569 0.930 . S
Tb592 C594 2.809 . S
Tb592 O612 2.484 . S
Tb592 O613 2.440 . S
Tb592 O614 2.658 . S
Tb592 O615 2.409 . S
Tb592 O616 2.378 . S
Tb592 O620 2.325 . S
Tb592 O623 2.341 . S
Tb593 C603 2.809 . S
Tb593 O614 2.325 . S
Tb593 O617 2.341 . S
Tb593 O618 2.484 . S
Tb593 O619 2.440 . S
Tb593 O620 2.658 . S
Tb593 O621 2.409 . S
Tb593 O622 2.378 . S
C594 Tb592 2.809 . S
C594 C595 1.514 . S
C594 O612 1.248 . S
C594 O613 1.266 . S
C595 C594 1.514 . S
C595 C596 1.359 . S
C595 C600 1.348 . S
C596 C595 1.359 . S
C596 C597 1.380 . S
C596 H624 0.929 . S
C597 C596 1.380 . S
C597 C598 1.347 . S
C597 H625 0.931 . S
C598 C597 1.347 . S
C598 C599 1.369 . S
C599 C598 1.369 . S
C599 C600 1.408 . S
C599 H626 0.930 . S
C600 C595 1.348 . S
C600 C599 1.408 . S
C600 H627 0.930 . S
C601 O614 1.281 . S
C601 O615 1.254 . S
C602 O616 1.236 . S
C602 O617 1.266 . S
C603 Tb593 2.809 . S
C603 C604 1.514 . S
C603 O618 1.248 . S
C603 O619 1.266 . S
C604 C603 1.514 . S
C604 C605 1.359 . S
C604 C609 1.348 . S
C605 C604 1.359 . S
C605 C606 1.380 . S
C605 H628 0.929 . S
C606 C605 1.380 . S
C606 C607 1.347 . S
C606 H629 0.931 . S
C607 C606 1.347 . S
C607 C608 1.369 . S
C608 C607 1.369 . S
C608 C609 1.408 . S
C608 H630 0.930 . S
C609 C604 1.348 . S
C609 C608 1.408 . S
C609 H631 0.930 . S
C610 O620 1.281 . S
C610 O621 1.254 . S
C611 O622 1.236 . S
C611 O623 1.266 . S
O612 Tb592 2.484 . S
O612 C594 1.248 . S
O613 Tb592 2.440 . S
O613 C594 1.266 . S
O614 Tb592 2.658 . S
O614 Tb593 2.325 . S
O614 C601 1.281 . S
O615 Tb592 2.409 . S
O615 C601 1.254 . S
O616 Tb592 2.378 . S
O616 C602 1.236 . S
O617 Tb593 2.341 . S
O617 C602 1.266 . S
O618 Tb593 2.484 . S
O618 C603 1.248 . S
O619 Tb593 2.440 . S
O619 C603 1.266 . S
O620 Tb592 2.325 . S
O620 Tb593 2.658 . S
O620 C610 1.281 . S
O621 Tb593 2.409 . S
O621 C610 1.254 . S
O622 Tb593 2.378 . S
O622 C611 1.236 . S
O623 Tb592 2.341 . S
O623 C611 1.266 . S
H624 C596 0.929 . S
H625 C597 0.931 . S
H626 C599 0.930 . S
H627 C600 0.930 . S
H628 C605 0.929 . S
H629 C606 0.931 . S
H630 C608 0.930 . S
H631 C609 0.930 . S
Tb632 C634 2.809 . S
Tb632 O652 2.484 . S
Tb632 O653 2.440 . S
Tb632 O654 2.658 . S
Tb632 O655 2.409 . S
Tb632 O656 2.378 . S
Tb632 O660 2.325 . S
Tb632 O663 2.341 . S
Tb633 C643 2.809 . S
Tb633 O654 2.325 . S
Tb633 O657 2.341 1_554 S
Tb633 O658 2.484 . S
Tb633 O659 2.440 . S
Tb633 O660 2.658 . S
Tb633 O661 2.409 . S
Tb633 O662 2.378 . S
C634 Tb632 2.809 . S
C634 C635 1.514 1_554 S
C634 O652 1.248 . S
C634 O653 1.266 . S
C635 C634 1.514 1_556 S
C635 C636 1.359 . S
C635 C640 1.348 . S
C636 C635 1.359 . S
C636 C637 1.380 . S
C636 H664 0.929 . S
C637 C636 1.380 . S
C637 C638 1.347 . S
C637 H665 0.931 . S
C638 C637 1.347 . S
C638 C639 1.369 . S
C639 C638 1.369 . S
C639 C640 1.408 . S
C639 H666 0.930 . S
C640 C635 1.348 . S
C640 C639 1.408 . S
C640 H667 0.930 1_556 S
C641 O654 1.281 . S
C641 O655 1.254 . S
C642 O656 1.236 1_556 S
C642 O657 1.266 . S
C643 Tb633 2.809 . S
C643 C644 1.514 . S
C643 O658 1.248 . S
C643 O659 1.266 . S
C644 C643 1.514 . S
C644 C645 1.359 . S
C644 C649 1.348 . S
C645 C644 1.359 . S
C645 C646 1.380 . S
C645 H668 0.929 . S
C646 C645 1.380 . S
C646 C647 1.347 . S
C646 H669 0.931 . S
C647 C646 1.347 . S
C647 C648 1.369 . S
C648 C647 1.369 . S
C648 C649 1.408 . S
C648 H670 0.930 . S
C649 C644 1.348 . S
C649 C648 1.408 . S
C649 H671 0.930 . S
C650 O660 1.281 . S
C650 O661 1.254 . S
C651 O662 1.236 . S
C651 O663 1.266 . S
O652 Tb632 2.484 . S
O652 C634 1.248 . S
O653 Tb632 2.440 . S
O653 C634 1.266 . S
O654 Tb632 2.658 . S
O654 Tb633 2.325 . S
O654 C641 1.281 . S
O655 Tb632 2.409 . S
O655 C641 1.254 . S
O656 Tb632 2.378 . S
O656 C642 1.236 1_554 S
O657 Tb633 2.341 1_556 S
O657 C642 1.266 . S
O658 Tb633 2.484 . S
O658 C643 1.248 . S
O659 Tb633 2.440 . S
O659 C643 1.266 . S
O660 Tb632 2.325 . S
O660 Tb633 2.658 . S
O660 C650 1.281 . S
O661 Tb633 2.409 . S
O661 C650 1.254 . S
O662 Tb633 2.378 . S
O662 C651 1.236 . S
O663 Tb632 2.341 . S
O663 C651 1.266 . S
H664 C636 0.929 . S
H665 C637 0.931 . S
H666 C639 0.930 . S
H667 C640 0.930 1_554 S
H668 C645 0.929 . S
H669 C646 0.931 . S
H670 C648 0.930 . S
H671 C649 0.930 . S
Tb672 C674 2.809 . S
Tb672 O692 2.484 . S
Tb672 O693 2.440 . S
Tb672 O694 2.658 . S
Tb672 O695 2.409 . S
Tb672 O696 2.378 . S
Tb672 O700 2.325 . S
Tb672 O703 2.341 . S
Tb673 C683 2.809 . S
Tb673 O694 2.325 . S
Tb673 O697 2.341 . S
Tb673 O698 2.484 . S
Tb673 O699 2.440 . S
Tb673 O700 2.658 . S
Tb673 O701 2.409 . S
Tb673 O702 2.378 . S
C674 Tb672 2.809 . S
C674 C675 1.514 . S
C674 O692 1.248 . S
C674 O693 1.266 . S
C675 C674 1.514 . S
C675 C676 1.359 . S
C675 C680 1.348 . S
C676 C675 1.359 . S
C676 C677 1.380 . S
C676 H704 0.929 . S
C677 C676 1.380 . S
C677 C678 1.347 . S
C677 H705 0.931 . S
C678 C677 1.347 . S
C678 C679 1.369 . S
C679 C678 1.369 . S
C679 C680 1.408 . S
C679 H706 0.930 . S
C680 C675 1.348 . S
C680 C679 1.408 . S
C680 H707 0.930 . S
C681 O694 1.281 . S
C681 O695 1.254 . S
C682 O696 1.236 . S
C682 O697 1.266 . S
C683 Tb673 2.809 . S
C683 C684 1.514 . S
C683 O698 1.248 . S
C683 O699 1.266 . S
C684 C683 1.514 . S
C684 C685 1.359 . S
C684 C689 1.348 . S
C685 C684 1.359 . S
C685 C686 1.380 . S
C685 H708 0.929 . S
C686 C685 1.380 . S
C686 C687 1.347 . S
C686 H709 0.931 . S
C687 C686 1.347 . S
C687 C688 1.369 . S
C688 C687 1.369 . S
C688 C689 1.408 . S
C688 H710 0.930 . S
C689 C684 1.348 . S
C689 C688 1.408 . S
C689 H711 0.930 . S
C690 O700 1.281 . S
C690 O701 1.254 . S
C691 O702 1.236 . S
C691 O703 1.266 . S
O692 Tb672 2.484 . S
O692 C674 1.248 . S
O693 Tb672 2.440 . S
O693 C674 1.266 . S
O694 Tb672 2.658 . S
O694 Tb673 2.325 . S
O694 C681 1.281 . S
O695 Tb672 2.409 . S
O695 C681 1.254 . S
O696 Tb672 2.378 . S
O696 C682 1.236 . S
O697 Tb673 2.341 . S
O697 C682 1.266 . S
O698 Tb673 2.484 . S
O698 C683 1.248 . S
O699 Tb673 2.440 . S
O699 C683 1.266 . S
O700 Tb672 2.325 . S
O700 Tb673 2.658 . S
O700 C690 1.281 . S
O701 Tb673 2.409 . S
O701 C690 1.254 . S
O702 Tb673 2.378 . S
O702 C691 1.236 . S
O703 Tb672 2.341 . S
O703 C691 1.266 . S
H704 C676 0.929 . S
H705 C677 0.931 . S
H706 C679 0.930 . S
H707 C680 0.930 . S
H708 C685 0.929 . S
H709 C686 0.931 . S
H710 C688 0.930 . S
H711 C689 0.930 . S
Tb712 C714 2.809 . S
Tb712 O732 2.484 . S
Tb712 O733 2.440 . S
Tb712 O734 2.658 1_655 S
Tb712 O735 2.409 1_655 S
Tb712 O736 2.378 . S
Tb712 O740 2.325 1_655 S
Tb712 O743 2.341 1_655 S
Tb713 C723 2.809 . S
Tb713 O734 2.325 . S
Tb713 O737 2.341 . S
Tb713 O738 2.484 . S
Tb713 O739 2.440 . S
Tb713 O740 2.658 . S
Tb713 O741 2.409 . S
Tb713 O742 2.378 . S
C714 Tb712 2.809 . S
C714 C715 1.514 . S
C714 O732 1.248 . S
C714 O733 1.266 . S
C715 C714 1.514 . S
C715 C716 1.359 . S
C715 C720 1.348 . S
C716 C715 1.359 . S
C716 C717 1.380 . S
C716 H744 0.929 . S
C717 C716 1.380 . S
C717 C718 1.347 . S
C717 H745 0.931 . S
C718 C717 1.347 . S
C718 C719 1.369 . S
C719 C718 1.369 . S
C719 C720 1.408 . S
C719 H746 0.930 . S
C720 C715 1.348 . S
C720 C719 1.408 . S
C720 H747 0.930 . S
C721 O734 1.281 . S
C721 O735 1.254 . S
C722 O736 1.236 1_455 S
C722 O737 1.266 . S
C723 Tb713 2.809 . S
C723 C724 1.514 . S
C723 O738 1.248 . S
C723 O739 1.266 . S
C724 C723 1.514 . S
C724 C725 1.359 . S
C724 C729 1.348 . S
C725 C724 1.359 . S
C725 C726 1.380 . S
C725 H748 0.929 . S
C726 C725 1.380 . S
C726 C727 1.347 . S
C726 H749 0.931 . S
C727 C726 1.347 . S
C727 C728 1.369 . S
C728 C727 1.369 . S
C728 C729 1.408 . S
C728 H750 0.930 . S
C729 C724 1.348 . S
C729 C728 1.408 . S
C729 H751 0.930 . S
C730 O740 1.281 . S
C730 O741 1.254 . S
C731 O742 1.236 . S
C731 O743 1.266 . S
O732 Tb712 2.484 . S
O732 C714 1.248 . S
O733 Tb712 2.440 . S
O733 C714 1.266 . S
O734 Tb712 2.658 1_455 S
O734 Tb713 2.325 . S
O734 C721 1.281 . S
O735 Tb712 2.409 1_455 S
O735 C721 1.254 . S
O736 Tb712 2.378 . S
O736 C722 1.236 1_655 S
O737 Tb713 2.341 . S
O737 C722 1.266 . S
O738 Tb713 2.484 . S
O738 C723 1.248 . S
O739 Tb713 2.440 . S
O739 C723 1.266 . S
O740 Tb712 2.325 1_455 S
O740 Tb713 2.658 . S
O740 C730 1.281 . S
O741 Tb713 2.409 . S
O741 C730 1.254 . S
O742 Tb713 2.378 . S
O742 C731 1.236 . S
O743 Tb712 2.341 1_455 S
O743 C731 1.266 . S
H744 C716 0.929 . S
H745 C717 0.931 . S
H746 C719 0.930 . S
H747 C720 0.930 . S
H748 C725 0.929 . S
H749 C726 0.931 . S
H750 C728 0.930 . S
H751 C729 0.930 . S
Tb752 C754 2.809 . S
Tb752 O772 2.484 . S
Tb752 O773 2.440 . S
Tb752 O774 2.658 . S
Tb752 O775 2.409 . S
Tb752 O776 2.378 . S
Tb752 O780 2.325 . S
Tb752 O783 2.341 . S
Tb753 C763 2.809 . S
Tb753 O774 2.325 . S
Tb753 O777 2.341 . S
Tb753 O778 2.484 . S
Tb753 O779 2.440 . S
Tb753 O780 2.658 . S
Tb753 O781 2.409 . S
Tb753 O782 2.378 . S
C754 Tb752 2.809 . S
C754 C755 1.514 . S
C754 O772 1.248 . S
C754 O773 1.266 . S
C755 C754 1.514 . S
C755 C756 1.359 . S
C755 C760 1.348 . S
C756 C755 1.359 . S
C756 C757 1.380 . S
C756 H784 0.929 . S
C757 C756 1.380 . S
C757 C758 1.347 . S
C757 H785 0.931 . S
C758 C757 1.347 . S
C758 C759 1.369 . S
C759 C758 1.369 . S
C759 C760 1.408 . S
C759 H786 0.930 . S
C760 C755 1.348 . S
C760 C759 1.408 . S
C760 H787 0.930 . S
C761 O774 1.281 . S
C761 O775 1.254 . S
C762 O776 1.236 . S
C762 O777 1.266 . S
C763 Tb753 2.809 . S
C763 C764 1.514 . S
C763 O778 1.248 . S
C763 O779 1.266 . S
C764 C763 1.514 . S
C764 C765 1.359 . S
C764 C769 1.348 . S
C765 C764 1.359 . S
C765 C766 1.380 . S
C765 H788 0.929 . S
C766 C765 1.380 . S
C766 C767 1.347 . S
C766 H789 0.931 . S
C767 C766 1.347 . S
C767 C768 1.369 . S
C768 C767 1.369 . S
C768 C769 1.408 . S
C768 H790 0.930 . S
C769 C764 1.348 . S
C769 C768 1.408 . S
C769 H791 0.930 . S
C770 O780 1.281 . S
C770 O781 1.254 . S
C771 O782 1.236 . S
C771 O783 1.266 . S
O772 Tb752 2.484 . S
O772 C754 1.248 . S
O773 Tb752 2.440 . S
O773 C754 1.266 . S
O774 Tb752 2.658 . S
O774 Tb753 2.325 . S
O774 C761 1.281 . S
O775 Tb752 2.409 . S
O775 C761 1.254 . S
O776 Tb752 2.378 . S
O776 C762 1.236 . S
O777 Tb753 2.341 . S
O777 C762 1.266 . S
O778 Tb753 2.484 . S
O778 C763 1.248 . S
O779 Tb753 2.440 . S
O779 C763 1.266 . S
O780 Tb752 2.325 . S
O780 Tb753 2.658 . S
O780 C770 1.281 . S
O781 Tb753 2.409 . S
O781 C770 1.254 . S
O782 Tb753 2.378 . S
O782 C771 1.236 . S
O783 Tb752 2.341 . S
O783 C771 1.266 . S
H784 C756 0.929 . S
H785 C757 0.931 . S
H786 C759 0.930 . S
H787 C760 0.930 . S
H788 C765 0.929 . S
H789 C766 0.931 . S
H790 C768 0.930 . S
H791 C769 0.930 . S
Tb792 C794 2.809 . S
Tb792 O812 2.484 . S
Tb792 O813 2.440 . S
Tb792 O814 2.658 . S
Tb792 O815 2.409 . S
Tb792 O816 2.378 . S
Tb792 O820 2.325 . S
Tb792 O823 2.341 . S
Tb793 C803 2.809 . S
Tb793 O814 2.325 . S
Tb793 O817 2.341 . S
Tb793 O818 2.484 . S
Tb793 O819 2.440 . S
Tb793 O820 2.658 . S
Tb793 O821 2.409 . S
Tb793 O822 2.378 . S
C794 Tb792 2.809 . S
C794 C795 1.514 . S
C794 O812 1.248 . S
C794 O813 1.266 . S
C795 C794 1.514 . S
C795 C796 1.359 . S
C795 C800 1.348 . S
C796 C795 1.359 . S
C796 C797 1.380 . S
C796 H824 0.929 . S
C797 C796 1.380 . S
C797 C798 1.347 . S
C797 H825 0.931 . S
C798 C797 1.347 . S
C798 C799 1.369 . S
C799 C798 1.369 . S
C799 C800 1.408 . S
C799 H826 0.930 . S
C800 C795 1.348 . S
C800 C799 1.408 . S
C800 H827 0.930 . S
C801 O814 1.281 . S
C801 O815 1.254 . S
C802 O816 1.236 . S
C802 O817 1.266 . S
C803 Tb793 2.809 . S
C803 C804 1.514 . S
C803 O818 1.248 . S
C803 O819 1.266 . S
C804 C803 1.514 . S
C804 C805 1.359 . S
C804 C809 1.348 . S
C805 C804 1.359 . S
C805 C806 1.380 . S
C805 H828 0.929 . S
C806 C805 1.380 . S
C806 C807 1.347 . S
C806 H829 0.931 . S
C807 C806 1.347 . S
C807 C808 1.369 . S
C808 C807 1.369 . S
C808 C809 1.408 . S
C808 H830 0.930 . S
C809 C804 1.348 . S
C809 C808 1.408 . S
C809 H831 0.930 . S
C810 O820 1.281 . S
C810 O821 1.254 . S
C811 O822 1.236 . S
C811 O823 1.266 . S
O812 Tb792 2.484 . S
O812 C794 1.248 . S
O813 Tb792 2.440 . S
O813 C794 1.266 . S
O814 Tb792 2.658 . S
O814 Tb793 2.325 . S
O814 C801 1.281 . S
O815 Tb792 2.409 . S
O815 C801 1.254 . S
O816 Tb792 2.378 . S
O816 C802 1.236 . S
O817 Tb793 2.341 . S
O817 C802 1.266 . S
O818 Tb793 2.484 . S
O818 C803 1.248 . S
O819 Tb793 2.440 . S
O819 C803 1.266 . S
O820 Tb792 2.325 . S
O820 Tb793 2.658 . S
O820 C810 1.281 . S
O821 Tb793 2.409 . S
O821 C810 1.254 . S
O822 Tb793 2.378 . S
O822 C811 1.236 . S
O823 Tb792 2.341 . S
O823 C811 1.266 . S
H824 C796 0.929 . S
H825 C797 0.931 . S
H826 C799 0.930 . S
H827 C800 0.930 . S
H828 C805 0.929 . S
H829 C806 0.931 . S
H830 C808 0.930 . S
H831 C809 0.930 . S
Tb832 C834 2.809 . S
Tb832 O852 2.484 . S
Tb832 O853 2.440 . S
Tb832 O854 2.658 . S
Tb832 O855 2.409 . S
Tb832 O856 2.378 . S
Tb832 O860 2.325 . S
Tb832 O863 2.341 . S
Tb833 C843 2.809 . S
Tb833 O854 2.325 . S
Tb833 O857 2.341 . S
Tb833 O858 2.484 . S
Tb833 O859 2.440 . S
Tb833 O860 2.658 . S
Tb833 O861 2.409 . S
Tb833 O862 2.378 . S
C834 Tb832 2.809 . S
C834 C835 1.514 . S
C834 O852 1.248 . S
C834 O853 1.266 . S
C835 C834 1.514 . S
C835 C836 1.359 . S
C835 C840 1.348 . S
C836 C835 1.359 . S
C836 C837 1.380 . S
C836 H864 0.929 . S
C837 C836 1.380 . S
C837 C838 1.347 . S
C837 H865 0.931 . S
C838 C837 1.347 . S
C838 C839 1.369 . S
C839 C838 1.369 . S
C839 C840 1.408 . S
C839 H866 0.930 . S
C840 C835 1.348 . S
C840 C839 1.408 . S
C840 H867 0.930 . S
C841 O854 1.281 . S
C841 O855 1.254 . S
C842 O856 1.236 . S
C842 O857 1.266 . S
C843 Tb833 2.809 . S
C843 C844 1.514 . S
C843 O858 1.248 . S
C843 O859 1.266 . S
C844 C843 1.514 . S
C844 C845 1.359 . S
C844 C849 1.348 . S
C845 C844 1.359 . S
C845 C846 1.380 . S
C845 H868 0.929 . S
C846 C845 1.380 . S
C846 C847 1.347 . S
C846 H869 0.931 . S
C847 C846 1.347 . S
C847 C848 1.369 . S
C848 C847 1.369 . S
C848 C849 1.408 . S
C848 H870 0.930 . S
C849 C844 1.348 . S
C849 C848 1.408 . S
C849 H871 0.930 . S
C850 O860 1.281 . S
C850 O861 1.254 . S
C851 O862 1.236 . S
C851 O863 1.266 . S
O852 Tb832 2.484 . S
O852 C834 1.248 . S
O853 Tb832 2.440 . S
O853 C834 1.266 . S
O854 Tb832 2.658 . S
O854 Tb833 2.325 . S
O854 C841 1.281 . S
O855 Tb832 2.409 . S
O855 C841 1.254 . S
O856 Tb832 2.378 . S
O856 C842 1.236 . S
O857 Tb833 2.341 . S
O857 C842 1.266 . S
O858 Tb833 2.484 . S
O858 C843 1.248 . S
O859 Tb833 2.440 . S
O859 C843 1.266 . S
O860 Tb832 2.325 . S
O860 Tb833 2.658 . S
O860 C850 1.281 . S
O861 Tb833 2.409 . S
O861 C850 1.254 . S
O862 Tb833 2.378 . S
O862 C851 1.236 . S
O863 Tb832 2.341 . S
O863 C851 1.266 . S
H864 C836 0.929 . S
H865 C837 0.931 . S
H866 C839 0.930 . S
H867 C840 0.930 . S
H868 C845 0.929 . S
H869 C846 0.931 . S
H870 C848 0.930 . S
H871 C849 0.930 . S
Tb872 C874 2.809 . S
Tb872 O892 2.484 . S
Tb872 O893 2.440 . S
Tb872 O894 2.658 . S
Tb872 O895 2.409 . S
Tb872 O896 2.378 . S
Tb872 O900 2.325 . S
Tb872 O903 2.341 . S
Tb873 C883 2.809 . S
Tb873 O894 2.325 . S
Tb873 O897 2.341 . S
Tb873 O898 2.484 . S
Tb873 O899 2.440 . S
Tb873 O900 2.658 . S
Tb873 O901 2.409 . S
Tb873 O902 2.378 . S
C874 Tb872 2.809 . S
C874 C875 1.514 . S
C874 O892 1.248 . S
C874 O893 1.266 . S
C875 C874 1.514 . S
C875 C876 1.359 . S
C875 C880 1.348 . S
C876 C875 1.359 . S
C876 C877 1.380 . S
C876 H904 0.929 . S
C877 C876 1.380 . S
C877 C878 1.347 . S
C877 H905 0.931 . S
C878 C877 1.347 . S
C878 C879 1.369 . S
C879 C878 1.369 . S
C879 C880 1.408 . S
C879 H906 0.930 . S
C880 C875 1.348 . S
C880 C879 1.408 . S
C880 H907 0.930 . S
C881 O894 1.281 . S
C881 O895 1.254 . S
C882 O896 1.236 . S
C882 O897 1.266 . S
C883 Tb873 2.809 . S
C883 C884 1.514 . S
C883 O898 1.248 . S
C883 O899 1.266 . S
C884 C883 1.514 . S
C884 C885 1.359 . S
C884 C889 1.348 . S
C885 C884 1.359 . S
C885 C886 1.380 . S
C885 H908 0.929 . S
C886 C885 1.380 . S
C886 C887 1.347 . S
C886 H909 0.931 . S
C887 C886 1.347 . S
C887 C888 1.369 . S
C888 C887 1.369 . S
C888 C889 1.408 . S
C888 H910 0.930 . S
C889 C884 1.348 . S
C889 C888 1.408 . S
C889 H911 0.930 . S
C890 O900 1.281 . S
C890 O901 1.254 . S
C891 O902 1.236 . S
C891 O903 1.266 . S
O892 Tb872 2.484 . S
O892 C874 1.248 . S
O893 Tb872 2.440 . S
O893 C874 1.266 . S
O894 Tb872 2.658 . S
O894 Tb873 2.325 . S
O894 C881 1.281 . S
O895 Tb872 2.409 . S
O895 C881 1.254 . S
O896 Tb872 2.378 . S
O896 C882 1.236 . S
O897 Tb873 2.341 . S
O897 C882 1.266 . S
O898 Tb873 2.484 . S
O898 C883 1.248 . S
O899 Tb873 2.440 . S
O899 C883 1.266 . S
O900 Tb872 2.325 . S
O900 Tb873 2.658 . S
O900 C890 1.281 . S
O901 Tb873 2.409 . S
O901 C890 1.254 . S
O902 Tb873 2.378 . S
O902 C891 1.236 . S
O903 Tb872 2.341 . S
O903 C891 1.266 . S
H904 C876 0.929 . S
H905 C877 0.931 . S
H906 C879 0.930 . S
H907 C880 0.930 . S
H908 C885 0.929 . S
H909 C886 0.931 . S
H910 C888 0.930 . S
H911 C889 0.930 . S
Tb912 C914 2.809 . S
Tb912 O932 2.484 . S
Tb912 O933 2.440 . S
Tb912 O934 2.658 . S
Tb912 O935 2.409 . S
Tb912 O936 2.378 . S
Tb912 O940 2.325 . S
Tb912 O943 2.341 . S
Tb913 C923 2.809 1_455 S
Tb913 O934 2.325 . S
Tb913 O937 2.341 . S
Tb913 O938 2.484 1_455 S
Tb913 O939 2.440 1_455 S
Tb913 O940 2.658 . S
Tb913 O941 2.409 . S
Tb913 O942 2.378 . S
C914 Tb912 2.809 . S
C914 C915 1.514 . S
C914 O932 1.248 . S
C914 O933 1.266 . S
C915 C914 1.514 . S
C915 C916 1.359 . S
C915 C920 1.348 . S
C916 C915 1.359 . S
C916 C917 1.380 . S
C916 H944 0.929 . S
C917 C916 1.380 . S
C917 C918 1.347 . S
C917 H945 0.931 . S
C918 C917 1.347 . S
C918 C919 1.369 . S
C919 C918 1.369 . S
C919 C920 1.408 . S
C919 H946 0.930 1_554 S
C920 C915 1.348 . S
C920 C919 1.408 . S
C920 H947 0.930 1_554 S
C921 O934 1.281 . S
C921 O935 1.254 . S
C922 O936 1.236 . S
C922 O937 1.266 . S
C923 Tb913 2.809 1_655 S
C923 C924 1.514 . S
C923 O938 1.248 . S
C923 O939 1.266 . S
C924 C923 1.514 . S
C924 C925 1.359 . S
C924 C929 1.348 . S
C925 C924 1.359 . S
C925 C926 1.380 . S
C925 H948 0.929 . S
C926 C925 1.380 . S
C926 C927 1.347 . S
C926 H949 0.931 . S
C927 C926 1.347 . S
C927 C928 1.369 . S
C928 C927 1.369 . S
C928 C929 1.408 . S
C928 H950 0.930 . S
C929 C924 1.348 . S
C929 C928 1.408 . S
C929 H951 0.930 . S
C930 O940 1.281 . S
C930 O941 1.254 . S
C931 O942 1.236 . S
C931 O943 1.266 . S
O932 Tb912 2.484 . S
O932 C914 1.248 . S
O933 Tb912 2.440 . S
O933 C914 1.266 . S
O934 Tb912 2.658 . S
O934 Tb913 2.325 . S
O934 C921 1.281 . S
O935 Tb912 2.409 . S
O935 C921 1.254 . S
O936 Tb912 2.378 . S
O936 C922 1.236 . S
O937 Tb913 2.341 . S
O937 C922 1.266 . S
O938 Tb913 2.484 1_655 S
O938 C923 1.248 . S
O939 Tb913 2.440 1_655 S
O939 C923 1.266 . S
O940 Tb912 2.325 . S
O940 Tb913 2.658 . S
O940 C930 1.281 . S
O941 Tb913 2.409 . S
O941 C930 1.254 . S
O942 Tb913 2.378 . S
O942 C931 1.236 . S
O943 Tb912 2.341 . S
O943 C931 1.266 . S
H944 C916 0.929 . S
H945 C917 0.931 . S
H946 C919 0.930 1_556 S
H947 C920 0.930 1_556 S
H948 C925 0.929 . S
H949 C926 0.931 . S
H950 C928 0.930 . S
H951 C929 0.930 . S
H952 C964 0.930 . S
H953 C966 0.930 1_655 S
H954 C967 0.930 1_655 S
H955 C971 0.959 . S
H956 C971 0.959 . S
H957 C971 0.961 . S
H958 C972 0.960 . S
H959 C972 0.961 . S
H960 C972 0.959 . S
H961 C975 0.929 . S
H962 C976 0.931 . S
H963 C978 0.930 . S
C964 H952 0.930 . S
C964 C965 1.399 1_554 S
C964 C969 1.399 . S
C965 C964 1.399 1_556 S
C965 C966 1.376 . S
C966 H953 0.930 1_455 S
C966 C965 1.376 . S
C966 C967 1.388 . S
C967 H954 0.930 1_455 S
C967 C966 1.388 . S
C967 C968 1.390 1_556 S
C968 C967 1.390 1_554 S
C968 C969 1.394 . S
C968 C974 1.465 . S
C969 C964 1.399 . S
C969 C968 1.394 . S
C969 C970 1.516 . S
C970 C969 1.516 . S
C970 C971 1.502 . S
C970 C972 1.561 . S
C970 C973 1.526 . S
C971 H955 0.959 . S
C971 H956 0.959 . S
C971 H957 0.961 . S
C971 C970 1.502 . S
C972 H958 0.960 . S
C972 H959 0.961 . S
C972 H960 0.959 . S
C972 C970 1.561 . S
C973 C970 1.526 . S
C973 C974 1.396 . S
C973 C978 1.390 . S
C974 C968 1.465 . S
C974 C973 1.396 . S
C974 C975 1.399 . S
C975 H961 0.929 . S
C975 C974 1.399 . S
C975 C976 1.385 . S
C976 H962 0.931 . S
C976 C975 1.385 . S
C976 C977 1.389 . S
C977 C976 1.389 . S
C977 C978 1.387 . S
C978 H963 0.930 . S
C978 C973 1.390 . S
C978 C977 1.387 . S
H979 C991 0.930 . S
H980 C993 0.930 . S
H981 C994 0.930 . S
H982 C998 0.959 . S
H983 C998 0.959 . S
H984 C998 0.961 . S
H985 C999 0.960 . S
H986 C999 0.961 . S
H987 C999 0.959 . S
H988 C1002 0.929 . S
H989 C1003 0.931 . S
H990 C1005 0.930 . S
C991 H979 0.930 . S
C991 C992 1.399 . S
C991 C996 1.399 . S
C992 C991 1.399 . S
C992 C993 1.376 . S
C993 H980 0.930 . S
C993 C992 1.376 . S
C993 C994 1.388 . S
C994 H981 0.930 . S
C994 C993 1.388 . S
C994 C995 1.390 . S
C995 C994 1.390 . S
C995 C996 1.394 . S
C995 C1001 1.465 . S
C996 C991 1.399 . S
C996 C995 1.394 . S
C996 C997 1.516 . S
C997 C996 1.516 . S
C997 C998 1.502 . S
C997 C999 1.561 . S
C997 C1000 1.526 . S
C998 H982 0.959 . S
C998 H983 0.959 . S
C998 H984 0.961 . S
C998 C997 1.502 . S
C999 H985 0.960 . S
C999 H986 0.961 . S
C999 H987 0.959 . S
C999 C997 1.561 . S
C1000 C997 1.526 . S
C1000 C1001 1.396 . S
C1000 C1005 1.390 . S
C1001 C995 1.465 . S
C1001 C1000 1.396 . S
C1001 C1002 1.399 . S
C1002 H988 0.929 . S
C1002 C1001 1.399 . S
C1002 C1003 1.385 . S
C1003 H989 0.931 . S
C1003 C1002 1.385 . S
C1003 C1004 1.389 . S
C1004 C1003 1.389 . S
C1004 C1005 1.387 . S
C1005 H990 0.930 . S
C1005 C1000 1.390 . S
C1005 C1004 1.387 . S
H1006 C1018 0.930 . S
H1007 C1020 0.930 . S
H1008 C1021 0.930 . S
H1009 C1025 0.959 . S
H1010 C1025 0.959 . S
H1011 C1025 0.961 . S
H1012 C1026 0.960 . S
H1013 C1026 0.961 . S
H1014 C1026 0.959 . S
H1015 C1029 0.929 . S
H1016 C1030 0.931 . S
H1017 C1032 0.930 . S
C1018 H1006 0.930 . S
C1018 C1019 1.399 . S
C1018 C1023 1.399 . S
C1019 C1018 1.399 . S
C1019 C1020 1.376 . S
C1020 H1007 0.930 . S
C1020 C1019 1.376 . S
C1020 C1021 1.388 . S
C1021 H1008 0.930 . S
C1021 C1020 1.388 . S
C1021 C1022 1.390 . S
C1022 C1021 1.390 . S
C1022 C1023 1.394 . S
C1022 C1028 1.465 . S
C1023 C1018 1.399 . S
C1023 C1022 1.394 . S
C1023 C1024 1.516 . S
C1024 C1023 1.516 . S
C1024 C1025 1.502 . S
C1024 C1026 1.561 . S
C1024 C1027 1.526 . S
C1025 H1009 0.959 . S
C1025 H1010 0.959 . S
C1025 H1011 0.961 . S
C1025 C1024 1.502 . S
C1026 H1012 0.960 . S
C1026 H1013 0.961 . S
C1026 H1014 0.959 . S
C1026 C1024 1.561 . S
C1027 C1024 1.526 . S
C1027 C1028 1.396 . S
C1027 C1032 1.390 . S
C1028 C1022 1.465 . S
C1028 C1027 1.396 . S
C1028 C1029 1.399 . S
C1029 H1015 0.929 . S
C1029 C1028 1.399 . S
C1029 C1030 1.385 . S
C1030 H1016 0.931 . S
C1030 C1029 1.385 . S
C1030 C1031 1.389 . S
C1031 C1030 1.389 . S
C1031 C1032 1.387 . S
C1032 H1017 0.930 . S
C1032 C1027 1.390 . S
C1032 C1031 1.387 . S
H1033 C1045 0.930 . S
H1034 C1047 0.930 . S
H1035 C1048 0.930 . S
H1036 C1052 0.959 . S
H1037 C1052 0.959 . S
H1038 C1052 0.961 . S
H1039 C1053 0.960 . S
H1040 C1053 0.961 . S
H1041 C1053 0.959 . S
H1042 C1056 0.929 . S
H1043 C1057 0.931 . S
H1044 C1059 0.930 . S
C1045 H1033 0.930 . S
C1045 C1046 1.399 . S
C1045 C1050 1.399 . S
C1046 C1045 1.399 . S
C1046 C1047 1.376 . S
C1047 H1034 0.930 . S
C1047 C1046 1.376 . S
C1047 C1048 1.388 . S
C1048 H1035 0.930 . S
C1048 C1047 1.388 . S
C1048 C1049 1.390 . S
C1049 C1048 1.390 . S
C1049 C1050 1.394 . S
C1049 C1055 1.465 . S
C1050 C1045 1.399 . S
C1050 C1049 1.394 . S
C1050 C1051 1.516 . S
C1051 C1050 1.516 . S
C1051 C1052 1.502 . S
C1051 C1053 1.561 . S
C1051 C1054 1.526 . S
C1052 H1036 0.959 . S
C1052 H1037 0.959 . S
C1052 H1038 0.961 . S
C1052 C1051 1.502 . S
C1053 H1039 0.960 . S
C1053 H1040 0.961 . S
C1053 H1041 0.959 . S
C1053 C1051 1.561 . S
C1054 C1051 1.526 . S
C1054 C1055 1.396 . S
C1054 C1059 1.390 . S
C1055 C1049 1.465 . S
C1055 C1054 1.396 . S
C1055 C1056 1.399 . S
C1056 H1042 0.929 . S
C1056 C1055 1.399 . S
C1056 C1057 1.385 . S
C1057 H1043 0.931 . S
C1057 C1056 1.385 . S
C1057 C1058 1.389 . S
C1058 C1057 1.389 . S
C1058 C1059 1.387 . S
C1059 H1044 0.930 . S
C1059 C1054 1.390 . S
C1059 C1058 1.387 . S
H1060 C1072 0.930 . S
H1061 C1074 0.930 . S
H1062 C1075 0.930 . S
H1063 C1079 0.959 . S
H1064 C1079 0.959 . S
H1065 C1079 0.961 . S
H1066 C1080 0.960 . S
H1067 C1080 0.961 . S
H1068 C1080 0.959 . S
H1069 C1083 0.929 . S
H1070 C1084 0.931 . S
H1071 C1086 0.930 . S
C1072 H1060 0.930 . S
C1072 C1073 1.399 . S
C1072 C1077 1.399 . S
C1073 C1072 1.399 . S
C1073 C1074 1.376 . S
C1074 H1061 0.930 . S
C1074 C1073 1.376 . S
C1074 C1075 1.388 . S
C1075 H1062 0.930 . S
C1075 C1074 1.388 . S
C1075 C1076 1.390 . S
C1076 C1075 1.390 . S
C1076 C1077 1.394 . S
C1076 C1082 1.465 . S
C1077 C1072 1.399 . S
C1077 C1076 1.394 . S
C1077 C1078 1.516 . S
C1078 C1077 1.516 . S
C1078 C1079 1.502 . S
C1078 C1080 1.561 . S
C1078 C1081 1.526 . S
C1079 H1063 0.959 . S
C1079 H1064 0.959 . S
C1079 H1065 0.961 . S
C1079 C1078 1.502 . S
C1080 H1066 0.960 . S
C1080 H1067 0.961 . S
C1080 H1068 0.959 . S
C1080 C1078 1.561 . S
C1081 C1078 1.526 . S
C1081 C1082 1.396 . S
C1081 C1086 1.390 . S
C1082 C1076 1.465 . S
C1082 C1081 1.396 . S
C1082 C1083 1.399 . S
C1083 H1069 0.929 . S
C1083 C1082 1.399 . S
C1083 C1084 1.385 . S
C1084 H1070 0.931 . S
C1084 C1083 1.385 . S
C1084 C1085 1.389 . S
C1085 C1084 1.389 . S
C1085 C1086 1.387 . S
C1086 H1071 0.930 . S
C1086 C1081 1.390 . S
C1086 C1085 1.387 . S
H1087 C1099 0.930 . S
H1088 C1101 0.930 . S
H1089 C1102 0.930 . S
H1090 C1106 0.959 . S
H1091 C1106 0.959 . S
H1092 C1106 0.961 . S
H1093 C1107 0.960 . S
H1094 C1107 0.961 . S
H1095 C1107 0.959 . S
H1096 C1110 0.929 . S
H1097 C1111 0.931 . S
H1098 C1113 0.930 . S
C1099 H1087 0.930 . S
C1099 C1100 1.399 . S
C1099 C1104 1.399 . S
C1100 C1099 1.399 . S
C1100 C1101 1.376 . S
C1101 H1088 0.930 . S
C1101 C1100 1.376 . S
C1101 C1102 1.388 . S
C1102 H1089 0.930 . S
C1102 C1101 1.388 . S
C1102 C1103 1.390 . S
C1103 C1102 1.390 . S
C1103 C1104 1.394 . S
C1103 C1109 1.465 . S
C1104 C1099 1.399 . S
C1104 C1103 1.394 . S
C1104 C1105 1.516 . S
C1105 C1104 1.516 . S
C1105 C1106 1.502 . S
C1105 C1107 1.561 . S
C1105 C1108 1.526 . S
C1106 H1090 0.959 . S
C1106 H1091 0.959 . S
C1106 H1092 0.961 . S
C1106 C1105 1.502 . S
C1107 H1093 0.960 . S
C1107 H1094 0.961 . S
C1107 H1095 0.959 . S
C1107 C1105 1.561 . S
C1108 C1105 1.526 . S
C1108 C1109 1.396 . S
C1108 C1113 1.390 . S
C1109 C1103 1.465 . S
C1109 C1108 1.396 . S
C1109 C1110 1.399 . S
C1110 H1096 0.929 . S
C1110 C1109 1.399 . S
C1110 C1111 1.385 . S
C1111 H1097 0.931 . S
C1111 C1110 1.385 . S
C1111 C1112 1.389 . S
C1112 C1111 1.389 . S
C1112 C1113 1.387 . S
C1113 H1098 0.930 . S
C1113 C1108 1.390 . S
C1113 C1112 1.387 . S
H1114 C1126 0.930 . S
H1115 C1128 0.930 . S
H1116 C1129 0.930 . S
H1117 C1133 0.959 . S
H1118 C1133 0.959 . S
H1119 C1133 0.961 . S
H1120 C1134 0.960 . S
H1121 C1134 0.961 . S
H1122 C1134 0.959 . S
H1123 C1137 0.929 . S
H1124 C1138 0.931 . S
H1125 C1140 0.930 . S
C1126 H1114 0.930 . S
C1126 C1127 1.399 . S
C1126 C1131 1.399 . S
C1127 C1126 1.399 . S
C1127 C1128 1.376 . S
C1128 H1115 0.930 . S
C1128 C1127 1.376 . S
C1128 C1129 1.388 . S
C1129 H1116 0.930 . S
C1129 C1128 1.388 . S
C1129 C1130 1.390 . S
C1130 C1129 1.390 . S
C1130 C1131 1.394 . S
C1130 C1136 1.465 . S
C1131 C1126 1.399 . S
C1131 C1130 1.394 . S
C1131 C1132 1.516 . S
C1132 C1131 1.516 . S
C1132 C1133 1.502 . S
C1132 C1134 1.561 . S
C1132 C1135 1.526 . S
C1133 H1117 0.959 . S
C1133 H1118 0.959 . S
C1133 H1119 0.961 . S
C1133 C1132 1.502 . S
C1134 H1120 0.960 . S
C1134 H1121 0.961 . S
C1134 H1122 0.959 . S
C1134 C1132 1.561 . S
C1135 C1132 1.526 . S
C1135 C1136 1.396 . S
C1135 C1140 1.390 . S
C1136 C1130 1.465 . S
C1136 C1135 1.396 . S
C1136 C1137 1.399 . S
C1137 H1123 0.929 . S
C1137 C1136 1.399 . S
C1137 C1138 1.385 . S
C1138 H1124 0.931 . S
C1138 C1137 1.385 . S
C1138 C1139 1.389 . S
C1139 C1138 1.389 . S
C1139 C1140 1.387 . S
C1140 H1125 0.930 . S
C1140 C1135 1.390 . S
C1140 C1139 1.387 . S
H1141 C1153 0.930 . S
H1142 C1155 0.930 . S
H1143 C1156 0.930 . S
H1144 C1160 0.959 . S
H1145 C1160 0.959 . S
H1146 C1160 0.961 . S
H1147 C1161 0.960 . S
H1148 C1161 0.961 . S
H1149 C1161 0.959 . S
H1150 C1164 0.929 . S
H1151 C1165 0.931 . S
H1152 C1167 0.930 . S
C1153 H1141 0.930 . S
C1153 C1154 1.399 . S
C1153 C1158 1.399 . S
C1154 C1153 1.399 . S
C1154 C1155 1.376 . S
C1155 H1142 0.930 . S
C1155 C1154 1.376 . S
C1155 C1156 1.388 . S
C1156 H1143 0.930 . S
C1156 C1155 1.388 . S
C1156 C1157 1.390 . S
C1157 C1156 1.390 . S
C1157 C1158 1.394 . S
C1157 C1163 1.465 . S
C1158 C1153 1.399 . S
C1158 C1157 1.394 . S
C1158 C1159 1.516 . S
C1159 C1158 1.516 . S
C1159 C1160 1.502 . S
C1159 C1161 1.561 . S
C1159 C1162 1.526 . S
C1160 H1144 0.959 . S
C1160 H1145 0.959 . S
C1160 H1146 0.961 . S
C1160 C1159 1.502 . S
C1161 H1147 0.960 . S
C1161 H1148 0.961 . S
C1161 H1149 0.959 . S
C1161 C1159 1.561 . S
C1162 C1159 1.526 . S
C1162 C1163 1.396 . S
C1162 C1167 1.390 . S
C1163 C1157 1.465 . S
C1163 C1162 1.396 . S
C1163 C1164 1.399 . S
C1164 H1150 0.929 . S
C1164 C1163 1.399 . S
C1164 C1165 1.385 . S
C1165 H1151 0.931 . S
C1165 C1164 1.385 . S
C1165 C1166 1.389 . S
C1166 C1165 1.389 . S
C1166 C1167 1.387 . S
C1167 H1152 0.930 . S
C1167 C1162 1.390 . S
C1167 C1166 1.387 . S
H1168 C1180 0.930 . S
H1169 C1182 0.930 . S
H1170 C1183 0.930 . S
H1171 C1187 0.959 . S
H1172 C1187 0.959 . S
H1173 C1187 0.961 . S
H1174 C1188 0.960 . S
H1175 C1188 0.961 . S
H1176 C1188 0.959 . S
H1177 C1191 0.929 1_565 S
H1178 C1192 0.931 . S
H1179 C1194 0.930 . S
C1180 H1168 0.930 . S
C1180 C1181 1.399 . S
C1180 C1185 1.399 . S
C1181 C1180 1.399 . S
C1181 C1182 1.376 1_545 S
C1182 H1169 0.930 . S
C1182 C1181 1.376 1_565 S
C1182 C1183 1.388 . S
C1183 H1170 0.930 . S
C1183 C1182 1.388 . S
C1183 C1184 1.390 1_565 S
C1184 C1183 1.390 1_545 S
C1184 C1185 1.394 . S
C1184 C1190 1.465 1_655 S
C1185 C1180 1.399 . S
C1185 C1184 1.394 . S
C1185 C1186 1.505 1_655 S
C1186 C1185 1.505 1_455 S
C1186 C1187 1.477 1_455 S
C1186 C1188 1.577 . S
C1186 C1189 1.551 . S
C1187 H1171 0.959 . S
C1187 H1172 0.959 . S
C1187 H1173 0.961 . S
C1187 C1186 1.477 1_655 S
C1188 H1174 0.960 . S
C1188 H1175 0.961 . S
C1188 H1176 0.959 . S
C1188 C1186 1.577 . S
C1189 C1186 1.551 . S
C1189 C1190 1.396 . S
C1189 C1194 1.390 . S
C1190 C1184 1.465 1_455 S
C1190 C1189 1.396 . S
C1190 C1191 1.399 . S
C1191 H1177 0.929 1_545 S
C1191 C1190 1.399 . S
C1191 C1192 1.385 . S
C1192 H1178 0.931 . S
C1192 C1191 1.385 . S
C1192 C1193 1.389 . S
C1193 C1192 1.389 . S
C1193 C1194 1.387 . S
C1194 H1179 0.930 . S
C1194 C1189 1.390 . S
C1194 C1193 1.387 . S
H1195 C1207 0.930 . S
H1196 C1209 0.930 . S
H1197 C1210 0.930 . S
H1198 C1214 0.959 . S
H1199 C1214 0.959 . S
H1200 C1214 0.961 . S
H1201 C1215 0.960 . S
H1202 C1215 0.961 . S
H1203 C1215 0.959 . S
H1204 C1218 0.929 . S
H1205 C1219 0.931 . S
H1206 C1221 0.930 . S
C1207 H1195 0.930 . S
C1207 C1208 1.399 . S
C1207 C1212 1.399 . S
C1208 C1207 1.399 . S
C1208 C1209 1.376 . S
C1209 H1196 0.930 . S
C1209 C1208 1.376 . S
C1209 C1210 1.388 . S
C1210 H1197 0.930 . S
C1210 C1209 1.388 . S
C1210 C1211 1.390 . S
C1211 C1210 1.390 . S
C1211 C1212 1.394 . S
C1211 C1217 1.465 . S
C1212 C1207 1.399 . S
C1212 C1211 1.394 . S
C1212 C1213 1.516 . S
C1213 C1212 1.516 . S
C1213 C1214 1.502 . S
C1213 C1215 1.561 . S
C1213 C1216 1.526 . S
C1214 H1198 0.959 . S
C1214 H1199 0.959 . S
C1214 H1200 0.961 . S
C1214 C1213 1.502 . S
C1215 H1201 0.960 . S
C1215 H1202 0.961 . S
C1215 H1203 0.959 . S
C1215 C1213 1.561 . S
C1216 C1213 1.526 . S
C1216 C1217 1.396 . S
C1216 C1221 1.390 . S
C1217 C1211 1.465 . S
C1217 C1216 1.396 . S
C1217 C1218 1.399 . S
C1218 H1204 0.929 . S
C1218 C1217 1.399 . S
C1218 C1219 1.385 . S
C1219 H1205 0.931 . S
C1219 C1218 1.385 . S
C1219 C1220 1.389 . S
C1220 C1219 1.389 . S
C1220 C1221 1.387 . S
C1221 H1206 0.930 . S
C1221 C1216 1.390 . S
C1221 C1220 1.387 . S
H1222 C1234 0.930 . S
H1223 C1236 0.930 1_565 S
H1224 C1237 0.930 1_565 S
H1225 C1241 0.959 1_565 S
H1226 C1241 0.959 . S
H1227 C1241 0.961 . S
H1228 C1242 0.960 . S
H1229 C1242 0.961 . S
H1230 C1242 0.959 . S
H1231 C1245 0.929 1_565 S
H1232 C1246 0.933 . S
H1233 C1248 0.930 . S
C1234 H1222 0.930 . S
C1234 C1235 1.399 . S
C1234 C1239 1.399 . S
C1235 C1234 1.399 . S
C1235 C1236 1.376 . S
C1236 H1223 0.930 1_545 S
C1236 C1235 1.376 . S
C1236 C1237 1.388 . S
C1237 H1224 0.930 1_545 S
C1237 C1236 1.388 . S
C1237 C1238 1.390 . S
C1238 C1237 1.390 . S
C1238 C1239 1.394 . S
C1238 C1244 1.465 . S
C1239 C1234 1.399 . S
C1239 C1238 1.394 . S
C1239 C1240 1.516 . S
C1240 C1239 1.516 . S
C1240 C1241 1.502 . S
C1240 C1242 1.561 . S
C1240 C1243 1.526 . S
C1241 H1225 0.959 1_545 S
C1241 H1226 0.959 . S
C1241 H1227 0.961 . S
C1241 C1240 1.502 . S
C1242 H1228 0.960 . S
C1242 H1229 0.961 . S
C1242 H1230 0.959 . S
C1242 C1240 1.561 . S
C1243 C1240 1.526 . S
C1243 C1244 1.396 . S
C1243 C1248 1.390 . S
C1244 C1238 1.465 . S
C1244 C1243 1.396 . S
C1244 C1245 1.399 . S
C1245 H1231 0.929 1_545 S
C1245 C1244 1.399 . S
C1245 C1246 1.385 . S
C1246 H1232 0.933 . S
C1246 C1245 1.385 . S
C1246 C1247 1.389 . S
C1247 C1246 1.389 . S
C1247 C1248 1.387 . S
C1248 H1233 0.930 . S
C1248 C1243 1.390 . S
C1248 C1247 1.387 . S
H1249 C1261 0.930 . S
H1250 C1263 0.930 1_554 S
H1251 C1264 0.930 . S
H1252 C1268 0.959 . S
H1253 C1268 0.959 . S
H1254 C1268 0.961 . S
H1255 C1269 0.960 . S
H1256 C1269 0.961 . S
H1257 C1269 0.959 . S
H1258 C1272 0.929 . S
H1259 C1273 0.931 . S
H1260 C1275 0.930 . S
C1261 H1249 0.930 . S
C1261 C1262 1.399 . S
C1261 C1266 1.399 . S
C1262 C1261 1.399 . S
C1262 C1263 1.376 . S
C1263 H1250 0.930 1_556 S
C1263 C1262 1.376 . S
C1263 C1264 1.388 . S
C1264 H1251 0.930 . S
C1264 C1263 1.388 . S
C1264 C1265 1.390 . S
C1265 C1264 1.390 . S
C1265 C1266 1.394 . S
C1265 C1271 1.465 . S
C1266 C1261 1.399 . S
C1266 C1265 1.394 . S
C1266 C1267 1.516 . S
C1267 C1266 1.516 . S
C1267 C1268 1.502 . S
C1267 C1269 1.561 . S
C1267 C1270 1.526 . S
C1268 H1252 0.959 . S
C1268 H1253 0.959 . S
C1268 H1254 0.961 . S
C1268 C1267 1.502 . S
C1269 H1255 0.960 . S
C1269 H1256 0.961 . S
C1269 H1257 0.959 . S
C1269 C1267 1.561 . S
C1270 C1267 1.526 . S
C1270 C1271 1.396 . S
C1270 C1275 1.390 . S
C1271 C1265 1.465 . S
C1271 C1270 1.396 . S
C1271 C1272 1.399 . S
C1272 H1258 0.929 . S
C1272 C1271 1.399 . S
C1272 C1273 1.385 . S
C1273 H1259 0.931 . S
C1273 C1272 1.385 . S
C1273 C1274 1.389 . S
C1274 C1273 1.389 . S
C1274 C1275 1.387 . S
C1275 H1260 0.930 . S
C1275 C1270 1.390 . S
C1275 C1274 1.387 . S
H1276 C1288 0.930 . S
H1277 C1290 0.930 . S
H1278 C1291 0.930 1_455 S
H1279 C1295 0.959 . S
H1280 C1295 0.959 . S
H1281 C1295 0.961 . S
H1282 C1296 0.960 . S
H1283 C1296 0.966 . S
H1284 C1296 0.959 1_455 S
H1285 C1299 0.929 . S
H1286 C1300 0.931 . S
H1287 C1302 0.930 . S
C1288 H1276 0.930 . S
C1288 C1289 1.399 1_565 S
C1288 C1293 1.399 . S
C1289 C1288 1.399 1_545 S
C1289 C1290 1.376 . S
C1290 H1277 0.930 . S
C1290 C1289 1.376 . S
C1290 C1291 1.388 . S
C1291 H1278 0.930 1_655 S
C1291 C1290 1.388 . S
C1291 C1292 1.390 . S
C1292 C1291 1.390 . S
C1292 C1293 1.394 1_545 S
C1292 C1298 1.465 1_655 S
C1293 C1288 1.399 . S
C1293 C1292 1.394 1_565 S
C1293 C1294 1.516 . S
C1294 C1293 1.516 . S
C1294 C1295 1.502 . S
C1294 C1296 1.561 . S
C1294 C1297 1.523 1_665 S
C1295 H1279 0.959 . S
C1295 H1280 0.959 . S
C1295 H1281 0.961 . S
C1295 C1294 1.502 . S
C1296 H1282 0.960 . S
C1296 H1283 0.966 . S
C1296 H1284 0.959 1_655 S
C1296 C1294 1.561 . S
C1297 C1294 1.523 1_445 S
C1297 C1298 1.401 . S
C1297 C1302 1.388 1_545 S
C1298 C1292 1.465 1_455 S
C1298 C1297 1.401 . S
C1298 C1299 1.399 . S
C1299 H1285 0.929 . S
C1299 C1298 1.399 . S
C1299 C1300 1.385 . S
C1300 H1286 0.931 . S
C1300 C1299 1.385 . S
C1300 C1301 1.389 . S
C1301 C1300 1.389 . S
C1301 C1302 1.387 1_545 S
C1302 H1287 0.930 . S
C1302 C1297 1.388 1_565 S
C1302 C1301 1.387 1_565 S
H1303 C1315 0.930 . S
H1304 C1317 0.930 . S
H1305 C1318 0.930 . S
H1306 C1322 0.959 . S
H1307 C1322 0.959 . S
H1308 C1322 0.961 . S
H1309 C1323 0.960 . S
H1310 C1323 0.961 . S
H1311 C1323 0.959 . S
H1312 C1326 0.929 . S
H1313 C1327 0.931 . S
H1314 C1329 0.930 . S
C1315 H1303 0.930 . S
C1315 C1316 1.399 . S
C1315 C1320 1.399 . S
C1316 C1315 1.399 . S
C1316 C1317 1.376 . S
C1317 H1304 0.930 . S
C1317 C1316 1.376 . S
C1317 C1318 1.388 . S
C1318 H1305 0.930 . S
C1318 C1317 1.388 . S
C1318 C1319 1.390 . S
C1319 C1318 1.390 . S
C1319 C1320 1.394 . S
C1319 C1325 1.465 . S
C1320 C1315 1.399 . S
C1320 C1319 1.394 . S
C1320 C1321 1.516 . S
C1321 C1320 1.516 . S
C1321 C1322 1.502 . S
C1321 C1323 1.561 . S
C1321 C1324 1.526 . S
C1322 H1306 0.959 . S
C1322 H1307 0.959 . S
C1322 H1308 0.961 . S
C1322 C1321 1.502 . S
C1323 H1309 0.960 . S
C1323 H1310 0.961 . S
C1323 H1311 0.959 . S
C1323 C1321 1.561 . S
C1324 C1321 1.526 . S
C1324 C1325 1.396 . S
C1324 C1329 1.390 . S
C1325 C1319 1.465 . S
C1325 C1324 1.396 . S
C1325 C1326 1.399 . S
C1326 H1312 0.929 . S
C1326 C1325 1.399 . S
C1326 C1327 1.385 . S
C1327 H1313 0.931 . S
C1327 C1326 1.385 . S
C1327 C1328 1.389 . S
C1328 C1327 1.389 . S
C1328 C1329 1.387 . S
C1329 H1314 0.930 . S
C1329 C1324 1.390 . S
C1329 C1328 1.387 . S
H1330 C1342 0.885 1_565 S
H1331 C1344 0.930 . S
H1332 C1345 0.930 . S
H1333 C1349 0.938 1_545 S
H1334 C1349 0.959 . S
H1335 C1349 0.961 . S
H1336 C1350 0.960 . S
H1337 C1350 0.961 . S
H1338 C1350 0.959 1_545 S
H1339 C1353 0.929 . S
H1340 C1354 0.931 . S
H1341 C1356 0.930 . S
C1342 H1330 0.885 1_545 S
C1342 C1343 1.399 . S
C1342 C1347 1.399 . S
C1343 C1342 1.399 . S
C1343 C1344 1.376 . S
C1344 H1331 0.930 . S
C1344 C1343 1.376 . S
C1344 C1345 1.388 . S
C1345 H1332 0.930 . S
C1345 C1344 1.388 . S
C1345 C1346 1.390 . S
C1346 C1345 1.390 . S
C1346 C1347 1.394 . S
C1346 C1352 1.465 . S
C1347 C1342 1.399 . S
C1347 C1346 1.394 . S
C1347 C1348 1.516 . S
C1348 C1347 1.516 . S
C1348 C1349 1.502 1_545 S
C1348 C1350 1.561 1_545 S
C1348 C1351 1.526 . S
C1349 H1333 0.938 1_565 S
C1349 H1334 0.959 . S
C1349 H1335 0.961 . S
C1349 C1348 1.502 1_565 S
C1350 H1336 0.960 . S
C1350 H1337 0.961 . S
C1350 H1338 0.959 1_565 S
C1350 C1348 1.561 1_565 S
C1351 C1348 1.526 . S
C1351 C1352 1.396 . S
C1351 C1356 1.390 . S
C1352 C1346 1.465 . S
C1352 C1351 1.396 . S
C1352 C1353 1.399 . S
C1353 H1339 0.929 . S
C1353 C1352 1.399 . S
C1353 C1354 1.385 . S
C1354 H1340 0.931 . S
C1354 C1353 1.385 . S
C1354 C1355 1.389 . S
C1355 C1354 1.389 . S
C1355 C1356 1.387 . S
C1356 H1341 0.930 . S
C1356 C1351 1.390 . S
C1356 C1355 1.387 . S
H1357 C1369 0.930 . S
H1358 C1371 0.930 . S
H1359 C1372 0.930 . S
H1360 C1376 0.959 . S
H1361 C1376 0.959 . S
H1362 C1376 0.961 . S
H1363 C1377 0.960 . S
H1364 C1377 0.961 . S
H1365 C1377 0.959 . S
H1366 C1380 0.929 . S
H1367 C1381 0.931 . S
H1368 C1383 0.930 . S
C1369 H1357 0.930 . S
C1369 C1370 1.399 . S
C1369 C1374 1.399 . S
C1370 C1369 1.399 . S
C1370 C1371 1.376 . S
C1371 H1358 0.930 . S
C1371 C1370 1.376 . S
C1371 C1372 1.388 . S
C1372 H1359 0.930 . S
C1372 C1371 1.388 . S
C1372 C1373 1.390 . S
C1373 C1372 1.390 . S
C1373 C1374 1.394 . S
C1373 C1379 1.465 . S
C1374 C1369 1.399 . S
C1374 C1373 1.394 . S
C1374 C1375 1.516 . S
C1375 C1374 1.516 . S
C1375 C1376 1.502 . S
C1375 C1377 1.561 . S
C1375 C1378 1.526 . S
C1376 H1360 0.959 . S
C1376 H1361 0.959 . S
C1376 H1362 0.961 . S
C1376 C1375 1.502 . S
C1377 H1363 0.960 . S
C1377 H1364 0.961 . S
C1377 H1365 0.959 . S
C1377 C1375 1.561 . S
C1378 C1375 1.526 . S
C1378 C1379 1.396 . S
C1378 C1383 1.390 . S
C1379 C1373 1.465 . S
C1379 C1378 1.396 . S
C1379 C1380 1.399 . S
C1380 H1366 0.929 . S
C1380 C1379 1.399 . S
C1380 C1381 1.385 . S
C1381 H1367 0.931 . S
C1381 C1380 1.385 . S
C1381 C1382 1.389 . S
C1382 C1381 1.389 . S
C1382 C1383 1.387 . S
C1383 H1368 0.930 . S
C1383 C1378 1.390 . S
C1383 C1382 1.387 . S
H1384 C1396 0.930 . S
H1385 C1398 0.930 . S
H1386 C1399 0.930 . S
H1387 C1403 0.959 . S
H1388 C1403 0.959 . S
H1389 C1403 0.961 . S
H1390 C1404 0.960 . S
H1391 C1404 0.961 . S
H1392 C1404 0.959 . S
H1393 C1407 0.929 . S
H1394 C1408 0.931 . S
H1395 C1410 0.930 . S
C1396 H1384 0.930 . S
C1396 C1397 1.399 . S
C1396 C1401 1.399 . S
C1397 C1396 1.399 . S
C1397 C1398 1.376 . S
C1398 H1385 0.930 . S
C1398 C1397 1.376 . S
C1398 C1399 1.388 . S
C1399 H1386 0.930 . S
C1399 C1398 1.388 . S
C1399 C1400 1.390 . S
C1400 C1399 1.390 . S
C1400 C1401 1.394 . S
C1400 C1406 1.465 . S
C1401 C1396 1.399 . S
C1401 C1400 1.394 . S
C1401 C1402 1.516 . S
C1402 C1401 1.516 . S
C1402 C1403 1.502 . S
C1402 C1404 1.561 . S
C1402 C1405 1.526 . S
C1403 H1387 0.959 . S
C1403 H1388 0.959 . S
C1403 H1389 0.961 . S
C1403 C1402 1.502 . S
C1404 H1390 0.960 . S
C1404 H1391 0.961 . S
C1404 H1392 0.959 . S
C1404 C1402 1.561 . S
C1405 C1402 1.526 . S
C1405 C1406 1.396 . S
C1405 C1410 1.390 . S
C1406 C1400 1.465 . S
C1406 C1405 1.396 . S
C1406 C1407 1.399 . S
C1407 H1393 0.929 . S
C1407 C1406 1.399 . S
C1407 C1408 1.385 . S
C1408 H1394 0.931 . S
C1408 C1407 1.385 . S
C1408 C1409 1.389 . S
C1409 C1408 1.389 . S
C1409 C1410 1.387 . S
C1410 H1395 0.930 . S
C1410 C1405 1.390 . S
C1410 C1409 1.387 . S
H1411 C1423 0.930 . S
H1412 C1425 0.930 . S
H1413 C1426 0.930 . S
H1414 C1430 0.959 . S
H1415 C1430 0.959 1_556 S
H1416 C1430 0.961 1_556 S
H1417 C1431 0.960 . S
H1418 C1431 0.961 . S
H1419 C1431 0.959 . S
H1420 C1434 0.929 . S
H1421 C1435 0.931 . S
H1422 C1437 0.930 . S
C1423 H1411 0.930 . S
C1423 C1424 1.399 . S
C1423 C1428 1.399 . S
C1424 C1423 1.399 . S
C1424 C1425 1.376 . S
C1425 H1412 0.930 . S
C1425 C1424 1.376 . S
C1425 C1426 1.388 . S
C1426 H1413 0.930 . S
C1426 C1425 1.388 . S
C1426 C1427 1.390 . S
C1427 C1426 1.390 . S
C1427 C1428 1.394 . S
C1427 C1433 1.465 . S
C1428 C1423 1.399 . S
C1428 C1427 1.394 . S
C1428 C1429 1.516 . S
C1429 C1428 1.516 . S
C1429 C1430 1.502 . S
C1429 C1431 1.561 1_554 S
C1429 C1432 1.526 . S
C1430 H1414 0.959 . S
C1430 H1415 0.959 1_554 S
C1430 H1416 0.961 1_554 S
C1430 C1429 1.502 . S
C1431 H1417 0.960 . S
C1431 H1418 0.961 . S
C1431 H1419 0.959 . S
C1431 C1429 1.561 1_556 S
C1432 C1429 1.526 . S
C1432 C1433 1.396 . S
C1432 C1437 1.390 . S
C1433 C1427 1.465 . S
C1433 C1432 1.396 . S
C1433 C1434 1.399 . S
C1434 H1420 0.929 . S
C1434 C1433 1.399 . S
C1434 C1435 1.385 . S
C1435 H1421 0.931 . S
C1435 C1434 1.385 . S
C1435 C1436 1.389 . S
C1436 C1435 1.389 . S
C1436 C1437 1.387 . S
C1437 H1422 0.930 . S
C1437 C1432 1.390 . S
C1437 C1436 1.387 . S
H1438 C1450 0.930 . S
H1439 C1452 0.930 . S
H1440 C1453 0.930 . S
H1441 C1457 0.959 . S
H1442 C1457 0.959 . S
H1443 C1457 0.961 . S
H1444 C1458 0.960 . S
H1445 C1458 0.961 . S
H1446 C1458 0.959 . S
H1447 C1461 0.929 . S
H1448 C1462 0.931 . S
H1449 C1464 0.930 . S
C1450 H1438 0.930 . S
C1450 C1451 1.399 . S
C1450 C1455 1.399 . S
C1451 C1450 1.399 . S
C1451 C1452 1.376 . S
C1452 H1439 0.930 . S
C1452 C1451 1.376 . S
C1452 C1453 1.388 . S
C1453 H1440 0.930 . S
C1453 C1452 1.388 . S
C1453 C1454 1.390 . S
C1454 C1453 1.390 . S
C1454 C1455 1.394 . S
C1454 C1460 1.465 . S
C1455 C1450 1.399 . S
C1455 C1454 1.394 . S
C1455 C1456 1.516 . S
C1456 C1455 1.516 . S
C1456 C1457 1.502 . S
C1456 C1458 1.561 . S
C1456 C1459 1.526 . S
C1457 H1441 0.959 . S
C1457 H1442 0.959 . S
C1457 H1443 0.961 . S
C1457 C1456 1.502 . S
C1458 H1444 0.960 . S
C1458 H1445 0.961 . S
C1458 H1446 0.959 . S
C1458 C1456 1.561 . S
C1459 C1456 1.526 . S
C1459 C1460 1.396 . S
C1459 C1464 1.390 . S
C1460 C1454 1.465 . S
C1460 C1459 1.396 . S
C1460 C1461 1.399 . S
C1461 H1447 0.929 . S
C1461 C1460 1.399 . S
C1461 C1462 1.385 . S
C1462 H1448 0.931 . S
C1462 C1461 1.385 . S
C1462 C1463 1.389 . S
C1463 C1462 1.389 . S
C1463 C1464 1.387 . S
C1464 H1449 0.930 . S
C1464 C1459 1.390 . S
C1464 C1463 1.387 . S
H1465 C1477 0.930 . S
H1466 C1479 0.930 . S
H1467 C1480 0.930 . S
H1468 C1484 0.959 . S
H1469 C1484 0.959 . S
H1470 C1484 0.961 . S
H1471 C1485 0.960 . S
H1472 C1485 0.961 . S
H1473 C1485 0.959 . S
H1474 C1488 0.929 . S
H1475 C1489 0.931 . S
H1476 C1491 0.930 . S
C1477 H1465 0.930 . S
C1477 C1478 1.399 . S
C1477 C1482 1.399 . S
C1478 C1477 1.399 . S
C1478 C1479 1.376 . S
C1479 H1466 0.930 . S
C1479 C1478 1.376 . S
C1479 C1480 1.388 . S
C1480 H1467 0.930 . S
C1480 C1479 1.388 . S
C1480 C1481 1.390 . S
C1481 C1480 1.390 . S
C1481 C1482 1.394 . S
C1481 C1487 1.465 . S
C1482 C1477 1.399 . S
C1482 C1481 1.394 . S
C1482 C1483 1.516 . S
C1483 C1482 1.516 . S
C1483 C1484 1.502 . S
C1483 C1485 1.561 . S
C1483 C1486 1.526 . S
C1484 H1468 0.959 . S
C1484 H1469 0.959 . S
C1484 H1470 0.961 . S
C1484 C1483 1.502 . S
C1485 H1471 0.960 . S
C1485 H1472 0.961 . S
C1485 H1473 0.959 . S
C1485 C1483 1.561 . S
C1486 C1483 1.526 . S
C1486 C1487 1.396 . S
C1486 C1491 1.390 . S
C1487 C1481 1.465 . S
C1487 C1486 1.396 . S
C1487 C1488 1.399 . S
C1488 H1474 0.929 . S
C1488 C1487 1.399 . S
C1488 C1489 1.385 . S
C1489 H1475 0.931 . S
C1489 C1488 1.385 . S
C1489 C1490 1.389 . S
C1490 C1489 1.389 . S
C1490 C1491 1.387 . S
C1491 H1476 0.930 . S
C1491 C1486 1.390 . S
C1491 C1490 1.387 . S
H1492 C1504 0.930 . S
H1493 C1506 0.930 . S
H1494 C1507 0.930 . S
H1495 C1511 0.959 . S
H1496 C1511 0.959 . S
H1497 C1511 0.961 . S
H1498 C1512 0.960 . S
H1499 C1512 0.961 . S
H1500 C1512 0.959 . S
H1501 C1515 0.929 . S
H1502 C1516 0.931 . S
H1503 C1518 0.930 . S
C1504 H1492 0.930 . S
C1504 C1505 1.399 . S
C1504 C1509 1.399 . S
C1505 C1504 1.399 . S
C1505 C1506 1.376 . S
C1506 H1493 0.930 . S
C1506 C1505 1.376 . S
C1506 C1507 1.388 . S
C1507 H1494 0.930 . S
C1507 C1506 1.388 . S
C1507 C1508 1.390 . S
C1508 C1507 1.390 . S
C1508 C1509 1.394 . S
C1508 C1514 1.465 . S
C1509 C1504 1.399 . S
C1509 C1508 1.394 . S
C1509 C1510 1.516 . S
C1510 C1509 1.516 . S
C1510 C1511 1.502 . S
C1510 C1512 1.561 . S
C1510 C1513 1.526 . S
C1511 H1495 0.959 . S
C1511 H1496 0.959 . S
C1511 H1497 0.961 . S
C1511 C1510 1.502 . S
C1512 H1498 0.960 . S
C1512 H1499 0.961 . S
C1512 H1500 0.959 . S
C1512 C1510 1.561 . S
C1513 C1510 1.526 . S
C1513 C1514 1.396 . S
C1513 C1518 1.390 . S
C1514 C1508 1.465 . S
C1514 C1513 1.396 . S
C1514 C1515 1.399 . S
C1515 H1501 0.929 . S
C1515 C1514 1.399 . S
C1515 C1516 1.385 . S
C1516 H1502 0.931 . S
C1516 C1515 1.385 . S
C1516 C1517 1.389 . S
C1517 C1516 1.389 . S
C1517 C1518 1.387 . S
C1518 H1503 0.930 . S
C1518 C1513 1.390 . S
C1518 C1517 1.387 . S
H1519 C1531 0.930 . S
H1520 C1533 0.930 . S
H1521 C1534 0.930 . S
H1522 C1538 0.959 . S
H1523 C1538 0.959 . S
H1524 C1538 0.961 . S
H1525 C1539 0.960 . S
H1526 C1539 0.961 . S
H1527 C1539 0.959 . S
H1528 C1542 0.929 . S
H1529 C1543 0.931 . S
H1530 C1545 0.930 . S
C1531 H1519 0.930 . S
C1531 C1532 1.399 . S
C1531 C1536 1.399 . S
C1532 C1531 1.399 . S
C1532 C1533 1.376 . S
C1533 H1520 0.930 . S
C1533 C1532 1.376 . S
C1533 C1534 1.388 . S
C1534 H1521 0.930 . S
C1534 C1533 1.388 . S
C1534 C1535 1.390 . S
C1535 C1534 1.390 . S
C1535 C1536 1.394 . S
C1535 C1541 1.465 . S
C1536 C1531 1.399 . S
C1536 C1535 1.394 . S
C1536 C1537 1.516 . S
C1537 C1536 1.516 . S
C1537 C1538 1.502 . S
C1537 C1539 1.561 . S
C1537 C1540 1.526 . S
C1538 H1522 0.959 . S
C1538 H1523 0.959 . S
C1538 H1524 0.961 . S
C1538 C1537 1.502 . S
C1539 H1525 0.960 . S
C1539 H1526 0.961 . S
C1539 H1527 0.959 . S
C1539 C1537 1.561 . S
C1540 C1537 1.526 . S
C1540 C1541 1.396 . S
C1540 C1545 1.390 . S
C1541 C1535 1.465 . S
C1541 C1540 1.396 . S
C1541 C1542 1.399 . S
C1542 H1528 0.929 . S
C1542 C1541 1.399 . S
C1542 C1543 1.385 . S
C1543 H1529 0.931 . S
C1543 C1542 1.385 . S
C1543 C1544 1.389 . S
C1544 C1543 1.389 . S
C1544 C1545 1.387 . S
C1545 H1530 0.930 . S
C1545 C1540 1.390 . S
C1545 C1544 1.387 . S
H1546 C1558 0.930 . S
H1547 C1560 0.930 . S
H1548 C1561 0.930 . S
H1549 C1565 0.959 . S
H1550 C1565 0.959 . S
H1551 C1565 0.961 . S
H1552 C1566 0.960 . S
H1553 C1566 0.961 . S
H1554 C1566 0.959 . S
H1555 C1569 0.929 . S
H1556 C1570 0.931 . S
H1557 C1572 0.930 . S
C1558 H1546 0.930 . S
C1558 C1559 1.399 . S
C1558 C1563 1.399 . S
C1559 C1558 1.399 . S
C1559 C1560 1.376 . S
C1560 H1547 0.930 . S
C1560 C1559 1.376 . S
C1560 C1561 1.388 . S
C1561 H1548 0.930 . S
C1561 C1560 1.388 . S
C1561 C1562 1.390 . S
C1562 C1561 1.390 . S
C1562 C1563 1.394 . S
C1562 C1568 1.465 . S
C1563 C1558 1.399 . S
C1563 C1562 1.394 . S
C1563 C1564 1.516 . S
C1564 C1563 1.516 . S
C1564 C1565 1.502 . S
C1564 C1566 1.561 . S
C1564 C1567 1.526 . S
C1565 H1549 0.959 . S
C1565 H1550 0.959 . S
C1565 H1551 0.961 . S
C1565 C1564 1.502 . S
C1566 H1552 0.960 . S
C1566 H1553 0.961 . S
C1566 H1554 0.959 . S
C1566 C1564 1.561 . S
C1567 C1564 1.526 . S
C1567 C1568 1.396 . S
C1567 C1572 1.390 . S
C1568 C1562 1.465 . S
C1568 C1567 1.396 . S
C1568 C1569 1.399 . S
C1569 H1555 0.929 . S
C1569 C1568 1.399 . S
C1569 C1570 1.385 . S
C1570 H1556 0.931 . S
C1570 C1569 1.385 . S
C1570 C1571 1.389 . S
C1571 C1570 1.389 . S
C1571 C1572 1.387 . S
C1572 H1557 0.930 . S
C1572 C1567 1.390 . S
C1572 C1571 1.387 . S
H1573 C1585 0.930 . S
H1574 C1587 0.930 . S
H1575 C1588 0.930 . S
H1576 C1592 0.959 . S
H1577 C1592 0.959 . S
H1578 C1592 0.961 . S
H1579 C1593 0.960 . S
H1580 C1593 0.961 . S
H1581 C1593 0.959 . S
H1582 C1596 0.929 . S
H1583 C1597 0.931 . S
H1584 C1599 0.930 . S
C1585 H1573 0.930 . S
C1585 C1586 1.399 . S
C1585 C1590 1.399 . S
C1586 C1585 1.399 . S
C1586 C1587 1.376 . S
C1587 H1574 0.930 . S
C1587 C1586 1.376 . S
C1587 C1588 1.388 . S
C1588 H1575 0.930 . S
C1588 C1587 1.388 . S
C1588 C1589 1.390 . S
C1589 C1588 1.390 . S
C1589 C1590 1.394 . S
C1589 C1595 1.465 . S
C1590 C1585 1.399 . S
C1590 C1589 1.394 . S
C1590 C1591 1.516 . S
C1591 C1590 1.516 . S
C1591 C1592 1.502 . S
C1591 C1593 1.561 . S
C1591 C1594 1.526 . S
C1592 H1576 0.959 . S
C1592 H1577 0.959 . S
C1592 H1578 0.961 . S
C1592 C1591 1.502 . S
C1593 H1579 0.960 . S
C1593 H1580 0.961 . S
C1593 H1581 0.959 . S
C1593 C1591 1.561 . S
C1594 C1591 1.526 . S
C1594 C1595 1.396 . S
C1594 C1599 1.390 . S
C1595 C1589 1.465 . S
C1595 C1594 1.396 . S
C1595 C1596 1.399 . S
C1596 H1582 0.929 . S
C1596 C1595 1.399 . S
C1596 C1597 1.385 . S
C1597 H1583 0.931 . S
C1597 C1596 1.385 . S
C1597 C1598 1.389 . S
C1598 C1597 1.389 . S
C1598 C1599 1.387 . S
C1599 H1584 0.930 . S
C1599 C1594 1.390 . S
C1599 C1598 1.387 . S
H1600 C1612 0.930 . S
H1601 C1614 0.930 . S
H1602 C1615 0.930 . S
H1603 C1619 0.959 . S
H1604 C1619 0.959 . S
H1605 C1619 0.961 . S
H1606 C1620 0.960 . S
H1607 C1620 0.961 . S
H1608 C1620 0.959 . S
H1609 C1623 0.929 . S
H1610 C1624 0.931 . S
H1611 C1626 0.930 . S
C1612 H1600 0.930 . S
C1612 C1613 1.399 . S
C1612 C1617 1.399 . S
C1613 C1612 1.399 . S
C1613 C1614 1.376 . S
C1614 H1601 0.930 . S
C1614 C1613 1.376 . S
C1614 C1615 1.388 . S
C1615 H1602 0.930 . S
C1615 C1614 1.388 . S
C1615 C1616 1.390 . S
C1616 C1615 1.390 . S
C1616 C1617 1.394 . S
C1616 C1622 1.465 . S
C1617 C1612 1.399 . S
C1617 C1616 1.394 . S
C1617 C1618 1.516 . S
C1618 C1617 1.516 . S
C1618 C1619 1.502 . S
C1618 C1620 1.561 . S
C1618 C1621 1.526 . S
C1619 H1603 0.959 . S
C1619 H1604 0.959 . S
C1619 H1605 0.961 . S
C1619 C1618 1.502 . S
C1620 H1606 0.960 . S
C1620 H1607 0.961 . S
C1620 H1608 0.959 . S
C1620 C1618 1.561 . S
C1621 C1618 1.526 . S
C1621 C1622 1.396 . S
C1621 C1626 1.390 . S
C1622 C1616 1.465 . S
C1622 C1621 1.396 . S
C1622 C1623 1.399 . S
C1623 H1609 0.929 . S
C1623 C1622 1.399 . S
C1623 C1624 1.385 . S
C1624 H1610 0.931 . S
C1624 C1623 1.385 . S
C1624 C1625 1.389 . S
C1625 C1624 1.389 . S
C1625 C1626 1.387 . S
C1626 H1611 0.930 . S
C1626 C1621 1.390 . S
C1626 C1625 1.387 . S
H1627 C1639 0.930 . S
H1628 C1641 0.930 . S
H1629 C1642 0.930 . S
H1630 C1646 0.959 . S
H1631 C1646 0.959 . S
H1632 C1646 0.961 . S
H1633 C1647 0.960 . S
H1634 C1647 0.961 . S
H1635 C1647 0.959 . S
H1636 C1650 0.929 . S
H1637 C1651 0.931 . S
H1638 C1653 0.930 . S
C1639 H1627 0.930 . S
C1639 C1640 1.399 . S
C1639 C1644 1.399 . S
C1640 C1639 1.399 . S
C1640 C1641 1.376 . S
C1641 H1628 0.930 . S
C1641 C1640 1.376 . S
C1641 C1642 1.388 . S
C1642 H1629 0.930 . S
C1642 C1641 1.388 . S
C1642 C1643 1.390 . S
C1643 C1642 1.390 . S
C1643 C1644 1.394 . S
C1643 C1649 1.465 . S
C1644 C1639 1.399 . S
C1644 C1643 1.394 . S
C1644 C1645 1.516 . S
C1645 C1644 1.516 . S
C1645 C1646 1.502 . S
C1645 C1647 1.561 . S
C1645 C1648 1.526 . S
C1646 H1630 0.959 . S
C1646 H1631 0.959 . S
C1646 H1632 0.961 . S
C1646 C1645 1.502 . S
C1647 H1633 0.960 . S
C1647 H1634 0.961 . S
C1647 H1635 0.959 . S
C1647 C1645 1.561 . S
C1648 C1645 1.526 . S
C1648 C1649 1.396 . S
C1648 C1653 1.390 . S
C1649 C1643 1.465 . S
C1649 C1648 1.396 . S
C1649 C1650 1.399 . S
C1650 H1636 0.929 . S
C1650 C1649 1.399 . S
C1650 C1651 1.385 . S
C1651 H1637 0.931 . S
C1651 C1650 1.385 . S
C1651 C1652 1.389 . S
C1652 C1651 1.389 . S
C1652 C1653 1.387 . S
C1653 H1638 0.930 . S
C1653 C1648 1.390 . S
C1653 C1652 1.387 . S
H1654 C1666 0.930 . S
H1655 C1668 0.930 . S
H1656 C1669 0.930 . S
H1657 C1673 0.959 . S
H1658 C1673 0.959 . S
H1659 C1673 0.961 . S
H1660 C1674 0.960 . S
H1661 C1674 0.961 . S
H1662 C1674 0.959 . S
H1663 C1677 0.929 . S
H1664 C1678 0.931 . S
H1665 C1680 0.930 . S
C1666 H1654 0.930 . S
C1666 C1667 1.399 . S
C1666 C1671 1.399 . S
C1667 C1666 1.399 . S
C1667 C1668 1.376 . S
C1668 H1655 0.930 . S
C1668 C1667 1.376 . S
C1668 C1669 1.388 . S
C1669 H1656 0.930 . S
C1669 C1668 1.388 . S
C1669 C1670 1.390 . S
C1670 C1669 1.390 . S
C1670 C1671 1.394 . S
C1670 C1676 1.465 . S
C1671 C1666 1.399 . S
C1671 C1670 1.394 . S
C1671 C1672 1.516 . S
C1672 C1671 1.516 . S
C1672 C1673 1.502 . S
C1672 C1674 1.561 . S
C1672 C1675 1.526 . S
C1673 H1657 0.959 . S
C1673 H1658 0.959 . S
C1673 H1659 0.961 . S
C1673 C1672 1.502 . S
C1674 H1660 0.960 . S
C1674 H1661 0.961 . S
C1674 H1662 0.959 . S
C1674 C1672 1.561 . S
C1675 C1672 1.526 . S
C1675 C1676 1.396 . S
C1675 C1680 1.390 . S
C1676 C1670 1.465 . S
C1676 C1675 1.396 . S
C1676 C1677 1.399 . S
C1677 H1663 0.929 . S
C1677 C1676 1.399 . S
C1677 C1678 1.385 . S
C1678 H1664 0.931 . S
C1678 C1677 1.385 . S
C1678 C1679 1.389 . S
C1679 C1678 1.389 . S
C1679 C1680 1.387 . S
C1680 H1665 0.930 . S
C1680 C1675 1.390 . S
C1680 C1679 1.387 . S
H1681 C1693 0.930 . S
H1682 C1695 0.930 . S
H1683 C1696 0.930 . S
H1684 C1700 0.959 . S
H1685 C1700 0.959 . S
H1686 C1700 0.961 . S
H1687 C1701 0.960 . S
H1688 C1701 0.961 . S
H1689 C1701 0.959 . S
H1690 C1704 0.929 . S
H1691 C1705 0.931 . S
H1692 C1707 0.930 . S
C1693 H1681 0.930 . S
C1693 C1694 1.399 . S
C1693 C1698 1.399 . S
C1694 C1693 1.399 . S
C1694 C1695 1.376 . S
C1695 H1682 0.930 . S
C1695 C1694 1.376 . S
C1695 C1696 1.388 . S
C1696 H1683 0.930 . S
C1696 C1695 1.388 . S
C1696 C1697 1.390 . S
C1697 C1696 1.390 . S
C1697 C1698 1.394 . S
C1697 C1703 1.465 . S
C1698 C1693 1.399 . S
C1698 C1697 1.394 . S
C1698 C1699 1.516 . S
C1699 C1698 1.516 . S
C1699 C1700 1.502 . S
C1699 C1701 1.561 . S
C1699 C1702 1.526 . S
C1700 H1684 0.959 . S
C1700 H1685 0.959 . S
C1700 H1686 0.961 . S
C1700 C1699 1.502 . S
C1701 H1687 0.960 . S
C1701 H1688 0.961 . S
C1701 H1689 0.959 . S
C1701 C1699 1.561 . S
C1702 C1699 1.526 . S
C1702 C1703 1.396 . S
C1702 C1707 1.390 . S
C1703 C1697 1.465 . S
C1703 C1702 1.396 . S
C1703 C1704 1.399 . S
C1704 H1690 0.929 . S
C1704 C1703 1.399 . S
C1704 C1705 1.385 . S
C1705 H1691 0.931 . S
C1705 C1704 1.385 . S
C1705 C1706 1.389 . S
C1706 C1705 1.389 . S
C1706 C1707 1.387 . S
C1707 H1692 0.930 . S
C1707 C1702 1.390 . S
C1707 C1706 1.387 . S
H1708 C1720 0.930 1_655 S
H1709 C1722 0.930 . S
H1710 C1723 0.930 . S
H1711 C1727 0.959 . S
H1712 C1727 0.959 . S
H1713 C1727 0.961 . S
H1714 C1728 0.960 . S
H1715 C1728 0.961 . S
H1716 C1728 0.959 . S
H1717 C1731 0.929 . S
H1718 C1732 0.931 . S
H1719 C1734 0.930 1_655 S
C1720 H1708 0.930 1_455 S
C1720 C1721 1.399 . S
C1720 C1725 1.399 . S
C1721 C1720 1.399 . S
C1721 C1722 1.376 . S
C1722 H1709 0.930 . S
C1722 C1721 1.376 . S
C1722 C1723 1.388 . S
C1723 H1710 0.930 . S
C1723 C1722 1.388 . S
C1723 C1724 1.390 . S
C1724 C1723 1.390 . S
C1724 C1725 1.394 . S
C1724 C1730 1.465 . S
C1725 C1720 1.399 . S
C1725 C1724 1.394 . S
C1725 C1726 1.515 1_455 S
C1726 C1725 1.515 1_655 S
C1726 C1727 1.536 . S
C1726 C1728 1.535 1_655 S
C1726 C1729 1.516 1_655 S
C1727 H1711 0.959 . S
C1727 H1712 0.959 . S
C1727 H1713 0.961 . S
C1727 C1726 1.536 . S
C1728 H1714 0.960 . S
C1728 H1715 0.961 . S
C1728 H1716 0.959 . S
C1728 C1726 1.535 1_455 S
C1729 C1726 1.516 1_455 S
C1729 C1730 1.396 . S
C1729 C1734 1.390 . S
C1730 C1724 1.465 . S
C1730 C1729 1.396 . S
C1730 C1731 1.399 . S
C1731 H1717 0.929 . S
C1731 C1730 1.399 . S
C1731 C1732 1.385 . S
C1732 H1718 0.931 . S
C1732 C1731 1.385 . S
C1732 C1733 1.389 . S
C1733 C1732 1.389 . S
C1733 C1734 1.387 . S
C1734 H1719 0.930 1_455 S
C1734 C1729 1.390 . S
C1734 C1733 1.387 . S
H1735 C1747 0.930 . S
H1736 C1749 0.930 . S
H1737 C1750 0.930 . S
H1738 C1754 0.959 . S
H1739 C1754 0.959 . S
H1740 C1754 0.961 . S
H1741 C1755 0.960 . S
H1742 C1755 0.961 . S
H1743 C1755 0.959 . S
H1744 C1758 0.929 . S
H1745 C1759 0.931 . S
H1746 C1761 0.930 . S
C1747 H1735 0.930 . S
C1747 C1748 1.399 . S
C1747 C1752 1.399 . S
C1748 C1747 1.399 . S
C1748 C1749 1.376 . S
C1749 H1736 0.930 . S
C1749 C1748 1.376 . S
C1749 C1750 1.388 . S
C1750 H1737 0.930 . S
C1750 C1749 1.388 . S
C1750 C1751 1.390 . S
C1751 C1750 1.390 . S
C1751 C1752 1.394 . S
C1751 C1757 1.465 . S
C1752 C1747 1.399 . S
C1752 C1751 1.394 . S
C1752 C1753 1.516 . S
C1753 C1752 1.516 . S
C1753 C1754 1.502 . S
C1753 C1755 1.561 . S
C1753 C1756 1.526 . S
C1754 H1738 0.959 . S
C1754 H1739 0.959 . S
C1754 H1740 0.961 . S
C1754 C1753 1.502 . S
C1755 H1741 0.960 . S
C1755 H1742 0.961 . S
C1755 H1743 0.959 . S
C1755 C1753 1.561 . S
C1756 C1753 1.526 . S
C1756 C1757 1.396 . S
C1756 C1761 1.390 . S
C1757 C1751 1.465 . S
C1757 C1756 1.396 . S
C1757 C1758 1.399 . S
C1758 H1744 0.929 . S
C1758 C1757 1.399 . S
C1758 C1759 1.385 . S
C1759 H1745 0.931 . S
C1759 C1758 1.385 . S
C1759 C1760 1.389 . S
C1760 C1759 1.389 . S
C1760 C1761 1.387 . S
C1761 H1746 0.930 . S
C1761 C1756 1.390 . S
C1761 C1760 1.387 . S
H1762 C1774 0.930 . S
H1763 C1776 0.930 . S
H1764 C1777 0.930 . S
H1765 C1781 0.959 . S
H1766 C1781 0.959 . S
H1767 C1781 0.961 . S
H1768 C1782 0.960 . S
H1769 C1782 0.961 . S
H1770 C1782 0.959 . S
H1771 C1785 0.929 . S
H1772 C1786 0.931 . S
H1773 C1788 0.930 . S
C1774 H1762 0.930 . S
C1774 C1775 1.399 . S
C1774 C1779 1.399 . S
C1775 C1774 1.399 . S
C1775 C1776 1.376 . S
C1776 H1763 0.930 . S
C1776 C1775 1.376 . S
C1776 C1777 1.388 . S
C1777 H1764 0.930 . S
C1777 C1776 1.388 . S
C1777 C1778 1.390 . S
C1778 C1777 1.390 . S
C1778 C1779 1.394 . S
C1778 C1784 1.465 . S
C1779 C1774 1.399 . S
C1779 C1778 1.394 . S
C1779 C1780 1.516 . S
C1780 C1779 1.516 . S
C1780 C1781 1.502 . S
C1780 C1782 1.561 . S
C1780 C1783 1.526 . S
C1781 H1765 0.959 . S
C1781 H1766 0.959 . S
C1781 H1767 0.961 . S
C1781 C1780 1.502 . S
C1782 H1768 0.960 . S
C1782 H1769 0.961 . S
C1782 H1770 0.959 . S
C1782 C1780 1.561 . S
C1783 C1780 1.526 . S
C1783 C1784 1.396 . S
C1783 C1788 1.390 . S
C1784 C1778 1.465 . S
C1784 C1783 1.396 . S
C1784 C1785 1.399 . S
C1785 H1771 0.929 . S
C1785 C1784 1.399 . S
C1785 C1786 1.385 . S
C1786 H1772 0.931 . S
C1786 C1785 1.385 . S
C1786 C1787 1.389 . S
C1787 C1786 1.389 . S
C1787 C1788 1.387 . S
C1788 H1773 0.930 . S
C1788 C1783 1.390 . S
C1788 C1787 1.387 . S
H1789 C1801 0.931 1_455 S
H1790 C1803 0.930 . S
H1791 C1804 0.930 . S
H1792 C1808 0.959 . S
H1793 C1808 0.959 . S
H1794 C1808 0.961 . S
H1795 C1809 0.960 . S
H1796 C1809 0.961 . S
H1797 C1809 0.959 . S
H1798 C1812 0.929 . S
H1799 C1813 0.931 . S
H1800 C1815 0.930 . S
C1801 H1789 0.931 1_655 S
C1801 C1802 1.402 1_655 S
C1801 C1806 1.394 . S
C1802 C1801 1.402 1_455 S
C1802 C1803 1.376 . S
C1803 H1790 0.930 . S
C1803 C1802 1.376 . S
C1803 C1804 1.388 1_455 S
C1804 H1791 0.930 . S
C1804 C1803 1.388 1_655 S
C1804 C1805 1.390 . S
C1805 C1804 1.390 . S
C1805 C1806 1.394 . S
C1805 C1811 1.465 . S
C1806 C1801 1.394 . S
C1806 C1805 1.394 . S
C1806 C1807 1.516 . S
C1807 C1806 1.516 . S
C1807 C1808 1.502 . S
C1807 C1809 1.561 . S
C1807 C1810 1.526 . S
C1808 H1792 0.959 . S
C1808 H1793 0.959 . S
C1808 H1794 0.961 . S
C1808 C1807 1.502 . S
C1809 H1795 0.960 . S
C1809 H1796 0.961 . S
C1809 H1797 0.959 . S
C1809 C1807 1.561 . S
C1810 C1807 1.526 . S
C1810 C1811 1.396 . S
C1810 C1815 1.390 . S
C1811 C1805 1.465 . S
C1811 C1810 1.396 . S
C1811 C1812 1.399 . S
C1812 H1798 0.929 . S
C1812 C1811 1.399 . S
C1812 C1813 1.385 . S
C1813 H1799 0.931 . S
C1813 C1812 1.385 . S
C1813 C1814 1.389 . S
C1814 C1813 1.389 . S
C1814 C1815 1.387 . S
C1815 H1800 0.930 . S
C1815 C1810 1.390 . S
C1815 C1814 1.387 . S
H1816 C1828 0.930 . S
H1817 C1830 0.930 . S
H1818 C1831 0.930 . S
H1819 C1835 0.959 . S
H1820 C1835 0.959 . S
H1821 C1835 0.961 . S
H1822 C1836 0.960 . S
H1823 C1836 0.961 . S
H1824 C1836 0.959 . S
H1825 C1839 0.929 1_565 S
H1826 C1840 0.931 1_565 S
H1827 C1842 0.930 . S
C1828 H1816 0.930 . S
C1828 C1829 1.399 . S
C1828 C1833 1.399 . S
C1829 C1828 1.399 . S
C1829 C1830 1.376 . S
C1830 H1817 0.930 . S
C1830 C1829 1.376 . S
C1830 C1831 1.388 . S
C1831 H1818 0.930 . S
C1831 C1830 1.388 . S
C1831 C1832 1.390 . S
C1832 C1831 1.390 . S
C1832 C1833 1.394 . S
C1832 C1838 1.465 . S
C1833 C1828 1.399 . S
C1833 C1832 1.394 . S
C1833 C1834 1.516 . S
C1834 C1833 1.516 . S
C1834 C1835 1.502 . S
C1834 C1836 1.561 . S
C1834 C1837 1.526 . S
C1835 H1819 0.959 . S
C1835 H1820 0.959 . S
C1835 H1821 0.961 . S
C1835 C1834 1.502 . S
C1836 H1822 0.960 . S
C1836 H1823 0.961 . S
C1836 H1824 0.959 . S
C1836 C1834 1.561 . S
C1837 C1834 1.526 . S
C1837 C1838 1.396 . S
C1837 C1842 1.390 . S
C1838 C1832 1.465 . S
C1838 C1837 1.396 . S
C1838 C1839 1.399 . S
C1839 H1825 0.929 1_545 S
C1839 C1838 1.399 . S
C1839 C1840 1.385 . S
C1840 H1826 0.931 1_545 S
C1840 C1839 1.385 . S
C1840 C1841 1.389 . S
C1841 C1840 1.389 . S
C1841 C1842 1.387 . S
C1842 H1827 0.930 . S
C1842 C1837 1.390 . S
C1842 C1841 1.387 . S
H1843 C1855 0.930 . S
H1844 C1857 0.930 . S
H1845 C1858 0.930 . S
H1846 C1862 0.959 . S
H1847 C1862 0.959 . S
H1848 C1862 0.961 . S
H1849 C1863 0.960 . S
H1850 C1863 0.961 . S
H1851 C1863 0.959 . S
H1852 C1866 0.929 . S
H1853 C1867 0.931 . S
H1854 C1869 0.930 . S
C1855 H1843 0.930 . S
C1855 C1856 1.399 . S
C1855 C1860 1.399 . S
C1856 C1855 1.399 . S
C1856 C1857 1.376 . S
C1857 H1844 0.930 . S
C1857 C1856 1.376 . S
C1857 C1858 1.388 . S
C1858 H1845 0.930 . S
C1858 C1857 1.388 . S
C1858 C1859 1.390 . S
C1859 C1858 1.390 . S
C1859 C1860 1.394 . S
C1859 C1865 1.465 . S
C1860 C1855 1.399 . S
C1860 C1859 1.394 . S
C1860 C1861 1.516 . S
C1861 C1860 1.516 . S
C1861 C1862 1.502 . S
C1861 C1863 1.561 . S
C1861 C1864 1.526 . S
C1862 H1846 0.959 . S
C1862 H1847 0.959 . S
C1862 H1848 0.961 . S
C1862 C1861 1.502 . S
C1863 H1849 0.960 . S
C1863 H1850 0.961 . S
C1863 H1851 0.959 . S
C1863 C1861 1.561 . S
C1864 C1861 1.526 . S
C1864 C1865 1.396 . S
C1864 C1869 1.390 . S
C1865 C1859 1.465 . S
C1865 C1864 1.396 . S
C1865 C1866 1.399 . S
C1866 H1852 0.929 . S
C1866 C1865 1.399 . S
C1866 C1867 1.385 . S
C1867 H1853 0.931 . S
C1867 C1866 1.385 . S
C1867 C1868 1.389 . S
C1868 C1867 1.389 . S
C1868 C1869 1.387 . S
C1869 H1854 0.930 . S
C1869 C1864 1.390 . S
C1869 C1868 1.387 . S
H1870 C1882 0.930 . S
H1871 C1884 0.931 1_565 S
H1872 C1885 0.930 . S
H1873 C1889 0.959 . S
H1874 C1889 0.959 . S
H1875 C1889 0.961 . S
H1876 C1890 0.960 . S
H1877 C1890 0.961 . S
H1878 C1890 0.959 . S
H1879 C1893 0.929 . S
H1880 C1894 0.931 . S
H1881 C1896 0.930 . S
C1882 H1870 0.930 . S
C1882 C1883 1.399 . S
C1882 C1887 1.399 . S
C1883 C1882 1.399 . S
C1883 C1884 1.374 . S
C1884 H1871 0.931 1_545 S
C1884 C1883 1.374 . S
C1884 C1885 1.390 1_545 S
C1885 H1872 0.930 . S
C1885 C1884 1.390 1_565 S
C1885 C1886 1.390 1_565 S
C1886 C1885 1.390 1_545 S
C1886 C1887 1.394 . S
C1886 C1892 1.465 . S
C1887 C1882 1.399 . S
C1887 C1886 1.394 . S
C1887 C1888 1.516 . S
C1888 C1887 1.516 . S
C1888 C1889 1.502 . S
C1888 C1890 1.561 . S
C1888 C1891 1.526 . S
C1889 H1873 0.959 . S
C1889 H1874 0.959 . S
C1889 H1875 0.961 . S
C1889 C1888 1.502 . S
C1890 H1876 0.960 . S
C1890 H1877 0.961 . S
C1890 H1878 0.959 . S
C1890 C1888 1.561 . S
C1891 C1888 1.526 . S
C1891 C1892 1.396 . S
C1891 C1896 1.390 . S
C1892 C1886 1.465 . S
C1892 C1891 1.396 . S
C1892 C1893 1.399 1_545 S
C1893 H1879 0.929 . S
C1893 C1892 1.399 1_565 S
C1893 C1894 1.385 . S
C1894 H1880 0.931 . S
C1894 C1893 1.385 . S
C1894 C1895 1.389 1_565 S
C1895 C1894 1.389 1_545 S
C1895 C1896 1.387 . S
C1896 H1881 0.930 . S
C1896 C1891 1.390 . S
C1896 C1895 1.387 . S
H1897 C1909 0.930 . S
H1898 C1911 0.930 . S
H1899 C1912 0.930 . S
H1900 C1916 0.959 . S
H1901 C1916 0.959 . S
H1902 C1916 0.961 . S
H1903 C1917 0.960 . S
H1904 C1917 0.961 . S
H1905 C1917 0.959 . S
H1906 C1920 0.929 . S
H1907 C1921 0.931 . S
H1908 C1923 0.930 . S
C1909 H1897 0.930 . S
C1909 C1910 1.399 . S
C1909 C1914 1.399 . S
C1910 C1909 1.399 . S
C1910 C1911 1.376 . S
C1911 H1898 0.930 . S
C1911 C1910 1.376 . S
C1911 C1912 1.388 . S
C1912 H1899 0.930 . S
C1912 C1911 1.388 . S
C1912 C1913 1.390 . S
C1913 C1912 1.390 . S
C1913 C1914 1.394 . S
C1913 C1919 1.465 . S
C1914 C1909 1.399 . S
C1914 C1913 1.394 . S
C1914 C1915 1.516 . S
C1915 C1914 1.516 . S
C1915 C1916 1.502 . S
C1915 C1917 1.561 . S
C1915 C1918 1.526 . S
C1916 H1900 0.959 . S
C1916 H1901 0.959 . S
C1916 H1902 0.961 . S
C1916 C1915 1.502 . S
C1917 H1903 0.960 . S
C1917 H1904 0.961 . S
C1917 H1905 0.959 . S
C1917 C1915 1.561 . S
C1918 C1915 1.526 . S
C1918 C1919 1.396 . S
C1918 C1923 1.390 . S
C1919 C1913 1.465 . S
C1919 C1918 1.396 . S
C1919 C1920 1.399 . S
C1920 H1906 0.929 . S
C1920 C1919 1.399 . S
C1920 C1921 1.385 . S
C1921 H1907 0.931 . S
C1921 C1920 1.385 . S
C1921 C1922 1.389 . S
C1922 C1921 1.389 . S
C1922 C1923 1.387 . S
C1923 H1908 0.930 . S
C1923 C1918 1.390 . S
C1923 C1922 1.387 . S
H1924 C1936 0.890 1_565 S
H1925 C1938 0.930 . S
H1926 C1939 0.930 . S
H1927 C1943 0.959 1_545 S
H1928 C1943 0.959 . S
H1929 C1943 0.961 . S
H1930 C1944 0.960 . S
H1931 C1944 0.961 . S
H1932 C1944 0.959 . S
H1933 C1947 0.929 . S
H1934 C1948 0.931 . S
H1935 C1950 0.930 1_565 S
C1936 H1924 0.890 1_545 S
C1936 C1937 1.399 . S
C1936 C1941 1.399 . S
C1937 C1936 1.399 . S
C1937 C1938 1.376 . S
C1938 H1925 0.930 . S
C1938 C1937 1.376 . S
C1938 C1939 1.388 . S
C1939 H1926 0.930 . S
C1939 C1938 1.388 . S
C1939 C1940 1.390 . S
C1940 C1939 1.390 . S
C1940 C1941 1.394 . S
C1940 C1946 1.465 . S
C1941 C1936 1.399 . S
C1941 C1940 1.394 . S
C1941 C1942 1.516 1_545 S
C1942 C1941 1.516 1_565 S
C1942 C1943 1.502 . S
C1942 C1944 1.561 . S
C1942 C1945 1.526 1_565 S
C1943 H1927 0.959 1_565 S
C1943 H1928 0.959 . S
C1943 H1929 0.961 . S
C1943 C1942 1.502 . S
C1944 H1930 0.960 . S
C1944 H1931 0.961 . S
C1944 H1932 0.959 . S
C1944 C1942 1.561 . S
C1945 C1942 1.526 1_545 S
C1945 C1946 1.396 . S
C1945 C1950 1.390 . S
C1946 C1940 1.465 . S
C1946 C1945 1.396 . S
C1946 C1947 1.399 . S
C1947 H1933 0.929 . S
C1947 C1946 1.399 . S
C1947 C1948 1.385 . S
C1948 H1934 0.931 . S
C1948 C1947 1.385 . S
C1948 C1949 1.389 . S
C1949 C1948 1.389 . S
C1949 C1950 1.387 . S
C1950 H1935 0.930 1_545 S
C1950 C1945 1.390 . S
C1950 C1949 1.387 . S
H1951 C1963 0.930 . S
H1952 C1965 0.930 . S
H1953 C1966 0.930 . S
H1954 C1970 0.959 . S
H1955 C1970 0.959 . S
H1956 C1970 0.961 . S
H1957 C1971 0.960 . S
H1958 C1971 0.961 . S
H1959 C1971 0.959 . S
H1960 C1974 0.929 . S
H1961 C1975 0.931 . S
H1962 C1977 0.930 . S
C1963 H1951 0.930 . S
C1963 C1964 1.399 . S
C1963 C1968 1.399 . S
C1964 C1963 1.399 . S
C1964 C1965 1.376 . S
C1965 H1952 0.930 . S
C1965 C1964 1.376 . S
C1965 C1966 1.388 . S
C1966 H1953 0.930 . S
C1966 C1965 1.388 . S
C1966 C1967 1.390 . S
C1967 C1966 1.390 . S
C1967 C1968 1.394 . S
C1967 C1973 1.465 . S
C1968 C1963 1.399 . S
C1968 C1967 1.394 . S
C1968 C1969 1.516 . S
C1969 C1968 1.516 . S
C1969 C1970 1.502 . S
C1969 C1971 1.561 . S
C1969 C1972 1.526 . S
C1970 H1954 0.959 . S
C1970 H1955 0.959 . S
C1970 H1956 0.961 . S
C1970 C1969 1.502 . S
C1971 H1957 0.960 . S
C1971 H1958 0.961 . S
C1971 H1959 0.959 . S
C1971 C1969 1.561 . S
C1972 C1969 1.526 . S
C1972 C1973 1.396 . S
C1972 C1977 1.390 . S
C1973 C1967 1.465 . S
C1973 C1972 1.396 . S
C1973 C1974 1.399 . S
C1974 H1960 0.929 . S
C1974 C1973 1.399 . S
C1974 C1975 1.385 . S
C1975 H1961 0.931 . S
C1975 C1974 1.385 . S
C1975 C1976 1.389 . S
C1976 C1975 1.389 . S
C1976 C1977 1.387 . S
C1977 H1962 0.930 . S
C1977 C1972 1.390 . S
C1977 C1976 1.387 . S
H1978 C1990 0.930 . S
H1979 C1992 0.930 . S
H1980 C1993 0.930 . S
H1981 C1997 0.959 1_545 S
H1982 C1997 0.959 . S
H1983 C1997 0.961 . S
H1984 C1998 0.960 . S
H1985 C1998 0.961 . S
H1986 C1998 0.959 . S
H1987 C2001 0.929 . S
H1988 C2002 0.931 . S
H1989 C2004 0.930 1_565 S
C1990 H1978 0.930 . S
C1990 C1991 1.399 . S
C1990 C1995 1.399 . S
C1991 C1990 1.399 . S
C1991 C1992 1.376 . S
C1992 H1979 0.930 . S
C1992 C1991 1.376 . S
C1992 C1993 1.388 . S
C1993 H1980 0.930 . S
C1993 C1992 1.388 . S
C1993 C1994 1.390 . S
C1994 C1993 1.390 . S
C1994 C1995 1.394 . S
C1994 C2000 1.465 . S
C1995 C1990 1.399 . S
C1995 C1994 1.394 . S
C1995 C1996 1.516 1_545 S
C1996 C1995 1.516 1_565 S
C1996 C1997 1.502 . S
C1996 C1998 1.561 . S
C1996 C1999 1.526 1_565 S
C1997 H1981 0.959 1_565 S
C1997 H1982 0.959 . S
C1997 H1983 0.961 . S
C1997 C1996 1.502 . S
C1998 H1984 0.960 . S
C1998 H1985 0.961 . S
C1998 H1986 0.959 . S
C1998 C1996 1.561 . S
C1999 C1996 1.526 1_545 S
C1999 C2000 1.396 . S
C1999 C2004 1.390 . S
C2000 C1994 1.465 . S
C2000 C1999 1.396 . S
C2000 C2001 1.399 . S
C2001 H1987 0.929 . S
C2001 C2000 1.399 . S
C2001 C2002 1.385 . S
C2002 H1988 0.931 . S
C2002 C2001 1.385 . S
C2002 C2003 1.389 . S
C2003 C2002 1.389 . S
C2003 C2004 1.387 . S
C2004 H1989 0.930 1_545 S
C2004 C1999 1.390 . S
C2004 C2003 1.387 . S
H2005 C2017 0.930 . S
H2006 C2019 0.930 . S
H2007 C2020 0.930 . S
H2008 C2024 0.959 . S
H2009 C2024 0.959 . S
H2010 C2024 0.961 . S
H2011 C2025 0.960 . S
H2012 C2025 0.961 . S
H2013 C2025 0.959 . S
H2014 C2028 0.929 . S
H2015 C2029 0.931 . S
H2016 C2031 0.930 . S
C2017 H2005 0.930 . S
C2017 C2018 1.399 . S
C2017 C2022 1.399 . S
C2018 C2017 1.399 . S
C2018 C2019 1.376 . S
C2019 H2006 0.930 . S
C2019 C2018 1.376 . S
C2019 C2020 1.388 . S
C2020 H2007 0.930 . S
C2020 C2019 1.388 . S
C2020 C2021 1.390 . S
C2021 C2020 1.390 . S
C2021 C2022 1.394 . S
C2021 C2027 1.465 . S
C2022 C2017 1.399 . S
C2022 C2021 1.394 . S
C2022 C2023 1.516 . S
C2023 C2022 1.516 . S
C2023 C2024 1.502 . S
C2023 C2025 1.561 . S
C2023 C2026 1.526 . S
C2024 H2008 0.959 . S
C2024 H2009 0.959 . S
C2024 H2010 0.961 . S
C2024 C2023 1.502 . S
C2025 H2011 0.960 . S
C2025 H2012 0.961 . S
C2025 H2013 0.959 . S
C2025 C2023 1.561 . S
C2026 C2023 1.526 . S
C2026 C2027 1.396 . S
C2026 C2031 1.390 . S
C2027 C2021 1.465 . S
C2027 C2026 1.396 . S
C2027 C2028 1.399 . S
C2028 H2014 0.929 . S
C2028 C2027 1.399 . S
C2028 C2029 1.385 . S
C2029 H2015 0.931 . S
C2029 C2028 1.385 . S
C2029 C2030 1.389 . S
C2030 C2029 1.389 . S
C2030 C2031 1.387 . S
C2031 H2016 0.930 . S
C2031 C2026 1.390 . S
C2031 C2030 1.387 . S
H2032 C2044 0.930 . S
H2033 C2046 0.930 . S
H2034 C2047 0.930 . S
H2035 C2051 0.959 . S
H2036 C2051 0.959 . S
H2037 C2051 0.961 . S
H2038 C2052 0.960 . S
H2039 C2052 0.961 . S
H2040 C2052 0.959 . S
H2041 C2055 0.929 . S
H2042 C2056 0.931 . S
H2043 C2058 0.930 . S
C2044 H2032 0.930 . S
C2044 C2045 1.399 . S
C2044 C2049 1.399 . S
C2045 C2044 1.399 . S
C2045 C2046 1.376 . S
C2046 H2033 0.930 . S
C2046 C2045 1.376 . S
C2046 C2047 1.388 . S
C2047 H2034 0.930 . S
C2047 C2046 1.388 . S
C2047 C2048 1.390 . S
C2048 C2047 1.390 . S
C2048 C2049 1.394 . S
C2048 C2054 1.465 . S
C2049 C2044 1.399 . S
C2049 C2048 1.394 . S
C2049 C2050 1.516 . S
C2050 C2049 1.516 . S
C2050 C2051 1.502 . S
C2050 C2052 1.561 . S
C2050 C2053 1.526 . S
C2051 H2035 0.959 . S
C2051 H2036 0.959 . S
C2051 H2037 0.961 . S
C2051 C2050 1.502 . S
C2052 H2038 0.960 . S
C2052 H2039 0.961 . S
C2052 H2040 0.959 . S
C2052 C2050 1.561 . S
C2053 C2050 1.526 . S
C2053 C2054 1.396 . S
C2053 C2058 1.390 . S
C2054 C2048 1.465 . S
C2054 C2053 1.396 . S
C2054 C2055 1.399 . S
C2055 H2041 0.929 . S
C2055 C2054 1.399 . S
C2055 C2056 1.385 . S
C2056 H2042 0.931 . S
C2056 C2055 1.385 . S
C2056 C2057 1.389 . S
C2057 C2056 1.389 . S
C2057 C2058 1.387 . S
C2058 H2043 0.930 . S
C2058 C2053 1.390 . S
C2058 C2057 1.387 . S
H2059 C2071 0.930 . S
H2060 C2073 0.930 . S
H2061 C2074 0.930 . S
H2062 C2078 0.959 . S
H2063 C2078 0.959 . S
H2064 C2078 0.961 . S
H2065 C2079 0.960 . S
H2066 C2079 0.961 . S
H2067 C2079 0.959 . S
H2068 C2082 0.929 1_556 S
H2069 C2083 0.931 . S
H2070 C2085 0.930 . S
C2071 H2059 0.930 . S
C2071 C2072 1.399 . S
C2071 C2076 1.399 . S
C2072 C2071 1.399 . S
C2072 C2073 1.376 . S
C2073 H2060 0.930 . S
C2073 C2072 1.376 . S
C2073 C2074 1.388 . S
C2074 H2061 0.930 . S
C2074 C2073 1.388 . S
C2074 C2075 1.390 . S
C2075 C2074 1.390 . S
C2075 C2076 1.394 . S
C2075 C2081 1.465 . S
C2076 C2071 1.399 . S
C2076 C2075 1.394 . S
C2076 C2077 1.516 . S
C2077 C2076 1.516 . S
C2077 C2078 1.502 . S
C2077 C2079 1.561 . S
C2077 C2080 1.526 . S
C2078 H2062 0.959 . S
C2078 H2063 0.959 . S
C2078 H2064 0.961 . S
C2078 C2077 1.502 . S
C2079 H2065 0.960 . S
C2079 H2066 0.961 . S
C2079 H2067 0.959 . S
C2079 C2077 1.561 . S
C2080 C2077 1.526 . S
C2080 C2081 1.396 . S
C2080 C2085 1.390 . S
C2081 C2075 1.465 . S
C2081 C2080 1.396 . S
C2081 C2082 1.399 . S
C2082 H2068 0.929 1_554 S
C2082 C2081 1.399 . S
C2082 C2083 1.385 . S
C2083 H2069 0.931 . S
C2083 C2082 1.385 . S
C2083 C2084 1.389 . S
C2084 C2083 1.389 . S
C2084 C2085 1.387 . S
C2085 H2070 0.930 . S
C2085 C2080 1.390 . S
C2085 C2084 1.387 . S
H2086 C2098 0.930 . S
H2087 C2100 0.930 . S
H2088 C2101 0.930 . S
H2089 C2105 0.959 . S
H2090 C2105 0.959 . S
H2091 C2105 0.961 . S
H2092 C2106 0.960 . S
H2093 C2106 0.961 . S
H2094 C2106 0.959 . S
H2095 C2109 0.929 . S
H2096 C2110 0.931 . S
H2097 C2112 0.930 . S
C2098 H2086 0.930 . S
C2098 C2099 1.399 . S
C2098 C2103 1.399 . S
C2099 C2098 1.399 . S
C2099 C2100 1.376 . S
C2100 H2087 0.930 . S
C2100 C2099 1.376 . S
C2100 C2101 1.388 . S
C2101 H2088 0.930 . S
C2101 C2100 1.388 . S
C2101 C2102 1.390 . S
C2102 C2101 1.390 . S
C2102 C2103 1.394 . S
C2102 C2108 1.465 . S
C2103 C2098 1.399 . S
C2103 C2102 1.394 . S
C2103 C2104 1.516 . S
C2104 C2103 1.516 . S
C2104 C2105 1.502 . S
C2104 C2106 1.561 . S
C2104 C2107 1.526 . S
C2105 H2089 0.959 . S
C2105 H2090 0.959 . S
C2105 H2091 0.961 . S
C2105 C2104 1.502 . S
C2106 H2092 0.960 . S
C2106 H2093 0.961 . S
C2106 H2094 0.959 . S
C2106 C2104 1.561 . S
C2107 C2104 1.526 . S
C2107 C2108 1.396 . S
C2107 C2112 1.390 . S
C2108 C2102 1.465 . S
C2108 C2107 1.396 . S
C2108 C2109 1.399 . S
C2109 H2095 0.929 . S
C2109 C2108 1.399 . S
C2109 C2110 1.385 . S
C2110 H2096 0.931 . S
C2110 C2109 1.385 . S
C2110 C2111 1.389 . S
C2111 C2110 1.389 . S
C2111 C2112 1.387 . S
C2112 H2097 0.930 . S
C2112 C2107 1.390 . S
C2112 C2111 1.387 . S
H2113 C2125 0.930 . S
H2114 C2127 0.930 . S
H2115 C2128 0.930 . S
H2116 C2132 0.959 . S
H2117 C2132 0.959 . S
H2118 C2132 0.961 . S
H2119 C2133 0.960 . S
H2120 C2133 0.961 . S
H2121 C2133 0.959 . S
H2122 C2136 0.929 . S
H2123 C2137 0.931 . S
H2124 C2139 0.930 . S
C2125 H2113 0.930 . S
C2125 C2126 1.399 . S
C2125 C2130 1.399 . S
C2126 C2125 1.399 . S
C2126 C2127 1.376 . S
C2127 H2114 0.930 . S
C2127 C2126 1.376 . S
C2127 C2128 1.388 . S
C2128 H2115 0.930 . S
C2128 C2127 1.388 . S
C2128 C2129 1.390 . S
C2129 C2128 1.390 . S
C2129 C2130 1.394 . S
C2129 C2135 1.465 . S
C2130 C2125 1.399 . S
C2130 C2129 1.394 . S
C2130 C2131 1.516 . S
C2131 C2130 1.516 . S
C2131 C2132 1.502 . S
C2131 C2133 1.561 . S
C2131 C2134 1.526 . S
C2132 H2116 0.959 . S
C2132 H2117 0.959 . S
C2132 H2118 0.961 . S
C2132 C2131 1.502 . S
C2133 H2119 0.960 . S
C2133 H2120 0.961 . S
C2133 H2121 0.959 . S
C2133 C2131 1.561 . S
C2134 C2131 1.526 . S
C2134 C2135 1.396 . S
C2134 C2139 1.390 . S
C2135 C2129 1.465 . S
C2135 C2134 1.396 . S
C2135 C2136 1.399 . S
C2136 H2122 0.929 . S
C2136 C2135 1.399 . S
C2136 C2137 1.385 . S
C2137 H2123 0.931 . S
C2137 C2136 1.385 . S
C2137 C2138 1.389 . S
C2138 C2137 1.389 . S
C2138 C2139 1.387 . S
C2139 H2124 0.930 . S
C2139 C2134 1.390 . S
C2139 C2138 1.387 . S
H2140 C2152 0.930 . S
H2141 C2154 0.930 . S
H2142 C2155 0.930 . S
H2143 C2159 0.959 . S
H2144 C2159 0.959 . S
H2145 C2159 0.961 . S
H2146 C2160 0.960 . S
H2147 C2160 0.961 . S
H2148 C2160 0.959 . S
H2149 C2163 0.929 . S
H2150 C2164 0.931 . S
H2151 C2166 0.930 . S
C2152 H2140 0.930 . S
C2152 C2153 1.399 . S
C2152 C2157 1.399 . S
C2153 C2152 1.399 . S
C2153 C2154 1.376 . S
C2154 H2141 0.930 . S
C2154 C2153 1.376 . S
C2154 C2155 1.388 . S
C2155 H2142 0.930 . S
C2155 C2154 1.388 . S
C2155 C2156 1.390 . S
C2156 C2155 1.390 . S
C2156 C2157 1.394 . S
C2156 C2162 1.465 . S
C2157 C2152 1.399 . S
C2157 C2156 1.394 . S
C2157 C2158 1.516 . S
C2158 C2157 1.516 . S
C2158 C2159 1.502 . S
C2158 C2160 1.561 . S
C2158 C2161 1.526 . S
C2159 H2143 0.959 . S
C2159 H2144 0.959 . S
C2159 H2145 0.961 . S
C2159 C2158 1.502 . S
C2160 H2146 0.960 . S
C2160 H2147 0.961 . S
C2160 H2148 0.959 . S
C2160 C2158 1.561 . S
C2161 C2158 1.526 . S
C2161 C2162 1.396 . S
C2161 C2166 1.390 . S
C2162 C2156 1.465 . S
C2162 C2161 1.396 . S
C2162 C2163 1.399 . S
C2163 H2149 0.929 . S
C2163 C2162 1.399 . S
C2163 C2164 1.385 . S
C2164 H2150 0.931 . S
C2164 C2163 1.385 . S
C2164 C2165 1.389 . S
C2165 C2164 1.389 . S
C2165 C2166 1.387 . S
C2166 H2151 0.930 . S
C2166 C2161 1.390 . S
C2166 C2165 1.387 . S
H2167 C2179 0.930 . S
H2168 C2181 0.930 . S
H2169 C2182 0.930 . S
H2170 C2186 0.959 . S
H2171 C2186 0.959 . S
H2172 C2186 0.961 . S
H2173 C2187 0.960 . S
H2174 C2187 0.961 . S
H2175 C2187 0.959 . S
H2176 C2190 0.929 . S
H2177 C2191 0.931 . S
H2178 C2193 0.930 . S
C2179 H2167 0.930 . S
C2179 C2180 1.399 . S
C2179 C2184 1.399 . S
C2180 C2179 1.399 . S
C2180 C2181 1.376 . S
C2181 H2168 0.930 . S
C2181 C2180 1.376 . S
C2181 C2182 1.388 . S
C2182 H2169 0.930 . S
C2182 C2181 1.388 . S
C2182 C2183 1.390 . S
C2183 C2182 1.390 . S
C2183 C2184 1.394 . S
C2183 C2189 1.465 . S
C2184 C2179 1.399 . S
C2184 C2183 1.394 . S
C2184 C2185 1.516 . S
C2185 C2184 1.516 . S
C2185 C2186 1.502 . S
C2185 C2187 1.561 . S
C2185 C2188 1.526 . S
C2186 H2170 0.959 . S
C2186 H2171 0.959 . S
C2186 H2172 0.961 . S
C2186 C2185 1.502 . S
C2187 H2173 0.960 . S
C2187 H2174 0.961 . S
C2187 H2175 0.959 . S
C2187 C2185 1.561 . S
C2188 C2185 1.526 . S
C2188 C2189 1.396 . S
C2188 C2193 1.390 . S
C2189 C2183 1.465 . S
C2189 C2188 1.396 . S
C2189 C2190 1.399 . S
C2190 H2176 0.929 . S
C2190 C2189 1.399 . S
C2190 C2191 1.385 . S
C2191 H2177 0.931 . S
C2191 C2190 1.385 . S
C2191 C2192 1.389 . S
C2192 C2191 1.389 . S
C2192 C2193 1.387 . S
C2193 H2178 0.930 . S
C2193 C2188 1.390 . S
C2193 C2192 1.387 . S
H2194 C2206 0.930 . S
H2195 C2208 0.930 . S
H2196 C2209 0.930 . S
H2197 C2213 0.959 . S
H2198 C2213 0.959 . S
H2199 C2213 0.961 . S
H2200 C2214 0.960 . S
H2201 C2214 0.961 . S
H2202 C2214 0.959 . S
H2203 C2217 0.929 . S
H2204 C2218 0.931 . S
H2205 C2220 0.930 . S
C2206 H2194 0.930 . S
C2206 C2207 1.399 . S
C2206 C2211 1.399 . S
C2207 C2206 1.399 . S
C2207 C2208 1.376 . S
C2208 H2195 0.930 . S
C2208 C2207 1.376 . S
C2208 C2209 1.388 . S
C2209 H2196 0.930 . S
C2209 C2208 1.388 . S
C2209 C2210 1.390 . S
C2210 C2209 1.390 . S
C2210 C2211 1.394 . S
C2210 C2216 1.465 . S
C2211 C2206 1.399 . S
C2211 C2210 1.394 . S
C2211 C2212 1.516 . S
C2212 C2211 1.516 . S
C2212 C2213 1.502 . S
C2212 C2214 1.561 . S
C2212 C2215 1.526 . S
C2213 H2197 0.959 . S
C2213 H2198 0.959 . S
C2213 H2199 0.961 . S
C2213 C2212 1.502 . S
C2214 H2200 0.960 . S
C2214 H2201 0.961 . S
C2214 H2202 0.959 . S
C2214 C2212 1.561 . S
C2215 C2212 1.526 . S
C2215 C2216 1.396 . S
C2215 C2220 1.390 . S
C2216 C2210 1.465 . S
C2216 C2215 1.396 . S
C2216 C2217 1.399 . S
C2217 H2203 0.929 . S
C2217 C2216 1.399 . S
C2217 C2218 1.385 . S
C2218 H2204 0.931 . S
C2218 C2217 1.385 . S
C2218 C2219 1.389 . S
C2219 C2218 1.389 . S
C2219 C2220 1.387 . S
C2220 H2205 0.930 . S
C2220 C2215 1.390 . S
C2220 C2219 1.387 . S
H2221 C2233 0.930 . S
H2222 C2235 0.930 . S
H2223 C2236 0.930 . S
H2224 C2240 0.959 . S
H2225 C2240 0.959 . S
H2226 C2240 0.961 . S
H2227 C2241 0.960 . S
H2228 C2241 0.961 . S
H2229 C2241 0.959 . S
H2230 C2244 0.929 . S
H2231 C2245 0.931 . S
H2232 C2247 0.930 . S
C2233 H2221 0.930 . S
C2233 C2234 1.399 . S
C2233 C2238 1.399 . S
C2234 C2233 1.399 . S
C2234 C2235 1.376 . S
C2235 H2222 0.930 . S
C2235 C2234 1.376 . S
C2235 C2236 1.388 . S
C2236 H2223 0.930 . S
C2236 C2235 1.388 . S
C2236 C2237 1.390 . S
C2237 C2236 1.390 . S
C2237 C2238 1.394 . S
C2237 C2243 1.465 . S
C2238 C2233 1.399 . S
C2238 C2237 1.394 . S
C2238 C2239 1.516 . S
C2239 C2238 1.516 . S
C2239 C2240 1.502 . S
C2239 C2241 1.561 . S
C2239 C2242 1.526 . S
C2240 H2224 0.959 . S
C2240 H2225 0.959 . S
C2240 H2226 0.961 . S
C2240 C2239 1.502 . S
C2241 H2227 0.960 . S
C2241 H2228 0.961 . S
C2241 H2229 0.959 . S
C2241 C2239 1.561 . S
C2242 C2239 1.526 . S
C2242 C2243 1.396 . S
C2242 C2247 1.390 . S
C2243 C2237 1.465 . S
C2243 C2242 1.396 . S
C2243 C2244 1.399 . S
C2244 H2230 0.929 . S
C2244 C2243 1.399 . S
C2244 C2245 1.385 . S
C2245 H2231 0.931 . S
C2245 C2244 1.385 . S
C2245 C2246 1.389 . S
C2246 C2245 1.389 . S
C2246 C2247 1.387 . S
C2247 H2232 0.930 . S
C2247 C2242 1.390 . S
C2247 C2246 1.387 . S
H2248 C2260 0.930 . S
H2249 C2262 0.930 . S
H2250 C2263 0.930 . S
H2251 C2267 0.959 . S
H2252 C2267 0.959 . S
H2253 C2267 0.961 . S
H2254 C2268 0.960 . S
H2255 C2268 0.961 . S
H2256 C2268 0.959 . S
H2257 C2271 0.929 . S
H2258 C2272 0.931 . S
H2259 C2274 0.930 . S
C2260 H2248 0.930 . S
C2260 C2261 1.399 . S
C2260 C2265 1.399 . S
C2261 C2260 1.399 . S
C2261 C2262 1.376 . S
C2262 H2249 0.930 . S
C2262 C2261 1.376 . S
C2262 C2263 1.388 . S
C2263 H2250 0.930 . S
C2263 C2262 1.388 . S
C2263 C2264 1.390 . S
C2264 C2263 1.390 . S
C2264 C2265 1.394 . S
C2264 C2270 1.465 . S
C2265 C2260 1.399 . S
C2265 C2264 1.394 . S
C2265 C2266 1.516 . S
C2266 C2265 1.516 . S
C2266 C2267 1.502 . S
C2266 C2268 1.561 . S
C2266 C2269 1.526 . S
C2267 H2251 0.959 . S
C2267 H2252 0.959 . S
C2267 H2253 0.961 . S
C2267 C2266 1.502 . S
C2268 H2254 0.960 . S
C2268 H2255 0.961 . S
C2268 H2256 0.959 . S
C2268 C2266 1.561 . S
C2269 C2266 1.526 . S
C2269 C2270 1.396 . S
C2269 C2274 1.390 . S
C2270 C2264 1.465 . S
C2270 C2269 1.396 . S
C2270 C2271 1.399 . S
C2271 H2257 0.929 . S
C2271 C2270 1.399 . S
C2271 C2272 1.385 . S
C2272 H2258 0.931 . S
C2272 C2271 1.385 . S
C2272 C2273 1.389 . S
C2273 C2272 1.389 . S
C2273 C2274 1.387 . S
C2274 H2259 0.930 . S
C2274 C2269 1.390 . S
C2274 C2273 1.387 . S
H2275 C2287 0.930 . S
H2276 C2289 0.930 . S
H2277 C2290 0.930 . S
H2278 C2294 0.959 . S
H2279 C2294 0.959 . S
H2280 C2294 0.961 . S
H2281 C2295 0.960 . S
H2282 C2295 0.961 . S
H2283 C2295 0.959 . S
H2284 C2298 0.929 . S
H2285 C2299 0.931 . S
H2286 C2301 0.930 . S
C2287 H2275 0.930 . S
C2287 C2288 1.399 . S
C2287 C2292 1.399 . S
C2288 C2287 1.399 . S
C2288 C2289 1.376 . S
C2289 H2276 0.930 . S
C2289 C2288 1.376 . S
C2289 C2290 1.388 . S
C2290 H2277 0.930 . S
C2290 C2289 1.388 . S
C2290 C2291 1.390 . S
C2291 C2290 1.390 . S
C2291 C2292 1.394 . S
C2291 C2297 1.465 . S
C2292 C2287 1.399 . S
C2292 C2291 1.394 . S
C2292 C2293 1.516 . S
C2293 C2292 1.516 . S
C2293 C2294 1.502 . S
C2293 C2295 1.561 . S
C2293 C2296 1.526 . S
C2294 H2278 0.959 . S
C2294 H2279 0.959 . S
C2294 H2280 0.961 . S
C2294 C2293 1.502 . S
C2295 H2281 0.960 . S
C2295 H2282 0.961 . S
C2295 H2283 0.959 . S
C2295 C2293 1.561 . S
C2296 C2293 1.526 . S
C2296 C2297 1.396 . S
C2296 C2301 1.390 . S
C2297 C2291 1.465 . S
C2297 C2296 1.396 . S
C2297 C2298 1.399 . S
C2298 H2284 0.929 . S
C2298 C2297 1.399 . S
C2298 C2299 1.385 . S
C2299 H2285 0.931 . S
C2299 C2298 1.385 . S
C2299 C2300 1.389 . S
C2300 C2299 1.389 . S
C2300 C2301 1.387 . S
C2301 H2286 0.930 . S
C2301 C2296 1.390 . S
C2301 C2300 1.387 . S
H2302 C2314 0.930 . S
H2303 C2316 0.930 1_554 S
H2304 C2317 0.930 . S
H2305 C2321 0.959 . S
H2306 C2321 0.959 . S
H2307 C2321 0.961 . S
H2308 C2322 0.960 . S
H2309 C2322 0.961 . S
H2310 C2322 0.959 . S
H2311 C2325 0.929 . S
H2312 C2326 0.931 . S
H2313 C2328 0.930 . S
C2314 H2302 0.930 . S
C2314 C2315 1.399 . S
C2314 C2319 1.399 . S
C2315 C2314 1.399 . S
C2315 C2316 1.376 . S
C2316 H2303 0.930 1_556 S
C2316 C2315 1.376 . S
C2316 C2317 1.388 1_556 S
C2317 H2304 0.930 . S
C2317 C2316 1.388 1_554 S
C2317 C2318 1.390 . S
C2318 C2317 1.390 . S
C2318 C2319 1.394 1_554 S
C2318 C2324 1.465 . S
C2319 C2314 1.399 . S
C2319 C2318 1.394 1_556 S
C2319 C2320 1.516 . S
C2320 C2319 1.516 . S
C2320 C2321 1.502 . S
C2320 C2322 1.561 . S
C2320 C2323 1.526 1_556 S
C2321 H2305 0.959 . S
C2321 H2306 0.959 . S
C2321 H2307 0.961 . S
C2321 C2320 1.502 . S
C2322 H2308 0.960 . S
C2322 H2309 0.961 . S
C2322 H2310 0.959 . S
C2322 C2320 1.561 . S
C2323 C2320 1.526 1_554 S
C2323 C2324 1.396 . S
C2323 C2328 1.390 . S
C2324 C2318 1.465 . S
C2324 C2323 1.396 . S
C2324 C2325 1.399 . S
C2325 H2311 0.929 . S
C2325 C2324 1.399 . S
C2325 C2326 1.385 . S
C2326 H2312 0.931 . S
C2326 C2325 1.385 . S
C2326 C2327 1.389 . S
C2327 C2326 1.389 . S
C2327 C2328 1.387 . S
C2328 H2313 0.930 . S
C2328 C2323 1.390 . S
C2328 C2327 1.387 . S
H2329 C2341 0.930 1_455 S
H2330 C2343 0.930 . S
H2331 C2344 0.930 . S
H2332 C2348 0.959 . S
H2333 C2348 0.959 . S
H2334 C2348 0.961 . S
H2335 C2349 0.960 . S
H2336 C2349 0.961 . S
H2337 C2349 0.959 . S
H2338 C2352 0.929 . S
H2339 C2353 0.931 . S
H2340 C2355 0.930 . S
C2341 H2329 0.930 1_655 S
C2341 C2342 1.399 1_655 S
C2341 C2346 1.399 . S
C2342 C2341 1.399 1_455 S
C2342 C2343 1.376 1_455 S
C2343 H2330 0.930 . S
C2343 C2342 1.376 1_655 S
C2343 C2344 1.388 . S
C2344 H2331 0.930 . S
C2344 C2343 1.388 . S
C2344 C2345 1.390 . S
C2345 C2344 1.390 . S
C2345 C2346 1.394 . S
C2345 C2351 1.465 . S
C2346 C2341 1.399 . S
C2346 C2345 1.394 . S
C2346 C2347 1.516 . S
C2347 C2346 1.516 . S
C2347 C2348 1.502 . S
C2347 C2349 1.561 . S
C2347 C2350 1.526 . S
C2348 H2332 0.959 . S
C2348 H2333 0.959 . S
C2348 H2334 0.961 . S
C2348 C2347 1.502 . S
C2349 H2335 0.960 . S
C2349 H2336 0.961 . S
C2349 H2337 0.959 . S
C2349 C2347 1.561 . S
C2350 C2347 1.526 . S
C2350 C2351 1.396 . S
C2350 C2355 1.390 . S
C2351 C2345 1.465 . S
C2351 C2350 1.396 . S
C2351 C2352 1.399 . S
C2352 H2338 0.929 . S
C2352 C2351 1.399 . S
C2352 C2353 1.385 . S
C2353 H2339 0.931 . S
C2353 C2352 1.385 . S
C2353 C2354 1.389 . S
C2354 C2353 1.389 . S
C2354 C2355 1.387 . S
C2355 H2340 0.930 . S
C2355 C2350 1.390 . S
C2355 C2354 1.387 . S
H2356 C2368 0.930 . S
H2357 C2370 0.930 . S
H2358 C2371 0.930 . S
H2359 C2375 0.959 . S
H2360 C2375 0.959 . S
H2361 C2375 0.961 . S
H2362 C2376 0.960 . S
H2363 C2376 0.961 . S
H2364 C2376 0.959 . S
H2365 C2379 0.929 . S
H2366 C2380 0.931 . S
H2367 C2382 0.930 . S
C2368 H2356 0.930 . S
C2368 C2369 1.399 . S
C2368 C2373 1.399 . S
C2369 C2368 1.399 . S
C2369 C2370 1.376 . S
C2370 H2357 0.930 . S
C2370 C2369 1.376 . S
C2370 C2371 1.388 . S
C2371 H2358 0.930 . S
C2371 C2370 1.388 . S
C2371 C2372 1.390 . S
C2372 C2371 1.390 . S
C2372 C2373 1.394 . S
C2372 C2378 1.465 . S
C2373 C2368 1.399 . S
C2373 C2372 1.394 . S
C2373 C2374 1.516 . S
C2374 C2373 1.516 . S
C2374 C2375 1.502 . S
C2374 C2376 1.561 . S
C2374 C2377 1.526 . S
C2375 H2359 0.959 . S
C2375 H2360 0.959 . S
C2375 H2361 0.961 . S
C2375 C2374 1.502 . S
C2376 H2362 0.960 . S
C2376 H2363 0.961 . S
C2376 H2364 0.959 . S
C2376 C2374 1.561 . S
C2377 C2374 1.526 . S
C2377 C2378 1.396 . S
C2377 C2382 1.390 . S
C2378 C2372 1.465 . S
C2378 C2377 1.396 . S
C2378 C2379 1.399 . S
C2379 H2365 0.929 . S
C2379 C2378 1.399 . S
C2379 C2380 1.385 . S
C2380 H2366 0.931 . S
C2380 C2379 1.385 . S
C2380 C2381 1.389 . S
C2381 C2380 1.389 . S
C2381 C2382 1.387 . S
C2382 H2367 0.930 . S
C2382 C2377 1.390 . S
C2382 C2381 1.387 . S
H2383 C2395 0.930 . S
H2384 C2397 0.930 . S
H2385 C2398 0.930 . S
H2386 C2402 0.959 . S
H2387 C2402 0.959 . S
H2388 C2402 0.961 . S
H2389 C2403 0.960 . S
H2390 C2403 0.961 . S
H2391 C2403 0.959 . S
H2392 C2406 0.929 . S
H2393 C2407 0.931 . S
H2394 C2409 0.930 . S
C2395 H2383 0.930 . S
C2395 C2396 1.399 . S
C2395 C2400 1.399 . S
C2396 C2395 1.399 . S
C2396 C2397 1.376 . S
C2397 H2384 0.930 . S
C2397 C2396 1.376 . S
C2397 C2398 1.388 . S
C2398 H2385 0.930 . S
C2398 C2397 1.388 . S
C2398 C2399 1.390 . S
C2399 C2398 1.390 . S
C2399 C2400 1.394 . S
C2399 C2405 1.465 . S
C2400 C2395 1.399 . S
C2400 C2399 1.394 . S
C2400 C2401 1.516 . S
C2401 C2400 1.516 . S
C2401 C2402 1.502 . S
C2401 C2403 1.561 . S
C2401 C2404 1.526 . S
C2402 H2386 0.959 . S
C2402 H2387 0.959 . S
C2402 H2388 0.961 . S
C2402 C2401 1.502 . S
C2403 H2389 0.960 . S
C2403 H2390 0.961 . S
C2403 H2391 0.959 . S
C2403 C2401 1.561 . S
C2404 C2401 1.526 . S
C2404 C2405 1.396 . S
C2404 C2409 1.390 . S
C2405 C2399 1.465 . S
C2405 C2404 1.396 . S
C2405 C2406 1.399 . S
C2406 H2392 0.929 . S
C2406 C2405 1.399 . S
C2406 C2407 1.385 . S
C2407 H2393 0.931 . S
C2407 C2406 1.385 . S
C2407 C2408 1.389 . S
C2408 C2407 1.389 . S
C2408 C2409 1.387 . S
C2409 H2394 0.930 . S
C2409 C2404 1.390 . S
C2409 C2408 1.387 . S
H2410 C2422 0.930 . S
H2411 C2424 0.930 . S
H2412 C2425 0.930 . S
H2413 C2429 0.959 1_655 S
H2414 C2429 0.959 1_655 S
H2415 C2429 0.958 . S
H2416 C2430 0.960 . S
H2417 C2430 0.961 . S
H2418 C2430 0.959 . S
H2419 C2433 0.929 . S
H2420 C2434 0.931 . S
H2421 C2436 0.930 . S
C2422 H2410 0.930 . S
C2422 C2423 1.399 . S
C2422 C2427 1.399 . S
C2423 C2422 1.399 . S
C2423 C2424 1.376 . S
C2424 H2411 0.930 . S
C2424 C2423 1.376 . S
C2424 C2425 1.388 . S
C2425 H2412 0.930 . S
C2425 C2424 1.388 . S
C2425 C2426 1.390 . S
C2426 C2425 1.390 . S
C2426 C2427 1.394 . S
C2426 C2432 1.465 . S
C2427 C2422 1.399 . S
C2427 C2426 1.394 . S
C2427 C2428 1.516 . S
C2428 C2427 1.516 . S
C2428 C2429 1.502 . S
C2428 C2430 1.561 . S
C2428 C2431 1.526 . S
C2429 H2413 0.959 1_455 S
C2429 H2414 0.959 1_455 S
C2429 H2415 0.958 . S
C2429 C2428 1.502 . S
C2430 H2416 0.960 . S
C2430 H2417 0.961 . S
C2430 H2418 0.959 . S
C2430 C2428 1.561 . S
C2431 C2428 1.526 . S
C2431 C2432 1.396 . S
C2431 C2436 1.390 . S
C2432 C2426 1.465 . S
C2432 C2431 1.396 . S
C2432 C2433 1.399 . S
C2433 H2419 0.929 . S
C2433 C2432 1.399 . S
C2433 C2434 1.385 . S
C2434 H2420 0.931 . S
C2434 C2433 1.385 . S
C2434 C2435 1.389 . S
C2435 C2434 1.389 . S
C2435 C2436 1.387 . S
C2436 H2421 0.930 . S
C2436 C2431 1.390 . S
C2436 C2435 1.387 . S
H2437 C2449 0.930 . S
H2438 C2451 0.930 . S
H2439 C2452 0.930 . S
H2440 C2456 0.959 . S
H2441 C2456 0.959 . S
H2442 C2456 0.961 . S
H2443 C2457 0.960 . S
H2444 C2457 0.961 . S
H2445 C2457 0.959 . S
H2446 C2460 0.929 . S
H2447 C2461 0.931 . S
H2448 C2463 0.930 . S
C2449 H2437 0.930 . S
C2449 C2450 1.399 . S
C2449 C2454 1.399 . S
C2450 C2449 1.399 . S
C2450 C2451 1.376 . S
C2451 H2438 0.930 . S
C2451 C2450 1.376 . S
C2451 C2452 1.388 . S
C2452 H2439 0.930 . S
C2452 C2451 1.388 . S
C2452 C2453 1.390 . S
C2453 C2452 1.390 . S
C2453 C2454 1.394 . S
C2453 C2459 1.465 . S
C2454 C2449 1.399 . S
C2454 C2453 1.394 . S
C2454 C2455 1.516 . S
C2455 C2454 1.516 . S
C2455 C2456 1.502 . S
C2455 C2457 1.561 . S
C2455 C2458 1.526 . S
C2456 H2440 0.959 . S
C2456 H2441 0.959 . S
C2456 H2442 0.961 . S
C2456 C2455 1.502 . S
C2457 H2443 0.960 . S
C2457 H2444 0.961 . S
C2457 H2445 0.959 . S
C2457 C2455 1.561 . S
C2458 C2455 1.526 . S
C2458 C2459 1.396 . S
C2458 C2463 1.390 . S
C2459 C2453 1.465 . S
C2459 C2458 1.396 . S
C2459 C2460 1.399 . S
C2460 H2446 0.929 . S
C2460 C2459 1.399 . S
C2460 C2461 1.385 . S
C2461 H2447 0.931 . S
C2461 C2460 1.385 . S
C2461 C2462 1.389 . S
C2462 C2461 1.389 . S
C2462 C2463 1.387 . S
C2463 H2448 0.930 . S
C2463 C2458 1.390 . S
C2463 C2462 1.387 . S
H2464 C2476 0.930 . S
H2465 C2478 0.930 . S
H2466 C2479 0.930 . S
H2467 C2483 0.959 . S
H2468 C2483 0.959 . S
H2469 C2483 0.961 . S
H2470 C2484 0.960 . S
H2471 C2484 0.961 . S
H2472 C2484 0.959 . S
H2473 C2487 0.929 . S
H2474 C2488 0.931 . S
H2475 C2490 0.930 . S
C2476 H2464 0.930 . S
C2476 C2477 1.399 . S
C2476 C2481 1.399 . S
C2477 C2476 1.399 . S
C2477 C2478 1.376 . S
C2478 H2465 0.930 . S
C2478 C2477 1.376 . S
C2478 C2479 1.388 . S
C2479 H2466 0.930 . S
C2479 C2478 1.388 . S
C2479 C2480 1.390 . S
C2480 C2479 1.390 . S
C2480 C2481 1.394 . S
C2480 C2486 1.465 . S
C2481 C2476 1.399 . S
C2481 C2480 1.394 . S
C2481 C2482 1.516 . S
C2482 C2481 1.516 . S
C2482 C2483 1.502 . S
C2482 C2484 1.561 . S
C2482 C2485 1.526 . S
C2483 H2467 0.959 . S
C2483 H2468 0.959 . S
C2483 H2469 0.961 . S
C2483 C2482 1.502 . S
C2484 H2470 0.960 . S
C2484 H2471 0.961 . S
C2484 H2472 0.959 . S
C2484 C2482 1.561 . S
C2485 C2482 1.526 . S
C2485 C2486 1.396 . S
C2485 C2490 1.390 . S
C2486 C2480 1.465 . S
C2486 C2485 1.396 . S
C2486 C2487 1.399 . S
C2487 H2473 0.929 . S
C2487 C2486 1.399 . S
C2487 C2488 1.385 . S
C2488 H2474 0.931 . S
C2488 C2487 1.385 . S
C2488 C2489 1.389 . S
C2489 C2488 1.389 . S
C2489 C2490 1.387 . S
C2490 H2475 0.930 . S
C2490 C2485 1.390 . S
C2490 C2489 1.387 . S
H2491 C2503 0.930 . S
H2492 C2505 0.930 . S
H2493 C2506 0.930 . S
H2494 C2510 0.959 . S
H2495 C2510 0.959 . S
H2496 C2510 0.961 . S
H2497 C2511 0.993 . S
H2498 C2511 0.944 1_556 S
H2499 C2511 0.926 1_556 S
H2500 C2514 0.929 . S
H2501 C2515 0.931 . S
H2502 C2517 0.930 . S
C2503 H2491 0.930 . S
C2503 C2504 1.399 . S
C2503 C2508 1.399 . S
C2504 C2503 1.399 . S
C2504 C2505 1.376 . S
C2505 H2492 0.930 . S
C2505 C2504 1.376 . S
C2505 C2506 1.388 1_554 S
C2506 H2493 0.930 . S
C2506 C2505 1.388 1_556 S
C2506 C2507 1.390 . S
C2507 C2506 1.390 . S
C2507 C2508 1.394 1_556 S
C2507 C2513 1.465 . S
C2508 C2503 1.399 . S
C2508 C2507 1.394 1_554 S
C2508 C2509 1.516 . S
C2509 C2508 1.516 . S
C2509 C2510 1.502 . S
C2509 C2511 1.580 . S
C2509 C2512 1.526 1_554 S
C2510 H2494 0.959 . S
C2510 H2495 0.959 . S
C2510 H2496 0.961 . S
C2510 C2509 1.502 . S
C2511 H2497 0.993 . S
C2511 H2498 0.944 1_554 S
C2511 H2499 0.926 1_554 S
C2511 C2509 1.580 . S
C2512 C2509 1.526 1_556 S
C2512 C2513 1.396 . S
C2512 C2517 1.390 . S
C2513 C2507 1.465 . S
C2513 C2512 1.396 . S
C2513 C2514 1.399 . S
C2514 H2500 0.929 . S
C2514 C2513 1.399 . S
C2514 C2515 1.385 . S
C2515 H2501 0.931 . S
C2515 C2514 1.385 . S
C2515 C2516 1.389 . S
C2516 C2515 1.389 . S
C2516 C2517 1.387 . S
C2517 H2502 0.930 . S
C2517 C2512 1.390 . S
C2517 C2516 1.387 . S
H2518 C2530 0.930 . S
H2519 C2532 0.930 . S
H2520 C2533 0.930 . S
H2521 C2537 0.959 . S
H2522 C2537 0.959 . S
H2523 C2537 0.961 . S
H2524 C2538 0.960 . S
H2525 C2538 0.961 . S
H2526 C2538 0.959 . S
H2527 C2541 0.929 . S
H2528 C2542 0.931 . S
H2529 C2544 0.930 . S
C2530 H2518 0.930 . S
C2530 C2531 1.399 . S
C2530 C2535 1.399 . S
C2531 C2530 1.399 . S
C2531 C2532 1.376 . S
C2532 H2519 0.930 . S
C2532 C2531 1.376 . S
C2532 C2533 1.388 . S
C2533 H2520 0.930 . S
C2533 C2532 1.388 . S
C2533 C2534 1.390 . S
C2534 C2533 1.390 . S
C2534 C2535 1.394 . S
C2534 C2540 1.465 . S
C2535 C2530 1.399 . S
C2535 C2534 1.394 . S
C2535 C2536 1.516 . S
C2536 C2535 1.516 . S
C2536 C2537 1.502 . S
C2536 C2538 1.561 . S
C2536 C2539 1.526 . S
C2537 H2521 0.959 . S
C2537 H2522 0.959 . S
C2537 H2523 0.961 . S
C2537 C2536 1.502 . S
C2538 H2524 0.960 . S
C2538 H2525 0.961 . S
C2538 H2526 0.959 . S
C2538 C2536 1.561 . S
C2539 C2536 1.526 . S
C2539 C2540 1.396 . S
C2539 C2544 1.390 . S
C2540 C2534 1.465 . S
C2540 C2539 1.396 . S
C2540 C2541 1.399 . S
C2541 H2527 0.929 . S
C2541 C2540 1.399 . S
C2541 C2542 1.385 . S
C2542 H2528 0.931 . S
C2542 C2541 1.385 . S
C2542 C2543 1.389 . S
C2543 C2542 1.389 . S
C2543 C2544 1.387 . S
C2544 H2529 0.930 . S
C2544 C2539 1.390 . S
C2544 C2543 1.387 . S
H2545 C2557 0.930 . S
H2546 C2559 0.930 . S
H2547 C2560 0.930 . S
H2548 C2564 0.959 . S
H2549 C2564 0.959 . S
H2550 C2564 0.961 . S
H2551 C2565 0.960 . S
H2552 C2565 0.961 . S
H2553 C2565 0.959 . S
H2554 C2568 0.929 . S
H2555 C2569 0.931 . S
H2556 C2571 0.930 . S
C2557 H2545 0.930 . S
C2557 C2558 1.399 . S
C2557 C2562 1.399 . S
C2558 C2557 1.399 . S
C2558 C2559 1.376 . S
C2559 H2546 0.930 . S
C2559 C2558 1.376 . S
C2559 C2560 1.388 . S
C2560 H2547 0.930 . S
C2560 C2559 1.388 . S
C2560 C2561 1.390 . S
C2561 C2560 1.390 . S
C2561 C2562 1.394 . S
C2561 C2567 1.465 . S
C2562 C2557 1.399 . S
C2562 C2561 1.394 . S
C2562 C2563 1.516 . S
C2563 C2562 1.516 . S
C2563 C2564 1.502 . S
C2563 C2565 1.561 . S
C2563 C2566 1.526 . S
C2564 H2548 0.959 . S
C2564 H2549 0.959 . S
C2564 H2550 0.961 . S
C2564 C2563 1.502 . S
C2565 H2551 0.960 . S
C2565 H2552 0.961 . S
C2565 H2553 0.959 . S
C2565 C2563 1.561 . S
C2566 C2563 1.526 . S
C2566 C2567 1.396 . S
C2566 C2571 1.390 . S
C2567 C2561 1.465 . S
C2567 C2566 1.396 . S
C2567 C2568 1.399 . S
C2568 H2554 0.929 . S
C2568 C2567 1.399 . S
C2568 C2569 1.385 . S
C2569 H2555 0.931 . S
C2569 C2568 1.385 . S
C2569 C2570 1.389 . S
C2570 C2569 1.389 . S
C2570 C2571 1.387 . S
C2571 H2556 0.930 . S
C2571 C2566 1.390 . S
C2571 C2570 1.387 . S
H2572 C2584 0.930 . S
H2573 C2586 0.930 . S
H2574 C2587 0.930 . S
H2575 C2591 0.959 . S
H2576 C2591 0.959 . S
H2577 C2591 0.961 . S
H2578 C2592 0.960 . S
H2579 C2592 0.961 . S
H2580 C2592 0.959 . S
H2581 C2595 0.929 . S
H2582 C2596 0.931 . S
H2583 C2598 0.930 . S
C2584 H2572 0.930 . S
C2584 C2585 1.399 . S
C2584 C2589 1.399 . S
C2585 C2584 1.399 . S
C2585 C2586 1.376 . S
C2586 H2573 0.930 . S
C2586 C2585 1.376 . S
C2586 C2587 1.388 . S
C2587 H2574 0.930 . S
C2587 C2586 1.388 . S
C2587 C2588 1.390 . S
C2588 C2587 1.390 . S
C2588 C2589 1.394 . S
C2588 C2594 1.465 . S
C2589 C2584 1.399 . S
C2589 C2588 1.394 . S
C2589 C2590 1.516 . S
C2590 C2589 1.516 . S
C2590 C2591 1.502 . S
C2590 C2592 1.561 . S
C2590 C2593 1.526 . S
C2591 H2575 0.959 . S
C2591 H2576 0.959 . S
C2591 H2577 0.961 . S
C2591 C2590 1.502 . S
C2592 H2578 0.960 . S
C2592 H2579 0.961 . S
C2592 H2580 0.959 . S
C2592 C2590 1.561 . S
C2593 C2590 1.526 . S
C2593 C2594 1.396 . S
C2593 C2598 1.390 . S
C2594 C2588 1.465 . S
C2594 C2593 1.396 . S
C2594 C2595 1.399 . S
C2595 H2581 0.929 . S
C2595 C2594 1.399 . S
C2595 C2596 1.385 . S
C2596 H2582 0.931 . S
C2596 C2595 1.385 . S
C2596 C2597 1.389 . S
C2597 C2596 1.389 . S
C2597 C2598 1.387 . S
C2598 H2583 0.930 . S
C2598 C2593 1.390 . S
C2598 C2597 1.387 . S
H2599 C2611 0.930 . S
H2600 C2613 0.930 . S
H2601 C2614 0.930 . S
H2602 C2618 0.959 . S
H2603 C2618 0.959 . S
H2604 C2618 0.961 . S
H2605 C2619 0.960 . S
H2606 C2619 0.961 . S
H2607 C2619 0.959 . S
H2608 C2622 0.929 . S
H2609 C2623 0.931 . S
H2610 C2625 0.930 . S
C2611 H2599 0.930 . S
C2611 C2612 1.399 . S
C2611 C2616 1.399 . S
C2612 C2611 1.399 . S
C2612 C2613 1.376 . S
C2613 H2600 0.930 . S
C2613 C2612 1.376 . S
C2613 C2614 1.388 . S
C2614 H2601 0.930 . S
C2614 C2613 1.388 . S
C2614 C2615 1.390 . S
C2615 C2614 1.390 . S
C2615 C2616 1.394 . S
C2615 C2621 1.465 . S
C2616 C2611 1.399 . S
C2616 C2615 1.394 . S
C2616 C2617 1.516 . S
C2617 C2616 1.516 . S
C2617 C2618 1.502 . S
C2617 C2619 1.561 . S
C2617 C2620 1.526 . S
C2618 H2602 0.959 . S
C2618 H2603 0.959 . S
C2618 H2604 0.961 . S
C2618 C2617 1.502 . S
C2619 H2605 0.960 . S
C2619 H2606 0.961 . S
C2619 H2607 0.959 . S
C2619 C2617 1.561 . S
C2620 C2617 1.526 . S
C2620 C2621 1.396 . S
C2620 C2625 1.390 . S
C2621 C2615 1.465 . S
C2621 C2620 1.396 . S
C2621 C2622 1.399 . S
C2622 H2608 0.929 . S
C2622 C2621 1.399 . S
C2622 C2623 1.385 . S
C2623 H2609 0.931 . S
C2623 C2622 1.385 . S
C2623 C2624 1.389 . S
C2624 C2623 1.389 . S
C2624 C2625 1.387 . S
C2625 H2610 0.930 . S
C2625 C2620 1.390 . S
C2625 C2624 1.387 . S
H2626 C2638 0.930 . S
H2627 C2640 0.930 . S
H2628 C2641 0.930 . S
H2629 C2645 0.959 . S
H2630 C2645 0.959 . S
H2631 C2645 0.961 . S
H2632 C2646 0.960 . S
H2633 C2646 0.961 . S
H2634 C2646 0.959 . S
H2635 C2649 0.929 . S
H2636 C2650 0.931 . S
H2637 C2652 0.930 . S
C2638 H2626 0.930 . S
C2638 C2639 1.399 . S
C2638 C2643 1.399 . S
C2639 C2638 1.399 . S
C2639 C2640 1.376 . S
C2640 H2627 0.930 . S
C2640 C2639 1.376 . S
C2640 C2641 1.388 . S
C2641 H2628 0.930 . S
C2641 C2640 1.388 . S
C2641 C2642 1.390 . S
C2642 C2641 1.390 . S
C2642 C2643 1.394 . S
C2642 C2648 1.465 . S
C2643 C2638 1.399 . S
C2643 C2642 1.394 . S
C2643 C2644 1.516 . S
C2644 C2643 1.516 . S
C2644 C2645 1.502 . S
C2644 C2646 1.561 . S
C2644 C2647 1.526 . S
C2645 H2629 0.959 . S
C2645 H2630 0.959 . S
C2645 H2631 0.961 . S
C2645 C2644 1.502 . S
C2646 H2632 0.960 . S
C2646 H2633 0.961 . S
C2646 H2634 0.959 . S
C2646 C2644 1.561 . S
C2647 C2644 1.526 . S
C2647 C2648 1.396 . S
C2647 C2652 1.390 . S
C2648 C2642 1.465 . S
C2648 C2647 1.396 . S
C2648 C2649 1.399 . S
C2649 H2635 0.929 . S
C2649 C2648 1.399 . S
C2649 C2650 1.385 . S
C2650 H2636 0.931 . S
C2650 C2649 1.385 . S
C2650 C2651 1.389 . S
C2651 C2650 1.389 . S
C2651 C2652 1.387 . S
C2652 H2637 0.930 . S
C2652 C2647 1.390 . S
C2652 C2651 1.387 . S
H2653 C2665 0.930 . S
H2654 C2667 0.930 . S
H2655 C2668 0.930 . S
H2656 C2672 0.959 . S
H2657 C2672 0.959 . S
H2658 C2672 0.961 . S
H2659 C2673 0.960 . S
H2660 C2673 0.961 . S
H2661 C2673 0.959 . S
H2662 C2676 0.929 . S
H2663 C2677 0.931 . S
H2664 C2679 0.930 . S
C2665 H2653 0.930 . S
C2665 C2666 1.399 . S
C2665 C2670 1.399 . S
C2666 C2665 1.399 . S
C2666 C2667 1.376 . S
C2667 H2654 0.930 . S
C2667 C2666 1.376 . S
C2667 C2668 1.388 . S
C2668 H2655 0.930 . S
C2668 C2667 1.388 . S
C2668 C2669 1.390 . S
C2669 C2668 1.390 . S
C2669 C2670 1.394 . S
C2669 C2675 1.465 . S
C2670 C2665 1.399 . S
C2670 C2669 1.394 . S
C2670 C2671 1.516 . S
C2671 C2670 1.516 . S
C2671 C2672 1.502 . S
C2671 C2673 1.561 . S
C2671 C2674 1.526 . S
C2672 H2656 0.959 . S
C2672 H2657 0.959 . S
C2672 H2658 0.961 . S
C2672 C2671 1.502 . S
C2673 H2659 0.960 . S
C2673 H2660 0.961 . S
C2673 H2661 0.959 . S
C2673 C2671 1.561 . S
C2674 C2671 1.526 . S
C2674 C2675 1.396 . S
C2674 C2679 1.390 . S
C2675 C2669 1.465 . S
C2675 C2674 1.396 . S
C2675 C2676 1.399 . S
C2676 H2662 0.929 . S
C2676 C2675 1.399 . S
C2676 C2677 1.385 . S
C2677 H2663 0.931 . S
C2677 C2676 1.385 . S
C2677 C2678 1.389 . S
C2678 C2677 1.389 . S
C2678 C2679 1.387 . S
C2679 H2664 0.930 . S
C2679 C2674 1.390 . S
C2679 C2678 1.387 . S
H2680 C2692 0.930 . S
H2681 C2694 0.930 . S
H2682 C2695 0.930 . S
H2683 C2699 0.959 . S
H2684 C2699 0.959 . S
H2685 C2699 0.961 . S
H2686 C2700 0.960 . S
H2687 C2700 0.961 . S
H2688 C2700 0.959 . S
H2689 C2703 0.929 . S
H2690 C2704 0.931 . S
H2691 C2706 0.930 . S
C2692 H2680 0.930 . S
C2692 C2693 1.399 . S
C2692 C2697 1.399 . S
C2693 C2692 1.399 . S
C2693 C2694 1.376 . S
C2694 H2681 0.930 . S
C2694 C2693 1.376 . S
C2694 C2695 1.388 . S
C2695 H2682 0.930 . S
C2695 C2694 1.388 . S
C2695 C2696 1.390 . S
C2696 C2695 1.390 . S
C2696 C2697 1.394 . S
C2696 C2702 1.465 . S
C2697 C2692 1.399 . S
C2697 C2696 1.394 . S
C2697 C2698 1.516 . S
C2698 C2697 1.516 . S
C2698 C2699 1.502 . S
C2698 C2700 1.561 . S
C2698 C2701 1.526 . S
C2699 H2683 0.959 . S
C2699 H2684 0.959 . S
C2699 H2685 0.961 . S
C2699 C2698 1.502 . S
C2700 H2686 0.960 . S
C2700 H2687 0.961 . S
C2700 H2688 0.959 . S
C2700 C2698 1.561 . S
C2701 C2698 1.526 . S
C2701 C2702 1.396 . S
C2701 C2706 1.390 . S
C2702 C2696 1.465 . S
C2702 C2701 1.396 . S
C2702 C2703 1.399 . S
C2703 H2689 0.929 . S
C2703 C2702 1.399 . S
C2703 C2704 1.385 . S
C2704 H2690 0.931 . S
C2704 C2703 1.385 . S
C2704 C2705 1.389 . S
C2705 C2704 1.389 . S
C2705 C2706 1.387 . S
C2706 H2691 0.930 . S
C2706 C2701 1.390 . S
C2706 C2705 1.387 . S
H2707 C2719 0.930 . S
H2708 C2721 0.930 . S
H2709 C2722 0.930 . S
H2710 C2726 0.959 . S
H2711 C2726 0.959 . S
H2712 C2726 0.961 . S
H2713 C2727 0.960 . S
H2714 C2727 0.961 . S
H2715 C2727 0.959 . S
H2716 C2730 0.929 . S
H2717 C2731 0.931 . S
H2718 C2733 0.930 . S
C2719 H2707 0.930 . S
C2719 C2720 1.399 . S
C2719 C2724 1.399 . S
C2720 C2719 1.399 . S
C2720 C2721 1.376 . S
C2721 H2708 0.930 . S
C2721 C2720 1.376 . S
C2721 C2722 1.388 . S
C2722 H2709 0.930 . S
C2722 C2721 1.388 . S
C2722 C2723 1.390 . S
C2723 C2722 1.390 . S
C2723 C2724 1.394 . S
C2723 C2729 1.465 . S
C2724 C2719 1.399 . S
C2724 C2723 1.394 . S
C2724 C2725 1.516 . S
C2725 C2724 1.516 . S
C2725 C2726 1.502 . S
C2725 C2727 1.561 . S
C2725 C2728 1.526 . S
C2726 H2710 0.959 . S
C2726 H2711 0.959 . S
C2726 H2712 0.961 . S
C2726 C2725 1.502 . S
C2727 H2713 0.960 . S
C2727 H2714 0.961 . S
C2727 H2715 0.959 . S
C2727 C2725 1.561 . S
C2728 C2725 1.526 . S
C2728 C2729 1.396 . S
C2728 C2733 1.390 . S
C2729 C2723 1.465 . S
C2729 C2728 1.396 . S
C2729 C2730 1.399 . S
C2730 H2716 0.929 . S
C2730 C2729 1.399 . S
C2730 C2731 1.385 . S
C2731 H2717 0.931 . S
C2731 C2730 1.385 . S
C2731 C2732 1.389 . S
C2732 C2731 1.389 . S
C2732 C2733 1.387 . S
C2733 H2718 0.930 . S
C2733 C2728 1.390 . S
C2733 C2732 1.387 . S
H2734 C2746 0.930 . S
H2735 C2748 0.930 . S
H2736 C2749 0.930 . S
H2737 C2753 0.959 . S
H2738 C2753 0.959 . S
H2739 C2753 0.961 . S
H2740 C2754 0.960 . S
H2741 C2754 0.961 . S
H2742 C2754 0.959 . S
H2743 C2757 0.929 . S
H2744 C2758 0.931 . S
H2745 C2760 0.930 . S
C2746 H2734 0.930 . S
C2746 C2747 1.399 . S
C2746 C2751 1.399 . S
C2747 C2746 1.399 . S
C2747 C2748 1.376 . S
C2748 H2735 0.930 . S
C2748 C2747 1.376 . S
C2748 C2749 1.388 . S
C2749 H2736 0.930 . S
C2749 C2748 1.388 . S
C2749 C2750 1.390 . S
C2750 C2749 1.390 . S
C2750 C2751 1.394 . S
C2750 C2756 1.465 . S
C2751 C2746 1.399 . S
C2751 C2750 1.394 . S
C2751 C2752 1.516 . S
C2752 C2751 1.516 . S
C2752 C2753 1.502 . S
C2752 C2754 1.561 . S
C2752 C2755 1.526 . S
C2753 H2737 0.959 . S
C2753 H2738 0.959 . S
C2753 H2739 0.961 . S
C2753 C2752 1.502 . S
C2754 H2740 0.960 . S
C2754 H2741 0.961 . S
C2754 H2742 0.959 . S
C2754 C2752 1.561 . S
C2755 C2752 1.526 . S
C2755 C2756 1.396 . S
C2755 C2760 1.390 . S
C2756 C2750 1.465 . S
C2756 C2755 1.396 . S
C2756 C2757 1.399 . S
C2757 H2743 0.929 . S
C2757 C2756 1.399 . S
C2757 C2758 1.385 . S
C2758 H2744 0.931 . S
C2758 C2757 1.385 . S
C2758 C2759 1.389 . S
C2759 C2758 1.389 . S
C2759 C2760 1.387 . S
C2760 H2745 0.930 . S
C2760 C2755 1.390 . S
C2760 C2759 1.387 . S
H2761 C2773 0.930 . S
H2762 C2775 0.930 . S
H2763 C2776 0.930 . S
H2764 C2780 0.959 . S
H2765 C2780 0.959 . S
H2766 C2780 0.961 . S
H2767 C2781 0.960 . S
H2768 C2781 0.961 . S
H2769 C2781 0.959 . S
H2770 C2784 0.929 . S
H2771 C2785 0.931 . S
H2772 C2787 0.930 . S
C2773 H2761 0.930 . S
C2773 C2774 1.399 1_556 S
C2773 C2778 1.399 . S
C2774 C2773 1.399 1_554 S
C2774 C2775 1.376 . S
C2775 H2762 0.930 . S
C2775 C2774 1.376 . S
C2775 C2776 1.388 . S
C2776 H2763 0.930 . S
C2776 C2775 1.388 . S
C2776 C2777 1.390 . S
C2777 C2776 1.390 . S
C2777 C2778 1.394 1_554 S
C2777 C2783 1.465 . S
C2778 C2773 1.399 . S
C2778 C2777 1.394 1_556 S
C2778 C2779 1.516 . S
C2779 C2778 1.516 . S
C2779 C2780 1.502 . S
C2779 C2781 1.561 . S
C2779 C2782 1.526 . S
C2780 H2764 0.959 . S
C2780 H2765 0.959 . S
C2780 H2766 0.961 . S
C2780 C2779 1.502 . S
C2781 H2767 0.960 . S
C2781 H2768 0.961 . S
C2781 H2769 0.959 . S
C2781 C2779 1.561 . S
C2782 C2779 1.526 . S
C2782 C2783 1.396 1_556 S
C2782 C2787 1.390 . S
C2783 C2777 1.465 . S
C2783 C2782 1.396 1_554 S
C2783 C2784 1.399 . S
C2784 H2770 0.929 . S
C2784 C2783 1.399 . S
C2784 C2785 1.385 . S
C2785 H2771 0.931 . S
C2785 C2784 1.385 . S
C2785 C2786 1.389 . S
C2786 C2785 1.389 . S
C2786 C2787 1.387 1_554 S
C2787 H2772 0.930 . S
C2787 C2782 1.390 . S
C2787 C2786 1.387 1_556 S
H2788 C2800 0.930 . S
H2789 C2802 0.930 . S
H2790 C2803 0.930 . S
H2791 C2807 0.959 . S
H2792 C2807 0.959 . S
H2793 C2807 0.961 . S
H2794 C2808 0.960 . S
H2795 C2808 0.961 . S
H2796 C2808 0.959 . S
H2797 C2811 0.929 . S
H2798 C2812 0.931 . S
H2799 C2814 0.930 . S
C2800 H2788 0.930 . S
C2800 C2801 1.399 . S
C2800 C2805 1.399 . S
C2801 C2800 1.399 . S
C2801 C2802 1.376 . S
C2802 H2789 0.930 . S
C2802 C2801 1.376 . S
C2802 C2803 1.388 . S
C2803 H2790 0.930 . S
C2803 C2802 1.388 . S
C2803 C2804 1.390 . S
C2804 C2803 1.390 . S
C2804 C2805 1.394 . S
C2804 C2810 1.465 . S
C2805 C2800 1.399 . S
C2805 C2804 1.394 . S
C2805 C2806 1.516 . S
C2806 C2805 1.516 . S
C2806 C2807 1.502 . S
C2806 C2808 1.561 . S
C2806 C2809 1.526 . S
C2807 H2791 0.959 . S
C2807 H2792 0.959 . S
C2807 H2793 0.961 . S
C2807 C2806 1.502 . S
C2808 H2794 0.960 . S
C2808 H2795 0.961 . S
C2808 H2796 0.959 . S
C2808 C2806 1.561 . S
C2809 C2806 1.526 . S
C2809 C2810 1.396 . S
C2809 C2814 1.390 . S
C2810 C2804 1.465 . S
C2810 C2809 1.396 . S
C2810 C2811 1.399 . S
C2811 H2797 0.929 . S
C2811 C2810 1.399 . S
C2811 C2812 1.385 . S
C2812 H2798 0.931 . S
C2812 C2811 1.385 . S
C2812 C2813 1.389 . S
C2813 C2812 1.389 . S
C2813 C2814 1.387 . S
C2814 H2799 0.930 . S
C2814 C2809 1.390 . S
C2814 C2813 1.387 . S
H2815 C2827 0.930 . S
H2816 C2829 0.930 . S
H2817 C2830 0.930 . S
H2818 C2834 0.959 . S
H2819 C2834 0.959 . S
H2820 C2834 0.961 . S
H2821 C2835 0.960 . S
H2822 C2835 0.961 . S
H2823 C2835 0.959 . S
H2824 C2838 0.929 . S
H2825 C2839 0.931 . S
H2826 C2841 0.930 . S
C2827 H2815 0.930 . S
C2827 C2828 1.399 . S
C2827 C2832 1.399 . S
C2828 C2827 1.399 . S
C2828 C2829 1.376 . S
C2829 H2816 0.930 . S
C2829 C2828 1.376 . S
C2829 C2830 1.388 . S
C2830 H2817 0.930 . S
C2830 C2829 1.388 . S
C2830 C2831 1.390 . S
C2831 C2830 1.390 . S
C2831 C2832 1.394 . S
C2831 C2837 1.465 . S
C2832 C2827 1.399 . S
C2832 C2831 1.394 . S
C2832 C2833 1.516 . S
C2833 C2832 1.516 . S
C2833 C2834 1.502 . S
C2833 C2835 1.561 . S
C2833 C2836 1.526 . S
C2834 H2818 0.959 . S
C2834 H2819 0.959 . S
C2834 H2820 0.961 . S
C2834 C2833 1.502 . S
C2835 H2821 0.960 . S
C2835 H2822 0.961 . S
C2835 H2823 0.959 . S
C2835 C2833 1.561 . S
C2836 C2833 1.526 . S
C2836 C2837 1.396 . S
C2836 C2841 1.390 . S
C2837 C2831 1.465 . S
C2837 C2836 1.396 . S
C2837 C2838 1.399 . S
C2838 H2824 0.929 . S
C2838 C2837 1.399 . S
C2838 C2839 1.385 . S
C2839 H2825 0.931 . S
C2839 C2838 1.385 . S
C2839 C2840 1.389 . S
C2840 C2839 1.389 . S
C2840 C2841 1.387 . S
C2841 H2826 0.930 . S
C2841 C2836 1.390 . S
C2841 C2840 1.387 . S
H2842 C2854 0.930 . S
H2843 C2856 0.930 . S
H2844 C2857 0.930 . S
H2845 C2861 0.959 . S
H2846 C2861 0.959 . S
H2847 C2861 0.961 . S
H2848 C2862 0.960 . S
H2849 C2862 0.961 . S
H2850 C2862 0.959 . S
H2851 C2865 0.929 . S
H2852 C2866 0.931 . S
H2853 C2868 0.930 . S
C2854 H2842 0.930 . S
C2854 C2855 1.399 . S
C2854 C2859 1.399 . S
C2855 C2854 1.399 . S
C2855 C2856 1.376 . S
C2856 H2843 0.930 . S
C2856 C2855 1.376 . S
C2856 C2857 1.388 . S
C2857 H2844 0.930 . S
C2857 C2856 1.388 . S
C2857 C2858 1.390 . S
C2858 C2857 1.390 . S
C2858 C2859 1.394 . S
C2858 C2864 1.465 . S
C2859 C2854 1.399 . S
C2859 C2858 1.394 . S
C2859 C2860 1.516 . S
C2860 C2859 1.516 . S
C2860 C2861 1.502 . S
C2860 C2862 1.561 . S
C2860 C2863 1.526 . S
C2861 H2845 0.959 . S
C2861 H2846 0.959 . S
C2861 H2847 0.961 . S
C2861 C2860 1.502 . S
C2862 H2848 0.960 . S
C2862 H2849 0.961 . S
C2862 H2850 0.959 . S
C2862 C2860 1.561 . S
C2863 C2860 1.526 . S
C2863 C2864 1.396 . S
C2863 C2868 1.390 . S
C2864 C2858 1.465 . S
C2864 C2863 1.396 . S
C2864 C2865 1.399 . S
C2865 H2851 0.929 . S
C2865 C2864 1.399 . S
C2865 C2866 1.385 . S
C2866 H2852 0.931 . S
C2866 C2865 1.385 . S
C2866 C2867 1.389 . S
C2867 C2866 1.389 . S
C2867 C2868 1.387 . S
C2868 H2853 0.930 . S
C2868 C2863 1.390 . S
C2868 C2867 1.387 . S
H2869 C2881 0.930 . S
H2870 C2883 0.930 . S
H2871 C2884 0.930 . S
H2872 C2888 0.959 . S
H2873 C2888 0.959 . S
H2874 C2888 0.961 . S
H2875 C2889 0.960 . S
H2876 C2889 0.961 . S
H2877 C2889 0.959 . S
H2878 C2892 0.929 . S
H2879 C2893 0.931 . S
H2880 C2895 0.930 . S
C2881 H2869 0.930 . S
C2881 C2882 1.399 . S
C2881 C2886 1.399 . S
C2882 C2881 1.399 . S
C2882 C2883 1.376 . S
C2883 H2870 0.930 . S
C2883 C2882 1.376 . S
C2883 C2884 1.388 . S
C2884 H2871 0.930 . S
C2884 C2883 1.388 . S
C2884 C2885 1.390 . S
C2885 C2884 1.390 . S
C2885 C2886 1.394 . S
C2885 C2891 1.465 . S
C2886 C2881 1.399 . S
C2886 C2885 1.394 . S
C2886 C2887 1.516 . S
C2887 C2886 1.516 . S
C2887 C2888 1.502 . S
C2887 C2889 1.561 . S
C2887 C2890 1.526 . S
C2888 H2872 0.959 . S
C2888 H2873 0.959 . S
C2888 H2874 0.961 . S
C2888 C2887 1.502 . S
C2889 H2875 0.960 . S
C2889 H2876 0.961 . S
C2889 H2877 0.959 . S
C2889 C2887 1.561 . S
C2890 C2887 1.526 . S
C2890 C2891 1.396 . S
C2890 C2895 1.390 . S
C2891 C2885 1.465 . S
C2891 C2890 1.396 . S
C2891 C2892 1.399 . S
C2892 H2878 0.929 . S
C2892 C2891 1.399 . S
C2892 C2893 1.385 . S
C2893 H2879 0.931 . S
C2893 C2892 1.385 . S
C2893 C2894 1.389 . S
C2894 C2893 1.389 . S
C2894 C2895 1.387 . S
C2895 H2880 0.930 . S
C2895 C2890 1.390 . S
C2895 C2894 1.387 . S
H2896 C2908 0.930 . S
H2897 C2910 0.930 . S
H2898 C2911 0.930 . S
H2899 C2915 0.959 . S
H2900 C2915 0.959 . S
H2901 C2915 0.961 . S
H2902 C2916 0.960 . S
H2903 C2916 0.961 . S
H2904 C2916 0.959 . S
H2905 C2919 0.929 . S
H2906 C2920 0.931 . S
H2907 C2922 0.930 . S
C2908 H2896 0.930 . S
C2908 C2909 1.399 . S
C2908 C2913 1.399 . S
C2909 C2908 1.399 . S
C2909 C2910 1.376 . S
C2910 H2897 0.930 . S
C2910 C2909 1.376 . S
C2910 C2911 1.388 . S
C2911 H2898 0.930 . S
C2911 C2910 1.388 . S
C2911 C2912 1.390 . S
C2912 C2911 1.390 . S
C2912 C2913 1.394 . S
C2912 C2918 1.465 . S
C2913 C2908 1.399 . S
C2913 C2912 1.394 . S
C2913 C2914 1.516 . S
C2914 C2913 1.516 . S
C2914 C2915 1.502 . S
C2914 C2916 1.561 . S
C2914 C2917 1.526 . S
C2915 H2899 0.959 . S
C2915 H2900 0.959 . S
C2915 H2901 0.961 . S
C2915 C2914 1.502 . S
C2916 H2902 0.960 . S
C2916 H2903 0.961 . S
C2916 H2904 0.959 . S
C2916 C2914 1.561 . S
C2917 C2914 1.526 . S
C2917 C2918 1.396 . S
C2917 C2922 1.390 . S
C2918 C2912 1.465 . S
C2918 C2917 1.396 . S
C2918 C2919 1.399 . S
C2919 H2905 0.929 . S
C2919 C2918 1.399 . S
C2919 C2920 1.385 . S
C2920 H2906 0.931 . S
C2920 C2919 1.385 . S
C2920 C2921 1.389 . S
C2921 C2920 1.389 . S
C2921 C2922 1.387 . S
C2922 H2907 0.930 . S
C2922 C2917 1.390 . S
C2922 C2921 1.387 . S
H2923 C2935 0.930 . S
H2924 C2937 0.930 . S
H2925 C2938 0.930 . S
H2926 C2942 0.959 . S
H2927 C2942 0.959 . S
H2928 C2942 0.961 . S
H2929 C2943 0.960 . S
H2930 C2943 0.961 . S
H2931 C2943 0.959 . S
H2932 C2946 0.929 . S
H2933 C2947 0.931 . S
H2934 C2949 0.930 . S
C2935 H2923 0.930 . S
C2935 C2936 1.399 . S
C2935 C2940 1.399 . S
C2936 C2935 1.399 . S
C2936 C2937 1.376 . S
C2937 H2924 0.930 . S
C2937 C2936 1.376 . S
C2937 C2938 1.388 . S
C2938 H2925 0.930 . S
C2938 C2937 1.388 . S
C2938 C2939 1.390 . S
C2939 C2938 1.390 . S
C2939 C2940 1.394 . S
C2939 C2945 1.465 . S
C2940 C2935 1.399 . S
C2940 C2939 1.394 . S
C2940 C2941 1.516 . S
C2941 C2940 1.516 . S
C2941 C2942 1.502 . S
C2941 C2943 1.561 . S
C2941 C2944 1.526 . S
C2942 H2926 0.959 . S
C2942 H2927 0.959 . S
C2942 H2928 0.961 . S
C2942 C2941 1.502 . S
C2943 H2929 0.960 . S
C2943 H2930 0.961 . S
C2943 H2931 0.959 . S
C2943 C2941 1.561 . S
C2944 C2941 1.526 . S
C2944 C2945 1.396 . S
C2944 C2949 1.390 . S
C2945 C2939 1.465 . S
C2945 C2944 1.396 . S
C2945 C2946 1.399 . S
C2946 H2932 0.929 . S
C2946 C2945 1.399 . S
C2946 C2947 1.385 . S
C2947 H2933 0.931 . S
C2947 C2946 1.385 . S
C2947 C2948 1.389 . S
C2948 C2947 1.389 . S
C2948 C2949 1.387 . S
C2949 H2934 0.930 . S
C2949 C2944 1.390 . S
C2949 C2948 1.387 . S
H2950 C2962 0.930 . S
H2951 C2964 0.930 . S
H2952 C2965 0.930 . S
H2953 C2969 0.959 . S
H2954 C2969 0.959 . S
H2955 C2969 0.961 . S
H2956 C2970 0.960 . S
H2957 C2970 0.961 . S
H2958 C2970 0.959 . S
H2959 C2973 0.929 . S
H2960 C2974 0.931 . S
H2961 C2976 0.930 . S
C2962 H2950 0.930 . S
C2962 C2963 1.399 . S
C2962 C2967 1.399 . S
C2963 C2962 1.399 . S
C2963 C2964 1.376 . S
C2964 H2951 0.930 . S
C2964 C2963 1.376 . S
C2964 C2965 1.388 . S
C2965 H2952 0.930 . S
C2965 C2964 1.388 . S
C2965 C2966 1.390 . S
C2966 C2965 1.390 . S
C2966 C2967 1.394 . S
C2966 C2972 1.465 . S
C2967 C2962 1.399 . S
C2967 C2966 1.394 . S
C2967 C2968 1.516 . S
C2968 C2967 1.516 . S
C2968 C2969 1.502 . S
C2968 C2970 1.561 . S
C2968 C2971 1.526 . S
C2969 H2953 0.959 . S
C2969 H2954 0.959 . S
C2969 H2955 0.961 . S
C2969 C2968 1.502 . S
C2970 H2956 0.960 . S
C2970 H2957 0.961 . S
C2970 H2958 0.959 . S
C2970 C2968 1.561 . S
C2971 C2968 1.526 . S
C2971 C2972 1.396 . S
C2971 C2976 1.390 . S
C2972 C2966 1.465 . S
C2972 C2971 1.396 . S
C2972 C2973 1.399 . S
C2973 H2959 0.929 . S
C2973 C2972 1.399 . S
C2973 C2974 1.385 . S
C2974 H2960 0.931 . S
C2974 C2973 1.385 . S
C2974 C2975 1.389 . S
C2975 C2974 1.389 . S
C2975 C2976 1.387 . S
C2976 H2961 0.930 . S
C2976 C2971 1.390 . S
C2976 C2975 1.387 . S
H2977 C2989 0.930 . S
H2978 C2991 0.930 . S
H2979 C2992 0.930 . S
H2980 C2996 0.959 . S
H2981 C2996 0.959 . S
H2982 C2996 0.961 . S
H2983 C2997 0.960 . S
H2984 C2997 0.961 . S
H2985 C2997 0.959 . S
H2986 C3000 0.929 . S
H2987 C3001 0.931 . S
H2988 C3003 0.930 . S
C2989 H2977 0.930 . S
C2989 C2990 1.399 . S
C2989 C2994 1.399 . S
C2990 C2989 1.399 . S
C2990 C2991 1.376 . S
C2991 H2978 0.930 . S
C2991 C2990 1.376 . S
C2991 C2992 1.388 . S
C2992 H2979 0.930 . S
C2992 C2991 1.388 . S
C2992 C2993 1.390 . S
C2993 C2992 1.390 . S
C2993 C2994 1.394 . S
C2993 C2999 1.465 . S
C2994 C2989 1.399 . S
C2994 C2993 1.394 . S
C2994 C2995 1.516 . S
C2995 C2994 1.516 . S
C2995 C2996 1.502 . S
C2995 C2997 1.561 . S
C2995 C2998 1.526 . S
C2996 H2980 0.959 . S
C2996 H2981 0.959 . S
C2996 H2982 0.961 . S
C2996 C2995 1.502 . S
C2997 H2983 0.960 . S
C2997 H2984 0.961 . S
C2997 H2985 0.959 . S
C2997 C2995 1.561 . S
C2998 C2995 1.526 . S
C2998 C2999 1.396 . S
C2998 C3003 1.390 . S
C2999 C2993 1.465 . S
C2999 C2998 1.396 . S
C2999 C3000 1.399 . S
C3000 H2986 0.929 . S
C3000 C2999 1.399 . S
C3000 C3001 1.385 . S
C3001 H2987 0.931 . S
C3001 C3000 1.385 . S
C3001 C3002 1.389 . S
C3002 C3001 1.389 . S
C3002 C3003 1.387 . S
C3003 H2988 0.930 . S
C3003 C2998 1.390 . S
C3003 C3002 1.387 . S
H3004 C3016 0.930 . S
H3005 C3018 0.930 . S
H3006 C3019 0.930 . S
H3007 C3023 0.959 . S
H3008 C3023 0.959 . S
H3009 C3023 0.961 . S
H3010 C3024 0.960 . S
H3011 C3024 0.961 . S
H3012 C3024 0.959 . S
H3013 C3027 0.929 . S
H3014 C3028 0.931 . S
H3015 C3030 0.930 . S
C3016 H3004 0.930 . S
C3016 C3017 1.399 . S
C3016 C3021 1.399 . S
C3017 C3016 1.399 . S
C3017 C3018 1.376 . S
C3018 H3005 0.930 . S
C3018 C3017 1.376 . S
C3018 C3019 1.388 . S
C3019 H3006 0.930 . S
C3019 C3018 1.388 . S
C3019 C3020 1.390 . S
C3020 C3019 1.390 . S
C3020 C3021 1.394 . S
C3020 C3026 1.465 . S
C3021 C3016 1.399 . S
C3021 C3020 1.394 . S
C3021 C3022 1.516 . S
C3022 C3021 1.516 . S
C3022 C3023 1.502 . S
C3022 C3024 1.561 . S
C3022 C3025 1.526 . S
C3023 H3007 0.959 . S
C3023 H3008 0.959 . S
C3023 H3009 0.961 . S
C3023 C3022 1.502 . S
C3024 H3010 0.960 . S
C3024 H3011 0.961 . S
C3024 H3012 0.959 . S
C3024 C3022 1.561 . S
C3025 C3022 1.526 . S
C3025 C3026 1.396 . S
C3025 C3030 1.390 . S
C3026 C3020 1.465 . S
C3026 C3025 1.396 . S
C3026 C3027 1.399 . S
C3027 H3013 0.929 . S
C3027 C3026 1.399 . S
C3027 C3028 1.385 . S
C3028 H3014 0.931 . S
C3028 C3027 1.385 . S
C3028 C3029 1.389 . S
C3029 C3028 1.389 . S
C3029 C3030 1.387 . S
C3030 H3015 0.930 . S
C3030 C3025 1.390 . S
C3030 C3029 1.387 . S
H3031 C3043 0.930 . S
H3032 C3045 0.930 . S
H3033 C3046 0.930 . S
H3034 C3050 0.959 . S
H3035 C3050 0.959 . S
H3036 C3050 0.961 . S
H3037 C3051 0.960 . S
H3038 C3051 0.961 . S
H3039 C3051 0.959 . S
H3040 C3054 0.929 . S
H3041 C3055 0.931 . S
H3042 C3057 0.930 . S
C3043 H3031 0.930 . S
C3043 C3044 1.399 . S
C3043 C3048 1.399 . S
C3044 C3043 1.399 . S
C3044 C3045 1.376 . S
C3045 H3032 0.930 . S
C3045 C3044 1.376 . S
C3045 C3046 1.388 . S
C3046 H3033 0.930 . S
C3046 C3045 1.388 . S
C3046 C3047 1.390 . S
C3047 C3046 1.390 . S
C3047 C3048 1.394 . S
C3047 C3053 1.465 . S
C3048 C3043 1.399 . S
C3048 C3047 1.394 . S
C3048 C3049 1.516 . S
C3049 C3048 1.516 . S
C3049 C3050 1.502 . S
C3049 C3051 1.561 . S
C3049 C3052 1.526 . S
C3050 H3034 0.959 . S
C3050 H3035 0.959 . S
C3050 H3036 0.961 . S
C3050 C3049 1.502 . S
C3051 H3037 0.960 . S
C3051 H3038 0.961 . S
C3051 H3039 0.959 . S
C3051 C3049 1.561 . S
C3052 C3049 1.526 . S
C3052 C3053 1.396 . S
C3052 C3057 1.390 . S
C3053 C3047 1.465 . S
C3053 C3052 1.396 . S
C3053 C3054 1.399 . S
C3054 H3040 0.929 . S
C3054 C3053 1.399 . S
C3054 C3055 1.385 . S
C3055 H3041 0.931 . S
C3055 C3054 1.385 . S
C3055 C3056 1.389 . S
C3056 C3055 1.389 . S
C3056 C3057 1.387 . S
C3057 H3042 0.930 . S
C3057 C3052 1.390 . S
C3057 C3056 1.387 . S
H3058 C3070 0.930 . S
H3059 C3072 0.930 . S
H3060 C3073 0.930 . S
H3061 C3077 0.959 1_655 S
H3062 C3077 0.959 . S
H3063 C3077 0.961 . S
H3064 C3078 0.960 . S
H3065 C3078 0.961 . S
H3066 C3078 0.959 . S
H3067 C3081 0.929 . S
H3068 C3082 0.931 . S
H3069 C3084 0.930 . S
C3070 H3058 0.930 . S
C3070 C3071 1.399 . S
C3070 C3075 1.399 . S
C3071 C3070 1.399 . S
C3071 C3072 1.376 . S
C3072 H3059 0.930 . S
C3072 C3071 1.376 . S
C3072 C3073 1.388 . S
C3073 H3060 0.930 . S
C3073 C3072 1.388 . S
C3073 C3074 1.390 . S
C3074 C3073 1.390 . S
C3074 C3075 1.394 . S
C3074 C3080 1.465 . S
C3075 C3070 1.399 . S
C3075 C3074 1.394 . S
C3075 C3076 1.516 . S
C3076 C3075 1.516 . S
C3076 C3077 1.502 . S
C3076 C3078 1.561 . S
C3076 C3079 1.526 . S
C3077 H3061 0.959 1_455 S
C3077 H3062 0.959 . S
C3077 H3063 0.961 . S
C3077 C3076 1.502 . S
C3078 H3064 0.960 . S
C3078 H3065 0.961 . S
C3078 H3066 0.959 . S
C3078 C3076 1.561 . S
C3079 C3076 1.526 . S
C3079 C3080 1.396 . S
C3079 C3084 1.390 . S
C3080 C3074 1.465 . S
C3080 C3079 1.396 . S
C3080 C3081 1.399 . S
C3081 H3067 0.929 . S
C3081 C3080 1.399 . S
C3081 C3082 1.385 . S
C3082 H3068 0.931 . S
C3082 C3081 1.385 . S
C3082 C3083 1.389 . S
C3083 C3082 1.389 . S
C3083 C3084 1.387 . S
C3084 H3069 0.930 . S
C3084 C3079 1.390 . S
C3084 C3083 1.387 . S
H3085 C3097 0.930 . S
H3086 C3099 0.930 . S
H3087 C3100 0.930 . S
H3088 C3104 0.959 . S
H3089 C3104 0.959 . S
H3090 C3104 0.961 . S
H3091 C3105 0.960 . S
H3092 C3105 0.961 . S
H3093 C3105 0.959 . S
H3094 C3108 0.929 . S
H3095 C3109 0.931 . S
H3096 C3111 0.930 . S
C3097 H3085 0.930 . S
C3097 C3098 1.399 . S
C3097 C3102 1.399 . S
C3098 C3097 1.399 . S
C3098 C3099 1.376 . S
C3099 H3086 0.930 . S
C3099 C3098 1.376 . S
C3099 C3100 1.388 . S
C3100 H3087 0.930 . S
C3100 C3099 1.388 . S
C3100 C3101 1.390 . S
C3101 C3100 1.390 . S
C3101 C3102 1.394 . S
C3101 C3107 1.465 . S
C3102 C3097 1.399 . S
C3102 C3101 1.394 . S
C3102 C3103 1.516 . S
C3103 C3102 1.516 . S
C3103 C3104 1.502 . S
C3103 C3105 1.561 . S
C3103 C3106 1.526 . S
C3104 H3088 0.959 . S
C3104 H3089 0.959 . S
C3104 H3090 0.961 . S
C3104 C3103 1.502 . S
C3105 H3091 0.960 . S
C3105 H3092 0.961 . S
C3105 H3093 0.959 . S
C3105 C3103 1.561 . S
C3106 C3103 1.526 . S
C3106 C3107 1.396 . S
C3106 C3111 1.390 . S
C3107 C3101 1.465 . S
C3107 C3106 1.396 . S
C3107 C3108 1.399 . S
C3108 H3094 0.929 . S
C3108 C3107 1.399 . S
C3108 C3109 1.385 . S
C3109 H3095 0.931 . S
C3109 C3108 1.385 . S
C3109 C3110 1.389 . S
C3110 C3109 1.389 . S
C3110 C3111 1.387 . S
C3111 H3096 0.930 . S
C3111 C3106 1.390 . S
C3111 C3110 1.387 . S
H3112 C3124 0.930 . S
H3113 C3126 0.930 . S
H3114 C3127 0.930 . S
H3115 C3131 0.959 . S
H3116 C3131 0.959 . S
H3117 C3131 0.961 . S
H3118 C3132 0.960 . S
H3119 C3132 0.961 . S
H3120 C3132 0.959 . S
H3121 C3135 0.929 . S
H3122 C3136 0.931 . S
H3123 C3138 0.930 . S
C3124 H3112 0.930 . S
C3124 C3125 1.399 . S
C3124 C3129 1.399 . S
C3125 C3124 1.399 . S
C3125 C3126 1.376 . S
C3126 H3113 0.930 . S
C3126 C3125 1.376 . S
C3126 C3127 1.388 . S
C3127 H3114 0.930 . S
C3127 C3126 1.388 . S
C3127 C3128 1.390 . S
C3128 C3127 1.390 . S
C3128 C3129 1.394 . S
C3128 C3134 1.465 . S
C3129 C3124 1.399 . S
C3129 C3128 1.394 . S
C3129 C3130 1.516 . S
C3130 C3129 1.516 . S
C3130 C3131 1.502 . S
C3130 C3132 1.561 . S
C3130 C3133 1.526 . S
C3131 H3115 0.959 . S
C3131 H3116 0.959 . S
C3131 H3117 0.961 . S
C3131 C3130 1.502 . S
C3132 H3118 0.960 . S
C3132 H3119 0.961 . S
C3132 H3120 0.959 . S
C3132 C3130 1.561 . S
C3133 C3130 1.526 . S
C3133 C3134 1.396 . S
C3133 C3138 1.390 . S
C3134 C3128 1.465 . S
C3134 C3133 1.396 . S
C3134 C3135 1.399 . S
C3135 H3121 0.929 . S
C3135 C3134 1.399 . S
C3135 C3136 1.385 . S
C3136 H3122 0.931 . S
C3136 C3135 1.385 . S
C3136 C3137 1.389 . S
C3137 C3136 1.389 . S
C3137 C3138 1.387 . S
C3138 H3123 0.930 . S
C3138 C3133 1.390 . S
C3138 C3137 1.387 . S
H3139 C3151 0.930 . S
H3140 C3153 0.930 . S
H3141 C3154 0.930 . S
H3142 C3158 0.959 . S
H3143 C3158 0.959 . S
H3144 C3158 0.961 . S
H3145 C3159 0.960 . S
H3146 C3159 0.961 . S
H3147 C3159 0.959 . S
H3148 C3162 0.929 . S
H3149 C3163 0.931 . S
H3150 C3165 0.930 . S
C3151 H3139 0.930 . S
C3151 C3152 1.399 . S
C3151 C3156 1.399 . S
C3152 C3151 1.399 . S
C3152 C3153 1.376 . S
C3153 H3140 0.930 . S
C3153 C3152 1.376 . S
C3153 C3154 1.388 . S
C3154 H3141 0.930 . S
C3154 C3153 1.388 . S
C3154 C3155 1.390 . S
C3155 C3154 1.390 . S
C3155 C3156 1.394 . S
C3155 C3161 1.465 . S
C3156 C3151 1.399 . S
C3156 C3155 1.394 . S
C3156 C3157 1.516 . S
C3157 C3156 1.516 . S
C3157 C3158 1.502 . S
C3157 C3159 1.561 . S
C3157 C3160 1.526 . S
C3158 H3142 0.959 . S
C3158 H3143 0.959 . S
C3158 H3144 0.961 . S
C3158 C3157 1.502 . S
C3159 H3145 0.960 . S
C3159 H3146 0.961 . S
C3159 H3147 0.959 . S
C3159 C3157 1.561 . S
C3160 C3157 1.526 . S
C3160 C3161 1.396 . S
C3160 C3165 1.390 . S
C3161 C3155 1.465 . S
C3161 C3160 1.396 . S
C3161 C3162 1.399 . S
C3162 H3148 0.929 . S
C3162 C3161 1.399 . S
C3162 C3163 1.385 . S
C3163 H3149 0.931 . S
C3163 C3162 1.385 . S
C3163 C3164 1.389 . S
C3164 C3163 1.389 . S
C3164 C3165 1.387 . S
C3165 H3150 0.930 . S
C3165 C3160 1.390 . S
C3165 C3164 1.387 . S
H3166 C3178 0.930 . S
H3167 C3180 0.930 . S
H3168 C3181 0.930 . S
H3169 C3185 0.959 1_455 S
H3170 C3185 0.959 1_455 S
H3171 C3185 0.961 . S
H3172 C3186 0.960 . S
H3173 C3186 0.961 . S
H3174 C3186 0.959 . S
H3175 C3189 0.929 . S
H3176 C3190 0.931 . S
H3177 C3192 0.930 1_455 S
C3178 H3166 0.930 . S
C3178 C3179 1.399 . S
C3178 C3183 1.399 . S
C3179 C3178 1.399 . S
C3179 C3180 1.376 . S
C3180 H3167 0.930 . S
C3180 C3179 1.376 . S
C3180 C3181 1.388 . S
C3181 H3168 0.930 . S
C3181 C3180 1.388 . S
C3181 C3182 1.390 . S
C3182 C3181 1.390 . S
C3182 C3183 1.394 . S
C3182 C3188 1.465 . S
C3183 C3178 1.399 . S
C3183 C3182 1.394 . S
C3183 C3184 1.516 . S
C3184 C3183 1.516 . S
C3184 C3185 1.502 . S
C3184 C3186 1.561 . S
C3184 C3187 1.526 . S
C3185 H3169 0.959 1_655 S
C3185 H3170 0.959 1_655 S
C3185 H3171 0.961 . S
C3185 C3184 1.502 . S
C3186 H3172 0.960 . S
C3186 H3173 0.961 . S
C3186 H3174 0.959 . S
C3186 C3184 1.561 . S
C3187 C3184 1.526 . S
C3187 C3188 1.396 . S
C3187 C3192 1.390 . S
C3188 C3182 1.465 . S
C3188 C3187 1.396 . S
C3188 C3189 1.399 . S
C3189 H3175 0.929 . S
C3189 C3188 1.399 . S
C3189 C3190 1.385 . S
C3190 H3176 0.931 . S
C3190 C3189 1.385 . S
C3190 C3191 1.389 . S
C3191 C3190 1.389 . S
C3191 C3192 1.387 . S
C3192 H3177 0.930 1_655 S
C3192 C3187 1.390 . S
C3192 C3191 1.387 . S
H3193 C3205 0.930 . S
H3194 C3207 0.930 . S
H3195 C3208 0.930 . S
H3196 C3212 0.959 . S
H3197 C3212 0.959 . S
H3198 C3212 0.961 . S
H3199 C3213 0.960 . S
H3200 C3213 0.961 . S
H3201 C3213 0.959 . S
H3202 C3216 0.929 . S
H3203 C3217 0.931 . S
H3204 C3219 0.930 . S
C3205 H3193 0.930 . S
C3205 C3206 1.399 . S
C3205 C3210 1.399 . S
C3206 C3205 1.399 . S
C3206 C3207 1.376 . S
C3207 H3194 0.930 . S
C3207 C3206 1.376 . S
C3207 C3208 1.388 . S
C3208 H3195 0.930 . S
C3208 C3207 1.388 . S
C3208 C3209 1.390 . S
C3209 C3208 1.390 . S
C3209 C3210 1.394 . S
C3209 C3215 1.465 . S
C3210 C3205 1.399 . S
C3210 C3209 1.394 . S
C3210 C3211 1.516 . S
C3211 C3210 1.516 . S
C3211 C3212 1.502 . S
C3211 C3213 1.561 . S
C3211 C3214 1.526 . S
C3212 H3196 0.959 . S
C3212 H3197 0.959 . S
C3212 H3198 0.961 . S
C3212 C3211 1.502 . S
C3213 H3199 0.960 . S
C3213 H3200 0.961 . S
C3213 H3201 0.959 . S
C3213 C3211 1.561 . S
C3214 C3211 1.526 . S
C3214 C3215 1.396 . S
C3214 C3219 1.390 . S
C3215 C3209 1.465 . S
C3215 C3214 1.396 . S
C3215 C3216 1.399 . S
C3216 H3202 0.929 . S
C3216 C3215 1.399 . S
C3216 C3217 1.385 . S
C3217 H3203 0.931 . S
C3217 C3216 1.385 . S
C3217 C3218 1.389 . S
C3218 C3217 1.389 . S
C3218 C3219 1.387 . S
C3219 H3204 0.930 . S
C3219 C3214 1.390 . S
C3219 C3218 1.387 . S
H3220 C3232 0.930 . S
H3221 C3234 0.930 . S
H3222 C3235 0.930 . S
H3223 C3239 0.959 . S
H3224 C3239 0.959 . S
H3225 C3239 0.961 . S
H3226 C3240 0.960 . S
H3227 C3240 0.961 . S
H3228 C3240 0.959 . S
H3229 C3243 0.929 . S
H3230 C3244 0.931 . S
H3231 C3246 0.930 . S
C3232 H3220 0.930 . S
C3232 C3233 1.399 . S
C3232 C3237 1.399 . S
C3233 C3232 1.399 . S
C3233 C3234 1.376 . S
C3234 H3221 0.930 . S
C3234 C3233 1.376 . S
C3234 C3235 1.388 . S
C3235 H3222 0.930 . S
C3235 C3234 1.388 . S
C3235 C3236 1.390 . S
C3236 C3235 1.390 . S
C3236 C3237 1.394 . S
C3236 C3242 1.465 . S
C3237 C3232 1.399 . S
C3237 C3236 1.394 . S
C3237 C3238 1.516 . S
C3238 C3237 1.516 . S
C3238 C3239 1.502 . S
C3238 C3240 1.561 . S
C3238 C3241 1.526 . S
C3239 H3223 0.959 . S
C3239 H3224 0.959 . S
C3239 H3225 0.961 . S
C3239 C3238 1.502 . S
C3240 H3226 0.960 . S
C3240 H3227 0.961 . S
C3240 H3228 0.959 . S
C3240 C3238 1.561 . S
C3241 C3238 1.526 . S
C3241 C3242 1.396 . S
C3241 C3246 1.390 . S
C3242 C3236 1.465 . S
C3242 C3241 1.396 . S
C3242 C3243 1.399 . S
C3243 H3229 0.929 . S
C3243 C3242 1.399 . S
C3243 C3244 1.385 . S
C3244 H3230 0.931 . S
C3244 C3243 1.385 . S
C3244 C3245 1.389 . S
C3245 C3244 1.389 . S
C3245 C3246 1.387 . S
C3246 H3231 0.930 . S
C3246 C3241 1.390 . S
C3246 C3245 1.387 . S
H3247 C3259 0.930 . S
H3248 C3261 0.930 . S
H3249 C3262 0.930 . S
H3250 C3266 0.959 . S
H3251 C3266 0.959 . S
H3252 C3266 0.961 . S
H3253 C3267 0.960 . S
H3254 C3267 0.961 . S
H3255 C3267 0.959 . S
H3256 C3270 0.929 . S
H3257 C3271 0.931 . S
H3258 C3273 0.930 . S
C3259 H3247 0.930 . S
C3259 C3260 1.399 . S
C3259 C3264 1.399 . S
C3260 C3259 1.399 . S
C3260 C3261 1.376 . S
C3261 H3248 0.930 . S
C3261 C3260 1.376 . S
C3261 C3262 1.388 . S
C3262 H3249 0.930 . S
C3262 C3261 1.388 . S
C3262 C3263 1.390 . S
C3263 C3262 1.390 . S
C3263 C3264 1.394 . S
C3263 C3269 1.465 . S
C3264 C3259 1.399 . S
C3264 C3263 1.394 . S
C3264 C3265 1.516 . S
C3265 C3264 1.516 . S
C3265 C3266 1.502 . S
C3265 C3267 1.561 . S
C3265 C3268 1.526 . S
C3266 H3250 0.959 . S
C3266 H3251 0.959 . S
C3266 H3252 0.961 . S
C3266 C3265 1.502 . S
C3267 H3253 0.960 . S
C3267 H3254 0.961 . S
C3267 H3255 0.959 . S
C3267 C3265 1.561 . S
C3268 C3265 1.526 . S
C3268 C3269 1.396 . S
C3268 C3273 1.390 . S
C3269 C3263 1.465 . S
C3269 C3268 1.396 . S
C3269 C3270 1.399 . S
C3270 H3256 0.929 . S
C3270 C3269 1.399 . S
C3270 C3271 1.385 . S
C3271 H3257 0.931 . S
C3271 C3270 1.385 . S
C3271 C3272 1.389 . S
C3272 C3271 1.389 . S
C3272 C3273 1.387 . S
C3273 H3258 0.930 . S
C3273 C3268 1.390 . S
C3273 C3272 1.387 . S
H3274 C3286 0.930 . S
H3275 C3288 0.930 . S
H3276 C3289 0.930 . S
H3277 C3293 0.959 . S
H3278 C3293 0.973 . S
H3279 C3293 0.961 . S
H3280 C3294 0.960 . S
H3281 C3294 0.961 . S
H3282 C3294 0.959 . S
H3283 C3297 0.929 . S
H3284 C3298 0.931 . S
H3285 C3300 0.930 . S
C3286 H3274 0.930 . S
C3286 C3287 1.399 . S
C3286 C3291 1.399 . S
C3287 C3286 1.399 . S
C3287 C3288 1.376 . S
C3288 H3275 0.930 . S
C3288 C3287 1.376 . S
C3288 C3289 1.388 . S
C3289 H3276 0.930 . S
C3289 C3288 1.388 . S
C3289 C3290 1.390 . S
C3290 C3289 1.390 . S
C3290 C3291 1.394 . S
C3290 C3296 1.465 . S
C3291 C3286 1.399 . S
C3291 C3290 1.394 . S
C3291 C3292 1.516 . S
C3292 C3291 1.516 . S
C3292 C3293 1.502 . S
C3292 C3294 1.561 . S
C3292 C3295 1.526 . S
C3293 H3277 0.959 . S
C3293 H3278 0.973 . S
C3293 H3279 0.961 . S
C3293 C3292 1.502 . S
C3294 H3280 0.960 . S
C3294 H3281 0.961 . S
C3294 H3282 0.959 . S
C3294 C3292 1.561 . S
C3295 C3292 1.526 . S
C3295 C3296 1.396 . S
C3295 C3300 1.390 . S
C3296 C3290 1.465 . S
C3296 C3295 1.396 . S
C3296 C3297 1.399 . S
C3297 H3283 0.929 . S
C3297 C3296 1.399 . S
C3297 C3298 1.385 . S
C3298 H3284 0.931 . S
C3298 C3297 1.385 . S
C3298 C3299 1.389 . S
C3299 C3298 1.389 . S
C3299 C3300 1.387 . S
C3300 H3285 0.930 . S
C3300 C3295 1.390 . S
C3300 C3299 1.387 . S
H3301 C3313 0.930 . S
H3302 C3315 0.930 . S
H3303 C3316 0.930 . S
H3304 C3320 0.959 . S
H3305 C3320 0.959 . S
H3306 C3320 0.961 . S
H3307 C3321 0.960 . S
H3308 C3321 0.961 . S
H3309 C3321 0.959 . S
H3310 C3324 0.929 . S
H3311 C3325 0.931 . S
H3312 C3327 0.930 . S
C3313 H3301 0.930 . S
C3313 C3314 1.399 . S
C3313 C3318 1.399 . S
C3314 C3313 1.399 . S
C3314 C3315 1.376 . S
C3315 H3302 0.930 . S
C3315 C3314 1.376 . S
C3315 C3316 1.388 . S
C3316 H3303 0.930 . S
C3316 C3315 1.388 . S
C3316 C3317 1.390 . S
C3317 C3316 1.390 . S
C3317 C3318 1.394 . S
C3317 C3323 1.465 . S
C3318 C3313 1.399 . S
C3318 C3317 1.394 . S
C3318 C3319 1.516 . S
C3319 C3318 1.516 . S
C3319 C3320 1.502 . S
C3319 C3321 1.561 . S
C3319 C3322 1.526 . S
C3320 H3304 0.959 . S
C3320 H3305 0.959 . S
C3320 H3306 0.961 . S
C3320 C3319 1.502 . S
C3321 H3307 0.960 . S
C3321 H3308 0.961 . S
C3321 H3309 0.959 . S
C3321 C3319 1.561 . S
C3322 C3319 1.526 . S
C3322 C3323 1.396 . S
C3322 C3327 1.390 . S
C3323 C3317 1.465 . S
C3323 C3322 1.396 . S
C3323 C3324 1.399 . S
C3324 H3310 0.929 . S
C3324 C3323 1.399 . S
C3324 C3325 1.385 . S
C3325 H3311 0.931 . S
C3325 C3324 1.385 . S
C3325 C3326 1.389 . S
C3326 C3325 1.389 . S
C3326 C3327 1.387 . S
C3327 H3312 0.930 . S
C3327 C3322 1.390 . S
C3327 C3326 1.387 . S
H3328 C3340 0.930 . S
H3329 C3342 0.930 . S
H3330 C3343 0.930 . S
H3331 C3347 0.959 . S
H3332 C3347 0.959 . S
H3333 C3347 0.961 . S
H3334 C3348 0.960 . S
H3335 C3348 0.961 . S
H3336 C3348 0.959 . S
H3337 C3351 0.929 . S
H3338 C3352 0.931 . S
H3339 C3354 0.930 . S
C3340 H3328 0.930 . S
C3340 C3341 1.399 . S
C3340 C3345 1.399 . S
C3341 C3340 1.399 . S
C3341 C3342 1.376 . S
C3342 H3329 0.930 . S
C3342 C3341 1.376 . S
C3342 C3343 1.388 . S
C3343 H3330 0.930 . S
C3343 C3342 1.388 . S
C3343 C3344 1.390 . S
C3344 C3343 1.390 . S
C3344 C3345 1.394 . S
C3344 C3350 1.465 . S
C3345 C3340 1.399 . S
C3345 C3344 1.394 . S
C3345 C3346 1.516 . S
C3346 C3345 1.516 . S
C3346 C3347 1.502 . S
C3346 C3348 1.561 . S
C3346 C3349 1.526 . S
C3347 H3331 0.959 . S
C3347 H3332 0.959 . S
C3347 H3333 0.961 . S
C3347 C3346 1.502 . S
C3348 H3334 0.960 . S
C3348 H3335 0.961 . S
C3348 H3336 0.959 . S
C3348 C3346 1.561 . S
C3349 C3346 1.526 . S
C3349 C3350 1.396 . S
C3349 C3354 1.390 . S
C3350 C3344 1.465 . S
C3350 C3349 1.396 . S
C3350 C3351 1.399 . S
C3351 H3337 0.929 . S
C3351 C3350 1.399 . S
C3351 C3352 1.385 . S
C3352 H3338 0.931 . S
C3352 C3351 1.385 . S
C3352 C3353 1.389 . S
C3353 C3352 1.389 . S
C3353 C3354 1.387 . S
C3354 H3339 0.930 . S
C3354 C3349 1.390 . S
C3354 C3353 1.387 . S
H3355 C3367 0.930 . S
H3356 C3369 0.930 . S
H3357 C3370 0.930 . S
H3358 C3374 0.959 . S
H3359 C3374 0.959 . S
H3360 C3374 0.961 . S
H3361 C3375 0.960 . S
H3362 C3375 0.961 . S
H3363 C3375 0.959 . S
H3364 C3378 0.929 . S
H3365 C3379 0.931 1_545 S
H3366 C3381 0.930 . S
C3367 H3355 0.930 . S
C3367 C3368 1.399 . S
C3367 C3372 1.399 . S
C3368 C3367 1.399 . S
C3368 C3369 1.376 . S
C3369 H3356 0.930 . S
C3369 C3368 1.376 . S
C3369 C3370 1.388 . S
C3370 H3357 0.930 . S
C3370 C3369 1.388 . S
C3370 C3371 1.390 . S
C3371 C3370 1.390 . S
C3371 C3372 1.394 . S
C3371 C3377 1.465 . S
C3372 C3367 1.399 . S
C3372 C3371 1.394 . S
C3372 C3373 1.516 . S
C3373 C3372 1.516 . S
C3373 C3374 1.502 . S
C3373 C3375 1.561 . S
C3373 C3376 1.526 . S
C3374 H3358 0.959 . S
C3374 H3359 0.959 . S
C3374 H3360 0.961 . S
C3374 C3373 1.502 . S
C3375 H3361 0.960 . S
C3375 H3362 0.961 . S
C3375 H3363 0.959 . S
C3375 C3373 1.561 . S
C3376 C3373 1.526 . S
C3376 C3377 1.396 . S
C3376 C3381 1.390 . S
C3377 C3371 1.465 . S
C3377 C3376 1.396 . S
C3377 C3378 1.399 . S
C3378 H3364 0.929 . S
C3378 C3377 1.399 . S
C3378 C3379 1.385 . S
C3379 H3365 0.931 1_565 S
C3379 C3378 1.385 . S
C3379 C3380 1.389 . S
C3380 C3379 1.389 . S
C3380 C3381 1.387 . S
C3381 H3366 0.930 . S
C3381 C3376 1.390 . S
C3381 C3380 1.387 . S
H3382 C3394 0.930 . S
H3383 C3396 0.930 . S
H3384 C3397 0.930 . S
H3385 C3401 0.959 . S
H3386 C3401 0.959 . S
H3387 C3401 0.961 . S
H3388 C3402 0.960 . S
H3389 C3402 0.961 . S
H3390 C3402 0.959 . S
H3391 C3405 0.929 . S
H3392 C3406 0.931 . S
H3393 C3408 0.930 . S
C3394 H3382 0.930 . S
C3394 C3395 1.399 . S
C3394 C3399 1.399 . S
C3395 C3394 1.399 . S
C3395 C3396 1.376 . S
C3396 H3383 0.930 . S
C3396 C3395 1.376 . S
C3396 C3397 1.388 . S
C3397 H3384 0.930 . S
C3397 C3396 1.388 . S
C3397 C3398 1.390 . S
C3398 C3397 1.390 . S
C3398 C3399 1.394 . S
C3398 C3404 1.465 . S
C3399 C3394 1.399 . S
C3399 C3398 1.394 . S
C3399 C3400 1.516 . S
C3400 C3399 1.516 . S
C3400 C3401 1.502 . S
C3400 C3402 1.561 . S
C3400 C3403 1.526 . S
C3401 H3385 0.959 . S
C3401 H3386 0.959 . S
C3401 H3387 0.961 . S
C3401 C3400 1.502 . S
C3402 H3388 0.960 . S
C3402 H3389 0.961 . S
C3402 H3390 0.959 . S
C3402 C3400 1.561 . S
C3403 C3400 1.526 . S
C3403 C3404 1.396 . S
C3403 C3408 1.390 . S
C3404 C3398 1.465 . S
C3404 C3403 1.396 . S
C3404 C3405 1.399 . S
C3405 H3391 0.929 . S
C3405 C3404 1.399 . S
C3405 C3406 1.385 . S
C3406 H3392 0.931 . S
C3406 C3405 1.385 . S
C3406 C3407 1.389 . S
C3407 C3406 1.389 . S
C3407 C3408 1.387 . S
C3408 H3393 0.930 . S
C3408 C3403 1.390 . S
C3408 C3407 1.387 . S
H3409 C3421 0.930 . S
H3410 C3423 0.930 . S
H3411 C3424 0.930 . S
H3412 C3428 0.959 . S
H3413 C3428 0.959 1_556 S
H3414 C3428 0.961 . S
H3415 C3429 0.960 . S
H3416 C3429 0.961 . S
H3417 C3429 0.959 . S
H3418 C3432 0.929 . S
H3419 C3433 0.931 . S
H3420 C3435 0.930 . S
C3421 H3409 0.930 . S
C3421 C3422 1.399 . S
C3421 C3426 1.399 . S
C3422 C3421 1.399 . S
C3422 C3423 1.376 . S
C3423 H3410 0.930 . S
C3423 C3422 1.376 . S
C3423 C3424 1.388 . S
C3424 H3411 0.930 . S
C3424 C3423 1.388 . S
C3424 C3425 1.390 . S
C3425 C3424 1.390 . S
C3425 C3426 1.394 . S
C3425 C3431 1.465 . S
C3426 C3421 1.399 . S
C3426 C3425 1.394 . S
C3426 C3427 1.516 . S
C3427 C3426 1.516 . S
C3427 C3428 1.502 . S
C3427 C3429 1.561 . S
C3427 C3430 1.526 . S
C3428 H3412 0.959 . S
C3428 H3413 0.959 1_554 S
C3428 H3414 0.961 . S
C3428 C3427 1.502 . S
C3429 H3415 0.960 . S
C3429 H3416 0.961 . S
C3429 H3417 0.959 . S
C3429 C3427 1.561 . S
C3430 C3427 1.526 . S
C3430 C3431 1.396 . S
C3430 C3435 1.390 . S
C3431 C3425 1.465 . S
C3431 C3430 1.396 . S
C3431 C3432 1.399 . S
C3432 H3418 0.929 . S
C3432 C3431 1.399 . S
C3432 C3433 1.385 . S
C3433 H3419 0.931 . S
C3433 C3432 1.385 . S
C3433 C3434 1.389 . S
C3434 C3433 1.389 . S
C3434 C3435 1.387 . S
C3435 H3420 0.930 . S
C3435 C3430 1.390 . S
C3435 C3434 1.387 . S
H3436 C3448 0.930 . S
H3437 C3450 0.930 . S
H3438 C3451 0.930 . S
H3439 C3455 0.959 . S
H3440 C3455 0.959 . S
H3441 C3455 0.961 . S
H3442 C3456 0.960 . S
H3443 C3456 0.961 . S
H3444 C3456 0.959 . S
H3445 C3459 0.929 . S
H3446 C3460 0.931 . S
H3447 C3462 0.930 . S
C3448 H3436 0.930 . S
C3448 C3449 1.399 . S
C3448 C3453 1.399 . S
C3449 C3448 1.399 . S
C3449 C3450 1.376 . S
C3450 H3437 0.930 . S
C3450 C3449 1.376 . S
C3450 C3451 1.388 . S
C3451 H3438 0.930 . S
C3451 C3450 1.388 . S
C3451 C3452 1.390 . S
C3452 C3451 1.390 . S
C3452 C3453 1.394 . S
C3452 C3458 1.465 . S
C3453 C3448 1.399 . S
C3453 C3452 1.394 . S
C3453 C3454 1.516 . S
C3454 C3453 1.516 . S
C3454 C3455 1.502 . S
C3454 C3456 1.561 . S
C3454 C3457 1.526 . S
C3455 H3439 0.959 . S
C3455 H3440 0.959 . S
C3455 H3441 0.961 . S
C3455 C3454 1.502 . S
C3456 H3442 0.960 . S
C3456 H3443 0.961 . S
C3456 H3444 0.959 . S
C3456 C3454 1.561 . S
C3457 C3454 1.526 . S
C3457 C3458 1.396 . S
C3457 C3462 1.390 . S
C3458 C3452 1.465 . S
C3458 C3457 1.396 . S
C3458 C3459 1.399 . S
C3459 H3445 0.929 . S
C3459 C3458 1.399 . S
C3459 C3460 1.385 . S
C3460 H3446 0.931 . S
C3460 C3459 1.385 . S
C3460 C3461 1.389 . S
C3461 C3460 1.389 . S
C3461 C3462 1.387 . S
C3462 H3447 0.930 . S
C3462 C3457 1.390 . S
C3462 C3461 1.387 . S
H3463 C3475 0.930 . S
H3464 C3477 0.930 . S
H3465 C3478 0.931 1_556 S
H3466 C3482 0.959 . S
H3467 C3482 0.959 . S
H3468 C3482 0.961 . S
H3469 C3483 0.960 . S
H3470 C3483 0.961 . S
H3471 C3483 0.959 . S
H3472 C3486 0.929 1_556 S
H3473 C3487 0.931 1_556 S
H3474 C3489 0.930 . S
C3475 H3463 0.930 . S
C3475 C3476 1.399 . S
C3475 C3480 1.399 . S
C3476 C3475 1.399 . S
C3476 C3477 1.376 . S
C3477 H3464 0.930 . S
C3477 C3476 1.376 . S
C3477 C3478 1.388 . S
C3478 H3465 0.931 1_554 S
C3478 C3477 1.388 . S
C3478 C3479 1.390 . S
C3479 C3478 1.390 . S
C3479 C3480 1.394 . S
C3479 C3485 1.465 . S
C3480 C3475 1.399 . S
C3480 C3479 1.394 . S
C3480 C3481 1.516 . S
C3481 C3480 1.516 . S
C3481 C3482 1.502 . S
C3481 C3483 1.561 . S
C3481 C3484 1.526 . S
C3482 H3466 0.959 . S
C3482 H3467 0.959 . S
C3482 H3468 0.961 . S
C3482 C3481 1.502 . S
C3483 H3469 0.960 . S
C3483 H3470 0.961 . S
C3483 H3471 0.959 . S
C3483 C3481 1.561 . S
C3484 C3481 1.526 . S
C3484 C3485 1.396 . S
C3484 C3489 1.390 . S
C3485 C3479 1.465 . S
C3485 C3484 1.396 . S
C3485 C3486 1.399 . S
C3486 H3472 0.929 1_554 S
C3486 C3485 1.399 . S
C3486 C3487 1.385 . S
C3487 H3473 0.931 1_554 S
C3487 C3486 1.385 . S
C3487 C3488 1.389 . S
C3488 C3487 1.389 . S
C3488 C3489 1.387 . S
C3489 H3474 0.930 . S
C3489 C3484 1.390 . S
C3489 C3488 1.387 . S
H3490 C3502 0.930 . S
H3491 C3504 0.930 . S
H3492 C3505 0.930 . S
H3493 C3509 0.959 . S
H3494 C3509 0.959 . S
H3495 C3509 0.961 . S
H3496 C3510 0.960 . S
H3497 C3510 0.961 . S
H3498 C3510 0.959 . S
H3499 C3513 0.929 . S
H3500 C3514 0.931 . S
H3501 C3516 0.930 . S
C3502 H3490 0.930 . S
C3502 C3503 1.399 . S
C3502 C3507 1.399 . S
C3503 C3502 1.399 . S
C3503 C3504 1.376 . S
C3504 H3491 0.930 . S
C3504 C3503 1.376 . S
C3504 C3505 1.388 . S
C3505 H3492 0.930 . S
C3505 C3504 1.388 . S
C3505 C3506 1.390 . S
C3506 C3505 1.390 . S
C3506 C3507 1.394 . S
C3506 C3512 1.465 . S
C3507 C3502 1.399 . S
C3507 C3506 1.394 . S
C3507 C3508 1.516 . S
C3508 C3507 1.516 . S
C3508 C3509 1.502 . S
C3508 C3510 1.561 . S
C3508 C3511 1.526 . S
C3509 H3493 0.959 . S
C3509 H3494 0.959 . S
C3509 H3495 0.961 . S
C3509 C3508 1.502 . S
C3510 H3496 0.960 . S
C3510 H3497 0.961 . S
C3510 H3498 0.959 . S
C3510 C3508 1.561 . S
C3511 C3508 1.526 . S
C3511 C3512 1.396 . S
C3511 C3516 1.390 . S
C3512 C3506 1.465 . S
C3512 C3511 1.396 . S
C3512 C3513 1.399 . S
C3513 H3499 0.929 . S
C3513 C3512 1.399 . S
C3513 C3514 1.385 . S
C3514 H3500 0.931 . S
C3514 C3513 1.385 . S
C3514 C3515 1.389 . S
C3515 C3514 1.389 . S
C3515 C3516 1.387 . S
C3516 H3501 0.930 . S
C3516 C3511 1.390 . S
C3516 C3515 1.387 . S
H3517 C3529 0.930 . S
H3518 C3531 0.930 . S
H3519 C3532 0.930 . S
H3520 C3536 0.959 . S
H3521 C3536 0.959 . S
H3522 C3536 0.961 . S
H3523 C3537 0.960 . S
H3524 C3537 0.961 . S
H3525 C3537 0.959 . S
H3526 C3540 0.929 . S
H3527 C3541 0.931 . S
H3528 C3543 0.930 . S
C3529 H3517 0.930 . S
C3529 C3530 1.399 . S
C3529 C3534 1.399 . S
C3530 C3529 1.399 . S
C3530 C3531 1.376 . S
C3531 H3518 0.930 . S
C3531 C3530 1.376 . S
C3531 C3532 1.388 . S
C3532 H3519 0.930 . S
C3532 C3531 1.388 . S
C3532 C3533 1.390 . S
C3533 C3532 1.390 . S
C3533 C3534 1.394 . S
C3533 C3539 1.465 . S
C3534 C3529 1.399 . S
C3534 C3533 1.394 . S
C3534 C3535 1.516 . S
C3535 C3534 1.516 . S
C3535 C3536 1.502 . S
C3535 C3537 1.561 . S
C3535 C3538 1.526 . S
C3536 H3520 0.959 . S
C3536 H3521 0.959 . S
C3536 H3522 0.961 . S
C3536 C3535 1.502 . S
C3537 H3523 0.960 . S
C3537 H3524 0.961 . S
C3537 H3525 0.959 . S
C3537 C3535 1.561 . S
C3538 C3535 1.526 . S
C3538 C3539 1.396 . S
C3538 C3543 1.390 . S
C3539 C3533 1.465 . S
C3539 C3538 1.396 . S
C3539 C3540 1.399 . S
C3540 H3526 0.929 . S
C3540 C3539 1.399 . S
C3540 C3541 1.385 . S
C3541 H3527 0.931 . S
C3541 C3540 1.385 . S
C3541 C3542 1.389 . S
C3542 C3541 1.389 . S
C3542 C3543 1.387 . S
C3543 H3528 0.930 . S
C3543 C3538 1.390 . S
C3543 C3542 1.387 . S
C965 C101 2.321 . S
C977 C322 2.189 . S
C992 C57 1.919 . S
C1004 C370 1.967 . S
C1019 C70 1.150 . S
C1031 C402 1.101 . S
C1058 C447 1.607 . S
C1046 C82 1.640 . S
C1073 C23 0.863 . S
C1085 C487 0.898 . S
C1112 C522 0.799 . S
C1100 C29 0.772 . S
C1139 C561 1.324 . S
C1127 C49 1.306 . S
C1154 C10 1.237 . S
C1166 C598 1.197 . S
C1193 C330 1.997 . S
C1181 C218 1.989 . S
C1208 C226 0.485 . S
C1220 C367 0.479 . S
C1247 C410 2.331 . S
C1235 C251 2.322 . S
C1274 C442 0.999 . S
C1262 C159 0.985 1_556 S
C1289 C211 1.144 . S
C1301 C482 1.160 . S
C1328 C530 0.188 . S
C1316 C225 0.378 . S
C1355 C571 1.965 . S
C1343 C252 2.020 . S
C1382 C601 1.975 . S
C1370 C166 1.987 . S
C1409 C327 1.539 . S
C1397 C147 1.519 . S
C1424 C263 2.043 . S
C1436 C650 2.058 . S
C1463 C687 1.238 . S
C1451 C309 1.308 . S
C1490 C718 0.723 . S
C1478 C291 0.812 . S
C1505 C108 2.742 . S
C1517 C611 2.702 . S
C1532 C121 1.419 . S
C1544 C407 1.419 . S
C1559 C302 1.702 . S
C1571 C770 1.738 . S
C1598 C802 1.757 . S
C1586 C276 1.775 . S
C1625 C331 2.314 . S
C1613 C55 2.353 . S
C1652 C801 2.332 . S
C1640 C96 2.339 . S
C1667 C88 1.491 . S
C1679 C411 1.463 . S
C1694 C75 1.785 . S
C1706 C758 1.736 . S
C1733 C478 1.066 . S
C1721 C4 1.083 . S
C1748 C44 1.341 . S
C1760 C691 1.325 . S
C1787 C570 1.331 1_556 S
C1775 C31 1.324 . S
C1814 C847 1.385 . S
C1802 C18 1.365 . S
C1841 C321 2.201 1_556 S
C1829 C133 2.206 . S
C1868 C798 0.605 . S
C1856 C296 0.317 . S
C1883 C107 2.598 . S
C1895 C401 2.583 . S
C1910 C264 1.349 . S
C1922 C771 1.323 . S
C1937 C140 1.515 . S
C1949 C491 1.494 . S
C1976 C681 0.689 . S
C1964 C289 0.662 . S
C1991 C114 2.343 . S
C2003 C562 2.244 . S
C2018 C265 2.110 . S
C2030 C850 2.083 . S
C2045 C179 1.322 . S
C2057 C318 1.292 . S
C2072 C161 2.407 . S
C2084 C641 2.382 . S
C2099 C244 1.369 . S
C2111 C518 1.338 . S
C2126 C224 0.603 . S
C2138 C727 0.622 . S
C2165 C842 2.868 . S
C2153 C257 2.933 . S
C2180 C199 1.594 . S
C2192 C398 1.598 . S
C2219 C441 1.956 . S
C2207 C237 1.942 . S
C2246 C371 2.025 . S
C2234 C185 2.011 . S
C2261 C69 2.304 . S
C2273 C882 2.237 . S
C2300 C810 1.962 . S
C2288 C83 1.919 . S
C2315 C94 1.154 . S
C2327 C922 1.152 . S
C2342 C56 1.638 . S
C2354 C767 1.609 . S
C2369 C42 0.913 . S
C2381 C647 0.889 . S
C2408 C682 0.737 . S
C2396 C3 0.773 . S
C2435 C721 1.346 . S
C2423 C16 1.333 . S
C2462 C838 1.228 . S
C2450 C36 1.237 . S
C2489 C890 1.997 . S
C2477 C238 1.989 . S
C2504 C174 0.450 . S
C2516 C807 0.530 . S
C2543 C930 2.314 . S
C2531 C186 2.305 . S
C2570 C762 0.940 . S
C2558 C198 0.997 . S
C2597 C642 1.158 . S
C2585 C239 1.144 . S
C2612 C173 0.323 . S
C2624 C690 0.332 . S
C2651 C731 1.915 . S
C2639 C187 1.999 . S
C2666 C205 1.985 . S
C2678 C841 1.990 . S
C2705 C887 1.508 . S
C2693 C290 1.542 . S
C2720 C122 2.045 . S
C2732 C490 2.070 . S
C2759 C527 1.249 . S
C2747 C134 1.284 1_565 S
C2786 C558 0.802 . S
C2774 C148 0.690 . S
C2813 C851 2.701 . S
C2801 C283 2.736 . S
C2828 C270 1.429 . S
C2840 C927 1.397 . S
C2867 C450 1.745 . S
C2855 C135 1.660 . S
C2894 C362 1.733 . S
C2882 C109 1.761 . S
C2909 C81 2.353 . S
C2921 C891 2.313 . S
C2948 C361 2.304 . S
C2936 C68 2.336 . S
C2963 C62 1.512 . S
C2975 C931 1.509 . S
C2990 C95 1.788 . S
C3002 C438 1.721 . S
C3017 C30 1.090 . S
C3029 C638 1.083 . S
C3056 C531 1.307 . S
C3044 C17 1.326 . S
C3071 C5 1.332 . S
C3083 C730 1.309 . S
C3098 C43 1.364 . S
C3110 C607 1.380 . S
C3137 C881 2.206 . S
C3125 C304 2.204 . S
C3152 C153 0.557 . S
C3164 C358 0.364 . S
C3191 C921 2.582 1_656 S
C3179 C278 2.597 . S
C3206 C127 1.370 . S
C3218 C451 1.371 . S
C3233 C303 1.513 . S
C3245 C651 1.495 . S
C3272 C521 0.692 . S
C3260 C146 0.660 . S
C3287 C277 2.338 . S
C3299 C722 2.245 1_655 S
C3326 C610 2.078 . S
C3314 C120 2.093 . S
C3353 C878 1.343 . S
C3341 C231 1.274 . S
C3380 C481 2.354 1_665 S
C3368 C200 2.406 . S
C3395 C212 1.372 . S
C3407 C678 1.338 . S
C3434 C567 0.620 . S
C3422 C172 0.606 . S
C3449 C192 2.932 . S
C3461 C602 2.867 . S
C3476 C160 1.591 . S
C3488 C918 1.598 . S
C3515 C761 1.928 . S
C3503 C213 1.933 . S
C3542 C811 2.031 . S
C3530 C250 2.017 . S
