# Generated by pormake.
# Topology pyr, (3,6)-cn, num edge types: 1
# Building blocks:
#     Node 0, Type 0, BuildingBlock: OLANEW_clean_sbu_2, # of connection points: 3
#     Node 1, Type 0, BuildingBlock: OLANEW_clean_sbu_2, # of connection points: 3
#     Node 2, Type 0, BuildingBlock: OLANEW_clean_sbu_2, # of connection points: 3
#     Node 3, Type 0, BuildingBlock: OLANEW_clean_sbu_2, # of connection points: 3
#     Node 4, Type 0, BuildingBlock: OLANEW_clean_sbu_2, # of connection points: 3
#     Node 5, Type 0, BuildingBlock: OLANEW_clean_sbu_2, # of connection points: 3
#     Node 6, Type 0, BuildingBlock: OLANEW_clean_sbu_2, # of connection points: 3
#     Node 7, Type 0, BuildingBlock: OLANEW_clean_sbu_2, # of connection points: 3
#     Node 8, Type 1, BuildingBlock: MIFKUJ_clean_sbu_0, # of connection points: 6
#     Node 9, Type 1, BuildingBlock: MIFKUJ_clean_sbu_0, # of connection points: 6
#     Node 10, Type 1, BuildingBlock: MIFKUJ_clean_sbu_0, # of connection points: 6
#     Node 11, Type 1, BuildingBlock: MIFKUJ_clean_sbu_0, # of connection points: 6
#     Edge 12, Type (0, 1), BuildingBlock: TEMPAE_clean_linker_10, # of connection points: 2
#     Edge 13, Type (0, 1), BuildingBlock: TEMPAE_clean_linker_10, # of connection points: 2
#     Edge 14, Type (0, 1), BuildingBlock: TEMPAE_clean_linker_10, # of connection points: 2
#     Edge 15, Type (0, 1), BuildingBlock: TEMPAE_clean_linker_10, # of connection points: 2
#     Edge 16, Type (0, 1), BuildingBlock: TEMPAE_clean_linker_10, # of connection points: 2
#     Edge 17, Type (0, 1), BuildingBlock: TEMPAE_clean_linker_10, # of connection points: 2
#     Edge 18, Type (0, 1), BuildingBlock: TEMPAE_clean_linker_10, # of connection points: 2
#     Edge 19, Type (0, 1), BuildingBlock: TEMPAE_clean_linker_10, # of connection points: 2
#     Edge 20, Type (0, 1), BuildingBlock: TEMPAE_clean_linker_10, # of connection points: 2
#     Edge 21, Type (0, 1), BuildingBlock: TEMPAE_clean_linker_10, # of connection points: 2
#     Edge 22, Type (0, 1), BuildingBlock: TEMPAE_clean_linker_10, # of connection points: 2
#     Edge 23, Type (0, 1), BuildingBlock: TEMPAE_clean_linker_10, # of connection points: 2
#     Edge 24, Type (0, 1), BuildingBlock: TEMPAE_clean_linker_10, # of connection points: 2
#     Edge 25, Type (0, 1), BuildingBlock: TEMPAE_clean_linker_10, # of connection points: 2
#     Edge 26, Type (0, 1), BuildingBlock: TEMPAE_clean_linker_10, # of connection points: 2
#     Edge 27, Type (0, 1), BuildingBlock: TEMPAE_clean_linker_10, # of connection points: 2
#     Edge 28, Type (0, 1), BuildingBlock: TEMPAE_clean_linker_10, # of connection points: 2
#     Edge 29, Type (0, 1), BuildingBlock: TEMPAE_clean_linker_10, # of connection points: 2
#     Edge 30, Type (0, 1), BuildingBlock: TEMPAE_clean_linker_10, # of connection points: 2
#     Edge 31, Type (0, 1), BuildingBlock: TEMPAE_clean_linker_10, # of connection points: 2
#     Edge 32, Type (0, 1), BuildingBlock: TEMPAE_clean_linker_10, # of connection points: 2
#     Edge 33, Type (0, 1), BuildingBlock: TEMPAE_clean_linker_10, # of connection points: 2
#     Edge 34, Type (0, 1), BuildingBlock: TEMPAE_clean_linker_10, # of connection points: 2
#     Edge 35, Type (0, 1), BuildingBlock: TEMPAE_clean_linker_10, # of connection points: 2
# Relax obj value: 0.072
# Max RMSD: 0.168
# Mean RMSD: 0.122
data_MOF--net-pyr--node1-OLANEW_clean_sbu_2--node2-MIFKUJ_clean_sbu_0--edge1-TEMPAE_clean_linker_10
_symmetry_space_group_name_H-M    P1
_symmetry_Int_Tables_number       1
_symmetry_cell_setting            triclinic
loop_
_symmetry_equiv_pos_as_xyz
'x, y, z'
_cell_length_a     42.271311
_cell_length_b     38.174235
_cell_length_c     39.867799
_cell_angle_alpha  90.23158
_cell_angle_beta   87.079978
_cell_angle_gamma 101.58211
loop_
_atom_site_label
_atom_site_type_symbol
_atom_site_fract_x
_atom_site_fract_y
_atom_site_fract_z
_atom_type_partial_charge
O0 O 0.23207 0.15775 0.17638 0.0
Cd1 Cd 0.18322 0.17096 0.20515 0.0
O2 O 0.24758 0.13697 0.22288 0.0
Cd3 Cd 0.20657 0.14509 0.25531 0.0
O4 O 0.17264 0.1377 0.29899 0.0
C5 C 0.18232 0.15033 0.32706 0.0
O6 O 0.21189 0.16917 0.32838 0.0
C7 C 0.25236 0.144 0.19167 0.0
C8 C 0.16129 0.22757 0.17616 0.0
O9 O 0.18144 0.23302 0.1995 0.0
O10 O 0.1517 0.19533 0.16635 0.0
O11 O 0.41226 0.91171 0.784 0.0
Cd12 Cd 0.38389 0.89301 0.73308 0.0
O13 O 0.36862 0.89926 0.81775 0.0
Cd14 Cd 0.33561 0.88792 0.77697 0.0
O15 O 0.29545 0.89383 0.74661 0.0
C16 C 0.29111 0.92554 0.74282 0.0
O17 O 0.31136 0.95198 0.7561 0.0
C18 C 0.39906 0.90981 0.8135 0.0
C19 C 0.41331 0.84364 0.69802 0.0
O20 O 0.42217 0.87726 0.69216 0.0
O21 O 0.39034 0.8334 0.72024 0.0
O22 O 0.7675 0.4406 0.84328 0.0
Cd23 Cd 0.71325 0.41512 0.82407 0.0
O24 O 0.77656 0.38642 0.85066 0.0
Cd25 Cd 0.72811 0.35696 0.84131 0.0
O26 O 0.6893 0.31515 0.86221 0.0
C27 C 0.679 0.31991 0.89205 0.0
O28 O 0.69034 0.3503 0.90691 0.0
C29 C 0.78629 0.42016 0.85146 0.0
C30 C 0.68774 0.45244 0.77506 0.0
O31 O 0.6822 0.45755 0.80644 0.0
O32 O 0.70627 0.43067 0.76686 0.0
O33 O 0.91671 0.74678 0.36776 0.0
Cd34 Cd 0.88361 0.7007 0.33407 0.0
O35 O 0.92209 0.71215 0.41011 0.0
Cd36 Cd 0.88861 0.66719 0.3897 0.0
O37 O 0.83873 0.63764 0.3927 0.0
C38 C 0.81706 0.65643 0.3934 0.0
O39 O 0.82602 0.6913 0.38999 0.0
C40 C 0.928 0.74281 0.39617 0.0
C41 C 0.91629 0.66132 0.29004 0.0
O42 O 0.91435 0.69356 0.28316 0.0
O43 O 0.90357 0.64785 0.31815 0.0
O44 O 0.84012 0.78467 0.77543 0.0
Cd45 Cd 0.81251 0.73829 0.81439 0.0
O46 O 0.82862 0.82311 0.81254 0.0
Cd47 Cd 0.8237 0.87458 0.83429 0.0
O48 O 0.80002 0.91047 0.86495 0.0
C49 C 0.76954 0.90082 0.8696 0.0
O50 O 0.75493 0.87124 0.85539 0.0
C51 C 0.84194 0.81694 0.7844 0.0
C52 C 0.85699 0.71534 0.85387 0.0
O53 O 0.84771 0.69876 0.82696 0.0
O54 O 0.84507 0.74266 0.86218 0.0
O55 O 0.65729 0.07614 0.37391 0.0
Cd56 Cd 0.67156 0.07719 0.43259 0.0
O57 O 0.6399 0.12489 0.38639 0.0
Cd58 Cd 0.61542 0.17005 0.38293 0.0
O59 O 0.59982 0.21992 0.39538 0.0
C60 C 0.58208 0.22095 0.42194 0.0
O61 O 0.5726 0.19159 0.43991 0.0
C62 C 0.6437 0.10114 0.36489 0.0
C63 C 0.73538 0.07282 0.44275 0.0
O64 O 0.71324 0.04457 0.44108 0.0
O65 O 0.72741 0.10318 0.43887 0.0
O66 O 0.43333 0.74189 0.20842 0.0
Cd67 Cd 0.40384 0.68298 0.22808 0.0
O68 O 0.39245 0.76829 0.22052 0.0
Cd69 Cd 0.35743 0.71815 0.22784 0.0
O70 O 0.31504 0.67975 0.21254 0.0
C71 C 0.2925 0.69275 0.20063 0.0
O72 O 0.2956 0.72768 0.19945 0.0
C73 C 0.42177 0.77018 0.21044 0.0
C74 C 0.42794 0.66052 0.28669 0.0
O75 O 0.43949 0.65368 0.25759 0.0
O76 O 0.40508 0.67811 0.28809 0.0
O77 O 0.15853 0.5005 0.74585 0.0
Cd78 Cd 0.17766 0.49419 0.68749 0.0
O79 O 0.15048 0.44228 0.7497 0.0
Cd80 Cd 0.13243 0.38824 0.76952 0.0
O81 O 0.11813 0.33124 0.75828 0.0
C82 C 0.1045 0.32401 0.73068 0.0
O83 O 0.09887 0.35051 0.71247 0.0
C84 C 0.14873 0.47214 0.76312 0.0
C85 C 0.24476 0.50617 0.67613 0.0
O86 O 0.22939 0.53181 0.6746 0.0
O87 O 0.22844 0.4749 0.68375 0.0
Zn88 Zn 0.05384 0.01167 0.59926 0.0
Zn89 Zn 0.99454 0.02827 0.56779 0.0
C90 C 0.08054 0.08146 0.62261 0.0
O91 O 0.10583 0.07454 0.60528 0.0
C92 C 0.97037 0.95829 0.54312 0.0
O93 O 0.94429 0.96414 0.55973 0.0
O94 O 0.09183 0.99279 0.61459 0.0
O95 O 0.01404 0.97635 0.61529 0.0
O96 O 0.98423 0.0173 0.61692 0.0
C97 C 0.09252 0.98429 0.64528 0.0
O98 O 0.06806 0.98752 0.66596 0.0
O99 O 0.0544 0.05816 0.62371 0.0
C100 C 0.95308 0.04727 0.51929 0.0
O101 O 0.97626 0.04075 0.49842 0.0
O102 O 0.95603 0.04466 0.5507 0.0
O103 O 0.03385 0.06467 0.55255 0.0
O104 O 0.0623 0.0225 0.5498 0.0
O105 O 0.99615 0.98204 0.54346 0.0
C106 C 0.98989 0.98801 0.62767 0.0
C107 C 0.05661 0.05166 0.53868 0.0
Zn108 Zn 0.57484 0.04082 0.05294 0.0
Zn109 Zn 0.51803 0.07091 0.07838 0.0
C110 C 0.53736 0.99257 0.00879 0.0
O111 O 0.55187 0.97031 0.02419 0.0
C112 C 0.53182 0.0796 0.14671 0.0
O113 O 0.50091 0.06477 0.14902 0.0
O114 O 0.61427 0.02239 0.03633 0.0
O115 O 0.58735 0.09445 0.0521 0.0
O116 O 0.53891 0.09742 0.03671 0.0
C117 C 0.62594 0.03353 0.00737 0.0
O118 O 0.613 0.05716 0.99196 0.0
O119 O 0.54296 0.0253 0.0172 0.0
C120 C 0.44877 0.07014 0.08249 0.0
O121 O 0.44647 0.03874 0.06814 0.0
O122 O 0.47655 0.08824 0.08848 0.0
O123 O 0.50774 0.01685 0.07975 0.0
O124 O 0.55641 0.01521 0.09591 0.0
O125 O 0.54574 0.08603 0.11773 0.0
C126 C 0.56911 0.11012 0.03582 0.0
C127 C 0.52636 0.00162 0.09608 0.0
Zn128 Zn 0.54038 0.5253 0.53056 0.0
Zn129 Zn 0.53448 0.59456 0.56365 0.0
C130 C 0.59019 0.55034 0.48034 0.0
O131 O 0.56791 0.53317 0.46109 0.0
C132 C 0.48246 0.56338 0.60906 0.0
O133 O 0.5027 0.58052 0.63038 0.0
O134 O 0.5364 0.47517 0.51306 0.0
O135 O 0.54309 0.52177 0.58107 0.0
O136 O 0.57047 0.57678 0.58522 0.0
C137 C 0.55911 0.45914 0.51914 0.0
O138 O 0.58278 0.47547 0.53721 0.0
O139 O 0.58381 0.55146 0.51179 0.0
C140 C 0.50695 0.65483 0.57312 0.0
O141 O 0.48934 0.63737 0.54982 0.0
O142 O 0.5306 0.6424 0.58321 0.0
O143 O 0.5366 0.60054 0.51341 0.0
O144 O 0.50636 0.54707 0.50893 0.0
O145 O 0.49148 0.56345 0.57814 0.0
C146 C 0.56436 0.54448 0.59536 0.0
C147 C 0.51563 0.57887 0.49783 0.0
Zn148 Zn 0.02437 0.55308 0.02314 0.0
Zn149 Zn 0.05157 0.4927 0.0679 0.0
C150 C 0.98995 0.5175 0.97062 0.0
O151 O 0.01408 0.53889 0.95441 0.0
C152 C 0.09639 0.53176 0.10993 0.0
O153 O 0.0762 0.51125 0.13124 0.0
O154 O 0.01639 0.59789 0.00135 0.0
O155 O 0.01396 0.55827 0.07246 0.0
O156 O 0.01468 0.50598 0.09611 0.0
C157 C 0.9876 0.60195 0.00811 0.0
O158 O 0.96956 0.58034 0.03027 0.0
O159 O 0.9896 0.51618 0.00256 0.0
C160 C 0.08521 0.43626 0.07473 0.0
O161 O 0.10379 0.4558 0.0515 0.0
O162 O 0.05976 0.44625 0.08595 0.0
O163 O 0.04921 0.48654 0.01747 0.0
O164 O 0.06793 0.54352 0.0072 0.0
O165 O 0.09118 0.52929 0.07878 0.0
C166 C 0.00707 0.53656 0.09704 0.0
C167 C 0.06597 0.51105 0.99885 0.0
C168 C 0.1734 0.15315 0.38949 0.0
C169 C 0.16195 0.14071 0.35831 0.0
C170 C 0.15581 0.14143 0.41956 0.0
C171 C 0.12611 0.11663 0.4184 0.0
C172 C 0.1138 0.10506 0.38699 0.0
C173 C 0.13184 0.11728 0.35731 0.0
C174 C 0.16959 0.15455 0.45259 0.0
C175 C 0.08217 0.07866 0.38475 0.0
C176 C 0.09931 0.05389 0.49256 0.0
C177 C 0.07516 0.06922 0.50869 0.0
C178 C 0.11625 0.06931 0.46337 0.0
C179 C 0.10897 0.1009 0.44999 0.0
C180 C 0.08499 0.11685 0.4664 0.0
C181 C 0.06833 0.10079 0.49556 0.0
C182 C 0.14166 0.05148 0.44656 0.0
C183 C 0.07668 0.15061 0.45293 0.0
H184 H 0.19654 0.17141 0.39051 0.0
H185 H 0.12273 0.10762 0.33335 0.0
H186 H 0.15133 0.16499 0.46854 0.0
H187 H 0.17591 0.13196 0.46644 0.0
H188 H 0.19162 0.17592 0.44915 0.0
H189 H 0.07491 0.0742 0.35844 0.0
H190 H 0.08434 0.05263 0.39572 0.0
H191 H 0.06264 0.08821 0.39951 0.0
H192 H 0.10478 0.02954 0.50252 0.0
H193 H 0.04973 0.11283 0.50788 0.0
H194 H 0.16524 0.07054 0.44446 0.0
H195 H 0.1349 0.04347 0.42069 0.0
H196 H 0.14482 0.02737 0.46049 0.0
H197 H 0.09868 0.17206 0.45057 0.0
H198 H 0.05815 0.16027 0.46924 0.0
H199 H 0.06742 0.14577 0.42743 0.0
C200 C 0.40435 0.91977 0.8753 0.0
C201 C 0.41893 0.92071 0.84279 0.0
C202 C 0.42274 0.93101 0.90313 0.0
C203 C 0.45652 0.94347 0.89835 0.0
C204 C 0.47145 0.94423 0.86569 0.0
C205 C 0.45249 0.93284 0.83831 0.0
C206 C 0.40599 0.92977 0.93761 0.0
C207 C 0.50745 0.95729 0.85965 0.0
C208 C 0.50127 0.00383 0.96389 0.0
C209 C 0.51567 0.97985 0.98139 0.0
C210 C 0.48166 0.99226 0.93702 0.0
C211 C 0.4763 0.95587 0.92749 0.0
C212 C 0.49035 0.93144 0.94538 0.0
C213 C 0.50987 0.94372 0.97212 0.0
C214 C 0.46701 0.01908 0.91856 0.0
C215 C 0.48511 0.8924 0.936 0.0
H216 H 0.37845 0.91045 0.87904 0.0
H217 H 0.46399 0.93367 0.81332 0.0
H218 H 0.41658 0.91286 0.95469 0.0
H219 H 0.40981 0.95702 0.94844 0.0
H220 H 0.37958 0.91901 0.93711 0.0
H221 H 0.51536 0.95592 0.83276 0.0
H222 H 0.51445 0.98538 0.8681 0.0
H223 H 0.52073 0.94105 0.87458 0.0
H224 H 0.50558 0.03178 0.97094 0.0
H225 H 0.52083 0.92499 0.98557 0.0
H226 H 0.44033 0.01031 0.91897 0.0
H227 H 0.47595 0.02071 0.89184 0.0
H228 H 0.4729 0.04623 0.92961 0.0
H229 H 0.45886 0.88058 0.93679 0.0
H230 H 0.49708 0.8767 0.95299 0.0
H231 H 0.49471 0.88968 0.90991 0.0
C232 C 0.64721 0.48812 0.75838 0.0
C233 C 0.67181 0.46962 0.74911 0.0
C234 C 0.63008 0.50196 0.73402 0.0
C235 C 0.6379 0.4975 0.6995 0.0
C236 C 0.66337 0.47982 0.68998 0.0
C237 C 0.6799 0.46596 0.71487 0.0
C238 C 0.60298 0.52044 0.74522 0.0
C239 C 0.6727 0.47485 0.65346 0.0
C240 C 0.57361 0.49828 0.63624 0.0
C241 C 0.58257 0.53298 0.62279 0.0
C242 C 0.59118 0.48659 0.66144 0.0
C243 C 0.61861 0.51002 0.67336 0.0
C244 C 0.62772 0.54513 0.66003 0.0
C245 C 0.60952 0.55625 0.63503 0.0
C246 C 0.58049 0.44903 0.67518 0.0
C247 C 0.65696 0.57081 0.67185 0.0
H248 H 0.64072 0.49102 0.78475 0.0
H249 H 0.69894 0.45183 0.70744 0.0
H250 H 0.60695 0.54753 0.73381 0.0
H251 H 0.57972 0.50518 0.73645 0.0
H252 H 0.60073 0.523 0.77296 0.0
H253 H 0.69419 0.46228 0.65023 0.0
H254 H 0.65222 0.45774 0.64115 0.0
H255 H 0.678 0.50103 0.64019 0.0
H256 H 0.55281 0.48011 0.62702 0.0
H257 H 0.61674 0.58305 0.62471 0.0
H258 H 0.57595 0.44976 0.70281 0.0
H259 H 0.59995 0.43375 0.67028 0.0
H260 H 0.55817 0.43444 0.66385 0.0
H261 H 0.65436 0.57472 0.69936 0.0
H262 H 0.66065 0.59731 0.6592 0.0
H263 H 0.67894 0.55948 0.66692 0.0
C264 C 0.95665 0.65634 0.24324 0.0
C265 C 0.93127 0.63981 0.26533 0.0
C266 C 0.96955 0.63672 0.21802 0.0
C267 C 0.95592 0.59997 0.21403 0.0
C268 C 0.93056 0.58303 0.23662 0.0
C269 C 0.9189 0.60306 0.26239 0.0
C270 C 0.99728 0.65555 0.19514 0.0
C271 C 0.91471 0.54423 0.2326 0.0
C272 C 0.96627 0.56715 0.12495 0.0
C273 C 0.99132 0.54844 0.12769 0.0
C274 C 0.95341 0.58242 0.15325 0.0
C275 C 0.96681 0.58011 0.18482 0.0
C276 C 0.99176 0.56061 0.18782 0.0
C277 C 0.00335 0.54444 0.15924 0.0
C278 C 0.92612 0.60197 0.1491 0.0
C279 C 0.00739 0.55845 0.22075 0.0
H280 H 0.96638 0.68471 0.24565 0.0
H281 H 0.89905 0.59032 0.27928 0.0
H282 H 0.01696 0.64016 0.19368 0.0
H283 H 0.98896 0.65724 0.16937 0.0
H284 H 0.00731 0.68307 0.20375 0.0
H285 H 0.89644 0.53456 0.25326 0.0
H286 H 0.90261 0.54069 0.2084 0.0
H287 H 0.93312 0.52721 0.23178 0.0
H288 H 0.95693 0.57013 0.10053 0.0
H289 H 0.02301 0.53033 0.16125 0.0
H290 H 0.93484 0.63101 0.15304 0.0
H291 H 0.90623 0.59262 0.16822 0.0
H292 H 0.91624 0.59813 0.12375 0.0
H293 H 0.0199 0.5856 0.22806 0.0
H294 H 0.02528 0.54072 0.21932 0.0
H295 H 0.9888 0.54848 0.24097 0.0
C296 C 0.28785 0.14362 0.13914 0.0
C297 C 0.28118 0.1352 0.17334 0.0
C298 C 0.3148 0.13453 0.12168 0.0
C299 C 0.3354 0.11648 0.13881 0.0
C300 C 0.32886 0.10807 0.17333 0.0
C301 C 0.30193 0.11759 0.19015 0.0
C302 C 0.32117 0.14412 0.08492 0.0
C303 C 0.35021 0.08877 0.19251 0.0
C304 C 0.38869 0.06102 0.09254 0.0
C305 C 0.41934 0.08325 0.09392 0.0
C306 C 0.36093 0.07203 0.10596 0.0
C307 C 0.36389 0.10617 0.12092 0.0
C308 C 0.39457 0.1293 0.12114 0.0
C309 C 0.42193 0.11752 0.10774 0.0
C310 C 0.32863 0.04656 0.10536 0.0
C311 C 0.39869 0.16598 0.13667 0.0
H312 H 0.27199 0.15724 0.12595 0.0
H313 H 0.29702 0.1109 0.21655 0.0
H314 H 0.34562 0.16113 0.08079 0.0
H315 H 0.32072 0.11951 0.0699 0.0
H316 H 0.30311 0.15859 0.07536 0.0
H317 H 0.34174 0.08416 0.21926 0.0
H318 H 0.35088 0.06254 0.18071 0.0
H319 H 0.37535 0.10449 0.19151 0.0
H320 H 0.38643 0.03454 0.08186 0.0
H321 H 0.44549 0.135 0.10871 0.0
H322 H 0.31046 0.05993 0.09454 0.0
H323 H 0.31981 0.0384 0.13142 0.0
H324 H 0.33001 0.02212 0.09059 0.0
H325 H 0.3814 0.181 0.1264 0.0
H326 H 0.42361 0.18186 0.13219 0.0
H327 H 0.39327 0.16335 0.16417 0.0
C328 C 0.23978 0.90437 0.71327 0.0
C329 C 0.26271 0.93259 0.72568 0.0
C330 C 0.21191 0.91081 0.69867 0.0
C331 C 0.20689 0.94628 0.69647 0.0
C332 C 0.23025 0.97491 0.70833 0.0
C333 C 0.25786 0.96772 0.72275 0.0
C334 C 0.18755 0.87963 0.6862 0.0
C335 C 0.22578 0.01312 0.70638 0.0
C336 C 0.14792 0.97078 0.63619 0.0
C337 C 0.12108 0.97251 0.65789 0.0
C338 C 0.17575 0.9614 0.64823 0.0
C339 C 0.17676 0.95358 0.68278 0.0
C340 C 0.14948 0.95443 0.70466 0.0
C341 C 0.12197 0.96388 0.69195 0.0
C342 C 0.20435 0.96069 0.62413 0.0
C343 C 0.14962 0.94622 0.74167 0.0
H344 H 0.24335 0.87715 0.71538 0.0
H345 H 0.27545 0.98972 0.73218 0.0
H346 H 0.16418 0.87759 0.70078 0.0
H347 H 0.18299 0.88392 0.65951 0.0
H348 H 0.19569 0.85386 0.68843 0.0
H349 H 0.2467 0.03242 0.71576 0.0
H350 H 0.22237 0.02027 0.68005 0.0
H351 H 0.20369 0.01609 0.72146 0.0
H352 H 0.14741 0.9773 0.60981 0.0
H353 H 0.10131 0.965 0.70888 0.0
H354 H 0.21178 0.93449 0.62563 0.0
H355 H 0.22524 0.98149 0.63119 0.0
H356 H 0.19906 0.9655 0.59772 0.0
H357 H 0.15576 0.91962 0.7453 0.0
H358 H 0.12593 0.94643 0.755 0.0
H359 H 0.16845 0.96625 0.75349 0.0
C360 C 0.82789 0.47137 0.87193 0.0
C361 C 0.81849 0.43488 0.86466 0.0
C362 C 0.85679 0.48452 0.88788 0.0
C363 C 0.87675 0.46064 0.89671 0.0
C364 C 0.86797 0.42406 0.88836 0.0
C365 C 0.83903 0.41165 0.87246 0.0
C366 C 0.86554 0.5238 0.89613 0.0
C367 C 0.8887 0.39777 0.8971 0.0
C368 C 0.96377 0.4992 0.9168 0.0
C369 C 0.96172 0.49977 0.95204 0.0
C370 C 0.93641 0.48622 0.89846 0.0
C371 C 0.90623 0.47359 0.91576 0.0
C372 C 0.90416 0.47327 0.95135 0.0
C373 C 0.93196 0.48625 0.96908 0.0
C374 C 0.93971 0.48672 0.86056 0.0
C375 C 0.87241 0.45993 0.97072 0.0
H376 H 0.81223 0.48952 0.86604 0.0
H377 H 0.83215 0.38343 0.86683 0.0
H378 H 0.8655 0.52727 0.92378 0.0
H379 H 0.89032 0.53527 0.88588 0.0
H380 H 0.84851 0.53924 0.8859 0.0
H381 H 0.87936 0.37058 0.88729 0.0
H382 H 0.91385 0.40713 0.8868 0.0
H383 H 0.88967 0.39596 0.92478 0.0
H384 H 0.98672 0.50947 0.90344 0.0
H385 H 0.93014 0.48681 0.99629 0.0
H386 H 0.92486 0.50475 0.85048 0.0
H387 H 0.93051 0.45961 0.85059 0.0
H388 H 0.96516 0.49591 0.85097 0.0
H389 H 0.8547 0.47643 0.96435 0.0
H390 H 0.87497 0.46083 0.99832 0.0
H391 H 0.86221 0.43199 0.96352 0.0
C392 C 0.77357 0.60356 0.40983 0.0
C393 C 0.78272 0.64003 0.40167 0.0
C394 C 0.74169 0.58855 0.42091 0.0
C395 C 0.7184 0.61053 0.4238 0.0
C396 C 0.7272 0.64704 0.41445 0.0
C397 C 0.75925 0.66135 0.40352 0.0
C398 C 0.73317 0.54945 0.43056 0.0
C399 C 0.70299 0.67127 0.41699 0.0
C400 C 0.62947 0.56587 0.43096 0.0
C401 C 0.62268 0.56674 0.46575 0.0
C402 C 0.66047 0.58022 0.41689 0.0
C403 C 0.68526 0.59573 0.43813 0.0
C404 C 0.67848 0.59698 0.47322 0.0
C405 C 0.64727 0.58252 0.4866 0.0
C406 C 0.66676 0.57855 0.37935 0.0
C407 C 0.7043 0.61334 0.49668 0.0
H408 H 0.79153 0.58686 0.40842 0.0
H409 H 0.76604 0.68953 0.39712 0.0
H410 H 0.72625 0.54673 0.45779 0.0
H411 H 0.71203 0.53571 0.41687 0.0
H412 H 0.75357 0.53559 0.42513 0.0
H413 H 0.71317 0.69847 0.40681 0.0
H414 H 0.68125 0.65964 0.40318 0.0
H415 H 0.69494 0.67373 0.44367 0.0
H416 H 0.6106 0.55378 0.41466 0.0
H417 H 0.64224 0.58329 0.5135 0.0
H418 H 0.68579 0.56288 0.3736 0.0
H419 H 0.67583 0.60586 0.36901 0.0
H420 H 0.64473 0.56613 0.36627 0.0
H421 H 0.72465 0.59894 0.49459 0.0
H422 H 0.69503 0.61243 0.52331 0.0
H423 H 0.71416 0.64161 0.48949 0.0
C424 C 0.12765 0.25134 0.13519 0.0
C425 C 0.14929 0.25758 0.16112 0.0
C426 C 0.11612 0.27953 0.12073 0.0
C427 C 0.12645 0.31481 0.1325 0.0
C428 C 0.14816 0.32126 0.15877 0.0
C429 C 0.15934 0.29259 0.17274 0.0
C430 C 0.09304 0.27161 0.09272 0.0
C431 C 0.15971 0.35852 0.17202 0.0
C432 C 0.12266 0.39323 0.07557 0.0
C433 C 0.09482 0.40423 0.0887 0.0
C434 C 0.13297 0.36391 0.08932 0.0
C435 C 0.11506 0.34512 0.11694 0.0
C436 C 0.08669 0.35576 0.13005 0.0
C437 C 0.07688 0.38517 0.11575 0.0
C438 C 0.16329 0.35332 0.07456 0.0
C439 C 0.06698 0.33639 0.15951 0.0
H440 H 0.11973 0.22437 0.12607 0.0
H441 H 0.176 0.29766 0.1928 0.0
H442 H 0.07031 0.28079 0.09972 0.0
H443 H 0.10381 0.28651 0.06969 0.0
H444 H 0.087 0.24266 0.08675 0.0
H445 H 0.17619 0.35896 0.19292 0.0
H446 H 0.17263 0.37618 0.15153 0.0
H447 H 0.13873 0.36998 0.18109 0.0
H448 H 0.13664 0.40773 0.05464 0.0
H449 H 0.05537 0.3935 0.12608 0.0
H450 H 0.1579 0.32493 0.06669 0.0
H451 H 0.1816 0.35579 0.09387 0.0
H452 H 0.17398 0.3701 0.05253 0.0
H453 H 0.05932 0.30757 0.15371 0.0
H454 H 0.0451 0.34743 0.16619 0.0
H455 H 0.08198 0.33833 0.18174 0.0
C456 C 0.64793 0.29546 0.94473 0.0
C457 C 0.65801 0.29023 0.91133 0.0
C458 C 0.63126 0.26678 0.96467 0.0
C459 C 0.62453 0.23201 0.9509 0.0
C460 C 0.63341 0.22677 0.91681 0.0
C461 C 0.65001 0.25597 0.89739 0.0
C462 C 0.62199 0.27346 0.00088 0.0
C463 C 0.62654 0.19008 0.90121 0.0
C464 C 0.61677 0.1536 0.01105 0.0
C465 C 0.58315 0.1417 0.01455 0.0
C466 C 0.63049 0.1829 0.99035 0.0
C467 C 0.61011 0.20083 0.97276 0.0
C468 C 0.57615 0.18908 0.97625 0.0
C469 C 0.56307 0.15962 0.99708 0.0
C470 C 0.66684 0.19461 0.98723 0.0
C471 C 0.55367 0.20759 0.95792 0.0
H472 H 0.65383 0.32186 0.95567 0.0
H473 H 0.65763 0.25168 0.87159 0.0
H474 H 0.59597 0.26218 0.00646 0.0
H475 H 0.63589 0.25976 0.01764 0.0
H476 H 0.6268 0.30239 0.00703 0.0
H477 H 0.63287 0.19092 0.8738 0.0
H478 H 0.64066 0.1726 0.91344 0.0
H479 H 0.60059 0.17755 0.90535 0.0
H480 H 0.63249 0.13985 0.02433 0.0
H481 H 0.53705 0.1506 0.99961 0.0
H482 H 0.67402 0.22278 0.9954 0.0
H483 H 0.67549 0.19341 0.96059 0.0
H484 H 0.67929 0.17773 0.0025 0.0
H485 H 0.55757 0.23617 0.96514 0.0
H486 H 0.52783 0.19518 0.96337 0.0
H487 H 0.55904 0.20672 0.93044 0.0
C488 C 0.94432 0.80915 0.40275 0.0
C489 C 0.94376 0.77462 0.41508 0.0
C490 C 0.95305 0.83933 0.42304 0.0
C491 C 0.96171 0.83496 0.45638 0.0
C492 C 0.96365 0.80052 0.46808 0.0
C493 C 0.95456 0.77074 0.44733 0.0
C494 C 0.95072 0.8756 0.40956 0.0
C495 C 0.97325 0.7948 0.50328 0.0
C496 C 0.9966 0.91906 0.50455 0.0
C497 C 0.96896 0.92568 0.52247 0.0
C498 C 0.99489 0.88918 0.48346 0.0
C499 C 0.9648 0.86558 0.48007 0.0
C500 C 0.93698 0.8718 0.4986 0.0
C501 C 0.93944 0.90166 0.51962 0.0
C502 C 0.0251 0.88323 0.46437 0.0
C503 C 0.90439 0.84734 0.49565 0.0
H504 H 0.9362 0.81253 0.37783 0.0
H505 H 0.9545 0.74424 0.45702 0.0
H506 H 0.92996 0.88466 0.42255 0.0
H507 H 0.97283 0.89564 0.41458 0.0
H508 H 0.94723 0.87511 0.38212 0.0
H509 H 0.97809 0.76755 0.50689 0.0
H510 H 0.99513 0.81475 0.50928 0.0
H511 H 0.95348 0.79849 0.52151 0.0
H512 H 0.01955 0.93744 0.50668 0.0
H513 H 0.91795 0.9065 0.53336 0.0
H514 H 0.02234 0.88563 0.437 0.0
H515 H 0.0289 0.8558 0.46913 0.0
H516 H 0.04696 0.90274 0.47135 0.0
H517 H 0.89702 0.84727 0.46932 0.0
H518 H 0.88527 0.85551 0.51227 0.0
H519 H 0.90586 0.81951 0.50216 0.0
C520 C 0.41907 0.78067 0.68635 0.0
C521 C 0.42913 0.81739 0.67969 0.0
C522 C 0.43353 0.75546 0.66895 0.0
C523 C 0.45868 0.76721 0.64426 0.0
C524 C 0.4692 0.80424 0.63765 0.0
C525 C 0.45429 0.82889 0.65544 0.0
C526 C 0.42161 0.71617 0.67668 0.0
C527 C 0.49591 0.81776 0.61148 0.0
C528 C 0.51156 0.7009 0.61864 0.0
C529 C 0.49691 0.68594 0.58968 0.0
C530 C 0.49991 0.72807 0.63625 0.0
C531 C 0.47305 0.74056 0.62456 0.0
C532 C 0.45889 0.72639 0.59473 0.0
C533 C 0.47097 0.69927 0.57769 0.0
C534 C 0.51566 0.7426 0.66794 0.0
C535 C 0.4303 0.73909 0.58137 0.0
H536 H 0.39971 0.77154 0.70509 0.0
H537 H 0.46227 0.85721 0.65018 0.0
H538 H 0.41168 0.7021 0.65393 0.0
H539 H 0.44199 0.70394 0.6839 0.0
H540 H 0.40252 0.71149 0.69729 0.0
H541 H 0.50201 0.84743 0.61012 0.0
H542 H 0.518 0.80781 0.61711 0.0
H543 H 0.48855 0.80734 0.58644 0.0
H544 H 0.53158 0.69072 0.62809 0.0
H545 H 0.45958 0.688 0.55525 0.0
H546 H 0.49819 0.73577 0.68979 0.0
H547 H 0.5226 0.77218 0.66655 0.0
H548 H 0.53753 0.73168 0.67253 0.0
H549 H 0.40927 0.73241 0.59964 0.0
H550 H 0.42323 0.72675 0.55687 0.0
H551 H 0.43593 0.76858 0.57821 0.0
C552 C 0.8618 0.84096 0.72759 0.0
C553 C 0.85976 0.84612 0.76239 0.0
C554 C 0.88141 0.8665 0.70636 0.0
C555 C 0.89983 0.89771 0.72036 0.0
C556 C 0.89713 0.90359 0.7554 0.0
C557 C 0.87703 0.87769 0.77604 0.0
C558 C 0.88332 0.85943 0.66907 0.0
C559 C 0.91665 0.93636 0.77127 0.0
C560 C 0.97667 0.93806 0.66952 0.0
C561 C 0.96747 0.9665 0.653 0.0
C562 C 0.95519 0.91622 0.69234 0.0
C563 C 0.92359 0.92271 0.69852 0.0
C564 C 0.91433 0.9518 0.68244 0.0
C565 C 0.93646 0.9735 0.65998 0.0
C566 C 0.9661 0.88567 0.70927 0.0
C567 C 0.88076 0.95933 0.68818 0.0
H568 H 0.84841 0.81658 0.71697 0.0
H569 H 0.87615 0.88138 0.80299 0.0
H570 H 0.87899 0.88278 0.65483 0.0
H571 H 0.90792 0.85547 0.66128 0.0
H572 H 0.86551 0.83537 0.66191 0.0
H573 H 0.90969 0.93852 0.79833 0.0
H574 H 0.94272 0.93532 0.76881 0.0
H575 H 0.91358 0.96091 0.75811 0.0
H576 H 0.00068 0.93268 0.66444 0.0
H577 H 0.92915 0.99538 0.64722 0.0
H578 H 0.95157 0.85985 0.70106 0.0
H579 H 0.96209 0.88718 0.73691 0.0
H580 H 0.99207 0.88564 0.70337 0.0
H581 H 0.86274 0.9366 0.67889 0.0
H582 H 0.87792 0.98413 0.6752 0.0
H583 H 0.87504 0.96192 0.71543 0.0
C584 C 0.62565 0.13213 0.31598 0.0
C585 C 0.63085 0.10075 0.33097 0.0
C586 C 0.61134 0.13121 0.28486 0.0
C587 C 0.60251 0.09817 0.26813 0.0
C588 C 0.60906 0.06666 0.28242 0.0
C589 C 0.62313 0.06834 0.31365 0.0
C590 C 0.60491 0.1654 0.27031 0.0
C591 C 0.60023 0.03093 0.26525 0.0
C592 C 0.53364 0.08387 0.20906 0.0
C593 C 0.55018 0.08673 0.17748 0.0
C594 C 0.55044 0.08854 0.23868 0.0
C595 C 0.58466 0.09599 0.23674 0.0
C596 C 0.60156 0.09963 0.20494 0.0
C597 C 0.58409 0.09509 0.17563 0.0
C598 C 0.53153 0.08473 0.27211 0.0
C599 C 0.63804 0.10729 0.2019 0.0
H600 H 0.63287 0.15748 0.32842 0.0
H601 H 0.6273 0.04398 0.32493 0.0
H602 H 0.61597 0.1697 0.24445 0.0
H603 H 0.57848 0.16336 0.26861 0.0
H604 H 0.61452 0.18912 0.2857 0.0
H605 H 0.60889 0.00941 0.27856 0.0
H606 H 0.57358 0.0232 0.26401 0.0
H607 H 0.61065 0.03276 0.23905 0.0
H608 H 0.50743 0.07763 0.2107 0.0
H609 H 0.59702 0.09724 0.15131 0.0
H610 H 0.5392 0.1089 0.28755 0.0
H611 H 0.53658 0.0616 0.28617 0.0
H612 H 0.50504 0.08068 0.26926 0.0
H613 H 0.64798 0.13145 0.21648 0.0
H614 H 0.64752 0.11141 0.1754 0.0
H615 H 0.64713 0.08464 0.21262 0.0
C616 C 0.46689 0.63096 0.31585 0.0
C617 C 0.44057 0.64833 0.31772 0.0
C618 C 0.47912 0.61931 0.345 0.0
C619 C 0.46461 0.62501 0.37683 0.0
C620 C 0.43797 0.64238 0.3789 0.0
C621 C 0.42632 0.6539 0.34935 0.0
C622 C 0.50767 0.60105 0.34176 0.0
C623 C 0.42179 0.64885 0.41236 0.0
C624 C 0.47817 0.56742 0.45038 0.0
C625 C 0.50241 0.59059 0.46695 0.0
C626 C 0.46555 0.5783 0.4211 0.0
C627 C 0.47755 0.61312 0.40799 0.0
C628 C 0.50202 0.63661 0.42458 0.0
C629 C 0.51409 0.6251 0.45386 0.0
C630 C 0.43938 0.55252 0.4042 0.0
C631 C 0.51555 0.6739 0.41133 0.0
H632 H 0.47808 0.62656 0.29155 0.0
H633 H 0.40594 0.66722 0.35105 0.0
H634 H 0.52803 0.61632 0.35564 0.0
H635 H 0.50113 0.57393 0.35317 0.0
H636 H 0.51613 0.59853 0.31518 0.0
H637 H 0.40109 0.66235 0.40966 0.0
H638 H 0.41293 0.62307 0.42579 0.0
H639 H 0.43953 0.66563 0.42834 0.0
H640 H 0.46895 0.54073 0.46031 0.0
H641 H 0.53284 0.64321 0.46644 0.0
H642 H 0.44765 0.54754 0.37809 0.0
H643 H 0.41755 0.56434 0.40273 0.0
H644 H 0.43249 0.5265 0.41771 0.0
H645 H 0.52604 0.67258 0.38538 0.0
H646 H 0.53456 0.68887 0.42715 0.0
H647 H 0.49589 0.68916 0.41016 0.0
C648 C 0.14072 0.45185 0.82314 0.0
C649 C 0.1347 0.47435 0.79758 0.0
C650 C 0.12945 0.45584 0.85646 0.0
C651 C 0.11099 0.48228 0.86408 0.0
C652 C 0.10386 0.50413 0.83803 0.0
C653 C 0.11628 0.5003 0.80521 0.0
C654 C 0.13819 0.43263 0.88367 0.0
C655 C 0.08344 0.53188 0.84487 0.0
C656 C 0.05991 0.47554 0.94606 0.0
C657 C 0.07815 0.50248 0.9651 0.0
C658 C 0.07025 0.46861 0.9131 0.0
C659 C 0.10013 0.48821 0.89941 0.0
C660 C 0.11911 0.51468 0.91905 0.0
C661 C 0.10757 0.52196 0.95145 0.0
C662 C 0.04873 0.44118 0.89258 0.0
C663 C 0.15146 0.53556 0.90571 0.0
H664 H 0.15531 0.43208 0.81731 0.0
H665 H 0.11143 0.51755 0.78537 0.0
H666 H 0.15287 0.44967 0.90215 0.0
H667 H 0.11601 0.41808 0.89744 0.0
H668 H 0.15213 0.41283 0.87352 0.0
H669 H 0.07803 0.5447 0.82145 0.0
H670 H 0.06027 0.5195 0.8583 0.0
H671 H 0.0962 0.55299 0.86137 0.0
H672 H 0.03692 0.46077 0.95651 0.0
H673 H 0.12172 0.54267 0.96631 0.0
H674 H 0.06203 0.42047 0.88341 0.0
H675 H 0.04155 0.45426 0.87017 0.0
H676 H 0.02648 0.42785 0.90712 0.0
H677 H 0.16705 0.51698 0.89656 0.0
H678 H 0.16429 0.55324 0.92503 0.0
H679 H 0.14806 0.55233 0.88405 0.0
C680 C 0.7661 0.95161 0.90899 0.0
C681 C 0.75063 0.92194 0.89098 0.0
C682 C 0.74818 0.97139 0.92954 0.0
C683 C 0.71402 0.96136 0.93194 0.0
C684 C 0.69831 0.93146 0.91383 0.0
C685 C 0.71679 0.91209 0.89367 0.0
C686 C 0.76575 0.00304 0.94861 0.0
C687 C 0.6619 0.92004 0.91554 0.0
C688 C 0.66337 0.99011 0.00452 0.0
C689 C 0.65119 0.01753 0.98958 0.0
C690 C 0.68493 0.9725 0.98648 0.0
C691 C 0.6944 0.98247 0.9527 0.0
C692 C 0.68315 0.01103 0.93795 0.0
C693 C 0.66176 0.02825 0.95658 0.0
C694 C 0.6966 0.94233 0.00315 0.0
C695 C 0.69261 0.02242 0.90198 0.0
H696 H 0.79225 0.95932 0.90715 0.0
H697 H 0.7046 0.88924 0.87984 0.0
H698 H 0.75812 0.02775 0.94061 0.0
H699 H 0.75934 0.99945 0.97588 0.0
H700 H 0.79243 0.00688 0.94462 0.0
H701 H 0.65345 0.89597 0.90015 0.0
H702 H 0.65286 0.91413 0.94193 0.0
H703 H 0.65089 0.94211 0.90659 0.0
H704 H 0.65543 0.98174 0.03004 0.0
H705 H 0.65261 0.04951 0.94484 0.0
H706 H 0.72332 0.94636 1.00018 0.0
H707 H 0.68648 0.91669 0.99083 0.0
H708 H 0.68932 0.93993 0.03035 0.0
H709 H 0.71929 0.02785 0.89777 0.0
H710 H 0.68365 0.04672 0.89502 0.0
H711 H 0.68256 0.00046 0.88486 0.0
C712 C 0.7768 0.0371 0.45587 0.0
C713 C 0.76883 0.07049 0.45038 0.0
C714 C 0.80774 0.03452 0.46543 0.0
C715 C 0.83131 0.06608 0.46957 0.0
C716 C 0.82372 0.09982 0.46318 0.0
C717 C 0.79256 0.10163 0.45367 0.0
C718 C 0.81494 0.99803 0.47195 0.0
C719 C 0.84827 0.13404 0.46723 0.0
C720 C 0.89725 0.05916 0.52884 0.0
C721 C 0.92278 0.05463 0.50643 0.0
C722 C 0.8676 0.06367 0.51711 0.0
C723 C 0.86335 0.06371 0.48212 0.0
C724 C 0.88926 0.06009 0.45933 0.0
C725 C 0.91869 0.05557 0.47176 0.0
C726 C 0.84053 0.06751 0.54222 0.0
C727 C 0.88565 0.06012 0.42184 0.0
H728 H 0.75866 0.0129 0.45331 0.0
H729 H 0.78663 0.12753 0.4494 0.0
H730 H 0.8367 0.99443 0.45663 0.0
H731 H 0.82029 0.99569 0.49872 0.0
H732 H 0.79446 0.97606 0.46613 0.0
H733 H 0.83918 0.15797 0.45944 0.0
H734 H 0.85462 0.13719 0.49389 0.0
H735 H 0.87085 0.133 0.45214 0.0
H736 H 0.9002 0.05853 0.55566 0.0
H737 H 0.9383 0.05216 0.45426 0.0
H738 H 0.81988 0.04471 0.53983 0.0
H739 H 0.83167 0.0923 0.53701 0.0
H740 H 0.84815 0.06837 0.56852 0.0
H741 H 0.867 0.03678 0.41486 0.0
H742 H 0.90863 0.05894 0.40747 0.0
H743 H 0.87732 0.08452 0.41413 0.0
C744 C 0.26222 0.63236 0.18387 0.0
C745 C 0.2637 0.66924 0.18721 0.0
C746 C 0.23531 0.61007 0.17045 0.0
C747 C 0.20916 0.62498 0.1604 0.0
C748 C 0.21047 0.66215 0.16381 0.0
C749 C 0.23775 0.68383 0.17706 0.0
C750 C 0.23483 0.57056 0.16705 0.0
C751 C 0.18293 0.67899 0.15369 0.0
C752 C 0.15035 0.57288 0.10019 0.0
C753 C 0.12494 0.55646 0.12237 0.0
C754 C 0.17798 0.59524 0.11219 0.0
C755 C 0.18004 0.60156 0.14713 0.0
C756 C 0.15423 0.58547 0.16955 0.0
C757 C 0.12709 0.56301 0.15691 0.0
C758 C 0.20512 0.6118 0.08755 0.0
C759 C 0.15533 0.59187 0.20693 0.0
H760 H 0.28221 0.62088 0.1915 0.0
H761 H 0.23865 0.71229 0.17959 0.0
H762 H 0.21408 0.55504 0.18232 0.0
H763 H 0.23151 0.56232 0.14053 0.0
H764 H 0.25742 0.56329 0.17525 0.0
H765 H 0.18782 0.70836 0.1577 0.0
H766 H 0.1784 0.6737 0.1268 0.0
H767 H 0.16043 0.66685 0.16839 0.0
H768 H 0.14887 0.56783 0.07348 0.0
H769 H 0.10745 0.55061 0.17421 0.0
H770 H 0.22774 0.60323 0.09368 0.0
H771 H 0.20967 0.64137 0.08952 0.0
H772 H 0.19975 0.60428 0.06119 0.0
H773 H 0.1763 0.58255 0.2168 0.0
H774 H 0.13298 0.57786 0.22089 0.0
H775 H 0.15865 0.62092 0.21212 0.0
C776 C 0.2973 0.54648 0.65869 0.0
C777 C 0.28013 0.51234 0.66827 0.0
C778 C 0.33051 0.55253 0.64981 0.0
C779 C 0.34703 0.52375 0.65056 0.0
C780 C 0.32996 0.48931 0.66062 0.0
C781 C 0.2967 0.484 0.66934 0.0
C782 C 0.34787 0.58969 0.63926 0.0
C783 C 0.34679 0.45803 0.66188 0.0
C784 C 0.42525 0.53627 0.59664 0.0
C785 C 0.44836 0.54893 0.62018 0.0
C786 C 0.39224 0.52677 0.60638 0.0
C787 C 0.38212 0.52989 0.64049 0.0
C788 C 0.40545 0.5411 0.66459 0.0
C789 C 0.43828 0.55051 0.65414 0.0
C790 C 0.36809 0.51485 0.57994 0.0
C791 C 0.39565 0.54456 0.70122 0.0
H792 H 0.28473 0.56854 0.65778 0.0
H793 H 0.28364 0.45753 0.67672 0.0
H794 H 0.36816 0.59922 0.65578 0.0
H795 H 0.35842 0.5892 0.61325 0.0
H796 H 0.3316 0.60923 0.64031 0.0
H797 H 0.33024 0.43312 0.67093 0.0
H798 H 0.35701 0.45315 0.6365 0.0
H799 H 0.36729 0.46417 0.67868 0.0
H800 H 0.4328 0.53492 0.57035 0.0
H801 H 0.45596 0.56011 0.67255 0.0
H802 H 0.35271 0.53498 0.57742 0.0
H803 H 0.35188 0.48922 0.58751 0.0
H804 H 0.38 0.51136 0.555 0.0
H805 H 0.38175 0.56623 0.70423 0.0
H806 H 0.41685 0.55076 0.71716 0.0
H807 H 0.37964 0.51948 0.71055 0.0
C808 C 0.88718 0.6687 0.87045 0.0
C809 C 0.88023 0.70283 0.87514 0.0
C810 C 0.90748 0.65552 0.89182 0.0
C811 C 0.92156 0.67723 0.9182 0.0
C812 C 0.91573 0.71227 0.9222 0.0
C813 C 0.8949 0.72457 0.90078 0.0
C814 C 0.9128 0.61782 0.88703 0.0
C815 C 0.93067 0.73634 0.94976 0.0
C816 C 0.93955 0.62621 0.99371 0.0
C817 C 0.97242 0.62561 0.98757 0.0
C818 C 0.92304 0.6439 0.97185 0.0
C819 C 0.93987 0.66191 0.94332 0.0
C820 C 0.97345 0.66311 0.93789 0.0
C821 C 0.98935 0.64476 0.96004 0.0
C822 C 0.88716 0.64172 0.97843 0.0
C823 C 0.99225 0.68253 0.90798 0.0
H824 H 0.87595 0.65178 0.85067 0.0
H825 H 0.88988 0.75112 0.90432 0.0
H826 H 0.93904 0.61784 0.8841 0.0
H827 H 0.90317 0.60146 0.90961 0.0
H828 H 0.90084 0.60477 0.86474 0.0
H829 H 0.92642 0.76399 0.94737 0.0
H830 H 0.92028 0.72536 0.97455 0.0
H831 H 0.95711 0.73742 0.94946 0.0
H832 H 0.92626 0.61164 0.01499 0.0
H833 H 0.01476 0.64446 0.95515 0.0
H834 H 0.87378 0.62655 0.95798 0.0
H835 H 0.88154 0.66888 0.97858 0.0
H836 H 0.87806 0.62835 0.00273 0.0
H837 H 0.98439 0.66821 0.88462 0.0
H838 H 0.01872 0.68442 0.90941 0.0
H839 H 0.98736 0.70992 0.90599 0.0
C840 C 0.43229 0.83699 0.20791 0.0
C841 C 0.4413 0.80484 0.19828 0.0
C842 C 0.44822 0.86974 0.19361 0.0
C843 C 0.47328 0.87025 0.16856 0.0
C844 C 0.48324 0.83805 0.15959 0.0
C845 C 0.46734 0.80575 0.17483 0.0
C846 C 0.4374 0.90362 0.20442 0.0
C847 C 0.50953 0.83741 0.13263 0.0
C848 C 0.48502 0.9454 0.10425 0.0
C849 C 0.51314 0.96801 0.11456 0.0
C850 C 0.47212 0.91327 0.12136 0.0
C851 C 0.4873 0.90397 0.14995 0.0
C852 C 0.51555 0.92692 0.1607 0.0
C853 C 0.52837 0.95851 0.14259 0.0
C854 C 0.4423 0.88923 0.10872 0.0
C855 C 0.53196 0.91831 0.1915 0.0
H856 H 0.41235 0.83648 0.22623 0.0
H857 H 0.47431 0.78098 0.16714 0.0
H858 H 0.45854 0.92454 0.2106 0.0
H859 H 0.42559 0.91407 0.18347 0.0
H860 H 0.42003 0.89923 0.22659 0.0
H861 H 0.51587 0.81062 0.13009 0.0
H862 H 0.50143 0.84504 0.10814 0.0
H863 H 0.53164 0.85722 0.13815 0.0
H864 H 0.47334 0.95257 0.08243 0.0
H865 H 0.54998 0.97616 0.15077 0.0
H866 H 0.42228 0.88616 0.12826 0.0
H867 H 0.44722 0.86219 0.10352 0.0
H868 H 0.4341 0.89978 0.08546 0.0
H869 H 0.51466 0.91543 0.21368 0.0
H870 H 0.5534 0.93927 0.19685 0.0
H871 H 0.53978 0.89241 0.1882 0.0
C872 C 0.08409 0.28005 0.68624 0.0
C873 C 0.09748 0.28693 0.71768 0.0
C874 C 0.07962 0.2458 0.67213 0.0
C875 C 0.08865 0.21762 0.68989 0.0
C876 C 0.10115 0.22404 0.72213 0.0
C877 C 0.10546 0.25865 0.73564 0.0
C878 C 0.06621 0.24006 0.63768 0.0
C879 C 0.11088 0.1946 0.7419 0.0
C880 C 0.05636 0.12276 0.66062 0.0
C881 C 0.08261 0.11593 0.64045 0.0
C882 C 0.05813 0.1555 0.67739 0.0
C883 C 0.08676 0.18207 0.67375 0.0
C884 C 0.1134 0.17519 0.65365 0.0
C885 C 0.11102 0.14222 0.63731 0.0
C886 C 0.02927 0.16182 0.69871 0.0
C887 C 0.14432 0.20289 0.649 0.0
H888 H 0.07771 0.30165 0.6722 0.0
H889 H 0.11571 0.26368 0.75999 0.0
H890 H 0.08476 0.23278 0.61975 0.0
H891 H 0.04502 0.21754 0.63834 0.0
H892 H 0.05874 0.26424 0.62796 0.0
H893 H 0.11805 0.20329 0.76753 0.0
H894 H 0.09065 0.17106 0.7441 0.0
H895 H 0.13153 0.18577 0.72848 0.0
H896 H 0.03434 0.10254 0.66329 0.0
H897 H 0.13144 0.1372 0.62181 0.0
H898 H 0.02013 0.1846 0.68834 0.0
H899 H 0.03645 0.16908 0.72461 0.0
H900 H 0.00924 0.13797 0.69995 0.0
H901 H 0.13928 0.22727 0.63707 0.0
H902 H 0.16306 0.19306 0.63316 0.0
H903 H 0.15423 0.21082 0.67376 0.0
C904 C 0.55646 0.25652 0.46439 0.0
C905 C 0.57466 0.2553 0.43412 0.0
C906 C 0.55157 0.28919 0.47777 0.0
C907 C 0.56521 0.32143 0.46049 0.0
C908 C 0.58264 0.32031 0.42936 0.0
C909 C 0.58715 0.28726 0.41653 0.0
C910 C 0.53274 0.28929 0.51099 0.0
C911 C 0.59749 0.35413 0.41015 0.0
C912 C 0.53574 0.40657 0.48394 0.0
C913 C 0.55989 0.42341 0.50486 0.0
C914 C 0.53701 0.37324 0.46942 0.0
C915 C 0.56302 0.35643 0.476 0.0
C916 C 0.58728 0.37315 0.49733 0.0
C917 C 0.58541 0.40641 0.51149 0.0
C918 C 0.51069 0.35617 0.44684 0.0
C919 C 0.6154 0.35606 0.50499 0.0
H920 H 0.5466 0.23198 0.4781 0.0
H921 H 0.60115 0.28659 0.39307 0.0
H922 H 0.54897 0.30285 0.53017 0.0
H923 H 0.51318 0.30453 0.50875 0.0
H924 H 0.52183 0.26185 0.52009 0.0
H925 H 0.60848 0.34855 0.3853 0.0
H926 H 0.57895 0.37036 0.40625 0.0
H927 H 0.61653 0.37058 0.42493 0.0
H928 H 0.51596 0.41954 0.47865 0.0
H929 H 0.60417 0.41919 0.52763 0.0
H930 H 0.499 0.32926 0.4566 0.0
H931 H 0.5213 0.3525 0.42135 0.0
H932 H 0.49184 0.37243 0.44469 0.0
H933 H 0.60639 0.32926 0.51647 0.0
H934 H 0.63207 0.3724 0.52235 0.0
H935 H 0.62931 0.35219 0.48138 0.0
loop_
_geom_bond_atom_site_label_1
_geom_bond_atom_site_label_2
_geom_bond_distance
_geom_bond_site_symmetry_2
_ccdc_geom_bond_type
O0 Cd1 2.300 . S
O0 C7 1.275 . S
Cd1 O0 2.300 . S
Cd1 O9 2.381 . S
Cd1 O10 2.378 . S
O2 Cd3 2.385 . S
O2 C7 1.255 . S
Cd3 O2 2.385 . S
Cd3 O4 2.317 . S
O4 Cd3 2.317 . S
O4 C5 1.232 . S
C5 O4 1.232 . S
C5 O6 1.218 . S
O6 C5 1.218 . S
C7 O0 1.275 . S
C7 O2 1.255 . S
C8 O9 1.258 . S
C8 O10 1.256 . S
O9 Cd1 2.381 . S
O9 C8 1.258 . S
O10 Cd1 2.378 . S
O10 C8 1.256 . S
O11 Cd12 2.300 . S
O11 C18 1.275 . S
Cd12 O11 2.300 . S
Cd12 O20 2.381 . S
Cd12 O21 2.378 . S
O13 Cd14 2.385 . S
O13 C18 1.255 . S
Cd14 O13 2.385 . S
Cd14 O15 2.317 . S
O15 Cd14 2.317 . S
O15 C16 1.232 . S
C16 O15 1.232 . S
C16 O17 1.218 . S
O17 C16 1.218 . S
C18 O11 1.275 . S
C18 O13 1.255 . S
C19 O20 1.258 . S
C19 O21 1.256 . S
O20 Cd12 2.381 . S
O20 C19 1.258 . S
O21 Cd12 2.378 . S
O21 C19 1.256 . S
O22 Cd23 2.300 . S
O22 C29 1.275 . S
Cd23 O22 2.300 . S
Cd23 O31 2.381 . S
Cd23 O32 2.378 . S
O24 Cd25 2.385 . S
O24 C29 1.255 . S
Cd25 O24 2.385 . S
Cd25 O26 2.317 . S
O26 Cd25 2.317 . S
O26 C27 1.232 . S
C27 O26 1.232 . S
C27 O28 1.218 . S
O28 C27 1.218 . S
C29 O22 1.275 . S
C29 O24 1.255 . S
C30 O31 1.258 . S
C30 O32 1.256 . S
O31 Cd23 2.381 . S
O31 C30 1.258 . S
O32 Cd23 2.378 . S
O32 C30 1.256 . S
O33 Cd34 2.300 . S
O33 C40 1.275 . S
Cd34 O33 2.300 . S
Cd34 O42 2.381 . S
Cd34 O43 2.378 . S
O35 Cd36 2.385 . S
O35 C40 1.255 . S
Cd36 O35 2.385 . S
Cd36 O37 2.317 . S
O37 Cd36 2.317 . S
O37 C38 1.232 . S
C38 O37 1.232 . S
C38 O39 1.218 . S
O39 C38 1.218 . S
C40 O33 1.275 . S
C40 O35 1.255 . S
C41 O42 1.258 . S
C41 O43 1.256 . S
O42 Cd34 2.381 . S
O42 C41 1.258 . S
O43 Cd34 2.378 . S
O43 C41 1.256 . S
O44 Cd45 2.300 . S
O44 C51 1.275 . S
Cd45 O44 2.300 . S
Cd45 O53 2.381 . S
Cd45 O54 2.378 . S
O46 Cd47 2.385 . S
O46 C51 1.255 . S
Cd47 O46 2.385 . S
Cd47 O48 2.317 . S
O48 Cd47 2.317 . S
O48 C49 1.232 . S
C49 O48 1.232 . S
C49 O50 1.218 . S
O50 C49 1.218 . S
C51 O44 1.275 . S
C51 O46 1.255 . S
C52 O53 1.258 . S
C52 O54 1.256 . S
O53 Cd45 2.381 . S
O53 C52 1.258 . S
O54 Cd45 2.378 . S
O54 C52 1.256 . S
O55 Cd56 2.300 . S
O55 C62 1.275 . S
Cd56 O55 2.300 . S
Cd56 O64 2.381 . S
Cd56 O65 2.378 . S
O57 Cd58 2.385 . S
O57 C62 1.255 . S
Cd58 O57 2.385 . S
Cd58 O59 2.317 . S
O59 Cd58 2.317 . S
O59 C60 1.232 . S
C60 O59 1.232 . S
C60 O61 1.218 . S
O61 C60 1.218 . S
C62 O55 1.275 . S
C62 O57 1.255 . S
C63 O64 1.258 . S
C63 O65 1.256 . S
O64 Cd56 2.381 . S
O64 C63 1.258 . S
O65 Cd56 2.378 . S
O65 C63 1.256 . S
O66 Cd67 2.300 . S
O66 C73 1.275 . S
Cd67 O66 2.300 . S
Cd67 O75 2.381 . S
Cd67 O76 2.378 . S
O68 Cd69 2.385 . S
O68 C73 1.255 . S
Cd69 O68 2.385 . S
Cd69 O70 2.317 . S
O70 Cd69 2.317 . S
O70 C71 1.232 . S
C71 O70 1.232 . S
C71 O72 1.218 . S
O72 C71 1.218 . S
C73 O66 1.275 . S
C73 O68 1.255 . S
C74 O75 1.258 . S
C74 O76 1.256 . S
O75 Cd67 2.381 . S
O75 C74 1.258 . S
O76 Cd67 2.378 . S
O76 C74 1.256 . S
O77 Cd78 2.300 . S
O77 C84 1.275 . S
Cd78 O77 2.300 . S
Cd78 O86 2.381 . S
Cd78 O87 2.378 . S
O79 Cd80 2.385 . S
O79 C84 1.255 . S
Cd80 O79 2.385 . S
Cd80 O81 2.317 . S
O81 Cd80 2.317 . S
O81 C82 1.232 . S
C82 O81 1.232 . S
C82 O83 1.218 . S
O83 C82 1.218 . S
C84 O77 1.275 . S
C84 O79 1.255 . S
C85 O86 1.258 . S
C85 O87 1.256 . S
O86 Cd78 2.381 . S
O86 C85 1.258 . S
O87 Cd78 2.378 . S
O87 C85 1.256 . S
Zn88 O94 1.969 1_545 S
Zn88 O95 1.965 1_545 S
Zn88 O99 2.024 . S
Zn88 O104 1.969 . S
Zn89 O96 1.969 1_545 S
Zn89 O102 1.969 . S
Zn89 O103 1.965 1_655 S
Zn89 O105 2.024 1_545 S
C90 O91 1.229 . S
C90 O99 1.058 . S
O91 C90 1.229 . S
C92 O93 1.229 . S
C92 O105 1.058 . S
O93 C92 1.229 . S
O94 Zn88 1.969 1_565 S
O94 C97 1.267 . S
O95 Zn88 1.965 1_565 S
O95 C106 1.260 1_455 S
O96 Zn89 1.969 1_565 S
O96 C106 1.258 . S
C97 O94 1.267 . S
C97 O98 1.228 . S
O98 C97 1.228 . S
O99 Zn88 2.024 . S
O99 C90 1.058 . S
C100 O101 1.228 . S
C100 O102 1.267 . S
O101 C100 1.228 . S
O102 Zn89 1.969 . S
O102 C100 1.267 . S
O103 Zn89 1.965 1_455 S
O103 C107 1.260 . S
O104 Zn88 1.969 . S
O104 C107 1.258 . S
O105 Zn89 2.024 1_565 S
O105 C92 1.058 . S
C106 O95 1.260 1_655 S
C106 O96 1.258 . S
C107 O103 1.260 . S
C107 O104 1.258 . S
Zn108 O114 1.969 1_545 S
Zn108 O115 1.965 . S
Zn108 O119 2.024 1_554 S
Zn108 O124 1.969 1_545 S
Zn109 O116 1.969 . S
Zn109 O122 1.969 . S
Zn109 O123 1.965 . S
Zn109 O125 2.024 . S
C110 O111 1.229 . S
C110 O119 1.058 1_565 S
O111 C110 1.229 . S
C112 O113 1.229 . S
C112 O125 1.058 . S
O113 C112 1.229 . S
O114 Zn108 1.969 1_565 S
O114 C117 1.267 1_554 S
O115 Zn108 1.965 . S
O115 C126 1.260 . S
O116 Zn109 1.969 . S
O116 C126 1.258 . S
C117 O114 1.267 1_556 S
C117 O118 1.228 1_565 S
O118 C117 1.228 1_545 S
O119 Zn108 2.024 1_556 S
O119 C110 1.058 1_545 S
C120 O121 1.228 . S
C120 O122 1.267 . S
O121 C120 1.228 . S
O122 Zn109 1.969 . S
O122 C120 1.267 . S
O123 Zn109 1.965 . S
O123 C127 1.260 1_545 S
O124 Zn108 1.969 1_565 S
O124 C127 1.258 . S
O125 Zn109 2.024 . S
O125 C112 1.058 . S
C126 O115 1.260 . S
C126 O116 1.258 . S
C127 O123 1.260 1_565 S
C127 O124 1.258 . S
Zn128 O134 1.969 . S
Zn128 O135 1.965 . S
Zn128 O139 2.024 . S
Zn128 O144 1.969 . S
Zn129 O136 1.969 . S
Zn129 O142 1.969 . S
Zn129 O143 1.965 . S
Zn129 O145 2.024 . S
C130 O131 1.229 . S
C130 O139 1.058 . S
O131 C130 1.229 . S
C132 O133 1.229 . S
C132 O145 1.058 . S
O133 C132 1.229 . S
O134 Zn128 1.969 . S
O134 C137 1.267 . S
O135 Zn128 1.965 . S
O135 C146 1.260 . S
O136 Zn129 1.969 . S
O136 C146 1.258 . S
C137 O134 1.267 . S
C137 O138 1.228 . S
O138 C137 1.228 . S
O139 Zn128 2.024 . S
O139 C130 1.058 . S
C140 O141 1.228 . S
C140 O142 1.267 . S
O141 C140 1.228 . S
O142 Zn129 1.969 . S
O142 C140 1.267 . S
O143 Zn129 1.965 . S
O143 C147 1.260 . S
O144 Zn128 1.969 . S
O144 C147 1.258 . S
O145 Zn129 2.024 . S
O145 C132 1.058 . S
C146 O135 1.260 . S
C146 O136 1.258 . S
C147 O143 1.260 . S
C147 O144 1.258 . S
Zn148 O154 1.969 . S
Zn148 O155 1.965 1_556 S
Zn148 O159 2.024 1_455 S
Zn148 O164 1.969 . S
Zn149 O156 1.969 . S
Zn149 O162 1.969 . S
Zn149 O163 1.965 . S
Zn149 O165 2.024 . S
C150 O151 1.229 . S
C150 O159 1.058 . S
O151 C150 1.229 . S
C152 O153 1.229 . S
C152 O165 1.058 . S
O153 C152 1.229 . S
O154 Zn148 1.969 . S
O154 C157 1.267 1_455 S
O155 Zn148 1.965 1_554 S
O155 C166 1.260 . S
O156 Zn149 1.969 . S
O156 C166 1.258 . S
C157 O154 1.267 1_655 S
C157 O158 1.228 . S
O158 C157 1.228 . S
O159 Zn148 2.024 1_655 S
O159 C150 1.058 . S
C160 O161 1.228 . S
C160 O162 1.267 . S
O161 C160 1.228 . S
O162 Zn149 1.969 . S
O162 C160 1.267 . S
O163 Zn149 1.965 . S
O163 C167 1.260 1_554 S
O164 Zn148 1.969 . S
O164 C167 1.258 . S
O165 Zn149 2.024 . S
O165 C152 1.058 . S
C166 O155 1.260 . S
C166 O156 1.258 . S
C167 O163 1.260 1_556 S
C167 O164 1.258 . S
C168 C169 1.391 . S
C168 C170 1.394 . S
C168 H184 0.931 . S
C169 C168 1.391 . S
C169 C173 1.376 . S
C170 C168 1.394 . S
C170 C171 1.369 . S
C170 C174 1.531 . S
C171 C170 1.369 . S
C171 C172 1.410 . S
C171 C179 1.503 . S
C172 C171 1.410 . S
C172 C173 1.392 . S
C172 C175 1.511 . S
C173 C169 1.376 . S
C173 C172 1.392 . S
C173 H185 0.929 . S
C174 C170 1.531 . S
C174 H186 0.960 . S
C174 H187 0.962 . S
C174 H188 0.960 . S
C175 C172 1.511 . S
C175 H189 0.961 . S
C175 H190 0.961 . S
C175 H191 0.961 . S
C176 C177 1.370 . S
C176 C178 1.363 . S
C176 H192 0.931 . S
C177 C176 1.370 . S
C177 C181 1.408 . S
C178 C176 1.363 . S
C178 C179 1.370 . S
C178 C182 1.524 . S
C179 C171 1.503 . S
C179 C178 1.370 . S
C179 C180 1.403 . S
C180 C179 1.403 . S
C180 C181 1.404 . S
C180 C183 1.539 . S
C181 C177 1.408 . S
C181 C180 1.404 . S
C181 H193 0.930 . S
C182 C178 1.524 . S
C182 H194 0.956 . S
C182 H195 0.961 . S
C182 H196 0.961 . S
C183 C180 1.539 . S
C183 H197 0.958 . S
C183 H198 0.961 . S
C183 H199 0.960 . S
H184 C168 0.931 . S
H185 C173 0.929 . S
H186 C174 0.960 . S
H187 C174 0.962 . S
H188 C174 0.960 . S
H189 C175 0.961 . S
H190 C175 0.961 . S
H191 C175 0.961 . S
H192 C176 0.931 . S
H193 C181 0.930 . S
H194 C182 0.956 . S
H195 C182 0.961 . S
H196 C182 0.961 . S
H197 C183 0.958 . S
H198 C183 0.961 . S
H199 C183 0.960 . S
C200 C201 1.391 . S
C200 C202 1.394 . S
C200 H216 0.931 . S
C201 C200 1.391 . S
C201 C205 1.376 . S
C202 C200 1.394 . S
C202 C203 1.369 . S
C202 C206 1.531 . S
C203 C202 1.369 . S
C203 C204 1.410 . S
C203 C211 1.503 . S
C204 C203 1.410 . S
C204 C205 1.392 . S
C204 C207 1.511 . S
C205 C201 1.376 . S
C205 C204 1.392 . S
C205 H217 0.929 . S
C206 C202 1.531 . S
C206 H218 0.960 . S
C206 H219 0.962 . S
C206 H220 0.960 . S
C207 C204 1.511 . S
C207 H221 0.961 . S
C207 H222 0.961 . S
C207 H223 0.961 . S
C208 C209 1.370 . S
C208 C210 1.363 . S
C208 H224 0.931 1_565 S
C209 C208 1.370 . S
C209 C213 1.408 . S
C210 C208 1.363 . S
C210 C211 1.370 . S
C210 C214 1.524 . S
C211 C203 1.503 . S
C211 C210 1.370 . S
C211 C212 1.403 . S
C212 C211 1.403 . S
C212 C213 1.404 . S
C212 C215 1.539 . S
C213 C209 1.408 . S
C213 C212 1.404 . S
C213 H225 0.930 . S
C214 C210 1.524 . S
C214 H226 0.956 . S
C214 H227 0.961 . S
C214 H228 0.961 1_565 S
C215 C212 1.539 . S
C215 H229 0.958 . S
C215 H230 0.961 . S
C215 H231 0.960 . S
H216 C200 0.931 . S
H217 C205 0.929 . S
H218 C206 0.960 . S
H219 C206 0.962 . S
H220 C206 0.960 . S
H221 C207 0.961 . S
H222 C207 0.961 . S
H223 C207 0.961 . S
H224 C208 0.931 1_545 S
H225 C213 0.930 . S
H226 C214 0.956 . S
H227 C214 0.961 . S
H228 C214 0.961 1_545 S
H229 C215 0.958 . S
H230 C215 0.961 . S
H231 C215 0.960 . S
C232 C233 1.391 . S
C232 C234 1.394 . S
C232 H248 0.931 . S
C233 C232 1.391 . S
C233 C237 1.376 . S
C234 C232 1.394 . S
C234 C235 1.369 . S
C234 C238 1.531 . S
C235 C234 1.369 . S
C235 C236 1.410 . S
C235 C243 1.503 . S
C236 C235 1.410 . S
C236 C237 1.392 . S
C236 C239 1.511 . S
C237 C233 1.376 . S
C237 C236 1.392 . S
C237 H249 0.929 . S
C238 C234 1.531 . S
C238 H250 0.960 . S
C238 H251 0.962 . S
C238 H252 0.960 . S
C239 C236 1.511 . S
C239 H253 0.961 . S
C239 H254 0.961 . S
C239 H255 0.961 . S
C240 C241 1.370 . S
C240 C242 1.363 . S
C240 H256 0.931 . S
C241 C240 1.370 . S
C241 C245 1.408 . S
C242 C240 1.363 . S
C242 C243 1.370 . S
C242 C246 1.524 . S
C243 C235 1.503 . S
C243 C242 1.370 . S
C243 C244 1.403 . S
C244 C243 1.403 . S
C244 C245 1.404 . S
C244 C247 1.539 . S
C245 C241 1.408 . S
C245 C244 1.404 . S
C245 H257 0.930 . S
C246 C242 1.524 . S
C246 H258 0.956 . S
C246 H259 0.961 . S
C246 H260 0.961 . S
C247 C244 1.539 . S
C247 H261 0.958 . S
C247 H262 0.961 . S
C247 H263 0.960 . S
H248 C232 0.931 . S
H249 C237 0.929 . S
H250 C238 0.960 . S
H251 C238 0.962 . S
H252 C238 0.960 . S
H253 C239 0.961 . S
H254 C239 0.961 . S
H255 C239 0.961 . S
H256 C240 0.931 . S
H257 C245 0.930 . S
H258 C246 0.956 . S
H259 C246 0.961 . S
H260 C246 0.961 . S
H261 C247 0.958 . S
H262 C247 0.961 . S
H263 C247 0.960 . S
C264 C265 1.391 . S
C264 C266 1.394 . S
C264 H280 0.931 . S
C265 C264 1.391 . S
C265 C269 1.376 . S
C266 C264 1.394 . S
C266 C267 1.369 . S
C266 C270 1.531 1_655 S
C267 C266 1.369 . S
C267 C268 1.410 . S
C267 C275 1.503 . S
C268 C267 1.410 . S
C268 C269 1.392 . S
C268 C271 1.511 . S
C269 C265 1.376 . S
C269 C268 1.392 . S
C269 H281 0.929 . S
C270 C266 1.531 1_455 S
C270 H282 0.960 . S
C270 H283 0.962 . S
C270 H284 0.960 . S
C271 C268 1.511 . S
C271 H285 0.961 . S
C271 H286 0.961 . S
C271 H287 0.961 . S
C272 C273 1.370 . S
C272 C274 1.363 . S
C272 H288 0.931 . S
C273 C272 1.370 . S
C273 C277 1.408 1_655 S
C274 C272 1.363 . S
C274 C275 1.370 . S
C274 C278 1.524 . S
C275 C267 1.503 . S
C275 C274 1.370 . S
C275 C276 1.403 . S
C276 C275 1.403 . S
C276 C277 1.404 1_655 S
C276 C279 1.539 . S
C277 C273 1.408 1_455 S
C277 C276 1.404 1_455 S
C277 H289 0.930 . S
C278 C274 1.524 . S
C278 H290 0.956 . S
C278 H291 0.961 . S
C278 H292 0.961 . S
C279 C276 1.539 . S
C279 H293 0.958 1_655 S
C279 H294 0.961 . S
C279 H295 0.960 . S
H280 C264 0.931 . S
H281 C269 0.929 . S
H282 C270 0.960 . S
H283 C270 0.962 . S
H284 C270 0.960 . S
H285 C271 0.961 . S
H286 C271 0.961 . S
H287 C271 0.961 . S
H288 C272 0.931 . S
H289 C277 0.930 . S
H290 C278 0.956 . S
H291 C278 0.961 . S
H292 C278 0.961 . S
H293 C279 0.958 1_455 S
H294 C279 0.961 . S
H295 C279 0.960 . S
C296 C297 1.391 . S
C296 C298 1.394 . S
C296 H312 0.931 . S
C297 C296 1.391 . S
C297 C301 1.376 . S
C298 C296 1.394 . S
C298 C299 1.369 . S
C298 C302 1.531 . S
C299 C298 1.369 . S
C299 C300 1.410 . S
C299 C307 1.503 . S
C300 C299 1.410 . S
C300 C301 1.392 . S
C300 C303 1.511 . S
C301 C297 1.376 . S
C301 C300 1.392 . S
C301 H313 0.929 . S
C302 C298 1.531 . S
C302 H314 0.960 . S
C302 H315 0.962 . S
C302 H316 0.960 . S
C303 C300 1.511 . S
C303 H317 0.961 . S
C303 H318 0.961 . S
C303 H319 0.961 . S
C304 C305 1.370 . S
C304 C306 1.363 . S
C304 H320 0.931 . S
C305 C304 1.370 . S
C305 C309 1.408 . S
C306 C304 1.363 . S
C306 C307 1.370 . S
C306 C310 1.524 . S
C307 C299 1.503 . S
C307 C306 1.370 . S
C307 C308 1.403 . S
C308 C307 1.403 . S
C308 C309 1.404 . S
C308 C311 1.539 . S
C309 C305 1.408 . S
C309 C308 1.404 . S
C309 H321 0.930 . S
C310 C306 1.524 . S
C310 H322 0.956 . S
C310 H323 0.961 . S
C310 H324 0.961 . S
C311 C308 1.539 . S
C311 H325 0.958 . S
C311 H326 0.961 . S
C311 H327 0.960 . S
H312 C296 0.931 . S
H313 C301 0.929 . S
H314 C302 0.960 . S
H315 C302 0.962 . S
H316 C302 0.960 . S
H317 C303 0.961 . S
H318 C303 0.961 . S
H319 C303 0.961 . S
H320 C304 0.931 . S
H321 C309 0.930 . S
H322 C310 0.956 . S
H323 C310 0.961 . S
H324 C310 0.961 . S
H325 C311 0.958 . S
H326 C311 0.961 . S
H327 C311 0.960 . S
C328 C329 1.391 . S
C328 C330 1.394 . S
C328 H344 0.931 . S
C329 C328 1.391 . S
C329 C333 1.376 . S
C330 C328 1.394 . S
C330 C331 1.369 . S
C330 C334 1.531 . S
C331 C330 1.369 . S
C331 C332 1.410 . S
C331 C339 1.503 . S
C332 C331 1.410 . S
C332 C333 1.392 . S
C332 C335 1.511 . S
C333 C329 1.376 . S
C333 C332 1.392 . S
C333 H345 0.929 . S
C334 C330 1.531 . S
C334 H346 0.960 . S
C334 H347 0.962 . S
C334 H348 0.960 . S
C335 C332 1.511 . S
C335 H349 0.961 . S
C335 H350 0.961 . S
C335 H351 0.961 . S
C336 C337 1.370 . S
C336 C338 1.363 . S
C336 H352 0.931 . S
C337 C336 1.370 . S
C337 C341 1.408 . S
C338 C336 1.363 . S
C338 C339 1.370 . S
C338 C342 1.524 . S
C339 C331 1.503 . S
C339 C338 1.370 . S
C339 C340 1.403 . S
C340 C339 1.403 . S
C340 C341 1.404 . S
C340 C343 1.539 . S
C341 C337 1.408 . S
C341 C340 1.404 . S
C341 H353 0.930 . S
C342 C338 1.524 . S
C342 H354 0.956 . S
C342 H355 0.961 . S
C342 H356 0.953 1_565 S
C343 C340 1.539 . S
C343 H357 0.958 . S
C343 H358 0.961 . S
C343 H359 0.960 . S
H344 C328 0.931 . S
H345 C333 0.929 . S
H346 C334 0.960 . S
H347 C334 0.962 . S
H348 C334 0.960 . S
H349 C335 0.961 . S
H350 C335 0.961 . S
H351 C335 0.961 . S
H352 C336 0.931 . S
H353 C341 0.930 . S
H354 C342 0.956 . S
H355 C342 0.961 . S
H356 C342 0.953 1_545 S
H357 C343 0.958 . S
H358 C343 0.961 . S
H359 C343 0.960 . S
C360 C361 1.391 . S
C360 C362 1.394 . S
C360 H376 0.931 . S
C361 C360 1.391 . S
C361 C365 1.376 . S
C362 C360 1.394 . S
C362 C363 1.369 . S
C362 C366 1.531 . S
C363 C362 1.369 . S
C363 C364 1.410 . S
C363 C371 1.503 . S
C364 C363 1.410 . S
C364 C365 1.392 . S
C364 C367 1.511 . S
C365 C361 1.376 . S
C365 C364 1.392 . S
C365 H377 0.929 . S
C366 C362 1.531 . S
C366 H378 0.960 . S
C366 H379 0.962 . S
C366 H380 0.960 . S
C367 C364 1.511 . S
C367 H381 0.961 . S
C367 H382 0.961 . S
C367 H383 0.961 . S
C368 C369 1.370 . S
C368 C370 1.363 . S
C368 H384 0.931 . S
C369 C368 1.370 . S
C369 C373 1.408 . S
C370 C368 1.363 . S
C370 C371 1.370 . S
C370 C374 1.524 . S
C371 C363 1.503 . S
C371 C370 1.370 . S
C371 C372 1.403 . S
C372 C371 1.403 . S
C372 C373 1.404 . S
C372 C375 1.539 . S
C373 C369 1.408 . S
C373 C372 1.404 . S
C373 H385 0.930 . S
C374 C370 1.524 . S
C374 H386 0.956 . S
C374 H387 0.961 . S
C374 H388 0.961 . S
C375 C372 1.539 . S
C375 H389 0.958 . S
C375 H390 0.961 . S
C375 H391 0.960 . S
H376 C360 0.931 . S
H377 C365 0.929 . S
H378 C366 0.960 . S
H379 C366 0.962 . S
H380 C366 0.960 . S
H381 C367 0.961 . S
H382 C367 0.961 . S
H383 C367 0.961 . S
H384 C368 0.931 . S
H385 C373 0.930 . S
H386 C374 0.956 . S
H387 C374 0.961 . S
H388 C374 0.961 . S
H389 C375 0.958 . S
H390 C375 0.961 . S
H391 C375 0.960 . S
C392 C393 1.391 . S
C392 C394 1.394 . S
C392 H408 0.931 . S
C393 C392 1.391 . S
C393 C397 1.376 . S
C394 C392 1.394 . S
C394 C395 1.369 . S
C394 C398 1.531 . S
C395 C394 1.369 . S
C395 C396 1.410 . S
C395 C403 1.503 . S
C396 C395 1.410 . S
C396 C397 1.392 . S
C396 C399 1.511 . S
C397 C393 1.376 . S
C397 C396 1.392 . S
C397 H409 0.929 . S
C398 C394 1.531 . S
C398 H410 0.960 . S
C398 H411 0.962 . S
C398 H412 0.960 . S
C399 C396 1.511 . S
C399 H413 0.961 . S
C399 H414 0.961 . S
C399 H415 0.961 . S
C400 C401 1.370 . S
C400 C402 1.363 . S
C400 H416 0.931 . S
C401 C400 1.370 . S
C401 C405 1.408 . S
C402 C400 1.363 . S
C402 C403 1.370 . S
C402 C406 1.524 . S
C403 C395 1.503 . S
C403 C402 1.370 . S
C403 C404 1.403 . S
C404 C403 1.403 . S
C404 C405 1.404 . S
C404 C407 1.539 . S
C405 C401 1.408 . S
C405 C404 1.404 . S
C405 H417 0.930 . S
C406 C402 1.524 . S
C406 H418 0.956 . S
C406 H419 0.961 . S
C406 H420 0.961 . S
C407 C404 1.539 . S
C407 H421 0.958 . S
C407 H422 0.961 . S
C407 H423 0.960 . S
H408 C392 0.931 . S
H409 C397 0.929 . S
H410 C398 0.960 . S
H411 C398 0.962 . S
H412 C398 0.960 . S
H413 C399 0.961 . S
H414 C399 0.961 . S
H415 C399 0.961 . S
H416 C400 0.931 . S
H417 C405 0.930 . S
H418 C406 0.956 . S
H419 C406 0.961 . S
H420 C406 0.961 . S
H421 C407 0.958 . S
H422 C407 0.961 . S
H423 C407 0.960 . S
C424 C425 1.391 . S
C424 C426 1.394 . S
C424 H440 0.931 . S
C425 C424 1.391 . S
C425 C429 1.376 . S
C426 C424 1.394 . S
C426 C427 1.369 . S
C426 C430 1.531 . S
C427 C426 1.369 . S
C427 C428 1.410 . S
C427 C435 1.503 . S
C428 C427 1.410 . S
C428 C429 1.392 . S
C428 C431 1.511 . S
C429 C425 1.376 . S
C429 C428 1.392 . S
C429 H441 0.929 . S
C430 C426 1.531 . S
C430 H442 0.960 . S
C430 H443 0.962 . S
C430 H444 0.960 . S
C431 C428 1.511 . S
C431 H445 0.961 . S
C431 H446 0.961 . S
C431 H447 0.961 . S
C432 C433 1.370 . S
C432 C434 1.363 . S
C432 H448 0.931 . S
C433 C432 1.370 . S
C433 C437 1.408 . S
C434 C432 1.363 . S
C434 C435 1.370 . S
C434 C438 1.524 . S
C435 C427 1.503 . S
C435 C434 1.370 . S
C435 C436 1.403 . S
C436 C435 1.403 . S
C436 C437 1.404 . S
C436 C439 1.539 . S
C437 C433 1.408 . S
C437 C436 1.404 . S
C437 H449 0.930 . S
C438 C434 1.524 . S
C438 H450 0.956 . S
C438 H451 0.961 . S
C438 H452 0.961 . S
C439 C436 1.539 . S
C439 H453 0.958 . S
C439 H454 0.961 . S
C439 H455 0.960 . S
H440 C424 0.931 . S
H441 C429 0.929 . S
H442 C430 0.960 . S
H443 C430 0.962 . S
H444 C430 0.960 . S
H445 C431 0.961 . S
H446 C431 0.961 . S
H447 C431 0.961 . S
H448 C432 0.931 . S
H449 C437 0.930 . S
H450 C438 0.956 . S
H451 C438 0.961 . S
H452 C438 0.961 . S
H453 C439 0.958 . S
H454 C439 0.961 . S
H455 C439 0.960 . S
C456 C457 1.391 . S
C456 C458 1.394 . S
C456 H472 0.931 . S
C457 C456 1.391 . S
C457 C461 1.376 . S
C458 C456 1.394 . S
C458 C459 1.369 . S
C458 C462 1.531 . S
C459 C458 1.369 . S
C459 C460 1.410 . S
C459 C467 1.503 . S
C460 C459 1.410 . S
C460 C461 1.392 . S
C460 C463 1.511 . S
C461 C457 1.376 . S
C461 C460 1.392 . S
C461 H473 0.929 . S
C462 C458 1.531 . S
C462 H474 0.960 1_556 S
C462 H475 0.962 . S
C462 H476 0.960 . S
C463 C460 1.511 . S
C463 H477 0.961 . S
C463 H478 0.961 . S
C463 H479 0.961 . S
C464 C465 1.370 1_556 S
C464 C466 1.363 . S
C464 H480 0.931 . S
C465 C464 1.370 1_554 S
C465 C469 1.408 . S
C466 C464 1.363 . S
C466 C467 1.370 . S
C466 C470 1.524 . S
C467 C459 1.503 . S
C467 C466 1.370 . S
C467 C468 1.403 1_556 S
C468 C467 1.403 1_554 S
C468 C469 1.404 . S
C468 C471 1.539 . S
C469 C465 1.408 . S
C469 C468 1.404 . S
C469 H481 0.930 . S
C470 C466 1.524 . S
C470 H482 0.956 . S
C470 H483 0.961 . S
C470 H484 0.961 . S
C471 C468 1.539 . S
C471 H485 0.958 . S
C471 H486 0.961 . S
C471 H487 0.960 . S
H472 C456 0.931 . S
H473 C461 0.929 . S
H474 C462 0.960 1_554 S
H475 C462 0.962 . S
H476 C462 0.960 . S
H477 C463 0.961 . S
H478 C463 0.961 . S
H479 C463 0.961 . S
H480 C464 0.931 . S
H481 C469 0.930 . S
H482 C470 0.956 . S
H483 C470 0.961 . S
H484 C470 0.961 . S
H485 C471 0.958 . S
H486 C471 0.961 . S
H487 C471 0.960 . S
C488 C489 1.391 . S
C488 C490 1.394 . S
C488 H504 0.931 . S
C489 C488 1.391 . S
C489 C493 1.376 . S
C490 C488 1.394 . S
C490 C491 1.369 . S
C490 C494 1.531 . S
C491 C490 1.369 . S
C491 C492 1.410 . S
C491 C499 1.503 . S
C492 C491 1.410 . S
C492 C493 1.392 . S
C492 C495 1.511 . S
C493 C489 1.376 . S
C493 C492 1.392 . S
C493 H505 0.929 . S
C494 C490 1.531 . S
C494 H506 0.960 . S
C494 H507 0.962 . S
C494 H508 0.960 . S
C495 C492 1.511 . S
C495 H509 0.961 . S
C495 H510 0.961 . S
C495 H511 0.961 . S
C496 C497 1.370 . S
C496 C498 1.363 . S
C496 H512 0.931 . S
C497 C496 1.370 . S
C497 C501 1.408 . S
C498 C496 1.363 . S
C498 C499 1.370 . S
C498 C502 1.524 . S
C499 C491 1.503 . S
C499 C498 1.370 . S
C499 C500 1.403 . S
C500 C499 1.403 . S
C500 C501 1.404 . S
C500 C503 1.539 . S
C501 C497 1.408 . S
C501 C500 1.404 . S
C501 H513 0.930 . S
C502 C498 1.524 . S
C502 H514 0.956 . S
C502 H515 0.961 . S
C502 H516 0.961 . S
C503 C500 1.539 . S
C503 H517 0.958 . S
C503 H518 0.961 . S
C503 H519 0.960 . S
H504 C488 0.931 . S
H505 C493 0.929 . S
H506 C494 0.960 . S
H507 C494 0.962 . S
H508 C494 0.960 . S
H509 C495 0.961 . S
H510 C495 0.961 . S
H511 C495 0.961 . S
H512 C496 0.931 . S
H513 C501 0.930 . S
H514 C502 0.956 . S
H515 C502 0.961 . S
H516 C502 0.961 . S
H517 C503 0.958 . S
H518 C503 0.961 . S
H519 C503 0.960 . S
C520 C521 1.391 . S
C520 C522 1.394 . S
C520 H536 0.931 . S
C521 C520 1.391 . S
C521 C525 1.376 . S
C522 C520 1.394 . S
C522 C523 1.369 . S
C522 C526 1.531 . S
C523 C522 1.369 . S
C523 C524 1.410 . S
C523 C531 1.503 . S
C524 C523 1.410 . S
C524 C525 1.392 . S
C524 C527 1.511 . S
C525 C521 1.376 . S
C525 C524 1.392 . S
C525 H537 0.929 . S
C526 C522 1.531 . S
C526 H538 0.960 . S
C526 H539 0.962 . S
C526 H540 0.960 . S
C527 C524 1.511 . S
C527 H541 0.961 . S
C527 H542 0.961 . S
C527 H543 0.961 . S
C528 C529 1.370 . S
C528 C530 1.363 . S
C528 H544 0.931 . S
C529 C528 1.370 . S
C529 C533 1.408 . S
C530 C528 1.363 . S
C530 C531 1.370 . S
C530 C534 1.524 . S
C531 C523 1.503 . S
C531 C530 1.370 . S
C531 C532 1.403 . S
C532 C531 1.403 . S
C532 C533 1.404 . S
C532 C535 1.539 . S
C533 C529 1.408 . S
C533 C532 1.404 . S
C533 H545 0.930 . S
C534 C530 1.524 . S
C534 H546 0.956 . S
C534 H547 0.961 . S
C534 H548 0.961 . S
C535 C532 1.539 . S
C535 H549 0.958 . S
C535 H550 0.961 . S
C535 H551 0.960 . S
H536 C520 0.931 . S
H537 C525 0.929 . S
H538 C526 0.960 . S
H539 C526 0.962 . S
H540 C526 0.960 . S
H541 C527 0.961 . S
H542 C527 0.961 . S
H543 C527 0.961 . S
H544 C528 0.931 . S
H545 C533 0.930 . S
H546 C534 0.956 . S
H547 C534 0.961 . S
H548 C534 0.961 . S
H549 C535 0.958 . S
H550 C535 0.961 . S
H551 C535 0.960 . S
C552 C553 1.391 . S
C552 C554 1.394 . S
C552 H568 0.931 . S
C553 C552 1.391 . S
C553 C557 1.376 . S
C554 C552 1.394 . S
C554 C555 1.369 . S
C554 C558 1.531 . S
C555 C554 1.369 . S
C555 C556 1.410 . S
C555 C563 1.503 . S
C556 C555 1.410 . S
C556 C557 1.392 . S
C556 C559 1.511 . S
C557 C553 1.376 . S
C557 C556 1.392 . S
C557 H569 0.929 . S
C558 C554 1.531 . S
C558 H570 0.960 . S
C558 H571 0.962 . S
C558 H572 0.960 . S
C559 C556 1.511 . S
C559 H573 0.961 . S
C559 H574 0.961 . S
C559 H575 0.961 . S
C560 C561 1.370 . S
C560 C562 1.363 . S
C560 H576 0.931 . S
C561 C560 1.370 . S
C561 C565 1.408 . S
C562 C560 1.363 . S
C562 C563 1.370 . S
C562 C566 1.524 . S
C563 C555 1.503 . S
C563 C562 1.370 . S
C563 C564 1.403 . S
C564 C563 1.403 . S
C564 C565 1.404 . S
C564 C567 1.539 . S
C565 C561 1.408 . S
C565 C564 1.404 . S
C565 H577 0.930 1_565 S
C566 C562 1.524 . S
C566 H578 0.956 . S
C566 H579 0.961 . S
C566 H580 0.961 . S
C567 C564 1.539 . S
C567 H581 0.958 1_565 S
C567 H582 0.961 1_565 S
C567 H583 0.960 . S
H568 C552 0.931 . S
H569 C557 0.929 . S
H570 C558 0.960 . S
H571 C558 0.962 . S
H572 C558 0.960 . S
H573 C559 0.961 . S
H574 C559 0.961 . S
H575 C559 0.961 . S
H576 C560 0.931 . S
H577 C565 0.930 1_545 S
H578 C566 0.956 . S
H579 C566 0.961 . S
H580 C566 0.961 . S
H581 C567 0.958 1_545 S
H582 C567 0.961 1_545 S
H583 C567 0.960 . S
C584 C585 1.391 . S
C584 C586 1.394 . S
C584 H600 0.931 . S
C585 C584 1.391 . S
C585 C589 1.376 . S
C586 C584 1.394 . S
C586 C587 1.369 . S
C586 C590 1.531 . S
C587 C586 1.369 . S
C587 C588 1.410 . S
C587 C595 1.503 . S
C588 C587 1.410 . S
C588 C589 1.392 . S
C588 C591 1.511 . S
C589 C585 1.376 . S
C589 C588 1.392 . S
C589 H601 0.929 . S
C590 C586 1.531 . S
C590 H602 0.960 . S
C590 H603 0.962 . S
C590 H604 0.960 . S
C591 C588 1.511 . S
C591 H605 0.961 . S
C591 H606 0.961 . S
C591 H607 0.961 . S
C592 C593 1.370 . S
C592 C594 1.363 . S
C592 H608 0.931 . S
C593 C592 1.370 . S
C593 C597 1.408 . S
C594 C592 1.363 . S
C594 C595 1.370 . S
C594 C598 1.524 . S
C595 C587 1.503 . S
C595 C594 1.370 . S
C595 C596 1.403 . S
C596 C595 1.403 . S
C596 C597 1.404 . S
C596 C599 1.539 . S
C597 C593 1.408 . S
C597 C596 1.404 . S
C597 H609 0.930 . S
C598 C594 1.524 . S
C598 H610 0.956 . S
C598 H611 0.961 . S
C598 H612 0.961 . S
C599 C596 1.539 . S
C599 H613 0.958 . S
C599 H614 0.961 . S
C599 H615 0.960 . S
H600 C584 0.931 . S
H601 C589 0.929 . S
H602 C590 0.960 . S
H603 C590 0.962 . S
H604 C590 0.960 . S
H605 C591 0.961 . S
H606 C591 0.961 . S
H607 C591 0.961 . S
H608 C592 0.931 . S
H609 C597 0.930 . S
H610 C598 0.956 . S
H611 C598 0.961 . S
H612 C598 0.961 . S
H613 C599 0.958 . S
H614 C599 0.961 . S
H615 C599 0.960 . S
C616 C617 1.391 . S
C616 C618 1.394 . S
C616 H632 0.931 . S
C617 C616 1.391 . S
C617 C621 1.376 . S
C618 C616 1.394 . S
C618 C619 1.369 . S
C618 C622 1.531 . S
C619 C618 1.369 . S
C619 C620 1.410 . S
C619 C627 1.503 . S
C620 C619 1.410 . S
C620 C621 1.392 . S
C620 C623 1.511 . S
C621 C617 1.376 . S
C621 C620 1.392 . S
C621 H633 0.929 . S
C622 C618 1.531 . S
C622 H634 0.960 . S
C622 H635 0.962 . S
C622 H636 0.960 . S
C623 C620 1.511 . S
C623 H637 0.961 . S
C623 H638 0.961 . S
C623 H639 0.961 . S
C624 C625 1.370 . S
C624 C626 1.363 . S
C624 H640 0.931 . S
C625 C624 1.370 . S
C625 C629 1.408 . S
C626 C624 1.363 . S
C626 C627 1.370 . S
C626 C630 1.524 . S
C627 C619 1.503 . S
C627 C626 1.370 . S
C627 C628 1.403 . S
C628 C627 1.403 . S
C628 C629 1.404 . S
C628 C631 1.539 . S
C629 C625 1.408 . S
C629 C628 1.404 . S
C629 H641 0.930 . S
C630 C626 1.524 . S
C630 H642 0.956 . S
C630 H643 0.961 . S
C630 H644 0.961 . S
C631 C628 1.539 . S
C631 H645 0.958 . S
C631 H646 0.961 . S
C631 H647 0.960 . S
H632 C616 0.931 . S
H633 C621 0.929 . S
H634 C622 0.960 . S
H635 C622 0.962 . S
H636 C622 0.960 . S
H637 C623 0.961 . S
H638 C623 0.961 . S
H639 C623 0.961 . S
H640 C624 0.931 . S
H641 C629 0.930 . S
H642 C630 0.956 . S
H643 C630 0.961 . S
H644 C630 0.961 . S
H645 C631 0.958 . S
H646 C631 0.961 . S
H647 C631 0.960 . S
C648 C649 1.391 . S
C648 C650 1.394 . S
C648 H664 0.931 . S
C649 C648 1.391 . S
C649 C653 1.376 . S
C650 C648 1.394 . S
C650 C651 1.369 . S
C650 C654 1.531 . S
C651 C650 1.369 . S
C651 C652 1.410 . S
C651 C659 1.503 . S
C652 C651 1.410 . S
C652 C653 1.392 . S
C652 C655 1.511 . S
C653 C649 1.376 . S
C653 C652 1.392 . S
C653 H665 0.929 . S
C654 C650 1.531 . S
C654 H666 0.960 . S
C654 H667 0.962 . S
C654 H668 0.960 . S
C655 C652 1.511 . S
C655 H669 0.961 . S
C655 H670 0.961 . S
C655 H671 0.961 . S
C656 C657 1.370 . S
C656 C658 1.363 . S
C656 H672 0.931 . S
C657 C656 1.370 . S
C657 C661 1.408 . S
C658 C656 1.363 . S
C658 C659 1.370 . S
C658 C662 1.524 . S
C659 C651 1.503 . S
C659 C658 1.370 . S
C659 C660 1.403 . S
C660 C659 1.403 . S
C660 C661 1.404 . S
C660 C663 1.539 . S
C661 C657 1.408 . S
C661 C660 1.404 . S
C661 H673 0.930 . S
C662 C658 1.524 . S
C662 H674 0.956 . S
C662 H675 0.961 . S
C662 H676 0.961 . S
C663 C660 1.539 . S
C663 H677 0.958 . S
C663 H678 0.961 . S
C663 H679 0.960 . S
H664 C648 0.931 . S
H665 C653 0.929 . S
H666 C654 0.960 . S
H667 C654 0.962 . S
H668 C654 0.960 . S
H669 C655 0.961 . S
H670 C655 0.961 . S
H671 C655 0.961 . S
H672 C656 0.931 . S
H673 C661 0.930 . S
H674 C662 0.956 . S
H675 C662 0.961 . S
H676 C662 0.961 . S
H677 C663 0.958 . S
H678 C663 0.961 . S
H679 C663 0.960 . S
C680 C681 1.391 . S
C680 C682 1.394 . S
C680 H696 0.931 . S
C681 C680 1.391 . S
C681 C685 1.376 . S
C682 C680 1.394 . S
C682 C683 1.369 . S
C682 C686 1.531 . S
C683 C682 1.369 . S
C683 C684 1.410 . S
C683 C691 1.503 . S
C684 C683 1.410 . S
C684 C685 1.392 . S
C684 C687 1.511 . S
C685 C681 1.376 . S
C685 C684 1.392 . S
C685 H697 0.929 . S
C686 C682 1.531 . S
C686 H698 0.960 . S
C686 H699 0.962 . S
C686 H700 0.960 . S
C687 C684 1.511 . S
C687 H701 0.961 . S
C687 H702 0.961 . S
C687 H703 0.961 . S
C688 C689 1.370 . S
C688 C690 1.363 . S
C688 H704 0.931 . S
C689 C688 1.370 . S
C689 C693 1.408 . S
C690 C688 1.363 . S
C690 C691 1.370 . S
C690 C694 1.524 . S
C691 C683 1.503 . S
C691 C690 1.370 . S
C691 C692 1.403 . S
C692 C691 1.403 . S
C692 C693 1.404 . S
C692 C695 1.539 1_565 S
C693 C689 1.408 . S
C693 C692 1.404 . S
C693 H705 0.930 1_565 S
C694 C690 1.524 . S
C694 H706 0.956 . S
C694 H707 0.961 . S
C694 H708 0.961 . S
C695 C692 1.539 1_545 S
C695 H709 0.958 . S
C695 H710 0.961 . S
C695 H711 0.960 1_545 S
H696 C680 0.931 . S
H697 C685 0.929 . S
H698 C686 0.960 . S
H699 C686 0.962 . S
H700 C686 0.960 . S
H701 C687 0.961 . S
H702 C687 0.961 . S
H703 C687 0.961 . S
H704 C688 0.931 . S
H705 C693 0.930 1_545 S
H706 C694 0.956 . S
H707 C694 0.961 . S
H708 C694 0.961 . S
H709 C695 0.958 . S
H710 C695 0.961 . S
H711 C695 0.960 1_565 S
C712 C713 1.391 . S
C712 C714 1.394 . S
C712 H728 0.931 . S
C713 C712 1.391 . S
C713 C717 1.376 . S
C714 C712 1.394 . S
C714 C715 1.369 . S
C714 C718 1.531 . S
C715 C714 1.369 . S
C715 C716 1.410 . S
C715 C723 1.503 . S
C716 C715 1.410 . S
C716 C717 1.392 . S
C716 C719 1.511 . S
C717 C713 1.376 . S
C717 C716 1.392 . S
C717 H729 0.929 . S
C718 C714 1.531 . S
C718 H730 0.960 . S
C718 H731 0.962 . S
C718 H732 0.960 . S
C719 C716 1.511 . S
C719 H733 0.961 . S
C719 H734 0.961 . S
C719 H735 0.961 . S
C720 C721 1.370 . S
C720 C722 1.363 . S
C720 H736 0.931 . S
C721 C720 1.370 . S
C721 C725 1.408 . S
C722 C720 1.363 . S
C722 C723 1.370 . S
C722 C726 1.524 . S
C723 C715 1.503 . S
C723 C722 1.370 . S
C723 C724 1.403 . S
C724 C723 1.403 . S
C724 C725 1.404 . S
C724 C727 1.539 . S
C725 C721 1.408 . S
C725 C724 1.404 . S
C725 H737 0.930 . S
C726 C722 1.524 . S
C726 H738 0.956 . S
C726 H739 0.961 . S
C726 H740 0.961 . S
C727 C724 1.539 . S
C727 H741 0.958 . S
C727 H742 0.961 . S
C727 H743 0.960 . S
H728 C712 0.931 . S
H729 C717 0.929 . S
H730 C718 0.960 . S
H731 C718 0.962 . S
H732 C718 0.960 . S
H733 C719 0.961 . S
H734 C719 0.961 . S
H735 C719 0.961 . S
H736 C720 0.931 . S
H737 C725 0.930 . S
H738 C726 0.956 . S
H739 C726 0.961 . S
H740 C726 0.961 . S
H741 C727 0.958 . S
H742 C727 0.961 . S
H743 C727 0.960 . S
C744 C745 1.391 . S
C744 C746 1.394 . S
C744 H760 0.931 . S
C745 C744 1.391 . S
C745 C749 1.376 . S
C746 C744 1.394 . S
C746 C747 1.369 . S
C746 C750 1.531 . S
C747 C746 1.369 . S
C747 C748 1.410 . S
C747 C755 1.503 . S
C748 C747 1.410 . S
C748 C749 1.392 . S
C748 C751 1.511 . S
C749 C745 1.376 . S
C749 C748 1.392 . S
C749 H761 0.929 . S
C750 C746 1.531 . S
C750 H762 0.960 . S
C750 H763 0.962 . S
C750 H764 0.960 . S
C751 C748 1.511 . S
C751 H765 0.961 . S
C751 H766 0.961 . S
C751 H767 0.961 . S
C752 C753 1.370 . S
C752 C754 1.363 . S
C752 H768 0.931 . S
C753 C752 1.370 . S
C753 C757 1.408 . S
C754 C752 1.363 . S
C754 C755 1.370 . S
C754 C758 1.524 . S
C755 C747 1.503 . S
C755 C754 1.370 . S
C755 C756 1.403 . S
C756 C755 1.403 . S
C756 C757 1.404 . S
C756 C759 1.539 . S
C757 C753 1.408 . S
C757 C756 1.404 . S
C757 H769 0.930 . S
C758 C754 1.524 . S
C758 H770 0.956 . S
C758 H771 0.961 . S
C758 H772 0.961 . S
C759 C756 1.539 . S
C759 H773 0.958 . S
C759 H774 0.961 . S
C759 H775 0.960 . S
H760 C744 0.931 . S
H761 C749 0.929 . S
H762 C750 0.960 . S
H763 C750 0.962 . S
H764 C750 0.960 . S
H765 C751 0.961 . S
H766 C751 0.961 . S
H767 C751 0.961 . S
H768 C752 0.931 . S
H769 C757 0.930 . S
H770 C758 0.956 . S
H771 C758 0.961 . S
H772 C758 0.961 . S
H773 C759 0.958 . S
H774 C759 0.961 . S
H775 C759 0.960 . S
C776 C777 1.391 . S
C776 C778 1.394 . S
C776 H792 0.931 . S
C777 C776 1.391 . S
C777 C781 1.376 . S
C778 C776 1.394 . S
C778 C779 1.369 . S
C778 C782 1.531 . S
C779 C778 1.369 . S
C779 C780 1.410 . S
C779 C787 1.503 . S
C780 C779 1.410 . S
C780 C781 1.392 . S
C780 C783 1.511 . S
C781 C777 1.376 . S
C781 C780 1.392 . S
C781 H793 0.929 . S
C782 C778 1.531 . S
C782 H794 0.960 . S
C782 H795 0.962 . S
C782 H796 0.960 . S
C783 C780 1.511 . S
C783 H797 0.961 . S
C783 H798 0.961 . S
C783 H799 0.961 . S
C784 C785 1.370 . S
C784 C786 1.363 . S
C784 H800 0.931 . S
C785 C784 1.370 . S
C785 C789 1.408 . S
C786 C784 1.363 . S
C786 C787 1.370 . S
C786 C790 1.524 . S
C787 C779 1.503 . S
C787 C786 1.370 . S
C787 C788 1.403 . S
C788 C787 1.403 . S
C788 C789 1.404 . S
C788 C791 1.539 . S
C789 C785 1.408 . S
C789 C788 1.404 . S
C789 H801 0.930 . S
C790 C786 1.524 . S
C790 H802 0.956 . S
C790 H803 0.961 . S
C790 H804 0.961 . S
C791 C788 1.539 . S
C791 H805 0.958 . S
C791 H806 0.961 . S
C791 H807 0.960 . S
H792 C776 0.931 . S
H793 C781 0.929 . S
H794 C782 0.960 . S
H795 C782 0.962 . S
H796 C782 0.960 . S
H797 C783 0.961 . S
H798 C783 0.961 . S
H799 C783 0.961 . S
H800 C784 0.931 . S
H801 C789 0.930 . S
H802 C790 0.956 . S
H803 C790 0.961 . S
H804 C790 0.961 . S
H805 C791 0.958 . S
H806 C791 0.961 . S
H807 C791 0.960 . S
C808 C809 1.391 . S
C808 C810 1.394 . S
C808 H824 0.931 . S
C809 C808 1.391 . S
C809 C813 1.376 . S
C810 C808 1.394 . S
C810 C811 1.369 . S
C810 C814 1.531 . S
C811 C810 1.369 . S
C811 C812 1.410 . S
C811 C819 1.503 . S
C812 C811 1.410 . S
C812 C813 1.392 . S
C812 C815 1.511 . S
C813 C809 1.376 . S
C813 C812 1.392 . S
C813 H825 0.929 . S
C814 C810 1.531 . S
C814 H826 0.960 . S
C814 H827 0.962 . S
C814 H828 0.960 . S
C815 C812 1.511 . S
C815 H829 0.961 . S
C815 H830 0.961 . S
C815 H831 0.961 . S
C816 C817 1.370 . S
C816 C818 1.363 . S
C816 H832 0.931 . S
C817 C816 1.370 . S
C817 C821 1.408 . S
C818 C816 1.363 . S
C818 C819 1.370 . S
C818 C822 1.524 . S
C819 C811 1.503 . S
C819 C818 1.370 . S
C819 C820 1.403 . S
C820 C819 1.403 . S
C820 C821 1.404 . S
C820 C823 1.539 . S
C821 C817 1.408 . S
C821 C820 1.404 . S
C821 H833 0.930 1_655 S
C822 C818 1.524 . S
C822 H834 0.956 . S
C822 H835 0.961 . S
C822 H836 0.961 . S
C823 C820 1.539 . S
C823 H837 0.958 . S
C823 H838 0.961 . S
C823 H839 0.960 . S
H824 C808 0.931 . S
H825 C813 0.929 . S
H826 C814 0.960 . S
H827 C814 0.962 . S
H828 C814 0.960 . S
H829 C815 0.961 . S
H830 C815 0.961 . S
H831 C815 0.961 . S
H832 C816 0.931 . S
H833 C821 0.930 1_455 S
H834 C822 0.956 . S
H835 C822 0.961 . S
H836 C822 0.961 . S
H837 C823 0.958 . S
H838 C823 0.961 . S
H839 C823 0.960 . S
C840 C841 1.391 . S
C840 C842 1.394 . S
C840 H856 0.931 . S
C841 C840 1.391 . S
C841 C845 1.376 . S
C842 C840 1.394 . S
C842 C843 1.369 . S
C842 C846 1.531 . S
C843 C842 1.369 . S
C843 C844 1.410 . S
C843 C851 1.503 . S
C844 C843 1.410 . S
C844 C845 1.392 . S
C844 C847 1.511 . S
C845 C841 1.376 . S
C845 C844 1.392 . S
C845 H857 0.929 . S
C846 C842 1.531 . S
C846 H858 0.960 . S
C846 H859 0.962 . S
C846 H860 0.960 . S
C847 C844 1.511 . S
C847 H861 0.961 . S
C847 H862 0.961 . S
C847 H863 0.961 . S
C848 C849 1.370 . S
C848 C850 1.363 . S
C848 H864 0.931 . S
C849 C848 1.370 . S
C849 C853 1.408 . S
C850 C848 1.363 . S
C850 C851 1.370 . S
C850 C854 1.524 . S
C851 C843 1.503 . S
C851 C850 1.370 . S
C851 C852 1.403 . S
C852 C851 1.403 . S
C852 C853 1.404 . S
C852 C855 1.539 . S
C853 C849 1.408 . S
C853 C852 1.404 . S
C853 H865 0.930 . S
C854 C850 1.524 . S
C854 H866 0.956 . S
C854 H867 0.961 . S
C854 H868 0.961 . S
C855 C852 1.539 . S
C855 H869 0.958 . S
C855 H870 0.961 . S
C855 H871 0.960 . S
H856 C840 0.931 . S
H857 C845 0.929 . S
H858 C846 0.960 . S
H859 C846 0.962 . S
H860 C846 0.960 . S
H861 C847 0.961 . S
H862 C847 0.961 . S
H863 C847 0.961 . S
H864 C848 0.931 . S
H865 C853 0.930 . S
H866 C854 0.956 . S
H867 C854 0.961 . S
H868 C854 0.961 . S
H869 C855 0.958 . S
H870 C855 0.961 . S
H871 C855 0.960 . S
C872 C873 1.391 . S
C872 C874 1.394 . S
C872 H888 0.931 . S
C873 C872 1.391 . S
C873 C877 1.376 . S
C874 C872 1.394 . S
C874 C875 1.369 . S
C874 C878 1.531 . S
C875 C874 1.369 . S
C875 C876 1.410 . S
C875 C883 1.503 . S
C876 C875 1.410 . S
C876 C877 1.392 . S
C876 C879 1.511 . S
C877 C873 1.376 . S
C877 C876 1.392 . S
C877 H889 0.929 . S
C878 C874 1.531 . S
C878 H890 0.960 . S
C878 H891 0.962 . S
C878 H892 0.960 . S
C879 C876 1.511 . S
C879 H893 0.961 . S
C879 H894 0.961 . S
C879 H895 0.961 . S
C880 C881 1.370 . S
C880 C882 1.363 . S
C880 H896 0.931 . S
C881 C880 1.370 . S
C881 C885 1.408 . S
C882 C880 1.363 . S
C882 C883 1.370 . S
C882 C886 1.524 . S
C883 C875 1.503 . S
C883 C882 1.370 . S
C883 C884 1.403 . S
C884 C883 1.403 . S
C884 C885 1.404 . S
C884 C887 1.539 . S
C885 C881 1.408 . S
C885 C884 1.404 . S
C885 H897 0.930 . S
C886 C882 1.524 . S
C886 H898 0.956 . S
C886 H899 0.961 . S
C886 H900 0.961 . S
C887 C884 1.539 . S
C887 H901 0.958 . S
C887 H902 0.961 . S
C887 H903 0.960 . S
H888 C872 0.931 . S
H889 C877 0.929 . S
H890 C878 0.960 . S
H891 C878 0.962 . S
H892 C878 0.960 . S
H893 C879 0.961 . S
H894 C879 0.961 . S
H895 C879 0.961 . S
H896 C880 0.931 . S
H897 C885 0.930 . S
H898 C886 0.956 . S
H899 C886 0.961 . S
H900 C886 0.961 . S
H901 C887 0.958 . S
H902 C887 0.961 . S
H903 C887 0.960 . S
C904 C905 1.391 . S
C904 C906 1.394 . S
C904 H920 0.931 . S
C905 C904 1.391 . S
C905 C909 1.376 . S
C906 C904 1.394 . S
C906 C907 1.369 . S
C906 C910 1.531 . S
C907 C906 1.369 . S
C907 C908 1.410 . S
C907 C915 1.503 . S
C908 C907 1.410 . S
C908 C909 1.392 . S
C908 C911 1.511 . S
C909 C905 1.376 . S
C909 C908 1.392 . S
C909 H921 0.929 . S
C910 C906 1.531 . S
C910 H922 0.960 . S
C910 H923 0.962 . S
C910 H924 0.960 . S
C911 C908 1.511 . S
C911 H925 0.961 . S
C911 H926 0.961 . S
C911 H927 0.961 . S
C912 C913 1.370 . S
C912 C914 1.363 . S
C912 H928 0.931 . S
C913 C912 1.370 . S
C913 C917 1.408 . S
C914 C912 1.363 . S
C914 C915 1.370 . S
C914 C918 1.524 . S
C915 C907 1.503 . S
C915 C914 1.370 . S
C915 C916 1.403 . S
C916 C915 1.403 . S
C916 C917 1.404 . S
C916 C919 1.539 . S
C917 C913 1.408 . S
C917 C916 1.404 . S
C917 H929 0.930 . S
C918 C914 1.524 . S
C918 H930 0.956 . S
C918 H931 0.961 . S
C918 H932 0.961 . S
C919 C916 1.539 . S
C919 H933 0.958 . S
C919 H934 0.961 . S
C919 H935 0.960 . S
H920 C904 0.931 . S
H921 C909 0.929 . S
H922 C910 0.960 . S
H923 C910 0.962 . S
H924 C910 0.960 . S
H925 C911 0.961 . S
H926 C911 0.961 . S
H927 C911 0.961 . S
H928 C912 0.931 . S
H929 C917 0.930 . S
H930 C918 0.956 . S
H931 C918 0.961 . S
H932 C918 0.961 . S
H933 C919 0.958 . S
H934 C919 0.961 . S
H935 C919 0.960 . S
C169 C5 1.516 . S
C177 C107 1.785 . S
C201 C18 1.305 . S
C209 C110 1.352 . S
C241 C146 1.556 . S
C233 C30 1.589 . S
C265 C41 1.332 . S
C273 C166 1.357 1_655 S
C305 C120 1.943 . S
C297 C7 1.881 . S
C337 C97 1.750 . S
C329 C16 1.552 . S
C369 C150 1.564 . S
C361 C29 1.641 . S
C401 C130 1.027 . S
C393 C38 0.932 . S
C425 C8 1.428 . S
C433 C160 1.442 . S
C465 C126 1.802 . S
C457 C27 1.693 . S
C489 C40 1.709 . S
C497 C92 1.669 . S
C521 C19 1.075 . S
C529 C140 1.023 . S
C561 C106 1.560 . S
C553 C51 1.455 . S
C585 C62 1.460 . S
C593 C112 1.473 . S
C617 C74 1.688 . S
C625 C147 1.660 . S
C649 C84 1.413 . S
C657 C167 1.465 . S
C681 C49 1.727 . S
C689 C117 2.020 . S
C721 C100 1.490 . S
C713 C63 1.519 . S
C753 C152 1.460 . S
C745 C71 1.402 . S
C785 C132 1.142 . S
C777 C85 1.243 . S
C809 C52 1.375 . S
C817 C157 1.342 . S
C849 C127 1.875 . S
C841 C73 1.830 . S
C881 C90 1.415 . S
C873 C82 1.370 . S
C905 C60 1.303 . S
C913 C137 1.419 . S
