# Generated by pormake.
# Topology zzz, (3,6)-cn, num edge types: 1
# Building blocks:
#     Node 0, Type 0, BuildingBlock: OLANEW_clean_sbu_2, # of connection points: 3
#     Node 1, Type 0, BuildingBlock: OLANEW_clean_sbu_2, # of connection points: 3
#     Node 2, Type 0, BuildingBlock: OLANEW_clean_sbu_2, # of connection points: 3
#     Node 3, Type 0, BuildingBlock: OLANEW_clean_sbu_2, # of connection points: 3
#     Node 4, Type 0, BuildingBlock: OLANEW_clean_sbu_2, # of connection points: 3
#     Node 5, Type 0, BuildingBlock: OLANEW_clean_sbu_2, # of connection points: 3
#     Node 6, Type 0, BuildingBlock: OLANEW_clean_sbu_2, # of connection points: 3
#     Node 7, Type 0, BuildingBlock: OLANEW_clean_sbu_2, # of connection points: 3
#     Node 8, Type 1, BuildingBlock: CUKXOW_clean_sbu_0, # of connection points: 6
#     Node 9, Type 1, BuildingBlock: CUKXOW_clean_sbu_0, # of connection points: 6
#     Node 10, Type 1, BuildingBlock: CUKXOW_clean_sbu_0, # of connection points: 6
#     Node 11, Type 1, BuildingBlock: CUKXOW_clean_sbu_0, # of connection points: 6
#     Edge 12, Type (0, 1), BuildingBlock: ZUJKAS_clean_linker_0, # of connection points: 2
#     Edge 13, Type (0, 1), BuildingBlock: ZUJKAS_clean_linker_0, # of connection points: 2
#     Edge 14, Type (0, 1), BuildingBlock: ZUJKAS_clean_linker_0, # of connection points: 2
#     Edge 15, Type (0, 1), BuildingBlock: ZUJKAS_clean_linker_0, # of connection points: 2
#     Edge 16, Type (0, 1), BuildingBlock: ZUJKAS_clean_linker_0, # of connection points: 2
#     Edge 17, Type (0, 1), BuildingBlock: ZUJKAS_clean_linker_0, # of connection points: 2
#     Edge 18, Type (0, 1), BuildingBlock: ZUJKAS_clean_linker_0, # of connection points: 2
#     Edge 19, Type (0, 1), BuildingBlock: ZUJKAS_clean_linker_0, # of connection points: 2
#     Edge 20, Type (0, 1), BuildingBlock: ZUJKAS_clean_linker_0, # of connection points: 2
#     Edge 21, Type (0, 1), BuildingBlock: ZUJKAS_clean_linker_0, # of connection points: 2
#     Edge 22, Type (0, 1), BuildingBlock: ZUJKAS_clean_linker_0, # of connection points: 2
#     Edge 23, Type (0, 1), BuildingBlock: ZUJKAS_clean_linker_0, # of connection points: 2
#     Edge 24, Type (0, 1), BuildingBlock: ZUJKAS_clean_linker_0, # of connection points: 2
#     Edge 25, Type (0, 1), BuildingBlock: ZUJKAS_clean_linker_0, # of connection points: 2
#     Edge 26, Type (0, 1), BuildingBlock: ZUJKAS_clean_linker_0, # of connection points: 2
#     Edge 27, Type (0, 1), BuildingBlock: ZUJKAS_clean_linker_0, # of connection points: 2
#     Edge 28, Type (0, 1), BuildingBlock: ZUJKAS_clean_linker_0, # of connection points: 2
#     Edge 29, Type (0, 1), BuildingBlock: ZUJKAS_clean_linker_0, # of connection points: 2
#     Edge 30, Type (0, 1), BuildingBlock: ZUJKAS_clean_linker_0, # of connection points: 2
#     Edge 31, Type (0, 1), BuildingBlock: ZUJKAS_clean_linker_0, # of connection points: 2
#     Edge 32, Type (0, 1), BuildingBlock: ZUJKAS_clean_linker_0, # of connection points: 2
#     Edge 33, Type (0, 1), BuildingBlock: ZUJKAS_clean_linker_0, # of connection points: 2
#     Edge 34, Type (0, 1), BuildingBlock: ZUJKAS_clean_linker_0, # of connection points: 2
#     Edge 35, Type (0, 1), BuildingBlock: ZUJKAS_clean_linker_0, # of connection points: 2
# Relax obj value: 0.080
# Max RMSD: 0.133
# Mean RMSD: 0.096
data_MOF--net-zzz--node1-OLANEW_clean_sbu_2--node2-CUKXOW_clean_sbu_0--edge1-ZUJKAS_clean_linker_0
_symmetry_space_group_name_H-M    P1
_symmetry_Int_Tables_number       1
_symmetry_cell_setting            triclinic
loop_
_symmetry_equiv_pos_as_xyz
'x, y, z'
_cell_length_a     68.419011
_cell_length_b     70.006838
_cell_length_c     22.039154
_cell_angle_alpha  92.667365
_cell_angle_beta   87.269483
_cell_angle_gamma 94.135035
loop_
_atom_site_label
_atom_site_type_symbol
_atom_site_fract_x
_atom_site_fract_y
_atom_site_fract_z
_atom_type_partial_charge
O0 O 0.78605 0.52392 0.04754 0.0
Cd1 Cd 0.76181 0.5298 0.13053 0.0
O2 O 0.77746 0.49319 0.03444 0.0
Cd3 Cd 0.76221 0.49306 0.12323 0.0
O4 O 0.77597 0.49098 0.20938 0.0
C5 C 0.78947 0.47937 0.20547 0.0
O6 O 0.79215 0.46937 0.15415 0.0
C7 C 0.78771 0.50806 0.01778 0.0
C8 C 0.72388 0.52738 0.08847 0.0
O9 O 0.73453 0.54321 0.08785 0.0
O10 O 0.73109 0.51281 0.10956 0.0
O11 O 0.92357 0.77708 0.86091 0.0
Cd12 Cd 0.90586 0.74627 0.8787 0.0
O13 O 0.92535 0.78116 0.95975 0.0
Cd14 Cd 0.93533 0.79688 0.04199 0.0
O15 O 0.94581 0.81516 0.11833 0.0
C16 C 0.94352 0.80968 0.17254 0.0
O17 O 0.93479 0.7927 0.18236 0.0
C18 C 0.92891 0.78744 0.90682 0.0
C19 C 0.92966 0.71571 0.86007 0.0
O20 O 0.92028 0.72171 0.81653 0.0
O21 O 0.9279 0.7243 0.91249 0.0
O22 O 0.70738 0.90893 0.8573 0.0
Cd23 Cd 0.73554 0.89141 0.87938 0.0
O24 O 0.70936 0.92336 0.94738 0.0
Cd25 Cd 0.7004 0.94372 0.01984 0.0
O26 O 0.68116 0.95678 0.08907 0.0
C27 C 0.67268 0.94561 0.12745 0.0
O28 O 0.67651 0.92745 0.12431 0.0
C29 C 0.70079 0.92072 0.89736 0.0
C30 C 0.77019 0.91487 0.87544 0.0
O31 O 0.76398 0.90571 0.82761 0.0
O32 O 0.75997 0.91295 0.92532 0.0
O33 O 0.61148 0.72403 0.88644 0.0
Cd34 Cd 0.63075 0.75417 0.90724 0.0
O35 O 0.60907 0.72038 0.98466 0.0
Cd36 Cd 0.60143 0.70499 0.06761 0.0
O37 O 0.5928 0.68892 0.1482 0.0
C38 C 0.59976 0.67284 0.15486 0.0
O39 O 0.61213 0.66627 0.11286 0.0
C40 C 0.60504 0.71422 0.93113 0.0
C41 C 0.61024 0.78579 0.88344 0.0
O42 O 0.62155 0.77822 0.84247 0.0
O43 O 0.60865 0.7784 0.93573 0.0
O44 O 0.23112 0.58483 0.47289 0.0
Cd45 Cd 0.26425 0.59495 0.43656 0.0
O46 O 0.23079 0.56407 0.39547 0.0
Cd47 Cd 0.21764 0.54072 0.3383 0.0
O48 O 0.19985 0.52409 0.27256 0.0
C49 C 0.20107 0.52945 0.21815 0.0
O50 O 0.2134 0.54403 0.20426 0.0
C51 C 0.22202 0.57161 0.4418 0.0
C52 C 0.29223 0.57386 0.48512 0.0
O53 O 0.28737 0.58973 0.51081 0.0
O54 O 0.28377 0.5679 0.43642 0.0
O55 O 0.05288 0.21121 0.43767 0.0
Cd56 Cd 0.05884 0.23403 0.35738 0.0
O57 O 0.08372 0.20454 0.44151 0.0
Cd58 Cd 0.09082 0.21951 0.35786 0.0
O59 O 0.08386 0.21344 0.26311 0.0
C60 C 0.09387 0.20143 0.23266 0.0
O61 O 0.10925 0.19524 0.25714 0.0
C62 C 0.06602 0.20254 0.46198 0.0
C63 C 0.0505 0.27037 0.4029 0.0
O64 O 0.03738 0.25928 0.37693 0.0
O65 O 0.06765 0.26434 0.40638 0.0
O66 O 0.294 0.09805 0.53367 0.0
Cd67 Cd 0.26574 0.11502 0.5087 0.0
O68 O 0.30432 0.09991 0.43841 0.0
Cd69 Cd 0.32563 0.09621 0.3625 0.0
O70 O 0.34747 0.08798 0.29283 0.0
C71 C 0.34663 0.07079 0.27134 0.0
O72 O 0.33255 0.05862 0.29143 0.0
C73 C 0.3066 0.09424 0.49148 0.0
C74 C 0.23092 0.0936 0.53765 0.0
O75 O 0.23972 0.09146 0.48537 0.0
O76 O 0.23856 0.10596 0.57598 0.0
O77 O 0.44477 0.29481 0.41501 0.0
Cd78 Cd 0.43423 0.2704 0.33837 0.0
O79 O 0.41636 0.30768 0.42442 0.0
Cd80 Cd 0.40718 0.29392 0.33863 0.0
O81 O 0.41045 0.30335 0.24544 0.0
C82 C 0.42764 0.31006 0.23006 0.0
O83 O 0.44168 0.30908 0.26827 0.0
C84 C 0.43368 0.30665 0.44193 0.0
C85 C 0.44277 0.23465 0.37653 0.0
O86 O 0.45513 0.24458 0.34319 0.0
O87 O 0.42618 0.24147 0.39071 0.0
Tb88 Tb 0.00268 0.98595 0.69603 0.0
C89 C 0.04367 0.00654 0.71835 0.0
Tb90 Tb 0.00564 0.01628 0.80236 0.0
O91 O 0.00983 0.00833 0.63102 0.0
O92 O 0.99511 0.01444 0.71386 0.0
O93 O 0.03437 0.991 0.69351 0.0
C94 C 0.01247 0.04912 0.86651 0.0
O95 O 0.03487 0.01869 0.75703 0.0
C96 C 0.00561 0.98064 0.83261 0.0
C97 C 0.96512 0.99454 0.78278 0.0
O98 O 0.01762 0.03251 0.88104 0.0
O99 O 0.00311 0.04717 0.81657 0.0
O100 O 0.99924 0.99424 0.86896 0.0
O101 O 0.01318 0.98779 0.78481 0.0
O102 O 0.97396 0.01075 0.80482 0.0
O103 O 0.97429 0.98219 0.74578 0.0
C104 C 0.99503 0.95508 0.62327 0.0
O105 O 0.98769 0.97153 0.61957 0.0
O106 O 0.0069 0.95601 0.66773 0.0
C107 C 0.00303 0.02176 0.66694 0.0
Tb108 Tb 0.50611 0.02742 0.66455 0.0
C109 C 0.52657 0.99687 0.58229 0.0
Tb110 Tb 0.50287 0.98504 0.70433 0.0
O111 O 0.53672 0.03257 0.69253 0.0
O112 O 0.51808 0.01111 0.72927 0.0
O113 O 0.51709 0.01275 0.58211 0.0
C114 C 0.51183 0.95153 0.74453 0.0
O115 O 0.52476 0.98524 0.62846 0.0
C116 C 0.47304 0.99575 0.64798 0.0
C117 C 0.48201 0.0161 0.78737 0.0
O118 O 0.50445 0.95391 0.69236 0.0
O119 O 0.51378 0.96793 0.77428 0.0
O120 O 0.47167 0.98189 0.68571 0.0
O121 O 0.49084 0.00119 0.63846 0.0
O122 O 0.48824 0.9985 0.78335 0.0
O123 O 0.48657 0.02907 0.74577 0.0
C124 C 0.49717 0.0611 0.62552 0.0
O125 O 0.51439 0.05439 0.62031 0.0
O126 O 0.48503 0.04888 0.65281 0.0
C127 C 0.53566 0.01749 0.72495 0.0
Tb128 Tb 0.513 0.52225 0.69898 0.0
C129 C 0.46753 0.51201 0.70017 0.0
Tb130 Tb 0.49478 0.49556 0.79737 0.0
O131 O 0.50779 0.49919 0.63002 0.0
O132 O 0.51341 0.49294 0.71892 0.0
O133 O 0.48236 0.52368 0.67999 0.0
C134 C 0.4782 0.46461 0.85105 0.0
O135 O 0.46932 0.49956 0.74317 0.0
C136 C 0.49858 0.53199 0.83071 0.0
C137 C 0.539 0.50923 0.80225 0.0
O138 O 0.48134 0.46622 0.79303 0.0
O139 O 0.48424 0.48052 0.87903 0.0
O140 O 0.49786 0.51829 0.86881 0.0
O141 O 0.49488 0.5248 0.77877 0.0
O142 O 0.52595 0.49458 0.81247 0.0
O143 O 0.53577 0.52298 0.76516 0.0
C144 C 0.53107 0.54956 0.63176 0.0
O145 O 0.53585 0.53197 0.63227 0.0
O146 O 0.51616 0.5518 0.66936 0.0
C147 C 0.50878 0.48569 0.66791 0.0
Tb148 Tb 0.98766 0.49498 0.64056 0.0
C149 C 0.00778 0.45623 0.65559 0.0
Tb150 Tb 0.01807 0.49354 0.7395 0.0
O151 O 0.0075 0.51491 0.58836 0.0
O152 O 0.01847 0.49545 0.64421 0.0
O153 O 0.99335 0.46473 0.63164 0.0
C154 C 0.04974 0.49095 0.80327 0.0
O155 O 0.01978 0.46505 0.6955 0.0
C156 C 0.98108 0.49121 0.77756 0.0
C157 C 0.99851 0.53179 0.72222 0.0
O158 O 0.03338 0.48047 0.81001 0.0
O159 O 0.04825 0.5029 0.76062 0.0
O160 O 0.99518 0.49845 0.81066 0.0
O161 O 0.98829 0.48444 0.72844 0.0
O162 O 0.01489 0.52429 0.73642 0.0
O163 O 0.98446 0.52172 0.69286 0.0
C164 C 0.95497 0.49164 0.57924 0.0
O165 O 0.95627 0.49785 0.63536 0.0
O166 O 0.97216 0.48731 0.55727 0.0
C167 C 0.02314 0.5095 0.61195 0.0
H168 H 0.21257 0.06449 0.4698 0.0
H169 H 0.18209 0.04564 0.49639 0.0
H170 H 0.1771 0.07807 0.66699 0.0
H171 H 0.20771 0.0967 0.6414 0.0
H172 H 0.17013 0.03889 0.67907 0.0
H173 H 0.12697 0.06415 0.4946 0.0
H174 H 0.14935 0.05368 0.46968 0.0
H175 H 0.15031 0.07574 0.51486 0.0
C176 C 0.20496 0.06763 0.51293 0.0
C177 C 0.2125 0.08216 0.55337 0.0
C178 C 0.1875 0.0569 0.52791 0.0
C179 C 0.1772 0.06065 0.58325 0.0
C180 C 0.18481 0.07499 0.62396 0.0
H181 H 0.06908 0.03285 0.77353 0.0
H182 H 0.10239 0.04311 0.73906 0.0
C183 C 0.20229 0.08565 0.60919 0.0
C184 C 0.15849 0.04968 0.59928 0.0
H185 H 0.11102 0.04123 0.55842 0.0
C186 C 0.15723 0.0393 0.6525 0.0
C187 C 0.14171 0.05019 0.56436 0.0
C188 C 0.142 0.06165 0.50795 0.0
C189 C 0.13954 0.02971 0.67237 0.0
C190 C 0.12268 0.03067 0.63839 0.0
C191 C 0.12405 0.04048 0.58412 0.0
C192 C 0.10309 0.02315 0.66121 0.0
C193 C 0.13896 0.01878 0.7299 0.0
C194 C 0.09241 0.00855 0.62859 0.0
C195 C 0.07329 0.00257 0.64828 0.0
C196 C 0.06449 0.01133 0.70039 0.0
C197 C 0.0754 0.02576 0.73327 0.0
C198 C 0.0945 0.0316 0.71386 0.0
H199 H 0.15383 0.01504 0.74127 0.0
H200 H 0.13303 0.02781 0.76821 0.0
H201 H 0.12926 0.00541 0.72575 0.0
H202 H 0.09879 0.00199 0.5875 0.0
H203 H 0.06522 0.99153 0.62167 0.0
H204 H 0.42013 0.21092 0.45085 0.0
H205 H 0.42908 0.18119 0.49295 0.0
H206 H 0.48557 0.18695 0.39762 0.0
H207 H 0.47671 0.21661 0.35479 0.0
H208 H 0.46653 0.14955 0.38902 0.0
H209 H 0.46839 0.17852 0.62793 0.0
H210 H 0.44601 0.18138 0.59095 0.0
H211 H 0.46844 0.19376 0.56402 0.0
C212 C 0.43444 0.20584 0.43866 0.0
C213 C 0.44775 0.21618 0.39972 0.0
C214 C 0.43956 0.18891 0.46305 0.0
C215 C 0.4581 0.18208 0.44917 0.0
C216 C 0.47123 0.19208 0.40915 0.0
H217 H 0.51927 0.08438 0.54927 0.0
H218 H 0.50978 0.11386 0.50619 0.0
C219 C 0.46614 0.20902 0.38476 0.0
C220 C 0.46382 0.16447 0.47631 0.0
H221 H 0.47222 0.14531 0.61155 0.0
C222 C 0.46785 0.14861 0.43763 0.0
C223 C 0.46548 0.16333 0.53975 0.0
C224 C 0.46203 0.18019 0.58318 0.0
C225 C 0.47322 0.1315 0.46083 0.0
C226 C 0.47496 0.1304 0.52425 0.0
C227 C 0.47088 0.14623 0.56294 0.0
C228 C 0.48095 0.11289 0.55138 0.0
C229 C 0.47658 0.11462 0.41744 0.0
C230 C 0.46815 0.10298 0.59258 0.0
C231 C 0.4736 0.08626 0.61745 0.0
C232 C 0.49194 0.07925 0.60166 0.0
C233 C 0.50498 0.08945 0.5618 0.0
C234 C 0.49953 0.10618 0.53687 0.0
H235 H 0.46996 0.11619 0.37303 0.0
H236 H 0.49259 0.11354 0.4089 0.0
H237 H 0.47036 0.10104 0.43699 0.0
H238 H 0.45383 0.10805 0.60484 0.0
H239 H 0.46347 0.0788 0.64897 0.0
H240 H 0.30311 0.53808 0.4487 0.0
H241 H 0.32957 0.52095 0.4873 0.0
H242 H 0.34285 0.56832 0.61438 0.0
H243 H 0.31617 0.58524 0.57742 0.0
H244 H 0.36753 0.53109 0.48272 0.0
H245 H 0.34345 0.5242 0.72358 0.0
H246 H 0.3272 0.53081 0.66709 0.0
H247 H 0.34365 0.54868 0.70307 0.0
C248 C 0.31151 0.54472 0.48545 0.0
C249 C 0.30753 0.563 0.51012 0.0
C250 C 0.3266 0.5349 0.50748 0.0
C251 C 0.33796 0.54318 0.55454 0.0
C252 C 0.33392 0.56138 0.57937 0.0
H253 H 0.45718 0.53869 0.62352 0.0
H254 H 0.42493 0.54256 0.58605 0.0
C255 C 0.31875 0.57112 0.55777 0.0
C256 C 0.35513 0.53368 0.57427 0.0
H257 H 0.37844 0.52315 0.70075 0.0
C258 C 0.36974 0.52901 0.53031 0.0
C259 C 0.35788 0.53051 0.63615 0.0
C260 C 0.34208 0.53362 0.685 0.0
C261 C 0.38756 0.52252 0.54699 0.0
C262 C 0.39104 0.52117 0.60936 0.0
C263 C 0.37591 0.52453 0.65299 0.0
C264 C 0.41073 0.51799 0.63048 0.0
C265 C 0.4026 0.5175 0.4976 0.0
C266 C 0.41341 0.50318 0.66944 0.0
C267 C 0.4319 0.50105 0.6918 0.0
C268 C 0.44799 0.51376 0.67571 0.0
C269 C 0.4452 0.52853 0.63654 0.0
C270 C 0.42676 0.53069 0.61458 0.0
H271 H 0.39547 0.51259 0.45482 0.0
H272 H 0.41236 0.53045 0.48777 0.0
H273 H 0.41173 0.5061 0.51142 0.0
H274 H 0.40117 0.49333 0.68272 0.0
H275 H 0.43354 0.48952 0.72186 0.0
H276 H 0.07402 0.29552 0.47013 0.0
H277 H 0.06595 0.32655 0.51641 0.0
H278 H 0.00878 0.3195 0.44057 0.0
H279 H 0.01655 0.28826 0.39521 0.0
H280 H 0.05614 0.35869 0.46216 0.0
H281 H 0.99526 0.33219 0.61863 0.0
H282 H 0.01199 0.31643 0.5799 0.0
H283 H 0.99204 0.32477 0.54048 0.0
C284 C 0.05971 0.30055 0.46339 0.0
C285 C 0.04587 0.28939 0.42928 0.0
C286 C 0.05512 0.31827 0.48989 0.0
C287 C 0.03664 0.32515 0.48285 0.0
C288 C 0.02294 0.31423 0.44785 0.0
H289 H 0.98509 0.43212 0.58196 0.0
H290 H 0.99213 0.40007 0.54174 0.0
C291 C 0.02747 0.29645 0.42159 0.0
C292 C 0.03194 0.344 0.51083 0.0
H293 H -0.00031 0.36597 0.60932 0.0
C294 C 0.04387 0.36028 0.49461 0.0
C295 C 0.01592 0.34599 0.55318 0.0
C296 C 0.00316 0.3289 0.57459 0.0
C297 C 0.04002 0.37857 0.51884 0.0
C298 C 0.02394 0.38055 0.56075 0.0
C299 C 0.01199 0.36432 0.57705 0.0
C300 C 0.01927 0.39946 0.58779 0.0
C301 C 0.05295 0.3957 0.49867 0.0
C302 C 0.03202 0.40946 0.62799 0.0
C303 C 0.02805 0.42773 0.65127 0.0
C304 C 0.01124 0.43633 0.63459 0.0
C305 C 0.99822 0.42599 0.59551 0.0
C306 C 0.00218 0.40767 0.57252 0.0
H307 H 0.06225 0.39222 0.45748 0.0
H308 H 0.04395 0.40769 0.48894 0.0
H309 H 0.06275 0.4007 0.53573 0.0
H310 H 0.04517 0.40319 0.64083 0.0
H311 H 0.03837 0.43524 0.68134 0.0
H312 H 0.78847 0.93429 0.97006 0.0
H313 H 0.82016 0.95298 0.96642 0.0
H314 H 0.82583 0.94118 0.77283 0.0
H315 H 0.7942 0.92266 0.77586 0.0
H316 H 0.85581 0.93902 0.9284 0.0
H317 H 0.83953 0.99902 0.7883 0.0
H318 H 0.82052 0.98377 0.82496 0.0
H319 H 0.83216 0.97604 0.75397 0.0
C320 C 0.79637 0.93586 0.9266 0.0
C321 C 0.78883 0.92698 0.87323 0.0
C322 C 0.81444 0.94655 0.92463 0.0
C323 C 0.82518 0.94871 0.86923 0.0
C324 C 0.81757 0.94007 0.81584 0.0
H325 H 0.94493 0.95991 0.76589 0.0
H326 H 0.91092 0.95099 0.79567 0.0
C327 C 0.79955 0.92935 0.81776 0.0
C328 C 0.84504 0.95863 0.86748 0.0
H329 H 0.87366 0.99302 0.79374 0.0
C330 C 0.85965 0.95105 0.89983 0.0
C331 C 0.84998 0.9745 0.83091 0.0
C332 C 0.83467 0.98395 0.79805 0.0
C333 C 0.8793 0.95816 0.89355 0.0
C334 C 0.88444 0.97306 0.85338 0.0
C335 C 0.86968 0.98146 0.82403 0.0
C336 C 0.90517 0.97879 0.83689 0.0
C337 C 0.89449 0.94933 0.92874 0.0
C338 C 0.9131 0.99754 0.84916 0.0
C339 C 0.93266 0.00277 0.83198 0.0
C340 C 0.94444 0.98937 0.80149 0.0
C341 C 0.9363 0.97065 0.78902 0.0
C342 C 0.91688 0.96544 0.80647 0.0
H343 H 0.8878 0.94243 0.96988 0.0
H344 H 0.90139 0.93813 0.89946 0.0
H345 H 0.90618 0.96024 0.94281 0.0
H346 H 0.90419 0.00807 0.87221 0.0
H347 H 0.93849 0.01731 0.84211 0.0
H348 H 0.58323 0.80342 0.95795 0.0
H349 H 0.56538 0.83127 0.93668 0.0
H350 H 0.5948 0.83405 0.75959 0.0
H351 H 0.61275 0.80625 0.78036 0.0
H352 H 0.59447 0.86993 0.83027 0.0
H353 H 0.52051 0.83193 0.81503 0.0
H354 H 0.53351 0.82791 0.8818 0.0
H355 H 0.54281 0.81952 0.80859 0.0
C356 C 0.58588 0.80992 0.9144 0.0
C357 C 0.59937 0.80259 0.87075 0.0
C358 C 0.5756 0.82577 0.90227 0.0
C359 C 0.57864 0.83454 0.84636 0.0
C360 C 0.59221 0.82739 0.80292 0.0
H361 H 0.51138 0.91694 0.68231 0.0
H362 H 0.52742 0.88847 0.70915 0.0
C363 C 0.60242 0.8115 0.81486 0.0
C364 C 0.56796 0.85142 0.83345 0.0
H365 H 0.52232 0.86572 0.81061 0.0
C366 C 0.5787 0.86905 0.82593 0.0
C367 C 0.54742 0.85012 0.82743 0.0
C368 C 0.53533 0.83135 0.83312 0.0
C369 C 0.56941 0.88552 0.81289 0.0
C370 C 0.5488 0.8843 0.80787 0.0
C371 C 0.53809 0.86661 0.81491 0.0
C372 C 0.53817 0.90112 0.79376 0.0
C373 C 0.58181 0.90398 0.80379 0.0
C374 C 0.53847 0.91744 0.83324 0.0
C375 C 0.52934 0.93367 0.818 0.0
C376 C 0.51964 0.93376 0.76327 0.0
C377 C 0.51874 0.9172 0.72482 0.0
C378 C 0.5279 0.90097 0.74005 0.0
H379 H 0.5974 0.90133 0.79242 0.0
H380 H 0.57627 0.9122 0.76708 0.0
H381 H 0.58128 0.91297 0.84657 0.0
H382 H 0.54602 0.91772 0.87541 0.0
H383 H 0.53027 0.94628 0.84841 0.0
H384 H 0.70535 0.55498 0.03423 0.0
H385 H 0.67306 0.55174 0.99007 0.0
H386 H 0.66541 0.49301 0.04261 0.0
H387 H 0.69759 0.49611 0.0872 0.0
H388 H 0.66168 0.52457 0.89564 0.0
H389 H 0.61393 0.51622 0.10524 0.0
H390 H 0.63909 0.52597 0.10672 0.0
H391 H 0.63367 0.50056 0.09692 0.0
C392 C 0.69673 0.54143 0.03692 0.0
C393 C 0.70402 0.5258 0.06426 0.0
C394 C 0.6783 0.5396 0.01164 0.0
C395 C 0.6668 0.52221 0.01377 0.0
C396 C 0.67394 0.50665 0.04151 0.0
H397 H 0.55463 0.48188 0.8668 0.0
H398 H 0.58582 0.48473 0.91799 0.0
C399 C 0.69237 0.50843 0.06663 0.0
C400 C 0.64781 0.52002 0.98401 0.0
H401 H 0.59855 0.51097 0.01114 0.0
C402 C 0.64786 0.52168 0.92084 0.0
C403 C 0.62988 0.51611 0.01713 0.0
C404 C 0.62901 0.51475 0.08534 0.0
C405 C 0.63041 0.51932 0.88963 0.0
C406 C 0.61243 0.51558 0.92277 0.0
C407 C 0.61239 0.51381 0.98594 0.0
C408 C 0.59347 0.51391 0.8927 0.0
C409 C 0.63142 0.5205 0.82133 0.0
C410 C 0.58736 0.52949 0.86257 0.0
C411 C 0.56969 0.52788 0.8331 0.0
C412 C 0.55768 0.5107 0.83369 0.0
C413 C 0.56361 0.49525 0.8652 0.0
C414 C 0.58138 0.49686 0.8945 0.0
H415 H 0.64635 0.51815 0.80165 0.0
H416 H 0.6208 0.50978 0.8 0.0
H417 H 0.62771 0.53499 0.80932 0.0
H418 H 0.59624 0.54294 0.86198 0.0
H419 H 0.56541 0.54019 0.81025 0.0
H420 H 0.93533 0.69417 0.7551 0.0
H421 H 0.95251 0.66477 0.74145 0.0
H422 H 0.96824 0.66983 0.92895 0.0
H423 H 0.95084 0.69919 0.9434 0.0
H424 H 0.99188 0.65634 0.7604 0.0
H425 H 0.93719 0.61721 0.91326 0.0
H426 H 0.93298 0.64017 0.88426 0.0
H427 H 0.94934 0.63876 0.94498 0.0
C428 C 0.94256 0.68914 0.79339 0.0
C429 C 0.94152 0.69889 0.85054 0.0
C430 C 0.95243 0.67237 0.78541 0.0
C431 C 0.96142 0.66503 0.83438 0.0
C432 C 0.96114 0.67514 0.89085 0.0
H433 H 0.02391 0.55866 0.77793 0.0
H434 H 0.0175 0.59173 0.81064 0.0
C435 C 0.95123 0.69192 0.89894 0.0
C436 C 0.96991 0.64617 0.82668 0.0
H437 H 0.96168 0.59949 0.86472 0.0
C438 C 0.98551 0.64393 0.78379 0.0
C439 C 0.96142 0.63004 0.85708 0.0
C440 C 0.94422 0.63151 0.90219 0.0
C441 C 0.99244 0.62581 0.76905 0.0
C442 C 0.98358 0.60964 0.7983 0.0
C443 C 0.96848 0.612 0.84274 0.0
C444 C 0.98801 0.58991 0.7784 0.0
C445 C 0.00846 0.62389 0.72017 0.0
C446 C 0.97352 0.578 0.75003 0.0
C447 C 0.97708 0.55924 0.73146 0.0
C448 C 0.99523 0.55191 0.74114 0.0
C449 C 0.0098 0.56388 0.76968 0.0
C450 C 0.0062 0.58277 0.7882 0.0
H451 H 0.01219 0.63751 0.69698 0.0
H452 H 0.02186 0.61954 0.74074 0.0
H453 H 0.00396 0.61256 0.68565 0.0
H454 H 0.95938 0.58326 0.74215 0.0
H455 H 0.96546 0.55046 0.70988 0.0
H456 H 0.08699 0.17353 0.49729 0.0
H457 H 0.07448 0.14619 0.55613 0.0
H458 H 0.01957 0.17216 0.59129 0.0
H459 H 0.03173 0.19929 0.53073 0.0
H460 H 0.05814 0.13896 0.67136 0.0
H461 H 0.0034 0.12356 0.49329 0.0
H462 H 0.02344 0.14155 0.48527 0.0
H463 H 0.00219 0.14643 0.5331 0.0
C464 C 0.0724 0.17364 0.5186 0.0
C465 C 0.06019 0.18837 0.50834 0.0
C466 C 0.06528 0.158 0.55231 0.0
C467 C 0.04592 0.15693 0.57668 0.0
C468 C 0.03437 0.17249 0.57148 0.0
H469 H 0.98282 0.05189 0.71138 0.0
H470 H 0.99236 0.08622 0.70118 0.0
C471 C 0.04137 0.188 0.53706 0.0
C472 C 0.03729 0.13867 0.60099 0.0
H473 H 0.00371 0.10144 0.56963 0.0
C474 C 0.04608 0.13086 0.64966 0.0
C475 C 0.0216 0.12806 0.57227 0.0
C476 C 0.01218 0.13519 0.51779 0.0
C477 C 0.0399 0.1125 0.66928 0.0
C478 C 0.02465 0.10181 0.63934 0.0
C479 C 0.01533 0.10986 0.59253 0.0
C480 C 0.01961 0.08144 0.65081 0.0
C481 C 0.04994 0.10436 0.72072 0.0
C482 C 0.03171 0.06759 0.6252 0.0
C483 C 0.02617 0.04813 0.6301 0.0
C484 C 0.00856 0.04229 0.66126 0.0
C485 C 0.99653 0.05615 0.68745 0.0
C486 C 0.00197 0.07566 0.68189 0.0
H487 H 0.05936 0.11545 0.74531 0.0
H488 H 0.03889 0.09778 0.75348 0.0
H489 H 0.05924 0.0929 0.70228 0.0
H490 H 0.04524 0.07185 0.60033 0.0
H491 H 0.03574 0.03767 0.60987 0.0
H492 H 0.32531 0.06822 0.41733 0.0
H493 H 0.35431 0.05168 0.4386 0.0
H494 H 0.35415 0.07803 0.61953 0.0
H495 H 0.32585 0.09559 0.5969 0.0
H496 H 0.39065 0.07945 0.56603 0.0
H497 H 0.3557 0.00569 0.54145 0.0
H498 H 0.35433 0.01937 0.47513 0.0
H499 H 0.34176 0.02666 0.54504 0.0
C500 C 0.33181 0.07094 0.46091 0.0
C501 C 0.32373 0.08369 0.50472 0.0
C502 C 0.34811 0.06111 0.47358 0.0
C503 C 0.35629 0.06347 0.53087 0.0
C504 C 0.34807 0.07601 0.57498 0.0
H505 H 0.43523 0.99154 0.69073 0.0
H506 H 0.40742 0.00829 0.65982 0.0
C507 C 0.33188 0.08597 0.56212 0.0
C508 C 0.37361 0.05314 0.54476 0.0
H509 H 0.39014 0.0085 0.55269 0.0
C510 C 0.39055 0.06393 0.56319 0.0
C511 C 0.37336 0.03289 0.54158 0.0
C512 C 0.35526 0.02045 0.52531 0.0
C513 C 0.40725 0.05504 0.57866 0.0
C514 C 0.40719 0.03481 0.57407 0.0
C515 C 0.39024 0.02401 0.55556 0.0
C516 C 0.42416 0.0245 0.59131 0.0
C517 C 0.42455 0.0674 0.60156 0.0
C518 C 0.44278 0.02784 0.56247 0.0
C519 C 0.45874 0.01837 0.58044 0.0
C520 C 0.45624 0.00527 0.627 0.0
C521 C 0.43754 0.00157 0.65467 0.0
C522 C 0.42165 0.01113 0.63706 0.0
H523 H 0.42041 0.08194 0.61717 0.0
H524 H 0.43109 0.0607 0.63977 0.0
H525 H 0.43588 0.06907 0.56412 0.0
H526 H 0.44498 0.03775 0.52608 0.0
H527 H 0.47301 0.0213 0.55803 0.0
H528 H 0.47004 0.3087 0.48944 0.0
H529 H 0.48528 0.3353 0.55016 0.0
H530 H 0.43115 0.36348 0.5574 0.0
H531 H 0.41569 0.33685 0.49775 0.0
H532 H 0.4901 0.37044 0.50624 0.0
H533 H 0.44925 0.37502 0.72824 0.0
H534 H 0.44784 0.35366 0.67887 0.0
H535 H 0.43299 0.37322 0.66643 0.0
C536 C 0.46121 0.3203 0.50534 0.0
C537 C 0.4417 0.32073 0.48817 0.0
C538 C 0.46994 0.33549 0.54014 0.0
C539 C 0.45933 0.35133 0.55868 0.0
C540 C 0.43951 0.35124 0.54478 0.0
H541 H 0.4904 0.46992 0.56948 0.0
H542 H 0.48064 0.43606 0.54818 0.0
C543 C 0.43074 0.33603 0.51017 0.0
C544 C 0.46962 0.36912 0.58365 0.0
H545 H 0.46624 0.40458 0.69467 0.0
C546 C 0.48513 0.3777 0.54813 0.0
C547 C 0.46329 0.37853 0.63856 0.0
C548 C 0.44756 0.36952 0.68052 0.0
C549 C 0.49366 0.39591 0.56404 0.0
C550 C 0.48628 0.40594 0.61632 0.0
C551 C 0.47165 0.39693 0.65405 0.0
C552 C 0.49254 0.42628 0.6296 0.0
C553 C 0.51016 0.40451 0.52388 0.0
C554 C 0.50229 0.43195 0.68274 0.0
C555 C 0.50799 0.4513 0.69477 0.0
C556 C 0.50365 0.46521 0.65441 0.0
C557 C 0.49396 0.45946 0.60123 0.0
C558 C 0.48839 0.44016 0.58903 0.0
H559 H 0.51775 0.39326 0.49666 0.0
H560 H 0.50409 0.41406 0.49179 0.0
H561 H 0.5211 0.41317 0.55121 0.0
H562 H 0.50556 0.42142 0.7146 0.0
H563 H 0.51563 0.4554 0.73582 0.0
H564 H 0.20577 0.56904 0.55638 0.0
H565 H 0.17187 0.55852 0.58635 0.0
H566 H 0.15816 0.55038 0.39747 0.0
H567 H 0.19192 0.56103 0.36741 0.0
H568 H 0.13727 0.57382 0.56014 0.0
H569 H 0.13898 0.4989 0.46688 0.0
H570 H 0.16096 0.5144 0.47672 0.0
H571 H 0.1462 0.51666 0.41242 0.0
C572 C 0.19552 0.56489 0.52134 0.0
C573 C 0.20161 0.56524 0.4596 0.0
C574 C 0.1762 0.5589 0.53847 0.0
C575 C 0.16263 0.55326 0.49414 0.0
C576 C 0.16856 0.55409 0.43241 0.0
H577 H 0.0354 0.54052 0.54607 0.0
H578 H 0.06933 0.55172 0.5184 0.0
C579 C 0.18789 0.56003 0.41529 0.0
C580 C 0.14217 0.54691 0.5125 0.0
H581 H 0.10786 0.50918 0.50108 0.0
C582 C 0.13083 0.55967 0.54741 0.0
C583 C 0.13391 0.52837 0.49636 0.0
C584 C 0.14567 0.5137 0.46152 0.0
C585 C 0.11134 0.55448 0.566 0.0
C586 C 0.10291 0.53614 0.54833 0.0
C587 C 0.11432 0.5233 0.51407 0.0
C588 C 0.08239 0.52979 0.56594 0.0
C589 C 0.10007 0.56851 0.60532 0.0
C590 C 0.0785 0.51357 0.60077 0.0
C591 C 0.05921 0.50708 0.61604 0.0
C592 C 0.04346 0.51671 0.59674 0.0
C593 C 0.04731 0.53293 0.5618 0.0
C594 C 0.06666 0.5394 0.54635 0.0
H595 H 0.10999 0.57974 0.62736 0.0
H596 H 0.09017 0.57571 0.57668 0.0
H597 H 0.09094 0.56105 0.64122 0.0
H598 H 0.09043 0.50588 0.616 0.0
H599 H 0.05663 0.49436 0.64223 0.0
H600 H 0.95553 0.79794 0.81651 0.0
H601 H 0.97208 0.82981 0.80206 0.0
H602 H 0.94053 0.85188 0.9613 0.0
H603 H 0.92414 0.82016 0.97595 0.0
H604 H 0.95678 0.86341 0.78227 0.0
H605 H 0.99612 0.87059 0.99672 0.0
H606 H 0.98478 0.84801 0.96882 0.0
H607 H 0.97029 0.86525 0.00991 0.0
C608 C 0.95232 0.8096 0.84867 0.0
C609 C 0.93904 0.80651 0.89843 0.0
C610 C 0.96175 0.82775 0.84041 0.0
C611 C 0.95794 0.84309 0.88155 0.0
C612 C 0.94426 0.8401 0.9303 0.0
H613 H 0.97826 0.96464 0.9116 0.0
H614 H 0.96833 0.93055 0.92055 0.0
C615 C 0.93496 0.82195 0.9388 0.0
C616 C 0.96755 0.86246 0.8723 0.0
H617 H 0.99336 0.8996 0.94486 0.0
C618 C 0.96503 0.87123 0.81742 0.0
C619 C 0.9784 0.8726 0.91813 0.0
C620 C 0.98274 0.86355 0.97642 0.0
C621 C 0.97231 0.8902 0.80828 0.0
C622 C 0.98243 0.90053 0.85517 0.0
C623 C 0.98546 0.89161 0.90924 0.0
C624 C 0.98904 0.92098 0.85034 0.0
C625 C 0.96853 0.89932 0.7496 0.0
C626 C 0.00421 0.92677 0.80867 0.0
C627 C 0.01 0.94623 0.80385 0.0
C628 C 0.00059 0.96009 0.84032 0.0
C629 C 0.98575 0.95421 0.88298 0.0
C630 C 0.98003 0.93479 0.88799 0.0
H631 H 0.95789 0.89038 0.72191 0.0
H632 H 0.96283 0.91367 0.75901 0.0
H633 H 0.98251 0.90132 0.72224 0.0
H634 H 0.01155 0.91625 0.77998 0.0
H635 H 0.02181 0.95044 0.77172 0.0
H636 H 0.69062 0.93234 0.78793 0.0
H637 H 0.66251 0.9502 0.76636 0.0
H638 H 0.64424 0.9511 0.95653 0.0
H639 H 0.67134 0.93184 0.97724 0.0
H640 H 0.61399 0.94362 0.89082 0.0
H641 H 0.65658 0.00618 0.79533 0.0
H642 H 0.66234 0.98441 0.75454 0.0
H643 H 0.66801 0.98795 0.83349 0.0
C644 C 0.68062 0.93639 0.82512 0.0
C645 C 0.68369 0.93144 0.88479 0.0
C646 C 0.6647 0.94681 0.81288 0.0
C647 C 0.65168 0.95267 0.86017 0.0
C648 C 0.65436 0.94716 0.9195 0.0
H649 H 0.56603 0.03542 0.78558 0.0
H650 H 0.59383 0.02054 0.82648 0.0
C651 C 0.67011 0.93649 0.93157 0.0
C652 C 0.63479 0.96379 0.84727 0.0
H653 H 0.62234 0.00284 0.77442 0.0
C654 C 0.61585 0.95671 0.86607 0.0
C655 C 0.63718 0.98112 0.81617 0.0
C656 C 0.65715 0.99047 0.79937 0.0
C657 C 0.59922 0.96607 0.85269 0.0
C658 C 0.60153 0.98257 0.81742 0.0
C659 C 0.62051 0.99006 0.80071 0.0
C660 C 0.58448 0.99169 0.79493 0.0
C661 C 0.57941 0.9582 0.87699 0.0
C662 C 0.57024 0.98057 0.76265 0.0
C663 C 0.55428 0.98897 0.7408 0.0
C664 C 0.55244 0.00873 0.74917 0.0
C665 C 0.56703 0.02008 0.77927 0.0
C666 C 0.58287 0.01159 0.80252 0.0
H667 H 0.5807 0.9503 0.91903 0.0
H668 H 0.5693 0.96976 0.88708 0.0
H669 H 0.57282 0.94792 0.84262 0.0
H670 H 0.57157 0.96538 0.75341 0.0
H671 H 0.5438 0.98 0.71567 0.0
H672 H 0.60806 0.68947 0.83281 0.0
H673 H 0.58888 0.65905 0.81369 0.0
H674 H 0.55691 0.66697 0.98543 0.0
H675 H 0.57527 0.6978 0.00315 0.0
H676 H 0.58609 0.62665 0.87912 0.0
H677 H 0.51309 0.65562 0.86877 0.0
H678 H 0.53562 0.67071 0.86632 0.0
H679 H 0.52508 0.66262 0.9378 0.0
C680 C 0.59687 0.68475 0.86634 0.0
C681 C 0.5935 0.6958 0.92022 0.0
C682 C 0.58598 0.66736 0.85546 0.0
C683 C 0.57138 0.6608 0.89793 0.0
C684 C 0.56795 0.67184 0.9517 0.0
H685 H 0.52126 0.54411 0.9248 0.0
H686 H 0.53868 0.5756 0.94056 0.0
C687 C 0.57878 0.68927 0.96245 0.0
C688 C 0.56001 0.64225 0.88648 0.0
H689 H 0.51346 0.62172 0.87434 0.0
C690 C 0.57021 0.62557 0.87781 0.0
C691 C 0.53932 0.64092 0.88379 0.0
C692 C 0.52763 0.65844 0.88904 0.0
C693 C 0.56026 0.60754 0.86785 0.0
C694 C 0.53953 0.60612 0.86788 0.0
C695 C 0.52935 0.62283 0.87514 0.0
C696 C 0.52816 0.58742 0.86014 0.0
C697 C 0.57207 0.59021 0.85646 0.0
C698 C 0.51576 0.58391 0.81127 0.0
C699 C 0.50556 0.56603 0.80278 0.0
C700 C 0.50767 0.5514 0.84287 0.0
C701 C 0.51946 0.55515 0.89306 0.0
C702 C 0.52959 0.57304 0.90171 0.0
H703 H 0.58746 0.59432 0.84129 0.0
H704 H 0.57244 0.58251 0.89924 0.0
H705 H 0.5654 0.58015 0.82152 0.0
H706 H 0.51425 0.5949 0.77912 0.0
H707 H 0.49613 0.56358 0.76472 0.0
H708 H 0.79908 0.47534 0.95745 0.0
H709 H 0.82991 0.47156 0.89887 0.0
H710 H 0.84368 0.53259 0.91367 0.0
H711 H 0.81291 0.53661 0.97239 0.0
H712 H 0.855 0.50972 0.79226 0.0
H713 H 0.88008 0.48428 0.00967 0.0
H714 H 0.85729 0.47362 0.98194 0.0
H715 H 0.85908 0.49839 0.00718 0.0
C716 C 0.80836 0.48805 0.94683 0.0
C717 C 0.80367 0.50626 0.9705 0.0
C718 C 0.82597 0.48583 0.91332 0.0
C719 C 0.83906 0.50178 0.90266 0.0
C720 C 0.83369 0.52013 0.92154 0.0
H721 H 0.96447 0.51363 0.86651 0.0
H722 H 0.92946 0.51601 0.89165 0.0
C723 C 0.81612 0.52238 0.95524 0.0
C724 C 0.85941 0.4991 0.88027 0.0
H725 H 0.90303 0.4858 0.92725 0.0
C726 C 0.86553 0.50438 0.82139 0.0
C727 C 0.87303 0.49231 0.9189 0.0
C728 C 0.8672 0.48689 0.98313 0.0
C729 C 0.88512 0.50309 0.80015 0.0
C730 C 0.89875 0.49634 0.83899 0.0
C731 C 0.89251 0.49095 0.89766 0.0
C732 C 0.91979 0.49542 0.82108 0.0
C733 C 0.89118 0.50933 0.737 0.0
C734 C 0.92591 0.48293 0.77343 0.0
C735 C 0.94591 0.48147 0.7593 0.0
C736 C 0.96002 0.49251 0.79254 0.0
C737 C 0.95387 0.50495 0.84028 0.0
C738 C 0.93391 0.50637 0.85446 0.0
H739 H 0.88018 0.51812 0.71832 0.0
H740 H 0.90559 0.51772 0.73673 0.0
H741 H 0.89265 0.49644 0.70634 0.0
H742 H 0.91525 0.47406 0.74797 0.0
H743 H 0.95034 0.47156 0.72284 0.0
H744 H 0.05954 0.20694 0.17874 0.0
H745 H 0.0436 0.18595 0.10109 0.0
H746 H 0.09406 0.15227 0.08481 0.0
H747 H 0.11021 0.17323 0.1617 0.0
H748 H 0.07543 0.15702 0.97166 0.0
H749 H 0.02357 0.1321 0.15897 0.0
H750 H 0.02528 0.15735 0.14619 0.0
H751 H 0.04598 0.14645 0.17326 0.0
C752 C 0.06745 0.19535 0.15761 0.0
C753 C 0.08601 0.19154 0.17722 0.0
C754 C 0.05828 0.18335 0.11339 0.0
C755 C 0.06751 0.16737 0.08823 0.0
C756 C 0.08666 0.16449 0.10397 0.0
H757 H 0.03123 0.05447 0.97226 0.0
H758 H 0.04294 0.08493 0.02139 0.0
C759 C 0.09585 0.17647 0.14809 0.0
C760 C 0.05657 0.15237 0.05134 0.0
H761 H 0.02073 0.11606 0.06385 0.0
C762 C 0.06327 0.14822 0.99132 0.0
C763 C 0.04086 0.14082 0.07761 0.0
C764 C 0.03351 0.14423 0.14265 0.0
C765 C 0.05497 0.13245 0.95732 0.0
C766 C 0.03957 0.12068 0.9842 0.0
C767 C 0.03249 0.1252 0.04347 0.0
C768 C 0.03193 0.10251 0.9542 0.0
C769 C 0.0633 0.12795 0.89404 0.0
C770 C 0.0216 0.10236 0.90066 0.0
C771 C 0.01481 0.08495 0.87267 0.0
C772 C 0.01828 0.06751 0.89795 0.0
C773 C 0.02833 0.06772 0.95199 0.0
C774 C 0.03503 0.08509 0.97999 0.0
H775 H 0.07719 0.13665 0.88368 0.0
H776 H 0.06608 0.11253 0.8882 0.0
H777 H 0.05251 0.13102 0.86038 0.0
H778 H 0.01884 0.11568 0.88052 0.0
H779 H 0.00714 0.08512 0.83082 0.0
H780 H 0.37883 0.09167 0.22518 0.0
H781 H 0.40238 0.08158 0.14503 0.0
H782 H 0.371 0.02603 0.13027 0.0
H783 H 0.34733 0.03594 0.21025 0.0
H784 H 0.42635 0.04866 0.14142 0.0
H785 H 0.37419 0.04664 0.95474 0.0
H786 H 0.3698 0.05924 0.02692 0.0
H787 H 0.36594 0.0336 0.02068 0.0
C788 C 0.37692 0.0773 0.20492 0.0
C789 C 0.36113 0.06464 0.22382 0.0
C790 C 0.39041 0.07156 0.15929 0.0
C791 C 0.38826 0.05316 0.13148 0.0
C792 C 0.37272 0.04038 0.15077 0.0
H793 H 0.47176 0.9956 0.88859 0.0
H794 H 0.4495 0.00445 0.97389 0.0
C795 C 0.35927 0.04606 0.19657 0.0
C796 C 0.40221 0.0474 0.08187 0.0
H797 H 0.40564 0.03586 0.92977 0.0
C798 C 0.42187 0.04583 0.09513 0.0
C799 C 0.39626 0.0439 0.02158 0.0
C800 C 0.37544 0.04605 0.00469 0.0
C801 C 0.43578 0.04069 0.04949 0.0
C802 C 0.42976 0.03694 0.98937 0.0
C803 C 0.41013 0.03863 0.97609 0.0
C804 C 0.44372 0.03177 0.93903 0.0
C805 C 0.45685 0.03966 0.06555 0.0
C806 C 0.44763 0.04413 0.89105 0.0
C807 C 0.46031 0.03915 0.84231 0.0
C808 C 0.46919 0.02161 0.84038 0.0
C809 C 0.46523 0.00924 0.88868 0.0
C810 C 0.45259 0.01429 0.93761 0.0
H811 H 0.45981 0.04664 0.11082 0.0
H812 H 0.46021 0.0244 0.06659 0.0
H813 H 0.46694 0.04659 0.03083 0.0
H814 H 0.44083 0.05764 0.89129 0.0
H815 H 0.4629 0.04898 0.8058 0.0
H816 H 0.40126 0.31833 0.14662 0.0
H817 H 0.40681 0.34061 0.06401 0.0
H818 H 0.46756 0.35015 0.10834 0.0
H819 H 0.46229 0.32772 0.18958 0.0
H820 H 0.41726 0.37797 0.0793 0.0
H821 H 0.47284 0.34522 0.92603 0.0
H822 H 0.45884 0.3319 0.98359 0.0
H823 H 0.48049 0.34672 0.00286 0.0
C824 C 0.4159 0.32484 0.13781 0.0
C825 C 0.43132 0.32129 0.17484 0.0
C826 C 0.41904 0.33759 0.09065 0.0
C827 C 0.43766 0.34689 0.07944 0.0
C828 C 0.45319 0.34281 0.115 0.0
H829 H 0.47231 0.45937 0.97216 0.0
H830 H 0.46016 0.42996 0.02132 0.0
C831 C 0.4501 0.33007 0.1619 0.0
C832 C 0.44051 0.36243 0.03561 0.0
H833 H 0.47176 0.37974 0.92252 0.0
C834 C 0.42894 0.37819 0.04423 0.0
C835 C 0.45551 0.36263 0.98913 0.0
C836 C 0.46747 0.34559 0.97443 0.0
C837 C 0.43277 0.3946 0.01024 0.0
C838 C 0.44887 0.39545 0.9675 0.0
C839 C 0.45964 0.37923 0.95609 0.0
C840 C 0.45555 0.41339 0.93712 0.0
C841 C 0.41968 0.41098 0.02114 0.0
C842 C 0.45748 0.41372 0.87344 0.0
C843 C 0.46461 0.43049 0.8453 0.0
C844 C 0.47 0.44714 0.88046 0.0
C845 C 0.46808 0.44678 0.94405 0.0
C846 C 0.46101 0.43003 0.97213 0.0
H847 H 0.40479 0.40584 0.03841 0.0
H848 H 0.42604 0.42123 0.05603 0.0
H849 H 0.41827 0.41874 0.97893 0.0
H850 H 0.45353 0.401 0.84557 0.0
H851 H 0.46609 0.43038 0.79612 0.0
H852 H 0.19785 0.53989 0.10148 0.0
H853 H 0.17328 0.52778 0.02987 0.0
H854 H 0.1494 0.48689 0.15897 0.0
H855 H 0.17372 0.49919 0.23163 0.0
H856 H 0.1634 0.49156 0.97644 0.0
H857 H 0.1025 0.51745 0.12777 0.0
H858 H 0.12791 0.5244 0.14071 0.0
H859 H 0.11757 0.5011 0.16091 0.0
C860 C 0.18748 0.52822 0.11459 0.0
C861 C 0.18757 0.52068 0.17259 0.0
C862 C 0.17348 0.52128 0.07349 0.0
C863 C 0.15932 0.50668 0.08957 0.0
C864 C 0.15997 0.49844 0.14621 0.0
H865 H 0.05318 0.46861 0.89949 0.0
H866 H 0.08066 0.46941 0.96722 0.0
C867 C 0.17392 0.50544 0.18754 0.0
C868 C 0.14333 0.50095 0.0481 0.0
H869 H 0.09396 0.50223 0.03456 0.0
C870 C 0.14819 0.49375 0.98921 0.0
C871 C 0.12351 0.50385 0.06498 0.0
C872 C 0.11749 0.51226 0.12681 0.0
C873 C 0.13376 0.48959 0.94642 0.0
C874 C 0.11405 0.49298 0.96287 0.0
C875 C 0.10911 0.49961 0.02225 0.0
C876 C 0.09844 0.49098 0.91834 0.0
C877 C 0.13971 0.4817 0.88396 0.0
C878 C 0.0994 0.50281 0.86844 0.0
C879 C 0.08373 0.50243 0.82993 0.0
C880 C 0.06684 0.49027 0.84095 0.0
C881 C 0.06607 0.4781 0.89003 0.0
C882 C 0.08173 0.47853 0.92865 0.0
H883 H 0.15386 0.47484 0.88403 0.0
H884 H 0.12831 0.47103 0.86646 0.0
H885 H 0.14158 0.49361 0.8522 0.0
H886 H 0.11199 0.51281 0.86045 0.0
H887 H 0.08464 0.51198 0.79244 0.0
H888 H 0.9623 0.84543 0.16736 0.0
H889 H 0.97247 0.86692 0.25229 0.0
H890 H 0.95029 0.82456 0.37887 0.0
H891 H 0.93985 0.80297 0.2941 0.0
H892 H 0.93797 0.86084 0.40844 0.0
H893 H 0.01844 0.86398 0.36282 0.0
H894 H 0.00524 0.86917 0.29776 0.0
H895 H 0.00197 0.84572 0.32836 0.0
C896 C 0.9597 0.84059 0.21321 0.0
C897 C 0.95028 0.82246 0.22394 0.0
C898 C 0.96565 0.85285 0.26169 0.0
C899 C 0.96243 0.8472 0.3218 0.0
C900 C 0.95305 0.82912 0.33276 0.0
H901 H 0.00882 0.91947 0.62709 0.0
H902 H 0.0007 0.89136 0.55951 0.0
C903 C 0.9471 0.81681 0.28425 0.0
C904 C 0.96787 0.86065 0.3731 0.0
H905 H 0.00618 0.88868 0.43035 0.0
C906 C 0.95292 0.86675 0.41375 0.0
C907 C 0.98742 0.86811 0.38052 0.0
C908 C 0.00423 0.86128 0.34043 0.0
C909 C 0.95688 0.88082 0.45978 0.0
C910 C 0.97621 0.88916 0.46468 0.0
C911 C 0.99133 0.88239 0.42604 0.0
C912 C 0.98078 0.90579 0.50682 0.0
C913 C 0.94028 0.88683 0.50234 0.0
C914 C 0.97242 0.92317 0.49902 0.0
C915 C 0.97707 0.93915 0.53715 0.0
C916 C 0.99024 0.93805 0.58357 0.0
C917 C 0.99865 0.92066 0.59146 0.0
C918 C 0.99402 0.90464 0.55307 0.0
H919 H 0.92799 0.87557 0.50417 0.0
H920 H 0.94537 0.89004 0.54907 0.0
H921 H 0.93455 0.9 0.4859 0.0
H922 H 0.96247 0.92444 0.46287 0.0
H923 H 0.97042 0.9524 0.53003 0.0
H924 H 0.6546 0.92606 0.22109 0.0
H925 H 0.62973 0.93715 0.29513 0.0
H926 H 0.6328 0.99194 0.21232 0.0
H927 H 0.65774 0.98098 0.1377 0.0
H928 H 0.63337 0.97111 0.37763 0.0
H929 H 0.57323 0.97255 0.21655 0.0
H930 H 0.59454 0.9591 0.19958 0.0
H931 H 0.59646 0.9847 0.19525 0.0
C932 C 0.65002 0.94048 0.21853 0.0
C933 C 0.65811 0.95262 0.17339 0.0
C934 C 0.63582 0.94678 0.26091 0.0
C935 C 0.62931 0.96525 0.25863 0.0
C936 C 0.63748 0.97753 0.21419 0.0
H937 H 0.53806 0.01878 0.48509 0.0
H938 H 0.5632 0.01216 0.40553 0.0
C939 C 0.65179 0.97128 0.17188 0.0
C940 C 0.6141 0.9716 0.30345 0.0
H941 H 0.56604 0.98186 0.31885 0.0
C942 C 0.61867 0.97354 0.36486 0.0
C943 C 0.59501 0.97487 0.28635 0.0
C944 C 0.58935 0.97261 0.22094 0.0
C945 C 0.60456 0.97854 0.40993 0.0
C946 C 0.58526 0.98118 0.39314 0.0
C947 C 0.58082 0.97973 0.33151 0.0
C948 C 0.56936 0.9848 0.43928 0.0
C949 C 0.61049 0.98105 0.47507 0.0
C950 C 0.56411 0.97134 0.48341 0.0
C951 C 0.54983 0.97506 0.52888 0.0
C952 C 0.54035 0.99226 0.53076 0.0
C953 C 0.54509 0.00541 0.48502 0.0
C954 C 0.55946 0.00168 0.43957 0.0
H955 H 0.6266 0.98411 0.47792 0.0
H956 H 0.60296 0.99287 0.49947 0.0
H957 H 0.60636 0.96761 0.49878 0.0
H958 H 0.57124 0.958 0.48307 0.0
H959 H 0.54646 0.96454 0.56305 0.0
H960 H 0.57399 0.68202 0.24871 0.0
H961 H 0.56379 0.66303 0.33663 0.0
H962 H 0.60152 0.61916 0.27046 0.0
H963 H 0.61198 0.63809 0.18276 0.0
H964 H 0.54545 0.62603 0.33429 0.0
H965 H 0.6162 0.62831 0.44828 0.0
H966 H 0.61164 0.64458 0.39015 0.0
H967 H 0.61773 0.62051 0.36952 0.0
C968 C 0.58024 0.66839 0.25305 0.0
C969 C 0.59384 0.66159 0.20877 0.0
C970 C 0.57439 0.65758 0.30332 0.0
C971 C 0.58213 0.63984 0.3105 0.0
C972 C 0.5957 0.633 0.26645 0.0
H973 H 0.5604 0.54526 0.54563 0.0
H974 H 0.573 0.5684 0.4708 0.0
C975 C 0.60155 0.64379 0.21613 0.0
C976 C 0.57525 0.62803 0.36238 0.0
H977 H 0.59087 0.60595 0.4844 0.0
C978 C 0.55532 0.62179 0.36751 0.0
C979 C 0.58821 0.62251 0.40548 0.0
C980 C 0.60961 0.62945 0.4036 0.0
C981 C 0.54807 0.60966 0.41356 0.0
C982 C 0.56106 0.60394 0.45623 0.0
C983 C 0.58096 0.61039 0.45161 0.0
C984 C 0.55438 0.59063 0.50447 0.0
C985 C 0.5267 0.60254 0.41485 0.0
C986 C 0.54012 0.59567 0.54914 0.0
C987 C 0.53288 0.58246 0.5918 0.0
C988 C 0.53989 0.56408 0.59056 0.0
C989 C 0.55472 0.55933 0.5474 0.0
C990 C 0.56192 0.57252 0.50473 0.0
H991 H 0.51984 0.6047 0.37122 0.0
H992 H 0.52491 0.58707 0.42447 0.0
H993 H 0.51862 0.61055 0.45148 0.0
H994 H 0.53439 0.60971 0.5504 0.0
H995 H 0.52154 0.5865 0.62495 0.0
H996 H 0.79098 0.50099 0.31259 0.0
H997 H 0.81723 0.50286 0.38529 0.0
H998 H 0.84634 0.45904 0.27972 0.0
H999 H 0.82032 0.45695 0.20717 0.0
H1000 H 0.83668 0.46592 0.44521 0.0
H1001 H 0.8825 0.51475 0.29448 0.0
H1002 H 0.85601 0.51368 0.29655 0.0
H1003 H 0.86874 0.4945 0.25998 0.0
C1004 C 0.8028 0.49153 0.30542 0.0
C1005 C 0.80365 0.47892 0.25387 0.0
C1006 C 0.81773 0.49262 0.34695 0.0
C1007 C 0.83365 0.48115 0.33736 0.0
C1008 C 0.83412 0.468 0.28758 0.0
H1009 H 0.94987 0.47714 0.46385 0.0
H1010 H 0.91947 0.47454 0.40866 0.0
C1011 C 0.81924 0.46686 0.24622 0.0
C1012 C 0.8506 0.48374 0.3765 0.0
H1013 H 0.89748 0.50377 0.37906 0.0
C1014 C 0.84995 0.47432 0.43133 0.0
C1015 C 0.8678 0.49462 0.3576 0.0
C1016 C 0.86895 0.50509 0.29908 0.0
C1017 C 0.86642 0.4751 0.4673 0.0
C1018 C 0.88376 0.48584 0.44805 0.0
C1019 C 0.88419 0.49552 0.39361 0.0
C1020 C 0.90185 0.48688 0.48266 0.0
C1021 C 0.86535 0.46388 0.52435 0.0
C1022 C 0.90202 0.49478 0.54234 0.0
C1023 C 0.91932 0.49618 0.57391 0.0
C1024 C 0.93675 0.48989 0.54603 0.0
C1025 C 0.93661 0.48208 0.48628 0.0
C1026 C 0.91928 0.4806 0.45481 0.0
H1027 H 0.85295 0.45273 0.52452 0.0
H1028 H 0.87919 0.45686 0.52951 0.0
H1029 H 0.86312 0.47381 0.56442 0.0
H1030 H 0.88885 0.5001 0.5642 0.0
H1031 H 0.91913 0.50238 0.61987 0.0
loop_
_geom_bond_atom_site_label_1
_geom_bond_atom_site_label_2
_geom_bond_distance
_geom_bond_site_symmetry_2
_ccdc_geom_bond_type
O0 Cd1 2.300 1_556 S
O0 C7 1.275 1_556 S
Cd1 O0 2.300 1_554 S
Cd1 O9 2.381 1_554 S
Cd1 O10 2.378 . S
O2 Cd3 2.385 . S
O2 C7 1.255 . S
Cd3 O2 2.385 . S
Cd3 O4 2.317 . S
O4 Cd3 2.317 . S
O4 C5 1.232 . S
C5 O4 1.232 . S
C5 O6 1.218 . S
O6 C5 1.218 . S
C7 O0 1.275 1_554 S
C7 O2 1.255 . S
C8 O9 1.258 1_554 S
C8 O10 1.256 . S
O9 Cd1 2.381 1_556 S
O9 C8 1.258 1_556 S
O10 Cd1 2.378 . S
O10 C8 1.256 . S
O11 Cd12 2.300 1_556 S
O11 C18 1.275 . S
Cd12 O11 2.300 1_554 S
Cd12 O20 2.381 1_554 S
Cd12 O21 2.378 . S
O13 Cd14 2.385 . S
O13 C18 1.255 1_554 S
Cd14 O13 2.385 . S
Cd14 O15 2.317 . S
O15 Cd14 2.317 . S
O15 C16 1.232 . S
C16 O15 1.232 . S
C16 O17 1.218 . S
O17 C16 1.218 . S
C18 O11 1.275 . S
C18 O13 1.255 1_556 S
C19 O20 1.258 . S
C19 O21 1.256 1_556 S
O20 Cd12 2.381 1_556 S
O20 C19 1.258 . S
O21 Cd12 2.378 . S
O21 C19 1.256 1_554 S
O22 Cd23 2.300 1_556 S
O22 C29 1.275 1_556 S
Cd23 O22 2.300 1_554 S
Cd23 O31 2.381 1_554 S
Cd23 O32 2.378 . S
O24 Cd25 2.385 1_565 S
O24 C29 1.255 . S
Cd25 O24 2.385 1_545 S
Cd25 O26 2.317 1_545 S
O26 Cd25 2.317 1_565 S
O26 C27 1.232 . S
C27 O26 1.232 . S
C27 O28 1.218 . S
O28 C27 1.218 . S
C29 O22 1.275 1_554 S
C29 O24 1.255 . S
C30 O31 1.258 1_554 S
C30 O32 1.256 . S
O31 Cd23 2.381 1_556 S
O31 C30 1.258 1_556 S
O32 Cd23 2.378 . S
O32 C30 1.256 . S
O33 Cd34 2.300 . S
O33 C40 1.275 . S
Cd34 O33 2.300 . S
Cd34 O42 2.381 . S
Cd34 O43 2.378 . S
O35 Cd36 2.385 . S
O35 C40 1.255 . S
Cd36 O35 2.385 . S
Cd36 O37 2.317 . S
O37 Cd36 2.317 . S
O37 C38 1.232 . S
C38 O37 1.232 . S
C38 O39 1.218 . S
O39 C38 1.218 . S
C40 O33 1.275 . S
C40 O35 1.255 . S
C41 O42 1.258 . S
C41 O43 1.256 . S
O42 Cd34 2.381 . S
O42 C41 1.258 . S
O43 Cd34 2.378 . S
O43 C41 1.256 . S
O44 Cd45 2.300 . S
O44 C51 1.275 . S
Cd45 O44 2.300 . S
Cd45 O53 2.381 . S
Cd45 O54 2.378 . S
O46 Cd47 2.385 . S
O46 C51 1.255 . S
Cd47 O46 2.385 . S
Cd47 O48 2.317 . S
O48 Cd47 2.317 . S
O48 C49 1.232 . S
C49 O48 1.232 . S
C49 O50 1.218 . S
O50 C49 1.218 . S
C51 O44 1.275 . S
C51 O46 1.255 . S
C52 O53 1.258 . S
C52 O54 1.256 . S
O53 Cd45 2.381 . S
O53 C52 1.258 . S
O54 Cd45 2.378 . S
O54 C52 1.256 . S
O55 Cd56 2.300 . S
O55 C62 1.275 . S
Cd56 O55 2.300 . S
Cd56 O64 2.381 . S
Cd56 O65 2.378 . S
O57 Cd58 2.385 . S
O57 C62 1.255 . S
Cd58 O57 2.385 . S
Cd58 O59 2.317 . S
O59 Cd58 2.317 . S
O59 C60 1.232 . S
C60 O59 1.232 . S
C60 O61 1.218 . S
O61 C60 1.218 . S
C62 O55 1.275 . S
C62 O57 1.255 . S
C63 O64 1.258 . S
C63 O65 1.256 . S
O64 Cd56 2.381 . S
O64 C63 1.258 . S
O65 Cd56 2.378 . S
O65 C63 1.256 . S
O66 Cd67 2.300 . S
O66 C73 1.275 . S
Cd67 O66 2.300 . S
Cd67 O75 2.381 . S
Cd67 O76 2.378 . S
O68 Cd69 2.385 . S
O68 C73 1.255 . S
Cd69 O68 2.385 . S
Cd69 O70 2.317 . S
O70 Cd69 2.317 . S
O70 C71 1.232 . S
C71 O70 1.232 . S
C71 O72 1.218 . S
O72 C71 1.218 . S
C73 O66 1.275 . S
C73 O68 1.255 . S
C74 O75 1.258 . S
C74 O76 1.256 . S
O75 Cd67 2.381 . S
O75 C74 1.258 . S
O76 Cd67 2.378 . S
O76 C74 1.256 . S
O77 Cd78 2.300 . S
O77 C84 1.275 . S
Cd78 O77 2.300 . S
Cd78 O86 2.381 . S
Cd78 O87 2.378 . S
O79 Cd80 2.385 . S
O79 C84 1.255 . S
Cd80 O79 2.385 . S
Cd80 O81 2.317 . S
O81 Cd80 2.317 . S
O81 C82 1.232 . S
C82 O81 1.232 . S
C82 O83 1.218 . S
O83 C82 1.218 . S
C84 O77 1.275 . S
C84 O79 1.255 . S
C85 O86 1.258 . S
C85 O87 1.256 . S
O86 Cd78 2.381 . S
O86 C85 1.258 . S
O87 Cd78 2.378 . S
O87 C85 1.256 . S
Tb88 O91 2.445 1_565 S
Tb88 O92 2.590 1_665 S
Tb88 O93 2.374 1_665 S
Tb88 O101 2.347 1_655 S
Tb88 O103 2.352 1_565 S
Tb88 O105 2.433 . S
Tb88 O106 2.520 1_655 S
C89 O93 1.251 . S
C89 O95 1.263 . S
Tb90 O92 2.343 . S
Tb90 O95 2.353 . S
Tb90 O98 2.427 . S
Tb90 O99 2.513 . S
Tb90 O100 2.453 1_545 S
Tb90 O101 2.596 1_545 S
Tb90 O102 2.374 1_455 S
O91 Tb88 2.445 1_545 S
O91 C107 1.222 1_655 S
O92 Tb88 2.590 1_445 S
O92 Tb90 2.343 . S
O92 C107 1.259 . S
O93 Tb88 2.374 1_445 S
O93 C89 1.251 . S
C94 O98 1.275 . S
C94 O99 1.246 . S
O95 C89 1.263 . S
O95 Tb90 2.353 . S
C96 O100 1.245 . S
C96 O101 1.259 . S
C97 O102 1.250 . S
C97 O103 1.263 . S
O98 Tb90 2.427 . S
O98 C94 1.275 . S
O99 Tb90 2.513 . S
O99 C94 1.246 . S
O100 Tb90 2.453 1_565 S
O100 C96 1.245 . S
O101 Tb88 2.347 1_455 S
O101 Tb90 2.596 1_565 S
O101 C96 1.259 . S
O102 Tb90 2.374 1_655 S
O102 C97 1.250 . S
O103 Tb88 2.352 1_545 S
O103 C97 1.263 . S
C104 O105 1.275 . S
C104 O106 1.246 1_655 S
O105 Tb88 2.433 . S
O105 C104 1.275 . S
O106 Tb88 2.520 1_455 S
O106 C104 1.246 1_455 S
C107 O91 1.222 1_455 S
C107 O92 1.259 . S
Tb108 O111 2.453 . S
Tb108 O112 2.588 1_545 S
Tb108 O113 2.374 . S
Tb108 O121 2.343 . S
Tb108 O123 2.353 . S
Tb108 O125 2.427 . S
Tb108 O126 2.513 . S
C109 O113 1.259 . S
C109 O115 1.256 1_545 S
Tb110 O112 2.348 . S
Tb110 O115 2.353 . S
Tb110 O118 2.427 . S
Tb110 O119 2.513 . S
Tb110 O120 2.453 . S
Tb110 O121 2.596 1_565 S
Tb110 O122 2.374 . S
O111 Tb108 2.453 . S
O111 C127 1.245 . S
O112 Tb108 2.588 1_565 S
O112 Tb110 2.348 . S
O112 C127 1.257 1_565 S
O113 Tb108 2.374 . S
O113 C109 1.259 . S
C114 O118 1.275 . S
C114 O119 1.246 . S
O115 C109 1.256 1_565 S
O115 Tb110 2.353 . S
C116 O120 1.245 1_545 S
C116 O121 1.259 . S
C117 O122 1.250 1_545 S
C117 O123 1.263 . S
O118 Tb110 2.427 . S
O118 C114 1.275 . S
O119 Tb110 2.513 . S
O119 C114 1.246 . S
O120 Tb110 2.453 . S
O120 C116 1.245 1_565 S
O121 Tb108 2.343 . S
O121 Tb110 2.596 1_545 S
O121 C116 1.259 . S
O122 Tb110 2.374 . S
O122 C117 1.250 1_565 S
O123 Tb108 2.353 . S
O123 C117 1.263 . S
C124 O125 1.275 . S
C124 O126 1.246 . S
O125 Tb108 2.427 . S
O125 C124 1.275 . S
O126 Tb108 2.513 . S
O126 C124 1.246 . S
C127 O111 1.245 . S
C127 O112 1.257 1_545 S
Tb128 O131 2.453 . S
Tb128 O132 2.596 . S
Tb128 O133 2.374 . S
Tb128 O141 2.343 . S
Tb128 O143 2.353 . S
Tb128 O145 2.427 . S
Tb128 O146 2.513 . S
C129 O133 1.251 . S
C129 O135 1.263 . S
Tb130 O132 2.343 . S
Tb130 O135 2.353 . S
Tb130 O138 2.427 . S
Tb130 O139 2.513 . S
Tb130 O140 2.453 . S
Tb130 O141 2.596 . S
Tb130 O142 2.374 . S
O131 Tb128 2.453 . S
O131 C147 1.245 . S
O132 Tb128 2.596 . S
O132 Tb130 2.343 . S
O132 C147 1.259 . S
O133 Tb128 2.374 . S
O133 C129 1.251 . S
C134 O138 1.275 . S
C134 O139 1.246 . S
O135 C129 1.263 . S
O135 Tb130 2.353 . S
C136 O140 1.245 . S
C136 O141 1.259 . S
C137 O142 1.250 . S
C137 O143 1.263 . S
O138 Tb130 2.427 . S
O138 C134 1.275 . S
O139 Tb130 2.513 . S
O139 C134 1.246 . S
O140 Tb130 2.453 . S
O140 C136 1.245 . S
O141 Tb128 2.343 . S
O141 Tb130 2.596 . S
O141 C136 1.259 . S
O142 Tb130 2.374 . S
O142 C137 1.250 . S
O143 Tb128 2.353 . S
O143 C137 1.263 . S
C144 O145 1.275 . S
C144 O146 1.246 . S
O145 Tb128 2.427 . S
O145 C144 1.275 . S
O146 Tb128 2.513 . S
O146 C144 1.246 . S
C147 O131 1.245 . S
C147 O132 1.259 . S
Tb148 O151 2.435 1_655 S
Tb148 O152 2.581 1_655 S
Tb148 O153 2.371 1_655 S
Tb148 O161 2.350 . S
Tb148 O163 2.352 1_655 S
Tb148 O165 2.443 . S
Tb148 O166 2.528 . S
C149 O153 1.251 . S
C149 O155 1.263 . S
Tb150 O152 2.343 . S
Tb150 O155 2.353 . S
Tb150 O158 2.427 . S
Tb150 O159 2.513 . S
Tb150 O160 2.453 1_455 S
Tb150 O161 2.596 1_455 S
Tb150 O162 2.374 . S
O151 Tb148 2.435 1_455 S
O151 C167 1.245 . S
O152 Tb148 2.581 1_455 S
O152 Tb150 2.343 . S
O152 C167 1.259 . S
O153 Tb148 2.371 1_455 S
O153 C149 1.251 . S
C154 O158 1.275 . S
C154 O159 1.246 . S
O155 C149 1.263 . S
O155 Tb150 2.353 . S
C156 O160 1.245 . S
C156 O161 1.259 . S
C157 O162 1.250 . S
C157 O163 1.263 . S
O158 Tb150 2.427 . S
O158 C154 1.275 . S
O159 Tb150 2.513 . S
O159 C154 1.246 . S
O160 Tb150 2.453 1_655 S
O160 C156 1.245 . S
O161 Tb148 2.350 . S
O161 Tb150 2.596 1_655 S
O161 C156 1.259 . S
O162 Tb150 2.374 . S
O162 C157 1.250 . S
O163 Tb148 2.352 1_455 S
O163 C157 1.263 . S
C164 O165 1.275 . S
C164 O166 1.246 . S
O165 Tb148 2.443 . S
O165 C164 1.275 . S
O166 Tb148 2.528 . S
O166 C164 1.246 . S
C167 O151 1.245 . S
C167 O152 1.259 . S
H168 C176 0.929 . S
H169 C178 0.930 . S
H170 C180 0.930 . S
H171 C183 0.929 . S
H172 C186 0.930 . S
H173 C188 0.960 . S
H174 C188 0.960 . S
H175 C188 0.960 . S
C176 H168 0.929 . S
C176 C177 1.377 . S
C176 C178 1.384 . S
C177 C176 1.377 . S
C177 C183 1.390 . S
C178 H169 0.930 . S
C178 C176 1.384 . S
C178 C179 1.372 . S
C179 C178 1.372 . S
C179 C180 1.400 . S
C179 C184 1.490 . S
C180 H170 0.930 . S
C180 C179 1.400 . S
C180 C183 1.386 . S
H181 C197 0.930 . S
H182 C198 0.931 . S
C183 H171 0.929 . S
C183 C177 1.390 . S
C183 C180 1.386 . S
C184 C179 1.490 . S
C184 C186 1.395 . S
C184 C187 1.403 . S
H185 C191 0.930 . S
C186 H172 0.930 . S
C186 C184 1.395 . S
C186 C189 1.403 . S
C187 C184 1.403 . S
C187 C188 1.524 . S
C187 C191 1.400 . S
C188 H173 0.960 . S
C188 H174 0.960 . S
C188 H175 0.960 . S
C188 C187 1.524 . S
C189 C186 1.403 . S
C189 C190 1.392 . S
C189 C193 1.495 . S
C190 C189 1.392 . S
C190 C191 1.385 . S
C190 C192 1.478 . S
C191 H185 0.930 . S
C191 C187 1.400 . S
C191 C190 1.385 . S
C192 C190 1.478 . S
C192 C194 1.381 . S
C192 C198 1.383 . S
C193 C189 1.495 . S
C193 H199 0.959 . S
C193 H200 0.961 . S
C193 H201 0.960 . S
C194 C192 1.381 . S
C194 C195 1.394 . S
C194 H202 0.930 . S
C195 C194 1.394 . S
C195 C196 1.383 . S
C195 H203 0.929 1_545 S
C196 C195 1.383 . S
C196 C197 1.377 . S
C197 H181 0.930 . S
C197 C196 1.377 . S
C197 C198 1.379 . S
C198 H182 0.931 . S
C198 C192 1.383 . S
C198 C197 1.379 . S
H199 C193 0.959 . S
H200 C193 0.961 . S
H201 C193 0.960 . S
H202 C194 0.930 . S
H203 C195 0.929 1_565 S
H204 C212 0.929 . S
H205 C214 0.930 . S
H206 C216 0.930 . S
H207 C219 0.929 . S
H208 C222 0.930 . S
H209 C224 0.960 . S
H210 C224 0.960 . S
H211 C224 0.960 . S
C212 H204 0.929 . S
C212 C213 1.377 . S
C212 C214 1.384 . S
C213 C212 1.377 . S
C213 C219 1.390 . S
C214 H205 0.930 . S
C214 C212 1.384 . S
C214 C215 1.372 . S
C215 C214 1.372 . S
C215 C216 1.400 . S
C215 C220 1.490 . S
C216 H206 0.930 . S
C216 C215 1.400 . S
C216 C219 1.386 . S
H217 C233 0.930 . S
H218 C234 0.931 . S
C219 H207 0.929 . S
C219 C213 1.390 . S
C219 C216 1.386 . S
C220 C215 1.490 . S
C220 C222 1.395 . S
C220 C223 1.403 . S
H221 C227 0.930 . S
C222 H208 0.930 . S
C222 C220 1.395 . S
C222 C225 1.403 . S
C223 C220 1.403 . S
C223 C224 1.524 . S
C223 C227 1.400 . S
C224 H209 0.960 . S
C224 H210 0.960 . S
C224 H211 0.960 . S
C224 C223 1.524 . S
C225 C222 1.403 . S
C225 C226 1.392 . S
C225 C229 1.495 . S
C226 C225 1.392 . S
C226 C227 1.385 . S
C226 C228 1.478 . S
C227 H221 0.930 . S
C227 C223 1.400 . S
C227 C226 1.385 . S
C228 C226 1.478 . S
C228 C230 1.381 . S
C228 C234 1.383 . S
C229 C225 1.495 . S
C229 H235 0.959 . S
C229 H236 0.961 . S
C229 H237 0.960 . S
C230 C228 1.381 . S
C230 C231 1.394 . S
C230 H238 0.930 . S
C231 C230 1.394 . S
C231 C232 1.383 . S
C231 H239 0.929 . S
C232 C231 1.383 . S
C232 C233 1.377 . S
C233 H217 0.930 . S
C233 C232 1.377 . S
C233 C234 1.379 . S
C234 H218 0.931 . S
C234 C228 1.383 . S
C234 C233 1.379 . S
H235 C229 0.959 . S
H236 C229 0.961 . S
H237 C229 0.960 . S
H238 C230 0.930 . S
H239 C231 0.929 . S
H240 C248 0.929 . S
H241 C250 0.930 . S
H242 C252 0.930 . S
H243 C255 0.929 . S
H244 C258 0.930 . S
H245 C260 0.960 . S
H246 C260 0.960 . S
H247 C260 0.960 . S
C248 H240 0.929 . S
C248 C249 1.377 . S
C248 C250 1.384 . S
C249 C248 1.377 . S
C249 C255 1.390 . S
C250 H241 0.930 . S
C250 C248 1.384 . S
C250 C251 1.372 . S
C251 C250 1.372 . S
C251 C252 1.400 . S
C251 C256 1.490 . S
C252 H242 0.930 . S
C252 C251 1.400 . S
C252 C255 1.386 . S
H253 C269 0.930 . S
H254 C270 0.931 . S
C255 H243 0.929 . S
C255 C249 1.390 . S
C255 C252 1.386 . S
C256 C251 1.490 . S
C256 C258 1.395 . S
C256 C259 1.403 . S
H257 C263 0.930 . S
C258 H244 0.930 . S
C258 C256 1.395 . S
C258 C261 1.403 . S
C259 C256 1.403 . S
C259 C260 1.524 . S
C259 C263 1.400 . S
C260 H245 0.960 . S
C260 H246 0.960 . S
C260 H247 0.960 . S
C260 C259 1.524 . S
C261 C258 1.403 . S
C261 C262 1.392 . S
C261 C265 1.495 . S
C262 C261 1.392 . S
C262 C263 1.385 . S
C262 C264 1.478 . S
C263 H257 0.930 . S
C263 C259 1.400 . S
C263 C262 1.385 . S
C264 C262 1.478 . S
C264 C266 1.381 . S
C264 C270 1.383 . S
C265 C261 1.495 . S
C265 H271 0.959 . S
C265 H272 0.961 . S
C265 H273 0.960 . S
C266 C264 1.381 . S
C266 C267 1.394 . S
C266 H274 0.930 . S
C267 C266 1.394 . S
C267 C268 1.383 . S
C267 H275 0.929 . S
C268 C267 1.383 . S
C268 C269 1.377 . S
C269 H253 0.930 . S
C269 C268 1.377 . S
C269 C270 1.379 . S
C270 H254 0.931 . S
C270 C264 1.383 . S
C270 C269 1.379 . S
H271 C265 0.959 . S
H272 C265 0.961 . S
H273 C265 0.960 . S
H274 C266 0.930 . S
H275 C267 0.929 . S
H276 C284 0.929 . S
H277 C286 0.930 . S
H278 C288 0.930 . S
H279 C291 0.929 . S
H280 C294 0.930 . S
H281 C296 0.960 1_655 S
H282 C296 0.960 . S
H283 C296 0.960 . S
C284 H276 0.929 . S
C284 C285 1.377 . S
C284 C286 1.384 . S
C285 C284 1.377 . S
C285 C291 1.390 . S
C286 H277 0.930 . S
C286 C284 1.384 . S
C286 C287 1.372 . S
C287 C286 1.372 . S
C287 C288 1.400 . S
C287 C292 1.490 . S
C288 H278 0.930 . S
C288 C287 1.400 . S
C288 C291 1.386 . S
H289 C305 0.930 . S
H290 C306 0.931 . S
C291 H279 0.929 . S
C291 C285 1.390 . S
C291 C288 1.386 . S
C292 C287 1.490 . S
C292 C294 1.395 . S
C292 C295 1.403 . S
H293 C299 0.930 . S
C294 H280 0.930 . S
C294 C292 1.395 . S
C294 C297 1.403 . S
C295 C292 1.403 . S
C295 C296 1.524 . S
C295 C299 1.400 . S
C296 H281 0.960 1_455 S
C296 H282 0.960 . S
C296 H283 0.960 . S
C296 C295 1.524 . S
C297 C294 1.403 . S
C297 C298 1.392 . S
C297 C301 1.495 . S
C298 C297 1.392 . S
C298 C299 1.385 . S
C298 C300 1.478 . S
C299 H293 0.930 . S
C299 C295 1.400 . S
C299 C298 1.385 . S
C300 C298 1.478 . S
C300 C302 1.381 . S
C300 C306 1.383 . S
C301 C297 1.495 . S
C301 H307 0.959 . S
C301 H308 0.961 . S
C301 H309 0.960 . S
C302 C300 1.381 . S
C302 C303 1.394 . S
C302 H310 0.930 . S
C303 C302 1.394 . S
C303 C304 1.383 . S
C303 H311 0.929 . S
C304 C303 1.383 . S
C304 C305 1.377 . S
C305 H289 0.930 . S
C305 C304 1.377 . S
C305 C306 1.379 . S
C306 H290 0.931 . S
C306 C300 1.383 . S
C306 C305 1.379 . S
H307 C301 0.959 . S
H308 C301 0.961 . S
H309 C301 0.960 . S
H310 C302 0.930 . S
H311 C303 0.929 . S
H312 C320 0.929 . S
H313 C322 0.930 1_554 S
H314 C324 0.930 . S
H315 C327 0.929 . S
H316 C330 0.930 . S
H317 C332 0.960 . S
H318 C332 0.960 . S
H319 C332 0.960 . S
C320 H312 0.929 . S
C320 C321 1.377 1_554 S
C320 C322 1.384 1_554 S
C321 C320 1.377 1_556 S
C321 C327 1.390 . S
C322 H313 0.930 1_556 S
C322 C320 1.384 1_556 S
C322 C323 1.372 . S
C323 C322 1.372 . S
C323 C324 1.400 . S
C323 C328 1.490 . S
C324 H314 0.930 . S
C324 C323 1.400 . S
C324 C327 1.386 . S
H325 C341 0.930 1_545 S
H326 C342 0.931 . S
C327 H315 0.929 . S
C327 C321 1.390 . S
C327 C324 1.386 . S
C328 C323 1.490 . S
C328 C330 1.395 . S
C328 C331 1.403 . S
H329 C335 0.930 1_545 S
C330 H316 0.930 . S
C330 C328 1.395 . S
C330 C333 1.403 . S
C331 C328 1.403 . S
C331 C332 1.524 1_565 S
C331 C335 1.400 . S
C332 H317 0.960 . S
C332 H318 0.960 . S
C332 H319 0.960 . S
C332 C331 1.524 1_545 S
C333 C330 1.403 . S
C333 C334 1.392 . S
C333 C337 1.495 . S
C334 C333 1.392 . S
C334 C335 1.385 . S
C334 C336 1.478 . S
C335 H329 0.930 1_565 S
C335 C331 1.400 . S
C335 C334 1.385 . S
C336 C334 1.478 . S
C336 C338 1.381 . S
C336 C342 1.383 . S
C337 C333 1.495 . S
C337 H343 0.959 . S
C337 H344 0.961 . S
C337 H345 0.960 . S
C338 C336 1.381 . S
C338 C339 1.394 . S
C338 H346 0.930 . S
C339 C338 1.394 . S
C339 C340 1.383 . S
C339 H347 0.929 . S
C340 C339 1.383 . S
C340 C341 1.377 . S
C341 H325 0.930 1_565 S
C341 C340 1.377 . S
C341 C342 1.379 . S
C342 H326 0.931 . S
C342 C336 1.383 . S
C342 C341 1.379 . S
H343 C337 0.959 . S
H344 C337 0.961 . S
H345 C337 0.960 . S
H346 C338 0.930 . S
H347 C339 0.929 . S
H348 C356 0.929 . S
H349 C358 0.930 . S
H350 C360 0.930 . S
H351 C363 0.929 . S
H352 C366 0.930 . S
H353 C368 0.960 . S
H354 C368 0.960 . S
H355 C368 0.960 . S
C356 H348 0.929 . S
C356 C357 1.377 . S
C356 C358 1.384 . S
C357 C356 1.377 . S
C357 C363 1.390 1_554 S
C358 H349 0.930 . S
C358 C356 1.384 . S
C358 C359 1.372 1_554 S
C359 C358 1.372 1_556 S
C359 C360 1.400 . S
C359 C364 1.490 . S
C360 H350 0.930 . S
C360 C359 1.400 . S
C360 C363 1.386 . S
H361 C377 0.930 . S
H362 C378 0.931 . S
C363 H351 0.929 . S
C363 C357 1.390 1_556 S
C363 C360 1.386 . S
C364 C359 1.490 . S
C364 C366 1.395 . S
C364 C367 1.403 . S
H365 C371 0.930 . S
C366 H352 0.930 . S
C366 C364 1.395 . S
C366 C369 1.403 . S
C367 C364 1.403 . S
C367 C368 1.524 . S
C367 C371 1.400 . S
C368 H353 0.960 . S
C368 H354 0.960 . S
C368 H355 0.960 . S
C368 C367 1.524 . S
C369 C366 1.403 . S
C369 C370 1.392 . S
C369 C373 1.495 . S
C370 C369 1.392 . S
C370 C371 1.385 . S
C370 C372 1.478 . S
C371 H365 0.930 . S
C371 C367 1.400 . S
C371 C370 1.385 . S
C372 C370 1.478 . S
C372 C374 1.381 . S
C372 C378 1.383 . S
C373 C369 1.495 . S
C373 H379 0.959 . S
C373 H380 0.961 . S
C373 H381 0.960 . S
C374 C372 1.381 . S
C374 C375 1.394 . S
C374 H382 0.930 . S
C375 C374 1.394 . S
C375 C376 1.383 . S
C375 H383 0.929 . S
C376 C375 1.383 . S
C376 C377 1.377 . S
C377 H361 0.930 . S
C377 C376 1.377 . S
C377 C378 1.379 . S
C378 H362 0.931 . S
C378 C372 1.383 . S
C378 C377 1.379 . S
H379 C373 0.959 . S
H380 C373 0.961 . S
H381 C373 0.960 . S
H382 C374 0.930 . S
H383 C375 0.929 . S
H384 C392 0.929 . S
H385 C394 0.930 . S
H386 C396 0.929 . S
H387 C399 0.929 . S
H388 C402 0.930 . S
H389 C404 0.961 . S
H390 C404 0.960 1_556 S
H391 C404 0.966 . S
C392 H384 0.929 . S
C392 C393 1.377 1_556 S
C392 C394 1.384 . S
C393 C392 1.377 1_554 S
C393 C399 1.390 . S
C394 H385 0.930 . S
C394 C392 1.384 . S
C394 C395 1.372 . S
C395 C394 1.372 . S
C395 C396 1.402 1_556 S
C395 C400 1.490 . S
C396 H386 0.929 . S
C396 C395 1.402 1_554 S
C396 C399 1.385 . S
H397 C413 0.930 . S
H398 C414 0.931 . S
C399 H387 0.929 . S
C399 C393 1.390 . S
C399 C396 1.385 . S
C400 C395 1.490 . S
C400 C402 1.395 . S
C400 C403 1.403 . S
H401 C407 0.930 . S
C402 H388 0.930 . S
C402 C400 1.395 . S
C402 C405 1.403 . S
C403 C400 1.403 . S
C403 C404 1.517 1_556 S
C403 C407 1.400 . S
C404 H389 0.961 . S
C404 H390 0.960 1_554 S
C404 H391 0.966 . S
C404 C403 1.517 1_554 S
C405 C402 1.403 . S
C405 C406 1.392 . S
C405 C409 1.495 . S
C406 C405 1.392 . S
C406 C407 1.385 . S
C406 C408 1.478 . S
C407 H401 0.930 . S
C407 C403 1.400 . S
C407 C406 1.385 . S
C408 C406 1.478 . S
C408 C410 1.381 . S
C408 C414 1.383 . S
C409 C405 1.495 . S
C409 H415 0.959 . S
C409 H416 0.961 . S
C409 H417 0.960 . S
C410 C408 1.381 . S
C410 C411 1.394 . S
C410 H418 0.930 . S
C411 C410 1.394 . S
C411 C412 1.383 . S
C411 H419 0.929 . S
C412 C411 1.383 . S
C412 C413 1.377 . S
C413 H397 0.930 . S
C413 C412 1.377 . S
C413 C414 1.379 . S
C414 H398 0.931 . S
C414 C408 1.383 . S
C414 C413 1.379 . S
H415 C409 0.959 . S
H416 C409 0.961 . S
H417 C409 0.960 . S
H418 C410 0.930 . S
H419 C411 0.929 . S
H420 C428 0.929 . S
H421 C430 0.930 . S
H422 C432 0.930 . S
H423 C435 0.929 1_554 S
H424 C438 0.930 . S
H425 C440 0.960 . S
H426 C440 0.960 . S
H427 C440 0.960 . S
C428 H420 0.929 . S
C428 C429 1.377 . S
C428 C430 1.384 . S
C429 C428 1.377 . S
C429 C435 1.390 . S
C430 H421 0.930 . S
C430 C428 1.384 . S
C430 C431 1.372 . S
C431 C430 1.372 . S
C431 C432 1.400 . S
C431 C436 1.490 . S
C432 H422 0.930 . S
C432 C431 1.400 . S
C432 C435 1.386 . S
H433 C449 0.930 . S
H434 C450 0.931 . S
C435 H423 0.929 1_556 S
C435 C429 1.390 . S
C435 C432 1.386 . S
C436 C431 1.490 . S
C436 C438 1.395 . S
C436 C439 1.403 . S
H437 C443 0.930 . S
C438 H424 0.930 . S
C438 C436 1.395 . S
C438 C441 1.403 . S
C439 C436 1.403 . S
C439 C440 1.524 . S
C439 C443 1.400 . S
C440 H425 0.960 . S
C440 H426 0.960 . S
C440 H427 0.960 . S
C440 C439 1.524 . S
C441 C438 1.403 . S
C441 C442 1.392 . S
C441 C445 1.495 1_655 S
C442 C441 1.392 . S
C442 C443 1.385 . S
C442 C444 1.478 . S
C443 H437 0.930 . S
C443 C439 1.400 . S
C443 C442 1.385 . S
C444 C442 1.478 . S
C444 C446 1.381 . S
C444 C450 1.383 . S
C445 C441 1.495 1_455 S
C445 H451 0.959 . S
C445 H452 0.961 . S
C445 H453 0.960 . S
C446 C444 1.381 . S
C446 C447 1.394 1_655 S
C446 H454 0.930 1_655 S
C447 C446 1.394 1_455 S
C447 C448 1.383 1_455 S
C447 H455 0.929 . S
C448 C447 1.383 1_655 S
C448 C449 1.377 . S
C449 H433 0.930 . S
C449 C448 1.377 . S
C449 C450 1.379 . S
C450 H434 0.931 . S
C450 C444 1.383 . S
C450 C449 1.379 . S
H451 C445 0.959 . S
H452 C445 0.961 . S
H453 C445 0.960 . S
H454 C446 0.930 1_455 S
H455 C447 0.929 . S
H456 C464 0.929 . S
H457 C466 0.930 . S
H458 C468 0.930 . S
H459 C471 0.929 . S
H460 C474 0.930 . S
H461 C476 0.960 1_655 S
H462 C476 0.960 . S
H463 C476 0.960 . S
C464 H456 0.929 . S
C464 C465 1.377 . S
C464 C466 1.384 . S
C465 C464 1.377 . S
C465 C471 1.390 . S
C466 H457 0.930 . S
C466 C464 1.384 . S
C466 C467 1.372 . S
C467 C466 1.372 . S
C467 C468 1.400 . S
C467 C472 1.490 . S
C468 H458 0.930 . S
C468 C467 1.400 . S
C468 C471 1.386 . S
H469 C485 0.930 . S
H470 C486 0.931 . S
C471 H459 0.929 . S
C471 C465 1.390 . S
C471 C468 1.386 . S
C472 C467 1.490 . S
C472 C474 1.395 . S
C472 C475 1.403 . S
H473 C479 0.930 . S
C474 H460 0.930 . S
C474 C472 1.395 . S
C474 C477 1.403 . S
C475 C472 1.403 . S
C475 C476 1.524 . S
C475 C479 1.400 . S
C476 H461 0.960 1_455 S
C476 H462 0.960 . S
C476 H463 0.960 . S
C476 C475 1.524 . S
C477 C474 1.403 . S
C477 C478 1.392 . S
C477 C481 1.495 . S
C478 C477 1.392 . S
C478 C479 1.385 . S
C478 C480 1.478 . S
C479 H473 0.930 . S
C479 C475 1.400 . S
C479 C478 1.385 . S
C480 C478 1.478 . S
C480 C482 1.381 . S
C480 C486 1.383 . S
C481 C477 1.495 . S
C481 H487 0.959 . S
C481 H488 0.961 . S
C481 H489 0.960 . S
C482 C480 1.381 . S
C482 C483 1.394 . S
C482 H490 0.930 . S
C483 C482 1.394 . S
C483 C484 1.383 . S
C483 H491 0.929 . S
C484 C483 1.383 . S
C484 C485 1.377 . S
C485 H469 0.930 . S
C485 C484 1.377 . S
C485 C486 1.379 . S
C486 H470 0.931 . S
C486 C480 1.383 . S
C486 C485 1.379 . S
H487 C481 0.959 . S
H488 C481 0.961 . S
H489 C481 0.960 . S
H490 C482 0.930 . S
H491 C483 0.929 . S
H492 C500 0.929 . S
H493 C502 0.930 . S
H494 C504 0.930 . S
H495 C507 0.929 . S
H496 C510 0.930 . S
H497 C512 0.960 1_565 S
H498 C512 0.954 1_565 S
H499 C512 0.960 . S
C500 H492 0.929 . S
C500 C501 1.377 . S
C500 C502 1.384 . S
C501 C500 1.377 . S
C501 C507 1.390 . S
C502 H493 0.930 . S
C502 C500 1.384 . S
C502 C503 1.372 . S
C503 C502 1.372 . S
C503 C504 1.400 . S
C503 C508 1.490 . S
C504 H494 0.930 . S
C504 C503 1.400 . S
C504 C507 1.386 . S
H505 C521 0.930 . S
H506 C522 0.931 . S
C507 H495 0.929 . S
C507 C501 1.390 . S
C507 C504 1.386 . S
C508 C503 1.490 . S
C508 C510 1.395 . S
C508 C511 1.403 . S
H509 C515 0.930 . S
C510 H496 0.930 . S
C510 C508 1.395 . S
C510 C513 1.403 . S
C511 C508 1.403 . S
C511 C512 1.524 . S
C511 C515 1.400 . S
C512 H497 0.960 1_545 S
C512 H498 0.954 1_545 S
C512 H499 0.960 . S
C512 C511 1.524 . S
C513 C510 1.403 . S
C513 C514 1.392 . S
C513 C517 1.495 . S
C514 C513 1.392 . S
C514 C515 1.385 . S
C514 C516 1.478 . S
C515 H509 0.930 . S
C515 C511 1.400 . S
C515 C514 1.385 . S
C516 C514 1.478 . S
C516 C518 1.381 . S
C516 C522 1.383 . S
C517 C513 1.495 . S
C517 H523 0.959 . S
C517 H524 0.961 . S
C517 H525 0.960 . S
C518 C516 1.381 . S
C518 C519 1.394 . S
C518 H526 0.930 . S
C519 C518 1.394 . S
C519 C520 1.383 . S
C519 H527 0.929 . S
C520 C519 1.383 . S
C520 C521 1.377 . S
C521 H505 0.930 . S
C521 C520 1.377 . S
C521 C522 1.379 . S
C522 H506 0.931 . S
C522 C516 1.383 . S
C522 C521 1.379 . S
H523 C517 0.959 . S
H524 C517 0.961 . S
H525 C517 0.960 . S
H526 C518 0.930 . S
H527 C519 0.929 . S
H528 C536 0.929 . S
H529 C538 0.930 . S
H530 C540 0.930 . S
H531 C543 0.929 . S
H532 C546 0.930 . S
H533 C548 0.960 . S
H534 C548 0.960 . S
H535 C548 0.960 . S
C536 H528 0.929 . S
C536 C537 1.377 . S
C536 C538 1.384 . S
C537 C536 1.377 . S
C537 C543 1.390 . S
C538 H529 0.930 . S
C538 C536 1.384 . S
C538 C539 1.372 . S
C539 C538 1.372 . S
C539 C540 1.400 . S
C539 C544 1.490 . S
C540 H530 0.930 . S
C540 C539 1.400 . S
C540 C543 1.386 . S
H541 C557 0.930 . S
H542 C558 0.931 . S
C543 H531 0.929 . S
C543 C537 1.390 . S
C543 C540 1.386 . S
C544 C539 1.490 . S
C544 C546 1.395 . S
C544 C547 1.403 . S
H545 C551 0.930 . S
C546 H532 0.930 . S
C546 C544 1.395 . S
C546 C549 1.403 . S
C547 C544 1.403 . S
C547 C548 1.524 . S
C547 C551 1.400 . S
C548 H533 0.960 . S
C548 H534 0.960 . S
C548 H535 0.960 . S
C548 C547 1.524 . S
C549 C546 1.403 . S
C549 C550 1.392 . S
C549 C553 1.495 . S
C550 C549 1.392 . S
C550 C551 1.385 . S
C550 C552 1.478 . S
C551 H545 0.930 . S
C551 C547 1.400 . S
C551 C550 1.385 . S
C552 C550 1.478 . S
C552 C554 1.381 . S
C552 C558 1.383 . S
C553 C549 1.495 . S
C553 H559 0.959 . S
C553 H560 0.961 . S
C553 H561 0.960 . S
C554 C552 1.381 . S
C554 C555 1.394 . S
C554 H562 0.930 . S
C555 C554 1.394 . S
C555 C556 1.383 . S
C555 H563 0.929 . S
C556 C555 1.383 . S
C556 C557 1.377 . S
C557 H541 0.930 . S
C557 C556 1.377 . S
C557 C558 1.379 . S
C558 H542 0.931 . S
C558 C552 1.383 . S
C558 C557 1.379 . S
H559 C553 0.959 . S
H560 C553 0.961 . S
H561 C553 0.960 . S
H562 C554 0.930 . S
H563 C555 0.929 . S
H564 C572 0.929 . S
H565 C574 0.930 . S
H566 C576 0.930 . S
H567 C579 0.929 . S
H568 C582 0.930 . S
H569 C584 0.960 . S
H570 C584 0.960 . S
H571 C584 0.960 . S
C572 H564 0.929 . S
C572 C573 1.377 . S
C572 C574 1.384 . S
C573 C572 1.377 . S
C573 C579 1.390 . S
C574 H565 0.930 . S
C574 C572 1.384 . S
C574 C575 1.372 . S
C575 C574 1.372 . S
C575 C576 1.400 . S
C575 C580 1.490 . S
C576 H566 0.930 . S
C576 C575 1.400 . S
C576 C579 1.386 . S
H577 C593 0.930 . S
H578 C594 0.931 . S
C579 H567 0.929 . S
C579 C573 1.390 . S
C579 C576 1.386 . S
C580 C575 1.490 . S
C580 C582 1.395 . S
C580 C583 1.403 . S
H581 C587 0.930 . S
C582 H568 0.930 . S
C582 C580 1.395 . S
C582 C585 1.403 . S
C583 C580 1.403 . S
C583 C584 1.524 . S
C583 C587 1.400 . S
C584 H569 0.960 . S
C584 H570 0.960 . S
C584 H571 0.960 . S
C584 C583 1.524 . S
C585 C582 1.403 . S
C585 C586 1.392 . S
C585 C589 1.495 . S
C586 C585 1.392 . S
C586 C587 1.385 . S
C586 C588 1.478 . S
C587 H581 0.930 . S
C587 C583 1.400 . S
C587 C586 1.385 . S
C588 C586 1.478 . S
C588 C590 1.381 . S
C588 C594 1.383 . S
C589 C585 1.495 . S
C589 H595 0.959 . S
C589 H596 0.961 . S
C589 H597 0.960 . S
C590 C588 1.381 . S
C590 C591 1.394 . S
C590 H598 0.930 . S
C591 C590 1.394 . S
C591 C592 1.383 . S
C591 H599 0.929 . S
C592 C591 1.383 . S
C592 C593 1.377 . S
C593 H577 0.930 . S
C593 C592 1.377 . S
C593 C594 1.379 . S
C594 H578 0.931 . S
C594 C588 1.383 . S
C594 C593 1.379 . S
H595 C589 0.959 . S
H596 C589 0.961 . S
H597 C589 0.960 . S
H598 C590 0.930 . S
H599 C591 0.929 . S
H600 C608 0.929 . S
H601 C610 0.930 . S
H602 C612 0.930 . S
H603 C615 0.929 1_554 S
H604 C618 0.930 . S
H605 C620 0.960 1_455 S
H606 C620 0.960 1_455 S
H607 C620 0.960 . S
C608 H600 0.929 . S
C608 C609 1.377 . S
C608 C610 1.384 . S
C609 C608 1.377 . S
C609 C615 1.390 . S
C610 H601 0.930 . S
C610 C608 1.384 . S
C610 C611 1.372 . S
C611 C610 1.372 . S
C611 C612 1.400 . S
C611 C616 1.490 . S
C612 H602 0.930 . S
C612 C611 1.400 . S
C612 C615 1.386 . S
H613 C629 0.930 . S
H614 C630 0.931 . S
C615 H603 0.929 1_556 S
C615 C609 1.390 . S
C615 C612 1.386 . S
C616 C611 1.490 . S
C616 C618 1.395 . S
C616 C619 1.403 . S
H617 C623 0.930 . S
C618 H604 0.930 . S
C618 C616 1.395 . S
C618 C621 1.403 . S
C619 C616 1.403 . S
C619 C620 1.524 . S
C619 C623 1.400 . S
C620 H605 0.960 1_655 S
C620 H606 0.960 1_655 S
C620 H607 0.960 . S
C620 C619 1.524 . S
C621 C618 1.403 . S
C621 C622 1.392 . S
C621 C625 1.495 . S
C622 C621 1.392 . S
C622 C623 1.385 . S
C622 C624 1.478 . S
C623 H617 0.930 . S
C623 C619 1.400 . S
C623 C622 1.385 . S
C624 C622 1.478 . S
C624 C626 1.381 . S
C624 C630 1.383 . S
C625 C621 1.495 . S
C625 H631 0.959 . S
C625 H632 0.961 . S
C625 H633 0.960 . S
C626 C624 1.381 . S
C626 C627 1.394 . S
C626 H634 0.930 . S
C627 C626 1.394 . S
C627 C628 1.383 . S
C627 H635 0.929 1_655 S
C628 C627 1.383 . S
C628 C629 1.377 . S
C629 H613 0.930 . S
C629 C628 1.377 . S
C629 C630 1.379 . S
C630 H614 0.931 . S
C630 C624 1.383 . S
C630 C629 1.379 . S
H631 C625 0.959 . S
H632 C625 0.961 . S
H633 C625 0.960 . S
H634 C626 0.930 . S
H635 C627 0.929 1_455 S
H636 C644 0.929 . S
H637 C646 0.930 . S
H638 C648 0.930 . S
H639 C651 0.929 . S
H640 C654 0.930 . S
H641 C656 0.960 . S
H642 C656 0.949 1_565 S
H643 C656 0.960 . S
C644 H636 0.929 . S
C644 C645 1.377 . S
C644 C646 1.384 . S
C645 C644 1.377 . S
C645 C651 1.390 1_556 S
C646 H637 0.930 . S
C646 C644 1.384 . S
C646 C647 1.372 . S
C647 C646 1.372 . S
C647 C648 1.400 . S
C647 C652 1.490 . S
C648 H638 0.930 . S
C648 C647 1.400 . S
C648 C651 1.386 1_556 S
H649 C665 0.930 . S
H650 C666 0.931 . S
C651 H639 0.929 . S
C651 C645 1.390 1_554 S
C651 C648 1.386 1_554 S
C652 C647 1.490 . S
C652 C654 1.395 . S
C652 C655 1.403 . S
H653 C659 0.930 1_545 S
C654 H640 0.930 . S
C654 C652 1.395 . S
C654 C657 1.403 . S
C655 C652 1.403 . S
C655 C656 1.524 1_565 S
C655 C659 1.400 . S
C656 H641 0.960 . S
C656 H642 0.949 1_545 S
C656 H643 0.960 . S
C656 C655 1.524 1_545 S
C657 C654 1.403 . S
C657 C658 1.392 . S
C657 C661 1.495 . S
C658 C657 1.392 . S
C658 C659 1.385 . S
C658 C660 1.478 . S
C659 H653 0.930 1_565 S
C659 C655 1.400 . S
C659 C658 1.385 . S
C660 C658 1.478 . S
C660 C662 1.381 . S
C660 C666 1.383 1_565 S
C661 C657 1.495 . S
C661 H667 0.959 . S
C661 H668 0.961 . S
C661 H669 0.960 . S
C662 C660 1.381 . S
C662 C663 1.394 . S
C662 H670 0.930 . S
C663 C662 1.394 . S
C663 C664 1.383 . S
C663 H671 0.929 . S
C664 C663 1.383 . S
C664 C665 1.377 1_565 S
C665 H649 0.930 . S
C665 C664 1.377 1_545 S
C665 C666 1.379 . S
C666 H650 0.931 . S
C666 C660 1.383 1_545 S
C666 C665 1.379 . S
H667 C661 0.959 . S
H668 C661 0.961 . S
H669 C661 0.960 . S
H670 C662 0.930 . S
H671 C663 0.929 . S
H672 C680 0.929 . S
H673 C682 0.930 . S
H674 C684 0.930 1_554 S
H675 C687 0.929 . S
H676 C690 0.930 . S
H677 C692 0.960 . S
H678 C692 0.960 . S
H679 C692 0.960 . S
C680 H672 0.929 . S
C680 C681 1.377 . S
C680 C682 1.384 . S
C681 C680 1.377 . S
C681 C687 1.390 1_556 S
C682 H673 0.930 . S
C682 C680 1.384 . S
C682 C683 1.372 . S
C683 C682 1.372 . S
C683 C684 1.400 . S
C683 C688 1.490 . S
C684 H674 0.930 1_556 S
C684 C683 1.400 . S
C684 C687 1.386 1_556 S
H685 C701 0.930 . S
H686 C702 0.931 . S
C687 H675 0.929 . S
C687 C681 1.390 1_554 S
C687 C684 1.386 1_554 S
C688 C683 1.490 . S
C688 C690 1.395 . S
C688 C691 1.403 . S
H689 C695 0.930 . S
C690 H676 0.930 . S
C690 C688 1.395 . S
C690 C693 1.403 . S
C691 C688 1.403 . S
C691 C692 1.524 . S
C691 C695 1.400 . S
C692 H677 0.960 . S
C692 H678 0.960 . S
C692 H679 0.960 . S
C692 C691 1.524 . S
C693 C690 1.403 . S
C693 C694 1.392 . S
C693 C697 1.495 . S
C694 C693 1.392 . S
C694 C695 1.385 . S
C694 C696 1.478 . S
C695 H689 0.930 . S
C695 C691 1.400 . S
C695 C694 1.385 . S
C696 C694 1.478 . S
C696 C698 1.381 . S
C696 C702 1.383 . S
C697 C693 1.495 . S
C697 H703 0.959 . S
C697 H704 0.961 . S
C697 H705 0.960 . S
C698 C696 1.381 . S
C698 C699 1.394 . S
C698 H706 0.930 . S
C699 C698 1.394 . S
C699 C700 1.383 . S
C699 H707 0.929 . S
C700 C699 1.383 . S
C700 C701 1.377 . S
C701 H685 0.930 . S
C701 C700 1.377 . S
C701 C702 1.379 . S
C702 H686 0.931 . S
C702 C696 1.383 . S
C702 C701 1.379 . S
H703 C697 0.959 . S
H704 C697 0.961 . S
H705 C697 0.960 . S
H706 C698 0.930 . S
H707 C699 0.929 . S
H708 C716 0.929 . S
H709 C718 0.930 . S
H710 C720 0.930 . S
H711 C723 0.929 1_554 S
H712 C726 0.930 . S
H713 C728 0.960 . S
H714 C728 0.960 . S
H715 C728 0.960 . S
C716 H708 0.929 . S
C716 C717 1.377 . S
C716 C718 1.384 . S
C717 C716 1.377 . S
C717 C723 1.390 . S
C718 H709 0.930 . S
C718 C716 1.384 . S
C718 C719 1.372 . S
C719 C718 1.372 . S
C719 C720 1.400 . S
C719 C724 1.490 . S
C720 H710 0.930 . S
C720 C719 1.400 . S
C720 C723 1.386 . S
H721 C737 0.930 . S
H722 C738 0.931 . S
C723 H711 0.929 1_556 S
C723 C717 1.390 . S
C723 C720 1.386 . S
C724 C719 1.490 . S
C724 C726 1.395 . S
C724 C727 1.403 . S
H725 C731 0.930 . S
C726 H712 0.930 . S
C726 C724 1.395 . S
C726 C729 1.403 . S
C727 C724 1.403 . S
C727 C728 1.524 1_556 S
C727 C731 1.400 . S
C728 H713 0.960 . S
C728 H714 0.960 . S
C728 H715 0.960 . S
C728 C727 1.524 1_554 S
C729 C726 1.403 . S
C729 C730 1.392 . S
C729 C733 1.495 . S
C730 C729 1.392 . S
C730 C731 1.385 . S
C730 C732 1.478 . S
C731 H725 0.930 . S
C731 C727 1.400 . S
C731 C730 1.385 . S
C732 C730 1.478 . S
C732 C734 1.381 . S
C732 C738 1.383 . S
C733 C729 1.495 . S
C733 H739 0.959 . S
C733 H740 0.961 . S
C733 H741 0.960 . S
C734 C732 1.381 . S
C734 C735 1.394 . S
C734 H742 0.930 . S
C735 C734 1.394 . S
C735 C736 1.383 . S
C735 H743 0.929 . S
C736 C735 1.383 . S
C736 C737 1.377 . S
C737 H721 0.930 . S
C737 C736 1.377 . S
C737 C738 1.379 . S
C738 H722 0.931 . S
C738 C732 1.383 . S
C738 C737 1.379 . S
H739 C733 0.959 . S
H740 C733 0.961 . S
H741 C733 0.960 . S
H742 C734 0.930 . S
H743 C735 0.929 . S
H744 C752 0.929 . S
H745 C754 0.930 . S
H746 C756 0.930 . S
H747 C759 0.929 . S
H748 C762 0.930 1_556 S
H749 C764 0.960 . S
H750 C764 0.960 . S
H751 C764 0.960 . S
C752 H744 0.929 . S
C752 C753 1.377 . S
C752 C754 1.384 . S
C753 C752 1.377 . S
C753 C759 1.390 . S
C754 H745 0.930 . S
C754 C752 1.384 . S
C754 C755 1.372 . S
C755 C754 1.372 . S
C755 C756 1.400 . S
C755 C760 1.490 . S
C756 H746 0.930 . S
C756 C755 1.400 . S
C756 C759 1.386 . S
H757 C773 0.930 . S
H758 C774 0.931 . S
C759 H747 0.929 . S
C759 C753 1.390 . S
C759 C756 1.386 . S
C760 C755 1.490 . S
C760 C762 1.395 . S
C760 C763 1.403 . S
H761 C767 0.930 . S
C762 H748 0.930 1_554 S
C762 C760 1.395 . S
C762 C765 1.403 1_554 S
C763 C760 1.403 . S
C763 C764 1.524 . S
C763 C767 1.400 . S
C764 H749 0.960 . S
C764 H750 0.960 . S
C764 H751 0.960 . S
C764 C763 1.524 . S
C765 C762 1.403 1_556 S
C765 C766 1.392 . S
C765 C769 1.495 . S
C766 C765 1.392 . S
C766 C767 1.385 1_556 S
C766 C768 1.478 . S
C767 H761 0.930 . S
C767 C763 1.400 . S
C767 C766 1.385 1_554 S
C768 C766 1.478 . S
C768 C770 1.381 . S
C768 C774 1.383 . S
C769 C765 1.495 . S
C769 H775 0.959 . S
C769 H776 0.961 . S
C769 H777 0.960 . S
C770 C768 1.381 . S
C770 C771 1.394 . S
C770 H778 0.930 . S
C771 C770 1.394 . S
C771 C772 1.383 . S
C771 H779 0.929 . S
C772 C771 1.383 . S
C772 C773 1.377 . S
C773 H757 0.930 . S
C773 C772 1.377 . S
C773 C774 1.379 . S
C774 H758 0.931 . S
C774 C768 1.383 . S
C774 C773 1.379 . S
H775 C769 0.959 . S
H776 C769 0.961 . S
H777 C769 0.960 . S
H778 C770 0.930 . S
H779 C771 0.929 . S
H780 C788 0.929 . S
H781 C790 0.930 . S
H782 C792 0.930 . S
H783 C795 0.929 . S
H784 C798 0.930 . S
H785 C800 0.960 . S
H786 C800 0.960 . S
H787 C800 0.960 . S
C788 H780 0.929 . S
C788 C789 1.377 . S
C788 C790 1.384 . S
C789 C788 1.377 . S
C789 C795 1.390 . S
C790 H781 0.930 . S
C790 C788 1.384 . S
C790 C791 1.372 . S
C791 C790 1.372 . S
C791 C792 1.400 . S
C791 C796 1.490 . S
C792 H782 0.930 . S
C792 C791 1.400 . S
C792 C795 1.386 . S
H793 C809 0.930 1_565 S
H794 C810 0.931 1_565 S
C795 H783 0.929 . S
C795 C789 1.390 . S
C795 C792 1.386 . S
C796 C791 1.490 . S
C796 C798 1.395 . S
C796 C799 1.403 1_554 S
H797 C803 0.930 . S
C798 H784 0.930 . S
C798 C796 1.395 . S
C798 C801 1.403 . S
C799 C796 1.403 1_556 S
C799 C800 1.524 . S
C799 C803 1.400 . S
C800 H785 0.960 . S
C800 H786 0.960 . S
C800 H787 0.960 . S
C800 C799 1.524 . S
C801 C798 1.403 . S
C801 C802 1.392 1_554 S
C801 C805 1.495 . S
C802 C801 1.392 1_556 S
C802 C803 1.385 . S
C802 C804 1.478 . S
C803 H797 0.930 . S
C803 C799 1.400 . S
C803 C802 1.385 . S
C804 C802 1.478 . S
C804 C806 1.381 . S
C804 C810 1.383 . S
C805 C801 1.495 . S
C805 H811 0.959 . S
C805 H812 0.961 . S
C805 H813 0.960 . S
C806 C804 1.381 . S
C806 C807 1.394 . S
C806 H814 0.930 . S
C807 C806 1.394 . S
C807 C808 1.383 . S
C807 H815 0.929 . S
C808 C807 1.383 . S
C808 C809 1.377 . S
C809 H793 0.930 1_545 S
C809 C808 1.377 . S
C809 C810 1.379 . S
C810 H794 0.931 1_545 S
C810 C804 1.383 . S
C810 C809 1.379 . S
H811 C805 0.959 . S
H812 C805 0.961 . S
H813 C805 0.960 . S
H814 C806 0.930 . S
H815 C807 0.929 . S
H816 C824 0.929 . S
H817 C826 0.930 . S
H818 C828 0.930 . S
H819 C831 0.929 . S
H820 C834 0.930 . S
H821 C836 0.960 1_556 S
H822 C836 0.960 1_556 S
H823 C836 0.960 . S
C824 H816 0.929 . S
C824 C825 1.377 . S
C824 C826 1.384 . S
C825 C824 1.377 . S
C825 C831 1.390 . S
C826 H817 0.930 . S
C826 C824 1.384 . S
C826 C827 1.372 . S
C827 C826 1.372 . S
C827 C828 1.400 . S
C827 C832 1.490 . S
C828 H818 0.930 . S
C828 C827 1.400 . S
C828 C831 1.386 . S
H829 C845 0.930 . S
H830 C846 0.931 . S
C831 H819 0.929 . S
C831 C825 1.390 . S
C831 C828 1.386 . S
C832 C827 1.490 . S
C832 C834 1.395 . S
C832 C835 1.403 . S
H833 C839 0.930 . S
C834 H820 0.930 . S
C834 C832 1.395 . S
C834 C837 1.403 1_554 S
C835 C832 1.403 . S
C835 C836 1.524 . S
C835 C839 1.400 1_554 S
C836 H821 0.960 1_554 S
C836 H822 0.960 1_554 S
C836 H823 0.960 . S
C836 C835 1.524 . S
C837 C834 1.403 1_556 S
C837 C838 1.392 . S
C837 C841 1.495 . S
C838 C837 1.392 . S
C838 C839 1.385 . S
C838 C840 1.478 . S
C839 H833 0.930 . S
C839 C835 1.400 1_556 S
C839 C838 1.385 . S
C840 C838 1.478 . S
C840 C842 1.381 . S
C840 C846 1.383 . S
C841 C837 1.495 . S
C841 H847 0.959 1_556 S
C841 H848 0.961 1_556 S
C841 H849 0.960 . S
C842 C840 1.381 . S
C842 C843 1.394 . S
C842 H850 0.930 . S
C843 C842 1.394 . S
C843 C844 1.383 . S
C843 H851 0.929 . S
C844 C843 1.383 . S
C844 C845 1.377 . S
C845 H829 0.930 . S
C845 C844 1.377 . S
C845 C846 1.379 . S
C846 H830 0.931 . S
C846 C840 1.383 . S
C846 C845 1.379 . S
H847 C841 0.959 1_554 S
H848 C841 0.961 1_554 S
H849 C841 0.960 . S
H850 C842 0.930 . S
H851 C843 0.929 . S
H852 C860 0.929 . S
H853 C862 0.930 . S
H854 C864 0.930 . S
H855 C867 0.929 . S
H856 C870 0.930 . S
H857 C872 0.960 . S
H858 C872 0.960 . S
H859 C872 0.960 . S
C860 H852 0.929 . S
C860 C861 1.377 . S
C860 C862 1.384 . S
C861 C860 1.377 . S
C861 C867 1.390 . S
C862 H853 0.930 . S
C862 C860 1.384 . S
C862 C863 1.372 . S
C863 C862 1.372 . S
C863 C864 1.400 . S
C863 C868 1.490 . S
C864 H854 0.930 . S
C864 C863 1.400 . S
C864 C867 1.386 . S
H865 C881 0.930 . S
H866 C882 0.931 . S
C867 H855 0.929 . S
C867 C861 1.390 . S
C867 C864 1.386 . S
C868 C863 1.490 . S
C868 C870 1.395 1_554 S
C868 C871 1.403 . S
H869 C875 0.930 . S
C870 H856 0.930 . S
C870 C868 1.395 1_556 S
C870 C873 1.403 . S
C871 C868 1.403 . S
C871 C872 1.524 . S
C871 C875 1.400 . S
C872 H857 0.960 . S
C872 H858 0.960 . S
C872 H859 0.960 . S
C872 C871 1.524 . S
C873 C870 1.403 . S
C873 C874 1.392 . S
C873 C877 1.495 . S
C874 C873 1.392 . S
C874 C875 1.385 1_556 S
C874 C876 1.478 . S
C875 H869 0.930 . S
C875 C871 1.400 . S
C875 C874 1.385 1_554 S
C876 C874 1.478 . S
C876 C878 1.381 . S
C876 C882 1.383 . S
C877 C873 1.495 . S
C877 H883 0.959 . S
C877 H884 0.961 . S
C877 H885 0.960 . S
C878 C876 1.381 . S
C878 C879 1.394 . S
C878 H886 0.930 . S
C879 C878 1.394 . S
C879 C880 1.383 . S
C879 H887 0.929 . S
C880 C879 1.383 . S
C880 C881 1.377 . S
C881 H865 0.930 . S
C881 C880 1.377 . S
C881 C882 1.379 . S
C882 H866 0.931 . S
C882 C876 1.383 . S
C882 C881 1.379 . S
H883 C877 0.959 . S
H884 C877 0.961 . S
H885 C877 0.960 . S
H886 C878 0.930 . S
H887 C879 0.929 . S
H888 C896 0.929 . S
H889 C898 0.930 . S
H890 C900 0.930 . S
H891 C903 0.929 . S
H892 C906 0.930 . S
H893 C908 0.960 1_455 S
H894 C908 0.943 1_455 S
H895 C908 0.960 . S
C896 H888 0.929 . S
C896 C897 1.377 . S
C896 C898 1.384 . S
C897 C896 1.377 . S
C897 C903 1.390 . S
C898 H889 0.930 . S
C898 C896 1.384 . S
C898 C899 1.372 . S
C899 C898 1.372 . S
C899 C900 1.400 . S
C899 C904 1.490 . S
C900 H890 0.930 . S
C900 C899 1.400 . S
C900 C903 1.386 . S
H901 C917 0.930 . S
H902 C918 0.931 . S
C903 H891 0.929 . S
C903 C897 1.390 . S
C903 C900 1.386 . S
C904 C899 1.490 . S
C904 C906 1.395 . S
C904 C907 1.403 . S
H905 C911 0.930 . S
C906 H892 0.930 . S
C906 C904 1.395 . S
C906 C909 1.403 . S
C907 C904 1.403 . S
C907 C908 1.524 . S
C907 C911 1.400 . S
C908 H893 0.960 1_655 S
C908 H894 0.943 1_655 S
C908 H895 0.960 . S
C908 C907 1.524 . S
C909 C906 1.403 . S
C909 C910 1.392 . S
C909 C913 1.495 . S
C910 C909 1.392 . S
C910 C911 1.385 . S
C910 C912 1.478 . S
C911 H905 0.930 . S
C911 C907 1.400 . S
C911 C910 1.385 . S
C912 C910 1.478 . S
C912 C914 1.381 . S
C912 C918 1.383 . S
C913 C909 1.495 . S
C913 H919 0.959 . S
C913 H920 0.961 . S
C913 H921 0.960 . S
C914 C912 1.381 . S
C914 C915 1.394 . S
C914 H922 0.930 . S
C915 C914 1.394 . S
C915 C916 1.383 . S
C915 H923 0.929 . S
C916 C915 1.383 . S
C916 C917 1.377 . S
C917 H901 0.930 . S
C917 C916 1.377 . S
C917 C918 1.379 . S
C918 H902 0.931 . S
C918 C912 1.383 . S
C918 C917 1.379 . S
H919 C913 0.959 . S
H920 C913 0.961 . S
H921 C913 0.960 . S
H922 C914 0.930 . S
H923 C915 0.929 . S
H924 C932 0.929 . S
H925 C934 0.930 . S
H926 C936 0.930 . S
H927 C939 0.929 . S
H928 C942 0.930 . S
H929 C944 0.960 . S
H930 C944 0.960 . S
H931 C944 0.960 . S
C932 H924 0.929 . S
C932 C933 1.377 . S
C932 C934 1.384 . S
C933 C932 1.377 . S
C933 C939 1.390 . S
C934 H925 0.930 . S
C934 C932 1.384 . S
C934 C935 1.372 . S
C935 C934 1.372 . S
C935 C936 1.400 . S
C935 C940 1.490 . S
C936 H926 0.930 . S
C936 C935 1.400 . S
C936 C939 1.386 . S
H937 C953 0.930 . S
H938 C954 0.931 . S
C939 H927 0.929 . S
C939 C933 1.390 . S
C939 C936 1.386 . S
C940 C935 1.490 . S
C940 C942 1.395 . S
C940 C943 1.403 . S
H941 C947 0.930 . S
C942 H928 0.930 . S
C942 C940 1.395 . S
C942 C945 1.403 . S
C943 C940 1.403 . S
C943 C944 1.524 . S
C943 C947 1.400 . S
C944 H929 0.960 . S
C944 H930 0.960 . S
C944 H931 0.960 . S
C944 C943 1.524 . S
C945 C942 1.403 . S
C945 C946 1.392 . S
C945 C949 1.495 . S
C946 C945 1.392 . S
C946 C947 1.385 . S
C946 C948 1.478 . S
C947 H941 0.930 . S
C947 C943 1.400 . S
C947 C946 1.385 . S
C948 C946 1.478 . S
C948 C950 1.381 . S
C948 C954 1.383 1_565 S
C949 C945 1.495 . S
C949 H955 0.959 . S
C949 H956 0.961 . S
C949 H957 0.960 . S
C950 C948 1.381 . S
C950 C951 1.394 . S
C950 H958 0.930 . S
C951 C950 1.394 . S
C951 C952 1.383 . S
C951 H959 0.929 . S
C952 C951 1.383 . S
C952 C953 1.377 1_565 S
C953 H937 0.930 . S
C953 C952 1.377 1_545 S
C953 C954 1.379 . S
C954 H938 0.931 . S
C954 C948 1.383 1_545 S
C954 C953 1.379 . S
H955 C949 0.959 . S
H956 C949 0.961 . S
H957 C949 0.960 . S
H958 C950 0.930 . S
H959 C951 0.929 . S
H960 C968 0.929 . S
H961 C970 0.930 . S
H962 C972 0.930 . S
H963 C975 0.929 . S
H964 C978 0.930 . S
H965 C980 0.960 . S
H966 C980 0.960 . S
H967 C980 0.960 . S
C968 H960 0.929 . S
C968 C969 1.377 . S
C968 C970 1.384 . S
C969 C968 1.377 . S
C969 C975 1.390 . S
C970 H961 0.930 . S
C970 C968 1.384 . S
C970 C971 1.372 . S
C971 C970 1.372 . S
C971 C972 1.400 . S
C971 C976 1.490 . S
C972 H962 0.930 . S
C972 C971 1.400 . S
C972 C975 1.386 . S
H973 C989 0.930 . S
H974 C990 0.931 . S
C975 H963 0.929 . S
C975 C969 1.390 . S
C975 C972 1.386 . S
C976 C971 1.490 . S
C976 C978 1.395 . S
C976 C979 1.403 . S
H977 C983 0.930 . S
C978 H964 0.930 . S
C978 C976 1.395 . S
C978 C981 1.403 . S
C979 C976 1.403 . S
C979 C980 1.524 . S
C979 C983 1.400 . S
C980 H965 0.960 . S
C980 H966 0.960 . S
C980 H967 0.960 . S
C980 C979 1.524 . S
C981 C978 1.403 . S
C981 C982 1.392 . S
C981 C985 1.495 . S
C982 C981 1.392 . S
C982 C983 1.385 . S
C982 C984 1.478 . S
C983 H977 0.930 . S
C983 C979 1.400 . S
C983 C982 1.385 . S
C984 C982 1.478 . S
C984 C986 1.381 . S
C984 C990 1.383 . S
C985 C981 1.495 . S
C985 H991 0.959 . S
C985 H992 0.961 . S
C985 H993 0.960 . S
C986 C984 1.381 . S
C986 C987 1.394 . S
C986 H994 0.930 . S
C987 C986 1.394 . S
C987 C988 1.383 . S
C987 H995 0.929 . S
C988 C987 1.383 . S
C988 C989 1.377 . S
C989 H973 0.930 . S
C989 C988 1.377 . S
C989 C990 1.379 . S
C990 H974 0.931 . S
C990 C984 1.383 . S
C990 C989 1.379 . S
H991 C985 0.959 . S
H992 C985 0.961 . S
H993 C985 0.960 . S
H994 C986 0.930 . S
H995 C987 0.929 . S
H996 C1004 0.929 . S
H997 C1006 0.930 . S
H998 C1008 0.930 . S
H999 C1011 0.929 . S
H1000 C1014 0.930 . S
H1001 C1016 0.960 . S
H1002 C1016 0.960 . S
H1003 C1016 0.960 . S
C1004 H996 0.929 . S
C1004 C1005 1.377 . S
C1004 C1006 1.384 . S
C1005 C1004 1.377 . S
C1005 C1011 1.390 . S
C1006 H997 0.930 . S
C1006 C1004 1.384 . S
C1006 C1007 1.372 . S
C1007 C1006 1.372 . S
C1007 C1008 1.400 . S
C1007 C1012 1.490 . S
C1008 H998 0.930 . S
C1008 C1007 1.400 . S
C1008 C1011 1.386 . S
H1009 C1025 0.930 . S
H1010 C1026 0.931 . S
C1011 H999 0.929 . S
C1011 C1005 1.390 . S
C1011 C1008 1.386 . S
C1012 C1007 1.490 . S
C1012 C1014 1.395 . S
C1012 C1015 1.403 . S
H1013 C1019 0.930 . S
C1014 H1000 0.930 . S
C1014 C1012 1.395 . S
C1014 C1017 1.403 . S
C1015 C1012 1.403 . S
C1015 C1016 1.524 . S
C1015 C1019 1.400 . S
C1016 H1001 0.960 . S
C1016 H1002 0.960 . S
C1016 H1003 0.960 . S
C1016 C1015 1.524 . S
C1017 C1014 1.403 . S
C1017 C1018 1.392 . S
C1017 C1021 1.495 . S
C1018 C1017 1.392 . S
C1018 C1019 1.385 . S
C1018 C1020 1.478 . S
C1019 H1013 0.930 . S
C1019 C1015 1.400 . S
C1019 C1018 1.385 . S
C1020 C1018 1.478 . S
C1020 C1022 1.381 . S
C1020 C1026 1.383 . S
C1021 C1017 1.495 . S
C1021 H1027 0.959 . S
C1021 H1028 0.961 . S
C1021 H1029 0.960 . S
C1022 C1020 1.381 . S
C1022 C1023 1.394 . S
C1022 H1030 0.930 . S
C1023 C1022 1.394 . S
C1023 C1024 1.383 . S
C1023 H1031 0.929 . S
C1024 C1023 1.383 . S
C1024 C1025 1.377 . S
C1025 H1009 0.930 . S
C1025 C1024 1.377 . S
C1025 C1026 1.379 . S
C1026 H1010 0.931 . S
C1026 C1020 1.383 . S
C1026 C1025 1.379 . S
H1027 C1021 0.959 . S
H1028 C1021 0.961 . S
H1029 C1021 0.960 . S
H1030 C1022 0.930 . S
H1031 C1023 0.929 . S
C177 C74 1.575 . S
C196 C89 1.579 . S
C232 C124 1.666 . S
C213 C85 1.662 . S
C268 C129 1.215 . S
C249 C52 1.212 . S
C304 C149 1.412 . S
C285 C63 1.406 . S
C340 C97 1.579 1_565 S
C321 C30 1.539 1_556 S
C357 C41 1.597 . S
C376 C114 1.673 . S
C393 C8 1.207 . S
C412 C137 1.216 . S
C429 C19 1.366 . S
C448 C157 1.399 1_655 S
C484 C107 1.188 . S
C465 C62 1.213 . S
C520 C116 0.863 . S
C501 C73 0.844 . S
C556 C147 1.321 . S
C537 C84 1.367 . S
C573 C51 0.899 . S
C592 C167 0.877 . S
C609 C18 1.150 . S
C628 C96 1.197 1_655 S
C664 C127 0.860 1_565 S
C645 C29 0.828 1_556 S
C700 C136 1.318 . S
C681 C40 1.276 1_556 S
C717 C7 0.889 1_556 S
C736 C156 0.926 . S
C753 C60 1.378 . S
C772 C94 1.535 . S
C789 C71 1.261 . S
C808 C117 1.436 . S
C844 C134 1.644 . S
C825 C82 1.505 . S
C880 C154 1.619 . S
C861 C49 1.381 . S
C897 C16 1.192 . S
C916 C104 1.508 . S
C952 C109 1.449 1_565 S
C933 C27 1.132 . S
C988 C144 1.650 . S
C969 C38 1.266 . S
C1005 C5 1.343 . S
C1024 C164 1.616 . S
