# Generated by pormake.
# Topology tsx, (6,3)-cn, num edge types: 1
# Building blocks:
#     Node 0, Type 0, BuildingBlock: JUFBIX_clean_sbu_0, # of connection points: 6
#     Node 1, Type 0, BuildingBlock: JUFBIX_clean_sbu_0, # of connection points: 6
#     Node 2, Type 1, BuildingBlock: WUSLED_clean_sbu_0, # of connection points: 3
#     Node 3, Type 1, BuildingBlock: WUSLED_clean_sbu_0, # of connection points: 3
#     Node 4, Type 1, BuildingBlock: WUSLED_clean_sbu_0, # of connection points: 3
#     Node 5, Type 1, BuildingBlock: WUSLED_clean_sbu_0, # of connection points: 3
#     Edge 6, Type (0, 1), BuildingBlock: UVAHIK_clean_linker_0, # of connection points: 2
#     Edge 7, Type (0, 1), BuildingBlock: UVAHIK_clean_linker_0, # of connection points: 2
#     Edge 8, Type (0, 1), BuildingBlock: UVAHIK_clean_linker_0, # of connection points: 2
#     Edge 9, Type (0, 1), BuildingBlock: UVAHIK_clean_linker_0, # of connection points: 2
#     Edge 10, Type (0, 1), BuildingBlock: UVAHIK_clean_linker_0, # of connection points: 2
#     Edge 11, Type (0, 1), BuildingBlock: UVAHIK_clean_linker_0, # of connection points: 2
#     Edge 12, Type (0, 1), BuildingBlock: UVAHIK_clean_linker_0, # of connection points: 2
#     Edge 13, Type (0, 1), BuildingBlock: UVAHIK_clean_linker_0, # of connection points: 2
#     Edge 14, Type (0, 1), BuildingBlock: UVAHIK_clean_linker_0, # of connection points: 2
#     Edge 15, Type (0, 1), BuildingBlock: UVAHIK_clean_linker_0, # of connection points: 2
#     Edge 16, Type (0, 1), BuildingBlock: UVAHIK_clean_linker_0, # of connection points: 2
#     Edge 17, Type (0, 1), BuildingBlock: UVAHIK_clean_linker_0, # of connection points: 2
# Relax obj value: 0.150
# Max RMSD: 0.161
# Mean RMSD: 0.126
data_MOF--net-tsx--node1-JUFBIX_clean_sbu_0--node2-WUSLED_clean_sbu_0--edge1-UVAHIK_clean_linker_0
_symmetry_space_group_name_H-M    P1
_symmetry_Int_Tables_number       1
_symmetry_cell_setting            triclinic
loop_
_symmetry_equiv_pos_as_xyz
'x, y, z'
_cell_length_a     30.767302
_cell_length_b     36.481877
_cell_length_c     56.550513
_cell_angle_alpha  92.866064
_cell_angle_beta   89.461165
_cell_angle_gamma 96.199021
loop_
_atom_site_label
_atom_site_type_symbol
_atom_site_fract_x
_atom_site_fract_y
_atom_site_fract_z
_atom_type_partial_charge
Co0 Co 0.05038 0.99966 0.01265 0.0
C1 C 0.0158 0.01925 0.96953 0.0
Co2 Co 0.99557 0.03432 0.01576 0.0
C3 C 0.1094 0.94138 0.01474 0.0
C4 C 0.13277 0.98621 0.99334 0.0
N5 N 0.09908 0.97412 0.00736 0.0
N6 N 0.14848 0.93302 0.00598 0.0
C7 C 0.16299 0.96126 0.99251 0.0
H8 H 0.08871 0.92411 0.02624 0.0
H9 H 0.1349 0.0114 0.98388 0.0
C10 C 0.02999 0.01467 0.05889 0.0
N11 N 0.94708 0.05997 0.02079 0.0
C12 C 0.93432 0.08905 0.00977 0.0
C13 C 0.91555 0.05167 0.03697 0.0
N14 N 0.89587 0.099 0.0184 0.0
C15 C 0.88421 0.07551 0.03558 0.0
C16 C 0.97166 0.95732 0.01348 0.0
O17 O 0.05596 0.99734 0.04603 0.0
O18 O 1.00217 0.03223 0.04903 0.0
O19 O 0.95834 0.98916 0.01513 0.0
O20 O 0.0125 0.95471 0.0119 0.0
O21 O 0.9897 0.03615 0.98252 0.0
H22 H 0.91524 0.02947 0.04898 0.0
H23 H 0.95245 0.10212 0.99539 0.0
O24 O 0.04415 1.00207 0.97925 0.0
O25 O 0.08761 0.04524 0.01377 0.0
O26 O 0.03302 0.07919 0.01636 0.0
C27 C 0.07393 0.07695 0.01535 0.0
H28 H 0.19282 0.96327 0.98213 0.0
H29 H 0.85521 0.07564 0.04654 0.0
Co30 Co 0.55042 0.49996 0.51254 0.0
C31 C 0.51499 0.52009 0.46969 0.0
Co32 Co 0.4963 0.53535 0.51601 0.0
C33 C 0.60875 0.44098 0.51429 0.0
C34 C 0.63146 0.4851 0.49218 0.0
N35 N 0.59835 0.4736 0.50674 0.0
N36 N 0.64735 0.43215 0.50512 0.0
C37 C 0.66143 0.45994 0.49119 0.0
H38 H 0.58854 0.42417 0.52626 0.0
H39 H 0.63342 0.51009 0.48253 0.0
C40 C 0.53154 0.5152 0.55888 0.0
N41 N 0.44879 0.56205 0.52161 0.0
C42 C 0.43763 0.59252 0.51151 0.0
C43 C 0.41783 0.55454 0.53824 0.0
N44 N 0.40116 0.60442 0.52142 0.0
C45 C 0.38869 0.58049 0.53821 0.0
C46 C 0.47091 0.45866 0.51394 0.0
O47 O 0.55687 0.49747 0.54585 0.0
O48 O 0.50386 0.53312 0.5492 0.0
O49 O 0.45812 0.4907 0.5157 0.0
O50 O 0.51161 0.45556 0.51204 0.0
O51 O 0.48946 0.53733 0.48285 0.0
H52 H 0.41665 0.53169 0.54978 0.0
H53 H 0.45635 0.60609 0.49751 0.0
O54 O 0.54326 0.50257 0.47921 0.0
O55 O 0.58863 0.54502 0.5134 0.0
O56 O 0.53473 0.57966 0.51631 0.0
C57 C 0.5755 0.57693 0.51505 0.0
H58 H 0.69084 0.46153 0.48047 0.0
H59 H 0.3602 0.58143 0.54951 0.0
C60 C 0.9484 0.06407 0.47369 0.0
C61 C 0.94503 0.09181 0.45768 0.0
C62 C 0.89454 0.12081 0.48417 0.0
C63 C 0.9186 0.11996 0.46292 0.0
C64 C 0.89732 0.09261 0.50002 0.0
C65 C 0.92424 0.06454 0.49485 0.0
U66 U 1.00513 0.00959 0.42701 0.0
O67 O 0.071 0.9917 0.42445 0.0
O68 O 0.01339 0.95043 0.42192 0.0
C69 C 0.05629 0.95645 0.42272 0.0
C70 C 0.97628 0.0344 0.46789 0.0
C71 C 0.07924 0.9309 0.43636 0.0
C72 C 0.13654 0.91891 0.46348 0.0
C73 C 0.11105 0.94363 0.45341 0.0
C74 C 0.09786 0.86835 0.44022 0.0
C75 C 0.13074 0.88104 0.45669 0.0
C76 C 0.07253 0.89301 0.43017 0.0
C77 C 0.98852 0.03421 0.36285 0.0
C78 C 0.03535 0.02276 0.32896 0.0
C79 C 0.96 0.03347 0.32293 0.0
C80 C 0.95399 0.03741 0.34739 0.0
C81 C 1.00087 0.02649 0.31336 0.0
C82 C 0.0292 0.02648 0.3535 0.0
C83 C 0.98117 0.03921 0.38853 0.0
O84 O 0.95678 1.00539 0.45605 0.0
O85 O 0.01514 0.04547 0.45933 0.0
O86 O 0.01516 0.05295 0.40128 0.0
O87 O 0.95766 0.01177 0.39834 0.0
H88 H 0.96288 0.09169 0.44107 0.0
H89 H 0.91661 0.14092 0.45018 0.0
H90 H 0.87928 0.09262 0.51656 0.0
H91 H 0.92621 0.04327 0.50736 0.0
H92 H 0.16117 0.92953 0.47634 0.0
H93 H 0.11708 0.97273 0.45853 0.0
H94 H 0.09284 0.83952 0.43431 0.0
H95 H 0.04863 0.88258 0.41684 0.0
H96 H 0.06733 0.01768 0.32223 0.0
H97 H 0.93243 0.03571 0.31153 0.0
H98 H 0.92227 0.04305 0.35427 0.0
H99 H 0.0563 0.02364 0.36512 0.0
C100 C 0.95549 0.95754 0.55308 0.0
C101 C 0.95045 0.92747 0.56778 0.0
C102 C 0.89474 0.89575 0.54158 0.0
C103 C 0.92062 0.89679 0.56201 0.0
C104 C 0.89967 0.92598 0.52692 0.0
C105 C 0.92999 0.95658 0.53258 0.0
U106 U 0.0119 0.01864 0.60145 0.0
O107 O 0.07932 0.04452 0.60575 0.0
O108 O 0.02504 0.07914 0.60657 0.0
C109 C 0.06765 0.0782 0.60656 0.0
C110 C 0.98558 0.99054 0.55982 0.0
C111 C 0.09372 0.10542 0.59226 0.0
C112 C 0.14931 0.12123 0.56245 0.0
C113 C 0.12136 0.09469 0.57382 0.0
C114 C 0.12117 0.16954 0.58713 0.0
C115 C 0.14994 0.15893 0.5692 0.0
C116 C 0.09348 0.14306 0.59854 0.0
C117 C 0.98652 0.99083 0.66495 0.0
C118 C 0.99915 0.03069 0.70053 0.0
C119 C 0.98663 0.96434 0.70348 0.0
C120 C 0.98242 0.95997 0.6789 0.0
C121 C 0.99484 0.99975 0.71458 0.0
C122 C 0.99526 0.02626 0.67588 0.0
C123 C 0.98119 0.98535 0.63915 0.0
O124 O 0.96719 0.01724 0.57112 0.0
O125 O 0.02256 0.98399 0.56944 0.0
O126 O 0.01569 0.97604 0.62739 0.0
O127 O 0.96107 0.01016 0.62876 0.0
H128 H 0.96925 0.92785 0.58392 0.0
H129 H 0.91707 0.87419 0.57384 0.0
H130 H 0.88027 0.92585 0.51102 0.0
H131 H 0.93325 0.9796 0.52109 0.0
H132 H 0.17074 0.11222 0.54853 0.0
H133 H 0.12215 0.06582 0.56855 0.0
H134 H 0.1212 0.19827 0.59299 0.0
H135 H 0.07271 0.15195 0.61283 0.0
H136 H 1.00593 0.05826 0.70857 0.0
H137 H 0.98269 0.94001 0.71385 0.0
H138 H 0.97566 0.93243 0.67077 0.0
H139 H 0.99891 0.05046 0.66539 0.0
C140 C 0.44974 0.56543 0.97355 0.0
C141 C 0.44619 0.59319 0.95759 0.0
C142 C 0.39548 0.62182 0.98412 0.0
C143 C 0.41956 0.62118 0.96287 0.0
C144 C 0.39838 0.59356 0.9999 0.0
C145 C 0.4255 0.56565 0.99469 0.0
U146 U 0.50722 0.51147 0.92692 0.0
O147 O 0.57351 0.49439 0.92445 0.0
O148 O 0.51652 0.45255 0.92197 0.0
C149 C 0.55939 0.45901 0.92295 0.0
C150 C 0.47799 0.53604 0.96777 0.0
C151 C 0.58264 0.43398 0.93695 0.0
C152 C 0.64645 0.42171 0.95927 0.0
C153 C 0.62114 0.44671 0.94942 0.0
C154 C 0.59456 0.37095 0.94512 0.0
C155 C 0.63389 0.38348 0.95683 0.0
C156 C 0.56936 0.39588 0.93523 0.0
C157 C 0.49043 0.53562 0.86272 0.0
C158 C 0.53724 0.52308 0.82901 0.0
C159 C 0.46266 0.53579 0.82271 0.0
C160 C 0.45641 0.53979 0.84715 0.0
C161 C 0.50328 0.52778 0.81329 0.0
C162 C 0.53083 0.52686 0.85353 0.0
C163 C 0.48286 0.54063 0.88837 0.0
O164 O 0.45883 0.50689 0.95593 0.0
O165 O 0.51674 0.54746 0.95921 0.0
O166 O 0.51665 0.55477 0.90113 0.0
O167 O 0.45975 0.51298 0.89819 0.0
H168 H 0.46409 0.59325 0.94099 0.0
H169 H 0.41748 0.64221 0.95019 0.0
H170 H 0.3803 0.59342 0.01643 0.0
H171 H 0.42762 0.54435 0.00716 0.0
H172 H 0.67629 0.4323 0.96843 0.0
H173 H 0.63257 0.47586 0.95093 0.0
H174 H 0.58418 0.3417 0.9426 0.0
H175 H 0.5403 0.38518 0.92538 0.0
H176 H 0.56901 0.51717 0.8224 0.0
H177 H 0.43547 0.5388 0.8112 0.0
H178 H 0.42489 0.54621 0.85391 0.0
H179 H 0.5575 0.52325 0.86527 0.0
C180 C 0.45357 0.45792 0.05345 0.0
C181 C 0.44832 0.42796 0.06825 0.0
C182 C 0.3922 0.39643 0.04223 0.0
C183 C 0.41818 0.39744 0.06261 0.0
C184 C 0.39729 0.42657 0.02749 0.0
C185 C 0.42792 0.45702 0.03302 0.0
U186 U 0.51092 0.51893 0.10154 0.0
O187 O 0.57868 0.54406 0.10573 0.0
O188 O 0.52507 0.57938 0.10644 0.0
C189 C 0.5676 0.57793 0.1064 0.0
C190 C 0.48411 0.49071 0.06002 0.0
C191 C 0.59407 0.60475 0.09196 0.0
C192 C 0.65081 0.61978 0.06263 0.0
C193 C 0.62255 0.59355 0.07407 0.0
C194 C 0.62139 0.66871 0.08615 0.0
C195 C 0.65095 0.65765 0.06878 0.0
C196 C 0.59338 0.64254 0.09764 0.0
C197 C 0.48509 0.49179 0.16517 0.0
C198 C 0.49807 0.53168 0.2007 0.0
C199 C 0.48465 0.46539 0.20374 0.0
C200 C 0.48051 0.46098 0.17916 0.0
C201 C 0.49326 0.50079 0.2148 0.0
C202 C 0.49425 0.5272 0.17605 0.0
C203 C 0.47975 0.48625 0.13937 0.0
O204 O 0.46618 0.51774 0.07123 0.0
O205 O 0.52098 0.48387 0.06963 0.0
O206 O 0.51404 0.47645 0.12764 0.0
O207 O 0.46008 0.51127 0.12891 0.0
H208 H 0.46723 0.4283 0.08435 0.0
H209 H 0.41451 0.37493 0.07451 0.0
H210 H 0.37781 0.42646 0.01162 0.0
H211 H 0.43131 0.47996 0.02147 0.0
H212 H 0.67287 0.61042 0.04914 0.0
H213 H 0.62374 0.56456 0.06927 0.0
H214 H 0.62103 0.69758 0.09155 0.0
H215 H 0.57199 0.65181 0.11151 0.0
H216 H 0.50517 0.55924 0.20871 0.0
H217 H 0.48031 0.4411 0.21413 0.0
H218 H 0.47342 0.43345 0.17106 0.0
H219 H 0.49827 0.55136 0.16553 0.0
C220 C 0.09151 0.14595 0.0161 0.0
C221 C 0.10562 0.11059 0.01655 0.0
C222 C 0.12175 0.17755 0.01778 0.0
C223 C 0.23179 0.20964 0.04006 0.0
H224 H 0.22728 0.29046 0.99847 0.0
C225 C 0.37066 0.32816 0.03883 0.0
C226 C 0.35946 0.36419 0.03682 0.0
C227 C 0.33932 0.29776 0.03528 0.0
C228 C 0.2287 0.26836 0.01043 0.0
H229 H 0.16264 0.08073 0.01885 0.0
H230 H 0.21509 0.1357 0.02193 0.0
H231 H 0.17256 0.23672 0.99468 0.0
H232 H 0.30675 0.39661 0.02921 0.0
H233 H 0.25165 0.34352 0.0234 0.0
H234 H 0.28724 0.24116 0.05613 0.0
C235 C 0.18068 0.13903 0.02041 0.0
C236 C 0.19737 0.23756 0.00821 0.0
C237 C 0.15059 0.10752 0.01852 0.0
C238 C 0.31641 0.36913 0.03066 0.0
C239 C 0.28488 0.33867 0.0273 0.0
C240 C 0.26282 0.24046 0.04241 0.0
C241 C 0.16663 0.1744 0.02019 0.0
C242 C 0.19885 0.20773 0.02288 0.0
C243 C 0.29582 0.30259 0.02986 0.0
C244 C 0.262 0.27012 0.02749 0.0
H245 H 0.0571 0.14926 0.01455 0.0
H246 H 0.10995 0.20446 0.0177 0.0
H247 H 0.23332 0.18738 0.05191 0.0
H248 H 0.40375 0.32348 0.04319 0.0
H249 H 0.34928 0.2704 0.03682 0.0
C250 C 0.14656 0.86573 0.01184 0.0
C251 C 0.17028 0.90041 0.00885 0.0
C252 C 0.16813 0.83365 0.01142 0.0
C253 C 0.26636 0.79941 0.98569 0.0
H254 H 0.25135 0.72219 0.03065 0.0
C255 C 0.38463 0.6889 0.98591 0.0
C256 C 0.36798 0.65226 0.98963 0.0
C257 C 0.35841 0.71759 0.98962 0.0
C258 C 0.25547 0.74327 0.01776 0.0
H259 H 0.23543 0.92882 0.00514 0.0
H260 H 0.27261 0.87331 0.00412 0.0
H261 H 0.20819 0.77492 0.03506 0.0
H262 H 0.31094 0.61705 1.00069 0.0
H263 H 0.2646 0.66728 0.00683 0.0
H264 H 0.31289 0.76815 0.96812 0.0
C265 C 0.23739 0.87068 0.00627 0.0
C266 C 0.2308 0.77345 0.02034 0.0
C267 C 0.21604 0.9025 0.00681 0.0
C268 C 0.32472 0.64507 0.99779 0.0
C269 C 0.29823 0.67386 1.00132 0.0
C270 C 0.29059 0.76929 0.983 0.0
C271 C 0.21366 0.83582 0.00791 0.0
C272 C 0.23673 0.80218 0.00458 0.0
C273 C 0.31458 0.71045 0.99692 0.0
C274 C 0.28625 0.74117 0.99926 0.0
H275 H 0.11129 0.86321 0.0134 0.0
H276 H 0.14906 0.80709 0.01277 0.0
H277 H 0.27092 0.82072 0.97295 0.0
H278 H 0.4181 0.69541 0.98009 0.0
H279 H 0.3726 0.74548 0.98669 0.0
C280 C 0.89454 0.92792 0.01424 0.0
C281 C 0.93951 0.92414 0.01462 0.0
C282 C 0.86369 0.89759 0.01732 0.0
C283 C 0.8471 0.79542 0.01666 0.0
H284 H 0.75041 0.81377 0.05852 0.0
C285 C 0.72733 0.67917 0.05555 0.0
C286 C 0.68323 0.68556 0.05818 0.0
C287 C 0.75853 0.70691 0.0479 0.0
C288 C 0.77679 0.80821 0.04651 0.0
H289 H 0.98731 0.88514 0.01777 0.0
H290 H 0.93318 0.83198 0.02347 0.0
H291 H 0.80519 0.86428 0.04961 0.0
H292 H 0.63694 0.72536 0.05348 0.0
H293 H 0.69119 0.77362 0.04001 0.0
H294 H 0.81861 0.73905 0.01386 0.0
C295 C 0.92188 0.85848 0.02055 0.0
C296 C 0.80829 0.83722 0.0414 0.0
C297 C 0.9529 0.88895 0.01737 0.0
C298 C 0.67077 0.71978 0.05206 0.0
C299 C 0.70189 0.74746 0.04438 0.0
C300 C 0.81546 0.76627 0.02181 0.0
C301 C 0.87692 0.86264 0.02101 0.0
C302 C 0.84375 0.83129 0.02634 0.0
C303 C 0.74629 0.74165 0.04268 0.0
C304 C 0.77983 0.77239 0.03673 0.0
H305 H 0.88301 0.95454 0.01193 0.0
H306 H 0.82934 0.90163 0.01705 0.0
H307 H 0.8738 0.78997 0.00485 0.0
H308 H 0.7381 0.65324 0.06036 0.0
H309 H 0.79248 0.70161 0.04699 0.0
C310 C 0.89245 0.15961 1.00078 0.0
C311 C 0.87139 0.12792 0.01086 0.0
C312 C 0.86844 0.18811 0.99438 0.0
C313 C 0.75555 0.2073 0.98089 0.0
H314 H 0.7991 0.30932 0.9964 0.0
C315 C 0.64501 0.32401 0.97544 0.0
C316 C 0.66282 0.35653 0.96506 0.0
C317 C 0.67176 0.29719 0.98125 0.0
C318 C 0.78668 0.28099 0.99174 0.0
H319 H 0.80835 0.10098 0.02138 0.0
H320 H 0.76692 0.15057 0.01071 0.0
H321 H 0.84383 0.26017 0.00494 0.0
H322 H 0.72304 0.38653 0.95301 0.0
H323 H 0.76973 0.3398 0.96327 0.0
H324 H 0.69838 0.22793 0.96782 0.0
C325 C 0.80188 0.15347 0.00759 0.0
C326 C 0.81236 0.25283 0.99658 0.0
C327 C 0.82579 0.12516 0.014 0.0
C328 C 0.70829 0.36205 0.96128 0.0
C329 C 0.73508 0.33521 0.96711 0.0
C330 C 0.72992 0.23537 0.9761 0.0
C331 C 0.82284 0.18537 0.99777 0.0
C332 C 0.79689 0.21561 0.99143 0.0
C333 C 0.71703 0.30219 0.97682 0.0
C334 C 0.74494 0.27254 0.98166 0.0
H335 H 0.92754 0.1627 0.99825 0.0
H336 H 0.88554 0.21219 0.98667 0.0
H337 H 0.74297 0.179 0.97625 0.0
H338 H 0.61025 0.31914 0.97895 0.0
H339 H 0.65692 0.27241 0.98916 0.0
C340 C 0.65255 0.60682 0.51778 0.0
C341 C 0.60764 0.61028 0.51603 0.0
C342 C 0.68301 0.63812 0.51951 0.0
C343 C 0.70041 0.73665 0.50727 0.0
H344 H 0.79065 0.73991 0.55495 0.0
C345 C 0.81912 0.86822 0.52992 0.0
C346 C 0.8622 0.86341 0.53607 0.0
C347 C 0.78774 0.83768 0.52647 0.0
C348 C 0.76614 0.73931 0.54128 0.0
H349 H 0.55959 0.64942 0.51425 0.0
H350 H 0.61305 0.7042 0.51711 0.0
H351 H 0.73661 0.6862 0.55074 0.0
H352 H 0.90674 0.82285 0.54235 0.0
H353 H 0.85254 0.76961 0.5358 0.0
H354 H 0.73029 0.78958 0.49757 0.0
C355 C 0.62454 0.67717 0.51714 0.0
C356 C 0.73504 0.70851 0.53894 0.0
C357 C 0.59395 0.64581 0.51562 0.0
C358 C 0.87361 0.82743 0.53799 0.0
C359 C 0.84243 0.79693 0.53434 0.0
C360 C 0.7318 0.76741 0.50947 0.0
C361 C 0.66937 0.67364 0.51933 0.0
C362 C 0.70191 0.70677 0.52188 0.0
C363 C 0.79888 0.80163 0.52892 0.0
C364 C 0.76519 0.76907 0.52646 0.0
H365 H 0.66426 0.57989 0.51808 0.0
H366 H 0.71736 0.6345 0.52088 0.0
H367 H 0.67546 0.73593 0.49381 0.0
H368 H 0.8093 0.89566 0.52854 0.0
H369 H 0.75448 0.84244 0.52258 0.0
C370 C 0.64569 0.36504 0.51157 0.0
C371 C 0.66927 0.39964 0.50814 0.0
C372 C 0.66732 0.33299 0.51125 0.0
C373 C 0.76526 0.29839 0.48523 0.0
H374 H 0.75095 0.22186 0.53068 0.0
C375 C 0.88367 0.18792 0.48564 0.0
C376 C 0.86709 0.15135 0.4896 0.0
C377 C 0.85749 0.21666 0.48928 0.0
C378 C 0.75489 0.24275 0.51766 0.0
H379 H 0.73427 0.42799 0.50376 0.0
H380 H 0.77155 0.37254 0.50297 0.0
H381 H 0.70779 0.27459 0.53496 0.0
H382 H 0.81018 0.11633 0.50104 0.0
H383 H 0.76392 0.16663 0.50708 0.0
H384 H 0.81163 0.26693 0.46768 0.0
C385 C 0.73639 0.36992 0.50536 0.0
C386 C 0.7302 0.27293 0.52015 0.0
C387 C 0.71498 0.40171 0.50579 0.0
C388 C 0.82393 0.14429 0.49794 0.0
C389 C 0.79747 0.17313 0.50143 0.0
C390 C 0.78951 0.26827 0.48263 0.0
C391 C 0.71277 0.3351 0.50743 0.0
C392 C 0.73586 0.30142 0.50421 0.0
C393 C 0.81376 0.20964 0.49678 0.0
C394 C 0.78543 0.24039 0.49906 0.0
H395 H 0.61046 0.36255 0.51339 0.0
H396 H 0.64832 0.30647 0.51294 0.0
H397 H 0.76961 0.31949 0.47235 0.0
H398 H 0.91706 0.19436 0.47967 0.0
H399 H 0.87163 0.24449 0.48616 0.0
C400 C 0.45142 0.39029 0.51736 0.0
C401 C 0.43838 0.42576 0.51528 0.0
C402 C 0.42021 0.35997 0.52058 0.0
C403 C 0.30735 0.3389 0.54259 0.0
H404 H 0.31568 0.24145 0.51341 0.0
C405 C 0.16947 0.22168 0.55329 0.0
C406 C 0.18194 0.18711 0.55865 0.0
C407 C 0.20044 0.24951 0.54566 0.0
C408 C 0.31309 0.26846 0.52182 0.0
H409 H 0.38222 0.45685 0.51388 0.0
H410 H 0.32819 0.40421 0.51908 0.0
H411 H 0.37088 0.29237 0.50447 0.0
H412 H 0.23663 0.15436 0.55953 0.0
H413 H 0.29074 0.20299 0.54623 0.0
H414 H 0.25001 0.31521 0.56011 0.0
C415 C 0.36245 0.39982 0.51879 0.0
C416 C 0.34474 0.29761 0.51672 0.0
C417 C 0.3935 0.43001 0.51565 0.0
C418 C 0.22585 0.18056 0.55531 0.0
C419 C 0.25689 0.20845 0.5477 0.0
C420 C 0.27583 0.30987 0.54767 0.0
C421 C 0.37538 0.36455 0.52175 0.0
C422 C 0.34212 0.33322 0.52699 0.0
C423 C 0.2447 0.24351 0.54324 0.0
C424 C 0.27817 0.27431 0.53731 0.0
H425 H 0.48575 0.3861 0.51717 0.0
H426 H 0.4313 0.33322 0.52294 0.0
H427 H 0.30482 0.36575 0.55126 0.0
H428 H 0.13577 0.2274 0.55528 0.0
H429 H 0.18975 0.27593 0.54188 0.0
C430 C 0.37824 0.64695 0.49224 0.0
C431 C 0.37935 0.63585 0.51564 0.0
C432 C 0.35378 0.67553 0.48652 0.0
C433 C 0.26103 0.72429 0.50937 0.0
H434 H 0.29774 0.79338 0.46134 0.0
C435 C 0.14339 0.81896 0.47115 0.0
C436 C 0.16007 0.85499 0.46572 0.0
C437 C 0.17129 0.79363 0.478 0.0
C438 C 0.28718 0.77456 0.47498 0.0
H439 H 0.358 0.64746 0.55158 0.0
H440 H 0.31624 0.69754 0.54181 0.0
H441 H 0.34573 0.74774 0.47185 0.0
H442 H 0.21939 0.89265 0.46352 0.0
H443 H 0.26794 0.84876 0.47608 0.0
H444 H 0.20295 0.75146 0.51289 0.0
C445 C 0.33293 0.68352 0.52767 0.0
C446 C 0.31449 0.74805 0.48079 0.0
C447 C 0.35699 0.65486 0.53331 0.0
C448 C 0.20533 0.86527 0.4678 0.0
C449 C 0.23327 0.83992 0.47468 0.0
C450 C 0.23384 0.75081 0.50363 0.0
C451 C 0.33023 0.69379 0.50413 0.0
C452 C 0.30172 0.7225 0.49803 0.0
C453 C 0.21666 0.80366 0.47968 0.0
C454 C 0.24641 0.77619 0.48628 0.0
H455 H 0.39493 0.63263 0.47824 0.0
H456 H 0.35219 0.68245 0.46817 0.0
H457 H 0.24972 0.70478 0.52249 0.0
H458 H 0.10867 0.81019 0.46997 0.0
H459 H 0.15732 0.76588 0.48147 0.0
C460 C 1.00447 0.03646 0.09863 0.0
C461 C 0.03091 0.01427 0.08506 0.0
C462 C 1.00341 0.0355 0.12323 0.0
C463 C 0.06315 0.00918 0.17505 0.0
H464 H 0.95047 0.01457 0.20563 0.0
C465 C 0.03297 0.99754 0.27661 0.0
C466 C 1.00733 0.02362 0.28722 0.0
C467 C 0.03772 0.99442 0.25195 0.0
C468 C 0.98222 0.01326 0.19737 0.0
H469 H 0.07758 0.974 0.08678 0.0
H470 H 0.0753 0.97196 0.13002 0.0
H471 H 0.95529 0.012 0.16264 0.0
H472 H 0.96822 0.0679 0.28011 0.0
H473 H 0.97587 0.06194 0.2373 0.0
H474 H 0.08983 0.01034 0.21006 0.0
C475 C 0.0557 0.99039 0.12151 0.0
C476 C 0.98503 0.01187 0.17272 0.0
C477 C 0.0569 0.99145 0.09675 0.0
C478 C 0.98728 0.04687 0.27259 0.0
C479 C 0.99175 0.04356 0.24802 0.0
C480 C 0.06026 0.01036 0.19982 0.0
C481 C 0.02851 0.01213 0.135 0.0
C482 C 0.02562 0.01058 0.16123 0.0
C483 C 0.01667 0.0171 0.23741 0.0
C484 C 0.01984 0.01313 0.21121 0.0
H485 H 0.98431 0.05463 0.09026 0.0
H486 H 0.9829 0.05328 0.13306 0.0
H487 H 0.09494 0.0084 0.16677 0.0
H488 H 0.04856 0.97895 0.2873 0.0
H489 H 0.05694 0.97364 0.24424 0.0
C490 C 0.0386 0.99643 0.92937 0.0
C491 C 0.01329 0.01901 0.94339 0.0
C492 C 0.03604 0.99552 0.90471 0.0
C493 C 1.00648 0.04821 0.85477 0.0
H494 H 0.99794 0.95296 0.82051 0.0
C495 C 0.9769 0.03104 0.7535 0.0
C496 C 0.99838 1.00419 0.74076 0.0
C497 C 0.97859 0.03395 0.77825 0.0
C498 C 1.00093 0.97984 0.82974 0.0
H499 H 0.96581 0.05877 0.94248 0.0
H500 H 0.96157 0.05729 0.89923 0.0
H501 H 1.00085 0.95605 0.86357 0.0
H502 H 0.03986 0.96031 0.74391 0.0
H503 H 0.04349 0.96573 0.78697 0.0
H504 H 1.00721 0.07207 0.82091 0.0
C505 C 0.9834 0.04033 0.90743 0.0
C506 C 1.00244 0.98157 0.85444 0.0
C507 C 0.98567 0.04102 0.93217 0.0
C508 C 0.02237 0.98087 0.75326 0.0
C509 C 0.02431 0.98392 0.77795 0.0
C510 C 1.00527 0.04651 0.83 0.0
C511 C 1.00835 0.01736 0.89346 0.0
C512 C 1.00547 0.01576 0.86723 0.0
C513 C 1.00202 0.0102 0.7908 0.0
C514 C 1.00272 0.01228 0.81717 0.0
H515 H 0.0603 0.97919 0.93742 0.0
H516 H 0.05609 0.9779 0.89443 0.0
H517 H 1.00923 0.07498 0.86415 0.0
H518 H 0.95778 0.04915 0.74436 0.0
H519 H 0.9606 0.0542 0.78754 0.0
C520 C 0.50763 0.53787 0.59873 0.0
C521 C 0.53296 0.51488 0.58504 0.0
C522 C 0.50681 0.53694 0.62332 0.0
C523 C 0.5655 0.50885 0.67498 0.0
H524 H 0.45346 0.51705 0.70569 0.0
C525 C 0.53465 0.498 0.77661 0.0
C526 C 0.51002 0.52484 0.78717 0.0
C527 C 0.53949 0.49475 0.75196 0.0
C528 C 0.48503 0.51494 0.69739 0.0
H529 H 0.578 0.47327 0.58655 0.0
H530 H 0.57612 0.47129 0.62982 0.0
H531 H 0.45811 0.51433 0.6627 0.0
H532 H 0.47291 0.57037 0.77999 0.0
H533 H 0.48068 0.56421 0.7372 0.0
H534 H 0.59217 0.50936 0.70997 0.0
C535 C 0.5572 0.4903 0.62138 0.0
C536 C 0.48775 0.51346 0.67274 0.0
C537 C 0.55818 0.49134 0.59662 0.0
C538 C 0.49114 0.54877 0.7725 0.0
C539 C 0.49569 0.54533 0.74795 0.0
C540 C 0.5627 0.51011 0.69976 0.0
C541 C 0.53102 0.51279 0.63498 0.0
C542 C 0.52814 0.5112 0.66121 0.0
C543 C 0.51952 0.51808 0.73738 0.0
C544 C 0.52254 0.51392 0.71119 0.0
H545 H 0.48812 0.55663 0.59045 0.0
H546 H 0.48713 0.55531 0.63323 0.0
H547 H 0.59714 0.50727 0.66666 0.0
H548 H 0.54933 0.4789 0.78734 0.0
H549 H 0.55786 0.47337 0.74428 0.0
C550 C 0.53665 0.4969 0.42942 0.0
C551 C 0.51198 0.51985 0.44357 0.0
C552 C 0.53373 0.49602 0.40478 0.0
C553 C 0.50472 0.54923 0.35501 0.0
H554 H 0.49455 0.45397 0.32071 0.0
C555 C 0.47554 0.5324 0.25365 0.0
C556 C 0.49669 0.50527 0.24098 0.0
C557 C 0.47705 0.5353 0.27841 0.0
C558 C 0.49798 0.48084 0.32995 0.0
H559 H 0.46525 0.56026 0.4429 0.0
H560 H 0.46037 0.55883 0.39966 0.0
H561 H 0.49743 0.45698 0.36377 0.0
H562 H 0.53743 0.46092 0.24425 0.0
H563 H 0.54074 0.46632 0.28731 0.0
H564 H 0.50595 0.57315 0.32115 0.0
C565 C 0.48198 0.54157 0.40776 0.0
C566 C 0.49947 0.48253 0.35465 0.0
C567 C 0.48461 0.54223 0.43249 0.0
C568 C 0.52019 0.48169 0.25355 0.0
C569 C 0.52194 0.48474 0.27824 0.0
C570 C 0.50352 0.54756 0.33023 0.0
C571 C 0.50631 0.51825 0.39367 0.0
C572 C 0.50314 0.51672 0.36745 0.0
C573 C 0.49996 0.51127 0.29102 0.0
C574 C 0.50043 0.51333 0.31739 0.0
H575 H 0.55815 0.47937 0.43736 0.0
H576 H 0.55331 0.47814 0.3944 0.0
H577 H 0.50796 0.57599 0.3644 0.0
H578 H 0.4568 0.55072 0.24446 0.0
H579 H 0.45932 0.55578 0.28765 0.0
loop_
_geom_bond_atom_site_label_1
_geom_bond_atom_site_label_2
_geom_bond_distance
_geom_bond_site_symmetry_2
_ccdc_geom_bond_type
Co0 N5 2.057 . S
Co0 O17 2.021 . S
Co0 O20 2.062 1_455 S
Co0 O24 2.117 1_554 S
Co0 O25 2.020 1_565 S
C1 O21 1.259 1_455 S
C1 O24 1.258 1_545 S
Co2 N11 2.057 . S
Co2 O18 2.117 . S
Co2 O19 2.020 1_545 S
Co2 O21 2.021 1_554 S
Co2 O26 2.062 1_655 S
C3 N5 1.316 . S
C3 N6 1.347 . S
C3 H8 0.931 . S
C4 N5 1.375 1_556 S
C4 C7 1.350 . S
C4 H9 0.930 . S
N5 Co0 2.057 . S
N5 C3 1.316 . S
N5 C4 1.375 1_554 S
N6 C3 1.347 . S
N6 C7 1.373 1_554 S
C7 C4 1.350 . S
C7 N6 1.373 1_556 S
C7 H28 0.931 . S
H8 C3 0.931 . S
H9 C4 0.930 . S
C10 O17 1.259 1_545 S
C10 O18 1.258 1_455 S
N11 Co2 2.057 . S
N11 C12 1.316 . S
N11 C13 1.375 . S
C12 N11 1.316 . S
C12 N14 1.347 . S
C12 H23 0.931 1_554 S
C13 N11 1.375 . S
C13 C15 1.350 . S
C13 H22 0.930 . S
N14 C12 1.347 . S
N14 C15 1.373 . S
C15 C13 1.350 . S
C15 N14 1.373 . S
C15 H29 0.931 . S
C16 O19 1.256 . S
C16 O20 1.255 . S
O17 Co0 2.021 . S
O17 C10 1.259 1_565 S
O18 Co2 2.117 . S
O18 C10 1.258 1_655 S
O19 Co2 2.020 1_565 S
O19 C16 1.256 . S
O20 Co0 2.062 1_655 S
O20 C16 1.255 . S
O21 C1 1.259 1_655 S
O21 Co2 2.021 1_556 S
H22 C13 0.930 . S
H23 C12 0.931 1_556 S
O24 Co0 2.117 1_556 S
O24 C1 1.258 1_565 S
O25 Co0 2.020 1_545 S
O25 C27 1.256 . S
O26 Co2 2.062 1_455 S
O26 C27 1.255 . S
C27 O25 1.256 . S
C27 O26 1.255 . S
H28 C7 0.931 . S
H29 C15 0.931 . S
Co30 N35 2.057 . S
Co30 O47 2.021 . S
Co30 O50 2.062 . S
Co30 O54 2.117 . S
Co30 O55 2.020 . S
C31 O51 1.259 . S
C31 O54 1.258 . S
Co32 N41 2.057 . S
Co32 O48 2.117 . S
Co32 O49 2.020 . S
Co32 O51 2.021 . S
Co32 O56 2.062 . S
C33 N35 1.316 . S
C33 N36 1.347 . S
C33 H38 0.931 . S
C34 N35 1.375 . S
C34 C37 1.350 . S
C34 H39 0.930 . S
N35 Co30 2.057 . S
N35 C33 1.316 . S
N35 C34 1.375 . S
N36 C33 1.347 . S
N36 C37 1.373 . S
C37 C34 1.350 . S
C37 N36 1.373 . S
C37 H58 0.931 . S
H38 C33 0.931 . S
H39 C34 0.930 . S
C40 O47 1.259 . S
C40 O48 1.258 . S
N41 Co32 2.057 . S
N41 C42 1.316 . S
N41 C43 1.375 . S
C42 N41 1.316 . S
C42 N44 1.347 . S
C42 H53 0.931 . S
C43 N41 1.375 . S
C43 C45 1.350 . S
C43 H52 0.930 . S
N44 C42 1.347 . S
N44 C45 1.373 . S
C45 C43 1.350 . S
C45 N44 1.373 . S
C45 H59 0.931 . S
C46 O49 1.256 . S
C46 O50 1.255 . S
O47 Co30 2.021 . S
O47 C40 1.259 . S
O48 Co32 2.117 . S
O48 C40 1.258 . S
O49 Co32 2.020 . S
O49 C46 1.256 . S
O50 Co30 2.062 . S
O50 C46 1.255 . S
O51 C31 1.259 . S
O51 Co32 2.021 . S
H52 C43 0.930 . S
H53 C42 0.931 . S
O54 Co30 2.117 . S
O54 C31 1.258 . S
O55 Co30 2.020 . S
O55 C57 1.256 . S
O56 Co32 2.062 . S
O56 C57 1.255 . S
C57 O55 1.256 . S
C57 O56 1.255 . S
H58 C37 0.931 . S
H59 C45 0.931 . S
C60 C61 1.264 . S
C60 C65 1.479 . S
C60 C70 1.465 . S
C61 C60 1.264 . S
C61 C63 1.339 . S
C61 H88 0.931 . S
C62 C63 1.395 . S
C62 C64 1.320 . S
C63 C61 1.339 . S
C63 C62 1.395 . S
C63 H89 0.929 . S
C64 C62 1.320 . S
C64 C65 1.405 . S
C64 H90 0.930 . S
C65 C60 1.479 . S
C65 C64 1.405 . S
C65 H91 0.931 . S
U66 O67 2.454 1_545 S
U66 O68 2.458 1_545 S
U66 C69 2.984 1_545 S
U66 C70 2.847 1_455 S
U66 C83 2.882 . S
U66 O84 2.441 1_455 S
U66 O85 2.420 1_455 S
U66 O86 2.455 1_545 S
U66 O87 2.449 . S
O67 U66 2.454 1_565 S
O67 C69 1.353 . S
O68 U66 2.458 1_565 S
O68 C69 1.286 . S
C69 U66 2.984 1_565 S
C69 O67 1.353 . S
C69 O68 1.286 . S
C69 C71 1.363 . S
C70 C60 1.465 . S
C70 U66 2.847 1_655 S
C70 O84 1.249 . S
C70 O85 1.202 . S
C71 C69 1.363 . S
C71 C73 1.408 . S
C71 C76 1.342 . S
C72 C73 1.310 . S
C72 C75 1.461 . S
C72 H92 0.932 . S
C73 C71 1.408 . S
C73 C72 1.310 . S
C73 H93 0.930 . S
C74 C75 1.474 . S
C74 C76 1.285 . S
C74 H94 0.929 . S
C75 C72 1.461 . S
C75 C74 1.474 . S
C76 C71 1.342 . S
C76 C74 1.285 . S
C76 H95 0.930 . S
C77 C80 1.424 1_455 S
C77 C82 1.245 1_545 S
C77 C83 1.428 . S
C78 C81 1.260 1_565 S
C78 C82 1.477 . S
C78 H96 0.932 . S
C79 C80 1.384 . S
C79 C81 1.479 1_655 S
C79 H97 0.929 . S
C80 C77 1.424 1_655 S
C80 C79 1.384 . S
C80 H98 0.928 . S
C81 C78 1.260 1_545 S
C81 C79 1.479 1_455 S
C82 C77 1.245 1_565 S
C82 C78 1.477 . S
C82 H99 0.932 . S
C83 U66 2.882 . S
C83 C77 1.428 . S
C83 O86 1.301 1_545 S
C83 O87 1.282 . S
O84 U66 2.441 1_655 S
O84 C70 1.249 . S
O85 U66 2.420 1_655 S
O85 C70 1.202 . S
O86 U66 2.455 1_565 S
O86 C83 1.301 1_565 S
O87 U66 2.449 . S
O87 C83 1.282 . S
H88 C61 0.931 . S
H89 C63 0.929 . S
H90 C64 0.930 . S
H91 C65 0.931 . S
H92 C72 0.932 . S
H93 C73 0.930 . S
H94 C74 0.929 . S
H95 C76 0.930 . S
H96 C78 0.932 . S
H97 C79 0.929 . S
H98 C80 0.928 . S
H99 C82 0.932 . S
C100 C101 1.264 . S
C100 C105 1.479 . S
C100 C110 1.465 . S
C101 C100 1.264 . S
C101 C103 1.339 . S
C101 H128 0.931 . S
C102 C103 1.395 . S
C102 C104 1.320 . S
C103 C101 1.339 . S
C103 C102 1.395 . S
C103 H129 0.929 . S
C104 C102 1.320 . S
C104 C105 1.405 . S
C104 H130 0.930 . S
C105 C100 1.479 . S
C105 C104 1.405 . S
C105 H131 0.931 . S
U106 O107 2.454 . S
U106 O108 2.458 . S
U106 C109 2.984 . S
U106 C110 2.847 1_445 S
U106 C123 2.882 . S
U106 O124 2.441 1_445 S
U106 O125 2.420 1_445 S
U106 O126 2.455 . S
U106 O127 2.449 1_545 S
O107 U106 2.454 . S
O107 C109 1.353 . S
O108 U106 2.458 . S
O108 C109 1.286 . S
C109 U106 2.984 . S
C109 O107 1.353 . S
C109 O108 1.286 . S
C109 C111 1.363 . S
C110 C100 1.465 . S
C110 U106 2.847 1_665 S
C110 O124 1.249 . S
C110 O125 1.202 . S
C111 C109 1.363 . S
C111 C113 1.408 . S
C111 C116 1.342 . S
C112 C113 1.310 . S
C112 C115 1.461 . S
C112 H132 0.932 . S
C113 C111 1.408 . S
C113 C112 1.310 . S
C113 H133 0.930 . S
C114 C115 1.474 . S
C114 C116 1.285 . S
C114 H134 0.929 . S
C115 C112 1.461 . S
C115 C114 1.474 . S
C116 C111 1.342 . S
C116 C114 1.285 . S
C116 H135 0.930 . S
C117 C120 1.424 1_445 S
C117 C122 1.245 . S
C117 C123 1.428 . S
C118 C121 1.260 . S
C118 C122 1.477 . S
C118 H136 0.932 . S
C119 C120 1.384 . S
C119 C121 1.479 1_665 S
C119 H137 0.929 . S
C120 C117 1.424 1_665 S
C120 C119 1.384 . S
C120 H138 0.928 . S
C121 C118 1.260 . S
C121 C119 1.479 1_445 S
C122 C117 1.245 . S
C122 C118 1.477 . S
C122 H139 0.932 . S
C123 U106 2.882 . S
C123 C117 1.428 . S
C123 O126 1.301 . S
C123 O127 1.282 1_545 S
O124 U106 2.441 1_665 S
O124 C110 1.249 . S
O125 U106 2.420 1_665 S
O125 C110 1.202 . S
O126 U106 2.455 . S
O126 C123 1.301 . S
O127 U106 2.449 1_565 S
O127 C123 1.282 1_565 S
H128 C101 0.931 . S
H129 C103 0.929 . S
H130 C104 0.930 . S
H131 C105 0.931 . S
H132 C112 0.932 . S
H133 C113 0.930 . S
H134 C114 0.929 . S
H135 C116 0.930 . S
H136 C118 0.932 . S
H137 C119 0.929 . S
H138 C120 0.928 . S
H139 C122 0.932 . S
C140 C141 1.264 . S
C140 C145 1.479 . S
C140 C150 1.465 . S
C141 C140 1.264 . S
C141 C143 1.339 . S
C141 H168 0.931 . S
C142 C143 1.395 . S
C142 C144 1.296 1_556 S
C143 C141 1.339 . S
C143 C142 1.395 . S
C143 H169 0.929 . S
C144 C142 1.296 1_554 S
C144 C145 1.390 1_554 S
C144 H170 0.971 . S
C145 C140 1.479 . S
C145 C144 1.390 1_556 S
C145 H171 0.929 1_556 S
U146 O147 2.454 . S
U146 O148 2.458 . S
U146 C149 2.984 . S
U146 C150 2.847 . S
U146 C163 2.882 . S
U146 O164 2.441 . S
U146 O165 2.420 . S
U146 O166 2.455 . S
U146 O167 2.449 . S
O147 U146 2.454 . S
O147 C149 1.353 . S
O148 U146 2.458 . S
O148 C149 1.286 . S
C149 U146 2.984 . S
C149 O147 1.353 . S
C149 O148 1.286 . S
C149 C151 1.363 . S
C150 C140 1.465 . S
C150 U146 2.847 . S
C150 O164 1.249 . S
C150 O165 1.202 . S
C151 C149 1.363 . S
C151 C153 1.408 . S
C151 C156 1.342 . S
C152 C153 1.332 . S
C152 C155 1.483 . S
C152 H172 0.888 1_556 S
C153 C151 1.408 . S
C153 C152 1.332 . S
C153 H173 0.930 . S
C154 C155 1.474 . S
C154 C156 1.285 . S
C154 H174 0.929 . S
C155 C152 1.483 . S
C155 C154 1.474 . S
C156 C151 1.342 . S
C156 C154 1.285 . S
C156 H175 0.930 . S
C157 C160 1.424 . S
C157 C162 1.245 . S
C157 C163 1.428 . S
C158 C161 1.260 . S
C158 C162 1.477 . S
C158 H176 0.932 . S
C159 C160 1.384 . S
C159 C161 1.479 . S
C159 H177 0.929 . S
C160 C157 1.424 . S
C160 C159 1.384 . S
C160 H178 0.928 . S
C161 C158 1.260 . S
C161 C159 1.479 . S
C162 C157 1.245 . S
C162 C158 1.477 . S
C162 H179 0.932 . S
C163 U146 2.882 . S
C163 C157 1.428 . S
C163 O166 1.301 . S
C163 O167 1.282 . S
O164 U146 2.441 . S
O164 C150 1.249 . S
O165 U146 2.420 . S
O165 C150 1.202 . S
O166 U146 2.455 . S
O166 C163 1.301 . S
O167 U146 2.449 . S
O167 C163 1.282 . S
H168 C141 0.931 . S
H169 C143 0.929 . S
H170 C144 0.971 . S
H171 C145 0.929 1_554 S
H172 C152 0.888 1_554 S
H173 C153 0.930 . S
H174 C154 0.929 . S
H175 C156 0.930 . S
H176 C158 0.932 . S
H177 C159 0.929 . S
H178 C160 0.928 . S
H179 C162 0.932 . S
C180 C181 1.264 . S
C180 C185 1.479 . S
C180 C190 1.465 . S
C181 C180 1.264 . S
C181 C183 1.339 . S
C181 H208 0.931 . S
C182 C183 1.395 . S
C182 C184 1.320 . S
C183 C181 1.339 . S
C183 C182 1.395 . S
C183 H209 0.929 . S
C184 C182 1.320 . S
C184 C185 1.405 . S
C184 H210 0.930 . S
C185 C180 1.479 . S
C185 C184 1.405 . S
C185 H211 0.931 . S
U186 O187 2.454 . S
U186 O188 2.458 . S
U186 C189 2.984 . S
U186 C190 2.847 . S
U186 C203 2.882 . S
U186 O204 2.441 . S
U186 O205 2.420 . S
U186 O206 2.455 . S
U186 O207 2.449 . S
O187 U186 2.454 . S
O187 C189 1.353 . S
O188 U186 2.458 . S
O188 C189 1.286 . S
C189 U186 2.984 . S
C189 O187 1.353 . S
C189 O188 1.286 . S
C189 C191 1.363 . S
C190 C180 1.465 . S
C190 U186 2.847 . S
C190 O204 1.249 . S
C190 O205 1.202 . S
C191 C189 1.363 . S
C191 C193 1.408 . S
C191 C196 1.342 . S
C192 C193 1.310 . S
C192 C195 1.461 . S
C192 H212 0.932 . S
C193 C191 1.408 . S
C193 C192 1.310 . S
C193 H213 0.930 . S
C194 C195 1.474 . S
C194 C196 1.285 . S
C194 H214 0.929 . S
C195 C192 1.461 . S
C195 C194 1.474 . S
C196 C191 1.342 . S
C196 C194 1.285 . S
C196 H215 0.930 . S
C197 C200 1.424 . S
C197 C202 1.245 . S
C197 C203 1.428 . S
C198 C201 1.260 . S
C198 C202 1.477 . S
C198 H216 0.932 . S
C199 C200 1.384 . S
C199 C201 1.479 . S
C199 H217 0.929 . S
C200 C197 1.424 . S
C200 C199 1.384 . S
C200 H218 0.928 . S
C201 C198 1.260 . S
C201 C199 1.479 . S
C202 C197 1.245 . S
C202 C198 1.477 . S
C202 H219 0.932 . S
C203 U186 2.882 . S
C203 C197 1.428 . S
C203 O206 1.301 . S
C203 O207 1.282 . S
O204 U186 2.441 . S
O204 C190 1.249 . S
O205 U186 2.420 . S
O205 C190 1.202 . S
O206 U186 2.455 . S
O206 C203 1.301 . S
O207 U186 2.449 . S
O207 C203 1.282 . S
H208 C181 0.931 . S
H209 C183 0.929 . S
H210 C184 0.930 . S
H211 C185 0.931 . S
H212 C192 0.932 . S
H213 C193 0.930 . S
H214 C194 0.929 . S
H215 C196 0.930 . S
H216 C198 0.932 . S
H217 C199 0.929 . S
H218 C200 0.928 . S
H219 C202 0.932 . S
C220 C221 1.349 1_556 S
C220 C222 1.328 . S
C220 H245 0.950 . S
C221 C220 1.349 1_554 S
C221 C237 1.349 . S
C222 C220 1.328 . S
C222 C241 1.404 1_556 S
C222 H246 0.975 . S
C223 C240 1.574 . S
C223 C242 1.368 . S
C223 H247 0.949 . S
H224 C228 0.949 1_556 S
C225 C226 1.349 . S
C225 C227 1.327 . S
C225 H248 0.950 . S
C226 C225 1.349 . S
C226 C238 1.349 . S
C227 C225 1.327 . S
C227 C243 1.429 . S
C227 H249 0.950 . S
C228 H224 0.949 1_554 S
C228 C236 1.574 . S
C228 C244 1.368 . S
H229 C237 0.950 . S
H230 C235 0.950 . S
H231 C236 0.949 1_556 S
H232 C238 0.931 1_556 S
H233 C239 0.950 1_556 S
H234 C240 0.949 . S
C235 H230 0.950 . S
C235 C237 1.327 . S
C235 C241 1.429 . S
C236 C228 1.574 . S
C236 H231 0.949 1_554 S
C236 C242 1.368 . S
C237 C221 1.349 . S
C237 H229 0.950 . S
C237 C235 1.327 . S
C238 C226 1.349 . S
C238 H232 0.931 1_554 S
C238 C239 1.327 . S
C239 H233 0.950 1_554 S
C239 C238 1.327 . S
C239 C243 1.429 . S
C240 C223 1.574 . S
C240 H234 0.949 . S
C240 C244 1.368 . S
C241 C222 1.404 1_554 S
C241 C235 1.429 . S
C241 C242 1.523 . S
C242 C223 1.368 . S
C242 C236 1.368 . S
C242 C241 1.523 . S
C243 C227 1.429 . S
C243 C239 1.429 . S
C243 C244 1.523 . S
C244 C228 1.368 . S
C244 C240 1.368 . S
C244 C243 1.523 . S
H245 C220 0.950 . S
H246 C222 0.975 . S
H247 C223 0.949 . S
H248 C225 0.950 . S
H249 C227 0.950 . S
C250 C251 1.349 . S
C250 C252 1.327 . S
C250 H275 0.950 . S
C251 C250 1.349 . S
C251 C267 1.349 1_554 S
C252 C250 1.327 . S
C252 C271 1.429 . S
C252 H276 0.950 . S
C253 C270 1.574 . S
C253 C272 1.368 1_556 S
C253 H277 0.949 . S
H254 C258 0.949 . S
C255 C256 1.349 . S
C255 C257 1.327 . S
C255 H278 0.950 . S
C256 C255 1.349 . S
C256 C268 1.349 1_556 S
C257 C255 1.327 . S
C257 C273 1.429 . S
C257 H279 0.950 . S
C258 H254 0.949 . S
C258 C266 1.574 . S
C258 C274 1.395 . S
H259 C267 0.950 . S
H260 C265 0.950 . S
H261 C266 0.949 . S
H262 C268 0.950 . S
H263 C269 0.950 . S
H264 C270 0.949 . S
C265 H260 0.950 . S
C265 C267 1.327 . S
C265 C271 1.429 1_556 S
C266 C258 1.574 . S
C266 H261 0.949 . S
C266 C272 1.368 . S
C267 C251 1.349 1_556 S
C267 H259 0.950 . S
C267 C265 1.327 . S
C268 C256 1.349 1_554 S
C268 H262 0.950 . S
C268 C269 1.327 . S
C269 H263 0.950 . S
C269 C268 1.327 . S
C269 C273 1.429 1_554 S
C270 C253 1.574 . S
C270 H264 0.949 . S
C270 C274 1.343 1_556 S
C271 C252 1.429 . S
C271 C265 1.429 1_554 S
C271 C272 1.523 . S
C272 C253 1.368 1_554 S
C272 C266 1.368 . S
C272 C271 1.523 . S
C273 C257 1.429 . S
C273 C269 1.429 1_556 S
C273 C274 1.521 1_556 S
C274 C258 1.395 . S
C274 C270 1.343 1_554 S
C274 C273 1.521 1_554 S
H275 C250 0.950 . S
H276 C252 0.950 . S
H277 C253 0.949 . S
H278 C255 0.950 . S
H279 C257 0.950 . S
C280 C281 1.349 . S
C280 C282 1.327 . S
C280 H305 0.950 . S
C281 C280 1.349 . S
C281 C297 1.349 1_554 S
C282 C280 1.327 . S
C282 C301 1.429 . S
C282 H306 0.950 . S
C283 C300 1.574 . S
C283 C302 1.368 . S
C283 H307 0.949 1_554 S
H284 C288 0.949 . S
C285 C286 1.349 . S
C285 C287 1.327 . S
C285 H308 0.953 . S
C286 C285 1.349 . S
C286 C298 1.349 . S
C287 C285 1.327 . S
C287 C303 1.429 . S
C287 H309 0.950 1_554 S
C288 H284 0.949 . S
C288 C296 1.574 . S
C288 C304 1.368 . S
H289 C297 0.950 . S
H290 C295 0.960 . S
H291 C296 0.949 . S
H292 C298 0.950 . S
H293 C299 0.950 . S
H294 C300 0.949 1_556 S
C295 H290 0.960 . S
C295 C297 1.329 . S
C295 C301 1.417 1_556 S
C296 C288 1.574 . S
C296 H291 0.949 . S
C296 C302 1.368 . S
C297 C281 1.349 1_556 S
C297 H289 0.950 . S
C297 C295 1.329 . S
C298 C286 1.349 . S
C298 H292 0.950 . S
C298 C299 1.327 . S
C299 H293 0.950 . S
C299 C298 1.327 . S
C299 C303 1.429 . S
C300 C283 1.574 . S
C300 H294 0.949 1_554 S
C300 C304 1.368 . S
C301 C282 1.429 . S
C301 C295 1.417 1_554 S
C301 C302 1.523 . S
C302 C283 1.368 . S
C302 C296 1.368 . S
C302 C301 1.523 . S
C303 C287 1.429 . S
C303 C299 1.429 . S
C303 C304 1.523 . S
C304 C288 1.368 . S
C304 C300 1.368 . S
C304 C303 1.523 . S
H305 C280 0.950 . S
H306 C282 0.950 . S
H307 C283 0.949 1_556 S
H308 C285 0.953 . S
H309 C287 0.950 1_556 S
C310 C311 1.349 . S
C310 C312 1.327 . S
C310 H335 0.950 . S
C311 C310 1.349 . S
C311 C327 1.349 1_554 S
C312 C310 1.327 . S
C312 C331 1.429 . S
C312 H336 0.950 . S
C313 C330 1.574 . S
C313 C332 1.368 1_556 S
C313 H337 0.949 . S
H314 C318 0.949 . S
C315 C316 1.349 . S
C315 C317 1.327 . S
C315 H338 0.950 . S
C316 C315 1.349 . S
C316 C328 1.349 1_556 S
C317 C315 1.327 . S
C317 C333 1.429 . S
C317 H339 0.950 . S
C318 H314 0.949 . S
C318 C326 1.574 . S
C318 C334 1.360 1_554 S
H319 C327 0.950 . S
H320 C325 0.950 . S
H321 C326 0.949 . S
H322 C328 0.950 . S
H323 C329 0.950 . S
H324 C330 0.949 . S
C325 H320 0.950 . S
C325 C327 1.327 . S
C325 C331 1.429 1_556 S
C326 C318 1.574 . S
C326 H321 0.949 . S
C326 C332 1.368 . S
C327 C311 1.349 1_556 S
C327 H319 0.950 . S
C327 C325 1.327 . S
C328 C316 1.349 1_554 S
C328 H322 0.950 . S
C328 C329 1.327 . S
C329 H323 0.950 . S
C329 C328 1.327 . S
C329 C333 1.429 1_554 S
C330 C313 1.574 . S
C330 H324 0.949 . S
C330 C334 1.375 . S
C331 C312 1.429 . S
C331 C325 1.429 1_554 S
C331 C332 1.523 . S
C332 C313 1.368 1_554 S
C332 C326 1.368 . S
C332 C331 1.523 . S
C333 C317 1.429 . S
C333 C329 1.429 1_556 S
C333 C334 1.525 . S
C334 C318 1.360 1_556 S
C334 C330 1.375 . S
C334 C333 1.525 . S
H335 C310 0.950 . S
H336 C312 0.950 . S
H337 C313 0.949 . S
H338 C315 0.950 . S
H339 C317 0.950 . S
C340 C341 1.349 . S
C340 C342 1.327 . S
C340 H365 0.950 . S
C341 C340 1.349 . S
C341 C357 1.349 . S
C342 C340 1.327 . S
C342 C361 1.429 . S
C342 H366 0.950 . S
C343 C360 1.574 . S
C343 C362 1.368 . S
C343 H367 0.949 . S
H344 C348 0.949 . S
C345 C346 1.349 . S
C345 C347 1.327 . S
C345 H368 0.950 . S
C346 C345 1.349 . S
C346 C358 1.349 . S
C347 C345 1.327 . S
C347 C363 1.429 . S
C347 H369 0.950 . S
C348 H344 0.949 . S
C348 C356 1.574 . S
C348 C364 1.368 . S
H349 C357 0.950 . S
H350 C355 0.950 . S
H351 C356 0.949 . S
H352 C358 0.950 . S
H353 C359 0.950 . S
H354 C360 0.949 . S
C355 H350 0.950 . S
C355 C357 1.327 . S
C355 C361 1.429 . S
C356 C348 1.574 . S
C356 H351 0.949 . S
C356 C362 1.368 . S
C357 C341 1.349 . S
C357 H349 0.950 . S
C357 C355 1.327 . S
C358 C346 1.349 . S
C358 H352 0.950 . S
C358 C359 1.327 . S
C359 H353 0.950 . S
C359 C358 1.327 . S
C359 C363 1.429 . S
C360 C343 1.574 . S
C360 H354 0.949 . S
C360 C364 1.368 . S
C361 C342 1.429 . S
C361 C355 1.429 . S
C361 C362 1.523 . S
C362 C343 1.368 . S
C362 C356 1.368 . S
C362 C361 1.523 . S
C363 C347 1.429 . S
C363 C359 1.429 . S
C363 C364 1.523 . S
C364 C348 1.368 . S
C364 C360 1.368 . S
C364 C363 1.523 . S
H365 C340 0.950 . S
H366 C342 0.950 . S
H367 C343 0.949 . S
H368 C345 0.950 . S
H369 C347 0.950 . S
C370 C371 1.349 . S
C370 C372 1.327 . S
C370 H395 0.950 . S
C371 C370 1.349 . S
C371 C387 1.349 . S
C372 C370 1.327 . S
C372 C391 1.429 . S
C372 H396 0.950 . S
C373 C390 1.574 . S
C373 C392 1.368 . S
C373 H397 0.949 . S
H374 C378 0.949 . S
C375 C376 1.349 . S
C375 C377 1.327 . S
C375 H398 0.950 . S
C376 C375 1.349 . S
C376 C388 1.349 . S
C377 C375 1.327 . S
C377 C393 1.429 . S
C377 H399 0.950 . S
C378 H374 0.949 . S
C378 C386 1.574 . S
C378 C394 1.368 . S
H379 C387 0.950 . S
H380 C385 0.950 . S
H381 C386 0.949 . S
H382 C388 0.950 . S
H383 C389 0.950 . S
H384 C390 0.949 . S
C385 H380 0.950 . S
C385 C387 1.327 . S
C385 C391 1.429 . S
C386 C378 1.574 . S
C386 H381 0.949 . S
C386 C392 1.368 . S
C387 C371 1.349 . S
C387 H379 0.950 . S
C387 C385 1.327 . S
C388 C376 1.349 . S
C388 H382 0.950 . S
C388 C389 1.327 . S
C389 H383 0.950 . S
C389 C388 1.327 . S
C389 C393 1.429 . S
C390 C373 1.574 . S
C390 H384 0.949 . S
C390 C394 1.368 . S
C391 C372 1.429 . S
C391 C385 1.429 . S
C391 C392 1.523 . S
C392 C373 1.368 . S
C392 C386 1.368 . S
C392 C391 1.523 . S
C393 C377 1.429 . S
C393 C389 1.429 . S
C393 C394 1.523 . S
C394 C378 1.368 . S
C394 C390 1.368 . S
C394 C393 1.523 . S
H395 C370 0.950 . S
H396 C372 0.950 . S
H397 C373 0.949 . S
H398 C375 0.950 . S
H399 C377 0.950 . S
C400 C401 1.349 . S
C400 C402 1.327 . S
C400 H425 0.950 . S
C401 C400 1.349 . S
C401 C417 1.349 . S
C402 C400 1.327 . S
C402 C421 1.429 . S
C402 H426 0.950 . S
C403 C420 1.574 . S
C403 C422 1.368 . S
C403 H427 0.949 . S
H404 C408 0.949 . S
C405 C406 1.349 . S
C405 C407 1.327 . S
C405 H428 0.950 . S
C406 C405 1.349 . S
C406 C418 1.349 . S
C407 C405 1.327 . S
C407 C423 1.429 . S
C407 H429 0.950 . S
C408 H404 0.949 . S
C408 C416 1.574 . S
C408 C424 1.368 . S
H409 C417 0.950 . S
H410 C415 0.950 . S
H411 C416 0.949 . S
H412 C418 0.950 . S
H413 C419 0.950 . S
H414 C420 0.949 . S
C415 H410 0.950 . S
C415 C417 1.327 . S
C415 C421 1.429 . S
C416 C408 1.574 . S
C416 H411 0.949 . S
C416 C422 1.368 . S
C417 C401 1.349 . S
C417 H409 0.950 . S
C417 C415 1.327 . S
C418 C406 1.349 . S
C418 H412 0.950 . S
C418 C419 1.327 . S
C419 H413 0.950 . S
C419 C418 1.327 . S
C419 C423 1.429 . S
C420 C403 1.574 . S
C420 H414 0.949 . S
C420 C424 1.368 . S
C421 C402 1.429 . S
C421 C415 1.429 . S
C421 C422 1.523 . S
C422 C403 1.368 . S
C422 C416 1.368 . S
C422 C421 1.523 . S
C423 C407 1.429 . S
C423 C419 1.429 . S
C423 C424 1.523 . S
C424 C408 1.368 . S
C424 C420 1.368 . S
C424 C423 1.523 . S
H425 C400 0.950 . S
H426 C402 0.950 . S
H427 C403 0.949 . S
H428 C405 0.950 . S
H429 C407 0.950 . S
C430 C431 1.349 . S
C430 C432 1.327 . S
C430 H455 0.950 . S
C431 C430 1.349 . S
C431 C447 1.349 . S
C432 C430 1.327 . S
C432 C451 1.429 . S
C432 H456 0.950 . S
C433 C450 1.574 . S
C433 C452 1.368 . S
C433 H457 0.949 . S
H434 C438 0.949 . S
C435 C436 1.349 . S
C435 C437 1.327 . S
C435 H458 0.950 . S
C436 C435 1.349 . S
C436 C448 1.349 . S
C437 C435 1.327 . S
C437 C453 1.429 . S
C437 H459 0.950 . S
C438 H434 0.949 . S
C438 C446 1.574 . S
C438 C454 1.368 . S
H439 C447 0.950 . S
H440 C445 0.950 . S
H441 C446 0.949 . S
H442 C448 0.950 . S
H443 C449 0.950 . S
H444 C450 0.949 . S
C445 H440 0.950 . S
C445 C447 1.327 . S
C445 C451 1.429 . S
C446 C438 1.574 . S
C446 H441 0.949 . S
C446 C452 1.368 . S
C447 C431 1.349 . S
C447 H439 0.950 . S
C447 C445 1.327 . S
C448 C436 1.349 . S
C448 H442 0.950 . S
C448 C449 1.327 . S
C449 H443 0.950 . S
C449 C448 1.327 . S
C449 C453 1.429 . S
C450 C433 1.574 . S
C450 H444 0.949 . S
C450 C454 1.368 . S
C451 C432 1.429 . S
C451 C445 1.429 . S
C451 C452 1.523 . S
C452 C433 1.368 . S
C452 C446 1.368 . S
C452 C451 1.523 . S
C453 C437 1.429 . S
C453 C449 1.429 . S
C453 C454 1.523 . S
C454 C438 1.368 . S
C454 C450 1.368 . S
C454 C453 1.523 . S
H455 C430 0.950 . S
H456 C432 0.950 . S
H457 C433 0.949 . S
H458 C435 0.950 . S
H459 C437 0.950 . S
C460 C461 1.349 1_655 S
C460 C462 1.327 . S
C460 H485 0.950 . S
C461 C460 1.349 1_455 S
C461 C477 1.349 1_545 S
C462 C460 1.327 . S
C462 C481 1.429 1_655 S
C462 H486 0.950 . S
C463 C480 1.574 . S
C463 C482 1.368 1_565 S
C463 H487 0.949 . S
H464 C468 0.949 . S
C465 C466 1.348 1_565 S
C465 C467 1.327 . S
C465 H488 0.950 . S
C466 C465 1.348 1_545 S
C466 C478 1.349 1_455 S
C467 C465 1.327 . S
C467 C483 1.429 1_565 S
C467 H489 0.950 . S
C468 H464 0.949 . S
C468 C476 1.574 . S
C468 C484 1.368 1_655 S
H469 C477 0.950 . S
H470 C475 0.950 . S
H471 C476 0.949 . S
H472 C478 0.950 . S
H473 C479 0.950 . S
H474 C480 0.949 . S
C475 H470 0.950 . S
C475 C477 1.327 . S
C475 C481 1.429 1_565 S
C476 C468 1.574 . S
C476 H471 0.949 . S
C476 C482 1.368 1_655 S
C477 C461 1.349 1_565 S
C477 H469 0.950 . S
C477 C475 1.327 . S
C478 C466 1.349 1_655 S
C478 H472 0.950 . S
C478 C479 1.327 . S
C479 H473 0.950 . S
C479 C478 1.327 . S
C479 C483 1.429 1_655 S
C480 C463 1.574 . S
C480 H474 0.949 . S
C480 C484 1.368 1_565 S
C481 C462 1.429 1_455 S
C481 C475 1.429 1_545 S
C481 C482 1.523 . S
C482 C463 1.368 1_545 S
C482 C476 1.368 1_455 S
C482 C481 1.523 . S
C483 C467 1.429 1_545 S
C483 C479 1.429 1_455 S
C483 C484 1.523 . S
C484 C468 1.368 1_455 S
C484 C480 1.368 1_545 S
C484 C483 1.523 . S
H485 C460 0.950 . S
H486 C462 0.950 . S
H487 C463 0.949 . S
H488 C465 0.950 . S
H489 C467 0.950 . S
C490 C491 1.349 1_665 S
C490 C492 1.327 . S
C490 H515 0.950 . S
C491 C490 1.349 1_445 S
C491 C507 1.349 . S
C492 C490 1.327 . S
C492 C511 1.429 1_665 S
C492 H516 0.950 . S
C493 C510 1.574 . S
C493 C512 1.368 . S
C493 H517 0.949 . S
H494 C498 0.949 . S
C495 C496 1.349 . S
C495 C497 1.327 . S
C495 H518 0.950 . S
C496 C495 1.349 . S
C496 C508 1.349 1_445 S
C497 C495 1.327 . S
C497 C513 1.429 . S
C497 H519 0.950 . S
C498 H494 0.949 . S
C498 C506 1.574 . S
C498 C514 1.368 1_665 S
H499 C507 0.950 . S
H500 C505 0.950 . S
H501 C506 0.949 . S
H502 C508 0.950 . S
H503 C509 0.950 . S
H504 C510 0.949 . S
C505 H500 0.950 . S
C505 C507 1.327 . S
C505 C511 1.429 . S
C506 C498 1.574 . S
C506 H501 0.949 . S
C506 C512 1.368 1_665 S
C507 C491 1.349 . S
C507 H499 0.950 . S
C507 C505 1.327 . S
C508 C496 1.349 1_665 S
C508 H502 0.950 . S
C508 C509 1.327 . S
C509 H503 0.950 . S
C509 C508 1.327 . S
C509 C513 1.429 1_665 S
C510 C493 1.574 . S
C510 H504 0.949 . S
C510 C514 1.368 . S
C511 C492 1.429 1_445 S
C511 C505 1.429 . S
C511 C512 1.523 . S
C512 C493 1.368 . S
C512 C506 1.368 1_445 S
C512 C511 1.523 . S
C513 C497 1.429 . S
C513 C509 1.429 1_445 S
C513 C514 1.523 . S
C514 C498 1.368 1_445 S
C514 C510 1.368 . S
C514 C513 1.523 . S
H515 C490 0.950 . S
H516 C492 0.950 . S
H517 C493 0.949 . S
H518 C495 0.950 . S
H519 C497 0.950 . S
C520 C521 1.349 . S
C520 C522 1.327 . S
C520 H545 0.950 . S
C521 C520 1.349 . S
C521 C537 1.349 . S
C522 C520 1.327 . S
C522 C541 1.429 . S
C522 H546 0.950 . S
C523 C540 1.574 . S
C523 C542 1.368 . S
C523 H547 0.949 . S
H524 C528 0.949 . S
C525 C526 1.349 . S
C525 C527 1.327 . S
C525 H548 0.950 . S
C526 C525 1.349 . S
C526 C538 1.349 . S
C527 C525 1.327 . S
C527 C543 1.429 . S
C527 H549 0.950 . S
C528 H524 0.949 . S
C528 C536 1.574 . S
C528 C544 1.368 . S
H529 C537 0.950 . S
H530 C535 0.950 . S
H531 C536 0.949 . S
H532 C538 0.950 . S
H533 C539 0.950 . S
H534 C540 0.949 . S
C535 H530 0.950 . S
C535 C537 1.327 . S
C535 C541 1.429 . S
C536 C528 1.574 . S
C536 H531 0.949 . S
C536 C542 1.368 . S
C537 C521 1.349 . S
C537 H529 0.950 . S
C537 C535 1.327 . S
C538 C526 1.349 . S
C538 H532 0.950 . S
C538 C539 1.327 . S
C539 H533 0.950 . S
C539 C538 1.327 . S
C539 C543 1.429 . S
C540 C523 1.574 . S
C540 H534 0.949 . S
C540 C544 1.368 . S
C541 C522 1.429 . S
C541 C535 1.429 . S
C541 C542 1.523 . S
C542 C523 1.368 . S
C542 C536 1.368 . S
C542 C541 1.523 . S
C543 C527 1.429 . S
C543 C539 1.429 . S
C543 C544 1.523 . S
C544 C528 1.368 . S
C544 C540 1.368 . S
C544 C543 1.523 . S
H545 C520 0.950 . S
H546 C522 0.950 . S
H547 C523 0.949 . S
H548 C525 0.950 . S
H549 C527 0.950 . S
C550 C551 1.349 . S
C550 C552 1.327 . S
C550 H575 0.950 . S
C551 C550 1.349 . S
C551 C567 1.349 . S
C552 C550 1.327 . S
C552 C571 1.429 . S
C552 H576 0.950 . S
C553 C570 1.574 . S
C553 C572 1.368 . S
C553 H577 0.949 . S
H554 C558 0.949 . S
C555 C556 1.349 . S
C555 C557 1.327 . S
C555 H578 0.950 . S
C556 C555 1.349 . S
C556 C568 1.349 . S
C557 C555 1.327 . S
C557 C573 1.429 . S
C557 H579 0.950 . S
C558 H554 0.949 . S
C558 C566 1.574 . S
C558 C574 1.368 . S
H559 C567 0.950 . S
H560 C565 0.950 . S
H561 C566 0.949 . S
H562 C568 0.950 . S
H563 C569 0.950 . S
H564 C570 0.949 . S
C565 H560 0.950 . S
C565 C567 1.327 . S
C565 C571 1.429 . S
C566 C558 1.574 . S
C566 H561 0.949 . S
C566 C572 1.368 . S
C567 C551 1.349 . S
C567 H559 0.950 . S
C567 C565 1.327 . S
C568 C556 1.349 . S
C568 H562 0.950 . S
C568 C569 1.327 . S
C569 H563 0.950 . S
C569 C568 1.327 . S
C569 C573 1.429 . S
C570 C553 1.574 . S
C570 H564 0.949 . S
C570 C574 1.368 . S
C571 C552 1.429 . S
C571 C565 1.429 . S
C571 C572 1.523 . S
C572 C553 1.368 . S
C572 C566 1.368 . S
C572 C571 1.523 . S
C573 C557 1.429 . S
C573 C569 1.429 . S
C573 C574 1.523 . S
C574 C558 1.368 . S
C574 C570 1.368 . S
C574 C573 1.523 . S
H575 C550 0.950 . S
H576 C552 0.950 . S
H577 C553 0.949 . S
H578 C555 0.950 . S
H579 C557 0.950 . S
C226 C182 1.429 . S
C221 C27 1.458 . S
C251 N6 1.365 . S
C256 C142 1.383 . S
C281 C16 1.441 . S
C286 C195 1.410 . S
C311 N14 1.375 . S
C316 C155 1.370 . S
C341 C57 1.458 . S
C346 C102 1.429 . S
C371 N36 1.365 . S
C376 C62 1.383 . S
C406 C115 1.410 . S
C401 C46 1.441 . S
C436 C75 1.370 . S
C431 N44 1.375 . S
C461 C10 1.388 . S
C466 C81 1.379 . S
C491 C1 1.522 . S
C496 C121 1.513 . S
C526 C161 1.379 . S
C521 C40 1.388 . S
C551 C31 1.522 . S
C556 C201 1.513 . S
