# Generated by pormake.
# Topology gar, (4,6)-cn, num edge types: 1
# Building blocks:
#     Node 0, Type 0, BuildingBlock: NAHDIM_clean_sbu_0, # of connection points: 4
#     Node 1, Type 0, BuildingBlock: NAHDIM_clean_sbu_0, # of connection points: 4
#     Node 2, Type 0, BuildingBlock: NAHDIM_clean_sbu_0, # of connection points: 4
#     Node 3, Type 0, BuildingBlock: NAHDIM_clean_sbu_0, # of connection points: 4
#     Node 4, Type 0, BuildingBlock: NAHDIM_clean_sbu_0, # of connection points: 4
#     Node 5, Type 0, BuildingBlock: NAHDIM_clean_sbu_0, # of connection points: 4
#     Node 6, Type 0, BuildingBlock: NAHDIM_clean_sbu_0, # of connection points: 4
#     Node 7, Type 0, BuildingBlock: NAHDIM_clean_sbu_0, # of connection points: 4
#     Node 8, Type 0, BuildingBlock: NAHDIM_clean_sbu_0, # of connection points: 4
#     Node 9, Type 0, BuildingBlock: NAHDIM_clean_sbu_0, # of connection points: 4
#     Node 10, Type 0, BuildingBlock: NAHDIM_clean_sbu_0, # of connection points: 4
#     Node 11, Type 0, BuildingBlock: NAHDIM_clean_sbu_0, # of connection points: 4
#     Node 12, Type 0, BuildingBlock: NAHDIM_clean_sbu_0, # of connection points: 4
#     Node 13, Type 0, BuildingBlock: NAHDIM_clean_sbu_0, # of connection points: 4
#     Node 14, Type 0, BuildingBlock: NAHDIM_clean_sbu_0, # of connection points: 4
#     Node 15, Type 0, BuildingBlock: NAHDIM_clean_sbu_0, # of connection points: 4
#     Node 16, Type 0, BuildingBlock: NAHDIM_clean_sbu_0, # of connection points: 4
#     Node 17, Type 0, BuildingBlock: NAHDIM_clean_sbu_0, # of connection points: 4
#     Node 18, Type 0, BuildingBlock: NAHDIM_clean_sbu_0, # of connection points: 4
#     Node 19, Type 0, BuildingBlock: NAHDIM_clean_sbu_0, # of connection points: 4
#     Node 20, Type 0, BuildingBlock: NAHDIM_clean_sbu_0, # of connection points: 4
#     Node 21, Type 0, BuildingBlock: NAHDIM_clean_sbu_0, # of connection points: 4
#     Node 22, Type 0, BuildingBlock: NAHDIM_clean_sbu_0, # of connection points: 4
#     Node 23, Type 0, BuildingBlock: NAHDIM_clean_sbu_0, # of connection points: 4
#     Node 24, Type 1, BuildingBlock: BETDIP_clean_sbu_0, # of connection points: 6
#     Node 25, Type 1, BuildingBlock: BETDIP_clean_sbu_0, # of connection points: 6
#     Node 26, Type 1, BuildingBlock: BETDIP_clean_sbu_0, # of connection points: 6
#     Node 27, Type 1, BuildingBlock: BETDIP_clean_sbu_0, # of connection points: 6
#     Node 28, Type 1, BuildingBlock: BETDIP_clean_sbu_0, # of connection points: 6
#     Node 29, Type 1, BuildingBlock: BETDIP_clean_sbu_0, # of connection points: 6
#     Node 30, Type 1, BuildingBlock: BETDIP_clean_sbu_0, # of connection points: 6
#     Node 31, Type 1, BuildingBlock: BETDIP_clean_sbu_0, # of connection points: 6
#     Node 32, Type 1, BuildingBlock: BETDIP_clean_sbu_0, # of connection points: 6
#     Node 33, Type 1, BuildingBlock: BETDIP_clean_sbu_0, # of connection points: 6
#     Node 34, Type 1, BuildingBlock: BETDIP_clean_sbu_0, # of connection points: 6
#     Node 35, Type 1, BuildingBlock: BETDIP_clean_sbu_0, # of connection points: 6
#     Node 36, Type 1, BuildingBlock: BETDIP_clean_sbu_0, # of connection points: 6
#     Node 37, Type 1, BuildingBlock: BETDIP_clean_sbu_0, # of connection points: 6
#     Node 38, Type 1, BuildingBlock: BETDIP_clean_sbu_0, # of connection points: 6
#     Node 39, Type 1, BuildingBlock: BETDIP_clean_sbu_0, # of connection points: 6
#     Edge 40, Type (0, 1), BuildingBlock: XIVTED_clean_linker_0, # of connection points: 2
#     Edge 41, Type (0, 1), BuildingBlock: XIVTED_clean_linker_0, # of connection points: 2
#     Edge 42, Type (0, 1), BuildingBlock: XIVTED_clean_linker_0, # of connection points: 2
#     Edge 43, Type (0, 1), BuildingBlock: XIVTED_clean_linker_0, # of connection points: 2
#     Edge 44, Type (0, 1), BuildingBlock: XIVTED_clean_linker_0, # of connection points: 2
#     Edge 45, Type (0, 1), BuildingBlock: XIVTED_clean_linker_0, # of connection points: 2
#     Edge 46, Type (0, 1), BuildingBlock: XIVTED_clean_linker_0, # of connection points: 2
#     Edge 47, Type (0, 1), BuildingBlock: XIVTED_clean_linker_0, # of connection points: 2
#     Edge 48, Type (0, 1), BuildingBlock: XIVTED_clean_linker_0, # of connection points: 2
#     Edge 49, Type (0, 1), BuildingBlock: XIVTED_clean_linker_0, # of connection points: 2
#     Edge 50, Type (0, 1), BuildingBlock: XIVTED_clean_linker_0, # of connection points: 2
#     Edge 51, Type (0, 1), BuildingBlock: XIVTED_clean_linker_0, # of connection points: 2
#     Edge 52, Type (0, 1), BuildingBlock: XIVTED_clean_linker_0, # of connection points: 2
#     Edge 53, Type (0, 1), BuildingBlock: XIVTED_clean_linker_0, # of connection points: 2
#     Edge 54, Type (0, 1), BuildingBlock: XIVTED_clean_linker_0, # of connection points: 2
#     Edge 55, Type (0, 1), BuildingBlock: XIVTED_clean_linker_0, # of connection points: 2
#     Edge 56, Type (0, 1), BuildingBlock: XIVTED_clean_linker_0, # of connection points: 2
#     Edge 57, Type (0, 1), BuildingBlock: XIVTED_clean_linker_0, # of connection points: 2
#     Edge 58, Type (0, 1), BuildingBlock: XIVTED_clean_linker_0, # of connection points: 2
#     Edge 59, Type (0, 1), BuildingBlock: XIVTED_clean_linker_0, # of connection points: 2
#     Edge 60, Type (0, 1), BuildingBlock: XIVTED_clean_linker_0, # of connection points: 2
#     Edge 61, Type (0, 1), BuildingBlock: XIVTED_clean_linker_0, # of connection points: 2
#     Edge 62, Type (0, 1), BuildingBlock: XIVTED_clean_linker_0, # of connection points: 2
#     Edge 63, Type (0, 1), BuildingBlock: XIVTED_clean_linker_0, # of connection points: 2
#     Edge 64, Type (0, 1), BuildingBlock: XIVTED_clean_linker_0, # of connection points: 2
#     Edge 65, Type (0, 1), BuildingBlock: XIVTED_clean_linker_0, # of connection points: 2
#     Edge 66, Type (0, 1), BuildingBlock: XIVTED_clean_linker_0, # of connection points: 2
#     Edge 67, Type (0, 1), BuildingBlock: XIVTED_clean_linker_0, # of connection points: 2
#     Edge 68, Type (0, 1), BuildingBlock: XIVTED_clean_linker_0, # of connection points: 2
#     Edge 69, Type (0, 1), BuildingBlock: XIVTED_clean_linker_0, # of connection points: 2
#     Edge 70, Type (0, 1), BuildingBlock: XIVTED_clean_linker_0, # of connection points: 2
#     Edge 71, Type (0, 1), BuildingBlock: XIVTED_clean_linker_0, # of connection points: 2
#     Edge 72, Type (0, 1), BuildingBlock: XIVTED_clean_linker_0, # of connection points: 2
#     Edge 73, Type (0, 1), BuildingBlock: XIVTED_clean_linker_0, # of connection points: 2
#     Edge 74, Type (0, 1), BuildingBlock: XIVTED_clean_linker_0, # of connection points: 2
#     Edge 75, Type (0, 1), BuildingBlock: XIVTED_clean_linker_0, # of connection points: 2
#     Edge 76, Type (0, 1), BuildingBlock: XIVTED_clean_linker_0, # of connection points: 2
#     Edge 77, Type (0, 1), BuildingBlock: XIVTED_clean_linker_0, # of connection points: 2
#     Edge 78, Type (0, 1), BuildingBlock: XIVTED_clean_linker_0, # of connection points: 2
#     Edge 79, Type (0, 1), BuildingBlock: XIVTED_clean_linker_0, # of connection points: 2
#     Edge 80, Type (0, 1), BuildingBlock: XIVTED_clean_linker_0, # of connection points: 2
#     Edge 81, Type (0, 1), BuildingBlock: XIVTED_clean_linker_0, # of connection points: 2
#     Edge 82, Type (0, 1), BuildingBlock: XIVTED_clean_linker_0, # of connection points: 2
#     Edge 83, Type (0, 1), BuildingBlock: XIVTED_clean_linker_0, # of connection points: 2
#     Edge 84, Type (0, 1), BuildingBlock: XIVTED_clean_linker_0, # of connection points: 2
#     Edge 85, Type (0, 1), BuildingBlock: XIVTED_clean_linker_0, # of connection points: 2
#     Edge 86, Type (0, 1), BuildingBlock: XIVTED_clean_linker_0, # of connection points: 2
#     Edge 87, Type (0, 1), BuildingBlock: XIVTED_clean_linker_0, # of connection points: 2
#     Edge 88, Type (0, 1), BuildingBlock: XIVTED_clean_linker_0, # of connection points: 2
#     Edge 89, Type (0, 1), BuildingBlock: XIVTED_clean_linker_0, # of connection points: 2
#     Edge 90, Type (0, 1), BuildingBlock: XIVTED_clean_linker_0, # of connection points: 2
#     Edge 91, Type (0, 1), BuildingBlock: XIVTED_clean_linker_0, # of connection points: 2
#     Edge 92, Type (0, 1), BuildingBlock: XIVTED_clean_linker_0, # of connection points: 2
#     Edge 93, Type (0, 1), BuildingBlock: XIVTED_clean_linker_0, # of connection points: 2
#     Edge 94, Type (0, 1), BuildingBlock: XIVTED_clean_linker_0, # of connection points: 2
#     Edge 95, Type (0, 1), BuildingBlock: XIVTED_clean_linker_0, # of connection points: 2
#     Edge 96, Type (0, 1), BuildingBlock: XIVTED_clean_linker_0, # of connection points: 2
#     Edge 97, Type (0, 1), BuildingBlock: XIVTED_clean_linker_0, # of connection points: 2
#     Edge 98, Type (0, 1), BuildingBlock: XIVTED_clean_linker_0, # of connection points: 2
#     Edge 99, Type (0, 1), BuildingBlock: XIVTED_clean_linker_0, # of connection points: 2
#     Edge 100, Type (0, 1), BuildingBlock: XIVTED_clean_linker_0, # of connection points: 2
#     Edge 101, Type (0, 1), BuildingBlock: XIVTED_clean_linker_0, # of connection points: 2
#     Edge 102, Type (0, 1), BuildingBlock: XIVTED_clean_linker_0, # of connection points: 2
#     Edge 103, Type (0, 1), BuildingBlock: XIVTED_clean_linker_0, # of connection points: 2
#     Edge 104, Type (0, 1), BuildingBlock: XIVTED_clean_linker_0, # of connection points: 2
#     Edge 105, Type (0, 1), BuildingBlock: XIVTED_clean_linker_0, # of connection points: 2
#     Edge 106, Type (0, 1), BuildingBlock: XIVTED_clean_linker_0, # of connection points: 2
#     Edge 107, Type (0, 1), BuildingBlock: XIVTED_clean_linker_0, # of connection points: 2
#     Edge 108, Type (0, 1), BuildingBlock: XIVTED_clean_linker_0, # of connection points: 2
#     Edge 109, Type (0, 1), BuildingBlock: XIVTED_clean_linker_0, # of connection points: 2
#     Edge 110, Type (0, 1), BuildingBlock: XIVTED_clean_linker_0, # of connection points: 2
#     Edge 111, Type (0, 1), BuildingBlock: XIVTED_clean_linker_0, # of connection points: 2
#     Edge 112, Type (0, 1), BuildingBlock: XIVTED_clean_linker_0, # of connection points: 2
#     Edge 113, Type (0, 1), BuildingBlock: XIVTED_clean_linker_0, # of connection points: 2
#     Edge 114, Type (0, 1), BuildingBlock: XIVTED_clean_linker_0, # of connection points: 2
#     Edge 115, Type (0, 1), BuildingBlock: XIVTED_clean_linker_0, # of connection points: 2
#     Edge 116, Type (0, 1), BuildingBlock: XIVTED_clean_linker_0, # of connection points: 2
#     Edge 117, Type (0, 1), BuildingBlock: XIVTED_clean_linker_0, # of connection points: 2
#     Edge 118, Type (0, 1), BuildingBlock: XIVTED_clean_linker_0, # of connection points: 2
#     Edge 119, Type (0, 1), BuildingBlock: XIVTED_clean_linker_0, # of connection points: 2
#     Edge 120, Type (0, 1), BuildingBlock: XIVTED_clean_linker_0, # of connection points: 2
#     Edge 121, Type (0, 1), BuildingBlock: XIVTED_clean_linker_0, # of connection points: 2
#     Edge 122, Type (0, 1), BuildingBlock: XIVTED_clean_linker_0, # of connection points: 2
#     Edge 123, Type (0, 1), BuildingBlock: XIVTED_clean_linker_0, # of connection points: 2
#     Edge 124, Type (0, 1), BuildingBlock: XIVTED_clean_linker_0, # of connection points: 2
#     Edge 125, Type (0, 1), BuildingBlock: XIVTED_clean_linker_0, # of connection points: 2
#     Edge 126, Type (0, 1), BuildingBlock: XIVTED_clean_linker_0, # of connection points: 2
#     Edge 127, Type (0, 1), BuildingBlock: XIVTED_clean_linker_0, # of connection points: 2
#     Edge 128, Type (0, 1), BuildingBlock: XIVTED_clean_linker_0, # of connection points: 2
#     Edge 129, Type (0, 1), BuildingBlock: XIVTED_clean_linker_0, # of connection points: 2
#     Edge 130, Type (0, 1), BuildingBlock: XIVTED_clean_linker_0, # of connection points: 2
#     Edge 131, Type (0, 1), BuildingBlock: XIVTED_clean_linker_0, # of connection points: 2
#     Edge 132, Type (0, 1), BuildingBlock: XIVTED_clean_linker_0, # of connection points: 2
#     Edge 133, Type (0, 1), BuildingBlock: XIVTED_clean_linker_0, # of connection points: 2
#     Edge 134, Type (0, 1), BuildingBlock: XIVTED_clean_linker_0, # of connection points: 2
#     Edge 135, Type (0, 1), BuildingBlock: XIVTED_clean_linker_0, # of connection points: 2
# Relax obj value: 0.196
# Max RMSD: 0.303
# Mean RMSD: 0.171
data_MOF--net-gar--node1-NAHDIM_clean_sbu_0--node2-BETDIP_clean_sbu_0--edge1-XIVTED_clean_linker_0
_symmetry_space_group_name_H-M    P1
_symmetry_Int_Tables_number       1
_symmetry_cell_setting            triclinic
loop_
_symmetry_equiv_pos_as_xyz
'x, y, z'
_cell_length_a     65.000363
_cell_length_b     57.510791
_cell_length_c     54.061093
_cell_angle_alpha  97.656698
_cell_angle_beta   99.360671
_cell_angle_gamma 101.54684
loop_
_atom_site_label
_atom_site_type_symbol
_atom_site_fract_x
_atom_site_fract_y
_atom_site_fract_z
_atom_type_partial_charge
C0 C 0.07229 0.30949 0.38686 0.0
O1 O 0.07246 0.31019 0.41127 0.0
O2 O 0.02709 0.28445 0.40809 0.0
Zn3 Zn 0.03017 0.31188 0.38855 0.0
O4 O 0.0329 0.3422 0.4129 0.0
C5 C 0.99151 0.2862 0.35474 0.0
O6 O 0.99798 0.26727 0.36128 0.0
O7 O 0.05559 0.31176 0.37247 0.0
C8 C 0.01569 0.34746 0.4176 0.0
O9 O 0.99716 0.3341 0.40511 0.0
C10 C 0.0319 0.28787 0.43223 0.0
O11 O 0.03893 0.30993 0.44494 0.0
O12 O 1.00369 0.30696 0.36249 0.0
C13 C 0.02498 0.73236 0.76104 0.0
O14 O 0.01838 0.71561 0.74064 0.0
O15 O 0.05029 0.71905 0.70811 0.0
Zn16 Zn 0.05647 0.75032 0.73268 0.0
O17 O 0.04651 0.7757 0.71524 0.0
C18 C 0.09759 0.76224 0.72317 0.0
O19 O 0.0858 0.75679 0.70015 0.0
O20 O 0.04211 0.74815 0.76271 0.0
C21 C 0.05487 0.79761 0.72478 0.0
O22 O 0.06903 0.80283 0.74618 0.0
C23 C 0.04402 0.71819 0.6844 0.0
O24 O 0.03899 0.73722 0.67625 0.0
O25 O 0.08848 0.76101 0.74224 0.0
C26 C 0.56237 0.8247 0.86197 0.0
O27 O 0.56659 0.83301 0.88654 0.0
O28 O 0.52835 0.78796 0.89508 0.0
Zn29 Zn 0.52227 0.81321 0.87479 0.0
O30 O 0.52591 0.84315 0.90029 0.0
C31 C 0.48035 0.78216 0.85304 0.0
O32 O 0.48999 0.76433 0.85537 0.0
O33 O 0.54297 0.81623 0.85098 0.0
C34 C 0.51317 0.85717 0.89785 0.0
O35 O 0.49886 0.85367 0.87675 0.0
C36 C 0.51691 0.78281 0.91138 0.0
O37 O 0.50154 0.79409 0.91423 0.0
O38 O 0.49139 0.80369 0.85778 0.0
C39 C 0.51802 0.24698 0.23049 0.0
O40 O 0.51524 0.24242 0.20555 0.0
O41 O 0.55928 0.21922 0.20251 0.0
Zn42 Zn 0.55969 0.2509 0.22326 0.0
O43 O 0.556 0.27359 0.19888 0.0
C44 C 0.59937 0.24802 0.2512 0.0
O45 O 0.58948 0.22526 0.24826 0.0
O46 O 0.53671 0.24989 0.24355 0.0
C47 C 0.56294 0.29614 0.20591 0.0
O48 O 0.57182 0.30471 0.22986 0.0
C49 C 0.57207 0.22077 0.18701 0.0
O50 O 0.58341 0.24205 0.18567 0.0
O51 O 0.58879 0.26316 0.2445 0.0
C52 C 0.0434 0.78334 0.19768 0.0
O53 O 0.05157 0.76419 0.19588 0.0
O54 O 0.07089 0.76892 0.14504 0.0
Zn55 Zn 0.07605 0.80186 0.16794 0.0
O56 O 0.07485 0.82909 0.14656 0.0
C57 C 0.11957 0.79594 0.18266 0.0
O58 O 0.11443 0.78383 0.15932 0.0
O59 O 0.05167 0.80135 0.18826 0.0
C60 C 0.08667 0.85033 0.15325 0.0
O61 O 0.10134 0.85509 0.17417 0.0
C62 C 0.0531 0.75439 0.1349 0.0
O63 O 0.03518 0.76082 0.13755 0.0
O64 O 0.10593 0.80646 0.19116 0.0
C65 C 0.55452 0.76383 0.4288 0.0
O66 O 0.55848 0.76813 0.4538 0.0
O67 O 0.5146 0.73056 0.46053 0.0
Zn68 Zn 0.51211 0.75773 0.43935 0.0
O69 O 0.51922 0.79084 0.46242 0.0
C70 C 0.46731 0.76154 0.42726 0.0
O71 O 0.47192 0.77161 0.45136 0.0
O72 O 0.53505 0.75863 0.41711 0.0
C73 C 0.5147 0.80846 0.45232 0.0
O74 O 0.50615 0.80461 0.42797 0.0
C75 C 0.50294 0.70922 0.45418 0.0
O76 O 0.48773 0.70431 0.43375 0.0
O77 O 0.48159 0.75313 0.41767 0.0
C78 C 0.53481 0.29509 0.67689 0.0
O79 O 0.53053 0.29207 0.65191 0.0
O80 O 0.56879 0.26551 0.64275 0.0
Zn81 Zn 0.57666 0.29882 0.66526 0.0
O82 O 0.57397 0.32547 0.64352 0.0
C83 C 0.61323 0.28533 0.69415 0.0
O84 O 0.59916 0.26466 0.68992 0.0
O85 O 0.5543 0.29867 0.68813 0.0
C86 C 0.58705 0.34595 0.64752 0.0
O87 O 0.60397 0.35037 0.6659 0.0
C88 C 0.58182 0.25712 0.63085 0.0
O89 O 0.60073 0.27092 0.63165 0.0
O90 O 0.60735 0.30337 0.68618 0.0
C91 C 0.05639 0.26113 0.92838 0.0
O92 O 0.05999 0.26007 0.9528 0.0
O93 O 0.01696 0.23476 0.96162 0.0
Zn94 Zn 0.01456 0.26146 0.93987 0.0
O95 O 0.02114 0.29453 0.9629 0.0
C96 C 0.97126 0.26914 0.92594 0.0
O97 O 0.97758 0.28358 0.94803 0.0
O98 O 0.03753 0.26164 0.91761 0.0
C99 C 0.03232 0.31321 0.95722 0.0
O100 O 0.04096 0.31096 0.93695 0.0
C101 C 1.00578 0.21319 0.95552 0.0
O102 O 0.99085 0.20752 0.93479 0.0
O103 O 0.98403 0.25682 0.91817 0.0
C104 C 0.38103 0.08739 0.28846 0.0
O105 O 0.36644 0.06731 0.28574 0.0
O106 O 0.43417 0.04903 0.25739 0.0
Zn107 Zn 0.4155 0.05205 0.28898 0.0
O108 O 0.43779 0.055 0.32531 0.0
C109 C 0.39548 0.99658 0.27909 0.0
O110 O 0.41225 0.99562 0.26864 0.0
O111 O 0.40079 0.08534 0.28994 0.0
C112 C 0.43353 0.04253 0.34282 0.0
O113 O 0.41453 0.02797 0.33883 0.0
C114 C 0.42776 0.04519 0.23286 0.0
O115 O 0.40721 0.04271 0.22422 0.0
O116 O 0.39271 0.01764 0.28743 0.0
C117 C 0.30846 0.14144 0.52474 0.0
O118 O 0.31092 0.16121 0.5148 0.0
O119 O 0.27062 0.17715 0.55938 0.0
Zn120 Zn 0.26687 0.15288 0.52676 0.0
O121 O 0.27041 0.17095 0.49665 0.0
C122 C 0.22798 0.12833 0.54117 0.0
O123 O 0.23924 0.13902 0.56368 0.0
O124 O 0.29065 0.13368 0.53128 0.0
C125 C 0.25721 0.18125 0.48473 0.0
O126 O 0.23856 0.18061 0.49136 0.0
C127 C 0.28845 0.18729 0.57405 0.0
O128 O 0.30622 0.18334 0.56754 0.0
O129 O 0.23648 0.1308 0.52168 0.0
C130 C 0.16777 0.0109 0.84267 0.0
O131 O 0.14892 1.00545 0.84899 0.0
O132 O 0.13589 0.04966 0.79989 0.0
Zn133 Zn 0.15513 0.05513 0.83459 0.0
O134 O 0.13784 0.05125 0.86221 0.0
C135 C 0.1707 0.10443 0.82815 0.0
O136 O 0.15215 0.10024 0.81249 0.0
O137 O 0.17358 0.03094 0.83546 0.0
C138 C 0.14613 0.06035 0.88529 0.0
O139 O 0.16567 0.07386 0.89084 0.0
C140 C 0.12899 0.02944 0.78513 0.0
O141 O 0.13376 1.01005 0.79266 0.0
O142 O 0.17509 0.08814 0.84052 0.0
C143 C 0.23049 0.90935 0.04245 0.0
O144 O 0.23033 0.88719 0.04608 0.0
O145 O 0.26999 0.88054 0.02338 0.0
Zn146 Zn 0.2525 0.89788 1.00186 0.0
O147 O 0.23309 0.87401 0.97307 0.0
C148 C 0.28379 0.91172 0.97285 0.0
O149 O 0.28017 0.8882 0.96634 0.0
O150 O 0.23797 0.91693 0.02399 0.0
C151 C 0.22892 0.85177 0.97466 0.0
O152 O 0.23394 0.84534 0.99688 0.0
C153 C 0.28596 0.89195 0.04039 0.0
O154 O 0.29099 0.91561 0.04395 0.0
O155 O 0.27295 0.92053 0.98764 0.0
C156 C 0.28022 0.41847 0.08266 0.0
O157 O 0.27551 0.39538 0.08384 0.0
O158 O 0.31743 0.38696 0.11111 0.0
Zn159 Zn 0.32091 0.40641 0.08212 0.0
O160 O 0.31242 0.38364 0.04799 0.0
C161 C 0.35883 0.43073 0.06543 0.0
O162 O 0.34555 0.42409 0.04337 0.0
O163 O 0.29948 0.42831 0.08191 0.0
C164 C 0.3241 0.36982 0.04069 0.0
O165 O 0.34181 0.3694 0.05614 0.0
C166 C 0.33138 0.37826 0.12398 0.0
O167 O 0.3508 0.3816 0.11908 0.0
O168 O 0.35198 0.42584 0.08541 0.0
C169 C 0.8435 0.14158 0.03386 0.0
O170 O 0.84887 0.16396 0.04588 0.0
O171 O 0.81967 0.16225 0.08808 0.0
Zn172 Zn 0.80603 0.13582 0.05826 0.0
O173 O 0.78277 0.14645 0.03681 0.0
C174 C 0.79297 0.10364 0.09308 0.0
O175 O 0.8034 0.12164 0.11123 0.0
O176 O 0.82668 0.12755 0.03685 0.0
C177 C 0.76987 0.15712 0.04647 0.0
O178 O 0.77138 0.16088 0.07128 0.0
C179 C 0.82152 0.18425 0.08582 0.0
O180 O 0.81635 0.18974 0.06314 0.0
O181 O 0.79251 0.10595 0.06997 0.0
C182 C 0.18672 0.45562 0.31681 0.0
O183 O 0.16606 0.44768 0.31525 0.0
O184 O 0.15134 0.50499 0.28461 0.0
Zn185 Zn 0.17487 0.50904 0.32032 0.0
O186 O 0.15972 0.51148 0.35518 0.0
C187 C 0.194 0.5651 0.33109 0.0
O188 O 0.17849 0.56553 0.34387 0.0
O189 O 0.19355 0.47886 0.31888 0.0
C190 C 0.14117 0.51573 0.35744 0.0
O191 O 0.12898 0.51875 0.33676 0.0
C192 C 0.15501 0.51751 0.26694 0.0
O193 O 0.17376 0.53253 0.27062 0.0
O194 O 0.19618 0.54429 0.32098 0.0
C195 C 0.78875 0.9276 0.56007 0.0
O196 O 0.79628 0.92293 0.53928 0.0
O197 O 0.81937 0.88161 0.6086 0.0
Zn198 Zn 0.82159 0.903 0.58105 0.0
O199 O 0.81691 0.88151 0.54652 0.0
C200 C 0.86598 0.91611 0.57621 0.0
O201 O 0.86081 0.89336 0.56533 0.0
O202 O 0.79753 0.92179 0.58051 0.0
C203 C 0.79946 0.86785 0.5339 0.0
O204 O 0.782 0.86641 0.54345 0.0
C205 C 0.82558 0.88937 0.63243 0.0
O206 O 0.83468 0.91231 0.64024 0.0
O207 O 0.85192 0.92499 0.58578 0.0
C208 C 0.92117 0.04925 0.28519 0.0
O209 O 0.93968 0.05649 0.30108 0.0
O210 O 0.9514 1.00714 0.24389 0.0
Zn211 Zn 0.9362 1.00569 0.27364 0.0
O212 O 0.95693 0.01517 0.30745 0.0
C213 C 0.91195 0.96679 0.29165 0.0
O214 O 0.91869 0.98229 0.31302 0.0
O215 O 0.9164 0.02837 0.27172 0.0
C216 C 0.96892 1.00158 0.31504 0.0
O217 O 0.96869 0.98163 0.29987 0.0
C218 C 0.95975 0.02773 0.23942 0.0
O219 O 0.95908 0.04706 0.25494 0.0
O220 O 0.91775 0.9725 0.27149 0.0
C221 C 0.36688 0.6517 0.56519 0.0
O222 O 0.36611 0.67342 0.56064 0.0
O223 O 0.36582 0.689 0.63499 0.0
Zn224 Zn 0.34651 0.66455 0.6066 0.0
O225 O 0.32903 0.68145 0.5845 0.0
C226 C 0.31447 0.65243 0.63469 0.0
O227 O 0.31863 0.67606 0.64029 0.0
O228 O 0.36075 0.64489 0.58473 0.0
C229 C 0.3125 0.66984 0.56842 0.0
O230 O 0.30696 0.64628 0.56612 0.0
C231 C 0.36947 0.71107 0.63263 0.0
O232 O 0.36512 0.71658 0.60983 0.0
O233 O 0.32563 0.64264 0.62108 0.0
C234 C 0.39382 0.52788 0.77011 0.0
O235 O 0.38727 0.50888 0.78024 0.0
O236 O 0.45046 0.51201 0.74345 0.0
Zn237 Zn 0.43189 0.50906 0.76989 0.0
O238 O 0.44958 0.51991 0.80553 0.0
C239 C 0.41812 0.46073 0.78111 0.0
O240 O 0.43575 0.46723 0.79854 0.0
O241 O 0.41224 0.53149 0.76432 0.0
C242 C 0.46812 0.51597 0.81183 0.0
O243 O 0.47643 0.50474 0.79452 0.0
C244 C 0.44357 0.5011 0.72064 0.0
O245 O 0.42458 0.48634 0.71468 0.0
O246 O 0.41371 0.47521 0.76627 0.0
C247 C 0.68716 0.95484 0.81401 0.0
O248 O 0.66636 0.94641 0.81029 0.0
O249 O 0.65156 1.00379 0.78328 0.0
Zn250 Zn 0.67498 1.0079 0.81893 0.0
O251 O 0.65957 1.0094 0.85342 0.0
C252 C 0.69335 0.06398 0.8294 0.0
O253 O 0.67725 0.06425 0.84122 0.0
O254 O 0.69389 0.97818 0.81766 0.0
C255 C 0.64267 0.01726 0.8567 0.0
O256 O 0.63276 0.02519 0.8375 0.0
C257 C 0.65561 0.01558 0.7652 0.0
O258 O 0.67474 0.02973 0.76841 0.0
O259 O 0.6961 0.04325 0.81991 0.0
C260 C 0.80783 0.64025 0.02926 0.0
O261 O 0.81223 0.66382 0.03126 0.0
O262 O 0.77368 0.67162 0.0606 0.0
Zn263 Zn 0.76565 0.6496 0.02584 0.0
O264 O 0.76775 0.6687 0.99615 0.0
C265 C 0.72076 0.63655 0.03173 0.0
O266 O 0.725 0.65949 0.04173 0.0
O267 O 0.78828 0.62914 0.02622 0.0
C268 C 0.75526 0.68167 0.98792 0.0
O269 O 0.73869 0.68342 0.99848 0.0
C270 C 0.77048 0.69265 0.06613 0.0
O271 O 0.7615 0.70266 0.04808 0.0
O272 O 0.73537 0.6281 0.02297 0.0
C273 C 0.87929 0.58583 0.78626 0.0
O274 O 0.8649 0.56574 0.7768 0.0
O275 O 0.93034 0.54894 0.75682 0.0
Zn276 Zn 0.91453 0.55151 0.79098 0.0
O277 O 0.93657 0.55551 0.82752 0.0
C278 C 0.89442 0.49618 0.77971 0.0
O279 O 0.90965 0.49585 0.76647 0.0
O280 O 0.89901 0.58398 0.79273 0.0
C281 C 0.94631 0.5395 0.83515 0.0
O282 O 0.94423 0.51953 0.81909 0.0
C283 C 0.94922 0.54548 0.75511 0.0
O284 O 0.96147 0.54329 0.77613 0.0
O285 O 0.89255 0.51692 0.7904 0.0
C286 C 0.73213 0.4032 0.53753 0.0
O287 O 0.72708 0.37985 0.52937 0.0
O288 O 0.78783 0.39146 0.53114 0.0
Zn289 Zn 0.76811 0.40686 0.5099 0.0
O290 O 0.75473 0.38375 0.47749 0.0
C291 C 0.78761 0.45744 0.51414 0.0
O292 O 0.77826 0.45999 0.5338 0.0
O293 O 0.7475 0.41642 0.53062 0.0
C294 C 0.75307 0.36127 0.47691 0.0
O295 O 0.75722 0.35324 0.49839 0.0
C296 C 0.80143 0.40295 0.55069 0.0
O297 O 0.80324 0.4262 0.55724 0.0
O298 O 0.78526 0.4366 0.50124 0.0
C299 C 0.68525 0.53222 0.3173 0.0
O300 O 0.68983 0.55107 0.3062 0.0
O301 O 0.63256 0.55054 0.29475 0.0
Zn302 Zn 0.65155 0.55448 0.32932 0.0
O303 O 0.63432 0.54911 0.35671 0.0
C304 C 0.66789 0.60396 0.32475 0.0
O305 O 0.64953 0.60027 0.30883 0.0
O306 O 0.66933 0.52976 0.32835 0.0
C307 C 0.64208 0.55862 0.37982 0.0
O308 O 0.66107 0.57337 0.38559 0.0
C309 C 0.62698 0.53092 0.27889 0.0
O310 O 0.63271 0.51161 0.28544 0.0
O311 O 0.67187 0.58731 0.33676 0.0
Tb312 Tb 0.02847 0.01868 0.04133 0.0
Tb313 Tb 0.06899 0.04963 0.07288 0.0
C314 C 0.98977 1.00385 0.02109 0.0
C315 C 0.97379 0.01813 0.0152 0.0
C316 C 0.97393 0.03881 0.03235 0.0
C317 C 0.96069 0.05412 0.02571 0.0
C318 C 0.94701 0.04914 1.00178 0.0
C319 C 0.94653 0.0282 0.98477 0.0
C320 C 0.95994 0.01286 0.99141 0.0
C321 C 0.06209 0.02048 0.01963 0.0
C322 C 0.03956 0.07624 0.04216 0.0
C323 C 0.10772 0.06486 0.09327 0.0
C324 C 0.12408 0.05081 0.09767 0.0
C325 C 0.12208 0.02916 0.08113 0.0
C326 C 0.13599 0.01423 0.08632 0.0
C327 C 0.15244 0.0208 0.10792 0.0
C328 C 0.15496 0.0428 0.12418 0.0
C329 C 0.14062 0.05763 0.11924 0.0
C330 C 0.03531 0.04859 0.09415 0.0
C331 C 0.05754 0.99177 0.07161 0.0
O332 O 0.9971 1.00467 0.04533 0.0
O333 O 1.00505 1.0064 0.00797 0.0
O334 O 0.05764 0.03753 0.03332 0.0
O335 O 0.04661 1.00153 0.0165 0.0
O336 O 0.02491 0.05572 0.03828 0.0
O337 O 0.05941 0.07795 0.054 0.0
O338 O 0.10017 0.06506 0.06934 0.0
O339 O 0.0925 0.06077 0.10632 0.0
O340 O 0.03975 0.03112 0.08105 0.0
O341 O 0.05079 0.06746 0.09681 0.0
O342 O 0.07226 0.0123 0.07573 0.0
O343 O 0.03776 0.99021 0.0598 0.0
H344 H 0.98461 0.04348 0.05076 0.0
H345 H 0.96107 0.06981 0.03945 0.0
H346 H 0.93605 0.02394 0.96624 0.0
H347 H 0.95983 0.99716 0.97781 0.0
H348 H 0.10961 0.02358 0.06422 0.0
H349 H 0.13409 0.99764 0.07316 0.0
H350 H 0.16779 0.04829 0.14074 0.0
H351 H 0.1423 0.07422 0.13227 0.0
Tb352 Tb 0.29756 0.77057 0.27998 0.0
Tb353 Tb 0.29109 0.79092 0.32863 0.0
C354 C 0.29954 0.76102 0.23378 0.0
C355 C 0.30581 0.77522 0.21454 0.0
C356 C 0.30356 0.79907 0.21587 0.0
C357 C 0.30916 0.81222 0.19716 0.0
C358 C 0.31707 0.80171 0.17675 0.0
C359 C 0.31984 0.778 0.17587 0.0
C360 C 0.31427 0.76487 0.19469 0.0
C361 C 0.32636 0.76521 0.31809 0.0
C362 C 0.31528 0.82832 0.2999 0.0
C363 C 0.28894 0.80059 0.37476 0.0
C364 C 0.28404 0.7864 0.39448 0.0
C365 C 0.28773 0.76312 0.3934 0.0
C366 C 0.28353 0.75003 0.41264 0.0
C367 C 0.27557 0.76001 0.43329 0.0
C368 C 0.27132 0.78309 0.43388 0.0
C369 C 0.27552 0.79618 0.41457 0.0
C370 C 0.26221 0.79601 0.29039 0.0
C371 C 0.27345 0.73319 0.30863 0.0
O372 O 0.28212 0.76393 0.24176 0.0
O373 O 0.315 0.76085 0.25242 0.0
O374 O 0.31912 0.7839 0.31614 0.0
O375 O 0.31769 0.74915 0.29803 0.0
O376 O 0.31003 0.80996 0.28051 0.0
O377 O 0.31087 0.82463 0.32232 0.0
O378 O 0.30672 0.79932 0.36681 0.0
O379 O 0.273 0.799 0.35605 0.0
O380 O 0.26951 0.77741 0.29258 0.0
O381 O 0.27091 0.81222 0.31032 0.0
O382 O 0.27921 0.75137 0.32825 0.0
O383 O 0.27735 0.73713 0.28608 0.0
H384 H 0.29704 0.80739 0.23106 0.0
H385 H 0.30648 0.83028 0.19815 0.0
H386 H 0.32604 0.76951 0.16048 0.0
H387 H 0.3163 0.74654 0.19356 0.0
H388 H 0.29429 0.75525 0.37801 0.0
H389 H 0.28732 0.73248 0.41182 0.0
H390 H 0.26502 0.79115 0.44943 0.0
H391 H 0.27239 0.81406 0.4155 0.0
Tb392 Tb 0.56589 0.03242 0.54618 0.0
Tb393 Tb 0.52436 0.02606 0.56102 0.0
C394 C 0.6038 0.03218 0.54055 0.0
C395 C 0.62059 0.01805 0.54256 0.0
C396 C 0.62385 1.0044 0.56199 0.0
C397 C 0.64122 0.99311 0.5645 0.0
C398 C 0.65571 0.99524 0.54764 0.0
C399 C 0.65207 1.0087 0.52807 0.0
C400 C 0.63476 0.01988 0.52558 0.0
C401 C 0.53523 0.04049 0.51019 0.0
C402 C 0.53729 0.97979 0.53922 0.0
C403 C 0.48658 0.02641 0.56729 0.0
C404 C 0.46895 0.03906 0.56194 0.0
C405 C 0.44793 0.02526 0.55352 0.0
C406 C 0.43061 0.03631 0.54956 0.0
C407 C 0.43379 0.06158 0.55395 0.0
C408 C 0.45496 0.07544 0.56203 0.0
C409 C 0.47234 0.06431 0.56603 0.0
C410 C 0.55522 0.01815 0.59698 0.0
C411 C 0.55236 0.07888 0.56579 0.0
O412 O 0.5988 0.0412 0.56165 0.0
O413 O 0.58701 0.0242 0.52225 0.0
O414 O 0.5332 0.02436 0.52416 0.0
O415 O 0.55518 0.05178 0.51567 0.0
O416 O 0.55699 0.99322 0.54432 0.0
O417 O 0.52088 0.98957 0.54154 0.0
O418 O 0.49112 0.01382 0.54782 0.0
O419 O 0.50381 0.03771 0.58389 0.0
O420 O 0.55698 0.03428 0.58302 0.0
O421 O 0.53531 1.00675 0.59157 0.0
O422 O 0.53282 0.06508 0.56138 0.0
O423 O 0.56899 0.0694 0.56381 0.0
H424 H 0.61318 1.00274 0.57543 0.0
H425 H 0.64328 0.98271 0.57963 0.0
H426 H 0.66295 0.01124 0.51497 0.0
H427 H 0.63275 0.03053 0.51063 0.0
H428 H 0.44486 1.00576 0.55021 0.0
H429 H 0.41468 0.02497 0.54291 0.0
H430 H 0.4581 0.09492 0.56582 0.0
H431 H 0.48835 0.07544 0.57261 0.0
Tb432 Tb 0.27408 0.28406 0.79968 0.0
Tb433 Tb 0.31988 0.27598 0.80994 0.0
C434 C 0.23489 0.28316 0.79847 0.0
C435 C 0.21829 0.28178 0.81447 0.0
C436 C 0.21596 0.26513 0.83124 0.0
C437 C 0.19875 0.26275 0.84414 0.0
C438 C 0.18343 0.27687 0.84051 0.0
C439 C 0.18619 0.29385 0.82413 0.0
C440 C 0.20336 0.29623 0.81129 0.0
C441 C 0.3043 0.31869 0.79196 0.0
C442 C 0.30171 0.29459 0.85676 0.0
C443 C 0.35897 0.27669 0.8109 0.0
C444 C 0.37569 0.27991 0.79512 0.0
C445 C 0.39528 0.29633 0.80539 0.0
C446 C 0.41216 0.29854 0.79209 0.0
C447 C 0.40994 0.28428 0.76811 0.0
C448 C 0.39007 0.26817 0.75757 0.0
C449 C 0.37315 0.26599 0.77092 0.0
C450 C 0.28942 0.24131 0.81733 0.0
C451 C 0.29279 0.26588 0.75301 0.0
O452 O 0.24248 0.26399 0.79351 0.0
O453 O 0.24976 0.30309 0.80259 0.0
O454 O 0.30573 0.30623 0.80932 0.0
O455 O 0.28481 0.31319 0.77909 0.0
O456 O 0.28251 0.28959 0.84164 0.0
O457 O 0.31928 0.29286 0.84796 0.0
O458 O 0.35183 0.29569 0.81822 0.0
O459 O 0.34374 0.25698 0.8048 0.0
O460 O 0.28828 0.25394 0.80014 0.0
O461 O 0.30888 0.24659 0.83027 0.0
O462 O 0.31189 0.27197 0.7683 0.0
O463 O 0.27494 0.26663 0.76165 0.0
H464 H 0.22716 0.25363 0.83398 0.0
H465 H 0.19712 0.24934 0.85641 0.0
H466 H 0.17504 0.30537 0.82116 0.0
H467 H 0.20475 0.30914 0.79842 0.0
H468 H 0.39768 0.30728 0.82401 0.0
H469 H 0.42698 0.31147 0.80067 0.0
H470 H 0.38775 0.25674 0.73927 0.0
H471 H 0.35825 0.25311 0.76249 0.0
Tb472 Tb 0.04338 0.04698 0.55908 0.0
Tb473 Tb 0.04765 0.99736 0.54566 0.0
C474 C 0.0456 0.09154 0.56451 0.0
C475 C 0.04149 0.10982 0.54917 0.0
C476 C 0.04409 0.10785 0.52377 0.0
C477 C 0.04109 0.12629 0.51012 0.0
C478 C 0.03539 0.14685 0.5217 0.0
C479 C 0.03215 0.14825 0.54689 0.0
C480 C 0.03524 0.12991 0.5605 0.0
C481 C 0.01123 0.01431 0.56693 0.0
C482 C 0.0302 0.02071 0.50089 0.0
C483 C 0.04636 0.95331 0.54365 0.0
C484 C 0.04439 0.93734 0.56264 0.0
C485 C 0.0279 0.93625 0.57667 0.0
C486 C 0.02721 0.92227 0.59586 0.0
C487 C 0.04315 0.90953 0.60156 0.0
C488 C 0.05952 0.91048 0.58741 0.0
C489 C 0.06005 0.92418 0.568 0.0
C490 C 0.07996 0.0305 0.5388 0.0
C491 C 0.06055 0.02309 0.60332 0.0
O492 O 0.06162 0.08175 0.56088 0.0
O493 O 0.02878 0.0758 0.56671 0.0
O494 O 0.0206 0.01278 0.54821 0.0
O495 O 0.01934 0.03504 0.58132 0.0
O496 O 0.0352 0.04133 0.51714 0.0
O497 O 0.0318 1.00018 0.50843 0.0
O498 O 0.02961 0.96183 0.53613 0.0
O499 O 0.06423 0.96975 0.54814 0.0
O500 O 0.07026 0.03138 0.55717 0.0
O501 O 0.07223 1.00987 0.52403 0.0
O502 O 0.05265 1.00251 0.5874 0.0
O503 O 0.06145 0.04384 0.59528 0.0
H504 H 0.04881 0.09233 0.51468 0.0
H505 H 0.04383 0.12478 0.4908 0.0
H506 H 0.02734 0.16362 0.55616 0.0
H507 H 0.03298 0.13154 0.58004 0.0
H508 H 0.01574 0.94648 0.57317 0.0
H509 H 0.01452 0.92189 0.60665 0.0
H510 H 0.07186 0.90057 0.59134 0.0
H511 H 0.07293 0.92486 0.55746 0.0
Tb512 Tb 0.28199 0.74989 0.78747 0.0
Tb513 Tb 0.29601 0.80368 0.8075 0.0
C514 C 0.27341 0.70905 0.76003 0.0
C515 C 0.28532 0.69013 0.75653 0.0
C516 C 0.3075 0.69522 0.76548 0.0
C517 C 0.31865 0.67692 0.76346 0.0
C518 C 0.30777 0.65315 0.75262 0.0
C519 C 0.28555 0.64818 0.74336 0.0
C520 C 0.27442 0.66659 0.74528 0.0
C521 C 0.2674 0.7652 0.8277 0.0
C522 C 0.32427 0.76785 0.82819 0.0
C523 C 0.30391 0.84428 0.83514 0.0
C524 C 0.29153 0.86289 0.83959 0.0
C525 C 0.27734 0.86128 0.8567 0.0
C526 C 0.26489 0.87828 0.85969 0.0
C527 C 0.26647 0.89733 0.84577 0.0
C528 C 0.28109 0.89928 0.82922 0.0
C529 C 0.29354 0.88234 0.82627 0.0
C530 C 0.31084 0.78854 0.76727 0.0
C531 C 0.25402 0.78588 0.76654 0.0
O532 O 0.28086 0.7291 0.75217 0.0
O533 O 0.26835 0.71294 0.78245 0.0
O534 O 0.26999 0.77563 0.8092 0.0
O535 O 0.2715 0.74404 0.82334 0.0
O536 O 0.31308 0.75035 0.80962 0.0
O537 O 0.31901 0.78903 0.83202 0.0
O538 O 0.29775 0.824 0.84326 0.0
O539 O 0.30879 0.84079 0.81255 0.0
O540 O 0.30805 0.77802 0.7857 0.0
O541 O 0.30688 0.80976 0.77193 0.0
O542 O 0.26498 0.80318 0.78542 0.0
O543 O 0.25924 0.76468 0.76262 0.0
H544 H 0.31614 0.71324 0.77446 0.0
H545 H 0.3357 0.68125 0.77111 0.0
H546 H 0.27678 0.63008 0.73474 0.0
H547 H 0.25727 0.66237 0.73833 0.0
H548 H 0.27566 0.84675 0.8676 0.0
H549 H 0.25405 0.87649 0.87291 0.0
H550 H 0.28255 0.91356 0.81799 0.0
H551 H 0.30448 0.88424 0.81316 0.0
Tb552 Tb 0.5276 0.04016 0.03551 0.0
Tb553 Tb 0.55892 0.0221 0.06975 0.0
C554 C 0.49503 0.04558 0.00667 0.0
C555 C 0.47223 0.03403 1.00135 0.0
C556 C 0.46527 0.01182 0.00883 0.0
C557 C 0.44387 0.99959 1.00144 0.0
C558 C 0.4291 1.00947 0.98663 0.0
C559 C 0.43601 0.03211 0.97989 0.0
C560 C 0.45751 0.04426 0.98711 0.0
C561 C 0.55916 0.07399 0.06409 0.0
C562 C 0.5177 0.03034 0.09078 0.0
C563 C 0.59144 0.01789 0.09952 0.0
C564 C 0.61278 0.01342 0.09911 0.0
C565 C 0.62415 1.00759 0.12085 0.0
C566 C 0.64565 1.00681 0.12248 0.0
C567 C 0.65609 0.01194 0.10235 0.0
C568 C 0.64418 0.01631 0.07994 0.0
C569 C 0.62268 0.01705 0.07834 0.0
C570 C 0.52702 0.98814 0.04155 0.0
C571 C 0.56827 0.03026 0.01323 0.0
O572 O 0.50735 0.03153 0.99988 0.0
O573 O 0.50284 0.05858 0.02924 0.0
O574 O 0.54938 0.05519 0.07025 0.0
O575 O 0.5503 0.07495 0.04109 0.0
O576 O 0.50948 0.03047 0.0664 0.0
O577 O 0.5382 0.02975 0.09711 0.0
O578 O 0.58847 0.03842 0.09335 0.0
O579 O 0.57514 0.99992 0.08949 0.0
O580 O 0.53673 1.0069 0.03522 0.0
O581 O 0.53626 0.98727 0.06446 0.0
O582 O 0.57548 0.02517 0.03612 0.0
O583 O 0.5494 0.03611 0.00867 0.0
H584 H 0.47648 1.00371 0.01989 0.0
H585 H 0.43887 0.98236 0.00727 0.0
H586 H 0.42493 0.04007 0.96845 0.0
H587 H 0.46273 0.06136 0.98112 0.0
H588 H 0.61665 1.00465 0.13701 0.0
H589 H 0.65432 1.00313 0.13985 0.0
H590 H 0.65177 0.02067 0.06421 0.0
H591 H 0.61412 0.0216 0.06141 0.0
Tb592 Tb 0.27295 0.26255 0.29503 0.0
Tb593 Tb 0.31419 0.2959 0.31219 0.0
C594 C 0.24011 0.22971 0.29122 0.0
C595 C 0.21905 0.22988 0.29802 0.0
C596 C 0.2165 0.22996 0.32334 0.0
C597 C 0.19791 0.23438 0.33069 0.0
C598 C 0.18128 0.23839 0.31281 0.0
C599 C 0.18311 0.23633 0.2871 0.0
C600 C 0.20184 0.23211 0.27976 0.0
C601 C 0.28677 0.28415 0.25898 0.0
C602 C 0.27101 0.3175 0.30948 0.0
C603 C 0.34794 0.32773 0.31781 0.0
C604 C 0.36993 0.32527 0.31777 0.0
C605 C 0.38283 0.34012 0.30507 0.0
C606 C 0.40166 0.3344 0.29954 0.0
C607 C 0.40777 0.31376 0.30668 0.0
C608 C 0.3956 0.29993 0.32101 0.0
C609 C 0.37674 0.30556 0.3264 0.0
C610 C 0.3001 0.27374 0.34783 0.0
C611 C 0.31617 0.24083 0.29756 0.0
O612 O 0.25642 0.23458 0.31028 0.0
O613 O 0.24448 0.24085 0.27249 0.0
O614 O 0.29811 0.27625 0.2758 0.0
O615 O 0.26692 0.27839 0.26101 0.0
O616 O 0.26007 0.29473 0.30662 0.0
O617 O 0.29214 0.32168 0.31053 0.0
O618 O 0.33488 0.3194 0.29593 0.0
O619 O 0.33957 0.32102 0.33687 0.0
O620 O 0.28899 0.28223 0.33135 0.0
O621 O 0.31991 0.27873 0.3454 0.0
O622 O 0.32749 0.26356 0.30258 0.0
O623 O 0.29487 0.23676 0.29442 0.0
H624 H 0.22926 0.22777 0.3378 0.0
H625 H 0.19713 0.23596 0.35069 0.0
H626 H 0.17035 0.23873 0.27276 0.0
H627 H 0.20318 0.23159 0.25999 0.0
H628 H 0.37769 0.35524 0.29808 0.0
H629 H 0.41089 0.34544 0.28863 0.0
H630 H 0.3998 0.28377 0.32648 0.0
H631 H 0.36685 0.29363 0.33591 0.0
Tb632 Tb 0.54003 0.55533 0.05559 0.0
Tb633 Tb 0.54097 0.50166 0.04036 0.0
C634 C 0.54246 0.59981 0.06008 0.0
C635 C 0.5411 0.61726 0.04273 0.0
C636 C 0.55529 0.63992 0.04898 0.0
C637 C 0.55341 0.65726 0.03348 0.0
C638 C 0.53717 0.6522 0.01164 0.0
C639 C 0.52332 0.62927 1.00506 0.0
C640 C 0.52533 0.61188 0.02041 0.0
C641 C 0.5074 0.5228 0.06235 0.0
C642 C 0.52773 0.52996 0.99695 0.0
C643 C 0.52934 0.45681 0.03495 0.0
C644 C 0.53736 0.43884 0.04803 0.0
C645 C 0.52436 0.41577 0.04535 0.0
C646 C 0.53038 0.39968 0.06074 0.0
C647 C 0.54948 0.40652 0.07909 0.0
C648 C 0.56291 0.42937 0.08091 0.0
C649 C 0.55686 0.44545 0.06552 0.0
C650 C 0.579 0.52989 0.04056 0.0
C651 C 0.55941 0.52893 0.09748 0.0
O652 O 0.55924 0.59035 0.06147 0.0
O653 O 0.52476 0.58391 0.05927 0.0
O654 O 0.51694 0.52174 0.0438 0.0
O655 O 0.51588 0.54297 0.07771 0.0
O656 O 0.53271 0.55027 0.01377 0.0
O657 O 0.52796 0.50865 1.00347 0.0
O658 O 0.5215 0.47168 0.04929 0.0
O659 O 0.54179 0.46779 0.02119 0.0
O660 O 0.56228 0.53562 0.04576 0.0
O661 O 0.57458 0.50653 0.03525 0.0
O662 O 0.55135 0.50811 0.08178 0.0
O663 O 0.55904 0.55002 0.09034 0.0
H664 H 0.56757 0.64434 0.0661 0.0
H665 H 0.56421 0.67487 0.03901 0.0
H666 H 0.51085 0.62485 0.98813 0.0
H667 H 0.51431 0.59441 0.01506 0.0
H668 H 0.50914 0.41058 0.03212 0.0
H669 H 0.51954 0.38235 0.05912 0.0
H670 H 0.57783 0.43505 0.09465 0.0
H671 H 0.56698 0.46335 0.06793 0.0
Tb672 Tb 0.79045 0.25632 0.27587 0.0
Tb673 Tb 0.80123 0.31085 0.28332 0.0
C674 C 0.7821 0.21208 0.25879 0.0
C675 C 0.79495 0.19406 0.26219 0.0
C676 C 0.79282 0.17467 0.24259 0.0
C677 C 0.80625 0.15856 0.24503 0.0
C678 C 0.82203 0.16169 0.26713 0.0
C679 C 0.82385 0.18102 0.28685 0.0
C680 C 0.81053 0.19712 0.28434 0.0
C681 C 0.78446 0.27838 0.319 0.0
C682 C 0.83631 0.28226 0.30455 0.0
C683 C 0.81063 0.35494 0.3018 0.0
C684 C 0.79832 0.3733 0.30624 0.0
C685 C 0.77589 0.36695 0.30168 0.0
C686 C 0.76423 0.3847 0.30473 0.0
C687 C 0.77483 0.40909 0.31227 0.0
C688 C 0.79735 0.41528 0.31719 0.0
C689 C 0.80899 0.39749 0.3142 0.0
C690 C 0.80774 0.28874 0.24057 0.0
C691 C 0.75531 0.28411 0.25539 0.0
O692 O 0.78949 0.22859 0.24599 0.0
O693 O 0.77605 0.22118 0.27919 0.0
O694 O 0.78083 0.28448 0.29758 0.0
O695 O 0.79038 0.25809 0.31662 0.0
O696 O 0.82394 0.26163 0.292 0.0
O697 O 0.83007 0.30291 0.30487 0.0
O698 O 0.80831 0.33783 0.31556 0.0
O699 O 0.80992 0.34659 0.27787 0.0
O700 O 0.81106 0.28284 0.26209 0.0
O701 O 0.80179 0.309 0.24255 0.0
O702 O 0.76693 0.30422 0.27009 0.0
O703 O 0.76294 0.26445 0.2522 0.0
H704 H 0.78106 0.17226 0.22523 0.0
H705 H 0.80462 0.14406 0.22935 0.0
H706 H 0.83559 0.18375 0.30427 0.0
H707 H 0.81259 0.21214 0.29962 0.0
H708 H 0.7674 0.34835 0.29536 0.0
H709 H 0.74691 0.37937 0.30049 0.0
H710 H 0.80596 0.43388 0.32332 0.0
H711 H 0.82632 0.40264 0.3178 0.0
Tb712 Tb 0.02665 0.53714 0.53773 0.0
Tb713 Tb 0.06291 0.52866 0.57369 0.0
C714 C 0.99129 0.53396 0.50921 0.0
C715 C 0.97055 0.53988 0.51067 0.0
C716 C 0.96111 0.53696 0.53194 0.0
C717 C 0.94011 0.53937 0.53139 0.0
C718 C 0.92825 0.54483 0.50958 0.0
C719 C 0.93837 0.54945 0.48907 0.0
C720 C 0.95934 0.5469 0.48961 0.0
C721 C 0.0537 0.57692 0.56326 0.0
C722 C 0.02085 0.53248 0.5963 0.0
C723 C 0.09777 0.53241 0.60359 0.0
C724 C 0.12078 0.54113 0.60511 0.0
C725 C 0.12851 0.56024 0.59298 0.0
C726 C 0.15037 0.57081 0.59788 0.0
C727 C 0.16477 0.56227 0.61477 0.0
C728 C 0.15708 0.54229 0.62576 0.0
C729 C 0.13519 0.53187 0.62103 0.0
C730 C 0.03472 0.48951 0.54972 0.0
C731 C 0.06834 0.53234 0.5153 0.0
O732 O 0.99592 0.51677 0.52128 0.0
O733 O 1.00764 0.55217 0.51196 0.0
O734 O 0.04754 0.55766 0.57116 0.0
O735 O 0.04371 0.57444 0.53995 0.0
O736 O 0.01191 0.53441 0.5727 0.0
O737 O 0.04115 0.53058 0.60116 0.0
O738 O 0.08659 0.54896 0.60377 0.0
O739 O 0.08816 0.51288 0.5872 0.0
O740 O 0.04151 0.50797 0.54074 0.0
O741 O 0.04505 0.492 0.57291 0.0
O742 O 0.0782 0.53527 0.53969 0.0
O743 O 0.04721 0.52986 0.51001 0.0
H744 H 0.96956 0.53167 0.54847 0.0
H745 H 0.93277 0.53541 0.5474 0.0
H746 H 0.92976 0.55401 0.47217 0.0
H747 H 0.96649 0.54946 0.47312 0.0
H748 H 0.1176 0.56755 0.58051 0.0
H749 H 0.15597 0.58597 0.58888 0.0
H750 H 0.16786 0.53543 0.63889 0.0
H751 H 0.12942 0.51716 0.63058 0.0
Tb752 Tb 0.76999 0.78317 0.2964 0.0
Tb753 Tb 0.81641 0.77668 0.30779 0.0
C754 C 0.73061 0.78106 0.2949 0.0
C755 C 0.71384 0.77782 0.31066 0.0
C756 C 0.69515 0.75963 0.30151 0.0
C757 C 0.67806 0.75744 0.31449 0.0
C758 C 0.67914 0.77345 0.33701 0.0
C759 C 0.69814 0.79131 0.34653 0.0
C760 C 0.71528 0.79349 0.33351 0.0
C761 C 0.80012 0.81918 0.29133 0.0
C762 C 0.7963 0.79328 0.35376 0.0
C763 C 0.85613 0.78057 0.30995 0.0
C764 C 0.87293 0.77868 0.29458 0.0
C765 C 0.87508 0.79113 0.27409 0.0
C766 C 0.89269 0.79122 0.26201 0.0
C767 C 0.90859 0.7789 0.27013 0.0
C768 C 0.90604 0.76606 0.29029 0.0
C769 C 0.88849 0.76599 0.30231 0.0
C770 C 0.78641 0.74066 0.31316 0.0
C771 C 0.7895 0.76549 0.25009 0.0
O772 O 0.73842 0.76236 0.2884 0.0
O773 O 0.74532 0.80121 0.30036 0.0
O774 O 0.80115 0.80602 0.30804 0.0
O775 O 0.78097 0.81358 0.27751 0.0
O776 O 0.77736 0.78651 0.3381 0.0
O777 O 0.81445 0.79376 0.34546 0.0
O778 O 0.84654 0.79844 0.30828 0.0
O779 O 0.84299 0.76065 0.31176 0.0
O780 O 0.78527 0.75384 0.29645 0.0
O781 O 0.80565 0.74629 0.32685 0.0
O782 O 0.80832 0.76935 0.26582 0.0
O783 O 0.77172 0.76795 0.2581 0.0
H784 H 0.69357 0.74732 0.28394 0.0
H785 H 0.66394 0.74316 0.30677 0.0
H786 H 0.69958 0.80411 0.36368 0.0
H787 H 0.72944 0.80775 0.34108 0.0
H788 H 0.8634 0.80118 0.2677 0.0
H789 H 0.89388 0.80105 0.24636 0.0
H790 H 0.91799 0.75666 0.29745 0.0
H791 H 0.88741 0.75652 0.31826 0.0
Tb792 Tb 0.79824 0.26995 0.7806 0.0
Tb793 Tb 0.79127 0.28992 0.82907 0.0
C794 C 0.80056 0.2615 0.73442 0.0
C795 C 0.80782 0.27652 0.71622 0.0
C796 C 0.80519 0.30026 0.71782 0.0
C797 C 0.81233 0.31447 0.7006 0.0
C798 C 0.8222 0.3052 0.68142 0.0
C799 C 0.82509 0.28151 0.6801 0.0
C800 C 0.81799 0.2673 0.69744 0.0
C801 C 0.82751 0.26584 0.81878 0.0
C802 C 0.81576 0.32762 0.80125 0.0
C803 C 0.7884 0.29864 0.87507 0.0
C804 C 0.77789 0.28456 0.89213 0.0
C805 C 0.77746 0.25993 0.89054 0.0
C806 C 0.7669 0.24653 0.90625 0.0
C807 C 0.75661 0.25749 0.92396 0.0
C808 C 0.757 0.28217 0.92549 0.0
C809 C 0.7675 0.29558 0.90958 0.0
C810 C 0.7619 0.29341 0.79046 0.0
C811 C 0.77369 0.2321 0.80849 0.0
O812 O 0.7832 0.2648 0.74232 0.0
O813 O 0.81551 0.25988 0.75297 0.0
O814 O 0.81971 0.28414 0.81667 0.0
O815 O 0.81909 0.24944 0.79892 0.0
O816 O 0.81007 0.30959 0.78149 0.0
O817 O 0.81194 0.32337 0.82373 0.0
O818 O 0.80463 0.29163 0.86744 0.0
O819 O 0.77547 0.30376 0.85653 0.0
O820 O 0.76984 0.27535 0.79319 0.0
O821 O 0.77028 0.31014 0.81002 0.0
O822 O 0.77827 0.25043 0.82789 0.0
O823 O 0.77863 0.23597 0.78634 0.0
H824 H 0.79735 0.30776 0.73214 0.0
H825 H 0.80948 0.33248 0.70184 0.0
H826 H 0.83273 0.27394 0.6656 0.0
H827 H 0.82032 0.24908 0.69612 0.0
H828 H 0.78544 0.25101 0.87734 0.0
H829 H 0.76736 0.22769 0.90501 0.0
H830 H 0.74923 0.29108 0.93898 0.0
H831 H 0.76755 0.31456 0.91092 0.0
Tb832 Tb 0.76923 0.75875 0.79256 0.0
Tb833 Tb 0.81252 0.79421 0.81737 0.0
C834 C 0.73282 0.73395 0.79201 0.0
C835 C 0.71157 0.73944 0.78886 0.0
C836 C 0.69681 0.7285 0.80238 0.0
C837 C 0.67903 0.73786 0.80557 0.0
C838 C 0.6757 0.7582 0.79512 0.0
C839 C 0.68957 0.76802 0.7799 0.0
C840 C 0.70754 0.7588 0.77695 0.0
C841 C 0.78532 0.78231 0.75836 0.0
C842 C 0.77103 0.81675 0.8091 0.0
C843 C 0.85113 0.81566 0.82547 0.0
C844 C 0.87046 0.80633 0.82379 0.0
C845 C 0.87037 0.78817 0.80362 0.0
C846 C 0.88808 0.77803 0.80304 0.0
C847 C 0.90627 0.78575 0.82265 0.0
C848 C 0.90644 0.80413 0.84272 0.0
C849 C 0.88863 0.81429 0.8433 0.0
C850 C 0.79005 0.77397 0.84842 0.0
C851 C 0.81107 0.7364 0.79757 0.0
O852 O 0.74587 0.74617 0.81281 0.0
O853 O 0.74201 0.73312 0.77206 0.0
O854 O 0.79246 0.78397 0.78171 0.0
O855 O 0.76789 0.7654 0.75291 0.0
O856 O 0.75956 0.79387 0.80293 0.0
O857 O 0.79246 0.82137 0.81395 0.0
O858 O 0.83784 0.81388 0.80392 0.0
O859 O 0.84123 0.80928 0.84359 0.0
O860 O 0.79226 0.76447 0.82691 0.0
O861 O 0.80144 0.796 0.85373 0.0
O862 O 0.82247 0.75895 0.80728 0.0
O863 O 0.78974 0.73208 0.79067 0.0
H864 H 0.69984 0.71378 0.81199 0.0
H865 H 0.66849 0.73004 0.81738 0.0
H866 H 0.68739 0.78388 0.77193 0.0
H867 H 0.719 0.76779 0.76684 0.0
H868 H 0.85654 0.78157 0.78834 0.0
H869 H 0.88757 0.76427 0.78704 0.0
H870 H 0.92019 0.81038 0.85815 0.0
H871 H 0.88893 0.82811 0.85915 0.0
Tb872 Tb 0.52298 0.51029 0.53217 0.0
Tb873 Tb 0.56296 0.54082 0.56569 0.0
C874 C 0.48453 0.4948 0.51063 0.0
C875 C 0.46795 0.50846 0.50575 0.0
C876 C 0.46929 0.52989 0.52234 0.0
C877 C 0.45522 0.54453 0.51673 0.0
C878 C 0.43926 0.53787 0.49466 0.0
C879 C 0.43733 0.51607 0.47836 0.0
C880 C 0.45186 0.50154 0.48373 0.0
C881 C 0.55733 0.5133 0.51177 0.0
C882 C 0.53409 0.5684 0.53577 0.0
C883 C 0.60144 0.55478 0.587 0.0
C884 C 0.61723 0.53973 0.58904 0.0
C885 C 0.61625 0.52136 0.56867 0.0
C886 C 0.62857 0.50441 0.57154 0.0
C887 C 0.64223 0.50544 0.59478 0.0
C888 C 0.64386 0.52428 0.61496 0.0
C889 C 0.63125 0.54124 0.61216 0.0
C890 C 0.52863 0.5378 0.58614 0.0
C891 C 0.55213 0.48288 0.56177 0.0
O892 O 0.49161 0.49447 0.53465 0.0
O893 O 0.50011 0.4994 0.49818 0.0
O894 O 0.55252 0.52987 0.52577 0.0
O895 O 0.54185 0.49423 0.50758 0.0
O896 O 0.51953 0.54768 0.53053 0.0
O897 O 0.5537 0.56999 0.54825 0.0
O898 O 0.59419 0.55798 0.56392 0.0
O899 O 0.58605 0.54928 0.59953 0.0
O900 O 0.53346 0.52123 0.57214 0.0
O901 O 0.54418 0.55684 0.59037 0.0
O902 O 0.56678 0.50345 0.56622 0.0
O903 O 0.53232 0.48143 0.55006 0.0
H904 H 0.4814 0.53554 0.53959 0.0
H905 H 0.45662 0.56099 0.52988 0.0
H906 H 0.42484 0.51051 0.46145 0.0
H907 H 0.45068 0.4851 0.47067 0.0
H908 H 0.60542 0.51956 0.55067 0.0
H909 H 0.62738 0.49039 0.55549 0.0
H910 H 0.65445 0.52551 0.63299 0.0
H911 H 0.632 0.55508 0.62819 0.0
Tb912 Tb 0.06891 0.5381 0.05013 0.0
Tb913 Tb 0.02363 0.52571 0.06179 0.0
C914 C 0.10902 0.54401 0.05424 0.0
C915 C 0.12615 0.53103 0.06081 0.0
C916 C 0.1469 0.54422 0.07214 0.0
C917 C 0.16388 0.53262 0.07626 0.0
C918 C 0.16053 0.50747 0.06906 0.0
C919 C 0.13952 0.49424 0.05831 0.0
C920 C 0.12254 0.50587 0.05428 0.0
C921 C 0.03967 0.53926 0.00835 0.0
C922 C 0.04251 0.48394 0.03886 0.0
C923 C 0.9847 0.5228 0.06389 0.0
C924 C 0.96751 0.53612 0.0586 0.0
C925 C 0.94793 0.524 0.04272 0.0
C926 C 0.93086 0.53544 0.03863 0.0
C927 C 0.93285 0.55936 0.05041 0.0
C928 C 0.95264 0.57162 0.06604 0.0
C929 C 0.96974 0.56015 0.07011 0.0
C930 C 0.05492 0.51906 0.09796 0.0
C931 C 0.0485 0.58109 0.06709 0.0
O932 O 0.09988 0.5518 0.07254 0.0
O933 O 0.09515 0.53486 0.03311 0.0
O934 O 0.0367 0.53465 0.02999 0.0
O935 O 0.06027 0.54394 0.01032 0.0
O936 O 0.06158 0.49885 0.04611 0.0
O937 O 0.02464 0.49129 0.04028 0.0
O938 O 0.99122 0.51294 0.04419 0.0
O939 O 1.00054 0.5323 0.08318 0.0
O940 O 0.05589 0.53555 0.08436 0.0
O941 O 0.03531 0.50654 0.09212 0.0
O942 O 0.03037 0.56512 0.0659 0.0
O943 O 0.06622 0.5747 0.06269 0.0
H944 H 0.15009 0.56363 0.07736 0.0
H945 H 0.17966 0.54343 0.08503 0.0
H946 H 0.13623 0.47492 0.05225 0.0
H947 H 0.1067 0.49525 0.04547 0.0
H948 H 0.94573 0.50547 0.03364 0.0
H949 H 0.91609 0.52549 0.02613 0.0
H950 H 0.95479 0.58994 0.07569 0.0
H951 H 0.98457 0.56999 0.08259 0.0
H952 H 0.03958 0.21581 0.99482 0.0
H953 H 1.00184 0.07788 0.01171 0.0
H954 H 0.98228 0.16694 0.95058 0.0
H955 H 0.06379 0.12263 0.04799 0.0
H956 H 0.99306 0.11161 0.99246 0.0
H957 H 0.04734 0.18335 0.0175 0.0
C958 C 0.02854 0.19834 0.98997 0.0
C959 C 1.01025 0.19419 0.97064 0.0
C960 C 1.00855 0.11414 1.00472 0.0
C961 C 0.01908 0.15682 0.99663 0.0
C962 C 0.01357 0.09485 0.01588 0.0
C963 C 0.03363 0.09728 0.03162 0.0
C964 C 0.02364 0.13624 0.00926 0.0
C965 C 0.04815 0.1198 0.036 0.0
C966 C 0.03303 0.17977 1.00289 0.0
C967 C 0.9966 0.17107 0.96522 0.0
N968 N 0.04289 0.13834 0.02488 0.0
N969 N 1.00129 0.15336 0.97808 0.0
H970 H 0.14727 0.76751 0.17278 0.0
H971 H 0.23972 0.83125 0.29315 0.0
H972 H 0.14026 0.82472 0.22885 0.0
H973 H 0.23785 0.76202 0.24978 0.0
H974 H 0.20515 0.83148 0.26741 0.0
H975 H 0.18188 0.76754 0.19832 0.0
C976 C 0.153 0.78017 0.19046 0.0
C977 C 0.1407 0.79618 0.19859 0.0
C978 C 0.21227 0.81624 0.26348 0.0
C979 C 0.18073 0.79633 0.22804 0.0
C980 C 0.23209 0.81611 0.2781 0.0
C981 C 0.24174 0.79654 0.27368 0.0
C982 C 0.20199 0.79678 0.24394 0.0
C983 C 0.23103 0.77747 0.25388 0.0
C984 C 0.17281 0.78008 0.2051 0.0
C985 C 0.14908 0.81203 0.2218 0.0
N986 N 0.21179 0.7781 0.23973 0.0
N987 N 0.16859 0.81179 0.23561 0.0
H988 H 0.54391 0.82948 0.49656 0.0
H989 H 0.49971 0.94947 0.51369 0.0
H990 H 0.49285 0.84296 0.44263 0.0
H991 H 0.56603 0.95044 0.54159 0.0
H992 H 0.49399 0.90717 0.49441 0.0
H993 H 0.54944 0.87085 0.51985 0.0
C994 C 0.53379 0.84105 0.48975 0.0
C995 C 0.51797 0.83283 0.46756 0.0
C996 C 0.50976 0.91661 0.50489 0.0
C997 C 0.52396 0.87978 0.49421 0.0
C998 C 0.51304 0.94074 0.51603 0.0
C999 C 0.53342 0.95361 0.52922 0.0
C1000 C 0.52687 0.90501 0.50724 0.0
C1001 C 0.55008 0.94127 0.53147 0.0
C1002 C 0.53701 0.86463 0.50295 0.0
C1003 C 0.50534 0.8486 0.45951 0.0
N1004 N 0.54644 0.91763 0.52064 0.0
N1005 N 0.50852 0.87119 0.47288 0.0
H1006 H 0.53664 0.29918 0.72881 0.0
H1007 H 0.40929 0.28195 0.71668 0.0
H1008 H 0.49207 0.28836 0.65757 0.0
H1009 H 0.45287 0.29046 0.78831 0.0
H1010 H 0.4396 0.2846 0.69494 0.0
H1011 H 0.50649 0.29671 0.75121 0.0
C1012 C 0.52056 0.29632 0.71787 0.0
C1013 C 0.51697 0.29397 0.69122 0.0
C1014 C 0.44256 0.28591 0.71543 0.0
C1015 C 0.48231 0.2911 0.71676 0.0
C1016 C 0.42518 0.28425 0.72788 0.0
C1017 C 0.42837 0.28599 0.75447 0.0
C1018 C 0.46344 0.28932 0.72954 0.0
C1019 C 0.44954 0.28937 0.76787 0.0
C1020 C 0.50333 0.29489 0.73067 0.0
C1021 C 0.49572 0.29027 0.6781 0.0
N1022 N 0.46619 0.2909 0.7553 0.0
N1023 N 0.4793 0.28895 0.69095 0.0
H1024 H 0.07796 0.84404 0.73202 0.0
H1025 H 1.0097 0.87631 0.60977 0.0
H1026 H 0.02249 0.79449 0.68448 0.0
H1027 H 0.07597 0.91071 0.64042 0.0
H1028 H 1.01038 0.85115 0.64302 0.0
H1029 H 0.07335 0.87381 0.70446 0.0
C1030 C 0.06463 0.83955 0.71601 0.0
C1031 C 0.05071 0.81669 0.71032 0.0
C1032 C 0.02471 0.86433 0.64252 0.0
C1033 C 0.04538 0.85058 0.67889 0.0
C1034 C 0.0243 0.87869 0.62369 0.0
C1035 C 0.04288 0.89533 0.62232 0.0
C1036 C 0.04374 0.86694 0.66022 0.0
C1037 C 0.06142 0.89778 0.64068 0.0
C1038 C 0.06209 0.85649 0.70026 0.0
C1039 C 0.03371 0.81183 0.68935 0.0
N1040 N 0.06141 0.88367 0.6589 0.0
N1041 N 0.03157 0.82862 0.67429 0.0
H1042 H 0.45059 0.73903 0.84074 0.0
H1043 H 0.35455 0.80215 0.8625 0.0
H1044 H 0.45673 0.81576 0.86013 0.0
H1045 H 0.344 0.7304 0.81963 0.0
H1046 H 0.39284 0.8039 0.87135 0.0
H1047 H 0.412 0.7329 0.84018 0.0
C1048 C 0.44383 0.75455 0.84471 0.0
C1049 C 0.45687 0.77794 0.85027 0.0
C1050 C 0.38209 0.78765 0.86029 0.0
C1051 C 0.4131 0.77101 0.85038 0.0
C1052 C 0.36018 0.78653 0.85542 0.0
C1053 C 0.34605 0.76632 0.83979 0.0
C1054 C 0.38991 0.76841 0.84953 0.0
C1055 C 0.35433 0.74651 0.83144 0.0
C1056 C 0.42189 0.75103 0.84455 0.0
C1057 C 0.44732 0.79741 0.8555 0.0
N1058 N 0.37581 0.7482 0.83607 0.0
N1059 N 0.42606 0.79349 0.85551 0.0
H1060 H 0.5597 0.17377 0.19256 0.0
H1061 H 0.57266 0.12007 0.05596 0.0
H1062 H 0.58972 0.21868 0.14453 0.0
H1063 H 0.56733 0.07749 0.11556 0.0
H1064 H 0.58041 0.15669 0.08795 0.0
H1065 H 0.56257 0.13815 0.16432 0.0
C1066 C 0.56693 0.17611 0.1761 0.0
C1067 C 0.57429 0.19913 0.1707 0.0
C1068 C 0.57797 0.13932 0.09405 0.0
C1069 C 0.57761 0.15858 0.13837 0.0
C1070 C 0.57361 0.11847 0.07583 0.0
C1071 C 0.56897 0.09581 0.08313 0.0
C1072 C 0.57732 0.13734 0.11955 0.0
C1073 C 0.57052 0.09465 0.10911 0.0
C1074 C 0.56874 0.15581 0.16012 0.0
C1075 C 0.58376 0.2012 0.14929 0.0
N1076 N 0.57413 0.11514 0.12635 0.0
N1077 N 0.5849 0.18114 0.13368 0.0
H1078 H 0.08021 0.31154 0.33888 0.0
H1079 H 0.16019 0.224 0.35017 0.0
H1080 H 0.1027 0.28839 0.40913 0.0
H1081 H 0.16132 0.27252 0.29559 0.0
H1082 H 0.13401 0.24247 0.36815 0.0
H1083 H 0.10593 0.29323 0.31924 0.0
C1084 C 0.0907 0.30283 0.35021 0.0
C1085 C 0.08936 0.30145 0.37564 0.0
C1086 C 0.13997 0.24895 0.35216 0.0
C1087 C 0.11821 0.28012 0.35323 0.0
C1088 C 0.15489 0.23844 0.34188 0.0
C1089 C 0.16316 0.24688 0.3215 0.0
C1090 C 0.13307 0.26781 0.3418 0.0
C1091 C 0.15526 0.26525 0.31113 0.0
C1092 C 0.10527 0.29237 0.339 0.0
C1093 C 0.10326 0.28995 0.3895 0.0
N1094 N 0.14066 0.27517 0.32145 0.0
N1095 N 0.11697 0.27948 0.37802 0.0
H1096 H 0.96294 0.99187 0.2021 0.0
H1097 H 0.02703 0.08392 0.12722 0.0
H1098 H 0.97827 0.0692 0.22454 0.0
H1099 H 0.01081 1.0069 0.10269 0.0
H1100 H 1.0069 0.07878 0.16129 0.0
H1101 H 0.97873 0.99678 0.16442 0.0
C1102 C 0.96962 1.00987 0.19913 0.0
C1103 C 0.96937 0.03015 0.2166 0.0
C1104 C 1.00757 0.06298 0.14837 0.0
C1105 C 0.98735 0.0359 0.17347 0.0
C1106 C 0.019 0.06594 0.12886 0.0
C1107 C 0.02071 0.0458 0.11231 0.0
C1108 C 0.99787 0.03969 0.15145 0.0
C1109 C 1.00993 0.0229 0.11516 0.0
C1110 C 0.97857 0.01266 0.17757 0.0
C1111 C 0.97818 0.05303 0.21169 0.0
N1112 N 0.99913 0.02043 0.13455 0.0
N1113 N 0.98683 0.05526 0.19066 0.0
H1114 H 0.28208 0.65064 0.52525 0.0
H1115 H 0.28715 0.77916 0.48391 0.0
H1116 H 0.31648 0.71833 0.57226 0.0
H1117 H 0.26022 0.71177 0.43248 0.0
H1118 H 0.29005 0.75718 0.51935 0.0
H1119 H 0.26668 0.6728 0.49413 0.0
C1120 C 0.28616 0.67014 0.52919 0.0
C1121 C 0.30089 0.68268 0.5511 0.0
C1122 C 0.28322 0.7472 0.50036 0.0
C1123 C 0.28337 0.70805 0.51573 0.0
C1124 C 0.28138 0.75976 0.48011 0.0
C1125 C 0.27376 0.74723 0.45514 0.0
C1126 C 0.27752 0.72191 0.49559 0.0
C1127 C 0.26669 0.72208 0.45139 0.0
C1128 C 0.27738 0.68277 0.51143 0.0
C1129 C 0.30548 0.70794 0.55538 0.0
N1130 N 0.26903 0.71019 0.47138 0.0
N1131 N 0.29692 0.71978 0.53772 0.0
H1132 H 0.61316 0.98811 0.74686 0.0
H1133 H 0.59673 0.04538 0.61702 0.0
H1134 H 0.66151 0.04108 0.7264 0.0
H1135 H 0.54867 0.98942 0.63338 0.0
H1136 H 0.62026 0.0441 0.65724 0.0
H1137 H 0.58907 0.9883 0.70639 0.0
C1138 C 0.61882 0.99976 0.73405 0.0
C1139 C 0.63971 0.01455 0.74058 0.0
C1140 C 0.60457 0.03205 0.65211 0.0
C1141 C 0.61184 0.01495 0.6936 0.0
C1142 C 0.59106 0.03278 0.62896 0.0
C1143 C 0.57046 0.01753 0.62142 0.0
C1144 C 0.59766 0.01598 0.66834 0.0
C1145 C 0.56429 1.00161 0.63812 0.0
C1146 C 0.60498 0.99988 0.71078 0.0
C1147 C 0.64576 0.02923 0.7227 0.0
N1148 N 0.57764 1.0013 0.66052 0.0
N1149 N 0.6321 0.02905 0.70047 0.0
H1150 H 0.28845 0.36563 1.00364 0.0
H1151 H 0.33654 0.29922 0.89454 0.0
H1152 H 0.34824 0.34324 0.01724 0.0
H1153 H 0.27194 0.30963 0.88221 0.0
H1154 H 0.34085 0.31543 0.93954 0.0
H1155 H 0.2818 0.34536 0.9593 0.0
C1156 C 0.30012 0.35634 0.99739 0.0
C1157 C 0.31899 0.35625 0.01425 0.0
C1158 C 0.32568 0.31407 0.92707 0.0
C1159 C 0.31152 0.33315 0.96342 0.0
C1160 C 0.3232 0.30484 0.90128 0.0
C1161 C 0.30387 0.30313 0.88443 0.0
C1162 C 0.30879 0.32195 0.93625 0.0
C1163 C 0.28714 0.3106 0.89445 0.0
C1164 C 0.29629 0.34476 0.97205 0.0
C1165 C 0.33349 0.34386 1.00501 0.0
N1166 N 0.29004 0.31985 0.91966 0.0
N1167 N 0.32953 0.33299 0.98025 0.0
H1168 H 0.99337 0.97431 0.33853 0.0
H1169 H 0.01759 0.0564 0.47667 0.0
H1170 H 0.97163 0.04018 0.35235 0.0
H1171 H 0.02642 0.98372 0.46216 0.0
H1172 H 1.00476 0.0537 0.43076 0.0
H1173 H 1.01014 0.98071 0.38336 0.0
C1174 C 0.99226 0.99024 0.35094 0.0
C1175 C 0.98091 1.00661 0.34166 0.0
C1176 C 1.00957 0.03841 0.43773 0.0
C1177 C 1.00003 0.01402 0.39324 0.0
C1178 C 0.0169 0.03995 0.46389 0.0
C1179 C 0.0229 0.02018 0.47334 0.0
C1180 C 1.0085 0.01708 0.42098 0.0
C1181 C 0.02176 0.99935 0.45588 0.0
C1182 C 1.00179 0.99386 0.3766 0.0
C1183 C 0.98012 0.027 0.3587 0.0
N1184 N 0.01472 0.99837 0.43066 0.0
N1185 N 0.98944 0.03007 0.38372 0.0
H1186 H 0.37987 0.70691 0.68261 0.0
H1187 H 0.31895 0.8082 0.72534 0.0
H1188 H 0.36087 0.75592 0.63416 0.0
H1189 H 0.33284 0.75327 0.76829 0.0
H1190 H 0.34042 0.79493 0.69503 0.0
H1191 H 0.37049 0.73055 0.71818 0.0
C1192 C 0.37425 0.72301 0.67961 0.0
C1193 C 0.37064 0.7291 0.65526 0.0
C1194 C 0.33886 0.78594 0.71122 0.0
C1195 C 0.35932 0.75588 0.69569 0.0
C1196 C 0.32656 0.79341 0.72838 0.0
C1197 C 0.32382 0.78146 0.74896 0.0
C1198 C 0.34852 0.76653 0.71493 0.0
C1199 C 0.33415 0.76261 0.75233 0.0
C1200 C 0.36872 0.73642 0.69988 0.0
C1201 C 0.3636 0.75035 0.65254 0.0
N1202 N 0.34594 0.75566 0.73543 0.0
N1203 N 0.35767 0.7627 0.6724 0.0
H1204 H 0.65709 1.00483 0.90506 0.0
H1205 H 0.55801 0.04064 0.96484 0.0
H1206 H 0.60638 0.03207 0.86554 0.0
H1207 H 0.60713 0.01542 0.01013 0.0
H1208 H 0.57637 0.03704 0.92905 0.0
H1209 H 0.64045 1.00776 0.94332 0.0
C1210 C 0.64254 0.01138 0.90418 0.0
C1211 C 0.63341 0.01815 0.88136 0.0
C1212 C 0.58333 0.03227 0.94673 0.0
C1213 C 0.61393 0.02163 0.9259 0.0
C1214 C 0.57273 0.03437 0.96752 0.0
C1215 C 0.58072 0.02846 0.99124 0.0
C1216 C 0.6025 0.02404 0.94881 0.0
C1217 C 0.60008 0.02036 0.99261 0.0
C1218 C 0.63298 0.01309 0.92624 0.0
C1219 C 0.61439 0.02653 0.88216 0.0
N1220 N 0.61014 0.0184 0.97196 0.0
N1221 N 0.60555 0.02796 0.90357 0.0
H1222 H 0.35708 0.35724 0.15565 0.0
H1223 H 0.26309 0.30523 0.22673 0.0
H1224 H 0.29262 0.36748 0.1388 0.0
H1225 H 0.32708 0.29445 0.24651 0.0
H1226 H 0.2742 0.32797 0.19445 0.0
H1227 H 0.34706 0.33437 0.18877 0.0
C1228 C 0.34083 0.35472 0.15887 0.0
C1229 C 0.32568 0.36437 0.14429 0.0
C1230 C 0.28592 0.32071 0.20578 0.0
C1231 C 0.31412 0.33811 0.18229 0.0
C1232 C 0.27956 0.30764 0.22427 0.0
C1233 C 0.29418 0.29792 0.23944 0.0
C1234 C 0.30715 0.3242 0.20216 0.0
C1235 C 0.31531 0.30174 0.23535 0.0
C1236 C 0.33513 0.34164 0.17782 0.0
C1237 C 0.30488 0.36045 0.14944 0.0
N1238 N 0.32118 0.31458 0.21708 0.0
N1239 N 0.29976 0.34768 0.16791 0.0
H1240 H 0.24227 0.95819 0.05192 0.0
H1241 H 0.14341 0.97314 0.11113 0.0
H1242 H 0.20181 0.89818 0.07346 0.0
H1243 H 0.1956 0.03283 0.11168 0.0
H1244 H 0.16658 0.94535 0.10356 0.0
H1245 H 0.22763 0.98581 0.07841 0.0
C1246 C 0.23033 0.95084 0.06236 0.0
C1247 C 0.22286 0.9259 0.06012 0.0
C1248 C 0.1732 0.96455 0.10608 0.0
C1249 C 0.20596 0.95742 0.09045 0.0
C1250 C 0.16001 0.98037 0.11047 0.0
C1251 C 0.16764 1.00516 0.11164 0.0
C1252 C 0.19394 0.97366 0.10227 0.0
C1253 C 0.18917 0.01378 0.11076 0.0
C1254 C 0.22213 0.96663 0.0777 0.0
C1255 C 0.20776 0.91733 0.07447 0.0
N1256 N 0.20148 0.99798 0.10548 0.0
N1257 N 0.19945 0.9331 0.08868 0.0
H1258 H 0.68609 0.65031 0.04673 0.0
H1259 H 0.61361 0.51619 0.02633 0.0
H1260 H 0.70668 0.58711 0.0174 0.0
H1261 H 0.59199 0.57966 0.05163 0.0
H1262 H 0.64776 0.54169 0.02332 0.0
H1263 H 0.65173 0.62481 0.0487 0.0
C1264 C 0.68341 0.63105 0.04061 0.0
C1265 C 0.69946 0.62092 0.03189 0.0
C1266 C 0.63556 0.55012 0.02951 0.0
C1267 C 0.65984 0.5914 0.03425 0.0
C1268 C 0.61602 0.53555 0.03129 0.0
C1269 C 0.59978 0.5458 0.03924 0.0
C1270 C 0.63907 0.57528 0.03579 0.0
C1271 C 0.6039 0.57098 0.04538 0.0
C1272 C 0.66371 0.61647 0.04177 0.0
C1273 C 0.69487 0.59579 0.02422 0.0
N1274 N 0.62309 0.58483 0.04355 0.0
N1275 N 0.67556 0.58194 0.02566 0.0
H1276 H 0.67941 0.49059 0.3372 0.0
H1277 H 0.78255 0.4526 0.29613 0.0
H1278 H 0.72136 0.53271 0.29722 0.0
H1279 H 0.7387 0.40864 0.33247 0.0
H1280 H 0.76122 0.48301 0.29807 0.0
H1281 H 0.70161 0.46103 0.33694 0.0
C1282 C 0.69329 0.49363 0.32836 0.0
C1283 C 0.69852 0.51416 0.31718 0.0
C1284 C 0.75628 0.46673 0.30567 0.0
C1285 C 0.72404 0.48037 0.31687 0.0
C1286 C 0.76854 0.44944 0.30473 0.0
C1287 C 0.7624 0.42804 0.31415 0.0
C1288 C 0.73773 0.46265 0.31613 0.0
C1289 C 0.74388 0.42474 0.3247 0.0
C1290 C 0.70597 0.47673 0.32823 0.0
C1291 C 0.71671 0.51715 0.30602 0.0
N1292 N 0.7322 0.44186 0.3254 0.0
N1293 N 0.72882 0.50044 0.30616 0.0
H1294 H 0.80326 0.46155 0.47074 0.0
H1295 H 0.90541 0.55848 0.5455 0.0
H1296 H 0.80804 0.49931 0.54672 0.0
H1297 H 0.89744 0.52385 0.46752 0.0
H1298 H 0.86701 0.54419 0.54332 0.0
H1299 H 0.83428 0.4911 0.46599 0.0
C1300 C 0.81067 0.47631 0.48629 0.0
C1301 C 0.80343 0.4777 0.50936 0.0
C1302 C 0.8736 0.54021 0.5265 0.0
C1303 C 0.83918 0.51137 0.50428 0.0
C1304 C 0.89553 0.5483 0.52777 0.0
C1305 C 0.90476 0.54191 0.50686 0.0
C1306 C 0.8609 0.52545 0.50425 0.0
C1307 C 0.89113 0.52918 0.48419 0.0
C1308 C 0.82838 0.49323 0.48358 0.0
C1309 C 0.81333 0.49742 0.52872 0.0
N1310 N 0.86998 0.52098 0.48366 0.0
N1311 N 0.83104 0.51322 0.52596 0.0
H1312 H 0.33957 0.0933 0.28332 0.0
H1313 H 0.3601 0.23973 0.30313 0.0
H1314 H 0.40351 0.13736 0.29635 0.0
H1315 H 0.29803 0.19133 0.28814 0.0
H1316 H 0.37672 0.20448 0.30099 0.0
H1317 H 0.32534 0.12943 0.28527 0.0
C1318 C 0.35089 0.11051 0.28661 0.0
C1319 C 0.37315 0.11139 0.28962 0.0
C1320 C 0.35946 0.20149 0.2981 0.0
C1321 C 0.35611 0.15465 0.29201 0.0
C1322 C 0.3498 0.22183 0.29929 0.0
C1323 C 0.32726 0.21918 0.29574 0.0
C1324 C 0.34675 0.17767 0.29335 0.0
C1325 C 0.31531 0.19497 0.29098 0.0
C1326 C 0.34251 0.1315 0.28772 0.0
C1327 C 0.38633 0.13505 0.29382 0.0
N1328 N 0.32503 0.17569 0.28998 0.0
N1329 N 0.37771 0.15538 0.29489 0.0
H1330 H 0.34813 0.15477 0.51329 0.0
H1331 H 0.39379 0.047 0.56528 0.0
H1332 H 0.31064 0.10039 0.54581 0.0
H1333 H 0.4308 0.10286 0.53408 0.0
H1334 H 0.36319 0.06574 0.55811 0.0
H1335 H 0.37826 0.1356 0.52058 0.0
C1336 C 0.34616 0.13874 0.52195 0.0
C1337 C 0.32667 0.12924 0.52892 0.0
C1338 C 0.37801 0.07391 0.55284 0.0
C1339 C 0.3615 0.10702 0.53742 0.0
C1340 C 0.39552 0.06313 0.55679 0.0
C1341 C 0.41506 0.07323 0.55021 0.0
C1342 C 0.37987 0.09503 0.54216 0.0
C1343 C 0.41626 0.09447 0.53974 0.0
C1344 C 0.36348 0.12778 0.52614 0.0
C1345 C 0.32528 0.10839 0.54009 0.0
N1346 N 0.39897 0.10455 0.53601 0.0
N1347 N 0.34243 0.098 0.54399 0.0
H1348 H 0.70743 0.61833 0.35636 0.0
H1349 H 0.74892 0.72149 0.27969 0.0
H1350 H 0.66686 0.63943 0.2959 0.0
H1351 H 0.78406 0.71527 0.35242 0.0
H1352 H 0.71925 0.69011 0.28463 0.0
H1353 H 0.7362 0.65265 0.35499 0.0
C1354 C 0.7045 0.63028 0.34297 0.0
C1355 C 0.68472 0.6259 0.32612 0.0
C1356 C 0.73335 0.6957 0.29965 0.0
C1357 C 0.71763 0.66496 0.32427 0.0
C1358 C 0.75024 0.71372 0.29689 0.0
C1359 C 0.76873 0.72128 0.31592 0.0
C1360 C 0.73511 0.68478 0.3214 0.0
C1361 C 0.76998 0.70998 0.33738 0.0
C1362 C 0.72093 0.64985 0.3422 0.0
C1363 C 0.68183 0.64202 0.30921 0.0
N1364 N 0.75338 0.69219 0.33953 0.0
N1365 N 0.69815 0.66067 0.30856 0.0
H1366 H 0.88804 0.45227 0.74905 0.0
H1367 H 0.82452 0.37069 0.83545 0.0
H1368 H 0.86964 0.48395 0.81646 0.0
H1369 H 0.83189 0.3433 0.76005 0.0
H1370 H 0.8419 0.41143 0.83026 0.0
H1371 H 0.86877 0.41259 0.75397 0.0
C1372 C 0.87986 0.45105 0.76491 0.0
C1373 C 0.88064 0.47204 0.78225 0.0
C1374 C 0.83971 0.39656 0.8148 0.0
C1375 C 0.85831 0.42541 0.78834 0.0
C1376 C 0.82977 0.37307 0.81776 0.0
C1377 C 0.82653 0.353 0.79821 0.0
C1378 C 0.84692 0.40047 0.79215 0.0
C1379 C 0.83382 0.35783 0.77577 0.0
C1380 C 0.86877 0.42812 0.7677 0.0
C1381 C 0.86952 0.46865 0.80237 0.0
N1382 N 0.84364 0.38075 0.77349 0.0
N1383 N 0.85907 0.44597 0.80493 0.0
H1384 H 0.0539 0.84971 0.11344 0.0
H1385 H 0.09497 0.98881 0.10213 0.0
H1386 H 0.11135 0.89628 0.16009 0.0
H1387 H 0.03287 0.9456 0.06407 0.0
H1388 H 0.10287 0.95399 0.12017 0.0
H1389 H 0.04757 0.88337 0.09199 0.0
C1390 C 0.06528 0.86692 0.11907 0.0
C1391 C 0.08317 0.87007 0.13874 0.0
C1392 C 0.08754 0.95208 0.10779 0.0
C1393 C 0.07598 0.90885 0.11416 0.0
C1394 C 0.08304 0.97199 0.09735 0.0
C1395 C 0.06317 0.9703 0.0815 0.0
C1396 C 0.07213 0.93014 0.10236 0.0
C1397 C 0.04837 0.94791 0.07621 0.0
C1398 C 0.06162 0.88619 0.10685 0.0
C1399 C 0.0973 0.89291 0.14516 0.0
N1400 N 0.05312 0.92882 0.08661 0.0
N1401 N 0.0934 0.91133 0.13298 0.0
H1402 H 0.94417 0.29879 0.93448 0.0
H1403 H 0.85008 0.23067 0.81715 0.0
H1404 H 0.94922 0.23774 0.88191 0.0
H1405 H 0.85188 0.30071 0.85866 0.0
H1406 H 0.88475 0.23108 0.84299 0.0
H1407 H 0.90919 0.2979 0.90928 0.0
C1408 C 0.93794 0.2851 0.91765 0.0
C1409 C 0.94981 0.26828 0.91039 0.0
C1410 C 0.8776 0.24637 0.84652 0.0
C1411 C 0.90936 0.26717 0.88132 0.0
C1412 C 0.85772 0.24614 0.83182 0.0
C1413 C 0.84803 0.26574 0.83567 0.0
C1414 C 0.88794 0.26627 0.86552 0.0
C1415 C 0.85874 0.28522 0.855 0.0
C1416 C 0.91791 0.28469 0.90321 0.0
C1417 C 0.94075 0.2511 0.88828 0.0
N1418 N 0.87809 0.28498 0.8692 0.0
N1419 N 0.92108 0.25094 0.87462 0.0
H1420 H 0.60784 0.2323 0.60864 0.0
H1421 H 0.5229 0.10505 0.57677 0.0
H1422 H 0.54424 0.22299 0.62522 0.0
H1423 H 0.58952 0.11343 0.5719 0.0
H1424 H 0.52926 0.14861 0.5907 0.0
H1425 H 0.60018 0.1894 0.59117 0.0
C1426 C 0.59219 0.2213 0.60846 0.0
C1427 C 0.5767 0.23137 0.61853 0.0
C1428 C 0.54247 0.14091 0.58651 0.0
C1429 C 0.56781 0.18195 0.59851 0.0
C1430 C 0.53884 0.11601 0.57849 0.0
C1431 C 0.5557 0.10543 0.5732 0.0
C1432 C 0.5631 0.15547 0.58916 0.0
C1433 C 0.57602 0.12067 0.57583 0.0
C1434 C 0.58785 0.19672 0.59853 0.0
C1435 C 0.55671 0.21607 0.61774 0.0
N1436 N 0.57913 0.14483 0.58361 0.0
N1437 N 0.55287 0.19216 0.60797 0.0
H1438 H 0.59734 0.77477 0.44923 0.0
H1439 H 0.6361 0.76268 0.3155 0.0
H1440 H 0.55344 0.75598 0.37687 0.0
H1441 H 0.67908 0.78053 0.38853 0.0
H1442 H 0.60573 0.75997 0.33722 0.0
H1443 H 0.62724 0.77701 0.42702 0.0
C1444 C 0.59392 0.77109 0.42862 0.0
C1445 C 0.5727 0.76516 0.41496 0.0
C1446 C 0.6218 0.76447 0.3485 0.0
C1447 C 0.60723 0.76772 0.38921 0.0
C1448 C 0.63922 0.76587 0.3361 0.0
C1449 C 0.66036 0.77179 0.35011 0.0
C1450 C 0.62538 0.769 0.37521 0.0
C1451 C 0.6632 0.7762 0.37681 0.0
C1452 C 0.6111 0.77239 0.41592 0.0
C1453 C 0.56947 0.76062 0.38824 0.0
N1454 N 0.64599 0.77469 0.38841 0.0
N1455 N 0.58652 0.76199 0.37627 0.0
H1456 H 0.04356 0.28873 0.48324 0.0
H1457 H 0.01743 0.14528 0.47169 0.0
H1458 H 0.01802 0.23992 0.41196 0.0
H1459 H 0.0496 0.19488 0.54064 0.0
H1460 H 0.01543 0.17955 0.44973 0.0
H1461 H 0.04337 0.25428 0.50506 0.0
C1462 C 0.03783 0.27076 0.47219 0.0
C1463 C 0.03089 0.26718 0.44574 0.0
C1464 C 0.02286 0.1829 0.46968 0.0
C1465 C 0.03068 0.22764 0.47058 0.0
C1466 C 0.0241 0.16336 0.48218 0.0
C1467 C 0.03364 0.16724 0.50805 0.0
C1468 C 0.03122 0.20643 0.48317 0.0
C1469 C 0.04179 0.19104 0.5208 0.0
C1470 C 0.03776 0.25108 0.48465 0.0
C1471 C 0.02359 0.24349 0.43238 0.0
N1472 N 0.0404 0.20972 0.50823 0.0
N1473 N 0.02372 0.22459 0.44496 0.0
H1474 H 0.62519 0.29332 0.26128 0.0
H1475 H 0.72568 0.24446 0.22867 0.0
H1476 H 0.6267 0.21801 0.24744 0.0
H1477 H 0.73172 0.31718 0.26683 0.0
H1478 H 0.68732 0.23648 0.22772 0.0
H1479 H 0.66304 0.30388 0.25846 0.0
C1480 C 0.63357 0.27903 0.25806 0.0
C1481 C 0.62282 0.25475 0.25459 0.0
C1482 C 0.69704 0.25425 0.23608 0.0
C1483 C 0.66571 0.26668 0.25061 0.0
C1484 C 0.71891 0.25893 0.23639 0.0
C1485 C 0.732 0.28138 0.24832 0.0
C1486 C 0.6882 0.27219 0.24763 0.0
C1487 C 0.72227 0.29951 0.2577 0.0
C1488 C 0.65507 0.28508 0.25626 0.0
C1489 C 0.63437 0.23696 0.25036 0.0
N1490 N 0.70091 0.29442 0.25745 0.0
N1491 N 0.65516 0.24329 0.24824 0.0
H1492 H 0.53326 0.86164 0.94728 0.0
H1493 H 0.50511 0.98547 0.99363 0.0
H1494 H 0.49183 0.89372 0.89829 0.0
H1495 H 0.52856 0.94157 0.04545 0.0
H1496 H 0.49838 0.95164 0.95865 0.0
H1497 H 0.53147 0.89088 0.98349 0.0
C1498 C 0.52386 0.87491 0.94411 0.0
C1499 C 0.51284 0.8754 0.91968 0.0
C1500 C 0.50459 0.94922 0.97774 0.0
C1501 C 0.51058 0.9088 0.96113 0.0
C1502 C 0.50832 0.9685 0.99772 0.0
C1503 C 0.51758 0.96635 0.02235 0.0
C1504 C 0.51056 0.92784 0.98243 0.0
C1505 C 0.52145 0.94398 0.02669 0.0
C1506 C 0.52266 0.89144 0.96486 0.0
C1507 C 0.50068 0.8928 0.91678 0.0
N1508 N 0.51833 0.9257 0.0068 0.0
N1509 N 0.50002 0.90897 0.93724 0.0
H1510 H 0.03047 0.76984 0.80035 0.0
H1511 H 0.90684 0.73834 0.80835 0.0
H1512 H 0.98583 0.70405 0.76153 0.0
H1513 H 0.94874 0.80884 0.8341 0.0
H1514 H 0.93761 0.72218 0.80037 0.0
H1515 H 1.00288 0.78043 0.82247 0.0
C1516 C 0.01501 0.75736 0.79684 0.0
C1517 C 1.0103 0.73625 0.77862 0.0
C1518 C 0.94011 0.74112 0.80807 0.0
C1519 C 0.97863 0.74842 0.80374 0.0
C1520 C 0.92254 0.75039 0.8125 0.0
C1521 C 0.92515 0.7751 0.8214 0.0
C1522 C 0.96045 0.75665 0.81256 0.0
C1523 C 0.94595 0.78971 0.82716 0.0
C1524 C 0.99923 0.76349 0.80942 0.0
C1525 C 0.99006 0.72069 0.77509 0.0
N1526 N 0.96277 0.78033 0.82232 0.0
N1527 N 0.97485 0.72726 0.78724 0.0
H1528 H 0.15495 0.08305 0.93489 0.0
H1529 H 0.065 0.98918 0.97815 0.0
H1530 H 0.11115 0.02382 0.88261 0.0
H1531 H 0.09196 0.06121 0.01967 0.0
H1532 H 0.08638 0.99826 0.94572 0.0
H1533 H 0.13613 0.07217 0.96888 0.0
C1534 C 0.14137 0.06777 0.93055 0.0
C1535 C 0.13452 0.05442 0.90584 0.0
C1536 C 0.08773 0.01197 0.96208 0.0
C1537 C 0.11316 0.04167 0.9447 0.0
C1538 C 0.07566 1.00676 0.98065 0.0
C1539 C 0.07676 0.02447 1.00164 0.0
C1540 C 0.10115 0.03495 0.96474 0.0
C1541 C 0.09076 0.04698 1.0039 0.0
C1542 C 0.13065 0.06159 0.94995 0.0
C1543 C 0.11685 0.03476 0.90133 0.0
N1544 N 0.10239 0.0516 0.98566 0.0
N1545 N 0.10683 0.02891 0.9206 0.0
H1546 H 0.80333 0.35567 0.54121 0.0
H1547 H 0.84097 0.35334 0.68784 0.0
H1548 H 0.82476 0.4194 0.59908 0.0
H1549 H 0.8156 0.29 0.63007 0.0
H1550 H 0.84319 0.378 0.65446 0.0
H1551 H 0.816 0.33193 0.57208 0.0
C1552 C 0.81099 0.36474 0.56034 0.0
C1553 C 0.81254 0.38945 0.56778 0.0
C1554 C 0.8375 0.35866 0.64908 0.0
C1555 C 0.82688 0.36232 0.60326 0.0
C1556 C 0.83615 0.34459 0.66812 0.0
C1557 C 0.82766 0.31965 0.66172 0.0
C1558 C 0.83017 0.34769 0.62349 0.0
C1559 C 0.82217 0.30917 0.63589 0.0
C1560 C 0.81823 0.35116 0.57796 0.0
C1561 C 0.82294 0.40032 0.59265 0.0
N1562 N 0.82318 0.32329 0.61773 0.0
N1563 N 0.82938 0.38659 0.60967 0.0
H1564 H 0.4272 0.01595 0.38065 0.0
H1565 H 0.54194 0.07013 0.47479 0.0
H1566 H 0.47578 0.0703 0.36249 0.0
H1567 H 0.49376 0.01313 0.48923 0.0
H1568 H 0.51828 0.07136 0.4348 0.0
H1569 H 0.45109 0.01571 0.42029 0.0
C1570 C 0.44291 0.02798 0.38484 0.0
C1571 C 0.44913 0.04322 0.36757 0.0
C1572 C 0.51279 0.05857 0.44663 0.0
C1573 C 0.47727 0.04293 0.41431 0.0
C1574 C 0.52636 0.05783 0.46967 0.0
C1575 C 0.52009 0.04144 0.48581 0.0
C1576 C 0.49242 0.04283 0.43918 0.0
C1577 C 0.49953 0.02609 0.47771 0.0
C1578 C 0.45667 0.02775 0.40779 0.0
C1579 C 0.46996 0.05819 0.37481 0.0
N1580 N 0.48661 0.02718 0.45523 0.0
N1581 N 0.48312 0.05767 0.39741 0.0
H1582 H 0.79632 0.68272 0.10697 0.0
H1583 H 0.75834 0.76754 0.21033 0.0
H1584 H 0.7553 0.73042 0.08663 0.0
H1585 H 0.81713 0.74364 0.22721 0.0
H1586 H 0.75504 0.75131 0.16532 0.0
H1587 H 0.80237 0.70206 0.15161 0.0
C1588 C 0.78865 0.69731 0.11187 0.0
C1589 C 0.77525 0.70494 0.09302 0.0
C1590 C 0.76873 0.74976 0.17885 0.0
C1591 C 0.78191 0.7269 0.14406 0.0
C1592 C 0.77059 0.75893 0.20457 0.0
C1593 C 0.78802 0.7569 0.22261 0.0
C1594 C 0.78418 0.73804 0.17108 0.0
C1595 C 0.80346 0.74567 0.21397 0.0
C1596 C 0.79217 0.70838 0.13732 0.0
C1597 C 0.76579 0.72398 0.10048 0.0
N1598 N 0.80106 0.73642 0.18886 0.0
N1599 N 0.76912 0.73413 0.12542 0.0
H1600 H 0.11794 0.06641 0.76288 0.0
H1601 H 0.06451 0.98425 0.62694 0.0
H1602 H 0.11254 0.98956 0.74787 0.0
H1603 H 0.07553 0.06185 0.64172 0.0
H1604 H 0.07957 0.98516 0.67175 0.0
H1605 H 0.09981 0.06437 0.7192 0.0
C1606 C 0.11285 0.04906 0.75044 0.0
C1607 C 0.11688 0.02814 0.75907 0.0
C1608 C 0.07862 1.00196 0.66516 0.0
C1609 C 0.09611 0.02568 0.70883 0.0
C1610 C 0.07001 1.00146 0.63959 0.0
C1611 C 0.06884 0.02302 0.63049 0.0
C1612 C 0.08606 0.02417 0.68176 0.0
C1613 C 0.07619 0.04477 0.64779 0.0
C1614 C 0.10251 0.04791 0.72545 0.0
C1615 C 0.10985 1.00617 0.74204 0.0
N1616 N 0.0845 0.04478 0.67252 0.0
N1617 N 0.09987 1.00553 0.71771 0.0
H1618 H 0.75831 0.31494 0.4691 0.0
H1619 H 0.76596 0.31675 0.32326 0.0
H1620 H 0.74532 0.37212 0.42897 0.0
H1621 H 0.7866 0.26424 0.36552 0.0
H1622 H 0.75396 0.33442 0.36037 0.0
H1623 H 0.7633 0.29271 0.42958 0.0
C1624 C 0.75611 0.32264 0.4519 0.0
C1625 C 0.75171 0.34561 0.45243 0.0
C1626 C 0.76106 0.31901 0.36157 0.0
C1627 C 0.75766 0.32038 0.40726 0.0
C1628 C 0.76802 0.309 0.34043 0.0
C1629 C 0.77749 0.28921 0.3415 0.0
C1630 C 0.76354 0.3091 0.38395 0.0
C1631 C 0.77951 0.27964 0.36405 0.0
C1632 C 0.75911 0.30999 0.42938 0.0
C1633 C 0.74896 0.35461 0.42953 0.0
N1634 N 0.77265 0.28974 0.38447 0.0
N1635 N 0.75221 0.34209 0.40794 0.0
H1636 H 0.47238 0.04635 0.23906 0.0
H1637 H 0.47424 0.03104 0.08699 0.0
H1638 H 0.41696 0.03949 0.18048 0.0
H1639 H 0.53006 0.03384 0.14343 0.0
H1640 H 0.4536 0.03468 0.12116 0.0
H1641 H 0.49397 0.04259 0.20551 0.0
C1642 C 0.46462 0.04412 0.21933 0.0
C1643 C 0.44245 0.04331 0.21318 0.0
C1644 C 0.47037 0.03447 0.1262 0.0
C1645 C 0.46757 0.03891 0.17386 0.0
C1646 C 0.48229 0.03234 0.10647 0.0
C1647 C 0.50423 0.03197 0.11175 0.0
C1648 C 0.48015 0.03643 0.15203 0.0
C1649 C 0.51331 0.03388 0.13789 0.0
C1650 C 0.47707 0.04191 0.19998 0.0
C1651 C 0.43379 0.04028 0.18677 0.0
N1652 N 0.50143 0.03603 0.1567 0.0
N1653 N 0.44614 0.03826 0.16855 0.0
H1654 H 0.74226 0.72241 0.97752 0.0
H1655 H 0.78365 0.72531 0.84692 0.0
H1656 H 0.7781 0.67205 0.95067 0.0
H1657 H 0.78059 0.79058 0.89429 0.0
H1658 H 0.77486 0.70266 0.88064 0.0
H1659 H 0.74974 0.74489 0.94322 0.0
C1660 C 0.75162 0.716 0.96435 0.0
C1661 C 0.7596 0.6953 0.96703 0.0
C1662 C 0.77602 0.72192 0.88359 0.0
C1663 C 0.76788 0.72078 0.92747 0.0
C1664 C 0.78089 0.73485 0.86431 0.0
C1665 C 0.7829 0.75991 0.86784 0.0
C1666 C 0.77264 0.734 0.9064 0.0
C1667 C 0.77925 0.7713 0.89083 0.0
C1668 C 0.75594 0.72891 0.94486 0.0
C1669 C 0.77172 0.68795 0.94943 0.0
N1670 N 0.77417 0.75826 0.90919 0.0
N1671 N 0.77532 0.70054 0.93028 0.0
H1672 H 0.83408 0.09964 0.99999 0.0
H1673 H 0.95661 0.09843 0.00974 0.0
H1674 H 0.88586 0.16067 0.03467 0.0
H1675 H 0.90444 0.03652 0.98019 0.0
H1676 H 0.931 0.12429 0.00854 0.0
H1677 H 0.8594 0.07962 0.98227 0.0
C1678 C 0.85077 0.10897 1.0036 0.0
C1679 C 0.858 0.13157 0.01937 0.0
C1680 C 0.92518 0.10511 1.00185 0.0
C1681 C 0.88711 0.10865 0.99936 0.0
C1682 C 0.93977 0.09035 1.00259 0.0
C1683 C 0.93252 0.06526 0.99566 0.0
C1684 C 0.90321 0.09465 0.99432 0.0
C1685 C 0.91067 0.05575 0.98592 0.0
C1686 C 0.86522 0.09754 0.99343 0.0
C1687 C 0.87968 0.14307 0.02294 0.0
N1688 N 0.89672 0.07043 0.986 0.0
N1689 N 0.89359 0.13126 0.01343 0.0
H1690 H 0.38987 0.45471 0.10726 0.0
H1691 H 0.48128 0.48693 0.02526 0.0
H1692 H 0.37962 0.43493 0.02563 0.0
H1693 H 0.48626 0.52254 0.10209 0.0
H1694 H 0.44572 0.46328 0.02674 0.0
H1695 H 0.42683 0.47557 0.10735 0.0
C1696 C 0.39537 0.45466 0.08939 0.0
C1697 C 0.38149 0.44314 0.0664 0.0
C1698 C 0.45463 0.47619 0.04333 0.0
C1699 C 0.42386 0.46677 0.06638 0.0
C1700 C 0.47497 0.4896 0.04252 0.0
C1701 C 0.4867 0.50681 0.06354 0.0
C1702 C 0.44598 0.47982 0.06541 0.0
C1703 C 0.47771 0.50954 0.08541 0.0
C1704 C 0.41646 0.46661 0.08944 0.0
C1705 C 0.3896 0.44369 0.04382 0.0
N1706 N 0.45792 0.49625 0.08578 0.0
N1707 N 0.41016 0.45521 0.0444 0.0
H1708 H 0.35338 0.52572 0.77964 0.0
H1709 H 0.34683 0.65352 0.7397 0.0
H1710 H 0.40303 0.56944 0.75061 0.0
H1711 H 0.29553 0.60832 0.76464 0.0
H1712 H 0.36717 0.62222 0.74228 0.0
H1713 H 0.33146 0.55513 0.77314 0.0
C1714 C 0.35966 0.54146 0.77185 0.0
C1715 C 0.38012 0.54516 0.76576 0.0
C1716 C 0.35141 0.61906 0.74705 0.0
C1717 C 0.35511 0.57888 0.75828 0.0
C1718 C 0.33983 0.63696 0.74566 0.0
C1719 C 0.31951 0.63355 0.75209 0.0
C1720 C 0.34267 0.59763 0.75509 0.0
C1721 C 0.31107 0.61161 0.75932 0.0
C1722 C 0.34712 0.55823 0.76811 0.0
C1723 C 0.38739 0.56586 0.75566 0.0
N1724 N 0.32276 0.59454 0.7608 0.0
N1725 N 0.37493 0.58197 0.75232 0.0
H1726 H 0.30068 0.60332 0.62516 0.0
H1727 H 0.18087 0.61054 0.62908 0.0
H1728 H 0.28261 0.66837 0.65431 0.0
H1729 H 0.20022 0.54304 0.61735 0.0
H1730 H 0.21846 0.63179 0.64004 0.0
H1731 H 0.2647 0.58037 0.62495 0.0
C1732 C 0.28926 0.61272 0.63193 0.0
C1733 C 0.29451 0.63786 0.63932 0.0
C1734 C 0.21454 0.61232 0.63528 0.0
C1735 C 0.2533 0.61178 0.63877 0.0
C1736 C 0.1931 0.60023 0.62877 0.0
C1737 C 0.18752 0.57507 0.62198 0.0
C1738 C 0.23053 0.59918 0.63469 0.0
C1739 C 0.20392 0.56248 0.62241 0.0
C1740 C 0.26872 0.59961 0.63177 0.0
C1741 C 0.27918 0.64907 0.64815 0.0
N1742 N 0.22474 0.57471 0.62838 0.0
N1743 N 0.25914 0.63599 0.64722 0.0
H1744 H 0.73284 0.9603 0.82179 0.0
H1745 H 0.72712 0.81527 0.80158 0.0
H1746 H 0.67456 0.90515 0.80547 0.0
H1747 H 0.78737 0.86726 0.81913 0.0
H1748 H 0.70843 0.84841 0.80294 0.0
H1749 H 0.75337 0.92816 0.82093 0.0
C1750 C 0.7242 0.94164 0.81801 0.0
C1751 C 0.7015 0.9361 0.81371 0.0
C1752 C 0.72576 0.85278 0.80654 0.0
C1753 C 0.72547 0.89832 0.81267 0.0
C1754 C 0.73661 0.83358 0.80577 0.0
C1755 C 0.75923 0.83779 0.81026 0.0
C1756 C 0.7372 0.87716 0.81183 0.0
C1757 C 0.77006 0.86253 0.81554 0.0
C1758 C 0.73607 0.92308 0.81752 0.0
C1759 C 0.69182 0.91104 0.80895 0.0
N1760 N 0.75912 0.8809 0.81615 0.0
N1761 N 0.70359 0.89361 0.80858 0.0
H1762 H 0.76449 0.93746 0.51817 0.0
H1763 H 0.68163 0.99029 0.5918 0.0
H1764 H 0.76847 0.94123 0.59911 0.0
H1765 H 0.67361 0.97447 0.51002 0.0
H1766 H 0.71375 0.97373 0.59557 0.0
H1767 H 0.73214 0.95301 0.51565 0.0
C1768 C 0.75864 0.94164 0.5355 0.0
C1769 C 0.76937 0.93799 0.55892 0.0
C1770 C 0.70491 0.97386 0.57682 0.0
C1771 C 0.73191 0.95593 0.5561 0.0
C1772 C 0.68643 0.98318 0.57461 0.0
C1773 C 0.67477 0.98403 0.55051 0.0
C1774 C 0.71194 0.96534 0.5548 0.0
C1775 C 0.68215 0.97477 0.52903 0.0
C1776 C 0.74003 0.95048 0.53401 0.0
C1777 C 0.76081 0.94374 0.58064 0.0
N1778 N 0.70019 0.96597 0.5317 0.0
N1779 N 0.74263 0.95245 0.57872 0.0
H1780 H 0.42137 0.42743 0.81241 0.0
H1781 H 0.3047 0.34414 0.75277 0.0
H1782 H 0.37934 0.44199 0.74873 0.0
H1783 H 0.34285 0.3381 0.82372 0.0
H1784 H 0.33326 0.37738 0.74815 0.0
H1785 H 0.39439 0.39162 0.81363 0.0
C1786 C 0.40653 0.42303 0.79854 0.0
C1787 C 0.40259 0.43787 0.78054 0.0
C1788 C 0.33544 0.36866 0.76463 0.0
C1789 C 0.3715 0.39683 0.78193 0.0
C1790 C 0.31916 0.34973 0.76728 0.0
C1791 C 0.32155 0.33826 0.78854 0.0
C1792 C 0.35422 0.37612 0.78341 0.0
C1793 C 0.34054 0.34616 0.8068 0.0
C1794 C 0.39109 0.40258 0.79931 0.0
C1795 C 0.38305 0.43114 0.76301 0.0
N1796 N 0.35614 0.36461 0.80383 0.0
N1797 N 0.3682 0.41117 0.76421 0.0
H1798 H 0.20009 0.60928 0.3612 0.0
H1799 H 0.26453 0.68989 0.27475 0.0
H1800 H 0.21922 0.57698 0.29463 0.0
H1801 H 0.25738 0.71786 0.35007 0.0
H1802 H 0.24695 0.64932 0.28019 0.0
H1803 H 0.21958 0.64884 0.35613 0.0
C1804 C 0.20847 0.61033 0.34549 0.0
C1805 C 0.20784 0.58919 0.32845 0.0
C1806 C 0.24923 0.66427 0.29558 0.0
C1807 C 0.23042 0.6357 0.32218 0.0
C1808 C 0.25929 0.68767 0.29248 0.0
C1809 C 0.26263 0.70787 0.31192 0.0
C1810 C 0.24198 0.66055 0.31825 0.0
C1811 C 0.25534 0.70323 0.33441 0.0
C1812 C 0.2197 0.6332 0.34262 0.0
C1813 C 0.21922 0.59239 0.30851 0.0
N1814 N 0.24538 0.68039 0.33682 0.0
N1815 N 0.22978 0.615 0.30585 0.0
H1816 H 0.53659 0.71026 0.49317 0.0
H1817 H 0.4968 0.57117 0.50508 0.0
H1818 H 0.47874 0.66316 0.44801 0.0
H1819 H 0.55853 0.61487 0.54371 0.0
H1820 H 0.48865 0.60581 0.48709 0.0
H1821 H 0.54364 0.67684 0.51467 0.0
C1822 C 0.52528 0.69298 0.48786 0.0
C1823 C 0.50704 0.68962 0.46862 0.0
C1824 C 0.50396 0.6079 0.49959 0.0
C1825 C 0.51506 0.65113 0.49325 0.0
C1826 C 0.50861 0.58808 0.51002 0.0
C1827 C 0.52842 0.58994 0.52605 0.0
C1828 C 0.51918 0.62996 0.50512 0.0
C1829 C 0.54306 0.61245 0.53147 0.0
C1830 C 0.52936 0.67385 0.50012 0.0
C1831 C 0.49304 0.6667 0.4626 0.0
N1832 N 0.53818 0.63149 0.52102 0.0
N1833 N 0.49734 0.64845 0.4748 0.0
H1834 H 0.63173 0.24822 0.70497 0.0
H1835 H 0.74328 0.3311 0.78315 0.0
H1836 H 0.64619 0.3257 0.71275 0.0
H1837 H 0.73322 0.2544 0.75972 0.0
H1838 H 0.70776 0.32972 0.7585 0.0
H1839 H 0.66833 0.25029 0.72621 0.0
C1840 C 0.64258 0.26574 0.71117 0.0
C1841 C 0.63571 0.28685 0.70708 0.0
C1842 C 0.71335 0.3132 0.75857 0.0
C1843 C 0.67799 0.28931 0.73166 0.0
C1844 C 0.73364 0.31397 0.77264 0.0
C1845 C 0.74123 0.29282 0.77357 0.0
C1846 C 0.70031 0.29104 0.7455 0.0
C1847 C 0.72805 0.27115 0.75955 0.0
C1848 C 0.66358 0.26687 0.72324 0.0
C1849 C 0.65069 0.30895 0.71547 0.0
N1850 N 0.7082 0.27079 0.74631 0.0
N1851 N 0.67104 0.30961 0.72749 0.0
H1852 H 1.00705 0.32784 0.98972 0.0
H1853 H 0.07409 0.46464 0.02249 0.0
H1854 H 0.06216 0.35423 0.95792 0.0
H1855 H 1.00851 0.4447 0.03176 0.0
H1856 H 0.07214 0.42283 1.00468 0.0
H1857 H 1.00955 0.36912 0.01107 0.0
C1858 C 0.0198 0.34223 0.98745 0.0
C1859 C 0.03441 0.33756 0.97197 0.0
C1860 C 0.05817 0.42756 0.01066 0.0
C1861 C 0.03737 0.38471 0.99636 0.0
C1862 C 0.05929 0.45146 0.02097 0.0
C1863 C 0.04142 0.4583 0.02866 0.0
C1864 C 0.03912 0.41012 0.00818 0.0
C1865 C 0.02265 0.44031 0.02598 0.0
C1866 C 0.02112 0.36579 0.99949 0.0
C1867 C 0.0505 0.35697 0.96956 0.0
N1868 N 0.022 0.41703 0.01603 0.0
N1869 N 0.05157 0.37961 0.98164 0.0
H1870 H 0.02085 0.74675 0.217 0.0
H1871 H 0.93184 0.81711 0.25291 0.0
H1872 H 0.02104 0.81917 0.2039 0.0
H1873 H 0.93014 0.74299 0.26034 0.0
H1874 H 0.96441 0.8186 0.2353 0.0
H1875 H 0.98812 0.74571 0.23387 0.0
C1876 C 0.01409 0.76252 0.21774 0.0
C1877 C 0.02386 0.7831 0.20897 0.0
C1878 C 0.95689 0.802 0.24076 0.0
C1879 C 0.986 0.78197 0.22835 0.0
C1880 C 0.93813 0.80106 0.25067 0.0
C1881 C 0.92806 0.77989 0.25829 0.0
C1882 C 0.96579 0.78165 0.23839 0.0
C1883 C 0.93738 0.75985 0.25521 0.0
C1884 C 0.99529 0.76188 0.22736 0.0
C1885 C 0.01416 0.80291 0.21044 0.0
N1886 N 0.95562 0.76126 0.24559 0.0
N1887 N 0.99582 0.80185 0.21991 0.0
H1888 H 0.54848 0.28363 0.15455 0.0
H1889 H 0.56535 0.41943 0.13026 0.0
H1890 H 0.57522 0.3454 0.21407 0.0
H1891 H 0.54439 0.35743 0.07019 0.0
H1892 H 0.57024 0.39273 0.16111 0.0
H1893 H 0.5473 0.31049 0.12336 0.0
C1894 C 0.55407 0.30287 0.16108 0.0
C1895 C 0.56188 0.31232 0.18698 0.0
C1896 C 0.56472 0.38497 0.14116 0.0
C1897 C 0.56063 0.34316 0.15131 0.0
C1898 C 0.56209 0.40021 0.12349 0.0
C1899 C 0.5544 0.39063 0.09758 0.0
C1900 C 0.5595 0.35995 0.13291 0.0
C1901 C 0.55005 0.36556 0.09001 0.0
C1902 C 0.55347 0.31819 0.14323 0.0
C1903 C 0.56902 0.33736 0.19431 0.0
N1904 N 0.55255 0.35107 0.10761 0.0
N1905 N 0.56816 0.35194 0.17654 0.0
H1906 H 0.95897 0.24564 0.34173 0.0
H1907 H 0.86907 0.32173 0.32376 0.0
H1908 H 0.97232 0.32262 0.34373 0.0
H1909 H 0.85498 0.24392 0.30793 0.0
H1910 H 0.90704 0.32217 0.33457 0.0
H1911 H 0.9207 0.24429 0.33063 0.0
C1912 C 0.95389 0.26219 0.33947 0.0
C1913 C 0.96884 0.28429 0.34383 0.0
C1914 C 0.89562 0.305 0.3288 0.0
C1915 C 0.92522 0.28294 0.33167 0.0
C1916 C 0.87392 0.30473 0.32284 0.0
C1917 C 0.85885 0.28277 0.31472 0.0
C1918 C 0.90227 0.28317 0.32671 0.0
C1919 C 0.86607 0.26129 0.31392 0.0
C1920 C 0.93205 0.26142 0.33331 0.0
C1921 C 0.96136 0.30518 0.34067 0.0
N1922 N 0.88732 0.26203 0.31971 0.0
N1923 N 0.94006 0.30401 0.33501 0.0
H1924 H 0.03655 0.71279 0.63241 0.0
H1925 H 0.06776 0.58516 0.61447 0.0
H1926 H 0.05687 0.67737 0.6946 0.0
H1927 H 0.04997 0.62113 0.55189 0.0
H1928 H 0.06733 0.62071 0.64419 0.0
H1929 H 0.04314 0.68051 0.60265 0.0
C1930 C 0.04224 0.69814 0.63981 0.0
C1931 C 0.04607 0.69773 0.66605 0.0
C1932 C 0.06383 0.62102 0.62398 0.0
C1933 C 0.05393 0.66092 0.6321 0.0
C1934 C 0.06431 0.6008 0.60698 0.0
C1935 C 0.05876 0.60014 0.58069 0.0
C1936 C 0.05757 0.64068 0.61461 0.0
C1937 C 0.05427 0.62086 0.57203 0.0
C1938 C 0.04617 0.67982 0.62281 0.0
C1939 C 0.0536 0.67839 0.67453 0.0
N1940 N 0.05345 0.64021 0.58898 0.0
N1941 N 0.05727 0.66076 0.65761 0.0
H1942 H 0.55976 0.80437 0.81215 0.0
H1943 H 0.67375 0.77569 0.84329 0.0
H1944 H 0.60509 0.83558 0.88209 0.0
H1945 H 0.64207 0.7702 0.76554 0.0
H1946 H 0.64746 0.79645 0.85762 0.0
H1947 H 0.58859 0.79141 0.7938 0.0
C1948 C 0.57581 0.80887 0.82349 0.0
C1949 C 0.57995 0.82075 0.84885 0.0
C1950 C 0.64627 0.79088 0.8374 0.0
C1951 C 0.61275 0.80569 0.82813 0.0
C1952 C 0.66114 0.77886 0.82926 0.0
C1953 C 0.65981 0.77104 0.80328 0.0
C1954 C 0.62968 0.79479 0.81945 0.0
C1955 C 0.64344 0.77589 0.78577 0.0
C1956 C 0.59222 0.80146 0.813 0.0
C1957 C 0.60106 0.82621 0.86259 0.0
N1958 N 0.62875 0.78722 0.7942 0.0
N1959 N 0.61658 0.8183 0.8522 0.0
H1960 H 0.47839 0.53792 0.72376 0.0
H1961 H 0.49907 0.49638 0.58522 0.0
H1962 H 0.43687 0.47681 0.67178 0.0
H1963 H 0.52472 0.56834 0.62749 0.0
H1964 H 0.47747 0.48752 0.61737 0.0
H1965 H 0.49761 0.54766 0.68985 0.0
C1966 C 0.47338 0.52646 0.70526 0.0
C1967 C 0.45599 0.50649 0.70062 0.0
C1968 C 0.48766 0.50533 0.61946 0.0
C1969 C 0.47794 0.51759 0.66169 0.0
C1970 C 0.4999 0.51043 0.60106 0.0
C1971 C 0.51366 0.53314 0.60368 0.0
C1972 C 0.48946 0.52295 0.64084 0.0
C1973 C 0.51432 0.55059 0.62474 0.0
C1974 C 0.48427 0.53214 0.68586 0.0
C1975 C 0.45016 0.49238 0.6762 0.0
N1976 N 0.50257 0.54505 0.64266 0.0
N1977 N 0.46118 0.49814 0.65768 0.0
H1978 H 0.75872 0.19974 0.05974 0.0
H1979 H 0.73205 0.21146 0.91399 0.0
H1980 H 0.75187 0.14277 0.99636 0.0
H1981 H 0.76018 0.27131 0.97523 0.0
H1982 H 0.72509 0.18542 0.94532 0.0
H1983 H 0.74523 0.22449 0.0301 0.0
C1984 C 0.75369 0.19216 0.03969 0.0
C1985 C 0.75675 0.16943 0.03029 0.0
C1986 C 0.73231 0.20439 0.95186 0.0
C1987 C 0.74144 0.19746 0.99655 0.0
C1988 C 0.73636 0.21922 0.93403 0.0
C1989 C 0.7473 0.24339 0.94207 0.0
C1990 C 0.73934 0.21379 0.97788 0.0
C1991 C 0.75194 0.25271 0.96821 0.0
C1992 C 0.74611 0.20631 0.02281 0.0
C1993 C 0.75008 0.16042 1.00422 0.0
N1994 N 0.74835 0.23774 0.98525 0.0
N1995 N 0.743 0.1746 0.98818 0.0
H1996 H 0.11394 0.48712 0.24652 0.0
H1997 H 0.09457 0.54984 0.12075 0.0
H1998 H 0.15953 0.54567 0.23005 0.0
H1999 H 0.05036 0.48742 0.13194 0.0
H2000 H 0.11801 0.54874 0.16107 0.0
H2001 H 0.09001 0.48707 0.20583 0.0
C2002 C 0.11902 0.49997 0.23457 0.0
C2003 C 0.13911 0.51638 0.24227 0.0
C2004 C 0.1032 0.53519 0.15475 0.0
C2005 C 0.11141 0.51649 0.19503 0.0
C2006 C 0.08977 0.53578 0.13148 0.0
C2007 C 0.07029 0.51864 0.12242 0.0
C2008 C 0.09731 0.5174 0.16964 0.0
C2009 C 0.06513 0.50106 0.13782 0.0
C2010 C 0.10528 0.49993 0.21116 0.0
C2011 C 0.14443 0.53253 0.22542 0.0
N2012 N 0.07835 0.50094 0.16039 0.0
N2013 N 0.13087 0.53217 0.20305 0.0
H2014 H 0.76438 0.84063 0.49929 0.0
H2015 H 0.83174 0.81231 0.39154 0.0
H2016 H 0.83293 0.86526 0.50942 0.0
H2017 H 0.76266 0.79422 0.3785 0.0
H2018 H 0.83259 0.82878 0.43584 0.0
H2019 H 0.76357 0.82068 0.45611 0.0
C2020 C 0.77928 0.84176 0.49252 0.0
C2021 C 0.79874 0.85474 0.50805 0.0
C2022 C 0.81724 0.82112 0.42332 0.0
C2023 C 0.79792 0.83191 0.45853 0.0
C2024 C 0.81674 0.81163 0.39799 0.0
C2025 C 0.7971 0.80191 0.38113 0.0
C2026 C 0.79797 0.82088 0.43201 0.0
C2027 C 0.77819 0.80158 0.3907 0.0
C2028 C 0.77879 0.83039 0.46781 0.0
C2029 C 0.81753 0.85555 0.49816 0.0
N2030 N 0.77911 0.81099 0.41543 0.0
N2031 N 0.81664 0.84435 0.47408 0.0
H2032 H 0.45879 0.5446 0.85138 0.0
H2033 H 0.53178 0.49822 0.95711 0.0
H2034 H 0.50242 0.50005 0.83391 0.0
H2035 H 0.50925 0.56304 0.97443 0.0
H2036 H 0.51945 0.49749 0.91192 0.0
H2037 H 0.47545 0.55082 0.89654 0.0
C2038 C 0.47196 0.53627 0.85701 0.0
C2039 C 0.47914 0.52164 0.83885 0.0
C2040 C 0.51733 0.512 0.92554 0.0
C2041 C 0.49804 0.5285 0.89042 0.0
C2042 C 0.52426 0.51236 0.95138 0.0
C2043 C 0.5214 0.53064 0.96957 0.0
C2044 C 0.50706 0.52979 0.91772 0.0
C2045 C 0.51177 0.54864 0.96101 0.0
C2046 C 0.48149 0.53991 0.88275 0.0
C2047 C 0.49633 0.51142 0.84721 0.0
N2048 N 0.50466 0.5476 0.93565 0.0
N2049 N 0.50501 0.5148 0.8724 0.0
H2050 H 0.83584 0.18023 0.1351 0.0
H2051 H 0.79963 0.29735 0.19178 0.0
H2052 H 0.81502 0.23003 0.08888 0.0
H2053 H 0.82839 0.25212 0.23779 0.0
H2054 H 0.80735 0.27471 0.15393 0.0
H2055 H 0.83597 0.20828 0.17318 0.0
C2056 C 0.83159 0.19724 0.13298 0.0
C2057 C 0.8252 0.2027 0.10879 0.0
C2058 C 0.81208 0.26985 0.17234 0.0
C2059 C 0.82496 0.23475 0.15229 0.0
C2060 C 0.80763 0.28272 0.19387 0.0
C2061 C 0.81305 0.27626 0.21775 0.0
C2062 C 0.82196 0.25042 0.17485 0.0
C2063 C 0.82356 0.25735 0.2196 0.0
C2064 C 0.83163 0.21324 0.15473 0.0
C2065 C 0.81998 0.22506 0.10716 0.0
N2066 N 0.82752 0.24496 0.1984 0.0
N2067 N 0.81968 0.24014 0.12863 0.0
H2068 H 0.16063 0.51616 0.40906 0.0
H2069 H 0.05278 0.52857 0.46375 0.0
H2070 H 0.10078 0.51991 0.36377 0.0
H2071 H 0.11182 0.53125 0.51466 0.0
H2072 H 0.07087 0.52441 0.42771 0.0
H2073 H 0.14441 0.52041 0.44757 0.0
C2074 C 0.14415 0.51777 0.40696 0.0
C2075 C 0.13234 0.51759 0.38243 0.0
C2076 C 0.08007 0.52592 0.44667 0.0
C2077 C 0.11331 0.52256 0.42729 0.0
C2078 C 0.06961 0.52836 0.4676 0.0
C2079 C 0.08046 0.53042 0.49297 0.0
C2080 C 0.10196 0.52531 0.45029 0.0
C2081 C 0.10247 0.52986 0.49581 0.0
C2082 C 0.13483 0.52028 0.42917 0.0
C2083 C 0.11093 0.5199 0.38175 0.0
N2084 N 0.11232 0.52735 0.47502 0.0
N2085 N 0.10237 0.52219 0.40334 0.0
H2086 H 0.83783 0.89989 0.68454 0.0
H2087 H 0.77587 0.7714 0.70684 0.0
H2088 H 0.80433 0.84164 0.62362 0.0
H2089 H 0.81314 0.82705 0.76815 0.0
H2090 H 0.78705 0.79661 0.67624 0.0
H2091 H 0.82995 0.87347 0.71538 0.0
C2092 C 0.82889 0.88152 0.67758 0.0
C2093 C 0.8217 0.87308 0.65133 0.0
C2094 C 0.79302 0.80329 0.69636 0.0
C2095 C 0.81252 0.84262 0.68676 0.0
C2096 C 0.78666 0.78886 0.71387 0.0
C2097 C 0.79384 0.79698 0.74011 0.0
C2098 C 0.80651 0.82628 0.70506 0.0
C2099 C 0.80764 0.81984 0.74811 0.0
C2100 C 0.8244 0.86642 0.69527 0.0
C2101 C 0.81021 0.84903 0.6436 0.0
N2102 N 0.81342 0.83375 0.73068 0.0
N2103 N 0.80591 0.83475 0.66119 0.0
H2104 H 0.74605 0.44578 0.57006 0.0
H2105 H 0.62882 0.45658 0.58156 0.0
H2106 H 0.69077 0.38684 0.54336 0.0
H2107 H 0.68522 0.51312 0.6125 0.0
H2108 H 0.65157 0.42803 0.57553 0.0
H2109 H 0.72481 0.46771 0.5933 0.0
C2110 C 0.72942 0.43737 0.56928 0.0
C2111 C 0.71997 0.41472 0.5543 0.0
C2112 C 0.65899 0.44655 0.58413 0.0
C2113 C 0.69546 0.43985 0.58071 0.0
C2114 C 0.64602 0.46283 0.58754 0.0
C2115 C 0.65527 0.48728 0.59698 0.0
C2116 C 0.68133 0.45491 0.58992 0.0
C2117 C 0.67752 0.49444 0.60494 0.0
C2118 C 0.71732 0.44986 0.58267 0.0
C2119 C 0.69855 0.40442 0.55444 0.0
N2120 N 0.68984 0.47841 0.60074 0.0
N2121 N 0.68685 0.41729 0.56705 0.0
H2122 H 0.2003 0.09856 0.49932 0.0
H2123 H 0.10401 0.06835 0.57509 0.0
H2124 H 0.20439 0.12634 0.57858 0.0
H2125 H 0.10344 0.02919 0.50113 0.0
H2126 H 0.13944 0.09284 0.57471 0.0
H2127 H 0.16362 0.07575 0.49771 0.0
C2128 C 0.19353 0.09992 0.51634 0.0
C2129 C 0.20559 0.11436 0.53914 0.0
C2130 C 0.13156 0.07894 0.5585 0.0
C2131 C 0.16353 0.08845 0.53739 0.0
C2132 C 0.11128 0.06502 0.55869 0.0
C2133 C 0.10078 0.04662 0.53817 0.0
C2134 C 0.14147 0.07459 0.53757 0.0
C2135 C 0.11101 0.04312 0.51741 0.0
C2136 C 0.17259 0.08688 0.51542 0.0
C2137 C 0.19587 0.11539 0.56058 0.0
N2138 N 0.13075 0.05691 0.51764 0.0
N2139 N 0.17553 0.10272 0.55916 0.0
H2140 H 0.15919 0.96497 0.85302 0.0
H2141 H 0.27703 0.94613 0.84674 0.0
H2142 H 0.20927 0.01853 0.836 0.0
H2143 H 0.22403 0.88827 0.84928 0.0
H2144 H 0.25318 0.97392 0.84689 0.0
H2145 H 0.18348 0.93755 0.85561 0.0
C2146 C 0.17529 0.97097 0.84984 0.0
C2147 C 0.18219 0.99406 0.8442 0.0
C2148 C 0.24678 0.95516 0.84748 0.0
C2149 C 0.21007 0.96284 0.84728 0.0
C2150 C 0.26037 0.93924 0.8473 0.0
C2151 C 0.25251 0.91476 0.84778 0.0
C2152 C 0.22513 0.94659 0.84823 0.0
C2153 C 0.23086 0.90702 0.8491 0.0
C2154 C 0.18913 0.95531 0.85131 0.0
C2155 C 0.20323 1.00087 0.84028 0.0
N2156 N 0.21791 0.92287 0.84919 0.0
N2157 N 0.21642 0.98534 0.84193 0.0
H2158 H 0.29533 0.96094 0.98246 0.0
H2159 H 0.41439 0.96199 0.96568 0.0
H2160 H 0.31524 0.89826 0.95016 0.0
H2161 H 0.39279 0.02636 0.98836 0.0
H2162 H 0.37729 0.93906 0.9555 0.0
H2163 H 0.32963 0.98603 0.97976 0.0
C2164 C 0.3068 0.95249 0.97444 0.0
C2165 C 0.30261 0.92742 0.96698 0.0
C2166 C 0.3806 0.95824 0.96242 0.0
C2167 C 0.34196 0.95598 0.96412 0.0
C2168 C 0.40177 0.97128 0.9684 0.0
C2169 C 0.40661 0.99599 0.97822 0.0
C2170 C 0.36416 0.96995 0.96659 0.0
C2171 C 0.3897 1.0073 0.98088 0.0
C2172 C 0.32639 0.96684 0.97291 0.0
C2173 C 0.31791 0.91748 0.95644 0.0
N2174 N 0.3692 0.99412 0.97543 0.0
N2175 N 0.33708 0.93176 0.95571 0.0
H2176 H 0.90149 0.63514 0.8049 0.0
H2177 H 0.79329 0.68762 0.77923 0.0
H2178 H 0.83809 0.59202 0.77324 0.0
H2179 H 0.85477 0.73486 0.81162 0.0
H2180 H 0.81036 0.65327 0.77703 0.0
H2181 H 0.88627 0.67158 0.80767 0.0
C2182 C 0.88445 0.63307 0.7985 0.0
C2183 C 0.87136 0.60972 0.78877 0.0
C2184 C 0.8203 0.67108 0.78461 0.0
C2185 C 0.85342 0.65232 0.79196 0.0
C2186 C 0.81043 0.69103 0.78586 0.0
C2187 C 0.82225 0.71489 0.79558 0.0
C2188 C 0.8426 0.67419 0.79312 0.0
C2189 C 0.84463 0.71722 0.80383 0.0
C2190 C 0.87568 0.65412 0.80011 0.0
C2191 C 0.84926 0.60908 0.78091 0.0
N2192 N 0.85388 0.69746 0.80244 0.0
N2193 N 0.84127 0.62955 0.78267 0.0
H2194 H 0.80588 0.59178 0.02951 0.0
H2195 H 0.93332 0.60666 0.04579 0.0
H2196 H 0.85062 0.65933 0.03383 0.0
H2197 H 0.88983 0.53943 0.04642 0.0
H2198 H 0.90295 0.62581 0.04024 0.0
H2199 H 0.836 0.57179 0.03413 0.0
C2200 C 0.82198 0.60241 0.03134 0.0
C2201 C 0.82563 0.62733 0.03129 0.0
C2202 C 0.90002 0.60685 0.04156 0.0
C2203 C 0.86026 0.60453 0.03663 0.0
C2204 C 0.91743 0.59589 0.0449 0.0
C2205 C 0.91431 0.5713 0.04665 0.0
C2206 C 0.87915 0.59323 0.03992 0.0
C2207 C 0.89314 0.55832 0.04485 0.0
C2208 C 0.8392 0.59098 0.03402 0.0
C2209 C 0.84692 0.64012 0.03378 0.0
N2210 N 0.87644 0.56941 0.04162 0.0
N2211 N 0.86333 0.62862 0.03635 0.0
H2212 H 0.16848 0.13968 0.79915 0.0
H2213 H 0.28774 0.21663 0.85714 0.0
H2214 H 0.2105 0.11977 0.85912 0.0
H2215 H 0.25126 0.22213 0.78492 0.0
H2216 H 0.25808 0.18465 0.86198 0.0
H2217 H 0.19691 0.1742 0.79807 0.0
C2218 C 0.18362 0.14266 0.81227 0.0
C2219 C 0.18714 0.12665 0.82912 0.0
C2220 C 0.25654 0.19301 0.84518 0.0
C2221 C 0.21984 0.16619 0.82789 0.0
C2222 C 0.27343 0.2112 0.84241 0.0
C2223 C 0.27177 0.22222 0.82077 0.0
C2224 C 0.23788 0.18593 0.8262 0.0
C2225 C 0.25296 0.21452 0.80219 0.0
C2226 C 0.19988 0.16233 0.81155 0.0
C2227 C 0.20711 0.13154 0.8457 0.0
N2228 N 0.23675 0.1969 0.80535 0.0
N2229 N 0.22274 0.15083 0.84461 0.0
H2230 H 0.36776 0.98626 0.31331 0.0
H2231 H 0.33283 0.8424 0.2591 0.0
H2232 H 0.39077 0.9516 0.25115 0.0
H2233 H 0.32292 0.87249 0.33239 0.0
H2234 H 0.35066 0.88286 0.25389 0.0
H2235 H 0.34798 0.94621 0.31847 0.0
C2236 C 0.36849 0.97042 0.30049 0.0
C2237 C 0.38112 0.97278 0.28165 0.0
C2238 C 0.34459 0.88072 0.27115 0.0
C2239 C 0.35824 0.92624 0.28754 0.0
C2240 C 0.33429 0.85742 0.27416 0.0
C2241 C 0.32622 0.85349 0.29633 0.0
C2242 C 0.34684 0.90089 0.29024 0.0
C2243 C 0.32884 0.87421 0.31498 0.0
C2244 C 0.35726 0.94739 0.30359 0.0
C2245 C 0.38142 0.95111 0.26598 0.0
N2246 N 0.33873 0.89673 0.3115 0.0
N2247 N 0.37027 0.92916 0.2692 0.0
H2248 H 0.61313 0.39026 0.64922 0.0
H2249 H 0.52704 0.43706 0.55591 0.0
H2250 H 0.55126 0.34592 0.61207 0.0
H2251 H 0.59023 0.47968 0.59049 0.0
H2252 H 0.53595 0.4031 0.57487 0.0
H2253 H 0.60541 0.42254 0.62661 0.0
C2254 C 0.59792 0.38722 0.63624 0.0
C2255 C 0.58281 0.36523 0.63269 0.0
C2256 C 0.54793 0.41982 0.57817 0.0
C2257 C 0.57376 0.40248 0.60667 0.0
C2258 C 0.54286 0.43928 0.5673 0.0
C2259 C 0.55787 0.46142 0.57153 0.0
C2260 C 0.56817 0.4224 0.59356 0.0
C2261 C 0.57811 0.46305 0.58655 0.0
C2262 C 0.59352 0.40574 0.62329 0.0
C2263 C 0.56342 0.36249 0.61548 0.0
N2264 N 0.58258 0.44393 0.59707 0.0
N2265 N 0.55942 0.38089 0.60326 0.0
H2266 H 0.43863 0.78813 0.43907 0.0
H2267 H 0.34905 0.73028 0.31437 0.0
H2268 H 0.44789 0.73583 0.37933 0.0
H2269 H 0.35002 0.79798 0.36022 0.0
H2270 H 0.38311 0.72922 0.34064 0.0
H2271 H 0.40438 0.78919 0.41318 0.0
C2272 C 0.43345 0.77675 0.42054 0.0
C2273 C 0.44626 0.7618 0.41145 0.0
C2274 C 0.37591 0.74432 0.345 0.0
C2275 C 0.40674 0.7629 0.38164 0.0
C2276 C 0.35637 0.74492 0.33007 0.0
C2277 C 0.34661 0.76431 0.33503 0.0
C2278 C 0.38579 0.76307 0.36543 0.0
C2279 C 0.35694 0.78271 0.35568 0.0
C2280 C 0.41388 0.77748 0.40571 0.0
C2281 C 0.43864 0.74764 0.38716 0.0
N2282 N 0.3759 0.78159 0.37016 0.0
N2283 N 0.41936 0.74843 0.3732 0.0
H2284 H 0.08709 0.73477 0.12625 0.0
H2285 H 0.0146 0.60188 0.07238 0.0
H2286 H 0.01811 0.71724 0.11482 0.0
H2287 H 0.08319 0.61984 0.07866 0.0
H2288 H 0.01561 0.64421 0.08679 0.0
H2289 H 0.08602 0.6932 0.10782 0.0
C2290 C 0.07169 0.72225 0.11973 0.0
C2291 C 0.05265 0.72961 0.12219 0.0
C2292 C 0.03045 0.63896 0.08493 0.0
C2293 C 0.05134 0.68176 0.10114 0.0
C2294 C 0.0299 0.6147 0.0767 0.0
C2295 C 0.04886 0.60711 0.07438 0.0
C2296 C 0.05012 0.65594 0.09106 0.0
C2297 C 0.06816 0.62475 0.08014 0.0
C2298 C 0.07111 0.69847 0.10921 0.0
C2299 C 0.03321 0.71248 0.11337 0.0
N2300 N 0.06829 0.64826 0.08833 0.0
N2301 N 0.03307 0.68941 0.10339 0.0
H2302 H 0.05651 0.26683 0.87838 0.0
H2303 H 0.18172 0.26826 0.88921 0.0
H2304 H 0.09764 0.25876 0.94635 0.0
H2305 H 0.14178 0.27832 0.8213 0.0
H2306 H 0.15071 0.26357 0.90985 0.0
H2307 H 0.08708 0.27009 0.85663 0.0
C2308 C 0.0719 0.26566 0.88872 0.0
C2309 C 0.07442 0.26253 0.9143 0.0
C2310 C 0.1487 0.2668 0.89042 0.0
C2311 C 0.10956 0.26629 0.88949 0.0
C2312 C 0.16644 0.26935 0.87854 0.0
C2313 C 0.16453 0.27378 0.85341 0.0
C2314 C 0.12873 0.2686 0.87717 0.0
C2315 C 0.14422 0.27532 0.84079 0.0
C2316 C 0.08938 0.26756 0.8763 0.0
C2317 C 0.09483 0.2612 0.92668 0.0
N2318 N 0.12719 0.27275 0.85276 0.0
N2319 N 0.11152 0.2631 0.91421 0.0
H2320 H 0.55132 0.762 0.91689 0.0
H2321 H 0.49984 0.66487 0.99475 0.0
H2322 H 0.49041 0.76029 0.93957 0.0
H2323 H 0.56743 0.68252 0.99407 0.0
H2324 H 0.49492 0.69677 0.9702 0.0
H2325 H 0.55647 0.72996 0.94119 0.0
C2326 C 0.53904 0.75488 0.92698 0.0
C2327 C 0.52041 0.7638 0.92626 0.0
C2328 C 0.51083 0.69368 0.97543 0.0
C2329 C 0.52614 0.72713 0.95384 0.0
C2330 C 0.51361 0.67539 0.98925 0.0
C2331 C 0.53406 0.6711 0.99635 0.0
C2332 C 0.52859 0.70758 0.96844 0.0
C2333 C 0.55143 0.68541 0.98907 0.0
C2334 C 0.54202 0.73667 0.94088 0.0
C2335 C 0.50504 0.75399 0.93972 0.0
N2336 N 0.54829 0.703 0.97538 0.0
N2337 N 0.50819 0.73607 0.95286 0.0
H2338 H 0.12193 0.7517 0.68857 0.0
H2339 H 0.23221 0.81985 0.78036 0.0
H2340 H 0.12648 0.78812 0.7651 0.0
H2341 H 0.22686 0.75622 0.7251 0.0
H2342 H 0.19407 0.81731 0.76675 0.0
H2343 H 0.16107 0.76161 0.6948 0.0
C2344 C 0.13117 0.76197 0.7066 0.0
C2345 C 0.12104 0.76894 0.72648 0.0
C2346 C 0.20137 0.80418 0.75735 0.0
C2347 C 0.16555 0.78064 0.73341 0.0
C2348 C 0.22318 0.80568 0.76491 0.0
C2349 C 0.23267 0.78794 0.75411 0.0
C2350 C 0.18908 0.78505 0.73864 0.0
C2351 C 0.22011 0.77008 0.73415 0.0
C2352 C 0.15343 0.76757 0.71009 0.0
C2353 C 0.13371 0.78219 0.74943 0.0
N2354 N 0.19884 0.76893 0.72718 0.0
N2355 N 0.15537 0.78765 0.75227 0.0
H2356 H 0.04706 0.36492 0.45976 0.0
H2357 H 1.00992 0.48064 0.50255 0.0
H2358 H 0.98567 0.37374 0.42299 0.0
H2359 H 0.04093 0.44555 0.55866 0.0
H2360 H 1.00189 0.44339 0.47168 0.0
H2361 H 0.04748 0.39685 0.49482 0.0
C2362 C 0.03373 0.37366 0.45905 0.0
C2363 C 0.01638 0.36695 0.43845 0.0
C2364 C 1.00999 0.44371 0.49094 0.0
C2365 C 0.0168 0.4032 0.47823 0.0
C2366 C 0.01447 0.46488 0.50857 0.0
C2367 C 0.02597 0.46606 0.53316 0.0
C2368 C 0.01774 0.42396 0.49777 0.0
C2369 C 0.03193 0.44529 0.53988 0.0
C2370 C 0.03386 0.39159 0.47915 0.0
C2371 C 0.99936 0.37854 0.43855 0.0
N2372 N 0.02818 0.42514 0.52204 0.0
N2373 N 1.00013 0.39644 0.45801 0.0
H2374 H 0.51802 0.25712 0.28152 0.0
H2375 H 0.41385 0.3101 0.25792 0.0
H2376 H 0.47887 0.25156 0.20739 0.0
H2377 H 0.44004 0.29613 0.33165 0.0
H2378 H 0.43998 0.29182 0.23979 0.0
H2379 H 0.49113 0.27312 0.301 0.0
C2380 C 0.50366 0.25897 0.26937 0.0
C2381 C 0.50074 0.25318 0.24278 0.0
C2382 C 0.44007 0.29278 0.25995 0.0
C2383 C 0.47024 0.27178 0.26487 0.0
C2384 C 0.42535 0.30351 0.27037 0.0
C2385 C 0.42494 0.30479 0.29635 0.0
C2386 C 0.45459 0.28338 0.27563 0.0
C2387 C 0.43987 0.29544 0.31151 0.0
C2388 C 0.48838 0.26815 0.28049 0.0
C2389 C 0.48184 0.25587 0.22795 0.0
N2390 N 0.45419 0.28516 0.30092 0.0
N2391 N 0.46742 0.26524 0.23919 0.0
H2392 H 0.65014 0.58072 0.42961 0.0
H2393 H 0.56122 0.48321 0.46999 0.0
H2394 H 0.60795 0.52089 0.37649 0.0
H2395 H 0.58724 0.55455 0.51362 0.0
H2396 H 0.58296 0.49363 0.43832 0.0
H2397 H 0.63138 0.56853 0.46322 0.0
C2398 C 0.63693 0.56504 0.42501 0.0
C2399 C 0.63052 0.55189 0.40017 0.0
C2400 C 0.58403 0.50691 0.45496 0.0
C2401 C 0.60924 0.53767 0.43859 0.0
C2402 C 0.57175 0.50093 0.4731 0.0
C2403 C 0.57242 0.51808 0.49441 0.0
C2404 C 0.59722 0.53011 0.45833 0.0
C2405 C 0.58631 0.54078 0.49751 0.0
C2406 C 0.62625 0.5581 0.44419 0.0
C2407 C 0.61332 0.53168 0.39532 0.0
N2408 N 0.59813 0.54617 0.47962 0.0
N2409 N 0.60333 0.52513 0.41437 0.0
H2410 H 0.28347 0.84359 0.03415 0.0
H2411 H 0.3354 0.84945 0.17874 0.0
H2412 H 0.31388 0.91004 0.08576 0.0
H2413 H 0.30565 0.78358 0.12591 0.0
H2414 H 0.33398 0.87168 0.14321 0.0
H2415 H 0.29778 0.82122 0.06544 0.0
C2416 C 0.29336 0.85349 0.052 0.0
C2417 C 0.29714 0.87868 0.05761 0.0
C2418 C 0.32811 0.85231 0.13934 0.0
C2419 C 0.31342 0.85317 0.09364 0.0
C2420 C 0.32885 0.83963 0.15962 0.0
C2421 C 0.32027 0.8147 0.15531 0.0
C2422 C 0.31857 0.83995 0.11466 0.0
C2423 C 0.31243 0.80278 0.13014 0.0
C2424 C 0.30158 0.84071 0.06985 0.0
C2425 C 0.31037 0.8906 0.08081 0.0
N2426 N 0.31145 0.81558 0.11082 0.0
N2427 N 0.31775 0.8777 0.0982 0.0
H2428 H 0.94293 0.56439 0.88254 0.0
H2429 H 0.04689 0.53158 0.96035 0.0
H2430 H 0.98044 0.51965 0.84909 0.0
H2431 H 0.99716 0.5465 0.99958 0.0
H2432 H 0.0244 0.53279 0.91998 0.0
H2433 H 0.9638 0.56399 0.92522 0.0
C2434 C 0.95567 0.55477 0.88398 0.0
C2435 C 0.95983 0.54216 0.86171 0.0
C2436 C 0.01821 0.53576 0.93728 0.0
C2437 C 0.98401 0.54164 0.911 0.0
C2438 C 0.03114 0.53504 0.96058 0.0
C2439 C 0.0241 0.53869 0.98381 0.0
C2440 C 0.99783 0.54078 0.93652 0.0
C2441 C 1.00337 0.54326 0.98234 0.0
C2442 C 0.96748 0.55434 0.9085 0.0
C2443 C 0.97646 0.52973 0.86532 0.0
N2444 N 0.99112 0.54438 0.95927 0.0
N2445 N 0.98783 0.52998 0.88906 0.0
H2446 H 0.32377 0.21164 0.60976 0.0
H2447 H 0.25691 0.24813 0.71525 0.0
H2448 H 0.2547 0.19562 0.59606 0.0
H2449 H 0.32595 0.26308 0.72806 0.0
H2450 H 0.25559 0.23113 0.67085 0.0
H2451 H 0.32468 0.23281 0.6523 0.0
C2452 C 0.30877 0.21268 0.61561 0.0
C2453 C 0.28912 0.2017 0.59926 0.0
C2454 C 0.27102 0.23825 0.68336 0.0
C2455 C 0.29005 0.22592 0.64824 0.0
C2456 C 0.27179 0.24802 0.70874 0.0
C2457 C 0.29157 0.25698 0.72557 0.0
C2458 C 0.29015 0.23741 0.67468 0.0
C2459 C 0.31031 0.2563 0.71594 0.0
C2460 C 0.3093 0.22478 0.63998 0.0
C2461 C 0.27023 0.20376 0.60798 0.0
N2462 N 0.30912 0.24662 0.69125 0.0
N2463 N 0.27116 0.2155 0.6319 0.0
H2464 H 0.61551 0.56843 0.25801 0.0
H2465 H 0.56593 0.48989 0.11943 0.0
H2466 H 0.61267 0.4923 0.23988 0.0
H2467 H 0.57461 0.56717 0.13669 0.0
H2468 H 0.58137 0.48992 0.1638 0.0
H2469 H 0.59858 0.56772 0.2141 0.0
C2470 C 0.61122 0.55152 0.24484 0.0
C2471 C 0.61558 0.53039 0.25268 0.0
C2472 C 0.57989 0.50686 0.15786 0.0
C2473 C 0.59623 0.52948 0.2022 0.0
C2474 C 0.57107 0.50687 0.1325 0.0
C2475 C 0.56897 0.52858 0.12423 0.0
C2476 C 0.5866 0.52868 0.17514 0.0
C2477 C 0.57594 0.55 0.1421 0.0
C2478 C 0.6016 0.55114 0.21971 0.0
C2479 C 0.60966 0.50902 0.2347 0.0
N2480 N 0.58441 0.54949 0.16666 0.0
N2481 N 0.60033 0.50913 0.21031 0.0
H2482 H 0.21721 0.85837 0.92568 0.0
H2483 H 0.26104 0.74628 0.87058 0.0
H2484 H 0.23289 0.80491 0.96997 0.0
H2485 H 0.24936 0.80378 0.83038 0.0
H2486 H 0.24454 0.76294 0.90467 0.0
H2487 H 0.22131 0.83326 0.88765 0.0
C2488 C 0.22102 0.84107 0.92732 0.0
C2489 C 0.2252 0.83398 0.95112 0.0
C2490 C 0.24541 0.77172 0.88823 0.0
C2491 C 0.23038 0.80535 0.90774 0.0
C2492 C 0.25487 0.76228 0.8689 0.0
C2493 C 0.25681 0.77391 0.84794 0.0
C2494 C 0.23782 0.7928 0.88636 0.0
C2495 C 0.24844 0.79444 0.84642 0.0
C2496 C 0.2235 0.82678 0.9056 0.0
C2497 C 0.22981 0.81124 0.95204 0.0
N2498 N 0.23945 0.8033 0.86543 0.0
N2499 N 0.23273 0.79792 0.93071 0.0
H2500 H 0.9889 0.53861 0.74908 0.0
H2501 H 0.97897 0.53899 0.59729 0.0
H2502 H 0.93119 0.54808 0.70375 0.0
H2503 H 0.03448 0.52974 0.64708 0.0
H2504 H 0.96078 0.5422 0.63404 0.0
H2505 H 1.00473 0.5354 0.71131 0.0
C2506 C 0.97934 0.54006 0.73122 0.0
C2507 C 0.95834 0.5437 0.73037 0.0
C2508 C 0.97692 0.53942 0.63695 0.0
C2509 C 0.97715 0.53987 0.68542 0.0
C2510 C 0.98743 0.53751 0.61577 0.0
C2511 C 1.00859 0.53394 0.61847 0.0
C2512 C 0.98742 0.53782 0.66153 0.0
C2513 C 0.01832 0.5324 0.64343 0.0
C2514 C 0.9886 0.53818 0.70934 0.0
C2515 C 0.94732 0.54532 0.70595 0.0
N2516 N 1.00783 0.53432 0.66351 0.0
N2517 N 0.95676 0.54342 0.68474 0.0
H2518 H 0.29503 0.18779 0.46739 0.0
H2519 H 0.25996 0.26494 0.36055 0.0
H2520 H 0.23279 0.2046 0.45435 0.0
H2521 H 0.32294 0.25115 0.37938 0.0
H2522 H 0.24873 0.24185 0.39329 0.0
H2523 H 0.30464 0.20977 0.43379 0.0
C2524 C 0.28333 0.19606 0.45745 0.0
C2525 C 0.26306 0.19429 0.46386 0.0
C2526 C 0.26501 0.24391 0.39023 0.0
C2527 C 0.27403 0.21973 0.42504 0.0
C2528 C 0.27138 0.25704 0.37152 0.0
C2529 C 0.29241 0.25998 0.36723 0.0
C2530 C 0.27979 0.23367 0.4047 0.0
C2531 C 0.30658 0.24943 0.38205 0.0
C2532 C 0.28885 0.20868 0.43821 0.0
C2533 C 0.24862 0.20547 0.45016 0.0
N2534 N 0.30004 0.23682 0.4 0.0
N2535 N 0.25438 0.21769 0.43145 0.0
H2536 H 0.3555 0.60289 0.55809 0.0
H2537 H 0.44787 0.58483 0.4889 0.0
H2538 H 0.39243 0.66149 0.53047 0.0
H2539 H 0.39644 0.52607 0.49297 0.0
H2540 H 0.4254 0.61311 0.49769 0.0
H2541 H 0.36788 0.57437 0.5299 0.0
C2542 C 0.36621 0.60973 0.546 0.0
C2543 C 0.37337 0.63456 0.54697 0.0
C2544 C 0.41872 0.59399 0.49583 0.0
C2545 C 0.38762 0.60201 0.51462 0.0
C2546 C 0.4315 0.57789 0.49068 0.0
C2547 C 0.42394 0.55326 0.49054 0.0
C2548 C 0.39854 0.58533 0.50149 0.0
C2549 C 0.40276 0.545 0.49303 0.0
C2550 C 0.37307 0.59343 0.52967 0.0
C2551 C 0.3868 0.64246 0.53048 0.0
N2552 N 0.39093 0.5611 0.49909 0.0
N2553 N 0.39387 0.62621 0.5153 0.0
H2554 H 0.88541 0.96251 0.60122 0.0
H2555 H 0.9891 0.97126 0.53657 0.0
H2556 H 0.89597 0.90357 0.55023 0.0
H2557 H 0.98566 0.02231 0.60098 0.0
H2558 H 0.95399 0.94725 0.53934 0.0
H2559 H 0.92101 0.98601 0.59942 0.0
C2560 C 0.89516 0.95449 0.58968 0.0
C2561 C 0.88759 0.93095 0.57592 0.0
C2562 C 0.96095 0.96368 0.55292 0.0
C2563 C 0.92836 0.95785 0.57358 0.0
C2564 C 0.98102 0.97737 0.55134 0.0
C2565 C 0.99037 0.99882 0.56856 0.0
C2566 C 0.95 0.97164 0.57168 0.0
C2567 C 0.97908 1.00589 0.58728 0.0
C2568 C 0.91552 0.9679 0.58868 0.0
C2569 C 0.90105 0.92157 0.56127 0.0
N2570 N 0.95951 0.99247 0.58825 0.0
N2571 N 0.92062 0.93502 0.5604 0.0
H2572 H 0.88026 0.03863 0.25755 0.0
H2573 H 0.86494 0.17322 0.2877 0.0
H2574 H 0.92813 0.09675 0.30646 0.0
H2575 H 0.81304 0.1126 0.25187 0.0
H2576 H 0.88895 0.14584 0.29236 0.0
H2577 H 0.85604 0.0659 0.25281 0.0
C2578 C 0.88568 0.05712 0.26731 0.0
C2579 C 0.90626 0.06543 0.28244 0.0
C2580 C 0.8723 0.13852 0.28352 0.0
C2581 C 0.87864 0.09671 0.277 0.0
C2582 C 0.85853 0.15413 0.28096 0.0
C2583 C 0.83686 0.1452 0.26953 0.0
C2584 C 0.86443 0.11377 0.27444 0.0
C2585 C 0.82964 0.12033 0.26059 0.0
C2586 C 0.87182 0.07266 0.26462 0.0
C2587 C 0.9124 0.08955 0.29465 0.0
N2588 N 0.8434 0.10548 0.26324 0.0
N2589 N 0.89867 0.10437 0.2916 0.0
H2590 H 0.774 0.061 0.0615 0.0
H2591 H 0.68589 0.03513 0.1447 0.0
H2592 H 0.77926 0.09838 0.13778 0.0
H2593 H 0.6802 0.99883 0.06785 0.0
H2594 H 0.72403 0.05008 0.14688 0.0
H2595 H 0.74437 0.03049 0.06793 0.0
C2596 C 0.76915 0.06255 0.07979 0.0
C2597 C 0.77868 0.08259 0.09889 0.0
C2598 C 0.71456 0.03843 0.12971 0.0
C2599 C 0.74459 0.04791 0.10626 0.0
C2600 C 0.69275 0.0297 0.1285 0.0
C2601 C 0.67972 0.01611 0.10583 0.0
C2602 C 0.72334 0.03376 0.10801 0.0
C2603 C 0.68954 1.00981 0.08545 0.0
C2604 C 0.75223 0.0451 0.08346 0.0
C2605 C 0.7721 0.08343 0.12238 0.0
N2606 N 0.7107 0.01907 0.08686 0.0
N2607 N 0.75511 0.06661 0.12522 0.0
H2608 H 0.17358 0.4063 0.31248 0.0
H2609 H 0.28766 0.36746 0.31467 0.0
H2610 H 0.23209 0.45947 0.31923 0.0
H2611 H 0.22744 0.31732 0.30801 0.0
H2612 H 0.26893 0.40087 0.31656 0.0
H2613 H 0.19358 0.3747 0.31104 0.0
C2614 C 0.1907 0.41167 0.31369 0.0
C2615 C 0.20068 0.43642 0.31602 0.0
C2616 C 0.25972 0.38261 0.31472 0.0
C2617 C 0.2246 0.39857 0.3143 0.0
C2618 C 0.27052 0.36323 0.31366 0.0
C2619 C 0.25949 0.33883 0.31122 0.0
C2620 C 0.23732 0.37821 0.31335 0.0
C2621 C 0.23707 0.33538 0.30995 0.0
C2622 C 0.20226 0.39318 0.31284 0.0
C2623 C 0.22321 0.44109 0.31743 0.0
N2624 N 0.22703 0.35445 0.31101 0.0
N2625 N 0.23418 0.42263 0.31656 0.0
H2626 H 0.23875 0.40262 0.08738 0.0
H2627 H 0.202 0.52396 0.06289 0.0
H2628 H 0.28227 0.46568 0.0758 0.0
H2629 H 0.16117 0.46281 0.08218 0.0
H2630 H 0.23147 0.50328 0.06726 0.0
H2631 H 0.21024 0.42451 0.08494 0.0
C2632 C 0.24237 0.42112 0.08435 0.0
C2633 C 0.26305 0.43225 0.08176 0.0
C2634 C 0.21608 0.49442 0.0706 0.0
C2635 C 0.23014 0.4576 0.07887 0.0
C2636 C 0.1992 0.50629 0.06827 0.0
C2637 C 0.17888 0.49522 0.07216 0.0
C2638 C 0.21274 0.47117 0.0768 0.0
C2639 C 0.17634 0.47204 0.07859 0.0
C2640 C 0.22601 0.43365 0.08298 0.0
C2641 C 0.26663 0.45633 0.07792 0.0
N2642 N 0.19298 0.46085 0.08065 0.0
N2643 N 0.25034 0.46815 0.07651 0.0
H2644 H 0.90346 0.94513 0.3319 0.0
H2645 H 0.80385 0.84416 0.25204 0.0
H2646 H 0.88603 0.93595 0.2501 0.0
H2647 H 0.83515 0.841 0.32783 0.0
H2648 H 0.8323 0.87916 0.25111 0.0
H2649 H 0.87704 0.90819 0.33109 0.0
C2650 C 0.89412 0.93528 0.31374 0.0
C2651 C 0.89691 0.94365 0.29104 0.0
C2652 C 0.83299 0.87067 0.26785 0.0
C2653 C 0.86646 0.90144 0.28999 0.0
C2654 C 0.81675 0.85083 0.26842 0.0
C2655 C 0.81726 0.83976 0.29002 0.0
C2656 C 0.84958 0.87965 0.28921 0.0
C2657 C 0.83428 0.84897 0.31075 0.0
C2658 C 0.87907 0.91415 0.31329 0.0
C2659 C 0.88442 0.93009 0.26804 0.0
N2660 N 0.84968 0.86848 0.3099 0.0
N2661 N 0.86957 0.90974 0.26812 0.0
H2662 H 0.69744 0.1084 0.85811 0.0
H2663 H 0.7674 0.18844 0.77588 0.0
H2664 H 0.72066 0.07574 0.79499 0.0
H2665 H 0.75442 0.21719 0.84798 0.0
H2666 H 0.74955 0.14785 0.781 0.0
H2667 H 0.71706 0.14798 0.85337 0.0
C2668 C 0.70675 0.10938 0.84323 0.0
C2669 C 0.70721 0.08814 0.82704 0.0
C2670 C 0.75062 0.16298 0.79576 0.0
C2671 C 0.72999 0.13465 0.82116 0.0
C2672 C 0.76083 0.18638 0.79283 0.0
C2673 C 0.76266 0.20679 0.8115 0.0
C2674 C 0.74171 0.15949 0.81745 0.0
C2675 C 0.75368 0.20238 0.83301 0.0
C2676 C 0.71805 0.13226 0.84054 0.0
C2677 C 0.71977 0.09125 0.80817 0.0
N2678 N 0.74364 0.17954 0.83525 0.0
N2679 N 0.73041 0.11386 0.80567 0.0
loop_
_geom_bond_atom_site_label_1
_geom_bond_atom_site_label_2
_geom_bond_distance
_geom_bond_site_symmetry_2
_ccdc_geom_bond_type
C0 O1 1.160 . S
C0 O7 1.185 . S
O1 C0 1.160 . S
O2 Zn3 1.899 . S
O2 C10 1.284 . S
Zn3 O2 1.899 . S
Zn3 O4 2.032 . S
Zn3 O7 2.086 . S
Zn3 O12 1.977 1_455 S
O4 Zn3 2.032 . S
O4 C8 1.278 . S
C5 O6 1.203 . S
C5 O12 1.267 . S
O6 C5 1.203 . S
O7 C0 1.185 . S
O7 Zn3 2.086 . S
C8 O4 1.278 . S
C8 O9 1.211 1_455 S
O9 C8 1.211 1_655 S
C10 O2 1.284 . S
C10 O11 1.273 1_455 S
O11 C10 1.273 1_655 S
O12 Zn3 1.977 1_655 S
O12 C5 1.267 . S
C13 O14 1.160 . S
C13 O20 1.185 . S
O14 C13 1.160 . S
O15 Zn16 1.899 . S
O15 C23 1.284 . S
Zn16 O15 1.899 . S
Zn16 O17 2.032 . S
Zn16 O20 2.086 . S
Zn16 O25 1.977 . S
O17 Zn16 2.032 . S
O17 C21 1.278 . S
C18 O19 1.203 . S
C18 O25 1.267 . S
O19 C18 1.203 . S
O20 C13 1.185 . S
O20 Zn16 2.086 . S
C21 O17 1.278 . S
C21 O22 1.211 . S
O22 C21 1.211 . S
C23 O15 1.284 . S
C23 O24 1.273 . S
O24 C23 1.273 . S
O25 Zn16 1.977 . S
O25 C18 1.267 . S
C26 O27 1.160 . S
C26 O33 1.185 . S
O27 C26 1.160 . S
O28 Zn29 1.899 . S
O28 C36 1.284 . S
Zn29 O28 1.899 . S
Zn29 O30 2.032 . S
Zn29 O33 2.086 . S
Zn29 O38 1.977 . S
O30 Zn29 2.032 . S
O30 C34 1.278 . S
C31 O32 1.203 . S
C31 O38 1.267 . S
O32 C31 1.203 . S
O33 C26 1.185 . S
O33 Zn29 2.086 . S
C34 O30 1.278 . S
C34 O35 1.211 . S
O35 C34 1.211 . S
C36 O28 1.284 . S
C36 O37 1.273 . S
O37 C36 1.273 . S
O38 Zn29 1.977 . S
O38 C31 1.267 . S
C39 O40 1.160 . S
C39 O46 1.185 . S
O40 C39 1.160 . S
O41 Zn42 1.899 . S
O41 C49 1.284 . S
Zn42 O41 1.899 . S
Zn42 O43 2.032 . S
Zn42 O46 2.086 . S
Zn42 O51 1.977 . S
O43 Zn42 2.032 . S
O43 C47 1.278 . S
C44 O45 1.203 . S
C44 O51 1.267 . S
O45 C44 1.203 . S
O46 C39 1.185 . S
O46 Zn42 2.086 . S
C47 O43 1.278 . S
C47 O48 1.211 . S
O48 C47 1.211 . S
C49 O41 1.284 . S
C49 O50 1.273 . S
O50 C49 1.273 . S
O51 Zn42 1.977 . S
O51 C44 1.267 . S
C52 O53 1.160 . S
C52 O59 1.185 . S
O53 C52 1.160 . S
O54 Zn55 1.899 . S
O54 C62 1.284 . S
Zn55 O54 1.899 . S
Zn55 O56 2.032 . S
Zn55 O59 2.086 . S
Zn55 O64 1.977 . S
O56 Zn55 2.032 . S
O56 C60 1.278 . S
C57 O58 1.203 . S
C57 O64 1.267 . S
O58 C57 1.203 . S
O59 C52 1.185 . S
O59 Zn55 2.086 . S
C60 O56 1.278 . S
C60 O61 1.211 . S
O61 C60 1.211 . S
C62 O54 1.284 . S
C62 O63 1.273 . S
O63 C62 1.273 . S
O64 Zn55 1.977 . S
O64 C57 1.267 . S
C65 O66 1.160 . S
C65 O72 1.185 . S
O66 C65 1.160 . S
O67 Zn68 1.899 . S
O67 C75 1.284 . S
Zn68 O67 1.899 . S
Zn68 O69 2.032 . S
Zn68 O72 2.086 . S
Zn68 O77 1.977 . S
O69 Zn68 2.032 . S
O69 C73 1.278 . S
C70 O71 1.203 . S
C70 O77 1.267 . S
O71 C70 1.203 . S
O72 C65 1.185 . S
O72 Zn68 2.086 . S
C73 O69 1.278 . S
C73 O74 1.211 . S
O74 C73 1.211 . S
C75 O67 1.284 . S
C75 O76 1.273 . S
O76 C75 1.273 . S
O77 Zn68 1.977 . S
O77 C70 1.267 . S
C78 O79 1.160 . S
C78 O85 1.185 . S
O79 C78 1.160 . S
O80 Zn81 1.899 . S
O80 C88 1.284 . S
Zn81 O80 1.899 . S
Zn81 O82 2.032 . S
Zn81 O85 2.086 . S
Zn81 O90 1.977 . S
O82 Zn81 2.032 . S
O82 C86 1.278 . S
C83 O84 1.203 . S
C83 O90 1.267 . S
O84 C83 1.203 . S
O85 C78 1.185 . S
O85 Zn81 2.086 . S
C86 O82 1.278 . S
C86 O87 1.211 . S
O87 C86 1.211 . S
C88 O80 1.284 . S
C88 O89 1.273 . S
O89 C88 1.273 . S
O90 Zn81 1.977 . S
O90 C83 1.267 . S
C91 O92 1.160 . S
C91 O98 1.185 . S
O92 C91 1.160 . S
O93 Zn94 1.899 . S
O93 C101 1.284 . S
Zn94 O93 1.899 . S
Zn94 O95 2.032 . S
Zn94 O98 2.086 . S
Zn94 O103 1.977 1_455 S
O95 Zn94 2.032 . S
O95 C99 1.278 . S
C96 O97 1.203 . S
C96 O103 1.267 . S
O97 C96 1.203 . S
O98 C91 1.185 . S
O98 Zn94 2.086 . S
C99 O95 1.278 . S
C99 O100 1.211 1_455 S
O100 C99 1.211 1_655 S
C101 O93 1.284 . S
C101 O102 1.273 . S
O102 C101 1.273 . S
O103 Zn94 1.977 1_655 S
O103 C96 1.267 . S
C104 O105 1.160 . S
C104 O111 1.185 . S
O105 C104 1.160 . S
O106 Zn107 1.899 . S
O106 C114 1.284 . S
Zn107 O106 1.899 . S
Zn107 O108 2.032 . S
Zn107 O111 2.086 . S
Zn107 O116 1.977 1_545 S
O108 Zn107 2.032 . S
O108 C112 1.278 . S
C109 O110 1.203 . S
C109 O116 1.267 . S
O110 C109 1.203 . S
O111 C104 1.185 . S
O111 Zn107 2.086 . S
C112 O108 1.278 . S
C112 O113 1.211 . S
O113 C112 1.211 . S
C114 O106 1.284 . S
C114 O115 1.273 . S
O115 C114 1.273 . S
O116 Zn107 1.977 1_565 S
O116 C109 1.267 . S
C117 O118 1.160 . S
C117 O124 1.185 . S
O118 C117 1.160 . S
O119 Zn120 1.899 . S
O119 C127 1.284 . S
Zn120 O119 1.899 . S
Zn120 O121 2.032 . S
Zn120 O124 2.086 . S
Zn120 O129 1.977 . S
O121 Zn120 2.032 . S
O121 C125 1.278 . S
C122 O123 1.203 . S
C122 O129 1.267 . S
O123 C122 1.203 . S
O124 C117 1.185 . S
O124 Zn120 2.086 . S
C125 O121 1.278 . S
C125 O126 1.211 . S
O126 C125 1.211 . S
C127 O119 1.284 . S
C127 O128 1.273 . S
O128 C127 1.273 . S
O129 Zn120 1.977 . S
O129 C122 1.267 . S
C130 O131 1.160 . S
C130 O137 1.185 1_565 S
O131 C130 1.160 . S
O132 Zn133 1.899 . S
O132 C140 1.284 . S
Zn133 O132 1.899 . S
Zn133 O134 2.032 . S
Zn133 O137 2.086 . S
Zn133 O142 1.977 . S
O134 Zn133 2.032 . S
O134 C138 1.278 . S
C135 O136 1.203 . S
C135 O142 1.267 . S
O136 C135 1.203 . S
O137 C130 1.185 1_545 S
O137 Zn133 2.086 . S
C138 O134 1.278 . S
C138 O139 1.211 . S
O139 C138 1.211 . S
C140 O132 1.284 . S
C140 O141 1.273 . S
O141 C140 1.273 . S
O142 Zn133 1.977 . S
O142 C135 1.267 . S
C143 O144 1.160 . S
C143 O150 1.185 1_554 S
O144 C143 1.160 . S
O145 Zn146 1.899 . S
O145 C153 1.284 . S
Zn146 O145 1.899 . S
Zn146 O147 2.032 1_554 S
Zn146 O150 2.086 1_554 S
Zn146 O155 1.977 . S
O147 Zn146 2.032 1_556 S
O147 C151 1.278 . S
C148 O149 1.203 . S
C148 O155 1.267 . S
O149 C148 1.203 . S
O150 C143 1.185 1_556 S
O150 Zn146 2.086 1_556 S
C151 O147 1.278 . S
C151 O152 1.211 . S
O152 C151 1.211 . S
C153 O145 1.284 . S
C153 O154 1.273 . S
O154 C153 1.273 . S
O155 Zn146 1.977 . S
O155 C148 1.267 . S
C156 O157 1.160 . S
C156 O163 1.185 . S
O157 C156 1.160 . S
O158 Zn159 1.899 . S
O158 C166 1.284 . S
Zn159 O158 1.899 . S
Zn159 O160 2.032 . S
Zn159 O163 2.086 . S
Zn159 O168 1.977 . S
O160 Zn159 2.032 . S
O160 C164 1.278 . S
C161 O162 1.203 . S
C161 O168 1.267 . S
O162 C161 1.203 . S
O163 C156 1.185 . S
O163 Zn159 2.086 . S
C164 O160 1.278 . S
C164 O165 1.211 . S
O165 C164 1.211 . S
C166 O158 1.284 . S
C166 O167 1.273 . S
O167 C166 1.273 . S
O168 Zn159 1.977 . S
O168 C161 1.267 . S
C169 O170 1.160 . S
C169 O176 1.185 . S
O170 C169 1.160 . S
O171 Zn172 1.899 . S
O171 C179 1.284 . S
Zn172 O171 1.899 . S
Zn172 O173 2.032 . S
Zn172 O176 2.086 . S
Zn172 O181 1.977 . S
O173 Zn172 2.032 . S
O173 C177 1.278 . S
C174 O175 1.203 . S
C174 O181 1.267 . S
O175 C174 1.203 . S
O176 C169 1.185 . S
O176 Zn172 2.086 . S
C177 O173 1.278 . S
C177 O178 1.211 . S
O178 C177 1.211 . S
C179 O171 1.284 . S
C179 O180 1.273 . S
O180 C179 1.273 . S
O181 Zn172 1.977 . S
O181 C174 1.267 . S
C182 O183 1.160 . S
C182 O189 1.185 . S
O183 C182 1.160 . S
O184 Zn185 1.899 . S
O184 C192 1.284 . S
Zn185 O184 1.899 . S
Zn185 O186 2.032 . S
Zn185 O189 2.086 . S
Zn185 O194 1.977 . S
O186 Zn185 2.032 . S
O186 C190 1.278 . S
C187 O188 1.203 . S
C187 O194 1.267 . S
O188 C187 1.203 . S
O189 C182 1.185 . S
O189 Zn185 2.086 . S
C190 O186 1.278 . S
C190 O191 1.211 . S
O191 C190 1.211 . S
C192 O184 1.284 . S
C192 O193 1.273 . S
O193 C192 1.273 . S
O194 Zn185 1.977 . S
O194 C187 1.267 . S
C195 O196 1.160 . S
C195 O202 1.185 . S
O196 C195 1.160 . S
O197 Zn198 1.899 . S
O197 C205 1.284 . S
Zn198 O197 1.899 . S
Zn198 O199 2.032 . S
Zn198 O202 2.086 . S
Zn198 O207 1.977 . S
O199 Zn198 2.032 . S
O199 C203 1.278 . S
C200 O201 1.203 . S
C200 O207 1.267 . S
O201 C200 1.203 . S
O202 C195 1.185 . S
O202 Zn198 2.086 . S
C203 O199 1.278 . S
C203 O204 1.211 . S
O204 C203 1.211 . S
C205 O197 1.284 . S
C205 O206 1.273 . S
O206 C205 1.273 . S
O207 Zn198 1.977 . S
O207 C200 1.267 . S
C208 O209 1.160 . S
C208 O215 1.185 . S
O209 C208 1.160 . S
O210 Zn211 1.897 . S
O210 C218 1.270 1_545 S
Zn211 O210 1.897 . S
Zn211 O212 2.032 . S
Zn211 O215 2.086 . S
Zn211 O220 1.977 1_545 S
O212 Zn211 2.032 . S
O212 C216 1.278 . S
C213 O214 1.203 . S
C213 O220 1.267 . S
O214 C213 1.203 . S
O215 C208 1.185 . S
O215 Zn211 2.086 . S
C216 O212 1.278 . S
C216 O217 1.211 1_545 S
O217 C216 1.211 1_565 S
C218 O210 1.270 1_565 S
C218 O219 1.273 . S
O219 C218 1.273 . S
O220 Zn211 1.977 1_565 S
O220 C213 1.267 . S
C221 O222 1.160 . S
C221 O228 1.185 . S
O222 C221 1.160 . S
O223 Zn224 1.899 . S
O223 C231 1.284 . S
Zn224 O223 1.899 . S
Zn224 O225 2.032 . S
Zn224 O228 2.086 . S
Zn224 O233 1.977 . S
O225 Zn224 2.032 . S
O225 C229 1.278 . S
C226 O227 1.203 . S
C226 O233 1.267 . S
O227 C226 1.203 . S
O228 C221 1.185 . S
O228 Zn224 2.086 . S
C229 O225 1.278 . S
C229 O230 1.211 . S
O230 C229 1.211 . S
C231 O223 1.284 . S
C231 O232 1.273 . S
O232 C231 1.273 . S
O233 Zn224 1.977 . S
O233 C226 1.267 . S
C234 O235 1.160 . S
C234 O241 1.185 . S
O235 C234 1.160 . S
O236 Zn237 1.899 . S
O236 C244 1.284 . S
Zn237 O236 1.899 . S
Zn237 O238 2.032 . S
Zn237 O241 2.086 . S
Zn237 O246 1.977 . S
O238 Zn237 2.032 . S
O238 C242 1.278 . S
C239 O240 1.203 . S
C239 O246 1.267 . S
O240 C239 1.203 . S
O241 C234 1.185 . S
O241 Zn237 2.086 . S
C242 O238 1.278 . S
C242 O243 1.211 . S
O243 C242 1.211 . S
C244 O236 1.284 . S
C244 O245 1.273 . S
O245 C244 1.273 . S
O246 Zn237 1.977 . S
O246 C239 1.267 . S
C247 O248 1.160 . S
C247 O254 1.185 . S
O248 C247 1.160 . S
O249 Zn250 1.899 . S
O249 C257 1.284 . S
Zn250 O249 1.899 . S
Zn250 O251 2.032 . S
Zn250 O254 2.086 1_545 S
Zn250 O259 1.977 . S
O251 Zn250 2.032 . S
O251 C255 1.278 . S
C252 O253 1.203 . S
C252 O259 1.267 . S
O253 C252 1.203 . S
O254 C247 1.185 . S
O254 Zn250 2.086 1_565 S
C255 O251 1.278 . S
C255 O256 1.211 . S
O256 C255 1.211 . S
C257 O249 1.284 . S
C257 O258 1.273 . S
O258 C257 1.273 . S
O259 Zn250 1.977 . S
O259 C252 1.267 . S
C260 O261 1.160 . S
C260 O267 1.185 . S
O261 C260 1.160 . S
O262 Zn263 1.899 . S
O262 C270 1.284 . S
Zn263 O262 1.899 . S
Zn263 O264 2.032 . S
Zn263 O267 2.086 . S
Zn263 O272 1.977 . S
O264 Zn263 2.032 . S
O264 C268 1.278 . S
C265 O266 1.203 . S
C265 O272 1.267 . S
O266 C265 1.203 . S
O267 C260 1.185 . S
O267 Zn263 2.086 . S
C268 O264 1.278 . S
C268 O269 1.211 . S
O269 C268 1.211 . S
C270 O262 1.284 . S
C270 O271 1.273 . S
O271 C270 1.273 . S
O272 Zn263 1.977 . S
O272 C265 1.267 . S
C273 O274 1.160 . S
C273 O280 1.185 . S
O274 C273 1.160 . S
O275 Zn276 1.899 . S
O275 C283 1.284 . S
Zn276 O275 1.899 . S
Zn276 O277 2.032 . S
Zn276 O280 2.086 . S
Zn276 O285 1.977 . S
O277 Zn276 2.032 . S
O277 C281 1.278 . S
C278 O279 1.203 . S
C278 O285 1.267 . S
O279 C278 1.203 . S
O280 C273 1.185 . S
O280 Zn276 2.086 . S
C281 O277 1.278 . S
C281 O282 1.211 . S
O282 C281 1.211 . S
C283 O275 1.284 . S
C283 O284 1.273 . S
O284 C283 1.273 . S
O285 Zn276 1.977 . S
O285 C278 1.267 . S
C286 O287 1.160 . S
C286 O293 1.185 . S
O287 C286 1.160 . S
O288 Zn289 1.899 . S
O288 C296 1.284 . S
Zn289 O288 1.899 . S
Zn289 O290 2.032 . S
Zn289 O293 2.086 . S
Zn289 O298 1.977 . S
O290 Zn289 2.032 . S
O290 C294 1.278 . S
C291 O292 1.203 . S
C291 O298 1.267 . S
O292 C291 1.203 . S
O293 C286 1.185 . S
O293 Zn289 2.086 . S
C294 O290 1.278 . S
C294 O295 1.211 . S
O295 C294 1.211 . S
C296 O288 1.284 . S
C296 O297 1.273 . S
O297 C296 1.273 . S
O298 Zn289 1.977 . S
O298 C291 1.267 . S
C299 O300 1.160 . S
C299 O306 1.185 . S
O300 C299 1.160 . S
O301 Zn302 1.899 . S
O301 C309 1.284 . S
Zn302 O301 1.899 . S
Zn302 O303 2.032 . S
Zn302 O306 2.086 . S
Zn302 O311 1.977 . S
O303 Zn302 2.032 . S
O303 C307 1.278 . S
C304 O305 1.203 . S
C304 O311 1.267 . S
O305 C304 1.203 . S
O306 C299 1.185 . S
O306 Zn302 2.086 . S
C307 O303 1.278 . S
C307 O308 1.211 . S
O308 C307 1.211 . S
C309 O301 1.284 . S
C309 O310 1.273 . S
O310 C309 1.273 . S
O311 Zn302 1.977 . S
O311 C304 1.267 . S
Tb312 C314 2.809 . S
Tb312 O332 2.484 . S
Tb312 O333 2.453 . S
Tb312 O334 2.658 1_655 S
Tb312 O335 2.409 1_654 S
Tb312 O336 2.378 1_655 S
Tb312 O340 2.325 1_655 S
Tb312 O343 2.341 1_645 S
Tb313 C323 2.809 1_545 S
Tb313 O334 2.325 . S
Tb313 O337 2.341 . S
Tb313 O338 2.484 1_545 S
Tb313 O339 2.440 . S
Tb313 O340 2.658 . S
Tb313 O341 2.409 . S
Tb313 O342 2.378 1_545 S
C314 Tb312 2.809 . S
C314 C315 1.514 . S
C314 O332 1.248 . S
C314 O333 1.287 . S
C315 C314 1.514 . S
C315 C316 1.359 . S
C315 C320 1.348 1_554 S
C316 C315 1.359 . S
C316 C317 1.380 . S
C316 H344 0.929 . S
C317 C316 1.380 . S
C317 C318 1.347 . S
C317 H345 0.931 . S
C318 C317 1.347 . S
C318 C319 1.369 1_554 S
C319 C318 1.369 1_556 S
C319 C320 1.408 . S
C319 H346 0.930 . S
C320 C315 1.348 1_556 S
C320 C319 1.408 . S
C320 H347 0.930 . S
C321 O334 1.281 1_556 S
C321 O335 1.254 . S
C322 O336 1.236 . S
C322 O337 1.266 . S
C323 Tb313 2.809 1_565 S
C323 C324 1.514 . S
C323 O338 1.248 . S
C323 O339 1.266 1_565 S
C324 C323 1.514 . S
C324 C325 1.359 . S
C324 C329 1.348 . S
C325 C324 1.359 . S
C325 C326 1.380 . S
C325 H348 0.929 . S
C326 C325 1.380 . S
C326 C327 1.347 . S
C326 H349 0.931 . S
C327 C326 1.347 . S
C327 C328 1.369 . S
C328 C327 1.369 . S
C328 C329 1.408 . S
C328 H350 0.930 . S
C329 C324 1.348 . S
C329 C328 1.408 . S
C329 H351 0.930 . S
C330 O340 1.281 . S
C330 O341 1.254 . S
C331 O342 1.236 . S
C331 O343 1.266 . S
O332 Tb312 2.484 . S
O332 C314 1.248 . S
O333 Tb312 2.453 . S
O333 C314 1.287 . S
O334 Tb312 2.658 1_455 S
O334 Tb313 2.325 . S
O334 C321 1.281 1_554 S
O335 Tb312 2.409 1_456 S
O335 C321 1.254 . S
O336 Tb312 2.378 1_455 S
O336 C322 1.236 . S
O337 Tb313 2.341 . S
O337 C322 1.266 . S
O338 Tb313 2.484 1_565 S
O338 C323 1.248 . S
O339 Tb313 2.440 . S
O339 C323 1.266 1_545 S
O340 Tb312 2.325 1_455 S
O340 Tb313 2.658 . S
O340 C330 1.281 . S
O341 Tb313 2.409 . S
O341 C330 1.254 . S
O342 Tb313 2.378 1_565 S
O342 C331 1.236 . S
O343 Tb312 2.341 1_465 S
O343 C331 1.266 . S
H344 C316 0.929 . S
H345 C317 0.931 . S
H346 C319 0.930 . S
H347 C320 0.930 . S
H348 C325 0.929 . S
H349 C326 0.931 . S
H350 C328 0.930 . S
H351 C329 0.930 . S
Tb352 C354 2.809 . S
Tb352 O372 2.484 . S
Tb352 O373 2.440 . S
Tb352 O374 2.658 . S
Tb352 O375 2.409 . S
Tb352 O376 2.378 . S
Tb352 O380 2.325 . S
Tb352 O383 2.341 . S
Tb353 C363 2.809 . S
Tb353 O374 2.325 . S
Tb353 O377 2.341 . S
Tb353 O378 2.484 . S
Tb353 O379 2.440 . S
Tb353 O380 2.658 . S
Tb353 O381 2.409 . S
Tb353 O382 2.378 . S
C354 Tb352 2.809 . S
C354 C355 1.514 . S
C354 O372 1.248 . S
C354 O373 1.266 . S
C355 C354 1.514 . S
C355 C356 1.359 . S
C355 C360 1.348 . S
C356 C355 1.359 . S
C356 C357 1.380 . S
C356 H384 0.929 . S
C357 C356 1.380 . S
C357 C358 1.347 . S
C357 H385 0.931 . S
C358 C357 1.347 . S
C358 C359 1.369 . S
C359 C358 1.369 . S
C359 C360 1.408 . S
C359 H386 0.930 . S
C360 C355 1.348 . S
C360 C359 1.408 . S
C360 H387 0.930 . S
C361 O374 1.281 . S
C361 O375 1.254 . S
C362 O376 1.236 . S
C362 O377 1.266 . S
C363 Tb353 2.809 . S
C363 C364 1.514 . S
C363 O378 1.248 . S
C363 O379 1.266 . S
C364 C363 1.514 . S
C364 C365 1.359 . S
C364 C369 1.348 . S
C365 C364 1.359 . S
C365 C366 1.380 . S
C365 H388 0.929 . S
C366 C365 1.380 . S
C366 C367 1.347 . S
C366 H389 0.931 . S
C367 C366 1.347 . S
C367 C368 1.369 . S
C368 C367 1.369 . S
C368 C369 1.408 . S
C368 H390 0.930 . S
C369 C364 1.348 . S
C369 C368 1.408 . S
C369 H391 0.930 . S
C370 O380 1.281 . S
C370 O381 1.254 . S
C371 O382 1.236 . S
C371 O383 1.266 . S
O372 Tb352 2.484 . S
O372 C354 1.248 . S
O373 Tb352 2.440 . S
O373 C354 1.266 . S
O374 Tb352 2.658 . S
O374 Tb353 2.325 . S
O374 C361 1.281 . S
O375 Tb352 2.409 . S
O375 C361 1.254 . S
O376 Tb352 2.378 . S
O376 C362 1.236 . S
O377 Tb353 2.341 . S
O377 C362 1.266 . S
O378 Tb353 2.484 . S
O378 C363 1.248 . S
O379 Tb353 2.440 . S
O379 C363 1.266 . S
O380 Tb352 2.325 . S
O380 Tb353 2.658 . S
O380 C370 1.281 . S
O381 Tb353 2.409 . S
O381 C370 1.254 . S
O382 Tb353 2.378 . S
O382 C371 1.236 . S
O383 Tb352 2.341 . S
O383 C371 1.266 . S
H384 C356 0.929 . S
H385 C357 0.931 . S
H386 C359 0.930 . S
H387 C360 0.930 . S
H388 C365 0.929 . S
H389 C366 0.931 . S
H390 C368 0.930 . S
H391 C369 0.930 . S
Tb392 C394 2.816 . S
Tb392 O412 2.484 . S
Tb392 O413 2.440 . S
Tb392 O414 2.658 . S
Tb392 O415 2.409 . S
Tb392 O416 2.378 1_545 S
Tb392 O420 2.325 . S
Tb392 O423 2.341 . S
Tb393 C403 2.809 . S
Tb393 O414 2.325 . S
Tb393 O417 2.341 1_545 S
Tb393 O418 2.484 . S
Tb393 O419 2.440 . S
Tb393 O420 2.658 . S
Tb393 O421 2.409 . S
Tb393 O422 2.378 . S
C394 Tb392 2.816 . S
C394 C395 1.507 1_545 S
C394 O412 1.248 . S
C394 O413 1.272 . S
C395 C394 1.507 1_565 S
C395 C396 1.359 . S
C395 C400 1.348 . S
C396 C395 1.359 . S
C396 C397 1.380 . S
C396 H424 0.929 . S
C397 C396 1.380 . S
C397 C398 1.347 . S
C397 H425 0.931 . S
C398 C397 1.347 . S
C398 C399 1.369 . S
C399 C398 1.369 . S
C399 C400 1.408 . S
C399 H426 0.930 . S
C400 C395 1.348 . S
C400 C399 1.408 . S
C400 H427 0.930 . S
C401 O414 1.281 . S
C401 O415 1.254 . S
C402 O416 1.236 . S
C402 O417 1.266 . S
C403 Tb393 2.809 . S
C403 C404 1.514 . S
C403 O418 1.248 . S
C403 O419 1.266 . S
C404 C403 1.514 . S
C404 C405 1.359 . S
C404 C409 1.348 . S
C405 C404 1.359 . S
C405 C406 1.380 . S
C405 H428 0.929 . S
C406 C405 1.380 . S
C406 C407 1.347 . S
C406 H429 0.931 . S
C407 C406 1.347 . S
C407 C408 1.369 . S
C408 C407 1.369 . S
C408 C409 1.408 . S
C408 H430 0.930 . S
C409 C404 1.348 . S
C409 C408 1.408 . S
C409 H431 0.930 . S
C410 O420 1.281 . S
C410 O421 1.254 . S
C411 O422 1.236 . S
C411 O423 1.266 . S
O412 Tb392 2.484 . S
O412 C394 1.248 . S
O413 Tb392 2.440 . S
O413 C394 1.272 . S
O414 Tb392 2.658 . S
O414 Tb393 2.325 . S
O414 C401 1.281 . S
O415 Tb392 2.409 . S
O415 C401 1.254 . S
O416 Tb392 2.378 1_565 S
O416 C402 1.236 . S
O417 Tb393 2.341 1_565 S
O417 C402 1.266 . S
O418 Tb393 2.484 . S
O418 C403 1.248 . S
O419 Tb393 2.440 . S
O419 C403 1.266 . S
O420 Tb392 2.325 . S
O420 Tb393 2.658 . S
O420 C410 1.281 . S
O421 Tb393 2.409 . S
O421 C410 1.254 . S
O422 Tb393 2.378 . S
O422 C411 1.236 . S
O423 Tb392 2.341 . S
O423 C411 1.266 . S
H424 C396 0.929 . S
H425 C397 0.931 . S
H426 C399 0.930 . S
H427 C400 0.930 . S
H428 C405 0.929 . S
H429 C406 0.931 . S
H430 C408 0.930 . S
H431 C409 0.930 . S
Tb432 C434 2.809 . S
Tb432 O452 2.484 . S
Tb432 O453 2.440 . S
Tb432 O454 2.658 . S
Tb432 O455 2.409 . S
Tb432 O456 2.378 . S
Tb432 O460 2.325 . S
Tb432 O463 2.341 . S
Tb433 C443 2.809 . S
Tb433 O454 2.325 . S
Tb433 O457 2.341 . S
Tb433 O458 2.484 . S
Tb433 O459 2.440 . S
Tb433 O460 2.658 . S
Tb433 O461 2.409 . S
Tb433 O462 2.378 . S
C434 Tb432 2.809 . S
C434 C435 1.514 . S
C434 O452 1.248 . S
C434 O453 1.266 . S
C435 C434 1.514 . S
C435 C436 1.359 . S
C435 C440 1.348 . S
C436 C435 1.359 . S
C436 C437 1.380 . S
C436 H464 0.929 . S
C437 C436 1.380 . S
C437 C438 1.347 . S
C437 H465 0.931 . S
C438 C437 1.347 . S
C438 C439 1.369 . S
C439 C438 1.369 . S
C439 C440 1.408 . S
C439 H466 0.930 . S
C440 C435 1.348 . S
C440 C439 1.408 . S
C440 H467 0.930 . S
C441 O454 1.281 . S
C441 O455 1.254 . S
C442 O456 1.236 . S
C442 O457 1.266 . S
C443 Tb433 2.809 . S
C443 C444 1.514 . S
C443 O458 1.248 . S
C443 O459 1.266 . S
C444 C443 1.514 . S
C444 C445 1.359 . S
C444 C449 1.348 . S
C445 C444 1.359 . S
C445 C446 1.380 . S
C445 H468 0.929 . S
C446 C445 1.380 . S
C446 C447 1.347 . S
C446 H469 0.931 . S
C447 C446 1.347 . S
C447 C448 1.369 . S
C448 C447 1.369 . S
C448 C449 1.408 . S
C448 H470 0.930 . S
C449 C444 1.348 . S
C449 C448 1.408 . S
C449 H471 0.930 . S
C450 O460 1.281 . S
C450 O461 1.254 . S
C451 O462 1.236 . S
C451 O463 1.266 . S
O452 Tb432 2.484 . S
O452 C434 1.248 . S
O453 Tb432 2.440 . S
O453 C434 1.266 . S
O454 Tb432 2.658 . S
O454 Tb433 2.325 . S
O454 C441 1.281 . S
O455 Tb432 2.409 . S
O455 C441 1.254 . S
O456 Tb432 2.378 . S
O456 C442 1.236 . S
O457 Tb433 2.341 . S
O457 C442 1.266 . S
O458 Tb433 2.484 . S
O458 C443 1.248 . S
O459 Tb433 2.440 . S
O459 C443 1.266 . S
O460 Tb432 2.325 . S
O460 Tb433 2.658 . S
O460 C450 1.281 . S
O461 Tb433 2.409 . S
O461 C450 1.254 . S
O462 Tb433 2.378 . S
O462 C451 1.236 . S
O463 Tb432 2.341 . S
O463 C451 1.266 . S
H464 C436 0.929 . S
H465 C437 0.931 . S
H466 C439 0.930 . S
H467 C440 0.930 . S
H468 C445 0.929 . S
H469 C446 0.931 . S
H470 C448 0.930 . S
H471 C449 0.930 . S
Tb472 C474 2.809 . S
Tb472 O492 2.484 . S
Tb472 O493 2.440 . S
Tb472 O494 2.658 . S
Tb472 O495 2.409 1_455 S
Tb472 O496 2.378 . S
Tb472 O500 2.325 . S
Tb472 O503 2.341 . S
Tb473 C483 2.809 . S
Tb473 O494 2.325 1_565 S
Tb473 O497 2.329 1_565 S
Tb473 O498 2.484 . S
Tb473 O499 2.440 . S
Tb473 O500 2.658 1_565 S
Tb473 O501 2.409 1_565 S
Tb473 O502 2.378 1_565 S
C474 Tb472 2.809 . S
C474 C475 1.514 . S
C474 O492 1.248 . S
C474 O493 1.266 . S
C475 C474 1.514 . S
C475 C476 1.359 . S
C475 C480 1.348 1_455 S
C476 C475 1.359 . S
C476 C477 1.380 . S
C476 H504 0.929 . S
C477 C476 1.380 . S
C477 C478 1.357 . S
C477 H505 0.931 . S
C478 C477 1.357 . S
C478 C479 1.361 1_455 S
C479 C478 1.361 1_655 S
C479 C480 1.408 . S
C479 H506 0.930 . S
C480 C475 1.348 1_655 S
C480 C479 1.408 . S
C480 H507 0.930 . S
C481 O494 1.281 1_655 S
C481 O495 1.254 . S
C482 O496 1.236 . S
C482 O497 1.289 . S
C483 Tb473 2.809 . S
C483 C484 1.514 . S
C483 O498 1.248 . S
C483 O499 1.266 . S
C484 C483 1.514 . S
C484 C485 1.359 . S
C484 C489 1.348 . S
C485 C484 1.359 . S
C485 C486 1.380 . S
C485 H508 0.929 . S
C486 C485 1.380 . S
C486 C487 1.347 . S
C486 H509 0.931 . S
C487 C486 1.347 . S
C487 C488 1.369 . S
C488 C487 1.369 . S
C488 C489 1.408 . S
C488 H510 0.930 . S
C489 C484 1.348 . S
C489 C488 1.408 . S
C489 H511 0.930 . S
C490 O500 1.281 . S
C490 O501 1.254 . S
C491 O502 1.236 . S
C491 O503 1.266 . S
O492 Tb472 2.484 . S
O492 C474 1.248 . S
O493 Tb472 2.440 . S
O493 C474 1.266 . S
O494 Tb472 2.658 . S
O494 Tb473 2.325 1_545 S
O494 C481 1.281 1_455 S
O495 Tb472 2.409 1_655 S
O495 C481 1.254 . S
O496 Tb472 2.378 . S
O496 C482 1.236 . S
O497 Tb473 2.329 1_545 S
O497 C482 1.289 . S
O498 Tb473 2.484 . S
O498 C483 1.248 . S
O499 Tb473 2.440 . S
O499 C483 1.266 . S
O500 Tb472 2.325 . S
O500 Tb473 2.658 1_545 S
O500 C490 1.281 . S
O501 Tb473 2.409 1_545 S
O501 C490 1.254 . S
O502 Tb473 2.378 1_545 S
O502 C491 1.236 . S
O503 Tb472 2.341 . S
O503 C491 1.266 . S
H504 C476 0.929 . S
H505 C477 0.931 . S
H506 C479 0.930 . S
H507 C480 0.930 . S
H508 C485 0.929 . S
H509 C486 0.931 . S
H510 C488 0.930 . S
H511 C489 0.930 . S
Tb512 C514 2.809 . S
Tb512 O532 2.484 . S
Tb512 O533 2.440 . S
Tb512 O534 2.658 . S
Tb512 O535 2.409 . S
Tb512 O536 2.378 . S
Tb512 O540 2.325 . S
Tb512 O543 2.341 . S
Tb513 C523 2.809 . S
Tb513 O534 2.325 . S
Tb513 O537 2.341 . S
Tb513 O538 2.484 . S
Tb513 O539 2.440 . S
Tb513 O540 2.658 . S
Tb513 O541 2.409 . S
Tb513 O542 2.378 . S
C514 Tb512 2.809 . S
C514 C515 1.514 . S
C514 O532 1.248 . S
C514 O533 1.266 . S
C515 C514 1.514 . S
C515 C516 1.359 . S
C515 C520 1.348 . S
C516 C515 1.359 . S
C516 C517 1.380 . S
C516 H544 0.929 . S
C517 C516 1.380 . S
C517 C518 1.347 . S
C517 H545 0.931 . S
C518 C517 1.347 . S
C518 C519 1.369 . S
C519 C518 1.369 . S
C519 C520 1.408 . S
C519 H546 0.930 . S
C520 C515 1.348 . S
C520 C519 1.408 . S
C520 H547 0.930 . S
C521 O534 1.281 . S
C521 O535 1.254 . S
C522 O536 1.236 . S
C522 O537 1.266 . S
C523 Tb513 2.809 . S
C523 C524 1.514 . S
C523 O538 1.248 . S
C523 O539 1.266 . S
C524 C523 1.514 . S
C524 C525 1.359 . S
C524 C529 1.348 . S
C525 C524 1.359 . S
C525 C526 1.380 . S
C525 H548 0.929 . S
C526 C525 1.380 . S
C526 C527 1.347 . S
C526 H549 0.931 . S
C527 C526 1.347 . S
C527 C528 1.369 . S
C528 C527 1.369 . S
C528 C529 1.408 . S
C528 H550 0.930 . S
C529 C524 1.348 . S
C529 C528 1.408 . S
C529 H551 0.930 . S
C530 O540 1.281 . S
C530 O541 1.254 . S
C531 O542 1.236 . S
C531 O543 1.266 . S
O532 Tb512 2.484 . S
O532 C514 1.248 . S
O533 Tb512 2.440 . S
O533 C514 1.266 . S
O534 Tb512 2.658 . S
O534 Tb513 2.325 . S
O534 C521 1.281 . S
O535 Tb512 2.409 . S
O535 C521 1.254 . S
O536 Tb512 2.378 . S
O536 C522 1.236 . S
O537 Tb513 2.341 . S
O537 C522 1.266 . S
O538 Tb513 2.484 . S
O538 C523 1.248 . S
O539 Tb513 2.440 . S
O539 C523 1.266 . S
O540 Tb512 2.325 . S
O540 Tb513 2.658 . S
O540 C530 1.281 . S
O541 Tb513 2.409 . S
O541 C530 1.254 . S
O542 Tb513 2.378 . S
O542 C531 1.236 . S
O543 Tb512 2.341 . S
O543 C531 1.266 . S
H544 C516 0.929 . S
H545 C517 0.931 . S
H546 C519 0.930 . S
H547 C520 0.930 . S
H548 C525 0.929 . S
H549 C526 0.931 . S
H550 C528 0.930 . S
H551 C529 0.930 . S
Tb552 C554 2.809 1_545 S
Tb552 O572 2.484 1_545 S
Tb552 O573 2.440 . S
Tb552 O574 2.658 . S
Tb552 O575 2.409 . S
Tb552 O576 2.378 . S
Tb552 O580 2.325 1_545 S
Tb552 O583 2.341 . S
Tb553 C563 2.809 . S
Tb553 O574 2.325 . S
Tb553 O577 2.341 . S
Tb553 O578 2.484 . S
Tb553 O579 2.440 . S
Tb553 O580 2.658 1_545 S
Tb553 O581 2.409 1_545 S
Tb553 O582 2.378 . S
C554 Tb552 2.809 1_565 S
C554 C555 1.514 . S
C554 O572 1.248 . S
C554 O573 1.266 1_565 S
C555 C554 1.514 . S
C555 C556 1.359 . S
C555 C560 1.348 1_565 S
C556 C555 1.359 . S
C556 C557 1.380 . S
C556 H584 0.929 . S
C557 C556 1.380 . S
C557 C558 1.347 . S
C557 H585 0.931 . S
C558 C557 1.347 . S
C558 C559 1.369 . S
C559 C558 1.369 . S
C559 C560 1.408 1_565 S
C559 H586 0.930 1_565 S
C560 C555 1.348 1_545 S
C560 C559 1.408 1_545 S
C560 H587 0.930 . S
C561 O574 1.281 . S
C561 O575 1.254 . S
C562 O576 1.236 . S
C562 O577 1.266 . S
C563 Tb553 2.809 . S
C563 C564 1.514 . S
C563 O578 1.248 . S
C563 O579 1.266 . S
C564 C563 1.514 . S
C564 C565 1.359 . S
C564 C569 1.348 . S
C565 C564 1.359 . S
C565 C566 1.380 . S
C565 H588 0.929 . S
C566 C565 1.380 . S
C566 C567 1.347 . S
C566 H589 0.931 . S
C567 C566 1.347 . S
C567 C568 1.369 . S
C568 C567 1.369 . S
C568 C569 1.408 . S
C568 H590 0.930 . S
C569 C564 1.348 . S
C569 C568 1.408 . S
C569 H591 0.930 . S
C570 O580 1.281 . S
C570 O581 1.254 . S
C571 O582 1.236 . S
C571 O583 1.266 . S
O572 Tb552 2.484 1_565 S
O572 C554 1.248 . S
O573 Tb552 2.440 . S
O573 C554 1.266 1_545 S
O574 Tb552 2.658 . S
O574 Tb553 2.325 . S
O574 C561 1.281 . S
O575 Tb552 2.409 . S
O575 C561 1.254 . S
O576 Tb552 2.378 . S
O576 C562 1.236 . S
O577 Tb553 2.341 . S
O577 C562 1.266 . S
O578 Tb553 2.484 . S
O578 C563 1.248 . S
O579 Tb553 2.440 . S
O579 C563 1.266 . S
O580 Tb552 2.325 1_565 S
O580 Tb553 2.658 1_565 S
O580 C570 1.281 . S
O581 Tb553 2.409 1_565 S
O581 C570 1.254 . S
O582 Tb553 2.378 . S
O582 C571 1.236 . S
O583 Tb552 2.341 . S
O583 C571 1.266 . S
H584 C556 0.929 . S
H585 C557 0.931 . S
H586 C559 0.930 1_545 S
H587 C560 0.930 . S
H588 C565 0.929 . S
H589 C566 0.931 . S
H590 C568 0.930 . S
H591 C569 0.930 . S
Tb592 C594 2.809 . S
Tb592 O612 2.484 . S
Tb592 O613 2.440 . S
Tb592 O614 2.658 . S
Tb592 O615 2.409 . S
Tb592 O616 2.378 . S
Tb592 O620 2.325 . S
Tb592 O623 2.341 . S
Tb593 C603 2.809 . S
Tb593 O614 2.325 . S
Tb593 O617 2.341 . S
Tb593 O618 2.484 . S
Tb593 O619 2.440 . S
Tb593 O620 2.658 . S
Tb593 O621 2.409 . S
Tb593 O622 2.378 . S
C594 Tb592 2.809 . S
C594 C595 1.514 . S
C594 O612 1.248 . S
C594 O613 1.266 . S
C595 C594 1.514 . S
C595 C596 1.359 . S
C595 C600 1.348 . S
C596 C595 1.359 . S
C596 C597 1.380 . S
C596 H624 0.929 . S
C597 C596 1.380 . S
C597 C598 1.347 . S
C597 H625 0.931 . S
C598 C597 1.347 . S
C598 C599 1.369 . S
C599 C598 1.369 . S
C599 C600 1.408 . S
C599 H626 0.930 . S
C600 C595 1.348 . S
C600 C599 1.408 . S
C600 H627 0.930 . S
C601 O614 1.281 . S
C601 O615 1.254 . S
C602 O616 1.236 . S
C602 O617 1.266 . S
C603 Tb593 2.809 . S
C603 C604 1.514 . S
C603 O618 1.248 . S
C603 O619 1.266 . S
C604 C603 1.514 . S
C604 C605 1.359 . S
C604 C609 1.348 . S
C605 C604 1.359 . S
C605 C606 1.380 . S
C605 H628 0.929 . S
C606 C605 1.380 . S
C606 C607 1.347 . S
C606 H629 0.931 . S
C607 C606 1.347 . S
C607 C608 1.369 . S
C608 C607 1.369 . S
C608 C609 1.408 . S
C608 H630 0.930 . S
C609 C604 1.348 . S
C609 C608 1.408 . S
C609 H631 0.930 . S
C610 O620 1.281 . S
C610 O621 1.254 . S
C611 O622 1.236 . S
C611 O623 1.266 . S
O612 Tb592 2.484 . S
O612 C594 1.248 . S
O613 Tb592 2.440 . S
O613 C594 1.266 . S
O614 Tb592 2.658 . S
O614 Tb593 2.325 . S
O614 C601 1.281 . S
O615 Tb592 2.409 . S
O615 C601 1.254 . S
O616 Tb592 2.378 . S
O616 C602 1.236 . S
O617 Tb593 2.341 . S
O617 C602 1.266 . S
O618 Tb593 2.484 . S
O618 C603 1.248 . S
O619 Tb593 2.440 . S
O619 C603 1.266 . S
O620 Tb592 2.325 . S
O620 Tb593 2.658 . S
O620 C610 1.281 . S
O621 Tb593 2.409 . S
O621 C610 1.254 . S
O622 Tb593 2.378 . S
O622 C611 1.236 . S
O623 Tb592 2.341 . S
O623 C611 1.266 . S
H624 C596 0.929 . S
H625 C597 0.931 . S
H626 C599 0.930 . S
H627 C600 0.930 . S
H628 C605 0.929 . S
H629 C606 0.931 . S
H630 C608 0.930 . S
H631 C609 0.930 . S
Tb632 C634 2.809 . S
Tb632 O652 2.484 . S
Tb632 O653 2.440 . S
Tb632 O654 2.658 . S
Tb632 O655 2.409 . S
Tb632 O656 2.378 . S
Tb632 O660 2.325 . S
Tb632 O663 2.341 . S
Tb633 C643 2.809 . S
Tb633 O654 2.325 . S
Tb633 O657 2.341 . S
Tb633 O658 2.484 . S
Tb633 O659 2.440 . S
Tb633 O660 2.658 . S
Tb633 O661 2.409 . S
Tb633 O662 2.378 . S
C634 Tb632 2.809 . S
C634 C635 1.514 . S
C634 O652 1.248 . S
C634 O653 1.266 . S
C635 C634 1.514 . S
C635 C636 1.359 1_554 S
C635 C640 1.348 . S
C636 C635 1.359 1_556 S
C636 C637 1.380 . S
C636 H664 0.929 . S
C637 C636 1.380 . S
C637 C638 1.347 . S
C637 H665 0.931 . S
C638 C637 1.347 . S
C638 C639 1.369 . S
C639 C638 1.369 . S
C639 C640 1.408 1_556 S
C639 H666 0.930 . S
C640 C635 1.348 . S
C640 C639 1.408 1_554 S
C640 H667 0.930 . S
C641 O654 1.281 . S
C641 O655 1.254 . S
C642 O656 1.236 1_556 S
C642 O657 1.266 1_556 S
C643 Tb633 2.809 . S
C643 C644 1.514 . S
C643 O658 1.248 . S
C643 O659 1.266 . S
C644 C643 1.514 . S
C644 C645 1.359 . S
C644 C649 1.348 . S
C645 C644 1.359 . S
C645 C646 1.380 . S
C645 H668 0.929 . S
C646 C645 1.380 . S
C646 C647 1.347 . S
C646 H669 0.931 . S
C647 C646 1.347 . S
C647 C648 1.369 . S
C648 C647 1.369 . S
C648 C649 1.408 . S
C648 H670 0.930 . S
C649 C644 1.348 . S
C649 C648 1.408 . S
C649 H671 0.930 . S
C650 O660 1.281 . S
C650 O661 1.254 . S
C651 O662 1.236 . S
C651 O663 1.266 . S
O652 Tb632 2.484 . S
O652 C634 1.248 . S
O653 Tb632 2.440 . S
O653 C634 1.266 . S
O654 Tb632 2.658 . S
O654 Tb633 2.325 . S
O654 C641 1.281 . S
O655 Tb632 2.409 . S
O655 C641 1.254 . S
O656 Tb632 2.378 . S
O656 C642 1.236 1_554 S
O657 Tb633 2.341 . S
O657 C642 1.266 1_554 S
O658 Tb633 2.484 . S
O658 C643 1.248 . S
O659 Tb633 2.440 . S
O659 C643 1.266 . S
O660 Tb632 2.325 . S
O660 Tb633 2.658 . S
O660 C650 1.281 . S
O661 Tb633 2.409 . S
O661 C650 1.254 . S
O662 Tb633 2.378 . S
O662 C651 1.236 . S
O663 Tb632 2.341 . S
O663 C651 1.266 . S
H664 C636 0.929 . S
H665 C637 0.931 . S
H666 C639 0.930 . S
H667 C640 0.930 . S
H668 C645 0.929 . S
H669 C646 0.931 . S
H670 C648 0.930 . S
H671 C649 0.930 . S
Tb672 C674 2.809 . S
Tb672 O692 2.484 . S
Tb672 O693 2.440 . S
Tb672 O694 2.658 . S
Tb672 O695 2.409 . S
Tb672 O696 2.378 . S
Tb672 O700 2.325 . S
Tb672 O703 2.341 . S
Tb673 C683 2.809 . S
Tb673 O694 2.325 . S
Tb673 O697 2.341 . S
Tb673 O698 2.484 . S
Tb673 O699 2.440 . S
Tb673 O700 2.658 . S
Tb673 O701 2.409 . S
Tb673 O702 2.378 . S
C674 Tb672 2.809 . S
C674 C675 1.514 . S
C674 O692 1.248 . S
C674 O693 1.266 . S
C675 C674 1.514 . S
C675 C676 1.359 . S
C675 C680 1.348 . S
C676 C675 1.359 . S
C676 C677 1.380 . S
C676 H704 0.929 . S
C677 C676 1.380 . S
C677 C678 1.347 . S
C677 H705 0.931 . S
C678 C677 1.347 . S
C678 C679 1.369 . S
C679 C678 1.369 . S
C679 C680 1.408 . S
C679 H706 0.930 . S
C680 C675 1.348 . S
C680 C679 1.408 . S
C680 H707 0.930 . S
C681 O694 1.281 . S
C681 O695 1.254 . S
C682 O696 1.236 . S
C682 O697 1.266 . S
C683 Tb673 2.809 . S
C683 C684 1.514 . S
C683 O698 1.248 . S
C683 O699 1.266 . S
C684 C683 1.514 . S
C684 C685 1.359 . S
C684 C689 1.348 . S
C685 C684 1.359 . S
C685 C686 1.380 . S
C685 H708 0.929 . S
C686 C685 1.380 . S
C686 C687 1.347 . S
C686 H709 0.931 . S
C687 C686 1.347 . S
C687 C688 1.369 . S
C688 C687 1.369 . S
C688 C689 1.408 . S
C688 H710 0.930 . S
C689 C684 1.348 . S
C689 C688 1.408 . S
C689 H711 0.930 . S
C690 O700 1.281 . S
C690 O701 1.254 . S
C691 O702 1.236 . S
C691 O703 1.266 . S
O692 Tb672 2.484 . S
O692 C674 1.248 . S
O693 Tb672 2.440 . S
O693 C674 1.266 . S
O694 Tb672 2.658 . S
O694 Tb673 2.325 . S
O694 C681 1.281 . S
O695 Tb672 2.409 . S
O695 C681 1.254 . S
O696 Tb672 2.378 . S
O696 C682 1.236 . S
O697 Tb673 2.341 . S
O697 C682 1.266 . S
O698 Tb673 2.484 . S
O698 C683 1.248 . S
O699 Tb673 2.440 . S
O699 C683 1.266 . S
O700 Tb672 2.325 . S
O700 Tb673 2.658 . S
O700 C690 1.281 . S
O701 Tb673 2.409 . S
O701 C690 1.254 . S
O702 Tb673 2.378 . S
O702 C691 1.236 . S
O703 Tb672 2.341 . S
O703 C691 1.266 . S
H704 C676 0.929 . S
H705 C677 0.931 . S
H706 C679 0.930 . S
H707 C680 0.930 . S
H708 C685 0.929 . S
H709 C686 0.931 . S
H710 C688 0.930 . S
H711 C689 0.930 . S
Tb712 C714 2.809 1_455 S
Tb712 O732 2.484 1_455 S
Tb712 O733 2.440 1_455 S
Tb712 O734 2.658 . S
Tb712 O735 2.409 . S
Tb712 O736 2.378 . S
Tb712 O740 2.325 . S
Tb712 O743 2.341 . S
Tb713 C723 2.809 . S
Tb713 O734 2.325 . S
Tb713 O737 2.341 . S
Tb713 O738 2.484 . S
Tb713 O739 2.440 . S
Tb713 O740 2.658 . S
Tb713 O741 2.409 . S
Tb713 O742 2.378 . S
C714 Tb712 2.809 1_655 S
C714 C715 1.514 . S
C714 O732 1.248 . S
C714 O733 1.266 . S
C715 C714 1.514 . S
C715 C716 1.359 . S
C715 C720 1.348 . S
C716 C715 1.359 . S
C716 C717 1.380 . S
C716 H744 0.929 . S
C717 C716 1.380 . S
C717 C718 1.347 . S
C717 H745 0.931 . S
C718 C717 1.347 . S
C718 C719 1.369 . S
C719 C718 1.369 . S
C719 C720 1.408 . S
C719 H746 0.930 . S
C720 C715 1.348 . S
C720 C719 1.408 . S
C720 H747 0.930 . S
C721 O734 1.281 . S
C721 O735 1.254 . S
C722 O736 1.236 . S
C722 O737 1.266 . S
C723 Tb713 2.809 . S
C723 C724 1.514 . S
C723 O738 1.248 . S
C723 O739 1.266 . S
C724 C723 1.514 . S
C724 C725 1.359 . S
C724 C729 1.348 . S
C725 C724 1.359 . S
C725 C726 1.380 . S
C725 H748 0.929 . S
C726 C725 1.380 . S
C726 C727 1.347 . S
C726 H749 0.931 . S
C727 C726 1.347 . S
C727 C728 1.369 . S
C728 C727 1.369 . S
C728 C729 1.408 . S
C728 H750 0.930 . S
C729 C724 1.348 . S
C729 C728 1.408 . S
C729 H751 0.930 . S
C730 O740 1.281 . S
C730 O741 1.254 . S
C731 O742 1.236 . S
C731 O743 1.266 . S
O732 Tb712 2.484 1_655 S
O732 C714 1.248 . S
O733 Tb712 2.440 1_655 S
O733 C714 1.266 . S
O734 Tb712 2.658 . S
O734 Tb713 2.325 . S
O734 C721 1.281 . S
O735 Tb712 2.409 . S
O735 C721 1.254 . S
O736 Tb712 2.378 . S
O736 C722 1.236 . S
O737 Tb713 2.341 . S
O737 C722 1.266 . S
O738 Tb713 2.484 . S
O738 C723 1.248 . S
O739 Tb713 2.440 . S
O739 C723 1.266 . S
O740 Tb712 2.325 . S
O740 Tb713 2.658 . S
O740 C730 1.281 . S
O741 Tb713 2.409 . S
O741 C730 1.254 . S
O742 Tb713 2.378 . S
O742 C731 1.236 . S
O743 Tb712 2.341 . S
O743 C731 1.266 . S
H744 C716 0.929 . S
H745 C717 0.931 . S
H746 C719 0.930 . S
H747 C720 0.930 . S
H748 C725 0.929 . S
H749 C726 0.931 . S
H750 C728 0.930 . S
H751 C729 0.930 . S
Tb752 C754 2.809 . S
Tb752 O772 2.484 . S
Tb752 O773 2.440 . S
Tb752 O774 2.658 . S
Tb752 O775 2.409 . S
Tb752 O776 2.378 . S
Tb752 O780 2.325 . S
Tb752 O783 2.341 . S
Tb753 C763 2.809 . S
Tb753 O774 2.325 . S
Tb753 O777 2.341 . S
Tb753 O778 2.484 . S
Tb753 O779 2.440 . S
Tb753 O780 2.658 . S
Tb753 O781 2.409 . S
Tb753 O782 2.378 . S
C754 Tb752 2.809 . S
C754 C755 1.514 . S
C754 O772 1.248 . S
C754 O773 1.266 . S
C755 C754 1.514 . S
C755 C756 1.359 . S
C755 C760 1.348 . S
C756 C755 1.359 . S
C756 C757 1.380 . S
C756 H784 0.929 . S
C757 C756 1.380 . S
C757 C758 1.347 . S
C757 H785 0.931 . S
C758 C757 1.347 . S
C758 C759 1.369 . S
C759 C758 1.369 . S
C759 C760 1.408 . S
C759 H786 0.930 . S
C760 C755 1.348 . S
C760 C759 1.408 . S
C760 H787 0.930 . S
C761 O774 1.281 . S
C761 O775 1.254 . S
C762 O776 1.236 . S
C762 O777 1.266 . S
C763 Tb753 2.809 . S
C763 C764 1.514 . S
C763 O778 1.248 . S
C763 O779 1.266 . S
C764 C763 1.514 . S
C764 C765 1.359 . S
C764 C769 1.348 . S
C765 C764 1.359 . S
C765 C766 1.380 . S
C765 H788 0.929 . S
C766 C765 1.380 . S
C766 C767 1.347 . S
C766 H789 0.931 . S
C767 C766 1.347 . S
C767 C768 1.369 . S
C768 C767 1.369 . S
C768 C769 1.408 . S
C768 H790 0.930 . S
C769 C764 1.348 . S
C769 C768 1.408 . S
C769 H791 0.930 . S
C770 O780 1.281 . S
C770 O781 1.254 . S
C771 O782 1.236 . S
C771 O783 1.266 . S
O772 Tb752 2.484 . S
O772 C754 1.248 . S
O773 Tb752 2.440 . S
O773 C754 1.266 . S
O774 Tb752 2.658 . S
O774 Tb753 2.325 . S
O774 C761 1.281 . S
O775 Tb752 2.409 . S
O775 C761 1.254 . S
O776 Tb752 2.378 . S
O776 C762 1.236 . S
O777 Tb753 2.341 . S
O777 C762 1.266 . S
O778 Tb753 2.484 . S
O778 C763 1.248 . S
O779 Tb753 2.440 . S
O779 C763 1.266 . S
O780 Tb752 2.325 . S
O780 Tb753 2.658 . S
O780 C770 1.281 . S
O781 Tb753 2.409 . S
O781 C770 1.254 . S
O782 Tb753 2.378 . S
O782 C771 1.236 . S
O783 Tb752 2.341 . S
O783 C771 1.266 . S
H784 C756 0.929 . S
H785 C757 0.931 . S
H786 C759 0.930 . S
H787 C760 0.930 . S
H788 C765 0.929 . S
H789 C766 0.931 . S
H790 C768 0.930 . S
H791 C769 0.930 . S
Tb792 C794 2.809 . S
Tb792 O812 2.484 . S
Tb792 O813 2.440 . S
Tb792 O814 2.658 . S
Tb792 O815 2.409 . S
Tb792 O816 2.378 . S
Tb792 O820 2.325 . S
Tb792 O823 2.341 . S
Tb793 C803 2.809 . S
Tb793 O814 2.325 . S
Tb793 O817 2.341 . S
Tb793 O818 2.484 . S
Tb793 O819 2.440 . S
Tb793 O820 2.658 . S
Tb793 O821 2.409 . S
Tb793 O822 2.378 . S
C794 Tb792 2.809 . S
C794 C795 1.514 . S
C794 O812 1.248 . S
C794 O813 1.266 . S
C795 C794 1.514 . S
C795 C796 1.359 . S
C795 C800 1.348 . S
C796 C795 1.359 . S
C796 C797 1.380 . S
C796 H824 0.929 . S
C797 C796 1.380 . S
C797 C798 1.347 . S
C797 H825 0.931 . S
C798 C797 1.347 . S
C798 C799 1.369 . S
C799 C798 1.369 . S
C799 C800 1.408 . S
C799 H826 0.930 . S
C800 C795 1.348 . S
C800 C799 1.408 . S
C800 H827 0.930 . S
C801 O814 1.281 . S
C801 O815 1.254 . S
C802 O816 1.236 . S
C802 O817 1.266 . S
C803 Tb793 2.809 . S
C803 C804 1.514 . S
C803 O818 1.248 . S
C803 O819 1.266 . S
C804 C803 1.514 . S
C804 C805 1.359 . S
C804 C809 1.348 . S
C805 C804 1.359 . S
C805 C806 1.380 . S
C805 H828 0.929 . S
C806 C805 1.380 . S
C806 C807 1.347 . S
C806 H829 0.931 . S
C807 C806 1.347 . S
C807 C808 1.369 . S
C808 C807 1.369 . S
C808 C809 1.408 . S
C808 H830 0.930 . S
C809 C804 1.348 . S
C809 C808 1.408 . S
C809 H831 0.930 . S
C810 O820 1.281 . S
C810 O821 1.254 . S
C811 O822 1.236 . S
C811 O823 1.266 . S
O812 Tb792 2.484 . S
O812 C794 1.248 . S
O813 Tb792 2.440 . S
O813 C794 1.266 . S
O814 Tb792 2.658 . S
O814 Tb793 2.325 . S
O814 C801 1.281 . S
O815 Tb792 2.409 . S
O815 C801 1.254 . S
O816 Tb792 2.378 . S
O816 C802 1.236 . S
O817 Tb793 2.341 . S
O817 C802 1.266 . S
O818 Tb793 2.484 . S
O818 C803 1.248 . S
O819 Tb793 2.440 . S
O819 C803 1.266 . S
O820 Tb792 2.325 . S
O820 Tb793 2.658 . S
O820 C810 1.281 . S
O821 Tb793 2.409 . S
O821 C810 1.254 . S
O822 Tb793 2.378 . S
O822 C811 1.236 . S
O823 Tb792 2.341 . S
O823 C811 1.266 . S
H824 C796 0.929 . S
H825 C797 0.931 . S
H826 C799 0.930 . S
H827 C800 0.930 . S
H828 C805 0.929 . S
H829 C806 0.931 . S
H830 C808 0.930 . S
H831 C809 0.930 . S
Tb832 C834 2.809 . S
Tb832 O852 2.484 . S
Tb832 O853 2.440 . S
Tb832 O854 2.658 . S
Tb832 O855 2.409 . S
Tb832 O856 2.378 . S
Tb832 O860 2.325 . S
Tb832 O863 2.341 . S
Tb833 C843 2.809 . S
Tb833 O854 2.325 . S
Tb833 O857 2.341 . S
Tb833 O858 2.484 . S
Tb833 O859 2.440 . S
Tb833 O860 2.658 . S
Tb833 O861 2.409 . S
Tb833 O862 2.378 . S
C834 Tb832 2.809 . S
C834 C835 1.514 . S
C834 O852 1.248 . S
C834 O853 1.266 . S
C835 C834 1.514 . S
C835 C836 1.359 . S
C835 C840 1.348 . S
C836 C835 1.359 . S
C836 C837 1.380 . S
C836 H864 0.929 . S
C837 C836 1.380 . S
C837 C838 1.347 . S
C837 H865 0.931 . S
C838 C837 1.347 . S
C838 C839 1.369 . S
C839 C838 1.369 . S
C839 C840 1.408 . S
C839 H866 0.930 . S
C840 C835 1.348 . S
C840 C839 1.408 . S
C840 H867 0.930 . S
C841 O854 1.281 . S
C841 O855 1.254 . S
C842 O856 1.236 . S
C842 O857 1.266 . S
C843 Tb833 2.809 . S
C843 C844 1.514 . S
C843 O858 1.248 . S
C843 O859 1.266 . S
C844 C843 1.514 . S
C844 C845 1.359 . S
C844 C849 1.348 . S
C845 C844 1.359 . S
C845 C846 1.380 . S
C845 H868 0.929 . S
C846 C845 1.380 . S
C846 C847 1.347 . S
C846 H869 0.931 . S
C847 C846 1.347 . S
C847 C848 1.369 . S
C848 C847 1.369 . S
C848 C849 1.408 . S
C848 H870 0.930 . S
C849 C844 1.348 . S
C849 C848 1.408 . S
C849 H871 0.930 . S
C850 O860 1.281 . S
C850 O861 1.254 . S
C851 O862 1.236 . S
C851 O863 1.266 . S
O852 Tb832 2.484 . S
O852 C834 1.248 . S
O853 Tb832 2.440 . S
O853 C834 1.266 . S
O854 Tb832 2.658 . S
O854 Tb833 2.325 . S
O854 C841 1.281 . S
O855 Tb832 2.409 . S
O855 C841 1.254 . S
O856 Tb832 2.378 . S
O856 C842 1.236 . S
O857 Tb833 2.341 . S
O857 C842 1.266 . S
O858 Tb833 2.484 . S
O858 C843 1.248 . S
O859 Tb833 2.440 . S
O859 C843 1.266 . S
O860 Tb832 2.325 . S
O860 Tb833 2.658 . S
O860 C850 1.281 . S
O861 Tb833 2.409 . S
O861 C850 1.254 . S
O862 Tb833 2.378 . S
O862 C851 1.236 . S
O863 Tb832 2.341 . S
O863 C851 1.266 . S
H864 C836 0.929 . S
H865 C837 0.931 . S
H866 C839 0.930 . S
H867 C840 0.930 . S
H868 C845 0.929 . S
H869 C846 0.931 . S
H870 C848 0.930 . S
H871 C849 0.930 . S
Tb872 C874 2.809 . S
Tb872 O892 2.484 . S
Tb872 O893 2.440 . S
Tb872 O894 2.658 . S
Tb872 O895 2.409 . S
Tb872 O896 2.378 . S
Tb872 O900 2.325 . S
Tb872 O903 2.341 . S
Tb873 C883 2.809 . S
Tb873 O894 2.325 . S
Tb873 O897 2.341 . S
Tb873 O898 2.484 . S
Tb873 O899 2.440 . S
Tb873 O900 2.658 . S
Tb873 O901 2.409 . S
Tb873 O902 2.378 . S
C874 Tb872 2.809 . S
C874 C875 1.514 . S
C874 O892 1.248 . S
C874 O893 1.266 . S
C875 C874 1.514 . S
C875 C876 1.359 . S
C875 C880 1.348 . S
C876 C875 1.359 . S
C876 C877 1.380 . S
C876 H904 0.929 . S
C877 C876 1.380 . S
C877 C878 1.347 . S
C877 H905 0.931 . S
C878 C877 1.347 . S
C878 C879 1.369 . S
C879 C878 1.369 . S
C879 C880 1.408 . S
C879 H906 0.930 . S
C880 C875 1.348 . S
C880 C879 1.408 . S
C880 H907 0.930 . S
C881 O894 1.281 . S
C881 O895 1.254 . S
C882 O896 1.236 . S
C882 O897 1.266 . S
C883 Tb873 2.809 . S
C883 C884 1.514 . S
C883 O898 1.248 . S
C883 O899 1.266 . S
C884 C883 1.514 . S
C884 C885 1.359 . S
C884 C889 1.348 . S
C885 C884 1.359 . S
C885 C886 1.380 . S
C885 H908 0.929 . S
C886 C885 1.380 . S
C886 C887 1.347 . S
C886 H909 0.931 . S
C887 C886 1.347 . S
C887 C888 1.369 . S
C888 C887 1.369 . S
C888 C889 1.408 . S
C888 H910 0.930 . S
C889 C884 1.348 . S
C889 C888 1.408 . S
C889 H911 0.930 . S
C890 O900 1.281 . S
C890 O901 1.254 . S
C891 O902 1.236 . S
C891 O903 1.266 . S
O892 Tb872 2.484 . S
O892 C874 1.248 . S
O893 Tb872 2.440 . S
O893 C874 1.266 . S
O894 Tb872 2.658 . S
O894 Tb873 2.325 . S
O894 C881 1.281 . S
O895 Tb872 2.409 . S
O895 C881 1.254 . S
O896 Tb872 2.378 . S
O896 C882 1.236 . S
O897 Tb873 2.341 . S
O897 C882 1.266 . S
O898 Tb873 2.484 . S
O898 C883 1.248 . S
O899 Tb873 2.440 . S
O899 C883 1.266 . S
O900 Tb872 2.325 . S
O900 Tb873 2.658 . S
O900 C890 1.281 . S
O901 Tb873 2.409 . S
O901 C890 1.254 . S
O902 Tb873 2.378 . S
O902 C891 1.236 . S
O903 Tb872 2.341 . S
O903 C891 1.266 . S
H904 C876 0.929 . S
H905 C877 0.931 . S
H906 C879 0.930 . S
H907 C880 0.930 . S
H908 C885 0.929 . S
H909 C886 0.931 . S
H910 C888 0.930 . S
H911 C889 0.930 . S
Tb912 C914 2.809 . S
Tb912 O932 2.484 . S
Tb912 O933 2.440 . S
Tb912 O934 2.658 . S
Tb912 O935 2.409 1_554 S
Tb912 O936 2.378 . S
Tb912 O940 2.325 . S
Tb912 O943 2.341 . S
Tb913 C923 2.809 1_455 S
Tb913 O934 2.325 . S
Tb913 O937 2.341 . S
Tb913 O938 2.484 1_455 S
Tb913 O939 2.440 1_455 S
Tb913 O940 2.658 . S
Tb913 O941 2.409 . S
Tb913 O942 2.378 . S
C914 Tb912 2.809 . S
C914 C915 1.514 . S
C914 O932 1.248 . S
C914 O933 1.266 . S
C915 C914 1.514 . S
C915 C916 1.359 . S
C915 C920 1.309 1_554 S
C916 C915 1.359 . S
C916 C917 1.380 . S
C916 H944 0.929 . S
C917 C916 1.380 . S
C917 C918 1.347 . S
C917 H945 0.931 . S
C918 C917 1.347 . S
C918 C919 1.369 1_554 S
C919 C918 1.369 1_556 S
C919 C920 1.418 . S
C919 H946 0.930 . S
C920 C915 1.309 1_556 S
C920 C919 1.418 . S
C920 H947 0.961 . S
C921 O934 1.281 1_556 S
C921 O935 1.254 . S
C922 O936 1.236 . S
C922 O937 1.266 . S
C923 Tb913 2.809 1_655 S
C923 C924 1.514 . S
C923 O938 1.248 . S
C923 O939 1.266 . S
C924 C923 1.514 . S
C924 C925 1.359 . S
C924 C929 1.348 . S
C925 C924 1.359 . S
C925 C926 1.380 . S
C925 H948 0.929 . S
C926 C925 1.380 . S
C926 C927 1.347 . S
C926 H949 0.931 . S
C927 C926 1.347 . S
C927 C928 1.369 . S
C928 C927 1.369 . S
C928 C929 1.408 . S
C928 H950 0.930 . S
C929 C924 1.348 . S
C929 C928 1.408 . S
C929 H951 0.930 . S
C930 O940 1.281 . S
C930 O941 1.254 . S
C931 O942 1.236 . S
C931 O943 1.266 . S
O932 Tb912 2.484 . S
O932 C914 1.248 . S
O933 Tb912 2.440 . S
O933 C914 1.266 . S
O934 Tb912 2.658 . S
O934 Tb913 2.325 . S
O934 C921 1.281 1_554 S
O935 Tb912 2.409 1_556 S
O935 C921 1.254 . S
O936 Tb912 2.378 . S
O936 C922 1.236 . S
O937 Tb913 2.341 . S
O937 C922 1.266 . S
O938 Tb913 2.484 1_655 S
O938 C923 1.248 . S
O939 Tb913 2.440 1_655 S
O939 C923 1.266 . S
O940 Tb912 2.325 . S
O940 Tb913 2.658 . S
O940 C930 1.281 . S
O941 Tb913 2.409 . S
O941 C930 1.254 . S
O942 Tb913 2.378 . S
O942 C931 1.236 . S
O943 Tb912 2.341 . S
O943 C931 1.266 . S
H944 C916 0.929 . S
H945 C917 0.931 . S
H946 C919 0.930 . S
H947 C920 0.961 . S
H948 C925 0.929 . S
H949 C926 0.931 . S
H950 C928 0.930 . S
H951 C929 0.930 . S
H952 C958 0.930 . S
H953 C962 0.930 1_655 S
H954 C967 0.939 . S
H955 C965 0.929 . S
H956 C960 0.929 1_655 S
H957 C966 0.929 . S
C958 H952 0.930 . S
C958 C959 1.367 . S
C958 C966 1.378 . S
C959 C958 1.367 . S
C959 C967 1.407 1_456 S
C960 H956 0.929 1_455 S
C960 C962 1.378 . S
C960 C964 1.350 . S
C961 C964 1.463 . S
C961 C966 1.350 1_554 S
C961 N969 1.428 . S
C962 H953 0.930 1_455 S
C962 C960 1.378 . S
C962 C963 1.367 . S
C963 C962 1.367 . S
C963 C965 1.433 . S
C964 C960 1.350 . S
C964 C961 1.463 . S
C964 N968 1.427 . S
C965 H955 0.929 . S
C965 C963 1.433 . S
C965 N968 1.384 . S
C966 H957 0.929 . S
C966 C958 1.378 . S
C966 C961 1.350 1_556 S
C967 H954 0.939 . S
C967 C959 1.407 1_654 S
C967 N969 1.401 1_655 S
N968 C964 1.427 . S
N968 C965 1.384 . S
N969 C961 1.428 . S
N969 C967 1.401 1_455 S
H970 C976 0.930 . S
H971 C980 0.930 . S
H972 C985 0.929 . S
H973 C983 0.929 . S
H974 C978 0.929 . S
H975 C984 0.929 . S
C976 H970 0.930 . S
C976 C977 1.367 . S
C976 C984 1.378 . S
C977 C976 1.367 . S
C977 C985 1.433 . S
C978 H974 0.929 . S
C978 C980 1.378 . S
C978 C982 1.350 . S
C979 C982 1.463 . S
C979 C984 1.350 . S
C979 N987 1.427 . S
C980 H971 0.930 . S
C980 C978 1.378 . S
C980 C981 1.367 . S
C981 C980 1.367 . S
C981 C983 1.433 . S
C982 C978 1.350 . S
C982 C979 1.463 . S
C982 N986 1.427 . S
C983 H973 0.929 . S
C983 C981 1.433 . S
C983 N986 1.384 . S
C984 H975 0.929 . S
C984 C976 1.378 . S
C984 C979 1.350 . S
C985 H972 0.929 . S
C985 C977 1.433 . S
C985 N987 1.384 . S
N986 C982 1.427 . S
N986 C983 1.384 . S
N987 C979 1.427 . S
N987 C985 1.384 . S
H988 C994 0.930 . S
H989 C998 0.930 . S
H990 C1003 0.929 . S
H991 C1001 0.929 . S
H992 C996 0.929 . S
H993 C1002 0.929 . S
C994 H988 0.930 . S
C994 C995 1.367 . S
C994 C1002 1.378 . S
C995 C994 1.367 . S
C995 C1003 1.433 . S
C996 H992 0.929 . S
C996 C998 1.378 . S
C996 C1000 1.350 . S
C997 C1000 1.463 . S
C997 C1002 1.350 . S
C997 N1005 1.427 . S
C998 H989 0.930 . S
C998 C996 1.378 . S
C998 C999 1.367 . S
C999 C998 1.367 . S
C999 C1001 1.433 . S
C1000 C996 1.350 . S
C1000 C997 1.463 . S
C1000 N1004 1.427 . S
C1001 H991 0.929 . S
C1001 C999 1.433 . S
C1001 N1004 1.384 . S
C1002 H993 0.929 . S
C1002 C994 1.378 . S
C1002 C997 1.350 . S
C1003 H990 0.929 . S
C1003 C995 1.433 . S
C1003 N1005 1.384 . S
N1004 C1000 1.427 . S
N1004 C1001 1.384 . S
N1005 C997 1.427 . S
N1005 C1003 1.384 . S
H1006 C1012 0.930 . S
H1007 C1016 0.930 . S
H1008 C1021 0.929 . S
H1009 C1019 0.929 . S
H1010 C1014 0.929 . S
H1011 C1020 0.929 . S
C1012 H1006 0.930 . S
C1012 C1013 1.367 . S
C1012 C1020 1.378 . S
C1013 C1012 1.367 . S
C1013 C1021 1.433 . S
C1014 H1010 0.929 . S
C1014 C1016 1.378 . S
C1014 C1018 1.350 . S
C1015 C1018 1.463 . S
C1015 C1020 1.350 . S
C1015 N1023 1.427 . S
C1016 H1007 0.930 . S
C1016 C1014 1.378 . S
C1016 C1017 1.367 . S
C1017 C1016 1.367 . S
C1017 C1019 1.433 . S
C1018 C1014 1.350 . S
C1018 C1015 1.463 . S
C1018 N1022 1.427 . S
C1019 H1009 0.929 . S
C1019 C1017 1.433 . S
C1019 N1022 1.384 . S
C1020 H1011 0.929 . S
C1020 C1012 1.378 . S
C1020 C1015 1.350 . S
C1021 H1008 0.929 . S
C1021 C1013 1.433 . S
C1021 N1023 1.384 . S
N1022 C1018 1.427 . S
N1022 C1019 1.384 . S
N1023 C1015 1.427 . S
N1023 C1021 1.384 . S
H1024 C1030 0.930 . S
H1025 C1034 0.930 . S
H1026 C1039 0.929 . S
H1027 C1037 0.929 . S
H1028 C1032 0.929 . S
H1029 C1038 0.929 . S
C1030 H1024 0.930 . S
C1030 C1031 1.367 . S
C1030 C1038 1.378 . S
C1031 C1030 1.367 . S
C1031 C1039 1.433 . S
C1032 H1028 0.929 . S
C1032 C1034 1.378 . S
C1032 C1036 1.350 . S
C1033 C1036 1.463 . S
C1033 C1038 1.350 . S
C1033 N1041 1.427 . S
C1034 H1025 0.930 . S
C1034 C1032 1.378 . S
C1034 C1035 1.367 . S
C1035 C1034 1.367 . S
C1035 C1037 1.433 . S
C1036 C1032 1.350 . S
C1036 C1033 1.463 . S
C1036 N1040 1.427 . S
C1037 H1027 0.929 . S
C1037 C1035 1.433 . S
C1037 N1040 1.384 . S
C1038 H1029 0.929 . S
C1038 C1030 1.378 . S
C1038 C1033 1.350 . S
C1039 H1026 0.929 . S
C1039 C1031 1.433 . S
C1039 N1041 1.384 . S
N1040 C1036 1.427 . S
N1040 C1037 1.384 . S
N1041 C1033 1.427 . S
N1041 C1039 1.384 . S
H1042 C1048 0.930 . S
H1043 C1052 0.930 . S
H1044 C1057 0.929 . S
H1045 C1055 0.929 . S
H1046 C1050 0.929 . S
H1047 C1056 0.929 . S
C1048 H1042 0.930 . S
C1048 C1049 1.367 . S
C1048 C1056 1.378 . S
C1049 C1048 1.367 . S
C1049 C1057 1.433 . S
C1050 H1046 0.929 . S
C1050 C1052 1.378 . S
C1050 C1054 1.350 . S
C1051 C1054 1.463 . S
C1051 C1056 1.350 . S
C1051 N1059 1.427 . S
C1052 H1043 0.930 . S
C1052 C1050 1.378 . S
C1052 C1053 1.367 . S
C1053 C1052 1.367 . S
C1053 C1055 1.433 . S
C1054 C1050 1.350 . S
C1054 C1051 1.463 . S
C1054 N1058 1.427 . S
C1055 H1045 0.929 . S
C1055 C1053 1.433 . S
C1055 N1058 1.384 . S
C1056 H1047 0.929 . S
C1056 C1048 1.378 . S
C1056 C1051 1.350 . S
C1057 H1044 0.929 . S
C1057 C1049 1.433 . S
C1057 N1059 1.384 . S
N1058 C1054 1.427 . S
N1058 C1055 1.384 . S
N1059 C1051 1.427 . S
N1059 C1057 1.384 . S
H1060 C1066 0.930 . S
H1061 C1070 0.930 . S
H1062 C1075 0.929 . S
H1063 C1073 0.929 . S
H1064 C1068 0.929 . S
H1065 C1074 0.929 . S
C1066 H1060 0.930 . S
C1066 C1067 1.367 . S
C1066 C1074 1.378 . S
C1067 C1066 1.367 . S
C1067 C1075 1.433 . S
C1068 H1064 0.929 . S
C1068 C1070 1.378 . S
C1068 C1072 1.350 . S
C1069 C1072 1.463 . S
C1069 C1074 1.350 . S
C1069 N1077 1.427 . S
C1070 H1061 0.930 . S
C1070 C1068 1.378 . S
C1070 C1071 1.367 . S
C1071 C1070 1.367 . S
C1071 C1073 1.433 . S
C1072 C1068 1.350 . S
C1072 C1069 1.463 . S
C1072 N1076 1.427 . S
C1073 H1063 0.929 . S
C1073 C1071 1.433 . S
C1073 N1076 1.384 . S
C1074 H1065 0.929 . S
C1074 C1066 1.378 . S
C1074 C1069 1.350 . S
C1075 H1062 0.929 . S
C1075 C1067 1.433 . S
C1075 N1077 1.384 . S
N1076 C1072 1.427 . S
N1076 C1073 1.384 . S
N1077 C1069 1.427 . S
N1077 C1075 1.384 . S
H1078 C1084 0.930 . S
H1079 C1088 0.930 . S
H1080 C1093 0.929 . S
H1081 C1091 0.929 . S
H1082 C1086 0.929 . S
H1083 C1092 0.929 . S
C1084 H1078 0.930 . S
C1084 C1085 1.367 . S
C1084 C1092 1.378 . S
C1085 C1084 1.367 . S
C1085 C1093 1.433 . S
C1086 H1082 0.929 . S
C1086 C1088 1.378 . S
C1086 C1090 1.350 . S
C1087 C1090 1.463 . S
C1087 C1092 1.350 . S
C1087 N1095 1.427 . S
C1088 H1079 0.930 . S
C1088 C1086 1.378 . S
C1088 C1089 1.367 . S
C1089 C1088 1.367 . S
C1089 C1091 1.433 . S
C1090 C1086 1.350 . S
C1090 C1087 1.463 . S
C1090 N1094 1.427 . S
C1091 H1081 0.929 . S
C1091 C1089 1.433 . S
C1091 N1094 1.384 . S
C1092 H1083 0.929 . S
C1092 C1084 1.378 . S
C1092 C1087 1.350 . S
C1093 H1080 0.929 . S
C1093 C1085 1.433 . S
C1093 N1095 1.384 . S
N1094 C1090 1.427 . S
N1094 C1091 1.384 . S
N1095 C1087 1.427 . S
N1095 C1093 1.384 . S
H1096 C1102 0.930 . S
H1097 C1106 0.930 . S
H1098 C1111 0.929 . S
H1099 C1109 0.929 1_565 S
H1100 C1104 0.929 . S
H1101 C1110 0.929 . S
C1102 H1096 0.930 . S
C1102 C1103 1.359 1_565 S
C1102 C1110 1.378 . S
C1103 C1102 1.359 1_545 S
C1103 C1111 1.448 . S
C1104 H1100 0.929 . S
C1104 C1106 1.378 . S
C1104 C1108 1.350 1_455 S
C1105 C1108 1.463 . S
C1105 C1110 1.350 1_545 S
C1105 N1113 1.427 . S
C1106 H1097 0.930 . S
C1106 C1104 1.378 . S
C1106 C1107 1.367 . S
C1107 C1106 1.367 . S
C1107 C1109 1.433 1_455 S
C1108 C1104 1.350 1_655 S
C1108 C1105 1.463 . S
C1108 N1112 1.429 . S
C1109 H1099 0.929 1_545 S
C1109 C1107 1.433 1_655 S
C1109 N1112 1.385 . S
C1110 H1101 0.929 . S
C1110 C1102 1.378 . S
C1110 C1105 1.350 1_565 S
C1111 H1098 0.929 . S
C1111 C1103 1.448 . S
C1111 N1113 1.384 . S
N1112 C1108 1.429 . S
N1112 C1109 1.385 . S
N1113 C1105 1.427 . S
N1113 C1111 1.384 . S
H1114 C1120 0.930 . S
H1115 C1124 0.930 . S
H1116 C1129 0.929 . S
H1117 C1127 0.929 . S
H1118 C1122 0.929 . S
H1119 C1128 0.929 . S
C1120 H1114 0.930 . S
C1120 C1121 1.367 . S
C1120 C1128 1.378 . S
C1121 C1120 1.367 . S
C1121 C1129 1.433 . S
C1122 H1118 0.929 . S
C1122 C1124 1.378 . S
C1122 C1126 1.350 . S
C1123 C1126 1.463 . S
C1123 C1128 1.350 . S
C1123 N1131 1.427 . S
C1124 H1115 0.930 . S
C1124 C1122 1.378 . S
C1124 C1125 1.367 . S
C1125 C1124 1.367 . S
C1125 C1127 1.433 . S
C1126 C1122 1.350 . S
C1126 C1123 1.463 . S
C1126 N1130 1.427 . S
C1127 H1117 0.929 . S
C1127 C1125 1.433 . S
C1127 N1130 1.384 . S
C1128 H1119 0.929 . S
C1128 C1120 1.378 . S
C1128 C1123 1.350 . S
C1129 H1116 0.929 . S
C1129 C1121 1.433 . S
C1129 N1131 1.384 . S
N1130 C1126 1.427 . S
N1130 C1127 1.384 . S
N1131 C1123 1.427 . S
N1131 C1129 1.384 . S
H1132 C1138 0.930 . S
H1133 C1142 0.930 . S
H1134 C1147 0.929 . S
H1135 C1145 0.929 . S
H1136 C1140 0.929 . S
H1137 C1146 0.929 . S
C1138 H1132 0.930 . S
C1138 C1139 1.367 1_565 S
C1138 C1146 1.378 . S
C1139 C1138 1.367 1_545 S
C1139 C1147 1.433 . S
C1140 H1136 0.929 . S
C1140 C1142 1.378 . S
C1140 C1144 1.350 . S
C1141 C1144 1.463 . S
C1141 C1146 1.350 1_545 S
C1141 N1149 1.427 . S
C1142 H1133 0.930 . S
C1142 C1140 1.378 . S
C1142 C1143 1.367 . S
C1143 C1142 1.367 . S
C1143 C1145 1.433 1_545 S
C1144 C1140 1.350 . S
C1144 C1141 1.463 . S
C1144 N1148 1.427 1_545 S
C1145 H1135 0.929 . S
C1145 C1143 1.433 1_565 S
C1145 N1148 1.384 . S
C1146 H1137 0.929 . S
C1146 C1138 1.378 . S
C1146 C1141 1.350 1_565 S
C1147 H1134 0.929 . S
C1147 C1139 1.433 . S
C1147 N1149 1.384 . S
N1148 C1144 1.427 1_565 S
N1148 C1145 1.384 . S
N1149 C1141 1.427 . S
N1149 C1147 1.384 . S
H1150 C1156 0.930 . S
H1151 C1160 0.930 . S
H1152 C1165 0.929 . S
H1153 C1163 0.929 . S
H1154 C1158 0.929 . S
H1155 C1164 0.929 . S
C1156 H1150 0.930 . S
C1156 C1157 1.367 . S
C1156 C1164 1.378 . S
C1157 C1156 1.367 . S
C1157 C1165 1.433 . S
C1158 H1154 0.929 . S
C1158 C1160 1.378 . S
C1158 C1162 1.350 . S
C1159 C1162 1.463 . S
C1159 C1164 1.350 . S
C1159 N1167 1.427 . S
C1160 H1151 0.930 . S
C1160 C1158 1.378 . S
C1160 C1161 1.367 . S
C1161 C1160 1.367 . S
C1161 C1163 1.433 . S
C1162 C1158 1.350 . S
C1162 C1159 1.463 . S
C1162 N1166 1.427 . S
C1163 H1153 0.929 . S
C1163 C1161 1.433 . S
C1163 N1166 1.384 . S
C1164 H1155 0.929 . S
C1164 C1156 1.378 . S
C1164 C1159 1.350 . S
C1165 H1152 0.929 . S
C1165 C1157 1.433 . S
C1165 N1167 1.384 . S
N1166 C1162 1.427 . S
N1166 C1163 1.384 . S
N1167 C1159 1.427 . S
N1167 C1165 1.384 . S
H1168 C1174 0.930 . S
H1169 C1178 0.930 . S
H1170 C1183 0.929 . S
H1171 C1181 0.929 . S
H1172 C1176 0.929 . S
H1173 C1182 0.929 . S
C1174 H1168 0.930 . S
C1174 C1175 1.367 1_565 S
C1174 C1182 1.378 . S
C1175 C1174 1.367 1_545 S
C1175 C1183 1.433 . S
C1176 H1172 0.929 . S
C1176 C1178 1.378 1_655 S
C1176 C1180 1.350 . S
C1177 C1180 1.463 . S
C1177 C1182 1.350 1_545 S
C1177 N1185 1.427 . S
C1178 H1169 0.930 . S
C1178 C1176 1.378 1_455 S
C1178 C1179 1.367 . S
C1179 C1178 1.367 . S
C1179 C1181 1.433 1_545 S
C1180 C1176 1.350 . S
C1180 C1177 1.463 . S
C1180 N1184 1.427 1_645 S
C1181 H1171 0.929 . S
C1181 C1179 1.433 1_565 S
C1181 N1184 1.384 . S
C1182 H1173 0.929 . S
C1182 C1174 1.378 . S
C1182 C1177 1.350 1_565 S
C1183 H1170 0.929 . S
C1183 C1175 1.433 . S
C1183 N1185 1.384 . S
N1184 C1180 1.427 1_465 S
N1184 C1181 1.384 . S
N1185 C1177 1.427 . S
N1185 C1183 1.384 . S
H1186 C1192 0.930 . S
H1187 C1196 0.930 . S
H1188 C1201 0.929 . S
H1189 C1199 0.929 . S
H1190 C1194 0.929 . S
H1191 C1200 0.929 . S
C1192 H1186 0.930 . S
C1192 C1193 1.367 . S
C1192 C1200 1.378 . S
C1193 C1192 1.367 . S
C1193 C1201 1.433 . S
C1194 H1190 0.929 . S
C1194 C1196 1.378 . S
C1194 C1198 1.350 . S
C1195 C1198 1.463 . S
C1195 C1200 1.350 . S
C1195 N1203 1.427 . S
C1196 H1187 0.930 . S
C1196 C1194 1.378 . S
C1196 C1197 1.367 . S
C1197 C1196 1.367 . S
C1197 C1199 1.433 . S
C1198 C1194 1.350 . S
C1198 C1195 1.463 . S
C1198 N1202 1.427 . S
C1199 H1189 0.929 . S
C1199 C1197 1.433 . S
C1199 N1202 1.384 . S
C1200 H1191 0.929 . S
C1200 C1192 1.378 . S
C1200 C1195 1.350 . S
C1201 H1188 0.929 . S
C1201 C1193 1.433 . S
C1201 N1203 1.384 . S
N1202 C1198 1.427 . S
N1202 C1199 1.384 . S
N1203 C1195 1.427 . S
N1203 C1201 1.384 . S
H1204 C1210 0.962 . S
H1205 C1214 0.930 . S
H1206 C1219 0.929 . S
H1207 C1217 0.929 1_554 S
H1208 C1212 0.929 . S
H1209 C1218 0.929 . S
C1210 H1204 0.962 . S
C1210 C1211 1.367 . S
C1210 C1218 1.378 . S
C1211 C1210 1.367 . S
C1211 C1219 1.433 . S
C1212 H1208 0.929 . S
C1212 C1214 1.378 . S
C1212 C1216 1.350 . S
C1213 C1216 1.463 . S
C1213 C1218 1.350 . S
C1213 N1221 1.427 . S
C1214 H1205 0.930 . S
C1214 C1212 1.378 . S
C1214 C1215 1.367 . S
C1215 C1214 1.367 . S
C1215 C1217 1.433 . S
C1216 C1212 1.350 . S
C1216 C1213 1.463 . S
C1216 N1220 1.427 . S
C1217 H1207 0.929 1_556 S
C1217 C1215 1.433 . S
C1217 N1220 1.384 . S
C1218 H1209 0.929 . S
C1218 C1210 1.378 . S
C1218 C1213 1.350 . S
C1219 H1206 0.929 . S
C1219 C1211 1.433 . S
C1219 N1221 1.384 . S
N1220 C1216 1.427 . S
N1220 C1217 1.384 . S
N1221 C1213 1.427 . S
N1221 C1219 1.384 . S
H1222 C1228 0.930 . S
H1223 C1232 0.930 . S
H1224 C1237 0.929 . S
H1225 C1235 0.929 . S
H1226 C1230 0.929 . S
H1227 C1236 0.929 . S
C1228 H1222 0.930 . S
C1228 C1229 1.367 . S
C1228 C1236 1.378 . S
C1229 C1228 1.367 . S
C1229 C1237 1.433 . S
C1230 H1226 0.929 . S
C1230 C1232 1.378 . S
C1230 C1234 1.350 . S
C1231 C1234 1.463 . S
C1231 C1236 1.350 . S
C1231 N1239 1.427 . S
C1232 H1223 0.930 . S
C1232 C1230 1.378 . S
C1232 C1233 1.367 . S
C1233 C1232 1.367 . S
C1233 C1235 1.433 . S
C1234 C1230 1.350 . S
C1234 C1231 1.463 . S
C1234 N1238 1.427 . S
C1235 H1225 0.929 . S
C1235 C1233 1.433 . S
C1235 N1238 1.384 . S
C1236 H1227 0.929 . S
C1236 C1228 1.378 . S
C1236 C1231 1.350 . S
C1237 H1224 0.929 . S
C1237 C1229 1.433 . S
C1237 N1239 1.384 . S
N1238 C1234 1.427 . S
N1238 C1235 1.384 . S
N1239 C1231 1.427 . S
N1239 C1237 1.384 . S
H1240 C1246 0.930 . S
H1241 C1250 0.930 . S
H1242 C1255 0.915 1_556 S
H1243 C1253 0.929 . S
H1244 C1248 0.929 . S
H1245 C1254 0.929 . S
C1246 H1240 0.930 . S
C1246 C1247 1.367 . S
C1246 C1254 1.378 . S
C1247 C1246 1.367 . S
C1247 C1255 1.426 . S
C1248 H1244 0.929 . S
C1248 C1250 1.378 . S
C1248 C1252 1.350 . S
C1249 C1252 1.463 . S
C1249 C1254 1.350 . S
C1249 N1257 1.427 . S
C1250 H1241 0.930 . S
C1250 C1248 1.378 . S
C1250 C1251 1.367 . S
C1251 C1250 1.367 . S
C1251 C1253 1.433 . S
C1252 C1248 1.350 . S
C1252 C1249 1.463 . S
C1252 N1256 1.427 . S
C1253 H1243 0.929 . S
C1253 C1251 1.433 . S
C1253 N1256 1.384 . S
C1254 H1245 0.929 . S
C1254 C1246 1.378 . S
C1254 C1249 1.350 . S
C1255 H1242 0.915 1_554 S
C1255 C1247 1.426 . S
C1255 N1257 1.408 . S
N1256 C1252 1.427 . S
N1256 C1253 1.384 . S
N1257 C1249 1.427 . S
N1257 C1255 1.408 . S
H1258 C1264 0.930 . S
H1259 C1268 0.930 . S
H1260 C1273 0.929 . S
H1261 C1271 0.929 . S
H1262 C1266 0.929 . S
H1263 C1272 0.929 . S
C1264 H1258 0.930 . S
C1264 C1265 1.367 . S
C1264 C1272 1.378 . S
C1265 C1264 1.367 . S
C1265 C1273 1.433 . S
C1266 H1262 0.929 . S
C1266 C1268 1.378 . S
C1266 C1270 1.350 . S
C1267 C1270 1.463 . S
C1267 C1272 1.350 . S
C1267 N1275 1.427 . S
C1268 H1259 0.930 . S
C1268 C1266 1.378 . S
C1268 C1269 1.367 . S
C1269 C1268 1.367 . S
C1269 C1271 1.433 . S
C1270 C1266 1.350 . S
C1270 C1267 1.463 . S
C1270 N1274 1.427 . S
C1271 H1261 0.929 . S
C1271 C1269 1.433 . S
C1271 N1274 1.384 . S
C1272 H1263 0.929 . S
C1272 C1264 1.378 . S
C1272 C1267 1.350 . S
C1273 H1260 0.929 . S
C1273 C1265 1.433 . S
C1273 N1275 1.384 . S
N1274 C1270 1.427 . S
N1274 C1271 1.384 . S
N1275 C1267 1.427 . S
N1275 C1273 1.384 . S
H1276 C1282 0.930 . S
H1277 C1286 0.930 . S
H1278 C1291 0.929 . S
H1279 C1289 0.929 . S
H1280 C1284 0.929 . S
H1281 C1290 0.929 . S
C1282 H1276 0.930 . S
C1282 C1283 1.367 . S
C1282 C1290 1.378 . S
C1283 C1282 1.367 . S
C1283 C1291 1.433 . S
C1284 H1280 0.929 . S
C1284 C1286 1.378 . S
C1284 C1288 1.350 . S
C1285 C1288 1.463 . S
C1285 C1290 1.350 . S
C1285 N1293 1.427 . S
C1286 H1277 0.930 . S
C1286 C1284 1.378 . S
C1286 C1287 1.367 . S
C1287 C1286 1.367 . S
C1287 C1289 1.433 . S
C1288 C1284 1.350 . S
C1288 C1285 1.463 . S
C1288 N1292 1.427 . S
C1289 H1279 0.929 . S
C1289 C1287 1.433 . S
C1289 N1292 1.384 . S
C1290 H1281 0.929 . S
C1290 C1282 1.378 . S
C1290 C1285 1.350 . S
C1291 H1278 0.929 . S
C1291 C1283 1.433 . S
C1291 N1293 1.384 . S
N1292 C1288 1.427 . S
N1292 C1289 1.384 . S
N1293 C1285 1.427 . S
N1293 C1291 1.384 . S
H1294 C1300 0.930 . S
H1295 C1304 0.930 . S
H1296 C1309 0.929 . S
H1297 C1307 0.929 . S
H1298 C1302 0.929 . S
H1299 C1308 0.929 . S
C1300 H1294 0.930 . S
C1300 C1301 1.367 . S
C1300 C1308 1.378 . S
C1301 C1300 1.367 . S
C1301 C1309 1.433 . S
C1302 H1298 0.929 . S
C1302 C1304 1.378 . S
C1302 C1306 1.350 . S
C1303 C1306 1.463 . S
C1303 C1308 1.350 . S
C1303 N1311 1.427 . S
C1304 H1295 0.930 . S
C1304 C1302 1.378 . S
C1304 C1305 1.367 . S
C1305 C1304 1.367 . S
C1305 C1307 1.433 . S
C1306 C1302 1.350 . S
C1306 C1303 1.463 . S
C1306 N1310 1.427 . S
C1307 H1297 0.929 . S
C1307 C1305 1.433 . S
C1307 N1310 1.384 . S
C1308 H1299 0.929 . S
C1308 C1300 1.378 . S
C1308 C1303 1.350 . S
C1309 H1296 0.929 . S
C1309 C1301 1.433 . S
C1309 N1311 1.384 . S
N1310 C1306 1.427 . S
N1310 C1307 1.384 . S
N1311 C1303 1.427 . S
N1311 C1309 1.384 . S
H1312 C1318 0.930 . S
H1313 C1322 0.930 . S
H1314 C1327 0.929 . S
H1315 C1325 0.929 . S
H1316 C1320 0.929 . S
H1317 C1326 0.929 . S
C1318 H1312 0.930 . S
C1318 C1319 1.367 . S
C1318 C1326 1.378 . S
C1319 C1318 1.367 . S
C1319 C1327 1.433 . S
C1320 H1316 0.929 . S
C1320 C1322 1.378 . S
C1320 C1324 1.350 . S
C1321 C1324 1.463 . S
C1321 C1326 1.350 . S
C1321 N1329 1.427 . S
C1322 H1313 0.930 . S
C1322 C1320 1.378 . S
C1322 C1323 1.367 . S
C1323 C1322 1.367 . S
C1323 C1325 1.433 . S
C1324 C1320 1.350 . S
C1324 C1321 1.463 . S
C1324 N1328 1.427 . S
C1325 H1315 0.929 . S
C1325 C1323 1.433 . S
C1325 N1328 1.384 . S
C1326 H1317 0.929 . S
C1326 C1318 1.378 . S
C1326 C1321 1.350 . S
C1327 H1314 0.929 . S
C1327 C1319 1.433 . S
C1327 N1329 1.384 . S
N1328 C1324 1.427 . S
N1328 C1325 1.384 . S
N1329 C1321 1.427 . S
N1329 C1327 1.384 . S
H1330 C1336 0.930 . S
H1331 C1340 0.930 . S
H1332 C1345 0.929 . S
H1333 C1343 0.929 . S
H1334 C1338 0.929 . S
H1335 C1344 0.929 . S
C1336 H1330 0.930 . S
C1336 C1337 1.367 . S
C1336 C1344 1.378 . S
C1337 C1336 1.367 . S
C1337 C1345 1.433 . S
C1338 H1334 0.929 . S
C1338 C1340 1.378 . S
C1338 C1342 1.350 . S
C1339 C1342 1.463 . S
C1339 C1344 1.350 . S
C1339 N1347 1.427 . S
C1340 H1331 0.930 . S
C1340 C1338 1.378 . S
C1340 C1341 1.367 . S
C1341 C1340 1.367 . S
C1341 C1343 1.433 . S
C1342 C1338 1.350 . S
C1342 C1339 1.463 . S
C1342 N1346 1.427 . S
C1343 H1333 0.929 . S
C1343 C1341 1.433 . S
C1343 N1346 1.384 . S
C1344 H1335 0.929 . S
C1344 C1336 1.378 . S
C1344 C1339 1.350 . S
C1345 H1332 0.929 . S
C1345 C1337 1.433 . S
C1345 N1347 1.384 . S
N1346 C1342 1.427 . S
N1346 C1343 1.384 . S
N1347 C1339 1.427 . S
N1347 C1345 1.384 . S
H1348 C1354 0.930 . S
H1349 C1358 0.930 . S
H1350 C1363 0.929 . S
H1351 C1361 0.929 . S
H1352 C1356 0.929 . S
H1353 C1362 0.929 . S
C1354 H1348 0.930 . S
C1354 C1355 1.367 . S
C1354 C1362 1.378 . S
C1355 C1354 1.367 . S
C1355 C1363 1.433 . S
C1356 H1352 0.929 . S
C1356 C1358 1.378 . S
C1356 C1360 1.350 . S
C1357 C1360 1.463 . S
C1357 C1362 1.350 . S
C1357 N1365 1.427 . S
C1358 H1349 0.930 . S
C1358 C1356 1.378 . S
C1358 C1359 1.367 . S
C1359 C1358 1.367 . S
C1359 C1361 1.433 . S
C1360 C1356 1.350 . S
C1360 C1357 1.463 . S
C1360 N1364 1.427 . S
C1361 H1351 0.929 . S
C1361 C1359 1.433 . S
C1361 N1364 1.384 . S
C1362 H1353 0.929 . S
C1362 C1354 1.378 . S
C1362 C1357 1.350 . S
C1363 H1350 0.929 . S
C1363 C1355 1.433 . S
C1363 N1365 1.384 . S
N1364 C1360 1.427 . S
N1364 C1361 1.384 . S
N1365 C1357 1.427 . S
N1365 C1363 1.384 . S
H1366 C1372 0.930 . S
H1367 C1376 0.930 . S
H1368 C1381 0.929 . S
H1369 C1379 0.929 . S
H1370 C1374 0.929 . S
H1371 C1380 0.929 . S
C1372 H1366 0.930 . S
C1372 C1373 1.367 . S
C1372 C1380 1.378 . S
C1373 C1372 1.367 . S
C1373 C1381 1.433 . S
C1374 H1370 0.929 . S
C1374 C1376 1.378 . S
C1374 C1378 1.350 . S
C1375 C1378 1.463 . S
C1375 C1380 1.350 . S
C1375 N1383 1.427 . S
C1376 H1367 0.930 . S
C1376 C1374 1.378 . S
C1376 C1377 1.367 . S
C1377 C1376 1.367 . S
C1377 C1379 1.433 . S
C1378 C1374 1.350 . S
C1378 C1375 1.463 . S
C1378 N1382 1.427 . S
C1379 H1369 0.929 . S
C1379 C1377 1.433 . S
C1379 N1382 1.384 . S
C1380 H1371 0.929 . S
C1380 C1372 1.378 . S
C1380 C1375 1.350 . S
C1381 H1368 0.929 . S
C1381 C1373 1.433 . S
C1381 N1383 1.384 . S
N1382 C1378 1.427 . S
N1382 C1379 1.384 . S
N1383 C1375 1.427 . S
N1383 C1381 1.384 . S
H1384 C1390 0.930 . S
H1385 C1394 0.930 . S
H1386 C1399 0.929 . S
H1387 C1397 0.929 . S
H1388 C1392 0.929 . S
H1389 C1398 0.929 . S
C1390 H1384 0.930 . S
C1390 C1391 1.367 . S
C1390 C1398 1.378 . S
C1391 C1390 1.367 . S
C1391 C1399 1.433 . S
C1392 H1388 0.929 . S
C1392 C1394 1.378 . S
C1392 C1396 1.350 . S
C1393 C1396 1.463 . S
C1393 C1398 1.350 . S
C1393 N1401 1.427 . S
C1394 H1385 0.930 . S
C1394 C1392 1.378 . S
C1394 C1395 1.367 . S
C1395 C1394 1.367 . S
C1395 C1397 1.433 . S
C1396 C1392 1.350 . S
C1396 C1393 1.463 . S
C1396 N1400 1.427 . S
C1397 H1387 0.929 . S
C1397 C1395 1.433 . S
C1397 N1400 1.384 . S
C1398 H1389 0.929 . S
C1398 C1390 1.378 . S
C1398 C1393 1.350 . S
C1399 H1386 0.929 . S
C1399 C1391 1.433 . S
C1399 N1401 1.384 . S
N1400 C1396 1.427 . S
N1400 C1397 1.384 . S
N1401 C1393 1.427 . S
N1401 C1399 1.384 . S
H1402 C1408 0.930 . S
H1403 C1412 0.930 . S
H1404 C1417 0.929 . S
H1405 C1415 0.929 . S
H1406 C1410 0.929 . S
H1407 C1416 0.929 . S
C1408 H1402 0.930 . S
C1408 C1409 1.367 . S
C1408 C1416 1.378 . S
C1409 C1408 1.367 . S
C1409 C1417 1.433 . S
C1410 H1406 0.929 . S
C1410 C1412 1.378 . S
C1410 C1414 1.350 . S
C1411 C1414 1.463 . S
C1411 C1416 1.350 . S
C1411 N1419 1.427 . S
C1412 H1403 0.930 . S
C1412 C1410 1.378 . S
C1412 C1413 1.367 . S
C1413 C1412 1.367 . S
C1413 C1415 1.433 . S
C1414 C1410 1.350 . S
C1414 C1411 1.463 . S
C1414 N1418 1.427 . S
C1415 H1405 0.929 . S
C1415 C1413 1.433 . S
C1415 N1418 1.384 . S
C1416 H1407 0.929 . S
C1416 C1408 1.378 . S
C1416 C1411 1.350 . S
C1417 H1404 0.929 . S
C1417 C1409 1.433 . S
C1417 N1419 1.384 . S
N1418 C1414 1.427 . S
N1418 C1415 1.384 . S
N1419 C1411 1.427 . S
N1419 C1417 1.384 . S
H1420 C1426 0.930 . S
H1421 C1430 0.930 . S
H1422 C1435 0.929 . S
H1423 C1433 0.929 . S
H1424 C1428 0.929 . S
H1425 C1434 0.929 . S
C1426 H1420 0.930 . S
C1426 C1427 1.367 . S
C1426 C1434 1.378 . S
C1427 C1426 1.367 . S
C1427 C1435 1.433 . S
C1428 H1424 0.929 . S
C1428 C1430 1.378 . S
C1428 C1432 1.350 . S
C1429 C1432 1.463 . S
C1429 C1434 1.350 . S
C1429 N1437 1.427 . S
C1430 H1421 0.930 . S
C1430 C1428 1.378 . S
C1430 C1431 1.367 . S
C1431 C1430 1.367 . S
C1431 C1433 1.433 . S
C1432 C1428 1.350 . S
C1432 C1429 1.463 . S
C1432 N1436 1.427 . S
C1433 H1423 0.929 . S
C1433 C1431 1.433 . S
C1433 N1436 1.384 . S
C1434 H1425 0.929 . S
C1434 C1426 1.378 . S
C1434 C1429 1.350 . S
C1435 H1422 0.929 . S
C1435 C1427 1.433 . S
C1435 N1437 1.384 . S
N1436 C1432 1.427 . S
N1436 C1433 1.384 . S
N1437 C1429 1.427 . S
N1437 C1435 1.384 . S
H1438 C1444 0.930 . S
H1439 C1448 0.930 . S
H1440 C1453 0.929 . S
H1441 C1451 0.929 . S
H1442 C1446 0.929 . S
H1443 C1452 0.929 . S
C1444 H1438 0.930 . S
C1444 C1445 1.367 . S
C1444 C1452 1.378 . S
C1445 C1444 1.367 . S
C1445 C1453 1.433 . S
C1446 H1442 0.929 . S
C1446 C1448 1.378 . S
C1446 C1450 1.350 . S
C1447 C1450 1.463 . S
C1447 C1452 1.350 . S
C1447 N1455 1.427 . S
C1448 H1439 0.930 . S
C1448 C1446 1.378 . S
C1448 C1449 1.367 . S
C1449 C1448 1.367 . S
C1449 C1451 1.433 . S
C1450 C1446 1.350 . S
C1450 C1447 1.463 . S
C1450 N1454 1.427 . S
C1451 H1441 0.929 . S
C1451 C1449 1.433 . S
C1451 N1454 1.384 . S
C1452 H1443 0.929 . S
C1452 C1444 1.378 . S
C1452 C1447 1.350 . S
C1453 H1440 0.929 . S
C1453 C1445 1.433 . S
C1453 N1455 1.384 . S
N1454 C1450 1.427 . S
N1454 C1451 1.384 . S
N1455 C1447 1.427 . S
N1455 C1453 1.384 . S
H1456 C1462 0.930 . S
H1457 C1466 0.930 . S
H1458 C1471 0.929 . S
H1459 C1469 0.929 . S
H1460 C1464 0.929 . S
H1461 C1470 0.929 . S
C1462 H1456 0.930 . S
C1462 C1463 1.366 . S
C1462 C1470 1.378 . S
C1463 C1462 1.366 . S
C1463 C1471 1.433 1_455 S
C1464 H1460 0.929 . S
C1464 C1466 1.378 . S
C1464 C1468 1.350 . S
C1465 C1468 1.459 . S
C1465 C1470 1.349 1_655 S
C1465 N1473 1.433 . S
C1466 H1457 0.930 . S
C1466 C1464 1.378 . S
C1466 C1467 1.367 . S
C1467 C1466 1.367 . S
C1467 C1469 1.433 1_655 S
C1468 C1464 1.350 . S
C1468 C1465 1.459 . S
C1468 N1472 1.427 1_655 S
C1469 H1459 0.929 . S
C1469 C1467 1.433 1_455 S
C1469 N1472 1.384 . S
C1470 H1461 0.929 . S
C1470 C1462 1.378 . S
C1470 C1465 1.349 1_455 S
C1471 H1458 0.929 . S
C1471 C1463 1.433 1_655 S
C1471 N1473 1.384 . S
N1472 C1468 1.427 1_455 S
N1472 C1469 1.384 . S
N1473 C1465 1.433 . S
N1473 C1471 1.384 . S
H1474 C1480 0.930 . S
H1475 C1484 0.930 . S
H1476 C1489 0.929 . S
H1477 C1487 0.929 . S
H1478 C1482 0.929 . S
H1479 C1488 0.929 . S
C1480 H1474 0.930 . S
C1480 C1481 1.367 . S
C1480 C1488 1.378 . S
C1481 C1480 1.367 . S
C1481 C1489 1.433 . S
C1482 H1478 0.929 . S
C1482 C1484 1.378 . S
C1482 C1486 1.350 . S
C1483 C1486 1.463 . S
C1483 C1488 1.350 . S
C1483 N1491 1.427 . S
C1484 H1475 0.930 . S
C1484 C1482 1.378 . S
C1484 C1485 1.367 . S
C1485 C1484 1.367 . S
C1485 C1487 1.433 . S
C1486 C1482 1.350 . S
C1486 C1483 1.463 . S
C1486 N1490 1.427 . S
C1487 H1477 0.929 . S
C1487 C1485 1.433 . S
C1487 N1490 1.384 . S
C1488 H1479 0.929 . S
C1488 C1480 1.378 . S
C1488 C1483 1.350 . S
C1489 H1476 0.929 . S
C1489 C1481 1.433 . S
C1489 N1491 1.384 . S
N1490 C1486 1.427 . S
N1490 C1487 1.384 . S
N1491 C1483 1.427 . S
N1491 C1489 1.384 . S
H1492 C1498 0.930 . S
H1493 C1502 0.926 1_556 S
H1494 C1507 0.929 . S
H1495 C1505 0.929 . S
H1496 C1500 0.929 . S
H1497 C1506 0.929 . S
C1498 H1492 0.930 . S
C1498 C1499 1.367 . S
C1498 C1506 1.378 . S
C1499 C1498 1.367 . S
C1499 C1507 1.433 . S
C1500 H1496 0.929 . S
C1500 C1502 1.362 1_556 S
C1500 C1504 1.350 . S
C1501 C1504 1.463 . S
C1501 C1506 1.350 . S
C1501 N1509 1.427 . S
C1502 H1493 0.926 1_554 S
C1502 C1500 1.362 1_554 S
C1502 C1503 1.388 . S
C1503 C1502 1.388 . S
C1503 C1505 1.433 . S
C1504 C1500 1.350 . S
C1504 C1501 1.463 . S
C1504 N1508 1.427 1_556 S
C1505 H1495 0.929 . S
C1505 C1503 1.433 . S
C1505 N1508 1.384 . S
C1506 H1497 0.929 . S
C1506 C1498 1.378 . S
C1506 C1501 1.350 . S
C1507 H1494 0.929 . S
C1507 C1499 1.433 . S
C1507 N1509 1.384 . S
N1508 C1504 1.427 1_554 S
N1508 C1505 1.384 . S
N1509 C1501 1.427 . S
N1509 C1507 1.384 . S
H1510 C1516 0.930 . S
H1511 C1520 0.930 . S
H1512 C1525 0.929 . S
H1513 C1523 0.929 . S
H1514 C1518 0.929 . S
H1515 C1524 0.930 . S
C1516 H1510 0.930 . S
C1516 C1517 1.367 . S
C1516 C1524 1.372 . S
C1517 C1516 1.367 . S
C1517 C1525 1.433 1_455 S
C1518 H1514 0.929 . S
C1518 C1520 1.378 . S
C1518 C1522 1.350 . S
C1519 C1522 1.463 . S
C1519 C1524 1.355 1_655 S
C1519 N1527 1.427 . S
C1520 H1511 0.930 . S
C1520 C1518 1.378 . S
C1520 C1521 1.367 . S
C1521 C1520 1.367 . S
C1521 C1523 1.433 . S
C1522 C1518 1.350 . S
C1522 C1519 1.463 . S
C1522 N1526 1.427 . S
C1523 H1513 0.929 . S
C1523 C1521 1.433 . S
C1523 N1526 1.384 . S
C1524 H1515 0.930 . S
C1524 C1516 1.372 . S
C1524 C1519 1.355 1_455 S
C1525 H1512 0.929 . S
C1525 C1517 1.433 1_655 S
C1525 N1527 1.384 . S
N1526 C1522 1.427 . S
N1526 C1523 1.384 . S
N1527 C1519 1.427 . S
N1527 C1525 1.384 . S
H1528 C1534 0.930 . S
H1529 C1538 0.930 . S
H1530 C1543 0.929 . S
H1531 C1541 0.929 . S
H1532 C1536 0.929 1_565 S
H1533 C1542 0.929 . S
C1534 H1528 0.930 . S
C1534 C1535 1.367 . S
C1534 C1542 1.378 . S
C1535 C1534 1.367 . S
C1535 C1543 1.433 . S
C1536 H1532 0.929 1_545 S
C1536 C1538 1.378 1_545 S
C1536 C1540 1.350 . S
C1537 C1540 1.463 . S
C1537 C1542 1.350 . S
C1537 N1545 1.427 . S
C1538 H1529 0.930 . S
C1538 C1536 1.378 1_565 S
C1538 C1539 1.367 1_565 S
C1539 C1538 1.367 1_545 S
C1539 C1541 1.433 . S
C1540 C1536 1.350 . S
C1540 C1537 1.463 . S
C1540 N1544 1.427 . S
C1541 H1531 0.929 . S
C1541 C1539 1.433 . S
C1541 N1544 1.384 . S
C1542 H1533 0.929 . S
C1542 C1534 1.378 . S
C1542 C1537 1.350 . S
C1543 H1530 0.929 . S
C1543 C1535 1.433 . S
C1543 N1545 1.384 . S
N1544 C1540 1.427 . S
N1544 C1541 1.384 . S
N1545 C1537 1.427 . S
N1545 C1543 1.384 . S
H1546 C1552 0.930 . S
H1547 C1556 0.930 . S
H1548 C1561 0.929 . S
H1549 C1559 0.929 . S
H1550 C1554 0.929 . S
H1551 C1560 0.929 . S
C1552 H1546 0.930 . S
C1552 C1553 1.367 . S
C1552 C1560 1.378 . S
C1553 C1552 1.367 . S
C1553 C1561 1.433 . S
C1554 H1550 0.929 . S
C1554 C1556 1.378 . S
C1554 C1558 1.350 . S
C1555 C1558 1.463 . S
C1555 C1560 1.350 . S
C1555 N1563 1.427 . S
C1556 H1547 0.930 . S
C1556 C1554 1.378 . S
C1556 C1557 1.367 . S
C1557 C1556 1.367 . S
C1557 C1559 1.433 . S
C1558 C1554 1.350 . S
C1558 C1555 1.463 . S
C1558 N1562 1.427 . S
C1559 H1549 0.929 . S
C1559 C1557 1.433 . S
C1559 N1562 1.384 . S
C1560 H1551 0.929 . S
C1560 C1552 1.378 . S
C1560 C1555 1.350 . S
C1561 H1548 0.929 . S
C1561 C1553 1.433 . S
C1561 N1563 1.384 . S
N1562 C1558 1.427 . S
N1562 C1559 1.384 . S
N1563 C1555 1.427 . S
N1563 C1561 1.384 . S
H1564 C1570 0.930 . S
H1565 C1574 0.930 . S
H1566 C1579 0.929 . S
H1567 C1577 0.957 . S
H1568 C1572 0.929 . S
H1569 C1578 0.929 . S
C1570 H1564 0.930 . S
C1570 C1571 1.367 . S
C1570 C1578 1.378 . S
C1571 C1570 1.367 . S
C1571 C1579 1.433 . S
C1572 H1568 0.929 . S
C1572 C1574 1.378 . S
C1572 C1576 1.350 . S
C1573 C1576 1.463 . S
C1573 C1578 1.350 . S
C1573 N1581 1.427 . S
C1574 H1565 0.930 . S
C1574 C1572 1.378 . S
C1574 C1575 1.367 . S
C1575 C1574 1.367 . S
C1575 C1577 1.433 . S
C1576 C1572 1.350 . S
C1576 C1573 1.463 . S
C1576 N1580 1.427 . S
C1577 H1567 0.957 . S
C1577 C1575 1.433 . S
C1577 N1580 1.384 . S
C1578 H1569 0.929 . S
C1578 C1570 1.378 . S
C1578 C1573 1.350 . S
C1579 H1566 0.929 . S
C1579 C1571 1.433 . S
C1579 N1581 1.384 . S
N1580 C1576 1.427 . S
N1580 C1577 1.384 . S
N1581 C1573 1.427 . S
N1581 C1579 1.384 . S
H1582 C1588 0.930 . S
H1583 C1592 0.930 . S
H1584 C1597 0.929 . S
H1585 C1595 0.929 . S
H1586 C1590 0.929 . S
H1587 C1596 0.929 . S
C1588 H1582 0.930 . S
C1588 C1589 1.367 . S
C1588 C1596 1.378 . S
C1589 C1588 1.367 . S
C1589 C1597 1.433 . S
C1590 H1586 0.929 . S
C1590 C1592 1.378 . S
C1590 C1594 1.350 . S
C1591 C1594 1.463 . S
C1591 C1596 1.350 . S
C1591 N1599 1.427 . S
C1592 H1583 0.930 . S
C1592 C1590 1.378 . S
C1592 C1593 1.367 . S
C1593 C1592 1.367 . S
C1593 C1595 1.433 . S
C1594 C1590 1.350 . S
C1594 C1591 1.463 . S
C1594 N1598 1.427 . S
C1595 H1585 0.929 . S
C1595 C1593 1.433 . S
C1595 N1598 1.384 . S
C1596 H1587 0.929 . S
C1596 C1588 1.378 . S
C1596 C1591 1.350 . S
C1597 H1584 0.929 . S
C1597 C1589 1.433 . S
C1597 N1599 1.384 . S
N1598 C1594 1.427 . S
N1598 C1595 1.384 . S
N1599 C1591 1.427 . S
N1599 C1597 1.384 . S
H1600 C1606 0.930 . S
H1601 C1610 0.930 1_565 S
H1602 C1615 0.929 1_565 S
H1603 C1613 0.929 . S
H1604 C1608 0.929 1_565 S
H1605 C1614 0.929 . S
C1606 H1600 0.930 . S
C1606 C1607 1.367 . S
C1606 C1614 1.378 . S
C1607 C1606 1.367 . S
C1607 C1615 1.433 . S
C1608 H1604 0.929 1_545 S
C1608 C1610 1.378 . S
C1608 C1612 1.350 . S
C1609 C1612 1.463 . S
C1609 C1614 1.350 . S
C1609 N1617 1.427 . S
C1610 H1601 0.930 1_545 S
C1610 C1608 1.378 . S
C1610 C1611 1.367 . S
C1611 C1610 1.367 . S
C1611 C1613 1.433 . S
C1612 C1608 1.350 . S
C1612 C1609 1.463 . S
C1612 N1616 1.427 . S
C1613 H1603 0.929 . S
C1613 C1611 1.433 . S
C1613 N1616 1.384 . S
C1614 H1605 0.929 . S
C1614 C1606 1.378 . S
C1614 C1609 1.350 . S
C1615 H1602 0.929 1_545 S
C1615 C1607 1.433 . S
C1615 N1617 1.384 . S
N1616 C1612 1.427 . S
N1616 C1613 1.384 . S
N1617 C1609 1.427 . S
N1617 C1615 1.384 . S
H1618 C1624 0.930 . S
H1619 C1628 0.930 . S
H1620 C1633 0.929 . S
H1621 C1631 0.929 . S
H1622 C1626 0.929 . S
H1623 C1632 0.929 . S
C1624 H1618 0.930 . S
C1624 C1625 1.367 . S
C1624 C1632 1.378 . S
C1625 C1624 1.367 . S
C1625 C1633 1.433 . S
C1626 H1622 0.929 . S
C1626 C1628 1.378 . S
C1626 C1630 1.350 . S
C1627 C1630 1.463 . S
C1627 C1632 1.350 . S
C1627 N1635 1.427 . S
C1628 H1619 0.930 . S
C1628 C1626 1.378 . S
C1628 C1629 1.367 . S
C1629 C1628 1.367 . S
C1629 C1631 1.433 . S
C1630 C1626 1.350 . S
C1630 C1627 1.463 . S
C1630 N1634 1.427 . S
C1631 H1621 0.929 . S
C1631 C1629 1.433 . S
C1631 N1634 1.384 . S
C1632 H1623 0.929 . S
C1632 C1624 1.378 . S
C1632 C1627 1.350 . S
C1633 H1620 0.929 . S
C1633 C1625 1.433 . S
C1633 N1635 1.384 . S
N1634 C1630 1.427 . S
N1634 C1631 1.384 . S
N1635 C1627 1.427 . S
N1635 C1633 1.384 . S
H1636 C1642 0.930 . S
H1637 C1646 0.930 . S
H1638 C1651 0.929 . S
H1639 C1649 0.929 . S
H1640 C1644 0.929 . S
H1641 C1650 0.929 . S
C1642 H1636 0.930 . S
C1642 C1643 1.367 . S
C1642 C1650 1.378 . S
C1643 C1642 1.367 . S
C1643 C1651 1.433 1_545 S
C1644 H1640 0.929 . S
C1644 C1646 1.378 . S
C1644 C1648 1.350 1_565 S
C1645 C1648 1.463 . S
C1645 C1650 1.350 . S
C1645 N1653 1.427 1_545 S
C1646 H1637 0.930 . S
C1646 C1644 1.378 . S
C1646 C1647 1.367 1_565 S
C1647 C1646 1.367 1_545 S
C1647 C1649 1.433 . S
C1648 C1644 1.350 1_545 S
C1648 C1645 1.463 . S
C1648 N1652 1.427 . S
C1649 H1639 0.929 . S
C1649 C1647 1.433 . S
C1649 N1652 1.384 . S
C1650 H1641 0.929 . S
C1650 C1642 1.378 . S
C1650 C1645 1.350 . S
C1651 H1638 0.929 . S
C1651 C1643 1.433 1_565 S
C1651 N1653 1.384 . S
N1652 C1648 1.427 . S
N1652 C1649 1.384 . S
N1653 C1645 1.427 1_565 S
N1653 C1651 1.384 . S
H1654 C1660 0.930 . S
H1655 C1664 0.930 . S
H1656 C1669 0.929 . S
H1657 C1667 0.929 . S
H1658 C1662 0.929 . S
H1659 C1668 0.929 . S
C1660 H1654 0.930 . S
C1660 C1661 1.367 . S
C1660 C1668 1.378 . S
C1661 C1660 1.367 . S
C1661 C1669 1.433 . S
C1662 H1658 0.929 . S
C1662 C1664 1.378 . S
C1662 C1666 1.350 . S
C1663 C1666 1.463 . S
C1663 C1668 1.350 . S
C1663 N1671 1.427 . S
C1664 H1655 0.930 . S
C1664 C1662 1.378 . S
C1664 C1665 1.367 . S
C1665 C1664 1.367 . S
C1665 C1667 1.433 . S
C1666 C1662 1.350 . S
C1666 C1663 1.463 . S
C1666 N1670 1.427 . S
C1667 H1657 0.929 . S
C1667 C1665 1.433 . S
C1667 N1670 1.384 . S
C1668 H1659 0.929 . S
C1668 C1660 1.378 . S
C1668 C1663 1.350 . S
C1669 H1656 0.929 . S
C1669 C1661 1.433 . S
C1669 N1671 1.384 . S
N1670 C1666 1.427 . S
N1670 C1667 1.384 . S
N1671 C1663 1.427 . S
N1671 C1669 1.384 . S
H1672 C1678 0.930 . S
H1673 C1682 0.930 . S
H1674 C1687 0.929 . S
H1675 C1685 0.929 1_556 S
H1676 C1680 0.929 . S
H1677 C1686 0.929 . S
C1678 H1672 0.930 . S
C1678 C1679 1.367 . S
C1678 C1686 1.378 . S
C1679 C1678 1.367 . S
C1679 C1687 1.433 . S
C1680 H1676 0.929 . S
C1680 C1682 1.378 . S
C1680 C1684 1.350 . S
C1681 C1684 1.463 . S
C1681 C1686 1.350 . S
C1681 N1689 1.427 . S
C1682 H1673 0.930 . S
C1682 C1680 1.378 . S
C1682 C1683 1.367 . S
C1683 C1682 1.367 . S
C1683 C1685 1.433 . S
C1684 C1680 1.350 . S
C1684 C1681 1.463 . S
C1684 N1688 1.427 . S
C1685 H1675 0.929 1_554 S
C1685 C1683 1.433 . S
C1685 N1688 1.384 . S
C1686 H1677 0.929 . S
C1686 C1678 1.378 . S
C1686 C1681 1.350 . S
C1687 H1674 0.929 . S
C1687 C1679 1.433 . S
C1687 N1689 1.384 . S
N1688 C1684 1.427 . S
N1688 C1685 1.384 . S
N1689 C1681 1.427 . S
N1689 C1687 1.384 . S
H1690 C1696 0.930 . S
H1691 C1700 0.930 . S
H1692 C1705 0.929 . S
H1693 C1703 0.929 . S
H1694 C1698 0.929 . S
H1695 C1704 0.929 . S
C1696 H1690 0.930 . S
C1696 C1697 1.367 . S
C1696 C1704 1.378 . S
C1697 C1696 1.367 . S
C1697 C1705 1.433 . S
C1698 H1694 0.929 . S
C1698 C1700 1.378 . S
C1698 C1702 1.350 . S
C1699 C1702 1.463 . S
C1699 C1704 1.350 . S
C1699 N1707 1.427 . S
C1700 H1691 0.930 . S
C1700 C1698 1.378 . S
C1700 C1701 1.367 . S
C1701 C1700 1.367 . S
C1701 C1703 1.433 . S
C1702 C1698 1.350 . S
C1702 C1699 1.463 . S
C1702 N1706 1.427 . S
C1703 H1693 0.929 . S
C1703 C1701 1.433 . S
C1703 N1706 1.384 . S
C1704 H1695 0.929 . S
C1704 C1696 1.378 . S
C1704 C1699 1.350 . S
C1705 H1692 0.929 . S
C1705 C1697 1.433 . S
C1705 N1707 1.384 . S
N1706 C1702 1.427 . S
N1706 C1703 1.384 . S
N1707 C1699 1.427 . S
N1707 C1705 1.384 . S
H1708 C1714 0.930 . S
H1709 C1718 0.930 . S
H1710 C1723 0.929 . S
H1711 C1721 0.929 . S
H1712 C1716 0.929 . S
H1713 C1722 0.929 . S
C1714 H1708 0.930 . S
C1714 C1715 1.367 . S
C1714 C1722 1.378 . S
C1715 C1714 1.367 . S
C1715 C1723 1.433 . S
C1716 H1712 0.929 . S
C1716 C1718 1.378 . S
C1716 C1720 1.350 . S
C1717 C1720 1.463 . S
C1717 C1722 1.350 . S
C1717 N1725 1.427 . S
C1718 H1709 0.930 . S
C1718 C1716 1.378 . S
C1718 C1719 1.367 . S
C1719 C1718 1.367 . S
C1719 C1721 1.433 . S
C1720 C1716 1.350 . S
C1720 C1717 1.463 . S
C1720 N1724 1.427 . S
C1721 H1711 0.929 . S
C1721 C1719 1.433 . S
C1721 N1724 1.384 . S
C1722 H1713 0.929 . S
C1722 C1714 1.378 . S
C1722 C1717 1.350 . S
C1723 H1710 0.929 . S
C1723 C1715 1.433 . S
C1723 N1725 1.384 . S
N1724 C1720 1.427 . S
N1724 C1721 1.384 . S
N1725 C1717 1.427 . S
N1725 C1723 1.384 . S
H1726 C1732 0.930 . S
H1727 C1736 0.930 . S
H1728 C1741 0.929 . S
H1729 C1739 0.929 . S
H1730 C1734 0.929 . S
H1731 C1740 0.929 . S
C1732 H1726 0.930 . S
C1732 C1733 1.367 . S
C1732 C1740 1.378 . S
C1733 C1732 1.367 . S
C1733 C1741 1.433 . S
C1734 H1730 0.929 . S
C1734 C1736 1.378 . S
C1734 C1738 1.350 . S
C1735 C1738 1.463 . S
C1735 C1740 1.350 . S
C1735 N1743 1.427 . S
C1736 H1727 0.930 . S
C1736 C1734 1.378 . S
C1736 C1737 1.367 . S
C1737 C1736 1.367 . S
C1737 C1739 1.433 . S
C1738 C1734 1.350 . S
C1738 C1735 1.463 . S
C1738 N1742 1.427 . S
C1739 H1729 0.929 . S
C1739 C1737 1.433 . S
C1739 N1742 1.384 . S
C1740 H1731 0.929 . S
C1740 C1732 1.378 . S
C1740 C1735 1.350 . S
C1741 H1728 0.929 . S
C1741 C1733 1.433 . S
C1741 N1743 1.384 . S
N1742 C1738 1.427 . S
N1742 C1739 1.384 . S
N1743 C1735 1.427 . S
N1743 C1741 1.384 . S
H1744 C1750 0.930 . S
H1745 C1754 0.930 . S
H1746 C1759 0.929 . S
H1747 C1757 0.929 . S
H1748 C1752 0.929 . S
H1749 C1758 0.929 . S
C1750 H1744 0.930 . S
C1750 C1751 1.367 . S
C1750 C1758 1.378 . S
C1751 C1750 1.367 . S
C1751 C1759 1.433 . S
C1752 H1748 0.929 . S
C1752 C1754 1.378 . S
C1752 C1756 1.350 . S
C1753 C1756 1.463 . S
C1753 C1758 1.350 . S
C1753 N1761 1.427 . S
C1754 H1745 0.930 . S
C1754 C1752 1.378 . S
C1754 C1755 1.367 . S
C1755 C1754 1.367 . S
C1755 C1757 1.433 . S
C1756 C1752 1.350 . S
C1756 C1753 1.463 . S
C1756 N1760 1.427 . S
C1757 H1747 0.929 . S
C1757 C1755 1.433 . S
C1757 N1760 1.384 . S
C1758 H1749 0.929 . S
C1758 C1750 1.378 . S
C1758 C1753 1.350 . S
C1759 H1746 0.929 . S
C1759 C1751 1.433 . S
C1759 N1761 1.384 . S
N1760 C1756 1.427 . S
N1760 C1757 1.384 . S
N1761 C1753 1.427 . S
N1761 C1759 1.384 . S
H1762 C1768 0.930 . S
H1763 C1772 0.930 . S
H1764 C1777 0.929 . S
H1765 C1775 0.929 . S
H1766 C1770 0.929 . S
H1767 C1776 0.929 . S
C1768 H1762 0.930 . S
C1768 C1769 1.367 . S
C1768 C1776 1.378 . S
C1769 C1768 1.367 . S
C1769 C1777 1.433 . S
C1770 H1766 0.929 . S
C1770 C1772 1.378 . S
C1770 C1774 1.350 . S
C1771 C1774 1.463 . S
C1771 C1776 1.350 . S
C1771 N1779 1.427 . S
C1772 H1763 0.930 . S
C1772 C1770 1.378 . S
C1772 C1773 1.367 . S
C1773 C1772 1.367 . S
C1773 C1775 1.433 . S
C1774 C1770 1.350 . S
C1774 C1771 1.463 . S
C1774 N1778 1.427 . S
C1775 H1765 0.929 . S
C1775 C1773 1.433 . S
C1775 N1778 1.384 . S
C1776 H1767 0.929 . S
C1776 C1768 1.378 . S
C1776 C1771 1.350 . S
C1777 H1764 0.929 . S
C1777 C1769 1.433 . S
C1777 N1779 1.384 . S
N1778 C1774 1.427 . S
N1778 C1775 1.384 . S
N1779 C1771 1.427 . S
N1779 C1777 1.384 . S
H1780 C1786 0.930 . S
H1781 C1790 0.930 . S
H1782 C1795 0.929 . S
H1783 C1793 0.929 . S
H1784 C1788 0.929 . S
H1785 C1794 0.929 . S
C1786 H1780 0.930 . S
C1786 C1787 1.367 . S
C1786 C1794 1.378 . S
C1787 C1786 1.367 . S
C1787 C1795 1.433 . S
C1788 H1784 0.929 . S
C1788 C1790 1.378 . S
C1788 C1792 1.350 . S
C1789 C1792 1.463 . S
C1789 C1794 1.350 . S
C1789 N1797 1.427 . S
C1790 H1781 0.930 . S
C1790 C1788 1.378 . S
C1790 C1791 1.367 . S
C1791 C1790 1.367 . S
C1791 C1793 1.433 . S
C1792 C1788 1.350 . S
C1792 C1789 1.463 . S
C1792 N1796 1.427 . S
C1793 H1783 0.929 . S
C1793 C1791 1.433 . S
C1793 N1796 1.384 . S
C1794 H1785 0.929 . S
C1794 C1786 1.378 . S
C1794 C1789 1.350 . S
C1795 H1782 0.929 . S
C1795 C1787 1.433 . S
C1795 N1797 1.384 . S
N1796 C1792 1.427 . S
N1796 C1793 1.384 . S
N1797 C1789 1.427 . S
N1797 C1795 1.384 . S
H1798 C1804 0.930 . S
H1799 C1808 0.930 . S
H1800 C1813 0.929 . S
H1801 C1811 0.929 . S
H1802 C1806 0.929 . S
H1803 C1812 0.929 . S
C1804 H1798 0.930 . S
C1804 C1805 1.367 . S
C1804 C1812 1.378 . S
C1805 C1804 1.367 . S
C1805 C1813 1.433 . S
C1806 H1802 0.929 . S
C1806 C1808 1.378 . S
C1806 C1810 1.350 . S
C1807 C1810 1.463 . S
C1807 C1812 1.350 . S
C1807 N1815 1.427 . S
C1808 H1799 0.930 . S
C1808 C1806 1.378 . S
C1808 C1809 1.367 . S
C1809 C1808 1.367 . S
C1809 C1811 1.433 . S
C1810 C1806 1.350 . S
C1810 C1807 1.463 . S
C1810 N1814 1.427 . S
C1811 H1801 0.929 . S
C1811 C1809 1.433 . S
C1811 N1814 1.384 . S
C1812 H1803 0.929 . S
C1812 C1804 1.378 . S
C1812 C1807 1.350 . S
C1813 H1800 0.929 . S
C1813 C1805 1.433 . S
C1813 N1815 1.384 . S
N1814 C1810 1.427 . S
N1814 C1811 1.384 . S
N1815 C1807 1.427 . S
N1815 C1813 1.384 . S
H1816 C1822 0.930 . S
H1817 C1826 0.930 . S
H1818 C1831 0.929 . S
H1819 C1829 0.929 . S
H1820 C1824 0.929 . S
H1821 C1830 0.929 . S
C1822 H1816 0.930 . S
C1822 C1823 1.367 . S
C1822 C1830 1.378 . S
C1823 C1822 1.367 . S
C1823 C1831 1.433 . S
C1824 H1820 0.929 . S
C1824 C1826 1.378 . S
C1824 C1828 1.350 . S
C1825 C1828 1.463 . S
C1825 C1830 1.350 . S
C1825 N1833 1.427 . S
C1826 H1817 0.930 . S
C1826 C1824 1.378 . S
C1826 C1827 1.367 . S
C1827 C1826 1.367 . S
C1827 C1829 1.433 . S
C1828 C1824 1.350 . S
C1828 C1825 1.463 . S
C1828 N1832 1.427 . S
C1829 H1819 0.929 . S
C1829 C1827 1.433 . S
C1829 N1832 1.384 . S
C1830 H1821 0.929 . S
C1830 C1822 1.378 . S
C1830 C1825 1.350 . S
C1831 H1818 0.929 . S
C1831 C1823 1.433 . S
C1831 N1833 1.384 . S
N1832 C1828 1.427 . S
N1832 C1829 1.384 . S
N1833 C1825 1.427 . S
N1833 C1831 1.384 . S
H1834 C1840 0.930 . S
H1835 C1844 0.930 . S
H1836 C1849 0.929 . S
H1837 C1847 0.929 . S
H1838 C1842 0.929 . S
H1839 C1848 0.929 . S
C1840 H1834 0.930 . S
C1840 C1841 1.367 . S
C1840 C1848 1.378 . S
C1841 C1840 1.367 . S
C1841 C1849 1.433 . S
C1842 H1838 0.929 . S
C1842 C1844 1.378 . S
C1842 C1846 1.350 . S
C1843 C1846 1.463 . S
C1843 C1848 1.350 . S
C1843 N1851 1.427 . S
C1844 H1835 0.930 . S
C1844 C1842 1.378 . S
C1844 C1845 1.367 . S
C1845 C1844 1.367 . S
C1845 C1847 1.433 . S
C1846 C1842 1.350 . S
C1846 C1843 1.463 . S
C1846 N1850 1.427 . S
C1847 H1837 0.929 . S
C1847 C1845 1.433 . S
C1847 N1850 1.384 . S
C1848 H1839 0.929 . S
C1848 C1840 1.378 . S
C1848 C1843 1.350 . S
C1849 H1836 0.929 . S
C1849 C1841 1.433 . S
C1849 N1851 1.384 . S
N1850 C1846 1.427 . S
N1850 C1847 1.384 . S
N1851 C1843 1.427 . S
N1851 C1849 1.384 . S
H1852 C1858 0.930 . S
H1853 C1862 0.930 . S
H1854 C1867 0.929 . S
H1855 C1865 0.929 . S
H1856 C1860 0.929 . S
H1857 C1866 0.929 . S
C1858 H1852 0.930 . S
C1858 C1859 1.367 . S
C1858 C1866 1.378 . S
C1859 C1858 1.367 . S
C1859 C1867 1.433 1_556 S
C1860 H1856 0.929 . S
C1860 C1862 1.378 . S
C1860 C1864 1.350 . S
C1861 C1864 1.463 . S
C1861 C1866 1.350 1_554 S
C1861 N1869 1.427 . S
C1862 H1853 0.930 . S
C1862 C1860 1.378 . S
C1862 C1863 1.367 . S
C1863 C1862 1.367 . S
C1863 C1865 1.433 1_554 S
C1864 C1860 1.350 . S
C1864 C1861 1.463 . S
C1864 N1868 1.427 1_554 S
C1865 H1855 0.929 . S
C1865 C1863 1.433 1_556 S
C1865 N1868 1.384 . S
C1866 H1857 0.929 . S
C1866 C1858 1.378 . S
C1866 C1861 1.350 1_556 S
C1867 H1854 0.929 . S
C1867 C1859 1.433 1_554 S
C1867 N1869 1.384 . S
N1868 C1864 1.427 1_556 S
N1868 C1865 1.384 . S
N1869 C1861 1.427 . S
N1869 C1867 1.384 . S
H1870 C1876 0.930 . S
H1871 C1880 0.930 . S
H1872 C1885 0.929 . S
H1873 C1883 0.929 . S
H1874 C1878 0.929 . S
H1875 C1884 0.929 . S
C1876 H1870 0.930 . S
C1876 C1877 1.367 . S
C1876 C1884 1.378 . S
C1877 C1876 1.367 . S
C1877 C1885 1.433 . S
C1878 H1874 0.929 . S
C1878 C1880 1.378 . S
C1878 C1882 1.350 . S
C1879 C1882 1.463 . S
C1879 C1884 1.350 . S
C1879 N1887 1.427 . S
C1880 H1871 0.930 . S
C1880 C1878 1.378 . S
C1880 C1881 1.367 . S
C1881 C1880 1.367 . S
C1881 C1883 1.433 . S
C1882 C1878 1.350 . S
C1882 C1879 1.463 . S
C1882 N1886 1.427 . S
C1883 H1873 0.929 . S
C1883 C1881 1.433 . S
C1883 N1886 1.384 . S
C1884 H1875 0.929 . S
C1884 C1876 1.378 . S
C1884 C1879 1.350 . S
C1885 H1872 0.929 . S
C1885 C1877 1.433 . S
C1885 N1887 1.384 . S
N1886 C1882 1.427 . S
N1886 C1883 1.384 . S
N1887 C1879 1.427 . S
N1887 C1885 1.384 . S
H1888 C1894 0.930 . S
H1889 C1898 0.930 . S
H1890 C1903 0.929 . S
H1891 C1901 0.929 . S
H1892 C1896 0.929 . S
H1893 C1902 0.929 . S
C1894 H1888 0.930 . S
C1894 C1895 1.367 . S
C1894 C1902 1.378 . S
C1895 C1894 1.367 . S
C1895 C1903 1.433 . S
C1896 H1892 0.929 . S
C1896 C1898 1.378 . S
C1896 C1900 1.350 . S
C1897 C1900 1.463 . S
C1897 C1902 1.350 . S
C1897 N1905 1.427 . S
C1898 H1889 0.930 . S
C1898 C1896 1.378 . S
C1898 C1899 1.367 . S
C1899 C1898 1.367 . S
C1899 C1901 1.433 . S
C1900 C1896 1.350 . S
C1900 C1897 1.463 . S
C1900 N1904 1.427 . S
C1901 H1891 0.929 . S
C1901 C1899 1.433 . S
C1901 N1904 1.384 . S
C1902 H1893 0.929 . S
C1902 C1894 1.378 . S
C1902 C1897 1.350 . S
C1903 H1890 0.929 . S
C1903 C1895 1.433 . S
C1903 N1905 1.384 . S
N1904 C1900 1.427 . S
N1904 C1901 1.384 . S
N1905 C1897 1.427 . S
N1905 C1903 1.384 . S
H1906 C1912 0.930 . S
H1907 C1916 0.930 . S
H1908 C1921 0.929 . S
H1909 C1919 0.929 . S
H1910 C1914 0.929 . S
H1911 C1920 0.929 . S
C1912 H1906 0.930 . S
C1912 C1913 1.367 . S
C1912 C1920 1.378 . S
C1913 C1912 1.367 . S
C1913 C1921 1.433 . S
C1914 H1910 0.929 . S
C1914 C1916 1.378 . S
C1914 C1918 1.350 . S
C1915 C1918 1.463 . S
C1915 C1920 1.350 . S
C1915 N1923 1.427 . S
C1916 H1907 0.930 . S
C1916 C1914 1.378 . S
C1916 C1917 1.367 . S
C1917 C1916 1.367 . S
C1917 C1919 1.433 . S
C1918 C1914 1.350 . S
C1918 C1915 1.463 . S
C1918 N1922 1.427 . S
C1919 H1909 0.929 . S
C1919 C1917 1.433 . S
C1919 N1922 1.384 . S
C1920 H1911 0.929 . S
C1920 C1912 1.378 . S
C1920 C1915 1.350 . S
C1921 H1908 0.929 . S
C1921 C1913 1.433 . S
C1921 N1923 1.384 . S
N1922 C1918 1.427 . S
N1922 C1919 1.384 . S
N1923 C1915 1.427 . S
N1923 C1921 1.384 . S
H1924 C1930 0.930 . S
H1925 C1934 0.930 . S
H1926 C1939 0.929 . S
H1927 C1937 0.929 . S
H1928 C1932 0.929 . S
H1929 C1938 0.929 . S
C1930 H1924 0.930 . S
C1930 C1931 1.367 . S
C1930 C1938 1.378 . S
C1931 C1930 1.367 . S
C1931 C1939 1.433 . S
C1932 H1928 0.929 . S
C1932 C1934 1.378 . S
C1932 C1936 1.350 . S
C1933 C1936 1.463 . S
C1933 C1938 1.350 . S
C1933 N1941 1.427 . S
C1934 H1925 0.930 . S
C1934 C1932 1.378 . S
C1934 C1935 1.367 . S
C1935 C1934 1.367 . S
C1935 C1937 1.433 . S
C1936 C1932 1.350 . S
C1936 C1933 1.463 . S
C1936 N1940 1.427 . S
C1937 H1927 0.929 . S
C1937 C1935 1.433 . S
C1937 N1940 1.384 . S
C1938 H1929 0.929 . S
C1938 C1930 1.378 . S
C1938 C1933 1.350 . S
C1939 H1926 0.929 . S
C1939 C1931 1.433 . S
C1939 N1941 1.384 . S
N1940 C1936 1.427 . S
N1940 C1937 1.384 . S
N1941 C1933 1.427 . S
N1941 C1939 1.384 . S
H1942 C1948 0.930 . S
H1943 C1952 0.930 . S
H1944 C1957 0.929 . S
H1945 C1955 0.929 . S
H1946 C1950 0.929 . S
H1947 C1956 0.929 . S
C1948 H1942 0.930 . S
C1948 C1949 1.367 . S
C1948 C1956 1.378 . S
C1949 C1948 1.367 . S
C1949 C1957 1.433 . S
C1950 H1946 0.929 . S
C1950 C1952 1.378 . S
C1950 C1954 1.350 . S
C1951 C1954 1.463 . S
C1951 C1956 1.350 . S
C1951 N1959 1.427 . S
C1952 H1943 0.930 . S
C1952 C1950 1.378 . S
C1952 C1953 1.367 . S
C1953 C1952 1.367 . S
C1953 C1955 1.433 . S
C1954 C1950 1.350 . S
C1954 C1951 1.463 . S
C1954 N1958 1.427 . S
C1955 H1945 0.929 . S
C1955 C1953 1.433 . S
C1955 N1958 1.384 . S
C1956 H1947 0.929 . S
C1956 C1948 1.378 . S
C1956 C1951 1.350 . S
C1957 H1944 0.929 . S
C1957 C1949 1.433 . S
C1957 N1959 1.384 . S
N1958 C1954 1.427 . S
N1958 C1955 1.384 . S
N1959 C1951 1.427 . S
N1959 C1957 1.384 . S
H1960 C1966 0.930 . S
H1961 C1970 0.930 . S
H1962 C1975 0.929 . S
H1963 C1973 0.929 . S
H1964 C1968 0.929 . S
H1965 C1974 0.929 . S
C1966 H1960 0.930 . S
C1966 C1967 1.367 . S
C1966 C1974 1.378 . S
C1967 C1966 1.367 . S
C1967 C1975 1.433 . S
C1968 H1964 0.929 . S
C1968 C1970 1.378 . S
C1968 C1972 1.350 . S
C1969 C1972 1.463 . S
C1969 C1974 1.350 . S
C1969 N1977 1.427 . S
C1970 H1961 0.930 . S
C1970 C1968 1.378 . S
C1970 C1971 1.367 . S
C1971 C1970 1.367 . S
C1971 C1973 1.433 . S
C1972 C1968 1.350 . S
C1972 C1969 1.463 . S
C1972 N1976 1.427 . S
C1973 H1963 0.929 . S
C1973 C1971 1.433 . S
C1973 N1976 1.384 . S
C1974 H1965 0.929 . S
C1974 C1966 1.378 . S
C1974 C1969 1.350 . S
C1975 H1962 0.929 . S
C1975 C1967 1.433 . S
C1975 N1977 1.384 . S
N1976 C1972 1.427 . S
N1976 C1973 1.384 . S
N1977 C1969 1.427 . S
N1977 C1975 1.384 . S
H1978 C1984 0.930 . S
H1979 C1988 0.930 . S
H1980 C1993 0.929 . S
H1981 C1991 0.929 . S
H1982 C1986 0.929 . S
H1983 C1992 0.929 . S
C1984 H1978 0.930 . S
C1984 C1985 1.367 . S
C1984 C1992 1.378 . S
C1985 C1984 1.367 . S
C1985 C1993 1.433 . S
C1986 H1982 0.929 . S
C1986 C1988 1.378 . S
C1986 C1990 1.350 . S
C1987 C1990 1.463 1_554 S
C1987 C1992 1.350 . S
C1987 N1995 1.427 . S
C1988 H1979 0.930 . S
C1988 C1986 1.378 . S
C1988 C1989 1.367 . S
C1989 C1988 1.367 . S
C1989 C1991 1.433 . S
C1990 C1986 1.350 . S
C1990 C1987 1.463 1_556 S
C1990 N1994 1.427 . S
C1991 H1981 0.929 . S
C1991 C1989 1.433 . S
C1991 N1994 1.384 . S
C1992 H1983 0.929 . S
C1992 C1984 1.378 . S
C1992 C1987 1.350 . S
C1993 H1980 0.929 . S
C1993 C1985 1.433 . S
C1993 N1995 1.384 . S
N1994 C1990 1.427 . S
N1994 C1991 1.384 . S
N1995 C1987 1.427 . S
N1995 C1993 1.384 . S
H1996 C2002 0.930 . S
H1997 C2006 0.930 . S
H1998 C2011 0.929 . S
H1999 C2009 0.929 . S
H2000 C2004 0.929 . S
H2001 C2010 0.929 . S
C2002 H1996 0.930 . S
C2002 C2003 1.367 . S
C2002 C2010 1.378 . S
C2003 C2002 1.367 . S
C2003 C2011 1.433 . S
C2004 H2000 0.929 . S
C2004 C2006 1.378 . S
C2004 C2008 1.350 . S
C2005 C2008 1.463 . S
C2005 C2010 1.350 . S
C2005 N2013 1.427 . S
C2006 H1997 0.930 . S
C2006 C2004 1.378 . S
C2006 C2007 1.367 . S
C2007 C2006 1.367 . S
C2007 C2009 1.433 . S
C2008 C2004 1.350 . S
C2008 C2005 1.463 . S
C2008 N2012 1.427 . S
C2009 H1999 0.929 . S
C2009 C2007 1.433 . S
C2009 N2012 1.384 . S
C2010 H2001 0.929 . S
C2010 C2002 1.378 . S
C2010 C2005 1.350 . S
C2011 H1998 0.929 . S
C2011 C2003 1.433 . S
C2011 N2013 1.384 . S
N2012 C2008 1.427 . S
N2012 C2009 1.384 . S
N2013 C2005 1.427 . S
N2013 C2011 1.384 . S
H2014 C2020 0.930 . S
H2015 C2024 0.930 . S
H2016 C2029 0.929 . S
H2017 C2027 0.929 . S
H2018 C2022 0.929 . S
H2019 C2028 0.929 . S
C2020 H2014 0.930 . S
C2020 C2021 1.367 . S
C2020 C2028 1.378 . S
C2021 C2020 1.367 . S
C2021 C2029 1.433 . S
C2022 H2018 0.929 . S
C2022 C2024 1.378 . S
C2022 C2026 1.350 . S
C2023 C2026 1.463 . S
C2023 C2028 1.350 . S
C2023 N2031 1.427 . S
C2024 H2015 0.930 . S
C2024 C2022 1.378 . S
C2024 C2025 1.367 . S
C2025 C2024 1.367 . S
C2025 C2027 1.433 . S
C2026 C2022 1.350 . S
C2026 C2023 1.463 . S
C2026 N2030 1.427 . S
C2027 H2017 0.929 . S
C2027 C2025 1.433 . S
C2027 N2030 1.384 . S
C2028 H2019 0.929 . S
C2028 C2020 1.378 . S
C2028 C2023 1.350 . S
C2029 H2016 0.929 . S
C2029 C2021 1.433 . S
C2029 N2031 1.384 . S
N2030 C2026 1.427 . S
N2030 C2027 1.384 . S
N2031 C2023 1.427 . S
N2031 C2029 1.384 . S
H2032 C2038 0.930 . S
H2033 C2042 0.930 . S
H2034 C2047 0.929 . S
H2035 C2045 0.929 . S
H2036 C2040 0.929 . S
H2037 C2046 0.929 . S
C2038 H2032 0.930 . S
C2038 C2039 1.367 . S
C2038 C2046 1.378 . S
C2039 C2038 1.367 . S
C2039 C2047 1.433 . S
C2040 H2036 0.929 . S
C2040 C2042 1.378 . S
C2040 C2044 1.350 . S
C2041 C2044 1.463 . S
C2041 C2046 1.350 . S
C2041 N2049 1.427 . S
C2042 H2033 0.930 . S
C2042 C2040 1.378 . S
C2042 C2043 1.367 . S
C2043 C2042 1.367 . S
C2043 C2045 1.433 . S
C2044 C2040 1.350 . S
C2044 C2041 1.463 . S
C2044 N2048 1.427 . S
C2045 H2035 0.929 . S
C2045 C2043 1.433 . S
C2045 N2048 1.384 . S
C2046 H2037 0.929 . S
C2046 C2038 1.378 . S
C2046 C2041 1.350 . S
C2047 H2034 0.929 . S
C2047 C2039 1.433 . S
C2047 N2049 1.384 . S
N2048 C2044 1.427 . S
N2048 C2045 1.384 . S
N2049 C2041 1.427 . S
N2049 C2047 1.384 . S
H2050 C2056 0.930 . S
H2051 C2060 0.930 . S
H2052 C2065 0.929 . S
H2053 C2063 0.929 . S
H2054 C2058 0.929 . S
H2055 C2064 0.929 . S
C2056 H2050 0.930 . S
C2056 C2057 1.367 . S
C2056 C2064 1.378 . S
C2057 C2056 1.367 . S
C2057 C2065 1.433 . S
C2058 H2054 0.929 . S
C2058 C2060 1.378 . S
C2058 C2062 1.350 . S
C2059 C2062 1.463 . S
C2059 C2064 1.350 . S
C2059 N2067 1.427 . S
C2060 H2051 0.930 . S
C2060 C2058 1.378 . S
C2060 C2061 1.367 . S
C2061 C2060 1.367 . S
C2061 C2063 1.433 . S
C2062 C2058 1.350 . S
C2062 C2059 1.463 . S
C2062 N2066 1.427 . S
C2063 H2053 0.929 . S
C2063 C2061 1.433 . S
C2063 N2066 1.384 . S
C2064 H2055 0.929 . S
C2064 C2056 1.378 . S
C2064 C2059 1.350 . S
C2065 H2052 0.929 . S
C2065 C2057 1.433 . S
C2065 N2067 1.384 . S
N2066 C2062 1.427 . S
N2066 C2063 1.384 . S
N2067 C2059 1.427 . S
N2067 C2065 1.384 . S
H2068 C2074 0.930 . S
H2069 C2078 0.930 . S
H2070 C2083 0.929 . S
H2071 C2081 0.929 . S
H2072 C2076 0.929 . S
H2073 C2082 0.929 . S
C2074 H2068 0.930 . S
C2074 C2075 1.367 . S
C2074 C2082 1.378 . S
C2075 C2074 1.367 . S
C2075 C2083 1.433 . S
C2076 H2072 0.929 . S
C2076 C2078 1.378 . S
C2076 C2080 1.350 . S
C2077 C2080 1.463 . S
C2077 C2082 1.350 . S
C2077 N2085 1.427 . S
C2078 H2069 0.930 . S
C2078 C2076 1.378 . S
C2078 C2079 1.367 . S
C2079 C2078 1.367 . S
C2079 C2081 1.433 . S
C2080 C2076 1.350 . S
C2080 C2077 1.463 . S
C2080 N2084 1.427 . S
C2081 H2071 0.929 . S
C2081 C2079 1.433 . S
C2081 N2084 1.384 . S
C2082 H2073 0.929 . S
C2082 C2074 1.378 . S
C2082 C2077 1.350 . S
C2083 H2070 0.929 . S
C2083 C2075 1.433 . S
C2083 N2085 1.384 . S
N2084 C2080 1.427 . S
N2084 C2081 1.384 . S
N2085 C2077 1.427 . S
N2085 C2083 1.384 . S
H2086 C2092 0.930 . S
H2087 C2096 0.930 . S
H2088 C2101 0.929 . S
H2089 C2099 0.929 . S
H2090 C2094 0.929 . S
H2091 C2100 0.929 . S
C2092 H2086 0.930 . S
C2092 C2093 1.367 . S
C2092 C2100 1.378 . S
C2093 C2092 1.367 . S
C2093 C2101 1.433 . S
C2094 H2090 0.929 . S
C2094 C2096 1.378 . S
C2094 C2098 1.350 . S
C2095 C2098 1.463 . S
C2095 C2100 1.350 . S
C2095 N2103 1.427 . S
C2096 H2087 0.930 . S
C2096 C2094 1.378 . S
C2096 C2097 1.367 . S
C2097 C2096 1.367 . S
C2097 C2099 1.433 . S
C2098 C2094 1.350 . S
C2098 C2095 1.463 . S
C2098 N2102 1.427 . S
C2099 H2089 0.929 . S
C2099 C2097 1.433 . S
C2099 N2102 1.384 . S
C2100 H2091 0.929 . S
C2100 C2092 1.378 . S
C2100 C2095 1.350 . S
C2101 H2088 0.929 . S
C2101 C2093 1.433 . S
C2101 N2103 1.384 . S
N2102 C2098 1.427 . S
N2102 C2099 1.384 . S
N2103 C2095 1.427 . S
N2103 C2101 1.384 . S
H2104 C2110 0.930 . S
H2105 C2114 0.930 . S
H2106 C2119 0.929 . S
H2107 C2117 0.929 . S
H2108 C2112 0.929 . S
H2109 C2118 0.929 . S
C2110 H2104 0.930 . S
C2110 C2111 1.367 . S
C2110 C2118 1.378 . S
C2111 C2110 1.367 . S
C2111 C2119 1.433 . S
C2112 H2108 0.929 . S
C2112 C2114 1.378 . S
C2112 C2116 1.350 . S
C2113 C2116 1.463 . S
C2113 C2118 1.350 . S
C2113 N2121 1.427 . S
C2114 H2105 0.930 . S
C2114 C2112 1.378 . S
C2114 C2115 1.367 . S
C2115 C2114 1.367 . S
C2115 C2117 1.433 . S
C2116 C2112 1.350 . S
C2116 C2113 1.463 . S
C2116 N2120 1.427 . S
C2117 H2107 0.929 . S
C2117 C2115 1.433 . S
C2117 N2120 1.384 . S
C2118 H2109 0.929 . S
C2118 C2110 1.378 . S
C2118 C2113 1.350 . S
C2119 H2106 0.929 . S
C2119 C2111 1.433 . S
C2119 N2121 1.384 . S
N2120 C2116 1.427 . S
N2120 C2117 1.384 . S
N2121 C2113 1.427 . S
N2121 C2119 1.384 . S
H2122 C2128 0.930 . S
H2123 C2132 0.930 . S
H2124 C2137 0.929 . S
H2125 C2135 0.929 . S
H2126 C2130 0.929 . S
H2127 C2136 0.929 . S
C2128 H2122 0.930 . S
C2128 C2129 1.367 . S
C2128 C2136 1.378 . S
C2129 C2128 1.367 . S
C2129 C2137 1.433 . S
C2130 H2126 0.929 . S
C2130 C2132 1.378 . S
C2130 C2134 1.350 . S
C2131 C2134 1.463 . S
C2131 C2136 1.350 . S
C2131 N2139 1.427 . S
C2132 H2123 0.930 . S
C2132 C2130 1.378 . S
C2132 C2133 1.367 . S
C2133 C2132 1.367 . S
C2133 C2135 1.433 . S
C2134 C2130 1.350 . S
C2134 C2131 1.463 . S
C2134 N2138 1.427 . S
C2135 H2125 0.929 . S
C2135 C2133 1.433 . S
C2135 N2138 1.384 . S
C2136 H2127 0.929 . S
C2136 C2128 1.378 . S
C2136 C2131 1.350 . S
C2137 H2124 0.929 . S
C2137 C2129 1.433 . S
C2137 N2139 1.384 . S
N2138 C2134 1.427 . S
N2138 C2135 1.384 . S
N2139 C2131 1.427 . S
N2139 C2137 1.384 . S
H2140 C2146 0.930 . S
H2141 C2150 0.930 . S
H2142 C2155 0.896 1_545 S
H2143 C2153 0.929 . S
H2144 C2148 0.929 . S
H2145 C2154 0.929 . S
C2146 H2140 0.930 . S
C2146 C2147 1.367 . S
C2146 C2154 1.378 . S
C2147 C2146 1.367 . S
C2147 C2155 1.433 . S
C2148 H2144 0.929 . S
C2148 C2150 1.378 . S
C2148 C2152 1.350 . S
C2149 C2152 1.463 . S
C2149 C2154 1.350 . S
C2149 N2157 1.427 . S
C2150 H2141 0.930 . S
C2150 C2148 1.378 . S
C2150 C2151 1.367 . S
C2151 C2150 1.367 . S
C2151 C2153 1.433 . S
C2152 C2148 1.350 . S
C2152 C2149 1.463 . S
C2152 N2156 1.427 . S
C2153 H2143 0.929 . S
C2153 C2151 1.433 . S
C2153 N2156 1.384 . S
C2154 H2145 0.929 . S
C2154 C2146 1.378 . S
C2154 C2149 1.350 . S
C2155 H2142 0.896 1_565 S
C2155 C2147 1.433 . S
C2155 N2157 1.384 . S
N2156 C2152 1.427 . S
N2156 C2153 1.384 . S
N2157 C2149 1.427 . S
N2157 C2155 1.384 . S
H2158 C2164 0.930 . S
H2159 C2168 0.930 . S
H2160 C2173 0.929 . S
H2161 C2171 0.929 . S
H2162 C2166 0.929 . S
H2163 C2172 0.929 . S
C2164 H2158 0.930 . S
C2164 C2165 1.367 . S
C2164 C2172 1.378 . S
C2165 C2164 1.367 . S
C2165 C2173 1.433 . S
C2166 H2162 0.929 . S
C2166 C2168 1.378 . S
C2166 C2170 1.350 . S
C2167 C2170 1.463 . S
C2167 C2172 1.350 . S
C2167 N2175 1.427 . S
C2168 H2159 0.930 . S
C2168 C2166 1.378 . S
C2168 C2169 1.367 . S
C2169 C2168 1.367 . S
C2169 C2171 1.433 . S
C2170 C2166 1.350 . S
C2170 C2167 1.463 . S
C2170 N2174 1.427 . S
C2171 H2161 0.929 . S
C2171 C2169 1.433 . S
C2171 N2174 1.384 . S
C2172 H2163 0.929 . S
C2172 C2164 1.378 . S
C2172 C2167 1.350 . S
C2173 H2160 0.929 . S
C2173 C2165 1.433 . S
C2173 N2175 1.384 . S
N2174 C2170 1.427 . S
N2174 C2171 1.384 . S
N2175 C2167 1.427 . S
N2175 C2173 1.384 . S
H2176 C2182 0.930 . S
H2177 C2186 0.930 . S
H2178 C2191 0.929 . S
H2179 C2189 0.929 . S
H2180 C2184 0.929 . S
H2181 C2190 0.929 . S
C2182 H2176 0.930 . S
C2182 C2183 1.367 . S
C2182 C2190 1.378 . S
C2183 C2182 1.367 . S
C2183 C2191 1.433 . S
C2184 H2180 0.929 . S
C2184 C2186 1.378 . S
C2184 C2188 1.350 . S
C2185 C2188 1.463 . S
C2185 C2190 1.350 . S
C2185 N2193 1.427 . S
C2186 H2177 0.930 . S
C2186 C2184 1.378 . S
C2186 C2187 1.367 . S
C2187 C2186 1.367 . S
C2187 C2189 1.433 . S
C2188 C2184 1.350 . S
C2188 C2185 1.463 . S
C2188 N2192 1.427 . S
C2189 H2179 0.929 . S
C2189 C2187 1.433 . S
C2189 N2192 1.384 . S
C2190 H2181 0.929 . S
C2190 C2182 1.378 . S
C2190 C2185 1.350 . S
C2191 H2178 0.929 . S
C2191 C2183 1.433 . S
C2191 N2193 1.384 . S
N2192 C2188 1.427 . S
N2192 C2189 1.384 . S
N2193 C2185 1.427 . S
N2193 C2191 1.384 . S
H2194 C2200 0.930 . S
H2195 C2204 0.930 . S
H2196 C2209 0.929 . S
H2197 C2207 0.929 . S
H2198 C2202 0.929 . S
H2199 C2208 0.929 . S
C2200 H2194 0.930 . S
C2200 C2201 1.367 . S
C2200 C2208 1.378 . S
C2201 C2200 1.367 . S
C2201 C2209 1.433 . S
C2202 H2198 0.929 . S
C2202 C2204 1.378 . S
C2202 C2206 1.350 . S
C2203 C2206 1.463 . S
C2203 C2208 1.350 . S
C2203 N2211 1.427 . S
C2204 H2195 0.930 . S
C2204 C2202 1.378 . S
C2204 C2205 1.367 . S
C2205 C2204 1.367 . S
C2205 C2207 1.433 . S
C2206 C2202 1.350 . S
C2206 C2203 1.463 . S
C2206 N2210 1.427 . S
C2207 H2197 0.929 . S
C2207 C2205 1.433 . S
C2207 N2210 1.384 . S
C2208 H2199 0.929 . S
C2208 C2200 1.378 . S
C2208 C2203 1.350 . S
C2209 H2196 0.929 . S
C2209 C2201 1.433 . S
C2209 N2211 1.384 . S
N2210 C2206 1.427 . S
N2210 C2207 1.384 . S
N2211 C2203 1.427 . S
N2211 C2209 1.384 . S
H2212 C2218 0.930 . S
H2213 C2222 0.930 . S
H2214 C2227 0.929 . S
H2215 C2225 0.929 . S
H2216 C2220 0.929 . S
H2217 C2226 0.929 . S
C2218 H2212 0.930 . S
C2218 C2219 1.367 . S
C2218 C2226 1.378 . S
C2219 C2218 1.367 . S
C2219 C2227 1.433 . S
C2220 H2216 0.929 . S
C2220 C2222 1.378 . S
C2220 C2224 1.350 . S
C2221 C2224 1.463 . S
C2221 C2226 1.350 . S
C2221 N2229 1.427 . S
C2222 H2213 0.930 . S
C2222 C2220 1.378 . S
C2222 C2223 1.367 . S
C2223 C2222 1.367 . S
C2223 C2225 1.433 . S
C2224 C2220 1.350 . S
C2224 C2221 1.463 . S
C2224 N2228 1.427 . S
C2225 H2215 0.929 . S
C2225 C2223 1.433 . S
C2225 N2228 1.384 . S
C2226 H2217 0.929 . S
C2226 C2218 1.378 . S
C2226 C2221 1.350 . S
C2227 H2214 0.929 . S
C2227 C2219 1.433 . S
C2227 N2229 1.384 . S
N2228 C2224 1.427 . S
N2228 C2225 1.384 . S
N2229 C2221 1.427 . S
N2229 C2227 1.384 . S
H2230 C2236 0.930 . S
H2231 C2240 0.930 . S
H2232 C2245 0.929 . S
H2233 C2243 0.929 . S
H2234 C2238 0.929 . S
H2235 C2244 0.929 . S
C2236 H2230 0.930 . S
C2236 C2237 1.367 . S
C2236 C2244 1.378 . S
C2237 C2236 1.367 . S
C2237 C2245 1.433 . S
C2238 H2234 0.929 . S
C2238 C2240 1.378 . S
C2238 C2242 1.350 . S
C2239 C2242 1.463 . S
C2239 C2244 1.350 . S
C2239 N2247 1.427 . S
C2240 H2231 0.930 . S
C2240 C2238 1.378 . S
C2240 C2241 1.367 . S
C2241 C2240 1.367 . S
C2241 C2243 1.433 . S
C2242 C2238 1.350 . S
C2242 C2239 1.463 . S
C2242 N2246 1.427 . S
C2243 H2233 0.929 . S
C2243 C2241 1.433 . S
C2243 N2246 1.384 . S
C2244 H2235 0.929 . S
C2244 C2236 1.378 . S
C2244 C2239 1.350 . S
C2245 H2232 0.929 . S
C2245 C2237 1.433 . S
C2245 N2247 1.384 . S
N2246 C2242 1.427 . S
N2246 C2243 1.384 . S
N2247 C2239 1.427 . S
N2247 C2245 1.384 . S
H2248 C2254 0.930 . S
H2249 C2258 0.930 . S
H2250 C2263 0.929 . S
H2251 C2261 0.929 . S
H2252 C2256 0.929 . S
H2253 C2262 0.929 . S
C2254 H2248 0.930 . S
C2254 C2255 1.367 . S
C2254 C2262 1.378 . S
C2255 C2254 1.367 . S
C2255 C2263 1.433 . S
C2256 H2252 0.929 . S
C2256 C2258 1.378 . S
C2256 C2260 1.350 . S
C2257 C2260 1.463 . S
C2257 C2262 1.350 . S
C2257 N2265 1.427 . S
C2258 H2249 0.930 . S
C2258 C2256 1.378 . S
C2258 C2259 1.367 . S
C2259 C2258 1.367 . S
C2259 C2261 1.433 . S
C2260 C2256 1.350 . S
C2260 C2257 1.463 . S
C2260 N2264 1.427 . S
C2261 H2251 0.929 . S
C2261 C2259 1.433 . S
C2261 N2264 1.384 . S
C2262 H2253 0.929 . S
C2262 C2254 1.378 . S
C2262 C2257 1.350 . S
C2263 H2250 0.929 . S
C2263 C2255 1.433 . S
C2263 N2265 1.384 . S
N2264 C2260 1.427 . S
N2264 C2261 1.384 . S
N2265 C2257 1.427 . S
N2265 C2263 1.384 . S
H2266 C2272 0.930 . S
H2267 C2276 0.930 . S
H2268 C2281 0.929 . S
H2269 C2279 0.929 . S
H2270 C2274 0.929 . S
H2271 C2280 0.929 . S
C2272 H2266 0.930 . S
C2272 C2273 1.367 . S
C2272 C2280 1.378 . S
C2273 C2272 1.367 . S
C2273 C2281 1.433 . S
C2274 H2270 0.929 . S
C2274 C2276 1.378 . S
C2274 C2278 1.350 . S
C2275 C2278 1.463 . S
C2275 C2280 1.350 . S
C2275 N2283 1.427 . S
C2276 H2267 0.930 . S
C2276 C2274 1.378 . S
C2276 C2277 1.367 . S
C2277 C2276 1.367 . S
C2277 C2279 1.433 . S
C2278 C2274 1.350 . S
C2278 C2275 1.463 . S
C2278 N2282 1.427 . S
C2279 H2269 0.929 . S
C2279 C2277 1.433 . S
C2279 N2282 1.384 . S
C2280 H2271 0.929 . S
C2280 C2272 1.378 . S
C2280 C2275 1.350 . S
C2281 H2268 0.929 . S
C2281 C2273 1.433 . S
C2281 N2283 1.384 . S
N2282 C2278 1.427 . S
N2282 C2279 1.384 . S
N2283 C2275 1.427 . S
N2283 C2281 1.384 . S
H2284 C2290 0.930 . S
H2285 C2294 0.930 . S
H2286 C2299 0.929 . S
H2287 C2297 0.929 . S
H2288 C2292 0.929 . S
H2289 C2298 0.929 . S
C2290 H2284 0.930 . S
C2290 C2291 1.367 . S
C2290 C2298 1.378 . S
C2291 C2290 1.367 . S
C2291 C2299 1.433 . S
C2292 H2288 0.929 . S
C2292 C2294 1.378 . S
C2292 C2296 1.350 . S
C2293 C2296 1.463 . S
C2293 C2298 1.350 . S
C2293 N2301 1.427 . S
C2294 H2285 0.930 . S
C2294 C2292 1.378 . S
C2294 C2295 1.367 . S
C2295 C2294 1.367 . S
C2295 C2297 1.433 . S
C2296 C2292 1.350 . S
C2296 C2293 1.463 . S
C2296 N2300 1.427 . S
C2297 H2287 0.929 . S
C2297 C2295 1.433 . S
C2297 N2300 1.384 . S
C2298 H2289 0.929 . S
C2298 C2290 1.378 . S
C2298 C2293 1.350 . S
C2299 H2286 0.929 . S
C2299 C2291 1.433 . S
C2299 N2301 1.384 . S
N2300 C2296 1.427 . S
N2300 C2297 1.384 . S
N2301 C2293 1.427 . S
N2301 C2299 1.384 . S
H2302 C2308 0.930 . S
H2303 C2312 0.930 . S
H2304 C2317 0.929 . S
H2305 C2315 0.929 . S
H2306 C2310 0.929 . S
H2307 C2316 0.929 . S
C2308 H2302 0.930 . S
C2308 C2309 1.367 . S
C2308 C2316 1.378 . S
C2309 C2308 1.367 . S
C2309 C2317 1.433 . S
C2310 H2306 0.929 . S
C2310 C2312 1.378 . S
C2310 C2314 1.350 . S
C2311 C2314 1.463 . S
C2311 C2316 1.350 . S
C2311 N2319 1.427 . S
C2312 H2303 0.930 . S
C2312 C2310 1.378 . S
C2312 C2313 1.367 . S
C2313 C2312 1.367 . S
C2313 C2315 1.433 . S
C2314 C2310 1.350 . S
C2314 C2311 1.463 . S
C2314 N2318 1.427 . S
C2315 H2305 0.929 . S
C2315 C2313 1.433 . S
C2315 N2318 1.384 . S
C2316 H2307 0.929 . S
C2316 C2308 1.378 . S
C2316 C2311 1.350 . S
C2317 H2304 0.929 . S
C2317 C2309 1.433 . S
C2317 N2319 1.384 . S
N2318 C2314 1.427 . S
N2318 C2315 1.384 . S
N2319 C2311 1.427 . S
N2319 C2317 1.384 . S
H2320 C2326 0.930 . S
H2321 C2330 0.930 1_554 S
H2322 C2335 0.929 . S
H2323 C2333 0.929 . S
H2324 C2328 0.929 . S
H2325 C2334 0.929 . S
C2326 H2320 0.930 . S
C2326 C2327 1.367 . S
C2326 C2334 1.378 . S
C2327 C2326 1.367 . S
C2327 C2335 1.433 . S
C2328 H2324 0.929 . S
C2328 C2330 1.378 . S
C2328 C2332 1.350 . S
C2329 C2332 1.463 . S
C2329 C2334 1.350 . S
C2329 N2337 1.427 . S
C2330 H2321 0.930 1_556 S
C2330 C2328 1.378 . S
C2330 C2331 1.367 . S
C2331 C2330 1.367 . S
C2331 C2333 1.433 . S
C2332 C2328 1.350 . S
C2332 C2329 1.463 . S
C2332 N2336 1.427 . S
C2333 H2323 0.929 . S
C2333 C2331 1.433 . S
C2333 N2336 1.384 . S
C2334 H2325 0.929 . S
C2334 C2326 1.378 . S
C2334 C2329 1.350 . S
C2335 H2322 0.929 . S
C2335 C2327 1.433 . S
C2335 N2337 1.384 . S
N2336 C2332 1.427 . S
N2336 C2333 1.384 . S
N2337 C2329 1.427 . S
N2337 C2335 1.384 . S
H2338 C2344 0.930 . S
H2339 C2348 0.930 . S
H2340 C2353 0.929 . S
H2341 C2351 0.929 . S
H2342 C2346 0.929 . S
H2343 C2352 0.929 . S
C2344 H2338 0.930 . S
C2344 C2345 1.367 . S
C2344 C2352 1.378 . S
C2345 C2344 1.367 . S
C2345 C2353 1.433 . S
C2346 H2342 0.929 . S
C2346 C2348 1.378 . S
C2346 C2350 1.350 . S
C2347 C2350 1.463 . S
C2347 C2352 1.350 . S
C2347 N2355 1.427 . S
C2348 H2339 0.930 . S
C2348 C2346 1.378 . S
C2348 C2349 1.367 . S
C2349 C2348 1.367 . S
C2349 C2351 1.433 . S
C2350 C2346 1.350 . S
C2350 C2347 1.463 . S
C2350 N2354 1.427 . S
C2351 H2341 0.929 . S
C2351 C2349 1.433 . S
C2351 N2354 1.384 . S
C2352 H2343 0.929 . S
C2352 C2344 1.378 . S
C2352 C2347 1.350 . S
C2353 H2340 0.929 . S
C2353 C2345 1.433 . S
C2353 N2355 1.384 . S
N2354 C2350 1.427 . S
N2354 C2351 1.384 . S
N2355 C2347 1.427 . S
N2355 C2353 1.384 . S
H2356 C2362 0.930 . S
H2357 C2366 0.958 . S
H2358 C2371 0.929 . S
H2359 C2369 0.929 . S
H2360 C2364 0.929 1_655 S
H2361 C2370 0.929 . S
C2362 H2356 0.930 . S
C2362 C2363 1.367 . S
C2362 C2370 1.378 . S
C2363 C2362 1.367 . S
C2363 C2371 1.433 1_455 S
C2364 H2360 0.929 1_455 S
C2364 C2366 1.378 . S
C2364 C2368 1.350 . S
C2365 C2368 1.463 . S
C2365 C2370 1.350 . S
C2365 N2373 1.448 . S
C2366 H2357 0.958 . S
C2366 C2364 1.378 . S
C2366 C2367 1.367 . S
C2367 C2366 1.367 . S
C2367 C2369 1.433 . S
C2368 C2364 1.350 . S
C2368 C2365 1.463 . S
C2368 N2372 1.427 . S
C2369 H2359 0.929 . S
C2369 C2367 1.433 . S
C2369 N2372 1.384 . S
C2370 H2361 0.929 . S
C2370 C2362 1.378 . S
C2370 C2365 1.350 . S
C2371 H2358 0.929 . S
C2371 C2363 1.433 1_655 S
C2371 N2373 1.387 1_655 S
N2372 C2368 1.427 . S
N2372 C2369 1.384 . S
N2373 C2365 1.448 . S
N2373 C2371 1.387 1_455 S
H2374 C2380 0.930 . S
H2375 C2384 0.930 . S
H2376 C2389 0.929 . S
H2377 C2387 0.929 . S
H2378 C2382 0.929 . S
H2379 C2388 0.929 . S
C2380 H2374 0.930 . S
C2380 C2381 1.367 . S
C2380 C2388 1.378 . S
C2381 C2380 1.367 . S
C2381 C2389 1.433 . S
C2382 H2378 0.929 . S
C2382 C2384 1.378 . S
C2382 C2386 1.350 . S
C2383 C2386 1.463 . S
C2383 C2388 1.350 . S
C2383 N2391 1.427 . S
C2384 H2375 0.930 . S
C2384 C2382 1.378 . S
C2384 C2385 1.367 . S
C2385 C2384 1.367 . S
C2385 C2387 1.433 . S
C2386 C2382 1.350 . S
C2386 C2383 1.463 . S
C2386 N2390 1.427 . S
C2387 H2377 0.929 . S
C2387 C2385 1.433 . S
C2387 N2390 1.384 . S
C2388 H2379 0.929 . S
C2388 C2380 1.378 . S
C2388 C2383 1.350 . S
C2389 H2376 0.929 . S
C2389 C2381 1.433 . S
C2389 N2391 1.384 . S
N2390 C2386 1.427 . S
N2390 C2387 1.384 . S
N2391 C2383 1.427 . S
N2391 C2389 1.384 . S
H2392 C2398 0.930 . S
H2393 C2402 0.930 . S
H2394 C2407 0.929 . S
H2395 C2405 0.929 . S
H2396 C2400 0.929 . S
H2397 C2406 0.929 . S
C2398 H2392 0.930 . S
C2398 C2399 1.367 . S
C2398 C2406 1.378 . S
C2399 C2398 1.367 . S
C2399 C2407 1.433 . S
C2400 H2396 0.929 . S
C2400 C2402 1.378 . S
C2400 C2404 1.350 . S
C2401 C2404 1.463 . S
C2401 C2406 1.350 . S
C2401 N2409 1.427 . S
C2402 H2393 0.930 . S
C2402 C2400 1.378 . S
C2402 C2403 1.367 . S
C2403 C2402 1.367 . S
C2403 C2405 1.433 . S
C2404 C2400 1.350 . S
C2404 C2401 1.463 . S
C2404 N2408 1.427 . S
C2405 H2395 0.929 . S
C2405 C2403 1.433 . S
C2405 N2408 1.384 . S
C2406 H2397 0.929 . S
C2406 C2398 1.378 . S
C2406 C2401 1.350 . S
C2407 H2394 0.929 . S
C2407 C2399 1.433 . S
C2407 N2409 1.384 . S
N2408 C2404 1.427 . S
N2408 C2405 1.384 . S
N2409 C2401 1.427 . S
N2409 C2407 1.384 . S
H2410 C2416 0.930 . S
H2411 C2420 0.930 . S
H2412 C2425 0.929 . S
H2413 C2423 0.929 . S
H2414 C2418 0.929 . S
H2415 C2424 0.929 . S
C2416 H2410 0.930 . S
C2416 C2417 1.367 . S
C2416 C2424 1.378 . S
C2417 C2416 1.367 . S
C2417 C2425 1.433 . S
C2418 H2414 0.929 . S
C2418 C2420 1.378 . S
C2418 C2422 1.350 . S
C2419 C2422 1.463 . S
C2419 C2424 1.350 . S
C2419 N2427 1.427 . S
C2420 H2411 0.930 . S
C2420 C2418 1.378 . S
C2420 C2421 1.367 . S
C2421 C2420 1.367 . S
C2421 C2423 1.433 . S
C2422 C2418 1.350 . S
C2422 C2419 1.463 . S
C2422 N2426 1.427 . S
C2423 H2413 0.929 . S
C2423 C2421 1.433 . S
C2423 N2426 1.384 . S
C2424 H2415 0.929 . S
C2424 C2416 1.378 . S
C2424 C2419 1.350 . S
C2425 H2412 0.929 . S
C2425 C2417 1.433 . S
C2425 N2427 1.384 . S
N2426 C2422 1.427 . S
N2426 C2423 1.384 . S
N2427 C2419 1.427 . S
N2427 C2425 1.384 . S
H2428 C2434 0.930 . S
H2429 C2438 0.930 1_455 S
H2430 C2443 0.929 . S
H2431 C2441 0.926 . S
H2432 C2436 0.929 . S
H2433 C2442 0.929 . S
C2434 H2428 0.930 . S
C2434 C2435 1.367 . S
C2434 C2442 1.378 . S
C2435 C2434 1.367 . S
C2435 C2443 1.433 . S
C2436 H2432 0.929 . S
C2436 C2438 1.378 . S
C2436 C2440 1.350 . S
C2437 C2440 1.463 . S
C2437 C2442 1.350 . S
C2437 N2445 1.427 . S
C2438 H2429 0.930 1_655 S
C2438 C2436 1.378 . S
C2438 C2439 1.367 1_655 S
C2439 C2438 1.367 1_455 S
C2439 C2441 1.433 1_455 S
C2440 C2436 1.350 . S
C2440 C2437 1.463 . S
C2440 N2444 1.427 . S
C2441 H2431 0.926 . S
C2441 C2439 1.433 1_655 S
C2441 N2444 1.384 . S
C2442 H2433 0.929 . S
C2442 C2434 1.378 . S
C2442 C2437 1.350 . S
C2443 H2430 0.929 . S
C2443 C2435 1.433 . S
C2443 N2445 1.384 . S
N2444 C2440 1.427 . S
N2444 C2441 1.384 . S
N2445 C2437 1.427 . S
N2445 C2443 1.384 . S
H2446 C2452 0.930 . S
H2447 C2456 0.930 . S
H2448 C2461 0.929 . S
H2449 C2459 0.929 . S
H2450 C2454 0.929 . S
H2451 C2460 0.929 . S
C2452 H2446 0.930 . S
C2452 C2453 1.367 . S
C2452 C2460 1.378 . S
C2453 C2452 1.367 . S
C2453 C2461 1.433 . S
C2454 H2450 0.929 . S
C2454 C2456 1.378 . S
C2454 C2458 1.350 . S
C2455 C2458 1.463 . S
C2455 C2460 1.350 . S
C2455 N2463 1.427 . S
C2456 H2447 0.930 . S
C2456 C2454 1.378 . S
C2456 C2457 1.367 . S
C2457 C2456 1.367 . S
C2457 C2459 1.433 . S
C2458 C2454 1.350 . S
C2458 C2455 1.463 . S
C2458 N2462 1.427 . S
C2459 H2449 0.929 . S
C2459 C2457 1.433 . S
C2459 N2462 1.384 . S
C2460 H2451 0.929 . S
C2460 C2452 1.378 . S
C2460 C2455 1.350 . S
C2461 H2448 0.929 . S
C2461 C2453 1.433 . S
C2461 N2463 1.384 . S
N2462 C2458 1.427 . S
N2462 C2459 1.384 . S
N2463 C2455 1.427 . S
N2463 C2461 1.384 . S
H2464 C2470 0.930 . S
H2465 C2474 0.930 . S
H2466 C2479 0.929 . S
H2467 C2477 0.929 . S
H2468 C2472 0.929 . S
H2469 C2478 0.929 . S
C2470 H2464 0.930 . S
C2470 C2471 1.367 . S
C2470 C2478 1.378 . S
C2471 C2470 1.367 . S
C2471 C2479 1.433 . S
C2472 H2468 0.929 . S
C2472 C2474 1.378 . S
C2472 C2476 1.350 . S
C2473 C2476 1.463 . S
C2473 C2478 1.350 . S
C2473 N2481 1.427 . S
C2474 H2465 0.930 . S
C2474 C2472 1.378 . S
C2474 C2475 1.367 . S
C2475 C2474 1.367 . S
C2475 C2477 1.433 . S
C2476 C2472 1.350 . S
C2476 C2473 1.463 . S
C2476 N2480 1.427 . S
C2477 H2467 0.929 . S
C2477 C2475 1.433 . S
C2477 N2480 1.384 . S
C2478 H2469 0.929 . S
C2478 C2470 1.378 . S
C2478 C2473 1.350 . S
C2479 H2466 0.929 . S
C2479 C2471 1.433 . S
C2479 N2481 1.384 . S
N2480 C2476 1.427 . S
N2480 C2477 1.384 . S
N2481 C2473 1.427 . S
N2481 C2479 1.384 . S
H2482 C2488 0.930 . S
H2483 C2492 0.930 . S
H2484 C2497 0.929 . S
H2485 C2495 0.929 . S
H2486 C2490 0.929 . S
H2487 C2496 0.929 . S
C2488 H2482 0.930 . S
C2488 C2489 1.367 . S
C2488 C2496 1.378 . S
C2489 C2488 1.367 . S
C2489 C2497 1.433 . S
C2490 H2486 0.929 . S
C2490 C2492 1.378 . S
C2490 C2494 1.350 . S
C2491 C2494 1.463 . S
C2491 C2496 1.350 . S
C2491 N2499 1.427 . S
C2492 H2483 0.930 . S
C2492 C2490 1.378 . S
C2492 C2493 1.367 . S
C2493 C2492 1.367 . S
C2493 C2495 1.433 . S
C2494 C2490 1.350 . S
C2494 C2491 1.463 . S
C2494 N2498 1.427 . S
C2495 H2485 0.929 . S
C2495 C2493 1.433 . S
C2495 N2498 1.384 . S
C2496 H2487 0.929 . S
C2496 C2488 1.378 . S
C2496 C2491 1.350 . S
C2497 H2484 0.929 . S
C2497 C2489 1.433 . S
C2497 N2499 1.384 . S
N2498 C2494 1.427 . S
N2498 C2495 1.384 . S
N2499 C2491 1.427 . S
N2499 C2497 1.384 . S
H2500 C2506 0.930 . S
H2501 C2510 0.930 . S
H2502 C2515 0.929 . S
H2503 C2513 0.929 . S
H2504 C2508 0.929 . S
H2505 C2514 0.929 . S
C2506 H2500 0.930 . S
C2506 C2507 1.367 . S
C2506 C2514 1.378 . S
C2507 C2506 1.367 . S
C2507 C2515 1.433 . S
C2508 H2504 0.929 . S
C2508 C2510 1.378 . S
C2508 C2512 1.350 . S
C2509 C2512 1.463 . S
C2509 C2514 1.350 . S
C2509 N2517 1.427 . S
C2510 H2501 0.930 . S
C2510 C2508 1.378 . S
C2510 C2511 1.367 . S
C2511 C2510 1.367 . S
C2511 C2513 1.433 1_655 S
C2512 C2508 1.350 . S
C2512 C2509 1.463 . S
C2512 N2516 1.427 . S
C2513 H2503 0.929 . S
C2513 C2511 1.433 1_455 S
C2513 N2516 1.384 1_455 S
C2514 H2505 0.929 . S
C2514 C2506 1.378 . S
C2514 C2509 1.350 . S
C2515 H2502 0.929 . S
C2515 C2507 1.433 . S
C2515 N2517 1.384 . S
N2516 C2512 1.427 . S
N2516 C2513 1.384 1_655 S
N2517 C2509 1.427 . S
N2517 C2515 1.384 . S
H2518 C2524 0.930 . S
H2519 C2528 0.930 . S
H2520 C2533 0.929 . S
H2521 C2531 0.929 . S
H2522 C2526 0.929 . S
H2523 C2532 0.929 . S
C2524 H2518 0.930 . S
C2524 C2525 1.367 . S
C2524 C2532 1.378 . S
C2525 C2524 1.367 . S
C2525 C2533 1.433 . S
C2526 H2522 0.929 . S
C2526 C2528 1.378 . S
C2526 C2530 1.350 . S
C2527 C2530 1.463 . S
C2527 C2532 1.350 . S
C2527 N2535 1.427 . S
C2528 H2519 0.930 . S
C2528 C2526 1.378 . S
C2528 C2529 1.367 . S
C2529 C2528 1.367 . S
C2529 C2531 1.433 . S
C2530 C2526 1.350 . S
C2530 C2527 1.463 . S
C2530 N2534 1.427 . S
C2531 H2521 0.929 . S
C2531 C2529 1.433 . S
C2531 N2534 1.384 . S
C2532 H2523 0.929 . S
C2532 C2524 1.378 . S
C2532 C2527 1.350 . S
C2533 H2520 0.929 . S
C2533 C2525 1.433 . S
C2533 N2535 1.384 . S
N2534 C2530 1.427 . S
N2534 C2531 1.384 . S
N2535 C2527 1.427 . S
N2535 C2533 1.384 . S
H2536 C2542 0.930 . S
H2537 C2546 0.930 . S
H2538 C2551 0.929 . S
H2539 C2549 0.929 . S
H2540 C2544 0.929 . S
H2541 C2550 0.929 . S
C2542 H2536 0.930 . S
C2542 C2543 1.367 . S
C2542 C2550 1.378 . S
C2543 C2542 1.367 . S
C2543 C2551 1.433 . S
C2544 H2540 0.929 . S
C2544 C2546 1.378 . S
C2544 C2548 1.350 . S
C2545 C2548 1.463 . S
C2545 C2550 1.350 . S
C2545 N2553 1.427 . S
C2546 H2537 0.930 . S
C2546 C2544 1.378 . S
C2546 C2547 1.367 . S
C2547 C2546 1.367 . S
C2547 C2549 1.433 . S
C2548 C2544 1.350 . S
C2548 C2545 1.463 . S
C2548 N2552 1.427 . S
C2549 H2539 0.929 . S
C2549 C2547 1.433 . S
C2549 N2552 1.384 . S
C2550 H2541 0.929 . S
C2550 C2542 1.378 . S
C2550 C2545 1.350 . S
C2551 H2538 0.929 . S
C2551 C2543 1.433 . S
C2551 N2553 1.384 . S
N2552 C2548 1.427 . S
N2552 C2549 1.384 . S
N2553 C2545 1.427 . S
N2553 C2551 1.384 . S
H2554 C2560 0.930 . S
H2555 C2564 0.930 . S
H2556 C2569 0.929 . S
H2557 C2567 0.929 . S
H2558 C2562 0.929 . S
H2559 C2568 0.929 . S
C2560 H2554 0.930 . S
C2560 C2561 1.367 . S
C2560 C2568 1.378 . S
C2561 C2560 1.367 . S
C2561 C2569 1.433 . S
C2562 H2558 0.929 . S
C2562 C2564 1.378 . S
C2562 C2566 1.350 . S
C2563 C2566 1.463 . S
C2563 C2568 1.350 . S
C2563 N2571 1.427 . S
C2564 H2555 0.930 . S
C2564 C2562 1.378 . S
C2564 C2565 1.367 . S
C2565 C2564 1.367 . S
C2565 C2567 1.433 . S
C2566 C2562 1.350 . S
C2566 C2563 1.463 . S
C2566 N2570 1.427 . S
C2567 H2557 0.929 . S
C2567 C2565 1.433 . S
C2567 N2570 1.384 . S
C2568 H2559 0.929 . S
C2568 C2560 1.378 . S
C2568 C2563 1.350 . S
C2569 H2556 0.929 . S
C2569 C2561 1.433 . S
C2569 N2571 1.384 . S
N2570 C2566 1.427 . S
N2570 C2567 1.384 . S
N2571 C2563 1.427 . S
N2571 C2569 1.384 . S
H2572 C2578 0.930 . S
H2573 C2582 0.930 . S
H2574 C2587 0.929 . S
H2575 C2585 0.929 . S
H2576 C2580 0.929 . S
H2577 C2586 0.929 . S
C2578 H2572 0.930 . S
C2578 C2579 1.367 . S
C2578 C2586 1.378 . S
C2579 C2578 1.367 . S
C2579 C2587 1.433 . S
C2580 H2576 0.929 . S
C2580 C2582 1.378 . S
C2580 C2584 1.350 . S
C2581 C2584 1.463 . S
C2581 C2586 1.350 . S
C2581 N2589 1.427 . S
C2582 H2573 0.930 . S
C2582 C2580 1.378 . S
C2582 C2583 1.367 . S
C2583 C2582 1.367 . S
C2583 C2585 1.433 . S
C2584 C2580 1.350 . S
C2584 C2581 1.463 . S
C2584 N2588 1.427 . S
C2585 H2575 0.929 . S
C2585 C2583 1.433 . S
C2585 N2588 1.384 . S
C2586 H2577 0.929 . S
C2586 C2578 1.378 . S
C2586 C2581 1.350 . S
C2587 H2574 0.929 . S
C2587 C2579 1.433 . S
C2587 N2589 1.384 . S
N2588 C2584 1.427 . S
N2588 C2585 1.384 . S
N2589 C2581 1.427 . S
N2589 C2587 1.384 . S
H2590 C2596 0.930 . S
H2591 C2600 0.930 . S
H2592 C2605 0.929 . S
H2593 C2603 0.929 . S
H2594 C2598 0.929 . S
H2595 C2604 0.929 . S
C2596 H2590 0.930 . S
C2596 C2597 1.367 . S
C2596 C2604 1.378 . S
C2597 C2596 1.367 . S
C2597 C2605 1.433 . S
C2598 H2594 0.929 . S
C2598 C2600 1.378 . S
C2598 C2602 1.350 . S
C2599 C2602 1.463 . S
C2599 C2604 1.350 . S
C2599 N2607 1.427 . S
C2600 H2591 0.930 . S
C2600 C2598 1.378 . S
C2600 C2601 1.367 . S
C2601 C2600 1.367 . S
C2601 C2603 1.433 . S
C2602 C2598 1.350 . S
C2602 C2599 1.463 . S
C2602 N2606 1.427 . S
C2603 H2593 0.929 . S
C2603 C2601 1.433 . S
C2603 N2606 1.384 . S
C2604 H2595 0.929 . S
C2604 C2596 1.378 . S
C2604 C2599 1.350 . S
C2605 H2592 0.929 . S
C2605 C2597 1.433 . S
C2605 N2607 1.384 . S
N2606 C2602 1.427 . S
N2606 C2603 1.384 . S
N2607 C2599 1.427 . S
N2607 C2605 1.384 . S
H2608 C2614 0.930 . S
H2609 C2618 0.930 . S
H2610 C2623 0.929 . S
H2611 C2621 0.929 . S
H2612 C2616 0.929 . S
H2613 C2622 0.929 . S
C2614 H2608 0.930 . S
C2614 C2615 1.367 . S
C2614 C2622 1.378 . S
C2615 C2614 1.367 . S
C2615 C2623 1.433 . S
C2616 H2612 0.929 . S
C2616 C2618 1.378 . S
C2616 C2620 1.350 . S
C2617 C2620 1.463 . S
C2617 C2622 1.350 . S
C2617 N2625 1.427 . S
C2618 H2609 0.930 . S
C2618 C2616 1.378 . S
C2618 C2619 1.367 . S
C2619 C2618 1.367 . S
C2619 C2621 1.433 . S
C2620 C2616 1.350 . S
C2620 C2617 1.463 . S
C2620 N2624 1.427 . S
C2621 H2611 0.929 . S
C2621 C2619 1.433 . S
C2621 N2624 1.384 . S
C2622 H2613 0.929 . S
C2622 C2614 1.378 . S
C2622 C2617 1.350 . S
C2623 H2610 0.929 . S
C2623 C2615 1.433 . S
C2623 N2625 1.384 . S
N2624 C2620 1.427 . S
N2624 C2621 1.384 . S
N2625 C2617 1.427 . S
N2625 C2623 1.384 . S
H2626 C2632 0.930 . S
H2627 C2636 0.930 . S
H2628 C2641 0.929 . S
H2629 C2639 0.929 . S
H2630 C2634 0.929 . S
H2631 C2640 0.929 . S
C2632 H2626 0.930 . S
C2632 C2633 1.367 . S
C2632 C2640 1.378 . S
C2633 C2632 1.367 . S
C2633 C2641 1.433 . S
C2634 H2630 0.929 . S
C2634 C2636 1.378 . S
C2634 C2638 1.350 . S
C2635 C2638 1.463 . S
C2635 C2640 1.350 . S
C2635 N2643 1.427 . S
C2636 H2627 0.930 . S
C2636 C2634 1.378 . S
C2636 C2637 1.367 . S
C2637 C2636 1.367 . S
C2637 C2639 1.433 1_554 S
C2638 C2634 1.350 . S
C2638 C2635 1.463 . S
C2638 N2642 1.427 . S
C2639 H2629 0.929 . S
C2639 C2637 1.433 1_556 S
C2639 N2642 1.384 1_556 S
C2640 H2631 0.929 . S
C2640 C2632 1.378 . S
C2640 C2635 1.350 . S
C2641 H2628 0.929 . S
C2641 C2633 1.433 . S
C2641 N2643 1.384 . S
N2642 C2638 1.427 . S
N2642 C2639 1.384 1_554 S
N2643 C2635 1.427 . S
N2643 C2641 1.384 . S
H2644 C2650 0.930 . S
H2645 C2654 0.930 . S
H2646 C2659 0.929 . S
H2647 C2657 0.929 . S
H2648 C2652 0.929 . S
H2649 C2658 0.929 . S
C2650 H2644 0.930 . S
C2650 C2651 1.367 . S
C2650 C2658 1.378 . S
C2651 C2650 1.367 . S
C2651 C2659 1.433 . S
C2652 H2648 0.929 . S
C2652 C2654 1.378 . S
C2652 C2656 1.350 . S
C2653 C2656 1.463 . S
C2653 C2658 1.350 . S
C2653 N2661 1.427 . S
C2654 H2645 0.930 . S
C2654 C2652 1.378 . S
C2654 C2655 1.367 . S
C2655 C2654 1.367 . S
C2655 C2657 1.433 . S
C2656 C2652 1.350 . S
C2656 C2653 1.463 . S
C2656 N2660 1.427 . S
C2657 H2647 0.929 . S
C2657 C2655 1.433 . S
C2657 N2660 1.384 . S
C2658 H2649 0.929 . S
C2658 C2650 1.378 . S
C2658 C2653 1.350 . S
C2659 H2646 0.929 . S
C2659 C2651 1.433 . S
C2659 N2661 1.384 . S
N2660 C2656 1.427 . S
N2660 C2657 1.384 . S
N2661 C2653 1.427 . S
N2661 C2659 1.384 . S
H2662 C2668 0.930 . S
H2663 C2672 0.930 . S
H2664 C2677 0.929 . S
H2665 C2675 0.929 . S
H2666 C2670 0.929 . S
H2667 C2676 0.929 . S
C2668 H2662 0.930 . S
C2668 C2669 1.367 . S
C2668 C2676 1.378 . S
C2669 C2668 1.367 . S
C2669 C2677 1.433 . S
C2670 H2666 0.929 . S
C2670 C2672 1.378 . S
C2670 C2674 1.350 . S
C2671 C2674 1.463 . S
C2671 C2676 1.350 . S
C2671 N2679 1.427 . S
C2672 H2663 0.930 . S
C2672 C2670 1.378 . S
C2672 C2673 1.367 . S
C2673 C2672 1.367 . S
C2673 C2675 1.433 . S
C2674 C2670 1.350 . S
C2674 C2671 1.463 . S
C2674 N2678 1.427 . S
C2675 H2665 0.929 . S
C2675 C2673 1.433 . S
C2675 N2678 1.384 . S
C2676 H2667 0.929 . S
C2676 C2668 1.378 . S
C2676 C2671 1.350 . S
C2677 H2664 0.929 . S
C2677 C2669 1.433 . S
C2677 N2679 1.384 . S
N2678 C2674 1.427 . S
N2678 C2675 1.384 . S
N2679 C2671 1.427 . S
N2679 C2677 1.384 . S
C959 C101 2.337 . S
C963 C322 2.286 . S
C977 C57 2.033 . S
C981 C370 2.069 . S
C995 C73 1.359 . S
C999 C402 1.411 . S
C1017 C447 1.557 . S
C1013 C78 1.522 . S
C1031 C21 0.967 . S
C1035 C487 0.983 . S
C1053 C522 1.066 . S
C1049 C31 1.009 . S
C1071 C561 1.199 . S
C1067 C49 1.201 . S
C1085 C0 1.135 . S
C1089 C598 1.176 . S
C1107 C330 2.046 . S
C1103 C218 2.051 1_545 S
C1121 C229 0.622 . S
C1125 C367 0.457 . S
C1143 C410 2.398 . S
C1139 C257 2.424 . S
C1161 C442 1.150 . S
C1157 C164 1.097 1_556 S
C1175 C216 1.246 . S
C1179 C482 1.293 . S
C1197 C530 0.458 . S
C1193 C231 0.442 . S
C1215 C571 2.005 1_556 S
C1211 C255 2.037 . S
C1233 C601 1.980 . S
C1229 C166 2.002 . S
C1251 C327 1.286 . S
C1247 C143 1.236 . S
C1265 C265 2.134 . S
C1269 C650 2.155 . S
C1287 C687 1.150 . S
C1283 C299 1.124 . S
C1305 C718 0.545 . S
C1301 C291 0.527 . S
C1319 C104 2.682 . S
C1323 C611 2.664 . S
C1337 C117 1.339 . S
C1341 C407 1.381 . S
C1355 C304 1.665 . S
C1359 C770 1.685 . S
C1377 C802 1.805 . S
C1373 C278 1.777 . S
C1395 C331 2.273 . S
C1391 C60 2.327 . S
C1413 C801 1.957 . S
C1409 C96 1.956 . S
C1427 C88 1.323 . S
C1431 C411 1.308 . S
C1445 C65 1.536 . S
C1449 C758 1.492 . S
C1467 C478 0.909 1_655 S
C1463 C10 0.909 . S
C1481 C44 0.918 . S
C1485 C691 0.929 . S
C1503 C570 1.185 . S
C1499 C34 1.178 . S
C1521 C847 1.129 . S
C1517 C13 1.139 . S
C1539 C321 1.998 . S
C1535 C138 1.994 . S
C1557 C798 0.484 . S
C1553 C296 0.365 . S
C1571 C112 2.263 . S
C1575 C401 2.325 . S
C1589 C270 1.051 . S
C1593 C771 1.044 . S
C1607 C140 1.192 . S
C1611 C491 1.182 . S
C1629 C681 0.400 . S
C1625 C294 0.641 . S
C1643 C114 1.973 . S
C1647 C562 1.914 . S
C1661 C268 1.965 1_556 S
C1665 C850 1.970 . S
C1679 C169 1.438 . S
C1683 C318 1.334 . S
C1697 C161 2.068 . S
C1701 C641 2.064 . S
C1715 C234 1.149 . S
C1719 C518 1.121 . S
C1733 C226 0.542 . S
C1737 C727 0.565 . S
C1755 C842 2.608 . S
C1751 C247 2.603 . S
C1769 C195 1.348 . S
C1773 C398 1.327 . S
C1791 C441 1.607 . S
C1787 C239 1.616 . S
C1809 C371 1.713 . S
C1805 C187 1.672 . S
C1823 C75 2.338 . S
C1827 C882 2.288 . S
C1845 C810 2.071 . S
C1841 C83 2.035 . S
C1859 C99 1.341 . S
C1863 C922 1.419 . S
C1877 C52 1.509 1_655 S
C1881 C767 1.544 . S
C1895 C47 0.985 . S
C1899 C647 0.992 . S
C1917 C682 1.068 . S
C1913 C5 1.005 . S
C1935 C721 1.192 . S
C1931 C23 1.194 . S
C1953 C838 1.174 . S
C1949 C26 1.123 . S
C1971 C890 2.045 . S
C1967 C244 2.053 . S
C1985 C177 0.673 . S
C1989 C807 0.507 . S
C2007 C930 2.399 . S
C2003 C192 2.424 . S
C2025 C762 1.141 . S
C2021 C203 1.112 . S
C2043 C642 1.294 . S
C2039 C242 1.249 . S
C2057 C179 0.455 . S
C2061 C690 0.474 . S
C2079 C731 2.006 . S
C2075 C190 2.037 . S
C2093 C205 2.003 . S
C2097 C841 1.979 . S
C2115 C887 1.291 . S
C2111 C286 1.242 . S
C2129 C122 2.137 . S
C2133 C490 2.158 . S
C2151 C527 1.148 . S
C2147 C130 1.118 . S
C2169 C558 0.537 . S
C2165 C148 0.523 . S
C2187 C851 2.669 . S
C2183 C273 2.684 . S
C2201 C260 1.355 . S
C2205 C927 1.390 . S
C2223 C450 1.681 . S
C2219 C135 1.662 . S
C2241 C362 1.803 . S
C2237 C109 1.779 . S
C2255 C86 2.324 . S
C2259 C891 2.273 . S
C2277 C361 1.956 . S
C2273 C70 1.954 . S
C2291 C62 1.321 . S
C2295 C931 1.316 . S
C2309 C91 1.537 . S
C2313 C438 1.492 . S
C2327 C36 0.914 . S
C2331 C638 0.906 . S
C2349 C531 0.936 . S
C2345 C18 0.897 . S
C2363 C8 1.179 . S
C2367 C730 1.186 . S
C2381 C39 1.139 . S
C2385 C607 1.129 . S
C2403 C881 1.995 . S
C2399 C307 1.992 . S
C2417 C153 0.368 . S
C2421 C358 0.486 . S
C2439 C921 2.329 . S
C2435 C281 2.272 . S
C2453 C127 1.051 . S
C2457 C451 1.034 . S
C2471 C309 1.192 . S
C2475 C651 1.183 . S
C2493 C521 0.345 . S
C2489 C151 0.593 . S
C2507 C283 1.973 . S
C2511 C722 1.915 1_655 S
C2529 C610 1.970 . S
C2525 C125 1.965 . S
C2547 C878 1.351 . S
C2543 C221 1.442 . S
C2565 C481 2.062 1_565 S
C2561 C200 2.067 . S
C2579 C208 1.146 . S
C2583 C678 1.132 . S
C2601 C567 0.566 . S
C2597 C174 0.542 . S
C2615 C182 2.608 . S
C2619 C602 2.602 . S
C2633 C156 1.344 . S
C2637 C918 1.328 . S
C2655 C761 1.605 . S
C2651 C213 1.616 . S
C2673 C811 1.718 . S
C2669 C252 1.666 . S
